# Generated by pormake.
# Topology zzz, (3,6)-cn, num edge types: 1
# Building blocks:
#     Node 0, Type 0, BuildingBlock: OLANEW_clean_sbu_2, # of connection points: 3
#     Node 1, Type 0, BuildingBlock: OLANEW_clean_sbu_2, # of connection points: 3
#     Node 2, Type 0, BuildingBlock: OLANEW_clean_sbu_2, # of connection points: 3
#     Node 3, Type 0, BuildingBlock: OLANEW_clean_sbu_2, # of connection points: 3
#     Node 4, Type 0, BuildingBlock: OLANEW_clean_sbu_2, # of connection points: 3
#     Node 5, Type 0, BuildingBlock: OLANEW_clean_sbu_2, # of connection points: 3
#     Node 6, Type 0, BuildingBlock: OLANEW_clean_sbu_2, # of connection points: 3
#     Node 7, Type 0, BuildingBlock: OLANEW_clean_sbu_2, # of connection points: 3
#     Node 8, Type 1, BuildingBlock: JUFBIX_clean_sbu_0, # of connection points: 6
#     Node 9, Type 1, BuildingBlock: JUFBIX_clean_sbu_0, # of connection points: 6
#     Node 10, Type 1, BuildingBlock: JUFBIX_clean_sbu_0, # of connection points: 6
#     Node 11, Type 1, BuildingBlock: JUFBIX_clean_sbu_0, # of connection points: 6
#     Edge 12, Type (0, 1), BuildingBlock: MIFKUJ_clean_linker_0, # of connection points: 2
#     Edge 13, Type (0, 1), BuildingBlock: MIFKUJ_clean_linker_0, # of connection points: 2
#     Edge 14, Type (0, 1), BuildingBlock: MIFKUJ_clean_linker_0, # of connection points: 2
#     Edge 15, Type (0, 1), BuildingBlock: MIFKUJ_clean_linker_0, # of connection points: 2
#     Edge 16, Type (0, 1), BuildingBlock: MIFKUJ_clean_linker_0, # of connection points: 2
#     Edge 17, Type (0, 1), BuildingBlock: MIFKUJ_clean_linker_0, # of connection points: 2
#     Edge 18, Type (0, 1), BuildingBlock: MIFKUJ_clean_linker_0, # of connection points: 2
#     Edge 19, Type (0, 1), BuildingBlock: MIFKUJ_clean_linker_0, # of connection points: 2
#     Edge 20, Type (0, 1), BuildingBlock: MIFKUJ_clean_linker_0, # of connection points: 2
#     Edge 21, Type (0, 1), BuildingBlock: MIFKUJ_clean_linker_0, # of connection points: 2
#     Edge 22, Type (0, 1), BuildingBlock: MIFKUJ_clean_linker_0, # of connection points: 2
#     Edge 23, Type (0, 1), BuildingBlock: MIFKUJ_clean_linker_0, # of connection points: 2
#     Edge 24, Type (0, 1), BuildingBlock: MIFKUJ_clean_linker_0, # of connection points: 2
#     Edge 25, Type (0, 1), BuildingBlock: MIFKUJ_clean_linker_0, # of connection points: 2
#     Edge 26, Type (0, 1), BuildingBlock: MIFKUJ_clean_linker_0, # of connection points: 2
#     Edge 27, Type (0, 1), BuildingBlock: MIFKUJ_clean_linker_0, # of connection points: 2
#     Edge 28, Type (0, 1), BuildingBlock: MIFKUJ_clean_linker_0, # of connection points: 2
#     Edge 29, Type (0, 1), BuildingBlock: MIFKUJ_clean_linker_0, # of connection points: 2
#     Edge 30, Type (0, 1), BuildingBlock: MIFKUJ_clean_linker_0, # of connection points: 2
#     Edge 31, Type (0, 1), BuildingBlock: MIFKUJ_clean_linker_0, # of connection points: 2
#     Edge 32, Type (0, 1), BuildingBlock: MIFKUJ_clean_linker_0, # of connection points: 2
#     Edge 33, Type (0, 1), BuildingBlock: MIFKUJ_clean_linker_0, # of connection points: 2
#     Edge 34, Type (0, 1), BuildingBlock: MIFKUJ_clean_linker_0, # of connection points: 2
#     Edge 35, Type (0, 1), BuildingBlock: MIFKUJ_clean_linker_0, # of connection points: 2
# Relax obj value: 0.125
# Max RMSD: 0.184
# Mean RMSD: 0.090
data_MOF--net-zzz--node1-OLANEW_clean_sbu_2--node2-JUFBIX_clean_sbu_0--edge1-MIFKUJ_clean_linker_0
_symmetry_space_group_name_H-M    P1
_symmetry_Int_Tables_number       1
_symmetry_cell_setting            triclinic
loop_
_symmetry_equiv_pos_as_xyz
'x, y, z'
_cell_length_a     69.547199
_cell_length_b     69.314384
_cell_length_c     24.425111
_cell_angle_alpha  83.287674
_cell_angle_beta   89.811088
_cell_angle_gamma 89.685223
loop_
_atom_site_label
_atom_site_type_symbol
_atom_site_fract_x
_atom_site_fract_y
_atom_site_fract_z
_atom_type_partial_charge
O0 O 0.7931 0.5793 0.08721 0.0
Cd1 Cd 0.76006 0.58717 0.11062 0.0
O2 O 0.80235 0.58188 0.17189 0.0
Cd3 Cd 0.82366 0.57802 0.23802 0.0
O4 O 0.8445 0.57093 0.30409 0.0
C5 C 0.8589 0.58178 0.30918 0.0
O6 O 0.86114 0.59746 0.27401 0.0
C7 C 0.80636 0.57853 0.12305 0.0
C8 C 0.73351 0.56847 0.04985 0.0
O9 O 0.73988 0.56034 0.09613 0.0
O10 O 0.73973 0.58544 0.03223 0.0
O11 O 0.89168 0.78535 0.06742 0.0
Cd12 Cd 0.89763 0.79358 0.96876 0.0
O13 O 0.90009 0.78981 0.15172 0.0
Cd14 Cd 0.91615 0.80624 0.20733 0.0
O15 O 0.92919 0.82563 0.26083 0.0
C16 C 0.91928 0.83117 0.29999 0.0
O17 O 0.90158 0.82485 0.30745 0.0
C18 C 0.9017 0.79416 0.09996 0.0
C19 C 0.91955 0.7643 0.92969 0.0
O20 O 0.90117 0.76443 0.92593 0.0
O21 O 0.92759 0.7782 0.95122 0.0
O22 O 0.72111 0.92328 0.00598 0.0
Cd23 Cd 0.75129 0.90644 0.0295 0.0
O24 O 0.72422 0.93668 0.08251 0.0
Cd25 Cd 0.71203 0.95352 0.14414 0.0
O26 O 0.69393 0.96186 0.21047 0.0
C27 C 0.6761 0.95819 0.20796 0.0
O28 O 0.66962 0.9502 0.16546 0.0
C29 C 0.71484 0.93468 0.03904 0.0
C30 C 0.78205 0.92495 0.97255 0.0
O31 O 0.77372 0.91051 0.95447 0.0
O32 O 0.77579 0.93062 0.01745 0.0
O33 O 0.58382 0.72703 0.97081 0.0
Cd34 Cd 0.60463 0.75442 0.98391 0.0
O35 O 0.58405 0.7186 0.06012 0.0
Cd36 Cd 0.57613 0.70097 0.1372 0.0
O37 O 0.56857 0.6818 0.21153 0.0
C38 C 0.57178 0.66365 0.21389 0.0
O39 O 0.57972 0.65673 0.17131 0.0
C40 C 0.57877 0.71531 0.01223 0.0
C41 C 0.58848 0.79042 0.94642 0.0
O42 O 0.59839 0.78096 0.91405 0.0
O43 O 0.58608 0.78275 0.99631 0.0
O44 O 0.20675 0.47144 0.40216 0.0
Cd45 Cd 0.23468 0.46335 0.34816 0.0
O46 O 0.19865 0.44085 0.42271 0.0
Cd47 Cd 0.21392 0.43355 0.34975 0.0
O48 O 0.20287 0.43892 0.26585 0.0
C49 C 0.1888 0.42854 0.25404 0.0
O50 O 0.18355 0.41389 0.28994 0.0
C51 C 0.1965 0.45862 0.4298 0.0
C52 C 0.26789 0.47099 0.40575 0.0
O53 O 0.25948 0.45451 0.41467 0.0
O54 O 0.26082 0.48369 0.36881 0.0
O55 O 0.08553 0.22681 0.56739 0.0
Cd56 Cd 0.09972 0.25766 0.52915 0.0
O57 O 0.08392 0.21724 0.48506 0.0
Cd58 Cd 0.079 0.19619 0.42621 0.0
O59 O 0.07385 0.17527 0.36742 0.0
C60 C 0.05837 0.16553 0.37042 0.0
O61 O 0.04578 0.16828 0.40902 0.0
C62 C 0.0809 0.21398 0.53674 0.0
C63 C 0.08588 0.28842 0.58251 0.0
O64 O 0.07743 0.28341 0.53984 0.0
O65 O 0.10095 0.2789 0.5999 0.0
O66 O 0.276 0.07526 0.56104 0.0
Cd67 Cd 0.24489 0.08953 0.53298 0.0
O68 O 0.28856 0.09245 0.4888 0.0
Cd69 Cd 0.31216 0.09872 0.43067 0.0
O70 O 0.33216 0.09435 0.36437 0.0
C71 C 0.33562 0.07678 0.35741 0.0
O72 O 0.32743 0.0629 0.39055 0.0
C73 C 0.29059 0.08024 0.53142 0.0
C74 C 0.21458 0.07036 0.5905 0.0
O75 O 0.22105 0.06466 0.54585 0.0
O76 O 0.2225 0.08513 0.60799 0.0
O77 O 0.41044 0.3006 0.56585 0.0
Cd78 Cd 0.39811 0.27097 0.5337 0.0
O79 O 0.40623 0.31445 0.48153 0.0
Cd80 Cd 0.40605 0.33818 0.41389 0.0
O81 O 0.4107 0.36074 0.345 0.0
C82 C 0.42791 0.3649 0.33073 0.0
O83 O 0.44207 0.35561 0.35808 0.0
C84 C 0.41192 0.31552 0.53059 0.0
C85 C 0.41555 0.23744 0.58571 0.0
O86 O 0.42362 0.24752 0.54473 0.0
O87 O 0.39925 0.24324 0.6024 0.0
Co88 Co 0.00425 0.00123 0.8643 0.0
C89 C 0.9676 0.99649 0.82185 0.0
Co90 Co 0.00399 0.99047 0.78274 0.0
C91 C 0.01272 0.02438 0.95298 0.0
C92 C 0.99248 0.00171 0.97621 0.0
N93 N 0.00348 0.00945 0.93378 0.0
N94 N 0.00779 0.02631 0.0057 0.0
C95 C 0.99511 0.01198 0.02035 0.0
H96 H 0.02249 0.03391 0.92826 0.0
H97 H 0.98296 0.98948 0.97492 0.0
C98 C 0.04051 0.99472 0.82533 0.0
N99 N 0.00466 0.98222 0.71343 0.0
C100 C 0.99403 0.96827 0.69412 0.0
C101 C 0.01631 0.98886 0.67124 0.0
N102 N 0.9986 0.96588 0.64149 0.0
C103 C 0.01263 0.97886 0.62703 0.0
C104 C 0.00637 0.03081 0.77909 0.0
O105 O 0.0316 0.00088 0.86546 0.0
O106 O 0.03102 0.98902 0.78598 0.0
O107 O 0.00582 0.01671 0.7502 0.0
O108 O 0.00498 0.02739 0.83119 0.0
O109 O 0.97673 0.9918 0.7802 0.0
H110 H 0.02685 0.00021 0.67263 0.0
H111 H 0.98339 0.95982 0.7187 0.0
O112 O 0.97696 0.00149 0.86245 0.0
O113 O 0.00355 0.97494 0.89681 0.0
O114 O 0.00238 0.96439 0.81572 0.0
C115 C 0.00228 0.9609 0.86793 0.0
H116 H 0.98823 0.00902 0.06023 0.0
H117 H 0.01964 0.98116 0.5872 0.0
Co118 Co 0.50129 0.0175 0.8275 0.0
C119 C 0.51177 0.98152 0.79501 0.0
Co120 Co 0.5129 0.01879 0.74304 0.0
C121 C 0.47735 0.02454 0.9201 0.0
C122 C 0.49995 0.0041 0.94272 0.0
N123 N 0.49247 0.01548 0.89937 0.0
N124 N 0.47504 0.01918 0.97468 0.0
C125 C 0.48926 0.0063 0.989 0.0
H126 H 0.46803 0.03463 0.89538 0.0
H127 H 0.5124 0.99476 0.94074 0.0
C128 C 0.5024 0.05475 0.77498 0.0
N129 N 0.52169 0.02076 0.67109 0.0
C130 C 0.53725 0.01233 0.65055 0.0
C131 C 0.51317 0.0308 0.627 0.0
N132 N 0.53866 0.0166 0.59532 0.0
C133 C 0.52352 0.02821 0.58037 0.0
C134 C 0.47298 0.01534 0.75042 0.0
O135 O 0.49805 0.04489 0.82045 0.0
O136 O 0.50959 0.04614 0.73652 0.0
O137 O 0.48727 0.01631 0.71769 0.0
O138 O 0.47589 0.01519 0.80175 0.0
O139 O 0.51616 0.99149 0.74981 0.0
H140 H 0.50017 0.03936 0.62864 0.0
H141 H 0.5471 0.00289 0.67548 0.0
O142 O 0.50461 0.99003 0.83374 0.0
O143 O 0.52669 0.01987 0.85298 0.0
O144 O 0.53844 0.02111 0.76929 0.0
C145 C 0.54113 0.02081 0.82086 0.0
H146 H 0.49191 0.99917 0.03012 0.0
H147 H 0.52025 0.0345 0.53875 0.0
Co148 Co 0.50987 0.51017 0.78065 0.0
C149 C 0.48245 0.49592 0.85759 0.0
Co150 Co 0.4807 0.52207 0.76304 0.0
C151 C 0.5509 0.51025 0.79738 0.0
C152 C 0.5391 0.48167 0.81199 0.0
N153 N 0.53427 0.50036 0.79659 0.0
N154 N 0.56599 0.49851 0.81311 0.0
C155 C 0.55853 0.48048 0.82223 0.0
H156 H 0.55176 0.52582 0.78713 0.0
H157 H 0.52905 0.46973 0.81671 0.0
C158 C 0.50805 0.53632 0.68603 0.0
N159 N 0.45619 0.53157 0.74619 0.0
C160 C 0.44057 0.52107 0.73608 0.0
C161 C 0.45083 0.55023 0.73271 0.0
N162 N 0.42584 0.53237 0.71551 0.0
C163 C 0.4322 0.55077 0.71363 0.0
C164 C 0.50189 0.54412 0.82762 0.0
O165 O 0.51942 0.52532 0.71626 0.0
O166 O 0.49039 0.53695 0.69918 0.0
O167 O 0.48566 0.54305 0.80447 0.0
O168 O 0.51457 0.53113 0.82288 0.0
O169 O 0.47109 0.50695 0.82741 0.0
H170 H 0.46023 0.56258 0.73354 0.0
H171 H 0.44048 0.50535 0.73977 0.0
O172 O 0.50012 0.49528 0.84447 0.0
O173 O 0.50491 0.48919 0.73884 0.0
O174 O 0.47613 0.50121 0.72136 0.0
C175 C 0.48862 0.48817 0.71608 0.0
H176 H 0.56633 0.4674 0.83734 0.0
H177 H 0.42428 0.56364 0.69727 0.0
Co178 Co 0.01901 0.53523 0.83249 0.0
C179 C 0.03577 0.51032 0.91548 0.0
Co180 Co 0.00889 0.50503 0.83519 0.0
C181 C 0.01396 0.57619 0.82798 0.0
C182 C 0.04376 0.56862 0.83586 0.0
N183 N 0.02615 0.56091 0.83162 0.0
N184 N 0.02314 0.59318 0.82999 0.0
C185 C 0.04195 0.58848 0.83504 0.0
H186 H 0.99851 0.57473 0.82555 0.0
H187 H 0.057 0.56031 0.83992 0.0
C188 C 0.9923 0.52973 0.75134 0.0
N189 N 0.00159 0.4794 0.83557 0.0
C190 C 0.0134 0.46403 0.83275 0.0
C191 C 0.98371 0.47237 0.83093 0.0
N192 N 0.00368 0.44779 0.82516 0.0
C193 C 0.98495 0.45295 0.82423 0.0
C194 C 0.98629 0.52635 0.89778 0.0
O195 O 0.00259 0.54232 0.77109 0.0
O196 O 0.99304 0.51218 0.77306 0.0
O197 O 0.98809 0.5096 0.88212 0.0
O198 O 0.99846 0.53942 0.88169 0.0
O199 O 0.02475 0.49802 0.89706 0.0
H200 H 0.9707 0.48105 0.82945 0.0
H201 H 0.02892 0.46506 0.83229 0.0
O202 O 0.03549 0.52786 0.89338 0.0
O203 O 0.03951 0.53084 0.78374 0.0
O204 O 0.02986 0.50067 0.78811 0.0
C205 C 0.04176 0.51378 0.77054 0.0
H206 H 0.05357 0.59863 0.83803 0.0
H207 H 0.97307 0.44358 0.81682 0.0
H208 H 0.19546 0.08102 0.68032 0.0
H209 H 0.16799 0.06491 0.72821 0.0
H210 H 0.1696 0.02079 0.61741 0.0
H211 H 0.19681 0.03706 0.56851 0.0
H212 H 0.13406 0.033 0.62932 0.0
H213 H 0.18544 0.01157 0.75204 0.0
H214 H 0.21366 0.01525 0.81075 0.0
H215 H 0.17996 0.04916 0.91236 0.0
H216 H 0.1516 0.04589 0.85379 0.0
H217 H 0.0645 0.97397 0.76631 0.0
H218 H 0.0972 0.98281 0.73682 0.0
H219 H 0.09615 0.02979 0.83816 0.0
H220 H 0.06359 0.02067 0.86901 0.0
H221 H 0.13209 0.01465 0.83183 0.0
H222 H 0.08006 0.03473 0.70695 0.0
H223 H 0.05252 0.03012 0.64726 0.0
H224 H 0.08782 0.99681 0.54821 0.0
H225 H 0.11571 0.0012 0.60749 0.0
C226 C 0.19003 0.06784 0.66629 0.0
C227 C 0.19832 0.06031 0.62062 0.0
C228 C 0.17438 0.05859 0.6939 0.0
C229 C 0.16688 0.0415 0.67683 0.0
C230 C 0.17517 0.03394 0.63134 0.0
C231 C 0.19074 0.04324 0.60349 0.0
C232 C 0.14996 0.03189 0.70514 0.0
C233 C 0.13375 0.02867 0.67346 0.0
C234 C 0.14943 0.02665 0.76292 0.0
C235 C 0.16645 0.02863 0.79823 0.0
C236 C 0.18409 0.01994 0.78665 0.0
C237 C 0.2001 0.02192 0.81995 0.0
C238 C 0.19862 0.03247 0.86518 0.0
C239 C 0.1811 0.04101 0.87727 0.0
C240 C 0.16504 0.03908 0.84408 0.0
C241 C 0.07148 0.98581 0.78359 0.0
C242 C 0.06148 0.99681 0.81934 0.0
C243 C 0.09012 0.99088 0.76658 0.0
C244 C 0.09882 0.00732 0.78398 0.0
C245 C 0.08958 0.01718 0.82379 0.0
C246 C 0.07101 0.01193 0.84151 0.0
C247 C 0.11631 0.0156 0.75589 0.0
C248 C 0.13251 0.01877 0.7876 0.0
C249 C 0.11689 0.02068 0.69796 0.0
C250 C 0.10006 0.01828 0.66193 0.0
C251 C 0.08205 0.02647 0.67247 0.0
C252 C 0.06632 0.02385 0.63872 0.0
C253 C 0.06838 0.01314 0.59405 0.0
C254 C 0.08623 0.0051 0.58287 0.0
C255 C 0.10202 0.00768 0.61649 0.0
H256 H 0.05615 0.01108 0.56809 0.0
H257 H 0.21103 0.03399 0.89091 0.0
H258 H 0.39826 0.20723 0.64863 0.0
H259 H 0.41321 0.17674 0.68907 0.0
H260 H 0.46825 0.19663 0.62406 0.0
H261 H 0.45336 0.22693 0.58228 0.0
H262 H 0.43584 0.15001 0.62534 0.0
H263 H 0.49979 0.18058 0.73623 0.0
H264 H 0.50794 0.20945 0.78161 0.0
H265 H 0.44847 0.21708 0.82212 0.0
H266 H 0.44001 0.18811 0.77775 0.0
H267 H 0.50784 0.07904 0.68004 0.0
H268 H 0.49358 0.11113 0.65578 0.0
H269 H 0.46946 0.10935 0.81913 0.0
H270 H 0.4837 0.07713 0.84404 0.0
H271 H 0.48401 0.14642 0.77587 0.0
H272 H 0.44255 0.09589 0.72197 0.0
H273 H 0.43631 0.06699 0.67466 0.0
H274 H 0.45052 0.09926 0.5191 0.0
H275 H 0.45726 0.12822 0.56554 0.0
C276 C 0.41356 0.20513 0.64316 0.0
C277 C 0.42465 0.21942 0.61222 0.0
C278 C 0.42204 0.18772 0.66611 0.0
C279 C 0.4418 0.18455 0.6596 0.0
C280 C 0.45298 0.19891 0.62964 0.0
C281 C 0.44445 0.21615 0.60574 0.0
C282 C 0.45071 0.16596 0.68263 0.0
C283 C 0.4463 0.14917 0.65842 0.0
C284 C 0.46432 0.16498 0.72575 0.0
C285 C 0.46926 0.1823 0.75312 0.0
C286 C 0.48847 0.18839 0.75499 0.0
C287 C 0.49314 0.20477 0.78052 0.0
C288 C 0.47873 0.21513 0.80456 0.0
C289 C 0.45961 0.2091 0.80327 0.0
C290 C 0.45487 0.19272 0.77783 0.0
C291 C 0.49982 0.08559 0.71127 0.0
C292 C 0.49677 0.07545 0.76387 0.0
C293 C 0.49163 0.10391 0.6972 0.0
C294 C 0.48023 0.11242 0.7354 0.0
C295 C 0.47817 0.10294 0.78906 0.0
C296 C 0.48632 0.08455 0.80318 0.0
C297 C 0.46938 0.13051 0.71798 0.0
C298 C 0.47345 0.14721 0.74308 0.0
C299 C 0.45548 0.13142 0.67546 0.0
C300 C 0.45062 0.11419 0.64737 0.0
C301 C 0.44445 0.0968 0.67772 0.0
C302 C 0.44084 0.0804 0.65105 0.0
C303 C 0.44318 0.08127 0.59398 0.0
C304 C 0.44883 0.0986 0.56335 0.0
C305 C 0.45254 0.11501 0.58981 0.0
H306 H 0.44062 0.06854 0.57337 0.0
H307 H 0.48237 0.22782 0.82429 0.0
H308 H 0.28273 0.44961 0.49736 0.0
H309 H 0.30982 0.45799 0.55374 0.0
H310 H 0.31846 0.51077 0.4445 0.0
H311 H 0.29139 0.50257 0.38803 0.0
H312 H 0.35268 0.49073 0.47332 0.0
H313 H 0.29563 0.5128 0.56269 0.0
H314 H 0.26371 0.50862 0.60663 0.0
H315 H 0.28698 0.46582 0.73039 0.0
H316 H 0.319 0.46956 0.68669 0.0
H317 H 0.40763 0.54983 0.62516 0.0
H318 H 0.38071 0.537 0.57694 0.0
H319 H 0.37841 0.487 0.69952 0.0
H320 H 0.40557 0.49977 0.74815 0.0
H321 H 0.34191 0.50206 0.66807 0.0
H322 H 0.39888 0.48082 0.58543 0.0
H323 H 0.43117 0.48403 0.54364 0.0
H324 H 0.40876 0.5231 0.40932 0.0
H325 H 0.37636 0.5204 0.45084 0.0
C326 C 0.29047 0.46295 0.48513 0.0
C327 C 0.28488 0.47547 0.43831 0.0
C328 C 0.30589 0.46773 0.5175 0.0
C329 C 0.31603 0.48507 0.50349 0.0
C330 C 0.31081 0.49733 0.45601 0.0
C331 C 0.2953 0.49264 0.4239 0.0
C332 C 0.33186 0.49071 0.53879 0.0
C333 C 0.35029 0.49337 0.51573 0.0
C334 C 0.32887 0.4935 0.59471 0.0
C335 C 0.30965 0.4913 0.62106 0.0
C336 C 0.2939 0.50237 0.59899 0.0
C337 C 0.2758 0.50011 0.62391 0.0
C338 C 0.2733 0.48692 0.67117 0.0
C339 C 0.28892 0.47601 0.69371 0.0
C340 C 0.30705 0.4782 0.66891 0.0
C341 C 0.40121 0.53628 0.64246 0.0
C342 C 0.40873 0.52579 0.69044 0.0
C343 C 0.38594 0.52888 0.6146 0.0
C344 C 0.37779 0.51091 0.6343 0.0
C345 C 0.38465 0.50079 0.6835 0.0
C346 C 0.40014 0.50807 0.71107 0.0
C347 C 0.36258 0.50252 0.60214 0.0
C348 C 0.34432 0.49927 0.62579 0.0
C349 C 0.36577 0.49896 0.54695 0.0
C350 C 0.3852 0.50054 0.52153 0.0
C351 C 0.40085 0.49023 0.54722 0.0
C352 C 0.41918 0.49193 0.52354 0.0
C353 C 0.42202 0.50378 0.47391 0.0
C354 C 0.40654 0.51393 0.44779 0.0
C355 C 0.38818 0.51231 0.47137 0.0
H356 H 0.43622 0.50508 0.45563 0.0
H357 H 0.25928 0.48519 0.69041 0.0
H358 H 0.10045 0.3024 0.67408 0.0
H359 H 0.08793 0.32922 0.72078 0.0
H360 H 0.0419 0.33786 0.60235 0.0
H361 H 0.05444 0.31126 0.55505 0.0
H362 H 0.05771 0.37187 0.62023 0.0
H363 H 0.03429 0.31475 0.73186 0.0
H364 H 0.0373 0.28302 0.78852 0.0
H365 H 0.07341 0.3085 0.90263 0.0
H366 H 0.07082 0.34034 0.84621 0.0
H367 H 0.98934 0.42529 0.75201 0.0
H368 H 0.00524 0.39763 0.71727 0.0
H369 H 0.05289 0.40278 0.82702 0.0
H370 H 0.03702 0.43067 0.86195 0.0
H371 H 0.03906 0.36276 0.81789 0.0
H372 H 0.06119 0.42023 0.70878 0.0
H373 H 0.05753 0.45207 0.65317 0.0
H374 H 0.02378 0.42597 0.53496 0.0
H375 H 0.02694 0.394 0.59039 0.0
C376 C 0.08766 0.31001 0.65796 0.0
C377 C 0.07841 0.30467 0.6109 0.0
C378 C 0.08049 0.32529 0.68484 0.0
C379 C 0.06388 0.33543 0.66535 0.0
C380 C 0.05474 0.33024 0.61809 0.0
C381 C 0.0619 0.31499 0.5912 0.0
C382 C 0.05599 0.35152 0.69384 0.0
C383 C 0.05349 0.36981 0.66331 0.0
C384 C 0.05099 0.34899 0.75051 0.0
C385 C 0.05254 0.32987 0.78448 0.0
C386 C 0.04301 0.31355 0.76878 0.0
C387 C 0.04461 0.29555 0.80091 0.0
C388 C 0.05559 0.29373 0.84906 0.0
C389 C 0.06494 0.30992 0.86527 0.0
C390 C 0.0634 0.32795 0.83326 0.0
C391 C 0.00299 0.4203 0.76963 0.0
C392 C 0.01195 0.43013 0.80969 0.0
C393 C 0.01212 0.40459 0.74948 0.0
C394 C 0.03026 0.39831 0.76936 0.0
C395 C 0.03889 0.40747 0.8112 0.0
C396 C 0.02987 0.42339 0.83088 0.0
C397 C 0.04052 0.38287 0.74392 0.0
C398 C 0.04346 0.36479 0.77496 0.0
C399 C 0.04597 0.38556 0.68775 0.0
C400 C 0.04415 0.40474 0.65403 0.0
C401 C 0.05284 0.4213 0.67119 0.0
C402 C 0.05088 0.43937 0.63966 0.0
C403 C 0.0404 0.44105 0.59063 0.0
C404 C 0.03188 0.42465 0.57298 0.0
C405 C 0.03376 0.40654 0.60442 0.0
H406 H 0.03891 0.45506 0.56626 0.0
H407 H 0.05681 0.27979 0.87388 0.0
H408 H 0.79747 0.96028 0.98541 0.0
H409 H 0.82692 0.97451 0.94325 0.0
H410 H 0.8343 0.92493 0.85372 0.0
H411 H 0.80467 0.91074 0.89483 0.0
H412 H 0.86605 0.93379 0.92169 0.0
H413 H 0.82442 0.96432 0.78089 0.0
H414 H 0.79648 0.98382 0.74498 0.0
H415 H 0.81825 0.03323 0.81544 0.0
H416 H 0.8462 0.01394 0.85251 0.0
H417 H 0.94241 0.98842 0.74151 0.0
H418 H 0.90886 0.97802 0.75452 0.0
H419 H 0.9122 0.98608 0.92656 0.0
H420 H 0.94547 0.99678 0.91401 0.0
H421 H 0.8747 0.99667 0.80465 0.0
H422 H 0.89283 0.94209 0.99244 0.0
H423 H 0.91941 0.92145 0.03252 0.0
H424 H 0.9438 0.91977 0.87148 0.0
H425 H 0.91714 0.94015 0.83017 0.0
C426 C 0.80522 0.95254 0.95615 0.0
C427 C 0.79885 0.93434 0.94367 0.0
C428 C 0.82195 0.96074 0.93189 0.0
C429 C 0.83267 0.95078 0.89529 0.0
C430 C 0.82611 0.93285 0.88169 0.0
C431 C 0.80921 0.92478 0.90522 0.0
C432 C 0.85173 0.9581 0.87595 0.0
C433 C 0.86795 0.94747 0.89576 0.0
C434 C 0.85408 0.97596 0.84229 0.0
C435 C 0.83733 0.98762 0.81987 0.0
C436 C 0.82317 0.97929 0.78916 0.0
C437 C 0.80735 0.99032 0.7685 0.0
C438 C 0.80557 0.00974 0.77802 0.0
C439 C 0.81964 0.01818 0.80812 0.0
C440 C 0.83549 0.00721 0.82891 0.0
C441 C 0.93586 0.98839 0.78182 0.0
C442 C 0.94661 0.99338 0.82674 0.0
C443 C 0.91673 0.98245 0.78914 0.0
C444 C 0.90823 0.98112 0.84158 0.0
C445 C 0.91861 0.98693 0.88586 0.0
C446 C 0.9376 0.99312 0.87848 0.0
C447 C 0.88897 0.97247 0.85127 0.0
C448 C 0.87276 0.98289 0.83004 0.0
C449 C 0.88655 0.95447 0.88422 0.0
C450 C 0.90307 0.9428 0.90831 0.0
C451 C 0.90387 0.93734 0.96555 0.0
C452 C 0.91891 0.92567 0.98846 0.0
C453 C 0.93323 0.91932 0.95454 0.0
C454 C 0.93267 0.92476 0.89764 0.0
C455 C 0.91761 0.93641 0.87445 0.0
H456 H 0.94467 0.9101 0.97252 0.0
H457 H 0.79331 0.01825 0.76199 0.0
H458 H 0.58973 0.80987 0.84224 0.0
H459 H 0.57673 0.84219 0.81118 0.0
H460 H 0.55561 0.84689 0.97537 0.0
H461 H 0.56865 0.81473 0.00682 0.0
H462 H 0.5404 0.85644 0.80908 0.0
H463 H 0.56015 0.89365 0.00322 0.0
H464 H 0.58576 0.89236 0.07323 0.0
H465 H 0.62515 0.86914 0.96175 0.0
H466 H 0.59988 0.87055 0.89082 0.0
H467 H 0.5073 0.95701 0.88999 0.0
H468 H 0.51944 0.92383 0.9098 0.0
H469 H 0.54046 0.92572 0.74294 0.0
H470 H 0.52833 0.95898 0.72258 0.0
H471 H 0.55741 0.91334 0.90456 0.0
H472 H 0.53987 0.87834 0.7087 0.0
H473 H 0.51554 0.88067 0.63487 0.0
H474 H 0.47354 0.90046 0.74518 0.0
H475 H 0.49754 0.89801 0.81981 0.0
C476 C 0.58232 0.81779 0.87174 0.0
C477 C 0.58028 0.80977 0.92706 0.0
C478 C 0.57487 0.83623 0.85387 0.0
C479 C 0.5654 0.84703 0.89109 0.0
C480 C 0.56313 0.83894 0.94614 0.0
C481 C 0.57052 0.82051 0.96399 0.0
C482 C 0.55774 0.86671 0.87257 0.0
C483 C 0.54432 0.86895 0.82942 0.0
C484 C 0.56274 0.88299 0.8994 0.0
C485 C 0.57803 0.88199 0.94195 0.0
C486 C 0.57429 0.8883 0.99362 0.0
C487 C 0.58875 0.88755 0.03345 0.0
C488 C 0.60705 0.8806 0.02201 0.0
C489 C 0.61094 0.87443 0.97065 0.0
C490 C 0.59654 0.87516 0.93066 0.0
C491 C 0.5142 0.95029 0.85715 0.0
C492 C 0.51684 0.96065 0.80468 0.0
C493 C 0.5212 0.93135 0.86864 0.0
C494 C 0.53081 0.92233 0.82785 0.0
C495 C 0.53289 0.93235 0.77483 0.0
C496 C 0.52597 0.95136 0.76332 0.0
C497 C 0.53973 0.90295 0.84211 0.0
C498 C 0.5535 0.90082 0.88423 0.0
C499 C 0.5352 0.88687 0.81392 0.0
C500 C 0.52057 0.88819 0.76962 0.0
C501 C 0.52542 0.88313 0.71722 0.0
C502 C 0.51169 0.88448 0.67524 0.0
C503 C 0.49302 0.89077 0.68528 0.0
C504 C 0.48803 0.89566 0.73739 0.0
C505 C 0.5017 0.89433 0.77951 0.0
H506 H 0.48242 0.89181 0.65271 0.0
H507 H 0.61822 0.88005 0.0529 0.0
H508 H 0.71835 0.53221 0.07521 0.0
H509 H 0.69327 0.51682 0.0258 0.0
H510 H 0.69053 0.56736 0.90485 0.0
H511 H 0.71584 0.58272 0.95349 0.0
H512 H 0.65743 0.52829 0.0099 0.0
H513 H 0.67596 0.55446 0.78127 0.0
H514 H 0.70465 0.5618 0.72306 0.0
H515 H 0.73859 0.52326 0.83488 0.0
H516 H 0.71006 0.51548 0.89335 0.0
H517 H 0.5788 0.53461 0.82812 0.0
H518 H 0.61103 0.54318 0.85542 0.0
H519 H 0.62988 0.48414 0.85214 0.0
H520 H 0.59796 0.47541 0.82157 0.0
H521 H 0.6566 0.52237 0.80931 0.0
H522 H 0.62255 0.48508 0.95988 0.0
H523 H 0.59399 0.47692 0.01779 0.0
H524 H 0.59319 0.5345 0.06611 0.0
H525 H 0.62149 0.54317 0.00722 0.0
C526 C 0.71255 0.53998 0.03779 0.0
C527 C 0.71905 0.55872 0.01838 0.0
C528 C 0.69821 0.53116 0.0096 0.0
C529 C 0.69012 0.54085 0.96137 0.0
C530 C 0.69679 0.55944 0.94141 0.0
C531 C 0.71118 0.56826 0.9695 0.0
C532 C 0.67376 0.53213 0.93426 0.0
C533 C 0.6574 0.52681 0.96616 0.0
C534 C 0.67368 0.5301 0.87717 0.0
C535 C 0.69089 0.53452 0.84193 0.0
C536 C 0.68952 0.54748 0.79331 0.0
C537 C 0.70576 0.55174 0.76029 0.0
C538 C 0.72344 0.54305 0.77534 0.0
C539 C 0.7249 0.53004 0.82337 0.0
C540 C 0.70871 0.52572 0.85651 0.0
C541 C 0.58976 0.52343 0.83197 0.0
C542 C 0.58549 0.50415 0.82371 0.0
C543 C 0.60812 0.52837 0.84829 0.0
C544 C 0.62248 0.51417 0.85756 0.0
C545 C 0.61882 0.49525 0.84578 0.0
C546 C 0.60047 0.49026 0.829 0.0
C547 C 0.64046 0.51883 0.88503 0.0
C548 C 0.65692 0.52358 0.85317 0.0
C549 C 0.6408 0.5201 0.94235 0.0
C550 C 0.62386 0.51491 0.97806 0.0
C551 C 0.61608 0.49612 0.98199 0.0
C552 C 0.59998 0.49138 0.01518 0.0
C553 C 0.59169 0.50524 0.04525 0.0
C554 C 0.59956 0.52383 0.04246 0.0
C555 C 0.61562 0.52866 0.00917 0.0
H556 H 0.57924 0.50154 0.07099 0.0
H557 H 0.73599 0.54637 0.74974 0.0
H558 H 0.9075 0.73576 0.86974 0.0
H559 H 0.92608 0.70811 0.84446 0.0
H560 H 0.97601 0.72836 0.9248 0.0
H561 H 0.95766 0.7564 0.94868 0.0
H562 H 0.9865 0.71503 0.83275 0.0
H563 H 0.94677 0.69111 0.98751 0.0
H564 H 0.91669 0.68469 0.04014 0.0
H565 H 0.89493 0.65262 0.91372 0.0
H566 H 0.92475 0.65911 0.85993 0.0
H567 H 0.03704 0.62401 0.87639 0.0
H568 H 0.02051 0.65485 0.8838 0.0
H569 H 0.97256 0.63591 0.79246 0.0
H570 H 0.989 0.6052 0.78449 0.0
H571 H 0.96127 0.64879 0.88745 0.0
H572 H 0.00204 0.67131 0.73497 0.0
H573 H 0.03282 0.67664 0.68525 0.0
H574 H 0.05319 0.71043 0.80954 0.0
H575 H 0.02262 0.70507 0.86045 0.0
C576 C 0.92247 0.73439 0.88174 0.0
C577 C 0.93107 0.74818 0.9116 0.0
C578 C 0.93306 0.71853 0.86747 0.0
C579 C 0.95235 0.71593 0.88368 0.0
C580 C 0.96113 0.73001 0.912 0.0
C581 C 0.95061 0.74601 0.92574 0.0
C582 C 0.96323 0.69831 0.87236 0.0
C583 C 0.98106 0.70053 0.84521 0.0
C584 C 0.956 0.67937 0.88762 0.0
C585 C 0.9379 0.67578 0.91943 0.0
C586 C 0.93549 0.68286 0.97068 0.0
C587 C 0.9185 0.67918 0.00076 0.0
C588 C 0.90388 0.66831 0.98021 0.0
C589 C 0.90622 0.6611 0.9295 0.0
C590 C 0.92316 0.6648 0.89918 0.0
C591 C 0.02315 0.62655 0.85698 0.0
C592 C 0.01428 0.61203 0.83029 0.0
C593 C 0.01371 0.64418 0.86127 0.0
C594 C 0.99531 0.64767 0.83864 0.0
C595 C 0.9867 0.63346 0.81054 0.0
C596 C 0.9961 0.61587 0.80626 0.0
C597 C 0.98441 0.66548 0.84757 0.0
C598 C 0.9666 0.66328 0.87457 0.0
C599 C 0.99172 0.68436 0.83236 0.0
C600 C 0.0101 0.68763 0.8018 0.0
C601 C 0.01315 0.67974 0.75196 0.0
C602 C 0.03054 0.68279 0.72351 0.0
C603 C 0.04497 0.69382 0.74429 0.0
C604 C 0.04201 0.70187 0.79352 0.0
C605 C 0.02465 0.69884 0.82216 0.0
H606 H 0.05843 0.69617 0.7222 0.0
H607 H 0.89076 0.66543 0.00363 0.0
H608 H 0.05381 0.19168 0.49324 0.0
H609 H 0.04041 0.16084 0.53517 0.0
H610 H 0.07453 0.16452 0.68079 0.0
H611 H 0.08853 0.19495 0.63801 0.0
H612 H 0.07599 0.12875 0.65153 0.0
H613 H 0.02677 0.17533 0.67931 0.0
H614 H 0.00375 0.20181 0.65122 0.0
H615 H 0.97471 0.16564 0.54692 0.0
H616 H 0.99772 0.13902 0.57386 0.0
H617 H 0.00307 0.06522 0.82335 0.0
H618 H 0.01487 0.09713 0.78354 0.0
H619 H 0.03364 0.07254 0.63814 0.0
H620 H 0.02116 0.04085 0.6764 0.0
H621 H 0.00559 0.11916 0.67283 0.0
H622 H 0.08291 0.09351 0.62412 0.0
H623 H 0.10795 0.07034 0.66177 0.0
H624 H 0.08153 0.06683 0.82167 0.0
H625 H 0.05664 0.09031 0.78542 0.0
C626 C 0.05882 0.18564 0.53352 0.0
C627 C 0.0726 0.19542 0.56173 0.0
C628 C 0.0509 0.1682 0.55788 0.0
C629 C 0.05643 0.1604 0.61121 0.0
C630 C 0.07011 0.17023 0.63953 0.0
C631 C 0.07803 0.18764 0.61516 0.0
C632 C 0.04807 0.14194 0.63753 0.0
C633 C 0.0606 0.12663 0.65597 0.0
C634 C 0.02799 0.13932 0.64425 0.0
C635 C 0.01407 0.15525 0.62822 0.0
C636 C 0.01556 0.17307 0.65008 0.0
C637 C 0.0025 0.1881 0.63442 0.0
C638 C 0.9878 0.18542 0.59721 0.0
C639 C 0.98611 0.16769 0.5757 0.0
C640 C 0.99914 0.15263 0.59119 0.0
C641 C 0.0094 0.0667 0.78249 0.0
C642 C 0.01121 0.05052 0.75301 0.0
C643 C 0.01616 0.08489 0.75994 0.0
C644 C 0.0253 0.08705 0.70831 0.0
C645 C 0.02676 0.07107 0.67827 0.0
C646 C 0.01956 0.05302 0.70012 0.0
C647 C 0.03353 0.10595 0.68586 0.0
C648 C 0.02097 0.12128 0.66799 0.0
C649 C 0.05362 0.10869 0.68043 0.0
C650 C 0.06772 0.0935 0.70178 0.0
C651 C 0.08239 0.08774 0.66727 0.0
C652 C 0.09665 0.07466 0.68846 0.0
C653 C 0.0964 0.06725 0.74415 0.0
C654 C 0.08172 0.07263 0.77856 0.0
C655 C 0.06749 0.08578 0.75765 0.0
H656 H 0.10754 0.05729 0.76056 0.0
H657 H 0.97771 0.19707 0.58513 0.0
H658 H 0.32402 0.09945 0.54115 0.0
H659 H 0.35473 0.08581 0.57545 0.0
H660 H 0.3308 0.02807 0.58601 0.0
H661 H 0.29958 0.04205 0.55664 0.0
H662 H 0.3494 0.02893 0.67029 0.0
H663 H 0.37043 0.04889 0.47845 0.0
H664 H 0.37641 0.07158 0.39459 0.0
H665 H 0.40469 0.11091 0.49059 0.0
H666 H 0.39955 0.08817 0.57482 0.0
H667 H 0.46129 0.01013 0.64663 0.0
H668 H 0.42948 0.01689 0.60657 0.0
H669 H 0.40868 0.03201 0.76282 0.0
H670 H 0.4402 0.02453 0.80358 0.0
H671 H 0.41262 0.0497 0.59099 0.0
H672 H 0.36111 0.02813 0.77399 0.0
H673 H 0.35865 0.00312 0.85428 0.0
H674 H 0.39245 0.96382 0.76957 0.0
H675 H 0.39497 0.98853 0.68863 0.0
C676 C 0.32547 0.08384 0.55036 0.0
C677 C 0.30957 0.07175 0.54628 0.0
C678 C 0.34311 0.07598 0.56937 0.0
C679 C 0.34541 0.05577 0.58235 0.0
C680 C 0.32952 0.04369 0.57656 0.0
C681 C 0.3117 0.05163 0.55954 0.0
C682 C 0.36386 0.04729 0.60548 0.0
C683 C 0.36319 0.03344 0.65249 0.0
C684 C 0.38204 0.05302 0.58299 0.0
C685 C 0.38433 0.067 0.53286 0.0
C686 C 0.37772 0.06248 0.48168 0.0
C687 C 0.38097 0.07533 0.43411 0.0
C688 C 0.39049 0.09286 0.43735 0.0
C689 C 0.39713 0.09743 0.48814 0.0
C690 C 0.3942 0.08451 0.53573 0.0
C691 C 0.4498 0.01445 0.67276 0.0
C692 C 0.45323 0.01674 0.72827 0.0
C693 C 0.43164 0.01838 0.64978 0.0
C694 C 0.4166 0.02485 0.68169 0.0
C695 C 0.41987 0.02662 0.7376 0.0
C696 C 0.43796 0.0224 0.76083 0.0
C697 C 0.39812 0.03144 0.65524 0.0
C698 C 0.3988 0.04507 0.60819 0.0
C699 C 0.38004 0.02532 0.6773 0.0
C700 C 0.37832 0.01023 0.7254 0.0
C701 C 0.36792 0.01411 0.77239 0.0
C702 C 0.36655 0.0 0.81806 0.0
C703 C 0.37541 0.9819 0.81706 0.0
C704 C 0.38563 0.97786 0.77035 0.0
C705 C 0.38707 0.99193 0.72461 0.0
H706 H 0.37434 0.971 0.85246 0.0
H707 H 0.39295 0.10276 0.40036 0.0
H708 H 0.43265 0.34331 0.46721 0.0
H709 H 0.4457 0.37333 0.49428 0.0
H710 H 0.42528 0.35745 0.66042 0.0
H711 H 0.41086 0.32806 0.63215 0.0
H712 H 0.41929 0.39433 0.63365 0.0
H713 H 0.47343 0.35183 0.62198 0.0
H714 H 0.49501 0.32988 0.57776 0.0
H715 H 0.50848 0.37595 0.45042 0.0
H716 H 0.4868 0.39812 0.49356 0.0
H717 H 0.50563 0.45231 0.72615 0.0
H718 H 0.49376 0.42316 0.68985 0.0
H719 H 0.44844 0.45698 0.60424 0.0
H720 H 0.45975 0.48596 0.64206 0.0
H721 H 0.48769 0.41067 0.59373 0.0
H722 H 0.40732 0.43142 0.61095 0.0
H723 H 0.38715 0.45246 0.66271 0.0
H724 H 0.42826 0.44736 0.79438 0.0
H725 H 0.44832 0.42571 0.74447 0.0
C726 C 0.43026 0.34656 0.50886 0.0
C727 C 0.42011 0.33365 0.54696 0.0
C728 C 0.43817 0.36352 0.52475 0.0
C729 C 0.43663 0.36762 0.57957 0.0
C730 C 0.42659 0.35467 0.61783 0.0
C731 C 0.41846 0.33782 0.60172 0.0
C732 C 0.44562 0.38529 0.59719 0.0
C733 C 0.43424 0.39788 0.62487 0.0
C734 C 0.46523 0.38984 0.58656 0.0
C735 C 0.47838 0.37658 0.56075 0.0
C736 C 0.48091 0.35724 0.58437 0.0
C737 C 0.49317 0.34477 0.55953 0.0
C738 C 0.50308 0.3515 0.51125 0.0
C739 C 0.50079 0.37074 0.48779 0.0
C740 C 0.48853 0.38328 0.51246 0.0
C741 C 0.49331 0.45357 0.69893 0.0
C742 C 0.48347 0.47133 0.68749 0.0
C743 C 0.48655 0.43692 0.67816 0.0
C744 C 0.46997 0.43782 0.64528 0.0
C745 C 0.46098 0.45586 0.63058 0.0
C746 C 0.46751 0.47241 0.65207 0.0
C747 C 0.4613 0.41975 0.62955 0.0
C748 C 0.47273 0.40711 0.60231 0.0
C749 C 0.44187 0.41489 0.6419 0.0
C750 C 0.42939 0.42706 0.67368 0.0
C751 C 0.41194 0.43459 0.65124 0.0
C752 C 0.40052 0.44661 0.68031 0.0
C753 C 0.40641 0.4512 0.73186 0.0
C754 C 0.42368 0.44371 0.75458 0.0
C755 C 0.43505 0.43152 0.726 0.0
H756 H 0.3976 0.46053 0.7543 0.0
H757 H 0.51256 0.34181 0.49206 0.0
H758 H 0.17429 0.4351 0.50212 0.0
H759 H 0.14846 0.44494 0.56144 0.0
H760 H 0.15884 0.50509 0.50238 0.0
H761 H 0.18462 0.49544 0.44299 0.0
H762 H 0.14918 0.46824 0.64519 0.0
H763 H 0.11627 0.52863 0.49042 0.0
H764 H 0.11129 0.53628 0.39018 0.0
H765 H 0.11213 0.47544 0.3715 0.0
H766 H 0.11723 0.46747 0.47143 0.0
H767 H 0.06563 0.53858 0.70722 0.0
H768 H 0.09339 0.52992 0.65272 0.0
H769 H 0.08367 0.46921 0.70606 0.0
H770 H 0.05584 0.47766 0.75974 0.0
H771 H 0.09352 0.50705 0.56678 0.0
H772 H 0.12857 0.44659 0.72006 0.0
H773 H 0.135 0.43873 0.81947 0.0
H774 H 0.12942 0.499 0.84215 0.0
H775 H 0.12322 0.50727 0.74282 0.0
C776 C 0.17112 0.45043 0.50188 0.0
C777 C 0.18151 0.46448 0.46778 0.0
C778 C 0.15638 0.45601 0.53583 0.0
C779 C 0.15162 0.47571 0.5358 0.0
C780 C 0.16212 0.48979 0.50243 0.0
C781 C 0.17694 0.48424 0.46878 0.0
C782 C 0.13574 0.48159 0.57092 0.0
C783 C 0.13685 0.47648 0.62809 0.0
C784 C 0.11997 0.49279 0.54855 0.0
C785 C 0.11732 0.49749 0.48827 0.0
C786 C 0.11545 0.51691 0.46484 0.0
C787 C 0.11264 0.5213 0.40807 0.0
C788 C 0.11149 0.50636 0.37443 0.0
C789 C 0.11319 0.48701 0.39748 0.0
C790 C 0.11612 0.48255 0.45414 0.0
C791 C 0.06943 0.5234 0.70728 0.0
C792 C 0.05849 0.50881 0.7374 0.0
C793 C 0.08526 0.51848 0.67622 0.0
C794 C 0.09063 0.49895 0.67573 0.0
C795 C 0.07986 0.48438 0.70628 0.0
C796 C 0.06388 0.48924 0.73661 0.0
C797 C 0.10691 0.49365 0.64121 0.0
C798 C 0.10586 0.49884 0.58404 0.0
C799 C 0.12269 0.48245 0.66366 0.0
C800 C 0.1253 0.47752 0.72397 0.0
C801 C 0.12869 0.45816 0.74627 0.0
C802 C 0.13236 0.45365 0.80256 0.0
C803 C 0.1328 0.46838 0.83695 0.0
C804 C 0.12918 0.48762 0.81536 0.0
C805 C 0.1255 0.49222 0.75909 0.0
H806 H 0.13583 0.46487 0.88042 0.0
H807 H 0.1092 0.50979 0.33056 0.0
H808 H 0.89288 0.82681 0.03296 0.0
H809 H 0.9148 0.8524 0.99479 0.0
H810 H 0.96257 0.82062 0.07496 0.0
H811 H 0.94023 0.79581 0.11673 0.0
H812 H 0.96858 0.8554 0.08202 0.0
H813 H 0.952 0.82282 0.9281 0.0
H814 H 0.93075 0.80843 0.86328 0.0
H815 H 0.90495 0.86423 0.81538 0.0
H816 H 0.92591 0.87896 0.88021 0.0
H817 H 0.00598 0.92664 0.82344 0.0
H818 H 0.99567 0.89446 0.86447 0.0
H819 H 0.97815 0.91881 0.01185 0.0
H820 H 0.98935 0.95053 0.97233 0.0
H821 H 0.96281 0.88288 0.88602 0.0
H822 H 0.9736 0.88739 0.12187 0.0
H823 H 0.99787 0.89922 0.18312 0.0
H824 H 0.04161 0.89435 0.06096 0.0
H825 H 0.01768 0.88221 0.99926 0.0
C826 C 0.90807 0.82542 0.04245 0.0
C827 C 0.91499 0.80946 0.0774 0.0
C828 C 0.92064 0.83991 0.02019 0.0
C829 C 0.94051 0.83824 0.03052 0.0
C830 C 0.94736 0.82226 0.06605 0.0
C831 C 0.93466 0.80808 0.08978 0.0
C832 C 0.95397 0.8534 0.00521 0.0
C833 C 0.96744 0.86129 0.03902 0.0
C834 C 0.95302 0.86074 0.94863 0.0
C835 C 0.94048 0.85197 0.90923 0.0
C836 C 0.94174 0.83201 0.90392 0.0
C837 C 0.92974 0.82379 0.8672 0.0
C838 C 0.91648 0.83539 0.83538 0.0
C839 C 0.91523 0.85526 0.84007 0.0
C840 C 0.92719 0.86356 0.8767 0.0
C841 C 0.00038 0.92496 0.86515 0.0
C842 C 0.99852 0.94108 0.89473 0.0
C843 C 0.99442 0.90658 0.88854 0.0
C844 C 0.98624 0.90402 0.9416 0.0
C845 C 0.98492 0.92009 0.97162 0.0
C846 C 0.9912 0.93835 0.94872 0.0
C847 C 0.9771 0.88526 0.96316 0.0
C848 C 0.96435 0.87672 0.92869 0.0
C849 C 0.97924 0.87689 0.01858 0.0
C850 C 0.99379 0.88398 0.05578 0.0
C851 C 0.98842 0.88871 0.10818 0.0
C852 C 0.00211 0.89551 0.14296 0.0
C853 C 0.02126 0.89757 0.12589 0.0
C854 C 0.02676 0.8928 0.07406 0.0
C855 C 0.01313 0.88598 0.03914 0.0
H856 H 0.03184 0.90285 0.15286 0.0
H857 H 0.9072 0.829 0.80702 0.0
H858 H 0.71051 0.97357 0.01603 0.0
H859 H 0.68134 0.99128 0.98431 0.0
H860 H 0.64936 0.93761 0.00659 0.0
H861 H 0.67901 0.91983 0.03368 0.0
H862 H 0.63978 0.95394 0.91716 0.0
H863 H 0.64323 0.97931 0.0932 0.0
H864 H 0.65754 0.99553 0.16811 0.0
H865 H 0.66941 0.04601 0.0544 0.0
H866 H 0.65494 0.03031 0.97895 0.0
H867 H 0.55121 0.01922 0.92908 0.0
H868 H 0.5817 0.00789 0.97026 0.0
H869 H 0.60582 0.00538 0.80827 0.0
H870 H 0.57513 0.01633 0.76654 0.0
H871 H 0.6184 0.01759 0.97011 0.0
H872 H 0.63115 0.96335 0.8095 0.0
H873 H 0.61219 0.94578 0.74614 0.0
H874 H 0.56241 0.94875 0.84938 0.0
H875 H 0.58114 0.96594 0.91373 0.0
C876 C 0.69714 0.9657 0.01457 0.0
C877 C 0.69684 0.94545 0.02693 0.0
C878 C 0.68041 0.97583 0.99703 0.0
C879 C 0.66293 0.96591 0.99355 0.0
C880 C 0.66261 0.94566 0.00843 0.0
C881 C 0.67948 0.93549 0.02414 0.0
C882 C 0.64544 0.97622 0.96982 0.0
C883 C 0.63516 0.96781 0.9292 0.0
C884 C 0.6391 0.99431 0.98526 0.0
C885 C 0.64822 0.00355 0.03034 0.0
C886 C 0.64904 0.9938 0.08411 0.0
C887 C 0.65713 0.00291 0.12666 0.0
C888 C 0.66455 0.02165 0.1159 0.0
C889 C 0.66373 0.03145 0.06264 0.0
C890 C 0.65551 0.02251 0.02003 0.0
C891 C 0.56311 0.01667 0.90205 0.0
C892 C 0.56066 0.01841 0.84451 0.0
C893 C 0.58057 0.01023 0.92574 0.0
C894 C 0.59589 0.00541 0.8924 0.0
C895 C 0.59403 0.00869 0.83478 0.0
C896 C 0.57652 0.01507 0.81098 0.0
C897 C 0.61301 0.99523 0.91804 0.0
C898 C 0.62317 0.00369 0.95854 0.0
C899 C 0.6188 0.97681 0.90422 0.0
C900 C 0.60751 0.96615 0.86605 0.0
C901 C 0.61618 0.96017 0.81874 0.0
C902 C 0.60546 0.95026 0.78265 0.0
C903 C 0.58607 0.94616 0.7936 0.0
C904 C 0.57739 0.95191 0.84079 0.0
C905 C 0.58805 0.96176 0.87708 0.0
H906 H 0.57779 0.93851 0.76558 0.0
H907 H 0.67087 0.02862 0.14888 0.0
H908 H 0.55257 0.71157 0.93151 0.0
H909 H 0.53605 0.68203 0.91236 0.0
H910 H 0.56305 0.65024 0.05439 0.0
H911 H 0.5805 0.67937 0.0712 0.0
H912 H 0.56719 0.6314 0.97129 0.0
H913 H 0.51345 0.66082 0.04969 0.0
H914 H 0.49002 0.68669 0.06302 0.0
H915 H 0.47048 0.68681 0.8964 0.0
H916 H 0.49399 0.66111 0.88179 0.0
H917 H 0.52153 0.54414 0.92388 0.0
H918 H 0.53071 0.57237 0.96932 0.0
H919 H 0.50325 0.61024 0.83923 0.0
H920 H 0.49264 0.58188 0.79676 0.0
H921 H 0.49812 0.62513 0.92752 0.0
H922 H 0.55598 0.59675 0.85062 0.0
H923 H 0.58008 0.57083 0.84378 0.0
H924 H 0.59192 0.56883 0.0168 0.0
H925 H 0.56772 0.59442 0.02484 0.0
C926 C 0.55476 0.69832 0.95902 0.0
C927 C 0.5674 0.69793 0.00392 0.0
C928 C 0.54517 0.68148 0.94836 0.0
C929 C 0.54798 0.66394 0.98256 0.0
C930 C 0.56041 0.66363 0.02785 0.0
C931 C 0.57014 0.68041 0.03814 0.0
C932 C 0.53953 0.64556 0.96797 0.0
C933 C 0.552 0.62995 0.96264 0.0
C934 C 0.51978 0.64369 0.95593 0.0
C935 C 0.5056 0.65914 0.96452 0.0
C936 C 0.50426 0.66647 0.01574 0.0
C937 C 0.49095 0.68108 0.02355 0.0
C938 C 0.4788 0.68842 0.98055 0.0
C939 C 0.47991 0.68112 0.92966 0.0
C940 C 0.49322 0.66651 0.92161 0.0
C941 C 0.51729 0.55852 0.90558 0.0
C942 C 0.50649 0.56093 0.85681 0.0
C943 C 0.52268 0.57468 0.93119 0.0
C944 C 0.51826 0.5936 0.90688 0.0
C945 C 0.50695 0.59588 0.85888 0.0
C946 C 0.50093 0.57969 0.83448 0.0
C947 C 0.52589 0.61106 0.92978 0.0
C948 C 0.51327 0.62655 0.93656 0.0
C949 C 0.54552 0.6128 0.94379 0.0
C950 C 0.55991 0.59732 0.93843 0.0
C951 C 0.56362 0.59065 0.88723 0.0
C952 C 0.57728 0.576 0.88318 0.0
C953 C 0.5874 0.5681 0.92997 0.0
C954 C 0.58397 0.57485 0.98075 0.0
C955 C 0.5703 0.58941 0.98506 0.0
H956 H 0.59796 0.55682 0.92708 0.0
H957 H 0.4685 0.69974 0.98668 0.0
H958 H 0.81694 0.5514 0.0571 0.0
H959 H 0.84962 0.54281 0.03048 0.0
H960 H 0.87277 0.58562 0.1265 0.0
H961 H 0.84006 0.59413 0.1538 0.0
H962 H 0.88693 0.58641 0.01202 0.0
H963 H 0.87973 0.54379 0.17907 0.0
H964 H 0.86326 0.51958 0.24462 0.0
H965 H 0.86449 0.47875 0.12526 0.0
H966 H 0.88073 0.50285 0.05861 0.0
H967 H 0.98219 0.5569 0.95813 0.0
H968 H 0.95358 0.56593 0.00795 0.0
H969 H 0.92375 0.51608 0.96023 0.0
H970 H 0.95258 0.50652 0.9126 0.0
H971 H 0.91453 0.52049 0.06095 0.0
H972 H 0.91846 0.56425 0.89055 0.0
H973 H 0.93431 0.58868 0.82391 0.0
H974 H 0.93877 0.62732 0.94842 0.0
H975 H 0.92303 0.60315 0.01571 0.0
C976 C 0.82902 0.55889 0.07273 0.0
C977 C 0.82607 0.5732 0.10809 0.0
C978 C 0.84763 0.55395 0.05767 0.0
C979 C 0.86353 0.56351 0.07691 0.0
C980 C 0.86063 0.57802 0.1116 0.0
C981 C 0.84201 0.58273 0.1275 0.0
C982 C 0.88311 0.55851 0.05938 0.0
C983 C 0.89318 0.57213 0.02341 0.0
C984 C 0.89099 0.53978 0.07368 0.0
C985 C 0.88129 0.5252 0.11366 0.0
C986 C 0.87634 0.52971 0.1666 0.0
C987 C 0.86707 0.51599 0.204 0.0
C988 C 0.86279 0.49765 0.18907 0.0
C989 C 0.8678 0.49297 0.13674 0.0
C990 C 0.87706 0.50665 0.09915 0.0
C991 C 0.96958 0.54777 0.95879 0.0
C992 C 0.96958 0.53105 0.93129 0.0
C993 C 0.9532 0.553 0.98697 0.0
C994 C 0.93635 0.54192 0.98687 0.0
C995 C 0.93655 0.52489 0.96084 0.0
C996 C 0.95303 0.51945 0.93356 0.0
C997 C 0.9183 0.54825 0.01234 0.0
C998 C 0.90846 0.53486 0.04985 0.0
C999 C 0.91057 0.56719 0.99914 0.0
C1000 C 0.91973 0.58184 0.95827 0.0
C1001 C 0.92288 0.57795 0.9037 0.0
C1002 C 0.9318 0.59176 0.86577 0.0
C1003 C 0.93751 0.60956 0.88184 0.0
C1004 C 0.93428 0.61359 0.93586 0.0
C1005 C 0.92534 0.59985 0.9739 0.0
H1006 H 0.94439 0.62023 0.85239 0.0
H1007 H 0.85562 0.48704 0.21808 0.0
H1008 H 0.08114 0.15645 0.28509 0.0
H1009 H 0.0746 0.13285 0.22051 0.0
H1010 H 0.02037 0.11903 0.30156 0.0
H1011 H 0.02689 0.14236 0.36662 0.0
H1012 H 0.03938 0.08672 0.2826 0.0
H1013 H 0.02279 0.14789 0.17794 0.0
H1014 H 0.02868 0.18144 0.13584 0.0
H1015 H 0.07497 0.16143 0.03994 0.0
H1016 H 0.06952 0.12777 0.08204 0.0
H1017 H 0.98854 0.03955 0.09046 0.0
H1018 H 0.99968 0.06304 0.14979 0.0
H1019 H 0.05247 0.07009 0.05666 0.0
H1020 H 0.04144 0.0463 0.99699 0.0
H1021 H 0.03762 0.10499 0.08007 0.0
H1022 H 0.05273 0.04348 0.18004 0.0
H1023 H 0.04659 0.00991 0.22147 0.0
H1024 H 0.0032 0.03047 0.32624 0.0
H1025 H 0.00888 0.06415 0.28485 0.0
C1026 C 0.06782 0.1484 0.28915 0.0
C1027 C 0.05452 0.15132 0.33099 0.0
C1028 C 0.06407 0.13497 0.25205 0.0
C1029 C 0.04692 0.1243 0.25589 0.0
C1030 C 0.0337 0.1271 0.29783 0.0
C1031 C 0.03743 0.1405 0.33491 0.0
C1032 C 0.04273 0.11 0.2168 0.0
C1033 C 0.03881 0.09076 0.23835 0.0
C1034 C 0.0426 0.11513 0.15894 0.0
C1035 C 0.04589 0.13535 0.13361 0.0
C1036 C 0.03433 0.15067 0.14823 0.0
C1037 C 0.03757 0.1697 0.1243 0.0
C1038 C 0.05223 0.17358 0.08537 0.0
C1039 C 0.06365 0.15842 0.07018 0.0
C1040 C 0.06048 0.13936 0.09404 0.0
C1041 C 0.00261 0.0459 0.08276 0.0
C1042 C 0.0142 0.04081 0.0393 0.0
C1043 C 0.00894 0.0594 0.11669 0.0
C1044 C 0.02704 0.06807 0.10824 0.0
C1045 C 0.03848 0.06349 0.06401 0.0
C1046 C 0.03213 0.04994 0.02988 0.0
C1047 C 0.03388 0.08183 0.14603 0.0
C1048 C 0.03835 0.10092 0.12428 0.0
C1049 C 0.03453 0.07658 0.20378 0.0
C1050 C 0.03113 0.05634 0.229 0.0
C1051 C 0.04178 0.04083 0.21162 0.0
C1052 C 0.03839 0.02178 0.23515 0.0
C1053 C 0.02449 0.01805 0.27639 0.0
C1054 C 0.01396 0.03338 0.29427 0.0
C1055 C 0.01727 0.05246 0.27082 0.0
H1056 H 0.02189 0.0033 0.29455 0.0
H1057 H 0.05471 0.18832 0.06687 0.0
H1058 H 0.35001 0.04108 0.34286 0.0
H1059 H 0.37367 0.03314 0.27477 0.0
H1060 H 0.3756 0.09328 0.20596 0.0
H1061 H 0.35202 0.10149 0.27463 0.0
H1062 H 0.37277 0.06473 0.12614 0.0
H1063 H 0.41239 0.07997 0.27777 0.0
H1064 H 0.42205 0.07785 0.37539 0.0
H1065 H 0.4287 0.01605 0.381 0.0
H1066 H 0.41938 0.01785 0.28305 0.0
H1067 H 0.4571 0.05423 0.96461 0.0
H1068 H 0.43292 0.06541 0.02692 0.0
H1069 H 0.43575 0.01003 0.12773 0.0
H1070 H 0.45999 0.99889 0.06594 0.0
H1071 H 0.43632 0.03835 0.19058 0.0
H1072 H 0.39778 0.02249 0.03965 0.0
H1073 H 0.38802 0.02374 0.9423 0.0
H1074 H 0.37769 0.0851 0.93556 0.0
H1075 H 0.38764 0.08426 0.03272 0.0
C1076 C 0.35533 0.05263 0.31305 0.0
C1077 C 0.34915 0.07193 0.31416 0.0
C1078 C 0.3689 0.04806 0.27433 0.0
C1079 C 0.3764 0.06265 0.23566 0.0
C1080 C 0.36994 0.08185 0.23558 0.0
C1081 C 0.35652 0.0865 0.27484 0.0
C1082 C 0.39129 0.05773 0.19617 0.0
C1083 C 0.38681 0.05926 0.13989 0.0
C1084 C 0.40934 0.05018 0.21457 0.0
C1085 C 0.41505 0.04903 0.2733 0.0
C1086 C 0.41583 0.06592 0.29992 0.0
C1087 C 0.42128 0.06479 0.35525 0.0
C1088 C 0.4258 0.04682 0.38454 0.0
C1089 C 0.42513 0.02996 0.35832 0.0
C1090 C 0.41988 0.03104 0.30281 0.0
C1091 C 0.45242 0.04439 0.99976 0.0
C1092 C 0.46046 0.02568 0.0104 0.0
C1093 C 0.43861 0.05079 0.03535 0.0
C1094 C 0.4324 0.0385 0.08179 0.0
C1095 C 0.44038 0.0198 0.09232 0.0
C1096 C 0.45426 0.01346 0.05703 0.0
C1097 C 0.41785 0.04515 0.1201 0.0
C1098 C 0.42237 0.04392 0.1764 0.0
C1099 C 0.39977 0.05282 0.10161 0.0
C1100 C 0.39365 0.05335 0.0433 0.0
C1101 C 0.39356 0.03628 0.01729 0.0
C1102 C 0.38798 0.0369 0.96217 0.0
C1103 C 0.38229 0.0545 0.93272 0.0
C1104 C 0.38213 0.07149 0.9584 0.0
C1105 C 0.38772 0.07095 0.01351 0.0
H1106 H 0.37798 0.05495 0.89005 0.0
H1107 H 0.42991 0.04597 0.42747 0.0
H1108 H 0.46305 0.37672 0.28999 0.0
H1109 H 0.46997 0.40064 0.2111 0.0
H1110 H 0.40922 0.41068 0.18551 0.0
H1111 H 0.40212 0.38648 0.26417 0.0
H1112 H 0.42755 0.40709 0.08971 0.0
H1113 H 0.43633 0.44385 0.2412 0.0
H1114 H 0.44893 0.45075 0.33109 0.0
H1115 H 0.50666 0.44938 0.26874 0.0
H1116 H 0.49442 0.4422 0.17867 0.0
H1117 H 0.44511 0.49027 0.89213 0.0
H1118 H 0.43366 0.46943 0.97359 0.0
H1119 H 0.49216 0.45302 0.01575 0.0
H1120 H 0.5037 0.4738 0.935 0.0
H1121 H 0.47203 0.46192 0.10474 0.0
H1122 H 0.46318 0.42302 0.9554 0.0
H1123 H 0.45056 0.41506 0.86652 0.0
H1124 H 0.39276 0.4203 0.92542 0.0
H1125 H 0.40502 0.42861 0.01436 0.0
C1126 C 0.45113 0.38403 0.26776 0.0
C1127 C 0.43203 0.37971 0.28347 0.0
C1128 C 0.45512 0.39778 0.22278 0.0
C1129 C 0.44011 0.40762 0.19283 0.0
C1130 C 0.42101 0.40328 0.20816 0.0
C1131 C 0.417 0.38949 0.2532 0.0
C1132 C 0.44447 0.42214 0.14488 0.0
C1133 C 0.43698 0.4193 0.09313 0.0
C1134 C 0.45703 0.43787 0.14926 0.0
C1135 C 0.46445 0.44234 0.20328 0.0
C1136 C 0.45172 0.44488 0.24676 0.0
C1137 C 0.4588 0.44887 0.29773 0.0
C1138 C 0.47859 0.45046 0.30565 0.0
C1139 C 0.49133 0.44813 0.26255 0.0
C1140 C 0.48433 0.44413 0.2115 0.0
C1141 C 0.45552 0.48226 0.91888 0.0
C1142 C 0.47531 0.48368 0.9071 0.0
C1143 C 0.44895 0.47031 0.96523 0.0
C1144 C 0.46206 0.4596 0.0005 0.0
C1145 C 0.4818 0.46118 0.98912 0.0
C1146 C 0.48837 0.47303 0.94281 0.0
C1147 C 0.45538 0.44668 0.04945 0.0
C1148 C 0.46242 0.44984 0.10143 0.0
C1149 C 0.44239 0.43127 0.04523 0.0
C1150 C 0.43502 0.42665 0.99134 0.0
C1151 C 0.44778 0.42269 0.9492 0.0
C1152 C 0.44069 0.41805 0.89887 0.0
C1153 C 0.42087 0.41715 0.89038 0.0
C1154 C 0.4081 0.42099 0.93208 0.0
C1155 C 0.41511 0.42567 0.98244 0.0
H1156 H 0.41541 0.41345 0.85153 0.0
H1157 H 0.48404 0.45354 0.34515 0.0
H1158 H 0.1916 0.46196 0.18252 0.0
H1159 H 0.16698 0.47588 0.11819 0.0
H1160 H 0.13245 0.42452 0.15557 0.0
H1161 H 0.15702 0.4104 0.21961 0.0
H1162 H 0.12959 0.44029 0.04531 0.0
H1163 H 0.12655 0.46115 0.22693 0.0
H1164 H 0.14022 0.47546 0.30583 0.0
H1165 H 0.14856 0.5296 0.20407 0.0
H1166 H 0.13566 0.51536 0.12387 0.0
H1167 H 0.0372 0.47545 0.97989 0.0
H1168 H 0.06409 0.46217 0.03655 0.0
H1169 H 0.09455 0.51624 0.00058 0.0
H1170 H 0.06748 0.52983 0.94478 0.0
H1171 H 0.10069 0.49998 0.10586 0.0
H1172 H 0.10098 0.47992 0.9254 0.0
H1173 H 0.08684 0.46563 0.84716 0.0
H1174 H 0.08315 0.41025 0.94556 0.0
H1175 H 0.0967 0.42435 0.02512 0.0
C1176 C 0.179 0.4534 0.17608 0.0
C1177 C 0.17612 0.4352 0.20693 0.0
C1178 C 0.16493 0.46141 0.13935 0.0
C1179 C 0.14775 0.45137 0.13298 0.0
C1180 C 0.14557 0.43253 0.16011 0.0
C1181 C 0.15961 0.42452 0.19689 0.0
C1182 C 0.13119 0.46128 0.1035 0.0
C1183 C 0.12318 0.45326 0.05864 0.0
C1184 C 0.12303 0.47838 0.12061 0.0
C1185 C 0.13036 0.4871 0.16917 0.0
C1186 C 0.13147 0.47605 0.2212 0.0
C1187 C 0.13908 0.48415 0.26617 0.0
C1188 C 0.14525 0.50343 0.26 0.0
C1189 C 0.14382 0.51465 0.20877 0.0
C1190 C 0.13642 0.50655 0.16348 0.0
C1191 C 0.04945 0.48466 0.98493 0.0
C1192 C 0.05034 0.50361 0.95736 0.0
C1193 C 0.06482 0.47702 0.01717 0.0
C1194 C 0.08148 0.48807 0.02161 0.0
C1195 C 0.08187 0.50744 0.99734 0.0
C1196 C 0.06639 0.51518 0.96548 0.0
C1197 C 0.09898 0.47894 0.04787 0.0
C1198 C 0.10716 0.48709 0.09215 0.0
C1199 C 0.10727 0.46198 0.03009 0.0
C1200 C 0.09973 0.45327 0.98158 0.0
C1201 C 0.09699 0.46473 0.93066 0.0
C1202 C 0.08903 0.45667 0.88604 0.0
C1203 C 0.08407 0.43705 0.89141 0.0
C1204 C 0.08702 0.42546 0.94146 0.0
C1205 C 0.09481 0.43349 0.98638 0.0
H1206 H 0.07798 0.43083 0.85676 0.0
H1207 H 0.15107 0.50968 0.29495 0.0
H1208 H 0.95468 0.84839 0.29273 0.0
H1209 H 0.96788 0.87104 0.35216 0.0
H1210 H 0.91571 0.8672 0.44881 0.0
H1211 H 0.90227 0.84479 0.38905 0.0
H1212 H 0.92711 0.90415 0.42713 0.0
H1213 H 0.95663 0.8435 0.49664 0.0
H1214 H 0.97506 0.81331 0.49078 0.0
H1215 H 0.0242 0.84659 0.43029 0.0
H1216 H 0.00597 0.87699 0.4351 0.0
H1217 H 0.9633 0.94919 0.65224 0.0
H1218 H 0.94971 0.92589 0.5956 0.0
H1219 H 0.00139 0.92856 0.49694 0.0
H1220 H 0.01537 0.95127 0.55458 0.0
H1221 H 0.98989 0.8919 0.52109 0.0
H1222 H 0.96027 0.95251 0.45037 0.0
H1223 H 0.94188 0.98273 0.45609 0.0
H1224 H 0.89295 0.94956 0.51876 0.0
H1225 H 0.91115 0.91913 0.51409 0.0
C1226 C 0.94602 0.85232 0.3267 0.0
C1227 C 0.92744 0.84472 0.33626 0.0
C1228 C 0.95362 0.86522 0.36077 0.0
C1229 C 0.94287 0.87064 0.40534 0.0
C1230 C 0.92427 0.8632 0.41471 0.0
C1231 C 0.91664 0.85034 0.38058 0.0
C1232 C 0.95093 0.88424 0.44183 0.0
C1233 C 0.94071 0.90134 0.44831 0.0
C1234 C 0.96887 0.88077 0.46851 0.0
C1235 C 0.97988 0.86252 0.46574 0.0
C1236 C 0.97132 0.84438 0.48169 0.0
C1237 C 0.98174 0.82723 0.47863 0.0
C1238 C 0.00077 0.82803 0.46005 0.0
C1239 C 0.00945 0.84599 0.44462 0.0
C1240 C 0.99909 0.86319 0.44755 0.0
C1241 C 0.97187 0.94471 0.61886 0.0
C1242 C 0.99044 0.9522 0.60796 0.0
C1243 C 0.96399 0.93152 0.58614 0.0
C1244 C 0.97444 0.92567 0.5416 0.0
C1245 C 0.99303 0.93294 0.53096 0.0
C1246 C 0.00094 0.94608 0.5637 0.0
C1247 C 0.96611 0.91185 0.50624 0.0
C1248 C 0.97627 0.89469 0.49998 0.0
C1249 C 0.94813 0.91527 0.47976 0.0
C1250 C 0.93714 0.93355 0.4824 0.0
C1251 C 0.94564 0.95166 0.46577 0.0
C1252 C 0.93524 0.96883 0.46875 0.0
C1253 C 0.91628 0.96807 0.48792 0.0
C1254 C 0.90765 0.95013 0.50399 0.0
C1255 C 0.91799 0.93292 0.50114 0.0
H1256 H 0.90825 0.98137 0.49019 0.0
H1257 H 0.00881 0.81474 0.45771 0.0
H1258 H 0.63691 0.95732 0.20674 0.0
H1259 H 0.61475 0.96662 0.27705 0.0
H1260 H 0.66269 0.97943 0.37803 0.0
H1261 H 0.68507 0.97026 0.30763 0.0
H1262 H 0.63155 0.95783 0.43657 0.0
H1263 H 0.64241 0.0163 0.31253 0.0
H1264 H 0.64467 0.0348 0.22022 0.0
H1265 H 0.58564 0.02204 0.18902 0.0
H1266 H 0.58304 0.00339 0.28124 0.0
H1267 H 0.57631 0.0098 0.61807 0.0
H1268 H 0.60089 0.99949 0.5554 0.0
H1269 H 0.5579 0.99765 0.42904 0.0
H1270 H 0.53351 0.00844 0.49104 0.0
H1271 H 0.58831 0.0142 0.38519 0.0
H1272 H 0.57665 0.95566 0.50608 0.0
H1273 H 0.5737 0.93563 0.59603 0.0
H1274 H 0.63287 0.9464 0.63119 0.0
H1275 H 0.63612 0.96669 0.54163 0.0
C1276 C 0.64278 0.96198 0.24404 0.0
C1277 C 0.66275 0.96313 0.25154 0.0
C1278 C 0.63009 0.9673 0.28411 0.0
C1279 C 0.63712 0.97376 0.33253 0.0
C1280 C 0.65703 0.97444 0.34093 0.0
C1281 C 0.66976 0.96929 0.30056 0.0
C1282 C 0.6236 0.98062 0.37303 0.0
C1283 C 0.62226 0.97031 0.42584 0.0
C1284 C 0.61126 0.99663 0.35832 0.0
C1285 C 0.61257 0.00835 0.30359 0.0
C1286 C 0.62993 0.01739 0.2859 0.0
C1287 C 0.63127 0.0279 0.23361 0.0
C1288 C 0.61535 0.02951 0.19863 0.0
C1289 C 0.59798 0.02076 0.21611 0.0
C1290 C 0.59654 0.01027 0.26847 0.0
C1291 C 0.57214 0.00704 0.57704 0.0
C1292 C 0.55303 0.00993 0.55934 0.0
C1293 C 0.58617 0.00113 0.54127 0.0
C1294 C 0.58123 0.99759 0.48758 0.0
C1295 C 0.5621 0.00037 0.4701 0.0
C1296 C 0.54817 0.00654 0.50553 0.0
C1297 C 0.59596 0.99129 0.44908 0.0
C1298 C 0.59759 0.00174 0.39641 0.0
C1299 C 0.60839 0.97526 0.46385 0.0
C1300 C 0.60658 0.96284 0.51737 0.0
C1301 C 0.58901 0.95385 0.53313 0.0
C1302 C 0.58728 0.94244 0.58401 0.0
C1303 C 0.60308 0.93978 0.61933 0.0
C1304 C 0.62065 0.94848 0.60378 0.0
C1305 C 0.62245 0.95992 0.55293 0.0
H1306 H 0.6017 0.93093 0.65868 0.0
H1307 H 0.61646 0.03757 0.15804 0.0
H1308 H 0.5748 0.62404 0.22958 0.0
H1309 H 0.56498 0.60217 0.31049 0.0
H1310 H 0.5466 0.65127 0.39114 0.0
H1311 H 0.55652 0.6733 0.31056 0.0
H1312 H 0.56596 0.62467 0.46163 0.0
H1313 H 0.51399 0.62518 0.33238 0.0
H1314 H 0.49917 0.62193 0.24236 0.0
H1315 H 0.5177 0.5624 0.25379 0.0
H1316 H 0.53287 0.56539 0.34359 0.0
H1317 H 0.48703 0.55999 0.61147 0.0
H1318 H 0.49877 0.5812 0.53179 0.0
H1319 H 0.55683 0.56172 0.56849 0.0
H1320 H 0.54521 0.54051 0.64891 0.0
H1321 H 0.51743 0.5739 0.43984 0.0
H1322 H 0.58682 0.60072 0.53521 0.0
H1323 H 0.59957 0.60538 0.6269 0.0
H1324 H 0.54221 0.61335 0.68619 0.0
H1325 H 0.52916 0.60903 0.59467 0.0
C1326 C 0.56874 0.63022 0.26458 0.0
C1327 C 0.56634 0.65042 0.26349 0.0
C1328 C 0.56311 0.61768 0.31075 0.0
C1329 C 0.55491 0.62509 0.35661 0.0
C1330 C 0.5529 0.64526 0.35618 0.0
C1331 C 0.5585 0.65782 0.30998 0.0
C1332 C 0.54792 0.61179 0.40438 0.0
C1333 C 0.5554 0.61352 0.45687 0.0
C1334 C 0.53394 0.59744 0.39825 0.0
C1335 C 0.52473 0.59557 0.34443 0.0
C1336 C 0.51503 0.61144 0.3155 0.0
C1337 C 0.50655 0.60964 0.26455 0.0
C1338 C 0.50754 0.59198 0.2423 0.0
C1339 C 0.51697 0.57608 0.27104 0.0
C1340 C 0.5255 0.57781 0.32198 0.0
C1341 C 0.5023 0.56015 0.60262 0.0
C1342 C 0.5152 0.54861 0.63667 0.0
C1343 C 0.50897 0.57224 0.5569 0.0
C1344 C 0.52867 0.57314 0.54445 0.0
C1345 C 0.54158 0.5614 0.57776 0.0
C1346 C 0.53491 0.54925 0.62356 0.0
C1347 C 0.53562 0.58663 0.49703 0.0
C1348 C 0.52811 0.58494 0.44456 0.0
C1349 C 0.5493 0.60124 0.5034 0.0
C1350 C 0.55702 0.60434 0.55823 0.0
C1351 C 0.57695 0.60356 0.56775 0.0
C1352 C 0.58422 0.60613 0.6197 0.0
C1353 C 0.5717 0.60959 0.66239 0.0
C1354 C 0.55189 0.6106 0.65314 0.0
C1355 C 0.54455 0.60807 0.60125 0.0
H1356 H 0.57736 0.61153 0.70261 0.0
H1357 H 0.50096 0.59062 0.20284 0.0
H1358 H 0.88996 0.6029 0.33556 0.0
H1359 H 0.91286 0.59476 0.4105 0.0
H1360 H 0.88258 0.54134 0.45951 0.0
H1361 H 0.85941 0.54953 0.38531 0.0
H1362 H 0.89155 0.55879 0.54751 0.0
H1363 H 0.925 0.54176 0.38779 0.0
H1364 H 0.93824 0.54719 0.2935 0.0
H1365 H 0.97403 0.59278 0.3403 0.0
H1366 H 0.96079 0.58781 0.43472 0.0
H1367 H 0.96376 0.50821 0.71231 0.0
H1368 H 0.94144 0.51814 0.63697 0.0
H1369 H 0.96889 0.57407 0.60911 0.0
H1370 H 0.99121 0.56435 0.68489 0.0
H1371 H 0.96174 0.5564 0.51133 0.0
H1372 H 0.92855 0.57234 0.67274 0.0
H1373 H 0.9157 0.56575 0.76725 0.0
H1374 H 0.87964 0.52097 0.71695 0.0
H1375 H 0.89251 0.52707 0.62226 0.0
C1376 C 0.88817 0.58941 0.36223 0.0
C1377 C 0.87287 0.57684 0.35435 0.0
C1378 C 0.90132 0.58475 0.40496 0.0
C1379 C 0.89956 0.56734 0.44028 0.0
C1380 C 0.88421 0.55485 0.43278 0.0
C1381 C 0.87102 0.55954 0.39021 0.0
C1382 C 0.91367 0.56214 0.48515 0.0
C1383 C 0.90687 0.55805 0.53945 0.0
C1384 C 0.93372 0.56156 0.47486 0.0
C1385 C 0.94175 0.56455 0.41817 0.0
C1386 C 0.93558 0.55305 0.37786 0.0
C1387 C 0.9431 0.55602 0.32441 0.0
C1388 C 0.95693 0.57036 0.31088 0.0
C1389 C 0.9633 0.5817 0.35082 0.0
C1390 C 0.9558 0.57881 0.40432 0.0
C1391 C 0.96511 0.52261 0.69006 0.0
C1392 C 0.97923 0.53551 0.70459 0.0
C1393 C 0.95232 0.52826 0.64716 0.0
C1394 C 0.95348 0.54687 0.6178 0.0
C1395 C 0.96779 0.55966 0.63138 0.0
C1396 C 0.98047 0.55409 0.67474 0.0
C1397 C 0.93956 0.55298 0.57331 0.0
C1398 C 0.94641 0.55722 0.51922 0.0
C1399 C 0.91957 0.55359 0.58372 0.0
C1400 C 0.91163 0.55004 0.64049 0.0
C1401 C 0.918 0.56097 0.68191 0.0
C1402 C 0.9107 0.55735 0.73551 0.0
C1403 C 0.89691 0.54292 0.74813 0.0
C1404 C 0.89035 0.53212 0.70712 0.0
C1405 C 0.89762 0.53567 0.65346 0.0
H1406 H 0.89128 0.54013 0.78965 0.0
H1407 H 0.96274 0.57264 0.26948 0.0
loop_
_geom_bond_atom_site_label_1
_geom_bond_atom_site_label_2
_geom_bond_distance
_geom_bond_site_symmetry_2
_ccdc_geom_bond_type
O0 Cd1 2.300 . S
O0 C7 1.275 . S
Cd1 O0 2.300 . S
Cd1 O9 2.381 . S
Cd1 O10 2.378 . S
O2 Cd3 2.385 . S
O2 C7 1.255 . S
Cd3 O2 2.385 . S
Cd3 O4 2.317 . S
O4 Cd3 2.317 . S
O4 C5 1.232 . S
C5 O4 1.232 . S
C5 O6 1.218 . S
O6 C5 1.218 . S
C7 O0 1.275 . S
C7 O2 1.255 . S
C8 O9 1.258 . S
C8 O10 1.256 . S
O9 Cd1 2.381 . S
O9 C8 1.258 . S
O10 Cd1 2.378 . S
O10 C8 1.256 . S
O11 Cd12 2.300 . S
O11 C18 1.275 . S
Cd12 O11 2.300 . S
Cd12 O20 2.381 . S
Cd12 O21 2.378 . S
O13 Cd14 2.385 1_655 S
O13 C18 1.255 . S
Cd14 O13 2.385 1_455 S
Cd14 O15 2.317 1_455 S
O15 Cd14 2.317 1_655 S
O15 C16 1.232 . S
C16 O15 1.232 . S
C16 O17 1.218 . S
O17 C16 1.218 . S
C18 O11 1.275 . S
C18 O13 1.255 . S
C19 O20 1.258 . S
C19 O21 1.256 . S
O20 Cd12 2.381 . S
O20 C19 1.258 . S
O21 Cd12 2.378 . S
O21 C19 1.256 . S
O22 Cd23 2.300 1_565 S
O22 C29 1.275 . S
Cd23 O22 2.300 1_545 S
Cd23 O31 2.381 1_545 S
Cd23 O32 2.378 . S
O24 Cd25 2.385 . S
O24 C29 1.255 1_545 S
Cd25 O24 2.385 . S
Cd25 O26 2.317 . S
O26 Cd25 2.317 . S
O26 C27 1.232 . S
C27 O26 1.232 . S
C27 O28 1.218 . S
O28 C27 1.218 . S
C29 O22 1.275 . S
C29 O24 1.255 1_565 S
C30 O31 1.258 . S
C30 O32 1.256 1_565 S
O31 Cd23 2.381 1_565 S
O31 C30 1.258 . S
O32 Cd23 2.378 . S
O32 C30 1.256 1_545 S
O33 Cd34 2.300 . S
O33 C40 1.275 . S
Cd34 O33 2.300 . S
Cd34 O42 2.381 . S
Cd34 O43 2.378 . S
O35 Cd36 2.385 . S
O35 C40 1.255 . S
Cd36 O35 2.385 . S
Cd36 O37 2.317 . S
O37 Cd36 2.317 . S
O37 C38 1.232 . S
C38 O37 1.232 . S
C38 O39 1.218 . S
O39 C38 1.218 . S
C40 O33 1.275 . S
C40 O35 1.255 . S
C41 O42 1.258 . S
C41 O43 1.256 . S
O42 Cd34 2.381 . S
O42 C41 1.258 . S
O43 Cd34 2.378 . S
O43 C41 1.256 . S
O44 Cd45 2.300 . S
O44 C51 1.275 . S
Cd45 O44 2.300 . S
Cd45 O53 2.381 . S
Cd45 O54 2.378 . S
O46 Cd47 2.385 . S
O46 C51 1.255 . S
Cd47 O46 2.385 . S
Cd47 O48 2.317 . S
O48 Cd47 2.317 . S
O48 C49 1.232 . S
C49 O48 1.232 . S
C49 O50 1.218 . S
O50 C49 1.218 . S
C51 O44 1.275 . S
C51 O46 1.255 . S
C52 O53 1.258 . S
C52 O54 1.256 . S
O53 Cd45 2.381 . S
O53 C52 1.258 . S
O54 Cd45 2.378 . S
O54 C52 1.256 . S
O55 Cd56 2.300 . S
O55 C62 1.275 . S
Cd56 O55 2.300 . S
Cd56 O64 2.381 . S
Cd56 O65 2.378 . S
O57 Cd58 2.385 . S
O57 C62 1.255 . S
Cd58 O57 2.385 . S
Cd58 O59 2.317 . S
O59 Cd58 2.317 . S
O59 C60 1.232 . S
C60 O59 1.232 . S
C60 O61 1.218 . S
O61 C60 1.218 . S
C62 O55 1.275 . S
C62 O57 1.255 . S
C63 O64 1.258 . S
C63 O65 1.256 . S
O64 Cd56 2.381 . S
O64 C63 1.258 . S
O65 Cd56 2.378 . S
O65 C63 1.256 . S
O66 Cd67 2.300 . S
O66 C73 1.275 . S
Cd67 O66 2.300 . S
Cd67 O75 2.381 . S
Cd67 O76 2.378 . S
O68 Cd69 2.385 . S
O68 C73 1.255 . S
Cd69 O68 2.385 . S
Cd69 O70 2.317 . S
O70 Cd69 2.317 . S
O70 C71 1.232 . S
C71 O70 1.232 . S
C71 O72 1.218 . S
O72 C71 1.218 . S
C73 O66 1.275 . S
C73 O68 1.255 . S
C74 O75 1.258 . S
C74 O76 1.256 . S
O75 Cd67 2.381 . S
O75 C74 1.258 . S
O76 Cd67 2.378 . S
O76 C74 1.256 . S
O77 Cd78 2.300 . S
O77 C84 1.275 . S
Cd78 O77 2.300 . S
Cd78 O86 2.381 . S
Cd78 O87 2.378 . S
O79 Cd80 2.385 . S
O79 C84 1.255 . S
Cd80 O79 2.385 . S
Cd80 O81 2.317 . S
O81 Cd80 2.317 . S
O81 C82 1.232 . S
C82 O81 1.232 . S
C82 O83 1.218 . S
O83 C82 1.218 . S
C84 O77 1.275 . S
C84 O79 1.255 . S
C85 O86 1.258 . S
C85 O87 1.256 . S
O86 Cd78 2.381 . S
O86 C85 1.258 . S
O87 Cd78 2.378 . S
O87 C85 1.256 . S
Co88 N93 2.057 . S
Co88 O105 2.021 . S
Co88 O108 2.062 . S
Co88 O112 2.117 1_455 S
Co88 O113 2.020 1_545 S
C89 O109 1.259 . S
C89 O112 1.258 . S
Co90 N99 2.057 1_545 S
Co90 O106 2.117 1_655 S
Co90 O107 2.020 . S
Co90 O109 2.021 . S
Co90 O114 2.063 1_545 S
C91 N93 1.316 . S
C91 N94 1.347 . S
C91 H96 0.931 . S
C92 N93 1.375 1_655 S
C92 C95 1.349 . S
C92 H97 0.930 . S
N93 Co88 2.057 . S
N93 C91 1.316 . S
N93 C92 1.375 1_455 S
N94 C91 1.347 . S
N94 C95 1.378 1_455 S
C95 C92 1.349 . S
C95 N94 1.378 1_655 S
C95 H116 0.928 . S
H96 C91 0.931 . S
H97 C92 0.930 . S
C98 O105 1.259 . S
C98 O106 1.258 . S
N99 Co90 2.057 1_565 S
N99 C100 1.316 . S
N99 C101 1.375 1_655 S
C100 N99 1.316 . S
C100 N102 1.347 . S
C100 H111 0.931 . S
C101 N99 1.375 1_455 S
C101 C103 1.350 . S
C101 H110 0.930 . S
N102 C100 1.347 . S
N102 C103 1.373 1_655 S
C103 C101 1.350 . S
C103 N102 1.373 1_455 S
C103 H117 0.931 . S
C104 O107 1.255 1_455 S
C104 O108 1.255 . S
O105 Co88 2.021 . S
O105 C98 1.259 . S
O106 Co90 2.117 1_455 S
O106 C98 1.258 . S
O107 Co90 2.020 . S
O107 C104 1.255 1_655 S
O108 Co88 2.062 . S
O108 C104 1.255 . S
O109 C89 1.259 . S
O109 Co90 2.021 . S
H110 C101 0.930 . S
H111 C100 0.931 . S
O112 Co88 2.117 1_655 S
O112 C89 1.258 . S
O113 Co88 2.020 1_565 S
O113 C115 1.256 . S
O114 Co90 2.063 1_565 S
O114 C115 1.244 1_655 S
C115 O113 1.256 . S
C115 O114 1.244 1_455 S
H116 C95 0.928 . S
H117 C103 0.931 . S
Co118 N123 2.057 . S
Co118 O135 2.021 . S
Co118 O138 2.062 . S
Co118 O142 2.117 1_545 S
Co118 O143 2.020 . S
C119 O139 1.259 . S
C119 O142 1.258 . S
Co120 N129 2.057 . S
Co120 O136 2.117 . S
Co120 O137 2.020 . S
Co120 O139 2.021 1_545 S
Co120 O144 2.062 . S
C121 N123 1.316 . S
C121 N124 1.347 . S
C121 H126 0.931 . S
C122 N123 1.375 1_565 S
C122 C125 1.351 . S
C122 H127 0.930 . S
N123 Co118 2.057 . S
N123 C121 1.316 . S
N123 C122 1.375 1_545 S
N124 C121 1.347 . S
N124 C125 1.369 1_545 S
C125 C122 1.351 . S
C125 N124 1.369 1_565 S
C125 H146 0.933 1_556 S
H126 C121 0.931 . S
H127 C122 0.930 . S
C128 O135 1.259 . S
C128 O136 1.258 . S
N129 Co120 2.057 . S
N129 C130 1.316 1_545 S
N129 C131 1.375 . S
C130 N129 1.316 1_565 S
C130 N132 1.347 1_565 S
C130 H141 0.931 . S
C131 N129 1.375 . S
C131 C133 1.350 . S
C131 H140 0.930 . S
N132 C130 1.347 1_545 S
N132 C133 1.373 . S
C133 C131 1.350 . S
C133 N132 1.373 . S
C133 H147 0.931 . S
C134 O137 1.256 . S
C134 O138 1.255 . S
O135 Co118 2.021 . S
O135 C128 1.259 . S
O136 Co120 2.117 . S
O136 C128 1.258 . S
O137 Co120 2.020 . S
O137 C134 1.256 . S
O138 Co118 2.062 . S
O138 C134 1.255 . S
O139 C119 1.259 . S
O139 Co120 2.021 1_565 S
H140 C131 0.930 . S
H141 C130 0.931 . S
O142 Co118 2.117 1_565 S
O142 C119 1.258 . S
O143 Co118 2.020 . S
O143 C145 1.256 . S
O144 Co120 2.062 . S
O144 C145 1.255 . S
C145 O143 1.256 . S
C145 O144 1.255 . S
H146 C125 0.933 1_554 S
H147 C133 0.931 . S
Co148 N153 2.057 . S
Co148 O165 2.021 . S
Co148 O168 2.062 . S
Co148 O172 2.117 . S
Co148 O173 2.020 . S
C149 O169 1.259 . S
C149 O172 1.258 . S
Co150 N159 2.057 . S
Co150 O166 2.117 . S
Co150 O167 2.020 . S
Co150 O169 2.021 . S
Co150 O174 2.062 . S
C151 N153 1.316 . S
C151 N154 1.347 . S
C151 H156 0.931 . S
C152 N153 1.375 . S
C152 C155 1.350 . S
C152 H157 0.930 . S
N153 Co148 2.057 . S
N153 C151 1.316 . S
N153 C152 1.375 . S
N154 C151 1.347 . S
N154 C155 1.373 . S
C155 C152 1.350 . S
C155 N154 1.373 . S
C155 H176 0.931 . S
H156 C151 0.931 . S
H157 C152 0.930 . S
C158 O165 1.259 . S
C158 O166 1.258 . S
N159 Co150 2.057 . S
N159 C160 1.316 . S
N159 C161 1.375 . S
C160 N159 1.316 . S
C160 N162 1.347 . S
C160 H171 0.931 . S
C161 N159 1.375 . S
C161 C163 1.350 . S
C161 H170 0.930 . S
N162 C160 1.347 . S
N162 C163 1.373 . S
C163 C161 1.350 . S
C163 N162 1.373 . S
C163 H177 0.931 . S
C164 O167 1.256 . S
C164 O168 1.255 . S
O165 Co148 2.021 . S
O165 C158 1.259 . S
O166 Co150 2.117 . S
O166 C158 1.258 . S
O167 Co150 2.020 . S
O167 C164 1.256 . S
O168 Co148 2.062 . S
O168 C164 1.255 . S
O169 C149 1.259 . S
O169 Co150 2.021 . S
H170 C161 0.930 . S
H171 C160 0.931 . S
O172 Co148 2.117 . S
O172 C149 1.258 . S
O173 Co148 2.020 . S
O173 C175 1.256 . S
O174 Co150 2.062 . S
O174 C175 1.255 . S
C175 O173 1.256 . S
C175 O174 1.255 . S
H176 C155 0.931 . S
H177 C163 0.931 . S
Co178 N183 2.057 . S
Co178 O195 2.021 1_455 S
Co178 O198 2.062 1_455 S
Co178 O202 2.117 . S
Co178 O203 2.020 . S
C179 O199 1.259 . S
C179 O202 1.258 . S
Co180 N189 2.051 1_455 S
Co180 O196 2.117 1_455 S
Co180 O197 2.020 1_455 S
Co180 O199 2.021 . S
Co180 O204 2.062 . S
C181 N183 1.316 1_655 S
C181 N184 1.347 1_655 S
C181 H186 0.931 . S
C182 N183 1.375 . S
C182 C185 1.350 . S
C182 H187 0.930 . S
N183 Co178 2.057 . S
N183 C181 1.316 1_455 S
N183 C182 1.375 . S
N184 C181 1.347 1_455 S
N184 C185 1.373 . S
C185 C182 1.350 . S
C185 N184 1.373 . S
C185 H206 0.931 . S
H186 C181 0.931 . S
H187 C182 0.930 . S
C188 O195 1.259 . S
C188 O196 1.258 . S
N189 Co180 2.051 1_655 S
N189 C190 1.294 1_655 S
N189 C191 1.402 . S
C190 N189 1.294 1_455 S
C190 N192 1.347 . S
C190 H201 0.931 . S
C191 N189 1.402 . S
C191 C193 1.350 . S
C191 H200 0.930 . S
N192 C190 1.347 . S
N192 C193 1.373 1_455 S
C193 C191 1.350 . S
C193 N192 1.373 1_655 S
C193 H207 0.931 . S
C194 O197 1.256 . S
C194 O198 1.255 . S
O195 Co178 2.021 1_655 S
O195 C188 1.259 . S
O196 Co180 2.117 1_655 S
O196 C188 1.258 . S
O197 Co180 2.020 1_655 S
O197 C194 1.256 . S
O198 Co178 2.062 1_655 S
O198 C194 1.255 . S
O199 C179 1.259 . S
O199 Co180 2.021 . S
H200 C191 0.930 . S
H201 C190 0.931 . S
O202 Co178 2.117 . S
O202 C179 1.258 . S
O203 Co178 2.020 . S
O203 C205 1.256 . S
O204 Co180 2.062 . S
O204 C205 1.255 . S
C205 O203 1.256 . S
C205 O204 1.255 . S
H206 C185 0.931 . S
H207 C193 0.931 . S
H208 C226 0.951 . S
H209 C228 0.951 . S
H210 C230 0.950 . S
H211 C231 0.950 . S
H212 C233 0.950 . S
H213 C236 0.950 . S
H214 C237 0.950 . S
H215 C239 0.950 . S
H216 C240 0.950 . S
H217 C241 0.951 1_565 S
H218 C243 0.974 . S
H219 C245 0.950 . S
H220 C246 0.950 . S
H221 C248 0.950 . S
H222 C251 0.950 . S
H223 C252 0.950 . S
H224 C254 0.950 . S
H225 C255 0.950 . S
C226 H208 0.951 . S
C226 C227 1.366 . S
C226 C228 1.388 . S
C227 C226 1.366 . S
C227 C231 1.385 . S
C228 H209 0.951 . S
C228 C226 1.388 . S
C228 C229 1.366 . S
C229 C228 1.366 . S
C229 C230 1.414 . S
C229 C232 1.499 . S
C230 H210 0.950 . S
C230 C229 1.414 . S
C230 C231 1.374 . S
C231 H211 0.950 . S
C231 C227 1.385 . S
C231 C230 1.374 . S
C232 C229 1.499 . S
C232 C233 1.373 . S
C232 C234 1.389 . S
C233 H212 0.950 . S
C233 C232 1.373 . S
C233 C249 1.377 . S
C234 C232 1.389 . S
C234 C235 1.524 . S
C234 C248 1.377 . S
C235 C234 1.524 . S
C235 C236 1.397 1_545 S
C235 C240 1.363 . S
C236 H213 0.950 . S
C236 C235 1.397 1_565 S
C236 C237 1.334 . S
C237 H214 0.950 . S
C237 C236 1.334 . S
C237 C238 1.287 . S
C238 C237 1.287 . S
C238 C239 1.524 1_565 S
C238 H257 0.913 . S
C239 H215 0.950 . S
C239 C238 1.524 1_545 S
C239 C240 1.415 . S
C240 H216 0.950 . S
C240 C235 1.363 . S
C240 C239 1.415 . S
C241 H217 0.951 1_545 S
C241 C242 1.366 . S
C241 C243 1.388 . S
C242 C241 1.366 . S
C242 C246 1.385 . S
C243 H218 0.974 . S
C243 C241 1.388 . S
C243 C244 1.366 . S
C244 C243 1.366 . S
C244 C245 1.414 . S
C244 C247 1.499 . S
C245 H219 0.950 . S
C245 C244 1.414 . S
C245 C246 1.374 . S
C246 H220 0.950 . S
C246 C242 1.385 . S
C246 C245 1.374 . S
C247 C244 1.499 . S
C247 C248 1.373 . S
C247 C249 1.389 . S
C248 H221 0.950 . S
C248 C234 1.377 . S
C248 C247 1.373 . S
C249 C233 1.377 . S
C249 C247 1.389 . S
C249 C250 1.524 . S
C250 C249 1.524 . S
C250 C251 1.397 . S
C250 C255 1.363 . S
C251 H222 0.950 . S
C251 C250 1.397 . S
C251 C252 1.334 . S
C252 H223 0.950 . S
C252 C251 1.334 . S
C252 C253 1.287 . S
C253 C252 1.287 . S
C253 C254 1.524 . S
C253 H256 0.999 . S
C254 H224 0.950 . S
C254 C253 1.524 . S
C254 C255 1.415 . S
C255 H225 0.950 . S
C255 C250 1.363 . S
C255 C254 1.415 . S
H256 C253 0.999 . S
H257 C238 0.913 . S
H258 C276 0.951 . S
H259 C278 0.951 . S
H260 C280 0.950 . S
H261 C281 0.950 . S
H262 C283 0.950 . S
H263 C286 0.950 . S
H264 C287 0.950 . S
H265 C289 0.950 . S
H266 C290 0.950 . S
H267 C291 0.951 . S
H268 C293 0.951 . S
H269 C295 0.950 . S
H270 C296 0.950 . S
H271 C298 0.950 . S
H272 C301 0.950 . S
H273 C302 0.950 . S
H274 C304 0.950 . S
H275 C305 0.950 . S
C276 H258 0.951 . S
C276 C277 1.366 . S
C276 C278 1.388 . S
C277 C276 1.366 . S
C277 C281 1.385 . S
C278 H259 0.951 . S
C278 C276 1.388 . S
C278 C279 1.366 . S
C279 C278 1.366 . S
C279 C280 1.414 . S
C279 C282 1.499 . S
C280 H260 0.950 . S
C280 C279 1.414 . S
C280 C281 1.374 . S
C281 H261 0.950 . S
C281 C277 1.385 . S
C281 C280 1.374 . S
C282 C279 1.499 . S
C282 C283 1.373 . S
C282 C284 1.389 . S
C283 H262 0.950 . S
C283 C282 1.373 . S
C283 C299 1.377 . S
C284 C282 1.389 . S
C284 C285 1.524 . S
C284 C298 1.377 . S
C285 C284 1.524 . S
C285 C286 1.397 . S
C285 C290 1.363 . S
C286 H263 0.950 . S
C286 C285 1.397 . S
C286 C287 1.334 . S
C287 H264 0.950 . S
C287 C286 1.334 . S
C287 C288 1.287 . S
C288 C287 1.287 . S
C288 C289 1.524 . S
C288 H307 0.913 . S
C289 H265 0.950 . S
C289 C288 1.524 . S
C289 C290 1.415 . S
C290 H266 0.950 . S
C290 C285 1.363 . S
C290 C289 1.415 . S
C291 H267 0.951 . S
C291 C292 1.366 . S
C291 C293 1.388 . S
C292 C291 1.366 . S
C292 C296 1.385 . S
C293 H268 0.951 . S
C293 C291 1.388 . S
C293 C294 1.366 . S
C294 C293 1.366 . S
C294 C295 1.414 . S
C294 C297 1.499 . S
C295 H269 0.950 . S
C295 C294 1.414 . S
C295 C296 1.374 . S
C296 H270 0.950 . S
C296 C292 1.385 . S
C296 C295 1.374 . S
C297 C294 1.499 . S
C297 C298 1.373 . S
C297 C299 1.389 . S
C298 H271 0.950 . S
C298 C284 1.377 . S
C298 C297 1.373 . S
C299 C283 1.377 . S
C299 C297 1.389 . S
C299 C300 1.524 . S
C300 C299 1.524 . S
C300 C301 1.397 . S
C300 C305 1.363 . S
C301 H272 0.950 . S
C301 C300 1.397 . S
C301 C302 1.334 . S
C302 H273 0.950 . S
C302 C301 1.334 . S
C302 C303 1.287 . S
C303 C302 1.287 . S
C303 C304 1.524 . S
C303 H306 0.999 . S
C304 H274 0.950 . S
C304 C303 1.524 . S
C304 C305 1.415 . S
C305 H275 0.950 . S
C305 C300 1.363 . S
C305 C304 1.415 . S
H306 C303 0.999 . S
H307 C288 0.913 . S
H308 C326 0.951 . S
H309 C328 0.951 . S
H310 C330 0.950 . S
H311 C331 0.950 . S
H312 C333 0.950 . S
H313 C336 0.950 . S
H314 C337 0.950 . S
H315 C339 0.950 . S
H316 C340 0.950 . S
H317 C341 0.951 . S
H318 C343 0.951 . S
H319 C345 0.950 . S
H320 C346 0.950 . S
H321 C348 0.950 . S
H322 C351 0.950 . S
H323 C352 0.950 . S
H324 C354 0.950 . S
H325 C355 0.950 . S
C326 H308 0.951 . S
C326 C327 1.366 . S
C326 C328 1.388 . S
C327 C326 1.366 . S
C327 C331 1.385 . S
C328 H309 0.951 . S
C328 C326 1.388 . S
C328 C329 1.366 . S
C329 C328 1.366 . S
C329 C330 1.414 . S
C329 C332 1.499 . S
C330 H310 0.950 . S
C330 C329 1.414 . S
C330 C331 1.374 . S
C331 H311 0.950 . S
C331 C327 1.385 . S
C331 C330 1.374 . S
C332 C329 1.499 . S
C332 C333 1.373 . S
C332 C334 1.389 . S
C333 H312 0.950 . S
C333 C332 1.373 . S
C333 C349 1.377 . S
C334 C332 1.389 . S
C334 C335 1.524 . S
C334 C348 1.377 . S
C335 C334 1.524 . S
C335 C336 1.397 . S
C335 C340 1.363 . S
C336 H313 0.950 . S
C336 C335 1.397 . S
C336 C337 1.334 . S
C337 H314 0.950 . S
C337 C336 1.334 . S
C337 C338 1.287 . S
C338 C337 1.287 . S
C338 C339 1.524 . S
C338 H357 0.913 . S
C339 H315 0.950 . S
C339 C338 1.524 . S
C339 C340 1.415 . S
C340 H316 0.950 . S
C340 C335 1.363 . S
C340 C339 1.415 . S
C341 H317 0.951 . S
C341 C342 1.366 . S
C341 C343 1.388 . S
C342 C341 1.366 . S
C342 C346 1.385 . S
C343 H318 0.951 . S
C343 C341 1.388 . S
C343 C344 1.366 . S
C344 C343 1.366 . S
C344 C345 1.414 . S
C344 C347 1.499 . S
C345 H319 0.950 . S
C345 C344 1.414 . S
C345 C346 1.374 . S
C346 H320 0.950 . S
C346 C342 1.385 . S
C346 C345 1.374 . S
C347 C344 1.499 . S
C347 C348 1.373 . S
C347 C349 1.389 . S
C348 H321 0.950 . S
C348 C334 1.377 . S
C348 C347 1.373 . S
C349 C333 1.377 . S
C349 C347 1.389 . S
C349 C350 1.524 . S
C350 C349 1.524 . S
C350 C351 1.397 . S
C350 C355 1.363 . S
C351 H322 0.950 . S
C351 C350 1.397 . S
C351 C352 1.334 . S
C352 H323 0.950 . S
C352 C351 1.334 . S
C352 C353 1.287 . S
C353 C352 1.287 . S
C353 C354 1.524 . S
C353 H356 0.999 . S
C354 H324 0.950 . S
C354 C353 1.524 . S
C354 C355 1.415 . S
C355 H325 0.950 . S
C355 C350 1.363 . S
C355 C354 1.415 . S
H356 C353 0.999 . S
H357 C338 0.913 . S
H358 C376 0.951 . S
H359 C378 0.951 . S
H360 C380 0.950 . S
H361 C381 0.950 . S
H362 C383 0.950 . S
H363 C386 0.950 . S
H364 C387 0.950 . S
H365 C389 0.950 . S
H366 C390 0.950 . S
H367 C391 0.930 1_655 S
H368 C393 0.951 1_655 S
H369 C395 0.950 . S
H370 C396 0.950 . S
H371 C398 0.950 . S
H372 C401 0.950 . S
H373 C402 0.950 . S
H374 C404 0.950 . S
H375 C405 0.950 . S
C376 H358 0.951 . S
C376 C377 1.366 . S
C376 C378 1.388 . S
C377 C376 1.366 . S
C377 C381 1.385 . S
C378 H359 0.951 . S
C378 C376 1.388 . S
C378 C379 1.366 . S
C379 C378 1.366 . S
C379 C380 1.414 . S
C379 C382 1.499 . S
C380 H360 0.950 . S
C380 C379 1.414 . S
C380 C381 1.374 . S
C381 H361 0.950 . S
C381 C377 1.385 . S
C381 C380 1.374 . S
C382 C379 1.499 . S
C382 C383 1.373 . S
C382 C384 1.389 . S
C383 H362 0.950 . S
C383 C382 1.373 . S
C383 C399 1.377 . S
C384 C382 1.389 . S
C384 C385 1.524 . S
C384 C398 1.377 . S
C385 C384 1.524 . S
C385 C386 1.397 . S
C385 C390 1.363 . S
C386 H363 0.950 . S
C386 C385 1.397 . S
C386 C387 1.334 . S
C387 H364 0.950 . S
C387 C386 1.334 . S
C387 C388 1.287 . S
C388 C387 1.287 . S
C388 C389 1.524 . S
C388 H407 0.913 . S
C389 H365 0.950 . S
C389 C388 1.524 . S
C389 C390 1.415 . S
C390 H366 0.950 . S
C390 C385 1.363 . S
C390 C389 1.415 . S
C391 H367 0.930 1_455 S
C391 C392 1.382 . S
C391 C393 1.393 . S
C392 C391 1.382 . S
C392 C396 1.385 . S
C393 H368 0.951 1_455 S
C393 C391 1.393 . S
C393 C394 1.366 . S
C394 C393 1.366 . S
C394 C395 1.414 . S
C394 C397 1.499 . S
C395 H369 0.950 . S
C395 C394 1.414 . S
C395 C396 1.374 . S
C396 H370 0.950 . S
C396 C392 1.385 . S
C396 C395 1.374 . S
C397 C394 1.499 . S
C397 C398 1.373 . S
C397 C399 1.389 . S
C398 H371 0.950 . S
C398 C384 1.377 . S
C398 C397 1.373 . S
C399 C383 1.377 . S
C399 C397 1.389 . S
C399 C400 1.524 1_455 S
C400 C399 1.524 1_655 S
C400 C401 1.397 . S
C400 C405 1.363 . S
C401 H372 0.950 . S
C401 C400 1.397 . S
C401 C402 1.334 . S
C402 H373 0.950 . S
C402 C401 1.334 . S
C402 C403 1.287 . S
C403 C402 1.287 . S
C403 C404 1.524 . S
C403 H406 0.999 . S
C404 H374 0.950 . S
C404 C403 1.524 . S
C404 C405 1.415 . S
C405 H375 0.950 . S
C405 C400 1.363 . S
C405 C404 1.415 . S
H406 C403 0.999 . S
H407 C388 0.913 . S
H408 C426 0.951 . S
H409 C428 0.951 . S
H410 C430 0.950 . S
H411 C431 0.950 . S
H412 C433 0.950 1_554 S
H413 C436 0.950 . S
H414 C437 0.950 . S
H415 C439 0.950 . S
H416 C440 0.950 . S
H417 C441 0.951 . S
H418 C443 0.951 . S
H419 C445 0.950 . S
H420 C446 0.950 . S
H421 C448 0.950 . S
H422 C451 0.950 1_556 S
H423 C452 0.950 . S
H424 C454 0.950 . S
H425 C455 0.950 . S
C426 H408 0.951 . S
C426 C427 1.366 1_546 S
C426 C428 1.388 . S
C427 C426 1.366 1_564 S
C427 C431 1.385 . S
C428 H409 0.951 . S
C428 C426 1.388 . S
C428 C429 1.378 . S
C429 C428 1.378 . S
C429 C430 1.401 1_546 S
C429 C432 1.499 . S
C430 H410 0.950 . S
C430 C429 1.401 1_564 S
C430 C431 1.374 . S
C431 H411 0.950 . S
C431 C427 1.385 . S
C431 C430 1.374 . S
C432 C429 1.499 . S
C432 C433 1.373 1_545 S
C432 C434 1.389 . S
C433 H412 0.950 1_556 S
C433 C432 1.373 1_565 S
C433 C449 1.377 1_565 S
C434 C432 1.389 . S
C434 C435 1.524 . S
C434 C448 1.377 . S
C435 C434 1.524 . S
C435 C436 1.397 1_545 S
C435 C440 1.363 . S
C436 H413 0.950 . S
C436 C435 1.397 1_565 S
C436 C437 1.334 . S
C437 H414 0.950 . S
C437 C436 1.334 . S
C437 C438 1.287 1_565 S
C438 C437 1.287 1_545 S
C438 C439 1.524 . S
C438 H457 0.913 . S
C439 H415 0.950 . S
C439 C438 1.524 . S
C439 C440 1.415 . S
C440 H416 0.950 . S
C440 C435 1.363 . S
C440 C439 1.415 . S
C441 H417 0.951 . S
C441 C442 1.366 1_565 S
C441 C443 1.388 . S
C442 C441 1.366 1_545 S
C442 C446 1.385 . S
C443 H418 0.951 . S
C443 C441 1.388 . S
C443 C444 1.366 1_565 S
C444 C443 1.366 1_545 S
C444 C445 1.414 . S
C444 C447 1.499 . S
C445 H419 0.950 . S
C445 C444 1.414 . S
C445 C446 1.374 . S
C446 H420 0.950 . S
C446 C442 1.385 . S
C446 C445 1.374 . S
C447 C444 1.499 . S
C447 C448 1.373 . S
C447 C449 1.389 . S
C448 H421 0.950 . S
C448 C434 1.377 . S
C448 C447 1.373 . S
C449 C433 1.377 1_545 S
C449 C447 1.389 . S
C449 C450 1.524 1_546 S
C450 C449 1.524 1_564 S
C450 C451 1.397 1_565 S
C450 C455 1.363 . S
C451 H422 0.950 1_554 S
C451 C450 1.397 1_545 S
C451 C452 1.334 . S
C452 H423 0.950 . S
C452 C451 1.334 . S
C452 C453 1.287 1_545 S
C453 C452 1.287 1_565 S
C453 C454 1.524 . S
C453 H456 0.999 . S
C454 H424 0.950 . S
C454 C453 1.524 . S
C454 C455 1.415 . S
C455 H425 0.950 . S
C455 C450 1.363 . S
C455 C454 1.415 . S
H456 C453 0.999 . S
H457 C438 0.913 . S
H458 C476 0.951 . S
H459 C478 0.951 . S
H460 C480 0.950 . S
H461 C481 0.950 . S
H462 C483 0.950 . S
H463 C486 0.950 . S
H464 C487 0.950 . S
H465 C489 0.950 . S
H466 C490 0.950 . S
H467 C491 0.951 . S
H468 C493 0.951 . S
H469 C495 0.950 . S
H470 C496 0.950 . S
H471 C498 0.950 . S
H472 C501 0.950 . S
H473 C502 0.950 . S
H474 C504 0.950 . S
H475 C505 0.950 . S
C476 H458 0.951 . S
C476 C477 1.366 . S
C476 C478 1.388 . S
C477 C476 1.366 . S
C477 C481 1.385 . S
C478 H459 0.951 . S
C478 C476 1.388 . S
C478 C479 1.368 . S
C479 C478 1.368 . S
C479 C480 1.413 1_554 S
C479 C482 1.497 1_554 S
C480 H460 0.950 . S
C480 C479 1.413 1_556 S
C480 C481 1.374 1_556 S
C481 H461 0.950 . S
C481 C477 1.385 . S
C481 C480 1.374 1_554 S
C482 C479 1.497 1_556 S
C482 C483 1.373 . S
C482 C484 1.389 1_556 S
C483 H462 0.950 . S
C483 C482 1.373 . S
C483 C499 1.377 . S
C484 C482 1.389 1_554 S
C484 C485 1.524 . S
C484 C498 1.377 1_554 S
C485 C484 1.524 . S
C485 C486 1.397 . S
C485 C490 1.363 . S
C486 H463 0.950 . S
C486 C485 1.397 . S
C486 C487 1.334 . S
C487 H464 0.950 . S
C487 C486 1.334 . S
C487 C488 1.287 . S
C488 C487 1.287 . S
C488 C489 1.524 . S
C488 H507 0.913 . S
C489 H465 0.950 . S
C489 C488 1.524 . S
C489 C490 1.415 . S
C490 H466 0.950 . S
C490 C485 1.363 . S
C490 C489 1.415 . S
C491 H467 0.951 . S
C491 C492 1.366 . S
C491 C493 1.388 . S
C492 C491 1.366 . S
C492 C496 1.385 . S
C493 H468 0.951 . S
C493 C491 1.388 . S
C493 C494 1.366 . S
C494 C493 1.366 . S
C494 C495 1.414 . S
C494 C497 1.499 . S
C495 H469 0.950 . S
C495 C494 1.414 . S
C495 C496 1.374 . S
C496 H470 0.950 . S
C496 C492 1.385 . S
C496 C495 1.374 . S
C497 C494 1.499 . S
C497 C498 1.373 . S
C497 C499 1.389 . S
C498 H471 0.950 . S
C498 C484 1.377 1_556 S
C498 C497 1.373 . S
C499 C483 1.377 . S
C499 C497 1.389 . S
C499 C500 1.524 . S
C500 C499 1.524 . S
C500 C501 1.397 . S
C500 C505 1.363 . S
C501 H472 0.950 . S
C501 C500 1.397 . S
C501 C502 1.334 . S
C502 H473 0.950 . S
C502 C501 1.334 . S
C502 C503 1.287 . S
C503 C502 1.287 . S
C503 C504 1.524 . S
C503 H506 0.999 . S
C504 H474 0.950 . S
C504 C503 1.524 . S
C504 C505 1.415 . S
C505 H475 0.950 . S
C505 C500 1.363 . S
C505 C504 1.415 . S
H506 C503 0.999 . S
H507 C488 0.913 . S
H508 C526 0.951 . S
H509 C528 0.951 1_556 S
H510 C530 0.950 . S
H511 C531 0.950 . S
H512 C533 0.950 . S
H513 C536 0.950 . S
H514 C537 0.950 . S
H515 C539 0.950 . S
H516 C540 0.950 . S
H517 C541 0.951 . S
H518 C543 0.951 . S
H519 C545 0.950 . S
H520 C546 0.950 . S
H521 C548 0.950 . S
H522 C551 0.950 1_556 S
H523 C552 0.950 . S
H524 C554 0.950 . S
H525 C555 0.950 . S
C526 H508 0.951 . S
C526 C527 1.366 . S
C526 C528 1.388 . S
C527 C526 1.366 . S
C527 C531 1.385 . S
C528 H509 0.951 1_554 S
C528 C526 1.388 . S
C528 C529 1.366 . S
C529 C528 1.366 . S
C529 C530 1.414 . S
C529 C532 1.499 . S
C530 H510 0.950 . S
C530 C529 1.414 . S
C530 C531 1.374 . S
C531 H511 0.950 . S
C531 C527 1.385 . S
C531 C530 1.374 . S
C532 C529 1.499 . S
C532 C533 1.373 . S
C532 C534 1.389 1_554 S
C533 H512 0.950 . S
C533 C532 1.373 . S
C533 C549 1.377 . S
C534 C532 1.389 1_556 S
C534 C535 1.524 . S
C534 C548 1.377 . S
C535 C534 1.524 . S
C535 C536 1.397 . S
C535 C540 1.363 . S
C536 H513 0.950 . S
C536 C535 1.397 . S
C536 C537 1.334 . S
C537 H514 0.950 . S
C537 C536 1.334 . S
C537 C538 1.287 . S
C538 C537 1.287 . S
C538 C539 1.524 . S
C538 H557 0.913 . S
C539 H515 0.950 . S
C539 C538 1.524 . S
C539 C540 1.415 . S
C540 H516 0.950 . S
C540 C535 1.363 . S
C540 C539 1.415 . S
C541 H517 0.951 . S
C541 C542 1.366 . S
C541 C543 1.388 . S
C542 C541 1.366 . S
C542 C546 1.385 . S
C543 H518 0.951 . S
C543 C541 1.388 . S
C543 C544 1.366 . S
C544 C543 1.366 . S
C544 C545 1.414 . S
C544 C547 1.499 . S
C545 H519 0.950 . S
C545 C544 1.414 . S
C545 C546 1.374 . S
C546 H520 0.950 . S
C546 C542 1.385 . S
C546 C545 1.374 . S
C547 C544 1.499 . S
C547 C548 1.373 . S
C547 C549 1.389 1_556 S
C548 H521 0.950 . S
C548 C534 1.377 . S
C548 C547 1.373 . S
C549 C533 1.377 . S
C549 C547 1.389 1_554 S
C549 C550 1.524 . S
C550 C549 1.524 . S
C550 C551 1.397 . S
C550 C555 1.363 . S
C551 H522 0.950 1_554 S
C551 C550 1.397 . S
C551 C552 1.334 . S
C552 H523 0.950 . S
C552 C551 1.334 . S
C552 C553 1.287 . S
C553 C552 1.287 . S
C553 C554 1.524 . S
C553 H556 0.999 . S
C554 H524 0.950 . S
C554 C553 1.524 . S
C554 C555 1.415 . S
C555 H525 0.950 . S
C555 C550 1.363 . S
C555 C554 1.415 . S
H556 C553 0.999 . S
H557 C538 0.913 . S
H558 C576 0.951 . S
H559 C578 0.951 . S
H560 C580 0.950 . S
H561 C581 0.950 . S
H562 C583 0.950 1_455 S
H563 C586 0.950 . S
H564 C587 0.950 . S
H565 C589 0.950 . S
H566 C590 0.950 . S
H567 C591 0.951 . S
H568 C593 0.976 . S
H569 C595 0.950 . S
H570 C596 0.950 . S
H571 C598 0.950 . S
H572 C601 0.950 . S
H573 C602 0.950 . S
H574 C604 0.950 1_554 S
H575 C605 0.950 1_554 S
C576 H558 0.951 . S
C576 C577 1.366 . S
C576 C578 1.388 1_554 S
C577 C576 1.366 . S
C577 C581 1.385 . S
C578 H559 0.951 . S
C578 C576 1.388 1_556 S
C578 C579 1.366 1_556 S
C579 C578 1.366 1_554 S
C579 C580 1.414 . S
C579 C582 1.499 1_554 S
C580 H560 0.950 . S
C580 C579 1.414 . S
C580 C581 1.374 . S
C581 H561 0.950 . S
C581 C577 1.385 . S
C581 C580 1.374 . S
C582 C579 1.499 1_556 S
C582 C583 1.373 . S
C582 C584 1.389 . S
C583 H562 0.950 1_655 S
C583 C582 1.373 . S
C583 C599 1.386 . S
C584 C582 1.389 . S
C584 C585 1.524 . S
C584 C598 1.377 . S
C585 C584 1.524 . S
C585 C586 1.397 1_556 S
C585 C590 1.363 . S
C586 H563 0.950 . S
C586 C585 1.397 1_554 S
C586 C587 1.334 . S
C587 H564 0.950 . S
C587 C586 1.334 . S
C587 C588 1.287 1_554 S
C588 C587 1.287 1_556 S
C588 C589 1.524 . S
C588 H607 0.913 1_556 S
C589 H565 0.950 . S
C589 C588 1.524 . S
C589 C590 1.415 . S
C590 H566 0.950 . S
C590 C585 1.363 . S
C590 C589 1.415 . S
C591 H567 0.951 . S
C591 C592 1.366 1_455 S
C591 C593 1.399 . S
C592 C591 1.366 1_655 S
C592 C596 1.385 . S
C593 H568 0.976 . S
C593 C591 1.399 . S
C593 C594 1.333 1_455 S
C594 C593 1.333 1_655 S
C594 C595 1.414 . S
C594 C597 1.499 . S
C595 H569 0.950 . S
C595 C594 1.414 . S
C595 C596 1.374 . S
C596 H570 0.950 . S
C596 C592 1.385 . S
C596 C595 1.374 . S
C597 C594 1.499 . S
C597 C598 1.373 . S
C597 C599 1.420 . S
C598 H571 0.950 . S
C598 C584 1.377 . S
C598 C597 1.373 . S
C599 C583 1.386 . S
C599 C597 1.420 . S
C599 C600 1.483 1_655 S
C600 C599 1.483 1_455 S
C600 C601 1.397 . S
C600 C605 1.363 . S
C601 H572 0.950 . S
C601 C600 1.397 . S
C601 C602 1.334 . S
C602 H573 0.950 . S
C602 C601 1.334 . S
C602 C603 1.287 . S
C603 C602 1.287 . S
C603 C604 1.524 . S
C603 H606 0.999 . S
C604 H574 0.950 1_556 S
C604 C603 1.524 . S
C604 C605 1.415 . S
C605 H575 0.950 1_556 S
C605 C600 1.363 . S
C605 C604 1.415 . S
H606 C603 0.999 . S
H607 C588 0.913 1_554 S
H608 C626 0.951 . S
H609 C628 0.951 . S
H610 C630 0.950 . S
H611 C631 0.950 . S
H612 C633 0.950 . S
H613 C636 0.935 1_455 S
H614 C637 0.950 . S
H615 C639 0.950 . S
H616 C640 0.950 . S
H617 C641 0.951 . S
H618 C643 0.951 . S
H619 C645 0.950 . S
H620 C646 0.950 . S
H621 C648 0.950 1_655 S
H622 C651 0.950 . S
H623 C652 0.950 . S
H624 C654 0.950 . S
H625 C655 0.950 . S
C626 H608 0.951 . S
C626 C627 1.366 . S
C626 C628 1.388 . S
C627 C626 1.366 . S
C627 C631 1.385 . S
C628 H609 0.951 . S
C628 C626 1.388 . S
C628 C629 1.366 . S
C629 C628 1.366 . S
C629 C630 1.414 . S
C629 C632 1.499 . S
C630 H610 0.950 . S
C630 C629 1.414 . S
C630 C631 1.374 . S
C631 H611 0.950 . S
C631 C627 1.385 . S
C631 C630 1.374 . S
C632 C629 1.499 . S
C632 C633 1.373 . S
C632 C634 1.389 . S
C633 H612 0.950 . S
C633 C632 1.373 . S
C633 C649 1.377 . S
C634 C632 1.389 . S
C634 C635 1.524 1_455 S
C634 C648 1.377 . S
C635 C634 1.524 1_655 S
C635 C636 1.400 . S
C635 C640 1.363 . S
C636 H613 0.935 1_655 S
C636 C635 1.400 . S
C636 C637 1.346 . S
C637 H614 0.950 . S
C637 C636 1.346 . S
C637 C638 1.287 . S
C638 C637 1.287 . S
C638 C639 1.524 . S
C638 H657 0.913 . S
C639 H615 0.950 . S
C639 C638 1.524 . S
C639 C640 1.415 . S
C640 H616 0.950 . S
C640 C635 1.363 . S
C640 C639 1.415 . S
C641 H617 0.951 . S
C641 C642 1.366 . S
C641 C643 1.388 . S
C642 C641 1.366 . S
C642 C646 1.385 1_455 S
C643 H618 0.951 . S
C643 C641 1.388 . S
C643 C644 1.366 . S
C644 C643 1.366 . S
C644 C645 1.414 1_455 S
C644 C647 1.499 . S
C645 H619 0.950 . S
C645 C644 1.414 1_655 S
C645 C646 1.374 . S
C646 H620 0.950 . S
C646 C642 1.385 1_655 S
C646 C645 1.374 . S
C647 C644 1.499 . S
C647 C648 1.373 . S
C647 C649 1.389 . S
C648 H621 0.950 1_455 S
C648 C634 1.377 . S
C648 C647 1.373 . S
C649 C633 1.377 . S
C649 C647 1.389 . S
C649 C650 1.524 . S
C650 C649 1.524 . S
C650 C651 1.397 . S
C650 C655 1.363 . S
C651 H622 0.950 . S
C651 C650 1.397 . S
C651 C652 1.334 . S
C652 H623 0.950 . S
C652 C651 1.334 . S
C652 C653 1.287 . S
C653 C652 1.287 . S
C653 C654 1.524 . S
C653 H656 0.999 . S
C654 H624 0.950 . S
C654 C653 1.524 . S
C654 C655 1.415 . S
C655 H625 0.950 . S
C655 C650 1.363 . S
C655 C654 1.415 . S
H656 C653 0.999 . S
H657 C638 0.913 . S
H658 C676 0.951 . S
H659 C678 0.951 . S
H660 C680 0.950 . S
H661 C681 0.950 . S
H662 C683 0.950 1_565 S
H663 C686 0.950 . S
H664 C687 0.950 . S
H665 C689 0.950 . S
H666 C690 0.950 . S
H667 C691 0.963 . S
H668 C693 0.951 . S
H669 C695 0.950 . S
H670 C696 0.950 . S
H671 C698 0.950 . S
H672 C701 0.950 . S
H673 C702 0.950 . S
H674 C704 0.950 . S
H675 C705 0.950 . S
C676 H658 0.951 . S
C676 C677 1.366 . S
C676 C678 1.388 . S
C677 C676 1.366 . S
C677 C681 1.385 . S
C678 H659 0.951 . S
C678 C676 1.388 . S
C678 C679 1.366 . S
C679 C678 1.366 . S
C679 C680 1.414 . S
C679 C682 1.499 . S
C680 H660 0.950 . S
C680 C679 1.414 . S
C680 C681 1.374 . S
C681 H661 0.950 . S
C681 C677 1.385 . S
C681 C680 1.374 . S
C682 C679 1.499 . S
C682 C683 1.373 . S
C682 C684 1.389 . S
C683 H662 0.950 1_545 S
C683 C682 1.373 . S
C683 C699 1.374 1_545 S
C684 C682 1.389 . S
C684 C685 1.524 . S
C684 C698 1.377 . S
C685 C684 1.524 . S
C685 C686 1.397 . S
C685 C690 1.363 . S
C686 H663 0.950 . S
C686 C685 1.397 . S
C686 C687 1.334 . S
C687 H664 0.950 . S
C687 C686 1.334 . S
C687 C688 1.287 . S
C688 C687 1.287 . S
C688 C689 1.524 . S
C688 H707 0.913 . S
C689 H665 0.950 . S
C689 C688 1.524 . S
C689 C690 1.415 . S
C690 H666 0.950 . S
C690 C685 1.363 . S
C690 C689 1.415 . S
C691 H667 0.963 . S
C691 C692 1.366 . S
C691 C693 1.388 . S
C692 C691 1.366 . S
C692 C696 1.385 . S
C693 H668 0.951 . S
C693 C691 1.388 . S
C693 C694 1.366 . S
C694 C693 1.366 . S
C694 C695 1.414 . S
C694 C697 1.499 . S
C695 H669 0.950 . S
C695 C694 1.414 . S
C695 C696 1.374 . S
C696 H670 0.950 . S
C696 C692 1.385 . S
C696 C695 1.374 . S
C697 C694 1.499 . S
C697 C698 1.373 . S
C697 C699 1.372 1_545 S
C698 H671 0.950 . S
C698 C684 1.377 . S
C698 C697 1.373 . S
C699 C683 1.374 1_565 S
C699 C697 1.372 1_565 S
C699 C700 1.546 . S
C700 C699 1.546 . S
C700 C701 1.397 . S
C700 C705 1.363 . S
C701 H672 0.950 . S
C701 C700 1.397 . S
C701 C702 1.334 . S
C702 H673 0.950 . S
C702 C701 1.334 . S
C702 C703 1.287 . S
C703 C702 1.287 . S
C703 C704 1.524 . S
C703 H706 0.999 . S
C704 H674 0.950 . S
C704 C703 1.524 . S
C704 C705 1.415 . S
C705 H675 0.950 . S
C705 C700 1.363 . S
C705 C704 1.415 . S
H706 C703 0.999 . S
H707 C688 0.913 . S
H708 C726 0.951 . S
H709 C728 0.951 . S
H710 C730 0.950 . S
H711 C731 0.950 . S
H712 C733 0.950 . S
H713 C736 0.950 . S
H714 C737 0.950 . S
H715 C739 0.950 . S
H716 C740 0.950 . S
H717 C741 0.951 . S
H718 C743 0.951 . S
H719 C745 0.950 . S
H720 C746 0.950 . S
H721 C748 0.950 . S
H722 C751 0.950 . S
H723 C752 0.950 . S
H724 C754 0.950 . S
H725 C755 0.950 . S
C726 H708 0.951 . S
C726 C727 1.366 . S
C726 C728 1.388 . S
C727 C726 1.366 . S
C727 C731 1.385 . S
C728 H709 0.951 . S
C728 C726 1.388 . S
C728 C729 1.366 . S
C729 C728 1.366 . S
C729 C730 1.414 . S
C729 C732 1.499 . S
C730 H710 0.950 . S
C730 C729 1.414 . S
C730 C731 1.374 . S
C731 H711 0.950 . S
C731 C727 1.385 . S
C731 C730 1.374 . S
C732 C729 1.499 . S
C732 C733 1.373 . S
C732 C734 1.389 . S
C733 H712 0.950 . S
C733 C732 1.373 . S
C733 C749 1.377 . S
C734 C732 1.389 . S
C734 C735 1.524 . S
C734 C748 1.377 . S
C735 C734 1.524 . S
C735 C736 1.397 . S
C735 C740 1.363 . S
C736 H713 0.950 . S
C736 C735 1.397 . S
C736 C737 1.334 . S
C737 H714 0.950 . S
C737 C736 1.334 . S
C737 C738 1.287 . S
C738 C737 1.287 . S
C738 C739 1.524 . S
C738 H757 0.913 . S
C739 H715 0.950 . S
C739 C738 1.524 . S
C739 C740 1.415 . S
C740 H716 0.950 . S
C740 C735 1.363 . S
C740 C739 1.415 . S
C741 H717 0.951 . S
C741 C742 1.366 . S
C741 C743 1.388 . S
C742 C741 1.366 . S
C742 C746 1.385 . S
C743 H718 0.951 . S
C743 C741 1.388 . S
C743 C744 1.366 . S
C744 C743 1.366 . S
C744 C745 1.414 . S
C744 C747 1.499 . S
C745 H719 0.950 . S
C745 C744 1.414 . S
C745 C746 1.374 . S
C746 H720 0.950 . S
C746 C742 1.385 . S
C746 C745 1.374 . S
C747 C744 1.499 . S
C747 C748 1.373 . S
C747 C749 1.389 . S
C748 H721 0.950 . S
C748 C734 1.377 . S
C748 C747 1.373 . S
C749 C733 1.377 . S
C749 C747 1.389 . S
C749 C750 1.524 . S
C750 C749 1.524 . S
C750 C751 1.397 . S
C750 C755 1.363 . S
C751 H722 0.950 . S
C751 C750 1.397 . S
C751 C752 1.334 . S
C752 H723 0.950 . S
C752 C751 1.334 . S
C752 C753 1.287 . S
C753 C752 1.287 . S
C753 C754 1.524 . S
C753 H756 0.999 . S
C754 H724 0.950 . S
C754 C753 1.524 . S
C754 C755 1.415 . S
C755 H725 0.950 . S
C755 C750 1.363 . S
C755 C754 1.415 . S
H756 C753 0.999 . S
H757 C738 0.913 . S
H758 C776 0.951 . S
H759 C778 0.951 . S
H760 C780 0.950 . S
H761 C781 0.950 . S
H762 C783 0.950 . S
H763 C786 0.950 . S
H764 C787 0.950 . S
H765 C789 0.950 . S
H766 C790 0.950 . S
H767 C791 0.951 . S
H768 C793 0.951 . S
H769 C795 0.950 . S
H770 C796 0.950 . S
H771 C798 0.950 . S
H772 C801 0.950 . S
H773 C802 0.950 . S
H774 C804 0.950 . S
H775 C805 0.950 . S
C776 H758 0.951 . S
C776 C777 1.366 . S
C776 C778 1.388 . S
C777 C776 1.366 . S
C777 C781 1.385 . S
C778 H759 0.951 . S
C778 C776 1.388 . S
C778 C779 1.366 . S
C779 C778 1.366 . S
C779 C780 1.414 . S
C779 C782 1.499 . S
C780 H760 0.950 . S
C780 C779 1.414 . S
C780 C781 1.374 . S
C781 H761 0.950 . S
C781 C777 1.385 . S
C781 C780 1.374 . S
C782 C779 1.499 . S
C782 C783 1.373 . S
C782 C784 1.389 . S
C783 H762 0.950 . S
C783 C782 1.373 . S
C783 C799 1.377 . S
C784 C782 1.389 . S
C784 C785 1.524 . S
C784 C798 1.377 . S
C785 C784 1.524 . S
C785 C786 1.397 . S
C785 C790 1.363 . S
C786 H763 0.950 . S
C786 C785 1.397 . S
C786 C787 1.334 . S
C787 H764 0.950 . S
C787 C786 1.334 . S
C787 C788 1.287 . S
C788 C787 1.287 . S
C788 C789 1.524 . S
C788 H807 0.913 . S
C789 H765 0.950 . S
C789 C788 1.524 . S
C789 C790 1.415 . S
C790 H766 0.950 . S
C790 C785 1.363 . S
C790 C789 1.415 . S
C791 H767 0.951 . S
C791 C792 1.366 . S
C791 C793 1.388 . S
C792 C791 1.366 . S
C792 C796 1.385 . S
C793 H768 0.951 . S
C793 C791 1.388 . S
C793 C794 1.366 . S
C794 C793 1.366 . S
C794 C795 1.414 . S
C794 C797 1.499 . S
C795 H769 0.950 . S
C795 C794 1.414 . S
C795 C796 1.374 . S
C796 H770 0.950 . S
C796 C792 1.385 . S
C796 C795 1.374 . S
C797 C794 1.499 . S
C797 C798 1.373 . S
C797 C799 1.389 . S
C798 H771 0.950 . S
C798 C784 1.377 . S
C798 C797 1.373 . S
C799 C783 1.377 . S
C799 C797 1.389 . S
C799 C800 1.524 . S
C800 C799 1.524 . S
C800 C801 1.397 . S
C800 C805 1.363 . S
C801 H772 0.950 . S
C801 C800 1.397 . S
C801 C802 1.334 . S
C802 H773 0.950 . S
C802 C801 1.334 . S
C802 C803 1.287 . S
C803 C802 1.287 . S
C803 C804 1.524 . S
C803 H806 0.999 . S
C804 H774 0.950 . S
C804 C803 1.524 . S
C804 C805 1.415 . S
C805 H775 0.950 . S
C805 C800 1.363 . S
C805 C804 1.415 . S
H806 C803 0.999 . S
H807 C788 0.913 . S
H808 C826 0.951 . S
H809 C828 0.951 . S
H810 C830 0.950 . S
H811 C831 0.950 . S
H812 C833 0.950 . S
H813 C836 0.950 . S
H814 C837 0.950 . S
H815 C839 0.950 . S
H816 C840 0.950 . S
H817 C841 0.951 . S
H818 C843 0.951 . S
H819 C845 0.950 . S
H820 C846 0.950 . S
H821 C848 0.950 . S
H822 C851 0.987 . S
H823 C852 0.950 . S
H824 C854 0.950 . S
H825 C855 0.950 . S
C826 H808 0.951 . S
C826 C827 1.366 . S
C826 C828 1.388 . S
C827 C826 1.366 . S
C827 C831 1.385 . S
C828 H809 0.951 . S
C828 C826 1.388 . S
C828 C829 1.366 . S
C829 C828 1.366 . S
C829 C830 1.414 . S
C829 C832 1.499 1_554 S
C830 H810 0.950 . S
C830 C829 1.414 . S
C830 C831 1.374 . S
C831 H811 0.950 . S
C831 C827 1.385 . S
C831 C830 1.374 . S
C832 C829 1.499 1_556 S
C832 C833 1.373 1_556 S
C832 C834 1.389 . S
C833 H812 0.950 . S
C833 C832 1.373 1_554 S
C833 C849 1.377 1_554 S
C834 C832 1.389 . S
C834 C835 1.524 . S
C834 C848 1.377 . S
C835 C834 1.524 . S
C835 C836 1.397 . S
C835 C840 1.363 . S
C836 H813 0.950 . S
C836 C835 1.397 . S
C836 C837 1.334 . S
C837 H814 0.950 . S
C837 C836 1.334 . S
C837 C838 1.287 . S
C838 C837 1.287 . S
C838 C839 1.524 . S
C838 H857 0.913 . S
C839 H815 0.950 . S
C839 C838 1.524 . S
C839 C840 1.415 . S
C840 H816 0.950 . S
C840 C835 1.363 . S
C840 C839 1.415 . S
C841 H817 0.951 . S
C841 C842 1.366 . S
C841 C843 1.388 . S
C842 C841 1.366 . S
C842 C846 1.385 1_455 S
C843 H818 0.951 . S
C843 C841 1.388 . S
C843 C844 1.366 1_455 S
C844 C843 1.366 1_655 S
C844 C845 1.414 . S
C844 C847 1.499 . S
C845 H819 0.950 . S
C845 C844 1.414 . S
C845 C846 1.374 . S
C846 H820 0.950 . S
C846 C842 1.385 1_655 S
C846 C845 1.374 . S
C847 C844 1.499 . S
C847 C848 1.373 . S
C847 C849 1.389 . S
C848 H821 0.950 . S
C848 C834 1.377 . S
C848 C847 1.373 . S
C849 C833 1.377 1_556 S
C849 C847 1.389 . S
C849 C850 1.524 1_656 S
C850 C849 1.524 1_454 S
C850 C851 1.381 1_455 S
C850 C855 1.363 . S
C851 H822 0.987 . S
C851 C850 1.381 1_655 S
C851 C852 1.315 1_655 S
C852 H823 0.950 . S
C852 C851 1.315 1_455 S
C852 C853 1.287 . S
C853 C852 1.287 . S
C853 C854 1.524 . S
C853 H856 0.999 . S
C854 H824 0.950 . S
C854 C853 1.524 . S
C854 C855 1.415 . S
C855 H825 0.950 . S
C855 C850 1.363 . S
C855 C854 1.415 . S
H856 C853 0.999 . S
H857 C838 0.913 . S
H858 C876 0.951 . S
H859 C878 0.951 . S
H860 C880 0.950 . S
H861 C881 0.950 . S
H862 C883 0.950 . S
H863 C886 0.950 1_554 S
H864 C887 0.950 . S
H865 C889 0.950 . S
H866 C890 0.950 . S
H867 C891 0.951 1_565 S
H868 C893 0.951 1_565 S
H869 C895 0.950 . S
H870 C896 0.950 . S
H871 C898 0.950 . S
H872 C901 0.950 . S
H873 C902 0.950 . S
H874 C904 0.950 1_554 S
H875 C905 0.950 1_554 S
C876 H858 0.951 . S
C876 C877 1.366 1_546 S
C876 C878 1.388 . S
C877 C876 1.366 1_564 S
C877 C881 1.385 . S
C878 H859 0.951 . S
C878 C876 1.388 . S
C878 C879 1.370 . S
C879 C878 1.370 . S
C879 C880 1.408 1_546 S
C879 C882 1.500 . S
C880 H860 0.950 . S
C880 C879 1.408 1_564 S
C880 C881 1.374 . S
C881 H861 0.950 . S
C881 C877 1.385 . S
C881 C880 1.374 . S
C882 C879 1.500 . S
C882 C883 1.373 1_545 S
C882 C884 1.389 . S
C883 H862 0.950 . S
C883 C882 1.373 1_565 S
C883 C899 1.377 . S
C884 C882 1.389 . S
C884 C885 1.524 . S
C884 C898 1.377 . S
C885 C884 1.524 . S
C885 C886 1.397 . S
C885 C890 1.363 . S
C886 H863 0.950 1_556 S
C886 C885 1.397 . S
C886 C887 1.334 1_556 S
C887 H864 0.950 . S
C887 C886 1.334 1_554 S
C887 C888 1.287 1_554 S
C888 C887 1.287 1_556 S
C888 C889 1.524 . S
C888 H907 0.913 . S
C889 H865 0.950 . S
C889 C888 1.524 . S
C889 C890 1.415 . S
C890 H866 0.950 . S
C890 C885 1.363 . S
C890 C889 1.415 . S
C891 H867 0.951 1_545 S
C891 C892 1.366 . S
C891 C893 1.388 . S
C892 C891 1.366 . S
C892 C896 1.385 . S
C893 H868 0.951 1_545 S
C893 C891 1.388 . S
C893 C894 1.366 . S
C894 C893 1.366 . S
C894 C895 1.414 . S
C894 C897 1.499 . S
C895 H869 0.950 . S
C895 C894 1.414 . S
C895 C896 1.374 . S
C896 H870 0.950 . S
C896 C892 1.385 . S
C896 C895 1.374 . S
C897 C894 1.499 . S
C897 C898 1.373 . S
C897 C899 1.389 1_545 S
C898 H871 0.950 . S
C898 C884 1.377 . S
C898 C897 1.373 . S
C899 C883 1.377 . S
C899 C897 1.389 1_565 S
C899 C900 1.524 . S
C900 C899 1.524 . S
C900 C901 1.397 . S
C900 C905 1.363 . S
C901 H872 0.950 . S
C901 C900 1.397 . S
C901 C902 1.334 . S
C902 H873 0.950 . S
C902 C901 1.334 . S
C902 C903 1.287 . S
C903 C902 1.287 . S
C903 C904 1.524 . S
C903 H906 0.999 . S
C904 H874 0.950 1_556 S
C904 C903 1.524 . S
C904 C905 1.415 . S
C905 H875 0.950 1_556 S
C905 C900 1.363 . S
C905 C904 1.415 . S
H906 C903 0.999 . S
H907 C888 0.913 . S
H908 C926 0.951 1_556 S
H909 C928 0.951 . S
H910 C930 0.950 . S
H911 C931 0.950 . S
H912 C933 0.950 . S
H913 C936 0.950 1_554 S
H914 C937 0.950 1_554 S
H915 C939 0.950 . S
H916 C940 0.950 . S
H917 C941 0.951 . S
H918 C943 0.951 . S
H919 C945 0.950 . S
H920 C946 0.950 . S
H921 C948 0.950 . S
H922 C951 0.950 . S
H923 C952 0.950 . S
H924 C954 0.950 . S
H925 C955 0.950 . S
C926 H908 0.951 1_554 S
C926 C927 1.366 . S
C926 C928 1.388 1_554 S
C927 C926 1.366 . S
C927 C931 1.385 . S
C928 H909 0.951 . S
C928 C926 1.388 1_556 S
C928 C929 1.366 1_556 S
C929 C928 1.366 1_554 S
C929 C930 1.414 . S
C929 C932 1.499 1_554 S
C930 H910 0.950 . S
C930 C929 1.414 . S
C930 C931 1.374 . S
C931 H911 0.950 . S
C931 C927 1.385 . S
C931 C930 1.374 . S
C932 C929 1.499 1_556 S
C932 C933 1.373 1_556 S
C932 C934 1.389 . S
C933 H912 0.950 . S
C933 C932 1.373 1_554 S
C933 C949 1.377 1_554 S
C934 C932 1.389 . S
C934 C935 1.524 . S
C934 C948 1.377 . S
C935 C934 1.524 . S
C935 C936 1.397 . S
C935 C940 1.363 . S
C936 H913 0.950 1_556 S
C936 C935 1.397 . S
C936 C937 1.334 . S
C937 H914 0.950 1_556 S
C937 C936 1.334 . S
C937 C938 1.287 . S
C938 C937 1.287 . S
C938 C939 1.524 . S
C938 H957 0.913 . S
C939 H915 0.950 . S
C939 C938 1.524 . S
C939 C940 1.415 . S
C940 H916 0.950 . S
C940 C935 1.363 . S
C940 C939 1.415 . S
C941 H917 0.951 . S
C941 C942 1.366 . S
C941 C943 1.388 . S
C942 C941 1.366 . S
C942 C946 1.385 . S
C943 H918 0.951 . S
C943 C941 1.388 . S
C943 C944 1.366 . S
C944 C943 1.366 . S
C944 C945 1.414 . S
C944 C947 1.499 . S
C945 H919 0.950 . S
C945 C944 1.414 . S
C945 C946 1.374 . S
C946 H920 0.950 . S
C946 C942 1.385 . S
C946 C945 1.374 . S
C947 C944 1.499 . S
C947 C948 1.373 . S
C947 C949 1.389 . S
C948 H921 0.950 . S
C948 C934 1.377 . S
C948 C947 1.373 . S
C949 C933 1.377 1_556 S
C949 C947 1.389 . S
C949 C950 1.524 . S
C950 C949 1.524 . S
C950 C951 1.397 . S
C950 C955 1.363 1_556 S
C951 H922 0.950 . S
C951 C950 1.397 . S
C951 C952 1.334 . S
C952 H923 0.950 . S
C952 C951 1.334 . S
C952 C953 1.287 . S
C953 C952 1.287 . S
C953 C954 1.524 1_556 S
C953 H956 0.999 . S
C954 H924 0.950 . S
C954 C953 1.524 1_554 S
C954 C955 1.415 . S
C955 H925 0.950 . S
C955 C950 1.363 1_554 S
C955 C954 1.415 . S
H956 C953 0.999 . S
H957 C938 0.913 . S
H958 C976 0.951 . S
H959 C978 0.951 1_556 S
H960 C980 0.950 . S
H961 C981 0.950 . S
H962 C983 0.950 . S
H963 C986 0.950 . S
H964 C987 0.950 . S
H965 C989 0.950 . S
H966 C990 0.950 . S
H967 C991 0.951 . S
H968 C993 0.951 . S
H969 C995 0.950 . S
H970 C996 0.950 . S
H971 C998 0.950 . S
H972 C1001 0.950 . S
H973 C1002 0.950 . S
H974 C1004 0.950 . S
H975 C1005 0.950 . S
C976 H958 0.951 . S
C976 C977 1.366 . S
C976 C978 1.388 . S
C977 C976 1.366 . S
C977 C981 1.385 . S
C978 H959 0.951 1_554 S
C978 C976 1.388 . S
C978 C979 1.366 . S
C979 C978 1.366 . S
C979 C980 1.414 . S
C979 C982 1.499 . S
C980 H960 0.950 . S
C980 C979 1.414 . S
C980 C981 1.374 . S
C981 H961 0.950 . S
C981 C977 1.385 . S
C981 C980 1.374 . S
C982 C979 1.499 . S
C982 C983 1.373 . S
C982 C984 1.389 1_554 S
C983 H962 0.950 . S
C983 C982 1.373 . S
C983 C999 1.377 1_554 S
C984 C982 1.389 1_556 S
C984 C985 1.524 . S
C984 C998 1.377 . S
C985 C984 1.524 . S
C985 C986 1.397 1_556 S
C985 C990 1.363 . S
C986 H963 0.950 . S
C986 C985 1.397 1_554 S
C986 C987 1.334 . S
C987 H964 0.950 . S
C987 C986 1.334 . S
C987 C988 1.287 1_554 S
C988 C987 1.287 1_556 S
C988 C989 1.524 . S
C988 H1007 0.913 . S
C989 H965 0.950 . S
C989 C988 1.524 . S
C989 C990 1.415 . S
C990 H966 0.950 . S
C990 C985 1.363 . S
C990 C989 1.415 . S
C991 H967 0.951 . S
C991 C992 1.366 . S
C991 C993 1.388 . S
C992 C991 1.366 . S
C992 C996 1.385 . S
C993 H968 0.951 . S
C993 C991 1.388 . S
C993 C994 1.366 . S
C994 C993 1.366 . S
C994 C995 1.414 . S
C994 C997 1.499 . S
C995 H969 0.950 . S
C995 C994 1.414 . S
C995 C996 1.374 . S
C996 H970 0.950 . S
C996 C992 1.385 . S
C996 C995 1.374 . S
C997 C994 1.499 . S
C997 C998 1.373 . S
C997 C999 1.389 . S
C998 H971 0.950 . S
C998 C984 1.377 . S
C998 C997 1.373 . S
C999 C983 1.377 1_556 S
C999 C997 1.389 . S
C999 C1000 1.524 1_556 S
C1000 C999 1.524 1_554 S
C1000 C1001 1.397 1_554 S
C1000 C1005 1.363 . S
C1001 H972 0.950 . S
C1001 C1000 1.397 1_556 S
C1001 C1002 1.334 . S
C1002 H973 0.950 . S
C1002 C1001 1.334 . S
C1002 C1003 1.287 1_556 S
C1003 C1002 1.287 1_554 S
C1003 C1004 1.524 . S
C1003 H1006 0.999 . S
C1004 H974 0.950 . S
C1004 C1003 1.524 . S
C1004 C1005 1.415 . S
C1005 H975 0.950 . S
C1005 C1000 1.363 . S
C1005 C1004 1.415 . S
H1006 C1003 0.999 . S
H1007 C988 0.913 . S
H1008 C1026 0.951 . S
H1009 C1028 0.951 . S
H1010 C1030 0.950 . S
H1011 C1031 0.950 . S
H1012 C1033 0.950 . S
H1013 C1036 0.950 . S
H1014 C1037 0.950 . S
H1015 C1039 0.950 . S
H1016 C1040 0.950 . S
H1017 C1041 0.959 1_556 S
H1018 C1043 0.951 . S
H1019 C1045 0.950 . S
H1020 C1046 0.950 . S
H1021 C1048 0.950 . S
H1022 C1051 0.950 . S
H1023 C1052 0.950 . S
H1024 C1054 0.950 . S
H1025 C1055 0.950 . S
C1026 H1008 0.951 . S
C1026 C1027 1.366 . S
C1026 C1028 1.388 . S
C1027 C1026 1.366 . S
C1027 C1031 1.385 . S
C1028 H1009 0.951 . S
C1028 C1026 1.388 . S
C1028 C1029 1.366 . S
C1029 C1028 1.366 . S
C1029 C1030 1.414 . S
C1029 C1032 1.499 . S
C1030 H1010 0.950 . S
C1030 C1029 1.414 . S
C1030 C1031 1.374 . S
C1031 H1011 0.950 . S
C1031 C1027 1.385 . S
C1031 C1030 1.374 . S
C1032 C1029 1.499 . S
C1032 C1033 1.373 . S
C1032 C1034 1.389 . S
C1033 H1012 0.950 . S
C1033 C1032 1.373 . S
C1033 C1049 1.377 . S
C1034 C1032 1.389 . S
C1034 C1035 1.524 . S
C1034 C1048 1.377 . S
C1035 C1034 1.524 . S
C1035 C1036 1.397 . S
C1035 C1040 1.363 . S
C1036 H1013 0.950 . S
C1036 C1035 1.397 . S
C1036 C1037 1.334 . S
C1037 H1014 0.950 . S
C1037 C1036 1.334 . S
C1037 C1038 1.287 . S
C1038 C1037 1.287 . S
C1038 C1039 1.524 . S
C1038 H1057 0.913 . S
C1039 H1015 0.950 . S
C1039 C1038 1.524 . S
C1039 C1040 1.415 . S
C1040 H1016 0.950 . S
C1040 C1035 1.363 . S
C1040 C1039 1.415 . S
C1041 H1017 0.959 1_554 S
C1041 C1042 1.366 1_554 S
C1041 C1043 1.388 . S
C1042 C1041 1.366 1_556 S
C1042 C1046 1.385 1_556 S
C1043 H1018 0.951 . S
C1043 C1041 1.388 . S
C1043 C1044 1.366 . S
C1044 C1043 1.366 . S
C1044 C1045 1.414 . S
C1044 C1047 1.499 . S
C1045 H1019 0.950 . S
C1045 C1044 1.414 . S
C1045 C1046 1.374 . S
C1046 H1020 0.950 . S
C1046 C1042 1.385 1_554 S
C1046 C1045 1.374 . S
C1047 C1044 1.499 . S
C1047 C1048 1.373 . S
C1047 C1049 1.389 . S
C1048 H1021 0.950 . S
C1048 C1034 1.377 . S
C1048 C1047 1.373 . S
C1049 C1033 1.377 . S
C1049 C1047 1.389 . S
C1049 C1050 1.524 . S
C1050 C1049 1.524 . S
C1050 C1051 1.397 . S
C1050 C1055 1.363 1_455 S
C1051 H1022 0.950 . S
C1051 C1050 1.397 . S
C1051 C1052 1.334 1_455 S
C1052 H1023 0.950 . S
C1052 C1051 1.334 1_655 S
C1052 C1053 1.287 . S
C1053 C1052 1.287 . S
C1053 C1054 1.524 . S
C1053 H1056 0.999 . S
C1054 H1024 0.950 . S
C1054 C1053 1.524 . S
C1054 C1055 1.415 . S
C1055 H1025 0.950 . S
C1055 C1050 1.363 1_655 S
C1055 C1054 1.415 . S
H1056 C1053 0.999 . S
H1057 C1038 0.913 . S
H1058 C1076 0.951 . S
H1059 C1078 0.951 . S
H1060 C1080 0.950 . S
H1061 C1081 0.950 . S
H1062 C1083 0.950 . S
H1063 C1086 0.950 . S
H1064 C1087 0.950 . S
H1065 C1089 0.950 . S
H1066 C1090 0.950 . S
H1067 C1091 0.951 . S
H1068 C1093 0.951 . S
H1069 C1095 0.950 . S
H1070 C1096 0.950 . S
H1071 C1098 0.950 . S
H1072 C1101 0.950 . S
H1073 C1102 0.950 1_556 S
H1074 C1104 0.950 . S
H1075 C1105 0.950 . S
C1076 H1058 0.951 . S
C1076 C1077 1.366 . S
C1076 C1078 1.388 . S
C1077 C1076 1.366 . S
C1077 C1081 1.385 . S
C1078 H1059 0.951 . S
C1078 C1076 1.388 . S
C1078 C1079 1.366 . S
C1079 C1078 1.366 . S
C1079 C1080 1.414 . S
C1079 C1082 1.499 . S
C1080 H1060 0.950 . S
C1080 C1079 1.414 . S
C1080 C1081 1.374 . S
C1081 H1061 0.950 . S
C1081 C1077 1.385 . S
C1081 C1080 1.374 . S
C1082 C1079 1.499 . S
C1082 C1083 1.373 . S
C1082 C1084 1.389 . S
C1083 H1062 0.950 . S
C1083 C1082 1.373 . S
C1083 C1099 1.377 . S
C1084 C1082 1.389 . S
C1084 C1085 1.524 . S
C1084 C1098 1.377 . S
C1085 C1084 1.524 . S
C1085 C1086 1.397 . S
C1085 C1090 1.363 . S
C1086 H1063 0.950 . S
C1086 C1085 1.397 . S
C1086 C1087 1.334 . S
C1087 H1064 0.950 . S
C1087 C1086 1.334 . S
C1087 C1088 1.287 . S
C1088 C1087 1.287 . S
C1088 C1089 1.524 . S
C1088 H1107 0.913 . S
C1089 H1065 0.950 . S
C1089 C1088 1.524 . S
C1089 C1090 1.415 . S
C1090 H1066 0.950 . S
C1090 C1085 1.363 . S
C1090 C1089 1.415 . S
C1091 H1067 0.951 . S
C1091 C1092 1.366 1_556 S
C1091 C1093 1.388 1_556 S
C1092 C1091 1.366 1_554 S
C1092 C1096 1.385 . S
C1093 H1068 0.951 . S
C1093 C1091 1.388 1_554 S
C1093 C1094 1.366 . S
C1094 C1093 1.366 . S
C1094 C1095 1.414 . S
C1094 C1097 1.499 . S
C1095 H1069 0.950 . S
C1095 C1094 1.414 . S
C1095 C1096 1.374 . S
C1096 H1070 0.950 . S
C1096 C1092 1.385 . S
C1096 C1095 1.374 . S
C1097 C1094 1.499 . S
C1097 C1098 1.373 . S
C1097 C1099 1.389 . S
C1098 H1071 0.950 . S
C1098 C1084 1.377 . S
C1098 C1097 1.373 . S
C1099 C1083 1.377 . S
C1099 C1097 1.389 . S
C1099 C1100 1.524 . S
C1100 C1099 1.524 . S
C1100 C1101 1.397 1_545 S
C1100 C1105 1.363 . S
C1101 H1072 0.950 . S
C1101 C1100 1.397 1_565 S
C1101 C1102 1.334 . S
C1102 H1073 0.950 1_554 S
C1102 C1101 1.334 . S
C1102 C1103 1.287 1_554 S
C1103 C1102 1.287 1_556 S
C1103 C1104 1.524 1_565 S
C1103 H1106 0.999 . S
C1104 H1074 0.950 . S
C1104 C1103 1.524 1_545 S
C1104 C1105 1.415 1_556 S
C1105 H1075 0.950 . S
C1105 C1100 1.363 . S
C1105 C1104 1.415 1_554 S
H1106 C1103 0.999 . S
H1107 C1088 0.913 . S
H1108 C1126 0.951 . S
H1109 C1128 0.951 . S
H1110 C1130 0.950 . S
H1111 C1131 0.950 . S
H1112 C1133 0.950 . S
H1113 C1136 0.950 . S
H1114 C1137 0.950 . S
H1115 C1139 0.950 . S
H1116 C1140 0.950 . S
H1117 C1141 0.951 . S
H1118 C1143 0.951 . S
H1119 C1145 0.950 . S
H1120 C1146 0.950 . S
H1121 C1148 0.950 . S
H1122 C1151 0.950 . S
H1123 C1152 0.950 . S
H1124 C1154 0.950 . S
H1125 C1155 0.950 1_554 S
C1126 H1108 0.951 . S
C1126 C1127 1.366 . S
C1126 C1128 1.388 . S
C1127 C1126 1.366 . S
C1127 C1131 1.385 . S
C1128 H1109 0.951 . S
C1128 C1126 1.388 . S
C1128 C1129 1.366 . S
C1129 C1128 1.366 . S
C1129 C1130 1.414 . S
C1129 C1132 1.499 . S
C1130 H1110 0.950 . S
C1130 C1129 1.414 . S
C1130 C1131 1.374 . S
C1131 H1111 0.950 . S
C1131 C1127 1.385 . S
C1131 C1130 1.374 . S
C1132 C1129 1.499 . S
C1132 C1133 1.373 . S
C1132 C1134 1.389 . S
C1133 H1112 0.950 . S
C1133 C1132 1.373 . S
C1133 C1149 1.377 . S
C1134 C1132 1.389 . S
C1134 C1135 1.524 . S
C1134 C1148 1.377 . S
C1135 C1134 1.524 . S
C1135 C1136 1.397 . S
C1135 C1140 1.363 . S
C1136 H1113 0.950 . S
C1136 C1135 1.397 . S
C1136 C1137 1.334 . S
C1137 H1114 0.950 . S
C1137 C1136 1.334 . S
C1137 C1138 1.287 . S
C1138 C1137 1.287 . S
C1138 C1139 1.524 . S
C1138 H1157 0.913 . S
C1139 H1115 0.950 . S
C1139 C1138 1.524 . S
C1139 C1140 1.415 . S
C1140 H1116 0.950 . S
C1140 C1135 1.363 . S
C1140 C1139 1.415 . S
C1141 H1117 0.951 . S
C1141 C1142 1.366 . S
C1141 C1143 1.388 . S
C1142 C1141 1.366 . S
C1142 C1146 1.385 . S
C1143 H1118 0.951 . S
C1143 C1141 1.388 . S
C1143 C1144 1.366 1_556 S
C1144 C1143 1.366 1_554 S
C1144 C1145 1.414 . S
C1144 C1147 1.499 . S
C1145 H1119 0.950 . S
C1145 C1144 1.414 . S
C1145 C1146 1.374 1_554 S
C1146 H1120 0.950 . S
C1146 C1142 1.385 . S
C1146 C1145 1.374 1_556 S
C1147 C1144 1.499 . S
C1147 C1148 1.373 . S
C1147 C1149 1.389 . S
C1148 H1121 0.950 . S
C1148 C1134 1.377 . S
C1148 C1147 1.373 . S
C1149 C1133 1.377 . S
C1149 C1147 1.389 . S
C1149 C1150 1.524 1_554 S
C1150 C1149 1.524 1_556 S
C1150 C1151 1.397 . S
C1150 C1155 1.363 . S
C1151 H1122 0.950 . S
C1151 C1150 1.397 . S
C1151 C1152 1.334 . S
C1152 H1123 0.950 . S
C1152 C1151 1.334 . S
C1152 C1153 1.287 . S
C1153 C1152 1.287 . S
C1153 C1154 1.524 . S
C1153 H1156 0.999 . S
C1154 H1124 0.950 . S
C1154 C1153 1.524 . S
C1154 C1155 1.415 . S
C1155 H1125 0.950 1_556 S
C1155 C1150 1.363 . S
C1155 C1154 1.415 . S
H1156 C1153 0.999 . S
H1157 C1138 0.913 . S
H1158 C1176 0.951 . S
H1159 C1178 0.951 . S
H1160 C1180 0.950 . S
H1161 C1181 0.950 . S
H1162 C1183 0.950 . S
H1163 C1186 0.950 . S
H1164 C1187 0.950 . S
H1165 C1189 0.950 . S
H1166 C1190 0.950 . S
H1167 C1191 0.951 . S
H1168 C1193 0.951 . S
H1169 C1195 0.950 . S
H1170 C1196 0.950 . S
H1171 C1198 0.950 . S
H1172 C1201 0.950 1_556 S
H1173 C1202 0.950 . S
H1174 C1204 0.950 . S
H1175 C1205 0.950 . S
C1176 H1158 0.951 . S
C1176 C1177 1.366 . S
C1176 C1178 1.388 . S
C1177 C1176 1.366 . S
C1177 C1181 1.385 . S
C1178 H1159 0.951 . S
C1178 C1176 1.388 . S
C1178 C1179 1.366 . S
C1179 C1178 1.366 . S
C1179 C1180 1.414 . S
C1179 C1182 1.499 . S
C1180 H1160 0.950 . S
C1180 C1179 1.414 . S
C1180 C1181 1.374 . S
C1181 H1161 0.950 . S
C1181 C1177 1.385 . S
C1181 C1180 1.374 . S
C1182 C1179 1.499 . S
C1182 C1183 1.373 . S
C1182 C1184 1.389 . S
C1183 H1162 0.950 . S
C1183 C1182 1.373 . S
C1183 C1199 1.377 . S
C1184 C1182 1.389 . S
C1184 C1185 1.524 . S
C1184 C1198 1.377 . S
C1185 C1184 1.524 . S
C1185 C1186 1.397 . S
C1185 C1190 1.363 . S
C1186 H1163 0.950 . S
C1186 C1185 1.397 . S
C1186 C1187 1.334 . S
C1187 H1164 0.950 . S
C1187 C1186 1.334 . S
C1187 C1188 1.287 . S
C1188 C1187 1.287 . S
C1188 C1189 1.524 . S
C1188 H1207 0.913 . S
C1189 H1165 0.950 . S
C1189 C1188 1.524 . S
C1189 C1190 1.415 . S
C1190 H1166 0.950 . S
C1190 C1185 1.363 . S
C1190 C1189 1.415 . S
C1191 H1167 0.951 . S
C1191 C1192 1.366 . S
C1191 C1193 1.388 1_556 S
C1192 C1191 1.366 . S
C1192 C1196 1.385 . S
C1193 H1168 0.951 . S
C1193 C1191 1.388 1_554 S
C1193 C1194 1.368 . S
C1194 C1193 1.368 . S
C1194 C1195 1.400 1_554 S
C1194 C1197 1.510 . S
C1195 H1169 0.950 . S
C1195 C1194 1.400 1_556 S
C1195 C1196 1.374 . S
C1196 H1170 0.950 . S
C1196 C1192 1.385 . S
C1196 C1195 1.374 . S
C1197 C1194 1.510 . S
C1197 C1198 1.373 . S
C1197 C1199 1.389 . S
C1198 H1171 0.950 . S
C1198 C1184 1.377 . S
C1198 C1197 1.373 . S
C1199 C1183 1.377 . S
C1199 C1197 1.389 . S
C1199 C1200 1.524 . S
C1200 C1199 1.524 . S
C1200 C1201 1.397 . S
C1200 C1205 1.363 . S
C1201 H1172 0.950 1_554 S
C1201 C1200 1.397 . S
C1201 C1202 1.334 1_554 S
C1202 H1173 0.950 . S
C1202 C1201 1.334 1_556 S
C1202 C1203 1.287 1_556 S
C1203 C1202 1.287 1_554 S
C1203 C1204 1.524 . S
C1203 H1206 0.999 . S
C1204 H1174 0.950 . S
C1204 C1203 1.524 . S
C1204 C1205 1.415 . S
C1205 H1175 0.950 . S
C1205 C1200 1.363 . S
C1205 C1204 1.415 . S
H1206 C1203 0.999 . S
H1207 C1188 0.913 . S
H1208 C1226 0.951 . S
H1209 C1228 0.951 . S
H1210 C1230 0.950 . S
H1211 C1231 0.950 . S
H1212 C1233 0.950 . S
H1213 C1236 0.950 . S
H1214 C1237 0.950 . S
H1215 C1239 0.950 . S
H1216 C1240 0.950 . S
H1217 C1241 0.951 . S
H1218 C1243 0.951 . S
H1219 C1245 0.950 1_455 S
H1220 C1246 0.950 1_455 S
H1221 C1248 0.950 . S
H1222 C1251 0.950 . S
H1223 C1252 0.950 . S
H1224 C1254 0.950 . S
H1225 C1255 0.950 . S
C1226 H1208 0.951 . S
C1226 C1227 1.366 . S
C1226 C1228 1.388 . S
C1227 C1226 1.366 . S
C1227 C1231 1.385 . S
C1228 H1209 0.951 . S
C1228 C1226 1.388 . S
C1228 C1229 1.366 . S
C1229 C1228 1.366 . S
C1229 C1230 1.414 . S
C1229 C1232 1.499 . S
C1230 H1210 0.950 . S
C1230 C1229 1.414 . S
C1230 C1231 1.374 . S
C1231 H1211 0.950 . S
C1231 C1227 1.385 . S
C1231 C1230 1.374 . S
C1232 C1229 1.499 . S
C1232 C1233 1.373 . S
C1232 C1234 1.389 . S
C1233 H1212 0.950 . S
C1233 C1232 1.373 . S
C1233 C1249 1.377 . S
C1234 C1232 1.389 . S
C1234 C1235 1.524 . S
C1234 C1248 1.377 . S
C1235 C1234 1.524 . S
C1235 C1236 1.397 . S
C1235 C1240 1.363 1_655 S
C1236 H1213 0.950 . S
C1236 C1235 1.397 . S
C1236 C1237 1.334 . S
C1237 H1214 0.950 . S
C1237 C1236 1.334 . S
C1237 C1238 1.287 1_655 S
C1238 C1237 1.287 1_455 S
C1238 C1239 1.524 . S
C1238 H1257 0.913 . S
C1239 H1215 0.950 . S
C1239 C1238 1.524 . S
C1239 C1240 1.415 . S
C1240 H1216 0.950 . S
C1240 C1235 1.363 1_455 S
C1240 C1239 1.415 . S
C1241 H1217 0.951 . S
C1241 C1242 1.366 . S
C1241 C1243 1.388 . S
C1242 C1241 1.366 . S
C1242 C1246 1.385 . S
C1243 H1218 0.951 . S
C1243 C1241 1.388 . S
C1243 C1244 1.366 . S
C1244 C1243 1.366 . S
C1244 C1245 1.414 . S
C1244 C1247 1.499 . S
C1245 H1219 0.950 1_655 S
C1245 C1244 1.414 . S
C1245 C1246 1.374 . S
C1246 H1220 0.950 1_655 S
C1246 C1242 1.385 . S
C1246 C1245 1.374 . S
C1247 C1244 1.499 . S
C1247 C1248 1.373 . S
C1247 C1249 1.389 . S
C1248 H1221 0.950 . S
C1248 C1234 1.377 . S
C1248 C1247 1.373 . S
C1249 C1233 1.377 . S
C1249 C1247 1.389 . S
C1249 C1250 1.524 . S
C1250 C1249 1.524 . S
C1250 C1251 1.397 . S
C1250 C1255 1.363 . S
C1251 H1222 0.950 . S
C1251 C1250 1.397 . S
C1251 C1252 1.334 . S
C1252 H1223 0.950 . S
C1252 C1251 1.334 . S
C1252 C1253 1.287 . S
C1253 C1252 1.287 . S
C1253 C1254 1.524 . S
C1253 H1256 0.999 . S
C1254 H1224 0.950 . S
C1254 C1253 1.524 . S
C1254 C1255 1.415 . S
C1255 H1225 0.950 . S
C1255 C1250 1.363 . S
C1255 C1254 1.415 . S
H1256 C1253 0.999 . S
H1257 C1238 0.913 . S
H1258 C1276 0.951 . S
H1259 C1278 0.951 . S
H1260 C1280 0.950 . S
H1261 C1281 0.950 . S
H1262 C1283 0.950 . S
H1263 C1286 0.950 . S
H1264 C1287 0.950 . S
H1265 C1289 0.950 . S
H1266 C1290 0.950 . S
H1267 C1291 0.951 . S
H1268 C1293 0.951 . S
H1269 C1295 0.950 . S
H1270 C1296 0.950 . S
H1271 C1298 0.950 . S
H1272 C1301 0.950 . S
H1273 C1302 0.950 . S
H1274 C1304 0.950 . S
H1275 C1305 0.950 . S
C1276 H1258 0.951 . S
C1276 C1277 1.366 . S
C1276 C1278 1.388 . S
C1277 C1276 1.366 . S
C1277 C1281 1.385 . S
C1278 H1259 0.951 . S
C1278 C1276 1.388 . S
C1278 C1279 1.366 . S
C1279 C1278 1.366 . S
C1279 C1280 1.414 . S
C1279 C1282 1.499 . S
C1280 H1260 0.950 . S
C1280 C1279 1.414 . S
C1280 C1281 1.374 . S
C1281 H1261 0.950 . S
C1281 C1277 1.385 . S
C1281 C1280 1.374 . S
C1282 C1279 1.499 . S
C1282 C1283 1.373 . S
C1282 C1284 1.389 1_565 S
C1283 H1262 0.950 . S
C1283 C1282 1.373 . S
C1283 C1299 1.377 . S
C1284 C1282 1.389 1_545 S
C1284 C1285 1.524 . S
C1284 C1298 1.377 . S
C1285 C1284 1.524 . S
C1285 C1286 1.397 . S
C1285 C1290 1.363 . S
C1286 H1263 0.950 . S
C1286 C1285 1.397 . S
C1286 C1287 1.334 . S
C1287 H1264 0.950 . S
C1287 C1286 1.334 . S
C1287 C1288 1.287 . S
C1288 C1287 1.287 . S
C1288 C1289 1.524 . S
C1288 H1307 0.913 . S
C1289 H1265 0.950 . S
C1289 C1288 1.524 . S
C1289 C1290 1.415 . S
C1290 H1266 0.950 . S
C1290 C1285 1.363 . S
C1290 C1289 1.415 . S
C1291 H1267 0.951 . S
C1291 C1292 1.366 . S
C1291 C1293 1.388 . S
C1292 C1291 1.366 . S
C1292 C1296 1.385 . S
C1293 H1268 0.951 . S
C1293 C1291 1.388 . S
C1293 C1294 1.366 . S
C1294 C1293 1.366 . S
C1294 C1295 1.414 . S
C1294 C1297 1.499 . S
C1295 H1269 0.950 . S
C1295 C1294 1.414 . S
C1295 C1296 1.374 . S
C1296 H1270 0.950 . S
C1296 C1292 1.385 . S
C1296 C1295 1.374 . S
C1297 C1294 1.499 . S
C1297 C1298 1.373 1_565 S
C1297 C1299 1.389 . S
C1298 H1271 0.950 . S
C1298 C1284 1.377 . S
C1298 C1297 1.373 1_545 S
C1299 C1283 1.377 . S
C1299 C1297 1.389 . S
C1299 C1300 1.524 . S
C1300 C1299 1.524 . S
C1300 C1301 1.397 . S
C1300 C1305 1.363 . S
C1301 H1272 0.950 . S
C1301 C1300 1.397 . S
C1301 C1302 1.334 . S
C1302 H1273 0.950 . S
C1302 C1301 1.334 . S
C1302 C1303 1.287 . S
C1303 C1302 1.287 . S
C1303 C1304 1.524 . S
C1303 H1306 0.999 . S
C1304 H1274 0.950 . S
C1304 C1303 1.524 . S
C1304 C1305 1.415 . S
C1305 H1275 0.950 . S
C1305 C1300 1.363 . S
C1305 C1304 1.415 . S
H1306 C1303 0.999 . S
H1307 C1288 0.913 . S
H1308 C1326 0.951 . S
H1309 C1328 0.951 . S
H1310 C1330 0.950 . S
H1311 C1331 0.950 . S
H1312 C1333 0.950 . S
H1313 C1336 0.950 . S
H1314 C1337 0.950 . S
H1315 C1339 0.950 . S
H1316 C1340 0.950 . S
H1317 C1341 0.951 . S
H1318 C1343 0.951 . S
H1319 C1345 0.950 . S
H1320 C1346 0.950 . S
H1321 C1348 0.950 . S
H1322 C1351 0.950 . S
H1323 C1352 0.950 . S
H1324 C1354 0.950 . S
H1325 C1355 0.950 . S
C1326 H1308 0.951 . S
C1326 C1327 1.366 . S
C1326 C1328 1.388 . S
C1327 C1326 1.366 . S
C1327 C1331 1.385 . S
C1328 H1309 0.951 . S
C1328 C1326 1.388 . S
C1328 C1329 1.366 . S
C1329 C1328 1.366 . S
C1329 C1330 1.414 . S
C1329 C1332 1.499 . S
C1330 H1310 0.950 . S
C1330 C1329 1.414 . S
C1330 C1331 1.374 . S
C1331 H1311 0.950 . S
C1331 C1327 1.385 . S
C1331 C1330 1.374 . S
C1332 C1329 1.499 . S
C1332 C1333 1.373 . S
C1332 C1334 1.389 . S
C1333 H1312 0.950 . S
C1333 C1332 1.373 . S
C1333 C1349 1.377 . S
C1334 C1332 1.389 . S
C1334 C1335 1.524 . S
C1334 C1348 1.377 . S
C1335 C1334 1.524 . S
C1335 C1336 1.397 . S
C1335 C1340 1.363 . S
C1336 H1313 0.950 . S
C1336 C1335 1.397 . S
C1336 C1337 1.334 . S
C1337 H1314 0.950 . S
C1337 C1336 1.334 . S
C1337 C1338 1.287 . S
C1338 C1337 1.287 . S
C1338 C1339 1.524 . S
C1338 H1357 0.913 . S
C1339 H1315 0.950 . S
C1339 C1338 1.524 . S
C1339 C1340 1.415 . S
C1340 H1316 0.950 . S
C1340 C1335 1.363 . S
C1340 C1339 1.415 . S
C1341 H1317 0.951 . S
C1341 C1342 1.366 . S
C1341 C1343 1.388 . S
C1342 C1341 1.366 . S
C1342 C1346 1.385 . S
C1343 H1318 0.951 . S
C1343 C1341 1.388 . S
C1343 C1344 1.366 . S
C1344 C1343 1.366 . S
C1344 C1345 1.414 . S
C1344 C1347 1.499 . S
C1345 H1319 0.950 . S
C1345 C1344 1.414 . S
C1345 C1346 1.374 . S
C1346 H1320 0.950 . S
C1346 C1342 1.385 . S
C1346 C1345 1.374 . S
C1347 C1344 1.499 . S
C1347 C1348 1.373 . S
C1347 C1349 1.389 . S
C1348 H1321 0.950 . S
C1348 C1334 1.377 . S
C1348 C1347 1.373 . S
C1349 C1333 1.377 . S
C1349 C1347 1.389 . S
C1349 C1350 1.524 . S
C1350 C1349 1.524 . S
C1350 C1351 1.397 . S
C1350 C1355 1.363 . S
C1351 H1322 0.950 . S
C1351 C1350 1.397 . S
C1351 C1352 1.334 . S
C1352 H1323 0.950 . S
C1352 C1351 1.334 . S
C1352 C1353 1.287 . S
C1353 C1352 1.287 . S
C1353 C1354 1.524 . S
C1353 H1356 0.999 . S
C1354 H1324 0.950 . S
C1354 C1353 1.524 . S
C1354 C1355 1.415 . S
C1355 H1325 0.950 . S
C1355 C1350 1.363 . S
C1355 C1354 1.415 . S
H1356 C1353 0.999 . S
H1357 C1338 0.913 . S
H1358 C1376 0.951 . S
H1359 C1378 0.951 . S
H1360 C1380 0.950 . S
H1361 C1381 0.950 . S
H1362 C1383 0.950 . S
H1363 C1386 0.950 . S
H1364 C1387 0.950 . S
H1365 C1389 0.950 . S
H1366 C1390 0.950 . S
H1367 C1391 0.951 . S
H1368 C1393 0.951 . S
H1369 C1395 0.950 . S
H1370 C1396 0.950 . S
H1371 C1398 0.950 . S
H1372 C1401 0.950 . S
H1373 C1402 0.950 . S
H1374 C1404 0.950 . S
H1375 C1405 0.950 . S
C1376 H1358 0.951 . S
C1376 C1377 1.366 . S
C1376 C1378 1.388 . S
C1377 C1376 1.366 . S
C1377 C1381 1.385 . S
C1378 H1359 0.951 . S
C1378 C1376 1.388 . S
C1378 C1379 1.366 . S
C1379 C1378 1.366 . S
C1379 C1380 1.414 . S
C1379 C1382 1.499 . S
C1380 H1360 0.950 . S
C1380 C1379 1.414 . S
C1380 C1381 1.374 . S
C1381 H1361 0.950 . S
C1381 C1377 1.385 . S
C1381 C1380 1.374 . S
C1382 C1379 1.499 . S
C1382 C1383 1.373 . S
C1382 C1384 1.389 . S
C1383 H1362 0.950 . S
C1383 C1382 1.373 . S
C1383 C1399 1.377 . S
C1384 C1382 1.389 . S
C1384 C1385 1.524 . S
C1384 C1398 1.377 . S
C1385 C1384 1.524 . S
C1385 C1386 1.397 . S
C1385 C1390 1.363 . S
C1386 H1363 0.950 . S
C1386 C1385 1.397 . S
C1386 C1387 1.334 . S
C1387 H1364 0.950 . S
C1387 C1386 1.334 . S
C1387 C1388 1.287 . S
C1388 C1387 1.287 . S
C1388 C1389 1.524 . S
C1388 H1407 0.913 . S
C1389 H1365 0.950 . S
C1389 C1388 1.524 . S
C1389 C1390 1.415 . S
C1390 H1366 0.950 . S
C1390 C1385 1.363 . S
C1390 C1389 1.415 . S
C1391 H1367 0.951 . S
C1391 C1392 1.366 . S
C1391 C1393 1.388 . S
C1392 C1391 1.366 . S
C1392 C1396 1.385 . S
C1393 H1368 0.951 . S
C1393 C1391 1.388 . S
C1393 C1394 1.366 . S
C1394 C1393 1.366 . S
C1394 C1395 1.414 . S
C1394 C1397 1.499 . S
C1395 H1369 0.950 . S
C1395 C1394 1.414 . S
C1395 C1396 1.374 . S
C1396 H1370 0.950 . S
C1396 C1392 1.385 . S
C1396 C1395 1.374 . S
C1397 C1394 1.499 . S
C1397 C1398 1.373 . S
C1397 C1399 1.389 . S
C1398 H1371 0.950 . S
C1398 C1384 1.377 . S
C1398 C1397 1.373 . S
C1399 C1383 1.377 . S
C1399 C1397 1.389 . S
C1399 C1400 1.524 . S
C1400 C1399 1.524 . S
C1400 C1401 1.397 . S
C1400 C1405 1.363 . S
C1401 H1372 0.950 . S
C1401 C1400 1.397 . S
C1401 C1402 1.334 . S
C1402 H1373 0.950 . S
C1402 C1401 1.334 . S
C1402 C1403 1.287 . S
C1403 C1402 1.287 . S
C1403 C1404 1.524 . S
C1403 H1406 0.999 . S
C1404 H1374 0.950 . S
C1404 C1403 1.524 . S
C1404 C1405 1.415 . S
C1405 H1375 0.950 . S
C1405 C1400 1.363 . S
C1405 C1404 1.415 . S
H1406 C1403 0.999 . S
H1407 C1388 0.913 . S
C227 C74 1.591 . S
C242 C98 1.594 . S
C292 C128 1.725 . S
C277 C85 1.721 . S
C342 N162 1.414 . S
C327 C52 1.451 . S
C392 N192 1.309 . S
C377 C63 1.344 . S
C442 C89 1.596 . S
C427 C30 1.579 . S
C477 C41 1.706 . S
C492 C119 1.732 . S
C527 C8 1.408 . S
C542 N154 1.397 . S
C577 C19 1.314 . S
C592 N184 1.307 1_655 S
C642 C104 0.247 . S
C627 C62 0.131 . S
C692 C134 0.475 . S
C677 C73 0.477 . S
C742 C175 0.731 . S
C727 C84 0.730 . S
C777 C51 0.350 . S
C792 C205 0.363 . S
C827 C18 0.457 . S
C842 C115 0.239 . S
C892 C145 0.497 . S
C877 C29 0.526 . S
C942 C164 0.728 . S
C927 C40 0.731 . S
C977 C7 0.478 . S
C992 C194 0.378 . S
C1027 C60 1.262 . S
C1042 N94 1.425 . S
C1077 C71 1.209 . S
C1092 N124 1.395 1_554 S
C1142 C149 1.595 . S
C1127 C82 1.377 . S
C1192 C179 1.641 . S
C1177 C49 1.419 . S
C1227 C16 1.178 . S
C1242 N102 1.421 . S
C1292 N132 1.418 1_565 S
C1277 C27 1.222 1_565 S
C1342 C158 1.610 . S
C1327 C38 1.327 . S
C1377 C5 1.326 . S
C1392 C188 1.628 . S
