# Generated by pormake.
# Topology gar, (4,6)-cn, num edge types: 1
# Building blocks:
#     Node 0, Type 0, BuildingBlock: GALJAG_clean_sbu_0, # of connection points: 4
#     Node 1, Type 0, BuildingBlock: GALJAG_clean_sbu_0, # of connection points: 4
#     Node 2, Type 0, BuildingBlock: GALJAG_clean_sbu_0, # of connection points: 4
#     Node 3, Type 0, BuildingBlock: GALJAG_clean_sbu_0, # of connection points: 4
#     Node 4, Type 0, BuildingBlock: GALJAG_clean_sbu_0, # of connection points: 4
#     Node 5, Type 0, BuildingBlock: GALJAG_clean_sbu_0, # of connection points: 4
#     Node 6, Type 0, BuildingBlock: GALJAG_clean_sbu_0, # of connection points: 4
#     Node 7, Type 0, BuildingBlock: GALJAG_clean_sbu_0, # of connection points: 4
#     Node 8, Type 0, BuildingBlock: GALJAG_clean_sbu_0, # of connection points: 4
#     Node 9, Type 0, BuildingBlock: GALJAG_clean_sbu_0, # of connection points: 4
#     Node 10, Type 0, BuildingBlock: GALJAG_clean_sbu_0, # of connection points: 4
#     Node 11, Type 0, BuildingBlock: GALJAG_clean_sbu_0, # of connection points: 4
#     Node 12, Type 0, BuildingBlock: GALJAG_clean_sbu_0, # of connection points: 4
#     Node 13, Type 0, BuildingBlock: GALJAG_clean_sbu_0, # of connection points: 4
#     Node 14, Type 0, BuildingBlock: GALJAG_clean_sbu_0, # of connection points: 4
#     Node 15, Type 0, BuildingBlock: GALJAG_clean_sbu_0, # of connection points: 4
#     Node 16, Type 0, BuildingBlock: GALJAG_clean_sbu_0, # of connection points: 4
#     Node 17, Type 0, BuildingBlock: GALJAG_clean_sbu_0, # of connection points: 4
#     Node 18, Type 0, BuildingBlock: GALJAG_clean_sbu_0, # of connection points: 4
#     Node 19, Type 0, BuildingBlock: GALJAG_clean_sbu_0, # of connection points: 4
#     Node 20, Type 0, BuildingBlock: GALJAG_clean_sbu_0, # of connection points: 4
#     Node 21, Type 0, BuildingBlock: GALJAG_clean_sbu_0, # of connection points: 4
#     Node 22, Type 0, BuildingBlock: GALJAG_clean_sbu_0, # of connection points: 4
#     Node 23, Type 0, BuildingBlock: GALJAG_clean_sbu_0, # of connection points: 4
#     Node 24, Type 1, BuildingBlock: BETDEL_clean_sbu_0, # of connection points: 6
#     Node 25, Type 1, BuildingBlock: BETDEL_clean_sbu_0, # of connection points: 6
#     Node 26, Type 1, BuildingBlock: BETDEL_clean_sbu_0, # of connection points: 6
#     Node 27, Type 1, BuildingBlock: BETDEL_clean_sbu_0, # of connection points: 6
#     Node 28, Type 1, BuildingBlock: BETDEL_clean_sbu_0, # of connection points: 6
#     Node 29, Type 1, BuildingBlock: BETDEL_clean_sbu_0, # of connection points: 6
#     Node 30, Type 1, BuildingBlock: BETDEL_clean_sbu_0, # of connection points: 6
#     Node 31, Type 1, BuildingBlock: BETDEL_clean_sbu_0, # of connection points: 6
#     Node 32, Type 1, BuildingBlock: BETDEL_clean_sbu_0, # of connection points: 6
#     Node 33, Type 1, BuildingBlock: BETDEL_clean_sbu_0, # of connection points: 6
#     Node 34, Type 1, BuildingBlock: BETDEL_clean_sbu_0, # of connection points: 6
#     Node 35, Type 1, BuildingBlock: BETDEL_clean_sbu_0, # of connection points: 6
#     Node 36, Type 1, BuildingBlock: BETDEL_clean_sbu_0, # of connection points: 6
#     Node 37, Type 1, BuildingBlock: BETDEL_clean_sbu_0, # of connection points: 6
#     Node 38, Type 1, BuildingBlock: BETDEL_clean_sbu_0, # of connection points: 6
#     Node 39, Type 1, BuildingBlock: BETDEL_clean_sbu_0, # of connection points: 6
#     Edge 40, Type (0, 1), None
#     Edge 41, Type (0, 1), None
#     Edge 42, Type (0, 1), None
#     Edge 43, Type (0, 1), None
#     Edge 44, Type (0, 1), None
#     Edge 45, Type (0, 1), None
#     Edge 46, Type (0, 1), None
#     Edge 47, Type (0, 1), None
#     Edge 48, Type (0, 1), None
#     Edge 49, Type (0, 1), None
#     Edge 50, Type (0, 1), None
#     Edge 51, Type (0, 1), None
#     Edge 52, Type (0, 1), None
#     Edge 53, Type (0, 1), None
#     Edge 54, Type (0, 1), None
#     Edge 55, Type (0, 1), None
#     Edge 56, Type (0, 1), None
#     Edge 57, Type (0, 1), None
#     Edge 58, Type (0, 1), None
#     Edge 59, Type (0, 1), None
#     Edge 60, Type (0, 1), None
#     Edge 61, Type (0, 1), None
#     Edge 62, Type (0, 1), None
#     Edge 63, Type (0, 1), None
#     Edge 64, Type (0, 1), None
#     Edge 65, Type (0, 1), None
#     Edge 66, Type (0, 1), None
#     Edge 67, Type (0, 1), None
#     Edge 68, Type (0, 1), None
#     Edge 69, Type (0, 1), None
#     Edge 70, Type (0, 1), None
#     Edge 71, Type (0, 1), None
#     Edge 72, Type (0, 1), None
#     Edge 73, Type (0, 1), None
#     Edge 74, Type (0, 1), None
#     Edge 75, Type (0, 1), None
#     Edge 76, Type (0, 1), None
#     Edge 77, Type (0, 1), None
#     Edge 78, Type (0, 1), None
#     Edge 79, Type (0, 1), None
#     Edge 80, Type (0, 1), None
#     Edge 81, Type (0, 1), None
#     Edge 82, Type (0, 1), None
#     Edge 83, Type (0, 1), None
#     Edge 84, Type (0, 1), None
#     Edge 85, Type (0, 1), None
#     Edge 86, Type (0, 1), None
#     Edge 87, Type (0, 1), None
#     Edge 88, Type (0, 1), None
#     Edge 89, Type (0, 1), None
#     Edge 90, Type (0, 1), None
#     Edge 91, Type (0, 1), None
#     Edge 92, Type (0, 1), None
#     Edge 93, Type (0, 1), None
#     Edge 94, Type (0, 1), None
#     Edge 95, Type (0, 1), None
#     Edge 96, Type (0, 1), None
#     Edge 97, Type (0, 1), None
#     Edge 98, Type (0, 1), None
#     Edge 99, Type (0, 1), None
#     Edge 100, Type (0, 1), None
#     Edge 101, Type (0, 1), None
#     Edge 102, Type (0, 1), None
#     Edge 103, Type (0, 1), None
#     Edge 104, Type (0, 1), None
#     Edge 105, Type (0, 1), None
#     Edge 106, Type (0, 1), None
#     Edge 107, Type (0, 1), None
#     Edge 108, Type (0, 1), None
#     Edge 109, Type (0, 1), None
#     Edge 110, Type (0, 1), None
#     Edge 111, Type (0, 1), None
#     Edge 112, Type (0, 1), None
#     Edge 113, Type (0, 1), None
#     Edge 114, Type (0, 1), None
#     Edge 115, Type (0, 1), None
#     Edge 116, Type (0, 1), None
#     Edge 117, Type (0, 1), None
#     Edge 118, Type (0, 1), None
#     Edge 119, Type (0, 1), None
#     Edge 120, Type (0, 1), None
#     Edge 121, Type (0, 1), None
#     Edge 122, Type (0, 1), None
#     Edge 123, Type (0, 1), None
#     Edge 124, Type (0, 1), None
#     Edge 125, Type (0, 1), None
#     Edge 126, Type (0, 1), None
#     Edge 127, Type (0, 1), None
#     Edge 128, Type (0, 1), None
#     Edge 129, Type (0, 1), None
#     Edge 130, Type (0, 1), None
#     Edge 131, Type (0, 1), None
#     Edge 132, Type (0, 1), None
#     Edge 133, Type (0, 1), None
#     Edge 134, Type (0, 1), None
#     Edge 135, Type (0, 1), None
# Relax obj value: 0.195
# Max RMSD: 0.309
# Mean RMSD: 0.176
data_MOF--net-gar--node1-GALJAG_clean_sbu_0--node2-BETDEL_clean_sbu_0--edge1-none
_symmetry_space_group_name_H-M    P1
_symmetry_Int_Tables_number       1
_symmetry_cell_setting            triclinic
loop_
_symmetry_equiv_pos_as_xyz
'x, y, z'
_cell_length_a     26.194657
_cell_length_b     23.779725
_cell_length_c     25.224226
_cell_angle_alpha  95.227455
_cell_angle_beta   89.823355
_cell_angle_gamma 99.264696
loop_
_atom_site_label
_atom_site_type_symbol
_atom_site_fract_x
_atom_site_fract_y
_atom_site_fract_z
_atom_type_partial_charge
In0 In 0.07038 0.2883 0.42215 0.0
O1 O 0.1136 0.23737 0.35745 0.0
O2 O 0.15022 0.31898 0.38982 0.0
C3 C 0.98766 0.30922 0.36913 0.0
C4 C 0.04289 0.19681 0.47939 0.0
C5 C 0.0772 0.38476 0.48772 0.0
O6 O 0.0326 0.31949 0.35055 0.0
O7 O 0.98435 0.28552 0.41199 0.0
O8 O 0.09817 0.34355 0.50037 0.0
O9 O 0.05647 0.378 0.44249 0.0
C10 C 0.15217 0.27648 0.35665 0.0
O11 O 0.07652 0.2388 0.49616 0.0
O12 O 0.02502 0.20024 0.43356 0.0
In13 In 0.02233 0.77193 0.62793 0.0
O14 O 0.01561 0.82122 0.55366 0.0
O15 O 0.06711 0.86017 0.61606 0.0
C16 C 0.01567 0.67417 0.56411 0.0
C17 C 0.1051 0.75228 0.68141 0.0
C18 C 0.94066 0.78337 0.69351 0.0
O19 O 0.99425 0.71484 0.55087 0.0
O20 O 0.03718 0.68221 0.60897 0.0
O21 O 0.97924 0.82248 0.69292 0.0
O22 O 0.94249 0.7411 0.66005 0.0
C23 C 0.04898 0.86351 0.57034 0.0
O24 O 0.06021 0.74242 0.70017 0.0
O25 O 0.10838 0.77496 0.63799 0.0
In26 In 0.57038 0.7883 0.92215 0.0
O27 O 0.6136 0.73737 0.85745 0.0
O28 O 0.65022 0.81898 0.88982 0.0
C29 C 0.48766 0.80922 0.86913 0.0
C30 C 0.54289 0.69681 0.97939 0.0
C31 C 0.5772 0.88476 0.98772 0.0
O32 O 0.5326 0.81949 0.85055 0.0
O33 O 0.48435 0.78552 0.91199 0.0
O34 O 0.59817 0.84355 1.00037 0.0
O35 O 0.55647 0.878 0.94249 0.0
C36 C 0.65217 0.77648 0.85665 0.0
O37 O 0.57652 0.7388 0.99616 0.0
O38 O 0.52502 0.70024 0.93356 0.0
In39 In 0.52233 0.27193 0.12793 0.0
O40 O 0.49425 0.21484 0.05087 0.0
O41 O 0.53718 0.18221 0.10897 0.0
C42 C 0.54898 0.36351 0.07034 0.0
C43 C 0.44066 0.28337 0.19351 0.0
C44 C 0.6051 0.25228 0.18141 0.0
O45 O 0.51561 0.32122 0.05366 0.0
O46 O 0.56711 0.36017 0.11606 0.0
O47 O 0.56021 0.24242 0.20017 0.0
O48 O 0.60838 0.27496 0.13799 0.0
C49 C 0.51567 0.17417 0.06411 0.0
O50 O 0.47924 0.32248 0.19292 0.0
O51 O 0.44249 0.2411 0.16005 0.0
In52 In 0.08558 0.80492 0.16409 0.0
O53 O 0.11993 0.73891 0.10757 0.0
O54 O 0.0406 0.72144 0.12846 0.0
C55 C 0.06996 0.8802 0.09227 0.0
C56 C 1.00706 0.79536 0.23305 0.0
C57 C 0.17082 0.82012 0.23027 0.0
O58 O 0.03594 0.83942 0.10257 0.0
O59 O 0.1119 0.88317 0.11776 0.0
O60 O 0.13264 0.84527 0.24079 0.0
O61 O 0.16659 0.78947 0.18655 0.0
C62 C 0.07749 0.70509 0.10254 0.0
O63 O 0.02829 0.75318 0.21645 0.0
O64 O 0.02729 0.84278 0.21744 0.0
In65 In 0.50779 0.76488 0.38997 0.0
O66 O 0.56533 0.72505 0.33724 0.0
O67 O 0.56737 0.81553 0.33953 0.0
C68 C 0.42552 0.75201 0.32022 0.0
C69 C 0.5228 0.68606 0.45843 0.0
C70 C 0.51529 0.86403 0.45241 0.0
O71 O 0.47045 0.74524 0.30626 0.0
O72 O 0.421 0.76325 0.36971 0.0
O73 O 0.47204 0.83299 0.44252 0.0
O74 O 0.55316 0.84566 0.43035 0.0
C75 C 0.58705 0.77235 0.32232 0.0
O76 O 0.55571 0.72927 0.45213 0.0
O77 O 0.48217 0.68231 0.43057 0.0
In78 In 0.58558 0.30492 0.66409 0.0
O79 O 0.61993 0.23891 0.60757 0.0
O80 O 0.5406 0.22144 0.62846 0.0
C81 C 0.56996 0.3802 0.59227 0.0
C82 C 0.50706 0.29536 0.73305 0.0
C83 C 0.67082 0.32012 0.73027 0.0
O84 O 0.53594 0.33942 0.60257 0.0
O85 O 0.6119 0.38317 0.61776 0.0
O86 O 0.63264 0.34527 0.74079 0.0
O87 O 0.66659 0.28947 0.68655 0.0
C88 C 0.57749 0.20509 0.60254 0.0
O89 O 0.52829 0.25318 0.71645 0.0
O90 O 0.52729 0.34278 0.71744 0.0
In91 In 1.00779 0.26488 0.88997 0.0
O92 O 0.05571 0.22927 0.95213 0.0
O93 O 0.98217 0.18231 0.93057 0.0
C94 C 0.01529 0.36403 0.95241 0.0
C95 C 0.08705 0.27235 0.82232 0.0
C96 C 0.92552 0.25201 0.82022 0.0
O97 O 0.97204 0.33299 0.94252 0.0
O98 O 0.05316 0.34566 0.93035 0.0
O99 O 0.97045 0.24524 0.80626 0.0
O100 O 0.921 0.26325 0.86971 0.0
C101 C 0.0228 0.18606 0.95843 0.0
O102 O 0.06533 0.22505 0.83724 0.0
O103 O 0.06737 0.31553 0.83953 0.0
In104 In 0.44455 0.0417 0.31904 0.0
O105 O 0.4868 0.08793 0.25557 0.0
O106 O 0.50057 1.00295 0.26785 0.0
C107 C 0.51144 0.06102 0.39933 0.0
C108 C 0.36497 0.09502 0.30624 0.0
C109 C 0.38828 0.94029 0.30864 0.0
O110 O 0.51801 0.09163 0.36097 0.0
O111 O 0.47016 0.02528 0.3984 0.0
O112 O 0.39137 0.97024 0.35294 0.0
O113 O 0.41717 0.95928 0.2722 0.0
C114 C 0.50932 0.04586 0.24131 0.0
O115 O 0.37582 0.05709 0.27243 0.0
O116 O 0.39629 0.10906 0.34505 0.0
In117 In 0.27933 0.17307 0.50374 0.0
O118 O 0.24452 0.21806 0.57829 0.0
O119 O 0.32392 0.2117 0.58159 0.0
C120 C 0.29829 0.24541 0.42068 0.0
C121 C 0.35379 0.10637 0.51114 0.0
C122 C 0.18671 0.09877 0.49291 0.0
O123 O 0.30437 0.26266 0.46943 0.0
O124 O 0.28032 0.19276 0.4135 0.0
O125 O 0.22816 0.08641 0.47297 0.0
O126 O 0.19112 0.14911 0.51515 0.0
C127 C 0.28556 0.22667 0.60611 0.0
O128 O 0.31278 0.09932 0.53751 0.0
O129 O 0.35702 0.14599 0.48071 0.0
In130 In 0.18211 0.03009 0.81221 0.0
O131 O 0.1142 0.05922 0.77025 0.0
O132 O 0.17144 0.02493 0.72306 0.0
C133 C 0.11015 0.0074 0.89258 0.0
C134 C 0.2389 0.94262 0.78712 0.0
C135 C 0.24722 0.13291 0.81453 0.0
O136 O 0.11396 0.97236 0.85279 0.0
O137 O 0.14357 0.0521 0.89304 0.0
O138 O 0.25536 0.09446 0.84357 0.0
O139 O 0.20608 0.12078 0.78775 0.0
C140 C 0.13089 0.04723 0.72437 0.0
O141 O 0.25493 0.9846 0.8206 0.0
O142 O 0.19417 0.94355 0.76914 0.0
In143 In 0.28936 0.91151 1.00032 0.0
O144 O 0.32461 0.84575 0.04005 0.0
O145 O 0.25017 0.86362 0.06534 0.0
C146 C 0.27156 0.83301 0.91484 0.0
C147 C 0.23604 1.00098 0.0193 0.0
C148 C 0.38505 0.96795 0.0117 0.0
O149 O 0.23944 0.83415 0.95228 0.0
O150 O 0.30897 0.87387 0.91845 0.0
O151 O 0.36179 0.95956 0.96725 0.0
O152 O 0.35991 0.94876 0.05042 0.0
C153 C 0.28728 0.83662 0.07132 0.0
O154 O 0.25444 0.97754 0.05583 0.0
O155 O 0.24155 0.97731 0.97313 0.0
In156 In 0.31174 0.38922 0.04812 0.0
O157 O 0.28514 0.29926 0.08163 0.0
O158 O 0.31301 0.36759 0.13781 0.0
C159 C 0.30606 0.33628 0.94562 0.0
C160 C 0.23821 0.45805 0.04236 0.0
C161 C 0.40478 0.46273 0.05783 0.0
O162 O 0.34688 0.34457 0.97371 0.0
O163 O 0.26754 0.35123 0.96992 0.0
O164 O 0.36384 0.47517 0.07894 0.0
O165 O 0.39978 0.41253 0.03522 0.0
C166 C 0.29344 0.31539 0.13036 0.0
O167 O 0.27875 0.46398 0.01521 0.0
O168 O 0.23474 0.41816 0.07255 0.0
In169 In 0.80078 0.15018 0.05074 0.0
O170 O 0.84358 0.09337 0.99317 0.0
O171 O 0.84527 0.08008 0.07483 0.0
C172 C 0.70704 0.08916 0.04091 0.0
C173 C 0.81992 0.22848 0.13644 0.0
C174 C 0.79179 0.22727 0.9839 0.0
O175 O 0.72902 0.10336 0.08578 0.0
O176 O 0.73283 0.10449 1.00107 0.0
O177 O 0.75342 0.20327 1.00801 0.0
O178 O 0.83495 0.2128 0.9938 0.0
C179 C 0.85645 0.06342 0.02787 0.0
O180 O 0.85085 0.22816 0.09796 0.0
O181 O 0.78313 0.18694 0.13369 0.0
In182 In 0.14859 0.51783 0.23478 0.0
O183 O 0.21518 0.49908 0.28175 0.0
O184 O 0.19714 0.45168 0.20624 0.0
C185 C 0.20846 0.6166 0.24689 0.0
C186 C 0.08174 0.50387 0.15505 0.0
C187 C 0.08271 0.51449 0.31143 0.0
O188 O 0.20328 0.58819 0.20178 0.0
O189 O 0.17983 0.59763 0.28357 0.0
O190 O 0.09413 0.55829 0.28645 0.0
O191 O 0.1033 0.47121 0.29626 0.0
C192 C 0.22753 0.46394 0.24602 0.0
O193 O 0.0763 0.46909 0.19022 0.0
O194 O 0.12226 0.54081 0.15823 0.0
In195 In 0.81174 0.88922 0.54812 0.0
O196 O 0.78514 0.79926 0.58163 0.0
O197 O 0.81301 0.86759 0.63781 0.0
C198 C 0.80606 0.83628 0.44562 0.0
C199 C 0.73821 0.95805 0.54236 0.0
C200 C 0.90478 0.96273 0.55783 0.0
O201 O 0.84688 0.84457 0.47371 0.0
O202 O 0.76754 0.85123 0.46992 0.0
O203 O 0.86384 0.97517 0.57894 0.0
O204 O 0.89978 0.91253 0.53522 0.0
C205 C 0.79344 0.81539 0.63036 0.0
O206 O 0.77875 0.96398 0.51521 0.0
O207 O 0.73474 0.91816 0.57255 0.0
In208 In 0.91096 0.03281 0.23707 0.0
O209 O 0.97964 0.09052 0.1972 0.0
O210 O 0.94806 0.01277 0.15469 0.0
C211 C 0.96193 0.01492 0.32498 0.0
C212 C 0.85388 0.11968 0.26337 0.0
C213 C 0.84558 0.93023 0.23542 0.0
O214 O 0.97805 1.00182 0.27908 0.0
O215 O 0.92222 0.03869 0.32622 0.0
O216 O 0.83666 0.96922 0.20742 0.0
O217 O 0.88782 0.94151 0.26039 0.0
C218 C 0.98228 0.05686 0.15612 0.0
O219 O 0.83784 0.07794 0.22965 0.0
O220 O 0.89882 0.11892 0.28089 0.0
In221 In 0.30078 0.65018 0.55074 0.0
O222 O 0.34358 0.59337 0.49317 0.0
O223 O 0.34527 0.58008 0.57483 0.0
C224 C 0.20704 0.58916 0.54091 0.0
C225 C 0.31992 0.72848 0.63644 0.0
C226 C 0.29179 0.72727 0.4839 0.0
O227 O 0.22902 0.60336 0.58578 0.0
O228 O 0.23283 0.60449 0.50107 0.0
O229 O 0.25342 0.70327 0.50801 0.0
O230 O 0.33495 0.7128 0.4938 0.0
C231 C 0.35645 0.56342 0.52787 0.0
O232 O 0.35085 0.72816 0.59796 0.0
O233 O 0.28313 0.68694 0.63369 0.0
In234 In 0.41096 0.53281 0.73707 0.0
O235 O 0.33784 0.57794 0.72965 0.0
O236 O 0.39882 0.61892 0.78089 0.0
C237 C 0.34558 0.43023 0.73542 0.0
C238 C 0.48228 0.55686 0.65612 0.0
C239 C 0.46193 0.51492 0.82498 0.0
O240 O 0.33666 0.46922 0.70742 0.0
O241 O 0.38782 0.44151 0.76039 0.0
O242 O 0.47805 0.50182 0.77908 0.0
O243 O 0.42222 0.53869 0.82622 0.0
C244 C 0.35388 0.61968 0.76337 0.0
O245 O 0.47964 0.59052 0.6972 0.0
O246 O 0.44806 0.51277 0.65469 0.0
In247 In 0.64859 0.01783 0.73478 0.0
O248 O 0.71518 0.99908 0.78175 0.0
O249 O 0.69714 0.95168 0.70624 0.0
C250 C 0.70846 0.1166 0.74689 0.0
C251 C 0.58174 1.00387 0.65505 0.0
C252 C 0.58271 0.01449 0.81143 0.0
O253 O 0.70328 0.08819 0.70178 0.0
O254 O 0.67983 0.09763 0.78357 0.0
O255 O 0.59413 0.05829 0.78645 0.0
O256 O 0.6033 0.97121 0.79626 0.0
C257 C 0.72753 0.96394 0.74602 0.0
O258 O 0.5763 0.96909 0.69022 0.0
O259 O 0.62226 0.04081 0.65823 0.0
In260 In 0.77933 0.67307 1.00374 0.0
O261 O 0.81278 0.59932 0.03751 0.0
O262 O 0.85702 0.64599 0.98071 0.0
C263 C 0.68671 0.59877 0.99291 0.0
C264 C 0.78556 0.72667 0.10611 0.0
C265 C 0.79829 0.74541 0.92068 0.0
O266 O 0.72816 0.58641 0.97297 0.0
O267 O 0.69112 0.64911 0.01515 0.0
O268 O 0.80437 0.76266 0.96943 0.0
O269 O 0.78032 0.69276 0.9135 0.0
C270 C 0.85379 0.60637 0.01114 0.0
O271 O 0.74452 0.71806 0.07829 0.0
O272 O 0.82392 0.7117 0.08159 0.0
In273 In 0.94455 0.5417 0.81904 0.0
O274 O 0.87582 0.55709 0.77243 0.0
O275 O 0.89629 0.60906 0.84505 0.0
C276 C 0.88828 0.44029 0.80864 0.0
C277 C 1.00932 0.54586 0.74131 0.0
C278 C 1.01144 0.56102 0.89933 0.0
O279 O 0.89137 0.47024 0.85294 0.0
O280 O 0.91717 0.45928 0.7722 0.0
O281 O 0.01801 0.59163 0.86097 0.0
O282 O 0.97016 0.52528 0.8984 0.0
C283 C 0.86497 0.59502 0.80624 0.0
O284 O 0.9868 0.58793 0.75557 0.0
O285 O 1.00057 0.50295 0.76785 0.0
In286 In 0.78936 0.41151 0.50032 0.0
O287 O 0.82461 0.34575 0.54005 0.0
O288 O 0.75017 0.36362 0.56534 0.0
C289 C 0.77156 0.33301 0.41484 0.0
C290 C 0.73604 0.50098 0.5193 0.0
C291 C 0.88505 0.46795 0.5117 0.0
O292 O 0.73944 0.33415 0.45228 0.0
O293 O 0.80897 0.37387 0.41845 0.0
O294 O 0.86179 0.45956 0.46725 0.0
O295 O 0.85991 0.44876 0.55042 0.0
C296 C 0.78728 0.33662 0.57132 0.0
O297 O 0.75444 0.47754 0.55583 0.0
O298 O 0.74155 0.47731 0.47313 0.0
In299 In 0.68211 0.53009 0.31221 0.0
O300 O 0.75493 0.4846 0.3206 0.0
O301 O 0.69417 0.44355 0.26914 0.0
C302 C 0.74722 0.63291 0.31453 0.0
C303 C 0.63089 0.54723 0.22437 0.0
C304 C 0.61015 0.5074 0.39258 0.0
O305 O 0.75536 0.59446 0.34357 0.0
O306 O 0.70608 0.62078 0.28775 0.0
O307 O 0.61396 0.47236 0.35279 0.0
O308 O 0.64357 0.5521 0.39304 0.0
C309 C 0.7389 0.44262 0.28712 0.0
O310 O 0.6142 0.55922 0.27025 0.0
O311 O 0.67144 0.52493 0.22306 0.0
Dy312 Dy 0.99038 1.00189 1.00315 0.0
C313 C 0.20111 0.04331 0.02995 0.0
C314 C 0.89124 0.02111 0.01622 0.0
Dy315 Dy 0.10238 0.06325 0.04544 0.0
O316 O 0.91286 0.01275 0.97006 0.0
O317 O 0.92096 0.00967 0.05316 0.0
O318 O 0.02581 0.96113 0.92922 0.0
O319 O 0.06254 0.0375 0.97031 0.0
C320 C 0.06824 0.99952 0.93334 0.0
C321 C 0.02416 0.0653 0.11529 0.0
O322 O 0.08086 0.13851 1.00778 0.0
O323 O 0.99545 0.09492 0.98853 0.0
O324 O 0.18166 0.05542 0.07666 0.0
O325 O 0.1693 0.05097 0.99341 0.0
O326 O 0.06681 0.10336 0.11984 0.0
O327 O 0.0301 0.02779 0.07805 0.0
O328 O 1.01208 0.92703 0.0417 0.0
O329 O 0.09737 0.97075 0.06143 0.0
C330 C 0.03338 0.13924 0.98903 0.0
C331 C 0.05949 0.92641 0.06082 0.0
Dy332 Dy 0.31176 0.77803 0.21494 0.0
C333 C 0.28516 0.75876 0.43905 0.0
C334 C 0.29296 0.81058 0.11965 0.0
Dy335 Dy 0.27615 0.78399 0.33858 0.0
O336 O 0.32341 0.7733 0.12676 0.0
O337 O 0.27528 0.83098 0.16405 0.0
O338 O 0.39084 0.75301 0.22926 0.0
O339 O 0.33916 0.76368 0.2904 0.0
C340 C 0.38401 0.75308 0.28078 0.0
C341 C 0.21353 0.81867 0.26829 0.0
O342 O 0.32935 0.86549 0.34002 0.0
O343 O 0.34731 0.86526 0.24862 0.0
O344 O 0.24084 0.75785 0.41525 0.0
O345 O 0.32349 0.77512 0.40878 0.0
O346 O 0.2142 0.83665 0.31908 0.0
O347 O 0.24264 0.78157 0.2614 0.0
O348 O 0.26348 0.69334 0.21395 0.0
O349 O 0.24777 0.69343 0.30623 0.0
C350 C 0.35281 0.88778 0.29874 0.0
C351 C 0.24327 0.66949 0.25621 0.0
Dy352 Dy 0.60925 0.03654 0.5169 0.0
C353 C 0.39704 0.07548 0.51873 0.0
C354 C 0.69571 0.99063 0.53594 0.0
Dy355 Dy 0.48413 0.0318 0.53883 0.0
O356 O 0.69302 0.02762 0.50105 0.0
O357 O 0.65218 0.98049 0.5606 0.0
O358 O 0.59961 0.07745 0.43962 0.0
O359 O 0.53841 0.02817 0.47608 0.0
C360 C 0.54942 0.06069 0.44063 0.0
C361 C 0.54381 0.0063 0.61434 0.0
O362 O 0.48126 0.94513 0.49454 0.0
O363 O 0.57131 0.94549 0.49101 0.0
O364 O 0.40003 0.03899 0.55402 0.0
O365 O 0.44075 0.08675 0.49462 0.0
O366 O 0.49368 0.98892 0.61484 0.0
O367 O 0.55494 0.04005 0.57984 0.0
O368 O 0.61178 0.12393 0.56023 0.0
O369 O 0.5216 0.12279 0.56528 0.0
C370 C 0.5223 0.91973 0.48323 0.0
C371 C 0.57057 0.14899 0.57215 0.0
Dy372 Dy 0.23963 0.29095 0.77344 0.0
C373 C 0.45641 0.28809 0.7581 0.0
C374 C 0.13699 0.278 0.79591 0.0
Dy375 Dy 0.35312 0.27301 0.77819 0.0
O376 O 0.16598 0.32662 0.78957 0.0
O377 O 0.16364 0.23658 0.78846 0.0
O378 O 0.26114 0.36683 0.72536 0.0
O379 O 0.31375 0.34689 0.78097 0.0
C380 C 0.30833 0.37832 0.74416 0.0
C381 C 0.28421 0.18537 0.80695 0.0
O382 O 0.34812 0.30953 0.86308 0.0
O383 O 0.25891 0.30733 0.86222 0.0
O384 O 0.42779 0.23888 0.76305 0.0
O385 O 0.42885 0.32873 0.76507 0.0
O386 O 0.33132 0.19682 0.82601 0.0
O387 O 0.27912 0.21712 0.77035 0.0
O388 O 0.24399 0.25371 0.68879 0.0
O389 O 0.33334 0.2562 0.6893 0.0
C390 C 0.30427 0.31559 0.88788 0.0
C391 C 0.28776 0.24768 0.66381 0.0
Dy392 Dy 0.03748 0.00973 0.46783 0.0
C393 C 0.10581 0.05698 0.67546 0.0
C394 C 0.98652 0.00453 0.37404 0.0
Dy395 Dy 0.0542 0.051 0.58211 0.0
O396 O 0.03118 0.98771 0.37866 0.0
O397 O 0.96889 0.01953 0.42019 0.0
O398 O 0.12407 0.01649 0.45396 0.0
O399 O 0.09621 0.07311 0.51035 0.0
C400 C 0.13677 0.05857 0.49071 0.0
C401 C 0.95483 1.00266 0.55939 0.0
O402 O 0.05718 0.13726 0.54994 0.0
O403 O 1.01326 0.09701 0.47343 0.0
O404 O 0.06081 0.07312 0.67115 0.0
O405 O 0.12334 0.04209 0.62925 0.0
O406 O 0.96776 0.04481 0.59605 0.0
O407 O 0.99531 0.98778 0.53976 0.0
O408 O 0.03434 0.9233 0.49987 0.0
O409 O 0.07793 0.96346 0.57664 0.0
C410 C 0.03325 0.14275 0.50475 0.0
C411 C 0.05811 0.91776 0.54516 0.0
Dy412 Dy 0.35498 0.81299 0.78423 0.0
C413 C 0.15093 0.74123 0.70826 0.0
C414 C 0.44175 0.82063 0.84257 0.0
Dy415 Dy 0.23736 0.74889 0.76696 0.0
O416 O 0.44052 0.84199 0.7967 0.0
O417 O 0.39572 0.80049 0.85797 0.0
O418 O 0.36758 0.81007 0.69411 0.0
O419 O 0.31027 0.75452 0.72778 0.0
C420 C 0.32795 0.76924 0.68434 0.0
C421 C 0.26418 0.79229 0.86693 0.0
O422 O 0.27856 0.67038 0.75957 0.0
O423 O 0.35854 0.71882 0.79274 0.0
O424 O 0.15195 0.71977 0.7541 0.0
O425 O 0.19699 0.76154 0.69308 0.0
O426 O 0.22456 0.75148 0.85694 0.0
O427 O 0.28197 0.80717 0.82352 0.0
O428 O 0.314 0.89161 0.79147 0.0
O429 O 0.23387 0.84315 0.75867 0.0
C430 C 0.32755 0.67055 0.77527 0.0
C431 C 0.26499 0.89144 0.77587 0.0
Dy432 Dy 0.54596 0.02132 0.08587 0.0
C433 C 0.55993 0.01938 0.86253 0.0
C434 C 0.53158 0.04066 0.18995 0.0
Dy435 Dy 0.54616 0.03663 0.96691 0.0
O436 O 0.52925 0.07782 0.15609 0.0
O437 O 0.54085 0.99224 0.16711 0.0
O438 O 0.58798 0.94562 0.07224 0.0
O439 O 0.537 0.96488 0.01438 0.0
C440 C 0.57018 0.93415 0.02371 0.0
C441 C 0.5219 0.12381 0.02906 0.0
O442 O 0.46497 0.997 0.97201 0.0
O443 O 0.46114 1.00178 0.06468 0.0
O444 O 0.55398 0.06833 0.88686 0.0
O445 O 0.55913 0.98035 0.89509 0.0
O446 O 0.5038 0.11194 0.9807 0.0
O447 O 0.55523 0.0932 0.03831 0.0
O448 O 0.62693 0.06149 0.08076 0.0
O449 O 0.63109 0.05376 0.98811 0.0
C450 C 0.4392 0.99188 0.01661 0.0
C451 C 0.65294 0.06482 0.03619 0.0
Dy452 Dy 0.31115 0.34871 0.2923 0.0
C453 C 0.32724 0.12984 0.29483 0.0
C454 C 0.26594 0.42969 0.25605 0.0
Dy455 Dy 0.28191 0.21082 0.2582 0.0
O456 O 0.30023 0.4403 0.29514 0.0
O457 O 0.25866 0.37694 0.23707 0.0
O458 O 0.32353 0.33983 0.3816 0.0
O459 O 0.30269 0.27019 0.32665 0.0
C460 C 0.30986 0.28392 0.37614 0.0
C461 C 0.28263 0.27618 0.17458 0.0
O462 O 0.2071 0.22409 0.29864 0.0
O463 O 0.22973 0.32351 0.32159 0.0
O464 O 0.29289 0.11906 0.25578 0.0
O465 O 0.33464 0.18276 0.31338 0.0
O466 O 0.26879 0.22027 0.16894 0.0
O467 O 0.29046 0.28941 0.22401 0.0
O468 O 0.38597 0.33544 0.25197 0.0
O469 O 0.36315 0.23612 0.22845 0.0
C470 C 0.19751 0.27406 0.32207 0.0
C471 C 0.39542 0.28557 0.22822 0.0
Dy472 Dy 0.53748 0.50973 0.96783 0.0
C473 C 0.60581 0.55698 0.17546 0.0
C474 C 0.48652 0.50453 0.87404 0.0
Dy475 Dy 0.5542 0.551 0.08211 0.0
O476 O 0.53118 0.48771 0.87866 0.0
O477 O 0.46889 0.51953 0.92019 0.0
O478 O 0.62407 0.51649 0.95396 0.0
O479 O 0.59621 0.57311 0.01035 0.0
C480 C 0.63677 0.55857 0.99071 0.0
C481 C 0.45483 0.50266 0.05939 0.0
O482 O 0.55718 0.63726 0.04994 0.0
O483 O 0.51326 0.59701 0.97343 0.0
O484 O 0.56081 0.57312 0.17115 0.0
O485 O 0.62334 0.54209 0.12925 0.0
O486 O 0.46776 0.5448 0.09605 0.0
O487 O 0.49531 0.48778 0.03976 0.0
O488 O 0.53434 0.4233 0.99987 0.0
O489 O 0.57793 0.46346 0.07664 0.0
C490 C 0.53325 0.64275 1.00475 0.0
C491 C 0.55811 0.41776 0.04516 0.0
Dy492 Dy 0.85498 0.31299 0.28423 0.0
C493 C 0.65093 0.24123 0.20826 0.0
C494 C 0.94175 0.32063 0.34257 0.0
Dy495 Dy 0.73736 0.24889 0.26696 0.0
O496 O 0.94052 0.34199 0.2967 0.0
O497 O 0.89572 0.30049 0.35797 0.0
O498 O 0.86758 0.31007 0.19411 0.0
O499 O 0.81027 0.25452 0.22778 0.0
C500 C 0.82795 0.26924 0.18434 0.0
C501 C 0.76418 0.29228 0.36693 0.0
O502 O 0.77856 0.17038 0.25957 0.0
O503 O 0.85854 0.21882 0.29274 0.0
O504 O 0.65195 0.21977 0.2541 0.0
O505 O 0.69699 0.26154 0.19308 0.0
O506 O 0.72456 0.25148 0.35694 0.0
O507 O 0.78197 0.30717 0.32352 0.0
O508 O 0.814 0.39161 0.29147 0.0
O509 O 0.73387 0.34315 0.25867 0.0
C510 C 0.82755 0.17055 0.27527 0.0
C511 C 0.76499 0.39144 0.27587 0.0
Dy512 Dy 0.04596 0.52132 0.58587 0.0
C513 C 0.05993 0.51938 0.36253 0.0
C514 C 0.03158 0.54067 0.68995 0.0
Dy515 Dy 0.04616 0.53663 0.46691 0.0
O516 O 0.02925 0.57782 0.65609 0.0
O517 O 0.04085 0.49224 0.66711 0.0
O518 O 0.08798 0.44562 0.57224 0.0
O519 O 0.037 0.46488 0.51438 0.0
C520 C 0.07018 0.43415 0.52371 0.0
C521 C 0.0219 0.62381 0.52906 0.0
O522 O 0.96497 0.497 0.47201 0.0
O523 O 0.96114 0.50178 0.56468 0.0
O524 O 0.05398 0.56833 0.38686 0.0
O525 O 0.05913 0.48035 0.39509 0.0
O526 O 1.0038 0.61194 0.4807 0.0
O527 O 0.05523 0.5932 0.53831 0.0
O528 O 0.12693 0.56149 0.58076 0.0
O529 O 0.13109 0.55376 0.48811 0.0
C530 C 0.9392 0.49188 0.51661 0.0
C531 C 0.15294 0.56482 0.53619 0.0
Dy532 Dy 0.73963 0.79095 0.27344 0.0
C533 C 0.95641 0.78809 0.2581 0.0
C534 C 0.63699 0.778 0.29591 0.0
Dy535 Dy 0.85312 0.77301 0.27819 0.0
O536 O 0.66598 0.82662 0.28957 0.0
O537 O 0.66364 0.73658 0.28846 0.0
O538 O 0.76114 0.86683 0.22536 0.0
O539 O 0.81375 0.84689 0.28097 0.0
C540 C 0.80833 0.87832 0.24416 0.0
C541 C 0.78421 0.68537 0.30695 0.0
O542 O 0.84812 0.80953 0.36308 0.0
O543 O 0.75891 0.80733 0.36222 0.0
O544 O 0.92779 0.73888 0.26305 0.0
O545 O 0.92885 0.82873 0.26507 0.0
O546 O 0.83132 0.69682 0.32601 0.0
O547 O 0.77912 0.71712 0.27035 0.0
O548 O 0.74399 0.75371 0.18879 0.0
O549 O 0.83334 0.7562 0.1893 0.0
C550 C 0.80427 0.81559 0.38788 0.0
C551 C 0.78776 0.74768 0.16381 0.0
Dy552 Dy 0.81176 0.27803 0.71494 0.0
C553 C 0.78516 0.25876 0.93905 0.0
C554 C 0.79297 0.31058 0.61965 0.0
Dy555 Dy 0.77615 0.28399 0.83858 0.0
O556 O 0.82341 0.2733 0.62676 0.0
O557 O 0.77528 0.33098 0.66405 0.0
O558 O 0.89084 0.25301 0.72926 0.0
O559 O 0.83916 0.26368 0.7904 0.0
C560 C 0.88401 0.25308 0.78078 0.0
C561 C 0.71353 0.31867 0.76829 0.0
O562 O 0.82935 0.36549 0.84002 0.0
O563 O 0.84731 0.36526 0.74862 0.0
O564 O 0.74084 0.25785 0.91525 0.0
O565 O 0.82349 0.27512 0.90878 0.0
O566 O 0.7142 0.33665 0.81908 0.0
O567 O 0.74264 0.28157 0.7614 0.0
O568 O 0.76348 0.19334 0.71395 0.0
O569 O 0.74777 0.19343 0.80623 0.0
C570 C 0.85281 0.38778 0.79874 0.0
C571 C 0.74327 0.16949 0.75621 0.0
Dy572 Dy 0.81115 0.84871 0.7923 0.0
C573 C 0.82724 0.62984 0.79483 0.0
C574 C 0.76594 0.92969 0.75605 0.0
Dy575 Dy 0.78191 0.71082 0.7582 0.0
O576 O 0.80023 0.9403 0.79514 0.0
O577 O 0.75866 0.87694 0.73707 0.0
O578 O 0.82353 0.83983 0.8816 0.0
O579 O 0.80269 0.77019 0.82665 0.0
C580 C 0.80986 0.78392 0.87614 0.0
C581 C 0.78263 0.77618 0.67458 0.0
O582 O 0.7071 0.72409 0.79864 0.0
O583 O 0.72973 0.82351 0.82159 0.0
O584 O 0.79289 0.61906 0.75578 0.0
O585 O 0.83464 0.68276 0.81338 0.0
O586 O 0.76879 0.72027 0.66894 0.0
O587 O 0.79046 0.78941 0.72401 0.0
O588 O 0.88597 0.83544 0.75197 0.0
O589 O 0.86315 0.73612 0.72845 0.0
C590 C 0.69751 0.77406 0.82207 0.0
C591 C 0.89542 0.78557 0.72822 0.0
Dy592 Dy 0.49038 0.50189 0.50315 0.0
C593 C 0.70111 0.54331 0.52995 0.0
C594 C 0.39124 0.52111 0.51622 0.0
Dy595 Dy 0.60238 0.56325 0.54544 0.0
O596 O 0.41286 0.51275 0.47006 0.0
O597 O 0.42096 0.50967 0.55316 0.0
O598 O 0.52581 0.46113 0.42922 0.0
O599 O 0.56254 0.5375 0.47031 0.0
C600 C 0.56824 0.49952 0.43334 0.0
C601 C 0.52416 0.5653 0.61529 0.0
O602 O 0.58086 0.63851 0.50778 0.0
O603 O 0.49545 0.59492 0.48853 0.0
O604 O 0.68166 0.55542 0.57665 0.0
O605 O 0.6693 0.55097 0.49341 0.0
O606 O 0.56681 0.60336 0.61984 0.0
O607 O 0.5301 0.52779 0.57805 0.0
O608 O 0.51208 0.42703 0.5417 0.0
O609 O 0.59737 0.47075 0.56143 0.0
C610 C 0.53338 0.63924 0.48903 0.0
C611 C 0.55949 0.42641 0.56082 0.0
Dy612 Dy 0.10925 0.53654 0.0169 0.0
C613 C 0.89704 0.57548 0.01873 0.0
C614 C 0.19571 0.49063 0.03594 0.0
Dy615 Dy 0.98413 0.5318 0.03883 0.0
O616 O 0.19302 0.52762 1.00105 0.0
O617 O 0.15218 0.48049 0.0606 0.0
O618 O 0.09961 0.57745 0.93962 0.0
O619 O 0.03841 0.52817 0.97608 0.0
C620 C 0.04941 0.56069 0.94063 0.0
C621 C 0.04381 0.5063 0.11434 0.0
O622 O 0.98126 0.44513 0.99454 0.0
O623 O 0.07131 0.44549 0.99101 0.0
O624 O 0.90003 0.53899 0.05402 0.0
O625 O 0.94075 0.58675 0.99462 0.0
O626 O 0.99368 0.48892 0.11484 0.0
O627 O 0.05494 0.54005 0.07984 0.0
O628 O 0.11178 0.62393 0.06023 0.0
O629 O 0.0216 0.62279 0.06528 0.0
C630 C 0.0223 0.41973 0.98323 0.0
C631 C 0.07057 0.64899 0.07215 0.0
loop_
_geom_bond_atom_site_label_1
_geom_bond_atom_site_label_2
_geom_bond_distance
_geom_bond_site_symmetry_2
_ccdc_geom_bond_type
In0 O1 2.294 . S
In0 O2 2.326 . S
In0 O6 2.266 1_455 S
In0 O7 2.326 1_455 S
In0 O8 2.266 . S
In0 O9 2.326 . S
In0 O11 2.294 . S
In0 O12 2.326 . S
O1 In0 2.294 . S
O1 C10 1.240 . S
O2 In0 2.326 . S
O2 C10 1.252 . S
C3 O6 1.252 . S
C3 O7 1.260 . S
C4 O11 1.240 . S
C4 O12 1.252 . S
C5 O8 1.252 . S
C5 O9 1.260 . S
O6 In0 2.266 1_655 S
O6 C3 1.252 . S
O7 In0 2.326 1_655 S
O7 C3 1.260 . S
O8 In0 2.266 . S
O8 C5 1.252 . S
O9 In0 2.326 . S
O9 C5 1.260 . S
C10 O1 1.240 . S
C10 O2 1.252 . S
O11 In0 2.294 . S
O11 C4 1.240 . S
O12 In0 2.326 . S
O12 C4 1.252 . S
In13 O14 2.294 . S
In13 O15 2.326 . S
In13 O19 2.266 1_455 S
In13 O20 2.326 1_455 S
In13 O21 2.266 1_455 S
In13 O22 2.326 1_455 S
In13 O24 2.294 . S
In13 O25 2.326 . S
O14 In13 2.294 . S
O14 C23 1.240 . S
O15 In13 2.326 . S
O15 C23 1.252 . S
C16 O19 1.252 . S
C16 O20 1.260 . S
C17 O24 1.240 . S
C17 O25 1.252 . S
C18 O21 1.252 . S
C18 O22 1.260 . S
O19 In13 2.266 1_655 S
O19 C16 1.252 . S
O20 In13 2.326 1_655 S
O20 C16 1.260 . S
O21 In13 2.266 1_655 S
O21 C18 1.252 . S
O22 In13 2.326 1_655 S
O22 C18 1.260 . S
C23 O14 1.240 . S
C23 O15 1.252 . S
O24 In13 2.294 . S
O24 C17 1.240 . S
O25 In13 2.326 . S
O25 C17 1.252 . S
In26 O27 2.294 . S
In26 O28 2.326 . S
In26 O32 2.266 . S
In26 O33 2.326 . S
In26 O34 2.266 . S
In26 O35 2.326 . S
In26 O37 2.294 . S
In26 O38 2.326 . S
O27 In26 2.294 . S
O27 C36 1.240 . S
O28 In26 2.326 . S
O28 C36 1.252 . S
C29 O32 1.252 . S
C29 O33 1.260 . S
C30 O37 1.240 . S
C30 O38 1.252 . S
C31 O34 1.252 . S
C31 O35 1.260 . S
O32 In26 2.266 . S
O32 C29 1.252 . S
O33 In26 2.326 . S
O33 C29 1.260 . S
O34 In26 2.266 . S
O34 C31 1.252 . S
O35 In26 2.326 . S
O35 C31 1.260 . S
C36 O27 1.240 . S
C36 O28 1.252 . S
O37 In26 2.294 . S
O37 C30 1.240 . S
O38 In26 2.326 . S
O38 C30 1.252 . S
In39 O40 2.294 . S
In39 O41 2.326 . S
In39 O45 2.266 . S
In39 O46 2.326 . S
In39 O47 2.266 . S
In39 O48 2.326 . S
In39 O50 2.294 . S
In39 O51 2.326 . S
O40 In39 2.294 . S
O40 C49 1.240 . S
O41 In39 2.326 . S
O41 C49 1.252 . S
C42 O45 1.252 . S
C42 O46 1.260 . S
C43 O50 1.240 . S
C43 O51 1.252 . S
C44 O47 1.252 . S
C44 O48 1.260 . S
O45 In39 2.266 . S
O45 C42 1.252 . S
O46 In39 2.326 . S
O46 C42 1.260 . S
O47 In39 2.266 . S
O47 C44 1.252 . S
O48 In39 2.326 . S
O48 C44 1.260 . S
C49 O40 1.240 . S
C49 O41 1.252 . S
O50 In39 2.294 . S
O50 C43 1.240 . S
O51 In39 2.326 . S
O51 C43 1.252 . S
In52 O53 2.294 . S
In52 O54 2.326 . S
In52 O58 2.266 . S
In52 O59 2.326 . S
In52 O60 2.266 . S
In52 O61 2.326 . S
In52 O63 2.294 . S
In52 O64 2.326 1_455 S
O53 In52 2.294 . S
O53 C62 1.240 . S
O54 In52 2.326 . S
O54 C62 1.252 . S
C55 O58 1.252 . S
C55 O59 1.260 . S
C56 O63 1.240 1_655 S
C56 O64 1.252 . S
C57 O60 1.252 . S
C57 O61 1.260 . S
O58 In52 2.266 . S
O58 C55 1.252 . S
O59 In52 2.326 . S
O59 C55 1.260 . S
O60 In52 2.266 . S
O60 C57 1.252 . S
O61 In52 2.326 . S
O61 C57 1.260 . S
C62 O53 1.240 . S
C62 O54 1.252 . S
O63 In52 2.294 . S
O63 C56 1.240 1_455 S
O64 In52 2.326 1_655 S
O64 C56 1.252 . S
In65 O66 2.294 . S
In65 O67 2.326 . S
In65 O71 2.266 . S
In65 O72 2.326 . S
In65 O73 2.266 . S
In65 O74 2.326 . S
In65 O76 2.294 . S
In65 O77 2.326 . S
O66 In65 2.294 . S
O66 C75 1.240 . S
O67 In65 2.326 . S
O67 C75 1.252 . S
C68 O71 1.252 . S
C68 O72 1.260 . S
C69 O76 1.240 . S
C69 O77 1.252 . S
C70 O73 1.252 . S
C70 O74 1.260 . S
O71 In65 2.266 . S
O71 C68 1.252 . S
O72 In65 2.326 . S
O72 C68 1.260 . S
O73 In65 2.266 . S
O73 C70 1.252 . S
O74 In65 2.326 . S
O74 C70 1.260 . S
C75 O66 1.240 . S
C75 O67 1.252 . S
O76 In65 2.294 . S
O76 C69 1.240 . S
O77 In65 2.326 . S
O77 C69 1.252 . S
In78 O79 2.294 . S
In78 O80 2.326 . S
In78 O84 2.266 . S
In78 O85 2.326 . S
In78 O86 2.266 . S
In78 O87 2.326 . S
In78 O89 2.294 . S
In78 O90 2.326 . S
O79 In78 2.294 . S
O79 C88 1.240 . S
O80 In78 2.326 . S
O80 C88 1.252 . S
C81 O84 1.252 . S
C81 O85 1.260 . S
C82 O89 1.240 . S
C82 O90 1.252 . S
C83 O86 1.252 . S
C83 O87 1.260 . S
O84 In78 2.266 . S
O84 C81 1.252 . S
O85 In78 2.326 . S
O85 C81 1.260 . S
O86 In78 2.266 . S
O86 C83 1.252 . S
O87 In78 2.326 . S
O87 C83 1.260 . S
C88 O79 1.240 . S
C88 O80 1.252 . S
O89 In78 2.294 . S
O89 C82 1.240 . S
O90 In78 2.326 . S
O90 C82 1.252 . S
In91 O92 2.294 . S
In91 O93 2.323 . S
In91 O97 2.266 . S
In91 O98 2.326 . S
In91 O99 2.266 1_455 S
In91 O100 2.326 1_455 S
In91 O102 2.294 . S
In91 O103 2.326 . S
O92 In91 2.294 . S
O92 C101 1.240 . S
O93 In91 2.323 . S
O93 C101 1.254 . S
C94 O97 1.252 . S
C94 O98 1.260 . S
C95 O102 1.240 . S
C95 O103 1.252 . S
C96 O99 1.252 . S
C96 O100 1.260 . S
O97 In91 2.266 . S
O97 C94 1.252 . S
O98 In91 2.326 . S
O98 C94 1.260 . S
O99 In91 2.266 1_655 S
O99 C96 1.252 . S
O100 In91 2.326 1_655 S
O100 C96 1.260 . S
C101 O92 1.240 . S
C101 O93 1.254 . S
O102 In91 2.294 . S
O102 C95 1.240 . S
O103 In91 2.326 . S
O103 C95 1.252 . S
In104 O105 2.294 . S
In104 O106 2.326 . S
In104 O110 2.266 . S
In104 O111 2.326 . S
In104 O112 2.266 1_545 S
In104 O113 2.326 1_545 S
In104 O115 2.294 . S
In104 O116 2.326 . S
O105 In104 2.294 . S
O105 C114 1.240 . S
O106 In104 2.326 . S
O106 C114 1.252 . S
C107 O110 1.252 . S
C107 O111 1.260 . S
C108 O115 1.240 . S
C108 O116 1.252 . S
C109 O112 1.252 . S
C109 O113 1.260 . S
O110 In104 2.266 . S
O110 C107 1.252 . S
O111 In104 2.326 . S
O111 C107 1.260 . S
O112 In104 2.266 1_565 S
O112 C109 1.252 . S
O113 In104 2.326 1_565 S
O113 C109 1.260 . S
C114 O105 1.240 . S
C114 O106 1.252 . S
O115 In104 2.294 . S
O115 C108 1.240 . S
O116 In104 2.326 . S
O116 C108 1.252 . S
In117 O118 2.294 . S
In117 O119 2.326 . S
In117 O123 2.266 . S
In117 O124 2.326 . S
In117 O125 2.266 . S
In117 O126 2.326 . S
In117 O128 2.294 . S
In117 O129 2.326 . S
O118 In117 2.294 . S
O118 C127 1.240 . S
O119 In117 2.326 . S
O119 C127 1.252 . S
C120 O123 1.252 . S
C120 O124 1.260 . S
C121 O128 1.240 . S
C121 O129 1.252 . S
C122 O125 1.252 . S
C122 O126 1.260 . S
O123 In117 2.266 . S
O123 C120 1.252 . S
O124 In117 2.326 . S
O124 C120 1.260 . S
O125 In117 2.266 . S
O125 C122 1.252 . S
O126 In117 2.326 . S
O126 C122 1.260 . S
C127 O118 1.240 . S
C127 O119 1.252 . S
O128 In117 2.294 . S
O128 C121 1.240 . S
O129 In117 2.326 . S
O129 C121 1.252 . S
In130 O131 2.294 1_545 S
In130 O132 2.326 1_545 S
In130 O136 2.266 . S
In130 O137 2.326 . S
In130 O138 2.266 . S
In130 O139 2.326 . S
In130 O141 2.294 1_545 S
In130 O142 2.326 1_545 S
O131 In130 2.294 1_565 S
O131 C140 1.240 . S
O132 In130 2.326 1_565 S
O132 C140 1.252 . S
C133 O136 1.252 . S
C133 O137 1.260 . S
C134 O141 1.240 . S
C134 O142 1.252 . S
C135 O138 1.252 . S
C135 O139 1.260 . S
O136 In130 2.266 . S
O136 C133 1.252 . S
O137 In130 2.326 . S
O137 C133 1.260 . S
O138 In130 2.266 . S
O138 C135 1.252 . S
O139 In130 2.326 . S
O139 C135 1.260 . S
C140 O131 1.240 . S
C140 O132 1.252 . S
O141 In130 2.294 1_565 S
O141 C134 1.240 . S
O142 In130 2.326 1_565 S
O142 C134 1.252 . S
In143 O144 2.294 . S
In143 O145 2.326 . S
In143 O149 2.266 1_554 S
In143 O150 2.326 1_554 S
In143 O151 2.266 . S
In143 O152 2.326 . S
In143 O154 2.294 . S
In143 O155 2.326 . S
O144 In143 2.294 . S
O144 C153 1.240 . S
O145 In143 2.326 . S
O145 C153 1.252 . S
C146 O149 1.252 . S
C146 O150 1.260 . S
C147 O154 1.240 . S
C147 O155 1.252 . S
C148 O151 1.252 . S
C148 O152 1.260 . S
O149 In143 2.266 1_556 S
O149 C146 1.252 . S
O150 In143 2.326 1_556 S
O150 C146 1.260 . S
O151 In143 2.266 . S
O151 C148 1.252 . S
O152 In143 2.326 . S
O152 C148 1.260 . S
C153 O144 1.240 . S
C153 O145 1.252 . S
O154 In143 2.294 . S
O154 C147 1.240 . S
O155 In143 2.326 . S
O155 C147 1.252 . S
In156 O157 2.294 . S
In156 O158 2.326 . S
In156 O162 2.266 1_554 S
In156 O163 2.326 1_554 S
In156 O164 2.266 . S
In156 O165 2.326 . S
In156 O167 2.294 . S
In156 O168 2.326 . S
O157 In156 2.294 . S
O157 C166 1.240 . S
O158 In156 2.326 . S
O158 C166 1.252 . S
C159 O162 1.252 . S
C159 O163 1.260 . S
C160 O167 1.240 . S
C160 O168 1.252 . S
C161 O164 1.252 . S
C161 O165 1.260 . S
O162 In156 2.266 1_556 S
O162 C159 1.252 . S
O163 In156 2.326 1_556 S
O163 C159 1.260 . S
O164 In156 2.266 . S
O164 C161 1.252 . S
O165 In156 2.326 . S
O165 C161 1.260 . S
C166 O157 1.240 . S
C166 O158 1.252 . S
O167 In156 2.294 . S
O167 C160 1.240 . S
O168 In156 2.326 . S
O168 C160 1.252 . S
In169 O170 2.294 . S
In169 O171 2.326 . S
In169 O175 2.266 . S
In169 O176 2.326 . S
In169 O177 2.266 1_554 S
In169 O178 2.326 1_554 S
In169 O180 2.294 . S
In169 O181 2.326 . S
O170 In169 2.294 . S
O170 C179 1.240 . S
O171 In169 2.326 . S
O171 C179 1.252 . S
C172 O175 1.252 . S
C172 O176 1.260 . S
C173 O180 1.240 . S
C173 O181 1.252 . S
C174 O177 1.252 . S
C174 O178 1.260 . S
O175 In169 2.266 . S
O175 C172 1.252 . S
O176 In169 2.326 . S
O176 C172 1.260 . S
O177 In169 2.266 1_556 S
O177 C174 1.252 . S
O178 In169 2.326 1_556 S
O178 C174 1.260 . S
C179 O170 1.240 . S
C179 O171 1.252 . S
O180 In169 2.294 . S
O180 C173 1.240 . S
O181 In169 2.326 . S
O181 C173 1.252 . S
In182 O183 2.294 . S
In182 O184 2.326 . S
In182 O188 2.266 . S
In182 O189 2.326 . S
In182 O190 2.266 . S
In182 O191 2.326 . S
In182 O193 2.294 . S
In182 O194 2.326 . S
O183 In182 2.294 . S
O183 C192 1.240 . S
O184 In182 2.326 . S
O184 C192 1.252 . S
C185 O188 1.252 . S
C185 O189 1.260 . S
C186 O193 1.240 . S
C186 O194 1.252 . S
C187 O190 1.252 . S
C187 O191 1.260 . S
O188 In182 2.266 . S
O188 C185 1.252 . S
O189 In182 2.326 . S
O189 C185 1.260 . S
O190 In182 2.266 . S
O190 C187 1.252 . S
O191 In182 2.326 . S
O191 C187 1.260 . S
C192 O183 1.240 . S
C192 O184 1.252 . S
O193 In182 2.294 . S
O193 C186 1.240 . S
O194 In182 2.326 . S
O194 C186 1.252 . S
In195 O196 2.294 . S
In195 O197 2.326 . S
In195 O201 2.266 . S
In195 O202 2.326 . S
In195 O203 2.266 . S
In195 O204 2.326 . S
In195 O206 2.294 . S
In195 O207 2.326 . S
O196 In195 2.294 . S
O196 C205 1.240 . S
O197 In195 2.326 . S
O197 C205 1.252 . S
C198 O201 1.252 . S
C198 O202 1.260 . S
C199 O206 1.240 . S
C199 O207 1.252 . S
C200 O203 1.252 . S
C200 O204 1.260 . S
O201 In195 2.266 . S
O201 C198 1.252 . S
O202 In195 2.326 . S
O202 C198 1.260 . S
O203 In195 2.266 . S
O203 C200 1.252 . S
O204 In195 2.326 . S
O204 C200 1.260 . S
C205 O196 1.240 . S
C205 O197 1.252 . S
O206 In195 2.294 . S
O206 C199 1.240 . S
O207 In195 2.326 . S
O207 C199 1.252 . S
In208 O209 2.294 . S
In208 O210 2.326 . S
In208 O214 2.266 . S
In208 O215 2.326 . S
In208 O216 2.266 1_545 S
In208 O217 2.326 1_545 S
In208 O219 2.294 . S
In208 O220 2.326 . S
O209 In208 2.294 . S
O209 C218 1.240 . S
O210 In208 2.326 . S
O210 C218 1.252 . S
C211 O214 1.252 . S
C211 O215 1.260 . S
C212 O219 1.240 . S
C212 O220 1.252 . S
C213 O216 1.252 . S
C213 O217 1.260 . S
O214 In208 2.266 . S
O214 C211 1.252 . S
O215 In208 2.326 . S
O215 C211 1.260 . S
O216 In208 2.266 1_565 S
O216 C213 1.252 . S
O217 In208 2.326 1_565 S
O217 C213 1.260 . S
C218 O209 1.240 . S
C218 O210 1.252 . S
O219 In208 2.294 . S
O219 C212 1.240 . S
O220 In208 2.326 . S
O220 C212 1.252 . S
In221 O222 2.294 . S
In221 O223 2.326 . S
In221 O227 2.266 . S
In221 O228 2.326 . S
In221 O229 2.266 . S
In221 O230 2.326 . S
In221 O232 2.294 . S
In221 O233 2.326 . S
O222 In221 2.294 . S
O222 C231 1.240 . S
O223 In221 2.326 . S
O223 C231 1.252 . S
C224 O227 1.252 . S
C224 O228 1.260 . S
C225 O232 1.240 . S
C225 O233 1.252 . S
C226 O229 1.252 . S
C226 O230 1.260 . S
O227 In221 2.266 . S
O227 C224 1.252 . S
O228 In221 2.326 . S
O228 C224 1.260 . S
O229 In221 2.266 . S
O229 C226 1.252 . S
O230 In221 2.326 . S
O230 C226 1.260 . S
C231 O222 1.240 . S
C231 O223 1.252 . S
O232 In221 2.294 . S
O232 C225 1.240 . S
O233 In221 2.326 . S
O233 C225 1.252 . S
In234 O235 2.294 . S
In234 O236 2.326 . S
In234 O240 2.266 . S
In234 O241 2.326 . S
In234 O242 2.266 . S
In234 O243 2.326 . S
In234 O245 2.294 . S
In234 O246 2.326 . S
O235 In234 2.294 . S
O235 C244 1.240 . S
O236 In234 2.326 . S
O236 C244 1.252 . S
C237 O240 1.252 . S
C237 O241 1.260 . S
C238 O245 1.240 . S
C238 O246 1.252 . S
C239 O242 1.252 . S
C239 O243 1.260 . S
O240 In234 2.266 . S
O240 C237 1.252 . S
O241 In234 2.326 . S
O241 C237 1.260 . S
O242 In234 2.266 . S
O242 C239 1.252 . S
O243 In234 2.326 . S
O243 C239 1.260 . S
C244 O235 1.240 . S
C244 O236 1.252 . S
O245 In234 2.294 . S
O245 C238 1.240 . S
O246 In234 2.326 . S
O246 C238 1.252 . S
In247 O248 2.294 1_545 S
In247 O249 2.326 1_545 S
In247 O253 2.266 . S
In247 O254 2.326 . S
In247 O255 2.266 . S
In247 O256 2.326 . S
In247 O258 2.294 . S
In247 O259 2.326 . S
O248 In247 2.294 1_565 S
O248 C257 1.240 . S
O249 In247 2.326 1_565 S
O249 C257 1.252 . S
C250 O253 1.252 . S
C250 O254 1.260 . S
C251 O258 1.240 . S
C251 O259 1.252 . S
C252 O255 1.252 . S
C252 O256 1.260 . S
O253 In247 2.266 . S
O253 C250 1.252 . S
O254 In247 2.326 . S
O254 C250 1.260 . S
O255 In247 2.266 . S
O255 C252 1.252 . S
O256 In247 2.326 . S
O256 C252 1.260 . S
C257 O248 1.240 . S
C257 O249 1.252 . S
O258 In247 2.294 . S
O258 C251 1.240 . S
O259 In247 2.326 . S
O259 C251 1.252 . S
In260 O261 2.294 . S
In260 O262 2.326 . S
In260 O266 2.266 1_554 S
In260 O267 2.326 . S
In260 O268 2.266 1_554 S
In260 O269 2.326 1_554 S
In260 O271 2.294 . S
In260 O272 2.326 . S
O261 In260 2.294 . S
O261 C270 1.240 . S
O262 In260 2.326 . S
O262 C270 1.252 . S
C263 O266 1.252 . S
C263 O267 1.259 1_556 S
C264 O271 1.240 . S
C264 O272 1.252 . S
C265 O268 1.252 . S
C265 O269 1.260 . S
O266 In260 2.266 1_556 S
O266 C263 1.252 . S
O267 In260 2.326 . S
O267 C263 1.259 1_554 S
O268 In260 2.266 1_556 S
O268 C265 1.252 . S
O269 In260 2.326 1_556 S
O269 C265 1.260 . S
C270 O261 1.240 . S
C270 O262 1.252 . S
O271 In260 2.294 . S
O271 C264 1.240 . S
O272 In260 2.326 . S
O272 C264 1.252 . S
In273 O274 2.294 . S
In273 O275 2.326 . S
In273 O279 2.266 . S
In273 O280 2.326 . S
In273 O281 2.266 . S
In273 O282 2.326 . S
In273 O284 2.294 . S
In273 O285 2.326 . S
O274 In273 2.294 . S
O274 C283 1.240 . S
O275 In273 2.326 . S
O275 C283 1.252 . S
C276 O279 1.252 . S
C276 O280 1.260 . S
C277 O284 1.240 . S
C277 O285 1.252 . S
C278 O281 1.252 . S
C278 O282 1.260 . S
O279 In273 2.266 . S
O279 C276 1.252 . S
O280 In273 2.326 . S
O280 C276 1.260 . S
O281 In273 2.266 . S
O281 C278 1.252 . S
O282 In273 2.326 . S
O282 C278 1.260 . S
C283 O274 1.240 . S
C283 O275 1.252 . S
O284 In273 2.294 . S
O284 C277 1.240 . S
O285 In273 2.326 . S
O285 C277 1.252 . S
In286 O287 2.294 . S
In286 O288 2.326 . S
In286 O292 2.266 . S
In286 O293 2.326 . S
In286 O294 2.266 . S
In286 O295 2.326 . S
In286 O297 2.294 . S
In286 O298 2.326 . S
O287 In286 2.294 . S
O287 C296 1.240 . S
O288 In286 2.326 . S
O288 C296 1.252 . S
C289 O292 1.252 . S
C289 O293 1.260 . S
C290 O297 1.240 . S
C290 O298 1.252 . S
C291 O294 1.252 . S
C291 O295 1.260 . S
O292 In286 2.266 . S
O292 C289 1.252 . S
O293 In286 2.326 . S
O293 C289 1.260 . S
O294 In286 2.266 . S
O294 C291 1.252 . S
O295 In286 2.326 . S
O295 C291 1.260 . S
C296 O287 1.240 . S
C296 O288 1.252 . S
O297 In286 2.294 . S
O297 C290 1.240 . S
O298 In286 2.326 . S
O298 C290 1.252 . S
In299 O300 2.294 . S
In299 O301 2.326 . S
In299 O305 2.266 . S
In299 O306 2.326 . S
In299 O307 2.266 . S
In299 O308 2.326 . S
In299 O310 2.294 . S
In299 O311 2.326 . S
O300 In299 2.294 . S
O300 C309 1.240 . S
O301 In299 2.326 . S
O301 C309 1.252 . S
C302 O305 1.252 . S
C302 O306 1.260 . S
C303 O310 1.240 . S
C303 O311 1.252 . S
C304 O307 1.252 . S
C304 O308 1.260 . S
O305 In299 2.266 . S
O305 C302 1.252 . S
O306 In299 2.326 . S
O306 C302 1.260 . S
O307 In299 2.266 . S
O307 C304 1.252 . S
O308 In299 2.326 . S
O308 C304 1.260 . S
C309 O300 1.240 . S
C309 O301 1.252 . S
O310 In299 2.294 . S
O310 C303 1.240 . S
O311 In299 2.326 . S
O311 C303 1.252 . S
Dy312 O316 2.398 1_554 S
Dy312 O317 2.491 . S
Dy312 O318 2.403 1_654 S
Dy312 O319 2.664 1_654 S
Dy312 O323 2.326 1_654 S
Dy312 O327 2.310 1_655 S
Dy312 O328 2.351 1_645 S
C313 O324 1.185 . S
C313 O325 1.355 . S
C314 O316 1.185 . S
C314 O317 1.355 1_556 S
Dy315 O319 2.310 1_554 S
Dy315 O322 2.351 . S
Dy315 O324 2.398 . S
Dy315 O325 2.491 . S
Dy315 O326 2.403 . S
Dy315 O327 2.664 . S
Dy315 O329 2.326 1_545 S
O316 Dy312 2.398 1_556 S
O316 C314 1.185 . S
O317 Dy312 2.491 . S
O317 C314 1.355 1_554 S
O318 Dy312 2.403 1_456 S
O318 C320 1.254 . S
O319 Dy312 2.664 1_456 S
O319 Dy315 2.310 1_556 S
O319 C320 1.268 . S
C320 O318 1.254 . S
C320 O319 1.268 . S
C321 O326 1.254 . S
C321 O327 1.268 . S
O322 Dy315 2.351 . S
O322 C330 1.249 . S
O323 Dy312 2.326 1_456 S
O323 C330 1.267 1_556 S
O324 C313 1.185 . S
O324 Dy315 2.398 . S
O325 C313 1.355 . S
O325 Dy315 2.491 . S
O326 Dy315 2.403 . S
O326 C321 1.254 . S
O327 Dy312 2.310 1_455 S
O327 Dy315 2.664 . S
O327 C321 1.268 . S
O328 Dy312 2.351 1_465 S
O328 C331 1.249 . S
O329 Dy315 2.326 1_565 S
O329 C331 1.267 . S
C330 O322 1.249 . S
C330 O323 1.267 1_554 S
C331 O328 1.249 . S
C331 O329 1.267 . S
Dy332 O336 2.398 . S
Dy332 O337 2.491 . S
Dy332 O338 2.403 . S
Dy332 O339 2.664 . S
Dy332 O343 2.326 . S
Dy332 O347 2.310 . S
Dy332 O348 2.351 . S
C333 O344 1.185 . S
C333 O345 1.355 . S
C334 O336 1.185 . S
C334 O337 1.355 . S
Dy335 O339 2.310 . S
Dy335 O342 2.351 . S
Dy335 O344 2.398 . S
Dy335 O345 2.491 . S
Dy335 O346 2.403 . S
Dy335 O347 2.664 . S
Dy335 O349 2.326 . S
O336 Dy332 2.398 . S
O336 C334 1.185 . S
O337 Dy332 2.491 . S
O337 C334 1.355 . S
O338 Dy332 2.403 . S
O338 C340 1.254 . S
O339 Dy332 2.664 . S
O339 Dy335 2.310 . S
O339 C340 1.268 . S
C340 O338 1.254 . S
C340 O339 1.268 . S
C341 O346 1.254 . S
C341 O347 1.268 . S
O342 Dy335 2.351 . S
O342 C350 1.249 . S
O343 Dy332 2.326 . S
O343 C350 1.267 . S
O344 C333 1.185 . S
O344 Dy335 2.398 . S
O345 C333 1.355 . S
O345 Dy335 2.491 . S
O346 Dy335 2.403 . S
O346 C341 1.254 . S
O347 Dy332 2.310 . S
O347 Dy335 2.664 . S
O347 C341 1.268 . S
O348 Dy332 2.351 . S
O348 C351 1.249 . S
O349 Dy335 2.326 . S
O349 C351 1.267 . S
C350 O342 1.249 . S
C350 O343 1.267 . S
C351 O348 1.249 . S
C351 O349 1.267 . S
Dy352 O356 2.398 1_545 S
Dy352 O357 2.491 1_545 S
Dy352 O358 2.403 . S
Dy352 O359 2.664 . S
Dy352 O363 2.326 1_545 S
Dy352 O367 2.310 . S
Dy352 O368 2.351 . S
C353 O364 1.185 . S
C353 O365 1.355 . S
C354 O356 1.185 . S
C354 O357 1.355 . S
Dy355 O359 2.310 . S
Dy355 O362 2.351 1_545 S
Dy355 O364 2.398 . S
Dy355 O365 2.491 . S
Dy355 O366 2.403 . S
Dy355 O367 2.664 . S
Dy355 O369 2.326 . S
O356 Dy352 2.398 1_565 S
O356 C354 1.185 . S
O357 Dy352 2.491 1_565 S
O357 C354 1.355 . S
O358 Dy352 2.403 . S
O358 C360 1.254 . S
O359 Dy352 2.664 . S
O359 Dy355 2.310 . S
O359 C360 1.268 . S
C360 O358 1.254 . S
C360 O359 1.268 . S
C361 O366 1.257 . S
C361 O367 1.269 . S
O362 Dy355 2.351 1_565 S
O362 C370 1.249 . S
O363 Dy352 2.326 1_565 S
O363 C370 1.267 . S
O364 C353 1.185 . S
O364 Dy355 2.398 . S
O365 C353 1.355 . S
O365 Dy355 2.491 . S
O366 Dy355 2.403 . S
O366 C361 1.257 . S
O367 Dy352 2.310 . S
O367 Dy355 2.664 . S
O367 C361 1.269 . S
O368 Dy352 2.351 . S
O368 C371 1.249 . S
O369 Dy355 2.326 . S
O369 C371 1.267 . S
C370 O362 1.249 . S
C370 O363 1.267 . S
C371 O368 1.249 . S
C371 O369 1.267 . S
Dy372 O376 2.398 . S
Dy372 O377 2.491 . S
Dy372 O378 2.403 . S
Dy372 O379 2.664 . S
Dy372 O383 2.326 . S
Dy372 O387 2.310 . S
Dy372 O388 2.351 . S
C373 O384 1.185 . S
C373 O385 1.355 . S
C374 O376 1.185 . S
C374 O377 1.355 . S
Dy375 O379 2.310 . S
Dy375 O382 2.351 . S
Dy375 O384 2.398 . S
Dy375 O385 2.491 . S
Dy375 O386 2.403 . S
Dy375 O387 2.664 . S
Dy375 O389 2.326 . S
O376 Dy372 2.398 . S
O376 C374 1.185 . S
O377 Dy372 2.491 . S
O377 C374 1.355 . S
O378 Dy372 2.403 . S
O378 C380 1.254 . S
O379 Dy372 2.664 . S
O379 Dy375 2.310 . S
O379 C380 1.268 . S
C380 O378 1.254 . S
C380 O379 1.268 . S
C381 O386 1.254 . S
C381 O387 1.268 . S
O382 Dy375 2.351 . S
O382 C390 1.249 . S
O383 Dy372 2.326 . S
O383 C390 1.267 . S
O384 C373 1.185 . S
O384 Dy375 2.398 . S
O385 C373 1.355 . S
O385 Dy375 2.491 . S
O386 Dy375 2.403 . S
O386 C381 1.254 . S
O387 Dy372 2.310 . S
O387 Dy375 2.664 . S
O387 C381 1.268 . S
O388 Dy372 2.351 . S
O388 C391 1.249 . S
O389 Dy375 2.326 . S
O389 C391 1.267 . S
C390 O382 1.249 . S
C390 O383 1.267 . S
C391 O388 1.249 . S
C391 O389 1.267 . S
Dy392 O396 2.399 . S
Dy392 O397 2.491 1_455 S
Dy392 O398 2.403 1_565 S
Dy392 O399 2.664 1_565 S
Dy392 O403 2.326 1_565 S
Dy392 O407 2.310 1_455 S
Dy392 O408 2.351 . S
C393 O404 1.185 . S
C393 O405 1.355 . S
C394 O396 1.183 1_645 S
C394 O397 1.355 1_545 S
Dy395 O399 2.310 . S
Dy395 O402 2.351 . S
Dy395 O404 2.398 . S
Dy395 O405 2.491 . S
Dy395 O406 2.403 1_455 S
Dy395 O407 2.664 1_445 S
Dy395 O409 2.326 1_545 S
O396 Dy392 2.399 . S
O396 C394 1.183 1_465 S
O397 Dy392 2.491 1_655 S
O397 C394 1.355 1_565 S
O398 Dy392 2.403 1_545 S
O398 C400 1.254 . S
O399 Dy392 2.664 1_545 S
O399 Dy395 2.310 . S
O399 C400 1.268 . S
C400 O398 1.254 . S
C400 O399 1.268 . S
C401 O406 1.254 1_565 S
C401 O407 1.268 . S
O402 Dy395 2.351 . S
O402 C410 1.249 . S
O403 Dy392 2.326 1_545 S
O403 C410 1.267 . S
O404 C393 1.185 . S
O404 Dy395 2.398 . S
O405 C393 1.355 . S
O405 Dy395 2.491 . S
O406 Dy395 2.403 1_655 S
O406 C401 1.254 1_545 S
O407 Dy392 2.310 1_655 S
O407 Dy395 2.664 1_665 S
O407 C401 1.268 . S
O408 Dy392 2.351 . S
O408 C411 1.249 . S
O409 Dy395 2.326 1_565 S
O409 C411 1.267 . S
C410 O402 1.249 . S
C410 O403 1.267 . S
C411 O408 1.249 . S
C411 O409 1.267 . S
Dy412 O416 2.398 . S
Dy412 O417 2.491 . S
Dy412 O418 2.403 . S
Dy412 O419 2.664 . S
Dy412 O423 2.326 . S
Dy412 O427 2.310 . S
Dy412 O428 2.351 . S
C413 O424 1.185 . S
C413 O425 1.355 . S
C414 O416 1.185 . S
C414 O417 1.355 . S
Dy415 O419 2.310 . S
Dy415 O422 2.351 . S
Dy415 O424 2.398 . S
Dy415 O425 2.491 . S
Dy415 O426 2.403 . S
Dy415 O427 2.664 . S
Dy415 O429 2.326 . S
O416 Dy412 2.398 . S
O416 C414 1.185 . S
O417 Dy412 2.491 . S
O417 C414 1.355 . S
O418 Dy412 2.403 . S
O418 C420 1.254 . S
O419 Dy412 2.664 . S
O419 Dy415 2.310 . S
O419 C420 1.268 . S
C420 O418 1.254 . S
C420 O419 1.268 . S
C421 O426 1.254 . S
C421 O427 1.268 . S
O422 Dy415 2.351 . S
O422 C430 1.249 . S
O423 Dy412 2.326 . S
O423 C430 1.267 . S
O424 C413 1.185 . S
O424 Dy415 2.398 . S
O425 C413 1.355 . S
O425 Dy415 2.491 . S
O426 Dy415 2.403 . S
O426 C421 1.254 . S
O427 Dy412 2.310 . S
O427 Dy415 2.664 . S
O427 C421 1.268 . S
O428 Dy412 2.351 . S
O428 C431 1.249 . S
O429 Dy415 2.326 . S
O429 C431 1.267 . S
C430 O422 1.249 . S
C430 O423 1.267 . S
C431 O428 1.249 . S
C431 O429 1.267 . S
Dy432 O436 2.398 1_545 S
Dy432 O437 2.491 . S
Dy432 O438 2.403 1_545 S
Dy432 O439 2.664 1_544 S
Dy432 O443 2.326 1_545 S
Dy432 O447 2.310 . S
Dy432 O448 2.351 . S
C433 O444 1.185 . S
C433 O445 1.355 . S
C434 O436 1.185 . S
C434 O437 1.355 1_565 S
Dy435 O439 2.310 1_545 S
Dy435 O442 2.351 . S
Dy435 O444 2.398 . S
Dy435 O445 2.491 . S
Dy435 O446 2.403 . S
Dy435 O447 2.664 1_556 S
Dy435 O449 2.326 . S
O436 Dy432 2.398 1_565 S
O436 C434 1.185 . S
O437 Dy432 2.491 . S
O437 C434 1.355 1_545 S
O438 Dy432 2.403 1_565 S
O438 C440 1.254 1_554 S
O439 Dy432 2.664 1_566 S
O439 Dy435 2.310 1_565 S
O439 C440 1.268 . S
C440 O438 1.254 1_556 S
C440 O439 1.268 . S
C441 O446 1.254 1_554 S
C441 O447 1.268 . S
O442 Dy435 2.351 . S
O442 C450 1.249 1_546 S
O443 Dy432 2.326 1_565 S
O443 C450 1.267 . S
O444 C433 1.185 . S
O444 Dy435 2.398 . S
O445 C433 1.355 . S
O445 Dy435 2.491 . S
O446 Dy435 2.403 . S
O446 C441 1.254 1_556 S
O447 Dy432 2.310 . S
O447 Dy435 2.664 1_554 S
O447 C441 1.268 . S
O448 Dy432 2.351 . S
O448 C451 1.249 . S
O449 Dy435 2.326 . S
O449 C451 1.267 1_556 S
C450 O442 1.249 1_564 S
C450 O443 1.267 . S
C451 O448 1.249 . S
C451 O449 1.267 1_554 S
Dy452 O456 2.398 . S
Dy452 O457 2.491 . S
Dy452 O458 2.403 . S
Dy452 O459 2.664 . S
Dy452 O463 2.326 . S
Dy452 O467 2.310 . S
Dy452 O468 2.351 . S
C453 O464 1.185 . S
C453 O465 1.355 . S
C454 O456 1.185 . S
C454 O457 1.355 . S
Dy455 O459 2.310 . S
Dy455 O462 2.351 . S
Dy455 O464 2.398 . S
Dy455 O465 2.491 . S
Dy455 O466 2.403 . S
Dy455 O467 2.664 . S
Dy455 O469 2.326 . S
O456 Dy452 2.398 . S
O456 C454 1.185 . S
O457 Dy452 2.491 . S
O457 C454 1.355 . S
O458 Dy452 2.403 . S
O458 C460 1.254 . S
O459 Dy452 2.664 . S
O459 Dy455 2.310 . S
O459 C460 1.268 . S
C460 O458 1.254 . S
C460 O459 1.268 . S
C461 O466 1.254 . S
C461 O467 1.268 . S
O462 Dy455 2.351 . S
O462 C470 1.249 . S
O463 Dy452 2.326 . S
O463 C470 1.267 . S
O464 C453 1.185 . S
O464 Dy455 2.398 . S
O465 C453 1.355 . S
O465 Dy455 2.491 . S
O466 Dy455 2.403 . S
O466 C461 1.254 . S
O467 Dy452 2.310 . S
O467 Dy455 2.664 . S
O467 C461 1.268 . S
O468 Dy452 2.351 . S
O468 C471 1.249 . S
O469 Dy455 2.326 . S
O469 C471 1.267 . S
C470 O462 1.249 . S
C470 O463 1.267 . S
C471 O468 1.249 . S
C471 O469 1.267 . S
Dy472 O476 2.398 . S
Dy472 O477 2.491 . S
Dy472 O478 2.403 . S
Dy472 O479 2.664 1_556 S
Dy472 O483 2.326 . S
Dy472 O487 2.310 . S
Dy472 O488 2.351 . S
C473 O484 1.185 . S
C473 O485 1.355 . S
C474 O476 1.185 . S
C474 O477 1.355 . S
Dy475 O479 2.310 . S
Dy475 O482 2.351 . S
Dy475 O484 2.398 . S
Dy475 O485 2.491 . S
Dy475 O486 2.403 . S
Dy475 O487 2.664 1_554 S
Dy475 O489 2.326 . S
O476 Dy472 2.398 . S
O476 C474 1.185 . S
O477 Dy472 2.491 . S
O477 C474 1.355 . S
O478 Dy472 2.403 . S
O478 C480 1.254 . S
O479 Dy472 2.664 1_554 S
O479 Dy475 2.310 . S
O479 C480 1.268 1_554 S
C480 O478 1.254 . S
C480 O479 1.268 1_556 S
C481 O486 1.254 . S
C481 O487 1.268 1_554 S
O482 Dy475 2.351 . S
O482 C490 1.249 1_554 S
O483 Dy472 2.326 . S
O483 C490 1.267 . S
O484 C473 1.185 . S
O484 Dy475 2.398 . S
O485 C473 1.355 . S
O485 Dy475 2.491 . S
O486 Dy475 2.403 . S
O486 C481 1.254 . S
O487 Dy472 2.310 . S
O487 Dy475 2.664 1_556 S
O487 C481 1.268 1_556 S
O488 Dy472 2.351 . S
O488 C491 1.249 1_556 S
O489 Dy475 2.326 . S
O489 C491 1.267 . S
C490 O482 1.249 1_556 S
C490 O483 1.267 . S
C491 O488 1.249 1_554 S
C491 O489 1.267 . S
Dy492 O496 2.398 . S
Dy492 O497 2.491 . S
Dy492 O498 2.403 . S
Dy492 O499 2.664 . S
Dy492 O503 2.326 . S
Dy492 O507 2.310 . S
Dy492 O508 2.351 . S
C493 O504 1.185 . S
C493 O505 1.355 . S
C494 O496 1.185 . S
C494 O497 1.355 . S
Dy495 O499 2.310 . S
Dy495 O502 2.351 . S
Dy495 O504 2.398 . S
Dy495 O505 2.491 . S
Dy495 O506 2.403 . S
Dy495 O507 2.664 . S
Dy495 O509 2.326 . S
O496 Dy492 2.398 . S
O496 C494 1.185 . S
O497 Dy492 2.491 . S
O497 C494 1.355 . S
O498 Dy492 2.403 . S
O498 C500 1.254 . S
O499 Dy492 2.664 . S
O499 Dy495 2.310 . S
O499 C500 1.268 . S
C500 O498 1.254 . S
C500 O499 1.268 . S
C501 O506 1.254 . S
C501 O507 1.268 . S
O502 Dy495 2.351 . S
O502 C510 1.249 . S
O503 Dy492 2.326 . S
O503 C510 1.267 . S
O504 C493 1.185 . S
O504 Dy495 2.398 . S
O505 C493 1.355 . S
O505 Dy495 2.491 . S
O506 Dy495 2.403 . S
O506 C501 1.254 . S
O507 Dy492 2.310 . S
O507 Dy495 2.664 . S
O507 C501 1.268 . S
O508 Dy492 2.351 . S
O508 C511 1.249 . S
O509 Dy495 2.326 . S
O509 C511 1.267 . S
C510 O502 1.249 . S
C510 O503 1.267 . S
C511 O508 1.249 . S
C511 O509 1.267 . S
Dy512 O516 2.398 1_455 S
Dy512 O517 2.491 1_455 S
Dy512 O518 2.403 . S
Dy512 O519 2.664 . S
Dy512 O523 2.326 1_455 S
Dy512 O527 2.310 . S
Dy512 O528 2.351 . S
C513 O524 1.185 . S
C513 O525 1.355 . S
C514 O516 1.185 . S
C514 O517 1.355 . S
Dy515 O519 2.310 . S
Dy515 O522 2.351 1_455 S
Dy515 O524 2.398 . S
Dy515 O525 2.491 . S
Dy515 O526 2.403 . S
Dy515 O527 2.664 . S
Dy515 O529 2.326 . S
O516 Dy512 2.398 1_655 S
O516 C514 1.185 . S
O517 Dy512 2.491 1_655 S
O517 C514 1.355 . S
O518 Dy512 2.403 . S
O518 C520 1.254 . S
O519 Dy512 2.664 . S
O519 Dy515 2.310 . S
O519 C520 1.268 . S
C520 O518 1.254 . S
C520 O519 1.268 . S
C521 O526 1.254 . S
C521 O527 1.268 . S
O522 Dy515 2.351 1_655 S
O522 C530 1.249 . S
O523 Dy512 2.326 1_655 S
O523 C530 1.267 . S
O524 C513 1.185 . S
O524 Dy515 2.398 . S
O525 C513 1.355 . S
O525 Dy515 2.491 . S
O526 Dy515 2.403 . S
O526 C521 1.254 . S
O527 Dy512 2.310 . S
O527 Dy515 2.664 . S
O527 C521 1.268 . S
O528 Dy512 2.351 . S
O528 C531 1.249 . S
O529 Dy515 2.326 . S
O529 C531 1.267 . S
C530 O522 1.249 . S
C530 O523 1.267 . S
C531 O528 1.249 . S
C531 O529 1.267 . S
Dy532 O536 2.398 . S
Dy532 O537 2.491 . S
Dy532 O538 2.403 . S
Dy532 O539 2.664 . S
Dy532 O543 2.326 . S
Dy532 O547 2.310 . S
Dy532 O548 2.351 . S
C533 O544 1.185 . S
C533 O545 1.355 . S
C534 O536 1.185 . S
C534 O537 1.355 . S
Dy535 O539 2.310 . S
Dy535 O542 2.351 . S
Dy535 O544 2.398 . S
Dy535 O545 2.491 . S
Dy535 O546 2.403 . S
Dy535 O547 2.664 . S
Dy535 O549 2.326 . S
O536 Dy532 2.398 . S
O536 C534 1.185 . S
O537 Dy532 2.491 . S
O537 C534 1.355 . S
O538 Dy532 2.403 . S
O538 C540 1.254 . S
O539 Dy532 2.664 . S
O539 Dy535 2.310 . S
O539 C540 1.268 . S
C540 O538 1.254 . S
C540 O539 1.268 . S
C541 O546 1.254 . S
C541 O547 1.268 . S
O542 Dy535 2.351 . S
O542 C550 1.249 . S
O543 Dy532 2.326 . S
O543 C550 1.267 . S
O544 C533 1.185 . S
O544 Dy535 2.398 . S
O545 C533 1.355 . S
O545 Dy535 2.491 . S
O546 Dy535 2.403 . S
O546 C541 1.254 . S
O547 Dy532 2.310 . S
O547 Dy535 2.664 . S
O547 C541 1.268 . S
O548 Dy532 2.351 . S
O548 C551 1.249 . S
O549 Dy535 2.326 . S
O549 C551 1.267 . S
C550 O542 1.249 . S
C550 O543 1.267 . S
C551 O548 1.249 . S
C551 O549 1.267 . S
Dy552 O556 2.398 . S
Dy552 O557 2.491 . S
Dy552 O558 2.403 . S
Dy552 O559 2.664 . S
Dy552 O563 2.326 . S
Dy552 O567 2.310 . S
Dy552 O568 2.351 . S
C553 O564 1.185 . S
C553 O565 1.355 . S
C554 O556 1.185 . S
C554 O557 1.355 . S
Dy555 O559 2.310 . S
Dy555 O562 2.351 . S
Dy555 O564 2.398 . S
Dy555 O565 2.491 . S
Dy555 O566 2.403 . S
Dy555 O567 2.664 . S
Dy555 O569 2.326 . S
O556 Dy552 2.398 . S
O556 C554 1.185 . S
O557 Dy552 2.491 . S
O557 C554 1.355 . S
O558 Dy552 2.403 . S
O558 C560 1.254 . S
O559 Dy552 2.664 . S
O559 Dy555 2.310 . S
O559 C560 1.268 . S
C560 O558 1.254 . S
C560 O559 1.268 . S
C561 O566 1.254 . S
C561 O567 1.268 . S
O562 Dy555 2.351 . S
O562 C570 1.249 . S
O563 Dy552 2.326 . S
O563 C570 1.267 . S
O564 C553 1.185 . S
O564 Dy555 2.398 . S
O565 C553 1.355 . S
O565 Dy555 2.491 . S
O566 Dy555 2.403 . S
O566 C561 1.254 . S
O567 Dy552 2.310 . S
O567 Dy555 2.664 . S
O567 C561 1.268 . S
O568 Dy552 2.351 . S
O568 C571 1.249 . S
O569 Dy555 2.326 . S
O569 C571 1.267 . S
C570 O562 1.249 . S
C570 O563 1.267 . S
C571 O568 1.249 . S
C571 O569 1.267 . S
Dy572 O576 2.398 . S
Dy572 O577 2.491 . S
Dy572 O578 2.403 . S
Dy572 O579 2.664 . S
Dy572 O583 2.326 . S
Dy572 O587 2.310 . S
Dy572 O588 2.351 . S
C573 O584 1.185 . S
C573 O585 1.355 . S
C574 O576 1.185 . S
C574 O577 1.355 . S
Dy575 O579 2.310 . S
Dy575 O582 2.351 . S
Dy575 O584 2.398 . S
Dy575 O585 2.491 . S
Dy575 O586 2.403 . S
Dy575 O587 2.664 . S
Dy575 O589 2.326 . S
O576 Dy572 2.398 . S
O576 C574 1.185 . S
O577 Dy572 2.491 . S
O577 C574 1.355 . S
O578 Dy572 2.403 . S
O578 C580 1.254 . S
O579 Dy572 2.664 . S
O579 Dy575 2.310 . S
O579 C580 1.268 . S
C580 O578 1.254 . S
C580 O579 1.268 . S
C581 O586 1.254 . S
C581 O587 1.268 . S
O582 Dy575 2.351 . S
O582 C590 1.249 . S
O583 Dy572 2.326 . S
O583 C590 1.267 . S
O584 C573 1.185 . S
O584 Dy575 2.398 . S
O585 C573 1.355 . S
O585 Dy575 2.491 . S
O586 Dy575 2.403 . S
O586 C581 1.254 . S
O587 Dy572 2.310 . S
O587 Dy575 2.664 . S
O587 C581 1.268 . S
O588 Dy572 2.351 . S
O588 C591 1.249 . S
O589 Dy575 2.326 . S
O589 C591 1.267 . S
C590 O582 1.249 . S
C590 O583 1.267 . S
C591 O588 1.249 . S
C591 O589 1.267 . S
Dy592 O596 2.398 . S
Dy592 O597 2.491 . S
Dy592 O598 2.403 . S
Dy592 O599 2.664 . S
Dy592 O603 2.326 . S
Dy592 O607 2.310 . S
Dy592 O608 2.351 . S
C593 O604 1.185 . S
C593 O605 1.355 . S
C594 O596 1.185 . S
C594 O597 1.355 . S
Dy595 O599 2.310 . S
Dy595 O602 2.351 . S
Dy595 O604 2.398 . S
Dy595 O605 2.491 . S
Dy595 O606 2.403 . S
Dy595 O607 2.664 . S
Dy595 O609 2.326 . S
O596 Dy592 2.398 . S
O596 C594 1.185 . S
O597 Dy592 2.491 . S
O597 C594 1.355 . S
O598 Dy592 2.403 . S
O598 C600 1.254 . S
O599 Dy592 2.664 . S
O599 Dy595 2.310 . S
O599 C600 1.268 . S
C600 O598 1.254 . S
C600 O599 1.268 . S
C601 O606 1.254 . S
C601 O607 1.268 . S
O602 Dy595 2.351 . S
O602 C610 1.249 . S
O603 Dy592 2.326 . S
O603 C610 1.267 . S
O604 C593 1.185 . S
O604 Dy595 2.398 . S
O605 C593 1.355 . S
O605 Dy595 2.491 . S
O606 Dy595 2.403 . S
O606 C601 1.254 . S
O607 Dy592 2.310 . S
O607 Dy595 2.664 . S
O607 C601 1.268 . S
O608 Dy592 2.351 . S
O608 C611 1.249 . S
O609 Dy595 2.326 . S
O609 C611 1.267 . S
C610 O602 1.249 . S
C610 O603 1.267 . S
C611 O608 1.249 . S
C611 O609 1.267 . S
Dy612 O616 2.398 1_554 S
Dy612 O617 2.491 . S
Dy612 O618 2.403 1_554 S
Dy612 O619 2.664 1_454 S
Dy612 O623 2.326 1_554 S
Dy612 O627 2.310 . S
Dy612 O628 2.351 . S
C613 O624 1.185 . S
C613 O625 1.355 . S
C614 O616 1.185 . S
C614 O617 1.355 1_556 S
Dy615 O619 2.310 1_554 S
Dy615 O622 2.351 . S
Dy615 O624 2.398 . S
Dy615 O625 2.491 . S
Dy615 O626 2.403 . S
Dy615 O627 2.664 1_655 S
Dy615 O629 2.326 . S
O616 Dy612 2.398 1_556 S
O616 C614 1.185 . S
O617 Dy612 2.491 . S
O617 C614 1.355 1_554 S
O618 Dy612 2.403 1_556 S
O618 C620 1.254 . S
O619 Dy612 2.664 1_656 S
O619 Dy615 2.310 1_556 S
O619 C620 1.268 1_655 S
C620 O618 1.254 . S
C620 O619 1.268 1_455 S
C621 O626 1.254 1_455 S
C621 O627 1.268 . S
O622 Dy615 2.351 . S
O622 C630 1.258 1_655 S
O623 Dy612 2.326 1_556 S
O623 C630 1.257 1_556 S
O624 C613 1.185 . S
O624 Dy615 2.398 . S
O625 C613 1.355 . S
O625 Dy615 2.491 . S
O626 Dy615 2.403 . S
O626 C621 1.254 1_655 S
O627 Dy612 2.310 . S
O627 Dy615 2.664 1_455 S
O627 C621 1.268 . S
O628 Dy612 2.351 . S
O628 C631 1.249 . S
O629 Dy615 2.326 . S
O629 C631 1.267 1_655 S
C630 O622 1.258 1_455 S
C630 O623 1.257 1_554 S
C631 O628 1.249 . S
C631 O629 1.267 1_455 S
C101 C330 2.129 1_556 S
C57 C341 2.482 . S
C70 C370 1.410 . S
C373 C82 1.600 . S
C23 C411 2.022 . S
C414 C29 2.096 . S
C441 C49 2.038 . S
C10 C470 2.316 . S
C321 C218 2.511 1_455 S
C226 C333 1.886 . S
C361 C251 1.987 . S
C390 C159 1.254 . S
C211 C394 1.974 . S
C420 C225 2.161 . S
C433 C252 1.136 . S
C461 C166 2.193 . S
C313 C147 2.374 1_545 S
C263 C480 2.321 . S
C511 C309 2.310 . S
C530 C291 0.894 . S
C108 C453 2.401 . S
C121 C353 2.244 . S
C302 C541 1.994 . S
C570 C276 1.674 . S
C331 C55 2.130 . S
C560 C96 2.234 . S
C88 C371 1.394 . S
C75 C534 1.675 . S
C410 C4 2.058 . S
C44 C493 1.797 . S
C440 C31 1.987 . S
C591 C18 2.146 . S
C320 C133 2.264 . S
C554 C296 1.486 . S
C107 C360 1.822 . S
C264 C551 1.666 . S
C140 C393 1.742 1_565 S
C501 C289 1.913 . S
C114 C434 1.063 1_545 S
C265 C580 2.227 . S
C179 C314 2.177 1_554 S
C161 C481 2.156 . S
C244 C430 2.247 . S
C224 C531 1.127 . S
C574 C257 2.096 . S
C199 C354 2.109 . S
C380 C237 1.946 . S
C351 C185 1.160 . S
C69 C610 2.130 . S
C561 C83 2.481 . S
C94 C630 1.392 1_556 S
C56 C533 1.598 . S
C42 C491 2.047 . S
C494 C3 2.100 . S
C521 C16 2.053 1_455 S
C590 C36 2.317 . S
C601 C238 2.509 . S
C174 C553 1.884 . S
C621 C186 1.986 . S
C550 C198 1.252 . S
C474 C239 1.980 . S
C173 C500 2.166 . S
C513 C187 1.142 . S
C205 C581 2.196 . S
C593 C290 2.373 . S
C122 C400 2.318 . S
C431 C134 2.311 . S
C450 C148 0.891 . S
C573 C283 2.402 . S
C270 C613 2.242 . S
C381 C135 1.993 . S
C350 C109 1.673 . S
C81 C611 2.131 . S
C340 C68 2.232 . S
C62 C631 1.395 . S
C95 C374 1.673 . S
C30 C490 2.059 . S
C413 C17 1.795 . S
C5 C520 1.988 . S
C43 C471 2.131 . S
C600 C304 2.265 . S
C153 C334 1.483 . S
C620 C278 1.823 1_455 S
C127 C391 1.666 . S
C303 C473 1.731 . S
C421 C146 1.913 . S
C277 C514 1.055 . S
C460 C120 2.226 . S
C594 C231 2.177 . S
C401 C200 2.156 . S
C212 C510 2.248 . S
C451 C172 1.124 . S
C192 C454 2.096 . S
C160 C614 2.110 1_554 S
C540 C213 1.947 . S
C571 C250 1.161 . S
