# Generated by pormake.
# Topology tsx, (6,3)-cn, num edge types: 1
# Building blocks:
#     Node 0, Type 0, BuildingBlock: VOLQOD_clean_sbu_1, # of connection points: 6
#     Node 1, Type 0, BuildingBlock: VOLQOD_clean_sbu_1, # of connection points: 6
#     Node 2, Type 1, BuildingBlock: WUSLED_clean_sbu_0, # of connection points: 3
#     Node 3, Type 1, BuildingBlock: WUSLED_clean_sbu_0, # of connection points: 3
#     Node 4, Type 1, BuildingBlock: WUSLED_clean_sbu_0, # of connection points: 3
#     Node 5, Type 1, BuildingBlock: WUSLED_clean_sbu_0, # of connection points: 3
#     Edge 6, Type (0, 1), BuildingBlock: UVAHIK_clean_linker_0, # of connection points: 2
#     Edge 7, Type (0, 1), BuildingBlock: UVAHIK_clean_linker_0, # of connection points: 2
#     Edge 8, Type (0, 1), BuildingBlock: UVAHIK_clean_linker_0, # of connection points: 2
#     Edge 9, Type (0, 1), BuildingBlock: UVAHIK_clean_linker_0, # of connection points: 2
#     Edge 10, Type (0, 1), BuildingBlock: UVAHIK_clean_linker_0, # of connection points: 2
#     Edge 11, Type (0, 1), BuildingBlock: UVAHIK_clean_linker_0, # of connection points: 2
#     Edge 12, Type (0, 1), BuildingBlock: UVAHIK_clean_linker_0, # of connection points: 2
#     Edge 13, Type (0, 1), BuildingBlock: UVAHIK_clean_linker_0, # of connection points: 2
#     Edge 14, Type (0, 1), BuildingBlock: UVAHIK_clean_linker_0, # of connection points: 2
#     Edge 15, Type (0, 1), BuildingBlock: UVAHIK_clean_linker_0, # of connection points: 2
#     Edge 16, Type (0, 1), BuildingBlock: UVAHIK_clean_linker_0, # of connection points: 2
#     Edge 17, Type (0, 1), BuildingBlock: UVAHIK_clean_linker_0, # of connection points: 2
# Relax obj value: 0.070
# Max RMSD: 0.104
# Mean RMSD: 0.078
data_MOF--net-tsx--node1-VOLQOD_clean_sbu_1--node2-WUSLED_clean_sbu_0--edge1-UVAHIK_clean_linker_0
_symmetry_space_group_name_H-M    P1
_symmetry_Int_Tables_number       1
_symmetry_cell_setting            triclinic
loop_
_symmetry_equiv_pos_as_xyz
'x, y, z'
_cell_length_a     32.172702
_cell_length_b     33.333818
_cell_length_c     63.379218
_cell_angle_alpha  90.741256
_cell_angle_beta   89.980034
_cell_angle_gamma 90.11627
loop_
_atom_site_label
_atom_site_type_symbol
_atom_site_fract_x
_atom_site_fract_y
_atom_site_fract_z
_atom_type_partial_charge
O0 O 0.04634 1.00021 0.05961 0.0
Zn1 Zn 0.0637 1.00084 0.02895 0.0
O2 O 0.0154 0.00636 0.0105 0.0
Zn3 Zn 0.00831 0.95703 0.99378 0.0
Zn4 Zn 0.96575 0.0154 0.02761 0.0
Zn5 Zn 0.02371 0.05211 0.99188 0.0
O6 O 0.00654 0.96965 0.96271 0.0
O7 O 0.02577 0.03368 0.96138 0.0
O8 O 0.09662 0.95079 0.02179 0.0
O9 O 0.05719 0.92024 0.99772 0.0
O10 O 0.95645 0.92641 1.00227 0.0
O11 O 0.92694 0.9682 0.02531 0.0
O12 O 0.93418 0.06456 0.01848 0.0
O13 O 0.10213 0.04812 0.0258 0.0
O14 O 0.97537 0.09036 0.99403 0.0
O15 O 0.07577 0.08349 0.99958 0.0
C16 C 0.01293 0.01101 0.06888 0.0
C17 C 0.01614 1.00069 0.95219 0.0
C18 C 0.92709 0.93511 0.01504 0.0
C19 C 0.08985 0.92159 0.00906 0.0
C20 C 0.94215 0.09146 0.00495 0.0
C21 C 0.10345 0.07827 0.01367 0.0
O22 O 0.98059 0.02037 0.05844 0.0
O23 O 0.54749 0.50115 0.55918 0.0
Zn24 Zn 0.56412 0.50144 0.52839 0.0
O25 O 0.51558 0.50716 0.51015 0.0
Zn26 Zn 0.50806 0.45799 0.49338 0.0
Zn27 Zn 0.46639 0.51625 0.52759 0.0
Zn28 Zn 0.52359 0.5529 0.49148 0.0
O29 O 0.50625 0.47055 0.46232 0.0
O30 O 0.52537 0.53459 0.46093 0.0
O31 O 0.59657 0.4512 0.52116 0.0
O32 O 0.55662 0.42075 0.49727 0.0
O33 O 0.456 0.42789 0.50188 0.0
O34 O 0.42779 0.46884 0.52573 0.0
O35 O 0.43445 0.56519 0.51844 0.0
O36 O 0.60268 0.54845 0.52495 0.0
O37 O 0.47523 0.59106 0.49383 0.0
O38 O 0.57574 0.5842 0.49902 0.0
C39 C 0.51439 0.51236 0.5686 0.0
C40 C 0.51575 0.50157 0.45176 0.0
C41 C 0.42734 0.43613 0.51513 0.0
C42 C 0.58942 0.42196 0.50851 0.0
C43 C 0.44215 0.59208 0.50487 0.0
C44 C 0.60377 0.57872 0.5129 0.0
O45 O 0.4819 0.52181 0.55829 0.0
C46 C 0.95393 0.06454 0.44244 0.0
C47 C 0.9589 0.10543 0.43778 0.0
C48 C 0.89539 0.1217 0.45692 0.0
C49 C 0.93001 0.13369 0.44502 0.0
C50 C 0.89049 0.08087 0.46163 0.0
C51 C 0.91961 0.05263 0.45456 0.0
U52 U 0.00802 0.00824 0.39746 0.0
O53 O 0.07317 0.9904 0.39306 0.0
O54 O 0.0243 0.94436 0.39391 0.0
C55 C 0.06445 0.95185 0.3937 0.0
C56 C 0.98386 0.034 0.43475 0.0
C57 C 0.09056 0.92695 0.40762 0.0
C58 C 0.15088 0.91877 0.43036 0.0
C59 C 0.12455 0.94341 0.41872 0.0
C60 C 0.10931 0.8609 0.42049 0.0
C61 C 0.14381 0.87719 0.43119 0.0
C62 C 0.08313 0.88549 0.40874 0.0
C63 C 0.97971 0.03419 0.34054 0.0
C64 C 0.0224 0.02887 0.30894 0.0
C65 C 0.94735 0.02759 0.30603 0.0
C66 C 0.944 0.0315 0.32795 0.0
C67 C 0.98659 0.02663 0.29621 0.0
C68 C 0.019 0.03244 0.33089 0.0
C69 C 0.9751 0.03943 0.36357 0.0
O70 O 0.96748 1.0024 0.42528 0.0
O71 O 0.01733 0.04744 0.4252 0.0
O72 O 0.00685 0.05554 0.37366 0.0
O73 O 0.95836 0.00906 0.37354 0.0
H74 H 0.98492 0.11568 0.42843 0.0
H75 H 0.93436 0.16489 0.44097 0.0
H76 H 0.86433 0.07081 0.47095 0.0
H77 H 0.91518 0.02136 0.45848 0.0
H78 H 0.177 0.93224 0.4386 0.0
H79 H 0.13133 0.97521 0.41817 0.0
H80 H 0.10334 0.82891 0.4206 0.0
H81 H 0.0575 0.8719 0.40015 0.0
H82 H 0.05311 0.02867 0.30195 0.0
H83 H 0.91911 0.02516 0.29681 0.0
H84 H 0.91339 0.03255 0.33508 0.0
H85 H 0.04712 0.03427 0.34025 0.0
C86 C 0.95986 0.94572 0.57963 0.0
C87 C 0.94024 0.921 0.59435 0.0
C88 C 0.90415 0.8853 0.566 0.0
C89 C 0.91266 0.89106 0.58761 0.0
C90 C 0.92379 0.91037 0.55131 0.0
C91 C 0.95148 0.94032 0.55809 0.0
U92 U 0.01334 1.00095 0.62438 0.0
O93 O 0.07787 0.02163 0.62829 0.0
O94 O 0.02671 0.06506 0.62949 0.0
C95 C 0.0672 0.05971 0.62886 0.0
C96 C 0.98895 0.97707 0.58677 0.0
C97 C 0.09123 0.0873 0.61527 0.0
C98 C 0.15451 0.10368 0.59604 0.0
C99 C 0.13058 0.07638 0.60744 0.0
C100 C 0.10017 0.15334 0.59988 0.0
C101 C 0.13978 0.14266 0.59232 0.0
C102 C 0.07628 0.12608 0.6113 0.0
C103 C 0.98763 0.96918 0.68064 0.0
C104 C 0.02251 0.99727 0.71147 0.0
C105 C 0.96525 0.95074 0.71577 0.0
C106 C 0.96112 0.94762 0.69386 0.0
C107 C 0.99608 0.97548 0.72486 0.0
C108 C 0.0183 0.99415 0.68952 0.0
C109 C 0.98275 0.96531 0.65768 0.0
O110 O 0.97181 0.00727 0.59706 0.0
O111 O 0.0229 0.96384 0.59585 0.0
O112 O 0.01553 0.95214 0.64735 0.0
O113 O 0.96447 0.99566 0.64848 0.0
H114 H 0.94625 0.92492 0.61108 0.0
H115 H 0.89761 0.87273 0.59936 0.0
H116 H 0.91823 0.90648 0.53455 0.0
H117 H 0.96643 0.95917 0.54652 0.0
H118 H 0.18512 0.09463 0.59072 0.0
H119 H 0.14339 0.04699 0.61048 0.0
H120 H 0.08766 0.18294 0.5971 0.0
H121 H 0.04633 0.13567 0.6173 0.0
H122 H 0.04682 0.01629 0.71793 0.0
H123 H 0.94392 0.93409 0.72558 0.0
H124 H 0.93713 0.92839 0.68724 0.0
H125 H 0.03902 0.01106 0.67949 0.0
C126 C 0.45603 0.56612 0.94232 0.0
C127 C 0.46189 0.60727 0.93859 0.0
C128 C 0.39738 0.62306 0.95698 0.0
C129 C 0.43293 0.63542 0.9459 0.0
C130 C 0.39165 0.58197 0.9608 0.0
C131 C 0.42079 0.55384 0.95365 0.0
U132 U 0.51065 0.51027 0.89727 0.0
O133 O 0.5758 0.49226 0.89306 0.0
O134 O 0.52676 0.44638 0.89358 0.0
C135 C 0.56694 0.45373 0.89353 0.0
C136 C 0.48607 0.53571 0.93455 0.0
C137 C 0.59278 0.42854 0.90743 0.0
C138 C 0.65264 0.41983 0.93042 0.0
C139 C 0.62652 0.44475 0.91882 0.0
C140 C 0.61131 0.36217 0.91995 0.0
C141 C 0.64559 0.37822 0.93093 0.0
C142 C 0.58534 0.38704 0.90824 0.0
C143 C 0.48291 0.53673 0.84032 0.0
C144 C 0.52579 0.53092 0.80881 0.0
C145 C 0.45077 0.53113 0.80572 0.0
C146 C 0.44728 0.53486 0.82764 0.0
C147 C 0.49008 0.52951 0.79599 0.0
C148 C 0.52225 0.53433 0.83076 0.0
C149 C 0.47816 0.5418 0.86336 0.0
O150 O 0.46981 0.50418 0.92495 0.0
O151 O 0.51961 0.54928 0.92512 0.0
O152 O 0.50989 0.55771 0.87354 0.0
O153 O 0.46123 0.5114 0.87322 0.0
H154 H 0.48867 0.61784 0.92991 0.0
H155 H 0.43798 0.66683 0.94255 0.0
H156 H 0.36479 0.5716 0.96949 0.0
H157 H 0.41568 0.52238 0.95689 0.0
H158 H 0.67858 0.43311 0.93889 0.0
H159 H 0.63329 0.47657 0.91852 0.0
H160 H 0.60535 0.33018 0.91981 0.0
H161 H 0.5599 0.37364 0.89942 0.0
H162 H 0.55656 0.53019 0.80189 0.0
H163 H 0.42257 0.52933 0.79643 0.0
H164 H 0.41663 0.53642 0.8347 0.0
H165 H 0.5503 0.5355 0.8402 0.0
C166 C 0.4605 0.44567 0.07932 0.0
C167 C 0.44083 0.42114 0.09413 0.0
C168 C 0.40464 0.38514 0.0659 0.0
C169 C 0.41318 0.39117 0.08749 0.0
C170 C 0.42436 0.40999 0.05112 0.0
C171 C 0.45211 0.43999 0.0578 0.0
U172 U 0.51391 0.50038 0.12414 0.0
O173 O 0.57818 0.52162 0.12817 0.0
O174 O 0.52652 0.56455 0.12978 0.0
C175 C 0.56702 0.55948 0.1297 0.0
C176 C 0.48955 0.47714 0.08641 0.0
C177 C 0.59095 0.58804 0.11702 0.0
C178 C 0.62387 0.60819 0.08425 0.0
C179 C 0.6002 0.58055 0.09567 0.0
C180 C 0.62864 0.65103 0.11534 0.0
C181 C 0.63831 0.64379 0.09398 0.0
C182 C 0.60522 0.62343 0.12671 0.0
C183 C 0.48848 0.46752 0.18018 0.0
C184 C 0.52305 0.49594 0.21102 0.0
C185 C 0.46608 0.44907 0.2153 0.0
C186 C 0.46207 0.44583 0.1934 0.0
C187 C 0.49668 0.47409 0.22441 0.0
C188 C 0.51895 0.4927 0.18907 0.0
C189 C 0.48358 0.46377 0.1572 0.0
O190 O 0.47237 0.50713 0.09685 0.0
O191 O 0.52371 0.46402 0.09535 0.0
O192 O 0.5165 0.45108 0.14682 0.0
O193 O 0.46495 0.49403 0.14811 0.0
H194 H 0.44682 0.42527 0.11084 0.0
H195 H 0.39808 0.37305 0.09931 0.0
H196 H 0.41879 0.4059 0.03438 0.0
H197 H 0.46709 0.45868 0.04617 0.0
H198 H 0.63053 0.60189 0.06779 0.0
H199 H 0.58927 0.55338 0.08791 0.0
H200 H 0.63981 0.67777 0.12342 0.0
H201 H 0.59848 0.62962 0.14318 0.0
H202 H 0.5472 0.51515 0.21748 0.0
H203 H 0.4448 0.43236 0.22511 0.0
H204 H 0.43822 0.42645 0.18677 0.0
H205 H 0.53958 0.50972 0.17904 0.0
C206 C 0.13679 0.14474 0.00555 0.0
C207 C 0.13677 0.10866 0.01683 0.0
C208 C 0.16671 0.17438 0.00972 0.0
C209 C 0.23848 0.20863 0.05179 0.0
H210 H 0.28979 0.27063 0.00743 0.0
C211 C 0.37556 0.31542 0.06872 0.0
C212 C 0.37525 0.35305 0.05895 0.0
C213 C 0.34711 0.28564 0.06277 0.0
C214 C 0.27542 0.25384 0.02002 0.0
H215 H 0.16924 0.07505 0.04086 0.0
H216 H 0.22144 0.12631 0.04786 0.0
H217 H 0.23919 0.21843 0.99832 0.0
H218 H 0.3448 0.3887 0.03513 0.0
H219 H 0.29509 0.33663 0.02473 0.0
H220 H 0.27446 0.24394 0.0735 0.0
C221 C 0.19787 0.13209 0.03609 0.0
C222 C 0.24643 0.22393 0.01479 0.0
C223 C 0.16803 0.10254 0.03196 0.0
C224 C 0.3462 0.3599 0.04281 0.0
C225 C 0.3177 0.33005 0.03685 0.0
C226 C 0.26739 0.23845 0.057 0.0
C227 C 0.19727 0.16862 0.02525 0.0
C228 C 0.22778 0.20081 0.03062 0.0
C229 C 0.31759 0.29267 0.0469 0.0
C230 C 0.28641 0.2613 0.04119 0.0
H231 H 0.11315 0.15051 0.99381 0.0
H232 H 0.16516 0.20228 1.00118 0.0
H233 H 0.22407 0.19202 0.06443 0.0
H234 H 0.39802 0.30883 0.08091 0.0
H235 H 0.34845 0.25693 0.07055 0.0
C236 C 0.11133 0.85362 0.99568 0.0
C237 C 0.12125 0.88935 0.00663 0.0
C238 C 0.14145 0.8241 0.99229 0.0
C239 C 0.25376 0.81108 0.98706 0.0
H240 H 0.22921 0.69821 0.99448 0.0
C241 C 0.37877 0.68904 0.97403 0.0
C242 C 0.36616 0.65292 0.96429 0.0
C243 C 0.34937 0.7174 0.98061 0.0
C244 C 0.23646 0.72955 0.99207 0.0
H245 H 0.1706 0.92175 0.02284 0.0
H246 H 0.22334 0.87021 0.0167 0.0
H247 H 0.17687 0.74838 0.00357 0.0
H248 H 0.31288 0.61841 0.95359 0.0
H249 H 0.26161 0.66811 0.96463 0.0
H250 H 0.31281 0.79246 0.975 0.0
C251 C 0.19216 0.86519 0.01076 0.0
C252 C 0.20649 0.75828 0.99737 0.0
C253 C 0.16188 0.89457 0.01438 0.0
C254 C 0.32351 0.64573 0.96131 0.0
C255 C 0.29412 0.67423 0.96772 0.0
C256 C 0.2836 0.78235 0.98157 0.0
C257 C 0.18231 0.82977 0.99956 0.0
C258 C 0.21475 0.79933 0.99483 0.0
C259 C 0.30664 0.71049 0.97744 0.0
C260 C 0.27529 0.74116 0.98389 0.0
H261 H 0.08032 0.84857 0.98953 0.0
H262 H 0.13303 0.79726 0.98345 0.0
H263 H 0.2608 0.84248 0.98466 0.0
H264 H 0.41141 0.69519 0.97678 0.0
H265 H 0.36018 0.74461 0.98836 0.0
C266 C 0.85859 0.9168 0.03104 0.0
C267 C 0.89367 0.90548 0.01916 0.0
C268 C 0.82887 0.8884 0.03679 0.0
C269 C 0.79042 0.78493 0.02605 0.0
H270 H 0.75019 0.79462 0.08357 0.0
C271 C 0.69638 0.66045 0.06885 0.0
C272 C 0.66396 0.67324 0.08222 0.0
C273 C 0.72269 0.68846 0.05933 0.0
C274 C 0.76066 0.79172 0.06738 0.0
H275 H 0.92417 0.85545 0.00339 0.0
H276 H 0.87249 0.80563 0.01375 0.0
H277 H 0.79901 0.84384 0.07025 0.0
H278 H 0.63221 0.7255 0.09498 0.0
H279 H 0.67793 0.77417 0.07844 0.0
H280 H 0.75224 0.73222 0.02344 0.0
C281 C 0.86778 0.83666 0.01841 0.0
C282 C 0.78866 0.82002 0.05971 0.0
C283 C 0.8975 0.86522 0.01252 0.0
C284 C 0.65744 0.71462 0.08516 0.0
C285 C 0.68366 0.74253 0.07568 0.0
C286 C 0.76238 0.75643 0.03379 0.0
C287 C 0.83353 0.8478 0.03098 0.0
C288 C 0.80374 0.81721 0.03891 0.0
C289 C 0.7171 0.72981 0.06299 0.0
C290 C 0.74699 0.75968 0.05452 0.0
H291 H 0.85433 0.94761 0.03622 0.0
H292 H 0.80239 0.89825 0.04604 0.0
H293 H 0.80116 0.78202 0.00991 0.0
H294 H 0.70242 0.62879 0.06639 0.0
H295 H 0.74832 0.67769 0.04975 0.0
C296 C 0.92221 0.1569 0.98876 0.0
C297 C 0.91147 0.1237 1.00111 0.0
C298 C 0.8927 0.18614 0.98403 0.0
C299 C 0.78069 0.19962 0.97776 0.0
H300 H 0.80782 0.31301 0.97884 0.0
C301 C 0.66032 0.31952 0.9543 0.0
C302 C 0.67498 0.35137 0.94201 0.0
C303 C 0.68817 0.29317 0.96385 0.0
C304 C 0.79983 0.28145 0.97825 0.0
H305 H 0.86131 0.09565 0.01849 0.0
H306 H 0.80969 0.14665 0.01004 0.0
H307 H 0.85856 0.26447 0.99129 0.0
H308 H 0.73035 0.38044 0.93005 0.0
H309 H 0.77883 0.3343 0.94635 0.0
H310 H 0.72255 0.21624 0.96411 0.0
C311 C 0.84101 0.1499 0.00402 0.0
C312 C 0.82888 0.25367 0.98546 0.0
C313 C 0.87066 0.12083 0.00894 0.0
C314 C 0.71808 0.35657 0.93969 0.0
C315 C 0.7459 0.33011 0.9491 0.0
C316 C 0.75174 0.22735 0.97039 0.0
C317 C 0.85165 0.1827 0.99137 0.0
C318 C 0.8198 0.21243 0.98509 0.0
C319 C 0.73134 0.29788 0.96119 0.0
C320 C 0.7611 0.26861 0.97031 0.0
H321 H 0.95336 0.16012 0.9825 0.0
H322 H 0.90174 0.21087 0.97408 0.0
H323 H 0.77299 0.16798 0.97704 0.0
H324 H 0.62728 0.31502 0.95658 0.0
H325 H 0.67583 0.26912 0.97333 0.0
C326 C 0.66888 0.60251 0.53083 0.0
C327 C 0.63722 0.60898 0.51597 0.0
C328 C 0.69875 0.63199 0.53498 0.0
C329 C 0.7466 0.72449 0.51418 0.0
H330 H 0.77492 0.74335 0.57295 0.0
C331 C 0.84573 0.86031 0.54288 0.0
C332 C 0.8749 0.85324 0.55892 0.0
C333 C 0.81738 0.83044 0.53677 0.0
C334 C 0.76778 0.73817 0.55644 0.0
H335 H 0.61297 0.65135 0.49338 0.0
H336 H 0.66508 0.70302 0.50078 0.0
H337 H 0.72474 0.69139 0.56366 0.0
H338 H 0.89809 0.80868 0.58058 0.0
H339 H 0.84881 0.7567 0.56995 0.0
H340 H 0.78969 0.77153 0.50703 0.0
C341 C 0.66688 0.6749 0.50909 0.0
C342 C 0.73898 0.70835 0.5511 0.0
C343 C 0.63691 0.64532 0.50491 0.0
C344 C 0.87552 0.8154 0.56846 0.0
C345 C 0.84724 0.78559 0.56236 0.0
C346 C 0.77548 0.7544 0.51953 0.0
C347 C 0.69777 0.66879 0.52441 0.0
C348 C 0.72819 0.70096 0.52991 0.0
C349 C 0.81759 0.79283 0.54658 0.0
C350 C 0.78656 0.76144 0.54073 0.0
H351 H 0.67035 0.5748 0.53954 0.0
H352 H 0.7226 0.62598 0.54657 0.0
H353 H 0.73925 0.71932 0.49769 0.0
H354 H 0.84412 0.88927 0.53538 0.0
H355 H 0.79465 0.83716 0.52473 0.0
C356 C 0.61014 0.35352 0.4955 0.0
C357 C 0.62058 0.38953 0.50605 0.0
C358 C 0.64005 0.3238 0.49208 0.0
C359 C 0.75196 0.3104 0.48572 0.0
H360 H 0.72818 0.19795 0.49509 0.0
C361 C 0.87702 0.18844 0.47312 0.0
C362 C 0.86425 0.15167 0.46416 0.0
C363 C 0.8477 0.21696 0.47959 0.0
C364 C 0.7352 0.22916 0.49212 0.0
H365 H 0.6706 0.42226 0.52153 0.0
H366 H 0.72296 0.37041 0.51531 0.0
H367 H 0.67605 0.24844 0.50402 0.0
H368 H 0.8108 0.1161 0.45475 0.0
H369 H 0.75962 0.16609 0.46556 0.0
H370 H 0.8105 0.29134 0.47323 0.0
C371 C 0.69155 0.3653 0.50972 0.0
C372 C 0.70536 0.25807 0.49734 0.0
C373 C 0.6615 0.39486 0.51339 0.0
C374 C 0.82155 0.14397 0.46186 0.0
C375 C 0.79222 0.17263 0.46814 0.0
C376 C 0.78164 0.28149 0.48029 0.0
C377 C 0.68119 0.32959 0.49891 0.0
C378 C 0.71339 0.29897 0.49414 0.0
C379 C 0.80489 0.20956 0.47706 0.0
C380 C 0.77362 0.24044 0.48335 0.0
H381 H 0.5789 0.3484 0.48969 0.0
H382 H 0.63125 0.2967 0.48357 0.0
H383 H 0.75878 0.34168 0.4828 0.0
H384 H 0.90973 0.195 0.47534 0.0
H385 H 0.85866 0.2447 0.48674 0.0
C386 C 0.39368 0.36874 0.50898 0.0
C387 C 0.39398 0.40641 0.51924 0.0
C388 C 0.36377 0.33987 0.51409 0.0
C389 C 0.26173 0.32711 0.54078 0.0
H390 H 0.29922 0.21794 0.54897 0.0
C391 C 0.16783 0.21258 0.58863 0.0
C392 C 0.1663 0.17256 0.58137 0.0
C393 C 0.19361 0.24053 0.57886 0.0
C394 C 0.28808 0.24814 0.54645 0.0
H395 H 0.36231 0.44345 0.54263 0.0
H396 H 0.31077 0.39323 0.55164 0.0
H397 H 0.34752 0.26792 0.53547 0.0
H398 H 0.19023 0.13082 0.55782 0.0
H399 H 0.2355 0.17968 0.54082 0.0
H400 H 0.20254 0.30752 0.5522 0.0
C401 C 0.33325 0.38605 0.53944 0.0
C402 C 0.31576 0.27681 0.53869 0.0
C403 C 0.36306 0.41483 0.53435 0.0
C404 C 0.19105 0.16126 0.56399 0.0
C405 C 0.21696 0.18925 0.55423 0.0
C406 C 0.23411 0.2985 0.54859 0.0
C407 C 0.33344 0.34806 0.52955 0.0
C408 C 0.3031 0.3168 0.53606 0.0
C409 C 0.21863 0.22919 0.56161 0.0
C410 C 0.24712 0.25882 0.55182 0.0
H411 H 0.41695 0.36124 0.49723 0.0
H412 H 0.36449 0.31108 0.50599 0.0
H413 H 0.25071 0.35745 0.53858 0.0
H414 H 0.14985 0.22217 0.60222 0.0
H415 H 0.19472 0.27086 0.58518 0.0
C416 C 0.37071 0.62139 0.50921 0.0
C417 C 0.41133 0.62423 0.50112 0.0
C418 C 0.34091 0.65038 0.50438 0.0
C419 C 0.32821 0.75389 0.48551 0.0
H420 H 0.22146 0.71603 0.46493 0.0
C421 C 0.21647 0.85574 0.43971 0.0
C422 C 0.17342 0.8506 0.44229 0.0
C423 C 0.24447 0.8295 0.44914 0.0
C424 C 0.25077 0.72726 0.47099 0.0
H425 H 0.45272 0.66051 0.48215 0.0
H426 H 0.40084 0.71108 0.4739 0.0
H427 H 0.27222 0.66803 0.47779 0.0
H428 H 0.12601 0.81464 0.45735 0.0
H429 H 0.1749 0.76913 0.47415 0.0
H430 H 0.30695 0.81309 0.47872 0.0
C431 C 0.39207 0.68646 0.48397 0.0
C432 C 0.2799 0.69968 0.47833 0.0
C433 C 0.42174 0.65732 0.48861 0.0
C434 C 0.15901 0.81907 0.45487 0.0
C435 C 0.18705 0.79295 0.46444 0.0
C436 C 0.29897 0.78152 0.47833 0.0
C437 C 0.3512 0.68304 0.49157 0.0
C438 C 0.31916 0.71264 0.48537 0.0
C439 C 0.23016 0.79758 0.46153 0.0
C440 C 0.2601 0.76851 0.47066 0.0
H441 H 0.36163 0.5963 0.51888 0.0
H442 H 0.30974 0.64716 0.5106 0.0
H443 H 0.358 0.76481 0.49112 0.0
H444 H 0.22854 0.87936 0.42984 0.0
H445 H 0.27735 0.83361 0.44619 0.0
C446 C 0.97744 0.0301 0.10276 0.0
C447 C 0.01137 0.01235 0.09227 0.0
C448 C 0.97556 0.03098 0.12479 0.0
C449 C 0.0407 0.02041 0.17277 0.0
H450 H 0.93382 0.00606 0.20001 0.0
C451 C 0.02173 1.00117 0.2631 0.0
C452 C 0.99006 0.02393 0.27278 0.0
C453 C 0.02499 0.99899 0.2411 0.0
C454 C 0.96384 0.01039 0.19262 0.0
H455 H 0.06994 0.98148 0.09677 0.0
H456 H 0.0662 0.98218 0.13518 0.0
H457 H 0.93839 0.00331 0.16165 0.0
H458 H 0.93748 0.06287 0.26674 0.0
H459 H 0.94272 0.05831 0.22846 0.0
H460 H 0.06608 0.02691 0.2039 0.0
C461 C 0.0414 0.99617 0.12639 0.0
C462 C 0.96648 0.00896 0.17062 0.0
C463 C 0.04345 0.99558 0.10434 0.0
C464 C 0.96174 0.04438 0.25989 0.0
C465 C 0.96479 0.04189 0.23793 0.0
C466 C 0.03808 0.02149 0.1948 0.0
C467 C 0.00737 0.01381 0.13691 0.0
C468 C 0.00488 0.01428 0.16038 0.0
C469 C 0.99644 0.01921 0.22829 0.0
C470 C 0.99957 0.01681 0.20494 0.0
H471 H 0.95232 0.04358 0.09398 0.0
H472 H 0.94928 0.04553 0.1323 0.0
H473 H 0.07069 0.0252 0.16546 0.0
H474 H 0.04372 0.98453 0.27249 0.0
H475 H 0.04945 0.98092 0.2341 0.0
C476 C 0.02322 0.03277 0.91669 0.0
C477 C 0.01569 0.99841 0.92879 0.0
C478 C 0.02209 0.03068 0.89464 0.0
C479 C 0.98097 0.96854 0.85053 0.0
H480 H 0.06133 0.02695 0.81712 0.0
C481 C 0.99587 0.94415 0.7607 0.0
C482 C 1.00045 0.97844 0.74821 0.0
C483 C 0.99866 0.94696 0.78266 0.0
C484 C 0.03842 0.01079 0.82623 0.0
H485 H 1.00163 0.93474 0.92705 0.0
H486 H 1.00024 0.93103 0.88869 0.0
H487 H 0.06451 0.03106 0.85558 0.0
H488 H 0.01175 0.04262 0.74911 0.0
H489 H 0.01685 0.04746 0.78749 0.0
H490 H 0.95499 0.94815 0.82122 0.0
C491 C 0.00631 0.95977 0.89625 0.0
C492 C 0.04021 0.01316 0.84827 0.0
C493 C 0.00735 0.96187 0.91828 0.0
C494 C 0.00856 0.01554 0.75823 0.0
C495 C 0.01145 0.01833 0.78023 0.0
C496 C 0.97926 0.96609 0.82853 0.0
C497 C 0.01347 0.99418 0.88415 0.0
C498 C 0.01155 0.99197 0.86069 0.0
C499 C 0.0062 0.98411 0.7927 0.0
C500 C 0.00802 0.98709 0.81611 0.0
H501 H 0.02963 0.06146 0.92424 0.0
H502 H 0.02726 0.05786 0.88583 0.0
H503 H 0.95791 0.95245 0.85958 0.0
H504 H 0.99043 0.91498 0.7535 0.0
H505 H 0.99523 0.91991 0.79179 0.0
C506 C 0.47991 0.53255 0.60257 0.0
C507 C 0.51331 0.51407 0.59199 0.0
C508 C 0.4784 0.53371 0.62459 0.0
C509 C 0.54386 0.52221 0.67243 0.0
H510 H 0.43696 0.51009 0.69994 0.0
C511 C 0.52491 0.50364 0.76287 0.0
C512 C 0.49368 0.52697 0.77256 0.0
C513 C 0.52815 0.50144 0.74086 0.0
C514 C 0.46699 0.51379 0.69247 0.0
H515 H 0.57139 0.48227 0.59634 0.0
H516 H 0.56826 0.48345 0.63477 0.0
H517 H 0.44112 0.50702 0.66158 0.0
H518 H 0.44198 0.56699 0.76653 0.0
H519 H 0.44717 0.5624 0.72825 0.0
H520 H 0.56964 0.52839 0.7035 0.0
C521 C 0.5436 0.49778 0.62604 0.0
C522 C 0.46941 0.51218 0.67047 0.0
C523 C 0.54529 0.49692 0.60398 0.0
C524 C 0.46586 0.54804 0.75967 0.0
C525 C 0.46888 0.54554 0.73771 0.0
C526 C 0.54146 0.52347 0.69447 0.0
C527 C 0.51005 0.51609 0.63664 0.0
C528 C 0.50782 0.51673 0.66013 0.0
C529 C 0.50003 0.52222 0.72806 0.0
C530 C 0.50294 0.51961 0.70471 0.0
H531 H 0.45491 0.54637 0.59385 0.0
H532 H 0.45251 0.5488 0.63217 0.0
H533 H 0.57388 0.52637 0.66504 0.0
H534 H 0.54651 0.48655 0.77225 0.0
H535 H 0.55221 0.4829 0.73386 0.0
C536 C 0.52271 0.53349 0.4162 0.0
C537 C 0.51524 0.4992 0.42836 0.0
C538 C 0.52158 0.53125 0.39415 0.0
C539 C 0.48071 0.46863 0.35012 0.0
H540 H 0.56104 0.5269 0.31664 0.0
C541 C 0.49626 0.44319 0.26037 0.0
C542 C 0.50083 0.47733 0.24776 0.0
C543 C 0.49886 0.44628 0.28233 0.0
C544 C 0.53814 0.51077 0.32577 0.0
H545 H 0.50127 0.43549 0.42673 0.0
H546 H 0.49989 0.43153 0.38838 0.0
H547 H 0.56401 0.53146 0.35508 0.0
H548 H 0.51187 0.54156 0.24848 0.0
H549 H 0.51668 0.54688 0.28686 0.0
H550 H 0.45495 0.4478 0.32084 0.0
C551 C 0.5059 0.46034 0.39588 0.0
C552 C 0.5398 0.5134 0.3478 0.0
C553 C 0.50694 0.46258 0.41791 0.0
C554 C 0.50872 0.51457 0.25768 0.0
C555 C 0.51144 0.51764 0.27968 0.0
C556 C 0.47912 0.46591 0.32812 0.0
C557 C 0.51302 0.49466 0.38371 0.0
C558 C 0.51117 0.49226 0.36026 0.0
C559 C 0.50622 0.48356 0.29227 0.0
C560 C 0.50788 0.48684 0.31568 0.0
H561 H 0.52908 0.56223 0.4237 0.0
H562 H 0.52672 0.55837 0.38529 0.0
H563 H 0.45766 0.45256 0.35919 0.0
H564 H 0.49096 0.41391 0.25326 0.0
H565 H 0.49545 0.41933 0.29155 0.0
loop_
_geom_bond_atom_site_label_1
_geom_bond_atom_site_label_2
_geom_bond_distance
_geom_bond_site_symmetry_2
_ccdc_geom_bond_type
O0 Zn1 1.953 . S
O0 C16 1.225 1_565 S
Zn1 O0 1.953 . S
Zn1 O2 1.949 1_565 S
Zn1 O8 1.919 . S
Zn1 O13 1.924 1_565 S
O2 Zn1 1.949 1_545 S
O2 Zn3 1.923 1_444 S
O2 Zn4 1.950 1_455 S
O2 Zn5 1.945 1_554 S
Zn3 O2 1.923 1_666 S
Zn3 O6 1.934 . S
Zn3 O9 1.941 1_655 S
Zn3 O10 1.965 . S
Zn4 O2 1.950 1_655 S
Zn4 O11 1.938 1_545 S
Zn4 O12 1.906 . S
Zn4 O22 1.953 . S
Zn5 O2 1.945 1_556 S
Zn5 O7 1.932 . S
Zn5 O14 1.977 1_455 S
Zn5 O15 1.901 1_556 S
O6 Zn3 1.934 . S
O6 C17 1.225 1_665 S
O7 Zn5 1.932 . S
O7 C17 1.307 . S
O8 Zn1 1.919 . S
O8 C19 1.253 . S
O9 Zn3 1.941 1_455 S
O9 C19 1.283 1_556 S
O10 Zn3 1.965 . S
O10 C18 1.303 1_556 S
O11 Zn4 1.938 1_565 S
O11 C18 1.247 . S
O12 Zn4 1.906 . S
O12 C20 1.304 . S
O13 Zn1 1.924 1_545 S
O13 C21 1.311 . S
O14 Zn5 1.977 1_655 S
O14 C20 1.272 1_556 S
O15 Zn5 1.901 1_554 S
O15 C21 1.255 . S
C16 O0 1.225 1_545 S
C16 O22 1.298 1_455 S
C17 O6 1.225 1_445 S
C17 O7 1.307 . S
C18 O10 1.303 1_554 S
C18 O11 1.247 . S
C19 O8 1.253 . S
C19 O9 1.283 1_554 S
C20 O12 1.304 . S
C20 O14 1.272 1_554 S
C21 O13 1.311 . S
C21 O15 1.255 . S
O22 Zn4 1.953 . S
O22 C16 1.298 1_655 S
O23 Zn24 1.953 . S
O23 C39 1.225 . S
Zn24 O23 1.953 . S
Zn24 O25 1.949 . S
Zn24 O31 1.919 . S
Zn24 O36 1.924 . S
O25 Zn24 1.949 . S
O25 Zn26 1.923 . S
O25 Zn27 1.950 . S
O25 Zn28 1.945 . S
Zn26 O25 1.923 . S
Zn26 O29 1.933 . S
Zn26 O32 1.941 . S
Zn26 O33 1.965 . S
Zn27 O25 1.950 . S
Zn27 O34 1.938 . S
Zn27 O35 1.906 . S
Zn27 O45 1.953 . S
Zn28 O25 1.945 . S
Zn28 O30 1.932 . S
Zn28 O37 1.977 . S
Zn28 O38 1.910 . S
O29 Zn26 1.933 . S
O29 C40 1.226 . S
O30 Zn28 1.932 . S
O30 C40 1.307 . S
O31 Zn24 1.919 . S
O31 C42 1.253 . S
O32 Zn26 1.941 . S
O32 C42 1.283 . S
O33 Zn26 1.965 . S
O33 C41 1.303 . S
O34 Zn27 1.938 . S
O34 C41 1.247 . S
O35 Zn27 1.906 . S
O35 C43 1.304 . S
O36 Zn24 1.924 . S
O36 C44 1.311 . S
O37 Zn28 1.977 . S
O37 C43 1.272 . S
O38 Zn28 1.910 . S
O38 C44 1.231 . S
C39 O23 1.225 . S
C39 O45 1.298 . S
C40 O29 1.226 . S
C40 O30 1.307 . S
C41 O33 1.303 . S
C41 O34 1.247 . S
C42 O31 1.253 . S
C42 O32 1.283 . S
C43 O35 1.304 . S
C43 O37 1.272 . S
C44 O36 1.311 . S
C44 O38 1.231 . S
O45 Zn27 1.953 . S
O45 C39 1.298 . S
C46 C47 1.264 . S
C46 C51 1.479 . S
C46 C56 1.465 . S
C47 C46 1.264 . S
C47 C49 1.339 . S
C47 H74 0.931 . S
C48 C49 1.395 . S
C48 C50 1.320 . S
C49 C47 1.339 . S
C49 C48 1.395 . S
C49 H75 0.929 . S
C50 C48 1.320 . S
C50 C51 1.405 . S
C50 H76 0.930 . S
C51 C46 1.479 . S
C51 C50 1.405 . S
C51 H77 0.931 . S
U52 O53 2.454 1_545 S
U52 O54 2.458 1_545 S
U52 C55 2.984 1_545 S
U52 C56 2.847 1_455 S
U52 C69 2.882 . S
U52 O70 2.441 1_455 S
U52 O71 2.420 1_455 S
U52 O72 2.455 1_545 S
U52 O73 2.449 . S
O53 U52 2.454 1_565 S
O53 C55 1.353 . S
O54 U52 2.458 1_565 S
O54 C55 1.286 . S
C55 U52 2.984 1_565 S
C55 O53 1.353 . S
C55 O54 1.286 . S
C55 C57 1.363 . S
C56 C46 1.465 . S
C56 U52 2.847 1_655 S
C56 O70 1.249 . S
C56 O71 1.202 . S
C57 C55 1.363 . S
C57 C59 1.408 . S
C57 C62 1.342 . S
C58 C59 1.310 . S
C58 C61 1.461 . S
C58 H78 0.932 . S
C59 C57 1.408 . S
C59 C58 1.310 . S
C59 H79 0.930 . S
C60 C61 1.474 . S
C60 C62 1.285 . S
C60 H80 0.929 . S
C61 C58 1.461 . S
C61 C60 1.474 . S
C62 C57 1.342 . S
C62 C60 1.285 . S
C62 H81 0.930 . S
C63 C66 1.424 1_455 S
C63 C68 1.245 1_545 S
C63 C69 1.428 . S
C64 C67 1.260 1_565 S
C64 C68 1.477 . S
C64 H82 0.932 . S
C65 C66 1.384 . S
C65 C67 1.479 1_655 S
C65 H83 0.929 . S
C66 C63 1.424 1_655 S
C66 C65 1.384 . S
C66 H84 0.928 . S
C67 C64 1.260 1_545 S
C67 C65 1.479 1_455 S
C68 C63 1.245 1_565 S
C68 C64 1.477 . S
C68 H85 0.932 . S
C69 U52 2.882 . S
C69 C63 1.428 . S
C69 O72 1.301 1_545 S
C69 O73 1.282 . S
O70 U52 2.441 1_655 S
O70 C56 1.249 . S
O71 U52 2.420 1_655 S
O71 C56 1.202 . S
O72 U52 2.455 1_565 S
O72 C69 1.301 1_565 S
O73 U52 2.449 . S
O73 C69 1.282 . S
H74 C47 0.931 . S
H75 C49 0.929 . S
H76 C50 0.930 . S
H77 C51 0.931 . S
H78 C58 0.932 . S
H79 C59 0.930 . S
H80 C60 0.929 . S
H81 C62 0.930 . S
H82 C64 0.932 . S
H83 C65 0.929 . S
H84 C66 0.928 . S
H85 C68 0.932 . S
C86 C87 1.264 . S
C86 C91 1.479 . S
C86 C96 1.465 . S
C87 C86 1.264 . S
C87 C89 1.339 . S
C87 H114 0.931 . S
C88 C89 1.395 . S
C88 C90 1.320 . S
C89 C87 1.339 . S
C89 C88 1.395 . S
C89 H115 0.929 . S
C90 C88 1.320 . S
C90 C91 1.405 . S
C90 H116 0.930 . S
C91 C86 1.479 . S
C91 C90 1.405 . S
C91 H117 0.931 . S
U92 O93 2.454 1_565 S
U92 O94 2.458 1_565 S
U92 C95 2.984 1_565 S
U92 C96 2.847 1_455 S
U92 C109 2.882 . S
U92 O110 2.441 . S
U92 O111 2.420 1_455 S
U92 O112 2.455 1_565 S
U92 O113 2.449 . S
O93 U92 2.454 1_545 S
O93 C95 1.353 . S
O94 U92 2.458 1_545 S
O94 C95 1.286 . S
C95 U92 2.984 1_545 S
C95 O93 1.353 . S
C95 O94 1.286 . S
C95 C97 1.363 . S
C96 C86 1.465 . S
C96 U92 2.847 1_655 S
C96 O110 1.249 1_655 S
C96 O111 1.202 . S
C97 C95 1.363 . S
C97 C99 1.408 . S
C97 C102 1.342 . S
C98 C99 1.310 . S
C98 C101 1.461 . S
C98 H118 0.932 . S
C99 C97 1.408 . S
C99 C98 1.310 . S
C99 H119 0.930 . S
C100 C101 1.474 . S
C100 C102 1.285 . S
C100 H120 0.929 . S
C101 C98 1.461 . S
C101 C100 1.474 . S
C102 C97 1.342 . S
C102 C100 1.285 . S
C102 H121 0.930 . S
C103 C106 1.420 1_455 S
C103 C108 1.245 1_565 S
C103 C109 1.428 . S
C104 C107 1.260 1_545 S
C104 C108 1.477 . S
C104 H122 0.932 . S
C105 C106 1.385 . S
C105 C107 1.479 1_655 S
C105 H123 0.929 . S
C106 C103 1.420 1_655 S
C106 C105 1.385 . S
C106 H124 0.931 . S
C107 C104 1.260 1_565 S
C107 C105 1.479 1_455 S
C108 C103 1.245 1_545 S
C108 C104 1.477 . S
C108 H125 0.932 . S
C109 U92 2.882 . S
C109 C103 1.428 . S
C109 O112 1.301 1_565 S
C109 O113 1.282 . S
O110 U92 2.441 . S
O110 C96 1.249 1_455 S
O111 U92 2.420 1_655 S
O111 C96 1.202 . S
O112 U92 2.455 1_545 S
O112 C109 1.301 1_545 S
O113 U92 2.449 . S
O113 C109 1.282 . S
H114 C87 0.931 . S
H115 C89 0.929 . S
H116 C90 0.930 . S
H117 C91 0.931 . S
H118 C98 0.932 . S
H119 C99 0.930 . S
H120 C100 0.929 . S
H121 C102 0.930 . S
H122 C104 0.932 . S
H123 C105 0.929 . S
H124 C106 0.931 . S
H125 C108 0.932 . S
C126 C127 1.264 . S
C126 C131 1.479 . S
C126 C136 1.465 . S
C127 C126 1.264 . S
C127 C129 1.339 . S
C127 H154 0.931 . S
C128 C129 1.395 . S
C128 C130 1.320 . S
C129 C127 1.339 . S
C129 C128 1.395 . S
C129 H155 0.929 . S
C130 C128 1.320 . S
C130 C131 1.405 . S
C130 H156 0.930 . S
C131 C126 1.479 . S
C131 C130 1.405 . S
C131 H157 0.931 . S
U132 O133 2.454 . S
U132 O134 2.458 . S
U132 C135 2.984 . S
U132 C136 2.847 . S
U132 C149 2.882 . S
U132 O150 2.441 . S
U132 O151 2.420 . S
U132 O152 2.455 . S
U132 O153 2.449 . S
O133 U132 2.454 . S
O133 C135 1.353 . S
O134 U132 2.458 . S
O134 C135 1.286 . S
C135 U132 2.984 . S
C135 O133 1.353 . S
C135 O134 1.286 . S
C135 C137 1.363 . S
C136 C126 1.465 . S
C136 U132 2.847 . S
C136 O150 1.249 . S
C136 O151 1.202 . S
C137 C135 1.363 . S
C137 C139 1.408 . S
C137 C142 1.342 . S
C138 C139 1.310 . S
C138 C141 1.461 . S
C138 H158 0.932 . S
C139 C137 1.408 . S
C139 C138 1.310 . S
C139 H159 0.930 . S
C140 C141 1.474 . S
C140 C142 1.285 . S
C140 H160 0.929 . S
C141 C138 1.461 . S
C141 C140 1.474 . S
C142 C137 1.342 . S
C142 C140 1.285 . S
C142 H161 0.930 . S
C143 C146 1.424 . S
C143 C148 1.245 . S
C143 C149 1.428 . S
C144 C147 1.260 . S
C144 C148 1.477 . S
C144 H162 0.932 . S
C145 C146 1.384 . S
C145 C147 1.479 . S
C145 H163 0.929 . S
C146 C143 1.424 . S
C146 C145 1.384 . S
C146 H164 0.928 . S
C147 C144 1.260 . S
C147 C145 1.479 . S
C148 C143 1.245 . S
C148 C144 1.477 . S
C148 H165 0.932 . S
C149 U132 2.882 . S
C149 C143 1.428 . S
C149 O152 1.301 . S
C149 O153 1.282 . S
O150 U132 2.441 . S
O150 C136 1.249 . S
O151 U132 2.420 . S
O151 C136 1.202 . S
O152 U132 2.455 . S
O152 C149 1.301 . S
O153 U132 2.449 . S
O153 C149 1.282 . S
H154 C127 0.931 . S
H155 C129 0.929 . S
H156 C130 0.930 . S
H157 C131 0.931 . S
H158 C138 0.932 . S
H159 C139 0.930 . S
H160 C140 0.929 . S
H161 C142 0.930 . S
H162 C144 0.932 . S
H163 C145 0.929 . S
H164 C146 0.928 . S
H165 C148 0.932 . S
C166 C167 1.264 . S
C166 C171 1.479 . S
C166 C176 1.465 . S
C167 C166 1.264 . S
C167 C169 1.339 . S
C167 H194 0.931 . S
C168 C169 1.395 . S
C168 C170 1.320 . S
C169 C167 1.339 . S
C169 C168 1.395 . S
C169 H195 0.929 . S
C170 C168 1.320 . S
C170 C171 1.405 . S
C170 H196 0.930 . S
C171 C166 1.479 . S
C171 C170 1.405 . S
C171 H197 0.931 . S
U172 O173 2.454 . S
U172 O174 2.458 . S
U172 C175 2.984 . S
U172 C176 2.847 . S
U172 C189 2.882 . S
U172 O190 2.441 . S
U172 O191 2.420 . S
U172 O192 2.455 . S
U172 O193 2.449 . S
O173 U172 2.454 . S
O173 C175 1.353 . S
O174 U172 2.458 . S
O174 C175 1.286 . S
C175 U172 2.984 . S
C175 O173 1.353 . S
C175 O174 1.286 . S
C175 C177 1.363 . S
C176 C166 1.465 . S
C176 U172 2.847 . S
C176 O190 1.249 . S
C176 O191 1.202 . S
C177 C175 1.363 . S
C177 C179 1.408 . S
C177 C182 1.342 . S
C178 C179 1.310 . S
C178 C181 1.461 . S
C178 H198 0.932 . S
C179 C177 1.408 . S
C179 C178 1.310 . S
C179 H199 0.930 . S
C180 C181 1.474 . S
C180 C182 1.285 . S
C180 H200 0.929 . S
C181 C178 1.461 . S
C181 C180 1.474 . S
C182 C177 1.342 . S
C182 C180 1.285 . S
C182 H201 0.930 . S
C183 C186 1.424 . S
C183 C188 1.245 . S
C183 C189 1.428 . S
C184 C187 1.260 . S
C184 C188 1.477 . S
C184 H202 0.932 . S
C185 C186 1.384 . S
C185 C187 1.479 . S
C185 H203 0.929 . S
C186 C183 1.424 . S
C186 C185 1.384 . S
C186 H204 0.928 . S
C187 C184 1.260 . S
C187 C185 1.479 . S
C188 C183 1.245 . S
C188 C184 1.477 . S
C188 H205 0.932 . S
C189 U172 2.882 . S
C189 C183 1.428 . S
C189 O192 1.301 . S
C189 O193 1.282 . S
O190 U172 2.441 . S
O190 C176 1.249 . S
O191 U172 2.420 . S
O191 C176 1.202 . S
O192 U172 2.455 . S
O192 C189 1.301 . S
O193 U172 2.449 . S
O193 C189 1.282 . S
H194 C167 0.931 . S
H195 C169 0.929 . S
H196 C170 0.930 . S
H197 C171 0.931 . S
H198 C178 0.932 . S
H199 C179 0.930 . S
H200 C180 0.929 . S
H201 C182 0.930 . S
H202 C184 0.932 . S
H203 C185 0.929 . S
H204 C186 0.928 . S
H205 C188 0.932 . S
C206 C207 1.349 . S
C206 C208 1.327 . S
C206 H231 0.950 1_554 S
C207 C206 1.349 . S
C207 C223 1.349 . S
C208 C206 1.327 . S
C208 C227 1.429 . S
C208 H232 0.950 . S
C209 C226 1.574 . S
C209 C228 1.368 . S
C209 H233 0.949 . S
H210 C214 0.949 . S
C211 C212 1.349 . S
C211 C213 1.327 . S
C211 H234 0.950 . S
C212 C211 1.349 . S
C212 C224 1.349 . S
C213 C211 1.327 . S
C213 C229 1.429 . S
C213 H235 0.950 . S
C214 H210 0.949 . S
C214 C222 1.574 . S
C214 C230 1.368 . S
H215 C223 0.950 . S
H216 C221 0.950 . S
H217 C222 0.949 . S
H218 C224 0.950 . S
H219 C225 0.950 . S
H220 C226 0.949 . S
C221 H216 0.950 . S
C221 C223 1.327 . S
C221 C227 1.429 . S
C222 C214 1.574 . S
C222 H217 0.949 . S
C222 C228 1.368 . S
C223 C207 1.349 . S
C223 H215 0.950 . S
C223 C221 1.327 . S
C224 C212 1.349 . S
C224 H218 0.950 . S
C224 C225 1.327 . S
C225 H219 0.950 . S
C225 C224 1.327 . S
C225 C229 1.429 . S
C226 C209 1.574 . S
C226 H220 0.949 . S
C226 C230 1.368 . S
C227 C208 1.429 . S
C227 C221 1.429 . S
C227 C228 1.523 . S
C228 C209 1.368 . S
C228 C222 1.368 . S
C228 C227 1.523 . S
C229 C213 1.429 . S
C229 C225 1.429 . S
C229 C230 1.523 . S
C230 C214 1.368 . S
C230 C226 1.368 . S
C230 C229 1.523 . S
H231 C206 0.950 1_556 S
H232 C208 0.950 . S
H233 C209 0.949 . S
H234 C211 0.950 . S
H235 C213 0.950 . S
C236 C237 1.356 . S
C236 C238 1.334 . S
C236 H261 0.936 1_556 S
C237 C236 1.356 . S
C237 C253 1.349 . S
C238 C236 1.334 . S
C238 C257 1.429 . S
C238 H262 0.950 . S
C239 C256 1.574 . S
C239 C258 1.368 . S
C239 H263 0.949 . S
H240 C244 0.949 . S
C241 C242 1.349 . S
C241 C243 1.327 . S
C241 H264 0.950 . S
C242 C241 1.349 . S
C242 C254 1.349 . S
C243 C241 1.327 . S
C243 C259 1.429 . S
C243 H265 0.950 . S
C244 H240 0.949 . S
C244 C252 1.574 . S
C244 C260 1.368 . S
H245 C253 0.950 . S
H246 C251 0.950 . S
H247 C252 0.949 . S
H248 C254 0.950 . S
H249 C255 0.950 . S
H250 C256 0.949 . S
C251 H246 0.950 . S
C251 C253 1.327 . S
C251 C257 1.429 . S
C252 C244 1.574 . S
C252 H247 0.949 . S
C252 C258 1.368 . S
C253 C237 1.349 . S
C253 H245 0.950 . S
C253 C251 1.327 . S
C254 C242 1.349 . S
C254 H248 0.950 . S
C254 C255 1.327 . S
C255 H249 0.950 . S
C255 C254 1.327 . S
C255 C259 1.429 . S
C256 C239 1.574 . S
C256 H250 0.949 . S
C256 C260 1.368 . S
C257 C238 1.429 . S
C257 C251 1.429 . S
C257 C258 1.523 . S
C258 C239 1.368 . S
C258 C252 1.368 . S
C258 C257 1.523 . S
C259 C243 1.429 . S
C259 C255 1.429 . S
C259 C260 1.523 . S
C260 C244 1.368 . S
C260 C256 1.368 . S
C260 C259 1.523 . S
H261 C236 0.936 1_554 S
H262 C238 0.950 . S
H263 C239 0.949 . S
H264 C241 0.950 . S
H265 C243 0.950 . S
C266 C267 1.349 . S
C266 C268 1.327 . S
C266 H291 0.950 . S
C267 C266 1.349 . S
C267 C283 1.349 . S
C268 C266 1.327 . S
C268 C287 1.429 . S
C268 H292 0.950 . S
C269 C286 1.574 . S
C269 C288 1.368 . S
C269 H293 0.949 . S
H270 C274 0.949 . S
C271 C272 1.349 . S
C271 C273 1.327 . S
C271 H294 0.950 . S
C272 C271 1.349 . S
C272 C284 1.349 . S
C273 C271 1.327 . S
C273 C289 1.429 . S
C273 H295 0.950 . S
C274 H270 0.949 . S
C274 C282 1.574 . S
C274 C290 1.368 . S
H275 C283 0.935 1_556 S
H276 C281 0.950 . S
H277 C282 0.949 . S
H278 C284 0.950 . S
H279 C285 0.950 . S
H280 C286 0.949 . S
C281 H276 0.950 . S
C281 C283 1.327 . S
C281 C287 1.429 . S
C282 C274 1.574 . S
C282 H277 0.949 . S
C282 C288 1.368 . S
C283 C267 1.349 . S
C283 H275 0.935 1_554 S
C283 C281 1.327 . S
C284 C272 1.349 . S
C284 H278 0.950 . S
C284 C285 1.327 . S
C285 H279 0.950 . S
C285 C284 1.327 . S
C285 C289 1.429 . S
C286 C269 1.574 . S
C286 H280 0.949 . S
C286 C290 1.368 . S
C287 C268 1.429 . S
C287 C281 1.429 . S
C287 C288 1.523 . S
C288 C269 1.368 . S
C288 C282 1.368 . S
C288 C287 1.523 . S
C289 C273 1.429 . S
C289 C285 1.429 . S
C289 C290 1.523 . S
C290 C274 1.368 . S
C290 C286 1.368 . S
C290 C289 1.523 . S
H291 C266 0.950 . S
H292 C268 0.950 . S
H293 C269 0.949 . S
H294 C271 0.950 . S
H295 C273 0.950 . S
C296 C297 1.349 1_554 S
C296 C298 1.327 . S
C296 H321 0.950 . S
C297 C296 1.349 1_556 S
C297 C313 1.349 . S
C298 C296 1.327 . S
C298 C317 1.429 1_554 S
C298 H322 0.950 . S
C299 C316 1.574 . S
C299 C318 1.368 . S
C299 H323 0.949 . S
H300 C304 0.949 . S
C301 C302 1.349 . S
C301 C303 1.327 . S
C301 H324 0.950 . S
C302 C301 1.349 . S
C302 C314 1.349 . S
C303 C301 1.327 . S
C303 C319 1.429 . S
C303 H325 0.950 . S
C304 H300 0.949 . S
C304 C312 1.574 . S
C304 C320 1.368 . S
H305 C313 0.950 . S
H306 C311 0.950 . S
H307 C312 0.949 1_554 S
H308 C314 0.950 . S
H309 C315 0.950 . S
H310 C316 0.949 . S
C311 H306 0.950 . S
C311 C313 1.327 . S
C311 C317 1.429 . S
C312 C304 1.574 . S
C312 H307 0.949 1_556 S
C312 C318 1.368 . S
C313 C297 1.349 . S
C313 H305 0.950 . S
C313 C311 1.327 . S
C314 C302 1.349 . S
C314 H308 0.950 . S
C314 C315 1.327 . S
C315 H309 0.950 . S
C315 C314 1.327 . S
C315 C319 1.429 . S
C316 C299 1.574 . S
C316 H310 0.949 . S
C316 C320 1.368 . S
C317 C298 1.429 1_556 S
C317 C311 1.429 . S
C317 C318 1.523 . S
C318 C299 1.368 . S
C318 C312 1.368 . S
C318 C317 1.523 . S
C319 C303 1.429 . S
C319 C315 1.429 . S
C319 C320 1.523 . S
C320 C304 1.368 . S
C320 C316 1.368 . S
C320 C319 1.523 . S
H321 C296 0.950 . S
H322 C298 0.950 . S
H323 C299 0.949 . S
H324 C301 0.950 . S
H325 C303 0.950 . S
C326 C327 1.349 . S
C326 C328 1.327 . S
C326 H351 0.950 . S
C327 C326 1.349 . S
C327 C343 1.349 . S
C328 C326 1.327 . S
C328 C347 1.429 . S
C328 H352 0.950 . S
C329 C346 1.574 . S
C329 C348 1.368 . S
C329 H353 0.949 . S
H330 C334 0.949 . S
C331 C332 1.349 . S
C331 C333 1.327 . S
C331 H354 0.950 . S
C332 C331 1.349 . S
C332 C344 1.349 . S
C333 C331 1.327 . S
C333 C349 1.429 . S
C333 H355 0.950 . S
C334 H330 0.949 . S
C334 C342 1.574 . S
C334 C350 1.368 . S
H335 C343 0.950 . S
H336 C341 0.950 . S
H337 C342 0.949 . S
H338 C344 0.950 . S
H339 C345 0.950 . S
H340 C346 0.949 . S
C341 H336 0.950 . S
C341 C343 1.327 . S
C341 C347 1.429 . S
C342 C334 1.574 . S
C342 H337 0.949 . S
C342 C348 1.368 . S
C343 C327 1.349 . S
C343 H335 0.950 . S
C343 C341 1.327 . S
C344 C332 1.349 . S
C344 H338 0.950 . S
C344 C345 1.327 . S
C345 H339 0.950 . S
C345 C344 1.327 . S
C345 C349 1.429 . S
C346 C329 1.574 . S
C346 H340 0.949 . S
C346 C350 1.368 . S
C347 C328 1.429 . S
C347 C341 1.429 . S
C347 C348 1.523 . S
C348 C329 1.368 . S
C348 C342 1.368 . S
C348 C347 1.523 . S
C349 C333 1.429 . S
C349 C345 1.429 . S
C349 C350 1.523 . S
C350 C334 1.368 . S
C350 C346 1.368 . S
C350 C349 1.523 . S
H351 C326 0.950 . S
H352 C328 0.950 . S
H353 C329 0.949 . S
H354 C331 0.950 . S
H355 C333 0.950 . S
C356 C357 1.349 . S
C356 C358 1.327 . S
C356 H381 0.950 . S
C357 C356 1.349 . S
C357 C373 1.349 . S
C358 C356 1.327 . S
C358 C377 1.429 . S
C358 H382 0.950 . S
C359 C376 1.574 . S
C359 C378 1.368 . S
C359 H383 0.949 . S
H360 C364 0.949 . S
C361 C362 1.349 . S
C361 C363 1.327 . S
C361 H384 0.950 . S
C362 C361 1.349 . S
C362 C374 1.349 . S
C363 C361 1.327 . S
C363 C379 1.429 . S
C363 H385 0.950 . S
C364 H360 0.949 . S
C364 C372 1.574 . S
C364 C380 1.368 . S
H365 C373 0.950 . S
H366 C371 0.950 . S
H367 C372 0.949 . S
H368 C374 0.950 . S
H369 C375 0.950 . S
H370 C376 0.949 . S
C371 H366 0.950 . S
C371 C373 1.327 . S
C371 C377 1.429 . S
C372 C364 1.574 . S
C372 H367 0.949 . S
C372 C378 1.368 . S
C373 C357 1.349 . S
C373 H365 0.950 . S
C373 C371 1.327 . S
C374 C362 1.349 . S
C374 H368 0.950 . S
C374 C375 1.327 . S
C375 H369 0.950 . S
C375 C374 1.327 . S
C375 C379 1.429 . S
C376 C359 1.574 . S
C376 H370 0.949 . S
C376 C380 1.368 . S
C377 C358 1.429 . S
C377 C371 1.429 . S
C377 C378 1.523 . S
C378 C359 1.368 . S
C378 C372 1.368 . S
C378 C377 1.523 . S
C379 C363 1.429 . S
C379 C375 1.429 . S
C379 C380 1.523 . S
C380 C364 1.368 . S
C380 C376 1.368 . S
C380 C379 1.523 . S
H381 C356 0.950 . S
H382 C358 0.950 . S
H383 C359 0.949 . S
H384 C361 0.950 . S
H385 C363 0.950 . S
C386 C387 1.349 . S
C386 C388 1.327 . S
C386 H411 0.950 . S
C387 C386 1.349 . S
C387 C403 1.349 . S
C388 C386 1.327 . S
C388 C407 1.429 . S
C388 H412 0.950 . S
C389 C406 1.574 . S
C389 C408 1.368 . S
C389 H413 0.949 . S
H390 C394 0.949 . S
C391 C392 1.349 . S
C391 C393 1.327 . S
C391 H414 0.950 . S
C392 C391 1.349 . S
C392 C404 1.349 . S
C393 C391 1.327 . S
C393 C409 1.429 . S
C393 H415 0.950 . S
C394 H390 0.949 . S
C394 C402 1.574 . S
C394 C410 1.368 . S
H395 C403 0.950 . S
H396 C401 0.950 . S
H397 C402 0.949 . S
H398 C404 0.950 . S
H399 C405 0.950 . S
H400 C406 0.949 . S
C401 H396 0.950 . S
C401 C403 1.327 . S
C401 C407 1.429 . S
C402 C394 1.574 . S
C402 H397 0.949 . S
C402 C408 1.368 . S
C403 C387 1.349 . S
C403 H395 0.950 . S
C403 C401 1.327 . S
C404 C392 1.349 . S
C404 H398 0.950 . S
C404 C405 1.327 . S
C405 H399 0.950 . S
C405 C404 1.327 . S
C405 C409 1.429 . S
C406 C389 1.574 . S
C406 H400 0.949 . S
C406 C410 1.368 . S
C407 C388 1.429 . S
C407 C401 1.429 . S
C407 C408 1.523 . S
C408 C389 1.368 . S
C408 C402 1.368 . S
C408 C407 1.523 . S
C409 C393 1.429 . S
C409 C405 1.429 . S
C409 C410 1.523 . S
C410 C394 1.368 . S
C410 C406 1.368 . S
C410 C409 1.523 . S
H411 C386 0.950 . S
H412 C388 0.950 . S
H413 C389 0.949 . S
H414 C391 0.950 . S
H415 C393 0.950 . S
C416 C417 1.349 . S
C416 C418 1.327 . S
C416 H441 0.950 . S
C417 C416 1.349 . S
C417 C433 1.349 . S
C418 C416 1.327 . S
C418 C437 1.429 . S
C418 H442 0.950 . S
C419 C436 1.574 . S
C419 C438 1.368 . S
C419 H443 0.949 . S
H420 C424 0.949 . S
C421 C422 1.349 . S
C421 C423 1.327 . S
C421 H444 0.950 . S
C422 C421 1.349 . S
C422 C434 1.349 . S
C423 C421 1.327 . S
C423 C439 1.429 . S
C423 H445 0.950 . S
C424 H420 0.949 . S
C424 C432 1.574 . S
C424 C440 1.368 . S
H425 C433 0.950 . S
H426 C431 0.950 . S
H427 C432 0.949 . S
H428 C434 0.950 . S
H429 C435 0.950 . S
H430 C436 0.949 . S
C431 H426 0.950 . S
C431 C433 1.327 . S
C431 C437 1.429 . S
C432 C424 1.574 . S
C432 H427 0.949 . S
C432 C438 1.368 . S
C433 C417 1.349 . S
C433 H425 0.950 . S
C433 C431 1.327 . S
C434 C422 1.349 . S
C434 H428 0.950 . S
C434 C435 1.327 . S
C435 H429 0.950 . S
C435 C434 1.327 . S
C435 C439 1.429 . S
C436 C419 1.574 . S
C436 H430 0.949 . S
C436 C440 1.368 . S
C437 C418 1.429 . S
C437 C431 1.429 . S
C437 C438 1.523 . S
C438 C419 1.368 . S
C438 C432 1.368 . S
C438 C437 1.523 . S
C439 C423 1.429 . S
C439 C435 1.429 . S
C439 C440 1.523 . S
C440 C424 1.368 . S
C440 C436 1.368 . S
C440 C439 1.523 . S
H441 C416 0.950 . S
H442 C418 0.950 . S
H443 C419 0.949 . S
H444 C421 0.950 . S
H445 C423 0.950 . S
C446 C447 1.349 1_655 S
C446 C448 1.327 . S
C446 H471 0.950 . S
C447 C446 1.349 1_455 S
C447 C463 1.349 1_545 S
C448 C446 1.327 . S
C448 C467 1.429 1_655 S
C448 H472 0.950 . S
C449 C466 1.574 . S
C449 C468 1.368 1_565 S
C449 H473 0.949 . S
H450 C454 0.949 . S
C451 C452 1.346 1_465 S
C451 C453 1.327 . S
C451 H474 0.950 . S
C452 C451 1.346 1_645 S
C452 C464 1.351 . S
C453 C451 1.327 . S
C453 C469 1.429 1_565 S
C453 H475 0.950 . S
C454 H450 0.949 . S
C454 C462 1.574 . S
C454 C470 1.368 1_655 S
H455 C463 0.950 . S
H456 C461 0.950 . S
H457 C462 0.949 . S
H458 C464 0.950 . S
H459 C465 0.950 . S
H460 C466 0.949 . S
C461 H456 0.950 . S
C461 C463 1.327 . S
C461 C467 1.429 1_565 S
C462 C454 1.574 . S
C462 H457 0.949 . S
C462 C468 1.368 1_655 S
C463 C447 1.349 1_565 S
C463 H455 0.950 . S
C463 C461 1.327 . S
C464 C452 1.351 . S
C464 H458 0.950 . S
C464 C465 1.327 . S
C465 H459 0.950 . S
C465 C464 1.327 . S
C465 C469 1.429 1_655 S
C466 C449 1.574 . S
C466 H460 0.949 . S
C466 C470 1.368 1_565 S
C467 C448 1.429 1_455 S
C467 C461 1.429 1_545 S
C467 C468 1.523 . S
C468 C449 1.368 1_545 S
C468 C462 1.368 1_455 S
C468 C467 1.523 . S
C469 C453 1.429 1_545 S
C469 C465 1.429 1_455 S
C469 C470 1.523 . S
C470 C454 1.368 1_455 S
C470 C466 1.368 1_545 S
C470 C469 1.523 . S
H471 C446 0.950 . S
H472 C448 0.950 . S
H473 C449 0.949 . S
H474 C451 0.950 . S
H475 C453 0.950 . S
C476 C477 1.349 . S
C476 C478 1.327 . S
C476 H501 0.950 . S
C477 C476 1.349 . S
C477 C493 1.349 1_445 S
C478 C476 1.327 . S
C478 C497 1.429 . S
C478 H502 0.950 . S
C479 C496 1.574 . S
C479 C498 1.368 1_665 S
C479 H503 0.949 . S
H480 C484 0.949 . S
C481 C482 1.349 1_665 S
C481 C483 1.327 . S
C481 H504 0.950 . S
C482 C481 1.349 1_445 S
C482 C494 1.349 . S
C483 C481 1.327 . S
C483 C499 1.429 1_665 S
C483 H505 0.950 . S
C484 H480 0.949 . S
C484 C492 1.574 . S
C484 C500 1.368 . S
H485 C493 0.950 . S
H486 C491 0.950 . S
H487 C492 0.949 . S
H488 C494 0.950 . S
H489 C495 0.950 . S
H490 C496 0.949 . S
C491 H486 0.950 . S
C491 C493 1.327 . S
C491 C497 1.429 1_665 S
C492 C484 1.574 . S
C492 H487 0.949 . S
C492 C498 1.368 . S
C493 C477 1.349 1_665 S
C493 H485 0.950 . S
C493 C491 1.327 . S
C494 C482 1.349 . S
C494 H488 0.950 . S
C494 C495 1.327 . S
C495 H489 0.950 . S
C495 C494 1.327 . S
C495 C499 1.429 . S
C496 C479 1.574 . S
C496 H490 0.949 . S
C496 C500 1.368 1_665 S
C497 C478 1.429 . S
C497 C491 1.429 1_445 S
C497 C498 1.523 . S
C498 C479 1.368 1_445 S
C498 C492 1.368 . S
C498 C497 1.523 . S
C499 C483 1.429 1_445 S
C499 C495 1.429 . S
C499 C500 1.523 . S
C500 C484 1.368 . S
C500 C496 1.368 1_445 S
C500 C499 1.523 . S
H501 C476 0.950 . S
H502 C478 0.950 . S
H503 C479 0.949 . S
H504 C481 0.950 . S
H505 C483 0.950 . S
C506 C507 1.349 . S
C506 C508 1.327 . S
C506 H531 0.950 . S
C507 C506 1.349 . S
C507 C523 1.349 . S
C508 C506 1.327 . S
C508 C527 1.429 . S
C508 H532 0.950 . S
C509 C526 1.574 . S
C509 C528 1.368 . S
C509 H533 0.949 . S
H510 C514 0.949 . S
C511 C512 1.349 . S
C511 C513 1.327 . S
C511 H534 0.950 . S
C512 C511 1.349 . S
C512 C524 1.349 . S
C513 C511 1.327 . S
C513 C529 1.429 . S
C513 H535 0.950 . S
C514 H510 0.949 . S
C514 C522 1.574 . S
C514 C530 1.368 . S
H515 C523 0.950 . S
H516 C521 0.950 . S
H517 C522 0.949 . S
H518 C524 0.950 . S
H519 C525 0.950 . S
H520 C526 0.949 . S
C521 H516 0.950 . S
C521 C523 1.327 . S
C521 C527 1.429 . S
C522 C514 1.574 . S
C522 H517 0.949 . S
C522 C528 1.368 . S
C523 C507 1.349 . S
C523 H515 0.950 . S
C523 C521 1.327 . S
C524 C512 1.349 . S
C524 H518 0.950 . S
C524 C525 1.327 . S
C525 H519 0.950 . S
C525 C524 1.327 . S
C525 C529 1.429 . S
C526 C509 1.574 . S
C526 H520 0.949 . S
C526 C530 1.368 . S
C527 C508 1.429 . S
C527 C521 1.429 . S
C527 C528 1.523 . S
C528 C509 1.368 . S
C528 C522 1.368 . S
C528 C527 1.523 . S
C529 C513 1.429 . S
C529 C525 1.429 . S
C529 C530 1.523 . S
C530 C514 1.368 . S
C530 C526 1.368 . S
C530 C529 1.523 . S
H531 C506 0.950 . S
H532 C508 0.950 . S
H533 C509 0.949 . S
H534 C511 0.950 . S
H535 C513 0.950 . S
C536 C537 1.349 . S
C536 C538 1.327 . S
C536 H561 0.950 . S
C537 C536 1.349 . S
C537 C553 1.349 . S
C538 C536 1.327 . S
C538 C557 1.429 . S
C538 H562 0.950 . S
C539 C556 1.574 . S
C539 C558 1.368 . S
C539 H563 0.949 . S
H540 C544 0.949 . S
C541 C542 1.349 . S
C541 C543 1.327 . S
C541 H564 0.950 . S
C542 C541 1.349 . S
C542 C554 1.349 . S
C543 C541 1.327 . S
C543 C559 1.429 . S
C543 H565 0.950 . S
C544 H540 0.949 . S
C544 C552 1.574 . S
C544 C560 1.368 . S
H545 C553 0.950 . S
H546 C551 0.950 . S
H547 C552 0.949 . S
H548 C554 0.950 . S
H549 C555 0.950 . S
H550 C556 0.949 . S
C551 H546 0.950 . S
C551 C553 1.327 . S
C551 C557 1.429 . S
C552 C544 1.574 . S
C552 H547 0.949 . S
C552 C558 1.368 . S
C553 C537 1.349 . S
C553 H545 0.950 . S
C553 C551 1.327 . S
C554 C542 1.349 . S
C554 H548 0.950 . S
C554 C555 1.327 . S
C555 H549 0.950 . S
C555 C554 1.327 . S
C555 C559 1.429 . S
C556 C539 1.574 . S
C556 H550 0.949 . S
C556 C560 1.368 . S
C557 C538 1.429 . S
C557 C551 1.429 . S
C557 C558 1.523 . S
C558 C539 1.368 . S
C558 C552 1.368 . S
C558 C557 1.523 . S
C559 C543 1.429 . S
C559 C555 1.429 . S
C559 C560 1.523 . S
C560 C544 1.368 . S
C560 C556 1.368 . S
C560 C559 1.523 . S
H561 C536 0.950 . S
H562 C538 0.950 . S
H563 C539 0.949 . S
H564 C541 0.950 . S
H565 C543 0.950 . S
C212 C168 1.432 . S
C207 C21 1.432 . S
C237 C19 1.420 1_556 S
C242 C128 1.420 . S
C267 C18 1.383 . S
C272 C181 1.388 . S
C297 C20 1.409 1_556 S
C302 C141 1.404 . S
C327 C44 1.432 . S
C332 C88 1.432 . S
C357 C42 1.420 . S
C362 C48 1.421 . S
C392 C101 1.387 . S
C387 C41 1.383 . S
C422 C61 1.404 . S
C417 C43 1.409 . S
C447 C16 1.491 . S
C452 C67 1.477 1_655 S
C477 C17 1.448 . S
C482 C107 1.439 1_545 S
C512 C147 1.477 . S
C507 C39 1.491 . S
C537 C40 1.448 . S
C542 C187 1.439 . S
