# Generated by pormake.
# Topology zzz, (3,6)-cn, num edge types: 1
# Building blocks:
#     Node 0, Type 0, BuildingBlock: OLANEW_clean_sbu_2, # of connection points: 3
#     Node 1, Type 0, BuildingBlock: OLANEW_clean_sbu_2, # of connection points: 3
#     Node 2, Type 0, BuildingBlock: OLANEW_clean_sbu_2, # of connection points: 3
#     Node 3, Type 0, BuildingBlock: OLANEW_clean_sbu_2, # of connection points: 3
#     Node 4, Type 0, BuildingBlock: OLANEW_clean_sbu_2, # of connection points: 3
#     Node 5, Type 0, BuildingBlock: OLANEW_clean_sbu_2, # of connection points: 3
#     Node 6, Type 0, BuildingBlock: OLANEW_clean_sbu_2, # of connection points: 3
#     Node 7, Type 0, BuildingBlock: OLANEW_clean_sbu_2, # of connection points: 3
#     Node 8, Type 1, BuildingBlock: INOVEN_clean_sbu_0, # of connection points: 6
#     Node 9, Type 1, BuildingBlock: INOVEN_clean_sbu_0, # of connection points: 6
#     Node 10, Type 1, BuildingBlock: INOVEN_clean_sbu_0, # of connection points: 6
#     Node 11, Type 1, BuildingBlock: INOVEN_clean_sbu_0, # of connection points: 6
#     Edge 12, Type (0, 1), BuildingBlock: OJICUG_clean_linker_0, # of connection points: 2
#     Edge 13, Type (0, 1), BuildingBlock: OJICUG_clean_linker_0, # of connection points: 2
#     Edge 14, Type (0, 1), BuildingBlock: OJICUG_clean_linker_0, # of connection points: 2
#     Edge 15, Type (0, 1), BuildingBlock: OJICUG_clean_linker_0, # of connection points: 2
#     Edge 16, Type (0, 1), BuildingBlock: OJICUG_clean_linker_0, # of connection points: 2
#     Edge 17, Type (0, 1), BuildingBlock: OJICUG_clean_linker_0, # of connection points: 2
#     Edge 18, Type (0, 1), BuildingBlock: OJICUG_clean_linker_0, # of connection points: 2
#     Edge 19, Type (0, 1), BuildingBlock: OJICUG_clean_linker_0, # of connection points: 2
#     Edge 20, Type (0, 1), BuildingBlock: OJICUG_clean_linker_0, # of connection points: 2
#     Edge 21, Type (0, 1), BuildingBlock: OJICUG_clean_linker_0, # of connection points: 2
#     Edge 22, Type (0, 1), BuildingBlock: OJICUG_clean_linker_0, # of connection points: 2
#     Edge 23, Type (0, 1), BuildingBlock: OJICUG_clean_linker_0, # of connection points: 2
#     Edge 24, Type (0, 1), BuildingBlock: OJICUG_clean_linker_0, # of connection points: 2
#     Edge 25, Type (0, 1), BuildingBlock: OJICUG_clean_linker_0, # of connection points: 2
#     Edge 26, Type (0, 1), BuildingBlock: OJICUG_clean_linker_0, # of connection points: 2
#     Edge 27, Type (0, 1), BuildingBlock: OJICUG_clean_linker_0, # of connection points: 2
#     Edge 28, Type (0, 1), BuildingBlock: OJICUG_clean_linker_0, # of connection points: 2
#     Edge 29, Type (0, 1), BuildingBlock: OJICUG_clean_linker_0, # of connection points: 2
#     Edge 30, Type (0, 1), BuildingBlock: OJICUG_clean_linker_0, # of connection points: 2
#     Edge 31, Type (0, 1), BuildingBlock: OJICUG_clean_linker_0, # of connection points: 2
#     Edge 32, Type (0, 1), BuildingBlock: OJICUG_clean_linker_0, # of connection points: 2
#     Edge 33, Type (0, 1), BuildingBlock: OJICUG_clean_linker_0, # of connection points: 2
#     Edge 34, Type (0, 1), BuildingBlock: OJICUG_clean_linker_0, # of connection points: 2
#     Edge 35, Type (0, 1), BuildingBlock: OJICUG_clean_linker_0, # of connection points: 2
# Relax obj value: 0.293
# Max RMSD: 0.205
# Mean RMSD: 0.172
data_MOF--net-zzz--node1-OLANEW_clean_sbu_2--node2-INOVEN_clean_sbu_0--edge1-OJICUG_clean_linker_0
_symmetry_space_group_name_H-M    P1
_symmetry_Int_Tables_number       1
_symmetry_cell_setting            triclinic
loop_
_symmetry_equiv_pos_as_xyz
'x, y, z'
_cell_length_a     42.460693
_cell_length_b     42.43959
_cell_length_c     11.531947
_cell_angle_alpha  89.905979
_cell_angle_beta   89.935505
_cell_angle_gamma 89.979189
loop_
_atom_site_label
_atom_site_type_symbol
_atom_site_fract_x
_atom_site_fract_y
_atom_site_fract_z
_atom_type_partial_charge
O0 O 0.68916 0.47443 0.32888 0.0
Cd1 Cd 0.63419 0.46207 0.36692 0.0
O2 O 0.6988 0.42775 0.40301 0.0
Cd3 Cd 0.73502 0.39492 0.46064 0.0
O4 O 0.78388 0.40186 0.51087 0.0
C5 C 0.78821 0.42435 0.58162 0.0
O6 O 0.76362 0.43944 0.62291 0.0
C7 C 0.7086 0.45277 0.35395 0.0
C8 C 0.59634 0.48536 0.19041 0.0
O9 O 0.59724 0.49914 0.2891 0.0
O10 O 0.61302 0.46057 0.17539 0.0
O11 O 0.88231 0.71726 0.19005 0.0
Cd12 Cd 0.85812 0.66607 0.2259 0.0
O13 O 0.91896 0.70483 0.31622 0.0
Cd14 Cd 0.95886 0.71956 0.42255 0.0
O15 O 0.98357 0.76098 0.48635 0.0
C16 C 0.96842 0.77793 0.55787 0.0
O17 O 0.94071 0.76821 0.59409 0.0
C18 C 0.90753 0.72424 0.24322 0.0
C19 C 0.88816 0.62068 0.0913 0.0
O20 O 0.86397 0.63552 0.05328 0.0
O21 O 0.89783 0.62698 0.19393 0.0
O22 O 0.7879 0.89002 0.20365 0.0
Cd23 Cd 0.84144 0.87043 0.22406 0.0
O24 O 0.80002 0.92816 0.32383 0.0
Cd25 Cd 0.78546 0.9681 0.43051 0.0
O26 O 0.74391 0.99222 0.49648 0.0
C27 C 0.72784 0.97701 0.57067 0.0
O28 O 0.73859 0.94981 0.60826 0.0
C29 C 0.78016 0.91502 0.25683 0.0
C30 C 0.87943 0.90347 0.06943 0.0
O31 O 0.8655 0.878 0.03914 0.0
O32 O 0.87597 0.91298 0.17411 0.0
O33 O 0.60548 0.78102 0.18548 0.0
Cd34 Cd 0.63245 0.83156 0.19691 0.0
O35 O 0.57492 0.79793 0.32578 0.0
Cd36 Cd 0.53851 0.78631 0.45115 0.0
O37 O 0.51847 0.74285 0.51692 0.0
C38 C 0.53144 0.72818 0.60021 0.0
O39 O 0.55531 0.74112 0.65464 0.0
C40 C 0.58216 0.77673 0.25261 0.0
C41 C 0.60176 0.87389 0.05099 0.0
O42 O 0.62513 0.85748 0.01495 0.0
O43 O 0.59331 0.8708 0.15713 0.0
O44 O 0.24099 0.56042 0.15497 0.0
Cd45 Cd 0.2955 0.55844 0.09046 0.0
O46 O 0.24644 0.50903 0.15578 0.0
Cd47 Cd 0.22199 0.46401 0.16207 0.0
O48 O 0.17325 0.45812 0.10925 0.0
C49 C 0.16587 0.47276 0.01693 0.0
O50 O 0.18806 0.4873 0.95809 0.0
C51 C 0.22962 0.53329 0.17484 0.0
C52 C 0.3339 0.55926 0.2851 0.0
O53 O 0.32996 0.58418 0.2239 0.0
O54 O 0.32025 0.53383 0.25303 0.0
O55 O 0.08259 0.24896 0.38217 0.0
Cd56 Cd 0.10297 0.30242 0.36237 0.0
O57 O 0.10097 0.23669 0.21012 0.0
Cd58 Cd 0.11061 0.20182 0.07563 0.0
O59 O 0.10135 0.15534 0.00401 0.0
C60 C 0.07973 0.15183 0.92911 0.0
O61 O 0.06519 0.17685 0.8885 0.0
C62 C 0.086 0.22892 0.30152 0.0
C63 C 0.068 0.34311 0.50121 0.0
O64 O 0.06024 0.33809 0.39545 0.0
O65 O 0.09259 0.32923 0.54059 0.0
O66 O 0.25233 0.05659 0.32078 0.0
Cd67 Cd 0.19712 0.06911 0.28611 0.0
O68 O 0.26483 0.08938 0.18122 0.0
Cd69 Cd 0.29957 0.10771 0.06047 0.0
O70 O 0.34625 0.09826 0.99354 0.0
C71 C 0.34988 0.07534 0.92417 0.0
O72 O 0.32499 0.06 0.88712 0.0
C73 C 0.27326 0.06994 0.25936 0.0
C74 C 0.15894 0.03408 0.43391 0.0
O75 O 0.16559 0.02397 0.3321 0.0
O76 O 0.17007 0.06085 0.46478 0.0
O77 O 0.44301 0.25324 0.34504 0.0
Cd78 Cd 0.42907 0.19814 0.31465 0.0
O79 O 0.41072 0.26805 0.20653 0.0
Cd80 Cd 0.38824 0.30635 0.11122 0.0
O81 O 0.38659 0.35486 0.05022 0.0
C82 C 0.39662 0.36105 0.94898 0.0
O83 O 0.40547 0.3377 0.88167 0.0
C84 C 0.43096 0.27496 0.28364 0.0
C85 C 0.46467 0.15967 0.46009 0.0
O86 O 0.4742 0.16621 0.35733 0.0
O87 O 0.43818 0.17104 0.4932 0.0
Gd88 Gd 0.02583 0.95506 0.87205 0.0
Gd89 Gd 0.01382 0.97634 0.61819 0.0
C90 C 0.00744 0.90432 0.67057 0.0
C91 C 0.02046 0.92712 0.06947 0.0
C92 C 0.00202 0.89933 0.10372 0.0
C93 C 0.0117 0.88057 0.19696 0.0
C94 C 0.97592 0.89004 0.03751 0.0
C95 C 0.9694 0.84333 0.15676 0.0
C96 C 0.95952 0.8625 0.06443 0.0
C97 C 0.99565 0.85266 0.22268 0.0
C98 C 0.07773 0.9648 0.743 0.0
C99 C 0.03372 0.02753 0.82089 0.0
C100 C 0.01672 0.00481 0.4207 0.0
C101 C 0.02274 0.03818 0.39341 0.0
C102 C 0.01176 0.06193 0.46796 0.0
C103 C 0.04196 0.04637 0.29918 0.0
C104 C 0.04039 0.10148 0.35788 0.0
C105 C 0.05061 0.07783 0.28129 0.0
C106 C 0.02058 0.09326 0.45057 0.0
C107 C 0.96205 0.96696 0.74915 0.0
O108 O 0.00506 0.91296 0.78028 0.0
O109 O 0.0159 0.92425 0.58801 0.0
O110 O 0.04361 0.92142 0.9973 0.0
O111 O 0.00409 0.95219 0.04145 0.0
O112 O 0.07653 0.96974 0.85408 0.0
O113 O 0.05238 0.95247 0.70877 0.0
O114 O 0.03017 0.02064 0.70963 0.0
O115 O 0.03015 0.00654 0.90454 0.0
O116 O 0.99012 0.99868 0.47366 0.0
O117 O 0.04059 0.98958 0.46542 0.0
O118 O 0.96342 0.96061 0.63909 0.0
O119 O 0.98746 0.97942 0.7819 0.0
H120 H 0.03206 0.88712 0.24813 0.0
H121 H 0.96865 0.90371 0.96324 0.0
H122 H 0.93982 0.85565 0.01045 0.0
H123 H 0.00393 0.8382 0.29331 0.0
H124 H 0.99693 0.05618 0.54145 0.0
H125 H 0.05096 0.02837 0.24141 0.0
H126 H 0.06622 0.08352 0.21022 0.0
H127 H 0.01211 0.11106 0.51022 0.0
Gd128 Gd 0.54677 0.02433 0.88197 0.0
Gd129 Gd 0.52815 0.01477 0.62399 0.0
C130 C 0.6 0.01107 0.68328 0.0
C131 C 0.57255 0.01751 0.08253 0.0
C132 C 0.60053 -0.00022 0.11919 0.0
C133 C 0.61747 0.00918 0.21723 0.0
C134 C 0.61186 0.97482 0.05114 0.0
C135 C 0.65723 0.96925 0.17713 0.0
C136 C 0.63976 0.95939 0.08057 0.0
C137 C 0.64574 0.99415 0.24543 0.0
C138 C 0.53539 0.07746 0.76136 0.0
C139 C 0.4746 0.02985 0.82363 0.0
C140 C 0.50115 0.01909 0.42434 0.0
C141 C 0.46799 0.02478 0.39257 0.0
C142 C 0.44346 0.01065 0.45585 0.0
C143 C 0.46058 0.04614 0.30392 0.0
C144 C 0.40443 0.03913 0.34186 0.0
C145 C 0.42913 0.05332 0.27905 0.0
C146 C 0.41207 0.0177 0.43068 0.0
C147 C 0.53941 0.9618 0.7462 0.0
O148 O 0.59069 0.00706 0.79175 0.0
O149 O 0.5803 0.01947 0.59999 0.0
O150 O 0.57825 0.04169 0.01492 0.0
O151 O 0.5486 0.0005 0.04773 0.0
O152 O 0.52976 0.07452 0.8716 0.0
O153 O 0.54921 0.05321 0.72394 0.0
O154 O 0.48252 0.02816 0.71274 0.0
O155 O 0.49497 0.02583 0.9088 0.0
O156 O 0.50727 0.9921 0.47473 0.0
O157 O 0.51559 0.04279 0.47337 0.0
O158 O 0.5464 0.96502 0.6371 0.0
O159 O 0.52529 0.98602 0.78243 0.0
H160 H 0.60928 0.02862 0.27009 0.0
H161 H 0.59959 0.96782 0.9734 0.0
H162 H 0.64832 0.94066 0.02512 0.0
H163 H 0.65889 0.00225 0.31956 0.0
H164 H 0.44851 0.99451 0.52624 0.0
H165 H 0.47914 0.0576 0.25497 0.0
H166 H 0.42422 0.07001 0.21069 0.0
H167 H 0.39382 0.00689 0.48294 0.0
Gd168 Gd 0.45061 0.55849 0.875 0.0
Gd169 Gd 0.47389 0.53147 0.64355 0.0
C170 C 0.49265 0.60083 0.69874 0.0
C171 C 0.44814 0.58839 0.06989 0.0
C172 C 0.46896 0.61294 0.11731 0.0
C173 C 0.45724 0.63556 0.19438 0.0
C174 C 0.50017 0.61537 0.07816 0.0
C175 C 0.50713 0.66422 0.18581 0.0
C176 C 0.51895 0.64078 0.11132 0.0
C177 C 0.47617 0.6609 0.22879 0.0
C178 C 0.41009 0.56206 0.69675 0.0
C179 C 0.43195 0.48771 0.82331 0.0
C180 C 0.47592 0.50339 0.44552 0.0
C181 C 0.47397 0.46995 0.41304 0.0
C182 C 0.48559 0.44652 0.48761 0.0
C183 C 0.45765 0.46112 0.3127 0.0
C184 C 0.4633 0.40563 0.36445 0.0
C185 C 0.4523 0.42927 0.28865 0.0
C186 C 0.48055 0.41471 0.46309 0.0
C187 C 0.51493 0.52592 0.821 0.0
O188 O 0.48758 0.59272 0.808 0.0
O189 O 0.48432 0.58218 0.6128 0.0
O190 O 0.43175 0.59675 0.97887 0.0
O191 O 0.46071 0.56042 0.05885 0.0
O192 O 0.4011 0.55598 0.80224 0.0
O193 O 0.43918 0.56703 0.69261 0.0
O194 O 0.44373 0.49228 0.71807 0.0
O195 O 0.43367 0.50936 0.90542 0.0
O196 O 0.50125 0.5121 0.50195 0.0
O197 O 0.45 0.51514 0.4892 0.0
O198 O 0.52358 0.52981 0.71382 0.0
O199 O 0.48554 0.52274 0.82655 0.0
H200 H 0.43323 0.63403 0.22583 0.0
H201 H 0.50983 0.59809 0.019 0.0
H202 H 0.54234 0.64256 0.0745 0.0
H203 H 0.46629 0.67809 0.28772 0.0
H204 H 0.49796 0.4528 0.5664 0.0
H205 H 0.44817 0.47889 0.25485 0.0
H206 H 0.43861 0.42331 0.21275 0.0
H207 H 0.48994 0.39728 0.52234 0.0
Gd208 Gd 0.96472 0.46846 0.92157 0.0
Gd209 Gd 0.98271 0.48735 0.67184 0.0
C210 C 0.91322 0.46378 0.7117 0.0
C211 C 0.93671 0.46422 0.12005 0.0
C212 C 0.90347 0.4633 0.15584 0.0
C213 C 0.88061 0.45046 0.082 0.0
C214 C 0.89421 0.47614 0.26258 0.0
C215 C 0.8396 0.46236 0.22273 0.0
C216 C 0.86247 0.47578 0.29572 0.0
C217 C 0.84903 0.45 0.11508 0.0
C218 C 0.99263 0.4231 0.79563 0.0
C219 C 0.03591 0.48497 0.87835 0.0
C220 C 0.00877 0.49703 0.47185 0.0
C221 C 0.04086 0.50213 0.42511 0.0
C222 C 0.04951 0.53208 0.384 0.0
C223 C 0.06299 0.47754 0.4204 0.0
C224 C 0.10231 0.51322 0.3389 0.0
C225 C 0.09332 0.48303 0.37767 0.0
C226 C 0.0799 0.53762 0.34194 0.0
C227 C 0.95432 0.53198 0.80064 0.0
O228 O 0.91851 0.46854 0.82346 0.0
O229 O 0.93597 0.46554 0.63371 0.0
O230 O 0.94694 0.43972 0.06217 0.0
O231 O 0.94632 0.49099 0.07614 0.0
O232 O 0.99657 0.4261 0.90681 0.0
O233 O 0.97261 0.44261 0.75901 0.0
O234 O 0.02952 0.48411 0.76581 0.0
O235 O 0.01368 0.48392 0.95837 0.0
O236 O 0.99731 0.51962 0.53642 0.0
O237 O 0.00196 0.46892 0.51163 0.0
O238 O 0.94864 0.52782 0.69125 0.0
O239 O 0.97525 0.51317 0.83502 0.0
H240 H 0.88714 0.44069 0.9987 0.0
H241 H 0.91153 0.48634 0.32035 0.0
H242 H 0.85592 0.4854 0.37929 0.0
H243 H 0.83192 0.44004 0.05592 0.0
H244 H 0.03283 0.5514 0.38564 0.0
H245 H 0.05702 0.45406 0.45005 0.0
H246 H 0.10965 0.46345 0.37436 0.0
H247 H 0.08597 0.56123 0.31414 0.0
C248 C 0.13523 0.02504 0.62959 0.0
C249 C 0.13909 0.01542 0.5139 0.0
H250 H 0.11307 0.01619 0.79313 0.0
C251 C 0.12378 0.98795 0.47574 0.0
H252 H 0.14681 0.046 0.66185 0.0
C253 C 0.10442 0.97087 0.55125 0.0
C254 C 0.10018 0.98092 0.66598 0.0
H255 H 0.12635 0.9799 0.38715 0.0
H256 H 0.0924 0.95008 0.51956 0.0
C257 C 0.11611 0.00784 0.70507 0.0
C258 C 0.4738 0.13436 0.65326 0.0
C259 C 0.48366 0.13964 0.53847 0.0
H260 H 0.48276 0.11081 0.81411 0.0
C261 C 0.51174 0.12556 0.49956 0.0
H262 H 0.45237 0.14496 0.68613 0.0
C263 C 0.52919 0.10605 0.57329 0.0
C264 C 0.51885 0.10027 0.68686 0.0
H265 H 0.52004 0.12926 0.41176 0.0
H266 H 0.5505 0.09507 0.54098 0.0
C267 C 0.49131 0.11499 0.72688 0.0
C268 C 0.37979 0.57957 0.39663 0.0
C269 C 0.35325 0.55997 0.39078 0.0
H270 H 0.41898 0.59502 0.49848 0.0
C271 C 0.34513 0.54135 0.48717 0.0
H272 H 0.38657 0.59402 0.32317 0.0
C273 C 0.36308 0.54266 0.58867 0.0
C274 C 0.38989 0.56187 0.59354 0.0
H275 H 0.32465 0.52615 0.48459 0.0
H276 H 0.35644 0.52817 0.66217 0.0
C277 C 0.39826 0.58013 0.49662 0.0
C278 C 0.0569 0.36822 0.69338 0.0
C279 C 0.04881 0.36383 0.57632 0.0
H280 H 0.0453 0.3904 0.85467 0.0
C281 C 0.02187 0.37896 0.53238 0.0
H282 H 0.07749 0.35688 0.72995 0.0
C283 C 0.0034 0.39801 0.60407 0.0
C284 C 0.01158 0.40236 0.72081 0.0
H285 H 0.01494 0.376 0.44269 0.0
H286 H 0.98265 0.40923 0.56825 0.0
C287 C 0.03842 0.38727 0.76499 0.0
C288 C 0.91637 0.94774 0.02144 0.0
C289 C 0.89897 0.92127 0.98581 0.0
H290 H 0.94989 0.98328 0.97325 0.0
C291 C 0.90077 0.91161 0.86947 0.0
H292 H 0.91534 0.95588 0.11033 0.0
C293 C 0.92028 0.92746 0.79129 0.0
C294 C 0.93867 0.95299 0.82825 0.0
H295 H 0.88754 0.89144 0.83907 0.0
H296 H 0.92187 0.91891 0.703 0.0
C297 C 0.93612 0.96343 0.94324 0.0
C298 C 0.55808 0.91213 0.0097 0.0
C299 C 0.58487 0.89553 0.97189 0.0
H300 H 0.52227 0.94587 0.96658 0.0
C301 C 0.5954 0.89974 0.85733 0.0
H302 H 0.54925 0.90925 0.09722 0.0
C303 C 0.5799 0.92057 0.78295 0.0
C304 C 0.55371 0.93776 0.82182 0.0
H305 H 0.6159 0.88727 0.82538 0.0
H306 H 0.58903 0.92388 0.696 0.0
C307 C 0.54261 0.93306 0.93515 0.0
C308 C 0.58786 0.50036 0.98385 0.0
C309 C 0.57609 0.49724 0.09705 0.0
H310 H 0.57783 0.5131 0.80766 0.0
C311 C 0.54449 0.50442 0.11975 0.0
H312 H 0.61225 0.49485 0.96485 0.0
C313 C 0.52463 0.51369 0.02957 0.0
C314 C 0.53635 0.51726 0.91634 0.0
H315 H 0.53487 0.5017 0.2063 0.0
H316 H 0.50001 0.51744 0.04828 0.0
C317 C 0.56825 0.51085 0.89437 0.0
C318 C 0.89416 0.59107 0.90494 0.0
C319 C 0.90481 0.59748 0.01785 0.0
H320 H 0.90158 0.56526 0.74776 0.0
C321 C 0.93193 0.58204 0.05879 0.0
H322 H 0.87337 0.60258 0.87073 0.0
C323 C 0.94812 0.56078 0.98803 0.0
C324 C 0.93741 0.55445 0.87537 0.0
H325 H 0.94082 0.58654 0.14518 0.0
H326 H 0.96915 0.54948 0.02119 0.0
C327 C 0.91034 0.56978 0.83435 0.0
C328 C 0.06041 0.18036 0.22197 0.0
C329 C 0.07348 0.19667 0.31621 0.0
H330 H 0.04003 0.13723 0.16083 0.0
C331 C 0.07417 0.18203 0.42548 0.0
H332 H 0.05797 0.19171 0.13839 0.0
C333 C 0.06313 0.15122 0.43916 0.0
C334 C 0.0512 0.13446 0.34374 0.0
H335 H 0.08378 0.19422 0.49995 0.0
H336 H 0.06452 0.14025 0.52392 0.0
C337 C 0.04978 0.14938 0.23513 0.0
C338 C 0.31577 0.03107 0.30434 0.0
C339 C 0.30686 0.06203 0.2767 0.0
H340 H 0.3535 -0.00066 0.34263 0.0
C341 C 0.33016 0.08542 0.26977 0.0
H342 H 0.29826 0.01258 0.31038 0.0
C343 C 0.36183 0.07798 0.28925 0.0
C344 C 0.37088 0.04695 0.31676 0.0
H345 H 0.32384 0.10969 0.25242 0.0
H346 H 0.37908 0.09674 0.28577 0.0
C347 C 0.34742 0.02356 0.32331 0.0
C348 C 0.44194 0.31973 0.41728 0.0
C349 C 0.43988 0.30806 0.30393 0.0
H350 H 0.44971 0.35979 0.52533 0.0
C351 C 0.4465 0.3282 0.21041 0.0
H352 H 0.43693 0.30459 0.49078 0.0
C353 C 0.45444 0.35972 0.22977 0.0
C354 C 0.45584 0.37179 0.3433 0.0
H355 H 0.44587 0.31946 0.12224 0.0
H356 H 0.45974 0.37451 0.15567 0.0
C357 C 0.4495 0.35132 0.43681 0.0
C358 C 0.17195 0.54566 0.16707 0.0
C359 C 0.1972 0.52955 0.21834 0.0
H360 H 0.12197 0.55219 0.1614 0.0
C361 C 0.19133 0.50894 0.31102 0.0
H362 H 0.17598 0.56158 0.09506 0.0
C363 C 0.16068 0.50397 0.35064 0.0
C364 C 0.13505 0.51926 0.2976 0.0
H365 H 0.21057 0.49665 0.35307 0.0
H366 H 0.15716 0.48825 0.42353 0.0
C367 C 0.1411 0.54032 0.20551 0.0
C368 C 0.90528 0.7821 0.20101 0.0
C369 C 0.92312 0.75479 0.22156 0.0
H370 H 0.90597 0.83178 0.16654 0.0
C371 C 0.95612 0.75671 0.21848 0.0
H372 H 0.87979 0.78118 0.20182 0.0
C373 C 0.97106 0.78554 0.19949 0.0
C374 C 0.95331 0.81299 0.1806 0.0
H375 H 0.97045 0.73579 0.22851 0.0
H376 H 0.99656 0.78621 0.19683 0.0
C377 C 0.92025 0.81098 0.18084 0.0
C378 C 0.72228 0.90908 0.22097 0.0
C379 C 0.74846 0.92864 0.24005 0.0
H380 H 0.67262 0.90664 0.18733 0.0
C381 C 0.74437 0.96146 0.23722 0.0
H382 H 0.72487 0.88368 0.22108 0.0
C383 C 0.71459 0.97452 0.22006 0.0
C384 C 0.68837 0.95504 0.20181 0.0
H385 H 0.76434 0.97715 0.24482 0.0
H386 H 0.71223 -6e-05 0.21737 0.0
C387 C 0.69247 0.92217 0.20178 0.0
C388 C 0.57773 0.71817 0.23375 0.0
C389 C 0.5632 0.7477 0.24388 0.0
H390 H 0.57153 0.66848 0.21396 0.0
C391 C 0.53024 0.7496 0.23979 0.0
H392 H 0.60315 0.71616 0.23692 0.0
C393 C 0.51206 0.72251 0.22361 0.0
C394 C 0.52643 0.69276 0.21236 0.0
H395 H 0.51853 0.77223 0.24528 0.0
H396 H 0.48679 0.72516 0.21606 0.0
C397 C 0.55954 0.69093 0.21981 0.0
C398 C 0.75746 0.43032 0.26963 0.0
C399 C 0.7421 0.4558 0.32242 0.0
H400 H 0.80033 0.41218 0.19955 0.0
C401 C 0.75882 0.4838 0.3422 0.0
H402 H 0.74487 0.40869 0.25139 0.0
C403 C 0.79073 0.48594 0.31172 0.0
C404 C 0.80612 0.46029 0.25902 0.0
H405 H 0.74733 0.50383 0.38214 0.0
H406 H 0.80317 0.50779 0.3274 0.0
C407 C 0.78911 0.43246 0.23878 0.0
C408 C 0.04714 0.11548 0.8077 0.0
C409 C 0.0686 0.11992 0.89883 0.0
H410 H 0.01902 0.08262 0.71258 0.0
C411 C 0.07812 0.09373 0.96491 0.0
H412 H 0.03936 0.13518 0.75516 0.0
C413 C 0.06587 0.06384 0.94215 0.0
C414 C 0.04456 0.05944 0.85077 0.0
H415 H 0.09478 0.09638 0.03525 0.0
H416 H 0.07367 0.04406 0.99427 0.0
C417 C 0.03547 0.08544 0.78327 0.0
C418 C 0.38676 0.04268 0.80475 0.0
C419 C 0.38181 0.06396 0.8962 0.0
H420 H 0.42037 0.01518 0.70979 0.0
C421 C 0.4075 0.07329 0.96458 0.0
H422 H 0.36739 0.03516 0.7504 0.0
C423 C 0.43745 0.06104 0.9439 0.0
C424 C 0.44245 0.04003 0.85198 0.0
H425 H 0.40439 0.08989 0.03483 0.0
H426 H 0.45689 0.06876 0.99765 0.0
C427 C 0.41697 0.03116 0.78179 0.0
C428 C 0.4127 0.40091 0.80049 0.0
C429 C 0.40198 0.39406 0.91296 0.0
H430 H 0.43016 0.43581 0.68349 0.0
C431 C 0.39866 0.41881 0.99301 0.0
H432 H 0.41537 0.38241 0.73657 0.0
C433 C 0.40738 0.44952 0.96294 0.0
C434 C 0.41932 0.45613 0.85183 0.0
H435 H 0.39036 0.41431 0.08033 0.0
H436 H 0.40556 0.46784 0.02787 0.0
C437 C 0.42117 0.43161 0.7701 0.0
C438 C 0.10827 0.46884 0.05968 0.0
C439 C 0.13263 0.47588 0.98143 0.0
H440 H 0.05863 0.4671 0.08978 0.0
C441 C 0.12496 0.48713 0.87031 0.0
H442 H 0.11349 0.46025 0.14598 0.0
C443 C 0.09351 0.49069 0.83732 0.0
C444 C 0.06914 0.48366 0.91566 0.0
H445 H 0.14325 0.49285 0.80821 0.0
H446 H 0.0883 0.49882 0.75032 0.0
C447 C 0.07685 0.47302 0.02763 0.0
C448 C 0.00499 0.82378 0.53009 0.0
C449 C 0.98001 0.8095 0.59077 0.0
H450 H 0.03256 0.8657 0.50439 0.0
C451 C 0.96488 0.82643 0.67922 0.0
H452 H 0.01743 0.81104 0.46289 0.0
C453 C 0.97417 0.85712 0.70521 0.0
C454 C 0.99823 0.87184 0.64141 0.0
H455 H 0.94571 0.81606 0.72818 0.0
H456 H 0.96201 0.86956 0.7739 0.0
C457 C 0.01362 0.85497 0.55354 0.0
C458 C 0.67995 0.97252 0.69507 0.0
C459 C 0.69602 0.98773 0.60449 0.0
H460 H 0.63708 0.96817 0.79077 0.0
C461 C 0.68059 0.01168 0.54208 0.0
H462 H 0.6912 0.95408 0.74522 0.0
C463 C 0.64914 0.0192 0.56619 0.0
C464 C 0.63305 0.00359 0.65569 0.0
H465 H 0.69249 0.02395 0.47222 0.0
H466 H 0.6375 0.03725 0.51539 0.0
C467 C 0.64892 0.98059 0.72111 0.0
C468 C 0.50627 0.67766 0.54211 0.0
C469 C 0.52185 0.69557 0.62669 0.0
H470 H 0.48555 0.63347 0.49753 0.0
C471 C 0.52898 0.68168 0.73414 0.0
H472 H 0.50079 0.68769 0.45822 0.0
C473 C 0.51996 0.65061 0.75737 0.0
C474 C 0.50429 0.63277 0.67258 0.0
H475 H 0.54111 0.69495 0.8007 0.0
H476 H 0.52521 0.64058 0.84154 0.0
C477 C 0.49784 0.6465 0.56432 0.0
C478 C 0.82508 0.45184 0.71572 0.0
C479 C 0.82026 0.4344 0.61393 0.0
H480 H 0.8583 0.47471 0.8265 0.0
C481 C 0.84613 0.42746 0.54233 0.0
H482 H 0.80555 0.45759 0.7724 0.0
C483 C 0.87633 0.43778 0.57225 0.0
C484 C 0.88119 0.45468 0.67536 0.0
H485 H 0.84299 0.41439 0.46253 0.0
H486 H 0.89589 0.43201 0.51577 0.0
C487 C 0.85528 0.46163 0.74669 0.0
loop_
_geom_bond_atom_site_label_1
_geom_bond_atom_site_label_2
_geom_bond_distance
_geom_bond_site_symmetry_2
_ccdc_geom_bond_type
O0 Cd1 2.300 . S
O0 C7 1.275 . S
Cd1 O0 2.300 . S
Cd1 O9 2.381 . S
Cd1 O10 2.378 . S
O2 Cd3 2.385 . S
O2 C7 1.255 . S
Cd3 O2 2.385 . S
Cd3 O4 2.317 . S
O4 Cd3 2.317 . S
O4 C5 1.232 . S
C5 O4 1.232 . S
C5 O6 1.218 . S
O6 C5 1.218 . S
C7 O0 1.275 . S
C7 O2 1.255 . S
C8 O9 1.258 . S
C8 O10 1.256 . S
O9 Cd1 2.381 . S
O9 C8 1.258 . S
O10 Cd1 2.378 . S
O10 C8 1.256 . S
O11 Cd12 2.300 1_655 S
O11 C18 1.275 1_655 S
Cd12 O11 2.300 1_455 S
Cd12 O20 2.381 1_455 S
Cd12 O21 2.378 . S
O13 Cd14 2.385 . S
O13 C18 1.255 . S
Cd14 O13 2.385 . S
Cd14 O15 2.317 . S
O15 Cd14 2.317 . S
O15 C16 1.232 . S
C16 O15 1.232 . S
C16 O17 1.218 . S
O17 C16 1.218 . S
C18 O11 1.275 1_455 S
C18 O13 1.255 . S
C19 O20 1.258 1_455 S
C19 O21 1.256 . S
O20 Cd12 2.381 1_655 S
O20 C19 1.258 1_655 S
O21 Cd12 2.378 . S
O21 C19 1.256 . S
O22 Cd23 2.300 1_565 S
O22 C29 1.275 1_565 S
Cd23 O22 2.300 1_545 S
Cd23 O31 2.381 1_545 S
Cd23 O32 2.378 . S
O24 Cd25 2.385 . S
O24 C29 1.255 . S
Cd25 O24 2.385 . S
Cd25 O26 2.317 . S
O26 Cd25 2.317 . S
O26 C27 1.232 . S
C27 O26 1.232 . S
C27 O28 1.218 . S
O28 C27 1.218 . S
C29 O22 1.275 1_545 S
C29 O24 1.255 . S
C30 O31 1.258 1_545 S
C30 O32 1.256 . S
O31 Cd23 2.381 1_565 S
O31 C30 1.258 1_565 S
O32 Cd23 2.378 . S
O32 C30 1.256 . S
O33 Cd34 2.300 . S
O33 C40 1.275 . S
Cd34 O33 2.300 . S
Cd34 O42 2.381 . S
Cd34 O43 2.378 . S
O35 Cd36 2.385 . S
O35 C40 1.255 . S
Cd36 O35 2.385 . S
Cd36 O37 2.317 . S
O37 Cd36 2.317 . S
O37 C38 1.232 . S
C38 O37 1.232 . S
C38 O39 1.218 . S
O39 C38 1.218 . S
C40 O33 1.275 . S
C40 O35 1.255 . S
C41 O42 1.258 . S
C41 O43 1.256 . S
O42 Cd34 2.381 . S
O42 C41 1.258 . S
O43 Cd34 2.378 . S
O43 C41 1.256 . S
O44 Cd45 2.300 . S
O44 C51 1.275 . S
Cd45 O44 2.300 . S
Cd45 O53 2.381 . S
Cd45 O54 2.378 . S
O46 Cd47 2.385 1_554 S
O46 C51 1.255 . S
Cd47 O46 2.385 1_556 S
Cd47 O48 2.317 . S
O48 Cd47 2.317 . S
O48 C49 1.232 . S
C49 O48 1.232 . S
C49 O50 1.218 . S
O50 C49 1.218 . S
C51 O44 1.275 . S
C51 O46 1.255 . S
C52 O53 1.258 . S
C52 O54 1.256 . S
O53 Cd45 2.381 . S
O53 C52 1.258 . S
O54 Cd45 2.378 . S
O54 C52 1.256 . S
O55 Cd56 2.300 1_655 S
O55 C62 1.275 1_655 S
Cd56 O55 2.300 1_455 S
Cd56 O64 2.381 1_455 S
Cd56 O65 2.378 . S
O57 Cd58 2.385 1_554 S
O57 C62 1.255 . S
Cd58 O57 2.385 1_556 S
Cd58 O59 2.317 . S
O59 Cd58 2.317 . S
O59 C60 1.232 . S
C60 O59 1.232 . S
C60 O61 1.218 . S
O61 C60 1.218 . S
C62 O55 1.275 1_455 S
C62 O57 1.255 . S
C63 O64 1.258 1_455 S
C63 O65 1.256 . S
O64 Cd56 2.381 1_655 S
O64 C63 1.258 1_655 S
O65 Cd56 2.378 . S
O65 C63 1.256 . S
O66 Cd67 2.300 1_565 S
O66 C73 1.275 1_565 S
Cd67 O66 2.300 1_545 S
Cd67 O75 2.381 1_545 S
Cd67 O76 2.378 . S
O68 Cd69 2.385 1_554 S
O68 C73 1.255 . S
Cd69 O68 2.385 1_556 S
Cd69 O70 2.317 . S
O70 Cd69 2.317 . S
O70 C71 1.232 . S
C71 O70 1.232 . S
C71 O72 1.218 . S
O72 C71 1.218 . S
C73 O66 1.275 1_545 S
C73 O68 1.255 . S
C74 O75 1.258 1_545 S
C74 O76 1.256 . S
O75 Cd67 2.381 1_565 S
O75 C74 1.258 1_565 S
O76 Cd67 2.378 . S
O76 C74 1.256 . S
O77 Cd78 2.300 . S
O77 C84 1.275 . S
Cd78 O77 2.300 . S
Cd78 O86 2.381 . S
Cd78 O87 2.378 . S
O79 Cd80 2.385 1_554 S
O79 C84 1.255 . S
Cd80 O79 2.385 1_556 S
Cd80 O81 2.317 . S
O81 Cd80 2.317 . S
O81 C82 1.232 . S
C82 O81 1.232 . S
C82 O83 1.218 . S
O83 C82 1.218 . S
C84 O77 1.275 . S
C84 O79 1.255 . S
C85 O86 1.258 . S
C85 O87 1.256 . S
O86 Cd78 2.381 . S
O86 C85 1.258 . S
O87 Cd78 2.378 . S
O87 C85 1.256 . S
Gd88 C91 2.818 1_556 S
Gd88 O108 2.377 . S
Gd88 O110 2.448 . S
Gd88 O111 2.506 1_556 S
Gd88 O112 2.435 . S
Gd88 O113 2.717 1_565 S
Gd88 O115 2.395 1_565 S
Gd88 O119 2.327 1_455 S
Gd89 C100 2.818 . S
Gd89 O109 2.395 1_545 S
Gd89 O113 2.327 1_655 S
Gd89 O114 2.377 . S
Gd89 O116 2.448 . S
Gd89 O117 2.506 . S
Gd89 O118 2.435 . S
Gd89 O119 2.717 1_545 S
C90 O108 1.240 1_655 S
C90 O109 1.240 . S
C91 Gd88 2.818 1_554 S
C91 C92 1.510 . S
C91 O110 1.249 1_554 S
C91 O111 1.252 . S
C92 C91 1.510 . S
C92 C93 1.404 . S
C92 C94 1.352 . S
C93 C92 1.404 . S
C93 C97 1.389 . S
C93 H120 0.930 . S
C94 C92 1.352 . S
C94 C96 1.374 . S
C94 H121 0.931 1_455 S
C95 C96 1.359 . S
C95 C97 1.364 . S
C96 C94 1.374 . S
C96 C95 1.359 . S
C96 H122 0.931 1_455 S
C97 C93 1.389 . S
C97 C95 1.364 . S
C97 H123 0.931 . S
C98 O112 1.256 . S
C98 O113 1.257 1_565 S
C99 O114 1.240 1_455 S
C99 O115 1.240 . S
C100 Gd89 2.818 . S
C100 C101 1.510 . S
C100 O116 1.249 . S
C100 O117 1.252 . S
C101 C100 1.510 . S
C101 C102 1.404 . S
C101 C103 1.352 . S
C102 C101 1.404 . S
C102 C106 1.389 . S
C102 H124 0.930 . S
C103 C101 1.352 . S
C103 C105 1.374 . S
C103 H125 0.931 1_655 S
C104 C105 1.359 . S
C104 C106 1.364 . S
C105 C103 1.374 . S
C105 C104 1.359 . S
C105 H126 0.931 1_655 S
C106 C102 1.389 . S
C106 C104 1.364 . S
C106 H127 0.931 . S
C107 O118 1.256 . S
C107 O119 1.257 1_545 S
O108 Gd88 2.377 . S
O108 C90 1.240 1_455 S
O109 Gd89 2.395 1_565 S
O109 C90 1.240 . S
O110 Gd88 2.448 . S
O110 C91 1.249 1_556 S
O111 Gd88 2.506 1_554 S
O111 C91 1.252 . S
O112 Gd88 2.435 . S
O112 C98 1.256 . S
O113 Gd88 2.717 1_545 S
O113 Gd89 2.327 1_455 S
O113 C98 1.257 1_545 S
O114 Gd89 2.377 . S
O114 C99 1.240 1_655 S
O115 Gd88 2.395 1_545 S
O115 C99 1.240 . S
O116 Gd89 2.448 . S
O116 C100 1.249 . S
O117 Gd89 2.506 . S
O117 C100 1.252 . S
O118 Gd89 2.435 . S
O118 C107 1.256 . S
O119 Gd88 2.327 1_655 S
O119 Gd89 2.717 1_565 S
O119 C107 1.257 1_565 S
H120 C93 0.930 . S
H121 C94 0.931 1_655 S
H122 C96 0.931 1_655 S
H123 C97 0.931 . S
H124 C102 0.930 . S
H125 C103 0.931 1_455 S
H126 C105 0.931 1_455 S
H127 C106 0.931 . S
Gd128 C131 2.818 1_556 S
Gd128 O148 2.377 . S
Gd128 O150 2.448 . S
Gd128 O151 2.506 1_556 S
Gd128 O152 2.435 . S
Gd128 O153 2.717 . S
Gd128 O155 2.395 . S
Gd128 O159 2.327 1_545 S
Gd129 C140 2.818 . S
Gd129 O149 2.395 . S
Gd129 O153 2.327 1_565 S
Gd129 O154 2.377 . S
Gd129 O156 2.448 . S
Gd129 O157 2.506 . S
Gd129 O158 2.435 . S
Gd129 O159 2.717 . S
C130 O148 1.240 1_565 S
C130 O149 1.240 . S
C131 Gd128 2.818 1_554 S
C131 C132 1.510 . S
C131 O150 1.249 1_554 S
C131 O151 1.252 . S
C132 C131 1.510 . S
C132 C133 1.404 . S
C132 C134 1.352 . S
C133 C132 1.404 . S
C133 C137 1.389 . S
C133 H160 0.930 . S
C134 C132 1.352 . S
C134 C136 1.374 . S
C134 H161 0.931 1_545 S
C135 C136 1.359 . S
C135 C137 1.364 . S
C136 C134 1.374 . S
C136 C135 1.359 . S
C136 H162 0.931 1_545 S
C137 C133 1.389 . S
C137 C135 1.364 . S
C137 H163 0.931 . S
C138 O152 1.256 . S
C138 O153 1.257 . S
C139 O154 1.240 1_545 S
C139 O155 1.240 . S
C140 Gd129 2.818 . S
C140 C141 1.510 . S
C140 O156 1.249 . S
C140 O157 1.252 . S
C141 C140 1.510 . S
C141 C142 1.404 . S
C141 C143 1.352 . S
C142 C141 1.404 . S
C142 C146 1.389 . S
C142 H164 0.930 . S
C143 C141 1.352 . S
C143 C145 1.374 . S
C143 H165 0.931 1_565 S
C144 C145 1.359 . S
C144 C146 1.364 . S
C145 C143 1.374 . S
C145 C144 1.359 . S
C145 H166 0.931 1_565 S
C146 C142 1.389 . S
C146 C144 1.364 . S
C146 H167 0.931 . S
C147 O158 1.256 . S
C147 O159 1.257 . S
O148 Gd128 2.377 . S
O148 C130 1.240 1_545 S
O149 Gd129 2.395 . S
O149 C130 1.240 . S
O150 Gd128 2.448 . S
O150 C131 1.249 1_556 S
O151 Gd128 2.506 1_554 S
O151 C131 1.252 . S
O152 Gd128 2.435 . S
O152 C138 1.256 . S
O153 Gd128 2.717 . S
O153 Gd129 2.327 1_545 S
O153 C138 1.257 . S
O154 Gd129 2.377 . S
O154 C139 1.240 1_565 S
O155 Gd128 2.395 . S
O155 C139 1.240 . S
O156 Gd129 2.448 . S
O156 C140 1.249 . S
O157 Gd129 2.506 . S
O157 C140 1.252 . S
O158 Gd129 2.435 . S
O158 C147 1.256 . S
O159 Gd128 2.327 1_565 S
O159 Gd129 2.717 . S
O159 C147 1.257 . S
H160 C133 0.930 . S
H161 C134 0.931 1_565 S
H162 C136 0.931 1_565 S
H163 C137 0.931 . S
H164 C142 0.930 . S
H165 C143 0.931 1_545 S
H166 C145 0.931 1_545 S
H167 C146 0.931 . S
Gd168 C171 2.818 1_556 S
Gd168 O188 2.377 . S
Gd168 O190 2.448 . S
Gd168 O191 2.506 1_556 S
Gd168 O192 2.435 . S
Gd168 O193 2.717 . S
Gd168 O195 2.395 . S
Gd168 O199 2.327 . S
Gd169 C180 2.818 . S
Gd169 O189 2.395 . S
Gd169 O193 2.327 . S
Gd169 O194 2.377 . S
Gd169 O196 2.448 . S
Gd169 O197 2.506 . S
Gd169 O198 2.435 . S
Gd169 O199 2.717 . S
C170 O188 1.240 . S
C170 O189 1.240 . S
C171 Gd168 2.818 1_554 S
C171 C172 1.510 . S
C171 O190 1.249 1_554 S
C171 O191 1.252 . S
C172 C171 1.510 . S
C172 C173 1.404 . S
C172 C174 1.352 . S
C173 C172 1.404 . S
C173 C177 1.389 . S
C173 H200 0.930 . S
C174 C172 1.352 . S
C174 C176 1.374 . S
C174 H201 0.931 . S
C175 C176 1.359 . S
C175 C177 1.364 . S
C176 C174 1.374 . S
C176 C175 1.359 . S
C176 H202 0.931 . S
C177 C173 1.389 . S
C177 C175 1.364 . S
C177 H203 0.931 . S
C178 O192 1.256 . S
C178 O193 1.257 . S
C179 O194 1.240 . S
C179 O195 1.240 . S
C180 Gd169 2.818 . S
C180 C181 1.510 . S
C180 O196 1.249 . S
C180 O197 1.252 . S
C181 C180 1.510 . S
C181 C182 1.404 . S
C181 C183 1.352 . S
C182 C181 1.404 . S
C182 C186 1.389 . S
C182 H204 0.930 . S
C183 C181 1.352 . S
C183 C185 1.374 . S
C183 H205 0.931 . S
C184 C185 1.359 . S
C184 C186 1.364 . S
C185 C183 1.374 . S
C185 C184 1.359 . S
C185 H206 0.931 . S
C186 C182 1.389 . S
C186 C184 1.364 . S
C186 H207 0.931 . S
C187 O198 1.256 . S
C187 O199 1.257 . S
O188 Gd168 2.377 . S
O188 C170 1.240 . S
O189 Gd169 2.395 . S
O189 C170 1.240 . S
O190 Gd168 2.448 . S
O190 C171 1.249 1_556 S
O191 Gd168 2.506 1_554 S
O191 C171 1.252 . S
O192 Gd168 2.435 . S
O192 C178 1.256 . S
O193 Gd168 2.717 . S
O193 Gd169 2.327 . S
O193 C178 1.257 . S
O194 Gd169 2.377 . S
O194 C179 1.240 . S
O195 Gd168 2.395 . S
O195 C179 1.240 . S
O196 Gd169 2.448 . S
O196 C180 1.249 . S
O197 Gd169 2.506 . S
O197 C180 1.252 . S
O198 Gd169 2.435 . S
O198 C187 1.256 . S
O199 Gd168 2.327 . S
O199 Gd169 2.717 . S
O199 C187 1.257 . S
H200 C173 0.930 . S
H201 C174 0.931 . S
H202 C176 0.931 . S
H203 C177 0.931 . S
H204 C182 0.930 . S
H205 C183 0.931 . S
H206 C185 0.931 . S
H207 C186 0.931 . S
Gd208 C211 2.818 1_556 S
Gd208 O228 2.377 . S
Gd208 O230 2.448 . S
Gd208 O231 2.506 1_556 S
Gd208 O232 2.435 . S
Gd208 O233 2.717 1_655 S
Gd208 O235 2.395 1_655 S
Gd208 O239 2.327 . S
Gd209 C220 2.818 . S
Gd209 O229 2.395 1_455 S
Gd209 O233 2.327 . S
Gd209 O234 2.377 . S
Gd209 O236 2.448 . S
Gd209 O237 2.506 . S
Gd209 O238 2.435 . S
Gd209 O239 2.717 1_455 S
C210 O228 1.240 . S
C210 O229 1.240 . S
C211 Gd208 2.818 1_554 S
C211 C212 1.510 . S
C211 O230 1.249 1_554 S
C211 O231 1.252 . S
C212 C211 1.510 . S
C212 C213 1.404 . S
C212 C214 1.352 . S
C213 C212 1.404 . S
C213 C217 1.389 . S
C213 H240 0.930 . S
C214 C212 1.352 . S
C214 C216 1.374 . S
C214 H241 0.931 . S
C215 C216 1.359 . S
C215 C217 1.364 . S
C216 C214 1.374 . S
C216 C215 1.359 . S
C216 H242 0.931 . S
C217 C213 1.389 . S
C217 C215 1.364 . S
C217 H243 0.931 . S
C218 O232 1.256 . S
C218 O233 1.257 1_655 S
C219 O234 1.240 . S
C219 O235 1.240 . S
C220 Gd209 2.818 . S
C220 C221 1.510 . S
C220 O236 1.249 . S
C220 O237 1.252 . S
C221 C220 1.510 . S
C221 C222 1.404 . S
C221 C223 1.352 . S
C222 C221 1.404 . S
C222 C226 1.389 . S
C222 H244 0.930 . S
C223 C221 1.352 . S
C223 C225 1.374 . S
C223 H245 0.931 . S
C224 C225 1.359 . S
C224 C226 1.364 . S
C225 C223 1.374 . S
C225 C224 1.359 . S
C225 H246 0.931 . S
C226 C222 1.389 . S
C226 C224 1.364 . S
C226 H247 0.931 . S
C227 O238 1.256 . S
C227 O239 1.257 1_455 S
O228 Gd208 2.377 . S
O228 C210 1.240 . S
O229 Gd209 2.395 1_655 S
O229 C210 1.240 . S
O230 Gd208 2.448 . S
O230 C211 1.249 1_556 S
O231 Gd208 2.506 1_554 S
O231 C211 1.252 . S
O232 Gd208 2.435 . S
O232 C218 1.256 . S
O233 Gd208 2.717 1_455 S
O233 Gd209 2.327 . S
O233 C218 1.257 1_455 S
O234 Gd209 2.377 . S
O234 C219 1.240 . S
O235 Gd208 2.395 1_455 S
O235 C219 1.240 . S
O236 Gd209 2.448 . S
O236 C220 1.249 . S
O237 Gd209 2.506 . S
O237 C220 1.252 . S
O238 Gd209 2.435 . S
O238 C227 1.256 . S
O239 Gd208 2.327 . S
O239 Gd209 2.717 1_655 S
O239 C227 1.257 1_655 S
H240 C213 0.930 . S
H241 C214 0.931 . S
H242 C216 0.931 . S
H243 C217 0.931 . S
H244 C222 0.930 . S
H245 C223 0.931 . S
H246 C225 0.931 . S
H247 C226 0.931 . S
C248 C249 1.411 . S
C248 H252 0.950 . S
C248 C257 1.390 . S
C249 C248 1.411 . S
C249 C251 1.365 1_545 S
H250 C257 0.950 . S
C251 C249 1.365 1_565 S
C251 C253 1.390 . S
C251 H255 0.950 . S
H252 C248 0.950 . S
C253 C251 1.390 . S
C253 C254 1.387 1_565 S
C253 H256 0.950 . S
C254 C253 1.387 1_545 S
C254 C257 1.387 . S
H255 C251 0.950 . S
H256 C253 0.950 . S
C257 C248 1.390 . S
C257 H250 0.950 . S
C257 C254 1.387 . S
C258 C259 1.387 . S
C258 H262 0.950 . S
C258 C267 1.390 . S
C259 C258 1.387 . S
C259 C261 1.387 . S
H260 C267 0.950 . S
C261 C259 1.387 . S
C261 C263 1.390 . S
C261 H265 0.950 . S
H262 C258 0.950 . S
C263 C261 1.390 . S
C263 C264 1.387 . S
C263 H266 0.950 . S
C264 C263 1.387 . S
C264 C267 1.387 . S
H265 C261 0.950 . S
H266 C263 0.950 . S
C267 C258 1.390 . S
C267 H260 0.950 . S
C267 C264 1.387 . S
C268 C269 1.387 . S
C268 H272 0.950 . S
C268 C277 1.390 . S
C269 C268 1.387 . S
C269 C271 1.387 . S
H270 C277 0.950 . S
C271 C269 1.387 . S
C271 C273 1.390 . S
C271 H275 0.950 . S
H272 C268 0.950 . S
C273 C271 1.390 . S
C273 C274 1.387 . S
C273 H276 0.950 . S
C274 C273 1.387 . S
C274 C277 1.387 . S
H275 C271 0.950 . S
H276 C273 0.950 . S
C277 C268 1.390 . S
C277 H270 0.950 . S
C277 C274 1.387 . S
C278 C279 1.412 . S
C278 H282 0.950 . S
C278 C287 1.390 . S
C279 C278 1.412 . S
C279 C281 1.364 1_455 S
H280 C287 0.950 . S
C281 C279 1.364 1_655 S
C281 C283 1.390 . S
C281 H285 0.950 . S
H282 C278 0.950 . S
C283 C281 1.390 . S
C283 C284 1.387 1_655 S
C283 H286 0.950 . S
C284 C283 1.387 1_455 S
C284 C287 1.387 . S
H285 C281 0.950 . S
H286 C283 0.950 . S
C287 C278 1.390 . S
C287 H280 0.950 . S
C287 C284 1.387 . S
C288 C289 1.372 1_545 S
C288 H292 0.950 . S
C288 C297 1.390 . S
C289 C288 1.372 1_565 S
C289 C291 1.404 . S
H290 C297 0.950 . S
C291 C289 1.404 . S
C291 C293 1.390 . S
C291 H295 0.950 . S
H292 C288 0.950 . S
C293 C291 1.390 . S
C293 C294 1.387 . S
C293 H296 0.950 . S
C294 C293 1.387 . S
C294 C297 1.387 1_565 S
H295 C291 0.950 . S
H296 C293 0.950 . S
C297 C288 1.390 . S
C297 H290 0.950 . S
C297 C294 1.387 1_545 S
C298 C299 1.387 . S
C298 H302 0.950 . S
C298 C307 1.390 . S
C299 C298 1.387 . S
C299 C301 1.387 . S
H300 C307 0.950 . S
C301 C299 1.387 . S
C301 C303 1.390 . S
C301 H305 0.950 . S
H302 C298 0.950 . S
C303 C301 1.390 . S
C303 C304 1.387 . S
C303 H306 0.950 1_554 S
C304 C303 1.387 . S
C304 C307 1.387 . S
H305 C301 0.950 . S
H306 C303 0.950 1_556 S
C307 C298 1.390 . S
C307 H300 0.950 . S
C307 C304 1.387 . S
C308 C309 1.387 . S
C308 H312 0.950 . S
C308 C317 1.390 . S
C309 C308 1.387 . S
C309 C311 1.387 . S
H310 C317 0.950 1_556 S
C311 C309 1.387 . S
C311 C313 1.390 . S
C311 H315 0.950 . S
H312 C308 0.950 . S
C313 C311 1.390 . S
C313 C314 1.387 . S
C313 H316 0.950 . S
C314 C313 1.387 . S
C314 C317 1.387 . S
H315 C311 0.950 . S
H316 C313 0.950 . S
C317 C308 1.390 . S
C317 H310 0.950 1_554 S
C317 C314 1.387 . S
C318 C319 1.413 . S
C318 H322 0.950 . S
C318 C327 1.390 . S
C319 C318 1.413 . S
C319 C321 1.363 1_655 S
H320 C327 0.950 . S
C321 C319 1.363 1_455 S
C321 C323 1.390 . S
C321 H325 0.950 . S
H322 C318 0.950 . S
C323 C321 1.390 . S
C323 C324 1.387 1_455 S
C323 H326 0.950 . S
C324 C323 1.387 1_655 S
C324 C327 1.387 . S
H325 C321 0.950 . S
H326 C323 0.950 . S
C327 C318 1.390 . S
C327 H320 0.950 . S
C327 C324 1.387 . S
C328 C329 1.387 . S
C328 H332 0.950 1_655 S
C328 C337 1.390 . S
C329 C328 1.387 . S
C329 C331 1.387 . S
H330 C337 0.950 . S
C331 C329 1.387 . S
C331 C333 1.390 . S
C331 H335 0.950 . S
H332 C328 0.950 1_455 S
C333 C331 1.390 . S
C333 C334 1.387 . S
C333 H336 0.950 . S
C334 C333 1.387 . S
C334 C337 1.387 . S
H335 C331 0.950 . S
H336 C333 0.950 . S
C337 C328 1.390 . S
C337 H330 0.950 . S
C337 C334 1.387 . S
C338 C339 1.387 . S
C338 H342 0.950 . S
C338 C347 1.390 . S
C339 C338 1.387 . S
C339 C341 1.387 1_565 S
H340 C347 0.950 . S
C341 C339 1.387 1_545 S
C341 C343 1.390 1_545 S
C341 H345 0.950 . S
H342 C338 0.950 . S
C343 C341 1.390 1_565 S
C343 C344 1.387 . S
C343 H346 0.950 . S
C344 C343 1.387 . S
C344 C347 1.387 . S
H345 C341 0.950 . S
H346 C343 0.950 . S
C347 C338 1.390 . S
C347 H340 0.950 . S
C347 C344 1.387 . S
C348 C349 1.387 . S
C348 H352 0.950 . S
C348 C357 1.390 . S
C349 C348 1.387 . S
C349 C351 1.387 . S
H350 C357 0.950 . S
C351 C349 1.387 . S
C351 C353 1.390 . S
C351 H355 0.950 . S
H352 C348 0.950 . S
C353 C351 1.390 . S
C353 C354 1.387 . S
C353 H356 0.950 . S
C354 C353 1.387 . S
C354 C357 1.387 . S
H355 C351 0.950 . S
H356 C353 0.950 . S
C357 C348 1.390 . S
C357 H350 0.950 . S
C357 C354 1.387 . S
C358 C359 1.387 . S
C358 H362 0.950 . S
C358 C367 1.390 . S
C359 C358 1.387 . S
C359 C361 1.387 . S
H360 C367 0.950 . S
C361 C359 1.387 . S
C361 C363 1.390 . S
C361 H365 0.950 . S
H362 C358 0.950 . S
C363 C361 1.390 . S
C363 C364 1.387 . S
C363 H366 0.950 . S
C364 C363 1.387 . S
C364 C367 1.387 . S
H365 C361 0.950 . S
H366 C363 0.950 . S
C367 C358 1.390 . S
C367 H360 0.950 . S
C367 C364 1.387 . S
C368 C369 1.387 1_655 S
C368 H372 0.950 . S
C368 C377 1.390 1_655 S
C369 C368 1.387 1_455 S
C369 C371 1.387 . S
H370 C377 0.950 . S
C371 C369 1.387 . S
C371 C373 1.390 . S
C371 H375 0.950 . S
H372 C368 0.950 . S
C373 C371 1.390 . S
C373 C374 1.387 . S
C373 H376 0.950 . S
C374 C373 1.387 . S
C374 C377 1.387 . S
H375 C371 0.950 . S
H376 C373 0.950 . S
C377 C368 1.390 1_455 S
C377 H370 0.950 . S
C377 C374 1.387 . S
C378 C379 1.387 1_565 S
C378 H382 0.950 . S
C378 C387 1.390 1_565 S
C379 C378 1.387 1_545 S
C379 C381 1.387 . S
H380 C387 0.950 . S
C381 C379 1.387 . S
C381 C383 1.390 . S
C381 H385 0.950 . S
H382 C378 0.950 . S
C383 C381 1.390 . S
C383 C384 1.387 . S
C383 H386 0.950 . S
C384 C383 1.387 . S
C384 C387 1.387 . S
H385 C381 0.950 . S
H386 C383 0.950 . S
C387 C378 1.390 1_545 S
C387 H380 0.950 . S
C387 C384 1.387 . S
C388 C389 1.387 . S
C388 H392 0.950 . S
C388 C397 1.390 . S
C389 C388 1.387 . S
C389 C391 1.387 . S
H390 C397 0.950 . S
C391 C389 1.387 . S
C391 C393 1.390 . S
C391 H395 0.950 . S
H392 C388 0.950 . S
C393 C391 1.390 . S
C393 C394 1.387 . S
C393 H396 0.950 . S
C394 C393 1.387 . S
C394 C397 1.387 . S
H395 C391 0.950 . S
H396 C393 0.950 . S
C397 C388 1.390 . S
C397 H390 0.950 . S
C397 C394 1.387 . S
C398 C399 1.387 . S
C398 H402 0.950 . S
C398 C407 1.390 . S
C399 C398 1.387 . S
C399 C401 1.387 . S
H400 C407 0.950 . S
C401 C399 1.387 . S
C401 C403 1.390 . S
C401 H405 0.950 . S
H402 C398 0.950 . S
C403 C401 1.390 . S
C403 C404 1.387 . S
C403 H406 0.950 . S
C404 C403 1.387 . S
C404 C407 1.387 . S
H405 C401 0.950 . S
H406 C403 0.950 . S
C407 C398 1.390 . S
C407 H400 0.950 . S
C407 C404 1.387 . S
C408 C409 1.387 . S
C408 H412 0.950 . S
C408 C417 1.390 . S
C409 C408 1.387 . S
C409 C411 1.387 . S
H410 C417 0.950 . S
C411 C409 1.387 . S
C411 C413 1.390 . S
C411 H415 0.950 . S
H412 C408 0.950 . S
C413 C411 1.390 . S
C413 C414 1.387 . S
C413 H416 0.950 . S
C414 C413 1.387 . S
C414 C417 1.387 . S
H415 C411 0.950 . S
H416 C413 0.950 . S
C417 C408 1.390 . S
C417 H410 0.950 . S
C417 C414 1.387 . S
C418 C419 1.387 . S
C418 H422 0.950 . S
C418 C427 1.390 . S
C419 C418 1.387 . S
C419 C421 1.387 1_545 S
H420 C427 0.950 . S
C421 C419 1.387 1_565 S
C421 C423 1.390 . S
C421 H425 0.950 . S
H422 C418 0.950 . S
C423 C421 1.390 . S
C423 C424 1.387 1_565 S
C423 H426 0.950 . S
C424 C423 1.387 1_545 S
C424 C427 1.387 . S
H425 C421 0.950 . S
H426 C423 0.950 . S
C427 C418 1.390 . S
C427 H420 0.950 . S
C427 C424 1.387 . S
C428 C429 1.387 . S
C428 H432 0.950 . S
C428 C437 1.390 . S
C429 C428 1.387 . S
C429 C431 1.387 . S
H430 C437 0.950 . S
C431 C429 1.387 . S
C431 C433 1.390 . S
C431 H435 0.950 . S
H432 C428 0.950 . S
C433 C431 1.390 . S
C433 C434 1.387 . S
C433 H436 0.950 . S
C434 C433 1.387 . S
C434 C437 1.387 . S
H435 C431 0.950 . S
H436 C433 0.950 . S
C437 C428 1.390 . S
C437 H430 0.950 . S
C437 C434 1.387 . S
C438 C439 1.387 . S
C438 H442 0.950 . S
C438 C447 1.390 . S
C439 C438 1.387 . S
C439 C441 1.387 . S
H440 C447 0.950 . S
C441 C439 1.387 . S
C441 C443 1.390 . S
C441 H445 0.950 . S
H442 C438 0.950 . S
C443 C441 1.390 . S
C443 C444 1.387 . S
C443 H446 0.950 . S
C444 C443 1.387 . S
C444 C447 1.387 . S
H445 C441 0.950 . S
H446 C443 0.950 . S
C447 C438 1.390 . S
C447 H440 0.950 . S
C447 C444 1.387 . S
C448 C449 1.387 1_455 S
C448 H452 0.950 . S
C448 C457 1.390 . S
C449 C448 1.387 1_655 S
C449 C451 1.387 . S
H450 C457 0.950 . S
C451 C449 1.387 . S
C451 C453 1.390 . S
C451 H455 0.950 . S
H452 C448 0.950 . S
C453 C451 1.390 . S
C453 C454 1.387 . S
C453 H456 0.950 . S
C454 C453 1.387 . S
C454 C457 1.387 1_655 S
H455 C451 0.950 . S
H456 C453 0.950 . S
C457 C448 1.390 . S
C457 H450 0.950 . S
C457 C454 1.387 1_455 S
C458 C459 1.387 . S
C458 H462 0.950 . S
C458 C467 1.390 . S
C459 C458 1.387 . S
C459 C461 1.387 1_565 S
H460 C467 0.950 . S
C461 C459 1.387 1_545 S
C461 C463 1.390 . S
C461 H465 0.950 . S
H462 C458 0.950 . S
C463 C461 1.390 . S
C463 C464 1.387 1_545 S
C463 H466 0.950 . S
C464 C463 1.387 1_565 S
C464 C467 1.387 . S
H465 C461 0.950 . S
H466 C463 0.950 . S
C467 C458 1.390 . S
C467 H460 0.950 . S
C467 C464 1.387 . S
C468 C469 1.387 . S
C468 H472 0.950 . S
C468 C477 1.390 . S
C469 C468 1.387 . S
C469 C471 1.387 . S
H470 C477 0.950 . S
C471 C469 1.387 . S
C471 C473 1.390 . S
C471 H475 0.950 . S
H472 C468 0.950 . S
C473 C471 1.390 . S
C473 C474 1.387 . S
C473 H476 0.950 . S
C474 C473 1.387 . S
C474 C477 1.387 . S
H475 C471 0.950 . S
H476 C473 0.950 . S
C477 C468 1.390 . S
C477 H470 0.950 . S
C477 C474 1.387 . S
C478 C479 1.387 . S
C478 H482 0.950 . S
C478 C487 1.390 . S
C479 C478 1.387 . S
C479 C481 1.387 . S
H480 C487 0.950 . S
C481 C479 1.387 . S
C481 C483 1.390 . S
C481 H485 0.950 . S
H482 C478 0.950 . S
C483 C481 1.390 . S
C483 C484 1.387 . S
C483 H486 0.950 . S
C484 C483 1.387 . S
C484 C487 1.387 . S
H485 C481 0.950 . S
H486 C483 0.950 . S
C487 C478 1.390 . S
C487 H480 0.950 . S
C487 C484 1.387 . S
C249 C74 1.942 . S
C254 C98 2.138 1_545 S
C264 C138 2.143 . S
C259 C85 1.942 . S
C274 C178 2.145 . S
C269 C52 1.948 . S
C284 C218 2.142 1_455 S
C279 C63 1.945 . S
C294 C107 2.141 1_564 S
C289 C30 1.946 1_565 S
C299 C41 1.952 . S
C304 C147 2.146 1_554 S
C309 C8 1.953 . S
C314 C187 2.143 1_554 S
C319 C19 1.948 1_655 S
C324 C227 2.142 1_654 S
C334 C104 0.877 . S
C329 C62 0.926 1_655 S
C344 C144 0.880 . S
C339 C73 0.930 1_565 S
C354 C184 0.883 . S
C349 C84 0.929 . S
C359 C51 0.926 . S
C364 C224 0.873 . S
C369 C18 0.866 . S
C374 C95 0.886 . S
C384 C135 0.882 . S
C379 C29 0.864 . S
C394 C175 0.884 . S
C389 C40 0.869 . S
C399 C7 0.869 . S
C404 C215 0.886 . S
C409 C60 1.902 . S
C414 C99 2.550 . S
C419 C71 1.896 . S
C424 C139 2.548 . S
C434 C179 2.546 . S
C429 C82 1.889 . S
C444 C219 2.553 . S
C439 C49 1.893 . S
C449 C16 2.029 1_655 S
C454 C90 2.558 . S
C464 C130 2.547 . S
C459 C27 2.022 1_565 S
C474 C170 2.546 . S
C469 C38 2.028 . S
C479 C5 2.034 . S
C484 C210 2.553 . S
