# Generated by pormake.
# Topology pth, (4,4)-cn, num edge types: 1
# Building blocks:
#     Node 0, Type 0, BuildingBlock: NAHDIM_clean_sbu_0, # of connection points: 4
#     Node 1, Type 0, BuildingBlock: NAHDIM_clean_sbu_0, # of connection points: 4
#     Node 2, Type 0, BuildingBlock: NAHDIM_clean_sbu_0, # of connection points: 4
#     Node 3, Type 1, BuildingBlock: NAWXER_clean_sbu_0, # of connection points: 4
#     Node 4, Type 1, BuildingBlock: NAWXER_clean_sbu_0, # of connection points: 4
#     Node 5, Type 1, BuildingBlock: NAWXER_clean_sbu_0, # of connection points: 4
#     Edge 6, Type (0, 1), BuildingBlock: UVAHIK_clean_linker_0, # of connection points: 2
#     Edge 7, Type (0, 1), BuildingBlock: UVAHIK_clean_linker_0, # of connection points: 2
#     Edge 8, Type (0, 1), BuildingBlock: UVAHIK_clean_linker_0, # of connection points: 2
#     Edge 9, Type (0, 1), BuildingBlock: UVAHIK_clean_linker_0, # of connection points: 2
#     Edge 10, Type (0, 1), BuildingBlock: UVAHIK_clean_linker_0, # of connection points: 2
#     Edge 11, Type (0, 1), BuildingBlock: UVAHIK_clean_linker_0, # of connection points: 2
#     Edge 12, Type (0, 1), BuildingBlock: UVAHIK_clean_linker_0, # of connection points: 2
#     Edge 13, Type (0, 1), BuildingBlock: UVAHIK_clean_linker_0, # of connection points: 2
#     Edge 14, Type (0, 1), BuildingBlock: UVAHIK_clean_linker_0, # of connection points: 2
#     Edge 15, Type (0, 1), BuildingBlock: UVAHIK_clean_linker_0, # of connection points: 2
#     Edge 16, Type (0, 1), BuildingBlock: UVAHIK_clean_linker_0, # of connection points: 2
#     Edge 17, Type (0, 1), BuildingBlock: UVAHIK_clean_linker_0, # of connection points: 2
# Relax obj value: 0.052
# Max RMSD: 0.176
# Mean RMSD: 0.102
data_MOF--net-pth--node1-NAHDIM_clean_sbu_0--node2-NAWXER_clean_sbu_0--edge1-UVAHIK_clean_linker_0
_symmetry_space_group_name_H-M    P1
_symmetry_Int_Tables_number       1
_symmetry_cell_setting            triclinic
loop_
_symmetry_equiv_pos_as_xyz
'x, y, z'
_cell_length_a     29.673164
_cell_length_b     29.940867
_cell_length_c     73.654492
_cell_angle_alpha  91.959902
_cell_angle_beta   89.989765
_cell_angle_gamma 120.58457
loop_
_atom_site_label
_atom_site_type_symbol
_atom_site_fract_x
_atom_site_fract_y
_atom_site_fract_z
_atom_type_partial_charge
C0 C 0.00758 0.98436 0.0887 0.0
O1 O 0.96695 0.99049 0.08711 0.0
O2 O 0.02202 0.1049 0.08031 0.0
Zn3 Zn 0.03688 0.05955 0.06384 0.0
O4 O 0.97679 0.01102 0.04731 0.0
C5 C 0.13517 0.14955 0.05667 0.0
O6 O 0.13404 0.15751 0.07428 0.0
O7 O 0.04828 0.01289 0.07967 0.0
C8 C 0.97407 0.01642 0.03039 0.0
O9 O 0.00949 0.05943 0.02305 0.0
C10 C 0.01796 0.14236 0.07472 0.0
O11 O 0.01633 0.14804 0.05716 0.0
O12 O 0.09925 0.10736 0.04921 0.0
C13 C 0.03046 0.14418 0.37205 0.0
O14 O 0.98966 0.09747 0.37378 0.0
O15 O 0.04504 0.03836 0.37572 0.0
Zn16 Zn 0.06094 0.09472 0.39461 0.0
O17 O 0.00078 0.08048 0.41091 0.0
C18 C 0.11884 0.06083 0.41323 0.0
O19 O 0.0768 0.01763 0.40758 0.0
O20 O 0.07286 0.15606 0.38046 0.0
C21 C 0.99556 0.06707 0.42731 0.0
O22 O 0.02883 0.0559 0.43459 0.0
C23 C 0.00635 0.99235 0.37399 0.0
O24 O 0.96766 0.97623 0.38544 0.0
O25 O 0.12291 0.10398 0.40952 0.0
C26 C 0.10137 0.03362 0.71178 0.0
O27 O 0.10304 0.07707 0.71664 0.0
O28 O 0.96995 0.02237 0.71454 0.0
Zn29 Zn 0.01064 0.00194 0.73089 0.0
O30 O 0.05393 0.05582 0.75029 0.0
C31 C 0.92498 0.9523 0.75184 0.0
O32 O 0.93436 -2e-05 0.75068 0.0
O33 O 0.06199 0.99078 0.71625 0.0
C34 C 0.05813 0.09953 0.7539 0.0
O35 O 0.03032 0.11392 0.74452 0.0
C36 C 0.97094 0.01926 0.69731 0.0
O37 O 0.0042 0.00835 0.68954 0.0
O38 O 0.95549 0.94006 0.74386 0.0
C39 C 0.06121 0.64142 0.25074 0.0
C40 C 0.08089 0.53748 0.20243 0.0
O41 O 0.10413 0.6496 0.24399 0.0
Zn42 Zn 0.07397 0.59007 0.22697 0.0
O43 O 0.01784 0.60265 0.24481 0.0
Zn44 Zn 0.98982 0.54031 0.22513 0.0
O45 O 0.95643 0.47958 0.24001 0.0
O46 O 0.04207 0.5264 0.2443 0.0
O47 O 0.03318 0.52188 0.20632 0.0
O48 O 0.11807 0.57528 0.21146 0.0
O49 O 0.03471 0.61097 0.20786 0.0
O50 O 0.94916 0.55699 0.20888 0.0
C51 C -0.00226 0.48726 0.24815 0.0
C52 C 0.98823 0.59619 0.20216 0.0
C53 C 0.56909 0.98801 0.58234 0.0
C54 C 0.46733 0.01587 0.53684 0.0
O55 O 0.53035 0.95266 0.5731 0.0
Zn56 Zn 0.51571 -0.00076 0.5601 0.0
O57 O 0.58285 0.03582 0.58092 0.0
Zn58 Zn 0.5594 0.08157 0.56625 0.0
O59 O 0.53435 0.11007 0.5852 0.0
O60 O 0.48407 0.02529 0.58086 0.0
O61 O 0.5016 0.05767 0.54529 0.0
O62 O 0.46217 0.97266 0.54101 0.0
O63 O 0.58695 0.04239 0.54573 0.0
O64 O 0.62318 0.126 0.55332 0.0
C65 C 0.49408 0.06754 0.5893 0.0
C66 C 0.62414 0.08945 0.54432 0.0
C67 C 0.45345 0.52459 0.92951 0.0
C68 C 0.54045 0.61167 0.87424 0.0
O69 O 0.44885 0.55953 0.92184 0.0
Zn70 Zn 0.49533 0.56939 0.90171 0.0
O71 O 0.4825 0.50868 0.92249 0.0
Zn72 Zn 0.53124 0.52228 0.89984 0.0
O73 O 0.5989 0.54662 0.9116 0.0
O74 O 0.57069 0.60216 0.91437 0.0
O75 O 0.55061 0.57685 0.87897 0.0
O76 O 0.5096 0.62045 0.88368 0.0
O77 O 0.45276 0.49888 0.88601 0.0
O78 O 0.4954 0.45628 0.88614 0.0
C79 C 0.60593 0.59043 0.91722 0.0
C80 C 0.45615 0.45933 0.88099 0.0
C81 C 0.04949 0.18938 0.10479 0.0
C82 C 0.02562 0.1843 0.08777 0.0
C83 C 0.06212 0.23181 0.11653 0.0
C84 C 0.07958 0.36432 0.11751 0.0
H85 H 0.07141 0.34668 0.16956 0.0
C86 C 0.05978 0.49697 0.17145 0.0
C87 C 0.0909 0.51066 0.18732 0.0
C88 C 0.06176 0.46382 0.15815 0.0
C89 C 0.07473 0.35231 0.15506 0.0
H90 H 0.99487 0.21885 0.0699 0.0
H91 H 0.01422 0.29168 0.09083 0.0
H92 H 0.04985 0.27281 0.14905 0.0
H93 H 0.14982 0.50243 0.20161 0.0
H94 H 0.15207 0.44245 0.17843 0.0
H95 H 0.1013 0.44339 0.12377 0.0
C96 C 0.02504 0.2639 0.09486 0.0
C97 C 0.06239 0.31 0.14325 0.0
C98 C 0.01332 0.22184 0.08293 0.0
C99 C 0.12588 0.49265 0.18937 0.0
C100 C 0.12693 0.4583 0.17622 0.0
C101 C 0.09094 0.4064 0.12934 0.0
C102 C 0.05025 0.26981 0.11174 0.0
C103 C 0.06431 0.31529 0.1243 0.0
C104 C 0.09401 0.44284 0.1607 0.0
C105 C 0.08834 0.40061 0.1482 0.0
H106 H 0.06024 0.16152 0.10882 0.0
H107 H 0.08242 0.23534 0.12919 0.0
H108 H 0.08268 0.37031 0.10304 0.0
H109 H 0.03247 0.51047 0.16964 0.0
H110 H 0.03572 0.45212 0.14639 0.0
C111 C 0.94471 0.04987 0.45591 0.0
C112 C 0.95717 0.07172 0.43877 0.0
C113 C 0.91186 0.05813 0.46735 0.0
C114 C 0.81569 0.10329 0.4678 0.0
H115 H 0.84124 0.11261 0.51981 0.0
C116 C 0.69554 0.14233 0.52254 0.0
C117 C 0.66947 0.09897 0.53339 0.0
C118 C 0.73574 0.14747 0.51117 0.0
C119 C 0.83416 0.11068 0.50529 0.0
H120 H 0.94474 0.11915 0.4201 0.0
H121 H 0.889 0.13496 0.44022 0.0
H122 H 0.90066 0.10369 0.49915 0.0
H123 H 0.66609 0.02847 0.54161 0.0
H124 H 0.73724 0.03858 0.52241 0.0
H125 H 0.74913 0.11065 0.4742 0.0
C126 C 0.90334 0.11032 0.44473 0.0
C127 C 0.86765 0.10483 0.49344 0.0
C128 C 0.93548 0.10134 0.43318 0.0
C129 C 0.68545 0.06215 0.53329 0.0
C130 C 0.72625 0.068 0.5224 0.0
C131 C 0.7827 0.11006 0.47968 0.0
C132 C 0.89145 0.08923 0.46204 0.0
C133 C 0.85809 0.09963 0.47455 0.0
C134 C 0.75118 0.11017 0.51106 0.0
C135 C 0.79103 0.11257 0.49851 0.0
H136 H 0.9606 0.02661 0.46054 0.0
H137 H 0.90251 0.04005 0.48037 0.0
H138 H 0.80664 0.0989 0.45338 0.0
H139 H 0.68364 0.17104 0.52237 0.0
H140 H 0.75455 0.18023 0.50244 0.0
C141 C 0.84672 0.93031 0.77043 0.0
C142 C 0.87968 0.91473 0.7623 0.0
C143 C 0.80441 0.89614 0.78069 0.0
C144 C 0.71716 0.75778 0.7896 0.0
H145 H 0.69782 0.81143 0.8358 0.0
C146 C 0.59542 0.62716 0.84698 0.0
C147 C 0.5676 0.6428 0.85842 0.0
C148 C 0.62668 0.65888 0.83335 0.0
C149 C 0.70193 0.79603 0.82279 0.0
H150 H 0.89351 0.85064 0.75833 0.0
H151 H 0.81941 0.79068 0.77652 0.0
H152 H 0.76717 0.86931 0.81595 0.0
H153 H 0.54862 0.70288 0.86391 0.0
H154 H 0.60328 0.75855 0.83985 0.0
H155 H 0.65232 0.68424 0.79661 0.0
C156 C 0.82629 0.82941 0.77476 0.0
C157 C 0.74186 0.82917 0.81144 0.0
C158 C 0.86886 0.86378 0.76444 0.0
C159 C 0.56971 0.68986 0.85534 0.0
C160 C 0.60127 0.72184 0.84166 0.0
C161 C 0.67709 0.72461 0.80095 0.0
C162 C 0.79394 0.84548 0.78312 0.0
C163 C 0.75029 0.8103 0.79481 0.0
C164 C 0.63096 0.70712 0.83078 0.0
C165 C 0.66948 0.74324 0.81779 0.0
H166 H 0.85361 0.96916 0.76895 0.0
H167 H 0.77977 0.90943 0.78672 0.0
H168 H 0.72218 0.74233 0.77674 0.0
H169 H 0.59442 0.59095 0.8489 0.0
H170 H 0.64938 0.64655 0.82537 0.0
C171 C 0.04543 0.93301 0.10094 0.0
C172 C 0.00425 0.94322 0.10012 0.0
C173 C 0.04096 0.89282 0.11135 0.0
C174 C 0.94356 0.77156 0.13252 0.0
H175 H 0.06309 0.79504 0.16158 0.0
C176 C 0.93746 0.63116 0.18685 0.0
C177 C 0.98199 0.62627 0.18798 0.0
C178 C 0.93654 0.66655 0.17508 0.0
C179 C 0.0295 0.78762 0.15337 0.0
H180 H 0.92628 0.91958 0.10969 0.0
H181 H 0.91894 0.85012 0.12798 0.0
H182 H 0.06981 0.86428 0.14336 0.0
H183 H 0.05834 0.65084 0.17672 0.0
H184 H 0.0562 0.71117 0.15607 0.0
H185 H 0.90327 0.69472 0.14271 0.0
C186 C 0.95428 0.87255 0.12037 0.0
C187 C 0.03341 0.82732 0.14293 0.0
C188 C 0.95872 0.91266 0.10999 0.0
C189 C 0.02388 0.65457 0.17638 0.0
C190 C 0.0228 0.68933 0.16461 0.0
C191 C 0.93964 0.73169 0.14302 0.0
C192 C 0.99527 0.8621 0.12114 0.0
C193 C 0.99064 0.8197 0.1323 0.0
C194 C 0.98001 0.6971 0.16426 0.0
C195 C 0.98278 0.73922 0.15341 0.0
H196 H 0.08088 0.95569 0.09342 0.0
H197 H 0.07303 0.88533 0.11152 0.0
H198 H 0.91003 0.7644 0.12435 0.0
H199 H 0.90469 0.60976 0.19567 0.0
H200 H 0.90298 0.67172 0.17507 0.0
C201 C 0.20124 0.10239 0.43261 0.0
C202 C 0.15862 0.05785 0.42438 0.0
C203 C 0.23687 0.09794 0.44378 0.0
C204 C 0.24631 0.00285 0.47168 0.0
H205 H 0.39593 0.09877 0.47013 0.0
C206 C 0.39376 0.97424 0.5136 0.0
C207 C 0.43404 0.01905 0.52258 0.0
C208 C 0.36165 0.97821 0.50061 0.0
C209 C 0.35418 0.07188 0.47081 0.0
H210 H 0.12098 0.97396 0.42096 0.0
H211 H 0.18296 0.96649 0.44017 0.0
H212 H 0.33731 0.10871 0.44957 0.0
H213 H 0.47265 0.10321 0.52473 0.0
H214 H 0.4166 0.10988 0.50238 0.0
H215 H 0.26294 0.96632 0.49301 0.0
C216 C 0.18846 0.00469 0.43832 0.0
C217 C 0.32066 0.07767 0.45906 0.0
C218 C 0.15305 0.00909 0.42722 0.0
C219 C 0.442 0.06781 0.51809 0.0
C220 C 0.41008 0.07175 0.50514 0.0
C221 C 0.27977 -0.0029 0.48343 0.0
C222 C 0.2304 0.0489 0.44692 0.0
C223 C 0.26633 0.04325 0.45939 0.0
C224 C 0.36933 0.02705 0.49632 0.0
C225 C 0.33408 0.03165 0.48318 0.0
H226 H 0.20656 0.14046 0.43067 0.0
H227 H 0.2687 0.13272 0.45032 0.0
H228 H 0.20454 0.97615 0.47247 0.0
H229 H 0.38672 0.93614 0.51672 0.0
H230 H 0.33087 0.94305 0.49389 0.0
C231 C 0.10162 0.18269 0.77284 0.0
C232 C 0.09687 0.13477 0.76788 0.0
C233 C 0.13986 0.21639 0.78559 0.0
C234 C 0.22943 0.22099 0.82182 0.0
H235 H 0.30485 0.36827 0.81302 0.0
C236 C 0.41483 0.37373 0.86324 0.0
C237 C 0.41486 0.41917 0.86874 0.0
C238 C 0.37602 0.33728 0.85115 0.0
C239 C 0.2839 0.32725 0.8157 0.0
H240 H 0.12832 0.08446 0.7725 0.0
H241 H 0.19525 0.1434 0.79433 0.0
H242 H 0.23598 0.30826 0.79175 0.0
H243 H 0.37371 0.4615 0.86605 0.0
H244 H 0.30683 0.39839 0.84514 0.0
H245 H 0.27807 0.24034 0.84572 0.0
C246 C 0.16898 0.15471 0.78869 0.0
C247 C 0.24425 0.29289 0.80358 0.0
C248 C 0.1307 0.12101 0.77607 0.0
C249 C 0.37513 0.42707 0.86208 0.0
C250 C 0.33685 0.39105 0.84998 0.0
C251 C 0.26939 0.25541 0.8339 0.0
C252 C 0.17426 0.20292 0.79355 0.0
C253 C 0.21628 0.23939 0.80654 0.0
C254 C 0.33706 0.34602 0.84427 0.0
C255 C 0.29668 0.30891 0.83103 0.0
H256 H 0.07601 0.1943 0.76685 0.0
H257 H 0.14237 0.25294 0.78924 0.0
H258 H 0.20826 0.18007 0.82462 0.0
H259 H 0.44488 0.36653 0.86814 0.0
H260 H 0.37709 0.30284 0.8469 0.0
C261 C 0.88094 0.00579 0.69408 0.0
C262 C 0.92897 0.01834 0.68625 0.0
C263 C 0.83859 -0.00254 0.68318 0.0
C264 C 0.79152 0.96737 0.63499 0.0
H265 H 0.69121 0.0055 0.65171 0.0
C266 C 0.65546 -0.00175 0.58846 0.0
C267 C 0.60281 0.97622 0.59318 0.0
C268 C 0.69078 0.99464 0.59987 0.0
C269 C 0.71849 0.99389 0.64701 0.0
H270 H 0.9713 0.03484 0.66107 0.0
H271 H 0.89845 0.023 0.64216 0.0
H272 H 0.76405 0.02169 0.67166 0.0
H273 H 0.54501 0.93285 0.61326 0.0
H274 H 0.60772 0.92761 0.63375 0.0
H275 H 0.74717 0.9422 0.60997 0.0
C276 C 0.89257 0.01738 0.6566 0.0
C277 C 0.7603 0.00318 0.65841 0.0
C278 C 0.9346 0.02481 0.66745 0.0
C279 C 0.58543 0.9494 0.60931 0.0
C280 C 0.62119 0.94676 0.62101 0.0
C281 C 0.75023 0.95889 0.62352 0.0
C282 C 0.84358 0.0023 0.66425 0.0
C283 C 0.79781 0.99071 0.65245 0.0
C284 C 0.67428 0.96999 0.61644 0.0
C285 C 0.71374 0.97262 0.62936 0.0
H286 H 0.87526 2e-05 0.70853 0.0
H287 H 0.80148 0.98542 0.68958 0.0
H288 H 0.81866 0.95585 0.63009 0.0
H289 H 0.66962 0.01969 0.57616 0.0
H290 H 0.73158 0.01337 0.59616 0.0
C291 C 0.92789 0.97704 0.00053 0.0
C292 C 0.93653 0.97127 0.01881 0.0
C293 C 0.89578 0.93348 0.98929 0.0
C294 C 0.79509 0.79277 0.99064 0.0
H295 H 0.82947 0.79357 0.93981 0.0
C296 C 0.67588 0.61606 0.94107 0.0
C297 C 0.65449 0.62933 0.92669 0.0
C298 C 0.71658 0.65519 0.95191 0.0
C299 C 0.81977 0.79277 0.95402 0.0
H300 H 0.91816 0.91529 0.03967 0.0
H301 H 0.86388 0.83966 0.02004 0.0
H302 H 0.88646 0.86783 0.95996 0.0
H303 H 0.66036 0.69274 0.91151 0.0
H304 H 0.73238 0.76071 0.92998 0.0
H305 H 0.72852 0.71738 0.98457 0.0
C306 C 0.88052 0.87766 0.0144 0.0
C307 C 0.85196 0.8355 0.96554 0.0
C308 C 0.91187 0.92118 0.02568 0.0
C309 C 0.67633 0.6817 0.92257 0.0
C310 C 0.7176 0.72051 0.93307 0.0
C311 C 0.76342 0.74973 0.97917 0.0
C312 C 0.87228 0.88313 -0.00399 0.0
C313 C 0.83949 0.83652 0.98393 0.0
C314 C 0.73708 0.70775 0.94814 0.0
C315 C 0.77496 0.74977 0.96071 0.0
H316 H 0.94621 0.01516 0.99487 0.0
H317 H 0.88941 0.93938 0.97532 0.0
H318 H 0.78368 0.79229 0.00462 0.0
H319 H 0.65924 0.57587 0.94454 0.0
H320 H 0.73112 0.64455 0.96349 0.0
C321 C 0.96993 0.9034 0.35921 0.0
C322 C 0.00903 0.95614 0.36047 0.0
C323 C 0.97542 0.86896 0.34738 0.0
C324 C 0.07645 0.85308 0.32423 0.0
H325 H 0.96128 0.75103 0.29359 0.0
C326 C 0.10111 0.72784 0.26768 0.0
C327 C 0.05962 0.67653 0.26495 0.0
C328 C 0.09612 0.7619 0.2799 0.0
C329 C 0.99368 0.77882 0.30224 0.0
H330 H 0.08374 0.01435 0.34984 0.0
H331 H 0.09298 0.95445 0.3293 0.0
H332 H 0.94852 0.80998 0.31362 0.0
H333 H 0.98173 0.61973 0.2736 0.0
H334 H 0.97371 0.67836 0.2951 0.0
H335 H 0.12154 0.82172 0.31298 0.0
C336 C 0.05852 0.93956 0.33762 0.0
C337 C 0.98631 0.81261 0.31368 0.0
C338 C 0.05295 0.97391 0.34932 0.0
C339 C 0.01415 0.6593 0.2752 0.0
C340 C 0.00937 0.69302 0.28746 0.0
C341 C 0.08376 0.81907 0.31286 0.0
C342 C 0.02022 0.88665 0.33668 0.0
C343 C 0.02764 0.85016 0.32475 0.0
C344 C 0.04973 0.74503 0.28967 0.0
C345 C 0.04243 0.78151 0.30174 0.0
H346 H 0.93569 0.88852 0.36763 0.0
H347 H 0.94534 0.82826 0.34696 0.0
H348 H 0.10885 0.88127 0.3328 0.0
H349 H 0.13652 0.74217 0.25992 0.0
H350 H 0.12787 0.80184 0.28122 0.0
C351 C 0.18749 0.08391 0.69675 0.0
C352 C 0.14385 0.03556 0.70069 0.0
C353 C 0.22715 0.08684 0.68579 0.0
C354 C 0.25161 0.01346 0.6502 0.0
H355 H 0.39769 0.11438 0.661 0.0
C356 C 0.41638 0.01696 0.60854 0.0
C357 C 0.45768 0.06548 0.60344 0.0
C358 C 0.38001 0.01372 0.62116 0.0
C359 C 0.35704 0.08641 0.65771 0.0
H360 H 0.10808 0.95224 0.69647 0.0
H361 H 0.17781 0.95733 0.6773 0.0
H362 H 0.33046 0.1063 0.68201 0.0
H363 H 0.49378 0.14874 0.60796 0.0
H364 H 0.42951 0.14307 0.63007 0.0
H365 H 0.27797 0.99377 0.62587 0.0
C366 C 0.1809 0.99301 0.6826 0.0
C367 C 0.31855 0.08167 0.66976 0.0
C368 C 0.14113 0.99005 0.69363 0.0
C369 C 0.46241 0.11082 0.6116 0.0
C370 C 0.42575 0.10754 0.6243 0.0
C371 C 0.29004 0.0182 0.63818 0.0
C372 C 0.22419 0.0415 0.67847 0.0
C373 C 0.26538 0.04518 0.66611 0.0
C374 C 0.38377 0.05888 0.62902 0.0
C375 C 0.34319 0.05468 0.64179 0.0
H376 H 0.1909 0.11979 0.70197 0.0
H377 H 0.25954 0.12479 0.68269 0.0
H378 H 0.21097 0.98571 0.64681 0.0
H379 H 0.41175 0.98115 0.60268 0.0
H380 H 0.34882 0.97566 0.62478 0.0
C381 C 0.20726 0.24154 0.05334 0.0
C382 C 0.17233 0.19236 0.04534 0.0
C383 C 0.2383 0.28354 0.04253 0.0
C384 C 0.24513 0.3285 0.99593 0.0
H385 H 0.39114 0.4242 0.00853 0.0
C386 C 0.3776 0.49832 0.95039 0.0
C387 C 0.42452 0.5 0.94605 0.0
C388 C 0.34719 0.4683 0.96466 0.0
C389 C 0.35034 0.39794 0.00488 0.0
H390 H 0.1438 0.14838 0.01972 0.0
H391 H 0.19865 0.22137 0.0009 0.0
H392 H 0.33748 0.35406 0.02863 0.0
H393 H 0.47811 0.47453 0.95391 0.0
H394 H 0.42555 0.42271 0.9786 0.0
H395 H 0.25859 0.37107 0.9718 0.0
C396 C 0.20124 0.22773 0.01552 0.0
C397 C 0.31951 0.35795 0.01645 0.0
C398 C 0.17022 0.18576 0.02632 0.0
C399 C 0.4419 0.4737 0.95684 0.0
C400 C 0.41196 0.44429 0.97112 0.0
C401 C 0.27595 0.36853 0.98437 0.0
C402 C 0.23508 0.27727 0.02348 0.0
C403 C 0.26686 0.32208 0.01191 0.0
C404 C 0.36366 0.44017 0.97493 0.0
C405 C 0.3292 0.40297 0.98852 0.0
H406 H 0.20968 0.24803 0.06795 0.0
H407 H 0.26379 0.32124 0.04908 0.0
H408 H 0.20442 0.30207 0.99222 0.0
H409 H 0.36328 0.5182 0.94228 0.0
H410 H 0.31029 0.46615 0.9674 0.0
C411 C 0.97735 0.16626 0.35212 0.0
C412 C 0.02586 0.18103 0.36044 0.0
C413 C 0.97202 0.1998 0.34085 0.0
C414 C 0.03268 0.33718 0.32956 0.0
H415 H 0.95294 0.28025 0.28444 0.0
C416 C 0.04237 0.46528 0.27185 0.0
C417 C 0.99624 0.4521 0.26208 0.0
C418 C 0.04273 0.43246 0.2847 0.0
C419 C 0.97458 0.29658 0.29712 0.0
H420 H 0.10681 0.24292 0.3636 0.0
H421 H 0.09761 0.30171 0.34366 0.0
H422 H 0.96168 0.22299 0.30505 0.0
H423 H 0.91398 0.39422 0.25836 0.0
H424 H 0.91459 0.33638 0.28102 0.0
H425 H 0.04608 0.41088 0.32151 0.0
C426 C 0.06358 0.26417 0.34606 0.0
C427 C 0.97975 0.26384 0.30891 0.0
C428 C 0.06894 0.23046 0.35739 0.0
C429 C 0.95013 0.4054 0.26564 0.0
C430 C 0.95056 0.37225 0.27854 0.0
C431 C 0.02751 0.36991 0.31777 0.0
C432 C 0.01506 0.24898 0.33759 0.0
C433 C 0.00917 0.28384 0.3252 0.0
C434 C 0.99699 0.38549 0.28816 0.0
C435 C -0.00116 0.35005 0.30133 0.0
H436 H 0.94319 0.12859 0.35426 0.0
H437 H 0.93395 0.18727 0.3348 0.0
H438 H 0.0548 0.35359 0.34215 0.0
H439 H 0.07868 0.50097 0.2695 0.0
H440 H 0.07931 0.44342 0.29164 0.0
loop_
_geom_bond_atom_site_label_1
_geom_bond_atom_site_label_2
_geom_bond_distance
_geom_bond_site_symmetry_2
_ccdc_geom_bond_type
C0 O1 1.160 . S
C0 O7 1.185 1_565 S
O1 C0 1.160 . S
O2 Zn3 1.899 . S
O2 C10 1.284 . S
Zn3 O2 1.899 . S
Zn3 O4 2.026 1_445 S
Zn3 O7 2.086 . S
Zn3 O12 1.977 . S
O4 Zn3 2.026 1_665 S
O4 C8 1.272 1_565 S
C5 O6 1.203 . S
C5 O12 1.267 . S
O6 C5 1.203 . S
O7 C0 1.185 1_545 S
O7 Zn3 2.086 . S
C8 O4 1.272 1_545 S
C8 O9 1.211 . S
O9 C8 1.211 . S
C10 O2 1.284 . S
C10 O11 1.273 1_455 S
O11 C10 1.273 1_655 S
O12 Zn3 1.977 . S
O12 C5 1.267 . S
C13 O14 1.160 . S
C13 O20 1.185 . S
O14 C13 1.160 . S
O15 Zn16 1.899 . S
O15 C23 1.284 1_545 S
Zn16 O15 1.899 . S
Zn16 O17 2.034 . S
Zn16 O20 2.086 . S
Zn16 O25 1.977 . S
O17 Zn16 2.034 . S
O17 C21 1.277 1_455 S
C18 O19 1.203 . S
C18 O25 1.267 . S
O19 C18 1.203 . S
O20 C13 1.185 . S
O20 Zn16 2.086 . S
C21 O17 1.277 1_655 S
C21 O22 1.211 1_655 S
O22 C21 1.211 1_455 S
C23 O15 1.284 1_565 S
C23 O24 1.273 1_455 S
O24 C23 1.273 1_655 S
O25 Zn16 1.977 . S
O25 C18 1.267 . S
C26 O27 1.160 . S
C26 O33 1.185 1_545 S
O27 C26 1.160 . S
O28 Zn29 1.899 1_655 S
O28 C36 1.284 . S
Zn29 O28 1.899 1_455 S
Zn29 O30 2.032 . S
Zn29 O33 2.086 1_545 S
Zn29 O38 1.977 1_445 S
O30 Zn29 2.032 . S
O30 C34 1.278 . S
C31 O32 1.203 . S
C31 O38 1.267 . S
O32 C31 1.203 . S
O33 C26 1.185 1_565 S
O33 Zn29 2.086 1_565 S
C34 O30 1.278 . S
C34 O35 1.211 . S
O35 C34 1.211 . S
C36 O28 1.284 . S
C36 O37 1.273 . S
O37 C36 1.273 . S
O38 Zn29 1.977 1_665 S
O38 C31 1.267 . S
C39 O41 1.247 . S
C39 O43 1.258 1_455 S
C40 O47 1.247 1_455 S
C40 O48 1.258 . S
O41 C39 1.247 . S
O41 Zn42 2.028 . S
Zn42 O41 2.028 . S
Zn42 O46 2.035 . S
Zn42 O48 2.035 . S
Zn42 O49 2.028 . S
O43 C39 1.258 1_655 S
O43 Zn44 2.035 . S
Zn44 O43 2.035 . S
Zn44 O45 2.028 . S
Zn44 O47 2.028 . S
Zn44 O50 2.035 . S
O45 Zn44 2.028 . S
O45 C51 1.247 1_655 S
O46 Zn42 2.035 . S
O46 C51 1.258 . S
O47 C40 1.247 1_655 S
O47 Zn44 2.028 . S
O48 C40 1.258 . S
O48 Zn42 2.035 . S
O49 Zn42 2.028 . S
O49 C52 1.247 . S
O50 Zn44 2.035 . S
O50 C52 1.258 1_655 S
C51 O45 1.247 1_455 S
C51 O46 1.258 . S
C52 O49 1.247 . S
C52 O50 1.258 1_455 S
C53 O55 1.245 . S
C53 O57 1.258 . S
C54 O61 1.247 . S
C54 O62 1.258 . S
O55 C53 1.245 . S
O55 Zn56 2.027 1_545 S
Zn56 O55 2.027 1_565 S
Zn56 O60 2.036 1_565 S
Zn56 O62 2.035 1_565 S
Zn56 O63 2.028 1_565 S
O57 C53 1.258 . S
O57 Zn58 2.035 . S
Zn58 O57 2.035 . S
Zn58 O59 2.028 . S
Zn58 O61 2.028 . S
Zn58 O64 2.035 . S
O59 Zn58 2.028 . S
O59 C65 1.247 . S
O60 Zn56 2.036 1_545 S
O60 C65 1.257 . S
O61 C54 1.247 . S
O61 Zn58 2.028 . S
O62 C54 1.258 . S
O62 Zn56 2.035 1_545 S
O63 Zn56 2.028 1_545 S
O63 C66 1.247 . S
O64 Zn58 2.035 . S
O64 C66 1.258 . S
C65 O59 1.247 . S
C65 O60 1.257 . S
C66 O63 1.247 . S
C66 O64 1.258 . S
C67 O69 1.247 . S
C67 O71 1.258 . S
C68 O75 1.247 . S
C68 O76 1.258 . S
O69 C67 1.247 . S
O69 Zn70 2.028 . S
Zn70 O69 2.028 . S
Zn70 O74 2.035 . S
Zn70 O76 2.035 . S
Zn70 O77 2.028 . S
O71 C67 1.258 . S
O71 Zn72 2.035 . S
Zn72 O71 2.035 . S
Zn72 O73 2.028 . S
Zn72 O75 2.028 . S
Zn72 O78 2.035 . S
O73 Zn72 2.028 . S
O73 C79 1.247 . S
O74 Zn70 2.035 . S
O74 C79 1.258 . S
O75 C68 1.247 . S
O75 Zn72 2.028 . S
O76 C68 1.258 . S
O76 Zn70 2.035 . S
O77 Zn70 2.028 . S
O77 C80 1.247 . S
O78 Zn72 2.035 . S
O78 C80 1.258 . S
C79 O73 1.247 . S
C79 O74 1.258 . S
C80 O77 1.247 . S
C80 O78 1.258 . S
C81 C82 1.349 . S
C81 C83 1.327 . S
C81 H106 0.950 . S
C82 C81 1.349 . S
C82 C98 1.349 . S
C83 C81 1.327 . S
C83 C102 1.429 . S
C83 H107 0.950 . S
C84 C101 1.574 . S
C84 C103 1.368 . S
C84 H108 0.949 . S
H85 C89 0.949 . S
C86 C87 1.349 . S
C86 C88 1.327 . S
C86 H109 0.950 . S
C87 C86 1.349 . S
C87 C99 1.349 . S
C88 C86 1.327 . S
C88 C104 1.429 . S
C88 H110 0.950 . S
C89 H85 0.949 . S
C89 C97 1.574 . S
C89 C105 1.368 . S
H90 C98 0.950 . S
H91 C96 0.950 . S
H92 C97 0.949 . S
H93 C99 0.950 . S
H94 C100 0.950 . S
H95 C101 0.949 . S
C96 H91 0.950 . S
C96 C98 1.327 . S
C96 C102 1.429 . S
C97 C89 1.574 . S
C97 H92 0.949 . S
C97 C103 1.368 . S
C98 C82 1.349 . S
C98 H90 0.950 . S
C98 C96 1.327 . S
C99 C87 1.349 . S
C99 H93 0.950 . S
C99 C100 1.327 . S
C100 H94 0.950 . S
C100 C99 1.327 . S
C100 C104 1.429 . S
C101 C84 1.574 . S
C101 H95 0.949 . S
C101 C105 1.368 . S
C102 C83 1.429 . S
C102 C96 1.429 . S
C102 C103 1.523 . S
C103 C84 1.368 . S
C103 C97 1.368 . S
C103 C102 1.523 . S
C104 C88 1.429 . S
C104 C100 1.429 . S
C104 C105 1.523 . S
C105 C89 1.368 . S
C105 C101 1.368 . S
C105 C104 1.523 . S
H106 C81 0.950 . S
H107 C83 0.950 . S
H108 C84 0.949 . S
H109 C86 0.950 . S
H110 C88 0.950 . S
C111 C112 1.349 . S
C111 C113 1.327 . S
C111 H136 0.950 1_545 S
C112 C111 1.349 . S
C112 C128 1.349 . S
C113 C111 1.327 . S
C113 C132 1.429 . S
C113 H137 0.950 1_545 S
C114 C131 1.574 . S
C114 C133 1.368 . S
C114 H138 0.949 . S
H115 C119 0.949 1_565 S
C116 C117 1.349 . S
C116 C118 1.327 . S
C116 H139 0.950 . S
C117 C116 1.349 . S
C117 C129 1.349 . S
C118 C116 1.327 . S
C118 C134 1.429 . S
C118 H140 0.950 . S
C119 H115 0.949 1_545 S
C119 C127 1.574 . S
C119 C135 1.368 . S
H120 C128 0.950 . S
H121 C126 0.950 . S
H122 C127 0.949 1_565 S
H123 C129 0.950 1_565 S
H124 C130 0.950 1_565 S
H125 C131 0.949 . S
C126 H121 0.950 . S
C126 C128 1.327 . S
C126 C132 1.429 . S
C127 C119 1.574 . S
C127 H122 0.949 1_545 S
C127 C133 1.368 . S
C128 C112 1.349 . S
C128 H120 0.950 . S
C128 C126 1.327 . S
C129 C117 1.349 . S
C129 H123 0.950 1_545 S
C129 C130 1.327 . S
C130 H124 0.950 1_545 S
C130 C129 1.327 . S
C130 C134 1.429 . S
C131 C114 1.574 . S
C131 H125 0.949 . S
C131 C135 1.368 . S
C132 C113 1.429 . S
C132 C126 1.429 . S
C132 C133 1.523 . S
C133 C114 1.368 . S
C133 C127 1.368 . S
C133 C132 1.523 . S
C134 C118 1.429 . S
C134 C130 1.429 . S
C134 C135 1.523 . S
C135 C119 1.368 . S
C135 C131 1.368 . S
C135 C134 1.523 . S
H136 C111 0.950 1_565 S
H137 C113 0.950 1_565 S
H138 C114 0.949 . S
H139 C116 0.950 . S
H140 C118 0.950 . S
C141 C142 1.349 . S
C141 C143 1.327 . S
C141 H166 0.950 . S
C142 C141 1.349 . S
C142 C158 1.349 . S
C143 C141 1.327 . S
C143 C162 1.429 . S
C143 H167 0.950 . S
C144 C161 1.574 . S
C144 C163 1.368 . S
C144 H168 0.949 . S
H145 C149 0.949 . S
C146 C147 1.349 . S
C146 C148 1.327 . S
C146 H169 0.950 . S
C147 C146 1.349 . S
C147 C159 1.349 . S
C148 C146 1.327 . S
C148 C164 1.429 . S
C148 H170 0.950 . S
C149 H145 0.949 . S
C149 C157 1.574 . S
C149 C165 1.368 . S
H150 C158 0.950 . S
H151 C156 0.950 . S
H152 C157 0.949 . S
H153 C159 0.950 . S
H154 C160 0.950 . S
H155 C161 0.949 . S
C156 H151 0.950 . S
C156 C158 1.327 . S
C156 C162 1.429 . S
C157 C149 1.574 . S
C157 H152 0.949 . S
C157 C163 1.368 . S
C158 C142 1.349 . S
C158 H150 0.950 . S
C158 C156 1.327 . S
C159 C147 1.349 . S
C159 H153 0.950 . S
C159 C160 1.327 . S
C160 H154 0.950 . S
C160 C159 1.327 . S
C160 C164 1.429 . S
C161 C144 1.574 . S
C161 H155 0.949 . S
C161 C165 1.368 . S
C162 C143 1.429 . S
C162 C156 1.429 . S
C162 C163 1.523 . S
C163 C144 1.368 . S
C163 C157 1.368 . S
C163 C162 1.523 . S
C164 C148 1.429 . S
C164 C160 1.429 . S
C164 C165 1.523 . S
C165 C149 1.368 . S
C165 C161 1.368 . S
C165 C164 1.523 . S
H166 C141 0.950 . S
H167 C143 0.950 . S
H168 C144 0.949 . S
H169 C146 0.950 . S
H170 C148 0.950 . S
C171 C172 1.349 . S
C171 C173 1.327 . S
C171 H196 0.950 . S
C172 C171 1.349 . S
C172 C188 1.349 . S
C173 C171 1.327 . S
C173 C192 1.429 . S
C173 H197 0.950 . S
C174 C191 1.574 . S
C174 C193 1.368 . S
C174 H198 0.949 . S
H175 C179 0.949 . S
C176 C177 1.349 . S
C176 C178 1.327 . S
C176 H199 0.950 . S
C177 C176 1.349 . S
C177 C189 1.349 . S
C178 C176 1.327 . S
C178 C194 1.429 . S
C178 H200 0.950 . S
C179 H175 0.949 . S
C179 C187 1.574 . S
C179 C195 1.368 . S
H180 C188 0.950 . S
H181 C186 0.950 . S
H182 C187 0.949 . S
H183 C189 0.950 . S
H184 C190 0.950 . S
H185 C191 0.949 . S
C186 H181 0.950 . S
C186 C188 1.327 . S
C186 C192 1.429 . S
C187 C179 1.574 . S
C187 H182 0.949 . S
C187 C193 1.368 . S
C188 C172 1.349 . S
C188 H180 0.950 . S
C188 C186 1.327 . S
C189 C177 1.349 . S
C189 H183 0.950 . S
C189 C190 1.327 . S
C190 H184 0.950 . S
C190 C189 1.327 . S
C190 C194 1.429 . S
C191 C174 1.574 . S
C191 H185 0.949 . S
C191 C195 1.368 . S
C192 C173 1.429 . S
C192 C186 1.429 . S
C192 C193 1.523 . S
C193 C174 1.368 . S
C193 C187 1.368 . S
C193 C192 1.523 . S
C194 C178 1.429 . S
C194 C190 1.429 . S
C194 C195 1.523 . S
C195 C179 1.368 . S
C195 C191 1.368 . S
C195 C194 1.523 . S
H196 C171 0.950 . S
H197 C173 0.950 . S
H198 C174 0.949 . S
H199 C176 0.950 . S
H200 C178 0.950 . S
C201 C202 1.349 . S
C201 C203 1.327 . S
C201 H226 0.950 . S
C202 C201 1.349 . S
C202 C218 1.349 . S
C203 C201 1.327 . S
C203 C222 1.429 . S
C203 H227 0.950 . S
C204 C221 1.574 . S
C204 C223 1.368 . S
C204 H228 0.949 . S
H205 C209 0.949 . S
C206 C207 1.349 . S
C206 C208 1.327 . S
C206 H229 0.950 1_545 S
C207 C206 1.349 . S
C207 C219 1.349 . S
C208 C206 1.327 . S
C208 C224 1.429 . S
C208 H230 0.950 1_545 S
C209 H205 0.949 . S
C209 C217 1.574 . S
C209 C225 1.368 . S
H210 C218 0.950 . S
H211 C216 0.950 . S
H212 C217 0.949 . S
H213 C219 0.950 . S
H214 C220 0.950 . S
H215 C221 0.969 . S
C216 H211 0.950 . S
C216 C218 1.327 . S
C216 C222 1.429 . S
C217 C209 1.574 . S
C217 H212 0.949 . S
C217 C223 1.368 . S
C218 C202 1.349 . S
C218 H210 0.950 . S
C218 C216 1.327 . S
C219 C207 1.349 . S
C219 H213 0.950 . S
C219 C220 1.327 . S
C220 H214 0.950 . S
C220 C219 1.327 . S
C220 C224 1.429 . S
C221 C204 1.574 . S
C221 H215 0.969 . S
C221 C225 1.368 . S
C222 C203 1.429 . S
C222 C216 1.429 . S
C222 C223 1.523 . S
C223 C204 1.368 . S
C223 C217 1.368 . S
C223 C222 1.523 . S
C224 C208 1.429 . S
C224 C220 1.429 . S
C224 C225 1.523 . S
C225 C209 1.368 . S
C225 C221 1.368 . S
C225 C224 1.523 . S
H226 C201 0.950 . S
H227 C203 0.950 . S
H228 C204 0.949 . S
H229 C206 0.950 1_565 S
H230 C208 0.950 1_565 S
C231 C232 1.349 . S
C231 C233 1.327 . S
C231 H256 0.950 . S
C232 C231 1.349 . S
C232 C248 1.349 . S
C233 C231 1.327 . S
C233 C252 1.429 . S
C233 H257 0.950 . S
C234 C251 1.574 . S
C234 C253 1.368 . S
C234 H258 0.949 . S
H235 C239 0.949 . S
C236 C237 1.349 . S
C236 C238 1.327 . S
C236 H259 0.950 . S
C237 C236 1.349 . S
C237 C249 1.349 . S
C238 C236 1.327 . S
C238 C254 1.429 . S
C238 H260 0.950 . S
C239 H235 0.949 . S
C239 C247 1.574 . S
C239 C255 1.368 . S
H240 C248 0.950 . S
H241 C246 0.950 . S
H242 C247 0.949 . S
H243 C249 0.950 . S
H244 C250 0.950 . S
H245 C251 0.949 . S
C246 H241 0.950 . S
C246 C248 1.327 . S
C246 C252 1.429 . S
C247 C239 1.574 . S
C247 H242 0.949 . S
C247 C253 1.368 . S
C248 C232 1.349 . S
C248 H240 0.950 . S
C248 C246 1.327 . S
C249 C237 1.349 . S
C249 H243 0.950 . S
C249 C250 1.327 . S
C250 H244 0.950 . S
C250 C249 1.327 . S
C250 C254 1.429 . S
C251 C234 1.574 . S
C251 H245 0.949 . S
C251 C255 1.368 . S
C252 C233 1.429 . S
C252 C246 1.429 . S
C252 C253 1.523 . S
C253 C234 1.368 . S
C253 C247 1.368 . S
C253 C252 1.523 . S
C254 C238 1.429 . S
C254 C250 1.429 . S
C254 C255 1.523 . S
C255 C239 1.368 . S
C255 C251 1.368 . S
C255 C254 1.523 . S
H256 C231 0.950 . S
H257 C233 0.950 . S
H258 C234 0.949 . S
H259 C236 0.950 . S
H260 C238 0.950 . S
C261 C262 1.349 . S
C261 C263 1.327 . S
C261 H286 0.950 1_545 S
C262 C261 1.349 . S
C262 C278 1.349 . S
C263 C261 1.327 . S
C263 C282 1.429 . S
C263 H287 0.950 1_545 S
C264 C281 1.574 . S
C264 C283 1.368 . S
C264 H288 0.949 . S
H265 C269 0.949 1_565 S
C266 C267 1.349 . S
C266 C268 1.327 . S
C266 H289 0.950 . S
C267 C266 1.349 . S
C267 C279 1.349 . S
C268 C266 1.327 . S
C268 C284 1.429 . S
C268 H290 0.950 . S
C269 H265 0.949 1_545 S
C269 C277 1.574 . S
C269 C285 1.368 . S
H270 C278 0.950 . S
H271 C276 0.950 . S
H272 C277 0.949 1_565 S
H273 C279 0.950 1_565 S
H274 C280 0.950 1_565 S
H275 C281 0.949 . S
C276 H271 0.950 . S
C276 C278 1.327 . S
C276 C282 1.429 . S
C277 C269 1.574 . S
C277 H272 0.949 1_545 S
C277 C283 1.368 . S
C278 C262 1.349 . S
C278 H270 0.950 . S
C278 C276 1.327 . S
C279 C267 1.349 . S
C279 H273 0.950 1_545 S
C279 C280 1.327 . S
C280 H274 0.950 1_545 S
C280 C279 1.327 . S
C280 C284 1.429 . S
C281 C264 1.574 . S
C281 H275 0.949 . S
C281 C285 1.368 . S
C282 C263 1.429 . S
C282 C276 1.429 . S
C282 C283 1.523 . S
C283 C264 1.368 . S
C283 C277 1.368 . S
C283 C282 1.523 . S
C284 C268 1.429 . S
C284 C280 1.429 . S
C284 C285 1.523 . S
C285 C269 1.368 . S
C285 C281 1.368 . S
C285 C284 1.523 . S
H286 C261 0.950 1_565 S
H287 C263 0.950 1_565 S
H288 C264 0.949 . S
H289 C266 0.950 . S
H290 C268 0.950 . S
C291 C292 1.349 . S
C291 C293 1.327 . S
C291 H316 0.950 1_565 S
C292 C291 1.349 . S
C292 C308 1.349 . S
C293 C291 1.327 . S
C293 C312 1.429 . S
C293 H317 0.950 1_554 S
C294 C311 1.574 1_554 S
C294 C313 1.368 1_554 S
C294 H318 0.949 . S
H295 C299 0.949 . S
C296 C297 1.349 . S
C296 C298 1.327 . S
C296 H319 0.950 . S
C297 C296 1.349 . S
C297 C309 1.349 . S
C298 C296 1.327 . S
C298 C314 1.429 . S
C298 H320 0.950 . S
C299 H295 0.949 . S
C299 C307 1.574 . S
C299 C315 1.368 . S
H300 C308 0.950 . S
H301 C306 0.950 . S
H302 C307 0.949 . S
H303 C309 0.950 . S
H304 C310 0.950 . S
H305 C311 0.949 . S
C306 H301 0.950 . S
C306 C308 1.327 . S
C306 C312 1.429 . S
C307 C299 1.574 . S
C307 H302 0.949 . S
C307 C313 1.368 . S
C308 C292 1.349 . S
C308 H300 0.950 . S
C308 C306 1.327 . S
C309 C297 1.349 . S
C309 H303 0.950 . S
C309 C310 1.327 . S
C310 H304 0.950 . S
C310 C309 1.327 . S
C310 C314 1.429 . S
C311 C294 1.574 1_556 S
C311 H305 0.949 . S
C311 C315 1.368 . S
C312 C293 1.429 . S
C312 C306 1.429 . S
C312 C313 1.523 1_554 S
C313 C294 1.368 1_556 S
C313 C307 1.368 . S
C313 C312 1.523 1_556 S
C314 C298 1.429 . S
C314 C310 1.429 . S
C314 C315 1.523 . S
C315 C299 1.368 . S
C315 C311 1.368 . S
C315 C314 1.523 . S
H316 C291 0.950 1_545 S
H317 C293 0.950 1_556 S
H318 C294 0.949 . S
H319 C296 0.950 . S
H320 C298 0.950 . S
C321 C322 1.349 1_655 S
C321 C323 1.327 . S
C321 H346 0.950 . S
C322 C321 1.349 1_455 S
C322 C338 1.349 . S
C323 C321 1.327 . S
C323 C342 1.429 1_655 S
C323 H347 0.950 . S
C324 C341 1.574 . S
C324 C343 1.368 . S
C324 H348 0.949 . S
H325 C329 0.949 . S
C326 C327 1.349 . S
C326 C328 1.327 . S
C326 H349 0.950 . S
C327 C326 1.349 . S
C327 C339 1.349 1_455 S
C328 C326 1.327 . S
C328 C344 1.429 . S
C328 H350 0.950 . S
C329 H325 0.949 . S
C329 C337 1.574 . S
C329 C345 1.368 1_655 S
H330 C338 0.950 . S
H331 C336 0.950 . S
H332 C337 0.949 . S
H333 C339 0.950 . S
H334 C340 0.950 . S
H335 C341 0.949 . S
C336 H331 0.950 . S
C336 C338 1.327 . S
C336 C342 1.429 . S
C337 C329 1.574 . S
C337 H332 0.949 . S
C337 C343 1.368 1_655 S
C338 C322 1.349 . S
C338 H330 0.950 . S
C338 C336 1.327 . S
C339 C327 1.349 1_655 S
C339 H333 0.950 . S
C339 C340 1.327 . S
C340 H334 0.950 . S
C340 C339 1.327 . S
C340 C344 1.429 1_655 S
C341 C324 1.574 . S
C341 H335 0.949 . S
C341 C345 1.368 . S
C342 C323 1.429 1_455 S
C342 C336 1.429 . S
C342 C343 1.523 . S
C343 C324 1.368 . S
C343 C337 1.368 1_455 S
C343 C342 1.523 . S
C344 C328 1.429 . S
C344 C340 1.429 1_455 S
C344 C345 1.523 . S
C345 C329 1.368 1_455 S
C345 C341 1.368 . S
C345 C344 1.523 . S
H346 C321 0.950 . S
H347 C323 0.950 . S
H348 C324 0.949 . S
H349 C326 0.950 . S
H350 C328 0.950 . S
C351 C352 1.349 . S
C351 C353 1.327 . S
C351 H376 0.950 . S
C352 C351 1.349 . S
C352 C368 1.349 1_545 S
C353 C351 1.327 . S
C353 C372 1.429 . S
C353 H377 0.950 . S
C354 C371 1.574 . S
C354 C373 1.368 1_565 S
C354 H378 0.949 . S
H355 C359 0.949 . S
C356 C357 1.349 . S
C356 C358 1.327 . S
C356 H379 0.950 1_545 S
C357 C356 1.349 . S
C357 C369 1.349 . S
C358 C356 1.327 . S
C358 C374 1.429 . S
C358 H380 0.950 1_545 S
C359 H355 0.949 . S
C359 C367 1.574 . S
C359 C375 1.368 . S
H360 C368 0.950 . S
H361 C366 0.950 . S
H362 C367 0.949 . S
H363 C369 0.950 . S
H364 C370 0.950 . S
H365 C371 0.949 . S
C366 H361 0.950 . S
C366 C368 1.327 . S
C366 C372 1.429 1_565 S
C367 C359 1.574 . S
C367 H362 0.949 . S
C367 C373 1.368 . S
C368 C352 1.349 1_565 S
C368 H360 0.950 . S
C368 C366 1.327 . S
C369 C357 1.349 . S
C369 H363 0.950 . S
C369 C370 1.327 . S
C370 H364 0.950 . S
C370 C369 1.327 . S
C370 C374 1.429 . S
C371 C354 1.574 . S
C371 H365 0.949 . S
C371 C375 1.368 1_565 S
C372 C353 1.429 . S
C372 C366 1.429 1_545 S
C372 C373 1.523 . S
C373 C354 1.368 1_545 S
C373 C367 1.368 . S
C373 C372 1.523 . S
C374 C358 1.429 . S
C374 C370 1.429 . S
C374 C375 1.523 . S
C375 C359 1.368 . S
C375 C371 1.368 1_545 S
C375 C374 1.523 . S
H376 C351 0.950 . S
H377 C353 0.950 . S
H378 C354 0.949 . S
H379 C356 0.950 1_565 S
H380 C358 0.950 1_565 S
C381 C382 1.349 . S
C381 C383 1.327 . S
C381 H406 0.950 . S
C382 C381 1.349 . S
C382 C398 1.349 . S
C383 C381 1.327 . S
C383 C402 1.429 . S
C383 H407 0.950 . S
C384 C401 1.574 . S
C384 C403 1.368 . S
C384 H408 0.949 . S
H385 C389 0.949 . S
C386 C387 1.349 . S
C386 C388 1.327 . S
C386 H409 0.950 . S
C387 C386 1.349 . S
C387 C399 1.349 . S
C388 C386 1.327 . S
C388 C404 1.429 . S
C388 H410 0.950 . S
C389 H385 0.949 . S
C389 C397 1.574 1_556 S
C389 C405 1.368 . S
H390 C398 0.950 . S
H391 C396 0.950 1_556 S
H392 C397 0.949 . S
H393 C399 0.950 . S
H394 C400 0.950 . S
H395 C401 0.949 . S
C396 H391 0.950 1_554 S
C396 C398 1.327 . S
C396 C402 1.429 . S
C397 C389 1.574 1_554 S
C397 H392 0.949 . S
C397 C403 1.368 1_554 S
C398 C382 1.349 . S
C398 H390 0.950 . S
C398 C396 1.327 . S
C399 C387 1.349 . S
C399 H393 0.950 . S
C399 C400 1.327 . S
C400 H394 0.950 . S
C400 C399 1.327 . S
C400 C404 1.429 . S
C401 C384 1.574 . S
C401 H395 0.949 . S
C401 C405 1.368 . S
C402 C383 1.429 . S
C402 C396 1.429 . S
C402 C403 1.523 1_554 S
C403 C384 1.368 . S
C403 C397 1.368 1_556 S
C403 C402 1.523 1_556 S
C404 C388 1.429 . S
C404 C400 1.429 . S
C404 C405 1.523 . S
C405 C389 1.368 . S
C405 C401 1.368 . S
C405 C404 1.523 . S
H406 C381 0.950 . S
H407 C383 0.950 . S
H408 C384 0.949 . S
H409 C386 0.950 . S
H410 C388 0.950 . S
C411 C412 1.349 . S
C411 C413 1.327 . S
C411 H436 0.950 1_455 S
C412 C411 1.349 . S
C412 C428 1.349 . S
C413 C411 1.327 . S
C413 C432 1.429 . S
C413 H437 0.950 1_455 S
C414 C431 1.574 . S
C414 C433 1.368 . S
C414 H438 0.949 . S
H415 C419 0.949 . S
C416 C417 1.349 . S
C416 C418 1.327 . S
C416 H439 0.950 . S
C417 C416 1.349 . S
C417 C429 1.349 1_455 S
C418 C416 1.327 . S
C418 C434 1.429 . S
C418 H440 0.950 . S
C419 H415 0.949 . S
C419 C427 1.574 1_655 S
C419 C435 1.368 1_655 S
H420 C428 0.950 . S
H421 C426 0.950 . S
H422 C427 0.949 1_655 S
H423 C429 0.950 . S
H424 C430 0.950 . S
H425 C431 0.949 . S
C426 H421 0.950 . S
C426 C428 1.327 . S
C426 C432 1.429 . S
C427 C419 1.574 1_455 S
C427 H422 0.949 1_455 S
C427 C433 1.368 . S
C428 C412 1.349 . S
C428 H420 0.950 . S
C428 C426 1.327 . S
C429 C417 1.349 1_655 S
C429 H423 0.950 . S
C429 C430 1.327 . S
C430 H424 0.950 . S
C430 C429 1.327 . S
C430 C434 1.429 1_655 S
C431 C414 1.574 . S
C431 H425 0.949 . S
C431 C435 1.368 . S
C432 C413 1.429 . S
C432 C426 1.429 . S
C432 C433 1.523 . S
C433 C414 1.368 . S
C433 C427 1.368 . S
C433 C432 1.523 . S
C434 C418 1.429 . S
C434 C430 1.429 1_455 S
C434 C435 1.523 . S
C435 C419 1.368 1_455 S
C435 C431 1.368 . S
C435 C434 1.523 . S
H436 C411 0.950 1_655 S
H437 C413 0.950 1_655 S
H438 C414 0.949 . S
H439 C416 0.950 . S
H440 C418 0.950 . S
C87 C40 1.373 . S
C82 C10 1.373 . S
C112 C21 1.396 . S
C117 C66 1.432 . S
C142 C31 1.338 . S
C147 C68 1.395 . S
C172 C0 1.329 . S
C177 C52 1.376 . S
C207 C54 1.396 . S
C202 C18 1.335 . S
C232 C34 1.350 . S
C237 C80 1.384 . S
C267 C53 1.366 . S
C262 C36 1.367 . S
C292 C8 1.348 1_565 S
C297 C79 1.384 . S
C327 C39 1.377 . S
C322 C23 1.377 . S
C357 C65 1.321 . S
C352 C26 1.274 . S
C387 C67 1.396 . S
C382 C5 1.338 . S
C412 C13 1.332 . S
C417 C51 1.382 . S
