# Generated by pormake.
# Topology ocu, (6,8)-cn, num edge types: 1
# Building blocks:
#     Node 0, Type 0, BuildingBlock: MIFKUJ_clean_sbu_0, # of connection points: 6
#     Node 1, Type 0, BuildingBlock: MIFKUJ_clean_sbu_0, # of connection points: 6
#     Node 2, Type 0, BuildingBlock: MIFKUJ_clean_sbu_0, # of connection points: 6
#     Node 3, Type 0, BuildingBlock: MIFKUJ_clean_sbu_0, # of connection points: 6
#     Node 4, Type 0, BuildingBlock: MIFKUJ_clean_sbu_0, # of connection points: 6
#     Node 5, Type 0, BuildingBlock: MIFKUJ_clean_sbu_0, # of connection points: 6
#     Node 6, Type 0, BuildingBlock: MIFKUJ_clean_sbu_0, # of connection points: 6
#     Node 7, Type 0, BuildingBlock: MIFKUJ_clean_sbu_0, # of connection points: 6
#     Node 8, Type 1, BuildingBlock: VETTIZ_charged_sbu_0, # of connection points: 8
#     Node 9, Type 1, BuildingBlock: VETTIZ_charged_sbu_0, # of connection points: 8
#     Node 10, Type 1, BuildingBlock: VETTIZ_charged_sbu_0, # of connection points: 8
#     Node 11, Type 1, BuildingBlock: VETTIZ_charged_sbu_0, # of connection points: 8
#     Node 12, Type 1, BuildingBlock: VETTIZ_charged_sbu_0, # of connection points: 8
#     Node 13, Type 1, BuildingBlock: VETTIZ_charged_sbu_0, # of connection points: 8
#     Edge 14, Type (0, 1), BuildingBlock: XIVTED_clean_linker_0, # of connection points: 2
#     Edge 15, Type (0, 1), BuildingBlock: XIVTED_clean_linker_0, # of connection points: 2
#     Edge 16, Type (0, 1), BuildingBlock: XIVTED_clean_linker_0, # of connection points: 2
#     Edge 17, Type (0, 1), BuildingBlock: XIVTED_clean_linker_0, # of connection points: 2
#     Edge 18, Type (0, 1), BuildingBlock: XIVTED_clean_linker_0, # of connection points: 2
#     Edge 19, Type (0, 1), BuildingBlock: XIVTED_clean_linker_0, # of connection points: 2
#     Edge 20, Type (0, 1), BuildingBlock: XIVTED_clean_linker_0, # of connection points: 2
#     Edge 21, Type (0, 1), BuildingBlock: XIVTED_clean_linker_0, # of connection points: 2
#     Edge 22, Type (0, 1), BuildingBlock: XIVTED_clean_linker_0, # of connection points: 2
#     Edge 23, Type (0, 1), BuildingBlock: XIVTED_clean_linker_0, # of connection points: 2
#     Edge 24, Type (0, 1), BuildingBlock: XIVTED_clean_linker_0, # of connection points: 2
#     Edge 25, Type (0, 1), BuildingBlock: XIVTED_clean_linker_0, # of connection points: 2
#     Edge 26, Type (0, 1), BuildingBlock: XIVTED_clean_linker_0, # of connection points: 2
#     Edge 27, Type (0, 1), BuildingBlock: XIVTED_clean_linker_0, # of connection points: 2
#     Edge 28, Type (0, 1), BuildingBlock: XIVTED_clean_linker_0, # of connection points: 2
#     Edge 29, Type (0, 1), BuildingBlock: XIVTED_clean_linker_0, # of connection points: 2
#     Edge 30, Type (0, 1), BuildingBlock: XIVTED_clean_linker_0, # of connection points: 2
#     Edge 31, Type (0, 1), BuildingBlock: XIVTED_clean_linker_0, # of connection points: 2
#     Edge 32, Type (0, 1), BuildingBlock: XIVTED_clean_linker_0, # of connection points: 2
#     Edge 33, Type (0, 1), BuildingBlock: XIVTED_clean_linker_0, # of connection points: 2
#     Edge 34, Type (0, 1), BuildingBlock: XIVTED_clean_linker_0, # of connection points: 2
#     Edge 35, Type (0, 1), BuildingBlock: XIVTED_clean_linker_0, # of connection points: 2
#     Edge 36, Type (0, 1), BuildingBlock: XIVTED_clean_linker_0, # of connection points: 2
#     Edge 37, Type (0, 1), BuildingBlock: XIVTED_clean_linker_0, # of connection points: 2
#     Edge 38, Type (0, 1), BuildingBlock: XIVTED_clean_linker_0, # of connection points: 2
#     Edge 39, Type (0, 1), BuildingBlock: XIVTED_clean_linker_0, # of connection points: 2
#     Edge 40, Type (0, 1), BuildingBlock: XIVTED_clean_linker_0, # of connection points: 2
#     Edge 41, Type (0, 1), BuildingBlock: XIVTED_clean_linker_0, # of connection points: 2
#     Edge 42, Type (0, 1), BuildingBlock: XIVTED_clean_linker_0, # of connection points: 2
#     Edge 43, Type (0, 1), BuildingBlock: XIVTED_clean_linker_0, # of connection points: 2
#     Edge 44, Type (0, 1), BuildingBlock: XIVTED_clean_linker_0, # of connection points: 2
#     Edge 45, Type (0, 1), BuildingBlock: XIVTED_clean_linker_0, # of connection points: 2
#     Edge 46, Type (0, 1), BuildingBlock: XIVTED_clean_linker_0, # of connection points: 2
#     Edge 47, Type (0, 1), BuildingBlock: XIVTED_clean_linker_0, # of connection points: 2
#     Edge 48, Type (0, 1), BuildingBlock: XIVTED_clean_linker_0, # of connection points: 2
#     Edge 49, Type (0, 1), BuildingBlock: XIVTED_clean_linker_0, # of connection points: 2
#     Edge 50, Type (0, 1), BuildingBlock: XIVTED_clean_linker_0, # of connection points: 2
#     Edge 51, Type (0, 1), BuildingBlock: XIVTED_clean_linker_0, # of connection points: 2
#     Edge 52, Type (0, 1), BuildingBlock: XIVTED_clean_linker_0, # of connection points: 2
#     Edge 53, Type (0, 1), BuildingBlock: XIVTED_clean_linker_0, # of connection points: 2
#     Edge 54, Type (0, 1), BuildingBlock: XIVTED_clean_linker_0, # of connection points: 2
#     Edge 55, Type (0, 1), BuildingBlock: XIVTED_clean_linker_0, # of connection points: 2
#     Edge 56, Type (0, 1), BuildingBlock: XIVTED_clean_linker_0, # of connection points: 2
#     Edge 57, Type (0, 1), BuildingBlock: XIVTED_clean_linker_0, # of connection points: 2
#     Edge 58, Type (0, 1), BuildingBlock: XIVTED_clean_linker_0, # of connection points: 2
#     Edge 59, Type (0, 1), BuildingBlock: XIVTED_clean_linker_0, # of connection points: 2
#     Edge 60, Type (0, 1), BuildingBlock: XIVTED_clean_linker_0, # of connection points: 2
#     Edge 61, Type (0, 1), BuildingBlock: XIVTED_clean_linker_0, # of connection points: 2
# Relax obj value: 0.053
# Max RMSD: 0.188
# Mean RMSD: 0.107
data_MOF--net-ocu--node1-MIFKUJ_clean_sbu_0--node2-VETTIZ_charged_sbu_0--edge1-XIVTED_clean_linker_0
_symmetry_space_group_name_H-M    P1
_symmetry_Int_Tables_number       1
_symmetry_cell_setting            triclinic
loop_
_symmetry_equiv_pos_as_xyz
'x, y, z'
_cell_length_a     38.458614
_cell_length_b     40.428276
_cell_length_c     38.014695
_cell_angle_alpha  92.547957
_cell_angle_beta   92.205884
_cell_angle_gamma 97.772413
loop_
_atom_site_label
_atom_site_type_symbol
_atom_site_fract_x
_atom_site_fract_y
_atom_site_fract_z
_atom_type_partial_charge
Zn0 Zn 0.2167 0.26476 0.24492 0.0
Zn1 Zn 0.29638 0.23443 0.26798 0.0
C2 C 0.18248 0.28323 0.30616 0.0
O3 O 0.16197 0.25626 0.29377 0.0
C4 C 0.3405 0.21563 0.21218 0.0
O5 O 0.35759 0.24516 0.22197 0.0
O6 O 0.17672 0.27599 0.21402 0.0
O7 O 0.26042 0.2828 0.21736 0.0
O8 O 0.30583 0.28315 0.25475 0.0
C9 C 0.17419 0.30702 0.21523 0.0
O10 O 0.1977 0.32769 0.23417 0.0
O11 O 0.21096 0.29213 0.2908 0.0
C12 C 0.32359 0.19649 0.31384 0.0
O13 O 0.30322 0.17623 0.29137 0.0
O14 O 0.32948 0.22741 0.30797 0.0
O15 O 0.25068 0.21305 0.29002 0.0
O16 O 0.20382 0.21571 0.25588 0.0
O17 O 0.31189 0.20561 0.22686 0.0
C18 C 0.29247 0.29306 0.22663 0.0
C19 C 0.2183 0.20377 0.28218 0.0
Zn20 Zn 0.73132 0.28293 0.23482 0.0
Zn21 Zn 0.75777 0.2169 0.27758 0.0
C22 C 0.67729 0.30359 0.19262 0.0
O23 O 0.6809 0.27523 0.17583 0.0
C24 C 0.77764 0.17427 0.32862 0.0
O25 O 0.75881 0.19304 0.34697 0.0
O26 O 0.76785 0.29391 0.19866 0.0
O27 O 0.75243 0.30001 0.2825 0.0
O28 O 0.78151 0.25995 0.30141 0.0
C29 C 0.80009 0.30458 0.20595 0.0
O30 O 0.81251 0.30446 0.23857 0.0
O31 O 0.69552 0.31224 0.22096 0.0
C32 C 0.6947 0.17597 0.28622 0.0
O33 O 0.71044 0.15766 0.2641 0.0
O34 O 0.70931 0.20533 0.29553 0.0
O35 O 0.75404 0.2112 0.22436 0.0
O36 O 0.7069 0.23588 0.22665 0.0
O37 O 0.78296 0.18047 0.29658 0.0
C38 C 0.77463 0.28984 0.30365 0.0
C39 C 0.72307 0.21356 0.21292 0.0
Zn40 Zn 0.78099 0.70863 0.26071 0.0
Zn41 Zn 0.71726 0.78551 0.25266 0.0
C42 C 0.80095 0.68296 0.33016 0.0
O43 O 0.80134 0.71341 0.34391 0.0
C44 C 0.69849 0.80772 0.18187 0.0
O45 O 0.69469 0.77604 0.17122 0.0
O46 O 0.80937 0.6953 0.21938 0.0
O47 O 0.72982 0.69735 0.24501 0.0
O48 O 0.69681 0.73804 0.23883 0.0
C49 C 0.81027 0.66398 0.21501 0.0
O50 O 0.79206 0.64346 0.23544 0.0
O51 O 0.79181 0.67664 0.29782 0.0
C52 C 0.69255 0.83181 0.29937 0.0
O53 O 0.72205 0.8491 0.2905 0.0
O54 O 0.68492 0.80165 0.28771 0.0
O55 O 0.76609 0.79534 0.27573 0.0
O56 O 0.79992 0.75516 0.28083 0.0
O57 O 0.71002 0.81635 0.21319 0.0
C58 C 0.70069 0.70729 0.23686 0.0
C59 C 0.79468 0.78539 0.28588 0.0
Zn60 Zn 0.22455 0.77964 0.2809 0.0
Zn61 Zn 0.28999 0.72613 0.22807 0.0
C62 C 0.17884 0.75442 0.33146 0.0
O63 O 0.15944 0.77349 0.31456 0.0
C64 C 0.35185 0.76345 0.20577 0.0
O65 O 0.36607 0.74805 0.23119 0.0
O66 O 0.21263 0.82627 0.29129 0.0
O67 O 0.27419 0.7749 0.26974 0.0
O68 O 0.30757 0.73659 0.27859 0.0
C69 C 0.21535 0.83741 0.32325 0.0
O70 O 0.22971 0.82029 0.34706 0.0
O71 O 0.20977 0.7525 0.32172 0.0
C72 C 0.30237 0.6821 0.17348 0.0
O73 O 0.29292 0.70764 0.15717 0.0
O74 O 0.30079 0.68192 0.20688 0.0
O75 O 0.2386 0.73271 0.22012 0.0
O76 O 0.19492 0.75793 0.23934 0.0
O77 O 0.31871 0.75962 0.20073 0.0
C78 C 0.29458 0.76184 0.29041 0.0
C79 C 0.2068 0.73828 0.21714 0.0
Zn80 Zn 0.23881 0.78074 0.73636 0.0
Zn81 Zn 0.27359 0.71751 0.76918 0.0
C82 C 0.21052 0.81692 0.68359 0.0
O83 O 0.22703 0.79584 0.66557 0.0
C84 C 0.31309 0.69108 0.82051 0.0
O85 O 0.2952 0.71107 0.8384 0.0
O86 O 0.28464 0.79402 0.71379 0.0
O87 O 0.25006 0.7902 0.78868 0.0
O88 O 0.2962 0.76419 0.78235 0.0
C89 C 0.29426 0.82525 0.71917 0.0
O90 O 0.27598 0.84258 0.73979 0.0
O91 O 0.2091 0.81447 0.71685 0.0
C92 C 0.22461 0.66999 0.79436 0.0
O93 O 0.24304 0.65371 0.77286 0.0
O94 O 0.23119 0.70175 0.79725 0.0
O95 O 0.25931 0.70471 0.71854 0.0
O96 O 0.21572 0.73535 0.71708 0.0
O97 O 0.30979 0.68948 0.787 0.0
C98 C 0.28213 0.78791 0.79626 0.0
C99 C 0.2294 0.70999 0.70633 0.0
Zn100 Zn 0.28635 0.209 0.75248 0.0
Zn101 Zn 0.22114 0.2848 0.74993 0.0
C102 C 0.32753 0.18497 0.80372 0.0
O103 O 0.34944 0.2048 0.78579 0.0
C104 C 0.2033 0.31262 0.68069 0.0
O105 O 0.20894 0.28445 0.66476 0.0
O106 O 0.31587 0.18853 0.71732 0.0
O107 O 0.237 0.20013 0.73135 0.0
O108 O 0.20081 0.23872 0.73017 0.0
C109 C 0.30595 0.15862 0.70579 0.0
O110 O 0.27563 0.14319 0.71502 0.0
O111 O 0.29476 0.18307 0.79599 0.0
C112 C 0.19716 0.33048 0.79769 0.0
O113 O 0.21632 0.35008 0.7771 0.0
O114 O 0.196 0.29892 0.79313 0.0
O115 O 0.27337 0.29622 0.75933 0.0
O116 O 0.30826 0.25669 0.76112 0.0
O117 O 0.20767 0.31652 0.71397 0.0
C118 C 0.20735 0.20912 0.72355 0.0
C119 C 0.30366 0.28723 0.76317 0.0
Zn120 Zn 0.72666 0.28106 0.75916 0.0
Zn121 Zn 0.77071 0.22251 0.73661 0.0
C122 C 0.67316 0.24812 0.79874 0.0
O123 O 0.65649 0.27136 0.78562 0.0
C124 C 0.82678 0.2592 0.70246 0.0
O125 O 0.84498 0.24165 0.7227 0.0
O126 O 0.70624 0.32274 0.77525 0.0
O127 O 0.77873 0.29029 0.76891 0.0
O128 O 0.78453 0.24005 0.78645 0.0
C129 C 0.71563 0.33367 0.80659 0.0
O130 O 0.74032 0.32034 0.82349 0.0
O131 O 0.70468 0.24628 0.79062 0.0
C132 C 0.79606 0.1761 0.69149 0.0
O133 O 0.77782 0.19288 0.67056 0.0
O134 O 0.79514 0.18177 0.72461 0.0
O135 O 0.7198 0.21343 0.71969 0.0
O136 O 0.71062 0.26533 0.7097 0.0
O137 O 0.79366 0.25659 0.70487 0.0
C138 C 0.79482 0.27129 0.78748 0.0
C139 C 0.70482 0.23407 0.70209 0.0
Zn140 Zn 0.71266 0.75489 0.72681 0.0
Zn141 Zn 0.7863 0.73506 0.75902 0.0
C142 C 0.671 0.77834 0.78095 0.0
O143 O 0.65173 0.7501 0.7702 0.0
C144 C 0.82175 0.71536 0.69901 0.0
O145 O 0.84269 0.74199 0.71157 0.0
O146 O 0.678 0.76171 0.68799 0.0
O147 O 0.75832 0.77218 0.70243 0.0
O148 O 0.79562 0.7842 0.74756 0.0
C149 C 0.68482 0.79202 0.67993 0.0
O150 O 0.70824 0.81231 0.69939 0.0
O151 O 0.70055 0.78628 0.76715 0.0
C152 C 0.8299 0.6944 0.78929 0.0
O153 O 0.80658 0.67334 0.77058 0.0
O154 O 0.82685 0.72534 0.79038 0.0
O155 O 0.74297 0.7164 0.78587 0.0
O156 O 0.70194 0.70734 0.74326 0.0
O157 O 0.79268 0.70736 0.71365 0.0
C158 C 0.78541 0.79009 0.71655 0.0
C159 C 0.7132 0.70153 0.77398 0.0
Fe160 Fe 0.99594 0.07349 0.48027 0.0
O161 O 0.9957 0.02509 0.48189 0.0
Fe162 Fe 0.0418 0.00843 0.50071 0.0
Fe163 Fe 0.96008 0.99447 0.50664 0.0
O164 O 0.99938 0.02568 0.48114 0.0
O165 O 0.00638 0.97763 0.5255 0.0
O166 O 1.00258 0.97698 0.52623 0.0
Fe167 Fe 0.00709 0.92901 0.52527 0.0
C168 C 0.95654 0.05846 0.54853 0.0
O169 O 0.95132 0.05783 0.44903 0.0
O170 O 0.92044 0.01716 0.48122 0.0
O171 O 0.04285 0.92891 0.48592 0.0
O172 O 0.03945 0.97552 0.45799 0.0
O173 O 0.07344 0.04354 0.46979 0.0
O174 O 0.03242 0.07142 0.44216 0.0
O175 O 0.95641 0.96164 0.46352 0.0
O176 O 0.96636 0.9147 0.48803 0.0
C177 C 0.06365 0.06272 0.44524 0.0
O178 O 0.05015 0.94452 0.55835 0.0
O179 O 0.08155 0.98531 0.52664 0.0
O180 O 0.96306 0.07557 0.52158 0.0
O181 O 0.96118 0.02787 0.54949 0.0
C182 C 0.92311 0.03815 0.45602 0.0
C183 C 0.95379 0.92998 0.46293 0.0
C184 C 0.93788 0.93822 0.5595 0.0
O185 O 0.92847 0.95886 0.53637 0.0
O186 O 0.96885 0.92888 0.56202 0.0
C187 C 0.04798 0.94642 0.45913 0.0
O188 O 0.04535 0.04185 0.54337 0.0
O189 O 0.0385 0.08784 0.51528 0.0
C190 C 0.07858 0.96404 0.55173 0.0
C191 C 0.0493 0.07344 0.5419 0.0
Fe192 Fe 0.51056 0.96092 0.99379 0.0
O193 O 0.53527 0.00187 0.97378 0.0
Fe194 Fe 0.43583 0.98922 0.02706 0.0
Fe195 Fe 0.58641 0.00953 0.96998 0.0
O196 O 0.48684 0.99379 0.02203 0.0
O197 O 0.48694 0.99732 0.02282 0.0
O198 O 0.53536 0.00529 0.97458 0.0
Fe199 Fe 0.51107 0.03821 0.00213 0.0
C200 C 0.58081 0.95998 0.02916 0.0
O201 O 0.5395 0.93196 0.96036 0.0
O202 O 0.57511 0.97165 0.93167 0.0
O203 O 0.47323 0.03526 0.96228 0.0
O204 O 0.42506 0.02571 0.99284 0.0
O205 O 0.42472 0.95402 0.98625 0.0
O206 O 0.47203 0.95699 0.95379 0.0
O207 O 0.57586 0.04845 0.94061 0.0
O208 O 0.53977 0.0766 0.97493 0.0
C209 C 0.4391 0.9494 0.95721 0.0
O210 O 0.48149 0.06733 0.03496 0.0
O211 O 0.44703 0.02763 0.06469 0.0
O212 O 0.54863 0.9622 0.03387 0.0
O213 O 0.59635 0.97224 0.0028 0.0
C214 C 0.56109 0.94105 0.93561 0.0
C215 C 0.56005 0.07404 0.94842 0.0
C216 C 0.582 0.05061 0.03967 0.0
O217 O 0.59756 0.0443 0.01167 0.0
O218 O 0.54902 0.04303 0.04218 0.0
C219 C 0.44089 0.03717 0.96615 0.0
O220 O 0.44736 0.95042 0.05691 0.0
O221 O 0.48166 0.92262 0.01998 0.0
C222 C 0.46031 0.0583 0.0601 0.0
C223 C 0.46282 0.92493 0.04752 0.0
Fe224 Fe 0.00569 0.53863 0.00153 0.0
O225 O 0.97637 0.49925 0.9771 0.0
Fe226 Fe 0.07858 0.50344 0.0331 0.0
Fe227 Fe 0.92524 0.49554 0.97077 0.0
O228 O 0.02768 0.50423 0.02744 0.0
O229 O 0.02745 0.50103 0.02737 0.0
O230 O 0.97624 0.49603 0.97686 0.0
Fe231 Fe 0.99784 0.46172 0.00313 0.0
C232 C 0.9383 0.54474 0.03562 0.0
O233 O 0.97898 0.56967 0.97027 0.0
O234 O 0.93871 0.53265 0.93642 0.0
O235 O 0.03339 0.45899 0.9643 0.0
O236 O 0.08186 0.463 0.99873 0.0
O237 O 0.09109 0.53519 0.99291 0.0
O238 O 0.04091 0.53872 0.9625 0.0
O239 O 0.9308 0.45474 0.938 0.0
O240 O 0.96417 0.42472 0.9733 0.0
C241 C 0.07425 0.54309 0.96568 0.0
O242 O 0.02405 0.43092 0.03531 0.0
O243 O 0.0642 0.46823 0.06912 0.0
O244 O 0.97033 0.54073 0.0405 0.0
O245 O 0.92051 0.53407 0.00743 0.0
C246 C 0.95733 0.56172 0.94305 0.0
C247 C 0.94382 0.42777 0.94577 0.0
C248 C 0.9292 0.45451 0.03681 0.0
O249 O 0.91301 0.46111 0.00864 0.0
O250 O 0.96217 0.46247 0.04175 0.0
C251 C 0.06472 0.45326 0.97003 0.0
O252 O 0.07566 0.5461 0.06395 0.0
O253 O 0.03982 0.57556 0.03067 0.0
C254 C 0.04519 0.43926 0.0629 0.0
C255 C 0.06321 0.57322 0.05578 0.0
Fe256 Fe 0.50677 0.49873 0.95744 0.0
O257 O 0.52837 0.52142 0.00227 0.0
Fe258 Fe 0.4247 0.46208 0.98447 0.0
Fe259 Fe 0.57912 0.53017 0.01274 0.0
O260 O 0.47629 0.47104 0.99012 0.0
O261 O 0.47565 0.47069 0.99383 0.0
O262 O 0.52775 0.52109 0.00588 0.0
Fe263 Fe 0.49706 0.49374 0.03846 0.0
C264 C 0.57476 0.47062 0.95801 0.0
O265 O 0.54248 0.53171 0.92915 0.0
O266 O 0.57687 0.56328 0.97282 0.0
O267 O 0.46259 0.5283 0.03721 0.0
O268 O 0.41301 0.49385 0.02517 0.0
O269 O 0.42119 0.49981 0.95011 0.0
O270 O 0.47254 0.53332 0.9549 0.0
O271 O 0.56557 0.55958 0.05427 0.0
O272 O 0.52425 0.52296 0.08104 0.0
C273 C 0.43996 0.52777 0.94615 0.0
O274 O 0.46109 0.46064 0.06696 0.0
O275 O 0.42798 0.42806 0.02319 0.0
O276 O 0.54142 0.46419 0.95717 0.0
O277 O 0.59127 0.49692 0.97377 0.0
C278 C 0.56595 0.55704 0.94006 0.0
C279 C 0.54683 0.55016 0.08071 0.0
C280 C 0.56319 0.46574 0.05273 0.0
O281 O 0.58161 0.49395 0.04917 0.0
O282 O 0.53141 0.45934 0.04131 0.0
C283 C 0.42948 0.52127 0.03838 0.0
O284 O 0.43751 0.43393 0.94144 0.0
O285 O 0.4792 0.47037 0.9149 0.0
C286 C 0.43814 0.4348 0.05609 0.0
C287 C 0.45624 0.44348 0.91501 0.0
Fe288 Fe 0.00505 0.46024 0.50297 0.0
O289 O 0.98339 0.49321 0.53301 0.0
Fe290 Fe 0.02037 0.50268 0.42602 0.0
Fe291 Fe 0.9867 0.49485 0.58475 0.0
O292 O 0.02373 0.50047 0.47748 0.0
O293 O 0.02321 0.50368 0.47762 0.0
O294 O 0.98294 0.49651 0.53321 0.0
Fe295 Fe 1.00183 0.53665 0.50776 0.0
C296 C 0.95777 0.42423 0.55784 0.0
O297 O 0.04988 0.46595 0.53486 0.0
O298 O 0.02607 0.46488 0.58738 0.0
O299 O 0.02592 0.57451 0.47728 0.0
O300 O 0.05452 0.54625 0.43545 0.0
O301 O 0.05641 0.46921 0.42922 0.0
O302 O 0.03152 0.43113 0.4677 0.0
O303 O 0.0248 0.53618 0.59211 0.0
O304 O 0.04674 0.54417 0.5393 0.0
C305 C 0.0538 0.44049 0.4437 0.0
O306 O 0.95701 0.53141 0.47587 0.0
O307 O 0.98099 0.53275 0.42342 0.0
O308 O 0.98116 0.42243 0.53407 0.0
O309 O 0.95279 0.45116 0.57584 0.0
C310 C 0.05122 0.46064 0.56754 0.0
C311 C 0.04907 0.54828 0.57262 0.0
C312 C 0.95346 0.55694 0.56695 0.0
O313 O 0.95058 0.52828 0.58154 0.0
O314 O 0.97583 0.56598 0.54298 0.0
C315 C 0.04982 0.57292 0.45407 0.0
O316 O 0.98228 0.46148 0.41838 0.0
O317 O 0.96026 0.45227 0.47108 0.0
C318 C 0.95578 0.53694 0.44323 0.0
C319 C 0.95799 0.44893 0.43765 0.0
Fe320 Fe 0.49598 0.95638 0.49982 0.0
O321 O 0.52589 0.99594 0.52332 0.0
Fe322 Fe 0.45616 0.98909 0.4283 0.0
Fe323 Fe 0.53899 0.99891 0.57378 0.0
O324 O 0.46889 0.98966 0.47872 0.0
O325 O 0.46933 0.99243 0.4786 0.0
O326 O 0.52623 0.99892 0.52332 0.0
Fe327 Fe 0.49803 0.03197 0.50329 0.0
C328 C 0.47224 0.94857 0.57248 0.0
O329 O 0.52873 0.92633 0.52449 0.0
O330 O 0.5697 0.9634 0.55763 0.0
O331 O 0.53122 0.03815 0.46257 0.0
O332 O 0.49319 0.02825 0.41615 0.0
O333 O 0.49066 0.95599 0.41347 0.0
O334 O 0.5291 0.95898 0.4592 0.0
O335 O 0.5711 0.04193 0.56208 0.0
O336 O 0.5315 0.06967 0.5319 0.0
C337 C 0.52076 0.95234 0.42683 0.0
O338 O 0.46491 0.0618 0.47948 0.0
O339 O 0.42585 0.02539 0.44365 0.0
O340 O 0.46306 0.95306 0.54081 0.0
O341 O 0.50306 0.95855 0.58544 0.0
C342 C 0.55865 0.93431 0.54206 0.0
C343 C 0.56081 0.06874 0.54987 0.0
C344 C 0.47327 0.03417 0.57616 0.0
O345 O 0.50357 0.03076 0.58919 0.0
O346 O 0.46464 0.02734 0.54385 0.0
C347 C 0.52282 0.04106 0.43029 0.0
O348 O 0.42299 0.94749 0.44108 0.0
O349 O 0.46065 0.91858 0.47253 0.0
C350 C 0.43597 0.0541 0.46037 0.0
C351 C 0.43132 0.9206 0.45485 0.0
H352 H 0.23924 0.17811 0.34442 0.0
H353 H 0.04837 0.08013 0.37858 0.0
H354 H 0.14886 0.17476 0.27303 0.0
H355 H 0.13665 0.08065 0.45211 0.0
H356 H 0.08642 0.11171 0.33862 0.0
H357 H 0.20418 0.14058 0.38262 0.0
C358 C 0.21215 0.16925 0.33646 0.0
C359 C 0.19729 0.17966 0.30501 0.0
C360 C 0.09775 0.10483 0.36331 0.0
C361 C 0.15651 0.13659 0.34935 0.0
C362 C 0.07594 0.0866 0.38631 0.0
C363 C 0.08905 0.07759 0.41914 0.0
C364 C 0.1334 0.11476 0.37281 0.0
C365 C 0.12524 0.08673 0.42715 0.0
C366 C 0.19205 0.14784 0.3585 0.0
C367 C 0.16173 0.16755 0.29675 0.0
N368 N 0.14601 0.10503 0.40436 0.0
N369 N 0.14275 0.14689 0.31867 0.0
H370 H 0.76623 0.15201 0.39454 0.0
H371 H 0.91627 0.03627 0.38503 0.0
H372 H 0.82068 0.13223 0.30028 0.0
H373 H 0.8602 0.05256 0.47879 0.0
H374 H 0.87279 0.06142 0.3506 0.0
H375 H 0.79258 0.10794 0.42301 0.0
C376 C 0.78363 0.1383 0.37974 0.0
C377 C 0.79183 0.14627 0.34518 0.0
C378 C 0.86938 0.05885 0.37853 0.0
C379 C 0.82194 0.0956 0.37763 0.0
C380 C 0.89403 0.04425 0.39809 0.0
C381 C 0.89171 0.04263 0.43467 0.0
C382 C 0.84274 0.07265 0.3959 0.0
C383 C 0.86267 0.05333 0.45055 0.0
C384 C 0.79849 0.11297 0.39598 0.0
C385 C 0.81403 0.12727 0.32713 0.0
N386 N 0.83964 0.06864 0.43115 0.0
N387 N 0.82864 0.10308 0.34372 0.0
H388 H 0.79581 0.8529 0.29836 0.0
H389 H 0.92164 0.95357 0.40532 0.0
H390 H 0.85354 0.77179 0.32296 0.0
H391 H 0.9399 0.86161 0.45192 0.0
H392 H 0.8859 0.92128 0.35821 0.0
H393 H 0.83567 0.89009 0.33825 0.0
C394 C 0.81722 0.84298 0.31172 0.0
C395 C 0.82117 0.80904 0.30718 0.0
C396 C 0.89721 0.90805 0.37892 0.0
C397 C 0.86781 0.85197 0.35278 0.0
C398 C 0.91805 0.92655 0.40577 0.0
C399 C 0.93355 0.91038 0.43303 0.0
C400 C 0.8915 0.87298 0.37932 0.0
C401 C 0.92825 0.87524 0.43173 0.0
C402 C 0.84033 0.86443 0.33438 0.0
C403 C 0.84945 0.79774 0.32545 0.0
N404 N 0.90762 0.85777 0.40542 0.0
N405 N 0.87142 0.81906 0.34767 0.0
H406 H 0.15464 0.85421 0.29337 0.0
H407 H 0.11808 0.96096 0.46684 0.0
H408 H 0.22887 0.87894 0.38166 0.0
H409 H 0.03563 0.91158 0.39545 0.0
H410 H 0.16184 0.94274 0.42798 0.0
H411 H 0.11413 0.88751 0.32233 0.0
C412 C 0.16285 0.8675 0.31832 0.0
C413 C 0.19499 0.86371 0.33536 0.0
C414 C 0.13422 0.93609 0.42058 0.0
C415 C 0.14885 0.9013 0.36859 0.0
C416 C 0.10936 0.94641 0.44273 0.0
C417 C 0.07354 0.93728 0.43425 0.0
C418 C 0.12307 0.91648 0.38976 0.0
C419 C 0.0632 0.91876 0.40274 0.0
C420 C 0.13958 0.88616 0.33496 0.0
C421 C 0.20419 0.88107 0.36782 0.0
N422 N 0.08796 0.90867 0.3816 0.0
N423 N 0.1811 0.89888 0.38353 0.0
H424 H 0.21799 0.83272 0.615 0.0
H425 H 0.08775 0.96916 0.62266 0.0
H426 H 0.17264 0.8646 0.71074 0.0
H427 H 0.13759 0.94128 0.5284 0.0
H428 H 0.12656 0.93867 0.6573 0.0
H429 H 0.19519 0.87765 0.58469 0.0
C430 C 0.20318 0.84916 0.62972 0.0
C431 C 0.19676 0.8445 0.66542 0.0
C432 C 0.12978 0.93991 0.6292 0.0
C433 C 0.1707 0.89641 0.63069 0.0
C434 C 0.10796 0.95772 0.6095 0.0
C435 C 0.10975 0.95788 0.57273 0.0
C436 C 0.15306 0.92151 0.61185 0.0
C437 C 0.13578 0.94212 0.55677 0.0
C438 C 0.19037 0.87502 0.61238 0.0
C439 C 0.17787 0.86699 0.68313 0.0
N440 N 0.15598 0.92397 0.57635 0.0
N441 N 0.16523 0.89177 0.6655 0.0
H442 H 0.13531 0.20238 0.72276 0.0
H443 H 0.09766 0.12814 0.53526 0.0
H444 H 0.22161 0.16485 0.67209 0.0
H445 H 0.04876 0.0646 0.61279 0.0
H446 H 0.13518 0.15978 0.58254 0.0
H447 H 0.09415 0.16784 0.68002 0.0
C448 C 0.1455 0.18662 0.70297 0.0
C449 C 0.18181 0.18613 0.70108 0.0
C450 C 0.11593 0.13908 0.58901 0.0
C451 C 0.13544 0.148 0.6521 0.0
C452 C 0.09453 0.12119 0.56228 0.0
C453 C 0.07025 0.09378 0.57031 0.0
C454 C 0.11222 0.13005 0.62394 0.0
C455 C 0.06738 0.08551 0.60567 0.0
C456 C 0.12213 0.16706 0.6788 0.0
C457 C 0.19379 0.16553 0.67478 0.0
N458 N 0.08803 0.1038 0.63143 0.0
N459 N 0.17067 0.14771 0.65086 0.0
H460 H 0.83732 0.19717 0.63932 0.0
H461 H 0.91519 0.02907 0.5998 0.0
H462 H 0.81787 0.11602 0.70895 0.0
H463 H 0.95935 0.12498 0.56405 0.0
H464 H 0.8796 0.05786 0.64067 0.0
H465 H 0.88128 0.16885 0.61092 0.0
C466 C 0.84235 0.17321 0.64858 0.0
C467 C 0.82371 0.15868 0.67621 0.0
C468 C 0.89759 0.07249 0.62426 0.0
C469 C 0.87418 0.12576 0.64354 0.0
C470 C 0.91795 0.05612 0.60103 0.0
C471 C 0.93979 0.07462 0.57798 0.0
C472 C 0.89909 0.10743 0.62413 0.0
C473 C 0.94235 0.1096 0.58072 0.0
C474 C 0.86769 0.15712 0.63252 0.0
C475 C 0.83171 0.1279 0.68759 0.0
N476 N 0.92196 0.12473 0.60291 0.0
N477 N 0.85608 0.11208 0.67079 0.0
H478 H 0.85052 0.82642 0.73323 0.0
H479 H 0.86549 0.92033 0.55024 0.0
H480 H 0.76869 0.81157 0.65099 0.0
H481 H 0.95177 0.91894 0.62576 0.0
H482 H 0.82679 0.88666 0.58949 0.0
H483 H 0.88524 0.86586 0.69682 0.0
C484 C 0.83969 0.83155 0.70764 0.0
C485 C 0.80652 0.81538 0.69532 0.0
C486 C 0.85415 0.89403 0.59755 0.0
C487 C 0.84639 0.86097 0.65315 0.0
C488 C 0.87617 0.91354 0.57527 0.0
C489 C 0.91208 0.92248 0.58451 0.0
C490 C 0.86799 0.88368 0.62953 0.0
C491 C 0.92441 0.91251 0.61724 0.0
C492 C 0.85961 0.85411 0.68674 0.0
C493 C 0.7941 0.82324 0.66172 0.0
N494 N 0.9026 0.89374 0.63831 0.0
N495 N 0.81394 0.84533 0.6419 0.0
H496 H 0.32333 0.1479 0.19891 0.0
H497 H 0.46892 0.12772 0.05677 0.0
H498 H 0.39512 0.23238 0.16902 0.0
H499 H 0.41983 0.04754 0.11707 0.0
H500 H 0.43941 0.16723 0.09239 0.0
H501 H 0.35406 0.11116 0.16204 0.0
C502 C 0.34531 0.1588 0.18432 0.0
C503 C 0.35666 0.1933 0.18725 0.0
C504 C 0.43538 0.14094 0.09776 0.0
C505 C 0.39227 0.15123 0.14491 0.0
C506 C 0.45238 0.1184 0.07758 0.0
C507 C 0.44688 0.08403 0.08355 0.0
C508 C 0.41242 0.12896 0.12376 0.0
C509 C 0.42487 0.07359 0.11094 0.0
C510 C 0.36306 0.13776 0.16343 0.0
C511 C 0.38553 0.20589 0.16773 0.0
N512 N 0.40837 0.09576 0.1296 0.0
N513 N 0.40231 0.18492 0.1474 0.0
H514 H 0.86883 0.33359 0.21313 0.0
H515 H 0.85994 0.42704 0.0326 0.0
H516 H 0.77963 0.3181 0.13887 0.0
H517 H 0.95431 0.43322 0.09937 0.0
H518 H 0.82973 0.38847 0.0725 0.0
H519 H 0.90075 0.37016 0.1722 0.0
C520 C 0.85609 0.33752 0.18805 0.0
C521 C 0.82141 0.32282 0.17952 0.0
C522 C 0.85703 0.3983 0.07848 0.0
C523 C 0.85764 0.3651 0.13278 0.0
C524 C 0.87429 0.42054 0.05579 0.0
C525 C 0.90978 0.4335 0.06257 0.0
C526 C 0.87526 0.38893 0.10832 0.0
C527 C 0.92693 0.42396 0.09305 0.0
C528 C 0.87429 0.35854 0.16476 0.0
C529 C 0.80627 0.32889 0.14664 0.0
N530 N 0.90952 0.40224 0.11477 0.0
N531 N 0.82438 0.34975 0.12462 0.0
H532 H 0.67398 0.8653 0.2037 0.0
H533 H 0.63537 0.92658 0.01255 0.0
H534 H 0.68952 0.80603 0.10985 0.0
H535 H 0.56957 0.94593 0.09847 0.0
H536 H 0.66548 0.89058 0.04982 0.0
H537 H 0.64571 0.90347 0.1672 0.0
C538 C 0.6719 0.86056 0.17537 0.0
C539 C 0.68423 0.83246 0.15973 0.0
C540 C 0.64455 0.90282 0.06051 0.0
C541 C 0.65215 0.87616 0.11801 0.0
C542 C 0.62748 0.92356 0.0394 0.0
C543 C 0.59994 0.93941 0.05247 0.0
C544 C 0.63463 0.8984 0.09526 0.0
C545 C 0.59062 0.93418 0.08735 0.0
C546 C 0.6555 0.88219 0.15468 0.0
C547 C 0.68039 0.82736 0.12296 0.0
N548 N 0.60814 0.9143 0.10768 0.0
N549 N 0.66492 0.84913 0.1033 0.0
H550 H 0.22676 0.71176 0.15557 0.0
H551 H 0.03478 0.62243 0.09277 0.0
H552 H 0.13461 0.72697 0.21201 0.0
H553 H 0.13241 0.59332 0.05882 0.0
H554 H 0.06837 0.66996 0.12789 0.0
H555 H 0.18973 0.67814 0.11049 0.0
C556 C 0.19867 0.70805 0.15841 0.0
C557 C 0.18384 0.72144 0.18794 0.0
C558 C 0.08226 0.65335 0.11233 0.0
C559 C 0.14104 0.6828 0.13643 0.0
C560 C 0.06319 0.62647 0.09233 0.0
C561 C 0.08114 0.60403 0.07351 0.0
C562 C 0.1192 0.65767 0.11268 0.0
C563 C 0.1178 0.60997 0.07352 0.0
C564 C 0.17746 0.68894 0.13259 0.0
C565 C 0.1471 0.71669 0.18977 0.0
N566 N 0.13561 0.63612 0.09291 0.0
N567 N 0.12686 0.69724 0.16455 0.0
H568 H 0.35358 0.79677 0.80239 0.0
H569 H 0.36829 0.94662 0.94718 0.0
H570 H 0.26362 0.8411 0.8362 0.0
H571 H 0.45818 0.9113 0.90118 0.0
H572 H 0.32974 0.91076 0.90457 0.0
H573 H 0.392 0.84016 0.83651 0.0
C574 C 0.34179 0.81565 0.81705 0.0
C575 C 0.30514 0.815 0.81671 0.0
C576 C 0.35788 0.91108 0.90349 0.0
C577 C 0.34945 0.86511 0.85604 0.0
C578 C 0.37996 0.93153 0.92784 0.0
C579 C 0.41653 0.93162 0.92801 0.0
C580 C 0.37236 0.89022 0.87929 0.0
C581 C 0.43017 0.91194 0.90206 0.0
C582 C 0.3639 0.84059 0.83641 0.0
C583 C 0.29165 0.84047 0.83589 0.0
N584 N 0.40803 0.89168 0.87903 0.0
N585 N 0.31382 0.86435 0.85506 0.0
H586 H 0.17575 0.30775 0.86168 0.0
H587 H 0.0542 0.44935 0.89817 0.0
H588 H 0.16796 0.38736 0.79112 0.0
H589 H 0.11244 0.41062 0.98261 0.0
H590 H 0.0841 0.41681 0.8555 0.0
H591 H 0.14071 0.33574 0.90388 0.0
C592 C 0.16645 0.3309 0.85501 0.0
C593 C 0.17498 0.34549 0.82313 0.0
C594 C 0.0901 0.41539 0.88342 0.0
C595 C 0.13458 0.37693 0.87048 0.0
C596 C 0.07305 0.43382 0.90769 0.0
C597 C 0.08118 0.4329 0.94387 0.0
C598 C 0.11471 0.3953 0.89552 0.0
C599 C 0.10579 0.41234 0.95488 0.0
C600 C 0.14664 0.34685 0.87902 0.0
C601 C 0.16231 0.37552 0.81565 0.0
N602 N 0.1216 0.39421 0.93081 0.0
N603 N 0.14259 0.39016 0.83904 0.0
H604 H 0.68673 0.18505 0.8099 0.0
H605 H 0.56148 0.14184 0.9639 0.0
H606 H 0.61833 0.25671 0.84018 0.0
H607 H 0.57663 0.07008 0.8802 0.0
H608 H 0.587 0.18701 0.92706 0.0
H609 H 0.65403 0.14428 0.84621 0.0
C610 C 0.66499 0.19223 0.82441 0.0
C611 C 0.65494 0.22404 0.82193 0.0
C612 C 0.58412 0.16129 0.91687 0.0
C613 C 0.61781 0.17789 0.8635 0.0
C614 C 0.56946 0.13566 0.93767 0.0
C615 C 0.56775 0.10221 0.92536 0.0
C616 C 0.59733 0.15295 0.88416 0.0
C617 C 0.57836 0.09547 0.89115 0.0
C618 C 0.64626 0.16899 0.84488 0.0
C619 C 0.62654 0.23218 0.84123 0.0
N620 N 0.59329 0.12053 0.87206 0.0
N621 N 0.60893 0.20922 0.86151 0.0
H622 H 0.86069 0.64087 0.76945 0.0
H623 H 0.95452 0.62852 0.95744 0.0
H624 H 0.86496 0.71852 0.85165 0.0
H625 H 0.94635 0.55325 0.8724 0.0
H626 H 0.93264 0.66729 0.91655 0.0
H627 H 0.90279 0.61428 0.80365 0.0
C628 C 0.87078 0.65243 0.79473 0.0
C629 C 0.85893 0.6815 0.80815 0.0
C630 C 0.93633 0.64251 0.90675 0.0
C631 C 0.90677 0.65087 0.84794 0.0
C632 C 0.94896 0.6205 0.92999 0.0
C633 C 0.95154 0.58756 0.91827 0.0
C634 C 0.92657 0.63132 0.87175 0.0
C635 C 0.94402 0.57827 0.88259 0.0
C636 C 0.89492 0.6373 0.81426 0.0
C637 C 0.87333 0.69589 0.84064 0.0
N638 N 0.93154 0.59988 0.86074 0.0
N639 N 0.89608 0.68003 0.85988 0.0
H640 H 0.13476 0.27946 0.15654 0.0
H641 H 0.0523 0.44824 0.13376 0.0
H642 H 0.14856 0.3648 0.23051 0.0
H643 H 0.05076 0.37301 0.04948 0.0
H644 H 0.07385 0.41024 0.17469 0.0
H645 H 0.09206 0.30636 0.12192 0.0
C646 C 0.12841 0.30359 0.16571 0.0
C647 C 0.14562 0.32031 0.19597 0.0
C648 C 0.06838 0.40172 0.14737 0.0
C649 C 0.09692 0.3508 0.15705 0.0
C650 C 0.05599 0.42339 0.12407 0.0
C651 C 0.05041 0.41382 0.08825 0.0
C652 C 0.07599 0.37049 0.13462 0.0
C653 C 0.05502 0.38126 0.07699 0.0
C654 C 0.10413 0.31888 0.146 0.0
C655 C 0.13642 0.35137 0.20692 0.0
N656 N 0.06833 0.36087 0.10004 0.0
N657 N 0.11291 0.36567 0.18736 0.0
H658 H 0.22491 0.60573 0.81172 0.0
H659 H 0.05322 0.58926 0.92201 0.0
H660 H 0.1697 0.69055 0.83033 0.0
H661 H 0.14083 0.53663 0.94664 0.0
H662 H 0.08862 0.62072 0.87897 0.0
H663 H 0.18692 0.57407 0.85185 0.0
C664 C 0.20456 0.61764 0.82402 0.0
C665 C 0.20043 0.65087 0.8177 0.0
C666 C 0.09991 0.60219 0.89378 0.0
C667 C 0.15673 0.61452 0.86347 0.0
C668 C 0.07975 0.58407 0.91806 0.0
C669 C 0.09421 0.56033 0.93787 0.0
C670 C 0.13439 0.5959 0.88877 0.0
C671 C 0.12877 0.5548 0.93201 0.0
C672 C 0.18305 0.59957 0.84706 0.0
C673 C 0.17378 0.66504 0.83463 0.0
N674 N 0.14763 0.57232 0.9078 0.0
N675 N 0.15269 0.64667 0.85668 0.0
H676 H 0.29178 0.13912 0.84624 0.0
H677 H 0.4687 0.0719 0.9114 0.0
H678 H 0.39624 0.18053 0.81927 0.0
H679 H 0.37102 0.04658 0.96268 0.0
H680 H 0.43981 0.10692 0.8726 0.0
H681 H 0.31785 0.10125 0.88544 0.0
C682 C 0.32009 0.14041 0.84867 0.0
C683 C 0.34181 0.16309 0.82939 0.0
C684 C 0.42457 0.09369 0.89227 0.0
C685 C 0.37162 0.11966 0.87358 0.0
C686 C 0.44105 0.07344 0.9144 0.0
C687 C 0.42237 0.05626 0.94059 0.0
C688 C 0.38896 0.09686 0.89599 0.0
C689 C 0.38653 0.05944 0.94299 0.0
C690 C 0.33491 0.11877 0.87097 0.0
C691 C 0.37833 0.16357 0.83351 0.0
N692 N 0.37097 0.07941 0.92101 0.0
N693 N 0.39196 0.14215 0.8549 0.0
H694 H 0.84474 0.31895 0.76699 0.0
H695 H 0.92574 0.36234 0.96191 0.0
H696 H 0.81717 0.25704 0.85387 0.0
H697 H 0.93812 0.42702 0.87477 0.0
H698 H 0.89829 0.31658 0.92083 0.0
H699 H 0.89195 0.3508 0.80372 0.0
C700 C 0.84901 0.31189 0.79383 0.0
C701 C 0.82679 0.28592 0.80782 0.0
C702 C 0.90769 0.34062 0.9107 0.0
C703 C 0.88015 0.32271 0.85036 0.0
C704 C 0.92341 0.3666 0.93404 0.0
C705 C 0.93349 0.39846 0.92159 0.0
C706 C 0.90256 0.34678 0.87489 0.0
C707 C 0.93001 0.40291 0.88541 0.0
C708 C 0.87595 0.33003 0.81481 0.0
C709 C 0.83372 0.27719 0.8424 0.0
N710 N 0.91457 0.37747 0.86341 0.0
N711 N 0.85945 0.29611 0.86291 0.0
H712 H 0.69388 0.84494 0.79675 0.0
H713 H 0.54612 0.87168 0.93485 0.0
H714 H 0.61454 0.76467 0.82232 0.0
H715 H 0.60658 0.9514 0.88239 0.0
H716 H 0.57341 0.83104 0.89866 0.0
H717 H 0.66599 0.88343 0.83443 0.0
C718 C 0.67082 0.83532 0.81055 0.0
C719 C 0.65651 0.80153 0.8062 0.0
C720 C 0.58046 0.85749 0.89513 0.0
C721 C 0.62421 0.84555 0.84938 0.0
C722 C 0.56477 0.88071 0.91567 0.0
C723 C 0.57395 0.91521 0.91196 0.0
C724 C 0.60579 0.86887 0.87104 0.0
C725 C 0.59854 0.92524 0.88661 0.0
C726 C 0.65472 0.85735 0.83189 0.0
C727 C 0.6264 0.79057 0.82471 0.0
N728 N 0.61364 0.90232 0.86749 0.0
N729 N 0.61126 0.81247 0.84546 0.0
H730 H 0.82593 0.68598 0.14921 0.0
H731 H 0.95338 0.55085 0.10677 0.0
H732 H 0.84471 0.61026 0.22132 0.0
H733 H 0.88588 0.58322 0.02567 0.0
H734 H 0.92479 0.58281 0.15095 0.0
H735 H 0.85933 0.65863 0.10493 0.0
C736 C 0.83744 0.66391 0.15581 0.0
C737 C 0.83244 0.65016 0.18876 0.0
C738 C 0.9164 0.58294 0.12343 0.0
C739 C 0.87083 0.61938 0.13893 0.0
C740 C 0.93268 0.56479 0.09828 0.0
C741 C 0.92169 0.56412 0.06261 0.0
C742 C 0.88961 0.60119 0.11271 0.0
C743 C 0.89479 0.58271 0.05299 0.0
C744 C 0.85624 0.64828 0.1306 0.0
C745 C 0.84771 0.62144 0.19606 0.0
N746 N 0.87976 0.60066 0.07788 0.0
N747 N 0.86636 0.60709 0.17144 0.0
H748 H 0.33697 0.77063 0.13648 0.0
H749 H 0.47388 0.92532 0.11807 0.0
H750 H 0.41716 0.79861 0.21898 0.0
H751 H 0.43835 0.86039 0.02709 0.0
H752 H 0.45404 0.88 0.15631 0.0
H753 H 0.37288 0.80421 0.09594 0.0
C754 C 0.36221 0.78387 0.14598 0.0
C755 C 0.37403 0.78247 0.18114 0.0
C756 C 0.45136 0.87542 0.12798 0.0
C757 C 0.41496 0.82069 0.13514 0.0
C758 C 0.4625 0.90119 0.10628 0.0
C759 C 0.45735 0.8963 0.06968 0.0
C760 C 0.43399 0.84513 0.11281 0.0
C761 C 0.44265 0.86484 0.05532 0.0
C762 C 0.38282 0.80261 0.12278 0.0
C763 C 0.40714 0.79943 0.19207 0.0
N764 N 0.4306 0.8405 0.07705 0.0
N765 N 0.42628 0.81851 0.16925 0.0
H766 H 0.74865 0.16446 0.17312 0.0
H767 H 0.55768 0.08276 0.09686 0.0
H768 H 0.65225 0.20156 0.19933 0.0
H769 H 0.65362 0.06333 0.04941 0.0
H770 H 0.59247 0.11968 0.14158 0.0
H771 H 0.71449 0.12105 0.13382 0.0
C772 C 0.72037 0.16344 0.17068 0.0
C773 C 0.70333 0.18685 0.18928 0.0
C774 C 0.6059 0.10717 0.12148 0.0
C775 C 0.66421 0.13721 0.14486 0.0
C776 C 0.58606 0.08593 0.09604 0.0
C777 C 0.60272 0.07016 0.06909 0.0
C778 C 0.64268 0.11253 0.12016 0.0
C779 C 0.63963 0.07526 0.06945 0.0
C780 C 0.70092 0.13871 0.14829 0.0
C781 C 0.66659 0.18429 0.18525 0.0
N782 N 0.65837 0.09612 0.09448 0.0
N783 N 0.6483 0.15995 0.16353 0.0
H784 H 0.72553 0.69076 0.84375 0.0
H785 H 0.5551 0.55621 0.86688 0.0
H786 H 0.64933 0.66174 0.75789 0.0
H787 H 0.61952 0.60875 0.95277 0.0
H788 H 0.58971 0.59089 0.8253 0.0
H789 H 0.68838 0.6565 0.88248 0.0
C790 C 0.70103 0.67709 0.83287 0.0
C791 C 0.69076 0.67935 0.79727 0.0
C792 C 0.59601 0.59482 0.8533 0.0
C793 C 0.64754 0.63954 0.84208 0.0
C794 C 0.5762 0.57505 0.87713 0.0
C795 C 0.58415 0.57926 0.91369 0.0
C796 C 0.6243 0.61874 0.86601 0.0
C797 C 0.61205 0.60421 0.92506 0.0
C798 C 0.67964 0.65753 0.85518 0.0
C799 C 0.65846 0.66087 0.78507 0.0
N800 N 0.63102 0.6226 0.90149 0.0
N801 N 0.63809 0.64172 0.80734 0.0
H802 H 0.30341 0.67003 0.88663 0.0
H803 H 0.46948 0.57398 0.90168 0.0
H804 H 0.36883 0.66091 0.79794 0.0
H805 H 0.37275 0.54084 0.95134 0.0
H806 H 0.43974 0.61513 0.87057 0.0
H807 H 0.33575 0.63163 0.91813 0.0
C808 C 0.3248 0.66015 0.87388 0.0
C809 C 0.33349 0.6686 0.8396 0.0
C810 C 0.4252 0.59884 0.88838 0.0
C811 C 0.37073 0.62499 0.87572 0.0
C812 C 0.44212 0.57563 0.90627 0.0
C813 C 0.42341 0.55403 0.92897 0.0
C814 C 0.38972 0.60092 0.89405 0.0
C815 C 0.38798 0.55692 0.93386 0.0
C816 C 0.34307 0.63814 0.89182 0.0
C817 C 0.36126 0.65484 0.82427 0.0
N818 N 0.37232 0.58011 0.91672 0.0
N819 N 0.37915 0.6338 0.84257 0.0
H820 H 0.30704 0.3555 0.76379 0.0
H821 H 0.43924 0.46437 0.85005 0.0
H822 H 0.36944 0.27728 0.78672 0.0
H823 H 0.45269 0.37639 0.90625 0.0
H824 H 0.40918 0.42844 0.80112 0.0
H825 H 0.35406 0.39663 0.79029 0.0
C826 C 0.33093 0.34703 0.7737 0.0
C827 C 0.33401 0.3128 0.77357 0.0
C828 C 0.41922 0.41703 0.82393 0.0
C829 C 0.38818 0.35982 0.80357 0.0
C830 C 0.4368 0.43745 0.85151 0.0
C831 C 0.44792 0.42311 0.88213 0.0
C832 C 0.41304 0.38225 0.82732 0.0
C833 C 0.44405 0.38824 0.88309 0.0
C834 C 0.358 0.37061 0.78848 0.0
C835 C 0.36569 0.30333 0.78658 0.0
N836 N 0.42661 0.36896 0.8562 0.0
N837 N 0.39119 0.32665 0.80178 0.0
H838 H 0.64952 0.34907 0.79047 0.0
H839 H 0.64509 0.46686 0.96465 0.0
H840 H 0.7355 0.36965 0.8681 0.0
H841 H 0.55135 0.42533 0.90323 0.0
H842 H 0.67964 0.43508 0.92659 0.0
H843 H 0.61448 0.38172 0.82773 0.0
C844 C 0.66121 0.36086 0.81506 0.0
C845 C 0.69552 0.35667 0.82618 0.0
C846 C 0.65149 0.43274 0.92152 0.0
C847 C 0.65552 0.3937 0.869 0.0
C848 C 0.63171 0.45087 0.94329 0.0
C849 C 0.59522 0.44875 0.93721 0.0
C850 C 0.63484 0.41258 0.89306 0.0
C851 C 0.57937 0.42755 0.90908 0.0
C852 C 0.64108 0.37919 0.83646 0.0
C853 C 0.70916 0.37217 0.8585 0.0
N854 N 0.59931 0.41048 0.88788 0.0
N855 N 0.68917 0.38996 0.87871 0.0
H856 H 0.67896 0.37046 0.20859 0.0
H857 H 0.54028 0.39863 0.05475 0.0
H858 H 0.62809 0.29001 0.13833 0.0
H859 H 0.61991 0.47644 0.0992 0.0
H860 H 0.56496 0.35849 0.09156 0.0
H861 H 0.64908 0.40985 0.1757 0.0
C862 C 0.66113 0.36102 0.18656 0.0
C863 C 0.65616 0.32697 0.17599 0.0
C864 C 0.57697 0.38437 0.09314 0.0
C865 C 0.62211 0.37183 0.13829 0.0
C866 C 0.56295 0.40725 0.07219 0.0
C867 C 0.57824 0.44086 0.07374 0.0
C868 C 0.60607 0.39534 0.11616 0.0
C869 C 0.60752 0.45071 0.09687 0.0
C870 C 0.64432 0.38353 0.16767 0.0
C871 C 0.63286 0.31612 0.14718 0.0
N872 N 0.62038 0.42807 0.11728 0.0
N873 N 0.61672 0.33851 0.12924 0.0
H874 H 0.69524 0.63876 0.23492 0.0
H875 H 0.54008 0.61548 0.09162 0.0
H876 H 0.63829 0.71925 0.20601 0.0
H877 H 0.57593 0.53218 0.14204 0.0
H878 H 0.57098 0.65337 0.13801 0.0
H879 H 0.64867 0.59881 0.20547 0.0
C880 C 0.6728 0.64805 0.22272 0.0
C881 C 0.67099 0.68251 0.22253 0.0
C882 C 0.57138 0.62675 0.1396 0.0
C883 C 0.61761 0.63684 0.18864 0.0
C884 C 0.55351 0.60516 0.11327 0.0
C885 C 0.55535 0.57082 0.11338 0.0
C886 C 0.59215 0.61394 0.16553 0.0
C887 C 0.5736 0.55855 0.14147 0.0
C888 C 0.6461 0.62517 0.20606 0.0
C889 C 0.64104 0.69298 0.20658 0.0
N890 N 0.59199 0.58021 0.1661 0.0
N891 N 0.61584 0.67029 0.18985 0.0
H892 H 0.33686 0.69163 0.11322 0.0
H893 H 0.37015 0.50545 0.07471 0.0
H894 H 0.30817 0.61688 0.18842 0.0
H895 H 0.44445 0.58921 0.04752 0.0
H896 H 0.33866 0.54397 0.10887 0.0
H897 H 0.36783 0.65213 0.08068 0.0
C898 C 0.33679 0.66675 0.12273 0.0
C899 C 0.31982 0.6574 0.15352 0.0
C900 C 0.36188 0.55378 0.09541 0.0
C901 C 0.35505 0.61214 0.11616 0.0
C902 C 0.37966 0.53197 0.07573 0.0
C903 C 0.40985 0.54428 0.0582 0.0
C904 C 0.37388 0.58814 0.09674 0.0
C905 C 0.42132 0.57875 0.06069 0.0
C906 C 0.35471 0.64438 0.10426 0.0
C907 C 0.32098 0.625 0.16482 0.0
N908 N 0.40309 0.59957 0.07933 0.0
N909 N 0.33809 0.60329 0.1459 0.0
H910 H 0.35919 0.32774 0.2409 0.0
H911 H 0.38205 0.38559 0.04337 0.0
H912 H 0.27757 0.30923 0.15861 0.0
H913 H 0.4496 0.43387 0.12931 0.0
H914 H 0.34797 0.3527 0.08515 0.0
H915 H 0.39595 0.36225 0.20101 0.0
C916 C 0.34886 0.33095 0.21456 0.0
C917 C 0.31495 0.31541 0.20334 0.0
C918 C 0.37026 0.37039 0.09504 0.0
C919 C 0.35743 0.35468 0.15718 0.0
C920 C 0.39011 0.38926 0.07103 0.0
C921 C 0.41916 0.41293 0.08245 0.0
C922 C 0.37926 0.37448 0.13123 0.0
C923 C 0.4276 0.41609 0.119 0.0
C924 C 0.36994 0.35073 0.19179 0.0
C925 C 0.30331 0.32063 0.16873 0.0
N926 N 0.40787 0.39708 0.14201 0.0
N927 N 0.32447 0.33947 0.14703 0.0
H928 H 0.79823 0.64894 0.68216 0.0
H929 H 0.95978 0.62519 0.55975 0.0
H930 H 0.87625 0.73001 0.65583 0.0
H931 H 0.8939 0.54381 0.60401 0.0
H932 H 0.92362 0.66436 0.58632 0.0
H933 H 0.82688 0.61063 0.64479 0.0
C934 C 0.82097 0.65881 0.66803 0.0
C935 C 0.83497 0.69271 0.67235 0.0
C936 C 0.91699 0.63788 0.58997 0.0
C937 C 0.86812 0.64897 0.62976 0.0
C938 C 0.93758 0.61548 0.57471 0.0
C939 C 0.93026 0.5811 0.57995 0.0
C940 C 0.88864 0.62584 0.61036 0.0
C941 C 0.90099 0.57008 0.5996 0.0
C942 C 0.83749 0.63689 0.64689 0.0
C943 C 0.8647 0.70402 0.65353 0.0
N944 N 0.88145 0.59231 0.61414 0.0
N945 N 0.88037 0.68222 0.63328 0.0
H946 H 0.2962 0.88776 0.6965 0.0
H947 H 0.48547 0.90532 0.62268 0.0
H948 H 0.35344 0.80298 0.6944 0.0
H949 H 0.40161 0.94886 0.57161 0.0
H950 H 0.44221 0.87358 0.65867 0.0
H951 H 0.3401 0.91727 0.66018 0.0
C952 C 0.31826 0.87551 0.68863 0.0
C953 C 0.32147 0.84301 0.69841 0.0
C954 C 0.43346 0.89004 0.63947 0.0
C955 C 0.37156 0.87663 0.6573 0.0
C956 C 0.45798 0.90825 0.61922 0.0
C957 C 0.44686 0.92964 0.59434 0.0
C958 C 0.39796 0.8941 0.63531 0.0
C959 C 0.41105 0.93246 0.59048 0.0
C960 C 0.34303 0.89224 0.66775 0.0
C961 C 0.35019 0.82803 0.68721 0.0
N962 N 0.38781 0.91512 0.6111 0.0
N963 N 0.37453 0.84517 0.66738 0.0
H964 H 0.18518 0.31231 0.60981 0.0
H965 H 0.07565 0.46382 0.63596 0.0
H966 H 0.18673 0.37215 0.70699 0.0
H967 H 0.09361 0.42175 0.533 0.0
H968 H 0.11876 0.43183 0.66168 0.0
H969 H 0.15414 0.35311 0.5801 0.0
C970 C 0.17938 0.33415 0.62481 0.0
C971 C 0.18821 0.33855 0.66105 0.0
C972 C 0.11367 0.42984 0.6334 0.0
C973 C 0.15258 0.38511 0.62734 0.0
C974 C 0.08899 0.44809 0.61873 0.0
C975 C 0.08085 0.44521 0.58237 0.0
C976 C 0.12992 0.40803 0.61167 0.0
C977 C 0.09915 0.42468 0.5612 0.0
C978 C 0.16171 0.35745 0.60783 0.0
C979 C 0.18017 0.36744 0.67911 0.0
N980 N 0.12246 0.40643 0.57624 0.0
N981 N 0.16251 0.38935 0.66217 0.0
H982 H 0.72701 0.21389 0.63922 0.0
H983 H 0.53696 0.1269 0.56962 0.0
H984 H 0.63335 0.22467 0.69466 0.0
H985 H 0.63208 0.08278 0.55713 0.0
H986 H 0.57171 0.17642 0.59936 0.0
H987 H 0.69129 0.17983 0.59268 0.0
C988 C 0.69883 0.20937 0.64123 0.0
C989 C 0.68296 0.22116 0.67089 0.0
C990 C 0.58492 0.15616 0.58935 0.0
C991 C 0.64212 0.18309 0.61793 0.0
C992 C 0.56526 0.12808 0.57226 0.0
C993 C 0.58182 0.10076 0.56129 0.0
C994 C 0.6213 0.15699 0.59471 0.0
C995 C 0.61841 0.10327 0.56559 0.0
C996 C 0.67851 0.1902 0.61469 0.0
C997 C 0.64633 0.2157 0.67207 0.0
N998 N 0.63697 0.13088 0.58216 0.0
N999 N 0.62699 0.19658 0.64603 0.0
H1000 H 0.81226 0.2781 0.36346 0.0
H1001 H 0.92868 0.45433 0.37204 0.0
H1002 H 0.78708 0.35758 0.29894 0.0
H1003 H 0.91711 0.39597 0.46425 0.0
H1004 H 0.87966 0.41713 0.34251 0.0
H1005 H 0.85354 0.31888 0.39927 0.0
C1006 C 0.81512 0.30415 0.35709 0.0
C1007 C 0.79628 0.31446 0.32815 0.0
C1008 C 0.88767 0.41268 0.36932 0.0
C1009 C 0.84378 0.3609 0.36844 0.0
C1010 C 0.91571 0.43374 0.38607 0.0
C1011 C 0.927 0.42806 0.42051 0.0
C1012 C 0.87136 0.38531 0.38684 0.0
C1013 C 0.90913 0.40121 0.43767 0.0
C1014 C 0.83857 0.32737 0.37755 0.0
C1015 C 0.80095 0.34854 0.32108 0.0
N1016 N 0.88246 0.38048 0.42045 0.0
N1017 N 0.82464 0.37046 0.34075 0.0
H1018 H 0.62202 0.81156 0.30406 0.0
H1019 H 0.59182 0.96197 0.43608 0.0
H1020 H 0.70485 0.89053 0.3388 0.0
H1021 H 0.50753 0.90777 0.36975 0.0
H1022 H 0.63372 0.93251 0.40496 0.0
H1023 H 0.57956 0.84234 0.33322 0.0
C1024 C 0.63131 0.8352 0.3181 0.0
C1025 C 0.667 0.84853 0.31909 0.0
C1026 C 0.60611 0.92725 0.39699 0.0
C1027 C 0.6187 0.88374 0.35224 0.0
C1028 C 0.58219 0.94402 0.41472 0.0
C1029 C 0.5462 0.93727 0.4054 0.0
C1030 C 0.59393 0.90308 0.37014 0.0
C1031 C 0.53512 0.91385 0.37753 0.0
C1032 C 0.60704 0.85285 0.33441 0.0
C1033 C 0.67757 0.87938 0.33735 0.0
N1034 N 0.55891 0.89726 0.36107 0.0
N1035 N 0.65354 0.89588 0.35334 0.0
H1036 H 0.11572 0.75604 0.36161 0.0
H1037 H 0.11794 0.5783 0.43682 0.0
H1038 H 0.20785 0.70574 0.3652 0.0
H1039 H 0.03433 0.63715 0.45568 0.0
H1040 H 0.15382 0.62758 0.41683 0.0
H1041 H 0.08786 0.7163 0.40192 0.0
C1042 C 0.13024 0.73686 0.3712 0.0
C1043 C 0.16382 0.73367 0.35945 0.0
C1044 C 0.12785 0.62997 0.4258 0.0
C1045 C 0.13211 0.68816 0.4054 0.0
C1046 C 0.10731 0.6018 0.43704 0.0
C1047 C 0.07297 0.60367 0.44717 0.0
C1048 C 0.11364 0.66007 0.42396 0.0
C1049 C 0.06063 0.63474 0.44771 0.0
C1050 C 0.11438 0.71428 0.39434 0.0
C1051 C 0.18169 0.70876 0.37316 0.0
N1052 N 0.08076 0.6617 0.4355 0.0
N1053 N 0.16537 0.6866 0.39499 0.0
H1054 H 0.28911 0.14624 0.3482 0.0
H1055 H 0.458 0.12138 0.46275 0.0
H1056 H 0.384 0.21702 0.3546 0.0
H1057 H 0.36595 0.04805 0.44313 0.0
H1058 H 0.42551 0.16393 0.43882 0.0
H1059 H 0.31075 0.11867 0.39822 0.0
C1060 C 0.3145 0.15615 0.36045 0.0
C1061 C 0.33531 0.18334 0.34686 0.0
C1062 C 0.41223 0.1387 0.44053 0.0
C1063 C 0.36071 0.15131 0.4036 0.0
C1064 C 0.43067 0.11442 0.45426 0.0
C1065 C 0.4148 0.08101 0.45391 0.0
C1066 C 0.37782 0.12932 0.42663 0.0
C1067 C 0.37939 0.07337 0.44293 0.0
C1068 C 0.32681 0.14044 0.3891 0.0
C1069 C 0.36756 0.19569 0.36411 0.0
N1070 N 0.36224 0.09727 0.42923 0.0
N1071 N 0.37978 0.17899 0.39124 0.0
H1072 H 0.62036 0.77018 0.64677 0.0
H1073 H 0.62975 0.93988 0.54975 0.0
H1074 H 0.71304 0.84277 0.64198 0.0
H1075 H 0.53586 0.86808 0.54886 0.0
H1076 H 0.66371 0.89788 0.57165 0.0
H1077 H 0.59176 0.79881 0.60028 0.0
C1078 C 0.63481 0.79173 0.63547 0.0
C1079 C 0.6686 0.80481 0.64872 0.0
C1080 C 0.63576 0.89101 0.56619 0.0
C1081 C 0.63657 0.83729 0.59595 0.0
C1082 C 0.61643 0.91504 0.55372 0.0
C1083 C 0.58 0.90753 0.54828 0.0
C1084 C 0.61832 0.85957 0.5742 0.0
C1085 C 0.56397 0.87486 0.55312 0.0
C1086 C 0.61859 0.80802 0.60901 0.0
C1087 C 0.68652 0.83249 0.63313 0.0
N1088 N 0.58315 0.85219 0.56667 0.0
N1089 N 0.67015 0.84802 0.60788 0.0
H1090 H 0.64791 0.12217 0.26306 0.0
H1091 H 0.57728 0.08882 0.45319 0.0
H1092 H 0.6736 0.19294 0.35163 0.0
H1093 H 0.52383 0.0411 0.35846 0.0
H1094 H 0.61591 0.12476 0.41683 0.0
H1095 H 0.60395 0.09034 0.2977 0.0
C1096 C 0.64388 0.13124 0.28965 0.0
C1097 C 0.66437 0.16011 0.30461 0.0
C1098 C 0.59562 0.10649 0.40407 0.0
C1099 C 0.61487 0.12356 0.3445 0.0
C1100 C 0.5738 0.08577 0.42475 0.0
C1101 C 0.54736 0.06189 0.40878 0.0
C1102 C 0.59129 0.10295 0.3672 0.0
C1103 C 0.54382 0.05924 0.37184 0.0
C1104 C 0.61887 0.11308 0.30938 0.0
C1105 C 0.65818 0.17087 0.3391 0.0
N1106 N 0.5657 0.0794 0.35227 0.0
N1107 N 0.63428 0.15229 0.35812 0.0
H1108 H 0.82374 0.68637 0.39992 0.0
H1109 H 0.93086 0.53364 0.37487 0.0
H1110 H 0.81355 0.6212 0.30589 0.0
H1111 H 0.91389 0.57625 0.47785 0.0
H1112 H 0.88718 0.56532 0.34942 0.0
H1113 H 0.85584 0.64641 0.42971 0.0
C1114 C 0.82783 0.66352 0.38567 0.0
C1115 C 0.81619 0.65734 0.35022 0.0
C1116 C 0.89264 0.56745 0.37765 0.0
C1117 C 0.85321 0.61178 0.38399 0.0
C1118 C 0.91764 0.54942 0.39216 0.0
C1119 C 0.92615 0.55248 0.42845 0.0
C1120 C 0.87648 0.58926 0.39947 0.0
C1121 C 0.90804 0.57313 0.4497 0.0
C1122 C 0.84611 0.6407 0.40271 0.0
C1123 C 0.82217 0.62721 0.33314 0.0
N1124 N 0.88444 0.59117 0.43482 0.0
N1125 N 0.84063 0.60583 0.35002 0.0
H1126 H 0.2863 0.82457 0.31231 0.0
H1127 H 0.4464 0.8568 0.44149 0.0
H1128 H 0.33558 0.74017 0.34363 0.0
H1129 H 0.36041 0.9149 0.447 0.0
H1130 H 0.40671 0.81125 0.41014 0.0
H1131 H 0.31274 0.85654 0.36413 0.0
C1132 C 0.30163 0.81229 0.33089 0.0
C1133 C 0.30756 0.77925 0.32429 0.0
C1134 C 0.39636 0.83358 0.41926 0.0
C1135 C 0.34036 0.81671 0.38278 0.0
C1136 C 0.41893 0.8595 0.4372 0.0
C1137 C 0.40675 0.88987 0.44597 0.0
C1138 C 0.36177 0.83851 0.41002 0.0
C1139 C 0.37102 0.89216 0.43984 0.0
C1140 C 0.31714 0.83074 0.36038 0.0
C1141 C 0.32981 0.76545 0.34811 0.0
N1142 N 0.34997 0.86713 0.4216 0.0
N1143 N 0.34601 0.7845 0.37609 0.0
H1144 H 0.1294 0.26631 0.35039 0.0
H1145 H 0.11495 0.45539 0.40986 0.0
H1146 H 0.20448 0.34982 0.32426 0.0
H1147 H 0.04655 0.37159 0.44647 0.0
H1148 H 0.15027 0.41682 0.38211 0.0
H1149 H 0.10153 0.30366 0.3892 0.0
C1150 C 0.14036 0.29247 0.35316 0.0
C1151 C 0.16928 0.30494 0.3338 0.0
C1152 C 0.12775 0.40676 0.39643 0.0
C1153 C 0.13702 0.34809 0.37808 0.0
C1154 C 0.10739 0.42882 0.41228 0.0
C1155 C 0.07733 0.4168 0.43029 0.0
C1156 C 0.118 0.37217 0.39811 0.0
C1157 C 0.06936 0.38206 0.43283 0.0
C1158 C 0.12435 0.31381 0.37536 0.0
C1159 C 0.18233 0.33905 0.33865 0.0
N1160 N 0.08931 0.36098 0.41656 0.0
N1161 N 0.16586 0.35947 0.35995 0.0
H1162 H 0.28912 0.10106 0.66473 0.0
H1163 H 0.48823 0.07595 0.63501 0.0
H1164 H 0.37706 0.17381 0.70161 0.0
H1165 H 0.40204 0.02867 0.56632 0.0
H1166 H 0.44707 0.10617 0.66689 0.0
H1167 H 0.32972 0.06894 0.63448 0.0
C1168 C 0.31695 0.11032 0.66633 0.0
C1169 C 0.32977 0.14018 0.68555 0.0
C1170 C 0.43722 0.08905 0.64492 0.0
C1171 C 0.37624 0.10335 0.65166 0.0
C1172 C 0.46059 0.07159 0.62696 0.0
C1173 C 0.44849 0.04988 0.59796 0.0
C1174 C 0.40149 0.08433 0.63411 0.0
C1175 C 0.41247 0.04538 0.58841 0.0
C1176 C 0.34005 0.09201 0.64909 0.0
C1177 C 0.36605 0.15106 0.68682 0.0
N1178 N 0.3902 0.06244 0.60648 0.0
N1179 N 0.38808 0.1325 0.67031 0.0
H1180 H 0.79776 0.30105 0.65896 0.0
H1181 H 0.97885 0.36377 0.57065 0.0
H1182 H 0.89524 0.26356 0.68404 0.0
H1183 H 0.88818 0.41588 0.56819 0.0
H1184 H 0.94471 0.3182 0.60048 0.0
H1185 H 0.8273 0.3354 0.61488 0.0
C1186 C 0.82538 0.30002 0.65518 0.0
C1187 C 0.84423 0.27985 0.67557 0.0
C1188 C 0.93216 0.33934 0.59275 0.0
C1189 C 0.87808 0.31882 0.62496 0.0
C1190 C 0.95147 0.36507 0.57547 0.0
C1191 C 0.93621 0.39351 0.5674 0.0
C1192 C 0.89747 0.34226 0.60154 0.0
C1193 C 0.90086 0.39438 0.57441 0.0
C1194 C 0.84219 0.31954 0.62993 0.0
C1195 C 0.87986 0.27918 0.66924 0.0
N1196 N 0.88274 0.36927 0.59138 0.0
N1197 N 0.89572 0.29857 0.64459 0.0
H1198 H 0.22924 0.64213 0.70284 0.0
H1199 H 0.08559 0.60318 0.54557 0.0
H1200 H 0.18131 0.72068 0.65507 0.0
H1201 H 0.08213 0.54307 0.63671 0.0
H1202 H 0.13379 0.64177 0.57501 0.0
H1203 H 0.18799 0.60058 0.66768 0.0
C1204 C 0.21046 0.65062 0.68457 0.0
C1205 C 0.20837 0.68483 0.68206 0.0
C1206 C 0.12262 0.61993 0.5883 0.0
C1207 C 0.16201 0.63771 0.64154 0.0
C1208 C 0.0953 0.5979 0.57158 0.0
C1209 C 0.07977 0.57013 0.58897 0.0
C1210 C 0.13504 0.61358 0.62216 0.0
C1211 C 0.09322 0.56444 0.62266 0.0
C1212 C 0.18693 0.62696 0.66473 0.0
C1213 C 0.18354 0.69451 0.65797 0.0
N1214 N 0.12026 0.58597 0.63818 0.0
N1215 N 0.16135 0.67104 0.63851 0.0
loop_
_geom_bond_atom_site_label_1
_geom_bond_atom_site_label_2
_geom_bond_distance
_geom_bond_site_symmetry_2
_ccdc_geom_bond_type
Zn0 O6 1.969 . S
Zn0 O7 1.965 . S
Zn0 O11 2.024 . S
Zn0 O16 1.969 . S
Zn1 O8 1.969 . S
Zn1 O14 1.969 . S
Zn1 O15 1.965 . S
Zn1 O17 2.024 . S
C2 O3 1.229 . S
C2 O11 1.058 . S
O3 C2 1.229 . S
C4 O5 1.229 . S
C4 O17 1.058 . S
O5 C4 1.229 . S
O6 Zn0 1.969 . S
O6 C9 1.267 . S
O7 Zn0 1.965 . S
O7 C18 1.260 . S
O8 Zn1 1.969 . S
O8 C18 1.258 . S
C9 O6 1.267 . S
C9 O10 1.228 . S
O10 C9 1.228 . S
O11 Zn0 2.024 . S
O11 C2 1.058 . S
C12 O13 1.228 . S
C12 O14 1.267 . S
O13 C12 1.228 . S
O14 Zn1 1.969 . S
O14 C12 1.267 . S
O15 Zn1 1.965 . S
O15 C19 1.260 . S
O16 Zn0 1.969 . S
O16 C19 1.258 . S
O17 Zn1 2.024 . S
O17 C4 1.058 . S
C18 O7 1.260 . S
C18 O8 1.258 . S
C19 O15 1.260 . S
C19 O16 1.258 . S
Zn20 O26 1.969 . S
Zn20 O27 1.965 . S
Zn20 O31 2.024 . S
Zn20 O36 1.969 . S
Zn21 O28 1.969 . S
Zn21 O34 1.969 . S
Zn21 O35 1.965 . S
Zn21 O37 2.024 . S
C22 O23 1.229 . S
C22 O31 1.058 . S
O23 C22 1.229 . S
C24 O25 1.229 . S
C24 O37 1.058 . S
O25 C24 1.229 . S
O26 Zn20 1.969 . S
O26 C29 1.267 . S
O27 Zn20 1.965 . S
O27 C38 1.260 . S
O28 Zn21 1.969 . S
O28 C38 1.258 . S
C29 O26 1.267 . S
C29 O30 1.228 . S
O30 C29 1.228 . S
O31 Zn20 2.024 . S
O31 C22 1.058 . S
C32 O33 1.228 . S
C32 O34 1.267 . S
O33 C32 1.228 . S
O34 Zn21 1.969 . S
O34 C32 1.267 . S
O35 Zn21 1.965 . S
O35 C39 1.260 . S
O36 Zn20 1.969 . S
O36 C39 1.258 . S
O37 Zn21 2.024 . S
O37 C24 1.058 . S
C38 O27 1.260 . S
C38 O28 1.258 . S
C39 O35 1.260 . S
C39 O36 1.258 . S
Zn40 O46 1.969 . S
Zn40 O47 1.965 . S
Zn40 O51 2.024 . S
Zn40 O56 1.969 . S
Zn41 O48 1.969 . S
Zn41 O54 1.969 . S
Zn41 O55 1.965 . S
Zn41 O57 2.024 . S
C42 O43 1.229 . S
C42 O51 1.058 . S
O43 C42 1.229 . S
C44 O45 1.229 . S
C44 O57 1.058 . S
O45 C44 1.229 . S
O46 Zn40 1.969 . S
O46 C49 1.267 . S
O47 Zn40 1.965 . S
O47 C58 1.260 . S
O48 Zn41 1.969 . S
O48 C58 1.258 . S
C49 O46 1.267 . S
C49 O50 1.228 . S
O50 C49 1.228 . S
O51 Zn40 2.024 . S
O51 C42 1.058 . S
C52 O53 1.228 . S
C52 O54 1.267 . S
O53 C52 1.228 . S
O54 Zn41 1.969 . S
O54 C52 1.267 . S
O55 Zn41 1.965 . S
O55 C59 1.260 . S
O56 Zn40 1.969 . S
O56 C59 1.258 . S
O57 Zn41 2.024 . S
O57 C44 1.058 . S
C58 O47 1.260 . S
C58 O48 1.258 . S
C59 O55 1.260 . S
C59 O56 1.258 . S
Zn60 O66 1.969 . S
Zn60 O67 1.965 . S
Zn60 O71 2.024 . S
Zn60 O76 1.969 . S
Zn61 O68 1.969 . S
Zn61 O74 1.969 . S
Zn61 O75 1.965 . S
Zn61 O77 2.024 . S
C62 O63 1.229 . S
C62 O71 1.058 . S
O63 C62 1.229 . S
C64 O65 1.229 . S
C64 O77 1.058 . S
O65 C64 1.229 . S
O66 Zn60 1.969 . S
O66 C69 1.267 . S
O67 Zn60 1.965 . S
O67 C78 1.260 . S
O68 Zn61 1.969 . S
O68 C78 1.258 . S
C69 O66 1.267 . S
C69 O70 1.228 . S
O70 C69 1.228 . S
O71 Zn60 2.024 . S
O71 C62 1.058 . S
C72 O73 1.228 . S
C72 O74 1.267 . S
O73 C72 1.228 . S
O74 Zn61 1.969 . S
O74 C72 1.267 . S
O75 Zn61 1.965 . S
O75 C79 1.260 . S
O76 Zn60 1.969 . S
O76 C79 1.258 . S
O77 Zn61 2.024 . S
O77 C64 1.058 . S
C78 O67 1.260 . S
C78 O68 1.258 . S
C79 O75 1.260 . S
C79 O76 1.258 . S
Zn80 O86 1.969 . S
Zn80 O87 1.965 . S
Zn80 O91 2.024 . S
Zn80 O96 1.969 . S
Zn81 O88 1.969 . S
Zn81 O94 1.969 . S
Zn81 O95 1.965 . S
Zn81 O97 2.024 . S
C82 O83 1.229 . S
C82 O91 1.058 . S
O83 C82 1.229 . S
C84 O85 1.229 . S
C84 O97 1.058 . S
O85 C84 1.229 . S
O86 Zn80 1.969 . S
O86 C89 1.267 . S
O87 Zn80 1.965 . S
O87 C98 1.260 . S
O88 Zn81 1.969 . S
O88 C98 1.258 . S
C89 O86 1.267 . S
C89 O90 1.228 . S
O90 C89 1.228 . S
O91 Zn80 2.024 . S
O91 C82 1.058 . S
C92 O93 1.228 . S
C92 O94 1.267 . S
O93 C92 1.228 . S
O94 Zn81 1.969 . S
O94 C92 1.267 . S
O95 Zn81 1.965 . S
O95 C99 1.260 . S
O96 Zn80 1.969 . S
O96 C99 1.258 . S
O97 Zn81 2.024 . S
O97 C84 1.058 . S
C98 O87 1.260 . S
C98 O88 1.258 . S
C99 O95 1.260 . S
C99 O96 1.258 . S
Zn100 O106 1.969 . S
Zn100 O107 1.965 . S
Zn100 O111 2.024 . S
Zn100 O116 1.969 . S
Zn101 O108 1.969 . S
Zn101 O114 1.969 . S
Zn101 O115 1.965 . S
Zn101 O117 2.024 . S
C102 O103 1.229 . S
C102 O111 1.058 . S
O103 C102 1.229 . S
C104 O105 1.229 . S
C104 O117 1.058 . S
O105 C104 1.229 . S
O106 Zn100 1.969 . S
O106 C109 1.267 . S
O107 Zn100 1.965 . S
O107 C118 1.260 . S
O108 Zn101 1.969 . S
O108 C118 1.258 . S
C109 O106 1.267 . S
C109 O110 1.228 . S
O110 C109 1.228 . S
O111 Zn100 2.024 . S
O111 C102 1.058 . S
C112 O113 1.228 . S
C112 O114 1.267 . S
O113 C112 1.228 . S
O114 Zn101 1.969 . S
O114 C112 1.267 . S
O115 Zn101 1.965 . S
O115 C119 1.260 . S
O116 Zn100 1.969 . S
O116 C119 1.258 . S
O117 Zn101 2.024 . S
O117 C104 1.058 . S
C118 O107 1.260 . S
C118 O108 1.258 . S
C119 O115 1.260 . S
C119 O116 1.258 . S
Zn120 O126 1.969 . S
Zn120 O127 1.965 . S
Zn120 O131 2.024 . S
Zn120 O136 1.969 . S
Zn121 O128 1.969 . S
Zn121 O134 1.969 . S
Zn121 O135 1.965 . S
Zn121 O137 2.024 . S
C122 O123 1.229 . S
C122 O131 1.058 . S
O123 C122 1.229 . S
C124 O125 1.229 . S
C124 O137 1.058 . S
O125 C124 1.229 . S
O126 Zn120 1.969 . S
O126 C129 1.267 . S
O127 Zn120 1.965 . S
O127 C138 1.260 . S
O128 Zn121 1.969 . S
O128 C138 1.258 . S
C129 O126 1.267 . S
C129 O130 1.228 . S
O130 C129 1.228 . S
O131 Zn120 2.024 . S
O131 C122 1.058 . S
C132 O133 1.228 . S
C132 O134 1.267 . S
O133 C132 1.228 . S
O134 Zn121 1.969 . S
O134 C132 1.267 . S
O135 Zn121 1.965 . S
O135 C139 1.260 . S
O136 Zn120 1.969 . S
O136 C139 1.258 . S
O137 Zn121 2.024 . S
O137 C124 1.058 . S
C138 O127 1.260 . S
C138 O128 1.258 . S
C139 O135 1.260 . S
C139 O136 1.258 . S
Zn140 O146 1.969 . S
Zn140 O147 1.965 . S
Zn140 O151 2.024 . S
Zn140 O156 1.969 . S
Zn141 O148 1.969 . S
Zn141 O154 1.969 . S
Zn141 O155 1.965 . S
Zn141 O157 2.024 . S
C142 O143 1.229 . S
C142 O151 1.058 . S
O143 C142 1.229 . S
C144 O145 1.229 . S
C144 O157 1.058 . S
O145 C144 1.229 . S
O146 Zn140 1.969 . S
O146 C149 1.267 . S
O147 Zn140 1.965 . S
O147 C158 1.260 . S
O148 Zn141 1.969 . S
O148 C158 1.258 . S
C149 O146 1.267 . S
C149 O150 1.228 . S
O150 C149 1.228 . S
O151 Zn140 2.024 . S
O151 C142 1.058 . S
C152 O153 1.228 . S
C152 O154 1.267 . S
O153 C152 1.228 . S
O154 Zn141 1.969 . S
O154 C152 1.267 . S
O155 Zn141 1.965 . S
O155 C159 1.260 . S
O156 Zn140 1.969 . S
O156 C159 1.258 . S
O157 Zn141 2.024 . S
O157 C144 1.058 . S
C158 O147 1.260 . S
C158 O148 1.258 . S
C159 O155 1.260 . S
C159 O156 1.258 . S
Fe160 O161 1.886 1_455 S
Fe160 O164 1.715 . S
Fe160 O169 2.077 1_455 S
Fe160 O174 1.935 . S
Fe160 O180 2.077 1_455 S
Fe160 O189 1.935 . S
O161 Fe160 1.886 1_655 S
O161 Fe163 1.715 1_545 S
Fe162 O164 1.886 . S
Fe162 O165 1.715 1_545 S
Fe162 O172 1.935 1_545 S
Fe162 O173 2.077 . S
Fe162 O179 1.935 1_545 S
Fe162 O188 2.077 . S
Fe163 O161 1.715 1_565 S
Fe163 O166 1.886 . S
Fe163 O170 1.935 1_565 S
Fe163 O175 2.077 . S
Fe163 O181 1.935 1_565 S
Fe163 O185 2.077 . S
O164 Fe160 1.715 . S
O164 Fe162 1.886 . S
O165 Fe162 1.715 1_565 S
O165 Fe167 1.886 1_455 S
O166 Fe163 1.886 . S
O166 Fe167 1.715 . S
Fe167 O165 1.886 1_655 S
Fe167 O166 1.715 . S
Fe167 O171 2.077 1_655 S
Fe167 O176 1.935 . S
Fe167 O178 2.077 1_655 S
Fe167 O186 1.935 . S
C168 O180 1.381 . S
C168 O181 1.421 . S
O169 Fe160 2.077 1_655 S
O169 C182 1.381 . S
O170 Fe163 1.935 1_545 S
O170 C182 1.421 . S
O171 Fe167 2.077 1_455 S
O171 C187 1.381 . S
O172 Fe162 1.935 1_565 S
O172 C187 1.421 . S
O173 Fe162 2.077 . S
O173 C177 1.381 . S
O174 Fe160 1.935 . S
O174 C177 1.421 . S
O175 Fe163 2.077 . S
O175 C183 1.381 . S
O176 Fe167 1.935 . S
O176 C183 1.421 . S
C177 O173 1.381 . S
C177 O174 1.421 . S
O178 Fe167 2.077 1_455 S
O178 C190 1.381 . S
O179 Fe162 1.935 1_565 S
O179 C190 1.421 . S
O180 Fe160 2.077 1_655 S
O180 C168 1.381 . S
O181 Fe163 1.935 1_545 S
O181 C168 1.421 . S
C182 O169 1.381 . S
C182 O170 1.421 . S
C183 O175 1.381 . S
C183 O176 1.421 . S
C184 O185 1.381 . S
C184 O186 1.421 . S
O185 Fe163 2.077 . S
O185 C184 1.381 . S
O186 Fe167 1.935 . S
O186 C184 1.421 . S
C187 O171 1.381 . S
C187 O172 1.421 . S
O188 Fe162 2.077 . S
O188 C191 1.381 . S
O189 Fe160 1.935 . S
O189 C191 1.421 . S
C190 O178 1.381 . S
C190 O179 1.421 . S
C191 O188 1.381 . S
C191 O189 1.421 . S
Fe192 O193 1.887 1_556 S
Fe192 O196 1.715 . S
Fe192 O201 2.077 . S
Fe192 O206 1.935 . S
Fe192 O212 2.077 1_556 S
Fe192 O221 1.935 1_556 S
O193 Fe192 1.887 1_554 S
O193 Fe195 1.714 1_565 S
Fe194 O196 1.886 . S
Fe194 O197 1.715 1_565 S
Fe194 O204 1.935 1_565 S
Fe194 O205 2.077 . S
Fe194 O211 1.935 1_566 S
Fe194 O220 2.077 1_556 S
Fe195 O193 1.714 1_545 S
Fe195 O198 1.886 . S
Fe195 O202 1.935 1_544 S
Fe195 O207 2.077 1_554 S
Fe195 O213 1.935 1_545 S
Fe195 O217 2.077 . S
O196 Fe192 1.715 . S
O196 Fe194 1.886 . S
O197 Fe194 1.715 1_545 S
O197 Fe199 1.886 1_556 S
O198 Fe195 1.886 . S
O198 Fe199 1.715 . S
Fe199 O197 1.886 1_554 S
Fe199 O198 1.715 . S
Fe199 O203 2.077 1_554 S
Fe199 O208 1.935 1_554 S
Fe199 O210 2.077 . S
Fe199 O218 1.935 . S
C200 O212 1.381 . S
C200 O213 1.421 . S
O201 Fe192 2.077 . S
O201 C214 1.381 . S
O202 Fe195 1.935 1_566 S
O202 C214 1.421 . S
O203 Fe199 2.077 1_556 S
O203 C219 1.381 . S
O204 Fe194 1.935 1_545 S
O204 C219 1.421 . S
O205 Fe194 2.077 . S
O205 C209 1.381 . S
O206 Fe192 1.935 . S
O206 C209 1.421 . S
O207 Fe195 2.077 1_556 S
O207 C215 1.381 . S
O208 Fe199 1.935 1_556 S
O208 C215 1.421 . S
C209 O205 1.381 . S
C209 O206 1.421 . S
O210 Fe199 2.077 . S
O210 C222 1.381 . S
O211 Fe194 1.935 1_544 S
O211 C222 1.421 . S
O212 Fe192 2.077 1_554 S
O212 C200 1.381 . S
O213 Fe195 1.935 1_565 S
O213 C200 1.421 . S
C214 O201 1.381 . S
C214 O202 1.421 . S
C215 O207 1.381 . S
C215 O208 1.421 . S
C216 O217 1.381 . S
C216 O218 1.421 . S
O217 Fe195 2.077 . S
O217 C216 1.381 . S
O218 Fe199 1.935 . S
O218 C216 1.421 . S
C219 O203 1.381 . S
C219 O204 1.421 . S
O220 Fe194 2.077 1_554 S
O220 C223 1.381 . S
O221 Fe192 1.935 1_554 S
O221 C223 1.421 . S
C222 O210 1.381 . S
C222 O211 1.421 . S
C223 O220 1.381 . S
C223 O221 1.421 . S
Fe224 O225 1.886 1_454 S
Fe224 O228 1.715 . S
Fe224 O233 2.077 1_454 S
Fe224 O238 1.935 1_554 S
Fe224 O244 2.077 1_455 S
Fe224 O253 1.935 . S
O225 Fe224 1.886 1_656 S
O225 Fe227 1.715 . S
Fe226 O228 1.886 . S
Fe226 O229 1.714 . S
Fe226 O236 1.935 1_554 S
Fe226 O237 2.077 1_554 S
Fe226 O243 1.935 . S
Fe226 O252 2.077 . S
Fe227 O225 1.715 . S
Fe227 O230 1.886 . S
Fe227 O234 1.935 . S
Fe227 O239 2.077 . S
Fe227 O245 1.935 1_556 S
Fe227 O249 2.077 1_556 S
O228 Fe224 1.715 . S
O228 Fe226 1.886 . S
O229 Fe226 1.714 . S
O229 Fe231 1.887 1_454 S
O230 Fe227 1.886 . S
O230 Fe231 1.715 . S
Fe231 O229 1.887 1_656 S
Fe231 O230 1.715 . S
Fe231 O235 2.077 1_655 S
Fe231 O240 1.935 . S
Fe231 O242 2.077 1_656 S
Fe231 O250 1.935 1_556 S
C232 O244 1.381 . S
C232 O245 1.421 . S
O233 Fe224 2.077 1_656 S
O233 C246 1.381 . S
O234 Fe227 1.935 . S
O234 C246 1.421 . S
O235 Fe231 2.077 1_455 S
O235 C251 1.381 . S
O236 Fe226 1.935 1_556 S
O236 C251 1.421 . S
O237 Fe226 2.077 1_556 S
O237 C241 1.381 . S
O238 Fe224 1.935 1_556 S
O238 C241 1.421 . S
O239 Fe227 2.077 . S
O239 C247 1.381 . S
O240 Fe231 1.935 . S
O240 C247 1.421 . S
C241 O237 1.381 . S
C241 O238 1.421 . S
O242 Fe231 2.077 1_454 S
O242 C254 1.381 . S
O243 Fe226 1.935 . S
O243 C254 1.421 . S
O244 Fe224 2.077 1_655 S
O244 C232 1.381 . S
O245 Fe227 1.935 1_554 S
O245 C232 1.421 . S
C246 O233 1.381 . S
C246 O234 1.421 . S
C247 O239 1.381 . S
C247 O240 1.421 . S
C248 O249 1.381 . S
C248 O250 1.421 . S
O249 Fe227 2.077 1_554 S
O249 C248 1.381 . S
O250 Fe231 1.935 1_554 S
O250 C248 1.421 . S
C251 O235 1.381 . S
C251 O236 1.421 . S
O252 Fe226 2.077 . S
O252 C255 1.381 . S
O253 Fe224 1.935 . S
O253 C255 1.421 . S
C254 O242 1.381 . S
C254 O243 1.421 . S
C255 O252 1.381 . S
C255 O253 1.421 . S
Fe256 O257 1.886 . S
Fe256 O260 1.715 . S
Fe256 O265 2.077 . S
Fe256 O270 1.935 . S
Fe256 O276 2.077 . S
Fe256 O285 1.935 . S
O257 Fe256 1.886 . S
O257 Fe259 1.715 1_556 S
Fe258 O260 1.886 . S
Fe258 O261 1.715 1_556 S
Fe258 O268 1.935 1_556 S
Fe258 O269 2.077 . S
Fe258 O275 1.935 1_556 S
Fe258 O284 2.077 . S
Fe259 O257 1.715 1_554 S
Fe259 O262 1.886 . S
Fe259 O266 1.935 1_554 S
Fe259 O271 2.077 . S
Fe259 O277 1.935 1_554 S
Fe259 O281 2.077 . S
O260 Fe256 1.715 . S
O260 Fe258 1.886 . S
O261 Fe258 1.715 1_554 S
O261 Fe263 1.886 . S
O262 Fe259 1.886 . S
O262 Fe263 1.715 . S
Fe263 O261 1.886 . S
Fe263 O262 1.715 . S
Fe263 O267 2.077 . S
Fe263 O272 1.935 . S
Fe263 O274 2.077 . S
Fe263 O282 1.935 . S
C264 O276 1.381 . S
C264 O277 1.421 . S
O265 Fe256 2.077 . S
O265 C278 1.381 . S
O266 Fe259 1.935 1_556 S
O266 C278 1.421 . S
O267 Fe263 2.077 . S
O267 C283 1.381 . S
O268 Fe258 1.935 1_554 S
O268 C283 1.421 . S
O269 Fe258 2.077 . S
O269 C273 1.381 . S
O270 Fe256 1.935 . S
O270 C273 1.421 . S
O271 Fe259 2.077 . S
O271 C279 1.381 . S
O272 Fe263 1.935 . S
O272 C279 1.421 . S
C273 O269 1.381 . S
C273 O270 1.421 . S
O274 Fe263 2.077 . S
O274 C286 1.381 . S
O275 Fe258 1.935 1_554 S
O275 C286 1.421 . S
O276 Fe256 2.077 . S
O276 C264 1.381 . S
O277 Fe259 1.935 1_556 S
O277 C264 1.421 . S
C278 O265 1.381 . S
C278 O266 1.421 . S
C279 O271 1.381 . S
C279 O272 1.421 . S
C280 O281 1.381 . S
C280 O282 1.421 . S
O281 Fe259 2.077 . S
O281 C280 1.381 . S
O282 Fe263 1.935 . S
O282 C280 1.421 . S
C283 O267 1.381 . S
C283 O268 1.421 . S
O284 Fe258 2.077 . S
O284 C287 1.381 . S
O285 Fe256 1.935 . S
O285 C287 1.421 . S
C286 O274 1.381 . S
C286 O275 1.421 . S
C287 O284 1.381 . S
C287 O285 1.421 . S
Fe288 O289 1.885 . S
Fe288 O292 1.715 . S
Fe288 O297 2.077 1_655 S
Fe288 O302 1.935 1_655 S
Fe288 O308 2.077 . S
Fe288 O317 1.935 . S
O289 Fe288 1.885 . S
O289 Fe291 1.716 1_655 S
Fe290 O292 1.886 . S
Fe290 O293 1.717 1_655 S
Fe290 O300 1.935 1_655 S
Fe290 O301 2.077 1_655 S
Fe290 O307 1.935 . S
Fe290 O316 2.077 . S
Fe291 O289 1.716 1_455 S
Fe291 O294 1.886 . S
Fe291 O298 1.935 . S
Fe291 O303 2.077 . S
Fe291 O309 1.935 1_455 S
Fe291 O313 2.077 1_455 S
O292 Fe288 1.715 . S
O292 Fe290 1.886 . S
O293 Fe290 1.717 1_455 S
O293 Fe295 1.884 . S
O294 Fe291 1.886 . S
O294 Fe295 1.715 . S
Fe295 O293 1.884 . S
Fe295 O294 1.715 . S
Fe295 O299 2.077 . S
Fe295 O304 1.935 . S
Fe295 O306 2.077 1_455 S
Fe295 O314 1.935 1_455 S
C296 O308 1.381 . S
C296 O309 1.421 . S
O297 Fe288 2.077 1_455 S
O297 C310 1.381 . S
O298 Fe291 1.935 . S
O298 C310 1.421 . S
O299 Fe295 2.077 . S
O299 C315 1.381 . S
O300 Fe290 1.935 1_455 S
O300 C315 1.421 . S
O301 Fe290 2.077 1_455 S
O301 C305 1.381 . S
O302 Fe288 1.935 1_455 S
O302 C305 1.421 . S
O303 Fe291 2.077 . S
O303 C311 1.381 . S
O304 Fe295 1.935 . S
O304 C311 1.421 . S
C305 O301 1.381 . S
C305 O302 1.421 . S
O306 Fe295 2.077 1_655 S
O306 C318 1.381 . S
O307 Fe290 1.935 . S
O307 C318 1.421 . S
O308 Fe288 2.077 . S
O308 C296 1.381 . S
O309 Fe291 1.935 1_655 S
O309 C296 1.421 . S
C310 O297 1.381 . S
C310 O298 1.421 . S
C311 O303 1.381 . S
C311 O304 1.421 . S
C312 O313 1.381 . S
C312 O314 1.421 . S
O313 Fe291 2.077 1_655 S
O313 C312 1.381 . S
O314 Fe295 1.935 1_655 S
O314 C312 1.421 . S
C315 O299 1.381 . S
C315 O300 1.421 . S
O316 Fe290 2.077 . S
O316 C319 1.381 . S
O317 Fe288 1.935 . S
O317 C319 1.421 . S
C318 O306 1.381 . S
C318 O307 1.421 . S
C319 O316 1.381 . S
C319 O317 1.421 . S
Fe320 O321 1.886 . S
Fe320 O324 1.715 . S
Fe320 O329 2.077 . S
Fe320 O334 1.935 . S
Fe320 O340 2.077 . S
Fe320 O349 1.935 . S
O321 Fe320 1.886 . S
O321 Fe323 1.715 1_565 S
Fe322 O324 1.886 . S
Fe322 O325 1.715 1_565 S
Fe322 O332 1.935 1_565 S
Fe322 O333 2.077 . S
Fe322 O339 1.935 1_565 S
Fe322 O348 2.077 . S
Fe323 O321 1.715 1_545 S
Fe323 O326 1.886 . S
Fe323 O330 1.935 1_545 S
Fe323 O335 2.077 . S
Fe323 O341 1.935 1_545 S
Fe323 O345 2.077 . S
O324 Fe320 1.715 . S
O324 Fe322 1.886 . S
O325 Fe322 1.715 1_545 S
O325 Fe327 1.886 . S
O326 Fe323 1.886 . S
O326 Fe327 1.715 . S
Fe327 O325 1.886 . S
Fe327 O326 1.715 . S
Fe327 O331 2.077 . S
Fe327 O336 1.935 . S
Fe327 O338 2.077 . S
Fe327 O346 1.935 . S
C328 O340 1.381 . S
C328 O341 1.421 . S
O329 Fe320 2.077 . S
O329 C342 1.381 . S
O330 Fe323 1.935 1_565 S
O330 C342 1.421 . S
O331 Fe327 2.077 . S
O331 C347 1.381 . S
O332 Fe322 1.935 1_545 S
O332 C347 1.421 . S
O333 Fe322 2.077 . S
O333 C337 1.381 . S
O334 Fe320 1.935 . S
O334 C337 1.421 . S
O335 Fe323 2.077 . S
O335 C343 1.381 . S
O336 Fe327 1.935 . S
O336 C343 1.421 . S
C337 O333 1.381 . S
C337 O334 1.421 . S
O338 Fe327 2.077 . S
O338 C350 1.381 . S
O339 Fe322 1.935 1_545 S
O339 C350 1.421 . S
O340 Fe320 2.077 . S
O340 C328 1.381 . S
O341 Fe323 1.935 1_565 S
O341 C328 1.421 . S
C342 O329 1.381 . S
C342 O330 1.421 . S
C343 O335 1.381 . S
C343 O336 1.421 . S
C344 O345 1.381 . S
C344 O346 1.421 . S
O345 Fe323 2.077 . S
O345 C344 1.381 . S
O346 Fe327 1.935 . S
O346 C344 1.421 . S
C347 O331 1.381 . S
C347 O332 1.421 . S
O348 Fe322 2.077 . S
O348 C351 1.381 . S
O349 Fe320 1.935 . S
O349 C351 1.421 . S
C350 O338 1.381 . S
C350 O339 1.421 . S
C351 O348 1.381 . S
C351 O349 1.421 . S
H352 C358 0.930 . S
H353 C362 0.930 . S
H354 C367 0.929 . S
H355 C365 0.929 . S
H356 C360 0.929 . S
H357 C366 0.929 . S
C358 H352 0.930 . S
C358 C359 1.367 . S
C358 C366 1.378 . S
C359 C358 1.367 . S
C359 C367 1.433 . S
C360 H356 0.929 . S
C360 C362 1.378 . S
C360 C364 1.350 . S
C361 C364 1.463 . S
C361 C366 1.350 . S
C361 N369 1.427 . S
C362 H353 0.930 . S
C362 C360 1.378 . S
C362 C363 1.367 . S
C363 C362 1.367 . S
C363 C365 1.433 . S
C364 C360 1.350 . S
C364 C361 1.463 . S
C364 N368 1.427 . S
C365 H355 0.929 . S
C365 C363 1.433 . S
C365 N368 1.384 . S
C366 H357 0.929 . S
C366 C358 1.378 . S
C366 C361 1.350 . S
C367 H354 0.929 . S
C367 C359 1.433 . S
C367 N369 1.384 . S
N368 C364 1.427 . S
N368 C365 1.384 . S
N369 C361 1.427 . S
N369 C367 1.384 . S
H370 C376 0.930 . S
H371 C380 0.930 . S
H372 C385 0.929 . S
H373 C383 0.929 . S
H374 C378 0.929 . S
H375 C384 0.929 . S
C376 H370 0.930 . S
C376 C377 1.367 . S
C376 C384 1.378 . S
C377 C376 1.367 . S
C377 C385 1.433 . S
C378 H374 0.929 . S
C378 C380 1.378 . S
C378 C382 1.350 . S
C379 C382 1.463 . S
C379 C384 1.350 . S
C379 N387 1.427 . S
C380 H371 0.930 . S
C380 C378 1.378 . S
C380 C381 1.367 . S
C381 C380 1.367 . S
C381 C383 1.433 . S
C382 C378 1.350 . S
C382 C379 1.463 . S
C382 N386 1.427 . S
C383 H373 0.929 . S
C383 C381 1.433 . S
C383 N386 1.384 . S
C384 H375 0.929 . S
C384 C376 1.378 . S
C384 C379 1.350 . S
C385 H372 0.929 . S
C385 C377 1.433 . S
C385 N387 1.384 . S
N386 C382 1.427 . S
N386 C383 1.384 . S
N387 C379 1.427 . S
N387 C385 1.384 . S
H388 C394 0.930 . S
H389 C398 0.930 . S
H390 C403 0.929 . S
H391 C401 0.929 . S
H392 C396 0.929 . S
H393 C402 0.929 . S
C394 H388 0.930 . S
C394 C395 1.367 . S
C394 C402 1.378 . S
C395 C394 1.367 . S
C395 C403 1.433 . S
C396 H392 0.929 . S
C396 C398 1.378 . S
C396 C400 1.350 . S
C397 C400 1.463 . S
C397 C402 1.350 . S
C397 N405 1.427 . S
C398 H389 0.930 . S
C398 C396 1.378 . S
C398 C399 1.367 . S
C399 C398 1.367 . S
C399 C401 1.433 . S
C400 C396 1.350 . S
C400 C397 1.463 . S
C400 N404 1.427 . S
C401 H391 0.929 . S
C401 C399 1.433 . S
C401 N404 1.384 . S
C402 H393 0.929 . S
C402 C394 1.378 . S
C402 C397 1.350 . S
C403 H390 0.929 . S
C403 C395 1.433 . S
C403 N405 1.384 . S
N404 C400 1.427 . S
N404 C401 1.384 . S
N405 C397 1.427 . S
N405 C403 1.384 . S
H406 C412 0.930 . S
H407 C416 0.930 . S
H408 C421 0.929 . S
H409 C419 0.929 . S
H410 C414 0.929 . S
H411 C420 0.929 . S
C412 H406 0.930 . S
C412 C413 1.367 . S
C412 C420 1.378 . S
C413 C412 1.367 . S
C413 C421 1.433 . S
C414 H410 0.929 . S
C414 C416 1.378 . S
C414 C418 1.350 . S
C415 C418 1.463 . S
C415 C420 1.350 . S
C415 N423 1.427 . S
C416 H407 0.930 . S
C416 C414 1.378 . S
C416 C417 1.367 . S
C417 C416 1.367 . S
C417 C419 1.433 . S
C418 C414 1.350 . S
C418 C415 1.463 . S
C418 N422 1.427 . S
C419 H409 0.929 . S
C419 C417 1.433 . S
C419 N422 1.384 . S
C420 H411 0.929 . S
C420 C412 1.378 . S
C420 C415 1.350 . S
C421 H408 0.929 . S
C421 C413 1.433 . S
C421 N423 1.384 . S
N422 C418 1.427 . S
N422 C419 1.384 . S
N423 C415 1.427 . S
N423 C421 1.384 . S
H424 C430 0.930 . S
H425 C434 0.930 . S
H426 C439 0.929 . S
H427 C437 0.929 . S
H428 C432 0.929 . S
H429 C438 0.929 . S
C430 H424 0.930 . S
C430 C431 1.367 . S
C430 C438 1.378 . S
C431 C430 1.367 . S
C431 C439 1.433 . S
C432 H428 0.929 . S
C432 C434 1.378 . S
C432 C436 1.350 . S
C433 C436 1.463 . S
C433 C438 1.350 . S
C433 N441 1.427 . S
C434 H425 0.930 . S
C434 C432 1.378 . S
C434 C435 1.367 . S
C435 C434 1.367 . S
C435 C437 1.433 . S
C436 C432 1.350 . S
C436 C433 1.463 . S
C436 N440 1.427 . S
C437 H427 0.929 . S
C437 C435 1.433 . S
C437 N440 1.384 . S
C438 H429 0.929 . S
C438 C430 1.378 . S
C438 C433 1.350 . S
C439 H426 0.929 . S
C439 C431 1.433 . S
C439 N441 1.384 . S
N440 C436 1.427 . S
N440 C437 1.384 . S
N441 C433 1.427 . S
N441 C439 1.384 . S
H442 C448 0.930 . S
H443 C452 0.930 . S
H444 C457 0.929 . S
H445 C455 0.929 . S
H446 C450 0.929 . S
H447 C456 0.929 . S
C448 H442 0.930 . S
C448 C449 1.367 . S
C448 C456 1.378 . S
C449 C448 1.367 . S
C449 C457 1.433 . S
C450 H446 0.929 . S
C450 C452 1.378 . S
C450 C454 1.350 . S
C451 C454 1.463 . S
C451 C456 1.350 . S
C451 N459 1.427 . S
C452 H443 0.930 . S
C452 C450 1.378 . S
C452 C453 1.367 . S
C453 C452 1.367 . S
C453 C455 1.433 . S
C454 C450 1.350 . S
C454 C451 1.463 . S
C454 N458 1.427 . S
C455 H445 0.929 . S
C455 C453 1.433 . S
C455 N458 1.384 . S
C456 H447 0.929 . S
C456 C448 1.378 . S
C456 C451 1.350 . S
C457 H444 0.929 . S
C457 C449 1.433 . S
C457 N459 1.384 . S
N458 C454 1.427 . S
N458 C455 1.384 . S
N459 C451 1.427 . S
N459 C457 1.384 . S
H460 C466 0.930 . S
H461 C470 0.930 . S
H462 C475 0.929 . S
H463 C473 0.929 . S
H464 C468 0.929 . S
H465 C474 0.929 . S
C466 H460 0.930 . S
C466 C467 1.367 . S
C466 C474 1.378 . S
C467 C466 1.367 . S
C467 C475 1.433 . S
C468 H464 0.929 . S
C468 C470 1.378 . S
C468 C472 1.350 . S
C469 C472 1.463 . S
C469 C474 1.350 . S
C469 N477 1.427 . S
C470 H461 0.930 . S
C470 C468 1.378 . S
C470 C471 1.367 . S
C471 C470 1.367 . S
C471 C473 1.433 . S
C472 C468 1.350 . S
C472 C469 1.463 . S
C472 N476 1.427 . S
C473 H463 0.929 . S
C473 C471 1.433 . S
C473 N476 1.384 . S
C474 H465 0.929 . S
C474 C466 1.378 . S
C474 C469 1.350 . S
C475 H462 0.929 . S
C475 C467 1.433 . S
C475 N477 1.384 . S
N476 C472 1.427 . S
N476 C473 1.384 . S
N477 C469 1.427 . S
N477 C475 1.384 . S
H478 C484 0.930 . S
H479 C488 0.930 . S
H480 C493 0.929 . S
H481 C491 0.929 . S
H482 C486 0.929 . S
H483 C492 0.929 . S
C484 H478 0.930 . S
C484 C485 1.367 . S
C484 C492 1.378 . S
C485 C484 1.367 . S
C485 C493 1.433 . S
C486 H482 0.929 . S
C486 C488 1.378 . S
C486 C490 1.350 . S
C487 C490 1.463 . S
C487 C492 1.350 . S
C487 N495 1.427 . S
C488 H479 0.930 . S
C488 C486 1.378 . S
C488 C489 1.367 . S
C489 C488 1.367 . S
C489 C491 1.433 . S
C490 C486 1.350 . S
C490 C487 1.463 . S
C490 N494 1.427 . S
C491 H481 0.929 . S
C491 C489 1.433 . S
C491 N494 1.384 . S
C492 H483 0.929 . S
C492 C484 1.378 . S
C492 C487 1.350 . S
C493 H480 0.929 . S
C493 C485 1.433 . S
C493 N495 1.384 . S
N494 C490 1.427 . S
N494 C491 1.384 . S
N495 C487 1.427 . S
N495 C493 1.384 . S
H496 C502 0.930 . S
H497 C506 0.930 . S
H498 C511 0.929 . S
H499 C509 0.929 . S
H500 C504 0.929 . S
H501 C510 0.929 . S
C502 H496 0.930 . S
C502 C503 1.367 . S
C502 C510 1.378 . S
C503 C502 1.367 . S
C503 C511 1.433 . S
C504 H500 0.929 . S
C504 C506 1.378 . S
C504 C508 1.350 . S
C505 C508 1.463 . S
C505 C510 1.350 . S
C505 N513 1.427 . S
C506 H497 0.930 . S
C506 C504 1.378 . S
C506 C507 1.367 . S
C507 C506 1.367 . S
C507 C509 1.433 . S
C508 C504 1.350 . S
C508 C505 1.463 . S
C508 N512 1.427 . S
C509 H499 0.929 . S
C509 C507 1.433 . S
C509 N512 1.384 . S
C510 H501 0.929 . S
C510 C502 1.378 . S
C510 C505 1.350 . S
C511 H498 0.929 . S
C511 C503 1.433 . S
C511 N513 1.384 . S
N512 C508 1.427 . S
N512 C509 1.384 . S
N513 C505 1.427 . S
N513 C511 1.384 . S
H514 C520 0.930 . S
H515 C524 0.930 . S
H516 C529 0.929 . S
H517 C527 0.929 . S
H518 C522 0.929 . S
H519 C528 0.929 . S
C520 H514 0.930 . S
C520 C521 1.367 . S
C520 C528 1.378 . S
C521 C520 1.367 . S
C521 C529 1.433 . S
C522 H518 0.929 . S
C522 C524 1.378 . S
C522 C526 1.350 . S
C523 C526 1.463 . S
C523 C528 1.350 . S
C523 N531 1.427 . S
C524 H515 0.930 . S
C524 C522 1.378 . S
C524 C525 1.367 . S
C525 C524 1.367 . S
C525 C527 1.433 . S
C526 C522 1.350 . S
C526 C523 1.463 . S
C526 N530 1.427 . S
C527 H517 0.929 . S
C527 C525 1.433 . S
C527 N530 1.384 . S
C528 H519 0.929 . S
C528 C520 1.378 . S
C528 C523 1.350 . S
C529 H516 0.929 . S
C529 C521 1.433 . S
C529 N531 1.384 . S
N530 C526 1.427 . S
N530 C527 1.384 . S
N531 C523 1.427 . S
N531 C529 1.384 . S
H532 C538 0.930 . S
H533 C542 0.930 . S
H534 C547 0.929 . S
H535 C545 0.929 . S
H536 C540 0.929 . S
H537 C546 0.929 . S
C538 H532 0.930 . S
C538 C539 1.367 . S
C538 C546 1.378 . S
C539 C538 1.367 . S
C539 C547 1.433 . S
C540 H536 0.929 . S
C540 C542 1.378 . S
C540 C544 1.350 . S
C541 C544 1.463 . S
C541 C546 1.350 . S
C541 N549 1.427 . S
C542 H533 0.930 . S
C542 C540 1.378 . S
C542 C543 1.367 . S
C543 C542 1.367 . S
C543 C545 1.433 . S
C544 C540 1.350 . S
C544 C541 1.463 . S
C544 N548 1.427 . S
C545 H535 0.929 . S
C545 C543 1.433 . S
C545 N548 1.384 . S
C546 H537 0.929 . S
C546 C538 1.378 . S
C546 C541 1.350 . S
C547 H534 0.929 . S
C547 C539 1.433 . S
C547 N549 1.384 . S
N548 C544 1.427 . S
N548 C545 1.384 . S
N549 C541 1.427 . S
N549 C547 1.384 . S
H550 C556 0.930 . S
H551 C560 0.930 . S
H552 C565 0.929 . S
H553 C563 0.929 . S
H554 C558 0.929 . S
H555 C564 0.929 . S
C556 H550 0.930 . S
C556 C557 1.367 . S
C556 C564 1.378 . S
C557 C556 1.367 . S
C557 C565 1.433 . S
C558 H554 0.929 . S
C558 C560 1.378 . S
C558 C562 1.350 . S
C559 C562 1.463 . S
C559 C564 1.350 . S
C559 N567 1.427 . S
C560 H551 0.930 . S
C560 C558 1.378 . S
C560 C561 1.367 . S
C561 C560 1.367 . S
C561 C563 1.433 . S
C562 C558 1.350 . S
C562 C559 1.463 . S
C562 N566 1.427 . S
C563 H553 0.929 . S
C563 C561 1.433 . S
C563 N566 1.384 . S
C564 H555 0.929 . S
C564 C556 1.378 . S
C564 C559 1.350 . S
C565 H552 0.929 . S
C565 C557 1.433 . S
C565 N567 1.384 . S
N566 C562 1.427 . S
N566 C563 1.384 . S
N567 C559 1.427 . S
N567 C565 1.384 . S
H568 C574 0.930 . S
H569 C578 0.930 . S
H570 C583 0.929 . S
H571 C581 0.929 . S
H572 C576 0.929 . S
H573 C582 0.929 . S
C574 H568 0.930 . S
C574 C575 1.367 . S
C574 C582 1.378 . S
C575 C574 1.367 . S
C575 C583 1.433 . S
C576 H572 0.929 . S
C576 C578 1.378 . S
C576 C580 1.350 . S
C577 C580 1.463 . S
C577 C582 1.350 . S
C577 N585 1.427 . S
C578 H569 0.930 . S
C578 C576 1.378 . S
C578 C579 1.367 . S
C579 C578 1.367 . S
C579 C581 1.433 . S
C580 C576 1.350 . S
C580 C577 1.463 . S
C580 N584 1.427 . S
C581 H571 0.929 . S
C581 C579 1.433 . S
C581 N584 1.384 . S
C582 H573 0.929 . S
C582 C574 1.378 . S
C582 C577 1.350 . S
C583 H570 0.929 . S
C583 C575 1.433 . S
C583 N585 1.384 . S
N584 C580 1.427 . S
N584 C581 1.384 . S
N585 C577 1.427 . S
N585 C583 1.384 . S
H586 C592 0.930 . S
H587 C596 0.930 . S
H588 C601 0.929 . S
H589 C599 0.929 . S
H590 C594 0.929 . S
H591 C600 0.929 . S
C592 H586 0.930 . S
C592 C593 1.367 . S
C592 C600 1.378 . S
C593 C592 1.367 . S
C593 C601 1.433 . S
C594 H590 0.929 . S
C594 C596 1.378 . S
C594 C598 1.350 . S
C595 C598 1.463 . S
C595 C600 1.350 . S
C595 N603 1.427 . S
C596 H587 0.930 . S
C596 C594 1.378 . S
C596 C597 1.367 . S
C597 C596 1.367 . S
C597 C599 1.433 . S
C598 C594 1.350 . S
C598 C595 1.463 . S
C598 N602 1.427 . S
C599 H589 0.929 . S
C599 C597 1.433 . S
C599 N602 1.384 . S
C600 H591 0.929 . S
C600 C592 1.378 . S
C600 C595 1.350 . S
C601 H588 0.929 . S
C601 C593 1.433 . S
C601 N603 1.384 . S
N602 C598 1.427 . S
N602 C599 1.384 . S
N603 C595 1.427 . S
N603 C601 1.384 . S
H604 C610 0.930 . S
H605 C614 0.930 . S
H606 C619 0.929 . S
H607 C617 0.929 . S
H608 C612 0.929 . S
H609 C618 0.929 . S
C610 H604 0.930 . S
C610 C611 1.367 . S
C610 C618 1.378 . S
C611 C610 1.367 . S
C611 C619 1.433 . S
C612 H608 0.929 . S
C612 C614 1.378 . S
C612 C616 1.350 . S
C613 C616 1.463 . S
C613 C618 1.350 . S
C613 N621 1.427 . S
C614 H605 0.930 . S
C614 C612 1.378 . S
C614 C615 1.367 . S
C615 C614 1.367 . S
C615 C617 1.433 . S
C616 C612 1.350 . S
C616 C613 1.463 . S
C616 N620 1.427 . S
C617 H607 0.929 . S
C617 C615 1.433 . S
C617 N620 1.384 . S
C618 H609 0.929 . S
C618 C610 1.378 . S
C618 C613 1.350 . S
C619 H606 0.929 . S
C619 C611 1.433 . S
C619 N621 1.384 . S
N620 C616 1.427 . S
N620 C617 1.384 . S
N621 C613 1.427 . S
N621 C619 1.384 . S
H622 C628 0.930 . S
H623 C632 0.930 . S
H624 C637 0.929 . S
H625 C635 0.929 . S
H626 C630 0.929 . S
H627 C636 0.929 . S
C628 H622 0.930 . S
C628 C629 1.367 . S
C628 C636 1.378 . S
C629 C628 1.367 . S
C629 C637 1.433 . S
C630 H626 0.929 . S
C630 C632 1.378 . S
C630 C634 1.350 . S
C631 C634 1.463 . S
C631 C636 1.350 . S
C631 N639 1.427 . S
C632 H623 0.930 . S
C632 C630 1.378 . S
C632 C633 1.367 . S
C633 C632 1.367 . S
C633 C635 1.433 . S
C634 C630 1.350 . S
C634 C631 1.463 . S
C634 N638 1.427 . S
C635 H625 0.929 . S
C635 C633 1.433 . S
C635 N638 1.384 . S
C636 H627 0.929 . S
C636 C628 1.378 . S
C636 C631 1.350 . S
C637 H624 0.929 . S
C637 C629 1.433 . S
C637 N639 1.384 . S
N638 C634 1.427 . S
N638 C635 1.384 . S
N639 C631 1.427 . S
N639 C637 1.384 . S
H640 C646 0.930 . S
H641 C650 0.930 . S
H642 C655 0.929 . S
H643 C653 0.929 . S
H644 C648 0.929 . S
H645 C654 0.929 . S
C646 H640 0.930 . S
C646 C647 1.367 . S
C646 C654 1.378 . S
C647 C646 1.367 . S
C647 C655 1.433 . S
C648 H644 0.929 . S
C648 C650 1.378 . S
C648 C652 1.350 . S
C649 C652 1.463 . S
C649 C654 1.350 . S
C649 N657 1.427 . S
C650 H641 0.930 . S
C650 C648 1.378 . S
C650 C651 1.367 . S
C651 C650 1.367 . S
C651 C653 1.433 . S
C652 C648 1.350 . S
C652 C649 1.463 . S
C652 N656 1.427 . S
C653 H643 0.929 . S
C653 C651 1.433 . S
C653 N656 1.384 . S
C654 H645 0.929 . S
C654 C646 1.378 . S
C654 C649 1.350 . S
C655 H642 0.929 . S
C655 C647 1.433 . S
C655 N657 1.384 . S
N656 C652 1.427 . S
N656 C653 1.384 . S
N657 C649 1.427 . S
N657 C655 1.384 . S
H658 C664 0.930 . S
H659 C668 0.930 . S
H660 C673 0.929 . S
H661 C671 0.929 . S
H662 C666 0.929 . S
H663 C672 0.929 . S
C664 H658 0.930 . S
C664 C665 1.367 . S
C664 C672 1.378 . S
C665 C664 1.367 . S
C665 C673 1.433 . S
C666 H662 0.929 . S
C666 C668 1.378 . S
C666 C670 1.350 . S
C667 C670 1.463 . S
C667 C672 1.350 . S
C667 N675 1.427 . S
C668 H659 0.930 . S
C668 C666 1.378 . S
C668 C669 1.367 . S
C669 C668 1.367 . S
C669 C671 1.433 . S
C670 C666 1.350 . S
C670 C667 1.463 . S
C670 N674 1.427 . S
C671 H661 0.929 . S
C671 C669 1.433 . S
C671 N674 1.384 . S
C672 H663 0.929 . S
C672 C664 1.378 . S
C672 C667 1.350 . S
C673 H660 0.929 . S
C673 C665 1.433 . S
C673 N675 1.384 . S
N674 C670 1.427 . S
N674 C671 1.384 . S
N675 C667 1.427 . S
N675 C673 1.384 . S
H676 C682 0.930 . S
H677 C686 0.930 . S
H678 C691 0.929 . S
H679 C689 0.929 . S
H680 C684 0.929 . S
H681 C690 0.929 . S
C682 H676 0.930 . S
C682 C683 1.367 . S
C682 C690 1.378 . S
C683 C682 1.367 . S
C683 C691 1.433 . S
C684 H680 0.929 . S
C684 C686 1.378 . S
C684 C688 1.350 . S
C685 C688 1.463 . S
C685 C690 1.350 . S
C685 N693 1.427 . S
C686 H677 0.930 . S
C686 C684 1.378 . S
C686 C687 1.367 . S
C687 C686 1.367 . S
C687 C689 1.433 . S
C688 C684 1.350 . S
C688 C685 1.463 . S
C688 N692 1.427 . S
C689 H679 0.929 . S
C689 C687 1.433 . S
C689 N692 1.384 . S
C690 H681 0.929 . S
C690 C682 1.378 . S
C690 C685 1.350 . S
C691 H678 0.929 . S
C691 C683 1.433 . S
C691 N693 1.384 . S
N692 C688 1.427 . S
N692 C689 1.384 . S
N693 C685 1.427 . S
N693 C691 1.384 . S
H694 C700 0.930 . S
H695 C704 0.930 . S
H696 C709 0.929 . S
H697 C707 0.929 . S
H698 C702 0.929 . S
H699 C708 0.929 . S
C700 H694 0.930 . S
C700 C701 1.367 . S
C700 C708 1.378 . S
C701 C700 1.367 . S
C701 C709 1.433 . S
C702 H698 0.929 . S
C702 C704 1.378 . S
C702 C706 1.350 . S
C703 C706 1.463 . S
C703 C708 1.350 . S
C703 N711 1.427 . S
C704 H695 0.930 . S
C704 C702 1.378 . S
C704 C705 1.367 . S
C705 C704 1.367 . S
C705 C707 1.433 . S
C706 C702 1.350 . S
C706 C703 1.463 . S
C706 N710 1.427 . S
C707 H697 0.929 . S
C707 C705 1.433 . S
C707 N710 1.384 . S
C708 H699 0.929 . S
C708 C700 1.378 . S
C708 C703 1.350 . S
C709 H696 0.929 . S
C709 C701 1.433 . S
C709 N711 1.384 . S
N710 C706 1.427 . S
N710 C707 1.384 . S
N711 C703 1.427 . S
N711 C709 1.384 . S
H712 C718 0.930 . S
H713 C722 0.930 . S
H714 C727 0.929 . S
H715 C725 0.929 . S
H716 C720 0.929 . S
H717 C726 0.929 . S
C718 H712 0.930 . S
C718 C719 1.367 . S
C718 C726 1.378 . S
C719 C718 1.367 . S
C719 C727 1.433 . S
C720 H716 0.929 . S
C720 C722 1.378 . S
C720 C724 1.350 . S
C721 C724 1.463 . S
C721 C726 1.350 . S
C721 N729 1.427 . S
C722 H713 0.930 . S
C722 C720 1.378 . S
C722 C723 1.367 . S
C723 C722 1.367 . S
C723 C725 1.433 . S
C724 C720 1.350 . S
C724 C721 1.463 . S
C724 N728 1.427 . S
C725 H715 0.929 . S
C725 C723 1.433 . S
C725 N728 1.384 . S
C726 H717 0.929 . S
C726 C718 1.378 . S
C726 C721 1.350 . S
C727 H714 0.929 . S
C727 C719 1.433 . S
C727 N729 1.384 . S
N728 C724 1.427 . S
N728 C725 1.384 . S
N729 C721 1.427 . S
N729 C727 1.384 . S
H730 C736 0.930 . S
H731 C740 0.930 . S
H732 C745 0.929 . S
H733 C743 0.929 . S
H734 C738 0.929 . S
H735 C744 0.929 . S
C736 H730 0.930 . S
C736 C737 1.367 . S
C736 C744 1.378 . S
C737 C736 1.367 . S
C737 C745 1.433 . S
C738 H734 0.929 . S
C738 C740 1.378 . S
C738 C742 1.350 . S
C739 C742 1.463 . S
C739 C744 1.350 . S
C739 N747 1.427 . S
C740 H731 0.930 . S
C740 C738 1.378 . S
C740 C741 1.367 . S
C741 C740 1.367 . S
C741 C743 1.433 . S
C742 C738 1.350 . S
C742 C739 1.463 . S
C742 N746 1.427 . S
C743 H733 0.929 . S
C743 C741 1.433 . S
C743 N746 1.384 . S
C744 H735 0.929 . S
C744 C736 1.378 . S
C744 C739 1.350 . S
C745 H732 0.929 . S
C745 C737 1.433 . S
C745 N747 1.384 . S
N746 C742 1.427 . S
N746 C743 1.384 . S
N747 C739 1.427 . S
N747 C745 1.384 . S
H748 C754 0.930 . S
H749 C758 0.930 . S
H750 C763 0.929 . S
H751 C761 0.929 . S
H752 C756 0.929 . S
H753 C762 0.929 . S
C754 H748 0.930 . S
C754 C755 1.367 . S
C754 C762 1.378 . S
C755 C754 1.367 . S
C755 C763 1.433 . S
C756 H752 0.929 . S
C756 C758 1.378 . S
C756 C760 1.350 . S
C757 C760 1.463 . S
C757 C762 1.350 . S
C757 N765 1.427 . S
C758 H749 0.930 . S
C758 C756 1.378 . S
C758 C759 1.367 . S
C759 C758 1.367 . S
C759 C761 1.433 . S
C760 C756 1.350 . S
C760 C757 1.463 . S
C760 N764 1.427 . S
C761 H751 0.929 . S
C761 C759 1.433 . S
C761 N764 1.384 . S
C762 H753 0.929 . S
C762 C754 1.378 . S
C762 C757 1.350 . S
C763 H750 0.929 . S
C763 C755 1.433 . S
C763 N765 1.384 . S
N764 C760 1.427 . S
N764 C761 1.384 . S
N765 C757 1.427 . S
N765 C763 1.384 . S
H766 C772 0.930 . S
H767 C776 0.930 . S
H768 C781 0.929 . S
H769 C779 0.929 . S
H770 C774 0.929 . S
H771 C780 0.929 . S
C772 H766 0.930 . S
C772 C773 1.367 . S
C772 C780 1.378 . S
C773 C772 1.367 . S
C773 C781 1.433 . S
C774 H770 0.929 . S
C774 C776 1.378 . S
C774 C778 1.350 . S
C775 C778 1.463 . S
C775 C780 1.350 . S
C775 N783 1.427 . S
C776 H767 0.930 . S
C776 C774 1.378 . S
C776 C777 1.367 . S
C777 C776 1.367 . S
C777 C779 1.433 . S
C778 C774 1.350 . S
C778 C775 1.463 . S
C778 N782 1.427 . S
C779 H769 0.929 . S
C779 C777 1.433 . S
C779 N782 1.384 . S
C780 H771 0.929 . S
C780 C772 1.378 . S
C780 C775 1.350 . S
C781 H768 0.929 . S
C781 C773 1.433 . S
C781 N783 1.384 . S
N782 C778 1.427 . S
N782 C779 1.384 . S
N783 C775 1.427 . S
N783 C781 1.384 . S
H784 C790 0.930 . S
H785 C794 0.930 . S
H786 C799 0.929 . S
H787 C797 0.929 . S
H788 C792 0.929 . S
H789 C798 0.929 . S
C790 H784 0.930 . S
C790 C791 1.367 . S
C790 C798 1.378 . S
C791 C790 1.367 . S
C791 C799 1.433 . S
C792 H788 0.929 . S
C792 C794 1.378 . S
C792 C796 1.350 . S
C793 C796 1.463 . S
C793 C798 1.350 . S
C793 N801 1.427 . S
C794 H785 0.930 . S
C794 C792 1.378 . S
C794 C795 1.367 . S
C795 C794 1.367 . S
C795 C797 1.433 . S
C796 C792 1.350 . S
C796 C793 1.463 . S
C796 N800 1.427 . S
C797 H787 0.929 . S
C797 C795 1.433 . S
C797 N800 1.384 . S
C798 H789 0.929 . S
C798 C790 1.378 . S
C798 C793 1.350 . S
C799 H786 0.929 . S
C799 C791 1.433 . S
C799 N801 1.384 . S
N800 C796 1.427 . S
N800 C797 1.384 . S
N801 C793 1.427 . S
N801 C799 1.384 . S
H802 C808 0.930 . S
H803 C812 0.930 . S
H804 C817 0.929 . S
H805 C815 0.929 . S
H806 C810 0.929 . S
H807 C816 0.929 . S
C808 H802 0.930 . S
C808 C809 1.367 . S
C808 C816 1.378 . S
C809 C808 1.367 . S
C809 C817 1.433 . S
C810 H806 0.929 . S
C810 C812 1.378 . S
C810 C814 1.350 . S
C811 C814 1.463 . S
C811 C816 1.350 . S
C811 N819 1.427 . S
C812 H803 0.930 . S
C812 C810 1.378 . S
C812 C813 1.367 . S
C813 C812 1.367 . S
C813 C815 1.433 . S
C814 C810 1.350 . S
C814 C811 1.463 . S
C814 N818 1.427 . S
C815 H805 0.929 . S
C815 C813 1.433 . S
C815 N818 1.384 . S
C816 H807 0.929 . S
C816 C808 1.378 . S
C816 C811 1.350 . S
C817 H804 0.929 . S
C817 C809 1.433 . S
C817 N819 1.384 . S
N818 C814 1.427 . S
N818 C815 1.384 . S
N819 C811 1.427 . S
N819 C817 1.384 . S
H820 C826 0.930 . S
H821 C830 0.930 . S
H822 C835 0.929 . S
H823 C833 0.929 . S
H824 C828 0.929 . S
H825 C834 0.929 . S
C826 H820 0.930 . S
C826 C827 1.367 . S
C826 C834 1.378 . S
C827 C826 1.367 . S
C827 C835 1.433 . S
C828 H824 0.929 . S
C828 C830 1.378 . S
C828 C832 1.350 . S
C829 C832 1.463 . S
C829 C834 1.350 . S
C829 N837 1.427 . S
C830 H821 0.930 . S
C830 C828 1.378 . S
C830 C831 1.367 . S
C831 C830 1.367 . S
C831 C833 1.433 . S
C832 C828 1.350 . S
C832 C829 1.463 . S
C832 N836 1.427 . S
C833 H823 0.929 . S
C833 C831 1.433 . S
C833 N836 1.384 . S
C834 H825 0.929 . S
C834 C826 1.378 . S
C834 C829 1.350 . S
C835 H822 0.929 . S
C835 C827 1.433 . S
C835 N837 1.384 . S
N836 C832 1.427 . S
N836 C833 1.384 . S
N837 C829 1.427 . S
N837 C835 1.384 . S
H838 C844 0.930 . S
H839 C848 0.930 . S
H840 C853 0.929 . S
H841 C851 0.929 . S
H842 C846 0.929 . S
H843 C852 0.929 . S
C844 H838 0.930 . S
C844 C845 1.367 . S
C844 C852 1.378 . S
C845 C844 1.367 . S
C845 C853 1.433 . S
C846 H842 0.929 . S
C846 C848 1.378 . S
C846 C850 1.350 . S
C847 C850 1.463 . S
C847 C852 1.350 . S
C847 N855 1.427 . S
C848 H839 0.930 . S
C848 C846 1.378 . S
C848 C849 1.367 . S
C849 C848 1.367 . S
C849 C851 1.433 . S
C850 C846 1.350 . S
C850 C847 1.463 . S
C850 N854 1.427 . S
C851 H841 0.929 . S
C851 C849 1.433 . S
C851 N854 1.384 . S
C852 H843 0.929 . S
C852 C844 1.378 . S
C852 C847 1.350 . S
C853 H840 0.929 . S
C853 C845 1.433 . S
C853 N855 1.384 . S
N854 C850 1.427 . S
N854 C851 1.384 . S
N855 C847 1.427 . S
N855 C853 1.384 . S
H856 C862 0.930 . S
H857 C866 0.930 . S
H858 C871 0.929 . S
H859 C869 0.929 . S
H860 C864 0.929 . S
H861 C870 0.929 . S
C862 H856 0.930 . S
C862 C863 1.367 . S
C862 C870 1.378 . S
C863 C862 1.367 . S
C863 C871 1.433 . S
C864 H860 0.929 . S
C864 C866 1.378 . S
C864 C868 1.350 . S
C865 C868 1.463 . S
C865 C870 1.350 . S
C865 N873 1.427 . S
C866 H857 0.930 . S
C866 C864 1.378 . S
C866 C867 1.367 . S
C867 C866 1.367 . S
C867 C869 1.433 . S
C868 C864 1.350 . S
C868 C865 1.463 . S
C868 N872 1.427 . S
C869 H859 0.929 . S
C869 C867 1.433 . S
C869 N872 1.384 . S
C870 H861 0.929 . S
C870 C862 1.378 . S
C870 C865 1.350 . S
C871 H858 0.929 . S
C871 C863 1.433 . S
C871 N873 1.384 . S
N872 C868 1.427 . S
N872 C869 1.384 . S
N873 C865 1.427 . S
N873 C871 1.384 . S
H874 C880 0.930 . S
H875 C884 0.930 . S
H876 C889 0.929 . S
H877 C887 0.929 . S
H878 C882 0.929 . S
H879 C888 0.929 . S
C880 H874 0.930 . S
C880 C881 1.367 . S
C880 C888 1.378 . S
C881 C880 1.367 . S
C881 C889 1.433 . S
C882 H878 0.929 . S
C882 C884 1.378 . S
C882 C886 1.350 . S
C883 C886 1.463 . S
C883 C888 1.350 . S
C883 N891 1.427 . S
C884 H875 0.930 . S
C884 C882 1.378 . S
C884 C885 1.367 . S
C885 C884 1.367 . S
C885 C887 1.433 . S
C886 C882 1.350 . S
C886 C883 1.463 . S
C886 N890 1.427 . S
C887 H877 0.929 . S
C887 C885 1.433 . S
C887 N890 1.384 . S
C888 H879 0.929 . S
C888 C880 1.378 . S
C888 C883 1.350 . S
C889 H876 0.929 . S
C889 C881 1.433 . S
C889 N891 1.384 . S
N890 C886 1.427 . S
N890 C887 1.384 . S
N891 C883 1.427 . S
N891 C889 1.384 . S
H892 C898 0.930 . S
H893 C902 0.930 . S
H894 C907 0.929 . S
H895 C905 0.929 . S
H896 C900 0.929 . S
H897 C906 0.929 . S
C898 H892 0.930 . S
C898 C899 1.367 . S
C898 C906 1.378 . S
C899 C898 1.367 . S
C899 C907 1.433 . S
C900 H896 0.929 . S
C900 C902 1.378 . S
C900 C904 1.350 . S
C901 C904 1.463 . S
C901 C906 1.350 . S
C901 N909 1.427 . S
C902 H893 0.930 . S
C902 C900 1.378 . S
C902 C903 1.367 . S
C903 C902 1.367 . S
C903 C905 1.433 . S
C904 C900 1.350 . S
C904 C901 1.463 . S
C904 N908 1.427 . S
C905 H895 0.929 . S
C905 C903 1.433 . S
C905 N908 1.384 . S
C906 H897 0.929 . S
C906 C898 1.378 . S
C906 C901 1.350 . S
C907 H894 0.929 . S
C907 C899 1.433 . S
C907 N909 1.384 . S
N908 C904 1.427 . S
N908 C905 1.384 . S
N909 C901 1.427 . S
N909 C907 1.384 . S
H910 C916 0.930 . S
H911 C920 0.930 . S
H912 C925 0.929 . S
H913 C923 0.929 . S
H914 C918 0.929 . S
H915 C924 0.929 . S
C916 H910 0.930 . S
C916 C917 1.367 . S
C916 C924 1.378 . S
C917 C916 1.367 . S
C917 C925 1.433 . S
C918 H914 0.929 . S
C918 C920 1.378 . S
C918 C922 1.350 . S
C919 C922 1.463 . S
C919 C924 1.350 . S
C919 N927 1.427 . S
C920 H911 0.930 . S
C920 C918 1.378 . S
C920 C921 1.367 . S
C921 C920 1.367 . S
C921 C923 1.433 . S
C922 C918 1.350 . S
C922 C919 1.463 . S
C922 N926 1.427 . S
C923 H913 0.929 . S
C923 C921 1.433 . S
C923 N926 1.384 . S
C924 H915 0.929 . S
C924 C916 1.378 . S
C924 C919 1.350 . S
C925 H912 0.929 . S
C925 C917 1.433 . S
C925 N927 1.384 . S
N926 C922 1.427 . S
N926 C923 1.384 . S
N927 C919 1.427 . S
N927 C925 1.384 . S
H928 C934 0.930 . S
H929 C938 0.930 . S
H930 C943 0.929 . S
H931 C941 0.929 . S
H932 C936 0.929 . S
H933 C942 0.929 . S
C934 H928 0.930 . S
C934 C935 1.367 . S
C934 C942 1.378 . S
C935 C934 1.367 . S
C935 C943 1.433 . S
C936 H932 0.929 . S
C936 C938 1.378 . S
C936 C940 1.350 . S
C937 C940 1.463 . S
C937 C942 1.350 . S
C937 N945 1.427 . S
C938 H929 0.930 . S
C938 C936 1.378 . S
C938 C939 1.367 . S
C939 C938 1.367 . S
C939 C941 1.433 . S
C940 C936 1.350 . S
C940 C937 1.463 . S
C940 N944 1.427 . S
C941 H931 0.929 . S
C941 C939 1.433 . S
C941 N944 1.384 . S
C942 H933 0.929 . S
C942 C934 1.378 . S
C942 C937 1.350 . S
C943 H930 0.929 . S
C943 C935 1.433 . S
C943 N945 1.384 . S
N944 C940 1.427 . S
N944 C941 1.384 . S
N945 C937 1.427 . S
N945 C943 1.384 . S
H946 C952 0.930 . S
H947 C956 0.930 . S
H948 C961 0.929 . S
H949 C959 0.929 . S
H950 C954 0.929 . S
H951 C960 0.929 . S
C952 H946 0.930 . S
C952 C953 1.367 . S
C952 C960 1.378 . S
C953 C952 1.367 . S
C953 C961 1.433 . S
C954 H950 0.929 . S
C954 C956 1.378 . S
C954 C958 1.350 . S
C955 C958 1.463 . S
C955 C960 1.350 . S
C955 N963 1.427 . S
C956 H947 0.930 . S
C956 C954 1.378 . S
C956 C957 1.367 . S
C957 C956 1.367 . S
C957 C959 1.433 . S
C958 C954 1.350 . S
C958 C955 1.463 . S
C958 N962 1.427 . S
C959 H949 0.929 . S
C959 C957 1.433 . S
C959 N962 1.384 . S
C960 H951 0.929 . S
C960 C952 1.378 . S
C960 C955 1.350 . S
C961 H948 0.929 . S
C961 C953 1.433 . S
C961 N963 1.384 . S
N962 C958 1.427 . S
N962 C959 1.384 . S
N963 C955 1.427 . S
N963 C961 1.384 . S
H964 C970 0.930 . S
H965 C974 0.930 . S
H966 C979 0.929 . S
H967 C977 0.929 . S
H968 C972 0.929 . S
H969 C978 0.929 . S
C970 H964 0.930 . S
C970 C971 1.367 . S
C970 C978 1.378 . S
C971 C970 1.367 . S
C971 C979 1.433 . S
C972 H968 0.929 . S
C972 C974 1.378 . S
C972 C976 1.350 . S
C973 C976 1.463 . S
C973 C978 1.350 . S
C973 N981 1.427 . S
C974 H965 0.930 . S
C974 C972 1.378 . S
C974 C975 1.367 . S
C975 C974 1.367 . S
C975 C977 1.433 . S
C976 C972 1.350 . S
C976 C973 1.463 . S
C976 N980 1.427 . S
C977 H967 0.929 . S
C977 C975 1.433 . S
C977 N980 1.384 . S
C978 H969 0.929 . S
C978 C970 1.378 . S
C978 C973 1.350 . S
C979 H966 0.929 . S
C979 C971 1.433 . S
C979 N981 1.384 . S
N980 C976 1.427 . S
N980 C977 1.384 . S
N981 C973 1.427 . S
N981 C979 1.384 . S
H982 C988 0.930 . S
H983 C992 0.930 . S
H984 C997 0.929 . S
H985 C995 0.929 . S
H986 C990 0.929 . S
H987 C996 0.929 . S
C988 H982 0.930 . S
C988 C989 1.367 . S
C988 C996 1.378 . S
C989 C988 1.367 . S
C989 C997 1.433 . S
C990 H986 0.929 . S
C990 C992 1.378 . S
C990 C994 1.350 . S
C991 C994 1.463 . S
C991 C996 1.350 . S
C991 N999 1.427 . S
C992 H983 0.930 . S
C992 C990 1.378 . S
C992 C993 1.367 . S
C993 C992 1.367 . S
C993 C995 1.433 . S
C994 C990 1.350 . S
C994 C991 1.463 . S
C994 N998 1.427 . S
C995 H985 0.929 . S
C995 C993 1.433 . S
C995 N998 1.384 . S
C996 H987 0.929 . S
C996 C988 1.378 . S
C996 C991 1.350 . S
C997 H984 0.929 . S
C997 C989 1.433 . S
C997 N999 1.384 . S
N998 C994 1.427 . S
N998 C995 1.384 . S
N999 C991 1.427 . S
N999 C997 1.384 . S
H1000 C1006 0.930 . S
H1001 C1010 0.930 . S
H1002 C1015 0.929 . S
H1003 C1013 0.929 . S
H1004 C1008 0.929 . S
H1005 C1014 0.929 . S
C1006 H1000 0.930 . S
C1006 C1007 1.367 . S
C1006 C1014 1.378 . S
C1007 C1006 1.367 . S
C1007 C1015 1.433 . S
C1008 H1004 0.929 . S
C1008 C1010 1.378 . S
C1008 C1012 1.350 . S
C1009 C1012 1.463 . S
C1009 C1014 1.350 . S
C1009 N1017 1.427 . S
C1010 H1001 0.930 . S
C1010 C1008 1.378 . S
C1010 C1011 1.367 . S
C1011 C1010 1.367 . S
C1011 C1013 1.433 . S
C1012 C1008 1.350 . S
C1012 C1009 1.463 . S
C1012 N1016 1.427 . S
C1013 H1003 0.929 . S
C1013 C1011 1.433 . S
C1013 N1016 1.384 . S
C1014 H1005 0.929 . S
C1014 C1006 1.378 . S
C1014 C1009 1.350 . S
C1015 H1002 0.929 . S
C1015 C1007 1.433 . S
C1015 N1017 1.384 . S
N1016 C1012 1.427 . S
N1016 C1013 1.384 . S
N1017 C1009 1.427 . S
N1017 C1015 1.384 . S
H1018 C1024 0.930 . S
H1019 C1028 0.930 . S
H1020 C1033 0.929 . S
H1021 C1031 0.929 . S
H1022 C1026 0.929 . S
H1023 C1032 0.929 . S
C1024 H1018 0.930 . S
C1024 C1025 1.367 . S
C1024 C1032 1.378 . S
C1025 C1024 1.367 . S
C1025 C1033 1.433 . S
C1026 H1022 0.929 . S
C1026 C1028 1.378 . S
C1026 C1030 1.350 . S
C1027 C1030 1.463 . S
C1027 C1032 1.350 . S
C1027 N1035 1.427 . S
C1028 H1019 0.930 . S
C1028 C1026 1.378 . S
C1028 C1029 1.367 . S
C1029 C1028 1.367 . S
C1029 C1031 1.433 . S
C1030 C1026 1.350 . S
C1030 C1027 1.463 . S
C1030 N1034 1.427 . S
C1031 H1021 0.929 . S
C1031 C1029 1.433 . S
C1031 N1034 1.384 . S
C1032 H1023 0.929 . S
C1032 C1024 1.378 . S
C1032 C1027 1.350 . S
C1033 H1020 0.929 . S
C1033 C1025 1.433 . S
C1033 N1035 1.384 . S
N1034 C1030 1.427 . S
N1034 C1031 1.384 . S
N1035 C1027 1.427 . S
N1035 C1033 1.384 . S
H1036 C1042 0.930 . S
H1037 C1046 0.930 . S
H1038 C1051 0.929 . S
H1039 C1049 0.929 . S
H1040 C1044 0.929 . S
H1041 C1050 0.929 . S
C1042 H1036 0.930 . S
C1042 C1043 1.367 . S
C1042 C1050 1.378 . S
C1043 C1042 1.367 . S
C1043 C1051 1.433 . S
C1044 H1040 0.929 . S
C1044 C1046 1.378 . S
C1044 C1048 1.350 . S
C1045 C1048 1.463 . S
C1045 C1050 1.350 . S
C1045 N1053 1.427 . S
C1046 H1037 0.930 . S
C1046 C1044 1.378 . S
C1046 C1047 1.367 . S
C1047 C1046 1.367 . S
C1047 C1049 1.433 . S
C1048 C1044 1.350 . S
C1048 C1045 1.463 . S
C1048 N1052 1.427 . S
C1049 H1039 0.929 . S
C1049 C1047 1.433 . S
C1049 N1052 1.384 . S
C1050 H1041 0.929 . S
C1050 C1042 1.378 . S
C1050 C1045 1.350 . S
C1051 H1038 0.929 . S
C1051 C1043 1.433 . S
C1051 N1053 1.384 . S
N1052 C1048 1.427 . S
N1052 C1049 1.384 . S
N1053 C1045 1.427 . S
N1053 C1051 1.384 . S
H1054 C1060 0.930 . S
H1055 C1064 0.930 . S
H1056 C1069 0.929 . S
H1057 C1067 0.929 . S
H1058 C1062 0.929 . S
H1059 C1068 0.929 . S
C1060 H1054 0.930 . S
C1060 C1061 1.367 . S
C1060 C1068 1.378 . S
C1061 C1060 1.367 . S
C1061 C1069 1.433 . S
C1062 H1058 0.929 . S
C1062 C1064 1.378 . S
C1062 C1066 1.350 . S
C1063 C1066 1.463 . S
C1063 C1068 1.350 . S
C1063 N1071 1.427 . S
C1064 H1055 0.930 . S
C1064 C1062 1.378 . S
C1064 C1065 1.367 . S
C1065 C1064 1.367 . S
C1065 C1067 1.433 . S
C1066 C1062 1.350 . S
C1066 C1063 1.463 . S
C1066 N1070 1.427 . S
C1067 H1057 0.929 . S
C1067 C1065 1.433 . S
C1067 N1070 1.384 . S
C1068 H1059 0.929 . S
C1068 C1060 1.378 . S
C1068 C1063 1.350 . S
C1069 H1056 0.929 . S
C1069 C1061 1.433 . S
C1069 N1071 1.384 . S
N1070 C1066 1.427 . S
N1070 C1067 1.384 . S
N1071 C1063 1.427 . S
N1071 C1069 1.384 . S
H1072 C1078 0.930 . S
H1073 C1082 0.930 . S
H1074 C1087 0.929 . S
H1075 C1085 0.929 . S
H1076 C1080 0.929 . S
H1077 C1086 0.929 . S
C1078 H1072 0.930 . S
C1078 C1079 1.367 . S
C1078 C1086 1.378 . S
C1079 C1078 1.367 . S
C1079 C1087 1.433 . S
C1080 H1076 0.929 . S
C1080 C1082 1.378 . S
C1080 C1084 1.350 . S
C1081 C1084 1.463 . S
C1081 C1086 1.350 . S
C1081 N1089 1.427 . S
C1082 H1073 0.930 . S
C1082 C1080 1.378 . S
C1082 C1083 1.367 . S
C1083 C1082 1.367 . S
C1083 C1085 1.433 . S
C1084 C1080 1.350 . S
C1084 C1081 1.463 . S
C1084 N1088 1.427 . S
C1085 H1075 0.929 . S
C1085 C1083 1.433 . S
C1085 N1088 1.384 . S
C1086 H1077 0.929 . S
C1086 C1078 1.378 . S
C1086 C1081 1.350 . S
C1087 H1074 0.929 . S
C1087 C1079 1.433 . S
C1087 N1089 1.384 . S
N1088 C1084 1.427 . S
N1088 C1085 1.384 . S
N1089 C1081 1.427 . S
N1089 C1087 1.384 . S
H1090 C1096 0.930 . S
H1091 C1100 0.930 . S
H1092 C1105 0.929 . S
H1093 C1103 0.929 . S
H1094 C1098 0.929 . S
H1095 C1104 0.929 . S
C1096 H1090 0.930 . S
C1096 C1097 1.367 . S
C1096 C1104 1.378 . S
C1097 C1096 1.367 . S
C1097 C1105 1.433 . S
C1098 H1094 0.929 . S
C1098 C1100 1.378 . S
C1098 C1102 1.350 . S
C1099 C1102 1.463 . S
C1099 C1104 1.350 . S
C1099 N1107 1.427 . S
C1100 H1091 0.930 . S
C1100 C1098 1.378 . S
C1100 C1101 1.367 . S
C1101 C1100 1.367 . S
C1101 C1103 1.433 . S
C1102 C1098 1.350 . S
C1102 C1099 1.463 . S
C1102 N1106 1.427 . S
C1103 H1093 0.929 . S
C1103 C1101 1.433 . S
C1103 N1106 1.384 . S
C1104 H1095 0.929 . S
C1104 C1096 1.378 . S
C1104 C1099 1.350 . S
C1105 H1092 0.929 . S
C1105 C1097 1.433 . S
C1105 N1107 1.384 . S
N1106 C1102 1.427 . S
N1106 C1103 1.384 . S
N1107 C1099 1.427 . S
N1107 C1105 1.384 . S
H1108 C1114 0.930 . S
H1109 C1118 0.930 . S
H1110 C1123 0.929 . S
H1111 C1121 0.929 . S
H1112 C1116 0.929 . S
H1113 C1122 0.929 . S
C1114 H1108 0.930 . S
C1114 C1115 1.367 . S
C1114 C1122 1.378 . S
C1115 C1114 1.367 . S
C1115 C1123 1.433 . S
C1116 H1112 0.929 . S
C1116 C1118 1.378 . S
C1116 C1120 1.350 . S
C1117 C1120 1.463 . S
C1117 C1122 1.350 . S
C1117 N1125 1.427 . S
C1118 H1109 0.930 . S
C1118 C1116 1.378 . S
C1118 C1119 1.367 . S
C1119 C1118 1.367 . S
C1119 C1121 1.433 . S
C1120 C1116 1.350 . S
C1120 C1117 1.463 . S
C1120 N1124 1.427 . S
C1121 H1111 0.929 . S
C1121 C1119 1.433 . S
C1121 N1124 1.384 . S
C1122 H1113 0.929 . S
C1122 C1114 1.378 . S
C1122 C1117 1.350 . S
C1123 H1110 0.929 . S
C1123 C1115 1.433 . S
C1123 N1125 1.384 . S
N1124 C1120 1.427 . S
N1124 C1121 1.384 . S
N1125 C1117 1.427 . S
N1125 C1123 1.384 . S
H1126 C1132 0.930 . S
H1127 C1136 0.930 . S
H1128 C1141 0.929 . S
H1129 C1139 0.929 . S
H1130 C1134 0.929 . S
H1131 C1140 0.929 . S
C1132 H1126 0.930 . S
C1132 C1133 1.367 . S
C1132 C1140 1.378 . S
C1133 C1132 1.367 . S
C1133 C1141 1.433 . S
C1134 H1130 0.929 . S
C1134 C1136 1.378 . S
C1134 C1138 1.350 . S
C1135 C1138 1.463 . S
C1135 C1140 1.350 . S
C1135 N1143 1.427 . S
C1136 H1127 0.930 . S
C1136 C1134 1.378 . S
C1136 C1137 1.367 . S
C1137 C1136 1.367 . S
C1137 C1139 1.433 . S
C1138 C1134 1.350 . S
C1138 C1135 1.463 . S
C1138 N1142 1.427 . S
C1139 H1129 0.929 . S
C1139 C1137 1.433 . S
C1139 N1142 1.384 . S
C1140 H1131 0.929 . S
C1140 C1132 1.378 . S
C1140 C1135 1.350 . S
C1141 H1128 0.929 . S
C1141 C1133 1.433 . S
C1141 N1143 1.384 . S
N1142 C1138 1.427 . S
N1142 C1139 1.384 . S
N1143 C1135 1.427 . S
N1143 C1141 1.384 . S
H1144 C1150 0.930 . S
H1145 C1154 0.930 . S
H1146 C1159 0.929 . S
H1147 C1157 0.929 . S
H1148 C1152 0.929 . S
H1149 C1158 0.929 . S
C1150 H1144 0.930 . S
C1150 C1151 1.367 . S
C1150 C1158 1.378 . S
C1151 C1150 1.367 . S
C1151 C1159 1.433 . S
C1152 H1148 0.929 . S
C1152 C1154 1.378 . S
C1152 C1156 1.350 . S
C1153 C1156 1.463 . S
C1153 C1158 1.350 . S
C1153 N1161 1.427 . S
C1154 H1145 0.930 . S
C1154 C1152 1.378 . S
C1154 C1155 1.367 . S
C1155 C1154 1.367 . S
C1155 C1157 1.433 . S
C1156 C1152 1.350 . S
C1156 C1153 1.463 . S
C1156 N1160 1.427 . S
C1157 H1147 0.929 . S
C1157 C1155 1.433 . S
C1157 N1160 1.384 . S
C1158 H1149 0.929 . S
C1158 C1150 1.378 . S
C1158 C1153 1.350 . S
C1159 H1146 0.929 . S
C1159 C1151 1.433 . S
C1159 N1161 1.384 . S
N1160 C1156 1.427 . S
N1160 C1157 1.384 . S
N1161 C1153 1.427 . S
N1161 C1159 1.384 . S
H1162 C1168 0.930 . S
H1163 C1172 0.930 . S
H1164 C1177 0.929 . S
H1165 C1175 0.929 . S
H1166 C1170 0.929 . S
H1167 C1176 0.929 . S
C1168 H1162 0.930 . S
C1168 C1169 1.367 . S
C1168 C1176 1.378 . S
C1169 C1168 1.367 . S
C1169 C1177 1.433 . S
C1170 H1166 0.929 . S
C1170 C1172 1.378 . S
C1170 C1174 1.350 . S
C1171 C1174 1.463 . S
C1171 C1176 1.350 . S
C1171 N1179 1.427 . S
C1172 H1163 0.930 . S
C1172 C1170 1.378 . S
C1172 C1173 1.367 . S
C1173 C1172 1.367 . S
C1173 C1175 1.433 . S
C1174 C1170 1.350 . S
C1174 C1171 1.463 . S
C1174 N1178 1.427 . S
C1175 H1165 0.929 . S
C1175 C1173 1.433 . S
C1175 N1178 1.384 . S
C1176 H1167 0.929 . S
C1176 C1168 1.378 . S
C1176 C1171 1.350 . S
C1177 H1164 0.929 . S
C1177 C1169 1.433 . S
C1177 N1179 1.384 . S
N1178 C1174 1.427 . S
N1178 C1175 1.384 . S
N1179 C1171 1.427 . S
N1179 C1177 1.384 . S
H1180 C1186 0.930 . S
H1181 C1190 0.930 . S
H1182 C1195 0.929 . S
H1183 C1193 0.929 . S
H1184 C1188 0.929 . S
H1185 C1194 0.929 . S
C1186 H1180 0.930 . S
C1186 C1187 1.367 . S
C1186 C1194 1.378 . S
C1187 C1186 1.367 . S
C1187 C1195 1.433 . S
C1188 H1184 0.929 . S
C1188 C1190 1.378 . S
C1188 C1192 1.350 . S
C1189 C1192 1.463 . S
C1189 C1194 1.350 . S
C1189 N1197 1.427 . S
C1190 H1181 0.930 . S
C1190 C1188 1.378 . S
C1190 C1191 1.367 . S
C1191 C1190 1.367 . S
C1191 C1193 1.433 . S
C1192 C1188 1.350 . S
C1192 C1189 1.463 . S
C1192 N1196 1.427 . S
C1193 H1183 0.929 . S
C1193 C1191 1.433 . S
C1193 N1196 1.384 . S
C1194 H1185 0.929 . S
C1194 C1186 1.378 . S
C1194 C1189 1.350 . S
C1195 H1182 0.929 . S
C1195 C1187 1.433 . S
C1195 N1197 1.384 . S
N1196 C1192 1.427 . S
N1196 C1193 1.384 . S
N1197 C1189 1.427 . S
N1197 C1195 1.384 . S
H1198 C1204 0.930 . S
H1199 C1208 0.930 . S
H1200 C1213 0.929 . S
H1201 C1211 0.929 . S
H1202 C1206 0.929 . S
H1203 C1212 0.929 . S
C1204 H1198 0.930 . S
C1204 C1205 1.367 . S
C1204 C1212 1.378 . S
C1205 C1204 1.367 . S
C1205 C1213 1.433 . S
C1206 H1202 0.929 . S
C1206 C1208 1.378 . S
C1206 C1210 1.350 . S
C1207 C1210 1.463 . S
C1207 C1212 1.350 . S
C1207 N1215 1.427 . S
C1208 H1199 0.930 . S
C1208 C1206 1.378 . S
C1208 C1209 1.367 . S
C1209 C1208 1.367 . S
C1209 C1211 1.433 . S
C1210 C1206 1.350 . S
C1210 C1207 1.463 . S
C1210 N1214 1.427 . S
C1211 H1201 0.929 . S
C1211 C1209 1.433 . S
C1211 N1214 1.384 . S
C1212 H1203 0.929 . S
C1212 C1204 1.378 . S
C1212 C1207 1.350 . S
C1213 H1200 0.929 . S
C1213 C1205 1.433 . S
C1213 N1215 1.384 . S
N1214 C1210 1.427 . S
N1214 C1211 1.384 . S
N1215 C1207 1.427 . S
N1215 C1213 1.384 . S
C363 C177 2.132 . S
C359 C19 2.084 . S
C381 C182 1.497 . S
C377 C24 1.439 . S
C399 C183 1.357 . S
C395 C59 1.341 . S
C413 C69 1.338 . S
C417 C187 1.327 . S
C431 C82 1.435 . S
C435 C190 1.499 . S
C453 C191 1.343 . S
C449 C118 1.347 . S
C467 C132 1.326 . S
C471 C168 1.340 . S
C485 C158 2.095 . S
C489 C184 2.128 . S
C507 C222 1.609 . S
C503 C4 1.533 . S
C521 C29 0.912 . S
C525 C248 0.905 . S
C543 C200 1.465 . S
C539 C44 1.410 . S
C561 C255 1.320 . S
C557 C79 1.322 . S
C575 C98 1.323 . S
C579 C209 1.334 . S
C597 C251 1.315 . S
C593 C112 1.304 . S
C611 C122 1.182 . S
C615 C215 1.199 . S
C629 C152 1.202 . S
C633 C246 1.231 . S
C647 C9 1.221 . S
C651 C254 1.234 . S
C665 C92 0.905 . S
C669 C241 0.916 . S
C687 C219 1.479 . S
C683 C102 1.426 . S
C705 C247 1.307 . S
C701 C138 1.319 . S
C719 C142 1.546 . S
C723 C214 1.622 . S
C737 C49 1.301 . S
C741 C232 1.314 . S
C759 C223 1.210 . S
C755 C64 1.167 . S
C773 C39 1.336 . S
C777 C216 1.314 . S
C791 C159 2.063 . S
C795 C278 2.070 . S
C809 C84 1.413 . S
C813 C273 1.470 . S
C831 C287 1.311 . S
C827 C119 1.318 . S
C849 C264 1.325 . S
C845 C129 1.322 . S
C863 C22 1.430 . S
C867 C280 1.477 . S
C885 C279 1.321 . S
C881 C58 1.324 . S
C899 C72 1.314 . S
C903 C283 1.316 . S
C917 C18 2.073 . S
C921 C286 2.072 . S
C935 C144 1.546 . S
C939 C312 1.660 . S
C957 C328 0.927 . S
C953 C89 0.924 . S
C971 C104 1.428 . S
C975 C310 1.496 . S
C989 C139 1.347 . S
C993 C343 1.329 . S
C1011 C319 1.335 . S
C1007 C38 1.322 . S
C1025 C52 1.315 . S
C1029 C337 1.336 . S
C1047 C315 1.216 . S
C1043 C62 1.163 . S
C1065 C350 1.240 . S
C1061 C12 1.228 . S
C1083 C342 1.258 . S
C1079 C149 1.243 . S
C1097 C32 0.924 . S
C1101 C347 0.936 . S
C1115 C42 1.420 . S
C1119 C318 1.505 . S
C1137 C351 1.328 . S
C1133 C78 1.343 . S
C1151 C2 1.549 . S
C1155 C305 1.656 . S
C1169 C109 1.322 . S
C1173 C344 1.326 . S
C1191 C296 1.209 . S
C1187 C124 1.175 . S
C1209 C311 1.326 . S
C1205 C99 1.333 . S
