# Generated by pormake.
# Topology gar, (4,6)-cn, num edge types: 1
# Building blocks:
#     Node 0, Type 0, BuildingBlock: TATPOV_clean_sbu_0, # of connection points: 4
#     Node 1, Type 0, BuildingBlock: TATPOV_clean_sbu_0, # of connection points: 4
#     Node 2, Type 0, BuildingBlock: TATPOV_clean_sbu_0, # of connection points: 4
#     Node 3, Type 0, BuildingBlock: TATPOV_clean_sbu_0, # of connection points: 4
#     Node 4, Type 0, BuildingBlock: TATPOV_clean_sbu_0, # of connection points: 4
#     Node 5, Type 0, BuildingBlock: TATPOV_clean_sbu_0, # of connection points: 4
#     Node 6, Type 0, BuildingBlock: TATPOV_clean_sbu_0, # of connection points: 4
#     Node 7, Type 0, BuildingBlock: TATPOV_clean_sbu_0, # of connection points: 4
#     Node 8, Type 0, BuildingBlock: TATPOV_clean_sbu_0, # of connection points: 4
#     Node 9, Type 0, BuildingBlock: TATPOV_clean_sbu_0, # of connection points: 4
#     Node 10, Type 0, BuildingBlock: TATPOV_clean_sbu_0, # of connection points: 4
#     Node 11, Type 0, BuildingBlock: TATPOV_clean_sbu_0, # of connection points: 4
#     Node 12, Type 0, BuildingBlock: TATPOV_clean_sbu_0, # of connection points: 4
#     Node 13, Type 0, BuildingBlock: TATPOV_clean_sbu_0, # of connection points: 4
#     Node 14, Type 0, BuildingBlock: TATPOV_clean_sbu_0, # of connection points: 4
#     Node 15, Type 0, BuildingBlock: TATPOV_clean_sbu_0, # of connection points: 4
#     Node 16, Type 0, BuildingBlock: TATPOV_clean_sbu_0, # of connection points: 4
#     Node 17, Type 0, BuildingBlock: TATPOV_clean_sbu_0, # of connection points: 4
#     Node 18, Type 0, BuildingBlock: TATPOV_clean_sbu_0, # of connection points: 4
#     Node 19, Type 0, BuildingBlock: TATPOV_clean_sbu_0, # of connection points: 4
#     Node 20, Type 0, BuildingBlock: TATPOV_clean_sbu_0, # of connection points: 4
#     Node 21, Type 0, BuildingBlock: TATPOV_clean_sbu_0, # of connection points: 4
#     Node 22, Type 0, BuildingBlock: TATPOV_clean_sbu_0, # of connection points: 4
#     Node 23, Type 0, BuildingBlock: TATPOV_clean_sbu_0, # of connection points: 4
#     Node 24, Type 1, BuildingBlock: NUHQIS_clean_sbu_0, # of connection points: 6
#     Node 25, Type 1, BuildingBlock: NUHQIS_clean_sbu_0, # of connection points: 6
#     Node 26, Type 1, BuildingBlock: NUHQIS_clean_sbu_0, # of connection points: 6
#     Node 27, Type 1, BuildingBlock: NUHQIS_clean_sbu_0, # of connection points: 6
#     Node 28, Type 1, BuildingBlock: NUHQIS_clean_sbu_0, # of connection points: 6
#     Node 29, Type 1, BuildingBlock: NUHQIS_clean_sbu_0, # of connection points: 6
#     Node 30, Type 1, BuildingBlock: NUHQIS_clean_sbu_0, # of connection points: 6
#     Node 31, Type 1, BuildingBlock: NUHQIS_clean_sbu_0, # of connection points: 6
#     Node 32, Type 1, BuildingBlock: NUHQIS_clean_sbu_0, # of connection points: 6
#     Node 33, Type 1, BuildingBlock: NUHQIS_clean_sbu_0, # of connection points: 6
#     Node 34, Type 1, BuildingBlock: NUHQIS_clean_sbu_0, # of connection points: 6
#     Node 35, Type 1, BuildingBlock: NUHQIS_clean_sbu_0, # of connection points: 6
#     Node 36, Type 1, BuildingBlock: NUHQIS_clean_sbu_0, # of connection points: 6
#     Node 37, Type 1, BuildingBlock: NUHQIS_clean_sbu_0, # of connection points: 6
#     Node 38, Type 1, BuildingBlock: NUHQIS_clean_sbu_0, # of connection points: 6
#     Node 39, Type 1, BuildingBlock: NUHQIS_clean_sbu_0, # of connection points: 6
#     Edge 40, Type (0, 1), BuildingBlock: KIFKEQ_clean_linker_1, # of connection points: 2
#     Edge 41, Type (0, 1), BuildingBlock: KIFKEQ_clean_linker_1, # of connection points: 2
#     Edge 42, Type (0, 1), BuildingBlock: KIFKEQ_clean_linker_1, # of connection points: 2
#     Edge 43, Type (0, 1), BuildingBlock: KIFKEQ_clean_linker_1, # of connection points: 2
#     Edge 44, Type (0, 1), BuildingBlock: KIFKEQ_clean_linker_1, # of connection points: 2
#     Edge 45, Type (0, 1), BuildingBlock: KIFKEQ_clean_linker_1, # of connection points: 2
#     Edge 46, Type (0, 1), BuildingBlock: KIFKEQ_clean_linker_1, # of connection points: 2
#     Edge 47, Type (0, 1), BuildingBlock: KIFKEQ_clean_linker_1, # of connection points: 2
#     Edge 48, Type (0, 1), BuildingBlock: KIFKEQ_clean_linker_1, # of connection points: 2
#     Edge 49, Type (0, 1), BuildingBlock: KIFKEQ_clean_linker_1, # of connection points: 2
#     Edge 50, Type (0, 1), BuildingBlock: KIFKEQ_clean_linker_1, # of connection points: 2
#     Edge 51, Type (0, 1), BuildingBlock: KIFKEQ_clean_linker_1, # of connection points: 2
#     Edge 52, Type (0, 1), BuildingBlock: KIFKEQ_clean_linker_1, # of connection points: 2
#     Edge 53, Type (0, 1), BuildingBlock: KIFKEQ_clean_linker_1, # of connection points: 2
#     Edge 54, Type (0, 1), BuildingBlock: KIFKEQ_clean_linker_1, # of connection points: 2
#     Edge 55, Type (0, 1), BuildingBlock: KIFKEQ_clean_linker_1, # of connection points: 2
#     Edge 56, Type (0, 1), BuildingBlock: KIFKEQ_clean_linker_1, # of connection points: 2
#     Edge 57, Type (0, 1), BuildingBlock: KIFKEQ_clean_linker_1, # of connection points: 2
#     Edge 58, Type (0, 1), BuildingBlock: KIFKEQ_clean_linker_1, # of connection points: 2
#     Edge 59, Type (0, 1), BuildingBlock: KIFKEQ_clean_linker_1, # of connection points: 2
#     Edge 60, Type (0, 1), BuildingBlock: KIFKEQ_clean_linker_1, # of connection points: 2
#     Edge 61, Type (0, 1), BuildingBlock: KIFKEQ_clean_linker_1, # of connection points: 2
#     Edge 62, Type (0, 1), BuildingBlock: KIFKEQ_clean_linker_1, # of connection points: 2
#     Edge 63, Type (0, 1), BuildingBlock: KIFKEQ_clean_linker_1, # of connection points: 2
#     Edge 64, Type (0, 1), BuildingBlock: KIFKEQ_clean_linker_1, # of connection points: 2
#     Edge 65, Type (0, 1), BuildingBlock: KIFKEQ_clean_linker_1, # of connection points: 2
#     Edge 66, Type (0, 1), BuildingBlock: KIFKEQ_clean_linker_1, # of connection points: 2
#     Edge 67, Type (0, 1), BuildingBlock: KIFKEQ_clean_linker_1, # of connection points: 2
#     Edge 68, Type (0, 1), BuildingBlock: KIFKEQ_clean_linker_1, # of connection points: 2
#     Edge 69, Type (0, 1), BuildingBlock: KIFKEQ_clean_linker_1, # of connection points: 2
#     Edge 70, Type (0, 1), BuildingBlock: KIFKEQ_clean_linker_1, # of connection points: 2
#     Edge 71, Type (0, 1), BuildingBlock: KIFKEQ_clean_linker_1, # of connection points: 2
#     Edge 72, Type (0, 1), BuildingBlock: KIFKEQ_clean_linker_1, # of connection points: 2
#     Edge 73, Type (0, 1), BuildingBlock: KIFKEQ_clean_linker_1, # of connection points: 2
#     Edge 74, Type (0, 1), BuildingBlock: KIFKEQ_clean_linker_1, # of connection points: 2
#     Edge 75, Type (0, 1), BuildingBlock: KIFKEQ_clean_linker_1, # of connection points: 2
#     Edge 76, Type (0, 1), BuildingBlock: KIFKEQ_clean_linker_1, # of connection points: 2
#     Edge 77, Type (0, 1), BuildingBlock: KIFKEQ_clean_linker_1, # of connection points: 2
#     Edge 78, Type (0, 1), BuildingBlock: KIFKEQ_clean_linker_1, # of connection points: 2
#     Edge 79, Type (0, 1), BuildingBlock: KIFKEQ_clean_linker_1, # of connection points: 2
#     Edge 80, Type (0, 1), BuildingBlock: KIFKEQ_clean_linker_1, # of connection points: 2
#     Edge 81, Type (0, 1), BuildingBlock: KIFKEQ_clean_linker_1, # of connection points: 2
#     Edge 82, Type (0, 1), BuildingBlock: KIFKEQ_clean_linker_1, # of connection points: 2
#     Edge 83, Type (0, 1), BuildingBlock: KIFKEQ_clean_linker_1, # of connection points: 2
#     Edge 84, Type (0, 1), BuildingBlock: KIFKEQ_clean_linker_1, # of connection points: 2
#     Edge 85, Type (0, 1), BuildingBlock: KIFKEQ_clean_linker_1, # of connection points: 2
#     Edge 86, Type (0, 1), BuildingBlock: KIFKEQ_clean_linker_1, # of connection points: 2
#     Edge 87, Type (0, 1), BuildingBlock: KIFKEQ_clean_linker_1, # of connection points: 2
#     Edge 88, Type (0, 1), BuildingBlock: KIFKEQ_clean_linker_1, # of connection points: 2
#     Edge 89, Type (0, 1), BuildingBlock: KIFKEQ_clean_linker_1, # of connection points: 2
#     Edge 90, Type (0, 1), BuildingBlock: KIFKEQ_clean_linker_1, # of connection points: 2
#     Edge 91, Type (0, 1), BuildingBlock: KIFKEQ_clean_linker_1, # of connection points: 2
#     Edge 92, Type (0, 1), BuildingBlock: KIFKEQ_clean_linker_1, # of connection points: 2
#     Edge 93, Type (0, 1), BuildingBlock: KIFKEQ_clean_linker_1, # of connection points: 2
#     Edge 94, Type (0, 1), BuildingBlock: KIFKEQ_clean_linker_1, # of connection points: 2
#     Edge 95, Type (0, 1), BuildingBlock: KIFKEQ_clean_linker_1, # of connection points: 2
#     Edge 96, Type (0, 1), BuildingBlock: KIFKEQ_clean_linker_1, # of connection points: 2
#     Edge 97, Type (0, 1), BuildingBlock: KIFKEQ_clean_linker_1, # of connection points: 2
#     Edge 98, Type (0, 1), BuildingBlock: KIFKEQ_clean_linker_1, # of connection points: 2
#     Edge 99, Type (0, 1), BuildingBlock: KIFKEQ_clean_linker_1, # of connection points: 2
#     Edge 100, Type (0, 1), BuildingBlock: KIFKEQ_clean_linker_1, # of connection points: 2
#     Edge 101, Type (0, 1), BuildingBlock: KIFKEQ_clean_linker_1, # of connection points: 2
#     Edge 102, Type (0, 1), BuildingBlock: KIFKEQ_clean_linker_1, # of connection points: 2
#     Edge 103, Type (0, 1), BuildingBlock: KIFKEQ_clean_linker_1, # of connection points: 2
#     Edge 104, Type (0, 1), BuildingBlock: KIFKEQ_clean_linker_1, # of connection points: 2
#     Edge 105, Type (0, 1), BuildingBlock: KIFKEQ_clean_linker_1, # of connection points: 2
#     Edge 106, Type (0, 1), BuildingBlock: KIFKEQ_clean_linker_1, # of connection points: 2
#     Edge 107, Type (0, 1), BuildingBlock: KIFKEQ_clean_linker_1, # of connection points: 2
#     Edge 108, Type (0, 1), BuildingBlock: KIFKEQ_clean_linker_1, # of connection points: 2
#     Edge 109, Type (0, 1), BuildingBlock: KIFKEQ_clean_linker_1, # of connection points: 2
#     Edge 110, Type (0, 1), BuildingBlock: KIFKEQ_clean_linker_1, # of connection points: 2
#     Edge 111, Type (0, 1), BuildingBlock: KIFKEQ_clean_linker_1, # of connection points: 2
#     Edge 112, Type (0, 1), BuildingBlock: KIFKEQ_clean_linker_1, # of connection points: 2
#     Edge 113, Type (0, 1), BuildingBlock: KIFKEQ_clean_linker_1, # of connection points: 2
#     Edge 114, Type (0, 1), BuildingBlock: KIFKEQ_clean_linker_1, # of connection points: 2
#     Edge 115, Type (0, 1), BuildingBlock: KIFKEQ_clean_linker_1, # of connection points: 2
#     Edge 116, Type (0, 1), BuildingBlock: KIFKEQ_clean_linker_1, # of connection points: 2
#     Edge 117, Type (0, 1), BuildingBlock: KIFKEQ_clean_linker_1, # of connection points: 2
#     Edge 118, Type (0, 1), BuildingBlock: KIFKEQ_clean_linker_1, # of connection points: 2
#     Edge 119, Type (0, 1), BuildingBlock: KIFKEQ_clean_linker_1, # of connection points: 2
#     Edge 120, Type (0, 1), BuildingBlock: KIFKEQ_clean_linker_1, # of connection points: 2
#     Edge 121, Type (0, 1), BuildingBlock: KIFKEQ_clean_linker_1, # of connection points: 2
#     Edge 122, Type (0, 1), BuildingBlock: KIFKEQ_clean_linker_1, # of connection points: 2
#     Edge 123, Type (0, 1), BuildingBlock: KIFKEQ_clean_linker_1, # of connection points: 2
#     Edge 124, Type (0, 1), BuildingBlock: KIFKEQ_clean_linker_1, # of connection points: 2
#     Edge 125, Type (0, 1), BuildingBlock: KIFKEQ_clean_linker_1, # of connection points: 2
#     Edge 126, Type (0, 1), BuildingBlock: KIFKEQ_clean_linker_1, # of connection points: 2
#     Edge 127, Type (0, 1), BuildingBlock: KIFKEQ_clean_linker_1, # of connection points: 2
#     Edge 128, Type (0, 1), BuildingBlock: KIFKEQ_clean_linker_1, # of connection points: 2
#     Edge 129, Type (0, 1), BuildingBlock: KIFKEQ_clean_linker_1, # of connection points: 2
#     Edge 130, Type (0, 1), BuildingBlock: KIFKEQ_clean_linker_1, # of connection points: 2
#     Edge 131, Type (0, 1), BuildingBlock: KIFKEQ_clean_linker_1, # of connection points: 2
#     Edge 132, Type (0, 1), BuildingBlock: KIFKEQ_clean_linker_1, # of connection points: 2
#     Edge 133, Type (0, 1), BuildingBlock: KIFKEQ_clean_linker_1, # of connection points: 2
#     Edge 134, Type (0, 1), BuildingBlock: KIFKEQ_clean_linker_1, # of connection points: 2
#     Edge 135, Type (0, 1), BuildingBlock: KIFKEQ_clean_linker_1, # of connection points: 2
# Relax obj value: 0.226
# Max RMSD: 0.328
# Mean RMSD: 0.161
data_MOF--net-gar--node1-TATPOV_clean_sbu_0--node2-NUHQIS_clean_sbu_0--edge1-KIFKEQ_clean_linker_1
_symmetry_space_group_name_H-M    P1
_symmetry_Int_Tables_number       1
_symmetry_cell_setting            triclinic
loop_
_symmetry_equiv_pos_as_xyz
'x, y, z'
_cell_length_a     58.005718
_cell_length_b     60.187286
_cell_length_c     58.100541
_cell_angle_alpha  93.875957
_cell_angle_beta   97.23334
_cell_angle_gamma 102.19864
loop_
_atom_site_label
_atom_site_type_symbol
_atom_site_fract_x
_atom_site_fract_y
_atom_site_fract_z
_atom_type_partial_charge
Zn0 Zn 0.06079 0.28913 0.442 0.0
Zn1 Zn 0.09055 0.29186 0.4123 0.0
O2 O 0.09601 0.32711 0.43227 0.0
O3 O 0.07243 0.32118 0.4591 0.0
O4 O 0.12051 0.29205 0.39081 0.0
O5 O 0.06566 0.26029 0.45686 0.0
O6 O 0.08959 0.25882 0.43075 0.0
C7 C 0.08712 0.33515 0.44971 0.0
C8 C 0.03549 0.2869 0.39435 0.0
O9 O 0.0567 0.28897 0.38876 0.0
O10 O 0.03299 0.2859 0.41567 0.0
C11 C 0.13775 0.30848 0.38718 0.0
O12 O 0.13829 0.329 0.39682 0.0
C13 C 0.07904 0.24944 0.44736 0.0
Zn14 Zn 0.05838 0.76921 0.67799 0.0
Zn15 Zn 0.061 0.7993 0.64912 0.0
O16 O 0.02861 0.79982 0.66859 0.0
O17 O 0.02923 0.77286 0.69205 0.0
O18 O 0.06346 0.83005 0.62773 0.0
O19 O 0.09107 0.78062 0.69651 0.0
O20 O 0.0969 0.80537 0.67057 0.0
C21 C 1.01911 0.78812 0.68446 0.0
C22 C 0.05707 0.7448 0.63318 0.0
O23 O 0.05858 0.76541 0.62679 0.0
O24 O 0.05581 0.74225 0.65447 0.0
C25 C 0.0619 0.85046 0.63538 0.0
O26 O 0.05825 0.85324 0.65715 0.0
C27 C 0.10522 0.79612 0.68836 0.0
Zn28 Zn 0.55635 0.78871 0.94086 0.0
Zn29 Zn 0.5877 0.79262 0.91318 0.0
O30 O 0.59207 0.82728 0.93434 0.0
O31 O 0.56573 0.8204 0.95846 0.0
O32 O 0.61982 0.79622 0.89424 0.0
O33 O 0.5611 0.75957 0.95527 0.0
O34 O 0.58676 0.75925 0.93067 0.0
C35 C 0.58136 0.83481 0.95065 0.0
C36 C 0.53302 0.78814 0.89319 0.0
O37 O 0.55451 0.78986 0.88836 0.0
O38 O 0.52952 0.78665 0.91418 0.0
C39 C 0.62272 0.78542 0.87509 0.0
O40 O 0.60426 0.7702 0.86413 0.0
C41 C 0.57537 0.74931 0.94647 0.0
Zn42 Zn 0.56124 0.27167 0.17889 0.0
Zn43 Zn 0.56483 0.3017 0.14941 0.0
O44 O 0.53258 0.3027 0.1685 0.0
O45 O 0.53374 0.27803 0.19458 0.0
O46 O 0.56745 0.3322 0.12779 0.0
O47 O 0.59482 0.28196 0.19568 0.0
O48 O 0.60072 0.30788 0.17095 0.0
C49 C 0.52361 0.29268 0.1856 0.0
C50 C 0.55876 0.24686 0.13391 0.0
O51 O 0.56197 0.26759 0.12764 0.0
O52 O 0.55632 0.24431 0.15501 0.0
C53 C 0.56395 0.35211 0.13472 0.0
O54 O 0.55802 0.35437 0.1557 0.0
C55 C 0.60905 0.29782 0.18809 0.0
Zn56 Zn 0.17488 0.87653 0.14375 0.0
Zn57 Zn 0.14267 0.86929 0.17465 0.0
O58 O 0.12835 0.88805 0.15172 0.0
O59 O 0.15274 0.89332 0.12547 0.0
O60 O 0.11822 0.86248 0.19577 0.0
O61 O 0.16972 0.84179 0.13699 0.0
O62 O 0.14354 0.83762 0.16155 0.0
C63 C 0.13381 0.89601 0.13293 0.0
C64 C 0.19357 0.89419 0.19228 0.0
O65 O 0.17255 0.88552 0.19591 0.0
O66 O 0.19887 0.89309 0.17175 0.0
C67 C 0.11251 0.87766 0.20874 0.0
O68 O 0.12348 0.89915 0.20894 0.0
C69 C 0.15478 0.82895 0.14719 0.0
Zn70 Zn 0.48846 0.7228 0.42629 0.0
Zn71 Zn 0.52614 0.73725 0.40254 0.0
O72 O 0.52399 0.76562 0.42192 0.0
O73 O 0.49226 0.75591 0.4394 0.0
O74 O 0.55356 0.74851 0.38577 0.0
O75 O 0.50861 0.70275 0.44231 0.0
O76 O 0.53697 0.7132 0.4208 0.0
C77 C 0.50969 0.7709 0.4351 0.0
C78 C 0.47663 0.71671 0.37588 0.0
O79 O 0.49848 0.72627 0.37667 0.0
O80 O 0.46811 0.71238 0.39457 0.0
C81 C 0.5517 0.76074 0.36895 0.0
O82 O 0.53116 0.76591 0.3622 0.0
C83 C 0.52862 0.70142 0.43639 0.0
Zn84 Zn 0.67692 0.38102 0.65115 0.0
Zn85 Zn 0.64506 0.37128 0.68184 0.0
O86 O 0.63048 0.39211 0.66135 0.0
O87 O 0.65428 0.39832 0.63466 0.0
O88 O 0.62114 0.36231 0.70326 0.0
O89 O 0.6724 0.34682 0.64211 0.0
O90 O 0.64493 0.34057 0.66527 0.0
C91 C 0.63566 0.40088 0.64285 0.0
C92 C 0.69668 0.39506 0.6997 0.0
O93 O 0.67584 0.38558 0.70329 0.0
O94 O 0.7014 0.39622 0.67902 0.0
C95 C 0.61356 0.37641 0.71594 0.0
O96 O 0.62216 0.39841 0.71579 0.0
C97 C 0.65663 0.33312 0.65056 0.0
Zn98 Zn 0.98847 0.22785 0.92649 0.0
Zn99 Zn 1.0208 0.23315 0.89556 0.0
O100 O 1.02146 0.26565 0.9076 0.0
O101 O 0.99452 0.26261 0.93146 0.0
O102 O 0.04555 0.2372 0.87436 0.0
O103 O 1.00975 0.21087 0.94573 0.0
O104 O 0.03401 0.2145 0.91933 0.0
C105 C 1.00999 0.27487 0.92133 0.0
C106 C 0.96893 0.20974 0.8786 0.0
O107 O 0.99013 0.21749 0.87478 0.0
O108 O 0.96381 0.21138 0.89916 0.0
C109 C 0.04379 0.24712 0.85583 0.0
O110 O 1.02448 0.25465 0.84954 0.0
C111 C 0.02843 0.20728 0.93837 0.0
Zn112 Zn 0.58259 0.10783 0.32338 0.0
Zn113 Zn 0.54412 0.12505 0.31228 0.0
O114 O 0.55413 0.13763 0.34689 0.0
O115 O 0.58641 0.12411 0.35517 0.0
O116 O 0.51478 0.13662 0.30175 0.0
O117 O 0.59938 0.12501 0.30002 0.0
O118 O 0.56743 0.13844 0.28993 0.0
C119 C 0.57211 0.13591 0.36115 0.0
C120 C 0.54031 0.07287 0.30895 0.0
O121 O 0.53113 0.09025 0.30731 0.0
O122 O 0.56252 0.07555 0.31526 0.0
C123 C 0.49604 0.13116 0.31123 0.0
O124 O 0.49631 0.11864 0.32889 0.0
C125 C 0.58875 0.13731 0.28765 0.0
Zn126 Zn 0.31803 0.20079 0.52081 0.0
Zn127 Zn 0.34885 0.17619 0.52567 0.0
O128 O 0.35156 0.19385 0.49197 0.0
O129 O 0.32685 0.21685 0.49288 0.0
O130 O 0.37884 0.15757 0.52947 0.0
O131 O 0.32512 0.2175 0.55302 0.0
O132 O 0.35199 0.19716 0.56035 0.0
C133 C 0.34182 0.20923 0.4824 0.0
C134 C 0.29288 0.15408 0.51909 0.0
O135 O 0.31442 0.15113 0.52339 0.0
O136 O 0.28984 0.1739 0.5158 0.0
C137 C 0.39093 0.15171 0.51363 0.0
O138 O 0.38499 0.1568 0.49238 0.0
C139 C 0.34051 0.21197 0.56765 0.0
Zn140 Zn 0.17942 0.09649 0.87259 0.0
Zn141 Zn 0.20065 0.06884 0.84778 0.0
O142 O 0.19574 0.05252 0.87702 0.0
O143 O 0.18175 0.07651 0.89882 0.0
O144 O 0.21814 0.04932 0.83058 0.0
O145 O 0.15125 0.08852 0.84634 0.0
O146 O 0.1695 0.06663 0.82661 0.0
C147 C 0.18868 0.05806 0.89598 0.0
C148 C 0.22293 0.12038 0.85993 0.0
O149 O 0.22296 0.10058 0.85068 0.0
O150 O 0.20611 0.12335 0.87086 0.0
C151 C 0.23811 0.04712 0.84078 0.0
O152 O 0.24627 0.05785 0.86162 0.0
C153 C 0.15155 0.07533 0.82846 0.0
Zn154 Zn 0.36069 0.8567 0.03139 0.0
Zn155 Zn 0.33214 0.88615 0.03436 0.0
O156 O 0.32031 0.86905 1.00127 0.0
O157 O 0.34352 0.84456 0.99943 0.0
O158 O 0.30892 0.90602 0.03956 0.0
O159 O 0.35106 0.84155 0.05958 0.0
O160 O 0.331 0.86847 0.06358 0.0
C161 C 0.32688 0.85305 0.99006 0.0
C162 C 0.38498 0.905 0.03678 0.0
O163 O 0.36406 0.9086 0.03605 0.0
O164 O 0.38806 0.88473 0.03546 0.0
C165 C 0.30535 0.92215 0.02751 0.0
O166 O 0.3169 0.92634 0.00966 0.0
C167 C 0.33853 0.85154 0.07118 0.0
Zn168 Zn 0.3275 0.39154 0.0376 0.0
Zn169 Zn 0.29992 0.41889 0.03433 0.0
O170 O 0.29701 0.39864 0.99924 0.0
O171 O 0.31757 0.37259 1.00657 0.0
O172 O 0.26887 0.43633 0.03082 0.0
O173 O 0.32266 0.3784 0.06806 0.0
O174 O 0.29771 0.40127 0.0682 0.0
C175 C 0.30515 0.38137 0.9918 0.0
C176 C 0.35529 0.43826 0.0376 0.0
O177 O 0.33472 0.44358 0.03681 0.0
O178 O 0.35606 0.41743 0.03827 0.0
C179 C 0.26562 0.45452 0.04212 0.0
O180 O 0.28309 0.46549 0.05814 0.0
C181 C 0.30799 0.38655 0.07846 0.0
Zn182 Zn 0.78645 0.23428 0.02235 0.0
Zn183 Zn 0.81707 0.20624 0.02199 0.0
O184 O 0.82144 0.22451 0.99331 0.0
O185 O 0.79879 0.24951 0.99513 0.0
O186 O 0.84039 0.18574 0.02047 0.0
O187 O 0.80115 0.24623 0.05546 0.0
O188 O 0.82621 0.22339 0.05513 0.0
C189 C 0.81345 0.24095 0.98504 0.0
C190 C 0.76362 0.18608 0.01545 0.0
O191 O 0.785 0.18356 0.01808 0.0
O192 O 0.75941 0.20593 0.01605 0.0
C193 C 0.84055 0.17423 1.00132 0.0
O194 O 0.82564 0.17618 0.98296 0.0
C195 C 0.81798 0.23857 0.06579 0.0
Zn196 Zn 0.08359 0.4805 0.21259 0.0
Zn197 Zn 0.12462 0.4652 0.2174 0.0
O198 O 0.10941 0.45664 0.24647 0.0
O199 O 0.07517 0.46733 0.24191 0.0
O200 O 0.156 0.45609 0.22388 0.0
O201 O 0.0741 0.45972 0.18294 0.0
O202 O 0.10778 0.44793 0.18594 0.0
C203 C 0.08986 0.45811 0.25358 0.0
C204 C 0.12576 0.51648 0.21567 0.0
O205 O 0.13561 0.49953 0.21661 0.0
O206 O 0.10326 0.51328 0.21387 0.0
C207 C 0.17009 0.46754 0.24123 0.0
O208 O 0.16308 0.48358 0.25319 0.0
C209 C 0.08715 0.44747 0.17507 0.0
Zn210 Zn 0.83103 0.89481 0.54093 0.0
Zn211 Zn 0.79991 0.91869 0.5363 0.0
O212 O 0.79746 0.89848 0.50126 0.0
O213 O 0.8252 0.8791 0.50839 0.0
O214 O 0.76842 0.93554 0.53282 0.0
O215 O 0.82261 0.87765 0.56827 0.0
O216 O 0.79771 0.90037 0.56984 0.0
C217 C 0.80974 0.8845 0.49376 0.0
C218 C 0.85561 0.9417 0.54362 0.0
O219 O 0.83399 0.94445 0.53905 0.0
O220 O 0.85883 0.92194 0.54682 0.0
C221 C 0.76612 0.95513 0.54187 0.0
O222 O 0.78487 0.96799 0.55511 0.0
C223 C 0.80765 0.88492 0.57906 0.0
Zn224 Zn 0.96788 1.00282 0.19605 0.0
Zn225 Zn 0.94588 0.03222 0.21762 0.0
O226 O 0.9758 0.03525 0.24078 0.0
O227 O 0.99374 1.01065 0.22457 0.0
O228 O 0.92716 0.05264 0.23144 0.0
O229 O 0.969 0.02257 0.16928 0.0
O230 O 0.9531 0.04713 0.18819 0.0
C231 C 0.99312 0.02532 0.2411 0.0
C232 C 0.92264 0.98068 0.20626 0.0
O233 O 0.92312 1.00077 0.21505 0.0
O234 O 0.93968 0.97683 0.19614 0.0
C235 C 0.92489 0.05524 0.25285 0.0
O236 O 0.93585 0.04424 0.26793 0.0
C237 C 0.96198 0.0411 0.17054 0.0
Zn238 Zn 0.28815 0.73688 0.52537 0.0
Zn239 Zn 0.31838 0.70868 0.52342 0.0
O240 O 0.32153 0.72645 0.49419 0.0
O241 O 0.2985 0.75101 0.49698 0.0
O242 O 0.34173 0.68811 0.52167 0.0
O243 O 0.30459 0.7502 0.5575 0.0
O244 O 0.32877 0.72656 0.55628 0.0
C245 C 0.31273 0.74256 0.48615 0.0
C246 C 0.26494 0.68879 0.51946 0.0
O247 O 0.28621 0.68605 0.52054 0.0
O248 O 0.261 0.70874 0.52101 0.0
C249 C 0.34137 0.67571 0.50294 0.0
O250 O 0.32583 0.6767 0.48472 0.0
C251 C 0.32162 0.74239 0.56716 0.0
Zn252 Zn 0.47705 0.50607 0.69496 0.0
Zn253 Zn 0.45213 0.53263 0.7167 0.0
O254 O 0.48223 0.53609 0.73983 0.0
O255 O 0.50299 0.51446 0.72318 0.0
O256 O 0.43391 0.5529 0.73186 0.0
O257 O 0.47676 0.52621 0.66858 0.0
O258 O 0.45874 0.54872 0.68774 0.0
C259 C 0.5008 0.52796 0.74007 0.0
C260 C 0.43208 0.48082 0.7041 0.0
O261 O 0.43037 0.50033 0.7128 0.0
O262 O 0.45031 0.4788 0.69496 0.0
C263 C 0.41543 0.54685 0.74156 0.0
O264 O 0.40659 0.52506 0.74275 0.0
C265 C 0.46832 0.54391 0.67012 0.0
Zn266 Zn 0.58303 0.9806 0.72612 0.0
Zn267 Zn 0.62554 0.96829 0.72822 0.0
O268 O 0.61148 0.95577 0.75664 0.0
O269 O 0.57595 0.9638 0.7538 0.0
O270 O 0.65807 0.96126 0.73256 0.0
O271 O 0.5742 0.96263 0.69483 0.0
O272 O 0.6089 0.95293 0.69595 0.0
C273 C 0.59163 0.95478 0.76414 0.0
C274 C 0.623 0.01904 0.73141 0.0
O275 O 0.63419 1.00305 0.73031 0.0
O276 O 0.6005 1.01427 0.73025 0.0
C277 C 0.67156 0.97123 0.75096 0.0
O278 O 0.66325 0.98452 0.76516 0.0
C279 C 0.58799 0.95217 0.68556 0.0
Zn280 Zn 0.81995 0.70401 0.02618 0.0
Zn281 Zn 0.84883 0.67619 0.028 0.0
O282 O 0.85104 0.69451 0.99466 0.0
O283 O 0.82826 0.7192 0.99739 0.0
O284 O 0.87811 0.65656 0.03066 0.0
O285 O 0.83036 0.72092 0.05848 0.0
O286 O 0.85293 0.69595 0.06323 0.0
C287 C 0.84199 0.71069 0.98591 0.0
C288 C 0.79295 0.65678 0.02403 0.0
O289 O 0.81395 0.65234 0.02604 0.0
O290 O 0.79109 0.67729 0.02275 0.0
C291 C 0.89182 0.65301 0.01541 0.0
O292 O 0.88825 0.66143 0.99532 0.0
C293 C 0.84437 0.71242 0.07191 0.0
Zn294 Zn 0.08025 0.60434 0.83269 0.0
Zn295 Zn 0.04209 0.62186 0.8196 0.0
O296 O 0.05197 0.63653 0.85351 0.0
O297 O 0.08425 0.62335 0.86313 0.0
O298 O 1.01309 0.63318 0.80735 0.0
O299 O 0.09689 0.61897 0.80771 0.0
O300 O 0.06562 0.63315 0.79683 0.0
C301 C 0.07004 0.63567 0.86809 0.0
C302 C 0.03738 0.56972 0.82016 0.0
O303 O 0.02884 0.58723 0.81671 0.0
O304 O 0.05944 0.57211 0.8271 0.0
C305 C 0.99267 0.62434 0.81244 0.0
O306 O 0.9908 0.60853 0.82705 0.0
C307 C 0.08661 0.63092 0.79453 0.0
Zn308 Zn 0.86359 0.35357 0.53003 0.0
Zn309 Zn 0.83441 0.38216 0.53486 0.0
O310 O 0.82232 0.36579 0.50157 0.0
O311 O 0.84499 0.34091 0.49863 0.0
O312 O 0.81141 0.40219 0.54047 0.0
O313 O 0.85577 0.33889 0.5589 0.0
O314 O 0.83269 0.36311 0.5632 0.0
C315 C 0.82829 0.3497 0.48991 0.0
C316 C 0.88733 0.40167 0.53578 0.0
O317 O 0.86644 0.40483 0.53679 0.0
O318 O 0.89065 0.38157 0.53292 0.0
C319 C 0.80714 0.41744 0.52748 0.0
O320 O 0.81774 0.42034 0.50886 0.0
C321 C 0.8419 0.34698 0.57054 0.0
Zn322 Zn 0.69472 0.59959 0.38224 0.0
Zn323 Zn 0.72033 0.57241 0.36312 0.0
O324 O 0.70929 0.55557 0.39052 0.0
O325 O 0.69131 0.57914 0.40822 0.0
O326 O 0.74045 0.55306 0.3499 0.0
O327 O 0.67139 0.59203 0.35186 0.0
O328 O 0.69333 0.57057 0.33699 0.0
C329 C 0.69842 0.56066 0.4071 0.0
C330 C 0.74107 0.62392 0.37683 0.0
O331 O 0.74253 0.60421 0.36854 0.0
O332 O 0.72237 0.62659 0.38472 0.0
C333 C 0.76006 0.5516 0.36148 0.0
O334 O 0.76694 0.56301 0.38217 0.0
C335 C 0.67509 0.57926 0.33506 0.0
Tb336 Tb 0.04723 0.03784 0.01555 0.0
Eu337 Eu 0.09851 0.05394 0.05174 0.0
C338 C 0.09275 0.02162 1.00443 0.0
C339 C 0.06086 1.00936 0.05509 0.0
C340 C 0.9866 0.03953 0.99219 0.0
C341 C 0.95636 0.05618 0.97135 0.0
C342 C 0.97354 0.04293 0.97122 0.0
C343 C 0.98194 0.04929 0.0133 0.0
C344 C 0.96492 0.06255 0.01345 0.0
C345 C 0.952 0.06632 0.99248 0.0
C346 C 1.0063 0.02749 0.99204 0.0
O347 O 0.04048 0.0567 0.04636 0.0
O348 O 0.07717 0.07808 0.0641 0.0
O349 O 0.10066 0.07888 0.02464 0.0
O350 O 0.06063 0.07311 0.01028 0.0
C351 C 0.05378 0.07396 0.06056 0.0
O352 O 0.11988 0.05128 0.08481 0.0
O353 O 0.13661 0.06935 0.05822 0.0
O354 O 0.1008 0.02468 0.02676 0.0
O355 O 0.07402 0.02905 0.99578 0.0
O356 O 0.05422 1.00849 0.0326 0.0
O357 O 0.07158 0.02885 0.06689 0.0
C358 C 0.08274 0.08473 0.01234 0.0
O359 O 1.0251 0.03831 0.98398 0.0
O360 O 1.01208 0.01854 0.01119 0.0
C361 C 0.15742 0.04532 0.07773 0.0
C362 C 0.19112 0.01859 0.07132 0.0
C363 C 0.19858 0.04168 0.0804 0.0
C364 C 0.18185 0.05494 0.0835 0.0
C365 C 0.14989 0.02214 0.06935 0.0
C366 C 0.16654 1.00892 0.06618 0.0
C367 C 0.13996 0.05987 0.0775 0.0
H368 H 0.94655 0.05852 0.9549 0.0
H369 H 0.97692 0.03568 0.95474 0.0
H370 H 0.99183 0.04712 0.02977 0.0
H371 H 0.9624 0.07037 0.03002 0.0
H372 H 0.21735 0.04959 0.08481 0.0
H373 H 0.188 0.07285 0.08975 0.0
H374 H 0.13111 1.01442 0.06443 0.0
H375 H 0.16011 0.99135 0.05881 0.0
Tb376 Tb 0.34998 0.82241 0.29138 0.0
Eu377 Eu 0.30748 0.77714 0.26748 0.0
C378 C 0.29933 0.827 0.27593 0.0
C379 C 0.32247 0.7882 0.32345 0.0
C380 C 0.39995 0.87603 0.30535 0.0
C381 C 0.43349 0.90696 0.32122 0.0
C382 C 0.41674 0.88739 0.32415 0.0
C383 C 0.40056 0.88407 0.28326 0.0
C384 C 0.41743 0.90371 0.28026 0.0
C385 C 0.43388 0.9156 0.29933 0.0
C386 C 0.38078 0.85738 0.31003 0.0
O387 O 0.36747 0.79598 0.27908 0.0
O388 O 0.33874 0.76394 0.28209 0.0
O389 O 0.32874 0.78979 0.23922 0.0
O390 O 0.3447 0.82707 0.25442 0.0
C391 C 0.36098 0.77396 0.28133 0.0
O392 O 0.29521 0.74591 0.24409 0.0
O393 O 0.26966 0.7603 0.26129 0.0
O394 O 0.29634 0.80956 0.26037 0.0
O395 O 0.31509 0.82914 0.29457 0.0
O396 O 0.34174 0.80309 0.32052 0.0
O397 O 0.30565 0.77848 0.30615 0.0
C398 C 0.33854 0.81112 0.23678 0.0
O399 O 0.35922 0.85768 0.30081 0.0
O400 O 0.38455 0.83678 0.30908 0.0
C401 C 0.25908 0.72033 0.24926 0.0
C402 C 0.23072 0.67556 0.2457 0.0
C403 C 0.25575 0.67932 0.24876 0.0
C404 C 0.26981 0.7015 0.25053 0.0
C405 C 0.23416 0.71664 0.24706 0.0
C406 C 0.22012 0.69451 0.24536 0.0
C407 C 0.27301 0.74355 0.24752 0.0
H408 H 0.44554 0.91581 0.33638 0.0
H409 H 0.41637 0.88156 0.34138 0.0
H410 H 0.38767 0.87552 0.26852 0.0
H411 H 0.41739 0.90973 0.26312 0.0
H412 H 0.26446 0.66509 0.24942 0.0
H413 H 0.289 0.70382 0.25222 0.0
H414 H 0.22547 0.73086 0.24578 0.0
H415 H 0.20091 0.69221 0.24277 0.0
Tb416 Tb 0.56511 0.03629 0.50495 0.0
Eu417 Eu 0.58794 0.06549 0.55469 0.0
C418 C 0.56053 1.01312 0.55213 0.0
C419 C 0.53603 0.07142 0.52998 0.0
C420 C 0.54058 0.98837 0.46066 0.0
C421 C 0.51316 0.95136 0.45225 0.0
C422 C 0.51733 0.97516 0.45454 0.0
C423 C 0.55977 0.97747 0.46321 0.0
C424 C 0.55564 0.9537 0.46064 0.0
C425 C 0.53224 0.94035 0.45586 0.0
C426 C 0.54407 1.01289 0.46783 0.0
O427 O 0.58912 0.06634 0.49645 0.0
O428 O 0.58785 0.09063 0.52787 0.0
O429 O 0.61541 0.04446 0.54579 0.0
O430 O 0.5974 0.02199 0.51212 0.0
C431 C 0.59149 0.08701 0.50637 0.0
O432 O 0.6208 0.08648 0.57374 0.0
O433 O 0.58936 0.07858 0.59097 0.0
O434 O 0.56699 0.03289 0.56471 0.0
O435 O 0.56105 1.01084 0.52966 0.0
O436 O 0.53889 0.05781 0.512 0.0
O437 O 0.55212 0.07594 0.54888 0.0
C438 C 0.61554 0.02819 0.52925 0.0
O439 O 0.53337 0.01743 0.48542 0.0
O440 O 0.56576 0.02526 0.46996 0.0
C441 C 0.61569 0.11514 0.60083 0.0
C442 C 0.62511 0.1625 0.61343 0.0
C443 C 0.64363 0.15192 0.60889 0.0
C444 C 0.63899 0.12843 0.60282 0.0
C445 C 0.5972 0.12563 0.60594 0.0
C446 C 0.60193 0.14913 0.61233 0.0
C447 C 0.61104 0.09081 0.5921 0.0
H448 H 0.49491 0.94164 0.44874 0.0
H449 H 0.50226 0.98324 0.45275 0.0
H450 H 0.57792 0.98722 0.4681 0.0
H451 H 0.57079 0.94579 0.46295 0.0
H452 H 0.6617 0.16187 0.60991 0.0
H453 H 0.65355 0.12071 0.59911 0.0
H454 H 0.57904 0.11583 0.60453 0.0
H455 H 0.58735 0.15697 0.6157 0.0
Tb456 Tb 0.30035 0.30178 0.76938 0.0
Eu457 Eu 0.35371 0.29703 0.79069 0.0
C458 C 0.34504 0.33936 0.76213 0.0
C459 C 0.33295 0.2802 0.73593 0.0
C460 C 0.23559 0.29861 0.76319 0.0
C461 C 0.19321 0.2974 0.75902 0.0
C462 C 0.21507 0.30306 0.75067 0.0
C463 C 0.23423 0.28885 0.78435 0.0
C464 C 0.21241 0.28302 0.7926 0.0
C465 C 0.19164 0.28702 0.7799 0.0
C466 C 0.25812 0.30306 0.75364 0.0
O467 O 0.29528 0.27527 0.79301 0.0
O468 O 0.32981 0.26293 0.79221 0.0
O469 O 0.33674 0.30666 0.82246 0.0
O470 O 0.30647 0.32127 0.8045 0.0
C471 C 0.30789 0.25984 0.79664 0.0
O472 O 0.38206 0.27827 0.79436 0.0
O473 O 0.38681 0.3111 0.81411 0.0
O474 O 0.35851 0.3319 0.7783 0.0
O475 O 0.32308 0.32858 0.75429 0.0
O476 O 0.31157 0.28134 0.7411 0.0
O477 O 0.35213 0.28811 0.75147 0.0
C478 C 0.32001 0.31841 0.82375 0.0
O479 O 0.27412 0.32091 0.76338 0.0
O480 O 0.26728 0.28528 0.75059 0.0
C481 C 0.42005 0.30257 0.79964 0.0
C482 C 0.4642 0.31851 0.7845 0.0
C483 C 0.46323 0.31194 0.8072 0.0
C484 C 0.44125 0.30397 0.8147 0.0
C485 C 0.42093 0.30934 0.77708 0.0
C486 C 0.44283 0.31717 0.76954 0.0
C487 C 0.39699 0.29486 0.80759 0.0
H488 H 0.17745 0.30058 0.74888 0.0
H489 H 0.21589 0.31056 0.73426 0.0
H490 H 0.24999 0.28542 0.79428 0.0
H491 H 0.21175 0.27536 0.80892 0.0
H492 H 0.47945 0.3127 0.81901 0.0
H493 H 0.4408 0.29894 0.83222 0.0
H494 H 0.40466 0.30866 0.76535 0.0
H495 H 0.44305 0.32244 0.75209 0.0
Tb496 Tb 0.0719 0.034 0.50876 0.0
Eu497 Eu 0.07866 0.06018 0.56013 0.0
C498 C 0.12434 0.06342 0.53184 0.0
C499 C 0.07607 1.00464 0.55487 0.0
C500 C 0.07399 0.01902 0.44617 0.0
C501 C 0.07321 1.0073 0.40531 0.0
C502 C 0.0719 1.00176 0.42814 0.0
C503 C 0.07915 0.04198 0.44152 0.0
C504 C 0.08025 0.04753 0.41869 0.0
C505 C 0.07641 0.03018 0.40028 0.0
C506 C 0.06794 1.01285 0.46896 0.0
O507 O 0.0346 0.02891 0.51572 0.0
O508 O 0.04 0.04036 0.55476 0.0
O509 O 0.07645 0.08868 0.53578 0.0
O510 O 0.07226 0.06963 0.49943 0.0
C511 C 1.026 0.03051 0.53559 0.0
O512 O 0.06488 0.08166 0.58449 0.0
O513 O 0.09889 0.07267 0.59424 0.0
O514 O 0.11675 0.06586 0.55206 0.0
O515 O 0.10955 0.05297 0.51326 0.0
O516 O 0.07354 1.00559 0.53189 0.0
O517 O 0.07908 0.02358 0.56892 0.0
C518 C 0.07465 0.08897 0.51286 0.0
O519 O 0.08568 1.0137 0.4854 0.0
O520 O 0.05147 0.02205 0.47633 0.0
C521 C 0.076 0.07749 0.62427 0.0
C522 C 0.07007 0.07212 0.67109 0.0
C523 C 0.06467 0.09113 0.66052 0.0
C524 C 0.06776 0.09384 0.63734 0.0
C525 C 0.07963 0.05765 0.63415 0.0
C526 C 0.07682 0.05504 0.65737 0.0
C527 C 0.08238 0.08219 0.60113 0.0
H528 H 0.06995 0.99358 0.39143 0.0
H529 H 0.06792 0.98396 0.43149 0.0
H530 H 0.08097 0.05553 0.45533 0.0
H531 H 0.08287 0.06529 0.41525 0.0
H532 H 0.05897 0.10437 0.67043 0.0
H533 H 0.06459 0.10913 0.62989 0.0
H534 H 0.08572 0.04463 0.62427 0.0
H535 H 0.08139 0.04029 0.66489 0.0
Tb536 Tb 0.31636 0.7724 0.78258 0.0
Eu537 Eu 0.33564 0.82612 0.77534 0.0
C538 C 0.31168 0.81142 0.82002 0.0
C539 C 0.2795 0.80069 0.75968 0.0
C540 C 0.31284 0.71069 0.78515 0.0
C541 C 0.31085 0.67027 0.78752 0.0
C542 C 0.30058 0.68919 0.78982 0.0
C543 C 0.33534 0.71315 0.77796 0.0
C544 C 0.34565 0.69433 0.77576 0.0
C545 C 0.33358 0.67272 0.78066 0.0
C546 C 0.30254 0.73067 0.78844 0.0
O547 O 0.32324 0.77235 0.74666 0.0
O548 O 0.34962 0.80676 0.74782 0.0
O549 O 0.36598 0.81602 0.79835 0.0
O550 O 0.35573 0.77719 0.78967 0.0
C551 C 0.33918 0.78648 0.7374 0.0
O552 O 0.33958 0.85413 0.75313 0.0
O553 O 0.35524 0.8603 0.78944 0.0
O554 O 0.31418 0.82662 0.80491 0.0
O555 O 0.31583 0.79106 0.81575 0.0
O556 O 0.2831 0.78433 0.77293 0.0
O557 O 0.29762 0.81664 0.75578 0.0
C558 C 0.37153 0.79588 0.79892 0.0
O559 O 0.31436 0.7462 0.80478 0.0
O560 O 0.29623 0.73967 0.76956 0.0
C561 C 0.33867 0.88893 0.77335 0.0
C562 C 0.31785 0.92643 0.78136 0.0
C563 C 0.34026 0.92954 0.77362 0.0
C564 C 0.3506 0.91088 0.76966 0.0
C565 C 0.3162 0.88568 0.78071 0.0
C566 C 0.30589 0.90425 0.78472 0.0
C567 C 0.34983 0.86947 0.77036 0.0
H568 H 0.30123 0.65384 0.79151 0.0
H569 H 0.2832 0.68709 0.79545 0.0
H570 H 0.34498 0.72967 0.7742 0.0
H571 H 0.363 0.69665 0.77006 0.0
H572 H 0.3498 0.94636 0.77065 0.0
H573 H 0.36797 0.91362 0.76396 0.0
H574 H 0.30681 0.86879 0.78373 0.0
H575 H 0.28883 0.90129 0.79106 0.0
Tb576 Tb 0.58893 0.04174 0.05851 0.0
Eu577 Eu 0.56405 0.04959 1.00851 0.0
C578 C 0.58155 1.00167 0.01703 0.0
C579 C 0.61906 0.06588 0.02369 0.0
C580 C 0.61579 0.05922 0.11752 0.0
C581 C 0.6466 0.08551 0.14447 0.0
C582 C 0.63947 0.06592 0.12858 0.0
C583 C 0.59948 0.07251 0.12242 0.0
C584 C 0.60656 0.09197 0.13809 0.0
C585 C 0.63016 0.09875 0.14931 0.0
C586 C 0.60854 0.04004 0.09908 0.0
O587 O 0.57586 0.07369 0.06571 0.0
O588 O 0.56847 0.08478 0.02895 0.0
O589 O 0.53507 0.04279 0.03089 0.0
O590 O 0.55334 0.02003 0.05295 0.0
C591 C 0.57133 0.08948 0.05188 0.0
O592 O 0.56529 0.06556 0.97589 0.0
O593 O 0.53419 0.04004 0.9803 0.0
O594 O 0.56529 1.01145 1.00655 0.0
O595 O 0.5956 1.01262 0.03602 0.0
O596 O 0.61382 0.06766 0.0448 0.0
O597 O 0.60325 0.05417 1.00686 0.0
C598 C 0.53393 0.02635 0.0446 0.0
O599 O 0.58563 0.03313 0.09246 0.0
O600 O 0.62027 0.042 0.08131 0.0
C601 C 0.55029 0.03613 0.94604 0.0
C602 C 0.55653 1.00433 0.91076 0.0
C603 C 0.5423 0.02029 0.90567 0.0
C604 C 0.53891 0.03585 0.92331 0.0
C605 C 0.56504 0.02088 0.95093 0.0
C606 C 0.56763 1.0048 0.93376 0.0
C607 C 0.54628 0.05097 0.96547 0.0
H608 H 0.66489 0.09027 0.153 0.0
H609 H 0.65245 0.05614 0.12477 0.0
H610 H 0.58112 0.06802 0.11408 0.0
H611 H 0.59324 0.10133 0.14191 0.0
H612 H 0.53391 0.02098 0.8881 0.0
H613 H 0.52753 0.04761 0.91921 0.0
H614 H 0.57448 0.02122 0.96822 0.0
H615 H 0.57827 0.99269 0.93876 0.0
Tb616 Tb 0.33902 0.32107 0.29284 0.0
Eu617 Eu 0.31388 0.27199 0.26616 0.0
C618 C 0.33958 0.27666 0.32135 0.0
C619 C 0.37065 0.29553 0.26333 0.0
C620 C 0.34401 0.38142 0.31031 0.0
C621 C 0.3101 0.39779 0.31628 0.0
C622 C 0.32387 0.38189 0.32135 0.0
C623 C 0.35122 0.39844 0.29566 0.0
C624 C 0.33737 0.41434 0.29052 0.0
C625 C 0.31617 0.4136 0.3001 0.0
C626 C 0.35526 0.36157 0.31116 0.0
O627 O 0.32805 0.32867 0.25654 0.0
O628 O 0.30234 0.29568 0.23975 0.0
O629 O 0.28322 0.28089 0.28368 0.0
O630 O 0.30136 0.31718 0.29991 0.0
C631 C 0.31308 0.31714 0.23848 0.0
O632 O 0.30816 0.24752 0.23531 0.0
O633 O 0.29361 0.23693 0.26608 0.0
O634 O 0.33028 0.26348 0.30185 0.0
O635 O 0.34462 0.29912 0.32123 0.0
O636 O 0.37045 0.30975 0.2817 0.0
O637 O 0.35077 0.28097 0.25408 0.0
C638 C 0.28264 0.29964 0.2966 0.0
O639 O 0.34552 0.34492 0.32238 0.0
O640 O 0.36018 0.35382 0.29136 0.0
C641 C 0.31306 0.21172 0.24697 0.0
C642 C 0.34751 0.18502 0.25368 0.0
C643 C 0.34469 0.19587 0.23317 0.0
C644 C 0.32757 0.209 0.22979 0.0
C645 C 0.31447 0.19917 0.26649 0.0
C646 C 0.33153 0.18597 0.26981 0.0
C647 C 0.2997 0.2302 0.2464 0.0
H648 H 0.2938 0.39663 0.32384 0.0
H649 H 0.31783 0.36911 0.33283 0.0
H650 H 0.36678 0.3986 0.28708 0.0
H651 H 0.34268 0.42657 0.27827 0.0
H652 H 0.35644 0.19505 0.22021 0.0
H653 H 0.32673 0.21816 0.21439 0.0
H654 H 0.30344 0.20068 0.27998 0.0
H655 H 0.33325 0.17781 0.2858 0.0
Tb656 Tb 0.57337 0.53463 1.00803 0.0
Eu657 Eu 0.57564 0.56082 0.05832 0.0
C658 C 0.62368 0.56441 0.03403 0.0
C659 C 0.57744 0.50592 0.05397 0.0
C660 C 0.57801 0.52181 0.94571 0.0
C661 C 0.57918 0.51142 0.90494 0.0
C662 C 0.57754 0.5052 0.9275 0.0
C663 C 0.58183 0.54491 0.94158 0.0
C664 C 0.58326 0.55112 0.919 0.0
C665 C 0.58108 0.53432 0.90036 0.0
C666 C 0.57183 0.51467 0.96815 0.0
O667 O 0.53779 0.52151 0.01756 0.0
O668 O 0.53585 0.55035 0.04412 0.0
O669 O 0.57563 0.5896 0.03446 0.0
O670 O 0.56902 0.56938 0.99848 0.0
C671 C 0.52528 0.53167 0.03052 0.0
O672 O 0.55807 0.56675 0.08847 0.0
O673 O 0.59333 0.5867 0.08677 0.0
O674 O 0.61496 0.56378 0.05396 0.0
O675 O 0.60958 0.55636 0.01436 0.0
O676 O 0.57888 0.50739 0.03143 0.0
O677 O 0.57586 0.52413 0.06728 0.0
C678 C 0.57239 0.58918 0.01152 0.0
O679 O 0.58951 0.51645 0.98493 0.0
O680 O 0.55415 0.52223 0.97517 0.0
C681 C 0.58293 0.57968 0.12389 0.0
C682 C 0.5958 0.57581 0.17146 0.0
C683 C 0.58183 0.59126 0.16439 0.0
C684 C 0.57548 0.59318 0.14077 0.0
C685 C 0.59651 0.56394 0.13072 0.0
C686 C 0.60295 0.56204 0.15438 0.0
C687 C 0.57611 0.5821 0.09927 0.0
H688 H 0.5772 0.4981 0.89086 0.0
H689 H 0.57462 0.4873 0.93047 0.0
H690 H 0.58241 0.55796 0.95554 0.0
H691 H 0.58485 0.5689 0.91591 0.0
H692 H 0.57576 0.60185 0.17711 0.0
H693 H 0.56478 0.60526 0.13568 0.0
H694 H 0.60227 0.5533 0.11779 0.0
H695 H 0.61395 0.55017 0.15927 0.0
Tb696 Tb 0.81895 0.27419 0.28255 0.0
Eu697 Eu 0.84046 0.32747 0.27531 0.0
C698 C 0.81591 0.31317 0.31994 0.0
C699 C 0.78367 0.30392 0.25931 0.0
C700 C 0.81495 0.21325 0.29059 0.0
C701 C 0.8111 0.17243 0.29138 0.0
C702 C 0.80082 0.19144 0.29131 0.0
C703 C 0.83953 0.21603 0.29037 0.0
C704 C 0.84984 0.19709 0.29051 0.0
C705 C 0.83569 0.17505 0.29078 0.0
C706 C 0.80397 0.23299 0.28951 0.0
O707 O 0.83751 0.27209 0.25224 0.0
O708 O 0.83982 0.30823 0.24095 0.0
O709 O 0.87337 0.3127 0.2845 0.0
O710 O 0.85561 0.2818 0.30185 0.0
C711 C 0.84082 0.28685 0.23661 0.0
O712 O 0.84023 0.35762 0.25647 0.0
O713 O 0.86652 0.3593 0.28675 0.0
O714 O 0.83322 0.32698 0.31225 0.0
O715 O 0.80464 0.29389 0.30787 0.0
O716 O 0.78892 0.28374 0.26127 0.0
O717 O 0.79982 0.32291 0.26684 0.0
C718 C 0.87506 0.29613 0.29795 0.0
O719 O 0.81247 0.24944 0.30608 0.0
O720 O 0.80152 0.24074 0.26916 0.0
C721 C 0.85058 0.39145 0.28148 0.0
C722 C 0.83813 0.43079 0.30036 0.0
C723 C 0.85463 0.4325 0.2844 0.0
C724 C 0.86084 0.41292 0.27505 0.0
C725 C 0.83417 0.38966 0.2974 0.0
C726 C 0.82802 0.40916 0.30679 0.0
C727 C 0.85676 0.37082 0.27163 0.0
H728 H 0.79981 0.15568 0.29176 0.0
H729 H 0.7818 0.18908 0.29153 0.0
H730 H 0.85067 0.23281 0.2897 0.0
H731 H 0.86875 0.19962 0.28965 0.0
H732 H 0.8628 0.44896 0.27926 0.0
H733 H 0.87357 0.41452 0.26278 0.0
H734 H 0.826 0.37313 0.30244 0.0
H735 H 0.81496 0.40724 0.31872 0.0
Tb736 Tb 0.08932 0.54107 0.55601 0.0
Eu737 Eu 0.06483 0.54924 0.5055 0.0
C738 C 0.08386 0.50152 0.51397 0.0
C739 C 0.12013 0.56611 0.5214 0.0
C740 C 0.11427 0.55745 0.61608 0.0
C741 C 0.14393 0.58171 0.6457 0.0
C742 C 0.13744 0.56324 0.62842 0.0
C743 C 0.09788 0.57068 0.62094 0.0
C744 C 0.1043 0.589 0.63806 0.0
C745 C 0.12732 0.59469 0.65078 0.0
C746 C 0.10754 0.53887 0.59701 0.0
O747 O 0.07604 0.5729 0.56303 0.0
O748 O 0.06854 0.58411 0.52633 0.0
O749 O 0.0356 0.54108 0.52752 0.0
O750 O 0.05431 0.51846 0.5492 0.0
C751 C 0.07136 0.58869 0.54927 0.0
O752 O 0.06511 0.56616 0.4734 0.0
O753 O 0.03498 0.53929 0.47735 0.0
O754 O 0.06893 0.51182 0.50198 0.0
O755 O 0.09601 0.51162 0.53424 0.0
O756 O 0.11526 0.56644 0.54274 0.0
O757 O 0.10417 0.55566 0.50401 0.0
C758 C 0.03473 0.52445 0.54094 0.0
O759 O 0.08475 0.53222 0.58961 0.0
O760 O 0.11999 0.54128 0.57978 0.0
C761 C 0.05017 0.53799 0.44228 0.0
C762 C 0.05637 0.50904 0.40445 0.0
C763 C 0.04179 0.52498 0.40111 0.0
C764 C 0.03845 0.53914 0.42 0.0
C765 C 0.06521 0.52274 0.44551 0.0
C766 C 0.06785 0.50808 0.42702 0.0
C767 C 0.04629 0.55145 0.4628 0.0
H768 H 0.16181 0.5857 0.65523 0.0
H769 H 0.15048 0.5535 0.62469 0.0
H770 H 0.07991 0.56688 0.6116 0.0
H771 H 0.09084 0.59819 0.64187 0.0
H772 H 0.03309 0.52676 0.38396 0.0
H773 H 1.02684 0.55093 0.4172 0.0
H774 H 0.0748 0.52196 0.46249 0.0
H775 H 0.07878 0.49589 0.43069 0.0
Tb776 Tb 0.80083 0.79797 0.27173 0.0
Eu777 Eu 0.85508 0.79929 0.29266 0.0
C778 C 0.84095 0.8388 0.26483 0.0
C779 C 0.83431 0.77884 0.23899 0.0
C780 C 0.73679 0.79708 0.26669 0.0
C781 C 0.69586 0.80096 0.26448 0.0
C782 C 0.71635 0.8015 0.25401 0.0
C783 C 0.73672 0.79225 0.28994 0.0
C784 C 0.71628 0.79164 0.30038 0.0
C785 C 0.69562 0.796 0.28777 0.0
C786 C 0.75834 0.798 0.25588 0.0
O787 O 0.79805 0.77279 0.29688 0.0
O788 O 0.83465 0.76427 0.29717 0.0
O789 O 0.83759 0.80617 0.3247 0.0
O790 O 0.80622 0.8188 0.30626 0.0
C791 C 0.81281 0.75949 0.302 0.0
O792 O 0.88619 0.78418 0.29549 0.0
O793 O 0.88795 0.81662 0.31489 0.0
O794 O 0.85344 0.83462 0.28371 0.0
O795 O 0.82265 0.82344 0.25421 0.0
O796 O 0.81292 0.77581 0.24561 0.0
O797 O 0.85291 0.79128 0.25306 0.0
C798 C 0.82002 0.81685 0.32575 0.0
O799 O 0.77495 0.81649 0.26194 0.0
O800 O 0.76692 0.77964 0.25628 0.0
C801 C 0.92207 0.81154 0.29967 0.0
C802 C 0.96457 0.82947 0.28253 0.0
C803 C 0.96522 0.82108 0.30455 0.0
C804 C 0.94404 0.81211 0.31305 0.0
C805 C 0.92132 0.82035 0.27793 0.0
C806 C 0.94242 0.82921 0.2694 0.0
C807 C 0.89987 0.80184 0.30829 0.0
H808 H 0.6803 0.8046 0.25441 0.0
H809 H 0.71627 0.80542 0.23608 0.0
H810 H 0.75247 0.78888 0.29997 0.0
H811 H 0.71655 0.78738 0.31821 0.0
H812 H 0.98205 0.8209 0.31491 0.0
H813 H 0.94481 0.80542 0.32992 0.0
H814 H 0.90441 0.82019 0.26751 0.0
H815 H 0.94143 0.83583 0.25251 0.0
Tb816 Tb 0.85664 0.3127 0.78806 0.0
Eu817 Eu 0.80593 0.27512 0.76781 0.0
C818 C 0.80932 0.32899 0.77656 0.0
C819 C 0.82668 0.28435 0.82246 0.0
C820 C 0.90649 0.36552 0.80208 0.0
C821 C 0.92448 0.4027 0.8232 0.0
C822 C 0.91231 0.38 0.82293 0.0
C823 C 0.91283 0.37429 0.78136 0.0
C824 C 0.92516 0.397 0.78166 0.0
C825 C 0.93131 0.41138 0.80263 0.0
C826 C 0.89536 0.34112 0.80277 0.0
O827 O 0.86553 0.28047 0.77709 0.0
O828 O 0.8315 0.25433 0.78107 0.0
O829 O 0.82718 0.28323 0.73843 0.0
O830 O 0.84699 0.31959 0.75224 0.0
C831 C 0.85443 0.25961 0.78005 0.0
O832 O 0.78659 0.24692 0.74247 0.0
O833 O 0.76746 0.26303 0.76614 0.0
O834 O 0.80032 0.31025 0.76266 0.0
O835 O 0.82862 0.33119 0.7917 0.0
O836 O 0.8478 0.29348 0.81723 0.0
O837 O 0.80738 0.27914 0.80685 0.0
C838 C 0.83813 0.30382 0.73481 0.0
O839 O 0.87756 0.33661 0.81462 0.0
O840 O 0.89168 0.32768 0.78346 0.0
C841 C 0.75048 0.22463 0.75066 0.0
C842 C 0.72052 0.1812 0.75108 0.0
C843 C 0.73628 0.19171 0.77118 0.0
C844 C 0.7512 0.21329 0.77097 0.0
C845 C 0.7348 0.21426 0.7307 0.0
C846 C 0.72 0.19278 0.73086 0.0
C847 C 0.76607 0.247 0.74937 0.0
H848 H 0.92922 0.41324 0.83969 0.0
H849 H 0.90788 0.37361 0.83919 0.0
H850 H 0.90864 0.36357 0.76499 0.0
H851 H 0.93 0.40327 0.76549 0.0
H852 H 0.73701 0.18332 0.78709 0.0
H853 H 0.76329 0.22106 0.78654 0.0
H854 H 0.73416 0.22273 0.71482 0.0
H855 H 0.7085 0.18505 0.71493 0.0
Tb856 Tb 0.83446 0.82012 0.79376 0.0
Eu857 Eu 0.81228 0.76978 0.76837 0.0
C858 C 0.83615 0.77681 0.82387 0.0
C859 C 0.86745 0.79445 0.76485 0.0
C860 C 0.84428 0.88203 0.80661 0.0
C861 C 0.83042 0.91563 0.81891 0.0
C862 C 0.84215 0.89819 0.82427 0.0
C863 C 0.83629 0.8846 0.78334 0.0
C864 C 0.82433 0.90181 0.77798 0.0
C865 C 0.82029 0.91691 0.79582 0.0
C866 C 0.85054 0.86055 0.81276 0.0
O867 O 0.81766 0.82825 0.75955 0.0
O868 O 0.80753 0.79285 0.73899 0.0
O869 O 0.77925 0.77934 0.78082 0.0
O870 O 0.79781 0.81233 0.8038 0.0
C871 C 0.81052 0.81528 0.73948 0.0
O872 O 0.81027 0.74468 0.73874 0.0
O873 O 0.79115 0.7349 0.76722 0.0
O874 O 0.82236 0.76348 0.80635 0.0
O875 O 0.8454 0.79845 0.82114 0.0
O876 O 0.86263 0.81383 0.77279 0.0
O877 O 0.85236 0.77505 0.76639 0.0
C878 C 0.77854 0.79589 0.79674 0.0
O879 O 0.83334 0.84605 0.81942 0.0
O880 O 0.86109 0.85053 0.79805 0.0
C881 C 0.81402 0.71032 0.75339 0.0
C882 C 0.84886 0.6842 0.75882 0.0
C883 C 0.83248 0.68075 0.73822 0.0
C884 C 0.81521 0.69393 0.73544 0.0
C885 C 0.82958 0.71264 0.77441 0.0
C886 C 0.84681 0.69976 0.77708 0.0
C887 C 0.79998 0.72774 0.74931 0.0
H888 H 0.82812 0.92731 0.83301 0.0
H889 H 0.84823 0.89649 0.84234 0.0
H890 H 0.83787 0.87238 0.76943 0.0
H891 H 0.81672 0.90206 0.76003 0.0
H892 H 0.83389 0.66884 0.72391 0.0
H893 H 0.80362 0.69214 0.71896 0.0
H894 H 0.8293 0.72531 0.78843 0.0
H895 H 0.8592 0.70258 0.79315 0.0
Tb896 Tb 0.54594 0.53466 0.51788 0.0
Eu897 Eu 0.59883 0.55036 0.55142 0.0
C898 C 0.58963 0.51579 0.50581 0.0
C899 C 0.55959 0.50911 0.55989 0.0
C900 C 0.48535 0.53825 0.49648 0.0
C901 C 0.45434 0.55416 0.47589 0.0
C902 C 0.47091 0.54022 0.47581 0.0
C903 C 0.48282 0.55029 0.51727 0.0
C904 C 0.4664 0.56422 0.51737 0.0
C905 C 0.452 0.56645 0.49668 0.0
C906 C 0.50413 0.52505 0.49622 0.0
O907 O 0.54181 0.55673 0.54763 0.0
O908 O 0.5798 0.57677 0.5634 0.0
O909 O 0.60084 0.57205 0.52145 0.0
O910 O 0.56057 0.56906 0.51063 0.0
C911 C 0.5565 0.57403 0.56068 0.0
O912 O 0.62169 0.54695 0.58327 0.0
O913 O 0.63696 0.56579 0.55641 0.0
O914 O 0.59764 0.51875 0.52815 0.0
O915 O 0.57124 0.52382 0.49734 0.0
O916 O 0.55217 0.50645 0.53742 0.0
O917 O 0.57157 0.52908 0.56971 0.0
C918 C 0.58294 0.57875 0.51009 0.0
O919 O 0.52268 0.5343 0.48682 0.0
O920 O 0.51035 0.51698 0.51579 0.0
C921 C 0.65896 0.54171 0.57452 0.0
C922 C 0.69276 0.51518 0.56769 0.0
C923 C 0.70017 0.53858 0.57556 0.0
C924 C 0.68339 0.55173 0.57889 0.0
C925 C 0.65152 0.51829 0.56715 0.0
C926 C 0.66821 0.50518 0.56376 0.0
C927 C 0.64125 0.55595 0.57529 0.0
H928 H 0.44337 0.55528 0.45969 0.0
H929 H 0.47264 0.53121 0.45956 0.0
H930 H 0.49381 0.54925 0.53348 0.0
H931 H 0.46545 0.57368 0.53362 0.0
H932 H 0.71893 0.54678 0.57902 0.0
H933 H 0.68948 0.56982 0.58439 0.0
H934 H 0.63272 0.51024 0.56335 0.0
H935 H 0.6618 0.48734 0.55731 0.0
Tb936 Tb 0.0658 0.53722 1.00371 0.0
Eu937 Eu 0.08573 0.5626 0.05584 0.0
C938 C 0.05822 0.50973 0.04813 0.0
C939 C 0.03483 0.56972 0.02967 0.0
C940 C 0.04394 0.49354 0.95382 0.0
C941 C 1.01752 0.45598 0.94483 0.0
C942 C 1.021 0.47936 0.95105 0.0
C943 C 0.06313 0.48411 0.94874 0.0
C944 C 0.05959 0.46074 0.94222 0.0
C945 C 0.03687 0.44628 0.94085 0.0
C946 C 0.04771 0.51743 0.96393 0.0
O947 O 0.09137 0.56805 0.99948 0.0
O948 O 0.08647 0.5898 0.03119 0.0
O949 O 0.11439 0.54326 0.04641 0.0
O950 O 0.09727 0.52192 0.01184 0.0
C951 C 0.09224 0.58802 0.0103 0.0
O952 O 0.11732 0.58321 0.07747 0.0
O953 O 0.08461 0.57315 0.09232 0.0
O954 O 0.06577 0.52825 0.06264 0.0
O955 O 0.05828 0.50953 0.02558 0.0
O956 O 0.0394 0.55859 0.01075 0.0
O957 O 0.04929 0.57182 0.04955 0.0
C958 C 0.115 0.52759 0.02942 0.0
O959 O 0.0354 0.5205 0.9807 0.0
O960 O 0.06964 0.52923 0.96878 0.0
C961 C 0.10858 0.60997 0.10383 0.0
C962 C 0.11776 0.65735 0.11599 0.0
C963 C 0.09907 0.64676 0.0983 0.0
C964 C 0.09457 0.62327 0.09222 0.0
C965 C 0.12679 0.62028 0.12191 0.0
C966 C 0.13136 0.64382 0.12799 0.0
C967 C 0.10611 0.58606 0.09517 0.0
H968 H 0.99981 0.44542 0.94418 0.0
H969 H 1.00586 0.48621 0.95471 0.0
H970 H 0.08101 0.4946 0.95046 0.0
H971 H 0.07479 0.45394 0.93871 0.0
H972 H 0.0885 0.65675 0.08853 0.0
H973 H 0.08069 0.61561 0.07791 0.0
H974 H 0.13791 0.61023 0.13086 0.0
H975 H 0.1457 0.65149 0.14186 0.0
H976 H 0.06633 0.19243 0.92462 0.0
H977 H 1.02468 0.19222 0.98139 0.0
H978 H 0.08841 0.16702 0.94399 0.0
H979 H 0.04688 0.16684 1.00067 0.0
H980 H 0.09486 0.12701 0.03526 0.0
H981 H 0.08845 0.16203 0.01867 0.0
H982 H 0.071 0.12534 0.94999 0.0
H983 H 0.07697 0.0905 0.9667 0.0
C984 C 0.06212 0.18727 0.94141 0.0
C985 C 0.04347 0.19402 0.95133 0.0
C986 C 0.07486 0.17282 0.95247 0.0
C987 C 0.06935 0.16506 0.97376 0.0
C988 C 0.05169 0.17286 0.98438 0.0
C989 C 0.03878 0.18716 0.97323 0.0
C990 C 0.09068 0.12685 0.01653 0.0
C991 C 0.08655 0.10639 1.00208 0.0
C992 C 0.08683 0.14672 1.0071 0.0
C993 C 0.07914 0.14627 0.98312 0.0
C994 C 0.07718 0.1262 0.96849 0.0
C995 C 0.08058 0.1063 0.97797 0.0
H996 H 0.19067 0.88778 0.23804 0.0
H997 H 0.24021 0.91541 0.19204 0.0
H998 H 0.22353 0.88244 0.26571 0.0
H999 H 0.2732 0.91075 0.22027 0.0
H1000 H 0.29147 0.83918 0.23264 0.0
H1001 H 0.27244 0.86887 0.2196 0.0
H1002 H 0.26468 0.88878 0.29063 0.0
H1003 H 0.28492 0.85878 0.30399 0.0
C1004 C 0.20865 0.89383 0.23433 0.0
C1005 C 0.21282 0.90085 0.21232 0.0
C1006 C 0.22756 0.89097 0.2504 0.0
C1007 C 0.25077 0.89529 0.24463 0.0
C1008 C 0.25531 0.90669 0.22478 0.0
C1009 C 0.2364 0.90926 0.20856 0.0
C1010 C 0.28619 0.85014 0.24561 0.0
C1011 C 0.28929 0.8465 0.26926 0.0
C1012 C 0.27559 0.86748 0.23818 0.0
C1013 C 0.2673 0.88141 0.25413 0.0
C1014 C 0.27116 0.87841 0.27802 0.0
C1015 C 0.2825 0.86123 0.28561 0.0
H1016 H 0.47517 0.79282 0.44584 0.0
H1017 H 0.55076 0.80342 0.44298 0.0
H1018 H 0.47951 0.83412 0.45391 0.0
H1019 H 0.55507 0.84445 0.45134 0.0
H1020 H 0.55553 0.91551 0.48467 0.0
H1021 H 0.54925 0.87408 0.48356 0.0
H1022 H 0.49179 0.86661 0.42669 0.0
H1023 H 0.49855 0.90806 0.42704 0.0
C1024 C 0.49275 0.80391 0.44748 0.0
C1025 C 0.51262 0.79503 0.44368 0.0
C1026 C 0.49518 0.82747 0.45192 0.0
C1027 C 0.51759 0.84233 0.45311 0.0
C1028 C 0.53763 0.83329 0.45064 0.0
C1029 C 0.53514 0.80986 0.44577 0.0
C1030 C 0.54171 0.90509 0.47173 0.0
C1031 C 0.52776 0.91514 0.4557 0.0
C1032 C 0.53799 0.8814 0.47131 0.0
C1033 C 0.52001 0.86729 0.45512 0.0
C1034 C 0.50555 0.87721 0.43956 0.0
C1035 C 0.50947 0.90092 0.43976 0.0
H1036 H 0.59175 0.33211 0.71872 0.0
H1037 H 0.59057 0.4014 0.74275 0.0
H1038 H 0.55696 0.31792 0.73728 0.0
H1039 H 0.55544 0.38704 0.76121 0.0
H1040 H 0.50337 0.34933 0.80731 0.0
H1041 H 0.54123 0.36325 0.79292 0.0
H1042 H 0.51461 0.32011 0.72853 0.0
H1043 H 0.47714 0.30595 0.74301 0.0
C1044 C 0.58417 0.34433 0.72809 0.0
C1045 C 0.59379 0.36792 0.72907 0.0
C1046 C 0.56418 0.33617 0.73864 0.0
C1047 C 0.55337 0.35139 0.75045 0.0
C1048 C 0.56351 0.37493 0.75229 0.0
C1049 C 0.58354 0.38313 0.74164 0.0
C1050 C 0.50578 0.34269 0.79019 0.0
C1051 C 0.48736 0.3266 0.77625 0.0
C1052 C 0.52731 0.35079 0.78191 0.0
C1053 C 0.53084 0.34272 0.75965 0.0
C1054 C 0.51249 0.32644 0.74586 0.0
C1055 C 0.49097 0.3185 0.75405 0.0
H1056 H 0.07369 0.85806 0.58944 0.0
H1057 H 0.05482 0.89283 0.64909 0.0
H1058 H 0.07764 0.89363 0.56994 0.0
H1059 H 0.0581 0.92742 0.62993 0.0
H1060 H 0.08178 0.99577 0.60151 0.0
H1061 H 0.07933 0.95985 0.61884 0.0
H1062 H 0.06451 0.92324 0.55033 0.0
H1063 H 0.06764 0.9597 0.53296 0.0
C1064 C 0.07024 0.87305 0.59853 0.0
C1065 C 0.06399 0.8718 0.62133 0.0
C1066 C 0.07246 0.89381 0.58718 0.0
C1067 C 0.06862 0.9145 0.59801 0.0
C1068 C 0.06203 0.91283 0.6206 0.0
C1069 C 0.05988 0.89236 0.63178 0.0
C1070 C 0.07804 0.98019 0.58991 0.0
C1071 C 0.07496 0.98143 0.56549 0.0
C1072 C 0.07635 0.95906 0.60003 0.0
C1073 C 0.0713 0.93756 0.58647 0.0
C1074 C 0.06853 0.93882 0.56194 0.0
C1075 C 0.07026 0.96008 0.55177 0.0
H1076 H 0.51613 0.76797 0.84699 0.0
H1077 H 0.50029 0.81274 0.90091 0.0
H1078 H 0.47807 0.76924 0.82299 0.0
H1079 H 0.46306 0.81414 0.87741 0.0
H1080 H 0.40669 0.83029 0.82384 0.0
H1081 H 0.44587 0.82877 0.84351 0.0
H1082 H 0.43292 0.75704 0.82058 0.0
H1083 H 0.39329 0.75856 0.80069 0.0
C1084 C 0.50488 0.77841 0.8536 0.0
C1085 C 0.51173 0.79042 0.87601 0.0
C1086 C 0.48279 0.77895 0.83993 0.0
C1087 C 0.46704 0.79188 0.84798 0.0
C1088 C 0.47441 0.8042 0.87013 0.0
C1089 C 0.49601 0.80334 0.88378 0.0
C1090 C 0.41201 0.8141 0.82281 0.0
C1091 C 0.39628 0.79455 0.81053 0.0
C1092 C 0.43472 0.81319 0.83431 0.0
C1093 C 0.44304 0.79274 0.83402 0.0
C1094 C 0.42756 0.77322 0.82126 0.0
C1095 C 0.4046 0.77407 0.8099 0.0
H1096 H 0.57551 0.23972 0.09013 0.0
H1097 H 0.54255 0.20257 0.14266 0.0
H1098 H 0.5787 0.20315 0.06999 0.0
H1099 H 0.54558 0.16689 0.12299 0.0
H1100 H 0.57304 0.10518 0.09844 0.0
H1101 H 0.57033 0.14237 0.11579 0.0
H1102 H 0.56211 0.16605 0.0475 0.0
H1103 H 0.56528 0.12861 0.03014 0.0
C1104 C 0.56861 0.22396 0.09735 0.0
C1105 C 0.55875 0.22484 0.11843 0.0
C1106 C 0.57052 0.20269 0.08574 0.0
C1107 C 0.56287 0.1813 0.09474 0.0
C1108 C 0.55246 0.18241 0.11537 0.0
C1109 C 0.55048 0.20335 0.12675 0.0
C1110 C 0.57066 0.11815 0.08693 0.0
C1111 C 0.56932 0.11313 0.0626 0.0
C1112 C 0.56888 0.13985 0.09701 0.0
C1113 C 0.56566 0.158 0.08339 0.0
C1114 C 0.56466 0.1531 0.05901 0.0
C1115 C 0.56635 0.13126 0.0489 0.0
H1116 H 0.15014 0.26879 0.3672 0.0
H1117 H 0.17199 0.34213 0.3736 0.0
H1118 H 0.18369 0.26637 0.34578 0.0
H1119 H 0.20453 0.33993 0.35196 0.0
H1120 H 0.27509 0.33397 0.32769 0.0
H1121 H 0.24143 0.33497 0.34859 0.0
H1122 H 0.20508 0.26875 0.31432 0.0
H1123 H 0.23934 0.26759 0.29396 0.0
C1124 C 0.16185 0.28447 0.364 0.0
C1125 C 0.15777 0.30568 0.37263 0.0
C1126 C 0.18137 0.28314 0.35145 0.0
C1127 C 0.19787 0.30294 0.3468 0.0
C1128 C 0.19332 0.32401 0.35521 0.0
C1129 C 0.17406 0.3253 0.36772 0.0
C1130 C 0.25993 0.31959 0.32435 0.0
C1131 C 0.26051 0.30078 0.30861 0.0
C1132 C 0.24013 0.32016 0.33647 0.0
C1133 C 0.21952 0.302 0.33357 0.0
C1134 C 0.22014 0.28318 0.31772 0.0
C1135 C 0.24004 0.28258 0.30566 0.0
H1136 H 0.954 0.03131 0.1238 0.0
H1137 H 0.9835 0.08608 0.17813 0.0
H1138 H 0.97376 0.05382 0.09581 0.0
H1139 H 1.00424 0.10854 0.15016 0.0
H1140 H 1.01207 0.08638 0.04832 0.0
H1141 H 0.98374 0.09072 0.07505 0.0
H1142 H 0.03862 0.09344 0.13342 0.0
H1143 H 0.06678 0.08883 0.10667 0.0
C1144 C 0.96397 0.04857 0.12946 0.0
C1145 C 0.96747 0.05698 0.15297 0.0
C1146 C 0.97518 0.06158 0.11346 0.0
C1147 C 0.99064 0.08291 0.1209 0.0
C1148 C 0.99232 0.09222 0.14403 0.0
C1149 C 0.9805 0.07939 0.15995 0.0
C1150 C 1.01827 0.08887 0.06688 0.0
C1151 C 0.04117 0.08633 0.07558 0.0
C1152 C 1.00214 0.09158 0.08214 0.0
C1153 C 1.00885 0.09176 0.10621 0.0
C1154 C 0.03296 0.09328 0.1149 0.0
C1155 C 0.04911 0.09053 0.09959 0.0
H1156 H 0.30823 0.78299 0.46986 0.0
H1157 H 0.32619 0.71894 0.4501 0.0
H1158 H 0.31056 0.79387 0.43038 0.0
H1159 H 0.32824 0.72982 0.41037 0.0
H1160 H 0.29743 0.74836 0.33687 0.0
H1161 H 0.2968 0.7373 0.37672 0.0
H1162 H 0.34267 0.80249 0.40362 0.0
H1163 H 0.34352 0.81347 0.36408 0.0
C1164 C 0.31292 0.77134 0.45714 0.0
C1165 C 0.31709 0.75014 0.46309 0.0
C1166 C 0.31424 0.77757 0.43455 0.0
C1167 C 0.31938 0.7626 0.41732 0.0
C1168 C 0.324 0.74156 0.42331 0.0
C1169 C 0.32308 0.73546 0.44607 0.0
C1170 C 0.30721 0.76035 0.35133 0.0
C1171 C 0.32049 0.78178 0.34736 0.0
C1172 C 0.30705 0.75395 0.37406 0.0
C1173 C 0.31979 0.76902 0.39318 0.0
C1174 C 0.33266 0.79057 0.3892 0.0
C1175 C 0.33315 0.79681 0.36655 0.0
H1176 H 0.54322 0.93272 0.66429 0.0
H1177 H 0.61617 0.95156 0.65146 0.0
H1178 H 0.52938 0.93495 0.62334 0.0
H1179 H 0.60234 0.95404 0.61059 0.0
H1180 H 0.57478 0.97361 0.54308 0.0
H1181 H 0.57664 0.94396 0.56975 0.0
H1182 H 0.53807 0.97706 0.61541 0.0
H1183 H 0.53686 1.00675 0.58925 0.0
C1184 C 0.55628 0.93616 0.65245 0.0
C1185 C 0.58072 0.94282 0.66105 0.0
C1186 C 0.54834 0.93737 0.62901 0.0
C1187 C 0.56478 0.94546 0.61409 0.0
C1188 C 0.58926 0.94792 0.62179 0.0
C1189 C 0.59722 0.94658 0.64527 0.0
C1190 C 0.56594 0.97396 0.55841 0.0
C1191 C 0.55591 0.99249 0.56441 0.0
C1192 C 0.56701 0.95702 0.5736 0.0
C1193 C 0.55751 0.95819 0.59459 0.0
C1194 C 0.54527 0.97548 0.5992 0.0
C1195 C 0.54474 0.99264 0.58438 0.0
H1196 H 0.31247 0.34033 0.97459 0.0
H1197 H 0.29355 0.40093 0.94995 0.0
H1198 H 0.3148 0.32615 0.93516 0.0
H1199 H 0.2962 0.38664 0.90973 0.0
H1200 H 0.28811 0.34503 0.83562 0.0
H1201 H 0.28254 0.36021 0.87443 0.0
H1202 H 0.3385 0.32999 0.90564 0.0
H1203 H 0.34372 0.31476 0.86728 0.0
C1204 C 0.3086 0.35076 0.96075 0.0
C1205 C 0.30277 0.37202 0.96612 0.0
C1206 C 0.31024 0.34258 0.93776 0.0
C1207 C 0.30626 0.35517 0.91855 0.0
C1208 C 0.29948 0.37614 0.92365 0.0
C1209 C 0.29783 0.38442 0.94693 0.0
C1210 C 0.29926 0.34157 0.85074 0.0
C1211 C 0.31638 0.32835 0.84776 0.0
C1212 C 0.29612 0.35047 0.87325 0.0
C1213 C 0.3098 0.34641 0.8939 0.0
C1214 C 0.32703 0.33336 0.89072 0.0
C1215 C 0.33022 0.32461 0.86835 0.0
H1216 H 1.00845 0.06461 0.26997 0.0
H1217 H 1.01965 0.99633 0.2584 0.0
H1218 H 0.03562 0.07069 0.3065 0.0
H1219 H 0.04549 1.00166 0.29558 0.0
H1220 H 0.09414 0.01478 0.36214 0.0
H1221 H 0.08008 0.0179 0.32127 0.0
H1222 H 0.0322 0.05882 0.34307 0.0
H1223 H 0.04707 0.05653 0.38339 0.0
C1224 C 1.01685 0.05095 0.27526 0.0
C1225 C 1.01176 0.02992 0.26159 0.0
C1226 C 0.03232 0.05435 0.29624 0.0
C1227 C 0.04247 0.03654 0.30434 0.0
C1228 C 0.03832 0.01591 0.28992 0.0
C1229 C 1.02331 1.01273 0.26864 0.0
C1230 C 0.08107 0.02491 0.35802 0.0
C1231 C 0.07166 0.03539 0.37586 0.0
C1232 C 0.07285 0.02657 0.33465 0.0
C1233 C 0.05473 0.03836 0.32872 0.0
C1234 C 0.04643 0.04991 0.34674 0.0
C1235 C 0.05491 0.04857 0.36999 0.0
H1236 H 0.34513 0.72057 0.59938 0.0
H1237 H 0.31997 0.78252 0.59074 0.0
H1238 H 0.35534 0.73166 0.64141 0.0
H1239 H 0.33016 0.79354 0.63245 0.0
H1240 H 0.36096 0.81425 0.70726 0.0
H1241 H 0.36289 0.80444 0.66615 0.0
H1242 H 0.32913 0.73438 0.67237 0.0
H1243 H 0.32726 0.74408 0.71339 0.0
C1244 C 0.34228 0.73676 0.60635 0.0
C1245 C 0.33155 0.75057 0.59177 0.0
C1246 C 0.34799 0.74304 0.63042 0.0
C1247 C 0.34344 0.76342 0.64026 0.0
C1248 C 0.33409 0.77784 0.62543 0.0
C1249 C 0.3281 0.77144 0.60151 0.0
C1250 C 0.35437 0.79667 0.69999 0.0
C1251 C 0.34369 0.78001 0.71356 0.0
C1252 C 0.3554 0.79108 0.67641 0.0
C1253 C 0.34601 0.76867 0.66597 0.0
C1254 C 0.33668 0.75175 0.67991 0.0
C1255 C 0.33544 0.75737 0.7034 0.0
H1256 H 0.55143 0.93051 0.77787 0.0
H1257 H 0.62446 0.96432 0.80272 0.0
H1258 H 0.54231 0.93205 0.81767 0.0
H1259 H 0.61526 0.96789 0.84195 0.0
H1260 H 0.59612 0.98614 0.90818 0.0
H1261 H 0.60367 0.96151 0.87696 0.0
H1262 H 0.53501 0.96252 0.83848 0.0
H1263 H 0.52607 0.98442 0.8711 0.0
C1264 C 0.56567 0.93764 0.79202 0.0
C1265 C 0.58848 0.94773 0.78738 0.0
C1266 C 0.56042 0.93889 0.81479 0.0
C1267 C 0.57766 0.95115 0.83302 0.0
C1268 C 0.60131 0.95842 0.82859 0.0
C1269 C 0.60671 0.95643 0.80595 0.0
C1270 C 0.58212 0.98042 0.89354 0.0
C1271 C 0.56054 0.98783 0.89218 0.0
C1272 C 0.5867 0.96648 0.87531 0.0
C1273 C 0.57033 0.96036 0.85474 0.0
C1274 C 0.54818 0.96661 0.85395 0.0
C1275 C 0.54324 0.97987 0.87255 0.0
H1276 H 0.26781 0.36595 0.09874 0.0
H1277 H 0.34384 0.39002 0.11452 0.0
H1278 H 0.26742 0.34981 0.13675 0.0
H1279 H 0.34359 0.37436 0.15211 0.0
H1280 H 0.33705 0.35918 0.2274 0.0
H1281 H 0.33404 0.37682 0.19086 0.0
H1282 H 0.27852 0.31932 0.15999 0.0
H1283 H 0.28167 0.3015 0.19681 0.0
C1284 C 0.28439 0.36842 0.11046 0.0
C1285 C 0.3058 0.38001 0.10333 0.0
C1286 C 0.28427 0.35878 0.13234 0.0
C1287 C 0.3055 0.36055 0.14823 0.0
C1288 C 0.32668 0.37264 0.1411 0.0
C1289 C 0.32683 0.38181 0.11926 0.0
C1290 C 0.32402 0.35017 0.21299 0.0
C1291 C 0.30966 0.32861 0.2157 0.0
C1292 C 0.32238 0.36037 0.19165 0.0
C1293 C 0.30609 0.34977 0.17173 0.0
C1294 C 0.29125 0.32844 0.17457 0.0
C1295 C 0.29312 0.31805 0.19592 0.0
H1296 H 0.2908 0.95596 1.00412 0.0
H1297 H 0.28252 0.92069 0.06593 0.0
H1298 H 0.26358 0.97933 0.01516 0.0
H1299 H 0.25595 0.94443 0.0773 0.0
H1300 H 0.1895 0.97357 0.07768 0.0
H1301 H 0.2168 0.95043 0.0667 0.0
H1302 H 0.26055 1.00948 0.0431 0.0
H1303 H 0.23255 0.03235 0.05297 0.0
C1304 C 0.28327 0.95325 0.02011 0.0
C1305 C 0.28879 0.9364 0.03408 0.0
C1306 C 0.26778 0.96677 0.02654 0.0
C1307 C 0.25754 0.9638 0.04715 0.0
C1308 C 0.26318 0.94697 0.06113 0.0
C1309 C 0.27854 0.93341 0.05466 0.0
C1310 C 0.20485 0.9816 0.07001 0.0
C1311 C 0.20875 1.00484 0.06618 0.0
C1312 C 0.22069 0.96838 0.06394 0.0
C1313 C 0.24091 0.97805 0.05397 0.0
C1314 C 0.24501 1.00137 0.05045 0.0
C1315 C 0.22912 1.01459 0.05645 0.0
H1316 H 0.75044 0.65422 0.99706 0.0
H1317 H 0.78233 0.6203 0.05137 0.0
H1318 H 0.71128 0.63103 0.99992 0.0
H1319 H 0.74258 0.59688 0.05452 0.0
H1320 H 0.66161 0.58062 0.07018 0.0
H1321 H 0.7029 0.59996 0.06736 0.0
H1322 H 0.68612 0.59296 0.99245 0.0
H1323 H 0.64534 0.57377 0.9952 0.0
C1324 C 0.74921 0.64142 1.00937 0.0
C1325 C 0.76995 0.63906 0.02365 0.0
C1326 C 0.72652 0.62802 0.01106 0.0
C1327 C 0.72327 0.61183 0.02749 0.0
C1328 C 0.74406 0.60916 0.0417 0.0
C1329 C 0.76703 0.62239 0.03966 0.0
C1330 C 0.66673 0.58305 0.05308 0.0
C1331 C 0.64967 0.57546 0.03296 0.0
C1332 C 0.6906 0.59411 0.05144 0.0
C1333 C 0.69826 0.59835 0.02963 0.0
C1334 C 0.68121 0.59046 0.00962 0.0
C1335 C 0.65759 0.57922 0.01123 0.0
H1336 H 0.75154 0.52725 0.31879 0.0
H1337 H 0.80091 0.54168 0.383 0.0
H1338 H 0.77352 0.5004 0.3042 0.0
H1339 H 0.82316 0.51496 0.36816 0.0
H1340 H 0.83201 0.44188 0.34521 0.0
H1341 H 0.81558 0.47327 0.35976 0.0
H1342 H 0.81165 0.49773 0.29146 0.0
H1343 H 0.82736 0.46585 0.2767 0.0
C1344 C 0.76723 0.52487 0.32971 0.0
C1345 C 0.77438 0.53647 0.35213 0.0
C1346 C 0.77994 0.5096 0.32126 0.0
C1347 C 0.80006 0.50557 0.33504 0.0
C1348 C 0.80757 0.51757 0.35725 0.0
C1349 C 0.79488 0.53292 0.36569 0.0
C1350 C 0.8277 0.45401 0.33333 0.0
C1351 C 0.83074 0.45129 0.30977 0.0
C1352 C 0.81855 0.47213 0.34172 0.0
C1353 C 0.81221 0.48789 0.32671 0.0
C1354 C 0.81612 0.48568 0.30336 0.0
C1355 C 0.82533 0.46757 0.29497 0.0
H1356 H 0.93418 0.40035 0.53833 0.0
H1357 H 0.88727 0.44743 0.53883 0.0
H1358 H 0.96836 0.43221 0.5422 0.0
H1359 H 0.92187 0.47957 0.54297 0.0
H1360 H 1.02682 0.49144 0.57053 0.0
H1361 H 0.99001 0.46355 0.57154 0.0
H1362 H 0.9534 0.49632 0.51904 0.0
H1363 H 0.99031 0.52458 0.5182 0.0
C1364 C 0.93114 0.41751 0.53935 0.0
C1365 C 0.90797 0.42133 0.53825 0.0
C1366 C 0.95078 0.4358 0.54178 0.0
C1367 C 0.9478 0.45839 0.54312 0.0
C1368 C 0.92466 0.46231 0.54192 0.0
C1369 C 0.9049 0.44393 0.53962 0.0
C1370 C 1.01087 0.49294 0.55942 0.0
C1371 C 1.01156 0.51 0.54401 0.0
C1372 C 0.98981 0.4769 0.55995 0.0
C1373 C 0.96896 0.47752 0.54506 0.0
C1374 C 0.96921 0.49545 0.53073 0.0
C1375 C 0.99036 0.51159 0.53021 0.0
H1376 H 0.48713 0.15032 0.27067 0.0
H1377 H 0.4549 0.12746 0.33049 0.0
H1378 H 0.45065 0.16119 0.25491 0.0
H1379 H 0.41865 0.13911 0.31516 0.0
H1380 H 0.34935 0.14469 0.27255 0.0
H1381 H 0.38486 0.13044 0.2853 0.0
H1382 H 0.42885 0.18947 0.26184 0.0
H1383 H 0.39348 0.20331 0.24876 0.0
C1384 C 0.47231 0.14778 0.28056 0.0
C1385 C 0.47396 0.13812 0.30189 0.0
C1386 C 0.45139 0.15409 0.27156 0.0
C1387 C 0.43166 0.1511 0.28377 0.0
C1388 C 0.43331 0.14133 0.30508 0.0
C1389 C 0.45419 0.13483 0.31399 0.0
C1390 C 0.36663 0.15446 0.26997 0.0
C1391 C 0.3686 0.17504 0.25952 0.0
C1392 C 0.38699 0.14639 0.27738 0.0
C1393 C 0.40978 0.15883 0.27469 0.0
C1394 C 0.41162 0.17919 0.26384 0.0
C1395 C 0.3913 0.18715 0.25629 0.0
H1396 H 0.41594 0.13596 0.48126 0.0
H1397 H 0.41439 0.13913 0.5553 0.0
H1398 H 0.4492 0.11745 0.48568 0.0
H1399 H 0.44804 0.11989 0.55984 0.0
H1400 H 0.52317 0.10094 0.56301 0.0
H1401 H 0.48912 0.11927 0.56035 0.0
H1402 H 0.46442 0.08558 0.49105 0.0
H1403 H 0.49858 0.06772 0.49365 0.0
C1404 C 0.42249 0.13263 0.49868 0.0
C1405 C 0.41175 0.13938 0.51784 0.0
C1406 C 0.44187 0.1216 0.50123 0.0
C1407 C 0.452 0.11653 0.52316 0.0
C1408 C 0.44137 0.12334 0.54251 0.0
C1409 C 0.42171 0.1344 0.53992 0.0
C1410 C 0.51052 0.09734 0.54713 0.0
C1411 C 0.51426 0.08257 0.52855 0.0
C1412 C 0.4906 0.10792 0.54562 0.0
C1413 C 0.47331 0.10445 0.52538 0.0
C1414 C 0.47705 0.08948 0.50692 0.0
C1415 C 0.49689 0.07889 0.50846 0.0
H1416 H 0.7451 0.66803 0.39433 0.0
H1417 H 0.77696 0.62601 0.35016 0.0
H1418 H 0.76644 0.70207 0.37936 0.0
H1419 H 0.79785 0.66003 0.33485 0.0
H1420 H 0.83867 0.72866 0.31693 0.0
H1421 H 0.82654 0.69711 0.34028 0.0
H1422 H 0.758 0.71449 0.34053 0.0
H1423 H 0.77012 0.74607 0.31763 0.0
C1424 C 0.75709 0.66608 0.38185 0.0
C1425 C 0.75892 0.6443 0.37305 0.0
C1426 C 0.76916 0.68557 0.37315 0.0
C1427 C 0.78325 0.68364 0.35545 0.0
C1428 C 0.78705 0.66206 0.34842 0.0
C1429 C 0.77504 0.64254 0.35721 0.0
C1430 C 0.82101 0.72574 0.32198 0.0
C1431 C 0.80532 0.73983 0.31534 0.0
C1432 C 0.81411 0.7077 0.33538 0.0
C1433 C 0.79145 0.7035 0.34247 0.0
C1434 C 0.7758 0.7176 0.33581 0.0
C1435 C 0.78265 0.73555 0.32241 0.0
H1436 H 0.04994 0.5284 0.82108 0.0
H1437 H 0.98867 0.55874 0.81066 0.0
H1438 H 1.02362 0.49047 0.81561 0.0
H1439 H 0.96241 0.52076 0.80506 0.0
H1440 H 0.92481 0.4503 0.82566 0.0
H1441 H 0.95017 0.48868 0.829 0.0
H1442 H 0.99566 0.46433 0.78446 0.0
H1443 H 0.97058 0.42587 0.78149 0.0
C1444 C 0.03088 0.527 0.81755 0.0
C1445 C 1.02144 0.54663 0.81634 0.0
C1446 C 1.01581 0.50525 0.81427 0.0
C1447 C 0.99094 0.50263 0.80988 0.0
C1448 C 0.98148 0.52224 0.80862 0.0
C1449 C 0.99656 0.54399 0.81171 0.0
C1450 C 0.94022 0.45316 0.81658 0.0
C1451 C 0.94572 0.43504 0.80336 0.0
C1452 C 0.95463 0.47517 0.81833 0.0
C1453 C 0.97496 0.47951 0.80706 0.0
C1454 C 0.98025 0.46147 0.79354 0.0
C1455 C 0.96574 0.4395 0.79164 0.0
H1456 H 0.09417 0.90788 0.1462 0.0
H1457 H 0.13764 0.91267 0.09066 0.0
H1458 H 0.06963 0.93098 0.12621 0.0
H1459 H 0.11314 0.93585 0.07086 0.0
H1460 H 0.0587 0.96721 0.03335 0.0
H1461 H 0.07137 0.93543 0.05135 0.0
H1462 H 0.07996 0.97254 0.11928 0.0
H1463 H 0.06729 1.00422 0.1014 0.0
C1464 C 0.09838 0.91367 0.1296 0.0
C1465 C 0.11804 0.90868 0.12009 0.0
C1466 C 0.08427 0.92684 0.11822 0.0
C1467 C 0.08947 0.9351 0.09703 0.0
C1468 C 0.10853 0.92938 0.08704 0.0
C1469 C 0.12274 0.91633 0.09848 0.0
C1470 C 0.06256 0.96827 0.05218 0.0
C1471 C 0.06236 0.98828 0.066 0.0
C1472 C 0.06996 0.95017 0.06242 0.0
C1473 C 0.07693 0.95173 0.08661 0.0
C1474 C 0.07461 0.97087 0.10058 0.0
C1475 C 0.06745 0.98904 0.09035 0.0
H1476 H 0.92093 0.19957 0.87971 0.0
H1477 H 0.97306 0.20499 0.83218 0.0
H1478 H 0.89054 0.20205 0.848 0.0
H1479 H 0.9423 0.20674 0.80013 0.0
H1480 H 0.83973 0.21688 0.79391 0.0
H1481 H 0.86525 0.19312 0.81108 0.0
H1482 H 0.92713 0.24045 0.79534 0.0
H1483 H 0.90178 0.26367 0.77777 0.0
C1484 C 0.92572 0.20035 0.86231 0.0
C1485 C 0.94958 0.20299 0.85863 0.0
C1486 C 0.90818 0.2016 0.84398 0.0
C1487 C 0.91416 0.20533 0.82162 0.0
C1488 C 0.9373 0.20454 0.81731 0.0
C1489 C 0.95491 0.20347 0.83569 0.0
C1490 C 0.85873 0.22181 0.79348 0.0
C1491 C 0.86881 0.2425 0.78508 0.0
C1492 C 0.87334 0.2082 0.80336 0.0
C1493 C 0.89826 0.21507 0.80502 0.0
C1494 C 0.90803 0.23448 0.79431 0.0
C1495 C 0.89346 0.24803 0.78444 0.0
H1496 H 0.68561 0.30895 0.63126 0.0
H1497 H 0.61679 0.30136 0.65462 0.0
H1498 H 0.67834 0.26765 0.62242 0.0
H1499 H 0.609 0.26035 0.64481 0.0
H1500 H 0.61243 0.18637 0.64945 0.0
H1501 H 0.62049 0.22773 0.65807 0.0
H1502 H 0.65574 0.23623 0.59687 0.0
H1503 H 0.64846 0.19484 0.58896 0.0
C1504 C 0.66881 0.29847 0.6342 0.0
C1505 C 0.65184 0.30834 0.64377 0.0
C1506 C 0.66457 0.2748 0.62905 0.0
C1507 C 0.64312 0.26059 0.63305 0.0
C1508 C 0.62595 0.27065 0.64204 0.0
C1509 C 0.63034 0.29421 0.64751 0.0
C1510 C 0.62189 0.19717 0.63791 0.0
C1511 C 0.62988 0.18753 0.61861 0.0
C1512 C 0.62641 0.22085 0.64272 0.0
C1513 C 0.6387 0.23538 0.62811 0.0
C1514 C 0.6466 0.22561 0.60873 0.0
C1515 C 0.64236 0.20193 0.60412 0.0
H1516 H 0.5977 0.75885 0.38309 0.0
H1517 H 0.55269 0.78062 0.32797 0.0
H1518 H 0.63195 0.77055 0.36299 0.0
H1519 H 0.58724 0.79244 0.30782 0.0
H1520 H 0.64956 0.77694 0.26851 0.0
H1521 H 0.61419 0.7715 0.28802 0.0
H1522 H 0.65702 0.80628 0.35161 0.0
H1523 H 0.69235 0.81207 0.33208 0.0
C1524 C 0.59514 0.76625 0.36674 0.0
C1525 C 0.57249 0.76873 0.35705 0.0
C1526 C 0.6148 0.77312 0.35533 0.0
C1527 C 0.61222 0.78247 0.33392 0.0
C1528 C 0.58964 0.78518 0.32428 0.0
C1529 C 0.56994 0.77849 0.33584 0.0
C1530 C 0.65135 0.78387 0.2865 0.0
C1531 C 0.67378 0.7947 0.29884 0.0
C1532 C 0.6311 0.78075 0.29765 0.0
C1533 C 0.63296 0.78831 0.32135 0.0
C1534 C 0.65519 0.79998 0.33341 0.0
C1535 C 0.67539 0.80321 0.32225 0.0
H1536 H 0.0976 0.21263 0.42854 0.0
H1537 H 0.06355 0.23123 0.48635 0.0
H1538 H 0.097 0.17485 0.44306 0.0
H1539 H 0.06258 0.1942 0.50038 0.0
H1540 H 0.07795 0.13221 0.53509 0.0
H1541 H 0.08072 0.16902 0.51948 0.0
H1542 H 0.07709 0.1368 0.45019 0.0
H1543 H 0.07468 0.09964 0.46614 0.0
C1544 C 0.09015 0.20898 0.4444 0.0
C1545 C 0.08082 0.22586 0.45606 0.0
C1546 C 0.08956 0.18692 0.45278 0.0
C1547 C 0.07984 0.18059 0.47338 0.0
C1548 C 0.07074 0.19766 0.48488 0.0
C1549 C 0.07119 0.21938 0.47653 0.0
C1550 C 0.07762 0.13267 0.51646 0.0
C1551 C 0.07583 0.11215 0.50222 0.0
C1552 C 0.0791 0.15422 0.50726 0.0
C1553 C 0.07895 0.15684 0.48311 0.0
C1554 C 0.07745 0.13629 0.46881 0.0
C1555 C 0.07586 0.1146 0.47807 0.0
H1556 H 0.62829 0.27934 0.22558 0.0
H1557 H 0.65017 0.32621 0.17537 0.0
H1558 H 0.66943 0.28216 0.2416 0.0
H1559 H 0.69226 0.32918 0.19195 0.0
H1560 H 0.7657 0.34123 0.245 0.0
H1561 H 0.72491 0.34185 0.22747 0.0
H1562 H 0.70374 0.26923 0.23107 0.0
H1563 H 0.74404 0.26859 0.24831 0.0
C1564 C 0.64182 0.29047 0.21786 0.0
C1565 C 0.63528 0.30244 0.19882 0.0
C1566 C 0.66577 0.29194 0.22714 0.0
C1567 C 0.68471 0.30561 0.21808 0.0
C1568 C 0.6784 0.3184 0.19957 0.0
C1569 C 0.65411 0.31673 0.18999 0.0
C1570 C 0.75236 0.32536 0.24206 0.0
C1571 C 0.75859 0.30486 0.24839 0.0
C1572 C 0.72885 0.3257 0.23179 0.0
C1573 C 0.71052 0.30562 0.2278 0.0
C1574 C 0.71692 0.2852 0.23402 0.0
C1575 C 0.74033 0.28481 0.24393 0.0
H1576 H 0.54725 0.85476 0.96603 0.0
H1577 H 0.62075 0.87354 0.95549 0.0
H1578 H 0.54864 0.89375 0.981 0.0
H1579 H 0.62232 0.91324 0.97136 0.0
H1580 H 0.61777 0.97727 0.02616 0.0
H1581 H 0.61969 0.93898 0.00947 0.0
H1582 H 0.5511 0.93267 0.96834 0.0
H1583 H 0.54945 0.97078 0.98441 0.0
C1584 C 0.56393 0.86715 0.96688 0.0
C1585 C 0.58386 0.86024 0.95924 0.0
C1586 C 0.56466 0.88992 0.97553 0.0
C1587 C 0.58555 0.90736 0.97768 0.0
C1588 C 0.60577 0.90063 0.97027 0.0
C1589 C 0.60486 0.87768 0.96093 0.0
C1590 C 0.60306 0.96782 0.01352 0.0
C1591 C 0.58333 0.9777 1.00704 0.0
C1592 C 0.60425 0.94567 1.00372 0.0
C1593 C 0.58553 0.93204 0.98734 0.0
C1594 C 0.56592 0.94204 0.98092 0.0
C1595 C 0.56497 0.96424 0.99027 0.0
H1596 H 0.99112 0.82216 0.68104 0.0
H1597 H 0.99437 0.75977 0.71228 0.0
H1598 H 0.95545 0.82439 0.69964 0.0
H1599 H 0.95984 0.76209 0.73065 0.0
H1600 H 0.88461 0.75766 0.74777 0.0
H1601 H 0.919 0.75718 0.72773 0.0
H1602 H 0.93661 0.83079 0.73401 0.0
H1603 H 0.90172 0.83117 0.75393 0.0
C1604 C 0.98441 0.80885 0.69169 0.0
C1605 C 0.9963 0.79073 0.69471 0.0
C1606 C 0.96379 0.81017 0.70265 0.0
C1607 C 0.95388 0.79331 0.71692 0.0
C1608 C 0.96589 0.77535 0.7197 0.0
C1609 C 0.9863 0.77413 0.70904 0.0
C1610 C 0.89576 0.77387 0.7451 0.0
C1611 C 0.8899 0.79444 0.75304 0.0
C1612 C 0.91592 0.77363 0.73349 0.0
C1613 C 0.93149 0.79397 0.72895 0.0
C1614 C 0.92547 0.8146 0.7367 0.0
C1615 C 0.9053 0.81483 0.74848 0.0
H1616 H 0.16662 1.01334 0.88737 0.0
H1617 H 0.19924 0.06613 0.94286 0.0
H1618 H 0.14513 0.99112 0.91493 0.0
H1619 H 0.17859 0.04376 0.97046 0.0
H1620 H 0.13536 1.00977 0.01622 0.0
H1621 H 0.16458 1.00672 0.99027 0.0
H1622 H 0.11252 1.00947 0.93111 0.0
H1623 H 0.08333 1.01288 0.95696 0.0
C1624 C 0.17026 0.01952 0.9057 0.0
C1625 C 0.18421 0.04149 0.91311 0.0
C1626 C 0.15795 1.00684 0.92141 0.0
C1627 C 0.16001 0.01587 0.94469 0.0
C1628 C 0.17676 0.03631 0.95263 0.0
C1629 C 0.18853 0.04921 0.93686 0.0
C1630 C 0.12983 1.00895 0.99762 0.0
C1631 C 0.1073 1.01246 0.98865 0.0
C1632 C 0.14657 1.007 0.98279 0.0
C1633 C 0.1409 1.00821 0.9588 0.0
C1634 C 0.11735 1.00841 0.94957 0.0
C1635 C 0.10067 1.01064 0.96441 0.0
H1636 H 0.85452 0.30999 0.5889 0.0
H1637 H 0.82174 0.36629 0.60473 0.0
H1638 H 0.85307 0.2994 0.62847 0.0
H1639 H 0.82013 0.35548 0.6444 0.0
H1640 H 0.85117 0.34619 0.71973 0.0
H1641 H 0.85006 0.35583 0.67951 0.0
H1642 H 0.82447 0.28446 0.65482 0.0
H1643 H 0.82575 0.27474 0.69491 0.0
C1644 C 0.84672 0.31995 0.60073 0.0
C1645 C 0.83831 0.33904 0.59367 0.0
C1646 C 0.84583 0.31382 0.6234 0.0
C1647 C 0.83665 0.32671 0.63958 0.0
C1648 C 0.82761 0.34542 0.63238 0.0
C1649 C 0.82833 0.35147 0.6096 0.0
C1650 C 0.84546 0.33254 0.70573 0.0
C1651 C 0.83866 0.30969 0.71054 0.0
C1652 C 0.84459 0.33809 0.6827 0.0
C1653 C 0.83708 0.3209 0.66402 0.0
C1654 C 0.83049 0.29805 0.66885 0.0
C1655 C 0.8312 0.29251 0.69184 0.0
H1656 H 0.61358 0.15786 0.3871 0.0
H1657 H 0.53872 0.13345 0.39044 0.0
H1658 H 0.62246 0.15798 0.42924 0.0
H1659 H 0.5476 0.13302 0.43259 0.0
H1660 H 0.56943 0.12266 0.50618 0.0
H1661 H 0.56666 0.14775 0.47483 0.0
H1662 H 0.61753 0.11825 0.44198 0.0
H1663 H 0.61979 0.09311 0.47277 0.0
C1664 C 0.59892 0.15359 0.39705 0.0
C1665 C 0.57556 0.14516 0.38566 0.0
C1666 C 0.604 0.15363 0.42113 0.0
C1667 C 0.58582 0.14487 0.43402 0.0
C1668 C 0.56199 0.13983 0.42307 0.0
C1669 C 0.55686 0.14003 0.39891 0.0
C1670 C 0.58066 0.12226 0.49266 0.0
C1671 C 0.59473 0.10596 0.49164 0.0
C1672 C 0.579 0.13653 0.47476 0.0
C1673 C 0.59187 0.13498 0.45601 0.0
C1674 C 0.60765 0.12013 0.45635 0.0
C1675 C 0.60886 0.10559 0.47387 0.0
H1676 H 0.83812 0.68816 0.11075 0.0
H1677 H 0.85707 0.75681 0.09172 0.0
H1678 H 0.83613 0.70327 0.15081 0.0
H1679 H 0.85594 0.7719 0.13171 0.0
H1680 H 0.8709 0.79151 0.21261 0.0
H1681 H 0.87552 0.77531 0.17398 0.0
H1682 H 0.80996 0.72531 0.17213 0.0
H1683 H 0.80494 0.74198 0.21049 0.0
C1684 C 0.84268 0.70647 0.1152 0.0
C1685 C 0.84838 0.72111 0.09773 0.0
C1686 C 0.84118 0.71523 0.13825 0.0
C1687 C 0.84583 0.73902 0.14499 0.0
C1688 C 0.85239 0.75357 0.12768 0.0
C1689 C 0.85321 0.74483 0.10457 0.0
C1690 C 0.85739 0.77705 0.20408 0.0
C1691 C 0.83746 0.76829 0.21513 0.0
C1692 C 0.86003 0.76771 0.18168 0.0
C1693 C 0.84322 0.74874 0.16947 0.0
C1694 C 0.82351 0.7397 0.18073 0.0
C1695 C 0.82055 0.74943 0.20287 0.0
H1696 H 0.1422 0.04256 0.79175 0.0
H1697 H 0.11654 0.09924 0.82073 0.0
H1698 H 0.11414 0.03994 0.75634 0.0
H1699 H 0.08834 0.09653 0.78512 0.0
H1700 H 0.08673 0.108 0.70457 0.0
H1701 H 0.09868 0.10623 0.74572 0.0
H1702 H 0.07137 0.03321 0.73736 0.0
H1703 H 0.0586 0.03495 0.69593 0.0
C1704 C 0.13023 0.05416 0.79075 0.0
C1705 C 0.13186 0.07135 0.80885 0.0
C1706 C 0.11396 0.05249 0.77054 0.0
C1707 C 0.09914 0.06811 0.76796 0.0
C1708 C 0.09967 0.08437 0.78665 0.0
C1709 C 0.1158 0.08589 0.807 0.0
C1710 C 0.08228 0.09164 0.71153 0.0
C1711 C 0.07203 0.07155 0.69678 0.0
C1712 C 0.08921 0.09065 0.73523 0.0
C1713 C 0.08622 0.06954 0.74466 0.0
C1714 C 0.07416 0.04967 0.73041 0.0
C1715 C 0.06698 0.05068 0.7067 0.0
H1716 H 0.807 0.37427 0.45894 0.0
H1717 H 0.82675 0.3094 0.465 0.0
H1718 H 0.79742 0.36525 0.41658 0.0
H1719 H 0.81724 0.30046 0.42298 0.0
H1720 H 0.79028 0.28479 0.34712 0.0
H1721 H 0.78616 0.29294 0.388 0.0
H1722 H 0.8248 0.36246 0.38688 0.0
H1723 H 0.82883 0.35443 0.34611 0.0
C1724 C 0.80867 0.35786 0.45132 0.0
C1725 C 0.81783 0.34263 0.46525 0.0
C1726 C 0.80335 0.35277 0.42708 0.0
C1727 C 0.80673 0.33221 0.41643 0.0
C1728 C 0.81424 0.31634 0.43061 0.0
C1729 C 0.81984 0.32154 0.45471 0.0
C1730 C 0.79746 0.30193 0.35545 0.0
C1731 C 0.81016 0.31887 0.34345 0.0
C1732 C 0.79517 0.30657 0.37889 0.0
C1733 C 0.80529 0.32829 0.3907 0.0
C1734 C 0.81663 0.34561 0.37824 0.0
C1735 C 0.81912 0.34093 0.35491 0.0
H1736 H 0.63626 0.15243 0.28739 0.0
H1737 H 0.56781 0.14547 0.24531 0.0
H1738 H 0.65582 0.15712 0.25274 0.0
H1739 H 0.58713 0.14933 0.2106 0.0
H1740 H 0.61753 0.14018 0.14915 0.0
H1741 H 0.61444 0.16398 0.18386 0.0
H1742 H 0.65296 0.12372 0.22646 0.0
H1743 H 0.65582 0.10014 0.19212 0.0
C1744 C 0.62549 0.15266 0.27079 0.0
C1745 C 0.6005 0.14782 0.26879 0.0
C1746 C 0.63669 0.15537 0.25098 0.0
C1747 C 0.62301 0.15278 0.22884 0.0
C1748 C 0.59828 0.15133 0.22735 0.0
C1749 C 0.5871 0.14895 0.24726 0.0
C1750 C 0.62605 0.137 0.16592 0.0
C1751 C 0.63618 0.11782 0.16808 0.0
C1752 C 0.62431 0.15065 0.18576 0.0
C1753 C 0.6328 0.14535 0.20797 0.0
C1754 C 0.64616 0.12836 0.20966 0.0
C1755 C 0.6478 0.11469 0.18988 0.0
H1756 H 0.85146 0.68969 0.94385 0.0
H1757 H 0.84024 0.75342 0.97339 0.0
H1758 H 0.85192 0.705 0.90549 0.0
H1759 H 0.84063 0.76853 0.93571 0.0
H1760 H 0.85695 0.79908 0.86784 0.0
H1761 H 0.86107 0.78337 0.90558 0.0
H1762 H 0.82872 0.71592 0.87211 0.0
H1763 H 0.82473 0.73167 0.83444 0.0
C1764 C 0.84954 0.70707 0.94245 0.0
C1765 C 0.84602 0.72014 0.96237 0.0
C1766 C 0.84949 0.71591 0.92015 0.0
C1767 C 0.84629 0.73835 0.91677 0.0
C1768 C 0.84349 0.75143 0.93694 0.0
C1769 C 0.8432 0.74256 0.95892 0.0
C1770 C 0.85086 0.78085 0.86834 0.0
C1771 C 0.84047 0.76694 0.84747 0.0
C1772 C 0.85305 0.77169 0.89031 0.0
C1773 C 0.84516 0.74804 0.89266 0.0
C1774 C 0.83532 0.73408 0.87165 0.0
C1775 C 0.8329 0.74328 0.84973 0.0
H1776 H 0.84751 0.14982 0.96237 0.0
H1777 H 0.87072 0.16307 0.03663 0.0
H1778 H 0.87389 0.1234 0.95977 0.0
H1779 H 0.89726 0.13677 0.03393 0.0
H1780 H 0.92077 0.06908 0.02373 0.0
H1781 H 0.89414 0.09527 0.02572 0.0
H1782 H 0.91702 0.12378 0.96398 0.0
H1783 H 0.944 0.09783 0.96214 0.0
C1784 C 0.85828 0.14716 0.97814 0.0
C1785 C 0.85696 0.15854 0.99972 0.0
C1786 C 0.87349 0.13209 0.9766 0.0
C1787 C 0.88762 0.12794 0.99664 0.0
C1788 C 0.88637 0.13938 0.01822 0.0
C1789 C 0.87126 0.15456 0.01974 0.0
C1790 C 0.92028 0.08102 0.01065 0.0
C1791 C 0.93464 0.08136 0.99282 0.0
C1792 C 0.90499 0.09604 0.01181 0.0
C1793 C 0.90355 0.11168 0.99508 0.0
C1794 C 0.91754 0.11177 0.97699 0.0
C1795 C 0.93295 0.09682 0.9759 0.0
H1796 H 0.39797 0.42741 0.03392 0.0
H1797 H 0.36767 0.48687 0.03941 0.0
H1798 H 0.43643 0.45114 0.03201 0.0
H1799 H 0.40742 0.51126 0.03735 0.0
H1800 H 0.49222 0.54514 0.05656 0.0
H1801 H 0.45075 0.52523 0.0579 0.0
H1802 H 0.45721 0.47353 1.00551 0.0
H1803 H 0.49818 0.49304 1.00434 0.0
C1804 C 0.39929 0.44567 0.03471 0.0
C1805 C 0.37901 0.45486 0.03678 0.0
C1806 C 0.42176 0.45945 0.0334 0.0
C1807 C 0.42551 0.48336 0.03415 0.0
C1808 C 0.40548 0.49294 0.03668 0.0
C1809 C 0.38254 0.4789 0.03778 0.0
C1810 C 0.48475 0.52961 0.04518 0.0
C1811 C 0.49905 0.52081 0.03045 0.0
C1812 C 0.46077 0.51818 0.04588 0.0
C1813 C 0.45026 0.49741 0.03204 0.0
C1814 C 0.46444 0.48913 0.01686 0.0
C1815 C 0.48818 0.50051 0.01609 0.0
H1816 H 0.43057 0.59296 0.74303 0.0
H1817 H 0.3733 0.54062 0.75969 0.0
H1818 H 0.41026 0.62214 0.75509 0.0
H1819 H 0.35305 0.57014 0.77224 0.0
H1820 H 0.31302 0.62953 0.7604 0.0
H1821 H 0.33269 0.59802 0.75377 0.0
H1822 H 0.39909 0.63975 0.78966 0.0
H1823 H 0.3795 0.6712 0.7961 0.0
C1824 C 0.41373 0.58767 0.74949 0.0
C1825 C 0.40351 0.56444 0.75033 0.0
C1826 C 0.40216 0.60445 0.75658 0.0
C1827 C 0.3801 0.59845 0.76471 0.0
C1828 C 0.36997 0.57524 0.76588 0.0
C1829 C 0.38161 0.55837 0.75882 0.0
C1830 C 0.33173 0.6318 0.76717 0.0
C1831 C 0.34482 0.6529 0.77848 0.0
C1832 C 0.34297 0.61376 0.76343 0.0
C1833 C 0.36749 0.6165 0.77099 0.0
C1834 C 0.38029 0.63728 0.78322 0.0
C1835 C 0.36909 0.65529 0.78688 0.0
H1836 H 0.21775 0.6882 0.50783 0.0
H1837 H 0.26626 0.64406 0.52402 0.0
H1838 H 0.18407 0.65557 0.50448 0.0
H1839 H 0.23235 0.6114 0.52082 0.0
H1840 H 0.16219 0.57499 0.5502 0.0
H1841 H 0.19861 0.60257 0.54631 0.0
H1842 H 0.16595 0.61687 0.47961 0.0
H1843 H 0.12949 0.58887 0.48332 0.0
C1844 C 0.22124 0.67152 0.51054 0.0
C1845 C 0.24467 0.66875 0.51639 0.0
C1846 C 0.20196 0.65282 0.50839 0.0
C1847 C 0.20566 0.631 0.51231 0.0
C1848 C 0.22906 0.62809 0.51774 0.0
C1849 C 0.24842 0.64676 0.51957 0.0
C1850 C 0.16299 0.58368 0.53448 0.0
C1851 C 0.14306 0.57993 0.5171 0.0
C1852 C 0.18384 0.59936 0.53222 0.0
C1853 C 0.185 0.61189 0.51272 0.0
C1854 C 0.16542 0.60746 0.49485 0.0
C1855 C 0.14467 0.59139 0.4969 0.0
H1856 H 0.70272 0.9873 0.79065 0.0
H1857 H 0.6955 0.94684 0.7247 0.0
H1858 H 0.74184 0.97925 0.80174 0.0
H1859 H 0.73467 0.93872 0.73594 0.0
H1860 H 0.81282 0.93997 0.75712 0.0
H1861 H 0.77875 0.9568 0.74574 0.0
H1862 H 0.75389 0.94319 0.81144 0.0
H1863 H 0.7872 0.92585 0.82256 0.0
C1864 C 0.70954 0.97683 0.77843 0.0
C1865 C 0.6959 0.96749 0.75688 0.0
C1866 C 0.73195 0.97224 0.78481 0.0
C1867 C 0.74126 0.95834 0.76973 0.0
C1868 C 0.72804 0.9497 0.74781 0.0
C1869 C 0.70553 0.95418 0.74147 0.0
C1870 C 0.8002 0.94076 0.76923 0.0
C1871 C 0.80272 0.93135 0.79069 0.0
C1872 C 0.78073 0.95041 0.7627 0.0
C1873 C 0.7636 0.95113 0.77763 0.0
C1874 C 0.76694 0.9431 0.79966 0.0
C1875 C 0.7862 0.93324 0.80609 0.0
H1876 H 0.7193 0.93491 0.5184 0.0
H1877 H 0.75972 0.99727 0.55752 0.0
H1878 H 0.68352 0.95118 0.51506 0.0
H1879 H 0.72489 1.0135 0.55381 0.0
H1880 H 0.65593 0.03541 0.56257 0.0
H1881 H 0.68973 0.01728 0.56504 0.0
H1882 H 0.6589 0.97565 0.50072 0.0
H1883 H 0.6245 0.99362 0.49869 0.0
C1884 C 0.7208 0.95208 0.52625 0.0
C1885 C 0.74306 0.9644 0.53841 0.0
C1886 C 0.70003 0.96163 0.52426 0.0
C1887 C 0.70039 0.98398 0.53436 0.0
C1888 C 0.72282 0.99618 0.54615 0.0
C1889 C 0.74333 0.98672 0.54814 0.0
C1890 C 0.65615 0.02243 0.54881 0.0
C1891 C 0.63692 0.01645 0.53033 0.0
C1892 C 0.67601 1.01192 0.55011 0.0
C1893 C 0.67808 0.99474 0.53296 0.0
C1894 C 0.65862 0.98852 0.51455 0.0
C1895 C 0.63864 0.99908 0.51327 0.0
H1896 H 0.39237 0.4774 0.72609 0.0
H1897 H 0.4322 0.43686 0.68956 0.0
H1898 H 0.36847 0.44248 0.73772 0.0
H1899 H 0.40848 0.40229 0.70135 0.0
H1900 H 0.39202 0.35757 0.76187 0.0
H1901 H 0.40959 0.39143 0.74413 0.0
H1902 H 0.33946 0.40229 0.72112 0.0
H1903 H 0.32162 0.368 0.73873 0.0
C1904 C 0.3957 0.46109 0.72012 0.0
C1905 C 0.41448 0.45996 0.70725 0.0
C1906 C 0.38199 0.44114 0.72674 0.0
C1907 C 0.38699 0.41984 0.72072 0.0
C1908 C 0.40457 0.41859 0.70649 0.0
C1909 C 0.41809 0.43841 0.69971 0.0
C1910 C 0.3803 0.36716 0.75309 0.0
C1911 C 0.35545 0.36017 0.75172 0.0
C1912 C 0.39035 0.38642 0.74278 0.0
C1913 C 0.37582 0.39928 0.73114 0.0
C1914 C 0.35098 0.39257 0.72999 0.0
C1915 C 0.34084 0.37299 0.74 0.0
H1916 H 0.17433 0.5288 0.22107 0.0
H1917 H 0.11161 0.55724 0.21663 0.0
H1918 H 0.19953 0.56703 0.22837 0.0
H1919 H 0.13698 0.59567 0.22349 0.0
H1920 H 0.18971 0.65842 0.26348 0.0
H1921 H 0.1641 0.6202 0.25513 0.0
H1922 H 0.2118 0.6014 0.20968 0.0
H1923 H 0.2374 0.63952 0.2181 0.0
C1924 C 0.16588 0.54322 0.22138 0.0
C1925 C 0.1409 0.53991 0.21828 0.0
C1926 C 0.18038 0.56518 0.22549 0.0
C1927 C 0.1703 0.58443 0.22659 0.0
C1928 C 0.14532 0.58118 0.22309 0.0
C1929 C 0.13077 0.55916 0.21896 0.0
C1930 C 0.19468 0.64613 0.25166 0.0
C1931 C 0.21564 0.65199 0.24154 0.0
C1932 C 0.17996 0.62426 0.2468 0.0
C1933 C 0.18585 0.60775 0.23168 0.0
C1934 C 0.2069 0.61359 0.22166 0.0
C1935 C 0.22162 0.63544 0.22654 0.0
H1936 H 0.56543 0.68593 0.42095 0.0
H1937 H 0.52341 0.68313 0.47755 0.0
H1938 H 0.58745 0.65965 0.4391 0.0
H1939 H 0.54565 0.65719 0.4957 0.0
H1940 H 0.59655 0.62158 0.53112 0.0
H1941 H 0.5895 0.65576 0.51329 0.0
H1942 H 0.57016 0.6166 0.44595 0.0
H1943 H 0.57672 0.58245 0.46394 0.0
C1944 C 0.56111 0.67994 0.43738 0.0
C1945 C 0.54256 0.68637 0.44776 0.0
C1946 C 0.57377 0.66503 0.44774 0.0
C1947 C 0.56838 0.65673 0.46885 0.0
C1948 C 0.55039 0.66374 0.4796 0.0
C1949 C 0.53748 0.67832 0.46908 0.0
C1950 C 0.59193 0.62068 0.51237 0.0
C1951 C 0.58734 0.59972 0.49871 0.0
C1952 C 0.58772 0.64007 0.50224 0.0
C1953 C 0.57916 0.63862 0.47836 0.0
C1954 C 0.57697 0.61813 0.46436 0.0
C1955 C 0.58075 0.59867 0.47457 0.0
H1956 H 0.74263 0.4183 0.69959 0.0
H1957 H 0.6957 0.38318 0.74418 0.0
H1958 H 0.77698 0.41345 0.72591 0.0
H1959 H 0.72988 0.3777 0.76993 0.0
H1960 H 0.79182 0.35653 0.80623 0.0
H1961 H 0.76925 0.38535 0.79467 0.0
H1962 H 0.78371 0.37475 0.72398 0.0
H1963 H 0.80565 0.34631 0.73553 0.0
C1964 C 0.73964 0.41029 0.71542 0.0
C1965 C 0.71648 0.40023 0.7193 0.0
C1966 C 0.75933 0.40753 0.73051 0.0
C1967 C 0.75608 0.39438 0.74944 0.0
C1968 C 0.73303 0.38771 0.75537 0.0
C1969 C 0.71334 0.39071 0.74043 0.0
C1970 C 0.7906 0.36101 0.78844 0.0
C1971 C 0.79998 0.34917 0.77159 0.0
C1972 C 0.77779 0.37744 0.78183 0.0
C1973 C 0.77468 0.38236 0.75843 0.0
C1974 C 0.786 0.37175 0.74222 0.0
C1975 C 0.79833 0.35521 0.74871 0.0
H1976 H 0.98084 0.30075 0.93735 0.0
H1977 H 0.04893 0.30566 0.91286 0.0
H1978 H 0.98756 0.34246 0.94131 0.0
H1979 H 0.05567 0.34727 0.91715 0.0
H1980 H 0.0673 0.41989 0.95709 0.0
H1981 H 0.06104 0.37843 0.95214 0.0
H1982 H 0.9922 0.37387 0.91175 0.0
H1983 H 0.99873 0.41545 0.91571 0.0
C1984 C 0.99728 0.31072 0.93299 0.0
C1985 C 1.01436 0.29998 0.9248 0.0
C1986 C 1.00102 0.33452 0.9351 0.0
C1987 C 1.02208 0.34794 0.92946 0.0
C1988 C 0.03934 0.33724 0.92168 0.0
C1989 C 0.03543 0.31347 0.91918 0.0
C1990 C 0.05104 0.41017 0.94669 0.0
C1991 C 0.03355 0.42109 0.93675 0.0
C1992 C 0.04742 0.38642 0.94404 0.0
C1993 C 1.02611 0.37308 0.93171 0.0
C1994 C 1.00866 0.38385 0.92161 0.0
C1995 C 1.01242 0.40764 0.92394 0.0
H1996 H 0.08594 0.83492 0.21042 0.0
H1997 H 0.09366 0.90539 0.23698 0.0
H1998 H 0.05095 0.82401 0.22959 0.0
H1999 H 0.05828 0.8943 0.25615 0.0
H2000 H 1.00596 0.8579 0.30428 0.0
H2001 H 0.04306 0.87014 0.28797 0.0
H2002 H 1.01004 0.83156 0.22241 0.0
H2003 H 0.97334 0.81905 0.23872 0.0
C2004 C 0.08026 0.8481 0.22045 0.0
C2005 C 0.09245 0.87108 0.222 0.0
C2006 C 0.06014 0.84183 0.23134 0.0
C2007 C 0.0518 0.85836 0.24409 0.0
C2008 C 0.06443 0.88123 0.24644 0.0
C2009 C 0.08459 0.88756 0.23541 0.0
C2010 C 1.00675 0.85203 0.28642 0.0
C2011 C 0.98683 0.83754 0.27275 0.0
C2012 C 0.02785 0.85915 0.27707 0.0
C2013 C 0.02939 0.85167 0.25401 0.0
C2014 C 1.0094 0.83736 0.24033 0.0
C2015 C 0.98834 0.83039 0.24959 0.0
H2016 H 0.58151 0.36139 0.09141 0.0
H2017 H 0.55137 0.39262 0.14573 0.0
H2018 H 0.5856 0.39701 0.07199 0.0
H2019 H 0.55475 0.42721 0.12656 0.0
H2020 H 0.57755 0.4967 0.10036 0.0
H2021 H 0.57541 0.46091 0.11789 0.0
H2022 H 0.57306 0.42548 0.05031 0.0
H2023 H 0.57592 0.46185 0.03284 0.0
C2024 C 0.57558 0.3756 0.0993 0.0
C2025 C 0.56616 0.37339 0.12063 0.0
C2026 C 0.57789 0.39639 0.08801 0.0
C2027 C 0.57094 0.41611 0.09741 0.0
C2028 C 0.56117 0.41344 0.11847 0.0
C2029 C 0.55896 0.39297 0.12963 0.0
C2030 C 0.57666 0.48141 0.08902 0.0
C2031 C 0.57695 0.48294 0.06484 0.0
C2032 C 0.57515 0.46034 0.09922 0.0
C2033 C 0.57362 0.43919 0.08595 0.0
C2034 C 0.57428 0.44078 0.06171 0.0
C2035 C 0.57588 0.462 0.05148 0.0
H2036 H 0.98926 0.27183 0.40103 0.0
H2037 H 0.02982 0.30121 0.34895 0.0
H2038 H 0.95257 0.27386 0.37733 0.0
H2039 H 0.99233 0.30287 0.32446 0.0
H2040 H 0.92011 0.32411 0.29797 0.0
H2041 H 0.95867 0.32096 0.31873 0.0
H2042 H 0.92414 0.25919 0.34525 0.0
H2043 H 0.88587 0.26266 0.32506 0.0
C2044 C 0.99048 0.27851 0.38427 0.0
C2045 C 1.01304 0.28626 0.3772 0.0
C2046 C 0.96905 0.27955 0.37039 0.0
C2047 C 0.9688 0.28844 0.34853 0.0
C2048 C 0.99136 0.29602 0.34115 0.0
C2049 C 1.01305 0.29484 0.35515 0.0
C2050 C 0.9207 0.30978 0.30818 0.0
C2051 C 0.89938 0.29378 0.30976 0.0
C2052 C 0.94305 0.30788 0.3201 0.0
C2053 C 0.94511 0.28991 0.3342 0.0
C2054 C 0.92378 0.27366 0.33523 0.0
C2055 C 0.90153 0.27557 0.32338 0.0
H2056 H 0.06814 0.73767 0.5866 0.0
H2057 H 0.04754 0.70071 0.64445 0.0
H2058 H 0.07171 0.70149 0.56586 0.0
H2059 H 0.05089 0.66557 0.62426 0.0
H2060 H 0.07871 0.60593 0.59591 0.0
H2061 H 0.07576 0.64285 0.61359 0.0
H2062 H 0.05585 0.66327 0.54553 0.0
H2063 H 0.05941 0.62609 0.52777 0.0
C2064 C 0.06412 0.72206 0.59496 0.0
C2065 C 0.05759 0.72292 0.61766 0.0
C2066 C 0.06623 0.701 0.58298 0.0
C2067 C 0.06212 0.67985 0.59319 0.0
C2068 C 0.05505 0.68094 0.61554 0.0
C2069 C 0.05286 0.70161 0.62726 0.0
C2070 C 0.07362 0.61809 0.58452 0.0
C2071 C 0.06917 0.61223 0.56013 0.0
C2072 C 0.07173 0.63965 0.59481 0.0
C2073 C 0.06515 0.65682 0.58139 0.0
C2074 C 0.06104 0.6511 0.55689 0.0
C2075 C 0.06297 0.62941 0.54657 0.0
H2076 H 0.62998 0.76773 0.83235 0.0
H2077 H 0.66969 0.81084 0.89267 0.0
H2078 H 0.66568 0.77106 0.81423 0.0
H2079 H 0.7063 0.81375 0.87462 0.0
H2080 H 0.76876 0.82742 0.82991 0.0
H2081 H 0.73301 0.82606 0.84864 0.0
H2082 H 0.70035 0.76135 0.8091 0.0
H2083 H 0.73568 0.7632 0.79007 0.0
C2084 C 0.6464 0.77794 0.84204 0.0
C2085 C 0.64622 0.78891 0.86438 0.0
C2086 C 0.66741 0.77971 0.83149 0.0
C2087 C 0.68991 0.79247 0.84258 0.0
C2088 C 0.68979 0.80378 0.86492 0.0
C2089 C 0.66852 0.80206 0.87553 0.0
C2090 C 0.7539 0.81293 0.82497 0.0
C2091 C 0.75565 0.79555 0.80794 0.0
C2092 C 0.73311 0.81202 0.83604 0.0
C2093 C 0.71281 0.79363 0.8308 0.0
C2094 C 0.71475 0.77625 0.81377 0.0
C2095 C 0.73546 0.77721 0.80268 0.0
H2096 H 0.49018 0.58868 0.67881 0.0
H2097 H 0.45845 0.5357 0.62329 0.0
H2098 H 0.51056 0.61177 0.65107 0.0
H2099 H 0.47783 0.55885 0.59554 0.0
H2100 H 0.51658 0.58955 0.54854 0.0
H2101 H 0.48918 0.59585 0.57561 0.0
H2102 H 0.54387 0.59612 0.63346 0.0
H2103 H 0.57109 0.58965 0.60638 0.0
C2104 C 0.48656 0.58258 0.66046 0.0
C2105 C 0.47305 0.56044 0.65301 0.0
C2106 C 0.49819 0.59577 0.64465 0.0
C2107 C 0.49587 0.58708 0.62123 0.0
C2108 C 0.47978 0.56616 0.61343 0.0
C2109 C 0.46877 0.55278 0.62929 0.0
C2110 C 0.52304 0.59208 0.56706 0.0
C2111 C 0.54547 0.58821 0.57554 0.0
C2112 C 0.50744 0.59587 0.58251 0.0
C2113 C 0.51419 0.59571 0.60654 0.0
C2114 C 0.53814 0.59618 0.61498 0.0
C2115 C 0.55377 0.59238 0.59948 0.0
H2116 H 0.81347 0.28265 0.96939 0.0
H2117 H 0.82515 0.21597 0.94911 0.0
H2118 H 0.81769 0.29354 0.93002 0.0
H2119 H 0.82866 0.22674 0.90955 0.0
H2120 H 0.79547 0.24949 0.83744 0.0
H2121 H 0.79461 0.23918 0.87753 0.0
H2122 H 0.85333 0.29629 0.90198 0.0
H2123 H 0.8547 0.30628 0.86194 0.0
C2124 C 0.8172 0.27044 0.9566 0.0
C2125 C 0.81905 0.2485 0.96231 0.0
C2126 C 0.81958 0.27666 0.93413 0.0
C2127 C 0.82327 0.26088 0.91685 0.0
C2128 C 0.82565 0.23912 0.92262 0.0
C2129 C 0.82385 0.23306 0.94526 0.0
C2130 C 0.80811 0.25987 0.8514 0.0
C2131 C 0.82513 0.27869 0.84663 0.0
C2132 C 0.80773 0.25388 0.87423 0.0
C2133 C 0.82398 0.26693 0.89268 0.0
C2134 C 0.84066 0.286 0.88799 0.0
C2135 C 0.84143 0.29165 0.86513 0.0
H2136 H 0.11453 0.44564 0.1406 0.0
H2137 H 0.04245 0.42567 0.15552 0.0
H2138 H 0.09947 0.4473 0.09995 0.0
H2139 H 0.0273 0.42686 0.11469 0.0
H2140 H 0.03318 0.50006 0.0838 0.0
H2141 H 0.03419 0.46857 0.10756 0.0
H2142 H 0.0737 0.4392 0.05993 0.0
H2143 H 0.07204 0.47076 0.03567 0.0
C2144 C 0.09553 0.44008 0.13488 0.0
C2145 C 0.07958 0.43642 0.15119 0.0
C2146 C 0.08682 0.44098 0.11149 0.0
C2147 C 0.06217 0.43815 0.10444 0.0
C2148 C 0.04639 0.42967 0.11985 0.0
C2149 C 0.05507 0.429 0.14323 0.0
C2150 C 0.04113 0.48634 0.07789 0.0
C2151 C 0.05274 0.48786 0.05819 0.0
C2152 C 0.04156 0.46813 0.09135 0.0
C2153 C 0.05418 0.45142 0.08565 0.0
C2154 C 0.06382 0.45179 0.06465 0.0
C2155 C 0.06286 0.46982 0.05082 0.0
H2156 H 0.7751 0.88248 0.45346 0.0
H2157 H 0.84282 0.86588 0.47488 0.0
H2158 H 0.77577 0.86629 0.41335 0.0
H2159 H 0.84409 0.85114 0.43581 0.0
H2160 H 0.83789 0.80737 0.36924 0.0
H2161 H 0.83307 0.82256 0.40751 0.0
H2162 H 0.78887 0.86501 0.3762 0.0
H2163 H 0.79288 0.84855 0.33735 0.0
C2164 C 0.79015 0.87551 0.44983 0.0
C2165 C 0.80867 0.87539 0.46815 0.0
C2166 C 0.79066 0.8662 0.42656 0.0
C2167 C 0.8098 0.85657 0.42058 0.0
C2168 C 0.82842 0.85724 0.43897 0.0
C2169 C 0.82776 0.86612 0.4619 0.0
C2170 C 0.8271 0.81995 0.37028 0.0
C2171 C 0.81606 0.82665 0.34964 0.0
C2172 C 0.82445 0.82905 0.39265 0.0
C2173 C 0.81096 0.84584 0.39586 0.0
C2174 C 0.79943 0.85225 0.37513 0.0
C2175 C 0.80183 0.8428 0.35256 0.0
H2176 H 0.51324 0.56707 0.76933 0.0
H2177 H 0.52943 0.50082 0.75753 0.0
H2178 H 0.53972 0.57408 0.80633 0.0
H2179 H 0.55459 0.50697 0.79517 0.0
H2180 H 0.60128 0.52139 0.86286 0.0
H2181 H 0.58797 0.52462 0.82184 0.0
H2182 H 0.53605 0.56127 0.84248 0.0
H2183 H 0.55012 0.55892 0.88298 0.0
C2184 C 0.5226 0.55406 0.77468 0.0
C2185 C 0.5191 0.53329 0.76082 0.0
C2186 C 0.53767 0.55798 0.79592 0.0
C2187 C 0.54898 0.54092 0.80409 0.0
C2188 C 0.54647 0.52066 0.78947 0.0
C2189 C 0.53187 0.517 0.76793 0.0
C2190 C 0.58746 0.53064 0.85847 0.0
C2191 C 0.57669 0.53987 0.87602 0.0
C2192 C 0.57969 0.53236 0.83501 0.0
C2193 C 0.56068 0.54295 0.8287 0.0
C2194 C 0.55098 0.55333 0.84647 0.0
C2195 C 0.55901 0.55194 0.86982 0.0
H2196 H 0.81158 0.27644 0.09016 0.0
H2197 H 0.84362 0.21828 0.09798 0.0
H2198 H 0.82172 0.28756 0.13174 0.0
H2199 H 0.85398 0.22962 0.14002 0.0
H2200 H 0.83238 0.24294 0.21564 0.0
H2201 H 0.83135 0.23141 0.17422 0.0
H2202 H 0.85589 0.30197 0.16221 0.0
H2203 H 0.85663 0.3135 0.20324 0.0
C2204 C 0.82109 0.26616 0.10073 0.0
C2205 C 0.82674 0.24644 0.09072 0.0
C2206 C 0.82704 0.27263 0.12461 0.0
C2207 C 0.83871 0.2595 0.13922 0.0
C2208 C 0.84488 0.24001 0.12922 0.0
C2209 C 0.83911 0.23363 0.10515 0.0
C2210 C 0.83802 0.25592 0.20423 0.0
C2211 C 0.8442 0.27917 0.2127 0.0
C2212 C 0.83749 0.24931 0.18051 0.0
C2213 C 0.84316 0.26583 0.16487 0.0
C2214 C 0.85092 0.28888 0.17371 0.0
C2215 C 0.8514 0.29546 0.19729 0.0
H2216 H 0.12245 0.4695 0.29219 0.0
H2217 H 0.04871 0.43748 0.26842 0.0
H2218 H 0.11368 0.47516 0.33138 0.0
H2219 H 0.03994 0.441 0.30827 0.0
H2220 H 1.02546 0.49138 0.36434 0.0
H2221 H 0.03376 0.47114 0.33023 0.0
H2222 H 0.10296 0.46867 0.36653 0.0
H2223 H 0.09609 0.49182 0.39924 0.0
C2224 C 0.10456 0.46255 0.29569 0.0
C2225 C 0.08614 0.45348 0.2774 0.0
C2226 C 0.09941 0.46572 0.31831 0.0
C2227 C 0.0758 0.45925 0.3231 0.0
C2228 C 0.05809 0.44718 0.30514 0.0
C2229 C 0.06312 0.44478 0.28236 0.0
C2230 C 0.04264 0.48693 0.36497 0.0
C2231 C 0.06023 0.49393 0.38456 0.0
C2232 C 0.04721 0.47462 0.34549 0.0
C2233 C 0.06925 0.46833 0.34529 0.0
C2234 C 0.08605 0.47371 0.36561 0.0
C2235 C 0.08184 0.48674 0.38473 0.0
H2236 H 0.81486 0.84405 0.59266 0.0
H2237 H 0.79229 0.9031 0.6197 0.0
H2238 H 0.81427 0.82872 0.63 0.0
H2239 H 0.79123 0.88728 0.65784 0.0
H2240 H 0.81514 0.86145 0.73096 0.0
H2241 H 0.81215 0.87819 0.69361 0.0
H2242 H 0.79387 0.81056 0.65733 0.0
H2243 H 0.79742 0.7941 0.69437 0.0
C2244 C 0.80932 0.85379 0.60648 0.0
C2245 C 0.80344 0.87501 0.60239 0.0
C2246 C 0.80886 0.84474 0.62832 0.0
C2247 C 0.80257 0.8563 0.64776 0.0
C2248 C 0.79636 0.87754 0.64377 0.0
C2249 C 0.79666 0.88663 0.62157 0.0
C2250 C 0.81041 0.85005 0.71508 0.0
C2251 C 0.80672 0.82612 0.71634 0.0
C2252 C 0.80855 0.85977 0.69333 0.0
C2253 C 0.80301 0.8461 0.67163 0.0
C2254 C 0.79874 0.82217 0.67308 0.0
C2255 C 0.80057 0.81251 0.69471 0.0
H2256 H 0.79136 0.44946 0.50216 0.0
H2257 H 0.78582 0.41851 0.56679 0.0
H2258 H 0.76417 0.47321 0.51228 0.0
H2259 H 0.75923 0.44267 0.5772 0.0
H2260 H 0.69217 0.47095 0.57671 0.0
H2261 H 0.7196 0.44757 0.56669 0.0
H2262 H 0.76136 0.50486 0.53849 0.0
H2263 H 0.7332 0.52792 0.54745 0.0
C2264 C 0.78445 0.4478 0.51858 0.0
C2265 C 0.79072 0.43202 0.53361 0.0
C2266 C 0.76897 0.46154 0.52447 0.0
C2267 C 0.75947 0.45989 0.54558 0.0
C2268 C 0.76588 0.44417 0.56064 0.0
C2269 C 0.78125 0.43038 0.55471 0.0
C2270 C 0.70709 0.47854 0.56821 0.0
C2271 C 0.7104 0.50133 0.56284 0.0
C2272 C 0.72302 0.46519 0.56271 0.0
C2273 C 0.74274 0.47429 0.55176 0.0
C2274 C 0.74622 0.49718 0.54665 0.0
C2275 C 0.73024 0.51052 0.5521 0.0
H2276 H 0.28212 0.12072 0.54973 0.0
H2277 H 0.2518 0.14694 0.48865 0.0
H2278 H 0.24253 0.09713 0.55284 0.0
H2279 H 0.2127 0.12364 0.49155 0.0
H2280 H 0.14584 0.06812 0.49195 0.0
H2281 H 0.18683 0.08637 0.48812 0.0
H2282 H 0.20324 0.10082 0.56281 0.0
H2283 H 0.16216 0.08248 0.56664 0.0
C2284 C 0.26724 0.12097 0.53654 0.0
C2285 C 0.27052 0.1356 0.51868 0.0
C2286 C 0.24431 0.10767 0.53851 0.0
C2287 C 0.22392 0.10828 0.5225 0.0
C2288 C 0.22761 0.12223 0.50415 0.0
C2289 C 0.25028 0.13569 0.50244 0.0
C2290 C 0.15813 0.075 0.50765 0.0
C2291 C 0.15023 0.07366 0.52963 0.0
C2292 C 0.18183 0.0857 0.50544 0.0
C2293 C 0.19883 0.09537 0.52512 0.0
C2294 C 0.19108 0.09351 0.54716 0.0
C2295 C 0.16727 0.08302 0.54936 0.0
H2296 H 0.27796 0.03438 0.86044 0.0
H2297 H 0.22821 0.02506 0.79676 0.0
H2298 H 0.29814 1.00694 0.84385 0.0
H2299 H 0.24888 0.99808 0.77985 0.0
H2300 H 0.27115 0.9291 0.77202 0.0
H2301 H 0.2531 0.95987 0.78487 0.0
H2302 H 0.32265 0.99981 0.8151 0.0
H2303 H 0.34057 0.96848 0.8033 0.0
C2304 C 0.27153 0.02671 0.84277 0.0
C2305 C 0.25137 0.03175 0.82999 0.0
C2306 C 0.28321 1.01108 0.83318 0.0
C2307 C 0.2751 1.00025 0.81052 0.0
C2308 C 0.25536 1.00584 0.79748 0.0
C2309 C 0.24358 0.02138 0.80713 0.0
C2310 C 0.28259 0.94443 0.78145 0.0
C2311 C 0.30727 0.94622 0.78685 0.0
C2312 C 0.27228 0.96222 0.78855 0.0
C2313 C 0.28641 0.98229 0.80113 0.0
C2314 C 0.31121 0.98444 0.80574 0.0
C2315 C 0.32152 0.9666 0.79872 0.0
H2316 H 0.4318 0.90304 0.04136 0.0
H2317 H 0.38557 0.95083 0.03856 0.0
H2318 H 0.4664 0.93455 0.04598 0.0
H2319 H 0.42053 0.98258 0.04354 0.0
H2320 H 0.52501 0.99365 0.07444 0.0
H2321 H 0.48782 0.96602 0.0748 0.0
H2322 H 0.45287 0.99882 0.02113 0.0
H2323 H 0.49005 0.02682 0.02103 0.0
C2324 C 0.429 0.92028 0.04183 0.0
C2325 C 0.4059 0.92439 0.03957 0.0
C2326 C 0.44887 0.93838 0.0447 0.0
C2327 C 0.44619 0.96106 0.04536 0.0
C2328 C 0.42312 0.96526 0.04302 0.0
C2329 C 0.40314 0.94708 0.04023 0.0
C2330 C 0.50932 0.99522 0.06296 0.0
C2331 C 0.51055 1.01221 0.04746 0.0
C2332 C 0.48805 0.97931 0.0631 0.0
C2333 C 0.46756 0.98001 0.04769 0.0
C2334 C 0.46836 0.99789 0.03325 0.0
C2335 C 0.48968 1.01389 0.03315 0.0
H2336 H 0.98983 0.65346 0.77862 0.0
H2337 H 0.94683 0.61064 0.8212 0.0
H2338 H 0.95459 0.66546 0.76109 0.0
H2339 H 0.91167 0.62304 0.80399 0.0
H2340 H 0.84896 0.63869 0.75807 0.0
H2341 H 0.88377 0.62206 0.76786 0.0
H2342 H 0.92969 0.68956 0.77523 0.0
H2343 H 0.89515 0.70584 0.76528 0.0
C2344 C 0.97287 0.64662 0.78426 0.0
C2345 C 0.97118 0.63129 0.8015 0.0
C2346 C 0.95267 0.65349 0.7742 0.0
C2347 C 0.93034 0.64525 0.78119 0.0
C2348 C 0.92855 0.62947 0.798 0.0
C2349 C 0.94875 0.62255 0.80803 0.0
C2350 C 0.86661 0.64975 0.76131 0.0
C2351 C 0.86954 0.67346 0.76105 0.0
C2352 C 0.88645 0.64034 0.7671 0.0
C2353 C 0.90947 0.65452 0.77245 0.0
C2354 C 0.9123 0.67812 0.77098 0.0
C2355 C 0.89255 0.68748 0.76541 0.0
H2356 H 0.91958 0.64137 0.9835 0.0
H2357 H 0.9112 0.63444 0.05544 0.0
H2358 H 0.95223 0.62202 0.98734 0.0
H2359 H 0.94422 0.61436 0.05933 0.0
H2360 H 1.01911 0.59477 0.06457 0.0
H2361 H 0.98541 0.61355 0.06225 0.0
H2362 H 0.96668 0.58933 0.98933 0.0
H2363 H 1.00054 0.57101 0.99167 0.0
C2364 C 0.92448 0.63561 1.00031 0.0
C2365 C 0.91203 0.63983 0.01908 0.0
C2366 C 0.94351 0.6241 1.00249 0.0
C2367 C 0.95157 0.61598 0.02365 0.0
C2368 C 0.9392 0.62021 0.04262 0.0
C2369 C 0.91988 0.63175 0.04038 0.0
C2370 C 1.00785 0.59334 0.04796 0.0
C2371 C 1.01318 0.58106 0.02832 0.0
C2372 C 0.98813 0.60418 0.04663 0.0
C2373 C 0.97261 0.60352 0.02554 0.0
C2374 C 0.97792 0.59103 1.00598 0.0
C2375 C 0.99757 0.58016 1.00733 0.0
H2376 H 0.22968 0.1643 0.87911 0.0
H2377 H 0.25604 0.12199 0.83007 0.0
H2378 H 0.25315 0.19833 0.86601 0.0
H2379 H 0.2792 0.15614 0.81671 0.0
H2380 H 0.26407 0.24887 0.8106 0.0
H2381 H 0.24732 0.21533 0.82906 0.0
H2382 H 0.31179 0.1907 0.82631 0.0
H2383 H 0.32859 0.22423 0.80744 0.0
C2384 C 0.24077 0.16223 0.86579 0.0
C2385 C 0.24069 0.14046 0.85534 0.0
C2386 C 0.25409 0.18174 0.8582 0.0
C2387 C 0.26758 0.17988 0.84001 0.0
C2388 C 0.26896 0.15809 0.83078 0.0
C2389 C 0.25565 0.13853 0.83841 0.0
C2390 C 0.27473 0.23635 0.8139 0.0
C2391 C 0.29765 0.23922 0.8075 0.0
C2392 C 0.26521 0.21722 0.82471 0.0
C2393 C 0.27836 0.20052 0.82935 0.0
C2394 C 0.30124 0.20329 0.82288 0.0
C2395 C 0.31083 0.2225 0.8121 0.0
H2396 H 0.55433 0.03236 0.30432 0.0
H2397 H 0.49158 0.06048 0.30295 0.0
H2398 H 0.5293 0.99392 0.29854 0.0
H2399 H 0.46656 0.02202 0.29803 0.0
H2400 H 0.42522 0.95044 0.27373 0.0
H2401 H 0.45136 0.98775 0.27284 0.0
H2402 H 0.50584 0.96837 0.32007 0.0
H2403 H 0.48031 0.93074 0.31983 0.0
C2404 C 0.53518 0.03034 0.3028 0.0
C2405 C 0.52498 0.04951 0.30423 0.0
C2406 C 0.52081 1.00826 0.29961 0.0
C2407 C 0.49587 1.00476 0.29798 0.0
C2408 C 0.48565 0.02399 0.29888 0.0
C2409 C 0.50002 0.04609 0.30187 0.0
C2410 C 0.44298 0.95395 0.28348 0.0
C2411 C 0.45057 0.93758 0.29697 0.0
C2412 C 0.45787 0.97549 0.28325 0.0
C2413 C 0.48068 0.98124 0.29656 0.0
C2414 C 0.48852 0.96457 0.30941 0.0
C2415 C 0.47372 0.94302 0.30953 0.0
H2416 H 0.59824 0.41529 0.65853 0.0
H2417 H 0.6367 0.41516 0.59941 0.0
H2418 H 0.57249 0.43743 0.63846 0.0
H2419 H 0.61103 0.43719 0.57954 0.0
H2420 H 0.5547 0.46503 0.54192 0.0
H2421 H 0.56798 0.43485 0.56237 0.0
H2422 H 0.5816 0.4781 0.62721 0.0
H2423 H 0.56829 0.50823 0.60688 0.0
C2424 C 0.60109 0.41983 0.64121 0.0
C2425 C 0.61963 0.41368 0.63061 0.0
C2426 C 0.58632 0.43242 0.62976 0.0
C2427 C 0.58966 0.43879 0.60742 0.0
C2428 C 0.60778 0.43212 0.59659 0.0
C2429 C 0.62267 0.41976 0.6081 0.0
C2430 C 0.55975 0.46781 0.56065 0.0
C2431 C 0.5609 0.4891 0.57278 0.0
C2432 C 0.56749 0.4506 0.5723 0.0
C2433 C 0.57617 0.45437 0.59624 0.0
C2434 C 0.57496 0.47476 0.60875 0.0
C2435 C 0.56744 0.49203 0.59709 0.0
H2436 H 0.42844 0.69989 0.36792 0.0
H2437 H 0.48803 0.72982 0.3338 0.0
H2438 H 0.40113 0.7083 0.33628 0.0
H2439 H 0.46054 0.73798 0.3019 0.0
H2440 H 0.40933 0.78948 0.2904 0.0
H2441 H 0.4382 0.76813 0.30531 0.0
H2442 H 0.38301 0.70621 0.29576 0.0
H2443 H 0.35397 0.72765 0.28117 0.0
C2444 C 0.4357 0.7075 0.35326 0.0
C2445 C 0.46041 0.71483 0.35374 0.0
C2446 C 0.42 0.71222 0.33499 0.0
C2447 C 0.42874 0.72431 0.31686 0.0
C2448 C 0.45335 0.72908 0.31591 0.0
C2449 C 0.46907 0.72431 0.33418 0.0
C2450 C 0.40346 0.77121 0.29087 0.0
C2451 C 0.37928 0.76038 0.2852 0.0
C2452 C 0.42007 0.75889 0.29925 0.0
C2453 C 0.41279 0.73551 0.30202 0.0
C2454 C 0.38904 0.72428 0.29418 0.0
C2455 C 0.37242 0.7366 0.28587 0.0
H2456 H 0.12334 0.79747 0.1659 0.0
H2457 H 0.17546 0.80347 0.11828 0.0
H2458 H 0.11507 0.75618 0.15863 0.0
H2459 H 0.1668 0.76185 0.11074 0.0
H2460 H 0.16184 0.68613 0.12344 0.0
H2461 H 0.17133 0.7277 0.13101 0.0
H2462 H 0.09626 0.72694 0.12667 0.0
H2463 H 0.08683 0.68541 0.11987 0.0
C2464 C 0.13303 0.79 0.1538 0.0
C2465 C 0.15005 0.80381 0.14261 0.0
C2466 C 0.12815 0.7663 0.14956 0.0
C2467 C 0.14018 0.75578 0.13404 0.0
C2468 C 0.15738 0.76951 0.12295 0.0
C2469 C 0.16226 0.79332 0.12716 0.0
C2470 C 0.1474 0.69485 0.1244 0.0
C2471 C 0.12359 0.68251 0.12118 0.0
C2472 C 0.15283 0.71865 0.12843 0.0
C2473 C 0.13455 0.73056 0.12941 0.0
C2474 C 0.11075 0.71821 0.12624 0.0
C2475 C 0.10533 0.69445 0.12216 0.0
H2476 H 0.08701 0.23659 0.86656 0.0
H2477 H 0.04661 0.26738 0.81508 0.0
H2478 H 0.12139 0.24544 0.8463 0.0
H2479 H 0.08108 0.27571 0.79429 0.0
H2480 H 0.15754 0.31178 0.7831 0.0
H2481 H 0.12044 0.30088 0.79947 0.0
H2482 H 0.13619 0.23518 0.81141 0.0
H2483 H 0.17341 0.24632 0.79555 0.0
C2484 C 0.08536 0.24501 0.85073 0.0
C2485 C 0.06407 0.25134 0.84246 0.0
C2486 C 0.10507 0.24996 0.83901 0.0
C2487 C 0.10398 0.26122 0.81863 0.0
C2488 C 0.08256 0.26724 0.8101 0.0
C2489 C 0.06279 0.26235 0.82192 0.0
C2490 C 0.15289 0.29495 0.78903 0.0
C2491 C 0.16843 0.27999 0.78835 0.0
C2492 C 0.13162 0.28866 0.79831 0.0
C2493 C 0.12545 0.26723 0.80692 0.0
C2494 C 0.14066 0.252 0.8054 0.0
C2495 C 0.16195 0.25835 0.79631 0.0
H2496 H 0.55911 0.73049 0.98482 0.0
H2497 H 0.595 0.71321 0.9279 0.0
H2498 H 0.55834 0.69334 0.99855 0.0
H2499 H 0.59451 0.67529 0.94208 0.0
H2500 H 0.5715 0.5995 0.96451 0.0
H2501 H 0.57363 0.63669 0.94852 0.0
H2502 H 0.57796 0.66899 0.0179 0.0
H2503 H 0.57556 0.63229 0.03354 0.0
C2504 C 0.56718 0.7189 0.97514 0.0
C2505 C 0.57729 0.72576 0.95504 0.0
C2506 C 0.56684 0.69714 0.9833 0.0
C2507 C 0.5765 0.68043 0.97192 0.0
C2508 C 0.58666 0.68712 0.95166 0.0
C2509 C 0.58717 0.70924 0.9435 0.0
C2510 C 0.57275 0.61448 0.97642 0.0
C2511 C 0.57306 0.61213 1.00061 0.0
C2512 C 0.57418 0.63617 0.96716 0.0
C2513 C 0.57581 0.6567 0.98152 0.0
C2514 C 0.57625 0.65416 1.00567 0.0
C2515 C 0.57497 0.63267 0.01487 0.0
H2516 H 0.12367 0.78726 0.73151 0.0
H2517 H 0.14677 0.81545 0.66987 0.0
H2518 H 0.16463 0.78934 0.748 0.0
H2519 H 0.18846 0.81722 0.6864 0.0
H2520 H 0.26419 0.83171 0.73123 0.0
H2521 H 0.2236 0.8327 0.71428 0.0
H2522 H 0.19646 0.7717 0.74622 0.0
H2523 H 0.23682 0.77102 0.7634 0.0
C2524 C 0.13751 0.7941 0.72138 0.0
C2525 C 0.13138 0.80117 0.69914 0.0
C2526 C 0.16134 0.79505 0.73087 0.0
C2527 C 0.18049 0.803 0.71862 0.0
C2528 C 0.17455 0.81097 0.69667 0.0
C2529 C 0.15046 0.81005 0.6871 0.0
C2530 C 0.2496 0.81848 0.73473 0.0
C2531 C 0.25425 0.80132 0.749 0.0
C2532 C 0.22608 0.81898 0.72479 0.0
C2533 C 0.2061 0.80241 0.72874 0.0
C2534 C 0.21089 0.78518 0.7429 0.0
C2535 C 0.23434 0.78466 0.75277 0.0
H2536 H 0.09606 0.37519 0.42623 0.0
H2537 H 0.08647 0.35367 0.49418 0.0
H2538 H 0.09631 0.41471 0.44093 0.0
H2539 H 0.087 0.39272 0.50884 0.0
H2540 H 0.10559 0.46955 0.53591 0.0
H2541 H 0.10872 0.43147 0.5206 0.0
H2542 H 0.07161 0.44056 0.4541 0.0
H2543 H 0.06812 0.47841 0.46958 0.0
C2544 C 0.09458 0.37879 0.44443 0.0
C2545 C 0.0916 0.36064 0.45886 0.0
C2546 C 0.09438 0.40167 0.45293 0.0
C2547 C 0.09164 0.40767 0.4764 0.0
C2548 C 0.08943 0.38955 0.49084 0.0
C2549 C 0.08915 0.36678 0.48228 0.0
C2550 C 0.09808 0.4636 0.51799 0.0
C2551 C 0.08657 0.47776 0.50427 0.0
C2552 C 0.09979 0.44139 0.50908 0.0
C2553 C 0.09047 0.43216 0.48578 0.0
C2554 C 0.07935 0.44654 0.47196 0.0
C2555 C 0.07724 0.46856 0.481 0.0
H2556 H 0.47938 0.29978 0.16416 0.0
H2557 H 0.51711 0.29442 0.23149 0.0
H2558 H 0.44325 0.30098 0.18223 0.0
H2559 H 0.48163 0.29599 0.24946 0.0
H2560 H 0.41818 0.31709 0.28015 0.0
H2561 H 0.45402 0.31846 0.26137 0.0
H2562 H 0.41131 0.27753 0.20106 0.0
H2563 H 0.37562 0.27585 0.22 0.0
C2564 C 0.4803 0.29939 0.18285 0.0
C2565 C 0.50179 0.2973 0.19614 0.0
C2566 C 0.4593 0.29978 0.19333 0.0
C2567 C 0.4589 0.29858 0.21767 0.0
C2568 C 0.48066 0.29721 0.23087 0.0
C2569 C 0.50132 0.29631 0.22039 0.0
C2570 C 0.41628 0.30824 0.26294 0.0
C2571 C 0.39345 0.2962 0.252 0.0
C2572 C 0.4371 0.309 0.252 0.0
C2573 C 0.43619 0.29817 0.2293 0.0
C2574 C 0.41328 0.28638 0.21829 0.0
C2575 C 0.39256 0.28525 0.2294 0.0
H2576 H 0.67512 0.5167 0.39493 0.0
H2577 H 0.70159 0.56701 0.45401 0.0
H2578 H 0.6493 0.49328 0.41863 0.0
H2579 H 0.67673 0.54328 0.47789 0.0
H2580 H 0.63092 0.50166 0.51777 0.0
H2581 H 0.66229 0.50221 0.49356 0.0
H2582 H 0.61428 0.51156 0.43381 0.0
H2583 H 0.58299 0.51175 0.45806 0.0
C2584 C 0.67636 0.52209 0.41331 0.0
C2585 C 0.69013 0.5436 0.42278 0.0
C2586 C 0.66159 0.50874 0.42678 0.0
C2587 C 0.66107 0.51653 0.44998 0.0
C2588 C 0.67702 0.53677 0.4601 0.0
C2589 C 0.69119 0.5504 0.44648 0.0
C2590 C 0.62672 0.50307 0.49932 0.0
C2591 C 0.60475 0.50758 0.48998 0.0
C2592 C 0.64469 0.50318 0.48547 0.0
C2593 C 0.64074 0.50725 0.462 0.0
C2594 C 0.61772 0.50832 0.4519 0.0
C2595 C 0.59983 0.50859 0.46584 0.0
H2596 H 0.32719 0.80907 0.08586 0.0
H2597 H 0.34453 0.88074 0.10994 0.0
H2598 H 0.32623 0.79945 0.12582 0.0
H2599 H 0.34613 0.87157 0.15001 0.0
H2600 H 0.33144 0.8506 0.22034 0.0
H2601 H 0.32845 0.85978 0.18028 0.0
H2602 H 0.34803 0.79646 0.15977 0.0
H2603 H 0.34831 0.78643 0.19963 0.0
C2604 C 0.33081 0.82273 0.09984 0.0
C2605 C 0.33565 0.84559 0.09494 0.0
C2606 C 0.33069 0.81731 0.12285 0.0
C2607 C 0.33641 0.83465 0.14158 0.0
C2608 C 0.34107 0.85758 0.13637 0.0
C2609 C 0.34028 0.86295 0.11332 0.0
C2610 C 0.33509 0.8387 0.20718 0.0
C2611 C 0.33999 0.81778 0.21299 0.0
C2612 C 0.33357 0.84401 0.1841 0.0
C2613 C 0.3379 0.82891 0.16633 0.0
C2614 C 0.34378 0.80831 0.17254 0.0
C2615 C 0.34435 0.80264 0.19551 0.0
H2616 H 0.11124 0.66024 0.89262 0.0
H2617 H 0.03712 0.63382 0.89772 0.0
H2618 H 0.12106 0.66198 0.93483 0.0
H2619 H 0.04694 0.63487 0.93987 0.0
H2620 H 0.0691 0.6229 0.01171 0.0
H2621 H 0.06575 0.64902 0.98148 0.0
H2622 H 0.11874 0.62328 0.94821 0.0
H2623 H 0.12166 0.5972 0.97794 0.0
C2624 C 0.09689 0.65593 0.90294 0.0
C2625 C 0.07354 0.6464 0.89208 0.0
C2626 C 0.10252 0.65688 0.92708 0.0
C2627 C 0.08492 0.64781 0.9405 0.0
C2628 C 0.06093 0.64188 0.92998 0.0
C2629 C 0.05525 0.64123 0.90578 0.0
C2630 C 0.0807 0.6236 0.99841 0.0
C2631 C 0.09546 0.60796 0.99685 0.0
C2632 C 0.07872 0.63847 0.98113 0.0
C2633 C 0.09187 0.63815 0.96243 0.0
C2634 C 0.10854 0.62421 0.9625 0.0
C2635 C 0.11013 0.60909 0.97942 0.0
H2636 H 0.36707 0.2034 0.60961 0.0
H2637 H 0.31835 0.24431 0.58431 0.0
H2638 H 0.36628 0.21906 0.64992 0.0
H2639 H 0.31753 0.25947 0.62367 0.0
H2640 H 0.29844 0.26633 0.6971 0.0
H2641 H 0.30185 0.24986 0.65848 0.0
H2642 H 0.37634 0.25279 0.68029 0.0
H2643 H 0.37287 0.2694 0.71921 0.0
C2644 C 0.35636 0.21578 0.61239 0.0
C2645 C 0.34276 0.22226 0.59304 0.0
C2646 C 0.35585 0.22485 0.63571 0.0
C2647 C 0.34148 0.24052 0.64068 0.0
C2648 C 0.32842 0.24719 0.62122 0.0
C2649 C 0.3291 0.23843 0.59822 0.0
C2650 C 0.31564 0.26354 0.69387 0.0
C2651 C 0.33533 0.26955 0.71181 0.0
C2652 C 0.31768 0.25407 0.67138 0.0
C2653 C 0.33949 0.24987 0.66557 0.0
C2654 C 0.35914 0.25546 0.68365 0.0
C2655 C 0.35715 0.26521 0.70617 0.0
H2656 H 0.67605 0.55061 0.29695 0.0
H2657 H 0.63834 0.59992 0.32216 0.0
H2658 H 0.65338 0.54813 0.25835 0.0
H2659 H 0.61537 0.59714 0.28346 0.0
H2660 H 0.61151 0.61138 0.20533 0.0
H2661 H 0.62667 0.60994 0.24605 0.0
H2662 H 0.61336 0.53636 0.23513 0.0
H2663 H 0.59794 0.53776 0.19426 0.0
C2664 C 0.66266 0.56067 0.29435 0.0
C2665 C 0.65919 0.57567 0.31256 0.0
C2666 C 0.64955 0.5591 0.27226 0.0
C2667 C 0.63272 0.57255 0.26787 0.0
C2668 C 0.62846 0.58679 0.28631 0.0
C2669 C 0.64153 0.58829 0.30847 0.0
C2670 C 0.61135 0.59485 0.21169 0.0
C2671 C 0.60361 0.57468 0.19655 0.0
C2672 C 0.62001 0.59403 0.23505 0.0
C2673 C 0.62118 0.57304 0.24376 0.0
C2674 C 0.61289 0.5528 0.2288 0.0
C2675 C 0.60416 0.55361 0.20542 0.0
H2676 H 0.32944 0.8139 0.96553 0.0
H2677 H 0.30261 0.87517 0.95851 0.0
H2678 H 0.32001 0.80397 0.92387 0.0
H2679 H 0.29255 0.86489 0.9163 0.0
H2680 H 0.3179 0.85425 0.84263 0.0
H2681 H 0.31539 0.86365 0.8837 0.0
H2682 H 0.28971 0.79206 0.89111 0.0
H2683 H 0.29303 0.78267 0.85045 0.0
C2684 C 0.32103 0.82504 0.95511 0.0
C2685 C 0.31696 0.84542 0.96534 0.0
C2686 C 0.31542 0.81924 0.93113 0.0
C2687 C 0.30554 0.83364 0.91663 0.0
C2688 C 0.30036 0.85354 0.92695 0.0
C2689 C 0.30591 0.85932 0.95113 0.0
C2690 C 0.31131 0.84059 0.85296 0.0
C2691 C 0.30613 0.81769 0.84345 0.0
C2692 C 0.30974 0.84598 0.87648 0.0
C2693 C 0.30274 0.82857 0.89084 0.0
C2694 C 0.29575 0.80584 0.88072 0.0
C2695 C 0.29759 0.80046 0.85738 0.0
H2696 H 0.13416 0.64252 0.79258 0.0
H2697 H 0.06548 0.63939 0.75237 0.0
H2698 H 0.15278 0.64626 0.7573 0.0
H2699 H 0.08385 0.64229 0.717 0.0
H2700 H 0.11457 0.63611 0.65412 0.0
H2701 H 0.11116 0.65748 0.69032 0.0
H2702 H 0.14796 0.61357 0.72946 0.0
H2703 H 0.15107 0.59231 0.69369 0.0
C2704 C 0.12316 0.64327 0.77625 0.0
C2705 C 0.09831 0.63994 0.77499 0.0
C2706 C 0.13382 0.64544 0.75608 0.0
C2707 C 0.11973 0.64387 0.73428 0.0
C2708 C 0.09529 0.64355 0.7335 0.0
C2709 C 0.08466 0.64171 0.75376 0.0
C2710 C 0.12253 0.6315 0.67049 0.0
C2711 C 0.13244 0.61209 0.67113 0.0
C2712 C 0.12062 0.64378 0.69118 0.0
C2713 C 0.12878 0.63692 0.71278 0.0
C2714 C 0.14154 0.61945 0.71317 0.0
C2715 C 0.14332 0.60714 0.69254 0.0
H2716 H 0.33774 0.25102 0.46905 0.0
H2717 H 0.35479 0.18919 0.44152 0.0
H2718 H 0.33864 0.26593 0.43143 0.0
H2719 H 0.356 0.20444 0.40312 0.0
H2720 H 0.33085 0.23064 0.33046 0.0
H2721 H 0.33397 0.21433 0.36807 0.0
H2722 H 0.35998 0.28211 0.4032 0.0
H2723 H 0.35654 0.29824 0.36591 0.0
C2724 C 0.34213 0.24057 0.45504 0.0
C2725 C 0.34641 0.21874 0.45904 0.0
C2726 C 0.34275 0.24933 0.43307 0.0
C2727 C 0.34748 0.23678 0.41345 0.0
C2728 C 0.3521 0.21492 0.41736 0.0
C2729 C 0.35174 0.20615 0.43969 0.0
C2730 C 0.33744 0.24215 0.34616 0.0
C2731 C 0.34338 0.26604 0.34455 0.0
C2732 C 0.33932 0.23267 0.36801 0.0
C2733 C 0.34704 0.24658 0.38944 0.0
C2734 C 0.35346 0.27042 0.38764 0.0
C2735 C 0.35168 0.27985 0.36588 0.0
H2736 H 0.34627 0.64839 0.4651 0.0
H2737 H 0.37375 0.66735 0.53803 0.0
H2738 H 0.3726 0.62184 0.46326 0.0
H2739 H 0.40028 0.64098 0.53607 0.0
H2740 H 0.42393 0.57303 0.53002 0.0
H2741 H 0.39767 0.59962 0.53138 0.0
H2742 H 0.41514 0.62155 0.46522 0.0
H2743 H 0.44168 0.59512 0.46394 0.0
C2744 C 0.35799 0.64698 0.48073 0.0
C2745 C 0.35784 0.65999 0.50174 0.0
C2746 C 0.37318 0.63183 0.47963 0.0
C2747 C 0.38852 0.62923 0.49952 0.0
C2748 C 0.38846 0.64234 0.5205 0.0
C2749 C 0.37335 0.65757 0.52158 0.0
C2750 C 0.42234 0.58362 0.51582 0.0
C2751 C 0.43503 0.58193 0.4969 0.0
C2752 C 0.40727 0.59889 0.51662 0.0
C2753 C 0.40437 0.6128 0.49847 0.0
C2754 C 0.41676 0.6109 0.47937 0.0
C2755 C 0.43193 0.59568 0.47861 0.0
H2756 H 0.89519 0.95033 0.57608 0.0
H2757 H 0.86791 0.9735 0.51184 0.0
H2758 H 0.93478 0.97298 0.57396 0.0
H2759 H 0.90798 0.99651 0.50955 0.0
H2760 H 0.98948 1.01055 0.49964 0.0
H2761 H 0.94785 0.99269 0.50208 0.0
H2762 H 0.96105 1.00949 0.5766 0.0
H2763 H 1.00247 0.02709 0.57417 0.0
C2764 C 0.89746 0.96087 0.56178 0.0
C2765 C 0.87791 0.96031 0.54445 0.0
C2766 C 0.92042 0.97393 0.56048 0.0
C2767 C 0.92514 0.98682 0.54153 0.0
C2768 C 0.90543 0.9868 0.52439 0.0
C2769 C 0.88219 0.97387 0.5259 0.0
C2770 C 0.98354 1.01059 0.51657 0.0
C2771 C 0.99981 0.0204 0.53669 0.0
C2772 C 0.95942 1.00038 0.51798 0.0
C2773 C 0.95059 0.99933 0.53958 0.0
C2774 C 0.96685 1.00947 0.5596 0.0
C2775 C 0.99083 0.0198 0.55818 0.0
H2776 H 0.89557 0.07537 0.22517 0.0
H2777 H 0.92051 0.07005 0.29748 0.0
H2778 H 0.87217 0.102 0.23698 0.0
H2779 H 0.89672 0.09681 0.30934 0.0
H2780 H 0.87812 0.16962 0.31357 0.0
H2781 H 0.89804 0.13844 0.30634 0.0
H2782 H 0.8372 0.10357 0.25672 0.0
H2783 H 0.8176 0.13499 0.26341 0.0
C2784 C 0.89595 0.07977 0.24362 0.0
C2785 C 0.91 0.07068 0.2604 0.0
C2786 C 0.88235 0.09489 0.25039 0.0
C2787 C 0.88252 0.10138 0.27408 0.0
C2788 C 0.89635 0.09214 0.29094 0.0
C2789 C 0.90989 0.07681 0.28416 0.0
C2790 C 0.86896 0.1552 0.30125 0.0
C2791 C 0.84642 0.15485 0.28888 0.0
C2792 C 0.88025 0.13726 0.2973 0.0
C2793 C 0.86924 0.11869 0.28083 0.0
C2794 C 0.84621 0.11782 0.26932 0.0
C2795 C 0.8349 0.1357 0.27332 0.0
H2796 H 0.71694 0.18399 0.99905 0.0
H2797 H 0.76504 0.14254 0.0251 0.0
H2798 H 0.68332 0.15144 0.99725 0.0
H2799 H 0.73125 0.11006 0.0235 0.0
H2800 H 0.66008 0.07913 0.05387 0.0
H2801 H 0.69652 0.10559 0.04811 0.0
H2802 H 0.66615 0.10993 0.97723 0.0
H2803 H 0.62959 0.08303 0.98288 0.0
C2804 C 0.72035 0.16788 1.00417 0.0
C2805 C 0.74359 0.16588 0.01245 0.0
C2806 C 0.70114 0.14921 1.00293 0.0
C2807 C 0.70476 0.1283 0.01024 0.0
C2808 C 0.72805 0.12605 0.01781 0.0
C2809 C 0.74733 0.14463 0.01871 0.0
C2810 C 0.66135 0.0854 0.03692 0.0
C2811 C 0.64203 0.07918 0.01885 0.0
C2812 C 0.68224 0.10041 0.03359 0.0
C2813 C 0.68406 0.1098 0.01226 0.0
C2814 C 0.66509 0.10293 0.99386 0.0
C2815 C 0.64429 0.08751 0.99706 0.0
H2816 H 0.20465 0.49061 0.27591 0.0
H2817 H 0.18906 0.43358 0.22276 0.0
H2818 H 0.24287 0.48165 0.28917 0.0
H2819 H 0.22709 0.42434 0.23637 0.0
H2820 H 0.30318 0.42089 0.25494 0.0
H2821 H 0.27016 0.43731 0.23955 0.0
H2822 H 0.25587 0.45161 0.30961 0.0
H2823 H 0.2895 0.43602 0.32505 0.0
C2824 C 0.20939 0.47618 0.26701 0.0
C2825 C 0.19374 0.46268 0.24839 0.0
C2826 C 0.23128 0.47103 0.27467 0.0
C2827 C 0.23799 0.45226 0.26389 0.0
C2828 C 0.2226 0.43912 0.24486 0.0
C2829 C 0.20072 0.44429 0.23717 0.0
C2830 C 0.29346 0.42818 0.26711 0.0
C2831 C 0.29887 0.42706 0.29122 0.0
C2832 C 0.27432 0.43728 0.25826 0.0
C2833 C 0.26019 0.44546 0.27332 0.0
C2834 C 0.26646 0.44555 0.29752 0.0
C2835 C 0.28561 0.43645 0.30637 0.0
H2836 H 0.22022 0.43647 0.01468 0.0
H2837 H 0.25828 0.49514 0.06109 0.0
H2838 H 0.18448 0.45277 0.01131 0.0
H2839 H 0.22356 0.51152 0.05734 0.0
H2840 H 0.15381 0.53252 0.06428 0.0
H2841 H 0.18767 0.5145 0.0666 0.0
H2842 H 0.16024 0.47785 0.99897 0.0
H2843 H 0.12571 0.49558 0.99712 0.0
C2844 C 0.22122 0.45287 0.02411 0.0
C2845 C 0.24278 0.4641 0.03832 0.0
C2846 C 0.20047 0.46245 0.02213 0.0
C2847 C 0.20015 0.48377 0.03424 0.0
C2848 C 0.22194 0.49496 0.04804 0.0
C2849 C 0.24242 0.48543 0.05006 0.0
C2850 C 0.15481 0.52066 0.04976 0.0
C2851 C 0.13646 0.51597 0.03043 0.0
C2852 C 0.17473 0.51022 0.05098 0.0
C2853 C 0.17778 0.49446 0.03287 0.0
C2854 C 0.15921 0.48956 0.01357 0.0
C2855 C 0.13914 0.5 0.0124 0.0
H2856 H 0.89206 0.97992 0.23841 0.0
H2857 H 0.91136 0.93746 0.18426 0.0
H2858 H 0.86742 0.94611 0.25107 0.0
H2859 H 0.88658 0.90376 0.19689 0.0
H2860 H 0.82925 0.84863 0.22021 0.0
H2861 H 0.84369 0.88428 0.20331 0.0
H2862 H 0.88346 0.91371 0.27019 0.0
H2863 H 0.86934 0.87818 0.28701 0.0
C2864 C 0.89054 0.96348 0.2288 0.0
C2865 C 0.90391 0.96127 0.21055 0.0
C2866 C 0.87654 0.94416 0.23614 0.0
C2867 C 0.87537 0.92239 0.22509 0.0
C2868 C 0.88714 0.92039 0.20563 0.0
C2869 C 0.9014 0.93966 0.19849 0.0
C2870 C 0.84087 0.86282 0.23133 0.0
C2871 C 0.84832 0.86063 0.25488 0.0
C2872 C 0.84911 0.88314 0.22166 0.0
C2873 C 0.86452 0.9017 0.23551 0.0
C2874 C 0.87131 0.89974 0.25922 0.0
C2875 C 0.86342 0.87934 0.26878 0.0
H2876 H 0.6061 0.05779 0.73903 0.0
H2877 H 0.67078 0.03477 0.73185 0.0
H2878 H 0.62899 0.09719 0.74602 0.0
H2879 H 0.69346 0.07405 0.73815 0.0
H2880 H 0.73188 0.14411 0.77089 0.0
H2881 H 0.70758 0.1054 0.76775 0.0
H2882 H 0.65047 0.12672 0.7261 0.0
H2883 H 0.67426 0.16562 0.73028 0.0
C2884 C 0.62515 0.06113 0.73877 0.0
C2885 C 0.63658 0.04311 0.73485 0.0
C2886 C 0.63828 0.08373 0.74272 0.0
C2887 C 0.66311 0.08882 0.74276 0.0
C2888 C 0.67446 0.07077 0.7387 0.0
C2889 C 0.66138 0.04821 0.73487 0.0
C2890 C 0.71397 0.14065 0.76147 0.0
C2891 C 0.70511 0.15797 0.75071 0.0
C2892 C 0.70014 0.11837 0.75939 0.0
C2893 C 0.67715 0.11285 0.74644 0.0
C2894 C 0.66802 0.13034 0.73631 0.0
C2895 C 0.6818 0.15262 0.73848 0.0
loop_
_geom_bond_atom_site_label_1
_geom_bond_atom_site_label_2
_geom_bond_distance
_geom_bond_site_symmetry_2
_ccdc_geom_bond_type
Zn0 O3 2.031 . S
Zn0 O5 2.049 . S
Zn0 O10 2.067 . S
Zn1 O2 1.962 . S
Zn1 O4 1.986 . S
Zn1 O6 1.996 . S
Zn1 O9 1.943 . S
O2 Zn1 1.962 . S
O2 C7 1.254 . S
O3 Zn0 2.031 . S
O3 C7 1.269 . S
O4 Zn1 1.986 . S
O4 C11 1.262 . S
O5 Zn0 2.049 . S
O5 C13 1.260 . S
O6 Zn1 1.996 . S
O6 C13 1.257 . S
C7 O2 1.254 . S
C7 O3 1.269 . S
C8 O9 1.249 . S
C8 O10 1.270 . S
O9 Zn1 1.943 . S
O9 C8 1.249 . S
O10 Zn0 2.067 . S
O10 C8 1.270 . S
C11 O4 1.262 . S
C11 O12 1.232 . S
O12 C11 1.232 . S
C13 O5 1.260 . S
C13 O6 1.257 . S
Zn14 O17 2.031 . S
Zn14 O19 2.049 . S
Zn14 O24 2.067 . S
Zn15 O16 1.962 . S
Zn15 O18 1.986 . S
Zn15 O20 1.996 . S
Zn15 O23 1.943 . S
O16 Zn15 1.962 . S
O16 C21 1.254 . S
O17 Zn14 2.031 . S
O17 C21 1.269 . S
O18 Zn15 1.986 . S
O18 C25 1.262 . S
O19 Zn14 2.049 . S
O19 C27 1.260 . S
O20 Zn15 1.996 . S
O20 C27 1.257 . S
C21 O16 1.254 . S
C21 O17 1.269 . S
C22 O23 1.249 . S
C22 O24 1.270 . S
O23 Zn15 1.943 . S
O23 C22 1.249 . S
O24 Zn14 2.067 . S
O24 C22 1.270 . S
C25 O18 1.262 . S
C25 O26 1.232 . S
O26 C25 1.232 . S
C27 O19 1.260 . S
C27 O20 1.257 . S
Zn28 O31 2.031 . S
Zn28 O33 2.049 . S
Zn28 O38 2.067 . S
Zn29 O30 1.962 . S
Zn29 O32 1.986 . S
Zn29 O34 1.996 . S
Zn29 O37 1.943 . S
O30 Zn29 1.962 . S
O30 C35 1.254 . S
O31 Zn28 2.031 . S
O31 C35 1.269 . S
O32 Zn29 1.986 . S
O32 C39 1.262 . S
O33 Zn28 2.049 . S
O33 C41 1.260 . S
O34 Zn29 1.996 . S
O34 C41 1.257 . S
C35 O30 1.254 . S
C35 O31 1.269 . S
C36 O37 1.249 . S
C36 O38 1.270 . S
O37 Zn29 1.943 . S
O37 C36 1.249 . S
O38 Zn28 2.067 . S
O38 C36 1.270 . S
C39 O32 1.262 . S
C39 O40 1.232 . S
O40 C39 1.232 . S
C41 O33 1.260 . S
C41 O34 1.257 . S
Zn42 O45 2.031 . S
Zn42 O47 2.049 . S
Zn42 O52 2.067 . S
Zn43 O44 1.962 . S
Zn43 O46 1.986 . S
Zn43 O48 1.996 . S
Zn43 O51 1.943 . S
O44 Zn43 1.962 . S
O44 C49 1.254 . S
O45 Zn42 2.031 . S
O45 C49 1.269 . S
O46 Zn43 1.986 . S
O46 C53 1.262 . S
O47 Zn42 2.049 . S
O47 C55 1.260 . S
O48 Zn43 1.996 . S
O48 C55 1.257 . S
C49 O44 1.254 . S
C49 O45 1.269 . S
C50 O51 1.249 . S
C50 O52 1.270 . S
O51 Zn43 1.943 . S
O51 C50 1.249 . S
O52 Zn42 2.067 . S
O52 C50 1.270 . S
C53 O46 1.262 . S
C53 O54 1.232 . S
O54 C53 1.232 . S
C55 O47 1.260 . S
C55 O48 1.257 . S
Zn56 O59 2.031 . S
Zn56 O61 2.049 . S
Zn56 O66 2.067 . S
Zn57 O58 1.962 . S
Zn57 O60 1.986 . S
Zn57 O62 1.996 . S
Zn57 O65 1.943 . S
O58 Zn57 1.962 . S
O58 C63 1.254 . S
O59 Zn56 2.031 . S
O59 C63 1.269 . S
O60 Zn57 1.986 . S
O60 C67 1.262 . S
O61 Zn56 2.049 . S
O61 C69 1.260 . S
O62 Zn57 1.996 . S
O62 C69 1.257 . S
C63 O58 1.254 . S
C63 O59 1.269 . S
C64 O65 1.249 . S
C64 O66 1.270 . S
O65 Zn57 1.943 . S
O65 C64 1.249 . S
O66 Zn56 2.067 . S
O66 C64 1.270 . S
C67 O60 1.262 . S
C67 O68 1.232 . S
O68 C67 1.232 . S
C69 O61 1.260 . S
C69 O62 1.257 . S
Zn70 O73 2.031 . S
Zn70 O75 2.049 . S
Zn70 O80 2.067 . S
Zn71 O72 1.962 . S
Zn71 O74 1.986 . S
Zn71 O76 1.996 . S
Zn71 O79 1.943 . S
O72 Zn71 1.962 . S
O72 C77 1.254 . S
O73 Zn70 2.031 . S
O73 C77 1.269 . S
O74 Zn71 1.986 . S
O74 C81 1.262 . S
O75 Zn70 2.049 . S
O75 C83 1.260 . S
O76 Zn71 1.996 . S
O76 C83 1.257 . S
C77 O72 1.254 . S
C77 O73 1.269 . S
C78 O79 1.249 . S
C78 O80 1.270 . S
O79 Zn71 1.943 . S
O79 C78 1.249 . S
O80 Zn70 2.067 . S
O80 C78 1.270 . S
C81 O74 1.262 . S
C81 O82 1.232 . S
O82 C81 1.232 . S
C83 O75 1.260 . S
C83 O76 1.257 . S
Zn84 O87 2.031 . S
Zn84 O89 2.049 . S
Zn84 O94 2.067 . S
Zn85 O86 1.962 . S
Zn85 O88 1.986 . S
Zn85 O90 1.996 . S
Zn85 O93 1.943 . S
O86 Zn85 1.962 . S
O86 C91 1.254 . S
O87 Zn84 2.031 . S
O87 C91 1.269 . S
O88 Zn85 1.986 . S
O88 C95 1.262 . S
O89 Zn84 2.049 . S
O89 C97 1.260 . S
O90 Zn85 1.996 . S
O90 C97 1.257 . S
C91 O86 1.254 . S
C91 O87 1.269 . S
C92 O93 1.249 . S
C92 O94 1.270 . S
O93 Zn85 1.943 . S
O93 C92 1.249 . S
O94 Zn84 2.067 . S
O94 C92 1.270 . S
C95 O88 1.262 . S
C95 O96 1.232 . S
O96 C95 1.232 . S
C97 O89 1.260 . S
C97 O90 1.257 . S
Zn98 O101 2.031 . S
Zn98 O103 2.049 . S
Zn98 O108 2.067 . S
Zn99 O100 1.962 . S
Zn99 O102 1.986 . S
Zn99 O104 1.996 . S
Zn99 O107 1.943 1_455 S
O100 Zn99 1.962 . S
O100 C105 1.254 . S
O101 Zn98 2.031 . S
O101 C105 1.269 1_655 S
O102 Zn99 1.986 . S
O102 C109 1.262 . S
O103 Zn98 2.049 . S
O103 C111 1.260 . S
O104 Zn99 1.996 . S
O104 C111 1.257 1_455 S
C105 O100 1.254 . S
C105 O101 1.269 1_455 S
C106 O107 1.249 . S
C106 O108 1.270 . S
O107 Zn99 1.943 1_655 S
O107 C106 1.249 . S
O108 Zn98 2.067 . S
O108 C106 1.270 . S
C109 O102 1.262 . S
C109 O110 1.232 . S
O110 C109 1.232 . S
C111 O103 1.260 . S
C111 O104 1.257 1_655 S
Zn112 O115 2.031 . S
Zn112 O117 2.049 . S
Zn112 O122 2.067 . S
Zn113 O114 1.962 . S
Zn113 O116 1.986 . S
Zn113 O118 1.996 . S
Zn113 O121 1.943 . S
O114 Zn113 1.962 . S
O114 C119 1.254 . S
O115 Zn112 2.031 . S
O115 C119 1.269 . S
O116 Zn113 1.986 . S
O116 C123 1.262 . S
O117 Zn112 2.049 . S
O117 C125 1.260 . S
O118 Zn113 1.996 . S
O118 C125 1.257 . S
C119 O114 1.254 . S
C119 O115 1.269 . S
C120 O121 1.249 . S
C120 O122 1.270 . S
O121 Zn113 1.943 . S
O121 C120 1.249 . S
O122 Zn112 2.067 . S
O122 C120 1.270 . S
C123 O116 1.262 . S
C123 O124 1.232 . S
O124 C123 1.232 . S
C125 O117 1.260 . S
C125 O118 1.257 . S
Zn126 O129 2.031 . S
Zn126 O131 2.049 . S
Zn126 O136 2.067 . S
Zn127 O128 1.962 . S
Zn127 O130 1.986 . S
Zn127 O132 1.996 . S
Zn127 O135 1.943 . S
O128 Zn127 1.962 . S
O128 C133 1.254 . S
O129 Zn126 2.031 . S
O129 C133 1.269 . S
O130 Zn127 1.986 . S
O130 C137 1.262 . S
O131 Zn126 2.049 . S
O131 C139 1.260 . S
O132 Zn127 1.996 . S
O132 C139 1.257 . S
C133 O128 1.254 . S
C133 O129 1.269 . S
C134 O135 1.249 . S
C134 O136 1.270 . S
O135 Zn127 1.943 . S
O135 C134 1.249 . S
O136 Zn126 2.067 . S
O136 C134 1.270 . S
C137 O130 1.262 . S
C137 O138 1.232 . S
O138 C137 1.232 . S
C139 O131 1.260 . S
C139 O132 1.257 . S
Zn140 O143 2.031 . S
Zn140 O145 2.049 . S
Zn140 O150 2.067 . S
Zn141 O142 1.962 . S
Zn141 O144 1.986 . S
Zn141 O146 1.996 . S
Zn141 O149 1.943 . S
O142 Zn141 1.962 . S
O142 C147 1.254 . S
O143 Zn140 2.031 . S
O143 C147 1.269 . S
O144 Zn141 1.986 . S
O144 C151 1.262 . S
O145 Zn140 2.049 . S
O145 C153 1.260 . S
O146 Zn141 1.996 . S
O146 C153 1.257 . S
C147 O142 1.254 . S
C147 O143 1.269 . S
C148 O149 1.249 . S
C148 O150 1.270 . S
O149 Zn141 1.943 . S
O149 C148 1.249 . S
O150 Zn140 2.067 . S
O150 C148 1.270 . S
C151 O144 1.262 . S
C151 O152 1.232 . S
O152 C151 1.232 . S
C153 O145 1.260 . S
C153 O146 1.257 . S
Zn154 O157 2.031 . S
Zn154 O159 2.049 . S
Zn154 O164 2.067 . S
Zn155 O156 1.962 . S
Zn155 O158 1.986 . S
Zn155 O160 1.996 . S
Zn155 O163 1.943 . S
O156 Zn155 1.962 . S
O156 C161 1.254 . S
O157 Zn154 2.031 . S
O157 C161 1.269 . S
O158 Zn155 1.986 . S
O158 C165 1.262 . S
O159 Zn154 2.049 . S
O159 C167 1.260 . S
O160 Zn155 1.996 . S
O160 C167 1.257 . S
C161 O156 1.254 . S
C161 O157 1.269 . S
C162 O163 1.249 . S
C162 O164 1.270 . S
O163 Zn155 1.943 . S
O163 C162 1.249 . S
O164 Zn154 2.067 . S
O164 C162 1.270 . S
C165 O158 1.262 . S
C165 O166 1.232 . S
O166 C165 1.232 . S
C167 O159 1.260 . S
C167 O160 1.257 . S
Zn168 O171 2.031 1_554 S
Zn168 O173 2.049 . S
Zn168 O178 2.067 . S
Zn169 O170 1.962 1_554 S
Zn169 O172 1.986 . S
Zn169 O174 1.996 . S
Zn169 O177 1.943 . S
O170 Zn169 1.962 1_556 S
O170 C175 1.254 . S
O171 Zn168 2.031 1_556 S
O171 C175 1.269 . S
O172 Zn169 1.986 . S
O172 C179 1.262 . S
O173 Zn168 2.049 . S
O173 C181 1.260 . S
O174 Zn169 1.996 . S
O174 C181 1.257 . S
C175 O170 1.254 . S
C175 O171 1.269 . S
C176 O177 1.249 . S
C176 O178 1.270 . S
O177 Zn169 1.943 . S
O177 C176 1.249 . S
O178 Zn168 2.067 . S
O178 C176 1.270 . S
C179 O172 1.262 . S
C179 O180 1.232 . S
O180 C179 1.232 . S
C181 O173 1.260 . S
C181 O174 1.257 . S
Zn182 O185 2.031 1_554 S
Zn182 O187 2.049 . S
Zn182 O192 2.067 . S
Zn183 O184 1.968 . S
Zn183 O186 1.983 1_556 S
Zn183 O188 1.991 1_556 S
Zn183 O191 1.942 . S
O184 Zn183 1.968 . S
O184 C189 1.254 . S
O185 Zn182 2.031 1_556 S
O185 C189 1.269 . S
O186 Zn183 1.983 1_554 S
O186 C193 1.279 . S
O187 Zn182 2.049 . S
O187 C195 1.260 . S
O188 Zn183 1.991 1_554 S
O188 C195 1.257 . S
C189 O184 1.254 . S
C189 O185 1.269 . S
C190 O191 1.249 . S
C190 O192 1.270 1_556 S
O191 Zn183 1.942 . S
O191 C190 1.249 . S
O192 Zn182 2.067 . S
O192 C190 1.270 1_554 S
C193 O186 1.279 . S
C193 O194 1.213 1_554 S
O194 C193 1.213 1_556 S
C195 O187 1.260 . S
C195 O188 1.257 . S
Zn196 O199 2.031 . S
Zn196 O201 2.049 . S
Zn196 O206 2.067 . S
Zn197 O198 1.962 . S
Zn197 O200 1.986 . S
Zn197 O202 1.996 . S
Zn197 O205 1.943 . S
O198 Zn197 1.962 . S
O198 C203 1.254 . S
O199 Zn196 2.031 . S
O199 C203 1.269 . S
O200 Zn197 1.986 . S
O200 C207 1.262 . S
O201 Zn196 2.049 . S
O201 C209 1.260 . S
O202 Zn197 1.996 . S
O202 C209 1.257 . S
C203 O198 1.254 . S
C203 O199 1.269 . S
C204 O205 1.249 . S
C204 O206 1.270 . S
O205 Zn197 1.943 . S
O205 C204 1.249 . S
O206 Zn196 2.067 . S
O206 C204 1.270 . S
C207 O200 1.262 . S
C207 O208 1.232 . S
O208 C207 1.232 . S
C209 O201 1.260 . S
C209 O202 1.257 . S
Zn210 O213 2.031 . S
Zn210 O215 2.049 . S
Zn210 O220 2.067 . S
Zn211 O212 1.962 . S
Zn211 O214 1.986 . S
Zn211 O216 1.996 . S
Zn211 O219 1.943 . S
O212 Zn211 1.962 . S
O212 C217 1.254 . S
O213 Zn210 2.031 . S
O213 C217 1.269 . S
O214 Zn211 1.986 . S
O214 C221 1.262 . S
O215 Zn210 2.049 . S
O215 C223 1.260 . S
O216 Zn211 1.996 . S
O216 C223 1.257 . S
C217 O212 1.254 . S
C217 O213 1.269 . S
C218 O219 1.249 . S
C218 O220 1.270 . S
O219 Zn211 1.943 . S
O219 C218 1.249 . S
O220 Zn210 2.067 . S
O220 C218 1.270 . S
C221 O214 1.262 . S
C221 O222 1.232 . S
O222 C221 1.232 . S
C223 O215 1.260 . S
C223 O216 1.257 . S
Zn224 O227 2.031 . S
Zn224 O229 2.049 . S
Zn224 O234 2.067 . S
Zn225 O226 1.962 . S
Zn225 O228 1.986 . S
Zn225 O230 1.996 . S
Zn225 O233 1.943 1_545 S
O226 Zn225 1.962 . S
O226 C231 1.254 . S
O227 Zn224 2.031 . S
O227 C231 1.269 1_565 S
O228 Zn225 1.986 . S
O228 C235 1.262 . S
O229 Zn224 2.049 . S
O229 C237 1.306 . S
O230 Zn225 1.996 . S
O230 C237 1.235 1_545 S
C231 O226 1.254 . S
C231 O227 1.269 1_545 S
C232 O233 1.249 . S
C232 O234 1.270 . S
O233 Zn225 1.943 1_565 S
O233 C232 1.249 . S
O234 Zn224 2.067 . S
O234 C232 1.270 . S
C235 O228 1.262 . S
C235 O236 1.232 . S
O236 C235 1.232 . S
C237 O229 1.306 . S
C237 O230 1.235 1_565 S
Zn238 O241 2.031 . S
Zn238 O243 2.049 . S
Zn238 O248 2.067 . S
Zn239 O240 1.962 . S
Zn239 O242 1.986 . S
Zn239 O244 1.996 . S
Zn239 O247 1.943 . S
O240 Zn239 1.962 . S
O240 C245 1.254 . S
O241 Zn238 2.031 . S
O241 C245 1.269 . S
O242 Zn239 1.986 . S
O242 C249 1.262 . S
O243 Zn238 2.049 . S
O243 C251 1.260 . S
O244 Zn239 1.996 . S
O244 C251 1.257 . S
C245 O240 1.254 . S
C245 O241 1.269 . S
C246 O247 1.249 . S
C246 O248 1.270 . S
O247 Zn239 1.943 . S
O247 C246 1.249 . S
O248 Zn238 2.067 . S
O248 C246 1.270 . S
C249 O242 1.262 . S
C249 O250 1.232 . S
O250 C249 1.232 . S
C251 O243 1.260 . S
C251 O244 1.257 . S
Zn252 O255 2.031 . S
Zn252 O257 2.049 . S
Zn252 O262 2.067 . S
Zn253 O254 1.962 . S
Zn253 O256 1.986 . S
Zn253 O258 1.996 . S
Zn253 O261 1.943 . S
O254 Zn253 1.962 . S
O254 C259 1.254 . S
O255 Zn252 2.031 . S
O255 C259 1.269 . S
O256 Zn253 1.986 . S
O256 C263 1.262 . S
O257 Zn252 2.049 . S
O257 C265 1.260 . S
O258 Zn253 1.996 . S
O258 C265 1.257 . S
C259 O254 1.254 . S
C259 O255 1.269 . S
C260 O261 1.249 . S
C260 O262 1.270 . S
O261 Zn253 1.943 . S
O261 C260 1.249 . S
O262 Zn252 2.067 . S
O262 C260 1.270 . S
C263 O256 1.262 . S
C263 O264 1.232 . S
O264 C263 1.232 . S
C265 O257 1.260 . S
C265 O258 1.257 . S
Zn266 O269 2.031 . S
Zn266 O271 2.049 . S
Zn266 O276 2.067 . S
Zn267 O268 1.962 . S
Zn267 O270 1.986 . S
Zn267 O272 1.996 . S
Zn267 O275 1.943 1_565 S
O268 Zn267 1.962 . S
O268 C273 1.254 1_565 S
O269 Zn266 2.031 . S
O269 C273 1.269 . S
O270 Zn267 1.986 . S
O270 C277 1.262 . S
O271 Zn266 2.049 . S
O271 C279 1.260 . S
O272 Zn267 1.996 . S
O272 C279 1.257 1_565 S
C273 O268 1.254 1_545 S
C273 O269 1.269 . S
C274 O275 1.249 . S
C274 O276 1.270 . S
O275 Zn267 1.943 1_545 S
O275 C274 1.249 . S
O276 Zn266 2.067 . S
O276 C274 1.270 . S
C277 O270 1.262 . S
C277 O278 1.232 . S
O278 C277 1.232 . S
C279 O271 1.260 . S
C279 O272 1.257 1_545 S
Zn280 O283 2.031 1_554 S
Zn280 O285 2.049 . S
Zn280 O290 2.067 . S
Zn281 O282 1.962 1_554 S
Zn281 O284 1.986 . S
Zn281 O286 1.996 . S
Zn281 O289 1.943 . S
O282 Zn281 1.962 1_556 S
O282 C287 1.254 . S
O283 Zn280 2.031 1_556 S
O283 C287 1.269 . S
O284 Zn281 1.986 . S
O284 C291 1.262 . S
O285 Zn280 2.049 . S
O285 C293 1.260 . S
O286 Zn281 1.996 . S
O286 C293 1.257 . S
C287 O282 1.254 . S
C287 O283 1.269 . S
C288 O289 1.249 . S
C288 O290 1.270 . S
O289 Zn281 1.943 . S
O289 C288 1.249 . S
O290 Zn280 2.067 . S
O290 C288 1.270 . S
C291 O284 1.262 . S
C291 O292 1.232 1_554 S
O292 C291 1.232 1_556 S
C293 O285 1.260 . S
C293 O286 1.257 . S
Zn294 O297 2.031 . S
Zn294 O299 2.049 . S
Zn294 O304 2.067 1_455 S
Zn295 O296 1.977 . S
Zn295 O298 1.971 1_455 S
Zn295 O300 2.021 . S
Zn295 O303 1.928 1_455 S
O296 Zn295 1.977 . S
O296 C301 1.254 . S
O297 Zn294 2.031 . S
O297 C301 1.269 . S
O298 Zn295 1.971 1_655 S
O298 C305 1.262 . S
O299 Zn294 2.049 . S
O299 C307 1.260 . S
O300 Zn295 2.021 . S
O300 C307 1.257 . S
C301 O296 1.254 . S
C301 O297 1.269 . S
C302 O303 1.249 . S
C302 O304 1.270 . S
O303 Zn295 1.928 1_655 S
O303 C302 1.249 . S
O304 Zn294 2.067 1_655 S
O304 C302 1.270 . S
C305 O298 1.262 . S
C305 O306 1.232 . S
O306 C305 1.232 . S
C307 O299 1.260 . S
C307 O300 1.257 . S
Zn308 O311 2.031 . S
Zn308 O313 2.049 . S
Zn308 O318 2.067 . S
Zn309 O310 1.962 . S
Zn309 O312 1.986 . S
Zn309 O314 1.996 . S
Zn309 O317 1.943 . S
O310 Zn309 1.962 . S
O310 C315 1.254 . S
O311 Zn308 2.031 . S
O311 C315 1.269 . S
O312 Zn309 1.986 . S
O312 C319 1.262 . S
O313 Zn308 2.049 . S
O313 C321 1.260 . S
O314 Zn309 1.996 . S
O314 C321 1.257 . S
C315 O310 1.254 . S
C315 O311 1.269 . S
C316 O317 1.249 . S
C316 O318 1.270 . S
O317 Zn309 1.943 . S
O317 C316 1.249 . S
O318 Zn308 2.067 . S
O318 C316 1.270 . S
C319 O312 1.262 . S
C319 O320 1.232 . S
O320 C319 1.232 . S
C321 O313 1.260 . S
C321 O314 1.257 . S
Zn322 O325 2.031 . S
Zn322 O327 2.049 . S
Zn322 O332 2.067 . S
Zn323 O324 1.962 . S
Zn323 O326 1.986 . S
Zn323 O328 1.996 . S
Zn323 O331 1.943 . S
O324 Zn323 1.962 . S
O324 C329 1.254 . S
O325 Zn322 2.031 . S
O325 C329 1.269 . S
O326 Zn323 1.986 . S
O326 C333 1.262 . S
O327 Zn322 2.049 . S
O327 C335 1.260 . S
O328 Zn323 1.996 . S
O328 C335 1.257 . S
C329 O324 1.254 . S
C329 O325 1.269 . S
C330 O331 1.249 . S
C330 O332 1.270 . S
O331 Zn323 1.943 . S
O331 C330 1.249 . S
O332 Zn322 2.067 . S
O332 C330 1.270 . S
C333 O326 1.262 . S
C333 O334 1.232 . S
O334 C333 1.232 . S
C335 O327 1.260 . S
C335 O328 1.257 . S
Tb336 C346 2.825 1_454 S
Tb336 O347 2.347 . S
Tb336 O350 2.366 . S
Tb336 O355 2.418 1_554 S
Tb336 O356 2.384 1_545 S
Tb336 O359 2.479 1_454 S
Tb336 O360 2.471 1_455 S
Eu337 O348 2.418 . S
Eu337 O349 2.384 . S
Eu337 O352 2.479 . S
Eu337 O353 2.471 . S
Eu337 O354 2.347 . S
Eu337 O357 2.366 . S
Eu337 C367 2.825 . S
C338 O354 1.259 1_556 S
C338 O355 1.265 . S
C339 O356 1.255 . S
C339 O357 1.265 1_565 S
C340 C342 1.380 . S
C340 C343 1.368 1_556 S
C340 C346 1.507 . S
C341 C342 1.384 . S
C341 C345 1.387 . S
C341 H368 0.930 . S
C342 C340 1.380 . S
C342 C341 1.384 . S
C342 H369 0.931 . S
C343 C340 1.368 1_554 S
C343 C344 1.389 1_554 S
C343 H370 0.938 . S
C344 C343 1.389 1_556 S
C344 C345 1.391 . S
C344 H371 0.930 1_556 S
C345 C341 1.387 . S
C345 C344 1.391 . S
C346 Tb336 2.825 1_656 S
C346 C340 1.507 . S
C346 O359 1.238 . S
C346 O360 1.247 1_556 S
O347 Tb336 2.347 . S
O347 C351 1.259 . S
O348 Eu337 2.418 . S
O348 C351 1.265 . S
O349 Eu337 2.384 . S
O349 C358 1.255 . S
O350 Tb336 2.366 . S
O350 C358 1.265 . S
C351 O347 1.259 . S
C351 O348 1.265 . S
O352 Eu337 2.479 . S
O352 C367 1.238 . S
O353 Eu337 2.471 . S
O353 C367 1.247 . S
O354 Eu337 2.347 . S
O354 C338 1.259 1_554 S
O355 Tb336 2.418 1_556 S
O355 C338 1.265 . S
O356 Tb336 2.384 1_565 S
O356 C339 1.255 . S
O357 Eu337 2.366 . S
O357 C339 1.265 1_545 S
C358 O349 1.255 . S
C358 O350 1.265 . S
O359 Tb336 2.479 1_656 S
O359 C346 1.238 . S
O360 Tb336 2.471 1_655 S
O360 C346 1.247 1_554 S
C361 C364 1.380 . S
C361 C365 1.374 . S
C361 C367 1.507 . S
C362 C363 1.387 . S
C362 C366 1.391 . S
C363 C362 1.387 . S
C363 C364 1.384 . S
C363 H372 0.930 . S
C364 C361 1.380 . S
C364 C363 1.384 . S
C364 H373 0.931 . S
C365 C361 1.374 . S
C365 C366 1.390 . S
C365 H374 0.930 . S
C366 C362 1.391 . S
C366 C365 1.390 . S
C366 H375 0.930 1_545 S
C367 Eu337 2.825 . S
C367 O352 1.238 . S
C367 O353 1.247 . S
C367 C361 1.507 . S
H368 C341 0.930 . S
H369 C342 0.931 . S
H370 C343 0.938 . S
H371 C344 0.930 1_554 S
H372 C363 0.930 . S
H373 C364 0.931 . S
H374 C365 0.930 . S
H375 C366 0.930 1_565 S
Tb376 C386 2.825 . S
Tb376 O387 2.347 . S
Tb376 O390 2.366 . S
Tb376 O395 2.418 . S
Tb376 O396 2.384 . S
Tb376 O399 2.479 . S
Tb376 O400 2.471 . S
Eu377 O388 2.418 . S
Eu377 O389 2.384 . S
Eu377 O392 2.479 . S
Eu377 O393 2.471 . S
Eu377 O394 2.347 . S
Eu377 O397 2.366 . S
Eu377 C407 2.825 . S
C378 O394 1.259 . S
C378 O395 1.265 . S
C379 O396 1.255 . S
C379 O397 1.265 . S
C380 C382 1.380 . S
C380 C383 1.374 . S
C380 C386 1.507 . S
C381 C382 1.384 . S
C381 C385 1.387 . S
C381 H408 0.930 . S
C382 C380 1.380 . S
C382 C381 1.384 . S
C382 H409 0.931 . S
C383 C380 1.374 . S
C383 C384 1.390 . S
C383 H410 0.930 . S
C384 C383 1.390 . S
C384 C385 1.391 . S
C384 H411 0.930 . S
C385 C381 1.387 . S
C385 C384 1.391 . S
C386 Tb376 2.825 . S
C386 C380 1.507 . S
C386 O399 1.238 . S
C386 O400 1.247 . S
O387 Tb376 2.347 . S
O387 C391 1.259 . S
O388 Eu377 2.418 . S
O388 C391 1.265 . S
O389 Eu377 2.384 . S
O389 C398 1.255 . S
O390 Tb376 2.366 . S
O390 C398 1.265 . S
C391 O387 1.259 . S
C391 O388 1.265 . S
O392 Eu377 2.479 . S
O392 C407 1.238 . S
O393 Eu377 2.471 . S
O393 C407 1.247 . S
O394 Eu377 2.347 . S
O394 C378 1.259 . S
O395 Tb376 2.418 . S
O395 C378 1.265 . S
O396 Tb376 2.384 . S
O396 C379 1.255 . S
O397 Eu377 2.366 . S
O397 C379 1.265 . S
C398 O389 1.255 . S
C398 O390 1.265 . S
O399 Tb376 2.479 . S
O399 C386 1.238 . S
O400 Tb376 2.471 . S
O400 C386 1.247 . S
C401 C404 1.380 . S
C401 C405 1.374 . S
C401 C407 1.507 . S
C402 C403 1.387 . S
C402 C406 1.391 . S
C403 C402 1.387 . S
C403 C404 1.384 . S
C403 H412 0.930 . S
C404 C401 1.380 . S
C404 C403 1.384 . S
C404 H413 0.931 . S
C405 C401 1.374 . S
C405 C406 1.390 . S
C405 H414 0.930 . S
C406 C402 1.391 . S
C406 C405 1.390 . S
C406 H415 0.930 . S
C407 Eu377 2.825 . S
C407 O392 1.238 . S
C407 O393 1.247 . S
C407 C401 1.507 . S
H408 C381 0.930 . S
H409 C382 0.931 . S
H410 C383 0.930 . S
H411 C384 0.930 . S
H412 C403 0.930 . S
H413 C404 0.931 . S
H414 C405 0.930 . S
H415 C406 0.930 . S
Tb416 C426 2.823 . S
Tb416 O427 2.349 1_565 S
Tb416 O430 2.365 . S
Tb416 O435 2.418 . S
Tb416 O436 2.386 1_565 S
Tb416 O439 2.476 . S
Tb416 O440 2.470 . S
Eu417 O428 2.418 . S
Eu417 O429 2.384 . S
Eu417 O432 2.479 . S
Eu417 O433 2.471 . S
Eu417 O434 2.347 . S
Eu417 O437 2.366 . S
Eu417 C447 2.825 . S
C418 O434 1.259 . S
C418 O435 1.265 1_545 S
C419 O436 1.255 . S
C419 O437 1.265 . S
C420 C422 1.380 . S
C420 C423 1.374 . S
C420 C426 1.507 . S
C421 C422 1.384 . S
C421 C425 1.387 . S
C421 H448 0.930 . S
C422 C420 1.380 . S
C422 C421 1.384 . S
C422 H449 0.931 . S
C423 C420 1.374 . S
C423 C424 1.390 . S
C423 H450 0.930 . S
C424 C423 1.390 . S
C424 C425 1.391 . S
C424 H451 0.930 . S
C425 C421 1.387 . S
C425 C424 1.391 . S
C426 Tb416 2.823 . S
C426 C420 1.507 . S
C426 O439 1.238 . S
C426 O440 1.247 . S
O427 Tb416 2.349 1_545 S
O427 C431 1.259 . S
O428 Eu417 2.418 . S
O428 C431 1.265 . S
O429 Eu417 2.384 . S
O429 C438 1.255 . S
O430 Tb416 2.365 . S
O430 C438 1.265 1_565 S
C431 O427 1.259 . S
C431 O428 1.265 . S
O432 Eu417 2.479 . S
O432 C447 1.238 . S
O433 Eu417 2.471 . S
O433 C447 1.247 . S
O434 Eu417 2.347 . S
O434 C418 1.259 . S
O435 Tb416 2.418 . S
O435 C418 1.265 1_565 S
O436 Tb416 2.386 1_545 S
O436 C419 1.255 . S
O437 Eu417 2.366 . S
O437 C419 1.265 . S
C438 O429 1.255 . S
C438 O430 1.265 1_545 S
O439 Tb416 2.476 . S
O439 C426 1.238 . S
O440 Tb416 2.470 . S
O440 C426 1.247 . S
C441 C444 1.380 . S
C441 C445 1.374 . S
C441 C447 1.507 . S
C442 C443 1.387 . S
C442 C446 1.391 . S
C443 C442 1.387 . S
C443 C444 1.384 . S
C443 H452 0.930 . S
C444 C441 1.380 . S
C444 C443 1.384 . S
C444 H453 0.931 . S
C445 C441 1.374 . S
C445 C446 1.390 . S
C445 H454 0.930 . S
C446 C442 1.391 . S
C446 C445 1.390 . S
C446 H455 0.930 . S
C447 Eu417 2.825 . S
C447 O432 1.238 . S
C447 O433 1.247 . S
C447 C441 1.507 . S
H448 C421 0.930 . S
H449 C422 0.931 . S
H450 C423 0.930 . S
H451 C424 0.930 . S
H452 C443 0.930 . S
H453 C444 0.931 . S
H454 C445 0.930 . S
H455 C446 0.930 . S
Tb456 C466 2.825 . S
Tb456 O467 2.347 . S
Tb456 O470 2.366 . S
Tb456 O475 2.418 . S
Tb456 O476 2.384 . S
Tb456 O479 2.479 . S
Tb456 O480 2.471 . S
Eu457 O468 2.418 . S
Eu457 O469 2.384 . S
Eu457 O472 2.479 . S
Eu457 O473 2.471 . S
Eu457 O474 2.347 . S
Eu457 O477 2.366 . S
Eu457 C487 2.825 . S
C458 O474 1.259 . S
C458 O475 1.265 . S
C459 O476 1.255 . S
C459 O477 1.265 . S
C460 C462 1.380 . S
C460 C463 1.374 . S
C460 C466 1.507 . S
C461 C462 1.384 . S
C461 C465 1.387 . S
C461 H488 0.930 . S
C462 C460 1.380 . S
C462 C461 1.384 . S
C462 H489 0.931 . S
C463 C460 1.374 . S
C463 C464 1.390 . S
C463 H490 0.930 . S
C464 C463 1.390 . S
C464 C465 1.391 . S
C464 H491 0.930 . S
C465 C461 1.387 . S
C465 C464 1.391 . S
C466 Tb456 2.825 . S
C466 C460 1.507 . S
C466 O479 1.238 . S
C466 O480 1.247 . S
O467 Tb456 2.347 . S
O467 C471 1.259 . S
O468 Eu457 2.418 . S
O468 C471 1.265 . S
O469 Eu457 2.384 . S
O469 C478 1.255 . S
O470 Tb456 2.366 . S
O470 C478 1.265 . S
C471 O467 1.259 . S
C471 O468 1.265 . S
O472 Eu457 2.479 . S
O472 C487 1.238 . S
O473 Eu457 2.471 . S
O473 C487 1.247 . S
O474 Eu457 2.347 . S
O474 C458 1.259 . S
O475 Tb456 2.418 . S
O475 C458 1.265 . S
O476 Tb456 2.384 . S
O476 C459 1.255 . S
O477 Eu457 2.366 . S
O477 C459 1.265 . S
C478 O469 1.255 . S
C478 O470 1.265 . S
O479 Tb456 2.479 . S
O479 C466 1.238 . S
O480 Tb456 2.471 . S
O480 C466 1.247 . S
C481 C484 1.380 . S
C481 C485 1.374 . S
C481 C487 1.507 . S
C482 C483 1.387 . S
C482 C486 1.391 . S
C483 C482 1.387 . S
C483 C484 1.384 . S
C483 H492 0.930 . S
C484 C481 1.380 . S
C484 C483 1.384 . S
C484 H493 0.931 . S
C485 C481 1.374 . S
C485 C486 1.390 . S
C485 H494 0.930 . S
C486 C482 1.391 . S
C486 C485 1.390 . S
C486 H495 0.930 . S
C487 Eu457 2.825 . S
C487 O472 1.238 . S
C487 O473 1.247 . S
C487 C481 1.507 . S
H488 C461 0.930 . S
H489 C462 0.931 . S
H490 C463 0.930 . S
H491 C464 0.930 . S
H492 C483 0.930 . S
H493 C484 0.931 . S
H494 C485 0.930 . S
H495 C486 0.930 . S
Tb496 C506 2.825 . S
Tb496 O507 2.347 . S
Tb496 O510 2.366 . S
Tb496 O515 2.418 . S
Tb496 O516 2.384 1_545 S
Tb496 O519 2.479 . S
Tb496 O520 2.471 . S
Eu497 O508 2.418 . S
Eu497 O509 2.384 . S
Eu497 O512 2.479 . S
Eu497 O513 2.471 . S
Eu497 O514 2.347 . S
Eu497 O517 2.366 . S
Eu497 C527 2.825 . S
C498 O514 1.259 . S
C498 O515 1.265 . S
C499 O516 1.255 . S
C499 O517 1.265 1_565 S
C500 C502 1.380 . S
C500 C503 1.374 1_455 S
C500 C506 1.507 . S
C501 C502 1.384 . S
C501 C505 1.348 1_455 S
C501 H528 0.930 . S
C502 C500 1.380 . S
C502 C501 1.384 . S
C502 H529 0.931 . S
C503 C500 1.374 1_655 S
C503 C504 1.390 . S
C503 H530 0.930 . S
C504 C503 1.390 . S
C504 C505 1.417 . S
C504 H531 0.930 . S
C505 C501 1.348 1_655 S
C505 C504 1.417 . S
C506 Tb496 2.825 . S
C506 C500 1.507 . S
C506 O519 1.238 . S
C506 O520 1.247 . S
O507 Tb496 2.347 . S
O507 C511 1.259 . S
O508 Eu497 2.418 . S
O508 C511 1.265 . S
O509 Eu497 2.384 . S
O509 C518 1.255 . S
O510 Tb496 2.366 . S
O510 C518 1.265 . S
C511 O507 1.259 . S
C511 O508 1.265 . S
O512 Eu497 2.479 . S
O512 C527 1.238 . S
O513 Eu497 2.471 . S
O513 C527 1.247 . S
O514 Eu497 2.347 . S
O514 C498 1.259 . S
O515 Tb496 2.418 . S
O515 C498 1.265 . S
O516 Tb496 2.384 1_565 S
O516 C499 1.255 . S
O517 Eu497 2.366 . S
O517 C499 1.265 1_545 S
C518 O509 1.255 . S
C518 O510 1.265 . S
O519 Tb496 2.479 . S
O519 C506 1.238 . S
O520 Tb496 2.471 . S
O520 C506 1.247 . S
C521 C524 1.380 . S
C521 C525 1.374 . S
C521 C527 1.507 . S
C522 C523 1.387 . S
C522 C526 1.391 . S
C523 C522 1.387 . S
C523 C524 1.384 . S
C523 H532 0.930 . S
C524 C521 1.380 . S
C524 C523 1.384 . S
C524 H533 0.931 . S
C525 C521 1.374 . S
C525 C526 1.390 . S
C525 H534 0.930 . S
C526 C522 1.391 . S
C526 C525 1.390 . S
C526 H535 0.930 . S
C527 Eu497 2.825 . S
C527 O512 1.238 . S
C527 O513 1.247 . S
C527 C521 1.507 . S
H528 C501 0.930 . S
H529 C502 0.931 . S
H530 C503 0.930 . S
H531 C504 0.930 . S
H532 C523 0.930 . S
H533 C524 0.931 . S
H534 C525 0.930 . S
H535 C526 0.930 . S
Tb536 C546 2.825 . S
Tb536 O547 2.347 . S
Tb536 O550 2.366 . S
Tb536 O555 2.418 . S
Tb536 O556 2.384 . S
Tb536 O559 2.479 . S
Tb536 O560 2.471 . S
Eu537 O548 2.418 . S
Eu537 O549 2.384 . S
Eu537 O552 2.479 . S
Eu537 O553 2.471 . S
Eu537 O554 2.347 . S
Eu537 O557 2.366 . S
Eu537 C567 2.825 . S
C538 O554 1.259 . S
C538 O555 1.265 . S
C539 O556 1.255 . S
C539 O557 1.265 . S
C540 C542 1.380 . S
C540 C543 1.374 . S
C540 C546 1.507 . S
C541 C542 1.384 . S
C541 C545 1.387 . S
C541 H568 0.930 . S
C542 C540 1.380 . S
C542 C541 1.384 . S
C542 H569 0.931 . S
C543 C540 1.374 . S
C543 C544 1.390 . S
C543 H570 0.930 . S
C544 C543 1.390 . S
C544 C545 1.391 . S
C544 H571 0.930 . S
C545 C541 1.387 . S
C545 C544 1.391 . S
C546 Tb536 2.825 . S
C546 C540 1.507 . S
C546 O559 1.238 . S
C546 O560 1.247 . S
O547 Tb536 2.347 . S
O547 C551 1.259 . S
O548 Eu537 2.418 . S
O548 C551 1.265 . S
O549 Eu537 2.384 . S
O549 C558 1.255 . S
O550 Tb536 2.366 . S
O550 C558 1.265 . S
C551 O547 1.259 . S
C551 O548 1.265 . S
O552 Eu537 2.479 . S
O552 C567 1.238 . S
O553 Eu537 2.471 . S
O553 C567 1.247 . S
O554 Eu537 2.347 . S
O554 C538 1.259 . S
O555 Tb536 2.418 . S
O555 C538 1.265 . S
O556 Tb536 2.384 . S
O556 C539 1.255 . S
O557 Eu537 2.366 . S
O557 C539 1.265 . S
C558 O549 1.255 . S
C558 O550 1.265 . S
O559 Tb536 2.479 . S
O559 C546 1.238 . S
O560 Tb536 2.471 . S
O560 C546 1.247 . S
C561 C564 1.380 . S
C561 C565 1.374 . S
C561 C567 1.507 . S
C562 C563 1.387 . S
C562 C566 1.391 . S
C563 C562 1.387 . S
C563 C564 1.384 . S
C563 H572 0.930 . S
C564 C561 1.380 . S
C564 C563 1.384 . S
C564 H573 0.931 . S
C565 C561 1.374 . S
C565 C566 1.390 . S
C565 H574 0.930 . S
C566 C562 1.391 . S
C566 C565 1.390 . S
C566 H575 0.930 . S
C567 Eu537 2.825 . S
C567 O552 1.238 . S
C567 O553 1.247 . S
C567 C561 1.507 . S
H568 C541 0.930 . S
H569 C542 0.931 . S
H570 C543 0.930 . S
H571 C544 0.930 . S
H572 C563 0.930 . S
H573 C564 0.931 . S
H574 C565 0.930 . S
H575 C566 0.930 . S
Tb576 C586 2.825 . S
Tb576 O587 2.347 . S
Tb576 O590 2.366 . S
Tb576 O595 2.418 1_545 S
Tb576 O596 2.384 . S
Tb576 O599 2.479 . S
Tb576 O600 2.471 . S
Eu577 O588 2.418 1_556 S
Eu577 O589 2.384 1_556 S
Eu577 O592 2.479 . S
Eu577 O593 2.471 . S
Eu577 O594 2.347 1_556 S
Eu577 O597 2.366 . S
Eu577 C607 2.825 . S
C578 O594 1.233 1_565 S
C578 O595 1.270 . S
C579 O596 1.255 . S
C579 O597 1.265 1_554 S
C580 C582 1.380 . S
C580 C583 1.374 . S
C580 C586 1.507 . S
C581 C582 1.384 . S
C581 C585 1.387 . S
C581 H608 0.930 1_545 S
C582 C580 1.380 . S
C582 C581 1.384 . S
C582 H609 0.931 1_545 S
C583 C580 1.374 . S
C583 C584 1.390 . S
C583 H610 0.930 . S
C584 C583 1.390 . S
C584 C585 1.391 . S
C584 H611 0.930 . S
C585 C581 1.387 . S
C585 C584 1.391 . S
C586 Tb576 2.825 . S
C586 C580 1.507 . S
C586 O599 1.238 . S
C586 O600 1.247 . S
O587 Tb576 2.347 . S
O587 C591 1.259 . S
O588 Eu577 2.418 1_554 S
O588 C591 1.265 . S
O589 Eu577 2.384 1_554 S
O589 C598 1.255 . S
O590 Tb576 2.366 . S
O590 C598 1.265 . S
C591 O587 1.259 . S
C591 O588 1.265 . S
O592 Eu577 2.479 . S
O592 C607 1.238 . S
O593 Eu577 2.471 . S
O593 C607 1.247 . S
O594 Eu577 2.347 1_554 S
O594 C578 1.233 1_545 S
O595 Tb576 2.418 1_565 S
O595 C578 1.270 . S
O596 Tb576 2.384 . S
O596 C579 1.255 . S
O597 Eu577 2.366 . S
O597 C579 1.265 1_556 S
C598 O589 1.255 . S
C598 O590 1.265 . S
O599 Tb576 2.479 . S
O599 C586 1.238 . S
O600 Tb576 2.471 . S
O600 C586 1.247 . S
C601 C604 1.380 . S
C601 C605 1.374 . S
C601 C607 1.507 . S
C602 C603 1.387 . S
C602 C606 1.391 . S
C603 C602 1.387 . S
C603 C604 1.384 . S
C603 H612 0.930 . S
C604 C601 1.380 . S
C604 C603 1.384 . S
C604 H613 0.931 . S
C605 C601 1.374 . S
C605 C606 1.390 . S
C605 H614 0.930 . S
C606 C602 1.391 . S
C606 C605 1.390 . S
C606 H615 0.930 . S
C607 Eu577 2.825 . S
C607 O592 1.238 . S
C607 O593 1.247 . S
C607 C601 1.507 . S
H608 C581 0.930 1_565 S
H609 C582 0.931 1_565 S
H610 C583 0.930 . S
H611 C584 0.930 . S
H612 C603 0.930 . S
H613 C604 0.931 . S
H614 C605 0.930 . S
H615 C606 0.930 . S
Tb616 C626 2.825 . S
Tb616 O627 2.347 . S
Tb616 O630 2.366 . S
Tb616 O635 2.418 . S
Tb616 O636 2.384 . S
Tb616 O639 2.479 . S
Tb616 O640 2.471 . S
Eu617 O628 2.418 . S
Eu617 O629 2.384 . S
Eu617 O632 2.479 . S
Eu617 O633 2.471 . S
Eu617 O634 2.347 . S
Eu617 O637 2.366 . S
Eu617 C647 2.825 . S
C618 O634 1.259 . S
C618 O635 1.265 . S
C619 O636 1.255 . S
C619 O637 1.265 . S
C620 C622 1.380 . S
C620 C623 1.374 . S
C620 C626 1.507 . S
C621 C622 1.384 . S
C621 C625 1.387 . S
C621 H648 0.930 . S
C622 C620 1.380 . S
C622 C621 1.384 . S
C622 H649 0.931 . S
C623 C620 1.374 . S
C623 C624 1.390 . S
C623 H650 0.930 . S
C624 C623 1.390 . S
C624 C625 1.391 . S
C624 H651 0.930 . S
C625 C621 1.387 . S
C625 C624 1.391 . S
C626 Tb616 2.825 . S
C626 C620 1.507 . S
C626 O639 1.238 . S
C626 O640 1.247 . S
O627 Tb616 2.347 . S
O627 C631 1.259 . S
O628 Eu617 2.418 . S
O628 C631 1.265 . S
O629 Eu617 2.384 . S
O629 C638 1.255 . S
O630 Tb616 2.366 . S
O630 C638 1.265 . S
C631 O627 1.259 . S
C631 O628 1.265 . S
O632 Eu617 2.479 . S
O632 C647 1.238 . S
O633 Eu617 2.471 . S
O633 C647 1.247 . S
O634 Eu617 2.347 . S
O634 C618 1.259 . S
O635 Tb616 2.418 . S
O635 C618 1.265 . S
O636 Tb616 2.384 . S
O636 C619 1.255 . S
O637 Eu617 2.366 . S
O637 C619 1.265 . S
C638 O629 1.255 . S
C638 O630 1.265 . S
O639 Tb616 2.479 . S
O639 C626 1.238 . S
O640 Tb616 2.471 . S
O640 C626 1.247 . S
C641 C644 1.380 . S
C641 C645 1.374 . S
C641 C647 1.507 . S
C642 C643 1.387 . S
C642 C646 1.391 . S
C643 C642 1.387 . S
C643 C644 1.384 . S
C643 H652 0.930 . S
C644 C641 1.380 . S
C644 C643 1.384 . S
C644 H653 0.931 . S
C645 C641 1.374 . S
C645 C646 1.390 . S
C645 H654 0.930 . S
C646 C642 1.391 . S
C646 C645 1.390 . S
C646 H655 0.930 . S
C647 Eu617 2.825 . S
C647 O632 1.238 . S
C647 O633 1.247 . S
C647 C641 1.507 . S
H648 C621 0.930 . S
H649 C622 0.931 . S
H650 C623 0.930 . S
H651 C624 0.930 . S
H652 C643 0.930 . S
H653 C644 0.931 . S
H654 C645 0.930 . S
H655 C646 0.930 . S
Tb656 C666 2.825 . S
Tb656 O667 2.347 1_556 S
Tb656 O670 2.366 . S
Tb656 O675 2.418 . S
Tb656 O676 2.384 1_556 S
Tb656 O679 2.479 . S
Tb656 O680 2.471 . S
Eu657 O668 2.418 . S
Eu657 O669 2.384 . S
Eu657 O672 2.479 . S
Eu657 O673 2.471 . S
Eu657 O674 2.347 . S
Eu657 O677 2.366 . S
Eu657 C687 2.825 . S
C658 O674 1.259 . S
C658 O675 1.265 1_554 S
C659 O676 1.255 . S
C659 O677 1.265 . S
C660 C662 1.380 . S
C660 C663 1.374 . S
C660 C666 1.507 . S
C661 C662 1.384 . S
C661 C665 1.387 . S
C661 H688 0.930 . S
C662 C660 1.380 . S
C662 C661 1.384 . S
C662 H689 0.931 . S
C663 C660 1.374 . S
C663 C664 1.390 . S
C663 H690 0.930 . S
C664 C663 1.390 . S
C664 C665 1.391 . S
C664 H691 0.930 . S
C665 C661 1.387 . S
C665 C664 1.391 . S
C666 Tb656 2.825 . S
C666 C660 1.507 . S
C666 O679 1.238 . S
C666 O680 1.247 . S
O667 Tb656 2.347 1_554 S
O667 C671 1.259 . S
O668 Eu657 2.418 . S
O668 C671 1.265 . S
O669 Eu657 2.384 . S
O669 C678 1.255 1_554 S
O670 Tb656 2.366 . S
O670 C678 1.265 . S
C671 O667 1.259 . S
C671 O668 1.265 . S
O672 Eu657 2.479 . S
O672 C687 1.238 . S
O673 Eu657 2.471 . S
O673 C687 1.247 . S
O674 Eu657 2.347 . S
O674 C658 1.259 . S
O675 Tb656 2.418 . S
O675 C658 1.265 1_556 S
O676 Tb656 2.384 1_554 S
O676 C659 1.255 . S
O677 Eu657 2.366 . S
O677 C659 1.265 . S
C678 O669 1.255 1_556 S
C678 O670 1.265 . S
O679 Tb656 2.479 . S
O679 C666 1.238 . S
O680 Tb656 2.471 . S
O680 C666 1.247 . S
C681 C684 1.380 . S
C681 C685 1.374 . S
C681 C687 1.507 . S
C682 C683 1.387 . S
C682 C686 1.391 . S
C683 C682 1.387 . S
C683 C684 1.384 . S
C683 H692 0.930 . S
C684 C681 1.380 . S
C684 C683 1.384 . S
C684 H693 0.931 . S
C685 C681 1.374 . S
C685 C686 1.390 . S
C685 H694 0.930 . S
C686 C682 1.391 . S
C686 C685 1.390 . S
C686 H695 0.930 . S
C687 Eu657 2.825 . S
C687 O672 1.238 . S
C687 O673 1.247 . S
C687 C681 1.507 . S
H688 C661 0.930 . S
H689 C662 0.931 . S
H690 C663 0.930 . S
H691 C664 0.930 . S
H692 C683 0.930 . S
H693 C684 0.931 . S
H694 C685 0.930 . S
H695 C686 0.930 . S
Tb696 C706 2.825 . S
Tb696 O707 2.347 . S
Tb696 O710 2.366 . S
Tb696 O715 2.418 . S
Tb696 O716 2.384 . S
Tb696 O719 2.479 . S
Tb696 O720 2.471 . S
Eu697 O708 2.418 . S
Eu697 O709 2.384 . S
Eu697 O712 2.479 . S
Eu697 O713 2.471 . S
Eu697 O714 2.347 . S
Eu697 O717 2.366 . S
Eu697 C727 2.825 . S
C698 O714 1.259 . S
C698 O715 1.265 . S
C699 O716 1.255 . S
C699 O717 1.265 . S
C700 C702 1.380 . S
C700 C703 1.374 . S
C700 C706 1.507 . S
C701 C702 1.384 . S
C701 C705 1.387 . S
C701 H728 0.930 . S
C702 C700 1.380 . S
C702 C701 1.384 . S
C702 H729 0.931 . S
C703 C700 1.374 . S
C703 C704 1.390 . S
C703 H730 0.930 . S
C704 C703 1.390 . S
C704 C705 1.391 . S
C704 H731 0.930 . S
C705 C701 1.387 . S
C705 C704 1.391 . S
C706 Tb696 2.825 . S
C706 C700 1.507 . S
C706 O719 1.238 . S
C706 O720 1.247 . S
O707 Tb696 2.347 . S
O707 C711 1.259 . S
O708 Eu697 2.418 . S
O708 C711 1.265 . S
O709 Eu697 2.384 . S
O709 C718 1.255 . S
O710 Tb696 2.366 . S
O710 C718 1.265 . S
C711 O707 1.259 . S
C711 O708 1.265 . S
O712 Eu697 2.479 . S
O712 C727 1.238 . S
O713 Eu697 2.471 . S
O713 C727 1.247 . S
O714 Eu697 2.347 . S
O714 C698 1.259 . S
O715 Tb696 2.418 . S
O715 C698 1.265 . S
O716 Tb696 2.384 . S
O716 C699 1.255 . S
O717 Eu697 2.366 . S
O717 C699 1.265 . S
C718 O709 1.255 . S
C718 O710 1.265 . S
O719 Tb696 2.479 . S
O719 C706 1.238 . S
O720 Tb696 2.471 . S
O720 C706 1.247 . S
C721 C724 1.380 . S
C721 C725 1.374 . S
C721 C727 1.507 . S
C722 C723 1.387 . S
C722 C726 1.391 . S
C723 C722 1.387 . S
C723 C724 1.384 . S
C723 H732 0.930 . S
C724 C721 1.380 . S
C724 C723 1.384 . S
C724 H733 0.931 . S
C725 C721 1.374 . S
C725 C726 1.390 . S
C725 H734 0.930 . S
C726 C722 1.391 . S
C726 C725 1.390 . S
C726 H735 0.930 . S
C727 Eu697 2.825 . S
C727 O712 1.238 . S
C727 O713 1.247 . S
C727 C721 1.507 . S
H728 C701 0.930 . S
H729 C702 0.931 . S
H730 C703 0.930 . S
H731 C704 0.930 . S
H732 C723 0.930 . S
H733 C724 0.931 . S
H734 C725 0.930 . S
H735 C726 0.930 . S
Tb736 C746 2.825 . S
Tb736 O747 2.347 . S
Tb736 O750 2.366 . S
Tb736 O755 2.418 . S
Tb736 O756 2.384 . S
Tb736 O759 2.479 . S
Tb736 O760 2.471 . S
Eu737 O748 2.418 . S
Eu737 O749 2.384 . S
Eu737 O752 2.479 . S
Eu737 O753 2.471 . S
Eu737 O754 2.347 . S
Eu737 O757 2.366 . S
Eu737 C767 2.825 . S
C738 O754 1.259 . S
C738 O755 1.265 . S
C739 O756 1.255 . S
C739 O757 1.265 . S
C740 C742 1.380 . S
C740 C743 1.374 . S
C740 C746 1.507 . S
C741 C742 1.384 . S
C741 C745 1.387 . S
C741 H768 0.930 . S
C742 C740 1.380 . S
C742 C741 1.384 . S
C742 H769 0.931 . S
C743 C740 1.374 . S
C743 C744 1.390 . S
C743 H770 0.930 . S
C744 C743 1.390 . S
C744 C745 1.391 . S
C744 H771 0.930 . S
C745 C741 1.387 . S
C745 C744 1.391 . S
C746 Tb736 2.825 . S
C746 C740 1.507 . S
C746 O759 1.238 . S
C746 O760 1.247 . S
O747 Tb736 2.347 . S
O747 C751 1.259 . S
O748 Eu737 2.418 . S
O748 C751 1.265 . S
O749 Eu737 2.384 . S
O749 C758 1.255 . S
O750 Tb736 2.366 . S
O750 C758 1.265 . S
C751 O747 1.259 . S
C751 O748 1.265 . S
O752 Eu737 2.479 . S
O752 C767 1.238 . S
O753 Eu737 2.471 . S
O753 C767 1.247 . S
O754 Eu737 2.347 . S
O754 C738 1.259 . S
O755 Tb736 2.418 . S
O755 C738 1.265 . S
O756 Tb736 2.384 . S
O756 C739 1.255 . S
O757 Eu737 2.366 . S
O757 C739 1.265 . S
C758 O749 1.255 . S
C758 O750 1.265 . S
O759 Tb736 2.479 . S
O759 C746 1.238 . S
O760 Tb736 2.471 . S
O760 C746 1.247 . S
C761 C764 1.380 . S
C761 C765 1.374 . S
C761 C767 1.507 . S
C762 C763 1.387 . S
C762 C766 1.391 . S
C763 C762 1.387 . S
C763 C764 1.384 . S
C763 H772 0.930 . S
C764 C761 1.380 . S
C764 C763 1.384 . S
C764 H773 0.931 . S
C765 C761 1.374 . S
C765 C766 1.390 . S
C765 H774 0.930 . S
C766 C762 1.391 . S
C766 C765 1.390 . S
C766 H775 0.930 . S
C767 Eu737 2.825 . S
C767 O752 1.238 . S
C767 O753 1.247 . S
C767 C761 1.507 . S
H768 C741 0.930 . S
H769 C742 0.931 . S
H770 C743 0.930 . S
H771 C744 0.930 . S
H772 C763 0.930 . S
H773 C764 0.931 . S
H774 C765 0.930 . S
H775 C766 0.930 . S
Tb776 C786 2.825 . S
Tb776 O787 2.347 . S
Tb776 O790 2.366 . S
Tb776 O795 2.418 . S
Tb776 O796 2.384 . S
Tb776 O799 2.479 . S
Tb776 O800 2.471 . S
Eu777 O788 2.418 . S
Eu777 O789 2.384 . S
Eu777 O792 2.479 . S
Eu777 O793 2.471 . S
Eu777 O794 2.347 . S
Eu777 O797 2.366 . S
Eu777 C807 2.825 . S
C778 O794 1.259 . S
C778 O795 1.265 . S
C779 O796 1.255 . S
C779 O797 1.265 . S
C780 C782 1.380 . S
C780 C783 1.374 . S
C780 C786 1.507 . S
C781 C782 1.384 . S
C781 C785 1.387 . S
C781 H808 0.930 . S
C782 C780 1.380 . S
C782 C781 1.384 . S
C782 H809 0.931 . S
C783 C780 1.374 . S
C783 C784 1.390 . S
C783 H810 0.930 . S
C784 C783 1.390 . S
C784 C785 1.391 . S
C784 H811 0.930 . S
C785 C781 1.387 . S
C785 C784 1.391 . S
C786 Tb776 2.825 . S
C786 C780 1.507 . S
C786 O799 1.238 . S
C786 O800 1.247 . S
O787 Tb776 2.347 . S
O787 C791 1.259 . S
O788 Eu777 2.418 . S
O788 C791 1.265 . S
O789 Eu777 2.384 . S
O789 C798 1.255 . S
O790 Tb776 2.366 . S
O790 C798 1.265 . S
C791 O787 1.259 . S
C791 O788 1.265 . S
O792 Eu777 2.479 . S
O792 C807 1.238 . S
O793 Eu777 2.471 . S
O793 C807 1.247 . S
O794 Eu777 2.347 . S
O794 C778 1.259 . S
O795 Tb776 2.418 . S
O795 C778 1.265 . S
O796 Tb776 2.384 . S
O796 C779 1.255 . S
O797 Eu777 2.366 . S
O797 C779 1.265 . S
C798 O789 1.255 . S
C798 O790 1.265 . S
O799 Tb776 2.479 . S
O799 C786 1.238 . S
O800 Tb776 2.471 . S
O800 C786 1.247 . S
C801 C804 1.380 . S
C801 C805 1.374 . S
C801 C807 1.507 . S
C802 C803 1.387 . S
C802 C806 1.391 . S
C803 C802 1.387 . S
C803 C804 1.384 . S
C803 H812 0.930 . S
C804 C801 1.380 . S
C804 C803 1.384 . S
C804 H813 0.931 . S
C805 C801 1.374 . S
C805 C806 1.390 . S
C805 H814 0.930 . S
C806 C802 1.391 . S
C806 C805 1.390 . S
C806 H815 0.930 . S
C807 Eu777 2.825 . S
C807 O792 1.238 . S
C807 O793 1.247 . S
C807 C801 1.507 . S
H808 C781 0.930 . S
H809 C782 0.931 . S
H810 C783 0.930 . S
H811 C784 0.930 . S
H812 C803 0.930 . S
H813 C804 0.931 . S
H814 C805 0.930 . S
H815 C806 0.930 . S
Tb816 C826 2.825 . S
Tb816 O827 2.347 . S
Tb816 O830 2.366 . S
Tb816 O835 2.418 . S
Tb816 O836 2.384 . S
Tb816 O839 2.479 . S
Tb816 O840 2.471 . S
Eu817 O828 2.418 . S
Eu817 O829 2.384 . S
Eu817 O832 2.479 . S
Eu817 O833 2.471 . S
Eu817 O834 2.347 . S
Eu817 O837 2.366 . S
Eu817 C847 2.825 . S
C818 O834 1.259 . S
C818 O835 1.265 . S
C819 O836 1.255 . S
C819 O837 1.265 . S
C820 C822 1.380 . S
C820 C823 1.374 . S
C820 C826 1.507 . S
C821 C822 1.384 . S
C821 C825 1.387 . S
C821 H848 0.930 . S
C822 C820 1.380 . S
C822 C821 1.384 . S
C822 H849 0.931 . S
C823 C820 1.374 . S
C823 C824 1.390 . S
C823 H850 0.930 . S
C824 C823 1.390 . S
C824 C825 1.391 . S
C824 H851 0.930 . S
C825 C821 1.387 . S
C825 C824 1.391 . S
C826 Tb816 2.825 . S
C826 C820 1.507 . S
C826 O839 1.238 . S
C826 O840 1.247 . S
O827 Tb816 2.347 . S
O827 C831 1.259 . S
O828 Eu817 2.418 . S
O828 C831 1.265 . S
O829 Eu817 2.384 . S
O829 C838 1.255 . S
O830 Tb816 2.366 . S
O830 C838 1.265 . S
C831 O827 1.259 . S
C831 O828 1.265 . S
O832 Eu817 2.479 . S
O832 C847 1.238 . S
O833 Eu817 2.471 . S
O833 C847 1.247 . S
O834 Eu817 2.347 . S
O834 C818 1.259 . S
O835 Tb816 2.418 . S
O835 C818 1.265 . S
O836 Tb816 2.384 . S
O836 C819 1.255 . S
O837 Eu817 2.366 . S
O837 C819 1.265 . S
C838 O829 1.255 . S
C838 O830 1.265 . S
O839 Tb816 2.479 . S
O839 C826 1.238 . S
O840 Tb816 2.471 . S
O840 C826 1.247 . S
C841 C844 1.380 . S
C841 C845 1.374 . S
C841 C847 1.507 . S
C842 C843 1.387 . S
C842 C846 1.391 . S
C843 C842 1.387 . S
C843 C844 1.384 . S
C843 H852 0.930 . S
C844 C841 1.380 . S
C844 C843 1.384 . S
C844 H853 0.931 . S
C845 C841 1.374 . S
C845 C846 1.390 . S
C845 H854 0.930 . S
C846 C842 1.391 . S
C846 C845 1.390 . S
C846 H855 0.930 . S
C847 Eu817 2.825 . S
C847 O832 1.238 . S
C847 O833 1.247 . S
C847 C841 1.507 . S
H848 C821 0.930 . S
H849 C822 0.931 . S
H850 C823 0.930 . S
H851 C824 0.930 . S
H852 C843 0.930 . S
H853 C844 0.931 . S
H854 C845 0.930 . S
H855 C846 0.930 . S
Tb856 C866 2.825 . S
Tb856 O867 2.347 . S
Tb856 O870 2.366 . S
Tb856 O875 2.418 . S
Tb856 O876 2.384 . S
Tb856 O879 2.479 . S
Tb856 O880 2.471 . S
Eu857 O868 2.418 . S
Eu857 O869 2.384 . S
Eu857 O872 2.479 . S
Eu857 O873 2.471 . S
Eu857 O874 2.347 . S
Eu857 O877 2.366 . S
Eu857 C887 2.825 . S
C858 O874 1.259 . S
C858 O875 1.265 . S
C859 O876 1.255 . S
C859 O877 1.265 . S
C860 C862 1.380 . S
C860 C863 1.374 . S
C860 C866 1.507 . S
C861 C862 1.384 . S
C861 C865 1.387 . S
C861 H888 0.930 . S
C862 C860 1.380 . S
C862 C861 1.384 . S
C862 H889 0.931 . S
C863 C860 1.374 . S
C863 C864 1.390 . S
C863 H890 0.930 . S
C864 C863 1.390 . S
C864 C865 1.391 . S
C864 H891 0.930 . S
C865 C861 1.387 . S
C865 C864 1.391 . S
C866 Tb856 2.825 . S
C866 C860 1.507 . S
C866 O879 1.238 . S
C866 O880 1.247 . S
O867 Tb856 2.347 . S
O867 C871 1.259 . S
O868 Eu857 2.418 . S
O868 C871 1.265 . S
O869 Eu857 2.384 . S
O869 C878 1.255 . S
O870 Tb856 2.366 . S
O870 C878 1.265 . S
C871 O867 1.259 . S
C871 O868 1.265 . S
O872 Eu857 2.479 . S
O872 C887 1.238 . S
O873 Eu857 2.471 . S
O873 C887 1.247 . S
O874 Eu857 2.347 . S
O874 C858 1.259 . S
O875 Tb856 2.418 . S
O875 C858 1.265 . S
O876 Tb856 2.384 . S
O876 C859 1.255 . S
O877 Eu857 2.366 . S
O877 C859 1.265 . S
C878 O869 1.255 . S
C878 O870 1.265 . S
O879 Tb856 2.479 . S
O879 C866 1.238 . S
O880 Tb856 2.471 . S
O880 C866 1.247 . S
C881 C884 1.380 . S
C881 C885 1.374 . S
C881 C887 1.507 . S
C882 C883 1.387 . S
C882 C886 1.391 . S
C883 C882 1.387 . S
C883 C884 1.384 . S
C883 H892 0.930 . S
C884 C881 1.380 . S
C884 C883 1.384 . S
C884 H893 0.931 . S
C885 C881 1.374 . S
C885 C886 1.390 . S
C885 H894 0.930 . S
C886 C882 1.391 . S
C886 C885 1.390 . S
C886 H895 0.930 . S
C887 Eu857 2.825 . S
C887 O872 1.238 . S
C887 O873 1.247 . S
C887 C881 1.507 . S
H888 C861 0.930 . S
H889 C862 0.931 . S
H890 C863 0.930 . S
H891 C864 0.930 . S
H892 C883 0.930 . S
H893 C884 0.931 . S
H894 C885 0.930 . S
H895 C886 0.930 . S
Tb896 C906 2.825 . S
Tb896 O907 2.347 . S
Tb896 O910 2.366 . S
Tb896 O915 2.418 . S
Tb896 O916 2.384 . S
Tb896 O919 2.479 . S
Tb896 O920 2.471 . S
Eu897 O908 2.418 . S
Eu897 O909 2.384 . S
Eu897 O912 2.479 . S
Eu897 O913 2.471 . S
Eu897 O914 2.347 . S
Eu897 O917 2.366 . S
Eu897 C927 2.825 . S
C898 O914 1.259 . S
C898 O915 1.265 . S
C899 O916 1.255 . S
C899 O917 1.265 . S
C900 C902 1.380 . S
C900 C903 1.374 . S
C900 C906 1.507 . S
C901 C902 1.384 . S
C901 C905 1.387 . S
C901 H928 0.930 . S
C902 C900 1.380 . S
C902 C901 1.384 . S
C902 H929 0.931 . S
C903 C900 1.374 . S
C903 C904 1.390 . S
C903 H930 0.930 . S
C904 C903 1.390 . S
C904 C905 1.391 . S
C904 H931 0.930 . S
C905 C901 1.387 . S
C905 C904 1.391 . S
C906 Tb896 2.825 . S
C906 C900 1.507 . S
C906 O919 1.238 . S
C906 O920 1.247 . S
O907 Tb896 2.347 . S
O907 C911 1.259 . S
O908 Eu897 2.418 . S
O908 C911 1.265 . S
O909 Eu897 2.384 . S
O909 C918 1.255 . S
O910 Tb896 2.366 . S
O910 C918 1.265 . S
C911 O907 1.259 . S
C911 O908 1.265 . S
O912 Eu897 2.479 . S
O912 C927 1.238 . S
O913 Eu897 2.471 . S
O913 C927 1.247 . S
O914 Eu897 2.347 . S
O914 C898 1.259 . S
O915 Tb896 2.418 . S
O915 C898 1.265 . S
O916 Tb896 2.384 . S
O916 C899 1.255 . S
O917 Eu897 2.366 . S
O917 C899 1.265 . S
C918 O909 1.255 . S
C918 O910 1.265 . S
O919 Tb896 2.479 . S
O919 C906 1.238 . S
O920 Tb896 2.471 . S
O920 C906 1.247 . S
C921 C924 1.380 . S
C921 C925 1.374 . S
C921 C927 1.507 . S
C922 C923 1.387 . S
C922 C926 1.391 . S
C923 C922 1.387 . S
C923 C924 1.384 . S
C923 H932 0.930 . S
C924 C921 1.380 . S
C924 C923 1.384 . S
C924 H933 0.931 . S
C925 C921 1.374 . S
C925 C926 1.390 . S
C925 H934 0.930 . S
C926 C922 1.391 . S
C926 C925 1.390 . S
C926 H935 0.930 . S
C927 Eu897 2.825 . S
C927 O912 1.238 . S
C927 O913 1.247 . S
C927 C921 1.507 . S
H928 C901 0.930 . S
H929 C902 0.931 . S
H930 C903 0.930 . S
H931 C904 0.930 . S
H932 C923 0.930 . S
H933 C924 0.931 . S
H934 C925 0.930 . S
H935 C926 0.930 . S
Tb936 C946 2.825 1_554 S
Tb936 O947 2.347 1_554 S
Tb936 O950 2.366 . S
Tb936 O955 2.418 . S
Tb936 O956 2.384 . S
Tb936 O959 2.479 . S
Tb936 O960 2.471 1_554 S
Eu937 O948 2.418 1_554 S
Eu937 O949 2.384 . S
Eu937 O952 2.479 . S
Eu937 O953 2.471 . S
Eu937 O954 2.347 . S
Eu937 O957 2.366 . S
Eu937 C967 2.825 . S
C938 O954 1.259 . S
C938 O955 1.265 . S
C939 O956 1.255 . S
C939 O957 1.265 . S
C940 C942 1.380 . S
C940 C943 1.374 . S
C940 C946 1.507 . S
C941 C942 1.384 . S
C941 C945 1.387 . S
C941 H968 0.930 . S
C942 C940 1.380 . S
C942 C941 1.384 . S
C942 H969 0.931 1_556 S
C943 C940 1.374 . S
C943 C944 1.390 . S
C943 H970 0.930 . S
C944 C943 1.390 . S
C944 C945 1.391 . S
C944 H971 0.930 . S
C945 C941 1.387 . S
C945 C944 1.391 . S
C946 Tb936 2.825 1_556 S
C946 C940 1.507 . S
C946 O959 1.238 1_556 S
C946 O960 1.247 . S
O947 Tb936 2.347 1_556 S
O947 C951 1.259 . S
O948 Eu937 2.418 1_556 S
O948 C951 1.265 . S
O949 Eu937 2.384 . S
O949 C958 1.255 . S
O950 Tb936 2.366 . S
O950 C958 1.265 . S
C951 O947 1.259 . S
C951 O948 1.265 . S
O952 Eu937 2.479 . S
O952 C967 1.238 . S
O953 Eu937 2.471 . S
O953 C967 1.247 . S
O954 Eu937 2.347 . S
O954 C938 1.259 . S
O955 Tb936 2.418 . S
O955 C938 1.265 . S
O956 Tb936 2.384 . S
O956 C939 1.255 . S
O957 Eu937 2.366 . S
O957 C939 1.265 . S
C958 O949 1.255 . S
C958 O950 1.265 . S
O959 Tb936 2.479 . S
O959 C946 1.238 1_554 S
O960 Tb936 2.471 1_556 S
O960 C946 1.247 . S
C961 C964 1.380 . S
C961 C965 1.374 . S
C961 C967 1.507 . S
C962 C963 1.387 . S
C962 C966 1.391 . S
C963 C962 1.387 . S
C963 C964 1.384 . S
C963 H972 0.930 . S
C964 C961 1.380 . S
C964 C963 1.384 . S
C964 H973 0.931 . S
C965 C961 1.374 . S
C965 C966 1.390 . S
C965 H974 0.930 . S
C966 C962 1.391 . S
C966 C965 1.390 . S
C966 H975 0.930 . S
C967 Eu937 2.825 . S
C967 O952 1.238 . S
C967 O953 1.247 . S
C967 C961 1.507 . S
H968 C941 0.930 . S
H969 C942 0.931 1_554 S
H970 C943 0.930 . S
H971 C944 0.930 . S
H972 C963 0.930 . S
H973 C964 0.931 . S
H974 C965 0.930 . S
H975 C966 0.930 . S
H976 C984 0.950 . S
H977 C989 0.950 . S
H978 C986 0.950 . S
H979 C988 0.950 . S
H980 C990 0.950 . S
H981 C992 0.950 1_655 S
H982 C994 0.950 . S
H983 C995 0.942 1_554 S
C984 H976 0.950 . S
C984 C985 1.386 . S
C984 C986 1.391 . S
C985 C984 1.386 . S
C985 C989 1.393 1_455 S
C986 H978 0.950 . S
C986 C984 1.391 . S
C986 C987 1.400 . S
C987 C986 1.400 . S
C987 C988 1.398 1_455 S
C987 C993 1.491 . S
C988 H979 0.950 . S
C988 C987 1.398 1_655 S
C988 C989 1.391 . S
C989 H977 0.950 . S
C989 C985 1.393 1_655 S
C989 C988 1.391 . S
C990 H980 0.950 . S
C990 C991 1.386 1_556 S
C990 C992 1.391 . S
C991 C990 1.386 1_554 S
C991 C995 1.393 1_554 S
C992 H981 0.950 1_455 S
C992 C990 1.391 . S
C992 C993 1.400 . S
C993 C987 1.491 . S
C993 C992 1.400 . S
C993 C994 1.398 . S
C994 H982 0.950 . S
C994 C993 1.398 . S
C994 C995 1.391 . S
C995 H983 0.942 1_556 S
C995 C991 1.393 1_556 S
C995 C994 1.391 . S
H996 C1004 0.950 . S
H997 C1009 0.950 . S
H998 C1006 0.950 . S
H999 C1008 0.950 . S
H1000 C1010 0.950 . S
H1001 C1012 0.950 . S
H1002 C1014 0.950 . S
H1003 C1015 0.950 . S
C1004 H996 0.950 . S
C1004 C1005 1.386 . S
C1004 C1006 1.391 . S
C1005 C1004 1.386 . S
C1005 C1009 1.393 . S
C1006 H998 0.950 . S
C1006 C1004 1.391 . S
C1006 C1007 1.400 . S
C1007 C1006 1.400 . S
C1007 C1008 1.398 . S
C1007 C1013 1.491 . S
C1008 H999 0.950 . S
C1008 C1007 1.398 . S
C1008 C1009 1.391 . S
C1009 H997 0.950 . S
C1009 C1005 1.393 . S
C1009 C1008 1.391 . S
C1010 H1000 0.950 . S
C1010 C1011 1.386 . S
C1010 C1012 1.391 . S
C1011 C1010 1.386 . S
C1011 C1015 1.393 . S
C1012 H1001 0.950 . S
C1012 C1010 1.391 . S
C1012 C1013 1.400 . S
C1013 C1007 1.491 . S
C1013 C1012 1.400 . S
C1013 C1014 1.398 . S
C1014 H1002 0.950 . S
C1014 C1013 1.398 . S
C1014 C1015 1.391 . S
C1015 H1003 0.950 . S
C1015 C1011 1.393 . S
C1015 C1014 1.391 . S
H1016 C1024 0.950 . S
H1017 C1029 0.950 . S
H1018 C1026 0.950 . S
H1019 C1028 0.950 . S
H1020 C1030 0.950 . S
H1021 C1032 0.950 . S
H1022 C1034 0.950 . S
H1023 C1035 0.950 . S
C1024 H1016 0.950 . S
C1024 C1025 1.386 . S
C1024 C1026 1.391 . S
C1025 C1024 1.386 . S
C1025 C1029 1.393 . S
C1026 H1018 0.950 . S
C1026 C1024 1.391 . S
C1026 C1027 1.400 . S
C1027 C1026 1.400 . S
C1027 C1028 1.398 . S
C1027 C1033 1.491 . S
C1028 H1019 0.950 . S
C1028 C1027 1.398 . S
C1028 C1029 1.391 . S
C1029 H1017 0.950 . S
C1029 C1025 1.393 . S
C1029 C1028 1.391 . S
C1030 H1020 0.950 . S
C1030 C1031 1.386 . S
C1030 C1032 1.391 . S
C1031 C1030 1.386 . S
C1031 C1035 1.393 . S
C1032 H1021 0.950 . S
C1032 C1030 1.391 . S
C1032 C1033 1.400 . S
C1033 C1027 1.491 . S
C1033 C1032 1.400 . S
C1033 C1034 1.398 . S
C1034 H1022 0.950 . S
C1034 C1033 1.398 . S
C1034 C1035 1.391 . S
C1035 H1023 0.950 . S
C1035 C1031 1.393 . S
C1035 C1034 1.391 . S
H1036 C1044 0.950 . S
H1037 C1049 0.950 . S
H1038 C1046 0.950 . S
H1039 C1048 0.950 . S
H1040 C1050 0.950 . S
H1041 C1052 0.950 . S
H1042 C1054 0.950 . S
H1043 C1055 0.950 . S
C1044 H1036 0.950 . S
C1044 C1045 1.386 . S
C1044 C1046 1.391 . S
C1045 C1044 1.386 . S
C1045 C1049 1.393 . S
C1046 H1038 0.950 . S
C1046 C1044 1.391 . S
C1046 C1047 1.400 . S
C1047 C1046 1.400 . S
C1047 C1048 1.398 . S
C1047 C1053 1.491 . S
C1048 H1039 0.950 . S
C1048 C1047 1.398 . S
C1048 C1049 1.391 . S
C1049 H1037 0.950 . S
C1049 C1045 1.393 . S
C1049 C1048 1.391 . S
C1050 H1040 0.950 . S
C1050 C1051 1.386 . S
C1050 C1052 1.391 . S
C1051 C1050 1.386 . S
C1051 C1055 1.393 . S
C1052 H1041 0.950 . S
C1052 C1050 1.391 . S
C1052 C1053 1.400 . S
C1053 C1047 1.491 . S
C1053 C1052 1.400 . S
C1053 C1054 1.398 . S
C1054 H1042 0.950 . S
C1054 C1053 1.398 . S
C1054 C1055 1.391 . S
C1055 H1043 0.950 . S
C1055 C1051 1.393 . S
C1055 C1054 1.391 . S
H1056 C1064 0.950 . S
H1057 C1069 0.950 . S
H1058 C1066 0.950 . S
H1059 C1068 0.950 . S
H1060 C1070 0.950 . S
H1061 C1072 0.950 . S
H1062 C1074 0.950 . S
H1063 C1075 0.950 . S
C1064 H1056 0.950 . S
C1064 C1065 1.386 . S
C1064 C1066 1.391 . S
C1065 C1064 1.386 . S
C1065 C1069 1.393 . S
C1066 H1058 0.950 . S
C1066 C1064 1.391 . S
C1066 C1067 1.400 . S
C1067 C1066 1.400 . S
C1067 C1068 1.398 . S
C1067 C1073 1.491 . S
C1068 H1059 0.950 . S
C1068 C1067 1.398 . S
C1068 C1069 1.391 . S
C1069 H1057 0.950 . S
C1069 C1065 1.393 . S
C1069 C1068 1.391 . S
C1070 H1060 0.950 . S
C1070 C1071 1.386 . S
C1070 C1072 1.391 . S
C1071 C1070 1.386 . S
C1071 C1075 1.393 . S
C1072 H1061 0.950 . S
C1072 C1070 1.391 . S
C1072 C1073 1.400 . S
C1073 C1067 1.491 . S
C1073 C1072 1.400 . S
C1073 C1074 1.398 . S
C1074 H1062 0.950 . S
C1074 C1073 1.398 . S
C1074 C1075 1.391 . S
C1075 H1063 0.950 . S
C1075 C1071 1.393 . S
C1075 C1074 1.391 . S
H1076 C1084 0.950 . S
H1077 C1089 0.950 . S
H1078 C1086 0.950 . S
H1079 C1088 0.950 . S
H1080 C1090 0.950 . S
H1081 C1092 0.950 . S
H1082 C1094 0.950 . S
H1083 C1095 0.950 . S
C1084 H1076 0.950 . S
C1084 C1085 1.386 . S
C1084 C1086 1.391 . S
C1085 C1084 1.386 . S
C1085 C1089 1.393 . S
C1086 H1078 0.950 . S
C1086 C1084 1.391 . S
C1086 C1087 1.400 . S
C1087 C1086 1.400 . S
C1087 C1088 1.398 . S
C1087 C1093 1.491 . S
C1088 H1079 0.950 . S
C1088 C1087 1.398 . S
C1088 C1089 1.391 . S
C1089 H1077 0.950 . S
C1089 C1085 1.393 . S
C1089 C1088 1.391 . S
C1090 H1080 0.950 . S
C1090 C1091 1.386 . S
C1090 C1092 1.391 . S
C1091 C1090 1.386 . S
C1091 C1095 1.393 . S
C1092 H1081 0.950 . S
C1092 C1090 1.391 . S
C1092 C1093 1.400 . S
C1093 C1087 1.491 . S
C1093 C1092 1.400 . S
C1093 C1094 1.398 . S
C1094 H1082 0.950 . S
C1094 C1093 1.398 . S
C1094 C1095 1.391 . S
C1095 H1083 0.950 . S
C1095 C1091 1.393 . S
C1095 C1094 1.391 . S
H1096 C1104 0.950 . S
H1097 C1109 0.950 . S
H1098 C1106 0.950 . S
H1099 C1108 0.950 . S
H1100 C1110 0.950 . S
H1101 C1112 0.950 . S
H1102 C1114 0.950 . S
H1103 C1115 0.950 . S
C1104 H1096 0.950 . S
C1104 C1105 1.386 . S
C1104 C1106 1.391 . S
C1105 C1104 1.386 . S
C1105 C1109 1.393 . S
C1106 H1098 0.950 . S
C1106 C1104 1.391 . S
C1106 C1107 1.400 . S
C1107 C1106 1.400 . S
C1107 C1108 1.398 . S
C1107 C1113 1.491 . S
C1108 H1099 0.950 . S
C1108 C1107 1.398 . S
C1108 C1109 1.391 . S
C1109 H1097 0.950 . S
C1109 C1105 1.393 . S
C1109 C1108 1.391 . S
C1110 H1100 0.950 . S
C1110 C1111 1.386 . S
C1110 C1112 1.391 . S
C1111 C1110 1.386 . S
C1111 C1115 1.393 . S
C1112 H1101 0.950 . S
C1112 C1110 1.391 . S
C1112 C1113 1.400 . S
C1113 C1107 1.491 . S
C1113 C1112 1.400 . S
C1113 C1114 1.398 . S
C1114 H1102 0.950 . S
C1114 C1113 1.398 . S
C1114 C1115 1.391 . S
C1115 H1103 0.950 . S
C1115 C1111 1.393 . S
C1115 C1114 1.391 . S
H1116 C1124 0.950 . S
H1117 C1129 0.950 . S
H1118 C1126 0.950 . S
H1119 C1128 0.950 . S
H1120 C1130 0.950 . S
H1121 C1132 0.950 . S
H1122 C1134 0.950 . S
H1123 C1135 0.950 . S
C1124 H1116 0.950 . S
C1124 C1125 1.386 . S
C1124 C1126 1.391 . S
C1125 C1124 1.386 . S
C1125 C1129 1.393 . S
C1126 H1118 0.950 . S
C1126 C1124 1.391 . S
C1126 C1127 1.400 . S
C1127 C1126 1.400 . S
C1127 C1128 1.398 . S
C1127 C1133 1.491 . S
C1128 H1119 0.950 . S
C1128 C1127 1.398 . S
C1128 C1129 1.391 . S
C1129 H1117 0.950 . S
C1129 C1125 1.393 . S
C1129 C1128 1.391 . S
C1130 H1120 0.950 . S
C1130 C1131 1.386 . S
C1130 C1132 1.391 . S
C1131 C1130 1.386 . S
C1131 C1135 1.393 . S
C1132 H1121 0.950 . S
C1132 C1130 1.391 . S
C1132 C1133 1.400 . S
C1133 C1127 1.491 . S
C1133 C1132 1.400 . S
C1133 C1134 1.398 . S
C1134 H1122 0.950 . S
C1134 C1133 1.398 . S
C1134 C1135 1.391 . S
C1135 H1123 0.950 . S
C1135 C1131 1.393 . S
C1135 C1134 1.391 . S
H1136 C1144 0.950 1_565 S
H1137 C1149 0.950 . S
H1138 C1146 0.950 . S
H1139 C1148 0.950 . S
H1140 C1150 0.950 . S
H1141 C1152 0.950 . S
H1142 C1154 0.950 . S
H1143 C1155 0.950 . S
C1144 H1136 0.950 1_545 S
C1144 C1145 1.386 . S
C1144 C1146 1.391 . S
C1145 C1144 1.386 . S
C1145 C1149 1.393 . S
C1146 H1138 0.950 . S
C1146 C1144 1.391 . S
C1146 C1147 1.400 . S
C1147 C1146 1.400 . S
C1147 C1148 1.398 . S
C1147 C1153 1.491 . S
C1148 H1139 0.950 . S
C1148 C1147 1.398 . S
C1148 C1149 1.391 . S
C1149 H1137 0.950 . S
C1149 C1145 1.393 . S
C1149 C1148 1.391 . S
C1150 H1140 0.950 . S
C1150 C1151 1.386 . S
C1150 C1152 1.391 1_455 S
C1151 C1150 1.386 . S
C1151 C1155 1.393 . S
C1152 H1141 0.950 . S
C1152 C1150 1.391 1_655 S
C1152 C1153 1.400 . S
C1153 C1147 1.491 . S
C1153 C1152 1.400 . S
C1153 C1154 1.398 1_655 S
C1154 H1142 0.950 . S
C1154 C1153 1.398 1_455 S
C1154 C1155 1.391 . S
C1155 H1143 0.950 . S
C1155 C1151 1.393 . S
C1155 C1154 1.391 . S
H1156 C1164 0.950 . S
H1157 C1169 0.950 . S
H1158 C1166 0.950 . S
H1159 C1168 0.950 . S
H1160 C1170 0.950 . S
H1161 C1172 0.950 . S
H1162 C1174 0.950 . S
H1163 C1175 0.950 . S
C1164 H1156 0.950 . S
C1164 C1165 1.386 . S
C1164 C1166 1.391 . S
C1165 C1164 1.386 . S
C1165 C1169 1.393 . S
C1166 H1158 0.950 . S
C1166 C1164 1.391 . S
C1166 C1167 1.400 . S
C1167 C1166 1.400 . S
C1167 C1168 1.398 . S
C1167 C1173 1.491 . S
C1168 H1159 0.950 . S
C1168 C1167 1.398 . S
C1168 C1169 1.391 . S
C1169 H1157 0.950 . S
C1169 C1165 1.393 . S
C1169 C1168 1.391 . S
C1170 H1160 0.950 . S
C1170 C1171 1.386 . S
C1170 C1172 1.391 . S
C1171 C1170 1.386 . S
C1171 C1175 1.393 . S
C1172 H1161 0.950 . S
C1172 C1170 1.391 . S
C1172 C1173 1.400 . S
C1173 C1167 1.491 . S
C1173 C1172 1.400 . S
C1173 C1174 1.398 . S
C1174 H1162 0.950 . S
C1174 C1173 1.398 . S
C1174 C1175 1.391 . S
C1175 H1163 0.950 . S
C1175 C1171 1.393 . S
C1175 C1174 1.391 . S
H1176 C1184 0.950 . S
H1177 C1189 0.950 . S
H1178 C1186 0.958 . S
H1179 C1188 0.950 . S
H1180 C1190 0.950 . S
H1181 C1192 0.950 . S
H1182 C1194 0.950 . S
H1183 C1195 0.950 . S
C1184 H1176 0.950 . S
C1184 C1185 1.386 . S
C1184 C1186 1.400 . S
C1185 C1184 1.386 . S
C1185 C1189 1.393 1_565 S
C1186 H1178 0.958 . S
C1186 C1184 1.400 . S
C1186 C1187 1.398 1_565 S
C1187 C1186 1.398 1_545 S
C1187 C1188 1.398 . S
C1187 C1193 1.491 . S
C1188 H1179 0.950 . S
C1188 C1187 1.398 . S
C1188 C1189 1.391 . S
C1189 H1177 0.950 . S
C1189 C1185 1.393 1_545 S
C1189 C1188 1.391 . S
C1190 H1180 0.950 . S
C1190 C1191 1.386 . S
C1190 C1192 1.391 . S
C1191 C1190 1.386 . S
C1191 C1195 1.393 . S
C1192 H1181 0.950 . S
C1192 C1190 1.391 . S
C1192 C1193 1.400 . S
C1193 C1187 1.491 . S
C1193 C1192 1.400 . S
C1193 C1194 1.398 . S
C1194 H1182 0.950 . S
C1194 C1193 1.398 . S
C1194 C1195 1.391 . S
C1195 H1183 0.950 . S
C1195 C1191 1.393 . S
C1195 C1194 1.391 . S
H1196 C1204 0.950 . S
H1197 C1209 0.950 . S
H1198 C1206 0.950 . S
H1199 C1208 0.950 . S
H1200 C1210 0.950 . S
H1201 C1212 0.950 . S
H1202 C1214 0.950 . S
H1203 C1215 0.950 . S
C1204 H1196 0.950 . S
C1204 C1205 1.386 . S
C1204 C1206 1.391 . S
C1205 C1204 1.386 . S
C1205 C1209 1.393 . S
C1206 H1198 0.950 . S
C1206 C1204 1.391 . S
C1206 C1207 1.400 . S
C1207 C1206 1.400 . S
C1207 C1208 1.398 . S
C1207 C1213 1.491 . S
C1208 H1199 0.950 . S
C1208 C1207 1.398 . S
C1208 C1209 1.391 . S
C1209 H1197 0.950 . S
C1209 C1205 1.393 . S
C1209 C1208 1.391 . S
C1210 H1200 0.950 . S
C1210 C1211 1.386 . S
C1210 C1212 1.391 . S
C1211 C1210 1.386 . S
C1211 C1215 1.393 . S
C1212 H1201 0.950 . S
C1212 C1210 1.391 . S
C1212 C1213 1.400 . S
C1213 C1207 1.491 . S
C1213 C1212 1.400 . S
C1213 C1214 1.398 . S
C1214 H1202 0.950 . S
C1214 C1213 1.398 . S
C1214 C1215 1.391 . S
C1215 H1203 0.950 . S
C1215 C1211 1.393 . S
C1215 C1214 1.391 . S
H1216 C1224 0.950 1_565 S
H1217 C1229 0.950 . S
H1218 C1226 0.950 . S
H1219 C1228 0.950 . S
H1220 C1230 0.950 . S
H1221 C1232 0.950 1_455 S
H1222 C1234 0.950 . S
H1223 C1235 0.950 . S
C1224 H1216 0.950 1_545 S
C1224 C1225 1.386 . S
C1224 C1226 1.391 . S
C1225 C1224 1.386 . S
C1225 C1229 1.393 . S
C1226 H1218 0.950 . S
C1226 C1224 1.391 . S
C1226 C1227 1.400 . S
C1227 C1226 1.400 . S
C1227 C1228 1.398 . S
C1227 C1233 1.491 . S
C1228 H1219 0.950 . S
C1228 C1227 1.398 . S
C1228 C1229 1.391 . S
C1229 H1217 0.950 . S
C1229 C1225 1.393 . S
C1229 C1228 1.391 . S
C1230 H1220 0.950 . S
C1230 C1231 1.386 1_455 S
C1230 C1232 1.391 1_455 S
C1231 C1230 1.386 1_655 S
C1231 C1235 1.393 . S
C1232 H1221 0.950 1_655 S
C1232 C1230 1.391 1_655 S
C1232 C1233 1.400 . S
C1233 C1227 1.491 . S
C1233 C1232 1.400 . S
C1233 C1234 1.398 . S
C1234 H1222 0.950 . S
C1234 C1233 1.398 . S
C1234 C1235 1.391 . S
C1235 H1223 0.950 . S
C1235 C1231 1.393 . S
C1235 C1234 1.391 . S
H1236 C1244 0.950 . S
H1237 C1249 0.950 . S
H1238 C1246 0.950 . S
H1239 C1248 0.950 . S
H1240 C1250 0.950 . S
H1241 C1252 0.950 . S
H1242 C1254 0.950 . S
H1243 C1255 0.950 . S
C1244 H1236 0.950 . S
C1244 C1245 1.386 . S
C1244 C1246 1.391 . S
C1245 C1244 1.386 . S
C1245 C1249 1.393 . S
C1246 H1238 0.950 . S
C1246 C1244 1.391 . S
C1246 C1247 1.400 . S
C1247 C1246 1.400 . S
C1247 C1248 1.398 . S
C1247 C1253 1.491 . S
C1248 H1239 0.950 . S
C1248 C1247 1.398 . S
C1248 C1249 1.391 . S
C1249 H1237 0.950 . S
C1249 C1245 1.393 . S
C1249 C1248 1.391 . S
C1250 H1240 0.950 . S
C1250 C1251 1.386 . S
C1250 C1252 1.391 . S
C1251 C1250 1.386 . S
C1251 C1255 1.393 . S
C1252 H1241 0.950 . S
C1252 C1250 1.391 . S
C1252 C1253 1.400 . S
C1253 C1247 1.491 . S
C1253 C1252 1.400 . S
C1253 C1254 1.398 . S
C1254 H1242 0.950 . S
C1254 C1253 1.398 . S
C1254 C1255 1.391 . S
C1255 H1243 0.950 . S
C1255 C1251 1.393 . S
C1255 C1254 1.391 . S
H1256 C1264 0.950 . S
H1257 C1269 0.950 . S
H1258 C1266 0.950 . S
H1259 C1268 0.950 . S
H1260 C1270 0.950 . S
H1261 C1272 0.950 . S
H1262 C1274 0.950 . S
H1263 C1275 0.950 . S
C1264 H1256 0.950 . S
C1264 C1265 1.386 . S
C1264 C1266 1.391 1_565 S
C1265 C1264 1.386 . S
C1265 C1269 1.393 1_565 S
C1266 H1258 0.950 . S
C1266 C1264 1.391 1_545 S
C1266 C1267 1.400 . S
C1267 C1266 1.400 . S
C1267 C1268 1.398 . S
C1267 C1273 1.491 . S
C1268 H1259 0.950 . S
C1268 C1267 1.398 . S
C1268 C1269 1.391 . S
C1269 H1257 0.950 . S
C1269 C1265 1.393 1_545 S
C1269 C1268 1.391 . S
C1270 H1260 0.950 . S
C1270 C1271 1.386 . S
C1270 C1272 1.391 . S
C1271 C1270 1.386 . S
C1271 C1275 1.393 . S
C1272 H1261 0.950 . S
C1272 C1270 1.391 . S
C1272 C1273 1.400 . S
C1273 C1267 1.491 . S
C1273 C1272 1.400 . S
C1273 C1274 1.398 . S
C1274 H1262 0.950 . S
C1274 C1273 1.398 . S
C1274 C1275 1.391 . S
C1275 H1263 0.950 . S
C1275 C1271 1.393 . S
C1275 C1274 1.391 . S
H1276 C1284 0.950 . S
H1277 C1289 0.950 . S
H1278 C1286 0.950 . S
H1279 C1288 0.950 . S
H1280 C1290 0.950 . S
H1281 C1292 0.950 . S
H1282 C1294 0.950 . S
H1283 C1295 0.950 . S
C1284 H1276 0.950 . S
C1284 C1285 1.386 . S
C1284 C1286 1.391 . S
C1285 C1284 1.386 . S
C1285 C1289 1.393 . S
C1286 H1278 0.950 . S
C1286 C1284 1.391 . S
C1286 C1287 1.400 . S
C1287 C1286 1.400 . S
C1287 C1288 1.398 . S
C1287 C1293 1.491 . S
C1288 H1279 0.950 . S
C1288 C1287 1.398 . S
C1288 C1289 1.391 . S
C1289 H1277 0.950 . S
C1289 C1285 1.393 . S
C1289 C1288 1.391 . S
C1290 H1280 0.950 . S
C1290 C1291 1.386 . S
C1290 C1292 1.391 . S
C1291 C1290 1.386 . S
C1291 C1295 1.393 . S
C1292 H1281 0.950 . S
C1292 C1290 1.391 . S
C1292 C1293 1.400 . S
C1293 C1287 1.491 . S
C1293 C1292 1.400 . S
C1293 C1294 1.398 . S
C1294 H1282 0.950 . S
C1294 C1293 1.398 . S
C1294 C1295 1.391 . S
C1295 H1283 0.950 . S
C1295 C1291 1.393 . S
C1295 C1294 1.391 . S
H1296 C1304 0.950 . S
H1297 C1309 0.950 . S
H1298 C1306 0.950 . S
H1299 C1308 0.950 . S
H1300 C1310 0.950 . S
H1301 C1312 0.950 . S
H1302 C1314 0.950 . S
H1303 C1315 0.926 1_545 S
C1304 H1296 0.950 . S
C1304 C1305 1.386 . S
C1304 C1306 1.391 . S
C1305 C1304 1.386 . S
C1305 C1309 1.393 . S
C1306 H1298 0.950 . S
C1306 C1304 1.391 . S
C1306 C1307 1.400 . S
C1307 C1306 1.400 . S
C1307 C1308 1.398 . S
C1307 C1313 1.491 . S
C1308 H1299 0.950 . S
C1308 C1307 1.398 . S
C1308 C1309 1.391 . S
C1309 H1297 0.950 . S
C1309 C1305 1.393 . S
C1309 C1308 1.391 . S
C1310 H1300 0.950 . S
C1310 C1311 1.386 . S
C1310 C1312 1.391 . S
C1311 C1310 1.386 . S
C1311 C1315 1.396 . S
C1312 H1301 0.950 . S
C1312 C1310 1.391 . S
C1312 C1313 1.400 . S
C1313 C1307 1.491 . S
C1313 C1312 1.400 . S
C1313 C1314 1.398 . S
C1314 H1302 0.950 . S
C1314 C1313 1.398 . S
C1314 C1315 1.412 . S
C1315 H1303 0.926 1_565 S
C1315 C1311 1.396 . S
C1315 C1314 1.412 . S
H1316 C1324 0.950 . S
H1317 C1329 0.950 . S
H1318 C1326 0.950 . S
H1319 C1328 0.950 . S
H1320 C1330 0.950 . S
H1321 C1332 0.950 . S
H1322 C1334 0.950 . S
H1323 C1335 0.950 . S
C1324 H1316 0.950 . S
C1324 C1325 1.386 1_556 S
C1324 C1326 1.391 . S
C1325 C1324 1.386 1_554 S
C1325 C1329 1.393 . S
C1326 H1318 0.950 . S
C1326 C1324 1.391 . S
C1326 C1327 1.400 1_556 S
C1327 C1326 1.400 1_554 S
C1327 C1328 1.398 . S
C1327 C1333 1.491 . S
C1328 H1319 0.950 . S
C1328 C1327 1.398 . S
C1328 C1329 1.391 . S
C1329 H1317 0.950 . S
C1329 C1325 1.393 . S
C1329 C1328 1.391 . S
C1330 H1320 0.950 . S
C1330 C1331 1.386 . S
C1330 C1332 1.391 . S
C1331 C1330 1.386 . S
C1331 C1335 1.393 1_554 S
C1332 H1321 0.950 . S
C1332 C1330 1.391 . S
C1332 C1333 1.400 . S
C1333 C1327 1.491 . S
C1333 C1332 1.400 . S
C1333 C1334 1.398 1_554 S
C1334 H1322 0.950 . S
C1334 C1333 1.398 1_556 S
C1334 C1335 1.391 . S
C1335 H1323 0.950 . S
C1335 C1331 1.393 1_556 S
C1335 C1334 1.391 . S
H1336 C1344 0.950 . S
H1337 C1349 0.950 . S
H1338 C1346 0.950 . S
H1339 C1348 0.950 . S
H1340 C1350 0.950 . S
H1341 C1352 0.950 . S
H1342 C1354 0.950 . S
H1343 C1355 0.950 . S
C1344 H1336 0.950 . S
C1344 C1345 1.386 . S
C1344 C1346 1.391 . S
C1345 C1344 1.386 . S
C1345 C1349 1.393 . S
C1346 H1338 0.950 . S
C1346 C1344 1.391 . S
C1346 C1347 1.400 . S
C1347 C1346 1.400 . S
C1347 C1348 1.398 . S
C1347 C1353 1.491 . S
C1348 H1339 0.950 . S
C1348 C1347 1.398 . S
C1348 C1349 1.391 . S
C1349 H1337 0.950 . S
C1349 C1345 1.393 . S
C1349 C1348 1.391 . S
C1350 H1340 0.950 . S
C1350 C1351 1.386 . S
C1350 C1352 1.391 . S
C1351 C1350 1.386 . S
C1351 C1355 1.393 . S
C1352 H1341 0.950 . S
C1352 C1350 1.391 . S
C1352 C1353 1.400 . S
C1353 C1347 1.491 . S
C1353 C1352 1.400 . S
C1353 C1354 1.398 . S
C1354 H1342 0.950 . S
C1354 C1353 1.398 . S
C1354 C1355 1.391 . S
C1355 H1343 0.950 . S
C1355 C1351 1.393 . S
C1355 C1354 1.391 . S
H1356 C1364 0.950 . S
H1357 C1369 0.950 . S
H1358 C1366 0.950 . S
H1359 C1368 0.950 . S
H1360 C1370 0.950 . S
H1361 C1372 0.950 . S
H1362 C1374 0.950 . S
H1363 C1375 0.950 . S
C1364 H1356 0.950 . S
C1364 C1365 1.386 . S
C1364 C1366 1.391 . S
C1365 C1364 1.386 . S
C1365 C1369 1.393 . S
C1366 H1358 0.950 . S
C1366 C1364 1.391 . S
C1366 C1367 1.400 . S
C1367 C1366 1.400 . S
C1367 C1368 1.398 . S
C1367 C1373 1.491 . S
C1368 H1359 0.950 . S
C1368 C1367 1.398 . S
C1368 C1369 1.391 . S
C1369 H1357 0.950 . S
C1369 C1365 1.393 . S
C1369 C1368 1.391 . S
C1370 H1360 0.950 . S
C1370 C1371 1.386 . S
C1370 C1372 1.391 . S
C1371 C1370 1.386 . S
C1371 C1375 1.393 . S
C1372 H1361 0.950 . S
C1372 C1370 1.391 . S
C1372 C1373 1.400 . S
C1373 C1367 1.491 . S
C1373 C1372 1.400 . S
C1373 C1374 1.398 . S
C1374 H1362 0.950 . S
C1374 C1373 1.398 . S
C1374 C1375 1.391 . S
C1375 H1363 0.950 . S
C1375 C1371 1.393 . S
C1375 C1374 1.391 . S
H1376 C1384 0.950 . S
H1377 C1389 0.950 . S
H1378 C1386 0.950 . S
H1379 C1388 0.950 . S
H1380 C1390 0.950 . S
H1381 C1392 0.950 . S
H1382 C1394 0.950 . S
H1383 C1395 0.950 . S
C1384 H1376 0.950 . S
C1384 C1385 1.386 . S
C1384 C1386 1.391 . S
C1385 C1384 1.386 . S
C1385 C1389 1.393 . S
C1386 H1378 0.950 . S
C1386 C1384 1.391 . S
C1386 C1387 1.400 . S
C1387 C1386 1.400 . S
C1387 C1388 1.398 . S
C1387 C1393 1.491 . S
C1388 H1379 0.950 . S
C1388 C1387 1.398 . S
C1388 C1389 1.391 . S
C1389 H1377 0.950 . S
C1389 C1385 1.393 . S
C1389 C1388 1.391 . S
C1390 H1380 0.950 . S
C1390 C1391 1.386 . S
C1390 C1392 1.391 . S
C1391 C1390 1.386 . S
C1391 C1395 1.393 . S
C1392 H1381 0.950 . S
C1392 C1390 1.391 . S
C1392 C1393 1.400 . S
C1393 C1387 1.491 . S
C1393 C1392 1.400 . S
C1393 C1394 1.398 . S
C1394 H1382 0.950 . S
C1394 C1393 1.398 . S
C1394 C1395 1.391 . S
C1395 H1383 0.950 . S
C1395 C1391 1.393 . S
C1395 C1394 1.391 . S
H1396 C1404 0.950 . S
H1397 C1409 0.950 . S
H1398 C1406 0.950 . S
H1399 C1408 0.950 . S
H1400 C1410 0.950 . S
H1401 C1412 0.950 . S
H1402 C1414 0.950 . S
H1403 C1415 0.950 . S
C1404 H1396 0.950 . S
C1404 C1405 1.386 . S
C1404 C1406 1.391 . S
C1405 C1404 1.386 . S
C1405 C1409 1.393 . S
C1406 H1398 0.950 . S
C1406 C1404 1.391 . S
C1406 C1407 1.400 . S
C1407 C1406 1.400 . S
C1407 C1408 1.398 . S
C1407 C1413 1.491 . S
C1408 H1399 0.950 . S
C1408 C1407 1.398 . S
C1408 C1409 1.391 . S
C1409 H1397 0.950 . S
C1409 C1405 1.393 . S
C1409 C1408 1.391 . S
C1410 H1400 0.950 . S
C1410 C1411 1.386 . S
C1410 C1412 1.391 . S
C1411 C1410 1.386 . S
C1411 C1415 1.393 . S
C1412 H1401 0.950 . S
C1412 C1410 1.391 . S
C1412 C1413 1.400 . S
C1413 C1407 1.491 . S
C1413 C1412 1.400 . S
C1413 C1414 1.398 . S
C1414 H1402 0.950 . S
C1414 C1413 1.398 . S
C1414 C1415 1.391 . S
C1415 H1403 0.950 . S
C1415 C1411 1.393 . S
C1415 C1414 1.391 . S
H1416 C1424 0.950 . S
H1417 C1429 0.950 . S
H1418 C1426 0.950 . S
H1419 C1428 0.950 . S
H1420 C1430 0.950 . S
H1421 C1432 0.950 . S
H1422 C1434 0.950 . S
H1423 C1435 0.950 . S
C1424 H1416 0.950 . S
C1424 C1425 1.386 . S
C1424 C1426 1.391 . S
C1425 C1424 1.386 . S
C1425 C1429 1.393 . S
C1426 H1418 0.950 . S
C1426 C1424 1.391 . S
C1426 C1427 1.400 . S
C1427 C1426 1.400 . S
C1427 C1428 1.398 . S
C1427 C1433 1.491 . S
C1428 H1419 0.950 . S
C1428 C1427 1.398 . S
C1428 C1429 1.391 . S
C1429 H1417 0.950 . S
C1429 C1425 1.393 . S
C1429 C1428 1.391 . S
C1430 H1420 0.950 . S
C1430 C1431 1.386 . S
C1430 C1432 1.391 . S
C1431 C1430 1.386 . S
C1431 C1435 1.393 . S
C1432 H1421 0.950 . S
C1432 C1430 1.391 . S
C1432 C1433 1.400 . S
C1433 C1427 1.491 . S
C1433 C1432 1.400 . S
C1433 C1434 1.398 . S
C1434 H1422 0.950 . S
C1434 C1433 1.398 . S
C1434 C1435 1.391 . S
C1435 H1423 0.950 . S
C1435 C1431 1.393 . S
C1435 C1434 1.391 . S
H1436 C1444 0.950 . S
H1437 C1449 0.950 . S
H1438 C1446 0.950 . S
H1439 C1448 0.950 . S
H1440 C1450 0.950 . S
H1441 C1452 0.950 . S
H1442 C1454 0.950 . S
H1443 C1455 0.950 . S
C1444 H1436 0.950 . S
C1444 C1445 1.386 . S
C1444 C1446 1.391 . S
C1445 C1444 1.386 . S
C1445 C1449 1.393 . S
C1446 H1438 0.950 . S
C1446 C1444 1.391 . S
C1446 C1447 1.400 . S
C1447 C1446 1.400 . S
C1447 C1448 1.398 . S
C1447 C1453 1.491 . S
C1448 H1439 0.950 . S
C1448 C1447 1.398 . S
C1448 C1449 1.391 . S
C1449 H1437 0.950 . S
C1449 C1445 1.393 . S
C1449 C1448 1.391 . S
C1450 H1440 0.950 . S
C1450 C1451 1.386 . S
C1450 C1452 1.391 . S
C1451 C1450 1.386 . S
C1451 C1455 1.393 . S
C1452 H1441 0.950 . S
C1452 C1450 1.391 . S
C1452 C1453 1.400 . S
C1453 C1447 1.491 . S
C1453 C1452 1.400 . S
C1453 C1454 1.398 . S
C1454 H1442 0.950 . S
C1454 C1453 1.398 . S
C1454 C1455 1.391 . S
C1455 H1443 0.950 . S
C1455 C1451 1.393 . S
C1455 C1454 1.391 . S
H1456 C1464 0.950 . S
H1457 C1469 0.950 . S
H1458 C1466 0.950 . S
H1459 C1468 0.950 . S
H1460 C1470 0.950 . S
H1461 C1472 0.950 . S
H1462 C1474 0.950 . S
H1463 C1475 0.950 . S
C1464 H1456 0.950 . S
C1464 C1465 1.386 . S
C1464 C1466 1.391 . S
C1465 C1464 1.386 . S
C1465 C1469 1.393 . S
C1466 H1458 0.950 . S
C1466 C1464 1.391 . S
C1466 C1467 1.400 . S
C1467 C1466 1.400 . S
C1467 C1468 1.398 . S
C1467 C1473 1.491 . S
C1468 H1459 0.950 . S
C1468 C1467 1.398 . S
C1468 C1469 1.391 . S
C1469 H1457 0.950 . S
C1469 C1465 1.393 . S
C1469 C1468 1.391 . S
C1470 H1460 0.950 . S
C1470 C1471 1.386 . S
C1470 C1472 1.391 . S
C1471 C1470 1.386 . S
C1471 C1475 1.393 . S
C1472 H1461 0.950 . S
C1472 C1470 1.391 . S
C1472 C1473 1.400 . S
C1473 C1467 1.491 . S
C1473 C1472 1.400 . S
C1473 C1474 1.398 . S
C1474 H1462 0.950 . S
C1474 C1473 1.398 . S
C1474 C1475 1.391 . S
C1475 H1463 0.950 . S
C1475 C1471 1.393 . S
C1475 C1474 1.391 . S
H1476 C1484 0.950 . S
H1477 C1489 0.950 . S
H1478 C1486 0.950 . S
H1479 C1488 0.950 . S
H1480 C1490 0.950 . S
H1481 C1492 0.950 . S
H1482 C1494 0.950 . S
H1483 C1495 0.950 . S
C1484 H1476 0.950 . S
C1484 C1485 1.386 . S
C1484 C1486 1.391 . S
C1485 C1484 1.386 . S
C1485 C1489 1.393 . S
C1486 H1478 0.950 . S
C1486 C1484 1.391 . S
C1486 C1487 1.400 . S
C1487 C1486 1.400 . S
C1487 C1488 1.398 . S
C1487 C1493 1.491 . S
C1488 H1479 0.950 . S
C1488 C1487 1.398 . S
C1488 C1489 1.391 . S
C1489 H1477 0.950 . S
C1489 C1485 1.393 . S
C1489 C1488 1.391 . S
C1490 H1480 0.950 . S
C1490 C1491 1.386 . S
C1490 C1492 1.391 . S
C1491 C1490 1.386 . S
C1491 C1495 1.393 . S
C1492 H1481 0.950 . S
C1492 C1490 1.391 . S
C1492 C1493 1.400 . S
C1493 C1487 1.491 . S
C1493 C1492 1.400 . S
C1493 C1494 1.398 . S
C1494 H1482 0.950 . S
C1494 C1493 1.398 . S
C1494 C1495 1.391 . S
C1495 H1483 0.950 . S
C1495 C1491 1.393 . S
C1495 C1494 1.391 . S
H1496 C1504 0.950 . S
H1497 C1509 0.950 . S
H1498 C1506 0.950 . S
H1499 C1508 0.950 . S
H1500 C1510 0.950 . S
H1501 C1512 0.950 . S
H1502 C1514 0.950 . S
H1503 C1515 0.950 . S
C1504 H1496 0.950 . S
C1504 C1505 1.386 . S
C1504 C1506 1.391 . S
C1505 C1504 1.386 . S
C1505 C1509 1.393 . S
C1506 H1498 0.950 . S
C1506 C1504 1.391 . S
C1506 C1507 1.400 . S
C1507 C1506 1.400 . S
C1507 C1508 1.398 . S
C1507 C1513 1.491 . S
C1508 H1499 0.950 . S
C1508 C1507 1.398 . S
C1508 C1509 1.391 . S
C1509 H1497 0.950 . S
C1509 C1505 1.393 . S
C1509 C1508 1.391 . S
C1510 H1500 0.950 . S
C1510 C1511 1.386 . S
C1510 C1512 1.391 . S
C1511 C1510 1.386 . S
C1511 C1515 1.393 . S
C1512 H1501 0.950 . S
C1512 C1510 1.391 . S
C1512 C1513 1.400 . S
C1513 C1507 1.491 . S
C1513 C1512 1.400 . S
C1513 C1514 1.398 . S
C1514 H1502 0.950 . S
C1514 C1513 1.398 . S
C1514 C1515 1.391 . S
C1515 H1503 0.950 . S
C1515 C1511 1.393 . S
C1515 C1514 1.391 . S
H1516 C1524 0.950 . S
H1517 C1529 0.950 . S
H1518 C1526 0.950 . S
H1519 C1528 0.950 . S
H1520 C1530 0.950 . S
H1521 C1532 0.950 . S
H1522 C1534 0.950 . S
H1523 C1535 0.950 . S
C1524 H1516 0.950 . S
C1524 C1525 1.386 . S
C1524 C1526 1.391 . S
C1525 C1524 1.386 . S
C1525 C1529 1.393 . S
C1526 H1518 0.950 . S
C1526 C1524 1.391 . S
C1526 C1527 1.400 . S
C1527 C1526 1.400 . S
C1527 C1528 1.398 . S
C1527 C1533 1.491 . S
C1528 H1519 0.950 . S
C1528 C1527 1.398 . S
C1528 C1529 1.391 . S
C1529 H1517 0.950 . S
C1529 C1525 1.393 . S
C1529 C1528 1.391 . S
C1530 H1520 0.950 . S
C1530 C1531 1.386 . S
C1530 C1532 1.391 . S
C1531 C1530 1.386 . S
C1531 C1535 1.393 . S
C1532 H1521 0.950 . S
C1532 C1530 1.391 . S
C1532 C1533 1.400 . S
C1533 C1527 1.491 . S
C1533 C1532 1.400 . S
C1533 C1534 1.398 . S
C1534 H1522 0.950 . S
C1534 C1533 1.398 . S
C1534 C1535 1.391 . S
C1535 H1523 0.950 . S
C1535 C1531 1.393 . S
C1535 C1534 1.391 . S
H1536 C1544 0.950 . S
H1537 C1549 0.950 . S
H1538 C1546 0.950 . S
H1539 C1548 0.950 . S
H1540 C1550 0.950 . S
H1541 C1552 0.950 . S
H1542 C1554 0.950 . S
H1543 C1555 0.950 . S
C1544 H1536 0.950 . S
C1544 C1545 1.386 . S
C1544 C1546 1.391 . S
C1545 C1544 1.386 . S
C1545 C1549 1.393 . S
C1546 H1538 0.950 . S
C1546 C1544 1.391 . S
C1546 C1547 1.400 . S
C1547 C1546 1.400 . S
C1547 C1548 1.398 . S
C1547 C1553 1.491 . S
C1548 H1539 0.950 . S
C1548 C1547 1.398 . S
C1548 C1549 1.391 . S
C1549 H1537 0.950 . S
C1549 C1545 1.393 . S
C1549 C1548 1.391 . S
C1550 H1540 0.950 . S
C1550 C1551 1.386 . S
C1550 C1552 1.391 . S
C1551 C1550 1.386 . S
C1551 C1555 1.393 . S
C1552 H1541 0.950 . S
C1552 C1550 1.391 . S
C1552 C1553 1.400 . S
C1553 C1547 1.491 . S
C1553 C1552 1.400 . S
C1553 C1554 1.398 . S
C1554 H1542 0.950 . S
C1554 C1553 1.398 . S
C1554 C1555 1.391 . S
C1555 H1543 0.950 . S
C1555 C1551 1.393 . S
C1555 C1554 1.391 . S
H1556 C1564 0.950 . S
H1557 C1569 0.950 . S
H1558 C1566 0.950 . S
H1559 C1568 0.950 . S
H1560 C1570 0.950 . S
H1561 C1572 0.950 . S
H1562 C1574 0.950 . S
H1563 C1575 0.950 . S
C1564 H1556 0.950 . S
C1564 C1565 1.386 . S
C1564 C1566 1.391 . S
C1565 C1564 1.386 . S
C1565 C1569 1.393 . S
C1566 H1558 0.950 . S
C1566 C1564 1.391 . S
C1566 C1567 1.400 . S
C1567 C1566 1.400 . S
C1567 C1568 1.398 . S
C1567 C1573 1.491 . S
C1568 H1559 0.950 . S
C1568 C1567 1.398 . S
C1568 C1569 1.391 . S
C1569 H1557 0.950 . S
C1569 C1565 1.393 . S
C1569 C1568 1.391 . S
C1570 H1560 0.950 . S
C1570 C1571 1.386 . S
C1570 C1572 1.391 . S
C1571 C1570 1.386 . S
C1571 C1575 1.393 . S
C1572 H1561 0.950 . S
C1572 C1570 1.391 . S
C1572 C1573 1.400 . S
C1573 C1567 1.491 . S
C1573 C1572 1.400 . S
C1573 C1574 1.398 . S
C1574 H1562 0.950 . S
C1574 C1573 1.398 . S
C1574 C1575 1.391 . S
C1575 H1563 0.950 . S
C1575 C1571 1.393 . S
C1575 C1574 1.391 . S
H1576 C1584 0.950 . S
H1577 C1589 0.950 . S
H1578 C1586 0.950 . S
H1579 C1588 0.950 . S
H1580 C1590 0.950 . S
H1581 C1592 0.950 . S
H1582 C1594 0.950 . S
H1583 C1595 0.950 . S
C1584 H1576 0.950 . S
C1584 C1585 1.386 . S
C1584 C1586 1.391 . S
C1585 C1584 1.386 . S
C1585 C1589 1.393 . S
C1586 H1578 0.950 . S
C1586 C1584 1.391 . S
C1586 C1587 1.400 . S
C1587 C1586 1.400 . S
C1587 C1588 1.398 . S
C1587 C1593 1.491 . S
C1588 H1579 0.950 . S
C1588 C1587 1.398 . S
C1588 C1589 1.391 . S
C1589 H1577 0.950 . S
C1589 C1585 1.393 . S
C1589 C1588 1.391 . S
C1590 H1580 0.950 . S
C1590 C1591 1.386 . S
C1590 C1592 1.391 . S
C1591 C1590 1.386 . S
C1591 C1595 1.393 . S
C1592 H1581 0.950 . S
C1592 C1590 1.391 . S
C1592 C1593 1.400 . S
C1593 C1587 1.491 . S
C1593 C1592 1.400 . S
C1593 C1594 1.398 . S
C1594 H1582 0.950 . S
C1594 C1593 1.398 . S
C1594 C1595 1.391 . S
C1595 H1583 0.950 . S
C1595 C1591 1.393 . S
C1595 C1594 1.391 . S
H1596 C1604 0.950 . S
H1597 C1609 0.950 . S
H1598 C1606 0.950 . S
H1599 C1608 0.950 . S
H1600 C1610 0.950 . S
H1601 C1612 0.950 . S
H1602 C1614 0.950 . S
H1603 C1615 0.950 . S
C1604 H1596 0.950 . S
C1604 C1605 1.386 . S
C1604 C1606 1.391 . S
C1605 C1604 1.386 . S
C1605 C1609 1.393 . S
C1606 H1598 0.950 . S
C1606 C1604 1.391 . S
C1606 C1607 1.400 . S
C1607 C1606 1.400 . S
C1607 C1608 1.398 . S
C1607 C1613 1.491 . S
C1608 H1599 0.950 . S
C1608 C1607 1.398 . S
C1608 C1609 1.391 . S
C1609 H1597 0.950 . S
C1609 C1605 1.393 . S
C1609 C1608 1.391 . S
C1610 H1600 0.950 . S
C1610 C1611 1.386 . S
C1610 C1612 1.391 . S
C1611 C1610 1.386 . S
C1611 C1615 1.393 . S
C1612 H1601 0.950 . S
C1612 C1610 1.391 . S
C1612 C1613 1.400 . S
C1613 C1607 1.491 . S
C1613 C1612 1.400 . S
C1613 C1614 1.398 . S
C1614 H1602 0.950 . S
C1614 C1613 1.398 . S
C1614 C1615 1.391 . S
C1615 H1603 0.950 . S
C1615 C1611 1.393 . S
C1615 C1614 1.391 . S
H1616 C1624 0.950 . S
H1617 C1629 0.950 . S
H1618 C1626 0.950 . S
H1619 C1628 0.950 . S
H1620 C1630 0.950 . S
H1621 C1632 0.950 . S
H1622 C1634 0.950 . S
H1623 C1635 0.950 . S
C1624 H1616 0.950 . S
C1624 C1625 1.386 . S
C1624 C1626 1.391 . S
C1625 C1624 1.386 . S
C1625 C1629 1.393 . S
C1626 H1618 0.950 . S
C1626 C1624 1.391 . S
C1626 C1627 1.400 . S
C1627 C1626 1.400 . S
C1627 C1628 1.398 . S
C1627 C1633 1.491 . S
C1628 H1619 0.950 . S
C1628 C1627 1.398 . S
C1628 C1629 1.391 . S
C1629 H1617 0.950 . S
C1629 C1625 1.393 . S
C1629 C1628 1.391 . S
C1630 H1620 0.950 . S
C1630 C1631 1.386 . S
C1630 C1632 1.391 . S
C1631 C1630 1.386 . S
C1631 C1635 1.393 . S
C1632 H1621 0.950 . S
C1632 C1630 1.391 . S
C1632 C1633 1.400 . S
C1633 C1627 1.491 . S
C1633 C1632 1.400 . S
C1633 C1634 1.398 . S
C1634 H1622 0.950 . S
C1634 C1633 1.398 . S
C1634 C1635 1.391 . S
C1635 H1623 0.950 . S
C1635 C1631 1.393 . S
C1635 C1634 1.391 . S
H1636 C1644 0.950 . S
H1637 C1649 0.950 . S
H1638 C1646 0.950 . S
H1639 C1648 0.950 . S
H1640 C1650 0.950 . S
H1641 C1652 0.950 . S
H1642 C1654 0.950 . S
H1643 C1655 0.950 . S
C1644 H1636 0.950 . S
C1644 C1645 1.386 . S
C1644 C1646 1.391 . S
C1645 C1644 1.386 . S
C1645 C1649 1.393 . S
C1646 H1638 0.950 . S
C1646 C1644 1.391 . S
C1646 C1647 1.400 . S
C1647 C1646 1.400 . S
C1647 C1648 1.398 . S
C1647 C1653 1.491 . S
C1648 H1639 0.950 . S
C1648 C1647 1.398 . S
C1648 C1649 1.391 . S
C1649 H1637 0.950 . S
C1649 C1645 1.393 . S
C1649 C1648 1.391 . S
C1650 H1640 0.950 . S
C1650 C1651 1.386 . S
C1650 C1652 1.391 . S
C1651 C1650 1.386 . S
C1651 C1655 1.393 . S
C1652 H1641 0.950 . S
C1652 C1650 1.391 . S
C1652 C1653 1.400 . S
C1653 C1647 1.491 . S
C1653 C1652 1.400 . S
C1653 C1654 1.398 . S
C1654 H1642 0.950 . S
C1654 C1653 1.398 . S
C1654 C1655 1.391 . S
C1655 H1643 0.950 . S
C1655 C1651 1.393 . S
C1655 C1654 1.391 . S
H1656 C1664 0.950 . S
H1657 C1669 0.950 . S
H1658 C1666 0.950 . S
H1659 C1668 0.950 . S
H1660 C1670 0.950 . S
H1661 C1672 0.950 . S
H1662 C1674 0.950 . S
H1663 C1675 0.950 . S
C1664 H1656 0.950 . S
C1664 C1665 1.386 . S
C1664 C1666 1.391 . S
C1665 C1664 1.386 . S
C1665 C1669 1.393 . S
C1666 H1658 0.950 . S
C1666 C1664 1.391 . S
C1666 C1667 1.400 . S
C1667 C1666 1.400 . S
C1667 C1668 1.398 . S
C1667 C1673 1.491 . S
C1668 H1659 0.950 . S
C1668 C1667 1.398 . S
C1668 C1669 1.391 . S
C1669 H1657 0.950 . S
C1669 C1665 1.393 . S
C1669 C1668 1.391 . S
C1670 H1660 0.950 . S
C1670 C1671 1.386 . S
C1670 C1672 1.391 . S
C1671 C1670 1.386 . S
C1671 C1675 1.393 . S
C1672 H1661 0.950 . S
C1672 C1670 1.391 . S
C1672 C1673 1.400 . S
C1673 C1667 1.491 . S
C1673 C1672 1.400 . S
C1673 C1674 1.398 . S
C1674 H1662 0.950 . S
C1674 C1673 1.398 . S
C1674 C1675 1.391 . S
C1675 H1663 0.950 . S
C1675 C1671 1.393 . S
C1675 C1674 1.391 . S
H1676 C1684 0.950 . S
H1677 C1689 0.950 . S
H1678 C1686 0.950 . S
H1679 C1688 0.950 . S
H1680 C1690 0.950 . S
H1681 C1692 0.950 . S
H1682 C1694 0.950 . S
H1683 C1695 0.950 . S
C1684 H1676 0.950 . S
C1684 C1685 1.386 . S
C1684 C1686 1.391 . S
C1685 C1684 1.386 . S
C1685 C1689 1.393 . S
C1686 H1678 0.950 . S
C1686 C1684 1.391 . S
C1686 C1687 1.400 . S
C1687 C1686 1.400 . S
C1687 C1688 1.398 . S
C1687 C1693 1.491 . S
C1688 H1679 0.950 . S
C1688 C1687 1.398 . S
C1688 C1689 1.391 . S
C1689 H1677 0.950 . S
C1689 C1685 1.393 . S
C1689 C1688 1.391 . S
C1690 H1680 0.950 . S
C1690 C1691 1.386 . S
C1690 C1692 1.391 . S
C1691 C1690 1.386 . S
C1691 C1695 1.393 . S
C1692 H1681 0.950 . S
C1692 C1690 1.391 . S
C1692 C1693 1.400 . S
C1693 C1687 1.491 . S
C1693 C1692 1.400 . S
C1693 C1694 1.398 . S
C1694 H1682 0.950 . S
C1694 C1693 1.398 . S
C1694 C1695 1.391 . S
C1695 H1683 0.950 . S
C1695 C1691 1.393 . S
C1695 C1694 1.391 . S
H1696 C1704 0.950 . S
H1697 C1709 0.950 . S
H1698 C1706 0.950 . S
H1699 C1708 0.950 . S
H1700 C1710 0.950 . S
H1701 C1712 0.950 . S
H1702 C1714 0.950 . S
H1703 C1715 0.950 . S
C1704 H1696 0.950 . S
C1704 C1705 1.386 . S
C1704 C1706 1.391 . S
C1705 C1704 1.386 . S
C1705 C1709 1.393 . S
C1706 H1698 0.950 . S
C1706 C1704 1.391 . S
C1706 C1707 1.400 . S
C1707 C1706 1.400 . S
C1707 C1708 1.398 . S
C1707 C1713 1.491 . S
C1708 H1699 0.950 . S
C1708 C1707 1.398 . S
C1708 C1709 1.391 . S
C1709 H1697 0.950 . S
C1709 C1705 1.393 . S
C1709 C1708 1.391 . S
C1710 H1700 0.950 . S
C1710 C1711 1.386 . S
C1710 C1712 1.391 . S
C1711 C1710 1.386 . S
C1711 C1715 1.393 . S
C1712 H1701 0.950 . S
C1712 C1710 1.391 . S
C1712 C1713 1.400 . S
C1713 C1707 1.491 . S
C1713 C1712 1.400 . S
C1713 C1714 1.398 . S
C1714 H1702 0.950 . S
C1714 C1713 1.398 . S
C1714 C1715 1.391 . S
C1715 H1703 0.950 . S
C1715 C1711 1.393 . S
C1715 C1714 1.391 . S
H1716 C1724 0.950 . S
H1717 C1729 0.950 . S
H1718 C1726 0.950 . S
H1719 C1728 0.950 . S
H1720 C1730 0.950 . S
H1721 C1732 0.950 . S
H1722 C1734 0.950 . S
H1723 C1735 0.950 . S
C1724 H1716 0.950 . S
C1724 C1725 1.386 . S
C1724 C1726 1.391 . S
C1725 C1724 1.386 . S
C1725 C1729 1.393 . S
C1726 H1718 0.950 . S
C1726 C1724 1.391 . S
C1726 C1727 1.400 . S
C1727 C1726 1.400 . S
C1727 C1728 1.398 . S
C1727 C1733 1.491 . S
C1728 H1719 0.950 . S
C1728 C1727 1.398 . S
C1728 C1729 1.391 . S
C1729 H1717 0.950 . S
C1729 C1725 1.393 . S
C1729 C1728 1.391 . S
C1730 H1720 0.950 . S
C1730 C1731 1.386 . S
C1730 C1732 1.391 . S
C1731 C1730 1.386 . S
C1731 C1735 1.393 . S
C1732 H1721 0.950 . S
C1732 C1730 1.391 . S
C1732 C1733 1.400 . S
C1733 C1727 1.491 . S
C1733 C1732 1.400 . S
C1733 C1734 1.398 . S
C1734 H1722 0.950 . S
C1734 C1733 1.398 . S
C1734 C1735 1.391 . S
C1735 H1723 0.950 . S
C1735 C1731 1.393 . S
C1735 C1734 1.391 . S
H1736 C1744 0.950 . S
H1737 C1749 0.950 . S
H1738 C1746 0.950 . S
H1739 C1748 0.950 . S
H1740 C1750 0.950 . S
H1741 C1752 0.950 . S
H1742 C1754 0.950 . S
H1743 C1755 0.950 1_565 S
C1744 H1736 0.950 . S
C1744 C1745 1.386 . S
C1744 C1746 1.391 . S
C1745 C1744 1.386 . S
C1745 C1749 1.393 . S
C1746 H1738 0.950 . S
C1746 C1744 1.391 . S
C1746 C1747 1.400 . S
C1747 C1746 1.400 . S
C1747 C1748 1.398 . S
C1747 C1753 1.491 . S
C1748 H1739 0.950 . S
C1748 C1747 1.398 . S
C1748 C1749 1.391 . S
C1749 H1737 0.950 . S
C1749 C1745 1.393 . S
C1749 C1748 1.391 . S
C1750 H1740 0.950 . S
C1750 C1751 1.386 . S
C1750 C1752 1.391 . S
C1751 C1750 1.386 . S
C1751 C1755 1.393 . S
C1752 H1741 0.950 . S
C1752 C1750 1.391 . S
C1752 C1753 1.400 . S
C1753 C1747 1.491 . S
C1753 C1752 1.400 . S
C1753 C1754 1.398 . S
C1754 H1742 0.950 . S
C1754 C1753 1.398 . S
C1754 C1755 1.391 . S
C1755 H1743 0.950 1_545 S
C1755 C1751 1.393 . S
C1755 C1754 1.391 . S
H1756 C1764 0.950 . S
H1757 C1769 0.950 . S
H1758 C1766 0.950 . S
H1759 C1768 0.950 . S
H1760 C1770 0.950 . S
H1761 C1772 0.950 . S
H1762 C1774 0.950 . S
H1763 C1775 0.950 . S
C1764 H1756 0.950 . S
C1764 C1765 1.386 . S
C1764 C1766 1.391 . S
C1765 C1764 1.386 . S
C1765 C1769 1.393 . S
C1766 H1758 0.950 . S
C1766 C1764 1.391 . S
C1766 C1767 1.400 . S
C1767 C1766 1.400 . S
C1767 C1768 1.398 . S
C1767 C1773 1.491 . S
C1768 H1759 0.950 . S
C1768 C1767 1.398 . S
C1768 C1769 1.391 . S
C1769 H1757 0.950 . S
C1769 C1765 1.393 . S
C1769 C1768 1.391 . S
C1770 H1760 0.950 . S
C1770 C1771 1.386 . S
C1770 C1772 1.391 . S
C1771 C1770 1.386 . S
C1771 C1775 1.393 . S
C1772 H1761 0.950 . S
C1772 C1770 1.391 . S
C1772 C1773 1.400 . S
C1773 C1767 1.491 . S
C1773 C1772 1.400 . S
C1773 C1774 1.398 . S
C1774 H1762 0.950 . S
C1774 C1773 1.398 . S
C1774 C1775 1.391 . S
C1775 H1763 0.950 . S
C1775 C1771 1.393 . S
C1775 C1774 1.391 . S
H1776 C1784 0.950 . S
H1777 C1789 0.950 . S
H1778 C1786 0.950 . S
H1779 C1788 0.950 . S
H1780 C1790 0.950 . S
H1781 C1792 0.950 1_554 S
H1782 C1794 0.950 . S
H1783 C1795 0.950 . S
C1784 H1776 0.950 . S
C1784 C1785 1.397 . S
C1784 C1786 1.391 . S
C1785 C1784 1.397 . S
C1785 C1789 1.385 1_556 S
C1786 H1778 0.950 . S
C1786 C1784 1.391 . S
C1786 C1787 1.400 . S
C1787 C1786 1.400 . S
C1787 C1788 1.398 1_556 S
C1787 C1793 1.491 . S
C1788 H1779 0.950 . S
C1788 C1787 1.398 1_554 S
C1788 C1789 1.391 . S
C1789 H1777 0.950 . S
C1789 C1785 1.385 1_554 S
C1789 C1788 1.391 . S
C1790 H1780 0.950 . S
C1790 C1791 1.386 . S
C1790 C1792 1.391 . S
C1791 C1790 1.386 . S
C1791 C1795 1.393 . S
C1792 H1781 0.950 1_556 S
C1792 C1790 1.391 . S
C1792 C1793 1.400 . S
C1793 C1787 1.491 . S
C1793 C1792 1.400 . S
C1793 C1794 1.398 . S
C1794 H1782 0.950 . S
C1794 C1793 1.398 . S
C1794 C1795 1.391 . S
C1795 H1783 0.950 . S
C1795 C1791 1.393 . S
C1795 C1794 1.391 . S
H1796 C1804 0.950 . S
H1797 C1809 0.950 . S
H1798 C1806 0.950 . S
H1799 C1808 0.950 . S
H1800 C1810 0.950 . S
H1801 C1812 0.950 . S
H1802 C1814 0.950 . S
H1803 C1815 0.950 . S
C1804 H1796 0.950 . S
C1804 C1805 1.386 . S
C1804 C1806 1.391 . S
C1805 C1804 1.386 . S
C1805 C1809 1.393 . S
C1806 H1798 0.950 . S
C1806 C1804 1.391 . S
C1806 C1807 1.400 . S
C1807 C1806 1.400 . S
C1807 C1808 1.398 . S
C1807 C1813 1.491 . S
C1808 H1799 0.950 . S
C1808 C1807 1.398 . S
C1808 C1809 1.391 . S
C1809 H1797 0.950 . S
C1809 C1805 1.393 . S
C1809 C1808 1.391 . S
C1810 H1800 0.950 . S
C1810 C1811 1.386 . S
C1810 C1812 1.391 . S
C1811 C1810 1.386 . S
C1811 C1815 1.393 . S
C1812 H1801 0.950 . S
C1812 C1810 1.391 . S
C1812 C1813 1.400 . S
C1813 C1807 1.491 . S
C1813 C1812 1.400 . S
C1813 C1814 1.398 . S
C1814 H1802 0.950 . S
C1814 C1813 1.398 . S
C1814 C1815 1.391 . S
C1815 H1803 0.950 . S
C1815 C1811 1.393 . S
C1815 C1814 1.391 . S
H1816 C1824 0.950 . S
H1817 C1829 0.950 . S
H1818 C1826 0.950 . S
H1819 C1828 0.950 . S
H1820 C1830 0.950 . S
H1821 C1832 0.950 . S
H1822 C1834 0.950 . S
H1823 C1835 0.950 . S
C1824 H1816 0.950 . S
C1824 C1825 1.386 . S
C1824 C1826 1.391 . S
C1825 C1824 1.386 . S
C1825 C1829 1.393 . S
C1826 H1818 0.950 . S
C1826 C1824 1.391 . S
C1826 C1827 1.400 . S
C1827 C1826 1.400 . S
C1827 C1828 1.398 . S
C1827 C1833 1.491 . S
C1828 H1819 0.950 . S
C1828 C1827 1.398 . S
C1828 C1829 1.391 . S
C1829 H1817 0.950 . S
C1829 C1825 1.393 . S
C1829 C1828 1.391 . S
C1830 H1820 0.950 . S
C1830 C1831 1.386 . S
C1830 C1832 1.391 . S
C1831 C1830 1.386 . S
C1831 C1835 1.393 . S
C1832 H1821 0.950 . S
C1832 C1830 1.391 . S
C1832 C1833 1.400 . S
C1833 C1827 1.491 . S
C1833 C1832 1.400 . S
C1833 C1834 1.398 . S
C1834 H1822 0.950 . S
C1834 C1833 1.398 . S
C1834 C1835 1.391 . S
C1835 H1823 0.950 . S
C1835 C1831 1.393 . S
C1835 C1834 1.391 . S
H1836 C1844 0.950 . S
H1837 C1849 0.950 . S
H1838 C1846 0.950 . S
H1839 C1848 0.950 . S
H1840 C1850 0.950 . S
H1841 C1852 0.950 . S
H1842 C1854 0.950 . S
H1843 C1855 0.950 . S
C1844 H1836 0.950 . S
C1844 C1845 1.386 . S
C1844 C1846 1.391 . S
C1845 C1844 1.386 . S
C1845 C1849 1.393 . S
C1846 H1838 0.950 . S
C1846 C1844 1.391 . S
C1846 C1847 1.400 . S
C1847 C1846 1.400 . S
C1847 C1848 1.398 . S
C1847 C1853 1.491 . S
C1848 H1839 0.950 . S
C1848 C1847 1.398 . S
C1848 C1849 1.391 . S
C1849 H1837 0.950 . S
C1849 C1845 1.393 . S
C1849 C1848 1.391 . S
C1850 H1840 0.950 . S
C1850 C1851 1.386 . S
C1850 C1852 1.391 . S
C1851 C1850 1.386 . S
C1851 C1855 1.393 . S
C1852 H1841 0.950 . S
C1852 C1850 1.391 . S
C1852 C1853 1.400 . S
C1853 C1847 1.491 . S
C1853 C1852 1.400 . S
C1853 C1854 1.398 . S
C1854 H1842 0.950 . S
C1854 C1853 1.398 . S
C1854 C1855 1.391 . S
C1855 H1843 0.950 . S
C1855 C1851 1.393 . S
C1855 C1854 1.391 . S
H1856 C1864 0.950 . S
H1857 C1869 0.950 . S
H1858 C1866 0.950 . S
H1859 C1868 0.950 . S
H1860 C1870 0.950 . S
H1861 C1872 0.950 . S
H1862 C1874 0.950 . S
H1863 C1875 0.950 . S
C1864 H1856 0.950 . S
C1864 C1865 1.386 . S
C1864 C1866 1.391 . S
C1865 C1864 1.386 . S
C1865 C1869 1.393 . S
C1866 H1858 0.950 . S
C1866 C1864 1.391 . S
C1866 C1867 1.400 . S
C1867 C1866 1.400 . S
C1867 C1868 1.398 . S
C1867 C1873 1.491 . S
C1868 H1859 0.950 . S
C1868 C1867 1.398 . S
C1868 C1869 1.391 . S
C1869 H1857 0.950 . S
C1869 C1865 1.393 . S
C1869 C1868 1.391 . S
C1870 H1860 0.950 . S
C1870 C1871 1.386 . S
C1870 C1872 1.391 . S
C1871 C1870 1.386 . S
C1871 C1875 1.393 . S
C1872 H1861 0.950 . S
C1872 C1870 1.391 . S
C1872 C1873 1.400 . S
C1873 C1867 1.491 . S
C1873 C1872 1.400 . S
C1873 C1874 1.398 . S
C1874 H1862 0.950 . S
C1874 C1873 1.398 . S
C1874 C1875 1.391 . S
C1875 H1863 0.950 . S
C1875 C1871 1.393 . S
C1875 C1874 1.391 . S
H1876 C1884 0.950 . S
H1877 C1889 0.950 . S
H1878 C1886 0.950 . S
H1879 C1888 0.950 . S
H1880 C1890 0.950 . S
H1881 C1892 0.950 . S
H1882 C1894 0.950 . S
H1883 C1895 0.950 . S
C1884 H1876 0.950 . S
C1884 C1885 1.386 . S
C1884 C1886 1.391 . S
C1885 C1884 1.386 . S
C1885 C1889 1.393 . S
C1886 H1878 0.950 . S
C1886 C1884 1.391 . S
C1886 C1887 1.400 . S
C1887 C1886 1.400 . S
C1887 C1888 1.398 . S
C1887 C1893 1.491 . S
C1888 H1879 0.950 . S
C1888 C1887 1.398 . S
C1888 C1889 1.391 . S
C1889 H1877 0.950 . S
C1889 C1885 1.393 . S
C1889 C1888 1.391 . S
C1890 H1880 0.950 . S
C1890 C1891 1.386 . S
C1890 C1892 1.391 . S
C1891 C1890 1.386 . S
C1891 C1895 1.393 . S
C1892 H1881 0.950 . S
C1892 C1890 1.391 . S
C1892 C1893 1.400 . S
C1893 C1887 1.491 . S
C1893 C1892 1.400 . S
C1893 C1894 1.398 . S
C1894 H1882 0.950 . S
C1894 C1893 1.398 . S
C1894 C1895 1.391 . S
C1895 H1883 0.950 . S
C1895 C1891 1.393 . S
C1895 C1894 1.391 . S
H1896 C1904 0.950 . S
H1897 C1909 0.950 . S
H1898 C1906 0.950 . S
H1899 C1908 0.950 . S
H1900 C1910 0.950 . S
H1901 C1912 0.950 . S
H1902 C1914 0.950 . S
H1903 C1915 0.950 . S
C1904 H1896 0.950 . S
C1904 C1905 1.386 . S
C1904 C1906 1.391 . S
C1905 C1904 1.386 . S
C1905 C1909 1.393 . S
C1906 H1898 0.950 . S
C1906 C1904 1.391 . S
C1906 C1907 1.400 . S
C1907 C1906 1.400 . S
C1907 C1908 1.398 . S
C1907 C1913 1.491 . S
C1908 H1899 0.950 . S
C1908 C1907 1.398 . S
C1908 C1909 1.391 . S
C1909 H1897 0.950 . S
C1909 C1905 1.393 . S
C1909 C1908 1.391 . S
C1910 H1900 0.950 . S
C1910 C1911 1.386 . S
C1910 C1912 1.391 . S
C1911 C1910 1.386 . S
C1911 C1915 1.393 . S
C1912 H1901 0.950 . S
C1912 C1910 1.391 . S
C1912 C1913 1.400 . S
C1913 C1907 1.491 . S
C1913 C1912 1.400 . S
C1913 C1914 1.398 . S
C1914 H1902 0.950 . S
C1914 C1913 1.398 . S
C1914 C1915 1.391 . S
C1915 H1903 0.950 . S
C1915 C1911 1.393 . S
C1915 C1914 1.391 . S
H1916 C1924 0.950 . S
H1917 C1929 0.950 . S
H1918 C1926 0.950 . S
H1919 C1928 0.950 . S
H1920 C1930 0.950 . S
H1921 C1932 0.950 . S
H1922 C1934 0.950 . S
H1923 C1935 0.950 . S
C1924 H1916 0.950 . S
C1924 C1925 1.386 . S
C1924 C1926 1.391 . S
C1925 C1924 1.386 . S
C1925 C1929 1.393 . S
C1926 H1918 0.950 . S
C1926 C1924 1.391 . S
C1926 C1927 1.400 . S
C1927 C1926 1.400 . S
C1927 C1928 1.398 . S
C1927 C1933 1.491 . S
C1928 H1919 0.950 . S
C1928 C1927 1.398 . S
C1928 C1929 1.391 . S
C1929 H1917 0.950 . S
C1929 C1925 1.393 . S
C1929 C1928 1.391 . S
C1930 H1920 0.950 . S
C1930 C1931 1.386 . S
C1930 C1932 1.391 . S
C1931 C1930 1.386 . S
C1931 C1935 1.393 . S
C1932 H1921 0.950 . S
C1932 C1930 1.391 . S
C1932 C1933 1.400 . S
C1933 C1927 1.491 . S
C1933 C1932 1.400 . S
C1933 C1934 1.398 . S
C1934 H1922 0.950 . S
C1934 C1933 1.398 . S
C1934 C1935 1.391 . S
C1935 H1923 0.950 . S
C1935 C1931 1.393 . S
C1935 C1934 1.391 . S
H1936 C1944 0.950 . S
H1937 C1949 0.950 . S
H1938 C1946 0.950 . S
H1939 C1948 0.950 . S
H1940 C1950 0.950 . S
H1941 C1952 0.950 . S
H1942 C1954 0.950 . S
H1943 C1955 0.950 . S
C1944 H1936 0.950 . S
C1944 C1945 1.386 . S
C1944 C1946 1.391 . S
C1945 C1944 1.386 . S
C1945 C1949 1.393 . S
C1946 H1938 0.950 . S
C1946 C1944 1.391 . S
C1946 C1947 1.400 . S
C1947 C1946 1.400 . S
C1947 C1948 1.398 . S
C1947 C1953 1.491 . S
C1948 H1939 0.950 . S
C1948 C1947 1.398 . S
C1948 C1949 1.391 . S
C1949 H1937 0.950 . S
C1949 C1945 1.393 . S
C1949 C1948 1.391 . S
C1950 H1940 0.950 . S
C1950 C1951 1.386 . S
C1950 C1952 1.391 . S
C1951 C1950 1.386 . S
C1951 C1955 1.393 . S
C1952 H1941 0.950 . S
C1952 C1950 1.391 . S
C1952 C1953 1.400 . S
C1953 C1947 1.491 . S
C1953 C1952 1.400 . S
C1953 C1954 1.398 . S
C1954 H1942 0.950 . S
C1954 C1953 1.398 . S
C1954 C1955 1.391 . S
C1955 H1943 0.950 . S
C1955 C1951 1.393 . S
C1955 C1954 1.391 . S
H1956 C1964 0.950 . S
H1957 C1969 0.950 . S
H1958 C1966 0.950 . S
H1959 C1968 0.950 . S
H1960 C1970 0.950 . S
H1961 C1972 0.950 . S
H1962 C1974 0.950 . S
H1963 C1975 0.950 . S
C1964 H1956 0.950 . S
C1964 C1965 1.386 . S
C1964 C1966 1.391 . S
C1965 C1964 1.386 . S
C1965 C1969 1.393 . S
C1966 H1958 0.950 . S
C1966 C1964 1.391 . S
C1966 C1967 1.400 . S
C1967 C1966 1.400 . S
C1967 C1968 1.398 . S
C1967 C1973 1.491 . S
C1968 H1959 0.950 . S
C1968 C1967 1.398 . S
C1968 C1969 1.391 . S
C1969 H1957 0.950 . S
C1969 C1965 1.393 . S
C1969 C1968 1.391 . S
C1970 H1960 0.950 . S
C1970 C1971 1.386 . S
C1970 C1972 1.391 . S
C1971 C1970 1.386 . S
C1971 C1975 1.393 . S
C1972 H1961 0.950 . S
C1972 C1970 1.391 . S
C1972 C1973 1.400 . S
C1973 C1967 1.491 . S
C1973 C1972 1.400 . S
C1973 C1974 1.398 . S
C1974 H1962 0.950 . S
C1974 C1973 1.398 . S
C1974 C1975 1.391 . S
C1975 H1963 0.950 . S
C1975 C1971 1.393 . S
C1975 C1974 1.391 . S
H1976 C1984 0.950 . S
H1977 C1989 0.950 . S
H1978 C1986 0.950 1_655 S
H1979 C1988 0.950 . S
H1980 C1990 0.950 . S
H1981 C1992 0.950 . S
H1982 C1994 0.952 . S
H1983 C1995 0.950 . S
C1984 H1976 0.950 . S
C1984 C1985 1.386 1_655 S
C1984 C1986 1.391 1_655 S
C1985 C1984 1.386 1_455 S
C1985 C1989 1.393 . S
C1986 H1978 0.950 1_455 S
C1986 C1984 1.391 1_455 S
C1986 C1987 1.400 . S
C1987 C1986 1.400 . S
C1987 C1988 1.398 . S
C1987 C1993 1.491 . S
C1988 H1979 0.950 . S
C1988 C1987 1.398 . S
C1988 C1989 1.391 . S
C1989 H1977 0.950 . S
C1989 C1985 1.393 . S
C1989 C1988 1.391 . S
C1990 H1980 0.950 . S
C1990 C1991 1.386 . S
C1990 C1992 1.391 . S
C1991 C1990 1.386 . S
C1991 C1995 1.393 . S
C1992 H1981 0.950 . S
C1992 C1990 1.391 . S
C1992 C1993 1.400 . S
C1993 C1987 1.491 . S
C1993 C1992 1.400 . S
C1993 C1994 1.398 . S
C1994 H1982 0.952 . S
C1994 C1993 1.398 . S
C1994 C1995 1.391 . S
C1995 H1983 0.950 . S
C1995 C1991 1.393 . S
C1995 C1994 1.391 . S
H1996 C2004 0.950 . S
H1997 C2009 0.950 . S
H1998 C2006 0.980 . S
H1999 C2008 0.950 . S
H2000 C2010 0.950 . S
H2001 C2012 0.950 . S
H2002 C2014 0.950 . S
H2003 C2015 0.950 . S
C2004 H1996 0.950 . S
C2004 C2005 1.386 . S
C2004 C2006 1.391 . S
C2005 C2004 1.386 . S
C2005 C2009 1.393 . S
C2006 H1998 0.980 . S
C2006 C2004 1.391 . S
C2006 C2007 1.400 . S
C2007 C2006 1.400 . S
C2007 C2008 1.398 . S
C2007 C2013 1.491 1_455 S
C2008 H1999 0.950 . S
C2008 C2007 1.398 . S
C2008 C2009 1.391 . S
C2009 H1997 0.950 . S
C2009 C2005 1.393 . S
C2009 C2008 1.391 . S
C2010 H2000 0.950 . S
C2010 C2011 1.386 . S
C2010 C2012 1.391 . S
C2011 C2010 1.386 . S
C2011 C2015 1.393 . S
C2012 H2001 0.950 . S
C2012 C2010 1.391 . S
C2012 C2013 1.400 . S
C2013 C2007 1.491 1_655 S
C2013 C2012 1.400 . S
C2013 C2014 1.398 . S
C2014 H2002 0.950 . S
C2014 C2013 1.398 . S
C2014 C2015 1.391 . S
C2015 H2003 0.950 . S
C2015 C2011 1.393 . S
C2015 C2014 1.391 . S
H2016 C2024 0.950 . S
H2017 C2029 0.950 . S
H2018 C2026 0.950 . S
H2019 C2028 0.950 . S
H2020 C2030 0.950 . S
H2021 C2032 0.950 . S
H2022 C2034 0.950 . S
H2023 C2035 0.950 . S
C2024 H2016 0.950 . S
C2024 C2025 1.386 . S
C2024 C2026 1.391 . S
C2025 C2024 1.386 . S
C2025 C2029 1.393 . S
C2026 H2018 0.950 . S
C2026 C2024 1.391 . S
C2026 C2027 1.400 . S
C2027 C2026 1.400 . S
C2027 C2028 1.398 . S
C2027 C2033 1.491 . S
C2028 H2019 0.950 . S
C2028 C2027 1.398 . S
C2028 C2029 1.391 . S
C2029 H2017 0.950 . S
C2029 C2025 1.393 . S
C2029 C2028 1.391 . S
C2030 H2020 0.950 . S
C2030 C2031 1.386 . S
C2030 C2032 1.391 . S
C2031 C2030 1.386 . S
C2031 C2035 1.393 . S
C2032 H2021 0.950 . S
C2032 C2030 1.391 . S
C2032 C2033 1.400 . S
C2033 C2027 1.491 . S
C2033 C2032 1.400 . S
C2033 C2034 1.398 . S
C2034 H2022 0.950 . S
C2034 C2033 1.398 . S
C2034 C2035 1.391 . S
C2035 H2023 0.950 . S
C2035 C2031 1.393 . S
C2035 C2034 1.391 . S
H2036 C2044 0.950 . S
H2037 C2049 0.950 . S
H2038 C2046 0.950 . S
H2039 C2048 0.950 . S
H2040 C2050 0.950 . S
H2041 C2052 0.950 . S
H2042 C2054 0.950 . S
H2043 C2055 0.950 . S
C2044 H2036 0.950 . S
C2044 C2045 1.386 . S
C2044 C2046 1.391 . S
C2045 C2044 1.386 . S
C2045 C2049 1.393 . S
C2046 H2038 0.950 . S
C2046 C2044 1.391 . S
C2046 C2047 1.400 . S
C2047 C2046 1.400 . S
C2047 C2048 1.398 . S
C2047 C2053 1.491 . S
C2048 H2039 0.950 . S
C2048 C2047 1.398 . S
C2048 C2049 1.391 . S
C2049 H2037 0.950 . S
C2049 C2045 1.393 . S
C2049 C2048 1.391 . S
C2050 H2040 0.950 . S
C2050 C2051 1.386 . S
C2050 C2052 1.391 . S
C2051 C2050 1.386 . S
C2051 C2055 1.393 . S
C2052 H2041 0.950 . S
C2052 C2050 1.391 . S
C2052 C2053 1.400 . S
C2053 C2047 1.491 . S
C2053 C2052 1.400 . S
C2053 C2054 1.398 . S
C2054 H2042 0.950 . S
C2054 C2053 1.398 . S
C2054 C2055 1.391 . S
C2055 H2043 0.950 . S
C2055 C2051 1.393 . S
C2055 C2054 1.391 . S
H2056 C2064 0.950 . S
H2057 C2069 0.950 . S
H2058 C2066 0.950 . S
H2059 C2068 0.950 . S
H2060 C2070 0.950 . S
H2061 C2072 0.950 . S
H2062 C2074 0.950 . S
H2063 C2075 0.950 . S
C2064 H2056 0.950 . S
C2064 C2065 1.386 . S
C2064 C2066 1.391 . S
C2065 C2064 1.386 . S
C2065 C2069 1.393 . S
C2066 H2058 0.950 . S
C2066 C2064 1.391 . S
C2066 C2067 1.400 . S
C2067 C2066 1.400 . S
C2067 C2068 1.398 . S
C2067 C2073 1.491 . S
C2068 H2059 0.950 . S
C2068 C2067 1.398 . S
C2068 C2069 1.391 . S
C2069 H2057 0.950 . S
C2069 C2065 1.393 . S
C2069 C2068 1.391 . S
C2070 H2060 0.950 . S
C2070 C2071 1.386 . S
C2070 C2072 1.391 . S
C2071 C2070 1.386 . S
C2071 C2075 1.393 . S
C2072 H2061 0.950 . S
C2072 C2070 1.391 . S
C2072 C2073 1.400 . S
C2073 C2067 1.491 . S
C2073 C2072 1.400 . S
C2073 C2074 1.398 . S
C2074 H2062 0.950 . S
C2074 C2073 1.398 . S
C2074 C2075 1.391 . S
C2075 H2063 0.950 . S
C2075 C2071 1.393 . S
C2075 C2074 1.391 . S
H2076 C2084 0.950 . S
H2077 C2089 0.950 . S
H2078 C2086 0.950 . S
H2079 C2088 0.950 . S
H2080 C2090 0.950 . S
H2081 C2092 0.950 . S
H2082 C2094 0.950 . S
H2083 C2095 0.950 . S
C2084 H2076 0.950 . S
C2084 C2085 1.386 . S
C2084 C2086 1.391 . S
C2085 C2084 1.386 . S
C2085 C2089 1.393 . S
C2086 H2078 0.950 . S
C2086 C2084 1.391 . S
C2086 C2087 1.400 . S
C2087 C2086 1.400 . S
C2087 C2088 1.398 . S
C2087 C2093 1.491 . S
C2088 H2079 0.950 . S
C2088 C2087 1.398 . S
C2088 C2089 1.391 . S
C2089 H2077 0.950 . S
C2089 C2085 1.393 . S
C2089 C2088 1.391 . S
C2090 H2080 0.950 . S
C2090 C2091 1.386 . S
C2090 C2092 1.391 . S
C2091 C2090 1.386 . S
C2091 C2095 1.393 . S
C2092 H2081 0.950 . S
C2092 C2090 1.391 . S
C2092 C2093 1.400 . S
C2093 C2087 1.491 . S
C2093 C2092 1.400 . S
C2093 C2094 1.398 . S
C2094 H2082 0.950 . S
C2094 C2093 1.398 . S
C2094 C2095 1.391 . S
C2095 H2083 0.950 . S
C2095 C2091 1.393 . S
C2095 C2094 1.391 . S
H2096 C2104 0.950 . S
H2097 C2109 0.950 . S
H2098 C2106 0.950 . S
H2099 C2108 0.950 . S
H2100 C2110 0.950 . S
H2101 C2112 0.950 . S
H2102 C2114 0.950 . S
H2103 C2115 0.950 . S
C2104 H2096 0.950 . S
C2104 C2105 1.386 . S
C2104 C2106 1.391 . S
C2105 C2104 1.386 . S
C2105 C2109 1.393 . S
C2106 H2098 0.950 . S
C2106 C2104 1.391 . S
C2106 C2107 1.400 . S
C2107 C2106 1.400 . S
C2107 C2108 1.398 . S
C2107 C2113 1.491 . S
C2108 H2099 0.950 . S
C2108 C2107 1.398 . S
C2108 C2109 1.391 . S
C2109 H2097 0.950 . S
C2109 C2105 1.393 . S
C2109 C2108 1.391 . S
C2110 H2100 0.950 . S
C2110 C2111 1.386 . S
C2110 C2112 1.391 . S
C2111 C2110 1.386 . S
C2111 C2115 1.393 . S
C2112 H2101 0.950 . S
C2112 C2110 1.391 . S
C2112 C2113 1.400 . S
C2113 C2107 1.491 . S
C2113 C2112 1.400 . S
C2113 C2114 1.398 . S
C2114 H2102 0.950 . S
C2114 C2113 1.398 . S
C2114 C2115 1.391 . S
C2115 H2103 0.950 . S
C2115 C2111 1.393 . S
C2115 C2114 1.391 . S
H2116 C2124 0.950 . S
H2117 C2129 0.950 . S
H2118 C2126 0.950 . S
H2119 C2128 0.950 . S
H2120 C2130 0.950 . S
H2121 C2132 0.950 . S
H2122 C2134 0.950 . S
H2123 C2135 0.950 . S
C2124 H2116 0.950 . S
C2124 C2125 1.386 . S
C2124 C2126 1.391 . S
C2125 C2124 1.386 . S
C2125 C2129 1.393 . S
C2126 H2118 0.950 . S
C2126 C2124 1.391 . S
C2126 C2127 1.400 . S
C2127 C2126 1.400 . S
C2127 C2128 1.398 . S
C2127 C2133 1.491 . S
C2128 H2119 0.950 . S
C2128 C2127 1.398 . S
C2128 C2129 1.391 . S
C2129 H2117 0.950 . S
C2129 C2125 1.393 . S
C2129 C2128 1.391 . S
C2130 H2120 0.950 . S
C2130 C2131 1.386 . S
C2130 C2132 1.391 . S
C2131 C2130 1.386 . S
C2131 C2135 1.393 . S
C2132 H2121 0.950 . S
C2132 C2130 1.391 . S
C2132 C2133 1.400 . S
C2133 C2127 1.491 . S
C2133 C2132 1.400 . S
C2133 C2134 1.398 . S
C2134 H2122 0.950 . S
C2134 C2133 1.398 . S
C2134 C2135 1.391 . S
C2135 H2123 0.950 . S
C2135 C2131 1.393 . S
C2135 C2134 1.391 . S
H2136 C2144 0.950 . S
H2137 C2149 0.950 . S
H2138 C2146 0.950 . S
H2139 C2148 0.950 . S
H2140 C2150 0.950 . S
H2141 C2152 0.950 . S
H2142 C2154 0.950 . S
H2143 C2155 0.950 . S
C2144 H2136 0.950 . S
C2144 C2145 1.386 . S
C2144 C2146 1.391 . S
C2145 C2144 1.386 . S
C2145 C2149 1.393 . S
C2146 H2138 0.950 . S
C2146 C2144 1.391 . S
C2146 C2147 1.400 . S
C2147 C2146 1.400 . S
C2147 C2148 1.398 . S
C2147 C2153 1.491 . S
C2148 H2139 0.950 . S
C2148 C2147 1.398 . S
C2148 C2149 1.391 . S
C2149 H2137 0.950 . S
C2149 C2145 1.393 . S
C2149 C2148 1.391 . S
C2150 H2140 0.950 . S
C2150 C2151 1.386 . S
C2150 C2152 1.391 . S
C2151 C2150 1.386 . S
C2151 C2155 1.393 . S
C2152 H2141 0.950 . S
C2152 C2150 1.391 . S
C2152 C2153 1.400 . S
C2153 C2147 1.491 . S
C2153 C2152 1.400 . S
C2153 C2154 1.398 . S
C2154 H2142 0.950 . S
C2154 C2153 1.398 . S
C2154 C2155 1.391 . S
C2155 H2143 0.950 . S
C2155 C2151 1.393 . S
C2155 C2154 1.391 . S
H2156 C2164 0.950 . S
H2157 C2169 0.950 . S
H2158 C2166 0.950 . S
H2159 C2168 0.950 . S
H2160 C2170 0.950 . S
H2161 C2172 0.950 . S
H2162 C2174 0.950 . S
H2163 C2175 0.950 . S
C2164 H2156 0.950 . S
C2164 C2165 1.386 . S
C2164 C2166 1.391 . S
C2165 C2164 1.386 . S
C2165 C2169 1.393 . S
C2166 H2158 0.950 . S
C2166 C2164 1.391 . S
C2166 C2167 1.400 . S
C2167 C2166 1.400 . S
C2167 C2168 1.398 . S
C2167 C2173 1.491 . S
C2168 H2159 0.950 . S
C2168 C2167 1.398 . S
C2168 C2169 1.391 . S
C2169 H2157 0.950 . S
C2169 C2165 1.393 . S
C2169 C2168 1.391 . S
C2170 H2160 0.950 . S
C2170 C2171 1.386 . S
C2170 C2172 1.391 . S
C2171 C2170 1.386 . S
C2171 C2175 1.393 . S
C2172 H2161 0.950 . S
C2172 C2170 1.391 . S
C2172 C2173 1.400 . S
C2173 C2167 1.491 . S
C2173 C2172 1.400 . S
C2173 C2174 1.398 . S
C2174 H2162 0.950 . S
C2174 C2173 1.398 . S
C2174 C2175 1.391 . S
C2175 H2163 0.950 . S
C2175 C2171 1.393 . S
C2175 C2174 1.391 . S
H2176 C2184 0.950 . S
H2177 C2189 0.950 . S
H2178 C2186 0.950 . S
H2179 C2188 0.950 . S
H2180 C2190 0.950 . S
H2181 C2192 0.950 . S
H2182 C2194 0.950 . S
H2183 C2195 0.950 . S
C2184 H2176 0.950 . S
C2184 C2185 1.386 . S
C2184 C2186 1.391 . S
C2185 C2184 1.386 . S
C2185 C2189 1.393 . S
C2186 H2178 0.950 . S
C2186 C2184 1.391 . S
C2186 C2187 1.400 . S
C2187 C2186 1.400 . S
C2187 C2188 1.398 . S
C2187 C2193 1.491 . S
C2188 H2179 0.950 . S
C2188 C2187 1.398 . S
C2188 C2189 1.391 . S
C2189 H2177 0.950 . S
C2189 C2185 1.393 . S
C2189 C2188 1.391 . S
C2190 H2180 0.950 . S
C2190 C2191 1.386 . S
C2190 C2192 1.391 . S
C2191 C2190 1.386 . S
C2191 C2195 1.393 . S
C2192 H2181 0.950 . S
C2192 C2190 1.391 . S
C2192 C2193 1.400 . S
C2193 C2187 1.491 . S
C2193 C2192 1.400 . S
C2193 C2194 1.398 . S
C2194 H2182 0.950 . S
C2194 C2193 1.398 . S
C2194 C2195 1.391 . S
C2195 H2183 0.950 . S
C2195 C2191 1.393 . S
C2195 C2194 1.391 . S
H2196 C2204 0.950 . S
H2197 C2209 0.950 . S
H2198 C2206 0.950 . S
H2199 C2208 0.950 . S
H2200 C2210 0.950 . S
H2201 C2212 0.950 . S
H2202 C2214 0.950 . S
H2203 C2215 0.950 . S
C2204 H2196 0.950 . S
C2204 C2205 1.386 . S
C2204 C2206 1.391 . S
C2205 C2204 1.386 . S
C2205 C2209 1.393 . S
C2206 H2198 0.950 . S
C2206 C2204 1.391 . S
C2206 C2207 1.400 . S
C2207 C2206 1.400 . S
C2207 C2208 1.398 . S
C2207 C2213 1.491 . S
C2208 H2199 0.950 . S
C2208 C2207 1.398 . S
C2208 C2209 1.391 . S
C2209 H2197 0.950 . S
C2209 C2205 1.393 . S
C2209 C2208 1.391 . S
C2210 H2200 0.950 . S
C2210 C2211 1.386 . S
C2210 C2212 1.391 . S
C2211 C2210 1.386 . S
C2211 C2215 1.393 . S
C2212 H2201 0.950 . S
C2212 C2210 1.391 . S
C2212 C2213 1.400 . S
C2213 C2207 1.491 . S
C2213 C2212 1.400 . S
C2213 C2214 1.398 . S
C2214 H2202 0.950 . S
C2214 C2213 1.398 . S
C2214 C2215 1.391 . S
C2215 H2203 0.950 . S
C2215 C2211 1.393 . S
C2215 C2214 1.391 . S
H2216 C2224 0.950 . S
H2217 C2229 0.950 . S
H2218 C2226 0.950 . S
H2219 C2228 0.950 . S
H2220 C2230 0.950 . S
H2221 C2232 0.950 . S
H2222 C2234 0.950 . S
H2223 C2235 0.950 . S
C2224 H2216 0.950 . S
C2224 C2225 1.386 . S
C2224 C2226 1.391 . S
C2225 C2224 1.386 . S
C2225 C2229 1.393 . S
C2226 H2218 0.950 . S
C2226 C2224 1.391 . S
C2226 C2227 1.400 . S
C2227 C2226 1.400 . S
C2227 C2228 1.398 . S
C2227 C2233 1.491 . S
C2228 H2219 0.950 . S
C2228 C2227 1.398 . S
C2228 C2229 1.391 . S
C2229 H2217 0.950 . S
C2229 C2225 1.393 . S
C2229 C2228 1.391 . S
C2230 H2220 0.950 . S
C2230 C2231 1.386 . S
C2230 C2232 1.391 . S
C2231 C2230 1.386 . S
C2231 C2235 1.393 . S
C2232 H2221 0.950 . S
C2232 C2230 1.391 . S
C2232 C2233 1.400 . S
C2233 C2227 1.491 . S
C2233 C2232 1.400 . S
C2233 C2234 1.398 . S
C2234 H2222 0.950 . S
C2234 C2233 1.398 . S
C2234 C2235 1.391 . S
C2235 H2223 0.950 . S
C2235 C2231 1.393 . S
C2235 C2234 1.391 . S
H2236 C2244 0.950 . S
H2237 C2249 0.950 . S
H2238 C2246 0.950 . S
H2239 C2248 0.950 . S
H2240 C2250 0.950 . S
H2241 C2252 0.950 . S
H2242 C2254 0.950 . S
H2243 C2255 0.950 . S
C2244 H2236 0.950 . S
C2244 C2245 1.386 . S
C2244 C2246 1.391 . S
C2245 C2244 1.386 . S
C2245 C2249 1.393 . S
C2246 H2238 0.950 . S
C2246 C2244 1.391 . S
C2246 C2247 1.400 . S
C2247 C2246 1.400 . S
C2247 C2248 1.398 . S
C2247 C2253 1.491 . S
C2248 H2239 0.950 . S
C2248 C2247 1.398 . S
C2248 C2249 1.391 . S
C2249 H2237 0.950 . S
C2249 C2245 1.393 . S
C2249 C2248 1.391 . S
C2250 H2240 0.950 . S
C2250 C2251 1.386 . S
C2250 C2252 1.391 . S
C2251 C2250 1.386 . S
C2251 C2255 1.393 . S
C2252 H2241 0.950 . S
C2252 C2250 1.391 . S
C2252 C2253 1.400 . S
C2253 C2247 1.491 . S
C2253 C2252 1.400 . S
C2253 C2254 1.398 . S
C2254 H2242 0.950 . S
C2254 C2253 1.398 . S
C2254 C2255 1.391 . S
C2255 H2243 0.950 . S
C2255 C2251 1.393 . S
C2255 C2254 1.391 . S
H2256 C2264 0.950 . S
H2257 C2269 0.950 . S
H2258 C2266 0.950 . S
H2259 C2268 0.950 . S
H2260 C2270 0.950 . S
H2261 C2272 0.950 . S
H2262 C2274 0.950 . S
H2263 C2275 0.950 . S
C2264 H2256 0.950 . S
C2264 C2265 1.386 . S
C2264 C2266 1.391 . S
C2265 C2264 1.386 . S
C2265 C2269 1.393 . S
C2266 H2258 0.950 . S
C2266 C2264 1.391 . S
C2266 C2267 1.400 . S
C2267 C2266 1.400 . S
C2267 C2268 1.398 . S
C2267 C2273 1.491 . S
C2268 H2259 0.950 . S
C2268 C2267 1.398 . S
C2268 C2269 1.391 . S
C2269 H2257 0.950 . S
C2269 C2265 1.393 . S
C2269 C2268 1.391 . S
C2270 H2260 0.950 . S
C2270 C2271 1.386 . S
C2270 C2272 1.391 . S
C2271 C2270 1.386 . S
C2271 C2275 1.393 . S
C2272 H2261 0.950 . S
C2272 C2270 1.391 . S
C2272 C2273 1.400 . S
C2273 C2267 1.491 . S
C2273 C2272 1.400 . S
C2273 C2274 1.398 . S
C2274 H2262 0.950 . S
C2274 C2273 1.398 . S
C2274 C2275 1.391 . S
C2275 H2263 0.950 . S
C2275 C2271 1.393 . S
C2275 C2274 1.391 . S
H2276 C2284 0.950 . S
H2277 C2289 0.950 . S
H2278 C2286 0.950 . S
H2279 C2288 0.950 . S
H2280 C2290 0.950 . S
H2281 C2292 0.950 . S
H2282 C2294 0.950 . S
H2283 C2295 0.950 . S
C2284 H2276 0.950 . S
C2284 C2285 1.386 . S
C2284 C2286 1.391 . S
C2285 C2284 1.386 . S
C2285 C2289 1.393 . S
C2286 H2278 0.950 . S
C2286 C2284 1.391 . S
C2286 C2287 1.400 . S
C2287 C2286 1.400 . S
C2287 C2288 1.398 . S
C2287 C2293 1.491 . S
C2288 H2279 0.950 . S
C2288 C2287 1.398 . S
C2288 C2289 1.391 . S
C2289 H2277 0.950 . S
C2289 C2285 1.393 . S
C2289 C2288 1.391 . S
C2290 H2280 0.950 . S
C2290 C2291 1.386 . S
C2290 C2292 1.391 . S
C2291 C2290 1.386 . S
C2291 C2295 1.393 . S
C2292 H2281 0.950 . S
C2292 C2290 1.391 . S
C2292 C2293 1.400 . S
C2293 C2287 1.491 . S
C2293 C2292 1.400 . S
C2293 C2294 1.398 . S
C2294 H2282 0.950 . S
C2294 C2293 1.398 . S
C2294 C2295 1.391 . S
C2295 H2283 0.950 . S
C2295 C2291 1.393 . S
C2295 C2294 1.391 . S
H2296 C2304 0.950 . S
H2297 C2309 0.950 . S
H2298 C2306 0.950 . S
H2299 C2308 0.950 . S
H2300 C2310 0.950 . S
H2301 C2312 0.950 . S
H2302 C2314 0.950 . S
H2303 C2315 0.950 . S
C2304 H2296 0.950 . S
C2304 C2305 1.386 . S
C2304 C2306 1.391 1_545 S
C2305 C2304 1.386 . S
C2305 C2309 1.393 1_545 S
C2306 H2298 0.950 . S
C2306 C2304 1.391 1_565 S
C2306 C2307 1.400 . S
C2307 C2306 1.400 . S
C2307 C2308 1.398 . S
C2307 C2313 1.491 . S
C2308 H2299 0.950 . S
C2308 C2307 1.398 . S
C2308 C2309 1.391 . S
C2309 H2297 0.950 . S
C2309 C2305 1.393 1_565 S
C2309 C2308 1.391 . S
C2310 H2300 0.950 . S
C2310 C2311 1.386 . S
C2310 C2312 1.391 . S
C2311 C2310 1.386 . S
C2311 C2315 1.393 . S
C2312 H2301 0.950 . S
C2312 C2310 1.391 . S
C2312 C2313 1.400 . S
C2313 C2307 1.491 . S
C2313 C2312 1.400 . S
C2313 C2314 1.398 . S
C2314 H2302 0.950 . S
C2314 C2313 1.398 . S
C2314 C2315 1.391 . S
C2315 H2303 0.950 . S
C2315 C2311 1.393 . S
C2315 C2314 1.391 . S
H2316 C2324 0.950 . S
H2317 C2329 0.950 . S
H2318 C2326 0.950 . S
H2319 C2328 0.950 . S
H2320 C2330 0.950 . S
H2321 C2332 0.950 . S
H2322 C2334 0.950 . S
H2323 C2335 0.950 . S
C2324 H2316 0.950 . S
C2324 C2325 1.386 . S
C2324 C2326 1.391 . S
C2325 C2324 1.386 . S
C2325 C2329 1.393 . S
C2326 H2318 0.950 . S
C2326 C2324 1.391 . S
C2326 C2327 1.400 . S
C2327 C2326 1.400 . S
C2327 C2328 1.398 . S
C2327 C2333 1.491 . S
C2328 H2319 0.950 . S
C2328 C2327 1.398 . S
C2328 C2329 1.391 . S
C2329 H2317 0.950 . S
C2329 C2325 1.393 . S
C2329 C2328 1.391 . S
C2330 H2320 0.950 . S
C2330 C2331 1.386 . S
C2330 C2332 1.391 1_545 S
C2331 C2330 1.386 . S
C2331 C2335 1.393 1_545 S
C2332 H2321 0.950 . S
C2332 C2330 1.391 1_565 S
C2332 C2333 1.400 . S
C2333 C2327 1.491 . S
C2333 C2332 1.400 . S
C2333 C2334 1.398 . S
C2334 H2322 0.950 . S
C2334 C2333 1.398 . S
C2334 C2335 1.391 . S
C2335 H2323 0.950 . S
C2335 C2331 1.393 1_565 S
C2335 C2334 1.391 . S
H2336 C2344 0.950 . S
H2337 C2349 0.950 . S
H2338 C2346 0.950 . S
H2339 C2348 0.950 . S
H2340 C2350 0.950 . S
H2341 C2352 0.950 . S
H2342 C2354 0.950 . S
H2343 C2355 0.950 . S
C2344 H2336 0.950 . S
C2344 C2345 1.386 . S
C2344 C2346 1.391 . S
C2345 C2344 1.386 . S
C2345 C2349 1.393 . S
C2346 H2338 0.950 . S
C2346 C2344 1.391 . S
C2346 C2347 1.400 . S
C2347 C2346 1.400 . S
C2347 C2348 1.398 . S
C2347 C2353 1.491 . S
C2348 H2339 0.950 . S
C2348 C2347 1.398 . S
C2348 C2349 1.391 . S
C2349 H2337 0.950 . S
C2349 C2345 1.393 . S
C2349 C2348 1.391 . S
C2350 H2340 0.950 . S
C2350 C2351 1.386 . S
C2350 C2352 1.391 . S
C2351 C2350 1.386 . S
C2351 C2355 1.393 . S
C2352 H2341 0.950 . S
C2352 C2350 1.391 . S
C2352 C2353 1.400 . S
C2353 C2347 1.491 . S
C2353 C2352 1.400 . S
C2353 C2354 1.398 . S
C2354 H2342 0.950 . S
C2354 C2353 1.398 . S
C2354 C2355 1.391 . S
C2355 H2343 0.950 . S
C2355 C2351 1.393 . S
C2355 C2354 1.391 . S
H2356 C2364 0.950 . S
H2357 C2369 0.950 . S
H2358 C2366 0.950 . S
H2359 C2368 0.950 . S
H2360 C2370 0.963 . S
H2361 C2372 0.950 . S
H2362 C2374 0.950 . S
H2363 C2375 0.950 . S
C2364 H2356 0.950 . S
C2364 C2365 1.386 . S
C2364 C2366 1.391 . S
C2365 C2364 1.386 . S
C2365 C2369 1.393 . S
C2366 H2358 0.950 . S
C2366 C2364 1.391 . S
C2366 C2367 1.400 . S
C2367 C2366 1.400 . S
C2367 C2368 1.398 . S
C2367 C2373 1.491 . S
C2368 H2359 0.950 . S
C2368 C2367 1.398 . S
C2368 C2369 1.391 . S
C2369 H2357 0.950 . S
C2369 C2365 1.393 . S
C2369 C2368 1.391 . S
C2370 H2360 0.963 . S
C2370 C2371 1.386 . S
C2370 C2372 1.391 . S
C2371 C2370 1.386 . S
C2371 C2375 1.393 . S
C2372 H2361 0.950 . S
C2372 C2370 1.391 . S
C2372 C2373 1.400 . S
C2373 C2367 1.491 . S
C2373 C2372 1.400 . S
C2373 C2374 1.398 . S
C2374 H2362 0.950 . S
C2374 C2373 1.398 . S
C2374 C2375 1.391 . S
C2375 H2363 0.950 . S
C2375 C2371 1.393 . S
C2375 C2374 1.391 . S
H2376 C2384 0.950 . S
H2377 C2389 0.950 . S
H2378 C2386 0.950 . S
H2379 C2388 0.950 . S
H2380 C2390 0.950 . S
H2381 C2392 0.950 . S
H2382 C2394 0.950 . S
H2383 C2395 0.950 . S
C2384 H2376 0.950 . S
C2384 C2385 1.386 . S
C2384 C2386 1.391 . S
C2385 C2384 1.386 . S
C2385 C2389 1.393 . S
C2386 H2378 0.950 . S
C2386 C2384 1.391 . S
C2386 C2387 1.400 . S
C2387 C2386 1.400 . S
C2387 C2388 1.398 . S
C2387 C2393 1.491 . S
C2388 H2379 0.950 . S
C2388 C2387 1.398 . S
C2388 C2389 1.391 . S
C2389 H2377 0.950 . S
C2389 C2385 1.393 . S
C2389 C2388 1.391 . S
C2390 H2380 0.950 . S
C2390 C2391 1.386 . S
C2390 C2392 1.391 . S
C2391 C2390 1.386 . S
C2391 C2395 1.393 . S
C2392 H2381 0.950 . S
C2392 C2390 1.391 . S
C2392 C2393 1.400 . S
C2393 C2387 1.491 . S
C2393 C2392 1.400 . S
C2393 C2394 1.398 . S
C2394 H2382 0.950 . S
C2394 C2393 1.398 . S
C2394 C2395 1.391 . S
C2395 H2383 0.950 . S
C2395 C2391 1.393 . S
C2395 C2394 1.391 . S
H2396 C2404 0.950 . S
H2397 C2409 0.950 . S
H2398 C2406 0.950 . S
H2399 C2408 0.950 1_565 S
H2400 C2410 0.950 . S
H2401 C2412 0.950 . S
H2402 C2414 0.950 . S
H2403 C2415 0.950 . S
C2404 H2396 0.950 . S
C2404 C2405 1.386 . S
C2404 C2406 1.391 1_545 S
C2405 C2404 1.386 . S
C2405 C2409 1.393 . S
C2406 H2398 0.950 . S
C2406 C2404 1.391 1_565 S
C2406 C2407 1.400 . S
C2407 C2406 1.400 . S
C2407 C2408 1.398 1_565 S
C2407 C2413 1.491 . S
C2408 H2399 0.950 1_545 S
C2408 C2407 1.398 1_545 S
C2408 C2409 1.391 . S
C2409 H2397 0.950 . S
C2409 C2405 1.393 . S
C2409 C2408 1.391 . S
C2410 H2400 0.950 . S
C2410 C2411 1.386 . S
C2410 C2412 1.391 . S
C2411 C2410 1.386 . S
C2411 C2415 1.393 . S
C2412 H2401 0.950 . S
C2412 C2410 1.391 . S
C2412 C2413 1.400 . S
C2413 C2407 1.491 . S
C2413 C2412 1.400 . S
C2413 C2414 1.398 . S
C2414 H2402 0.950 . S
C2414 C2413 1.398 . S
C2414 C2415 1.391 . S
C2415 H2403 0.950 . S
C2415 C2411 1.393 . S
C2415 C2414 1.391 . S
H2416 C2424 0.950 . S
H2417 C2429 0.950 . S
H2418 C2426 0.950 . S
H2419 C2428 0.950 . S
H2420 C2430 0.950 . S
H2421 C2432 0.950 . S
H2422 C2434 0.950 . S
H2423 C2435 0.950 . S
C2424 H2416 0.950 . S
C2424 C2425 1.386 . S
C2424 C2426 1.391 . S
C2425 C2424 1.386 . S
C2425 C2429 1.393 . S
C2426 H2418 0.950 . S
C2426 C2424 1.391 . S
C2426 C2427 1.400 . S
C2427 C2426 1.400 . S
C2427 C2428 1.398 . S
C2427 C2433 1.491 . S
C2428 H2419 0.950 . S
C2428 C2427 1.398 . S
C2428 C2429 1.391 . S
C2429 H2417 0.950 . S
C2429 C2425 1.393 . S
C2429 C2428 1.391 . S
C2430 H2420 0.950 . S
C2430 C2431 1.386 . S
C2430 C2432 1.391 . S
C2431 C2430 1.386 . S
C2431 C2435 1.393 . S
C2432 H2421 0.950 . S
C2432 C2430 1.391 . S
C2432 C2433 1.400 . S
C2433 C2427 1.491 . S
C2433 C2432 1.400 . S
C2433 C2434 1.398 . S
C2434 H2422 0.950 . S
C2434 C2433 1.398 . S
C2434 C2435 1.391 . S
C2435 H2423 0.950 . S
C2435 C2431 1.393 . S
C2435 C2434 1.391 . S
H2436 C2444 0.950 . S
H2437 C2449 0.950 . S
H2438 C2446 0.950 . S
H2439 C2448 0.950 . S
H2440 C2450 0.950 . S
H2441 C2452 0.950 . S
H2442 C2454 0.950 . S
H2443 C2455 0.950 . S
C2444 H2436 0.950 . S
C2444 C2445 1.386 . S
C2444 C2446 1.391 . S
C2445 C2444 1.386 . S
C2445 C2449 1.393 . S
C2446 H2438 0.950 . S
C2446 C2444 1.391 . S
C2446 C2447 1.400 . S
C2447 C2446 1.400 . S
C2447 C2448 1.398 . S
C2447 C2453 1.491 . S
C2448 H2439 0.950 . S
C2448 C2447 1.398 . S
C2448 C2449 1.391 . S
C2449 H2437 0.950 . S
C2449 C2445 1.393 . S
C2449 C2448 1.391 . S
C2450 H2440 0.950 . S
C2450 C2451 1.386 . S
C2450 C2452 1.391 . S
C2451 C2450 1.386 . S
C2451 C2455 1.393 . S
C2452 H2441 0.950 . S
C2452 C2450 1.391 . S
C2452 C2453 1.400 . S
C2453 C2447 1.491 . S
C2453 C2452 1.400 . S
C2453 C2454 1.398 . S
C2454 H2442 0.950 . S
C2454 C2453 1.398 . S
C2454 C2455 1.391 . S
C2455 H2443 0.950 . S
C2455 C2451 1.393 . S
C2455 C2454 1.391 . S
H2456 C2464 0.950 . S
H2457 C2469 0.950 . S
H2458 C2466 0.950 . S
H2459 C2468 0.950 . S
H2460 C2470 0.950 . S
H2461 C2472 0.950 . S
H2462 C2474 0.950 . S
H2463 C2475 0.950 . S
C2464 H2456 0.950 . S
C2464 C2465 1.386 . S
C2464 C2466 1.391 . S
C2465 C2464 1.386 . S
C2465 C2469 1.393 . S
C2466 H2458 0.950 . S
C2466 C2464 1.391 . S
C2466 C2467 1.400 . S
C2467 C2466 1.400 . S
C2467 C2468 1.398 . S
C2467 C2473 1.491 . S
C2468 H2459 0.950 . S
C2468 C2467 1.398 . S
C2468 C2469 1.391 . S
C2469 H2457 0.950 . S
C2469 C2465 1.393 . S
C2469 C2468 1.391 . S
C2470 H2460 0.950 . S
C2470 C2471 1.386 . S
C2470 C2472 1.391 . S
C2471 C2470 1.386 . S
C2471 C2475 1.393 . S
C2472 H2461 0.950 . S
C2472 C2470 1.391 . S
C2472 C2473 1.400 . S
C2473 C2467 1.491 . S
C2473 C2472 1.400 . S
C2473 C2474 1.398 . S
C2474 H2462 0.950 . S
C2474 C2473 1.398 . S
C2474 C2475 1.391 . S
C2475 H2463 0.950 . S
C2475 C2471 1.393 . S
C2475 C2474 1.391 . S
H2476 C2484 0.950 . S
H2477 C2489 0.950 . S
H2478 C2486 0.950 . S
H2479 C2488 0.950 . S
H2480 C2490 0.950 . S
H2481 C2492 0.950 . S
H2482 C2494 0.950 . S
H2483 C2495 0.950 . S
C2484 H2476 0.950 . S
C2484 C2485 1.386 . S
C2484 C2486 1.391 . S
C2485 C2484 1.386 . S
C2485 C2489 1.393 . S
C2486 H2478 0.950 . S
C2486 C2484 1.391 . S
C2486 C2487 1.400 . S
C2487 C2486 1.400 . S
C2487 C2488 1.398 . S
C2487 C2493 1.491 . S
C2488 H2479 0.950 . S
C2488 C2487 1.398 . S
C2488 C2489 1.391 . S
C2489 H2477 0.950 . S
C2489 C2485 1.393 . S
C2489 C2488 1.391 . S
C2490 H2480 0.950 . S
C2490 C2491 1.386 . S
C2490 C2492 1.391 . S
C2491 C2490 1.386 . S
C2491 C2495 1.393 . S
C2492 H2481 0.950 . S
C2492 C2490 1.391 . S
C2492 C2493 1.400 . S
C2493 C2487 1.491 . S
C2493 C2492 1.400 . S
C2493 C2494 1.398 . S
C2494 H2482 0.950 . S
C2494 C2493 1.398 . S
C2494 C2495 1.391 . S
C2495 H2483 0.950 . S
C2495 C2491 1.393 . S
C2495 C2494 1.391 . S
H2496 C2504 0.950 . S
H2497 C2509 0.950 . S
H2498 C2506 0.950 . S
H2499 C2508 0.950 . S
H2500 C2510 0.950 . S
H2501 C2512 0.950 . S
H2502 C2514 0.950 . S
H2503 C2515 0.950 . S
C2504 H2496 0.950 . S
C2504 C2505 1.386 . S
C2504 C2506 1.391 . S
C2505 C2504 1.386 . S
C2505 C2509 1.393 . S
C2506 H2498 0.950 . S
C2506 C2504 1.391 . S
C2506 C2507 1.400 . S
C2507 C2506 1.400 . S
C2507 C2508 1.398 . S
C2507 C2513 1.491 . S
C2508 H2499 0.950 . S
C2508 C2507 1.398 . S
C2508 C2509 1.391 . S
C2509 H2497 0.950 . S
C2509 C2505 1.393 . S
C2509 C2508 1.391 . S
C2510 H2500 0.950 . S
C2510 C2511 1.386 . S
C2510 C2512 1.391 . S
C2511 C2510 1.386 . S
C2511 C2515 1.393 . S
C2512 H2501 0.950 . S
C2512 C2510 1.391 . S
C2512 C2513 1.400 . S
C2513 C2507 1.491 . S
C2513 C2512 1.400 . S
C2513 C2514 1.398 . S
C2514 H2502 0.950 . S
C2514 C2513 1.398 . S
C2514 C2515 1.391 . S
C2515 H2503 0.950 . S
C2515 C2511 1.393 . S
C2515 C2514 1.391 . S
H2516 C2524 0.950 . S
H2517 C2529 0.950 . S
H2518 C2526 0.950 . S
H2519 C2528 0.950 . S
H2520 C2530 0.950 . S
H2521 C2532 0.950 . S
H2522 C2534 0.950 . S
H2523 C2535 0.950 . S
C2524 H2516 0.950 . S
C2524 C2525 1.386 . S
C2524 C2526 1.391 . S
C2525 C2524 1.386 . S
C2525 C2529 1.393 . S
C2526 H2518 0.950 . S
C2526 C2524 1.391 . S
C2526 C2527 1.400 . S
C2527 C2526 1.400 . S
C2527 C2528 1.398 . S
C2527 C2533 1.491 . S
C2528 H2519 0.950 . S
C2528 C2527 1.398 . S
C2528 C2529 1.391 . S
C2529 H2517 0.950 . S
C2529 C2525 1.393 . S
C2529 C2528 1.391 . S
C2530 H2520 0.950 . S
C2530 C2531 1.386 . S
C2530 C2532 1.391 . S
C2531 C2530 1.386 . S
C2531 C2535 1.393 . S
C2532 H2521 0.950 . S
C2532 C2530 1.391 . S
C2532 C2533 1.400 . S
C2533 C2527 1.491 . S
C2533 C2532 1.400 . S
C2533 C2534 1.398 . S
C2534 H2522 0.950 . S
C2534 C2533 1.398 . S
C2534 C2535 1.391 . S
C2535 H2523 0.950 . S
C2535 C2531 1.393 . S
C2535 C2534 1.391 . S
H2536 C2544 0.950 . S
H2537 C2549 0.950 . S
H2538 C2546 0.950 . S
H2539 C2548 0.950 . S
H2540 C2550 0.950 . S
H2541 C2552 0.950 . S
H2542 C2554 0.950 . S
H2543 C2555 0.950 . S
C2544 H2536 0.950 . S
C2544 C2545 1.386 . S
C2544 C2546 1.391 . S
C2545 C2544 1.386 . S
C2545 C2549 1.393 . S
C2546 H2538 0.950 . S
C2546 C2544 1.391 . S
C2546 C2547 1.400 . S
C2547 C2546 1.400 . S
C2547 C2548 1.398 . S
C2547 C2553 1.491 . S
C2548 H2539 0.950 . S
C2548 C2547 1.398 . S
C2548 C2549 1.391 . S
C2549 H2537 0.950 . S
C2549 C2545 1.393 . S
C2549 C2548 1.391 . S
C2550 H2540 0.950 . S
C2550 C2551 1.386 . S
C2550 C2552 1.391 . S
C2551 C2550 1.386 . S
C2551 C2555 1.393 . S
C2552 H2541 0.950 . S
C2552 C2550 1.391 . S
C2552 C2553 1.400 . S
C2553 C2547 1.491 . S
C2553 C2552 1.400 . S
C2553 C2554 1.398 . S
C2554 H2542 0.950 . S
C2554 C2553 1.398 . S
C2554 C2555 1.391 . S
C2555 H2543 0.950 . S
C2555 C2551 1.393 . S
C2555 C2554 1.391 . S
H2556 C2564 0.950 . S
H2557 C2569 0.950 . S
H2558 C2566 0.950 . S
H2559 C2568 0.950 . S
H2560 C2570 0.950 . S
H2561 C2572 0.950 . S
H2562 C2574 0.950 . S
H2563 C2575 0.950 . S
C2564 H2556 0.950 . S
C2564 C2565 1.386 . S
C2564 C2566 1.391 . S
C2565 C2564 1.386 . S
C2565 C2569 1.393 . S
C2566 H2558 0.950 . S
C2566 C2564 1.391 . S
C2566 C2567 1.400 . S
C2567 C2566 1.400 . S
C2567 C2568 1.398 . S
C2567 C2573 1.491 . S
C2568 H2559 0.950 . S
C2568 C2567 1.398 . S
C2568 C2569 1.391 . S
C2569 H2557 0.950 . S
C2569 C2565 1.393 . S
C2569 C2568 1.391 . S
C2570 H2560 0.950 . S
C2570 C2571 1.386 . S
C2570 C2572 1.391 . S
C2571 C2570 1.386 . S
C2571 C2575 1.393 . S
C2572 H2561 0.950 . S
C2572 C2570 1.391 . S
C2572 C2573 1.400 . S
C2573 C2567 1.491 . S
C2573 C2572 1.400 . S
C2573 C2574 1.398 . S
C2574 H2562 0.950 . S
C2574 C2573 1.398 . S
C2574 C2575 1.391 . S
C2575 H2563 0.950 . S
C2575 C2571 1.393 . S
C2575 C2574 1.391 . S
H2576 C2584 0.950 . S
H2577 C2589 0.950 . S
H2578 C2586 0.950 . S
H2579 C2588 0.950 . S
H2580 C2590 0.950 . S
H2581 C2592 0.950 . S
H2582 C2594 0.950 . S
H2583 C2595 0.950 . S
C2584 H2576 0.950 . S
C2584 C2585 1.386 . S
C2584 C2586 1.391 . S
C2585 C2584 1.386 . S
C2585 C2589 1.393 . S
C2586 H2578 0.950 . S
C2586 C2584 1.391 . S
C2586 C2587 1.400 . S
C2587 C2586 1.400 . S
C2587 C2588 1.398 . S
C2587 C2593 1.491 . S
C2588 H2579 0.950 . S
C2588 C2587 1.398 . S
C2588 C2589 1.391 . S
C2589 H2577 0.950 . S
C2589 C2585 1.393 . S
C2589 C2588 1.391 . S
C2590 H2580 0.950 . S
C2590 C2591 1.386 . S
C2590 C2592 1.391 . S
C2591 C2590 1.386 . S
C2591 C2595 1.393 . S
C2592 H2581 0.950 . S
C2592 C2590 1.391 . S
C2592 C2593 1.400 . S
C2593 C2587 1.491 . S
C2593 C2592 1.400 . S
C2593 C2594 1.398 . S
C2594 H2582 0.950 . S
C2594 C2593 1.398 . S
C2594 C2595 1.391 . S
C2595 H2583 0.950 . S
C2595 C2591 1.393 . S
C2595 C2594 1.391 . S
H2596 C2604 0.950 . S
H2597 C2609 0.950 . S
H2598 C2606 0.950 . S
H2599 C2608 0.950 . S
H2600 C2610 0.950 . S
H2601 C2612 0.950 . S
H2602 C2614 0.950 . S
H2603 C2615 0.950 . S
C2604 H2596 0.950 . S
C2604 C2605 1.386 . S
C2604 C2606 1.391 . S
C2605 C2604 1.386 . S
C2605 C2609 1.393 . S
C2606 H2598 0.950 . S
C2606 C2604 1.391 . S
C2606 C2607 1.400 . S
C2607 C2606 1.400 . S
C2607 C2608 1.398 . S
C2607 C2613 1.491 . S
C2608 H2599 0.950 . S
C2608 C2607 1.398 . S
C2608 C2609 1.391 . S
C2609 H2597 0.950 . S
C2609 C2605 1.393 . S
C2609 C2608 1.391 . S
C2610 H2600 0.950 . S
C2610 C2611 1.386 . S
C2610 C2612 1.391 . S
C2611 C2610 1.386 . S
C2611 C2615 1.393 . S
C2612 H2601 0.950 . S
C2612 C2610 1.391 . S
C2612 C2613 1.400 . S
C2613 C2607 1.491 . S
C2613 C2612 1.400 . S
C2613 C2614 1.398 . S
C2614 H2602 0.950 . S
C2614 C2613 1.398 . S
C2614 C2615 1.391 . S
C2615 H2603 0.950 . S
C2615 C2611 1.393 . S
C2615 C2614 1.391 . S
H2616 C2624 0.950 . S
H2617 C2629 0.950 1_655 S
H2618 C2626 0.950 . S
H2619 C2628 0.956 . S
H2620 C2630 0.950 . S
H2621 C2632 0.950 . S
H2622 C2634 0.950 . S
H2623 C2635 0.950 . S
C2624 H2616 0.950 . S
C2624 C2625 1.386 . S
C2624 C2626 1.391 . S
C2625 C2624 1.386 . S
C2625 C2629 1.393 . S
C2626 H2618 0.950 . S
C2626 C2624 1.391 . S
C2626 C2627 1.400 . S
C2627 C2626 1.400 . S
C2627 C2628 1.398 . S
C2627 C2633 1.491 . S
C2628 H2619 0.956 . S
C2628 C2627 1.398 . S
C2628 C2629 1.391 . S
C2629 H2617 0.950 1_455 S
C2629 C2625 1.393 . S
C2629 C2628 1.391 . S
C2630 H2620 0.950 . S
C2630 C2631 1.386 . S
C2630 C2632 1.391 . S
C2631 C2630 1.386 . S
C2631 C2635 1.393 . S
C2632 H2621 0.950 . S
C2632 C2630 1.391 . S
C2632 C2633 1.400 . S
C2633 C2627 1.491 . S
C2633 C2632 1.400 . S
C2633 C2634 1.398 . S
C2634 H2622 0.950 . S
C2634 C2633 1.398 . S
C2634 C2635 1.391 . S
C2635 H2623 0.950 . S
C2635 C2631 1.393 . S
C2635 C2634 1.391 . S
H2636 C2644 0.950 . S
H2637 C2649 0.950 . S
H2638 C2646 0.950 . S
H2639 C2648 0.950 . S
H2640 C2650 0.950 . S
H2641 C2652 0.950 . S
H2642 C2654 0.950 . S
H2643 C2655 0.950 . S
C2644 H2636 0.950 . S
C2644 C2645 1.386 . S
C2644 C2646 1.391 . S
C2645 C2644 1.386 . S
C2645 C2649 1.393 . S
C2646 H2638 0.950 . S
C2646 C2644 1.391 . S
C2646 C2647 1.400 . S
C2647 C2646 1.400 . S
C2647 C2648 1.398 . S
C2647 C2653 1.491 . S
C2648 H2639 0.950 . S
C2648 C2647 1.398 . S
C2648 C2649 1.391 . S
C2649 H2637 0.950 . S
C2649 C2645 1.393 . S
C2649 C2648 1.391 . S
C2650 H2640 0.950 . S
C2650 C2651 1.386 . S
C2650 C2652 1.391 . S
C2651 C2650 1.386 . S
C2651 C2655 1.393 . S
C2652 H2641 0.950 . S
C2652 C2650 1.391 . S
C2652 C2653 1.400 . S
C2653 C2647 1.491 . S
C2653 C2652 1.400 . S
C2653 C2654 1.398 . S
C2654 H2642 0.950 . S
C2654 C2653 1.398 . S
C2654 C2655 1.391 . S
C2655 H2643 0.950 . S
C2655 C2651 1.393 . S
C2655 C2654 1.391 . S
H2656 C2664 0.950 . S
H2657 C2669 0.950 . S
H2658 C2666 0.950 . S
H2659 C2668 0.950 . S
H2660 C2670 0.950 . S
H2661 C2672 0.950 . S
H2662 C2674 0.950 . S
H2663 C2675 0.950 . S
C2664 H2656 0.950 . S
C2664 C2665 1.386 . S
C2664 C2666 1.391 . S
C2665 C2664 1.386 . S
C2665 C2669 1.393 . S
C2666 H2658 0.950 . S
C2666 C2664 1.391 . S
C2666 C2667 1.400 . S
C2667 C2666 1.400 . S
C2667 C2668 1.398 . S
C2667 C2673 1.491 . S
C2668 H2659 0.950 . S
C2668 C2667 1.398 . S
C2668 C2669 1.391 . S
C2669 H2657 0.950 . S
C2669 C2665 1.393 . S
C2669 C2668 1.391 . S
C2670 H2660 0.950 . S
C2670 C2671 1.386 . S
C2670 C2672 1.391 . S
C2671 C2670 1.386 . S
C2671 C2675 1.393 . S
C2672 H2661 0.950 . S
C2672 C2670 1.391 . S
C2672 C2673 1.400 . S
C2673 C2667 1.491 . S
C2673 C2672 1.400 . S
C2673 C2674 1.398 . S
C2674 H2662 0.950 . S
C2674 C2673 1.398 . S
C2674 C2675 1.391 . S
C2675 H2663 0.950 . S
C2675 C2671 1.393 . S
C2675 C2674 1.391 . S
H2676 C2684 0.950 . S
H2677 C2689 0.950 . S
H2678 C2686 0.950 . S
H2679 C2688 0.950 . S
H2680 C2690 0.950 . S
H2681 C2692 0.950 . S
H2682 C2694 0.950 . S
H2683 C2695 0.950 . S
C2684 H2676 0.950 . S
C2684 C2685 1.386 . S
C2684 C2686 1.391 . S
C2685 C2684 1.386 . S
C2685 C2689 1.393 . S
C2686 H2678 0.950 . S
C2686 C2684 1.391 . S
C2686 C2687 1.400 . S
C2687 C2686 1.400 . S
C2687 C2688 1.398 . S
C2687 C2693 1.491 . S
C2688 H2679 0.950 . S
C2688 C2687 1.398 . S
C2688 C2689 1.391 . S
C2689 H2677 0.950 . S
C2689 C2685 1.393 . S
C2689 C2688 1.391 . S
C2690 H2680 0.950 . S
C2690 C2691 1.386 . S
C2690 C2692 1.391 . S
C2691 C2690 1.386 . S
C2691 C2695 1.393 . S
C2692 H2681 0.950 . S
C2692 C2690 1.391 . S
C2692 C2693 1.400 . S
C2693 C2687 1.491 . S
C2693 C2692 1.400 . S
C2693 C2694 1.398 . S
C2694 H2682 0.950 . S
C2694 C2693 1.398 . S
C2694 C2695 1.391 . S
C2695 H2683 0.950 . S
C2695 C2691 1.393 . S
C2695 C2694 1.391 . S
H2696 C2704 0.950 . S
H2697 C2709 0.950 1_655 S
H2698 C2706 0.950 . S
H2699 C2708 0.950 1_655 S
H2700 C2710 0.950 . S
H2701 C2712 0.950 . S
H2702 C2714 0.950 . S
H2703 C2715 0.950 . S
C2704 H2696 0.950 . S
C2704 C2705 1.386 . S
C2704 C2706 1.391 . S
C2705 C2704 1.386 . S
C2705 C2709 1.393 . S
C2706 H2698 0.950 . S
C2706 C2704 1.391 . S
C2706 C2707 1.400 . S
C2707 C2706 1.400 . S
C2707 C2708 1.398 . S
C2707 C2713 1.491 . S
C2708 H2699 0.950 1_455 S
C2708 C2707 1.398 . S
C2708 C2709 1.391 . S
C2709 H2697 0.950 1_455 S
C2709 C2705 1.393 . S
C2709 C2708 1.391 . S
C2710 H2700 0.950 . S
C2710 C2711 1.386 1_655 S
C2710 C2712 1.391 . S
C2711 C2710 1.386 1_455 S
C2711 C2715 1.393 . S
C2712 H2701 0.950 . S
C2712 C2710 1.391 . S
C2712 C2713 1.400 1_655 S
C2713 C2707 1.491 . S
C2713 C2712 1.400 1_455 S
C2713 C2714 1.398 . S
C2714 H2702 0.950 . S
C2714 C2713 1.398 . S
C2714 C2715 1.391 . S
C2715 H2703 0.950 . S
C2715 C2711 1.393 . S
C2715 C2714 1.391 . S
H2716 C2724 0.950 . S
H2717 C2729 0.950 . S
H2718 C2726 0.950 . S
H2719 C2728 0.950 . S
H2720 C2730 0.950 . S
H2721 C2732 0.950 . S
H2722 C2734 0.950 . S
H2723 C2735 0.950 . S
C2724 H2716 0.950 . S
C2724 C2725 1.386 . S
C2724 C2726 1.391 . S
C2725 C2724 1.386 . S
C2725 C2729 1.393 . S
C2726 H2718 0.950 . S
C2726 C2724 1.391 . S
C2726 C2727 1.400 . S
C2727 C2726 1.400 . S
C2727 C2728 1.398 . S
C2727 C2733 1.491 . S
C2728 H2719 0.950 . S
C2728 C2727 1.398 . S
C2728 C2729 1.391 . S
C2729 H2717 0.950 . S
C2729 C2725 1.393 . S
C2729 C2728 1.391 . S
C2730 H2720 0.950 . S
C2730 C2731 1.386 . S
C2730 C2732 1.391 . S
C2731 C2730 1.386 . S
C2731 C2735 1.393 . S
C2732 H2721 0.950 . S
C2732 C2730 1.391 . S
C2732 C2733 1.400 . S
C2733 C2727 1.491 . S
C2733 C2732 1.400 . S
C2733 C2734 1.398 . S
C2734 H2722 0.950 . S
C2734 C2733 1.398 . S
C2734 C2735 1.391 . S
C2735 H2723 0.950 . S
C2735 C2731 1.393 . S
C2735 C2734 1.391 . S
H2736 C2744 0.950 . S
H2737 C2749 0.950 . S
H2738 C2746 0.950 . S
H2739 C2748 0.950 . S
H2740 C2750 0.950 . S
H2741 C2752 0.950 . S
H2742 C2754 0.950 . S
H2743 C2755 0.950 . S
C2744 H2736 0.950 . S
C2744 C2745 1.386 . S
C2744 C2746 1.391 . S
C2745 C2744 1.386 . S
C2745 C2749 1.393 . S
C2746 H2738 0.950 . S
C2746 C2744 1.391 . S
C2746 C2747 1.400 . S
C2747 C2746 1.400 . S
C2747 C2748 1.398 . S
C2747 C2753 1.491 . S
C2748 H2739 0.950 . S
C2748 C2747 1.398 . S
C2748 C2749 1.391 . S
C2749 H2737 0.950 . S
C2749 C2745 1.393 . S
C2749 C2748 1.391 . S
C2750 H2740 0.950 . S
C2750 C2751 1.386 . S
C2750 C2752 1.391 . S
C2751 C2750 1.386 . S
C2751 C2755 1.393 . S
C2752 H2741 0.950 . S
C2752 C2750 1.391 . S
C2752 C2753 1.400 . S
C2753 C2747 1.491 . S
C2753 C2752 1.400 . S
C2753 C2754 1.398 . S
C2754 H2742 0.950 . S
C2754 C2753 1.398 . S
C2754 C2755 1.391 . S
C2755 H2743 0.950 . S
C2755 C2751 1.393 . S
C2755 C2754 1.391 . S
H2756 C2764 0.950 . S
H2757 C2769 0.950 . S
H2758 C2766 0.950 . S
H2759 C2768 0.950 . S
H2760 C2770 0.950 . S
H2761 C2772 0.943 1_545 S
H2762 C2774 0.950 . S
H2763 C2775 0.950 . S
C2764 H2756 0.950 . S
C2764 C2765 1.386 . S
C2764 C2766 1.391 . S
C2765 C2764 1.386 . S
C2765 C2769 1.393 . S
C2766 H2758 0.950 . S
C2766 C2764 1.391 . S
C2766 C2767 1.400 . S
C2767 C2766 1.400 . S
C2767 C2768 1.398 . S
C2767 C2773 1.491 . S
C2768 H2759 0.950 . S
C2768 C2767 1.398 . S
C2768 C2769 1.391 . S
C2769 H2757 0.950 . S
C2769 C2765 1.393 . S
C2769 C2768 1.391 . S
C2770 H2760 0.950 . S
C2770 C2771 1.386 . S
C2770 C2772 1.388 1_545 S
C2771 C2770 1.386 . S
C2771 C2775 1.393 1_545 S
C2772 H2761 0.943 1_565 S
C2772 C2770 1.388 1_565 S
C2772 C2773 1.410 . S
C2773 C2767 1.491 . S
C2773 C2772 1.410 . S
C2773 C2774 1.398 . S
C2774 H2762 0.950 . S
C2774 C2773 1.398 . S
C2774 C2775 1.391 . S
C2775 H2763 0.950 . S
C2775 C2771 1.393 1_565 S
C2775 C2774 1.391 . S
H2776 C2784 0.950 . S
H2777 C2789 0.950 . S
H2778 C2786 0.950 . S
H2779 C2788 0.950 . S
H2780 C2790 0.950 . S
H2781 C2792 0.950 . S
H2782 C2794 0.950 . S
H2783 C2795 0.950 . S
C2784 H2776 0.950 . S
C2784 C2785 1.386 . S
C2784 C2786 1.391 . S
C2785 C2784 1.386 . S
C2785 C2789 1.393 . S
C2786 H2778 0.950 . S
C2786 C2784 1.391 . S
C2786 C2787 1.400 . S
C2787 C2786 1.400 . S
C2787 C2788 1.398 . S
C2787 C2793 1.491 . S
C2788 H2779 0.950 . S
C2788 C2787 1.398 . S
C2788 C2789 1.391 . S
C2789 H2777 0.950 . S
C2789 C2785 1.393 . S
C2789 C2788 1.391 . S
C2790 H2780 0.950 . S
C2790 C2791 1.386 . S
C2790 C2792 1.391 . S
C2791 C2790 1.386 . S
C2791 C2795 1.393 . S
C2792 H2781 0.950 . S
C2792 C2790 1.391 . S
C2792 C2793 1.400 . S
C2793 C2787 1.491 . S
C2793 C2792 1.400 . S
C2793 C2794 1.398 . S
C2794 H2782 0.950 . S
C2794 C2793 1.398 . S
C2794 C2795 1.391 . S
C2795 H2783 0.950 . S
C2795 C2791 1.393 . S
C2795 C2794 1.391 . S
H2796 C2804 0.950 . S
H2797 C2809 0.950 . S
H2798 C2806 0.950 . S
H2799 C2808 0.950 . S
H2800 C2810 0.950 . S
H2801 C2812 0.950 . S
H2802 C2814 0.950 . S
H2803 C2815 0.950 . S
C2804 H2796 0.950 . S
C2804 C2805 1.386 . S
C2804 C2806 1.391 . S
C2805 C2804 1.386 . S
C2805 C2809 1.393 1_556 S
C2806 H2798 0.950 . S
C2806 C2804 1.391 . S
C2806 C2807 1.400 . S
C2807 C2806 1.400 . S
C2807 C2808 1.398 1_556 S
C2807 C2813 1.493 . S
C2808 H2799 0.950 . S
C2808 C2807 1.398 1_554 S
C2808 C2809 1.391 . S
C2809 H2797 0.950 . S
C2809 C2805 1.393 1_554 S
C2809 C2808 1.391 . S
C2810 H2800 0.950 . S
C2810 C2811 1.386 . S
C2810 C2812 1.391 . S
C2811 C2810 1.386 . S
C2811 C2815 1.393 1_554 S
C2812 H2801 0.950 . S
C2812 C2810 1.391 . S
C2812 C2813 1.394 1_554 S
C2813 C2807 1.493 . S
C2813 C2812 1.394 1_556 S
C2813 C2814 1.402 . S
C2814 H2802 0.950 . S
C2814 C2813 1.402 . S
C2814 C2815 1.391 . S
C2815 H2803 0.950 . S
C2815 C2811 1.393 1_556 S
C2815 C2814 1.391 . S
H2816 C2824 0.950 . S
H2817 C2829 0.950 . S
H2818 C2826 0.950 . S
H2819 C2828 0.950 . S
H2820 C2830 0.950 . S
H2821 C2832 0.950 . S
H2822 C2834 0.950 . S
H2823 C2835 0.950 . S
C2824 H2816 0.950 . S
C2824 C2825 1.386 . S
C2824 C2826 1.391 . S
C2825 C2824 1.386 . S
C2825 C2829 1.393 . S
C2826 H2818 0.950 . S
C2826 C2824 1.391 . S
C2826 C2827 1.400 . S
C2827 C2826 1.400 . S
C2827 C2828 1.398 . S
C2827 C2833 1.491 . S
C2828 H2819 0.950 . S
C2828 C2827 1.398 . S
C2828 C2829 1.391 . S
C2829 H2817 0.950 . S
C2829 C2825 1.393 . S
C2829 C2828 1.391 . S
C2830 H2820 0.950 . S
C2830 C2831 1.386 . S
C2830 C2832 1.391 . S
C2831 C2830 1.386 . S
C2831 C2835 1.393 . S
C2832 H2821 0.950 . S
C2832 C2830 1.391 . S
C2832 C2833 1.400 . S
C2833 C2827 1.491 . S
C2833 C2832 1.400 . S
C2833 C2834 1.398 . S
C2834 H2822 0.950 . S
C2834 C2833 1.398 . S
C2834 C2835 1.391 . S
C2835 H2823 0.950 . S
C2835 C2831 1.393 . S
C2835 C2834 1.391 . S
H2836 C2844 0.950 . S
H2837 C2849 0.950 1_556 S
H2838 C2846 0.950 . S
H2839 C2848 0.950 1_556 S
H2840 C2850 0.950 . S
H2841 C2852 0.974 . S
H2842 C2854 0.950 . S
H2843 C2855 0.950 . S
C2844 H2836 0.950 . S
C2844 C2845 1.386 . S
C2844 C2846 1.391 . S
C2845 C2844 1.386 . S
C2845 C2849 1.393 . S
C2846 H2838 0.950 . S
C2846 C2844 1.391 . S
C2846 C2847 1.400 . S
C2847 C2846 1.400 . S
C2847 C2848 1.398 . S
C2847 C2853 1.491 . S
C2848 H2839 0.950 1_554 S
C2848 C2847 1.398 . S
C2848 C2849 1.391 . S
C2849 H2837 0.950 1_554 S
C2849 C2845 1.393 . S
C2849 C2848 1.391 . S
C2850 H2840 0.950 . S
C2850 C2851 1.386 1_556 S
C2850 C2852 1.390 . S
C2851 C2850 1.386 1_554 S
C2851 C2855 1.393 . S
C2852 H2841 0.974 . S
C2852 C2850 1.390 . S
C2852 C2853 1.378 1_556 S
C2853 C2847 1.491 . S
C2853 C2852 1.378 1_554 S
C2853 C2854 1.398 . S
C2854 H2842 0.950 . S
C2854 C2853 1.398 . S
C2854 C2855 1.391 . S
C2855 H2843 0.950 . S
C2855 C2851 1.393 . S
C2855 C2854 1.391 . S
H2856 C2864 0.950 . S
H2857 C2869 0.950 . S
H2858 C2866 0.950 . S
H2859 C2868 0.950 . S
H2860 C2870 0.950 . S
H2861 C2872 0.950 . S
H2862 C2874 0.950 . S
H2863 C2875 0.950 . S
C2864 H2856 0.950 . S
C2864 C2865 1.386 . S
C2864 C2866 1.391 . S
C2865 C2864 1.386 . S
C2865 C2869 1.393 . S
C2866 H2858 0.950 . S
C2866 C2864 1.391 . S
C2866 C2867 1.400 . S
C2867 C2866 1.400 . S
C2867 C2868 1.398 . S
C2867 C2873 1.491 . S
C2868 H2859 0.950 . S
C2868 C2867 1.398 . S
C2868 C2869 1.391 . S
C2869 H2857 0.950 . S
C2869 C2865 1.393 . S
C2869 C2868 1.391 . S
C2870 H2860 0.950 . S
C2870 C2871 1.386 . S
C2870 C2872 1.391 . S
C2871 C2870 1.386 . S
C2871 C2875 1.393 . S
C2872 H2861 0.950 . S
C2872 C2870 1.391 . S
C2872 C2873 1.400 . S
C2873 C2867 1.491 . S
C2873 C2872 1.400 . S
C2873 C2874 1.398 . S
C2874 H2862 0.950 . S
C2874 C2873 1.398 . S
C2874 C2875 1.391 . S
C2875 H2863 0.950 . S
C2875 C2871 1.393 . S
C2875 C2874 1.391 . S
H2876 C2884 0.950 . S
H2877 C2889 0.950 . S
H2878 C2886 0.950 . S
H2879 C2888 0.950 . S
H2880 C2890 0.950 . S
H2881 C2892 0.950 . S
H2882 C2894 0.950 . S
H2883 C2895 0.950 . S
C2884 H2876 0.950 . S
C2884 C2885 1.386 . S
C2884 C2886 1.391 . S
C2885 C2884 1.386 . S
C2885 C2889 1.393 . S
C2886 H2878 0.950 . S
C2886 C2884 1.391 . S
C2886 C2887 1.400 . S
C2887 C2886 1.400 . S
C2887 C2888 1.398 . S
C2887 C2893 1.491 . S
C2888 H2879 0.950 . S
C2888 C2887 1.398 . S
C2888 C2889 1.391 . S
C2889 H2877 0.950 . S
C2889 C2885 1.393 . S
C2889 C2888 1.391 . S
C2890 H2880 0.950 . S
C2890 C2891 1.386 . S
C2890 C2892 1.391 . S
C2891 C2890 1.386 . S
C2891 C2895 1.393 . S
C2892 H2881 0.950 . S
C2892 C2890 1.391 . S
C2892 C2893 1.400 . S
C2893 C2887 1.491 . S
C2893 C2892 1.400 . S
C2893 C2894 1.398 . S
C2894 H2882 0.950 . S
C2894 C2893 1.398 . S
C2894 C2895 1.391 . S
C2895 H2883 0.950 . S
C2895 C2891 1.393 . S
C2895 C2894 1.391 . S
C985 C111 1.697 1_455 S
C991 C358 1.735 . S
C1005 C64 1.143 . S
C1011 C378 1.221 . S
C1025 C77 0.585 . S
C1031 C425 0.582 . S
C1051 C482 0.882 . S
C1045 C95 0.899 . S
C1065 C25 2.376 . S
C1071 C499 2.380 . S
C1091 C558 1.826 . S
C1085 C36 1.783 . S
C1111 C591 2.671 . S
C1105 C50 2.569 . S
C1125 C11 2.406 . S
C1131 C638 2.371 . S
C1151 C351 1.480 . S
C1145 C237 1.367 1_545 S
C1165 C245 1.337 . S
C1171 C379 1.327 . S
C1191 C418 0.483 . S
C1185 C279 0.548 1_565 S
C1211 C478 2.063 . S
C1205 C175 2.044 . S
C1225 C231 0.306 . S
C1231 C505 0.393 . S
C1251 C551 2.197 . S
C1245 C251 2.135 . S
C1271 C602 0.582 . S
C1265 C273 0.544 1_565 S
C1291 C631 2.258 . S
C1285 C181 2.119 . S
C1311 C362 1.710 1_565 S
C1305 C165 1.771 . S
C1325 C288 2.130 . S
C1331 C658 2.186 . S
C1351 C722 1.197 . S
C1345 C333 1.213 . S
C1371 C758 1.362 1_655 S
C1365 C316 1.382 . S
C1385 C123 1.304 . S
C1391 C642 1.267 . S
C1405 C137 2.450 . S
C1411 C419 2.456 . S
C1425 C330 1.287 . S
C1431 C791 1.387 . S
C1451 C825 0.338 . S
C1445 C302 0.409 . S
C1471 C339 1.858 . S
C1465 C63 1.859 . S
C1491 C831 1.266 . S
C1485 C106 1.310 . S
C1505 C97 0.681 . S
C1511 C442 0.707 . S
C1525 C81 0.958 . S
C1531 C785 0.965 . S
C1551 C518 2.552 . S
C1545 C13 2.480 . S
C1565 C55 1.698 . S
C1571 C699 1.830 . S
C1591 C578 2.679 1_556 S
C1585 C35 2.648 . S
C1611 C859 2.536 . S
C1605 C21 2.555 1_655 S
C1631 C338 1.538 . S
C1625 C147 1.531 . S
C1651 C838 1.498 . S
C1645 C321 1.481 . S
C1665 C119 0.614 . S
C1671 C431 0.625 . S
C1685 C293 2.045 . S
C1691 C779 2.193 . S
C1705 C153 0.505 . S
C1711 C522 0.408 . S
C1731 C698 2.316 . S
C1725 C315 2.331 . S
C1745 C125 0.619 . S
C1751 C585 0.513 . S
C1765 C287 2.366 . S
C1771 C858 2.365 . S
C1785 C193 1.716 1_556 S
C1791 C345 1.700 . S
C1805 C176 2.177 . S
C1811 C671 2.195 . S
C1825 C263 1.223 . S
C1831 C545 1.260 . S
C1845 C246 1.402 . S
C1851 C739 1.446 . S
C1871 C865 1.258 . S
C1865 C277 1.255 . S
C1885 C221 2.537 . S
C1891 C438 2.540 1_565 S
C1911 C458 1.472 . S
C1905 C260 1.453 . S
C1931 C402 0.490 . S
C1925 C204 0.418 . S
C1945 C83 1.704 . S
C1951 C918 1.747 . S
C1971 C818 1.217 . S
C1965 C92 1.169 . S
C1985 C105 0.581 . S
C1991 C945 0.576 . S
C2005 C67 0.889 . S
C2011 C802 0.866 . S
C2025 C53 2.374 . S
C2031 C659 2.381 . S
C2051 C718 1.825 . S
C2045 C8 1.795 1_655 S
C2071 C751 2.671 . S
C2065 C22 2.569 . S
C2091 C878 2.375 . S
C2085 C39 2.401 . S
C2111 C911 1.480 . S
C2105 C265 1.369 . S
C2125 C189 1.335 . S
C2131 C819 1.334 . S
C2151 C938 0.542 . S
C2145 C209 0.632 . S
C2171 C798 2.066 . S
C2165 C217 2.043 . S
C2191 C665 0.373 . S
C2185 C259 0.300 . S
C2205 C195 2.128 . S
C2211 C711 2.192 . S
C2231 C762 0.530 . S
C2225 C203 0.489 . S
C2245 C223 2.128 . S
C2251 C871 2.255 . S
C2271 C922 1.711 . S
C2265 C319 1.772 . S
C2285 C134 2.113 . S
C2291 C498 2.182 . S
C2311 C562 1.195 . S
C2305 C151 1.206 . S
C2331 C598 1.359 . S
C2325 C162 1.382 . S
C2351 C882 1.248 . S
C2345 C305 1.289 . S
C2365 C291 2.450 . S
C2371 C939 2.457 1_655 S
C2391 C471 1.381 . S
C2385 C148 1.261 . S
C2411 C385 0.320 . S
C2405 C120 0.399 . S
C2425 C91 1.860 . S
C2431 C899 1.858 . S
C2451 C391 1.267 . S
C2445 C78 1.278 . S
C2465 C69 0.690 . S
C2471 C962 0.702 . S
C2485 C109 0.933 . S
C2491 C465 0.935 . S
C2505 C41 2.478 . S
C2511 C678 2.547 . S
C2531 C539 1.832 . S
C2525 C27 1.706 . S
C2545 C7 2.647 . S
C2551 C738 2.654 . S
C2565 C49 2.552 . S
C2571 C619 2.530 . S
C2591 C898 1.540 . S
C2585 C329 1.538 . S
C2605 C167 1.469 . S
C2611 C398 1.497 . S
C2631 C951 0.620 . S
C2625 C301 0.609 . S
C2645 C139 2.022 . S
C2651 C459 2.193 . S
C2665 C335 0.485 . S
C2671 C682 0.416 . S
C2691 C538 2.312 . S
C2685 C161 2.332 1_556 S
C2705 C307 0.585 . S
C2711 C745 0.529 . S
C2731 C618 2.362 . S
C2725 C133 2.366 . S
C2751 C905 1.696 . S
C2745 C249 1.717 . S
C2771 C511 2.196 1_655 S
C2765 C218 2.179 . S
C2785 C235 1.187 . S
C2791 C705 1.233 . S
C2811 C579 1.440 . S
C2805 C190 1.414 . S
C2825 C207 1.226 . S
C2831 C625 1.237 . S
C2845 C179 2.539 . S
C2851 C958 2.542 . S
C2871 C778 1.468 . S
C2865 C232 1.450 . S
C2891 C842 0.437 . S
C2885 C274 0.455 . S
