# Generated by pormake.
# Topology zzz, (3,6)-cn, num edge types: 1
# Building blocks:
#     Node 0, Type 0, BuildingBlock: WUSLED_clean_sbu_0, # of connection points: 3
#     Node 1, Type 0, BuildingBlock: WUSLED_clean_sbu_0, # of connection points: 3
#     Node 2, Type 0, BuildingBlock: WUSLED_clean_sbu_0, # of connection points: 3
#     Node 3, Type 0, BuildingBlock: WUSLED_clean_sbu_0, # of connection points: 3
#     Node 4, Type 0, BuildingBlock: WUSLED_clean_sbu_0, # of connection points: 3
#     Node 5, Type 0, BuildingBlock: WUSLED_clean_sbu_0, # of connection points: 3
#     Node 6, Type 0, BuildingBlock: WUSLED_clean_sbu_0, # of connection points: 3
#     Node 7, Type 0, BuildingBlock: WUSLED_clean_sbu_0, # of connection points: 3
#     Node 8, Type 1, BuildingBlock: LEVNOQ01_clean_sbu_1, # of connection points: 6
#     Node 9, Type 1, BuildingBlock: LEVNOQ01_clean_sbu_1, # of connection points: 6
#     Node 10, Type 1, BuildingBlock: LEVNOQ01_clean_sbu_1, # of connection points: 6
#     Node 11, Type 1, BuildingBlock: LEVNOQ01_clean_sbu_1, # of connection points: 6
#     Edge 12, Type (0, 1), BuildingBlock: CIFDUS_clean_linker_0, # of connection points: 2
#     Edge 13, Type (0, 1), BuildingBlock: CIFDUS_clean_linker_0, # of connection points: 2
#     Edge 14, Type (0, 1), BuildingBlock: CIFDUS_clean_linker_0, # of connection points: 2
#     Edge 15, Type (0, 1), BuildingBlock: CIFDUS_clean_linker_0, # of connection points: 2
#     Edge 16, Type (0, 1), BuildingBlock: CIFDUS_clean_linker_0, # of connection points: 2
#     Edge 17, Type (0, 1), BuildingBlock: CIFDUS_clean_linker_0, # of connection points: 2
#     Edge 18, Type (0, 1), BuildingBlock: CIFDUS_clean_linker_0, # of connection points: 2
#     Edge 19, Type (0, 1), BuildingBlock: CIFDUS_clean_linker_0, # of connection points: 2
#     Edge 20, Type (0, 1), BuildingBlock: CIFDUS_clean_linker_0, # of connection points: 2
#     Edge 21, Type (0, 1), BuildingBlock: CIFDUS_clean_linker_0, # of connection points: 2
#     Edge 22, Type (0, 1), BuildingBlock: CIFDUS_clean_linker_0, # of connection points: 2
#     Edge 23, Type (0, 1), BuildingBlock: CIFDUS_clean_linker_0, # of connection points: 2
#     Edge 24, Type (0, 1), BuildingBlock: CIFDUS_clean_linker_0, # of connection points: 2
#     Edge 25, Type (0, 1), BuildingBlock: CIFDUS_clean_linker_0, # of connection points: 2
#     Edge 26, Type (0, 1), BuildingBlock: CIFDUS_clean_linker_0, # of connection points: 2
#     Edge 27, Type (0, 1), BuildingBlock: CIFDUS_clean_linker_0, # of connection points: 2
#     Edge 28, Type (0, 1), BuildingBlock: CIFDUS_clean_linker_0, # of connection points: 2
#     Edge 29, Type (0, 1), BuildingBlock: CIFDUS_clean_linker_0, # of connection points: 2
#     Edge 30, Type (0, 1), BuildingBlock: CIFDUS_clean_linker_0, # of connection points: 2
#     Edge 31, Type (0, 1), BuildingBlock: CIFDUS_clean_linker_0, # of connection points: 2
#     Edge 32, Type (0, 1), BuildingBlock: CIFDUS_clean_linker_0, # of connection points: 2
#     Edge 33, Type (0, 1), BuildingBlock: CIFDUS_clean_linker_0, # of connection points: 2
#     Edge 34, Type (0, 1), BuildingBlock: CIFDUS_clean_linker_0, # of connection points: 2
#     Edge 35, Type (0, 1), BuildingBlock: CIFDUS_clean_linker_0, # of connection points: 2
# Relax obj value: 0.289
# Max RMSD: 0.214
# Mean RMSD: 0.200
data_MOF--net-zzz--node1-WUSLED_clean_sbu_0--node2-LEVNOQ01_clean_sbu_1--edge1-CIFDUS_clean_linker_0
_symmetry_space_group_name_H-M    P1
_symmetry_Int_Tables_number       1
_symmetry_cell_setting            triclinic
loop_
_symmetry_equiv_pos_as_xyz
'x, y, z'
_cell_length_a     53.381175
_cell_length_b     56.345477
_cell_length_c     20.394743
_cell_angle_alpha  89.822449
_cell_angle_beta   90.085866
_cell_angle_gamma 88.251088
loop_
_atom_site_label
_atom_site_type_symbol
_atom_site_fract_x
_atom_site_fract_y
_atom_site_fract_z
_atom_type_partial_charge
C0 C 0.81703 0.59131 0.29709 0.0
C1 C 0.84026 0.585 0.26854 0.0
C2 C 0.85976 0.58165 0.37736 0.0
C3 C 0.8615 0.58037 0.30837 0.0
C4 C 0.83673 0.58929 0.40487 0.0
C5 C 0.81574 0.594 0.36533 0.0
U6 U 0.767 0.59919 0.15143 0.0
O7 O 0.73522 0.57546 0.14456 0.0
O8 O 0.72823 0.61348 0.16176 0.0
C9 C 0.71839 0.59282 0.14978 0.0
C10 C 0.79307 0.59232 0.26003 0.0
C11 C 0.69769 0.59233 0.10171 0.0
C12 C 0.65518 0.58079 0.07751 0.0
C13 C 0.67476 0.5835 0.12211 0.0
C14 C 0.68092 0.59629 0.99071 0.0
C15 C 0.65787 0.587 0.01092 0.0
C16 C 0.70068 0.59885 0.03567 0.0
C17 C 0.81367 0.61247 0.0138 0.0
C18 C 0.8403 0.60788 0.91855 0.0
C19 C 0.85846 0.60668 0.02772 0.0
C20 C 0.83473 0.61078 0.05483 0.0
C21 C 0.86112 0.60391 0.95965 0.0
C22 C 0.81666 0.61218 0.9456 0.0
C23 C 0.78853 0.61002 0.0403 0.0
O24 O 0.78316 0.61312 0.24322 0.0
O25 O 0.78905 0.57551 0.21706 0.0
O26 O 0.78067 0.62613 0.08265 0.0
O27 O 0.78344 0.58823 0.05771 0.0
H28 H 0.84175 0.58276 0.21595 0.0
H29 H 0.8789 0.57457 0.28541 0.0
H30 H 0.83468 0.59094 0.4575 0.0
H31 H 0.79805 0.59876 0.38861 0.0
H32 H 0.63817 0.573 0.09521 0.0
H33 H 0.67218 0.57809 0.17263 0.0
H34 H 0.68376 0.60147 0.94018 0.0
H35 H 0.71836 0.60556 0.01875 0.0
H36 H 0.842 0.60562 0.86598 0.0
H37 H 0.87425 0.60329 0.06021 0.0
H38 H 0.83259 0.61074 0.10765 0.0
H39 H 0.80047 0.61333 0.91346 0.0
C40 C 0.00561 0.79366 0.3654 0.0
C41 C 0.02174 0.8112 0.34293 0.0
C42 C 1.00399 0.83976 0.42094 0.0
C43 C 0.02109 0.83384 0.37068 0.0
C44 C 0.98857 0.82185 0.4452 0.0
C45 C 0.98937 0.79904 0.41762 0.0
U46 U 0.00575 0.76797 0.20036 0.0
O47 O 0.02272 0.73566 0.15578 0.0
O48 O 0.98179 0.7439 0.14456 0.0
C49 C 1.00105 0.72962 0.13107 0.0
C50 C 1.00314 0.77147 0.32764 0.0
C51 C 0.99841 0.70793 0.09194 0.0
C52 C 0.00862 0.66612 0.07413 0.0
C53 C 0.00965 0.68644 0.11316 0.0
C54 C 0.98528 0.68861 0.99167 0.0
C55 C 0.99677 0.66706 0.01247 0.0
C56 C 0.98592 0.70883 0.03136 0.0
C57 C 0.01672 0.81999 0.07907 0.0
C58 C 0.0057 0.82552 0.96426 0.0
C59 C 0.02836 0.8556 0.023 0.0
C60 C 0.02843 0.84178 0.07913 0.0
C61 C 0.01641 0.84792 0.96597 0.0
C62 C 0.00581 0.81149 0.02118 0.0
C63 C 0.01399 0.80835 0.14233 0.0
O64 O 0.98306 0.77112 0.29028 0.0
O65 O 0.02357 0.76377 0.29735 0.0
O66 O 0.03219 0.7936 0.16087 0.0
O67 O 0.99146 0.80122 0.15673 0.0
H68 H 0.03429 0.80773 0.30214 0.0
H69 H 0.03375 0.84684 0.35169 0.0
H70 H 0.97507 0.82568 0.48356 0.0
H71 H 0.97654 0.78593 0.43515 0.0
H72 H 0.01787 0.64987 0.09121 0.0
H73 H 0.01946 0.68543 0.15969 0.0
H74 H 0.97597 0.68986 0.9445 0.0
H75 H 0.97732 0.72533 0.01387 0.0
H76 H 0.99654 0.81941 0.92028 0.0
H77 H 0.03683 0.87284 0.02475 0.0
H78 H 0.03675 0.8486 0.12351 0.0
H79 H 0.99668 0.79459 0.02082 0.0
C80 C 0.70108 0.92781 0.33154 0.0
C81 C 0.67838 0.9287 0.29652 0.0
C82 C 0.65539 0.93906 0.39636 0.0
C83 C 0.65578 0.93436 0.32859 0.0
C84 C 0.67801 0.9369 0.43175 0.0
C85 C 0.70064 0.93145 0.39954 0.0
U86 U 0.73916 0.91686 0.1754 0.0
O87 O 0.76835 0.93944 0.1354 0.0
O88 O 0.77743 0.90193 0.15835 0.0
C89 C 0.78564 0.92234 0.13693 0.0
C90 C 0.72536 0.92588 0.29687 0.0
C91 C 0.80516 0.92233 0.08555 0.0
C92 C 0.8494 0.92683 0.06155 0.0
C93 C 0.83009 0.92341 0.10639 0.0
C94 C 0.81933 0.92697 0.9727 0.0
C95 C 0.84444 0.92901 0.99392 0.0
C96 C 0.79983 0.92382 0.01815 0.0
C97 C 0.69328 0.90163 0.02943 0.0
C98 C 0.68421 0.92046 0.92493 0.0
C99 C 0.65386 0.89491 0.97468 0.0
C100 C 0.67067 0.8897 0.02545 0.0
C101 C 0.65966 0.91208 0.92755 0.0
C102 C 0.70095 0.91543 0.97618 0.0
C103 C 0.70311 0.90571 0.09537 0.0
O104 O 0.73281 0.90463 0.27709 0.0
O105 O 0.72856 0.94235 0.25231 0.0
O106 O 0.7088 0.92766 0.10931 0.0
O107 O 0.71755 0.88944 0.12409 0.0
H108 H 0.67829 0.92598 0.24395 0.0
H109 H 0.63865 0.9357 0.30006 0.0
H110 H 0.67841 0.94066 0.48379 0.0
H111 H 0.71796 0.93104 0.42736 0.0
H112 H 0.86812 0.92884 0.08076 0.0
H113 H 0.83459 0.92261 0.15822 0.0
H114 H 0.81465 0.92819 0.92112 0.0
H115 H 0.78066 0.92312 0.0009 0.0
H116 H 0.68923 0.93342 0.88822 0.0
H117 H 0.63513 0.8881 0.9779 0.0
H118 H 0.66447 0.87896 0.06618 0.0
H119 H 0.71844 0.92468 0.97817 0.0
C120 C 0.49569 0.72491 0.35877 0.0
C121 C 0.4924 0.7025 0.33042 0.0
C122 C 0.49247 0.6839 0.43767 0.0
C123 C 0.49085 0.68221 0.36938 0.0
C124 C 0.49558 0.70626 0.46657 0.0
C125 C 0.49731 0.7267 0.42722 0.0
U126 U 0.49594 0.74348 0.18751 0.0
O127 O 0.47937 0.77231 0.12717 0.0
O128 O 0.5203 0.76474 0.12438 0.0
C129 C 0.50108 0.77716 0.10058 0.0
C130 C 0.4978 0.74573 0.31513 0.0
C131 C 0.50487 0.80116 0.07515 0.0
C132 C 0.49965 0.84414 0.08009 0.0
C133 C 0.49868 0.82181 0.11071 0.0
C134 C 0.51343 0.82515 0.97936 0.0
C135 C 0.5064 0.84586 0.01357 0.0
C136 C 0.51273 0.80306 0.00993 0.0
C137 C 0.48791 0.68922 0.07873 0.0
C138 C 0.49239 0.68863 0.96022 0.0
C139 C 0.48376 0.65256 0.02073 0.0
C140 C 0.48359 0.66498 0.07903 0.0
C141 C 0.48817 0.66422 0.96116 0.0
C142 C 0.49216 0.70123 0.01936 0.0
C143 C 0.48929 0.70093 0.14181 0.0
O144 O 0.51806 0.74521 0.27845 0.0
O145 O 0.47732 0.75132 0.28171 0.0
O146 O 0.47059 0.7157 0.15604 0.0
O147 O 0.51141 0.70882 0.1571 0.0
H148 H 0.49099 0.70068 0.27787 0.0
H149 H 0.4881 0.6652 0.3462 0.0
H150 H 0.49657 0.70789 0.5194 0.0
H151 H 0.49983 0.74378 0.45009 0.0
H152 H 0.49399 0.85989 0.10725 0.0
H153 H 0.49239 0.82059 0.16105 0.0
H154 H 0.51875 0.826 0.92817 0.0
H155 H 0.51741 0.78729 0.98161 0.0
H156 H 0.496 0.69773 0.91449 0.0
H157 H 0.48088 0.63359 0.02215 0.0
H158 H 0.48055 0.65553 0.12459 0.0
H159 H 0.49567 0.72006 0.01907 0.0
C160 C 0.20092 0.41703 0.11322 0.0
C161 C 0.17767 0.41357 0.14347 0.0
C162 C 0.15577 0.42973 0.04697 0.0
C163 C 0.15527 0.4198 0.11052 0.0
C164 C 0.17922 0.4326 0.01684 0.0
C165 C 0.20146 0.42629 0.04954 0.0
U166 U 0.23864 0.40643 0.27147 0.0
O167 O 0.2762 0.39006 0.29194 0.0
O168 O 0.26945 0.42856 0.3022 0.0
C169 C 0.28567 0.41064 0.30711 0.0
C170 C 0.22476 0.41404 0.14931 0.0
C171 C 0.30365 0.41184 0.36194 0.0
C172 C 0.34731 0.41713 0.39216 0.0
C173 C 0.32932 0.40938 0.34764 0.0
C174 C 0.31421 0.42771 0.46865 0.0
C175 C 0.33982 0.42753 0.45171 0.0
C176 C 0.29623 0.42005 0.42402 0.0
C177 C 0.19142 0.39708 0.42035 0.0
C178 C 0.17956 0.41913 0.51769 0.0
C179 C 0.1511 0.391 0.47131 0.0
C180 C 0.1691 0.38465 0.42446 0.0
C181 C 0.15546 0.40979 0.51435 0.0
C182 C 0.19751 0.41286 0.47058 0.0
C183 C 0.20258 0.39933 0.35504 0.0
O184 O 0.22894 0.43103 0.19132 0.0
O185 O 0.23074 0.39276 0.17231 0.0
O186 O 0.21554 0.38159 0.32868 0.0
O187 O 0.20987 0.4205 0.33756 0.0
H188 H 0.17688 0.40671 0.19309 0.0
H189 H 0.13761 0.41716 0.13517 0.0
H190 H 0.18056 0.44068 0.9688 0.0
H191 H 0.21921 0.42952 0.02588 0.0
H192 H 0.36681 0.41692 0.37748 0.0
H193 H 0.33541 0.40327 0.29974 0.0
H194 H 0.30794 0.43546 0.51456 0.0
H195 H 0.27653 0.42218 0.43612 0.0
H196 H 0.18339 0.43343 0.55132 0.0
H197 H 0.1327 0.38349 0.46784 0.0
H198 H 0.1641 0.37238 0.3861 0.0
H199 H 0.21473 0.42253 0.46862 0.0
C200 C 0.02089 0.21544 0.09942 0.0
C201 C 0.02075 0.19412 0.13498 0.0
C202 C 0.0172 0.17174 0.03333 0.0
C203 C 0.01872 0.17244 0.10217 0.0
C204 C 0.01802 0.19304 0.99775 0.0
C205 C 0.01974 0.21473 0.03063 0.0
U206 U 0.02046 0.25987 0.24724 0.0
O207 O 1.00186 0.29523 0.24748 0.0
O208 O 0.04282 0.29201 0.25407 0.0
C209 C 0.02284 0.30604 0.25973 0.0
C210 C 0.02169 0.23872 0.13213 0.0
C211 C 0.02252 0.32148 0.31801 0.0
C212 C 0.03561 0.3573 0.37294 0.0
C213 C 0.03528 0.34285 0.3172 0.0
C214 C 0.01028 0.32919 0.43094 0.0
C215 C 0.023 0.35076 0.43059 0.0
C216 C 0.01023 0.31465 0.37553 0.0
C217 C 0.01536 0.21306 0.38879 0.0
C218 C 0.01426 0.18975 0.48886 0.0
C219 C 0.01046 0.17052 0.38317 0.0
C220 C 0.01251 0.19244 0.35167 0.0
C221 C 0.01129 0.16916 0.45182 0.0
C222 C 0.01626 0.21162 0.45741 0.0
C223 C 0.01709 0.23645 0.35819 0.0
O224 O 1.00087 0.24644 0.16037 0.0
O225 O 0.04186 0.24301 0.16667 0.0
O226 O 0.03856 0.24122 0.3304 0.0
O227 O 0.99746 0.24429 0.32469 0.0
H228 H 0.02179 0.19429 0.18789 0.0
H229 H 0.01788 0.1562 0.13056 0.0
H230 H 0.01639 0.19298 0.94479 0.0
H231 H 0.01974 0.23103 0.00231 0.0
H232 H 0.04595 0.37351 0.37084 0.0
H233 H 0.04512 0.34829 0.27351 0.0
H234 H 0.99991 0.32364 0.47362 0.0
H235 H 1.00045 0.29808 0.37758 0.0
H236 H 0.01476 0.18893 0.54195 0.0
H237 H 0.0081 0.15466 0.35418 0.0
H238 H 0.01164 0.19335 0.29879 0.0
H239 H 0.01836 0.22746 0.4867 0.0
C240 C 0.30514 0.09907 0.10648 0.0
C241 C 0.32941 0.10497 0.12627 0.0
C242 C 0.34652 0.09017 0.02241 0.0
C243 C 0.34997 0.10059 0.08445 0.0
C244 C 0.32208 0.0842 0.00376 0.0
C245 C 0.30172 0.0887 0.04509 0.0
U246 U 0.274 0.1104 0.27432 0.0
O247 O 0.23639 0.12571 0.2991 0.0
O248 O 0.2459 0.08793 0.31938 0.0
C249 C 0.22867 0.10509 0.32028 0.0
C250 C 0.28326 0.10153 0.15018 0.0
C251 C 0.20829 0.10381 0.36887 0.0
C252 C 0.16355 0.09872 0.38373 0.0
C253 C 0.18363 0.10572 0.3451 0.0
C254 C 0.19219 0.08967 0.47314 0.0
C255 C 0.16771 0.08993 0.44731 0.0
C256 C 0.21243 0.09653 0.43407 0.0
C257 C 0.32196 0.12316 0.41497 0.0
C258 C 0.32945 0.10242 0.51753 0.0
C259 C 0.36114 0.12773 0.47282 0.0
C260 C 0.34501 0.13416 0.42149 0.0
C261 C 0.35421 0.11022 0.51776 0.0
C262 C 0.31332 0.10885 0.46611 0.0
C263 C 0.3123 0.12045 0.34829 0.0
O264 O 0.2819 0.08498 0.19525 0.0
O265 O 0.2773 0.1229 0.17205 0.0
O266 O 0.29728 0.13708 0.32334 0.0
O267 O 0.30638 0.09876 0.33225 0.0
H268 H 0.33247 0.11267 0.17412 0.0
H269 H 0.36847 0.10542 0.10053 0.0
H270 H 0.31863 0.07551 0.95749 0.0
H271 H 0.28324 0.08359 0.0295 0.0
H272 H 0.14502 0.09838 0.36206 0.0
H273 H 0.18007 0.11085 0.29459 0.0
H274 H 0.19587 0.08242 0.52158 0.0
H275 H 0.23133 0.09466 0.45322 0.0
H276 H 0.32366 0.08911 0.55239 0.0
H277 H 0.38012 0.13402 0.47193 0.0
H278 H 0.35196 0.14524 0.3824 0.0
H279 H 0.29548 0.10029 0.46206 0.0
C280 C 0.49844 0.30396 0.09479 0.0
C281 C 0.49491 0.32485 0.13128 0.0
C282 C 0.49457 0.34848 0.03043 0.0
C283 C 0.49303 0.34694 0.09937 0.0
C284 C 0.49817 0.32739 0.99446 0.0
C285 C 0.50013 0.30542 0.02635 0.0
U286 U 0.50072 0.25782 0.2389 0.0
O287 O 0.48047 0.22441 0.24181 0.0
O288 O 0.52152 0.22349 0.2386 0.0
C289 C 0.5012 0.21148 0.24915 0.0
C290 C 0.49944 0.28027 0.12558 0.0
C291 C 0.50206 0.1966 0.30851 0.0
C292 C 0.50555 0.15791 0.36091 0.0
C293 C 0.50406 0.17183 0.30396 0.0
C294 C 0.50283 0.19346 0.42741 0.0
C295 C 0.5051 0.16858 0.42333 0.0
C296 C 0.50135 0.20732 0.37055 0.0
C297 C 0.50286 0.30253 0.38615 0.0
C298 C 0.50627 0.32261 0.49049 0.0
C299 C 0.51063 0.34462 0.3889 0.0
C300 C 0.50667 0.32393 0.35313 0.0
C301 C 0.51106 0.34397 0.45791 0.0
C302 C 0.50218 0.30206 0.45478 0.0
C303 C 0.50177 0.27991 0.35171 0.0
O304 O 0.52042 0.27372 0.15535 0.0
O305 O 0.47926 0.27399 0.15731 0.0
O306 O 0.4808 0.27514 0.32127 0.0
O307 O 0.52204 0.27312 0.31954 0.0
H308 H 0.49349 0.32405 0.18417 0.0
H309 H 0.49063 0.36282 0.12873 0.0
H310 H 0.4991 0.32776 0.94143 0.0
H311 H 0.50268 0.28946 0.99731 0.0
H312 H 0.50773 0.13883 0.35601 0.0
H313 H 0.50478 0.16329 0.25646 0.0
H314 H 0.50224 0.20224 0.47457 0.0
H315 H 0.49982 0.22646 0.37497 0.0
H316 H 0.5062 0.32169 0.54356 0.0
H317 H 0.51447 0.36084 0.36266 0.0
H318 H 0.50742 0.32446 0.30011 0.0
H319 H 0.49929 0.28558 0.48087 0.0
O320 O 0.05438 0.97184 0.78038 0.0
Mg321 Mg 0.0463 0.98587 0.68782 0.0
O322 O 0.01534 0.98349 0.79241 0.0
Mg323 Mg 1.00222 0.00948 0.71282 0.0
O324 O 0.04212 0.02141 0.66507 0.0
O325 O 0.07719 0.99865 0.65056 0.0
O326 O 0.98737 0.03496 0.63354 0.0
O327 O 0.0117 0.0427 0.78371 0.0
Mg328 Mg 0.96666 0.03116 0.76951 0.0
O329 O 0.96142 0.99598 0.75554 0.0
O330 O 0.96306 0.05736 0.69579 0.0
O331 O 0.98257 0.04103 0.85765 0.0
O332 O 0.932 0.02231 0.79192 0.0
C333 C 0.00917 0.96124 0.61364 0.0
C334 C 0.03413 0.97112 0.81177 0.0
C335 C 0.06532 0.01878 0.64433 0.0
C336 C 0.97367 0.05352 0.6415 0.0
C337 C 1.00254 0.04993 0.83828 0.0
C338 C 0.93897 0.00077 0.77909 0.0
O339 O 0.03257 0.9615 0.6213 0.0
O340 O 0.99498 0.97673 0.64209 0.0
O341 O 0.44498 0.01767 0.78114 0.0
Mg342 Mg 0.46182 0.99009 0.72399 0.0
O343 O 0.48166 0.02902 0.81719 0.0
Mg344 Mg 0.50487 0.00995 0.73277 0.0
O345 O 0.49115 0.97144 0.76607 0.0
O346 O 0.45185 0.95828 0.7566 0.0
O347 O 0.5293 0.99116 0.65027 0.0
O348 O 0.53627 0.99795 0.80459 0.0
Mg349 Mg 0.55324 0.03537 0.73303 0.0
O350 O 0.51916 0.04709 0.70088 0.0
O351 O 0.566 0.00803 0.66759 0.0
O352 O 0.55653 0.02916 0.83418 0.0
O353 O 0.55281 0.06979 0.70185 0.0
C354 C 0.4589 0.0142 0.61895 0.0
C355 C 0.45771 0.03037 0.81907 0.0
C356 C 0.47477 0.95501 0.77541 0.0
C357 C 0.5528 0.99285 0.63847 0.0
C358 C 0.55251 0.00735 0.84104 0.0
C359 C 0.52961 0.06703 0.68657 0.0
O360 O 0.45594 0.99214 0.62218 0.0
O361 O 0.47414 0.02342 0.65866 0.0
O362 O 0.53342 0.47725 0.84768 0.0
Mg363 Mg 0.54714 0.489 0.75796 0.0
O364 O 0.50256 0.47618 0.77788 0.0
Mg365 Mg 0.5071 0.51009 0.70709 0.0
O366 O 0.54702 0.52505 0.74664 0.0
O367 O 0.58119 0.50191 0.77017 0.0
O368 O 0.50904 0.54306 0.63556 0.0
O369 O 0.49442 0.53538 0.78996 0.0
Mg370 Mg 0.4632 0.52713 0.70959 0.0
O371 O 0.46777 0.4954 0.66121 0.0
O372 O 0.47238 0.55893 0.66153 0.0
O373 O 0.45525 0.52959 0.81008 0.0
O374 O 0.4319 0.51717 0.66764 0.0
C375 C 0.53484 0.4674 0.63006 0.0
C376 C 0.513 0.46855 0.83063 0.0
C377 C 0.5706 0.52268 0.76444 0.0
C378 C 0.49292 0.56023 0.63122 0.0
C379 C 0.47504 0.54009 0.8239 0.0
C380 C 0.44392 0.49847 0.64734 0.0
O381 O 0.54712 0.46349 0.68215 0.0
O382 O 0.52166 0.48638 0.62426 0.0
O383 O 0.96056 0.48588 0.84367 0.0
Mg384 Mg 0.95846 0.47469 0.74524 0.0
O385 O 0.97678 0.51815 0.80388 0.0
Mg386 Mg 0.00546 0.50807 0.72405 0.0
O387 O 0.99289 0.47037 0.70735 0.0
O388 O 0.96759 0.44015 0.71399 0.0
O389 O 0.03382 0.49641 0.64336 0.0
O390 O 0.03393 0.49174 0.80214 0.0
Mg391 Mg 0.0506 0.53348 0.70667 0.0
O392 O 0.01791 0.54724 0.74537 0.0
O393 O 0.05321 0.52699 0.60566 0.0
O394 O 0.06901 0.50795 0.76899 0.0
O395 O 0.0528 0.56806 0.73149 0.0
C396 C 0.95133 0.5172 0.64335 0.0
C397 C 0.96303 0.50814 0.84582 0.0
C398 C 0.98824 0.44864 0.69298 0.0
C399 C 0.04875 0.50519 0.60205 0.0
C400 C 0.05775 0.49333 0.80515 0.0
C401 C 0.0299 0.56697 0.75114 0.0
O402 O 0.94273 0.50043 0.67824 0.0
O403 O 0.97458 0.52269 0.64702 0.0
H404 H 0.13147 0.10267 0.53902 0.0
H405 H 0.16038 0.04449 0.42172 0.0
H406 H 0.12917 0.01845 0.46715 0.0
H407 H 0.09552 0.01145 0.54279 0.0
H408 H 0.06561 0.06775 0.66477 0.0
H409 H 0.09473 0.09561 0.61382 0.0
C410 C 0.13079 0.08427 0.52386 0.0
C411 C 0.14833 0.07527 0.47777 0.0
C412 C 0.11256 0.06924 0.55047 0.0
C413 C 0.14722 0.05158 0.45761 0.0
C414 C 0.12934 0.03676 0.48332 0.0
C415 C 0.09518 0.02988 0.55817 0.0
C416 C 0.07868 0.03746 0.60804 0.0
C417 C 0.11217 0.04531 0.53008 0.0
C418 C 0.07813 0.06149 0.62639 0.0
C419 C 0.09498 0.0773 0.5977 0.0
H420 H 0.48398 0.12619 0.45161 0.0
H421 H 0.53367 0.17795 0.53083 0.0
H422 H 0.54233 0.15241 0.6253 0.0
H423 H 0.53963 0.11364 0.67895 0.0
H424 H 0.49327 0.06033 0.59502 0.0
H425 H 0.47883 0.08833 0.51025 0.0
C426 C 0.49664 0.1319 0.48967 0.0
C427 C 0.50832 0.15388 0.48368 0.0
C428 C 0.50196 0.11689 0.54342 0.0
C429 C 0.52428 0.16122 0.53419 0.0
C430 C 0.52938 0.14656 0.58815 0.0
C431 C 0.52597 0.10832 0.64283 0.0
C432 C 0.5171 0.08508 0.64401 0.0
C433 C 0.51882 0.12413 0.59242 0.0
C434 C 0.4996 0.07836 0.59667 0.0
C435 C 0.49178 0.09424 0.54733 0.0
H436 H 0.38807 0.41634 0.49566 0.0
H437 H 0.33143 0.47273 0.48844 0.0
H438 H 0.35923 0.49917 0.54444 0.0
H439 H 0.39846 0.50664 0.59557 0.0
H440 H 0.45649 0.45185 0.60991 0.0
H441 H 0.42943 0.42445 0.55015 0.0
C442 C 0.3819 0.43437 0.50692 0.0
C443 C 0.35742 0.44238 0.48911 0.0
C444 C 0.39817 0.44975 0.53993 0.0
C445 C 0.34978 0.46587 0.50319 0.0
C446 C 0.36577 0.48111 0.53469 0.0
C447 C 0.40543 0.48868 0.58626 0.0
C448 C 0.42946 0.48132 0.60803 0.0
C449 C 0.38982 0.47323 0.55346 0.0
C450 C 0.43806 0.45804 0.59391 0.0
C451 C 0.42252 0.44237 0.55997 0.0
H452 H 0.02153 0.39944 0.4337 0.0
H453 H 0.02309 0.3379 0.56078 0.0
H454 H 0.01569 0.36335 0.65553 0.0
H455 H 1.00357 0.4026 0.70035 0.0
H456 H 1.00359 0.46407 0.57435 0.0
H457 H 0.01668 0.43923 0.48158 0.0
C458 C 0.02096 0.39152 0.48213 0.0
C459 C 0.02222 0.3666 0.48932 0.0
C460 C 0.01711 0.4063 0.53685 0.0
C461 C 0.02127 0.35689 0.55299 0.0
C462 C 0.01727 0.37146 0.60751 0.0
C463 C 0.00726 0.41056 0.65296 0.0
C464 C 1.00289 0.43506 0.64403 0.0
C465 C 0.01437 0.39611 0.59974 0.0
C466 C 0.00733 0.44528 0.58248 0.0
C467 C 0.01447 0.43103 0.52928 0.0
H468 H 0.84166 0.95686 0.88325 0.0
H469 H 0.89455 0.91517 0.99937 0.0
H470 H 0.92918 0.93099 0.93667 0.0
H471 H 0.94481 0.961 0.85753 0.0
H472 H 0.89113 0.00106 0.7403 0.0
H473 H 0.85676 0.98091 0.79271 0.0
C474 C 0.86062 0.95057 0.89395 0.0
C475 C 0.8652 0.93521 0.94759 0.0
C476 C 0.88057 0.95948 0.85696 0.0
C477 C 0.89022 0.92762 0.96013 0.0
C478 C 0.91017 0.93652 0.92379 0.0
C479 C 0.92565 0.96449 0.84153 0.0
C480 C 0.92054 0.98239 0.79448 0.0
C481 C 0.90567 0.95308 0.87325 0.0
C482 C 0.89555 0.98717 0.77572 0.0
C483 C 0.87582 0.97584 0.80631 0.0
H484 H 0.47945 0.85381 0.90447 0.0
H485 H 0.52758 0.88857 0.04125 0.0
H486 H 0.52427 0.92533 0.97584 0.0
H487 H 0.50655 0.94769 0.87984 0.0
H488 H 0.45668 0.91217 0.74831 0.0
H489 H 0.4621 0.8755 0.81076 0.0
C490 C 0.4893 0.86944 0.91976 0.0
C491 C 0.50386 0.86857 0.97708 0.0
C492 C 0.48712 0.89029 0.88247 0.0
C493 C 0.5162 0.88896 0.99723 0.0
C494 C 0.51441 0.90987 0.95968 0.0
C495 C 0.4973 0.93175 0.86444 0.0
C496 C 0.48142 0.93251 0.80923 0.0
C497 C 0.4999 0.91075 0.90202 0.0
C498 C 0.46908 0.91194 0.79044 0.0
C499 C 0.47206 0.891 0.82627 0.0
H500 H 0.66146 0.57285 0.88215 0.0
H501 H 0.60695 0.59093 0.03144 0.0
H502 H 0.57352 0.57653 0.96202 0.0
H503 H 0.56069 0.55303 0.86559 0.0
H504 H 0.61535 0.53534 0.71718 0.0
H505 H 0.64732 0.55632 0.77773 0.0
C506 C 0.64224 0.57433 0.89908 0.0
C507 C 0.63708 0.58239 0.96323 0.0
C508 C 0.6229 0.56614 0.8585 0.0
C509 C 0.61183 0.58401 0.98352 0.0
C510 C 0.59254 0.57594 0.94348 0.0
C511 C 0.57928 0.55479 0.84509 0.0
C512 C 0.58558 0.54287 0.78647 0.0
C513 C 0.59794 0.56616 0.88174 0.0
C514 C 0.60998 0.54467 0.76161 0.0
C515 C 0.62838 0.55636 0.79682 0.0
H516 H 0.00905 0.66584 0.88351 0.0
H517 H 0.98743 0.62089 0.04386 0.0
H518 H 0.99291 0.58579 0.97428 0.0
H519 H 0.00648 0.56764 0.86927 0.0
H520 H 0.03118 0.61277 0.71282 0.0
H521 H 0.0211 0.64803 0.7783 0.0
C522 C 0.00498 0.64841 0.90277 0.0
C523 C 0.99777 0.64599 0.96868 0.0
C524 C 0.00845 0.62833 0.86274 0.0
C525 C 0.99317 0.62321 0.99339 0.0
C526 C 0.99622 0.60315 0.95355 0.0
C527 C 0.00884 0.58525 0.84903 0.0
C528 C 0.01898 0.58773 0.78589 0.0
C529 C 1.00406 0.60544 0.88824 0.0
C530 C 0.02297 0.61054 0.76093 0.0
C531 C 0.0174 0.63067 0.79853 0.0
H532 H 0.96799 0.14848 0.48037 0.0
H533 H 0.04814 0.13968 0.49841 0.0
H534 H 0.04331 0.10126 0.55315 0.0
H535 H 0.01617 0.07085 0.59719 0.0
H536 H 0.93593 0.08138 0.5901 0.0
H537 H 0.94065 0.11838 0.52796 0.0
C538 C 0.98428 0.13794 0.49607 0.0
C539 C 0.00835 0.14633 0.48499 0.0
C540 C 0.98127 0.11621 0.5282 0.0
C541 C 0.0295 0.13312 0.50619 0.0
C542 C 0.02673 0.11127 0.5372 0.0
C543 C 0.99976 0.08099 0.58036 0.0
C544 C 0.97574 0.07328 0.59567 0.0
C545 C 1.00271 0.10263 0.54807 0.0
C546 C 0.95453 0.08691 0.57688 0.0
C547 C 0.95726 0.10806 0.54213 0.0
H548 H 0.36073 0.06317 0.50706 0.0
H549 H 0.39324 0.12476 0.594 0.0
H550 H 0.42971 0.10038 0.62958 0.0
H551 H 0.45176 0.06172 0.63508 0.0
H552 H 0.42025 0.00085 0.54086 0.0
H553 H 0.38347 0.02499 0.50911 0.0
C554 C 0.37551 0.07115 0.53526 0.0
C555 C 0.37413 0.09554 0.54951 0.0
C556 C 0.39662 0.05732 0.55294 0.0
C557 C 0.3938 0.10589 0.58378 0.0
C558 C 0.41466 0.09204 0.60341 0.0
C559 C 0.43738 0.05384 0.60547 0.0
C560 C 0.43914 0.02958 0.58889 0.0
C561 C 0.41636 0.06781 0.58737 0.0
C562 C 0.41963 0.01955 0.55316 0.0
C563 C 0.39848 0.03327 0.53561 0.0
H564 H 0.49418 0.38954 0.44121 0.0
H565 H 0.54418 0.34546 0.55916 0.0
H566 H 0.55776 0.38028 0.61871 0.0
H567 H 0.55531 0.42297 0.63747 0.0
H568 H 0.50446 0.46724 0.52203 0.0
H569 H 0.49188 0.43264 0.45991 0.0
C570 C 0.50817 0.38765 0.47965 0.0
C571 C 0.51822 0.36505 0.49567 0.0
C572 C 0.51604 0.40775 0.51332 0.0
C573 C 0.53599 0.36268 0.5464 0.0
C574 C 0.54394 0.38258 0.58002 0.0
C575 C 0.54187 0.42519 0.5978 0.0
C576 C 0.53111 0.44773 0.5839 0.0
C577 C 0.5342 0.40519 0.56358 0.0
C578 C 0.5134 0.45017 0.53301 0.0
C579 C 0.50596 0.43035 0.49794 0.0
H580 H 0.14606 0.45578 0.49107 0.0
H581 H 0.11558 0.395 0.58783 0.0
H582 H 0.07793 0.41882 0.61756 0.0
H583 H 0.05519 0.45745 0.61942 0.0
H584 H 0.08537 0.51731 0.51646 0.0
H585 H 0.122 0.49308 0.48539 0.0
C586 C 0.13138 0.44786 0.5198 0.0
C587 C 0.13383 0.42397 0.53928 0.0
C588 C 0.10975 0.46133 0.53452 0.0
C589 C 0.11426 0.41356 0.57389 0.0
C590 C 0.09275 0.4271 0.59025 0.0
C591 C 0.06924 0.46502 0.58805 0.0
C592 C 0.0673 0.48918 0.56963 0.0
C593 C 0.09035 0.45102 0.57071 0.0
C594 C 0.08622 0.49877 0.53077 0.0
C595 C 0.1073 0.485 0.51359 0.0
H596 H 0.9874 0.88701 0.96369 0.0
H597 H 0.04252 0.84735 0.85163 0.0
H598 H 0.05421 0.88371 0.79442 0.0
H599 H 0.05346 0.92723 0.79127 0.0
H600 H 1.00008 0.96713 0.90931 0.0
H601 H 0.98378 0.93016 0.95276 0.0
C602 C 1.00125 0.88633 0.92476 0.0
C603 C 0.01432 0.86491 0.91181 0.0
C604 C 0.00926 0.90741 0.89687 0.0
C605 C 0.03223 0.86381 0.86171 0.0
C606 C 0.03933 0.88463 0.83053 0.0
C607 C 0.03877 0.92785 0.828 0.0
C608 C 0.02869 0.94981 0.84958 0.0
C609 C 0.02908 0.90663 0.85101 0.0
C610 C 0.00875 0.95037 0.89434 0.0
C611 C 0.9991 0.92931 0.91793 0.0
H612 H 0.65371 0.95928 0.93235 0.0
H613 H 0.61811 0.89655 0.86197 0.0
H614 H 0.5803 0.92046 0.83426 0.0
H615 H 0.55743 0.95912 0.83339 0.0
H616 H 0.59358 0.02112 0.90841 0.0
H617 H 0.63118 0.99722 0.93246 0.0
C618 C 0.63797 0.95088 0.90919 0.0
C619 C 0.63886 0.9263 0.89778 0.0
C620 C 0.61623 0.96445 0.89612 0.0
C621 C 0.61795 0.91554 0.8701 0.0
C622 C 0.5963 0.92914 0.85509 0.0
C623 C 0.57333 0.96735 0.85621 0.0
C624 C 0.5726 0.99193 0.86933 0.0
C625 C 0.59512 0.95356 0.86907 0.0
C626 C 0.5935 0.00226 0.89837 0.0
C627 C 0.61514 0.98867 0.91139 0.0
H628 H 0.44936 0.64538 0.90066 0.0
H629 H 0.52977 0.6485 0.89715 0.0
H630 H 0.53297 0.60762 0.85728 0.0
H631 H 0.5132 0.56936 0.84592 0.0
H632 H 0.43258 0.5654 0.85825 0.0
H633 H 0.42918 0.60805 0.87744 0.0
C634 C 0.46744 0.63738 0.88773 0.0
C635 C 0.48929 0.64943 0.90256 0.0
C636 C 0.46913 0.61334 0.8716 0.0
C637 C 0.51274 0.63935 0.88579 0.0
C638 C 0.51457 0.61578 0.86522 0.0
C639 C 0.49486 0.57772 0.85362 0.0
C640 C 0.47321 0.56409 0.85191 0.0
C641 C 0.49297 0.60225 0.86263 0.0
C642 C 0.44961 0.57531 0.86119 0.0
C643 C 0.44758 0.59978 0.87056 0.0
H644 H 0.86128 0.56226 0.89891 0.0
H645 H 0.91034 0.61608 0.96811 0.0
H646 H 0.94696 0.59066 0.94052 0.0
H647 H 0.96474 0.55208 0.90062 0.0
H648 H 0.91426 0.49763 0.84183 0.0
H649 H 0.87845 0.52421 0.86203 0.0
C650 C 0.88006 0.56857 0.90675 0.0
C651 C 0.88336 0.591 0.93431 0.0
C652 C 0.9007 0.55349 0.89426 0.0
C653 C 0.9076 0.59889 0.94604 0.0
C654 C 0.92844 0.58429 0.93091 0.0
C655 C 0.94586 0.54597 0.89393 0.0
C656 C 0.9421 0.52274 0.87181 0.0
C657 C 0.92519 0.56133 0.90631 0.0
C658 C 0.9176 0.5151 0.86145 0.0
C659 C 0.8971 0.53041 0.87184 0.0
H660 H 0.04667 0.14599 0.94688 0.0
H661 H 0.97495 0.14753 0.04401 0.0
H662 H 0.96464 0.10993 0.99309 0.0
H663 H 0.97606 0.07649 0.9245 0.0
H664 H 0.04697 0.07364 0.82317 0.0
H665 H 0.05792 0.11164 0.87344 0.0
C666 C 0.02886 0.13794 0.95669 0.0
C667 C 0.01165 0.14922 0.99983 0.0
C668 C 0.02315 0.11602 0.92756 0.0
C669 C 0.98855 0.1389 0.01188 0.0
C670 C 0.98267 0.11745 0.9828 0.0
C671 C 0.99412 0.08389 0.9137 0.0
C672 C 0.01087 0.07192 0.87093 0.0
C673 C 0.99993 0.10573 0.94144 0.0
C674 C 0.03386 0.08229 0.85655 0.0
C675 C 0.04004 0.10407 0.88504 0.0
H676 H 0.39467 0.07405 0.05198 0.0
H677 H 0.34682 0.09483 0.88929 0.0
H678 H 0.37827 0.08016 0.81236 0.0
H679 H 0.4171 0.05755 0.79089 0.0
H680 H 0.46654 0.03787 0.95035 0.0
H681 H 0.43721 0.05676 0.02874 0.0
C682 C 0.39133 0.07587 0.99975 0.0
C683 C 0.36791 0.0849 0.97683 0.0
C684 C 0.40982 0.06761 0.95508 0.0
C685 C 0.36416 0.0872 0.90871 0.0
C686 C 0.38225 0.07896 0.86443 0.0
C687 C 0.42169 0.05782 0.84276 0.0
C688 C 0.44376 0.04616 0.86504 0.0
C689 C 0.40476 0.06848 0.88706 0.0
C690 C 0.44967 0.04682 0.93211 0.0
C691 C 0.43277 0.05741 0.97689 0.0
H692 H 0.52165 0.36288 0.92518 0.0
H693 H 0.46338 0.38691 0.05781 0.0
H694 H 0.46208 0.42589 0.00455 0.0
H695 H 0.47969 0.45421 0.92414 0.0
H696 H 0.53723 0.42912 0.79127 0.0
H697 H 0.53628 0.38948 0.83965 0.0
C698 C 0.50834 0.37646 0.94193 0.0
C699 C 0.49284 0.37193 0.99605 0.0
C700 C 0.50755 0.39875 0.9108 0.0
C701 C 0.47596 0.38999 0.01728 0.0
C702 C 0.47506 0.41228 0.98651 0.0
C703 C 0.49154 0.43985 0.90519 0.0
C704 C 0.50837 0.44436 0.85413 0.0
C705 C 0.49106 0.41702 0.93382 0.0
C706 C 0.52397 0.42584 0.83024 0.0
C707 C 0.52355 0.40324 0.85813 0.0
H708 H 0.14439 0.42729 0.91674 0.0
H709 H 0.11425 0.45235 0.10095 0.0
H710 H 0.07893 0.47168 0.04345 0.0
H711 H 0.0593 0.48582 0.93871 0.0
H712 H 0.09197 0.4627 0.75571 0.0
H713 H 0.1235 0.43859 0.81438 0.0
C714 C 0.13013 0.43696 0.94453 0.0
C715 C 0.13236 0.4386 0.01317 0.0
C716 C 0.11029 0.44866 0.91101 0.0
C717 C 0.11315 0.45065 0.04817 0.0
C718 C 0.09298 0.46194 0.01518 0.0
C719 C 0.07303 0.47507 0.91203 0.0
C720 C 0.0734 0.47601 0.84303 0.0
C721 C 0.09171 0.46167 0.94636 0.0
C722 C 0.09142 0.46225 0.80884 0.0
C723 C 0.10949 0.44852 0.84235 0.0
H724 H 0.99454 0.85492 0.54663 0.0
H725 H 0.00792 0.88112 0.35093 0.0
H726 H 0.00758 0.92169 0.39169 0.0
H727 H 0.00739 0.94961 0.48487 0.0
H728 H 0.99186 0.92377 0.67897 0.0
H729 H 0.98849 0.88338 0.63684 0.0
C730 C 0.9969 0.86947 0.51252 0.0
C731 C 1.00184 0.86469 0.4459 0.0
C732 C 0.9961 0.89296 0.53601 0.0
C733 C 0.00497 0.884 0.40285 0.0
C734 C 1.0045 0.90733 0.42596 0.0
C735 C 1.00222 0.93524 0.51721 0.0
C736 C 0.99916 0.93965 0.58446 0.0
C737 C 1.00056 0.91201 0.49263 0.0
C738 C 0.99338 0.92085 0.62659 0.0
C739 C 0.99188 0.8977 0.60267 0.0
H740 H 0.63498 0.92553 0.51354 0.0
H741 H 0.62379 0.97437 0.35217 0.0
H742 H 0.5884 0.99344 0.409 0.0
H743 H 0.5635 0.99915 0.50998 0.0
H744 H 0.57433 0.95048 0.67129 0.0
H745 H 0.60657 0.92828 0.6093 0.0
C746 C 0.62458 0.94017 0.49059 0.0
C747 C 0.63212 0.94855 0.42871 0.0
C748 C 0.60408 0.95107 0.52361 0.0
C749 C 0.61831 0.96742 0.39943 0.0
C750 C 0.59811 0.97844 0.43209 0.0
C751 C 0.57231 0.98316 0.53036 0.0
C752 C 0.56624 0.9761 0.59438 0.0
C753 C 0.59112 0.97075 0.49473 0.0
C754 C 0.5783 0.95583 0.62136 0.0
C755 C 0.59696 0.94334 0.58625 0.0
H756 H 0.52806 0.65058 0.47256 0.0
H757 H 0.44938 0.66871 0.48945 0.0
H758 H 0.44253 0.63168 0.54904 0.0
H759 H 0.45879 0.59439 0.59576 0.0
H760 H 0.53748 0.5754 0.58009 0.0
H761 H 0.54458 0.61253 0.52065 0.0
C762 C 0.50954 0.64641 0.49016 0.0
C763 C 0.48926 0.66237 0.47796 0.0
C764 C 0.50578 0.62498 0.52415 0.0
C765 C 0.46524 0.65679 0.49959 0.0
C766 C 0.46134 0.63561 0.53322 0.0
C767 C 0.47756 0.59827 0.57943 0.0
C768 C 0.49759 0.58204 0.59238 0.0
C769 C 0.48145 0.61959 0.54571 0.0
C770 C 0.5217 0.58744 0.57038 0.0
C771 C 0.52577 0.60873 0.53666 0.0
H772 H 0.85609 0.55435 0.48593 0.0
H773 H 0.91083 0.58916 0.36764 0.0
H774 H 0.94449 0.57368 0.44008 0.0
H775 H 0.95843 0.54849 0.53702 0.0
H776 H 0.90109 0.51527 0.65221 0.0
H777 H 0.86896 0.53204 0.58194 0.0
C778 C 0.87532 0.55894 0.47621 0.0
C779 C 0.88076 0.57303 0.42132 0.0
C780 C 0.89442 0.55003 0.5178 0.0
C781 C 0.906 0.57818 0.40915 0.0
C782 C 0.92528 0.56938 0.45085 0.0
C783 C 0.93892 0.54509 0.54691 0.0
C784 C 0.93261 0.53012 0.59998 0.0
C785 C 0.91979 0.55501 0.50536 0.0
C786 C 0.907 0.52622 0.61166 0.0
C787 C 0.88832 0.5359 0.57138 0.0
loop_
_geom_bond_atom_site_label_1
_geom_bond_atom_site_label_2
_geom_bond_distance
_geom_bond_site_symmetry_2
_ccdc_geom_bond_type
C0 C1 1.264 . S
C0 C5 1.479 . S
C0 C10 1.465 . S
C1 C0 1.264 . S
C1 C3 1.339 . S
C1 H28 0.931 . S
C2 C3 1.395 . S
C2 C4 1.320 . S
C3 C1 1.339 . S
C3 C2 1.395 . S
C3 H29 0.929 . S
C4 C2 1.320 . S
C4 C5 1.405 . S
C4 H30 0.930 . S
C5 C0 1.479 . S
C5 C4 1.405 . S
C5 H31 0.931 . S
U6 O7 2.454 . S
U6 O8 2.458 . S
U6 C9 2.984 . S
U6 C10 2.847 . S
U6 C23 2.882 . S
U6 O24 2.441 . S
U6 O25 2.420 . S
U6 O26 2.455 1_554 S
U6 O27 2.449 . S
O7 U6 2.454 . S
O7 C9 1.353 . S
O8 U6 2.458 . S
O8 C9 1.286 . S
C9 U6 2.984 . S
C9 O7 1.353 . S
C9 O8 1.286 . S
C9 C11 1.363 . S
C10 C0 1.465 . S
C10 U6 2.847 . S
C10 O24 1.249 . S
C10 O25 1.202 . S
C11 C9 1.363 . S
C11 C13 1.408 . S
C11 C16 1.342 1_554 S
C12 C13 1.310 . S
C12 C15 1.461 . S
C12 H32 0.932 . S
C13 C11 1.408 . S
C13 C12 1.310 . S
C13 H33 0.930 . S
C14 C15 1.474 1_556 S
C14 C16 1.285 . S
C14 H34 0.929 . S
C15 C12 1.461 . S
C15 C14 1.474 1_554 S
C16 C11 1.342 1_556 S
C16 C14 1.285 . S
C16 H35 0.930 . S
C17 C20 1.424 . S
C17 C22 1.245 . S
C17 C23 1.428 1_556 S
C18 C21 1.260 . S
C18 C22 1.477 . S
C18 H36 0.932 . S
C19 C20 1.384 . S
C19 C21 1.479 . S
C19 H37 0.929 . S
C20 C17 1.424 . S
C20 C19 1.384 . S
C20 H38 0.928 1_556 S
C21 C18 1.260 . S
C21 C19 1.479 . S
C22 C17 1.245 . S
C22 C18 1.477 . S
C22 H39 0.932 . S
C23 U6 2.882 . S
C23 C17 1.428 1_554 S
C23 O26 1.301 1_554 S
C23 O27 1.282 . S
O24 U6 2.441 . S
O24 C10 1.249 . S
O25 U6 2.420 . S
O25 C10 1.202 . S
O26 U6 2.455 1_556 S
O26 C23 1.301 1_556 S
O27 U6 2.449 . S
O27 C23 1.282 . S
H28 C1 0.931 . S
H29 C3 0.929 . S
H30 C4 0.930 . S
H31 C5 0.931 . S
H32 C12 0.932 . S
H33 C13 0.930 . S
H34 C14 0.929 . S
H35 C16 0.930 . S
H36 C18 0.932 . S
H37 C19 0.929 . S
H38 C20 0.928 1_554 S
H39 C22 0.932 . S
C40 C41 1.264 . S
C40 C45 1.479 . S
C40 C50 1.465 . S
C41 C40 1.264 . S
C41 C43 1.339 . S
C41 H68 0.931 . S
C42 C43 1.395 . S
C42 C44 1.320 . S
C43 C41 1.339 . S
C43 C42 1.395 . S
C43 H69 0.929 . S
C44 C42 1.320 . S
C44 C45 1.405 . S
C44 H70 0.920 1_455 S
C45 C40 1.479 . S
C45 C44 1.405 . S
C45 H71 0.931 . S
U46 O47 2.454 . S
U46 O48 2.458 . S
U46 C49 2.984 . S
U46 C50 2.847 . S
U46 C63 2.882 . S
U46 O64 2.441 . S
U46 O65 2.420 . S
U46 O66 2.455 . S
U46 O67 2.449 . S
O47 U46 2.454 . S
O47 C49 1.353 . S
O48 U46 2.458 . S
O48 C49 1.286 . S
C49 U46 2.984 . S
C49 O47 1.353 . S
C49 O48 1.286 . S
C49 C51 1.363 . S
C50 C40 1.465 . S
C50 U46 2.847 . S
C50 O64 1.249 . S
C50 O65 1.202 . S
C51 C49 1.363 . S
C51 C53 1.408 . S
C51 C56 1.342 . S
C52 C53 1.310 . S
C52 C55 1.461 . S
C52 H72 0.932 . S
C53 C51 1.408 . S
C53 C52 1.310 . S
C53 H73 0.930 . S
C54 C55 1.474 1_656 S
C54 C56 1.285 1_656 S
C54 H74 0.930 . S
C55 C52 1.461 . S
C55 C54 1.474 1_454 S
C56 C51 1.342 . S
C56 C54 1.285 1_454 S
C56 H75 0.932 1_554 S
C57 C60 1.424 . S
C57 C62 1.245 . S
C57 C63 1.428 1_556 S
C58 C61 1.260 . S
C58 C62 1.477 . S
C58 H76 0.932 . S
C59 C60 1.384 . S
C59 C61 1.479 . S
C59 H77 0.929 . S
C60 C57 1.424 . S
C60 C59 1.384 . S
C60 H78 0.928 1_556 S
C61 C58 1.260 . S
C61 C59 1.479 . S
C62 C57 1.245 . S
C62 C58 1.477 . S
C62 H79 0.932 . S
C63 U46 2.882 . S
C63 C57 1.428 1_554 S
C63 O66 1.301 . S
C63 O67 1.282 . S
O64 U46 2.441 . S
O64 C50 1.249 . S
O65 U46 2.420 . S
O65 C50 1.202 . S
O66 U46 2.455 . S
O66 C63 1.301 . S
O67 U46 2.449 . S
O67 C63 1.282 . S
H68 C41 0.931 . S
H69 C43 0.929 . S
H70 C44 0.920 1_655 S
H71 C45 0.931 . S
H72 C52 0.932 . S
H73 C53 0.930 . S
H74 C54 0.930 . S
H75 C56 0.932 1_556 S
H76 C58 0.932 . S
H77 C59 0.929 . S
H78 C60 0.928 1_554 S
H79 C62 0.932 . S
C80 C81 1.264 . S
C80 C85 1.479 . S
C80 C90 1.465 . S
C81 C80 1.264 . S
C81 C83 1.339 . S
C81 H108 0.931 . S
C82 C83 1.395 . S
C82 C84 1.320 . S
C83 C81 1.339 . S
C83 C82 1.395 . S
C83 H109 0.929 . S
C84 C82 1.320 . S
C84 C85 1.405 . S
C84 H110 0.930 . S
C85 C80 1.479 . S
C85 C84 1.405 . S
C85 H111 0.931 . S
U86 O87 2.454 . S
U86 O88 2.458 . S
U86 C89 2.984 . S
U86 C90 2.847 . S
U86 C103 2.882 . S
U86 O104 2.441 . S
U86 O105 2.420 . S
U86 O106 2.455 1_554 S
U86 O107 2.449 . S
O87 U86 2.454 . S
O87 C89 1.353 . S
O88 U86 2.458 . S
O88 C89 1.286 . S
C89 U86 2.984 . S
C89 O87 1.353 . S
C89 O88 1.286 . S
C89 C91 1.363 . S
C90 C80 1.465 . S
C90 U86 2.847 . S
C90 O104 1.249 . S
C90 O105 1.202 . S
C91 C89 1.363 . S
C91 C93 1.408 . S
C91 C96 1.342 1_554 S
C92 C93 1.310 . S
C92 C95 1.461 . S
C92 H112 0.932 . S
C93 C91 1.408 . S
C93 C92 1.310 . S
C93 H113 0.930 . S
C94 C95 1.474 1_556 S
C94 C96 1.285 . S
C94 H114 0.929 . S
C95 C92 1.461 . S
C95 C94 1.474 1_554 S
C96 C91 1.342 1_556 S
C96 C94 1.285 . S
C96 H115 0.930 . S
C97 C100 1.424 . S
C97 C102 1.245 . S
C97 C103 1.428 1_556 S
C98 C101 1.260 . S
C98 C102 1.477 . S
C98 H116 0.932 . S
C99 C100 1.384 . S
C99 C101 1.479 . S
C99 H117 0.929 . S
C100 C97 1.424 . S
C100 C99 1.384 . S
C100 H118 0.928 1_556 S
C101 C98 1.260 . S
C101 C99 1.479 . S
C102 C97 1.245 . S
C102 C98 1.477 . S
C102 H119 0.932 . S
C103 U86 2.882 . S
C103 C97 1.428 1_554 S
C103 O106 1.301 1_554 S
C103 O107 1.282 . S
O104 U86 2.441 . S
O104 C90 1.249 . S
O105 U86 2.420 . S
O105 C90 1.202 . S
O106 U86 2.455 1_556 S
O106 C103 1.301 1_556 S
O107 U86 2.449 . S
O107 C103 1.282 . S
H108 C81 0.931 . S
H109 C83 0.929 . S
H110 C84 0.930 . S
H111 C85 0.931 . S
H112 C92 0.932 . S
H113 C93 0.930 . S
H114 C94 0.929 . S
H115 C96 0.930 . S
H116 C98 0.932 . S
H117 C99 0.929 . S
H118 C100 0.928 1_554 S
H119 C102 0.932 . S
C120 C121 1.264 . S
C120 C125 1.479 . S
C120 C130 1.465 . S
C121 C120 1.264 . S
C121 C123 1.339 . S
C121 H148 0.931 . S
C122 C123 1.395 . S
C122 C124 1.320 . S
C123 C121 1.339 . S
C123 C122 1.395 . S
C123 H149 0.929 . S
C124 C122 1.320 . S
C124 C125 1.405 . S
C124 H150 0.930 . S
C125 C120 1.479 . S
C125 C124 1.405 . S
C125 H151 0.931 . S
U126 O127 2.454 . S
U126 O128 2.458 . S
U126 C129 2.984 . S
U126 C130 2.847 . S
U126 C143 2.882 . S
U126 O144 2.441 . S
U126 O145 2.420 . S
U126 O146 2.455 . S
U126 O147 2.449 . S
O127 U126 2.454 . S
O127 C129 1.353 . S
O128 U126 2.458 . S
O128 C129 1.286 . S
C129 U126 2.984 . S
C129 O127 1.353 . S
C129 O128 1.286 . S
C129 C131 1.363 . S
C130 C120 1.465 . S
C130 U126 2.847 . S
C130 O144 1.249 . S
C130 O145 1.202 . S
C131 C129 1.363 . S
C131 C133 1.408 . S
C131 C136 1.342 . S
C132 C133 1.310 . S
C132 C135 1.461 . S
C132 H152 0.932 . S
C133 C131 1.408 . S
C133 C132 1.310 . S
C133 H153 0.930 . S
C134 C135 1.474 1_556 S
C134 C136 1.285 1_556 S
C134 H154 0.929 . S
C135 C132 1.461 . S
C135 C134 1.474 1_554 S
C136 C131 1.342 . S
C136 C134 1.285 1_554 S
C136 H155 0.930 1_554 S
C137 C140 1.424 . S
C137 C142 1.245 . S
C137 C143 1.428 1_556 S
C138 C141 1.260 . S
C138 C142 1.477 . S
C138 H156 0.932 . S
C139 C140 1.384 . S
C139 C141 1.479 . S
C139 H157 0.929 . S
C140 C137 1.424 . S
C140 C139 1.384 . S
C140 H158 0.928 1_556 S
C141 C138 1.260 . S
C141 C139 1.479 . S
C142 C137 1.245 . S
C142 C138 1.477 . S
C142 H159 0.932 . S
C143 U126 2.882 . S
C143 C137 1.428 1_554 S
C143 O146 1.301 . S
C143 O147 1.282 . S
O144 U126 2.441 . S
O144 C130 1.249 . S
O145 U126 2.420 . S
O145 C130 1.202 . S
O146 U126 2.455 . S
O146 C143 1.301 . S
O147 U126 2.449 . S
O147 C143 1.282 . S
H148 C121 0.931 . S
H149 C123 0.929 . S
H150 C124 0.930 . S
H151 C125 0.931 . S
H152 C132 0.932 . S
H153 C133 0.930 . S
H154 C134 0.929 . S
H155 C136 0.930 1_556 S
H156 C138 0.932 . S
H157 C139 0.929 . S
H158 C140 0.928 1_554 S
H159 C142 0.932 . S
C160 C161 1.264 . S
C160 C165 1.479 . S
C160 C170 1.465 . S
C161 C160 1.264 . S
C161 C163 1.339 . S
C161 H188 0.931 . S
C162 C163 1.395 . S
C162 C164 1.320 . S
C163 C161 1.339 . S
C163 C162 1.395 . S
C163 H189 0.929 . S
C164 C162 1.320 . S
C164 C165 1.405 . S
C164 H190 0.930 1_554 S
C165 C160 1.479 . S
C165 C164 1.405 . S
C165 H191 0.931 . S
U166 O167 2.454 . S
U166 O168 2.458 . S
U166 C169 2.984 . S
U166 C170 2.847 . S
U166 C183 2.882 . S
U166 O184 2.441 . S
U166 O185 2.420 . S
U166 O186 2.455 . S
U166 O187 2.449 . S
O167 U166 2.454 . S
O167 C169 1.353 . S
O168 U166 2.458 . S
O168 C169 1.286 . S
C169 U166 2.984 . S
C169 O167 1.353 . S
C169 O168 1.286 . S
C169 C171 1.363 . S
C170 C160 1.465 . S
C170 U166 2.847 . S
C170 O184 1.249 . S
C170 O185 1.202 . S
C171 C169 1.363 . S
C171 C173 1.408 . S
C171 C176 1.342 . S
C172 C173 1.310 . S
C172 C175 1.461 . S
C172 H192 0.932 . S
C173 C171 1.408 . S
C173 C172 1.310 . S
C173 H193 0.930 . S
C174 C175 1.474 . S
C174 C176 1.285 . S
C174 H194 0.929 . S
C175 C172 1.461 . S
C175 C174 1.474 . S
C176 C171 1.342 . S
C176 C174 1.285 . S
C176 H195 0.930 . S
C177 C180 1.424 . S
C177 C182 1.245 . S
C177 C183 1.428 . S
C178 C181 1.260 . S
C178 C182 1.477 . S
C178 H196 0.932 . S
C179 C180 1.384 . S
C179 C181 1.479 . S
C179 H197 0.929 . S
C180 C177 1.424 . S
C180 C179 1.384 . S
C180 H198 0.928 . S
C181 C178 1.260 . S
C181 C179 1.479 . S
C182 C177 1.245 . S
C182 C178 1.477 . S
C182 H199 0.932 . S
C183 U166 2.882 . S
C183 C177 1.428 . S
C183 O186 1.301 . S
C183 O187 1.282 . S
O184 U166 2.441 . S
O184 C170 1.249 . S
O185 U166 2.420 . S
O185 C170 1.202 . S
O186 U166 2.455 . S
O186 C183 1.301 . S
O187 U166 2.449 . S
O187 C183 1.282 . S
H188 C161 0.931 . S
H189 C163 0.929 . S
H190 C164 0.930 1_556 S
H191 C165 0.931 . S
H192 C172 0.932 . S
H193 C173 0.930 . S
H194 C174 0.929 . S
H195 C176 0.930 . S
H196 C178 0.932 . S
H197 C179 0.929 . S
H198 C180 0.928 . S
H199 C182 0.932 . S
C200 C201 1.264 . S
C200 C205 1.479 . S
C200 C210 1.465 . S
C201 C200 1.264 . S
C201 C203 1.339 . S
C201 H228 0.931 . S
C202 C203 1.395 1_556 S
C202 C204 1.320 1_556 S
C203 C201 1.339 . S
C203 C202 1.395 1_554 S
C203 H229 0.929 . S
C204 C202 1.320 1_554 S
C204 C205 1.405 . S
C204 H230 0.923 1_454 S
C205 C200 1.479 . S
C205 C204 1.405 . S
C205 H231 0.931 . S
U206 O207 2.454 . S
U206 O208 2.458 . S
U206 C209 2.984 . S
U206 C210 2.847 . S
U206 C223 2.882 . S
U206 O224 2.441 . S
U206 O225 2.420 . S
U206 O226 2.455 . S
U206 O227 2.449 . S
O207 U206 2.454 . S
O207 C209 1.353 . S
O208 U206 2.458 . S
O208 C209 1.286 . S
C209 U206 2.984 . S
C209 O207 1.353 . S
C209 O208 1.286 . S
C209 C211 1.363 . S
C210 C200 1.465 . S
C210 U206 2.847 . S
C210 O224 1.249 . S
C210 O225 1.202 . S
C211 C209 1.363 . S
C211 C213 1.408 . S
C211 C216 1.342 . S
C212 C213 1.310 . S
C212 C215 1.462 . S
C212 H232 0.932 . S
C213 C211 1.408 . S
C213 C212 1.310 . S
C213 H233 0.930 . S
C214 C215 1.473 1_655 S
C214 C216 1.286 1_655 S
C214 H234 0.929 . S
C215 C212 1.462 . S
C215 C214 1.473 1_455 S
C216 C211 1.342 . S
C216 C214 1.286 1_455 S
C216 H235 0.930 . S
C217 C220 1.424 . S
C217 C222 1.245 . S
C217 C223 1.428 . S
C218 C221 1.260 . S
C218 C222 1.477 . S
C218 H236 0.932 . S
C219 C220 1.384 . S
C219 C221 1.479 . S
C219 H237 0.929 . S
C220 C217 1.424 . S
C220 C219 1.384 . S
C220 H238 0.928 . S
C221 C218 1.260 . S
C221 C219 1.479 . S
C222 C217 1.245 . S
C222 C218 1.477 . S
C222 H239 0.932 . S
C223 U206 2.882 . S
C223 C217 1.428 . S
C223 O226 1.301 . S
C223 O227 1.282 . S
O224 U206 2.441 . S
O224 C210 1.249 . S
O225 U206 2.420 . S
O225 C210 1.202 . S
O226 U206 2.455 . S
O226 C223 1.301 . S
O227 U206 2.449 . S
O227 C223 1.282 . S
H228 C201 0.931 . S
H229 C203 0.929 . S
H230 C204 0.923 1_656 S
H231 C205 0.931 . S
H232 C212 0.932 . S
H233 C213 0.930 . S
H234 C214 0.929 . S
H235 C216 0.930 . S
H236 C218 0.932 . S
H237 C219 0.929 . S
H238 C220 0.928 . S
H239 C222 0.932 . S
C240 C241 1.264 . S
C240 C245 1.479 . S
C240 C250 1.465 . S
C241 C240 1.264 . S
C241 C243 1.339 . S
C241 H268 0.931 . S
C242 C243 1.395 . S
C242 C244 1.320 . S
C243 C241 1.339 . S
C243 C242 1.395 . S
C243 H269 0.929 . S
C244 C242 1.320 . S
C244 C245 1.405 . S
C244 H270 0.930 1_554 S
C245 C240 1.479 . S
C245 C244 1.405 . S
C245 H271 0.931 . S
U246 O247 2.454 . S
U246 O248 2.458 . S
U246 C249 2.984 . S
U246 C250 2.847 . S
U246 C263 2.882 . S
U246 O264 2.441 . S
U246 O265 2.420 . S
U246 O266 2.455 . S
U246 O267 2.449 . S
O247 U246 2.454 . S
O247 C249 1.353 . S
O248 U246 2.458 . S
O248 C249 1.286 . S
C249 U246 2.984 . S
C249 O247 1.353 . S
C249 O248 1.286 . S
C249 C251 1.363 . S
C250 C240 1.465 . S
C250 U246 2.847 . S
C250 O264 1.249 . S
C250 O265 1.202 . S
C251 C249 1.363 . S
C251 C253 1.408 . S
C251 C256 1.342 . S
C252 C253 1.310 . S
C252 C255 1.461 . S
C252 H272 0.932 . S
C253 C251 1.408 . S
C253 C252 1.310 . S
C253 H273 0.930 . S
C254 C255 1.474 . S
C254 C256 1.285 . S
C254 H274 0.929 . S
C255 C252 1.461 . S
C255 C254 1.474 . S
C256 C251 1.342 . S
C256 C254 1.285 . S
C256 H275 0.930 . S
C257 C260 1.424 . S
C257 C262 1.245 . S
C257 C263 1.428 . S
C258 C261 1.260 . S
C258 C262 1.477 . S
C258 H276 0.932 . S
C259 C260 1.384 . S
C259 C261 1.479 . S
C259 H277 0.929 . S
C260 C257 1.424 . S
C260 C259 1.384 . S
C260 H278 0.928 . S
C261 C258 1.260 . S
C261 C259 1.479 . S
C262 C257 1.245 . S
C262 C258 1.477 . S
C262 H279 0.932 . S
C263 U246 2.882 . S
C263 C257 1.428 . S
C263 O266 1.301 . S
C263 O267 1.282 . S
O264 U246 2.441 . S
O264 C250 1.249 . S
O265 U246 2.420 . S
O265 C250 1.202 . S
O266 U246 2.455 . S
O266 C263 1.301 . S
O267 U246 2.449 . S
O267 C263 1.282 . S
H268 C241 0.931 . S
H269 C243 0.929 . S
H270 C244 0.930 1_556 S
H271 C245 0.931 . S
H272 C252 0.932 . S
H273 C253 0.930 . S
H274 C254 0.929 . S
H275 C256 0.930 . S
H276 C258 0.932 . S
H277 C259 0.929 . S
H278 C260 0.928 . S
H279 C262 0.932 . S
C280 C281 1.264 . S
C280 C285 1.479 . S
C280 C290 1.465 . S
C281 C280 1.264 . S
C281 C283 1.339 . S
C281 H308 0.931 . S
C282 C283 1.395 1_556 S
C282 C284 1.318 1_556 S
C283 C281 1.339 . S
C283 C282 1.395 1_554 S
C283 H309 0.929 . S
C284 C282 1.318 1_554 S
C284 C285 1.416 . S
C284 H310 0.921 1_554 S
C285 C280 1.479 . S
C285 C284 1.416 . S
C285 H311 0.931 . S
U286 O287 2.454 . S
U286 O288 2.458 . S
U286 C289 2.984 . S
U286 C290 2.847 . S
U286 C303 2.882 . S
U286 O304 2.441 . S
U286 O305 2.420 . S
U286 O306 2.455 . S
U286 O307 2.449 . S
O287 U286 2.454 . S
O287 C289 1.353 . S
O288 U286 2.458 . S
O288 C289 1.286 . S
C289 U286 2.984 . S
C289 O287 1.353 . S
C289 O288 1.286 . S
C289 C291 1.363 . S
C290 C280 1.465 . S
C290 U286 2.847 . S
C290 O304 1.249 . S
C290 O305 1.202 . S
C291 C289 1.363 . S
C291 C293 1.408 . S
C291 C296 1.342 . S
C292 C293 1.310 . S
C292 C295 1.461 . S
C292 H312 0.932 . S
C293 C291 1.408 . S
C293 C292 1.310 . S
C293 H313 0.930 . S
C294 C295 1.474 . S
C294 C296 1.285 . S
C294 H314 0.929 . S
C295 C292 1.461 . S
C295 C294 1.474 . S
C296 C291 1.342 . S
C296 C294 1.285 . S
C296 H315 0.930 . S
C297 C300 1.424 . S
C297 C302 1.245 . S
C297 C303 1.428 . S
C298 C301 1.260 . S
C298 C302 1.477 . S
C298 H316 0.932 . S
C299 C300 1.384 . S
C299 C301 1.479 . S
C299 H317 0.929 . S
C300 C297 1.424 . S
C300 C299 1.384 . S
C300 H318 0.928 . S
C301 C298 1.260 . S
C301 C299 1.479 . S
C302 C297 1.245 . S
C302 C298 1.477 . S
C302 H319 0.932 . S
C303 U286 2.882 . S
C303 C297 1.428 . S
C303 O306 1.301 . S
C303 O307 1.282 . S
O304 U286 2.441 . S
O304 C290 1.249 . S
O305 U286 2.420 . S
O305 C290 1.202 . S
O306 U286 2.455 . S
O306 C303 1.301 . S
O307 U286 2.449 . S
O307 C303 1.282 . S
H308 C281 0.931 . S
H309 C283 0.929 . S
H310 C284 0.921 1_556 S
H311 C285 0.931 . S
H312 C292 0.932 . S
H313 C293 0.930 . S
H314 C294 0.929 . S
H315 C296 0.930 . S
H316 C298 0.932 . S
H317 C299 0.929 . S
H318 C300 0.928 . S
H319 C302 0.932 . S
O320 Mg321 1.990 . S
O320 C334 1.253 . S
Mg321 O320 1.990 . S
Mg321 O324 2.180 1_565 S
Mg321 O325 2.117 . S
Mg321 O339 2.030 . S
O322 Mg323 2.072 1_465 S
O322 C334 1.260 . S
Mg323 O322 2.072 1_645 S
Mg323 O324 2.099 1_655 S
Mg323 O326 2.079 . S
Mg323 O327 2.072 1_655 S
Mg323 O329 2.099 . S
Mg323 O340 2.079 1_545 S
O324 Mg321 2.180 1_545 S
O324 Mg323 2.099 1_455 S
O324 C335 1.279 . S
O325 Mg321 2.117 . S
O325 C335 1.250 1_565 S
O326 Mg323 2.079 . S
O326 C336 1.264 . S
O327 Mg323 2.072 1_455 S
O327 C337 1.260 . S
Mg328 O329 2.180 . S
Mg328 O330 2.030 . S
Mg328 O331 1.990 . S
Mg328 O332 2.117 . S
O329 Mg323 2.099 . S
O329 Mg328 2.180 . S
O329 C338 1.279 . S
O330 Mg328 2.030 . S
O330 C336 1.248 . S
O331 Mg328 1.990 . S
O331 C337 1.253 1_655 S
O332 Mg328 2.117 . S
O332 C338 1.250 . S
C333 O339 1.248 1_655 S
C333 O340 1.264 . S
C334 O320 1.253 . S
C334 O322 1.260 . S
C335 O324 1.279 . S
C335 O325 1.250 1_545 S
C336 O326 1.264 . S
C336 O330 1.248 . S
C337 O327 1.260 . S
C337 O331 1.253 1_455 S
C338 O329 1.279 . S
C338 O332 1.250 . S
O339 Mg321 2.030 . S
O339 C333 1.248 1_455 S
O340 Mg323 2.079 1_565 S
O340 C333 1.264 . S
O341 Mg342 1.990 1_545 S
O341 C355 1.253 . S
Mg342 O341 1.990 1_565 S
Mg342 O345 2.180 . S
Mg342 O346 2.117 . S
Mg342 O360 2.030 1_565 S
O343 Mg344 2.072 . S
O343 C355 1.260 . S
Mg344 O343 2.072 . S
Mg344 O345 2.099 1_545 S
Mg344 O347 2.079 1_545 S
Mg344 O348 2.068 1_545 S
Mg344 O350 2.099 . S
Mg344 O361 2.079 . S
O345 Mg342 2.180 . S
O345 Mg344 2.099 1_565 S
O345 C356 1.279 . S
O346 Mg342 2.117 . S
O346 C356 1.250 . S
O347 Mg344 2.079 1_565 S
O347 C357 1.264 . S
O348 Mg344 2.068 1_565 S
O348 C358 1.254 1_565 S
Mg349 O350 2.180 . S
Mg349 O351 2.030 . S
Mg349 O352 1.990 . S
Mg349 O353 2.117 . S
O350 Mg344 2.099 . S
O350 Mg349 2.180 . S
O350 C359 1.279 . S
O351 Mg349 2.030 . S
O351 C357 1.248 1_545 S
O352 Mg349 1.990 . S
O352 C358 1.253 . S
O353 Mg349 2.117 . S
O353 C359 1.250 . S
C354 O360 1.248 . S
C354 O361 1.264 . S
C355 O341 1.253 . S
C355 O343 1.260 . S
C356 O345 1.279 . S
C356 O346 1.250 . S
C357 O347 1.264 . S
C357 O351 1.248 1_565 S
C358 O348 1.254 1_545 S
C358 O352 1.253 . S
C359 O350 1.279 . S
C359 O353 1.250 . S
O360 Mg342 2.030 1_545 S
O360 C354 1.248 . S
O361 Mg344 2.079 . S
O361 C354 1.264 . S
O362 Mg363 1.990 . S
O362 C376 1.253 . S
Mg363 O362 1.990 . S
Mg363 O366 2.180 . S
Mg363 O367 2.117 . S
Mg363 O381 2.030 . S
O364 Mg365 2.072 . S
O364 C376 1.260 . S
Mg365 O364 2.072 . S
Mg365 O366 2.099 . S
Mg365 O368 2.079 . S
Mg365 O369 2.072 . S
Mg365 O371 2.099 . S
Mg365 O382 2.079 . S
O366 Mg363 2.180 . S
O366 Mg365 2.099 . S
O366 C377 1.279 . S
O367 Mg363 2.117 . S
O367 C377 1.250 . S
O368 Mg365 2.079 . S
O368 C378 1.264 . S
O369 Mg365 2.072 . S
O369 C379 1.260 . S
Mg370 O371 2.180 . S
Mg370 O372 2.030 . S
Mg370 O373 1.990 . S
Mg370 O374 2.117 . S
O371 Mg365 2.099 . S
O371 Mg370 2.180 . S
O371 C380 1.279 . S
O372 Mg370 2.030 . S
O372 C378 1.248 . S
O373 Mg370 1.990 . S
O373 C379 1.253 . S
O374 Mg370 2.117 . S
O374 C380 1.250 . S
C375 O381 1.248 . S
C375 O382 1.264 . S
C376 O362 1.253 . S
C376 O364 1.260 . S
C377 O366 1.279 . S
C377 O367 1.250 . S
C378 O368 1.264 . S
C378 O372 1.248 . S
C379 O369 1.260 . S
C379 O373 1.253 . S
C380 O371 1.279 . S
C380 O374 1.250 . S
O381 Mg363 2.030 . S
O381 C375 1.248 . S
O382 Mg365 2.079 . S
O382 C375 1.264 . S
O383 Mg384 1.990 . S
O383 C397 1.253 . S
Mg384 O383 1.990 . S
Mg384 O387 2.180 . S
Mg384 O388 2.117 . S
Mg384 O402 2.030 . S
O385 Mg386 2.037 1_655 S
O385 C397 1.260 . S
Mg386 O385 2.037 1_455 S
Mg386 O387 2.078 1_455 S
Mg386 O389 2.116 . S
Mg386 O390 2.095 . S
Mg386 O392 2.121 . S
Mg386 O403 2.056 1_455 S
O387 Mg384 2.180 . S
O387 Mg386 2.078 1_655 S
O387 C398 1.279 . S
O388 Mg384 2.117 . S
O388 C398 1.250 . S
O389 Mg386 2.116 . S
O389 C399 1.264 . S
O390 Mg386 2.095 . S
O390 C400 1.260 . S
Mg391 O392 2.180 . S
Mg391 O393 2.030 . S
Mg391 O394 1.990 . S
Mg391 O395 2.117 . S
O392 Mg386 2.121 . S
O392 Mg391 2.180 . S
O392 C401 1.279 . S
O393 Mg391 2.030 . S
O393 C399 1.248 . S
O394 Mg391 1.990 . S
O394 C400 1.253 . S
O395 Mg391 2.117 . S
O395 C401 1.250 . S
C396 O402 1.248 . S
C396 O403 1.264 . S
C397 O383 1.253 . S
C397 O385 1.260 . S
C398 O387 1.279 . S
C398 O388 1.250 . S
C399 O389 1.264 . S
C399 O393 1.248 . S
C400 O390 1.260 . S
C400 O394 1.253 . S
C401 O392 1.279 . S
C401 O395 1.250 . S
O402 Mg384 2.030 . S
O402 C396 1.248 . S
O403 Mg386 2.056 1_655 S
O403 C396 1.264 . S
H404 C410 0.930 . S
H405 C413 0.930 . S
H406 C414 0.930 . S
H407 C415 0.930 . S
H408 C418 0.930 . S
H409 C419 0.930 . S
C410 H404 0.930 . S
C410 C411 1.355 . S
C410 C412 1.415 . S
C411 C410 1.355 . S
C411 C413 1.419 . S
C412 C410 1.415 . S
C412 C417 1.425 . S
C412 C419 1.409 . S
C413 H405 0.930 . S
C413 C411 1.419 . S
C413 C414 1.362 . S
C414 H406 0.930 . S
C414 C413 1.362 . S
C414 C417 1.409 . S
C415 H407 0.930 . S
C415 C416 1.355 . S
C415 C417 1.415 . S
C416 C415 1.355 . S
C416 C418 1.419 . S
C417 C412 1.425 . S
C417 C414 1.409 . S
C417 C415 1.415 . S
C418 H408 0.930 . S
C418 C416 1.419 . S
C418 C419 1.362 . S
C419 H409 0.930 . S
C419 C412 1.409 . S
C419 C418 1.362 . S
H420 C426 0.930 . S
H421 C429 0.930 . S
H422 C430 0.930 . S
H423 C431 0.930 . S
H424 C434 0.930 . S
H425 C435 0.930 . S
C426 H420 0.930 . S
C426 C427 1.355 . S
C426 C428 1.415 . S
C427 C426 1.355 . S
C427 C429 1.419 . S
C428 C426 1.415 . S
C428 C433 1.425 . S
C428 C435 1.409 . S
C429 H421 0.930 . S
C429 C427 1.419 . S
C429 C430 1.362 . S
C430 H422 0.930 . S
C430 C429 1.362 . S
C430 C433 1.409 . S
C431 H423 0.930 . S
C431 C432 1.355 . S
C431 C433 1.415 . S
C432 C431 1.355 . S
C432 C434 1.419 . S
C433 C428 1.425 . S
C433 C430 1.409 . S
C433 C431 1.415 . S
C434 H424 0.930 . S
C434 C432 1.419 . S
C434 C435 1.362 . S
C435 H425 0.930 . S
C435 C428 1.409 . S
C435 C434 1.362 . S
H436 C442 0.930 . S
H437 C445 0.930 . S
H438 C446 0.930 . S
H439 C447 0.930 . S
H440 C450 0.930 . S
H441 C451 0.930 . S
C442 H436 0.930 . S
C442 C443 1.355 . S
C442 C444 1.415 . S
C443 C442 1.355 . S
C443 C445 1.419 . S
C444 C442 1.415 . S
C444 C449 1.425 . S
C444 C451 1.409 . S
C445 H437 0.930 . S
C445 C443 1.419 . S
C445 C446 1.362 . S
C446 H438 0.930 . S
C446 C445 1.362 . S
C446 C449 1.409 . S
C447 H439 0.930 . S
C447 C448 1.355 . S
C447 C449 1.415 . S
C448 C447 1.355 . S
C448 C450 1.419 . S
C449 C444 1.425 . S
C449 C446 1.409 . S
C449 C447 1.415 . S
C450 H440 0.930 . S
C450 C448 1.419 . S
C450 C451 1.362 . S
C451 H441 0.930 . S
C451 C444 1.409 . S
C451 C450 1.362 . S
H452 C458 0.930 . S
H453 C461 0.930 . S
H454 C462 0.931 . S
H455 C463 0.930 . S
H456 C466 0.930 . S
H457 C467 0.930 . S
C458 H452 0.930 . S
C458 C459 1.355 . S
C458 C460 1.415 . S
C459 C458 1.355 . S
C459 C461 1.419 1_655 S
C460 C458 1.415 . S
C460 C465 1.425 . S
C460 C467 1.409 . S
C461 H453 0.930 . S
C461 C459 1.419 1_455 S
C461 C462 1.362 1_455 S
C462 H454 0.931 . S
C462 C461 1.362 1_655 S
C462 C465 1.409 . S
C463 H455 0.930 . S
C463 C464 1.355 . S
C463 C465 1.415 . S
C464 C463 1.355 . S
C464 C466 1.419 . S
C465 C460 1.425 . S
C465 C462 1.409 . S
C465 C463 1.415 . S
C466 H456 0.930 . S
C466 C464 1.419 . S
C466 C467 1.362 . S
C467 H457 0.930 . S
C467 C460 1.409 . S
C467 C466 1.362 . S
H468 C474 0.930 . S
H469 C477 0.930 . S
H470 C478 0.930 . S
H471 C479 0.930 . S
H472 C482 0.930 1_545 S
H473 C483 0.930 . S
C474 H468 0.930 . S
C474 C475 1.355 . S
C474 C476 1.415 . S
C475 C474 1.355 . S
C475 C477 1.419 . S
C476 C474 1.415 . S
C476 C481 1.425 . S
C476 C483 1.409 . S
C477 H469 0.930 . S
C477 C475 1.419 . S
C477 C478 1.362 . S
C478 H470 0.930 . S
C478 C477 1.362 . S
C478 C481 1.409 . S
C479 H471 0.930 . S
C479 C480 1.355 . S
C479 C481 1.415 . S
C480 C479 1.355 . S
C480 C482 1.419 . S
C481 C476 1.425 . S
C481 C478 1.409 . S
C481 C479 1.415 . S
C482 H472 0.930 1_565 S
C482 C480 1.419 . S
C482 C483 1.362 . S
C483 H473 0.930 . S
C483 C476 1.409 . S
C483 C482 1.362 . S
H484 C490 0.930 . S
H485 C493 0.930 1_554 S
H486 C494 0.930 . S
H487 C495 0.930 . S
H488 C498 0.930 . S
H489 C499 0.930 . S
C490 H484 0.930 . S
C490 C491 1.355 . S
C490 C492 1.415 . S
C491 C490 1.355 . S
C491 C493 1.419 . S
C492 C490 1.415 . S
C492 C497 1.425 . S
C492 C499 1.409 . S
C493 H485 0.930 1_556 S
C493 C491 1.419 . S
C493 C494 1.362 . S
C494 H486 0.930 . S
C494 C493 1.362 . S
C494 C497 1.409 . S
C495 H487 0.930 . S
C495 C496 1.355 . S
C495 C497 1.415 . S
C496 C495 1.355 . S
C496 C498 1.419 . S
C497 C492 1.425 . S
C497 C494 1.409 . S
C497 C495 1.415 . S
C498 H488 0.930 . S
C498 C496 1.419 . S
C498 C499 1.362 . S
C499 H489 0.930 . S
C499 C492 1.409 . S
C499 C498 1.362 . S
H500 C506 0.930 . S
H501 C509 0.930 1_554 S
H502 C510 0.930 . S
H503 C511 0.930 . S
H504 C514 0.930 . S
H505 C515 0.930 . S
C506 H500 0.930 . S
C506 C507 1.355 . S
C506 C508 1.415 . S
C507 C506 1.355 . S
C507 C509 1.419 . S
C508 C506 1.415 . S
C508 C513 1.425 . S
C508 C515 1.409 . S
C509 H501 0.930 1_556 S
C509 C507 1.419 . S
C509 C510 1.362 . S
C510 H502 0.930 . S
C510 C509 1.362 . S
C510 C513 1.409 . S
C511 H503 0.930 . S
C511 C512 1.355 . S
C511 C513 1.415 . S
C512 C511 1.355 . S
C512 C514 1.419 . S
C513 C508 1.425 . S
C513 C510 1.409 . S
C513 C511 1.415 . S
C514 H504 0.930 . S
C514 C512 1.419 . S
C514 C515 1.362 . S
C515 H505 0.930 . S
C515 C508 1.409 . S
C515 C514 1.362 . S
H516 C522 0.930 . S
H517 C525 0.930 . S
H518 C526 0.930 . S
H519 C527 0.930 . S
H520 C530 0.930 . S
H521 C531 0.930 . S
C522 H516 0.930 . S
C522 C523 1.355 1_455 S
C522 C524 1.415 . S
C523 C522 1.355 1_655 S
C523 C525 1.419 1_556 S
C524 C522 1.415 . S
C524 C529 1.425 1_455 S
C524 C531 1.409 . S
C525 H517 0.930 . S
C525 C523 1.419 1_554 S
C525 C526 1.362 1_554 S
C526 H518 0.930 . S
C526 C525 1.362 1_556 S
C526 C529 1.409 . S
C527 H519 0.930 . S
C527 C528 1.355 1_655 S
C527 C529 1.415 . S
C528 C527 1.355 1_455 S
C528 C530 1.419 . S
C529 C524 1.425 1_655 S
C529 C526 1.409 . S
C529 C527 1.415 . S
C530 H520 0.930 . S
C530 C528 1.419 . S
C530 C531 1.362 . S
C531 H521 0.930 . S
C531 C524 1.409 . S
C531 C530 1.362 . S
H532 C538 0.930 . S
H533 C541 0.930 . S
H534 C542 0.930 . S
H535 C543 0.930 . S
H536 C546 0.930 . S
H537 C547 0.930 . S
C538 H532 0.930 . S
C538 C539 1.355 1_655 S
C538 C540 1.415 . S
C539 C538 1.355 1_455 S
C539 C541 1.419 . S
C540 C538 1.415 . S
C540 C545 1.425 1_655 S
C540 C547 1.409 . S
C541 H533 0.930 . S
C541 C539 1.419 . S
C541 C542 1.362 . S
C542 H534 0.930 . S
C542 C541 1.362 . S
C542 C545 1.409 . S
C543 H535 0.930 . S
C543 C544 1.355 1_455 S
C543 C545 1.415 . S
C544 C543 1.355 1_655 S
C544 C546 1.419 . S
C545 C540 1.425 1_455 S
C545 C542 1.409 . S
C545 C543 1.415 . S
C546 H536 0.930 . S
C546 C544 1.419 . S
C546 C547 1.362 . S
C547 H537 0.930 . S
C547 C540 1.409 . S
C547 C546 1.362 . S
H548 C554 0.930 . S
H549 C557 0.930 . S
H550 C558 0.930 . S
H551 C559 0.930 . S
H552 C562 0.930 . S
H553 C563 0.930 . S
C554 H548 0.930 . S
C554 C555 1.355 . S
C554 C556 1.415 . S
C555 C554 1.355 . S
C555 C557 1.419 . S
C556 C554 1.415 . S
C556 C561 1.425 . S
C556 C563 1.409 . S
C557 H549 0.930 . S
C557 C555 1.419 . S
C557 C558 1.362 . S
C558 H550 0.930 . S
C558 C557 1.362 . S
C558 C561 1.409 . S
C559 H551 0.930 . S
C559 C560 1.355 . S
C559 C561 1.415 . S
C560 C559 1.355 . S
C560 C562 1.419 . S
C561 C556 1.425 . S
C561 C558 1.409 . S
C561 C559 1.415 . S
C562 H552 0.930 . S
C562 C560 1.419 . S
C562 C563 1.362 . S
C563 H553 0.930 . S
C563 C556 1.409 . S
C563 C562 1.362 . S
H564 C570 0.930 . S
H565 C573 0.930 . S
H566 C574 0.930 . S
H567 C575 0.930 . S
H568 C578 0.930 . S
H569 C579 0.930 . S
C570 H564 0.930 . S
C570 C571 1.355 . S
C570 C572 1.415 . S
C571 C570 1.355 . S
C571 C573 1.419 . S
C572 C570 1.415 . S
C572 C577 1.425 . S
C572 C579 1.409 . S
C573 H565 0.930 . S
C573 C571 1.419 . S
C573 C574 1.362 . S
C574 H566 0.930 . S
C574 C573 1.362 . S
C574 C577 1.409 . S
C575 H567 0.930 . S
C575 C576 1.355 . S
C575 C577 1.415 . S
C576 C575 1.355 . S
C576 C578 1.419 . S
C577 C572 1.425 . S
C577 C574 1.409 . S
C577 C575 1.415 . S
C578 H568 0.930 . S
C578 C576 1.419 . S
C578 C579 1.362 . S
C579 H569 0.930 . S
C579 C572 1.409 . S
C579 C578 1.362 . S
H580 C586 0.930 . S
H581 C589 0.930 . S
H582 C590 0.930 . S
H583 C591 0.930 . S
H584 C594 0.930 . S
H585 C595 0.930 . S
C586 H580 0.930 . S
C586 C587 1.355 . S
C586 C588 1.415 . S
C587 C586 1.355 . S
C587 C589 1.419 . S
C588 C586 1.415 . S
C588 C593 1.425 . S
C588 C595 1.409 . S
C589 H581 0.930 . S
C589 C587 1.419 . S
C589 C590 1.362 . S
C590 H582 0.930 . S
C590 C589 1.362 . S
C590 C593 1.409 . S
C591 H583 0.930 . S
C591 C592 1.355 . S
C591 C593 1.415 . S
C592 C591 1.355 . S
C592 C594 1.419 . S
C593 C588 1.425 . S
C593 C590 1.409 . S
C593 C591 1.415 . S
C594 H584 0.930 . S
C594 C592 1.419 . S
C594 C595 1.362 . S
C595 H585 0.930 . S
C595 C588 1.409 . S
C595 C594 1.362 . S
H596 C602 0.930 . S
H597 C605 0.930 . S
H598 C606 0.930 . S
H599 C607 0.930 . S
H600 C610 0.930 . S
H601 C611 0.930 . S
C602 H596 0.930 . S
C602 C603 1.355 1_655 S
C602 C604 1.415 . S
C603 C602 1.355 1_455 S
C603 C605 1.419 . S
C604 C602 1.415 . S
C604 C609 1.425 1_655 S
C604 C611 1.409 . S
C605 H597 0.930 . S
C605 C603 1.419 . S
C605 C606 1.362 . S
C606 H598 0.930 . S
C606 C605 1.362 . S
C606 C609 1.409 . S
C607 H599 0.930 . S
C607 C608 1.355 . S
C607 C609 1.415 . S
C608 C607 1.355 . S
C608 C610 1.419 1_455 S
C609 C604 1.425 1_455 S
C609 C606 1.409 . S
C609 C607 1.415 . S
C610 H600 0.930 . S
C610 C608 1.419 1_655 S
C610 C611 1.362 . S
C611 H601 0.930 . S
C611 C604 1.409 . S
C611 C610 1.362 . S
H612 C618 0.930 . S
H613 C621 0.930 . S
H614 C622 0.930 . S
H615 C623 0.930 . S
H616 C626 0.930 . S
H617 C627 0.930 . S
C618 H612 0.930 . S
C618 C619 1.355 . S
C618 C620 1.415 . S
C619 C618 1.355 . S
C619 C621 1.419 . S
C620 C618 1.415 . S
C620 C625 1.425 . S
C620 C627 1.409 . S
C621 H613 0.930 . S
C621 C619 1.419 . S
C621 C622 1.362 . S
C622 H614 0.930 . S
C622 C621 1.362 . S
C622 C625 1.409 . S
C623 H615 0.930 . S
C623 C624 1.355 . S
C623 C625 1.415 . S
C624 C623 1.355 . S
C624 C626 1.419 1_565 S
C625 C620 1.425 . S
C625 C622 1.409 . S
C625 C623 1.415 . S
C626 H616 0.930 . S
C626 C624 1.419 1_545 S
C626 C627 1.362 1_545 S
C627 H617 0.930 . S
C627 C620 1.409 . S
C627 C626 1.362 1_565 S
H628 C634 0.930 . S
H629 C637 0.930 . S
H630 C638 0.930 . S
H631 C639 0.930 . S
H632 C642 0.930 . S
H633 C643 0.930 . S
C634 H628 0.930 . S
C634 C635 1.355 . S
C634 C636 1.415 . S
C635 C634 1.355 . S
C635 C637 1.419 . S
C636 C634 1.415 . S
C636 C641 1.425 . S
C636 C643 1.409 . S
C637 H629 0.930 . S
C637 C635 1.419 . S
C637 C638 1.362 . S
C638 H630 0.930 . S
C638 C637 1.362 . S
C638 C641 1.409 . S
C639 H631 0.930 . S
C639 C640 1.355 . S
C639 C641 1.415 . S
C640 C639 1.355 . S
C640 C642 1.419 . S
C641 C636 1.425 . S
C641 C638 1.409 . S
C641 C639 1.415 . S
C642 H632 0.930 . S
C642 C640 1.419 . S
C642 C643 1.362 . S
C643 H633 0.930 . S
C643 C636 1.409 . S
C643 C642 1.362 . S
H644 C650 0.930 . S
H645 C653 0.930 . S
H646 C654 0.930 . S
H647 C655 0.930 . S
H648 C658 0.930 . S
H649 C659 0.930 . S
C650 H644 0.930 . S
C650 C651 1.355 . S
C650 C652 1.415 . S
C651 C650 1.355 . S
C651 C653 1.419 . S
C652 C650 1.415 . S
C652 C657 1.425 . S
C652 C659 1.409 . S
C653 H645 0.930 . S
C653 C651 1.419 . S
C653 C654 1.362 . S
C654 H646 0.930 . S
C654 C653 1.362 . S
C654 C657 1.409 . S
C655 H647 0.930 . S
C655 C656 1.355 . S
C655 C657 1.415 . S
C656 C655 1.355 . S
C656 C658 1.419 . S
C657 C652 1.425 . S
C657 C654 1.409 . S
C657 C655 1.415 . S
C658 H648 0.930 . S
C658 C656 1.419 . S
C658 C659 1.362 . S
C659 H649 0.930 . S
C659 C652 1.409 . S
C659 C658 1.362 . S
H660 C666 0.930 . S
H661 C669 0.930 . S
H662 C670 0.930 . S
H663 C671 0.930 . S
H664 C674 0.930 . S
H665 C675 0.930 . S
C666 H660 0.930 . S
C666 C667 1.335 1_455 S
C666 C668 1.415 . S
C667 C666 1.335 1_655 S
C667 C669 1.442 . S
C668 C666 1.415 . S
C668 C673 1.425 1_455 S
C668 C675 1.409 . S
C669 H661 0.930 . S
C669 C667 1.442 . S
C669 C670 1.362 . S
C670 H662 0.930 . S
C670 C669 1.362 . S
C670 C673 1.409 . S
C671 H663 0.930 . S
C671 C672 1.355 1_655 S
C671 C673 1.415 . S
C672 C671 1.355 1_455 S
C672 C674 1.419 . S
C673 C668 1.425 1_655 S
C673 C670 1.409 . S
C673 C671 1.415 . S
C674 H664 0.930 . S
C674 C672 1.419 . S
C674 C675 1.362 . S
C675 H665 0.930 . S
C675 C668 1.409 . S
C675 C674 1.362 . S
H676 C682 0.930 1_554 S
H677 C685 0.930 . S
H678 C686 0.930 . S
H679 C687 0.930 . S
H680 C690 0.930 . S
H681 C691 0.930 1_554 S
C682 H676 0.930 1_556 S
C682 C683 1.355 . S
C682 C684 1.415 . S
C683 C682 1.355 . S
C683 C685 1.419 . S
C684 C682 1.415 . S
C684 C689 1.425 . S
C684 C691 1.409 . S
C685 H677 0.930 . S
C685 C683 1.419 . S
C685 C686 1.362 . S
C686 H678 0.930 . S
C686 C685 1.362 . S
C686 C689 1.409 . S
C687 H679 0.930 . S
C687 C688 1.355 . S
C687 C689 1.415 . S
C688 C687 1.355 . S
C688 C690 1.419 . S
C689 C684 1.425 . S
C689 C686 1.409 . S
C689 C687 1.415 . S
C690 H680 0.930 . S
C690 C688 1.419 . S
C690 C691 1.362 . S
C691 H681 0.930 1_556 S
C691 C684 1.409 . S
C691 C690 1.362 . S
H692 C698 0.930 . S
H693 C701 0.930 1_554 S
H694 C702 0.930 . S
H695 C703 0.930 . S
H696 C706 0.930 . S
H697 C707 0.930 . S
C698 H692 0.930 . S
C698 C699 1.355 . S
C698 C700 1.415 . S
C699 C698 1.355 . S
C699 C701 1.419 . S
C700 C698 1.415 . S
C700 C705 1.425 . S
C700 C707 1.409 . S
C701 H693 0.930 1_556 S
C701 C699 1.419 . S
C701 C702 1.362 . S
C702 H694 0.930 . S
C702 C701 1.362 . S
C702 C705 1.409 . S
C703 H695 0.930 . S
C703 C704 1.355 . S
C703 C705 1.415 . S
C704 C703 1.355 . S
C704 C706 1.419 . S
C705 C700 1.425 . S
C705 C702 1.409 . S
C705 C703 1.415 . S
C706 H696 0.930 . S
C706 C704 1.419 . S
C706 C707 1.362 . S
C707 H697 0.930 . S
C707 C700 1.409 . S
C707 C706 1.362 . S
H708 C714 0.930 . S
H709 C717 0.930 . S
H710 C718 0.930 1_554 S
H711 C719 0.930 . S
H712 C722 0.930 . S
H713 C723 0.930 . S
C714 H708 0.930 . S
C714 C715 1.355 . S
C714 C716 1.415 . S
C715 C714 1.355 . S
C715 C717 1.419 1_556 S
C716 C714 1.415 . S
C716 C721 1.425 . S
C716 C723 1.409 . S
C717 H709 0.930 . S
C717 C715 1.419 1_554 S
C717 C718 1.362 1_554 S
C718 H710 0.930 1_556 S
C718 C717 1.362 1_556 S
C718 C721 1.409 . S
C719 H711 0.930 . S
C719 C720 1.355 . S
C719 C721 1.415 . S
C720 C719 1.355 . S
C720 C722 1.419 . S
C721 C716 1.425 . S
C721 C718 1.409 . S
C721 C719 1.415 . S
C722 H712 0.930 . S
C722 C720 1.419 . S
C722 C723 1.362 . S
C723 H713 0.930 . S
C723 C716 1.409 . S
C723 C722 1.362 . S
H724 C730 0.930 . S
H725 C733 0.930 1_455 S
H726 C734 0.930 . S
H727 C735 0.930 . S
H728 C738 0.930 . S
H729 C739 0.930 . S
C730 H724 0.930 . S
C730 C731 1.355 . S
C730 C732 1.415 . S
C731 C730 1.355 . S
C731 C733 1.419 . S
C732 C730 1.415 . S
C732 C737 1.425 . S
C732 C739 1.409 . S
C733 H725 0.930 1_655 S
C733 C731 1.419 . S
C733 C734 1.362 . S
C734 H726 0.930 . S
C734 C733 1.362 . S
C734 C737 1.409 . S
C735 H727 0.930 . S
C735 C736 1.355 . S
C735 C737 1.415 . S
C736 C735 1.355 . S
C736 C738 1.419 . S
C737 C732 1.425 . S
C737 C734 1.409 . S
C737 C735 1.415 . S
C738 H728 0.930 . S
C738 C736 1.419 . S
C738 C739 1.362 . S
C739 H729 0.930 . S
C739 C732 1.409 . S
C739 C738 1.362 . S
H740 C746 0.930 . S
H741 C749 0.930 . S
H742 C750 0.930 . S
H743 C751 0.930 . S
H744 C754 0.930 . S
H745 C755 0.930 . S
C746 H740 0.930 . S
C746 C747 1.355 . S
C746 C748 1.415 . S
C747 C746 1.355 . S
C747 C749 1.419 . S
C748 C746 1.415 . S
C748 C753 1.425 . S
C748 C755 1.409 . S
C749 H741 0.930 . S
C749 C747 1.419 . S
C749 C750 1.362 . S
C750 H742 0.930 . S
C750 C749 1.362 . S
C750 C753 1.409 . S
C751 H743 0.930 . S
C751 C752 1.355 . S
C751 C753 1.415 . S
C752 C751 1.355 . S
C752 C754 1.419 . S
C753 C748 1.425 . S
C753 C750 1.409 . S
C753 C751 1.415 . S
C754 H744 0.930 . S
C754 C752 1.419 . S
C754 C755 1.362 . S
C755 H745 0.930 . S
C755 C748 1.409 . S
C755 C754 1.362 . S
H756 C762 0.930 . S
H757 C765 0.930 . S
H758 C766 0.930 . S
H759 C767 0.930 . S
H760 C770 0.930 . S
H761 C771 0.930 . S
C762 H756 0.930 . S
C762 C763 1.355 . S
C762 C764 1.415 . S
C763 C762 1.355 . S
C763 C765 1.419 . S
C764 C762 1.415 . S
C764 C769 1.425 . S
C764 C771 1.409 . S
C765 H757 0.930 . S
C765 C763 1.419 . S
C765 C766 1.362 . S
C766 H758 0.930 . S
C766 C765 1.362 . S
C766 C769 1.409 . S
C767 H759 0.930 . S
C767 C768 1.355 . S
C767 C769 1.415 . S
C768 C767 1.355 . S
C768 C770 1.419 . S
C769 C764 1.425 . S
C769 C766 1.409 . S
C769 C767 1.415 . S
C770 H760 0.930 . S
C770 C768 1.419 . S
C770 C771 1.362 . S
C771 H761 0.930 . S
C771 C764 1.409 . S
C771 C770 1.362 . S
H772 C778 0.930 . S
H773 C781 0.930 . S
H774 C782 0.930 . S
H775 C783 0.930 . S
H776 C786 0.930 . S
H777 C787 0.930 . S
C778 H772 0.930 . S
C778 C779 1.355 . S
C778 C780 1.415 . S
C779 C778 1.355 . S
C779 C781 1.419 . S
C780 C778 1.415 . S
C780 C785 1.425 . S
C780 C787 1.409 . S
C781 H773 0.930 . S
C781 C779 1.419 . S
C781 C782 1.362 . S
C782 H774 0.930 . S
C782 C781 1.362 . S
C782 C785 1.409 . S
C783 H775 0.930 . S
C783 C784 1.355 . S
C783 C785 1.415 . S
C784 C783 1.355 . S
C784 C786 1.419 . S
C785 C780 1.425 . S
C785 C782 1.409 . S
C785 C783 1.415 . S
C786 H776 0.930 . S
C786 C784 1.419 . S
C786 C787 1.362 . S
C787 H777 0.930 . S
C787 C780 1.409 . S
C787 C786 1.362 . S
C411 C255 2.077 . S
C416 C335 2.138 . S
C432 C359 1.455 . S
C427 C295 1.637 . S
C448 C380 2.101 . S
C443 C175 2.050 . S
C464 C398 1.456 . S
C459 C215 1.651 1_655 S
C480 C338 1.969 1_565 S
C475 C95 2.013 1_556 S
C491 C135 1.540 1_556 S
C496 C356 1.286 . S
C507 C15 1.992 1_556 S
C512 C377 1.962 . S
C523 C55 1.565 1_656 S
C528 C401 1.338 . S
C544 C336 0.624 . S
C539 C221 0.580 . S
C560 C354 1.101 . S
C555 C261 1.108 . S
C576 C375 0.639 . S
C571 C301 0.626 . S
C587 C181 1.118 . S
C592 C399 1.118 . S
C603 C61 0.687 . S
C608 C334 0.684 . S
C624 C358 1.116 1_565 S
C619 C101 1.012 . S
C640 C379 0.496 . S
C635 C141 0.580 . S
C651 C21 0.876 . S
C656 C397 1.063 . S
C667 C202 2.102 1_655 S
C672 C337 2.134 . S
C683 C242 2.414 1_556 S
C688 C355 2.394 . S
C704 C376 2.049 . S
C699 C282 2.034 . S
C720 C400 2.400 . S
C715 C162 2.372 1_556 S
C731 C42 1.961 1_655 S
C736 C333 1.932 . S
C752 C357 2.222 . S
C747 C82 2.122 . S
C768 C378 1.956 . S
C763 C122 1.962 . S
C779 C2 2.185 . S
C784 C396 2.231 . S
