# Generated by pormake.
# Topology apo, (3,6)-cn, num edge types: 1
# Building blocks:
#     Node 0, Type 0, BuildingBlock: WUSLED_clean_sbu_0, # of connection points: 3
#     Node 1, Type 0, BuildingBlock: WUSLED_clean_sbu_0, # of connection points: 3
#     Node 2, Type 0, BuildingBlock: WUSLED_clean_sbu_0, # of connection points: 3
#     Node 3, Type 0, BuildingBlock: WUSLED_clean_sbu_0, # of connection points: 3
#     Node 4, Type 0, BuildingBlock: WUSLED_clean_sbu_0, # of connection points: 3
#     Node 5, Type 0, BuildingBlock: WUSLED_clean_sbu_0, # of connection points: 3
#     Node 6, Type 0, BuildingBlock: WUSLED_clean_sbu_0, # of connection points: 3
#     Node 7, Type 0, BuildingBlock: WUSLED_clean_sbu_0, # of connection points: 3
#     Node 8, Type 1, BuildingBlock: KUMJIN_clean_sbu_1, # of connection points: 6
#     Node 9, Type 1, BuildingBlock: KUMJIN_clean_sbu_1, # of connection points: 6
#     Node 10, Type 1, BuildingBlock: KUMJIN_clean_sbu_1, # of connection points: 6
#     Node 11, Type 1, BuildingBlock: KUMJIN_clean_sbu_1, # of connection points: 6
#     Edge 12, Type (0, 1), BuildingBlock: UVAHIK_clean_linker_0, # of connection points: 2
#     Edge 13, Type (0, 1), BuildingBlock: UVAHIK_clean_linker_0, # of connection points: 2
#     Edge 14, Type (0, 1), BuildingBlock: UVAHIK_clean_linker_0, # of connection points: 2
#     Edge 15, Type (0, 1), BuildingBlock: UVAHIK_clean_linker_0, # of connection points: 2
#     Edge 16, Type (0, 1), BuildingBlock: UVAHIK_clean_linker_0, # of connection points: 2
#     Edge 17, Type (0, 1), BuildingBlock: UVAHIK_clean_linker_0, # of connection points: 2
#     Edge 18, Type (0, 1), BuildingBlock: UVAHIK_clean_linker_0, # of connection points: 2
#     Edge 19, Type (0, 1), BuildingBlock: UVAHIK_clean_linker_0, # of connection points: 2
#     Edge 20, Type (0, 1), BuildingBlock: UVAHIK_clean_linker_0, # of connection points: 2
#     Edge 21, Type (0, 1), BuildingBlock: UVAHIK_clean_linker_0, # of connection points: 2
#     Edge 22, Type (0, 1), BuildingBlock: UVAHIK_clean_linker_0, # of connection points: 2
#     Edge 23, Type (0, 1), BuildingBlock: UVAHIK_clean_linker_0, # of connection points: 2
#     Edge 24, Type (0, 1), BuildingBlock: UVAHIK_clean_linker_0, # of connection points: 2
#     Edge 25, Type (0, 1), BuildingBlock: UVAHIK_clean_linker_0, # of connection points: 2
#     Edge 26, Type (0, 1), BuildingBlock: UVAHIK_clean_linker_0, # of connection points: 2
#     Edge 27, Type (0, 1), BuildingBlock: UVAHIK_clean_linker_0, # of connection points: 2
#     Edge 28, Type (0, 1), BuildingBlock: UVAHIK_clean_linker_0, # of connection points: 2
#     Edge 29, Type (0, 1), BuildingBlock: UVAHIK_clean_linker_0, # of connection points: 2
#     Edge 30, Type (0, 1), BuildingBlock: UVAHIK_clean_linker_0, # of connection points: 2
#     Edge 31, Type (0, 1), BuildingBlock: UVAHIK_clean_linker_0, # of connection points: 2
#     Edge 32, Type (0, 1), BuildingBlock: UVAHIK_clean_linker_0, # of connection points: 2
#     Edge 33, Type (0, 1), BuildingBlock: UVAHIK_clean_linker_0, # of connection points: 2
#     Edge 34, Type (0, 1), BuildingBlock: UVAHIK_clean_linker_0, # of connection points: 2
#     Edge 35, Type (0, 1), BuildingBlock: UVAHIK_clean_linker_0, # of connection points: 2
# Relax obj value: 0.010
# Max RMSD: 0.089
# Mean RMSD: 0.069
data_MOF--net-apo--node1-WUSLED_clean_sbu_0--node2-KUMJIN_clean_sbu_1--edge1-UVAHIK_clean_linker_0
_symmetry_space_group_name_H-M    P1
_symmetry_Int_Tables_number       1
_symmetry_cell_setting            triclinic
loop_
_symmetry_equiv_pos_as_xyz
'x, y, z'
_cell_length_a     38.334615
_cell_length_b     67.845485
_cell_length_c     79.989578
_cell_angle_alpha  90.326727
_cell_angle_beta   89.827201
_cell_angle_gamma 90.465165
loop_
_atom_site_label
_atom_site_type_symbol
_atom_site_fract_x
_atom_site_fract_y
_atom_site_fract_z
_atom_type_partial_charge
C0 C 0.28233 0.43435 0.39 0.0
C1 C 0.29461 0.44917 0.4009 0.0
C2 C 0.31436 0.46865 0.37705 0.0
C3 C 0.31061 0.46623 0.39445 0.0
C4 C 0.30232 0.45356 0.36634 0.0
C5 C 0.28648 0.43666 0.37276 0.0
U6 U 0.25878 0.39606 0.42373 0.0
O7 O 0.20976 0.37932 0.42716 0.0
O8 O 0.25852 0.36375 0.42178 0.0
C9 C 0.22454 0.36235 0.42369 0.0
C10 C 0.26533 0.41619 0.39598 0.0
C11 C 0.20638 0.34966 0.41145 0.0
C12 C 0.19378 0.33971 0.38282 0.0
C13 C 0.20945 0.35284 0.39418 0.0
C14 C 0.17108 0.32046 0.4059 0.0
C15 C 0.17464 0.32326 0.38856 0.0
C16 C 0.18686 0.33352 0.41721 0.0
C17 C 0.2942 0.40498 0.46855 0.0
C18 C 0.29373 0.38232 0.49198 0.0
C19 C 0.31812 0.4152 0.49521 0.0
C20 C 0.31012 0.41929 0.47865 0.0
C21 C 0.31006 0.3967 0.50213 0.0
C22 C 0.28584 0.38644 0.47525 0.0
C23 C 0.28842 0.40981 0.45095 0.0
O24 O 0.28641 0.40186 0.40012 0.0
O25 O 0.23898 0.41835 0.40637 0.0
O26 O 0.25633 0.41414 0.44665 0.0
O27 O 0.30467 0.3987 0.43995 0.0
H28 H 0.29174 0.44758 0.4143 0.0
H29 H 0.31955 0.47761 0.403 0.0
H30 H 0.30545 0.45471 0.35292 0.0
H31 H 0.27746 0.4253 0.36419 0.0
H32 H 0.19667 0.34239 0.36955 0.0
H33 H 0.22437 0.36528 0.3895 0.0
H34 H 0.15693 0.30784 0.41074 0.0
H35 H 0.18434 0.33079 0.43049 0.0
H36 H 0.28695 0.36798 0.49697 0.0
H37 H 0.33136 0.42648 0.50248 0.0
H38 H 0.31697 0.43361 0.47361 0.0
H39 H 0.27356 0.3752 0.46755 0.0
C40 C 0.22038 0.14657 0.9708 0.0
C41 C 0.19802 0.13062 0.97428 0.0
C42 C 0.19109 0.14234 1.003 0.0
C43 C 0.18348 0.12851 0.99028 0.0
C44 C 0.21404 0.15805 0.99941 0.0
C45 C 0.22843 0.16015 0.98346 0.0
U46 U 0.23486 0.13149 0.92499 0.0
O47 O 0.23379 0.1498 0.90243 0.0
O48 O 0.28198 0.13451 0.9093 0.0
C49 C 0.2668 0.14665 0.89891 0.0
C50 C 0.23498 0.14975 0.95401 0.0
C51 C 0.28751 0.1637 0.89313 0.0
C52 C 0.30409 0.19845 0.89387 0.0
C53 C 0.28664 0.18225 0.90105 0.0
C54 C 0.32397 0.17748 0.87121 0.0
C55 C 0.3222 0.19628 0.87862 0.0
C56 C 0.30687 0.16142 0.8784 0.0
C57 C 0.1948 0.08271 0.90866 0.0
C58 C 0.18082 0.0736 0.87997 0.0
C59 C 0.18237 0.04854 0.90142 0.0
C60 C 0.19115 0.06291 0.9133 0.0
C61 C 0.17673 0.05378 0.88469 0.0
C62 C 0.19008 0.08796 0.89185 0.0
C63 C 0.20204 0.09755 0.92176 0.0
O64 O 0.25963 0.13754 0.9493 0.0
O65 O 0.21212 0.15326 0.9422 0.0
O66 O 0.1867 0.11469 0.92009 0.0
O67 O 0.23463 0.09906 0.92669 0.0
H68 H 0.19152 0.11997 0.96461 0.0
H69 H 0.16573 0.11632 0.99257 0.0
H70 H 0.2211 0.16874 1.00894 0.0
H71 H 0.24576 0.17249 0.98099 0.0
H72 H 0.30229 0.21278 0.89984 0.0
H73 H 0.27181 0.18431 0.91247 0.0
H74 H 0.33816 0.17526 0.85963 0.0
H75 H 0.30794 0.14723 0.87214 0.0
H76 H 0.17682 0.07794 0.86711 0.0
H77 H 0.17905 0.0334 0.90539 0.0
H78 H 0.19455 0.05858 0.92621 0.0
H79 H 0.19301 0.10316 0.88796 0.0
C80 C 0.78195 0.08612 0.6329 0.0
C81 C 0.79768 0.0725 0.62197 0.0
C82 C 0.81713 0.0532 0.64576 0.0
C83 C 0.81498 0.05601 0.62838 0.0
C84 C 0.80072 0.06668 0.65654 0.0
C85 C 0.78321 0.08291 0.65015 0.0
U86 U 0.7611 0.12467 0.59923 0.0
O87 O 0.71347 0.14216 0.59579 0.0
O88 O 0.76318 0.15699 0.60139 0.0
C89 C 0.72938 0.1589 0.59938 0.0
C90 C 0.76568 0.10435 0.62696 0.0
C91 C 0.71179 0.17187 0.61156 0.0
C92 C 0.69266 0.17981 0.63984 0.0
C93 C 0.70847 0.16678 0.62848 0.0
C94 C 0.68345 0.20306 0.61746 0.0
C95 C 0.68004 0.1982 0.63449 0.0
C96 C 0.69904 0.19002 0.60616 0.0
C97 C 0.79815 0.11495 0.55449 0.0
C98 C 0.79097 0.13419 0.52921 0.0
C99 C 0.83054 0.10651 0.52941 0.0
C100 C 0.82212 0.10299 0.54608 0.0
C101 C 0.8151 0.12212 0.52074 0.0
C102 C 0.78249 0.13061 0.54601 0.0
C103 C 0.79078 0.11056 0.57211 0.0
O104 O 0.78749 0.1186 0.62296 0.0
O105 O 0.73963 0.10236 0.61642 0.0
O106 O 0.75812 0.10688 0.57617 0.0
O107 O 0.80741 0.12143 0.5832 0.0
H108 H 0.79714 0.07482 0.60858 0.0
H109 H 0.8276 0.04585 0.61985 0.0
H110 H 0.80174 0.06474 0.66996 0.0
H111 H 0.7712 0.09325 0.65875 0.0
H112 H 0.69015 0.17539 0.65278 0.0
H113 H 0.71822 0.1528 0.6329 0.0
H114 H 0.67476 0.21716 0.61285 0.0
H115 H 0.70156 0.19425 0.59317 0.0
H116 H 0.77849 0.14627 0.52283 0.0
H117 H 0.84968 0.09718 0.52339 0.0
H118 H 0.8346 0.09091 0.55249 0.0
H119 H 0.76389 0.14001 0.55235 0.0
C120 C 0.71665 0.37386 0.05062 0.0
C121 C 0.70223 0.39226 0.0467 0.0
C122 C 0.68719 0.38016 0.01893 0.0
C123 C 0.68781 0.39543 0.03085 0.0
C124 C 0.70172 0.36186 0.02292 0.0
C125 C 0.71647 0.35878 0.03861 0.0
U126 U 0.73138 0.38738 0.09651 0.0
O127 O 0.73011 0.36879 0.11891 0.0
O128 O 0.7783 0.38474 0.11219 0.0
C129 C 0.76298 0.37241 0.12255 0.0
C130 C 0.73145 0.36985 0.0672 0.0
C131 C 0.78382 0.35577 0.1286 0.0
C132 C 0.79976 0.32109 0.12895 0.0
C133 C 0.78237 0.33685 0.12136 0.0
C134 C 0.82088 0.34323 0.15058 0.0
C135 C 0.81846 0.32407 0.14391 0.0
C136 C 0.80376 0.35885 0.14302 0.0
C137 C 0.69113 0.43601 0.11261 0.0
C138 C 0.68071 0.44612 0.14141 0.0
C139 C 0.67377 0.46952 0.11891 0.0
C140 C 0.68325 0.45507 0.10734 0.0
C141 C 0.67168 0.46516 0.13606 0.0
C142 C 0.6904 0.43163 0.12975 0.0
C143 C 0.69864 0.42101 0.09979 0.0
O144 O 0.75643 0.38189 0.07217 0.0
O145 O 0.70863 0.36576 0.07899 0.0
O146 O 0.68329 0.40377 0.10167 0.0
O147 O 0.7313 0.41978 0.0949 0.0
H148 H 0.70196 0.40405 0.05588 0.0
H149 H 0.67652 0.40961 0.02802 0.0
H150 H 0.70171 0.34993 0.01385 0.0
H151 H 0.72752 0.34453 0.04142 0.0
H152 H 0.7974 0.30648 0.12352 0.0
H153 H 0.76709 0.33417 0.1102 0.0
H154 H 0.83558 0.34612 0.16189 0.0
H155 H 0.80526 0.37334 0.14876 0.0
H156 H 0.67927 0.44224 0.15451 0.0
H157 H 0.66785 0.48411 0.11436 0.0
H158 H 0.68392 0.45874 0.09418 0.0
H159 H 0.6966 0.41696 0.13407 0.0
C160 C 0.72007 0.58827 0.63274 0.0
C161 C 0.70133 0.57567 0.62194 0.0
C162 C 0.68631 0.55451 0.64541 0.0
C163 C 0.68468 0.55875 0.62825 0.0
C164 C 0.70539 0.56705 0.65605 0.0
C165 C 0.72225 0.58371 0.64974 0.0
U166 U 0.74332 0.62678 0.59919 0.0
O167 O 0.7438 0.65911 0.60133 0.0
O168 O 0.79235 0.64343 0.59571 0.0
C169 C 0.77773 0.66044 0.59918 0.0
C170 C 0.7368 0.60657 0.62691 0.0
C171 C 0.79646 0.6733 0.61108 0.0
C172 C 0.81492 0.68212 0.63925 0.0
C173 C 0.79802 0.66904 0.62823 0.0
C174 C 0.82903 0.70359 0.61605 0.0
C175 C 0.83024 0.69968 0.63329 0.0
C176 C 0.81232 0.69053 0.60509 0.0
C177 C 0.70936 0.61828 0.55406 0.0
C178 C 0.70272 0.64207 0.53168 0.0
C179 C 0.69172 0.60736 0.52644 0.0
C180 C 0.70026 0.60312 0.54294 0.0
C181 C 0.69208 0.6269 0.5207 0.0
C182 C 0.71121 0.6378 0.54831 0.0
C183 C 0.71434 0.6132 0.57172 0.0
O184 O 0.76326 0.60454 0.61657 0.0
O185 O 0.71552 0.62078 0.6227 0.0
O186 O 0.6978 0.62418 0.58271 0.0
O187 O 0.74619 0.60867 0.57627 0.0
H188 H 0.69927 0.57903 0.60875 0.0
H189 H 0.66987 0.54929 0.61989 0.0
H190 H 0.70708 0.56397 0.6693 0.0
H191 H 0.73665 0.59324 0.65822 0.0
H192 H 0.81522 0.67875 0.65247 0.0
H193 H 0.78584 0.65578 0.63308 0.0
H194 H 0.84103 0.71679 0.61101 0.0
H195 H 0.81149 0.694 0.59189 0.0
H196 H 0.70319 0.65727 0.5276 0.0
H197 H 0.68428 0.59532 0.5182 0.0
H198 H 0.69886 0.58798 0.54715 0.0
H199 H 0.71827 0.64971 0.55675 0.0
C200 C 0.78048 0.87935 0.04876 0.0
C201 C 0.79793 0.8968 0.04416 0.0
C202 C 0.80841 0.88332 0.01623 0.0
C203 C 0.81179 0.89878 0.02798 0.0
C204 C 0.79066 0.866 0.02102 0.0
C205 C 0.77681 0.8641 0.03706 0.0
U206 U 0.76765 0.89379 0.09505 0.0
O207 O 0.72173 0.88946 0.11134 0.0
O208 O 0.77119 0.87492 0.11723 0.0
C209 C 0.73828 0.87739 0.12131 0.0
C210 C 0.7669 0.87615 0.06576 0.0
C211 C 0.71894 0.85983 0.12711 0.0
C212 C 0.70054 0.82545 0.1248 0.0
C213 C 0.7175 0.84205 0.118 0.0
C214 C 0.68596 0.84446 0.14954 0.0
C215 C 0.68465 0.82651 0.1407 0.0
C216 C 0.70289 0.86087 0.14282 0.0
C217 C 0.80725 0.94285 0.11134 0.0
C218 C 0.81071 0.95336 0.14042 0.0
C219 C 0.83189 0.97486 0.11847 0.0
C220 C 0.82245 0.96076 0.1065 0.0
C221 C 0.82633 0.97133 0.13558 0.0
C222 C 0.80114 0.93923 0.12837 0.0
C223 C 0.79926 0.9281 0.09832 0.0
O224 O 0.79049 0.87273 0.07724 0.0
O225 O 0.74211 0.88805 0.07086 0.0
O226 O 0.7663 0.92622 0.09408 0.0
O227 O 0.81536 0.91116 0.09961 0.0
H228 H 0.80104 0.90876 0.05308 0.0
H229 H 0.82501 0.91238 0.02468 0.0
H230 H 0.78813 0.85362 0.01249 0.0
H231 H 0.76363 0.8505 0.04044 0.0
H232 H 0.69979 0.81184 0.11766 0.0
H233 H 0.72978 0.84095 0.10582 0.0
H234 H 0.6746 0.84571 0.16191 0.0
H235 H 0.70401 0.87439 0.15009 0.0
H236 H 0.80581 0.95029 0.1535 0.0
H237 H 0.84434 0.98836 0.11431 0.0
H238 H 0.82751 0.96375 0.09342 0.0
H239 H 0.78932 0.92546 0.13233 0.0
C240 C 0.21769 0.92914 0.38712 0.0
C241 C 0.19461 0.94017 0.39706 0.0
C242 C 0.18528 0.96281 0.37394 0.0
C243 C 0.17855 0.95695 0.39052 0.0
C244 C 0.20911 0.95191 0.36429 0.0
C245 C 0.22508 0.93526 0.37082 0.0
U246 U 0.23929 0.89137 0.42116 0.0
O247 O 0.23933 0.85899 0.41955 0.0
O248 O 0.28797 0.87503 0.42501 0.0
C249 C 0.27325 0.8579 0.42165 0.0
C250 C 0.23378 0.91091 0.3931 0.0
C251 C 0.29186 0.84516 0.40969 0.0
C252 C 0.31428 0.8379 0.38183 0.0
C253 C 0.2974 0.85074 0.39299 0.0
C254 C 0.3201 0.81393 0.40397 0.0
C255 C 0.32538 0.81927 0.38721 0.0
C256 C 0.3036 0.82679 0.4151 0.0
C257 C 0.20412 0.90172 0.466 0.0
C258 C 0.19881 0.8794 0.48955 0.0
C259 C 0.18509 0.914 0.49303 0.0
C260 C 0.19352 0.91731 0.47631 0.0
C261 C 0.18715 0.89499 0.49979 0.0
C262 C 0.20716 0.88273 0.47272 0.0
C263 C 0.20988 0.90581 0.4482 0.0
O264 O 0.2602 0.91314 0.40338 0.0
O265 O 0.21207 0.89677 0.39751 0.0
O266 O 0.19349 0.89423 0.43753 0.0
O267 O 0.24198 0.91019 0.44366 0.0
H268 H 0.18864 0.93563 0.40973 0.0
H269 H 0.1602 0.965 0.39823 0.0
H270 H 0.21537 0.95621 0.35161 0.0
H271 H 0.24297 0.92698 0.36303 0.0
H272 H 0.31787 0.8423 0.36894 0.0
H273 H 0.28837 0.86487 0.38857 0.0
H274 H 0.32874 0.79976 0.40848 0.0
H275 H 0.29968 0.82228 0.42795 0.0
H276 H 0.20051 0.86458 0.49443 0.0
H277 H 0.17678 0.92635 0.50066 0.0
H278 H 0.19115 0.93206 0.47133 0.0
H279 H 0.21529 0.8705 0.4649 0.0
C280 C 0.28616 0.64344 0.97138 0.0
C281 C 0.30229 0.62561 0.97558 0.0
C282 C 0.3124 0.63781 1.00393 0.0
C283 C 0.31538 0.62283 0.99177 0.0
C284 C 0.29631 0.65561 0.99951 0.0
C285 C 0.28332 0.65834 0.98343 0.0
U286 U 0.27297 0.62931 0.92532 0.0
O287 O 0.22734 0.63324 0.90902 0.0
O288 O 0.27717 0.64778 0.90288 0.0
C289 C 0.2443 0.64505 0.8988 0.0
C290 C 0.27265 0.64716 0.9545 0.0
C291 C 0.22538 0.6623 0.89252 0.0
C292 C 0.20187 0.69543 0.89521 0.0
C293 C 0.21928 0.67927 0.90221 0.0
C294 C 0.19675 0.67765 0.86898 0.0
C295 C 0.19033 0.69477 0.87847 0.0
C296 C 0.21391 0.66165 0.87595 0.0
C297 C 0.31089 0.58026 0.90937 0.0
C298 C 0.31447 0.5702 0.88019 0.0
C299 C 0.33336 0.54803 0.90198 0.0
C300 C 0.32475 0.56208 0.91407 0.0
C301 C 0.32858 0.55203 0.88496 0.0
C302 C 0.3054 0.58422 0.89236 0.0
C303 C 0.30358 0.59496 0.92244 0.0
O304 O 0.29636 0.65054 0.94296 0.0
O305 O 0.24724 0.63548 0.9494 0.0
O306 O 0.27068 0.59691 0.92675 0.0
O307 O 0.32022 0.61188 0.92099 0.0
H308 H 0.30477 0.61392 0.96638 0.0
H309 H 0.32745 0.60893 0.9948 0.0
H310 H 0.29418 0.66761 1.00842 0.0
H311 H 0.27121 0.67223 0.98036 0.0
H312 H 0.1972 0.70831 0.90292 0.0
H313 H 0.22802 0.68005 0.91506 0.0
H314 H 0.1891 0.67668 0.85598 0.0
H315 H 0.2186 0.64874 0.86825 0.0
H316 H 0.31052 0.57351 0.8671 0.0
H317 H 0.34458 0.53419 0.90589 0.0
H318 H 0.32933 0.55886 0.92713 0.0
H319 H 0.2946 0.59818 0.88852 0.0
Eu320 Eu 0.04152 0.14279 0.24667 0.0
C321 C 0.8859 0.12946 0.2671 0.0
N322 N 0.90324 0.14701 0.2669 0.0
C323 C 0.85365 0.16277 0.25486 0.0
C324 C 0.85162 0.12788 0.26086 0.0
C325 C 0.88769 0.1636 0.26104 0.0
C326 C 0.83554 0.14483 0.25474 0.0
C327 C 0.8858 0.09441 0.27303 0.0
C328 C 0.90291 0.11289 0.27314 0.0
C329 C 0.85162 0.09282 0.26686 0.0
C330 C 0.83457 0.1095 0.26083 0.0
Eu331 Eu 0.9598 0.14716 0.27829 0.0
N332 N 0.93628 0.11478 0.27884 0.0
C333 C 0.90349 0.07806 0.27921 0.0
C334 C 0.95281 0.09908 0.2857 0.0
C335 C 0.93701 0.08045 0.2857 0.0
H336 H 0.90123 0.17757 0.26152 0.0
H337 H 0.95051 0.06799 0.29096 0.0
H338 H 0.09688 0.10903 0.2612 0.0
H339 H 0.06373 0.22043 0.23173 0.0
H340 H 0.97767 0.10082 0.29161 0.0
H341 H 0.89128 0.0636 0.27931 0.0
H342 H 0.03019 0.18955 0.23348 0.0
H343 H 0.84135 0.17598 0.25028 0.0
H344 H 0.83811 0.07873 0.26672 0.0
H345 H 0.80821 0.10801 0.25611 0.0
H346 H 0.15812 0.10726 0.27059 0.0
H347 H 0.80917 0.14422 0.24991 0.0
H348 H 0.12538 0.22141 0.24074 0.0
N349 N 0.09966 0.13955 0.25562 0.0
C350 C 0.12007 0.15597 0.25462 0.0
C351 C 0.14768 0.12108 0.26622 0.0
C352 C 0.15527 0.1556 0.25967 0.0
C353 C 0.11293 0.12216 0.26108 0.0
C354 C 0.16893 0.13788 0.26557 0.0
N355 N 0.07128 0.17331 0.2444 0.0
C356 C 0.05651 0.18981 0.23797 0.0
C357 C 0.12603 0.19062 0.24768 0.0
C358 C 0.10559 0.17328 0.24871 0.0
C359 C 0.11057 0.20779 0.2417 0.0
C360 C 0.07573 0.20733 0.2367 0.0
H361 H 0.19586 0.137 0.26956 0.0
H362 H 0.20272 0.17285 0.26256 0.0
H363 H 0.17712 0.2035 0.25208 0.0
O364 O 0.0395 0.14541 0.21932 0.0
O365 O 0.05172 0.16104 0.27037 0.0
O366 O 0.99751 0.17288 0.27767 0.0
O367 O 0.0696 0.1223 0.23073 0.0
O368 O 0.99328 0.15921 0.23788 0.0
O369 O 0.96744 0.17335 0.26119 0.0
O370 O 0.95345 0.14335 0.30574 0.0
O371 O 0.95151 0.13277 0.25279 0.0
O372 O 0.00361 0.1175 0.25012 0.0
O373 O 0.92443 0.16573 0.29215 0.0
O374 O 0.00968 0.13337 0.28843 0.0
O375 O 0.03335 0.11833 0.26524 0.0
C376 C 0.0316 0.17289 0.27918 0.0
C377 C 0.08915 0.13372 0.20447 0.0
C378 C 0.10793 0.13526 0.17539 0.0
C379 C 0.14279 0.13584 0.18063 0.0
C380 C 0.12426 0.13452 0.20949 0.0
C381 C 0.15087 0.1355 0.19759 0.0
C382 C 0.08104 0.13414 0.18732 0.0
C383 C 0.97341 0.17268 0.24496 0.0
C384 C 0.06107 0.1309 0.21685 0.0
C385 C 0.17565 0.17285 0.2587 0.0
C386 C 0.16108 0.19031 0.25272 0.0
C387 C 0.97077 0.11896 0.24613 0.0
C388 C 0.91184 0.1639 0.32162 0.0
C389 C 0.90139 0.16346 0.35173 0.0
C390 C 0.87522 0.17761 0.34969 0.0
C391 C 0.88543 0.17804 0.32001 0.0
C392 C 0.91957 0.15637 0.3376 0.0
C393 C 0.86727 0.18477 0.33394 0.0
C394 C 0.03131 0.12069 0.28152 0.0
C395 C 0.93022 0.15728 0.30637 0.0
H396 H 0.16378 0.13645 0.17153 0.0
H397 H 0.13123 0.13401 0.22258 0.0
H398 H 0.17785 0.13581 0.20153 0.0
H399 H 0.05408 0.13334 0.18328 0.0
H400 H 0.86059 0.18302 0.36036 0.0
H401 H 0.87858 0.18392 0.3079 0.0
H402 H 0.93969 0.14539 0.33908 0.0
H403 H 0.84693 0.1956 0.33253 0.0
Eu404 Eu 0.46596 0.37564 0.74382 0.0
C405 C 0.62355 0.38824 0.7644 0.0
N406 N 0.60419 0.3714 0.76513 0.0
C407 C 0.65119 0.35305 0.75308 0.0
C408 C 0.65723 0.38822 0.75726 0.0
C409 C 0.61788 0.35383 0.76019 0.0
C410 C 0.67082 0.37036 0.75142 0.0
C411 C 0.62912 0.42325 0.77021 0.0
C412 C 0.60959 0.40556 0.77085 0.0
C413 C 0.66233 0.42337 0.76275 0.0
C414 C 0.67638 0.4059 0.75633 0.0
Eu415 Eu 0.54816 0.374 0.77707 0.0
N416 N 0.57723 0.40504 0.77796 0.0
C417 C 0.61496 0.44027 0.77735 0.0
C418 C 0.5644 0.42134 0.78586 0.0
C419 C 0.58268 0.43924 0.7854 0.0
H420 H 0.60341 0.34036 0.76201 0.0
H421 H 0.57206 0.45216 0.79148 0.0
H422 H 0.4082 0.41147 0.75422 0.0
H423 H 0.4381 0.29954 0.72607 0.0
H424 H 0.54063 0.42069 0.79297 0.0
H425 H 0.62914 0.45415 0.77711 0.0
H426 H 0.47298 0.33029 0.72812 0.0
H427 H 0.66181 0.33908 0.74901 0.0
H428 H 0.67759 0.43686 0.7621 0.0
H429 H 0.70223 0.40618 0.75081 0.0
H430 H 0.34746 0.41404 0.76395 0.0
H431 H 0.69665 0.36971 0.74592 0.0
H432 H 0.37784 0.2986 0.73728 0.0
N433 N 0.40701 0.38008 0.75236 0.0
C434 C 0.38647 0.36368 0.7525 0.0
C435 C 0.35823 0.39973 0.761 0.0
C436 C 0.35123 0.36456 0.75758 0.0
C437 C 0.39289 0.39814 0.75571 0.0
C438 C 0.33745 0.38283 0.76221 0.0
N439 N 0.43348 0.34612 0.74089 0.0
C440 C 0.44687 0.32988 0.73313 0.0
C441 C 0.37898 0.3291 0.74542 0.0
C442 C 0.40002 0.34621 0.74643 0.0
C443 C 0.39314 0.31205 0.73826 0.0
C444 C 0.42713 0.31252 0.73192 0.0
H445 H 0.31049 0.38413 0.76615 0.0
H446 H 0.30353 0.34774 0.76129 0.0
H447 H 0.32793 0.31663 0.75071 0.0
O448 O 0.46977 0.37106 0.71663 0.0
O449 O 0.46771 0.34985 0.76183 0.0
O450 O 0.49317 0.36498 0.78429 0.0
O451 O 0.4448 0.39694 0.72648 0.0
O452 O 0.51682 0.36076 0.73668 0.0
O453 O 0.53943 0.34681 0.76056 0.0
O454 O 0.56842 0.37925 0.8023 0.0
O455 O 0.55714 0.38661 0.7512 0.0
O456 O 0.50406 0.40045 0.74883 0.0
O457 O 0.56776 0.34935 0.79173 0.0
O458 O 0.50432 0.39438 0.78545 0.0
O459 O 0.4615 0.39808 0.7648 0.0
C460 C 0.47545 0.35026 0.77781 0.0
C461 C 0.42265 0.38422 0.70131 0.0
C462 C 0.40184 0.3824 0.67268 0.0
C463 C 0.36733 0.38259 0.67853 0.0
C464 C 0.38787 0.38413 0.70699 0.0
C465 C 0.36042 0.38342 0.69562 0.0
C466 C 0.42958 0.38327 0.68406 0.0
C467 C 0.53319 0.3464 0.74432 0.0
C468 C 0.45156 0.38659 0.71319 0.0
C469 C 0.33054 0.34738 0.75728 0.0
C470 C 0.3444 0.32967 0.75122 0.0
C471 C 0.53665 0.39947 0.74425 0.0
C472 C 0.59089 0.35317 0.81991 0.0
C473 C 0.6031 0.35624 0.84969 0.0
C474 C 0.61918 0.33775 0.84928 0.0
C475 C 0.6071 0.33469 0.81977 0.0
C476 C 0.58913 0.36406 0.83496 0.0
C477 C 0.62128 0.32709 0.83438 0.0
C478 C 0.47581 0.40245 0.77932 0.0
C479 C 0.57543 0.36071 0.80443 0.0
H480 H 0.34573 0.38225 0.66982 0.0
H481 H 0.38184 0.385 0.72018 0.0
H482 H 0.33373 0.38369 0.70005 0.0
H483 H 0.45628 0.38354 0.67953 0.0
H484 H 0.63 0.33153 0.86057 0.0
H485 H 0.60885 0.3261 0.80834 0.0
H486 H 0.57639 0.37827 0.83531 0.0
H487 H 0.63373 0.31283 0.83418 0.0
Eu488 Eu 0.05425 0.87196 0.74433 0.0
C489 C 0.89587 0.85942 0.76332 0.0
N490 N 0.91427 0.87662 0.76326 0.0
C491 C 0.86596 0.89335 0.75097 0.0
C492 C 0.86164 0.85852 0.75694 0.0
C493 C 0.89982 0.89352 0.7574 0.0
C494 C 0.8468 0.87576 0.75069 0.0
C495 C 0.89312 0.82451 0.76968 0.0
C496 C 0.91153 0.84259 0.76961 0.0
C497 C 0.85905 0.82356 0.7633 0.0
C498 C 0.84335 0.84051 0.75696 0.0
Eu499 Eu 0.97091 0.87555 0.77458 0.0
N500 N 0.9448 0.84386 0.77551 0.0
C501 C 0.90943 0.80792 0.77629 0.0
C502 C 0.96003 0.82797 0.78273 0.0
C503 C 0.9429 0.80971 0.78297 0.0
H504 H 0.91408 0.90724 0.75809 0.0
H505 H 0.95534 0.79709 0.78854 0.0
H506 H 0.11019 0.84071 0.76228 0.0
H507 H 0.06835 0.95072 0.73106 0.0
H508 H 0.98492 0.82931 0.78872 0.0
H509 H 0.89617 0.79376 0.77657 0.0
H510 H 0.03907 0.91848 0.73081 0.0
H511 H 0.85458 0.90681 0.74636 0.0
H512 H 0.84455 0.80979 0.76327 0.0
H513 H 0.81702 0.83955 0.75212 0.0
H514 H 0.16973 0.84148 0.77395 0.0
H515 H 0.82054 0.87568 0.74572 0.0
H516 H 0.12767 0.95413 0.74282 0.0
N517 N 0.11028 0.8712 0.75629 0.0
C518 C 0.12869 0.88841 0.75594 0.0
C519 C 0.15842 0.85479 0.76902 0.0
C520 C 0.16285 0.88946 0.7624 0.0
C521 C 0.12457 0.85446 0.76258 0.0
C522 C 0.17764 0.87237 0.76895 0.0
N523 N 0.07951 0.90388 0.7438 0.0
C524 C 0.06402 0.9198 0.73673 0.0
C525 C 0.13111 0.92334 0.74954 0.0
C526 C 0.11289 0.9052 0.74959 0.0
C527 C 0.11456 0.93993 0.74307 0.0
C528 C 0.081 0.9381 0.73652 0.0
H529 H 0.20385 0.87258 0.77399 0.0
H530 H 0.20729 0.90859 0.76717 0.0
H531 H 0.17953 0.93822 0.75593 0.0
O532 O 0.05945 0.8752 0.71678 0.0
O533 O 0.06125 0.88768 0.76943 0.0
O534 O 0.00778 0.90157 0.77317 0.0
O535 O 0.09112 0.85419 0.73059 0.0
O536 O 0.00559 0.88681 0.73392 0.0
O537 O 0.97979 0.90108 0.75703 0.0
O538 O 0.96822 0.87321 0.8023 0.0
O539 O 0.96381 0.85964 0.7496 0.0
O540 O 0.01737 0.84575 0.74485 0.0
O541 O 0.93549 0.89385 0.78864 0.0
O542 O 0.01964 0.86048 0.78463 0.0
O543 O 0.04493 0.846 0.76144 0.0
C544 C 0.04114 0.90091 0.77647 0.0
C545 C 0.10254 0.85557 0.70098 0.0
C546 C 0.11311 0.85638 0.6709 0.0
C547 C 0.13936 0.84227 0.6728 0.0
C548 C 0.12911 0.84151 0.7025 0.0
C549 C 0.14736 0.83497 0.68851 0.0
C550 C 0.09477 0.86323 0.68505 0.0
C551 C 0.98405 0.89963 0.74075 0.0
C552 C 0.08407 0.86205 0.71625 0.0
C553 C 0.18102 0.90751 0.76228 0.0
C554 C 0.16518 0.92439 0.75589 0.0
C555 C 0.98354 0.84621 0.74255 0.0
C556 C 0.92826 0.89447 0.81853 0.0
C557 C 0.91759 0.89365 0.84857 0.0
C558 C 0.89698 0.91053 0.84721 0.0
C559 C 0.90737 0.91138 0.81753 0.0
C560 C 0.93338 0.88552 0.83421 0.0
C561 C 0.8919 0.91932 0.83177 0.0
C562 C 0.04058 0.84745 0.7777 0.0
C563 C 0.9444 0.88682 0.80305 0.0
H564 H 0.15395 0.83701 0.66207 0.0
H565 H 0.13598 0.83552 0.71456 0.0
H566 H 0.16779 0.82418 0.68985 0.0
H567 H 0.07456 0.87417 0.68363 0.0
H568 H 0.88458 0.91687 0.85817 0.0
H569 H 0.90301 0.91862 0.80569 0.0
H570 H 0.94924 0.87243 0.83524 0.0
H571 H 0.8759 0.93233 0.83083 0.0
Eu572 Eu 0.46864 0.64725 0.24561 0.0
C573 C 0.62612 0.66186 0.2649 0.0
N574 N 0.60846 0.64441 0.26482 0.0
C575 C 0.65784 0.62814 0.25277 0.0
C576 C 0.66045 0.66313 0.25859 0.0
C577 C 0.62381 0.62763 0.25906 0.0
C578 C 0.67623 0.64599 0.25247 0.0
C579 C 0.6272 0.69691 0.27113 0.0
C580 C 0.60957 0.67858 0.2711 0.0
C581 C 0.66133 0.69822 0.26477 0.0
C582 C 0.67792 0.68139 0.25855 0.0
Eu583 Eu 0.5519 0.64478 0.2764 0.0
N584 N 0.57633 0.67693 0.27707 0.0
C585 C 0.61016 0.71336 0.27774 0.0
C586 C 0.56054 0.69269 0.28443 0.0
C587 C 0.57684 0.71119 0.28458 0.0
H588 H 0.61016 0.61374 0.25978 0.0
H589 H 0.56392 0.72369 0.29025 0.0
H590 H 0.41353 0.68019 0.2626 0.0
H591 H 0.44802 0.56945 0.23016 0.0
H592 H 0.53598 0.69107 0.29069 0.0
H593 H 0.62282 0.7277 0.27799 0.0
H594 H 0.48151 0.60027 0.23268 0.0
H595 H 0.66995 0.61476 0.24828 0.0
H596 H 0.67522 0.7122 0.26471 0.0
H597 H 0.7043 0.68264 0.25375 0.0
H598 H 0.3529 0.68131 0.27282 0.0
H599 H 0.70262 0.64635 0.2476 0.0
H600 H 0.38613 0.56834 0.23891 0.0
N601 N 0.41152 0.64978 0.25635 0.0
C602 C 0.39126 0.63334 0.25485 0.0
C603 C 0.36344 0.66767 0.26796 0.0
C604 C 0.35608 0.63345 0.2601 0.0
C605 C 0.39805 0.66691 0.26249 0.0
C606 C 0.34236 0.65085 0.2668 0.0
N607 N 0.4403 0.61629 0.24398 0.0
C608 C 0.45518 0.59991 0.2372 0.0
C609 C 0.38541 0.59894 0.24672 0.0
C610 C 0.40587 0.61624 0.24826 0.0
C611 C 0.40096 0.58191 0.2403 0.0
C612 C 0.43595 0.58244 0.23546 0.0
H613 H 0.31547 0.65151 0.27096 0.0
H614 H 0.30864 0.61609 0.26242 0.0
H615 H 0.33427 0.58592 0.25069 0.0
O616 O 0.46718 0.64397 0.21786 0.0
O617 O 0.45985 0.63064 0.27 0.0
O618 O 0.51427 0.61898 0.27672 0.0
O619 O 0.43367 0.66488 0.23104 0.0
O620 O 0.51715 0.63114 0.23636 0.0
O621 O 0.54361 0.61815 0.25977 0.0
O622 O 0.55709 0.64864 0.30393 0.0
O623 O 0.55937 0.65909 0.25081 0.0
O624 O 0.50606 0.67307 0.24685 0.0
O625 O 0.5873 0.62656 0.29028 0.0
O626 O 0.50251 0.65947 0.28615 0.0
O627 O 0.47719 0.67335 0.26295 0.0
C628 C 0.48035 0.61935 0.27892 0.0
C629 C 0.42563 0.66358 0.20123 0.0
C630 C 0.41591 0.66185 0.17109 0.0
C631 C 0.39064 0.67662 0.17265 0.0
C632 C 0.4001 0.67833 0.20234 0.0
C633 C 0.38277 0.68474 0.18817 0.0
C634 C 0.43336 0.65514 0.18546 0.0
C635 C 0.53778 0.61825 0.24357 0.0
C636 C 0.4424 0.65699 0.21683 0.0
C637 C 0.33572 0.61626 0.25849 0.0
C638 C 0.35031 0.59908 0.25179 0.0
C639 C 0.53948 0.67216 0.24356 0.0
C640 C 0.59732 0.62769 0.31998 0.0
C641 C 0.60958 0.62973 0.34982 0.0
C642 C 0.63084 0.61308 0.3484 0.0
C643 C 0.61885 0.61101 0.31892 0.0
C644 C 0.5926 0.63709 0.3356 0.0
C645 C 0.6354 0.60379 0.33304 0.0
C646 C 0.48167 0.67241 0.27923 0.0
C647 C 0.58016 0.63463 0.30462 0.0
H648 H 0.37671 0.68179 0.16177 0.0
H649 H 0.39321 0.68494 0.21425 0.0
H650 H 0.3631 0.69603 0.18922 0.0
H651 H 0.45268 0.64363 0.18435 0.0
H652 H 0.6439 0.60724 0.35928 0.0
H653 H 0.62289 0.60341 0.30714 0.0
H654 H 0.57605 0.64992 0.3367 0.0
H655 H 0.65181 0.59093 0.33207 0.0
C656 C 0.15427 0.97824 0.34992 0.0
C657 C 0.16688 0.97976 0.36636 0.0
C658 C 0.13817 0.99419 0.34232 0.0
C659 C 0.13071 0.04838 0.34436 0.0
H660 H 0.0538 0.03837 0.314 0.0
C661 C 0.05375 0.10964 0.30938 0.0
C662 C 0.048 0.10586 0.29231 0.0
C663 C 0.06799 0.0951 0.31963 0.0
C664 C 0.07536 0.04139 0.32238 0.0
H665 H 0.17196 0.99923 0.38781 0.0
H666 H 0.14315 0.02718 0.37455 0.0
H667 H 0.07758 0.01138 0.33015 0.0
H668 H 0.05265 0.08391 0.2726 0.0
H669 H 0.0773 0.05869 0.29041 0.0
H670 H 0.12816 0.07854 0.33647 0.0
C671 C 0.14621 0.01363 0.3675 0.0
C672 C 0.08906 0.02592 0.33163 0.0
C673 C 0.16239 0.99758 0.37515 0.0
C674 C 0.05701 0.08737 0.28567 0.0
C675 C 0.07084 0.07284 0.2959 0.0
C676 C 0.11676 0.06395 0.33516 0.0
C677 C 0.13399 0.01212 0.35096 0.0
C678 C 0.1174 0.0291 0.34246 0.0
C679 C 0.07617 0.07645 0.31301 0.0
C680 C 0.08941 0.0605 0.32383 0.0
H681 H 0.15685 0.96465 0.34287 0.0
H682 H 0.12956 0.99253 0.3295 0.0
H683 H 0.1527 0.05133 0.35249 0.0
H684 H 0.04707 0.12377 0.31483 0.0
H685 H 0.07176 0.09825 0.33279 0.0
C686 C 0.32595 0.51821 0.87249 0.0
C687 C 0.33975 0.53743 0.87231 0.0
C688 C 0.33868 0.5039 0.86146 0.0
C689 C 0.41762 0.49141 0.83785 0.0
H690 H 0.3573 0.45459 0.81423 0.0
C691 C 0.47255 0.43702 0.78936 0.0
C692 C 0.45889 0.41783 0.78928 0.0
C693 C 0.4568 0.45172 0.79896 0.0
C694 C 0.37453 0.4646 0.82089 0.0
H695 H 0.37733 0.55694 0.8606 0.0
H696 H 0.40004 0.53185 0.8414 0.0
H697 H 0.3317 0.48025 0.83182 0.0
H698 H 0.41739 0.39886 0.79825 0.0
H699 H 0.3898 0.42451 0.81536 0.0
H700 H 0.46045 0.47568 0.82726 0.0
C701 C 0.37926 0.52785 0.84997 0.0
C702 C 0.35984 0.47933 0.83093 0.0
C703 C 0.36612 0.54223 0.86081 0.0
C704 C 0.42855 0.41359 0.79842 0.0
C705 C 0.4127 0.4283 0.80806 0.0
C706 C 0.4323 0.47665 0.82793 0.0
C707 C 0.3659 0.50848 0.85029 0.0
C708 C 0.38125 0.49294 0.83946 0.0
C709 C 0.42688 0.44751 0.80859 0.0
C710 C 0.41097 0.4631 0.81926 0.0
H711 H 0.30562 0.51422 0.88131 0.0
H712 H 0.32803 0.48908 0.86208 0.0
H713 H 0.43483 0.50144 0.84453 0.0
H714 H 0.49524 0.44071 0.78187 0.0
H715 H 0.4679 0.46644 0.7987 0.0
C716 C 0.67681 0.51817 0.64892 0.0
C717 C 0.66718 0.53761 0.65265 0.0
C718 C 0.66154 0.5024 0.6576 0.0
C719 C 0.61328 0.49286 0.69736 0.0
H720 H 0.59995 0.44056 0.67854 0.0
C721 C 0.53397 0.43228 0.73047 0.0
C722 C 0.55127 0.41434 0.73277 0.0
C723 C 0.54802 0.44664 0.71994 0.0
C724 C 0.60374 0.4551 0.68392 0.0
H725 H 0.63297 0.55594 0.66747 0.0
H726 H 0.60492 0.52862 0.68192 0.0
H727 H 0.62293 0.46706 0.66091 0.0
H728 H 0.59645 0.39715 0.72567 0.0
H729 H 0.6206 0.42222 0.7068 0.0
H730 H 0.59303 0.48099 0.72018 0.0
C731 C 0.62523 0.52534 0.67292 0.0
C732 C 0.61702 0.47029 0.67388 0.0
C733 C 0.64094 0.54103 0.66451 0.0
C734 C 0.58263 0.41088 0.72413 0.0
C735 C 0.59633 0.42513 0.71329 0.0
C736 C 0.59947 0.47783 0.70725 0.0
C737 C 0.63604 0.50582 0.67 0.0
C738 C 0.62184 0.48943 0.68046 0.0
C739 C 0.57928 0.4432 0.71126 0.0
C740 C 0.59453 0.45885 0.70064 0.0
H741 H 0.69719 0.51526 0.63984 0.0
H742 H 0.67078 0.48765 0.65504 0.0
H743 H 0.61759 0.50714 0.70312 0.0
H744 H 0.50986 0.4354 0.73703 0.0
H745 H 0.53439 0.46046 0.71853 0.0
C746 C 0.83271 1.00643 0.1453 0.0
C747 C 0.83778 0.98624 0.14818 0.0
C748 C 0.84561 0.02059 0.15647 0.0
C749 C 0.88156 0.02696 0.19959 0.0
H750 H 0.91635 0.07618 0.18128 0.0
C751 C 0.96558 0.084 0.23648 0.0
C752 C 0.95421 0.10359 0.2357 0.0
C753 C 0.95018 0.06947 0.22639 0.0
C754 C 0.9065 0.06255 0.18656 0.0
H755 H 0.8601 0.96511 0.16522 0.0
H756 H 0.8832 0.98976 0.18458 0.0
H757 H 0.89227 0.05112 0.16259 0.0
H758 H 0.91793 0.12347 0.22396 0.0
H759 H 0.8919 0.09816 0.20576 0.0
H760 H 0.89721 0.03835 0.22353 0.0
C761 C 0.86865 0.99472 0.17385 0.0
C762 C 0.89247 0.04819 0.17588 0.0
C763 C 0.85542 0.98054 0.16272 0.0
C764 C 0.92712 0.10844 0.22475 0.0
C765 C 0.91236 0.09402 0.21433 0.0
C766 C 0.89615 0.04123 0.21023 0.0
C767 C 0.86427 0.01498 0.17078 0.0
C768 C 0.87955 0.03022 0.18224 0.0
C769 C 0.92376 0.07441 0.21506 0.0
C770 C 0.90852 0.0592 0.20382 0.0
H771 H 0.81871 0.01132 0.13435 0.0
H772 H 0.84083 0.03597 0.15385 0.0
H773 H 0.87144 0.01351 0.20503 0.0
H774 H 0.98618 0.07989 0.245 0.0
H775 H 0.95944 0.05447 0.22718 0.0
C776 C 0.8635 0.04119 0.66482 0.0
C777 C 0.83772 0.03693 0.65297 0.0
C778 C 0.88165 0.02609 0.67264 0.0
C779 C 0.88871 0.96976 0.67426 0.0
H780 H 0.93943 0.98341 0.7145 0.0
C781 C 0.96625 0.912 0.71246 0.0
C782 C 0.96733 0.91449 0.72991 0.0
C783 C 0.95117 0.92637 0.7023 0.0
C784 C 0.9249 0.97918 0.70345 0.0
H785 H 0.81107 0.01354 0.63961 0.0
H786 H 0.8404 0.98708 0.65388 0.0
H787 H 0.91179 1.00877 0.69913 0.0
H788 H 0.95348 0.93411 0.75035 0.0
H789 H 0.92599 0.9585 0.73292 0.0
H790 H 0.89998 0.93965 0.67991 0.0
C791 C 0.84816 1.00195 0.65705 0.0
C792 C 0.90941 0.99403 0.69413 0.0
C793 C 0.83086 0.0172 0.64879 0.0
C794 C 0.95282 0.93157 0.73697 0.0
C795 C 0.93744 0.94576 0.72689 0.0
C796 C 0.90339 0.9548 0.68394 0.0
C797 C 0.87366 1.00603 0.66942 0.0
C798 C 0.89095 0.98978 0.67924 0.0
C799 C 0.93675 0.94354 0.70939 0.0
C800 C 0.9216 0.95931 0.69872 0.0
H801 H 0.86971 0.05635 0.66807 0.0
H802 H 0.90187 0.0306 0.68122 0.0
H803 H 0.87569 0.96528 0.66291 0.0
H804 H 0.97723 0.89901 0.70661 0.0
H805 H 0.95149 0.92417 0.68889 0.0
C806 C 0.67356 0.4826 0.16403 0.0
C807 C 0.65882 0.48034 0.14805 0.0
C808 C 0.66137 0.49715 0.17504 0.0
C809 C 0.58535 0.53047 0.18171 0.0
H810 H 0.64885 0.55862 0.21117 0.0
C811 C 0.54936 0.60274 0.21557 0.0
C812 C 0.55358 0.60258 0.23303 0.0
C813 C 0.56321 0.58769 0.20566 0.0
C814 C 0.63089 0.55078 0.20303 0.0
H815 H 0.61913 0.4914 0.13132 0.0
H816 H 0.59923 0.51711 0.14997 0.0
H817 H 0.6711 0.53242 0.19301 0.0
H818 H 0.57533 0.58612 0.25372 0.0
H819 H 0.60096 0.5604 0.23622 0.0
H820 H 0.5455 0.54939 0.19132 0.0
C821 C 0.61967 0.50749 0.15428 0.0
C822 C 0.64351 0.53569 0.19271 0.0
C823 C 0.63156 0.49289 0.1434 0.0
C824 C 0.57227 0.58704 0.2403 0.0
C825 C 0.58685 0.57225 0.23032 0.0
C826 C 0.57296 0.54576 0.19176 0.0
C827 C 0.63421 0.5098 0.17029 0.0
C828 C 0.6209 0.52539 0.18182 0.0
C829 C 0.58211 0.57235 0.21295 0.0
C830 C 0.5956 0.55608 0.20246 0.0
H831 H 0.69479 0.47329 0.16797 0.0
H832 H 0.67303 0.49832 0.18732 0.0
H833 H 0.56688 0.52259 0.17388 0.0
H834 H 0.53501 0.61439 0.20953 0.0
H835 H 0.55924 0.58806 0.19226 0.0
C836 C 0.36161 0.49482 0.37634 0.0
C837 C 0.33071 0.48662 0.36975 0.0
C838 C 0.37892 0.51022 0.36802 0.0
C839 C 0.38656 0.53054 0.32541 0.0
H840 H 0.43195 0.57534 0.34669 0.0
C841 C 0.42982 0.59866 0.2887 0.0
C842 C 0.4645 0.60501 0.29068 0.0
C843 C 0.41543 0.58443 0.29924 0.0
C844 C 0.41965 0.56277 0.34065 0.0
H845 H 0.29222 0.48934 0.3501 0.0
H846 H 0.32208 0.51603 0.33573 0.0
H847 H 0.40211 0.55051 0.36393 0.0
H848 H 0.51064 0.60232 0.30611 0.0
H849 H 0.48478 0.57793 0.32512 0.0
H850 H 0.40332 0.54292 0.30218 0.0
C851 C 0.33365 0.51023 0.347 0.0
C852 C 0.40261 0.54857 0.35048 0.0
C853 C 0.31647 0.49493 0.35526 0.0
C854 C 0.48401 0.59745 0.30404 0.0
C855 C 0.46921 0.5836 0.31497 0.0
C856 C 0.40324 0.54473 0.31565 0.0
C857 C 0.3656 0.51769 0.35297 0.0
C858 C 0.38537 0.53245 0.34292 0.0
C859 C 0.43498 0.57669 0.31243 0.0
C860 C 0.41954 0.56112 0.32312 0.0
H861 H 0.37323 0.48875 0.38749 0.0
H862 H 0.40345 0.51568 0.37297 0.0
H863 H 0.37446 0.51803 0.31919 0.0
H864 H 0.41373 0.60445 0.27896 0.0
H865 H 0.38881 0.57956 0.29712 0.0
C866 C 0.13497 0.04124 0.86307 0.0
C867 C 0.16544 0.03861 0.87243 0.0
C868 C 0.12296 0.02638 0.85231 0.0
C869 C 0.1341 0.97264 0.84277 0.0
H870 H 0.08126 0.98623 0.80329 0.0
C871 C 0.09173 0.91535 0.79242 0.0
C872 C 0.05687 0.91652 0.78712 0.0
C873 C 0.10628 0.93017 0.80252 0.0
C874 C 0.09586 0.98221 0.81432 0.0
H875 H 0.20789 0.01874 0.87758 0.0
H876 H 0.1882 0.9932 0.85816 0.0
H877 H 0.105 0.01231 0.82095 0.0
H878 H 0.00991 0.93415 0.7884 0.0
H879 H 0.03529 0.95989 0.80597 0.0
H880 H 0.12552 0.94246 0.8357 0.0
C881 C 0.17261 1.00634 0.85952 0.0
C882 C 0.10935 0.99718 0.82455 0.0
C883 C 0.18416 0.02105 0.87055 0.0
C884 C 0.03689 0.9328 0.79218 0.0
C885 C 0.05146 0.94763 0.80218 0.0
C886 C 0.12107 0.95769 0.83236 0.0
C887 C 0.14158 1.00867 0.85036 0.0
C888 C 0.12837 0.99265 0.83905 0.0
C889 C 0.0863 0.94649 0.80745 0.0
C890 C 0.1015 0.96232 0.81812 0.0
H891 H 0.11982 0.05456 0.86448 0.0
H892 H 0.09859 0.02868 0.84584 0.0
H893 H 0.14796 0.96842 0.85394 0.0
H894 H 0.10775 0.90292 0.7889 0.0
H895 H 0.13327 0.92896 0.80632 0.0
C896 C 0.16473 0.15752 0.02879 0.0
C897 C 0.17515 0.14058 0.01994 0.0
C898 C 0.15104 0.15606 0.04494 0.0
C899 C 0.14825 0.12218 0.08113 0.0
H900 H 0.07907 0.15897 0.09759 0.0
C901 C 0.09822 0.11754 0.1485 0.0
C902 C 0.10067 0.13539 0.15734 0.0
C903 C 0.10015 0.11739 0.13104 0.0
C904 C 0.09835 0.14858 0.09314 0.0
H905 H 0.17871 0.10873 0.02113 0.0
H906 H 0.15365 0.10609 0.04902 0.0
H907 H 0.09678 0.15994 0.06826 0.0
H908 H 0.10526 0.16705 0.15521 0.0
H909 H 0.10822 0.16691 0.12465 0.0
H910 H 0.14992 0.11091 0.106 0.0
C911 C 0.15676 0.1206 0.04363 0.0
C912 C 0.10869 0.14919 0.07636 0.0
C913 C 0.17074 0.12208 0.02751 0.0
C914 C 0.10284 0.15316 0.14854 0.0
C915 C 0.10455 0.15305 0.13108 0.0
C916 C 0.13766 0.12145 0.09782 0.0
C917 C 0.14707 0.13759 0.05264 0.0
C918 C 0.13416 0.13616 0.07019 0.0
C919 C 0.10455 0.1351 0.12219 0.0
C920 C 0.11292 0.13479 0.10407 0.0
H921 H 0.16718 0.172 0.02327 0.0
H922 H 0.14434 0.16951 0.05151 0.0
H923 H 0.16841 0.11218 0.07698 0.0
H924 H 0.09693 0.10367 0.15513 0.0
H925 H 0.09967 0.10336 0.1245 0.0
C926 C 0.31635 0.40769 0.53185 0.0
C927 C 0.31938 0.39268 0.51979 0.0
C928 C 0.32829 0.40493 0.54806 0.0
C929 C 0.38659 0.37347 0.57337 0.0
H930 H 0.34021 0.40101 0.60966 0.0
C931 C 0.40491 0.36428 0.64571 0.0
C932 C 0.40779 0.38212 0.65456 0.0
C933 C 0.40023 0.36436 0.62839 0.0
C934 C 0.35356 0.39337 0.5996 0.0
H935 H 0.33619 0.36259 0.51557 0.0
H936 H 0.35547 0.35737 0.54428 0.0
H937 H 0.31569 0.40208 0.58177 0.0
H938 H 0.41026 0.41387 0.65256 0.0
H939 H 0.40182 0.41408 0.62221 0.0
H940 H 0.4236 0.36408 0.59181 0.0
C941 C 0.34487 0.37156 0.54097 0.0
C942 C 0.33962 0.39402 0.58359 0.0
C943 C 0.3333 0.37445 0.52458 0.0
C944 C 0.40852 0.39998 0.64586 0.0
C945 C 0.40349 0.40008 0.6286 0.0
C946 C 0.40017 0.37248 0.58958 0.0
C947 C 0.34288 0.38689 0.55286 0.0
C948 C 0.35633 0.38447 0.57016 0.0
C949 C 0.39786 0.38232 0.61987 0.0
C950 C 0.38408 0.3828 0.6027 0.0
H951 H 0.30516 0.4218 0.52872 0.0
H952 H 0.32676 0.41723 0.55671 0.0
H953 H 0.40033 0.36604 0.56334 0.0
H954 H 0.40377 0.3504 0.65234 0.0
H955 H 0.39566 0.35053 0.62189 0.0
C956 C 0.6837 0.39684 0.9911 0.0
C957 C 0.67077 0.38283 1.00242 0.0
C958 C 0.67064 0.39756 0.97478 0.0
C959 C 0.62299 0.36519 0.94466 0.0
H960 H 0.62352 0.4119 0.91696 0.0
C961 C 0.57594 0.35978 0.87765 0.0
C962 C 0.60025 0.36656 0.86586 0.0
C963 C 0.57867 0.36556 0.89436 0.0
C964 C 0.62315 0.39878 0.92461 0.0
H965 H 0.63273 0.35956 1.00615 0.0
H966 H 0.60846 0.36147 0.97817 0.0
H967 H 0.63912 0.41467 0.94654 0.0
H968 H 0.64511 0.38548 0.86179 0.0
H969 H 0.65006 0.39568 0.89117 0.0
H970 H 0.60706 0.34932 0.92286 0.0
C971 C 0.62976 0.37133 0.98141 0.0
C972 C 0.6323 0.4003 0.94153 0.0
C973 C 0.64335 0.37032 0.99753 0.0
C974 C 0.62584 0.38031 0.87072 0.0
C975 C 0.62863 0.38611 0.8875 0.0
C976 C 0.61341 0.36375 0.92793 0.0
C977 C 0.64397 0.38447 0.96959 0.0
C978 C 0.63256 0.38346 0.95177 0.0
C979 C 0.60597 0.37809 0.89958 0.0
C980 C 0.61358 0.38045 0.91767 0.0
H981 H 0.70496 0.4066 0.99465 0.0
H982 H 0.68251 0.40779 0.96608 0.0
H983 H 0.62387 0.35173 0.95184 0.0
H984 H 0.55618 0.34904 0.87411 0.0
H985 H 0.56056 0.35935 0.90337 0.0
C986 C 0.8318 0.14509 0.49748 0.0
C987 C 0.82508 0.12585 0.50307 0.0
C988 C 0.84386 0.14838 0.48122 0.0
C989 C 0.88531 0.12255 0.44501 0.0
H990 H 0.85617 0.16925 0.42133 0.0
C991 C 0.90054 0.13692 0.37336 0.0
C992 C 0.90825 0.15645 0.36886 0.0
C993 C 0.89629 0.13198 0.39025 0.0
C994 C 0.8649 0.15625 0.42786 0.0
H995 H 0.8243 0.09502 0.49572 0.0
H996 H 0.84456 0.10075 0.46731 0.0
H997 H 0.83426 0.16327 0.44935 0.0
H998 H 0.92104 0.1856 0.37824 0.0
H999 H 0.914 0.177 0.40761 0.0
H1000 H 0.91502 0.11534 0.42303 0.0
C1001 C 0.84161 0.1133 0.4756 0.0
C1002 C 0.85238 0.15282 0.44398 0.0
C1003 C 0.82979 0.11002 0.49189 0.0
C1004 C 0.91498 0.17045 0.38145 0.0
C1005 C 0.91065 0.16558 0.39822 0.0
C1006 C 0.8975 0.12588 0.42874 0.0
C1007 C 0.84918 0.1325 0.47009 0.0
C1008 C 0.8625 0.13598 0.45283 0.0
C1009 C 0.8996 0.14657 0.40274 0.0
C1010 C 0.88758 0.14284 0.42008 0.0
H1011 H 0.82884 0.15758 0.50584 0.0
H1012 H 0.84983 0.16336 0.47754 0.0
H1013 H 0.89413 0.10957 0.45151 0.0
H1014 H 0.89494 0.12593 0.36384 0.0
H1015 H 0.88783 0.11719 0.39343 0.0
C1016 C 0.80662 0.87615 0.98541 0.0
C1017 C 0.82394 0.88471 0.99916 0.0
C1018 C 0.82246 0.87552 0.9697 0.0
C1019 C 0.89031 0.89826 0.94353 0.0
H1020 H 0.88256 0.84923 0.91858 0.0
C1021 C 0.94408 0.89337 0.8768 0.0
C1022 C 0.92087 0.88488 0.86526 0.0
C1023 C 0.9392 0.89047 0.89395 0.0
C1024 C 0.88488 0.86306 0.92532 0.0
H1025 H 0.87114 0.90009 1.00688 0.0
H1026 H 0.8985 0.89935 0.97924 0.0
H1027 H 0.85861 0.85135 0.94675 0.0
H1028 H 0.8757 0.86596 0.86226 0.0
H1029 H 0.86686 0.86087 0.89206 0.0
H1030 H 0.9153 0.91027 0.92192 0.0
C1031 C 0.8727 0.89297 0.98076 0.0
C1032 C 0.87112 0.86428 0.94147 0.0
C1033 C 0.85692 0.89347 0.99658 0.0
C1034 C 0.89437 0.87225 0.87097 0.0
C1035 C 0.8893 0.86944 0.88809 0.0
C1036 C 0.90384 0.89711 0.9273 0.0
C1037 C 0.85591 0.8836 0.96725 0.0
C1038 C 0.87305 0.882 0.95063 0.0
C1039 C 0.9107 0.87924 0.89983 0.0
C1040 C 0.9007 0.87959 0.91785 0.0
H1041 H 0.78081 0.86975 0.98679 0.0
H1042 H 0.80845 0.86867 0.95943 0.0
H1043 H 0.89207 0.91214 0.95024 0.0
H1044 H 0.96432 0.90345 0.87262 0.0
H1045 H 0.95662 0.89791 0.9026 0.0
C1046 C 0.69781 0.64434 0.49307 0.0
C1047 C 0.67962 0.63125 0.50358 0.0
C1048 C 0.68649 0.64744 0.47666 0.0
C1049 C 0.63246 0.62323 0.44403 0.0
H1050 H 0.63892 0.67376 0.42179 0.0
C1051 C 0.58173 0.63041 0.37775 0.0
C1052 C 0.60583 0.63865 0.36653 0.0
C1053 C 0.58592 0.63317 0.39494 0.0
C1054 C 0.63695 0.65957 0.42786 0.0
H1055 H 0.63429 0.61206 0.50547 0.0
H1056 H 0.61432 0.61766 0.47716 0.0
H1057 H 0.65722 0.67096 0.45097 0.0
H1058 H 0.65175 0.65713 0.36414 0.0
H1059 H 0.65904 0.66218 0.39421 0.0
H1060 H 0.61269 0.61172 0.42105 0.0
C1061 C 0.63791 0.62508 0.48129 0.0
C1062 C 0.64761 0.65793 0.44454 0.0
C1063 C 0.64933 0.62189 0.49756 0.0
C1064 C 0.63245 0.65102 0.37262 0.0
C1065 C 0.63668 0.6538 0.38983 0.0
C1066 C 0.62169 0.62488 0.42749 0.0
C1067 C 0.65663 0.63762 0.47051 0.0
C1068 C 0.64544 0.63971 0.45282 0.0
C1069 C 0.61448 0.64407 0.40119 0.0
C1070 C 0.62375 0.64305 0.41918 0.0
H1071 H 0.72131 0.65171 0.49738 0.0
H1072 H 0.70169 0.65708 0.46866 0.0
H1073 H 0.63126 0.60884 0.44982 0.0
H1074 H 0.56143 0.62051 0.37329 0.0
H1075 H 0.56805 0.62575 0.40338 0.0
C1076 C 0.30718 0.64271 0.0349 0.0
C1077 C 0.32609 0.63531 0.02119 0.0
C1078 C 0.32131 0.64253 0.05093 0.0
C1079 C 0.38929 0.62152 0.07799 0.0
H1080 H 0.37835 0.6712 0.10156 0.0
C1081 C 0.41015 0.6352 0.14954 0.0
C1082 C 0.42267 0.65395 0.15415 0.0
C1083 C 0.40535 0.63043 0.1326 0.0
C1084 C 0.38206 0.65729 0.09511 0.0
H1085 H 0.37406 0.62087 0.0138 0.0
H1086 H 0.3988 0.62047 0.04201 0.0
H1087 H 0.35446 0.66733 0.07371 0.0
H1088 H 0.44295 0.68169 0.14496 0.0
H1089 H 0.43533 0.67333 0.11552 0.0
H1090 H 0.41687 0.61158 0.09972 0.0
C1091 C 0.37296 0.62644 0.04023 0.0
C1092 C 0.3679 0.65498 0.07921 0.0
C1093 C 0.35878 0.62667 0.02409 0.0
C1094 C 0.43347 0.66709 0.14166 0.0
C1095 C 0.42871 0.66237 0.12483 0.0
C1096 C 0.40332 0.6238 0.09409 0.0
C1097 C 0.35473 0.63488 0.05373 0.0
C1098 C 0.37101 0.63705 0.0705 0.0
C1099 C 0.41288 0.64443 0.12015 0.0
C1100 C 0.39983 0.64175 0.1028 0.0
H1101 H 0.28155 0.64899 0.0332 0.0
H1102 H 0.30624 0.64871 0.06113 0.0
H1103 H 0.39206 0.60752 0.07158 0.0
H1104 H 0.40121 0.62495 0.15899 0.0
H1105 H 0.39307 0.6165 0.12936 0.0
C1106 C 0.1963 0.8799 0.52802 0.0
C1107 C 0.17621 0.89156 0.51735 0.0
C1108 C 0.18618 0.87716 0.54466 0.0
C1109 C 0.1286 0.8979 0.57789 0.0
H1110 H 0.14387 0.84703 0.59824 0.0
C1111 C 0.11654 0.88258 0.64914 0.0
C1112 C 0.10614 0.86354 0.65386 0.0
C1113 C 0.12004 0.88728 0.63217 0.0
C1114 C 0.13891 0.86126 0.5927 0.0
H1115 H 0.12932 0.90909 0.51559 0.0
H1116 H 0.11128 0.904 0.54443 0.0
H1117 H 0.16088 0.8522 0.56938 0.0
H1118 H 0.08844 0.83504 0.64492 0.0
H1119 H 0.09324 0.84335 0.6154 0.0
H1120 H 0.10585 0.90674 0.60125 0.0
C1121 C 0.13537 0.8974 0.54017 0.0
C1122 C 0.14927 0.86433 0.57619 0.0
C1123 C 0.14563 0.90026 0.5236 0.0
C1124 C 0.0964 0.84984 0.6415 0.0
C1125 C 0.09966 0.85454 0.62463 0.0
C1126 C 0.11804 0.89478 0.59443 0.0
C1127 C 0.15553 0.88586 0.55094 0.0
C1128 C 0.14438 0.8827 0.56857 0.0
C1129 C 0.11312 0.87297 0.61976 0.0
C1130 C 0.12303 0.8764 0.60202 0.0
H1131 H 0.22019 0.87321 0.5236 0.0
H1132 H 0.20269 0.86844 0.55265 0.0
H1133 H 0.12478 0.91232 0.5725 0.0
H1134 H 0.12461 0.89327 0.6585 0.0
H1135 H 0.13049 0.90162 0.62885 0.0
C1136 C 0.12598 0.30064 0.37933 0.0
C1137 C 0.15944 0.30864 0.37663 0.0
C1138 C 0.11238 0.28621 0.36856 0.0
C1139 C 0.12651 0.26265 0.32659 0.0
H1140 H 0.06601 0.22218 0.34509 0.0
C1141 C 0.08361 0.19209 0.29009 0.0
C1142 C 0.04757 0.18804 0.29034 0.0
C1143 C 0.09787 0.20681 0.30043 0.0
C1144 C 0.08278 0.23344 0.33974 0.0
H1145 H 0.20491 0.30766 0.36051 0.0
H1146 H 0.18175 0.28222 0.34199 0.0
H1147 H 0.08955 0.24782 0.36333 0.0
H1148 H 0.99856 0.1958 0.3023 0.0
H1149 H 0.0236 0.22095 0.32056 0.0
H1150 H 0.12031 0.2477 0.30306 0.0
C1151 C 0.16544 0.28739 0.35214 0.0
C1152 C 0.09613 0.24827 0.35017 0.0
C1153 C 0.17885 0.302 0.36281 0.0
C1154 C 0.02637 0.19864 0.30156 0.0
C1155 C 0.0407 0.21301 0.31212 0.0
C1156 C 0.11359 0.2476 0.31622 0.0
C1157 C 0.13206 0.27918 0.3549 0.0
C1158 C 0.11803 0.26321 0.34375 0.0
C1159 C 0.07654 0.21738 0.31158 0.0
C1160 C 0.09139 0.23293 0.32267 0.0
H1161 H 0.11016 0.30562 0.38975 0.0
H1162 H 0.08628 0.28068 0.37094 0.0
H1163 H 0.14268 0.27402 0.32103 0.0
H1164 H 0.10086 0.18396 0.28195 0.0
H1165 H 0.12568 0.20971 0.2999 0.0
C1166 C 0.33183 0.2156 0.85251 0.0
C1167 C 0.33766 0.21347 0.86973 0.0
C1168 C 0.34773 0.23084 0.84361 0.0
C1169 C 0.39248 0.27921 0.84775 0.0
H1170 H 0.42583 0.26586 0.80332 0.0
C1171 C 0.46907 0.33484 0.80617 0.0
C1172 C 0.46127 0.33472 0.78899 0.0
C1173 C 0.45556 0.32022 0.81672 0.0
C1174 C 0.41636 0.26995 0.81561 0.0
H1175 H 0.36401 0.22605 0.89125 0.0
H1176 H 0.3924 0.25276 0.87557 0.0
H1177 H 0.39934 0.24051 0.82059 0.0
H1178 H 0.43353 0.31887 0.76949 0.0
H1179 H 0.40914 0.29391 0.7878 0.0
H1180 H 0.40947 0.30875 0.84264 0.0
C1181 C 0.3752 0.24265 0.869 0.0
C1182 C 0.40113 0.25537 0.82555 0.0
C1183 C 0.359 0.22736 0.87799 0.0
C1184 C 0.43984 0.31958 0.78262 0.0
C1185 C 0.42615 0.30508 0.79315 0.0
C1186 C 0.40776 0.29386 0.83776 0.0
C1187 C 0.37017 0.24436 0.85162 0.0
C1188 C 0.38843 0.25984 0.84164 0.0
C1189 C 0.43389 0.30514 0.81034 0.0
C1190 C 0.4194 0.28947 0.82145 0.0
H1191 H 0.31489 0.2054 0.84587 0.0
H1192 H 0.34238 0.232 0.83036 0.0
H1193 H 0.38288 0.2832 0.86004 0.0
H1194 H 0.48578 0.34617 0.8115 0.0
H1195 H 0.46252 0.32061 0.82982 0.0
C1196 C 0.63626 0.2246 0.64154 0.0
C1197 C 0.66389 0.21245 0.64653 0.0
C1198 C 0.62204 0.2385 0.65254 0.0
C1199 C 0.64034 0.26509 0.69279 0.0
H1200 H 0.54263 0.27873 0.68921 0.0
C1201 C 0.56598 0.31441 0.74089 0.0
C1202 C 0.5479 0.33027 0.73381 0.0
C1203 C 0.58045 0.29969 0.73069 0.0
C1204 C 0.56999 0.27508 0.69032 0.0
H1205 H 0.69797 0.20555 0.66727 0.0
H1206 H 0.67208 0.22896 0.68665 0.0
H1207 H 0.56665 0.2534 0.67093 0.0
H1208 H 0.52995 0.34256 0.71034 0.0
H1209 H 0.55388 0.31655 0.69279 0.0
H1210 H 0.64301 0.28652 0.71261 0.0
C1211 C 0.66191 0.22816 0.67406 0.0
C1212 C 0.58393 0.26064 0.67975 0.0
C1213 C 0.67645 0.21441 0.66297 0.0
C1214 C 0.54383 0.33069 0.71632 0.0
C1215 C 0.55748 0.31576 0.7062 0.0
C1216 C 0.62618 0.27928 0.70358 0.0
C1217 C 0.63459 0.24052 0.66899 0.0
C1218 C 0.61943 0.25553 0.68069 0.0
C1219 C 0.57617 0.30019 0.71325 0.0
C1220 C 0.59094 0.28454 0.70234 0.0
H1221 H 0.62542 0.2234 0.62909 0.0
H1222 H 0.60148 0.24787 0.64796 0.0
H1223 H 0.66789 0.26195 0.69376 0.0
H1224 H 0.56895 0.31328 0.7543 0.0
H1225 H 0.59444 0.28771 0.73645 0.0
C1226 C 0.85272 0.29242 0.1451 0.0
C1227 C 0.83377 0.30732 0.15325 0.0
C1228 C 0.86777 0.27713 0.15429 0.0
C1229 C 0.86189 0.25242 0.19566 0.0
H1230 H 0.95485 0.23396 0.18509 0.0
C1231 C 0.94002 0.20407 0.24099 0.0
C1232 C 0.9576 0.18783 0.23408 0.0
C1233 C 0.92497 0.21817 0.23063 0.0
C1234 C 0.92873 0.23885 0.1881 0.0
H1235 H 0.81492 0.31749 0.17737 0.0
H1236 H 0.84151 0.29133 0.1933 0.0
H1237 H 0.92807 0.25907 0.16762 0.0
H1238 H 0.97384 0.17401 0.2108 0.0
H1239 H 0.94788 0.19872 0.19281 0.0
H1240 H 0.86275 0.23247 0.21627 0.0
C1241 C 0.84468 0.29122 0.17984 0.0
C1242 C 0.91333 0.25319 0.17806 0.0
C1243 C 0.82977 0.30642 0.17071 0.0
C1244 C 0.96038 0.18627 0.21658 0.0
C1245 C 0.94564 0.20048 0.20623 0.0
C1246 C 0.87734 0.23822 0.20573 0.0
C1247 C 0.8639 0.27636 0.1718 0.0
C1248 C 0.87981 0.2603 0.18181 0.0
C1249 C 0.92753 0.21651 0.21313 0.0
C1250 C 0.91103 0.23136 0.20215 0.0
H1251 H 0.85637 0.29275 0.13167 0.0
H1252 H 0.88216 0.26583 0.14767 0.0
H1253 H 0.83574 0.25719 0.19873 0.0
H1254 H 0.93794 0.20597 0.2544 0.0
H1255 H 0.91167 0.23054 0.23634 0.0
C1256 C 0.86858 0.70814 0.6579 0.0
C1257 C 0.84663 0.71423 0.64491 0.0
C1258 C 0.88431 0.72203 0.66857 0.0
C1259 C 0.90388 0.77611 0.67218 0.0
H1260 H 0.91821 0.76356 0.71888 0.0
C1261 C 0.93742 0.8347 0.72266 0.0
C1262 C 0.96706 0.83063 0.73227 0.0
C1263 C 0.92315 0.82023 0.71213 0.0
C1264 C 0.91447 0.7672 0.70584 0.0
H1265 H 0.82327 0.73965 0.63323 0.0
H1266 H 0.84967 0.7637 0.65195 0.0
H1267 H 0.89268 0.73884 0.7002 0.0
H1268 H 0.00409 0.8081 0.73906 0.0
H1269 H 0.97832 0.78256 0.72107 0.0
H1270 H 0.92465 0.80474 0.6781 0.0
C1271 C 0.85585 0.74831 0.65368 0.0
C1272 C 0.90006 0.75301 0.69507 0.0
C1273 C 0.8405 0.73448 0.64294 0.0
C1274 C 0.98143 0.81165 0.73163 0.0
C1275 C 0.96663 0.79705 0.72143 0.0
C1276 C 0.9177 0.79038 0.68302 0.0
C1277 C 0.87814 0.74234 0.66663 0.0
C1278 C 0.89442 0.75726 0.67808 0.0
C1279 C 0.93768 0.80128 0.71139 0.0
C1280 C 0.92305 0.78608 0.69995 0.0
H1281 H 0.87413 0.69266 0.65963 0.0
H1282 H 0.90171 0.7168 0.67818 0.0
H1283 H 0.90088 0.77987 0.65913 0.0
H1284 H 0.92586 0.84922 0.72295 0.0
H1285 H 0.90068 0.82381 0.70458 0.0
C1286 C 0.68402 0.7906 0.14867 0.0
C1287 C 0.66758 0.80904 0.14854 0.0
C1288 C 0.66998 0.77497 0.158 0.0
C1289 C 0.60884 0.76633 0.1937 0.0
H1290 H 0.61921 0.71132 0.18144 0.0
C1291 C 0.53595 0.70394 0.22797 0.0
C1292 C 0.55533 0.68732 0.23255 0.0
C1293 C 0.55033 0.71825 0.21747 0.0
C1294 C 0.6164 0.72664 0.18506 0.0
H1295 H 0.62216 0.82507 0.15707 0.0
H1296 H 0.59715 0.79786 0.17277 0.0
H1297 H 0.64133 0.73695 0.16272 0.0
H1298 H 0.60509 0.67269 0.22958 0.0
H1299 H 0.63018 0.69776 0.21106 0.0
H1300 H 0.58316 0.756 0.21581 0.0
C1301 C 0.62163 0.79554 0.16631 0.0
C1302 C 0.62913 0.74136 0.17436 0.0
C1303 C 0.63584 0.81117 0.15717 0.0
C1304 C 0.5895 0.68534 0.22634 0.0
C1305 C 0.60379 0.69961 0.21565 0.0
C1306 C 0.59576 0.75167 0.20424 0.0
C1307 C 0.63897 0.77737 0.16728 0.0
C1308 C 0.62541 0.76145 0.1785 0.0
C1309 C 0.58435 0.71624 0.21115 0.0
C1310 C 0.5993 0.73167 0.20004 0.0
H1311 H 0.7086 0.78852 0.14221 0.0
H1312 H 0.68427 0.76129 0.15845 0.0
H1313 H 0.60627 0.78154 0.19766 0.0
H1314 H 0.50958 0.70597 0.23252 0.0
H1315 H 0.53461 0.73081 0.21413 0.0
C1316 C 0.32885 0.78556 0.3746 0.0
C1317 C 0.34145 0.80501 0.3754 0.0
C1318 C 0.34433 0.77177 0.36396 0.0
C1319 C 0.40663 0.76709 0.32794 0.0
H1320 H 0.40408 0.71231 0.34131 0.0
C1321 C 0.45144 0.70488 0.28326 0.0
C1322 C 0.46594 0.68778 0.29011 0.0
C1323 C 0.43697 0.71937 0.2936 0.0
C1324 C 0.40565 0.72754 0.33742 0.0
H1325 H 0.38016 0.82536 0.36571 0.0
H1326 H 0.40843 0.80113 0.34762 0.0
H1327 H 0.3796 0.73707 0.35955 0.0
H1328 H 0.47774 0.67289 0.31331 0.0
H1329 H 0.45423 0.69844 0.33132 0.0
H1330 H 0.43477 0.75761 0.30628 0.0
C1331 C 0.38584 0.79654 0.3548 0.0
C1332 C 0.39081 0.74183 0.3478 0.0
C1333 C 0.3698 0.81047 0.36523 0.0
C1334 C 0.46642 0.68576 0.30758 0.0
C1335 C 0.45256 0.70041 0.31793 0.0
C1336 C 0.42219 0.75282 0.3177 0.0
C1337 C 0.37342 0.77692 0.35405 0.0
C1338 C 0.3906 0.76182 0.34315 0.0
C1339 C 0.43733 0.71738 0.31111 0.0
C1340 C 0.42164 0.73278 0.32221 0.0
H1341 H 0.30671 0.78103 0.38215 0.0
H1342 H 0.33312 0.75709 0.36347 0.0
H1343 H 0.40682 0.78222 0.32372 0.0
H1344 H 0.45131 0.70715 0.26987 0.0
H1345 H 0.42515 0.73202 0.28777 0.0
C1346 C 0.18269 0.73132 0.87372 0.0
C1347 C 0.17214 0.71174 0.87058 0.0
C1348 C 0.16746 0.74697 0.86506 0.0
C1349 C 0.09179 0.75898 0.8372 0.0
H1350 H 0.15085 0.80287 0.82391 0.0
C1351 C 0.05664 0.81272 0.78411 0.0
C1352 C 0.05709 0.83276 0.78858 0.0
C1353 C 0.07042 0.79864 0.79489 0.0
C1354 C 0.13406 0.79074 0.82763 0.0
H1355 H 0.13581 0.6935 0.85647 0.0
H1356 H 0.1107 0.72034 0.84096 0.0
H1357 H 0.17449 0.77715 0.84175 0.0
H1358 H 0.0733 0.85399 0.80735 0.0
H1359 H 0.09897 0.82936 0.82595 0.0
H1360 H 0.05193 0.77226 0.82237 0.0
C1361 C 0.13029 0.72386 0.85025 0.0
C1362 C 0.14745 0.77604 0.83797 0.0
C1363 C 0.14518 0.70832 0.85901 0.0
C1364 C 0.0725 0.83858 0.80373 0.0
C1365 C 0.08724 0.82455 0.8143 0.0
C1366 C 0.07868 0.77345 0.82661 0.0
C1367 C 0.1414 0.74343 0.85298 0.0
C1368 C 0.12659 0.75982 0.84281 0.0
C1369 C 0.08584 0.80442 0.81009 0.0
C1370 C 0.09973 0.7894 0.82165 0.0
H1371 H 0.20346 0.73454 0.88248 0.0
H1372 H 0.17635 0.76182 0.86778 0.0
H1373 H 0.07449 0.7471 0.84094 0.0
H1374 H 0.04467 0.80791 0.77251 0.0
H1375 H 0.06914 0.78322 0.79135 0.0
loop_
_geom_bond_atom_site_label_1
_geom_bond_atom_site_label_2
_geom_bond_distance
_geom_bond_site_symmetry_2
_ccdc_geom_bond_type
C0 C1 1.264 . S
C0 C5 1.479 . S
C0 C10 1.465 . S
C1 C0 1.264 . S
C1 C3 1.339 . S
C1 H28 0.931 . S
C2 C3 1.395 . S
C2 C4 1.320 . S
C3 C1 1.339 . S
C3 C2 1.395 . S
C3 H29 0.929 . S
C4 C2 1.320 . S
C4 C5 1.405 . S
C4 H30 0.930 . S
C5 C0 1.479 . S
C5 C4 1.405 . S
C5 H31 0.931 . S
U6 O7 2.454 . S
U6 O8 2.458 . S
U6 C9 2.984 . S
U6 C10 2.847 . S
U6 C23 2.882 . S
U6 O24 2.441 . S
U6 O25 2.420 . S
U6 O26 2.455 . S
U6 O27 2.449 . S
O7 U6 2.454 . S
O7 C9 1.353 . S
O8 U6 2.458 . S
O8 C9 1.286 . S
C9 U6 2.984 . S
C9 O7 1.353 . S
C9 O8 1.286 . S
C9 C11 1.363 . S
C10 C0 1.465 . S
C10 U6 2.847 . S
C10 O24 1.249 . S
C10 O25 1.202 . S
C11 C9 1.363 . S
C11 C13 1.408 . S
C11 C16 1.342 . S
C12 C13 1.310 . S
C12 C15 1.461 . S
C12 H32 0.932 . S
C13 C11 1.408 . S
C13 C12 1.310 . S
C13 H33 0.930 . S
C14 C15 1.474 . S
C14 C16 1.285 . S
C14 H34 0.929 . S
C15 C12 1.461 . S
C15 C14 1.474 . S
C16 C11 1.342 . S
C16 C14 1.285 . S
C16 H35 0.930 . S
C17 C20 1.424 . S
C17 C22 1.245 . S
C17 C23 1.428 . S
C18 C21 1.260 . S
C18 C22 1.477 . S
C18 H36 0.932 . S
C19 C20 1.384 . S
C19 C21 1.479 . S
C19 H37 0.929 . S
C20 C17 1.424 . S
C20 C19 1.384 . S
C20 H38 0.928 . S
C21 C18 1.260 . S
C21 C19 1.479 . S
C22 C17 1.245 . S
C22 C18 1.477 . S
C22 H39 0.932 . S
C23 U6 2.882 . S
C23 C17 1.428 . S
C23 O26 1.301 . S
C23 O27 1.282 . S
O24 U6 2.441 . S
O24 C10 1.249 . S
O25 U6 2.420 . S
O25 C10 1.202 . S
O26 U6 2.455 . S
O26 C23 1.301 . S
O27 U6 2.449 . S
O27 C23 1.282 . S
H28 C1 0.931 . S
H29 C3 0.929 . S
H30 C4 0.930 . S
H31 C5 0.931 . S
H32 C12 0.932 . S
H33 C13 0.930 . S
H34 C14 0.929 . S
H35 C16 0.930 . S
H36 C18 0.932 . S
H37 C19 0.929 . S
H38 C20 0.928 . S
H39 C22 0.932 . S
C40 C41 1.264 . S
C40 C45 1.479 . S
C40 C50 1.465 . S
C41 C40 1.264 . S
C41 C43 1.339 . S
C41 H68 0.931 . S
C42 C43 1.395 . S
C42 C44 1.320 . S
C43 C41 1.339 . S
C43 C42 1.395 . S
C43 H69 0.929 . S
C44 C42 1.320 . S
C44 C45 1.405 . S
C44 H70 0.930 . S
C45 C40 1.479 . S
C45 C44 1.405 . S
C45 H71 0.931 . S
U46 O47 2.454 . S
U46 O48 2.458 . S
U46 C49 2.984 . S
U46 C50 2.847 . S
U46 C63 2.882 . S
U46 O64 2.441 . S
U46 O65 2.420 . S
U46 O66 2.455 . S
U46 O67 2.449 . S
O47 U46 2.454 . S
O47 C49 1.353 . S
O48 U46 2.458 . S
O48 C49 1.286 . S
C49 U46 2.984 . S
C49 O47 1.353 . S
C49 O48 1.286 . S
C49 C51 1.363 . S
C50 C40 1.465 . S
C50 U46 2.847 . S
C50 O64 1.249 . S
C50 O65 1.202 . S
C51 C49 1.363 . S
C51 C53 1.408 . S
C51 C56 1.342 . S
C52 C53 1.310 . S
C52 C55 1.461 . S
C52 H72 0.932 . S
C53 C51 1.408 . S
C53 C52 1.310 . S
C53 H73 0.930 . S
C54 C55 1.474 . S
C54 C56 1.285 . S
C54 H74 0.929 . S
C55 C52 1.461 . S
C55 C54 1.474 . S
C56 C51 1.342 . S
C56 C54 1.285 . S
C56 H75 0.930 . S
C57 C60 1.424 . S
C57 C62 1.245 . S
C57 C63 1.428 . S
C58 C61 1.260 . S
C58 C62 1.477 . S
C58 H76 0.932 . S
C59 C60 1.384 . S
C59 C61 1.479 . S
C59 H77 0.929 . S
C60 C57 1.424 . S
C60 C59 1.384 . S
C60 H78 0.928 . S
C61 C58 1.260 . S
C61 C59 1.479 . S
C62 C57 1.245 . S
C62 C58 1.477 . S
C62 H79 0.932 . S
C63 U46 2.882 . S
C63 C57 1.428 . S
C63 O66 1.301 . S
C63 O67 1.282 . S
O64 U46 2.441 . S
O64 C50 1.249 . S
O65 U46 2.420 . S
O65 C50 1.202 . S
O66 U46 2.455 . S
O66 C63 1.301 . S
O67 U46 2.449 . S
O67 C63 1.282 . S
H68 C41 0.931 . S
H69 C43 0.929 . S
H70 C44 0.930 . S
H71 C45 0.931 . S
H72 C52 0.932 . S
H73 C53 0.930 . S
H74 C54 0.929 . S
H75 C56 0.930 . S
H76 C58 0.932 . S
H77 C59 0.929 . S
H78 C60 0.928 . S
H79 C62 0.932 . S
C80 C81 1.264 . S
C80 C85 1.479 . S
C80 C90 1.465 . S
C81 C80 1.264 . S
C81 C83 1.339 . S
C81 H108 0.931 . S
C82 C83 1.395 . S
C82 C84 1.320 . S
C83 C81 1.339 . S
C83 C82 1.395 . S
C83 H109 0.929 . S
C84 C82 1.320 . S
C84 C85 1.405 . S
C84 H110 0.930 . S
C85 C80 1.479 . S
C85 C84 1.405 . S
C85 H111 0.931 . S
U86 O87 2.454 . S
U86 O88 2.458 . S
U86 C89 2.984 . S
U86 C90 2.847 . S
U86 C103 2.882 . S
U86 O104 2.441 . S
U86 O105 2.420 . S
U86 O106 2.455 . S
U86 O107 2.449 . S
O87 U86 2.454 . S
O87 C89 1.353 . S
O88 U86 2.458 . S
O88 C89 1.286 . S
C89 U86 2.984 . S
C89 O87 1.353 . S
C89 O88 1.286 . S
C89 C91 1.363 . S
C90 C80 1.465 . S
C90 U86 2.847 . S
C90 O104 1.249 . S
C90 O105 1.202 . S
C91 C89 1.363 . S
C91 C93 1.408 . S
C91 C96 1.342 . S
C92 C93 1.310 . S
C92 C95 1.461 . S
C92 H112 0.932 . S
C93 C91 1.408 . S
C93 C92 1.310 . S
C93 H113 0.930 . S
C94 C95 1.474 . S
C94 C96 1.285 . S
C94 H114 0.929 . S
C95 C92 1.461 . S
C95 C94 1.474 . S
C96 C91 1.342 . S
C96 C94 1.285 . S
C96 H115 0.930 . S
C97 C100 1.424 . S
C97 C102 1.245 . S
C97 C103 1.428 . S
C98 C101 1.260 . S
C98 C102 1.477 . S
C98 H116 0.932 . S
C99 C100 1.384 . S
C99 C101 1.479 . S
C99 H117 0.929 . S
C100 C97 1.424 . S
C100 C99 1.384 . S
C100 H118 0.928 . S
C101 C98 1.260 . S
C101 C99 1.479 . S
C102 C97 1.245 . S
C102 C98 1.477 . S
C102 H119 0.932 . S
C103 U86 2.882 . S
C103 C97 1.428 . S
C103 O106 1.301 . S
C103 O107 1.282 . S
O104 U86 2.441 . S
O104 C90 1.249 . S
O105 U86 2.420 . S
O105 C90 1.202 . S
O106 U86 2.455 . S
O106 C103 1.301 . S
O107 U86 2.449 . S
O107 C103 1.282 . S
H108 C81 0.931 . S
H109 C83 0.929 . S
H110 C84 0.930 . S
H111 C85 0.931 . S
H112 C92 0.932 . S
H113 C93 0.930 . S
H114 C94 0.929 . S
H115 C96 0.930 . S
H116 C98 0.932 . S
H117 C99 0.929 . S
H118 C100 0.928 . S
H119 C102 0.932 . S
C120 C121 1.264 . S
C120 C125 1.479 . S
C120 C130 1.465 . S
C121 C120 1.264 . S
C121 C123 1.339 . S
C121 H148 0.931 . S
C122 C123 1.395 . S
C122 C124 1.320 . S
C123 C121 1.339 . S
C123 C122 1.395 . S
C123 H149 0.929 . S
C124 C122 1.320 . S
C124 C125 1.405 . S
C124 H150 0.930 . S
C125 C120 1.479 . S
C125 C124 1.405 . S
C125 H151 0.931 . S
U126 O127 2.454 . S
U126 O128 2.458 . S
U126 C129 2.984 . S
U126 C130 2.847 . S
U126 C143 2.882 . S
U126 O144 2.441 . S
U126 O145 2.420 . S
U126 O146 2.455 . S
U126 O147 2.449 . S
O127 U126 2.454 . S
O127 C129 1.353 . S
O128 U126 2.458 . S
O128 C129 1.286 . S
C129 U126 2.984 . S
C129 O127 1.353 . S
C129 O128 1.286 . S
C129 C131 1.363 . S
C130 C120 1.465 . S
C130 U126 2.847 . S
C130 O144 1.249 . S
C130 O145 1.202 . S
C131 C129 1.363 . S
C131 C133 1.408 . S
C131 C136 1.342 . S
C132 C133 1.310 . S
C132 C135 1.461 . S
C132 H152 0.932 . S
C133 C131 1.408 . S
C133 C132 1.310 . S
C133 H153 0.930 . S
C134 C135 1.474 . S
C134 C136 1.285 . S
C134 H154 0.929 . S
C135 C132 1.461 . S
C135 C134 1.474 . S
C136 C131 1.342 . S
C136 C134 1.285 . S
C136 H155 0.930 . S
C137 C140 1.424 . S
C137 C142 1.245 . S
C137 C143 1.428 . S
C138 C141 1.260 . S
C138 C142 1.477 . S
C138 H156 0.932 . S
C139 C140 1.384 . S
C139 C141 1.479 . S
C139 H157 0.929 . S
C140 C137 1.424 . S
C140 C139 1.384 . S
C140 H158 0.928 . S
C141 C138 1.260 . S
C141 C139 1.479 . S
C142 C137 1.245 . S
C142 C138 1.477 . S
C142 H159 0.932 . S
C143 U126 2.882 . S
C143 C137 1.428 . S
C143 O146 1.301 . S
C143 O147 1.282 . S
O144 U126 2.441 . S
O144 C130 1.249 . S
O145 U126 2.420 . S
O145 C130 1.202 . S
O146 U126 2.455 . S
O146 C143 1.301 . S
O147 U126 2.449 . S
O147 C143 1.282 . S
H148 C121 0.931 . S
H149 C123 0.929 . S
H150 C124 0.930 . S
H151 C125 0.931 . S
H152 C132 0.932 . S
H153 C133 0.930 . S
H154 C134 0.929 . S
H155 C136 0.930 . S
H156 C138 0.932 . S
H157 C139 0.929 . S
H158 C140 0.928 . S
H159 C142 0.932 . S
C160 C161 1.264 . S
C160 C165 1.479 . S
C160 C170 1.465 . S
C161 C160 1.264 . S
C161 C163 1.339 . S
C161 H188 0.931 . S
C162 C163 1.395 . S
C162 C164 1.320 . S
C163 C161 1.339 . S
C163 C162 1.395 . S
C163 H189 0.929 . S
C164 C162 1.320 . S
C164 C165 1.405 . S
C164 H190 0.930 . S
C165 C160 1.479 . S
C165 C164 1.405 . S
C165 H191 0.931 . S
U166 O167 2.454 . S
U166 O168 2.458 . S
U166 C169 2.984 . S
U166 C170 2.847 . S
U166 C183 2.882 . S
U166 O184 2.441 . S
U166 O185 2.420 . S
U166 O186 2.455 . S
U166 O187 2.449 . S
O167 U166 2.454 . S
O167 C169 1.353 . S
O168 U166 2.458 . S
O168 C169 1.286 . S
C169 U166 2.984 . S
C169 O167 1.353 . S
C169 O168 1.286 . S
C169 C171 1.363 . S
C170 C160 1.465 . S
C170 U166 2.847 . S
C170 O184 1.249 . S
C170 O185 1.202 . S
C171 C169 1.363 . S
C171 C173 1.408 . S
C171 C176 1.342 . S
C172 C173 1.310 . S
C172 C175 1.461 . S
C172 H192 0.932 . S
C173 C171 1.408 . S
C173 C172 1.310 . S
C173 H193 0.930 . S
C174 C175 1.474 . S
C174 C176 1.285 . S
C174 H194 0.929 . S
C175 C172 1.461 . S
C175 C174 1.474 . S
C176 C171 1.342 . S
C176 C174 1.285 . S
C176 H195 0.930 . S
C177 C180 1.424 . S
C177 C182 1.245 . S
C177 C183 1.428 . S
C178 C181 1.260 . S
C178 C182 1.477 . S
C178 H196 0.932 . S
C179 C180 1.384 . S
C179 C181 1.479 . S
C179 H197 0.929 . S
C180 C177 1.424 . S
C180 C179 1.384 . S
C180 H198 0.928 . S
C181 C178 1.260 . S
C181 C179 1.479 . S
C182 C177 1.245 . S
C182 C178 1.477 . S
C182 H199 0.932 . S
C183 U166 2.882 . S
C183 C177 1.428 . S
C183 O186 1.301 . S
C183 O187 1.282 . S
O184 U166 2.441 . S
O184 C170 1.249 . S
O185 U166 2.420 . S
O185 C170 1.202 . S
O186 U166 2.455 . S
O186 C183 1.301 . S
O187 U166 2.449 . S
O187 C183 1.282 . S
H188 C161 0.931 . S
H189 C163 0.929 . S
H190 C164 0.930 . S
H191 C165 0.931 . S
H192 C172 0.932 . S
H193 C173 0.930 . S
H194 C174 0.929 . S
H195 C176 0.930 . S
H196 C178 0.932 . S
H197 C179 0.929 . S
H198 C180 0.928 . S
H199 C182 0.932 . S
C200 C201 1.264 . S
C200 C205 1.479 . S
C200 C210 1.465 . S
C201 C200 1.264 . S
C201 C203 1.339 . S
C201 H228 0.931 . S
C202 C203 1.394 . S
C202 C204 1.320 . S
C203 C201 1.339 . S
C203 C202 1.394 . S
C203 H229 0.929 . S
C204 C202 1.320 . S
C204 C205 1.405 . S
C204 H230 0.938 . S
C205 C200 1.479 . S
C205 C204 1.405 . S
C205 H231 0.931 . S
U206 O207 2.454 . S
U206 O208 2.458 . S
U206 C209 2.984 . S
U206 C210 2.847 . S
U206 C223 2.882 . S
U206 O224 2.441 . S
U206 O225 2.420 . S
U206 O226 2.455 . S
U206 O227 2.449 . S
O207 U206 2.454 . S
O207 C209 1.353 . S
O208 U206 2.458 . S
O208 C209 1.286 . S
C209 U206 2.984 . S
C209 O207 1.353 . S
C209 O208 1.286 . S
C209 C211 1.363 . S
C210 C200 1.465 . S
C210 U206 2.847 . S
C210 O224 1.249 . S
C210 O225 1.202 . S
C211 C209 1.363 . S
C211 C213 1.408 . S
C211 C216 1.342 . S
C212 C213 1.310 . S
C212 C215 1.461 . S
C212 H232 0.932 . S
C213 C211 1.408 . S
C213 C212 1.310 . S
C213 H233 0.930 . S
C214 C215 1.474 . S
C214 C216 1.285 . S
C214 H234 0.929 . S
C215 C212 1.461 . S
C215 C214 1.474 . S
C216 C211 1.342 . S
C216 C214 1.285 . S
C216 H235 0.930 . S
C217 C220 1.424 . S
C217 C222 1.245 . S
C217 C223 1.428 . S
C218 C221 1.260 . S
C218 C222 1.477 . S
C218 H236 0.932 . S
C219 C220 1.384 . S
C219 C221 1.479 . S
C219 H237 0.929 . S
C220 C217 1.424 . S
C220 C219 1.384 . S
C220 H238 0.928 . S
C221 C218 1.260 . S
C221 C219 1.479 . S
C222 C217 1.245 . S
C222 C218 1.477 . S
C222 H239 0.932 . S
C223 U206 2.882 . S
C223 C217 1.428 . S
C223 O226 1.301 . S
C223 O227 1.282 . S
O224 U206 2.441 . S
O224 C210 1.249 . S
O225 U206 2.420 . S
O225 C210 1.202 . S
O226 U206 2.455 . S
O226 C223 1.301 . S
O227 U206 2.449 . S
O227 C223 1.282 . S
H228 C201 0.931 . S
H229 C203 0.929 . S
H230 C204 0.938 . S
H231 C205 0.931 . S
H232 C212 0.932 . S
H233 C213 0.930 . S
H234 C214 0.929 . S
H235 C216 0.930 . S
H236 C218 0.932 . S
H237 C219 0.929 . S
H238 C220 0.928 . S
H239 C222 0.932 . S
C240 C241 1.264 . S
C240 C245 1.479 . S
C240 C250 1.465 . S
C241 C240 1.264 . S
C241 C243 1.339 . S
C241 H268 0.931 . S
C242 C243 1.395 . S
C242 C244 1.320 . S
C243 C241 1.339 . S
C243 C242 1.395 . S
C243 H269 0.929 . S
C244 C242 1.320 . S
C244 C245 1.405 . S
C244 H270 0.930 . S
C245 C240 1.479 . S
C245 C244 1.405 . S
C245 H271 0.931 . S
U246 O247 2.454 . S
U246 O248 2.458 . S
U246 C249 2.984 . S
U246 C250 2.847 . S
U246 C263 2.882 . S
U246 O264 2.441 . S
U246 O265 2.420 . S
U246 O266 2.455 . S
U246 O267 2.449 . S
O247 U246 2.454 . S
O247 C249 1.353 . S
O248 U246 2.458 . S
O248 C249 1.286 . S
C249 U246 2.984 . S
C249 O247 1.353 . S
C249 O248 1.286 . S
C249 C251 1.363 . S
C250 C240 1.465 . S
C250 U246 2.847 . S
C250 O264 1.249 . S
C250 O265 1.202 . S
C251 C249 1.363 . S
C251 C253 1.408 . S
C251 C256 1.342 . S
C252 C253 1.310 . S
C252 C255 1.461 . S
C252 H272 0.932 . S
C253 C251 1.408 . S
C253 C252 1.310 . S
C253 H273 0.930 . S
C254 C255 1.474 . S
C254 C256 1.285 . S
C254 H274 0.929 . S
C255 C252 1.461 . S
C255 C254 1.474 . S
C256 C251 1.342 . S
C256 C254 1.285 . S
C256 H275 0.930 . S
C257 C260 1.424 . S
C257 C262 1.245 . S
C257 C263 1.428 . S
C258 C261 1.260 . S
C258 C262 1.477 . S
C258 H276 0.932 . S
C259 C260 1.384 . S
C259 C261 1.479 . S
C259 H277 0.929 . S
C260 C257 1.424 . S
C260 C259 1.384 . S
C260 H278 0.928 . S
C261 C258 1.260 . S
C261 C259 1.479 . S
C262 C257 1.245 . S
C262 C258 1.477 . S
C262 H279 0.932 . S
C263 U246 2.882 . S
C263 C257 1.428 . S
C263 O266 1.301 . S
C263 O267 1.282 . S
O264 U246 2.441 . S
O264 C250 1.249 . S
O265 U246 2.420 . S
O265 C250 1.202 . S
O266 U246 2.455 . S
O266 C263 1.301 . S
O267 U246 2.449 . S
O267 C263 1.282 . S
H268 C241 0.931 . S
H269 C243 0.929 . S
H270 C244 0.930 . S
H271 C245 0.931 . S
H272 C252 0.932 . S
H273 C253 0.930 . S
H274 C254 0.929 . S
H275 C256 0.930 . S
H276 C258 0.932 . S
H277 C259 0.929 . S
H278 C260 0.928 . S
H279 C262 0.932 . S
C280 C281 1.264 . S
C280 C285 1.479 . S
C280 C290 1.465 . S
C281 C280 1.264 . S
C281 C283 1.339 . S
C281 H308 0.931 . S
C282 C283 1.395 . S
C282 C284 1.320 . S
C283 C281 1.339 . S
C283 C282 1.395 . S
C283 H309 0.929 . S
C284 C282 1.320 . S
C284 C285 1.405 . S
C284 H310 0.930 . S
C285 C280 1.479 . S
C285 C284 1.405 . S
C285 H311 0.931 . S
U286 O287 2.454 . S
U286 O288 2.458 . S
U286 C289 2.984 . S
U286 C290 2.847 . S
U286 C303 2.882 . S
U286 O304 2.441 . S
U286 O305 2.420 . S
U286 O306 2.455 . S
U286 O307 2.449 . S
O287 U286 2.454 . S
O287 C289 1.353 . S
O288 U286 2.458 . S
O288 C289 1.286 . S
C289 U286 2.984 . S
C289 O287 1.353 . S
C289 O288 1.286 . S
C289 C291 1.363 . S
C290 C280 1.465 . S
C290 U286 2.847 . S
C290 O304 1.249 . S
C290 O305 1.202 . S
C291 C289 1.363 . S
C291 C293 1.408 . S
C291 C296 1.342 . S
C292 C293 1.310 . S
C292 C295 1.461 . S
C292 H312 0.932 . S
C293 C291 1.408 . S
C293 C292 1.310 . S
C293 H313 0.930 . S
C294 C295 1.474 . S
C294 C296 1.285 . S
C294 H314 0.929 . S
C295 C292 1.461 . S
C295 C294 1.474 . S
C296 C291 1.342 . S
C296 C294 1.285 . S
C296 H315 0.930 . S
C297 C300 1.424 . S
C297 C302 1.245 . S
C297 C303 1.428 . S
C298 C301 1.260 . S
C298 C302 1.477 . S
C298 H316 0.932 . S
C299 C300 1.384 . S
C299 C301 1.479 . S
C299 H317 0.929 . S
C300 C297 1.424 . S
C300 C299 1.384 . S
C300 H318 0.928 . S
C301 C298 1.260 . S
C301 C299 1.479 . S
C302 C297 1.245 . S
C302 C298 1.477 . S
C302 H319 0.932 . S
C303 U286 2.882 . S
C303 C297 1.428 . S
C303 O306 1.301 . S
C303 O307 1.282 . S
O304 U286 2.441 . S
O304 C290 1.249 . S
O305 U286 2.420 . S
O305 C290 1.202 . S
O306 U286 2.455 . S
O306 C303 1.301 . S
O307 U286 2.449 . S
O307 C303 1.282 . S
H308 C281 0.931 . S
H309 C283 0.929 . S
H310 C284 0.930 . S
H311 C285 0.931 . S
H312 C292 0.932 . S
H313 C293 0.930 . S
H314 C294 0.929 . S
H315 C296 0.930 . S
H316 C298 0.932 . S
H317 C299 0.929 . S
H318 C300 0.928 . S
H319 C302 0.932 . S
Eu320 N349 2.600 . S
Eu320 N355 2.562 . S
Eu320 O364 2.462 . S
Eu320 O365 2.373 . S
Eu320 O367 2.432 . S
Eu320 O368 2.291 . S
Eu320 O372 2.335 . S
Eu320 O375 2.372 . S
Eu320 C384 2.787 . S
C321 N322 1.365 . S
C321 C324 1.405 . S
C321 C328 1.448 . S
N322 C321 1.365 . S
N322 C325 1.319 . S
N322 Eu331 2.600 . S
C323 C325 1.397 . S
C323 C326 1.367 . S
C323 H343 0.931 . S
C324 C321 1.405 . S
C324 C326 1.403 . S
C324 C330 1.439 . S
C325 N322 1.319 . S
C325 C323 1.397 . S
C325 H336 0.930 . S
C326 C323 1.367 . S
C326 C324 1.403 . S
C326 H347 0.929 . S
C327 C328 1.430 . S
C327 C329 1.387 . S
C327 C333 1.404 . S
C328 C321 1.448 . S
C328 C327 1.430 . S
C328 N332 1.351 . S
C329 C327 1.387 . S
C329 C330 1.374 . S
C329 H344 0.931 . S
C330 C324 1.439 . S
C330 C329 1.374 . S
C330 H345 0.931 . S
Eu331 N322 2.600 . S
Eu331 N332 2.562 . S
Eu331 O366 2.333 . S
Eu331 O369 2.372 . S
Eu331 O370 2.462 . S
Eu331 O371 2.373 . S
Eu331 O373 2.432 . S
Eu331 O374 2.291 1_655 S
Eu331 C395 2.787 . S
N332 C328 1.351 . S
N332 Eu331 2.562 . S
N332 C334 1.325 . S
C333 C327 1.404 . S
C333 C335 1.366 . S
C333 H341 0.930 . S
C334 N332 1.325 . S
C334 C335 1.416 . S
C334 H340 0.929 . S
C335 C333 1.366 . S
C335 C334 1.416 . S
C335 H337 0.930 . S
H336 C325 0.930 . S
H337 C335 0.930 . S
H338 C353 0.930 . S
H339 C360 0.930 . S
H340 C334 0.929 . S
H341 C333 0.930 . S
H342 C356 0.929 . S
H343 C323 0.931 . S
H344 C329 0.931 . S
H345 C330 0.931 . S
H346 C351 0.931 . S
H347 C326 0.929 . S
H348 C359 0.930 . S
N349 Eu320 2.600 . S
N349 C350 1.365 . S
N349 C353 1.319 . S
C350 N349 1.365 . S
C350 C352 1.405 . S
C350 C358 1.448 . S
C351 H346 0.931 . S
C351 C353 1.397 . S
C351 C354 1.367 . S
C352 C350 1.405 . S
C352 C354 1.403 . S
C352 C385 1.439 . S
C353 H338 0.930 . S
C353 N349 1.319 . S
C353 C351 1.397 . S
C354 C351 1.367 . S
C354 C352 1.403 . S
C354 H361 0.929 . S
N355 Eu320 2.562 . S
N355 C356 1.325 . S
N355 C358 1.351 . S
C356 H342 0.929 . S
C356 N355 1.325 . S
C356 C360 1.416 . S
C357 C358 1.430 . S
C357 C359 1.404 . S
C357 C386 1.387 . S
C358 C350 1.448 . S
C358 N355 1.351 . S
C358 C357 1.430 . S
C359 H348 0.930 . S
C359 C357 1.404 . S
C359 C360 1.366 . S
C360 H339 0.930 . S
C360 C356 1.416 . S
C360 C359 1.366 . S
H361 C354 0.929 . S
H362 C385 0.931 . S
H363 C386 0.931 . S
O364 Eu320 2.462 . S
O364 C384 1.252 . S
O365 Eu320 2.373 . S
O365 C376 1.249 . S
O366 Eu331 2.333 . S
O366 C376 1.266 1_655 S
O367 Eu320 2.432 . S
O367 C384 1.268 . S
O368 Eu320 2.291 . S
O368 C383 1.255 1_455 S
O369 Eu331 2.372 . S
O369 C383 1.257 . S
O370 Eu331 2.462 . S
O370 C395 1.252 . S
O371 Eu331 2.373 . S
O371 C387 1.249 . S
O372 Eu320 2.335 . S
O372 C387 1.264 1_455 S
O373 Eu331 2.432 . S
O373 C395 1.268 . S
O374 Eu331 2.291 1_455 S
O374 C394 1.255 . S
O375 Eu320 2.372 . S
O375 C394 1.257 . S
C376 O365 1.249 . S
C376 O366 1.266 1_455 S
C377 C380 1.382 . S
C377 C382 1.390 . S
C377 C384 1.506 . S
C378 C379 1.398 . S
C378 C382 1.392 . S
C379 C378 1.398 . S
C379 C381 1.372 . S
C379 H396 0.931 . S
C380 C377 1.382 . S
C380 C381 1.390 . S
C380 H397 0.931 . S
C381 C379 1.372 . S
C381 C380 1.390 . S
C381 H398 0.929 . S
C382 C377 1.390 . S
C382 C378 1.392 . S
C382 H399 0.930 . S
C383 O368 1.255 1_655 S
C383 O369 1.257 . S
C384 Eu320 2.787 . S
C384 O364 1.252 . S
C384 O367 1.268 . S
C384 C377 1.506 . S
C385 C352 1.439 . S
C385 H362 0.931 . S
C385 C386 1.374 . S
C386 C357 1.387 . S
C386 H363 0.931 . S
C386 C385 1.374 . S
C387 O371 1.249 . S
C387 O372 1.264 1_655 S
C388 C391 1.382 . S
C388 C392 1.390 . S
C388 C395 1.506 . S
C389 C390 1.398 . S
C389 C392 1.392 . S
C390 C389 1.398 . S
C390 C393 1.372 . S
C390 H400 0.931 . S
C391 C388 1.382 . S
C391 C393 1.390 . S
C391 H401 0.931 . S
C392 C388 1.390 . S
C392 C389 1.392 . S
C392 H402 0.930 . S
C393 C390 1.372 . S
C393 C391 1.390 . S
C393 H403 0.929 . S
C394 O374 1.255 . S
C394 O375 1.257 . S
C395 Eu331 2.787 . S
C395 O370 1.252 . S
C395 O373 1.268 . S
C395 C388 1.506 . S
H396 C379 0.931 . S
H397 C380 0.931 . S
H398 C381 0.929 . S
H399 C382 0.930 . S
H400 C390 0.931 . S
H401 C391 0.931 . S
H402 C392 0.930 . S
H403 C393 0.929 . S
Eu404 N433 2.600 . S
Eu404 N439 2.562 . S
Eu404 O448 2.462 . S
Eu404 O449 2.373 . S
Eu404 O451 2.432 . S
Eu404 O452 2.291 . S
Eu404 O456 2.335 . S
Eu404 O459 2.372 . S
Eu404 C468 2.787 . S
C405 N406 1.365 . S
C405 C408 1.405 . S
C405 C412 1.448 . S
N406 C405 1.365 . S
N406 C409 1.319 . S
N406 Eu415 2.600 . S
C407 C409 1.397 . S
C407 C410 1.367 . S
C407 H427 0.931 . S
C408 C405 1.405 . S
C408 C410 1.403 . S
C408 C414 1.439 . S
C409 N406 1.319 . S
C409 C407 1.397 . S
C409 H420 0.930 . S
C410 C407 1.367 . S
C410 C408 1.403 . S
C410 H431 0.929 . S
C411 C412 1.430 . S
C411 C413 1.387 . S
C411 C417 1.404 . S
C412 C405 1.448 . S
C412 C411 1.430 . S
C412 N416 1.351 . S
C413 C411 1.387 . S
C413 C414 1.374 . S
C413 H428 0.931 . S
C414 C408 1.439 . S
C414 C413 1.374 . S
C414 H429 0.931 . S
Eu415 N406 2.600 . S
Eu415 N416 2.562 . S
Eu415 O450 2.335 . S
Eu415 O453 2.372 . S
Eu415 O454 2.462 . S
Eu415 O455 2.373 . S
Eu415 O457 2.432 . S
Eu415 O458 2.291 . S
Eu415 C479 2.787 . S
N416 C412 1.351 . S
N416 Eu415 2.562 . S
N416 C418 1.325 . S
C417 C411 1.404 . S
C417 C419 1.366 . S
C417 H425 0.930 . S
C418 N416 1.325 . S
C418 C419 1.416 . S
C418 H424 0.929 . S
C419 C417 1.366 . S
C419 C418 1.416 . S
C419 H421 0.930 . S
H420 C409 0.930 . S
H421 C419 0.930 . S
H422 C437 0.930 . S
H423 C444 0.930 . S
H424 C418 0.929 . S
H425 C417 0.930 . S
H426 C440 0.929 . S
H427 C407 0.931 . S
H428 C413 0.931 . S
H429 C414 0.931 . S
H430 C435 0.931 . S
H431 C410 0.929 . S
H432 C443 0.930 . S
N433 Eu404 2.600 . S
N433 C434 1.365 . S
N433 C437 1.319 . S
C434 N433 1.365 . S
C434 C436 1.405 . S
C434 C442 1.448 . S
C435 H430 0.931 . S
C435 C437 1.397 . S
C435 C438 1.367 . S
C436 C434 1.405 . S
C436 C438 1.403 . S
C436 C469 1.439 . S
C437 H422 0.930 . S
C437 N433 1.319 . S
C437 C435 1.397 . S
C438 C435 1.367 . S
C438 C436 1.403 . S
C438 H445 0.929 . S
N439 Eu404 2.562 . S
N439 C440 1.325 . S
N439 C442 1.351 . S
C440 H426 0.929 . S
C440 N439 1.325 . S
C440 C444 1.416 . S
C441 C442 1.430 . S
C441 C443 1.404 . S
C441 C470 1.387 . S
C442 C434 1.448 . S
C442 N439 1.351 . S
C442 C441 1.430 . S
C443 H432 0.930 . S
C443 C441 1.404 . S
C443 C444 1.366 . S
C444 H423 0.930 . S
C444 C440 1.416 . S
C444 C443 1.366 . S
H445 C438 0.929 . S
H446 C469 0.931 . S
H447 C470 0.931 . S
O448 Eu404 2.462 . S
O448 C468 1.252 . S
O449 Eu404 2.373 . S
O449 C460 1.249 . S
O450 Eu415 2.335 . S
O450 C460 1.264 . S
O451 Eu404 2.432 . S
O451 C468 1.268 . S
O452 Eu404 2.291 . S
O452 C467 1.255 . S
O453 Eu415 2.372 . S
O453 C467 1.257 . S
O454 Eu415 2.462 . S
O454 C479 1.252 . S
O455 Eu415 2.373 . S
O455 C471 1.249 . S
O456 Eu404 2.335 . S
O456 C471 1.264 . S
O457 Eu415 2.432 . S
O457 C479 1.268 . S
O458 Eu415 2.291 . S
O458 C478 1.255 . S
O459 Eu404 2.372 . S
O459 C478 1.257 . S
C460 O449 1.249 . S
C460 O450 1.264 . S
C461 C464 1.382 . S
C461 C466 1.390 . S
C461 C468 1.506 . S
C462 C463 1.398 . S
C462 C466 1.392 . S
C463 C462 1.398 . S
C463 C465 1.372 . S
C463 H480 0.931 . S
C464 C461 1.382 . S
C464 C465 1.390 . S
C464 H481 0.931 . S
C465 C463 1.372 . S
C465 C464 1.390 . S
C465 H482 0.929 . S
C466 C461 1.390 . S
C466 C462 1.392 . S
C466 H483 0.930 . S
C467 O452 1.255 . S
C467 O453 1.257 . S
C468 Eu404 2.787 . S
C468 O448 1.252 . S
C468 O451 1.268 . S
C468 C461 1.506 . S
C469 C436 1.439 . S
C469 H446 0.931 . S
C469 C470 1.374 . S
C470 C441 1.387 . S
C470 H447 0.931 . S
C470 C469 1.374 . S
C471 O455 1.249 . S
C471 O456 1.264 . S
C472 C475 1.382 . S
C472 C476 1.390 . S
C472 C479 1.506 . S
C473 C474 1.398 . S
C473 C476 1.392 . S
C474 C473 1.398 . S
C474 C477 1.372 . S
C474 H484 0.931 . S
C475 C472 1.382 . S
C475 C477 1.390 . S
C475 H485 0.931 . S
C476 C472 1.390 . S
C476 C473 1.392 . S
C476 H486 0.930 . S
C477 C474 1.372 . S
C477 C475 1.390 . S
C477 H487 0.929 . S
C478 O458 1.255 . S
C478 O459 1.257 . S
C479 Eu415 2.787 . S
C479 O454 1.252 . S
C479 O457 1.268 . S
C479 C472 1.506 . S
H480 C463 0.931 . S
H481 C464 0.931 . S
H482 C465 0.929 . S
H483 C466 0.930 . S
H484 C474 0.931 . S
H485 C475 0.931 . S
H486 C476 0.930 . S
H487 C477 0.929 . S
Eu488 N517 2.600 . S
Eu488 N523 2.562 . S
Eu488 O532 2.462 . S
Eu488 O533 2.373 . S
Eu488 O535 2.432 . S
Eu488 O536 2.291 . S
Eu488 O540 2.335 . S
Eu488 O543 2.372 . S
Eu488 C552 2.787 . S
C489 N490 1.365 . S
C489 C492 1.405 . S
C489 C496 1.448 . S
N490 C489 1.365 . S
N490 C493 1.319 . S
N490 Eu499 2.600 . S
C491 C493 1.397 . S
C491 C494 1.367 . S
C491 H511 0.931 . S
C492 C489 1.405 . S
C492 C494 1.403 . S
C492 C498 1.439 . S
C493 N490 1.319 . S
C493 C491 1.397 . S
C493 H504 0.930 . S
C494 C491 1.367 . S
C494 C492 1.403 . S
C494 H515 0.929 . S
C495 C496 1.430 . S
C495 C497 1.387 . S
C495 C501 1.404 . S
C496 C489 1.448 . S
C496 C495 1.430 . S
C496 N500 1.351 . S
C497 C495 1.387 . S
C497 C498 1.374 . S
C497 H512 0.931 . S
C498 C492 1.439 . S
C498 C497 1.374 . S
C498 H513 0.931 . S
Eu499 N490 2.600 . S
Eu499 N500 2.562 . S
Eu499 O534 2.335 1_655 S
Eu499 O537 2.372 . S
Eu499 O538 2.462 . S
Eu499 O539 2.373 . S
Eu499 O541 2.432 . S
Eu499 O542 2.291 1_655 S
Eu499 C563 2.787 . S
N500 C496 1.351 . S
N500 Eu499 2.562 . S
N500 C502 1.325 . S
C501 C495 1.404 . S
C501 C503 1.366 . S
C501 H509 0.930 . S
C502 N500 1.325 . S
C502 C503 1.416 . S
C502 H508 0.929 . S
C503 C501 1.366 . S
C503 C502 1.416 . S
C503 H505 0.930 . S
H504 C493 0.930 . S
H505 C503 0.930 . S
H506 C521 0.930 . S
H507 C528 0.930 . S
H508 C502 0.929 . S
H509 C501 0.930 . S
H510 C524 0.929 . S
H511 C491 0.931 . S
H512 C497 0.931 . S
H513 C498 0.931 . S
H514 C519 0.931 . S
H515 C494 0.929 . S
H516 C527 0.930 . S
N517 Eu488 2.600 . S
N517 C518 1.365 . S
N517 C521 1.319 . S
C518 N517 1.365 . S
C518 C520 1.405 . S
C518 C526 1.448 . S
C519 H514 0.931 . S
C519 C521 1.397 . S
C519 C522 1.367 . S
C520 C518 1.405 . S
C520 C522 1.403 . S
C520 C553 1.439 . S
C521 H506 0.930 . S
C521 N517 1.319 . S
C521 C519 1.397 . S
C522 C519 1.367 . S
C522 C520 1.403 . S
C522 H529 0.929 . S
N523 Eu488 2.562 . S
N523 C524 1.325 . S
N523 C526 1.351 . S
C524 H510 0.929 . S
C524 N523 1.325 . S
C524 C528 1.416 . S
C525 C526 1.430 . S
C525 C527 1.404 . S
C525 C554 1.387 . S
C526 C518 1.448 . S
C526 N523 1.351 . S
C526 C525 1.430 . S
C527 H516 0.930 . S
C527 C525 1.404 . S
C527 C528 1.366 . S
C528 H507 0.930 . S
C528 C524 1.416 . S
C528 C527 1.366 . S
H529 C522 0.929 . S
H530 C553 0.931 . S
H531 C554 0.931 . S
O532 Eu488 2.462 . S
O532 C552 1.252 . S
O533 Eu488 2.373 . S
O533 C544 1.249 . S
O534 Eu499 2.335 1_455 S
O534 C544 1.264 . S
O535 Eu488 2.432 . S
O535 C552 1.268 . S
O536 Eu488 2.291 . S
O536 C551 1.255 1_455 S
O537 Eu499 2.372 . S
O537 C551 1.257 . S
O538 Eu499 2.462 . S
O538 C563 1.252 . S
O539 Eu499 2.373 . S
O539 C555 1.249 . S
O540 Eu488 2.335 . S
O540 C555 1.264 1_455 S
O541 Eu499 2.432 . S
O541 C563 1.268 . S
O542 Eu499 2.291 1_455 S
O542 C562 1.255 . S
O543 Eu488 2.372 . S
O543 C562 1.257 . S
C544 O533 1.249 . S
C544 O534 1.264 . S
C545 C548 1.382 . S
C545 C550 1.390 . S
C545 C552 1.506 . S
C546 C547 1.398 . S
C546 C550 1.392 . S
C547 C546 1.398 . S
C547 C549 1.372 . S
C547 H564 0.931 . S
C548 C545 1.382 . S
C548 C549 1.390 . S
C548 H565 0.931 . S
C549 C547 1.372 . S
C549 C548 1.390 . S
C549 H566 0.929 . S
C550 C545 1.390 . S
C550 C546 1.392 . S
C550 H567 0.930 . S
C551 O536 1.255 1_655 S
C551 O537 1.257 . S
C552 Eu488 2.787 . S
C552 O532 1.252 . S
C552 O535 1.268 . S
C552 C545 1.506 . S
C553 C520 1.439 . S
C553 H530 0.931 . S
C553 C554 1.374 . S
C554 C525 1.387 . S
C554 H531 0.931 . S
C554 C553 1.374 . S
C555 O539 1.249 . S
C555 O540 1.264 1_655 S
C556 C559 1.382 . S
C556 C560 1.390 . S
C556 C563 1.506 . S
C557 C558 1.398 . S
C557 C560 1.392 . S
C558 C557 1.398 . S
C558 C561 1.372 . S
C558 H568 0.931 . S
C559 C556 1.382 . S
C559 C561 1.390 . S
C559 H569 0.931 . S
C560 C556 1.390 . S
C560 C557 1.392 . S
C560 H570 0.930 . S
C561 C558 1.372 . S
C561 C559 1.390 . S
C561 H571 0.929 . S
C562 O542 1.255 . S
C562 O543 1.257 . S
C563 Eu499 2.787 . S
C563 O538 1.252 . S
C563 O541 1.268 . S
C563 C556 1.506 . S
H564 C547 0.931 . S
H565 C548 0.931 . S
H566 C549 0.929 . S
H567 C550 0.930 . S
H568 C558 0.931 . S
H569 C559 0.931 . S
H570 C560 0.930 . S
H571 C561 0.929 . S
Eu572 N601 2.600 . S
Eu572 N607 2.562 . S
Eu572 O616 2.462 . S
Eu572 O617 2.373 . S
Eu572 O619 2.432 . S
Eu572 O620 2.291 . S
Eu572 O624 2.335 . S
Eu572 O627 2.372 . S
Eu572 C636 2.787 . S
C573 N574 1.365 . S
C573 C576 1.405 . S
C573 C580 1.448 . S
N574 C573 1.365 . S
N574 C577 1.319 . S
N574 Eu583 2.600 . S
C575 C577 1.397 . S
C575 C578 1.367 . S
C575 H595 0.931 . S
C576 C573 1.405 . S
C576 C578 1.403 . S
C576 C582 1.439 . S
C577 N574 1.319 . S
C577 C575 1.397 . S
C577 H588 0.930 . S
C578 C575 1.367 . S
C578 C576 1.403 . S
C578 H599 0.929 . S
C579 C580 1.430 . S
C579 C581 1.387 . S
C579 C585 1.404 . S
C580 C573 1.448 . S
C580 C579 1.430 . S
C580 N584 1.351 . S
C581 C579 1.387 . S
C581 C582 1.374 . S
C581 H596 0.931 . S
C582 C576 1.439 . S
C582 C581 1.374 . S
C582 H597 0.931 . S
Eu583 N574 2.600 . S
Eu583 N584 2.562 . S
Eu583 O618 2.335 . S
Eu583 O621 2.372 . S
Eu583 O622 2.462 . S
Eu583 O623 2.373 . S
Eu583 O625 2.432 . S
Eu583 O626 2.291 . S
Eu583 C647 2.787 . S
N584 C580 1.351 . S
N584 Eu583 2.562 . S
N584 C586 1.325 . S
C585 C579 1.404 . S
C585 C587 1.366 . S
C585 H593 0.930 . S
C586 N584 1.325 . S
C586 C587 1.416 . S
C586 H592 0.929 . S
C587 C585 1.366 . S
C587 C586 1.416 . S
C587 H589 0.930 . S
H588 C577 0.930 . S
H589 C587 0.930 . S
H590 C605 0.930 . S
H591 C612 0.930 . S
H592 C586 0.929 . S
H593 C585 0.930 . S
H594 C608 0.929 . S
H595 C575 0.931 . S
H596 C581 0.931 . S
H597 C582 0.931 . S
H598 C603 0.931 . S
H599 C578 0.929 . S
H600 C611 0.930 . S
N601 Eu572 2.600 . S
N601 C602 1.365 . S
N601 C605 1.319 . S
C602 N601 1.365 . S
C602 C604 1.405 . S
C602 C610 1.448 . S
C603 H598 0.931 . S
C603 C605 1.397 . S
C603 C606 1.367 . S
C604 C602 1.405 . S
C604 C606 1.403 . S
C604 C637 1.439 . S
C605 H590 0.930 . S
C605 N601 1.319 . S
C605 C603 1.397 . S
C606 C603 1.367 . S
C606 C604 1.403 . S
C606 H613 0.929 . S
N607 Eu572 2.562 . S
N607 C608 1.325 . S
N607 C610 1.351 . S
C608 H594 0.929 . S
C608 N607 1.325 . S
C608 C612 1.416 . S
C609 C610 1.430 . S
C609 C611 1.404 . S
C609 C638 1.387 . S
C610 C602 1.448 . S
C610 N607 1.351 . S
C610 C609 1.430 . S
C611 H600 0.930 . S
C611 C609 1.404 . S
C611 C612 1.366 . S
C612 H591 0.930 . S
C612 C608 1.416 . S
C612 C611 1.366 . S
H613 C606 0.929 . S
H614 C637 0.931 . S
H615 C638 0.931 . S
O616 Eu572 2.462 . S
O616 C636 1.252 . S
O617 Eu572 2.373 . S
O617 C628 1.249 . S
O618 Eu583 2.335 . S
O618 C628 1.264 . S
O619 Eu572 2.432 . S
O619 C636 1.268 . S
O620 Eu572 2.291 . S
O620 C635 1.255 . S
O621 Eu583 2.372 . S
O621 C635 1.257 . S
O622 Eu583 2.462 . S
O622 C647 1.252 . S
O623 Eu583 2.373 . S
O623 C639 1.249 . S
O624 Eu572 2.335 . S
O624 C639 1.264 . S
O625 Eu583 2.432 . S
O625 C647 1.268 . S
O626 Eu583 2.291 . S
O626 C646 1.255 . S
O627 Eu572 2.372 . S
O627 C646 1.257 . S
C628 O617 1.249 . S
C628 O618 1.264 . S
C629 C632 1.382 . S
C629 C634 1.390 . S
C629 C636 1.506 . S
C630 C631 1.398 . S
C630 C634 1.392 . S
C631 C630 1.398 . S
C631 C633 1.372 . S
C631 H648 0.931 . S
C632 C629 1.382 . S
C632 C633 1.390 . S
C632 H649 0.931 . S
C633 C631 1.372 . S
C633 C632 1.390 . S
C633 H650 0.929 . S
C634 C629 1.390 . S
C634 C630 1.392 . S
C634 H651 0.930 . S
C635 O620 1.255 . S
C635 O621 1.257 . S
C636 Eu572 2.787 . S
C636 O616 1.252 . S
C636 O619 1.268 . S
C636 C629 1.506 . S
C637 C604 1.439 . S
C637 H614 0.931 . S
C637 C638 1.374 . S
C638 C609 1.387 . S
C638 H615 0.931 . S
C638 C637 1.374 . S
C639 O623 1.249 . S
C639 O624 1.264 . S
C640 C643 1.382 . S
C640 C644 1.390 . S
C640 C647 1.506 . S
C641 C642 1.398 . S
C641 C644 1.392 . S
C642 C641 1.398 . S
C642 C645 1.372 . S
C642 H652 0.931 . S
C643 C640 1.382 . S
C643 C645 1.390 . S
C643 H653 0.931 . S
C644 C640 1.390 . S
C644 C641 1.392 . S
C644 H654 0.930 . S
C645 C642 1.372 . S
C645 C643 1.390 . S
C645 H655 0.929 . S
C646 O626 1.255 . S
C646 O627 1.257 . S
C647 Eu583 2.787 . S
C647 O622 1.252 . S
C647 O625 1.268 . S
C647 C640 1.506 . S
H648 C631 0.931 . S
H649 C632 0.931 . S
H650 C633 0.929 . S
H651 C634 0.930 . S
H652 C642 0.931 . S
H653 C643 0.931 . S
H654 C644 0.930 . S
H655 C645 0.929 . S
C656 C657 1.349 . S
C656 C658 1.327 . S
C656 H681 0.950 . S
C657 C656 1.349 . S
C657 C673 1.342 1_565 S
C658 C656 1.327 . S
C658 C677 1.429 1_565 S
C658 H682 0.950 . S
C659 C676 1.574 . S
C659 C678 1.368 . S
C659 H683 0.949 . S
H660 C664 0.949 . S
C661 C662 1.349 . S
C661 C663 1.327 . S
C661 H684 0.950 . S
C662 C661 1.349 . S
C662 C674 1.349 . S
C663 C661 1.327 . S
C663 C679 1.429 . S
C663 H685 0.950 . S
C664 H660 0.949 . S
C664 C672 1.574 . S
C664 C680 1.368 . S
H665 C673 0.952 . S
H666 C671 0.950 . S
H667 C672 0.949 . S
H668 C674 0.950 . S
H669 C675 0.950 . S
H670 C676 0.949 . S
C671 H666 0.950 . S
C671 C673 1.332 . S
C671 C677 1.429 . S
C672 C664 1.574 . S
C672 H667 0.949 . S
C672 C678 1.368 . S
C673 C657 1.342 1_545 S
C673 H665 0.952 . S
C673 C671 1.332 . S
C674 C662 1.349 . S
C674 H668 0.950 . S
C674 C675 1.327 . S
C675 H669 0.950 . S
C675 C674 1.327 . S
C675 C679 1.429 . S
C676 C659 1.574 . S
C676 H670 0.949 . S
C676 C680 1.368 . S
C677 C658 1.429 1_545 S
C677 C671 1.429 . S
C677 C678 1.523 . S
C678 C659 1.368 . S
C678 C672 1.368 . S
C678 C677 1.523 . S
C679 C663 1.429 . S
C679 C675 1.429 . S
C679 C680 1.523 . S
C680 C664 1.368 . S
C680 C676 1.368 . S
C680 C679 1.523 . S
H681 C656 0.950 . S
H682 C658 0.950 . S
H683 C659 0.949 . S
H684 C661 0.950 . S
H685 C663 0.950 . S
C686 C687 1.349 . S
C686 C688 1.327 . S
C686 H711 0.950 . S
C687 C686 1.349 . S
C687 C703 1.349 . S
C688 C686 1.327 . S
C688 C707 1.429 . S
C688 H712 0.950 . S
C689 C706 1.574 . S
C689 C708 1.368 . S
C689 H713 0.949 . S
H690 C694 0.949 . S
C691 C692 1.349 . S
C691 C693 1.327 . S
C691 H714 0.950 . S
C692 C691 1.349 . S
C692 C704 1.349 . S
C693 C691 1.327 . S
C693 C709 1.429 . S
C693 H715 0.950 . S
C694 H690 0.949 . S
C694 C702 1.574 . S
C694 C710 1.368 . S
H695 C703 0.950 . S
H696 C701 0.950 . S
H697 C702 0.949 . S
H698 C704 0.950 . S
H699 C705 0.950 . S
H700 C706 0.949 . S
C701 H696 0.950 . S
C701 C703 1.327 . S
C701 C707 1.429 . S
C702 C694 1.574 . S
C702 H697 0.949 . S
C702 C708 1.368 . S
C703 C687 1.349 . S
C703 H695 0.950 . S
C703 C701 1.327 . S
C704 C692 1.349 . S
C704 H698 0.950 . S
C704 C705 1.327 . S
C705 H699 0.950 . S
C705 C704 1.327 . S
C705 C709 1.429 . S
C706 C689 1.574 . S
C706 H700 0.949 . S
C706 C710 1.368 . S
C707 C688 1.429 . S
C707 C701 1.429 . S
C707 C708 1.523 . S
C708 C689 1.368 . S
C708 C702 1.368 . S
C708 C707 1.523 . S
C709 C693 1.429 . S
C709 C705 1.429 . S
C709 C710 1.523 . S
C710 C694 1.368 . S
C710 C706 1.368 . S
C710 C709 1.523 . S
H711 C686 0.950 . S
H712 C688 0.950 . S
H713 C689 0.949 . S
H714 C691 0.950 . S
H715 C693 0.950 . S
C716 C717 1.349 . S
C716 C718 1.327 . S
C716 H741 0.950 . S
C717 C716 1.349 . S
C717 C733 1.349 . S
C718 C716 1.327 . S
C718 C737 1.429 . S
C718 H742 0.950 . S
C719 C736 1.574 . S
C719 C738 1.368 . S
C719 H743 0.949 . S
H720 C724 0.949 . S
C721 C722 1.349 . S
C721 C723 1.327 . S
C721 H744 0.950 . S
C722 C721 1.349 . S
C722 C734 1.349 . S
C723 C721 1.327 . S
C723 C739 1.429 . S
C723 H745 0.950 . S
C724 H720 0.949 . S
C724 C732 1.574 . S
C724 C740 1.368 . S
H725 C733 0.950 . S
H726 C731 0.950 . S
H727 C732 0.949 . S
H728 C734 0.950 . S
H729 C735 0.950 . S
H730 C736 0.949 . S
C731 H726 0.950 . S
C731 C733 1.327 . S
C731 C737 1.429 . S
C732 C724 1.574 . S
C732 H727 0.949 . S
C732 C738 1.368 . S
C733 C717 1.349 . S
C733 H725 0.950 . S
C733 C731 1.327 . S
C734 C722 1.349 . S
C734 H728 0.950 . S
C734 C735 1.327 . S
C735 H729 0.950 . S
C735 C734 1.327 . S
C735 C739 1.429 . S
C736 C719 1.574 . S
C736 H730 0.949 . S
C736 C740 1.368 . S
C737 C718 1.429 . S
C737 C731 1.429 . S
C737 C738 1.523 . S
C738 C719 1.368 . S
C738 C732 1.368 . S
C738 C737 1.523 . S
C739 C723 1.429 . S
C739 C735 1.429 . S
C739 C740 1.523 . S
C740 C724 1.368 . S
C740 C736 1.368 . S
C740 C739 1.523 . S
H741 C716 0.950 . S
H742 C718 0.950 . S
H743 C719 0.949 . S
H744 C721 0.950 . S
H745 C723 0.950 . S
C746 C747 1.349 . S
C746 C748 1.327 1_565 S
C746 H771 0.939 1_565 S
C747 C746 1.349 . S
C747 C763 1.349 . S
C748 C746 1.327 1_545 S
C748 C767 1.429 . S
C748 H772 0.950 . S
C749 C766 1.574 . S
C749 C768 1.368 . S
C749 H773 0.949 . S
H750 C754 0.949 . S
C751 C752 1.349 . S
C751 C753 1.327 . S
C751 H774 0.950 . S
C752 C751 1.349 . S
C752 C764 1.349 . S
C753 C751 1.327 . S
C753 C769 1.429 . S
C753 H775 0.950 . S
C754 H750 0.949 . S
C754 C762 1.574 . S
C754 C770 1.368 . S
H755 C763 0.950 . S
H756 C761 0.950 . S
H757 C762 0.949 . S
H758 C764 0.950 . S
H759 C765 0.950 . S
H760 C766 0.949 . S
C761 H756 0.950 . S
C761 C763 1.327 . S
C761 C767 1.429 1_565 S
C762 C754 1.574 . S
C762 H757 0.949 . S
C762 C768 1.368 . S
C763 C747 1.349 . S
C763 H755 0.950 . S
C763 C761 1.327 . S
C764 C752 1.349 . S
C764 H758 0.950 . S
C764 C765 1.327 . S
C765 H759 0.950 . S
C765 C764 1.327 . S
C765 C769 1.429 . S
C766 C749 1.574 . S
C766 H760 0.949 . S
C766 C770 1.368 . S
C767 C748 1.429 . S
C767 C761 1.429 1_545 S
C767 C768 1.523 . S
C768 C749 1.368 . S
C768 C762 1.368 . S
C768 C767 1.523 . S
C769 C753 1.429 . S
C769 C765 1.429 . S
C769 C770 1.523 . S
C770 C754 1.368 . S
C770 C766 1.368 . S
C770 C769 1.523 . S
H771 C746 0.939 1_545 S
H772 C748 0.950 . S
H773 C749 0.949 . S
H774 C751 0.950 . S
H775 C753 0.950 . S
C776 C777 1.349 . S
C776 C778 1.327 . S
C776 H801 0.950 . S
C777 C776 1.349 . S
C777 C793 1.350 1_545 S
C778 C776 1.327 . S
C778 C797 1.429 1_545 S
C778 H802 0.950 . S
C779 C796 1.574 . S
C779 C798 1.368 . S
C779 H803 0.949 . S
H780 C784 0.949 . S
C781 C782 1.349 . S
C781 C783 1.327 . S
C781 H804 0.950 . S
C782 C781 1.349 . S
C782 C794 1.349 . S
C783 C781 1.327 . S
C783 C799 1.429 . S
C783 H805 0.950 . S
C784 H780 0.949 . S
C784 C792 1.574 . S
C784 C800 1.368 . S
H785 C793 0.950 . S
H786 C791 0.950 . S
H787 C792 0.949 . S
H788 C794 0.950 . S
H789 C795 0.950 . S
H790 C796 0.949 . S
C791 H786 0.950 . S
C791 C793 1.326 . S
C791 C797 1.429 . S
C792 C784 1.574 . S
C792 H787 0.949 . S
C792 C798 1.368 . S
C793 C777 1.350 1_565 S
C793 H785 0.950 . S
C793 C791 1.326 . S
C794 C782 1.349 . S
C794 H788 0.950 . S
C794 C795 1.327 . S
C795 H789 0.950 . S
C795 C794 1.327 . S
C795 C799 1.429 . S
C796 C779 1.574 . S
C796 H790 0.949 . S
C796 C800 1.368 . S
C797 C778 1.429 1_565 S
C797 C791 1.429 . S
C797 C798 1.523 . S
C798 C779 1.368 . S
C798 C792 1.368 . S
C798 C797 1.523 . S
C799 C783 1.429 . S
C799 C795 1.429 . S
C799 C800 1.523 . S
C800 C784 1.368 . S
C800 C796 1.368 . S
C800 C799 1.523 . S
H801 C776 0.950 . S
H802 C778 0.950 . S
H803 C779 0.949 . S
H804 C781 0.950 . S
H805 C783 0.950 . S
C806 C807 1.349 . S
C806 C808 1.327 . S
C806 H831 0.950 . S
C807 C806 1.349 . S
C807 C823 1.349 . S
C808 C806 1.327 . S
C808 C827 1.429 . S
C808 H832 0.950 . S
C809 C826 1.574 . S
C809 C828 1.368 . S
C809 H833 0.949 . S
H810 C814 0.949 . S
C811 C812 1.349 . S
C811 C813 1.327 . S
C811 H834 0.950 . S
C812 C811 1.349 . S
C812 C824 1.349 . S
C813 C811 1.327 . S
C813 C829 1.429 . S
C813 H835 0.950 . S
C814 H810 0.949 . S
C814 C822 1.574 . S
C814 C830 1.368 . S
H815 C823 0.950 . S
H816 C821 0.950 . S
H817 C822 0.949 . S
H818 C824 0.950 . S
H819 C825 0.950 . S
H820 C826 0.949 . S
C821 H816 0.950 . S
C821 C823 1.327 . S
C821 C827 1.429 . S
C822 C814 1.574 . S
C822 H817 0.949 . S
C822 C828 1.368 . S
C823 C807 1.349 . S
C823 H815 0.950 . S
C823 C821 1.327 . S
C824 C812 1.349 . S
C824 H818 0.950 . S
C824 C825 1.327 . S
C825 H819 0.950 . S
C825 C824 1.327 . S
C825 C829 1.429 . S
C826 C809 1.574 . S
C826 H820 0.949 . S
C826 C830 1.368 . S
C827 C808 1.429 . S
C827 C821 1.429 . S
C827 C828 1.523 . S
C828 C809 1.368 . S
C828 C822 1.368 . S
C828 C827 1.523 . S
C829 C813 1.429 . S
C829 C825 1.429 . S
C829 C830 1.523 . S
C830 C814 1.368 . S
C830 C826 1.368 . S
C830 C829 1.523 . S
H831 C806 0.950 . S
H832 C808 0.950 . S
H833 C809 0.949 . S
H834 C811 0.950 . S
H835 C813 0.950 . S
C836 C837 1.349 . S
C836 C838 1.327 . S
C836 H861 0.950 . S
C837 C836 1.349 . S
C837 C853 1.349 . S
C838 C836 1.327 . S
C838 C857 1.429 . S
C838 H862 0.950 . S
C839 C856 1.574 . S
C839 C858 1.368 . S
C839 H863 0.949 . S
H840 C844 0.949 . S
C841 C842 1.349 . S
C841 C843 1.327 . S
C841 H864 0.950 . S
C842 C841 1.349 . S
C842 C854 1.349 . S
C843 C841 1.327 . S
C843 C859 1.429 . S
C843 H865 0.950 . S
C844 H840 0.949 . S
C844 C852 1.574 . S
C844 C860 1.368 . S
H845 C853 0.950 . S
H846 C851 0.950 . S
H847 C852 0.949 . S
H848 C854 0.950 . S
H849 C855 0.950 . S
H850 C856 0.949 . S
C851 H846 0.950 . S
C851 C853 1.327 . S
C851 C857 1.429 . S
C852 C844 1.574 . S
C852 H847 0.949 . S
C852 C858 1.368 . S
C853 C837 1.349 . S
C853 H845 0.950 . S
C853 C851 1.327 . S
C854 C842 1.349 . S
C854 H848 0.950 . S
C854 C855 1.327 . S
C855 H849 0.950 . S
C855 C854 1.327 . S
C855 C859 1.429 . S
C856 C839 1.574 . S
C856 H850 0.949 . S
C856 C860 1.368 . S
C857 C838 1.429 . S
C857 C851 1.429 . S
C857 C858 1.523 . S
C858 C839 1.368 . S
C858 C852 1.368 . S
C858 C857 1.523 . S
C859 C843 1.429 . S
C859 C855 1.429 . S
C859 C860 1.523 . S
C860 C844 1.368 . S
C860 C856 1.368 . S
C860 C859 1.523 . S
H861 C836 0.950 . S
H862 C838 0.950 . S
H863 C839 0.949 . S
H864 C841 0.950 . S
H865 C843 0.950 . S
C866 C867 1.349 . S
C866 C868 1.327 . S
C866 H891 0.950 . S
C867 C866 1.349 . S
C867 C883 1.349 . S
C868 C866 1.327 . S
C868 C887 1.429 1_545 S
C868 H892 0.950 . S
C869 C886 1.574 . S
C869 C888 1.368 . S
C869 H893 0.949 . S
H870 C874 0.949 . S
C871 C872 1.349 . S
C871 C873 1.327 . S
C871 H894 0.950 . S
C872 C871 1.349 . S
C872 C884 1.349 . S
C873 C871 1.327 . S
C873 C889 1.429 . S
C873 H895 0.950 . S
C874 H870 0.949 . S
C874 C882 1.574 . S
C874 C890 1.368 . S
H875 C883 0.950 . S
H876 C881 0.950 . S
H877 C882 0.949 . S
H878 C884 0.950 . S
H879 C885 0.950 . S
H880 C886 0.949 . S
C881 H876 0.950 . S
C881 C883 1.327 1_565 S
C881 C887 1.429 . S
C882 C874 1.574 . S
C882 H877 0.949 . S
C882 C888 1.368 . S
C883 C867 1.349 . S
C883 H875 0.950 . S
C883 C881 1.327 1_545 S
C884 C872 1.349 . S
C884 H878 0.950 . S
C884 C885 1.327 . S
C885 H879 0.950 . S
C885 C884 1.327 . S
C885 C889 1.429 . S
C886 C869 1.574 . S
C886 H880 0.949 . S
C886 C890 1.368 . S
C887 C868 1.429 1_565 S
C887 C881 1.429 . S
C887 C888 1.523 . S
C888 C869 1.368 . S
C888 C882 1.368 . S
C888 C887 1.523 . S
C889 C873 1.429 . S
C889 C885 1.429 . S
C889 C890 1.523 . S
C890 C874 1.368 . S
C890 C886 1.368 . S
C890 C889 1.523 . S
H891 C866 0.950 . S
H892 C868 0.950 . S
H893 C869 0.949 . S
H894 C871 0.950 . S
H895 C873 0.950 . S
C896 C897 1.349 . S
C896 C898 1.327 . S
C896 H921 0.950 . S
C897 C896 1.349 . S
C897 C913 1.349 . S
C898 C896 1.327 . S
C898 C917 1.429 . S
C898 H922 0.950 . S
C899 C916 1.574 . S
C899 C918 1.368 . S
C899 H923 0.949 . S
H900 C904 0.949 . S
C901 C902 1.349 . S
C901 C903 1.327 . S
C901 H924 0.950 . S
C902 C901 1.349 . S
C902 C914 1.349 . S
C903 C901 1.327 . S
C903 C919 1.429 . S
C903 H925 0.950 . S
C904 H900 0.949 . S
C904 C912 1.574 . S
C904 C920 1.368 . S
H905 C913 0.950 . S
H906 C911 0.950 . S
H907 C912 0.949 . S
H908 C914 0.950 . S
H909 C915 0.950 . S
H910 C916 0.949 . S
C911 H906 0.950 . S
C911 C913 1.327 . S
C911 C917 1.429 . S
C912 C904 1.574 . S
C912 H907 0.949 . S
C912 C918 1.368 . S
C913 C897 1.349 . S
C913 H905 0.950 . S
C913 C911 1.327 . S
C914 C902 1.349 . S
C914 H908 0.950 . S
C914 C915 1.327 . S
C915 H909 0.950 . S
C915 C914 1.327 . S
C915 C919 1.429 . S
C916 C899 1.574 . S
C916 H910 0.949 . S
C916 C920 1.368 . S
C917 C898 1.429 . S
C917 C911 1.429 . S
C917 C918 1.523 . S
C918 C899 1.368 . S
C918 C912 1.368 . S
C918 C917 1.523 . S
C919 C903 1.429 . S
C919 C915 1.429 . S
C919 C920 1.523 . S
C920 C904 1.368 . S
C920 C916 1.368 . S
C920 C919 1.523 . S
H921 C896 0.950 . S
H922 C898 0.950 . S
H923 C899 0.949 . S
H924 C901 0.950 . S
H925 C903 0.950 . S
C926 C927 1.349 . S
C926 C928 1.327 . S
C926 H951 0.950 . S
C927 C926 1.349 . S
C927 C943 1.349 . S
C928 C926 1.327 . S
C928 C947 1.429 . S
C928 H952 0.950 . S
C929 C946 1.574 . S
C929 C948 1.368 . S
C929 H953 0.949 . S
H930 C934 0.949 . S
C931 C932 1.349 . S
C931 C933 1.327 . S
C931 H954 0.950 . S
C932 C931 1.349 . S
C932 C944 1.349 . S
C933 C931 1.327 . S
C933 C949 1.429 . S
C933 H955 0.950 . S
C934 H930 0.949 . S
C934 C942 1.574 . S
C934 C950 1.368 . S
H935 C943 0.950 . S
H936 C941 0.950 . S
H937 C942 0.949 . S
H938 C944 0.950 . S
H939 C945 0.950 . S
H940 C946 0.949 . S
C941 H936 0.950 . S
C941 C943 1.327 . S
C941 C947 1.429 . S
C942 C934 1.574 . S
C942 H937 0.949 . S
C942 C948 1.368 . S
C943 C927 1.349 . S
C943 H935 0.950 . S
C943 C941 1.327 . S
C944 C932 1.349 . S
C944 H938 0.950 . S
C944 C945 1.327 . S
C945 H939 0.950 . S
C945 C944 1.327 . S
C945 C949 1.429 . S
C946 C929 1.574 . S
C946 H940 0.949 . S
C946 C950 1.368 . S
C947 C928 1.429 . S
C947 C941 1.429 . S
C947 C948 1.523 . S
C948 C929 1.368 . S
C948 C942 1.368 . S
C948 C947 1.523 . S
C949 C933 1.429 . S
C949 C945 1.429 . S
C949 C950 1.523 . S
C950 C934 1.368 . S
C950 C946 1.368 . S
C950 C949 1.523 . S
H951 C926 0.950 . S
H952 C928 0.950 . S
H953 C929 0.949 . S
H954 C931 0.950 . S
H955 C933 0.950 . S
C956 C957 1.349 . S
C956 C958 1.327 . S
C956 H981 0.950 . S
C957 C956 1.349 . S
C957 C973 1.349 . S
C958 C956 1.327 . S
C958 C977 1.429 . S
C958 H982 0.950 . S
C959 C976 1.574 . S
C959 C978 1.368 . S
C959 H983 0.949 . S
H960 C964 0.949 . S
C961 C962 1.349 . S
C961 C963 1.327 . S
C961 H984 0.950 . S
C962 C961 1.349 . S
C962 C974 1.349 . S
C963 C961 1.327 . S
C963 C979 1.429 . S
C963 H985 0.950 . S
C964 H960 0.949 . S
C964 C972 1.574 . S
C964 C980 1.368 . S
H965 C973 0.950 . S
H966 C971 0.950 . S
H967 C972 0.949 . S
H968 C974 0.950 . S
H969 C975 0.950 . S
H970 C976 0.949 . S
C971 H966 0.950 . S
C971 C973 1.327 . S
C971 C977 1.429 . S
C972 C964 1.574 . S
C972 H967 0.949 . S
C972 C978 1.368 . S
C973 C957 1.349 . S
C973 H965 0.950 . S
C973 C971 1.327 . S
C974 C962 1.349 . S
C974 H968 0.950 . S
C974 C975 1.327 . S
C975 H969 0.950 . S
C975 C974 1.327 . S
C975 C979 1.429 . S
C976 C959 1.574 . S
C976 H970 0.949 . S
C976 C980 1.368 . S
C977 C958 1.429 . S
C977 C971 1.429 . S
C977 C978 1.523 . S
C978 C959 1.368 . S
C978 C972 1.368 . S
C978 C977 1.523 . S
C979 C963 1.429 . S
C979 C975 1.429 . S
C979 C980 1.523 . S
C980 C964 1.368 . S
C980 C976 1.368 . S
C980 C979 1.523 . S
H981 C956 0.950 . S
H982 C958 0.950 . S
H983 C959 0.949 . S
H984 C961 0.950 . S
H985 C963 0.950 . S
C986 C987 1.349 . S
C986 C988 1.327 . S
C986 H1011 0.950 . S
C987 C986 1.349 . S
C987 C1003 1.349 . S
C988 C986 1.327 . S
C988 C1007 1.429 . S
C988 H1012 0.950 . S
C989 C1006 1.574 . S
C989 C1008 1.368 . S
C989 H1013 0.949 . S
H990 C994 0.949 . S
C991 C992 1.349 . S
C991 C993 1.327 . S
C991 H1014 0.950 . S
C992 C991 1.349 . S
C992 C1004 1.349 . S
C993 C991 1.327 . S
C993 C1009 1.429 . S
C993 H1015 0.950 . S
C994 H990 0.949 . S
C994 C1002 1.574 . S
C994 C1010 1.368 . S
H995 C1003 0.950 . S
H996 C1001 0.950 . S
H997 C1002 0.949 . S
H998 C1004 0.950 . S
H999 C1005 0.950 . S
H1000 C1006 0.949 . S
C1001 H996 0.950 . S
C1001 C1003 1.327 . S
C1001 C1007 1.429 . S
C1002 C994 1.574 . S
C1002 H997 0.949 . S
C1002 C1008 1.368 . S
C1003 C987 1.349 . S
C1003 H995 0.950 . S
C1003 C1001 1.327 . S
C1004 C992 1.349 . S
C1004 H998 0.950 . S
C1004 C1005 1.327 . S
C1005 H999 0.950 . S
C1005 C1004 1.327 . S
C1005 C1009 1.429 . S
C1006 C989 1.574 . S
C1006 H1000 0.949 . S
C1006 C1010 1.368 . S
C1007 C988 1.429 . S
C1007 C1001 1.429 . S
C1007 C1008 1.523 . S
C1008 C989 1.368 . S
C1008 C1002 1.368 . S
C1008 C1007 1.523 . S
C1009 C993 1.429 . S
C1009 C1005 1.429 . S
C1009 C1010 1.523 . S
C1010 C994 1.368 . S
C1010 C1006 1.368 . S
C1010 C1009 1.523 . S
H1011 C986 0.950 . S
H1012 C988 0.950 . S
H1013 C989 0.949 . S
H1014 C991 0.950 . S
H1015 C993 0.950 . S
C1016 C1017 1.349 . S
C1016 C1018 1.327 . S
C1016 H1041 0.950 . S
C1017 C1016 1.349 . S
C1017 C1033 1.349 . S
C1018 C1016 1.327 . S
C1018 C1037 1.429 . S
C1018 H1042 0.950 . S
C1019 C1036 1.574 . S
C1019 C1038 1.368 . S
C1019 H1043 0.949 . S
H1020 C1024 0.949 . S
C1021 C1022 1.349 . S
C1021 C1023 1.327 . S
C1021 H1044 0.950 . S
C1022 C1021 1.349 . S
C1022 C1034 1.349 . S
C1023 C1021 1.327 . S
C1023 C1039 1.429 . S
C1023 H1045 0.950 . S
C1024 H1020 0.949 . S
C1024 C1032 1.574 . S
C1024 C1040 1.368 . S
H1025 C1033 0.950 . S
H1026 C1031 0.950 . S
H1027 C1032 0.949 . S
H1028 C1034 0.950 . S
H1029 C1035 0.950 . S
H1030 C1036 0.949 . S
C1031 H1026 0.950 . S
C1031 C1033 1.327 . S
C1031 C1037 1.429 . S
C1032 C1024 1.574 . S
C1032 H1027 0.949 . S
C1032 C1038 1.368 . S
C1033 C1017 1.349 . S
C1033 H1025 0.950 . S
C1033 C1031 1.327 . S
C1034 C1022 1.349 . S
C1034 H1028 0.950 . S
C1034 C1035 1.327 . S
C1035 H1029 0.950 . S
C1035 C1034 1.327 . S
C1035 C1039 1.429 . S
C1036 C1019 1.574 . S
C1036 H1030 0.949 . S
C1036 C1040 1.368 . S
C1037 C1018 1.429 . S
C1037 C1031 1.429 . S
C1037 C1038 1.523 . S
C1038 C1019 1.368 . S
C1038 C1032 1.368 . S
C1038 C1037 1.523 . S
C1039 C1023 1.429 . S
C1039 C1035 1.429 . S
C1039 C1040 1.523 . S
C1040 C1024 1.368 . S
C1040 C1036 1.368 . S
C1040 C1039 1.523 . S
H1041 C1016 0.950 . S
H1042 C1018 0.950 . S
H1043 C1019 0.949 . S
H1044 C1021 0.950 . S
H1045 C1023 0.950 . S
C1046 C1047 1.349 . S
C1046 C1048 1.327 . S
C1046 H1071 0.950 . S
C1047 C1046 1.349 . S
C1047 C1063 1.349 . S
C1048 C1046 1.327 . S
C1048 C1067 1.429 . S
C1048 H1072 0.950 . S
C1049 C1066 1.574 . S
C1049 C1068 1.368 . S
C1049 H1073 0.949 . S
H1050 C1054 0.949 . S
C1051 C1052 1.349 . S
C1051 C1053 1.327 . S
C1051 H1074 0.950 . S
C1052 C1051 1.349 . S
C1052 C1064 1.349 . S
C1053 C1051 1.327 . S
C1053 C1069 1.429 . S
C1053 H1075 0.950 . S
C1054 H1050 0.949 . S
C1054 C1062 1.574 . S
C1054 C1070 1.368 . S
H1055 C1063 0.950 . S
H1056 C1061 0.950 . S
H1057 C1062 0.949 . S
H1058 C1064 0.950 . S
H1059 C1065 0.950 . S
H1060 C1066 0.949 . S
C1061 H1056 0.950 . S
C1061 C1063 1.327 . S
C1061 C1067 1.429 . S
C1062 C1054 1.574 . S
C1062 H1057 0.949 . S
C1062 C1068 1.368 . S
C1063 C1047 1.349 . S
C1063 H1055 0.950 . S
C1063 C1061 1.327 . S
C1064 C1052 1.349 . S
C1064 H1058 0.950 . S
C1064 C1065 1.327 . S
C1065 H1059 0.950 . S
C1065 C1064 1.327 . S
C1065 C1069 1.429 . S
C1066 C1049 1.574 . S
C1066 H1060 0.949 . S
C1066 C1070 1.368 . S
C1067 C1048 1.429 . S
C1067 C1061 1.429 . S
C1067 C1068 1.523 . S
C1068 C1049 1.368 . S
C1068 C1062 1.368 . S
C1068 C1067 1.523 . S
C1069 C1053 1.429 . S
C1069 C1065 1.429 . S
C1069 C1070 1.523 . S
C1070 C1054 1.368 . S
C1070 C1066 1.368 . S
C1070 C1069 1.523 . S
H1071 C1046 0.950 . S
H1072 C1048 0.950 . S
H1073 C1049 0.949 . S
H1074 C1051 0.950 . S
H1075 C1053 0.950 . S
C1076 C1077 1.349 . S
C1076 C1078 1.327 . S
C1076 H1101 0.950 . S
C1077 C1076 1.349 . S
C1077 C1093 1.349 . S
C1078 C1076 1.327 . S
C1078 C1097 1.429 . S
C1078 H1102 0.950 . S
C1079 C1096 1.574 . S
C1079 C1098 1.368 . S
C1079 H1103 0.949 . S
H1080 C1084 0.949 . S
C1081 C1082 1.349 . S
C1081 C1083 1.327 . S
C1081 H1104 0.950 . S
C1082 C1081 1.349 . S
C1082 C1094 1.349 . S
C1083 C1081 1.327 . S
C1083 C1099 1.429 . S
C1083 H1105 0.950 . S
C1084 H1080 0.949 . S
C1084 C1092 1.574 . S
C1084 C1100 1.368 . S
H1085 C1093 0.950 . S
H1086 C1091 0.950 . S
H1087 C1092 0.949 . S
H1088 C1094 0.950 . S
H1089 C1095 0.950 . S
H1090 C1096 0.949 . S
C1091 H1086 0.950 . S
C1091 C1093 1.327 . S
C1091 C1097 1.429 . S
C1092 C1084 1.574 . S
C1092 H1087 0.949 . S
C1092 C1098 1.368 . S
C1093 C1077 1.349 . S
C1093 H1085 0.950 . S
C1093 C1091 1.327 . S
C1094 C1082 1.349 . S
C1094 H1088 0.950 . S
C1094 C1095 1.327 . S
C1095 H1089 0.950 . S
C1095 C1094 1.327 . S
C1095 C1099 1.429 . S
C1096 C1079 1.574 . S
C1096 H1090 0.949 . S
C1096 C1100 1.368 . S
C1097 C1078 1.429 . S
C1097 C1091 1.429 . S
C1097 C1098 1.523 . S
C1098 C1079 1.368 . S
C1098 C1092 1.368 . S
C1098 C1097 1.523 . S
C1099 C1083 1.429 . S
C1099 C1095 1.429 . S
C1099 C1100 1.523 . S
C1100 C1084 1.368 . S
C1100 C1096 1.368 . S
C1100 C1099 1.523 . S
H1101 C1076 0.950 . S
H1102 C1078 0.950 . S
H1103 C1079 0.949 . S
H1104 C1081 0.950 . S
H1105 C1083 0.950 . S
C1106 C1107 1.349 . S
C1106 C1108 1.327 . S
C1106 H1131 0.950 . S
C1107 C1106 1.349 . S
C1107 C1123 1.349 . S
C1108 C1106 1.327 . S
C1108 C1127 1.429 . S
C1108 H1132 0.950 . S
C1109 C1126 1.574 . S
C1109 C1128 1.368 . S
C1109 H1133 0.949 . S
H1110 C1114 0.949 . S
C1111 C1112 1.349 . S
C1111 C1113 1.327 . S
C1111 H1134 0.950 . S
C1112 C1111 1.349 . S
C1112 C1124 1.349 . S
C1113 C1111 1.327 . S
C1113 C1129 1.429 . S
C1113 H1135 0.950 . S
C1114 H1110 0.949 . S
C1114 C1122 1.574 . S
C1114 C1130 1.368 . S
H1115 C1123 0.950 . S
H1116 C1121 0.950 . S
H1117 C1122 0.949 . S
H1118 C1124 0.950 . S
H1119 C1125 0.950 . S
H1120 C1126 0.949 . S
C1121 H1116 0.950 . S
C1121 C1123 1.327 . S
C1121 C1127 1.429 . S
C1122 C1114 1.574 . S
C1122 H1117 0.949 . S
C1122 C1128 1.368 . S
C1123 C1107 1.349 . S
C1123 H1115 0.950 . S
C1123 C1121 1.327 . S
C1124 C1112 1.349 . S
C1124 H1118 0.950 . S
C1124 C1125 1.327 . S
C1125 H1119 0.950 . S
C1125 C1124 1.327 . S
C1125 C1129 1.429 . S
C1126 C1109 1.574 . S
C1126 H1120 0.949 . S
C1126 C1130 1.368 . S
C1127 C1108 1.429 . S
C1127 C1121 1.429 . S
C1127 C1128 1.523 . S
C1128 C1109 1.368 . S
C1128 C1122 1.368 . S
C1128 C1127 1.523 . S
C1129 C1113 1.429 . S
C1129 C1125 1.429 . S
C1129 C1130 1.523 . S
C1130 C1114 1.368 . S
C1130 C1126 1.368 . S
C1130 C1129 1.523 . S
H1131 C1106 0.950 . S
H1132 C1108 0.950 . S
H1133 C1109 0.949 . S
H1134 C1111 0.950 . S
H1135 C1113 0.950 . S
C1136 C1137 1.349 . S
C1136 C1138 1.327 . S
C1136 H1161 0.950 . S
C1137 C1136 1.349 . S
C1137 C1153 1.349 . S
C1138 C1136 1.327 . S
C1138 C1157 1.429 . S
C1138 H1162 0.950 . S
C1139 C1156 1.574 . S
C1139 C1158 1.368 . S
C1139 H1163 0.949 . S
H1140 C1144 0.949 . S
C1141 C1142 1.349 . S
C1141 C1143 1.327 . S
C1141 H1164 0.950 . S
C1142 C1141 1.349 . S
C1142 C1154 1.349 . S
C1143 C1141 1.327 . S
C1143 C1159 1.429 . S
C1143 H1165 0.950 . S
C1144 H1140 0.949 . S
C1144 C1152 1.574 . S
C1144 C1160 1.368 . S
H1145 C1153 0.950 . S
H1146 C1151 0.950 . S
H1147 C1152 0.949 . S
H1148 C1154 0.950 . S
H1149 C1155 0.950 . S
H1150 C1156 0.949 . S
C1151 H1146 0.950 . S
C1151 C1153 1.327 . S
C1151 C1157 1.429 . S
C1152 C1144 1.574 . S
C1152 H1147 0.949 . S
C1152 C1158 1.368 . S
C1153 C1137 1.349 . S
C1153 H1145 0.950 . S
C1153 C1151 1.327 . S
C1154 C1142 1.349 . S
C1154 H1148 0.950 . S
C1154 C1155 1.327 . S
C1155 H1149 0.950 . S
C1155 C1154 1.327 . S
C1155 C1159 1.429 . S
C1156 C1139 1.574 . S
C1156 H1150 0.949 . S
C1156 C1160 1.368 . S
C1157 C1138 1.429 . S
C1157 C1151 1.429 . S
C1157 C1158 1.523 . S
C1158 C1139 1.368 . S
C1158 C1152 1.368 . S
C1158 C1157 1.523 . S
C1159 C1143 1.429 . S
C1159 C1155 1.429 . S
C1159 C1160 1.523 . S
C1160 C1144 1.368 . S
C1160 C1156 1.368 . S
C1160 C1159 1.523 . S
H1161 C1136 0.950 . S
H1162 C1138 0.950 . S
H1163 C1139 0.949 . S
H1164 C1141 0.950 . S
H1165 C1143 0.950 . S
C1166 C1167 1.349 . S
C1166 C1168 1.327 . S
C1166 H1191 0.950 . S
C1167 C1166 1.349 . S
C1167 C1183 1.349 . S
C1168 C1166 1.327 . S
C1168 C1187 1.429 . S
C1168 H1192 0.950 . S
C1169 C1186 1.574 . S
C1169 C1188 1.368 . S
C1169 H1193 0.949 . S
H1170 C1174 0.949 . S
C1171 C1172 1.349 . S
C1171 C1173 1.327 . S
C1171 H1194 0.950 . S
C1172 C1171 1.349 . S
C1172 C1184 1.349 . S
C1173 C1171 1.327 . S
C1173 C1189 1.429 . S
C1173 H1195 0.950 . S
C1174 H1170 0.949 . S
C1174 C1182 1.574 . S
C1174 C1190 1.368 . S
H1175 C1183 0.950 . S
H1176 C1181 0.950 . S
H1177 C1182 0.949 . S
H1178 C1184 0.950 . S
H1179 C1185 0.950 . S
H1180 C1186 0.949 . S
C1181 H1176 0.950 . S
C1181 C1183 1.327 . S
C1181 C1187 1.429 . S
C1182 C1174 1.574 . S
C1182 H1177 0.949 . S
C1182 C1188 1.368 . S
C1183 C1167 1.349 . S
C1183 H1175 0.950 . S
C1183 C1181 1.327 . S
C1184 C1172 1.349 . S
C1184 H1178 0.950 . S
C1184 C1185 1.327 . S
C1185 H1179 0.950 . S
C1185 C1184 1.327 . S
C1185 C1189 1.429 . S
C1186 C1169 1.574 . S
C1186 H1180 0.949 . S
C1186 C1190 1.368 . S
C1187 C1168 1.429 . S
C1187 C1181 1.429 . S
C1187 C1188 1.523 . S
C1188 C1169 1.368 . S
C1188 C1182 1.368 . S
C1188 C1187 1.523 . S
C1189 C1173 1.429 . S
C1189 C1185 1.429 . S
C1189 C1190 1.523 . S
C1190 C1174 1.368 . S
C1190 C1186 1.368 . S
C1190 C1189 1.523 . S
H1191 C1166 0.950 . S
H1192 C1168 0.950 . S
H1193 C1169 0.949 . S
H1194 C1171 0.950 . S
H1195 C1173 0.950 . S
C1196 C1197 1.349 . S
C1196 C1198 1.327 . S
C1196 H1221 0.950 . S
C1197 C1196 1.349 . S
C1197 C1213 1.349 . S
C1198 C1196 1.327 . S
C1198 C1217 1.429 . S
C1198 H1222 0.950 . S
C1199 C1216 1.574 . S
C1199 C1218 1.368 . S
C1199 H1223 0.949 . S
H1200 C1204 0.949 . S
C1201 C1202 1.349 . S
C1201 C1203 1.327 . S
C1201 H1224 0.950 . S
C1202 C1201 1.349 . S
C1202 C1214 1.349 . S
C1203 C1201 1.327 . S
C1203 C1219 1.429 . S
C1203 H1225 0.950 . S
C1204 H1200 0.949 . S
C1204 C1212 1.574 . S
C1204 C1220 1.368 . S
H1205 C1213 0.950 . S
H1206 C1211 0.950 . S
H1207 C1212 0.949 . S
H1208 C1214 0.950 . S
H1209 C1215 0.950 . S
H1210 C1216 0.949 . S
C1211 H1206 0.950 . S
C1211 C1213 1.327 . S
C1211 C1217 1.429 . S
C1212 C1204 1.574 . S
C1212 H1207 0.949 . S
C1212 C1218 1.368 . S
C1213 C1197 1.349 . S
C1213 H1205 0.950 . S
C1213 C1211 1.327 . S
C1214 C1202 1.349 . S
C1214 H1208 0.950 . S
C1214 C1215 1.327 . S
C1215 H1209 0.950 . S
C1215 C1214 1.327 . S
C1215 C1219 1.429 . S
C1216 C1199 1.574 . S
C1216 H1210 0.949 . S
C1216 C1220 1.368 . S
C1217 C1198 1.429 . S
C1217 C1211 1.429 . S
C1217 C1218 1.523 . S
C1218 C1199 1.368 . S
C1218 C1212 1.368 . S
C1218 C1217 1.523 . S
C1219 C1203 1.429 . S
C1219 C1215 1.429 . S
C1219 C1220 1.523 . S
C1220 C1204 1.368 . S
C1220 C1216 1.368 . S
C1220 C1219 1.523 . S
H1221 C1196 0.950 . S
H1222 C1198 0.950 . S
H1223 C1199 0.949 . S
H1224 C1201 0.950 . S
H1225 C1203 0.950 . S
C1226 C1227 1.349 . S
C1226 C1228 1.327 . S
C1226 H1251 0.950 . S
C1227 C1226 1.349 . S
C1227 C1243 1.349 . S
C1228 C1226 1.327 . S
C1228 C1247 1.429 . S
C1228 H1252 0.950 . S
C1229 C1246 1.574 . S
C1229 C1248 1.368 . S
C1229 H1253 0.949 . S
H1230 C1234 0.949 . S
C1231 C1232 1.349 . S
C1231 C1233 1.327 . S
C1231 H1254 0.950 . S
C1232 C1231 1.349 . S
C1232 C1244 1.349 . S
C1233 C1231 1.327 . S
C1233 C1249 1.429 . S
C1233 H1255 0.950 . S
C1234 H1230 0.949 . S
C1234 C1242 1.574 . S
C1234 C1250 1.368 . S
H1235 C1243 0.950 . S
H1236 C1241 0.950 . S
H1237 C1242 0.949 . S
H1238 C1244 0.950 . S
H1239 C1245 0.950 . S
H1240 C1246 0.949 . S
C1241 H1236 0.950 . S
C1241 C1243 1.327 . S
C1241 C1247 1.429 . S
C1242 C1234 1.574 . S
C1242 H1237 0.949 . S
C1242 C1248 1.368 . S
C1243 C1227 1.349 . S
C1243 H1235 0.950 . S
C1243 C1241 1.327 . S
C1244 C1232 1.349 . S
C1244 H1238 0.950 . S
C1244 C1245 1.327 . S
C1245 H1239 0.950 . S
C1245 C1244 1.327 . S
C1245 C1249 1.429 . S
C1246 C1229 1.574 . S
C1246 H1240 0.949 . S
C1246 C1250 1.368 . S
C1247 C1228 1.429 . S
C1247 C1241 1.429 . S
C1247 C1248 1.523 . S
C1248 C1229 1.368 . S
C1248 C1242 1.368 . S
C1248 C1247 1.523 . S
C1249 C1233 1.429 . S
C1249 C1245 1.429 . S
C1249 C1250 1.523 . S
C1250 C1234 1.368 . S
C1250 C1246 1.368 . S
C1250 C1249 1.523 . S
H1251 C1226 0.950 . S
H1252 C1228 0.950 . S
H1253 C1229 0.949 . S
H1254 C1231 0.950 . S
H1255 C1233 0.950 . S
C1256 C1257 1.349 . S
C1256 C1258 1.327 . S
C1256 H1281 0.950 . S
C1257 C1256 1.349 . S
C1257 C1273 1.349 . S
C1258 C1256 1.327 . S
C1258 C1277 1.429 . S
C1258 H1282 0.950 . S
C1259 C1276 1.574 . S
C1259 C1278 1.368 . S
C1259 H1283 0.949 . S
H1260 C1264 0.949 . S
C1261 C1262 1.349 . S
C1261 C1263 1.327 . S
C1261 H1284 0.950 . S
C1262 C1261 1.349 . S
C1262 C1274 1.349 . S
C1263 C1261 1.327 . S
C1263 C1279 1.429 . S
C1263 H1285 0.950 . S
C1264 H1260 0.949 . S
C1264 C1272 1.574 . S
C1264 C1280 1.368 . S
H1265 C1273 0.950 . S
H1266 C1271 0.950 . S
H1267 C1272 0.949 . S
H1268 C1274 0.950 . S
H1269 C1275 0.950 . S
H1270 C1276 0.949 . S
C1271 H1266 0.950 . S
C1271 C1273 1.327 . S
C1271 C1277 1.429 . S
C1272 C1264 1.574 . S
C1272 H1267 0.949 . S
C1272 C1278 1.368 . S
C1273 C1257 1.349 . S
C1273 H1265 0.950 . S
C1273 C1271 1.327 . S
C1274 C1262 1.349 . S
C1274 H1268 0.950 . S
C1274 C1275 1.327 . S
C1275 H1269 0.950 . S
C1275 C1274 1.327 . S
C1275 C1279 1.429 . S
C1276 C1259 1.574 . S
C1276 H1270 0.949 . S
C1276 C1280 1.368 . S
C1277 C1258 1.429 . S
C1277 C1271 1.429 . S
C1277 C1278 1.523 . S
C1278 C1259 1.368 . S
C1278 C1272 1.368 . S
C1278 C1277 1.523 . S
C1279 C1263 1.429 . S
C1279 C1275 1.429 . S
C1279 C1280 1.523 . S
C1280 C1264 1.368 . S
C1280 C1276 1.368 . S
C1280 C1279 1.523 . S
H1281 C1256 0.950 . S
H1282 C1258 0.950 . S
H1283 C1259 0.949 . S
H1284 C1261 0.950 . S
H1285 C1263 0.950 . S
C1286 C1287 1.349 . S
C1286 C1288 1.327 . S
C1286 H1311 0.950 . S
C1287 C1286 1.349 . S
C1287 C1303 1.349 . S
C1288 C1286 1.327 . S
C1288 C1307 1.429 . S
C1288 H1312 0.950 . S
C1289 C1306 1.574 . S
C1289 C1308 1.368 . S
C1289 H1313 0.949 . S
H1290 C1294 0.949 . S
C1291 C1292 1.349 . S
C1291 C1293 1.327 . S
C1291 H1314 0.950 . S
C1292 C1291 1.349 . S
C1292 C1304 1.349 . S
C1293 C1291 1.327 . S
C1293 C1309 1.429 . S
C1293 H1315 0.950 . S
C1294 H1290 0.949 . S
C1294 C1302 1.574 . S
C1294 C1310 1.368 . S
H1295 C1303 0.950 . S
H1296 C1301 0.950 . S
H1297 C1302 0.949 . S
H1298 C1304 0.950 . S
H1299 C1305 0.950 . S
H1300 C1306 0.949 . S
C1301 H1296 0.950 . S
C1301 C1303 1.327 . S
C1301 C1307 1.429 . S
C1302 C1294 1.574 . S
C1302 H1297 0.949 . S
C1302 C1308 1.368 . S
C1303 C1287 1.349 . S
C1303 H1295 0.950 . S
C1303 C1301 1.327 . S
C1304 C1292 1.349 . S
C1304 H1298 0.950 . S
C1304 C1305 1.327 . S
C1305 H1299 0.950 . S
C1305 C1304 1.327 . S
C1305 C1309 1.429 . S
C1306 C1289 1.574 . S
C1306 H1300 0.949 . S
C1306 C1310 1.368 . S
C1307 C1288 1.429 . S
C1307 C1301 1.429 . S
C1307 C1308 1.523 . S
C1308 C1289 1.368 . S
C1308 C1302 1.368 . S
C1308 C1307 1.523 . S
C1309 C1293 1.429 . S
C1309 C1305 1.429 . S
C1309 C1310 1.523 . S
C1310 C1294 1.368 . S
C1310 C1306 1.368 . S
C1310 C1309 1.523 . S
H1311 C1286 0.950 . S
H1312 C1288 0.950 . S
H1313 C1289 0.949 . S
H1314 C1291 0.950 . S
H1315 C1293 0.950 . S
C1316 C1317 1.349 . S
C1316 C1318 1.327 . S
C1316 H1341 0.950 . S
C1317 C1316 1.349 . S
C1317 C1333 1.349 . S
C1318 C1316 1.327 . S
C1318 C1337 1.429 . S
C1318 H1342 0.950 . S
C1319 C1336 1.574 . S
C1319 C1338 1.368 . S
C1319 H1343 0.949 . S
H1320 C1324 0.949 . S
C1321 C1322 1.349 . S
C1321 C1323 1.327 . S
C1321 H1344 0.950 . S
C1322 C1321 1.349 . S
C1322 C1334 1.349 . S
C1323 C1321 1.327 . S
C1323 C1339 1.429 . S
C1323 H1345 0.950 . S
C1324 H1320 0.949 . S
C1324 C1332 1.574 . S
C1324 C1340 1.368 . S
H1325 C1333 0.950 . S
H1326 C1331 0.950 . S
H1327 C1332 0.949 . S
H1328 C1334 0.950 . S
H1329 C1335 0.950 . S
H1330 C1336 0.949 . S
C1331 H1326 0.950 . S
C1331 C1333 1.327 . S
C1331 C1337 1.429 . S
C1332 C1324 1.574 . S
C1332 H1327 0.949 . S
C1332 C1338 1.368 . S
C1333 C1317 1.349 . S
C1333 H1325 0.950 . S
C1333 C1331 1.327 . S
C1334 C1322 1.349 . S
C1334 H1328 0.950 . S
C1334 C1335 1.327 . S
C1335 H1329 0.950 . S
C1335 C1334 1.327 . S
C1335 C1339 1.429 . S
C1336 C1319 1.574 . S
C1336 H1330 0.949 . S
C1336 C1340 1.368 . S
C1337 C1318 1.429 . S
C1337 C1331 1.429 . S
C1337 C1338 1.523 . S
C1338 C1319 1.368 . S
C1338 C1332 1.368 . S
C1338 C1337 1.523 . S
C1339 C1323 1.429 . S
C1339 C1335 1.429 . S
C1339 C1340 1.523 . S
C1340 C1324 1.368 . S
C1340 C1336 1.368 . S
C1340 C1339 1.523 . S
H1341 C1316 0.950 . S
H1342 C1318 0.950 . S
H1343 C1319 0.949 . S
H1344 C1321 0.950 . S
H1345 C1323 0.950 . S
C1346 C1347 1.349 . S
C1346 C1348 1.327 . S
C1346 H1371 0.950 . S
C1347 C1346 1.349 . S
C1347 C1363 1.349 . S
C1348 C1346 1.327 . S
C1348 C1367 1.429 . S
C1348 H1372 0.950 . S
C1349 C1366 1.574 . S
C1349 C1368 1.368 . S
C1349 H1373 0.949 . S
H1350 C1354 0.949 . S
C1351 C1352 1.349 . S
C1351 C1353 1.327 . S
C1351 H1374 0.950 . S
C1352 C1351 1.349 . S
C1352 C1364 1.349 . S
C1353 C1351 1.327 . S
C1353 C1369 1.429 . S
C1353 H1375 0.950 . S
C1354 H1350 0.949 . S
C1354 C1362 1.574 . S
C1354 C1370 1.368 . S
H1355 C1363 0.950 . S
H1356 C1361 0.950 . S
H1357 C1362 0.949 . S
H1358 C1364 0.950 . S
H1359 C1365 0.950 . S
H1360 C1366 0.949 . S
C1361 H1356 0.950 . S
C1361 C1363 1.327 . S
C1361 C1367 1.429 . S
C1362 C1354 1.574 . S
C1362 H1357 0.949 . S
C1362 C1368 1.368 . S
C1363 C1347 1.349 . S
C1363 H1355 0.950 . S
C1363 C1361 1.327 . S
C1364 C1352 1.349 . S
C1364 H1358 0.950 . S
C1364 C1365 1.327 . S
C1365 H1359 0.950 . S
C1365 C1364 1.327 . S
C1365 C1369 1.429 . S
C1366 C1349 1.574 . S
C1366 H1360 0.949 . S
C1366 C1370 1.368 . S
C1367 C1348 1.429 . S
C1367 C1361 1.429 . S
C1367 C1368 1.523 . S
C1368 C1349 1.368 . S
C1368 C1362 1.368 . S
C1368 C1367 1.523 . S
C1369 C1353 1.429 . S
C1369 C1365 1.429 . S
C1369 C1370 1.523 . S
C1370 C1354 1.368 . S
C1370 C1366 1.368 . S
C1370 C1369 1.523 . S
H1371 C1346 0.950 . S
H1372 C1348 0.950 . S
H1373 C1349 0.949 . S
H1374 C1351 0.950 . S
H1375 C1353 0.950 . S
C657 C242 1.459 . S
C662 C394 1.473 . S
C692 C478 1.471 . S
C687 C301 1.487 . S
C722 C471 1.479 . S
C717 C162 1.449 . S
C747 C221 1.479 . S
C752 C387 1.476 . S
C782 C551 1.473 . S
C777 C82 1.484 . S
C812 C635 1.471 . S
C807 C141 1.464 . S
C837 C2 1.477 . S
C842 C628 1.479 . S
C867 C61 1.453 . S
C872 C544 1.476 . S
C902 C378 1.354 . S
C897 C42 1.504 1_554 S
C932 C462 1.352 . S
C927 C21 1.530 . S
C962 C473 1.409 . S
C957 C122 1.526 1_556 S
C992 C389 1.408 . S
C987 C101 1.550 . S
C1022 C557 1.354 . S
C1017 C202 1.530 1_556 S
C1047 C181 1.500 . S
C1052 C641 1.352 . S
C1082 C630 1.408 . S
C1077 C282 1.549 1_554 S
C1107 C261 1.523 . S
C1112 C546 1.409 . S
C1142 C376 1.619 . S
C1137 C15 1.614 . S
C1172 C460 1.606 . S
C1167 C55 1.600 . S
C1197 C95 1.602 . S
C1202 C467 1.594 . S
C1232 C383 1.582 . S
C1227 C135 1.590 . S
C1262 C555 1.619 . S
C1257 C175 1.611 . S
C1287 C215 1.602 . S
C1292 C639 1.605 . S
C1317 C255 1.600 . S
C1322 C646 1.595 . S
C1347 C295 1.592 . S
C1352 C562 1.582 . S
