# Generated by pormake.
# Topology hwx, (6,3)-cn, num edge types: 1
# Building blocks:
#     Node 0, Type 0, BuildingBlock: OJICUG_clean_sbu_0, # of connection points: 6
#     Node 1, Type 0, BuildingBlock: OJICUG_clean_sbu_0, # of connection points: 6
#     Node 2, Type 0, BuildingBlock: OJICUG_clean_sbu_0, # of connection points: 6
#     Node 3, Type 0, BuildingBlock: OJICUG_clean_sbu_0, # of connection points: 6
#     Node 4, Type 1, BuildingBlock: OLANEW_clean_sbu_2, # of connection points: 3
#     Node 5, Type 1, BuildingBlock: OLANEW_clean_sbu_2, # of connection points: 3
#     Node 6, Type 1, BuildingBlock: OLANEW_clean_sbu_2, # of connection points: 3
#     Node 7, Type 1, BuildingBlock: OLANEW_clean_sbu_2, # of connection points: 3
#     Node 8, Type 1, BuildingBlock: OLANEW_clean_sbu_2, # of connection points: 3
#     Node 9, Type 1, BuildingBlock: OLANEW_clean_sbu_2, # of connection points: 3
#     Node 10, Type 1, BuildingBlock: OLANEW_clean_sbu_2, # of connection points: 3
#     Node 11, Type 1, BuildingBlock: OLANEW_clean_sbu_2, # of connection points: 3
#     Edge 12, Type (0, 1), BuildingBlock: KIFKEQ_clean_linker_1, # of connection points: 2
#     Edge 13, Type (0, 1), BuildingBlock: KIFKEQ_clean_linker_1, # of connection points: 2
#     Edge 14, Type (0, 1), BuildingBlock: KIFKEQ_clean_linker_1, # of connection points: 2
#     Edge 15, Type (0, 1), BuildingBlock: KIFKEQ_clean_linker_1, # of connection points: 2
#     Edge 16, Type (0, 1), BuildingBlock: KIFKEQ_clean_linker_1, # of connection points: 2
#     Edge 17, Type (0, 1), BuildingBlock: KIFKEQ_clean_linker_1, # of connection points: 2
#     Edge 18, Type (0, 1), BuildingBlock: KIFKEQ_clean_linker_1, # of connection points: 2
#     Edge 19, Type (0, 1), BuildingBlock: KIFKEQ_clean_linker_1, # of connection points: 2
#     Edge 20, Type (0, 1), BuildingBlock: KIFKEQ_clean_linker_1, # of connection points: 2
#     Edge 21, Type (0, 1), BuildingBlock: KIFKEQ_clean_linker_1, # of connection points: 2
#     Edge 22, Type (0, 1), BuildingBlock: KIFKEQ_clean_linker_1, # of connection points: 2
#     Edge 23, Type (0, 1), BuildingBlock: KIFKEQ_clean_linker_1, # of connection points: 2
#     Edge 24, Type (0, 1), BuildingBlock: KIFKEQ_clean_linker_1, # of connection points: 2
#     Edge 25, Type (0, 1), BuildingBlock: KIFKEQ_clean_linker_1, # of connection points: 2
#     Edge 26, Type (0, 1), BuildingBlock: KIFKEQ_clean_linker_1, # of connection points: 2
#     Edge 27, Type (0, 1), BuildingBlock: KIFKEQ_clean_linker_1, # of connection points: 2
#     Edge 28, Type (0, 1), BuildingBlock: KIFKEQ_clean_linker_1, # of connection points: 2
#     Edge 29, Type (0, 1), BuildingBlock: KIFKEQ_clean_linker_1, # of connection points: 2
#     Edge 30, Type (0, 1), BuildingBlock: KIFKEQ_clean_linker_1, # of connection points: 2
#     Edge 31, Type (0, 1), BuildingBlock: KIFKEQ_clean_linker_1, # of connection points: 2
#     Edge 32, Type (0, 1), BuildingBlock: KIFKEQ_clean_linker_1, # of connection points: 2
#     Edge 33, Type (0, 1), BuildingBlock: KIFKEQ_clean_linker_1, # of connection points: 2
#     Edge 34, Type (0, 1), BuildingBlock: KIFKEQ_clean_linker_1, # of connection points: 2
#     Edge 35, Type (0, 1), BuildingBlock: KIFKEQ_clean_linker_1, # of connection points: 2
# Relax obj value: 0.021
# Max RMSD: 0.063
# Mean RMSD: 0.061
data_MOF--net-hwx--node1-OJICUG_clean_sbu_0--node2-OLANEW_clean_sbu_2--edge1-KIFKEQ_clean_linker_1
_symmetry_space_group_name_H-M    P1
_symmetry_Int_Tables_number       1
_symmetry_cell_setting            triclinic
loop_
_symmetry_equiv_pos_as_xyz
'x, y, z'
_cell_length_a     56.562713
_cell_length_b     56.575382
_cell_length_c     22.13473
_cell_angle_alpha  85.480323
_cell_angle_beta   94.501027
_cell_angle_gamma 90.03572
loop_
_atom_site_label
_atom_site_type_symbol
_atom_site_fract_x
_atom_site_fract_y
_atom_site_fract_z
_atom_type_partial_charge
Sc0 Sc 0.22897 0.22943 0.0899 0.0
Sc1 Sc 0.19224 0.19073 0.00746 0.0
Sc2 Sc 0.23142 0.22917 0.93189 0.0
O3 O 0.21749 0.21643 0.00977 0.0
C4 C 0.22616 0.27637 0.00082 0.0
C5 C 0.17364 0.22258 0.10636 0.0
C6 C 0.1763 0.22529 0.89029 0.0
C7 C 0.22574 0.17383 0.12626 0.0
C8 C 0.27731 0.22638 0.02441 0.0
C9 C 0.22666 0.17396 0.91177 0.0
O10 O 0.22427 0.26587 0.05323 0.0
O11 O 0.16999 0.20839 0.06493 0.0
O12 O 0.19659 0.2347 0.88564 0.0
O13 O 0.23462 0.19421 0.1335 0.0
O14 O 0.26743 0.22503 0.97118 0.0
O15 O 0.21128 0.16978 0.95 0.0
O16 O 0.26562 0.22917 0.0701 0.0
O17 O 0.20982 0.17015 0.08419 0.0
O18 O 0.23491 0.19454 0.89977 0.0
O19 O 0.19396 0.23099 0.12064 0.0
O20 O 0.22986 0.26532 0.95463 0.0
O21 O 0.1723 0.20871 0.93038 0.0
Sc22 Sc 0.27738 0.73847 0.46039 0.0
Sc23 Sc 0.31537 0.69517 0.53992 0.0
Sc24 Sc 0.27828 0.72994 0.61947 0.0
O25 O 0.29035 0.72115 0.53991 0.0
C26 C 0.28009 0.78095 0.54649 0.0
C27 C 0.33252 0.73418 0.44068 0.0
C28 C 0.33373 0.72344 0.65461 0.0
C29 C 0.2818 0.6855 0.42164 0.0
C30 C 0.23077 0.73009 0.53192 0.0
C31 C 0.28326 0.6734 0.64225 0.0
O32 O 0.2805 0.77281 0.4948 0.0
O33 O 0.33652 0.71648 0.47933 0.0
O34 O 0.31386 0.73317 0.66092 0.0
O35 O 0.27289 0.70624 0.41563 0.0
O36 O 0.24172 0.72711 0.58449 0.0
O37 O 0.29703 0.67087 0.60041 0.0
O38 O 0.24122 0.73505 0.48372 0.0
O39 O 0.29736 0.67883 0.46419 0.0
O40 O 0.27605 0.69357 0.65475 0.0
O41 O 0.31214 0.7437 0.42925 0.0
O42 O 0.27866 0.76769 0.59513 0.0
O43 O 0.33645 0.70879 0.61486 0.0
Sc44 Sc 0.76533 0.77485 0.94068 0.0
Sc45 Sc 0.80848 0.80923 0.01776 0.0
Sc46 Sc 0.77505 0.76664 0.09956 0.0
O47 O 0.783 0.7836 0.01931 0.0
C48 C 0.72352 0.7718 0.02954 0.0
C49 C 0.76866 0.83114 0.91804 0.0
C50 C 0.78117 0.82016 0.13406 0.0
C51 C 0.81808 0.78258 0.90004 0.0
C52 C 0.77411 0.72406 0.01287 0.0
C53 C 0.83148 0.77141 0.12052 0.0
O54 O 0.73114 0.77407 0.97696 0.0
O55 O 0.78686 0.83304 0.955 0.0
O56 O 0.77282 0.79937 0.14164 0.0
O57 O 0.79717 0.77444 0.89416 0.0
O58 O 0.77639 0.73211 0.06509 0.0
O59 O 0.83321 0.78846 0.08007 0.0
O60 O 0.77013 0.73734 0.96398 0.0
O61 O 0.82516 0.79514 0.94317 0.0
O62 O 0.81174 0.76202 0.13197 0.0
O63 O 0.75869 0.81141 0.90934 0.0
O64 O 0.73723 0.76922 0.0779 0.0
O65 O 0.79456 0.82638 0.09197 0.0
Sc66 Sc 0.73508 0.27816 0.57909 0.0
Sc67 Sc 0.69356 0.31475 0.488 0.0
Sc68 Sc 0.72962 0.27473 0.42082 0.0
O69 O 0.71938 0.28921 0.49595 0.0
C70 C 0.77935 0.27805 0.49818 0.0
C71 C 0.73115 0.33394 0.58818 0.0
C72 C 0.7241 0.32967 0.37559 0.0
C73 C 0.68096 0.28438 0.60845 0.0
C74 C 0.72802 0.22945 0.51661 0.0
C75 C 0.67349 0.27947 0.39055 0.0
O76 O 0.77031 0.27838 0.54882 0.0
O77 O 0.71354 0.33678 0.54878 0.0
O78 O 0.73261 0.30904 0.37228 0.0
O79 O 0.7019 0.27628 0.62015 0.0
O80 O 0.7276 0.23895 0.46241 0.0
O81 O 0.67056 0.29567 0.42605 0.0
O82 O 0.73059 0.2414 0.56298 0.0
O83 O 0.67493 0.29827 0.56178 0.0
O84 O 0.69367 0.27055 0.38429 0.0
O85 O 0.741 0.3139 0.60302 0.0
O86 O 0.7669 0.27704 0.44814 0.0
O87 O 0.70958 0.33423 0.41426 0.0
O88 O 0.19391 0.5219 0.82917 0.0
Cd89 Cd 0.16617 0.49497 0.87856 0.0
O90 O 0.20776 0.52968 0.92032 0.0
Cd91 Cd 0.22892 0.54631 0.99232 0.0
O92 O 0.24182 0.56476 0.07137 0.0
C93 C 0.24194 0.58728 0.06668 0.0
O94 O 0.23506 0.59855 0.01406 0.0
C95 C 0.20785 0.53372 0.86292 0.0
C96 C 0.18317 0.44893 0.90708 0.0
O97 O 0.17221 0.45505 0.85531 0.0
O98 O 0.18646 0.46474 0.94524 0.0
O99 O 0.98762 0.691 0.35822 0.0
Cd100 Cd 0.01443 0.66793 0.43266 0.0
O101 O 0.97742 0.70703 0.43885 0.0
Cd102 Cd 0.95831 0.7292 0.49567 0.0
O103 O 0.93989 0.74331 0.5682 0.0
C104 C 0.91852 0.75034 0.55804 0.0
O105 O 0.90812 0.74969 0.50299 0.0
C106 C 0.97417 0.70503 0.38192 0.0
C107 C 0.06031 0.68525 0.45078 0.0
O108 O 0.05562 0.66879 0.41512 0.0
O109 O 0.04319 0.69397 0.47671 0.0
O110 O 0.76979 0.47305 0.05663 0.0
Cd111 Cd 0.78087 0.49861 0.96896 0.0
O112 O 0.80443 0.45493 0.06743 0.0
Cd113 Cd 0.81369 0.46944 0.97836 0.0
O114 O 0.80579 0.45948 0.88581 0.0
C115 C 0.78408 0.45528 0.87136 0.0
O116 O 0.7684 0.45902 0.91037 0.0
C117 C 0.78404 0.45809 0.08601 0.0
C118 C 0.77891 0.54692 0.98443 0.0
O119 O 0.76099 0.53616 0.96054 0.0
O120 O 0.79766 0.53472 0.00179 0.0
O121 O 0.02981 0.26073 0.56647 0.0
Cd122 Cd 0.00455 0.25988 0.47178 0.0
O123 O 0.0453 0.29558 0.54245 0.0
Cd124 Cd 0.0269 0.29769 0.45195 0.0
O125 O 0.03811 0.28404 0.36947 0.0
C126 C 0.05063 0.26535 0.38106 0.0
O127 O 0.05339 0.25614 0.43758 0.0
C128 C 0.04387 0.27744 0.5797 0.0
C129 C 0.95652 0.26622 0.48507 0.0
O130 O 0.96632 0.24573 0.49541 0.0
O131 O 0.96953 0.28384 0.46915 0.0
O132 O 0.68463 0.98428 0.66891 0.0
Cd133 Cd 0.66322 0.01232 0.5945 0.0
O134 O 0.70769 0.97613 0.59844 0.0
Cd135 Cd 0.73271 0.95551 0.55291 0.0
O136 O 0.74778 0.93549 0.48445 0.0
C137 C 0.73345 0.93037 0.44032 0.0
O138 O 0.71124 0.93733 0.43916 0.0
C139 C 0.70153 0.97216 0.65236 0.0
C140 C 0.68238 0.05768 0.58404 0.0
O141 O 0.66722 0.05209 0.6228 0.0
O142 O 0.68887 0.04161 0.55097 0.0
O143 O 0.52363 0.18869 0.18901 0.0
Cd144 Cd 0.49607 0.1651 0.12829 0.0
O145 O 0.52877 0.21161 0.10688 0.0
Cd146 Cd 0.54717 0.23713 0.04805 0.0
O147 O 0.56626 0.25169 0.97168 0.0
C148 C 0.5714 0.23704 0.93397 0.0
O149 O 0.5649 0.21483 0.9433 0.0
C150 C 0.53411 0.2061 0.16312 0.0
C151 C 0.45025 0.1835 0.10838 0.0
O152 O 0.45637 0.16948 0.15535 0.0
O153 O 0.46598 0.18918 0.07125 0.0
O154 O 0.26971 0.03112 0.46474 0.0
Cd155 Cd 0.2796 0.00795 0.56178 0.0
O156 O 0.30504 0.04738 0.46467 0.0
Cd157 Cd 0.31357 0.0352 0.55954 0.0
O158 O 0.30418 0.04757 0.64537 0.0
C159 C 0.2826 0.0537 0.64639 0.0
O160 O 0.26789 0.05073 0.59865 0.0
C161 C 0.28451 0.04455 0.43852 0.0
C162 C 0.2796 0.959 0.55556 0.0
O163 O 0.26098 0.96994 0.56812 0.0
O164 O 0.29808 0.9713 0.54493 0.0
O165 O 0.47569 0.74212 0.99405 0.0
Cd166 Cd 0.50065 0.74378 0.0893 0.0
O167 O 0.47286 0.78058 0.97086 0.0
Cd168 Cd 0.48845 0.78666 0.06131 0.0
O169 O 0.47218 0.78235 0.14741 0.0
C170 C 0.44979 0.78461 0.13904 0.0
O171 O 0.44037 0.79005 0.08349 0.0
C172 C 0.46824 0.75952 0.95759 0.0
C173 C 0.54846 0.75179 0.07235 0.0
O174 O 0.53965 0.73093 0.07142 0.0
O175 O 0.53465 0.76895 0.08088 0.0
H176 H 0.17655 0.23929 0.21852 0.0
H177 H 0.1258 0.21975 0.07478 0.0
H178 H 0.14423 0.24777 0.28002 0.0
H179 H 0.09327 0.22872 0.13685 0.0
H180 H 0.05018 0.28008 0.25959 0.0
H181 H 0.07828 0.26856 0.18797 0.0
H182 H 0.11169 0.21909 0.32697 0.0
H183 H 0.08372 0.23014 0.39806 0.0
C184 C 0.1585 0.23699 0.19978 0.0
C185 C 0.15374 0.22877 0.14181 0.0
C186 C 0.14003 0.24172 0.23519 0.0
C187 C 0.11638 0.2387 0.21317 0.0
C188 C 0.11143 0.23114 0.15465 0.0
C189 C 0.13 0.22596 0.11941 0.0
C190 C 0.06325 0.26643 0.27444 0.0
C191 C 0.06492 0.25624 0.3347 0.0
C192 C 0.07923 0.25983 0.23345 0.0
C193 C 0.09721 0.24318 0.25247 0.0
C194 C 0.09809 0.23215 0.31159 0.0
C195 C 0.08202 0.23848 0.35216 0.0
H196 H 0.2959 0.62664 0.63669 0.0
H197 H 0.25084 0.67181 0.7276 0.0
H198 H 0.28069 0.5919 0.69371 0.0
H199 H 0.23534 0.63731 0.78282 0.0
H200 H 0.2234 0.57473 0.91043 0.0
H201 H 0.24501 0.60695 0.86125 0.0
H202 H 0.24469 0.56904 0.69915 0.0
H203 H 0.22436 0.53606 0.75025 0.0
C204 C 0.28279 0.6292 0.66875 0.0
C205 C 0.27465 0.65209 0.67746 0.0
C206 C 0.27399 0.60927 0.70126 0.0
C207 C 0.25684 0.61177 0.74312 0.0
C208 C 0.24888 0.63468 0.75198 0.0
C209 C 0.25768 0.65453 0.71979 0.0
C210 C 0.22883 0.57276 0.86542 0.0
C211 C 0.22268 0.55253 0.83499 0.0
C212 C 0.24076 0.59153 0.83651 0.0
C213 C 0.24651 0.59071 0.77599 0.0
C214 C 0.24085 0.57019 0.74599 0.0
C215 C 0.22902 0.55136 0.77513 0.0
H216 H 0.87765 0.78586 0.11156 0.0
H217 H 0.83456 0.73638 0.21326 0.0
H218 H 0.91285 0.7716 0.17508 0.0
H219 H 0.86961 0.72207 0.27564 0.0
H220 H 0.93111 0.71799 0.41718 0.0
H221 H 0.89773 0.73584 0.35397 0.0
H222 H 0.9382 0.73573 0.19642 0.0
H223 H 0.97212 0.71871 0.26063 0.0
C224 C 0.87565 0.77192 0.14718 0.0
C225 C 0.85318 0.76237 0.15729 0.0
C226 C 0.89585 0.7637 0.18343 0.0
C227 C 0.89401 0.74585 0.23076 0.0
C228 C 0.87161 0.73616 0.24035 0.0
C229 C 0.85149 0.74428 0.20414 0.0
C230 C 0.93325 0.72255 0.3696 0.0
C231 C 0.95449 0.71747 0.34427 0.0
C232 C 0.9139 0.73234 0.33301 0.0
C233 C 0.91525 0.73712 0.27006 0.0
C234 C 0.93666 0.73248 0.24483 0.0
C235 C 0.95603 0.72263 0.28152 0.0
H236 H 0.71186 0.37866 0.58231 0.0
H237 H 0.7713 0.33637 0.66463 0.0
H238 H 0.72572 0.41187 0.63941 0.0
H239 H 0.78485 0.36938 0.7219 0.0
H240 H 0.8128 0.43629 0.79334 0.0
H241 H 0.80097 0.40994 0.7142 0.0
H242 H 0.72749 0.41911 0.74809 0.0
H243 H 0.7392 0.44561 0.82637 0.0
C244 C 0.72796 0.37647 0.61213 0.0
C245 C 0.74031 0.35473 0.61934 0.0
C246 C 0.73585 0.3955 0.6449 0.0
C247 C 0.75635 0.39323 0.68518 0.0
C248 C 0.76916 0.37181 0.69065 0.0
C249 C 0.76123 0.35278 0.65822 0.0
C250 C 0.79409 0.43307 0.78301 0.0
C251 C 0.77695 0.44277 0.81669 0.0
C252 C 0.78734 0.41788 0.73794 0.0
C253 C 0.76333 0.41223 0.72546 0.0
C254 C 0.74612 0.42321 0.75636 0.0
C255 C 0.75286 0.43829 0.80154 0.0
H256 H 0.67081 0.23827 0.33432 0.0
H257 H 0.62874 0.29886 0.36872 0.0
H258 H 0.63651 0.2217 0.27965 0.0
H259 H 0.59427 0.28209 0.31332 0.0
H260 H 0.54794 0.25263 0.14858 0.0
H261 H 0.58138 0.2714 0.20339 0.0
H262 H 0.59693 0.20537 0.31056 0.0
H263 H 0.56381 0.18664 0.25573 0.0
C264 C 0.65428 0.24815 0.33001 0.0
C265 C 0.65254 0.26991 0.35606 0.0
C266 C 0.6346 0.23855 0.29893 0.0
C267 C 0.61273 0.25056 0.29251 0.0
C268 C 0.61098 0.27252 0.31744 0.0
C269 C 0.63066 0.28203 0.34937 0.0
C270 C 0.55868 0.24211 0.18339 0.0
C271 C 0.55357 0.21806 0.19711 0.0
C272 C 0.57759 0.25292 0.21523 0.0
C273 C 0.59184 0.23976 0.2608 0.0
C274 C 0.58642 0.21585 0.27512 0.0
C275 C 0.56739 0.20518 0.24396 0.0
H276 H 0.26556 0.17345 0.84618 0.0
H277 H 0.20802 0.12936 0.90585 0.0
H278 H 0.27961 0.14129 0.79127 0.0
H279 H 0.22227 0.0971 0.85079 0.0
H280 H 0.23724 0.06431 0.6681 0.0
H281 H 0.22434 0.09115 0.73998 0.0
H282 H 0.29709 0.10025 0.80864 0.0
H283 H 0.31011 0.07339 0.73644 0.0
C284 C 0.25594 0.15688 0.84782 0.0
C285 C 0.23554 0.15407 0.88004 0.0
C286 C 0.26416 0.13836 0.81684 0.0
C287 C 0.25207 0.11668 0.81694 0.0
C288 C 0.23186 0.11369 0.84977 0.0
C289 C 0.22375 0.13215 0.88134 0.0
C290 C 0.25047 0.07173 0.69917 0.0
C291 C 0.27472 0.06694 0.69617 0.0
C292 C 0.24305 0.087 0.74056 0.0
C293 C 0.25974 0.09794 0.77947 0.0
C294 C 0.28389 0.09226 0.77859 0.0
C295 C 0.29131 0.07678 0.73754 0.0
H296 H 0.33362 0.77657 0.37331 0.0
H297 H 0.3757 0.71365 0.42833 0.0
H298 H 0.36374 0.79091 0.30729 0.0
H299 H 0.4057 0.72786 0.36078 0.0
H300 H 0.46238 0.76853 0.25772 0.0
H301 H 0.43573 0.75827 0.33777 0.0
H302 H 0.37553 0.77863 0.21213 0.0
H303 H 0.40188 0.78924 0.1333 0.0
C304 C 0.34934 0.7658 0.37149 0.0
C305 C 0.35207 0.74377 0.40543 0.0
C306 C 0.36659 0.77402 0.33348 0.0
C307 C 0.38694 0.76036 0.32806 0.0
C308 C 0.39028 0.73886 0.36419 0.0
C309 C 0.37302 0.73066 0.40265 0.0
C310 C 0.44346 0.77104 0.24758 0.0
C311 C 0.43424 0.77969 0.18918 0.0
C312 C 0.42822 0.76503 0.29326 0.0
C313 C 0.40353 0.76771 0.28137 0.0
C314 C 0.39446 0.77674 0.22321 0.0
C315 C 0.40961 0.78268 0.17778 0.0
H316 H 0.78986 0.87452 0.90047 0.0
H317 H 0.72546 0.83655 0.85392 0.0
H318 H 0.77417 0.90944 0.83801 0.0
H319 H 0.70995 0.87137 0.79173 0.0
H320 H 0.68017 0.9459 0.7402 0.0
H321 H 0.6967 0.91263 0.80702 0.0
H322 H 0.7635 0.921 0.72597 0.0
H323 H 0.74702 0.95465 0.65962 0.0
C324 C 0.77234 0.87364 0.87726 0.0
C325 C 0.75893 0.85271 0.88224 0.0
C326 C 0.76345 0.89358 0.84118 0.0
C327 C 0.74085 0.89311 0.81003 0.0
C328 C 0.72734 0.87232 0.81566 0.0
C329 C 0.7363 0.85233 0.85109 0.0
C330 C 0.69842 0.94071 0.73679 0.0
C331 C 0.71217 0.95257 0.69384 0.0
C332 C 0.70783 0.92158 0.7748 0.0
C333 C 0.73131 0.91409 0.77132 0.0
C334 C 0.74533 0.9264 0.72962 0.0
C335 C 0.73581 0.94542 0.69106 0.0
H336 H 0.80932 0.75547 0.80421 0.0
H337 H 0.86355 0.79895 0.88797 0.0
H338 H 0.83441 0.74925 0.72299 0.0
H339 H 0.8887 0.79279 0.80541 0.0
H340 H 0.9343 0.75247 0.67779 0.0
H341 H 0.911 0.76098 0.76195 0.0
H342 H 0.84902 0.77294 0.63635 0.0
H343 H 0.87212 0.76415 0.55248 0.0
C344 C 0.82661 0.76374 0.80546 0.0
C345 C 0.83431 0.77786 0.8527 0.0
C346 C 0.84094 0.76028 0.75846 0.0
C347 C 0.86341 0.77079 0.75728 0.0
C348 C 0.87147 0.78443 0.80517 0.0
C349 C 0.85704 0.78798 0.85238 0.0
C350 C 0.91574 0.75708 0.66808 0.0
C351 C 0.90501 0.75741 0.60846 0.0
C352 C 0.90243 0.76207 0.7163 0.0
C353 C 0.87812 0.76739 0.70589 0.0
C354 C 0.86763 0.76847 0.64599 0.0
C355 C 0.88091 0.76356 0.59785 0.0
H356 H 0.75546 0.32766 0.28797 0.0
H357 H 0.71157 0.3767 0.37042 0.0
H358 H 0.77019 0.3603 0.22353 0.0
H359 H 0.72673 0.40943 0.30645 0.0
H360 H 0.7397 0.45532 0.1277 0.0
H361 H 0.72511 0.42507 0.20001 0.0
H362 H 0.79553 0.39487 0.23182 0.0
H363 H 0.81005 0.42477 0.15878 0.0
C364 C 0.74893 0.34538 0.29244 0.0
C365 C 0.73229 0.34948 0.33448 0.0
C366 C 0.75756 0.36415 0.25582 0.0
C367 C 0.74981 0.38751 0.26027 0.0
C368 C 0.73295 0.39163 0.30168 0.0
C369 C 0.72431 0.37284 0.33843 0.0
C370 C 0.75216 0.44246 0.15082 0.0
C371 C 0.776 0.44234 0.13697 0.0
C372 C 0.74378 0.42513 0.19236 0.0
C373 C 0.75908 0.40734 0.22095 0.0
C374 C 0.78318 0.40801 0.20949 0.0
C375 C 0.79154 0.42528 0.16799 0.0
H376 H 0.13749 0.20103 0.8489 0.0
H377 H 0.16963 0.27029 0.83793 0.0
H378 H 0.10451 0.21588 0.77935 0.0
H379 H 0.1359 0.28575 0.77145 0.0
H380 H 0.08733 0.29758 0.59606 0.0
H381 H 0.11866 0.28612 0.67392 0.0
H382 H 0.07039 0.2385 0.7645 0.0
H383 H 0.03951 0.24893 0.68378 0.0
C384 C 0.13731 0.21954 0.83207 0.0
C385 C 0.15621 0.23444 0.8483 0.0
C386 C 0.11823 0.2282 0.79264 0.0
C387 C 0.11729 0.25214 0.76959 0.0
C388 C 0.1361 0.26712 0.78703 0.0
C389 C 0.15545 0.2583 0.82534 0.0
C390 C 0.0833 0.28497 0.63322 0.0
C391 C 0.06102 0.27403 0.6336 0.0
C392 C 0.10131 0.2784 0.67821 0.0
C393 C 0.09733 0.26106 0.72549 0.0
C394 C 0.07445 0.25135 0.72795 0.0
C395 C 0.05659 0.25753 0.68211 0.0
H396 H 0.24507 0.69082 0.33386 0.0
H397 H 0.30232 0.64301 0.40232 0.0
H398 H 0.23545 0.66609 0.2506 0.0
H399 H 0.29289 0.61843 0.31787 0.0
H400 H 0.25433 0.56967 0.1839 0.0
H401 H 0.26313 0.59211 0.27278 0.0
H402 H 0.25351 0.65757 0.15906 0.0
H403 H 0.24428 0.63527 0.07077 0.0
C404 C 0.25559 0.67499 0.33132 0.0
C405 C 0.27463 0.66905 0.3746 0.0
C406 C 0.25015 0.66088 0.28327 0.0
C407 C 0.26363 0.64049 0.27702 0.0
C408 C 0.2821 0.63399 0.32151 0.0
C409 C 0.28753 0.64811 0.36986 0.0
C410 C 0.25416 0.58886 0.1779 0.0
C411 C 0.24848 0.60069 0.12027 0.0
C412 C 0.25929 0.6017 0.2288 0.0
C413 C 0.25881 0.62663 0.22312 0.0
C414 C 0.25355 0.63839 0.16526 0.0
C415 C 0.24843 0.62559 0.1145 0.0
H416 H 0.33675 0.75635 0.73952 0.0
H417 H 0.37853 0.70456 0.66034 0.0
H418 H 0.37124 0.76596 0.80596 0.0
H419 H 0.413 0.71446 0.72631 0.0
H420 H 0.45678 0.717 0.91282 0.0
H421 H 0.4254 0.70917 0.83539 0.0
H422 H 0.41092 0.78427 0.8039 0.0
H423 H 0.44219 0.79215 0.88204 0.0
C424 C 0.35327 0.74706 0.73604 0.0
C425 C 0.35475 0.72956 0.69473 0.0
C426 C 0.3731 0.75274 0.77379 0.0
C427 C 0.39487 0.741 0.7713 0.0
C428 C 0.39643 0.72367 0.72968 0.0
C429 C 0.37664 0.71805 0.69176 0.0
C430 C 0.44718 0.7319 0.88878 0.0
C431 C 0.45191 0.75519 0.90397 0.0
C432 C 0.42922 0.7274 0.84421 0.0
C433 C 0.41552 0.74609 0.81395 0.0
C434 C 0.42094 0.76947 0.82715 0.0
C435 C 0.43901 0.77399 0.87153 0.0
H436 H 0.7446 0.81754 0.20726 0.0
H437 H 0.80284 0.8625 0.15668 0.0
H438 H 0.73386 0.84555 0.27834 0.0
H439 H 0.79191 0.89071 0.22858 0.0
H440 H 0.77863 0.9163 0.42216 0.0
H441 H 0.79069 0.89112 0.34477 0.0
H442 H 0.71782 0.88718 0.27225 0.0
H443 H 0.70573 0.91221 0.34907 0.0
C444 C 0.75514 0.83341 0.21125 0.0
C445 C 0.77463 0.83774 0.17626 0.0
C446 C 0.74886 0.84954 0.25177 0.0
C447 C 0.762 0.87033 0.25884 0.0
C448 C 0.78155 0.87474 0.22417 0.0
C449 C 0.7877 0.85867 0.18284 0.0
C450 C 0.76522 0.91016 0.38947 0.0
C451 C 0.7412 0.91611 0.39207 0.0
C452 C 0.77216 0.89588 0.34499 0.0
C453 C 0.75516 0.8871 0.30277 0.0
C454 C 0.73126 0.89348 0.30465 0.0
C455 C 0.72436 0.90789 0.3486 0.0
H456 H 0.68336 0.24696 0.69403 0.0
H457 H 0.63825 0.30581 0.62155 0.0
H458 H 0.65522 0.236 0.76882 0.0
H459 H 0.60993 0.29465 0.69701 0.0
H460 H 0.58493 0.28198 0.89574 0.0
H461 H 0.6097 0.29354 0.81265 0.0
H462 H 0.61384 0.22042 0.77126 0.0
H463 H 0.58923 0.20882 0.854 0.0
C464 C 0.66739 0.25753 0.69389 0.0
C465 C 0.6631 0.27732 0.65187 0.0
C466 C 0.65119 0.25113 0.73655 0.0
C467 C 0.63038 0.26445 0.73866 0.0
C468 C 0.62592 0.28417 0.69655 0.0
C469 C 0.64205 0.29044 0.6532 0.0
C470 C 0.59101 0.26841 0.86865 0.0
C471 C 0.58527 0.24446 0.88179 0.0
C472 C 0.60505 0.27505 0.82087 0.0
C473 C 0.61378 0.25785 0.78575 0.0
C474 C 0.60757 0.23402 0.79804 0.0
C475 C 0.59341 0.2274 0.84535 0.0
H476 H 0.26017 0.17383 0.22042 0.0
H477 H 0.21178 0.12736 0.12622 0.0
H478 H 0.27495 0.14035 0.28838 0.0
H479 H 0.22699 0.09376 0.19382 0.0
H480 H 0.23998 0.04894 0.38041 0.0
H481 H 0.22625 0.07894 0.30033 0.0
H482 H 0.29805 0.10405 0.28933 0.0
H483 H 0.31174 0.07439 0.37018 0.0
C484 C 0.25272 0.15648 0.21396 0.0
C485 C 0.23469 0.15338 0.16786 0.0
C486 C 0.26138 0.13722 0.25264 0.0
C487 C 0.25227 0.11434 0.24626 0.0
C488 C 0.23427 0.11118 0.20019 0.0
C489 C 0.2256 0.13047 0.16137 0.0
C490 C 0.25292 0.06055 0.36013 0.0
C491 C 0.27692 0.05944 0.38227 0.0
C492 C 0.24504 0.07774 0.31411 0.0
C493 C 0.26101 0.09415 0.28919 0.0
C494 C 0.28522 0.09202 0.30861 0.0
C495 C 0.29309 0.07488 0.35463 0.0
H496 H 0.20957 0.30667 0.0794 0.0
H497 H 0.23525 0.3052 0.9008 0.0
H498 H 0.20063 0.34895 0.05856 0.0
H499 H 0.22675 0.34724 0.88074 0.0
H500 H 0.17882 0.41192 0.83532 0.0
H501 H 0.19084 0.3709 0.86126 0.0
H502 H 0.21807 0.38865 0.0398 0.0
H503 H 0.2056 0.42984 0.01414 0.0
C504 C 0.21362 0.31539 0.03612 0.0
C505 C 0.22288 0.30244 0.99157 0.0
C506 C 0.20857 0.33962 0.02426 0.0
C507 C 0.21271 0.35137 0.96768 0.0
C508 C 0.22286 0.33861 0.92426 0.0
C509 C 0.22784 0.31449 0.93597 0.0
C510 C 0.18744 0.40715 0.88006 0.0
C511 C 0.19128 0.42417 0.92261 0.0
C512 C 0.19446 0.38363 0.89483 0.0
C513 C 0.20553 0.37653 0.95251 0.0
C514 C 0.20941 0.39354 0.99516 0.0
C515 C 0.2024 0.41714 0.98031 0.0
H516 H 0.19865 0.75053 0.44509 0.0
H517 H 0.20464 0.7004 0.60336 0.0
H518 H 0.15647 0.74101 0.42832 0.0
H519 H 0.16257 0.69053 0.58521 0.0
H520 H 0.10102 0.66124 0.43728 0.0
H521 H 0.14184 0.67375 0.46224 0.0
H522 H 0.11617 0.73993 0.51685 0.0
H523 H 0.07513 0.72725 0.49363 0.0
C524 C 0.19091 0.73766 0.47654 0.0
C525 C 0.2049 0.7262 0.52554 0.0
C526 C 0.16685 0.73231 0.46698 0.0
C527 C 0.15655 0.71508 0.5055 0.0
C528 C 0.17029 0.70393 0.55514 0.0
C529 C 0.19424 0.70965 0.56556 0.0
C530 C 0.10405 0.67847 0.45448 0.0
C531 C 0.08492 0.6933 0.46346 0.0
C532 C 0.12734 0.68552 0.46902 0.0
C533 C 0.13189 0.70767 0.49157 0.0
C534 C 0.11291 0.72272 0.49966 0.0
C535 C 0.08955 0.71547 0.48637 0.0
H536 H 0.76352 0.69915 0.91314 0.0
H537 H 0.78798 0.68999 0.10365 0.0
H538 H 0.76488 0.65635 0.90736 0.0
H539 H 0.78914 0.64715 0.09765 0.0
H540 H 0.8124 0.57407 0.04165 0.0
H541 H 0.81167 0.61691 0.04866 0.0
H542 H 0.74305 0.62103 0.94793 0.0
H543 H 0.74379 0.57825 0.94056 0.0
C544 C 0.76924 0.68806 0.95377 0.0
C545 C 0.7756 0.69806 0.00891 0.0
C546 C 0.76986 0.66351 0.95049 0.0
C547 C 0.77702 0.6484 0.00211 0.0
C548 C 0.78371 0.65837 0.05702 0.0
C549 C 0.78292 0.68292 0.06046 0.0
C550 C 0.79713 0.5841 0.02114 0.0
C551 C 0.77816 0.57276 0.99049 0.0
C552 C 0.79668 0.60862 0.02539 0.0
C553 C 0.77734 0.62232 0.99867 0.0
C554 C 0.75832 0.61096 0.96833 0.0
C555 C 0.75869 0.58644 0.96447 0.0
H556 H 0.81207 0.26781 0.59421 0.0
H557 H 0.80588 0.28838 0.40128 0.0
H558 H 0.85513 0.26616 0.59285 0.0
H559 H 0.84903 0.28683 0.40033 0.0
H560 H 0.92859 0.30416 0.44153 0.0
H561 H 0.88571 0.30833 0.44592 0.0
H562 H 0.88359 0.23941 0.544 0.0
H563 H 0.92634 0.23509 0.53926 0.0
C564 C 0.81988 0.27215 0.55161 0.0
C565 C 0.80552 0.27814 0.49778 0.0
C566 C 0.84452 0.27109 0.55086 0.0
C567 C 0.85535 0.27631 0.49648 0.0
C568 C 0.8411 0.28286 0.44293 0.0
C569 C 0.81642 0.2836 0.44346 0.0
C570 C 0.91898 0.28996 0.4643 0.0
C571 C 0.93081 0.26928 0.48998 0.0
C572 C 0.89446 0.29231 0.4665 0.0
C573 C 0.8814 0.27419 0.49527 0.0
C574 C 0.89329 0.25373 0.52196 0.0
C575 C 0.91772 0.25122 0.51898 0.0
H576 H 0.72915 0.20255 0.62507 0.0
H577 H 0.71826 0.1975 0.4309 0.0
H578 H 0.72038 0.1606 0.6422 0.0
H579 H 0.70908 0.15551 0.44841 0.0
H580 H 0.71279 0.07571 0.50194 0.0
H581 H 0.72609 0.11666 0.48622 0.0
H582 H 0.68519 0.13605 0.63175 0.0
H583 H 0.67223 0.09518 0.64813 0.0
C584 C 0.72498 0.19251 0.58594 0.0
C585 C 0.7243 0.20351 0.52654 0.0
C586 C 0.71982 0.16846 0.59587 0.0
C587 C 0.71385 0.15476 0.54673 0.0
C588 C 0.71383 0.16553 0.48725 0.0
C589 C 0.71898 0.18964 0.47725 0.0
C590 C 0.70679 0.08869 0.53086 0.0
C591 C 0.69144 0.08219 0.57627 0.0
C592 C 0.7143 0.11217 0.52159 0.0
C593 C 0.70669 0.12961 0.55769 0.0
C594 C 0.69164 0.12299 0.60369 0.0
C595 C 0.6841 0.09957 0.61286 0.0
H596 H 0.30499 0.23056 0.12995 0.0
H597 H 0.30882 0.21518 0.94262 0.0
H598 H 0.34721 0.22256 0.14961 0.0
H599 H 0.35112 0.20677 0.96287 0.0
H600 H 0.43114 0.21167 0.01041 0.0
H601 H 0.3899 0.22451 0.98917 0.0
H602 H 0.37222 0.18732 0.15757 0.0
H603 H 0.41337 0.17484 0.17926 0.0
C604 C 0.31482 0.22557 0.09281 0.0
C605 C 0.3034 0.22337 0.03473 0.0
C606 C 0.33904 0.22086 0.10425 0.0
C607 C 0.35248 0.21381 0.05799 0.0
C608 C 0.34129 0.21235 0.99939 0.0
C609 C 0.31701 0.21708 0.98786 0.0
C610 C 0.41847 0.20639 0.04307 0.0
C611 C 0.42553 0.19223 0.09652 0.0
C612 C 0.39483 0.21363 0.03072 0.0
C613 C 0.37779 0.20694 0.07167 0.0
C614 C 0.38496 0.19307 0.12548 0.0
C615 C 0.40855 0.1858 0.13775 0.0
H616 H 0.29219 0.81434 0.45841 0.0
H617 H 0.2699 0.80664 0.64136 0.0
H618 H 0.29233 0.85726 0.46162 0.0
H619 H 0.27016 0.84973 0.64437 0.0
H620 H 0.24585 0.92758 0.59214 0.0
H621 H 0.24669 0.88443 0.5917 0.0
H622 H 0.31492 0.88824 0.51673 0.0
H623 H 0.31414 0.93137 0.51701 0.0
C624 C 0.28737 0.82177 0.4994 0.0
C625 C 0.28096 0.80701 0.54959 0.0
C626 C 0.2876 0.84638 0.5013 0.0
C627 C 0.28122 0.85683 0.55319 0.0
C628 C 0.27494 0.84214 0.60356 0.0
C629 C 0.27495 0.81747 0.60193 0.0
C630 C 0.26102 0.91922 0.57548 0.0
C631 C 0.27991 0.93289 0.55448 0.0
C632 C 0.26156 0.89451 0.57566 0.0
C633 C 0.28088 0.883 0.55428 0.0
C634 C 0.29972 0.89667 0.53303 0.0
C635 C 0.29929 0.92135 0.53339 0.0
H636 H 0.68911 0.7623 0.94138 0.0
H637 H 0.69919 0.77925 0.1287 0.0
H638 H 0.64655 0.75846 0.95082 0.0
H639 H 0.65646 0.77563 0.13762 0.0
H640 H 0.57495 0.79038 0.10076 0.0
H641 H 0.61729 0.79656 0.08973 0.0
H642 H 0.62162 0.72871 0.01466 0.0
H643 H 0.57945 0.72231 0.02639 0.0
C644 C 0.68224 0.76544 0.98438 0.0
C645 C 0.69756 0.771 0.03438 0.0
C646 C 0.6579 0.76311 0.9898 0.0
C647 C 0.6483 0.76666 0.04497 0.0
C648 C 0.66344 0.7729 0.0945 0.0
C649 C 0.68788 0.77485 0.08943 0.0
C650 C 0.58494 0.77682 0.08178 0.0
C651 C 0.5739 0.75585 0.06446 0.0
C652 C 0.60915 0.78032 0.07577 0.0
C653 C 0.62264 0.76313 0.05128 0.0
C654 C 0.61155 0.74232 0.03325 0.0
C655 C 0.58746 0.73862 0.04023 0.0
loop_
_geom_bond_atom_site_label_1
_geom_bond_atom_site_label_2
_geom_bond_distance
_geom_bond_site_symmetry_2
_ccdc_geom_bond_type
Sc0 O3 2.025 . S
Sc0 O10 2.105 . S
Sc0 O13 2.105 . S
Sc0 O16 2.105 . S
Sc0 O19 2.105 . S
Sc1 O3 2.025 . S
Sc1 O11 2.105 . S
Sc1 O15 2.105 1_554 S
Sc1 O17 2.105 . S
Sc1 O21 2.105 1_554 S
Sc2 O3 2.025 1_556 S
Sc2 O12 2.105 . S
Sc2 O14 2.105 . S
Sc2 O18 2.105 . S
Sc2 O20 2.105 . S
O3 Sc0 2.025 . S
O3 Sc1 2.025 . S
O3 Sc2 2.025 1_554 S
C4 O10 1.268 . S
C4 O20 1.268 1_554 S
C5 O11 1.268 . S
C5 O19 1.268 . S
C6 O12 1.268 . S
C6 O21 1.268 . S
C7 O13 1.268 . S
C7 O17 1.268 . S
C8 O14 1.268 1_554 S
C8 O16 1.268 . S
C9 O15 1.268 . S
C9 O18 1.268 . S
O10 Sc0 2.105 . S
O10 C4 1.268 . S
O11 Sc1 2.105 . S
O11 C5 1.268 . S
O12 Sc2 2.105 . S
O12 C6 1.268 . S
O13 Sc0 2.105 . S
O13 C7 1.268 . S
O14 Sc2 2.105 . S
O14 C8 1.268 1_556 S
O15 Sc1 2.105 1_556 S
O15 C9 1.268 . S
O16 Sc0 2.105 . S
O16 C8 1.268 . S
O17 Sc1 2.105 . S
O17 C7 1.268 . S
O18 Sc2 2.105 . S
O18 C9 1.268 . S
O19 Sc0 2.105 . S
O19 C5 1.268 . S
O20 Sc2 2.105 . S
O20 C4 1.268 1_556 S
O21 Sc1 2.105 1_556 S
O21 C6 1.268 . S
Sc22 O25 2.025 . S
Sc22 O32 2.105 . S
Sc22 O35 2.105 . S
Sc22 O38 2.105 . S
Sc22 O41 2.105 . S
Sc23 O25 2.025 . S
Sc23 O33 2.105 . S
Sc23 O37 2.105 . S
Sc23 O39 2.105 . S
Sc23 O43 2.105 . S
Sc24 O25 2.025 . S
Sc24 O34 2.105 . S
Sc24 O36 2.105 . S
Sc24 O40 2.105 . S
Sc24 O42 2.105 . S
O25 Sc22 2.025 . S
O25 Sc23 2.025 . S
O25 Sc24 2.025 . S
C26 O32 1.268 . S
C26 O42 1.268 . S
C27 O33 1.268 . S
C27 O41 1.268 . S
C28 O34 1.268 . S
C28 O43 1.268 . S
C29 O35 1.268 . S
C29 O39 1.268 . S
C30 O36 1.268 . S
C30 O38 1.268 . S
C31 O37 1.268 . S
C31 O40 1.268 . S
O32 Sc22 2.105 . S
O32 C26 1.268 . S
O33 Sc23 2.105 . S
O33 C27 1.268 . S
O34 Sc24 2.105 . S
O34 C28 1.268 . S
O35 Sc22 2.105 . S
O35 C29 1.268 . S
O36 Sc24 2.105 . S
O36 C30 1.268 . S
O37 Sc23 2.105 . S
O37 C31 1.268 . S
O38 Sc22 2.105 . S
O38 C30 1.268 . S
O39 Sc23 2.105 . S
O39 C29 1.268 . S
O40 Sc24 2.105 . S
O40 C31 1.268 . S
O41 Sc22 2.105 . S
O41 C27 1.268 . S
O42 Sc24 2.105 . S
O42 C26 1.268 . S
O43 Sc23 2.105 . S
O43 C28 1.268 . S
Sc44 O47 2.025 1_556 S
Sc44 O54 2.105 . S
Sc44 O57 2.105 . S
Sc44 O60 2.105 . S
Sc44 O63 2.105 . S
Sc45 O47 2.025 . S
Sc45 O55 2.105 1_554 S
Sc45 O59 2.105 . S
Sc45 O61 2.105 1_554 S
Sc45 O65 2.105 . S
Sc46 O47 2.025 . S
Sc46 O56 2.105 . S
Sc46 O58 2.105 . S
Sc46 O62 2.105 . S
Sc46 O64 2.105 . S
O47 Sc44 2.025 1_554 S
O47 Sc45 2.025 . S
O47 Sc46 2.025 . S
C48 O54 1.268 1_554 S
C48 O64 1.268 . S
C49 O55 1.268 . S
C49 O63 1.268 . S
C50 O56 1.268 . S
C50 O65 1.268 . S
C51 O57 1.268 . S
C51 O61 1.268 . S
C52 O58 1.268 . S
C52 O60 1.268 1_554 S
C53 O59 1.268 . S
C53 O62 1.268 . S
O54 Sc44 2.105 . S
O54 C48 1.268 1_556 S
O55 Sc45 2.105 1_556 S
O55 C49 1.268 . S
O56 Sc46 2.105 . S
O56 C50 1.268 . S
O57 Sc44 2.105 . S
O57 C51 1.268 . S
O58 Sc46 2.105 . S
O58 C52 1.268 . S
O59 Sc45 2.105 . S
O59 C53 1.268 . S
O60 Sc44 2.105 . S
O60 C52 1.268 1_556 S
O61 Sc45 2.105 1_556 S
O61 C51 1.268 . S
O62 Sc46 2.105 . S
O62 C53 1.268 . S
O63 Sc44 2.105 . S
O63 C49 1.268 . S
O64 Sc46 2.105 . S
O64 C48 1.268 . S
O65 Sc45 2.105 . S
O65 C50 1.268 . S
Sc66 O69 2.025 . S
Sc66 O76 2.105 . S
Sc66 O79 2.105 . S
Sc66 O82 2.105 . S
Sc66 O85 2.105 . S
Sc67 O69 2.025 . S
Sc67 O77 2.105 . S
Sc67 O81 2.105 . S
Sc67 O83 2.105 . S
Sc67 O87 2.105 . S
Sc68 O69 2.025 . S
Sc68 O78 2.105 . S
Sc68 O80 2.105 . S
Sc68 O84 2.105 . S
Sc68 O86 2.105 . S
O69 Sc66 2.025 . S
O69 Sc67 2.025 . S
O69 Sc68 2.025 . S
C70 O76 1.268 . S
C70 O86 1.268 . S
C71 O77 1.268 . S
C71 O85 1.268 . S
C72 O78 1.268 . S
C72 O87 1.268 . S
C73 O79 1.268 . S
C73 O83 1.268 . S
C74 O80 1.268 . S
C74 O82 1.268 . S
C75 O81 1.268 . S
C75 O84 1.268 . S
O76 Sc66 2.105 . S
O76 C70 1.268 . S
O77 Sc67 2.105 . S
O77 C71 1.268 . S
O78 Sc68 2.105 . S
O78 C72 1.268 . S
O79 Sc66 2.105 . S
O79 C73 1.268 . S
O80 Sc68 2.105 . S
O80 C74 1.268 . S
O81 Sc67 2.105 . S
O81 C75 1.268 . S
O82 Sc66 2.105 . S
O82 C74 1.268 . S
O83 Sc67 2.105 . S
O83 C73 1.268 . S
O84 Sc68 2.105 . S
O84 C75 1.268 . S
O85 Sc66 2.105 . S
O85 C71 1.268 . S
O86 Sc68 2.105 . S
O86 C70 1.268 . S
O87 Sc67 2.105 . S
O87 C72 1.268 . S
O88 Cd89 2.300 1_556 S
O88 C95 1.275 . S
Cd89 O88 2.300 1_554 S
Cd89 O97 2.381 1_554 S
Cd89 O98 2.378 . S
O90 Cd91 2.385 1_556 S
O90 C95 1.255 . S
Cd91 O90 2.385 1_554 S
Cd91 O92 2.317 . S
O92 Cd91 2.317 . S
O92 C93 1.232 . S
C93 O92 1.232 . S
C93 O94 1.218 . S
O94 C93 1.218 . S
C95 O88 1.275 . S
C95 O90 1.255 . S
C96 O97 1.258 1_554 S
C96 O98 1.256 . S
O97 Cd89 2.381 1_556 S
O97 C96 1.258 1_556 S
O98 Cd89 2.378 . S
O98 C96 1.256 . S
O99 Cd100 2.300 1_655 S
O99 C106 1.275 . S
Cd100 O99 2.300 1_455 S
Cd100 O108 2.381 . S
Cd100 O109 2.378 . S
O101 Cd102 2.385 . S
O101 C106 1.255 . S
Cd102 O101 2.385 . S
Cd102 O103 2.317 . S
O103 Cd102 2.317 . S
O103 C104 1.232 . S
C104 O103 1.232 . S
C104 O105 1.218 . S
O105 C104 1.218 . S
C106 O99 1.275 . S
C106 O101 1.255 . S
C107 O108 1.258 . S
C107 O109 1.256 . S
O108 Cd100 2.381 . S
O108 C107 1.258 . S
O109 Cd100 2.378 . S
O109 C107 1.256 . S
O110 Cd111 2.300 . S
O110 C117 1.275 . S
Cd111 O110 2.300 . S
Cd111 O119 2.381 . S
Cd111 O120 2.378 1_554 S
O112 Cd113 2.385 1_554 S
O112 C117 1.255 . S
Cd113 O112 2.385 1_556 S
Cd113 O114 2.317 . S
O114 Cd113 2.317 . S
O114 C115 1.232 . S
C115 O114 1.232 . S
C115 O116 1.218 . S
O116 C115 1.218 . S
C117 O110 1.275 . S
C117 O112 1.255 . S
C118 O119 1.258 . S
C118 O120 1.256 1_554 S
O119 Cd111 2.381 . S
O119 C118 1.258 . S
O120 Cd111 2.378 1_556 S
O120 C118 1.256 1_556 S
O121 Cd122 2.300 1_455 S
O121 C128 1.275 . S
Cd122 O121 2.300 1_655 S
Cd122 O130 2.381 . S
Cd122 O131 2.378 . S
O123 Cd124 2.385 . S
O123 C128 1.255 . S
Cd124 O123 2.385 . S
Cd124 O125 2.317 . S
O125 Cd124 2.317 . S
O125 C126 1.232 . S
C126 O125 1.232 . S
C126 O127 1.218 . S
O127 C126 1.218 . S
C128 O121 1.275 . S
C128 O123 1.255 . S
C129 O130 1.258 . S
C129 O131 1.256 . S
O130 Cd122 2.381 . S
O130 C129 1.258 . S
O131 Cd122 2.378 . S
O131 C129 1.256 . S
O132 Cd133 2.300 1_565 S
O132 C139 1.275 . S
Cd133 O132 2.300 1_545 S
Cd133 O141 2.381 . S
Cd133 O142 2.378 . S
O134 Cd135 2.385 . S
O134 C139 1.255 . S
Cd135 O134 2.385 . S
Cd135 O136 2.317 . S
O136 Cd135 2.317 . S
O136 C137 1.232 . S
C137 O136 1.232 . S
C137 O138 1.218 . S
O138 C137 1.218 . S
C139 O132 1.275 . S
C139 O134 1.255 . S
C140 O141 1.258 . S
C140 O142 1.256 . S
O141 Cd133 2.381 . S
O141 C140 1.258 . S
O142 Cd133 2.378 . S
O142 C140 1.256 . S
O143 Cd144 2.300 . S
O143 C150 1.275 . S
Cd144 O143 2.300 . S
Cd144 O152 2.381 . S
Cd144 O153 2.378 1_554 S
O145 Cd146 2.385 1_554 S
O145 C150 1.255 . S
Cd146 O145 2.385 1_556 S
Cd146 O147 2.317 . S
O147 Cd146 2.317 . S
O147 C148 1.232 . S
C148 O147 1.232 . S
C148 O149 1.218 . S
O149 C148 1.218 . S
C150 O143 1.275 . S
C150 O145 1.255 . S
C151 O152 1.258 . S
C151 O153 1.256 1_554 S
O152 Cd144 2.381 . S
O152 C151 1.258 . S
O153 Cd144 2.378 1_556 S
O153 C151 1.256 1_556 S
O154 Cd155 2.300 1_545 S
O154 C161 1.275 . S
Cd155 O154 2.300 1_565 S
Cd155 O163 2.381 . S
Cd155 O164 2.378 . S
O156 Cd157 2.385 . S
O156 C161 1.255 . S
Cd157 O156 2.385 . S
Cd157 O158 2.317 . S
O158 Cd157 2.317 . S
O158 C159 1.232 . S
C159 O158 1.232 . S
C159 O160 1.218 . S
O160 C159 1.218 . S
C161 O154 1.275 . S
C161 O156 1.255 . S
C162 O163 1.258 . S
C162 O164 1.256 . S
O163 Cd155 2.381 . S
O163 C162 1.258 . S
O164 Cd155 2.378 . S
O164 C162 1.256 . S
O165 Cd166 2.300 . S
O165 C172 1.275 . S
Cd166 O165 2.300 . S
Cd166 O174 2.381 . S
Cd166 O175 2.378 1_556 S
O167 Cd168 2.385 1_556 S
O167 C172 1.255 . S
Cd168 O167 2.385 1_554 S
Cd168 O169 2.317 . S
O169 Cd168 2.317 . S
O169 C170 1.232 . S
C170 O169 1.232 . S
C170 O171 1.218 . S
O171 C170 1.218 . S
C172 O165 1.275 . S
C172 O167 1.255 . S
C173 O174 1.258 1_554 S
C173 O175 1.256 . S
O174 Cd166 2.381 . S
O174 C173 1.258 1_556 S
O175 Cd166 2.378 1_554 S
O175 C173 1.256 . S
H176 C184 0.950 . S
H177 C189 0.950 . S
H178 C186 0.950 . S
H179 C188 0.950 . S
H180 C190 0.950 . S
H181 C192 0.950 . S
H182 C194 0.950 . S
H183 C195 0.950 . S
C184 H176 0.950 . S
C184 C185 1.386 . S
C184 C186 1.391 . S
C185 C184 1.386 . S
C185 C189 1.393 . S
C186 H178 0.950 . S
C186 C184 1.391 . S
C186 C187 1.400 . S
C187 C186 1.400 . S
C187 C188 1.398 . S
C187 C193 1.491 . S
C188 H179 0.950 . S
C188 C187 1.398 . S
C188 C189 1.391 . S
C189 H177 0.950 . S
C189 C185 1.393 . S
C189 C188 1.391 . S
C190 H180 0.950 . S
C190 C191 1.386 . S
C190 C192 1.391 . S
C191 C190 1.386 . S
C191 C195 1.393 . S
C192 H181 0.950 . S
C192 C190 1.391 . S
C192 C193 1.400 . S
C193 C187 1.491 . S
C193 C192 1.400 . S
C193 C194 1.398 . S
C194 H182 0.950 . S
C194 C193 1.398 . S
C194 C195 1.391 . S
C195 H183 0.950 . S
C195 C191 1.393 . S
C195 C194 1.391 . S
H196 C204 0.950 . S
H197 C209 0.950 . S
H198 C206 0.950 . S
H199 C208 0.950 . S
H200 C210 0.950 . S
H201 C212 0.950 . S
H202 C214 0.950 . S
H203 C215 0.950 . S
C204 H196 0.950 . S
C204 C205 1.386 . S
C204 C206 1.391 . S
C205 C204 1.386 . S
C205 C209 1.393 . S
C206 H198 0.950 . S
C206 C204 1.391 . S
C206 C207 1.400 . S
C207 C206 1.400 . S
C207 C208 1.398 . S
C207 C213 1.491 . S
C208 H199 0.950 . S
C208 C207 1.398 . S
C208 C209 1.391 . S
C209 H197 0.950 . S
C209 C205 1.393 . S
C209 C208 1.391 . S
C210 H200 0.950 . S
C210 C211 1.386 . S
C210 C212 1.391 . S
C211 C210 1.386 . S
C211 C215 1.393 . S
C212 H201 0.950 . S
C212 C210 1.391 . S
C212 C213 1.400 . S
C213 C207 1.491 . S
C213 C212 1.400 . S
C213 C214 1.398 . S
C214 H202 0.950 . S
C214 C213 1.398 . S
C214 C215 1.391 . S
C215 H203 0.950 . S
C215 C211 1.393 . S
C215 C214 1.391 . S
H216 C224 0.950 . S
H217 C229 0.950 . S
H218 C226 0.950 . S
H219 C228 0.950 . S
H220 C230 0.950 . S
H221 C232 0.950 . S
H222 C234 0.950 . S
H223 C235 0.950 . S
C224 H216 0.950 . S
C224 C225 1.386 . S
C224 C226 1.391 . S
C225 C224 1.386 . S
C225 C229 1.393 . S
C226 H218 0.950 . S
C226 C224 1.391 . S
C226 C227 1.400 . S
C227 C226 1.400 . S
C227 C228 1.398 . S
C227 C233 1.491 . S
C228 H219 0.950 . S
C228 C227 1.398 . S
C228 C229 1.391 . S
C229 H217 0.950 . S
C229 C225 1.393 . S
C229 C228 1.391 . S
C230 H220 0.950 . S
C230 C231 1.386 . S
C230 C232 1.391 . S
C231 C230 1.386 . S
C231 C235 1.393 . S
C232 H221 0.950 . S
C232 C230 1.391 . S
C232 C233 1.400 . S
C233 C227 1.491 . S
C233 C232 1.400 . S
C233 C234 1.398 . S
C234 H222 0.950 . S
C234 C233 1.398 . S
C234 C235 1.391 . S
C235 H223 0.950 . S
C235 C231 1.393 . S
C235 C234 1.391 . S
H236 C244 0.950 . S
H237 C249 0.950 . S
H238 C246 0.950 . S
H239 C248 0.950 . S
H240 C250 0.950 . S
H241 C252 0.950 . S
H242 C254 0.950 . S
H243 C255 0.950 . S
C244 H236 0.950 . S
C244 C245 1.386 . S
C244 C246 1.391 . S
C245 C244 1.386 . S
C245 C249 1.393 . S
C246 H238 0.950 . S
C246 C244 1.391 . S
C246 C247 1.400 . S
C247 C246 1.400 . S
C247 C248 1.398 . S
C247 C253 1.491 . S
C248 H239 0.950 . S
C248 C247 1.398 . S
C248 C249 1.391 . S
C249 H237 0.950 . S
C249 C245 1.393 . S
C249 C248 1.391 . S
C250 H240 0.950 . S
C250 C251 1.386 . S
C250 C252 1.391 . S
C251 C250 1.386 . S
C251 C255 1.393 . S
C252 H241 0.950 . S
C252 C250 1.391 . S
C252 C253 1.400 . S
C253 C247 1.491 . S
C253 C252 1.400 . S
C253 C254 1.398 . S
C254 H242 0.950 . S
C254 C253 1.398 . S
C254 C255 1.391 . S
C255 H243 0.950 . S
C255 C251 1.393 . S
C255 C254 1.391 . S
H256 C264 0.950 . S
H257 C269 0.950 . S
H258 C266 0.950 . S
H259 C268 0.950 . S
H260 C270 0.950 . S
H261 C272 0.950 . S
H262 C274 0.950 . S
H263 C275 0.950 . S
C264 H256 0.950 . S
C264 C265 1.386 . S
C264 C266 1.391 . S
C265 C264 1.386 . S
C265 C269 1.393 . S
C266 H258 0.950 . S
C266 C264 1.391 . S
C266 C267 1.400 . S
C267 C266 1.400 . S
C267 C268 1.398 . S
C267 C273 1.491 . S
C268 H259 0.950 . S
C268 C267 1.398 . S
C268 C269 1.391 . S
C269 H257 0.950 . S
C269 C265 1.393 . S
C269 C268 1.391 . S
C270 H260 0.950 . S
C270 C271 1.386 . S
C270 C272 1.391 . S
C271 C270 1.386 . S
C271 C275 1.393 . S
C272 H261 0.950 . S
C272 C270 1.391 . S
C272 C273 1.400 . S
C273 C267 1.491 . S
C273 C272 1.400 . S
C273 C274 1.398 . S
C274 H262 0.950 . S
C274 C273 1.398 . S
C274 C275 1.391 . S
C275 H263 0.950 . S
C275 C271 1.393 . S
C275 C274 1.391 . S
H276 C284 0.950 . S
H277 C289 0.950 . S
H278 C286 0.950 . S
H279 C288 0.950 . S
H280 C290 0.950 . S
H281 C292 0.950 . S
H282 C294 0.950 . S
H283 C295 0.950 . S
C284 H276 0.950 . S
C284 C285 1.386 . S
C284 C286 1.391 . S
C285 C284 1.386 . S
C285 C289 1.393 . S
C286 H278 0.950 . S
C286 C284 1.391 . S
C286 C287 1.400 . S
C287 C286 1.400 . S
C287 C288 1.398 . S
C287 C293 1.491 . S
C288 H279 0.950 . S
C288 C287 1.398 . S
C288 C289 1.391 . S
C289 H277 0.950 . S
C289 C285 1.393 . S
C289 C288 1.391 . S
C290 H280 0.950 . S
C290 C291 1.386 . S
C290 C292 1.391 . S
C291 C290 1.386 . S
C291 C295 1.393 . S
C292 H281 0.950 . S
C292 C290 1.391 . S
C292 C293 1.400 . S
C293 C287 1.491 . S
C293 C292 1.400 . S
C293 C294 1.398 . S
C294 H282 0.950 . S
C294 C293 1.398 . S
C294 C295 1.391 . S
C295 H283 0.950 . S
C295 C291 1.393 . S
C295 C294 1.391 . S
H296 C304 0.950 . S
H297 C309 0.950 . S
H298 C306 0.950 . S
H299 C308 0.950 . S
H300 C310 0.950 . S
H301 C312 0.950 . S
H302 C314 0.950 . S
H303 C315 0.950 . S
C304 H296 0.950 . S
C304 C305 1.386 . S
C304 C306 1.391 . S
C305 C304 1.386 . S
C305 C309 1.393 . S
C306 H298 0.950 . S
C306 C304 1.391 . S
C306 C307 1.400 . S
C307 C306 1.400 . S
C307 C308 1.398 . S
C307 C313 1.491 . S
C308 H299 0.950 . S
C308 C307 1.398 . S
C308 C309 1.391 . S
C309 H297 0.950 . S
C309 C305 1.393 . S
C309 C308 1.391 . S
C310 H300 0.950 . S
C310 C311 1.386 . S
C310 C312 1.391 . S
C311 C310 1.386 . S
C311 C315 1.393 . S
C312 H301 0.950 . S
C312 C310 1.391 . S
C312 C313 1.400 . S
C313 C307 1.491 . S
C313 C312 1.400 . S
C313 C314 1.398 . S
C314 H302 0.950 . S
C314 C313 1.398 . S
C314 C315 1.391 . S
C315 H303 0.950 . S
C315 C311 1.393 . S
C315 C314 1.391 . S
H316 C324 0.950 . S
H317 C329 0.950 . S
H318 C326 0.950 . S
H319 C328 0.950 . S
H320 C330 0.950 . S
H321 C332 0.950 . S
H322 C334 0.950 . S
H323 C335 0.950 . S
C324 H316 0.950 . S
C324 C325 1.386 . S
C324 C326 1.391 . S
C325 C324 1.386 . S
C325 C329 1.393 . S
C326 H318 0.950 . S
C326 C324 1.391 . S
C326 C327 1.400 . S
C327 C326 1.400 . S
C327 C328 1.398 . S
C327 C333 1.491 . S
C328 H319 0.950 . S
C328 C327 1.398 . S
C328 C329 1.391 . S
C329 H317 0.950 . S
C329 C325 1.393 . S
C329 C328 1.391 . S
C330 H320 0.950 . S
C330 C331 1.386 . S
C330 C332 1.391 . S
C331 C330 1.386 . S
C331 C335 1.393 . S
C332 H321 0.950 . S
C332 C330 1.391 . S
C332 C333 1.400 . S
C333 C327 1.491 . S
C333 C332 1.400 . S
C333 C334 1.398 . S
C334 H322 0.950 . S
C334 C333 1.398 . S
C334 C335 1.391 . S
C335 H323 0.950 . S
C335 C331 1.393 . S
C335 C334 1.391 . S
H336 C344 0.950 . S
H337 C349 0.950 . S
H338 C346 0.950 . S
H339 C348 0.950 . S
H340 C350 0.950 . S
H341 C352 0.950 . S
H342 C354 0.950 . S
H343 C355 0.950 . S
C344 H336 0.950 . S
C344 C345 1.386 . S
C344 C346 1.391 . S
C345 C344 1.386 . S
C345 C349 1.393 . S
C346 H338 0.950 . S
C346 C344 1.391 . S
C346 C347 1.400 . S
C347 C346 1.400 . S
C347 C348 1.398 . S
C347 C353 1.491 . S
C348 H339 0.950 . S
C348 C347 1.398 . S
C348 C349 1.391 . S
C349 H337 0.950 . S
C349 C345 1.393 . S
C349 C348 1.391 . S
C350 H340 0.950 . S
C350 C351 1.386 . S
C350 C352 1.391 . S
C351 C350 1.386 . S
C351 C355 1.393 . S
C352 H341 0.950 . S
C352 C350 1.391 . S
C352 C353 1.400 . S
C353 C347 1.491 . S
C353 C352 1.400 . S
C353 C354 1.398 . S
C354 H342 0.950 . S
C354 C353 1.398 . S
C354 C355 1.391 . S
C355 H343 0.950 . S
C355 C351 1.393 . S
C355 C354 1.391 . S
H356 C364 0.950 . S
H357 C369 0.950 . S
H358 C366 0.950 . S
H359 C368 0.950 . S
H360 C370 0.950 . S
H361 C372 0.950 . S
H362 C374 0.950 . S
H363 C375 0.950 . S
C364 H356 0.950 . S
C364 C365 1.386 . S
C364 C366 1.391 . S
C365 C364 1.386 . S
C365 C369 1.393 . S
C366 H358 0.950 . S
C366 C364 1.391 . S
C366 C367 1.400 . S
C367 C366 1.400 . S
C367 C368 1.398 . S
C367 C373 1.491 . S
C368 H359 0.950 . S
C368 C367 1.398 . S
C368 C369 1.391 . S
C369 H357 0.950 . S
C369 C365 1.393 . S
C369 C368 1.391 . S
C370 H360 0.950 . S
C370 C371 1.386 . S
C370 C372 1.391 . S
C371 C370 1.386 . S
C371 C375 1.393 . S
C372 H361 0.950 . S
C372 C370 1.391 . S
C372 C373 1.400 . S
C373 C367 1.491 . S
C373 C372 1.400 . S
C373 C374 1.398 . S
C374 H362 0.950 . S
C374 C373 1.398 . S
C374 C375 1.391 . S
C375 H363 0.950 . S
C375 C371 1.393 . S
C375 C374 1.391 . S
H376 C384 0.950 . S
H377 C389 0.950 . S
H378 C386 0.950 . S
H379 C388 0.950 . S
H380 C390 0.950 . S
H381 C392 0.950 . S
H382 C394 0.950 . S
H383 C395 0.950 . S
C384 H376 0.950 . S
C384 C385 1.386 . S
C384 C386 1.391 . S
C385 C384 1.386 . S
C385 C389 1.393 . S
C386 H378 0.950 . S
C386 C384 1.391 . S
C386 C387 1.400 . S
C387 C386 1.400 . S
C387 C388 1.398 . S
C387 C393 1.491 . S
C388 H379 0.950 . S
C388 C387 1.398 . S
C388 C389 1.391 . S
C389 H377 0.950 . S
C389 C385 1.393 . S
C389 C388 1.391 . S
C390 H380 0.950 . S
C390 C391 1.386 . S
C390 C392 1.391 . S
C391 C390 1.386 . S
C391 C395 1.393 . S
C392 H381 0.950 . S
C392 C390 1.391 . S
C392 C393 1.400 . S
C393 C387 1.491 . S
C393 C392 1.400 . S
C393 C394 1.398 . S
C394 H382 0.950 . S
C394 C393 1.398 . S
C394 C395 1.391 . S
C395 H383 0.950 . S
C395 C391 1.393 . S
C395 C394 1.391 . S
H396 C404 0.950 . S
H397 C409 0.950 . S
H398 C406 0.950 . S
H399 C408 0.950 . S
H400 C410 0.950 . S
H401 C412 0.950 . S
H402 C414 0.950 . S
H403 C415 0.950 . S
C404 H396 0.950 . S
C404 C405 1.386 . S
C404 C406 1.391 . S
C405 C404 1.386 . S
C405 C409 1.393 . S
C406 H398 0.950 . S
C406 C404 1.391 . S
C406 C407 1.400 . S
C407 C406 1.400 . S
C407 C408 1.398 . S
C407 C413 1.491 . S
C408 H399 0.950 . S
C408 C407 1.398 . S
C408 C409 1.391 . S
C409 H397 0.950 . S
C409 C405 1.393 . S
C409 C408 1.391 . S
C410 H400 0.950 . S
C410 C411 1.386 . S
C410 C412 1.391 . S
C411 C410 1.386 . S
C411 C415 1.393 . S
C412 H401 0.950 . S
C412 C410 1.391 . S
C412 C413 1.400 . S
C413 C407 1.491 . S
C413 C412 1.400 . S
C413 C414 1.398 . S
C414 H402 0.950 . S
C414 C413 1.398 . S
C414 C415 1.391 . S
C415 H403 0.950 . S
C415 C411 1.393 . S
C415 C414 1.391 . S
H416 C424 0.950 . S
H417 C429 0.950 . S
H418 C426 0.950 . S
H419 C428 0.950 . S
H420 C430 0.950 . S
H421 C432 0.950 . S
H422 C434 0.950 . S
H423 C435 0.950 . S
C424 H416 0.950 . S
C424 C425 1.386 . S
C424 C426 1.391 . S
C425 C424 1.386 . S
C425 C429 1.393 . S
C426 H418 0.950 . S
C426 C424 1.391 . S
C426 C427 1.400 . S
C427 C426 1.400 . S
C427 C428 1.398 . S
C427 C433 1.491 . S
C428 H419 0.950 . S
C428 C427 1.398 . S
C428 C429 1.391 . S
C429 H417 0.950 . S
C429 C425 1.393 . S
C429 C428 1.391 . S
C430 H420 0.950 . S
C430 C431 1.386 . S
C430 C432 1.391 . S
C431 C430 1.386 . S
C431 C435 1.393 . S
C432 H421 0.950 . S
C432 C430 1.391 . S
C432 C433 1.400 . S
C433 C427 1.491 . S
C433 C432 1.400 . S
C433 C434 1.398 . S
C434 H422 0.950 . S
C434 C433 1.398 . S
C434 C435 1.391 . S
C435 H423 0.950 . S
C435 C431 1.393 . S
C435 C434 1.391 . S
H436 C444 0.950 . S
H437 C449 0.950 . S
H438 C446 0.950 . S
H439 C448 0.950 . S
H440 C450 0.950 . S
H441 C452 0.950 . S
H442 C454 0.950 . S
H443 C455 0.950 . S
C444 H436 0.950 . S
C444 C445 1.386 . S
C444 C446 1.391 . S
C445 C444 1.386 . S
C445 C449 1.393 . S
C446 H438 0.950 . S
C446 C444 1.391 . S
C446 C447 1.400 . S
C447 C446 1.400 . S
C447 C448 1.398 . S
C447 C453 1.491 . S
C448 H439 0.950 . S
C448 C447 1.398 . S
C448 C449 1.391 . S
C449 H437 0.950 . S
C449 C445 1.393 . S
C449 C448 1.391 . S
C450 H440 0.950 . S
C450 C451 1.386 . S
C450 C452 1.391 . S
C451 C450 1.386 . S
C451 C455 1.393 . S
C452 H441 0.950 . S
C452 C450 1.391 . S
C452 C453 1.400 . S
C453 C447 1.491 . S
C453 C452 1.400 . S
C453 C454 1.398 . S
C454 H442 0.950 . S
C454 C453 1.398 . S
C454 C455 1.391 . S
C455 H443 0.950 . S
C455 C451 1.393 . S
C455 C454 1.391 . S
H456 C464 0.950 . S
H457 C469 0.950 . S
H458 C466 0.950 . S
H459 C468 0.950 . S
H460 C470 0.950 . S
H461 C472 0.950 . S
H462 C474 0.950 . S
H463 C475 0.950 . S
C464 H456 0.950 . S
C464 C465 1.386 . S
C464 C466 1.391 . S
C465 C464 1.386 . S
C465 C469 1.393 . S
C466 H458 0.950 . S
C466 C464 1.391 . S
C466 C467 1.400 . S
C467 C466 1.400 . S
C467 C468 1.398 . S
C467 C473 1.491 . S
C468 H459 0.950 . S
C468 C467 1.398 . S
C468 C469 1.391 . S
C469 H457 0.950 . S
C469 C465 1.393 . S
C469 C468 1.391 . S
C470 H460 0.950 . S
C470 C471 1.386 . S
C470 C472 1.391 . S
C471 C470 1.386 . S
C471 C475 1.393 . S
C472 H461 0.950 . S
C472 C470 1.391 . S
C472 C473 1.400 . S
C473 C467 1.491 . S
C473 C472 1.400 . S
C473 C474 1.398 . S
C474 H462 0.950 . S
C474 C473 1.398 . S
C474 C475 1.391 . S
C475 H463 0.950 . S
C475 C471 1.393 . S
C475 C474 1.391 . S
H476 C484 0.950 . S
H477 C489 0.950 . S
H478 C486 0.950 . S
H479 C488 0.950 . S
H480 C490 0.950 . S
H481 C492 0.950 . S
H482 C494 0.950 . S
H483 C495 0.950 . S
C484 H476 0.950 . S
C484 C485 1.386 . S
C484 C486 1.391 . S
C485 C484 1.386 . S
C485 C489 1.393 . S
C486 H478 0.950 . S
C486 C484 1.391 . S
C486 C487 1.400 . S
C487 C486 1.400 . S
C487 C488 1.398 . S
C487 C493 1.491 . S
C488 H479 0.950 . S
C488 C487 1.398 . S
C488 C489 1.391 . S
C489 H477 0.950 . S
C489 C485 1.393 . S
C489 C488 1.391 . S
C490 H480 0.950 . S
C490 C491 1.386 . S
C490 C492 1.391 . S
C491 C490 1.386 . S
C491 C495 1.393 . S
C492 H481 0.950 . S
C492 C490 1.391 . S
C492 C493 1.400 . S
C493 C487 1.491 . S
C493 C492 1.400 . S
C493 C494 1.398 . S
C494 H482 0.950 . S
C494 C493 1.398 . S
C494 C495 1.391 . S
C495 H483 0.950 . S
C495 C491 1.393 . S
C495 C494 1.391 . S
H496 C504 0.950 . S
H497 C509 0.950 . S
H498 C506 0.950 . S
H499 C508 0.950 . S
H500 C510 0.950 . S
H501 C512 0.950 . S
H502 C514 0.950 . S
H503 C515 0.950 . S
C504 H496 0.950 . S
C504 C505 1.386 . S
C504 C506 1.391 . S
C505 C504 1.386 . S
C505 C509 1.393 1_554 S
C506 H498 0.950 . S
C506 C504 1.391 . S
C506 C507 1.400 . S
C507 C506 1.400 . S
C507 C508 1.398 1_554 S
C507 C513 1.491 . S
C508 H499 0.950 . S
C508 C507 1.398 1_556 S
C508 C509 1.391 . S
C509 H497 0.950 . S
C509 C505 1.393 1_556 S
C509 C508 1.391 . S
C510 H500 0.950 . S
C510 C511 1.386 1_556 S
C510 C512 1.391 . S
C511 C510 1.386 1_554 S
C511 C515 1.393 . S
C512 H501 0.950 . S
C512 C510 1.391 . S
C512 C513 1.400 1_556 S
C513 C507 1.491 . S
C513 C512 1.400 1_554 S
C513 C514 1.398 . S
C514 H502 0.950 . S
C514 C513 1.398 . S
C514 C515 1.391 . S
C515 H503 0.950 . S
C515 C511 1.393 . S
C515 C514 1.391 . S
H516 C524 0.950 . S
H517 C529 0.950 . S
H518 C526 0.950 . S
H519 C528 0.950 . S
H520 C530 0.950 . S
H521 C532 0.950 . S
H522 C534 0.950 . S
H523 C535 0.950 . S
C524 H516 0.950 . S
C524 C525 1.386 . S
C524 C526 1.391 . S
C525 C524 1.386 . S
C525 C529 1.393 . S
C526 H518 0.950 . S
C526 C524 1.391 . S
C526 C527 1.400 . S
C527 C526 1.400 . S
C527 C528 1.398 . S
C527 C533 1.491 . S
C528 H519 0.950 . S
C528 C527 1.398 . S
C528 C529 1.391 . S
C529 H517 0.950 . S
C529 C525 1.393 . S
C529 C528 1.391 . S
C530 H520 0.950 . S
C530 C531 1.386 . S
C530 C532 1.391 . S
C531 C530 1.386 . S
C531 C535 1.393 . S
C532 H521 0.950 . S
C532 C530 1.391 . S
C532 C533 1.400 . S
C533 C527 1.491 . S
C533 C532 1.400 . S
C533 C534 1.398 . S
C534 H522 0.950 . S
C534 C533 1.398 . S
C534 C535 1.391 . S
C535 H523 0.950 . S
C535 C531 1.393 . S
C535 C534 1.391 . S
H536 C544 0.950 . S
H537 C549 0.950 . S
H538 C546 0.950 . S
H539 C548 0.950 . S
H540 C550 0.950 . S
H541 C552 0.950 . S
H542 C554 0.950 . S
H543 C555 0.950 . S
C544 H536 0.950 . S
C544 C545 1.386 1_556 S
C544 C546 1.391 . S
C545 C544 1.386 1_554 S
C545 C549 1.393 . S
C546 H538 0.950 . S
C546 C544 1.391 . S
C546 C547 1.400 1_556 S
C547 C546 1.400 1_554 S
C547 C548 1.398 . S
C547 C553 1.491 . S
C548 H539 0.950 . S
C548 C547 1.398 . S
C548 C549 1.391 . S
C549 H537 0.950 . S
C549 C545 1.393 . S
C549 C548 1.391 . S
C550 H540 0.950 . S
C550 C551 1.386 . S
C550 C552 1.391 . S
C551 C550 1.386 . S
C551 C555 1.393 1_554 S
C552 H541 0.950 . S
C552 C550 1.391 . S
C552 C553 1.400 . S
C553 C547 1.491 . S
C553 C552 1.400 . S
C553 C554 1.398 1_554 S
C554 H542 0.950 . S
C554 C553 1.398 1_556 S
C554 C555 1.391 . S
C555 H543 0.950 . S
C555 C551 1.393 1_556 S
C555 C554 1.391 . S
H556 C564 0.950 . S
H557 C569 0.950 . S
H558 C566 0.950 . S
H559 C568 0.950 . S
H560 C570 0.950 . S
H561 C572 0.950 . S
H562 C574 0.950 . S
H563 C575 0.950 . S
C564 H556 0.950 . S
C564 C565 1.386 . S
C564 C566 1.391 . S
C565 C564 1.386 . S
C565 C569 1.393 . S
C566 H558 0.950 . S
C566 C564 1.391 . S
C566 C567 1.400 . S
C567 C566 1.400 . S
C567 C568 1.398 . S
C567 C573 1.491 . S
C568 H559 0.950 . S
C568 C567 1.398 . S
C568 C569 1.391 . S
C569 H557 0.950 . S
C569 C565 1.393 . S
C569 C568 1.391 . S
C570 H560 0.950 . S
C570 C571 1.386 . S
C570 C572 1.391 . S
C571 C570 1.386 . S
C571 C575 1.393 . S
C572 H561 0.950 . S
C572 C570 1.391 . S
C572 C573 1.400 . S
C573 C567 1.491 . S
C573 C572 1.400 . S
C573 C574 1.398 . S
C574 H562 0.950 . S
C574 C573 1.398 . S
C574 C575 1.391 . S
C575 H563 0.950 . S
C575 C571 1.393 . S
C575 C574 1.391 . S
H576 C584 0.950 . S
H577 C589 0.950 . S
H578 C586 0.950 . S
H579 C588 0.950 . S
H580 C590 0.950 . S
H581 C592 0.950 . S
H582 C594 0.950 . S
H583 C595 0.950 . S
C584 H576 0.950 . S
C584 C585 1.386 . S
C584 C586 1.391 . S
C585 C584 1.386 . S
C585 C589 1.393 . S
C586 H578 0.950 . S
C586 C584 1.391 . S
C586 C587 1.400 . S
C587 C586 1.400 . S
C587 C588 1.398 . S
C587 C593 1.491 . S
C588 H579 0.950 . S
C588 C587 1.398 . S
C588 C589 1.391 . S
C589 H577 0.950 . S
C589 C585 1.393 . S
C589 C588 1.391 . S
C590 H580 0.950 . S
C590 C591 1.386 . S
C590 C592 1.391 . S
C591 C590 1.386 . S
C591 C595 1.393 . S
C592 H581 0.950 . S
C592 C590 1.391 . S
C592 C593 1.400 . S
C593 C587 1.491 . S
C593 C592 1.400 . S
C593 C594 1.398 . S
C594 H582 0.950 . S
C594 C593 1.398 . S
C594 C595 1.391 . S
C595 H583 0.950 . S
C595 C591 1.393 . S
C595 C594 1.391 . S
H596 C604 0.950 . S
H597 C609 0.950 . S
H598 C606 0.950 . S
H599 C608 0.950 . S
H600 C610 0.950 . S
H601 C612 0.950 . S
H602 C614 0.950 . S
H603 C615 0.950 . S
C604 H596 0.950 . S
C604 C605 1.386 . S
C604 C606 1.391 . S
C605 C604 1.386 . S
C605 C609 1.393 1_554 S
C606 H598 0.950 . S
C606 C604 1.391 . S
C606 C607 1.400 . S
C607 C606 1.400 . S
C607 C608 1.398 1_554 S
C607 C613 1.491 . S
C608 H599 0.950 . S
C608 C607 1.398 1_556 S
C608 C609 1.391 . S
C609 H597 0.950 . S
C609 C605 1.393 1_556 S
C609 C608 1.391 . S
C610 H600 0.950 . S
C610 C611 1.386 1_556 S
C610 C612 1.391 . S
C611 C610 1.386 1_554 S
C611 C615 1.393 . S
C612 H601 0.950 . S
C612 C610 1.391 . S
C612 C613 1.400 1_556 S
C613 C607 1.491 . S
C613 C612 1.400 1_554 S
C613 C614 1.398 . S
C614 H602 0.950 . S
C614 C613 1.398 . S
C614 C615 1.391 . S
C615 H603 0.950 . S
C615 C611 1.393 . S
C615 C614 1.391 . S
H616 C624 0.950 . S
H617 C629 0.950 . S
H618 C626 0.950 . S
H619 C628 0.950 . S
H620 C630 0.950 . S
H621 C632 0.950 . S
H622 C634 0.950 . S
H623 C635 0.950 . S
C624 H616 0.950 . S
C624 C625 1.386 . S
C624 C626 1.391 . S
C625 C624 1.386 . S
C625 C629 1.393 . S
C626 H618 0.950 . S
C626 C624 1.391 . S
C626 C627 1.400 . S
C627 C626 1.400 . S
C627 C628 1.398 . S
C627 C633 1.491 . S
C628 H619 0.950 . S
C628 C627 1.398 . S
C628 C629 1.391 . S
C629 H617 0.950 . S
C629 C625 1.393 . S
C629 C628 1.391 . S
C630 H620 0.950 . S
C630 C631 1.386 . S
C630 C632 1.391 . S
C631 C630 1.386 . S
C631 C635 1.393 . S
C632 H621 0.950 . S
C632 C630 1.391 . S
C632 C633 1.400 . S
C633 C627 1.491 . S
C633 C632 1.400 . S
C633 C634 1.398 . S
C634 H622 0.950 . S
C634 C633 1.398 . S
C634 C635 1.391 . S
C635 H623 0.950 . S
C635 C631 1.393 . S
C635 C634 1.391 . S
H636 C644 0.950 . S
H637 C649 0.950 . S
H638 C646 0.950 . S
H639 C648 0.950 . S
H640 C650 0.950 . S
H641 C652 0.950 . S
H642 C654 0.950 . S
H643 C655 0.950 . S
C644 H636 0.950 . S
C644 C645 1.386 1_556 S
C644 C646 1.391 . S
C645 C644 1.386 1_554 S
C645 C649 1.393 . S
C646 H638 0.950 . S
C646 C644 1.391 . S
C646 C647 1.400 1_556 S
C647 C646 1.400 1_554 S
C647 C648 1.398 . S
C647 C653 1.491 . S
C648 H639 0.950 . S
C648 C647 1.398 . S
C648 C649 1.391 . S
C649 H637 0.950 . S
C649 C645 1.393 . S
C649 C648 1.391 . S
C650 H640 0.950 . S
C650 C651 1.386 . S
C650 C652 1.391 . S
C651 C650 1.386 . S
C651 C655 1.393 1_554 S
C652 H641 0.950 . S
C652 C650 1.391 . S
C652 C653 1.400 . S
C653 C647 1.491 . S
C653 C652 1.400 . S
C653 C654 1.398 1_554 S
C654 H642 0.950 . S
C654 C653 1.398 1_556 S
C654 C655 1.391 . S
C655 H643 0.950 . S
C655 C651 1.393 1_556 S
C655 C654 1.391 . S
C185 C5 1.444 . S
C191 C126 1.333 . S
C205 C31 1.513 . S
C211 C95 1.489 . S
C231 C106 1.455 . S
C225 C53 1.463 . S
C245 C71 1.393 . S
C251 C115 1.282 . S
C271 C150 1.478 . S
C265 C75 1.519 . S
C291 C159 1.299 . S
C285 C9 1.449 . S
C311 C170 1.294 . S
C305 C27 1.405 . S
C331 C139 1.435 . S
C325 C49 1.466 . S
C345 C51 1.437 . S
C351 C104 1.207 . S
C365 C72 1.506 . S
C371 C117 1.512 . S
C385 C6 1.477 . S
C391 C128 1.486 . S
C411 C93 1.204 . S
C405 C29 1.391 . S
C425 C28 1.508 . S
C431 C172 1.515 . S
C451 C137 1.230 . S
C445 C50 1.437 . S
C471 C148 1.210 . S
C465 C73 1.394 . S
C485 C7 1.465 . S
C491 C161 1.477 . S
C511 C96 1.504 . S
C505 C4 1.504 . S
C531 C107 1.493 . S
C525 C30 1.514 . S
C545 C52 1.512 . S
C551 C118 1.522 . S
C565 C70 1.504 . S
C571 C129 1.521 . S
C591 C140 1.499 . S
C585 C74 1.509 . S
C605 C8 1.514 . S
C611 C151 1.490 . S
C625 C26 1.506 . S
C631 C162 1.521 . S
C645 C48 1.502 . S
C651 C173 1.520 . S
