# Generated by pormake.
# Topology ocu, (6,8)-cn, num edge types: 1
# Building blocks:
#     Node 0, Type 0, BuildingBlock: JUFBIX_clean_sbu_0, # of connection points: 6
#     Node 1, Type 0, BuildingBlock: JUFBIX_clean_sbu_0, # of connection points: 6
#     Node 2, Type 0, BuildingBlock: JUFBIX_clean_sbu_0, # of connection points: 6
#     Node 3, Type 0, BuildingBlock: JUFBIX_clean_sbu_0, # of connection points: 6
#     Node 4, Type 0, BuildingBlock: JUFBIX_clean_sbu_0, # of connection points: 6
#     Node 5, Type 0, BuildingBlock: JUFBIX_clean_sbu_0, # of connection points: 6
#     Node 6, Type 0, BuildingBlock: JUFBIX_clean_sbu_0, # of connection points: 6
#     Node 7, Type 0, BuildingBlock: JUFBIX_clean_sbu_0, # of connection points: 6
#     Node 8, Type 1, BuildingBlock: GIZVER_clean_sbu_0, # of connection points: 8
#     Node 9, Type 1, BuildingBlock: GIZVER_clean_sbu_0, # of connection points: 8
#     Node 10, Type 1, BuildingBlock: GIZVER_clean_sbu_0, # of connection points: 8
#     Node 11, Type 1, BuildingBlock: GIZVER_clean_sbu_0, # of connection points: 8
#     Node 12, Type 1, BuildingBlock: GIZVER_clean_sbu_0, # of connection points: 8
#     Node 13, Type 1, BuildingBlock: GIZVER_clean_sbu_0, # of connection points: 8
#     Edge 14, Type (0, 1), None
#     Edge 15, Type (0, 1), None
#     Edge 16, Type (0, 1), None
#     Edge 17, Type (0, 1), None
#     Edge 18, Type (0, 1), None
#     Edge 19, Type (0, 1), None
#     Edge 20, Type (0, 1), None
#     Edge 21, Type (0, 1), None
#     Edge 22, Type (0, 1), None
#     Edge 23, Type (0, 1), None
#     Edge 24, Type (0, 1), None
#     Edge 25, Type (0, 1), None
#     Edge 26, Type (0, 1), None
#     Edge 27, Type (0, 1), None
#     Edge 28, Type (0, 1), None
#     Edge 29, Type (0, 1), None
#     Edge 30, Type (0, 1), None
#     Edge 31, Type (0, 1), None
#     Edge 32, Type (0, 1), None
#     Edge 33, Type (0, 1), None
#     Edge 34, Type (0, 1), None
#     Edge 35, Type (0, 1), None
#     Edge 36, Type (0, 1), None
#     Edge 37, Type (0, 1), None
#     Edge 38, Type (0, 1), None
#     Edge 39, Type (0, 1), None
#     Edge 40, Type (0, 1), None
#     Edge 41, Type (0, 1), None
#     Edge 42, Type (0, 1), None
#     Edge 43, Type (0, 1), None
#     Edge 44, Type (0, 1), None
#     Edge 45, Type (0, 1), None
#     Edge 46, Type (0, 1), None
#     Edge 47, Type (0, 1), None
#     Edge 48, Type (0, 1), None
#     Edge 49, Type (0, 1), None
#     Edge 50, Type (0, 1), None
#     Edge 51, Type (0, 1), None
#     Edge 52, Type (0, 1), None
#     Edge 53, Type (0, 1), None
#     Edge 54, Type (0, 1), None
#     Edge 55, Type (0, 1), None
#     Edge 56, Type (0, 1), None
#     Edge 57, Type (0, 1), None
#     Edge 58, Type (0, 1), None
#     Edge 59, Type (0, 1), None
#     Edge 60, Type (0, 1), None
#     Edge 61, Type (0, 1), None
# Relax obj value: 0.409
# Max RMSD: 0.357
# Mean RMSD: 0.217
data_MOF--net-ocu--node1-JUFBIX_clean_sbu_0--node2-GIZVER_clean_sbu_0--edge1-none
_symmetry_space_group_name_H-M    P1
_symmetry_Int_Tables_number       1
_symmetry_cell_setting            triclinic
loop_
_symmetry_equiv_pos_as_xyz
'x, y, z'
_cell_length_a     19.763361
_cell_length_b     20.454973
_cell_length_c     16.188795
_cell_angle_alpha  92.747525
_cell_angle_beta   97.47278
_cell_angle_gamma 109.41703
loop_
_atom_site_label
_atom_site_type_symbol
_atom_site_fract_x
_atom_site_fract_y
_atom_site_fract_z
_atom_type_partial_charge
Co0 Co 0.31018 0.31376 0.23693 0.0
C1 C 0.29479 0.43376 0.32959 0.0
Co2 Co 0.40873 0.40087 0.28392 0.0
C3 C 0.2004 0.21452 0.29958 0.0
C4 C 0.16673 0.21111 0.16812 0.0
N5 N 0.22396 0.24027 0.22948 0.0
N6 N 0.13192 0.17102 0.28567 0.0
C7 C 0.10926 0.16849 0.20298 0.0
H8 H 0.22942 0.23293 0.36219 0.0
H9 H 0.16521 0.22333 0.10378 0.0
C10 C 0.42582 0.28458 0.19004 0.0
N11 N 0.49078 0.47833 0.29991 0.0
C12 C 0.55458 0.48179 0.27715 0.0
C13 C 0.49056 0.54433 0.30176 0.0
N14 N 0.59103 0.54546 0.25706 0.0
C15 C 0.55149 0.58521 0.27406 0.0
C16 C 0.40493 0.3012 0.38799 0.0
O17 O 0.35656 0.25726 0.18038 0.0
O18 O 0.45477 0.34726 0.22298 0.0
O19 O 0.44516 0.36395 0.38419 0.0
O20 O 0.3453 0.27883 0.33831 0.0
O21 O 0.3633 0.4546 0.34521 0.0
H22 H 0.44436 0.56002 0.30832 0.0
H23 H 0.56833 0.43644 0.26028 0.0
O24 O 0.26297 0.37232 0.29287 0.0
O25 O 0.27704 0.34654 0.1338 0.0
O26 O 0.37365 0.43693 0.18012 0.0
C27 C 0.3162 0.40873 0.12592 0.0
H28 H 1.05491 0.14005 0.17083 0.0
H29 H 0.55987 0.63692 0.25448 0.0
Co30 Co 0.88283 0.33946 0.24604 0.0
C31 C 0.9189 0.44406 0.38557 0.0
Co32 Co 0.80242 0.33906 0.32712 0.0
C33 C 0.99541 0.41614 0.17332 0.0
C34 C 1.00735 0.3177 0.19205 0.0
N35 N 0.95921 0.35203 0.1906 0.0
N36 N 1.06461 0.42499 0.16882 0.0
C37 C 1.07332 0.36334 0.17926 0.0
H38 H 0.97381 0.45835 0.17176 0.0
H39 H 0.99717 0.26479 0.20766 0.0
C40 C 0.75745 0.23938 0.18682 0.0
N41 N 0.72492 0.3261 0.38764 0.0
C42 C 0.71764 0.27082 0.43075 0.0
C43 C 0.65766 0.3122 0.34378 0.0
N44 N 0.66021 0.21645 0.39617 0.0
C45 C 0.61791 0.243 0.34698 0.0
C46 C 0.79444 0.41555 0.18914 0.0
O47 O 0.82109 0.26313 0.16765 0.0
O48 O 0.74493 0.26184 0.25474 0.0
O49 O 0.76507 0.39714 0.25391 0.0
O50 O 0.84871 0.3989 0.17744 0.0
O51 O 0.85508 0.41499 0.39883 0.0
H52 H 0.64436 0.34396 0.29734 0.0
H53 H 0.75979 0.26636 0.47708 0.0
O54 O 0.94197 0.41928 0.32562 0.0
O55 O 0.91952 0.28026 0.30988 0.0
O56 O 0.84652 0.27953 0.39777 0.0
C57 C 0.89844 0.26177 0.37734 0.0
H58 H 0.12259 0.35184 0.17541 0.0
H59 H 0.56908 0.21256 0.3049 0.0
Co60 Co 0.823 0.80535 0.30429 0.0
C61 C 0.96718 0.90878 0.3603 0.0
Co62 Co 0.87273 0.88427 0.22362 0.0
C63 C 0.80195 0.69671 0.40016 0.0
C64 C 0.81191 0.79379 0.46512 0.0
N65 N 0.791 0.75652 0.38951 0.0
N66 N 0.84406 0.70292 0.47336 0.0
C67 C 0.8512 0.76385 0.51397 0.0
H68 H 0.7978 0.65932 0.34827 0.0
H69 H 0.821 0.84865 0.47544 0.0
C70 C 0.7308 0.77279 0.16483 0.0
N71 N 0.89979 0.94089 0.13438 0.0
C72 C 0.8527 0.97506 0.12212 0.0
C73 C 0.88579 0.90105 0.0607 0.0
N74 N 0.7944 0.93791 0.06668 0.0
C75 C 0.81696 0.89366 0.02306 0.0
C76 C 0.91316 0.76581 0.20749 0.0
O77 O 0.73774 0.75018 0.23513 0.0
O78 O 0.77915 0.8285 0.15239 0.0
O79 O 0.91723 0.82419 0.1824 0.0
O80 O 0.87363 0.74323 0.26369 0.0
O81 O 0.95998 0.93291 0.29031 0.0
H82 H 0.91232 0.86417 0.04753 0.0
H83 H 0.85291 1.01685 0.16591 0.0
O84 O 0.91459 0.85902 0.37846 0.0
O85 O 0.77344 0.86555 0.34302 0.0
O86 O 0.83067 0.94856 0.27459 0.0
C87 C 0.79002 0.9284 0.32913 0.0
H88 H 0.89324 0.79182 0.56504 0.0
H89 H 0.78139 0.84729 0.98456 0.0
Co90 Co 0.30261 0.88105 0.23463 0.0
C91 C 0.4009 0.94329 0.38579 0.0
Co92 Co 0.36582 0.82341 0.28818 0.0
C93 C 0.18486 0.91375 0.25255 0.0
C94 C 0.26729 0.99996 0.21835 0.0
N95 N 0.23913 0.92977 0.20741 0.0
N96 N 0.19653 0.96478 0.31299 0.0
C97 C 0.24141 1.02189 0.28497 0.0
H98 H 0.15022 0.86098 0.25594 0.0
H99 H 0.31652 1.03088 0.19688 0.0
C100 C 0.2543 0.76537 0.14174 0.0
N101 N 0.42324 0.76832 0.31106 0.0
C102 C 0.47507 0.77675 0.2627 0.0
C103 C 0.38667 0.6989 0.30153 0.0
N104 N 0.45703 0.7221 0.20581 0.0
C105 C 0.40507 0.6708 0.23336 0.0
C106 C 0.23994 0.7626 0.35526 0.0
O107 O 0.26082 0.82785 0.13651 0.0
O108 O 0.2975 0.75105 0.19837 0.0
O109 O 0.3075 0.77441 0.37121 0.0
O110 O 0.22396 0.80095 0.29883 0.0
O111 O 0.4254 0.89381 0.37386 0.0
H112 H 0.33811 0.67334 0.32751 0.0
H113 H 0.51591 0.82651 0.25769 0.0
O114 O 0.34478 0.9426 0.33744 0.0
O115 O 0.38107 0.94917 0.17173 0.0
O116 O 0.43054 0.87344 0.20368 0.0
C117 C 0.43464 0.92781 0.16587 0.0
H118 H 0.26713 1.07212 0.32115 0.0
H119 H 0.3764 0.61959 0.20109 0.0
Co120 Co 0.40461 0.82824 0.69895 0.0
C121 C 0.44958 0.92793 0.83925 0.0
Co122 Co 0.3242 0.82785 0.78003 0.0
C123 C 0.4894 0.89649 0.59532 0.0
C124 C 0.54937 0.85511 0.6823 0.0
N125 N 0.48211 0.84121 0.63844 0.0
N126 N 0.54682 0.95086 0.62991 0.0
C127 C 0.58912 0.92431 0.6791 0.0
H128 H 0.44724 0.90095 0.54899 0.0
H129 H 0.56267 0.82335 0.72874 0.0
C130 C 0.28813 0.72325 0.64051 0.0
N131 N 0.24781 0.81528 0.83547 0.0
C132 C 0.21162 0.75117 0.85275 0.0
C133 C 0.19968 0.84961 0.83402 0.0
N134 N 0.14242 0.74232 0.85726 0.0
C135 C 0.1337 0.80397 0.84681 0.0
C136 C 0.30859 0.90554 0.64873 0.0
O137 O 0.35195 0.75231 0.62725 0.0
O138 O 0.26506 0.74804 0.70046 0.0
O139 O 0.28751 0.88705 0.71619 0.0
O140 O 0.36051 0.88777 0.6283 0.0
O141 O 0.38594 0.90418 0.85843 0.0
H142 H 0.20985 0.90252 0.81841 0.0
H143 H 0.23322 0.70896 0.85431 0.0
O144 O 0.46209 0.90547 0.77134 0.0
O145 O 0.44197 0.77017 0.77216 0.0
O146 O 0.35832 0.76841 0.84863 0.0
C147 C 0.41259 0.75176 0.83693 0.0
H148 H 0.63794 0.95476 0.72119 0.0
H149 H 1.08444 0.81546 0.85066 0.0
Co150 Co 0.3343 0.28304 0.80246 0.0
C151 C 0.47622 0.39452 0.86125 0.0
Co152 Co 0.38402 0.36196 0.72179 0.0
C153 C 0.35432 0.19225 0.90396 0.0
C154 C 0.32123 0.26626 0.96538 0.0
N155 N 0.30724 0.22643 0.8917 0.0
N156 N 0.41262 0.2294 0.9594 0.0
C157 C 0.39006 0.27365 1.00301 0.0
H158 H 0.35411 0.15045 0.86017 0.0
H159 H 0.29472 0.30314 0.97855 0.0
C160 C 0.23985 0.25853 0.66578 0.0
N161 N 0.41602 0.41079 0.63656 0.0
C162 C 0.40508 0.4706 0.62591 0.0
C163 C 0.39512 0.37352 0.56096 0.0
N164 N 0.36297 0.4644 0.55272 0.0
C165 C 0.35583 0.40347 0.51211 0.0
C166 C 0.417 0.23891 0.69695 0.0
O167 O 0.24705 0.2344 0.73577 0.0
O168 O 0.29243 0.30829 0.64762 0.0
O169 O 0.43358 0.30176 0.68306 0.0
O170 O 0.37636 0.21875 0.75149 0.0
O171 O 0.46929 0.41713 0.79094 0.0
H172 H 0.38602 0.31866 0.55063 0.0
H173 H 0.40923 0.50799 0.67781 0.0
O174 O 0.42788 0.33881 0.87369 0.0
O175 O 0.2898 0.34312 0.84368 0.0
O176 O 0.33339 0.42408 0.76239 0.0
C177 C 0.29386 0.4015 0.81859 0.0
H178 H 0.42564 0.32002 0.04152 0.0
H179 H 0.31379 0.3755 0.46103 0.0
Co180 Co 0.8412 0.34389 0.7379 0.0
C181 C 0.95273 0.40194 0.88433 0.0
Co182 Co 0.90441 0.28626 0.79144 0.0
C183 C 0.73195 0.39055 0.76337 0.0
C184 C 0.82035 0.4684 0.72454 0.0
N185 N 0.78379 0.39898 0.71501 0.0
N186 N 0.75 0.4452 0.82027 0.0
C187 C 0.80196 0.49651 0.79272 0.0
H188 H 0.69112 0.34079 0.76839 0.0
H189 H 0.86892 0.49396 0.69857 0.0
C190 C 0.80612 0.22402 0.64029 0.0
N191 N 0.9679 0.23754 0.81865 0.0
C192 C 1.02216 0.25357 0.77351 0.0
C193 C 0.93974 0.16735 0.80772 0.0
N194 N 1.01049 0.20254 0.71307 0.0
C195 C 0.96562 0.14542 0.74109 0.0
C196 C 0.77239 0.2395 0.86021 0.0
O197 O 0.78161 0.27349 0.65222 0.0
O198 O 0.86224 0.22471 0.68863 0.0
O199 O 0.82596 0.21814 0.85434 0.0
O200 O 0.77649 0.29387 0.8224 0.0
O201 O 0.94621 0.33946 0.88956 0.0
H202 H 0.89051 0.13644 0.82918 0.0
H203 H 1.05681 0.30633 0.77012 0.0
O204 O 0.90953 0.41626 0.8277 0.0
O205 O 0.89952 0.39288 0.65486 0.0
O206 O 0.98306 0.36637 0.72724 0.0
C207 C 0.96707 0.4047 0.6708 0.0
H208 H 0.83063 0.54771 0.82499 0.0
H209 H 0.9399 0.09519 0.70492 0.0
Co210 Co 0.79829 0.76644 0.74215 0.0
C211 C 0.7812 0.88273 0.83604 0.0
Co212 Co 0.89684 0.85354 0.78914 0.0
C213 C 0.65244 0.68552 0.74892 0.0
C214 C 0.71647 0.62298 0.72432 0.0
N215 N 0.71624 0.68898 0.72617 0.0
N216 N 0.616 0.62185 0.76901 0.0
C217 C 0.65554 0.5821 0.75203 0.0
H218 H 0.6387 0.73087 0.76578 0.0
H219 H 0.76268 0.60729 0.71777 0.0
C220 C 0.91224 0.73355 0.69648 0.0
N221 N 0.98307 0.92704 0.7966 0.0
C222 C 1.00662 0.95279 0.7265 0.0
C223 C 1.04029 0.95619 0.85796 0.0
N224 N 1.07511 0.99629 0.74041 0.0
C225 C 1.09777 0.99881 0.8231 0.0
C226 C 0.89083 0.75858 0.90015 0.0
O227 O 0.84372 0.71271 0.68086 0.0
O228 O 0.94405 0.79499 0.7332 0.0
O229 O 0.92999 0.82076 0.89228 0.0
O230 O 0.83338 0.73038 0.84595 0.0
O231 O 0.85047 0.91004 0.8457 0.0
H232 H 1.04182 0.94396 0.92229 0.0
H233 H 0.9776 0.93439 0.6639 0.0
O234 O 0.75225 0.82004 0.80309 0.0
O235 O 0.76187 0.80336 0.64188 0.0
O236 O 0.86173 0.88848 0.68777 0.0
C237 C 0.80209 0.86611 0.63809 0.0
H238 H 0.64717 0.5304 0.77161 0.0
H239 H 0.15213 1.02724 0.85524 0.0
Co240 Co 0.17576 0.96446 0.45819 0.0
Co241 Co 0.22937 1.03447 0.60005 0.0
Co242 Co 0.10351 0.08366 0.51304 0.0
O243 O 0.18737 1.05593 0.50028 0.0
H244 H 0.22327 0.09187 0.47698 0.0
O245 O 1.01966 0.11138 0.5258 0.0
Co246 Co 1.03126 0.20286 0.56788 0.0
Co247 Co 0.97766 0.13284 0.42603 0.0
H248 H 0.98375 1.07544 0.5491 0.0
O249 O 0.31987 1.02144 0.61927 0.0
O250 O 0.2111 0.93885 0.57336 0.0
O251 O 0.18173 1.04601 0.69378 0.0
O252 O 1.07803 1.01953 0.60443 0.0
O253 O 0.16575 0.15299 0.60051 0.0
O254 O 1.03437 0.28021 0.61392 0.0
O255 O 0.94364 0.17498 0.58419 0.0
O256 O 0.13582 0.24196 0.55928 0.0
O257 O 0.12899 0.14779 0.42165 0.0
O258 O 1.0253 0.12129 0.3323 0.0
O259 O 0.99593 0.22846 0.4527 0.0
O260 O 0.88715 0.14585 0.40681 0.0
C261 C 0.20299 0.95209 0.39491 0.0
C262 C 1.02755 0.94999 0.42438 0.0
C263 C 0.11283 1.02366 0.67886 0.0
C264 C 0.28021 0.95604 0.6054 0.0
C265 C 1.00403 0.21523 0.63115 0.0
C266 C 0.17948 0.21733 0.6017 0.0
C267 C 1.0942 0.14365 0.34722 0.0
C268 C 0.92682 0.21126 0.42065 0.0
O269 O 0.17265 0.88711 0.41214 0.0
O270 O 0.26338 0.99233 0.44187 0.0
O271 O 1.04127 1.01432 0.42557 0.0
O272 O 1.07121 0.92535 0.4668 0.0
Co273 Co 0.65997 0.95621 0.92512 0.0
Co274 Co 0.63786 0.95505 0.0764 0.0
Co275 Co 0.60351 0.08365 0.01304 0.0
O276 O 0.66589 1.0279 1.01067 0.0
H277 H 0.71606 1.05645 0.02927 0.0
O278 O 0.54114 0.13941 0.01541 0.0
Co279 Co 0.54705 0.2111 0.10095 0.0
Co280 Co 0.56917 0.21225 0.94967 0.0
H281 H 0.49097 0.11085 0.99681 0.0
O282 O 0.715 0.95836 0.14653 0.0
O283 O 0.67075 0.89962 0.01676 0.0
O284 O 0.54187 0.92215 0.11309 0.0
O285 O 0.52344 1.02107 0.08789 0.0
O286 O 0.66869 0.13867 0.11501 0.0
O287 O 0.54435 0.27913 0.1752 0.0
O288 O 0.44897 0.19016 0.10971 0.0
O289 O 0.65137 0.24077 0.10703 0.0
O290 O 0.68358 0.14624 0.93819 0.0
O291 O 0.66515 0.24515 0.91298 0.0
O292 O 0.53628 0.26768 1.00931 0.0
O293 O 0.49203 0.20894 0.87955 0.0
C294 C 0.7328 0.91896 0.867 0.0
C295 C 0.51407 0.96236 0.90114 0.0
C296 C 0.5023 0.95968 0.11799 0.0
C297 C 0.72509 0.92964 0.07748 0.0
C298 C 0.47423 0.24835 0.15908 0.0
C299 C 0.69295 0.20495 0.12494 0.0
C300 C 0.70472 0.20762 0.90808 0.0
C301 C 0.48193 0.23767 0.9486 0.0
O302 O 0.66268 0.88818 0.85088 0.0
O303 O 0.75806 0.97714 0.91636 0.0
O304 O 0.53834 1.02864 0.91107 0.0
O305 O 0.55565 0.92654 0.91905 0.0
Co306 Co 0.18016 0.47098 0.9199 0.0
Co307 Co 0.23173 0.52131 0.06795 0.0
Co308 Co 0.10351 0.58366 0.01304 0.0
O309 O 0.18836 0.5573 0.98053 0.0
H310 H 0.22449 0.59649 0.96246 0.0
O311 O 1.01867 0.61001 0.04554 0.0
Co312 Co 1.02686 0.69634 0.10617 0.0
Co313 Co 0.9753 0.64601 0.95813 0.0
H314 H 0.98253 0.57082 0.06362 0.0
O315 O 0.32572 0.52089 0.08331 0.0
O316 O 0.22306 0.4334 0.02491 0.0
O317 O 0.17649 0.49365 0.15292 0.0
O318 O 1.07842 0.51097 0.08838 0.0
O319 O 0.1727 0.64965 0.10409 0.0
O320 O 1.0265 0.77099 0.16715 0.0
O321 O 0.93566 0.66807 0.13787 0.0
O322 O 0.12894 0.73667 0.08689 0.0
O323 O 0.12861 0.65634 0.93769 0.0
O324 O 1.03053 0.67366 0.87315 0.0
O325 O 0.98396 0.73392 1.00116 0.0
O326 O 0.88131 0.6464 0.94277 0.0
C327 C 0.24623 0.43563 0.85194 0.0
C328 C 1.02455 0.453 0.92005 0.0
C329 C 0.10879 0.48061 0.13955 0.0
C330 C 0.28916 0.45465 0.06923 0.0
C331 C 0.9608 0.73168 0.17414 0.0
C332 C 0.18248 0.71431 0.10602 0.0
C333 C 1.09824 0.6867 0.88651 0.0
C334 C 0.91788 0.71264 0.95681 0.0
O335 O 0.18052 0.39632 0.85892 0.0
O336 O 0.27137 0.49925 0.8882 0.0
O337 O 1.03432 0.51766 0.92198 0.0
O338 O 1.07809 0.43064 0.93918 0.0
Co339 Co 0.6783 0.46482 0.96751 0.0
Co340 Co 0.7276 0.53415 0.10505 0.0
Co341 Co 0.60351 0.58365 0.01304 0.0
O342 O 0.68582 0.55355 1.00627 0.0
H343 H 0.72241 0.58953 0.98388 0.0
O344 O 0.52121 0.61376 0.0198 0.0
Co345 Co 0.52873 0.70248 0.05856 0.0
Co346 Co 0.47942 0.63316 0.92103 0.0
H347 H 0.48462 0.57778 0.04219 0.0
O348 O 0.81644 0.5248 0.1323 0.0
O349 O 0.7073 0.43961 0.08582 0.0
O350 O 0.6892 0.5587 0.19734 0.0
O351 O 0.58217 0.53492 0.11625 0.0
O352 O 0.67096 0.66339 0.09058 0.0
O353 O 0.52586 0.77757 0.10878 0.0
O354 O 0.44031 0.66977 0.07471 0.0
O355 O 0.63029 0.74652 0.05181 0.0
O356 O 0.62486 0.63239 0.90982 0.0
O357 O 0.51782 0.60861 0.82874 0.0
O358 O 0.49973 0.7277 0.94026 0.0
O359 O 0.39058 0.64251 0.89378 0.0
C360 C 0.73086 0.44465 0.89703 0.0
C361 C 0.53015 0.44044 0.93058 0.0
C362 C 0.62262 0.55129 0.18841 0.0
C363 C 0.77169 0.46155 0.13243 0.0
C364 C 0.47617 0.72266 0.12905 0.0
C365 C 0.67687 0.72687 0.0955 0.0
C366 C 0.5844 0.61603 0.83766 0.0
C367 C 0.43534 0.70576 0.89364 0.0
O368 O 0.68116 0.38974 0.9173 0.0
O369 O 0.76671 0.49754 0.95136 0.0
O370 O 0.53607 0.50392 0.9355 0.0
O371 O 0.57674 0.42079 0.97427 0.0
Co372 Co 0.25005 0.54661 0.51378 0.0
Co373 Co 0.18449 0.54309 0.36706 0.0
Co374 Co 0.10351 0.58365 0.51304 0.0
O375 O 0.15228 0.52392 0.46852 0.0
H376 H 0.12417 0.47515 0.46793 0.0
O377 O 1.05475 0.64339 0.55756 0.0
Co378 Co 0.95698 0.62071 0.51229 0.0
Co379 Co 1.02255 0.62422 0.65902 0.0
H380 H 1.08286 0.69216 0.55814 0.0
O381 O 0.1861 0.46311 0.3078 0.0
O382 O 0.27776 0.53913 0.39686 0.0
O383 O 0.19654 0.63751 0.33029 0.0
O384 O 0.1577 0.67316 0.4424 0.0
O385 O 1.02415 0.54307 0.41885 0.0
O386 O 0.86837 0.60386 0.46835 0.0
O387 O 0.96014 0.70633 0.51022 0.0
O388 O 0.94282 0.52524 0.50411 0.0
O389 O 1.04933 0.49414 0.58368 0.0
O390 O 1.01049 0.52981 0.69579 0.0
O391 O 0.92927 0.62819 0.62921 0.0
O392 O 1.02093 0.70421 0.71827 0.0
C393 C 0.31507 0.49661 0.54274 0.0
C394 C 0.24332 0.66035 0.58801 0.0
C395 C 0.18898 0.6876 0.37405 0.0
C396 C 0.25188 0.48074 0.3466 0.0
C397 C 0.89197 0.67071 0.48333 0.0
C398 C 0.9637 0.50696 0.43806 0.0
C399 C 1.01801 0.47971 0.65201 0.0
C400 C 0.95515 0.68658 0.67947 0.0
O401 O 0.33866 0.56345 0.55773 0.0
O402 O 0.24689 0.46099 0.51586 0.0
O403 O 0.18288 0.62424 0.60723 0.0
O404 O 0.26421 0.64207 0.52197 0.0
Co405 Co 0.7405 1.00262 0.55411 0.0
Co406 Co 0.70765 1.04132 0.41422 0.0
Co407 Co 0.60351 0.08365 0.51304 0.0
O408 O 0.65035 1.01046 0.4965 0.0
H409 H 0.61478 0.96502 0.47767 0.0
O410 O 0.55666 0.15684 0.52958 0.0
Co411 Co 0.46652 0.16469 0.47197 0.0
Co412 Co 0.49936 0.12599 0.61186 0.0
H413 H 0.59224 0.20228 0.54841 0.0
O414 O 0.69695 0.97846 0.32656 0.0
O415 O 0.78364 1.00852 0.44344 0.0
O416 O 0.72108 0.13945 0.39313 0.0
O417 O 0.60564 0.10249 0.39568 0.0
O418 O 0.5094 1.00926 0.47046 0.0
O419 O 0.38914 0.1823 0.41727 0.0
O420 O 0.49257 0.26256 0.48147 0.0
O421 O 0.42696 1.06216 0.44215 0.0
O422 O 0.60138 1.0648 0.63041 0.0
O423 O 0.48593 1.02786 0.63295 0.0
O424 O 0.42338 0.15879 0.58263 0.0
O425 O 0.51007 0.18885 0.69952 0.0
C426 C 0.77752 0.9195 0.59248 0.0
C427 C 0.76088 0.15956 0.58565 0.0
C428 C 0.66098 0.15093 0.38447 0.0
C429 C 0.75555 0.97372 0.36868 0.0
C430 C 0.42951 0.24781 0.4336 0.0
C431 C 0.44614 1.00775 0.44043 0.0
C432 C 0.54603 1.01638 0.64163 0.0
C433 C 0.45147 0.19358 0.6574 0.0
O434 O 0.81788 0.98501 0.60881 0.0
O435 O 0.71445 0.90474 0.54461 0.0
O436 O 0.69761 0.15804 0.55563 0.0
O437 O 0.78006 0.10514 0.58393 0.0
loop_
_geom_bond_atom_site_label_1
_geom_bond_atom_site_label_2
_geom_bond_distance
_geom_bond_site_symmetry_2
_ccdc_geom_bond_type
Co0 N5 2.057 . S
Co0 O17 2.021 . S
Co0 O20 2.062 . S
Co0 O24 2.117 . S
Co0 O25 2.020 . S
C1 O21 1.259 . S
C1 O24 1.258 . S
Co2 N11 2.057 . S
Co2 O18 2.117 . S
Co2 O19 2.020 . S
Co2 O21 2.021 . S
Co2 O26 2.062 . S
C3 N5 1.316 . S
C3 N6 1.347 . S
C3 H8 0.931 . S
C4 N5 1.375 . S
C4 C7 1.350 . S
C4 H9 0.930 . S
N5 Co0 2.057 . S
N5 C3 1.316 . S
N5 C4 1.375 . S
N6 C3 1.347 . S
N6 C7 1.373 . S
C7 C4 1.350 . S
C7 N6 1.373 . S
C7 H28 0.931 . S
H8 C3 0.931 . S
H9 C4 0.930 . S
C10 O17 1.259 . S
C10 O18 1.258 . S
N11 Co2 2.057 . S
N11 C12 1.316 . S
N11 C13 1.375 . S
C12 N11 1.316 . S
C12 N14 1.347 . S
C12 H23 0.931 . S
C13 N11 1.375 . S
C13 C15 1.350 . S
C13 H22 0.930 . S
N14 C12 1.347 . S
N14 C15 1.373 . S
C15 C13 1.350 . S
C15 N14 1.373 . S
C15 H29 0.931 . S
C16 O19 1.256 . S
C16 O20 1.255 . S
O17 Co0 2.021 . S
O17 C10 1.259 . S
O18 Co2 2.117 . S
O18 C10 1.258 . S
O19 Co2 2.020 . S
O19 C16 1.256 . S
O20 Co0 2.062 . S
O20 C16 1.255 . S
O21 C1 1.259 . S
O21 Co2 2.021 . S
H22 C13 0.930 . S
H23 C12 0.931 . S
O24 Co0 2.117 . S
O24 C1 1.258 . S
O25 Co0 2.020 . S
O25 C27 1.256 . S
O26 Co2 2.062 . S
O26 C27 1.255 . S
C27 O25 1.256 . S
C27 O26 1.255 . S
H28 C7 0.931 . S
H29 C15 0.931 . S
Co30 N35 2.057 . S
Co30 O47 2.021 . S
Co30 O50 2.062 . S
Co30 O54 2.117 . S
Co30 O55 2.020 . S
C31 O51 1.259 . S
C31 O54 1.258 . S
Co32 N41 2.057 . S
Co32 O48 2.117 . S
Co32 O49 2.020 . S
Co32 O51 2.021 . S
Co32 O56 2.062 . S
C33 N35 1.316 . S
C33 N36 1.347 . S
C33 H38 0.931 . S
C34 N35 1.375 . S
C34 C37 1.350 . S
C34 H39 0.930 . S
N35 Co30 2.057 . S
N35 C33 1.316 . S
N35 C34 1.375 . S
N36 C33 1.347 . S
N36 C37 1.373 . S
C37 C34 1.350 . S
C37 N36 1.373 . S
C37 H58 0.931 . S
H38 C33 0.931 . S
H39 C34 0.930 . S
C40 O47 1.259 . S
C40 O48 1.258 . S
N41 Co32 2.057 . S
N41 C42 1.316 . S
N41 C43 1.375 . S
C42 N41 1.316 . S
C42 N44 1.347 . S
C42 H53 0.931 . S
C43 N41 1.375 . S
C43 C45 1.350 . S
C43 H52 0.930 . S
N44 C42 1.347 . S
N44 C45 1.373 . S
C45 C43 1.350 . S
C45 N44 1.373 . S
C45 H59 0.931 . S
C46 O49 1.256 . S
C46 O50 1.255 . S
O47 Co30 2.021 . S
O47 C40 1.259 . S
O48 Co32 2.117 . S
O48 C40 1.258 . S
O49 Co32 2.020 . S
O49 C46 1.256 . S
O50 Co30 2.062 . S
O50 C46 1.255 . S
O51 C31 1.259 . S
O51 Co32 2.021 . S
H52 C43 0.930 . S
H53 C42 0.931 . S
O54 Co30 2.117 . S
O54 C31 1.258 . S
O55 Co30 2.020 . S
O55 C57 1.256 . S
O56 Co32 2.062 . S
O56 C57 1.255 . S
C57 O55 1.256 . S
C57 O56 1.255 . S
H58 C37 0.931 . S
H59 C45 0.931 . S
Co60 N65 2.057 . S
Co60 O77 2.021 . S
Co60 O80 2.062 . S
Co60 O84 2.117 . S
Co60 O85 2.020 . S
C61 O81 1.259 . S
C61 O84 1.258 . S
Co62 N71 2.057 . S
Co62 O78 2.117 . S
Co62 O79 2.020 . S
Co62 O81 2.021 . S
Co62 O86 2.062 . S
C63 N65 1.316 . S
C63 N66 1.347 . S
C63 H68 0.931 . S
C64 N65 1.375 . S
C64 C67 1.350 . S
C64 H69 0.930 . S
N65 Co60 2.057 . S
N65 C63 1.316 . S
N65 C64 1.375 . S
N66 C63 1.347 . S
N66 C67 1.373 . S
C67 C64 1.350 . S
C67 N66 1.373 . S
C67 H88 0.931 . S
H68 C63 0.931 . S
H69 C64 0.930 . S
C70 O77 1.259 . S
C70 O78 1.258 . S
N71 Co62 2.057 . S
N71 C72 1.316 . S
N71 C73 1.375 . S
C72 N71 1.316 . S
C72 N74 1.347 . S
C72 H83 0.931 . S
C73 N71 1.375 . S
C73 C75 1.350 1_554 S
C73 H82 0.930 . S
N74 C72 1.347 . S
N74 C75 1.373 1_554 S
C75 C73 1.350 1_556 S
C75 N74 1.373 1_556 S
C75 H89 0.931 . S
C76 O79 1.256 . S
C76 O80 1.255 . S
O77 Co60 2.021 . S
O77 C70 1.259 . S
O78 Co62 2.117 . S
O78 C70 1.258 . S
O79 Co62 2.020 . S
O79 C76 1.256 . S
O80 Co60 2.062 . S
O80 C76 1.255 . S
O81 C61 1.259 . S
O81 Co62 2.021 . S
H82 C73 0.930 . S
H83 C72 0.931 . S
O84 Co60 2.117 . S
O84 C61 1.258 . S
O85 Co60 2.020 . S
O85 C87 1.256 . S
O86 Co62 2.062 . S
O86 C87 1.255 . S
C87 O85 1.256 . S
C87 O86 1.255 . S
H88 C67 0.931 . S
H89 C75 0.931 . S
Co90 N95 2.057 . S
Co90 O107 2.021 . S
Co90 O110 2.062 . S
Co90 O114 2.117 . S
Co90 O115 2.020 . S
C91 O111 1.259 . S
C91 O114 1.258 . S
Co92 N101 2.057 . S
Co92 O108 2.117 . S
Co92 O109 2.020 . S
Co92 O111 2.021 . S
Co92 O116 2.062 . S
C93 N95 1.316 . S
C93 N96 1.347 . S
C93 H98 0.931 . S
C94 N95 1.375 . S
C94 C97 1.350 . S
C94 H99 0.930 . S
N95 Co90 2.057 . S
N95 C93 1.316 . S
N95 C94 1.375 . S
N96 C93 1.347 . S
N96 C97 1.373 . S
C97 C94 1.350 . S
C97 N96 1.373 . S
C97 H118 0.931 . S
H98 C93 0.931 . S
H99 C94 0.930 . S
C100 O107 1.259 . S
C100 O108 1.258 . S
N101 Co92 2.057 . S
N101 C102 1.316 . S
N101 C103 1.375 . S
C102 N101 1.316 . S
C102 N104 1.347 . S
C102 H113 0.931 . S
C103 N101 1.375 . S
C103 C105 1.350 . S
C103 H112 0.930 . S
N104 C102 1.347 . S
N104 C105 1.373 . S
C105 C103 1.350 . S
C105 N104 1.373 . S
C105 H119 0.931 . S
C106 O109 1.256 . S
C106 O110 1.255 . S
O107 Co90 2.021 . S
O107 C100 1.259 . S
O108 Co92 2.117 . S
O108 C100 1.258 . S
O109 Co92 2.020 . S
O109 C106 1.256 . S
O110 Co90 2.062 . S
O110 C106 1.255 . S
O111 C91 1.259 . S
O111 Co92 2.021 . S
H112 C103 0.930 . S
H113 C102 0.931 . S
O114 Co90 2.117 . S
O114 C91 1.258 . S
O115 Co90 2.020 . S
O115 C117 1.256 . S
O116 Co92 2.062 . S
O116 C117 1.255 . S
C117 O115 1.256 . S
C117 O116 1.255 . S
H118 C97 0.931 . S
H119 C105 0.931 . S
Co120 N125 2.057 . S
Co120 O137 2.021 . S
Co120 O140 2.062 . S
Co120 O144 2.117 . S
Co120 O145 2.020 . S
C121 O141 1.259 . S
C121 O144 1.258 . S
Co122 N131 2.057 . S
Co122 O138 2.117 . S
Co122 O139 2.020 . S
Co122 O141 2.021 . S
Co122 O146 2.062 . S
C123 N125 1.316 . S
C123 N126 1.347 . S
C123 H128 0.931 . S
C124 N125 1.375 . S
C124 C127 1.350 . S
C124 H129 0.930 . S
N125 Co120 2.057 . S
N125 C123 1.316 . S
N125 C124 1.375 . S
N126 C123 1.347 . S
N126 C127 1.373 . S
C127 C124 1.350 . S
C127 N126 1.373 . S
C127 H148 0.931 . S
H128 C123 0.931 . S
H129 C124 0.930 . S
C130 O137 1.259 . S
C130 O138 1.258 . S
N131 Co122 2.057 . S
N131 C132 1.316 . S
N131 C133 1.375 . S
C132 N131 1.316 . S
C132 N134 1.347 . S
C132 H143 0.931 . S
C133 N131 1.375 . S
C133 C135 1.350 . S
C133 H142 0.930 . S
N134 C132 1.347 . S
N134 C135 1.373 . S
C135 C133 1.350 . S
C135 N134 1.373 . S
C135 H149 0.931 . S
C136 O139 1.256 . S
C136 O140 1.255 . S
O137 Co120 2.021 . S
O137 C130 1.259 . S
O138 Co122 2.117 . S
O138 C130 1.258 . S
O139 Co122 2.020 . S
O139 C136 1.256 . S
O140 Co120 2.062 . S
O140 C136 1.255 . S
O141 C121 1.259 . S
O141 Co122 2.021 . S
H142 C133 0.930 . S
H143 C132 0.931 . S
O144 Co120 2.117 . S
O144 C121 1.258 . S
O145 Co120 2.020 . S
O145 C147 1.256 . S
O146 Co122 2.062 . S
O146 C147 1.255 . S
C147 O145 1.256 . S
C147 O146 1.255 . S
H148 C127 0.931 . S
H149 C135 0.931 . S
Co150 N155 2.057 . S
Co150 O167 2.021 . S
Co150 O170 2.062 . S
Co150 O174 2.117 . S
Co150 O175 2.020 . S
C151 O171 1.259 . S
C151 O174 1.258 . S
Co152 N161 2.057 . S
Co152 O168 2.117 . S
Co152 O169 2.020 . S
Co152 O171 2.021 . S
Co152 O176 2.062 . S
C153 N155 1.316 . S
C153 N156 1.347 . S
C153 H158 0.931 . S
C154 N155 1.375 . S
C154 C157 1.350 1_556 S
C154 H159 0.930 . S
N155 Co150 2.057 . S
N155 C153 1.316 . S
N155 C154 1.375 . S
N156 C153 1.347 . S
N156 C157 1.373 1_556 S
C157 C154 1.350 1_554 S
C157 N156 1.373 1_554 S
C157 H178 0.931 . S
H158 C153 0.931 . S
H159 C154 0.930 . S
C160 O167 1.259 . S
C160 O168 1.258 . S
N161 Co152 2.057 . S
N161 C162 1.316 . S
N161 C163 1.375 . S
C162 N161 1.316 . S
C162 N164 1.347 . S
C162 H173 0.931 . S
C163 N161 1.375 . S
C163 C165 1.350 . S
C163 H172 0.930 . S
N164 C162 1.347 . S
N164 C165 1.373 . S
C165 C163 1.350 . S
C165 N164 1.373 . S
C165 H179 0.931 . S
C166 O169 1.256 . S
C166 O170 1.255 . S
O167 Co150 2.021 . S
O167 C160 1.259 . S
O168 Co152 2.117 . S
O168 C160 1.258 . S
O169 Co152 2.020 . S
O169 C166 1.256 . S
O170 Co150 2.062 . S
O170 C166 1.255 . S
O171 C151 1.259 . S
O171 Co152 2.021 . S
H172 C163 0.930 . S
H173 C162 0.931 . S
O174 Co150 2.117 . S
O174 C151 1.258 . S
O175 Co150 2.020 . S
O175 C177 1.256 . S
O176 Co152 2.062 . S
O176 C177 1.255 . S
C177 O175 1.256 . S
C177 O176 1.255 . S
H178 C157 0.931 . S
H179 C165 0.931 . S
Co180 N185 2.057 . S
Co180 O197 2.021 . S
Co180 O200 2.062 . S
Co180 O204 2.117 . S
Co180 O205 2.020 . S
C181 O201 1.259 . S
C181 O204 1.258 . S
Co182 N191 2.057 . S
Co182 O198 2.117 . S
Co182 O199 2.020 . S
Co182 O201 2.021 . S
Co182 O206 2.062 . S
C183 N185 1.316 . S
C183 N186 1.347 . S
C183 H188 0.931 . S
C184 N185 1.375 . S
C184 C187 1.350 . S
C184 H189 0.930 . S
N185 Co180 2.057 . S
N185 C183 1.316 . S
N185 C184 1.375 . S
N186 C183 1.347 . S
N186 C187 1.373 . S
C187 C184 1.350 . S
C187 N186 1.373 . S
C187 H208 0.931 . S
H188 C183 0.931 . S
H189 C184 0.930 . S
C190 O197 1.259 . S
C190 O198 1.258 . S
N191 Co182 2.057 . S
N191 C192 1.316 . S
N191 C193 1.375 . S
C192 N191 1.316 . S
C192 N194 1.347 . S
C192 H203 0.931 . S
C193 N191 1.375 . S
C193 C195 1.350 . S
C193 H202 0.930 . S
N194 C192 1.347 . S
N194 C195 1.373 . S
C195 C193 1.350 . S
C195 N194 1.373 . S
C195 H209 0.931 . S
C196 O199 1.256 . S
C196 O200 1.255 . S
O197 Co180 2.021 . S
O197 C190 1.259 . S
O198 Co182 2.117 . S
O198 C190 1.258 . S
O199 Co182 2.020 . S
O199 C196 1.256 . S
O200 Co180 2.062 . S
O200 C196 1.255 . S
O201 C181 1.259 . S
O201 Co182 2.021 . S
H202 C193 0.930 . S
H203 C192 0.931 . S
O204 Co180 2.117 . S
O204 C181 1.258 . S
O205 Co180 2.020 . S
O205 C207 1.256 . S
O206 Co182 2.062 . S
O206 C207 1.255 . S
C207 O205 1.256 . S
C207 O206 1.255 . S
H208 C187 0.931 . S
H209 C195 0.931 . S
Co210 N215 2.057 . S
Co210 O227 2.021 . S
Co210 O230 2.062 . S
Co210 O234 2.117 . S
Co210 O235 2.020 . S
C211 O231 1.259 . S
C211 O234 1.258 . S
Co212 N221 2.057 . S
Co212 O228 2.117 . S
Co212 O229 2.020 . S
Co212 O231 2.021 . S
Co212 O236 2.062 . S
C213 N215 1.316 . S
C213 N216 1.347 . S
C213 H218 0.931 . S
C214 N215 1.375 . S
C214 C217 1.350 . S
C214 H219 0.930 . S
N215 Co210 2.057 . S
N215 C213 1.316 . S
N215 C214 1.375 . S
N216 C213 1.347 . S
N216 C217 1.373 . S
C217 C214 1.350 . S
C217 N216 1.373 . S
C217 H238 0.931 . S
H218 C213 0.931 . S
H219 C214 0.930 . S
C220 O227 1.259 . S
C220 O228 1.258 . S
N221 Co212 2.057 . S
N221 C222 1.316 . S
N221 C223 1.375 . S
C222 N221 1.316 . S
C222 N224 1.347 . S
C222 H233 0.931 . S
C223 N221 1.375 . S
C223 C225 1.350 . S
C223 H232 0.930 . S
N224 C222 1.347 . S
N224 C225 1.373 . S
C225 C223 1.350 . S
C225 N224 1.373 . S
C225 H239 0.931 . S
C226 O229 1.256 . S
C226 O230 1.255 . S
O227 Co210 2.021 . S
O227 C220 1.259 . S
O228 Co212 2.117 . S
O228 C220 1.258 . S
O229 Co212 2.020 . S
O229 C226 1.256 . S
O230 Co210 2.062 . S
O230 C226 1.255 . S
O231 C211 1.259 . S
O231 Co212 2.021 . S
H232 C223 0.930 . S
H233 C222 0.931 . S
O234 Co210 2.117 . S
O234 C211 1.258 . S
O235 Co210 2.020 . S
O235 C237 1.256 . S
O236 Co212 2.062 . S
O236 C237 1.255 . S
C237 O235 1.256 . S
C237 O236 1.255 . S
H238 C217 0.931 . S
H239 C225 0.931 . S
Co240 O243 2.042 . S
Co240 O250 2.264 . S
Co240 O269 2.286 . S
Co240 O270 2.069 . S
Co240 O272 2.015 1_455 S
Co241 O243 2.122 . S
Co241 O249 2.073 . S
Co241 O250 2.327 . S
Co241 O251 1.976 1_455 S
Co242 O243 2.082 1_545 S
Co242 O245 2.092 1_455 S
Co242 O252 2.107 1_445 S
Co242 O253 2.148 . S
Co242 O257 2.115 . S
Co242 O271 2.139 1_445 S
O243 Co240 2.042 . S
O243 Co241 2.122 . S
O243 Co242 2.082 1_565 S
O243 H244 0.980 . S
H244 O243 0.980 . S
O245 Co242 2.092 1_655 S
O245 Co246 2.042 . S
O245 Co247 2.122 . S
O245 H248 0.980 . S
Co246 O245 2.042 . S
Co246 O254 2.286 . S
Co246 O255 2.069 . S
Co246 O256 2.015 1_655 S
Co246 O259 2.264 . S
Co247 O245 2.122 . S
Co247 O258 1.976 1_655 S
Co247 O259 2.327 . S
Co247 O260 2.073 . S
H248 O245 0.980 . S
O249 Co241 2.073 . S
O249 C264 1.245 . S
O250 Co240 2.264 . S
O250 Co241 2.327 . S
O250 C264 1.257 . S
O251 Co241 1.976 1_655 S
O251 C263 1.251 . S
O252 Co242 2.107 1_665 S
O252 C263 1.274 . S
O253 Co242 2.148 . S
O253 C266 1.246 . S
O254 Co246 2.286 . S
O254 C265 1.259 . S
O255 Co246 2.069 . S
O255 C265 1.289 . S
O256 Co246 2.015 1_455 S
O256 C266 1.257 . S
O257 Co242 2.115 . S
O257 C267 1.274 . S
O258 Co247 1.976 1_455 S
O258 C267 1.251 . S
O259 Co246 2.264 . S
O259 Co247 2.327 . S
O259 C268 1.257 . S
O260 Co247 2.073 . S
O260 C268 1.245 . S
C261 O269 1.259 . S
C261 O270 1.289 . S
C262 O271 1.246 . S
C262 O272 1.257 . S
C263 O251 1.251 . S
C263 O252 1.274 . S
C264 O249 1.245 . S
C264 O250 1.257 . S
C265 O254 1.259 . S
C265 O255 1.289 . S
C266 O253 1.246 . S
C266 O256 1.257 . S
C267 O257 1.274 . S
C267 O258 1.251 . S
C268 O259 1.257 . S
C268 O260 1.245 . S
O269 Co240 2.286 . S
O269 C261 1.259 . S
O270 Co240 2.069 . S
O270 C261 1.289 . S
O271 Co242 2.139 1_665 S
O271 C262 1.246 . S
O272 Co240 2.015 1_655 S
O272 C262 1.257 . S
Co273 O276 2.042 1_556 S
Co273 O283 2.264 1_556 S
Co273 O302 2.286 . S
Co273 O303 2.069 . S
Co273 O305 2.015 . S
Co274 O276 2.122 . S
Co274 O282 2.073 . S
Co274 O283 2.327 . S
Co274 O284 1.976 . S
Co275 O276 2.080 1_545 S
Co275 O278 2.094 1_554 S
Co275 O285 2.109 1_545 S
Co275 O286 2.148 . S
Co275 O290 2.114 1_554 S
Co275 O304 2.139 1_544 S
O276 Co273 2.042 1_554 S
O276 Co274 2.122 . S
O276 Co275 2.080 1_565 S
O276 H277 0.980 . S
H277 O276 0.980 . S
O278 Co275 2.094 1_556 S
O278 Co279 2.042 1_556 S
O278 Co280 2.122 . S
O278 H281 0.980 . S
Co279 O278 2.042 1_554 S
Co279 O287 2.286 . S
Co279 O288 2.069 . S
Co279 O289 2.015 . S
Co279 O292 2.264 1_554 S
Co280 O278 2.122 . S
Co280 O291 1.976 . S
Co280 O292 2.327 . S
Co280 O293 2.073 . S
H281 O278 0.980 . S
O282 Co274 2.073 . S
O282 C297 1.245 . S
O283 Co273 2.264 1_554 S
O283 Co274 2.327 . S
O283 C297 1.257 . S
O284 Co274 1.976 . S
O284 C296 1.251 . S
O285 Co275 2.109 1_565 S
O285 C296 1.274 . S
O286 Co275 2.148 . S
O286 C299 1.246 . S
O287 Co279 2.286 . S
O287 C298 1.259 . S
O288 Co279 2.069 . S
O288 C298 1.289 . S
O289 Co279 2.015 . S
O289 C299 1.257 . S
O290 Co275 2.114 1_556 S
O290 C300 1.274 . S
O291 Co280 1.976 . S
O291 C300 1.251 . S
O292 Co279 2.264 1_556 S
O292 Co280 2.327 . S
O292 C301 1.257 . S
O293 Co280 2.073 . S
O293 C301 1.245 . S
C294 O302 1.259 . S
C294 O303 1.289 . S
C295 O304 1.246 . S
C295 O305 1.257 . S
C296 O284 1.251 . S
C296 O285 1.274 . S
C297 O282 1.245 . S
C297 O283 1.257 . S
C298 O287 1.259 . S
C298 O288 1.289 . S
C299 O286 1.246 . S
C299 O289 1.257 . S
C300 O290 1.274 . S
C300 O291 1.251 . S
C301 O292 1.257 . S
C301 O293 1.245 . S
O302 Co273 2.286 . S
O302 C294 1.259 . S
O303 Co273 2.069 . S
O303 C294 1.289 . S
O304 Co275 2.139 1_566 S
O304 C295 1.246 . S
O305 Co273 2.015 . S
O305 C295 1.257 . S
Co306 O309 2.042 1_556 S
Co306 O316 2.264 1_556 S
Co306 O335 2.286 . S
Co306 O336 2.069 . S
Co306 O338 2.015 1_455 S
Co307 O309 2.122 . S
Co307 O315 2.073 . S
Co307 O316 2.327 . S
Co307 O317 1.976 1_455 S
Co308 O309 2.089 . S
Co308 O311 2.085 1_454 S
Co308 O318 2.110 1_455 S
Co308 O319 2.144 . S
Co308 O323 2.113 1_554 S
Co308 O337 2.143 1_454 S
O309 Co306 2.042 1_554 S
O309 Co307 2.122 . S
O309 Co308 2.089 . S
O309 H310 0.980 . S
H310 O309 0.980 . S
O311 Co308 2.085 1_656 S
O311 Co312 2.042 1_556 S
O311 Co313 2.122 . S
O311 H314 0.980 . S
Co312 O311 2.042 1_554 S
Co312 O320 2.286 . S
Co312 O321 2.069 . S
Co312 O322 2.015 1_655 S
Co312 O325 2.264 1_554 S
Co313 O311 2.122 . S
Co313 O324 1.976 1_655 S
Co313 O325 2.327 . S
Co313 O326 2.073 . S
H314 O311 0.980 . S
O315 Co307 2.073 . S
O315 C330 1.245 . S
O316 Co306 2.264 1_554 S
O316 Co307 2.327 . S
O316 C330 1.257 . S
O317 Co307 1.976 1_655 S
O317 C329 1.251 . S
O318 Co308 2.110 1_655 S
O318 C329 1.274 . S
O319 Co308 2.144 . S
O319 C332 1.246 . S
O320 Co312 2.286 . S
O320 C331 1.259 . S
O321 Co312 2.069 . S
O321 C331 1.289 . S
O322 Co312 2.015 1_455 S
O322 C332 1.257 . S
O323 Co308 2.113 1_556 S
O323 C333 1.274 . S
O324 Co313 1.976 1_455 S
O324 C333 1.251 . S
O325 Co312 2.264 1_556 S
O325 Co313 2.327 . S
O325 C334 1.257 . S
O326 Co313 2.073 . S
O326 C334 1.245 . S
C327 O335 1.259 . S
C327 O336 1.289 . S
C328 O337 1.246 . S
C328 O338 1.257 . S
C329 O317 1.251 . S
C329 O318 1.274 . S
C330 O315 1.245 . S
C330 O316 1.257 . S
C331 O320 1.259 . S
C331 O321 1.289 . S
C332 O319 1.246 . S
C332 O322 1.257 . S
C333 O323 1.274 . S
C333 O324 1.251 . S
C334 O325 1.257 . S
C334 O326 1.245 . S
O335 Co306 2.286 . S
O335 C327 1.259 . S
O336 Co306 2.069 . S
O336 C327 1.289 . S
O337 Co308 2.143 1_656 S
O337 C328 1.246 . S
O338 Co306 2.015 1_655 S
O338 C328 1.257 . S
Co339 O342 2.042 1_556 S
Co339 O349 2.264 1_556 S
Co339 O368 2.286 . S
Co339 O369 2.069 . S
Co339 O371 2.015 . S
Co340 O342 2.122 . S
Co340 O348 2.073 . S
Co340 O349 2.327 . S
Co340 O350 1.976 . S
Co341 O342 2.087 . S
Co341 O344 2.087 1_554 S
Co341 O351 2.111 . S
Co341 O352 2.143 . S
Co341 O356 2.111 1_554 S
Co341 O370 2.143 1_554 S
O342 Co339 2.042 1_554 S
O342 Co340 2.122 . S
O342 Co341 2.087 . S
O342 H343 0.980 . S
H343 O342 0.980 . S
O344 Co341 2.087 1_556 S
O344 Co345 2.042 1_556 S
O344 Co346 2.122 . S
O344 H347 0.980 . S
Co345 O344 2.042 1_554 S
Co345 O353 2.286 . S
Co345 O354 2.069 . S
Co345 O355 2.015 . S
Co345 O358 2.264 1_554 S
Co346 O344 2.122 . S
Co346 O357 1.976 . S
Co346 O358 2.327 . S
Co346 O359 2.073 . S
H347 O344 0.980 . S
O348 Co340 2.073 . S
O348 C363 1.245 . S
O349 Co339 2.264 1_554 S
O349 Co340 2.327 . S
O349 C363 1.257 . S
O350 Co340 1.976 . S
O350 C362 1.251 . S
O351 Co341 2.111 . S
O351 C362 1.274 . S
O352 Co341 2.143 . S
O352 C365 1.246 . S
O353 Co345 2.286 . S
O353 C364 1.259 . S
O354 Co345 2.069 . S
O354 C364 1.289 . S
O355 Co345 2.015 . S
O355 C365 1.257 . S
O356 Co341 2.111 1_556 S
O356 C366 1.274 . S
O357 Co346 1.976 . S
O357 C366 1.251 . S
O358 Co345 2.264 1_556 S
O358 Co346 2.327 . S
O358 C367 1.257 . S
O359 Co346 2.073 . S
O359 C367 1.245 . S
C360 O368 1.259 . S
C360 O369 1.289 . S
C361 O370 1.246 . S
C361 O371 1.257 . S
C362 O350 1.251 . S
C362 O351 1.274 . S
C363 O348 1.245 . S
C363 O349 1.257 . S
C364 O353 1.259 . S
C364 O354 1.289 . S
C365 O352 1.246 . S
C365 O355 1.257 . S
C366 O356 1.274 . S
C366 O357 1.251 . S
C367 O358 1.257 . S
C367 O359 1.245 . S
O368 Co339 2.286 . S
O368 C360 1.259 . S
O369 Co339 2.069 . S
O369 C360 1.289 . S
O370 Co341 2.143 1_556 S
O370 C361 1.246 . S
O371 Co339 2.015 . S
O371 C361 1.257 . S
Co372 O375 2.042 . S
Co372 O382 2.264 . S
Co372 O401 2.286 . S
Co372 O402 2.069 . S
Co372 O404 2.015 . S
Co373 O375 2.122 . S
Co373 O381 2.073 . S
Co373 O382 2.327 . S
Co373 O383 1.976 . S
Co374 O375 2.089 . S
Co374 O377 2.085 1_455 S
Co374 O384 2.112 . S
Co374 O385 2.142 1_455 S
Co374 O389 2.111 1_455 S
Co374 O403 2.145 . S
O375 Co372 2.042 . S
O375 Co373 2.122 . S
O375 Co374 2.089 . S
O375 H376 0.980 . S
H376 O375 0.980 . S
O377 Co374 2.085 1_655 S
O377 Co378 2.042 . S
O377 Co379 2.122 . S
O377 H380 0.980 . S
Co378 O377 2.042 . S
Co378 O386 2.286 . S
Co378 O387 2.069 . S
Co378 O388 2.015 . S
Co378 O391 2.264 . S
Co379 O377 2.122 . S
Co379 O390 1.976 . S
Co379 O391 2.327 . S
Co379 O392 2.073 . S
H380 O377 0.980 . S
O381 Co373 2.073 . S
O381 C396 1.245 . S
O382 Co372 2.264 . S
O382 Co373 2.327 . S
O382 C396 1.257 . S
O383 Co373 1.976 . S
O383 C395 1.251 . S
O384 Co374 2.112 . S
O384 C395 1.274 . S
O385 Co374 2.142 1_655 S
O385 C398 1.246 . S
O386 Co378 2.286 . S
O386 C397 1.259 . S
O387 Co378 2.069 . S
O387 C397 1.289 . S
O388 Co378 2.015 . S
O388 C398 1.257 . S
O389 Co374 2.111 1_655 S
O389 C399 1.274 . S
O390 Co379 1.976 . S
O390 C399 1.251 . S
O391 Co378 2.264 . S
O391 Co379 2.327 . S
O391 C400 1.257 . S
O392 Co379 2.073 . S
O392 C400 1.245 . S
C393 O401 1.259 . S
C393 O402 1.289 . S
C394 O403 1.246 . S
C394 O404 1.257 . S
C395 O383 1.251 . S
C395 O384 1.274 . S
C396 O381 1.245 . S
C396 O382 1.257 . S
C397 O386 1.259 . S
C397 O387 1.289 . S
C398 O385 1.246 . S
C398 O388 1.257 . S
C399 O389 1.274 . S
C399 O390 1.251 . S
C400 O391 1.257 . S
C400 O392 1.245 . S
O401 Co372 2.286 . S
O401 C393 1.259 . S
O402 Co372 2.069 . S
O402 C393 1.289 . S
O403 Co374 2.145 . S
O403 C394 1.246 . S
O404 Co372 2.015 . S
O404 C394 1.257 . S
Co405 O408 2.042 . S
Co405 O415 2.264 . S
Co405 O434 2.286 . S
Co405 O435 2.069 . S
Co405 O437 2.015 1_565 S
Co406 O408 2.122 . S
Co406 O414 2.073 . S
Co406 O415 2.327 . S
Co406 O416 1.976 1_565 S
Co407 O408 2.080 1_545 S
Co407 O410 2.094 . S
Co407 O417 2.116 . S
Co407 O418 2.141 1_545 S
Co407 O422 2.106 1_545 S
Co407 O436 2.146 . S
O408 Co405 2.042 . S
O408 Co406 2.122 . S
O408 Co407 2.080 1_565 S
O408 H409 0.980 . S
H409 O408 0.980 . S
O410 Co407 2.094 . S
O410 Co411 2.042 . S
O410 Co412 2.122 . S
O410 H413 0.980 . S
Co411 O410 2.042 . S
Co411 O419 2.286 . S
Co411 O420 2.069 . S
Co411 O421 2.015 1_545 S
Co411 O424 2.264 . S
Co412 O410 2.122 . S
Co412 O423 1.976 1_545 S
Co412 O424 2.327 . S
Co412 O425 2.073 . S
H413 O410 0.980 . S
O414 Co406 2.073 . S
O414 C429 1.245 . S
O415 Co405 2.264 . S
O415 Co406 2.327 . S
O415 C429 1.257 . S
O416 Co406 1.976 1_545 S
O416 C428 1.251 . S
O417 Co407 2.116 . S
O417 C428 1.274 . S
O418 Co407 2.141 1_565 S
O418 C431 1.246 . S
O419 Co411 2.286 . S
O419 C430 1.259 . S
O420 Co411 2.069 . S
O420 C430 1.289 . S
O421 Co411 2.015 1_565 S
O421 C431 1.257 . S
O422 Co407 2.106 1_565 S
O422 C432 1.274 . S
O423 Co412 1.976 1_565 S
O423 C432 1.251 . S
O424 Co411 2.264 . S
O424 Co412 2.327 . S
O424 C433 1.257 . S
O425 Co412 2.073 . S
O425 C433 1.245 . S
C426 O434 1.259 . S
C426 O435 1.289 . S
C427 O436 1.246 . S
C427 O437 1.257 . S
C428 O416 1.251 . S
C428 O417 1.274 . S
C429 O414 1.245 . S
C429 O415 1.257 . S
C430 O419 1.259 . S
C430 O420 1.289 . S
C431 O418 1.246 . S
C431 O421 1.257 . S
C432 O422 1.274 . S
C432 O423 1.251 . S
C433 O424 1.257 . S
C433 O425 1.245 . S
O434 Co405 2.286 . S
O434 C426 1.259 . S
O435 Co405 2.069 . S
O435 C426 1.289 . S
O436 Co407 2.146 . S
O436 C427 1.246 . S
O437 Co405 2.015 1_545 S
O437 C427 1.257 . S
C267 N6 1.088 . S
C268 C57 2.811 . S
C262 C61 2.018 . S
N96 C261 1.970 . S
C136 C264 2.811 . S
C266 C160 2.018 . S
N194 C265 1.970 . S
N224 C263 1.088 . S
C298 C10 3.021 . S
N36 C329 1.080 . S
C297 N74 1.654 . S
C332 C100 1.553 . S
C121 C295 2.010 . S
C327 C177 2.478 . S
C196 C300 3.115 . S
C226 C334 2.541 . S
C27 C330 2.541 . S
N134 C333 1.079 . S
C301 N156 1.652 . S
C328 C181 1.553 . S
C211 C294 3.022 . S
C76 C331 2.478 . S
C296 C117 3.115 . S
C40 C299 2.010 . S
N216 C366 1.198 . S
C147 C367 2.485 . S
C361 C151 1.661 . S
C360 N186 1.594 . S
C46 C363 2.484 . S
C365 C70 1.660 . S
N104 C364 1.594 . S
N14 C362 1.197 . S
C220 C400 2.732 . S
C432 N126 1.957 . S
N164 C393 1.177 . S
C190 C427 2.318 . S
C398 C31 1.795 . S
C87 C429 2.827 . S
C395 C106 3.209 . S
C430 C16 2.907 . S
C426 C237 2.907 . S
N44 C428 1.957 . S
N66 C397 1.177 . S
C431 C91 2.318 . S
C1 C396 2.732 . S
C166 C433 2.827 . S
C399 C207 3.209 . S
C394 C130 1.795 . S
