# Generated by pormake.
# Topology gar, (4,6)-cn, num edge types: 1
# Building blocks:
#     Node 0, Type 0, BuildingBlock: CEKHIL_clean_sbu_0, # of connection points: 4
#     Node 1, Type 0, BuildingBlock: CEKHIL_clean_sbu_0, # of connection points: 4
#     Node 2, Type 0, BuildingBlock: CEKHIL_clean_sbu_0, # of connection points: 4
#     Node 3, Type 0, BuildingBlock: CEKHIL_clean_sbu_0, # of connection points: 4
#     Node 4, Type 0, BuildingBlock: CEKHIL_clean_sbu_0, # of connection points: 4
#     Node 5, Type 0, BuildingBlock: CEKHIL_clean_sbu_0, # of connection points: 4
#     Node 6, Type 0, BuildingBlock: CEKHIL_clean_sbu_0, # of connection points: 4
#     Node 7, Type 0, BuildingBlock: CEKHIL_clean_sbu_0, # of connection points: 4
#     Node 8, Type 0, BuildingBlock: CEKHIL_clean_sbu_0, # of connection points: 4
#     Node 9, Type 0, BuildingBlock: CEKHIL_clean_sbu_0, # of connection points: 4
#     Node 10, Type 0, BuildingBlock: CEKHIL_clean_sbu_0, # of connection points: 4
#     Node 11, Type 0, BuildingBlock: CEKHIL_clean_sbu_0, # of connection points: 4
#     Node 12, Type 0, BuildingBlock: CEKHIL_clean_sbu_0, # of connection points: 4
#     Node 13, Type 0, BuildingBlock: CEKHIL_clean_sbu_0, # of connection points: 4
#     Node 14, Type 0, BuildingBlock: CEKHIL_clean_sbu_0, # of connection points: 4
#     Node 15, Type 0, BuildingBlock: CEKHIL_clean_sbu_0, # of connection points: 4
#     Node 16, Type 0, BuildingBlock: CEKHIL_clean_sbu_0, # of connection points: 4
#     Node 17, Type 0, BuildingBlock: CEKHIL_clean_sbu_0, # of connection points: 4
#     Node 18, Type 0, BuildingBlock: CEKHIL_clean_sbu_0, # of connection points: 4
#     Node 19, Type 0, BuildingBlock: CEKHIL_clean_sbu_0, # of connection points: 4
#     Node 20, Type 0, BuildingBlock: CEKHIL_clean_sbu_0, # of connection points: 4
#     Node 21, Type 0, BuildingBlock: CEKHIL_clean_sbu_0, # of connection points: 4
#     Node 22, Type 0, BuildingBlock: CEKHIL_clean_sbu_0, # of connection points: 4
#     Node 23, Type 0, BuildingBlock: CEKHIL_clean_sbu_0, # of connection points: 4
#     Node 24, Type 1, BuildingBlock: BETDIP_clean_sbu_0, # of connection points: 6
#     Node 25, Type 1, BuildingBlock: BETDIP_clean_sbu_0, # of connection points: 6
#     Node 26, Type 1, BuildingBlock: BETDIP_clean_sbu_0, # of connection points: 6
#     Node 27, Type 1, BuildingBlock: BETDIP_clean_sbu_0, # of connection points: 6
#     Node 28, Type 1, BuildingBlock: BETDIP_clean_sbu_0, # of connection points: 6
#     Node 29, Type 1, BuildingBlock: BETDIP_clean_sbu_0, # of connection points: 6
#     Node 30, Type 1, BuildingBlock: BETDIP_clean_sbu_0, # of connection points: 6
#     Node 31, Type 1, BuildingBlock: BETDIP_clean_sbu_0, # of connection points: 6
#     Node 32, Type 1, BuildingBlock: BETDIP_clean_sbu_0, # of connection points: 6
#     Node 33, Type 1, BuildingBlock: BETDIP_clean_sbu_0, # of connection points: 6
#     Node 34, Type 1, BuildingBlock: BETDIP_clean_sbu_0, # of connection points: 6
#     Node 35, Type 1, BuildingBlock: BETDIP_clean_sbu_0, # of connection points: 6
#     Node 36, Type 1, BuildingBlock: BETDIP_clean_sbu_0, # of connection points: 6
#     Node 37, Type 1, BuildingBlock: BETDIP_clean_sbu_0, # of connection points: 6
#     Node 38, Type 1, BuildingBlock: BETDIP_clean_sbu_0, # of connection points: 6
#     Node 39, Type 1, BuildingBlock: BETDIP_clean_sbu_0, # of connection points: 6
#     Edge 40, Type (0, 1), BuildingBlock: CIFDUS_clean_linker_0, # of connection points: 2
#     Edge 41, Type (0, 1), BuildingBlock: CIFDUS_clean_linker_0, # of connection points: 2
#     Edge 42, Type (0, 1), BuildingBlock: CIFDUS_clean_linker_0, # of connection points: 2
#     Edge 43, Type (0, 1), BuildingBlock: CIFDUS_clean_linker_0, # of connection points: 2
#     Edge 44, Type (0, 1), BuildingBlock: CIFDUS_clean_linker_0, # of connection points: 2
#     Edge 45, Type (0, 1), BuildingBlock: CIFDUS_clean_linker_0, # of connection points: 2
#     Edge 46, Type (0, 1), BuildingBlock: CIFDUS_clean_linker_0, # of connection points: 2
#     Edge 47, Type (0, 1), BuildingBlock: CIFDUS_clean_linker_0, # of connection points: 2
#     Edge 48, Type (0, 1), BuildingBlock: CIFDUS_clean_linker_0, # of connection points: 2
#     Edge 49, Type (0, 1), BuildingBlock: CIFDUS_clean_linker_0, # of connection points: 2
#     Edge 50, Type (0, 1), BuildingBlock: CIFDUS_clean_linker_0, # of connection points: 2
#     Edge 51, Type (0, 1), BuildingBlock: CIFDUS_clean_linker_0, # of connection points: 2
#     Edge 52, Type (0, 1), BuildingBlock: CIFDUS_clean_linker_0, # of connection points: 2
#     Edge 53, Type (0, 1), BuildingBlock: CIFDUS_clean_linker_0, # of connection points: 2
#     Edge 54, Type (0, 1), BuildingBlock: CIFDUS_clean_linker_0, # of connection points: 2
#     Edge 55, Type (0, 1), BuildingBlock: CIFDUS_clean_linker_0, # of connection points: 2
#     Edge 56, Type (0, 1), BuildingBlock: CIFDUS_clean_linker_0, # of connection points: 2
#     Edge 57, Type (0, 1), BuildingBlock: CIFDUS_clean_linker_0, # of connection points: 2
#     Edge 58, Type (0, 1), BuildingBlock: CIFDUS_clean_linker_0, # of connection points: 2
#     Edge 59, Type (0, 1), BuildingBlock: CIFDUS_clean_linker_0, # of connection points: 2
#     Edge 60, Type (0, 1), BuildingBlock: CIFDUS_clean_linker_0, # of connection points: 2
#     Edge 61, Type (0, 1), BuildingBlock: CIFDUS_clean_linker_0, # of connection points: 2
#     Edge 62, Type (0, 1), BuildingBlock: CIFDUS_clean_linker_0, # of connection points: 2
#     Edge 63, Type (0, 1), BuildingBlock: CIFDUS_clean_linker_0, # of connection points: 2
#     Edge 64, Type (0, 1), BuildingBlock: CIFDUS_clean_linker_0, # of connection points: 2
#     Edge 65, Type (0, 1), BuildingBlock: CIFDUS_clean_linker_0, # of connection points: 2
#     Edge 66, Type (0, 1), BuildingBlock: CIFDUS_clean_linker_0, # of connection points: 2
#     Edge 67, Type (0, 1), BuildingBlock: CIFDUS_clean_linker_0, # of connection points: 2
#     Edge 68, Type (0, 1), BuildingBlock: CIFDUS_clean_linker_0, # of connection points: 2
#     Edge 69, Type (0, 1), BuildingBlock: CIFDUS_clean_linker_0, # of connection points: 2
#     Edge 70, Type (0, 1), BuildingBlock: CIFDUS_clean_linker_0, # of connection points: 2
#     Edge 71, Type (0, 1), BuildingBlock: CIFDUS_clean_linker_0, # of connection points: 2
#     Edge 72, Type (0, 1), BuildingBlock: CIFDUS_clean_linker_0, # of connection points: 2
#     Edge 73, Type (0, 1), BuildingBlock: CIFDUS_clean_linker_0, # of connection points: 2
#     Edge 74, Type (0, 1), BuildingBlock: CIFDUS_clean_linker_0, # of connection points: 2
#     Edge 75, Type (0, 1), BuildingBlock: CIFDUS_clean_linker_0, # of connection points: 2
#     Edge 76, Type (0, 1), BuildingBlock: CIFDUS_clean_linker_0, # of connection points: 2
#     Edge 77, Type (0, 1), BuildingBlock: CIFDUS_clean_linker_0, # of connection points: 2
#     Edge 78, Type (0, 1), BuildingBlock: CIFDUS_clean_linker_0, # of connection points: 2
#     Edge 79, Type (0, 1), BuildingBlock: CIFDUS_clean_linker_0, # of connection points: 2
#     Edge 80, Type (0, 1), BuildingBlock: CIFDUS_clean_linker_0, # of connection points: 2
#     Edge 81, Type (0, 1), BuildingBlock: CIFDUS_clean_linker_0, # of connection points: 2
#     Edge 82, Type (0, 1), BuildingBlock: CIFDUS_clean_linker_0, # of connection points: 2
#     Edge 83, Type (0, 1), BuildingBlock: CIFDUS_clean_linker_0, # of connection points: 2
#     Edge 84, Type (0, 1), BuildingBlock: CIFDUS_clean_linker_0, # of connection points: 2
#     Edge 85, Type (0, 1), BuildingBlock: CIFDUS_clean_linker_0, # of connection points: 2
#     Edge 86, Type (0, 1), BuildingBlock: CIFDUS_clean_linker_0, # of connection points: 2
#     Edge 87, Type (0, 1), BuildingBlock: CIFDUS_clean_linker_0, # of connection points: 2
#     Edge 88, Type (0, 1), BuildingBlock: CIFDUS_clean_linker_0, # of connection points: 2
#     Edge 89, Type (0, 1), BuildingBlock: CIFDUS_clean_linker_0, # of connection points: 2
#     Edge 90, Type (0, 1), BuildingBlock: CIFDUS_clean_linker_0, # of connection points: 2
#     Edge 91, Type (0, 1), BuildingBlock: CIFDUS_clean_linker_0, # of connection points: 2
#     Edge 92, Type (0, 1), BuildingBlock: CIFDUS_clean_linker_0, # of connection points: 2
#     Edge 93, Type (0, 1), BuildingBlock: CIFDUS_clean_linker_0, # of connection points: 2
#     Edge 94, Type (0, 1), BuildingBlock: CIFDUS_clean_linker_0, # of connection points: 2
#     Edge 95, Type (0, 1), BuildingBlock: CIFDUS_clean_linker_0, # of connection points: 2
#     Edge 96, Type (0, 1), BuildingBlock: CIFDUS_clean_linker_0, # of connection points: 2
#     Edge 97, Type (0, 1), BuildingBlock: CIFDUS_clean_linker_0, # of connection points: 2
#     Edge 98, Type (0, 1), BuildingBlock: CIFDUS_clean_linker_0, # of connection points: 2
#     Edge 99, Type (0, 1), BuildingBlock: CIFDUS_clean_linker_0, # of connection points: 2
#     Edge 100, Type (0, 1), BuildingBlock: CIFDUS_clean_linker_0, # of connection points: 2
#     Edge 101, Type (0, 1), BuildingBlock: CIFDUS_clean_linker_0, # of connection points: 2
#     Edge 102, Type (0, 1), BuildingBlock: CIFDUS_clean_linker_0, # of connection points: 2
#     Edge 103, Type (0, 1), BuildingBlock: CIFDUS_clean_linker_0, # of connection points: 2
#     Edge 104, Type (0, 1), BuildingBlock: CIFDUS_clean_linker_0, # of connection points: 2
#     Edge 105, Type (0, 1), BuildingBlock: CIFDUS_clean_linker_0, # of connection points: 2
#     Edge 106, Type (0, 1), BuildingBlock: CIFDUS_clean_linker_0, # of connection points: 2
#     Edge 107, Type (0, 1), BuildingBlock: CIFDUS_clean_linker_0, # of connection points: 2
#     Edge 108, Type (0, 1), BuildingBlock: CIFDUS_clean_linker_0, # of connection points: 2
#     Edge 109, Type (0, 1), BuildingBlock: CIFDUS_clean_linker_0, # of connection points: 2
#     Edge 110, Type (0, 1), BuildingBlock: CIFDUS_clean_linker_0, # of connection points: 2
#     Edge 111, Type (0, 1), BuildingBlock: CIFDUS_clean_linker_0, # of connection points: 2
#     Edge 112, Type (0, 1), BuildingBlock: CIFDUS_clean_linker_0, # of connection points: 2
#     Edge 113, Type (0, 1), BuildingBlock: CIFDUS_clean_linker_0, # of connection points: 2
#     Edge 114, Type (0, 1), BuildingBlock: CIFDUS_clean_linker_0, # of connection points: 2
#     Edge 115, Type (0, 1), BuildingBlock: CIFDUS_clean_linker_0, # of connection points: 2
#     Edge 116, Type (0, 1), BuildingBlock: CIFDUS_clean_linker_0, # of connection points: 2
#     Edge 117, Type (0, 1), BuildingBlock: CIFDUS_clean_linker_0, # of connection points: 2
#     Edge 118, Type (0, 1), BuildingBlock: CIFDUS_clean_linker_0, # of connection points: 2
#     Edge 119, Type (0, 1), BuildingBlock: CIFDUS_clean_linker_0, # of connection points: 2
#     Edge 120, Type (0, 1), BuildingBlock: CIFDUS_clean_linker_0, # of connection points: 2
#     Edge 121, Type (0, 1), BuildingBlock: CIFDUS_clean_linker_0, # of connection points: 2
#     Edge 122, Type (0, 1), BuildingBlock: CIFDUS_clean_linker_0, # of connection points: 2
#     Edge 123, Type (0, 1), BuildingBlock: CIFDUS_clean_linker_0, # of connection points: 2
#     Edge 124, Type (0, 1), BuildingBlock: CIFDUS_clean_linker_0, # of connection points: 2
#     Edge 125, Type (0, 1), BuildingBlock: CIFDUS_clean_linker_0, # of connection points: 2
#     Edge 126, Type (0, 1), BuildingBlock: CIFDUS_clean_linker_0, # of connection points: 2
#     Edge 127, Type (0, 1), BuildingBlock: CIFDUS_clean_linker_0, # of connection points: 2
#     Edge 128, Type (0, 1), BuildingBlock: CIFDUS_clean_linker_0, # of connection points: 2
#     Edge 129, Type (0, 1), BuildingBlock: CIFDUS_clean_linker_0, # of connection points: 2
#     Edge 130, Type (0, 1), BuildingBlock: CIFDUS_clean_linker_0, # of connection points: 2
#     Edge 131, Type (0, 1), BuildingBlock: CIFDUS_clean_linker_0, # of connection points: 2
#     Edge 132, Type (0, 1), BuildingBlock: CIFDUS_clean_linker_0, # of connection points: 2
#     Edge 133, Type (0, 1), BuildingBlock: CIFDUS_clean_linker_0, # of connection points: 2
#     Edge 134, Type (0, 1), BuildingBlock: CIFDUS_clean_linker_0, # of connection points: 2
#     Edge 135, Type (0, 1), BuildingBlock: CIFDUS_clean_linker_0, # of connection points: 2
# Relax obj value: 0.203
# Max RMSD: 0.325
# Mean RMSD: 0.156
data_MOF--net-gar--node1-CEKHIL_clean_sbu_0--node2-BETDIP_clean_sbu_0--edge1-CIFDUS_clean_linker_0
_symmetry_space_group_name_H-M    P1
_symmetry_Int_Tables_number       1
_symmetry_cell_setting            triclinic
loop_
_symmetry_equiv_pos_as_xyz
'x, y, z'
_cell_length_a     57.138073
_cell_length_b     49.826624
_cell_length_c     46.621237
_cell_angle_alpha  96.949225
_cell_angle_beta   99.111202
_cell_angle_gamma 101.15309
loop_
_atom_site_label
_atom_site_type_symbol
_atom_site_fract_x
_atom_site_fract_y
_atom_site_fract_z
_atom_type_partial_charge
Co0 Co 0.05576 0.33788 0.42955 0.0
O1 O 0.08505 0.32448 0.43732 0.0
O2 O 0.06389 0.32274 0.39284 0.0
C3 C 0.06988 0.37811 0.46034 0.0
O4 O 1.02478 0.35013 0.41345 0.0
Co5 Co 1.02723 0.3514 0.47934 0.0
O6 O 1.01154 0.37182 0.45081 0.0
C7 C 1.02168 0.29326 0.45052 0.0
C8 C 0.08274 0.3176 0.40913 0.0
C9 C 1.01056 0.36465 0.42342 0.0
O10 O 0.03588 0.3009 0.43282 0.0
O11 O 1.01712 0.30996 0.47101 0.0
O12 O 0.07456 0.37571 0.43386 0.0
O13 O 0.0585 0.3559 0.46783 0.0
Co14 Co 0.08193 0.7798 0.73621 0.0
O15 O 0.04984 0.78678 0.73238 0.0
O16 O 0.065 0.76261 0.76471 0.0
C17 C 0.10053 0.82368 0.73571 0.0
O18 O 0.11512 0.77041 0.74711 0.0
Co19 Co 0.11041 0.79051 0.6849 0.0
O20 O 0.13718 0.78225 0.71254 0.0
C21 C 0.07173 0.74064 0.67795 0.0
C22 C 0.04732 0.77396 0.75461 0.0
C23 C 0.13483 0.77311 0.73653 0.0
O24 O 0.0705 0.74522 0.7055 0.0
O25 O 0.08413 0.7581 0.66515 0.0
O26 O 0.09472 0.8166 0.75996 0.0
O27 O 0.09271 0.8052 0.71261 0.0
Co28 Co 0.55539 0.83228 0.92947 0.0
O29 O 0.58597 0.82147 0.93619 0.0
O30 O 0.56593 0.8242 0.89232 0.0
C31 C 0.5662 0.86854 0.96605 0.0
O32 O 0.52335 0.8427 0.9143 0.0
Co33 Co 0.52331 0.83486 0.9774 0.0
O34 O 0.50806 0.85874 0.95273 0.0
C35 C 0.52187 0.78129 0.94003 0.0
C36 C 0.58488 0.81863 0.90797 0.0
C37 C 0.508 0.8547 0.92526 0.0
O38 O 0.5376 0.79287 0.92592 0.0
O39 O 0.51482 0.79426 0.96138 0.0
O40 O 0.57167 0.87124 0.94036 0.0
O41 O 0.55563 0.84412 0.96921 0.0
Co42 Co 0.58174 0.27953 0.24945 0.0
O43 O 0.54731 0.27554 0.24491 0.0
O44 O 0.56936 0.25886 0.27889 0.0
C45 C 0.58942 0.32511 0.24807 0.0
O46 O 0.61823 0.28127 0.2603 0.0
Co47 Co 0.60613 0.29996 0.19785 0.0
O48 O 0.63626 0.30021 0.22539 0.0
C49 C 0.57925 0.24204 0.19185 0.0
C50 C 0.5483 0.26345 0.26795 0.0
C51 C 0.63712 0.29037 0.24943 0.0
O52 O 0.5774 0.24504 0.21929 0.0
O53 O 0.58755 0.26215 0.17903 0.0
O54 O 0.58655 0.31644 0.27262 0.0
O55 O 0.58529 0.3064 0.22523 0.0
Co56 Co 0.10023 0.82467 0.19055 0.0
O57 O 0.06483 0.8204 0.18649 0.0
O58 O 0.08931 0.81754 0.22682 0.0
C59 C 0.10556 0.86392 0.16765 0.0
O60 O 0.13699 0.82863 0.20701 0.0
Co61 Co 0.12936 0.82176 0.14263 0.0
O62 O 0.15938 0.82516 0.17215 0.0
C63 C 0.1003 0.76947 0.15307 0.0
C64 C 0.0673 0.81671 0.21387 0.0
C65 C 0.15756 0.82766 0.19909 0.0
O66 O 0.09569 0.78288 0.17637 0.0
O67 O 0.11202 0.78184 0.1355 0.0
O68 O 0.10428 0.86548 0.19539 0.0
O69 O 0.10353 0.83892 0.15439 0.0
Co70 Co 0.53789 0.78604 0.47336 0.0
O71 O 0.57332 0.79393 0.48266 0.0
O72 O 0.55199 0.77557 0.43891 0.0
C73 C 0.53425 0.82849 0.49559 0.0
O74 O 0.50113 0.77684 0.45361 0.0
Co75 Co 0.5059 0.78242 0.51894 0.0
O76 O 0.48001 0.78833 0.48798 0.0
C77 C 0.52986 0.73597 0.50755 0.0
C78 C 0.57336 0.78475 0.4554 0.0
C79 C 0.48134 0.78222 0.46108 0.0
O80 O 0.53705 0.74751 0.48602 0.0
O81 O 0.51765 0.74724 0.52445 0.0
O82 O 0.53878 0.82479 0.46915 0.0
O83 O 0.53356 0.80691 0.50883 0.0
Co84 Co 0.59817 0.32444 0.68972 0.0
O85 O 0.56292 0.32117 0.68533 0.0
O86 O 0.58652 0.31666 0.72563 0.0
C87 C 0.60438 0.36424 0.66792 0.0
O88 O 0.63494 0.32718 0.7056 0.0
Co89 Co 0.62678 0.32241 0.6406 0.0
O90 O 0.65713 0.33358 0.67054 0.0
C91 C 0.59805 0.26961 0.65139 0.0
C92 C 0.56475 0.31673 0.7124 0.0
C93 C 0.65569 0.33165 0.69716 0.0
O94 O 0.59298 0.28285 0.67448 0.0
O95 O 0.61016 0.2821 0.63417 0.0
O96 O 0.60312 0.36543 0.69563 0.0
O97 O 0.60164 0.33934 0.65413 0.0
Co98 Co 0.0333 0.28535 0.97154 0.0
O99 O 0.06859 0.29358 0.98192 0.0
O100 O 0.04817 0.27555 0.93761 0.0
C101 C 0.0295 0.32772 0.9938 0.0
O102 O 0.99684 0.27607 0.9508 0.0
Co103 Co 1.00058 0.28059 1.01561 0.0
O104 O 0.97516 0.28722 0.9846 0.0
C105 C 1.02421 0.2341 1.00396 0.0
C106 C 0.06923 0.28497 0.95473 0.0
C107 C 0.97692 0.28141 0.95782 0.0
O108 O 0.03233 0.24658 0.98351 0.0
O109 O 1.01139 0.24474 0.02045 0.0
O110 O 0.03421 0.32399 0.96747 0.0
O111 O 1.02847 0.30607 1.00704 0.0
Co112 Co 0.4342 0.07719 0.31699 0.0
O113 O 0.43617 0.11992 0.32055 0.0
O114 O 0.40302 0.0908 0.30495 0.0
C115 C 0.45909 0.07559 0.3644 0.0
O116 O 0.41734 0.03388 0.31357 0.0
Co117 Co 0.4704 0.03939 0.31822 0.0
O118 O 0.4443 1.00702 0.3204 0.0
C119 C 0.46359 0.06469 0.26398 0.0
C120 C 0.41277 0.11698 0.31192 0.0
C121 C 0.42234 1.00958 0.31673 0.0
O122 O 0.4449 0.07358 0.27322 0.0
O123 O 0.47665 0.05254 0.28067 0.0
O124 O 0.43715 0.08005 0.36215 0.0
O125 O 0.46531 0.07369 0.33899 0.0
Co126 Co 0.28602 0.18216 0.54541 0.0
O127 O 0.32142 0.1911 0.55077 0.0
O128 O 0.29986 0.15003 0.55276 0.0
C129 C 0.28105 0.20463 0.50513 0.0
O130 O 0.2494 0.1632 0.54069 0.0
Co131 Co 0.25343 0.22496 0.54623 0.0
O132 O 0.22511 0.19367 0.54019 0.0
C133 C 0.28247 0.21667 0.60196 0.0
C134 C 0.32121 0.16556 0.55416 0.0
C135 C 0.22811 0.16899 0.53966 0.0
O136 O 0.28806 0.1949 0.58913 0.0
O137 O 0.27095 0.23218 0.58796 0.0
O138 O 0.2841 0.17927 0.50217 0.0
O139 O 0.28104 0.21521 0.53169 0.0
Co140 Co 0.17394 0.08278 0.86428 0.0
O141 O 0.16643 0.04247 0.85952 0.0
O142 O 0.20087 0.06901 0.85413 0.0
C143 C 0.16032 0.08854 0.90766 0.0
O144 O 0.19169 0.123 0.86882 0.0
Co145 Co 0.14085 0.12157 0.86497 0.0
O146 O 0.16869 0.15404 0.87178 0.0
C147 C 0.14138 0.08959 0.80801 0.0
C148 C 0.18847 0.04448 0.85461 0.0
C149 C 0.18933 0.14815 0.87185 0.0
O150 O 0.15965 0.08112 0.82094 0.0
O151 O 0.13012 0.10486 0.82224 0.0
O152 O 0.18202 0.08472 0.90664 0.0
O153 O 0.14691 0.0888 0.8824 0.0
Co154 Co 0.25279 0.91631 1.01101 0.0
O155 O 0.22447 0.92584 0.02396 0.0
O156 O 0.2625 0.94973 0.03842 0.0
C157 C 0.23972 0.90526 0.96216 0.0
O158 O 0.28625 0.9154 1.00359 0.0
Co159 Co 0.25633 0.85877 0.98131 0.0
O160 O 0.29017 0.87618 0.97796 0.0
C161 C 0.25616 0.86835 0.04463 0.0
C162 C 0.23985 0.94695 0.0405 0.0
C163 C 0.29898 0.90091 0.99094 0.0
O164 O 0.25749 0.89431 0.04394 0.0
O165 O 0.25322 0.85046 0.02156 0.0
O166 O 0.24628 0.93116 0.97437 0.0
O167 O 0.23757 0.88759 0.98022 0.0
Co168 Co 0.34407 0.42648 0.09697 0.0
O169 O 0.30885 0.41689 0.09026 0.0
O170 O 0.33055 0.45793 0.1111 0.0
C171 C 0.34592 0.4081 0.05054 0.0
O172 O 0.38092 0.44551 0.10512 0.0
Co173 Co 0.3751 0.38384 0.09466 0.0
O174 O 0.40189 0.41422 0.09102 0.0
C175 C 0.35101 0.39034 0.14541 0.0
C176 C 0.30909 0.44212 0.10121 0.0
C177 C 0.40075 0.43921 0.09876 0.0
O178 O 0.34506 0.41208 0.13637 0.0
O179 O 0.36234 0.37521 0.1311 0.0
O180 O 0.34262 0.43303 0.05672 0.0
O181 O 0.34714 0.39423 0.07238 0.0
Co182 Co 0.88109 0.17994 0.12198 0.0
O183 O 0.90996 0.17415 0.10886 0.0
O184 O 0.88618 0.14436 0.12959 0.0
C185 C 0.86397 0.19504 0.08198 0.0
O186 O 0.84968 0.17913 0.13681 0.0
Co187 Co 0.87014 0.24142 0.12939 0.0
O188 O 0.83952 0.221 0.13961 0.0
C189 C 0.9061 0.22493 0.16466 0.0
C190 C 0.9049 0.14997 0.11696 0.0
C191 C 0.8351 0.19516 0.14171 0.0
O192 O 0.89996 0.19864 0.16156 0.0
O193 O 0.90392 0.23535 0.14115 0.0
O194 O 0.86251 0.16868 0.08195 0.0
O195 O 0.87803 0.21122 0.10438 0.0
Co196 Co 0.19389 0.52172 0.34632 0.0
O197 O 0.19194 0.47894 0.34504 0.0
O198 O 0.22338 0.50585 0.33878 0.0
C199 C 0.17583 0.53076 0.39102 0.0
O200 O 0.21096 0.56471 0.347 0.0
Co201 Co 0.15945 0.56068 0.3451 0.0
O202 O 0.18651 0.59406 0.35271 0.0
C203 C 0.16045 0.52928 0.28706 0.0
C204 C 0.2142 0.4804 0.34071 0.0
C205 C 0.20743 0.59017 0.35003 0.0
O206 O 0.17756 0.51791 0.3004 0.0
O207 O 0.15074 0.54603 0.30174 0.0
O208 O 0.19788 0.52692 0.39158 0.0
O209 O 0.16519 0.52881 0.364 0.0
Co210 Co 0.83871 0.92295 0.59682 0.0
O211 O 0.80354 0.9131 0.59233 0.0
O212 O 0.82554 0.95443 0.61159 0.0
C213 C 0.83895 0.90383 0.55005 0.0
O214 O 0.87533 0.94231 0.6027 0.0
Co215 Co 0.87036 0.88023 0.59119 0.0
O216 O 0.89663 0.91148 0.588 0.0
C217 C 0.84724 0.88591 0.64346 0.0
C218 C 0.804 0.93854 0.60284 0.0
C219 C 0.89516 0.93636 0.59593 0.0
O220 O 0.84211 0.90886 0.63663 0.0
O221 O 0.85685 0.8706 0.6268 0.0
O222 O 0.8351 0.92857 0.5558 0.0
O223 O 0.84144 0.89082 0.57234 0.0
Co224 Co 0.96021 1.02174 0.2999 0.0
O225 O 0.96866 0.06185 0.30286 0.0
O226 O 0.93402 0.03472 0.27885 0.0
C227 C 0.9734 1.02138 0.34871 0.0
O228 O 0.94208 0.98114 0.29293 0.0
Co229 Co 0.99383 0.98315 0.3122 0.0
O230 O 0.96463 0.95619 0.31697 0.0
C231 C 0.99243 1.00643 0.25666 0.0
C232 C 0.9471 0.05956 0.28741 0.0
C233 C 0.9442 0.95912 0.30397 0.0
O234 O 0.97477 1.01731 0.2629 0.0
O235 O 1.00319 0.99271 0.27406 0.0
O236 O 0.95218 0.02605 0.33904 0.0
O237 O 0.98662 1.01791 0.32891 0.0
Co238 Co 0.38285 0.69267 0.62129 0.0
O239 O 0.41458 0.68503 0.62792 0.0
O240 O 0.38142 0.65891 0.63751 0.0
C241 C 0.38303 0.70277 0.57577 0.0
O242 O 0.3472 0.69288 0.61628 0.0
Co243 Co 0.37364 0.75041 0.60944 0.0
O244 O 0.33851 0.73229 0.60323 0.0
C245 C 0.39283 0.74171 0.66813 0.0
C246 C 0.40428 0.66221 0.63593 0.0
C247 C 0.33199 0.70786 0.60899 0.0
O248 O 0.38804 0.71526 0.66116 0.0
O249 O 0.39549 0.75793 0.64907 0.0
O250 O 0.37801 0.67708 0.57975 0.0
O251 O 0.38991 0.72095 0.59923 0.0
Co252 Co 0.46032 0.52171 0.80055 0.0
O253 O 0.46777 0.56164 0.80425 0.0
O254 O 0.43253 0.53449 0.78239 0.0
C255 C 0.47561 0.52098 0.84839 0.0
O256 O 0.44425 0.48028 0.79453 0.0
Co257 Co 0.49818 0.48701 0.80939 0.0
O258 O 0.47114 0.45865 0.81665 0.0
C259 C 0.49221 0.51184 0.75506 0.0
C260 C 0.44548 0.55947 0.79127 0.0
C261 C 0.44938 0.45935 0.80601 0.0
O262 O 0.4731 0.519 0.76211 0.0
O263 O 0.50556 0.49998 0.77186 0.0
O264 O 0.45383 0.52468 0.84023 0.0
O265 O 0.48827 0.51926 0.8277 0.0
Co266 Co 0.69397 1.02344 0.84523 0.0
O267 O 0.69192 0.98076 0.84425 0.0
O268 O 0.72326 1.00751 0.83729 0.0
C269 C 0.67665 0.03267 0.89022 0.0
O270 O 0.71079 0.06637 0.84552 0.0
Co271 Co 0.6594 0.06233 0.8445 0.0
O272 O 0.6865 0.09568 0.85253 0.0
C273 C 0.65997 0.0307 0.78635 0.0
C274 C 0.71409 0.98216 0.83963 0.0
C275 C 0.70728 0.09181 0.84913 0.0
O276 O 0.67718 1.01939 0.79949 0.0
O277 O 0.65038 0.04751 0.80117 0.0
O278 O 0.69865 0.02878 0.89043 0.0
O279 O 0.66561 0.03062 0.86336 0.0
Co280 Co 0.79174 0.6848 0.04751 0.0
O281 O 0.82722 0.69435 0.05368 0.0
O282 O 0.806 0.65437 0.05962 0.0
C283 C 0.78711 0.70153 1.00333 0.0
O284 O 0.75558 0.66492 0.0428 0.0
Co285 Co 0.75756 0.72457 0.04074 0.0
O286 O 0.72959 0.69279 0.03527 0.0
C287 C 0.78231 0.72053 0.10061 0.0
C288 C 0.82721 0.66956 0.05969 0.0
C289 C 0.7337 0.66909 0.03868 0.0
O290 O 0.79207 0.70106 0.09006 0.0
O291 O 0.76924 0.73309 0.08438 0.0
O292 O 0.79067 0.67672 1.00487 0.0
O293 O 0.78639 0.71561 0.02823 0.0
Co294 Co 0.93466 0.57886 0.82011 0.0
O295 O 0.93687 0.62162 0.82413 0.0
O296 O 0.90392 0.59273 0.80647 0.0
C297 C 0.95645 0.57664 0.86898 0.0
O298 O 0.91742 0.5357 0.81569 0.0
Co299 Co 0.97067 0.54144 0.82327 0.0
O300 O 0.94422 0.50892 0.82412 0.0
C301 C 0.96526 0.56575 0.76827 0.0
C302 C 0.91363 0.61884 0.81451 0.0
C303 C 0.92226 0.51143 0.81924 0.0
O304 O 0.94669 0.57522 0.77711 0.0
O305 O 0.97789 0.55349 0.78538 0.0
O306 O 0.93459 0.58127 0.8641 0.0
O307 O 0.96507 0.57519 0.84494 0.0
Co308 Co 0.74657 0.4042 0.49992 0.0
O309 O 0.71674 0.4139 0.50737 0.0
O310 O 0.75401 0.43694 0.52843 0.0
C311 C 0.73894 0.39507 0.45065 0.0
O312 O 0.78133 0.40257 0.49813 0.0
Co313 Co 0.75026 0.3463 0.47113 0.0
O314 O 0.78493 0.36353 0.47152 0.0
C315 C 0.74256 0.35437 0.53183 0.0
C316 C 0.73075 0.4346 0.52597 0.0
C317 C 0.79412 0.38761 0.48611 0.0
O318 O 0.74642 0.38068 0.532 0.0
O319 O 0.74067 0.33687 0.5087 0.0
O320 O 0.74492 0.42064 0.46393 0.0
O321 O 0.73375 0.37673 0.46733 0.0
Co322 Co 0.67213 0.58285 0.36174 0.0
O323 O 0.66543 0.54246 0.35627 0.0
O324 O 0.70053 0.5701 0.35513 0.0
C325 C 0.65401 0.58716 0.40195 0.0
O326 O 0.68877 0.6237 0.36691 0.0
Co327 Co 0.637 0.62097 0.35956 0.0
O328 O 0.66463 0.65365 0.3691 0.0
C329 C 0.64281 0.58986 0.30381 0.0
C330 C 0.68813 0.54518 0.35378 0.0
C331 C 0.68565 0.64865 0.36955 0.0
O332 O 0.66077 0.58168 0.31792 0.0
O333 O 0.63012 0.60423 0.31679 0.0
O334 O 0.67623 0.58384 0.40448 0.0
O335 O 0.64336 0.58791 0.37545 0.0
Tb336 Tb 0.05055 0.02741 0.05862 0.0
Tb337 Tb 0.08836 0.06819 0.0978 0.0
C338 C 1.01083 0.99767 0.03055 0.0
C339 C 0.98605 1.0025 0.02484 0.0
C340 C 0.96891 0.98991 0.04039 0.0
C341 C 0.9492 1.0016 0.04464 0.0
C342 C 0.94645 0.02571 0.03304 0.0
C343 C 0.961 0.03506 1.01309 0.0
C344 C 0.98088 0.02366 1.00916 0.0
C345 C 0.09056 0.04045 0.03577 0.0
C346 C 0.05098 0.09243 0.05928 0.0
C347 C 0.1292 0.09485 0.12526 0.0
C348 C 0.14988 0.08391 0.13818 0.0
C349 C 0.17137 0.08992 0.12709 0.0
C350 C 0.18631 0.0709 0.12648 0.0
C351 C 0.18001 0.04581 0.1373 0.0
C352 C 0.16098 0.04239 0.15316 0.0
C353 C 0.14594 0.06137 0.15359 0.0
C354 C 0.04803 0.05645 0.11945 0.0
C355 C 0.08691 1.00286 0.0996 0.0
O356 O 1.01932 0.99745 0.05822 0.0
O357 O 1.02697 1.01198 0.01811 0.0
O358 O 0.08103 0.0565 0.05098 0.0
O359 O 0.07731 1.01582 0.03363 0.0
O360 O 0.03731 0.06683 0.05552 0.0
O361 O 0.07371 0.0976 0.07322 0.0
O362 O 0.12368 0.08854 0.0966 0.0
O363 O 0.1099 0.09093 0.13733 0.0
O364 O 0.05759 0.03959 0.10531 0.0
O365 O 0.06145 0.08113 0.12185 0.0
O366 O 0.09919 0.02898 0.1074 0.0
O367 O 0.06628 0.99692 0.08055 0.0
H368 H 0.97229 0.97313 0.05212 0.0
H369 H 0.93807 0.9939 0.05992 0.0
H370 H 0.95882 0.05337 1.00346 0.0
H371 H 0.99343 0.03336 0.9964 0.0
H372 H 0.17485 0.1073 0.11531 0.0
H373 H 0.20094 0.0744 0.11426 0.0
H374 H 0.15625 0.02371 0.16259 0.0
H375 H 0.12973 0.05659 0.16293 0.0
Tb376 Tb 0.32342 0.78579 0.30967 0.0
Tb377 Tb 0.30803 0.81363 0.35697 0.0
C378 C 0.33046 0.77071 0.25891 0.0
C379 C 0.32382 0.7819 0.23206 0.0
C380 C 0.31109 0.80325 0.23316 0.0
C381 C 0.30119 0.81151 0.2074 0.0
C382 C 0.30433 0.79898 0.18003 0.0
C383 C 0.31799 0.77829 0.17911 0.0
C384 C 0.32753 0.76963 0.20504 0.0
C385 C 0.35219 0.78412 0.3601 0.0
C386 C 0.34083 0.85372 0.32485 0.0
C387 C 0.29897 0.82835 0.40682 0.0
C388 C 0.29651 0.81319 0.43166 0.0
C389 C 0.28323 0.78567 0.42697 0.0
C390 C 0.2878 0.76823 0.44745 0.0
C391 C 0.30558 0.77826 0.47287 0.0
C392 C 0.31634 0.80669 0.47933 0.0
C393 C 0.31186 0.82405 0.45878 0.0
C394 C 0.28074 0.81638 0.306 0.0
C395 C 0.2902 0.74571 0.34165 0.0
O396 O 0.31179 0.75936 0.26942 0.0
O397 O 0.34702 0.78725 0.2793 0.0
O398 O 0.34293 0.80428 0.35341 0.0
O399 O 0.34611 0.76484 0.33744 0.0
O400 O 0.33765 0.83056 0.30556 0.0
O401 O 0.33138 0.85208 0.34892 0.0
O402 O 0.32078 0.83267 0.40066 0.0
O403 O 0.28224 0.81994 0.38315 0.0
O404 O 0.28883 0.79555 0.313 0.0
O405 O 0.28752 0.83601 0.32836 0.0
O406 O 0.29281 0.76898 0.36054 0.0
O407 O 0.3004 0.74725 0.31815 0.0
H408 H 0.30786 0.8127 0.25391 0.0
H409 H 0.29039 0.82706 0.20899 0.0
H410 H 0.32107 0.76858 0.15838 0.0
H411 H 0.33724 0.753 0.20395 0.0
H412 H 0.27089 0.777 0.40646 0.0
H413 H 0.27912 0.74644 0.44208 0.0
H414 H 0.32974 0.81499 0.49918 0.0
H415 H 0.32211 0.84528 0.46293 0.0
Tb416 Tb 0.58557 0.0507 0.56098 0.0
Tb417 Tb 0.53754 0.04555 0.58724 0.0
C418 C 0.62949 0.0518 0.55704 0.0
C419 C 0.65085 0.03973 0.56661 0.0
C420 C 0.64899 1.0149 0.57847 0.0
C421 C 0.66981 1.00409 0.58642 0.0
C422 C 0.69297 1.0179 0.5828 0.0
C423 C 0.69448 0.04272 0.57083 0.0
C424 C 0.67381 0.05342 0.56296 0.0
C425 C 0.54779 0.05815 0.51966 0.0
C426 C 0.55109 0.99116 0.55665 0.0
C427 C 0.49408 0.04672 0.59179 0.0
C428 C 0.47403 0.06151 0.58348 0.0
C429 C 0.45347 0.04798 0.56221 0.0
C430 C 0.43298 0.0597 0.55699 0.0
C431 C 0.43222 0.08536 0.57295 0.0
C432 C 0.45316 0.0994 0.5935 0.0
C433 C 0.47368 0.08762 0.59879 0.0
C434 C 0.5753 0.03751 0.62802 0.0
C435 C 0.57245 0.10539 0.59046 0.0
O436 O 0.62273 0.06806 0.57692 0.0
O437 O 0.61089 0.03584 0.53864 0.0
O438 O 0.54834 0.05367 0.54627 0.0
O439 O 0.57011 0.05899 0.51637 0.0
O440 O 0.57307 1.00591 0.55677 0.0
O441 O 0.53372 1.00234 0.56593 0.0
O442 O 0.50003 0.03064 0.57097 0.0
O443 O 0.51312 0.06007 0.61138 0.0
O444 O 0.57469 0.04289 0.60178 0.0
O445 O 0.5528 0.03528 0.63117 0.0
O446 O 0.55075 0.09095 0.59238 0.0
O447 O 0.58912 0.0936 0.58052 0.0
H448 H 0.6315 1.00387 0.58154 0.0
H449 H 0.66777 0.98508 0.59574 0.0
H450 H 0.71168 0.05382 0.56701 0.0
H451 H 0.67578 0.07247 0.55367 0.0
H452 H 0.4529 0.02781 0.55012 0.0
H453 H 0.41752 0.04835 0.5406 0.0
H454 H 0.45337 0.11905 0.60644 0.0
H455 H 0.48899 0.09864 0.61558 0.0
Tb456 Tb 0.29135 0.31605 0.82791 0.0
Tb457 Tb 0.33907 0.29417 0.83157 0.0
C458 C 0.24942 0.3232 0.83397 0.0
C459 C 0.22881 0.31414 0.84952 0.0
C460 C 0.21068 0.29019 0.83759 0.0
C461 C 0.1896 0.28366 0.84959 0.0
C462 C 0.18565 0.30103 0.87377 0.0
C463 C 0.20414 0.32458 0.88628 0.0
C464 C 0.22532 0.33107 0.87428 0.0
C465 C 0.32814 0.34963 0.81363 0.0
C466 C 0.32645 0.3199 0.88995 0.0
C467 C 0.38101 0.28655 0.82638 0.0
C468 C 0.39986 0.29002 0.80742 0.0
C469 C 0.40296 0.31161 0.79057 0.0
C470 C 0.42244 0.31578 0.77523 0.0
C471 C 0.43948 0.2986 0.77646 0.0
C472 C 0.43602 0.27683 0.7931 0.0
C473 C 0.41654 0.27263 0.80828 0.0
C474 C 0.3005 0.26081 0.84366 0.0
C475 C 0.30367 0.28804 0.76987 0.0
O476 O 0.25352 0.3051 0.8137 0.0
O477 O 0.26969 0.33906 0.84911 0.0
O478 O 0.32944 0.33388 0.83282 0.0
O479 O 0.30542 0.34943 0.80454 0.0
O480 O 0.30414 0.31795 0.87527 0.0
O481 O 0.34413 0.31363 0.87703 0.0
O482 O 0.37683 0.30909 0.84019 0.0
O483 O 0.36099 0.26757 0.81687 0.0
O484 O 0.30116 0.27725 0.82544 0.0
O485 O 0.32283 0.26039 0.85459 0.0
O486 O 0.32626 0.29074 0.784 0.0
O487 O 0.28616 0.29397 0.78344 0.0
H488 H 0.21237 0.27681 0.81828 0.0
H489 H 0.17616 0.26509 0.83952 0.0
H490 H 0.20184 0.33871 0.90465 0.0
H491 H 0.2386 0.34993 0.88382 0.0
H492 H 0.39058 0.32556 0.78965 0.0
H493 H 0.42446 0.33295 0.76297 0.0
H494 H 0.44835 0.26284 0.79435 0.0
H495 H 0.41475 0.25594 0.82122 0.0
Tb496 Tb 0.05581 0.07957 0.57616 0.0
Tb497 Tb 0.07494 0.02687 0.57339 0.0
C498 C 0.05132 0.12729 0.56976 0.0
C499 C 0.0325 0.13793 0.55237 0.0
C500 C 1.02668 0.16254 0.56376 0.0
C501 C 1.01086 0.1746 0.54624 0.0
C502 C 1.00081 0.16226 0.51698 0.0
C503 C 1.00518 0.13646 0.5064 0.0
C504 C 1.02085 0.12428 0.52406 0.0
C505 C 1.02027 0.03833 0.58248 0.0
C506 C 0.04429 0.0372 0.5155 0.0
C507 C 0.08678 0.98316 0.58492 0.0
C508 C 0.0916 0.97297 0.61324 0.0
C509 C 0.07241 0.96027 0.62583 0.0
C510 C 0.07715 0.951 0.65276 0.0
C511 C 0.10116 0.95417 0.66762 0.0
C512 C 0.12031 0.96768 0.65552 0.0
C513 C 0.11558 0.97687 0.62853 0.0
C514 C 0.10331 0.06954 0.55811 0.0
C515 C 0.08218 0.06634 0.63541 0.0
O516 O 0.06396 0.11354 0.55461 0.0
O517 O 0.04487 0.11549 0.59179 0.0
O518 O 0.0416 0.03737 0.57887 0.0
O519 O 1.01854 0.06384 0.58274 0.0
O520 O 0.04533 0.06248 0.52912 0.0
O521 O 0.05321 1.01848 0.5291 0.0
O522 O 0.06429 0.98451 0.57508 0.0
O523 O 0.10242 1.00509 0.58191 0.0
O524 O 0.09115 0.07024 0.57862 0.0
O525 O 0.10009 0.04395 0.54599 0.0
O526 O 0.08201 0.04154 0.62124 0.0
O527 O 0.07472 0.0856 0.62148 0.0
H528 H 0.03527 0.17312 0.58569 0.0
H529 H 1.00812 0.19472 0.55484 0.0
H530 H 0.99768 0.1266 0.48394 0.0
H531 H 1.02475 0.10493 0.51505 0.0
H532 H 0.05371 0.95705 0.61473 0.0
H533 H 0.06202 0.94011 0.66119 0.0
H534 H 0.13898 0.97038 0.66651 0.0
H535 H 0.13075 0.98678 0.61948 0.0
Tb536 Tb 0.31709 0.77542 0.83692 0.0
Tb537 Tb 0.322 0.83705 0.83191 0.0
C538 C 0.31752 0.72485 0.82886 0.0
C539 C 0.3326 0.70557 0.82025 0.0
C540 C 0.35602 0.71481 0.81471 0.0
C541 C 0.36943 0.69562 0.80559 0.0
C542 C 0.3596 0.66693 0.80195 0.0
C543 C 0.3362 0.65801 0.80794 0.0
C544 C 0.32286 0.67712 0.81687 0.0
C545 C 0.30068 0.80399 0.8781 0.0
C546 C 0.3696 0.81544 0.85335 0.0
C547 C 0.3285 0.88896 0.83899 0.0
C548 C 0.31215 0.90798 0.84196 0.0
C549 C 0.28787 0.89806 0.84405 0.0
C550 C 0.27269 0.9165 0.84822 0.0
C551 C 0.28154 0.94513 0.84997 0.0
C552 C 0.30572 0.95474 0.84675 0.0
C553 C 0.32091 0.93632 0.84298 0.0
C554 C 0.32247 0.80345 0.78367 0.0
C555 C 0.271 0.79859 0.81498 0.0
O556 O 0.30871 0.73786 0.80819 0.0
O557 O 0.32509 0.74079 0.85457 0.0
O558 O 0.31832 0.81247 0.86593 0.0
O559 O 0.29351 0.77757 0.86944 0.0
O560 O 0.35633 0.79003 0.85116 0.0
O561 O 0.3601 0.83663 0.84663 0.0
O562 O 0.33175 0.87482 0.86053 0.0
O563 O 0.3249 0.87357 0.8133 0.0
O564 O 0.3318 0.80236 0.80949 0.0
O565 O 0.31304 0.82508 0.784 0.0
O566 O 0.28321 0.82373 0.82718 0.0
O567 O 0.28192 0.77751 0.8111 0.0
H568 H 0.36385 0.73674 0.81731 0.0
H569 H 0.38733 0.70325 0.80107 0.0
H570 H 0.32823 0.63617 0.80611 0.0
H571 H 0.30483 0.66963 0.82116 0.0
H572 H 0.28079 0.87614 0.84309 0.0
H573 H 0.25429 0.90837 0.85086 0.0
H574 H 0.31297 0.97656 0.84715 0.0
H575 H 0.33954 0.94423 0.84101 0.0
Tb576 Tb 0.5432 0.05599 0.04981 0.0
Tb577 Tb 0.58831 0.05901 0.09454 0.0
C578 C 0.50414 0.03492 1.01475 0.0
C579 C 0.47799 0.02669 1.0133 0.0
C580 C 0.46816 0.02662 0.03897 0.0
C581 C 0.44392 1.0138 0.03746 0.0
C582 C 0.42928 1.00084 1.01025 0.0
C583 C 0.43901 1.00204 0.98449 0.0
C584 C 0.46323 1.01488 0.98605 0.0
C585 C 0.56497 0.10601 0.07573 0.0
C586 C 0.53749 0.05563 0.11998 0.0
C587 C 0.6272 0.07979 0.1299 0.0
C588 C 0.65359 0.08571 0.13293 0.0
C589 C 0.66754 0.10076 0.15946 0.0
C590 C 0.69252 0.10996 0.16212 0.0
C591 C 0.70391 0.10414 0.13826 0.0
C592 C 0.68999 0.088 0.11202 0.0
C593 C 0.66489 0.07893 0.10931 0.0
C594 C 0.56679 1.00918 0.06653 0.0
C595 C 0.59432 0.05813 0.02439 0.0
O596 O 0.51699 1.02077 0.03031 0.0
O597 O 0.51404 0.06149 0.01899 0.0
O598 O 0.56268 0.08418 0.08702 0.0
O599 O 0.55336 0.10031 0.04855 0.0
O600 O 0.52634 0.05339 0.09166 0.0
O601 O 0.56169 0.05817 0.12547 0.0
O602 O 0.61586 0.09374 0.11225 0.0
O603 O 0.61595 0.05379 0.1274 0.0
O604 O 0.56889 0.0319 0.05741 0.0
O605 O 0.57944 1.01357 0.09316 0.0
O606 O 0.60536 0.06095 0.05286 0.0
O607 O 0.57007 0.05585 0.01873 0.0
H608 H 0.47946 0.03536 0.06023 0.0
H609 H 0.43695 1.01301 0.0577 0.0
H610 H 0.42804 0.99261 0.96322 0.0
H611 H 0.4707 1.01459 0.96607 0.0
H612 H 0.65897 0.10619 0.17784 0.0
H613 H 0.70288 0.1221 0.18265 0.0
H614 H 0.69836 0.08343 0.09323 0.0
H615 H 0.65425 0.06746 0.08861 0.0
Tb616 Tb 0.28928 0.27642 0.30778 0.0
Tb617 Tb 0.33574 0.31874 0.34206 0.0
C618 C 0.24768 0.24669 0.30347 0.0
C619 C 0.22528 0.25416 0.3108 0.0
C620 C 0.22671 0.27421 0.33532 0.0
C621 C 0.20574 0.28103 0.34296 0.0
C622 C 0.18276 0.26801 0.32632 0.0
C623 C 0.18129 0.24844 0.30129 0.0
C624 C 0.20243 0.2415 0.29364 0.0
C625 C 0.31149 0.30603 0.27209 0.0
C626 C 0.28638 0.34288 0.33133 0.0
C627 C 0.37933 0.34372 0.3512 0.0
C628 C 0.40085 0.33393 0.34333 0.0
C629 C 0.40887 0.34004 0.31741 0.0
C630 C 0.42637 0.32743 0.30703 0.0
C631 C 0.43646 0.30843 0.32233 0.0
C632 C 0.42975 0.30377 0.34934 0.0
C633 C 0.41205 0.31632 0.3597 0.0
C634 C 0.30878 0.29027 0.37402 0.0
C635 C 0.33903 0.25254 0.31711 0.0
O636 O 0.26528 0.24918 0.32597 0.0
O637 O 0.25553 0.25649 0.28108 0.0
O638 O 0.31638 0.30711 0.29943 0.0
O639 O 0.29264 0.28574 0.2628 0.0
O640 O 0.27546 0.31581 0.32183 0.0
O641 O 0.31081 0.34939 0.33928 0.0
O642 O 0.36316 0.34627 0.32891 0.0
O643 O 0.36915 0.33232 0.37139 0.0
O644 O 0.313 0.28248 0.349 0.0
O645 O 0.32125 0.31562 0.38306 0.0
O646 O 0.34953 0.27896 0.33014 0.0
O647 O 0.31492 0.24646 0.30593 0.0
H648 H 0.24407 0.28454 0.34886 0.0
H649 H 0.20754 0.2966 0.36201 0.0
H650 H 0.16381 0.23805 0.28808 0.0
H651 H 0.20092 0.22609 0.27456 0.0
H652 H 0.40095 0.35381 0.30447 0.0
H653 H 0.43166 0.3322 0.28661 0.0
H654 H 0.43721 0.28935 0.36173 0.0
H655 H 0.40646 0.31125 0.37987 0.0
Tb656 Tb 0.56034 0.57949 0.07212 0.0
Tb657 Tb 0.57915 0.52354 0.07118 0.0
C658 C 0.55463 0.6253 0.0601 0.0
C659 C 0.53545 0.63208 0.03905 0.0
C660 C 0.52829 0.61725 1.01026 0.0
C661 C 0.51196 0.62554 0.98949 0.0
C662 C 0.50259 0.64884 0.99713 0.0
C663 C 0.50816 0.66217 0.02657 0.0
C664 C 0.52453 0.65386 0.04736 0.0
C665 C 0.52634 0.53874 0.08304 0.0
C666 C 0.54954 0.53547 1.01257 0.0
C667 C 0.58203 0.47544 0.07844 0.0
C668 C 0.57813 0.46071 0.10301 0.0
C669 C 0.56647 0.47122 0.12483 0.0
C670 C 0.56603 0.45953 0.15052 0.0
C671 C 0.57756 0.43751 0.15472 0.0
C672 C 0.5886 0.42662 0.13239 0.0
C673 C 0.58892 0.43821 0.10673 0.0
C674 C 0.6128 0.56485 0.0604 0.0
C675 C 0.58841 0.56683 0.13061 0.0
O676 O 0.56904 0.61156 0.04831 0.0
O677 O 0.54795 0.61574 0.08327 0.0
O678 O 0.54742 0.53797 0.07808 0.0
O679 O 0.52419 0.56406 0.08229 0.0
O680 O 0.54674 0.55898 0.02683 0.0
O681 O 0.56183 0.51855 0.02505 0.0
O682 O 0.56277 0.48129 0.06334 0.0
O683 O 0.60068 0.49646 0.08496 0.0
O684 O 0.59189 0.56502 0.06596 0.0
O685 O 0.61494 0.53937 0.05972 0.0
O686 O 0.5852 0.54054 0.11825 0.0
O687 O 0.5829 0.58646 0.11556 0.0
H688 H 0.53619 0.60012 1.00323 0.0
H689 H 0.508 0.61499 0.96697 0.0
H690 H 0.50149 0.6805 0.03301 0.0
H691 H 0.52955 0.66529 0.06951 0.0
H692 H 0.55838 0.48895 0.12239 0.0
H693 H 0.55733 0.46813 0.16738 0.0
H694 H 0.59712 0.4092 0.13487 0.0
H695 H 0.59819 0.43012 0.09018 0.0
Tb696 Tb 0.82613 0.28373 0.31623 0.0
Tb697 Tb 0.82786 0.34395 0.307 0.0
C698 C 0.82569 0.23285 0.30923 0.0
C699 C 0.84408 0.21632 0.30561 0.0
C700 C 0.86898 0.22824 0.31427 0.0
C701 C 0.88623 0.21203 0.31176 0.0
C702 C 0.87892 0.18357 0.30054 0.0
C703 C 0.85391 0.1719 0.29146 0.0
C704 C 0.8367 0.18814 0.29393 0.0
C705 C 0.81497 0.31643 0.35913 0.0
C706 C 0.87585 0.3268 0.33742 0.0
C707 C 0.82912 0.39494 0.3139 0.0
C708 C 0.81231 0.41253 0.32085 0.0
C709 C 0.78941 0.40124 0.32682 0.0
C710 C 0.77401 0.41861 0.33431 0.0
C711 C 0.78135 0.44748 0.33594 0.0
C712 C 0.8041 0.45842 0.32916 0.0
C713 C 0.81943 0.44112 0.32181 0.0
C714 C 0.83857 0.31168 0.26403 0.0
C715 C 0.77827 0.30061 0.28628 0.0
O716 O 0.81967 0.24609 0.28751 0.0
O717 O 0.82866 0.24811 0.33503 0.0
O718 O 0.81077 0.31674 0.33217 0.0
O719 O 0.82298 0.29418 0.36265 0.0
O720 O 0.86498 0.30048 0.3283 0.0
O721 O 0.86412 0.3471 0.33392 0.0
O722 O 0.83716 0.38203 0.335 0.0
O723 O 0.823 0.37906 0.28818 0.0
O724 O 0.84348 0.3112 0.29098 0.0
O725 O 0.82944 0.33316 0.26038 0.0
O726 O 0.78873 0.32685 0.29696 0.0
O727 O 0.79044 0.28057 0.28837 0.0
H728 H 0.87508 0.25001 0.3232 0.0
H729 H 0.90529 0.22183 0.31859 0.0
H730 H 0.84752 0.14999 0.28321 0.0
H731 H 0.81757 0.17856 0.28718 0.0
H732 H 0.78362 0.37911 0.32607 0.0
H733 H 0.75669 0.40954 0.33954 0.0
H734 H 0.8101 0.48047 0.32948 0.0
H735 H 0.83694 0.45011 0.317 0.0
Tb736 Tb 0.04137 0.54722 0.55146 0.0
Tb737 Tb 0.08803 0.56319 0.59568 0.0
C738 C 1.00364 0.51665 0.5203 0.0
C739 C 0.97782 0.50569 0.51966 0.0
C740 C 0.96264 0.49491 0.49241 0.0
C741 C 0.93856 0.48159 0.49099 0.0
C742 C 0.92927 0.47878 0.5169 0.0
C743 C 0.94445 0.49021 0.54423 0.0
C744 C 0.96857 0.50357 0.54561 0.0
C745 C 0.05587 0.60033 0.57039 0.0
C746 C 0.03816 0.55437 0.6232 0.0
C747 C 0.12656 0.59337 0.62512 0.0
C748 C 0.15203 0.60244 0.62248 0.0
C749 C 0.15839 0.60976 0.59611 0.0
C750 C 0.1826 0.6206 0.59493 0.0
C751 C 0.20078 0.624 0.61999 0.0
C752 C 0.1944 0.61601 0.6461 0.0
C753 C 0.1702 0.6054 0.64734 0.0
C754 C 0.0732 0.51008 0.57591 0.0
C755 C 0.09192 0.55527 0.52435 0.0
O756 O 1.01891 0.50788 0.53917 0.0
O757 O 1.01045 0.54307 0.51877 0.0
O758 O 0.05763 0.58079 0.5847 0.0
O759 O 0.04385 0.59019 0.54391 0.0
O760 O 1.02627 0.54723 0.59487 0.0
O761 O 0.06256 0.56143 0.62811 0.0
O762 O 0.11061 0.60247 0.6075 0.0
O763 O 0.11926 0.56729 0.62782 0.0
O764 O 0.07166 0.53014 0.56249 0.0
O765 O 0.08557 0.5197 0.60237 0.0
O766 O 0.10352 0.56265 0.5527 0.0
O767 O 0.06745 0.54846 0.51925 0.0
H768 H 0.96958 0.4963 0.47218 0.0
H769 H 0.92722 0.47346 0.46962 0.0
H770 H 0.93787 0.4882 0.56458 0.0
H771 H 0.98013 0.51161 0.56687 0.0
H772 H 0.14465 0.60755 0.57658 0.0
H773 H 0.18711 0.62628 0.57445 0.0
H774 H 0.20807 0.61861 0.66579 0.0
H775 H 0.16559 0.59999 0.66788 0.0
Tb776 Tb 0.7959 0.80189 0.32939 0.0
Tb777 Tb 0.84568 0.784 0.33948 0.0
C778 C 0.75221 0.80566 0.32994 0.0
C779 C 0.73119 0.79995 0.34574 0.0
C780 C 0.71012 0.78023 0.33173 0.0
C781 C 0.68903 0.77636 0.34406 0.0
C782 C 0.68794 0.79241 0.37074 0.0
C783 C 0.70929 0.81179 0.38516 0.0
C784 C 0.73054 0.81556 0.37283 0.0
C785 C 0.8343 0.83784 0.32106 0.0
C786 C 0.82833 0.81046 0.39437 0.0
C787 C 0.88878 0.77977 0.33658 0.0
C788 C 0.9073 0.78527 0.31735 0.0
C789 C 0.92971 0.80366 0.32899 0.0
C790 C 0.9482 0.80788 0.31233 0.0
C791 C 0.94489 0.79386 0.28337 0.0
C792 C 0.92225 0.77576 0.27153 0.0
C793 C 0.90378 0.77141 0.28831 0.0
C794 C 0.80858 0.74931 0.35162 0.0
C795 C 0.81452 0.7771 0.27439 0.0
O796 O 0.7585 0.78441 0.31625 0.0
O797 O 0.77111 0.82558 0.34173 0.0
O798 O 0.83332 0.82143 0.33936 0.0
O799 O 0.81219 0.8365 0.30768 0.0
O800 O 0.80648 0.80717 0.37766 0.0
O801 O 0.84733 0.80472 0.3838 0.0
O802 O 0.88319 0.80134 0.35059 0.0
O803 O 0.86969 0.75945 0.32706 0.0
O804 O 0.80793 0.76413 0.33152 0.0
O805 O 0.83119 0.75054 0.36267 0.0
O806 O 0.83608 0.78103 0.29161 0.0
O807 O 0.79511 0.78172 0.28481 0.0
H808 H 0.70979 0.76793 0.3108 0.0
H809 H 0.67346 0.76071 0.3324 0.0
H810 H 0.70938 0.82483 0.40553 0.0
H811 H 0.74625 0.83122 0.38418 0.0
H812 H 0.9331 0.8146 0.35129 0.0
H813 H 0.96511 0.8223 0.32219 0.0
H814 H 0.91897 0.76434 0.24947 0.0
H815 H 0.8869 0.75686 0.27864 0.0
Tb816 Tb 0.81931 0.28812 0.80653 0.0
Tb817 Tb 0.80586 0.31588 0.8556 0.0
C818 C 0.82211 0.27533 0.75368 0.0
C819 C 0.81533 0.2899 0.72937 0.0
C820 C 0.80573 0.31348 0.73499 0.0
C821 C 0.79647 0.32597 0.71196 0.0
C822 C 0.7964 0.31486 0.68288 0.0
C823 C 0.80638 0.29147 0.67723 0.0
C824 C 0.81583 0.27904 0.70044 0.0
C825 C 0.84925 0.28529 0.85528 0.0
C826 C 0.83862 0.35607 0.82388 0.0
C827 C 0.79826 0.32902 0.90644 0.0
C828 C 0.79791 0.31236 0.93014 0.0
C829 C 0.80857 0.28929 0.92832 0.0
C830 C 0.80964 0.27375 0.95101 0.0
C831 C 0.80029 0.2811 0.9762 0.0
C832 C 0.789 0.30382 0.97775 0.0
C833 C 0.7877 0.31934 0.95465 0.0
C834 C 0.77702 0.31827 0.80545 0.0
C835 C 0.78847 0.24763 0.84005 0.0
O836 O 0.80376 0.2648 0.76521 0.0
O837 O 0.84071 0.28865 0.77373 0.0
O838 O 0.83995 0.30575 0.84978 0.0
O839 O 0.84301 0.26652 0.83201 0.0
O840 O 0.83553 0.33297 0.80451 0.0
O841 O 0.82877 0.35449 0.84763 0.0
O842 O 0.81945 0.33561 0.8989 0.0
O843 O 0.78087 0.31976 0.88361 0.0
O844 O 0.78526 0.29775 0.81279 0.0
O845 O 0.78484 0.33842 0.82723 0.0
O846 O 0.79093 0.27101 0.85875 0.0
O847 O 0.79824 0.24906 0.81624 0.0
H848 H 0.80454 0.32167 0.75714 0.0
H849 H 0.78856 0.3437 0.71683 0.0
H850 H 0.80664 0.2827 0.65489 0.0
H851 H 0.82289 0.26063 0.69578 0.0
H852 H 0.81697 0.28387 0.90983 0.0
H853 H 0.81909 0.25691 0.94948 0.0
H854 H 0.78179 0.30996 0.99706 0.0
H855 H 0.77936 0.33709 0.95625 0.0
Tb856 Tb 0.79155 0.77901 0.81311 0.0
Tb857 Tb 0.83436 0.82002 0.83959 0.0
C858 C 0.74919 0.74967 0.8041 0.0
C859 C 0.72521 0.75567 0.80627 0.0
C860 C 0.70967 0.73857 0.82023 0.0
C861 C 0.6886 0.74605 0.82687 0.0
C862 C 0.68262 0.77079 0.81962 0.0
C863 C 0.69747 0.78713 0.80411 0.0
C864 C 0.71869 0.77972 0.79761 0.0
C865 C 0.81493 0.80145 0.77443 0.0
C866 C 0.78613 0.84494 0.83236 0.0
C867 C 0.87715 0.84747 0.84545 0.0
C868 C 0.89953 0.83894 0.8395 0.0
C869 C 0.89839 0.8172 0.81668 0.0
C870 C 0.91956 0.80971 0.8103 0.0
C871 C 0.94238 0.82419 0.82613 0.0
C872 C 0.94354 0.84572 0.84921 0.0
C873 C 0.92226 0.85289 0.85597 0.0
C874 C 0.81142 0.797 0.8785 0.0
C875 C 0.83982 0.75412 0.82144 0.0
O876 O 0.76433 0.75389 0.82918 0.0
O877 O 0.75968 0.75893 0.78317 0.0
O878 O 0.8111 0.81389 0.7979 0.0
O879 O 0.80498 0.77531 0.7717 0.0
O880 O 0.77576 0.81769 0.82411 0.0
O881 O 0.81046 0.85156 0.83893 0.0
O882 O 0.86037 0.84554 0.82225 0.0
O883 O 0.86807 0.83817 0.86731 0.0
O884 O 0.81493 0.78495 0.8546 0.0
O885 O 0.8218 0.82316 0.88171 0.0
O886 O 0.85003 0.78129 0.82974 0.0
O887 O 0.81552 0.74747 0.81458 0.0
H888 H 0.71438 0.71998 0.82712 0.0
H889 H 0.67733 0.73289 0.83853 0.0
H890 H 0.69338 0.80639 0.79843 0.0
H891 H 0.73046 0.79337 0.78695 0.0
H892 H 0.88118 0.80638 0.80319 0.0
H893 H 0.91811 0.79339 0.79208 0.0
H894 H 0.96093 0.85727 0.86172 0.0
H895 H 0.9236 0.86971 0.87362 0.0
Tb896 Tb 0.5539 0.5327 0.56769 0.0
Tb897 Tb 0.59982 0.56949 0.5978 0.0
C898 C 0.51359 0.4991 0.55743 0.0
C899 C 0.49006 0.50393 0.56348 0.0
C900 C 0.48624 0.50762 0.59269 0.0
C901 C 0.46997 0.52347 0.60043 0.0
C902 C 0.45727 0.53543 0.57898 0.0
C903 C 0.45773 0.52735 0.54919 0.0
C904 C 0.47404 0.51155 0.54144 0.0
C905 C 0.58513 0.5452 0.53262 0.0
C906 C 0.55767 0.59601 0.56668 0.0
C907 C 0.64105 0.60096 0.61178 0.0
C908 C 0.66399 0.59332 0.62266 0.0
C909 C 0.68385 0.60133 0.60903 0.0
C910 C 0.70114 0.58506 0.60809 0.0
C911 C 0.69851 0.56065 0.62064 0.0
C912 C 0.68075 0.55511 0.638 0.0
C913 C 0.66359 0.57143 0.63908 0.0
C914 C 0.56926 0.55532 0.63311 0.0
C915 C 0.59524 0.50605 0.60168 0.0
O916 O 0.53028 0.50077 0.58065 0.0
O917 O 0.52228 0.51243 0.53753 0.0
O918 O 0.5902 0.54008 0.5585 0.0
O919 O 0.5618 0.54063 0.52479 0.0
O920 O 0.54237 0.57247 0.56744 0.0
O921 O 0.58132 0.59837 0.57517 0.0
O922 O 0.63134 0.58905 0.58482 0.0
O923 O 0.62507 0.5996 0.6291 0.0
O924 O 0.56361 0.56124 0.60759 0.0
O925 O 0.59263 0.55923 0.63995 0.0
O926 O 0.61051 0.5305 0.6059 0.0
O927 O 0.57272 0.5026 0.5872 0.0
H928 H 0.49776 0.50116 0.61013 0.0
H929 H 0.46963 0.52911 0.62352 0.0
H930 H 0.44756 0.53588 0.53224 0.0
H931 H 0.47608 0.50823 0.51865 0.0
H932 H 0.68436 0.61802 0.59609 0.0
H933 H 0.71469 0.58967 0.59451 0.0
H934 H 0.67853 0.53646 0.64799 0.0
H935 H 0.64843 0.5648 0.64978 0.0
Tb936 Tb 0.08866 0.55116 0.06204 0.0
Tb937 Tb 0.04018 0.54554 0.08605 0.0
C938 C 0.13291 0.55263 0.05965 0.0
C939 C 0.15448 0.5412 0.06988 0.0
C940 C 0.15267 0.51502 0.07884 0.0
C941 C 0.17369 0.50457 0.08668 0.0
C942 C 0.197 0.52006 0.08575 0.0
C943 C 0.19849 0.54632 0.07689 0.0
C944 C 0.17761 0.55668 0.06917 0.0
C945 C 0.05286 0.55856 0.01825 0.0
C946 C 0.05402 0.49131 0.05624 0.0
C947 C 0.9967 0.5455 0.09155 0.0
C948 C 0.97659 0.56068 0.08776 0.0
C949 C 0.97456 0.57941 0.06763 0.0
C950 C 0.95452 0.59233 0.06441 0.0
C951 C 0.93603 0.58664 0.08109 0.0
C952 C 0.93864 0.56834 0.10159 0.0
C953 C 0.95854 0.55563 0.10484 0.0
C954 C 0.07727 0.53712 0.12789 0.0
C955 C 0.07487 0.60556 0.09119 0.0
O956 O 0.12564 0.56898 0.07894 0.0
O957 O 0.11466 0.53621 0.04114 0.0
O958 O 0.05124 0.55399 0.04465 0.0
O959 O 0.07567 0.55973 0.01755 0.0
O960 O 0.07606 0.50624 0.05696 0.0
O961 O 0.03648 0.50235 0.06513 0.0
O962 O 1.00275 0.53345 0.06806 0.0
O963 O 1.01563 0.55662 0.11216 0.0
O964 O 0.07707 0.5429 0.10191 0.0
O965 O 0.0546 0.5346 0.13015 0.0
O966 O 0.05305 0.59099 0.09237 0.0
O967 O 0.09177 0.59391 0.08171 0.0
H968 H 0.13505 0.50258 0.07955 0.0
H969 H 0.17165 0.48443 0.09363 0.0
H970 H 0.21583 0.55879 0.07519 0.0
H971 H 0.17954 0.57679 0.06209 0.0
H972 H 0.98826 0.58382 0.05425 0.0
H973 H 0.95319 0.60619 0.04832 0.0
H974 H 0.92518 0.56374 0.11527 0.0
H975 H 0.95969 0.54147 0.12066 0.0
H976 H 0.99907 0.19066 0.02679 0.0
H977 H 0.06566 0.21687 0.99553 0.0
H978 H 0.07962 0.17609 1.00968 0.0
H979 H 0.07394 0.1336 0.03296 0.0
H980 H 1.00621 0.10481 0.06029 0.0
H981 H 0.99168 0.14537 0.04555 0.0
C982 C 1.01656 0.18737 0.02282 0.0
C983 C 0.03128 0.20728 1.01011 0.0
C984 C 1.02435 0.16322 0.03044 0.0
C985 C 0.05379 0.20218 1.00504 0.0
C986 C 0.06189 0.17879 1.01331 0.0
C987 C 0.05591 0.13608 0.03554 0.0
C988 C 0.04122 0.116 0.04794 0.0
C989 C 0.04749 0.15928 0.02633 0.0
C990 C 1.01783 0.11961 0.05069 0.0
C991 C 1.0096 0.14301 0.0424 0.0
H992 H 0.1936 0.79846 0.19612 0.0
H993 H 0.17134 0.85908 0.2538 0.0
H994 H 0.20762 0.8618 0.29091 0.0
H995 H 0.24583 0.84698 0.30731 0.0
H996 H 0.26566 0.78219 0.25253 0.0
H997 H 0.23058 0.78117 0.21412 0.0
C998 C 0.19673 0.81234 0.21679 0.0
C999 C 0.17972 0.82884 0.22189 0.0
C1000 C 0.21735 0.81306 0.23861 0.0
C1001 C 0.18398 0.84623 0.24912 0.0
C1002 C 0.20481 0.8478 0.27039 0.0
C1003 C 0.24255 0.83263 0.28695 0.0
C1004 C 0.25886 0.81505 0.28271 0.0
C1005 C 0.22165 0.83134 0.26543 0.0
C1006 C 0.25381 0.79624 0.25634 0.0
C1007 C 0.23361 0.79561 0.23436 0.0
H1008 H 0.54422 0.87763 0.47517 0.0
H1009 H 0.52344 0.84339 0.55028 0.0
H1010 H 0.52481 0.89012 0.5754 0.0
H1011 H 0.53395 0.94181 0.57689 0.0
H1012 H 0.55699 0.97456 0.50201 0.0
H1013 H 0.55255 0.9278 0.47615 0.0
C1014 C 0.5398 0.88024 0.49697 0.0
C1015 C 0.53371 0.85676 0.51068 0.0
C1016 C 0.54106 0.90723 0.51147 0.0
C1017 C 0.52821 0.86091 0.53907 0.0
C1018 C 0.52901 0.88774 0.55349 0.0
C1019 C 0.53763 0.9386 0.55477 0.0
C1020 C 0.54563 0.96183 0.54133 0.0
C1021 C 0.53565 0.91123 0.54006 0.0
C1022 C 0.55076 0.95719 0.51285 0.0
C1023 C 0.54827 0.93038 0.49802 0.0
H1024 H 0.51765 0.32154 0.69306 0.0
H1025 H 0.56356 0.30164 0.76663 0.0
H1026 H 0.52949 0.29429 0.79254 0.0
H1027 H 0.48659 0.29378 0.79493 0.0
H1028 H 0.44046 0.31401 0.72177 0.0
H1029 H 0.47447 0.32123 0.69563 0.0
C1030 C 0.52021 0.31554 0.71474 0.0
C1031 C 0.54336 0.31212 0.7277 0.0
C1032 C 0.50039 0.31151 0.72983 0.0
C1033 C 0.54614 0.30447 0.75594 0.0
C1034 C 0.52657 0.30024 0.77087 0.0
C1035 C 0.48382 0.29954 0.77316 0.0
C1036 C 0.46067 0.30325 0.76054 0.0
C1037 C 0.50359 0.30369 0.75809 0.0
C1038 C 0.45791 0.31126 0.73242 0.0
C1039 C 0.47742 0.31524 0.71728 0.0
H1040 H 0.08676 0.87033 0.75431 0.0
H1041 H 0.13864 0.8391 0.70943 0.0
H1042 H 0.14826 0.88232 0.68977 0.0
H1043 H 0.13416 0.92259 0.67554 0.0
H1044 H 0.07851 0.9515 0.71521 0.0
H1045 H 0.07817 0.91588 0.74704 0.0
C1046 C 0.10089 0.87363 0.74126 0.0
C1047 C 0.11197 0.85187 0.73305 0.0
C1048 C 0.10511 0.8978 0.72852 0.0
C1049 C 0.12995 0.85579 0.71581 0.0
C1050 C 0.13527 0.88036 0.70442 0.0
C1051 C 0.12267 0.92187 0.69198 0.0
C1052 C 0.10606 0.93923 0.69269 0.0
C1053 C 0.12182 0.90066 0.7091 0.0
C1054 C 0.09113 0.93792 0.71395 0.0
C1055 C 0.09089 0.91754 0.73206 0.0
H1056 H 0.4802 0.81306 0.8856 0.0
H1057 H 0.48404 0.89703 0.92469 0.0
H1058 H 0.44119 0.89294 0.90316 0.0
H1059 H 0.40161 0.86332 0.87874 0.0
H1060 H 0.39732 0.77749 0.84543 0.0
H1061 H 0.44129 0.78422 0.85945 0.0
C1062 C 0.47184 0.83075 0.88846 0.0
C1063 C 0.48521 0.8555 0.90608 0.0
C1064 C 0.44695 0.82755 0.87782 0.0
C1065 C 0.47407 0.878 0.91068 0.0
C1066 C 0.44956 0.87549 0.89873 0.0
C1067 C 0.41037 0.84618 0.87436 0.0
C1068 C 0.39625 0.81989 0.86137 0.0
C1069 C 0.43561 0.85003 0.88319 0.0
C1070 C 0.40776 0.79781 0.85586 0.0
C1071 C 0.43292 0.80169 0.86367 0.0
H1072 H 0.57506 0.22948 0.13282 0.0
H1073 H 0.57172 0.19146 0.21101 0.0
H1074 H 0.56816 0.146 0.18194 0.0
H1075 H 0.5675 0.11756 0.13466 0.0
H1076 H 0.57028 0.15592 0.05673 0.0
H1077 H 0.57335 0.20121 0.08578 0.0
C1078 C 0.57345 0.2113 0.14365 0.0
C1079 C 0.5738 0.21398 0.17419 0.0
C1080 C 0.5718 0.18546 0.12696 0.0
C1081 C 0.57141 0.19005 0.18758 0.0
C1082 C 0.5696 0.16409 0.17101 0.0
C1083 C 0.56897 0.13587 0.12407 0.0
C1084 C 0.56887 0.13353 0.09362 0.0
C1085 C 0.57015 0.16166 0.14078 0.0
C1086 C 0.57048 0.15732 0.08014 0.0
C1087 C 0.57208 0.18312 0.0967 0.0
H1088 H 0.08764 0.30708 0.35131 0.0
H1089 H 0.11983 0.30026 0.4397 0.0
H1090 H 0.15253 0.28295 0.42156 0.0
H1091 H 0.17326 0.2718 0.38139 0.0
H1092 H 0.14258 0.27894 0.29277 0.0
H1093 H 0.10789 0.29354 0.31005 0.0
C1094 C 0.10172 0.30158 0.36651 0.0
C1095 C 0.10133 0.3052 0.39686 0.0
C1096 C 0.12079 0.29171 0.35592 0.0
C1097 C 0.11971 0.29793 0.41627 0.0
C1098 C 0.13848 0.28798 0.40594 0.0
C1099 C 0.159 0.2766 0.36583 0.0
C1100 C 0.16063 0.27463 0.33593 0.0
C1101 C 0.1394 0.2852 0.37594 0.0
C1102 C 0.14172 0.28027 0.31593 0.0
C1103 C 0.12197 0.28876 0.32584 0.0
H1104 H 0.98942 0.04848 0.22397 0.0
H1105 H 1.01591 0.9732 0.22622 0.0
H1106 H 0.03323 0.9805 0.18243 0.0
H1107 H 0.0433 1.00968 0.14509 0.0
H1108 H 1.01985 0.08682 0.14494 0.0
H1109 H 0.99878 0.0773 0.18574 0.0
C1110 C 0.99872 0.0335 0.21467 0.0
C1111 C 1.00127 1.01028 0.22854 0.0
C1112 C 1.00929 0.03821 0.18973 0.0
C1113 C 1.0137 0.99131 0.21624 0.0
C1114 C 1.02364 0.99545 0.1911 0.0
C1115 C 0.03324 0.02419 0.15368 0.0
C1116 C 0.033 0.04888 0.14182 0.0
C1117 C 1.02187 1.01901 0.17787 0.0
C1118 C 1.02024 0.06766 0.1536 0.0
C1119 C 1.00826 0.06224 0.17702 0.0
H1120 H 0.33648 0.68977 0.54819 0.0
H1121 H 0.40722 0.73761 0.54531 0.0
H1122 H 0.38889 0.7644 0.51089 0.0
H1123 H 0.35279 0.77807 0.4874 0.0
H1124 H 0.28162 0.73408 0.49444 0.0
H1125 H 0.29994 0.70207 0.52217 0.0
C1126 C 0.3478 0.70546 0.53915 0.0
C1127 C 0.37308 0.71163 0.54863 0.0
C1128 C 0.337 0.72199 0.52115 0.0
C1129 C 0.38774 0.73235 0.53764 0.0
C1130 C 0.37724 0.7479 0.51844 0.0
C1131 C 0.34129 0.7616 0.49522 0.0
C1132 C 0.31599 0.75875 0.48967 0.0
C1133 C 0.35191 0.74365 0.51114 0.0
C1134 C 0.30119 0.73678 0.4989 0.0
C1135 C 0.31164 0.71848 0.51457 0.0
H1136 H 0.6657 0.05986 0.73837 0.0
H1137 H 0.62256 0.98712 0.76046 0.0
H1138 H 0.5933 0.98252 0.71473 0.0
H1139 H 0.57706 1.0015 0.66979 0.0
H1140 H 0.62178 0.07129 0.64451 0.0
H1141 H 0.65259 0.07436 0.68883 0.0
C1142 C 0.65052 0.04217 0.73272 0.0
C1143 C 0.64748 1.02318 0.75345 0.0
C1144 C 0.63338 0.0394 0.70544 0.0
C1145 C 0.62657 1.00147 0.7453 0.0
C1146 C 0.60937 0.9991 0.71899 0.0
C1147 C 0.59377 1.0171 0.67344 0.0
C1148 C 0.59655 0.03612 0.65283 0.0
C1149 C 0.61214 1.01823 0.69903 0.0
C1150 C 0.61867 0.05606 0.65898 0.0
C1151 C 0.63644 0.05792 0.6848 0.0
H1152 H 0.36149 0.36276 0.02699 0.0
H1153 H 0.31916 0.42265 1.00418 0.0
H1154 H 0.3083 0.39959 0.9534 0.0
H1155 H 0.31051 0.36258 0.91513 0.0
H1156 H 0.35588 0.30512 0.93517 0.0
H1157 H 0.36579 0.32678 0.98712 0.0
C1158 C 0.35 0.37074 1.0108 0.0
C1159 C 0.34115 0.39439 0.01945 0.0
C1160 C 0.34423 0.3577 0.98113 0.0
C1161 C 0.3264 0.40464 0.99818 0.0
C1162 C 0.32003 0.39137 0.96909 0.0
C1163 C 0.32241 0.35465 0.93094 0.0
C1164 C 0.33212 0.33203 0.92152 0.0
C1165 C 0.32873 0.36787 0.96032 0.0
C1166 C 0.34804 0.32242 0.94203 0.0
C1167 C 0.35372 0.33483 0.97169 0.0
H1168 H 1.01035 1.00056 0.37713 0.0
H1169 H 0.95887 0.05102 0.39278 0.0
H1170 H 0.97625 0.06059 0.4452 0.0
H1171 H 1.00667 0.05566 0.48681 0.0
H1172 H 0.05626 1.00247 0.47263 0.0
H1173 H 0.03905 0.99278 0.41985 0.0
C1174 C 1.00289 1.01351 0.39208 0.0
C1175 C 0.98336 0.02515 0.38088 0.0
C1176 C 1.01268 1.01848 0.42259 0.0
C1177 C 0.97379 0.04168 0.40066 0.0
C1178 C 0.98379 0.04727 0.43073 0.0
C1179 C 1.01372 0.04194 0.47217 0.0
C1180 C 0.03293 0.03004 0.48369 0.0
C1181 C 1.00334 0.03596 0.44195 0.0
C1182 C 0.0415 1.01189 0.46442 0.0
C1183 C 0.03169 1.00642 0.43418 0.0
H1184 H 0.36572 0.77936 0.67101 0.0
H1185 H 0.39981 0.72675 0.72327 0.0
H1186 H 0.37959 0.7404 0.7638 0.0
H1187 H 0.35138 0.76659 0.78319 0.0
H1188 H 0.31543 0.81597 0.72834 0.0
H1189 H 0.33675 0.80335 0.68907 0.0
C1190 C 0.36928 0.77135 0.69153 0.0
C1191 C 0.38484 0.75281 0.69466 0.0
C1192 C 0.35669 0.77801 0.71368 0.0
C1193 C 0.38837 0.74163 0.72081 0.0
C1194 C 0.37658 0.74912 0.74369 0.0
C1195 C 0.34803 0.77423 0.76247 0.0
C1196 C 0.33201 0.79223 0.75854 0.0
C1197 C 0.36045 0.76702 0.74013 0.0
C1198 C 0.32768 0.80207 0.73172 0.0
C1199 C 0.34001 0.79509 0.70945 0.0
H1200 H 0.62882 0.0401 0.89625 0.0
H1201 H 0.69681 0.03796 0.95 0.0
H1202 H 0.6794 0.04574 0.9944 0.0
H1203 H 0.64402 0.05295 0.02001 0.0
H1204 H 0.57621 0.05462 0.96518 0.0
H1205 H 0.594 0.04757 0.92145 0.0
C1206 C 0.64011 0.04136 0.91756 0.0
C1207 C 0.66481 0.03825 0.91842 0.0
C1208 C 0.62968 0.04593 0.94394 0.0
C1209 C 0.67813 0.04012 0.94729 0.0
C1210 C 0.66795 0.04464 0.97323 0.0
C1211 C 0.63295 0.052 0.99864 0.0
C1212 C 0.60804 0.05475 0.99739 0.0
C1213 C 0.64361 0.04761 0.97224 0.0
C1214 C 0.59502 0.05292 0.96836 0.0
C1215 C 0.60537 0.04874 0.94269 0.0
H1216 H 0.37392 0.36476 0.18716 0.0
H1217 H 0.30785 0.39278 0.16218 0.0
H1218 H 0.29 0.36972 0.19952 0.0
H1219 H 0.29185 0.33824 0.23665 0.0
H1220 H 0.35895 0.31391 0.26543 0.0
H1221 H 0.37779 0.33886 0.2296 0.0
C1222 C 0.35577 0.36621 0.19026 0.0
C1223 C 0.34222 0.38044 0.17167 0.0
C1224 C 0.34573 0.3533 0.21234 0.0
C1225 C 0.31878 0.38222 0.17619 0.0
C1226 C 0.30846 0.36881 0.19743 0.0
C1227 C 0.31071 0.33875 0.23529 0.0
C1228 C 0.32396 0.32405 0.25341 0.0
C1229 C 0.32156 0.3538 0.21521 0.0
C1230 C 0.34842 0.32507 0.25171 0.0
C1231 C 0.35913 0.33926 0.23112 0.0
H1232 H 0.19648 0.94237 0.059 0.0
H1233 H 0.26768 0.99551 0.07052 0.0
H1234 H 0.25679 0.02873 0.10588 0.0
H1235 H 0.22622 0.04455 0.13059 0.0
H1236 H 0.15424 0.99288 0.11728 0.0
H1237 H 0.16664 0.95681 0.08699 0.0
C1238 C 0.20955 0.96123 0.06927 0.0
C1239 C 0.23267 0.96666 0.06181 0.0
C1240 C 0.20321 0.98035 0.08974 0.0
C1241 C 0.24963 0.99094 0.07565 0.0
C1242 C 0.24349 1.00994 0.09601 0.0
C1243 C 0.21336 0.02524 0.12139 0.0
C1244 C 0.18936 1.02163 0.12603 0.0
C1245 C 0.22023 1.00508 0.10286 0.0
C1246 C 0.17298 0.99622 0.11441 0.0
C1247 C 0.17991 0.97569 0.0966 0.0
H1248 H 0.68739 0.67302 0.0453 0.0
H1249 H 0.73255 0.61348 0.03645 0.0
H1250 H 0.69909 0.57657 0.04148 0.0
H1251 H 0.65724 0.56107 0.0493 0.0
H1252 H 0.61321 0.62087 0.0625 0.0
H1253 H 0.64565 0.65755 0.05442 0.0
C1254 C 0.68992 0.65194 0.04416 0.0
C1255 C 0.71266 0.64621 0.04016 0.0
C1256 C 0.67063 0.63074 0.04772 0.0
C1257 C 0.71544 0.61869 0.03931 0.0
C1258 C 0.69624 0.5975 0.04225 0.0
C1259 C 0.65461 0.58211 0.05026 0.0
C1260 C 0.63227 0.58791 0.05566 0.0
C1261 C 0.6738 0.60328 0.0466 0.0
C1262 C 0.6296 0.61545 0.05737 0.0
C1263 C 0.64839 0.63655 0.05306 0.0
H1264 H 0.73442 0.54651 0.3758 0.0
H1265 H 0.6693 0.49159 0.32564 0.0
H1266 H 0.6922 0.45526 0.31692 0.0
H1267 H 0.73186 0.44104 0.3204 0.0
H1268 H 0.79601 0.49664 0.37272 0.0
H1269 H 0.77232 0.53087 0.38372 0.0
C1270 C 0.72518 0.5265 0.36309 0.0
C1271 C 0.70037 0.52176 0.35098 0.0
C1272 C 0.73835 0.50599 0.35839 0.0
C1273 C 0.68845 0.49564 0.33509 0.0
C1274 C 0.70157 0.47499 0.33003 0.0
C1275 C 0.74055 0.46046 0.33458 0.0
C1276 C 0.76585 0.46651 0.34509 0.0
C1277 C 0.72669 0.48015 0.34111 0.0
C1278 C 0.77677 0.49176 0.36356 0.0
C1279 C 0.76321 0.51131 0.37004 0.0
H1280 H 0.82011 0.4327 0.52389 0.0
H1281 H 0.82699 0.36999 0.4551 0.0
H1282 H 0.86977 0.39246 0.45902 0.0
H1283 H 0.90479 0.43068 0.48138 0.0
H1284 H 0.89661 0.49372 0.54897 0.0
H1285 H 0.85459 0.47006 0.54622 0.0
C1286 C 0.83089 0.42381 0.5097 0.0
C1287 C 0.82033 0.3997 0.48918 0.0
C1288 C 0.85521 0.43689 0.51188 0.0
C1289 C 0.83471 0.38843 0.4712 0.0
C1290 C 0.85911 0.40135 0.47334 0.0
C1291 C 0.89375 0.43933 0.49535 0.0
C1292 C 0.90383 0.46398 0.51534 0.0
C1293 C 0.86948 0.42573 0.49346 0.0
C1294 C 0.88941 0.47464 0.53366 0.0
C1295 C 0.86535 0.46122 0.53198 0.0
H1296 H 0.42451 0.17825 0.32853 0.0
H1297 H 0.36337 0.11074 0.29263 0.0
H1298 H 0.33638 0.1432 0.29035 0.0
H1299 H 0.32811 0.19191 0.29866 0.0
H1300 H 0.38897 0.25947 0.33468 0.0
H1301 H 0.41625 0.22726 0.33633 0.0
C1302 C 0.40533 0.17024 0.32001 0.0
C1303 C 0.39698 0.14053 0.31067 0.0
C1304 C 0.38896 0.18986 0.31868 0.0
C1305 C 0.37146 0.13248 0.30007 0.0
C1306 C 0.35555 0.15151 0.29874 0.0
C1307 C 0.34732 0.20002 0.30685 0.0
C1308 C 0.35552 0.22967 0.31647 0.0
C1309 C 0.36374 0.18049 0.30798 0.0
C1310 C 0.38105 0.23781 0.32694 0.0
C1311 C 0.39709 0.21887 0.32796 0.0
H1312 H 0.32627 0.11184 0.55565 0.0
H1313 H 0.36811 0.19505 0.56284 0.0
H1314 H 0.40571 0.17815 0.56946 0.0
H1315 H 0.42714 0.13953 0.57265 0.0
H1316 H 0.3851 0.05629 0.5651 0.0
H1317 H 0.34767 0.0733 0.55895 0.0
C1318 C 0.3436 0.12632 0.55875 0.0
C1319 C 0.34413 0.1548 0.55877 0.0
C1320 C 0.36536 0.11638 0.56232 0.0
C1321 C 0.36693 0.17308 0.5627 0.0
C1322 C 0.38856 0.16339 0.56649 0.0
C1323 C 0.40983 0.12507 0.56983 0.0
C1324 C 0.40928 0.09648 0.56916 0.0
C1325 C 0.38807 0.13505 0.56629 0.0
C1326 C 0.3864 0.07827 0.56519 0.0
C1327 C 0.36483 0.08804 0.56187 0.0
H1328 H 0.73254 0.64487 0.36837 0.0
H1329 H 0.68687 0.70442 0.37134 0.0
H1330 H 0.72088 0.74087 0.36677 0.0
H1331 H 0.76306 0.75543 0.3584 0.0
H1332 H 0.8085 0.69586 0.35678 0.0
H1333 H 0.77506 0.65989 0.36375 0.0
C1334 C 0.72991 0.66582 0.36811 0.0
C1335 C 0.70692 0.67164 0.36995 0.0
C1336 C 0.74942 0.68666 0.36492 0.0
C1337 C 0.70419 0.69911 0.36981 0.0
C1338 C 0.7236 0.72 0.36687 0.0
C1339 C 0.76543 0.73448 0.35912 0.0
C1340 C 0.78799 0.7281 0.35622 0.0
C1341 C 0.74615 0.71393 0.36367 0.0
C1342 C 0.79122 0.70117 0.35859 0.0
C1343 C 0.7721 0.6806 0.3626 0.0
H1344 H 0.92133 0.45572 0.8004 0.0
H1345 H 0.87814 0.5068 0.83899 0.0
H1346 H 0.84944 0.46498 0.84477 0.0
H1347 H 0.83675 0.4126 0.84061 0.0
H1348 H 0.87832 0.36247 0.79716 0.0
H1349 H 0.90668 0.40426 0.79176 0.0
C1350 C 0.90549 0.45794 0.80978 0.0
C1351 C 0.90239 0.48527 0.81913 0.0
C1352 C 0.88847 0.43338 0.81246 0.0
C1353 C 0.88139 0.48674 0.83116 0.0
C1354 C 0.86488 0.46249 0.8347 0.0
C1355 C 0.85192 0.41068 0.8298 0.0
C1356 C 0.855 0.38346 0.81957 0.0
C1357 C 0.86822 0.43548 0.82574 0.0
C1358 C 0.87495 0.38238 0.80536 0.0
C1359 C 0.89143 0.4066 0.80228 0.0
H1360 H 0.11577 0.92064 0.18792 0.0
H1361 H 0.08992 0.86099 0.10864 0.0
H1362 H 0.08239 0.89782 0.08069 0.0
H1363 H 0.08111 0.94715 0.0786 0.0
H1364 H 0.10924 1.00736 0.15692 0.0
H1365 H 0.11807 0.97078 0.18479 0.0
C1366 C 0.1087 0.9157 0.16448 0.0
C1367 C 0.10334 0.88768 0.15068 0.0
C1368 C 0.10478 0.93734 0.1481 0.0
C1369 C 0.09432 0.88207 0.12013 0.0
C1370 C 0.08989 0.90326 0.10399 0.0
C1371 C 0.08945 0.95235 0.10169 0.0
C1372 C 0.09466 0.98034 0.1154 0.0
C1373 C 0.09476 0.93099 0.11771 0.0
C1374 C 0.10544 0.98634 0.14544 0.0
C1375 C 0.11029 0.96524 0.16156 0.0
H1376 H 0.93861 0.30643 0.96236 0.0
H1377 H 0.96495 0.25301 0.90101 0.0
H1378 H 0.92783 0.24882 0.86466 0.0
H1379 H 0.88737 0.25985 0.8503 0.0
H1380 H 0.86251 0.31588 0.91045 0.0
H1381 H 0.89928 0.31937 0.94713 0.0
C1382 C 0.93632 0.29384 0.94103 0.0
C1383 C 0.95476 0.27986 0.93472 0.0
C1384 C 0.91499 0.29191 0.91996 0.0
C1385 C 0.95132 0.26403 0.90668 0.0
C1386 C 0.92996 0.26155 0.88586 0.0
C1387 C 0.88994 0.2728 0.87146 0.0
C1388 C 0.87189 0.28743 0.8776 0.0
C1389 C 0.91158 0.27528 0.89226 0.0
C1390 C 0.8759 0.30437 0.90505 0.0
C1391 C 0.897 0.30636 0.92607 0.0
H1392 H 0.61417 0.23515 0.61278 0.0
H1393 H 0.56402 0.23363 0.67296 0.0
H1394 H 0.55083 0.18312 0.65893 0.0
H1395 H 0.5537 0.13882 0.62914 0.0
H1396 H 0.60557 0.14206 0.57092 0.0
H1397 H 0.6176 0.19211 0.58446 0.0
C1398 C 0.60028 0.22395 0.62293 0.0
C1399 C 0.59009 0.23856 0.64391 0.0
C1400 C 0.59297 0.19492 0.61496 0.0
C1401 C 0.57231 0.22321 0.65683 0.0
C1402 C 0.56469 0.19422 0.6487 0.0
C1403 C 0.56754 0.15052 0.61932 0.0
C1404 C 0.57863 0.13635 0.59888 0.0
C1405 C 0.57486 0.17976 0.62769 0.0
C1406 C 0.59672 0.15206 0.58673 0.0
C1407 C 0.60366 0.18085 0.59446 0.0
H1408 H 0.58006 0.77671 0.39783 0.0
H1409 H 0.61958 0.79574 0.48718 0.0
H1410 H 0.65797 0.79952 0.46955 0.0
H1411 H 0.68083 0.79788 0.42867 0.0
H1412 H 0.64116 0.78098 0.33925 0.0
H1413 H 0.60297 0.77569 0.35695 0.0
C1414 C 0.59704 0.78152 0.41348 0.0
C1415 C 0.59667 0.78582 0.44392 0.0
C1416 C 0.61933 0.78405 0.40313 0.0
C1417 C 0.61907 0.79229 0.46368 0.0
C1418 C 0.64117 0.79449 0.45358 0.0
C1419 C 0.66391 0.79324 0.41294 0.0
C1420 C 0.66438 0.78957 0.38243 0.0
C1421 C 0.64162 0.79059 0.42332 0.0
C1422 C 0.64185 0.7833 0.36277 0.0
C1423 C 0.61977 0.78048 0.37291 0.0
H1424 H 0.98479 0.26973 0.47555 0.0
H1425 H 0.03633 0.24967 0.42244 0.0
H1426 H 1.0279 0.20206 0.43205 0.0
H1427 H 1.01452 0.17109 0.46583 0.0
H1428 H 0.96651 0.19296 0.52304 0.0
H1429 H 0.96431 0.23464 0.5009 0.0
C1430 C 0.99381 0.25479 0.46556 0.0
C1431 C 1.01187 0.26343 0.44932 0.0
C1432 C 0.9896 0.22783 0.47211 0.0
C1433 C 1.02275 0.24368 0.43561 0.0
C1434 C 1.018 0.21646 0.44117 0.0
C1435 C 1.00266 0.18429 0.47248 0.0
C1436 C 0.99113 0.17946 0.49643 0.0
C1437 C 1.00269 0.20891 0.46092 0.0
C1438 C 0.97582 0.19664 0.5049 0.0
C1439 C 0.97478 0.22056 0.49246 0.0
H1440 H 0.66778 0.26242 0.22814 0.0
H1441 H 0.66105 0.31788 0.30326 0.0
H1442 H 0.70491 0.32579 0.32185 0.0
H1443 H 0.74553 0.32041 0.31363 0.0
H1444 H 0.75185 0.26326 0.23953 0.0
H1445 H 0.70763 0.25239 0.22334 0.0
C1446 C 0.67591 0.27561 0.24901 0.0
C1447 C 0.66145 0.28945 0.26453 0.0
C1448 C 0.70099 0.28013 0.25924 0.0
C1449 C 0.67194 0.30672 0.29134 0.0
C1450 C 0.69699 0.31149 0.30168 0.0
C1451 C 0.73712 0.30557 0.29395 0.0
C1452 C 0.75172 0.29309 0.27725 0.0
C1453 C 0.71176 0.29897 0.2853 0.0
C1454 C 0.74082 0.27329 0.25236 0.0
C1455 C 0.71562 0.26708 0.24321 0.0
H1456 H 0.5571 0.91811 0.95748 0.0
H1457 H 0.57768 0.871 0.02516 0.0
H1458 H 0.57844 0.90985 0.06328 0.0
H1459 H 0.57404 0.95808 0.07704 0.0
H1460 H 0.55064 1.00283 1.00798 0.0
H1461 H 0.54963 0.96406 0.971 0.0
C1462 C 0.56199 0.91656 0.98059 0.0
C1463 C 0.56787 0.89227 0.9887 0.0
C1464 C 0.56148 0.93843 1.00219 0.0
C1465 C 0.57342 0.8899 0.01861 0.0
C1466 C 0.57373 0.91198 0.04035 0.0
C1467 C 0.56835 0.95906 0.05394 0.0
C1468 C 0.56251 0.98339 0.04542 0.0
C1469 C 0.56778 0.93643 0.0324 0.0
C1470 C 0.55517 0.9844 1.01534 0.0
C1471 C 0.55476 0.96227 0.99398 0.0
H1472 H 0.03623 0.82195 0.77202 0.0
H1473 H 1.01487 0.73447 0.77353 0.0
H1474 H 0.98047 0.74226 0.79699 0.0
H1475 H 0.95543 0.77437 0.81464 0.0
H1476 H 0.97929 0.86207 0.81504 0.0
H1477 H 1.01404 0.85391 0.79363 0.0
C1478 C 1.02406 0.8046 0.77763 0.0
C1479 C 1.02769 0.77766 0.77078 0.0
C1480 C 1.0049 0.80937 0.79151 0.0
C1481 C 1.01224 0.75536 0.77858 0.0
C1482 C 0.99262 0.75985 0.79188 0.0
C1483 C 0.96842 0.79164 0.81026 0.0
C1484 C 0.96479 0.81881 0.81635 0.0
C1485 C 0.98859 0.78679 0.79811 0.0
C1486 C 0.98181 0.84105 0.81082 0.0
C1487 C 1.00158 0.83638 0.79838 0.0
H1488 H 0.11397 0.06458 0.9117 0.0
H1489 H 0.18393 0.10348 0.96467 0.0
H1490 H 0.16867 0.09331 1.00932 0.0
H1491 H 0.13562 0.07114 0.03343 0.0
H1492 H 0.06692 0.02903 0.97934 0.0
H1493 H 0.08132 0.04245 0.93544 0.0
C1494 C 0.12575 0.07124 0.93306 0.0
C1495 C 0.15 0.08512 0.93481 0.0
C1496 C 0.1171 0.06434 0.95859 0.0
C1497 C 0.16515 0.09297 0.96268 0.0
C1498 C 0.15645 0.08703 0.98825 0.0
C1499 C 0.1239 0.06495 1.012 0.0
C1500 C 0.10029 0.0489 1.00964 0.0
C1501 C 0.13253 0.07234 0.98651 0.0
C1502 C 0.08526 0.04108 0.98172 0.0
C1503 C 0.09345 0.04887 0.95657 0.0
H1504 H 0.76399 0.3835 0.58541 0.0
H1505 H 0.72628 0.30163 0.54154 0.0
H1506 H 0.73848 0.28233 0.5858 0.0
H1507 H 0.76407 0.28799 0.63452 0.0
H1508 H 0.80343 0.36946 0.67731 0.0
H1509 H 0.78633 0.38974 0.63581 0.0
C1510 C 0.75791 0.36154 0.58574 0.0
C1511 C 0.74454 0.34396 0.56016 0.0
C1512 C 0.76571 0.35046 0.61082 0.0
C1513 C 0.73682 0.31554 0.56092 0.0
C1514 C 0.74391 0.30446 0.58612 0.0
C1515 C 0.76887 0.31017 0.63465 0.0
C1516 C 0.78525 0.32721 0.6585 0.0
C1517 C 0.75917 0.32158 0.61072 0.0
C1518 C 0.79091 0.35599 0.65898 0.0
C1519 C 0.78117 0.36756 0.63532 0.0
H1520 H 0.45337 0.07179 0.42542 0.0
H1521 H 0.50614 0.0716 0.36858 0.0
H1522 H 0.5363 0.06656 0.40924 0.0
H1523 H 0.54945 0.06217 0.46131 0.0
H1524 H 0.49852 0.06097 0.52016 0.0
H1525 H 0.4671 0.06636 0.47958 0.0
C1526 C 0.47143 0.07068 0.42174 0.0
C1527 C 0.4767 0.0723 0.39263 0.0
C1528 C 0.4896 0.06741 0.44619 0.0
C1529 C 0.50068 0.07055 0.3897 0.0
C1530 C 0.51833 0.06762 0.41336 0.0
C1531 C 0.5315 0.06302 0.46561 0.0
C1532 C 0.52705 0.06105 0.49473 0.0
C1533 C 0.51323 0.06601 0.44177 0.0
C1534 C 0.50318 0.06227 0.49867 0.0
C1535 C 0.48497 0.06544 0.47508 0.0
H1536 H 0.82266 0.72833 0.14445 0.0
H1537 H 0.74691 0.73155 0.12916 0.0
H1538 H 0.74985 0.74918 0.18098 0.0
H1539 H 0.77405 0.76521 0.23069 0.0
H1540 H 0.85032 0.76411 0.24609 0.0
H1541 H 0.84709 0.74457 0.19477 0.0
C1542 C 0.80679 0.73256 0.15262 0.0
C1543 C 0.78459 0.7285 0.13292 0.0
C1544 C 0.80872 0.74348 0.1826 0.0
C1545 C 0.76425 0.73452 0.14381 0.0
C1546 C 0.7659 0.7447 0.17348 0.0
C1547 C 0.79 0.76079 0.22287 0.0
C1548 C 0.81237 0.76625 0.24252 0.0
C1549 C 0.7881 0.74962 0.19307 0.0
C1550 C 0.83279 0.76024 0.2317 0.0
C1551 C 0.83099 0.74894 0.20222 0.0
H1552 H 0.11206 0.11338 0.77166 0.0
H1553 H 0.15122 0.04755 0.77074 0.0
H1554 H 0.13588 0.03375 0.71775 0.0
H1555 H 0.11113 0.04052 0.67122 0.0
H1556 H 0.07372 0.10799 0.67306 0.0
H1557 H 0.08847 0.12075 0.72582 0.0
C1558 C 0.1173 0.09598 0.75998 0.0
C1559 C 0.1328 0.08154 0.77544 0.0
C1560 C 0.10864 0.08836 0.72944 0.0
C1561 C 0.13944 0.05919 0.75958 0.0
C1562 C 0.13059 0.05121 0.7292 0.0
C1563 C 0.10616 0.05796 0.68319 0.0
C1564 C 0.09123 0.07321 0.66792 0.0
C1565 C 0.11512 0.06563 0.71383 0.0
C1566 C 0.0852 0.09588 0.68395 0.0
C1567 C 0.09363 0.10323 0.71426 0.0
H1568 H 0.73107 0.34366 0.42064 0.0
H1569 H 0.77092 0.42719 0.42365 0.0
H1570 H 0.79917 0.40962 0.3959 0.0
H1571 H 0.81544 0.37006 0.37664 0.0
H1572 H 0.77823 0.28687 0.37961 0.0
H1573 H 0.74674 0.30465 0.40097 0.0
C1574 C 0.74563 0.3581 0.41465 0.0
C1575 C 0.74921 0.3866 0.42474 0.0
C1576 C 0.7629 0.34779 0.40107 0.0
C1577 C 0.7678 0.40512 0.41628 0.0
C1578 C 0.78427 0.39504 0.40097 0.0
C1579 C 0.80055 0.35597 0.38229 0.0
C1580 C 0.79929 0.32735 0.3773 0.0
C1581 C 0.78261 0.36639 0.39452 0.0
C1582 C 0.77987 0.30906 0.3843 0.0
C1583 C 0.76167 0.31918 0.39588 0.0
H1584 H 0.50731 0.05679 0.24906 0.0
H1585 H 0.44099 0.07585 0.20731 0.0
H1586 H 0.45627 0.07416 0.16036 0.0
H1587 H 0.48952 0.06631 0.12942 0.0
H1588 H 0.55476 0.04758 0.17545 0.0
H1589 H 0.5388 0.04986 0.22053 0.0
C1590 C 0.49571 0.06073 0.23 0.0
C1591 C 0.4724 0.06656 0.23338 0.0
C1592 C 0.5047 0.05952 0.20266 0.0
C1593 C 0.45882 0.07154 0.20703 0.0
C1594 C 0.46773 0.07036 0.1796 0.0
C1595 C 0.50035 0.06252 0.14915 0.0
C1596 C 0.52408 0.05649 0.14743 0.0
C1597 C 0.49077 0.06415 0.17674 0.0
C1598 C 0.53692 0.05219 0.17449 0.0
C1599 C 0.52764 0.05353 0.20095 0.0
H1600 H 0.78952 0.75608 0.99745 0.0
H1601 H 0.78861 0.67686 0.94793 0.0
H1602 H 0.79471 0.69884 0.90469 0.0
H1603 H 0.80249 0.74115 0.88135 0.0
H1604 H 0.80474 0.82043 0.93167 0.0
H1605 H 0.7959 0.79798 0.97376 0.0
C1606 C 0.79038 0.74352 0.97713 0.0
C1607 C 0.78854 0.71471 0.97615 0.0
C1608 C 0.79432 0.75643 0.95234 0.0
C1609 C 0.78991 0.69898 0.94951 0.0
C1610 C 0.79348 0.7116 0.9247 0.0
C1611 C 0.80085 0.75349 0.90145 0.0
C1612 C 0.80437 0.78257 0.90324 0.0
C1613 C 0.79604 0.74039 0.9259 0.0
C1614 C 0.80222 0.79812 0.92958 0.0
C1615 C 0.79717 0.78525 0.95374 0.0
H1616 H 0.88552 0.09539 0.10085 0.0
H1617 H 0.95171 0.1572 0.11022 0.0
H1618 H 0.97019 0.12347 0.08464 0.0
H1619 H 0.96637 0.07799 0.05673 0.0
H1620 H 0.90021 1.01596 0.04513 0.0
H1621 H 0.8824 0.04849 0.07425 0.0
C1622 C 0.90417 0.10119 0.09785 0.0
C1623 C 0.91741 0.12852 0.10742 0.0
C1624 C 0.91426 0.08204 0.08206 0.0
C1625 C 0.94135 0.13615 0.10304 0.0
C1626 C 0.95178 0.11702 0.08821 0.0
C1627 C 0.94788 0.07177 0.06009 0.0
C1628 C 0.93425 0.04509 0.04812 0.0
C1629 C 0.93813 0.09026 0.07691 0.0
C1630 C 0.91074 0.03671 0.05369 0.0
C1631 C 0.90071 0.05517 0.07045 0.0
H1632 H 0.44601 0.4326 0.09005 0.0
H1633 H 0.40624 0.49598 0.10892 0.0
H1634 H 0.4417 0.53164 0.10674 0.0
H1635 H 0.48341 0.54494 0.09745 0.0
H1636 H 0.52322 0.48195 0.07844 0.0
H1637 H 0.48852 0.44614 0.08287 0.0
C1638 C 0.44501 0.45421 0.0939 0.0
C1639 C 0.4231 0.46134 0.09961 0.0
C1640 C 0.46558 0.47474 0.09249 0.0
C1641 C 0.42257 0.48962 0.10455 0.0
C1642 C 0.44293 0.51009 0.10321 0.0
C1643 C 0.48464 0.52337 0.09442 0.0
C1644 C 0.50617 0.51628 0.08752 0.0
C1645 C 0.46443 0.50291 0.09689 0.0
C1646 C 0.5072 0.48818 0.08379 0.0
C1647 C 0.48718 0.46766 0.08625 0.0
H1648 H 0.40013 0.56146 0.76418 0.0
H1649 H 0.466 0.61269 0.81733 0.0
H1650 H 0.44579 0.65135 0.82352 0.0
H1651 H 0.40818 0.66892 0.8184 0.0
H1652 H 0.34256 0.6179 0.76434 0.0
H1653 H 0.36388 0.58095 0.75416 0.0
C1654 C 0.41019 0.58122 0.77671 0.0
C1655 C 0.43447 0.58404 0.7905 0.0
C1656 C 0.39839 0.60334 0.78044 0.0
C1657 C 0.44727 0.60987 0.80651 0.0
C1658 C 0.43568 0.632 0.81022 0.0
C1659 C 0.39863 0.64998 0.80389 0.0
C1660 C 0.37362 0.64609 0.7927 0.0
C1661 C 0.41105 0.62874 0.79795 0.0
C1662 C 0.36162 0.62125 0.77399 0.0
C1663 C 0.37384 0.60011 0.76797 0.0
H1664 H 0.31348 0.66123 0.62907 0.0
H1665 H 0.29212 0.72757 0.58687 0.0
H1666 H 0.24938 0.70704 0.58601 0.0
H1667 H 0.21824 0.67032 0.59786 0.0
H1668 H 0.24055 0.60472 0.64042 0.0
H1669 H 0.283 0.62504 0.64052 0.0
C1670 C 0.29955 0.67126 0.61951 0.0
C1671 C 0.30602 0.6959 0.60798 0.0
C1672 C 0.27523 0.65948 0.6192 0.0
C1673 C 0.28765 0.70863 0.59597 0.0
C1674 C 0.26323 0.69688 0.59542 0.0
C1675 C 0.23244 0.6604 0.60688 0.0
C1676 C 0.22636 0.63608 0.61911 0.0
C1677 C 0.25683 0.6723 0.60701 0.0
C1678 C 0.24486 0.62358 0.63113 0.0
C1679 C 0.26908 0.63513 0.63111 0.0
H1680 H 0.70178 0.92074 0.83697 0.0
H1681 H 0.76307 0.98731 0.8394 0.0
H1682 H 0.78952 0.95434 0.83824 0.0
H1683 H 0.79726 0.90549 0.83639 0.0
H1684 H 0.7362 0.83827 0.83195 0.0
H1685 H 0.70948 0.87119 0.83388 0.0
C1686 C 0.72089 0.92844 0.83725 0.0
C1687 C 0.72945 0.95813 0.83842 0.0
C1688 C 0.73692 0.90842 0.83616 0.0
C1689 C 0.75482 0.96568 0.83855 0.0
C1690 C 0.77043 0.94634 0.83789 0.0
C1691 C 0.77814 0.89761 0.83589 0.0
C1692 C 0.76973 0.86789 0.83402 0.0
C1693 C 0.76203 0.91742 0.8367 0.0
C1694 C 0.74428 0.85998 0.83324 0.0
C1695 C 0.72858 0.87933 0.83443 0.0
H1696 H 0.79838 0.99225 0.61583 0.0
H1697 H 0.75742 0.9085 0.5862 0.0
H1698 H 0.71977 0.92505 0.57858 0.0
H1699 H 0.69828 0.96356 0.57727 0.0
H1700 H 0.73911 0.04733 0.60761 0.0
H1701 H 0.77646 0.03058 0.61764 0.0
C1702 C 0.78121 0.97756 0.60807 0.0
C1703 C 0.78099 0.94907 0.60163 0.0
C1704 C 0.75936 0.98729 0.60343 0.0
C1705 C 0.75838 0.93051 0.59141 0.0
C1706 C 0.73671 0.93999 0.58692 0.0
C1707 C 0.71524 0.9782 0.58647 0.0
C1708 C 0.71556 1.00686 0.59116 0.0
C1709 C 0.73693 0.96838 0.59242 0.0
C1710 C 0.73805 0.02526 0.60297 0.0
C1711 C 0.75956 1.01566 0.60896 0.0
H1712 H 0.4013 0.44804 0.77926 0.0
H1713 H 0.4526 0.41726 0.83794 0.0
H1714 H 0.42009 0.38068 0.84525 0.0
H1715 H 0.37656 0.35891 0.83749 0.0
H1716 H 0.3255 0.38763 0.77675 0.0
H1717 H 0.35818 0.42363 0.76827 0.0
C1718 C 0.40542 0.43324 0.79349 0.0
C1719 C 0.42949 0.4357 0.80809 0.0
C1720 C 0.38656 0.41194 0.79755 0.0
C1721 C 0.43436 0.41606 0.82631 0.0
C1722 C 0.41571 0.3951 0.83067 0.0
C1723 C 0.37266 0.37262 0.82195 0.0
C1724 C 0.34859 0.37038 0.80771 0.0
C1725 C 0.39168 0.39302 0.81672 0.0
C1726 C 0.34385 0.38885 0.78808 0.0
C1727 C 0.36256 0.40948 0.78318 0.0
H1728 H 0.2098 0.64607 0.36987 0.0
H1729 H 0.24964 0.59453 0.32538 0.0
H1730 H 0.27781 0.63626 0.31827 0.0
H1731 H 0.29108 0.68883 0.32323 0.0
H1732 H 0.25156 0.73897 0.37027 0.0
H1733 H 0.22427 0.69734 0.37761 0.0
C1734 C 0.22475 0.64364 0.35881 0.0
C1735 C 0.22703 0.61618 0.34833 0.0
C1736 C 0.24134 0.66814 0.35504 0.0
C1737 C 0.24695 0.61463 0.33411 0.0
C1738 C 0.26319 0.63885 0.32983 0.0
C1739 C 0.2766 0.69082 0.33524 0.0
C1740 C 0.27407 0.71813 0.3463 0.0
C1741 C 0.26059 0.66597 0.33994 0.0
C1742 C 0.25484 0.71913 0.36181 0.0
C1743 C 0.23885 0.69494 0.36589 0.0
H1744 H 0.50691 0.69551 0.53579 0.0
H1745 H 0.56951 0.71633 0.49536 0.0
H1746 H 0.58375 0.67595 0.51039 0.0
H1747 H 0.57932 0.63508 0.53652 0.0
H1748 H 0.5151 0.61189 0.57325 0.0
H1749 H 0.50074 0.65234 0.55828 0.0
C1750 C 0.52359 0.69116 0.53003 0.0
C1751 C 0.53709 0.70939 0.5144 0.0
C1752 C 0.53153 0.66732 0.53832 0.0
C1753 C 0.55857 0.70291 0.50711 0.0
C1754 C 0.56684 0.67977 0.5159 0.0
C1755 C 0.56217 0.63886 0.54128 0.0
C1756 C 0.5485 0.62038 0.55643 0.0
C1757 C 0.55364 0.66192 0.53178 0.0
C1758 C 0.52608 0.62554 0.56176 0.0
C1759 C 0.51787 0.64882 0.5532 0.0
H1760 H 0.66983 0.29256 0.72897 0.0
H1761 H 0.6945 0.37518 0.71145 0.0
H1762 H 0.73399 0.37851 0.74283 0.0
H1763 H 0.76196 0.35786 0.77555 0.0
H1764 H 0.73879 0.27354 0.78906 0.0
H1765 H 0.69879 0.27084 0.75922 0.0
C1766 C 0.68376 0.31141 0.73241 0.0
C1767 C 0.67888 0.33392 0.71844 0.0
C1768 C 0.70695 0.31275 0.74966 0.0
C1769 C 0.69751 0.3578 0.72233 0.0
C1770 C 0.7202 0.35963 0.74018 0.0
C1771 C 0.74819 0.33884 0.77177 0.0
C1772 C 0.75351 0.31595 0.78467 0.0
C1773 C 0.72523 0.33723 0.75394 0.0
C1774 C 0.73541 0.29142 0.77932 0.0
C1775 C 0.71238 0.28993 0.76236 0.0
H1776 H 0.04682 0.37666 0.97647 0.0
H1777 H 1.01481 0.34362 0.04596 0.0
H1778 H 1.01786 0.39095 0.07093 0.0
H1779 H 0.03103 0.44264 0.07361 0.0
H1780 H 0.06584 0.47361 1.00497 0.0
H1781 H 0.0602 0.42664 0.97928 0.0
C1782 C 0.04032 0.37966 0.997 0.0
C1783 C 0.03044 0.35636 1.00912 0.0
C1784 C 0.04271 0.40688 1.01154 0.0
C1785 C 1.02247 0.361 0.036 0.0
C1786 C 1.02423 0.38817 0.05031 0.0
C1787 C 0.03717 0.43902 0.05293 0.0
C1788 C 0.0488 0.46185 0.04123 0.0
C1789 C 0.03448 0.41142 0.0384 0.0
C1790 C 0.05693 0.45661 1.01458 0.0
C1791 C 0.0537 0.42966 0.99979 0.0
H1792 H 1.01808 0.81123 0.19316 0.0
H1793 H 0.06972 0.812 0.27174 0.0
H1794 H 0.03708 0.80526 0.29971 0.0
H1795 H 0.99381 0.79895 0.30248 0.0
H1796 H 0.94157 0.79783 0.22443 0.0
H1797 H 0.97417 0.8045 0.19599 0.0
C1798 C 1.02219 0.80991 0.21639 0.0
C1799 C 0.04655 0.8122 0.23015 0.0
C1800 C 1.00309 0.80585 0.23263 0.0
C1801 C 0.05131 0.81034 0.26035 0.0
C1802 C 0.03258 0.80648 0.2765 0.0
C1803 C 0.98947 0.8004 0.2793 0.0
C1804 C 0.96503 0.79791 0.26584 0.0
C1805 C 1.00839 0.80425 0.26296 0.0
C1806 C 0.96003 0.79935 0.23553 0.0
C1807 C 0.97876 0.80334 0.2192 0.0
H1808 H 0.5566 0.35632 0.24262 0.0
H1809 H 0.6322 0.35706 0.24386 0.0
H1810 H 0.63642 0.3982 0.21963 0.0
H1811 H 0.61619 0.42603 0.18823 0.0
H1812 H 0.53931 0.42114 0.18158 0.0
H1813 H 0.53788 0.39017 0.21844 0.0
C1814 C 0.57417 0.36641 0.23873 0.0
C1815 C 0.59412 0.3542 0.2449 0.0
C1816 C 0.57598 0.38886 0.22325 0.0
C1817 C 0.61678 0.36661 0.23939 0.0
C1818 C 0.61907 0.38983 0.22527 0.0
C1819 C 0.59926 0.41858 0.19539 0.0
C1820 C 0.57777 0.42507 0.18182 0.0
C1821 C 0.59843 0.39994 0.21549 0.0
C1822 C 0.55601 0.41609 0.19163 0.0
C1823 C 0.55518 0.39827 0.21251 0.0
H1824 H 0.98668 0.32922 0.37474 0.0
H1825 H 0.98423 0.40475 0.42897 0.0
H1826 H 0.94224 0.40125 0.40475 0.0
H1827 H 0.90448 0.37289 0.37316 0.0
H1828 H 0.90699 0.29522 0.32277 0.0
H1829 H 0.95047 0.30326 0.34055 0.0
C1830 C 0.97725 0.34541 0.38061 0.0
C1831 C 0.98852 0.36719 0.40357 0.0
C1832 C 0.9528 0.34243 0.36781 0.0
C1833 C 0.9759 0.38777 0.41127 0.0
C1834 C 0.95182 0.38562 0.39765 0.0
C1835 C 0.91466 0.35794 0.36592 0.0
C1836 C 0.90246 0.33328 0.34719 0.0
C1837 C 0.93976 0.3624 0.37676 0.0
C1838 C 0.91584 0.31408 0.33778 0.0
C1839 C 0.94077 0.31873 0.34774 0.0
H1840 H 0.06413 0.72592 0.61863 0.0
H1841 H 0.05806 0.69206 0.69886 0.0
H1842 H 0.05194 0.64531 0.67192 0.0
H1843 H 0.05314 0.61491 0.62715 0.0
H1844 H 0.05901 0.64815 0.54672 0.0
H1845 H 0.06096 0.69476 0.5725 0.0
C1846 C 0.06108 0.70831 0.6302 0.0
C1847 C 0.06193 0.71255 0.66086 0.0
C1848 C 0.05819 0.68159 0.61474 0.0
C1849 C 0.05752 0.68946 0.67534 0.0
C1850 C 0.05432 0.66273 0.66001 0.0
C1851 C 0.05483 0.63233 0.6152 0.0
C1852 C 0.05644 0.62833 0.58522 0.0
C1853 C 0.05552 0.65872 0.62999 0.0
C1854 C 0.05804 0.65092 0.56988 0.0
C1855 C 0.05906 0.67745 0.58458 0.0
H1856 H 0.59215 0.81673 0.85094 0.0
H1857 H 0.62144 0.79864 0.93593 0.0
H1858 H 0.65371 0.78213 0.91592 0.0
H1859 H 0.67394 0.77288 0.8748 0.0
H1860 H 0.6464 0.79155 0.78969 0.0
H1861 H 0.61331 0.80797 0.80919 0.0
C1862 C 0.6056 0.80912 0.86499 0.0
C1863 C 0.6043 0.80887 0.89488 0.0
C1864 C 0.62445 0.79978 0.85336 0.0
C1865 C 0.62196 0.79913 0.91287 0.0
C1866 C 0.64046 0.78962 0.90146 0.0
C1867 C 0.66053 0.78025 0.86041 0.0
C1868 C 0.66236 0.78064 0.83079 0.0
C1869 C 0.64186 0.78981 0.8718 0.0
C1870 C 0.64528 0.79098 0.8126 0.0
C1871 C 0.62637 0.80031 0.82373 0.0
H1872 H 0.52723 0.49389 0.72956 0.0
H1873 H 0.4754 0.54595 0.71773 0.0
H1874 H 0.49241 0.56171 0.67602 0.0
H1875 H 0.52536 0.56443 0.64602 0.0
H1876 H 0.57759 0.51329 0.66095 0.0
H1877 H 0.55695 0.4933 0.69761 0.0
C1878 C 0.5194 0.5085 0.71778 0.0
C1879 C 0.50019 0.51888 0.72723 0.0
C1880 C 0.52948 0.51777 0.69414 0.0
C1881 C 0.49024 0.53758 0.7112 0.0
C1882 C 0.50005 0.54673 0.68732 0.0
C1883 C 0.53181 0.54849 0.65691 0.0
C1884 C 0.55307 0.54041 0.65076 0.0
C1885 C 0.52013 0.5375 0.67898 0.0
C1886 C 0.56135 0.51992 0.66526 0.0
C1887 C 0.5496 0.50853 0.6864 0.0
H1888 H 0.85604 0.24695 0.08574 0.0
H1889 H 0.83487 0.16691 0.03071 0.0
H1890 H 0.80896 0.18563 0.99475 0.0
H1891 H 0.79594 0.22601 0.97718 0.0
H1892 H 0.81825 0.30581 0.03267 0.0
H1893 H 0.8389 0.28532 0.07142 0.0
C1894 C 0.84554 0.23337 0.06619 0.0
C1895 C 0.8476 0.20568 0.06072 0.0
C1896 C 0.83056 0.24412 0.04603 0.0
C1897 C 0.83377 0.18843 0.0352 0.0
C1898 C 0.81889 0.19907 1.01476 0.0
C1899 C 0.80491 0.23873 0.99804 0.0
C1900 C 0.80593 0.2674 1.00197 0.0
C1901 C 0.81759 0.22705 0.01971 0.0
C1902 C 0.81715 0.28367 0.02918 0.0
C1903 C 0.8293 0.27206 0.05115 0.0
H1904 H 0.16681 0.5586 0.2393 0.0
H1905 H 0.12297 0.48595 0.26064 0.0
H1906 H 0.09405 0.48172 0.2147 0.0
H1907 H 0.07833 0.50099 0.16969 0.0
H1908 H 0.12379 0.57067 0.14518 0.0
H1909 H 0.15421 0.5734 0.18978 0.0
C1910 C 0.15156 0.54101 0.23344 0.0
C1911 C 0.14822 0.52192 0.25404 0.0
C1912 C 0.13461 0.53846 0.20604 0.0
C1913 C 0.12722 0.50036 0.24561 0.0
C1914 C 0.1102 0.4982 0.21917 0.0
C1915 C 0.09511 0.5165 0.17359 0.0
C1916 C 0.0982 0.53561 0.15309 0.0
C1917 C 0.11326 0.51742 0.19934 0.0
C1918 C 0.12042 0.5554 0.15956 0.0
C1919 C 0.13797 0.55707 0.18553 0.0
H1920 H 0.85623 0.85878 0.53044 0.0
H1921 H 0.81451 0.91701 0.5008 0.0
H1922 H 0.80627 0.89216 0.45063 0.0
H1923 H 0.81053 0.85373 0.415 0.0
H1924 H 0.85544 0.79798 0.4428 0.0
H1925 H 0.8627 0.82172 0.49376 0.0
C1926 C 0.84546 0.86606 0.51292 0.0
C1927 C 0.83594 0.88968 0.51939 0.0
C1928 C 0.84119 0.85194 0.48383 0.0
C1929 C 0.82217 0.89901 0.49644 0.0
C1930 C 0.81731 0.88471 0.46773 0.0
C1931 C 0.82173 0.84664 0.4323 0.0
C1932 C 0.83208 0.82386 0.42535 0.0
C1933 C 0.82658 0.86107 0.46119 0.0
C1934 C 0.84711 0.81534 0.44775 0.0
C1935 C 0.8513 0.82896 0.47683 0.0
H1936 H 0.51528 0.50281 0.87407 0.0
H1937 H 0.45988 0.54612 0.89404 0.0
H1938 H 0.4777 0.55411 0.94611 0.0
H1939 H 0.50925 0.54987 0.98607 0.0
H1940 H 0.56381 0.50469 0.96807 0.0
H1941 H 0.54595 0.49597 0.91543 0.0
C1942 C 0.50711 0.51386 0.8899 0.0
C1943 C 0.48631 0.52395 0.88008 0.0
C1944 C 0.51724 0.51798 0.92022 0.0
C1945 C 0.47579 0.53802 0.9009 0.0
C1946 C 0.48601 0.54269 0.93075 0.0
C1947 C 0.51728 0.5381 0.97066 0.0
C1948 C 0.538 0.52821 0.98096 0.0
C1949 C 0.50677 0.53293 0.94065 0.0
C1950 C 0.54785 0.51253 0.96073 0.0
C1951 C 0.53769 0.50765 0.9306 0.0
H1952 H 0.89598 0.27586 0.16795 0.0
H1953 H 0.90018 0.20892 0.21817 0.0
H1954 H 0.88009 0.23085 0.25431 0.0
H1955 H 0.85849 0.26714 0.26909 0.0
H1956 H 0.84848 0.32862 0.21326 0.0
H1957 H 0.87318 0.31002 0.18098 0.0
C1958 C 0.89267 0.26591 0.18681 0.0
C1959 C 0.89925 0.24045 0.19002 0.0
C1960 C 0.87955 0.27732 0.206 0.0
C1961 C 0.89521 0.22842 0.21505 0.0
C1962 C 0.88351 0.24079 0.23553 0.0
C1963 C 0.86139 0.2761 0.24958 0.0
C1964 C 0.85148 0.29892 0.24324 0.0
C1965 C 0.87494 0.26476 0.23067 0.0
C1966 C 0.8557 0.31081 0.21828 0.0
C1967 C 0.86998 0.30036 0.20003 0.0
H1968 H 0.12672 0.53404 0.3964 0.0
H1969 H 0.19634 0.54053 0.4511 0.0
H1970 H 0.17866 0.54908 0.49515 0.0
H1971 H 0.14265 0.55466 0.52031 0.0
H1972 H 0.07299 0.54657 0.46473 0.0
H1973 H 0.09103 0.53909 0.4212 0.0
C1974 C 0.13832 0.53736 0.41783 0.0
C1975 C 0.16361 0.53649 0.41901 0.0
C1976 C 0.12767 0.54218 0.44408 0.0
C1977 C 0.17723 0.54088 0.44808 0.0
C1978 C 0.16689 0.54587 0.47385 0.0
C1979 C 0.1312 0.55148 0.4988 0.0
C1980 C 0.10569 0.55171 0.49731 0.0
C1981 C 0.142 0.54663 0.47254 0.0
C1982 C 0.09224 0.54694 0.46811 0.0
C1983 C 0.10276 0.54251 0.44255 0.0
H1984 H 0.84907 0.83524 0.65887 0.0
H1985 H 0.8319 0.9128 0.69053 0.0
H1986 H 0.82177 0.8944 0.73468 0.0
H1987 H 0.81667 0.85526 0.76388 0.0
H1988 H 0.83211 0.77759 0.72943 0.0
H1989 H 0.84421 0.79715 0.68713 0.0
C1990 C 0.84326 0.84839 0.67539 0.0
C1991 C 0.84142 0.8756 0.67112 0.0
C1992 C 0.83713 0.83754 0.70043 0.0
C1993 C 0.83357 0.89188 0.69298 0.0
C1994 C 0.82777 0.88131 0.71832 0.0
C1995 C 0.82288 0.84275 0.74719 0.0
C1996 C 0.82352 0.81489 0.74991 0.0
C1997 C 0.82934 0.85406 0.72226 0.0
C1998 C 0.83138 0.79895 0.72792 0.0
C1999 C 0.8383 0.81015 0.70366 0.0
H2000 H 0.7562 0.48211 0.56034 0.0
H2001 H 0.68366 0.43176 0.53233 0.0
H2002 H 0.66791 0.4653 0.56241 0.0
H2003 H 0.67452 0.50995 0.59417 0.0
H2004 H 0.74648 0.5618 0.61964 0.0
H2005 H 0.76296 0.52626 0.59322 0.0
C2006 C 0.73694 0.47839 0.56089 0.0
C2007 C 0.72106 0.45457 0.54407 0.0
C2008 C 0.72805 0.49787 0.57788 0.0
C2009 C 0.69619 0.45005 0.54495 0.0
C2010 C 0.68721 0.46914 0.5622 0.0
C2011 C 0.69392 0.51313 0.59454 0.0
C2012 C 0.70944 0.5381 0.60917 0.0
C2013 C 0.70297 0.49318 0.57852 0.0
C2014 C 0.73436 0.54251 0.60877 0.0
C2015 C 0.74368 0.52233 0.59354 0.0
H2016 H 0.18722 0.17496 0.56091 0.0
H2017 H 0.21961 0.11282 0.51976 0.0
H2018 H 0.1836 0.07709 0.52058 0.0
H2019 H 0.14284 0.06334 0.53346 0.0
H2020 H 0.11241 0.12516 0.57854 0.0
H2021 H 0.1475 0.16107 0.57552 0.0
C2022 C 0.18642 0.15363 0.5519 0.0
C2023 C 0.2062 0.14679 0.53992 0.0
C2024 C 0.16587 0.13307 0.55315 0.0
C2025 C 0.20481 0.11884 0.529 0.0
C2026 C 0.18414 0.09837 0.52946 0.0
C2027 C 0.1438 0.08471 0.5425 0.0
C2028 C 0.12466 0.09152 0.55586 0.0
C2029 C 0.16454 0.10521 0.5415 0.0
C2030 C 0.12658 0.11928 0.56787 0.0
C2031 C 0.14674 0.13984 0.56622 0.0
H2032 H 0.2339 0.04617 0.87949 0.0
H2033 H 0.17021 0.99068 0.8268 0.0
H2034 H 0.19337 0.95407 0.82131 0.0
H2035 H 0.23283 0.93961 0.82899 0.0
H2036 H 0.2952 0.99554 0.88474 0.0
H2037 H 0.2714 0.03047 0.89131 0.0
C2038 C 0.22505 0.02598 0.86688 0.0
C2039 C 0.20062 1.02107 0.85315 0.0
C2040 C 0.2383 1.00534 0.86418 0.0
C2041 C 0.18909 0.99479 0.83744 0.0
C2042 C 0.20235 0.97401 0.83425 0.0
C2043 C 0.24112 0.95927 0.84294 0.0
C2044 C 0.26601 0.96515 0.85572 0.0
C2045 C 0.22713 0.97925 0.84717 0.0
C2046 C 0.27637 0.99075 0.87378 0.0
C2047 C 0.26272 1.0107 0.8778 0.0
H2048 H 0.32271 0.95022 0.02222 0.0
H2049 H 0.3323 0.8832 0.96027 0.0
H2050 H 0.37373 0.90861 0.96046 0.0
H2051 H 0.40696 0.95014 0.97856 0.0
H2052 H 0.39541 1.01688 0.03925 0.0
H2053 H 0.3546 0.99101 0.03912 0.0
C2054 C 0.33371 0.94095 1.00861 0.0
C2055 C 0.32438 0.91476 0.99124 0.0
C2056 C 0.35707 0.95566 1.00861 0.0
C2057 C 0.3391 0.90323 0.97399 0.0
C2058 C 0.3627 0.91781 0.97401 0.0
C2059 C 0.39537 0.95911 0.99147 0.0
C2060 C 0.40418 0.98538 1.00897 0.0
C2061 C 0.37182 0.94411 0.9912 0.0
C2062 C 0.38915 0.99659 0.02592 0.0
C2063 C 0.36582 0.98187 0.02578 0.0
H2064 H 0.92559 0.68014 0.83088 0.0
H2065 H 0.8641 0.61258 0.7968 0.0
H2066 H 0.8371 0.64502 0.79567 0.0
H2067 H 0.82893 0.69363 0.80439 0.0
H2068 H 0.89017 0.76157 0.83776 0.0
H2069 H 0.91743 0.72926 0.83871 0.0
C2070 C 0.90633 0.67213 0.82301 0.0
C2071 C 0.89788 0.6424 0.81384 0.0
C2072 C 0.88996 0.69176 0.82222 0.0
C2073 C 0.87227 0.63433 0.80405 0.0
C2074 C 0.85635 0.65334 0.8034 0.0
C2075 C 0.84821 0.70179 0.81191 0.0
C2076 C 0.85649 0.73149 0.82098 0.0
C2077 C 0.86464 0.68233 0.81244 0.0
C2078 C 0.88214 0.73981 0.83043 0.0
C2079 C 0.89818 0.72084 0.83106 0.0
H2080 H 0.83193 0.61715 0.06802 0.0
H2081 H 0.87406 0.69714 0.06147 0.0
H2082 H 0.9111 0.67894 0.06674 0.0
H2083 H 0.93189 0.63994 0.07311 0.0
H2084 H 0.88911 0.56003 0.07906 0.0
H2085 H 0.85245 0.57849 0.07419 0.0
C2086 C 0.84922 0.6307 0.06791 0.0
C2087 C 0.85002 0.65861 0.06444 0.0
C2088 C 0.87056 0.62002 0.07079 0.0
C2089 C 0.87272 0.67564 0.06419 0.0
C2090 C 0.894 0.66519 0.06713 0.0
C2091 C 0.91454 0.6265 0.07314 0.0
C2092 C 0.91358 0.59854 0.07675 0.0
C2093 C 0.89319 0.63734 0.07032 0.0
C2094 C 0.89074 0.58168 0.07688 0.0
C2095 C 0.86961 0.59221 0.07395 0.0
H2096 H 0.19474 0.19083 0.84058 0.0
H2097 H 0.23376 0.15349 0.9059 0.0
H2098 H 0.27168 0.18586 0.90459 0.0
H2099 H 0.29438 0.22342 0.88249 0.0
H2100 H 0.25538 0.2557 0.81249 0.0
H2101 H 0.21726 0.22709 0.81793 0.0
C2102 C 0.21147 0.1902 0.85493 0.0
C2103 C 0.21138 0.17015 0.87367 0.0
C2104 C 0.23341 0.20801 0.85304 0.0
C2105 C 0.23335 0.16898 0.8915 0.0
C2106 C 0.25507 0.18739 0.89064 0.0
C2107 C 0.2775 0.22428 0.86862 0.0
C2108 C 0.27774 0.24248 0.84773 0.0
C2109 C 0.25546 0.20675 0.8711 0.0
C2110 C 0.25571 0.24288 0.82957 0.0
C2111 C 0.23382 0.22623 0.83243 0.0
H2112 H 0.42124 0.95386 0.29764 0.0
H2113 H 0.37911 1.0047 0.33876 0.0
H2114 H 0.3512 0.96276 0.34582 0.0
H2115 H 0.33896 0.91031 0.34206 0.0
H2116 H 0.37943 0.86047 0.29621 0.0
H2117 H 0.40695 0.90238 0.28955 0.0
C2118 C 0.4058 0.95602 0.30785 0.0
C2119 C 0.40278 0.98334 0.31749 0.0
C2120 C 0.38923 0.93138 0.31132 0.0
C2121 C 0.38228 0.98468 0.33064 0.0
C2122 C 0.36623 0.96035 0.33493 0.0
C2123 C 0.3537 0.90846 0.33046 0.0
C2124 C 0.35672 0.88126 0.31993 0.0
C2125 C 0.36952 0.93336 0.32567 0.0
C2126 C 0.37611 0.88033 0.3047 0.0
C2127 C 0.39212 0.90463 0.30087 0.0
H2128 H 0.6254 0.42049 0.68506 0.0
H2129 H 0.57877 0.36218 0.61319 0.0
H2130 H 0.57225 0.39997 0.58628 0.0
H2131 H 0.57812 0.45004 0.58352 0.0
H2132 H 0.62785 0.50855 0.65254 0.0
H2133 H 0.63498 0.47075 0.6796 0.0
C2134 C 0.61395 0.41606 0.66343 0.0
C2135 C 0.60245 0.38824 0.65143 0.0
C2136 C 0.61082 0.43813 0.64734 0.0
C2137 C 0.58793 0.38314 0.62314 0.0
C2138 C 0.5841 0.40486 0.60765 0.0
C2139 C 0.5908 0.45455 0.60429 0.0
C2140 C 0.60235 0.48238 0.61583 0.0
C2141 C 0.59525 0.4325 0.61955 0.0
C2142 C 0.6188 0.48751 0.64281 0.0
C2143 C 0.62275 0.46579 0.6585 0.0
H2144 H 0.44265 0.80665 0.46633 0.0
H2145 H 0.4689 0.75378 0.40432 0.0
H2146 H 0.43144 0.74919 0.36848 0.0
H2147 H 0.39075 0.75966 0.35469 0.0
H2148 H 0.36571 0.81507 0.41531 0.0
H2149 H 0.40289 0.81905 0.4516 0.0
C2150 C 0.44027 0.7941 0.44497 0.0
C2151 C 0.45883 0.7804 0.43834 0.0
C2152 C 0.41871 0.79194 0.42414 0.0
C2153 C 0.45522 0.76459 0.41026 0.0
C2154 C 0.43366 0.76189 0.38971 0.0
C2155 C 0.39337 0.77262 0.37586 0.0
C2156 C 0.37515 0.78693 0.38222 0.0
C2157 C 0.4152 0.77536 0.39641 0.0
C2158 C 0.37923 0.80386 0.4097 0.0
C2159 C 0.40056 0.8061 0.4305 0.0
H2160 H 0.11661 0.73519 0.1147 0.0
H2161 H 0.06626 0.73336 0.17463 0.0
H2162 H 0.05307 0.68283 0.16028 0.0
H2163 H 0.05595 0.63865 0.13009 0.0
H2164 H 0.10803 0.64244 0.07213 0.0
H2165 H 0.12009 0.69241 0.08614 0.0
C2166 C 0.10268 0.72392 0.12473 0.0
C2167 C 0.09242 0.73843 0.14572 0.0
C2168 C 0.09536 0.69495 0.11655 0.0
C2169 C 0.0746 0.723 0.15851 0.0
C2170 C 0.06697 0.69402 0.15018 0.0
C2171 C 0.06983 0.65046 0.12043 0.0
C2172 C 0.08098 0.63648 0.09991 0.0
C2173 C 0.07718 0.67967 0.12909 0.0
C2174 C 0.09914 0.65231 0.08798 0.0
C2175 C 0.1061 0.68105 0.09599 0.0
H2176 H 0.07713 0.27375 0.89795 0.0
H2177 H 0.11499 0.30242 0.98737 0.0
H2178 H 0.15382 0.30955 0.97079 0.0
H2179 H 0.17748 0.30867 0.93083 0.0
H2180 H 0.13968 0.28078 0.84123 0.0
H2181 H 0.10097 0.27216 0.85794 0.0
C2182 C 0.09387 0.28137 0.91385 0.0
C2183 C 0.09289 0.28749 0.94398 0.0
C2184 C 0.11642 0.28563 0.90411 0.0
C2185 C 0.11495 0.29747 0.96409 0.0
C2186 C 0.1373 0.30163 0.9546 0.0
C2187 C 0.16082 0.30082 0.91486 0.0
C2188 C 0.16189 0.29534 0.88467 0.0
C2189 C 0.13832 0.29602 0.92463 0.0
C2190 C 0.13982 0.28483 0.86461 0.0
C2191 C 0.11749 0.28003 0.87415 0.0
H2192 H 0.48081 0.75145 0.95199 0.0
H2193 H 0.54373 0.74309 0.91411 0.0
H2194 H 0.5371 0.69439 0.92004 0.0
H2195 H 0.52162 0.66048 0.94984 0.0
H2196 H 0.46233 0.67142 0.99369 0.0
H2197 H 0.45865 0.71233 0.97072 0.0
C2198 C 0.49266 0.73873 0.94429 0.0
C2199 C 0.51333 0.75098 0.93391 0.0
C2200 C 0.48948 0.71125 0.94916 0.0
C2201 C 0.52802 0.73421 0.92288 0.0
C2202 C 0.52432 0.7064 0.92642 0.0
C2203 C 0.50709 0.67099 0.95321 0.0
C2204 C 0.49274 0.66363 0.97408 0.0
C2205 C 0.50629 0.69546 0.94163 0.0
C2206 C 0.47387 0.6772 0.97812 0.0
C2207 C 0.47197 0.70072 0.96525 0.0
H2208 H 0.16102 0.80455 0.78595 0.0
H2209 H 0.1587 0.73255 0.72358 0.0
H2210 H 0.20075 0.73216 0.74469 0.0
H2211 H 0.23969 0.75622 0.77664 0.0
H2212 H 0.24244 0.83136 0.83516 0.0
H2213 H 0.19896 0.82669 0.82002 0.0
C2214 C 0.16956 0.78826 0.77779 0.0
C2215 C 0.15691 0.76827 0.75383 0.0
C2216 C 0.19403 0.78918 0.78892 0.0
C2217 C 0.16817 0.74777 0.74249 0.0
C2218 C 0.19224 0.74778 0.75432 0.0
C2219 C 0.23068 0.77135 0.78627 0.0
C2220 C 0.24434 0.7942 0.80675 0.0
C2221 C 0.20563 0.76899 0.77684 0.0
C2222 C 0.23244 0.81371 0.81905 0.0
C2223 C 0.20751 0.81105 0.81051 0.0
H2224 H 0.06964 0.38749 0.51872 0.0
H2225 H 0.07727 0.42887 0.44341 0.0
H2226 H 0.07843 0.47313 0.47306 0.0
H2227 H 0.07546 0.49906 0.51892 0.0
H2228 H 0.07058 0.45999 0.59602 0.0
H2229 H 0.06981 0.41508 0.56677 0.0
C2230 C 0.07174 0.40628 0.50893 0.0
C2231 C 0.07322 0.40504 0.47892 0.0
C2232 C 0.07257 0.43165 0.52618 0.0
C2233 C 0.07616 0.4294 0.46645 0.0
C2234 C 0.07667 0.45462 0.48332 0.0
C2235 C 0.07425 0.48088 0.52956 0.0
C2236 C 0.07279 0.48275 0.55953 0.0
C2237 C 0.07454 0.45581 0.51299 0.0
C2238 C 0.07157 0.45893 0.57291 0.0
C2239 C 0.07118 0.43339 0.55622 0.0
H2240 H 0.5012 0.25657 0.24373 0.0
H2241 H 0.54927 0.26765 0.32737 0.0
H2242 H 0.51751 0.28032 0.35261 0.0
H2243 H 0.47851 0.29589 0.34974 0.0
H2244 H 0.43141 0.28529 0.2652 0.0
H2245 H 0.46038 0.26513 0.24154 0.0
C2246 C 0.50447 0.26092 0.26758 0.0
C2247 C 0.52758 0.26135 0.28364 0.0
C2248 C 0.4865 0.26912 0.28172 0.0
C2249 C 0.53157 0.26694 0.3145 0.0
C2250 C 0.51351 0.27463 0.3289 0.0
C2251 C 0.47441 0.2887 0.32623 0.0
C2252 C 0.4531 0.29294 0.30918 0.0
C2253 C 0.49129 0.27703 0.31259 0.0
C2254 C 0.44802 0.28323 0.27875 0.0
C2255 C 0.46449 0.27145 0.26519 0.0
H2256 H 0.66745 0.57242 0.4565 0.0
H2257 H 0.60816 0.59466 0.40163 0.0
H2258 H 0.58228 0.58441 0.43744 0.0
H2259 H 0.57533 0.56648 0.4827 0.0
H2260 H 0.63386 0.54443 0.53872 0.0
H2261 H 0.66109 0.55726 0.50436 0.0
C2262 C 0.64898 0.57539 0.45258 0.0
C2263 C 0.63981 0.58421 0.42614 0.0
C2264 C 0.63392 0.56919 0.47339 0.0
C2265 C 0.61576 0.58783 0.42156 0.0
C2266 C 0.60086 0.58188 0.44205 0.0
C2267 C 0.59408 0.56453 0.48747 0.0
C2268 C 0.60246 0.55421 0.5131 0.0
C2269 C 0.60956 0.57205 0.46772 0.0
C2270 C 0.6269 0.5522 0.51911 0.0
C2271 C 0.64246 0.55952 0.49941 0.0
H2272 H 0.25434 0.81573 0.05522 0.0
H2273 H 0.2705 0.90061 0.09882 0.0
H2274 H 0.28665 0.88629 0.14472 0.0
H2275 H 0.29978 0.85068 0.17091 0.0
H2276 H 0.28271 0.76563 0.12781 0.0
H2277 H 0.26411 0.7794 0.08271 0.0
C2278 C 0.26108 0.83108 0.07478 0.0
C2279 C 0.2615 0.85923 0.07343 0.0
C2280 C 0.27075 0.82288 0.10095 0.0
C2281 C 0.27005 0.87878 0.09917 0.0
C2282 C 0.27948 0.87071 0.1254 0.0
C2283 C 0.29163 0.83502 0.15186 0.0
C2284 C 0.29285 0.80721 0.15269 0.0
C2285 C 0.2805 0.84293 0.12627 0.0
C2286 C 0.28255 0.7873 0.12757 0.0
C2287 C 0.27164 0.79508 0.10188 0.0
H2288 H 1.00258 0.56438 0.88457 0.0
H2289 H 0.94285 0.58102 0.9243 0.0
H2290 H 0.96487 0.57652 0.97271 0.0
H2291 H 1.00272 0.5684 1.00584 0.0
H2292 H 0.06135 0.55172 0.96319 0.0
H2293 H 0.03868 0.55549 0.91613 0.0
C2294 C 0.99413 0.56703 0.90365 0.0
C2295 C 0.97051 0.57319 0.8996 0.0
C2296 C 1.00711 0.56431 0.93207 0.0
C2297 C 0.96068 0.57632 0.92562 0.0
C2298 C 0.97349 0.57371 0.9538 0.0
C2299 C 1.01059 0.56532 0.98637 0.0
C2300 C 0.03459 0.55963 0.98957 0.0
C2301 C 0.99697 0.56772 0.95773 0.0
C2302 C 0.04349 0.55615 0.96291 0.0
C2303 C 0.03034 0.55834 0.93527 0.0
H2304 H 0.25984 0.24685 0.6357 0.0
H2305 H 0.32006 0.20599 0.64116 0.0
H2306 H 0.33258 0.22524 0.69376 0.0
H2307 H 0.32681 0.25519 0.73781 0.0
H2308 H 0.26569 0.29478 0.73061 0.0
H2309 H 0.2534 0.27486 0.6788 0.0
C2310 C 0.27575 0.24204 0.64829 0.0
C2311 C 0.28913 0.22517 0.63439 0.0
C2312 C 0.28282 0.25326 0.67815 0.0
C2313 C 0.30939 0.21882 0.6513 0.0
C2314 C 0.31664 0.23002 0.6813 0.0
C2315 C 0.31092 0.25959 0.72479 0.0
C2316 C 0.29728 0.27667 0.73806 0.0
C2317 C 0.30364 0.24759 0.69489 0.0
C2318 C 0.27651 0.28178 0.72102 0.0
C2319 C 0.26943 0.27035 0.69138 0.0
H2320 H 0.61802 0.61636 0.26591 0.0
H2321 H 0.65202 0.54635 0.26815 0.0
H2322 H 0.63795 0.53258 0.21491 0.0
H2323 H 0.61494 0.53999 0.16763 0.0
H2324 H 0.58286 0.61161 0.16631 0.0
H2325 H 0.59712 0.625 0.21911 0.0
C2326 C 0.62244 0.59809 0.25482 0.0
C2327 C 0.63595 0.58233 0.27117 0.0
C2328 C 0.61451 0.59049 0.22424 0.0
C2329 C 0.64173 0.55894 0.2562 0.0
C2330 C 0.63357 0.55098 0.22573 0.0
C2331 C 0.61109 0.55852 0.17892 0.0
C2332 C 0.59772 0.57468 0.16287 0.0
C2333 C 0.61976 0.56649 0.20951 0.0
C2334 C 0.59314 0.59878 0.17791 0.0
C2335 C 0.60126 0.60648 0.20821 0.0
H2336 H 0.22073 0.85712 0.92629 0.0
H2337 H 0.27666 0.93123 0.93759 0.0
H2338 H 0.30174 0.90542 0.91244 0.0
H2339 H 0.31101 0.85967 0.89795 0.0
H2340 H 0.25438 0.78607 0.88499 0.0
H2341 H 0.22686 0.81336 0.90226 0.0
C2342 C 0.23789 0.86788 0.92189 0.0
C2343 C 0.24714 0.89574 0.93448 0.0
C2344 C 0.25264 0.85263 0.90877 0.0
C2345 C 0.26918 0.90969 0.9283 0.0
C2346 C 0.28383 0.89474 0.9146 0.0
C2347 C 0.2924 0.84987 0.8976 0.0
C2348 C 0.28474 0.82103 0.88973 0.0
C2349 C 0.27633 0.86589 0.90647 0.0
C2350 C 0.26087 0.80825 0.89123 0.0
C2351 C 0.24498 0.82388 0.90068 0.0
H2352 H 1.00967 0.55923 0.75379 0.0
H2353 H 0.94186 0.57391 0.71094 0.0
H2354 H 0.95659 0.57081 0.66371 0.0
H2355 H 0.98968 0.56291 0.63273 0.0
H2356 H 0.05698 0.54969 0.67944 0.0
H2357 H 0.04152 0.55294 0.72502 0.0
C2358 C 0.9977 0.56198 0.73441 0.0
C2359 C 0.97409 0.56703 0.73758 0.0
C2360 C 1.00646 0.56008 0.70683 0.0
C2361 C 0.95995 0.57036 0.71083 0.0
C2362 C 0.96854 0.56833 0.68323 0.0
C2363 C 1.00108 0.56049 0.65272 0.0
C2364 C 1.02518 0.55561 0.65105 0.0
C2365 C 0.99187 0.56296 0.68054 0.0
C2366 C 0.03879 0.55326 0.67846 0.0
C2367 C 0.0298 0.55519 0.70519 0.0
H2368 H 0.28654 0.1917 0.44739 0.0
H2369 H 0.2785 0.25882 0.51019 0.0
H2370 H 0.28551 0.29095 0.47555 0.0
H2371 H 0.29668 0.30123 0.4283 0.0
H2372 H 0.30326 0.23413 0.36459 0.0
H2373 H 0.29403 0.2013 0.39818 0.0
C2374 C 0.28598 0.21325 0.45333 0.0
C2375 C 0.28214 0.22264 0.48163 0.0
C2376 C 0.28998 0.23195 0.43305 0.0
C2377 C 0.28148 0.25079 0.48874 0.0
C2378 C 0.28559 0.26936 0.4689 0.0
C2379 C 0.29585 0.27939 0.42169 0.0
C2380 C 0.30077 0.27034 0.39392 0.0
C2381 C 0.29031 0.26037 0.44116 0.0
C2382 C 0.29949 0.24184 0.38573 0.0
C2383 C 0.29428 0.22294 0.40504 0.0
H2384 H 0.43972 0.65501 0.60683 0.0
H2385 H 0.39355 0.61553 0.66128 0.0
H2386 H 0.40645 0.57199 0.64902 0.0
H2387 H 0.4281 0.54433 0.61874 0.0
H2388 H 0.47026 0.58423 0.56055 0.0
H2389 H 0.46115 0.62837 0.57772 0.0
C2390 C 0.43291 0.6371 0.61665 0.0
C2391 C 0.41592 0.63842 0.6351 0.0
C2392 C 0.43907 0.61201 0.608 0.0
C2393 C 0.40686 0.61493 0.64718 0.0
C2394 C 0.41398 0.59003 0.63989 0.0
C2395 C 0.43505 0.56272 0.60978 0.0
C2396 C 0.44932 0.56102 0.58799 0.0
C2397 C 0.42948 0.58812 0.61953 0.0
C2398 C 0.4586 0.58494 0.57671 0.0
C2399 C 0.45371 0.61025 0.5868 0.0
H2400 H 0.94065 0.93079 0.58707 0.0
H2401 H 0.89966 0.99297 0.6058 0.0
H2402 H 0.93467 0.0293 0.60378 0.0
H2403 H 0.97652 0.0436 0.59522 0.0
H2404 H 1.01776 0.98185 0.57677 0.0
H2405 H 0.98316 0.94527 0.58022 0.0
C2406 C 0.93928 0.95228 0.59088 0.0
C2407 C 0.91718 0.95888 0.59657 0.0
C2408 C 0.95962 0.97321 0.58964 0.0
C2409 C 0.91616 0.98701 0.60146 0.0
C2410 C 0.93626 1.00788 0.60022 0.0
C2411 C 0.97804 1.02212 0.59204 0.0
C2412 C 0.99988 1.01556 0.58567 0.0
C2413 C 0.958 1.00124 0.59409 0.0
C2414 C 1.00137 0.9876 0.58174 0.0
C2415 C 0.98148 0.96666 0.58366 0.0
H2416 H 0.95652 0.10974 0.32233 0.0
H2417 H 0.91303 0.06277 0.2412 0.0
H2418 H 0.88967 0.09871 0.23643 0.0
H2419 H 0.87882 0.14091 0.25785 0.0
H2420 H 0.91991 0.186 0.34125 0.0
H2421 H 0.94719 0.15388 0.34227 0.0
C2422 C 0.94231 0.10777 0.30329 0.0
C2423 C 0.93648 0.0837 0.28214 0.0
C2424 C 0.92831 0.12807 0.30125 0.0
C2425 C 0.91779 0.08113 0.25779 0.0
C2426 C 0.90436 0.1016 0.25511 0.0
C2427 C 0.89373 0.14374 0.27629 0.0
C2428 C 0.89705 0.16573 0.29957 0.0
C2429 C 0.90894 0.12471 0.27719 0.0
C2430 C 0.91691 0.16942 0.32288 0.0
C2431 C 0.93247 0.15091 0.32362 0.0
H2432 H 0.81402 0.14058 0.13057 0.0
H2433 H 0.80185 0.22035 0.16433 0.0
H2434 H 0.76042 0.19861 0.16802 0.0
H2435 H 0.72694 0.15748 0.15816 0.0
H2436 H 0.73886 0.07839 0.12215 0.0
H2437 H 0.78134 0.09948 0.12266 0.0
C2438 C 0.80249 0.15326 0.13916 0.0
C2439 C 0.81103 0.18209 0.14714 0.0
C2440 C 0.77863 0.14078 0.14049 0.0
C2441 C 0.79569 0.19814 0.15793 0.0
C2442 C 0.77201 0.18573 0.15998 0.0
C2443 C 0.73897 0.14482 0.15085 0.0
C2444 C 0.7299 0.11645 0.14015 0.0
C2445 C 0.76318 0.15716 0.1508 0.0
C2446 C 0.74548 0.10031 0.13026 0.0
C2447 C 0.76972 0.11233 0.13064 0.0
H2448 H 0.20177 0.41862 0.33553 0.0
H2449 H 0.26355 0.48581 0.34273 0.0
H2450 H 0.29009 0.45292 0.34151 0.0
H2451 H 0.29781 0.40389 0.33823 0.0
H2452 H 0.23614 0.33616 0.32846 0.0
H2453 H 0.20945 0.36903 0.33083 0.0
C2454 C 0.22101 0.4265 0.33688 0.0
C2455 C 0.22965 0.45636 0.33943 0.0
C2456 C 0.23712 0.40651 0.33569 0.0
C2457 C 0.25521 0.46407 0.34081 0.0
C2458 C 0.27088 0.44475 0.34012 0.0
C2459 C 0.27856 0.39586 0.33666 0.0
C2460 C 0.27005 0.36599 0.33328 0.0
C2461 C 0.2624 0.41568 0.33756 0.0
C2462 C 0.24441 0.35798 0.33113 0.0
C2463 C 0.22867 0.3773 0.33249 0.0
H2464 H 0.30271 0.49497 0.11826 0.0
H2465 H 0.263 0.41224 0.08031 0.0
H2466 H 0.22519 0.42838 0.0732 0.0
H2467 H 0.20325 0.46638 0.075 0.0
H2468 H 0.2425 0.54901 0.11416 0.0
H2469 H 0.28011 0.53259 0.12316 0.0
C2470 C 0.28576 0.48041 0.10872 0.0
C2471 C 0.28596 0.45235 0.09981 0.0
C2472 C 0.26378 0.48989 0.10452 0.0
C2473 C 0.26365 0.43393 0.08742 0.0
C2474 C 0.24188 0.44317 0.08324 0.0
C2475 C 0.21989 0.48081 0.08593 0.0
C2476 C 0.21973 0.50911 0.09342 0.0
C2477 C 0.24169 0.47117 0.09134 0.0
C2478 C 0.24184 0.52728 0.10736 0.0
C2479 C 0.2635 0.51785 0.11276 0.0
H2480 H 0.93681 0.91968 0.33914 0.0
H2481 H 0.90155 0.94875 0.26388 0.0
H2482 H 0.8646 0.91353 0.26158 0.0
H2483 H 0.84169 0.87468 0.28191 0.0
H2484 H 0.87658 0.84964 0.36011 0.0
H2485 H 0.914 0.88245 0.36002 0.0
C2486 C 0.92114 0.91816 0.32202 0.0
C2487 C 0.92212 0.93676 0.3016 0.0
C2488 C 0.89973 0.89834 0.32129 0.0
C2489 C 0.9014 0.93472 0.27991 0.0
C2490 C 0.88019 0.91456 0.27858 0.0
C2491 C 0.85753 0.87642 0.29882 0.0
C2492 C 0.8565 0.85892 0.3204 0.0
C2493 C 0.87902 0.89633 0.29932 0.0
C2494 C 0.87709 0.86185 0.34247 0.0
C2495 C 0.8985 0.88096 0.3427 0.0
H2496 H 0.71203 0.14717 0.87339 0.0
H2497 H 0.74635 0.09664 0.81908 0.0
H2498 H 0.77353 0.13863 0.81088 0.0
H2499 H 0.78718 0.19115 0.81752 0.0
H2500 H 0.75428 0.24035 0.87534 0.0
H2501 H 0.72773 0.1984 0.88341 0.0
C2502 C 0.7256 0.14504 0.85997 0.0
C2503 C 0.72664 0.11781 0.84703 0.0
C2504 C 0.74171 0.16968 0.85565 0.0
C2505 C 0.74476 0.11656 0.82978 0.0
C2506 C 0.76038 0.14094 0.82487 0.0
C2507 C 0.77432 0.19285 0.83204 0.0
C2508 C 0.77315 0.21994 0.84553 0.0
C2509 C 0.759 0.16786 0.8374 0.0
C2510 C 0.75614 0.22062 0.86442 0.0
C2511 C 0.74069 0.19628 0.86909 0.0
loop_
_geom_bond_atom_site_label_1
_geom_bond_atom_site_label_2
_geom_bond_distance
_geom_bond_site_symmetry_2
_ccdc_geom_bond_type
Co0 O1 2.216 . S
Co0 O2 2.091 . S
Co0 O4 2.004 1_455 S
Co0 O10 2.021 . S
Co0 O12 2.137 . S
Co0 O13 2.244 . S
O1 Co0 2.216 . S
O1 C8 1.247 . S
O2 Co0 2.091 . S
O2 C8 1.261 . S
C3 O12 1.247 . S
C3 O13 1.272 . S
O4 Co0 2.004 1_655 S
O4 C9 1.259 . S
Co5 O6 2.061 . S
Co5 O11 2.052 . S
Co5 O13 2.135 1_655 S
O6 Co5 2.061 . S
O6 C9 1.235 . S
C7 O10 1.223 1_655 S
C7 O11 1.273 . S
C8 O1 1.247 . S
C8 O2 1.261 . S
C9 O4 1.259 . S
C9 O6 1.235 . S
O10 Co0 2.021 . S
O10 C7 1.223 1_455 S
O11 Co5 2.052 . S
O11 C7 1.273 . S
O12 Co0 2.137 . S
O12 C3 1.247 . S
O13 Co0 2.244 . S
O13 C3 1.272 . S
O13 Co5 2.135 1_455 S
Co14 O15 2.216 . S
Co14 O16 2.091 . S
Co14 O18 2.004 . S
Co14 O24 2.021 . S
Co14 O26 2.137 . S
Co14 O27 2.244 . S
O15 Co14 2.216 . S
O15 C22 1.247 . S
O16 Co14 2.091 . S
O16 C22 1.261 . S
C17 O26 1.247 . S
C17 O27 1.272 . S
O18 Co14 2.004 . S
O18 C23 1.259 . S
Co19 O20 2.061 . S
Co19 O25 2.052 . S
Co19 O27 2.135 . S
O20 Co19 2.061 . S
O20 C23 1.235 . S
C21 O24 1.238 . S
C21 O25 1.241 . S
C22 O15 1.247 . S
C22 O16 1.261 . S
C23 O18 1.259 . S
C23 O20 1.235 . S
O24 Co14 2.021 . S
O24 C21 1.238 . S
O25 Co19 2.052 . S
O25 C21 1.241 . S
O26 Co14 2.137 . S
O26 C17 1.247 . S
O27 Co14 2.244 . S
O27 C17 1.272 . S
O27 Co19 2.135 . S
Co28 O29 2.216 . S
Co28 O30 2.091 . S
Co28 O32 2.004 . S
Co28 O38 2.021 . S
Co28 O40 2.137 . S
Co28 O41 2.244 . S
O29 Co28 2.216 . S
O29 C36 1.247 . S
O30 Co28 2.091 . S
O30 C36 1.261 . S
C31 O40 1.247 . S
C31 O41 1.272 . S
O32 Co28 2.004 . S
O32 C37 1.259 . S
Co33 O34 2.061 . S
Co33 O39 2.052 . S
Co33 O41 2.135 . S
O34 Co33 2.061 . S
O34 C37 1.235 . S
C35 O38 1.238 . S
C35 O39 1.241 . S
C36 O29 1.247 . S
C36 O30 1.261 . S
C37 O32 1.259 . S
C37 O34 1.235 . S
O38 Co28 2.021 . S
O38 C35 1.238 . S
O39 Co33 2.052 . S
O39 C35 1.241 . S
O40 Co28 2.137 . S
O40 C31 1.247 . S
O41 Co28 2.244 . S
O41 C31 1.272 . S
O41 Co33 2.135 . S
Co42 O43 2.216 . S
Co42 O44 2.091 . S
Co42 O46 2.004 . S
Co42 O52 2.021 . S
Co42 O54 2.137 . S
Co42 O55 2.244 . S
O43 Co42 2.216 . S
O43 C50 1.247 . S
O44 Co42 2.091 . S
O44 C50 1.261 . S
C45 O54 1.247 . S
C45 O55 1.272 . S
O46 Co42 2.004 . S
O46 C51 1.259 . S
Co47 O48 2.061 . S
Co47 O53 2.052 . S
Co47 O55 2.135 . S
O48 Co47 2.061 . S
O48 C51 1.235 . S
C49 O52 1.238 . S
C49 O53 1.241 . S
C50 O43 1.247 . S
C50 O44 1.261 . S
C51 O46 1.259 . S
C51 O48 1.235 . S
O52 Co42 2.021 . S
O52 C49 1.238 . S
O53 Co47 2.052 . S
O53 C49 1.241 . S
O54 Co42 2.137 . S
O54 C45 1.247 . S
O55 Co42 2.244 . S
O55 C45 1.272 . S
O55 Co47 2.135 . S
Co56 O57 2.216 . S
Co56 O58 2.091 . S
Co56 O60 2.004 . S
Co56 O66 2.021 . S
Co56 O68 2.137 . S
Co56 O69 2.244 . S
O57 Co56 2.216 . S
O57 C64 1.247 . S
O58 Co56 2.091 . S
O58 C64 1.261 . S
C59 O68 1.247 . S
C59 O69 1.272 . S
O60 Co56 2.004 . S
O60 C65 1.259 . S
Co61 O62 2.061 . S
Co61 O67 2.052 . S
Co61 O69 2.135 . S
O62 Co61 2.061 . S
O62 C65 1.235 . S
C63 O66 1.238 . S
C63 O67 1.241 . S
C64 O57 1.247 . S
C64 O58 1.261 . S
C65 O60 1.259 . S
C65 O62 1.235 . S
O66 Co56 2.021 . S
O66 C63 1.238 . S
O67 Co61 2.052 . S
O67 C63 1.241 . S
O68 Co56 2.137 . S
O68 C59 1.247 . S
O69 Co56 2.244 . S
O69 C59 1.272 . S
O69 Co61 2.135 . S
Co70 O71 2.216 . S
Co70 O72 2.091 . S
Co70 O74 2.004 . S
Co70 O80 2.021 . S
Co70 O82 2.137 . S
Co70 O83 2.244 . S
O71 Co70 2.216 . S
O71 C78 1.247 . S
O72 Co70 2.091 . S
O72 C78 1.261 . S
C73 O82 1.247 . S
C73 O83 1.272 . S
O74 Co70 2.004 . S
O74 C79 1.259 . S
Co75 O76 2.061 . S
Co75 O81 2.052 . S
Co75 O83 2.135 . S
O76 Co75 2.061 . S
O76 C79 1.235 . S
C77 O80 1.238 . S
C77 O81 1.241 . S
C78 O71 1.247 . S
C78 O72 1.261 . S
C79 O74 1.259 . S
C79 O76 1.235 . S
O80 Co70 2.021 . S
O80 C77 1.238 . S
O81 Co75 2.052 . S
O81 C77 1.241 . S
O82 Co70 2.137 . S
O82 C73 1.247 . S
O83 Co70 2.244 . S
O83 C73 1.272 . S
O83 Co75 2.135 . S
Co84 O85 2.216 . S
Co84 O86 2.091 . S
Co84 O88 2.004 . S
Co84 O94 2.021 . S
Co84 O96 2.137 . S
Co84 O97 2.244 . S
O85 Co84 2.216 . S
O85 C92 1.247 . S
O86 Co84 2.091 . S
O86 C92 1.261 . S
C87 O96 1.247 . S
C87 O97 1.272 . S
O88 Co84 2.004 . S
O88 C93 1.259 . S
Co89 O90 2.061 . S
Co89 O95 2.052 . S
Co89 O97 2.135 . S
O90 Co89 2.061 . S
O90 C93 1.235 . S
C91 O94 1.238 . S
C91 O95 1.241 . S
C92 O85 1.247 . S
C92 O86 1.261 . S
C93 O88 1.259 . S
C93 O90 1.235 . S
O94 Co84 2.021 . S
O94 C91 1.238 . S
O95 Co89 2.052 . S
O95 C91 1.241 . S
O96 Co84 2.137 . S
O96 C87 1.247 . S
O97 Co84 2.244 . S
O97 C87 1.272 . S
O97 Co89 2.135 . S
Co98 O99 2.216 . S
Co98 O100 2.091 . S
Co98 O102 2.004 1_455 S
Co98 O108 2.021 . S
Co98 O110 2.137 . S
Co98 O111 2.244 . S
O99 Co98 2.216 . S
O99 C106 1.247 . S
O100 Co98 2.091 . S
O100 C106 1.261 . S
C101 O110 1.247 . S
C101 O111 1.272 . S
O102 Co98 2.004 1_655 S
O102 C107 1.259 . S
Co103 O104 2.061 1_554 S
Co103 O109 2.020 1_655 S
Co103 O111 2.135 1_654 S
O104 Co103 2.061 1_556 S
O104 C107 1.235 . S
C105 O108 1.238 . S
C105 O109 1.269 1_556 S
C106 O99 1.247 . S
C106 O100 1.261 . S
C107 O102 1.259 . S
C107 O104 1.235 . S
O108 Co98 2.021 . S
O108 C105 1.238 . S
O109 Co103 2.020 1_455 S
O109 C105 1.269 1_554 S
O110 Co98 2.137 . S
O110 C101 1.247 . S
O111 Co98 2.244 . S
O111 C101 1.272 . S
O111 Co103 2.135 1_456 S
Co112 O113 2.216 . S
Co112 O114 2.091 . S
Co112 O116 2.004 1_545 S
Co112 O122 2.021 . S
Co112 O124 2.137 . S
Co112 O125 2.244 . S
O113 Co112 2.216 . S
O113 C120 1.247 . S
O114 Co112 2.091 . S
O114 C120 1.261 . S
C115 O124 1.247 . S
C115 O125 1.272 . S
O116 Co112 2.004 1_565 S
O116 C121 1.259 . S
Co117 O118 2.061 . S
Co117 O123 2.052 1_565 S
Co117 O125 2.135 1_565 S
O118 Co117 2.061 . S
O118 C121 1.235 . S
C119 O122 1.238 . S
C119 O123 1.241 . S
C120 O113 1.247 . S
C120 O114 1.261 . S
C121 O116 1.259 . S
C121 O118 1.235 . S
O122 Co112 2.021 . S
O122 C119 1.238 . S
O123 Co117 2.052 1_545 S
O123 C119 1.241 . S
O124 Co112 2.137 . S
O124 C115 1.247 . S
O125 Co112 2.244 . S
O125 C115 1.272 . S
O125 Co117 2.135 1_545 S
Co126 O127 2.216 . S
Co126 O128 2.091 . S
Co126 O130 2.004 . S
Co126 O136 2.021 . S
Co126 O138 2.137 . S
Co126 O139 2.244 . S
O127 Co126 2.216 . S
O127 C134 1.247 . S
O128 Co126 2.091 . S
O128 C134 1.261 . S
C129 O138 1.247 . S
C129 O139 1.272 . S
O130 Co126 2.004 . S
O130 C135 1.259 . S
Co131 O132 2.061 . S
Co131 O137 2.052 . S
Co131 O139 2.135 . S
O132 Co131 2.061 . S
O132 C135 1.235 . S
C133 O136 1.238 . S
C133 O137 1.241 . S
C134 O127 1.247 . S
C134 O128 1.261 . S
C135 O130 1.259 . S
C135 O132 1.235 . S
O136 Co126 2.021 . S
O136 C133 1.238 . S
O137 Co131 2.052 . S
O137 C133 1.241 . S
O138 Co126 2.137 . S
O138 C129 1.247 . S
O139 Co126 2.244 . S
O139 C129 1.272 . S
O139 Co131 2.135 . S
Co140 O141 2.216 . S
Co140 O142 2.091 . S
Co140 O144 2.004 . S
Co140 O150 2.021 . S
Co140 O152 2.137 . S
Co140 O153 2.244 . S
O141 Co140 2.216 . S
O141 C148 1.247 . S
O142 Co140 2.091 . S
O142 C148 1.261 . S
C143 O152 1.247 . S
C143 O153 1.272 . S
O144 Co140 2.004 . S
O144 C149 1.259 . S
Co145 O146 2.061 . S
Co145 O151 2.052 . S
Co145 O153 2.135 . S
O146 Co145 2.061 . S
O146 C149 1.235 . S
C147 O150 1.238 . S
C147 O151 1.241 . S
C148 O141 1.247 . S
C148 O142 1.261 . S
C149 O144 1.259 . S
C149 O146 1.235 . S
O150 Co140 2.021 . S
O150 C147 1.238 . S
O151 Co145 2.052 . S
O151 C147 1.241 . S
O152 Co140 2.137 . S
O152 C143 1.247 . S
O153 Co140 2.244 . S
O153 C143 1.272 . S
O153 Co145 2.135 . S
Co154 O155 2.216 . S
Co154 O156 2.091 1_556 S
Co154 O158 2.004 1_556 S
Co154 O164 2.021 1_556 S
Co154 O166 2.137 . S
Co154 O167 2.244 . S
O155 Co154 2.216 . S
O155 C162 1.247 . S
O156 Co154 2.091 1_554 S
O156 C162 1.261 1_554 S
C157 O166 1.247 . S
C157 O167 1.272 . S
O158 Co154 2.004 1_554 S
O158 C163 1.259 . S
Co159 O160 2.061 1_556 S
Co159 O165 2.052 1_556 S
Co159 O167 2.135 . S
O160 Co159 2.061 1_554 S
O160 C163 1.235 . S
C161 O164 1.238 . S
C161 O165 1.241 . S
C162 O155 1.247 . S
C162 O156 1.261 1_556 S
C163 O158 1.259 . S
C163 O160 1.235 . S
O164 Co154 2.021 1_554 S
O164 C161 1.238 . S
O165 Co159 2.052 1_554 S
O165 C161 1.241 . S
O166 Co154 2.137 . S
O166 C157 1.247 . S
O167 Co154 2.244 . S
O167 C157 1.272 . S
O167 Co159 2.135 . S
Co168 O169 2.216 . S
Co168 O170 2.091 . S
Co168 O172 2.004 . S
Co168 O178 2.021 . S
Co168 O180 2.137 . S
Co168 O181 2.244 . S
O169 Co168 2.216 . S
O169 C176 1.247 . S
O170 Co168 2.091 . S
O170 C176 1.261 . S
C171 O180 1.247 . S
C171 O181 1.272 . S
O172 Co168 2.004 . S
O172 C177 1.259 . S
Co173 O174 2.061 . S
Co173 O179 2.052 . S
Co173 O181 2.135 . S
O174 Co173 2.061 . S
O174 C177 1.235 . S
C175 O178 1.238 . S
C175 O179 1.241 . S
C176 O169 1.247 . S
C176 O170 1.261 . S
C177 O172 1.259 . S
C177 O174 1.235 . S
O178 Co168 2.021 . S
O178 C175 1.238 . S
O179 Co173 2.052 . S
O179 C175 1.241 . S
O180 Co168 2.137 . S
O180 C171 1.247 . S
O181 Co168 2.244 . S
O181 C171 1.272 . S
O181 Co173 2.135 . S
Co182 O183 2.216 . S
Co182 O184 2.091 . S
Co182 O186 2.004 . S
Co182 O192 2.021 . S
Co182 O194 2.137 . S
Co182 O195 2.244 . S
O183 Co182 2.216 . S
O183 C190 1.247 . S
O184 Co182 2.091 . S
O184 C190 1.261 . S
C185 O194 1.247 . S
C185 O195 1.272 . S
O186 Co182 2.004 . S
O186 C191 1.259 . S
Co187 O188 2.061 . S
Co187 O193 2.052 . S
Co187 O195 2.135 . S
O188 Co187 2.061 . S
O188 C191 1.235 . S
C189 O192 1.238 . S
C189 O193 1.241 . S
C190 O183 1.247 . S
C190 O184 1.261 . S
C191 O186 1.259 . S
C191 O188 1.235 . S
O192 Co182 2.021 . S
O192 C189 1.238 . S
O193 Co187 2.052 . S
O193 C189 1.241 . S
O194 Co182 2.137 . S
O194 C185 1.247 . S
O195 Co182 2.244 . S
O195 C185 1.272 . S
O195 Co187 2.135 . S
Co196 O197 2.216 . S
Co196 O198 2.091 . S
Co196 O200 2.004 . S
Co196 O206 2.021 . S
Co196 O208 2.137 . S
Co196 O209 2.244 . S
O197 Co196 2.216 . S
O197 C204 1.247 . S
O198 Co196 2.091 . S
O198 C204 1.261 . S
C199 O208 1.247 . S
C199 O209 1.272 . S
O200 Co196 2.004 . S
O200 C205 1.259 . S
Co201 O202 2.061 . S
Co201 O207 2.052 . S
Co201 O209 2.135 . S
O202 Co201 2.061 . S
O202 C205 1.235 . S
C203 O206 1.238 . S
C203 O207 1.241 . S
C204 O197 1.247 . S
C204 O198 1.261 . S
C205 O200 1.259 . S
C205 O202 1.235 . S
O206 Co196 2.021 . S
O206 C203 1.238 . S
O207 Co201 2.052 . S
O207 C203 1.241 . S
O208 Co196 2.137 . S
O208 C199 1.247 . S
O209 Co196 2.244 . S
O209 C199 1.272 . S
O209 Co201 2.135 . S
Co210 O211 2.216 . S
Co210 O212 2.091 . S
Co210 O214 2.004 . S
Co210 O220 2.021 . S
Co210 O222 2.137 . S
Co210 O223 2.244 . S
O211 Co210 2.216 . S
O211 C218 1.247 . S
O212 Co210 2.091 . S
O212 C218 1.261 . S
C213 O222 1.247 . S
C213 O223 1.272 . S
O214 Co210 2.004 . S
O214 C219 1.259 . S
Co215 O216 2.061 . S
Co215 O221 2.052 . S
Co215 O223 2.135 . S
O216 Co215 2.061 . S
O216 C219 1.235 . S
C217 O220 1.238 . S
C217 O221 1.241 . S
C218 O211 1.247 . S
C218 O212 1.261 . S
C219 O214 1.259 . S
C219 O216 1.235 . S
O220 Co210 2.021 . S
O220 C217 1.238 . S
O221 Co215 2.052 . S
O221 C217 1.241 . S
O222 Co210 2.137 . S
O222 C213 1.247 . S
O223 Co210 2.244 . S
O223 C213 1.272 . S
O223 Co215 2.135 . S
Co224 O225 2.216 . S
Co224 O226 2.091 . S
Co224 O228 2.004 1_545 S
Co224 O234 2.021 . S
Co224 O236 2.137 . S
Co224 O237 2.232 1_545 S
O225 Co224 2.216 . S
O225 C232 1.247 . S
O226 Co224 2.091 . S
O226 C232 1.261 . S
C227 O236 1.247 . S
C227 O237 1.264 1_545 S
O228 Co224 2.004 1_565 S
O228 C233 1.259 . S
Co229 O230 2.061 . S
Co229 O235 2.052 . S
Co229 O237 2.158 . S
O230 Co229 2.061 . S
O230 C233 1.235 . S
C231 O234 1.235 1_565 S
C231 O235 1.241 . S
C232 O225 1.247 . S
C232 O226 1.261 . S
C233 O228 1.259 . S
C233 O230 1.235 . S
O234 Co224 2.021 . S
O234 C231 1.235 1_545 S
O235 Co229 2.052 . S
O235 C231 1.241 . S
O236 Co224 2.137 . S
O236 C227 1.247 . S
O237 Co224 2.232 1_565 S
O237 C227 1.264 1_565 S
O237 Co229 2.158 . S
Co238 O239 2.216 . S
Co238 O240 2.091 . S
Co238 O242 2.004 . S
Co238 O248 2.021 . S
Co238 O250 2.137 . S
Co238 O251 2.244 . S
O239 Co238 2.216 . S
O239 C246 1.247 . S
O240 Co238 2.091 . S
O240 C246 1.261 . S
C241 O250 1.247 . S
C241 O251 1.272 . S
O242 Co238 2.004 . S
O242 C247 1.259 . S
Co243 O244 2.061 . S
Co243 O249 2.052 . S
Co243 O251 2.135 . S
O244 Co243 2.061 . S
O244 C247 1.235 . S
C245 O248 1.238 . S
C245 O249 1.241 . S
C246 O239 1.247 . S
C246 O240 1.261 . S
C247 O242 1.259 . S
C247 O244 1.235 . S
O248 Co238 2.021 . S
O248 C245 1.238 . S
O249 Co243 2.052 . S
O249 C245 1.241 . S
O250 Co238 2.137 . S
O250 C241 1.247 . S
O251 Co238 2.244 . S
O251 C241 1.272 . S
O251 Co243 2.135 . S
Co252 O253 2.216 . S
Co252 O254 2.091 . S
Co252 O256 2.004 . S
Co252 O262 2.021 . S
Co252 O264 2.137 . S
Co252 O265 2.244 . S
O253 Co252 2.216 . S
O253 C260 1.247 . S
O254 Co252 2.091 . S
O254 C260 1.261 . S
C255 O264 1.247 . S
C255 O265 1.272 . S
O256 Co252 2.004 . S
O256 C261 1.259 . S
Co257 O258 2.061 . S
Co257 O263 2.052 . S
Co257 O265 2.135 . S
O258 Co257 2.061 . S
O258 C261 1.235 . S
C259 O262 1.238 . S
C259 O263 1.241 . S
C260 O253 1.247 . S
C260 O254 1.261 . S
C261 O256 1.259 . S
C261 O258 1.235 . S
O262 Co252 2.021 . S
O262 C259 1.238 . S
O263 Co257 2.052 . S
O263 C259 1.241 . S
O264 Co252 2.137 . S
O264 C255 1.247 . S
O265 Co252 2.244 . S
O265 C255 1.272 . S
O265 Co257 2.135 . S
Co266 O267 2.216 1_545 S
Co266 O268 2.091 1_545 S
Co266 O270 2.004 . S
Co266 O276 2.021 . S
Co266 O278 2.137 . S
Co266 O279 2.244 . S
O267 Co266 2.216 1_565 S
O267 C274 1.247 . S
O268 Co266 2.091 1_565 S
O268 C274 1.261 . S
C269 O278 1.247 . S
C269 O279 1.272 . S
O270 Co266 2.004 . S
O270 C275 1.259 . S
Co271 O272 2.061 . S
Co271 O277 2.052 . S
Co271 O279 2.135 . S
O272 Co271 2.061 . S
O272 C275 1.235 . S
C273 O276 1.238 . S
C273 O277 1.241 . S
C274 O267 1.247 . S
C274 O268 1.261 . S
C275 O270 1.259 . S
C275 O272 1.235 . S
O276 Co266 2.021 . S
O276 C273 1.238 . S
O277 Co271 2.052 . S
O277 C273 1.241 . S
O278 Co266 2.137 . S
O278 C269 1.247 . S
O279 Co266 2.244 . S
O279 C269 1.272 . S
O279 Co271 2.135 . S
Co280 O281 2.216 . S
Co280 O282 2.091 . S
Co280 O284 2.004 . S
Co280 O290 2.021 . S
Co280 O292 2.137 . S
Co280 O293 2.244 . S
O281 Co280 2.216 . S
O281 C288 1.247 . S
O282 Co280 2.091 . S
O282 C288 1.261 . S
C283 O292 1.247 . S
C283 O293 1.272 . S
O284 Co280 2.004 . S
O284 C289 1.259 . S
Co285 O286 2.061 . S
Co285 O291 2.052 . S
Co285 O293 2.135 . S
O286 Co285 2.061 . S
O286 C289 1.235 . S
C287 O290 1.238 . S
C287 O291 1.241 . S
C288 O281 1.247 . S
C288 O282 1.261 . S
C289 O284 1.259 . S
C289 O286 1.235 . S
O290 Co280 2.021 . S
O290 C287 1.238 . S
O291 Co285 2.052 . S
O291 C287 1.241 . S
O292 Co280 2.137 . S
O292 C283 1.247 . S
O293 Co280 2.244 . S
O293 C283 1.272 . S
O293 Co285 2.135 . S
Co294 O295 2.216 . S
Co294 O296 2.091 . S
Co294 O298 2.004 . S
Co294 O304 2.021 . S
Co294 O306 2.137 . S
Co294 O307 2.244 . S
O295 Co294 2.216 . S
O295 C302 1.247 . S
O296 Co294 2.091 . S
O296 C302 1.261 . S
C297 O306 1.247 . S
C297 O307 1.272 . S
O298 Co294 2.004 . S
O298 C303 1.259 . S
Co299 O300 2.061 . S
Co299 O305 2.052 . S
Co299 O307 2.135 . S
O300 Co299 2.061 . S
O300 C303 1.235 . S
C301 O304 1.238 . S
C301 O305 1.241 . S
C302 O295 1.247 . S
C302 O296 1.261 . S
C303 O298 1.259 . S
C303 O300 1.235 . S
O304 Co294 2.021 . S
O304 C301 1.238 . S
O305 Co299 2.052 . S
O305 C301 1.241 . S
O306 Co294 2.137 . S
O306 C297 1.247 . S
O307 Co294 2.244 . S
O307 C297 1.272 . S
O307 Co299 2.135 . S
Co308 O309 2.216 . S
Co308 O310 2.091 . S
Co308 O312 2.004 . S
Co308 O318 2.021 . S
Co308 O320 2.137 . S
Co308 O321 2.244 . S
O309 Co308 2.216 . S
O309 C316 1.247 . S
O310 Co308 2.091 . S
O310 C316 1.261 . S
C311 O320 1.247 . S
C311 O321 1.272 . S
O312 Co308 2.004 . S
O312 C317 1.259 . S
Co313 O314 2.061 . S
Co313 O319 2.052 . S
Co313 O321 2.135 . S
O314 Co313 2.061 . S
O314 C317 1.235 . S
C315 O318 1.238 . S
C315 O319 1.241 . S
C316 O309 1.247 . S
C316 O310 1.261 . S
C317 O312 1.259 . S
C317 O314 1.235 . S
O318 Co308 2.021 . S
O318 C315 1.238 . S
O319 Co313 2.052 . S
O319 C315 1.241 . S
O320 Co308 2.137 . S
O320 C311 1.247 . S
O321 Co308 2.244 . S
O321 C311 1.272 . S
O321 Co313 2.135 . S
Co322 O323 2.216 . S
Co322 O324 2.091 . S
Co322 O326 2.004 . S
Co322 O332 2.021 . S
Co322 O334 2.137 . S
Co322 O335 2.244 . S
O323 Co322 2.216 . S
O323 C330 1.247 . S
O324 Co322 2.091 . S
O324 C330 1.261 . S
C325 O334 1.247 . S
C325 O335 1.272 . S
O326 Co322 2.004 . S
O326 C331 1.259 . S
Co327 O328 2.061 . S
Co327 O333 2.052 . S
Co327 O335 2.135 . S
O328 Co327 2.061 . S
O328 C331 1.235 . S
C329 O332 1.238 . S
C329 O333 1.241 . S
C330 O323 1.247 . S
C330 O324 1.261 . S
C331 O326 1.259 . S
C331 O328 1.235 . S
O332 Co322 2.021 . S
O332 C329 1.238 . S
O333 Co327 2.052 . S
O333 C329 1.241 . S
O334 Co322 2.137 . S
O334 C325 1.247 . S
O335 Co322 2.244 . S
O335 C325 1.272 . S
O335 Co327 2.135 . S
Tb336 C338 2.809 1_455 S
Tb336 O356 2.484 1_455 S
Tb336 O357 2.440 1_455 S
Tb336 O358 2.658 . S
Tb336 O359 2.409 . S
Tb336 O360 2.378 . S
Tb336 O364 2.325 . S
Tb336 O367 2.341 1_545 S
Tb337 C347 2.809 . S
Tb337 O358 2.325 . S
Tb337 O361 2.341 . S
Tb337 O362 2.484 . S
Tb337 O363 2.440 . S
Tb337 O364 2.658 . S
Tb337 O365 2.409 . S
Tb337 O366 2.378 1_545 S
C338 Tb336 2.809 1_655 S
C338 C339 1.514 . S
C338 O356 1.248 . S
C338 O357 1.266 . S
C339 C338 1.514 . S
C339 C340 1.359 . S
C339 C344 1.348 . S
C340 C339 1.359 . S
C340 C341 1.380 . S
C340 H368 0.929 . S
C341 C340 1.380 . S
C341 C342 1.347 . S
C341 H369 0.931 . S
C342 C341 1.347 . S
C342 C343 1.369 . S
C343 C342 1.369 . S
C343 C344 1.408 . S
C343 H370 0.930 1_554 S
C344 C339 1.348 . S
C344 C343 1.408 . S
C344 H371 0.930 1_554 S
C345 O358 1.281 . S
C345 O359 1.254 . S
C346 O360 1.236 . S
C346 O361 1.266 . S
C347 Tb337 2.809 . S
C347 C348 1.514 1_545 S
C347 O362 1.248 . S
C347 O363 1.266 . S
C348 C347 1.514 1_565 S
C348 C349 1.359 . S
C348 C353 1.348 . S
C349 C348 1.359 . S
C349 C350 1.380 . S
C349 H372 0.929 . S
C350 C349 1.380 . S
C350 C351 1.347 . S
C350 H373 0.931 . S
C351 C350 1.347 . S
C351 C352 1.369 . S
C352 C351 1.369 . S
C352 C353 1.408 . S
C352 H374 0.930 . S
C353 C348 1.348 . S
C353 C352 1.408 . S
C353 H375 0.916 1_565 S
C354 O364 1.281 . S
C354 O365 1.254 . S
C355 O366 1.236 . S
C355 O367 1.266 . S
O356 Tb336 2.484 1_655 S
O356 C338 1.248 . S
O357 Tb336 2.440 1_655 S
O357 C338 1.266 . S
O358 Tb336 2.658 . S
O358 Tb337 2.325 . S
O358 C345 1.281 . S
O359 Tb336 2.409 . S
O359 C345 1.254 . S
O360 Tb336 2.378 . S
O360 C346 1.236 . S
O361 Tb337 2.341 . S
O361 C346 1.266 . S
O362 Tb337 2.484 . S
O362 C347 1.248 . S
O363 Tb337 2.440 . S
O363 C347 1.266 . S
O364 Tb336 2.325 . S
O364 Tb337 2.658 . S
O364 C354 1.281 . S
O365 Tb337 2.409 . S
O365 C354 1.254 . S
O366 Tb337 2.378 1_565 S
O366 C355 1.236 . S
O367 Tb336 2.341 1_565 S
O367 C355 1.266 . S
H368 C340 0.929 . S
H369 C341 0.931 . S
H370 C343 0.930 1_556 S
H371 C344 0.930 1_556 S
H372 C349 0.929 . S
H373 C350 0.931 . S
H374 C352 0.930 . S
H375 C353 0.916 1_545 S
Tb376 C378 2.809 . S
Tb376 O396 2.484 . S
Tb376 O397 2.440 . S
Tb376 O398 2.658 . S
Tb376 O399 2.409 . S
Tb376 O400 2.378 . S
Tb376 O404 2.325 . S
Tb376 O407 2.341 . S
Tb377 C387 2.809 . S
Tb377 O398 2.325 . S
Tb377 O401 2.341 . S
Tb377 O402 2.484 . S
Tb377 O403 2.440 . S
Tb377 O404 2.658 . S
Tb377 O405 2.409 . S
Tb377 O406 2.378 . S
C378 Tb376 2.809 . S
C378 C379 1.514 . S
C378 O396 1.248 . S
C378 O397 1.266 . S
C379 C378 1.514 . S
C379 C380 1.359 . S
C379 C384 1.348 . S
C380 C379 1.359 . S
C380 C381 1.380 . S
C380 H408 0.929 . S
C381 C380 1.380 . S
C381 C382 1.347 . S
C381 H409 0.931 . S
C382 C381 1.347 . S
C382 C383 1.369 . S
C383 C382 1.369 . S
C383 C384 1.408 . S
C383 H410 0.930 . S
C384 C379 1.348 . S
C384 C383 1.408 . S
C384 H411 0.930 . S
C385 O398 1.281 . S
C385 O399 1.254 . S
C386 O400 1.236 . S
C386 O401 1.266 . S
C387 Tb377 2.809 . S
C387 C388 1.514 . S
C387 O402 1.248 . S
C387 O403 1.266 . S
C388 C387 1.514 . S
C388 C389 1.359 . S
C388 C393 1.348 . S
C389 C388 1.359 . S
C389 C390 1.380 . S
C389 H412 0.929 . S
C390 C389 1.380 . S
C390 C391 1.347 . S
C390 H413 0.931 . S
C391 C390 1.347 . S
C391 C392 1.369 . S
C392 C391 1.369 . S
C392 C393 1.408 . S
C392 H414 0.930 . S
C393 C388 1.348 . S
C393 C392 1.408 . S
C393 H415 0.930 . S
C394 O404 1.281 . S
C394 O405 1.254 . S
C395 O406 1.236 . S
C395 O407 1.266 . S
O396 Tb376 2.484 . S
O396 C378 1.248 . S
O397 Tb376 2.440 . S
O397 C378 1.266 . S
O398 Tb376 2.658 . S
O398 Tb377 2.325 . S
O398 C385 1.281 . S
O399 Tb376 2.409 . S
O399 C385 1.254 . S
O400 Tb376 2.378 . S
O400 C386 1.236 . S
O401 Tb377 2.341 . S
O401 C386 1.266 . S
O402 Tb377 2.484 . S
O402 C387 1.248 . S
O403 Tb377 2.440 . S
O403 C387 1.266 . S
O404 Tb376 2.325 . S
O404 Tb377 2.658 . S
O404 C394 1.281 . S
O405 Tb377 2.409 . S
O405 C394 1.254 . S
O406 Tb377 2.378 . S
O406 C395 1.236 . S
O407 Tb376 2.341 . S
O407 C395 1.266 . S
H408 C380 0.929 . S
H409 C381 0.931 . S
H410 C383 0.930 . S
H411 C384 0.930 . S
H412 C389 0.929 . S
H413 C390 0.931 . S
H414 C392 0.930 . S
H415 C393 0.930 . S
Tb416 C418 2.809 . S
Tb416 O436 2.484 . S
Tb416 O437 2.440 . S
Tb416 O438 2.658 . S
Tb416 O439 2.409 . S
Tb416 O440 2.378 1_545 S
Tb416 O444 2.325 . S
Tb416 O447 2.341 . S
Tb417 C427 2.809 . S
Tb417 O438 2.325 . S
Tb417 O441 2.341 1_545 S
Tb417 O442 2.484 . S
Tb417 O443 2.440 . S
Tb417 O444 2.658 . S
Tb417 O445 2.409 . S
Tb417 O446 2.378 . S
C418 Tb416 2.809 . S
C418 C419 1.514 1_545 S
C418 O436 1.248 . S
C418 O437 1.266 . S
C419 C418 1.514 1_565 S
C419 C420 1.359 . S
C419 C424 1.348 . S
C420 C419 1.359 . S
C420 C421 1.380 . S
C420 H448 0.929 . S
C421 C420 1.380 . S
C421 C422 1.347 . S
C421 H449 0.931 . S
C422 C421 1.347 . S
C422 C423 1.369 . S
C423 C422 1.369 . S
C423 C424 1.408 . S
C423 H450 0.930 . S
C424 C419 1.348 . S
C424 C423 1.408 . S
C424 H451 0.930 . S
C425 O438 1.281 . S
C425 O439 1.254 . S
C426 O440 1.236 . S
C426 O441 1.266 . S
C427 Tb417 2.809 . S
C427 C428 1.514 . S
C427 O442 1.248 . S
C427 O443 1.266 . S
C428 C427 1.514 . S
C428 C429 1.359 . S
C428 C433 1.348 . S
C429 C428 1.359 . S
C429 C430 1.380 . S
C429 H452 0.929 . S
C430 C429 1.380 . S
C430 C431 1.347 . S
C430 H453 0.931 . S
C431 C430 1.347 . S
C431 C432 1.369 . S
C432 C431 1.369 . S
C432 C433 1.408 . S
C432 H454 0.930 . S
C433 C428 1.348 . S
C433 C432 1.408 . S
C433 H455 0.930 . S
C434 O444 1.281 . S
C434 O445 1.254 . S
C435 O446 1.236 . S
C435 O447 1.266 . S
O436 Tb416 2.484 . S
O436 C418 1.248 . S
O437 Tb416 2.440 . S
O437 C418 1.266 . S
O438 Tb416 2.658 . S
O438 Tb417 2.325 . S
O438 C425 1.281 . S
O439 Tb416 2.409 . S
O439 C425 1.254 . S
O440 Tb416 2.378 1_565 S
O440 C426 1.236 . S
O441 Tb417 2.341 1_565 S
O441 C426 1.266 . S
O442 Tb417 2.484 . S
O442 C427 1.248 . S
O443 Tb417 2.440 . S
O443 C427 1.266 . S
O444 Tb416 2.325 . S
O444 Tb417 2.658 . S
O444 C434 1.281 . S
O445 Tb417 2.409 . S
O445 C434 1.254 . S
O446 Tb417 2.378 . S
O446 C435 1.236 . S
O447 Tb416 2.341 . S
O447 C435 1.266 . S
H448 C420 0.929 . S
H449 C421 0.931 . S
H450 C423 0.930 . S
H451 C424 0.930 . S
H452 C429 0.929 . S
H453 C430 0.931 . S
H454 C432 0.930 . S
H455 C433 0.930 . S
Tb456 C458 2.809 . S
Tb456 O476 2.484 . S
Tb456 O477 2.440 . S
Tb456 O478 2.658 . S
Tb456 O479 2.409 . S
Tb456 O480 2.378 . S
Tb456 O484 2.325 . S
Tb456 O487 2.341 . S
Tb457 C467 2.809 . S
Tb457 O478 2.325 . S
Tb457 O481 2.341 . S
Tb457 O482 2.484 . S
Tb457 O483 2.440 . S
Tb457 O484 2.658 . S
Tb457 O485 2.409 . S
Tb457 O486 2.378 . S
C458 Tb456 2.809 . S
C458 C459 1.514 . S
C458 O476 1.248 . S
C458 O477 1.266 . S
C459 C458 1.514 . S
C459 C460 1.359 . S
C459 C464 1.348 . S
C460 C459 1.359 . S
C460 C461 1.380 . S
C460 H488 0.929 . S
C461 C460 1.380 . S
C461 C462 1.347 . S
C461 H489 0.931 . S
C462 C461 1.347 . S
C462 C463 1.369 . S
C463 C462 1.369 . S
C463 C464 1.408 . S
C463 H490 0.930 . S
C464 C459 1.348 . S
C464 C463 1.408 . S
C464 H491 0.930 . S
C465 O478 1.281 . S
C465 O479 1.254 . S
C466 O480 1.236 . S
C466 O481 1.266 . S
C467 Tb457 2.809 . S
C467 C468 1.514 . S
C467 O482 1.248 . S
C467 O483 1.266 . S
C468 C467 1.514 . S
C468 C469 1.359 . S
C468 C473 1.348 . S
C469 C468 1.359 . S
C469 C470 1.380 . S
C469 H492 0.929 . S
C470 C469 1.380 . S
C470 C471 1.347 . S
C470 H493 0.931 . S
C471 C470 1.347 . S
C471 C472 1.369 . S
C472 C471 1.369 . S
C472 C473 1.408 . S
C472 H494 0.930 . S
C473 C468 1.348 . S
C473 C472 1.408 . S
C473 H495 0.930 . S
C474 O484 1.281 . S
C474 O485 1.254 . S
C475 O486 1.236 . S
C475 O487 1.266 . S
O476 Tb456 2.484 . S
O476 C458 1.248 . S
O477 Tb456 2.440 . S
O477 C458 1.266 . S
O478 Tb456 2.658 . S
O478 Tb457 2.325 . S
O478 C465 1.281 . S
O479 Tb456 2.409 . S
O479 C465 1.254 . S
O480 Tb456 2.378 . S
O480 C466 1.236 . S
O481 Tb457 2.341 . S
O481 C466 1.266 . S
O482 Tb457 2.484 . S
O482 C467 1.248 . S
O483 Tb457 2.440 . S
O483 C467 1.266 . S
O484 Tb456 2.325 . S
O484 Tb457 2.658 . S
O484 C474 1.281 . S
O485 Tb457 2.409 . S
O485 C474 1.254 . S
O486 Tb457 2.378 . S
O486 C475 1.236 . S
O487 Tb456 2.341 . S
O487 C475 1.266 . S
H488 C460 0.929 . S
H489 C461 0.931 . S
H490 C463 0.930 . S
H491 C464 0.930 . S
H492 C469 0.929 . S
H493 C470 0.931 . S
H494 C472 0.930 . S
H495 C473 0.930 . S
Tb496 C498 2.809 . S
Tb496 O516 2.484 . S
Tb496 O517 2.440 . S
Tb496 O518 2.658 . S
Tb496 O519 2.409 1_455 S
Tb496 O520 2.378 . S
Tb496 O524 2.325 . S
Tb496 O527 2.341 . S
Tb497 C507 2.809 . S
Tb497 O518 2.325 1_565 S
Tb497 O521 2.341 1_565 S
Tb497 O522 2.484 . S
Tb497 O523 2.440 . S
Tb497 O524 2.658 1_565 S
Tb497 O525 2.409 1_565 S
Tb497 O526 2.378 1_565 S
C498 Tb496 2.809 . S
C498 C499 1.514 . S
C498 O516 1.248 . S
C498 O517 1.266 . S
C499 C498 1.514 . S
C499 C500 1.359 . S
C499 C504 1.348 1_455 S
C500 C499 1.359 . S
C500 C501 1.380 . S
C500 H528 0.929 . S
C501 C500 1.380 . S
C501 C502 1.347 . S
C501 H529 0.931 . S
C502 C501 1.347 . S
C502 C503 1.369 1_455 S
C503 C502 1.369 1_655 S
C503 C504 1.408 . S
C503 H530 0.930 . S
C504 C499 1.348 1_655 S
C504 C503 1.408 . S
C504 H531 0.930 . S
C505 O518 1.281 1_655 S
C505 O519 1.254 . S
C506 O520 1.236 . S
C506 O521 1.266 . S
C507 Tb497 2.809 . S
C507 C508 1.514 . S
C507 O522 1.248 . S
C507 O523 1.266 . S
C508 C507 1.514 . S
C508 C509 1.359 . S
C508 C513 1.348 . S
C509 C508 1.359 . S
C509 C510 1.380 . S
C509 H532 0.929 . S
C510 C509 1.380 . S
C510 C511 1.347 . S
C510 H533 0.931 . S
C511 C510 1.347 . S
C511 C512 1.369 . S
C512 C511 1.369 . S
C512 C513 1.408 . S
C512 H534 0.930 . S
C513 C508 1.348 . S
C513 C512 1.408 . S
C513 H535 0.930 . S
C514 O524 1.281 . S
C514 O525 1.254 . S
C515 O526 1.236 . S
C515 O527 1.266 . S
O516 Tb496 2.484 . S
O516 C498 1.248 . S
O517 Tb496 2.440 . S
O517 C498 1.266 . S
O518 Tb496 2.658 . S
O518 Tb497 2.325 1_545 S
O518 C505 1.281 1_455 S
O519 Tb496 2.409 1_655 S
O519 C505 1.254 . S
O520 Tb496 2.378 . S
O520 C506 1.236 . S
O521 Tb497 2.341 1_545 S
O521 C506 1.266 . S
O522 Tb497 2.484 . S
O522 C507 1.248 . S
O523 Tb497 2.440 . S
O523 C507 1.266 . S
O524 Tb496 2.325 . S
O524 Tb497 2.658 1_545 S
O524 C514 1.281 . S
O525 Tb497 2.409 1_545 S
O525 C514 1.254 . S
O526 Tb497 2.378 1_545 S
O526 C515 1.236 . S
O527 Tb496 2.341 . S
O527 C515 1.266 . S
H528 C500 0.929 . S
H529 C501 0.931 . S
H530 C503 0.930 . S
H531 C504 0.930 . S
H532 C509 0.929 . S
H533 C510 0.931 . S
H534 C512 0.930 . S
H535 C513 0.930 . S
Tb536 C538 2.809 . S
Tb536 O556 2.484 . S
Tb536 O557 2.440 . S
Tb536 O558 2.658 . S
Tb536 O559 2.409 . S
Tb536 O560 2.378 . S
Tb536 O564 2.325 . S
Tb536 O567 2.341 . S
Tb537 C547 2.809 . S
Tb537 O558 2.325 . S
Tb537 O561 2.341 . S
Tb537 O562 2.484 . S
Tb537 O563 2.440 . S
Tb537 O564 2.658 . S
Tb537 O565 2.409 . S
Tb537 O566 2.378 . S
C538 Tb536 2.809 . S
C538 C539 1.514 . S
C538 O556 1.248 . S
C538 O557 1.266 . S
C539 C538 1.514 . S
C539 C540 1.359 . S
C539 C544 1.348 . S
C540 C539 1.359 . S
C540 C541 1.380 . S
C540 H568 0.929 . S
C541 C540 1.380 . S
C541 C542 1.347 . S
C541 H569 0.931 . S
C542 C541 1.347 . S
C542 C543 1.369 . S
C543 C542 1.369 . S
C543 C544 1.408 . S
C543 H570 0.930 . S
C544 C539 1.348 . S
C544 C543 1.408 . S
C544 H571 0.930 . S
C545 O558 1.281 . S
C545 O559 1.254 . S
C546 O560 1.236 . S
C546 O561 1.266 . S
C547 Tb537 2.809 . S
C547 C548 1.514 . S
C547 O562 1.248 . S
C547 O563 1.266 . S
C548 C547 1.514 . S
C548 C549 1.359 . S
C548 C553 1.348 . S
C549 C548 1.359 . S
C549 C550 1.380 . S
C549 H572 0.929 . S
C550 C549 1.380 . S
C550 C551 1.347 . S
C550 H573 0.931 . S
C551 C550 1.347 . S
C551 C552 1.369 . S
C552 C551 1.369 . S
C552 C553 1.408 . S
C552 H574 0.930 . S
C553 C548 1.348 . S
C553 C552 1.408 . S
C553 H575 0.930 . S
C554 O564 1.281 . S
C554 O565 1.254 . S
C555 O566 1.236 . S
C555 O567 1.266 . S
O556 Tb536 2.484 . S
O556 C538 1.248 . S
O557 Tb536 2.440 . S
O557 C538 1.266 . S
O558 Tb536 2.658 . S
O558 Tb537 2.325 . S
O558 C545 1.281 . S
O559 Tb536 2.409 . S
O559 C545 1.254 . S
O560 Tb536 2.378 . S
O560 C546 1.236 . S
O561 Tb537 2.341 . S
O561 C546 1.266 . S
O562 Tb537 2.484 . S
O562 C547 1.248 . S
O563 Tb537 2.440 . S
O563 C547 1.266 . S
O564 Tb536 2.325 . S
O564 Tb537 2.658 . S
O564 C554 1.281 . S
O565 Tb537 2.409 . S
O565 C554 1.254 . S
O566 Tb537 2.378 . S
O566 C555 1.236 . S
O567 Tb536 2.341 . S
O567 C555 1.266 . S
H568 C540 0.929 . S
H569 C541 0.931 . S
H570 C543 0.930 . S
H571 C544 0.930 . S
H572 C549 0.929 . S
H573 C550 0.931 . S
H574 C552 0.930 . S
H575 C553 0.930 . S
Tb576 C578 2.809 . S
Tb576 O596 2.484 1_545 S
Tb576 O597 2.440 . S
Tb576 O598 2.658 . S
Tb576 O599 2.409 . S
Tb576 O600 2.378 . S
Tb576 O604 2.312 1_545 S
Tb576 O607 2.341 . S
Tb577 C587 2.809 . S
Tb577 O598 2.325 . S
Tb577 O601 2.341 . S
Tb577 O602 2.484 . S
Tb577 O603 2.440 . S
Tb577 O604 2.654 1_545 S
Tb577 O605 2.409 1_545 S
Tb577 O606 2.378 . S
C578 Tb576 2.809 . S
C578 C579 1.514 1_545 S
C578 O596 1.248 1_545 S
C578 O597 1.266 . S
C579 C578 1.514 1_565 S
C579 C580 1.359 . S
C579 C584 1.348 1_565 S
C580 C579 1.359 . S
C580 C581 1.380 . S
C580 H608 0.929 . S
C581 C580 1.380 . S
C581 C582 1.347 . S
C581 H609 0.931 . S
C582 C581 1.347 . S
C582 C583 1.369 1_565 S
C583 C582 1.369 1_545 S
C583 C584 1.408 . S
C583 H610 0.930 . S
C584 C579 1.348 1_545 S
C584 C583 1.408 . S
C584 H611 0.930 . S
C585 O598 1.281 . S
C585 O599 1.254 . S
C586 O600 1.236 . S
C586 O601 1.266 . S
C587 Tb577 2.809 . S
C587 C588 1.514 . S
C587 O602 1.248 . S
C587 O603 1.266 . S
C588 C587 1.514 . S
C588 C589 1.359 . S
C588 C593 1.348 . S
C589 C588 1.359 . S
C589 C590 1.380 . S
C589 H612 0.929 . S
C590 C589 1.380 . S
C590 C591 1.347 . S
C590 H613 0.931 . S
C591 C590 1.347 . S
C591 C592 1.369 . S
C592 C591 1.369 . S
C592 C593 1.408 . S
C592 H614 0.930 . S
C593 C588 1.348 . S
C593 C592 1.408 . S
C593 H615 0.930 . S
C594 O604 1.294 . S
C594 O605 1.254 . S
C595 O606 1.236 . S
C595 O607 1.266 . S
O596 Tb576 2.484 1_565 S
O596 C578 1.248 1_565 S
O597 Tb576 2.440 . S
O597 C578 1.266 . S
O598 Tb576 2.658 . S
O598 Tb577 2.325 . S
O598 C585 1.281 . S
O599 Tb576 2.409 . S
O599 C585 1.254 . S
O600 Tb576 2.378 . S
O600 C586 1.236 . S
O601 Tb577 2.341 . S
O601 C586 1.266 . S
O602 Tb577 2.484 . S
O602 C587 1.248 . S
O603 Tb577 2.440 . S
O603 C587 1.266 . S
O604 Tb576 2.312 1_565 S
O604 Tb577 2.654 1_565 S
O604 C594 1.294 . S
O605 Tb577 2.409 1_565 S
O605 C594 1.254 . S
O606 Tb577 2.378 . S
O606 C595 1.236 . S
O607 Tb576 2.341 . S
O607 C595 1.266 . S
H608 C580 0.929 . S
H609 C581 0.931 . S
H610 C583 0.930 . S
H611 C584 0.930 . S
H612 C589 0.929 . S
H613 C590 0.931 . S
H614 C592 0.930 . S
H615 C593 0.930 . S
Tb616 C618 2.809 . S
Tb616 O636 2.484 . S
Tb616 O637 2.440 . S
Tb616 O638 2.658 . S
Tb616 O639 2.409 . S
Tb616 O640 2.378 . S
Tb616 O644 2.325 . S
Tb616 O647 2.341 . S
Tb617 C627 2.809 . S
Tb617 O638 2.325 . S
Tb617 O641 2.341 . S
Tb617 O642 2.484 . S
Tb617 O643 2.440 . S
Tb617 O644 2.658 . S
Tb617 O645 2.409 . S
Tb617 O646 2.378 . S
C618 Tb616 2.809 . S
C618 C619 1.514 . S
C618 O636 1.248 . S
C618 O637 1.266 . S
C619 C618 1.514 . S
C619 C620 1.359 . S
C619 C624 1.348 . S
C620 C619 1.359 . S
C620 C621 1.380 . S
C620 H648 0.929 . S
C621 C620 1.380 . S
C621 C622 1.347 . S
C621 H649 0.931 . S
C622 C621 1.347 . S
C622 C623 1.369 . S
C623 C622 1.369 . S
C623 C624 1.408 . S
C623 H650 0.930 . S
C624 C619 1.348 . S
C624 C623 1.408 . S
C624 H651 0.930 . S
C625 O638 1.281 . S
C625 O639 1.254 . S
C626 O640 1.236 . S
C626 O641 1.266 . S
C627 Tb617 2.809 . S
C627 C628 1.514 . S
C627 O642 1.248 . S
C627 O643 1.266 . S
C628 C627 1.514 . S
C628 C629 1.359 . S
C628 C633 1.348 . S
C629 C628 1.359 . S
C629 C630 1.380 . S
C629 H652 0.929 . S
C630 C629 1.380 . S
C630 C631 1.347 . S
C630 H653 0.931 . S
C631 C630 1.347 . S
C631 C632 1.369 . S
C632 C631 1.369 . S
C632 C633 1.408 . S
C632 H654 0.930 . S
C633 C628 1.348 . S
C633 C632 1.408 . S
C633 H655 0.930 . S
C634 O644 1.281 . S
C634 O645 1.254 . S
C635 O646 1.236 . S
C635 O647 1.266 . S
O636 Tb616 2.484 . S
O636 C618 1.248 . S
O637 Tb616 2.440 . S
O637 C618 1.266 . S
O638 Tb616 2.658 . S
O638 Tb617 2.325 . S
O638 C625 1.281 . S
O639 Tb616 2.409 . S
O639 C625 1.254 . S
O640 Tb616 2.378 . S
O640 C626 1.236 . S
O641 Tb617 2.341 . S
O641 C626 1.266 . S
O642 Tb617 2.484 . S
O642 C627 1.248 . S
O643 Tb617 2.440 . S
O643 C627 1.266 . S
O644 Tb616 2.325 . S
O644 Tb617 2.658 . S
O644 C634 1.281 . S
O645 Tb617 2.409 . S
O645 C634 1.254 . S
O646 Tb617 2.378 . S
O646 C635 1.236 . S
O647 Tb616 2.341 . S
O647 C635 1.266 . S
H648 C620 0.929 . S
H649 C621 0.931 . S
H650 C623 0.930 . S
H651 C624 0.930 . S
H652 C629 0.929 . S
H653 C630 0.931 . S
H654 C632 0.930 . S
H655 C633 0.930 . S
Tb656 C658 2.809 . S
Tb656 O676 2.484 . S
Tb656 O677 2.440 . S
Tb656 O678 2.658 . S
Tb656 O679 2.409 . S
Tb656 O680 2.378 . S
Tb656 O684 2.325 . S
Tb656 O687 2.341 . S
Tb657 C667 2.809 . S
Tb657 O678 2.325 . S
Tb657 O681 2.341 . S
Tb657 O682 2.484 . S
Tb657 O683 2.440 . S
Tb657 O684 2.658 . S
Tb657 O685 2.409 . S
Tb657 O686 2.378 . S
C658 Tb656 2.809 . S
C658 C659 1.514 . S
C658 O676 1.248 . S
C658 O677 1.266 . S
C659 C658 1.514 . S
C659 C660 1.377 . S
C659 C664 1.348 . S
C660 C659 1.377 . S
C660 C661 1.364 1_554 S
C660 H688 0.927 . S
C661 C660 1.364 1_556 S
C661 C662 1.347 . S
C661 H689 0.931 . S
C662 C661 1.347 . S
C662 C663 1.369 . S
C663 C662 1.369 . S
C663 C664 1.408 1_556 S
C663 H690 0.930 . S
C664 C659 1.348 . S
C664 C663 1.408 1_554 S
C664 H691 0.930 . S
C665 O678 1.281 . S
C665 O679 1.254 . S
C666 O680 1.236 . S
C666 O681 1.266 . S
C667 Tb657 2.809 . S
C667 C668 1.514 . S
C667 O682 1.248 . S
C667 O683 1.266 . S
C668 C667 1.514 . S
C668 C669 1.359 . S
C668 C673 1.348 . S
C669 C668 1.359 . S
C669 C670 1.380 . S
C669 H692 0.929 . S
C670 C669 1.380 . S
C670 C671 1.347 . S
C670 H693 0.931 . S
C671 C670 1.347 . S
C671 C672 1.369 . S
C672 C671 1.369 . S
C672 C673 1.408 . S
C672 H694 0.930 . S
C673 C668 1.348 . S
C673 C672 1.408 . S
C673 H695 0.930 . S
C674 O684 1.281 . S
C674 O685 1.254 . S
C675 O686 1.236 . S
C675 O687 1.266 . S
O676 Tb656 2.484 . S
O676 C658 1.248 . S
O677 Tb656 2.440 . S
O677 C658 1.266 . S
O678 Tb656 2.658 . S
O678 Tb657 2.325 . S
O678 C665 1.281 . S
O679 Tb656 2.409 . S
O679 C665 1.254 . S
O680 Tb656 2.378 . S
O680 C666 1.236 . S
O681 Tb657 2.341 . S
O681 C666 1.266 . S
O682 Tb657 2.484 . S
O682 C667 1.248 . S
O683 Tb657 2.440 . S
O683 C667 1.266 . S
O684 Tb656 2.325 . S
O684 Tb657 2.658 . S
O684 C674 1.281 . S
O685 Tb657 2.409 . S
O685 C674 1.254 . S
O686 Tb657 2.378 . S
O686 C675 1.236 . S
O687 Tb656 2.341 . S
O687 C675 1.266 . S
H688 C660 0.927 . S
H689 C661 0.931 . S
H690 C663 0.930 . S
H691 C664 0.930 . S
H692 C669 0.929 . S
H693 C670 0.931 . S
H694 C672 0.930 . S
H695 C673 0.930 . S
Tb696 C698 2.809 . S
Tb696 O716 2.484 . S
Tb696 O717 2.440 . S
Tb696 O718 2.658 . S
Tb696 O719 2.409 . S
Tb696 O720 2.378 . S
Tb696 O724 2.325 . S
Tb696 O727 2.341 . S
Tb697 C707 2.809 . S
Tb697 O718 2.325 . S
Tb697 O721 2.341 . S
Tb697 O722 2.484 . S
Tb697 O723 2.440 . S
Tb697 O724 2.658 . S
Tb697 O725 2.409 . S
Tb697 O726 2.378 . S
C698 Tb696 2.809 . S
C698 C699 1.514 . S
C698 O716 1.248 . S
C698 O717 1.266 . S
C699 C698 1.514 . S
C699 C700 1.359 . S
C699 C704 1.348 . S
C700 C699 1.359 . S
C700 C701 1.380 . S
C700 H728 0.929 . S
C701 C700 1.380 . S
C701 C702 1.347 . S
C701 H729 0.931 . S
C702 C701 1.347 . S
C702 C703 1.369 . S
C703 C702 1.369 . S
C703 C704 1.408 . S
C703 H730 0.930 . S
C704 C699 1.348 . S
C704 C703 1.408 . S
C704 H731 0.930 . S
C705 O718 1.281 . S
C705 O719 1.254 . S
C706 O720 1.236 . S
C706 O721 1.266 . S
C707 Tb697 2.809 . S
C707 C708 1.514 . S
C707 O722 1.248 . S
C707 O723 1.266 . S
C708 C707 1.514 . S
C708 C709 1.359 . S
C708 C713 1.348 . S
C709 C708 1.359 . S
C709 C710 1.380 . S
C709 H732 0.929 . S
C710 C709 1.380 . S
C710 C711 1.347 . S
C710 H733 0.931 . S
C711 C710 1.347 . S
C711 C712 1.369 . S
C712 C711 1.369 . S
C712 C713 1.408 . S
C712 H734 0.930 . S
C713 C708 1.348 . S
C713 C712 1.408 . S
C713 H735 0.930 . S
C714 O724 1.281 . S
C714 O725 1.254 . S
C715 O726 1.236 . S
C715 O727 1.266 . S
O716 Tb696 2.484 . S
O716 C698 1.248 . S
O717 Tb696 2.440 . S
O717 C698 1.266 . S
O718 Tb696 2.658 . S
O718 Tb697 2.325 . S
O718 C705 1.281 . S
O719 Tb696 2.409 . S
O719 C705 1.254 . S
O720 Tb696 2.378 . S
O720 C706 1.236 . S
O721 Tb697 2.341 . S
O721 C706 1.266 . S
O722 Tb697 2.484 . S
O722 C707 1.248 . S
O723 Tb697 2.440 . S
O723 C707 1.266 . S
O724 Tb696 2.325 . S
O724 Tb697 2.658 . S
O724 C714 1.281 . S
O725 Tb697 2.409 . S
O725 C714 1.254 . S
O726 Tb697 2.378 . S
O726 C715 1.236 . S
O727 Tb696 2.341 . S
O727 C715 1.266 . S
H728 C700 0.929 . S
H729 C701 0.931 . S
H730 C703 0.930 . S
H731 C704 0.930 . S
H732 C709 0.929 . S
H733 C710 0.931 . S
H734 C712 0.930 . S
H735 C713 0.930 . S
Tb736 C738 2.809 1_455 S
Tb736 O756 2.484 1_455 S
Tb736 O757 2.440 1_455 S
Tb736 O758 2.658 . S
Tb736 O759 2.409 . S
Tb736 O760 2.378 . S
Tb736 O764 2.325 . S
Tb736 O767 2.341 . S
Tb737 C747 2.809 . S
Tb737 O758 2.325 . S
Tb737 O761 2.341 . S
Tb737 O762 2.484 . S
Tb737 O763 2.440 . S
Tb737 O764 2.658 . S
Tb737 O765 2.409 . S
Tb737 O766 2.378 . S
C738 Tb736 2.809 1_655 S
C738 C739 1.514 . S
C738 O756 1.248 . S
C738 O757 1.266 . S
C739 C738 1.514 . S
C739 C740 1.359 . S
C739 C744 1.348 . S
C740 C739 1.359 . S
C740 C741 1.380 . S
C740 H768 0.929 . S
C741 C740 1.380 . S
C741 C742 1.347 . S
C741 H769 0.931 . S
C742 C741 1.347 . S
C742 C743 1.369 . S
C743 C742 1.369 . S
C743 C744 1.408 . S
C743 H770 0.930 . S
C744 C739 1.348 . S
C744 C743 1.408 . S
C744 H771 0.930 . S
C745 O758 1.281 . S
C745 O759 1.254 . S
C746 O760 1.236 . S
C746 O761 1.266 . S
C747 Tb737 2.809 . S
C747 C748 1.514 . S
C747 O762 1.248 . S
C747 O763 1.266 . S
C748 C747 1.514 . S
C748 C749 1.359 . S
C748 C753 1.348 . S
C749 C748 1.359 . S
C749 C750 1.380 . S
C749 H772 0.929 . S
C750 C749 1.380 . S
C750 C751 1.347 . S
C750 H773 0.931 . S
C751 C750 1.347 . S
C751 C752 1.369 . S
C752 C751 1.369 . S
C752 C753 1.408 . S
C752 H774 0.930 . S
C753 C748 1.348 . S
C753 C752 1.408 . S
C753 H775 0.930 . S
C754 O764 1.281 . S
C754 O765 1.254 . S
C755 O766 1.236 . S
C755 O767 1.266 . S
O756 Tb736 2.484 1_655 S
O756 C738 1.248 . S
O757 Tb736 2.440 1_655 S
O757 C738 1.266 . S
O758 Tb736 2.658 . S
O758 Tb737 2.325 . S
O758 C745 1.281 . S
O759 Tb736 2.409 . S
O759 C745 1.254 . S
O760 Tb736 2.378 . S
O760 C746 1.236 . S
O761 Tb737 2.341 . S
O761 C746 1.266 . S
O762 Tb737 2.484 . S
O762 C747 1.248 . S
O763 Tb737 2.440 . S
O763 C747 1.266 . S
O764 Tb736 2.325 . S
O764 Tb737 2.658 . S
O764 C754 1.281 . S
O765 Tb737 2.409 . S
O765 C754 1.254 . S
O766 Tb737 2.378 . S
O766 C755 1.236 . S
O767 Tb736 2.341 . S
O767 C755 1.266 . S
H768 C740 0.929 . S
H769 C741 0.931 . S
H770 C743 0.930 . S
H771 C744 0.930 . S
H772 C749 0.929 . S
H773 C750 0.931 . S
H774 C752 0.930 . S
H775 C753 0.930 . S
Tb776 C778 2.809 . S
Tb776 O796 2.484 . S
Tb776 O797 2.440 . S
Tb776 O798 2.658 . S
Tb776 O799 2.409 . S
Tb776 O800 2.378 . S
Tb776 O804 2.325 . S
Tb776 O807 2.341 . S
Tb777 C787 2.809 . S
Tb777 O798 2.325 . S
Tb777 O801 2.341 . S
Tb777 O802 2.484 . S
Tb777 O803 2.440 . S
Tb777 O804 2.658 . S
Tb777 O805 2.409 . S
Tb777 O806 2.378 . S
C778 Tb776 2.809 . S
C778 C779 1.514 . S
C778 O796 1.248 . S
C778 O797 1.266 . S
C779 C778 1.514 . S
C779 C780 1.359 . S
C779 C784 1.348 . S
C780 C779 1.359 . S
C780 C781 1.380 . S
C780 H808 0.929 . S
C781 C780 1.380 . S
C781 C782 1.347 . S
C781 H809 0.931 . S
C782 C781 1.347 . S
C782 C783 1.369 . S
C783 C782 1.369 . S
C783 C784 1.408 . S
C783 H810 0.930 . S
C784 C779 1.348 . S
C784 C783 1.408 . S
C784 H811 0.930 . S
C785 O798 1.281 . S
C785 O799 1.254 . S
C786 O800 1.236 . S
C786 O801 1.266 . S
C787 Tb777 2.809 . S
C787 C788 1.514 . S
C787 O802 1.248 . S
C787 O803 1.266 . S
C788 C787 1.514 . S
C788 C789 1.359 . S
C788 C793 1.348 . S
C789 C788 1.359 . S
C789 C790 1.380 . S
C789 H812 0.929 . S
C790 C789 1.380 . S
C790 C791 1.347 . S
C790 H813 0.931 . S
C791 C790 1.347 . S
C791 C792 1.369 . S
C792 C791 1.369 . S
C792 C793 1.408 . S
C792 H814 0.930 . S
C793 C788 1.348 . S
C793 C792 1.408 . S
C793 H815 0.930 . S
C794 O804 1.281 . S
C794 O805 1.254 . S
C795 O806 1.236 . S
C795 O807 1.266 . S
O796 Tb776 2.484 . S
O796 C778 1.248 . S
O797 Tb776 2.440 . S
O797 C778 1.266 . S
O798 Tb776 2.658 . S
O798 Tb777 2.325 . S
O798 C785 1.281 . S
O799 Tb776 2.409 . S
O799 C785 1.254 . S
O800 Tb776 2.378 . S
O800 C786 1.236 . S
O801 Tb777 2.341 . S
O801 C786 1.266 . S
O802 Tb777 2.484 . S
O802 C787 1.248 . S
O803 Tb777 2.440 . S
O803 C787 1.266 . S
O804 Tb776 2.325 . S
O804 Tb777 2.658 . S
O804 C794 1.281 . S
O805 Tb777 2.409 . S
O805 C794 1.254 . S
O806 Tb777 2.378 . S
O806 C795 1.236 . S
O807 Tb776 2.341 . S
O807 C795 1.266 . S
H808 C780 0.929 . S
H809 C781 0.931 . S
H810 C783 0.930 . S
H811 C784 0.930 . S
H812 C789 0.929 . S
H813 C790 0.931 . S
H814 C792 0.930 . S
H815 C793 0.930 . S
Tb816 C818 2.809 . S
Tb816 O836 2.484 . S
Tb816 O837 2.440 . S
Tb816 O838 2.658 . S
Tb816 O839 2.409 . S
Tb816 O840 2.378 . S
Tb816 O844 2.325 . S
Tb816 O847 2.341 . S
Tb817 C827 2.809 . S
Tb817 O838 2.325 . S
Tb817 O841 2.341 . S
Tb817 O842 2.484 . S
Tb817 O843 2.440 . S
Tb817 O844 2.658 . S
Tb817 O845 2.409 . S
Tb817 O846 2.378 . S
C818 Tb816 2.809 . S
C818 C819 1.514 . S
C818 O836 1.248 . S
C818 O837 1.266 . S
C819 C818 1.514 . S
C819 C820 1.359 . S
C819 C824 1.348 . S
C820 C819 1.359 . S
C820 C821 1.380 . S
C820 H848 0.929 . S
C821 C820 1.380 . S
C821 C822 1.347 . S
C821 H849 0.931 . S
C822 C821 1.347 . S
C822 C823 1.369 . S
C823 C822 1.369 . S
C823 C824 1.408 . S
C823 H850 0.930 . S
C824 C819 1.348 . S
C824 C823 1.408 . S
C824 H851 0.930 . S
C825 O838 1.281 . S
C825 O839 1.254 . S
C826 O840 1.236 . S
C826 O841 1.266 . S
C827 Tb817 2.809 . S
C827 C828 1.514 . S
C827 O842 1.248 . S
C827 O843 1.266 . S
C828 C827 1.514 . S
C828 C829 1.359 . S
C828 C833 1.348 . S
C829 C828 1.359 . S
C829 C830 1.380 . S
C829 H852 0.929 . S
C830 C829 1.380 . S
C830 C831 1.347 . S
C830 H853 0.931 . S
C831 C830 1.347 . S
C831 C832 1.369 . S
C832 C831 1.369 . S
C832 C833 1.408 . S
C832 H854 0.930 . S
C833 C828 1.348 . S
C833 C832 1.408 . S
C833 H855 0.930 . S
C834 O844 1.281 . S
C834 O845 1.254 . S
C835 O846 1.236 . S
C835 O847 1.266 . S
O836 Tb816 2.484 . S
O836 C818 1.248 . S
O837 Tb816 2.440 . S
O837 C818 1.266 . S
O838 Tb816 2.658 . S
O838 Tb817 2.325 . S
O838 C825 1.281 . S
O839 Tb816 2.409 . S
O839 C825 1.254 . S
O840 Tb816 2.378 . S
O840 C826 1.236 . S
O841 Tb817 2.341 . S
O841 C826 1.266 . S
O842 Tb817 2.484 . S
O842 C827 1.248 . S
O843 Tb817 2.440 . S
O843 C827 1.266 . S
O844 Tb816 2.325 . S
O844 Tb817 2.658 . S
O844 C834 1.281 . S
O845 Tb817 2.409 . S
O845 C834 1.254 . S
O846 Tb817 2.378 . S
O846 C835 1.236 . S
O847 Tb816 2.341 . S
O847 C835 1.266 . S
H848 C820 0.929 . S
H849 C821 0.931 . S
H850 C823 0.930 . S
H851 C824 0.930 . S
H852 C829 0.929 . S
H853 C830 0.931 . S
H854 C832 0.930 . S
H855 C833 0.930 . S
Tb856 C858 2.809 . S
Tb856 O876 2.484 . S
Tb856 O877 2.440 . S
Tb856 O878 2.658 . S
Tb856 O879 2.409 . S
Tb856 O880 2.378 . S
Tb856 O884 2.325 . S
Tb856 O887 2.341 . S
Tb857 C867 2.809 . S
Tb857 O878 2.325 . S
Tb857 O881 2.341 . S
Tb857 O882 2.484 . S
Tb857 O883 2.440 . S
Tb857 O884 2.658 . S
Tb857 O885 2.409 . S
Tb857 O886 2.378 . S
C858 Tb856 2.809 . S
C858 C859 1.514 . S
C858 O876 1.248 . S
C858 O877 1.266 . S
C859 C858 1.514 . S
C859 C860 1.359 . S
C859 C864 1.348 . S
C860 C859 1.359 . S
C860 C861 1.380 . S
C860 H888 0.929 . S
C861 C860 1.380 . S
C861 C862 1.347 . S
C861 H889 0.931 . S
C862 C861 1.347 . S
C862 C863 1.369 . S
C863 C862 1.369 . S
C863 C864 1.408 . S
C863 H890 0.930 . S
C864 C859 1.348 . S
C864 C863 1.408 . S
C864 H891 0.930 . S
C865 O878 1.281 . S
C865 O879 1.254 . S
C866 O880 1.236 . S
C866 O881 1.266 . S
C867 Tb857 2.809 . S
C867 C868 1.514 . S
C867 O882 1.248 . S
C867 O883 1.266 . S
C868 C867 1.514 . S
C868 C869 1.359 . S
C868 C873 1.348 . S
C869 C868 1.359 . S
C869 C870 1.380 . S
C869 H892 0.929 . S
C870 C869 1.380 . S
C870 C871 1.347 . S
C870 H893 0.931 . S
C871 C870 1.347 . S
C871 C872 1.369 . S
C872 C871 1.369 . S
C872 C873 1.408 . S
C872 H894 0.930 . S
C873 C868 1.348 . S
C873 C872 1.408 . S
C873 H895 0.930 . S
C874 O884 1.281 . S
C874 O885 1.254 . S
C875 O886 1.236 . S
C875 O887 1.266 . S
O876 Tb856 2.484 . S
O876 C858 1.248 . S
O877 Tb856 2.440 . S
O877 C858 1.266 . S
O878 Tb856 2.658 . S
O878 Tb857 2.325 . S
O878 C865 1.281 . S
O879 Tb856 2.409 . S
O879 C865 1.254 . S
O880 Tb856 2.378 . S
O880 C866 1.236 . S
O881 Tb857 2.341 . S
O881 C866 1.266 . S
O882 Tb857 2.484 . S
O882 C867 1.248 . S
O883 Tb857 2.440 . S
O883 C867 1.266 . S
O884 Tb856 2.325 . S
O884 Tb857 2.658 . S
O884 C874 1.281 . S
O885 Tb857 2.409 . S
O885 C874 1.254 . S
O886 Tb857 2.378 . S
O886 C875 1.236 . S
O887 Tb856 2.341 . S
O887 C875 1.266 . S
H888 C860 0.929 . S
H889 C861 0.931 . S
H890 C863 0.930 . S
H891 C864 0.930 . S
H892 C869 0.929 . S
H893 C870 0.931 . S
H894 C872 0.930 . S
H895 C873 0.930 . S
Tb896 C898 2.809 . S
Tb896 O916 2.484 . S
Tb896 O917 2.440 . S
Tb896 O918 2.658 . S
Tb896 O919 2.409 . S
Tb896 O920 2.378 . S
Tb896 O924 2.325 . S
Tb896 O927 2.341 . S
Tb897 C907 2.809 . S
Tb897 O918 2.325 . S
Tb897 O921 2.341 . S
Tb897 O922 2.484 . S
Tb897 O923 2.440 . S
Tb897 O924 2.658 . S
Tb897 O925 2.409 . S
Tb897 O926 2.378 . S
C898 Tb896 2.809 . S
C898 C899 1.514 . S
C898 O916 1.248 . S
C898 O917 1.266 . S
C899 C898 1.514 . S
C899 C900 1.359 . S
C899 C904 1.348 . S
C900 C899 1.359 . S
C900 C901 1.380 . S
C900 H928 0.929 . S
C901 C900 1.380 . S
C901 C902 1.347 . S
C901 H929 0.931 . S
C902 C901 1.347 . S
C902 C903 1.369 . S
C903 C902 1.369 . S
C903 C904 1.408 . S
C903 H930 0.930 . S
C904 C899 1.348 . S
C904 C903 1.408 . S
C904 H931 0.930 . S
C905 O918 1.281 . S
C905 O919 1.254 . S
C906 O920 1.236 . S
C906 O921 1.266 . S
C907 Tb897 2.809 . S
C907 C908 1.514 . S
C907 O922 1.248 . S
C907 O923 1.266 . S
C908 C907 1.514 . S
C908 C909 1.359 . S
C908 C913 1.348 . S
C909 C908 1.359 . S
C909 C910 1.380 . S
C909 H932 0.929 . S
C910 C909 1.380 . S
C910 C911 1.347 . S
C910 H933 0.931 . S
C911 C910 1.347 . S
C911 C912 1.369 . S
C912 C911 1.369 . S
C912 C913 1.408 . S
C912 H934 0.930 . S
C913 C908 1.348 . S
C913 C912 1.408 . S
C913 H935 0.930 . S
C914 O924 1.281 . S
C914 O925 1.254 . S
C915 O926 1.236 . S
C915 O927 1.266 . S
O916 Tb896 2.484 . S
O916 C898 1.248 . S
O917 Tb896 2.440 . S
O917 C898 1.266 . S
O918 Tb896 2.658 . S
O918 Tb897 2.325 . S
O918 C905 1.281 . S
O919 Tb896 2.409 . S
O919 C905 1.254 . S
O920 Tb896 2.378 . S
O920 C906 1.236 . S
O921 Tb897 2.341 . S
O921 C906 1.266 . S
O922 Tb897 2.484 . S
O922 C907 1.248 . S
O923 Tb897 2.440 . S
O923 C907 1.266 . S
O924 Tb896 2.325 . S
O924 Tb897 2.658 . S
O924 C914 1.281 . S
O925 Tb897 2.409 . S
O925 C914 1.254 . S
O926 Tb897 2.378 . S
O926 C915 1.236 . S
O927 Tb896 2.341 . S
O927 C915 1.266 . S
H928 C900 0.929 . S
H929 C901 0.931 . S
H930 C903 0.930 . S
H931 C904 0.930 . S
H932 C909 0.929 . S
H933 C910 0.931 . S
H934 C912 0.930 . S
H935 C913 0.930 . S
Tb936 C938 2.809 . S
Tb936 O956 2.484 . S
Tb936 O957 2.440 . S
Tb936 O958 2.658 . S
Tb936 O959 2.409 . S
Tb936 O960 2.378 . S
Tb936 O964 2.325 . S
Tb936 O967 2.341 . S
Tb937 C947 2.809 1_455 S
Tb937 O958 2.325 . S
Tb937 O961 2.341 . S
Tb937 O962 2.484 1_455 S
Tb937 O963 2.440 1_455 S
Tb937 O964 2.658 . S
Tb937 O965 2.409 . S
Tb937 O966 2.378 . S
C938 Tb936 2.809 . S
C938 C939 1.514 . S
C938 O956 1.248 . S
C938 O957 1.266 . S
C939 C938 1.514 . S
C939 C940 1.359 . S
C939 C944 1.348 . S
C940 C939 1.359 . S
C940 C941 1.380 . S
C940 H968 0.929 . S
C941 C940 1.380 . S
C941 C942 1.347 . S
C941 H969 0.931 . S
C942 C941 1.347 . S
C942 C943 1.369 . S
C943 C942 1.369 . S
C943 C944 1.408 . S
C943 H970 0.930 1_554 S
C944 C939 1.348 . S
C944 C943 1.408 . S
C944 H971 0.930 1_554 S
C945 O958 1.281 . S
C945 O959 1.254 . S
C946 O960 1.236 . S
C946 O961 1.266 . S
C947 Tb937 2.809 1_655 S
C947 C948 1.514 . S
C947 O962 1.248 . S
C947 O963 1.266 . S
C948 C947 1.514 . S
C948 C949 1.359 . S
C948 C953 1.348 . S
C949 C948 1.359 . S
C949 C950 1.380 . S
C949 H972 0.929 . S
C950 C949 1.380 . S
C950 C951 1.347 . S
C950 H973 0.931 . S
C951 C950 1.347 . S
C951 C952 1.369 . S
C952 C951 1.369 . S
C952 C953 1.408 . S
C952 H974 0.930 . S
C953 C948 1.348 . S
C953 C952 1.408 . S
C953 H975 0.930 . S
C954 O964 1.281 . S
C954 O965 1.254 . S
C955 O966 1.236 . S
C955 O967 1.266 . S
O956 Tb936 2.484 . S
O956 C938 1.248 . S
O957 Tb936 2.440 . S
O957 C938 1.266 . S
O958 Tb936 2.658 . S
O958 Tb937 2.325 . S
O958 C945 1.281 . S
O959 Tb936 2.409 . S
O959 C945 1.254 . S
O960 Tb936 2.378 . S
O960 C946 1.236 . S
O961 Tb937 2.341 . S
O961 C946 1.266 . S
O962 Tb937 2.484 1_655 S
O962 C947 1.248 . S
O963 Tb937 2.440 1_655 S
O963 C947 1.266 . S
O964 Tb936 2.325 . S
O964 Tb937 2.658 . S
O964 C954 1.281 . S
O965 Tb937 2.409 . S
O965 C954 1.254 . S
O966 Tb937 2.378 . S
O966 C955 1.236 . S
O967 Tb936 2.341 . S
O967 C955 1.266 . S
H968 C940 0.929 . S
H969 C941 0.931 . S
H970 C943 0.930 1_556 S
H971 C944 0.930 1_556 S
H972 C949 0.929 . S
H973 C950 0.931 . S
H974 C952 0.930 . S
H975 C953 0.930 . S
H976 C982 0.930 1_656 S
H977 C985 0.930 . S
H978 C986 0.930 . S
H979 C987 0.930 . S
H980 C990 0.930 1_655 S
H981 C991 0.930 . S
C982 H976 0.930 1_454 S
C982 C983 1.355 . S
C982 C984 1.415 . S
C983 C982 1.355 . S
C983 C985 1.419 . S
C984 C982 1.415 . S
C984 C989 1.425 . S
C984 C991 1.409 1_455 S
C985 H977 0.930 . S
C985 C983 1.419 . S
C985 C986 1.362 . S
C986 H978 0.930 . S
C986 C985 1.362 . S
C986 C989 1.409 . S
C987 H979 0.930 . S
C987 C988 1.355 . S
C987 C989 1.415 . S
C988 C987 1.355 . S
C988 C990 1.419 . S
C989 C984 1.425 . S
C989 C986 1.409 . S
C989 C987 1.415 . S
C990 H980 0.930 1_455 S
C990 C988 1.419 . S
C990 C991 1.362 1_455 S
C991 H981 0.930 . S
C991 C984 1.409 1_655 S
C991 C990 1.362 1_655 S
H992 C998 0.930 . S
H993 C1001 0.930 . S
H994 C1002 0.930 . S
H995 C1003 0.930 . S
H996 C1006 0.930 . S
H997 C1007 0.930 . S
C998 H992 0.930 . S
C998 C999 1.355 . S
C998 C1000 1.415 . S
C999 C998 1.355 . S
C999 C1001 1.419 . S
C1000 C998 1.415 . S
C1000 C1005 1.425 . S
C1000 C1007 1.409 . S
C1001 H993 0.930 . S
C1001 C999 1.419 . S
C1001 C1002 1.362 . S
C1002 H994 0.930 . S
C1002 C1001 1.362 . S
C1002 C1005 1.409 . S
C1003 H995 0.930 . S
C1003 C1004 1.355 . S
C1003 C1005 1.415 . S
C1004 C1003 1.355 . S
C1004 C1006 1.419 . S
C1005 C1000 1.425 . S
C1005 C1002 1.409 . S
C1005 C1003 1.415 . S
C1006 H996 0.930 . S
C1006 C1004 1.419 . S
C1006 C1007 1.362 . S
C1007 H997 0.930 . S
C1007 C1000 1.409 . S
C1007 C1006 1.362 . S
H1008 C1014 0.930 . S
H1009 C1017 0.930 . S
H1010 C1018 0.930 . S
H1011 C1019 0.930 . S
H1012 C1022 0.930 . S
H1013 C1023 0.930 . S
C1014 H1008 0.930 . S
C1014 C1015 1.355 . S
C1014 C1016 1.415 . S
C1015 C1014 1.355 . S
C1015 C1017 1.419 . S
C1016 C1014 1.415 . S
C1016 C1021 1.425 . S
C1016 C1023 1.409 . S
C1017 H1009 0.930 . S
C1017 C1015 1.419 . S
C1017 C1018 1.362 . S
C1018 H1010 0.930 . S
C1018 C1017 1.362 . S
C1018 C1021 1.409 . S
C1019 H1011 0.930 . S
C1019 C1020 1.355 . S
C1019 C1021 1.415 . S
C1020 C1019 1.355 . S
C1020 C1022 1.419 . S
C1021 C1016 1.425 . S
C1021 C1018 1.409 . S
C1021 C1019 1.415 . S
C1022 H1012 0.930 . S
C1022 C1020 1.419 . S
C1022 C1023 1.362 . S
C1023 H1013 0.930 . S
C1023 C1016 1.409 . S
C1023 C1022 1.362 . S
H1024 C1030 0.930 . S
H1025 C1033 0.930 . S
H1026 C1034 0.930 . S
H1027 C1035 0.930 . S
H1028 C1038 0.930 . S
H1029 C1039 0.930 . S
C1030 H1024 0.930 . S
C1030 C1031 1.355 . S
C1030 C1032 1.415 . S
C1031 C1030 1.355 . S
C1031 C1033 1.419 . S
C1032 C1030 1.415 . S
C1032 C1037 1.425 . S
C1032 C1039 1.409 . S
C1033 H1025 0.930 . S
C1033 C1031 1.419 . S
C1033 C1034 1.362 . S
C1034 H1026 0.930 . S
C1034 C1033 1.362 . S
C1034 C1037 1.409 . S
C1035 H1027 0.930 . S
C1035 C1036 1.355 . S
C1035 C1037 1.415 . S
C1036 C1035 1.355 . S
C1036 C1038 1.419 . S
C1037 C1032 1.425 . S
C1037 C1034 1.409 . S
C1037 C1035 1.415 . S
C1038 H1028 0.930 . S
C1038 C1036 1.419 . S
C1038 C1039 1.362 . S
C1039 H1029 0.930 . S
C1039 C1032 1.409 . S
C1039 C1038 1.362 . S
H1040 C1046 0.930 . S
H1041 C1049 0.930 . S
H1042 C1050 0.930 . S
H1043 C1051 0.930 . S
H1044 C1054 0.930 . S
H1045 C1055 0.930 . S
C1046 H1040 0.930 . S
C1046 C1047 1.355 . S
C1046 C1048 1.415 . S
C1047 C1046 1.355 . S
C1047 C1049 1.419 . S
C1048 C1046 1.415 . S
C1048 C1053 1.425 . S
C1048 C1055 1.409 . S
C1049 H1041 0.930 . S
C1049 C1047 1.419 . S
C1049 C1050 1.362 . S
C1050 H1042 0.930 . S
C1050 C1049 1.362 . S
C1050 C1053 1.409 . S
C1051 H1043 0.930 . S
C1051 C1052 1.355 . S
C1051 C1053 1.415 . S
C1052 C1051 1.355 . S
C1052 C1054 1.419 . S
C1053 C1048 1.425 . S
C1053 C1050 1.409 . S
C1053 C1051 1.415 . S
C1054 H1044 0.930 . S
C1054 C1052 1.419 . S
C1054 C1055 1.362 . S
C1055 H1045 0.930 . S
C1055 C1048 1.409 . S
C1055 C1054 1.362 . S
H1056 C1062 0.930 . S
H1057 C1065 0.930 . S
H1058 C1066 0.930 . S
H1059 C1067 0.930 . S
H1060 C1070 0.930 . S
H1061 C1071 0.930 . S
C1062 H1056 0.930 . S
C1062 C1063 1.355 . S
C1062 C1064 1.415 . S
C1063 C1062 1.355 . S
C1063 C1065 1.419 . S
C1064 C1062 1.415 . S
C1064 C1069 1.425 . S
C1064 C1071 1.409 . S
C1065 H1057 0.930 . S
C1065 C1063 1.419 . S
C1065 C1066 1.362 . S
C1066 H1058 0.930 . S
C1066 C1065 1.362 . S
C1066 C1069 1.409 . S
C1067 H1059 0.930 . S
C1067 C1068 1.355 . S
C1067 C1069 1.415 . S
C1068 C1067 1.355 . S
C1068 C1070 1.419 . S
C1069 C1064 1.425 . S
C1069 C1066 1.409 . S
C1069 C1067 1.415 . S
C1070 H1060 0.930 . S
C1070 C1068 1.419 . S
C1070 C1071 1.362 . S
C1071 H1061 0.930 . S
C1071 C1064 1.409 . S
C1071 C1070 1.362 . S
H1072 C1078 0.930 . S
H1073 C1081 0.930 . S
H1074 C1082 0.930 . S
H1075 C1083 0.930 . S
H1076 C1086 0.930 . S
H1077 C1087 0.930 . S
C1078 H1072 0.930 . S
C1078 C1079 1.355 . S
C1078 C1080 1.415 . S
C1079 C1078 1.355 . S
C1079 C1081 1.419 . S
C1080 C1078 1.415 . S
C1080 C1085 1.425 . S
C1080 C1087 1.409 . S
C1081 H1073 0.930 . S
C1081 C1079 1.419 . S
C1081 C1082 1.362 . S
C1082 H1074 0.930 . S
C1082 C1081 1.362 . S
C1082 C1085 1.409 . S
C1083 H1075 0.930 . S
C1083 C1084 1.355 . S
C1083 C1085 1.415 . S
C1084 C1083 1.355 . S
C1084 C1086 1.419 . S
C1085 C1080 1.425 . S
C1085 C1082 1.409 . S
C1085 C1083 1.415 . S
C1086 H1076 0.930 . S
C1086 C1084 1.419 . S
C1086 C1087 1.362 . S
C1087 H1077 0.930 . S
C1087 C1080 1.409 . S
C1087 C1086 1.362 . S
H1088 C1094 0.930 . S
H1089 C1097 0.930 . S
H1090 C1098 0.930 . S
H1091 C1099 0.930 . S
H1092 C1102 0.930 . S
H1093 C1103 0.930 . S
C1094 H1088 0.930 . S
C1094 C1095 1.355 . S
C1094 C1096 1.415 . S
C1095 C1094 1.355 . S
C1095 C1097 1.419 . S
C1096 C1094 1.415 . S
C1096 C1101 1.425 . S
C1096 C1103 1.409 . S
C1097 H1089 0.930 . S
C1097 C1095 1.419 . S
C1097 C1098 1.362 . S
C1098 H1090 0.930 . S
C1098 C1097 1.362 . S
C1098 C1101 1.409 . S
C1099 H1091 0.930 . S
C1099 C1100 1.355 . S
C1099 C1101 1.415 . S
C1100 C1099 1.355 . S
C1100 C1102 1.419 . S
C1101 C1096 1.425 . S
C1101 C1098 1.409 . S
C1101 C1099 1.415 . S
C1102 H1092 0.930 . S
C1102 C1100 1.419 . S
C1102 C1103 1.362 . S
C1103 H1093 0.930 . S
C1103 C1096 1.409 . S
C1103 C1102 1.362 . S
H1104 C1110 0.930 . S
H1105 C1113 0.930 . S
H1106 C1114 0.930 . S
H1107 C1115 0.930 . S
H1108 C1118 0.930 . S
H1109 C1119 0.930 . S
C1110 H1104 0.930 . S
C1110 C1111 1.355 . S
C1110 C1112 1.415 1_655 S
C1111 C1110 1.355 . S
C1111 C1113 1.419 1_545 S
C1112 C1110 1.415 1_455 S
C1112 C1117 1.426 1_455 S
C1112 C1119 1.408 . S
C1113 H1105 0.930 . S
C1113 C1111 1.419 1_565 S
C1113 C1114 1.362 . S
C1114 H1106 0.930 . S
C1114 C1113 1.362 . S
C1114 C1117 1.409 1_565 S
C1115 H1107 0.930 . S
C1115 C1116 1.355 1_655 S
C1115 C1117 1.415 . S
C1116 C1115 1.355 1_455 S
C1116 C1118 1.419 . S
C1117 C1112 1.426 1_655 S
C1117 C1114 1.409 1_545 S
C1117 C1115 1.415 . S
C1118 H1108 0.930 . S
C1118 C1116 1.419 . S
C1118 C1119 1.362 . S
C1119 H1109 0.930 . S
C1119 C1112 1.408 . S
C1119 C1118 1.362 . S
H1120 C1126 0.930 . S
H1121 C1129 0.930 . S
H1122 C1130 0.930 . S
H1123 C1131 0.930 . S
H1124 C1134 0.930 . S
H1125 C1135 0.930 . S
C1126 H1120 0.930 . S
C1126 C1127 1.355 . S
C1126 C1128 1.415 . S
C1127 C1126 1.355 . S
C1127 C1129 1.419 . S
C1128 C1126 1.415 . S
C1128 C1133 1.425 . S
C1128 C1135 1.409 . S
C1129 H1121 0.930 . S
C1129 C1127 1.419 . S
C1129 C1130 1.362 . S
C1130 H1122 0.930 . S
C1130 C1129 1.362 . S
C1130 C1133 1.409 . S
C1131 H1123 0.930 . S
C1131 C1132 1.355 . S
C1131 C1133 1.415 . S
C1132 C1131 1.355 . S
C1132 C1134 1.419 . S
C1133 C1128 1.425 . S
C1133 C1130 1.409 . S
C1133 C1131 1.415 . S
C1134 H1124 0.930 . S
C1134 C1132 1.419 . S
C1134 C1135 1.362 . S
C1135 H1125 0.930 . S
C1135 C1128 1.409 . S
C1135 C1134 1.362 . S
H1136 C1142 0.930 1_565 S
H1137 C1145 0.930 . S
H1138 C1146 0.930 . S
H1139 C1147 0.930 . S
H1140 C1150 0.930 1_565 S
H1141 C1151 0.964 . S
C1142 H1136 0.930 1_545 S
C1142 C1143 1.355 . S
C1142 C1144 1.415 . S
C1143 C1142 1.355 . S
C1143 C1145 1.419 . S
C1144 C1142 1.415 . S
C1144 C1149 1.425 . S
C1144 C1151 1.397 1_545 S
C1145 H1137 0.930 . S
C1145 C1143 1.419 . S
C1145 C1146 1.362 . S
C1146 H1138 0.930 . S
C1146 C1145 1.362 . S
C1146 C1149 1.409 . S
C1147 H1139 0.930 . S
C1147 C1148 1.355 . S
C1147 C1149 1.415 . S
C1148 C1147 1.355 . S
C1148 C1150 1.419 . S
C1149 C1144 1.425 . S
C1149 C1146 1.409 . S
C1149 C1147 1.415 . S
C1150 H1140 0.930 1_545 S
C1150 C1148 1.419 . S
C1150 C1151 1.343 1_545 S
C1151 H1141 0.964 . S
C1151 C1144 1.397 1_565 S
C1151 C1150 1.343 1_565 S
H1152 C1158 0.930 . S
H1153 C1161 0.930 . S
H1154 C1162 0.930 . S
H1155 C1163 0.930 . S
H1156 C1166 0.930 . S
H1157 C1167 0.930 . S
C1158 H1152 0.930 . S
C1158 C1159 1.355 . S
C1158 C1160 1.415 . S
C1159 C1158 1.355 . S
C1159 C1161 1.419 . S
C1160 C1158 1.415 . S
C1160 C1165 1.425 . S
C1160 C1167 1.409 . S
C1161 H1153 0.930 . S
C1161 C1159 1.419 . S
C1161 C1162 1.362 . S
C1162 H1154 0.930 . S
C1162 C1161 1.362 . S
C1162 C1165 1.409 . S
C1163 H1155 0.930 . S
C1163 C1164 1.355 . S
C1163 C1165 1.415 . S
C1164 C1163 1.355 . S
C1164 C1166 1.419 . S
C1165 C1160 1.425 . S
C1165 C1162 1.409 . S
C1165 C1163 1.415 . S
C1166 H1156 0.930 . S
C1166 C1164 1.419 . S
C1166 C1167 1.362 . S
C1167 H1157 0.930 . S
C1167 C1160 1.409 . S
C1167 C1166 1.362 . S
H1168 C1174 0.930 1_455 S
H1169 C1177 0.930 . S
H1170 C1178 0.932 1_565 S
H1171 C1179 0.930 . S
H1172 C1182 0.930 . S
H1173 C1183 0.930 . S
C1174 H1168 0.930 1_655 S
C1174 C1175 1.355 . S
C1174 C1176 1.413 1_655 S
C1175 C1174 1.355 . S
C1175 C1177 1.419 1_545 S
C1176 C1174 1.413 1_455 S
C1176 C1181 1.418 1_455 S
C1176 C1183 1.417 . S
C1177 H1169 0.930 . S
C1177 C1175 1.419 1_565 S
C1177 C1178 1.362 1_565 S
C1178 H1170 0.932 1_545 S
C1178 C1177 1.362 1_545 S
C1178 C1181 1.408 . S
C1179 H1171 0.930 . S
C1179 C1180 1.355 1_655 S
C1179 C1181 1.415 . S
C1180 C1179 1.355 1_455 S
C1180 C1182 1.419 . S
C1181 C1176 1.418 1_655 S
C1181 C1178 1.408 . S
C1181 C1179 1.415 . S
C1182 H1172 0.930 . S
C1182 C1180 1.419 . S
C1182 C1183 1.362 . S
C1183 H1173 0.930 . S
C1183 C1176 1.417 . S
C1183 C1182 1.362 . S
H1184 C1190 0.930 . S
H1185 C1193 0.930 . S
H1186 C1194 0.930 . S
H1187 C1195 0.930 . S
H1188 C1198 0.930 . S
H1189 C1199 0.930 . S
C1190 H1184 0.930 . S
C1190 C1191 1.355 . S
C1190 C1192 1.415 . S
C1191 C1190 1.355 . S
C1191 C1193 1.419 . S
C1192 C1190 1.415 . S
C1192 C1197 1.425 . S
C1192 C1199 1.409 . S
C1193 H1185 0.930 . S
C1193 C1191 1.419 . S
C1193 C1194 1.362 . S
C1194 H1186 0.930 . S
C1194 C1193 1.362 . S
C1194 C1197 1.409 . S
C1195 H1187 0.930 . S
C1195 C1196 1.355 . S
C1195 C1197 1.415 . S
C1196 C1195 1.355 . S
C1196 C1198 1.419 . S
C1197 C1192 1.425 . S
C1197 C1194 1.409 . S
C1197 C1195 1.415 . S
C1198 H1188 0.930 . S
C1198 C1196 1.419 . S
C1198 C1199 1.362 . S
C1199 H1189 0.930 . S
C1199 C1192 1.409 . S
C1199 C1198 1.362 . S
H1200 C1206 0.930 . S
H1201 C1209 0.930 . S
H1202 C1210 0.930 . S
H1203 C1211 0.930 1_554 S
H1204 C1214 0.930 . S
H1205 C1215 0.930 . S
C1206 H1200 0.930 . S
C1206 C1207 1.355 . S
C1206 C1208 1.415 . S
C1207 C1206 1.355 . S
C1207 C1209 1.419 . S
C1208 C1206 1.415 . S
C1208 C1213 1.425 . S
C1208 C1215 1.409 . S
C1209 H1201 0.930 . S
C1209 C1207 1.419 . S
C1209 C1210 1.362 . S
C1210 H1202 0.930 . S
C1210 C1209 1.362 . S
C1210 C1213 1.409 . S
C1211 H1203 0.930 1_556 S
C1211 C1212 1.355 . S
C1211 C1213 1.415 . S
C1212 C1211 1.355 . S
C1212 C1214 1.419 . S
C1213 C1208 1.425 . S
C1213 C1210 1.409 . S
C1213 C1211 1.415 . S
C1214 H1204 0.930 . S
C1214 C1212 1.419 . S
C1214 C1215 1.362 . S
C1215 H1205 0.930 . S
C1215 C1208 1.409 . S
C1215 C1214 1.362 . S
H1216 C1222 0.930 . S
H1217 C1225 0.930 . S
H1218 C1226 0.930 . S
H1219 C1227 0.930 . S
H1220 C1230 0.930 . S
H1221 C1231 0.930 . S
C1222 H1216 0.930 . S
C1222 C1223 1.355 . S
C1222 C1224 1.415 . S
C1223 C1222 1.355 . S
C1223 C1225 1.419 . S
C1224 C1222 1.415 . S
C1224 C1229 1.425 . S
C1224 C1231 1.409 . S
C1225 H1217 0.930 . S
C1225 C1223 1.419 . S
C1225 C1226 1.362 . S
C1226 H1218 0.930 . S
C1226 C1225 1.362 . S
C1226 C1229 1.409 . S
C1227 H1219 0.930 . S
C1227 C1228 1.355 . S
C1227 C1229 1.415 . S
C1228 C1227 1.355 . S
C1228 C1230 1.419 . S
C1229 C1224 1.425 . S
C1229 C1226 1.409 . S
C1229 C1227 1.415 . S
C1230 H1220 0.930 . S
C1230 C1228 1.419 . S
C1230 C1231 1.362 . S
C1231 H1221 0.930 . S
C1231 C1224 1.409 . S
C1231 C1230 1.362 . S
H1232 C1238 0.930 . S
H1233 C1241 0.930 . S
H1234 C1242 0.930 . S
H1235 C1243 0.930 . S
H1236 C1246 0.930 . S
H1237 C1247 0.930 . S
C1238 H1232 0.930 . S
C1238 C1239 1.355 . S
C1238 C1240 1.415 . S
C1239 C1238 1.355 . S
C1239 C1241 1.419 . S
C1240 C1238 1.415 . S
C1240 C1245 1.425 . S
C1240 C1247 1.409 . S
C1241 H1233 0.930 . S
C1241 C1239 1.419 . S
C1241 C1242 1.362 . S
C1242 H1234 0.930 . S
C1242 C1241 1.362 . S
C1242 C1245 1.409 . S
C1243 H1235 0.930 . S
C1243 C1244 1.355 . S
C1243 C1245 1.415 . S
C1244 C1243 1.355 . S
C1244 C1246 1.419 . S
C1245 C1240 1.425 . S
C1245 C1242 1.409 . S
C1245 C1243 1.415 . S
C1246 H1236 0.930 . S
C1246 C1244 1.419 . S
C1246 C1247 1.362 . S
C1247 H1237 0.930 . S
C1247 C1240 1.409 . S
C1247 C1246 1.362 . S
H1248 C1254 0.930 . S
H1249 C1257 0.930 . S
H1250 C1258 0.930 . S
H1251 C1259 0.930 . S
H1252 C1262 0.930 . S
H1253 C1263 0.930 1_556 S
C1254 H1248 0.930 . S
C1254 C1255 1.355 . S
C1254 C1256 1.415 . S
C1255 C1254 1.355 . S
C1255 C1257 1.419 . S
C1256 C1254 1.415 . S
C1256 C1261 1.425 . S
C1256 C1263 1.409 . S
C1257 H1249 0.930 . S
C1257 C1255 1.419 . S
C1257 C1258 1.362 . S
C1258 H1250 0.930 . S
C1258 C1257 1.362 . S
C1258 C1261 1.409 . S
C1259 H1251 0.930 . S
C1259 C1260 1.355 . S
C1259 C1261 1.415 . S
C1260 C1259 1.355 . S
C1260 C1262 1.419 . S
C1261 C1256 1.425 . S
C1261 C1258 1.409 . S
C1261 C1259 1.415 . S
C1262 H1252 0.930 . S
C1262 C1260 1.419 . S
C1262 C1263 1.362 . S
C1263 H1253 0.930 1_554 S
C1263 C1256 1.409 . S
C1263 C1262 1.362 . S
H1264 C1270 0.930 . S
H1265 C1273 0.930 . S
H1266 C1274 0.930 . S
H1267 C1275 0.930 . S
H1268 C1278 0.930 . S
H1269 C1279 0.930 . S
C1270 H1264 0.930 . S
C1270 C1271 1.355 . S
C1270 C1272 1.415 . S
C1271 C1270 1.355 . S
C1271 C1273 1.419 . S
C1272 C1270 1.415 . S
C1272 C1277 1.425 . S
C1272 C1279 1.409 . S
C1273 H1265 0.930 . S
C1273 C1271 1.419 . S
C1273 C1274 1.362 . S
C1274 H1266 0.930 . S
C1274 C1273 1.362 . S
C1274 C1277 1.409 . S
C1275 H1267 0.930 . S
C1275 C1276 1.355 . S
C1275 C1277 1.415 . S
C1276 C1275 1.355 . S
C1276 C1278 1.419 . S
C1277 C1272 1.425 . S
C1277 C1274 1.409 . S
C1277 C1275 1.415 . S
C1278 H1268 0.930 . S
C1278 C1276 1.419 . S
C1278 C1279 1.362 . S
C1279 H1269 0.930 . S
C1279 C1272 1.409 . S
C1279 C1278 1.362 . S
H1280 C1286 0.930 . S
H1281 C1289 0.930 . S
H1282 C1290 0.930 . S
H1283 C1291 0.930 . S
H1284 C1294 0.930 . S
H1285 C1295 0.930 . S
C1286 H1280 0.930 . S
C1286 C1287 1.355 . S
C1286 C1288 1.415 . S
C1287 C1286 1.355 . S
C1287 C1289 1.419 . S
C1288 C1286 1.415 . S
C1288 C1293 1.425 . S
C1288 C1295 1.409 . S
C1289 H1281 0.930 . S
C1289 C1287 1.419 . S
C1289 C1290 1.362 . S
C1290 H1282 0.930 . S
C1290 C1289 1.362 . S
C1290 C1293 1.409 . S
C1291 H1283 0.930 . S
C1291 C1292 1.355 . S
C1291 C1293 1.415 . S
C1292 C1291 1.355 . S
C1292 C1294 1.419 . S
C1293 C1288 1.425 . S
C1293 C1290 1.409 . S
C1293 C1291 1.415 . S
C1294 H1284 0.930 . S
C1294 C1292 1.419 . S
C1294 C1295 1.362 . S
C1295 H1285 0.930 . S
C1295 C1288 1.409 . S
C1295 C1294 1.362 . S
H1296 C1302 0.930 . S
H1297 C1305 0.930 . S
H1298 C1306 0.930 . S
H1299 C1307 0.930 . S
H1300 C1310 0.930 . S
H1301 C1311 0.930 . S
C1302 H1296 0.930 . S
C1302 C1303 1.355 . S
C1302 C1304 1.415 . S
C1303 C1302 1.355 . S
C1303 C1305 1.419 . S
C1304 C1302 1.415 . S
C1304 C1309 1.425 . S
C1304 C1311 1.409 . S
C1305 H1297 0.930 . S
C1305 C1303 1.419 . S
C1305 C1306 1.362 . S
C1306 H1298 0.930 . S
C1306 C1305 1.362 . S
C1306 C1309 1.409 . S
C1307 H1299 0.930 . S
C1307 C1308 1.355 . S
C1307 C1309 1.415 . S
C1308 C1307 1.355 . S
C1308 C1310 1.419 . S
C1309 C1304 1.425 . S
C1309 C1306 1.409 . S
C1309 C1307 1.415 . S
C1310 H1300 0.930 . S
C1310 C1308 1.419 . S
C1310 C1311 1.362 . S
C1311 H1301 0.930 . S
C1311 C1304 1.409 . S
C1311 C1310 1.362 . S
H1312 C1318 0.930 . S
H1313 C1321 0.930 . S
H1314 C1322 0.930 . S
H1315 C1323 0.930 . S
H1316 C1326 0.930 . S
H1317 C1327 0.930 . S
C1318 H1312 0.930 . S
C1318 C1319 1.355 . S
C1318 C1320 1.415 . S
C1319 C1318 1.355 . S
C1319 C1321 1.419 . S
C1320 C1318 1.415 . S
C1320 C1325 1.425 . S
C1320 C1327 1.409 . S
C1321 H1313 0.930 . S
C1321 C1319 1.419 . S
C1321 C1322 1.362 . S
C1322 H1314 0.930 . S
C1322 C1321 1.362 . S
C1322 C1325 1.409 . S
C1323 H1315 0.930 . S
C1323 C1324 1.355 . S
C1323 C1325 1.415 . S
C1324 C1323 1.355 . S
C1324 C1326 1.419 . S
C1325 C1320 1.425 . S
C1325 C1322 1.409 . S
C1325 C1323 1.415 . S
C1326 H1316 0.930 . S
C1326 C1324 1.419 . S
C1326 C1327 1.362 . S
C1327 H1317 0.930 . S
C1327 C1320 1.409 . S
C1327 C1326 1.362 . S
H1328 C1334 0.930 . S
H1329 C1337 0.930 . S
H1330 C1338 0.930 . S
H1331 C1339 0.930 . S
H1332 C1342 0.930 . S
H1333 C1343 0.930 . S
C1334 H1328 0.930 . S
C1334 C1335 1.355 . S
C1334 C1336 1.415 . S
C1335 C1334 1.355 . S
C1335 C1337 1.419 . S
C1336 C1334 1.415 . S
C1336 C1341 1.425 . S
C1336 C1343 1.409 . S
C1337 H1329 0.930 . S
C1337 C1335 1.419 . S
C1337 C1338 1.362 . S
C1338 H1330 0.930 . S
C1338 C1337 1.362 . S
C1338 C1341 1.409 . S
C1339 H1331 0.930 . S
C1339 C1340 1.355 . S
C1339 C1341 1.415 . S
C1340 C1339 1.355 . S
C1340 C1342 1.419 . S
C1341 C1336 1.425 . S
C1341 C1338 1.409 . S
C1341 C1339 1.415 . S
C1342 H1332 0.930 . S
C1342 C1340 1.419 . S
C1342 C1343 1.362 . S
C1343 H1333 0.930 . S
C1343 C1336 1.409 . S
C1343 C1342 1.362 . S
H1344 C1350 0.930 . S
H1345 C1353 0.930 . S
H1346 C1354 0.930 . S
H1347 C1355 0.930 . S
H1348 C1358 0.930 . S
H1349 C1359 0.930 . S
C1350 H1344 0.930 . S
C1350 C1351 1.355 . S
C1350 C1352 1.415 . S
C1351 C1350 1.355 . S
C1351 C1353 1.419 . S
C1352 C1350 1.415 . S
C1352 C1357 1.425 . S
C1352 C1359 1.409 . S
C1353 H1345 0.930 . S
C1353 C1351 1.419 . S
C1353 C1354 1.362 . S
C1354 H1346 0.930 . S
C1354 C1353 1.362 . S
C1354 C1357 1.409 . S
C1355 H1347 0.930 . S
C1355 C1356 1.355 . S
C1355 C1357 1.415 . S
C1356 C1355 1.355 . S
C1356 C1358 1.419 . S
C1357 C1352 1.425 . S
C1357 C1354 1.409 . S
C1357 C1355 1.415 . S
C1358 H1348 0.930 . S
C1358 C1356 1.419 . S
C1358 C1359 1.362 . S
C1359 H1349 0.930 . S
C1359 C1352 1.409 . S
C1359 C1358 1.362 . S
H1360 C1366 0.930 . S
H1361 C1369 0.930 . S
H1362 C1370 0.930 . S
H1363 C1371 0.930 . S
H1364 C1374 0.930 . S
H1365 C1375 0.930 . S
C1366 H1360 0.930 . S
C1366 C1367 1.355 . S
C1366 C1368 1.415 . S
C1367 C1366 1.355 . S
C1367 C1369 1.419 . S
C1368 C1366 1.415 . S
C1368 C1373 1.425 . S
C1368 C1375 1.409 . S
C1369 H1361 0.930 . S
C1369 C1367 1.419 . S
C1369 C1370 1.362 . S
C1370 H1362 0.930 . S
C1370 C1369 1.362 . S
C1370 C1373 1.409 . S
C1371 H1363 0.930 . S
C1371 C1372 1.355 . S
C1371 C1373 1.415 . S
C1372 C1371 1.355 . S
C1372 C1374 1.419 . S
C1373 C1368 1.425 . S
C1373 C1370 1.409 . S
C1373 C1371 1.415 . S
C1374 H1364 0.930 . S
C1374 C1372 1.419 . S
C1374 C1375 1.362 . S
C1375 H1365 0.930 . S
C1375 C1368 1.409 . S
C1375 C1374 1.362 . S
H1376 C1382 0.930 . S
H1377 C1385 0.930 . S
H1378 C1386 0.930 . S
H1379 C1387 0.930 . S
H1380 C1390 0.930 . S
H1381 C1391 0.930 . S
C1382 H1376 0.930 . S
C1382 C1383 1.355 . S
C1382 C1384 1.415 . S
C1383 C1382 1.355 . S
C1383 C1385 1.419 . S
C1384 C1382 1.415 . S
C1384 C1389 1.425 . S
C1384 C1391 1.409 . S
C1385 H1377 0.930 . S
C1385 C1383 1.419 . S
C1385 C1386 1.362 . S
C1386 H1378 0.930 . S
C1386 C1385 1.362 . S
C1386 C1389 1.409 . S
C1387 H1379 0.930 . S
C1387 C1388 1.355 . S
C1387 C1389 1.415 . S
C1388 C1387 1.355 . S
C1388 C1390 1.419 . S
C1389 C1384 1.425 . S
C1389 C1386 1.409 . S
C1389 C1387 1.415 . S
C1390 H1380 0.930 . S
C1390 C1388 1.419 . S
C1390 C1391 1.362 . S
C1391 H1381 0.930 . S
C1391 C1384 1.409 . S
C1391 C1390 1.362 . S
H1392 C1398 0.930 . S
H1393 C1401 0.930 . S
H1394 C1402 0.930 . S
H1395 C1403 0.930 . S
H1396 C1406 0.930 . S
H1397 C1407 0.930 . S
C1398 H1392 0.930 . S
C1398 C1399 1.355 . S
C1398 C1400 1.415 . S
C1399 C1398 1.355 . S
C1399 C1401 1.419 . S
C1400 C1398 1.415 . S
C1400 C1405 1.425 . S
C1400 C1407 1.409 . S
C1401 H1393 0.930 . S
C1401 C1399 1.419 . S
C1401 C1402 1.362 . S
C1402 H1394 0.930 . S
C1402 C1401 1.362 . S
C1402 C1405 1.409 . S
C1403 H1395 0.930 . S
C1403 C1404 1.355 . S
C1403 C1405 1.415 . S
C1404 C1403 1.355 . S
C1404 C1406 1.419 . S
C1405 C1400 1.425 . S
C1405 C1402 1.409 . S
C1405 C1403 1.415 . S
C1406 H1396 0.930 . S
C1406 C1404 1.419 . S
C1406 C1407 1.362 . S
C1407 H1397 0.930 . S
C1407 C1400 1.409 . S
C1407 C1406 1.362 . S
H1408 C1414 0.930 . S
H1409 C1417 0.930 . S
H1410 C1418 0.930 . S
H1411 C1419 0.930 . S
H1412 C1422 0.930 . S
H1413 C1423 0.930 . S
C1414 H1408 0.930 . S
C1414 C1415 1.355 . S
C1414 C1416 1.415 . S
C1415 C1414 1.355 . S
C1415 C1417 1.419 . S
C1416 C1414 1.415 . S
C1416 C1421 1.425 . S
C1416 C1423 1.409 . S
C1417 H1409 0.930 . S
C1417 C1415 1.419 . S
C1417 C1418 1.362 . S
C1418 H1410 0.930 . S
C1418 C1417 1.362 . S
C1418 C1421 1.409 . S
C1419 H1411 0.930 . S
C1419 C1420 1.355 . S
C1419 C1421 1.415 . S
C1420 C1419 1.355 . S
C1420 C1422 1.419 . S
C1421 C1416 1.425 . S
C1421 C1418 1.409 . S
C1421 C1419 1.415 . S
C1422 H1412 0.930 . S
C1422 C1420 1.419 . S
C1422 C1423 1.362 . S
C1423 H1413 0.930 . S
C1423 C1416 1.409 . S
C1423 C1422 1.362 . S
H1424 C1430 0.930 . S
H1425 C1433 0.930 . S
H1426 C1434 0.930 . S
H1427 C1435 0.930 . S
H1428 C1438 0.930 . S
H1429 C1439 0.930 . S
C1430 H1424 0.930 . S
C1430 C1431 1.355 1_655 S
C1430 C1432 1.415 . S
C1431 C1430 1.355 1_455 S
C1431 C1433 1.419 . S
C1432 C1430 1.415 . S
C1432 C1437 1.425 1_655 S
C1432 C1439 1.409 . S
C1433 H1425 0.930 . S
C1433 C1431 1.419 . S
C1433 C1434 1.362 . S
C1434 H1426 0.930 . S
C1434 C1433 1.362 . S
C1434 C1437 1.409 . S
C1435 H1427 0.930 . S
C1435 C1436 1.355 1_455 S
C1435 C1437 1.415 . S
C1436 C1435 1.355 1_655 S
C1436 C1438 1.419 . S
C1437 C1432 1.425 1_455 S
C1437 C1434 1.409 . S
C1437 C1435 1.415 . S
C1438 H1428 0.930 . S
C1438 C1436 1.419 . S
C1438 C1439 1.362 . S
C1439 H1429 0.930 . S
C1439 C1432 1.409 . S
C1439 C1438 1.362 . S
H1440 C1446 0.930 . S
H1441 C1449 0.930 . S
H1442 C1450 0.930 . S
H1443 C1451 0.930 . S
H1444 C1454 0.930 . S
H1445 C1455 0.930 . S
C1446 H1440 0.930 . S
C1446 C1447 1.355 . S
C1446 C1448 1.415 . S
C1447 C1446 1.355 . S
C1447 C1449 1.419 . S
C1448 C1446 1.415 . S
C1448 C1453 1.425 . S
C1448 C1455 1.409 . S
C1449 H1441 0.930 . S
C1449 C1447 1.419 . S
C1449 C1450 1.362 . S
C1450 H1442 0.930 . S
C1450 C1449 1.362 . S
C1450 C1453 1.409 . S
C1451 H1443 0.930 . S
C1451 C1452 1.355 . S
C1451 C1453 1.415 . S
C1452 C1451 1.355 . S
C1452 C1454 1.419 . S
C1453 C1448 1.425 . S
C1453 C1450 1.409 . S
C1453 C1451 1.415 . S
C1454 H1444 0.930 . S
C1454 C1452 1.419 . S
C1454 C1455 1.362 . S
C1455 H1445 0.930 . S
C1455 C1448 1.409 . S
C1455 C1454 1.362 . S
H1456 C1462 0.930 . S
H1457 C1465 0.930 . S
H1458 C1466 0.930 1_554 S
H1459 C1467 0.930 . S
H1460 C1470 0.929 . S
H1461 C1471 0.930 . S
C1462 H1456 0.930 . S
C1462 C1463 1.355 . S
C1462 C1464 1.415 . S
C1463 C1462 1.355 . S
C1463 C1465 1.419 . S
C1464 C1462 1.415 . S
C1464 C1469 1.425 . S
C1464 C1471 1.409 . S
C1465 H1457 0.930 . S
C1465 C1463 1.419 . S
C1465 C1466 1.362 . S
C1466 H1458 0.930 1_556 S
C1466 C1465 1.362 . S
C1466 C1469 1.409 . S
C1467 H1459 0.930 . S
C1467 C1468 1.355 . S
C1467 C1469 1.415 1_554 S
C1468 C1467 1.355 . S
C1468 C1470 1.419 1_554 S
C1469 C1464 1.425 . S
C1469 C1466 1.409 . S
C1469 C1467 1.415 1_556 S
C1470 H1460 0.929 . S
C1470 C1468 1.419 1_556 S
C1470 C1471 1.362 . S
C1471 H1461 0.930 . S
C1471 C1464 1.409 . S
C1471 C1470 1.362 . S
H1472 C1478 0.930 . S
H1473 C1481 0.930 . S
H1474 C1482 0.930 . S
H1475 C1483 0.930 . S
H1476 C1486 0.930 . S
H1477 C1487 0.930 . S
C1478 H1472 0.930 . S
C1478 C1479 1.355 . S
C1478 C1480 1.415 1_455 S
C1479 C1478 1.355 . S
C1479 C1481 1.419 1_455 S
C1480 C1478 1.415 1_655 S
C1480 C1485 1.425 . S
C1480 C1487 1.409 . S
C1481 H1473 0.930 . S
C1481 C1479 1.419 1_655 S
C1481 C1482 1.362 . S
C1482 H1474 0.930 . S
C1482 C1481 1.362 . S
C1482 C1485 1.409 . S
C1483 H1475 0.930 . S
C1483 C1484 1.355 . S
C1483 C1485 1.415 . S
C1484 C1483 1.355 . S
C1484 C1486 1.419 . S
C1485 C1480 1.425 . S
C1485 C1482 1.409 . S
C1485 C1483 1.415 . S
C1486 H1476 0.930 . S
C1486 C1484 1.419 . S
C1486 C1487 1.362 . S
C1487 H1477 0.930 . S
C1487 C1480 1.409 . S
C1487 C1486 1.362 . S
H1488 C1494 0.930 . S
H1489 C1497 0.930 . S
H1490 C1498 0.930 . S
H1491 C1499 0.930 . S
H1492 C1502 0.930 . S
H1493 C1503 0.930 . S
C1494 H1488 0.930 . S
C1494 C1495 1.355 . S
C1494 C1496 1.415 . S
C1495 C1494 1.355 . S
C1495 C1497 1.419 . S
C1496 C1494 1.415 . S
C1496 C1501 1.425 . S
C1496 C1503 1.409 . S
C1497 H1489 0.930 . S
C1497 C1495 1.419 . S
C1497 C1498 1.362 . S
C1498 H1490 0.930 . S
C1498 C1497 1.362 . S
C1498 C1501 1.409 . S
C1499 H1491 0.930 . S
C1499 C1500 1.355 . S
C1499 C1501 1.415 . S
C1500 C1499 1.355 . S
C1500 C1502 1.419 . S
C1501 C1496 1.425 . S
C1501 C1498 1.409 . S
C1501 C1499 1.415 . S
C1502 H1492 0.930 . S
C1502 C1500 1.419 . S
C1502 C1503 1.362 . S
C1503 H1493 0.930 . S
C1503 C1496 1.409 . S
C1503 C1502 1.362 . S
H1504 C1510 0.930 . S
H1505 C1513 0.930 . S
H1506 C1514 0.930 . S
H1507 C1515 0.930 . S
H1508 C1518 0.930 . S
H1509 C1519 0.930 . S
C1510 H1504 0.930 . S
C1510 C1511 1.355 . S
C1510 C1512 1.415 . S
C1511 C1510 1.355 . S
C1511 C1513 1.419 . S
C1512 C1510 1.415 . S
C1512 C1517 1.425 . S
C1512 C1519 1.409 . S
C1513 H1505 0.930 . S
C1513 C1511 1.419 . S
C1513 C1514 1.362 . S
C1514 H1506 0.930 . S
C1514 C1513 1.362 . S
C1514 C1517 1.409 . S
C1515 H1507 0.930 . S
C1515 C1516 1.355 . S
C1515 C1517 1.415 . S
C1516 C1515 1.355 . S
C1516 C1518 1.419 . S
C1517 C1512 1.425 . S
C1517 C1514 1.409 . S
C1517 C1515 1.415 . S
C1518 H1508 0.930 . S
C1518 C1516 1.419 . S
C1518 C1519 1.362 . S
C1519 H1509 0.930 . S
C1519 C1512 1.409 . S
C1519 C1518 1.362 . S
H1520 C1526 0.930 . S
H1521 C1529 0.930 . S
H1522 C1530 0.958 . S
H1523 C1531 0.930 . S
H1524 C1534 0.930 . S
H1525 C1535 0.930 . S
C1526 H1520 0.930 . S
C1526 C1527 1.355 . S
C1526 C1528 1.415 . S
C1527 C1526 1.355 . S
C1527 C1529 1.419 . S
C1528 C1526 1.415 . S
C1528 C1533 1.425 . S
C1528 C1535 1.409 . S
C1529 H1521 0.930 . S
C1529 C1527 1.419 . S
C1529 C1530 1.362 . S
C1530 H1522 0.958 . S
C1530 C1529 1.362 . S
C1530 C1533 1.409 . S
C1531 H1523 0.930 . S
C1531 C1532 1.355 . S
C1531 C1533 1.415 . S
C1532 C1531 1.355 . S
C1532 C1534 1.419 . S
C1533 C1528 1.425 . S
C1533 C1530 1.409 . S
C1533 C1531 1.415 . S
C1534 H1524 0.930 . S
C1534 C1532 1.419 . S
C1534 C1535 1.362 . S
C1535 H1525 0.930 . S
C1535 C1528 1.409 . S
C1535 C1534 1.362 . S
H1536 C1542 0.930 . S
H1537 C1545 0.930 . S
H1538 C1546 0.930 . S
H1539 C1547 0.930 . S
H1540 C1550 0.930 . S
H1541 C1551 0.930 . S
C1542 H1536 0.930 . S
C1542 C1543 1.355 . S
C1542 C1544 1.415 . S
C1543 C1542 1.355 . S
C1543 C1545 1.419 . S
C1544 C1542 1.415 . S
C1544 C1549 1.425 . S
C1544 C1551 1.409 . S
C1545 H1537 0.930 . S
C1545 C1543 1.419 . S
C1545 C1546 1.362 . S
C1546 H1538 0.930 . S
C1546 C1545 1.362 . S
C1546 C1549 1.409 . S
C1547 H1539 0.930 . S
C1547 C1548 1.355 . S
C1547 C1549 1.415 . S
C1548 C1547 1.355 . S
C1548 C1550 1.419 . S
C1549 C1544 1.425 . S
C1549 C1546 1.409 . S
C1549 C1547 1.415 . S
C1550 H1540 0.930 . S
C1550 C1548 1.419 . S
C1550 C1551 1.362 . S
C1551 H1541 0.930 . S
C1551 C1544 1.409 . S
C1551 C1550 1.362 . S
H1552 C1558 0.930 . S
H1553 C1561 0.930 . S
H1554 C1562 0.930 . S
H1555 C1563 0.930 . S
H1556 C1566 0.930 . S
H1557 C1567 0.930 . S
C1558 H1552 0.930 . S
C1558 C1559 1.355 . S
C1558 C1560 1.415 . S
C1559 C1558 1.355 . S
C1559 C1561 1.419 . S
C1560 C1558 1.415 . S
C1560 C1565 1.425 . S
C1560 C1567 1.409 . S
C1561 H1553 0.930 . S
C1561 C1559 1.419 . S
C1561 C1562 1.362 . S
C1562 H1554 0.930 . S
C1562 C1561 1.362 . S
C1562 C1565 1.409 . S
C1563 H1555 0.930 . S
C1563 C1564 1.355 . S
C1563 C1565 1.415 . S
C1564 C1563 1.355 . S
C1564 C1566 1.419 . S
C1565 C1560 1.425 . S
C1565 C1562 1.409 . S
C1565 C1563 1.415 . S
C1566 H1556 0.930 . S
C1566 C1564 1.419 . S
C1566 C1567 1.362 . S
C1567 H1557 0.930 . S
C1567 C1560 1.409 . S
C1567 C1566 1.362 . S
H1568 C1574 0.930 . S
H1569 C1577 0.930 . S
H1570 C1578 0.930 . S
H1571 C1579 0.930 . S
H1572 C1582 0.930 . S
H1573 C1583 0.930 . S
C1574 H1568 0.930 . S
C1574 C1575 1.355 . S
C1574 C1576 1.415 . S
C1575 C1574 1.355 . S
C1575 C1577 1.419 . S
C1576 C1574 1.415 . S
C1576 C1581 1.425 . S
C1576 C1583 1.409 . S
C1577 H1569 0.930 . S
C1577 C1575 1.419 . S
C1577 C1578 1.362 . S
C1578 H1570 0.930 . S
C1578 C1577 1.362 . S
C1578 C1581 1.409 . S
C1579 H1571 0.930 . S
C1579 C1580 1.355 . S
C1579 C1581 1.415 . S
C1580 C1579 1.355 . S
C1580 C1582 1.419 . S
C1581 C1576 1.425 . S
C1581 C1578 1.409 . S
C1581 C1579 1.415 . S
C1582 H1572 0.930 . S
C1582 C1580 1.419 . S
C1582 C1583 1.362 . S
C1583 H1573 0.930 . S
C1583 C1576 1.409 . S
C1583 C1582 1.362 . S
H1584 C1590 0.930 . S
H1585 C1593 0.930 . S
H1586 C1594 0.930 . S
H1587 C1595 0.930 . S
H1588 C1598 0.922 1_565 S
H1589 C1599 0.930 1_565 S
C1590 H1584 0.930 . S
C1590 C1591 1.355 . S
C1590 C1592 1.415 . S
C1591 C1590 1.355 . S
C1591 C1593 1.419 . S
C1592 C1590 1.415 . S
C1592 C1597 1.425 . S
C1592 C1599 1.409 . S
C1593 H1585 0.930 . S
C1593 C1591 1.419 . S
C1593 C1594 1.362 . S
C1594 H1586 0.930 . S
C1594 C1593 1.362 . S
C1594 C1597 1.409 . S
C1595 H1587 0.930 . S
C1595 C1596 1.355 . S
C1595 C1597 1.415 . S
C1596 C1595 1.355 . S
C1596 C1598 1.425 . S
C1597 C1592 1.425 . S
C1597 C1594 1.409 . S
C1597 C1595 1.415 . S
C1598 H1588 0.922 1_545 S
C1598 C1596 1.425 . S
C1598 C1599 1.366 . S
C1599 H1589 0.930 1_545 S
C1599 C1592 1.409 . S
C1599 C1598 1.366 . S
H1600 C1606 0.930 . S
H1601 C1609 0.930 . S
H1602 C1610 0.930 . S
H1603 C1611 0.930 . S
H1604 C1614 0.930 . S
H1605 C1615 0.930 . S
C1606 H1600 0.930 . S
C1606 C1607 1.355 . S
C1606 C1608 1.415 . S
C1607 C1606 1.355 . S
C1607 C1609 1.419 . S
C1608 C1606 1.415 . S
C1608 C1613 1.425 . S
C1608 C1615 1.409 . S
C1609 H1601 0.930 . S
C1609 C1607 1.419 . S
C1609 C1610 1.362 . S
C1610 H1602 0.930 . S
C1610 C1609 1.362 . S
C1610 C1613 1.409 . S
C1611 H1603 0.930 . S
C1611 C1612 1.355 . S
C1611 C1613 1.415 . S
C1612 C1611 1.355 . S
C1612 C1614 1.419 . S
C1613 C1608 1.425 . S
C1613 C1610 1.409 . S
C1613 C1611 1.415 . S
C1614 H1604 0.930 . S
C1614 C1612 1.419 . S
C1614 C1615 1.362 . S
C1615 H1605 0.930 . S
C1615 C1608 1.409 . S
C1615 C1614 1.362 . S
H1616 C1622 0.930 . S
H1617 C1625 0.930 . S
H1618 C1626 0.930 . S
H1619 C1627 0.930 . S
H1620 C1630 0.930 . S
H1621 C1631 0.930 . S
C1622 H1616 0.930 . S
C1622 C1623 1.355 . S
C1622 C1624 1.415 . S
C1623 C1622 1.355 . S
C1623 C1625 1.419 . S
C1624 C1622 1.415 . S
C1624 C1629 1.425 . S
C1624 C1631 1.409 . S
C1625 H1617 0.930 . S
C1625 C1623 1.419 . S
C1625 C1626 1.362 . S
C1626 H1618 0.930 . S
C1626 C1625 1.362 . S
C1626 C1629 1.409 . S
C1627 H1619 0.930 . S
C1627 C1628 1.355 . S
C1627 C1629 1.415 . S
C1628 C1627 1.355 . S
C1628 C1630 1.419 . S
C1629 C1624 1.425 . S
C1629 C1626 1.409 . S
C1629 C1627 1.415 . S
C1630 H1620 0.930 . S
C1630 C1628 1.419 . S
C1630 C1631 1.362 . S
C1631 H1621 0.930 . S
C1631 C1624 1.409 . S
C1631 C1630 1.362 . S
H1632 C1638 0.930 . S
H1633 C1641 0.930 . S
H1634 C1642 0.930 . S
H1635 C1643 0.930 . S
H1636 C1646 0.930 . S
H1637 C1647 0.930 . S
C1638 H1632 0.930 . S
C1638 C1639 1.355 . S
C1638 C1640 1.415 . S
C1639 C1638 1.355 . S
C1639 C1641 1.419 . S
C1640 C1638 1.415 . S
C1640 C1645 1.425 . S
C1640 C1647 1.409 . S
C1641 H1633 0.930 . S
C1641 C1639 1.419 . S
C1641 C1642 1.362 . S
C1642 H1634 0.930 . S
C1642 C1641 1.362 . S
C1642 C1645 1.409 . S
C1643 H1635 0.930 . S
C1643 C1644 1.355 . S
C1643 C1645 1.415 . S
C1644 C1643 1.355 . S
C1644 C1646 1.419 . S
C1645 C1640 1.425 . S
C1645 C1642 1.409 . S
C1645 C1643 1.415 . S
C1646 H1636 0.930 . S
C1646 C1644 1.419 . S
C1646 C1647 1.362 . S
C1647 H1637 0.930 . S
C1647 C1640 1.409 . S
C1647 C1646 1.362 . S
H1648 C1654 0.930 . S
H1649 C1657 0.930 . S
H1650 C1658 0.930 . S
H1651 C1659 0.930 . S
H1652 C1662 0.930 . S
H1653 C1663 0.930 . S
C1654 H1648 0.930 . S
C1654 C1655 1.355 . S
C1654 C1656 1.415 . S
C1655 C1654 1.355 . S
C1655 C1657 1.419 . S
C1656 C1654 1.415 . S
C1656 C1661 1.425 . S
C1656 C1663 1.409 . S
C1657 H1649 0.930 . S
C1657 C1655 1.419 . S
C1657 C1658 1.362 . S
C1658 H1650 0.930 . S
C1658 C1657 1.362 . S
C1658 C1661 1.409 . S
C1659 H1651 0.930 . S
C1659 C1660 1.355 . S
C1659 C1661 1.415 . S
C1660 C1659 1.355 . S
C1660 C1662 1.419 . S
C1661 C1656 1.425 . S
C1661 C1658 1.409 . S
C1661 C1659 1.415 . S
C1662 H1652 0.930 . S
C1662 C1660 1.419 . S
C1662 C1663 1.362 . S
C1663 H1653 0.930 . S
C1663 C1656 1.409 . S
C1663 C1662 1.362 . S
H1664 C1670 0.930 . S
H1665 C1673 0.930 . S
H1666 C1674 0.930 . S
H1667 C1675 0.930 . S
H1668 C1678 0.930 . S
H1669 C1679 0.930 . S
C1670 H1664 0.930 . S
C1670 C1671 1.355 . S
C1670 C1672 1.415 . S
C1671 C1670 1.355 . S
C1671 C1673 1.419 . S
C1672 C1670 1.415 . S
C1672 C1677 1.425 . S
C1672 C1679 1.409 . S
C1673 H1665 0.930 . S
C1673 C1671 1.419 . S
C1673 C1674 1.362 . S
C1674 H1666 0.930 . S
C1674 C1673 1.362 . S
C1674 C1677 1.409 . S
C1675 H1667 0.930 . S
C1675 C1676 1.355 . S
C1675 C1677 1.415 . S
C1676 C1675 1.355 . S
C1676 C1678 1.419 . S
C1677 C1672 1.425 . S
C1677 C1674 1.409 . S
C1677 C1675 1.415 . S
C1678 H1668 0.930 . S
C1678 C1676 1.419 . S
C1678 C1679 1.362 . S
C1679 H1669 0.930 . S
C1679 C1672 1.409 . S
C1679 C1678 1.362 . S
H1680 C1686 0.930 . S
H1681 C1689 0.930 . S
H1682 C1690 0.930 . S
H1683 C1691 0.930 . S
H1684 C1694 0.930 . S
H1685 C1695 0.930 . S
C1686 H1680 0.930 . S
C1686 C1687 1.355 . S
C1686 C1688 1.415 . S
C1687 C1686 1.355 . S
C1687 C1689 1.419 . S
C1688 C1686 1.415 . S
C1688 C1693 1.425 . S
C1688 C1695 1.409 . S
C1689 H1681 0.930 . S
C1689 C1687 1.419 . S
C1689 C1690 1.362 . S
C1690 H1682 0.930 . S
C1690 C1689 1.362 . S
C1690 C1693 1.409 . S
C1691 H1683 0.930 . S
C1691 C1692 1.355 . S
C1691 C1693 1.415 . S
C1692 C1691 1.355 . S
C1692 C1694 1.419 . S
C1693 C1688 1.425 . S
C1693 C1690 1.409 . S
C1693 C1691 1.415 . S
C1694 H1684 0.930 . S
C1694 C1692 1.419 . S
C1694 C1695 1.362 . S
C1695 H1685 0.930 . S
C1695 C1688 1.409 . S
C1695 C1694 1.362 . S
H1696 C1702 0.930 . S
H1697 C1705 0.930 . S
H1698 C1706 0.930 . S
H1699 C1707 0.930 . S
H1700 C1710 0.930 . S
H1701 C1711 0.930 . S
C1702 H1696 0.930 . S
C1702 C1703 1.355 . S
C1702 C1704 1.415 . S
C1703 C1702 1.355 . S
C1703 C1705 1.419 . S
C1704 C1702 1.415 . S
C1704 C1709 1.425 . S
C1704 C1711 1.409 . S
C1705 H1697 0.930 . S
C1705 C1703 1.419 . S
C1705 C1706 1.362 . S
C1706 H1698 0.930 . S
C1706 C1705 1.362 . S
C1706 C1709 1.409 . S
C1707 H1699 0.930 . S
C1707 C1708 1.355 . S
C1707 C1709 1.415 . S
C1708 C1707 1.355 . S
C1708 C1710 1.419 . S
C1709 C1704 1.425 . S
C1709 C1706 1.409 . S
C1709 C1707 1.415 . S
C1710 H1700 0.930 . S
C1710 C1708 1.419 . S
C1710 C1711 1.362 . S
C1711 H1701 0.930 . S
C1711 C1704 1.409 . S
C1711 C1710 1.362 . S
H1712 C1718 0.930 . S
H1713 C1721 0.930 . S
H1714 C1722 0.930 . S
H1715 C1723 0.930 . S
H1716 C1726 0.930 . S
H1717 C1727 0.930 . S
C1718 H1712 0.930 . S
C1718 C1719 1.355 . S
C1718 C1720 1.415 . S
C1719 C1718 1.355 . S
C1719 C1721 1.419 . S
C1720 C1718 1.415 . S
C1720 C1725 1.425 . S
C1720 C1727 1.409 . S
C1721 H1713 0.930 . S
C1721 C1719 1.419 . S
C1721 C1722 1.362 . S
C1722 H1714 0.930 . S
C1722 C1721 1.362 . S
C1722 C1725 1.409 . S
C1723 H1715 0.930 . S
C1723 C1724 1.355 . S
C1723 C1725 1.415 . S
C1724 C1723 1.355 . S
C1724 C1726 1.419 . S
C1725 C1720 1.425 . S
C1725 C1722 1.409 . S
C1725 C1723 1.415 . S
C1726 H1716 0.930 . S
C1726 C1724 1.419 . S
C1726 C1727 1.362 . S
C1727 H1717 0.930 . S
C1727 C1720 1.409 . S
C1727 C1726 1.362 . S
H1728 C1734 0.930 . S
H1729 C1737 0.930 . S
H1730 C1738 0.930 . S
H1731 C1739 0.930 . S
H1732 C1742 0.930 . S
H1733 C1743 0.930 . S
C1734 H1728 0.930 . S
C1734 C1735 1.355 . S
C1734 C1736 1.415 . S
C1735 C1734 1.355 . S
C1735 C1737 1.419 . S
C1736 C1734 1.415 . S
C1736 C1741 1.425 . S
C1736 C1743 1.409 . S
C1737 H1729 0.930 . S
C1737 C1735 1.419 . S
C1737 C1738 1.362 . S
C1738 H1730 0.930 . S
C1738 C1737 1.362 . S
C1738 C1741 1.409 . S
C1739 H1731 0.930 . S
C1739 C1740 1.355 . S
C1739 C1741 1.415 . S
C1740 C1739 1.355 . S
C1740 C1742 1.419 . S
C1741 C1736 1.425 . S
C1741 C1738 1.409 . S
C1741 C1739 1.415 . S
C1742 H1732 0.930 . S
C1742 C1740 1.419 . S
C1742 C1743 1.362 . S
C1743 H1733 0.930 . S
C1743 C1736 1.409 . S
C1743 C1742 1.362 . S
H1744 C1750 0.930 . S
H1745 C1753 0.930 . S
H1746 C1754 0.930 . S
H1747 C1755 0.930 . S
H1748 C1758 0.930 . S
H1749 C1759 0.930 . S
C1750 H1744 0.930 . S
C1750 C1751 1.355 . S
C1750 C1752 1.415 . S
C1751 C1750 1.355 . S
C1751 C1753 1.419 . S
C1752 C1750 1.415 . S
C1752 C1757 1.425 . S
C1752 C1759 1.409 . S
C1753 H1745 0.930 . S
C1753 C1751 1.419 . S
C1753 C1754 1.362 . S
C1754 H1746 0.930 . S
C1754 C1753 1.362 . S
C1754 C1757 1.409 . S
C1755 H1747 0.930 . S
C1755 C1756 1.355 . S
C1755 C1757 1.415 . S
C1756 C1755 1.355 . S
C1756 C1758 1.419 . S
C1757 C1752 1.425 . S
C1757 C1754 1.409 . S
C1757 C1755 1.415 . S
C1758 H1748 0.930 . S
C1758 C1756 1.419 . S
C1758 C1759 1.362 . S
C1759 H1749 0.930 . S
C1759 C1752 1.409 . S
C1759 C1758 1.362 . S
H1760 C1766 0.930 . S
H1761 C1769 0.930 . S
H1762 C1770 0.930 . S
H1763 C1771 0.930 . S
H1764 C1774 0.930 . S
H1765 C1775 0.930 . S
C1766 H1760 0.930 . S
C1766 C1767 1.355 . S
C1766 C1768 1.415 . S
C1767 C1766 1.355 . S
C1767 C1769 1.419 . S
C1768 C1766 1.415 . S
C1768 C1773 1.425 . S
C1768 C1775 1.409 . S
C1769 H1761 0.930 . S
C1769 C1767 1.419 . S
C1769 C1770 1.362 . S
C1770 H1762 0.930 . S
C1770 C1769 1.362 . S
C1770 C1773 1.409 . S
C1771 H1763 0.930 . S
C1771 C1772 1.355 . S
C1771 C1773 1.415 . S
C1772 C1771 1.355 . S
C1772 C1774 1.419 . S
C1773 C1768 1.425 . S
C1773 C1770 1.409 . S
C1773 C1771 1.415 . S
C1774 H1764 0.930 . S
C1774 C1772 1.419 . S
C1774 C1775 1.362 . S
C1775 H1765 0.930 . S
C1775 C1768 1.409 . S
C1775 C1774 1.362 . S
H1776 C1782 0.930 . S
H1777 C1785 0.930 . S
H1778 C1786 0.930 . S
H1779 C1787 0.930 . S
H1780 C1790 0.906 1_556 S
H1781 C1791 0.930 . S
C1782 H1776 0.930 . S
C1782 C1783 1.355 1_556 S
C1782 C1784 1.415 1_556 S
C1783 C1782 1.355 1_554 S
C1783 C1785 1.419 . S
C1784 C1782 1.415 1_554 S
C1784 C1789 1.425 . S
C1784 C1791 1.409 1_554 S
C1785 H1777 0.930 . S
C1785 C1783 1.419 . S
C1785 C1786 1.362 . S
C1786 H1778 0.930 . S
C1786 C1785 1.362 . S
C1786 C1789 1.409 . S
C1787 H1779 0.930 . S
C1787 C1788 1.355 . S
C1787 C1789 1.415 . S
C1788 C1787 1.355 . S
C1788 C1790 1.419 . S
C1789 C1784 1.425 . S
C1789 C1786 1.409 . S
C1789 C1787 1.415 . S
C1790 H1780 0.906 1_554 S
C1790 C1788 1.419 . S
C1790 C1791 1.362 1_554 S
C1791 H1781 0.930 . S
C1791 C1784 1.409 1_556 S
C1791 C1790 1.362 1_556 S
H1792 C1798 0.930 . S
H1793 C1801 0.930 . S
H1794 C1802 0.930 . S
H1795 C1803 0.930 . S
H1796 C1806 0.930 . S
H1797 C1807 0.930 . S
C1798 H1792 0.930 . S
C1798 C1799 1.355 . S
C1798 C1800 1.415 . S
C1799 C1798 1.355 . S
C1799 C1801 1.419 . S
C1800 C1798 1.415 . S
C1800 C1805 1.425 . S
C1800 C1807 1.409 . S
C1801 H1793 0.930 . S
C1801 C1799 1.419 . S
C1801 C1802 1.362 . S
C1802 H1794 0.930 . S
C1802 C1801 1.362 . S
C1802 C1805 1.409 . S
C1803 H1795 0.930 . S
C1803 C1804 1.355 . S
C1803 C1805 1.415 . S
C1804 C1803 1.355 . S
C1804 C1806 1.419 . S
C1805 C1800 1.425 . S
C1805 C1802 1.409 . S
C1805 C1803 1.415 . S
C1806 H1796 0.930 . S
C1806 C1804 1.419 . S
C1806 C1807 1.362 . S
C1807 H1797 0.930 . S
C1807 C1800 1.409 . S
C1807 C1806 1.362 . S
H1808 C1814 0.930 . S
H1809 C1817 0.930 . S
H1810 C1818 0.930 . S
H1811 C1819 0.930 . S
H1812 C1822 0.930 . S
H1813 C1823 0.930 . S
C1814 H1808 0.930 . S
C1814 C1815 1.355 . S
C1814 C1816 1.415 . S
C1815 C1814 1.355 . S
C1815 C1817 1.419 . S
C1816 C1814 1.415 . S
C1816 C1821 1.425 . S
C1816 C1823 1.409 . S
C1817 H1809 0.930 . S
C1817 C1815 1.419 . S
C1817 C1818 1.362 . S
C1818 H1810 0.930 . S
C1818 C1817 1.362 . S
C1818 C1821 1.409 . S
C1819 H1811 0.930 . S
C1819 C1820 1.355 . S
C1819 C1821 1.415 . S
C1820 C1819 1.355 . S
C1820 C1822 1.419 . S
C1821 C1816 1.425 . S
C1821 C1818 1.409 . S
C1821 C1819 1.415 . S
C1822 H1812 0.930 . S
C1822 C1820 1.419 . S
C1822 C1823 1.362 . S
C1823 H1813 0.930 . S
C1823 C1816 1.409 . S
C1823 C1822 1.362 . S
H1824 C1830 0.930 . S
H1825 C1833 0.930 . S
H1826 C1834 0.930 . S
H1827 C1835 0.930 . S
H1828 C1838 0.930 . S
H1829 C1839 0.930 . S
C1830 H1824 0.930 . S
C1830 C1831 1.355 . S
C1830 C1832 1.415 . S
C1831 C1830 1.355 . S
C1831 C1833 1.419 . S
C1832 C1830 1.415 . S
C1832 C1837 1.425 . S
C1832 C1839 1.409 . S
C1833 H1825 0.930 . S
C1833 C1831 1.419 . S
C1833 C1834 1.362 . S
C1834 H1826 0.930 . S
C1834 C1833 1.362 . S
C1834 C1837 1.409 . S
C1835 H1827 0.930 . S
C1835 C1836 1.355 . S
C1835 C1837 1.415 . S
C1836 C1835 1.355 . S
C1836 C1838 1.419 . S
C1837 C1832 1.425 . S
C1837 C1834 1.409 . S
C1837 C1835 1.415 . S
C1838 H1828 0.930 . S
C1838 C1836 1.419 . S
C1838 C1839 1.362 . S
C1839 H1829 0.930 . S
C1839 C1832 1.409 . S
C1839 C1838 1.362 . S
H1840 C1846 0.930 . S
H1841 C1849 0.930 . S
H1842 C1850 0.930 . S
H1843 C1851 0.930 . S
H1844 C1854 0.930 . S
H1845 C1855 0.930 . S
C1846 H1840 0.930 . S
C1846 C1847 1.355 . S
C1846 C1848 1.415 . S
C1847 C1846 1.355 . S
C1847 C1849 1.419 . S
C1848 C1846 1.415 . S
C1848 C1853 1.425 . S
C1848 C1855 1.409 . S
C1849 H1841 0.930 . S
C1849 C1847 1.419 . S
C1849 C1850 1.362 . S
C1850 H1842 0.930 . S
C1850 C1849 1.362 . S
C1850 C1853 1.409 . S
C1851 H1843 0.930 . S
C1851 C1852 1.355 . S
C1851 C1853 1.415 . S
C1852 C1851 1.355 . S
C1852 C1854 1.419 . S
C1853 C1848 1.425 . S
C1853 C1850 1.409 . S
C1853 C1851 1.415 . S
C1854 H1844 0.930 . S
C1854 C1852 1.419 . S
C1854 C1855 1.362 . S
C1855 H1845 0.930 . S
C1855 C1848 1.409 . S
C1855 C1854 1.362 . S
H1856 C1862 0.930 . S
H1857 C1865 0.930 . S
H1858 C1866 0.930 . S
H1859 C1867 0.930 . S
H1860 C1870 0.930 . S
H1861 C1871 0.930 . S
C1862 H1856 0.930 . S
C1862 C1863 1.355 . S
C1862 C1864 1.415 . S
C1863 C1862 1.355 . S
C1863 C1865 1.419 . S
C1864 C1862 1.415 . S
C1864 C1869 1.425 . S
C1864 C1871 1.409 . S
C1865 H1857 0.930 . S
C1865 C1863 1.419 . S
C1865 C1866 1.362 . S
C1866 H1858 0.930 . S
C1866 C1865 1.362 . S
C1866 C1869 1.409 . S
C1867 H1859 0.930 . S
C1867 C1868 1.355 . S
C1867 C1869 1.415 . S
C1868 C1867 1.355 . S
C1868 C1870 1.419 . S
C1869 C1864 1.425 . S
C1869 C1866 1.409 . S
C1869 C1867 1.415 . S
C1870 H1860 0.930 . S
C1870 C1868 1.419 . S
C1870 C1871 1.362 . S
C1871 H1861 0.930 . S
C1871 C1864 1.409 . S
C1871 C1870 1.362 . S
H1872 C1878 0.930 . S
H1873 C1881 0.930 . S
H1874 C1882 0.930 . S
H1875 C1883 0.930 . S
H1876 C1886 0.930 . S
H1877 C1887 0.930 . S
C1878 H1872 0.930 . S
C1878 C1879 1.355 . S
C1878 C1880 1.415 . S
C1879 C1878 1.355 . S
C1879 C1881 1.419 . S
C1880 C1878 1.415 . S
C1880 C1885 1.425 . S
C1880 C1887 1.409 . S
C1881 H1873 0.930 . S
C1881 C1879 1.419 . S
C1881 C1882 1.362 . S
C1882 H1874 0.930 . S
C1882 C1881 1.362 . S
C1882 C1885 1.409 . S
C1883 H1875 0.930 . S
C1883 C1884 1.355 . S
C1883 C1885 1.415 . S
C1884 C1883 1.355 . S
C1884 C1886 1.419 . S
C1885 C1880 1.425 . S
C1885 C1882 1.409 . S
C1885 C1883 1.415 . S
C1886 H1876 0.930 . S
C1886 C1884 1.419 . S
C1886 C1887 1.362 . S
C1887 H1877 0.930 . S
C1887 C1880 1.409 . S
C1887 C1886 1.362 . S
H1888 C1894 0.930 . S
H1889 C1897 0.930 . S
H1890 C1898 0.930 . S
H1891 C1899 0.930 . S
H1892 C1902 0.930 . S
H1893 C1903 0.930 . S
C1894 H1888 0.930 . S
C1894 C1895 1.355 . S
C1894 C1896 1.415 . S
C1895 C1894 1.355 . S
C1895 C1897 1.419 . S
C1896 C1894 1.415 . S
C1896 C1901 1.425 . S
C1896 C1903 1.409 . S
C1897 H1889 0.930 . S
C1897 C1895 1.419 . S
C1897 C1898 1.362 . S
C1898 H1890 0.930 . S
C1898 C1897 1.362 . S
C1898 C1901 1.409 . S
C1899 H1891 0.930 . S
C1899 C1900 1.351 . S
C1899 C1901 1.418 1_556 S
C1900 C1899 1.351 . S
C1900 C1902 1.419 . S
C1901 C1896 1.425 . S
C1901 C1898 1.409 . S
C1901 C1899 1.418 1_554 S
C1902 H1892 0.930 . S
C1902 C1900 1.419 . S
C1902 C1903 1.362 1_556 S
C1903 H1893 0.930 . S
C1903 C1896 1.409 . S
C1903 C1902 1.362 1_554 S
H1904 C1910 0.930 . S
H1905 C1913 0.930 . S
H1906 C1914 0.930 . S
H1907 C1915 0.930 . S
H1908 C1918 0.930 . S
H1909 C1919 0.930 . S
C1910 H1904 0.930 . S
C1910 C1911 1.355 . S
C1910 C1912 1.415 . S
C1911 C1910 1.355 . S
C1911 C1913 1.419 . S
C1912 C1910 1.415 . S
C1912 C1917 1.425 . S
C1912 C1919 1.409 . S
C1913 H1905 0.930 . S
C1913 C1911 1.419 . S
C1913 C1914 1.362 . S
C1914 H1906 0.930 . S
C1914 C1913 1.362 . S
C1914 C1917 1.409 . S
C1915 H1907 0.930 . S
C1915 C1916 1.355 . S
C1915 C1917 1.415 . S
C1916 C1915 1.355 . S
C1916 C1918 1.419 . S
C1917 C1912 1.425 . S
C1917 C1914 1.409 . S
C1917 C1915 1.415 . S
C1918 H1908 0.930 . S
C1918 C1916 1.419 . S
C1918 C1919 1.362 . S
C1919 H1909 0.930 . S
C1919 C1912 1.409 . S
C1919 C1918 1.362 . S
H1920 C1926 0.930 . S
H1921 C1929 0.930 . S
H1922 C1930 0.930 . S
H1923 C1931 0.930 . S
H1924 C1934 0.930 . S
H1925 C1935 0.930 . S
C1926 H1920 0.930 . S
C1926 C1927 1.355 . S
C1926 C1928 1.415 . S
C1927 C1926 1.355 . S
C1927 C1929 1.419 . S
C1928 C1926 1.415 . S
C1928 C1933 1.425 . S
C1928 C1935 1.409 . S
C1929 H1921 0.930 . S
C1929 C1927 1.419 . S
C1929 C1930 1.362 . S
C1930 H1922 0.930 . S
C1930 C1929 1.362 . S
C1930 C1933 1.409 . S
C1931 H1923 0.930 . S
C1931 C1932 1.355 . S
C1931 C1933 1.415 . S
C1932 C1931 1.355 . S
C1932 C1934 1.419 . S
C1933 C1928 1.425 . S
C1933 C1930 1.409 . S
C1933 C1931 1.415 . S
C1934 H1924 0.930 . S
C1934 C1932 1.419 . S
C1934 C1935 1.362 . S
C1935 H1925 0.930 . S
C1935 C1928 1.409 . S
C1935 C1934 1.362 . S
H1936 C1942 0.930 . S
H1937 C1945 0.930 . S
H1938 C1946 0.930 . S
H1939 C1947 0.930 . S
H1940 C1950 0.930 . S
H1941 C1951 0.930 . S
C1942 H1936 0.930 . S
C1942 C1943 1.355 . S
C1942 C1944 1.415 . S
C1943 C1942 1.355 . S
C1943 C1945 1.419 . S
C1944 C1942 1.415 . S
C1944 C1949 1.425 . S
C1944 C1951 1.409 . S
C1945 H1937 0.930 . S
C1945 C1943 1.419 . S
C1945 C1946 1.362 . S
C1946 H1938 0.930 . S
C1946 C1945 1.362 . S
C1946 C1949 1.409 . S
C1947 H1939 0.930 . S
C1947 C1948 1.355 . S
C1947 C1949 1.415 . S
C1948 C1947 1.355 . S
C1948 C1950 1.419 . S
C1949 C1944 1.425 . S
C1949 C1946 1.409 . S
C1949 C1947 1.415 . S
C1950 H1940 0.930 . S
C1950 C1948 1.419 . S
C1950 C1951 1.362 . S
C1951 H1941 0.930 . S
C1951 C1944 1.409 . S
C1951 C1950 1.362 . S
H1952 C1958 0.930 . S
H1953 C1961 0.930 . S
H1954 C1962 0.930 . S
H1955 C1963 0.930 . S
H1956 C1966 0.930 . S
H1957 C1967 0.930 . S
C1958 H1952 0.930 . S
C1958 C1959 1.355 . S
C1958 C1960 1.415 . S
C1959 C1958 1.355 . S
C1959 C1961 1.419 . S
C1960 C1958 1.415 . S
C1960 C1965 1.425 . S
C1960 C1967 1.409 . S
C1961 H1953 0.930 . S
C1961 C1959 1.419 . S
C1961 C1962 1.362 . S
C1962 H1954 0.930 . S
C1962 C1961 1.362 . S
C1962 C1965 1.409 . S
C1963 H1955 0.930 . S
C1963 C1964 1.355 . S
C1963 C1965 1.415 . S
C1964 C1963 1.355 . S
C1964 C1966 1.419 . S
C1965 C1960 1.425 . S
C1965 C1962 1.409 . S
C1965 C1963 1.415 . S
C1966 H1956 0.930 . S
C1966 C1964 1.419 . S
C1966 C1967 1.362 . S
C1967 H1957 0.930 . S
C1967 C1960 1.409 . S
C1967 C1966 1.362 . S
H1968 C1974 0.930 . S
H1969 C1977 0.930 . S
H1970 C1978 0.930 . S
H1971 C1979 0.930 . S
H1972 C1982 0.930 . S
H1973 C1983 0.930 . S
C1974 H1968 0.930 . S
C1974 C1975 1.355 . S
C1974 C1976 1.415 . S
C1975 C1974 1.355 . S
C1975 C1977 1.419 . S
C1976 C1974 1.415 . S
C1976 C1981 1.425 . S
C1976 C1983 1.409 . S
C1977 H1969 0.930 . S
C1977 C1975 1.419 . S
C1977 C1978 1.362 . S
C1978 H1970 0.930 . S
C1978 C1977 1.362 . S
C1978 C1981 1.409 . S
C1979 H1971 0.930 . S
C1979 C1980 1.355 . S
C1979 C1981 1.415 . S
C1980 C1979 1.355 . S
C1980 C1982 1.419 . S
C1981 C1976 1.425 . S
C1981 C1978 1.409 . S
C1981 C1979 1.415 . S
C1982 H1972 0.930 . S
C1982 C1980 1.419 . S
C1982 C1983 1.362 . S
C1983 H1973 0.930 . S
C1983 C1976 1.409 . S
C1983 C1982 1.362 . S
H1984 C1990 0.930 . S
H1985 C1993 0.930 . S
H1986 C1994 0.930 . S
H1987 C1995 0.930 . S
H1988 C1998 0.930 . S
H1989 C1999 0.930 . S
C1990 H1984 0.930 . S
C1990 C1991 1.355 . S
C1990 C1992 1.415 . S
C1991 C1990 1.355 . S
C1991 C1993 1.419 . S
C1992 C1990 1.415 . S
C1992 C1997 1.425 . S
C1992 C1999 1.409 . S
C1993 H1985 0.930 . S
C1993 C1991 1.419 . S
C1993 C1994 1.362 . S
C1994 H1986 0.930 . S
C1994 C1993 1.362 . S
C1994 C1997 1.409 . S
C1995 H1987 0.930 . S
C1995 C1996 1.355 . S
C1995 C1997 1.415 . S
C1996 C1995 1.355 . S
C1996 C1998 1.419 . S
C1997 C1992 1.425 . S
C1997 C1994 1.409 . S
C1997 C1995 1.415 . S
C1998 H1988 0.930 . S
C1998 C1996 1.419 . S
C1998 C1999 1.362 . S
C1999 H1989 0.930 . S
C1999 C1992 1.409 . S
C1999 C1998 1.362 . S
H2000 C2006 0.930 . S
H2001 C2009 0.930 . S
H2002 C2010 0.930 . S
H2003 C2011 0.930 . S
H2004 C2014 0.930 . S
H2005 C2015 0.930 . S
C2006 H2000 0.930 . S
C2006 C2007 1.355 . S
C2006 C2008 1.415 . S
C2007 C2006 1.355 . S
C2007 C2009 1.419 . S
C2008 C2006 1.415 . S
C2008 C2013 1.425 . S
C2008 C2015 1.409 . S
C2009 H2001 0.930 . S
C2009 C2007 1.419 . S
C2009 C2010 1.362 . S
C2010 H2002 0.930 . S
C2010 C2009 1.362 . S
C2010 C2013 1.409 . S
C2011 H2003 0.930 . S
C2011 C2012 1.355 . S
C2011 C2013 1.415 . S
C2012 C2011 1.355 . S
C2012 C2014 1.419 . S
C2013 C2008 1.425 . S
C2013 C2010 1.409 . S
C2013 C2011 1.415 . S
C2014 H2004 0.930 . S
C2014 C2012 1.419 . S
C2014 C2015 1.362 . S
C2015 H2005 0.930 . S
C2015 C2008 1.409 . S
C2015 C2014 1.362 . S
H2016 C2022 0.930 . S
H2017 C2025 0.930 . S
H2018 C2026 0.930 . S
H2019 C2027 0.930 . S
H2020 C2030 0.930 . S
H2021 C2031 0.930 . S
C2022 H2016 0.930 . S
C2022 C2023 1.355 . S
C2022 C2024 1.415 . S
C2023 C2022 1.355 . S
C2023 C2025 1.419 . S
C2024 C2022 1.415 . S
C2024 C2029 1.425 . S
C2024 C2031 1.409 . S
C2025 H2017 0.930 . S
C2025 C2023 1.419 . S
C2025 C2026 1.362 . S
C2026 H2018 0.930 . S
C2026 C2025 1.362 . S
C2026 C2029 1.409 . S
C2027 H2019 0.930 . S
C2027 C2028 1.355 . S
C2027 C2029 1.415 . S
C2028 C2027 1.355 . S
C2028 C2030 1.419 . S
C2029 C2024 1.425 . S
C2029 C2026 1.409 . S
C2029 C2027 1.415 . S
C2030 H2020 0.930 . S
C2030 C2028 1.419 . S
C2030 C2031 1.362 . S
C2031 H2021 0.930 . S
C2031 C2024 1.409 . S
C2031 C2030 1.362 . S
H2032 C2038 0.930 . S
H2033 C2041 0.930 . S
H2034 C2042 0.930 . S
H2035 C2043 0.930 . S
H2036 C2046 0.930 . S
H2037 C2047 0.930 . S
C2038 H2032 0.930 . S
C2038 C2039 1.355 . S
C2038 C2040 1.415 . S
C2039 C2038 1.355 . S
C2039 C2041 1.419 . S
C2040 C2038 1.415 . S
C2040 C2045 1.425 . S
C2040 C2047 1.409 . S
C2041 H2033 0.930 . S
C2041 C2039 1.419 . S
C2041 C2042 1.362 . S
C2042 H2034 0.930 . S
C2042 C2041 1.362 . S
C2042 C2045 1.409 . S
C2043 H2035 0.930 . S
C2043 C2044 1.355 . S
C2043 C2045 1.415 . S
C2044 C2043 1.355 . S
C2044 C2046 1.419 . S
C2045 C2040 1.425 . S
C2045 C2042 1.409 . S
C2045 C2043 1.415 . S
C2046 H2036 0.930 . S
C2046 C2044 1.419 . S
C2046 C2047 1.362 . S
C2047 H2037 0.930 . S
C2047 C2040 1.409 . S
C2047 C2046 1.362 . S
H2048 C2054 0.930 . S
H2049 C2057 0.930 . S
H2050 C2058 0.930 . S
H2051 C2059 0.930 1_556 S
H2052 C2062 0.930 . S
H2053 C2063 0.930 . S
C2054 H2048 0.930 . S
C2054 C2055 1.355 . S
C2054 C2056 1.415 . S
C2055 C2054 1.355 . S
C2055 C2057 1.419 1_554 S
C2056 C2054 1.415 . S
C2056 C2061 1.425 . S
C2056 C2063 1.409 . S
C2057 H2049 0.930 . S
C2057 C2055 1.419 1_556 S
C2057 C2058 1.362 . S
C2058 H2050 0.930 . S
C2058 C2057 1.362 . S
C2058 C2061 1.409 1_556 S
C2059 H2051 0.930 1_554 S
C2059 C2060 1.355 . S
C2059 C2061 1.415 . S
C2060 C2059 1.355 . S
C2060 C2062 1.419 . S
C2061 C2056 1.425 . S
C2061 C2058 1.409 1_554 S
C2061 C2059 1.415 . S
C2062 H2052 0.930 . S
C2062 C2060 1.419 . S
C2062 C2063 1.362 . S
C2063 H2053 0.930 . S
C2063 C2056 1.409 . S
C2063 C2062 1.362 . S
H2064 C2070 0.930 . S
H2065 C2073 0.930 . S
H2066 C2074 0.930 . S
H2067 C2075 0.930 . S
H2068 C2078 0.930 . S
H2069 C2079 0.930 . S
C2070 H2064 0.930 . S
C2070 C2071 1.355 . S
C2070 C2072 1.415 . S
C2071 C2070 1.355 . S
C2071 C2073 1.419 . S
C2072 C2070 1.415 . S
C2072 C2077 1.425 . S
C2072 C2079 1.409 . S
C2073 H2065 0.930 . S
C2073 C2071 1.419 . S
C2073 C2074 1.362 . S
C2074 H2066 0.930 . S
C2074 C2073 1.362 . S
C2074 C2077 1.409 . S
C2075 H2067 0.930 . S
C2075 C2076 1.355 . S
C2075 C2077 1.415 . S
C2076 C2075 1.355 . S
C2076 C2078 1.419 . S
C2077 C2072 1.425 . S
C2077 C2074 1.409 . S
C2077 C2075 1.415 . S
C2078 H2068 0.930 . S
C2078 C2076 1.419 . S
C2078 C2079 1.362 . S
C2079 H2069 0.930 . S
C2079 C2072 1.409 . S
C2079 C2078 1.362 . S
H2080 C2086 0.930 . S
H2081 C2089 0.930 . S
H2082 C2090 0.930 . S
H2083 C2091 0.930 . S
H2084 C2094 0.930 . S
H2085 C2095 0.930 . S
C2086 H2080 0.930 . S
C2086 C2087 1.355 . S
C2086 C2088 1.415 . S
C2087 C2086 1.355 . S
C2087 C2089 1.419 . S
C2088 C2086 1.415 . S
C2088 C2093 1.425 . S
C2088 C2095 1.409 . S
C2089 H2081 0.930 . S
C2089 C2087 1.419 . S
C2089 C2090 1.362 . S
C2090 H2082 0.930 . S
C2090 C2089 1.362 . S
C2090 C2093 1.409 . S
C2091 H2083 0.930 . S
C2091 C2092 1.355 . S
C2091 C2093 1.415 . S
C2092 C2091 1.355 . S
C2092 C2094 1.419 . S
C2093 C2088 1.425 . S
C2093 C2090 1.409 . S
C2093 C2091 1.415 . S
C2094 H2084 0.930 . S
C2094 C2092 1.419 . S
C2094 C2095 1.362 . S
C2095 H2085 0.930 . S
C2095 C2088 1.409 . S
C2095 C2094 1.362 . S
H2096 C2102 0.930 . S
H2097 C2105 0.930 . S
H2098 C2106 0.930 . S
H2099 C2107 0.930 . S
H2100 C2110 0.930 . S
H2101 C2111 0.930 . S
C2102 H2096 0.930 . S
C2102 C2103 1.355 . S
C2102 C2104 1.415 . S
C2103 C2102 1.355 . S
C2103 C2105 1.419 . S
C2104 C2102 1.415 . S
C2104 C2109 1.425 . S
C2104 C2111 1.409 . S
C2105 H2097 0.930 . S
C2105 C2103 1.419 . S
C2105 C2106 1.362 . S
C2106 H2098 0.930 . S
C2106 C2105 1.362 . S
C2106 C2109 1.409 . S
C2107 H2099 0.930 . S
C2107 C2108 1.355 . S
C2107 C2109 1.415 . S
C2108 C2107 1.355 . S
C2108 C2110 1.419 . S
C2109 C2104 1.425 . S
C2109 C2106 1.409 . S
C2109 C2107 1.415 . S
C2110 H2100 0.930 . S
C2110 C2108 1.419 . S
C2110 C2111 1.362 . S
C2111 H2101 0.930 . S
C2111 C2104 1.409 . S
C2111 C2110 1.362 . S
H2112 C2118 0.930 . S
H2113 C2121 0.930 . S
H2114 C2122 0.930 . S
H2115 C2123 0.930 . S
H2116 C2126 0.930 . S
H2117 C2127 0.930 . S
C2118 H2112 0.930 . S
C2118 C2119 1.355 . S
C2118 C2120 1.415 . S
C2119 C2118 1.355 . S
C2119 C2121 1.419 . S
C2120 C2118 1.415 . S
C2120 C2125 1.425 . S
C2120 C2127 1.409 . S
C2121 H2113 0.930 . S
C2121 C2119 1.419 . S
C2121 C2122 1.362 . S
C2122 H2114 0.930 . S
C2122 C2121 1.362 . S
C2122 C2125 1.409 . S
C2123 H2115 0.930 . S
C2123 C2124 1.355 . S
C2123 C2125 1.415 . S
C2124 C2123 1.355 . S
C2124 C2126 1.419 . S
C2125 C2120 1.425 . S
C2125 C2122 1.409 . S
C2125 C2123 1.415 . S
C2126 H2116 0.930 . S
C2126 C2124 1.419 . S
C2126 C2127 1.362 . S
C2127 H2117 0.930 . S
C2127 C2120 1.409 . S
C2127 C2126 1.362 . S
H2128 C2134 0.930 . S
H2129 C2137 0.930 . S
H2130 C2138 0.930 . S
H2131 C2139 0.930 . S
H2132 C2142 0.930 . S
H2133 C2143 0.930 . S
C2134 H2128 0.930 . S
C2134 C2135 1.355 . S
C2134 C2136 1.415 . S
C2135 C2134 1.355 . S
C2135 C2137 1.419 . S
C2136 C2134 1.415 . S
C2136 C2141 1.425 . S
C2136 C2143 1.409 . S
C2137 H2129 0.930 . S
C2137 C2135 1.419 . S
C2137 C2138 1.362 . S
C2138 H2130 0.930 . S
C2138 C2137 1.362 . S
C2138 C2141 1.409 . S
C2139 H2131 0.930 . S
C2139 C2140 1.355 . S
C2139 C2141 1.415 . S
C2140 C2139 1.355 . S
C2140 C2142 1.419 . S
C2141 C2136 1.425 . S
C2141 C2138 1.409 . S
C2141 C2139 1.415 . S
C2142 H2132 0.930 . S
C2142 C2140 1.419 . S
C2142 C2143 1.362 . S
C2143 H2133 0.930 . S
C2143 C2136 1.409 . S
C2143 C2142 1.362 . S
H2144 C2150 0.930 . S
H2145 C2153 0.930 . S
H2146 C2154 0.930 . S
H2147 C2155 0.930 . S
H2148 C2158 0.930 . S
H2149 C2159 0.930 . S
C2150 H2144 0.930 . S
C2150 C2151 1.355 . S
C2150 C2152 1.415 . S
C2151 C2150 1.355 . S
C2151 C2153 1.419 . S
C2152 C2150 1.415 . S
C2152 C2157 1.425 . S
C2152 C2159 1.409 . S
C2153 H2145 0.930 . S
C2153 C2151 1.419 . S
C2153 C2154 1.362 . S
C2154 H2146 0.930 . S
C2154 C2153 1.362 . S
C2154 C2157 1.409 . S
C2155 H2147 0.930 . S
C2155 C2156 1.355 . S
C2155 C2157 1.415 . S
C2156 C2155 1.355 . S
C2156 C2158 1.419 . S
C2157 C2152 1.425 . S
C2157 C2154 1.409 . S
C2157 C2155 1.415 . S
C2158 H2148 0.930 . S
C2158 C2156 1.419 . S
C2158 C2159 1.362 . S
C2159 H2149 0.930 . S
C2159 C2152 1.409 . S
C2159 C2158 1.362 . S
H2160 C2166 0.930 . S
H2161 C2169 0.930 . S
H2162 C2170 0.930 . S
H2163 C2171 0.930 . S
H2164 C2174 0.930 . S
H2165 C2175 0.930 . S
C2166 H2160 0.930 . S
C2166 C2167 1.355 . S
C2166 C2168 1.415 . S
C2167 C2166 1.355 . S
C2167 C2169 1.419 . S
C2168 C2166 1.415 . S
C2168 C2173 1.425 . S
C2168 C2175 1.409 . S
C2169 H2161 0.930 . S
C2169 C2167 1.419 . S
C2169 C2170 1.362 . S
C2170 H2162 0.930 . S
C2170 C2169 1.362 . S
C2170 C2173 1.409 . S
C2171 H2163 0.930 . S
C2171 C2172 1.355 . S
C2171 C2173 1.415 . S
C2172 C2171 1.355 . S
C2172 C2174 1.419 . S
C2173 C2168 1.425 . S
C2173 C2170 1.409 . S
C2173 C2171 1.415 . S
C2174 H2164 0.930 . S
C2174 C2172 1.419 . S
C2174 C2175 1.362 . S
C2175 H2165 0.930 . S
C2175 C2168 1.409 . S
C2175 C2174 1.362 . S
H2176 C2182 0.930 . S
H2177 C2185 0.930 . S
H2178 C2186 0.930 . S
H2179 C2187 0.930 . S
H2180 C2190 0.930 . S
H2181 C2191 0.930 . S
C2182 H2176 0.930 . S
C2182 C2183 1.355 . S
C2182 C2184 1.415 . S
C2183 C2182 1.355 . S
C2183 C2185 1.419 . S
C2184 C2182 1.415 . S
C2184 C2189 1.425 . S
C2184 C2191 1.409 . S
C2185 H2177 0.930 . S
C2185 C2183 1.419 . S
C2185 C2186 1.362 . S
C2186 H2178 0.930 . S
C2186 C2185 1.362 . S
C2186 C2189 1.409 . S
C2187 H2179 0.930 . S
C2187 C2188 1.355 . S
C2187 C2189 1.415 . S
C2188 C2187 1.355 . S
C2188 C2190 1.419 . S
C2189 C2184 1.425 . S
C2189 C2186 1.409 . S
C2189 C2187 1.415 . S
C2190 H2180 0.930 . S
C2190 C2188 1.419 . S
C2190 C2191 1.362 . S
C2191 H2181 0.930 . S
C2191 C2184 1.409 . S
C2191 C2190 1.362 . S
H2192 C2198 0.930 . S
H2193 C2201 0.930 . S
H2194 C2202 0.930 . S
H2195 C2203 0.930 . S
H2196 C2206 0.930 . S
H2197 C2207 0.930 . S
C2198 H2192 0.930 . S
C2198 C2199 1.355 . S
C2198 C2200 1.415 . S
C2199 C2198 1.355 . S
C2199 C2201 1.419 . S
C2200 C2198 1.415 . S
C2200 C2205 1.425 . S
C2200 C2207 1.409 . S
C2201 H2193 0.930 . S
C2201 C2199 1.419 . S
C2201 C2202 1.362 . S
C2202 H2194 0.930 . S
C2202 C2201 1.362 . S
C2202 C2205 1.409 . S
C2203 H2195 0.930 . S
C2203 C2204 1.355 . S
C2203 C2205 1.415 . S
C2204 C2203 1.355 . S
C2204 C2206 1.419 . S
C2205 C2200 1.425 . S
C2205 C2202 1.409 . S
C2205 C2203 1.415 . S
C2206 H2196 0.930 . S
C2206 C2204 1.419 . S
C2206 C2207 1.362 . S
C2207 H2197 0.930 . S
C2207 C2200 1.409 . S
C2207 C2206 1.362 . S
H2208 C2214 0.930 . S
H2209 C2217 0.930 . S
H2210 C2218 0.930 . S
H2211 C2219 0.930 . S
H2212 C2222 0.930 . S
H2213 C2223 0.930 . S
C2214 H2208 0.930 . S
C2214 C2215 1.355 . S
C2214 C2216 1.415 . S
C2215 C2214 1.355 . S
C2215 C2217 1.419 . S
C2216 C2214 1.415 . S
C2216 C2221 1.425 . S
C2216 C2223 1.409 . S
C2217 H2209 0.930 . S
C2217 C2215 1.419 . S
C2217 C2218 1.362 . S
C2218 H2210 0.930 . S
C2218 C2217 1.362 . S
C2218 C2221 1.409 . S
C2219 H2211 0.930 . S
C2219 C2220 1.355 . S
C2219 C2221 1.415 . S
C2220 C2219 1.355 . S
C2220 C2222 1.419 . S
C2221 C2216 1.425 . S
C2221 C2218 1.409 . S
C2221 C2219 1.415 . S
C2222 H2212 0.930 . S
C2222 C2220 1.419 . S
C2222 C2223 1.362 . S
C2223 H2213 0.930 . S
C2223 C2216 1.409 . S
C2223 C2222 1.362 . S
H2224 C2230 0.930 . S
H2225 C2233 0.930 . S
H2226 C2234 0.930 . S
H2227 C2235 0.930 . S
H2228 C2238 0.930 . S
H2229 C2239 0.930 . S
C2230 H2224 0.930 . S
C2230 C2231 1.355 . S
C2230 C2232 1.415 . S
C2231 C2230 1.355 . S
C2231 C2233 1.419 . S
C2232 C2230 1.415 . S
C2232 C2237 1.425 . S
C2232 C2239 1.409 . S
C2233 H2225 0.930 . S
C2233 C2231 1.419 . S
C2233 C2234 1.362 . S
C2234 H2226 0.930 . S
C2234 C2233 1.362 . S
C2234 C2237 1.409 . S
C2235 H2227 0.930 . S
C2235 C2236 1.355 . S
C2235 C2237 1.415 . S
C2236 C2235 1.355 . S
C2236 C2238 1.419 . S
C2237 C2232 1.425 . S
C2237 C2234 1.409 . S
C2237 C2235 1.415 . S
C2238 H2228 0.930 . S
C2238 C2236 1.419 . S
C2238 C2239 1.362 . S
C2239 H2229 0.930 . S
C2239 C2232 1.409 . S
C2239 C2238 1.362 . S
H2240 C2246 0.930 . S
H2241 C2249 0.930 . S
H2242 C2250 0.930 . S
H2243 C2251 0.930 . S
H2244 C2254 0.930 . S
H2245 C2255 0.930 . S
C2246 H2240 0.930 . S
C2246 C2247 1.355 . S
C2246 C2248 1.415 . S
C2247 C2246 1.355 . S
C2247 C2249 1.419 . S
C2248 C2246 1.415 . S
C2248 C2253 1.425 . S
C2248 C2255 1.409 . S
C2249 H2241 0.930 . S
C2249 C2247 1.419 . S
C2249 C2250 1.362 . S
C2250 H2242 0.930 . S
C2250 C2249 1.362 . S
C2250 C2253 1.409 . S
C2251 H2243 0.930 . S
C2251 C2252 1.355 . S
C2251 C2253 1.415 . S
C2252 C2251 1.355 . S
C2252 C2254 1.419 . S
C2253 C2248 1.425 . S
C2253 C2250 1.409 . S
C2253 C2251 1.415 . S
C2254 H2244 0.930 . S
C2254 C2252 1.419 . S
C2254 C2255 1.362 . S
C2255 H2245 0.930 . S
C2255 C2248 1.409 . S
C2255 C2254 1.362 . S
H2256 C2262 0.930 . S
H2257 C2265 0.930 . S
H2258 C2266 0.930 . S
H2259 C2267 0.930 . S
H2260 C2270 0.930 . S
H2261 C2271 0.930 . S
C2262 H2256 0.930 . S
C2262 C2263 1.355 . S
C2262 C2264 1.415 . S
C2263 C2262 1.355 . S
C2263 C2265 1.419 . S
C2264 C2262 1.415 . S
C2264 C2269 1.425 . S
C2264 C2271 1.409 . S
C2265 H2257 0.930 . S
C2265 C2263 1.419 . S
C2265 C2266 1.362 . S
C2266 H2258 0.930 . S
C2266 C2265 1.362 . S
C2266 C2269 1.409 . S
C2267 H2259 0.930 . S
C2267 C2268 1.355 . S
C2267 C2269 1.415 . S
C2268 C2267 1.355 . S
C2268 C2270 1.419 . S
C2269 C2264 1.425 . S
C2269 C2266 1.409 . S
C2269 C2267 1.415 . S
C2270 H2260 0.930 . S
C2270 C2268 1.419 . S
C2270 C2271 1.362 . S
C2271 H2261 0.930 . S
C2271 C2264 1.409 . S
C2271 C2270 1.362 . S
H2272 C2278 0.930 . S
H2273 C2281 0.930 . S
H2274 C2282 0.930 . S
H2275 C2283 0.930 . S
H2276 C2286 0.930 . S
H2277 C2287 0.930 . S
C2278 H2272 0.930 . S
C2278 C2279 1.355 . S
C2278 C2280 1.415 . S
C2279 C2278 1.355 . S
C2279 C2281 1.419 . S
C2280 C2278 1.415 . S
C2280 C2285 1.425 . S
C2280 C2287 1.409 . S
C2281 H2273 0.930 . S
C2281 C2279 1.419 . S
C2281 C2282 1.362 . S
C2282 H2274 0.930 . S
C2282 C2281 1.362 . S
C2282 C2285 1.409 . S
C2283 H2275 0.930 . S
C2283 C2284 1.355 . S
C2283 C2285 1.415 . S
C2284 C2283 1.355 . S
C2284 C2286 1.419 . S
C2285 C2280 1.425 . S
C2285 C2282 1.409 . S
C2285 C2283 1.415 . S
C2286 H2276 0.930 . S
C2286 C2284 1.419 . S
C2286 C2287 1.362 . S
C2287 H2277 0.930 . S
C2287 C2280 1.409 . S
C2287 C2286 1.362 . S
H2288 C2294 0.930 . S
H2289 C2297 0.930 . S
H2290 C2298 0.930 . S
H2291 C2299 0.930 . S
H2292 C2302 0.930 . S
H2293 C2303 0.929 1_455 S
C2294 H2288 0.930 . S
C2294 C2295 1.355 . S
C2294 C2296 1.415 . S
C2295 C2294 1.355 . S
C2295 C2297 1.419 . S
C2296 C2294 1.415 . S
C2296 C2301 1.425 . S
C2296 C2303 1.409 . S
C2297 H2289 0.930 . S
C2297 C2295 1.419 . S
C2297 C2298 1.362 . S
C2298 H2290 0.930 . S
C2298 C2297 1.362 . S
C2298 C2301 1.409 . S
C2299 H2291 0.930 . S
C2299 C2300 1.374 . S
C2299 C2301 1.415 . S
C2300 C2299 1.374 . S
C2300 C2302 1.414 1_655 S
C2301 C2296 1.425 . S
C2301 C2298 1.409 . S
C2301 C2299 1.415 . S
C2302 H2292 0.930 . S
C2302 C2300 1.414 1_455 S
C2302 C2303 1.362 1_455 S
C2303 H2293 0.929 1_655 S
C2303 C2296 1.409 . S
C2303 C2302 1.362 1_655 S
H2304 C2310 0.930 . S
H2305 C2313 0.930 . S
H2306 C2314 0.930 . S
H2307 C2315 0.930 . S
H2308 C2318 0.930 . S
H2309 C2319 0.930 . S
C2310 H2304 0.930 . S
C2310 C2311 1.355 . S
C2310 C2312 1.415 . S
C2311 C2310 1.355 . S
C2311 C2313 1.419 . S
C2312 C2310 1.415 . S
C2312 C2317 1.425 . S
C2312 C2319 1.409 . S
C2313 H2305 0.930 . S
C2313 C2311 1.419 . S
C2313 C2314 1.362 . S
C2314 H2306 0.930 . S
C2314 C2313 1.362 . S
C2314 C2317 1.409 . S
C2315 H2307 0.930 . S
C2315 C2316 1.355 . S
C2315 C2317 1.415 . S
C2316 C2315 1.355 . S
C2316 C2318 1.419 . S
C2317 C2312 1.425 . S
C2317 C2314 1.409 . S
C2317 C2315 1.415 . S
C2318 H2308 0.930 . S
C2318 C2316 1.419 . S
C2318 C2319 1.362 . S
C2319 H2309 0.930 . S
C2319 C2312 1.409 . S
C2319 C2318 1.362 . S
H2320 C2326 0.930 . S
H2321 C2329 0.930 . S
H2322 C2330 0.930 . S
H2323 C2331 0.930 . S
H2324 C2334 0.930 . S
H2325 C2335 0.930 . S
C2326 H2320 0.930 . S
C2326 C2327 1.355 . S
C2326 C2328 1.415 . S
C2327 C2326 1.355 . S
C2327 C2329 1.419 . S
C2328 C2326 1.415 . S
C2328 C2333 1.425 . S
C2328 C2335 1.409 . S
C2329 H2321 0.930 . S
C2329 C2327 1.419 . S
C2329 C2330 1.362 . S
C2330 H2322 0.930 . S
C2330 C2329 1.362 . S
C2330 C2333 1.409 . S
C2331 H2323 0.930 . S
C2331 C2332 1.355 . S
C2331 C2333 1.415 . S
C2332 C2331 1.355 . S
C2332 C2334 1.419 . S
C2333 C2328 1.425 . S
C2333 C2330 1.409 . S
C2333 C2331 1.415 . S
C2334 H2324 0.930 . S
C2334 C2332 1.419 . S
C2334 C2335 1.362 . S
C2335 H2325 0.930 . S
C2335 C2328 1.409 . S
C2335 C2334 1.362 . S
H2336 C2342 0.930 . S
H2337 C2345 0.930 . S
H2338 C2346 0.930 . S
H2339 C2347 0.930 . S
H2340 C2350 0.930 . S
H2341 C2351 0.930 . S
C2342 H2336 0.930 . S
C2342 C2343 1.355 . S
C2342 C2344 1.415 . S
C2343 C2342 1.355 . S
C2343 C2345 1.419 . S
C2344 C2342 1.415 . S
C2344 C2349 1.425 . S
C2344 C2351 1.409 . S
C2345 H2337 0.930 . S
C2345 C2343 1.419 . S
C2345 C2346 1.362 . S
C2346 H2338 0.930 . S
C2346 C2345 1.362 . S
C2346 C2349 1.409 . S
C2347 H2339 0.930 . S
C2347 C2348 1.355 . S
C2347 C2349 1.415 . S
C2348 C2347 1.355 . S
C2348 C2350 1.419 . S
C2349 C2344 1.425 . S
C2349 C2346 1.409 . S
C2349 C2347 1.415 . S
C2350 H2340 0.930 . S
C2350 C2348 1.419 . S
C2350 C2351 1.362 . S
C2351 H2341 0.930 . S
C2351 C2344 1.409 . S
C2351 C2350 1.362 . S
H2352 C2358 0.930 . S
H2353 C2361 0.930 . S
H2354 C2362 0.930 . S
H2355 C2363 0.930 1_455 S
H2356 C2366 0.930 . S
H2357 C2367 0.930 . S
C2358 H2352 0.930 . S
C2358 C2359 1.355 . S
C2358 C2360 1.415 . S
C2359 C2358 1.355 . S
C2359 C2361 1.419 . S
C2360 C2358 1.415 . S
C2360 C2365 1.425 . S
C2360 C2367 1.409 . S
C2361 H2353 0.930 . S
C2361 C2359 1.419 . S
C2361 C2362 1.362 . S
C2362 H2354 0.930 . S
C2362 C2361 1.362 . S
C2362 C2365 1.409 . S
C2363 H2355 0.930 1_655 S
C2363 C2364 1.355 . S
C2363 C2365 1.415 . S
C2364 C2363 1.355 . S
C2364 C2366 1.419 . S
C2365 C2360 1.425 . S
C2365 C2362 1.409 . S
C2365 C2363 1.415 . S
C2366 H2356 0.930 . S
C2366 C2364 1.419 . S
C2366 C2367 1.362 . S
C2367 H2357 0.930 . S
C2367 C2360 1.409 . S
C2367 C2366 1.362 . S
H2368 C2374 0.930 . S
H2369 C2377 0.930 . S
H2370 C2378 0.930 . S
H2371 C2379 0.930 . S
H2372 C2382 0.930 . S
H2373 C2383 0.930 . S
C2374 H2368 0.930 . S
C2374 C2375 1.355 . S
C2374 C2376 1.415 . S
C2375 C2374 1.355 . S
C2375 C2377 1.419 . S
C2376 C2374 1.415 . S
C2376 C2381 1.425 . S
C2376 C2383 1.409 . S
C2377 H2369 0.930 . S
C2377 C2375 1.419 . S
C2377 C2378 1.362 . S
C2378 H2370 0.930 . S
C2378 C2377 1.362 . S
C2378 C2381 1.409 . S
C2379 H2371 0.930 . S
C2379 C2380 1.355 . S
C2379 C2381 1.415 . S
C2380 C2379 1.355 . S
C2380 C2382 1.419 . S
C2381 C2376 1.425 . S
C2381 C2378 1.409 . S
C2381 C2379 1.415 . S
C2382 H2372 0.930 . S
C2382 C2380 1.419 . S
C2382 C2383 1.362 . S
C2383 H2373 0.930 . S
C2383 C2376 1.409 . S
C2383 C2382 1.362 . S
H2384 C2390 0.930 . S
H2385 C2393 0.930 . S
H2386 C2394 0.930 . S
H2387 C2395 0.930 . S
H2388 C2398 0.930 . S
H2389 C2399 0.930 . S
C2390 H2384 0.930 . S
C2390 C2391 1.355 . S
C2390 C2392 1.415 . S
C2391 C2390 1.355 . S
C2391 C2393 1.419 . S
C2392 C2390 1.415 . S
C2392 C2397 1.425 . S
C2392 C2399 1.409 . S
C2393 H2385 0.930 . S
C2393 C2391 1.419 . S
C2393 C2394 1.362 . S
C2394 H2386 0.930 . S
C2394 C2393 1.362 . S
C2394 C2397 1.409 . S
C2395 H2387 0.930 . S
C2395 C2396 1.355 . S
C2395 C2397 1.415 . S
C2396 C2395 1.355 . S
C2396 C2398 1.419 . S
C2397 C2392 1.425 . S
C2397 C2394 1.409 . S
C2397 C2395 1.415 . S
C2398 H2388 0.930 . S
C2398 C2396 1.419 . S
C2398 C2399 1.362 . S
C2399 H2389 0.930 . S
C2399 C2392 1.409 . S
C2399 C2398 1.362 . S
H2400 C2406 0.930 . S
H2401 C2409 0.930 . S
H2402 C2410 0.930 . S
H2403 C2411 0.930 . S
H2404 C2414 0.930 . S
H2405 C2415 0.930 . S
C2406 H2400 0.930 . S
C2406 C2407 1.355 . S
C2406 C2408 1.415 . S
C2407 C2406 1.355 . S
C2407 C2409 1.419 . S
C2408 C2406 1.415 . S
C2408 C2413 1.425 . S
C2408 C2415 1.409 . S
C2409 H2401 0.930 . S
C2409 C2407 1.419 . S
C2409 C2410 1.362 . S
C2410 H2402 0.930 . S
C2410 C2409 1.362 . S
C2410 C2413 1.409 . S
C2411 H2403 0.930 . S
C2411 C2412 1.355 . S
C2411 C2413 1.415 . S
C2412 C2411 1.355 . S
C2412 C2414 1.419 . S
C2413 C2408 1.425 . S
C2413 C2410 1.409 . S
C2413 C2411 1.415 . S
C2414 H2404 0.930 . S
C2414 C2412 1.419 . S
C2414 C2415 1.362 . S
C2415 H2405 0.930 . S
C2415 C2408 1.409 . S
C2415 C2414 1.362 . S
H2416 C2422 0.930 . S
H2417 C2425 0.930 . S
H2418 C2426 0.930 . S
H2419 C2427 0.930 . S
H2420 C2430 0.930 . S
H2421 C2431 0.930 . S
C2422 H2416 0.930 . S
C2422 C2423 1.355 . S
C2422 C2424 1.415 . S
C2423 C2422 1.355 . S
C2423 C2425 1.419 . S
C2424 C2422 1.415 . S
C2424 C2429 1.425 . S
C2424 C2431 1.409 . S
C2425 H2417 0.930 . S
C2425 C2423 1.419 . S
C2425 C2426 1.362 . S
C2426 H2418 0.930 . S
C2426 C2425 1.362 . S
C2426 C2429 1.409 . S
C2427 H2419 0.930 . S
C2427 C2428 1.355 . S
C2427 C2429 1.415 . S
C2428 C2427 1.355 . S
C2428 C2430 1.419 . S
C2429 C2424 1.425 . S
C2429 C2426 1.409 . S
C2429 C2427 1.415 . S
C2430 H2420 0.930 . S
C2430 C2428 1.419 . S
C2430 C2431 1.362 . S
C2431 H2421 0.930 . S
C2431 C2424 1.409 . S
C2431 C2430 1.362 . S
H2432 C2438 0.930 . S
H2433 C2441 0.930 . S
H2434 C2442 0.930 . S
H2435 C2443 0.930 . S
H2436 C2446 0.930 . S
H2437 C2447 0.930 . S
C2438 H2432 0.930 . S
C2438 C2439 1.355 . S
C2438 C2440 1.415 . S
C2439 C2438 1.355 . S
C2439 C2441 1.419 . S
C2440 C2438 1.415 . S
C2440 C2445 1.425 . S
C2440 C2447 1.409 . S
C2441 H2433 0.930 . S
C2441 C2439 1.419 . S
C2441 C2442 1.362 . S
C2442 H2434 0.930 . S
C2442 C2441 1.362 . S
C2442 C2445 1.409 . S
C2443 H2435 0.930 . S
C2443 C2444 1.355 . S
C2443 C2445 1.415 . S
C2444 C2443 1.355 . S
C2444 C2446 1.419 . S
C2445 C2440 1.425 . S
C2445 C2442 1.409 . S
C2445 C2443 1.415 . S
C2446 H2436 0.930 . S
C2446 C2444 1.419 . S
C2446 C2447 1.362 . S
C2447 H2437 0.930 . S
C2447 C2440 1.409 . S
C2447 C2446 1.362 . S
H2448 C2454 0.930 . S
H2449 C2457 0.930 . S
H2450 C2458 0.930 . S
H2451 C2459 0.930 . S
H2452 C2462 0.930 . S
H2453 C2463 0.930 . S
C2454 H2448 0.930 . S
C2454 C2455 1.355 . S
C2454 C2456 1.415 . S
C2455 C2454 1.355 . S
C2455 C2457 1.419 . S
C2456 C2454 1.415 . S
C2456 C2461 1.425 . S
C2456 C2463 1.409 . S
C2457 H2449 0.930 . S
C2457 C2455 1.419 . S
C2457 C2458 1.362 . S
C2458 H2450 0.930 . S
C2458 C2457 1.362 . S
C2458 C2461 1.409 . S
C2459 H2451 0.930 . S
C2459 C2460 1.355 . S
C2459 C2461 1.415 . S
C2460 C2459 1.355 . S
C2460 C2462 1.419 . S
C2461 C2456 1.425 . S
C2461 C2458 1.409 . S
C2461 C2459 1.415 . S
C2462 H2452 0.930 . S
C2462 C2460 1.419 . S
C2462 C2463 1.362 . S
C2463 H2453 0.930 . S
C2463 C2456 1.409 . S
C2463 C2462 1.362 . S
H2464 C2470 0.930 . S
H2465 C2473 0.930 . S
H2466 C2474 0.930 . S
H2467 C2475 0.930 . S
H2468 C2478 0.930 1_556 S
H2469 C2479 0.930 1_556 S
C2470 H2464 0.930 . S
C2470 C2471 1.355 . S
C2470 C2472 1.415 . S
C2471 C2470 1.355 . S
C2471 C2473 1.419 . S
C2472 C2470 1.415 . S
C2472 C2477 1.425 . S
C2472 C2479 1.409 . S
C2473 H2465 0.930 . S
C2473 C2471 1.419 . S
C2473 C2474 1.362 . S
C2474 H2466 0.930 . S
C2474 C2473 1.362 . S
C2474 C2477 1.409 . S
C2475 H2467 0.930 . S
C2475 C2476 1.355 . S
C2475 C2477 1.415 . S
C2476 C2475 1.355 . S
C2476 C2478 1.419 . S
C2477 C2472 1.425 . S
C2477 C2474 1.409 . S
C2477 C2475 1.415 . S
C2478 H2468 0.930 1_554 S
C2478 C2476 1.419 . S
C2478 C2479 1.362 . S
C2479 H2469 0.930 1_554 S
C2479 C2472 1.409 . S
C2479 C2478 1.362 . S
H2480 C2486 0.930 . S
H2481 C2489 0.930 . S
H2482 C2490 0.930 . S
H2483 C2491 0.930 . S
H2484 C2494 0.930 . S
H2485 C2495 0.930 . S
C2486 H2480 0.930 . S
C2486 C2487 1.355 . S
C2486 C2488 1.415 . S
C2487 C2486 1.355 . S
C2487 C2489 1.419 . S
C2488 C2486 1.415 . S
C2488 C2493 1.425 . S
C2488 C2495 1.409 . S
C2489 H2481 0.930 . S
C2489 C2487 1.419 . S
C2489 C2490 1.362 . S
C2490 H2482 0.930 . S
C2490 C2489 1.362 . S
C2490 C2493 1.409 . S
C2491 H2483 0.930 . S
C2491 C2492 1.355 . S
C2491 C2493 1.415 . S
C2492 C2491 1.355 . S
C2492 C2494 1.419 . S
C2493 C2488 1.425 . S
C2493 C2490 1.409 . S
C2493 C2491 1.415 . S
C2494 H2484 0.930 . S
C2494 C2492 1.419 . S
C2494 C2495 1.362 . S
C2495 H2485 0.930 . S
C2495 C2488 1.409 . S
C2495 C2494 1.362 . S
H2496 C2502 0.930 . S
H2497 C2505 0.930 . S
H2498 C2506 0.930 . S
H2499 C2507 0.930 . S
H2500 C2510 0.930 . S
H2501 C2511 0.930 . S
C2502 H2496 0.930 . S
C2502 C2503 1.355 . S
C2502 C2504 1.415 . S
C2503 C2502 1.355 . S
C2503 C2505 1.419 . S
C2504 C2502 1.415 . S
C2504 C2509 1.425 . S
C2504 C2511 1.409 . S
C2505 H2497 0.930 . S
C2505 C2503 1.419 . S
C2505 C2506 1.362 . S
C2506 H2498 0.930 . S
C2506 C2505 1.362 . S
C2506 C2509 1.409 . S
C2507 H2499 0.930 . S
C2507 C2508 1.355 . S
C2507 C2509 1.415 . S
C2508 C2507 1.355 . S
C2508 C2510 1.419 . S
C2509 C2504 1.425 . S
C2509 C2506 1.409 . S
C2509 C2507 1.415 . S
C2510 H2500 0.930 . S
C2510 C2508 1.419 . S
C2510 C2511 1.362 . S
C2511 H2501 0.930 . S
C2511 C2504 1.409 . S
C2511 C2510 1.362 . S
C983 C105 2.373 1_554 S
C988 C346 2.277 . S
C999 C65 2.081 . S
C1004 C394 2.070 . S
C1015 C73 1.424 . S
C1020 C426 1.405 . S
C1036 C471 1.635 . S
C1031 C92 1.687 . S
C1047 C17 0.980 . S
C1052 C511 0.964 . S
C1068 C546 1.107 . S
C1063 C37 1.049 . S
C1084 C585 1.303 . S
C1079 C49 1.227 . S
C1095 C8 1.278 . S
C1100 C622 1.281 . S
C1116 C354 2.116 . S
C1111 C231 2.105 1_545 S
C1127 C241 0.667 . S
C1132 C391 0.726 . S
C1148 C434 2.372 . S
C1143 C273 2.269 . S
C1164 C466 1.127 . S
C1159 C171 1.175 1_556 S
C1175 C227 1.337 . S
C1180 C506 1.350 . S
C1196 C554 0.502 . S
C1191 C245 0.765 . S
C1212 C595 2.088 1_556 S
C1207 C269 2.196 . S
C1228 C625 2.054 . S
C1223 C175 2.032 . S
C1244 C351 1.614 . S
C1239 C162 1.636 1_554 S
C1255 C289 2.160 . S
C1260 C674 2.141 . S
C1276 C711 1.270 . S
C1271 C330 1.301 . S
C1292 C742 0.924 . S
C1287 C317 0.914 . S
C1303 C120 2.712 . S
C1308 C635 2.692 . S
C1319 C134 1.461 . S
C1324 C431 1.408 . S
C1335 C331 1.771 . S
C1340 C794 1.769 . S
C1356 C826 1.861 . S
C1351 C303 1.859 . S
C1372 C355 2.294 . S
C1367 C59 2.355 . S
C1388 C825 2.118 . S
C1383 C107 2.121 . S
C1399 C91 1.470 . S
C1404 C435 1.443 . S
C1415 C78 1.663 . S
C1420 C782 1.604 . S
C1436 C502 1.022 1_655 S
C1431 C7 0.996 1_455 S
C1447 C51 1.139 . S
C1452 C715 1.162 . S
C1468 C594 1.297 . S
C1463 C31 1.274 . S
C1484 C871 1.285 . S
C1479 C22 1.308 . S
C1500 C345 2.133 1_556 S
C1495 C143 2.136 . S
C1516 C822 0.509 . S
C1511 C315 0.512 . S
C1527 C115 2.417 . S
C1532 C425 2.407 . S
C1543 C287 1.154 . S
C1548 C795 1.205 . S
C1559 C147 1.398 . S
C1564 C515 1.368 . S
C1580 C705 0.398 . S
C1575 C311 0.447 . S
C1591 C119 2.097 . S
C1596 C586 2.131 . S
C1607 C283 2.042 1_556 S
C1612 C874 2.039 . S
C1623 C190 1.618 . S
C1628 C342 1.616 . S
C1639 C177 2.196 . S
C1644 C665 2.177 . S
C1655 C260 1.290 . S
C1660 C542 1.277 . S
C1671 C247 0.879 . S
C1676 C751 0.905 . S
C1692 C866 2.722 . S
C1687 C274 2.745 . S
C1703 C218 1.497 . S
C1708 C422 1.469 . S
C1724 C465 1.782 . S
C1719 C261 1.778 . S
C1740 C395 1.870 . S
C1735 C205 1.891 . S
C1751 C77 2.377 . S
C1756 C906 2.298 . S
C1772 C834 2.062 . S
C1767 C93 2.074 . S
C1783 C101 1.431 1_554 S
C1788 C946 1.385 . S
C1799 C64 1.703 1_655 S
C1804 C791 1.656 . S
C1815 C45 0.980 . S
C1820 C671 0.947 . S
C1836 C706 1.109 . S
C1831 C9 1.033 . S
C1852 C745 1.312 . S
C1847 C21 1.252 . S
C1868 C862 1.302 . S
C1863 C36 1.301 . S
C1884 C914 2.111 . S
C1879 C259 2.105 . S
C1895 C185 0.447 . S
C1900 C831 0.471 . S
C1916 C954 2.385 . S
C1911 C203 2.305 . S
C1932 C786 1.126 . S
C1927 C213 1.175 . S
C1948 C666 1.346 1_556 S
C1943 C255 1.333 . S
C1959 C189 0.721 . S
C1964 C714 0.415 . S
C1980 C755 2.093 . S
C1975 C199 2.197 . S
C1991 C217 2.048 . S
C1996 C865 2.043 . S
C2012 C911 1.619 . S
C2007 C316 1.673 . S
C2023 C135 2.165 . S
C2028 C514 2.153 . S
C2044 C551 1.230 . S
C2039 C148 1.254 1_565 S
C2060 C582 0.778 . S
C2055 C163 0.838 . S
C2076 C875 2.695 . S
C2071 C302 2.712 . S
C2087 C288 1.488 . S
C2092 C951 1.460 . S
C2108 C474 1.774 . S
C2103 C149 1.755 . S
C2124 C386 1.870 . S
C2119 C121 1.839 . S
C2135 C87 2.361 . S
C2140 C915 2.275 . S
C2156 C385 2.136 . S
C2151 C79 2.135 . S
C2167 C63 1.448 . S
C2172 C955 1.430 . S
C2183 C106 1.686 . S
C2188 C462 1.630 . S
C2199 C35 1.010 . S
C2204 C662 1.023 . S
C2220 C555 1.168 . S
C2215 C23 1.090 . S
C2231 C3 1.305 . S
C2236 C754 1.280 . S
C2247 C50 1.254 . S
C2252 C631 1.275 . S
C2268 C905 2.146 . S
C2263 C325 2.133 . S
C2279 C161 0.511 . S
C2284 C382 0.478 . S
C2300 C945 2.375 1_656 S
C2295 C297 2.414 . S
C2311 C133 1.206 . S
C2316 C475 1.224 . S
C2327 C329 1.398 . S
C2332 C675 1.372 . S
C2348 C545 0.356 . S
C2343 C157 0.403 . S
C2359 C301 2.091 . S
C2364 C746 2.119 1_655 S
C2380 C634 2.054 . S
C2375 C129 2.040 . S
C2396 C902 1.535 . S
C2391 C246 1.524 . S
C2412 C505 2.198 1_565 S
C2407 C219 2.200 . S
C2423 C232 1.228 . S
C2428 C702 1.231 . S
C2444 C591 0.885 . S
C2439 C191 0.865 . S
C2455 C204 2.741 . S
C2460 C626 2.712 . S
C2471 C176 1.504 . S
C2476 C942 1.493 . S
C2492 C785 1.803 . S
C2487 C233 1.784 . S
C2508 C835 1.874 . S
C2503 C275 1.887 . S
