# Generated by pormake.
# Topology gar, (4,6)-cn, num edge types: 1
# Building blocks:
#     Node 0, Type 0, BuildingBlock: UXUYUI_clean_sbu_0, # of connection points: 4
#     Node 1, Type 0, BuildingBlock: UXUYUI_clean_sbu_0, # of connection points: 4
#     Node 2, Type 0, BuildingBlock: UXUYUI_clean_sbu_0, # of connection points: 4
#     Node 3, Type 0, BuildingBlock: UXUYUI_clean_sbu_0, # of connection points: 4
#     Node 4, Type 0, BuildingBlock: UXUYUI_clean_sbu_0, # of connection points: 4
#     Node 5, Type 0, BuildingBlock: UXUYUI_clean_sbu_0, # of connection points: 4
#     Node 6, Type 0, BuildingBlock: UXUYUI_clean_sbu_0, # of connection points: 4
#     Node 7, Type 0, BuildingBlock: UXUYUI_clean_sbu_0, # of connection points: 4
#     Node 8, Type 0, BuildingBlock: UXUYUI_clean_sbu_0, # of connection points: 4
#     Node 9, Type 0, BuildingBlock: UXUYUI_clean_sbu_0, # of connection points: 4
#     Node 10, Type 0, BuildingBlock: UXUYUI_clean_sbu_0, # of connection points: 4
#     Node 11, Type 0, BuildingBlock: UXUYUI_clean_sbu_0, # of connection points: 4
#     Node 12, Type 0, BuildingBlock: UXUYUI_clean_sbu_0, # of connection points: 4
#     Node 13, Type 0, BuildingBlock: UXUYUI_clean_sbu_0, # of connection points: 4
#     Node 14, Type 0, BuildingBlock: UXUYUI_clean_sbu_0, # of connection points: 4
#     Node 15, Type 0, BuildingBlock: UXUYUI_clean_sbu_0, # of connection points: 4
#     Node 16, Type 0, BuildingBlock: UXUYUI_clean_sbu_0, # of connection points: 4
#     Node 17, Type 0, BuildingBlock: UXUYUI_clean_sbu_0, # of connection points: 4
#     Node 18, Type 0, BuildingBlock: UXUYUI_clean_sbu_0, # of connection points: 4
#     Node 19, Type 0, BuildingBlock: UXUYUI_clean_sbu_0, # of connection points: 4
#     Node 20, Type 0, BuildingBlock: UXUYUI_clean_sbu_0, # of connection points: 4
#     Node 21, Type 0, BuildingBlock: UXUYUI_clean_sbu_0, # of connection points: 4
#     Node 22, Type 0, BuildingBlock: UXUYUI_clean_sbu_0, # of connection points: 4
#     Node 23, Type 0, BuildingBlock: UXUYUI_clean_sbu_0, # of connection points: 4
#     Node 24, Type 1, BuildingBlock: BETDIP_clean_sbu_0, # of connection points: 6
#     Node 25, Type 1, BuildingBlock: BETDIP_clean_sbu_0, # of connection points: 6
#     Node 26, Type 1, BuildingBlock: BETDIP_clean_sbu_0, # of connection points: 6
#     Node 27, Type 1, BuildingBlock: BETDIP_clean_sbu_0, # of connection points: 6
#     Node 28, Type 1, BuildingBlock: BETDIP_clean_sbu_0, # of connection points: 6
#     Node 29, Type 1, BuildingBlock: BETDIP_clean_sbu_0, # of connection points: 6
#     Node 30, Type 1, BuildingBlock: BETDIP_clean_sbu_0, # of connection points: 6
#     Node 31, Type 1, BuildingBlock: BETDIP_clean_sbu_0, # of connection points: 6
#     Node 32, Type 1, BuildingBlock: BETDIP_clean_sbu_0, # of connection points: 6
#     Node 33, Type 1, BuildingBlock: BETDIP_clean_sbu_0, # of connection points: 6
#     Node 34, Type 1, BuildingBlock: BETDIP_clean_sbu_0, # of connection points: 6
#     Node 35, Type 1, BuildingBlock: BETDIP_clean_sbu_0, # of connection points: 6
#     Node 36, Type 1, BuildingBlock: BETDIP_clean_sbu_0, # of connection points: 6
#     Node 37, Type 1, BuildingBlock: BETDIP_clean_sbu_0, # of connection points: 6
#     Node 38, Type 1, BuildingBlock: BETDIP_clean_sbu_0, # of connection points: 6
#     Node 39, Type 1, BuildingBlock: BETDIP_clean_sbu_0, # of connection points: 6
#     Edge 40, Type (0, 1), BuildingBlock: XUDNAN_clean_linker_2, # of connection points: 2
#     Edge 41, Type (0, 1), BuildingBlock: XUDNAN_clean_linker_2, # of connection points: 2
#     Edge 42, Type (0, 1), BuildingBlock: XUDNAN_clean_linker_2, # of connection points: 2
#     Edge 43, Type (0, 1), BuildingBlock: XUDNAN_clean_linker_2, # of connection points: 2
#     Edge 44, Type (0, 1), BuildingBlock: XUDNAN_clean_linker_2, # of connection points: 2
#     Edge 45, Type (0, 1), BuildingBlock: XUDNAN_clean_linker_2, # of connection points: 2
#     Edge 46, Type (0, 1), BuildingBlock: XUDNAN_clean_linker_2, # of connection points: 2
#     Edge 47, Type (0, 1), BuildingBlock: XUDNAN_clean_linker_2, # of connection points: 2
#     Edge 48, Type (0, 1), BuildingBlock: XUDNAN_clean_linker_2, # of connection points: 2
#     Edge 49, Type (0, 1), BuildingBlock: XUDNAN_clean_linker_2, # of connection points: 2
#     Edge 50, Type (0, 1), BuildingBlock: XUDNAN_clean_linker_2, # of connection points: 2
#     Edge 51, Type (0, 1), BuildingBlock: XUDNAN_clean_linker_2, # of connection points: 2
#     Edge 52, Type (0, 1), BuildingBlock: XUDNAN_clean_linker_2, # of connection points: 2
#     Edge 53, Type (0, 1), BuildingBlock: XUDNAN_clean_linker_2, # of connection points: 2
#     Edge 54, Type (0, 1), BuildingBlock: XUDNAN_clean_linker_2, # of connection points: 2
#     Edge 55, Type (0, 1), BuildingBlock: XUDNAN_clean_linker_2, # of connection points: 2
#     Edge 56, Type (0, 1), BuildingBlock: XUDNAN_clean_linker_2, # of connection points: 2
#     Edge 57, Type (0, 1), BuildingBlock: XUDNAN_clean_linker_2, # of connection points: 2
#     Edge 58, Type (0, 1), BuildingBlock: XUDNAN_clean_linker_2, # of connection points: 2
#     Edge 59, Type (0, 1), BuildingBlock: XUDNAN_clean_linker_2, # of connection points: 2
#     Edge 60, Type (0, 1), BuildingBlock: XUDNAN_clean_linker_2, # of connection points: 2
#     Edge 61, Type (0, 1), BuildingBlock: XUDNAN_clean_linker_2, # of connection points: 2
#     Edge 62, Type (0, 1), BuildingBlock: XUDNAN_clean_linker_2, # of connection points: 2
#     Edge 63, Type (0, 1), BuildingBlock: XUDNAN_clean_linker_2, # of connection points: 2
#     Edge 64, Type (0, 1), BuildingBlock: XUDNAN_clean_linker_2, # of connection points: 2
#     Edge 65, Type (0, 1), BuildingBlock: XUDNAN_clean_linker_2, # of connection points: 2
#     Edge 66, Type (0, 1), BuildingBlock: XUDNAN_clean_linker_2, # of connection points: 2
#     Edge 67, Type (0, 1), BuildingBlock: XUDNAN_clean_linker_2, # of connection points: 2
#     Edge 68, Type (0, 1), BuildingBlock: XUDNAN_clean_linker_2, # of connection points: 2
#     Edge 69, Type (0, 1), BuildingBlock: XUDNAN_clean_linker_2, # of connection points: 2
#     Edge 70, Type (0, 1), BuildingBlock: XUDNAN_clean_linker_2, # of connection points: 2
#     Edge 71, Type (0, 1), BuildingBlock: XUDNAN_clean_linker_2, # of connection points: 2
#     Edge 72, Type (0, 1), BuildingBlock: XUDNAN_clean_linker_2, # of connection points: 2
#     Edge 73, Type (0, 1), BuildingBlock: XUDNAN_clean_linker_2, # of connection points: 2
#     Edge 74, Type (0, 1), BuildingBlock: XUDNAN_clean_linker_2, # of connection points: 2
#     Edge 75, Type (0, 1), BuildingBlock: XUDNAN_clean_linker_2, # of connection points: 2
#     Edge 76, Type (0, 1), BuildingBlock: XUDNAN_clean_linker_2, # of connection points: 2
#     Edge 77, Type (0, 1), BuildingBlock: XUDNAN_clean_linker_2, # of connection points: 2
#     Edge 78, Type (0, 1), BuildingBlock: XUDNAN_clean_linker_2, # of connection points: 2
#     Edge 79, Type (0, 1), BuildingBlock: XUDNAN_clean_linker_2, # of connection points: 2
#     Edge 80, Type (0, 1), BuildingBlock: XUDNAN_clean_linker_2, # of connection points: 2
#     Edge 81, Type (0, 1), BuildingBlock: XUDNAN_clean_linker_2, # of connection points: 2
#     Edge 82, Type (0, 1), BuildingBlock: XUDNAN_clean_linker_2, # of connection points: 2
#     Edge 83, Type (0, 1), BuildingBlock: XUDNAN_clean_linker_2, # of connection points: 2
#     Edge 84, Type (0, 1), BuildingBlock: XUDNAN_clean_linker_2, # of connection points: 2
#     Edge 85, Type (0, 1), BuildingBlock: XUDNAN_clean_linker_2, # of connection points: 2
#     Edge 86, Type (0, 1), BuildingBlock: XUDNAN_clean_linker_2, # of connection points: 2
#     Edge 87, Type (0, 1), BuildingBlock: XUDNAN_clean_linker_2, # of connection points: 2
#     Edge 88, Type (0, 1), BuildingBlock: XUDNAN_clean_linker_2, # of connection points: 2
#     Edge 89, Type (0, 1), BuildingBlock: XUDNAN_clean_linker_2, # of connection points: 2
#     Edge 90, Type (0, 1), BuildingBlock: XUDNAN_clean_linker_2, # of connection points: 2
#     Edge 91, Type (0, 1), BuildingBlock: XUDNAN_clean_linker_2, # of connection points: 2
#     Edge 92, Type (0, 1), BuildingBlock: XUDNAN_clean_linker_2, # of connection points: 2
#     Edge 93, Type (0, 1), BuildingBlock: XUDNAN_clean_linker_2, # of connection points: 2
#     Edge 94, Type (0, 1), BuildingBlock: XUDNAN_clean_linker_2, # of connection points: 2
#     Edge 95, Type (0, 1), BuildingBlock: XUDNAN_clean_linker_2, # of connection points: 2
#     Edge 96, Type (0, 1), BuildingBlock: XUDNAN_clean_linker_2, # of connection points: 2
#     Edge 97, Type (0, 1), BuildingBlock: XUDNAN_clean_linker_2, # of connection points: 2
#     Edge 98, Type (0, 1), BuildingBlock: XUDNAN_clean_linker_2, # of connection points: 2
#     Edge 99, Type (0, 1), BuildingBlock: XUDNAN_clean_linker_2, # of connection points: 2
#     Edge 100, Type (0, 1), BuildingBlock: XUDNAN_clean_linker_2, # of connection points: 2
#     Edge 101, Type (0, 1), BuildingBlock: XUDNAN_clean_linker_2, # of connection points: 2
#     Edge 102, Type (0, 1), BuildingBlock: XUDNAN_clean_linker_2, # of connection points: 2
#     Edge 103, Type (0, 1), BuildingBlock: XUDNAN_clean_linker_2, # of connection points: 2
#     Edge 104, Type (0, 1), BuildingBlock: XUDNAN_clean_linker_2, # of connection points: 2
#     Edge 105, Type (0, 1), BuildingBlock: XUDNAN_clean_linker_2, # of connection points: 2
#     Edge 106, Type (0, 1), BuildingBlock: XUDNAN_clean_linker_2, # of connection points: 2
#     Edge 107, Type (0, 1), BuildingBlock: XUDNAN_clean_linker_2, # of connection points: 2
#     Edge 108, Type (0, 1), BuildingBlock: XUDNAN_clean_linker_2, # of connection points: 2
#     Edge 109, Type (0, 1), BuildingBlock: XUDNAN_clean_linker_2, # of connection points: 2
#     Edge 110, Type (0, 1), BuildingBlock: XUDNAN_clean_linker_2, # of connection points: 2
#     Edge 111, Type (0, 1), BuildingBlock: XUDNAN_clean_linker_2, # of connection points: 2
#     Edge 112, Type (0, 1), BuildingBlock: XUDNAN_clean_linker_2, # of connection points: 2
#     Edge 113, Type (0, 1), BuildingBlock: XUDNAN_clean_linker_2, # of connection points: 2
#     Edge 114, Type (0, 1), BuildingBlock: XUDNAN_clean_linker_2, # of connection points: 2
#     Edge 115, Type (0, 1), BuildingBlock: XUDNAN_clean_linker_2, # of connection points: 2
#     Edge 116, Type (0, 1), BuildingBlock: XUDNAN_clean_linker_2, # of connection points: 2
#     Edge 117, Type (0, 1), BuildingBlock: XUDNAN_clean_linker_2, # of connection points: 2
#     Edge 118, Type (0, 1), BuildingBlock: XUDNAN_clean_linker_2, # of connection points: 2
#     Edge 119, Type (0, 1), BuildingBlock: XUDNAN_clean_linker_2, # of connection points: 2
#     Edge 120, Type (0, 1), BuildingBlock: XUDNAN_clean_linker_2, # of connection points: 2
#     Edge 121, Type (0, 1), BuildingBlock: XUDNAN_clean_linker_2, # of connection points: 2
#     Edge 122, Type (0, 1), BuildingBlock: XUDNAN_clean_linker_2, # of connection points: 2
#     Edge 123, Type (0, 1), BuildingBlock: XUDNAN_clean_linker_2, # of connection points: 2
#     Edge 124, Type (0, 1), BuildingBlock: XUDNAN_clean_linker_2, # of connection points: 2
#     Edge 125, Type (0, 1), BuildingBlock: XUDNAN_clean_linker_2, # of connection points: 2
#     Edge 126, Type (0, 1), BuildingBlock: XUDNAN_clean_linker_2, # of connection points: 2
#     Edge 127, Type (0, 1), BuildingBlock: XUDNAN_clean_linker_2, # of connection points: 2
#     Edge 128, Type (0, 1), BuildingBlock: XUDNAN_clean_linker_2, # of connection points: 2
#     Edge 129, Type (0, 1), BuildingBlock: XUDNAN_clean_linker_2, # of connection points: 2
#     Edge 130, Type (0, 1), BuildingBlock: XUDNAN_clean_linker_2, # of connection points: 2
#     Edge 131, Type (0, 1), BuildingBlock: XUDNAN_clean_linker_2, # of connection points: 2
#     Edge 132, Type (0, 1), BuildingBlock: XUDNAN_clean_linker_2, # of connection points: 2
#     Edge 133, Type (0, 1), BuildingBlock: XUDNAN_clean_linker_2, # of connection points: 2
#     Edge 134, Type (0, 1), BuildingBlock: XUDNAN_clean_linker_2, # of connection points: 2
#     Edge 135, Type (0, 1), BuildingBlock: XUDNAN_clean_linker_2, # of connection points: 2
# Relax obj value: 0.185
# Max RMSD: 0.269
# Mean RMSD: 0.185
data_MOF--net-gar--node1-UXUYUI_clean_sbu_0--node2-BETDIP_clean_sbu_0--edge1-XUDNAN_clean_linker_2
_symmetry_space_group_name_H-M    P1
_symmetry_Int_Tables_number       1
_symmetry_cell_setting            triclinic
loop_
_symmetry_equiv_pos_as_xyz
'x, y, z'
_cell_length_a     75.706482
_cell_length_b     70.096727
_cell_length_c     68.010416
_cell_angle_alpha  96.505769
_cell_angle_beta   98.412883
_cell_angle_gamma 100.41604
loop_
_atom_site_label
_atom_site_type_symbol
_atom_site_fract_x
_atom_site_fract_y
_atom_site_fract_z
_atom_type_partial_charge
Li0 Li 1.0075 0.2944 0.36522 0.0
Li1 Li 0.02396 0.31491 0.3951 0.0
Li2 Li 0.04014 0.29863 0.36986 0.0
Li3 Li 0.02213 0.2797 0.39207 0.0
C4 C 0.01907 0.33125 0.35498 0.0
N5 N 1.00544 0.3556 0.33009 0.0
C6 C 1.00379 0.33878 0.35862 0.0
C7 C 0.0275 0.33618 0.33878 0.0
C8 C 0.99708 0.35103 0.34583 0.0
C9 C 0.02038 0.3485 0.32635 0.0
C10 C 0.99199 0.29887 0.40693 0.0
C11 C 0.98649 0.30097 0.44109 0.0
N12 N 0.97152 0.30861 0.43564 0.0
C13 C 0.97648 0.30664 0.40164 0.0
C14 C 0.99696 0.2959 0.42679 0.0
C15 C 0.96634 0.3115 0.41637 0.0
C16 C 0.97073 0.28227 0.35089 0.0
N17 N 0.98648 0.2909 0.34549 0.0
C18 C 0.97049 0.29648 0.31442 0.0
C19 C 0.98677 0.29725 0.32733 0.0
C20 C 0.95401 0.28915 0.32047 0.0
C21 C 0.95418 0.28138 0.33858 0.0
H22 H 0.97102 0.27673 0.36511 0.0
H23 H 0.99956 0.30337 0.32309 0.0
C24 C 0.04364 0.34579 0.42315 0.0
N25 N 0.0265 0.33833 0.41308 0.0
C26 C 0.04718 0.36286 0.43684 0.0
C27 C 0.0155 0.36504 0.42882 0.0
C28 C 0.01252 0.34765 0.41546 0.0
C29 C 0.03307 0.37287 0.43972 0.0
H30 H 0.05465 0.33849 0.4205 0.0
H31 H 0.99913 0.34187 0.40679 0.0
C32 C 1.01068 0.25881 0.34909 0.0
N33 N 0.98784 0.22912 0.32164 0.0
C34 C 1.00211 0.24174 0.35544 0.0
C35 C 1.00765 0.26061 0.32865 0.0
C36 C 0.99064 0.22693 0.34138 0.0
C37 C 0.99602 0.24553 0.31505 0.0
C38 C 0.05498 0.29776 0.41686 0.0
C39 C 0.07104 0.29083 0.41565 0.0
C40 C 0.05005 0.30207 0.43563 0.0
C41 C 0.08185 0.28824 0.43326 0.0
C42 C 0.06123 0.29932 0.45289 0.0
N43 N 0.07677 0.29252 0.45136 0.0
C44 C 0.07791 0.30805 0.36706 0.0
C45 C 0.05747 0.29014 0.33841 0.0
C46 C 0.09286 0.30467 0.35826 0.0
N47 N 0.0607 0.30007 0.35729 0.0
C48 C 0.07187 0.28638 0.32913 0.0
C49 C 0.08972 0.293 0.33944 0.0
H50 H 0.08002 0.31595 0.38209 0.0
H51 H 0.04371 0.28412 0.33104 0.0
C52 C 1.00599 0.24907 0.41166 0.0
N53 N 0.0214 0.25754 0.40538 0.0
C54 C 1.00485 0.23085 0.41833 0.0
C55 C 0.03558 0.2308 0.41238 0.0
C56 C 0.03604 0.24885 0.40564 0.0
C57 C 0.01969 0.22135 0.41841 0.0
H58 H 0.99426 0.25591 0.41044 0.0
H59 H 0.04779 0.25554 0.39977 0.0
O60 O 0.02578 0.31907 0.36714 0.0
O61 O 1.00193 0.29374 0.39262 0.0
O62 O 0.02223 0.27338 0.36269 0.0
O63 O 0.04449 0.3009 0.39979 0.0
H64 H 0.997 0.33488 0.37095 0.0
H65 H 0.03933 0.33043 0.33578 0.0
H66 H 0.98518 0.35685 0.34836 0.0
H67 H 0.02671 0.35239 0.3137 0.0
H68 H 0.99021 0.29876 0.45652 0.0
H69 H 0.97244 0.30914 0.38638 0.0
H70 H 1.00867 0.28953 0.4311 0.0
H71 H 0.95437 0.31761 0.4125 0.0
H72 H 0.97073 0.30242 0.30041 0.0
H73 H 0.9416 0.2753 0.34344 0.0
H74 H 0.0609 0.36812 0.44506 0.0
H75 H 1.00429 0.37246 0.43021 0.0
H76 H 1.00432 0.23972 0.37099 0.0
H77 H 0.01385 0.27369 0.32328 0.0
H78 H 0.984 0.21368 0.34618 0.0
H79 H 0.99347 0.24689 0.29925 0.0
H80 H 0.07506 0.28733 0.40127 0.0
H81 H 0.03791 0.30783 0.43693 0.0
H82 H 0.09429 0.28285 0.43253 0.0
H83 H 0.05761 0.30269 0.46751 0.0
H84 H 0.10656 0.30986 0.36658 0.0
H85 H 0.06907 0.27735 0.31456 0.0
H86 H 0.99225 0.22395 0.42258 0.0
H87 H 0.04744 0.22417 0.41251 0.0
Li88 Li 0.05908 0.77263 0.6697 0.0
Li89 Li 0.07043 0.75508 0.69691 0.0
Li90 Li 0.05284 0.73661 0.66553 0.0
Li91 Li 0.03794 0.75417 0.69051 0.0
C92 C 0.08768 0.75239 0.65637 0.0
N93 N 0.11034 0.74708 0.62874 0.0
C94 C 0.10579 0.75124 0.66286 0.0
C95 C 0.08108 0.75088 0.63585 0.0
C96 C 0.11704 0.74858 0.64866 0.0
C97 C 0.09274 0.74814 0.62211 0.0
C98 C 0.06328 0.7928 0.71406 0.0
C99 C 0.06294 0.8075 0.74778 0.0
N100 N 0.07439 0.82388 0.74486 0.0
C101 C 0.07497 0.8098 0.71135 0.0
C102 C 0.05711 0.79165 0.73236 0.0
C103 C 0.08046 0.82535 0.72712 0.0
C104 C 0.05093 0.80351 0.64928 0.0
N105 N 0.06451 0.79461 0.65652 0.0
C106 C 0.08645 0.81661 0.64369 0.0
C107 C 0.08204 0.80092 0.65416 0.0
C108 C 0.07268 0.82596 0.63579 0.0
C109 C 0.05474 0.81933 0.63879 0.0
H110 H 0.03713 0.79813 0.65143 0.0
H111 H 0.0926 0.79371 0.66037 0.0
C112 C 0.09756 0.73819 0.71461 0.0
N113 N 0.09085 0.75489 0.71634 0.0
C114 C 0.11331 0.73676 0.72722 0.0
C115 C 0.11526 0.76998 0.74292 0.0
C116 C 0.09925 0.77062 0.73022 0.0
C117 C 0.1226 0.75295 0.74133 0.0
H118 H 0.09091 0.72615 0.70301 0.0
H119 H 0.09402 0.78392 0.73106 0.0
C120 C 0.022 0.75044 0.64418 0.0
N121 N 0.99526 0.74176 0.61039 0.0
C122 C 1.00445 0.74068 0.64532 0.0
C123 C 0.02593 0.75597 0.62593 0.0
C124 C 0.99112 0.73639 0.62804 0.0
C125 C 0.01223 0.75138 0.60899 0.0
C126 C 0.05343 0.72164 0.70879 0.0
C127 C 0.05691 0.70273 0.70546 0.0
C128 C 0.05363 0.73036 0.72836 0.0
C129 C 0.06072 0.69292 0.72186 0.0
C130 C 0.0575 0.72007 0.74435 0.0
N131 N 0.06095 0.70172 0.7408 0.0
C132 C 0.06575 0.70482 0.64914 0.0
C133 C 0.03779 0.70834 0.63051 0.0
C134 C 0.06698 0.68942 0.63481 0.0
N135 N 0.05148 0.71413 0.64657 0.0
C136 C 0.03858 0.69321 0.61571 0.0
C137 C 0.05345 0.68381 0.61766 0.0
H138 H 0.07644 0.70973 0.66209 0.0
H139 H 0.02639 0.71556 0.6289 0.0
C140 C 1.01118 0.77039 0.70707 0.0
N141 N 0.0173 0.75361 0.70283 0.0
C142 C 0.99685 0.77044 0.71783 0.0
C143 C 0.99538 0.73589 0.71942 0.0
C144 C 1.00963 0.73649 0.7085 0.0
C145 C 0.98889 0.75306 0.72437 0.0
H146 H 0.01765 0.78378 0.70237 0.0
H147 H 0.01483 0.72338 0.70489 0.0
O148 O 0.07653 0.75504 0.67012 0.0
O149 O 0.05764 0.77754 0.69871 0.0
O150 O 0.03521 0.75467 0.66091 0.0
O151 O 0.05001 0.73161 0.69295 0.0
H152 H 0.11111 0.75248 0.67872 0.0
H153 H 0.06709 0.75167 0.63061 0.0
H154 H 0.13111 0.74771 0.65347 0.0
H155 H 0.08781 0.74687 0.60617 0.0
H156 H 0.05832 0.8068 0.76205 0.0
H157 H 0.07982 0.81096 0.69725 0.0
H158 H 0.04792 0.77869 0.73465 0.0
H159 H 0.08954 0.83858 0.72526 0.0
H160 H 0.10046 0.82144 0.64188 0.0
H161 H 0.04369 0.826 0.63271 0.0
H162 H 0.1184 0.7233 0.72556 0.0
H163 H 0.1222 0.78298 0.75323 0.0
H164 H 1.0012 0.73639 0.65937 0.0
H165 H 0.0394 0.76366 0.62483 0.0
H166 H 0.97749 0.72878 0.62866 0.0
H167 H 0.01509 0.75547 0.59474 0.0
H168 H 0.05679 0.69578 0.69038 0.0
H169 H 0.05097 0.74498 0.73115 0.0
H170 H 0.06353 0.67831 0.71953 0.0
H171 H 0.0578 0.72669 0.75959 0.0
H172 H 0.07864 0.68243 0.63676 0.0
H173 H 0.02774 0.68897 0.60282 0.0
H174 H 0.99206 0.78393 0.72094 0.0
H175 H 0.98979 0.72222 0.72429 0.0
Li176 Li 0.50603 0.79107 0.86017 0.0
Li177 Li 0.51952 0.81526 0.89052 0.0
Li178 Li 0.53768 0.80132 0.86711 0.0
Li179 Li 0.52204 0.7803 0.8891 0.0
C180 C 0.52724 0.83251 0.85194 0.0
N181 N 0.54148 0.86177 0.83129 0.0
C182 C 0.53054 0.85214 0.86062 0.0
C183 C 0.53116 0.82777 0.83274 0.0
C184 C 0.53773 0.86672 0.84993 0.0
C185 C 0.5384 0.84276 0.82257 0.0
C186 C 0.48992 0.79146 0.90268 0.0
C187 C 0.48807 0.79293 0.9379 0.0
N188 N 0.46987 0.79249 0.93349 0.0
C189 C 0.47118 0.79094 0.89848 0.0
C190 C 0.49843 0.79243 0.92254 0.0
C191 C 0.4613 0.79152 0.91427 0.0
C192 C 0.47082 0.77139 0.84394 0.0
N193 N 0.48528 0.78423 0.84029 0.0
C194 C 0.46795 0.79077 0.81057 0.0
C195 C 0.48435 0.7935 0.82379 0.0
C196 C 0.45254 0.77873 0.81481 0.0
C197 C 0.45408 0.76851 0.83132 0.0
H198 H 0.4721 0.76428 0.85724 0.0
H199 H 0.49606 0.8037 0.82143 0.0
C200 C 0.53296 0.85002 0.91757 0.0
N201 N 0.51743 0.83754 0.90798 0.0
C202 C 0.53208 0.86586 0.93156 0.0
C203 C 0.49923 0.8558 0.92536 0.0
C204 C 0.50073 0.84043 0.91118 0.0
C205 C 0.51506 0.8686 0.93581 0.0
H206 H 0.54604 0.8475 0.91452 0.0
H207 H 0.48857 0.8307 0.90289 0.0
C208 C 0.51481 0.75853 0.84611 0.0
N209 N 0.49514 0.72812 0.81731 0.0
C210 C 0.50789 0.74041 0.85162 0.0
C211 C 0.51198 0.76105 0.82586 0.0
C212 C 0.49793 0.72525 0.83687 0.0
C213 C 0.5019 0.74555 0.81155 0.0
C214 C 0.55485 0.80462 0.91283 0.0
C215 C 0.57093 0.79855 0.90958 0.0
C216 C 0.55258 0.81081 0.93241 0.0
C217 C 0.5844 0.79863 0.926 0.0
C218 C 0.56635 0.81062 0.94844 0.0
N219 N 0.58184 0.80458 0.94493 0.0
C220 C 0.57391 0.81983 0.86683 0.0
C221 C 0.56053 0.79499 0.8393 0.0
C222 C 0.59109 0.82035 0.86151 0.0
N223 N 0.5593 0.80661 0.85625 0.0
C224 C 0.57732 0.79541 0.83313 0.0
C225 C 0.5929 0.80753 0.84487 0.0
H226 H 0.57247 0.82883 0.88028 0.0
H227 H 0.54873 0.78451 0.83132 0.0
C228 C 0.5053 0.74847 0.90575 0.0
N229 N 0.52185 0.75964 0.9051 0.0
C230 C 0.50384 0.73404 0.9183 0.0
C231 C 0.53651 0.74263 0.92906 0.0
C232 C 0.53737 0.75659 0.916 0.0
C233 C 0.51956 0.73138 0.9304 0.0
H234 H 0.49318 0.75096 0.89668 0.0
H235 H 0.5504 0.7651 0.91483 0.0
O236 O 0.51925 0.81817 0.86175 0.0
O237 O 0.49983 0.79133 0.88739 0.0
O238 O 0.52443 0.77362 0.86043 0.0
O239 O 0.54154 0.80476 0.89691 0.0
H240 H 0.52729 0.85612 0.8753 0.0
H241 H 0.52859 0.81266 0.82573 0.0
H242 H 0.54022 0.88199 0.85642 0.0
H243 H 0.5415 0.83929 0.80771 0.0
H244 H 0.49449 0.79368 0.95334 0.0
H245 H 0.46439 0.79036 0.88321 0.0
H246 H 0.51287 0.79272 0.92602 0.0
H247 H 0.44681 0.79124 0.91125 0.0
H248 H 0.46699 0.79906 0.79808 0.0
H249 H 0.44225 0.75929 0.83499 0.0
H250 H 0.54455 0.87553 0.93937 0.0
H251 H 0.48588 0.85772 0.92811 0.0
H252 H 0.51026 0.73798 0.86709 0.0
H253 H 0.51713 0.77497 0.82126 0.0
H254 H 0.49246 0.71118 0.84097 0.0
H255 H 0.49941 0.74741 0.79588 0.0
H256 H 0.57285 0.79344 0.89458 0.0
H257 H 0.54035 0.81577 0.93524 0.0
H258 H 0.59685 0.79385 0.92371 0.0
H259 H 0.56473 0.81531 0.96367 0.0
H260 H 0.60296 0.82971 0.87097 0.0
H261 H 0.57836 0.78513 0.8204 0.0
H262 H 0.49057 0.72552 0.91905 0.0
H263 H 0.5489 0.74072 0.93814 0.0
Li264 Li 0.56002 0.27139 0.1727 0.0
Li265 Li 0.56904 0.25423 0.20014 0.0
Li266 Li 0.55492 0.23547 0.16765 0.0
Li267 Li 0.53677 0.2517 0.18985 0.0
C268 C 0.58826 0.25547 0.15947 0.0
N269 N 0.60851 0.2566 0.12882 0.0
C270 C 0.60713 0.25699 0.16372 0.0
C271 C 0.57968 0.25448 0.13964 0.0
C272 C 0.61713 0.25755 0.14802 0.0
C273 C 0.59015 0.25509 0.12436 0.0
C274 C 0.56435 0.28782 0.21797 0.0
C275 C 0.57079 0.29483 0.25412 0.0
N276 N 0.58289 0.31137 0.25289 0.0
C277 C 0.57674 0.30496 0.21705 0.0
C278 C 0.56122 0.28278 0.23663 0.0
C279 C 0.58601 0.31665 0.23487 0.0
C280 C 0.55256 0.30098 0.15018 0.0
N281 N 0.56606 0.29392 0.16059 0.0
C282 C 0.58876 0.31939 0.15356 0.0
C283 C 0.58388 0.30274 0.16251 0.0
C284 C 0.57512 0.32704 0.14267 0.0
C285 C 0.5568 0.31764 0.14103 0.0
H286 H 0.53851 0.29361 0.14898 0.0
H287 H 0.59429 0.2969 0.17114 0.0
C288 C 0.58997 0.24344 0.23483 0.0
N289 N 0.5891 0.25612 0.22116 0.0
C290 C 0.60663 0.24281 0.24626 0.0
C291 C 0.62095 0.26948 0.23069 0.0
C292 C 0.60402 0.26948 0.21944 0.0
C293 C 0.62245 0.2554 0.2436 0.0
H294 H 0.57813 0.233 0.23616 0.0
H295 H 0.60298 0.27927 0.2083 0.0
C296 C 0.52364 0.24445 0.14442 0.0
N297 N 0.49622 0.22842 0.11222 0.0
C298 C 0.5085 0.23089 0.14705 0.0
C299 C 0.52476 0.24999 0.12546 0.0
C300 C 0.49479 0.22293 0.13057 0.0
C301 C 0.51079 0.24166 0.10936 0.0
C302 C 0.54925 0.21736 0.2079 0.0
C303 C 0.55526 0.19982 0.20397 0.0
C304 C 0.54271 0.22154 0.22578 0.0
C305 C 0.5547 0.18677 0.21806 0.0
C306 C 0.54236 0.2081 0.23946 0.0
N307 N 0.54832 0.19115 0.23536 0.0
C308 C 0.57301 0.20768 0.15349 0.0
C309 C 0.54305 0.20264 0.13515 0.0
C310 C 0.57656 0.19167 0.14178 0.0
N311 N 0.55656 0.21297 0.14996 0.0
C312 C 0.54591 0.18623 0.12323 0.0
C313 C 0.56287 0.18051 0.1265 0.0
H314 H 0.58344 0.21593 0.16556 0.0
H315 H 0.53001 0.20688 0.13268 0.0
C316 C 0.50838 0.26778 0.20211 0.0
N317 N 0.51425 0.2507 0.19893 0.0
C318 C 0.49306 0.26844 0.21114 0.0
C319 C 0.49008 0.23385 0.21326 0.0
C320 C 0.50512 0.23376 0.20364 0.0
C321 C 0.48399 0.25145 0.21748 0.0
H322 H 0.51587 0.28099 0.19803 0.0
H323 H 0.50991 0.22029 0.20058 0.0
O324 O 0.57829 0.25476 0.17471 0.0
O325 O 0.55527 0.27612 0.20068 0.0
O326 O 0.53704 0.25268 0.16041 0.0
O327 O 0.54946 0.23013 0.19411 0.0
H328 H 0.61397 0.25766 0.17899 0.0
H329 H 0.56509 0.25317 0.13612 0.0
H330 H 0.63175 0.25872 0.15109 0.0
H331 H 0.58369 0.25433 0.10893 0.0
H332 H 0.5686 0.29104 0.26868 0.0
H333 H 0.5792 0.30919 0.20276 0.0
H334 H 0.55158 0.26964 0.23759 0.0
H335 H 0.59568 0.32992 0.23438 0.0
H336 H 0.603 0.32634 0.15533 0.0
H337 H 0.54591 0.32293 0.13252 0.0
H338 H 0.60732 0.23184 0.25621 0.0
H339 H 0.63291 0.27931 0.2281 0.0
H340 H 0.50743 0.2264 0.16159 0.0
H341 H 0.53624 0.26068 0.1232 0.0
H342 H 0.48304 0.21235 0.13237 0.0
H343 H 0.5115 0.24578 0.09459 0.0
H344 H 0.56028 0.19631 0.19018 0.0
H345 H 0.53819 0.23512 0.22918 0.0
H346 H 0.55932 0.17315 0.21522 0.0
H347 H 0.5374 0.21119 0.25338 0.0
H348 H 0.58994 0.18811 0.14472 0.0
H349 H 0.53481 0.17791 0.11189 0.0
H350 H 0.48861 0.28224 0.21334 0.0
H351 H 0.48377 0.22036 0.21791 0.0
Li352 Li 0.06502 0.80571 0.12399 0.0
Li353 Li 0.0839 0.78916 0.1504 0.0
Li354 Li 0.06207 0.76876 0.12029 0.0
Li355 Li 0.04926 0.7851 0.1481 0.0
C356 C 0.09299 0.79093 0.10474 0.0
N357 N 0.11042 0.79201 0.07181 0.0
C358 C 0.11183 0.79209 0.10714 0.0
C359 C 0.08304 0.79044 0.08565 0.0
C360 C 0.12038 0.79258 0.09029 0.0
C361 C 0.0921 0.79099 0.06918 0.0
C362 C 0.07127 0.82282 0.17147 0.0
C363 C 0.07114 0.82971 0.20697 0.0
N364 N 0.07575 0.84923 0.20603 0.0
C365 C 0.07593 0.84292 0.17081 0.0
C366 C 0.0688 0.81612 0.18964 0.0
C367 C 0.07817 0.85605 0.18847 0.0
C368 C 0.04652 0.83067 0.10244 0.0
N369 N 0.06361 0.82925 0.11076 0.0
C370 C 0.07549 0.86119 0.10252 0.0
C371 C 0.07808 0.844 0.11064 0.0
C372 C 0.05782 0.8633 0.09444 0.0
C373 C 0.04336 0.84736 0.09406 0.0
H374 H 0.03514 0.81898 0.10273 0.0
H375 H 0.0916 0.84274 0.1174 0.0
C376 C 0.1158 0.77453 0.15804 0.0
N377 N 0.10772 0.7886 0.16622 0.0
C378 C 0.1327 0.77166 0.16737 0.0
C379 C 0.13289 0.79764 0.19385 0.0
C380 C 0.11593 0.80015 0.18384 0.0
C381 C 0.14159 0.78311 0.18572 0.0
H382 H 0.10907 0.76544 0.14408 0.0
H383 H 0.1093 0.81118 0.19028 0.0
C384 C 0.02774 0.77462 0.10449 0.0
N385 N 0.99808 0.7547 0.07644 0.0
C386 C 0.01368 0.76189 0.11041 0.0
C387 C 0.02661 0.77737 0.08434 0.0
C388 C 0.99883 0.75191 0.09599 0.0
C389 C 1.01154 0.76712 0.07038 0.0
C390 C 0.06225 0.75241 0.16253 0.0
C391 C 0.05155 0.73365 0.1563 0.0
C392 C 0.07033 0.75803 0.18267 0.0
C393 C 0.04893 0.72087 0.17042 0.0
C394 C 0.06736 0.74483 0.19635 0.0
N395 N 0.0568 0.72668 0.18999 0.0
C396 C 0.07596 0.74027 0.0973 0.0
C397 C 0.04494 0.72964 0.09943 0.0
C398 C 0.07682 0.72159 0.08828 0.0
N399 N 0.06027 0.74399 0.10297 0.0
C400 C 0.04527 0.71058 0.09069 0.0
C401 C 0.06155 0.70614 0.08549 0.0
H402 H 0.08819 0.7515 0.10069 0.0
H403 H 0.03273 0.73254 0.10456 0.0
C404 C 0.02253 0.8012 0.16563 0.0
N405 N 0.02879 0.78424 0.16309 0.0
C406 C 1.00773 0.80239 0.17559 0.0
C407 C 1.00553 0.76846 0.17996 0.0
C408 C 0.02047 0.76793 0.1699 0.0
C409 C 0.99901 0.78595 0.18315 0.0
H410 H 0.02903 0.81391 0.15981 0.0
H411 H 0.02529 0.75442 0.16747 0.0
O412 O 0.08433 0.78989 0.12099 0.0
O413 O 0.06879 0.80982 0.15426 0.0
O414 O 0.04229 0.78468 0.11844 0.0
O415 O 0.06504 0.76509 0.1489 0.0
H416 H 0.11975 0.79254 0.12184 0.0
H417 H 0.06848 0.78952 0.08358 0.0
H418 H 0.13494 0.79338 0.09191 0.0
H419 H 0.08455 0.79056 0.05429 0.0
H420 H 0.06925 0.82475 0.22115 0.0
H421 H 0.07778 0.84832 0.1568 0.0
H422 H 0.06492 0.80062 0.19032 0.0
H423 H 0.0818 0.87166 0.18821 0.0
H424 H 0.0871 0.87297 0.1033 0.0
H425 H 0.02952 0.84785 0.08765 0.0
H426 H 0.13875 0.76058 0.16003 0.0
H427 H 0.13888 0.80677 0.20802 0.0
H428 H 0.01431 0.7596 0.12593 0.0
H429 H 0.03717 0.78742 0.07952 0.0
H430 H 0.9879 0.74193 0.10034 0.0
H431 H 1.01052 0.7691 0.05473 0.0
H432 H 0.04522 0.72905 0.14078 0.0
H433 H 0.07886 0.77239 0.18769 0.0
H434 H 0.04062 0.70633 0.16583 0.0
H435 H 0.07348 0.749 0.212 0.0
H436 H 0.08962 0.71918 0.08419 0.0
H437 H 0.03316 0.69925 0.08913 0.0
H438 H 1.00308 0.81612 0.17719 0.0
H439 H 0.99938 0.7554 0.18549 0.0
Li440 Li 0.52181 0.78161 0.44438 0.0
Li441 Li 0.49982 0.76248 0.41434 0.0
Li442 Li 0.51862 0.74479 0.44042 0.0
Li443 Li 0.53465 0.7653 0.41668 0.0
C444 C 0.48936 0.76449 0.45817 0.0
N445 N 0.46863 0.77156 0.48737 0.0
C446 C 0.47483 0.77406 0.4542 0.0
C447 C 0.49327 0.75836 0.47689 0.0
C448 C 0.46453 0.77753 0.46919 0.0
C449 C 0.48265 0.76214 0.49148 0.0
C450 C 0.5192 0.8 0.40408 0.0
C451 C 0.52256 0.81183 0.37261 0.0
N452 N 0.51824 0.82899 0.37982 0.0
C453 C 0.51454 0.81765 0.41108 0.0
C454 C 0.52304 0.79696 0.38461 0.0
C455 C 0.51424 0.83216 0.39863 0.0
C456 C 0.53982 0.82046 0.45726 0.0
N457 N 0.52616 0.80695 0.4616 0.0
C458 C 0.51652 0.83225 0.48189 0.0
C459 C 0.51502 0.81239 0.47433 0.0
C460 C 0.5295 0.84662 0.47617 0.0
C461 C 0.54172 0.84037 0.46436 0.0
H462 H 0.54841 0.81593 0.44698 0.0
H463 H 0.50428 0.80162 0.47779 0.0
C464 C 0.46047 0.74965 0.40085 0.0
N465 N 0.47555 0.76262 0.39854 0.0
C466 C 0.44286 0.75151 0.39217 0.0
C467 C 0.45645 0.77979 0.37862 0.0
C468 C 0.4737 0.77725 0.38726 0.0
C469 C 0.44063 0.76709 0.38128 0.0
H470 H 0.46202 0.73825 0.41006 0.0
H471 H 0.48552 0.78744 0.38532 0.0
C472 C 0.5538 0.77515 0.46236 0.0
N473 N 0.5788 0.79501 0.49523 0.0
C474 C 0.57019 0.78654 0.45965 0.0
C475 C 0.55012 0.7738 0.48175 0.0
C476 C 0.58266 0.79648 0.47648 0.0
C477 C 0.56293 0.78399 0.49819 0.0
C478 C 0.518 0.7291 0.39428 0.0
C479 C 0.52487 0.71238 0.39787 0.0
C480 C 0.51527 0.73384 0.37481 0.0
C481 C 0.52906 0.7007 0.38185 0.0
C482 C 0.51965 0.72179 0.3592 0.0
N483 N 0.5264 0.70562 0.36301 0.0
C484 C 0.50467 0.7071 0.4539 0.0
C485 C 0.53631 0.71979 0.46303 0.0
C486 C 0.50639 0.6907 0.46377 0.0
N487 N 0.51953 0.72137 0.45382 0.0
C488 C 0.53861 0.7038 0.4731 0.0
C489 C 0.52354 0.68896 0.47383 0.0
H490 H 0.49143 0.70847 0.4464 0.0
H491 H 0.54803 0.73103 0.46259 0.0
C492 C 0.56397 0.78715 0.40104 0.0
N493 N 0.55601 0.76854 0.40286 0.0
C494 C 0.58001 0.79088 0.39287 0.0
C495 C 0.57996 0.7563 0.38886 0.0
C496 C 0.56378 0.75321 0.397 0.0
C497 C 0.58851 0.7754 0.38683 0.0
H498 H 0.55811 0.7993 0.40641 0.0
H499 H 0.55781 0.73859 0.39919 0.0
O500 O 0.49947 0.76077 0.44365 0.0
O501 O 0.51981 0.78568 0.41612 0.0
O502 O 0.5414 0.76535 0.44608 0.0
O503 O 0.51396 0.74077 0.40979 0.0
H504 H 0.47163 0.77885 0.43975 0.0
H505 H 0.50435 0.75075 0.48008 0.0
H506 H 0.45328 0.78498 0.46638 0.0
H507 H 0.48554 0.75754 0.50607 0.0
H508 H 0.52561 0.80972 0.35756 0.0
H509 H 0.51104 0.82008 0.42589 0.0
H510 H 0.52639 0.78326 0.37884 0.0
H511 H 0.51076 0.84593 0.40389 0.0
H512 H 0.50681 0.83639 0.49094 0.0
H513 H 0.55207 0.85091 0.45974 0.0
H514 H 0.43109 0.74138 0.39473 0.0
H515 H 0.45552 0.79185 0.37013 0.0
H516 H 0.57324 0.78769 0.44473 0.0
H517 H 0.5375 0.76502 0.48406 0.0
H518 H 0.5954 0.80535 0.47463 0.0
H519 H 0.56027 0.78312 0.51329 0.0
H520 H 0.52704 0.70854 0.4129 0.0
H521 H 0.50989 0.74672 0.37183 0.0
H522 H 0.53446 0.68775 0.38439 0.0
H523 H 0.51768 0.7253 0.34404 0.0
H524 H 0.49434 0.67975 0.46393 0.0
H525 H 0.55219 0.70308 0.48023 0.0
H526 H 0.58573 0.80587 0.39148 0.0
H527 H 0.58601 0.74385 0.38488 0.0
Li528 Li 0.56427 0.3083 0.62353 0.0
Li529 Li 0.58334 0.29186 0.65046 0.0
Li530 Li 0.56149 0.27153 0.62097 0.0
Li531 Li 0.54844 0.28798 0.6481 0.0
C532 C 0.5921 0.28763 0.60532 0.0
N533 N 0.60876 0.27705 0.57341 0.0
C534 C 0.609 0.28212 0.60878 0.0
C535 C 0.58376 0.28799 0.58568 0.0
C536 C 0.61718 0.27675 0.59243 0.0
C537 C 0.59238 0.28253 0.56973 0.0
C538 C 0.57173 0.32494 0.67189 0.0
C539 C 0.57353 0.3301 0.70782 0.0
N540 N 0.57861 0.34974 0.70787 0.0
C541 C 0.57694 0.34515 0.67226 0.0
C542 C 0.56999 0.3173 0.68977 0.0
C543 C 0.58038 0.35746 0.69062 0.0
C544 C 0.54804 0.33582 0.60094 0.0
N545 N 0.56401 0.33199 0.61018 0.0
C546 C 0.58031 0.3621 0.60214 0.0
C547 C 0.57997 0.34484 0.61093 0.0
C548 C 0.56408 0.36645 0.59224 0.0
C549 C 0.54777 0.35291 0.59187 0.0
H550 H 0.53541 0.3256 0.60061 0.0
H551 H 0.59252 0.34178 0.61854 0.0
C552 C 0.61048 0.27288 0.66704 0.0
N553 N 0.60709 0.29128 0.66683 0.0
C554 C 0.62694 0.26977 0.6773 0.0
C555 C 0.63673 0.30465 0.68691 0.0
C556 C 0.6199 0.30712 0.67645 0.0
C557 C 0.64046 0.2857 0.68761 0.0
H558 H 0.60039 0.26047 0.65899 0.0
H559 H 0.61715 0.3217 0.67598 0.0
C560 C 0.52757 0.27768 0.60359 0.0
N561 N 0.49904 0.25859 0.57376 0.0
C562 C 0.51308 0.26459 0.6083 0.0
C563 C 0.5275 0.28118 0.58376 0.0
C564 C 0.49879 0.25506 0.59299 0.0
C565 C 0.51297 0.27134 0.56888 0.0
C566 C 0.5598 0.25366 0.6606 0.0
C567 C 0.54852 0.2359 0.6514 0.0
C568 C 0.56662 0.25629 0.68116 0.0
C569 C 0.54415 0.22106 0.66299 0.0
C570 C 0.5619 0.24111 0.69224 0.0
N571 N 0.55086 0.22395 0.68301 0.0
C572 C 0.57615 0.23967 0.60887 0.0
C573 C 0.54531 0.23424 0.5933 0.0
C574 C 0.57727 0.22057 0.60159 0.0
N575 N 0.56034 0.2462 0.60487 0.0
C576 C 0.5457 0.2147 0.5861 0.0
C577 C 0.56174 0.20737 0.5907 0.0
H578 H 0.58776 0.24906 0.6186 0.0
H579 H 0.53271 0.23937 0.59049 0.0
C580 C 0.52264 0.3039 0.66813 0.0
N581 N 0.52797 0.28672 0.66315 0.0
C582 C 0.50788 0.30443 0.67833 0.0
C583 C 0.50388 0.26951 0.67798 0.0
C584 C 0.51875 0.26964 0.66771 0.0
C585 C 0.49828 0.28712 0.68366 0.0
H586 H 0.52982 0.31728 0.66405 0.0
H587 H 0.52277 0.25601 0.66331 0.0
O588 O 0.58379 0.29269 0.62111 0.0
O589 O 0.56808 0.31274 0.65403 0.0
O590 O 0.54156 0.28734 0.6184 0.0
O591 O 0.56434 0.26833 0.64949 0.0
H592 H 0.61566 0.28186 0.62394 0.0
H593 H 0.57075 0.29238 0.5828 0.0
H594 H 0.6302 0.27234 0.59487 0.0
H595 H 0.58604 0.28265 0.55443 0.0
H596 H 0.57219 0.32442 0.72179 0.0
H597 H 0.57827 0.35125 0.65849 0.0
H598 H 0.56581 0.30169 0.68966 0.0
H599 H 0.58443 0.37315 0.69116 0.0
H600 H 0.59326 0.37207 0.6034 0.0
H601 H 0.53488 0.35528 0.58437 0.0
H602 H 0.62911 0.25489 0.67686 0.0
H603 H 0.64657 0.31745 0.6946 0.0
H604 H 0.51293 0.26175 0.62358 0.0
H605 H 0.53851 0.29144 0.57991 0.0
H606 H 0.48751 0.24483 0.59639 0.0
H607 H 0.51275 0.27387 0.55345 0.0
H608 H 0.54302 0.23365 0.63553 0.0
H609 H 0.5755 0.26989 0.68846 0.0
H610 H 0.53539 0.20725 0.65609 0.0
H611 H 0.56704 0.24295 0.70819 0.0
H612 H 0.59019 0.2161 0.60512 0.0
H613 H 0.53328 0.20524 0.57791 0.0
H614 H 0.50395 0.31836 0.68183 0.0
H615 H 0.49706 0.25577 0.68171 0.0
Li616 Li 0.02059 0.28028 0.94475 0.0
Li617 Li 0.99914 0.26125 0.91379 0.0
Li618 Li 0.01789 0.24343 0.94006 0.0
Li619 Li 0.03429 0.2648 0.91707 0.0
C620 C 0.98693 0.26054 0.95652 0.0
N621 N 0.96387 0.26375 0.98413 0.0
C622 C 0.97154 0.2687 0.95198 0.0
C623 C 0.99055 0.25395 0.97505 0.0
C624 C 0.96006 0.27021 0.96616 0.0
C625 C 0.97873 0.25572 0.98881 0.0
C626 C 0.01897 0.30016 0.90585 0.0
C627 C 0.02457 0.31487 0.87641 0.0
N628 N 0.01916 0.33119 0.88417 0.0
C629 C 0.01332 0.31699 0.91348 0.0
C630 C 0.02452 0.299 0.88711 0.0
C631 C 0.01357 0.33255 0.90231 0.0
C632 C 0.03794 0.31966 0.96226 0.0
N633 N 0.02376 0.30489 0.9631 0.0
C634 C 1.01177 0.32668 0.98506 0.0
C635 C 1.011 0.30809 0.97459 0.0
C636 C 0.02594 0.34243 0.9841 0.0
C637 C 0.03935 0.33851 0.97271 0.0
H638 H 0.04786 0.31699 0.95289 0.0
H639 H 0.99978 0.2965 0.9752 0.0
C640 C 0.95976 0.2487 0.89926 0.0
N641 N 0.97516 0.26121 0.89701 0.0
C642 C 0.94241 0.2505 0.88968 0.0
C643 C 0.95691 0.27765 0.87516 0.0
C644 C 0.97392 0.27522 0.8848 0.0
C645 C 0.94072 0.26547 0.87777 0.0
H646 H 0.96084 0.23775 0.90915 0.0
H647 H 0.98607 0.285 0.88289 0.0
C648 C 0.0523 0.27319 0.96371 0.0
N649 N 0.07597 0.29132 0.99831 0.0
C650 C 0.06906 0.28481 0.96249 0.0
C651 C 0.04759 0.27072 0.9825 0.0
C652 C 0.08085 0.29384 0.98017 0.0
C653 C 0.05973 0.28005 0.99983 0.0
C654 C 0.01694 0.22797 0.89375 0.0
C655 C 0.02398 0.21133 0.89724 0.0
C656 C 0.01296 0.23206 0.87414 0.0
C657 C 0.02706 0.19905 0.88098 0.0
C658 C 0.01624 0.21941 0.85827 0.0
N659 N 0.02317 0.20332 0.862 0.0
C660 C 1.00168 0.2086 0.95519 0.0
C661 C 0.03371 0.2133 0.95838 0.0
C662 C 1.00103 0.19101 0.96336 0.0
N663 N 0.01783 0.21936 0.95269 0.0
C664 C 0.03367 0.19562 0.96646 0.0
C665 C 0.01711 0.18391 0.96883 0.0
H666 H 0.98919 0.2136 0.95069 0.0
H667 H 0.04646 0.22199 0.95629 0.0
C668 C 0.06518 0.28771 0.9055 0.0
N669 N 0.0556 0.26896 0.90323 0.0
C670 C 0.08085 0.29224 0.89681 0.0
C671 C 0.07691 0.2581 0.88361 0.0
C672 C 0.06133 0.2542 0.89267 0.0
C673 C 0.08697 0.27739 0.88548 0.0
H674 H 0.06072 0.29923 0.91427 0.0
H675 H 0.05394 0.23931 0.89129 0.0
O676 O 0.99834 0.25897 0.94287 0.0
O677 O 0.01901 0.28484 0.91663 0.0
O678 O 0.04055 0.26427 0.9466 0.0
O679 O 0.0139 0.24017 0.90947 0.0
H680 H 0.96863 0.27404 0.93778 0.0
H681 H 1.00237 0.24757 0.97878 0.0
H682 H 0.94815 0.27658 0.9629 0.0
H683 H 0.98138 0.25071 1.00323 0.0
H684 H 0.02889 0.31421 0.86191 0.0
H685 H 1.00872 0.31802 0.92782 0.0
H686 H 0.02867 0.28594 0.88087 0.0
H687 H 1.00929 0.3457 0.90804 0.0
H688 H 1.00084 0.32873 0.99321 0.0
H689 H 0.05075 0.34991 0.97163 0.0
H690 H 0.9304 0.24079 0.89229 0.0
H691 H 0.95646 0.28921 0.86592 0.0
H692 H 0.07295 0.28679 0.94807 0.0
H693 H 0.03469 0.26173 0.98368 0.0
H694 H 0.09388 0.30286 0.97946 0.0
H695 H 0.05624 0.27833 0.01448 0.0
H696 H 0.02711 0.20799 0.91236 0.0
H697 H 1.00748 0.2449 0.87124 0.0
H698 H 0.03257 0.18614 0.88344 0.0
H699 H 0.01328 0.22239 0.84301 0.0
H700 H 0.9879 0.18303 0.96528 0.0
H701 H 0.04646 0.19095 0.97022 0.0
H702 H 0.08821 0.30728 0.89923 0.0
H703 H 0.08086 0.24609 0.87499 0.0
Li704 Li 0.42812 0.04599 0.29081 0.0
Li705 Li 0.39943 0.02362 0.26735 0.0
Li706 Li 0.42543 0.04358 0.24976 0.0
Li707 Li 0.40262 0.06389 0.26863 0.0
C708 C 0.43809 0.01092 0.27193 0.0
N709 N 0.46227 0.98608 0.27747 0.0
C710 C 0.4328 0.99324 0.27913 0.0
C711 C 0.45569 0.01606 0.26768 0.0
C712 C 0.44523 0.98086 0.28181 0.0
C713 C 0.46771 1.00327 0.27053 0.0
C714 C 0.38768 0.04311 0.30227 0.0
C715 C 0.35685 0.04364 0.30719 0.0
N716 N 0.36056 0.03758 0.32538 0.0
C717 C 0.39121 0.03699 0.32104 0.0
C718 C 0.37039 0.04653 0.29528 0.0
C719 C 0.3773 0.03423 0.33249 0.0
C720 C 0.45557 0.06035 0.33127 0.0
N721 N 0.44335 0.04502 0.31945 0.0
C722 C 0.44815 0.02535 0.34645 0.0
C723 C 0.43991 0.02764 0.32692 0.0
C724 C 0.46054 0.04092 0.35926 0.0
C725 C 0.46431 0.05858 0.35095 0.0
H726 H 0.45846 0.07423 0.32569 0.0
H727 H 0.4303 0.01539 0.31786 0.0
C728 C 0.385 0.97945 0.2546 0.0
N729 N 0.38314 0.99565 0.26689 0.0
C730 C 0.3753 0.96023 0.25574 0.0
C731 C 0.36174 0.97414 0.28208 0.0
C732 C 0.37159 0.99295 0.28045 0.0
C733 C 0.36323 0.95706 0.26963 0.0
H734 H 0.39431 0.98126 0.24399 0.0
H735 H 0.37008 1.00534 0.2905 0.0
C736 C 0.44506 0.08098 0.26729 0.0
N737 N 0.47285 0.10615 0.25569 0.0
C738 C 0.44119 0.0963 0.257 0.0
C739 C 0.46302 0.07844 0.2717 0.0
C740 C 0.45545 0.10889 0.25128 0.0
C741 C 0.47689 0.09132 0.26569 0.0
C742 C 0.38362 0.03415 0.22884 0.0
C743 C 0.38731 0.03106 0.20932 0.0
C744 C 0.36567 0.02967 0.23223 0.0
C745 C 0.3729 0.02362 0.19343 0.0
C746 C 0.35164 0.02218 0.21594 0.0
N747 N 0.35552 0.01936 0.19704 0.0
C748 C 0.44214 0.02274 0.21714 0.0
C749 C 0.44535 0.05606 0.21393 0.0
C750 C 0.45121 0.01945 0.20046 0.0
N751 N 0.43938 0.04091 0.2241 0.0
C752 C 0.4544 0.05332 0.19695 0.0
C753 C 0.45785 0.03476 0.18978 0.0
H754 H 0.4373 1.01045 0.22457 0.0
H755 H 0.4432 0.07054 0.21889 0.0
C756 C 0.38349 0.09583 0.2869 0.0
N757 N 0.38907 0.08926 0.2695 0.0
C758 C 0.37441 0.11203 0.28856 0.0
C759 C 0.37696 0.11591 0.25469 0.0
C760 C 0.38587 0.09939 0.25355 0.0
C761 C 0.37066 0.1227 0.27236 0.0
H762 H 0.38603 0.08849 0.29988 0.0
H763 H 0.39017 0.09473 0.23961 0.0
O764 O 0.42602 0.02303 0.26871 0.0
O765 O 0.40101 0.04572 0.29071 0.0
O766 O 0.43125 0.06823 0.27257 0.0
O767 O 0.39756 0.04131 0.24457 0.0
H768 H 0.41927 0.98913 0.28265 0.0
H769 H 0.45998 0.02972 0.26211 0.0
H770 H 0.44132 0.9671 0.28734 0.0
H771 H 0.48135 1.007 0.2672 0.0
H772 H 0.3434 0.0462 0.30196 0.0
H773 H 0.4045 0.03432 0.3267 0.0
H774 H 0.36745 0.05134 0.2808 0.0
H775 H 0.37982 0.02942 0.34702 0.0
H776 H 0.44471 0.01122 0.35142 0.0
H777 H 0.47356 0.07124 0.35981 0.0
H778 H 0.37718 0.94798 0.24561 0.0
H779 H 0.3532 0.97311 0.2935 0.0
H780 H 0.42732 0.09835 0.25339 0.0
H781 H 0.46618 0.06658 0.2796 0.0
H782 H 0.45267 0.1208 0.24328 0.0
H783 H 0.49086 0.08952 0.26894 0.0
H784 H 0.40115 0.03444 0.20648 0.0
H785 H 0.36262 0.03181 0.24728 0.0
H786 H 0.37554 0.02121 0.17823 0.0
H787 H 0.33768 0.01859 0.21833 0.0
H788 H 0.45286 1.00467 0.19588 0.0
H789 H 0.45905 0.06588 0.18979 0.0
H790 H 0.37049 0.11625 0.30284 0.0
H791 H 0.37466 0.12303 0.24149 0.0
Li792 Li 0.27315 0.17868 0.5336 0.0
Li793 Li 0.28509 0.15296 0.51624 0.0
Li794 Li 0.27136 0.17675 0.49647 0.0
Li795 Li 0.25042 0.15042 0.51343 0.0
C796 C 0.30829 0.1955 0.52541 0.0
N797 N 0.33908 0.22388 0.54102 0.0
C798 C 0.32285 0.19082 0.53781 0.0
C799 C 0.30954 0.21453 0.52064 0.0
C800 C 0.33825 0.2054 0.54564 0.0
C801 C 0.32518 0.22869 0.52876 0.0
C802 C 0.2756 0.14483 0.55463 0.0
C803 C 0.2727 0.12294 0.5794 0.0
N804 N 0.28875 0.13317 0.59045 0.0
C805 C 0.29205 0.15512 0.56621 0.0
C806 C 0.2658 0.12863 0.56126 0.0
C807 C 0.29847 0.14902 0.58429 0.0
C808 C 0.25926 0.19109 0.56673 0.0
N809 N 0.27495 0.19485 0.55916 0.0
C810 C 0.29007 0.21486 0.5902 0.0
C811 C 0.29017 0.20685 0.5703 0.0
C812 C 0.27413 0.21055 0.59861 0.0
C813 C 0.25842 0.19911 0.58618 0.0
H814 H 0.24749 0.18111 0.55787 0.0
H815 H 0.30265 0.20947 0.56424 0.0
C816 C 0.31785 0.14525 0.50485 0.0
N817 N 0.30564 0.13911 0.51677 0.0
C818 C 0.3334 0.13713 0.50416 0.0
C819 C 0.324 0.11651 0.52832 0.0
C820 C 0.30848 0.12501 0.52847 0.0
C821 C 0.33672 0.12242 0.51589 0.0
H822 H 0.31554 0.15663 0.49586 0.0
H823 H 0.29872 0.12027 0.53794 0.0
C824 C 0.2448 0.1956 0.51844 0.0
N825 N 0.23158 0.22847 0.53047 0.0
C826 C 0.22804 0.19361 0.5251 0.0
C827 C 0.25474 0.21426 0.51768 0.0
C828 C 0.22162 0.21043 0.53119 0.0
C829 C 0.24785 0.23071 0.52388 0.0
C830 C 0.27111 0.13166 0.48117 0.0
C831 C 0.28056 0.13465 0.46525 0.0
C832 C 0.2681 0.11323 0.48747 0.0
C833 C 0.28697 0.11909 0.45592 0.0
C834 C 0.27477 0.09806 0.47778 0.0
N835 N 0.28398 0.10129 0.46234 0.0
C836 C 0.28995 0.1914 0.46645 0.0
C837 C 0.26048 0.19875 0.4638 0.0
C838 C 0.29289 0.19985 0.4492 0.0
N839 N 0.27383 0.19062 0.47324 0.0
C840 C 0.26293 0.20756 0.44649 0.0
C841 C 0.27919 0.20782 0.43868 0.0
H842 H 0.30046 0.18506 0.47426 0.0
H843 H 0.24778 0.19809 0.46945 0.0
C844 C 0.21866 0.1347 0.53024 0.0
N845 N 0.22595 0.13436 0.51302 0.0
C846 C 0.20142 0.12319 0.53067 0.0
C847 C 0.19916 0.11153 0.49553 0.0
C848 C 0.21639 0.12321 0.49577 0.0
C849 C 0.19144 0.11104 0.51322 0.0
H850 H 0.22636 0.14375 0.54382 0.0
H851 H 0.22221 0.12323 0.48216 0.0
O852 O 0.29317 0.18139 0.51741 0.0
O853 O 0.26905 0.15051 0.53687 0.0
O854 O 0.25142 0.17934 0.5126 0.0
O855 O 0.26522 0.14683 0.4909 0.0
H856 H 0.32231 0.17608 0.54132 0.0
H857 H 0.29863 0.21829 0.51066 0.0
H858 H 0.34956 0.202 0.55535 0.0
H859 H 0.32631 0.24349 0.52526 0.0
H860 H 0.2653 0.1104 0.5847 0.0
H861 H 0.29972 0.16773 0.56134 0.0
H862 H 0.25305 0.1205 0.55243 0.0
H863 H 0.31118 0.15687 0.59342 0.0
H864 H 0.30256 0.22349 0.59914 0.0
H865 H 0.24563 0.19574 0.59162 0.0
H866 H 0.34285 0.14252 0.49459 0.0
H867 H 0.3258 0.10516 0.53754 0.0
H868 H 0.22016 0.17924 0.52569 0.0
H869 H 0.26762 0.216 0.51238 0.0
H870 H 0.20872 0.20913 0.53649 0.0
H871 H 0.25543 0.24526 0.52344 0.0
H872 H 0.283 0.14884 0.46022 0.0
H873 H 0.2609 0.11077 0.49987 0.0
H874 H 0.29435 0.12119 0.44361 0.0
H875 H 0.27266 0.08375 0.48257 0.0
H876 H 0.30574 0.19992 0.44399 0.0
H877 H 0.25195 0.21341 0.43888 0.0
H878 H 0.19626 0.12332 0.54471 0.0
H879 H 0.192 0.10279 0.48153 0.0
Li880 Li 0.15442 0.06426 0.80405 0.0
Li881 Li 0.13114 0.04214 0.82075 0.0
Li882 Li 0.15247 0.02781 0.80021 0.0
Li883 Li 0.12787 0.04134 0.78411 0.0
C884 C 0.17541 0.04841 0.83663 0.0
N885 N 0.20943 0.05134 0.85922 0.0
C886 C 0.17715 0.04693 0.8571 0.0
C887 C 0.19092 0.05138 0.8276 0.0
C888 C 0.19449 0.04849 0.86829 0.0
C889 C 0.20802 0.05278 0.83929 0.0
C890 C 0.11333 0.07058 0.7959 0.0
C891 C 0.08081 0.06751 0.78728 0.0
N892 N 0.08354 0.08258 0.77638 0.0
C893 C 0.11584 0.08607 0.78469 0.0
C894 C 0.09571 0.06124 0.79729 0.0
C895 C 0.10059 0.09191 0.7749 0.0
C896 C 0.17049 0.0974 0.78834 0.0
N897 N 0.17025 0.08935 0.80561 0.0
C898 C 0.19228 0.11696 0.82372 0.0
C899 C 0.18084 0.09873 0.82314 0.0
C900 C 0.19283 0.1257 0.8061 0.0
C901 C 0.18173 0.11558 0.78823 0.0
H902 H 0.16187 0.08969 0.77461 0.0
H903 H 0.18042 0.09206 0.83669 0.0
C904 C 0.11297 0.02266 0.84946 0.0
N905 N 0.11992 0.04035 0.84433 0.0
C906 C 0.1044 0.02158 0.86636 0.0
C907 C 0.11111 0.05693 0.87294 0.0
C908 C 0.11928 0.05731 0.85578 0.0
C909 C 0.10319 0.03889 0.87835 0.0
H910 H 0.1139 1.00934 0.84031 0.0
H911 H 0.12514 0.0712 0.85156 0.0
C912 C 0.15882 0.04013 0.7623 0.0
N913 N 0.16976 0.02862 0.72656 0.0
C914 C 0.1489 0.02342 0.7495 0.0
C915 C 0.17431 0.05098 0.75694 0.0
C916 C 0.15463 0.01786 0.73148 0.0
C917 C 0.17964 0.04491 0.73882 0.0
C918 C 0.113 1.00278 0.79155 0.0
C919 C 0.11676 0.98866 0.77738 0.0
C920 C 0.09588 1.00011 0.79742 0.0
C921 C 0.10321 0.97226 0.76905 0.0
C922 C 0.0827 0.98347 0.78878 0.0
N923 N 0.0866 0.97003 0.77487 0.0
C924 C 0.1605 0.99031 0.80504 0.0
C925 C 0.18035 1.00938 0.78759 0.0
C926 C 0.16893 0.97433 0.80151 0.0
N927 N 0.16611 1.00729 0.79777 0.0
C928 C 0.18898 0.99373 0.78349 0.0
C929 C 0.18312 0.97582 0.79022 0.0
H930 H 0.14913 0.989 0.8131 0.0
H931 H 0.18486 0.02309 0.78231 0.0
C932 C 0.11773 0.0509 0.74566 0.0
N933 N 0.11153 0.03912 0.75882 0.0
C934 C 0.10881 0.0482 0.72575 0.0
C935 C 0.08649 0.02219 0.73354 0.0
C936 C 0.09577 0.02551 0.75334 0.0
C937 C 0.09334 0.03319 0.7193 0.0
H938 H 0.13017 0.0618 0.75039 0.0
H939 H 0.09062 0.01673 0.76402 0.0
O940 O 0.15857 0.04721 0.82558 0.0
O941 O 0.12804 0.06434 0.80521 0.0
O942 O 0.15341 0.04598 0.77997 0.0
O943 O 0.12613 0.01886 0.80002 0.0
H944 H 0.16522 0.04472 0.86428 0.0
H945 H 0.18976 0.05265 0.81177 0.0
H946 H 0.19606 0.04744 0.88418 0.0
H947 H 0.22017 0.05507 0.83253 0.0
H948 H 0.06708 0.06038 0.78813 0.0
H949 H 0.12941 0.0934 0.78345 0.0
H950 H 0.09359 0.04917 0.80588 0.0
H951 H 0.1023 0.10383 0.76611 0.0
H952 H 0.20074 0.12402 0.83781 0.0
H953 H 0.18146 0.12178 0.77434 0.0
H954 H 0.09847 1.00732 0.86969 0.0
H955 H 0.11107 0.07071 0.88187 0.0
H956 H 0.13678 0.01499 0.7533 0.0
H957 H 0.18222 0.06387 0.76674 0.0
H958 H 0.14703 1.00502 0.72138 0.0
H959 H 0.19163 0.05314 0.7345 0.0
H960 H 0.13002 0.99027 0.77293 0.0
H961 H 0.0927 0.01091 0.80832 0.0
H962 H 0.10592 0.96127 0.75802 0.0
H963 H 0.06936 0.98128 0.79309 0.0
H964 H 0.16399 0.96075 0.80695 0.0
H965 H 0.2001 0.99561 0.77505 0.0
H966 H 0.11458 0.05701 0.71528 0.0
H967 H 0.07437 0.01074 0.72928 0.0
Li968 Li 0.23881 0.87051 0.006 0.0
Li969 Li 0.25494 0.84629 0.01924 0.0
Li970 Li 0.27136 0.8733 0.0059 0.0
Li971 Li 0.24873 0.84632 0.98487 0.0
C972 C 0.26033 0.89191 0.04111 0.0
N973 N 0.26378 0.92742 0.06496 0.0
C974 C 0.26094 0.89267 0.06181 0.0
C975 C 0.26144 0.90918 0.03251 0.0
C976 C 0.26272 0.91078 0.07363 0.0
C977 C 0.26316 0.92699 0.04482 0.0
C978 C 0.2162 0.82803 0.99309 0.0
C979 C 0.20305 0.79468 0.97801 0.0
N980 N 0.18655 0.79974 0.97372 0.0
C981 C 0.19912 0.83291 0.98848 0.0
C982 C 0.21818 0.80874 0.98788 0.0
C983 C 0.18429 0.81839 0.97872 0.0
C984 C 0.2169 0.89591 0.99395 0.0
N985 N 0.2213 0.88542 0.00887 0.0
C986 C 0.20472 0.90156 0.03028 0.0
C987 C 0.21505 0.88744 0.02654 0.0
C988 C 0.201 0.91355 0.01565 0.0
C989 C 0.20666 0.91021 0.99704 0.0
H990 H 0.22208 0.89379 0.98004 0.0
H991 H 0.21897 0.87887 0.0381 0.0
C992 C 0.27295 0.83658 0.0529 0.0
N993 N 0.25766 0.83058 0.0389 0.0
C994 C 0.27782 0.82425 0.06635 0.0
C995 C 0.2507 0.80009 0.05107 0.0
C996 C 0.24638 0.81294 0.03785 0.0
C997 C 0.26669 0.80571 0.06535 0.0
H998 H 0.2816 0.85073 0.05312 0.0
H999 H 0.23427 0.80871 0.02659 0.0
C1000 C 0.2591 0.88455 0.96914 0.0
N1001 N 0.27437 0.90446 0.9409 0.0
C1002 C 0.26545 0.8744 0.95359 0.0
C1003 C 0.2604 0.90481 0.97021 0.0
C1004 C 0.27312 0.88474 0.93947 0.0
C1005 C 0.26823 0.91461 0.95585 0.0
C1006 C 0.28409 0.83438 0.0087 0.0
C1007 C 0.30181 0.84317 0.0182 0.0
C1008 C 0.27821 0.81411 0.00765 0.0
C1009 C 0.31325 0.83162 0.02671 0.0
C1010 C 0.29004 0.80307 0.01635 0.0
N1011 N 0.30717 0.81198 0.02563 0.0
C1012 C 0.30203 0.89864 0.02923 0.0
C1013 C 0.30293 0.8955 0.99436 0.0
C1014 C 0.31834 0.91238 0.03337 0.0
N1015 N 0.29431 0.89105 0.00993 0.0
C1016 C 0.31943 0.909 0.99783 0.0
C1017 C 0.32707 0.91785 0.01751 0.0
H1018 H 0.29563 0.89396 0.04151 0.0
H1019 H 0.29712 0.88859 0.97928 0.0
C1020 C 0.22696 0.82721 0.94764 0.0
N1021 N 0.24258 0.82914 0.96108 0.0
C1022 C 0.22313 0.8127 0.93091 0.0
C1023 C 0.25127 0.80257 0.9429 0.0
C1024 C 0.2547 0.81739 0.95888 0.0
C1025 C 0.23545 0.80021 0.92859 0.0
H1026 H 0.21761 0.83691 0.94992 0.0
H1027 H 0.26729 0.81979 0.96928 0.0
O1028 O 0.25882 0.87431 0.0294 0.0
O1029 O 0.23067 0.84194 1.00338 0.0
O1030 O 0.25136 0.87475 0.98306 0.0
O1031 O 0.27267 0.84549 1.00025 0.0
H1032 H 0.26014 0.87939 0.06866 0.0
H1033 H 0.26104 0.9088 0.01652 0.0
H1034 H 0.26327 0.9116 0.0897 0.0
H1035 H 0.26404 0.94048 0.03838 0.0
H1036 H 0.20443 0.77974 0.97379 0.0
H1037 H 0.19729 0.84772 0.99258 0.0
H1038 H 0.23131 0.8047 0.99117 0.0
H1039 H 0.17096 0.82193 0.97517 0.0
H1040 H 0.20068 0.90388 0.04486 0.0
H1041 H 0.20382 0.91908 0.98536 0.0
H1042 H 0.28997 0.82931 0.07762 0.0
H1043 H 0.24172 0.786 0.05017 0.0
H1044 H 0.26475 0.8588 0.95254 0.0
H1045 H 0.25542 0.9129 0.98199 0.0
H1046 H 0.27817 0.87708 0.92743 0.0
H1047 H 0.26939 0.93029 0.95656 0.0
H1048 H 0.30673 0.85874 0.01904 0.0
H1049 H 0.26454 0.80699 1.00044 0.0
H1050 H 0.32696 0.83827 0.03417 0.0
H1051 H 0.28559 0.78743 0.01577 0.0
H1052 H 0.32415 0.91852 0.04879 0.0
H1053 H 0.32596 0.91275 0.98524 0.0
H1054 H 0.21113 0.81159 0.91967 0.0
H1055 H 0.26156 0.7939 0.94103 0.0
Li1056 Li 0.29396 0.39798 0.04512 0.0
Li1057 Li 0.30846 0.37511 0.06538 0.0
Li1058 Li 0.32874 0.40103 0.0486 0.0
Li1059 Li 0.3064 0.37101 0.02787 0.0
C1060 C 0.31078 0.41555 0.0868 0.0
N1061 N 0.3051 0.43752 0.12076 0.0
C1062 C 0.29721 0.40799 0.09732 0.0
C1063 C 0.3215 0.43421 0.09353 0.0
C1064 C 0.29456 0.41935 0.11449 0.0
C1065 C 0.31839 0.44512 0.11073 0.0
C1066 C 0.27272 0.35301 0.04081 0.0
C1067 C 0.26227 0.31801 0.03259 0.0
N1068 N 0.24495 0.32024 0.03375 0.0
C1069 C 0.25484 0.35497 0.04192 0.0
C1070 C 0.27649 0.33439 0.03611 0.0
C1071 C 0.24099 0.33822 0.0383 0.0
C1072 C 0.25923 0.40539 0.02713 0.0
N1073 N 0.27336 0.41183 0.04276 0.0
C1074 C 0.25676 0.43446 0.05713 0.0
C1075 C 0.2725 0.42651 0.05731 0.0
C1076 C 0.24168 0.4276 0.04163 0.0
C1077 C 0.24328 0.41319 0.02619 0.0
H1078 H 0.26008 0.39371 0.01568 0.0
H1079 H 0.28383 0.43185 0.06942 0.0
C1080 C 0.32321 0.36689 0.10395 0.0
N1081 N 0.30803 0.36218 0.08952 0.0
C1082 C 0.32353 0.35914 0.12211 0.0
C1083 C 0.29277 0.34127 0.11026 0.0
C1084 C 0.293 0.34947 0.09232 0.0
C1085 C 0.30809 0.3463 0.12567 0.0
H1086 H 0.33502 0.37697 0.10147 0.0
H1087 H 0.28098 0.34595 0.08084 0.0
C1088 C 0.30453 0.41069 0.0105 0.0
N1089 N 0.29357 0.43438 0.98326 0.0
C1090 C 0.29731 0.40267 0.99057 0.0
C1091 C 0.30617 0.43073 0.01662 0.0
C1092 C 0.29189 0.41491 0.977 0.0
C1093 C 0.3005 0.44246 1.00262 0.0
C1094 C 0.33772 0.35756 0.04908 0.0
C1095 C 0.35517 0.36071 0.04407 0.0
C1096 C 0.33026 0.33938 0.05408 0.0
C1097 C 0.36475 0.34544 0.04379 0.0
C1098 C 0.34028 0.32449 0.05364 0.0
N1099 N 0.35717 0.3278 0.04852 0.0
C1100 C 0.36684 0.41516 0.06437 0.0
C1101 C 0.35681 0.42808 0.03505 0.0
C1102 C 0.38495 0.42428 0.06434 0.0
N1103 N 0.35317 0.41696 0.04973 0.0
C1104 C 0.37476 0.43758 0.03453 0.0
C1105 C 0.38927 0.43548 0.0491 0.0
H1106 H 0.36376 0.40611 0.07579 0.0
H1107 H 0.34587 0.42912 0.02332 0.0
C1108 C 0.28751 0.34574 0.99144 0.0
N1109 N 0.30396 0.35308 1.00341 0.0
C1110 C 0.28642 0.33401 0.97298 0.0
C1111 C 0.31913 0.33753 0.97959 0.0
C1112 C 0.3196 0.34929 0.99773 0.0
C1113 C 0.30241 0.32976 0.96683 0.0
H1114 H 0.27526 0.34933 0.99601 0.0
H1115 H 0.33257 0.35587 0.007 0.0
O1116 O 0.31358 0.40478 0.06993 0.0
O1117 O 0.28636 0.3693 0.04394 0.0
O1118 O 0.31024 0.39901 0.02387 0.0
O1119 O 0.32815 0.37235 0.04942 0.0
H1120 H 0.28873 0.39361 0.09219 0.0
H1121 H 0.33204 0.44021 0.08548 0.0
H1122 H 0.28409 0.41373 0.12279 0.0
H1123 H 0.32653 0.45962 0.11609 0.0
H1124 H 0.26498 0.30352 0.02885 0.0
H1125 H 0.2517 0.36928 0.04557 0.0
H1126 H 0.29019 0.33263 0.03488 0.0
H1127 H 0.22708 0.33953 0.0391 0.0
H1128 H 0.25632 0.44576 0.0692 0.0
H1129 H 0.23203 0.40739 0.01397 0.0
H1130 H 0.33578 0.3633 0.13333 0.0
H1131 H 0.28049 0.33163 0.11229 0.0
H1132 H 0.29607 0.3872 0.98557 0.0
H1133 H 0.31174 0.43712 0.03203 0.0
H1134 H 0.28637 0.40893 0.96149 0.0
H1135 H 0.30166 0.458 0.00714 0.0
H1136 H 0.36117 0.37474 0.04025 0.0
H1137 H 0.31694 0.33682 0.05841 0.0
H1138 H 0.37822 0.34762 0.03981 0.0
H1139 H 0.33465 0.31033 0.05742 0.0
H1140 H 0.39552 0.42237 0.07608 0.0
H1141 H 0.3773 0.44583 0.02235 0.0
H1142 H 0.27323 0.32837 0.96362 0.0
H1143 H 0.33186 0.33509 0.9753 0.0
Li1144 Li 0.8326 0.21171 0.07809 0.0
Li1145 Li 0.83908 0.18604 0.05611 0.0
Li1146 Li 0.82585 0.21218 0.04372 0.0
Li1147 Li 0.8078 0.18643 0.05802 0.0
C1148 C 0.86353 0.22894 0.06925 0.0
N1149 N 0.89081 0.25882 0.09057 0.0
C1150 C 0.87971 0.2247 0.07878 0.0
C1151 C 0.86123 0.24835 0.07054 0.0
C1152 C 0.89335 0.24003 0.08949 0.0
C1153 C 0.87516 0.26325 0.0814 0.0
C1154 C 0.81707 0.1725 0.09119 0.0
C1155 C 0.79953 0.14179 0.09665 0.0
N1156 N 0.79571 0.1509 0.11381 0.0
C1157 C 0.81291 0.18155 0.10885 0.0
C1158 C 0.81032 0.15244 0.08503 0.0
C1159 C 0.80213 0.17037 0.1201 0.0
C1160 C 0.83303 0.24256 0.10752 0.0
N1161 N 0.84094 0.22716 0.10293 0.0
C1162 C 0.85544 0.22941 0.1368 0.0
C1163 C 0.8528 0.22116 0.11672 0.0
C1164 C 0.84561 0.24373 0.14235 0.0
C1165 C 0.83538 0.25133 0.1273 0.0
H1166 H 0.82363 0.24687 0.09619 0.0
H1167 H 0.85885 0.20881 0.11242 0.0
C1168 C 0.86797 0.1724 0.0405 0.0
N1169 N 0.85571 0.16969 0.05316 0.0
C1170 C 0.88076 0.16038 0.03967 0.0
C1171 C 0.86772 0.14314 0.06472 0.0
C1172 C 0.85533 0.15544 0.06509 0.0
C1173 C 0.88083 0.14573 0.05215 0.0
H1174 H 0.86796 0.18403 0.03133 0.0
H1175 H 0.84557 0.15381 0.07514 0.0
C1176 C 0.79763 0.22676 0.05683 0.0
N1177 N 0.77422 0.2503 0.04308 0.0
C1178 C 0.7792 0.21874 0.04956 0.0
C1179 C 0.80408 0.24681 0.05715 0.0
C1180 C 0.76761 0.23086 0.04267 0.0
C1181 C 0.79206 0.25845 0.0501 0.0
C1182 C 0.82347 0.17175 0.01909 0.0
C1183 C 0.83035 0.1793 1.00297 0.0
C1184 C 0.82152 0.1517 0.02023 0.0
C1185 C 0.83516 0.16662 0.9882 0.0
C1186 C 0.82655 0.13953 1.0052 0.0
N1187 N 0.83319 0.14718 0.98963 0.0
C1188 C 0.83727 0.24078 0.01881 0.0
C1189 C 0.80682 0.22248 0.01233 0.0
C1190 C 0.83358 0.25072 1.00248 0.0
N1191 N 0.8238 0.22716 0.02333 0.0
C1192 C 0.8025 0.23213 0.9963 0.0
C1193 C 0.81601 0.2462 0.99118 0.0
H1194 H 0.85082 0.24364 0.02756 0.0
H1195 H 0.7967 0.21109 0.01601 0.0
C1196 C 0.7736 0.17019 0.06948 0.0
N1197 N 0.7843 0.17005 0.05506 0.0
C1198 C 0.75677 0.15722 0.06648 0.0
C1199 C 0.7621 0.14484 0.03368 0.0
C1200 C 0.77871 0.15798 0.03729 0.0
C1201 C 0.75091 0.14423 0.0484 0.0
H1202 H 0.77816 0.18029 0.08328 0.0
H1203 H 0.78718 0.15848 0.02586 0.0
O1204 O 0.85005 0.21415 0.05864 0.0
O1205 O 0.82755 0.18318 0.07987 0.0
O1206 O 0.80912 0.21512 0.06398 0.0
O1207 O 0.81842 0.18386 0.03356 0.0
H1208 H 0.88168 0.20973 0.0779 0.0
H1209 H 0.84879 0.25186 0.0633 0.0
H1210 H 0.90596 0.23699 0.09695 0.0
H1211 H 0.87353 0.27834 0.08254 0.0
H1212 H 0.79411 0.1263 0.09198 0.0
H1213 H 0.81777 0.19707 0.11378 0.0
H1214 H 0.81309 0.14522 0.07121 0.0
H1215 H 0.7988 0.1772 0.13378 0.0
H1216 H 0.86345 0.22324 0.14805 0.0
H1217 H 0.82738 0.26218 0.13094 0.0
H1218 H 0.89072 0.16282 0.02982 0.0
H1219 H 0.86708 0.13175 0.07426 0.0
H1220 H 0.77385 0.20333 0.04915 0.0
H1221 H 0.81824 0.25336 0.06263 0.0
H1222 H 0.75334 0.22481 0.037 0.0
H1223 H 0.79691 0.27396 0.05022 0.0
H1224 H 0.83194 0.19475 1.00181 0.0
H1225 H 0.81629 0.14564 0.03267 0.0
H1226 H 0.84047 0.17225 0.97561 0.0
H1227 H 0.82517 0.12401 0.00593 0.0
H1228 H 0.84425 0.26135 0.9985 0.0
H1229 H 0.78882 0.22834 0.98763 0.0
H1230 H 0.7484 0.15745 0.0781 0.0
H1231 H 0.75824 0.13501 0.0196 0.0
Li1232 Li 0.18152 0.52946 0.29732 0.0
Li1233 Li 0.15648 0.50933 0.3139 0.0
Li1234 Li 0.17994 0.48966 0.29536 0.0
Li1235 Li 0.15358 0.50689 0.27263 0.0
C1236 C 0.1969 0.52078 0.33596 0.0
N1237 N 0.22252 0.53923 0.36891 0.0
C1238 C 0.19193 0.53284 0.35114 0.0
C1239 C 0.21483 0.51801 0.33753 0.0
C1240 C 0.2051 0.54206 0.36769 0.0
C1241 C 0.22761 0.5275 0.35431 0.0
C1242 C 0.14671 0.54453 0.30077 0.0
C1243 C 0.12106 0.56065 0.29867 0.0
N1244 N 0.13049 0.5748 0.31381 0.0
C1245 C 0.15608 0.55912 0.31642 0.0
C1246 C 0.12901 0.54518 0.29191 0.0
C1247 C 0.14767 0.57434 0.32276 0.0
C1248 C 0.19733 0.56605 0.28071 0.0
N1249 N 0.19735 0.55771 0.29801 0.0
C1250 C 0.21519 0.58873 0.31633 0.0
C1251 C 0.20642 0.56888 0.31562 0.0
C1252 C 0.21513 0.59788 0.29879 0.0
C1253 C 0.20623 0.58581 0.28072 0.0
H1254 H 0.1899 0.55761 0.26672 0.0
H1255 H 0.20648 0.56268 0.32945 0.0
C1256 C 0.14668 0.49981 0.35483 0.0
N1257 N 0.14235 0.51042 0.33973 0.0
C1258 C 0.13887 0.50079 0.37276 0.0
C1259 C 0.12157 0.52334 0.36015 0.0
C1260 C 0.12973 0.52196 0.34236 0.0
C1261 C 0.12612 0.5129 0.37624 0.0
H1262 H 0.1565 0.49053 0.35322 0.0
H1263 H 0.12594 0.53053 0.33078 0.0
C1264 C 0.19491 0.51443 0.26353 0.0
N1265 N 0.22307 0.52765 0.24375 0.0
C1266 C 0.19119 0.52082 0.24492 0.0
C1267 C 0.21291 0.51465 0.27206 0.0
C1268 C 0.20563 0.52748 0.23516 0.0
C1269 C 0.22697 0.52143 0.26183 0.0
C1270 C 0.13738 0.47182 0.29605 0.0
C1271 C 0.14104 0.45595 0.30552 0.0
C1272 C 0.11952 0.47478 0.29209 0.0
C1273 C 0.12666 0.44316 0.3108 0.0
C1274 C 0.10553 0.46169 0.29766 0.0
N1275 N 0.10936 0.44628 0.3068 0.0
C1276 C 0.20052 0.45677 0.31082 0.0
C1277 C 0.196 0.45569 0.27592 0.0
C1278 C 0.20908 0.43998 0.30935 0.0
N1279 N 0.19387 0.46456 0.29422 0.0
C1280 C 0.20433 0.43893 0.27382 0.0
C1281 C 0.21108 0.43022 0.29056 0.0
H1282 H 0.1991 0.46338 0.32553 0.0
H1283 H 0.19109 0.46149 0.26254 0.0
C1284 C 0.13219 0.52281 0.23852 0.0
N1285 N 0.13855 0.50658 0.24358 0.0
C1286 C 0.12325 0.52358 0.21871 0.0
C1287 C 0.12759 0.49115 0.20883 0.0
C1288 C 0.13619 0.49086 0.22886 0.0
C1289 C 0.1209 0.50771 0.20311 0.0
H1290 H 0.13439 0.53561 0.24973 0.0
H1291 H 0.14132 0.47801 0.23246 0.0
O1292 O 0.1842 0.5116 0.31971 0.0
O1293 O 0.15469 0.52949 0.29441 0.0
O1294 O 0.18104 0.50812 0.27348 0.0
O1295 O 0.15128 0.48467 0.29108 0.0
H1296 H 0.17809 0.53513 0.35011 0.0
H1297 H 0.21883 0.50864 0.32591 0.0
H1298 H 0.20148 0.55148 0.37954 0.0
H1299 H 0.24156 0.52553 0.35574 0.0
H1300 H 0.10738 0.56136 0.29193 0.0
H1301 H 0.16965 0.55863 0.32367 0.0
H1302 H 0.12142 0.53376 0.28008 0.0
H1303 H 0.15478 0.58577 0.33482 0.0
H1304 H 0.22184 0.59695 0.33077 0.0
H1305 H 0.2054 0.59182 0.26672 0.0
H1306 H 0.14295 0.49183 0.38386 0.0
H1307 H 0.11204 0.53303 0.3614 0.0
H1308 H 0.1773 0.52074 0.23816 0.0
H1309 H 0.21597 0.50974 0.28648 0.0
H1310 H 0.20298 0.53253 0.22077 0.0
H1311 H 0.24098 0.52176 0.26826 0.0
H1312 H 0.15484 0.45356 0.30876 0.0
H1313 H 0.11654 0.48713 0.2849 0.0
H1314 H 0.12926 0.43077 0.31811 0.0
H1315 H 0.09163 0.4638 0.29473 0.0
H1316 H 0.21369 0.43442 0.32299 0.0
H1317 H 0.20551 0.4329 0.25882 0.0
H1318 H 0.11878 0.5369 0.21554 0.0
H1319 H 0.12622 0.4783 0.19785 0.0
Li1320 Li 0.79424 0.89766 0.54534 0.0
Li1321 Li 0.80951 0.87453 0.56557 0.0
Li1322 Li 0.82886 0.90114 0.54812 0.0
Li1323 Li 0.80661 0.87109 0.52786 0.0
C1324 C 0.81258 0.91895 0.5843 0.0
N1325 N 0.80917 0.94881 0.61277 0.0
C1326 C 0.80625 0.9146 0.60191 0.0
C1327 C 0.8174 0.93845 0.58127 0.0
C1328 C 0.80457 0.92992 0.6161 0.0
C1329 C 0.8155 0.95335 0.59581 0.0
C1330 C 0.77295 0.85343 0.53724 0.0
C1331 C 0.76116 0.81864 0.52894 0.0
N1332 N 0.74448 0.82223 0.52195 0.0
C1333 C 0.7557 0.85679 0.52998 0.0
C1334 C 0.77571 0.83422 0.53678 0.0
C1335 C 0.74148 0.84082 0.52232 0.0
C1336 C 0.76393 0.91353 0.52612 0.0
N1337 N 0.77339 0.91096 0.54398 0.0
C1338 C 0.75145 0.9232 0.56145 0.0
C1339 C 0.76737 0.91569 0.56144 0.0
C1340 C 0.74106 0.92555 0.54326 0.0
C1341 C 0.74775 0.92087 0.52542 0.0
H1342 H 0.76853 0.9092 0.51228 0.0
H1343 H 0.77459 0.91305 0.57542 0.0
C1344 C 0.82489 0.86409 0.60304 0.0
N1345 N 0.80928 0.86125 0.58939 0.0
C1346 C 0.82502 0.85591 0.62095 0.0
C1347 C 0.79315 0.84145 0.61036 0.0
C1348 C 0.79359 0.85002 0.59266 0.0
C1349 C 0.80894 0.84459 0.62503 0.0
H1350 H 0.83721 0.87303 0.60018 0.0
H1351 H 0.78127 0.84802 0.58172 0.0
C1352 C 0.80686 0.91131 0.51017 0.0
N1353 N 0.80091 0.93621 0.4823 0.0
C1354 C 0.80154 0.90384 0.48979 0.0
C1355 C 0.8092 0.93142 0.51639 0.0
C1356 C 0.79862 0.91668 0.47592 0.0
C1357 C 0.80607 0.94377 0.50207 0.0
C1358 C 0.83922 0.8585 0.54814 0.0
C1359 C 0.85663 0.86286 0.54316 0.0
C1360 C 0.83265 0.83989 0.55276 0.0
C1361 C 0.86707 0.84835 0.54255 0.0
C1362 C 0.84351 0.82579 0.552 0.0
N1363 N 0.86035 0.83027 0.54693 0.0
C1364 C 0.86512 0.92145 0.5668 0.0
C1365 C 0.85832 0.92379 0.53224 0.0
C1366 C 0.88314 0.93142 0.56771 0.0
N1367 N 0.8531 0.91763 0.54921 0.0
C1368 C 0.87625 0.93386 0.53248 0.0
C1369 C 0.88916 0.93758 0.55034 0.0
H1370 H 0.86082 0.91635 0.58012 0.0
H1371 H 0.84871 0.92043 0.51829 0.0
C1372 C 0.78722 0.84731 0.4906 0.0
N1373 N 0.80365 0.85337 0.50298 0.0
C1374 C 0.78586 0.83607 0.47179 0.0
C1375 C 0.81827 0.83747 0.47879 0.0
C1376 C 0.81902 0.84875 0.4973 0.0
C1377 C 0.80156 0.831 0.46563 0.0
H1378 H 0.77522 0.85163 0.49505 0.0
H1379 H 0.83204 0.85434 0.50684 0.0
O1380 O 0.81419 0.90413 0.57021 0.0
O1381 O 0.78697 0.8689 0.545 0.0
O1382 O 0.80985 0.89895 0.52391 0.0
O1383 O 0.82881 0.87252 0.54876 0.0
H1384 H 0.80254 0.89956 0.60449 0.0
H1385 H 0.82255 0.94204 0.56784 0.0
H1386 H 0.79959 0.92679 0.62974 0.0
H1387 H 0.8191 0.96853 0.59364 0.0
H1388 H 0.76312 0.8037 0.52843 0.0
H1389 H 0.7533 0.87156 0.53033 0.0
H1390 H 0.78894 0.83136 0.54234 0.0
H1391 H 0.72805 0.8432 0.51669 0.0
H1392 H 0.74722 0.92687 0.57569 0.0
H1393 H 0.74021 0.92213 0.51098 0.0
H1394 H 0.83763 0.85857 0.63159 0.0
H1395 H 0.78039 0.83304 0.61283 0.0
H1396 H 0.79977 0.88832 0.48472 0.0
H1397 H 0.8133 0.9374 0.5321 0.0
H1398 H 0.79455 0.91112 0.46009 0.0
H1399 H 0.80776 0.95937 0.50666 0.0
H1400 H 0.86194 0.87725 0.53967 0.0
H1401 H 0.81937 0.83641 0.55703 0.0
H1402 H 0.88052 0.85146 0.53859 0.0
H1403 H 0.83859 0.81131 0.5555 0.0
H1404 H 0.89232 0.93414 0.58196 0.0
H1405 H 0.8801 0.93805 0.51862 0.0
H1406 H 0.77268 0.83146 0.46216 0.0
H1407 H 0.83083 0.83442 0.47456 0.0
Li1408 Li 0.95577 1.0076 0.28376 0.0
Li1409 Li 0.9282 0.98351 0.26414 0.0
Li1410 Li 0.95199 1.00434 0.24631 0.0
Li1411 Li 0.9308 0.01987 0.2657 0.0
C1412 C 0.96786 0.97288 0.26852 0.0
N1413 N 0.99407 0.95111 0.27794 0.0
C1414 C 0.96382 0.95648 0.27821 0.0
C1415 C 0.9851 0.97805 0.26333 0.0
C1416 C 0.9773 0.9457 0.28292 0.0
C1417 C 0.9982 0.9669 0.26832 0.0
C1418 C 0.91797 1.00797 0.29978 0.0
C1419 C 0.88752 0.01138 0.30379 0.0
N1420 N 0.8935 0.01764 0.32373 0.0
C1421 C 0.92379 0.01432 0.32033 0.0
C1422 C 0.89968 1.00637 0.29144 0.0
C1423 C 0.91122 0.01918 0.33218 0.0
C1424 C 0.9724 0.03129 0.31971 0.0
N1425 N 0.97243 0.01369 0.309 0.0
C1426 C 0.99186 1.00562 0.33661 0.0
C1427 C 0.98211 1.00099 0.31696 0.0
C1428 C 0.99159 0.02346 0.34825 0.0
C1429 C 0.98192 0.0365 0.33935 0.0
H1430 H 0.96422 0.04093 0.31331 0.0
H1431 H 0.98188 0.987 0.30842 0.0
C1432 C 0.90908 0.94511 0.24609 0.0
N1433 N 0.91203 0.95839 0.26301 0.0
C1434 C 0.89709 0.92704 0.24453 0.0
C1435 C 0.89156 0.93635 0.27798 0.0
C1436 C 0.90372 0.95424 0.27892 0.0
C1437 C 0.88788 0.92248 0.26049 0.0
H1438 H 0.91595 0.94863 0.23369 0.0
H1439 H 0.90634 0.96492 0.29231 0.0
C1440 C 0.97213 0.04292 0.27268 0.0
N1441 N 1.00259 0.07228 0.28612 0.0
C1442 C 0.97019 0.06202 0.27888 0.0
C1443 C 0.98954 0.03876 0.27324 0.0
C1444 C 0.98576 0.07666 0.28563 0.0
C1445 C 1.00478 0.0538 0.28013 0.0
C1446 C 0.91025 0.99886 0.22676 0.0
C1447 C 0.91334 1.00622 0.20903 0.0
C1448 C 0.89248 0.99114 0.22918 0.0
C1449 C 0.89848 1.00614 0.19416 0.0
C1450 C 0.87799 0.99132 0.21395 0.0
N1451 N 0.88126 0.99878 0.19692 0.0
C1452 C 0.96184 0.98906 0.20959 0.0
C1453 C 0.97178 0.02335 0.21874 0.0
C1454 C 0.96931 0.98981 0.19195 0.0
N1455 N 0.96327 1.00567 0.22262 0.0
C1456 C 0.97953 0.02475 0.20131 0.0
C1457 C 0.97846 1.00781 0.18759 0.0
H1458 H 0.95476 0.97523 0.21282 0.0
H1459 H 0.97253 0.03643 0.22916 0.0
C1460 C 0.91955 0.05305 0.28447 0.0
N1461 N 0.91866 0.04172 0.26656 0.0
C1462 C 0.91305 0.07054 0.28515 0.0
C1463 C 0.9048 0.0644 0.24902 0.0
C1464 C 0.91139 0.04705 0.24904 0.0
C1465 C 0.90586 0.07659 0.2672 0.0
H1466 H 0.92602 0.04896 0.29817 0.0
H1467 H 0.9113 0.03829 0.23495 0.0
O1468 O 0.95482 0.9835 0.26367 0.0
O1469 O 0.93016 1.00344 0.2879 0.0
O1470 O 0.95703 0.02842 0.26598 0.0
O1471 O 0.92463 0.99891 0.24149 0.0
H1472 H 0.95046 0.95221 0.28215 0.0
H1473 H 0.98828 0.99045 0.25544 0.0
H1474 H 0.97443 0.93304 0.29052 0.0
H1475 H 1.01164 0.97077 0.26448 0.0
H1476 H 0.87334 1.01033 0.29751 0.0
H1477 H 0.93784 0.01541 0.3271 0.0
H1478 H 0.89497 1.00153 0.27558 0.0
H1479 H 0.91555 0.02415 0.3481 0.0
H1480 H 0.99927 0.99518 0.34272 0.0
H1481 H 0.98098 0.05025 0.34776 0.0
H1482 H 0.89503 0.91677 0.23086 0.0
H1483 H 0.88474 0.93368 0.29062 0.0
H1484 H 0.9568 0.06551 0.27842 0.0
H1485 H 0.99126 0.02406 0.26848 0.0
H1486 H 0.98446 0.09152 0.29046 0.0
H1487 H 0.01835 0.05078 0.28069 0.0
H1488 H 0.92704 0.01213 0.20689 0.0
H1489 H 0.8899 0.98498 0.2426 0.0
H1490 H 0.90063 0.01194 0.18043 0.0
H1491 H 0.86415 0.98548 0.21565 0.0
H1492 H 0.96772 0.97636 0.18173 0.0
H1493 H 0.98652 0.03893 0.1988 0.0
H1494 H 0.91435 0.07963 0.29948 0.0
H1495 H 0.89919 0.06838 0.23483 0.0
Li1496 Li 0.3367 0.71146 0.58208 0.0
Li1497 Li 0.34542 0.68545 0.56159 0.0
Li1498 Li 0.33557 0.71293 0.54762 0.0
Li1499 Li 0.31366 0.68797 0.55864 0.0
C1500 C 0.36748 0.73256 0.57132 0.0
N1501 N 0.38729 0.7706 0.57918 0.0
C1502 C 0.3865 0.73614 0.57405 0.0
C1503 C 0.35854 0.74834 0.57255 0.0
C1504 C 0.39628 0.75548 0.57802 0.0
C1505 C 0.36878 0.76745 0.57656 0.0
C1506 C 0.31908 0.67075 0.59184 0.0
C1507 C 0.302 0.63863 0.59372 0.0
N1508 N 0.29656 0.64599 0.6107 0.0
C1509 C 0.31334 0.678 0.60933 0.0
C1510 C 0.31344 0.65089 0.58401 0.0
C1511 C 0.30197 0.66524 0.61865 0.0
C1512 C 0.3338 0.74156 0.61044 0.0
N1513 N 0.34209 0.72618 0.60728 0.0
C1514 C 0.35271 0.72793 0.64223 0.0
C1515 C 0.35231 0.71993 0.62243 0.0
C1516 C 0.34246 0.74231 0.64604 0.0
C1517 C 0.33399 0.75011 0.62989 0.0
H1518 H 0.32586 0.74615 0.59797 0.0
H1519 H 0.35876 0.70764 0.61922 0.0
C1520 C 0.37005 0.66825 0.54391 0.0
N1521 N 0.36074 0.66786 0.55949 0.0
C1522 C 0.37909 0.6532 0.5392 0.0
C1523 C 0.36935 0.63825 0.56729 0.0
C1524 C 0.36058 0.65367 0.57151 0.0
C1525 C 0.37835 0.63773 0.55066 0.0
H1526 H 0.36958 0.67969 0.53453 0.0
H1527 H 0.35296 0.65387 0.58377 0.0
C1528 C 0.30141 0.72186 0.55205 0.0
N1529 N 0.27309 0.73265 0.52815 0.0
C1530 C 0.29473 0.71192 0.53261 0.0
C1531 C 0.29356 0.73724 0.55933 0.0
C1532 C 0.28044 0.71759 0.52077 0.0
C1533 C 0.27929 0.74249 0.54702 0.0
C1534 C 0.3245 0.67024 0.52124 0.0
C1535 C 0.31887 0.67416 0.50183 0.0
C1536 C 0.32536 0.651 0.52427 0.0
C1537 C 0.31465 0.6589 0.48577 0.0
C1538 C 0.32108 0.63615 0.5078 0.0
N1539 N 0.31588 0.64037 0.48905 0.0
C1540 C 0.34525 0.72008 0.51141 0.0
C1541 C 0.32994 0.74331 0.52593 0.0
C1542 C 0.33961 0.7244 0.49229 0.0
N1543 N 0.33882 0.72824 0.52725 0.0
C1544 C 0.3238 0.74791 0.50717 0.0
C1545 C 0.32719 0.73696 0.48996 0.0
H1546 H 0.35251 0.70826 0.51314 0.0
H1547 H 0.32542 0.74986 0.53896 0.0
C1548 C 0.27829 0.67268 0.56779 0.0
N1549 N 0.28904 0.67244 0.55341 0.0
C1550 C 0.26122 0.66004 0.56473 0.0
C1551 C 0.26614 0.64802 0.53172 0.0
C1552 C 0.28295 0.66082 0.5354 0.0
C1553 C 0.25506 0.64728 0.54653 0.0
H1554 H 0.28306 0.68246 0.58178 0.0
H1555 H 0.29104 0.66126 0.52374 0.0
O1556 O 0.35778 0.71367 0.56732 0.0
O1557 O 0.33028 0.68298 0.58253 0.0
O1558 O 0.31585 0.71711 0.56379 0.0
O1559 O 0.3283 0.68502 0.53719 0.0
H1560 H 0.39363 0.72409 0.57309 0.0
H1561 H 0.34386 0.7459 0.57043 0.0
H1562 H 0.41101 0.75846 0.58015 0.0
H1563 H 0.36202 0.77977 0.57757 0.0
H1564 H 0.29744 0.62326 0.58775 0.0
H1565 H 0.31748 0.69333 0.61558 0.0
H1566 H 0.31771 0.64504 0.57048 0.0
H1567 H 0.2974 0.67065 0.63216 0.0
H1568 H 0.35936 0.72162 0.65437 0.0
H1569 H 0.32574 0.76102 0.6322 0.0
H1570 H 0.38575 0.65314 0.52615 0.0
H1571 H 0.36871 0.62664 0.57656 0.0
H1572 H 0.30064 0.70014 0.52657 0.0
H1573 H 0.29854 0.74517 0.57428 0.0
H1574 H 0.27525 0.71009 0.50567 0.0
H1575 H 0.27319 0.75443 0.55244 0.0
H1576 H 0.31727 0.6887 0.49921 0.0
H1577 H 0.32904 0.64749 0.53917 0.0
H1578 H 0.31026 0.66176 0.47071 0.0
H1579 H 0.32177 0.62123 0.50995 0.0
H1580 H 0.34304 0.71618 0.47941 0.0
H1581 H 0.31447 0.75791 0.50622 0.0
H1582 H 0.25296 0.66031 0.57644 0.0
H1583 H 0.2621 0.63847 0.51747 0.0
Li1584 Li 0.42694 0.48567 0.76146 0.0
Li1585 Li 0.45514 0.50836 0.78089 0.0
Li1586 Li 0.4309 0.52216 0.76321 0.0
Li1587 Li 0.4511 0.50544 0.74347 0.0
C1588 C 0.41748 0.50712 0.79771 0.0
N1589 N 0.3926 0.51029 0.82325 0.0
C1590 C 0.42326 0.5104 0.81851 0.0
C1591 C 0.39903 0.5053 0.78991 0.0
C1592 C 0.41048 0.51199 0.83117 0.0
C1593 C 0.38667 0.50699 0.80306 0.0
C1594 C 0.46633 0.47349 0.76342 0.0
C1595 C 0.49696 0.46892 0.76208 0.0
N1596 N 0.49303 0.4516 0.76931 0.0
C1597 C 0.46253 0.45557 0.77066 0.0
C1598 C 0.48361 0.48017 0.75893 0.0
C1599 C 0.47624 0.44474 0.7736 0.0
C1600 C 0.40154 0.4486 0.74567 0.0
N1601 N 0.4107 0.46117 0.76227 0.0
C1602 C 0.39854 0.43916 0.78367 0.0
C1603 C 0.40933 0.45673 0.781 0.0
C1604 C 0.3892 0.42557 0.76691 0.0
C1605 C 0.39066 0.43063 0.74766 0.0
H1606 H 0.40291 0.45236 0.7309 0.0
H1607 H 0.41686 0.46678 0.79398 0.0
C1608 C 0.47241 0.52949 0.81882 0.0
N1609 N 0.4715 0.5126 0.80631 0.0
C1610 C 0.48255 0.53276 0.83824 0.0
C1611 C 0.4905 0.5011 0.83176 0.0
C1612 C 0.48033 0.49852 0.81245 0.0
C1613 C 0.49167 0.51837 0.84505 0.0
H1614 H 0.46479 0.54024 0.81392 0.0
H1615 H 0.47909 0.48496 0.80271 0.0
C1616 C 0.4094 0.50411 0.72531 0.0
N1617 N 0.38076 0.50987 0.69796 0.0
C1618 C 0.41281 0.51341 0.70874 0.0
C1619 C 0.39144 0.49738 0.72776 0.0
C1620 C 0.39814 0.51629 0.69514 0.0
C1621 C 0.37714 0.50053 0.71383 0.0
C1622 C 0.47149 0.54401 0.77365 0.0
C1623 C 0.46826 0.56229 0.78097 0.0
C1624 C 0.48921 0.54049 0.77683 0.0
C1625 C 0.48282 0.57673 0.79146 0.0
C1626 C 0.5034 0.5553 0.78744 0.0
N1627 N 0.49994 0.57296 0.79448 0.0
C1628 C 0.41541 0.55231 0.7822 0.0
C1629 C 0.41759 0.55361 0.74798 0.0
C1630 C 0.40877 0.5697 0.78349 0.0
N1631 N 0.41946 0.54449 0.76455 0.0
C1632 C 0.41111 0.57105 0.74862 0.0
C1633 C 0.4067 0.57938 0.76658 0.0
H1634 H 0.41792 0.54553 0.79552 0.0
H1635 H 0.42171 0.5477 0.73442 0.0
C1636 C 0.45665 0.49431 0.70241 0.0
N1637 N 0.46261 0.50702 0.71982 0.0
C1638 C 0.46389 0.49795 0.68495 0.0
C1639 C 0.48357 0.52721 0.70387 0.0
C1640 C 0.47605 0.52303 0.72083 0.0
C1641 C 0.47721 0.51492 0.68544 0.0
H1642 H 0.44578 0.4818 0.70183 0.0
H1643 H 0.4805 0.53304 0.73466 0.0
O1644 O 0.4299 0.50597 0.78512 0.0
O1645 O 0.45312 0.48431 0.7606 0.0
O1646 O 0.42358 0.50108 0.7387 0.0
O1647 O 0.45738 0.52968 0.76336 0.0
H1648 H 0.43745 0.51169 0.82483 0.0
H1649 H 0.39437 0.5029 0.77388 0.0
H1650 H 0.41478 0.51459 0.8473 0.0
H1651 H 0.37236 0.50575 0.79722 0.0
H1652 H 0.51042 0.47394 0.75876 0.0
H1653 H 0.44917 0.45017 0.77411 0.0
H1654 H 0.48667 0.49388 0.75305 0.0
H1655 H 0.47355 0.4309 0.7793 0.0
H1656 H 0.39762 0.43626 0.79882 0.0
H1657 H 0.38387 0.42062 0.73429 0.0
H1658 H 0.48307 0.54634 0.84785 0.0
H1659 H 0.49686 0.48932 0.8364 0.0
H1660 H 0.42665 0.51853 0.70652 0.0
H1661 H 0.38855 0.48963 0.74016 0.0
H1662 H 0.40058 0.52362 0.68233 0.0
H1663 H 0.36317 0.49548 0.71559 0.0
H1664 H 0.45467 0.56534 0.77857 0.0
H1665 H 0.49195 0.52643 0.77133 0.0
H1666 H 0.48051 0.59094 0.79722 0.0
H1667 H 0.51716 0.55273 0.7901 0.0
H1668 H 0.40589 0.57585 0.79773 0.0
H1669 H 0.4097 0.57803 0.73521 0.0
H1670 H 0.4585 0.48814 0.67104 0.0
H1671 H 0.49397 0.54032 0.70507 0.0
Li1672 Li 0.65616 1.00814 0.81506 0.0
Li1673 Li 0.68119 0.02783 0.79794 0.0
Li1674 Li 0.6532 1.00534 0.77347 0.0
Li1675 Li 0.67963 0.98822 0.79629 0.0
C1676 C 0.646 0.0428 0.80112 0.0
N1677 N 0.62883 0.07261 0.81308 0.0
C1678 C 0.65576 0.05922 0.81445 0.0
C1679 C 0.62748 0.04144 0.794 0.0
C1680 C 0.64684 0.07416 0.82029 0.0
C1681 C 0.61905 0.0567 0.80018 0.0
C1682 C 0.69901 0.01961 0.83462 0.0
C1683 C 0.73127 0.02518 0.84719 0.0
N1684 N 0.72916 0.03814 0.86271 0.0
C1685 C 0.69716 0.03296 0.85069 0.0
C1686 C 0.71619 0.01565 0.83284 0.0
C1687 C 0.71256 0.04218 0.86475 0.0
C1688 C 0.63007 0.99486 0.84599 0.0
N1689 N 0.64184 1.01014 0.8408 0.0
C1690 C 0.6371 0.03034 0.87078 0.0
C1691 C 0.64497 0.02779 0.85305 0.0
C1692 C 0.62516 0.01487 0.87679 0.0
C1693 C 0.62161 0.99693 0.86354 0.0
H1694 H 0.62724 0.98073 0.83671 0.0
H1695 H 0.65386 0.04022 0.84931 0.0
C1696 C 0.69279 0.06375 0.78022 0.0
N1697 N 0.6967 0.05599 0.79752 0.0
C1698 C 0.70165 0.08272 0.77771 0.0
C1699 C 0.71818 0.08676 0.8112 0.0
C1700 C 0.7092 0.06741 0.81298 0.0
C1701 C 0.71471 0.09484 0.79322 0.0
H1702 H 0.68256 0.05522 0.76813 0.0
H1703 H 0.71229 0.06169 0.8269 0.0
C1704 C 0.63654 0.96991 0.79519 0.0
N1705 N 0.60738 0.94281 0.80155 0.0
C1706 C 0.63953 0.95328 0.80367 0.0
C1707 C 0.61878 0.9728 0.78993 0.0
C1708 C 0.62458 0.93973 0.80675 0.0
C1709 C 0.6042 0.95892 0.79328 0.0
C1710 C 0.69405 0.01378 0.76402 0.0
C1711 C 0.6896 0.02134 0.74621 0.0
C1712 C 0.71229 0.01421 0.77171 0.0
C1713 C 0.70357 0.02942 0.73646 0.0
C1714 C 0.72586 0.02244 0.76154 0.0
N1715 N 0.72126 0.02982 0.74428 0.0
C1716 C 0.63002 0.02041 0.73981 0.0
C1717 C 0.63727 0.99018 0.72914 0.0
C1718 C 0.62116 0.02126 0.71996 0.0
N1719 N 0.63799 1.005 0.74438 0.0
C1720 C 0.62874 0.99058 0.70909 0.0
C1721 C 0.62048 1.00635 0.70382 0.0
H1722 H 0.63083 0.03253 0.75146 0.0
H1723 H 0.64367 0.97801 0.73234 0.0
C1724 C 0.70431 0.96032 0.81316 0.0
N1725 N 0.69354 0.96306 0.79605 0.0
C1726 C 0.71387 0.94445 0.81375 0.0
C1727 C 0.70126 0.93313 0.77935 0.0
C1728 C 0.69199 0.9494 0.77932 0.0
C1729 C 0.71282 0.93022 0.7967 0.0
H1730 H 0.70567 0.97054 0.82671 0.0
H1731 H 0.68355 0.95099 0.76556 0.0
O1732 O 0.65449 0.02802 0.79524 0.0
O1733 O 0.68408 1.01037 0.82075 0.0
O1734 O 0.65097 0.98346 0.7923 0.0
O1735 O 0.68063 1.00631 0.7741 0.0
H1736 H 0.67003 0.06033 0.82037 0.0
H1737 H 0.61969 0.02868 0.78388 0.0
H1738 H 0.65422 0.08696 0.8306 0.0
H1739 H 0.60473 0.05588 0.79476 0.0
H1740 H 0.74465 0.02225 0.846 0.0
H1741 H 0.68401 0.03624 0.85227 0.0
H1742 H 0.71787 1.0053 0.82054 0.0
H1743 H 0.71132 0.05258 0.87724 0.0
H1744 H 0.64045 0.04466 0.87981 0.0
H1745 H 0.61274 0.98427 0.867 0.0
H1746 H 0.6981 0.08794 0.76355 0.0
H1747 H 0.7281 0.09514 0.8237 0.0
H1748 H 0.65324 0.95091 0.80785 0.0
H1749 H 0.61631 0.98568 0.78343 0.0
H1750 H 0.62665 0.92678 0.81331 0.0
H1751 H 0.59037 0.96096 0.78934 0.0
H1752 H 0.67554 0.02114 0.74009 0.0
H1753 H 0.71592 1.00836 0.78545 0.0
H1754 H 0.70036 0.03543 0.72272 0.0
H1755 H 0.74005 0.02297 0.76738 0.0
H1756 H 0.61541 0.03396 0.71722 0.0
H1757 H 0.62869 0.97842 0.69775 0.0
H1758 H 0.72202 0.94337 0.82788 0.0
H1759 H 0.69962 0.92314 0.76557 0.0
Li1760 Li 0.7739 0.67844 0.033 0.0
Li1761 Li 0.78563 0.65221 0.01589 0.0
Li1762 Li 0.77212 0.67572 0.99536 0.0
Li1763 Li 0.75143 0.65003 0.01312 0.0
C1764 C 0.80913 0.69466 0.02285 0.0
N1765 N 0.84036 0.72318 0.0355 0.0
C1766 C 0.82404 0.6906 0.03522 0.0
C1767 C 0.81016 0.71315 0.01676 0.0
C1768 C 0.83969 0.70524 0.04149 0.0
C1769 C 0.82606 0.72739 0.02336 0.0
C1770 C 0.77797 0.64461 0.054 0.0
C1771 C 0.7789 0.62118 0.07731 0.0
N1772 N 0.7945 0.63263 0.08813 0.0
C1773 C 0.79403 0.65612 0.06531 0.0
C1774 C 0.77034 0.62698 0.06001 0.0
C1775 C 0.80217 0.64982 0.08253 0.0
C1776 C 0.76199 0.69331 0.06823 0.0
N1777 N 0.77634 0.69594 0.0582 0.0
C1778 C 0.79348 0.72009 0.08533 0.0
C1779 C 0.79189 0.70915 0.06639 0.0
C1780 C 0.77881 0.71787 0.09606 0.0
C1781 C 0.76281 0.7043 0.08701 0.0
H1782 H 0.74989 0.68243 0.06173 0.0
H1783 H 0.80334 0.71092 0.05858 0.0
C1784 C 0.81912 0.64528 1.00569 0.0
N1785 N 0.80644 0.63862 0.0169 0.0
C1786 C 0.83554 0.63856 0.00672 0.0
C1787 C 0.82557 0.61749 0.03026 0.0
C1788 C 0.80925 0.62464 0.02876 0.0
C1789 C 0.83926 0.62475 0.01947 0.0
H1790 H 0.81668 0.65631 0.99627 0.0
H1791 H 0.79907 0.6193 0.03748 0.0
C1792 C 0.74566 0.69462 0.01881 0.0
N1793 N 0.73255 0.72652 0.03395 0.0
C1794 C 0.72952 0.69181 0.02674 0.0
C1795 C 0.75505 0.71361 0.01839 0.0
C1796 C 0.72314 0.70814 0.03437 0.0
C1797 C 0.74823 0.72956 0.02618 0.0
C1798 C 0.77201 0.63073 0.98091 0.0
C1799 C 0.78137 0.63376 0.96493 0.0
C1800 C 0.76916 0.61232 0.98725 0.0
C1801 C 0.78781 0.61825 0.95556 0.0
C1802 C 0.77586 0.5972 0.97752 0.0
N1803 N 0.78496 0.60045 0.96201 0.0
C1804 C 0.79085 0.69011 0.96501 0.0
C1805 C 0.76078 0.69579 0.96113 0.0
C1806 C 0.79362 0.69789 0.94733 0.0
N1807 N 0.77454 0.68885 0.97145 0.0
C1808 C 0.76303 0.70385 0.94334 0.0
C1809 C 0.77954 0.70462 0.93592 0.0
H1810 H 0.80167 0.68466 0.97343 0.0
H1811 H 0.7479 0.69474 0.96645 0.0
C1812 C 0.72161 0.62837 0.02927 0.0
N1813 N 0.72688 0.63442 0.01226 0.0
C1814 C 0.70392 0.61752 0.02884 0.0
C1815 C 0.69706 0.62009 0.99364 0.0
C1816 C 0.71488 0.63065 0.9947 0.0
C1817 C 0.6913 0.61294 0.01076 0.0
H1818 H 0.73113 0.63196 0.04327 0.0
H1819 H 0.7191 0.63596 0.98145 0.0
O1820 O 0.7937 0.68053 0.01649 0.0
O1821 O 0.76977 0.65044 0.03707 0.0
O1822 O 0.75229 0.67884 0.01158 0.0
O1823 O 0.76597 0.64582 0.99057 0.0
H1824 H 0.82354 0.67634 0.04 0.0
H1825 H 0.79883 0.71647 0.00702 0.0
H1826 H 0.8513 0.70233 0.05113 0.0
H1827 H 0.82703 0.74179 0.01881 0.0
H1828 H 0.77316 0.60755 0.08212 0.0
H1829 H 0.80016 0.66973 0.06082 0.0
H1830 H 0.75803 0.61777 0.05128 0.0
H1831 H 0.81461 0.6586 0.09144 0.0
H1832 H 0.80636 0.72983 0.09163 0.0
H1833 H 0.75097 0.70207 0.09429 0.0
H1834 H 0.84533 0.64434 0.99769 0.0
H1835 H 0.82768 0.6069 0.04033 0.0
H1836 H 0.7221 0.67716 0.02714 0.0
H1837 H 0.76752 0.71599 0.01222 0.0
H1838 H 0.71071 0.70621 0.04065 0.0
H1839 H 0.7554 0.74436 0.02605 0.0
H1840 H 0.78367 0.64793 0.95985 0.0
H1841 H 0.76202 0.60982 0.9997 0.0
H1842 H 0.79511 0.62038 0.94318 0.0
H1843 H 0.77385 0.58288 0.98233 0.0
H1844 H 0.80671 0.69843 0.94254 0.0
H1845 H 0.75173 0.70875 0.93511 0.0
H1846 H 0.70036 0.61247 0.04248 0.0
H1847 H 0.68788 0.61767 0.97942 0.0
Li1848 Li 0.89816 0.52231 0.76563 0.0
Li1849 Li 0.92666 0.54453 0.78933 0.0
Li1850 Li 0.90088 0.56266 0.76768 0.0
Li1851 Li 0.924 0.54283 0.74832 0.0
C1852 C 0.88696 0.53969 0.80158 0.0
N1853 N 0.86153 0.53092 0.82618 0.0
C1854 C 0.89122 0.53052 0.81836 0.0
C1855 C 0.86975 0.54435 0.79727 0.0
C1856 C 0.87817 0.5262 0.83061 0.0
C1857 C 0.85709 0.53983 0.80992 0.0
C1858 C 0.93742 0.51028 0.76995 0.0
C1859 C 0.96775 0.50436 0.76938 0.0
N1860 N 0.96273 0.48665 0.77548 0.0
C1861 C 0.93258 0.49207 0.77632 0.0
C1862 C 0.95517 0.51655 0.76656 0.0
C1863 C 0.94556 0.48033 0.77902 0.0
C1864 C 0.8853 0.47782 0.75412 0.0
N1865 N 0.88183 0.49418 0.76478 0.0
C1866 C 0.85947 0.47262 0.7788 0.0
C1867 C 0.86866 0.49155 0.77655 0.0
C1868 C 0.86339 0.45539 0.76887 0.0
C1869 C 0.8763 0.45849 0.7559 0.0
H1870 H 0.89567 0.47958 0.74472 0.0
H1871 H 0.86539 0.50413 0.78478 0.0
C1872 C 0.95205 0.55949 0.83112 0.0
N1873 N 0.94216 0.54358 0.81791 0.0
C1874 C 0.96093 0.55752 0.85068 0.0
C1875 C 0.94982 0.52291 0.84317 0.0
C1876 C 0.94125 0.52549 0.8239 0.0
C1877 C 0.95978 0.53898 0.85741 0.0
H1878 H 0.95286 0.57396 0.82677 0.0
H1879 H 0.93336 0.51278 0.81389 0.0
C1880 C 0.88174 0.53311 0.72802 0.0
N1881 N 0.8528 0.51804 0.69722 0.0
C1882 C 0.88491 0.52794 0.70858 0.0
C1883 C 0.86389 0.53061 0.73185 0.0
C1884 C 0.87007 0.52039 0.69319 0.0
C1885 C 0.84943 0.52292 0.71606 0.0
C1886 C 0.94356 0.58009 0.76692 0.0
C1887 C 0.93997 0.59551 0.75665 0.0
C1888 C 0.96149 0.57766 0.77202 0.0
C1889 C 0.95448 0.6083 0.7516 0.0
C1890 C 0.97561 0.59074 0.76666 0.0
N1891 N 0.97184 0.60566 0.75665 0.0
C1892 C 0.88073 0.5939 0.78591 0.0
C1893 C 0.88469 0.59874 0.75325 0.0
C1894 C 0.87142 0.60994 0.78751 0.0
N1895 N 0.88716 0.588 0.76884 0.0
C1896 C 0.87566 0.61518 0.75439 0.0
C1897 C 0.86843 0.62122 0.77166 0.0
H1898 H 0.88272 0.58614 0.79866 0.0
H1899 H 0.88967 0.59464 0.73957 0.0
C1900 C 0.94491 0.52588 0.71585 0.0
N1901 N 0.9379 0.5418 0.7224 0.0
C1902 C 0.95349 0.525 0.69836 0.0
C1903 C 0.94763 0.55663 0.69374 0.0
C1904 C 0.9394 0.55706 0.71139 0.0
C1905 C 0.95493 0.5404 0.68649 0.0
H1906 H 0.94369 0.51344 0.72396 0.0
H1907 H 0.93396 0.56976 0.71607 0.0
O1908 O 0.8995 0.54399 0.78934 0.0
O1909 O 0.92483 0.52184 0.76683 0.0
O1910 O 0.89607 0.54051 0.74324 0.0
O1911 O 0.92953 0.56713 0.77153 0.0
H1912 H 0.9044 0.5267 0.82184 0.0
H1913 H 0.86616 0.55122 0.78419 0.0
H1914 H 0.88128 0.51908 0.84364 0.0
H1915 H 0.84372 0.54334 0.80676 0.0
H1916 H 0.98151 0.50897 0.76669 0.0
H1917 H 0.91901 0.48714 0.77939 0.0
H1918 H 0.95914 0.53062 0.76166 0.0
H1919 H 0.942 0.46621 0.78395 0.0
H1920 H 0.8494 0.47158 0.78862 0.0
H1921 H 0.88007 0.44606 0.74779 0.0
H1922 H 0.9682 0.5706 0.86066 0.0
H1923 H 0.94849 0.50814 0.8468 0.0
H1924 H 0.89867 0.5298 0.70541 0.0
H1925 H 0.86126 0.53446 0.74686 0.0
H1926 H 0.8723 0.51639 0.67804 0.0
H1927 H 0.83553 0.52083 0.71879 0.0
H1928 H 0.92613 0.59749 0.75253 0.0
H1929 H 0.96444 0.56574 0.77995 0.0
H1930 H 0.95192 0.62029 0.74361 0.0
H1931 H 0.98957 0.58902 0.77044 0.0
H1932 H 0.8667 0.61356 0.80147 0.0
H1933 H 0.87398 0.6228 0.74147 0.0
H1934 H 0.95848 0.51192 0.69385 0.0
H1935 H 0.94826 0.56921 0.68582 0.0
Li1936 Li 0.75562 0.34693 0.52174 0.0
Li1937 Li 0.74127 0.37282 0.50843 0.0
Li1938 Li 0.75295 0.34906 0.48653 0.0
Li1939 Li 0.77371 0.37432 0.50999 0.0
C1940 C 0.72133 0.32766 0.50429 0.0
N1941 N 0.69717 0.29425 0.50813 0.0
C1942 C 0.70508 0.32916 0.51121 0.0
C1943 C 0.72528 0.30919 0.49927 0.0
C1944 C 0.69303 0.31208 0.51304 0.0
C1945 C 0.71292 0.29247 0.50136 0.0
C1946 C 0.76853 0.39082 0.54593 0.0
C1947 C 0.7789 0.42579 0.5543 0.0
N1948 N 0.78827 0.42314 0.57211 0.0
C1949 C 0.77816 0.38841 0.56433 0.0
C1950 C 0.76877 0.40963 0.54088 0.0
C1951 C 0.78808 0.40495 0.57737 0.0
C1952 C 0.76943 0.32053 0.54245 0.0
N1953 N 0.75528 0.32995 0.5407 0.0
C1954 C 0.74425 0.31636 0.56822 0.0
C1955 C 0.74255 0.32795 0.55291 0.0
C1956 C 0.7589 0.30664 0.57028 0.0
C1957 C 0.7713 0.3084 0.55692 0.0
H1958 H 0.77984 0.32326 0.53335 0.0
H1959 H 0.73165 0.33602 0.55133 0.0
C1960 C 0.71404 0.39312 0.49566 0.0
N1961 N 0.72241 0.38555 0.51112 0.0
C1962 C 0.69935 0.40201 0.49827 0.0
C1963 C 0.70208 0.39445 0.53237 0.0
C1964 C 0.71676 0.38589 0.52915 0.0
C1965 C 0.6933 0.40274 0.51685 0.0
H1966 H 0.71875 0.39218 0.48139 0.0
H1967 H 0.72369 0.37943 0.54096 0.0
C1968 C 0.78592 0.33571 0.49711 0.0
N1969 N 0.80889 0.3139 0.48131 0.0
C1970 C 0.80213 0.34508 0.49186 0.0
C1971 C 0.78139 0.3152 0.49424 0.0
C1972 C 0.81355 0.3338 0.4839 0.0
C1973 C 0.79319 0.30446 0.48627 0.0
C1974 C 0.76291 0.38824 0.47306 0.0
C1975 C 0.77517 0.38102 0.46219 0.0
C1976 C 0.75837 0.40628 0.47004 0.0
C1977 C 0.78255 0.39187 0.44826 0.0
C1978 C 0.76611 0.41674 0.45605 0.0
N1979 N 0.77791 0.40936 0.44551 0.0
C1980 C 0.729 0.32507 0.45464 0.0
C1981 C 0.76038 0.32747 0.4527 0.0
C1982 C 0.72408 0.31029 0.43813 0.0
N1983 N 0.74693 0.33288 0.46181 0.0
C1984 C 0.75614 0.31275 0.43647 0.0
C1985 C 0.73789 0.30379 0.42939 0.0
H1986 H 0.71858 0.32991 0.46208 0.0
H1987 H 0.77444 0.33414 0.45823 0.0
C1988 C 0.8082 0.38677 0.53241 0.0
N1989 N 0.79706 0.3911 0.51672 0.0
C1990 C 0.82554 0.39828 0.53918 0.0
C1991 C 0.81995 0.418 0.51289 0.0
C1992 C 0.8025 0.40652 0.50709 0.0
C1993 C 0.83176 0.41407 0.52926 0.0
H1994 H 0.80349 0.3744 0.53979 0.0
H1995 H 0.79345 0.40998 0.49488 0.0
O1996 O 0.73312 0.3442 0.50205 0.0
O1997 O 0.75931 0.37479 0.53268 0.0
O1998 O 0.77479 0.34654 0.50542 0.0
O1999 O 0.75555 0.37797 0.48685 0.0
H2000 H 0.70176 0.34335 0.51502 0.0
H2001 H 0.73772 0.30779 0.49373 0.0
H2002 H 0.68037 0.31301 0.51832 0.0
H2003 H 0.71581 0.27807 0.49754 0.0
H2004 H 0.77937 0.44044 0.55054 0.0
H2005 H 0.77812 0.3739 0.56838 0.0
H2006 H 0.76146 0.41167 0.5266 0.0
H2007 H 0.79569 0.40333 0.59163 0.0
H2008 H 0.73484 0.31571 0.57881 0.0
H2009 H 0.78321 0.30178 0.55875 0.0
H2010 H 0.69282 0.40825 0.48599 0.0
H2011 H 0.69796 0.39505 0.54699 0.0
H2012 H 0.80586 0.36089 0.49383 0.0
H2013 H 0.76896 0.30763 0.49822 0.0
H2014 H 0.82613 0.34088 0.47978 0.0
H2015 H 0.78986 0.28861 0.48405 0.0
H2016 H 0.77924 0.36744 0.46478 0.0
H2017 H 0.7491 0.41222 0.47856 0.0
H2018 H 0.79207 0.38645 0.43974 0.0
H2019 H 0.76276 0.43075 0.45361 0.0
H2020 H 0.70986 0.30387 0.4325 0.0
H2021 H 0.76703 0.30833 0.42947 0.0
H2022 H 0.83389 0.39478 0.55207 0.0
H2023 H 0.82413 0.42961 0.50433 0.0
Li2024 Li 0.63034 0.54383 0.3197 0.0
Li2025 Li 0.65397 0.56619 0.30288 0.0
Li2026 Li 0.62732 0.54299 0.2829 0.0
Li2027 Li 0.65176 0.52953 0.29938 0.0
C2028 C 0.61242 0.57194 0.29453 0.0
N2029 N 0.58221 0.58308 0.27481 0.0
C2030 C 0.61457 0.58766 0.28358 0.0
C2031 C 0.59493 0.56194 0.29556 0.0
C2032 C 0.59912 0.59306 0.27369 0.0
C2033 C 0.57982 0.56777 0.28544 0.0
C2034 C 0.67368 0.54712 0.33582 0.0
C2035 C 0.70606 0.54846 0.3401 0.0
N2036 N 0.70577 0.54353 0.35885 0.0
C2037 C 0.67365 0.54198 0.35507 0.0
C2038 C 0.68997 0.55038 0.32822 0.0
C2039 C 0.69005 0.5403 0.36652 0.0
C2040 C 0.61745 0.52475 0.3516 0.0
N2041 N 0.6191 0.54172 0.34343 0.0
C2042 C 0.60679 0.55698 0.37021 0.0
C2043 C 0.6137 0.5576 0.35222 0.0
C2044 C 0.60538 0.53985 0.37937 0.0
C2045 C 0.61052 0.52346 0.36958 0.0
H2046 H 0.6219 0.51233 0.34439 0.0
H2047 H 0.61509 0.57092 0.34544 0.0
C2048 C 0.66937 0.60088 0.28836 0.0
N2049 N 0.67025 0.59123 0.30464 0.0
C2050 C 0.68113 0.61889 0.28874 0.0
C2051 C 0.69476 0.61661 0.32253 0.0
C2052 C 0.68262 0.59876 0.32156 0.0
C2053 C 0.69413 0.62711 0.30601 0.0
H2054 H 0.65951 0.59454 0.275 0.0
H2055 H 0.68317 0.59083 0.33431 0.0
C2056 C 0.61213 0.50456 0.29152 0.0
N2057 N 0.58515 0.4718 0.2768 0.0
C2058 C 0.61518 0.48995 0.27739 0.0
C2059 C 0.59546 0.50238 0.2984 0.0
C2060 C 0.60134 0.47355 0.27005 0.0
C2061 C 0.58197 0.48574 0.29072 0.0
C2062 C 0.65816 0.542 0.26123 0.0
C2063 C 0.64872 0.52484 0.24883 0.0
C2064 C 0.67295 0.55356 0.2553 0.0
C2065 C 0.65424 0.51952 0.23062 0.0
C2066 C 0.6781 0.54771 0.237 0.0
N2067 N 0.6687 0.53096 0.22514 0.0
C2068 C 0.61706 0.55255 0.24426 0.0
C2069 C 0.59581 0.52625 0.25155 0.0
C2070 C 0.60826 0.54973 0.22426 0.0
N2071 N 0.61115 0.54045 0.2573 0.0
C2072 C 0.58668 0.52282 0.23166 0.0
C2073 C 0.59323 0.53424 0.21755 0.0
H2074 H 0.6292 0.56384 0.24916 0.0
H2075 H 0.59095 0.51709 0.26209 0.0
C2076 C 0.65972 0.49191 0.30446 0.0
N2077 N 0.66536 0.50883 0.2971 0.0
C2078 C 0.66812 0.47586 0.30106 0.0
C2079 C 0.68824 0.49507 0.28298 0.0
C2080 C 0.67961 0.51078 0.28691 0.0
C2081 C 0.68236 0.4772 0.28982 0.0
H2082 H 0.64834 0.49068 0.3125 0.0
H2083 H 0.68409 0.52442 0.28146 0.0
O2084 O 0.62734 0.56612 0.30392 0.0
O2085 O 0.65786 0.54933 0.32462 0.0
O2086 O 0.62552 0.52068 0.299 0.0
O2087 O 0.65298 0.54759 0.27909 0.0
H2088 H 0.62803 0.59553 0.28265 0.0
H2089 H 0.59307 0.5497 0.30394 0.0
H2090 H 0.60057 0.60516 0.2651 0.0
H2091 H 0.56619 0.56011 0.28602 0.0
H2092 H 0.71879 0.55094 0.33444 0.0
H2093 H 0.66112 0.53951 0.36116 0.0
H2094 H 0.69016 0.5544 0.31333 0.0
H2095 H 0.69028 0.53645 0.3815 0.0
H2096 H 0.60277 0.56991 0.377 0.0
H2097 H 0.60983 0.51001 0.3761 0.0
H2098 H 0.67984 0.62637 0.27568 0.0
H2099 H 0.70471 0.62194 0.33606 0.0
H2100 H 0.62812 0.49119 0.2722 0.0
H2101 H 0.59294 0.51348 0.30947 0.0
H2102 H 0.60349 0.46217 0.25904 0.0
H2103 H 0.56896 0.48389 0.29581 0.0
H2104 H 0.63715 0.51585 0.25311 0.0
H2105 H 0.68044 0.56685 0.26478 0.0
H2106 H 0.64701 0.50632 0.22083 0.0
H2107 H 0.68955 0.55648 0.23224 0.0
H2108 H 0.61382 0.55886 0.21392 0.0
H2109 H 0.57492 0.51095 0.22722 0.0
H2110 H 0.66312 0.46235 0.30657 0.0
H2111 H 0.69938 0.49688 0.27457 0.0
Tb2112 Tb 0.01868 0.01335 0.01905 0.0
Tb2113 Tb 0.05489 0.03362 0.04174 0.0
C2114 C 0.98489 1.00546 0.00841 0.0
C2115 C 0.97271 0.01763 0.01569 0.0
C2116 C 0.97859 0.02958 0.03434 0.0
C2117 C 0.96881 0.04329 0.04072 0.0
C2118 C 0.95261 0.04517 0.02881 0.0
C2119 C 0.94646 0.03293 0.01023 0.0
C2120 C 0.95656 0.0193 1.00364 0.0
C2121 C 0.04512 0.01589 0.99718 0.0
C2122 C 0.02971 0.06035 0.02476 0.0
C2123 C 0.08883 0.0435 0.05221 0.0
C2124 C 0.10312 0.03197 0.05431 0.0
C2125 C 0.09962 0.01263 0.0445 0.0
C2126 C 0.1134 1.00198 0.045 0.0
C2127 C 0.13107 1.01062 0.055 0.0
C2128 C 0.13456 0.02986 0.06519 0.0
C2129 C 0.12057 0.04046 0.06495 0.0
C2130 C 0.02857 0.03166 0.06381 0.0
C2131 C 0.04198 0.98608 0.0385 0.0
O2132 O 0.99337 0.9972 0.02222 0.0
O2133 O 0.99595 0.01382 0.9974 0.0
O2134 O 0.0428 0.02835 0.01089 0.0
O2135 O 0.03136 1.00126 0.99465 0.0
O2136 O 0.01671 0.04456 0.02337 0.0
O2137 O 0.04693 0.05958 0.03082 0.0
O2138 O 0.0804 0.0424 0.03378 0.0
O2139 O 0.07754 0.04178 0.06503 0.0
O2140 O 0.03067 0.019 0.05007 0.0
O2141 O 0.04217 0.04645 0.0657 0.0
O2142 O 0.05552 1.0018 0.043 0.0
O2143 O 0.02572 0.98731 0.02934 0.0
H2144 H 0.99117 0.02878 0.04381 0.0
H2145 H 0.9743 0.05278 0.05482 0.0
H2146 H 0.93395 0.03393 1.00077 0.0
H2147 H 0.95196 1.01038 0.98907 0.0
H2148 H 0.08647 1.006 0.03561 0.0
H2149 H 0.11045 0.98736 0.03661 0.0
H2150 H 0.14815 0.0368 0.07291 0.0
H2151 H 0.12349 0.05542 0.0725 0.0
Tb2152 Tb 0.30051 0.77001 0.2742 0.0
Tb2153 Tb 0.28235 0.78643 0.30448 0.0
C2154 C 0.3176 0.76183 0.24638 0.0
C2155 C 0.32382 0.77121 0.2299 0.0
C2156 C 0.32296 0.79087 0.2287 0.0
C2157 C 0.32268 0.79773 0.21029 0.0
C2158 C 0.32325 0.78489 0.19316 0.0
C2159 C 0.32744 0.76645 0.19516 0.0
C2160 C 0.32749 0.75951 0.21354 0.0
C2161 C 0.31706 0.76998 0.31125 0.0
C2162 C 0.30474 0.81786 0.28383 0.0
C2163 C 0.27456 0.79359 0.33864 0.0
C2164 C 0.26577 0.77958 0.35041 0.0
C2165 C 0.27088 0.76135 0.35088 0.0
C2166 C 0.26333 0.74829 0.36267 0.0
C2167 C 0.2509 0.75341 0.37475 0.0
C2168 C 0.24448 0.77086 0.37282 0.0
C2169 C 0.25191 0.7839 0.36068 0.0
C2170 C 0.25919 0.78306 0.27065 0.0
C2171 C 0.27295 0.73919 0.29078 0.0
O2172 O 0.29988 0.75677 0.24486 0.0
O2173 O 0.32548 0.77027 0.26437 0.0
O2174 O 0.31024 0.78369 0.30452 0.0
O2175 O 0.31301 0.75511 0.29725 0.0
O2176 O 0.30705 0.80244 0.27167 0.0
O2177 O 0.29586 0.81498 0.29891 0.0
O2178 O 0.29089 0.79173 0.33565 0.0
O2179 O 0.26431 0.79595 0.32233 0.0
O2180 O 0.27468 0.77819 0.27204 0.0
O2181 O 0.25727 0.79132 0.28789 0.0
O2182 O 0.27323 0.75439 0.3045 0.0
O2183 O 0.28164 0.74207 0.27546 0.0
H2184 H 0.32063 0.80031 0.24132 0.0
H2185 H 0.31944 0.81203 0.20893 0.0
H2186 H 0.32787 0.75637 0.182 0.0
H2187 H 0.32845 0.74437 0.21438 0.0
H2188 H 0.28137 0.75747 0.34289 0.0
H2189 H 0.26881 0.73515 0.36393 0.0
H2190 H 0.23497 0.77517 0.38208 0.0
H2191 H 0.24748 0.79771 0.36006 0.0
Tb2192 Tb 0.55949 0.02665 0.52482 0.0
Tb2193 Tb 0.52112 0.02533 0.53974 0.0
C2194 C 0.592 0.02389 0.52243 0.0
C2195 C 0.60544 0.01095 0.52625 0.0
C2196 C 0.61325 1.00894 0.54579 0.0
C2197 C 0.62668 0.99759 0.54887 0.0
C2198 C 0.63285 0.98811 0.53252 0.0
C2199 C 0.62507 0.99024 0.513 0.0
C2200 C 0.61157 1.00148 0.50993 0.0
C2201 C 0.53323 0.03297 0.49518 0.0
C2202 C 0.5319 0.98591 0.52208 0.0
C2203 C 0.48837 0.02729 0.54212 0.0
C2204 C 0.47401 0.03884 0.53736 0.0
C2205 C 0.47482 0.05185 0.52311 0.0
C2206 C 0.46077 0.06229 0.51896 0.0
C2207 C 0.44553 0.05998 0.52894 0.0
C2208 C 0.44505 0.04715 0.54345 0.0
C2209 C 0.45907 0.03677 0.54757 0.0
C2210 C 0.54754 0.01972 0.56964 0.0
C2211 C 0.54903 0.06586 0.54248 0.0
O2212 O 0.58733 0.03373 0.53779 0.0
O2213 O 0.57813 0.01711 0.50789 0.0
O2214 O 0.5323 0.02962 0.51306 0.0
O2215 O 0.55033 0.03387 0.49412 0.0
O2216 O 0.54891 0.99536 0.52319 0.0
O2217 O 0.51844 0.99468 0.52631 0.0
O2218 O 0.49321 0.01694 0.52722 0.0
O2219 O 0.50236 0.03575 0.55595 0.0
O2220 O 0.54821 0.02198 0.55141 0.0
O2221 O 0.53072 0.02017 0.57111 0.0
O2222 O 0.53171 0.05674 0.54011 0.0
O2223 O 0.56245 0.05668 0.53934 0.0
H2224 H 0.60922 0.01633 0.55875 0.0
H2225 H 0.6325 0.9966 0.56415 0.0
H2226 H 0.62928 0.98307 0.50003 0.0
H2227 H 0.60603 1.00293 0.49468 0.0
H2228 H 0.48626 0.05389 0.51515 0.0
H2229 H 0.4619 0.07223 0.50793 0.0
H2230 H 0.43358 0.04467 0.55131 0.0
H2231 H 0.45814 0.02687 0.55868 0.0
Tb2232 Tb 0.27229 0.27946 0.78146 0.0
Tb2233 Tb 0.30979 0.26733 0.7838 0.0
C2234 C 0.23974 0.28122 0.78496 0.0
C2235 C 0.22682 0.28267 0.7995 0.0
C2236 C 0.21307 0.26637 0.80014 0.0
C2237 C 0.19899 0.2681 0.81118 0.0
C2238 C 0.19812 0.28626 0.82184 0.0
C2239 C 0.21234 0.30237 0.82189 0.0
C2240 C 0.22643 0.30063 0.81084 0.0
C2241 C 0.30005 0.30646 0.77649 0.0
C2242 C 0.29726 0.28058 0.82434 0.0
C2243 C 0.34213 0.26483 0.78017 0.0
C2244 C 0.35596 0.26779 0.76664 0.0
C2245 C 0.36161 0.2861 0.76052 0.0
C2246 C 0.37675 0.2895 0.75073 0.0
C2247 C 0.38671 0.27473 0.74678 0.0
C2248 C 0.3804 0.25609 0.75189 0.0
C2249 C 0.36529 0.25271 0.76178 0.0
C2250 C 0.28276 0.24059 0.78994 0.0
C2251 C 0.28411 0.2647 0.74142 0.0
O2252 O 0.24562 0.26482 0.78219 0.0
O2253 O 0.25236 0.29656 0.7844 0.0
O2254 O 0.30023 0.29387 0.78823 0.0
O2255 O 0.28334 0.30519 0.76766 0.0
O2256 O 0.28113 0.28107 0.81391 0.0
O2257 O 0.31119 0.27695 0.81572 0.0
O2258 O 0.33752 0.28045 0.78882 0.0
O2259 O 0.3282 0.2501 0.7748 0.0
O2260 O 0.28188 0.25276 0.77776 0.0
O2261 O 0.29964 0.24189 0.79802 0.0
O2262 O 0.30104 0.26772 0.7514 0.0
O2263 O 0.27007 0.26628 0.75057 0.0
H2264 H 0.21278 0.25236 0.7914 0.0
H2265 H 0.18829 0.25538 0.81054 0.0
H2266 H 0.21242 0.31652 0.83018 0.0
H2267 H 0.23668 0.31355 0.8107 0.0
H2268 H 0.35477 0.29807 0.76392 0.0
H2269 H 0.38097 0.30395 0.74674 0.0
H2270 H 0.38772 0.24439 0.74922 0.0
H2271 H 0.36136 0.23849 0.76642 0.0
Tb2272 Tb 0.03803 0.04557 0.54078 0.0
Tb2273 Tb 0.04098 1.00406 0.52697 0.0
C2274 C 0.03641 0.08109 0.5439 0.0
C2275 C 0.0342 0.09419 0.52863 0.0
C2276 C 0.04804 0.09982 0.51752 0.0
C2277 C 0.04483 0.11029 0.50155 0.0
C2278 C 0.02772 0.11521 0.4963 0.0
C2279 C 0.01404 0.10988 0.50768 0.0
C2280 C 0.0173 0.09961 0.52377 0.0
C2281 C 1.01016 0.01779 0.54393 0.0
C2282 C 0.03044 0.02913 0.49394 0.0
C2283 C 0.03378 0.96742 0.52185 0.0
C2284 C 0.04261 0.95269 0.53081 0.0
C2285 C 0.03195 0.93789 0.53864 0.0
C2286 C 0.04016 0.92524 0.54959 0.0
C2287 C 0.05919 0.92711 0.55279 0.0
C2288 C 0.06986 0.94148 0.54435 0.0
C2289 C 0.06164 0.95433 0.53356 0.0
C2290 C 0.0735 0.02692 0.5275 0.0
C2291 C 0.05381 0.02298 0.57321 0.0
O2292 O 0.05185 0.07497 0.54683 0.0
O2293 O 0.0223 0.06701 0.54303 0.0
O2294 O 0.01887 0.01859 0.52948 0.0
O2295 O 0.01714 0.0328 0.55747 0.0
O2296 O 0.03508 0.04457 0.50811 0.0
O2297 O 0.02948 0.0111 0.49822 0.0
O2298 O 0.0268 0.97821 0.53446 0.0
O2299 O 0.04248 0.97768 0.50997 0.0
O2300 O 0.05938 0.03219 0.53238 0.0
O2301 O 0.06939 1.00806 0.5228 0.0
O2302 O 0.04805 1.00696 0.55978 0.0
O2303 O 0.05345 0.04066 0.56844 0.0
H2304 H 0.06122 0.09586 0.52089 0.0
H2305 H 0.0558 0.11459 0.49337 0.0
H2306 H 1.00067 0.11332 0.50394 0.0
H2307 H 1.00638 0.09538 0.53206 0.0
H2308 H 0.01729 0.9365 0.53681 0.0
H2309 H 0.03163 0.91409 0.55574 0.0
H2310 H 0.08456 0.94319 0.54668 0.0
H2311 H 0.07019 0.96584 0.52789 0.0
Tb2312 Tb 0.28866 0.75109 0.77924 0.0
Tb2313 Tb 0.28883 0.79554 0.78529 0.0
C2314 C 0.2938 0.71676 0.77136 0.0
C2315 C 0.3093 0.70656 0.77098 0.0
C2316 C 0.3182 0.70503 0.75431 0.0
C2317 C 0.33219 0.69436 0.75421 0.0
C2318 C 0.33754 0.68502 0.77076 0.0
C2319 C 0.32881 0.68693 0.78752 0.0
C2320 C 0.31481 0.6974 0.78756 0.0
C2321 C 0.28675 0.7659 0.81545 0.0
C2322 C 0.32576 0.78144 0.78258 0.0
C2323 C 0.29055 0.83149 0.79556 0.0
C2324 C 0.27782 0.84508 0.79213 0.0
C2325 C 0.26205 0.84384 0.801 0.0
C2326 C 0.25017 0.85674 0.79748 0.0
C2327 C 0.25374 0.87112 0.78495 0.0
C2328 C 0.26954 0.87237 0.77616 0.0
C2329 C 0.28145 0.85956 0.77976 0.0
C2330 C 0.27799 0.77673 0.74847 0.0
C2331 C 0.25229 0.76488 0.78019 0.0
O2332 O 0.29007 0.72764 0.7574 0.0
O2333 O 0.29244 0.72494 0.78914 0.0
O2334 O 0.2963 0.77472 0.8042 0.0
O2335 O 0.27873 0.74856 0.80688 0.0
O2336 O 0.31705 0.76299 0.77926 0.0
O2337 O 0.31795 0.79646 0.78689 0.0
O2338 O 0.28635 0.81812 0.80702 0.0
O2339 O 0.2967 0.82449 0.77978 0.0
O2340 O 0.2901 0.77394 0.76172 0.0
O2341 O 0.2728 0.79257 0.75479 0.0
O2342 O 0.26183 0.78206 0.78962 0.0
O2343 O 0.25984 0.75139 0.77118 0.0
H2344 H 0.31419 0.71179 0.74126 0.0
H2345 H 0.33846 0.69301 0.74094 0.0
H2346 H 0.33273 0.68027 0.80067 0.0
H2347 H 0.30817 0.69816 0.80061 0.0
H2348 H 0.2588 0.83288 0.81063 0.0
H2349 H 0.23806 0.85528 0.80437 0.0
H2350 H 0.27287 0.88346 0.76669 0.0
H2351 H 0.29355 0.86098 0.77285 0.0
Tb2352 Tb 0.52786 0.02839 0.02164 0.0
Tb2353 Tb 0.55872 0.0185 0.04775 0.0
C2354 C 0.49632 0.02643 1.00319 0.0
C2355 C 0.4786 0.01846 0.00843 0.0
C2356 C 0.47659 1.00191 0.0184 0.0
C2357 C 0.45974 0.99398 0.023 0.0
C2358 C 0.44469 1.00263 0.018 0.0
C2359 C 0.44681 0.01961 0.00871 0.0
C2360 C 0.4637 0.02744 1.00385 0.0
C2361 C 0.55338 0.05899 0.03822 0.0
C2362 C 0.52469 0.0229 0.06893 0.0
C2363 C 0.5902 0.01903 0.06571 0.0
C2364 C 0.60741 0.02978 0.06159 0.0
C2365 C 0.60707 0.04548 0.05055 0.0
C2366 C 0.62298 0.05532 0.04541 0.0
C2367 C 0.63961 0.04976 0.05132 0.0
C2368 C 0.64009 0.03423 0.06268 0.0
C2369 C 0.62398 0.02416 0.06767 0.0
C2370 C 0.53303 0.98819 0.03064 0.0
C2371 C 0.56231 0.02477 1.00098 0.0
O2372 O 0.50629 0.01348 0.99933 0.0
O2373 O 0.50575 0.04223 0.01478 0.0
O2374 O 0.54779 0.04412 0.04609 0.0
O2375 O 0.54352 0.05758 0.02058 0.0
O2376 O 0.51632 0.02425 0.05044 0.0
O2377 O 0.54206 0.0212 0.07161 0.0
O2378 O 0.57952 0.0301 0.07224 0.0
O2379 O 0.58138 1.00499 0.05146 0.0
O2380 O 0.53916 1.00304 0.02316 0.0
O2381 O 0.54235 0.98949 0.0485 0.0
O2382 O 0.57046 0.02517 0.01994 0.0
O2383 O 0.54451 0.02467 0.99744 0.0
H2384 H 0.48801 0.99494 0.02245 0.0
H2385 H 0.4584 0.98097 0.03034 0.0
H2386 H 0.4353 0.02643 1.00468 0.0
H2387 H 0.46509 0.04034 0.99636 0.0
H2388 H 0.59445 0.05015 0.04581 0.0
H2389 H 0.62229 0.06749 0.03702 0.0
H2390 H 0.65282 0.02976 0.06743 0.0
H2391 H 0.62444 0.01201 0.07612 0.0
Tb2392 Tb 0.27423 0.26368 0.27178 0.0
Tb2393 Tb 0.30827 0.28979 0.29087 0.0
C2394 C 0.24201 0.2451 0.26744 0.0
C2395 C 0.22466 0.25073 0.27003 0.0
C2396 C 0.22426 0.26675 0.28426 0.0
C2397 C 0.2077 0.27047 0.28867 0.0
C2398 C 0.19128 0.25812 0.27905 0.0
C2399 C 0.19166 0.24274 0.26401 0.0
C2400 C 0.20827 0.23907 0.25954 0.0
C2401 C 0.29211 0.28097 0.24599 0.0
C2402 C 0.27352 0.31027 0.28647 0.0
C2403 C 0.34068 0.30827 0.29629 0.0
C2404 C 0.35827 0.3022 0.29652 0.0
C2405 C 0.37126 0.3124 0.28678 0.0
C2406 C 0.38643 0.30473 0.28309 0.0
C2407 C 0.38887 0.28671 0.28913 0.0
C2408 C 0.37642 0.27719 0.3001 0.0
C2409 C 0.36117 0.2848 0.30365 0.0
C2410 C 0.29039 0.27213 0.31674 0.0
C2411 C 0.30829 0.24265 0.27556 0.0
O2412 O 0.25384 0.24734 0.28402 0.0
O2413 O 0.24946 0.25114 0.25248 0.0
O2414 O 0.2905 0.2884 0.26331 0.0
O2415 O 0.28277 0.26306 0.24225 0.0
O2416 O 0.26452 0.29186 0.27974 0.0
O2417 O 0.29167 0.31346 0.29134 0.0
O2418 O 0.33002 0.30401 0.27879 0.0
O2419 O 0.33189 0.30429 0.31101 0.0
O2420 O 0.29224 0.26506 0.29938 0.0
O2421 O 0.29932 0.29017 0.32025 0.0
O2422 O 0.31788 0.26096 0.28248 0.0
O2423 O 0.29024 0.2401 0.27103 0.0
H2424 H 0.23672 0.27581 0.29278 0.0
H2425 H 0.20786 0.28226 0.3005 0.0
H2426 H 0.17915 0.23312 0.25623 0.0
H2427 H 0.20834 0.22668 0.24849 0.0
H2428 H 0.36912 0.32573 0.28097 0.0
H2429 H 0.39555 0.31232 0.27434 0.0
H2430 H 0.37804 0.26342 0.3052 0.0
H2431 H 0.35123 0.2766 0.31109 0.0
Tb2432 Tb 0.53713 0.54163 0.03589 0.0
Tb2433 Tb 0.54477 0.50348 0.02482 0.0
C2434 C 0.53395 0.57693 0.04004 0.0
C2435 C 0.52822 0.59171 0.02827 0.0
C2436 C 0.53356 0.5943 0.00967 0.0
C2437 C 0.5293 0.60987 0.99997 0.0
C2438 C 0.51968 0.62299 0.00878 0.0
C2439 C 0.51351 0.6196 0.02681 0.0
C2440 C 0.51779 0.60413 0.03648 0.0
C2441 C 0.511 0.5122 0.04009 0.0
C2442 C 0.52856 0.52244 0.98989 0.0
C2443 C 0.54812 0.46835 0.02219 0.0
C2444 C 0.55538 0.45624 0.03652 0.0
C2445 C 0.54347 0.44093 0.04225 0.0
C2446 C 0.55009 0.42938 0.05586 0.0
C2447 C 0.56877 0.43285 0.06385 0.0
C2448 C 0.5807 0.44817 0.05813 0.0
C2449 C 0.57407 0.45982 0.04463 0.0
C2450 C 0.57039 0.53208 0.01863 0.0
C2451 C 0.55382 0.52243 0.07088 0.0
O2452 O 0.54907 0.57129 0.03729 0.0
O2453 O 0.52112 0.56239 0.04175 0.0
O2454 O 0.51982 0.51307 0.02573 0.0
O2455 O 0.51609 0.52851 0.05217 0.0
O2456 O 0.53236 0.53887 1.00274 0.0
O2457 O 0.52955 0.50547 0.99603 0.0
O2458 O 0.53311 0.47403 0.02527 0.0
O2459 O 0.5599 0.48235 0.01745 0.0
O2460 O 0.56258 0.53229 0.03403 0.0
O2461 O 0.5641 0.5156 0.00707 0.0
O2462 O 0.55042 0.50641 0.0576 0.0
O2463 O 0.55175 0.53939 0.06529 0.0
H2464 H 0.54147 0.58472 1.00297 0.0
H2465 H 0.53428 0.61218 0.98612 0.0
H2466 H 0.50581 0.62927 0.03376 0.0
H2467 H 0.51339 0.6022 0.05072 0.0
H2468 H 0.52904 0.43785 0.03616 0.0
H2469 H 0.54064 0.41745 0.05979 0.0
H2470 H 0.59514 0.45118 0.06417 0.0
H2471 H 0.58362 0.47158 0.04057 0.0
Tb2472 Tb 0.79112 0.25115 0.28167 0.0
Tb2473 Tb 0.78835 0.29497 0.28587 0.0
C2474 C 0.7987 0.21769 0.27794 0.0
C2475 C 0.81273 0.20652 0.27391 0.0
C2476 C 0.83012 0.21562 0.27117 0.0
C2477 C 0.84381 0.20465 0.27005 0.0
C2478 C 0.84032 0.18455 0.27191 0.0
C2479 C 0.82276 0.17558 0.27433 0.0
C2480 C 0.80914 0.18647 0.27532 0.0
C2481 C 0.78306 0.26547 0.31537 0.0
C2482 C 0.82679 0.28411 0.28606 0.0
C2483 C 0.78688 0.33008 0.29668 0.0
C2484 C 0.77396 0.34333 0.29222 0.0
C2485 C 0.7578 0.34207 0.3004 0.0
C2486 C 0.74617 0.3552 0.29663 0.0
C2487 C 0.75037 0.36987 0.28456 0.0
C2488 C 0.76649 0.37102 0.27634 0.0
C2489 C 0.77814 0.35799 0.28018 0.0
C2490 C 0.78303 0.2761 0.24904 0.0
C2491 C 0.75289 0.26191 0.27523 0.0
O2492 O 0.79003 0.22466 0.26303 0.0
O2493 O 0.80272 0.2299 0.29476 0.0
O2494 O 0.79428 0.27472 0.30608 0.0
O2495 O 0.77689 0.24784 0.30647 0.0
O2496 O 0.81872 0.26555 0.28038 0.0
O2497 O 0.81795 0.29799 0.29135 0.0
O2498 O 0.78173 0.31575 0.30674 0.0
O2499 O 0.79533 0.32458 0.28215 0.0
O2500 O 0.79359 0.2739 0.26408 0.0
O2501 O 0.77657 0.29162 0.25359 0.0
O2502 O 0.76049 0.27974 0.28475 0.0
O2503 O 0.76256 0.24895 0.26938 0.0
H2504 H 0.8332 0.23119 0.27039 0.0
H2505 H 0.85723 0.21197 0.26822 0.0
H2506 H 0.81951 0.16008 0.27544 0.0
H2507 H 0.79585 0.17927 0.27768 0.0
H2508 H 0.75415 0.33103 0.30982 0.0
H2509 H 0.73382 0.35379 0.30308 0.0
H2510 H 0.77033 0.38231 0.26725 0.0
H2511 H 0.79057 0.35953 0.27387 0.0
Tb2512 Tb 0.02453 0.52714 0.51589 0.0
Tb2513 Tb 0.0567 0.52816 0.54694 0.0
C2514 C 0.9933 0.51574 0.49549 0.0
C2515 C 0.97546 0.50989 0.5014 0.0
C2516 C 0.96434 0.49202 0.49211 0.0
C2517 C 0.94948 0.48376 0.50036 0.0
C2518 C 0.94549 0.49336 0.51791 0.0
C2519 C 0.95583 0.51183 0.52653 0.0
C2520 C 0.97081 0.52007 0.51832 0.0
C2521 C 0.04358 0.56218 0.52969 0.0
C2522 C 0.01995 0.52788 0.56417 0.0
C2523 C 0.08814 0.53871 0.56715 0.0
C2524 C 0.10569 0.54602 0.56108 0.0
C2525 C 0.1065 0.55814 0.54604 0.0
C2526 C 0.12306 0.56523 0.54028 0.0
C2527 C 0.13921 0.56024 0.5493 0.0
C2528 C 0.13832 0.54774 0.56409 0.0
C2529 C 0.12165 0.54068 0.56993 0.0
C2530 C 0.03861 0.49256 0.53132 0.0
C2531 C 0.06134 0.52764 0.49873 0.0
O2532 O 1.00451 0.50399 0.49969 0.0
O2533 O 1.00124 0.53428 0.50007 0.0
O2534 O 0.03997 0.5483 0.53964 0.0
O2535 O 0.0353 0.55696 0.51119 0.0
O2536 O 0.01249 0.52622 0.54466 0.0
O2537 O 0.03785 0.52921 0.56908 0.0
O2538 O 0.07634 0.55022 0.56545 0.0
O2539 O 0.0807 0.52037 0.56039 0.0
O2540 O 0.04179 0.50747 0.52271 0.0
O2541 O 0.04609 0.49776 0.55009 0.0
O2542 O 0.06886 0.53053 0.51832 0.0
O2543 O 0.0433 0.52499 0.49376 0.0
H2544 H 0.9678 0.48389 0.47918 0.0
H2545 H 0.94153 0.46947 0.49355 0.0
H2546 H 0.95289 0.51936 0.54012 0.0
H2547 H 0.97926 0.53386 0.52579 0.0
H2548 H 0.09435 0.56239 0.53887 0.0
H2549 H 0.12324 0.57512 0.52915 0.0
H2550 H 0.15048 0.54347 0.57118 0.0
H2551 H 0.12123 0.53114 0.5814 0.0
Tb2552 Tb 0.77128 0.77703 0.27872 0.0
Tb2553 Tb 0.81037 0.77058 0.28301 0.0
C2554 C 0.73802 0.77494 0.28176 0.0
C2555 C 0.72549 0.77744 0.29658 0.0
C2556 C 0.7164 0.76113 0.30405 0.0
C2557 C 0.703 0.76304 0.31606 0.0
C2558 C 0.69822 0.7813 0.32094 0.0
C2559 C 0.70749 0.79763 0.31364 0.0
C2560 C 0.72084 0.79572 0.30162 0.0
C2561 C 0.79551 0.80665 0.27194 0.0
C2562 C 0.79663 0.78382 0.32244 0.0
C2563 C 0.8432 0.76975 0.28017 0.0
C2564 C 0.85713 0.77228 0.26674 0.0
C2565 C 0.8626 0.79019 0.25974 0.0
C2566 C 0.87767 0.79314 0.24978 0.0
C2567 C 0.88778 0.77833 0.2466 0.0
C2568 C 0.8817 0.7601 0.25272 0.0
C2569 C 0.86664 0.75717 0.26272 0.0
C2570 C 0.78554 0.74123 0.28941 0.0
C2571 C 0.78598 0.76593 0.23964 0.0
O2572 O 0.74621 0.76 0.28195 0.0
O2573 O 0.74865 0.79064 0.27816 0.0
O2574 O 0.79804 0.79567 0.28517 0.0
O2575 O 0.77863 0.802 0.26298 0.0
O2576 O 0.78019 0.78195 0.31155 0.0
O2577 O 0.81113 0.78166 0.3143 0.0
O2578 O 0.83769 0.78534 0.28757 0.0
O2579 O 0.82992 0.75432 0.27554 0.0
O2580 O 0.7837 0.75223 0.27619 0.0
O2581 O 0.80209 0.74593 0.29916 0.0
O2582 O 0.80243 0.77108 0.25077 0.0
O2583 O 0.77098 0.76421 0.24775 0.0
H2584 H 0.71939 0.74675 0.30028 0.0
H2585 H 0.69637 0.75015 0.32152 0.0
H2586 H 0.70408 0.81189 0.31672 0.0
H2587 H 0.7272 0.80855 0.29585 0.0
H2588 H 0.85561 0.80217 0.2625 0.0
H2589 H 0.88167 0.80726 0.24498 0.0
H2590 H 0.88913 0.74839 0.25071 0.0
H2591 H 0.86287 0.74326 0.26806 0.0
Tb2592 Tb 0.80091 0.26883 0.76833 0.0
Tb2593 Tb 0.78071 0.28071 0.79524 0.0
C2594 C 0.81897 0.26354 0.74068 0.0
C2595 C 0.82569 0.27567 0.72629 0.0
C2596 C 0.8174 0.29123 0.72156 0.0
C2597 C 0.82042 0.29968 0.70459 0.0
C2598 C 0.83157 0.2924 0.6919 0.0
C2599 C 0.84219 0.27913 0.69865 0.0
C2600 C 0.83904 0.27055 0.71568 0.0
C2601 C 0.81719 0.26715 0.80538 0.0
C2602 C 0.80587 0.31526 0.78164 0.0
C2603 C 0.76222 0.28596 0.82245 0.0
C2604 C 0.75427 0.2731 0.83561 0.0
C2605 C 0.76233 0.25751 0.84072 0.0
C2606 C 0.75772 0.24816 0.85666 0.0
C2607 C 0.7452 0.25462 0.86804 0.0
C2608 C 0.73475 0.26767 0.86038 0.0
C2609 C 0.73954 0.2772 0.84441 0.0
C2610 C 0.76437 0.28192 0.75799 0.0
C2611 C 0.77592 0.23416 0.78218 0.0
O2612 O 0.80125 0.25829 0.7384 0.0
O2613 O 0.82636 0.26964 0.75935 0.0
O2614 O 0.80955 0.28077 0.79973 0.0
O2615 O 0.81423 0.25335 0.79034 0.0
O2616 O 0.80629 0.30132 0.76687 0.0
O2617 O 0.79767 0.30996 0.7966 0.0
O2618 O 0.78003 0.29017 0.82535 0.0
O2619 O 0.75518 0.28133 0.80353 0.0
O2620 O 0.77206 0.26849 0.76405 0.0
O2621 O 0.76783 0.29609 0.77272 0.0
O2622 O 0.77498 0.2482 0.79663 0.0
O2623 O 0.78445 0.23941 0.76743 0.0
H2624 H 0.8072 0.29554 0.72975 0.0
H2625 H 0.81203 0.30997 0.7002 0.0
H2626 H 0.85138 0.27376 0.68958 0.0
H2627 H 0.84592 0.25888 0.7196 0.0
H2628 H 0.77348 0.25381 0.83376 0.0
H2629 H 0.76595 0.2379 0.86149 0.0
H2630 H 0.72437 0.27223 0.86814 0.0
H2631 H 0.73271 0.28875 0.84001 0.0
Tb2632 Tb 0.77247 0.76415 0.77165 0.0
Tb2633 Tb 0.81071 0.78898 0.78863 0.0
C2634 C 0.73972 0.74798 0.76868 0.0
C2635 C 0.72519 0.75413 0.7784 0.0
C2636 C 0.72933 0.76414 0.79811 0.0
C2637 C 0.71566 0.77012 0.8074 0.0
C2638 C 0.69765 0.76645 0.7971 0.0
C2639 C 0.69358 0.75696 0.77716 0.0
C2640 C 0.7073 0.75076 0.76788 0.0
C2641 C 0.79094 0.77902 0.74484 0.0
C2642 C 0.77636 0.81121 0.78805 0.0
C2643 C 0.84195 0.80792 0.78819 0.0
C2644 C 0.86001 0.80309 0.79228 0.0
C2645 C 0.87435 0.81326 0.78432 0.0
C2646 C 0.89005 0.80563 0.78323 0.0
C2647 C 0.89147 0.78763 0.78995 0.0
C2648 C 0.87766 0.77831 0.79938 0.0
C2649 C 0.86202 0.78599 0.80052 0.0
C2650 C 0.79688 0.77129 0.81747 0.0
C2651 C 0.80634 0.74138 0.77548 0.0
O2652 O 0.75299 0.7434 0.78073 0.0
O2653 O 0.74569 0.75901 0.7558 0.0
O2654 O 0.79075 0.78671 0.76248 0.0
O2655 O 0.77968 0.76213 0.74132 0.0
O2656 O 0.76546 0.79352 0.78174 0.0
O2657 O 0.79453 0.81275 0.79132 0.0
O2658 O 0.83146 0.79694 0.77237 0.0
O2659 O 0.83342 0.81012 0.80355 0.0
O2660 O 0.78989 0.77127 0.79947 0.0
O2661 O 0.81305 0.78219 0.81985 0.0
O2662 O 0.81742 0.75913 0.77988 0.0
O2663 O 0.78823 0.74003 0.77272 0.0
H2664 H 0.74314 0.7673 0.80639 0.0
H2665 H 0.71917 0.77769 0.82267 0.0
H2666 H 0.67976 0.75397 0.76894 0.0
H2667 H 0.70395 0.7433 0.75257 0.0
H2668 H 0.87287 0.82633 0.77763 0.0
H2669 H 0.90037 0.813 0.77567 0.0
H2670 H 0.87847 0.76447 0.80476 0.0
H2671 H 0.85096 0.77784 0.80653 0.0
Tb2672 Tb 0.52576 0.51879 0.52336 0.0
Tb2673 Tb 0.56142 0.53843 0.5466 0.0
C2674 C 0.49207 0.5089 0.5109 0.0
C2675 C 0.4777 0.52031 0.511 0.0
C2676 C 0.48064 0.53774 0.52444 0.0
C2677 C 0.46705 0.54862 0.52491 0.0
C2678 C 0.45021 0.54216 0.51207 0.0
C2679 C 0.44728 0.52476 0.49851 0.0
C2680 C 0.46104 0.51392 0.49792 0.0
C2681 C 0.55269 0.52021 0.50227 0.0
C2682 C 0.53813 0.5661 0.52826 0.0
C2683 C 0.59475 0.54739 0.56037 0.0
C2684 C 0.60846 0.53502 0.55909 0.0
C2685 C 0.61406 0.53026 0.54064 0.0
C2686 C 0.62324 0.51494 0.53795 0.0
C2687 C 0.62716 0.5042 0.55368 0.0
C2688 C 0.62286 0.50992 0.57257 0.0
C2689 C 0.61363 0.52528 0.57528 0.0
C2690 C 0.53432 0.53869 0.56695 0.0
C2691 C 0.55009 0.49151 0.5408 0.0
O2692 O 0.49989 0.50663 0.52869 0.0
O2693 O 0.5039 0.5138 0.49926 0.0
O2694 O 0.55045 0.53322 0.51549 0.0
O2695 O 0.53886 0.50566 0.49982 0.0
O2696 O 0.52453 0.55051 0.52412 0.0
O2697 O 0.55476 0.56455 0.53592 0.0
O2698 O 0.58755 0.55207 0.54332 0.0
O2699 O 0.58241 0.54183 0.5713 0.0
O2700 O 0.53646 0.52458 0.55485 0.0
O2701 O 0.54817 0.55297 0.56861 0.0
O2702 O 0.56343 0.50713 0.54316 0.0
O2703 O 0.53306 0.49279 0.53456 0.0
H2704 H 0.49331 0.54276 0.53491 0.0
H2705 H 0.46953 0.56176 0.53579 0.0
H2706 H 0.43438 0.51954 0.48847 0.0
H2707 H 0.45862 0.50049 0.48744 0.0
H2708 H 0.61039 0.53751 0.52784 0.0
H2709 H 0.6263 0.5108 0.52318 0.0
H2710 H 0.62608 0.50212 0.58506 0.0
H2711 H 0.60961 0.52876 0.5897 0.0
Tb2712 Tb 0.05781 0.52443 0.02197 0.0
Tb2713 Tb 0.02212 0.52477 0.03826 0.0
C2714 C 0.08884 0.51958 0.01498 0.0
C2715 C 0.10253 0.50703 0.01858 0.0
C2716 C 0.10014 0.4917 0.03018 0.0
C2717 C 0.11392 0.48088 0.03414 0.0
C2718 C 0.1304 0.4851 0.02655 0.0
C2719 C 0.13246 0.50023 0.01458 0.0
C2720 C 0.11873 0.51102 0.0107 0.0
C2721 C 0.03057 0.53228 0.9952 0.0
C2722 C 0.03228 0.48383 0.02617 0.0
C2723 C 0.98937 0.52687 0.04099 0.0
C2724 C 0.97527 0.53899 0.03738 0.0
C2725 C 0.97685 0.55391 0.02522 0.0
C2726 C 0.9634 0.56539 0.02281 0.0
C2727 C 0.94805 0.5623 0.03256 0.0
C2728 C 0.9466 0.54721 0.04463 0.0
C2729 C 0.96 0.53577 0.04698 0.0
C2730 C 0.0488 0.52171 0.06893 0.0
C2731 C 0.04977 0.56445 0.03947 0.0
O2732 O 0.08631 0.53089 0.03057 0.0
O2733 O 0.07349 0.51179 1.0029 0.0
O2734 O 0.02928 0.52062 0.00831 0.0
O2735 O 0.04787 0.53936 0.99672 0.0
O2736 O 0.04805 0.49328 0.02268 0.0
O2737 O 0.01964 0.49297 0.03205 0.0
O2738 O 0.99417 0.51754 0.02546 0.0
O2739 O 1.00336 0.53431 0.0551 0.0
O2740 O 0.04963 0.52289 0.0505 0.0
O2741 O 0.032 0.52224 0.07028 0.0
O2742 O 0.03238 0.55576 0.03659 0.0
O2743 O 0.06269 0.55436 0.03725 0.0
H2744 H 0.08773 0.48824 0.03635 0.0
H2745 H 0.11164 0.46921 0.04318 0.0
H2746 H 0.14494 0.50418 0.00868 0.0
H2747 H 0.12094 0.52281 1.00176 0.0
H2748 H 0.9885 0.55675 0.01766 0.0
H2749 H 0.96502 0.57663 0.01316 0.0
H2750 H 0.9353 0.54447 0.0527 0.0
H2751 H 0.9585 0.52445 0.05657 0.0
H2752 H 0.04244 0.17107 0.9964 0.0
H2753 H 0.99011 0.151 0.95693 0.0
H2754 H 0.98748 0.11893 0.96854 0.0
H2755 H 0.05808 0.12532 0.98808 0.0
H2756 H 0.06935 0.12683 0.01363 0.0
H2757 H 0.06705 0.14891 1.00315 0.0
H2758 H 0.05117 0.16003 0.03238 0.0
H2759 H 0.05333 0.13791 0.04288 0.0
H2760 H 0.03124 0.14414 0.03725 0.0
H2761 H 0.98958 0.08914 0.98462 0.0
H2762 H 0.9978 0.06204 1.00143 0.0
H2763 H 0.05006 0.09887 0.02908 0.0
C2764 C 0.03045 0.15995 0.9901 0.0
C2765 C 0.01626 0.1641 0.97595 0.0
C2766 C 1.00091 0.14882 0.96823 0.0
C2767 C 0.99932 0.13033 0.97464 0.0
C2768 C 0.01327 0.12691 0.98872 0.0
C2769 C 0.02868 0.14113 0.99624 0.0
C2770 C 0.04186 0.13309 0.01083 0.0
C2771 C 0.06017 0.13357 1.00347 0.0
C2772 C 0.04456 0.14447 0.03209 0.0
C2773 C 0.03154 0.11207 0.00997 0.0
C2774 C 0.01493 0.1091 0.99738 0.0
C2775 C 1.00261 0.09126 0.99441 0.0
C2776 C 1.00743 0.07591 1.0042 0.0
C2777 C 0.02462 0.07809 0.0167 0.0
C2778 C 0.03682 0.0966 0.01966 0.0
H2779 H 0.17064 0.80987 0.21005 0.0
H2780 H 0.15362 0.7481 0.18579 0.0
H2781 H 0.18317 0.74221 0.20142 0.0
H2782 H 0.21857 0.81461 0.20591 0.0
H2783 H 0.22645 0.83069 0.22939 0.0
H2784 H 0.20442 0.83055 0.21503 0.0
H2785 H 0.18906 0.82312 0.24571 0.0
H2786 H 0.21105 0.82356 0.26021 0.0
H2787 H 0.19303 0.80232 0.25781 0.0
H2788 H 0.21532 0.74284 0.22019 0.0
H2789 H 0.24461 0.74939 0.2441 0.0
H2790 H 0.23963 0.80976 0.25825 0.0
C2791 C 0.17298 0.79505 0.20802 0.0
C2792 C 0.15958 0.7796 0.19613 0.0
C2793 C 0.1636 0.76047 0.1941 0.0
C2794 C 0.18045 0.75689 0.20307 0.0
C2795 C 0.19337 0.77248 0.21434 0.0
C2796 C 0.18971 0.79114 0.21708 0.0
C2797 C 0.20551 0.80513 0.23087 0.0
C2798 C 0.21425 0.8212 0.21963 0.0
C2799 C 0.19929 0.81405 0.24977 0.0
C2800 C 0.21838 0.79136 0.23586 0.0
C2801 C 0.21138 0.77266 0.22577 0.0
C2802 C 0.22092 0.75747 0.22808 0.0
C2803 C 0.23768 0.76134 0.2415 0.0
C2804 C 0.24458 0.78014 0.25274 0.0
C2805 C 0.23485 0.79532 0.24959 0.0
H2806 H 0.52748 0.86939 0.51194 0.0
H2807 H 0.52978 0.87199 0.44888 0.0
H2808 H 0.52825 0.90694 0.45381 0.0
H2809 H 0.49652 0.90341 0.51745 0.0
H2810 H 0.50799 0.91498 0.54218 0.0
H2811 H 0.50848 0.88975 0.53391 0.0
H2812 H 0.54375 0.89777 0.54135 0.0
H2813 H 0.54336 0.92296 0.54981 0.0
H2814 H 0.55594 0.91709 0.53017 0.0
H2815 H 0.52684 0.94136 0.46498 0.0
H2816 H 0.52827 0.9745 0.48264 0.0
H2817 H 0.5278 0.95135 0.53904 0.0
C2818 C 0.52757 0.87735 0.4992 0.0
C2819 C 0.52885 0.8679 0.48 0.0
C2820 C 0.52907 0.87889 0.46375 0.0
C2821 C 0.52804 0.89875 0.46636 0.0
C2822 C 0.52685 0.90763 0.48537 0.0
C2823 C 0.52679 0.89744 0.50161 0.0
C2824 C 0.52628 0.91103 0.52059 0.0
C2825 C 0.50878 0.90439 0.52903 0.0
C2826 C 0.54335 0.91228 0.53641 0.0
C2827 C 0.52623 0.9304 0.51245 0.0
C2828 C 0.5263 0.9279 0.492 0.0
C2829 C 0.52665 0.94349 0.48095 0.0
C2830 C 0.52735 0.96223 0.49107 0.0
C2831 C 0.52773 0.96537 0.51204 0.0
C2832 C 0.52703 0.94922 0.5229 0.0
H2833 H 0.46564 0.25989 0.68105 0.0
H2834 H 0.49624 0.31576 0.71371 0.0
H2835 H 0.47127 0.31829 0.73257 0.0
H2836 H 0.42119 0.27203 0.6774 0.0
H2837 H 0.40965 0.24832 0.68144 0.0
H2838 H 0.42993 0.25046 0.67023 0.0
H2839 H 0.44501 0.23309 0.69779 0.0
H2840 H 0.42474 0.23084 0.70904 0.0
H2841 H 0.44651 0.24268 0.72385 0.0
H2842 H 0.44302 0.31569 0.74753 0.0
H2843 H 0.41352 0.30736 0.75882 0.0
H2844 H 0.4005 0.2526 0.71792 0.0
C2845 C 0.46719 0.27258 0.69229 0.0
C2846 C 0.48302 0.2878 0.69553 0.0
C2847 C 0.48424 0.30413 0.7104 0.0
C2848 C 0.47012 0.30566 0.72138 0.0
C2849 C 0.45471 0.29067 0.71761 0.0
C2850 C 0.45313 0.27434 0.70356 0.0
C2851 C 0.43496 0.26037 0.70265 0.0
C2852 C 0.42324 0.25764 0.68168 0.0
C2853 C 0.43799 0.24057 0.7087 0.0
C2854 C 0.42662 0.27151 0.7183 0.0
C2855 C 0.43832 0.28897 0.72663 0.0
C2856 C 0.43375 0.30205 0.74111 0.0
C2857 C 0.41682 0.29723 0.74733 0.0
C2858 C 0.40446 0.27941 0.73921 0.0
C2859 C 0.40959 0.26632 0.72451 0.0
H2860 H 0.06044 0.86032 0.6383 0.0
H2861 H 0.09383 0.82797 0.60639 0.0
H2862 H 0.09805 0.85361 0.58441 0.0
H2863 H 0.03624 0.87308 0.59729 0.0
H2864 H 0.03508 0.89722 0.6087 0.0
H2865 H 0.03755 0.87836 0.6241 0.0
H2866 H 0.06671 0.90056 0.64557 0.0
H2867 H 0.06431 0.91957 0.63017 0.0
H2868 H 0.08524 0.91057 0.63347 0.0
H2869 H 0.09498 0.88029 0.56305 0.0
H2870 H 0.08426 0.90523 0.54384 0.0
H2871 H 0.05275 0.91971 0.5897 0.0
C2872 C 0.0689 0.85882 0.6269 0.0
C2873 C 0.07684 0.84223 0.62404 0.0
C2874 C 0.08784 0.84074 0.609 0.0
C2875 C 0.09031 0.85522 0.59646 0.0
C2876 C 0.08189 0.87119 0.59936 0.0
C2877 C 0.07153 0.87313 0.61435 0.0
C2878 C 0.0625 0.89061 0.61322 0.0
C2879 C 0.04161 0.88443 0.61066 0.0
C2880 C 0.07015 0.90625 0.6317 0.0
C2881 C 0.06844 0.89746 0.5945 0.0
C2882 C 0.08 0.88644 0.58698 0.0
C2883 C 0.0862 0.88925 0.56898 0.0
C2884 C 0.08007 0.9034 0.55818 0.0
C2885 C 0.06767 0.91423 0.56533 0.0
C2886 C 0.06221 0.91154 0.58394 0.0
H2887 H 0.4281 0.79582 0.83096 0.0
H2888 H 0.43694 0.76446 0.7758 0.0
H2889 H 0.40587 0.76635 0.75931 0.0
H2890 H 0.3833 0.77325 0.829 0.0
H2891 H 0.37609 0.79489 0.83917 0.0
H2892 H 0.39946 0.79269 0.8454 0.0
H2893 H 0.40976 0.82562 0.83238 0.0
H2894 H 0.38632 0.82777 0.82585 0.0
H2895 H 0.40086 0.82858 0.80708 0.0
H2896 H 0.37287 0.7675 0.75104 0.0
H2897 H 0.34032 0.76792 0.75126 0.0
H2898 H 0.35398 0.80097 0.81105 0.0
C2899 C 0.42347 0.78956 0.81533 0.0
C2900 C 0.43451 0.77986 0.80451 0.0
C2901 C 0.42839 0.77186 0.78415 0.0
C2902 C 0.41093 0.77301 0.77473 0.0
C2903 C 0.40022 0.78263 0.78589 0.0
C2904 C 0.40633 0.79091 0.8057 0.0
C2905 C 0.39187 0.79926 0.81485 0.0
C2906 C 0.38742 0.78942 0.83317 0.0
C2907 C 0.39754 0.82164 0.82036 0.0
C2908 C 0.37628 0.7936 0.79739 0.0
C2909 C 0.38141 0.78418 0.78074 0.0
C2910 C 0.3688 0.77535 0.76371 0.0
C2911 C 0.35042 0.77564 0.76397 0.0
C2912 C 0.34501 0.78488 0.78102 0.0
C2913 C 0.35806 0.7945 0.79764 0.0
H2914 H 0.54985 0.16598 0.08645 0.0
H2915 H 0.58282 0.15412 0.13985 0.0
H2916 H 0.58805 0.1244 0.12072 0.0
H2917 H 0.52708 0.11716 0.07099 0.0
H2918 H 0.52586 0.11824 0.04448 0.0
H2919 H 0.52688 0.14014 0.06153 0.0
H2920 H 0.5553 0.15712 0.04839 0.0
H2921 H 0.55448 0.13512 0.03145 0.0
H2922 H 0.57498 0.14592 0.04913 0.0
H2923 H 0.58732 0.09456 0.09744 0.0
H2924 H 0.57861 0.06511 0.07208 0.0
H2925 H 0.54558 0.09512 0.0336 0.0
C2926 C 0.55827 0.15723 0.09412 0.0
C2927 C 0.56617 0.1627 0.11464 0.0
C2928 C 0.57705 0.1507 0.12404 0.0
C2929 C 0.58007 0.1337 0.1133 0.0
C2930 C 0.57211 0.12878 0.09316 0.0
C2931 C 0.56131 0.14006 0.08366 0.0
C2932 C 0.5529 0.13039 0.06245 0.0
C2933 C 0.53194 0.12623 0.05972 0.0
C2934 C 0.55983 0.14289 0.04694 0.0
C2935 C 0.56021 0.11161 0.06178 0.0
C2936 C 0.57152 0.1112 0.07957 0.0
C2937 C 0.57874 0.09482 0.08331 0.0
C2938 C 0.57374 0.07813 0.0688 0.0
C2939 C 0.56167 0.07791 0.05081 0.0
C2940 C 0.55527 0.09507 0.04699 0.0
H2941 H 0.11995 0.31265 0.32686 0.0
H2942 H 0.09197 0.25505 0.33473 0.0
H2943 H 0.11472 0.23997 0.31952 0.0
H2944 H 0.13118 0.29782 0.27887 0.0
H2945 H 0.1533 0.31382 0.28339 0.0
H2946 H 0.13539 0.32049 0.29581 0.0
H2947 H 0.15603 0.32386 0.33044 0.0
H2948 H 0.17408 0.31743 0.31813 0.0
H2949 H 0.16621 0.3036 0.33706 0.0
H2950 H 0.1392 0.23098 0.30273 0.0
H2951 H 0.16605 0.22841 0.28689 0.0
H2952 H 0.17842 0.29166 0.28898 0.0
C2953 C 0.11887 0.29692 0.32555 0.0
C2954 C 0.10436 0.28488 0.33184 0.0
C2955 C 0.10307 0.26436 0.32984 0.0
C2956 C 0.11585 0.25571 0.32125 0.0
C2957 C 0.12978 0.26783 0.3147 0.0
C2958 C 0.13152 0.28798 0.31683 0.0
C2959 C 0.14768 0.29742 0.3081 0.0
C2960 C 0.14151 0.30801 0.2905 0.0
C2961 C 0.16184 0.3114 0.32441 0.0
C2962 C 0.15471 0.2794 0.30088 0.0
C2963 C 0.14407 0.26253 0.30477 0.0
C2964 C 0.14767 0.24404 0.29952 0.0
C2965 C 0.16282 0.24272 0.29034 0.0
C2966 C 0.17419 0.25981 0.28654 0.0
C2967 C 0.16995 0.27837 0.29173 0.0
H2968 H 0.98117 0.0369 0.16268 0.0
H2969 H 0.99595 0.98084 0.17073 0.0
H2970 H 1.00953 0.98113 0.14008 0.0
H2971 H 0.97016 0.02829 0.10868 0.0
H2972 H 0.98002 0.05284 0.10528 0.0
H2973 H 0.97114 0.04857 0.12793 0.0
H2974 H 1.00226 0.06578 0.14936 0.0
H2975 H 1.01121 0.07023 0.12679 0.0
H2976 H 0.02262 0.05741 0.14465 0.0
H2977 H 0.02112 0.98671 0.10867 0.0
H2978 H 0.0315 0.99816 0.07869 0.0
H2979 H 1.01064 0.05126 0.09019 0.0
C2980 C 0.98738 0.02475 0.15811 0.0
C2981 C 0.98715 1.00866 0.16916 0.0
C2982 C 0.99542 0.99308 0.16243 0.0
C2983 C 1.00333 0.99317 0.14505 0.0
C2984 C 1.00309 1.00902 0.13446 0.0
C2985 C 0.99549 0.02463 0.14072 0.0
C2986 C 0.99736 0.0399 0.12647 0.0
C2987 C 0.97855 0.04255 0.1165 0.0
C2988 C 1.00906 0.05949 0.13748 0.0
C2989 C 1.00713 0.03032 0.11123 0.0
C2990 C 1.01016 0.01246 0.11621 0.0
C2991 C 0.01874 1.00062 0.10457 0.0
C2992 C 0.02441 1.00715 0.08739 0.0
C2993 C 0.02155 0.02536 0.08181 0.0
C2994 C 0.0129 0.03721 0.09402 0.0
H2995 H 0.31265 0.76592 0.47395 0.0
H2996 H 0.31232 0.70356 0.46322 0.0
H2997 H 0.28649 0.69936 0.43546 0.0
H2998 H 0.26359 0.76058 0.46572 0.0
H2999 H 0.2641 0.78243 0.45398 0.0
H3000 H 0.28291 0.78066 0.47281 0.0
H3001 H 0.30581 0.78749 0.44814 0.0
H3002 H 0.28723 0.79048 0.42989 0.0
H3003 H 0.30107 0.77304 0.4236 0.0
H3004 H 0.26182 0.70253 0.40772 0.0
H3005 H 0.24495 0.71424 0.37915 0.0
H3006 H 0.25828 0.77309 0.41193 0.0
C3007 C 0.30717 0.75136 0.46581 0.0
C3008 C 0.31455 0.73515 0.47081 0.0
C3009 C 0.30717 0.71637 0.45947 0.0
C3010 C 0.29219 0.71371 0.44397 0.0
C3011 C 0.28455 0.72986 0.44034 0.0
C3012 C 0.29195 0.74833 0.4508 0.0
C3013 C 0.28185 0.7635 0.44353 0.0
C3014 C 0.27256 0.7723 0.46 0.0
C3015 C 0.29474 0.77955 0.43581 0.0
C3016 C 0.26798 0.75084 0.42672 0.0
C3017 C 0.26953 0.73139 0.42524 0.0
C3018 C 0.26016 0.71761 0.40894 0.0
C3019 C 0.25038 0.72431 0.39289 0.0
C3020 C 0.25044 0.74458 0.39337 0.0
C3021 C 0.25767 0.75747 0.41131 0.0
H3022 H 0.59011 0.02233 0.68806 0.0
H3023 H 0.63159 0.99301 0.66843 0.0
H3024 H 0.61885 0.99411 0.63316 0.0
H3025 H 0.55339 0.99769 0.64804 0.0
H3026 H 0.54339 0.01893 0.6455 0.0
H3027 H 0.55615 0.01651 0.66929 0.0
H3028 H 0.57705 0.05013 0.66972 0.0
H3029 H 0.56437 0.05261 0.64588 0.0
H3030 H 0.58868 0.05434 0.64882 0.0
H3031 H 0.60112 0.99911 0.59807 0.0
H3032 H 0.57944 1.00487 0.56914 0.0
H3033 H 0.54851 0.02943 0.61068 0.0
C3034 C 0.59667 0.0162 0.67644 0.0
C3035 C 0.61212 1.00743 0.68177 0.0
C3036 C 0.61975 0.99956 0.66546 0.0
C3037 C 0.6126 1.00025 0.64507 0.0
C3038 C 0.59745 1.00883 0.64043 0.0
C3039 C 0.58949 0.01656 0.65576 0.0
C3040 C 0.57296 0.02447 0.6467 0.0
C3041 C 0.55543 0.01376 0.65274 0.0
C3042 C 0.57594 0.04671 0.65317 0.0
C3043 C 0.57264 0.01976 0.62401 0.0
C3044 C 0.58711 0.01106 0.62063 0.0
C3045 C 0.58978 1.00588 0.60081 0.0
C3046 C 0.57741 1.00936 0.58427 0.0
C3047 C 0.56211 0.01775 0.58719 0.0
C3048 C 0.55995 0.02299 0.60759 0.0
H3049 H 0.28231 0.33182 0.93012 0.0
H3050 H 0.32187 0.30134 0.95855 0.0
H3051 H 0.32398 0.28447 0.92534 0.0
H3052 H 0.25915 0.29091 0.89025 0.0
H3053 H 0.25592 0.30703 0.87176 0.0
H3054 H 0.25651 0.31557 0.8979 0.0
H3055 H 0.28247 0.34477 0.89642 0.0
H3056 H 0.28208 0.3362 0.87036 0.0
H3057 H 0.30301 0.34005 0.88808 0.0
H3058 H 0.3241 0.27336 0.88882 0.0
H3059 H 0.32031 0.26691 0.85174 0.0
H3060 H 0.27969 0.30333 0.84705 0.0
C3061 C 0.29109 0.32125 0.92941 0.0
C3062 C 0.302 0.318 0.94699 0.0
C3063 C 0.31357 0.30429 0.94531 0.0
C3064 C 0.3148 0.29456 0.92651 0.0
C3065 C 0.30427 0.29852 0.90945 0.0
C3066 C 0.29246 0.31135 0.91073 0.0
C3067 C 0.28321 0.31358 0.89 0.0
C3068 C 0.26246 0.30633 0.88733 0.0
C3069 C 0.28798 0.33492 0.88599 0.0
C3070 C 0.29182 0.30019 0.87691 0.0
C3071 C 0.304 0.29171 0.88841 0.0
C3072 C 0.31442 0.27971 0.87966 0.0
C3073 C 0.31227 0.27622 0.8586 0.0
C3074 C 0.29966 0.28451 0.84654 0.0
C3075 C 0.28926 0.29656 0.85589 0.0
H3076 H 0.99273 0.99821 0.37643 0.0
H3077 H 1.01003 0.05915 0.36917 0.0
H3078 H 0.02206 0.06721 0.40551 0.0
H3079 H 0.97841 1.00677 0.42313 0.0
H3080 H 0.98656 0.98663 0.43317 0.0
H3081 H 0.97996 0.98545 0.40646 0.0
H3082 H 1.01176 0.97934 0.40097 0.0
H3083 H 0.0184 0.98031 0.42766 0.0
H3084 H 0.03194 0.9963 0.41412 0.0
H3085 H 0.03062 0.06895 0.44313 0.0
H3086 H 0.03677 0.06382 0.47861 0.0
H3087 H 0.01493 1.00152 0.461 0.0
C3088 C 0.99938 0.01319 0.38234 0.0
C3089 C 1.00036 0.02804 0.36983 0.0
C3090 C 1.00887 0.04753 0.37841 0.0
C3091 C 0.01583 0.05225 0.39905 0.0
C3092 C 0.01433 0.03731 0.41096 0.0
C3093 C 1.00648 0.01814 0.40288 0.0
C3094 C 1.00627 1.00487 0.419 0.0
C3095 C 0.98663 0.99538 0.42052 0.0
C3096 C 0.01778 0.98928 0.41521 0.0
C3097 C 0.01509 0.01959 0.43743 0.0
C3098 C 0.01958 0.03824 0.4325 0.0
C3099 C 0.02732 0.05436 0.44712 0.0
C3100 C 0.03069 0.0513 0.46727 0.0
C3101 C 0.02642 0.03224 0.47264 0.0
C3102 C 0.01851 0.01624 0.45743 0.0
H3103 H 0.33938 0.77662 0.6677 0.0
H3104 H 0.32916 0.71346 0.66636 0.0
H3105 H 0.30731 0.71591 0.68943 0.0
H3106 H 0.33421 0.78834 0.72161 0.0
H3107 H 0.32388 0.80876 0.71601 0.0
H3108 H 0.34051 0.80177 0.70176 0.0
H3109 H 0.31694 0.79917 0.66928 0.0
H3110 H 0.2998 0.8048 0.68354 0.0
H3111 H 0.2953 0.78243 0.66609 0.0
H3112 H 0.28313 0.72423 0.7075 0.0
H3113 H 0.26605 0.73949 0.73098 0.0
H3114 H 0.29209 0.79707 0.72123 0.0
C3115 C 0.33308 0.76344 0.67296 0.0
C3116 C 0.33583 0.74488 0.66522 0.0
C3117 C 0.32738 0.72787 0.67229 0.0
C3118 C 0.31465 0.72904 0.68505 0.0
C3119 C 0.31084 0.74733 0.69072 0.0
C3120 C 0.32038 0.76434 0.68577 0.0
C3121 C 0.3137 0.78214 0.69411 0.0
C3122 C 0.32897 0.79606 0.70928 0.0
C3123 C 0.30599 0.79275 0.67724 0.0
C3124 C 0.29872 0.77236 0.70424 0.0
C3125 C 0.29704 0.75223 0.70163 0.0
C3126 C 0.28441 0.73999 0.70986 0.0
C3127 C 0.27452 0.74872 0.72281 0.0
C3128 C 0.27791 0.7693 0.72772 0.0
C3129 C 0.28899 0.78127 0.7172 0.0
H3130 H 0.58991 1.00087 0.88768 0.0
H3131 H 0.64365 0.03514 0.9133 0.0
H3132 H 0.6337 0.04084 0.94596 0.0
H3133 H 0.56478 0.03178 0.91552 0.0
H3134 H 0.54758 0.01181 0.9194 0.0
H3135 H 0.55876 1.0095 0.89784 0.0
H3136 H 0.56829 0.97803 0.90823 0.0
H3137 H 0.55715 0.98027 0.92983 0.0
H3138 H 0.58087 0.97871 0.93303 0.0
H3139 H 0.61825 0.04235 0.97756 0.0
H3140 H 0.5985 0.04138 1.00342 0.0
H3141 H 0.55312 1.00835 0.95902 0.0
C3142 C 0.59967 1.00951 0.90014 0.0
C3143 C 0.6179 0.01753 0.89715 0.0
C3144 C 0.62973 0.02887 0.91438 0.0
C3145 C 0.62415 0.03215 0.93334 0.0
C3146 C 0.60632 0.02431 0.93567 0.0
C3147 C 0.59413 0.0133 0.91947 0.0
C3148 C 0.57551 1.00715 0.92623 0.0
C3149 C 0.56078 0.01556 0.91401 0.0
C3150 C 0.57013 0.9847 0.9242 0.0
C3151 C 0.57914 0.01639 0.94857 0.0
C3152 C 0.59716 0.02598 0.95366 0.0
C3153 C 0.6041 0.035 0.97347 0.0
C3154 C 0.59263 0.03435 0.98828 0.0
C3155 C 0.57388 0.02509 0.98382 0.0
C3156 C 0.56718 0.01597 0.96333 0.0
H3157 H 0.29332 0.30928 0.1342 0.0
H3158 H 0.3218 0.36742 0.16283 0.0
H3159 H 0.32151 0.35665 0.19602 0.0
H3160 H 0.26419 0.30021 0.17131 0.0
H3161 H 0.26518 0.27463 0.17026 0.0
H3162 H 0.2677 0.28669 0.14852 0.0
H3163 H 0.29857 0.27606 0.14723 0.0
H3164 H 0.29616 0.26401 0.16902 0.0
H3165 H 0.31622 0.28237 0.16911 0.0
H3166 H 0.31722 0.34029 0.22634 0.0
H3167 H 0.30988 0.31908 0.25176 0.0
H3168 H 0.2851 0.27073 0.20445 0.0
C3169 C 0.29946 0.31975 0.14745 0.0
C3170 C 0.30775 0.33925 0.14572 0.0
C3171 C 0.31568 0.35237 0.16356 0.0
C3172 C 0.31548 0.34641 0.18257 0.0
C3173 C 0.30735 0.32717 0.18374 0.0
C3174 C 0.29952 0.31397 0.16669 0.0
C3175 C 0.29169 0.29412 0.17234 0.0
C3176 C 0.27096 0.28859 0.16518 0.0
C3177 C 0.30123 0.2782 0.16392 0.0
C3178 C 0.29634 0.29829 0.19518 0.0
C3179 C 0.30529 0.31751 0.20136 0.0
C3180 C 0.31042 0.32515 0.22166 0.0
C3181 C 0.30627 0.31292 0.23604 0.0
C3182 C 0.29725 0.29309 0.23023 0.0
C3183 C 0.2923 0.2857 0.20944 0.0
H3184 H 0.17109 0.91495 0.03354 0.0
H3185 H 0.21322 0.95083 0.00917 0.0
H3186 H 0.20135 0.98027 0.01954 0.0
H3187 H 0.13553 0.94045 0.01832 0.0
H3188 H 0.1255 0.93791 0.04059 0.0
H3189 H 0.13766 0.91986 0.03153 0.0
H3190 H 0.1585 0.92553 0.06636 0.0
H3191 H 0.14657 0.94387 0.07537 0.0
H3192 H 0.17094 0.94988 0.07673 0.0
H3193 H 0.18521 1.00557 0.03248 0.0
H3194 H 0.16324 0.02482 0.04349 0.0
H3195 H 0.13172 0.97255 0.0596 0.0
C3196 C 0.17778 0.92903 0.03045 0.0
C3197 C 0.193 0.93073 0.02059 0.0
C3198 C 0.20138 0.94928 0.01653 0.0
C3199 C 0.19488 0.96607 0.02254 0.0
C3200 C 0.18004 0.96397 0.03255 0.0
C3201 C 0.17142 0.94592 0.03624 0.0
C3202 C 0.15524 0.94761 0.04648 0.0
C3203 C 0.13743 0.93577 0.03345 0.0
C3204 C 0.15799 0.94135 0.06748 0.0
C3205 C 0.15603 0.96943 0.04776 0.0
C3206 C 0.1706 0.97862 0.03991 0.0
C3207 C 0.17381 0.99863 0.03881 0.0
C3208 C 0.1614 1.00946 0.04527 0.0
C3209 C 0.14596 1.00014 0.05251 0.0
C3210 C 0.14353 0.98 0.05425 0.0
H3211 H 0.66793 0.60935 0.03959 0.0
H3212 H 0.67217 0.58647 0.97865 0.0
H3213 H 0.64165 0.56621 0.97457 0.0
H3214 H 0.64467 0.56292 0.0513 0.0
H3215 H 0.63003 0.57356 0.06608 0.0
H3216 H 0.65208 0.58756 0.06446 0.0
H3217 H 0.63687 0.61517 0.05197 0.0
H3218 H 0.61475 0.60119 0.05343 0.0
H3219 H 0.61915 0.60951 0.03016 0.0
H3220 H 0.61101 0.54891 0.97588 0.0
H3221 H 0.5824 0.53181 0.98368 0.0
H3222 H 0.59652 0.56229 0.04489 0.0
C3223 C 0.66249 0.60006 0.02539 0.0
C3224 C 0.67262 0.60016 0.00923 0.0
C3225 C 0.66476 0.58752 0.99104 0.0
C3226 C 0.64734 0.57572 0.98859 0.0
C3227 C 0.63771 0.57627 1.0045 0.0
C3228 C 0.64495 0.58783 0.02269 0.0
C3229 C 0.63156 0.58469 0.03745 0.0
C3230 C 0.6401 0.5767 0.05592 0.0
C3231 C 0.62521 0.60378 0.04362 0.0
C3232 C 0.61586 0.56939 0.02468 0.0
C3233 C 0.61983 0.56518 1.00565 0.0
C3234 C 0.60781 0.55194 0.99078 0.0
C3235 C 0.59149 0.54226 0.99544 0.0
C3236 C 0.58708 0.5454 0.01498 0.0
C3237 C 0.59938 0.55951 0.02981 0.0
H3238 H 0.69354 0.45153 0.31466 0.0
H3239 H 0.69023 0.46403 0.25335 0.0
H3240 H 0.70535 0.43654 0.2448 0.0
H3241 H 0.73747 0.44038 0.31918 0.0
H3242 H 0.73277 0.42094 0.33405 0.0
H3243 H 0.72033 0.44052 0.33499 0.0
H3244 H 0.68985 0.41524 0.32507 0.0
H3245 H 0.70222 0.39555 0.32411 0.0
H3246 H 0.68619 0.39778 0.30254 0.0
H3247 H 0.7223 0.40886 0.2433 0.0
H3248 H 0.74037 0.38341 0.24912 0.0
H3249 H 0.73319 0.38899 0.31152 0.0
C3250 C 0.69575 0.44828 0.29937 0.0
C3251 C 0.69074 0.45999 0.28468 0.0
C3252 C 0.69413 0.45542 0.26491 0.0
C3253 C 0.70259 0.43974 0.25987 0.0
C3254 C 0.70761 0.42868 0.27476 0.0
C3255 C 0.70431 0.43271 0.2941 0.0
C3256 C 0.71197 0.4192 0.30751 0.0
C3257 C 0.7265 0.43097 0.32496 0.0
C3258 C 0.69664 0.40617 0.31526 0.0
C3259 C 0.72038 0.40721 0.29279 0.0
C3260 C 0.71755 0.4128 0.27393 0.0
C3261 C 0.72455 0.40433 0.258 0.0
C3262 C 0.7349 0.38995 0.26149 0.0
C3263 C 0.73829 0.38418 0.28079 0.0
C3264 C 0.73067 0.39283 0.29653 0.0
H3265 H 0.84393 0.45306 0.52652 0.0
H3266 H 0.86273 0.4017 0.54493 0.0
H3267 H 0.89425 0.42012 0.5512 0.0
H3268 H 0.87606 0.46299 0.49698 0.0
H3269 H 0.87907 0.4893 0.50171 0.0
H3270 H 0.85781 0.47421 0.50393 0.0
H3271 H 0.86067 0.49125 0.54046 0.0
H3272 H 0.88205 0.50641 0.53835 0.0
H3273 H 0.88084 0.49177 0.55843 0.0
H3274 H 0.92357 0.44123 0.54953 0.0
H3275 H 0.94846 0.46295 0.53826 0.0
H3276 H 0.9112 0.49983 0.51865 0.0
C3277 C 0.85458 0.44566 0.53211 0.0
C3278 C 0.85063 0.42585 0.5353 0.0
C3279 C 0.86514 0.41696 0.54281 0.0
C3280 C 0.8832 0.42732 0.5464 0.0
C3281 C 0.8866 0.44653 0.54232 0.0
C3282 C 0.87269 0.45562 0.53528 0.0
C3283 C 0.88005 0.4751 0.5289 0.0
C3284 C 0.87283 0.4754 0.50656 0.0
C3285 C 0.87564 0.49214 0.54235 0.0
C3286 C 0.90024 0.47509 0.53252 0.0
C3287 C 0.90375 0.45872 0.5408 0.0
C3288 C 0.92109 0.45433 0.54352 0.0
C3289 C 0.93509 0.46666 0.53706 0.0
C3290 C 0.93158 0.48302 0.52795 0.0
C3291 C 0.91414 0.48763 0.52612 0.0
H3292 H 0.37229 0.1587 0.25432 0.0
H3293 H 0.34292 0.12614 0.29418 0.0
H3294 H 0.32529 0.152 0.29862 0.0
H3295 H 0.37479 0.20866 0.28053 0.0
H3296 H 0.37088 0.21845 0.25716 0.0
H3297 H 0.38119 0.19732 0.25817 0.0
H3298 H 0.35562 0.18015 0.2283 0.0
H3299 H 0.34517 0.20133 0.22922 0.0
H3300 H 0.33213 0.17773 0.23146 0.0
H3301 H 0.30854 0.18095 0.29748 0.0
H3302 H 0.29689 0.21108 0.29379 0.0
H3303 H 0.33814 0.22953 0.25812 0.0
C3304 C 0.36216 0.15689 0.26401 0.0
C3305 C 0.35963 0.13969 0.27407 0.0
C3306 C 0.34592 0.13871 0.28647 0.0
C3307 C 0.33552 0.15353 0.28902 0.0
C3308 C 0.3385 0.1701 0.27925 0.0
C3309 C 0.35158 0.17199 0.26702 0.0
C3310 C 0.35184 0.19159 0.2584 0.0
C3311 C 0.37084 0.20479 0.26396 0.0
C3312 C 0.34585 0.18746 0.23548 0.0
C3313 C 0.33762 0.20083 0.26844 0.0
C3314 C 0.32971 0.18761 0.27982 0.0
C3315 C 0.31513 0.19152 0.28907 0.0
C3316 C 0.30862 0.2091 0.28704 0.0
C3317 C 0.31681 0.22391 0.2766 0.0
C3318 C 0.33169 0.21932 0.26698 0.0
H3319 H 0.35986 0.11079 0.54628 0.0
H3320 H 0.35058 0.11244 0.48202 0.0
H3321 H 0.37745 0.09789 0.47885 0.0
H3322 H 0.40944 0.12245 0.55317 0.0
H3323 H 0.41258 0.10621 0.57156 0.0
H3324 H 0.39269 0.11709 0.56913 0.0
H3325 H 0.37193 0.08263 0.56362 0.0
H3326 H 0.39176 0.07166 0.56607 0.0
H3327 H 0.37449 0.06436 0.54391 0.0
H3328 H 0.40514 0.08273 0.48215 0.0
H3329 H 0.43131 0.06737 0.49165 0.0
H3330 H 0.42362 0.07529 0.55389 0.0
C3331 C 0.36341 0.108 0.53152 0.0
C3332 C 0.353 0.11303 0.51442 0.0
C3333 C 0.35836 0.10917 0.49545 0.0
C3334 C 0.37362 0.10077 0.49345 0.0
C3335 C 0.38362 0.09618 0.51053 0.0
C3336 C 0.37877 0.09962 0.52923 0.0
C3337 C 0.39198 0.09318 0.54511 0.0
C3338 C 0.40228 0.11078 0.56066 0.0
C3339 C 0.38194 0.07699 0.55527 0.0
C3340 C 0.40476 0.08533 0.53232 0.0
C3341 C 0.39971 0.08736 0.51244 0.0
C3342 C 0.40927 0.08116 0.49771 0.0
C3343 C 0.4243 0.07256 0.50332 0.0
C3344 C 0.42984 0.07009 0.52358 0.0
C3345 C 0.41982 0.07672 0.53824 0.0
H3346 H 0.70964 0.64288 0.27524 0.0
H3347 H 0.70758 0.65561 0.33882 0.0
H3348 H 0.72962 0.68652 0.34098 0.0
H3349 H 0.75658 0.66217 0.27794 0.0
H3350 H 0.75392 0.67263 0.25493 0.0
H3351 H 0.73763 0.65155 0.25812 0.0
H3352 H 0.71143 0.67025 0.25061 0.0
H3353 H 0.72766 0.69139 0.24736 0.0
H3354 H 0.71249 0.69368 0.26522 0.0
H3355 H 0.75384 0.71484 0.33705 0.0
H3356 H 0.77705 0.73953 0.3266 0.0
H3357 H 0.76141 0.71068 0.26507 0.0
C3358 C 0.71352 0.65226 0.28958 0.0
C3359 C 0.70687 0.64643 0.30692 0.0
C3360 C 0.71269 0.65925 0.32538 0.0
C3361 C 0.72512 0.67703 0.32675 0.0
C3362 C 0.73151 0.68214 0.30948 0.0
C3363 C 0.72576 0.67026 0.29118 0.0
C3364 C 0.73493 0.67916 0.27495 0.0
C3365 C 0.74645 0.66557 0.26596 0.0
C3366 C 0.72078 0.6839 0.25856 0.0
C3367 C 0.7469 0.69775 0.28705 0.0
C3368 C 0.74479 0.69909 0.30699 0.0
C3369 C 0.75537 0.71413 0.32143 0.0
C3370 C 0.76853 0.72805 0.31539 0.0
C3371 C 0.77076 0.72712 0.29505 0.0
C3372 C 0.75963 0.71193 0.28065 0.0
H3373 H 0.8518 0.41813 0.74349 0.0
H3374 H 0.85594 0.44524 0.80509 0.0
H3375 H 0.84217 0.41359 0.81392 0.0
H3376 H 0.80787 0.38456 0.74166 0.0
H3377 H 0.81347 0.36431 0.72668 0.0
H3378 H 0.82369 0.38913 0.72452 0.0
H3379 H 0.85572 0.3811 0.7326 0.0
H3380 H 0.84556 0.35627 0.73477 0.0
H3381 H 0.86188 0.37103 0.75529 0.0
H3382 H 0.8275 0.37898 0.81691 0.0
H3383 H 0.81361 0.34407 0.81393 0.0
H3384 H 0.8184 0.33644 0.75082 0.0
C3385 C 0.84989 0.41745 0.75887 0.0
C3386 C 0.85498 0.4349 0.77344 0.0
C3387 C 0.85198 0.43276 0.79332 0.0
C3388 C 0.84419 0.41458 0.79862 0.0
C3389 C 0.83917 0.39797 0.78403 0.0
C3390 C 0.84187 0.39911 0.76451 0.0
C3391 C 0.83491 0.37867 0.75191 0.0
C3392 C 0.81905 0.3792 0.73519 0.0
C3393 C 0.85045 0.37134 0.74312 0.0
C3394 C 0.82825 0.36596 0.76747 0.0
C3395 C 0.83079 0.37764 0.78584 0.0
C3396 C 0.82552 0.36978 0.80256 0.0
C3397 C 0.81751 0.34969 0.80066 0.0
C3398 C 0.81468 0.33692 0.78219 0.0
C3399 C 0.82031 0.34543 0.76529 0.0
H3400 H 0.07807 0.89035 0.07416 0.0
H3401 H 0.02875 0.87991 0.10035 0.0
H3402 H 0.0204 0.90939 0.08878 0.0
H3403 H 0.08753 0.94403 0.08702 0.0
H3404 H 0.09548 0.94874 0.06396 0.0
H3405 H 0.09809 0.92649 0.07399 0.0
H3406 H 0.08084 0.90605 0.04043 0.0
H3407 H 0.07817 0.92825 0.03034 0.0
H3408 H 0.05843 0.90954 0.03044 0.0
H3409 H 0.01572 0.9381 0.07305 0.0
H3410 H 0.01619 0.96729 0.05641 0.0
H3411 H 0.06965 0.96345 0.04215 0.0
C3412 C 0.06559 0.89436 0.07759 0.0
C3413 C 0.05388 0.88223 0.08787 0.0
C3414 C 0.03772 0.88827 0.092 0.0
C3415 C 0.03288 0.90521 0.08561 0.0
C3416 C 0.04438 0.91646 0.07524 0.0
C3417 C 0.06053 0.91158 0.07139 0.0
C3418 C 0.07022 0.92674 0.0599 0.0
C3419 C 0.08894 0.93712 0.07195 0.0
C3420 C 0.07202 0.91706 0.03904 0.0
C3421 C 0.05701 0.94086 0.05816 0.0
C3422 C 0.04211 0.93422 0.06691 0.0
C3423 C 0.02741 0.9436 0.0664 0.0
C3424 C 0.02783 0.96024 0.05679 0.0
C3425 C 0.04301 0.96798 0.0481 0.0
C3426 C 0.05795 0.95815 0.0489 0.0
H3427 H 0.90945 0.23875 0.85815 0.0
H3428 H 0.93026 0.30091 0.87754 0.0
H3429 H 0.90059 0.30788 0.86326 0.0
H3430 H 0.88361 0.24407 0.81104 0.0
H3431 H 0.86504 0.22415 0.81162 0.0
H3432 H 0.88762 0.22394 0.82423 0.0
H3433 H 0.87526 0.22026 0.85743 0.0
H3434 H 0.85264 0.22058 0.84492 0.0
H3435 H 0.86291 0.23794 0.86704 0.0
H3436 H 0.86821 0.30828 0.84658 0.0
H3437 H 0.83716 0.30215 0.82651 0.0
H3438 H 0.83734 0.23998 0.81681 0.0
C3439 C 0.90772 0.25382 0.85956 0.0
C3440 C 0.92238 0.26927 0.86907 0.0
C3441 C 0.91945 0.28878 0.87023 0.0
C3442 C 0.90253 0.2929 0.86226 0.0
C3443 C 0.88844 0.27741 0.85296 0.0
C3444 C 0.89089 0.25824 0.85141 0.0
C3445 C 0.87376 0.24439 0.83981 0.0
C3446 C 0.87775 0.2335 0.82053 0.0
C3447 C 0.86566 0.22993 0.8531 0.0
C3448 C 0.86135 0.25872 0.83502 0.0
C3449 C 0.87 0.27769 0.84296 0.0
C3450 C 0.86133 0.29345 0.84035 0.0
C3451 C 0.84359 0.28982 0.82901 0.0
C3452 C 0.83463 0.27058 0.82013 0.0
C3453 C 0.84368 0.25486 0.82351 0.0
H3454 H 0.54214 0.1799 0.55801 0.0
H3455 H 0.58176 0.18555 0.61261 0.0
H3456 H 0.58373 0.15117 0.6048 0.0
H3457 H 0.51801 0.13166 0.56269 0.0
H3458 H 0.51351 0.12299 0.5361 0.0
H3459 H 0.51596 0.1487 0.54491 0.0
H3460 H 0.54146 0.15683 0.52384 0.0
H3461 H 0.53913 0.13111 0.51504 0.0
H3462 H 0.561 0.14544 0.52726 0.0
H3463 H 0.58254 0.11653 0.59109 0.0
H3464 H 0.57517 0.08226 0.57423 0.0
H3465 H 0.53372 0.09671 0.53055 0.0
C3466 C 0.5512 0.17396 0.56839 0.0
C3467 C 0.56222 0.18599 0.58569 0.0
C3468 C 0.57374 0.17726 0.59881 0.0
C3469 C 0.57486 0.15753 0.59462 0.0
C3470 C 0.56412 0.1463 0.57741 0.0
C3471 C 0.55228 0.15402 0.56462 0.0
C3472 C 0.54165 0.13823 0.54765 0.0
C3473 C 0.52106 0.13522 0.54786 0.0
C3474 C 0.54608 0.1432 0.52724 0.0
C3475 C 0.5492 0.12046 0.55319 0.0
C3476 C 0.56247 0.12568 0.57017 0.0
C3477 C 0.57207 0.11221 0.57787 0.0
C3478 C 0.56786 0.09281 0.56815 0.0
C3479 C 0.55388 0.08687 0.55118 0.0
C3480 C 0.5444 0.10088 0.5436 0.0
H3481 H 0.60152 0.75246 0.35804 0.0
H3482 H 0.61678 0.80733 0.39889 0.0
H3483 H 0.6459 0.81455 0.38662 0.0
H3484 H 0.64691 0.74105 0.3643 0.0
H3485 H 0.64469 0.73044 0.33843 0.0
H3486 H 0.62476 0.72951 0.35019 0.0
H3487 H 0.60977 0.74646 0.32214 0.0
H3488 H 0.62964 0.74744 0.3103 0.0
H3489 H 0.62167 0.7696 0.31708 0.0
H3490 H 0.67366 0.81615 0.36984 0.0
H3491 H 0.69783 0.81178 0.35007 0.0
H3492 H 0.66534 0.75569 0.3203 0.0
C3493 C 0.61099 0.76594 0.36458 0.0
C3494 C 0.60646 0.77939 0.37937 0.0
C3495 C 0.61944 0.79691 0.38724 0.0
C3496 C 0.63622 0.80111 0.38048 0.0
C3497 C 0.64013 0.78763 0.36587 0.0
C3498 C 0.62794 0.77035 0.35805 0.0
C3499 C 0.63563 0.75835 0.34251 0.0
C3500 C 0.63815 0.73867 0.34926 0.0
C3501 C 0.62345 0.75529 0.32178 0.0
C3502 C 0.65394 0.77166 0.3427 0.0
C3503 C 0.65625 0.78847 0.35633 0.0
C3504 C 0.67196 0.80305 0.35911 0.0
C3505 C 0.68561 0.80047 0.34766 0.0
C3506 C 0.68363 0.78343 0.33344 0.0
C3507 C 0.6675 0.76881 0.33113 0.0
H3508 H 1.00427 0.20725 0.44925 0.0
H3509 H 0.03292 0.19084 0.40117 0.0
H3510 H 0.0343 0.15932 0.41345 0.0
H3511 H 0.02845 0.19015 0.48643 0.0
H3512 H 1.00975 0.18062 0.49853 0.0
H3513 H 1.0081 0.20027 0.48401 0.0
H3514 H 0.97835 0.17979 0.4621 0.0
H3515 H 0.97988 0.16 0.47666 0.0
H3516 H 0.97825 0.1556 0.44977 0.0
H3517 H 0.03639 0.132 0.4334 0.0
H3518 H 0.03906 0.11079 0.45982 0.0
H3519 H 1.00906 0.14512 0.49476 0.0
C3520 C 1.0103 0.19677 0.44091 0.0
C3521 C 0.01862 0.20157 0.42437 0.0
C3522 C 0.02674 0.18762 0.41411 0.0
C3523 C 0.02738 0.16957 0.4208 0.0
C3524 C 0.01953 0.16553 0.43751 0.0
C3525 C 1.01093 0.17862 0.44729 0.0
C3526 C 1.00504 0.17149 0.46595 0.0
C3527 C 0.01335 0.18652 0.48483 0.0
C3528 C 0.98414 0.16642 0.46346 0.0
C3529 C 0.01298 0.15319 0.46597 0.0
C3530 C 0.02078 0.14967 0.44912 0.0
C3531 C 0.0301 0.13441 0.44651 0.0
C3532 C 0.03173 0.12261 0.4617 0.0
C3533 C 0.02435 0.12638 0.47939 0.0
C3534 C 0.01455 0.14162 0.48126 0.0
H3535 H 0.65247 0.28235 0.26333 0.0
H3536 H 0.6333 0.22055 0.24059 0.0
H3537 H 0.66456 0.21489 0.24882 0.0
H3538 H 0.69235 0.28858 0.24421 0.0
H3539 H 0.70627 0.30492 0.26544 0.0
H3540 H 0.68209 0.30381 0.26049 0.0
H3541 H 0.67943 0.29561 0.29641 0.0
H3542 H 0.70374 0.29724 0.30139 0.0
H3543 H 0.6886 0.27535 0.30484 0.0
H3544 H 0.69803 0.2167 0.25489 0.0
H3545 H 0.73165 0.22552 0.26121 0.0
H3546 H 0.72892 0.28593 0.28096 0.0
C3547 C 0.65485 0.26757 0.26062 0.0
C3548 C 0.64054 0.25184 0.25158 0.0
C3549 C 0.64407 0.23271 0.24792 0.0
C3550 C 0.66177 0.22937 0.25244 0.0
C3551 C 0.67568 0.24526 0.26089 0.0
C3552 C 0.67241 0.26393 0.26531 0.0
C3553 C 0.68995 0.27862 0.27334 0.0
C3554 C 0.69282 0.29493 0.26007 0.0
C3555 C 0.69045 0.2872 0.2953 0.0
C3556 C 0.70357 0.26542 0.27179 0.0
C3557 C 0.69507 0.24622 0.26475 0.0
C3558 C 0.70488 0.23162 0.2608 0.0
C3559 C 0.72394 0.23678 0.2643 0.0
C3560 C 0.73289 0.25637 0.27162 0.0
C3561 C 0.72251 0.27078 0.27553 0.0
H3562 H 0.52864 0.90765 0.93774 0.0
H3563 H 0.4989 0.86523 0.96882 0.0
H3564 H 0.49814 0.89177 0.99588 0.0
H3565 H 0.55634 0.93747 0.98041 0.0
H3566 H 0.55544 0.96023 0.97071 0.0
H3567 H 0.55293 0.93796 0.95368 0.0
H3568 H 0.52209 0.9437 0.93572 0.0
H3569 H 0.52454 0.96595 0.95285 0.0
H3570 H 0.5044 0.94701 0.95011 0.0
H3571 H 0.50361 0.92254 0.02111 0.0
H3572 H 0.51321 0.95558 0.04142 0.0
H3573 H 0.53674 0.97787 0.99209 0.0
C3574 C 0.52186 0.90405 0.95019 0.0
C3575 C 0.51384 0.88454 0.95136 0.0
C3576 C 0.50501 0.88021 0.96774 0.0
C3577 C 0.50454 0.89514 0.98312 0.0
C3578 C 0.51265 0.9143 0.98161 0.0
C3579 C 0.52094 0.91881 0.96542 0.0
C3580 C 0.52884 0.94049 0.96745 0.0
C3581 C 0.54961 0.94425 0.96811 0.0
C3582 C 0.51939 0.94983 0.95053 0.0
C3583 C 0.52407 0.94739 0.98752 0.0
C3584 C 0.51483 0.9321 0.99555 0.0
C3585 C 0.51049 0.93472 0.01481 0.0
C3586 C 0.51595 0.95344 0.02621 0.0
C3587 C 0.52534 0.96919 0.01812 0.0
C3588 C 0.52911 0.96616 0.99843 0.0
H3589 H 0.98511 0.78168 0.75361 0.0
H3590 H 0.95845 0.72419 0.72149 0.0
H3591 H 0.93257 0.72486 0.73954 0.0
H3592 H 0.96747 0.77606 0.80149 0.0
H3593 H 0.96463 0.80113 0.80488 0.0
H3594 H 0.98253 0.79466 0.79228 0.0
H3595 H 0.97025 0.81001 0.76144 0.0
H3596 H 0.95236 0.8165 0.7739 0.0
H3597 H 0.94677 0.80175 0.74949 0.0
H3598 H 0.90811 0.73339 0.75752 0.0
H3599 H 0.88625 0.74994 0.77276 0.0
H3600 H 0.92814 0.80224 0.79244 0.0
C3601 C 0.97392 0.76914 0.75049 0.0
C3602 C 0.97387 0.75285 0.73617 0.0
C3603 C 0.95899 0.73669 0.73264 0.0
C3604 C 0.9442 0.73693 0.74282 0.0
C3605 C 0.94455 0.7534 0.75653 0.0
C3606 C 0.95902 0.7692 0.76039 0.0
C3607 C 0.95521 0.78595 0.77418 0.0
C3608 C 0.96824 0.78966 0.79441 0.0
C3609 C 0.9562 0.80464 0.76414 0.0
C3610 C 0.93593 0.77749 0.77658 0.0
C3611 C 0.93024 0.75849 0.76675 0.0
C3612 C 0.91255 0.74808 0.76566 0.0
C3613 C 0.90026 0.7575 0.77447 0.0
C3614 C 0.90561 0.77714 0.78406 0.0
C3615 C 0.92378 0.78711 0.78543 0.0
H3616 H 0.1004 0.01122 0.90482 0.0
H3617 H 0.08307 0.06499 0.89184 0.0
H3618 H 0.06761 0.06509 0.92112 0.0
H3619 H 0.05808 0.98914 0.91948 0.0
H3620 H 0.069 0.97772 0.93902 0.0
H3621 H 0.07958 0.98211 0.91745 0.0
H3622 H 0.1089 1.00157 0.94087 0.0
H3623 H 0.09838 0.99732 0.96252 0.0
H3624 H 0.10749 0.022 0.95883 0.0
H3625 H 0.05478 0.06034 0.95216 0.0
H3626 H 0.04282 0.04931 0.98164 0.0
H3627 H 0.06556 0.99697 0.97366 0.0
C3628 C 0.09325 0.02296 0.90797 0.0
C3629 C 0.09338 0.03833 0.896 0.0
C3630 C 0.08382 0.05337 0.90094 0.0
C3631 C 0.0748 0.05349 0.91753 0.0
C3632 C 0.07515 0.03833 0.92904 0.0
C3633 C 0.08391 0.02319 0.92441 0.0
C3634 C 0.08164 1.0084 0.93908 0.0
C3635 C 0.07147 0.98814 0.92809 0.0
C3636 C 0.10021 1.00726 0.95103 0.0
C3637 C 0.07014 0.01759 0.95255 0.0
C3638 C 0.06685 0.03501 0.94657 0.0
C3639 C 0.05715 0.04666 0.9569 0.0
C3640 C 0.05048 0.0403 0.97369 0.0
C3641 C 0.05324 0.02229 0.97989 0.0
C3642 C 0.06318 0.01074 0.96914 0.0
H3643 H 0.76946 0.32721 0.60707 0.0
H3644 H 0.76294 0.26933 0.57351 0.0
H3645 H 0.78453 0.26061 0.60034 0.0
H3646 H 0.81549 0.33479 0.6212 0.0
H3647 H 0.81687 0.34759 0.64609 0.0
H3648 H 0.79831 0.34844 0.62659 0.0
H3649 H 0.77446 0.33472 0.64785 0.0
H3650 H 0.79292 0.33505 0.66791 0.0
H3651 H 0.77644 0.3127 0.65864 0.0
H3652 H 0.80907 0.25973 0.6284 0.0
H3653 H 0.82918 0.26324 0.66068 0.0
H3654 H 0.82265 0.32349 0.67395 0.0
C3655 C 0.77181 0.31235 0.606 0.0
C3656 C 0.76442 0.29873 0.58862 0.0
C3657 C 0.76826 0.27967 0.58708 0.0
C3658 C 0.78072 0.27479 0.602 0.0
C3659 C 0.78911 0.28921 0.6181 0.0
C3660 C 0.78444 0.3074 0.62054 0.0
C3661 C 0.7961 0.32056 0.63869 0.0
C3662 C 0.80736 0.33893 0.63277 0.0
C3663 C 0.78428 0.32607 0.65419 0.0
C3664 C 0.80814 0.30694 0.64601 0.0
C3665 C 0.80394 0.28901 0.63384 0.0
C3666 C 0.81246 0.27366 0.63814 0.0
C3667 C 0.82424 0.276 0.65645 0.0
C3668 C 0.82724 0.29357 0.67019 0.0
C3669 C 0.82039 0.30977 0.66397 0.0
H3670 H 0.49558 0.05695 0.3832 0.0
H3671 H 0.44386 0.01969 0.38588 0.0
H3672 H 0.45572 0.01489 0.4203 0.0
H3673 H 0.5241 0.02908 0.41046 0.0
H3674 H 0.54048 0.05019 0.42376 0.0
H3675 H 0.52773 0.05147 0.39958 0.0
H3676 H 0.51641 0.08152 0.41495 0.0
H3677 H 0.52908 0.08026 0.43922 0.0
H3678 H 0.50494 0.07971 0.4363 0.0
H3679 H 0.47363 0.0144 0.4564 0.0
H3680 H 0.49613 0.01597 0.48736 0.0
H3681 H 0.53701 0.05177 0.46155 0.0
C3682 C 0.48663 0.04786 0.39099 0.0
C3683 C 0.46852 0.03868 0.38107 0.0
C3684 C 0.45773 0.0268 0.39237 0.0
C3685 C 0.46438 0.02406 0.41228 0.0
C3686 C 0.48216 0.03314 0.42144 0.0
C3687 C 0.4932 0.04472 0.41103 0.0
C3688 C 0.51204 0.05231 0.42417 0.0
C3689 C 0.52697 0.04534 0.41388 0.0
C3690 C 0.51585 0.07479 0.42894 0.0
C3691 C 0.51002 0.04294 0.44331 0.0
C3692 C 0.49251 0.03226 0.44163 0.0
C3693 C 0.48734 0.02274 0.45765 0.0
C3694 C 0.50026 0.02382 0.47544 0.0
C3695 C 0.51854 0.03409 0.47741 0.0
C3696 C 0.52323 0.04381 0.46088 0.0
H3697 H 0.76178 0.70733 0.12808 0.0
H3698 H 0.79938 0.7548 0.11105 0.0
H3699 H 0.80403 0.77247 0.14527 0.0
H3700 H 0.74099 0.74015 0.16026 0.0
H3701 H 0.73799 0.72315 0.17807 0.0
H3702 H 0.73722 0.71416 0.15198 0.0
H3703 H 0.76271 0.6952 0.16208 0.0
H3704 H 0.76361 0.70417 0.18815 0.0
H3705 H 0.78398 0.70827 0.17713 0.0
H3706 H 0.80705 0.78367 0.18206 0.0
H3707 H 0.80623 0.78884 0.21838 0.0
H3708 H 0.76414 0.73644 0.21128 0.0
C3709 C 0.77071 0.72161 0.13125 0.0
C3710 C 0.78042 0.72932 0.11657 0.0
C3711 C 0.79215 0.74805 0.12189 0.0
C3712 C 0.79476 0.75841 0.14133 0.0
C3713 C 0.78522 0.75021 0.15537 0.0
C3714 C 0.77318 0.73241 0.15052 0.0
C3715 C 0.76465 0.72694 0.16854 0.0
C3716 C 0.74399 0.72605 0.16447 0.0
C3717 C 0.76901 0.70749 0.17431 0.0
C3718 C 0.77426 0.74413 0.18444 0.0
C3719 C 0.78609 0.75736 0.17645 0.0
C3720 C 0.79755 0.77365 0.18838 0.0
C3721 C 0.797 0.77645 0.209 0.0
C3722 C 0.78488 0.76327 0.21754 0.0
C3723 C 0.77318 0.74702 0.20503 0.0
H3724 H 0.08583 0.05775 0.69155 0.0
H3725 H 0.08369 0.9965 0.69787 0.0
H3726 H 0.07311 0.9873 0.66138 0.0
H3727 H 0.04524 0.04909 0.65217 0.0
H3728 H 0.05473 0.06852 0.63923 0.0
H3729 H 0.06126 0.0702 0.66603 0.0
H3730 H 0.09521 0.07495 0.66197 0.0
H3731 H 0.08878 0.07311 0.63516 0.0
H3732 H 0.10246 0.05693 0.64557 0.0
H3733 H 0.06453 0.98483 0.62409 0.0
H3734 H 0.05654 0.98898 0.58861 0.0
H3735 H 0.06389 0.05185 0.60619 0.0
C3736 C 0.083 0.04241 0.68524 0.0
C3737 C 0.08551 0.02783 0.69758 0.0
C3738 C 0.0816 1.00789 0.68878 0.0
C3739 C 0.0757 1.00253 0.66804 0.0
C3740 C 0.07362 0.01725 0.65628 0.0
C3741 C 0.07692 0.03676 0.66455 0.0
C3742 C 0.07362 0.04965 0.64846 0.0
C3743 C 0.05777 0.05997 0.65167 0.0
C3744 C 0.09106 0.06454 0.64775 0.0
C3745 C 0.06849 0.03439 0.62982 0.0
C3746 C 0.06849 0.01579 0.63471 0.0
C3747 C 0.06437 0.99931 0.62008 0.0
C3748 C 0.0599 1.00185 0.59993 0.0
C3749 C 0.0596 0.02075 0.59451 0.0
C3750 C 0.06405 0.03721 0.60975 0.0
H3751 H 0.72755 0.30898 0.39146 0.0
H3752 H 0.74272 0.26661 0.42882 0.0
H3753 H 0.756 0.25129 0.4017 0.0
H3754 H 0.72161 0.27515 0.33947 0.0
H3755 H 0.73108 0.29635 0.32889 0.0
H3756 H 0.71702 0.29882 0.34788 0.0
H3757 H 0.74323 0.32592 0.36828 0.0
H3758 H 0.75798 0.32244 0.35033 0.0
H3759 H 0.76515 0.32002 0.37624 0.0
H3760 H 0.77584 0.24819 0.3766 0.0
H3761 H 0.79218 0.24876 0.34774 0.0
H3762 H 0.76407 0.29298 0.32633 0.0
C3763 C 0.73222 0.29543 0.39312 0.0
C3764 C 0.73416 0.28878 0.4119 0.0
C3765 C 0.74094 0.27154 0.41425 0.0
C3766 C 0.74879 0.26301 0.39907 0.0
C3767 C 0.74909 0.27169 0.38168 0.0
C3768 C 0.74015 0.28686 0.37808 0.0
C3769 C 0.74458 0.29516 0.35936 0.0
C3770 C 0.72756 0.29111 0.34293 0.0
C3771 C 0.75325 0.31718 0.36385 0.0
C3772 C 0.75828 0.28321 0.35389 0.0
C3773 C 0.76073 0.26986 0.36701 0.0
C3774 C 0.77364 0.25815 0.36586 0.0
C3775 C 0.78315 0.25892 0.34979 0.0
C3776 C 0.77963 0.27129 0.3353 0.0
C3777 C 0.76752 0.28402 0.33766 0.0
H3778 H 0.45999 0.05164 0.15287 0.0
H3779 H 0.48178 1.00959 0.18654 0.0
H3780 H 0.4994 1.00223 0.16008 0.0
H3781 H 0.45632 0.02332 0.10274 0.0
H3782 H 0.46319 0.0443 0.09054 0.0
H3783 H 0.45206 0.04688 0.11211 0.0
H3784 H 0.47902 0.07423 0.13008 0.0
H3785 H 0.49021 0.07176 0.10854 0.0
H3786 H 0.50182 0.06948 0.133 0.0
H3787 H 0.51626 0.99959 0.13014 0.0
H3788 H 0.52963 1.00111 0.09931 0.0
H3789 H 0.49723 0.04337 0.08169 0.0
C3790 C 0.46848 0.04089 0.15479 0.0
C3791 C 0.46893 0.03115 0.17245 0.0
C3792 C 0.48046 0.01719 0.17358 0.0
C3793 C 0.49081 0.01292 0.15844 0.0
C3794 C 0.4899 0.02249 0.14143 0.0
C3795 C 0.47896 0.03617 0.13938 0.0
C3796 C 0.48055 0.04404 0.11919 0.0
C3797 C 0.46192 0.03936 0.10532 0.0
C3798 C 0.48836 0.0662 0.12293 0.0
C3799 C 0.49403 0.03272 0.11034 0.0
C3800 C 0.49928 0.02051 0.12371 0.0
C3801 C 0.51203 1.00904 0.11962 0.0
C3802 C 0.51966 1.01002 0.10181 0.0
C3803 C 0.51467 0.02211 0.08734 0.0
C3804 C 0.50137 0.03359 0.09189 0.0
H3805 H 0.76881 0.73638 0.91935 0.0
H3806 H 0.79568 0.68773 0.90696 0.0
H3807 H 0.8006 0.69816 0.87448 0.0
H3808 H 0.74635 0.73559 0.86742 0.0
H3809 H 0.74986 0.76189 0.8692 0.0
H3810 H 0.74751 0.7503 0.89128 0.0
H3811 H 0.77848 0.77136 0.90957 0.0
H3812 H 0.78083 0.78312 0.88762 0.0
H3813 H 0.79848 0.77122 0.8981 0.0
H3814 H 0.80401 0.71438 0.84389 0.0
H3815 H 0.80686 0.73641 0.81814 0.0
H3816 H 0.77766 0.77471 0.84893 0.0
C3817 C 0.77554 0.7278 0.9097 0.0
C3818 C 0.78191 0.71118 0.91594 0.0
C3819 C 0.79088 0.70061 0.90284 0.0
C3820 C 0.79362 0.70634 0.8842 0.0
C3821 C 0.78732 0.72276 0.87858 0.0
C3822 C 0.77853 0.73343 0.89093 0.0
C3823 C 0.77391 0.75105 0.8815 0.0
C3824 C 0.75317 0.74962 0.87709 0.0
C3825 C 0.7835 0.77032 0.895 0.0
C3826 C 0.78163 0.74867 0.86208 0.0
C3827 C 0.78914 0.7321 0.86068 0.0
C3828 C 0.79784 0.72716 0.84465 0.0
C3829 C 0.79918 0.73959 0.82989 0.0
C3830 C 0.79173 0.7567 0.83094 0.0
C3831 C 0.78282 0.76128 0.84729 0.0
H3832 H 0.89284 0.12782 0.02002 0.0
H3833 H 0.89954 0.13526 0.08514 0.0
H3834 H 0.91909 0.1108 0.08597 0.0
H3835 H 0.88994 0.07746 0.01207 0.0
H3836 H 0.9031 0.07707 0.99203 0.0
H3837 H 0.89083 0.09647 0.99624 0.0
H3838 H 0.92058 0.12246 0.99978 0.0
H3839 H 0.93294 0.10316 0.99522 0.0
H3840 H 0.94022 0.12093 0.0176 0.0
H3841 H 0.93414 0.08305 0.07982 0.0
H3842 H 0.94807 0.05609 0.06737 0.0
H3843 H 0.93435 0.06825 0.00629 0.0
C3844 C 0.89882 0.12464 0.03445 0.0
C3845 C 0.8945 0.13317 0.0525 0.0
C3846 C 0.90239 0.12855 0.07111 0.0
C3847 C 0.91358 0.11478 0.07176 0.0
C3848 C 0.91698 0.10606 0.05369 0.0
C3849 C 0.91021 0.11104 0.03539 0.0
C3850 C 0.91572 0.099 0.01822 0.0
C3851 C 0.89889 0.08678 1.0038 0.0
C3852 C 0.92811 0.11217 0.00705 0.0
C3853 C 0.92612 0.0861 0.02978 0.0
C3854 C 0.9266 0.09045 0.05019 0.0
C3855 C 0.93434 0.07981 0.06393 0.0
C3856 C 0.94226 0.06455 0.05667 0.0
C3857 C 0.94266 0.06026 0.03587 0.0
C3858 C 0.93428 0.07111 0.02226 0.0
H3859 H 0.40409 0.4717 0.0388 0.0
H3860 H 0.41896 0.41835 0.05646 0.0
H3861 H 0.4511 0.43168 0.05498 0.0
H3862 H 0.4364 0.47965 1.00402 0.0
H3863 H 0.44149 0.50592 0.01071 0.0
H3864 H 0.41945 0.49206 0.01257 0.0
H3865 H 0.42376 0.50703 0.04995 0.0
H3866 H 0.44579 0.52095 0.04819 0.0
H3867 H 0.44368 0.50488 0.067 0.0
H3868 H 0.48201 0.45086 0.05195 0.0
H3869 H 0.50929 0.47506 0.04889 0.0
H3870 H 0.47515 0.51635 0.0335 0.0
C3871 C 0.41407 0.46274 0.04221 0.0
C3872 C 0.40881 0.44392 0.04791 0.0
C3873 C 0.42249 0.43288 0.05241 0.0
C3874 C 0.44085 0.44029 0.05145 0.0
C3875 C 0.44556 0.45886 0.04594 0.0
C3876 C 0.43259 0.47 0.04144 0.0
C3877 C 0.44145 0.48975 0.03643 0.0
C3878 C 0.43427 0.49197 0.01464 0.0
C3879 C 0.4385 0.50665 0.05128 0.0
C3880 C 0.46142 0.48807 0.03909 0.0
C3881 C 0.46343 0.47 0.04434 0.0
C3882 C 0.48055 0.46498 0.04768 0.0
C3883 C 0.49599 0.47875 0.04573 0.0
C3884 C 0.49433 0.49739 0.04054 0.0
C3885 C 0.47679 0.5021 0.03726 0.0
H3886 H 0.37831 0.58896 0.78392 0.0
H3887 H 0.42069 0.6124 0.75155 0.0
H3888 H 0.40906 0.64312 0.75143 0.0
H3889 H 0.34338 0.60728 0.75799 0.0
H3890 H 0.33283 0.613 0.77943 0.0
H3891 H 0.34567 0.59378 0.77896 0.0
H3892 H 0.36606 0.61085 0.81254 0.0
H3893 H 0.35323 0.63015 0.81314 0.0
H3894 H 0.37761 0.63603 0.81461 0.0
H3895 H 0.39157 0.67036 0.75276 0.0
H3896 H 0.3692 0.69184 0.75497 0.0
H3897 H 0.33775 0.6501 0.78556 0.0
C3898 C 0.38535 0.60071 0.77716 0.0
C3899 C 0.40037 0.59828 0.76769 0.0
C3900 C 0.40903 0.61387 0.75869 0.0
C3901 C 0.40262 0.63143 0.7587 0.0
C3902 C 0.38757 0.63322 0.76782 0.0
C3903 C 0.37907 0.61831 0.77695 0.0
C3904 C 0.36244 0.62347 0.78454 0.0
C3905 C 0.34506 0.60849 0.77463 0.0
C3906 C 0.365 0.62523 0.80758 0.0
C3907 C 0.36255 0.64327 0.7776 0.0
C3908 C 0.37732 0.6488 0.7683 0.0
C3909 C 0.37998 0.66623 0.76009 0.0
C3910 C 0.3671 0.67825 0.76124 0.0
C3911 C 0.35164 0.67271 0.77038 0.0
C3912 C 0.34954 0.65501 0.77878 0.0
H3913 H 0.23916 0.62598 0.57335 0.0
H3914 H 0.2306 0.63666 0.5113 0.0
H3915 H 0.20204 0.61201 0.50445 0.0
H3916 H 0.21921 0.57341 0.56381 0.0
H3917 H 0.20858 0.57412 0.58585 0.0
H3918 H 0.22947 0.59113 0.58566 0.0
H3919 H 0.21413 0.62037 0.59494 0.0
H3920 H 0.19336 0.60343 0.59548 0.0
H3921 H 0.19317 0.62236 0.57962 0.0
H3922 H 0.17407 0.58714 0.50432 0.0
H3923 H 0.14648 0.5669 0.51204 0.0
H3924 H 0.17189 0.57422 0.57468 0.0
C3925 C 0.23127 0.6232 0.55833 0.0
C3926 C 0.23734 0.63311 0.54281 0.0
C3927 C 0.22655 0.62894 0.52335 0.0
C3928 C 0.21028 0.61496 0.51928 0.0
C3929 C 0.20485 0.60529 0.53483 0.0
C3930 C 0.21488 0.60938 0.55402 0.0
C3931 C 0.20523 0.59798 0.56835 0.0
C3932 C 0.21628 0.58329 0.57639 0.0
C3933 C 0.20123 0.61187 0.58561 0.0
C3934 C 0.18791 0.58748 0.55435 0.0
C3935 C 0.18823 0.59149 0.53497 0.0
C3936 C 0.17362 0.58393 0.51946 0.0
C3937 C 0.15797 0.57255 0.52402 0.0
C3938 C 0.1569 0.56919 0.54402 0.0
C3939 C 0.17232 0.5763 0.55922 0.0
H3940 H 0.70602 0.89034 0.77536 0.0
H3941 H 0.74682 0.93134 0.81915 0.0
H3942 H 0.76576 0.90646 0.82161 0.0
H3943 H 0.71168 0.84621 0.79861 0.0
H3944 H 0.70895 0.83019 0.77523 0.0
H3945 H 0.69815 0.85111 0.77635 0.0
H3946 H 0.71406 0.86346 0.7478 0.0
H3947 H 0.72489 0.84255 0.74658 0.0
H3948 H 0.73852 0.86698 0.75042 0.0
H3949 H 0.78191 0.87683 0.81901 0.0
H3950 H 0.79248 0.8458 0.81265 0.0
H3951 H 0.742 0.82111 0.77157 0.0
C3952 C 0.71894 0.89422 0.7855 0.0
C3953 C 0.72434 0.91356 0.79724 0.0
C3954 C 0.7416 0.91714 0.81016 0.0
C3955 C 0.75276 0.90287 0.8116 0.0
C3956 C 0.74702 0.88425 0.80013 0.0
C3957 C 0.73041 0.87978 0.78733 0.0
C3958 C 0.72762 0.85833 0.77689 0.0
C3959 C 0.71058 0.84571 0.78207 0.0
C3960 C 0.72618 0.85779 0.75406 0.0
C3961 C 0.7451 0.85151 0.7858 0.0
C3962 C 0.75612 0.86695 0.79904 0.0
C3963 C 0.77318 0.86475 0.80873 0.0
C3964 C 0.77918 0.84677 0.80495 0.0
C3965 C 0.76839 0.83023 0.79169 0.0
C3966 C 0.75084 0.83295 0.78205 0.0
H3967 H 0.72501 0.94922 0.51849 0.0
H3968 H 0.71579 0.91603 0.56753 0.0
H3969 H 0.68723 0.92759 0.56926 0.0
H3970 H 0.70803 0.99064 0.53612 0.0
H3971 H 0.69682 0.99406 0.51187 0.0
H3972 H 0.71636 0.98263 0.5137 0.0
H3973 H 0.69759 0.95238 0.48925 0.0
H3974 H 0.678 0.96376 0.4873 0.0
H3975 H 0.67637 0.93976 0.49484 0.0
H3976 H 0.6603 0.94387 0.56711 0.0
H3977 H 0.63639 0.96308 0.56044 0.0
H3978 H 0.66193 0.98545 0.51227 0.0
C3979 C 0.7169 0.94416 0.52944 0.0
C3980 C 0.72307 0.93192 0.54314 0.0
C3981 C 0.71187 0.92581 0.55722 0.0
C3982 C 0.69543 0.93216 0.55821 0.0
C3983 C 0.69 0.94448 0.54485 0.0
C3984 C 0.70026 0.95029 0.53057 0.0
C3985 C 0.69124 0.9638 0.51817 0.0
C3986 C 0.70387 0.98398 0.52009 0.0
C3987 C 0.68546 0.95436 0.49607 0.0
C3988 C 0.67468 0.96513 0.52816 0.0
C3989 C 0.67419 0.95371 0.54341 0.0
C3990 C 0.66052 0.95283 0.55516 0.0
C3991 C 0.64703 0.96395 0.55134 0.0
C3992 C 0.64719 0.97597 0.5359 0.0
C3993 C 0.66121 0.97633 0.52406 0.0
H3994 H 0.3563 0.40391 0.7449 0.0
H3995 H 0.39822 0.40282 0.79553 0.0
H3996 H 0.38038 0.37212 0.80235 0.0
H3997 H 0.31808 0.38575 0.76625 0.0
H3998 H 0.30526 0.3704 0.74378 0.0
H3999 H 0.32164 0.39191 0.7419 0.0
H4000 H 0.33818 0.37071 0.72001 0.0
H4001 H 0.32176 0.34912 0.72174 0.0
H4002 H 0.34575 0.34995 0.72929 0.0
H4003 H 0.35778 0.34258 0.80505 0.0
H4004 H 0.3316 0.31557 0.80326 0.0
H4005 H 0.30393 0.33423 0.7505 0.0
C4006 C 0.36187 0.39708 0.75724 0.0
C4007 C 0.37864 0.40613 0.76984 0.0
C4008 C 0.38527 0.39662 0.78591 0.0
C4009 C 0.3753 0.379 0.78983 0.0
C4010 C 0.35874 0.37073 0.77742 0.0
C4011 C 0.35209 0.37929 0.76133 0.0
C4012 C 0.33368 0.3673 0.75062 0.0
C4013 C 0.31878 0.37958 0.75065 0.0
C4014 C 0.33492 0.35877 0.72914 0.0
C4015 C 0.33076 0.35118 0.76372 0.0
C4016 C 0.34559 0.35335 0.77888 0.0
C4017 C 0.34617 0.3406 0.79312 0.0
C4018 C 0.33123 0.32522 0.79192 0.0
C4019 C 0.31577 0.32263 0.77663 0.0
C4020 C 0.31558 0.33581 0.76231 0.0
H4021 H 0.23553 0.61887 0.27289 0.0
H4022 H 0.21247 0.62791 0.32716 0.0
H4023 H 0.2242 0.66341 0.33018 0.0
H4024 H 0.27711 0.65691 0.29047 0.0
H4025 H 0.27819 0.66486 0.26631 0.0
H4026 H 0.26784 0.63991 0.26782 0.0
H4027 H 0.23828 0.64388 0.24579 0.0
H4028 H 0.24853 0.66885 0.24424 0.0
H4029 H 0.22723 0.66357 0.25334 0.0
H4030 H 0.23762 0.69864 0.32735 0.0
H4031 H 0.2529 0.7303 0.32003 0.0
H4032 H 0.26972 0.70093 0.26836 0.0
C4033 C 0.23289 0.6283 0.2854 0.0
C4034 C 0.22292 0.61998 0.29987 0.0
C4035 C 0.22012 0.6333 0.31597 0.0
C4036 C 0.2267 0.65374 0.31777 0.0
C4037 C 0.23645 0.66134 0.30349 0.0
C4038 C 0.23972 0.64905 0.28765 0.0
C4039 C 0.2511 0.66138 0.27478 0.0
C4040 C 0.26966 0.6554 0.27485 0.0
C4041 C 0.24066 0.65929 0.25325 0.0
C4042 C 0.25346 0.68241 0.28568 0.0
C4043 C 0.24475 0.68184 0.30218 0.0
C4044 C 0.24459 0.6991 0.31455 0.0
C4045 C 0.25352 0.71726 0.31025 0.0
C4046 C 0.26302 0.71875 0.29374 0.0
C4047 C 0.26279 0.70075 0.28119 0.0
H4048 H 0.50774 0.64893 0.4644 0.0
H4049 H 0.54479 0.6914 0.51051 0.0
H4050 H 0.55061 0.66491 0.52981 0.0
H4051 H 0.48887 0.61671 0.49905 0.0
H4052 H 0.4876 0.59443 0.48236 0.0
H4053 H 0.48537 0.61674 0.47226 0.0
H4054 H 0.51189 0.6134 0.45284 0.0
H4055 H 0.51416 0.59108 0.46285 0.0
H4056 H 0.53354 0.61106 0.46638 0.0
H4057 H 0.55419 0.63414 0.54341 0.0
H4058 H 0.55524 0.60068 0.55059 0.0
H4059 H 0.51533 0.57679 0.49691 0.0
C4060 C 0.51687 0.65268 0.4787 0.0
C4061 C 0.52592 0.67244 0.48575 0.0
C4062 C 0.53791 0.67651 0.50448 0.0
C4063 C 0.54122 0.66152 0.51569 0.0
C4064 C 0.53238 0.6423 0.50822 0.0
C4065 C 0.52039 0.63775 0.49021 0.0
C4066 C 0.51327 0.61561 0.48546 0.0
C4067 C 0.49254 0.61058 0.48474 0.0
C4068 C 0.51853 0.6073 0.46571 0.0
C4069 C 0.52336 0.60851 0.50345 0.0
C4070 C 0.53424 0.62428 0.51636 0.0
C4071 C 0.54558 0.6217 0.53351 0.0
C4072 C 0.54609 0.60258 0.53746 0.0
C4073 C 0.53526 0.58603 0.52448 0.0
C4074 C 0.52349 0.58911 0.50736 0.0
H4075 H 0.67614 0.30747 0.69213 0.0
H4076 H 0.64473 0.25594 0.70978 0.0
H4077 H 0.67296 0.24841 0.72714 0.0
H4078 H 0.71549 0.28612 0.68433 0.0
H4079 H 0.73197 0.3083 0.69435 0.0
H4080 H 0.70937 0.30963 0.68258 0.0
H4081 H 0.70503 0.33061 0.71471 0.0
H4082 H 0.72768 0.32954 0.72647 0.0
H4083 H 0.70847 0.32159 0.73849 0.0
H4084 H 0.70479 0.24561 0.74204 0.0
H4085 H 0.73732 0.25019 0.75694 0.0
H4086 H 0.74871 0.30461 0.73229 0.0
C4087 C 0.67515 0.29467 0.69975 0.0
C4088 C 0.65796 0.28215 0.69913 0.0
C4089 C 0.65755 0.26555 0.7094 0.0
C4090 C 0.6736 0.26115 0.71944 0.0
C4091 C 0.69024 0.27347 0.71935 0.0
C4092 C 0.69116 0.29004 0.71 0.0
C4093 C 0.71088 0.30104 0.71269 0.0
C4094 C 0.7173 0.30129 0.69227 0.0
C4095 C 0.71314 0.32194 0.72375 0.0
C4096 C 0.72077 0.28838 0.72546 0.0
C4097 C 0.7086 0.27227 0.72867 0.0
C4098 C 0.71442 0.25818 0.7396 0.0
C4099 C 0.73301 0.2608 0.74786 0.0
C4100 C 0.74571 0.27758 0.74556 0.0
C4101 C 0.73942 0.29149 0.73408 0.0
H4102 H 0.03892 0.37838 0.97231 0.0
H4103 H 0.01365 0.35305 0.01933 0.0
H4104 H 1.01158 0.38598 0.03447 0.0
H4105 H 0.06666 0.42132 1.00523 0.0
H4106 H 0.0644 0.43724 0.98637 0.0
H4107 H 0.06356 0.41154 0.97899 0.0
H4108 H 0.03222 0.40872 0.95644 0.0
H4109 H 0.03289 0.43436 0.96392 0.0
H4110 H 0.01382 0.41628 0.96734 0.0
H4111 H 1.01058 0.42206 0.04358 0.0
H4112 H 0.01429 0.45829 0.04794 0.0
H4113 H 0.04284 0.46021 0.99718 0.0
C4114 C 0.03322 0.37963 0.98597 0.0
C4115 C 0.02619 0.36275 0.99429 0.0
C4116 C 0.01867 0.36544 0.01214 0.0
C4117 C 0.01754 0.38421 0.02101 0.0
C4118 C 0.02424 0.40039 0.01217 0.0
C4119 C 0.03224 0.39831 0.99525 0.0
C4120 C 0.0388 0.41813 0.98897 0.0
C4121 C 0.05959 0.4223 0.98996 0.0
C4122 C 0.02884 0.41944 0.96792 0.0
C4123 C 0.03324 0.43164 1.00498 0.0
C4124 C 0.02459 0.42113 0.01806 0.0
C4125 C 0.01752 0.43043 0.03354 0.0
C4126 C 0.01959 0.45099 0.03586 0.0
C4127 C 0.02896 0.46206 0.02303 0.0
C4128 C 0.0358 0.45215 0.0074 0.0
H4129 H 0.96699 0.75859 0.18296 0.0
H4130 H 0.9964 0.81687 0.21022 0.0
H4131 H 0.97137 0.82087 0.2286 0.0
H4132 H 0.92199 0.76975 0.1772 0.0
H4133 H 0.91096 0.74679 0.18352 0.0
H4134 H 0.93122 0.74804 0.17234 0.0
H4135 H 0.94685 0.73378 0.20214 0.0
H4136 H 0.92661 0.73242 0.21337 0.0
H4137 H 0.94825 0.74565 0.22743 0.0
H4138 H 0.94326 0.81932 0.24374 0.0
H4139 H 0.91402 0.81182 0.25573 0.0
H4140 H 0.9019 0.7543 0.21971 0.0
C4141 C 0.96824 0.77213 0.19292 0.0
C4142 C 0.98375 0.78753 0.19481 0.0
C4143 C 0.98463 0.805 0.20801 0.0
C4144 C 0.97048 0.80739 0.21869 0.0
C4145 C 0.95537 0.79217 0.21626 0.0
C4146 C 0.95412 0.7748 0.20382 0.0
C4147 C 0.93618 0.76085 0.20406 0.0
C4148 C 0.92439 0.75608 0.18303 0.0
C4149 C 0.93969 0.74206 0.21224 0.0
C4150 C 0.92763 0.77316 0.21853 0.0
C4151 C 0.939 0.79118 0.22527 0.0
C4152 C 0.93422 0.80526 0.23852 0.0
C4153 C 0.91743 0.8009 0.24513 0.0
C4154 C 0.90538 0.78254 0.23859 0.0
C4155 C 0.91072 0.76846 0.2251 0.0
H4156 H 0.5581 0.35819 0.14181 0.0
H4157 H 0.60262 0.33515 0.12097 0.0
H4158 H 0.60882 0.36306 0.10213 0.0
H4159 H 0.54068 0.37137 0.09714 0.0
H4160 H 0.53443 0.39344 0.10776 0.0
H4161 H 0.53558 0.37369 0.12228 0.0
H4162 H 0.55843 0.39734 0.15067 0.0
H4163 H 0.55734 0.41722 0.13617 0.0
H4164 H 0.57904 0.41124 0.14494 0.0
H4165 H 0.60751 0.39081 0.08218 0.0
H4166 H 0.59831 0.41574 0.06209 0.0
H4167 H 0.55456 0.42044 0.09588 0.0
C4168 C 0.56932 0.35918 0.13351 0.0
C4169 C 0.57991 0.34458 0.13285 0.0
C4170 C 0.59451 0.34636 0.12188 0.0
C4171 C 0.59813 0.36215 0.11116 0.0
C4172 C 0.58715 0.37609 0.11177 0.0
C4173 C 0.57312 0.37482 0.12278 0.0
C4174 C 0.56226 0.39063 0.11953 0.0
C4175 C 0.54205 0.38174 0.11117 0.0
C4176 C 0.5644 0.40496 0.13899 0.0
C4177 C 0.57173 0.4003 0.10409 0.0
C4178 C 0.58632 0.39203 0.10016 0.0
C4179 C 0.59634 0.39766 0.0854 0.0
C4180 C 0.59105 0.41183 0.0741 0.0
C4181 C 0.57576 0.41995 0.0775 0.0
C4182 C 0.5663 0.41442 0.093 0.0
H4183 H 0.92937 0.30769 0.33471 0.0
H4184 H 0.93968 0.27498 0.28108 0.0
H4185 H 0.9087 0.27578 0.26366 0.0
H4186 H 0.88638 0.28339 0.33334 0.0
H4187 H 0.87742 0.30423 0.3424 0.0
H4188 H 0.90129 0.30435 0.34891 0.0
H4189 H 0.90907 0.33674 0.33408 0.0
H4190 H 0.88511 0.3367 0.32743 0.0
H4191 H 0.89947 0.33797 0.30849 0.0
H4192 H 0.87546 0.27458 0.25494 0.0
H4193 H 0.84252 0.27172 0.25518 0.0
H4194 H 0.85415 0.30664 0.31403 0.0
C4195 C 0.92518 0.30113 0.31913 0.0
C4196 C 0.93663 0.29124 0.30911 0.0
C4197 C 0.93095 0.2827 0.28882 0.0
C4198 C 0.91349 0.28318 0.27887 0.0
C4199 C 0.90225 0.29265 0.28939 0.0
C4200 C 0.90798 0.30167 0.30902 0.0
C4201 C 0.89278 0.30893 0.31779 0.0
C4202 C 0.88926 0.29966 0.33671 0.0
C4203 C 0.89685 0.33143 0.3222 0.0
C4204 C 0.87723 0.3015 0.30048 0.0
C4205 C 0.88304 0.29245 0.28409 0.0
C4206 C 0.87082 0.28211 0.26739 0.0
C4207 C 0.85219 0.28048 0.2677 0.0
C4208 C 0.84607 0.28921 0.28456 0.0
C4209 C 0.85867 0.30041 0.3008 0.0
H4210 H 0.05872 0.64678 0.62142 0.0
H4211 H 0.05095 0.68634 0.57777 0.0
H4212 H 0.05169 0.6602 0.55042 0.0
H4213 H 0.08834 0.61924 0.59574 0.0
H4214 H 0.0777 0.5962 0.60225 0.0
H4215 H 0.07904 0.61869 0.61866 0.0
H4216 H 0.04398 0.61077 0.6169 0.0
H4217 H 0.04258 0.58826 0.60065 0.0
H4218 H 0.02933 0.60581 0.59273 0.0
H4219 H 0.05072 0.62925 0.52776 0.0
H4220 H 0.04586 0.59498 0.51123 0.0
H4221 H 0.05346 0.57553 0.56965 0.0
C4222 C 0.05761 0.64999 0.60613 0.0
C4223 C 0.05494 0.6685 0.60159 0.0
C4224 C 0.05302 0.67217 0.58143 0.0
C4225 C 0.05356 0.6575 0.56587 0.0
C4226 C 0.056 0.63928 0.57077 0.0
C4227 C 0.0579 0.63544 0.5904 0.0
C4228 C 0.05849 0.61411 0.59143 0.0
C4229 C 0.077 0.61194 0.60269 0.0
C4230 C 0.04265 0.60416 0.60098 0.0
C4231 C 0.05613 0.60649 0.5693 0.0
C4232 C 0.05507 0.62129 0.55764 0.0
C4233 C 0.05177 0.61756 0.53672 0.0
C4234 C 0.04904 0.5981 0.52746 0.0
C4235 C 0.04942 0.58271 0.53919 0.0
C4236 C 0.05343 0.58706 0.56032 0.0
H4237 H 0.61014 0.81191 0.81232 0.0
H4238 H 0.61525 0.7931 0.8711 0.0
H4239 H 0.64304 0.78111 0.86536 0.0
H4240 H 0.62378 0.77317 0.78612 0.0
H4241 H 0.63721 0.78747 0.77109 0.0
H4242 H 0.61854 0.79619 0.78021 0.0
H4243 H 0.64023 0.82865 0.79722 0.0
H4244 H 0.65896 0.82015 0.78791 0.0
H4245 H 0.66052 0.82786 0.8144 0.0
H4246 H 0.66813 0.76863 0.85242 0.0
H4247 H 0.69148 0.7587 0.83396 0.0
H4248 H 0.67127 0.7865 0.78379 0.0
C4249 C 0.61746 0.80571 0.82409 0.0
C4250 C 0.61088 0.80361 0.84225 0.0
C4251 C 0.62044 0.79515 0.8573 0.0
C4252 C 0.63611 0.78821 0.85412 0.0
C4253 C 0.64215 0.79018 0.83595 0.0
C4254 C 0.63341 0.79906 0.82132 0.0
C4255 C 0.64283 0.79911 0.80312 0.0
C4256 C 0.6298 0.78833 0.78401 0.0
C4257 C 0.65113 0.82019 0.80051 0.0
C4258 C 0.65759 0.78795 0.80945 0.0
C4259 C 0.65701 0.78315 0.82853 0.0
C4260 C 0.66896 0.77256 0.8376 0.0
C4261 C 0.68214 0.767 0.82703 0.0
C4262 C 0.68319 0.77198 0.80758 0.0
C4263 C 0.67067 0.78247 0.79862 0.0
H4264 H 0.48811 0.49248 0.65462 0.0
H4265 H 0.48045 0.55115 0.67402 0.0
H4266 H 0.49194 0.56246 0.64446 0.0
H4267 H 0.52981 0.50737 0.63675 0.0
H4268 H 0.52492 0.48836 0.61539 0.0
H4269 H 0.51501 0.4843 0.63744 0.0
H4270 H 0.48281 0.4759 0.61568 0.0
H4271 H 0.49269 0.48003 0.59359 0.0
H4272 H 0.47556 0.49323 0.60019 0.0
H4273 H 0.50593 0.56833 0.61449 0.0
H4274 H 0.52218 0.56844 0.58558 0.0
H4275 H 0.52059 0.50613 0.58393 0.0
C4276 C 0.48863 0.50763 0.65245 0.0
C4277 C 0.48345 0.52095 0.66678 0.0
C4278 C 0.48456 0.54071 0.66348 0.0
C4279 C 0.49095 0.54727 0.64663 0.0
C4280 C 0.49617 0.53393 0.63299 0.0
C4281 C 0.49511 0.51451 0.6356 0.0
C4282 C 0.50248 0.50358 0.61896 0.0
C4283 C 0.51904 0.49543 0.62766 0.0
C4284 C 0.48749 0.48721 0.60636 0.0
C4285 C 0.50802 0.51998 0.60682 0.0
C4286 C 0.50414 0.53731 0.61523 0.0
C4287 C 0.50883 0.55481 0.6076 0.0
C4288 C 0.51804 0.55474 0.59117 0.0
C4289 C 0.52239 0.5373 0.58237 0.0
C4290 C 0.51703 0.51959 0.59009 0.0
H4291 H 0.8103 0.22753 0.95386 0.0
H4292 H 0.80841 0.28235 0.98901 0.0
H4293 H 0.78619 0.28913 0.96145 0.0
H4294 H 0.80127 0.2421 0.90243 0.0
H4295 H 0.78746 0.21815 0.89299 0.0
H4296 H 0.80638 0.22098 0.9132 0.0
H4297 H 0.78408 0.20334 0.93402 0.0
H4298 H 0.76485 0.2018 0.91451 0.0
H4299 H 0.76491 0.21371 0.93946 0.0
H4300 H 0.7618 0.28764 0.93197 0.0
H4301 H 0.74244 0.28223 0.89906 0.0
H4302 H 0.75559 0.2246 0.88696 0.0
C4303 C 0.80602 0.24149 0.95512 0.0
C4304 C 0.81111 0.25466 0.97311 0.0
C4305 C 0.80487 0.27245 0.97495 0.0
C4306 C 0.792 0.27616 0.95961 0.0
C4307 C 0.78564 0.26174 0.94293 0.0
C4308 C 0.79276 0.24499 0.94038 0.0
C4309 C 0.7825 0.23093 0.92215 0.0
C4310 C 0.79515 0.22787 0.90678 0.0
C4311 C 0.77356 0.21129 0.9279 0.0
C4312 C 0.7684 0.24236 0.91483 0.0
C4313 C 0.77049 0.26008 0.92696 0.0
C4314 C 0.76006 0.27384 0.92228 0.0
C4315 C 0.74872 0.27036 0.90356 0.0
C4316 C 0.74801 0.25322 0.88986 0.0
C4317 C 0.75631 0.23815 0.89671 0.0
H4318 H 0.09179 0.52542 0.18737 0.0
H4319 H 0.13066 0.49211 0.16785 0.0
H4320 H 0.11791 0.49302 0.13251 0.0
H4321 H 0.05386 0.50178 0.14819 0.0
H4322 H 0.04513 0.52376 0.14524 0.0
H4323 H 0.05779 0.52123 0.16905 0.0
H4324 H 0.08019 0.55361 0.16844 0.0
H4325 H 0.06762 0.55619 0.14456 0.0
H4326 H 0.09169 0.55635 0.14721 0.0
H4327 H 0.10078 0.49855 0.09748 0.0
H4328 H 0.07969 0.5051 0.0685 0.0
H4329 H 0.05039 0.53269 0.10991 0.0
C4330 C 0.09776 0.51837 0.17574 0.0
C4331 C 0.1125 0.5086 0.18108 0.0
C4332 C 0.1194 0.49951 0.16481 0.0
C4333 C 0.11224 0.50007 0.14441 0.0
C4334 C 0.0978 0.50969 0.13975 0.0
C4335 C 0.09051 0.51852 0.15506 0.0
C4336 C 0.07457 0.52732 0.14597 0.0
C4337 C 0.05679 0.51796 0.1525 0.0
C4338 C 0.07876 0.5497 0.1519 0.0
C4339 C 0.07381 0.52185 0.12329 0.0
C4340 C 0.0876 0.51203 0.11996 0.0
C4341 C 0.08992 0.50613 0.10016 0.0
C4342 C 0.07787 0.51002 0.0836 0.0
C4343 C 0.06316 0.51943 0.08649 0.0
C4344 C 0.06136 0.52541 0.10686 0.0
H4345 H 0.78202 0.83464 0.42896 0.0
H4346 H 0.81983 0.80171 0.45656 0.0
H4347 H 0.82176 0.78541 0.42309 0.0
H4348 H 0.75802 0.79476 0.38816 0.0
H4349 H 0.75546 0.8114 0.37006 0.0
H4350 H 0.75607 0.81957 0.3963 0.0
H4351 H 0.78278 0.8482 0.39549 0.0
H4352 H 0.78239 0.84 0.36934 0.0
H4353 H 0.80315 0.84294 0.38715 0.0
H4354 H 0.8222 0.77523 0.38671 0.0
H4355 H 0.81877 0.76942 0.34969 0.0
H4356 H 0.77921 0.80709 0.34518 0.0
C4357 C 0.79038 0.82368 0.428 0.0
C4358 C 0.80091 0.81962 0.44548 0.0
C4359 C 0.81189 0.80536 0.44345 0.0
C4360 C 0.813 0.79593 0.42448 0.0
C4361 C 0.80291 0.80069 0.40757 0.0
C4362 C 0.79158 0.81399 0.40912 0.0
C4363 C 0.78263 0.81686 0.38844 0.0
C4364 C 0.76181 0.81025 0.38558 0.0
C4365 C 0.78807 0.83827 0.38491 0.0
C4366 C 0.79091 0.80329 0.37509 0.0
C4367 C 0.80266 0.79422 0.38648 0.0
C4368 C 0.81284 0.78203 0.37763 0.0
C4369 C 0.81091 0.77893 0.35661 0.0
C4370 C 0.7987 0.78775 0.34461 0.0
C4371 C 0.78848 0.79997 0.35401 0.0
H4372 H 0.48269 0.53552 0.87999 0.0
H4373 H 0.52354 0.50664 0.85778 0.0
H4374 H 0.53833 0.5069 0.89253 0.0
H4375 H 0.51498 0.56699 0.92371 0.0
H4376 H 0.49789 0.5652 0.93965 0.0
H4377 H 0.49131 0.56444 0.91295 0.0
H4378 H 0.46907 0.53136 0.91144 0.0
H4379 H 0.47568 0.5319 0.93804 0.0
H4380 H 0.47761 0.51114 0.92084 0.0
H4381 H 0.54626 0.50614 0.92886 0.0
H4382 H 0.54869 0.50701 0.96547 0.0
H4383 H 0.50465 0.5389 0.96539 0.0
C4384 C 0.49503 0.52974 0.88238 0.0
C4385 C 0.50178 0.52083 0.86602 0.0
C4386 C 0.51782 0.51314 0.86996 0.0
C4387 C 0.52644 0.51339 0.88967 0.0
C4388 C 0.51914 0.52173 0.90538 0.0
C4389 C 0.50401 0.53011 0.90205 0.0
C4390 C 0.49862 0.53742 0.9218 0.0
C4391 C 0.50083 0.55985 0.92469 0.0
C4392 C 0.47909 0.52735 0.9231 0.0
C4393 C 0.5126 0.53102 0.93667 0.0
C4394 C 0.52432 0.52208 0.92676 0.0
C4395 C 0.53744 0.51347 0.93684 0.0
C4396 C 0.53864 0.51393 0.9576 0.0
C4397 C 0.52694 0.52312 0.96814 0.0
C4398 C 0.51392 0.53207 0.95763 0.0
H4399 H 0.84363 0.27784 0.16524 0.0
H4400 H 0.83575 0.21479 0.1641 0.0
H4401 H 0.81648 0.21665 0.18998 0.0
H4402 H 0.84239 0.28966 0.22091 0.0
H4403 H 0.83072 0.30939 0.2163 0.0
H4404 H 0.84665 0.30329 0.20056 0.0
H4405 H 0.82127 0.29955 0.16952 0.0
H4406 H 0.80493 0.30444 0.18519 0.0
H4407 H 0.80031 0.28202 0.16781 0.0
H4408 H 0.79324 0.224 0.20988 0.0
H4409 H 0.77512 0.2383 0.23285 0.0
H4410 H 0.79861 0.29655 0.22241 0.0
C4411 C 0.83855 0.26461 0.17118 0.0
C4412 C 0.84113 0.24621 0.16268 0.0
C4413 C 0.83417 0.22909 0.1706 0.0
C4414 C 0.82291 0.22993 0.18504 0.0
C4415 C 0.81911 0.24802 0.19158 0.0
C4416 C 0.82734 0.2652 0.1857 0.0
C4417 C 0.82045 0.2826 0.1947 0.0
C4418 C 0.83597 0.29709 0.20898 0.0
C4419 C 0.8112 0.29274 0.17832 0.0
C4420 C 0.80666 0.27236 0.20601 0.0
C4421 C 0.80593 0.25238 0.20368 0.0
C4422 C 0.79395 0.23967 0.21221 0.0
C4423 C 0.78356 0.24784 0.22495 0.0
C4424 C 0.78564 0.26837 0.22924 0.0
C4425 C 0.79652 0.28076 0.21889 0.0
H4426 H 0.09223 0.52231 0.38579 0.0
H4427 H 0.1427 0.50875 0.41442 0.0
H4428 H 0.132 0.51114 0.44678 0.0
H4429 H 0.08756 0.55761 0.42864 0.0
H4430 H 0.06311 0.55037 0.42547 0.0
H4431 H 0.07449 0.54782 0.40409 0.0
H4432 H 0.05955 0.51106 0.39631 0.0
H4433 H 0.04812 0.51351 0.41765 0.0
H4434 H 0.06234 0.4956 0.41553 0.0
H4435 H 0.11612 0.5159 0.47787 0.0
H4436 H 0.09629 0.52059 0.50302 0.0
H4437 H 0.05465 0.53011 0.45628 0.0
C4438 C 0.10116 0.51986 0.3988 0.0
C4439 C 0.11859 0.51496 0.39658 0.0
C4440 C 0.1293 0.51199 0.41466 0.0
C4441 C 0.12332 0.51352 0.43355 0.0
C4442 C 0.10627 0.51814 0.43507 0.0
C4443 C 0.09525 0.52122 0.41812 0.0
C4444 C 0.0774 0.52586 0.42419 0.0
C4445 C 0.07552 0.54665 0.42036 0.0
C4446 C 0.06087 0.5106 0.41273 0.0
C4447 C 0.07996 0.52457 0.44696 0.0
C4448 C 0.09694 0.52039 0.45288 0.0
C4449 C 0.10281 0.51906 0.47315 0.0
C4450 C 0.0913 0.52185 0.48756 0.0
C4451 C 0.07353 0.52575 0.48227 0.0
C4452 C 0.06796 0.52707 0.46132 0.0
H4453 H 0.7914 0.80849 0.63331 0.0
H4454 H 0.82532 0.86419 0.66215 0.0
H4455 H 0.82503 0.85297 0.69513 0.0
H4456 H 0.76354 0.80215 0.67208 0.0
H4457 H 0.76206 0.77603 0.67017 0.0
H4458 H 0.76492 0.78823 0.64857 0.0
H4459 H 0.79373 0.774 0.64506 0.0
H4460 H 0.79101 0.76181 0.6667 0.0
H4461 H 0.81213 0.77825 0.66613 0.0
H4462 H 0.82012 0.83666 0.72527 0.0
H4463 H 0.81168 0.81584 0.75058 0.0
H4464 H 0.78211 0.76953 0.7032 0.0
C4465 C 0.79875 0.81833 0.64657 0.0
C4466 C 0.80855 0.83725 0.64495 0.0
C4467 C 0.818 0.84956 0.66278 0.0
C4468 C 0.81783 0.84335 0.68168 0.0
C4469 C 0.8082 0.82467 0.68273 0.0
C4470 C 0.79886 0.81227 0.6657 0.0
C4471 C 0.78962 0.79289 0.67124 0.0
C4472 C 0.7688 0.78964 0.66515 0.0
C4473 C 0.79707 0.77572 0.66171 0.0
C4474 C 0.79525 0.79639 0.69402 0.0
C4475 C 0.80586 0.81492 0.70025 0.0
C4476 C 0.81207 0.82201 0.72053 0.0
C4477 C 0.80732 0.80996 0.73485 0.0
C4478 C 0.79669 0.79077 0.72901 0.0
C4479 C 0.79061 0.78393 0.70821 0.0
H4480 H 0.69068 0.43897 0.508 0.0
H4481 H 0.66426 0.39106 0.53536 0.0
H4482 H 0.6432 0.41152 0.54662 0.0
H4483 H 0.69078 0.47572 0.54591 0.0
H4484 H 0.68641 0.49383 0.53001 0.0
H4485 H 0.69763 0.47467 0.52158 0.0
H4486 H 0.673 0.46411 0.48955 0.0
H4487 H 0.66183 0.4835 0.49765 0.0
H4488 H 0.64927 0.45855 0.49193 0.0
H4489 H 0.62755 0.43831 0.55795 0.0
H4490 H 0.61679 0.46893 0.56655 0.0
H4491 H 0.654 0.49908 0.53198 0.0
C4492 C 0.68006 0.43257 0.51576 0.0
C4493 C 0.67893 0.4135 0.52076 0.0
C4494 C 0.66526 0.40573 0.53146 0.0
C4495 C 0.65326 0.41719 0.53784 0.0
C4496 C 0.65517 0.43624 0.53328 0.0
C4497 C 0.66807 0.44379 0.52227 0.0
C4498 C 0.66823 0.46511 0.52061 0.0
C4499 C 0.68686 0.47808 0.5301 0.0
C4500 C 0.66275 0.46798 0.49863 0.0
C4501 C 0.6537 0.46852 0.53284 0.0
C4502 C 0.64625 0.45169 0.53992 0.0
C4503 C 0.63313 0.45153 0.5523 0.0
C4504 C 0.62726 0.46901 0.55727 0.0
C4505 C 0.63451 0.48629 0.54981 0.0
C4506 C 0.64801 0.486 0.53761 0.0
H4507 H 0.162 0.11558 0.53348 0.0
H4508 H 0.18118 0.0735 0.49407 0.0
H4509 H 0.15321 0.04943 0.49332 0.0
H4510 H 0.14044 0.08001 0.56242 0.0
H4511 H 0.12108 0.09125 0.56471 0.0
H4512 H 0.14254 0.10602 0.56226 0.0
H4513 H 0.12664 0.11859 0.53145 0.0
H4514 H 0.10513 0.1038 0.53375 0.0
H4515 H 0.11371 0.10122 0.51043 0.0
H4516 H 0.12435 0.02945 0.49665 0.0
H4517 H 0.09516 0.01356 0.50401 0.0
H4518 H 0.09177 0.06683 0.54152 0.0
C4519 C 0.16029 0.10129 0.52471 0.0
C4520 C 0.17395 0.09674 0.5135 0.0
C4521 C 0.17099 0.07776 0.50233 0.0
C4522 C 0.1551 0.06383 0.50192 0.0
C4523 C 0.14196 0.0688 0.51279 0.0
C4524 C 0.14421 0.08699 0.52403 0.0
C4525 C 0.12758 0.08798 0.53434 0.0
C4526 C 0.13325 0.09153 0.5573 0.0
C4527 C 0.11768 0.10385 0.52706 0.0
C4528 C 0.11583 0.06745 0.52716 0.0
C4529 C 0.12466 0.05687 0.51474 0.0
C4530 C 0.11728 0.03759 0.50631 0.0
C4531 C 0.10055 0.02865 0.51068 0.0
C4532 C 0.0909 0.03875 0.52338 0.0
C4533 C 0.09863 0.05866 0.53165 0.0
H4534 H 0.19546 0.95105 0.81526 0.0
H4535 H 0.19003 0.96224 0.75346 0.0
H4536 H 0.20553 0.93506 0.74485 0.0
H4537 H 0.23975 0.94134 0.81866 0.0
H4538 H 0.23616 0.92227 0.83419 0.0
H4539 H 0.2231 0.94132 0.83511 0.0
H4540 H 0.19313 0.91516 0.82658 0.0
H4541 H 0.20611 0.896 0.82566 0.0
H4542 H 0.18933 0.89726 0.80438 0.0
H4543 H 0.22323 0.90804 0.74338 0.0
H4544 H 0.24234 0.88351 0.74926 0.0
H4545 H 0.23691 0.89023 0.8122 0.0
C4546 C 0.19726 0.94753 0.79986 0.0
C4547 C 0.19156 0.95875 0.78502 0.0
C4548 C 0.19444 0.95394 0.76509 0.0
C4549 C 0.20312 0.93845 0.76004 0.0
C4550 C 0.20886 0.92788 0.77508 0.0
C4551 C 0.20605 0.93219 0.79458 0.0
C4552 C 0.21456 0.91934 0.80814 0.0
C4553 C 0.22927 0.93182 0.82502 0.0
C4554 C 0.19991 0.90616 0.81669 0.0
C4555 C 0.22289 0.90742 0.79331 0.0
C4556 C 0.21928 0.91244 0.77428 0.0
C4557 C 0.22608 0.90394 0.75821 0.0
C4558 C 0.23704 0.89012 0.76174 0.0
C4559 C 0.2412 0.88495 0.7812 0.0
C4560 C 0.23379 0.89362 0.79709 0.0
H4561 H 0.35901 0.91538 1.00431 0.0
H4562 H 0.33306 0.95408 0.03957 0.0
H4563 H 0.36092 0.98004 0.04475 0.0
H4564 H 0.4046 0.93134 0.03454 0.0
H4565 H 0.41579 0.92908 0.013 0.0
H4566 H 0.3941 0.91342 0.01292 0.0
H4567 H 0.3808 0.92498 0.98002 0.0
H4568 H 0.4024 0.94072 0.98005 0.0
H4569 H 0.38207 0.95081 0.97923 0.0
H4570 H 0.39065 1.00255 0.04351 0.0
H4571 H 0.42111 0.01904 0.03817 0.0
H4572 H 0.4277 0.96492 1.00507 0.0
C4573 C 0.35927 0.92931 0.01318 0.0
C4574 C 0.34399 0.93289 0.02148 0.0
C4575 C 0.34477 0.95114 0.03319 0.0
C4576 C 0.36046 0.96593 0.03616 0.0
C4577 C 0.37526 0.96204 0.02754 0.0
C4578 C 0.37488 0.94408 0.01653 0.0
C4579 C 0.39252 0.94364 0.00875 0.0
C4580 C 0.40233 0.92847 0.01785 0.0
C4581 C 0.38924 0.93982 0.98564 0.0
C4582 C 0.4027 0.96431 0.01666 0.0
C4583 C 0.39255 0.97474 0.02744 0.0
C4584 C 0.39884 0.99447 0.03533 0.0
C4585 C 0.41602 1.00372 0.03216 0.0
C4586 C 0.42664 0.99312 0.02141 0.0
C4587 C 0.41989 0.9732 0.01364 0.0
H4588 H 0.8718 0.65867 0.75633 0.0
H4589 H 0.83858 0.62282 0.79055 0.0
H4590 H 0.82027 0.64821 0.7944 0.0
H4591 H 0.87201 0.70636 0.78556 0.0
H4592 H 0.87037 0.71885 0.76379 0.0
H4593 H 0.8808 0.69773 0.76366 0.0
H4594 H 0.85821 0.68225 0.73101 0.0
H4595 H 0.8477 0.70339 0.73197 0.0
H4596 H 0.83405 0.6793 0.73097 0.0
H4597 H 0.80359 0.67755 0.79345 0.0
H4598 H 0.79269 0.70837 0.7908 0.0
H4599 H 0.83739 0.72908 0.76039 0.0
C4600 C 0.86065 0.65602 0.76462 0.0
C4601 C 0.85716 0.63801 0.77321 0.0
C4602 C 0.84223 0.636 0.78394 0.0
C4603 C 0.83146 0.65055 0.78614 0.0
C4604 C 0.83535 0.6679 0.77776 0.0
C4605 C 0.84972 0.67083 0.76731 0.0
C4606 C 0.85103 0.69122 0.76024 0.0
C4607 C 0.8697 0.70431 0.76887 0.0
C4608 C 0.84755 0.68891 0.73718 0.0
C4609 C 0.83557 0.69949 0.76875 0.0
C4610 C 0.82643 0.68536 0.77831 0.0
C4611 C 0.81097 0.68868 0.78624 0.0
C4612 C 0.80478 0.70654 0.78463 0.0
C4613 C 0.81402 0.72204 0.77578 0.0
C4614 C 0.82988 0.71813 0.76769 0.0
H4615 H 0.84746 0.58808 0.0245 0.0
H4616 H 0.87289 0.64789 0.02046 0.0
H4617 H 0.90289 0.63855 0.02345 0.0
H4618 H 0.88437 0.57922 0.06134 0.0
H4619 H 0.88217 0.55406 0.05046 0.0
H4620 H 0.86256 0.5654 0.04829 0.0
H4621 H 0.8574 0.55647 0.00961 0.0
H4622 H 0.877 0.54513 0.01166 0.0
H4623 H 0.87566 0.56424 0.99618 0.0
H4624 H 0.93047 0.62274 0.02647 0.0
H4625 H 0.9533 0.60178 0.02958 0.0
H4626 H 0.91048 0.55191 0.03148 0.0
C4627 C 0.85933 0.59928 0.02441 0.0
C4628 C 0.85754 0.61876 0.02195 0.0
C4629 C 0.8736 0.6328 0.02183 0.0
C4630 C 0.89083 0.62766 0.02369 0.0
C4631 C 0.89205 0.60837 0.0258 0.0
C4632 C 0.87675 0.59439 0.02626 0.0
C4633 C 0.88192 0.57464 0.02854 0.0
C4634 C 0.87749 0.56794 0.04834 0.0
C4635 C 0.87243 0.55921 0.01042 0.0
C4636 C 0.90243 0.57967 0.02902 0.0
C4637 C 0.90797 0.59924 0.02752 0.0
C4638 C 0.92623 0.60736 0.02757 0.0
C4639 C 0.93914 0.59521 0.02917 0.0
C4640 C 0.93391 0.57499 0.03063 0.0
C4641 C 0.91517 0.56727 0.03058 0.0
H4642 H 0.21302 0.13825 0.77752 0.0
H4643 H 0.19963 0.15771 0.83543 0.0
H4644 H 0.2198 0.18981 0.83659 0.0
H4645 H 0.25967 0.16155 0.78817 0.0
H4646 H 0.2605 0.16817 0.76342 0.0
H4647 H 0.24441 0.14698 0.76671 0.0
H4648 H 0.21797 0.16105 0.74901 0.0
H4649 H 0.23399 0.18233 0.7457 0.0
H4650 H 0.21511 0.18523 0.75835 0.0
H4651 H 0.24282 0.2192 0.83247 0.0
H4652 H 0.26697 0.24367 0.82315 0.0
H4653 H 0.26447 0.20605 0.7673 0.0
C4654 C 0.21409 0.14934 0.79032 0.0
C4655 C 0.20471 0.14531 0.80644 0.0
C4656 C 0.20683 0.16022 0.82304 0.0
C4657 C 0.21816 0.1786 0.82376 0.0
C4658 C 0.22726 0.18201 0.80772 0.0
C4659 C 0.22532 0.16782 0.79127 0.0
C4660 C 0.23712 0.17504 0.77631 0.0
C4661 C 0.25126 0.16217 0.77349 0.0
C4662 C 0.22534 0.17597 0.75615 0.0
C4663 C 0.24615 0.19541 0.78704 0.0
C4664 C 0.24024 0.19914 0.80513 0.0
C4665 C 0.24736 0.21654 0.81823 0.0
C4666 C 0.26102 0.23036 0.81283 0.0
C4667 C 0.26723 0.2268 0.79441 0.0
C4668 C 0.2596 0.20922 0.78128 0.0
H4669 H 0.37067 0.91831 0.26223 0.0
H4670 H 0.32899 0.94863 0.27993 0.0
H4671 H 0.3107 0.9174 0.28452 0.0
H4672 H 0.33824 0.87413 0.23436 0.0
H4673 H 0.35225 0.85716 0.24206 0.0
H4674 H 0.36269 0.88193 0.23994 0.0
H4675 H 0.37918 0.88664 0.27671 0.0
H4676 H 0.3688 0.8619 0.27894 0.0
H4677 H 0.36604 0.88208 0.29637 0.0
H4678 H 0.2967 0.88302 0.28888 0.0
H4679 H 0.2876 0.84801 0.29133 0.0
H4680 H 0.33626 0.8369 0.26925 0.0
C4681 C 0.35765 0.91846 0.26693 0.0
C4682 C 0.35183 0.93673 0.2711 0.0
C4683 C 0.33449 0.93555 0.27719 0.0
C4684 C 0.32373 0.9176 0.2797 0.0
C4685 C 0.32997 0.9002 0.2759 0.0
C4686 C 0.34645 0.90033 0.26945 0.0
C4687 C 0.34965 0.87915 0.26645 0.0
C4688 C 0.35078 0.87271 0.24439 0.0
C4689 C 0.36695 0.87734 0.28045 0.0
C4690 C 0.33251 0.86727 0.27235 0.0
C4691 C 0.32146 0.87995 0.27779 0.0
C4692 C 0.30524 0.87303 0.28449 0.0
C4693 C 0.30015 0.85289 0.28586 0.0
C4694 C 0.31092 0.83915 0.2804 0.0
C4695 C 0.32739 0.84665 0.27331 0.0
H4696 H 0.53794 0.39013 0.588 0.0
H4697 H 0.59087 0.38454 0.57321 0.0
H4698 H 0.59251 0.41492 0.55809 0.0
H4699 H 0.52187 0.40894 0.54183 0.0
H4700 H 0.50997 0.42548 0.55426 0.0
H4701 H 0.51269 0.40309 0.56393 0.0
H4702 H 0.52779 0.42298 0.59858 0.0
H4703 H 0.52516 0.44542 0.58901 0.0
H4704 H 0.54738 0.44239 0.60023 0.0
H4705 H 0.58926 0.44688 0.54563 0.0
H4706 H 0.58112 0.47778 0.53658 0.0
H4707 H 0.52933 0.46218 0.55674 0.0
C4708 C 0.54981 0.39509 0.58138 0.0
C4709 C 0.5644 0.38474 0.58222 0.0
C4710 C 0.57967 0.39217 0.57341 0.0
C4711 C 0.58068 0.40944 0.56454 0.0
C4712 C 0.56624 0.41931 0.56423 0.0
C4713 C 0.55101 0.41236 0.57228 0.0
C4714 C 0.53746 0.42599 0.57002 0.0
C4715 C 0.51943 0.41523 0.55672 0.0
C4716 C 0.53426 0.43471 0.59069 0.0
C4717 C 0.54754 0.44172 0.55965 0.0
C4718 C 0.56416 0.43757 0.55653 0.0
C4719 C 0.57629 0.45028 0.54802 0.0
C4720 C 0.57152 0.4678 0.54285 0.0
C4721 C 0.55449 0.47238 0.54565 0.0
C4722 C 0.5423 0.45897 0.55403 0.0
H4723 H 0.40979 0.74081 0.36041 0.0
H4724 H 0.42951 0.80219 0.38459 0.0
H4725 H 0.39958 0.80933 0.37145 0.0
H4726 H 0.38401 0.74933 0.31476 0.0
H4727 H 0.36574 0.72859 0.31364 0.0
H4728 H 0.38838 0.72814 0.32591 0.0
H4729 H 0.37587 0.72102 0.35837 0.0
H4730 H 0.35319 0.72154 0.34619 0.0
H4731 H 0.36303 0.73737 0.36947 0.0
H4732 H 0.3673 0.81006 0.35472 0.0
H4733 H 0.33639 0.80438 0.33429 0.0
H4734 H 0.33763 0.74274 0.32066 0.0
C4735 C 0.40773 0.7557 0.36314 0.0
C4736 C 0.42212 0.77092 0.37361 0.0
C4737 C 0.41885 0.79028 0.37652 0.0
C4738 C 0.40181 0.79448 0.36919 0.0
C4739 C 0.38798 0.77922 0.35883 0.0
C4740 C 0.39079 0.76022 0.3557 0.0
C4741 C 0.37395 0.74669 0.34318 0.0
C4742 C 0.37828 0.73766 0.32319 0.0
C4743 C 0.36605 0.73071 0.35501 0.0
C4744 C 0.36127 0.76099 0.33981 0.0
C4745 C 0.36956 0.77968 0.34905 0.0
C4746 C 0.36067 0.79544 0.34752 0.0
C4747 C 0.34304 0.79208 0.33596 0.0
C4748 C 0.33444 0.77313 0.32594 0.0
C4749 C 0.34368 0.75739 0.32826 0.0
H4750 H 0.03559 0.67549 0.06198 0.0
H4751 H 0.09112 0.68926 0.09483 0.0
H4752 H 0.09434 0.65547 0.08495 0.0
H4753 H 0.02402 0.62774 0.07609 0.0
H4754 H 1.01037 0.6167 0.05214 0.0
H4755 H 0.01261 0.64248 0.06043 0.0
H4756 H 0.02424 0.65047 0.02774 0.0
H4757 H 0.02206 0.62468 0.01939 0.0
H4758 H 0.0436 0.64121 0.02104 0.0
H4759 H 0.09184 0.62019 0.07212 0.0
H4760 H 0.08301 0.585 0.05882 0.0
H4761 H 0.0285 0.59261 0.03588 0.0
C4762 C 0.04844 0.67145 0.0671 0.0
C4763 C 0.06321 0.68543 0.07893 0.0
C4764 C 0.07975 0.67927 0.08525 0.0
C4765 C 0.0817 0.65996 0.07984 0.0
C4766 C 0.06698 0.64669 0.06818 0.0
C4767 C 0.05062 0.65207 0.06195 0.0
C4768 C 0.03677 0.63456 0.0501 0.0
C4769 C 0.01995 0.63011 0.06031 0.0
C4770 C 0.03135 0.63794 0.02828 0.0
C4771 C 0.04781 0.61848 0.05115 0.0
C4772 C 0.0653 0.62595 0.06135 0.0
C4773 C 0.07817 0.61416 0.06411 0.0
C4774 C 0.07303 0.59416 0.05642 0.0
C4775 C 0.05506 0.58596 0.04631 0.0
C4776 C 0.04232 0.59839 0.04361 0.0
H4777 H 0.11331 0.25516 0.87917 0.0
H4778 H 0.09813 0.31048 0.86864 0.0
H4779 H 0.1251 0.31897 0.85273 0.0
H4780 H 0.16219 0.27319 0.88962 0.0
H4781 H 0.16737 0.25148 0.87676 0.0
H4782 H 0.14712 0.24978 0.88799 0.0
H4783 H 0.12739 0.23352 0.8538 0.0
H4784 H 0.14759 0.23512 0.84249 0.0
H4785 H 0.12901 0.24577 0.83202 0.0
H4786 H 0.15362 0.32156 0.83738 0.0
H4787 H 0.1809 0.31756 0.82287 0.0
H4788 H 0.17794 0.2604 0.8425 0.0
C4789 C 0.11554 0.26902 0.87343 0.0
C4790 C 0.10345 0.28219 0.8755 0.0
C4791 C 0.1072 0.30024 0.86781 0.0
C4792 C 0.1225 0.30518 0.85855 0.0
C4793 C 0.1341 0.29196 0.85689 0.0
C4794 C 0.1308 0.2742 0.86403 0.0
C4795 C 0.14534 0.26253 0.85998 0.0
C4796 C 0.15614 0.25904 0.87977 0.0
C4797 C 0.13682 0.24308 0.84626 0.0
C4798 C 0.15721 0.27643 0.8493 0.0
C4799 C 0.1505 0.29337 0.84782 0.0
C4800 C 0.15902 0.30838 0.83855 0.0
C4801 C 0.17468 0.30601 0.83047 0.0
C4802 C 0.18186 0.28873 0.83157 0.0
C4803 C 0.17288 0.27377 0.84122 0.0
H4804 H 0.50938 0.69144 0.92318 0.0
H4805 H 0.52735 0.74083 0.97076 0.0
H4806 H 0.52642 0.71819 0.99615 0.0
H4807 H 0.47946 0.65993 0.94999 0.0
H4808 H 0.48604 0.63785 0.93994 0.0
H4809 H 0.48609 0.65793 0.92556 0.0
H4810 H 0.51996 0.65856 0.92277 0.0
H4811 H 0.51999 0.6385 0.93711 0.0
H4812 H 0.5365 0.66103 0.94533 0.0
H4813 H 0.52521 0.69072 0.01598 0.0
H4814 H 0.52587 0.65972 0.02952 0.0
H4815 H 0.5097 0.62755 0.96919 0.0
C4816 C 0.51281 0.69736 0.93899 0.0
C4817 C 0.51828 0.71773 0.94524 0.0
C4818 C 0.52308 0.72519 0.96589 0.0
C4819 C 0.5225 0.71249 0.98034 0.0
C4820 C 0.51722 0.69242 0.97377 0.0
C4821 C 0.51257 0.68484 0.95361 0.0
C4822 C 0.50887 0.66262 0.95063 0.0
C4823 C 0.48892 0.65408 0.94096 0.0
C4824 C 0.52212 0.65472 0.93823 0.0
C4825 C 0.51258 0.65897 0.97225 0.0
C4826 C 0.51703 0.67638 0.98531 0.0
C4827 C 0.52156 0.67696 0.00596 0.0
C4828 C 0.52181 0.65926 0.0135 0.0
C4829 C 0.5177 0.64123 1.00042 0.0
C4830 C 0.51288 0.64112 0.97953 0.0
H4831 H 0.14963 0.73668 0.72808 0.0
H4832 H 0.13674 0.76951 0.78037 0.0
H4833 H 0.16833 0.77266 0.79777 0.0
H4834 H 0.18167 0.71054 0.75654 0.0
H4835 H 0.19625 0.71198 0.73782 0.0
H4836 H 0.17205 0.71008 0.73059 0.0
H4837 H 0.17814 0.7417 0.71409 0.0
H4838 H 0.20228 0.74376 0.72135 0.0
H4839 H 0.19173 0.76385 0.72893 0.0
H4840 H 0.20185 0.77644 0.80721 0.0
H4841 H 0.23501 0.77945 0.80854 0.0
H4842 H 0.22558 0.7424 0.75113 0.0
C4843 C 0.15317 0.74387 0.74348 0.0
C4844 C 0.14067 0.75275 0.75291 0.0
C4845 C 0.14614 0.76271 0.7728 0.0
C4846 C 0.16398 0.76441 0.78287 0.0
C4847 C 0.17602 0.75579 0.77293 0.0
C4848 C 0.1708 0.7455 0.75378 0.0
C4849 C 0.18671 0.73904 0.74576 0.0
C4850 C 0.184 0.71657 0.74249 0.0
C4851 C 0.18989 0.74761 0.7264 0.0
C4852 C 0.20188 0.74802 0.76307 0.0
C4853 C 0.19539 0.75747 0.77867 0.0
C4854 C 0.20702 0.76865 0.79536 0.0
C4855 C 0.22577 0.77039 0.79596 0.0
C4856 C 0.23264 0.76097 0.7801 0.0
C4857 C 0.22057 0.7493 0.76367 0.0
H4858 H 1.011 0.38707 0.46454 0.0
H4859 H 0.06377 0.40161 0.44584 0.0
H4860 H 0.0714 0.43177 0.47004 0.0
H4861 H 1.0033 0.43649 0.46858 0.0
H4862 H 0.99194 0.43444 0.48998 0.0
H4863 H 0.99093 0.41301 0.47222 0.0
H4864 H 1.00384 0.39568 0.50116 0.0
H4865 H 1.00513 0.41719 0.51898 0.0
H4866 H 0.0252 0.40712 0.51706 0.0
H4867 H 0.07388 0.45971 0.4958 0.0
H4868 H 0.06934 0.48741 0.51882 0.0
H4869 H 0.01406 0.45737 0.51932 0.0
C4870 C 0.02412 0.39663 0.46545 0.0
C4871 C 0.03698 0.39161 0.45361 0.0
C4872 C 0.05395 0.40465 0.45524 0.0
C4873 C 0.0584 0.42192 0.46888 0.0
C4874 C 0.04566 0.42615 0.4806 0.0
C4875 C 0.02872 0.41419 0.47881 0.0
C4876 C 0.01717 0.42307 0.49238 0.0
C4877 C 0.99981 0.42699 0.48005 0.0
C4878 C 0.01257 0.40998 0.50834 0.0
C4879 C 0.03026 0.44202 0.5018 0.0
C4880 C 0.04673 0.44313 0.49502 0.0
C4881 C 0.06109 0.45907 0.50126 0.0
C4882 C 0.05841 0.47463 0.51437 0.0
C4883 C 0.04144 0.47427 0.52083 0.0
C4884 C 0.02722 0.45771 0.51476 0.0
H4885 H 0.47895 0.28252 0.24338 0.0
H4886 H 0.45404 0.2223 0.21762 0.0
H4887 H 0.42923 0.22369 0.23705 0.0
H4888 H 0.4658 0.28229 0.29236 0.0
H4889 H 0.46074 0.3065 0.29325 0.0
H4890 H 0.47785 0.30011 0.27934 0.0
H4891 H 0.46091 0.30997 0.24727 0.0
H4892 H 0.44386 0.31655 0.2611 0.0
H4893 H 0.43721 0.29901 0.2385 0.0
H4894 H 0.40624 0.23212 0.25778 0.0
H4895 H 0.38516 0.24802 0.27523 0.0
H4896 H 0.424 0.30322 0.28555 0.0
C4897 C 0.46829 0.26958 0.24159 0.0
C4898 C 0.46872 0.25223 0.22896 0.0
C4899 C 0.45444 0.23565 0.2275 0.0
C4900 C 0.44019 0.2363 0.23845 0.0
C4901 C 0.44023 0.25368 0.25062 0.0
C4902 C 0.45378 0.27009 0.25203 0.0
C4903 C 0.44978 0.28752 0.26463 0.0
C4904 C 0.46442 0.29451 0.28352 0.0
C4905 C 0.44782 0.30424 0.25213 0.0
C4906 C 0.43172 0.2784 0.26991 0.0
C4907 C 0.42662 0.25878 0.26198 0.0
C4908 C 0.41014 0.24743 0.26418 0.0
C4909 C 0.39831 0.25654 0.27422 0.0
C4910 C 0.40289 0.2768 0.28174 0.0
C4911 C 0.42005 0.28771 0.27993 0.0
H4912 H 0.5824 0.51042 0.39306 0.0
H4913 H 0.61568 0.56877 0.41167 0.0
H4914 H 0.60689 0.56908 0.44514 0.0
H4915 H 0.54581 0.51834 0.41938 0.0
H4916 H 0.5416 0.49409 0.42639 0.0
H4917 H 0.55084 0.49805 0.4039 0.0
H4918 H 0.57816 0.48263 0.41678 0.0
H4919 H 0.56903 0.47872 0.43936 0.0
H4920 H 0.59188 0.49244 0.441 0.0
H4921 H 0.59464 0.56351 0.47652 0.0
H4922 H 0.5781 0.55319 0.50335 0.0
H4923 H 0.55222 0.49838 0.46533 0.0
C4924 C 0.58793 0.5232 0.40423 0.0
C4925 C 0.59972 0.53964 0.39958 0.0
C4926 C 0.60645 0.55613 0.41464 0.0
C4927 C 0.60165 0.55638 0.43381 0.0
C4928 C 0.59004 0.54004 0.43788 0.0
C4929 C 0.58315 0.52377 0.42353 0.0
C4930 C 0.57043 0.50843 0.4318 0.0
C4931 C 0.55102 0.5045 0.41965 0.0
C4932 C 0.57782 0.48943 0.43226 0.0
C4933 C 0.57121 0.51871 0.45296 0.0
C4934 C 0.58276 0.53686 0.45611 0.0
C4935 C 0.5856 0.5493 0.47425 0.0
C4936 C 0.57618 0.54326 0.48947 0.0
C4937 C 0.56394 0.52493 0.48658 0.0
C4938 C 0.56161 0.5124 0.4681 0.0
H4939 H 0.29962 0.79729 0.07886 0.0
H4940 H 0.24323 0.78834 0.08753 0.0
H4941 H 0.25198 0.77839 0.12045 0.0
H4942 H 0.3137 0.75798 0.11025 0.0
H4943 H 0.33561 0.77376 0.11966 0.0
H4944 H 0.32426 0.77404 0.0945 0.0
H4945 H 0.32723 0.81153 0.10302 0.0
H4946 H 0.33764 0.81136 0.12848 0.0
H4947 H 0.31722 0.8211 0.12354 0.0
H4948 H 0.267 0.77947 0.15458 0.0
H4949 H 0.28733 0.78262 0.18698 0.0
H4950 H 0.33448 0.79025 0.15715 0.0
C4951 C 0.28907 0.79228 0.08736 0.0
C4952 C 0.27083 0.7936 0.08091 0.0
C4953 C 0.25725 0.78717 0.09222 0.0
C4954 C 0.26212 0.78163 0.11098 0.0
C4955 C 0.2805 0.78234 0.11782 0.0
C4956 C 0.29376 0.78678 0.10614 0.0
C4957 C 0.31272 0.78896 0.11807 0.0
C4958 C 0.32212 0.77271 0.11015 0.0
C4959 C 0.32437 0.80945 0.11828 0.0
C4960 C 0.30802 0.78629 0.13853 0.0
C4961 C 0.28935 0.78249 0.13794 0.0
C4962 C 0.2816 0.78171 0.15518 0.0
C4963 C 0.29323 0.7839 0.17347 0.0
C4964 C 0.31231 0.78673 0.17427 0.0
C4965 C 0.31989 0.78806 0.15669 0.0
H4966 H 0.99189 0.55989 0.88456 0.0
H4967 H 0.94619 0.51144 0.88048 0.0
H4968 H 0.95849 0.50518 0.91409 0.0
H4969 H 0.02609 0.53745 0.91101 0.0
H4970 H 0.03809 0.55966 0.92702 0.0
H4971 H 0.02562 0.56089 0.90266 0.0
H4972 H 1.00726 0.58404 0.91912 0.0
H4973 H 0.01968 0.58285 0.94354 0.0
H4974 H 0.99513 0.57647 0.93875 0.0
H4975 H 0.97595 0.50382 0.94963 0.0
H4976 H 0.99725 0.50692 0.98172 0.0
H4977 H 0.03253 0.55553 0.96404 0.0
C4978 C 0.98434 0.548 0.89068 0.0
C4979 C 0.96787 0.53608 0.87898 0.0
C4980 C 0.95888 0.5207 0.88823 0.0
C4981 C 0.96576 0.51706 0.9077 0.0
C4982 C 0.98194 0.52882 0.91856 0.0
C4983 C 0.99116 0.54401 0.91034 0.0
C4984 C 1.00846 0.55425 0.92527 0.0
C4985 C 0.02558 0.55298 0.91593 0.0
C4986 C 1.00758 0.57568 0.93207 0.0
C4987 C 1.00767 0.54231 0.94289 0.0
C4988 C 0.99207 0.52784 0.93877 0.0
C4989 C 0.98819 0.51513 0.95282 0.0
C4990 C 1.00044 0.51704 0.97123 0.0
C4991 C 0.01682 0.53143 0.9759 0.0
C4992 C 0.02025 0.54428 0.96127 0.0
H4993 H 0.29256 0.24466 0.62431 0.0
H4994 H 0.25592 0.1889 0.62306 0.0
H4995 H 0.25391 0.19783 0.65835 0.0
H4996 H 0.31754 0.24533 0.67435 0.0
H4997 H 0.32034 0.27141 0.68142 0.0
H4998 H 0.31846 0.26138 0.65544 0.0
H4999 H 0.29136 0.27833 0.64604 0.0
H5000 H 0.29309 0.28832 0.67202 0.0
H5001 H 0.27182 0.27376 0.65839 0.0
H5002 H 0.25433 0.21259 0.69291 0.0
H5003 H 0.26035 0.23112 0.72701 0.0
H5004 H 0.29926 0.27619 0.70864 0.0
C5005 C 0.28417 0.2343 0.63147 0.0
C5006 C 0.27394 0.21626 0.62047 0.0
C5007 C 0.2633 0.20313 0.63065 0.0
C5008 C 0.26217 0.20797 0.65087 0.0
C5009 C 0.27202 0.22591 0.66106 0.0
C5010 C 0.28308 0.2388 0.65194 0.0
C5011 C 0.29269 0.25682 0.66693 0.0
C5012 C 0.31349 0.25884 0.6697 0.0
C5013 C 0.28689 0.27541 0.66046 0.0
C5014 C 0.28541 0.25179 0.68583 0.0
C5015 C 0.27321 0.23404 0.68181 0.0
C5016 C 0.26396 0.22643 0.69633 0.0
C5017 C 0.26739 0.23711 0.71561 0.0
C5018 C 0.28023 0.255 0.72038 0.0
C5019 C 0.28944 0.26246 0.70533 0.0
H5020 H 0.58493 0.55855 0.1896 0.0
H5021 H 0.58483 0.49763 0.19601 0.0
H5022 H 0.57441 0.48824 0.15956 0.0
H5023 H 0.54418 0.54846 0.1502 0.0
H5024 H 0.55295 0.56808 0.13709 0.0
H5025 H 0.55968 0.57003 0.16389 0.0
H5026 H 0.59361 0.57602 0.15968 0.0
H5027 H 0.58699 0.57395 0.13287 0.0
H5028 H 0.60136 0.55842 0.1433 0.0
H5029 H 0.56589 0.4855 0.12243 0.0
H5030 H 0.55772 0.48914 0.08692 0.0
H5031 H 0.56248 0.55179 0.10378 0.0
C5032 C 0.58259 0.54323 0.18331 0.0
C5033 C 0.58561 0.5288 0.19573 0.0
C5034 C 0.58234 0.5089 0.18692 0.0
C5035 C 0.57653 0.50343 0.16618 0.0
C5036 C 0.57387 0.51799 0.15437 0.0
C5037 C 0.57656 0.53745 0.16258 0.0
C5038 C 0.57266 0.5501 0.14636 0.0
C5039 C 0.5564 0.55974 0.14958 0.0
C5040 C 0.58967 0.56553 0.14551 0.0
C5041 C 0.56786 0.53476 0.12774 0.0
C5042 C 0.56862 0.51634 0.13279 0.0
C5043 C 0.56511 0.49982 0.11829 0.0
C5044 C 0.56052 0.50209 0.0981 0.0
C5045 C 0.55942 0.52077 0.09243 0.0
C5046 C 0.56319 0.53731 0.10755 0.0
H5047 H 0.23497 0.81305 0.89295 0.0
H5048 H 0.23729 0.76162 0.92234 0.0
H5049 H 0.25466 0.74926 0.89739 0.0
H5050 H 0.23145 0.78859 0.84143 0.0
H5051 H 0.24584 0.80916 0.83402 0.0
H5052 H 0.23173 0.81316 0.85258 0.0
H5053 H 0.25929 0.83222 0.87794 0.0
H5054 H 0.27424 0.82874 0.86013 0.0
H5055 H 0.2786 0.82107 0.8845 0.0
H5056 H 0.27742 0.74685 0.87499 0.0
H5057 H 0.29362 0.74628 0.84611 0.0
H5058 H 0.27463 0.79804 0.83012 0.0
C5059 C 0.23807 0.79858 0.89331 0.0
C5060 C 0.23504 0.78827 0.90948 0.0
C5061 C 0.23951 0.76955 0.90984 0.0
C5062 C 0.24975 0.76271 0.8961 0.0
C5063 C 0.25473 0.77461 0.88198 0.0
C5064 C 0.24832 0.79162 0.8798 0.0
C5065 C 0.25587 0.80182 0.86354 0.0
C5066 C 0.24033 0.80324 0.84685 0.0
C5067 C 0.2677 0.82216 0.87205 0.0
C5068 C 0.26747 0.78774 0.85683 0.0
C5069 C 0.2672 0.77265 0.86828 0.0
C5070 C 0.27747 0.75833 0.86561 0.0
C5071 C 0.2869 0.75837 0.84947 0.0
C5072 C 0.28553 0.77232 0.83614 0.0
C5073 C 0.27652 0.78774 0.84043 0.0
H5074 H 0.98466 0.52365 0.67442 0.0
H5075 H 0.94325 0.5548 0.65163 0.0
H5076 H 0.95464 0.55431 0.61953 0.0
H5077 H 0.02075 0.54858 0.65041 0.0
H5078 H 0.03012 0.52717 0.64444 0.0
H5079 H 0.01852 0.52916 0.6657 0.0
H5080 H 0.99675 0.49614 0.65136 0.0
H5081 H 1.00828 0.49407 0.63005 0.0
H5082 H 0.98402 0.49289 0.62625 0.0
H5083 H 0.97005 0.54961 0.58804 0.0
H5084 H 0.98921 0.54384 0.56245 0.0
H5085 H 0.02299 0.51764 0.60432 0.0
C5086 C 0.97787 0.53035 0.66271 0.0
C5087 C 0.96276 0.53944 0.66638 0.0
C5088 C 0.95481 0.54798 0.65009 0.0
C5089 C 0.9612 0.54766 0.63143 0.0
C5090 C 0.97599 0.53883 0.62845 0.0
C5091 C 0.98438 0.53044 0.64375 0.0
C5092 C 1.00042 0.52239 0.63653 0.0
C5093 C 0.01853 0.53242 0.65008 0.0
C5094 C 0.99718 0.50004 0.63603 0.0
C5095 C 0.99989 0.52777 0.61504 0.0
C5096 C 0.98537 0.53691 0.61065 0.0
C5097 C 0.98149 0.54257 0.5916 0.0
C5098 C 0.99254 0.53909 0.57689 0.0
C5099 C 1.00797 0.53024 0.58073 0.0
C5100 C 1.01155 0.52457 0.60045 0.0
H5101 H 0.27122 0.24177 0.42443 0.0
H5102 H 0.29245 0.18974 0.40809 0.0
H5103 H 0.2969 0.20048 0.37562 0.0
H5104 H 0.24732 0.24419 0.37451 0.0
H5105 H 0.25304 0.27054 0.37678 0.0
H5106 H 0.25108 0.25885 0.39886 0.0
H5107 H 0.28378 0.27694 0.41504 0.0
H5108 H 0.28581 0.28871 0.39303 0.0
H5109 H 0.3024 0.27471 0.40173 0.0
H5110 H 0.29896 0.21619 0.34486 0.0
H5111 H 0.29992 0.23699 0.31807 0.0
H5112 H 0.2782 0.27986 0.35315 0.0
C5113 C 0.27671 0.23262 0.41395 0.0
C5114 C 0.28155 0.21486 0.41898 0.0
C5115 C 0.28885 0.20346 0.40483 0.0
C5116 C 0.29134 0.20939 0.38624 0.0
C5117 C 0.28656 0.2269 0.3818 0.0
C5118 C 0.27952 0.23848 0.39523 0.0
C5119 C 0.27602 0.25692 0.38664 0.0
C5120 C 0.25565 0.25766 0.38405 0.0
C5121 C 0.2877 0.27542 0.3999 0.0
C5122 C 0.28216 0.2538 0.36633 0.0
C5123 C 0.28803 0.23625 0.36392 0.0
C5124 C 0.29427 0.22988 0.34655 0.0
C5125 C 0.29457 0.24169 0.33124 0.0
C5126 C 0.28877 0.2598 0.33317 0.0
C5127 C 0.28258 0.266 0.35111 0.0
H5128 H 0.41158 0.63761 0.53974 0.0
H5129 H 0.36198 0.59926 0.54735 0.0
H5130 H 0.37408 0.57041 0.5354 0.0
H5131 H 0.41865 0.60936 0.49454 0.0
H5132 H 0.44307 0.61416 0.50193 0.0
H5133 H 0.43023 0.63181 0.51041 0.0
H5134 H 0.44396 0.63078 0.54741 0.0
H5135 H 0.45697 0.6133 0.53903 0.0
H5136 H 0.44197 0.60755 0.55675 0.0
H5137 H 0.39169 0.54595 0.52325 0.0
H5138 H 0.41491 0.52725 0.5147 0.0
H5139 H 0.45274 0.58172 0.51465 0.0
C5140 C 0.40325 0.62313 0.53875 0.0
C5141 C 0.3859 0.62055 0.54442 0.0
C5142 C 0.37542 0.60144 0.54325 0.0
C5143 C 0.38208 0.58503 0.53629 0.0
C5144 C 0.39918 0.58808 0.5306 0.0
C5145 C 0.40969 0.60663 0.53191 0.0
C5146 C 0.42796 0.60587 0.52578 0.0
C5147 C 0.43009 0.61589 0.50705 0.0
C5148 C 0.44364 0.6149 0.54329 0.0
C5149 C 0.42618 0.58395 0.5211 0.0
C5150 C 0.40939 0.57396 0.52371 0.0
C5151 C 0.40484 0.55357 0.52099 0.0
C5152 C 0.41803 0.54308 0.516 0.0
C5153 C 0.43551 0.55309 0.51399 0.0
C5154 C 0.43945 0.57375 0.51612 0.0
H5155 H 0.90373 0.96744 0.52973 0.0
H5156 H 0.91969 0.92888 0.57176 0.0
H5157 H 0.9519 0.94429 0.57362 0.0
H5158 H 0.94211 0.96735 0.50277 0.0
H5159 H 0.94445 0.99281 0.49954 0.0
H5160 H 0.92247 0.97867 0.50121 0.0
H5161 H 0.91968 1.00404 0.53076 0.0
H5162 H 0.94163 0.01826 0.52917 0.0
H5163 H 0.93741 1.0101 0.55256 0.0
H5164 H 0.98262 0.96506 0.57253 0.0
H5165 H 1.00939 0.98901 0.56754 0.0
H5166 H 0.97454 0.01308 0.52475 0.0
C5167 C 0.91397 0.96207 0.53919 0.0
C5168 C 0.90887 0.94696 0.5508 0.0
C5169 C 0.92293 0.94066 0.56306 0.0
C5170 C 0.9414 0.94924 0.5641 0.0
C5171 C 0.9459 0.96416 0.55269 0.0
C5172 C 0.93261 0.97049 0.54037 0.0
C5173 C 0.94123 0.98702 0.52991 0.0
C5174 C 0.93733 0.9811 0.507 0.0
C5175 C 0.93459 1.00598 0.53597 0.0
C5176 C 0.96139 0.98898 0.53828 0.0
C5177 C 0.96373 0.97568 0.55149 0.0
C5178 C 0.98095 0.97532 0.56198 0.0
C5179 C 0.9961 0.98893 0.55902 0.0
C5180 C 0.99413 1.00251 0.54539 0.0
C5181 C 0.97651 1.00247 0.53484 0.0
H5182 H 0.88581 0.09327 0.29256 0.0
H5183 H 0.91295 0.10332 0.24163 0.0
H5184 H 0.90186 0.13416 0.23978 0.0
H5185 H 0.84639 0.109 0.27506 0.0
H5186 H 0.84351 0.12088 0.29898 0.0
H5187 H 0.85544 0.10091 0.298 0.0
H5188 H 0.8835 0.12288 0.32154 0.0
H5189 H 0.87161 0.14296 0.32261 0.0
H5190 H 0.89358 0.14603 0.31482 0.0
H5191 H 0.88568 0.16224 0.2414 0.0
H5192 H 0.86452 0.18483 0.24564 0.0
H5193 H 0.84811 0.15697 0.29572 0.0
C5194 C 0.88974 0.10219 0.28131 0.0
C5195 C 0.90017 0.09582 0.26717 0.0
C5196 C 0.90476 0.10775 0.25245 0.0
C5197 C 0.89869 0.1254 0.2514 0.0
C5198 C 0.88813 0.13106 0.26528 0.0
C5199 C 0.88375 0.11987 0.28003 0.0
C5200 C 0.87112 0.12859 0.29217 0.0
C5201 C 0.85305 0.11398 0.29096 0.0
C5202 C 0.88052 0.13553 0.31408 0.0
C5203 C 0.86839 0.14584 0.28129 0.0
C5204 C 0.87866 0.14727 0.26613 0.0
C5205 C 0.87775 0.16145 0.2534 0.0
C5206 C 0.86574 0.17427 0.25595 0.0
C5207 C 0.85464 0.17265 0.27096 0.0
C5208 C 0.85634 0.15849 0.28403 0.0
H5209 H 0.73608 0.12235 0.0752 0.0
H5210 H 0.72614 0.13368 0.01348 0.0
H5211 H 0.69798 0.10834 0.00681 0.0
H5212 H 0.71894 0.07016 0.0655 0.0
H5213 H 0.7084 0.06953 0.0876 0.0
H5214 H 0.72829 0.08802 0.0875 0.0
H5215 H 0.71084 0.11535 0.09713 0.0
H5216 H 0.69104 0.09693 0.09759 0.0
H5217 H 0.68936 0.11586 0.08196 0.0
H5218 H 0.67074 0.08249 0.00691 0.0
H5219 H 0.64466 0.05958 0.01462 0.0
H5220 H 0.67183 0.06556 0.07641 0.0
C5221 C 0.72792 0.11962 0.06033 0.0
C5222 C 0.73342 0.12987 0.04481 0.0
C5223 C 0.72239 0.12575 0.0255 0.0
C5224 C 0.70636 0.11141 0.02157 0.0
C5225 C 0.70152 0.10136 0.0371 0.0
C5226 C 0.71183 0.1054 0.05615 0.0
C5227 C 0.70312 0.09306 0.07039 0.0
C5228 C 0.71542 0.07938 0.0782 0.0
C5229 C 0.6983 0.10608 0.08779 0.0
C5230 C 0.68619 0.08163 0.0564 0.0
C5231 C 0.68564 0.08651 0.03722 0.0
C5232 C 0.67102 0.07848 0.02185 0.0
C5233 C 0.65631 0.06553 0.02636 0.0
C5234 C 0.65634 0.06085 0.04608 0.0
C5235 C 0.67165 0.06865 0.06114 0.0
H5236 H 0.23898 0.41564 0.31568 0.0
H5237 H 0.20136 0.39941 0.25912 0.0
H5238 H 0.21288 0.36912 0.2529 0.0
H5239 H 0.27689 0.3963 0.29835 0.0
H5240 H 0.28396 0.38688 0.32118 0.0
H5241 H 0.2727 0.40747 0.32199 0.0
H5242 H 0.24835 0.38885 0.33954 0.0
H5243 H 0.25954 0.36821 0.33878 0.0
H5244 H 0.2358 0.36488 0.32798 0.0
H5245 H 0.22767 0.33859 0.25263 0.0
H5246 H 0.24554 0.31284 0.25724 0.0
H5247 H 0.2763 0.34721 0.31268 0.0
C5248 C 0.23305 0.40577 0.30195 0.0
C5249 C 0.21898 0.41091 0.28785 0.0
C5250 C 0.21214 0.3969 0.27022 0.0
C5251 C 0.21861 0.37921 0.26654 0.0
C5252 C 0.23236 0.3748 0.28043 0.0
C5253 C 0.23964 0.38775 0.29781 0.0
C5254 C 0.2546 0.37921 0.31001 0.0
C5255 C 0.27314 0.39331 0.31307 0.0
C5256 C 0.24927 0.37505 0.33029 0.0
C5257 C 0.25479 0.35979 0.29667 0.0
C5258 C 0.24147 0.35751 0.27986 0.0
C5259 C 0.2382 0.34052 0.26571 0.0
C5260 C 0.24856 0.32571 0.26853 0.0
C5261 C 0.26281 0.32738 0.28518 0.0
C5262 C 0.26586 0.34508 0.29949 0.0
H5263 H 0.21932 0.43987 0.01131 0.0
H5264 H 0.22434 0.43138 0.07391 0.0
H5265 H 0.19603 0.44361 0.07633 0.0
H5266 H 0.20322 0.48488 0.01758 0.0
H5267 H 0.18762 0.47975 0.99404 0.0
H5268 H 0.20772 0.46925 0.99673 0.0
H5269 H 0.18771 0.43451 0.98585 0.0
H5270 H 0.16754 0.44491 0.98309 0.0
H5271 H 0.16948 0.42639 0.99918 0.0
H5272 H 0.1674 0.45745 0.07235 0.0
H5273 H 0.14143 0.47315 0.0627 0.0
H5274 H 0.15461 0.47339 1.00269 0.0
C5275 C 0.21435 0.44042 0.02546 0.0
C5276 C 0.22418 0.43467 0.04246 0.0
C5277 C 0.21725 0.43586 0.06075 0.0
C5278 C 0.20108 0.4427 0.06224 0.0
C5279 C 0.19186 0.44847 0.04534 0.0
C5280 C 0.19825 0.44748 0.02729 0.0
C5281 C 0.18605 0.45541 0.01169 0.0
C5282 C 0.19679 0.47339 1.0046 0.0
C5283 C 0.17717 0.43934 0.9939 0.0
C5284 C 0.17193 0.4611 0.02382 0.0
C5285 C 0.17547 0.45677 0.04314 0.0
C5286 C 0.16447 0.46081 0.05721 0.0
C5287 C 0.1496 0.46964 0.05152 0.0
C5288 C 0.14573 0.47455 0.03188 0.0
C5289 C 0.15713 0.47003 0.01787 0.0
H5290 H 0.88027 0.89816 0.28926 0.0
H5291 H 0.86318 0.9048 0.22702 0.0
H5292 H 0.83949 0.87496 0.22307 0.0
H5293 H 0.87212 0.84436 0.28158 0.0
H5294 H 0.86363 0.84211 0.30479 0.0
H5295 H 0.88012 0.8635 0.30274 0.0
H5296 H 0.85836 0.88577 0.31353 0.0
H5297 H 0.84184 0.86444 0.31562 0.0
H5298 H 0.83548 0.88185 0.29972 0.0
H5299 H 0.81621 0.84604 0.22609 0.0
H5300 H 0.79502 0.8191 0.23581 0.0
H5301 H 0.82688 0.82947 0.2958 0.0
C5302 C 0.87158 0.89332 0.27478 0.0
C5303 C 0.87385 0.90391 0.25838 0.0
C5304 C 0.86212 0.89689 0.23971 0.0
C5305 C 0.84849 0.87995 0.23733 0.0
C5306 C 0.84663 0.86994 0.25371 0.0
C5307 C 0.85786 0.87625 0.27208 0.0
C5308 C 0.85248 0.8629 0.28733 0.0
C5309 C 0.86802 0.85261 0.29453 0.0
C5310 C 0.8467 0.87443 0.3051 0.0
C5311 C 0.83632 0.84834 0.27471 0.0
C5312 C 0.83326 0.85278 0.25536 0.0
C5313 C 0.8186 0.84229 0.24112 0.0
C5314 C 0.80661 0.82702 0.24679 0.0
C5315 C 0.80938 0.82207 0.26646 0.0
C5316 C 0.82461 0.83272 0.28055 0.0
H5317 H 0.72388 0.13248 0.81789 0.0
H5318 H 0.72957 0.1032 0.76012 0.0
H5319 H 0.74545 0.13447 0.75217 0.0
H5320 H 0.7155 0.17783 0.79972 0.0
H5321 H 0.72819 0.19399 0.82173 0.0
H5322 H 0.71771 0.16923 0.82379 0.0
H5323 H 0.74885 0.16312 0.83999 0.0
H5324 H 0.75938 0.18788 0.838 0.0
H5325 H 0.76803 0.16756 0.82708 0.0
H5326 H 0.7609 0.16893 0.74966 0.0
H5327 H 0.77397 0.20398 0.75231 0.0
H5328 H 0.75862 0.21398 0.81112 0.0
C5329 C 0.72858 0.13261 0.80362 0.0
C5330 C 0.72517 0.11482 0.78963 0.0
C5331 C 0.73159 0.11618 0.77112 0.0
C5332 C 0.7408 0.13406 0.76644 0.0
C5333 C 0.74369 0.15114 0.78025 0.0
C5334 C 0.73775 0.15071 0.79849 0.0
C5335 C 0.74238 0.17167 0.8102 0.0
C5336 C 0.7249 0.17859 0.81409 0.0
C5337 C 0.75543 0.17261 0.83 0.0
C5338 C 0.75182 0.18379 0.79572 0.0
C5339 C 0.75242 0.17141 0.77861 0.0
C5340 C 0.76042 0.17868 0.76302 0.0
C5341 C 0.76792 0.19888 0.76472 0.0
C5342 C 0.76758 0.21237 0.78188 0.0
C5343 C 0.75927 0.20443 0.79768 0.0
loop_
_geom_bond_atom_site_label_1
_geom_bond_atom_site_label_2
_geom_bond_distance
_geom_bond_site_symmetry_2
_ccdc_geom_bond_type
Li0 N17 1.990 . S
Li0 O60 1.956 1_655 S
Li0 O61 1.970 . S
Li0 O62 1.961 . S
Li1 N25 1.990 . S
Li1 O60 1.970 . S
Li1 O61 1.956 1_455 S
Li1 O63 1.961 . S
Li2 N47 1.990 . S
Li2 O60 1.961 . S
Li2 O62 1.956 1_455 S
Li2 O63 1.970 . S
Li3 N53 1.990 . S
Li3 O61 1.961 1_455 S
Li3 O62 1.970 1_455 S
Li3 O63 1.956 . S
C4 C6 1.329 1_455 S
C4 C7 1.356 . S
C4 O60 1.325 . S
N5 C8 1.304 1_455 S
N5 C9 1.279 . S
C6 C4 1.329 1_655 S
C6 C8 1.353 . S
C6 H64 0.948 . S
C7 C4 1.356 . S
C7 C9 1.358 . S
C7 H65 0.930 . S
C8 N5 1.304 1_655 S
C8 C6 1.353 . S
C8 H66 0.945 . S
C9 N5 1.279 . S
C9 C7 1.358 . S
C9 H67 0.930 . S
C10 C13 1.348 . S
C10 C14 1.356 . S
C10 O61 1.325 . S
C11 N12 1.279 . S
C11 C14 1.358 . S
C11 H68 0.930 . S
N12 C11 1.279 . S
N12 C15 1.314 . S
C13 C10 1.348 . S
C13 C15 1.353 . S
C13 H69 0.929 . S
C14 C10 1.356 . S
C14 C11 1.358 . S
C14 H70 0.930 . S
C15 N12 1.314 . S
C15 C13 1.353 . S
C15 H71 0.930 . S
C16 N17 1.314 . S
C16 C21 1.353 . S
C16 H22 0.930 . S
N17 Li0 1.990 . S
N17 C16 1.314 . S
N17 C19 1.279 . S
C18 C19 1.358 . S
C18 C20 1.356 . S
C18 H72 0.930 . S
C19 N17 1.279 . S
C19 C18 1.358 . S
C19 H23 0.930 . S
C20 C18 1.356 . S
C20 C21 1.348 . S
C21 C16 1.353 . S
C21 C20 1.348 . S
C21 H73 0.929 . S
H22 C16 0.930 . S
H23 C19 0.930 . S
C24 N25 1.314 . S
C24 C26 1.353 . S
C24 H30 0.930 . S
N25 Li1 1.990 . S
N25 C24 1.314 . S
N25 C28 1.279 1_455 S
C26 C24 1.353 . S
C26 C29 1.348 . S
C26 H74 0.929 . S
C27 C28 1.358 . S
C27 C29 1.356 1_655 S
C27 H75 0.930 . S
C28 N25 1.279 1_655 S
C28 C27 1.358 . S
C28 H31 0.930 . S
C29 C26 1.348 . S
C29 C27 1.356 1_455 S
H30 C24 0.930 . S
H31 C28 0.930 . S
C32 C34 1.370 . S
C32 C35 1.356 . S
C32 O62 1.325 . S
N33 C36 1.314 . S
N33 C37 1.279 . S
C34 C32 1.370 . S
C34 C36 1.348 . S
C34 H76 0.917 1_655 S
C35 C32 1.356 . S
C35 C37 1.358 . S
C35 H77 0.930 . S
C36 N33 1.314 . S
C36 C34 1.348 . S
C36 H78 0.930 . S
C37 N33 1.279 . S
C37 C35 1.358 . S
C37 H79 0.930 . S
C38 C39 1.348 . S
C38 C40 1.356 . S
C38 O63 1.325 . S
C39 C38 1.348 . S
C39 C41 1.353 . S
C39 H80 0.929 . S
C40 C38 1.356 . S
C40 C42 1.358 . S
C40 H81 0.930 . S
C41 C39 1.353 . S
C41 N43 1.314 . S
C41 H82 0.930 . S
C42 C40 1.358 . S
C42 N43 1.279 . S
C42 H83 0.930 . S
N43 C41 1.314 . S
N43 C42 1.279 . S
C44 C46 1.353 . S
C44 N47 1.314 . S
C44 H50 0.930 . S
C45 N47 1.279 . S
C45 C48 1.358 . S
C45 H51 0.930 . S
C46 C44 1.353 . S
C46 C49 1.348 . S
C46 H84 0.929 . S
N47 Li2 1.990 . S
N47 C44 1.314 . S
N47 C45 1.279 . S
C48 C45 1.358 . S
C48 C49 1.356 . S
C48 H85 0.930 . S
C49 C46 1.348 . S
C49 C48 1.356 . S
H50 C44 0.930 . S
H51 C45 0.930 . S
C52 N53 1.314 1_655 S
C52 C54 1.353 . S
C52 H58 0.930 . S
N53 Li3 1.990 . S
N53 C52 1.314 1_455 S
N53 C56 1.279 . S
C54 C52 1.353 . S
C54 C57 1.364 . S
C54 H86 0.929 . S
C55 C56 1.358 . S
C55 C57 1.341 1_455 S
C55 H87 0.930 . S
C56 N53 1.279 . S
C56 C55 1.358 . S
C56 H59 0.930 . S
C57 C54 1.364 . S
C57 C55 1.341 1_655 S
H58 C52 0.930 . S
H59 C56 0.930 . S
O60 Li0 1.956 1_455 S
O60 Li1 1.970 . S
O60 Li2 1.961 . S
O60 C4 1.325 . S
O61 Li0 1.970 . S
O61 Li1 1.956 1_655 S
O61 Li3 1.961 1_655 S
O61 C10 1.325 . S
O62 Li0 1.961 . S
O62 Li2 1.956 1_655 S
O62 Li3 1.970 1_655 S
O62 C32 1.325 . S
O63 Li1 1.961 . S
O63 Li2 1.970 . S
O63 Li3 1.956 . S
O63 C38 1.325 . S
H64 C6 0.948 . S
H65 C7 0.930 . S
H66 C8 0.945 . S
H67 C9 0.930 . S
H68 C11 0.930 . S
H69 C13 0.929 . S
H70 C14 0.930 . S
H71 C15 0.930 . S
H72 C18 0.930 . S
H73 C21 0.929 . S
H74 C26 0.929 . S
H75 C27 0.930 . S
H76 C34 0.917 1_455 S
H77 C35 0.930 . S
H78 C36 0.930 . S
H79 C37 0.930 . S
H80 C39 0.929 . S
H81 C40 0.930 . S
H82 C41 0.930 . S
H83 C42 0.930 . S
H84 C46 0.929 . S
H85 C48 0.930 . S
H86 C54 0.929 . S
H87 C55 0.930 . S
Li88 N105 1.990 . S
Li88 O148 1.956 . S
Li88 O149 1.970 . S
Li88 O150 1.961 . S
Li89 N113 1.990 . S
Li89 O148 1.970 . S
Li89 O149 1.956 . S
Li89 O151 1.961 . S
Li90 N135 1.990 . S
Li90 O148 1.961 . S
Li90 O150 1.956 . S
Li90 O151 1.970 . S
Li91 N141 1.990 . S
Li91 O149 1.961 . S
Li91 O150 1.970 . S
Li91 O151 1.956 . S
C92 C94 1.348 . S
C92 C95 1.356 . S
C92 O148 1.325 . S
N93 C96 1.314 . S
N93 C97 1.279 . S
C94 C92 1.348 . S
C94 C96 1.353 . S
C94 H152 0.929 . S
C95 C92 1.356 . S
C95 C97 1.358 . S
C95 H153 0.930 . S
C96 N93 1.314 . S
C96 C94 1.353 . S
C96 H154 0.930 . S
C97 N93 1.279 . S
C97 C95 1.358 . S
C97 H155 0.930 . S
C98 C101 1.348 . S
C98 C102 1.356 . S
C98 O149 1.325 . S
C99 N100 1.279 . S
C99 C102 1.358 . S
C99 H156 0.930 . S
N100 C99 1.279 . S
N100 C103 1.314 . S
C101 C98 1.348 . S
C101 C103 1.353 . S
C101 H157 0.929 . S
C102 C98 1.356 . S
C102 C99 1.358 . S
C102 H158 0.930 . S
C103 N100 1.314 . S
C103 C101 1.353 . S
C103 H159 0.930 . S
C104 N105 1.314 . S
C104 C109 1.353 . S
C104 H110 0.930 . S
N105 Li88 1.990 . S
N105 C104 1.314 . S
N105 C107 1.279 . S
C106 C107 1.358 . S
C106 C108 1.356 . S
C106 H160 0.930 . S
C107 N105 1.279 . S
C107 C106 1.358 . S
C107 H111 0.930 . S
C108 C106 1.356 . S
C108 C109 1.348 . S
C109 C104 1.353 . S
C109 C108 1.348 . S
C109 H161 0.929 . S
H110 C104 0.930 . S
H111 C107 0.930 . S
C112 N113 1.314 . S
C112 C114 1.353 . S
C112 H118 0.930 . S
N113 Li89 1.990 . S
N113 C112 1.314 . S
N113 C116 1.279 . S
C114 C112 1.353 . S
C114 C117 1.348 . S
C114 H162 0.929 . S
C115 C116 1.358 . S
C115 C117 1.356 . S
C115 H163 0.930 . S
C116 N113 1.279 . S
C116 C115 1.358 . S
C116 H119 0.930 . S
C117 C114 1.348 . S
C117 C115 1.356 . S
H118 C112 0.930 . S
H119 C116 0.930 . S
C120 C122 1.348 . S
C120 C123 1.356 . S
C120 O150 1.325 . S
N121 C124 1.314 . S
N121 C125 1.279 1_655 S
C122 C120 1.348 . S
C122 C124 1.353 1_455 S
C122 H164 0.929 . S
C123 C120 1.356 . S
C123 C125 1.358 . S
C123 H165 0.930 . S
C124 N121 1.314 . S
C124 C122 1.353 1_655 S
C124 H166 0.930 . S
C125 N121 1.279 1_455 S
C125 C123 1.358 . S
C125 H167 0.930 . S
C126 C127 1.348 . S
C126 C128 1.356 . S
C126 O151 1.325 . S
C127 C126 1.348 . S
C127 C129 1.353 . S
C127 H168 0.929 . S
C128 C126 1.356 . S
C128 C130 1.358 . S
C128 H169 0.930 . S
C129 C127 1.353 . S
C129 N131 1.314 . S
C129 H170 0.930 . S
C130 C128 1.358 . S
C130 N131 1.279 . S
C130 H171 0.930 . S
N131 C129 1.314 . S
N131 C130 1.279 . S
C132 C134 1.353 . S
C132 N135 1.314 . S
C132 H138 0.930 . S
C133 N135 1.279 . S
C133 C136 1.358 . S
C133 H139 0.930 . S
C134 C132 1.353 . S
C134 C137 1.348 . S
C134 H172 0.929 . S
N135 Li90 1.990 . S
N135 C132 1.314 . S
N135 C133 1.279 . S
C136 C133 1.358 . S
C136 C137 1.356 . S
C136 H173 0.930 . S
C137 C134 1.348 . S
C137 C136 1.356 . S
H138 C132 0.930 . S
H139 C133 0.930 . S
C140 N141 1.314 . S
C140 C142 1.320 1_455 S
C140 H146 0.930 . S
N141 Li91 1.990 . S
N141 C140 1.314 . S
N141 C144 1.279 . S
C142 C140 1.320 1_655 S
C142 C145 1.360 . S
C142 H174 0.951 . S
C143 C144 1.408 . S
C143 C145 1.318 1_455 S
C143 H175 0.920 1_455 S
C144 N141 1.279 . S
C144 C143 1.408 . S
C144 H147 0.930 . S
C145 C142 1.360 . S
C145 C143 1.318 1_655 S
H146 C140 0.930 . S
H147 C144 0.930 . S
O148 Li88 1.956 . S
O148 Li89 1.970 . S
O148 Li90 1.961 . S
O148 C92 1.325 . S
O149 Li88 1.970 . S
O149 Li89 1.956 . S
O149 Li91 1.961 . S
O149 C98 1.325 . S
O150 Li88 1.961 . S
O150 Li90 1.956 . S
O150 Li91 1.970 . S
O150 C120 1.325 . S
O151 Li89 1.961 . S
O151 Li90 1.970 . S
O151 Li91 1.956 . S
O151 C126 1.325 . S
H152 C94 0.929 . S
H153 C95 0.930 . S
H154 C96 0.930 . S
H155 C97 0.930 . S
H156 C99 0.930 . S
H157 C101 0.929 . S
H158 C102 0.930 . S
H159 C103 0.930 . S
H160 C106 0.930 . S
H161 C109 0.929 . S
H162 C114 0.929 . S
H163 C115 0.930 . S
H164 C122 0.929 . S
H165 C123 0.930 . S
H166 C124 0.930 . S
H167 C125 0.930 . S
H168 C127 0.929 . S
H169 C128 0.930 . S
H170 C129 0.930 . S
H171 C130 0.930 . S
H172 C134 0.929 . S
H173 C136 0.930 . S
H174 C142 0.951 . S
H175 C143 0.920 1_655 S
Li176 N193 1.990 . S
Li176 O236 1.956 . S
Li176 O237 1.970 . S
Li176 O238 1.961 . S
Li177 N201 1.990 . S
Li177 O236 1.970 . S
Li177 O237 1.956 . S
Li177 O239 1.961 . S
Li178 N223 1.990 . S
Li178 O236 1.961 . S
Li178 O238 1.956 . S
Li178 O239 1.970 . S
Li179 N229 1.990 . S
Li179 O237 1.961 . S
Li179 O238 1.970 . S
Li179 O239 1.956 . S
C180 C182 1.348 . S
C180 C183 1.356 . S
C180 O236 1.325 . S
N181 C184 1.314 . S
N181 C185 1.279 . S
C182 C180 1.348 . S
C182 C184 1.353 . S
C182 H240 0.929 . S
C183 C180 1.356 . S
C183 C185 1.358 . S
C183 H241 0.930 . S
C184 N181 1.314 . S
C184 C182 1.353 . S
C184 H242 0.930 . S
C185 N181 1.279 . S
C185 C183 1.358 . S
C185 H243 0.930 . S
C186 C189 1.348 . S
C186 C190 1.356 . S
C186 O237 1.325 . S
C187 N188 1.279 . S
C187 C190 1.358 . S
C187 H244 0.930 . S
N188 C187 1.279 . S
N188 C191 1.314 . S
C189 C186 1.348 . S
C189 C191 1.353 . S
C189 H245 0.929 . S
C190 C186 1.356 . S
C190 C187 1.358 . S
C190 H246 0.930 . S
C191 N188 1.314 . S
C191 C189 1.353 . S
C191 H247 0.930 . S
C192 N193 1.314 . S
C192 C197 1.353 . S
C192 H198 0.930 . S
N193 Li176 1.990 . S
N193 C192 1.314 . S
N193 C195 1.279 . S
C194 C195 1.358 . S
C194 C196 1.356 . S
C194 H248 0.930 . S
C195 N193 1.279 . S
C195 C194 1.358 . S
C195 H199 0.930 . S
C196 C194 1.356 . S
C196 C197 1.348 . S
C197 C192 1.353 . S
C197 C196 1.348 . S
C197 H249 0.929 . S
H198 C192 0.930 . S
H199 C195 0.930 . S
C200 N201 1.314 . S
C200 C202 1.353 . S
C200 H206 0.930 . S
N201 Li177 1.990 . S
N201 C200 1.314 . S
N201 C204 1.279 . S
C202 C200 1.353 . S
C202 C205 1.348 . S
C202 H250 0.929 . S
C203 C204 1.358 . S
C203 C205 1.356 . S
C203 H251 0.930 . S
C204 N201 1.279 . S
C204 C203 1.358 . S
C204 H207 0.930 . S
C205 C202 1.348 . S
C205 C203 1.356 . S
H206 C200 0.930 . S
H207 C204 0.930 . S
C208 C210 1.348 . S
C208 C211 1.356 . S
C208 O238 1.325 . S
N209 C212 1.314 . S
N209 C213 1.279 . S
C210 C208 1.348 . S
C210 C212 1.353 . S
C210 H252 0.929 . S
C211 C208 1.356 . S
C211 C213 1.358 . S
C211 H253 0.930 . S
C212 N209 1.314 . S
C212 C210 1.353 . S
C212 H254 0.930 . S
C213 N209 1.279 . S
C213 C211 1.358 . S
C213 H255 0.930 . S
C214 C215 1.348 . S
C214 C216 1.356 . S
C214 O239 1.325 . S
C215 C214 1.348 . S
C215 C217 1.353 . S
C215 H256 0.929 . S
C216 C214 1.356 . S
C216 C218 1.358 . S
C216 H257 0.930 . S
C217 C215 1.353 . S
C217 N219 1.314 . S
C217 H258 0.930 . S
C218 C216 1.358 . S
C218 N219 1.279 . S
C218 H259 0.930 . S
N219 C217 1.314 . S
N219 C218 1.279 . S
C220 C222 1.353 . S
C220 N223 1.314 . S
C220 H226 0.930 . S
C221 N223 1.279 . S
C221 C224 1.358 . S
C221 H227 0.930 . S
C222 C220 1.353 . S
C222 C225 1.348 . S
C222 H260 0.929 . S
N223 Li178 1.990 . S
N223 C220 1.314 . S
N223 C221 1.279 . S
C224 C221 1.358 . S
C224 C225 1.356 . S
C224 H261 0.930 . S
C225 C222 1.348 . S
C225 C224 1.356 . S
H226 C220 0.930 . S
H227 C221 0.930 . S
C228 N229 1.314 . S
C228 C230 1.353 . S
C228 H234 0.930 . S
N229 Li179 1.990 . S
N229 C228 1.314 . S
N229 C232 1.279 . S
C230 C228 1.353 . S
C230 C233 1.348 . S
C230 H262 0.929 . S
C231 C232 1.358 . S
C231 C233 1.356 . S
C231 H263 0.930 . S
C232 N229 1.279 . S
C232 C231 1.358 . S
C232 H235 0.930 . S
C233 C230 1.348 . S
C233 C231 1.356 . S
H234 C228 0.930 . S
H235 C232 0.930 . S
O236 Li176 1.956 . S
O236 Li177 1.970 . S
O236 Li178 1.961 . S
O236 C180 1.325 . S
O237 Li176 1.970 . S
O237 Li177 1.956 . S
O237 Li179 1.961 . S
O237 C186 1.325 . S
O238 Li176 1.961 . S
O238 Li178 1.956 . S
O238 Li179 1.970 . S
O238 C208 1.325 . S
O239 Li177 1.961 . S
O239 Li178 1.970 . S
O239 Li179 1.956 . S
O239 C214 1.325 . S
H240 C182 0.929 . S
H241 C183 0.930 . S
H242 C184 0.930 . S
H243 C185 0.930 . S
H244 C187 0.930 . S
H245 C189 0.929 . S
H246 C190 0.930 . S
H247 C191 0.930 . S
H248 C194 0.930 . S
H249 C197 0.929 . S
H250 C202 0.929 . S
H251 C203 0.930 . S
H252 C210 0.929 . S
H253 C211 0.930 . S
H254 C212 0.930 . S
H255 C213 0.930 . S
H256 C215 0.929 . S
H257 C216 0.930 . S
H258 C217 0.930 . S
H259 C218 0.930 . S
H260 C222 0.929 . S
H261 C224 0.930 . S
H262 C230 0.929 . S
H263 C231 0.930 . S
Li264 N281 1.990 . S
Li264 O324 1.956 . S
Li264 O325 1.970 . S
Li264 O326 1.961 . S
Li265 N289 1.990 . S
Li265 O324 1.970 . S
Li265 O325 1.956 . S
Li265 O327 1.961 . S
Li266 N311 1.990 . S
Li266 O324 1.961 . S
Li266 O326 1.956 . S
Li266 O327 1.970 . S
Li267 N317 1.990 . S
Li267 O325 1.961 . S
Li267 O326 1.970 . S
Li267 O327 1.956 . S
C268 C270 1.348 . S
C268 C271 1.356 . S
C268 O324 1.325 . S
N269 C272 1.314 . S
N269 C273 1.279 . S
C270 C268 1.348 . S
C270 C272 1.353 . S
C270 H328 0.929 . S
C271 C268 1.356 . S
C271 C273 1.358 . S
C271 H329 0.930 . S
C272 N269 1.314 . S
C272 C270 1.353 . S
C272 H330 0.930 . S
C273 N269 1.279 . S
C273 C271 1.358 . S
C273 H331 0.930 . S
C274 C277 1.348 . S
C274 C278 1.356 . S
C274 O325 1.325 . S
C275 N276 1.279 . S
C275 C278 1.358 . S
C275 H332 0.930 . S
N276 C275 1.279 . S
N276 C279 1.314 . S
C277 C274 1.348 . S
C277 C279 1.353 . S
C277 H333 0.929 . S
C278 C274 1.356 . S
C278 C275 1.358 . S
C278 H334 0.930 . S
C279 N276 1.314 . S
C279 C277 1.353 . S
C279 H335 0.930 . S
C280 N281 1.314 . S
C280 C285 1.353 . S
C280 H286 0.930 . S
N281 Li264 1.990 . S
N281 C280 1.314 . S
N281 C283 1.279 . S
C282 C283 1.358 . S
C282 C284 1.356 . S
C282 H336 0.930 . S
C283 N281 1.279 . S
C283 C282 1.358 . S
C283 H287 0.930 . S
C284 C282 1.356 . S
C284 C285 1.348 . S
C285 C280 1.353 . S
C285 C284 1.348 . S
C285 H337 0.929 . S
H286 C280 0.930 . S
H287 C283 0.930 . S
C288 N289 1.314 . S
C288 C290 1.353 . S
C288 H294 0.930 . S
N289 Li265 1.990 . S
N289 C288 1.314 . S
N289 C292 1.279 . S
C290 C288 1.353 . S
C290 C293 1.348 . S
C290 H338 0.929 . S
C291 C292 1.358 . S
C291 C293 1.356 . S
C291 H339 0.930 . S
C292 N289 1.279 . S
C292 C291 1.358 . S
C292 H295 0.930 . S
C293 C290 1.348 . S
C293 C291 1.356 . S
H294 C288 0.930 . S
H295 C292 0.930 . S
C296 C298 1.348 . S
C296 C299 1.356 . S
C296 O326 1.325 . S
N297 C300 1.314 . S
N297 C301 1.279 . S
C298 C296 1.348 . S
C298 C300 1.353 . S
C298 H340 0.929 . S
C299 C296 1.356 . S
C299 C301 1.358 . S
C299 H341 0.930 . S
C300 N297 1.314 . S
C300 C298 1.353 . S
C300 H342 0.930 . S
C301 N297 1.279 . S
C301 C299 1.358 . S
C301 H343 0.930 . S
C302 C303 1.348 . S
C302 C304 1.356 . S
C302 O327 1.325 . S
C303 C302 1.348 . S
C303 C305 1.353 . S
C303 H344 0.929 . S
C304 C302 1.356 . S
C304 C306 1.358 . S
C304 H345 0.930 . S
C305 C303 1.353 . S
C305 N307 1.314 . S
C305 H346 0.930 . S
C306 C304 1.358 . S
C306 N307 1.279 . S
C306 H347 0.930 . S
N307 C305 1.314 . S
N307 C306 1.279 . S
C308 C310 1.353 . S
C308 N311 1.314 . S
C308 H314 0.930 . S
C309 N311 1.279 . S
C309 C312 1.358 . S
C309 H315 0.930 . S
C310 C308 1.353 . S
C310 C313 1.348 . S
C310 H348 0.929 . S
N311 Li266 1.990 . S
N311 C308 1.314 . S
N311 C309 1.279 . S
C312 C309 1.358 . S
C312 C313 1.356 . S
C312 H349 0.930 . S
C313 C310 1.348 . S
C313 C312 1.356 . S
H314 C308 0.930 . S
H315 C309 0.930 . S
C316 N317 1.314 . S
C316 C318 1.353 . S
C316 H322 0.930 . S
N317 Li267 1.990 . S
N317 C316 1.314 . S
N317 C320 1.279 . S
C318 C316 1.353 . S
C318 C321 1.348 . S
C318 H350 0.929 . S
C319 C320 1.358 . S
C319 C321 1.356 . S
C319 H351 0.930 . S
C320 N317 1.279 . S
C320 C319 1.358 . S
C320 H323 0.930 . S
C321 C318 1.348 . S
C321 C319 1.356 . S
H322 C316 0.930 . S
H323 C320 0.930 . S
O324 Li264 1.956 . S
O324 Li265 1.970 . S
O324 Li266 1.961 . S
O324 C268 1.325 . S
O325 Li264 1.970 . S
O325 Li265 1.956 . S
O325 Li267 1.961 . S
O325 C274 1.325 . S
O326 Li264 1.961 . S
O326 Li266 1.956 . S
O326 Li267 1.970 . S
O326 C296 1.325 . S
O327 Li265 1.961 . S
O327 Li266 1.970 . S
O327 Li267 1.956 . S
O327 C302 1.325 . S
H328 C270 0.929 . S
H329 C271 0.930 . S
H330 C272 0.930 . S
H331 C273 0.930 . S
H332 C275 0.930 . S
H333 C277 0.929 . S
H334 C278 0.930 . S
H335 C279 0.930 . S
H336 C282 0.930 . S
H337 C285 0.929 . S
H338 C290 0.929 . S
H339 C291 0.930 . S
H340 C298 0.929 . S
H341 C299 0.930 . S
H342 C300 0.930 . S
H343 C301 0.930 . S
H344 C303 0.929 . S
H345 C304 0.930 . S
H346 C305 0.930 . S
H347 C306 0.930 . S
H348 C310 0.929 . S
H349 C312 0.930 . S
H350 C318 0.929 . S
H351 C319 0.930 . S
Li352 N369 1.990 . S
Li352 O412 1.956 . S
Li352 O413 1.970 . S
Li352 O414 1.961 . S
Li353 N377 1.990 . S
Li353 O412 1.970 . S
Li353 O413 1.956 . S
Li353 O415 1.961 . S
Li354 N399 1.990 . S
Li354 O412 1.961 . S
Li354 O414 1.956 . S
Li354 O415 1.970 . S
Li355 N405 1.990 . S
Li355 O413 1.961 . S
Li355 O414 1.970 . S
Li355 O415 1.956 . S
C356 C358 1.348 . S
C356 C359 1.356 . S
C356 O412 1.325 . S
N357 C360 1.314 . S
N357 C361 1.279 . S
C358 C356 1.348 . S
C358 C360 1.353 . S
C358 H416 0.929 . S
C359 C356 1.356 . S
C359 C361 1.358 . S
C359 H417 0.930 . S
C360 N357 1.314 . S
C360 C358 1.353 . S
C360 H418 0.930 . S
C361 N357 1.279 . S
C361 C359 1.358 . S
C361 H419 0.930 . S
C362 C365 1.348 . S
C362 C366 1.356 . S
C362 O413 1.325 . S
C363 N364 1.279 . S
C363 C366 1.358 . S
C363 H420 0.930 . S
N364 C363 1.279 . S
N364 C367 1.314 . S
C365 C362 1.348 . S
C365 C367 1.353 . S
C365 H421 0.929 . S
C366 C362 1.356 . S
C366 C363 1.358 . S
C366 H422 0.930 . S
C367 N364 1.314 . S
C367 C365 1.353 . S
C367 H423 0.930 . S
C368 N369 1.314 . S
C368 C373 1.353 . S
C368 H374 0.930 . S
N369 Li352 1.990 . S
N369 C368 1.314 . S
N369 C371 1.279 . S
C370 C371 1.358 . S
C370 C372 1.356 . S
C370 H424 0.930 . S
C371 N369 1.279 . S
C371 C370 1.358 . S
C371 H375 0.930 . S
C372 C370 1.356 . S
C372 C373 1.348 . S
C373 C368 1.353 . S
C373 C372 1.348 . S
C373 H425 0.929 . S
H374 C368 0.930 . S
H375 C371 0.930 . S
C376 N377 1.314 . S
C376 C378 1.353 . S
C376 H382 0.930 . S
N377 Li353 1.990 . S
N377 C376 1.314 . S
N377 C380 1.279 . S
C378 C376 1.353 . S
C378 C381 1.348 . S
C378 H426 0.929 . S
C379 C380 1.358 . S
C379 C381 1.356 . S
C379 H427 0.930 . S
C380 N377 1.279 . S
C380 C379 1.358 . S
C380 H383 0.930 . S
C381 C378 1.348 . S
C381 C379 1.356 . S
H382 C376 0.930 . S
H383 C380 0.930 . S
C384 C386 1.348 1_455 S
C384 C387 1.356 . S
C384 O414 1.325 . S
N385 C388 1.314 . S
N385 C389 1.279 . S
C386 C384 1.348 1_655 S
C386 C388 1.353 . S
C386 H428 0.929 . S
C387 C384 1.356 . S
C387 C389 1.358 1_455 S
C387 H429 0.930 . S
C388 N385 1.314 . S
C388 C386 1.353 . S
C388 H430 0.930 . S
C389 N385 1.279 . S
C389 C387 1.358 1_655 S
C389 H431 0.930 . S
C390 C391 1.348 . S
C390 C392 1.356 . S
C390 O415 1.325 . S
C391 C390 1.348 . S
C391 C393 1.353 . S
C391 H432 0.929 . S
C392 C390 1.356 . S
C392 C394 1.358 . S
C392 H433 0.930 . S
C393 C391 1.353 . S
C393 N395 1.314 . S
C393 H434 0.930 . S
C394 C392 1.358 . S
C394 N395 1.279 . S
C394 H435 0.930 . S
N395 C393 1.314 . S
N395 C394 1.279 . S
C396 C398 1.353 . S
C396 N399 1.314 . S
C396 H402 0.930 . S
C397 N399 1.279 . S
C397 C400 1.358 . S
C397 H403 0.930 . S
C398 C396 1.353 . S
C398 C401 1.348 . S
C398 H436 0.929 . S
N399 Li354 1.990 . S
N399 C396 1.314 . S
N399 C397 1.279 . S
C400 C397 1.358 . S
C400 C401 1.356 . S
C400 H437 0.930 . S
C401 C398 1.348 . S
C401 C400 1.356 . S
H402 C396 0.930 . S
H403 C397 0.930 . S
C404 N405 1.314 . S
C404 C406 1.353 1_455 S
C404 H410 0.930 . S
N405 Li355 1.990 . S
N405 C404 1.314 . S
N405 C408 1.279 . S
C406 C404 1.353 1_655 S
C406 C409 1.348 . S
C406 H438 0.929 . S
C407 C408 1.358 1_655 S
C407 C409 1.356 . S
C407 H439 0.930 . S
C408 N405 1.279 . S
C408 C407 1.358 1_455 S
C408 H411 0.930 . S
C409 C406 1.348 . S
C409 C407 1.356 . S
H410 C404 0.930 . S
H411 C408 0.930 . S
O412 Li352 1.956 . S
O412 Li353 1.970 . S
O412 Li354 1.961 . S
O412 C356 1.325 . S
O413 Li352 1.970 . S
O413 Li353 1.956 . S
O413 Li355 1.961 . S
O413 C362 1.325 . S
O414 Li352 1.961 . S
O414 Li354 1.956 . S
O414 Li355 1.970 . S
O414 C384 1.325 . S
O415 Li353 1.961 . S
O415 Li354 1.970 . S
O415 Li355 1.956 . S
O415 C390 1.325 . S
H416 C358 0.929 . S
H417 C359 0.930 . S
H418 C360 0.930 . S
H419 C361 0.930 . S
H420 C363 0.930 . S
H421 C365 0.929 . S
H422 C366 0.930 . S
H423 C367 0.930 . S
H424 C370 0.930 . S
H425 C373 0.929 . S
H426 C378 0.929 . S
H427 C379 0.930 . S
H428 C386 0.929 . S
H429 C387 0.930 . S
H430 C388 0.930 . S
H431 C389 0.930 . S
H432 C391 0.929 . S
H433 C392 0.930 . S
H434 C393 0.930 . S
H435 C394 0.930 . S
H436 C398 0.929 . S
H437 C400 0.930 . S
H438 C406 0.929 . S
H439 C407 0.930 . S
Li440 N457 1.990 . S
Li440 O500 1.956 . S
Li440 O501 1.970 . S
Li440 O502 1.961 . S
Li441 N465 1.990 . S
Li441 O500 1.970 . S
Li441 O501 1.956 . S
Li441 O503 1.961 . S
Li442 N487 1.990 . S
Li442 O500 1.961 . S
Li442 O502 1.956 . S
Li442 O503 1.970 . S
Li443 N493 1.990 . S
Li443 O501 1.961 . S
Li443 O502 1.970 . S
Li443 O503 1.956 . S
C444 C446 1.348 . S
C444 C447 1.356 . S
C444 O500 1.325 . S
N445 C448 1.314 . S
N445 C449 1.279 . S
C446 C444 1.348 . S
C446 C448 1.353 . S
C446 H504 0.929 . S
C447 C444 1.356 . S
C447 C449 1.358 . S
C447 H505 0.930 . S
C448 N445 1.314 . S
C448 C446 1.353 . S
C448 H506 0.930 . S
C449 N445 1.279 . S
C449 C447 1.358 . S
C449 H507 0.930 . S
C450 C453 1.348 . S
C450 C454 1.356 . S
C450 O501 1.325 . S
C451 N452 1.279 . S
C451 C454 1.358 . S
C451 H508 0.930 . S
N452 C451 1.279 . S
N452 C455 1.314 . S
C453 C450 1.348 . S
C453 C455 1.353 . S
C453 H509 0.929 . S
C454 C450 1.356 . S
C454 C451 1.358 . S
C454 H510 0.930 . S
C455 N452 1.314 . S
C455 C453 1.353 . S
C455 H511 0.930 . S
C456 N457 1.314 . S
C456 C461 1.353 . S
C456 H462 0.930 . S
N457 Li440 1.990 . S
N457 C456 1.314 . S
N457 C459 1.279 . S
C458 C459 1.358 . S
C458 C460 1.356 . S
C458 H512 0.930 . S
C459 N457 1.279 . S
C459 C458 1.358 . S
C459 H463 0.930 . S
C460 C458 1.356 . S
C460 C461 1.348 . S
C461 C456 1.353 . S
C461 C460 1.348 . S
C461 H513 0.929 . S
H462 C456 0.930 . S
H463 C459 0.930 . S
C464 N465 1.314 . S
C464 C466 1.353 . S
C464 H470 0.930 . S
N465 Li441 1.990 . S
N465 C464 1.314 . S
N465 C468 1.279 . S
C466 C464 1.353 . S
C466 C469 1.348 . S
C466 H514 0.929 . S
C467 C468 1.358 . S
C467 C469 1.356 . S
C467 H515 0.930 . S
C468 N465 1.279 . S
C468 C467 1.358 . S
C468 H471 0.930 . S
C469 C466 1.348 . S
C469 C467 1.356 . S
H470 C464 0.930 . S
H471 C468 0.930 . S
C472 C474 1.348 . S
C472 C475 1.356 . S
C472 O502 1.325 . S
N473 C476 1.314 . S
N473 C477 1.279 . S
C474 C472 1.348 . S
C474 C476 1.353 . S
C474 H516 0.929 . S
C475 C472 1.356 . S
C475 C477 1.358 . S
C475 H517 0.930 . S
C476 N473 1.314 . S
C476 C474 1.353 . S
C476 H518 0.930 . S
C477 N473 1.279 . S
C477 C475 1.358 . S
C477 H519 0.930 . S
C478 C479 1.348 . S
C478 C480 1.356 . S
C478 O503 1.325 . S
C479 C478 1.348 . S
C479 C481 1.353 . S
C479 H520 0.929 . S
C480 C478 1.356 . S
C480 C482 1.358 . S
C480 H521 0.930 . S
C481 C479 1.353 . S
C481 N483 1.314 . S
C481 H522 0.930 . S
C482 C480 1.358 . S
C482 N483 1.279 . S
C482 H523 0.930 . S
N483 C481 1.314 . S
N483 C482 1.279 . S
C484 C486 1.353 . S
C484 N487 1.314 . S
C484 H490 0.930 . S
C485 N487 1.279 . S
C485 C488 1.358 . S
C485 H491 0.930 . S
C486 C484 1.353 . S
C486 C489 1.348 . S
C486 H524 0.929 . S
N487 Li442 1.990 . S
N487 C484 1.314 . S
N487 C485 1.279 . S
C488 C485 1.358 . S
C488 C489 1.356 . S
C488 H525 0.930 . S
C489 C486 1.348 . S
C489 C488 1.356 . S
H490 C484 0.930 . S
H491 C485 0.930 . S
C492 N493 1.314 . S
C492 C494 1.353 . S
C492 H498 0.930 . S
N493 Li443 1.990 . S
N493 C492 1.314 . S
N493 C496 1.279 . S
C494 C492 1.353 . S
C494 C497 1.348 . S
C494 H526 0.929 . S
C495 C496 1.358 . S
C495 C497 1.356 . S
C495 H527 0.930 . S
C496 N493 1.279 . S
C496 C495 1.358 . S
C496 H499 0.930 . S
C497 C494 1.348 . S
C497 C495 1.356 . S
H498 C492 0.930 . S
H499 C496 0.930 . S
O500 Li440 1.956 . S
O500 Li441 1.970 . S
O500 Li442 1.961 . S
O500 C444 1.325 . S
O501 Li440 1.970 . S
O501 Li441 1.956 . S
O501 Li443 1.961 . S
O501 C450 1.325 . S
O502 Li440 1.961 . S
O502 Li442 1.956 . S
O502 Li443 1.970 . S
O502 C472 1.325 . S
O503 Li441 1.961 . S
O503 Li442 1.970 . S
O503 Li443 1.956 . S
O503 C478 1.325 . S
H504 C446 0.929 . S
H505 C447 0.930 . S
H506 C448 0.930 . S
H507 C449 0.930 . S
H508 C451 0.930 . S
H509 C453 0.929 . S
H510 C454 0.930 . S
H511 C455 0.930 . S
H512 C458 0.930 . S
H513 C461 0.929 . S
H514 C466 0.929 . S
H515 C467 0.930 . S
H516 C474 0.929 . S
H517 C475 0.930 . S
H518 C476 0.930 . S
H519 C477 0.930 . S
H520 C479 0.929 . S
H521 C480 0.930 . S
H522 C481 0.930 . S
H523 C482 0.930 . S
H524 C486 0.929 . S
H525 C488 0.930 . S
H526 C494 0.929 . S
H527 C495 0.930 . S
Li528 N545 1.990 . S
Li528 O588 1.956 . S
Li528 O589 1.970 . S
Li528 O590 1.961 . S
Li529 N553 1.990 . S
Li529 O588 1.970 . S
Li529 O589 1.956 . S
Li529 O591 1.961 . S
Li530 N575 1.990 . S
Li530 O588 1.961 . S
Li530 O590 1.956 . S
Li530 O591 1.970 . S
Li531 N581 1.990 . S
Li531 O589 1.961 . S
Li531 O590 1.970 . S
Li531 O591 1.956 . S
C532 C534 1.348 . S
C532 C535 1.356 . S
C532 O588 1.325 . S
N533 C536 1.314 . S
N533 C537 1.279 . S
C534 C532 1.348 . S
C534 C536 1.353 . S
C534 H592 0.929 . S
C535 C532 1.356 . S
C535 C537 1.358 . S
C535 H593 0.930 . S
C536 N533 1.314 . S
C536 C534 1.353 . S
C536 H594 0.930 . S
C537 N533 1.279 . S
C537 C535 1.358 . S
C537 H595 0.930 . S
C538 C541 1.348 . S
C538 C542 1.356 . S
C538 O589 1.325 . S
C539 N540 1.279 . S
C539 C542 1.358 . S
C539 H596 0.930 . S
N540 C539 1.279 . S
N540 C543 1.314 . S
C541 C538 1.348 . S
C541 C543 1.353 . S
C541 H597 0.929 . S
C542 C538 1.356 . S
C542 C539 1.358 . S
C542 H598 0.930 . S
C543 N540 1.314 . S
C543 C541 1.353 . S
C543 H599 0.930 . S
C544 N545 1.314 . S
C544 C549 1.353 . S
C544 H550 0.930 . S
N545 Li528 1.990 . S
N545 C544 1.314 . S
N545 C547 1.279 . S
C546 C547 1.358 . S
C546 C548 1.356 . S
C546 H600 0.930 . S
C547 N545 1.279 . S
C547 C546 1.358 . S
C547 H551 0.930 . S
C548 C546 1.356 . S
C548 C549 1.348 . S
C549 C544 1.353 . S
C549 C548 1.348 . S
C549 H601 0.929 . S
H550 C544 0.930 . S
H551 C547 0.930 . S
C552 N553 1.314 . S
C552 C554 1.353 . S
C552 H558 0.930 . S
N553 Li529 1.990 . S
N553 C552 1.314 . S
N553 C556 1.279 . S
C554 C552 1.353 . S
C554 C557 1.348 . S
C554 H602 0.929 . S
C555 C556 1.358 . S
C555 C557 1.356 . S
C555 H603 0.930 . S
C556 N553 1.279 . S
C556 C555 1.358 . S
C556 H559 0.930 . S
C557 C554 1.348 . S
C557 C555 1.356 . S
H558 C552 0.930 . S
H559 C556 0.930 . S
C560 C562 1.348 . S
C560 C563 1.356 . S
C560 O590 1.325 . S
N561 C564 1.314 . S
N561 C565 1.279 . S
C562 C560 1.348 . S
C562 C564 1.353 . S
C562 H604 0.929 . S
C563 C560 1.356 . S
C563 C565 1.358 . S
C563 H605 0.930 . S
C564 N561 1.314 . S
C564 C562 1.353 . S
C564 H606 0.930 . S
C565 N561 1.279 . S
C565 C563 1.358 . S
C565 H607 0.930 . S
C566 C567 1.348 . S
C566 C568 1.356 . S
C566 O591 1.325 . S
C567 C566 1.348 . S
C567 C569 1.353 . S
C567 H608 0.929 . S
C568 C566 1.356 . S
C568 C570 1.358 . S
C568 H609 0.930 . S
C569 C567 1.353 . S
C569 N571 1.314 . S
C569 H610 0.930 . S
C570 C568 1.358 . S
C570 N571 1.279 . S
C570 H611 0.930 . S
N571 C569 1.314 . S
N571 C570 1.279 . S
C572 C574 1.353 . S
C572 N575 1.314 . S
C572 H578 0.930 . S
C573 N575 1.279 . S
C573 C576 1.358 . S
C573 H579 0.930 . S
C574 C572 1.353 . S
C574 C577 1.348 . S
C574 H612 0.929 . S
N575 Li530 1.990 . S
N575 C572 1.314 . S
N575 C573 1.279 . S
C576 C573 1.358 . S
C576 C577 1.356 . S
C576 H613 0.930 . S
C577 C574 1.348 . S
C577 C576 1.356 . S
H578 C572 0.930 . S
H579 C573 0.930 . S
C580 N581 1.314 . S
C580 C582 1.353 . S
C580 H586 0.930 . S
N581 Li531 1.990 . S
N581 C580 1.314 . S
N581 C584 1.279 . S
C582 C580 1.353 . S
C582 C585 1.348 . S
C582 H614 0.929 . S
C583 C584 1.358 . S
C583 C585 1.356 . S
C583 H615 0.930 . S
C584 N581 1.279 . S
C584 C583 1.358 . S
C584 H587 0.930 . S
C585 C582 1.348 . S
C585 C583 1.356 . S
H586 C580 0.930 . S
H587 C584 0.930 . S
O588 Li528 1.956 . S
O588 Li529 1.970 . S
O588 Li530 1.961 . S
O588 C532 1.325 . S
O589 Li528 1.970 . S
O589 Li529 1.956 . S
O589 Li531 1.961 . S
O589 C538 1.325 . S
O590 Li528 1.961 . S
O590 Li530 1.956 . S
O590 Li531 1.970 . S
O590 C560 1.325 . S
O591 Li529 1.961 . S
O591 Li530 1.970 . S
O591 Li531 1.956 . S
O591 C566 1.325 . S
H592 C534 0.929 . S
H593 C535 0.930 . S
H594 C536 0.930 . S
H595 C537 0.930 . S
H596 C539 0.930 . S
H597 C541 0.929 . S
H598 C542 0.930 . S
H599 C543 0.930 . S
H600 C546 0.930 . S
H601 C549 0.929 . S
H602 C554 0.929 . S
H603 C555 0.930 . S
H604 C562 0.929 . S
H605 C563 0.930 . S
H606 C564 0.930 . S
H607 C565 0.930 . S
H608 C567 0.929 . S
H609 C568 0.930 . S
H610 C569 0.930 . S
H611 C570 0.930 . S
H612 C574 0.929 . S
H613 C576 0.930 . S
H614 C582 0.929 . S
H615 C583 0.930 . S
Li616 N633 1.990 . S
Li616 O676 1.956 1_455 S
Li616 O677 1.970 . S
Li616 O678 1.961 . S
Li617 N641 1.990 . S
Li617 O676 1.970 . S
Li617 O677 1.956 1_655 S
Li617 O679 1.961 1_655 S
Li618 N663 1.990 . S
Li618 O676 1.961 1_455 S
Li618 O678 1.956 . S
Li618 O679 1.970 . S
Li619 N669 1.990 . S
Li619 O677 1.961 . S
Li619 O678 1.970 . S
Li619 O679 1.956 . S
C620 C622 1.348 . S
C620 C623 1.356 . S
C620 O676 1.325 . S
N621 C624 1.314 . S
N621 C625 1.279 . S
C622 C620 1.348 . S
C622 C624 1.353 . S
C622 H680 0.929 . S
C623 C620 1.356 . S
C623 C625 1.358 . S
C623 H681 0.930 . S
C624 N621 1.314 . S
C624 C622 1.353 . S
C624 H682 0.930 . S
C625 N621 1.279 . S
C625 C623 1.358 . S
C625 H683 0.930 . S
C626 C629 1.348 . S
C626 C630 1.356 . S
C626 O677 1.325 . S
C627 N628 1.279 . S
C627 C630 1.358 . S
C627 H684 0.930 . S
N628 C627 1.279 . S
N628 C631 1.314 . S
C629 C626 1.348 . S
C629 C631 1.353 . S
C629 H685 0.929 . S
C630 C626 1.356 . S
C630 C627 1.358 . S
C630 H686 0.930 . S
C631 N628 1.314 . S
C631 C629 1.353 . S
C631 H687 0.930 . S
C632 N633 1.314 . S
C632 C637 1.353 . S
C632 H638 0.930 . S
N633 Li616 1.990 . S
N633 C632 1.314 . S
N633 C635 1.279 . S
C634 C635 1.358 . S
C634 C636 1.356 . S
C634 H688 0.965 . S
C635 N633 1.279 . S
C635 C634 1.358 . S
C635 H639 0.930 1_455 S
C636 C634 1.356 . S
C636 C637 1.348 . S
C637 C632 1.353 . S
C637 C636 1.348 . S
C637 H689 0.929 . S
H638 C632 0.930 . S
H639 C635 0.930 1_655 S
C640 N641 1.314 . S
C640 C642 1.353 . S
C640 H646 0.930 . S
N641 Li617 1.990 . S
N641 C640 1.314 . S
N641 C644 1.279 . S
C642 C640 1.353 . S
C642 C645 1.348 . S
C642 H690 0.929 . S
C643 C644 1.358 . S
C643 C645 1.356 . S
C643 H691 0.930 . S
C644 N641 1.279 . S
C644 C643 1.358 . S
C644 H647 0.930 . S
C645 C642 1.348 . S
C645 C643 1.356 . S
H646 C640 0.930 . S
H647 C644 0.930 . S
C648 C650 1.348 . S
C648 C651 1.356 . S
C648 O678 1.325 . S
N649 C652 1.314 . S
N649 C653 1.279 . S
C650 C648 1.348 . S
C650 C652 1.353 . S
C650 H692 0.929 . S
C651 C648 1.356 . S
C651 C653 1.358 . S
C651 H693 0.930 . S
C652 N649 1.314 . S
C652 C650 1.353 . S
C652 H694 0.930 . S
C653 N649 1.279 . S
C653 C651 1.358 . S
C653 H695 0.930 1_556 S
C654 C655 1.348 . S
C654 C656 1.356 . S
C654 O679 1.325 . S
C655 C654 1.348 . S
C655 C657 1.353 . S
C655 H696 0.929 . S
C656 C654 1.356 . S
C656 C658 1.363 1_455 S
C656 H697 0.926 1_455 S
C657 C655 1.353 . S
C657 N659 1.314 . S
C657 H698 0.930 . S
C658 C656 1.363 1_655 S
C658 N659 1.269 1_655 S
C658 H699 0.937 . S
N659 C657 1.314 . S
N659 C658 1.269 1_455 S
C660 C662 1.353 . S
C660 N663 1.314 1_655 S
C660 H666 0.930 . S
C661 N663 1.279 . S
C661 C664 1.358 . S
C661 H667 0.930 . S
C662 C660 1.353 . S
C662 C665 1.348 1_655 S
C662 H700 0.929 . S
N663 Li618 1.990 . S
N663 C660 1.314 1_455 S
N663 C661 1.279 . S
C664 C661 1.358 . S
C664 C665 1.356 . S
C664 H701 0.930 . S
C665 C662 1.348 1_455 S
C665 C664 1.356 . S
H666 C660 0.930 . S
H667 C661 0.930 . S
C668 N669 1.314 . S
C668 C670 1.353 . S
C668 H674 0.930 . S
N669 Li619 1.990 . S
N669 C668 1.314 . S
N669 C672 1.279 . S
C670 C668 1.353 . S
C670 C673 1.348 . S
C670 H702 0.929 . S
C671 C672 1.358 . S
C671 C673 1.356 . S
C671 H703 0.930 . S
C672 N669 1.279 . S
C672 C671 1.358 . S
C672 H675 0.930 . S
C673 C670 1.348 . S
C673 C671 1.356 . S
H674 C668 0.930 . S
H675 C672 0.930 . S
O676 Li616 1.956 1_655 S
O676 Li617 1.970 . S
O676 Li618 1.961 1_655 S
O676 C620 1.325 . S
O677 Li616 1.970 . S
O677 Li617 1.956 1_455 S
O677 Li619 1.961 . S
O677 C626 1.325 . S
O678 Li616 1.961 . S
O678 Li618 1.956 . S
O678 Li619 1.970 . S
O678 C648 1.325 . S
O679 Li617 1.961 1_455 S
O679 Li618 1.970 . S
O679 Li619 1.956 . S
O679 C654 1.325 . S
H680 C622 0.929 . S
H681 C623 0.930 . S
H682 C624 0.930 . S
H683 C625 0.930 . S
H684 C627 0.930 . S
H685 C629 0.929 . S
H686 C630 0.930 . S
H687 C631 0.930 . S
H688 C634 0.965 . S
H689 C637 0.929 . S
H690 C642 0.929 . S
H691 C643 0.930 . S
H692 C650 0.929 . S
H693 C651 0.930 . S
H694 C652 0.930 . S
H695 C653 0.930 1_554 S
H696 C655 0.929 . S
H697 C656 0.926 1_655 S
H698 C657 0.930 . S
H699 C658 0.937 . S
H700 C662 0.929 . S
H701 C664 0.930 . S
H702 C670 0.929 . S
H703 C671 0.930 . S
Li704 N721 1.990 . S
Li704 O764 1.956 1_545 S
Li704 O765 1.970 . S
Li704 O766 1.961 . S
Li705 N729 1.990 . S
Li705 O764 1.970 . S
Li705 O765 1.956 1_565 S
Li705 O767 1.961 1_565 S
Li706 N751 1.990 . S
Li706 O764 1.961 1_545 S
Li706 O766 1.956 . S
Li706 O767 1.970 . S
Li707 N757 1.990 . S
Li707 O765 1.961 . S
Li707 O766 1.970 . S
Li707 O767 1.956 . S
C708 C710 1.348 . S
C708 C711 1.356 . S
C708 O764 1.325 . S
N709 C712 1.314 . S
N709 C713 1.279 . S
C710 C708 1.348 . S
C710 C712 1.353 . S
C710 H768 0.929 . S
C711 C708 1.356 . S
C711 C713 1.358 . S
C711 H769 0.931 . S
C712 N709 1.314 . S
C712 C710 1.353 . S
C712 H770 0.930 . S
C713 N709 1.279 . S
C713 C711 1.358 . S
C713 H771 0.930 . S
C714 C717 1.348 . S
C714 C718 1.356 . S
C714 O765 1.325 . S
C715 N716 1.279 . S
C715 C718 1.358 . S
C715 H772 0.930 . S
N716 C715 1.279 . S
N716 C719 1.314 . S
C717 C714 1.348 . S
C717 C719 1.353 . S
C717 H773 0.929 . S
C718 C714 1.356 . S
C718 C715 1.358 . S
C718 H774 0.930 . S
C719 N716 1.314 . S
C719 C717 1.353 . S
C719 H775 0.930 . S
C720 N721 1.314 . S
C720 C725 1.353 . S
C720 H726 0.930 . S
N721 Li704 1.990 . S
N721 C720 1.314 . S
N721 C723 1.279 . S
C722 C723 1.358 . S
C722 C724 1.356 . S
C722 H776 0.930 . S
C723 N721 1.279 . S
C723 C722 1.358 . S
C723 H727 0.930 1_545 S
C724 C722 1.356 . S
C724 C725 1.348 . S
C725 C720 1.353 . S
C725 C724 1.348 . S
C725 H777 0.929 . S
H726 C720 0.930 . S
H727 C723 0.930 1_565 S
C728 N729 1.314 . S
C728 C730 1.353 . S
C728 H734 0.930 . S
N729 Li705 1.990 . S
N729 C728 1.314 . S
N729 C732 1.279 . S
C730 C728 1.353 . S
C730 C733 1.348 . S
C730 H778 0.929 . S
C731 C732 1.358 . S
C731 C733 1.356 . S
C731 H779 0.930 . S
C732 N729 1.279 . S
C732 C731 1.358 . S
C732 H735 0.930 . S
C733 C730 1.348 . S
C733 C731 1.356 . S
H734 C728 0.930 . S
H735 C732 0.930 . S
C736 C738 1.348 . S
C736 C739 1.356 . S
C736 O766 1.325 . S
N737 C740 1.314 . S
N737 C741 1.279 . S
C738 C736 1.348 . S
C738 C740 1.353 . S
C738 H780 0.929 . S
C739 C736 1.356 . S
C739 C741 1.358 . S
C739 H781 0.930 . S
C740 N737 1.314 . S
C740 C738 1.353 . S
C740 H782 0.930 . S
C741 N737 1.279 . S
C741 C739 1.358 . S
C741 H783 0.930 . S
C742 C743 1.348 . S
C742 C744 1.356 . S
C742 O767 1.325 . S
C743 C742 1.348 . S
C743 C745 1.353 . S
C743 H784 0.929 . S
C744 C742 1.356 . S
C744 C746 1.358 . S
C744 H785 0.930 . S
C745 C743 1.353 . S
C745 N747 1.314 . S
C745 H786 0.930 . S
C746 C744 1.358 . S
C746 N747 1.279 . S
C746 H787 0.930 1_545 S
N747 C745 1.314 . S
N747 C746 1.279 . S
C748 C750 1.353 . S
C748 N751 1.314 . S
C748 H754 0.930 1_545 S
C749 N751 1.279 . S
C749 C752 1.358 . S
C749 H755 0.930 . S
C750 C748 1.353 . S
C750 C753 1.348 . S
C750 H788 0.929 1_545 S
N751 Li706 1.990 . S
N751 C748 1.314 . S
N751 C749 1.279 . S
C752 C749 1.358 . S
C752 C753 1.356 . S
C752 H789 0.930 . S
C753 C750 1.348 . S
C753 C752 1.356 . S
H754 C748 0.930 1_565 S
H755 C749 0.930 . S
C756 N757 1.314 . S
C756 C758 1.353 . S
C756 H762 0.930 . S
N757 Li707 1.990 . S
N757 C756 1.314 . S
N757 C760 1.279 . S
C758 C756 1.353 . S
C758 C761 1.348 . S
C758 H790 0.929 . S
C759 C760 1.358 . S
C759 C761 1.356 . S
C759 H791 0.930 . S
C760 N757 1.279 . S
C760 C759 1.358 . S
C760 H763 0.930 . S
C761 C758 1.348 . S
C761 C759 1.356 . S
H762 C756 0.930 . S
H763 C760 0.930 . S
O764 Li704 1.956 1_565 S
O764 Li705 1.970 . S
O764 Li706 1.961 1_565 S
O764 C708 1.325 . S
O765 Li704 1.970 . S
O765 Li705 1.956 1_545 S
O765 Li707 1.961 . S
O765 C714 1.325 . S
O766 Li704 1.961 . S
O766 Li706 1.956 . S
O766 Li707 1.970 . S
O766 C736 1.325 . S
O767 Li705 1.961 1_545 S
O767 Li706 1.970 . S
O767 Li707 1.956 . S
O767 C742 1.325 . S
H768 C710 0.929 . S
H769 C711 0.931 . S
H770 C712 0.930 . S
H771 C713 0.930 . S
H772 C715 0.930 . S
H773 C717 0.929 . S
H774 C718 0.930 . S
H775 C719 0.930 . S
H776 C722 0.930 . S
H777 C725 0.929 . S
H778 C730 0.929 . S
H779 C731 0.930 . S
H780 C738 0.929 . S
H781 C739 0.930 . S
H782 C740 0.930 . S
H783 C741 0.930 . S
H784 C743 0.929 . S
H785 C744 0.930 . S
H786 C745 0.930 . S
H787 C746 0.930 1_565 S
H788 C750 0.929 1_565 S
H789 C752 0.930 . S
H790 C758 0.929 . S
H791 C759 0.930 . S
Li792 N809 1.990 . S
Li792 O852 1.956 . S
Li792 O853 1.970 . S
Li792 O854 1.961 . S
Li793 N817 1.990 . S
Li793 O852 1.970 . S
Li793 O853 1.956 . S
Li793 O855 1.961 . S
Li794 N839 1.990 . S
Li794 O852 1.961 . S
Li794 O854 1.956 . S
Li794 O855 1.970 . S
Li795 N845 1.990 . S
Li795 O853 1.961 . S
Li795 O854 1.970 . S
Li795 O855 1.956 . S
C796 C798 1.348 . S
C796 C799 1.356 . S
C796 O852 1.325 . S
N797 C800 1.314 . S
N797 C801 1.279 . S
C798 C796 1.348 . S
C798 C800 1.353 . S
C798 H856 0.929 . S
C799 C796 1.356 . S
C799 C801 1.358 . S
C799 H857 0.930 . S
C800 N797 1.314 . S
C800 C798 1.353 . S
C800 H858 0.930 . S
C801 N797 1.279 . S
C801 C799 1.358 . S
C801 H859 0.930 . S
C802 C805 1.348 . S
C802 C806 1.356 . S
C802 O853 1.325 . S
C803 N804 1.279 . S
C803 C806 1.358 . S
C803 H860 0.930 . S
N804 C803 1.279 . S
N804 C807 1.314 . S
C805 C802 1.348 . S
C805 C807 1.353 . S
C805 H861 0.929 . S
C806 C802 1.356 . S
C806 C803 1.358 . S
C806 H862 0.930 . S
C807 N804 1.314 . S
C807 C805 1.353 . S
C807 H863 0.930 . S
C808 N809 1.314 . S
C808 C813 1.353 . S
C808 H814 0.930 . S
N809 Li792 1.990 . S
N809 C808 1.314 . S
N809 C811 1.279 . S
C810 C811 1.358 . S
C810 C812 1.356 . S
C810 H864 0.930 . S
C811 N809 1.279 . S
C811 C810 1.358 . S
C811 H815 0.930 . S
C812 C810 1.356 . S
C812 C813 1.348 . S
C813 C808 1.353 . S
C813 C812 1.348 . S
C813 H865 0.929 . S
H814 C808 0.930 . S
H815 C811 0.930 . S
C816 N817 1.314 . S
C816 C818 1.353 . S
C816 H822 0.930 . S
N817 Li793 1.990 . S
N817 C816 1.314 . S
N817 C820 1.279 . S
C818 C816 1.353 . S
C818 C821 1.348 . S
C818 H866 0.929 . S
C819 C820 1.358 . S
C819 C821 1.356 . S
C819 H867 0.930 . S
C820 N817 1.279 . S
C820 C819 1.358 . S
C820 H823 0.930 . S
C821 C818 1.348 . S
C821 C819 1.356 . S
H822 C816 0.930 . S
H823 C820 0.930 . S
C824 C826 1.348 . S
C824 C827 1.356 . S
C824 O854 1.325 . S
N825 C828 1.314 . S
N825 C829 1.279 . S
C826 C824 1.348 . S
C826 C828 1.353 . S
C826 H868 0.929 . S
C827 C824 1.356 . S
C827 C829 1.358 . S
C827 H869 0.930 . S
C828 N825 1.314 . S
C828 C826 1.353 . S
C828 H870 0.930 . S
C829 N825 1.279 . S
C829 C827 1.358 . S
C829 H871 0.930 . S
C830 C831 1.348 . S
C830 C832 1.356 . S
C830 O855 1.325 . S
C831 C830 1.348 . S
C831 C833 1.353 . S
C831 H872 0.929 . S
C832 C830 1.356 . S
C832 C834 1.358 . S
C832 H873 0.930 . S
C833 C831 1.353 . S
C833 N835 1.314 . S
C833 H874 0.930 . S
C834 C832 1.358 . S
C834 N835 1.279 . S
C834 H875 0.930 . S
N835 C833 1.314 . S
N835 C834 1.279 . S
C836 C838 1.353 . S
C836 N839 1.314 . S
C836 H842 0.930 . S
C837 N839 1.279 . S
C837 C840 1.358 . S
C837 H843 0.930 . S
C838 C836 1.353 . S
C838 C841 1.348 . S
C838 H876 0.929 . S
N839 Li794 1.990 . S
N839 C836 1.314 . S
N839 C837 1.279 . S
C840 C837 1.358 . S
C840 C841 1.356 . S
C840 H877 0.930 . S
C841 C838 1.348 . S
C841 C840 1.356 . S
H842 C836 0.930 . S
H843 C837 0.930 . S
C844 N845 1.314 . S
C844 C846 1.353 . S
C844 H850 0.930 . S
N845 Li795 1.990 . S
N845 C844 1.314 . S
N845 C848 1.279 . S
C846 C844 1.353 . S
C846 C849 1.348 . S
C846 H878 0.929 . S
C847 C848 1.358 . S
C847 C849 1.356 . S
C847 H879 0.930 . S
C848 N845 1.279 . S
C848 C847 1.358 . S
C848 H851 0.930 . S
C849 C846 1.348 . S
C849 C847 1.356 . S
H850 C844 0.930 . S
H851 C848 0.930 . S
O852 Li792 1.956 . S
O852 Li793 1.970 . S
O852 Li794 1.961 . S
O852 C796 1.325 . S
O853 Li792 1.970 . S
O853 Li793 1.956 . S
O853 Li795 1.961 . S
O853 C802 1.325 . S
O854 Li792 1.961 . S
O854 Li794 1.956 . S
O854 Li795 1.970 . S
O854 C824 1.325 . S
O855 Li793 1.961 . S
O855 Li794 1.970 . S
O855 Li795 1.956 . S
O855 C830 1.325 . S
H856 C798 0.929 . S
H857 C799 0.930 . S
H858 C800 0.930 . S
H859 C801 0.930 . S
H860 C803 0.930 . S
H861 C805 0.929 . S
H862 C806 0.930 . S
H863 C807 0.930 . S
H864 C810 0.930 . S
H865 C813 0.929 . S
H866 C818 0.929 . S
H867 C819 0.930 . S
H868 C826 0.929 . S
H869 C827 0.930 . S
H870 C828 0.930 . S
H871 C829 0.930 . S
H872 C831 0.929 . S
H873 C832 0.930 . S
H874 C833 0.930 . S
H875 C834 0.930 . S
H876 C838 0.929 . S
H877 C840 0.930 . S
H878 C846 0.929 . S
H879 C847 0.930 . S
Li880 N897 1.990 . S
Li880 O940 1.956 . S
Li880 O941 1.970 . S
Li880 O942 1.961 . S
Li881 N905 1.990 . S
Li881 O940 1.970 . S
Li881 O941 1.956 . S
Li881 O943 1.961 . S
Li882 N927 1.990 1_545 S
Li882 O940 1.961 . S
Li882 O942 1.956 . S
Li882 O943 1.970 . S
Li883 N933 1.990 . S
Li883 O941 1.961 . S
Li883 O942 1.970 . S
Li883 O943 1.956 . S
C884 C886 1.348 . S
C884 C887 1.356 . S
C884 O940 1.325 . S
N885 C888 1.314 . S
N885 C889 1.279 . S
C886 C884 1.348 . S
C886 C888 1.353 . S
C886 H944 0.929 . S
C887 C884 1.356 . S
C887 C889 1.358 . S
C887 H945 0.930 . S
C888 N885 1.314 . S
C888 C886 1.353 . S
C888 H946 0.930 . S
C889 N885 1.279 . S
C889 C887 1.358 . S
C889 H947 0.930 . S
C890 C893 1.348 . S
C890 C894 1.356 . S
C890 O941 1.325 . S
C891 N892 1.279 . S
C891 C894 1.358 . S
C891 H948 0.930 . S
N892 C891 1.279 . S
N892 C895 1.314 . S
C893 C890 1.348 . S
C893 C895 1.353 . S
C893 H949 0.929 . S
C894 C890 1.356 . S
C894 C891 1.358 . S
C894 H950 0.930 . S
C895 N892 1.314 . S
C895 C893 1.353 . S
C895 H951 0.930 . S
C896 N897 1.314 . S
C896 C901 1.353 . S
C896 H902 0.930 . S
N897 Li880 1.990 . S
N897 C896 1.314 . S
N897 C899 1.279 . S
C898 C899 1.358 . S
C898 C900 1.356 . S
C898 H952 0.930 . S
C899 N897 1.279 . S
C899 C898 1.358 . S
C899 H903 0.930 . S
C900 C898 1.356 . S
C900 C901 1.348 . S
C901 C896 1.353 . S
C901 C900 1.348 . S
C901 H953 0.929 . S
H902 C896 0.930 . S
H903 C899 0.930 . S
C904 N905 1.314 . S
C904 C906 1.353 . S
C904 H910 0.888 1_545 S
N905 Li881 1.990 . S
N905 C904 1.314 . S
N905 C908 1.279 . S
C906 C904 1.353 . S
C906 C909 1.348 . S
C906 H954 0.929 1_545 S
C907 C908 1.358 . S
C907 C909 1.356 . S
C907 H955 0.930 . S
C908 N905 1.279 . S
C908 C907 1.358 . S
C908 H911 0.930 . S
C909 C906 1.348 . S
C909 C907 1.356 . S
H910 C904 0.888 1_565 S
H911 C908 0.930 . S
C912 C914 1.348 . S
C912 C915 1.356 . S
C912 O942 1.325 . S
N913 C916 1.314 . S
N913 C917 1.279 . S
C914 C912 1.348 . S
C914 C916 1.353 . S
C914 H956 0.929 . S
C915 C912 1.356 . S
C915 C917 1.358 . S
C915 H957 0.930 . S
C916 N913 1.314 . S
C916 C914 1.353 . S
C916 H958 0.930 . S
C917 N913 1.279 . S
C917 C915 1.358 . S
C917 H959 0.930 . S
C918 C919 1.348 . S
C918 C920 1.356 . S
C918 O943 1.325 1_565 S
C919 C918 1.348 . S
C919 C921 1.353 . S
C919 H960 0.929 . S
C920 C918 1.356 . S
C920 C922 1.358 . S
C920 H961 0.930 . S
C921 C919 1.353 . S
C921 N923 1.314 . S
C921 H962 0.930 . S
C922 C920 1.358 . S
C922 N923 1.279 . S
C922 H963 0.930 . S
N923 C921 1.314 . S
N923 C922 1.279 . S
C924 C926 1.353 . S
C924 N927 1.314 . S
C924 H930 0.930 . S
C925 N927 1.279 . S
C925 C928 1.358 . S
C925 H931 0.930 . S
C926 C924 1.353 . S
C926 C929 1.348 . S
C926 H964 0.929 . S
N927 Li882 1.990 1_565 S
N927 C924 1.314 . S
N927 C925 1.279 . S
C928 C925 1.358 . S
C928 C929 1.356 . S
C928 H965 0.930 . S
C929 C926 1.348 . S
C929 C928 1.356 . S
H930 C924 0.930 . S
H931 C925 0.930 . S
C932 N933 1.314 . S
C932 C934 1.353 . S
C932 H938 0.930 . S
N933 Li883 1.990 . S
N933 C932 1.314 . S
N933 C936 1.294 . S
C934 C932 1.353 . S
C934 C937 1.348 . S
C934 H966 0.929 . S
C935 C936 1.360 1_565 S
C935 C937 1.356 1_565 S
C935 H967 0.930 . S
C936 N933 1.294 . S
C936 C935 1.360 1_545 S
C936 H939 0.913 1_545 S
C937 C934 1.348 . S
C937 C935 1.356 1_545 S
H938 C932 0.930 . S
H939 C936 0.913 1_565 S
O940 Li880 1.956 . S
O940 Li881 1.970 . S
O940 Li882 1.961 . S
O940 C884 1.325 . S
O941 Li880 1.970 . S
O941 Li881 1.956 . S
O941 Li883 1.961 . S
O941 C890 1.325 . S
O942 Li880 1.961 . S
O942 Li882 1.956 . S
O942 Li883 1.970 . S
O942 C912 1.325 . S
O943 Li881 1.961 . S
O943 Li882 1.970 . S
O943 Li883 1.956 . S
O943 C918 1.325 1_545 S
H944 C886 0.929 . S
H945 C887 0.930 . S
H946 C888 0.930 . S
H947 C889 0.930 . S
H948 C891 0.930 . S
H949 C893 0.929 . S
H950 C894 0.930 . S
H951 C895 0.930 . S
H952 C898 0.930 . S
H953 C901 0.929 . S
H954 C906 0.929 1_565 S
H955 C907 0.930 . S
H956 C914 0.929 . S
H957 C915 0.930 . S
H958 C916 0.930 . S
H959 C917 0.930 . S
H960 C919 0.929 . S
H961 C920 0.930 . S
H962 C921 0.930 . S
H963 C922 0.930 . S
H964 C926 0.929 . S
H965 C928 0.930 . S
H966 C934 0.929 . S
H967 C935 0.930 . S
Li968 N985 1.990 . S
Li968 O1028 1.973 . S
Li968 O1029 1.971 1_554 S
Li968 O1030 1.940 1_554 S
Li969 N993 1.990 . S
Li969 O1028 1.970 . S
Li969 O1029 1.956 1_554 S
Li969 O1031 1.961 . S
Li970 N1015 1.990 . S
Li970 O1028 1.961 . S
Li970 O1030 1.956 1_554 S
Li970 O1031 1.970 . S
Li971 N1021 1.990 . S
Li971 O1029 1.961 . S
Li971 O1030 1.970 . S
Li971 O1031 1.956 1_556 S
C972 C974 1.348 . S
C972 C975 1.356 . S
C972 O1028 1.325 . S
N973 C976 1.314 . S
N973 C977 1.279 . S
C974 C972 1.348 . S
C974 C976 1.353 . S
C974 H1032 0.929 . S
C975 C972 1.356 . S
C975 C977 1.358 . S
C975 H1033 0.930 . S
C976 N973 1.314 . S
C976 C974 1.353 . S
C976 H1034 0.930 . S
C977 N973 1.279 . S
C977 C975 1.358 . S
C977 H1035 0.930 . S
C978 C981 1.366 . S
C978 C982 1.356 . S
C978 O1029 1.325 . S
C979 N980 1.279 . S
C979 C982 1.358 . S
C979 H1036 0.930 . S
N980 C979 1.279 . S
N980 C983 1.314 . S
C981 C978 1.366 . S
C981 C983 1.349 . S
C981 H1037 0.918 1_556 S
C982 C978 1.356 . S
C982 C979 1.358 . S
C982 H1038 0.930 . S
C983 N980 1.314 . S
C983 C981 1.349 . S
C983 H1039 0.939 . S
C984 N985 1.285 1_556 S
C984 C989 1.353 . S
C984 H990 0.930 . S
N985 Li968 1.990 . S
N985 C984 1.285 1_554 S
N985 C987 1.310 . S
C986 C987 1.358 . S
C986 C988 1.313 1_554 S
C986 H1040 0.930 . S
C987 N985 1.310 . S
C987 C986 1.358 . S
C987 H991 0.930 . S
C988 C986 1.313 1_556 S
C988 C989 1.395 . S
C989 C984 1.353 . S
C989 C988 1.395 . S
C989 H1041 0.929 . S
H990 C984 0.930 . S
H991 C987 0.930 . S
C992 N993 1.314 . S
C992 C994 1.353 . S
C992 H998 0.930 . S
N993 Li969 1.990 . S
N993 C992 1.314 . S
N993 C996 1.279 . S
C994 C992 1.353 . S
C994 C997 1.348 . S
C994 H1042 0.929 . S
C995 C996 1.358 . S
C995 C997 1.356 . S
C995 H1043 0.930 . S
C996 N993 1.279 . S
C996 C995 1.358 . S
C996 H999 0.930 . S
C997 C994 1.348 . S
C997 C995 1.356 . S
H998 C992 0.930 . S
H999 C996 0.930 . S
C1000 C1002 1.348 . S
C1000 C1003 1.356 . S
C1000 O1030 1.325 . S
N1001 C1004 1.314 . S
N1001 C1005 1.279 . S
C1002 C1000 1.348 . S
C1002 C1004 1.353 . S
C1002 H1044 0.929 . S
C1003 C1000 1.356 . S
C1003 C1005 1.358 . S
C1003 H1045 0.930 . S
C1004 N1001 1.314 . S
C1004 C1002 1.353 . S
C1004 H1046 0.930 . S
C1005 N1001 1.279 . S
C1005 C1003 1.358 . S
C1005 H1047 0.930 . S
C1006 C1007 1.333 1_554 S
C1006 C1008 1.366 . S
C1006 O1031 1.328 . S
C1007 C1006 1.333 1_556 S
C1007 C1009 1.353 . S
C1007 H1048 0.929 . S
C1008 C1006 1.366 . S
C1008 C1010 1.358 . S
C1008 H1049 0.930 . S
C1009 C1007 1.353 . S
C1009 N1011 1.324 . S
C1009 H1050 0.930 . S
C1010 C1008 1.358 . S
C1010 N1011 1.268 1_554 S
C1010 H1051 0.930 . S
N1011 C1009 1.324 . S
N1011 C1010 1.268 1_556 S
C1012 C1014 1.353 . S
C1012 N1015 1.314 . S
C1012 H1018 0.930 . S
C1013 N1015 1.279 1_556 S
C1013 C1016 1.358 . S
C1013 H1019 0.930 . S
C1014 C1012 1.353 . S
C1014 C1017 1.348 . S
C1014 H1052 0.929 . S
N1015 Li970 1.990 . S
N1015 C1012 1.314 . S
N1015 C1013 1.279 1_554 S
C1016 C1013 1.358 . S
C1016 C1017 1.356 1_556 S
C1016 H1053 0.930 . S
C1017 C1014 1.348 . S
C1017 C1016 1.356 1_554 S
H1018 C1012 0.930 . S
H1019 C1013 0.930 . S
C1020 N1021 1.314 . S
C1020 C1022 1.353 . S
C1020 H1026 0.930 . S
N1021 Li971 1.990 . S
N1021 C1020 1.314 . S
N1021 C1024 1.279 . S
C1022 C1020 1.353 . S
C1022 C1025 1.348 . S
C1022 H1054 0.929 . S
C1023 C1024 1.358 . S
C1023 C1025 1.356 . S
C1023 H1055 0.930 . S
C1024 N1021 1.279 . S
C1024 C1023 1.358 . S
C1024 H1027 0.930 . S
C1025 C1022 1.348 . S
C1025 C1023 1.356 . S
H1026 C1020 0.930 . S
H1027 C1024 0.930 . S
O1028 Li968 1.973 . S
O1028 Li969 1.970 . S
O1028 Li970 1.961 . S
O1028 C972 1.325 . S
O1029 Li968 1.971 1_556 S
O1029 Li969 1.956 1_556 S
O1029 Li971 1.961 . S
O1029 C978 1.325 . S
O1030 Li968 1.940 1_556 S
O1030 Li970 1.956 1_556 S
O1030 Li971 1.970 . S
O1030 C1000 1.325 . S
O1031 Li969 1.961 . S
O1031 Li970 1.970 . S
O1031 Li971 1.956 1_554 S
O1031 C1006 1.328 . S
H1032 C974 0.929 . S
H1033 C975 0.930 . S
H1034 C976 0.930 . S
H1035 C977 0.930 . S
H1036 C979 0.930 . S
H1037 C981 0.918 1_554 S
H1038 C982 0.930 . S
H1039 C983 0.939 . S
H1040 C986 0.930 . S
H1041 C989 0.929 . S
H1042 C994 0.929 . S
H1043 C995 0.930 . S
H1044 C1002 0.929 . S
H1045 C1003 0.930 . S
H1046 C1004 0.930 . S
H1047 C1005 0.930 . S
H1048 C1007 0.929 . S
H1049 C1008 0.930 . S
H1050 C1009 0.930 . S
H1051 C1010 0.930 . S
H1052 C1014 0.929 . S
H1053 C1016 0.930 . S
H1054 C1022 0.929 . S
H1055 C1023 0.930 . S
Li1056 N1073 1.990 . S
Li1056 O1116 1.956 . S
Li1056 O1117 1.970 . S
Li1056 O1118 1.961 . S
Li1057 N1081 1.990 . S
Li1057 O1116 1.970 . S
Li1057 O1117 1.956 . S
Li1057 O1119 1.961 . S
Li1058 N1103 1.990 . S
Li1058 O1116 1.961 . S
Li1058 O1118 1.956 . S
Li1058 O1119 1.970 . S
Li1059 N1109 1.990 1_554 S
Li1059 O1117 1.961 . S
Li1059 O1118 1.970 . S
Li1059 O1119 1.956 . S
C1060 C1062 1.348 . S
C1060 C1063 1.356 . S
C1060 O1116 1.325 . S
N1061 C1064 1.314 . S
N1061 C1065 1.279 . S
C1062 C1060 1.348 . S
C1062 C1064 1.353 . S
C1062 H1120 0.929 . S
C1063 C1060 1.356 . S
C1063 C1065 1.358 . S
C1063 H1121 0.930 . S
C1064 N1061 1.314 . S
C1064 C1062 1.353 . S
C1064 H1122 0.930 . S
C1065 N1061 1.279 . S
C1065 C1063 1.358 . S
C1065 H1123 0.930 . S
C1066 C1069 1.348 . S
C1066 C1070 1.356 . S
C1066 O1117 1.325 . S
C1067 N1068 1.279 . S
C1067 C1070 1.358 . S
C1067 H1124 0.930 . S
N1068 C1067 1.279 . S
N1068 C1071 1.314 . S
C1069 C1066 1.348 . S
C1069 C1071 1.353 . S
C1069 H1125 0.929 . S
C1070 C1066 1.356 . S
C1070 C1067 1.358 . S
C1070 H1126 0.930 . S
C1071 N1068 1.314 . S
C1071 C1069 1.353 . S
C1071 H1127 0.930 . S
C1072 N1073 1.314 . S
C1072 C1077 1.353 . S
C1072 H1078 0.934 . S
N1073 Li1056 1.990 . S
N1073 C1072 1.314 . S
N1073 C1075 1.279 . S
C1074 C1075 1.358 . S
C1074 C1076 1.356 . S
C1074 H1128 0.930 . S
C1075 N1073 1.279 . S
C1075 C1074 1.358 . S
C1075 H1079 0.930 . S
C1076 C1074 1.356 . S
C1076 C1077 1.348 . S
C1077 C1072 1.353 . S
C1077 C1076 1.348 . S
C1077 H1129 0.929 1_554 S
H1078 C1072 0.934 . S
H1079 C1075 0.930 . S
C1080 N1081 1.314 . S
C1080 C1082 1.353 . S
C1080 H1086 0.930 . S
N1081 Li1057 1.990 . S
N1081 C1080 1.314 . S
N1081 C1084 1.279 . S
C1082 C1080 1.353 . S
C1082 C1085 1.348 . S
C1082 H1130 0.929 . S
C1083 C1084 1.358 . S
C1083 C1085 1.356 . S
C1083 H1131 0.930 . S
C1084 N1081 1.279 . S
C1084 C1083 1.358 . S
C1084 H1087 0.930 . S
C1085 C1082 1.348 . S
C1085 C1083 1.356 . S
H1086 C1080 0.930 . S
H1087 C1084 0.930 . S
C1088 C1090 1.348 . S
C1088 C1091 1.356 . S
C1088 O1118 1.325 1_556 S
N1089 C1092 1.314 . S
N1089 C1093 1.279 . S
C1090 C1088 1.348 . S
C1090 C1092 1.353 . S
C1090 H1132 0.929 . S
C1091 C1088 1.356 . S
C1091 C1093 1.358 . S
C1091 H1133 0.930 1_556 S
C1092 N1089 1.314 . S
C1092 C1090 1.353 . S
C1092 H1134 0.930 . S
C1093 N1089 1.279 . S
C1093 C1091 1.358 . S
C1093 H1135 0.930 . S
C1094 C1095 1.348 . S
C1094 C1096 1.356 . S
C1094 O1119 1.325 . S
C1095 C1094 1.348 . S
C1095 C1097 1.353 . S
C1095 H1136 0.929 . S
C1096 C1094 1.356 . S
C1096 C1098 1.358 . S
C1096 H1137 0.930 . S
C1097 C1095 1.353 . S
C1097 N1099 1.314 . S
C1097 H1138 0.930 . S
C1098 C1096 1.358 . S
C1098 N1099 1.279 . S
C1098 H1139 0.930 . S
N1099 C1097 1.314 . S
N1099 C1098 1.279 . S
C1100 C1102 1.353 . S
C1100 N1103 1.314 . S
C1100 H1106 0.930 . S
C1101 N1103 1.279 . S
C1101 C1104 1.358 . S
C1101 H1107 0.930 . S
C1102 C1100 1.353 . S
C1102 C1105 1.348 . S
C1102 H1140 0.929 . S
N1103 Li1058 1.990 . S
N1103 C1100 1.314 . S
N1103 C1101 1.279 . S
C1104 C1101 1.358 . S
C1104 C1105 1.356 . S
C1104 H1141 0.930 . S
C1105 C1102 1.348 . S
C1105 C1104 1.356 . S
H1106 C1100 0.930 . S
H1107 C1101 0.930 . S
C1108 N1109 1.314 . S
C1108 C1110 1.353 . S
C1108 H1114 0.930 . S
N1109 Li1059 1.990 1_556 S
N1109 C1108 1.314 . S
N1109 C1112 1.279 . S
C1110 C1108 1.353 . S
C1110 C1113 1.348 . S
C1110 H1142 0.929 . S
C1111 C1112 1.358 . S
C1111 C1113 1.356 . S
C1111 H1143 0.930 . S
C1112 N1109 1.279 . S
C1112 C1111 1.358 . S
C1112 H1115 0.930 . S
C1113 C1110 1.348 . S
C1113 C1111 1.356 . S
H1114 C1108 0.930 . S
H1115 C1112 0.930 . S
O1116 Li1056 1.956 . S
O1116 Li1057 1.970 . S
O1116 Li1058 1.961 . S
O1116 C1060 1.325 . S
O1117 Li1056 1.970 . S
O1117 Li1057 1.956 . S
O1117 Li1059 1.961 . S
O1117 C1066 1.325 . S
O1118 Li1056 1.961 . S
O1118 Li1058 1.956 . S
O1118 Li1059 1.970 . S
O1118 C1088 1.325 1_554 S
O1119 Li1057 1.961 . S
O1119 Li1058 1.970 . S
O1119 Li1059 1.956 . S
O1119 C1094 1.325 . S
H1120 C1062 0.929 . S
H1121 C1063 0.930 . S
H1122 C1064 0.930 . S
H1123 C1065 0.930 . S
H1124 C1067 0.930 . S
H1125 C1069 0.929 . S
H1126 C1070 0.930 . S
H1127 C1071 0.930 . S
H1128 C1074 0.930 . S
H1129 C1077 0.929 1_556 S
H1130 C1082 0.929 . S
H1131 C1083 0.930 . S
H1132 C1090 0.929 . S
H1133 C1091 0.930 1_554 S
H1134 C1092 0.930 . S
H1135 C1093 0.930 . S
H1136 C1095 0.929 . S
H1137 C1096 0.930 . S
H1138 C1097 0.930 . S
H1139 C1098 0.930 . S
H1140 C1102 0.929 . S
H1141 C1104 0.930 . S
H1142 C1110 0.929 . S
H1143 C1111 0.930 . S
Li1144 N1161 1.990 . S
Li1144 O1204 1.956 . S
Li1144 O1205 1.970 . S
Li1144 O1206 1.961 . S
Li1145 N1169 1.990 . S
Li1145 O1204 1.970 . S
Li1145 O1205 1.956 . S
Li1145 O1207 1.961 . S
Li1146 N1191 1.990 . S
Li1146 O1204 1.961 . S
Li1146 O1206 1.956 . S
Li1146 O1207 1.970 . S
Li1147 N1197 1.990 . S
Li1147 O1205 1.961 . S
Li1147 O1206 1.970 . S
Li1147 O1207 1.956 . S
C1148 C1150 1.348 . S
C1148 C1151 1.356 . S
C1148 O1204 1.325 . S
N1149 C1152 1.314 . S
N1149 C1153 1.279 . S
C1150 C1148 1.348 . S
C1150 C1152 1.353 . S
C1150 H1208 0.929 . S
C1151 C1148 1.356 . S
C1151 C1153 1.358 . S
C1151 H1209 0.930 . S
C1152 N1149 1.314 . S
C1152 C1150 1.353 . S
C1152 H1210 0.930 . S
C1153 N1149 1.279 . S
C1153 C1151 1.358 . S
C1153 H1211 0.930 . S
C1154 C1157 1.348 . S
C1154 C1158 1.356 . S
C1154 O1205 1.325 . S
C1155 N1156 1.279 . S
C1155 C1158 1.358 . S
C1155 H1212 0.930 . S
N1156 C1155 1.279 . S
N1156 C1159 1.314 . S
C1157 C1154 1.348 . S
C1157 C1159 1.353 . S
C1157 H1213 0.929 . S
C1158 C1154 1.356 . S
C1158 C1155 1.358 . S
C1158 H1214 0.930 . S
C1159 N1156 1.314 . S
C1159 C1157 1.353 . S
C1159 H1215 0.930 . S
C1160 N1161 1.314 . S
C1160 C1165 1.353 . S
C1160 H1166 0.930 . S
N1161 Li1144 1.990 . S
N1161 C1160 1.314 . S
N1161 C1163 1.279 . S
C1162 C1163 1.358 . S
C1162 C1164 1.356 . S
C1162 H1216 0.930 . S
C1163 N1161 1.279 . S
C1163 C1162 1.358 . S
C1163 H1167 0.930 . S
C1164 C1162 1.356 . S
C1164 C1165 1.348 . S
C1165 C1160 1.353 . S
C1165 C1164 1.348 . S
C1165 H1217 0.929 . S
H1166 C1160 0.930 . S
H1167 C1163 0.930 . S
C1168 N1169 1.314 . S
C1168 C1170 1.353 . S
C1168 H1174 0.930 . S
N1169 Li1145 1.990 . S
N1169 C1168 1.314 . S
N1169 C1172 1.279 . S
C1170 C1168 1.353 . S
C1170 C1173 1.348 . S
C1170 H1218 0.929 . S
C1171 C1172 1.358 . S
C1171 C1173 1.356 . S
C1171 H1219 0.930 . S
C1172 N1169 1.279 . S
C1172 C1171 1.358 . S
C1172 H1175 0.930 . S
C1173 C1170 1.348 . S
C1173 C1171 1.356 . S
H1174 C1168 0.930 . S
H1175 C1172 0.930 . S
C1176 C1178 1.348 . S
C1176 C1179 1.356 . S
C1176 O1206 1.325 . S
N1177 C1180 1.314 . S
N1177 C1181 1.279 . S
C1178 C1176 1.348 . S
C1178 C1180 1.353 . S
C1178 H1220 0.929 . S
C1179 C1176 1.356 . S
C1179 C1181 1.358 . S
C1179 H1221 0.930 . S
C1180 N1177 1.314 . S
C1180 C1178 1.353 . S
C1180 H1222 0.930 . S
C1181 N1177 1.279 . S
C1181 C1179 1.358 . S
C1181 H1223 0.930 . S
C1182 C1183 1.348 1_554 S
C1182 C1184 1.356 . S
C1182 O1207 1.325 . S
C1183 C1182 1.348 1_556 S
C1183 C1185 1.353 . S
C1183 H1224 0.929 . S
C1184 C1182 1.356 . S
C1184 C1186 1.358 1_554 S
C1184 H1225 0.930 . S
C1185 C1183 1.353 . S
C1185 N1187 1.314 . S
C1185 H1226 0.930 . S
C1186 C1184 1.358 1_556 S
C1186 N1187 1.279 . S
C1186 H1227 0.930 . S
N1187 C1185 1.314 . S
N1187 C1186 1.279 . S
C1188 C1190 1.353 1_554 S
C1188 N1191 1.314 . S
C1188 H1194 0.930 . S
C1189 N1191 1.279 . S
C1189 C1192 1.358 1_554 S
C1189 H1195 0.930 . S
C1190 C1188 1.353 1_556 S
C1190 C1193 1.348 . S
C1190 H1228 0.929 . S
N1191 Li1146 1.990 . S
N1191 C1188 1.314 . S
N1191 C1189 1.279 . S
C1192 C1189 1.358 1_556 S
C1192 C1193 1.356 . S
C1192 H1229 0.930 . S
C1193 C1190 1.348 . S
C1193 C1192 1.356 . S
H1194 C1188 0.930 . S
H1195 C1189 0.930 . S
C1196 N1197 1.314 . S
C1196 C1198 1.353 . S
C1196 H1202 0.930 . S
N1197 Li1147 1.990 . S
N1197 C1196 1.314 . S
N1197 C1200 1.279 . S
C1198 C1196 1.353 . S
C1198 C1201 1.348 . S
C1198 H1230 0.929 . S
C1199 C1200 1.358 . S
C1199 C1201 1.356 . S
C1199 H1231 0.930 . S
C1200 N1197 1.279 . S
C1200 C1199 1.358 . S
C1200 H1203 0.930 . S
C1201 C1198 1.348 . S
C1201 C1199 1.356 . S
H1202 C1196 0.930 . S
H1203 C1200 0.930 . S
O1204 Li1144 1.956 . S
O1204 Li1145 1.970 . S
O1204 Li1146 1.961 . S
O1204 C1148 1.325 . S
O1205 Li1144 1.970 . S
O1205 Li1145 1.956 . S
O1205 Li1147 1.961 . S
O1205 C1154 1.325 . S
O1206 Li1144 1.961 . S
O1206 Li1146 1.956 . S
O1206 Li1147 1.970 . S
O1206 C1176 1.325 . S
O1207 Li1145 1.961 . S
O1207 Li1146 1.970 . S
O1207 Li1147 1.956 . S
O1207 C1182 1.325 . S
H1208 C1150 0.929 . S
H1209 C1151 0.930 . S
H1210 C1152 0.930 . S
H1211 C1153 0.930 . S
H1212 C1155 0.930 . S
H1213 C1157 0.929 . S
H1214 C1158 0.930 . S
H1215 C1159 0.930 . S
H1216 C1162 0.930 . S
H1217 C1165 0.929 . S
H1218 C1170 0.929 . S
H1219 C1171 0.930 . S
H1220 C1178 0.929 . S
H1221 C1179 0.930 . S
H1222 C1180 0.930 . S
H1223 C1181 0.930 . S
H1224 C1183 0.929 . S
H1225 C1184 0.930 . S
H1226 C1185 0.930 . S
H1227 C1186 0.930 . S
H1228 C1190 0.929 . S
H1229 C1192 0.930 . S
H1230 C1198 0.929 . S
H1231 C1199 0.930 . S
Li1232 N1249 1.990 . S
Li1232 O1292 1.956 . S
Li1232 O1293 1.970 . S
Li1232 O1294 1.961 . S
Li1233 N1257 1.990 . S
Li1233 O1292 1.970 . S
Li1233 O1293 1.956 . S
Li1233 O1295 1.961 . S
Li1234 N1279 1.990 . S
Li1234 O1292 1.961 . S
Li1234 O1294 1.956 . S
Li1234 O1295 1.970 . S
Li1235 N1285 1.990 . S
Li1235 O1293 1.961 . S
Li1235 O1294 1.970 . S
Li1235 O1295 1.956 . S
C1236 C1238 1.348 . S
C1236 C1239 1.356 . S
C1236 O1292 1.325 . S
N1237 C1240 1.314 . S
N1237 C1241 1.279 . S
C1238 C1236 1.348 . S
C1238 C1240 1.353 . S
C1238 H1296 0.929 . S
C1239 C1236 1.356 . S
C1239 C1241 1.358 . S
C1239 H1297 0.930 . S
C1240 N1237 1.314 . S
C1240 C1238 1.353 . S
C1240 H1298 0.930 . S
C1241 N1237 1.279 . S
C1241 C1239 1.358 . S
C1241 H1299 0.930 . S
C1242 C1245 1.348 . S
C1242 C1246 1.356 . S
C1242 O1293 1.325 . S
C1243 N1244 1.279 . S
C1243 C1246 1.358 . S
C1243 H1300 0.930 . S
N1244 C1243 1.279 . S
N1244 C1247 1.314 . S
C1245 C1242 1.348 . S
C1245 C1247 1.353 . S
C1245 H1301 0.929 . S
C1246 C1242 1.356 . S
C1246 C1243 1.358 . S
C1246 H1302 0.930 . S
C1247 N1244 1.314 . S
C1247 C1245 1.353 . S
C1247 H1303 0.930 . S
C1248 N1249 1.314 . S
C1248 C1253 1.353 . S
C1248 H1254 0.930 . S
N1249 Li1232 1.990 . S
N1249 C1248 1.314 . S
N1249 C1251 1.279 . S
C1250 C1251 1.358 . S
C1250 C1252 1.356 . S
C1250 H1304 0.930 . S
C1251 N1249 1.279 . S
C1251 C1250 1.358 . S
C1251 H1255 0.930 . S
C1252 C1250 1.356 . S
C1252 C1253 1.348 . S
C1253 C1248 1.353 . S
C1253 C1252 1.348 . S
C1253 H1305 0.929 . S
H1254 C1248 0.930 . S
H1255 C1251 0.930 . S
C1256 N1257 1.314 . S
C1256 C1258 1.353 . S
C1256 H1262 0.930 . S
N1257 Li1233 1.990 . S
N1257 C1256 1.314 . S
N1257 C1260 1.279 . S
C1258 C1256 1.353 . S
C1258 C1261 1.348 . S
C1258 H1306 0.929 . S
C1259 C1260 1.358 . S
C1259 C1261 1.356 . S
C1259 H1307 0.930 . S
C1260 N1257 1.279 . S
C1260 C1259 1.358 . S
C1260 H1263 0.930 . S
C1261 C1258 1.348 . S
C1261 C1259 1.356 . S
H1262 C1256 0.930 . S
H1263 C1260 0.930 . S
C1264 C1266 1.348 . S
C1264 C1267 1.356 . S
C1264 O1294 1.325 . S
N1265 C1268 1.314 . S
N1265 C1269 1.279 . S
C1266 C1264 1.348 . S
C1266 C1268 1.353 . S
C1266 H1308 0.929 . S
C1267 C1264 1.356 . S
C1267 C1269 1.358 . S
C1267 H1309 0.930 . S
C1268 N1265 1.314 . S
C1268 C1266 1.353 . S
C1268 H1310 0.930 . S
C1269 N1265 1.279 . S
C1269 C1267 1.358 . S
C1269 H1311 0.930 . S
C1270 C1271 1.348 . S
C1270 C1272 1.356 . S
C1270 O1295 1.325 . S
C1271 C1270 1.348 . S
C1271 C1273 1.353 . S
C1271 H1312 0.929 . S
C1272 C1270 1.356 . S
C1272 C1274 1.358 . S
C1272 H1313 0.930 . S
C1273 C1271 1.353 . S
C1273 N1275 1.314 . S
C1273 H1314 0.930 . S
C1274 C1272 1.358 . S
C1274 N1275 1.279 . S
C1274 H1315 0.930 . S
N1275 C1273 1.314 . S
N1275 C1274 1.279 . S
C1276 C1278 1.353 . S
C1276 N1279 1.314 . S
C1276 H1282 0.930 . S
C1277 N1279 1.279 . S
C1277 C1280 1.358 . S
C1277 H1283 0.930 . S
C1278 C1276 1.353 . S
C1278 C1281 1.348 . S
C1278 H1316 0.929 . S
N1279 Li1234 1.990 . S
N1279 C1276 1.314 . S
N1279 C1277 1.279 . S
C1280 C1277 1.358 . S
C1280 C1281 1.356 . S
C1280 H1317 0.930 . S
C1281 C1278 1.348 . S
C1281 C1280 1.356 . S
H1282 C1276 0.930 . S
H1283 C1277 0.930 . S
C1284 N1285 1.314 . S
C1284 C1286 1.353 . S
C1284 H1290 0.930 . S
N1285 Li1235 1.990 . S
N1285 C1284 1.314 . S
N1285 C1288 1.279 . S
C1286 C1284 1.353 . S
C1286 C1289 1.348 . S
C1286 H1318 0.929 . S
C1287 C1288 1.358 . S
C1287 C1289 1.356 . S
C1287 H1319 0.930 . S
C1288 N1285 1.279 . S
C1288 C1287 1.358 . S
C1288 H1291 0.930 . S
C1289 C1286 1.348 . S
C1289 C1287 1.356 . S
H1290 C1284 0.930 . S
H1291 C1288 0.930 . S
O1292 Li1232 1.956 . S
O1292 Li1233 1.970 . S
O1292 Li1234 1.961 . S
O1292 C1236 1.325 . S
O1293 Li1232 1.970 . S
O1293 Li1233 1.956 . S
O1293 Li1235 1.961 . S
O1293 C1242 1.325 . S
O1294 Li1232 1.961 . S
O1294 Li1234 1.956 . S
O1294 Li1235 1.970 . S
O1294 C1264 1.325 . S
O1295 Li1233 1.961 . S
O1295 Li1234 1.970 . S
O1295 Li1235 1.956 . S
O1295 C1270 1.325 . S
H1296 C1238 0.929 . S
H1297 C1239 0.930 . S
H1298 C1240 0.930 . S
H1299 C1241 0.930 . S
H1300 C1243 0.930 . S
H1301 C1245 0.929 . S
H1302 C1246 0.930 . S
H1303 C1247 0.930 . S
H1304 C1250 0.930 . S
H1305 C1253 0.929 . S
H1306 C1258 0.929 . S
H1307 C1259 0.930 . S
H1308 C1266 0.929 . S
H1309 C1267 0.930 . S
H1310 C1268 0.930 . S
H1311 C1269 0.930 . S
H1312 C1271 0.929 . S
H1313 C1272 0.930 . S
H1314 C1273 0.930 . S
H1315 C1274 0.930 . S
H1316 C1278 0.929 . S
H1317 C1280 0.930 . S
H1318 C1286 0.929 . S
H1319 C1287 0.930 . S
Li1320 N1337 1.990 . S
Li1320 O1380 1.956 . S
Li1320 O1381 1.970 . S
Li1320 O1382 1.961 . S
Li1321 N1345 1.990 . S
Li1321 O1380 1.970 . S
Li1321 O1381 1.956 . S
Li1321 O1383 1.961 . S
Li1322 N1367 1.990 . S
Li1322 O1380 1.961 . S
Li1322 O1382 1.956 . S
Li1322 O1383 1.970 . S
Li1323 N1373 1.990 . S
Li1323 O1381 1.961 . S
Li1323 O1382 1.970 . S
Li1323 O1383 1.956 . S
C1324 C1326 1.348 . S
C1324 C1327 1.356 . S
C1324 O1380 1.325 . S
N1325 C1328 1.314 . S
N1325 C1329 1.279 . S
C1326 C1324 1.348 . S
C1326 C1328 1.353 . S
C1326 H1384 0.929 . S
C1327 C1324 1.356 . S
C1327 C1329 1.358 . S
C1327 H1385 0.930 . S
C1328 N1325 1.314 . S
C1328 C1326 1.353 . S
C1328 H1386 0.930 . S
C1329 N1325 1.279 . S
C1329 C1327 1.358 . S
C1329 H1387 0.930 . S
C1330 C1333 1.348 . S
C1330 C1334 1.356 . S
C1330 O1381 1.325 . S
C1331 N1332 1.279 . S
C1331 C1334 1.358 . S
C1331 H1388 0.930 . S
N1332 C1331 1.279 . S
N1332 C1335 1.314 . S
C1333 C1330 1.348 . S
C1333 C1335 1.353 . S
C1333 H1389 0.929 . S
C1334 C1330 1.356 . S
C1334 C1331 1.358 . S
C1334 H1390 0.930 . S
C1335 N1332 1.314 . S
C1335 C1333 1.353 . S
C1335 H1391 0.930 . S
C1336 N1337 1.314 . S
C1336 C1341 1.353 . S
C1336 H1342 0.930 . S
N1337 Li1320 1.990 . S
N1337 C1336 1.314 . S
N1337 C1339 1.279 . S
C1338 C1339 1.358 . S
C1338 C1340 1.356 . S
C1338 H1392 0.930 . S
C1339 N1337 1.279 . S
C1339 C1338 1.358 . S
C1339 H1343 0.930 . S
C1340 C1338 1.356 . S
C1340 C1341 1.348 . S
C1341 C1336 1.353 . S
C1341 C1340 1.348 . S
C1341 H1393 0.929 . S
H1342 C1336 0.930 . S
H1343 C1339 0.930 . S
C1344 N1345 1.314 . S
C1344 C1346 1.353 . S
C1344 H1350 0.930 . S
N1345 Li1321 1.990 . S
N1345 C1344 1.314 . S
N1345 C1348 1.279 . S
C1346 C1344 1.353 . S
C1346 C1349 1.348 . S
C1346 H1394 0.929 . S
C1347 C1348 1.358 . S
C1347 C1349 1.356 . S
C1347 H1395 0.930 . S
C1348 N1345 1.279 . S
C1348 C1347 1.358 . S
C1348 H1351 0.930 . S
C1349 C1346 1.348 . S
C1349 C1347 1.356 . S
H1350 C1344 0.930 . S
H1351 C1348 0.930 . S
C1352 C1354 1.348 . S
C1352 C1355 1.356 . S
C1352 O1382 1.325 . S
N1353 C1356 1.314 . S
N1353 C1357 1.279 . S
C1354 C1352 1.348 . S
C1354 C1356 1.353 . S
C1354 H1396 0.929 . S
C1355 C1352 1.356 . S
C1355 C1357 1.358 . S
C1355 H1397 0.930 . S
C1356 N1353 1.314 . S
C1356 C1354 1.353 . S
C1356 H1398 0.930 . S
C1357 N1353 1.279 . S
C1357 C1355 1.358 . S
C1357 H1399 0.930 . S
C1358 C1359 1.348 . S
C1358 C1360 1.356 . S
C1358 O1383 1.325 . S
C1359 C1358 1.348 . S
C1359 C1361 1.353 . S
C1359 H1400 0.929 . S
C1360 C1358 1.356 . S
C1360 C1362 1.358 . S
C1360 H1401 0.930 . S
C1361 C1359 1.353 . S
C1361 N1363 1.314 . S
C1361 H1402 0.930 . S
C1362 C1360 1.358 . S
C1362 N1363 1.279 . S
C1362 H1403 0.930 . S
N1363 C1361 1.314 . S
N1363 C1362 1.279 . S
C1364 C1366 1.353 . S
C1364 N1367 1.314 . S
C1364 H1370 0.930 . S
C1365 N1367 1.279 . S
C1365 C1368 1.358 . S
C1365 H1371 0.930 . S
C1366 C1364 1.353 . S
C1366 C1369 1.348 . S
C1366 H1404 0.929 . S
N1367 Li1322 1.990 . S
N1367 C1364 1.314 . S
N1367 C1365 1.279 . S
C1368 C1365 1.358 . S
C1368 C1369 1.356 . S
C1368 H1405 0.930 . S
C1369 C1366 1.348 . S
C1369 C1368 1.356 . S
H1370 C1364 0.930 . S
H1371 C1365 0.930 . S
C1372 N1373 1.314 . S
C1372 C1374 1.353 . S
C1372 H1378 0.930 . S
N1373 Li1323 1.990 . S
N1373 C1372 1.314 . S
N1373 C1376 1.279 . S
C1374 C1372 1.353 . S
C1374 C1377 1.348 . S
C1374 H1406 0.929 . S
C1375 C1376 1.358 . S
C1375 C1377 1.356 . S
C1375 H1407 0.930 . S
C1376 N1373 1.279 . S
C1376 C1375 1.358 . S
C1376 H1379 0.930 . S
C1377 C1374 1.348 . S
C1377 C1375 1.356 . S
H1378 C1372 0.930 . S
H1379 C1376 0.930 . S
O1380 Li1320 1.956 . S
O1380 Li1321 1.970 . S
O1380 Li1322 1.961 . S
O1380 C1324 1.325 . S
O1381 Li1320 1.970 . S
O1381 Li1321 1.956 . S
O1381 Li1323 1.961 . S
O1381 C1330 1.325 . S
O1382 Li1320 1.961 . S
O1382 Li1322 1.956 . S
O1382 Li1323 1.970 . S
O1382 C1352 1.325 . S
O1383 Li1321 1.961 . S
O1383 Li1322 1.970 . S
O1383 Li1323 1.956 . S
O1383 C1358 1.325 . S
H1384 C1326 0.929 . S
H1385 C1327 0.930 . S
H1386 C1328 0.930 . S
H1387 C1329 0.930 . S
H1388 C1331 0.930 . S
H1389 C1333 0.929 . S
H1390 C1334 0.930 . S
H1391 C1335 0.930 . S
H1392 C1338 0.930 . S
H1393 C1341 0.929 . S
H1394 C1346 0.929 . S
H1395 C1347 0.930 . S
H1396 C1354 0.929 . S
H1397 C1355 0.930 . S
H1398 C1356 0.930 . S
H1399 C1357 0.930 . S
H1400 C1359 0.929 . S
H1401 C1360 0.930 . S
H1402 C1361 0.930 . S
H1403 C1362 0.930 . S
H1404 C1366 0.929 . S
H1405 C1368 0.930 . S
H1406 C1374 0.929 . S
H1407 C1375 0.930 . S
Li1408 N1425 1.990 . S
Li1408 O1468 1.956 1_545 S
Li1408 O1469 1.970 . S
Li1408 O1470 1.961 . S
Li1409 N1433 1.990 . S
Li1409 O1468 1.970 . S
Li1409 O1469 1.956 1_565 S
Li1409 O1471 1.917 1_565 S
Li1410 N1455 1.990 . S
Li1410 O1468 1.961 1_545 S
Li1410 O1470 1.956 . S
Li1410 O1471 1.968 . S
Li1411 N1461 1.990 . S
Li1411 O1469 1.961 . S
Li1411 O1470 1.970 . S
Li1411 O1471 1.997 . S
C1412 C1414 1.348 . S
C1412 C1415 1.356 . S
C1412 O1468 1.325 . S
N1413 C1416 1.314 . S
N1413 C1417 1.279 . S
C1414 C1412 1.348 . S
C1414 C1416 1.353 . S
C1414 H1472 0.929 . S
C1415 C1412 1.356 . S
C1415 C1417 1.358 . S
C1415 H1473 0.930 . S
C1416 N1413 1.314 . S
C1416 C1414 1.353 . S
C1416 H1474 0.930 . S
C1417 N1413 1.279 . S
C1417 C1415 1.358 . S
C1417 H1475 0.930 . S
C1418 C1421 1.348 . S
C1418 C1422 1.356 . S
C1418 O1469 1.325 . S
C1419 N1420 1.279 . S
C1419 C1422 1.358 . S
C1419 H1476 0.930 . S
N1420 C1419 1.279 . S
N1420 C1423 1.328 . S
C1421 C1418 1.348 . S
C1421 C1423 1.354 . S
C1421 H1477 0.909 1_545 S
C1422 C1418 1.356 . S
C1422 C1419 1.358 . S
C1422 H1478 0.930 . S
C1423 N1420 1.328 . S
C1423 C1421 1.354 . S
C1423 H1479 0.899 1_545 S
C1424 N1425 1.314 . S
C1424 C1429 1.353 . S
C1424 H1430 0.930 . S
N1425 Li1408 1.990 . S
N1425 C1424 1.314 . S
N1425 C1427 1.279 1_545 S
C1426 C1427 1.364 1_545 S
C1426 C1428 1.388 . S
C1426 H1480 0.893 1_545 S
C1427 N1425 1.279 1_565 S
C1427 C1426 1.364 1_565 S
C1427 H1431 0.930 . S
C1428 C1426 1.388 . S
C1428 C1429 1.348 . S
C1429 C1424 1.353 . S
C1429 C1428 1.348 . S
C1429 H1481 0.929 . S
H1430 C1424 0.930 . S
H1431 C1427 0.930 . S
C1432 N1433 1.314 . S
C1432 C1434 1.353 . S
C1432 H1438 0.930 . S
N1433 Li1409 1.990 . S
N1433 C1432 1.314 . S
N1433 C1436 1.279 . S
C1434 C1432 1.353 . S
C1434 C1437 1.348 . S
C1434 H1482 0.929 . S
C1435 C1436 1.358 . S
C1435 C1437 1.356 . S
C1435 H1483 0.930 . S
C1436 N1433 1.279 . S
C1436 C1435 1.358 . S
C1436 H1439 0.930 . S
C1437 C1434 1.348 . S
C1437 C1435 1.356 . S
H1438 C1432 0.930 . S
H1439 C1436 0.930 . S
C1440 C1442 1.348 . S
C1440 C1443 1.356 . S
C1440 O1470 1.325 . S
N1441 C1444 1.314 . S
N1441 C1445 1.279 . S
C1442 C1440 1.348 . S
C1442 C1444 1.353 . S
C1442 H1484 0.929 . S
C1443 C1440 1.356 . S
C1443 C1445 1.358 . S
C1443 H1485 0.930 . S
C1444 N1441 1.314 . S
C1444 C1442 1.353 . S
C1444 H1486 0.930 . S
C1445 N1441 1.279 . S
C1445 C1443 1.358 . S
C1445 H1487 0.909 1_655 S
C1446 C1447 1.348 1_565 S
C1446 C1448 1.356 . S
C1446 O1471 1.335 1_565 S
C1447 C1446 1.348 1_545 S
C1447 C1449 1.353 . S
C1447 H1488 0.929 . S
C1448 C1446 1.356 . S
C1448 C1450 1.358 . S
C1448 H1489 0.930 . S
C1449 C1447 1.353 . S
C1449 N1451 1.314 1_545 S
C1449 H1490 0.930 . S
C1450 C1448 1.358 . S
C1450 N1451 1.279 . S
C1450 H1491 0.930 . S
N1451 C1449 1.314 1_565 S
N1451 C1450 1.279 . S
C1452 C1454 1.353 . S
C1452 N1455 1.314 1_565 S
C1452 H1458 0.930 . S
C1453 N1455 1.279 . S
C1453 C1456 1.358 . S
C1453 H1459 0.930 . S
C1454 C1452 1.353 . S
C1454 C1457 1.348 1_565 S
C1454 H1492 0.929 . S
N1455 Li1410 1.990 . S
N1455 C1452 1.314 1_545 S
N1455 C1453 1.279 . S
C1456 C1453 1.358 . S
C1456 C1457 1.356 . S
C1456 H1493 0.930 . S
C1457 C1454 1.348 1_545 S
C1457 C1456 1.356 . S
H1458 C1452 0.930 . S
H1459 C1453 0.930 . S
C1460 N1461 1.314 . S
C1460 C1462 1.353 . S
C1460 H1466 0.930 . S
N1461 Li1411 1.990 . S
N1461 C1460 1.314 . S
N1461 C1464 1.279 . S
C1462 C1460 1.353 . S
C1462 C1465 1.348 . S
C1462 H1494 0.929 . S
C1463 C1464 1.358 . S
C1463 C1465 1.356 . S
C1463 H1495 0.930 . S
C1464 N1461 1.279 . S
C1464 C1463 1.358 . S
C1464 H1467 0.930 . S
C1465 C1462 1.348 . S
C1465 C1463 1.356 . S
H1466 C1460 0.930 . S
H1467 C1464 0.930 . S
O1468 Li1408 1.956 1_565 S
O1468 Li1409 1.970 . S
O1468 Li1410 1.961 1_565 S
O1468 C1412 1.325 . S
O1469 Li1408 1.970 . S
O1469 Li1409 1.956 1_545 S
O1469 Li1411 1.961 . S
O1469 C1418 1.325 . S
O1470 Li1408 1.961 . S
O1470 Li1410 1.956 . S
O1470 Li1411 1.970 . S
O1470 C1440 1.325 . S
O1471 Li1409 1.917 1_545 S
O1471 Li1410 1.968 . S
O1471 Li1411 1.997 . S
O1471 C1446 1.335 1_545 S
H1472 C1414 0.929 . S
H1473 C1415 0.930 . S
H1474 C1416 0.930 . S
H1475 C1417 0.930 . S
H1476 C1419 0.930 . S
H1477 C1421 0.909 1_565 S
H1478 C1422 0.930 . S
H1479 C1423 0.899 1_565 S
H1480 C1426 0.893 1_565 S
H1481 C1429 0.929 . S
H1482 C1434 0.929 . S
H1483 C1435 0.930 . S
H1484 C1442 0.929 . S
H1485 C1443 0.930 . S
H1486 C1444 0.930 . S
H1487 C1445 0.909 1_455 S
H1488 C1447 0.929 . S
H1489 C1448 0.930 . S
H1490 C1449 0.930 . S
H1491 C1450 0.930 . S
H1492 C1454 0.929 . S
H1493 C1456 0.930 . S
H1494 C1462 0.929 . S
H1495 C1463 0.930 . S
Li1496 N1513 1.990 . S
Li1496 O1556 1.956 . S
Li1496 O1557 1.970 . S
Li1496 O1558 1.961 . S
Li1497 N1521 1.990 . S
Li1497 O1556 1.970 . S
Li1497 O1557 1.956 . S
Li1497 O1559 1.961 . S
Li1498 N1543 1.990 . S
Li1498 O1556 1.961 . S
Li1498 O1558 1.956 . S
Li1498 O1559 1.970 . S
Li1499 N1549 1.990 . S
Li1499 O1557 1.961 . S
Li1499 O1558 1.970 . S
Li1499 O1559 1.956 . S
C1500 C1502 1.348 . S
C1500 C1503 1.356 . S
C1500 O1556 1.325 . S
N1501 C1504 1.314 . S
N1501 C1505 1.279 . S
C1502 C1500 1.348 . S
C1502 C1504 1.353 . S
C1502 H1560 0.929 . S
C1503 C1500 1.356 . S
C1503 C1505 1.358 . S
C1503 H1561 0.930 . S
C1504 N1501 1.314 . S
C1504 C1502 1.353 . S
C1504 H1562 0.930 . S
C1505 N1501 1.279 . S
C1505 C1503 1.358 . S
C1505 H1563 0.930 . S
C1506 C1509 1.348 . S
C1506 C1510 1.356 . S
C1506 O1557 1.325 . S
C1507 N1508 1.279 . S
C1507 C1510 1.358 . S
C1507 H1564 0.930 . S
N1508 C1507 1.279 . S
N1508 C1511 1.314 . S
C1509 C1506 1.348 . S
C1509 C1511 1.353 . S
C1509 H1565 0.929 . S
C1510 C1506 1.356 . S
C1510 C1507 1.358 . S
C1510 H1566 0.930 . S
C1511 N1508 1.314 . S
C1511 C1509 1.353 . S
C1511 H1567 0.930 . S
C1512 N1513 1.314 . S
C1512 C1517 1.353 . S
C1512 H1518 0.930 . S
N1513 Li1496 1.990 . S
N1513 C1512 1.314 . S
N1513 C1515 1.279 . S
C1514 C1515 1.358 . S
C1514 C1516 1.356 . S
C1514 H1568 0.930 . S
C1515 N1513 1.279 . S
C1515 C1514 1.358 . S
C1515 H1519 0.930 . S
C1516 C1514 1.356 . S
C1516 C1517 1.348 . S
C1517 C1512 1.353 . S
C1517 C1516 1.348 . S
C1517 H1569 0.929 . S
H1518 C1512 0.930 . S
H1519 C1515 0.930 . S
C1520 N1521 1.314 . S
C1520 C1522 1.353 . S
C1520 H1526 0.930 . S
N1521 Li1497 1.990 . S
N1521 C1520 1.314 . S
N1521 C1524 1.279 . S
C1522 C1520 1.353 . S
C1522 C1525 1.348 . S
C1522 H1570 0.929 . S
C1523 C1524 1.358 . S
C1523 C1525 1.356 . S
C1523 H1571 0.930 . S
C1524 N1521 1.279 . S
C1524 C1523 1.358 . S
C1524 H1527 0.930 . S
C1525 C1522 1.348 . S
C1525 C1523 1.356 . S
H1526 C1520 0.930 . S
H1527 C1524 0.930 . S
C1528 C1530 1.348 . S
C1528 C1531 1.356 . S
C1528 O1558 1.325 . S
N1529 C1532 1.314 . S
N1529 C1533 1.279 . S
C1530 C1528 1.348 . S
C1530 C1532 1.353 . S
C1530 H1572 0.929 . S
C1531 C1528 1.356 . S
C1531 C1533 1.358 . S
C1531 H1573 0.930 . S
C1532 N1529 1.314 . S
C1532 C1530 1.353 . S
C1532 H1574 0.930 . S
C1533 N1529 1.279 . S
C1533 C1531 1.358 . S
C1533 H1575 0.930 . S
C1534 C1535 1.348 . S
C1534 C1536 1.356 . S
C1534 O1559 1.325 . S
C1535 C1534 1.348 . S
C1535 C1537 1.353 . S
C1535 H1576 0.929 . S
C1536 C1534 1.356 . S
C1536 C1538 1.358 . S
C1536 H1577 0.930 . S
C1537 C1535 1.353 . S
C1537 N1539 1.314 . S
C1537 H1578 0.930 . S
C1538 C1536 1.358 . S
C1538 N1539 1.279 . S
C1538 H1579 0.930 . S
N1539 C1537 1.314 . S
N1539 C1538 1.279 . S
C1540 C1542 1.353 . S
C1540 N1543 1.314 . S
C1540 H1546 0.930 . S
C1541 N1543 1.279 . S
C1541 C1544 1.358 . S
C1541 H1547 0.930 . S
C1542 C1540 1.353 . S
C1542 C1545 1.348 . S
C1542 H1580 0.929 . S
N1543 Li1498 1.990 . S
N1543 C1540 1.314 . S
N1543 C1541 1.279 . S
C1544 C1541 1.358 . S
C1544 C1545 1.356 . S
C1544 H1581 0.930 . S
C1545 C1542 1.348 . S
C1545 C1544 1.356 . S
H1546 C1540 0.930 . S
H1547 C1541 0.930 . S
C1548 N1549 1.314 . S
C1548 C1550 1.353 . S
C1548 H1554 0.930 . S
N1549 Li1499 1.990 . S
N1549 C1548 1.314 . S
N1549 C1552 1.279 . S
C1550 C1548 1.353 . S
C1550 C1553 1.348 . S
C1550 H1582 0.929 . S
C1551 C1552 1.358 . S
C1551 C1553 1.356 . S
C1551 H1583 0.930 . S
C1552 N1549 1.279 . S
C1552 C1551 1.358 . S
C1552 H1555 0.930 . S
C1553 C1550 1.348 . S
C1553 C1551 1.356 . S
H1554 C1548 0.930 . S
H1555 C1552 0.930 . S
O1556 Li1496 1.956 . S
O1556 Li1497 1.970 . S
O1556 Li1498 1.961 . S
O1556 C1500 1.325 . S
O1557 Li1496 1.970 . S
O1557 Li1497 1.956 . S
O1557 Li1499 1.961 . S
O1557 C1506 1.325 . S
O1558 Li1496 1.961 . S
O1558 Li1498 1.956 . S
O1558 Li1499 1.970 . S
O1558 C1528 1.325 . S
O1559 Li1497 1.961 . S
O1559 Li1498 1.970 . S
O1559 Li1499 1.956 . S
O1559 C1534 1.325 . S
H1560 C1502 0.929 . S
H1561 C1503 0.930 . S
H1562 C1504 0.930 . S
H1563 C1505 0.930 . S
H1564 C1507 0.930 . S
H1565 C1509 0.929 . S
H1566 C1510 0.930 . S
H1567 C1511 0.930 . S
H1568 C1514 0.930 . S
H1569 C1517 0.929 . S
H1570 C1522 0.929 . S
H1571 C1523 0.930 . S
H1572 C1530 0.929 . S
H1573 C1531 0.930 . S
H1574 C1532 0.930 . S
H1575 C1533 0.930 . S
H1576 C1535 0.929 . S
H1577 C1536 0.930 . S
H1578 C1537 0.930 . S
H1579 C1538 0.930 . S
H1580 C1542 0.929 . S
H1581 C1544 0.930 . S
H1582 C1550 0.929 . S
H1583 C1551 0.930 . S
Li1584 N1601 1.990 . S
Li1584 O1644 1.956 . S
Li1584 O1645 1.970 . S
Li1584 O1646 1.961 . S
Li1585 N1609 1.990 . S
Li1585 O1644 1.970 . S
Li1585 O1645 1.956 . S
Li1585 O1647 1.961 . S
Li1586 N1631 1.990 . S
Li1586 O1644 1.961 . S
Li1586 O1646 1.956 . S
Li1586 O1647 1.970 . S
Li1587 N1637 1.990 . S
Li1587 O1645 1.961 . S
Li1587 O1646 1.970 . S
Li1587 O1647 1.956 . S
C1588 C1590 1.348 . S
C1588 C1591 1.356 . S
C1588 O1644 1.325 . S
N1589 C1592 1.314 . S
N1589 C1593 1.279 . S
C1590 C1588 1.348 . S
C1590 C1592 1.353 . S
C1590 H1648 0.929 . S
C1591 C1588 1.356 . S
C1591 C1593 1.358 . S
C1591 H1649 0.930 . S
C1592 N1589 1.314 . S
C1592 C1590 1.353 . S
C1592 H1650 0.930 . S
C1593 N1589 1.279 . S
C1593 C1591 1.358 . S
C1593 H1651 0.930 . S
C1594 C1597 1.348 . S
C1594 C1598 1.356 . S
C1594 O1645 1.325 . S
C1595 N1596 1.279 . S
C1595 C1598 1.358 . S
C1595 H1652 0.930 . S
N1596 C1595 1.279 . S
N1596 C1599 1.314 . S
C1597 C1594 1.348 . S
C1597 C1599 1.353 . S
C1597 H1653 0.929 . S
C1598 C1594 1.356 . S
C1598 C1595 1.358 . S
C1598 H1654 0.930 . S
C1599 N1596 1.314 . S
C1599 C1597 1.353 . S
C1599 H1655 0.930 . S
C1600 N1601 1.314 . S
C1600 C1605 1.353 . S
C1600 H1606 0.930 . S
N1601 Li1584 1.990 . S
N1601 C1600 1.314 . S
N1601 C1603 1.279 . S
C1602 C1603 1.358 . S
C1602 C1604 1.356 . S
C1602 H1656 0.930 . S
C1603 N1601 1.279 . S
C1603 C1602 1.358 . S
C1603 H1607 0.930 . S
C1604 C1602 1.356 . S
C1604 C1605 1.348 . S
C1605 C1600 1.353 . S
C1605 C1604 1.348 . S
C1605 H1657 0.929 . S
H1606 C1600 0.930 . S
H1607 C1603 0.930 . S
C1608 N1609 1.314 . S
C1608 C1610 1.353 . S
C1608 H1614 0.930 . S
N1609 Li1585 1.990 . S
N1609 C1608 1.314 . S
N1609 C1612 1.279 . S
C1610 C1608 1.353 . S
C1610 C1613 1.348 . S
C1610 H1658 0.929 . S
C1611 C1612 1.358 . S
C1611 C1613 1.356 . S
C1611 H1659 0.930 . S
C1612 N1609 1.279 . S
C1612 C1611 1.358 . S
C1612 H1615 0.930 . S
C1613 C1610 1.348 . S
C1613 C1611 1.356 . S
H1614 C1608 0.930 . S
H1615 C1612 0.930 . S
C1616 C1618 1.348 . S
C1616 C1619 1.356 . S
C1616 O1646 1.325 . S
N1617 C1620 1.314 . S
N1617 C1621 1.279 . S
C1618 C1616 1.348 . S
C1618 C1620 1.353 . S
C1618 H1660 0.929 . S
C1619 C1616 1.356 . S
C1619 C1621 1.358 . S
C1619 H1661 0.930 . S
C1620 N1617 1.314 . S
C1620 C1618 1.353 . S
C1620 H1662 0.930 . S
C1621 N1617 1.279 . S
C1621 C1619 1.358 . S
C1621 H1663 0.930 . S
C1622 C1623 1.348 . S
C1622 C1624 1.356 . S
C1622 O1647 1.325 . S
C1623 C1622 1.348 . S
C1623 C1625 1.353 . S
C1623 H1664 0.929 . S
C1624 C1622 1.356 . S
C1624 C1626 1.358 . S
C1624 H1665 0.930 . S
C1625 C1623 1.353 . S
C1625 N1627 1.314 . S
C1625 H1666 0.930 . S
C1626 C1624 1.358 . S
C1626 N1627 1.279 . S
C1626 H1667 0.930 . S
N1627 C1625 1.314 . S
N1627 C1626 1.279 . S
C1628 C1630 1.353 . S
C1628 N1631 1.314 . S
C1628 H1634 0.930 . S
C1629 N1631 1.279 . S
C1629 C1632 1.358 . S
C1629 H1635 0.930 . S
C1630 C1628 1.353 . S
C1630 C1633 1.348 . S
C1630 H1668 0.929 . S
N1631 Li1586 1.990 . S
N1631 C1628 1.314 . S
N1631 C1629 1.279 . S
C1632 C1629 1.358 . S
C1632 C1633 1.356 . S
C1632 H1669 0.930 . S
C1633 C1630 1.348 . S
C1633 C1632 1.356 . S
H1634 C1628 0.930 . S
H1635 C1629 0.930 . S
C1636 N1637 1.314 . S
C1636 C1638 1.353 . S
C1636 H1642 0.930 . S
N1637 Li1587 1.990 . S
N1637 C1636 1.314 . S
N1637 C1640 1.279 . S
C1638 C1636 1.353 . S
C1638 C1641 1.348 . S
C1638 H1670 0.929 . S
C1639 C1640 1.358 . S
C1639 C1641 1.356 . S
C1639 H1671 0.930 . S
C1640 N1637 1.279 . S
C1640 C1639 1.358 . S
C1640 H1643 0.930 . S
C1641 C1638 1.348 . S
C1641 C1639 1.356 . S
H1642 C1636 0.930 . S
H1643 C1640 0.930 . S
O1644 Li1584 1.956 . S
O1644 Li1585 1.970 . S
O1644 Li1586 1.961 . S
O1644 C1588 1.325 . S
O1645 Li1584 1.970 . S
O1645 Li1585 1.956 . S
O1645 Li1587 1.961 . S
O1645 C1594 1.325 . S
O1646 Li1584 1.961 . S
O1646 Li1586 1.956 . S
O1646 Li1587 1.970 . S
O1646 C1616 1.325 . S
O1647 Li1585 1.961 . S
O1647 Li1586 1.970 . S
O1647 Li1587 1.956 . S
O1647 C1622 1.325 . S
H1648 C1590 0.929 . S
H1649 C1591 0.930 . S
H1650 C1592 0.930 . S
H1651 C1593 0.930 . S
H1652 C1595 0.930 . S
H1653 C1597 0.929 . S
H1654 C1598 0.930 . S
H1655 C1599 0.930 . S
H1656 C1602 0.930 . S
H1657 C1605 0.929 . S
H1658 C1610 0.929 . S
H1659 C1611 0.930 . S
H1660 C1618 0.929 . S
H1661 C1619 0.930 . S
H1662 C1620 0.930 . S
H1663 C1621 0.930 . S
H1664 C1623 0.929 . S
H1665 C1624 0.930 . S
H1666 C1625 0.930 . S
H1667 C1626 0.930 . S
H1668 C1630 0.929 . S
H1669 C1632 0.930 . S
H1670 C1638 0.929 . S
H1671 C1639 0.930 . S
Li1672 N1689 1.990 . S
Li1672 O1732 1.956 . S
Li1672 O1733 1.970 . S
Li1672 O1734 1.961 1_545 S
Li1673 N1697 1.990 . S
Li1673 O1732 1.970 . S
Li1673 O1733 1.956 . S
Li1673 O1735 1.961 . S
Li1674 N1719 1.990 . S
Li1674 O1732 1.961 . S
Li1674 O1734 1.956 1_545 S
Li1674 O1735 1.970 . S
Li1675 N1725 1.990 . S
Li1675 O1733 1.961 1_565 S
Li1675 O1734 1.970 . S
Li1675 O1735 1.956 1_565 S
C1676 C1678 1.348 . S
C1676 C1679 1.356 . S
C1676 O1732 1.325 . S
N1677 C1680 1.314 . S
N1677 C1681 1.279 . S
C1678 C1676 1.348 . S
C1678 C1680 1.353 . S
C1678 H1736 0.929 . S
C1679 C1676 1.356 . S
C1679 C1681 1.358 . S
C1679 H1737 0.930 . S
C1680 N1677 1.314 . S
C1680 C1678 1.353 . S
C1680 H1738 0.930 . S
C1681 N1677 1.279 . S
C1681 C1679 1.358 . S
C1681 H1739 0.930 . S
C1682 C1685 1.348 . S
C1682 C1686 1.356 . S
C1682 O1733 1.325 . S
C1683 N1684 1.279 . S
C1683 C1686 1.358 . S
C1683 H1740 0.930 . S
N1684 C1683 1.279 . S
N1684 C1687 1.314 . S
C1685 C1682 1.348 . S
C1685 C1687 1.353 . S
C1685 H1741 0.929 . S
C1686 C1682 1.356 . S
C1686 C1683 1.358 . S
C1686 H1742 0.930 . S
C1687 N1684 1.314 . S
C1687 C1685 1.353 . S
C1687 H1743 0.930 . S
C1688 N1689 1.314 1_565 S
C1688 C1693 1.353 . S
C1688 H1694 0.930 . S
N1689 Li1672 1.990 . S
N1689 C1688 1.314 1_545 S
N1689 C1691 1.279 . S
C1690 C1691 1.358 . S
C1690 C1692 1.356 . S
C1690 H1744 0.930 . S
C1691 N1689 1.279 . S
C1691 C1690 1.358 . S
C1691 H1695 0.930 . S
C1692 C1690 1.356 . S
C1692 C1693 1.348 1_545 S
C1693 C1688 1.353 . S
C1693 C1692 1.348 1_565 S
C1693 H1745 0.929 . S
H1694 C1688 0.930 . S
H1695 C1691 0.930 . S
C1696 N1697 1.314 . S
C1696 C1698 1.353 . S
C1696 H1702 0.930 . S
N1697 Li1673 1.990 . S
N1697 C1696 1.314 . S
N1697 C1700 1.279 . S
C1698 C1696 1.353 . S
C1698 C1701 1.348 . S
C1698 H1746 0.929 . S
C1699 C1700 1.358 . S
C1699 C1701 1.356 . S
C1699 H1747 0.930 . S
C1700 N1697 1.279 . S
C1700 C1699 1.358 . S
C1700 H1703 0.930 . S
C1701 C1698 1.348 . S
C1701 C1699 1.356 . S
H1702 C1696 0.930 . S
H1703 C1700 0.930 . S
C1704 C1706 1.348 . S
C1704 C1707 1.356 . S
C1704 O1734 1.325 . S
N1705 C1708 1.314 . S
N1705 C1709 1.279 . S
C1706 C1704 1.348 . S
C1706 C1708 1.353 . S
C1706 H1748 0.929 . S
C1707 C1704 1.356 . S
C1707 C1709 1.358 . S
C1707 H1749 0.930 . S
C1708 N1705 1.314 . S
C1708 C1706 1.353 . S
C1708 H1750 0.930 . S
C1709 N1705 1.279 . S
C1709 C1707 1.358 . S
C1709 H1751 0.930 . S
C1710 C1711 1.348 . S
C1710 C1712 1.356 . S
C1710 O1735 1.325 . S
C1711 C1710 1.348 . S
C1711 C1713 1.353 . S
C1711 H1752 0.925 1_545 S
C1712 C1710 1.356 . S
C1712 C1714 1.358 . S
C1712 H1753 0.930 . S
C1713 C1711 1.353 . S
C1713 N1715 1.314 . S
C1713 H1754 0.937 . S
C1714 C1712 1.358 . S
C1714 N1715 1.279 . S
C1714 H1755 0.930 . S
N1715 C1713 1.314 . S
N1715 C1714 1.279 . S
C1716 C1718 1.353 . S
C1716 N1719 1.314 . S
C1716 H1722 0.930 . S
C1717 N1719 1.279 1_565 S
C1717 C1720 1.358 . S
C1717 H1723 0.930 . S
C1718 C1716 1.353 . S
C1718 C1721 1.336 1_545 S
C1718 H1756 0.929 . S
N1719 Li1674 1.990 . S
N1719 C1716 1.314 . S
N1719 C1717 1.279 1_545 S
C1720 C1717 1.358 . S
C1720 C1721 1.370 . S
C1720 H1757 0.930 . S
C1721 C1718 1.336 1_565 S
C1721 C1720 1.370 . S
H1722 C1716 0.930 . S
H1723 C1717 0.930 . S
C1724 N1725 1.314 . S
C1724 C1726 1.353 . S
C1724 H1730 0.930 . S
N1725 Li1675 1.990 . S
N1725 C1724 1.314 . S
N1725 C1728 1.279 . S
C1726 C1724 1.353 . S
C1726 C1729 1.348 . S
C1726 H1758 0.929 . S
C1727 C1728 1.358 . S
C1727 C1729 1.356 . S
C1727 H1759 0.930 . S
C1728 N1725 1.279 . S
C1728 C1727 1.358 . S
C1728 H1731 0.930 . S
C1729 C1726 1.348 . S
C1729 C1727 1.356 . S
H1730 C1724 0.930 . S
H1731 C1728 0.930 . S
O1732 Li1672 1.956 . S
O1732 Li1673 1.970 . S
O1732 Li1674 1.961 . S
O1732 C1676 1.325 . S
O1733 Li1672 1.970 . S
O1733 Li1673 1.956 . S
O1733 Li1675 1.961 1_545 S
O1733 C1682 1.325 . S
O1734 Li1672 1.961 1_565 S
O1734 Li1674 1.956 1_565 S
O1734 Li1675 1.970 . S
O1734 C1704 1.325 . S
O1735 Li1673 1.961 . S
O1735 Li1674 1.970 . S
O1735 Li1675 1.956 1_545 S
O1735 C1710 1.325 . S
H1736 C1678 0.929 . S
H1737 C1679 0.930 . S
H1738 C1680 0.930 . S
H1739 C1681 0.930 . S
H1740 C1683 0.930 . S
H1741 C1685 0.929 . S
H1742 C1686 0.930 . S
H1743 C1687 0.930 . S
H1744 C1690 0.930 . S
H1745 C1693 0.929 . S
H1746 C1698 0.929 . S
H1747 C1699 0.930 . S
H1748 C1706 0.929 . S
H1749 C1707 0.930 . S
H1750 C1708 0.930 . S
H1751 C1709 0.930 . S
H1752 C1711 0.925 1_565 S
H1753 C1712 0.930 . S
H1754 C1713 0.937 . S
H1755 C1714 0.930 . S
H1756 C1718 0.929 . S
H1757 C1720 0.930 . S
H1758 C1726 0.929 . S
H1759 C1727 0.930 . S
Li1760 N1777 1.990 . S
Li1760 O1820 1.956 . S
Li1760 O1821 1.970 . S
Li1760 O1822 1.961 . S
Li1761 N1785 1.990 . S
Li1761 O1820 1.970 . S
Li1761 O1821 1.956 . S
Li1761 O1823 1.961 . S
Li1762 N1807 1.990 1_554 S
Li1762 O1820 1.961 . S
Li1762 O1822 1.956 . S
Li1762 O1823 1.970 . S
Li1763 N1813 1.990 . S
Li1763 O1821 1.961 . S
Li1763 O1822 1.970 . S
Li1763 O1823 1.956 . S
C1764 C1766 1.348 . S
C1764 C1767 1.356 . S
C1764 O1820 1.325 . S
N1765 C1768 1.314 . S
N1765 C1769 1.279 . S
C1766 C1764 1.348 . S
C1766 C1768 1.353 . S
C1766 H1824 0.929 . S
C1767 C1764 1.356 . S
C1767 C1769 1.358 . S
C1767 H1825 0.930 . S
C1768 N1765 1.314 . S
C1768 C1766 1.353 . S
C1768 H1826 0.930 . S
C1769 N1765 1.279 . S
C1769 C1767 1.358 . S
C1769 H1827 0.930 . S
C1770 C1773 1.348 . S
C1770 C1774 1.356 . S
C1770 O1821 1.325 . S
C1771 N1772 1.279 . S
C1771 C1774 1.358 . S
C1771 H1828 0.930 . S
N1772 C1771 1.279 . S
N1772 C1775 1.314 . S
C1773 C1770 1.348 . S
C1773 C1775 1.353 . S
C1773 H1829 0.929 . S
C1774 C1770 1.356 . S
C1774 C1771 1.358 . S
C1774 H1830 0.930 . S
C1775 N1772 1.314 . S
C1775 C1773 1.353 . S
C1775 H1831 0.930 . S
C1776 N1777 1.314 . S
C1776 C1781 1.353 . S
C1776 H1782 0.930 . S
N1777 Li1760 1.990 . S
N1777 C1776 1.314 . S
N1777 C1779 1.279 . S
C1778 C1779 1.358 . S
C1778 C1780 1.356 . S
C1778 H1832 0.930 . S
C1779 N1777 1.279 . S
C1779 C1778 1.358 . S
C1779 H1783 0.930 . S
C1780 C1778 1.356 . S
C1780 C1781 1.348 . S
C1781 C1776 1.353 . S
C1781 C1780 1.348 . S
C1781 H1833 0.929 . S
H1782 C1776 0.930 . S
H1783 C1779 0.930 . S
C1784 N1785 1.314 . S
C1784 C1786 1.353 . S
C1784 H1790 0.956 . S
N1785 Li1761 1.990 . S
N1785 C1784 1.314 . S
N1785 C1788 1.279 . S
C1786 C1784 1.353 . S
C1786 C1789 1.348 . S
C1786 H1834 0.929 1_554 S
C1787 C1788 1.358 . S
C1787 C1789 1.356 . S
C1787 H1835 0.930 . S
C1788 N1785 1.279 . S
C1788 C1787 1.358 . S
C1788 H1791 0.930 . S
C1789 C1786 1.348 . S
C1789 C1787 1.356 . S
H1790 C1784 0.956 . S
H1791 C1788 0.930 . S
C1792 C1794 1.348 . S
C1792 C1795 1.356 . S
C1792 O1822 1.325 . S
N1793 C1796 1.314 . S
N1793 C1797 1.279 . S
C1794 C1792 1.348 . S
C1794 C1796 1.353 . S
C1794 H1836 0.929 . S
C1795 C1792 1.356 . S
C1795 C1797 1.358 . S
C1795 H1837 0.930 . S
C1796 N1793 1.314 . S
C1796 C1794 1.353 . S
C1796 H1838 0.930 . S
C1797 N1793 1.279 . S
C1797 C1795 1.358 . S
C1797 H1839 0.930 . S
C1798 C1799 1.348 . S
C1798 C1800 1.356 . S
C1798 O1823 1.325 1_556 S
C1799 C1798 1.348 . S
C1799 C1801 1.353 . S
C1799 H1840 0.929 . S
C1800 C1798 1.356 . S
C1800 C1802 1.358 . S
C1800 H1841 0.930 . S
C1801 C1799 1.353 . S
C1801 N1803 1.314 . S
C1801 H1842 0.930 . S
C1802 C1800 1.358 . S
C1802 N1803 1.279 . S
C1802 H1843 0.930 . S
N1803 C1801 1.314 . S
N1803 C1802 1.279 . S
C1804 C1806 1.353 . S
C1804 N1807 1.314 . S
C1804 H1810 0.930 . S
C1805 N1807 1.279 . S
C1805 C1808 1.358 . S
C1805 H1811 0.930 . S
C1806 C1804 1.353 . S
C1806 C1809 1.348 . S
C1806 H1844 0.929 . S
N1807 Li1762 1.990 1_556 S
N1807 C1804 1.314 . S
N1807 C1805 1.279 . S
C1808 C1805 1.358 . S
C1808 C1809 1.356 . S
C1808 H1845 0.930 . S
C1809 C1806 1.348 . S
C1809 C1808 1.356 . S
H1810 C1804 0.930 . S
H1811 C1805 0.930 . S
C1812 N1813 1.314 . S
C1812 C1814 1.353 . S
C1812 H1818 0.930 . S
N1813 Li1763 1.990 . S
N1813 C1812 1.314 . S
N1813 C1816 1.279 . S
C1814 C1812 1.353 . S
C1814 C1817 1.348 . S
C1814 H1846 0.929 . S
C1815 C1816 1.358 1_556 S
C1815 C1817 1.356 1_556 S
C1815 H1847 0.930 . S
C1816 N1813 1.279 . S
C1816 C1815 1.358 1_554 S
C1816 H1819 0.930 1_554 S
C1817 C1814 1.348 . S
C1817 C1815 1.356 1_554 S
H1818 C1812 0.930 . S
H1819 C1816 0.930 1_556 S
O1820 Li1760 1.956 . S
O1820 Li1761 1.970 . S
O1820 Li1762 1.961 . S
O1820 C1764 1.325 . S
O1821 Li1760 1.970 . S
O1821 Li1761 1.956 . S
O1821 Li1763 1.961 . S
O1821 C1770 1.325 . S
O1822 Li1760 1.961 . S
O1822 Li1762 1.956 . S
O1822 Li1763 1.970 . S
O1822 C1792 1.325 . S
O1823 Li1761 1.961 . S
O1823 Li1762 1.970 . S
O1823 Li1763 1.956 . S
O1823 C1798 1.325 1_554 S
H1824 C1766 0.929 . S
H1825 C1767 0.930 . S
H1826 C1768 0.930 . S
H1827 C1769 0.930 . S
H1828 C1771 0.930 . S
H1829 C1773 0.929 . S
H1830 C1774 0.930 . S
H1831 C1775 0.930 . S
H1832 C1778 0.930 . S
H1833 C1781 0.929 . S
H1834 C1786 0.929 1_556 S
H1835 C1787 0.930 . S
H1836 C1794 0.929 . S
H1837 C1795 0.930 . S
H1838 C1796 0.930 . S
H1839 C1797 0.930 . S
H1840 C1799 0.929 . S
H1841 C1800 0.930 . S
H1842 C1801 0.930 . S
H1843 C1802 0.930 . S
H1844 C1806 0.929 . S
H1845 C1808 0.930 . S
H1846 C1814 0.929 . S
H1847 C1815 0.930 . S
Li1848 N1865 1.990 . S
Li1848 O1908 1.956 . S
Li1848 O1909 1.970 . S
Li1848 O1910 1.961 . S
Li1849 N1873 1.990 . S
Li1849 O1908 1.970 . S
Li1849 O1909 1.956 . S
Li1849 O1911 1.961 . S
Li1850 N1895 1.990 . S
Li1850 O1908 1.961 . S
Li1850 O1910 1.956 . S
Li1850 O1911 1.970 . S
Li1851 N1901 1.990 . S
Li1851 O1909 1.961 . S
Li1851 O1910 1.970 . S
Li1851 O1911 1.956 . S
C1852 C1854 1.348 . S
C1852 C1855 1.356 . S
C1852 O1908 1.325 . S
N1853 C1856 1.314 . S
N1853 C1857 1.279 . S
C1854 C1852 1.348 . S
C1854 C1856 1.353 . S
C1854 H1912 0.929 . S
C1855 C1852 1.356 . S
C1855 C1857 1.358 . S
C1855 H1913 0.930 . S
C1856 N1853 1.314 . S
C1856 C1854 1.353 . S
C1856 H1914 0.930 . S
C1857 N1853 1.279 . S
C1857 C1855 1.358 . S
C1857 H1915 0.930 . S
C1858 C1861 1.348 . S
C1858 C1862 1.356 . S
C1858 O1909 1.325 . S
C1859 N1860 1.279 . S
C1859 C1862 1.358 . S
C1859 H1916 0.930 . S
N1860 C1859 1.279 . S
N1860 C1863 1.314 . S
C1861 C1858 1.348 . S
C1861 C1863 1.353 . S
C1861 H1917 0.929 . S
C1862 C1858 1.356 . S
C1862 C1859 1.358 . S
C1862 H1918 0.930 . S
C1863 N1860 1.314 . S
C1863 C1861 1.353 . S
C1863 H1919 0.930 . S
C1864 N1865 1.314 . S
C1864 C1869 1.353 . S
C1864 H1870 0.930 . S
N1865 Li1848 1.990 . S
N1865 C1864 1.314 . S
N1865 C1867 1.279 . S
C1866 C1867 1.358 . S
C1866 C1868 1.356 . S
C1866 H1920 0.930 . S
C1867 N1865 1.279 . S
C1867 C1866 1.358 . S
C1867 H1871 0.930 . S
C1868 C1866 1.356 . S
C1868 C1869 1.348 . S
C1869 C1864 1.353 . S
C1869 C1868 1.348 . S
C1869 H1921 0.929 . S
H1870 C1864 0.930 . S
H1871 C1867 0.930 . S
C1872 N1873 1.314 . S
C1872 C1874 1.353 . S
C1872 H1878 0.930 . S
N1873 Li1849 1.990 . S
N1873 C1872 1.314 . S
N1873 C1876 1.279 . S
C1874 C1872 1.353 . S
C1874 C1877 1.348 . S
C1874 H1922 0.929 . S
C1875 C1876 1.358 . S
C1875 C1877 1.356 . S
C1875 H1923 0.930 . S
C1876 N1873 1.279 . S
C1876 C1875 1.358 . S
C1876 H1879 0.930 . S
C1877 C1874 1.348 . S
C1877 C1875 1.356 . S
H1878 C1872 0.930 . S
H1879 C1876 0.930 . S
C1880 C1882 1.348 . S
C1880 C1883 1.356 . S
C1880 O1910 1.325 . S
N1881 C1884 1.314 . S
N1881 C1885 1.279 . S
C1882 C1880 1.348 . S
C1882 C1884 1.353 . S
C1882 H1924 0.929 . S
C1883 C1880 1.356 . S
C1883 C1885 1.358 . S
C1883 H1925 0.930 . S
C1884 N1881 1.314 . S
C1884 C1882 1.353 . S
C1884 H1926 0.930 . S
C1885 N1881 1.279 . S
C1885 C1883 1.358 . S
C1885 H1927 0.930 . S
C1886 C1887 1.348 . S
C1886 C1888 1.356 . S
C1886 O1911 1.325 . S
C1887 C1886 1.348 . S
C1887 C1889 1.353 . S
C1887 H1928 0.929 . S
C1888 C1886 1.356 . S
C1888 C1890 1.358 . S
C1888 H1929 0.930 . S
C1889 C1887 1.353 . S
C1889 N1891 1.314 . S
C1889 H1930 0.930 . S
C1890 C1888 1.358 . S
C1890 N1891 1.279 . S
C1890 H1931 0.930 . S
N1891 C1889 1.314 . S
N1891 C1890 1.279 . S
C1892 C1894 1.353 . S
C1892 N1895 1.314 . S
C1892 H1898 0.930 . S
C1893 N1895 1.279 . S
C1893 C1896 1.358 . S
C1893 H1899 0.930 . S
C1894 C1892 1.353 . S
C1894 C1897 1.348 . S
C1894 H1932 0.929 . S
N1895 Li1850 1.990 . S
N1895 C1892 1.314 . S
N1895 C1893 1.279 . S
C1896 C1893 1.358 . S
C1896 C1897 1.356 . S
C1896 H1933 0.930 . S
C1897 C1894 1.348 . S
C1897 C1896 1.356 . S
H1898 C1892 0.930 . S
H1899 C1893 0.930 . S
C1900 N1901 1.314 . S
C1900 C1902 1.353 . S
C1900 H1906 0.930 . S
N1901 Li1851 1.990 . S
N1901 C1900 1.314 . S
N1901 C1904 1.279 . S
C1902 C1900 1.353 . S
C1902 C1905 1.348 . S
C1902 H1934 0.929 . S
C1903 C1904 1.358 . S
C1903 C1905 1.356 . S
C1903 H1935 0.930 . S
C1904 N1901 1.279 . S
C1904 C1903 1.358 . S
C1904 H1907 0.930 . S
C1905 C1902 1.348 . S
C1905 C1903 1.356 . S
H1906 C1900 0.930 . S
H1907 C1904 0.930 . S
O1908 Li1848 1.956 . S
O1908 Li1849 1.970 . S
O1908 Li1850 1.961 . S
O1908 C1852 1.325 . S
O1909 Li1848 1.970 . S
O1909 Li1849 1.956 . S
O1909 Li1851 1.961 . S
O1909 C1858 1.325 . S
O1910 Li1848 1.961 . S
O1910 Li1850 1.956 . S
O1910 Li1851 1.970 . S
O1910 C1880 1.325 . S
O1911 Li1849 1.961 . S
O1911 Li1850 1.970 . S
O1911 Li1851 1.956 . S
O1911 C1886 1.325 . S
H1912 C1854 0.929 . S
H1913 C1855 0.930 . S
H1914 C1856 0.930 . S
H1915 C1857 0.930 . S
H1916 C1859 0.930 . S
H1917 C1861 0.929 . S
H1918 C1862 0.930 . S
H1919 C1863 0.930 . S
H1920 C1866 0.930 . S
H1921 C1869 0.929 . S
H1922 C1874 0.929 . S
H1923 C1875 0.930 . S
H1924 C1882 0.929 . S
H1925 C1883 0.930 . S
H1926 C1884 0.930 . S
H1927 C1885 0.930 . S
H1928 C1887 0.929 . S
H1929 C1888 0.930 . S
H1930 C1889 0.930 . S
H1931 C1890 0.930 . S
H1932 C1894 0.929 . S
H1933 C1896 0.930 . S
H1934 C1902 0.929 . S
H1935 C1903 0.930 . S
Li1936 N1953 1.990 . S
Li1936 O1996 1.956 . S
Li1936 O1997 1.970 . S
Li1936 O1998 1.961 . S
Li1937 N1961 1.990 . S
Li1937 O1996 1.970 . S
Li1937 O1997 1.956 . S
Li1937 O1999 1.961 . S
Li1938 N1983 1.990 . S
Li1938 O1996 1.961 . S
Li1938 O1998 1.956 . S
Li1938 O1999 1.970 . S
Li1939 N1989 1.990 . S
Li1939 O1997 1.961 . S
Li1939 O1998 1.970 . S
Li1939 O1999 1.956 . S
C1940 C1942 1.348 . S
C1940 C1943 1.356 . S
C1940 O1996 1.325 . S
N1941 C1944 1.314 . S
N1941 C1945 1.279 . S
C1942 C1940 1.348 . S
C1942 C1944 1.353 . S
C1942 H2000 0.929 . S
C1943 C1940 1.356 . S
C1943 C1945 1.358 . S
C1943 H2001 0.930 . S
C1944 N1941 1.314 . S
C1944 C1942 1.353 . S
C1944 H2002 0.930 . S
C1945 N1941 1.279 . S
C1945 C1943 1.358 . S
C1945 H2003 0.930 . S
C1946 C1949 1.348 . S
C1946 C1950 1.356 . S
C1946 O1997 1.325 . S
C1947 N1948 1.279 . S
C1947 C1950 1.358 . S
C1947 H2004 0.930 . S
N1948 C1947 1.279 . S
N1948 C1951 1.314 . S
C1949 C1946 1.348 . S
C1949 C1951 1.353 . S
C1949 H2005 0.929 . S
C1950 C1946 1.356 . S
C1950 C1947 1.358 . S
C1950 H2006 0.930 . S
C1951 N1948 1.314 . S
C1951 C1949 1.353 . S
C1951 H2007 0.930 . S
C1952 N1953 1.314 . S
C1952 C1957 1.353 . S
C1952 H1958 0.930 . S
N1953 Li1936 1.990 . S
N1953 C1952 1.314 . S
N1953 C1955 1.279 . S
C1954 C1955 1.358 . S
C1954 C1956 1.356 . S
C1954 H2008 0.930 . S
C1955 N1953 1.279 . S
C1955 C1954 1.358 . S
C1955 H1959 0.930 . S
C1956 C1954 1.356 . S
C1956 C1957 1.348 . S
C1957 C1952 1.353 . S
C1957 C1956 1.348 . S
C1957 H2009 0.929 . S
H1958 C1952 0.930 . S
H1959 C1955 0.930 . S
C1960 N1961 1.314 . S
C1960 C1962 1.353 . S
C1960 H1966 0.930 . S
N1961 Li1937 1.990 . S
N1961 C1960 1.314 . S
N1961 C1964 1.279 . S
C1962 C1960 1.353 . S
C1962 C1965 1.348 . S
C1962 H2010 0.929 . S
C1963 C1964 1.358 . S
C1963 C1965 1.356 . S
C1963 H2011 0.930 . S
C1964 N1961 1.279 . S
C1964 C1963 1.358 . S
C1964 H1967 0.930 . S
C1965 C1962 1.348 . S
C1965 C1963 1.356 . S
H1966 C1960 0.930 . S
H1967 C1964 0.930 . S
C1968 C1970 1.348 . S
C1968 C1971 1.356 . S
C1968 O1998 1.325 . S
N1969 C1972 1.314 . S
N1969 C1973 1.279 . S
C1970 C1968 1.348 . S
C1970 C1972 1.353 . S
C1970 H2012 0.929 . S
C1971 C1968 1.356 . S
C1971 C1973 1.358 . S
C1971 H2013 0.930 . S
C1972 N1969 1.314 . S
C1972 C1970 1.353 . S
C1972 H2014 0.930 . S
C1973 N1969 1.279 . S
C1973 C1971 1.358 . S
C1973 H2015 0.930 . S
C1974 C1975 1.348 . S
C1974 C1976 1.356 . S
C1974 O1999 1.325 . S
C1975 C1974 1.348 . S
C1975 C1977 1.353 . S
C1975 H2016 0.929 . S
C1976 C1974 1.356 . S
C1976 C1978 1.358 . S
C1976 H2017 0.930 . S
C1977 C1975 1.353 . S
C1977 N1979 1.314 . S
C1977 H2018 0.930 . S
C1978 C1976 1.358 . S
C1978 N1979 1.279 . S
C1978 H2019 0.930 . S
N1979 C1977 1.314 . S
N1979 C1978 1.279 . S
C1980 C1982 1.353 . S
C1980 N1983 1.314 . S
C1980 H1986 0.930 . S
C1981 N1983 1.279 . S
C1981 C1984 1.358 . S
C1981 H1987 0.930 . S
C1982 C1980 1.353 . S
C1982 C1985 1.348 . S
C1982 H2020 0.929 . S
N1983 Li1938 1.990 . S
N1983 C1980 1.314 . S
N1983 C1981 1.279 . S
C1984 C1981 1.358 . S
C1984 C1985 1.356 . S
C1984 H2021 0.930 . S
C1985 C1982 1.348 . S
C1985 C1984 1.356 . S
H1986 C1980 0.930 . S
H1987 C1981 0.930 . S
C1988 N1989 1.314 . S
C1988 C1990 1.353 . S
C1988 H1994 0.930 . S
N1989 Li1939 1.990 . S
N1989 C1988 1.314 . S
N1989 C1992 1.279 . S
C1990 C1988 1.353 . S
C1990 C1993 1.348 . S
C1990 H2022 0.929 . S
C1991 C1992 1.358 . S
C1991 C1993 1.356 . S
C1991 H2023 0.930 . S
C1992 N1989 1.279 . S
C1992 C1991 1.358 . S
C1992 H1995 0.930 . S
C1993 C1990 1.348 . S
C1993 C1991 1.356 . S
H1994 C1988 0.930 . S
H1995 C1992 0.930 . S
O1996 Li1936 1.956 . S
O1996 Li1937 1.970 . S
O1996 Li1938 1.961 . S
O1996 C1940 1.325 . S
O1997 Li1936 1.970 . S
O1997 Li1937 1.956 . S
O1997 Li1939 1.961 . S
O1997 C1946 1.325 . S
O1998 Li1936 1.961 . S
O1998 Li1938 1.956 . S
O1998 Li1939 1.970 . S
O1998 C1968 1.325 . S
O1999 Li1937 1.961 . S
O1999 Li1938 1.970 . S
O1999 Li1939 1.956 . S
O1999 C1974 1.325 . S
H2000 C1942 0.929 . S
H2001 C1943 0.930 . S
H2002 C1944 0.930 . S
H2003 C1945 0.930 . S
H2004 C1947 0.930 . S
H2005 C1949 0.929 . S
H2006 C1950 0.930 . S
H2007 C1951 0.930 . S
H2008 C1954 0.930 . S
H2009 C1957 0.929 . S
H2010 C1962 0.929 . S
H2011 C1963 0.930 . S
H2012 C1970 0.929 . S
H2013 C1971 0.930 . S
H2014 C1972 0.930 . S
H2015 C1973 0.930 . S
H2016 C1975 0.929 . S
H2017 C1976 0.930 . S
H2018 C1977 0.930 . S
H2019 C1978 0.930 . S
H2020 C1982 0.929 . S
H2021 C1984 0.930 . S
H2022 C1990 0.929 . S
H2023 C1991 0.930 . S
Li2024 N2041 1.990 . S
Li2024 O2084 1.956 . S
Li2024 O2085 1.970 . S
Li2024 O2086 1.961 . S
Li2025 N2049 1.990 . S
Li2025 O2084 1.970 . S
Li2025 O2085 1.956 . S
Li2025 O2087 1.961 . S
Li2026 N2071 1.990 . S
Li2026 O2084 1.961 . S
Li2026 O2086 1.956 . S
Li2026 O2087 1.970 . S
Li2027 N2077 1.990 . S
Li2027 O2085 1.961 . S
Li2027 O2086 1.970 . S
Li2027 O2087 1.956 . S
C2028 C2030 1.348 . S
C2028 C2031 1.356 . S
C2028 O2084 1.325 . S
N2029 C2032 1.314 . S
N2029 C2033 1.279 . S
C2030 C2028 1.348 . S
C2030 C2032 1.353 . S
C2030 H2088 0.929 . S
C2031 C2028 1.356 . S
C2031 C2033 1.358 . S
C2031 H2089 0.930 . S
C2032 N2029 1.314 . S
C2032 C2030 1.353 . S
C2032 H2090 0.930 . S
C2033 N2029 1.279 . S
C2033 C2031 1.358 . S
C2033 H2091 0.930 . S
C2034 C2037 1.348 . S
C2034 C2038 1.356 . S
C2034 O2085 1.325 . S
C2035 N2036 1.279 . S
C2035 C2038 1.358 . S
C2035 H2092 0.930 . S
N2036 C2035 1.279 . S
N2036 C2039 1.314 . S
C2037 C2034 1.348 . S
C2037 C2039 1.353 . S
C2037 H2093 0.929 . S
C2038 C2034 1.356 . S
C2038 C2035 1.358 . S
C2038 H2094 0.930 . S
C2039 N2036 1.314 . S
C2039 C2037 1.353 . S
C2039 H2095 0.930 . S
C2040 N2041 1.314 . S
C2040 C2045 1.353 . S
C2040 H2046 0.930 . S
N2041 Li2024 1.990 . S
N2041 C2040 1.314 . S
N2041 C2043 1.279 . S
C2042 C2043 1.358 . S
C2042 C2044 1.356 . S
C2042 H2096 0.930 . S
C2043 N2041 1.279 . S
C2043 C2042 1.358 . S
C2043 H2047 0.930 . S
C2044 C2042 1.356 . S
C2044 C2045 1.348 . S
C2045 C2040 1.353 . S
C2045 C2044 1.348 . S
C2045 H2097 0.929 . S
H2046 C2040 0.930 . S
H2047 C2043 0.930 . S
C2048 N2049 1.314 . S
C2048 C2050 1.353 . S
C2048 H2054 0.930 . S
N2049 Li2025 1.990 . S
N2049 C2048 1.314 . S
N2049 C2052 1.279 . S
C2050 C2048 1.353 . S
C2050 C2053 1.348 . S
C2050 H2098 0.929 . S
C2051 C2052 1.358 . S
C2051 C2053 1.356 . S
C2051 H2099 0.930 . S
C2052 N2049 1.279 . S
C2052 C2051 1.358 . S
C2052 H2055 0.930 . S
C2053 C2050 1.348 . S
C2053 C2051 1.356 . S
H2054 C2048 0.930 . S
H2055 C2052 0.930 . S
C2056 C2058 1.348 . S
C2056 C2059 1.356 . S
C2056 O2086 1.325 . S
N2057 C2060 1.314 . S
N2057 C2061 1.279 . S
C2058 C2056 1.348 . S
C2058 C2060 1.353 . S
C2058 H2100 0.929 . S
C2059 C2056 1.356 . S
C2059 C2061 1.358 . S
C2059 H2101 0.930 . S
C2060 N2057 1.314 . S
C2060 C2058 1.353 . S
C2060 H2102 0.930 . S
C2061 N2057 1.279 . S
C2061 C2059 1.358 . S
C2061 H2103 0.930 . S
C2062 C2063 1.348 . S
C2062 C2064 1.356 . S
C2062 O2087 1.325 . S
C2063 C2062 1.348 . S
C2063 C2065 1.353 . S
C2063 H2104 0.929 . S
C2064 C2062 1.356 . S
C2064 C2066 1.358 . S
C2064 H2105 0.930 . S
C2065 C2063 1.353 . S
C2065 N2067 1.314 . S
C2065 H2106 0.930 . S
C2066 C2064 1.358 . S
C2066 N2067 1.279 . S
C2066 H2107 0.930 . S
N2067 C2065 1.314 . S
N2067 C2066 1.279 . S
C2068 C2070 1.353 . S
C2068 N2071 1.314 . S
C2068 H2074 0.930 . S
C2069 N2071 1.279 . S
C2069 C2072 1.358 . S
C2069 H2075 0.930 . S
C2070 C2068 1.353 . S
C2070 C2073 1.348 . S
C2070 H2108 0.929 . S
N2071 Li2026 1.990 . S
N2071 C2068 1.314 . S
N2071 C2069 1.279 . S
C2072 C2069 1.358 . S
C2072 C2073 1.356 . S
C2072 H2109 0.930 . S
C2073 C2070 1.348 . S
C2073 C2072 1.356 . S
H2074 C2068 0.930 . S
H2075 C2069 0.930 . S
C2076 N2077 1.314 . S
C2076 C2078 1.353 . S
C2076 H2082 0.930 . S
N2077 Li2027 1.990 . S
N2077 C2076 1.314 . S
N2077 C2080 1.279 . S
C2078 C2076 1.353 . S
C2078 C2081 1.348 . S
C2078 H2110 0.929 . S
C2079 C2080 1.358 . S
C2079 C2081 1.356 . S
C2079 H2111 0.930 . S
C2080 N2077 1.279 . S
C2080 C2079 1.358 . S
C2080 H2083 0.930 . S
C2081 C2078 1.348 . S
C2081 C2079 1.356 . S
H2082 C2076 0.930 . S
H2083 C2080 0.930 . S
O2084 Li2024 1.956 . S
O2084 Li2025 1.970 . S
O2084 Li2026 1.961 . S
O2084 C2028 1.325 . S
O2085 Li2024 1.970 . S
O2085 Li2025 1.956 . S
O2085 Li2027 1.961 . S
O2085 C2034 1.325 . S
O2086 Li2024 1.961 . S
O2086 Li2026 1.956 . S
O2086 Li2027 1.970 . S
O2086 C2056 1.325 . S
O2087 Li2025 1.961 . S
O2087 Li2026 1.970 . S
O2087 Li2027 1.956 . S
O2087 C2062 1.325 . S
H2088 C2030 0.929 . S
H2089 C2031 0.930 . S
H2090 C2032 0.930 . S
H2091 C2033 0.930 . S
H2092 C2035 0.930 . S
H2093 C2037 0.929 . S
H2094 C2038 0.930 . S
H2095 C2039 0.930 . S
H2096 C2042 0.930 . S
H2097 C2045 0.929 . S
H2098 C2050 0.929 . S
H2099 C2051 0.930 . S
H2100 C2058 0.929 . S
H2101 C2059 0.930 . S
H2102 C2060 0.930 . S
H2103 C2061 0.930 . S
H2104 C2063 0.929 . S
H2105 C2064 0.930 . S
H2106 C2065 0.930 . S
H2107 C2066 0.930 . S
H2108 C2070 0.929 . S
H2109 C2072 0.930 . S
H2110 C2078 0.929 . S
H2111 C2079 0.930 . S
Tb2112 C2114 2.809 1_455 S
Tb2112 O2132 2.484 1_455 S
Tb2112 O2133 2.440 1_454 S
Tb2112 O2134 2.658 . S
Tb2112 O2135 2.409 1_554 S
Tb2112 O2136 2.378 . S
Tb2112 O2140 2.325 . S
Tb2112 O2143 2.341 1_545 S
Tb2113 C2123 2.809 1_545 S
Tb2113 O2134 2.325 . S
Tb2113 O2137 2.341 . S
Tb2113 O2138 2.484 1_545 S
Tb2113 O2139 2.440 . S
Tb2113 O2140 2.658 . S
Tb2113 O2141 2.409 . S
Tb2113 O2142 2.378 1_545 S
C2114 Tb2112 2.809 1_655 S
C2114 C2115 1.514 . S
C2114 O2132 1.248 . S
C2114 O2133 1.266 1_554 S
C2115 C2114 1.514 . S
C2115 C2116 1.359 . S
C2115 C2120 1.348 1_554 S
C2116 C2115 1.359 . S
C2116 C2117 1.380 . S
C2116 H2144 0.929 . S
C2117 C2116 1.380 . S
C2117 C2118 1.347 . S
C2117 H2145 0.931 . S
C2118 C2117 1.347 . S
C2118 C2119 1.369 1_554 S
C2119 C2118 1.369 1_556 S
C2119 C2120 1.408 . S
C2119 H2146 0.930 . S
C2120 C2115 1.348 1_556 S
C2120 C2119 1.408 . S
C2120 H2147 0.930 . S
C2121 O2134 1.281 1_556 S
C2121 O2135 1.254 . S
C2122 O2136 1.236 . S
C2122 O2137 1.266 . S
C2123 Tb2113 2.809 1_565 S
C2123 C2124 1.514 . S
C2123 O2138 1.248 . S
C2123 O2139 1.266 1_565 S
C2124 C2123 1.514 . S
C2124 C2125 1.359 . S
C2124 C2129 1.348 . S
C2125 C2124 1.359 . S
C2125 C2126 1.380 . S
C2125 H2148 0.929 . S
C2126 C2125 1.380 . S
C2126 C2127 1.347 . S
C2126 H2149 0.931 . S
C2127 C2126 1.347 . S
C2127 C2128 1.369 . S
C2128 C2127 1.369 . S
C2128 C2129 1.408 . S
C2128 H2150 0.930 . S
C2129 C2124 1.348 . S
C2129 C2128 1.408 . S
C2129 H2151 0.930 . S
C2130 O2140 1.281 . S
C2130 O2141 1.254 . S
C2131 O2142 1.236 . S
C2131 O2143 1.266 . S
O2132 Tb2112 2.484 1_655 S
O2132 C2114 1.248 . S
O2133 Tb2112 2.440 1_656 S
O2133 C2114 1.266 1_556 S
O2134 Tb2112 2.658 . S
O2134 Tb2113 2.325 . S
O2134 C2121 1.281 1_554 S
O2135 Tb2112 2.409 1_556 S
O2135 C2121 1.254 . S
O2136 Tb2112 2.378 . S
O2136 C2122 1.236 . S
O2137 Tb2113 2.341 . S
O2137 C2122 1.266 . S
O2138 Tb2113 2.484 1_565 S
O2138 C2123 1.248 . S
O2139 Tb2113 2.440 . S
O2139 C2123 1.266 1_545 S
O2140 Tb2112 2.325 . S
O2140 Tb2113 2.658 . S
O2140 C2130 1.281 . S
O2141 Tb2113 2.409 . S
O2141 C2130 1.254 . S
O2142 Tb2113 2.378 1_565 S
O2142 C2131 1.236 . S
O2143 Tb2112 2.341 1_565 S
O2143 C2131 1.266 . S
H2144 C2116 0.929 . S
H2145 C2117 0.931 . S
H2146 C2119 0.930 . S
H2147 C2120 0.930 . S
H2148 C2125 0.929 . S
H2149 C2126 0.931 . S
H2150 C2128 0.930 . S
H2151 C2129 0.930 . S
Tb2152 C2154 2.809 . S
Tb2152 O2172 2.484 . S
Tb2152 O2173 2.440 . S
Tb2152 O2174 2.658 . S
Tb2152 O2175 2.409 . S
Tb2152 O2176 2.378 . S
Tb2152 O2180 2.325 . S
Tb2152 O2183 2.341 . S
Tb2153 C2163 2.809 . S
Tb2153 O2174 2.325 . S
Tb2153 O2177 2.341 . S
Tb2153 O2178 2.484 . S
Tb2153 O2179 2.440 . S
Tb2153 O2180 2.658 . S
Tb2153 O2181 2.409 . S
Tb2153 O2182 2.378 . S
C2154 Tb2152 2.809 . S
C2154 C2155 1.514 . S
C2154 O2172 1.248 . S
C2154 O2173 1.266 . S
C2155 C2154 1.514 . S
C2155 C2156 1.359 . S
C2155 C2160 1.348 . S
C2156 C2155 1.359 . S
C2156 C2157 1.380 . S
C2156 H2184 0.929 . S
C2157 C2156 1.380 . S
C2157 C2158 1.347 . S
C2157 H2185 0.931 . S
C2158 C2157 1.347 . S
C2158 C2159 1.369 . S
C2159 C2158 1.369 . S
C2159 C2160 1.408 . S
C2159 H2186 0.930 . S
C2160 C2155 1.348 . S
C2160 C2159 1.408 . S
C2160 H2187 0.930 . S
C2161 O2174 1.281 . S
C2161 O2175 1.254 . S
C2162 O2176 1.236 . S
C2162 O2177 1.266 . S
C2163 Tb2153 2.809 . S
C2163 C2164 1.514 . S
C2163 O2178 1.248 . S
C2163 O2179 1.266 . S
C2164 C2163 1.514 . S
C2164 C2165 1.359 . S
C2164 C2169 1.348 . S
C2165 C2164 1.359 . S
C2165 C2166 1.380 . S
C2165 H2188 0.929 . S
C2166 C2165 1.380 . S
C2166 C2167 1.347 . S
C2166 H2189 0.931 . S
C2167 C2166 1.347 . S
C2167 C2168 1.369 . S
C2168 C2167 1.369 . S
C2168 C2169 1.408 . S
C2168 H2190 0.930 . S
C2169 C2164 1.348 . S
C2169 C2168 1.408 . S
C2169 H2191 0.930 . S
C2170 O2180 1.281 . S
C2170 O2181 1.254 . S
C2171 O2182 1.236 . S
C2171 O2183 1.266 . S
O2172 Tb2152 2.484 . S
O2172 C2154 1.248 . S
O2173 Tb2152 2.440 . S
O2173 C2154 1.266 . S
O2174 Tb2152 2.658 . S
O2174 Tb2153 2.325 . S
O2174 C2161 1.281 . S
O2175 Tb2152 2.409 . S
O2175 C2161 1.254 . S
O2176 Tb2152 2.378 . S
O2176 C2162 1.236 . S
O2177 Tb2153 2.341 . S
O2177 C2162 1.266 . S
O2178 Tb2153 2.484 . S
O2178 C2163 1.248 . S
O2179 Tb2153 2.440 . S
O2179 C2163 1.266 . S
O2180 Tb2152 2.325 . S
O2180 Tb2153 2.658 . S
O2180 C2170 1.281 . S
O2181 Tb2153 2.409 . S
O2181 C2170 1.254 . S
O2182 Tb2153 2.378 . S
O2182 C2171 1.236 . S
O2183 Tb2152 2.341 . S
O2183 C2171 1.266 . S
H2184 C2156 0.929 . S
H2185 C2157 0.931 . S
H2186 C2159 0.930 . S
H2187 C2160 0.930 . S
H2188 C2165 0.929 . S
H2189 C2166 0.931 . S
H2190 C2168 0.930 . S
H2191 C2169 0.930 . S
Tb2192 C2194 2.809 1_545 S
Tb2192 O2212 2.484 1_545 S
Tb2192 O2213 2.440 . S
Tb2192 O2214 2.658 . S
Tb2192 O2215 2.409 . S
Tb2192 O2216 2.378 1_545 S
Tb2192 O2220 2.325 . S
Tb2192 O2223 2.341 . S
Tb2193 C2203 2.809 . S
Tb2193 O2214 2.325 . S
Tb2193 O2217 2.341 1_545 S
Tb2193 O2218 2.484 . S
Tb2193 O2219 2.440 . S
Tb2193 O2220 2.658 . S
Tb2193 O2221 2.409 . S
Tb2193 O2222 2.378 . S
C2194 Tb2192 2.809 1_565 S
C2194 C2195 1.514 . S
C2194 O2212 1.248 . S
C2194 O2213 1.266 1_565 S
C2195 C2194 1.514 . S
C2195 C2196 1.359 . S
C2195 C2200 1.348 . S
C2196 C2195 1.359 . S
C2196 C2197 1.380 . S
C2196 H2224 0.929 . S
C2197 C2196 1.380 . S
C2197 C2198 1.347 . S
C2197 H2225 0.931 . S
C2198 C2197 1.347 . S
C2198 C2199 1.369 . S
C2199 C2198 1.369 . S
C2199 C2200 1.408 . S
C2199 H2226 0.930 . S
C2200 C2195 1.348 . S
C2200 C2199 1.408 . S
C2200 H2227 0.930 . S
C2201 O2214 1.281 . S
C2201 O2215 1.254 . S
C2202 O2216 1.236 . S
C2202 O2217 1.266 . S
C2203 Tb2193 2.809 . S
C2203 C2204 1.514 . S
C2203 O2218 1.248 . S
C2203 O2219 1.266 . S
C2204 C2203 1.514 . S
C2204 C2205 1.359 . S
C2204 C2209 1.348 . S
C2205 C2204 1.359 . S
C2205 C2206 1.380 . S
C2205 H2228 0.929 . S
C2206 C2205 1.380 . S
C2206 C2207 1.347 . S
C2206 H2229 0.931 . S
C2207 C2206 1.347 . S
C2207 C2208 1.369 . S
C2208 C2207 1.369 . S
C2208 C2209 1.408 . S
C2208 H2230 0.930 . S
C2209 C2204 1.348 . S
C2209 C2208 1.408 . S
C2209 H2231 0.930 . S
C2210 O2220 1.281 . S
C2210 O2221 1.254 . S
C2211 O2222 1.236 . S
C2211 O2223 1.266 . S
O2212 Tb2192 2.484 1_565 S
O2212 C2194 1.248 . S
O2213 Tb2192 2.440 . S
O2213 C2194 1.266 1_545 S
O2214 Tb2192 2.658 . S
O2214 Tb2193 2.325 . S
O2214 C2201 1.281 . S
O2215 Tb2192 2.409 . S
O2215 C2201 1.254 . S
O2216 Tb2192 2.378 1_565 S
O2216 C2202 1.236 . S
O2217 Tb2193 2.341 1_565 S
O2217 C2202 1.266 . S
O2218 Tb2193 2.484 . S
O2218 C2203 1.248 . S
O2219 Tb2193 2.440 . S
O2219 C2203 1.266 . S
O2220 Tb2192 2.325 . S
O2220 Tb2193 2.658 . S
O2220 C2210 1.281 . S
O2221 Tb2193 2.409 . S
O2221 C2210 1.254 . S
O2222 Tb2193 2.378 . S
O2222 C2211 1.236 . S
O2223 Tb2192 2.341 . S
O2223 C2211 1.266 . S
H2224 C2196 0.929 . S
H2225 C2197 0.931 . S
H2226 C2199 0.930 . S
H2227 C2200 0.930 . S
H2228 C2205 0.929 . S
H2229 C2206 0.931 . S
H2230 C2208 0.930 . S
H2231 C2209 0.930 . S
Tb2232 C2234 2.809 . S
Tb2232 O2252 2.484 . S
Tb2232 O2253 2.440 . S
Tb2232 O2254 2.658 . S
Tb2232 O2255 2.409 . S
Tb2232 O2256 2.378 . S
Tb2232 O2260 2.325 . S
Tb2232 O2263 2.341 . S
Tb2233 C2243 2.809 . S
Tb2233 O2254 2.325 . S
Tb2233 O2257 2.341 . S
Tb2233 O2258 2.484 . S
Tb2233 O2259 2.440 . S
Tb2233 O2260 2.658 . S
Tb2233 O2261 2.409 . S
Tb2233 O2262 2.378 . S
C2234 Tb2232 2.809 . S
C2234 C2235 1.514 . S
C2234 O2252 1.248 . S
C2234 O2253 1.266 . S
C2235 C2234 1.514 . S
C2235 C2236 1.359 . S
C2235 C2240 1.348 . S
C2236 C2235 1.359 . S
C2236 C2237 1.380 . S
C2236 H2264 0.929 . S
C2237 C2236 1.380 . S
C2237 C2238 1.347 . S
C2237 H2265 0.931 . S
C2238 C2237 1.347 . S
C2238 C2239 1.369 . S
C2239 C2238 1.369 . S
C2239 C2240 1.408 . S
C2239 H2266 0.930 . S
C2240 C2235 1.348 . S
C2240 C2239 1.408 . S
C2240 H2267 0.930 . S
C2241 O2254 1.281 . S
C2241 O2255 1.254 . S
C2242 O2256 1.236 . S
C2242 O2257 1.266 . S
C2243 Tb2233 2.809 . S
C2243 C2244 1.514 . S
C2243 O2258 1.248 . S
C2243 O2259 1.266 . S
C2244 C2243 1.514 . S
C2244 C2245 1.359 . S
C2244 C2249 1.348 . S
C2245 C2244 1.359 . S
C2245 C2246 1.380 . S
C2245 H2268 0.929 . S
C2246 C2245 1.380 . S
C2246 C2247 1.347 . S
C2246 H2269 0.931 . S
C2247 C2246 1.347 . S
C2247 C2248 1.369 . S
C2248 C2247 1.369 . S
C2248 C2249 1.408 . S
C2248 H2270 0.930 . S
C2249 C2244 1.348 . S
C2249 C2248 1.408 . S
C2249 H2271 0.930 . S
C2250 O2260 1.281 . S
C2250 O2261 1.254 . S
C2251 O2262 1.236 . S
C2251 O2263 1.266 . S
O2252 Tb2232 2.484 . S
O2252 C2234 1.248 . S
O2253 Tb2232 2.440 . S
O2253 C2234 1.266 . S
O2254 Tb2232 2.658 . S
O2254 Tb2233 2.325 . S
O2254 C2241 1.281 . S
O2255 Tb2232 2.409 . S
O2255 C2241 1.254 . S
O2256 Tb2232 2.378 . S
O2256 C2242 1.236 . S
O2257 Tb2233 2.341 . S
O2257 C2242 1.266 . S
O2258 Tb2233 2.484 . S
O2258 C2243 1.248 . S
O2259 Tb2233 2.440 . S
O2259 C2243 1.266 . S
O2260 Tb2232 2.325 . S
O2260 Tb2233 2.658 . S
O2260 C2250 1.281 . S
O2261 Tb2233 2.409 . S
O2261 C2250 1.254 . S
O2262 Tb2233 2.378 . S
O2262 C2251 1.236 . S
O2263 Tb2232 2.341 . S
O2263 C2251 1.266 . S
H2264 C2236 0.929 . S
H2265 C2237 0.931 . S
H2266 C2239 0.930 . S
H2267 C2240 0.930 . S
H2268 C2245 0.929 . S
H2269 C2246 0.931 . S
H2270 C2248 0.930 . S
H2271 C2249 0.930 . S
Tb2272 C2274 2.809 . S
Tb2272 O2292 2.484 . S
Tb2272 O2293 2.440 . S
Tb2272 O2294 2.658 . S
Tb2272 O2295 2.409 1_455 S
Tb2272 O2296 2.378 . S
Tb2272 O2300 2.325 . S
Tb2272 O2303 2.341 . S
Tb2273 C2283 2.809 . S
Tb2273 O2294 2.325 1_565 S
Tb2273 O2297 2.363 . S
Tb2273 O2298 2.484 . S
Tb2273 O2299 2.440 . S
Tb2273 O2300 2.658 1_565 S
Tb2273 O2301 2.409 1_565 S
Tb2273 O2302 2.378 1_565 S
C2274 Tb2272 2.809 . S
C2274 C2275 1.514 . S
C2274 O2292 1.248 . S
C2274 O2293 1.266 . S
C2275 C2274 1.514 . S
C2275 C2276 1.359 . S
C2275 C2280 1.348 1_455 S
C2276 C2275 1.359 . S
C2276 C2277 1.380 . S
C2276 H2304 0.929 . S
C2277 C2276 1.380 . S
C2277 C2278 1.347 . S
C2277 H2305 0.931 . S
C2278 C2277 1.347 . S
C2278 C2279 1.369 1_455 S
C2279 C2278 1.369 1_655 S
C2279 C2280 1.408 . S
C2279 H2306 0.930 . S
C2280 C2275 1.348 1_655 S
C2280 C2279 1.408 . S
C2280 H2307 0.930 . S
C2281 O2294 1.281 1_655 S
C2281 O2295 1.254 . S
C2282 O2296 1.236 . S
C2282 O2297 1.227 1_545 S
C2283 Tb2273 2.809 . S
C2283 C2284 1.514 . S
C2283 O2298 1.248 . S
C2283 O2299 1.266 . S
C2284 C2283 1.514 . S
C2284 C2285 1.359 . S
C2284 C2289 1.348 . S
C2285 C2284 1.359 . S
C2285 C2286 1.380 . S
C2285 H2308 0.929 . S
C2286 C2285 1.380 . S
C2286 C2287 1.347 . S
C2286 H2309 0.931 . S
C2287 C2286 1.347 . S
C2287 C2288 1.369 . S
C2288 C2287 1.369 . S
C2288 C2289 1.408 . S
C2288 H2310 0.930 . S
C2289 C2284 1.348 . S
C2289 C2288 1.408 . S
C2289 H2311 0.930 . S
C2290 O2300 1.281 . S
C2290 O2301 1.254 . S
C2291 O2302 1.236 . S
C2291 O2303 1.266 . S
O2292 Tb2272 2.484 . S
O2292 C2274 1.248 . S
O2293 Tb2272 2.440 . S
O2293 C2274 1.266 . S
O2294 Tb2272 2.658 . S
O2294 Tb2273 2.325 1_545 S
O2294 C2281 1.281 1_455 S
O2295 Tb2272 2.409 1_655 S
O2295 C2281 1.254 . S
O2296 Tb2272 2.378 . S
O2296 C2282 1.236 . S
O2297 Tb2273 2.363 . S
O2297 C2282 1.227 1_565 S
O2298 Tb2273 2.484 . S
O2298 C2283 1.248 . S
O2299 Tb2273 2.440 . S
O2299 C2283 1.266 . S
O2300 Tb2272 2.325 . S
O2300 Tb2273 2.658 1_545 S
O2300 C2290 1.281 . S
O2301 Tb2273 2.409 1_545 S
O2301 C2290 1.254 . S
O2302 Tb2273 2.378 1_545 S
O2302 C2291 1.236 . S
O2303 Tb2272 2.341 . S
O2303 C2291 1.266 . S
H2304 C2276 0.929 . S
H2305 C2277 0.931 . S
H2306 C2279 0.930 . S
H2307 C2280 0.930 . S
H2308 C2285 0.929 . S
H2309 C2286 0.931 . S
H2310 C2288 0.930 . S
H2311 C2289 0.930 . S
Tb2312 C2314 2.809 . S
Tb2312 O2332 2.484 . S
Tb2312 O2333 2.440 . S
Tb2312 O2334 2.658 . S
Tb2312 O2335 2.409 . S
Tb2312 O2336 2.378 . S
Tb2312 O2340 2.325 . S
Tb2312 O2343 2.341 . S
Tb2313 C2323 2.809 . S
Tb2313 O2334 2.325 . S
Tb2313 O2337 2.341 . S
Tb2313 O2338 2.484 . S
Tb2313 O2339 2.440 . S
Tb2313 O2340 2.658 . S
Tb2313 O2341 2.409 . S
Tb2313 O2342 2.378 . S
C2314 Tb2312 2.809 . S
C2314 C2315 1.514 . S
C2314 O2332 1.248 . S
C2314 O2333 1.266 . S
C2315 C2314 1.514 . S
C2315 C2316 1.359 . S
C2315 C2320 1.348 . S
C2316 C2315 1.359 . S
C2316 C2317 1.380 . S
C2316 H2344 0.929 . S
C2317 C2316 1.380 . S
C2317 C2318 1.347 . S
C2317 H2345 0.931 . S
C2318 C2317 1.347 . S
C2318 C2319 1.369 . S
C2319 C2318 1.369 . S
C2319 C2320 1.408 . S
C2319 H2346 0.930 . S
C2320 C2315 1.348 . S
C2320 C2319 1.408 . S
C2320 H2347 0.930 . S
C2321 O2334 1.281 . S
C2321 O2335 1.254 . S
C2322 O2336 1.236 . S
C2322 O2337 1.266 . S
C2323 Tb2313 2.809 . S
C2323 C2324 1.514 . S
C2323 O2338 1.248 . S
C2323 O2339 1.266 . S
C2324 C2323 1.514 . S
C2324 C2325 1.359 . S
C2324 C2329 1.348 . S
C2325 C2324 1.359 . S
C2325 C2326 1.380 . S
C2325 H2348 0.929 . S
C2326 C2325 1.380 . S
C2326 C2327 1.347 . S
C2326 H2349 0.931 . S
C2327 C2326 1.347 . S
C2327 C2328 1.369 . S
C2328 C2327 1.369 . S
C2328 C2329 1.408 . S
C2328 H2350 0.930 . S
C2329 C2324 1.348 . S
C2329 C2328 1.408 . S
C2329 H2351 0.930 . S
C2330 O2340 1.281 . S
C2330 O2341 1.254 . S
C2331 O2342 1.236 . S
C2331 O2343 1.266 . S
O2332 Tb2312 2.484 . S
O2332 C2314 1.248 . S
O2333 Tb2312 2.440 . S
O2333 C2314 1.266 . S
O2334 Tb2312 2.658 . S
O2334 Tb2313 2.325 . S
O2334 C2321 1.281 . S
O2335 Tb2312 2.409 . S
O2335 C2321 1.254 . S
O2336 Tb2312 2.378 . S
O2336 C2322 1.236 . S
O2337 Tb2313 2.341 . S
O2337 C2322 1.266 . S
O2338 Tb2313 2.484 . S
O2338 C2323 1.248 . S
O2339 Tb2313 2.440 . S
O2339 C2323 1.266 . S
O2340 Tb2312 2.325 . S
O2340 Tb2313 2.658 . S
O2340 C2330 1.281 . S
O2341 Tb2313 2.409 . S
O2341 C2330 1.254 . S
O2342 Tb2313 2.378 . S
O2342 C2331 1.236 . S
O2343 Tb2312 2.341 . S
O2343 C2331 1.266 . S
H2344 C2316 0.929 . S
H2345 C2317 0.931 . S
H2346 C2319 0.930 . S
H2347 C2320 0.930 . S
H2348 C2325 0.929 . S
H2349 C2326 0.931 . S
H2350 C2328 0.930 . S
H2351 C2329 0.930 . S
Tb2352 C2354 2.809 1_545 S
Tb2352 O2372 2.484 1_545 S
Tb2352 O2373 2.440 . S
Tb2352 O2374 2.658 . S
Tb2352 O2375 2.409 . S
Tb2352 O2376 2.378 . S
Tb2352 O2380 2.325 1_545 S
Tb2352 O2383 2.341 1_554 S
Tb2353 C2363 2.809 . S
Tb2353 O2374 2.325 . S
Tb2353 O2377 2.341 . S
Tb2353 O2378 2.484 . S
Tb2353 O2379 2.440 . S
Tb2353 O2380 2.658 1_545 S
Tb2353 O2381 2.409 1_545 S
Tb2353 O2382 2.378 . S
C2354 Tb2352 2.809 1_565 S
C2354 C2355 1.514 . S
C2354 O2372 1.248 . S
C2354 O2373 1.266 1_565 S
C2355 C2354 1.514 . S
C2355 C2356 1.359 . S
C2355 C2360 1.348 1_565 S
C2356 C2355 1.359 . S
C2356 C2357 1.380 . S
C2356 H2384 0.929 . S
C2357 C2356 1.380 . S
C2357 C2358 1.347 . S
C2357 H2385 0.931 . S
C2358 C2357 1.347 . S
C2358 C2359 1.369 . S
C2359 C2358 1.369 . S
C2359 C2360 1.408 1_565 S
C2359 H2386 0.930 1_565 S
C2360 C2355 1.348 1_545 S
C2360 C2359 1.408 1_545 S
C2360 H2387 0.930 . S
C2361 O2374 1.281 . S
C2361 O2375 1.254 . S
C2362 O2376 1.236 . S
C2362 O2377 1.266 . S
C2363 Tb2353 2.809 . S
C2363 C2364 1.514 . S
C2363 O2378 1.248 . S
C2363 O2379 1.266 . S
C2364 C2363 1.514 . S
C2364 C2365 1.359 . S
C2364 C2369 1.348 . S
C2365 C2364 1.359 . S
C2365 C2366 1.380 . S
C2365 H2388 0.929 . S
C2366 C2365 1.380 . S
C2366 C2367 1.347 . S
C2366 H2389 0.931 . S
C2367 C2366 1.347 . S
C2367 C2368 1.369 . S
C2368 C2367 1.369 . S
C2368 C2369 1.408 . S
C2368 H2390 0.930 . S
C2369 C2364 1.348 . S
C2369 C2368 1.408 . S
C2369 H2391 0.930 . S
C2370 O2380 1.281 . S
C2370 O2381 1.254 . S
C2371 O2382 1.236 1_556 S
C2371 O2383 1.266 . S
O2372 Tb2352 2.484 1_565 S
O2372 C2354 1.248 . S
O2373 Tb2352 2.440 . S
O2373 C2354 1.266 1_545 S
O2374 Tb2352 2.658 . S
O2374 Tb2353 2.325 . S
O2374 C2361 1.281 . S
O2375 Tb2352 2.409 . S
O2375 C2361 1.254 . S
O2376 Tb2352 2.378 . S
O2376 C2362 1.236 . S
O2377 Tb2353 2.341 . S
O2377 C2362 1.266 . S
O2378 Tb2353 2.484 . S
O2378 C2363 1.248 . S
O2379 Tb2353 2.440 . S
O2379 C2363 1.266 . S
O2380 Tb2352 2.325 1_565 S
O2380 Tb2353 2.658 1_565 S
O2380 C2370 1.281 . S
O2381 Tb2353 2.409 1_565 S
O2381 C2370 1.254 . S
O2382 Tb2353 2.378 . S
O2382 C2371 1.236 1_554 S
O2383 Tb2352 2.341 1_556 S
O2383 C2371 1.266 . S
H2384 C2356 0.929 . S
H2385 C2357 0.931 . S
H2386 C2359 0.930 1_545 S
H2387 C2360 0.930 . S
H2388 C2365 0.929 . S
H2389 C2366 0.931 . S
H2390 C2368 0.930 . S
H2391 C2369 0.930 . S
Tb2392 C2394 2.809 . S
Tb2392 O2412 2.484 . S
Tb2392 O2413 2.440 . S
Tb2392 O2414 2.658 . S
Tb2392 O2415 2.409 . S
Tb2392 O2416 2.378 . S
Tb2392 O2420 2.325 . S
Tb2392 O2423 2.341 . S
Tb2393 C2403 2.809 . S
Tb2393 O2414 2.325 . S
Tb2393 O2417 2.341 . S
Tb2393 O2418 2.484 . S
Tb2393 O2419 2.440 . S
Tb2393 O2420 2.658 . S
Tb2393 O2421 2.409 . S
Tb2393 O2422 2.378 . S
C2394 Tb2392 2.809 . S
C2394 C2395 1.514 . S
C2394 O2412 1.248 . S
C2394 O2413 1.266 . S
C2395 C2394 1.514 . S
C2395 C2396 1.359 . S
C2395 C2400 1.348 . S
C2396 C2395 1.359 . S
C2396 C2397 1.380 . S
C2396 H2424 0.929 . S
C2397 C2396 1.380 . S
C2397 C2398 1.347 . S
C2397 H2425 0.931 . S
C2398 C2397 1.347 . S
C2398 C2399 1.369 . S
C2399 C2398 1.369 . S
C2399 C2400 1.408 . S
C2399 H2426 0.930 . S
C2400 C2395 1.348 . S
C2400 C2399 1.408 . S
C2400 H2427 0.930 . S
C2401 O2414 1.281 . S
C2401 O2415 1.254 . S
C2402 O2416 1.236 . S
C2402 O2417 1.266 . S
C2403 Tb2393 2.809 . S
C2403 C2404 1.514 . S
C2403 O2418 1.248 . S
C2403 O2419 1.266 . S
C2404 C2403 1.514 . S
C2404 C2405 1.359 . S
C2404 C2409 1.348 . S
C2405 C2404 1.359 . S
C2405 C2406 1.380 . S
C2405 H2428 0.929 . S
C2406 C2405 1.380 . S
C2406 C2407 1.347 . S
C2406 H2429 0.931 . S
C2407 C2406 1.347 . S
C2407 C2408 1.369 . S
C2408 C2407 1.369 . S
C2408 C2409 1.408 . S
C2408 H2430 0.930 . S
C2409 C2404 1.348 . S
C2409 C2408 1.408 . S
C2409 H2431 0.930 . S
C2410 O2420 1.281 . S
C2410 O2421 1.254 . S
C2411 O2422 1.236 . S
C2411 O2423 1.266 . S
O2412 Tb2392 2.484 . S
O2412 C2394 1.248 . S
O2413 Tb2392 2.440 . S
O2413 C2394 1.266 . S
O2414 Tb2392 2.658 . S
O2414 Tb2393 2.325 . S
O2414 C2401 1.281 . S
O2415 Tb2392 2.409 . S
O2415 C2401 1.254 . S
O2416 Tb2392 2.378 . S
O2416 C2402 1.236 . S
O2417 Tb2393 2.341 . S
O2417 C2402 1.266 . S
O2418 Tb2393 2.484 . S
O2418 C2403 1.248 . S
O2419 Tb2393 2.440 . S
O2419 C2403 1.266 . S
O2420 Tb2392 2.325 . S
O2420 Tb2393 2.658 . S
O2420 C2410 1.281 . S
O2421 Tb2393 2.409 . S
O2421 C2410 1.254 . S
O2422 Tb2393 2.378 . S
O2422 C2411 1.236 . S
O2423 Tb2392 2.341 . S
O2423 C2411 1.266 . S
H2424 C2396 0.929 . S
H2425 C2397 0.931 . S
H2426 C2399 0.930 . S
H2427 C2400 0.930 . S
H2428 C2405 0.929 . S
H2429 C2406 0.931 . S
H2430 C2408 0.930 . S
H2431 C2409 0.930 . S
Tb2432 C2434 2.809 . S
Tb2432 O2452 2.484 . S
Tb2432 O2453 2.440 . S
Tb2432 O2454 2.658 . S
Tb2432 O2455 2.409 . S
Tb2432 O2456 2.342 1_554 S
Tb2432 O2460 2.325 . S
Tb2432 O2463 2.341 . S
Tb2433 C2443 2.809 . S
Tb2433 O2454 2.325 . S
Tb2433 O2457 2.341 1_554 S
Tb2433 O2458 2.484 . S
Tb2433 O2459 2.440 . S
Tb2433 O2460 2.658 . S
Tb2433 O2461 2.409 . S
Tb2433 O2462 2.378 . S
C2434 Tb2432 2.809 . S
C2434 C2435 1.514 1_554 S
C2434 O2452 1.248 . S
C2434 O2453 1.266 . S
C2435 C2434 1.514 1_556 S
C2435 C2436 1.359 . S
C2435 C2440 1.348 . S
C2436 C2435 1.359 . S
C2436 C2437 1.380 . S
C2436 H2464 0.929 . S
C2437 C2436 1.380 . S
C2437 C2438 1.347 . S
C2437 H2465 0.931 . S
C2438 C2437 1.347 . S
C2438 C2439 1.369 . S
C2439 C2438 1.369 . S
C2439 C2440 1.408 . S
C2439 H2466 0.930 . S
C2440 C2435 1.348 . S
C2440 C2439 1.408 . S
C2440 H2467 0.931 1_556 S
C2441 O2454 1.281 . S
C2441 O2455 1.254 . S
C2442 O2456 1.263 . S
C2442 O2457 1.266 . S
C2443 Tb2433 2.809 . S
C2443 C2444 1.514 . S
C2443 O2458 1.248 . S
C2443 O2459 1.266 . S
C2444 C2443 1.514 . S
C2444 C2445 1.359 . S
C2444 C2449 1.348 . S
C2445 C2444 1.359 . S
C2445 C2446 1.380 . S
C2445 H2468 0.929 . S
C2446 C2445 1.380 . S
C2446 C2447 1.347 . S
C2446 H2469 0.931 . S
C2447 C2446 1.347 . S
C2447 C2448 1.369 . S
C2448 C2447 1.369 . S
C2448 C2449 1.408 . S
C2448 H2470 0.930 . S
C2449 C2444 1.348 . S
C2449 C2448 1.408 . S
C2449 H2471 0.930 . S
C2450 O2460 1.281 . S
C2450 O2461 1.254 . S
C2451 O2462 1.236 . S
C2451 O2463 1.266 . S
O2452 Tb2432 2.484 . S
O2452 C2434 1.248 . S
O2453 Tb2432 2.440 . S
O2453 C2434 1.266 . S
O2454 Tb2432 2.658 . S
O2454 Tb2433 2.325 . S
O2454 C2441 1.281 . S
O2455 Tb2432 2.409 . S
O2455 C2441 1.254 . S
O2456 Tb2432 2.342 1_556 S
O2456 C2442 1.263 . S
O2457 Tb2433 2.341 1_556 S
O2457 C2442 1.266 . S
O2458 Tb2433 2.484 . S
O2458 C2443 1.248 . S
O2459 Tb2433 2.440 . S
O2459 C2443 1.266 . S
O2460 Tb2432 2.325 . S
O2460 Tb2433 2.658 . S
O2460 C2450 1.281 . S
O2461 Tb2433 2.409 . S
O2461 C2450 1.254 . S
O2462 Tb2433 2.378 . S
O2462 C2451 1.236 . S
O2463 Tb2432 2.341 . S
O2463 C2451 1.266 . S
H2464 C2436 0.929 . S
H2465 C2437 0.931 . S
H2466 C2439 0.930 . S
H2467 C2440 0.931 1_554 S
H2468 C2445 0.929 . S
H2469 C2446 0.931 . S
H2470 C2448 0.930 . S
H2471 C2449 0.930 . S
Tb2472 C2474 2.809 . S
Tb2472 O2492 2.484 . S
Tb2472 O2493 2.440 . S
Tb2472 O2494 2.658 . S
Tb2472 O2495 2.409 . S
Tb2472 O2496 2.378 . S
Tb2472 O2500 2.325 . S
Tb2472 O2503 2.341 . S
Tb2473 C2483 2.809 . S
Tb2473 O2494 2.325 . S
Tb2473 O2497 2.341 . S
Tb2473 O2498 2.484 . S
Tb2473 O2499 2.440 . S
Tb2473 O2500 2.658 . S
Tb2473 O2501 2.409 . S
Tb2473 O2502 2.378 . S
C2474 Tb2472 2.809 . S
C2474 C2475 1.514 . S
C2474 O2492 1.248 . S
C2474 O2493 1.266 . S
C2475 C2474 1.514 . S
C2475 C2476 1.359 . S
C2475 C2480 1.348 . S
C2476 C2475 1.359 . S
C2476 C2477 1.380 . S
C2476 H2504 0.929 . S
C2477 C2476 1.380 . S
C2477 C2478 1.347 . S
C2477 H2505 0.931 . S
C2478 C2477 1.347 . S
C2478 C2479 1.369 . S
C2479 C2478 1.369 . S
C2479 C2480 1.408 . S
C2479 H2506 0.930 . S
C2480 C2475 1.348 . S
C2480 C2479 1.408 . S
C2480 H2507 0.930 . S
C2481 O2494 1.281 . S
C2481 O2495 1.254 . S
C2482 O2496 1.236 . S
C2482 O2497 1.266 . S
C2483 Tb2473 2.809 . S
C2483 C2484 1.514 . S
C2483 O2498 1.248 . S
C2483 O2499 1.266 . S
C2484 C2483 1.514 . S
C2484 C2485 1.359 . S
C2484 C2489 1.348 . S
C2485 C2484 1.359 . S
C2485 C2486 1.380 . S
C2485 H2508 0.929 . S
C2486 C2485 1.380 . S
C2486 C2487 1.347 . S
C2486 H2509 0.931 . S
C2487 C2486 1.347 . S
C2487 C2488 1.369 . S
C2488 C2487 1.369 . S
C2488 C2489 1.408 . S
C2488 H2510 0.930 . S
C2489 C2484 1.348 . S
C2489 C2488 1.408 . S
C2489 H2511 0.930 . S
C2490 O2500 1.281 . S
C2490 O2501 1.254 . S
C2491 O2502 1.236 . S
C2491 O2503 1.266 . S
O2492 Tb2472 2.484 . S
O2492 C2474 1.248 . S
O2493 Tb2472 2.440 . S
O2493 C2474 1.266 . S
O2494 Tb2472 2.658 . S
O2494 Tb2473 2.325 . S
O2494 C2481 1.281 . S
O2495 Tb2472 2.409 . S
O2495 C2481 1.254 . S
O2496 Tb2472 2.378 . S
O2496 C2482 1.236 . S
O2497 Tb2473 2.341 . S
O2497 C2482 1.266 . S
O2498 Tb2473 2.484 . S
O2498 C2483 1.248 . S
O2499 Tb2473 2.440 . S
O2499 C2483 1.266 . S
O2500 Tb2472 2.325 . S
O2500 Tb2473 2.658 . S
O2500 C2490 1.281 . S
O2501 Tb2473 2.409 . S
O2501 C2490 1.254 . S
O2502 Tb2473 2.378 . S
O2502 C2491 1.236 . S
O2503 Tb2472 2.341 . S
O2503 C2491 1.266 . S
H2504 C2476 0.929 . S
H2505 C2477 0.931 . S
H2506 C2479 0.930 . S
H2507 C2480 0.930 . S
H2508 C2485 0.929 . S
H2509 C2486 0.931 . S
H2510 C2488 0.930 . S
H2511 C2489 0.930 . S
Tb2512 C2514 2.809 1_455 S
Tb2512 O2532 2.484 1_455 S
Tb2512 O2533 2.440 1_455 S
Tb2512 O2534 2.658 . S
Tb2512 O2535 2.409 . S
Tb2512 O2536 2.378 . S
Tb2512 O2540 2.325 . S
Tb2512 O2543 2.341 . S
Tb2513 C2523 2.809 . S
Tb2513 O2534 2.325 . S
Tb2513 O2537 2.341 . S
Tb2513 O2538 2.484 . S
Tb2513 O2539 2.440 . S
Tb2513 O2540 2.658 . S
Tb2513 O2541 2.409 . S
Tb2513 O2542 2.378 . S
C2514 Tb2512 2.809 1_655 S
C2514 C2515 1.514 . S
C2514 O2532 1.248 . S
C2514 O2533 1.266 . S
C2515 C2514 1.514 . S
C2515 C2516 1.359 . S
C2515 C2520 1.348 . S
C2516 C2515 1.359 . S
C2516 C2517 1.380 . S
C2516 H2544 0.929 . S
C2517 C2516 1.380 . S
C2517 C2518 1.347 . S
C2517 H2545 0.931 . S
C2518 C2517 1.347 . S
C2518 C2519 1.369 . S
C2519 C2518 1.369 . S
C2519 C2520 1.408 . S
C2519 H2546 0.930 . S
C2520 C2515 1.348 . S
C2520 C2519 1.408 . S
C2520 H2547 0.930 . S
C2521 O2534 1.281 . S
C2521 O2535 1.254 . S
C2522 O2536 1.236 . S
C2522 O2537 1.266 . S
C2523 Tb2513 2.809 . S
C2523 C2524 1.514 . S
C2523 O2538 1.248 . S
C2523 O2539 1.266 . S
C2524 C2523 1.514 . S
C2524 C2525 1.359 . S
C2524 C2529 1.348 . S
C2525 C2524 1.359 . S
C2525 C2526 1.380 . S
C2525 H2548 0.929 . S
C2526 C2525 1.380 . S
C2526 C2527 1.347 . S
C2526 H2549 0.931 . S
C2527 C2526 1.347 . S
C2527 C2528 1.369 . S
C2528 C2527 1.369 . S
C2528 C2529 1.408 . S
C2528 H2550 0.930 . S
C2529 C2524 1.348 . S
C2529 C2528 1.408 . S
C2529 H2551 0.930 . S
C2530 O2540 1.281 . S
C2530 O2541 1.254 . S
C2531 O2542 1.236 . S
C2531 O2543 1.266 . S
O2532 Tb2512 2.484 1_655 S
O2532 C2514 1.248 . S
O2533 Tb2512 2.440 1_655 S
O2533 C2514 1.266 . S
O2534 Tb2512 2.658 . S
O2534 Tb2513 2.325 . S
O2534 C2521 1.281 . S
O2535 Tb2512 2.409 . S
O2535 C2521 1.254 . S
O2536 Tb2512 2.378 . S
O2536 C2522 1.236 . S
O2537 Tb2513 2.341 . S
O2537 C2522 1.266 . S
O2538 Tb2513 2.484 . S
O2538 C2523 1.248 . S
O2539 Tb2513 2.440 . S
O2539 C2523 1.266 . S
O2540 Tb2512 2.325 . S
O2540 Tb2513 2.658 . S
O2540 C2530 1.281 . S
O2541 Tb2513 2.409 . S
O2541 C2530 1.254 . S
O2542 Tb2513 2.378 . S
O2542 C2531 1.236 . S
O2543 Tb2512 2.341 . S
O2543 C2531 1.266 . S
H2544 C2516 0.929 . S
H2545 C2517 0.931 . S
H2546 C2519 0.930 . S
H2547 C2520 0.930 . S
H2548 C2525 0.929 . S
H2549 C2526 0.931 . S
H2550 C2528 0.930 . S
H2551 C2529 0.930 . S
Tb2552 C2554 2.809 . S
Tb2552 O2572 2.484 . S
Tb2552 O2573 2.440 . S
Tb2552 O2574 2.658 . S
Tb2552 O2575 2.409 . S
Tb2552 O2576 2.378 . S
Tb2552 O2580 2.325 . S
Tb2552 O2583 2.341 . S
Tb2553 C2563 2.809 . S
Tb2553 O2574 2.325 . S
Tb2553 O2577 2.341 . S
Tb2553 O2578 2.484 . S
Tb2553 O2579 2.440 . S
Tb2553 O2580 2.658 . S
Tb2553 O2581 2.409 . S
Tb2553 O2582 2.378 . S
C2554 Tb2552 2.809 . S
C2554 C2555 1.514 . S
C2554 O2572 1.248 . S
C2554 O2573 1.266 . S
C2555 C2554 1.514 . S
C2555 C2556 1.359 . S
C2555 C2560 1.348 . S
C2556 C2555 1.359 . S
C2556 C2557 1.380 . S
C2556 H2584 0.929 . S
C2557 C2556 1.380 . S
C2557 C2558 1.347 . S
C2557 H2585 0.931 . S
C2558 C2557 1.347 . S
C2558 C2559 1.369 . S
C2559 C2558 1.369 . S
C2559 C2560 1.408 . S
C2559 H2586 0.930 . S
C2560 C2555 1.348 . S
C2560 C2559 1.408 . S
C2560 H2587 0.930 . S
C2561 O2574 1.281 . S
C2561 O2575 1.254 . S
C2562 O2576 1.236 . S
C2562 O2577 1.266 . S
C2563 Tb2553 2.809 . S
C2563 C2564 1.514 . S
C2563 O2578 1.248 . S
C2563 O2579 1.266 . S
C2564 C2563 1.514 . S
C2564 C2565 1.359 . S
C2564 C2569 1.348 . S
C2565 C2564 1.359 . S
C2565 C2566 1.380 . S
C2565 H2588 0.929 . S
C2566 C2565 1.380 . S
C2566 C2567 1.347 . S
C2566 H2589 0.931 . S
C2567 C2566 1.347 . S
C2567 C2568 1.369 . S
C2568 C2567 1.369 . S
C2568 C2569 1.408 . S
C2568 H2590 0.930 . S
C2569 C2564 1.348 . S
C2569 C2568 1.408 . S
C2569 H2591 0.930 . S
C2570 O2580 1.281 . S
C2570 O2581 1.254 . S
C2571 O2582 1.236 . S
C2571 O2583 1.266 . S
O2572 Tb2552 2.484 . S
O2572 C2554 1.248 . S
O2573 Tb2552 2.440 . S
O2573 C2554 1.266 . S
O2574 Tb2552 2.658 . S
O2574 Tb2553 2.325 . S
O2574 C2561 1.281 . S
O2575 Tb2552 2.409 . S
O2575 C2561 1.254 . S
O2576 Tb2552 2.378 . S
O2576 C2562 1.236 . S
O2577 Tb2553 2.341 . S
O2577 C2562 1.266 . S
O2578 Tb2553 2.484 . S
O2578 C2563 1.248 . S
O2579 Tb2553 2.440 . S
O2579 C2563 1.266 . S
O2580 Tb2552 2.325 . S
O2580 Tb2553 2.658 . S
O2580 C2570 1.281 . S
O2581 Tb2553 2.409 . S
O2581 C2570 1.254 . S
O2582 Tb2553 2.378 . S
O2582 C2571 1.236 . S
O2583 Tb2552 2.341 . S
O2583 C2571 1.266 . S
H2584 C2556 0.929 . S
H2585 C2557 0.931 . S
H2586 C2559 0.930 . S
H2587 C2560 0.930 . S
H2588 C2565 0.929 . S
H2589 C2566 0.931 . S
H2590 C2568 0.930 . S
H2591 C2569 0.930 . S
Tb2592 C2594 2.809 . S
Tb2592 O2612 2.484 . S
Tb2592 O2613 2.440 . S
Tb2592 O2614 2.658 . S
Tb2592 O2615 2.409 . S
Tb2592 O2616 2.378 . S
Tb2592 O2620 2.325 . S
Tb2592 O2623 2.341 . S
Tb2593 C2603 2.809 . S
Tb2593 O2614 2.325 . S
Tb2593 O2617 2.341 . S
Tb2593 O2618 2.484 . S
Tb2593 O2619 2.440 . S
Tb2593 O2620 2.658 . S
Tb2593 O2621 2.409 . S
Tb2593 O2622 2.378 . S
C2594 Tb2592 2.809 . S
C2594 C2595 1.514 . S
C2594 O2612 1.248 . S
C2594 O2613 1.266 . S
C2595 C2594 1.514 . S
C2595 C2596 1.359 . S
C2595 C2600 1.348 . S
C2596 C2595 1.359 . S
C2596 C2597 1.380 . S
C2596 H2624 0.929 . S
C2597 C2596 1.380 . S
C2597 C2598 1.347 . S
C2597 H2625 0.931 . S
C2598 C2597 1.347 . S
C2598 C2599 1.369 . S
C2599 C2598 1.369 . S
C2599 C2600 1.408 . S
C2599 H2626 0.930 . S
C2600 C2595 1.348 . S
C2600 C2599 1.408 . S
C2600 H2627 0.930 . S
C2601 O2614 1.281 . S
C2601 O2615 1.254 . S
C2602 O2616 1.236 . S
C2602 O2617 1.266 . S
C2603 Tb2593 2.809 . S
C2603 C2604 1.514 . S
C2603 O2618 1.248 . S
C2603 O2619 1.266 . S
C2604 C2603 1.514 . S
C2604 C2605 1.359 . S
C2604 C2609 1.348 . S
C2605 C2604 1.359 . S
C2605 C2606 1.380 . S
C2605 H2628 0.929 . S
C2606 C2605 1.380 . S
C2606 C2607 1.347 . S
C2606 H2629 0.931 . S
C2607 C2606 1.347 . S
C2607 C2608 1.369 . S
C2608 C2607 1.369 . S
C2608 C2609 1.408 . S
C2608 H2630 0.930 . S
C2609 C2604 1.348 . S
C2609 C2608 1.408 . S
C2609 H2631 0.930 . S
C2610 O2620 1.281 . S
C2610 O2621 1.254 . S
C2611 O2622 1.236 . S
C2611 O2623 1.266 . S
O2612 Tb2592 2.484 . S
O2612 C2594 1.248 . S
O2613 Tb2592 2.440 . S
O2613 C2594 1.266 . S
O2614 Tb2592 2.658 . S
O2614 Tb2593 2.325 . S
O2614 C2601 1.281 . S
O2615 Tb2592 2.409 . S
O2615 C2601 1.254 . S
O2616 Tb2592 2.378 . S
O2616 C2602 1.236 . S
O2617 Tb2593 2.341 . S
O2617 C2602 1.266 . S
O2618 Tb2593 2.484 . S
O2618 C2603 1.248 . S
O2619 Tb2593 2.440 . S
O2619 C2603 1.266 . S
O2620 Tb2592 2.325 . S
O2620 Tb2593 2.658 . S
O2620 C2610 1.281 . S
O2621 Tb2593 2.409 . S
O2621 C2610 1.254 . S
O2622 Tb2593 2.378 . S
O2622 C2611 1.236 . S
O2623 Tb2592 2.341 . S
O2623 C2611 1.266 . S
H2624 C2596 0.929 . S
H2625 C2597 0.931 . S
H2626 C2599 0.930 . S
H2627 C2600 0.930 . S
H2628 C2605 0.929 . S
H2629 C2606 0.931 . S
H2630 C2608 0.930 . S
H2631 C2609 0.930 . S
Tb2632 C2634 2.809 . S
Tb2632 O2652 2.484 . S
Tb2632 O2653 2.440 . S
Tb2632 O2654 2.658 . S
Tb2632 O2655 2.409 . S
Tb2632 O2656 2.378 . S
Tb2632 O2660 2.325 . S
Tb2632 O2663 2.341 . S
Tb2633 C2643 2.809 . S
Tb2633 O2654 2.325 . S
Tb2633 O2657 2.341 . S
Tb2633 O2658 2.484 . S
Tb2633 O2659 2.440 . S
Tb2633 O2660 2.658 . S
Tb2633 O2661 2.409 . S
Tb2633 O2662 2.378 . S
C2634 Tb2632 2.809 . S
C2634 C2635 1.514 . S
C2634 O2652 1.248 . S
C2634 O2653 1.266 . S
C2635 C2634 1.514 . S
C2635 C2636 1.359 . S
C2635 C2640 1.348 . S
C2636 C2635 1.359 . S
C2636 C2637 1.380 . S
C2636 H2664 0.929 . S
C2637 C2636 1.380 . S
C2637 C2638 1.347 . S
C2637 H2665 0.931 . S
C2638 C2637 1.347 . S
C2638 C2639 1.369 . S
C2639 C2638 1.369 . S
C2639 C2640 1.408 . S
C2639 H2666 0.930 . S
C2640 C2635 1.348 . S
C2640 C2639 1.408 . S
C2640 H2667 0.930 . S
C2641 O2654 1.281 . S
C2641 O2655 1.254 . S
C2642 O2656 1.236 . S
C2642 O2657 1.266 . S
C2643 Tb2633 2.809 . S
C2643 C2644 1.514 . S
C2643 O2658 1.248 . S
C2643 O2659 1.266 . S
C2644 C2643 1.514 . S
C2644 C2645 1.359 . S
C2644 C2649 1.348 . S
C2645 C2644 1.359 . S
C2645 C2646 1.380 . S
C2645 H2668 0.929 . S
C2646 C2645 1.380 . S
C2646 C2647 1.347 . S
C2646 H2669 0.931 . S
C2647 C2646 1.347 . S
C2647 C2648 1.369 . S
C2648 C2647 1.369 . S
C2648 C2649 1.408 . S
C2648 H2670 0.930 . S
C2649 C2644 1.348 . S
C2649 C2648 1.408 . S
C2649 H2671 0.930 . S
C2650 O2660 1.281 . S
C2650 O2661 1.254 . S
C2651 O2662 1.236 . S
C2651 O2663 1.266 . S
O2652 Tb2632 2.484 . S
O2652 C2634 1.248 . S
O2653 Tb2632 2.440 . S
O2653 C2634 1.266 . S
O2654 Tb2632 2.658 . S
O2654 Tb2633 2.325 . S
O2654 C2641 1.281 . S
O2655 Tb2632 2.409 . S
O2655 C2641 1.254 . S
O2656 Tb2632 2.378 . S
O2656 C2642 1.236 . S
O2657 Tb2633 2.341 . S
O2657 C2642 1.266 . S
O2658 Tb2633 2.484 . S
O2658 C2643 1.248 . S
O2659 Tb2633 2.440 . S
O2659 C2643 1.266 . S
O2660 Tb2632 2.325 . S
O2660 Tb2633 2.658 . S
O2660 C2650 1.281 . S
O2661 Tb2633 2.409 . S
O2661 C2650 1.254 . S
O2662 Tb2633 2.378 . S
O2662 C2651 1.236 . S
O2663 Tb2632 2.341 . S
O2663 C2651 1.266 . S
H2664 C2636 0.929 . S
H2665 C2637 0.931 . S
H2666 C2639 0.930 . S
H2667 C2640 0.930 . S
H2668 C2645 0.929 . S
H2669 C2646 0.931 . S
H2670 C2648 0.930 . S
H2671 C2649 0.930 . S
Tb2672 C2674 2.809 . S
Tb2672 O2692 2.484 . S
Tb2672 O2693 2.440 . S
Tb2672 O2694 2.658 . S
Tb2672 O2695 2.409 . S
Tb2672 O2696 2.378 . S
Tb2672 O2700 2.325 . S
Tb2672 O2703 2.341 . S
Tb2673 C2683 2.809 . S
Tb2673 O2694 2.325 . S
Tb2673 O2697 2.341 . S
Tb2673 O2698 2.484 . S
Tb2673 O2699 2.440 . S
Tb2673 O2700 2.658 . S
Tb2673 O2701 2.409 . S
Tb2673 O2702 2.378 . S
C2674 Tb2672 2.809 . S
C2674 C2675 1.514 . S
C2674 O2692 1.248 . S
C2674 O2693 1.266 . S
C2675 C2674 1.514 . S
C2675 C2676 1.359 . S
C2675 C2680 1.348 . S
C2676 C2675 1.359 . S
C2676 C2677 1.380 . S
C2676 H2704 0.929 . S
C2677 C2676 1.380 . S
C2677 C2678 1.347 . S
C2677 H2705 0.931 . S
C2678 C2677 1.347 . S
C2678 C2679 1.369 . S
C2679 C2678 1.369 . S
C2679 C2680 1.408 . S
C2679 H2706 0.930 . S
C2680 C2675 1.348 . S
C2680 C2679 1.408 . S
C2680 H2707 0.930 . S
C2681 O2694 1.281 . S
C2681 O2695 1.254 . S
C2682 O2696 1.236 . S
C2682 O2697 1.266 . S
C2683 Tb2673 2.809 . S
C2683 C2684 1.514 . S
C2683 O2698 1.248 . S
C2683 O2699 1.266 . S
C2684 C2683 1.514 . S
C2684 C2685 1.359 . S
C2684 C2689 1.348 . S
C2685 C2684 1.359 . S
C2685 C2686 1.380 . S
C2685 H2708 0.929 . S
C2686 C2685 1.380 . S
C2686 C2687 1.347 . S
C2686 H2709 0.931 . S
C2687 C2686 1.347 . S
C2687 C2688 1.369 . S
C2688 C2687 1.369 . S
C2688 C2689 1.408 . S
C2688 H2710 0.930 . S
C2689 C2684 1.348 . S
C2689 C2688 1.408 . S
C2689 H2711 0.930 . S
C2690 O2700 1.281 . S
C2690 O2701 1.254 . S
C2691 O2702 1.236 . S
C2691 O2703 1.266 . S
O2692 Tb2672 2.484 . S
O2692 C2674 1.248 . S
O2693 Tb2672 2.440 . S
O2693 C2674 1.266 . S
O2694 Tb2672 2.658 . S
O2694 Tb2673 2.325 . S
O2694 C2681 1.281 . S
O2695 Tb2672 2.409 . S
O2695 C2681 1.254 . S
O2696 Tb2672 2.378 . S
O2696 C2682 1.236 . S
O2697 Tb2673 2.341 . S
O2697 C2682 1.266 . S
O2698 Tb2673 2.484 . S
O2698 C2683 1.248 . S
O2699 Tb2673 2.440 . S
O2699 C2683 1.266 . S
O2700 Tb2672 2.325 . S
O2700 Tb2673 2.658 . S
O2700 C2690 1.281 . S
O2701 Tb2673 2.409 . S
O2701 C2690 1.254 . S
O2702 Tb2673 2.378 . S
O2702 C2691 1.236 . S
O2703 Tb2672 2.341 . S
O2703 C2691 1.266 . S
H2704 C2676 0.929 . S
H2705 C2677 0.931 . S
H2706 C2679 0.930 . S
H2707 C2680 0.930 . S
H2708 C2685 0.929 . S
H2709 C2686 0.931 . S
H2710 C2688 0.930 . S
H2711 C2689 0.930 . S
Tb2712 C2714 2.809 . S
Tb2712 O2732 2.484 . S
Tb2712 O2733 2.454 . S
Tb2712 O2734 2.658 . S
Tb2712 O2735 2.409 1_554 S
Tb2712 O2736 2.378 . S
Tb2712 O2740 2.325 . S
Tb2712 O2743 2.341 . S
Tb2713 C2723 2.809 1_455 S
Tb2713 O2734 2.325 . S
Tb2713 O2737 2.341 . S
Tb2713 O2738 2.484 1_455 S
Tb2713 O2739 2.440 1_455 S
Tb2713 O2740 2.658 . S
Tb2713 O2741 2.409 . S
Tb2713 O2742 2.378 . S
C2714 Tb2712 2.809 . S
C2714 C2715 1.514 . S
C2714 O2732 1.248 . S
C2714 O2733 1.283 . S
C2715 C2714 1.514 . S
C2715 C2716 1.359 . S
C2715 C2720 1.348 1_554 S
C2716 C2715 1.359 . S
C2716 C2717 1.380 . S
C2716 H2744 0.929 . S
C2717 C2716 1.380 . S
C2717 C2718 1.347 . S
C2717 H2745 0.931 . S
C2718 C2717 1.347 . S
C2718 C2719 1.369 1_554 S
C2719 C2718 1.369 1_556 S
C2719 C2720 1.408 . S
C2719 H2746 0.930 . S
C2720 C2715 1.348 1_556 S
C2720 C2719 1.408 . S
C2720 H2747 0.930 . S
C2721 O2734 1.281 1_556 S
C2721 O2735 1.254 . S
C2722 O2736 1.236 . S
C2722 O2737 1.266 . S
C2723 Tb2713 2.809 1_655 S
C2723 C2724 1.514 . S
C2723 O2738 1.248 . S
C2723 O2739 1.266 . S
C2724 C2723 1.514 . S
C2724 C2725 1.359 . S
C2724 C2729 1.348 . S
C2725 C2724 1.359 . S
C2725 C2726 1.380 . S
C2725 H2748 0.929 . S
C2726 C2725 1.380 . S
C2726 C2727 1.347 . S
C2726 H2749 0.931 . S
C2727 C2726 1.347 . S
C2727 C2728 1.369 . S
C2728 C2727 1.369 . S
C2728 C2729 1.408 . S
C2728 H2750 0.930 . S
C2729 C2724 1.348 . S
C2729 C2728 1.408 . S
C2729 H2751 0.930 . S
C2730 O2740 1.281 . S
C2730 O2741 1.254 . S
C2731 O2742 1.236 . S
C2731 O2743 1.266 . S
O2732 Tb2712 2.484 . S
O2732 C2714 1.248 . S
O2733 Tb2712 2.454 . S
O2733 C2714 1.283 . S
O2734 Tb2712 2.658 . S
O2734 Tb2713 2.325 . S
O2734 C2721 1.281 1_554 S
O2735 Tb2712 2.409 1_556 S
O2735 C2721 1.254 . S
O2736 Tb2712 2.378 . S
O2736 C2722 1.236 . S
O2737 Tb2713 2.341 . S
O2737 C2722 1.266 . S
O2738 Tb2713 2.484 1_655 S
O2738 C2723 1.248 . S
O2739 Tb2713 2.440 1_655 S
O2739 C2723 1.266 . S
O2740 Tb2712 2.325 . S
O2740 Tb2713 2.658 . S
O2740 C2730 1.281 . S
O2741 Tb2713 2.409 . S
O2741 C2730 1.254 . S
O2742 Tb2713 2.378 . S
O2742 C2731 1.236 . S
O2743 Tb2712 2.341 . S
O2743 C2731 1.266 . S
H2744 C2716 0.929 . S
H2745 C2717 0.931 . S
H2746 C2719 0.930 . S
H2747 C2720 0.930 . S
H2748 C2725 0.929 . S
H2749 C2726 0.931 . S
H2750 C2728 0.930 . S
H2751 C2729 0.930 . S
H2752 C2764 0.930 . S
H2753 C2766 0.930 1_655 S
H2754 C2767 0.930 1_655 S
H2755 C2771 0.959 . S
H2756 C2771 0.959 . S
H2757 C2771 0.961 . S
H2758 C2772 0.960 . S
H2759 C2772 0.961 . S
H2760 C2772 0.959 . S
H2761 C2775 0.934 . S
H2762 C2776 0.931 . S
H2763 C2778 0.930 . S
C2764 H2752 0.930 . S
C2764 C2765 1.399 1_554 S
C2764 C2769 1.399 . S
C2765 C2764 1.399 1_556 S
C2765 C2766 1.376 . S
C2766 H2753 0.930 1_455 S
C2766 C2765 1.376 . S
C2766 C2767 1.388 . S
C2767 H2754 0.930 1_455 S
C2767 C2766 1.388 . S
C2767 C2768 1.390 . S
C2768 C2767 1.390 . S
C2768 C2769 1.394 1_556 S
C2768 C2774 1.464 1_556 S
C2769 C2764 1.399 . S
C2769 C2768 1.394 1_554 S
C2769 C2770 1.516 . S
C2770 C2769 1.516 . S
C2770 C2771 1.502 . S
C2770 C2772 1.561 . S
C2770 C2773 1.526 . S
C2771 H2755 0.959 . S
C2771 H2756 0.959 . S
C2771 H2757 0.961 . S
C2771 C2770 1.502 . S
C2772 H2758 0.960 . S
C2772 H2759 0.961 . S
C2772 H2760 0.959 . S
C2772 C2770 1.561 . S
C2773 C2770 1.526 . S
C2773 C2774 1.400 . S
C2773 C2778 1.390 . S
C2774 C2768 1.464 1_554 S
C2774 C2773 1.400 . S
C2774 C2775 1.397 1_554 S
C2775 H2761 0.934 . S
C2775 C2774 1.397 1_556 S
C2775 C2776 1.385 . S
C2776 H2762 0.931 . S
C2776 C2775 1.385 . S
C2776 C2777 1.389 1_556 S
C2777 C2776 1.389 1_554 S
C2777 C2778 1.387 . S
C2778 H2763 0.930 . S
C2778 C2773 1.390 . S
C2778 C2777 1.387 . S
H2779 C2791 0.930 . S
H2780 C2793 0.930 . S
H2781 C2794 0.930 . S
H2782 C2798 0.959 . S
H2783 C2798 0.959 . S
H2784 C2798 0.961 . S
H2785 C2799 0.960 . S
H2786 C2799 0.961 . S
H2787 C2799 0.959 . S
H2788 C2802 0.929 . S
H2789 C2803 0.931 . S
H2790 C2805 0.930 . S
C2791 H2779 0.930 . S
C2791 C2792 1.399 . S
C2791 C2796 1.399 . S
C2792 C2791 1.399 . S
C2792 C2793 1.376 . S
C2793 H2780 0.930 . S
C2793 C2792 1.376 . S
C2793 C2794 1.388 . S
C2794 H2781 0.930 . S
C2794 C2793 1.388 . S
C2794 C2795 1.390 . S
C2795 C2794 1.390 . S
C2795 C2796 1.394 . S
C2795 C2801 1.465 . S
C2796 C2791 1.399 . S
C2796 C2795 1.394 . S
C2796 C2797 1.516 . S
C2797 C2796 1.516 . S
C2797 C2798 1.502 . S
C2797 C2799 1.561 . S
C2797 C2800 1.526 . S
C2798 H2782 0.959 . S
C2798 H2783 0.959 . S
C2798 H2784 0.961 . S
C2798 C2797 1.502 . S
C2799 H2785 0.960 . S
C2799 H2786 0.961 . S
C2799 H2787 0.959 . S
C2799 C2797 1.561 . S
C2800 C2797 1.526 . S
C2800 C2801 1.396 . S
C2800 C2805 1.390 . S
C2801 C2795 1.465 . S
C2801 C2800 1.396 . S
C2801 C2802 1.399 . S
C2802 H2788 0.929 . S
C2802 C2801 1.399 . S
C2802 C2803 1.385 . S
C2803 H2789 0.931 . S
C2803 C2802 1.385 . S
C2803 C2804 1.389 . S
C2804 C2803 1.389 . S
C2804 C2805 1.387 . S
C2805 H2790 0.930 . S
C2805 C2800 1.390 . S
C2805 C2804 1.387 . S
H2806 C2818 0.930 . S
H2807 C2820 0.930 . S
H2808 C2821 0.930 . S
H2809 C2825 0.959 . S
H2810 C2825 0.959 . S
H2811 C2825 0.961 . S
H2812 C2826 0.960 . S
H2813 C2826 0.961 . S
H2814 C2826 0.959 . S
H2815 C2829 0.929 . S
H2816 C2830 0.931 . S
H2817 C2832 0.930 . S
C2818 H2806 0.930 . S
C2818 C2819 1.399 . S
C2818 C2823 1.399 . S
C2819 C2818 1.399 . S
C2819 C2820 1.376 . S
C2820 H2807 0.930 . S
C2820 C2819 1.376 . S
C2820 C2821 1.388 . S
C2821 H2808 0.930 . S
C2821 C2820 1.388 . S
C2821 C2822 1.390 . S
C2822 C2821 1.390 . S
C2822 C2823 1.394 . S
C2822 C2828 1.465 . S
C2823 C2818 1.399 . S
C2823 C2822 1.394 . S
C2823 C2824 1.516 . S
C2824 C2823 1.516 . S
C2824 C2825 1.502 . S
C2824 C2826 1.561 . S
C2824 C2827 1.526 . S
C2825 H2809 0.959 . S
C2825 H2810 0.959 . S
C2825 H2811 0.961 . S
C2825 C2824 1.502 . S
C2826 H2812 0.960 . S
C2826 H2813 0.961 . S
C2826 H2814 0.959 . S
C2826 C2824 1.561 . S
C2827 C2824 1.526 . S
C2827 C2828 1.396 . S
C2827 C2832 1.390 . S
C2828 C2822 1.465 . S
C2828 C2827 1.396 . S
C2828 C2829 1.399 . S
C2829 H2815 0.929 . S
C2829 C2828 1.399 . S
C2829 C2830 1.385 . S
C2830 H2816 0.931 . S
C2830 C2829 1.385 . S
C2830 C2831 1.389 . S
C2831 C2830 1.389 . S
C2831 C2832 1.387 . S
C2832 H2817 0.930 . S
C2832 C2827 1.390 . S
C2832 C2831 1.387 . S
H2833 C2845 0.930 . S
H2834 C2847 0.930 . S
H2835 C2848 0.930 . S
H2836 C2852 0.959 . S
H2837 C2852 0.959 . S
H2838 C2852 0.961 . S
H2839 C2853 0.960 . S
H2840 C2853 0.961 . S
H2841 C2853 0.959 . S
H2842 C2856 0.929 . S
H2843 C2857 0.931 . S
H2844 C2859 0.930 . S
C2845 H2833 0.930 . S
C2845 C2846 1.399 . S
C2845 C2850 1.399 . S
C2846 C2845 1.399 . S
C2846 C2847 1.376 . S
C2847 H2834 0.930 . S
C2847 C2846 1.376 . S
C2847 C2848 1.388 . S
C2848 H2835 0.930 . S
C2848 C2847 1.388 . S
C2848 C2849 1.390 . S
C2849 C2848 1.390 . S
C2849 C2850 1.394 . S
C2849 C2855 1.465 . S
C2850 C2845 1.399 . S
C2850 C2849 1.394 . S
C2850 C2851 1.516 . S
C2851 C2850 1.516 . S
C2851 C2852 1.502 . S
C2851 C2853 1.561 . S
C2851 C2854 1.526 . S
C2852 H2836 0.959 . S
C2852 H2837 0.959 . S
C2852 H2838 0.961 . S
C2852 C2851 1.502 . S
C2853 H2839 0.960 . S
C2853 H2840 0.961 . S
C2853 H2841 0.959 . S
C2853 C2851 1.561 . S
C2854 C2851 1.526 . S
C2854 C2855 1.396 . S
C2854 C2859 1.390 . S
C2855 C2849 1.465 . S
C2855 C2854 1.396 . S
C2855 C2856 1.399 . S
C2856 H2842 0.929 . S
C2856 C2855 1.399 . S
C2856 C2857 1.385 . S
C2857 H2843 0.931 . S
C2857 C2856 1.385 . S
C2857 C2858 1.389 . S
C2858 C2857 1.389 . S
C2858 C2859 1.387 . S
C2859 H2844 0.930 . S
C2859 C2854 1.390 . S
C2859 C2858 1.387 . S
H2860 C2872 0.930 . S
H2861 C2874 0.930 . S
H2862 C2875 0.930 . S
H2863 C2879 0.959 . S
H2864 C2879 0.959 . S
H2865 C2879 0.961 . S
H2866 C2880 0.960 . S
H2867 C2880 0.961 . S
H2868 C2880 0.959 . S
H2869 C2883 0.929 . S
H2870 C2884 0.931 . S
H2871 C2886 0.930 . S
C2872 H2860 0.930 . S
C2872 C2873 1.399 . S
C2872 C2877 1.399 . S
C2873 C2872 1.399 . S
C2873 C2874 1.376 . S
C2874 H2861 0.930 . S
C2874 C2873 1.376 . S
C2874 C2875 1.388 . S
C2875 H2862 0.930 . S
C2875 C2874 1.388 . S
C2875 C2876 1.390 . S
C2876 C2875 1.390 . S
C2876 C2877 1.394 . S
C2876 C2882 1.465 . S
C2877 C2872 1.399 . S
C2877 C2876 1.394 . S
C2877 C2878 1.516 . S
C2878 C2877 1.516 . S
C2878 C2879 1.502 . S
C2878 C2880 1.561 . S
C2878 C2881 1.526 . S
C2879 H2863 0.959 . S
C2879 H2864 0.959 . S
C2879 H2865 0.961 . S
C2879 C2878 1.502 . S
C2880 H2866 0.960 . S
C2880 H2867 0.961 . S
C2880 H2868 0.959 . S
C2880 C2878 1.561 . S
C2881 C2878 1.526 . S
C2881 C2882 1.396 . S
C2881 C2886 1.390 . S
C2882 C2876 1.465 . S
C2882 C2881 1.396 . S
C2882 C2883 1.399 . S
C2883 H2869 0.929 . S
C2883 C2882 1.399 . S
C2883 C2884 1.385 . S
C2884 H2870 0.931 . S
C2884 C2883 1.385 . S
C2884 C2885 1.389 . S
C2885 C2884 1.389 . S
C2885 C2886 1.387 . S
C2886 H2871 0.930 . S
C2886 C2881 1.390 . S
C2886 C2885 1.387 . S
H2887 C2899 0.930 . S
H2888 C2901 0.930 . S
H2889 C2902 0.930 . S
H2890 C2906 0.959 . S
H2891 C2906 0.959 . S
H2892 C2906 0.961 . S
H2893 C2907 0.960 . S
H2894 C2907 0.961 . S
H2895 C2907 0.959 . S
H2896 C2910 0.929 . S
H2897 C2911 0.931 . S
H2898 C2913 0.930 . S
C2899 H2887 0.930 . S
C2899 C2900 1.399 . S
C2899 C2904 1.399 . S
C2900 C2899 1.399 . S
C2900 C2901 1.376 . S
C2901 H2888 0.930 . S
C2901 C2900 1.376 . S
C2901 C2902 1.388 . S
C2902 H2889 0.930 . S
C2902 C2901 1.388 . S
C2902 C2903 1.390 . S
C2903 C2902 1.390 . S
C2903 C2904 1.394 . S
C2903 C2909 1.465 . S
C2904 C2899 1.399 . S
C2904 C2903 1.394 . S
C2904 C2905 1.516 . S
C2905 C2904 1.516 . S
C2905 C2906 1.502 . S
C2905 C2907 1.561 . S
C2905 C2908 1.526 . S
C2906 H2890 0.959 . S
C2906 H2891 0.959 . S
C2906 H2892 0.961 . S
C2906 C2905 1.502 . S
C2907 H2893 0.960 . S
C2907 H2894 0.961 . S
C2907 H2895 0.959 . S
C2907 C2905 1.561 . S
C2908 C2905 1.526 . S
C2908 C2909 1.396 . S
C2908 C2913 1.390 . S
C2909 C2903 1.465 . S
C2909 C2908 1.396 . S
C2909 C2910 1.399 . S
C2910 H2896 0.929 . S
C2910 C2909 1.399 . S
C2910 C2911 1.385 . S
C2911 H2897 0.931 . S
C2911 C2910 1.385 . S
C2911 C2912 1.389 . S
C2912 C2911 1.389 . S
C2912 C2913 1.387 . S
C2913 H2898 0.930 . S
C2913 C2908 1.390 . S
C2913 C2912 1.387 . S
H2914 C2926 0.930 . S
H2915 C2928 0.930 . S
H2916 C2929 0.930 . S
H2917 C2933 0.959 . S
H2918 C2933 0.959 . S
H2919 C2933 0.961 . S
H2920 C2934 0.960 . S
H2921 C2934 0.961 . S
H2922 C2934 0.959 . S
H2923 C2937 0.929 . S
H2924 C2938 0.931 . S
H2925 C2940 0.930 . S
C2926 H2914 0.930 . S
C2926 C2927 1.399 . S
C2926 C2931 1.399 . S
C2927 C2926 1.399 . S
C2927 C2928 1.376 . S
C2928 H2915 0.930 . S
C2928 C2927 1.376 . S
C2928 C2929 1.388 . S
C2929 H2916 0.930 . S
C2929 C2928 1.388 . S
C2929 C2930 1.390 . S
C2930 C2929 1.390 . S
C2930 C2931 1.394 . S
C2930 C2936 1.465 . S
C2931 C2926 1.399 . S
C2931 C2930 1.394 . S
C2931 C2932 1.516 . S
C2932 C2931 1.516 . S
C2932 C2933 1.502 . S
C2932 C2934 1.561 . S
C2932 C2935 1.526 . S
C2933 H2917 0.959 . S
C2933 H2918 0.959 . S
C2933 H2919 0.961 . S
C2933 C2932 1.502 . S
C2934 H2920 0.960 . S
C2934 H2921 0.961 . S
C2934 H2922 0.959 . S
C2934 C2932 1.561 . S
C2935 C2932 1.526 . S
C2935 C2936 1.396 . S
C2935 C2940 1.390 . S
C2936 C2930 1.465 . S
C2936 C2935 1.396 . S
C2936 C2937 1.399 . S
C2937 H2923 0.929 . S
C2937 C2936 1.399 . S
C2937 C2938 1.385 . S
C2938 H2924 0.931 . S
C2938 C2937 1.385 . S
C2938 C2939 1.389 . S
C2939 C2938 1.389 . S
C2939 C2940 1.387 . S
C2940 H2925 0.930 . S
C2940 C2935 1.390 . S
C2940 C2939 1.387 . S
H2941 C2953 0.930 . S
H2942 C2955 0.930 . S
H2943 C2956 0.930 . S
H2944 C2960 0.959 . S
H2945 C2960 0.959 . S
H2946 C2960 0.961 . S
H2947 C2961 0.960 . S
H2948 C2961 0.961 . S
H2949 C2961 0.959 . S
H2950 C2964 0.929 . S
H2951 C2965 0.931 . S
H2952 C2967 0.930 . S
C2953 H2941 0.930 . S
C2953 C2954 1.399 . S
C2953 C2958 1.399 . S
C2954 C2953 1.399 . S
C2954 C2955 1.376 . S
C2955 H2942 0.930 . S
C2955 C2954 1.376 . S
C2955 C2956 1.388 . S
C2956 H2943 0.930 . S
C2956 C2955 1.388 . S
C2956 C2957 1.390 . S
C2957 C2956 1.390 . S
C2957 C2958 1.394 . S
C2957 C2963 1.465 . S
C2958 C2953 1.399 . S
C2958 C2957 1.394 . S
C2958 C2959 1.516 . S
C2959 C2958 1.516 . S
C2959 C2960 1.502 . S
C2959 C2961 1.561 . S
C2959 C2962 1.526 . S
C2960 H2944 0.959 . S
C2960 H2945 0.959 . S
C2960 H2946 0.961 . S
C2960 C2959 1.502 . S
C2961 H2947 0.960 . S
C2961 H2948 0.961 . S
C2961 H2949 0.959 . S
C2961 C2959 1.561 . S
C2962 C2959 1.526 . S
C2962 C2963 1.396 . S
C2962 C2967 1.390 . S
C2963 C2957 1.465 . S
C2963 C2962 1.396 . S
C2963 C2964 1.399 . S
C2964 H2950 0.929 . S
C2964 C2963 1.399 . S
C2964 C2965 1.385 . S
C2965 H2951 0.931 . S
C2965 C2964 1.385 . S
C2965 C2966 1.389 . S
C2966 C2965 1.389 . S
C2966 C2967 1.387 . S
C2967 H2952 0.930 . S
C2967 C2962 1.390 . S
C2967 C2966 1.387 . S
H2968 C2980 0.930 . S
H2969 C2982 0.930 . S
H2970 C2983 0.930 . S
H2971 C2987 0.959 . S
H2972 C2987 0.959 . S
H2973 C2987 0.961 . S
H2974 C2988 0.960 . S
H2975 C2988 0.961 . S
H2976 C2988 0.959 . S
H2977 C2991 0.929 . S
H2978 C2992 0.922 1_565 S
H2979 C2994 0.930 . S
C2980 H2968 0.930 . S
C2980 C2981 1.399 . S
C2980 C2985 1.399 . S
C2981 C2980 1.399 . S
C2981 C2982 1.376 1_545 S
C2982 H2969 0.930 . S
C2982 C2981 1.376 1_565 S
C2982 C2983 1.388 1_655 S
C2983 H2970 0.930 . S
C2983 C2982 1.388 1_455 S
C2983 C2984 1.390 1_565 S
C2984 C2983 1.390 1_545 S
C2984 C2985 1.394 1_455 S
C2984 C2990 1.465 . S
C2985 C2980 1.399 . S
C2985 C2984 1.394 1_655 S
C2985 C2986 1.516 . S
C2986 C2985 1.516 . S
C2986 C2987 1.502 . S
C2986 C2988 1.561 1_655 S
C2986 C2989 1.526 1_655 S
C2987 H2971 0.959 . S
C2987 H2972 0.959 . S
C2987 H2973 0.961 . S
C2987 C2986 1.502 . S
C2988 H2974 0.960 . S
C2988 H2975 0.961 . S
C2988 H2976 0.959 . S
C2988 C2986 1.561 1_455 S
C2989 C2986 1.526 1_455 S
C2989 C2990 1.396 . S
C2989 C2994 1.390 . S
C2990 C2984 1.465 . S
C2990 C2989 1.396 . S
C2990 C2991 1.399 1_545 S
C2991 H2977 0.929 . S
C2991 C2990 1.399 1_565 S
C2991 C2992 1.380 1_565 S
C2992 H2978 0.922 1_545 S
C2992 C2991 1.380 1_545 S
C2992 C2993 1.403 . S
C2993 C2992 1.403 . S
C2993 C2994 1.387 . S
C2994 H2979 0.930 . S
C2994 C2989 1.390 . S
C2994 C2993 1.387 . S
H2995 C3007 0.930 . S
H2996 C3009 0.930 . S
H2997 C3010 0.930 . S
H2998 C3014 0.959 . S
H2999 C3014 0.959 . S
H3000 C3014 0.961 . S
H3001 C3015 0.960 . S
H3002 C3015 0.961 . S
H3003 C3015 0.959 . S
H3004 C3018 0.929 . S
H3005 C3019 0.931 . S
H3006 C3021 0.930 . S
C3007 H2995 0.930 . S
C3007 C3008 1.399 . S
C3007 C3012 1.399 . S
C3008 C3007 1.399 . S
C3008 C3009 1.376 . S
C3009 H2996 0.930 . S
C3009 C3008 1.376 . S
C3009 C3010 1.388 . S
C3010 H2997 0.930 . S
C3010 C3009 1.388 . S
C3010 C3011 1.390 . S
C3011 C3010 1.390 . S
C3011 C3012 1.394 . S
C3011 C3017 1.465 . S
C3012 C3007 1.399 . S
C3012 C3011 1.394 . S
C3012 C3013 1.516 . S
C3013 C3012 1.516 . S
C3013 C3014 1.502 . S
C3013 C3015 1.561 . S
C3013 C3016 1.526 . S
C3014 H2998 0.959 . S
C3014 H2999 0.959 . S
C3014 H3000 0.961 . S
C3014 C3013 1.502 . S
C3015 H3001 0.960 . S
C3015 H3002 0.961 . S
C3015 H3003 0.959 . S
C3015 C3013 1.561 . S
C3016 C3013 1.526 . S
C3016 C3017 1.396 . S
C3016 C3021 1.390 . S
C3017 C3011 1.465 . S
C3017 C3016 1.396 . S
C3017 C3018 1.399 . S
C3018 H3004 0.929 . S
C3018 C3017 1.399 . S
C3018 C3019 1.385 . S
C3019 H3005 0.931 . S
C3019 C3018 1.385 . S
C3019 C3020 1.389 . S
C3020 C3019 1.389 . S
C3020 C3021 1.387 . S
C3021 H3006 0.930 . S
C3021 C3016 1.390 . S
C3021 C3020 1.387 . S
H3022 C3034 0.930 . S
H3023 C3036 0.930 . S
H3024 C3037 0.930 . S
H3025 C3041 0.959 . S
H3026 C3041 0.959 . S
H3027 C3041 0.961 . S
H3028 C3042 0.960 . S
H3029 C3042 0.961 . S
H3030 C3042 0.959 . S
H3031 C3045 0.929 . S
H3032 C3046 0.931 . S
H3033 C3048 0.930 . S
C3034 H3022 0.930 . S
C3034 C3035 1.400 1_545 S
C3034 C3039 1.399 . S
C3035 C3034 1.400 1_565 S
C3035 C3036 1.376 . S
C3036 H3023 0.930 . S
C3036 C3035 1.376 . S
C3036 C3037 1.388 . S
C3037 H3024 0.930 . S
C3037 C3036 1.388 . S
C3037 C3038 1.390 . S
C3038 C3037 1.390 . S
C3038 C3039 1.394 1_565 S
C3038 C3044 1.463 1_565 S
C3039 C3034 1.399 . S
C3039 C3038 1.394 1_545 S
C3039 C3040 1.516 . S
C3040 C3039 1.516 . S
C3040 C3041 1.502 . S
C3040 C3042 1.561 . S
C3040 C3043 1.526 . S
C3041 H3025 0.959 . S
C3041 H3026 0.959 . S
C3041 H3027 0.961 . S
C3041 C3040 1.502 . S
C3042 H3028 0.960 . S
C3042 H3029 0.961 . S
C3042 H3030 0.959 . S
C3042 C3040 1.561 . S
C3043 C3040 1.526 . S
C3043 C3044 1.402 . S
C3043 C3048 1.390 . S
C3044 C3038 1.463 1_545 S
C3044 C3043 1.402 . S
C3044 C3045 1.396 1_545 S
C3045 H3031 0.929 . S
C3045 C3044 1.396 1_565 S
C3045 C3046 1.385 . S
C3046 H3032 0.931 . S
C3046 C3045 1.385 . S
C3046 C3047 1.389 1_565 S
C3047 C3046 1.389 1_545 S
C3047 C3048 1.387 . S
C3048 H3033 0.930 . S
C3048 C3043 1.390 . S
C3048 C3047 1.387 . S
H3049 C3061 0.930 . S
H3050 C3063 0.930 . S
H3051 C3064 0.930 . S
H3052 C3068 0.959 . S
H3053 C3068 0.959 . S
H3054 C3068 0.961 . S
H3055 C3069 0.960 . S
H3056 C3069 0.961 . S
H3057 C3069 0.959 . S
H3058 C3072 0.929 . S
H3059 C3073 0.931 . S
H3060 C3075 0.930 . S
C3061 H3049 0.930 . S
C3061 C3062 1.399 . S
C3061 C3066 1.399 . S
C3062 C3061 1.399 . S
C3062 C3063 1.376 . S
C3063 H3050 0.930 . S
C3063 C3062 1.376 . S
C3063 C3064 1.388 . S
C3064 H3051 0.930 . S
C3064 C3063 1.388 . S
C3064 C3065 1.390 . S
C3065 C3064 1.390 . S
C3065 C3066 1.394 . S
C3065 C3071 1.465 . S
C3066 C3061 1.399 . S
C3066 C3065 1.394 . S
C3066 C3067 1.516 . S
C3067 C3066 1.516 . S
C3067 C3068 1.502 . S
C3067 C3069 1.561 . S
C3067 C3070 1.526 . S
C3068 H3052 0.959 . S
C3068 H3053 0.959 . S
C3068 H3054 0.961 . S
C3068 C3067 1.502 . S
C3069 H3055 0.960 . S
C3069 H3056 0.961 . S
C3069 H3057 0.959 . S
C3069 C3067 1.561 . S
C3070 C3067 1.526 . S
C3070 C3071 1.396 . S
C3070 C3075 1.390 . S
C3071 C3065 1.465 . S
C3071 C3070 1.396 . S
C3071 C3072 1.399 . S
C3072 H3058 0.929 . S
C3072 C3071 1.399 . S
C3072 C3073 1.385 . S
C3073 H3059 0.931 . S
C3073 C3072 1.385 . S
C3073 C3074 1.389 . S
C3074 C3073 1.389 . S
C3074 C3075 1.387 . S
C3075 H3060 0.930 . S
C3075 C3070 1.390 . S
C3075 C3074 1.387 . S
H3076 C3088 0.930 1_565 S
H3077 C3090 0.930 . S
H3078 C3091 0.930 . S
H3079 C3095 0.959 . S
H3080 C3095 0.959 . S
H3081 C3095 0.961 . S
H3082 C3096 0.968 . S
H3083 C3096 0.961 . S
H3084 C3096 0.959 . S
H3085 C3099 0.929 . S
H3086 C3100 0.931 . S
H3087 C3102 0.937 1_565 S
C3088 H3076 0.930 1_545 S
C3088 C3089 1.399 . S
C3088 C3093 1.399 . S
C3089 C3088 1.399 . S
C3089 C3090 1.376 1_655 S
C3090 H3077 0.930 . S
C3090 C3089 1.376 1_455 S
C3090 C3091 1.388 . S
C3091 H3078 0.930 . S
C3091 C3090 1.388 . S
C3091 C3092 1.390 . S
C3092 C3091 1.390 . S
C3092 C3093 1.394 1_455 S
C3092 C3098 1.465 . S
C3093 C3088 1.399 . S
C3093 C3092 1.394 1_655 S
C3093 C3094 1.516 1_545 S
C3094 C3093 1.516 1_565 S
C3094 C3095 1.502 . S
C3094 C3096 1.561 1_655 S
C3094 C3097 1.526 1_665 S
C3095 H3079 0.959 . S
C3095 H3080 0.959 . S
C3095 H3081 0.961 . S
C3095 C3094 1.502 . S
C3096 H3082 0.968 . S
C3096 H3083 0.961 . S
C3096 H3084 0.959 . S
C3096 C3094 1.561 1_455 S
C3097 C3094 1.526 1_445 S
C3097 C3098 1.396 . S
C3097 C3102 1.390 . S
C3098 C3092 1.465 . S
C3098 C3097 1.396 . S
C3098 C3099 1.399 . S
C3099 H3085 0.929 . S
C3099 C3098 1.399 . S
C3099 C3100 1.385 . S
C3100 H3086 0.931 . S
C3100 C3099 1.385 . S
C3100 C3101 1.389 . S
C3101 C3100 1.389 . S
C3101 C3102 1.387 . S
C3102 H3087 0.937 1_545 S
C3102 C3097 1.390 . S
C3102 C3101 1.387 . S
H3103 C3115 0.930 . S
H3104 C3117 0.930 . S
H3105 C3118 0.930 . S
H3106 C3122 0.959 . S
H3107 C3122 0.959 . S
H3108 C3122 0.961 . S
H3109 C3123 0.960 . S
H3110 C3123 0.961 . S
H3111 C3123 0.959 . S
H3112 C3126 0.929 . S
H3113 C3127 0.931 . S
H3114 C3129 0.930 . S
C3115 H3103 0.930 . S
C3115 C3116 1.399 . S
C3115 C3120 1.399 . S
C3116 C3115 1.399 . S
C3116 C3117 1.376 . S
C3117 H3104 0.930 . S
C3117 C3116 1.376 . S
C3117 C3118 1.388 . S
C3118 H3105 0.930 . S
C3118 C3117 1.388 . S
C3118 C3119 1.390 . S
C3119 C3118 1.390 . S
C3119 C3120 1.394 . S
C3119 C3125 1.465 . S
C3120 C3115 1.399 . S
C3120 C3119 1.394 . S
C3120 C3121 1.516 . S
C3121 C3120 1.516 . S
C3121 C3122 1.502 . S
C3121 C3123 1.561 . S
C3121 C3124 1.526 . S
C3122 H3106 0.959 . S
C3122 H3107 0.959 . S
C3122 H3108 0.961 . S
C3122 C3121 1.502 . S
C3123 H3109 0.960 . S
C3123 H3110 0.961 . S
C3123 H3111 0.959 . S
C3123 C3121 1.561 . S
C3124 C3121 1.526 . S
C3124 C3125 1.396 . S
C3124 C3129 1.390 . S
C3125 C3119 1.465 . S
C3125 C3124 1.396 . S
C3125 C3126 1.399 . S
C3126 H3112 0.929 . S
C3126 C3125 1.399 . S
C3126 C3127 1.385 . S
C3127 H3113 0.931 . S
C3127 C3126 1.385 . S
C3127 C3128 1.389 . S
C3128 C3127 1.389 . S
C3128 C3129 1.387 . S
C3129 H3114 0.930 . S
C3129 C3124 1.390 . S
C3129 C3128 1.387 . S
H3130 C3142 0.930 . S
H3131 C3144 0.930 . S
H3132 C3145 0.930 . S
H3133 C3149 0.959 . S
H3134 C3149 0.959 . S
H3135 C3149 0.961 . S
H3136 C3150 0.960 . S
H3137 C3150 0.961 . S
H3138 C3150 0.959 . S
H3139 C3153 0.929 . S
H3140 C3154 0.931 . S
H3141 C3156 0.930 . S
C3142 H3130 0.930 . S
C3142 C3143 1.399 . S
C3142 C3147 1.399 . S
C3143 C3142 1.399 . S
C3143 C3144 1.376 . S
C3144 H3131 0.930 . S
C3144 C3143 1.376 . S
C3144 C3145 1.388 . S
C3145 H3132 0.930 . S
C3145 C3144 1.388 . S
C3145 C3146 1.390 . S
C3146 C3145 1.390 . S
C3146 C3147 1.394 . S
C3146 C3152 1.465 . S
C3147 C3142 1.399 . S
C3147 C3146 1.394 . S
C3147 C3148 1.516 . S
C3148 C3147 1.516 . S
C3148 C3149 1.502 . S
C3148 C3150 1.561 1_545 S
C3148 C3151 1.526 . S
C3149 H3133 0.959 . S
C3149 H3134 0.959 . S
C3149 H3135 0.961 . S
C3149 C3148 1.502 . S
C3150 H3136 0.960 . S
C3150 H3137 0.961 . S
C3150 H3138 0.959 . S
C3150 C3148 1.561 1_565 S
C3151 C3148 1.526 . S
C3151 C3152 1.396 . S
C3151 C3156 1.390 . S
C3152 C3146 1.465 . S
C3152 C3151 1.396 . S
C3152 C3153 1.399 . S
C3153 H3139 0.929 . S
C3153 C3152 1.399 . S
C3153 C3154 1.385 . S
C3154 H3140 0.931 . S
C3154 C3153 1.385 . S
C3154 C3155 1.389 . S
C3155 C3154 1.389 . S
C3155 C3156 1.387 . S
C3156 H3141 0.930 . S
C3156 C3151 1.390 . S
C3156 C3155 1.387 . S
H3157 C3169 0.930 . S
H3158 C3171 0.930 . S
H3159 C3172 0.930 . S
H3160 C3176 0.959 . S
H3161 C3176 0.959 . S
H3162 C3176 0.961 . S
H3163 C3177 0.960 . S
H3164 C3177 0.961 . S
H3165 C3177 0.959 . S
H3166 C3180 0.929 . S
H3167 C3181 0.931 . S
H3168 C3183 0.930 . S
C3169 H3157 0.930 . S
C3169 C3170 1.399 . S
C3169 C3174 1.399 . S
C3170 C3169 1.399 . S
C3170 C3171 1.376 . S
C3171 H3158 0.930 . S
C3171 C3170 1.376 . S
C3171 C3172 1.388 . S
C3172 H3159 0.930 . S
C3172 C3171 1.388 . S
C3172 C3173 1.390 . S
C3173 C3172 1.390 . S
C3173 C3174 1.394 . S
C3173 C3179 1.465 . S
C3174 C3169 1.399 . S
C3174 C3173 1.394 . S
C3174 C3175 1.516 . S
C3175 C3174 1.516 . S
C3175 C3176 1.502 . S
C3175 C3177 1.561 . S
C3175 C3178 1.526 . S
C3176 H3160 0.959 . S
C3176 H3161 0.959 . S
C3176 H3162 0.961 . S
C3176 C3175 1.502 . S
C3177 H3163 0.960 . S
C3177 H3164 0.961 . S
C3177 H3165 0.959 . S
C3177 C3175 1.561 . S
C3178 C3175 1.526 . S
C3178 C3179 1.396 . S
C3178 C3183 1.390 . S
C3179 C3173 1.465 . S
C3179 C3178 1.396 . S
C3179 C3180 1.399 . S
C3180 H3166 0.929 . S
C3180 C3179 1.399 . S
C3180 C3181 1.385 . S
C3181 H3167 0.931 . S
C3181 C3180 1.385 . S
C3181 C3182 1.389 . S
C3182 C3181 1.389 . S
C3182 C3183 1.387 . S
C3183 H3168 0.930 . S
C3183 C3178 1.390 . S
C3183 C3182 1.387 . S
H3184 C3196 0.930 . S
H3185 C3198 0.930 . S
H3186 C3199 0.930 1_556 S
H3187 C3203 0.959 . S
H3188 C3203 0.959 . S
H3189 C3203 0.961 . S
H3190 C3204 0.960 . S
H3191 C3204 0.961 . S
H3192 C3204 0.959 . S
H3193 C3207 0.929 . S
H3194 C3208 0.931 . S
H3195 C3210 0.930 . S
C3196 H3184 0.930 . S
C3196 C3197 1.399 . S
C3196 C3201 1.399 . S
C3197 C3196 1.399 . S
C3197 C3198 1.376 1_554 S
C3198 H3185 0.930 . S
C3198 C3197 1.376 1_556 S
C3198 C3199 1.388 1_556 S
C3199 H3186 0.930 1_554 S
C3199 C3198 1.388 1_554 S
C3199 C3200 1.390 . S
C3200 C3199 1.390 . S
C3200 C3201 1.394 . S
C3200 C3206 1.465 . S
C3201 C3196 1.399 . S
C3201 C3200 1.394 . S
C3201 C3202 1.516 . S
C3202 C3201 1.516 . S
C3202 C3203 1.502 . S
C3202 C3204 1.561 . S
C3202 C3205 1.526 . S
C3203 H3187 0.959 . S
C3203 H3188 0.959 . S
C3203 H3189 0.961 . S
C3203 C3202 1.502 . S
C3204 H3190 0.960 . S
C3204 H3191 0.961 . S
C3204 H3192 0.959 . S
C3204 C3202 1.561 . S
C3205 C3202 1.526 . S
C3205 C3206 1.396 . S
C3205 C3210 1.390 . S
C3206 C3200 1.465 . S
C3206 C3205 1.396 . S
C3206 C3207 1.399 . S
C3207 H3193 0.929 . S
C3207 C3206 1.399 . S
C3207 C3208 1.385 . S
C3208 H3194 0.931 . S
C3208 C3207 1.385 . S
C3208 C3209 1.389 . S
C3209 C3208 1.389 . S
C3209 C3210 1.387 . S
C3210 H3195 0.930 . S
C3210 C3205 1.390 . S
C3210 C3209 1.387 . S
H3211 C3223 0.930 . S
H3212 C3225 0.930 . S
H3213 C3226 0.930 . S
H3214 C3230 0.959 . S
H3215 C3230 0.959 . S
H3216 C3230 0.961 . S
H3217 C3231 0.960 . S
H3218 C3231 0.961 . S
H3219 C3231 0.959 . S
H3220 C3234 0.929 . S
H3221 C3235 0.931 1_556 S
H3222 C3237 0.930 . S
C3223 H3211 0.930 . S
C3223 C3224 1.399 . S
C3223 C3228 1.399 . S
C3224 C3223 1.399 . S
C3224 C3225 1.376 1_554 S
C3225 H3212 0.930 . S
C3225 C3224 1.376 1_556 S
C3225 C3226 1.388 . S
C3226 H3213 0.930 . S
C3226 C3225 1.388 . S
C3226 C3227 1.390 1_556 S
C3227 C3226 1.390 1_554 S
C3227 C3228 1.394 . S
C3227 C3233 1.465 . S
C3228 C3223 1.399 . S
C3228 C3227 1.394 . S
C3228 C3229 1.516 . S
C3229 C3228 1.516 . S
C3229 C3230 1.502 . S
C3229 C3231 1.561 . S
C3229 C3232 1.526 . S
C3230 H3214 0.959 . S
C3230 H3215 0.959 . S
C3230 H3216 0.961 . S
C3230 C3229 1.502 . S
C3231 H3217 0.960 . S
C3231 H3218 0.961 . S
C3231 H3219 0.959 . S
C3231 C3229 1.561 . S
C3232 C3229 1.526 . S
C3232 C3233 1.396 . S
C3232 C3237 1.390 . S
C3233 C3227 1.465 . S
C3233 C3232 1.396 . S
C3233 C3234 1.399 1_554 S
C3234 H3220 0.929 . S
C3234 C3233 1.399 1_556 S
C3234 C3235 1.385 1_556 S
C3235 H3221 0.931 1_554 S
C3235 C3234 1.385 1_554 S
C3235 C3236 1.389 . S
C3236 C3235 1.389 . S
C3236 C3237 1.387 . S
C3237 H3222 0.930 . S
C3237 C3232 1.390 . S
C3237 C3236 1.387 . S
H3238 C3250 0.930 . S
H3239 C3252 0.930 . S
H3240 C3253 0.930 . S
H3241 C3257 0.959 . S
H3242 C3257 0.959 . S
H3243 C3257 0.961 . S
H3244 C3258 0.960 . S
H3245 C3258 0.961 . S
H3246 C3258 0.959 . S
H3247 C3261 0.929 . S
H3248 C3262 0.931 . S
H3249 C3264 0.930 . S
C3250 H3238 0.930 . S
C3250 C3251 1.399 . S
C3250 C3255 1.399 . S
C3251 C3250 1.399 . S
C3251 C3252 1.376 . S
C3252 H3239 0.930 . S
C3252 C3251 1.376 . S
C3252 C3253 1.388 . S
C3253 H3240 0.930 . S
C3253 C3252 1.388 . S
C3253 C3254 1.390 . S
C3254 C3253 1.390 . S
C3254 C3255 1.394 . S
C3254 C3260 1.465 . S
C3255 C3250 1.399 . S
C3255 C3254 1.394 . S
C3255 C3256 1.516 . S
C3256 C3255 1.516 . S
C3256 C3257 1.502 . S
C3256 C3258 1.561 . S
C3256 C3259 1.526 . S
C3257 H3241 0.959 . S
C3257 H3242 0.959 . S
C3257 H3243 0.961 . S
C3257 C3256 1.502 . S
C3258 H3244 0.960 . S
C3258 H3245 0.961 . S
C3258 H3246 0.959 . S
C3258 C3256 1.561 . S
C3259 C3256 1.526 . S
C3259 C3260 1.396 . S
C3259 C3264 1.390 . S
C3260 C3254 1.465 . S
C3260 C3259 1.396 . S
C3260 C3261 1.399 . S
C3261 H3247 0.929 . S
C3261 C3260 1.399 . S
C3261 C3262 1.385 . S
C3262 H3248 0.931 . S
C3262 C3261 1.385 . S
C3262 C3263 1.389 . S
C3263 C3262 1.389 . S
C3263 C3264 1.387 . S
C3264 H3249 0.930 . S
C3264 C3259 1.390 . S
C3264 C3263 1.387 . S
H3265 C3277 0.930 . S
H3266 C3279 0.930 . S
H3267 C3280 0.930 . S
H3268 C3284 0.959 . S
H3269 C3284 0.959 . S
H3270 C3284 0.961 . S
H3271 C3285 0.960 . S
H3272 C3285 0.961 . S
H3273 C3285 0.959 . S
H3274 C3288 0.929 . S
H3275 C3289 0.931 . S
H3276 C3291 0.930 . S
C3277 H3265 0.930 . S
C3277 C3278 1.399 . S
C3277 C3282 1.399 . S
C3278 C3277 1.399 . S
C3278 C3279 1.376 . S
C3279 H3266 0.930 . S
C3279 C3278 1.376 . S
C3279 C3280 1.388 . S
C3280 H3267 0.930 . S
C3280 C3279 1.388 . S
C3280 C3281 1.390 . S
C3281 C3280 1.390 . S
C3281 C3282 1.394 . S
C3281 C3287 1.465 . S
C3282 C3277 1.399 . S
C3282 C3281 1.394 . S
C3282 C3283 1.516 . S
C3283 C3282 1.516 . S
C3283 C3284 1.502 . S
C3283 C3285 1.561 . S
C3283 C3286 1.526 . S
C3284 H3268 0.959 . S
C3284 H3269 0.959 . S
C3284 H3270 0.961 . S
C3284 C3283 1.502 . S
C3285 H3271 0.960 . S
C3285 H3272 0.961 . S
C3285 H3273 0.959 . S
C3285 C3283 1.561 . S
C3286 C3283 1.526 . S
C3286 C3287 1.396 . S
C3286 C3291 1.390 . S
C3287 C3281 1.465 . S
C3287 C3286 1.396 . S
C3287 C3288 1.399 . S
C3288 H3274 0.929 . S
C3288 C3287 1.399 . S
C3288 C3289 1.385 . S
C3289 H3275 0.931 . S
C3289 C3288 1.385 . S
C3289 C3290 1.389 . S
C3290 C3289 1.389 . S
C3290 C3291 1.387 . S
C3291 H3276 0.930 . S
C3291 C3286 1.390 . S
C3291 C3290 1.387 . S
H3292 C3304 0.930 . S
H3293 C3306 0.930 . S
H3294 C3307 0.930 . S
H3295 C3311 0.959 . S
H3296 C3311 0.959 . S
H3297 C3311 0.961 . S
H3298 C3312 0.960 . S
H3299 C3312 0.961 . S
H3300 C3312 0.959 . S
H3301 C3315 0.929 . S
H3302 C3316 0.931 . S
H3303 C3318 0.930 . S
C3304 H3292 0.930 . S
C3304 C3305 1.399 . S
C3304 C3309 1.399 . S
C3305 C3304 1.399 . S
C3305 C3306 1.376 . S
C3306 H3293 0.930 . S
C3306 C3305 1.376 . S
C3306 C3307 1.388 . S
C3307 H3294 0.930 . S
C3307 C3306 1.388 . S
C3307 C3308 1.390 . S
C3308 C3307 1.390 . S
C3308 C3309 1.394 . S
C3308 C3314 1.465 . S
C3309 C3304 1.399 . S
C3309 C3308 1.394 . S
C3309 C3310 1.516 . S
C3310 C3309 1.516 . S
C3310 C3311 1.502 . S
C3310 C3312 1.561 . S
C3310 C3313 1.526 . S
C3311 H3295 0.959 . S
C3311 H3296 0.959 . S
C3311 H3297 0.961 . S
C3311 C3310 1.502 . S
C3312 H3298 0.960 . S
C3312 H3299 0.961 . S
C3312 H3300 0.959 . S
C3312 C3310 1.561 . S
C3313 C3310 1.526 . S
C3313 C3314 1.396 . S
C3313 C3318 1.390 . S
C3314 C3308 1.465 . S
C3314 C3313 1.396 . S
C3314 C3315 1.399 . S
C3315 H3301 0.929 . S
C3315 C3314 1.399 . S
C3315 C3316 1.385 . S
C3316 H3302 0.931 . S
C3316 C3315 1.385 . S
C3316 C3317 1.389 . S
C3317 C3316 1.389 . S
C3317 C3318 1.387 . S
C3318 H3303 0.930 . S
C3318 C3313 1.390 . S
C3318 C3317 1.387 . S
H3319 C3331 0.930 . S
H3320 C3333 0.930 . S
H3321 C3334 0.930 . S
H3322 C3338 0.959 . S
H3323 C3338 0.959 . S
H3324 C3338 0.961 . S
H3325 C3339 0.960 . S
H3326 C3339 0.961 . S
H3327 C3339 0.959 . S
H3328 C3342 0.929 . S
H3329 C3343 0.931 . S
H3330 C3345 0.930 . S
C3331 H3319 0.930 . S
C3331 C3332 1.399 . S
C3331 C3336 1.399 . S
C3332 C3331 1.399 . S
C3332 C3333 1.376 . S
C3333 H3320 0.930 . S
C3333 C3332 1.376 . S
C3333 C3334 1.388 . S
C3334 H3321 0.930 . S
C3334 C3333 1.388 . S
C3334 C3335 1.390 . S
C3335 C3334 1.390 . S
C3335 C3336 1.394 . S
C3335 C3341 1.465 . S
C3336 C3331 1.399 . S
C3336 C3335 1.394 . S
C3336 C3337 1.516 . S
C3337 C3336 1.516 . S
C3337 C3338 1.502 . S
C3337 C3339 1.561 . S
C3337 C3340 1.526 . S
C3338 H3322 0.959 . S
C3338 H3323 0.959 . S
C3338 H3324 0.961 . S
C3338 C3337 1.502 . S
C3339 H3325 0.960 . S
C3339 H3326 0.961 . S
C3339 H3327 0.959 . S
C3339 C3337 1.561 . S
C3340 C3337 1.526 . S
C3340 C3341 1.396 . S
C3340 C3345 1.390 . S
C3341 C3335 1.465 . S
C3341 C3340 1.396 . S
C3341 C3342 1.399 . S
C3342 H3328 0.929 . S
C3342 C3341 1.399 . S
C3342 C3343 1.385 . S
C3343 H3329 0.931 . S
C3343 C3342 1.385 . S
C3343 C3344 1.389 . S
C3344 C3343 1.389 . S
C3344 C3345 1.387 . S
C3345 H3330 0.930 . S
C3345 C3340 1.390 . S
C3345 C3344 1.387 . S
H3346 C3358 0.930 . S
H3347 C3360 0.930 . S
H3348 C3361 0.930 . S
H3349 C3365 0.959 . S
H3350 C3365 0.959 . S
H3351 C3365 0.961 . S
H3352 C3366 0.960 . S
H3353 C3366 0.961 . S
H3354 C3366 0.959 . S
H3355 C3369 0.929 . S
H3356 C3370 0.931 . S
H3357 C3372 0.930 . S
C3358 H3346 0.930 . S
C3358 C3359 1.399 . S
C3358 C3363 1.399 . S
C3359 C3358 1.399 . S
C3359 C3360 1.376 . S
C3360 H3347 0.930 . S
C3360 C3359 1.376 . S
C3360 C3361 1.388 . S
C3361 H3348 0.930 . S
C3361 C3360 1.388 . S
C3361 C3362 1.390 . S
C3362 C3361 1.390 . S
C3362 C3363 1.394 . S
C3362 C3368 1.465 . S
C3363 C3358 1.399 . S
C3363 C3362 1.394 . S
C3363 C3364 1.516 . S
C3364 C3363 1.516 . S
C3364 C3365 1.502 . S
C3364 C3366 1.561 . S
C3364 C3367 1.526 . S
C3365 H3349 0.959 . S
C3365 H3350 0.959 . S
C3365 H3351 0.961 . S
C3365 C3364 1.502 . S
C3366 H3352 0.960 . S
C3366 H3353 0.961 . S
C3366 H3354 0.959 . S
C3366 C3364 1.561 . S
C3367 C3364 1.526 . S
C3367 C3368 1.396 . S
C3367 C3372 1.390 . S
C3368 C3362 1.465 . S
C3368 C3367 1.396 . S
C3368 C3369 1.399 . S
C3369 H3355 0.929 . S
C3369 C3368 1.399 . S
C3369 C3370 1.385 . S
C3370 H3356 0.931 . S
C3370 C3369 1.385 . S
C3370 C3371 1.389 . S
C3371 C3370 1.389 . S
C3371 C3372 1.387 . S
C3372 H3357 0.930 . S
C3372 C3367 1.390 . S
C3372 C3371 1.387 . S
H3373 C3385 0.930 . S
H3374 C3387 0.930 . S
H3375 C3388 0.930 . S
H3376 C3392 0.959 . S
H3377 C3392 0.959 . S
H3378 C3392 0.961 . S
H3379 C3393 0.960 . S
H3380 C3393 0.961 . S
H3381 C3393 0.959 . S
H3382 C3396 0.929 . S
H3383 C3397 0.931 . S
H3384 C3399 0.930 . S
C3385 H3373 0.930 . S
C3385 C3386 1.399 . S
C3385 C3390 1.399 . S
C3386 C3385 1.399 . S
C3386 C3387 1.376 . S
C3387 H3374 0.930 . S
C3387 C3386 1.376 . S
C3387 C3388 1.388 . S
C3388 H3375 0.930 . S
C3388 C3387 1.388 . S
C3388 C3389 1.390 . S
C3389 C3388 1.390 . S
C3389 C3390 1.394 . S
C3389 C3395 1.465 . S
C3390 C3385 1.399 . S
C3390 C3389 1.394 . S
C3390 C3391 1.516 . S
C3391 C3390 1.516 . S
C3391 C3392 1.502 . S
C3391 C3393 1.561 . S
C3391 C3394 1.526 . S
C3392 H3376 0.959 . S
C3392 H3377 0.959 . S
C3392 H3378 0.961 . S
C3392 C3391 1.502 . S
C3393 H3379 0.960 . S
C3393 H3380 0.961 . S
C3393 H3381 0.959 . S
C3393 C3391 1.561 . S
C3394 C3391 1.526 . S
C3394 C3395 1.396 . S
C3394 C3399 1.390 . S
C3395 C3389 1.465 . S
C3395 C3394 1.396 . S
C3395 C3396 1.399 . S
C3396 H3382 0.929 . S
C3396 C3395 1.399 . S
C3396 C3397 1.385 . S
C3397 H3383 0.931 . S
C3397 C3396 1.385 . S
C3397 C3398 1.389 . S
C3398 C3397 1.389 . S
C3398 C3399 1.387 . S
C3399 H3384 0.930 . S
C3399 C3394 1.390 . S
C3399 C3398 1.387 . S
H3400 C3412 0.930 . S
H3401 C3414 0.930 . S
H3402 C3415 0.930 . S
H3403 C3419 0.959 . S
H3404 C3419 0.959 . S
H3405 C3419 0.961 . S
H3406 C3420 0.960 . S
H3407 C3420 0.961 1_556 S
H3408 C3420 0.959 . S
H3409 C3423 0.929 . S
H3410 C3424 0.931 . S
H3411 C3426 0.930 . S
C3412 H3400 0.930 . S
C3412 C3413 1.399 . S
C3412 C3417 1.399 . S
C3413 C3412 1.399 . S
C3413 C3414 1.376 . S
C3414 H3401 0.930 . S
C3414 C3413 1.376 . S
C3414 C3415 1.388 . S
C3415 H3402 0.930 . S
C3415 C3414 1.388 . S
C3415 C3416 1.390 . S
C3416 C3415 1.390 . S
C3416 C3417 1.394 . S
C3416 C3422 1.465 . S
C3417 C3412 1.399 . S
C3417 C3416 1.394 . S
C3417 C3418 1.516 . S
C3418 C3417 1.516 . S
C3418 C3419 1.502 . S
C3418 C3420 1.561 . S
C3418 C3421 1.526 . S
C3419 H3403 0.959 . S
C3419 H3404 0.959 . S
C3419 H3405 0.961 . S
C3419 C3418 1.502 . S
C3420 H3406 0.960 . S
C3420 H3407 0.961 1_554 S
C3420 H3408 0.959 . S
C3420 C3418 1.561 . S
C3421 C3418 1.526 . S
C3421 C3422 1.396 . S
C3421 C3426 1.390 . S
C3422 C3416 1.465 . S
C3422 C3421 1.396 . S
C3422 C3423 1.399 . S
C3423 H3409 0.929 . S
C3423 C3422 1.399 . S
C3423 C3424 1.385 . S
C3424 H3410 0.931 . S
C3424 C3423 1.385 . S
C3424 C3425 1.389 . S
C3425 C3424 1.389 . S
C3425 C3426 1.387 . S
C3426 H3411 0.930 . S
C3426 C3421 1.390 . S
C3426 C3425 1.387 . S
H3427 C3439 0.930 . S
H3428 C3441 0.930 . S
H3429 C3442 0.930 . S
H3430 C3446 0.959 . S
H3431 C3446 0.959 . S
H3432 C3446 0.961 . S
H3433 C3447 0.960 . S
H3434 C3447 0.961 . S
H3435 C3447 0.959 . S
H3436 C3450 0.929 . S
H3437 C3451 0.931 . S
H3438 C3453 0.930 . S
C3439 H3427 0.930 . S
C3439 C3440 1.399 . S
C3439 C3444 1.399 . S
C3440 C3439 1.399 . S
C3440 C3441 1.376 . S
C3441 H3428 0.930 . S
C3441 C3440 1.376 . S
C3441 C3442 1.388 . S
C3442 H3429 0.930 . S
C3442 C3441 1.388 . S
C3442 C3443 1.390 . S
C3443 C3442 1.390 . S
C3443 C3444 1.394 . S
C3443 C3449 1.465 . S
C3444 C3439 1.399 . S
C3444 C3443 1.394 . S
C3444 C3445 1.516 . S
C3445 C3444 1.516 . S
C3445 C3446 1.502 . S
C3445 C3447 1.561 . S
C3445 C3448 1.526 . S
C3446 H3430 0.959 . S
C3446 H3431 0.959 . S
C3446 H3432 0.961 . S
C3446 C3445 1.502 . S
C3447 H3433 0.960 . S
C3447 H3434 0.961 . S
C3447 H3435 0.959 . S
C3447 C3445 1.561 . S
C3448 C3445 1.526 . S
C3448 C3449 1.396 . S
C3448 C3453 1.390 . S
C3449 C3443 1.465 . S
C3449 C3448 1.396 . S
C3449 C3450 1.399 . S
C3450 H3436 0.929 . S
C3450 C3449 1.399 . S
C3450 C3451 1.385 . S
C3451 H3437 0.931 . S
C3451 C3450 1.385 . S
C3451 C3452 1.389 . S
C3452 C3451 1.389 . S
C3452 C3453 1.387 . S
C3453 H3438 0.930 . S
C3453 C3448 1.390 . S
C3453 C3452 1.387 . S
H3454 C3466 0.930 . S
H3455 C3468 0.930 . S
H3456 C3469 0.930 . S
H3457 C3473 0.959 . S
H3458 C3473 0.959 . S
H3459 C3473 0.961 . S
H3460 C3474 0.960 . S
H3461 C3474 0.961 . S
H3462 C3474 0.959 . S
H3463 C3477 0.929 . S
H3464 C3478 0.931 . S
H3465 C3480 0.930 . S
C3466 H3454 0.930 . S
C3466 C3467 1.399 . S
C3466 C3471 1.399 . S
C3467 C3466 1.399 . S
C3467 C3468 1.376 . S
C3468 H3455 0.930 . S
C3468 C3467 1.376 . S
C3468 C3469 1.388 . S
C3469 H3456 0.930 . S
C3469 C3468 1.388 . S
C3469 C3470 1.390 . S
C3470 C3469 1.390 . S
C3470 C3471 1.394 . S
C3470 C3476 1.465 . S
C3471 C3466 1.399 . S
C3471 C3470 1.394 . S
C3471 C3472 1.516 . S
C3472 C3471 1.516 . S
C3472 C3473 1.502 . S
C3472 C3474 1.561 . S
C3472 C3475 1.526 . S
C3473 H3457 0.959 . S
C3473 H3458 0.959 . S
C3473 H3459 0.961 . S
C3473 C3472 1.502 . S
C3474 H3460 0.960 . S
C3474 H3461 0.961 . S
C3474 H3462 0.959 . S
C3474 C3472 1.561 . S
C3475 C3472 1.526 . S
C3475 C3476 1.396 . S
C3475 C3480 1.390 . S
C3476 C3470 1.465 . S
C3476 C3475 1.396 . S
C3476 C3477 1.399 . S
C3477 H3463 0.929 . S
C3477 C3476 1.399 . S
C3477 C3478 1.385 . S
C3478 H3464 0.931 . S
C3478 C3477 1.385 . S
C3478 C3479 1.389 . S
C3479 C3478 1.389 . S
C3479 C3480 1.387 . S
C3480 H3465 0.930 . S
C3480 C3475 1.390 . S
C3480 C3479 1.387 . S
H3481 C3493 0.930 . S
H3482 C3495 0.930 . S
H3483 C3496 0.930 . S
H3484 C3500 0.959 . S
H3485 C3500 0.959 . S
H3486 C3500 0.961 . S
H3487 C3501 0.960 . S
H3488 C3501 0.961 . S
H3489 C3501 0.959 . S
H3490 C3504 0.929 . S
H3491 C3505 0.931 . S
H3492 C3507 0.930 . S
C3493 H3481 0.930 . S
C3493 C3494 1.399 . S
C3493 C3498 1.399 . S
C3494 C3493 1.399 . S
C3494 C3495 1.376 . S
C3495 H3482 0.930 . S
C3495 C3494 1.376 . S
C3495 C3496 1.388 . S
C3496 H3483 0.930 . S
C3496 C3495 1.388 . S
C3496 C3497 1.390 . S
C3497 C3496 1.390 . S
C3497 C3498 1.394 . S
C3497 C3503 1.465 . S
C3498 C3493 1.399 . S
C3498 C3497 1.394 . S
C3498 C3499 1.516 . S
C3499 C3498 1.516 . S
C3499 C3500 1.502 . S
C3499 C3501 1.561 . S
C3499 C3502 1.526 . S
C3500 H3484 0.959 . S
C3500 H3485 0.959 . S
C3500 H3486 0.961 . S
C3500 C3499 1.502 . S
C3501 H3487 0.960 . S
C3501 H3488 0.961 . S
C3501 H3489 0.959 . S
C3501 C3499 1.561 . S
C3502 C3499 1.526 . S
C3502 C3503 1.396 . S
C3502 C3507 1.390 . S
C3503 C3497 1.465 . S
C3503 C3502 1.396 . S
C3503 C3504 1.399 . S
C3504 H3490 0.929 . S
C3504 C3503 1.399 . S
C3504 C3505 1.385 . S
C3505 H3491 0.931 . S
C3505 C3504 1.385 . S
C3505 C3506 1.389 . S
C3506 C3505 1.389 . S
C3506 C3507 1.387 . S
C3507 H3492 0.930 . S
C3507 C3502 1.390 . S
C3507 C3506 1.387 . S
H3508 C3520 0.930 . S
H3509 C3522 0.930 . S
H3510 C3523 0.930 . S
H3511 C3527 0.959 . S
H3512 C3527 0.959 . S
H3513 C3527 0.961 . S
H3514 C3528 0.960 . S
H3515 C3528 0.961 . S
H3516 C3528 0.959 . S
H3517 C3531 0.929 . S
H3518 C3532 0.931 . S
H3519 C3534 0.930 . S
C3520 H3508 0.930 . S
C3520 C3521 1.373 1_655 S
C3520 C3525 1.399 . S
C3521 C3520 1.373 1_455 S
C3521 C3522 1.415 . S
C3522 H3509 0.930 . S
C3522 C3521 1.415 . S
C3522 C3523 1.388 . S
C3523 H3510 0.930 . S
C3523 C3522 1.388 . S
C3523 C3524 1.390 . S
C3524 C3523 1.390 . S
C3524 C3525 1.394 1_455 S
C3524 C3530 1.465 . S
C3525 C3520 1.399 . S
C3525 C3524 1.394 1_655 S
C3525 C3526 1.516 . S
C3526 C3525 1.516 . S
C3526 C3527 1.502 . S
C3526 C3528 1.561 . S
C3526 C3529 1.526 . S
C3527 H3511 0.959 . S
C3527 H3512 0.959 . S
C3527 H3513 0.961 . S
C3527 C3526 1.502 . S
C3528 H3514 0.960 . S
C3528 H3515 0.961 . S
C3528 H3516 0.959 . S
C3528 C3526 1.561 . S
C3529 C3526 1.526 . S
C3529 C3530 1.396 1_655 S
C3529 C3534 1.390 . S
C3530 C3524 1.465 . S
C3530 C3529 1.396 1_455 S
C3530 C3531 1.399 . S
C3531 H3517 0.929 . S
C3531 C3530 1.399 . S
C3531 C3532 1.385 . S
C3532 H3518 0.931 . S
C3532 C3531 1.385 . S
C3532 C3533 1.389 . S
C3533 C3532 1.389 . S
C3533 C3534 1.387 1_455 S
C3534 H3519 0.930 . S
C3534 C3529 1.390 . S
C3534 C3533 1.387 1_655 S
H3535 C3547 0.930 . S
H3536 C3549 0.930 . S
H3537 C3550 0.930 . S
H3538 C3554 0.959 . S
H3539 C3554 0.959 . S
H3540 C3554 0.961 . S
H3541 C3555 0.960 . S
H3542 C3555 0.961 . S
H3543 C3555 0.959 . S
H3544 C3558 0.929 . S
H3545 C3559 0.931 . S
H3546 C3561 0.930 . S
C3547 H3535 0.930 . S
C3547 C3548 1.399 . S
C3547 C3552 1.399 . S
C3548 C3547 1.399 . S
C3548 C3549 1.376 . S
C3549 H3536 0.930 . S
C3549 C3548 1.376 . S
C3549 C3550 1.388 . S
C3550 H3537 0.930 . S
C3550 C3549 1.388 . S
C3550 C3551 1.390 . S
C3551 C3550 1.390 . S
C3551 C3552 1.394 . S
C3551 C3557 1.465 . S
C3552 C3547 1.399 . S
C3552 C3551 1.394 . S
C3552 C3553 1.516 . S
C3553 C3552 1.516 . S
C3553 C3554 1.502 . S
C3553 C3555 1.561 . S
C3553 C3556 1.526 . S
C3554 H3538 0.959 . S
C3554 H3539 0.959 . S
C3554 H3540 0.961 . S
C3554 C3553 1.502 . S
C3555 H3541 0.960 . S
C3555 H3542 0.961 . S
C3555 H3543 0.959 . S
C3555 C3553 1.561 . S
C3556 C3553 1.526 . S
C3556 C3557 1.396 . S
C3556 C3561 1.390 . S
C3557 C3551 1.465 . S
C3557 C3556 1.396 . S
C3557 C3558 1.399 . S
C3558 H3544 0.929 . S
C3558 C3557 1.399 . S
C3558 C3559 1.385 . S
C3559 H3545 0.931 . S
C3559 C3558 1.385 . S
C3559 C3560 1.389 . S
C3560 C3559 1.389 . S
C3560 C3561 1.387 . S
C3561 H3546 0.930 . S
C3561 C3556 1.390 . S
C3561 C3560 1.387 . S
H3562 C3574 0.930 . S
H3563 C3576 0.930 . S
H3564 C3577 0.930 . S
H3565 C3581 0.959 . S
H3566 C3581 0.959 . S
H3567 C3581 0.961 . S
H3568 C3582 0.960 . S
H3569 C3582 0.961 . S
H3570 C3582 0.959 . S
H3571 C3585 0.929 . S
H3572 C3586 0.931 . S
H3573 C3588 0.930 . S
C3574 H3562 0.930 . S
C3574 C3575 1.399 . S
C3574 C3579 1.399 . S
C3575 C3574 1.399 . S
C3575 C3576 1.376 . S
C3576 H3563 0.930 . S
C3576 C3575 1.376 . S
C3576 C3577 1.388 . S
C3577 H3564 0.930 . S
C3577 C3576 1.388 . S
C3577 C3578 1.390 . S
C3578 C3577 1.390 . S
C3578 C3579 1.394 . S
C3578 C3584 1.465 . S
C3579 C3574 1.399 . S
C3579 C3578 1.394 . S
C3579 C3580 1.516 . S
C3580 C3579 1.516 . S
C3580 C3581 1.502 . S
C3580 C3582 1.561 . S
C3580 C3583 1.526 . S
C3581 H3565 0.959 . S
C3581 H3566 0.959 . S
C3581 H3567 0.961 . S
C3581 C3580 1.502 . S
C3582 H3568 0.960 . S
C3582 H3569 0.961 . S
C3582 H3570 0.959 . S
C3582 C3580 1.561 . S
C3583 C3580 1.526 . S
C3583 C3584 1.396 . S
C3583 C3588 1.390 . S
C3584 C3578 1.465 . S
C3584 C3583 1.396 . S
C3584 C3585 1.399 1_556 S
C3585 H3571 0.929 . S
C3585 C3584 1.399 1_554 S
C3585 C3586 1.385 . S
C3586 H3572 0.931 . S
C3586 C3585 1.385 . S
C3586 C3587 1.389 . S
C3587 C3586 1.389 . S
C3587 C3588 1.387 1_554 S
C3588 H3573 0.930 . S
C3588 C3583 1.390 . S
C3588 C3587 1.387 1_556 S
H3589 C3601 0.930 . S
H3590 C3603 0.930 . S
H3591 C3604 0.930 . S
H3592 C3608 0.959 . S
H3593 C3608 0.959 . S
H3594 C3608 0.961 . S
H3595 C3609 0.960 . S
H3596 C3609 0.961 . S
H3597 C3609 0.959 . S
H3598 C3612 0.929 . S
H3599 C3613 0.931 . S
H3600 C3615 0.930 . S
C3601 H3589 0.930 . S
C3601 C3602 1.399 . S
C3601 C3606 1.399 . S
C3602 C3601 1.399 . S
C3602 C3603 1.376 . S
C3603 H3590 0.930 . S
C3603 C3602 1.376 . S
C3603 C3604 1.388 . S
C3604 H3591 0.930 . S
C3604 C3603 1.388 . S
C3604 C3605 1.390 . S
C3605 C3604 1.390 . S
C3605 C3606 1.394 . S
C3605 C3611 1.465 . S
C3606 C3601 1.399 . S
C3606 C3605 1.394 . S
C3606 C3607 1.516 . S
C3607 C3606 1.516 . S
C3607 C3608 1.502 . S
C3607 C3609 1.561 . S
C3607 C3610 1.526 . S
C3608 H3592 0.959 . S
C3608 H3593 0.959 . S
C3608 H3594 0.961 . S
C3608 C3607 1.502 . S
C3609 H3595 0.960 . S
C3609 H3596 0.961 . S
C3609 H3597 0.959 . S
C3609 C3607 1.561 . S
C3610 C3607 1.526 . S
C3610 C3611 1.396 . S
C3610 C3615 1.390 . S
C3611 C3605 1.465 . S
C3611 C3610 1.396 . S
C3611 C3612 1.399 . S
C3612 H3598 0.929 . S
C3612 C3611 1.399 . S
C3612 C3613 1.385 . S
C3613 H3599 0.931 . S
C3613 C3612 1.385 . S
C3613 C3614 1.389 . S
C3614 C3613 1.389 . S
C3614 C3615 1.387 . S
C3615 H3600 0.930 . S
C3615 C3610 1.390 . S
C3615 C3614 1.387 . S
H3616 C3628 0.923 1_565 S
H3617 C3630 0.930 . S
H3618 C3631 0.930 . S
H3619 C3635 0.959 . S
H3620 C3635 0.959 . S
H3621 C3635 0.961 . S
H3622 C3636 0.948 1_565 S
H3623 C3636 0.961 1_565 S
H3624 C3636 0.959 . S
H3625 C3639 0.929 . S
H3626 C3640 0.931 . S
H3627 C3642 0.930 1_565 S
C3628 H3616 0.923 1_545 S
C3628 C3629 1.399 . S
C3628 C3633 1.399 . S
C3629 C3628 1.399 . S
C3629 C3630 1.376 . S
C3630 H3617 0.930 . S
C3630 C3629 1.376 . S
C3630 C3631 1.388 . S
C3631 H3618 0.930 . S
C3631 C3630 1.388 . S
C3631 C3632 1.390 . S
C3632 C3631 1.390 . S
C3632 C3633 1.394 . S
C3632 C3638 1.465 . S
C3633 C3628 1.399 . S
C3633 C3632 1.394 . S
C3633 C3634 1.477 1_545 S
C3634 C3633 1.477 1_565 S
C3634 C3635 1.554 . S
C3634 C3636 1.567 1_565 S
C3634 C3637 1.502 1_565 S
C3635 H3619 0.959 . S
C3635 H3620 0.959 . S
C3635 H3621 0.961 . S
C3635 C3634 1.554 . S
C3636 H3622 0.948 1_545 S
C3636 H3623 0.961 1_545 S
C3636 H3624 0.959 . S
C3636 C3634 1.567 1_545 S
C3637 C3634 1.502 1_545 S
C3637 C3638 1.396 . S
C3637 C3642 1.390 . S
C3638 C3632 1.465 . S
C3638 C3637 1.396 . S
C3638 C3639 1.399 . S
C3639 H3625 0.929 . S
C3639 C3638 1.399 . S
C3639 C3640 1.385 . S
C3640 H3626 0.931 . S
C3640 C3639 1.385 . S
C3640 C3641 1.389 . S
C3641 C3640 1.389 . S
C3641 C3642 1.387 . S
C3642 H3627 0.930 1_545 S
C3642 C3637 1.390 . S
C3642 C3641 1.387 . S
H3643 C3655 0.930 . S
H3644 C3657 0.930 . S
H3645 C3658 0.930 . S
H3646 C3662 0.959 . S
H3647 C3662 0.959 . S
H3648 C3662 0.961 . S
H3649 C3663 0.960 . S
H3650 C3663 0.961 . S
H3651 C3663 0.959 . S
H3652 C3666 0.929 . S
H3653 C3667 0.931 . S
H3654 C3669 0.930 . S
C3655 H3643 0.930 . S
C3655 C3656 1.399 . S
C3655 C3660 1.399 . S
C3656 C3655 1.399 . S
C3656 C3657 1.376 . S
C3657 H3644 0.930 . S
C3657 C3656 1.376 . S
C3657 C3658 1.388 . S
C3658 H3645 0.930 . S
C3658 C3657 1.388 . S
C3658 C3659 1.390 . S
C3659 C3658 1.390 . S
C3659 C3660 1.394 . S
C3659 C3665 1.465 . S
C3660 C3655 1.399 . S
C3660 C3659 1.394 . S
C3660 C3661 1.516 . S
C3661 C3660 1.516 . S
C3661 C3662 1.502 . S
C3661 C3663 1.561 . S
C3661 C3664 1.526 . S
C3662 H3646 0.959 . S
C3662 H3647 0.959 . S
C3662 H3648 0.961 . S
C3662 C3661 1.502 . S
C3663 H3649 0.960 . S
C3663 H3650 0.961 . S
C3663 H3651 0.959 . S
C3663 C3661 1.561 . S
C3664 C3661 1.526 . S
C3664 C3665 1.396 . S
C3664 C3669 1.390 . S
C3665 C3659 1.465 . S
C3665 C3664 1.396 . S
C3665 C3666 1.399 . S
C3666 H3652 0.929 . S
C3666 C3665 1.399 . S
C3666 C3667 1.385 . S
C3667 H3653 0.931 . S
C3667 C3666 1.385 . S
C3667 C3668 1.389 . S
C3668 C3667 1.389 . S
C3668 C3669 1.387 . S
C3669 H3654 0.930 . S
C3669 C3664 1.390 . S
C3669 C3668 1.387 . S
H3670 C3682 0.930 . S
H3671 C3684 0.930 . S
H3672 C3685 0.930 1_565 S
H3673 C3689 0.959 . S
H3674 C3689 0.959 . S
H3675 C3689 0.961 . S
H3676 C3690 0.960 . S
H3677 C3690 0.961 . S
H3678 C3690 0.959 . S
H3679 C3693 0.929 . S
H3680 C3694 0.895 1_565 S
H3681 C3696 0.930 . S
C3682 H3670 0.930 . S
C3682 C3683 1.399 . S
C3682 C3687 1.399 . S
C3683 C3682 1.399 . S
C3683 C3684 1.376 . S
C3684 H3671 0.930 . S
C3684 C3683 1.376 . S
C3684 C3685 1.388 . S
C3685 H3672 0.930 1_545 S
C3685 C3684 1.388 . S
C3685 C3686 1.390 . S
C3686 C3685 1.390 . S
C3686 C3687 1.394 . S
C3686 C3692 1.465 . S
C3687 C3682 1.399 . S
C3687 C3686 1.394 . S
C3687 C3688 1.516 . S
C3688 C3687 1.516 . S
C3688 C3689 1.502 . S
C3688 C3690 1.561 . S
C3688 C3691 1.526 . S
C3689 H3673 0.959 . S
C3689 H3674 0.959 . S
C3689 H3675 0.961 . S
C3689 C3688 1.502 . S
C3690 H3676 0.960 . S
C3690 H3677 0.961 . S
C3690 H3678 0.959 . S
C3690 C3688 1.561 . S
C3691 C3688 1.526 . S
C3691 C3692 1.396 . S
C3691 C3696 1.390 . S
C3692 C3686 1.465 . S
C3692 C3691 1.396 . S
C3692 C3693 1.399 1_545 S
C3693 H3679 0.929 . S
C3693 C3692 1.399 1_565 S
C3693 C3694 1.392 1_565 S
C3694 H3680 0.895 1_545 S
C3694 C3693 1.392 1_545 S
C3694 C3695 1.419 . S
C3695 C3694 1.419 . S
C3695 C3696 1.387 . S
C3696 H3681 0.930 . S
C3696 C3691 1.390 . S
C3696 C3695 1.387 . S
H3697 C3709 0.930 . S
H3698 C3711 0.930 . S
H3699 C3712 0.930 . S
H3700 C3716 0.959 . S
H3701 C3716 0.959 . S
H3702 C3716 0.961 . S
H3703 C3717 0.960 . S
H3704 C3717 0.961 . S
H3705 C3717 0.959 . S
H3706 C3720 0.929 . S
H3707 C3721 0.931 . S
H3708 C3723 0.930 . S
C3709 H3697 0.930 . S
C3709 C3710 1.399 . S
C3709 C3714 1.399 . S
C3710 C3709 1.399 . S
C3710 C3711 1.376 . S
C3711 H3698 0.930 . S
C3711 C3710 1.376 . S
C3711 C3712 1.388 . S
C3712 H3699 0.930 . S
C3712 C3711 1.388 . S
C3712 C3713 1.390 . S
C3713 C3712 1.390 . S
C3713 C3714 1.394 . S
C3713 C3719 1.465 . S
C3714 C3709 1.399 . S
C3714 C3713 1.394 . S
C3714 C3715 1.516 . S
C3715 C3714 1.516 . S
C3715 C3716 1.502 . S
C3715 C3717 1.561 . S
C3715 C3718 1.526 . S
C3716 H3700 0.959 . S
C3716 H3701 0.959 . S
C3716 H3702 0.961 . S
C3716 C3715 1.502 . S
C3717 H3703 0.960 . S
C3717 H3704 0.961 . S
C3717 H3705 0.959 . S
C3717 C3715 1.561 . S
C3718 C3715 1.526 . S
C3718 C3719 1.396 . S
C3718 C3723 1.390 . S
C3719 C3713 1.465 . S
C3719 C3718 1.396 . S
C3719 C3720 1.399 . S
C3720 H3706 0.929 . S
C3720 C3719 1.399 . S
C3720 C3721 1.385 . S
C3721 H3707 0.931 . S
C3721 C3720 1.385 . S
C3721 C3722 1.389 . S
C3722 C3721 1.389 . S
C3722 C3723 1.387 . S
C3723 H3708 0.930 . S
C3723 C3718 1.390 . S
C3723 C3722 1.387 . S
H3724 C3736 0.930 . S
H3725 C3738 0.930 . S
H3726 C3739 0.930 . S
H3727 C3743 0.959 . S
H3728 C3743 0.959 . S
H3729 C3743 0.961 . S
H3730 C3744 0.960 . S
H3731 C3744 0.961 . S
H3732 C3744 0.959 . S
H3733 C3747 0.929 . S
H3734 C3748 0.931 . S
H3735 C3750 0.930 . S
C3736 H3724 0.930 . S
C3736 C3737 1.399 . S
C3736 C3741 1.399 . S
C3737 C3736 1.399 . S
C3737 C3738 1.376 1_545 S
C3738 H3725 0.930 . S
C3738 C3737 1.376 1_565 S
C3738 C3739 1.388 . S
C3739 H3726 0.930 . S
C3739 C3738 1.388 . S
C3739 C3740 1.390 1_565 S
C3740 C3739 1.390 1_545 S
C3740 C3741 1.394 . S
C3740 C3746 1.465 . S
C3741 C3736 1.399 . S
C3741 C3740 1.394 . S
C3741 C3742 1.516 . S
C3742 C3741 1.516 . S
C3742 C3743 1.502 . S
C3742 C3744 1.561 . S
C3742 C3745 1.526 . S
C3743 H3727 0.959 . S
C3743 H3728 0.959 . S
C3743 H3729 0.961 . S
C3743 C3742 1.502 . S
C3744 H3730 0.960 . S
C3744 H3731 0.961 . S
C3744 H3732 0.959 . S
C3744 C3742 1.561 . S
C3745 C3742 1.526 . S
C3745 C3746 1.396 . S
C3745 C3750 1.390 . S
C3746 C3740 1.465 . S
C3746 C3745 1.396 . S
C3746 C3747 1.399 1_545 S
C3747 H3733 0.929 . S
C3747 C3746 1.399 1_565 S
C3747 C3748 1.385 . S
C3748 H3734 0.931 . S
C3748 C3747 1.385 . S
C3748 C3749 1.389 1_565 S
C3749 C3748 1.389 1_545 S
C3749 C3750 1.387 . S
C3750 H3735 0.930 . S
C3750 C3745 1.390 . S
C3750 C3749 1.387 . S
H3751 C3763 0.930 . S
H3752 C3765 0.930 . S
H3753 C3766 0.930 . S
H3754 C3770 0.959 . S
H3755 C3770 0.959 . S
H3756 C3770 0.961 . S
H3757 C3771 0.960 . S
H3758 C3771 0.961 . S
H3759 C3771 0.959 . S
H3760 C3774 0.929 . S
H3761 C3775 0.931 . S
H3762 C3777 0.930 . S
C3763 H3751 0.930 . S
C3763 C3764 1.399 . S
C3763 C3768 1.399 . S
C3764 C3763 1.399 . S
C3764 C3765 1.376 . S
C3765 H3752 0.930 . S
C3765 C3764 1.376 . S
C3765 C3766 1.388 . S
C3766 H3753 0.930 . S
C3766 C3765 1.388 . S
C3766 C3767 1.390 . S
C3767 C3766 1.390 . S
C3767 C3768 1.394 . S
C3767 C3773 1.465 . S
C3768 C3763 1.399 . S
C3768 C3767 1.394 . S
C3768 C3769 1.516 . S
C3769 C3768 1.516 . S
C3769 C3770 1.502 . S
C3769 C3771 1.561 . S
C3769 C3772 1.526 . S
C3770 H3754 0.959 . S
C3770 H3755 0.959 . S
C3770 H3756 0.961 . S
C3770 C3769 1.502 . S
C3771 H3757 0.960 . S
C3771 H3758 0.961 . S
C3771 H3759 0.959 . S
C3771 C3769 1.561 . S
C3772 C3769 1.526 . S
C3772 C3773 1.396 . S
C3772 C3777 1.390 . S
C3773 C3767 1.465 . S
C3773 C3772 1.396 . S
C3773 C3774 1.399 . S
C3774 H3760 0.929 . S
C3774 C3773 1.399 . S
C3774 C3775 1.385 . S
C3775 H3761 0.931 . S
C3775 C3774 1.385 . S
C3775 C3776 1.389 . S
C3776 C3775 1.389 . S
C3776 C3777 1.387 . S
C3777 H3762 0.930 . S
C3777 C3772 1.390 . S
C3777 C3776 1.387 . S
H3778 C3790 0.930 . S
H3779 C3792 0.930 1_565 S
H3780 C3793 0.930 . S
H3781 C3797 0.959 . S
H3782 C3797 0.959 . S
H3783 C3797 0.961 . S
H3784 C3798 0.960 . S
H3785 C3798 0.961 . S
H3786 C3798 0.959 . S
H3787 C3801 0.929 . S
H3788 C3802 0.931 . S
H3789 C3804 0.930 . S
C3790 H3778 0.930 . S
C3790 C3791 1.399 . S
C3790 C3795 1.399 . S
C3791 C3790 1.399 . S
C3791 C3792 1.376 . S
C3792 H3779 0.930 1_545 S
C3792 C3791 1.376 . S
C3792 C3793 1.388 1_545 S
C3793 H3780 0.930 . S
C3793 C3792 1.388 1_565 S
C3793 C3794 1.390 1_565 S
C3794 C3793 1.390 1_545 S
C3794 C3795 1.394 . S
C3794 C3800 1.465 . S
C3795 C3790 1.399 . S
C3795 C3794 1.394 . S
C3795 C3796 1.516 . S
C3796 C3795 1.516 . S
C3796 C3797 1.502 . S
C3796 C3798 1.561 . S
C3796 C3799 1.526 . S
C3797 H3781 0.959 . S
C3797 H3782 0.959 . S
C3797 H3783 0.961 . S
C3797 C3796 1.502 . S
C3798 H3784 0.960 . S
C3798 H3785 0.961 . S
C3798 H3786 0.959 . S
C3798 C3796 1.561 . S
C3799 C3796 1.526 . S
C3799 C3800 1.396 . S
C3799 C3804 1.390 . S
C3800 C3794 1.465 . S
C3800 C3799 1.396 . S
C3800 C3801 1.399 1_545 S
C3801 H3787 0.929 . S
C3801 C3800 1.399 1_565 S
C3801 C3802 1.385 . S
C3802 H3788 0.931 . S
C3802 C3801 1.385 . S
C3802 C3803 1.389 1_565 S
C3803 C3802 1.389 1_545 S
C3803 C3804 1.387 . S
C3804 H3789 0.930 . S
C3804 C3799 1.390 . S
C3804 C3803 1.387 . S
H3805 C3817 0.930 . S
H3806 C3819 0.930 . S
H3807 C3820 0.930 . S
H3808 C3824 0.959 . S
H3809 C3824 0.959 . S
H3810 C3824 0.961 . S
H3811 C3825 0.960 . S
H3812 C3825 0.961 . S
H3813 C3825 0.959 . S
H3814 C3828 0.929 . S
H3815 C3829 0.931 . S
H3816 C3831 0.930 . S
C3817 H3805 0.930 . S
C3817 C3818 1.399 . S
C3817 C3822 1.399 . S
C3818 C3817 1.399 . S
C3818 C3819 1.376 . S
C3819 H3806 0.930 . S
C3819 C3818 1.376 . S
C3819 C3820 1.388 . S
C3820 H3807 0.930 . S
C3820 C3819 1.388 . S
C3820 C3821 1.390 . S
C3821 C3820 1.390 . S
C3821 C3822 1.394 . S
C3821 C3827 1.465 . S
C3822 C3817 1.399 . S
C3822 C3821 1.394 . S
C3822 C3823 1.516 . S
C3823 C3822 1.516 . S
C3823 C3824 1.502 . S
C3823 C3825 1.561 . S
C3823 C3826 1.526 . S
C3824 H3808 0.959 . S
C3824 H3809 0.959 . S
C3824 H3810 0.961 . S
C3824 C3823 1.502 . S
C3825 H3811 0.960 . S
C3825 H3812 0.961 . S
C3825 H3813 0.959 . S
C3825 C3823 1.561 . S
C3826 C3823 1.526 . S
C3826 C3827 1.396 . S
C3826 C3831 1.390 . S
C3827 C3821 1.465 . S
C3827 C3826 1.396 . S
C3827 C3828 1.399 . S
C3828 H3814 0.929 . S
C3828 C3827 1.399 . S
C3828 C3829 1.385 . S
C3829 H3815 0.931 . S
C3829 C3828 1.385 . S
C3829 C3830 1.389 . S
C3830 C3829 1.389 . S
C3830 C3831 1.387 . S
C3831 H3816 0.930 . S
C3831 C3826 1.390 . S
C3831 C3830 1.387 . S
H3832 C3844 0.930 . S
H3833 C3846 0.930 . S
H3834 C3847 0.930 . S
H3835 C3851 0.959 . S
H3836 C3851 0.959 . S
H3837 C3851 0.961 . S
H3838 C3852 0.960 . S
H3839 C3852 0.961 . S
H3840 C3852 0.959 1_554 S
H3841 C3855 0.929 . S
H3842 C3856 0.931 . S
H3843 C3858 0.930 . S
C3844 H3832 0.930 . S
C3844 C3845 1.399 . S
C3844 C3849 1.399 . S
C3845 C3844 1.399 . S
C3845 C3846 1.376 . S
C3846 H3833 0.930 . S
C3846 C3845 1.376 . S
C3846 C3847 1.388 . S
C3847 H3834 0.930 . S
C3847 C3846 1.388 . S
C3847 C3848 1.390 . S
C3848 C3847 1.390 . S
C3848 C3849 1.394 . S
C3848 C3854 1.465 . S
C3849 C3844 1.399 . S
C3849 C3848 1.394 . S
C3849 C3850 1.516 . S
C3850 C3849 1.516 . S
C3850 C3851 1.502 1_554 S
C3850 C3852 1.561 1_554 S
C3850 C3853 1.526 . S
C3851 H3835 0.959 . S
C3851 H3836 0.959 . S
C3851 H3837 0.961 . S
C3851 C3850 1.502 1_556 S
C3852 H3838 0.960 . S
C3852 H3839 0.961 . S
C3852 H3840 0.959 1_556 S
C3852 C3850 1.561 1_556 S
C3853 C3850 1.526 . S
C3853 C3854 1.396 . S
C3853 C3858 1.390 1_554 S
C3854 C3848 1.465 . S
C3854 C3853 1.396 . S
C3854 C3855 1.399 . S
C3855 H3841 0.929 . S
C3855 C3854 1.399 . S
C3855 C3856 1.385 . S
C3856 H3842 0.931 . S
C3856 C3855 1.385 . S
C3856 C3857 1.389 . S
C3857 C3856 1.389 . S
C3857 C3858 1.387 1_554 S
C3858 H3843 0.930 . S
C3858 C3853 1.390 1_556 S
C3858 C3857 1.387 1_556 S
H3859 C3871 0.930 . S
H3860 C3873 0.930 . S
H3861 C3874 0.930 . S
H3862 C3878 0.975 . S
H3863 C3878 0.959 . S
H3864 C3878 0.961 . S
H3865 C3879 0.960 . S
H3866 C3879 0.961 . S
H3867 C3879 0.959 . S
H3868 C3882 0.929 . S
H3869 C3883 0.931 . S
H3870 C3885 0.930 . S
C3871 H3859 0.930 . S
C3871 C3872 1.399 . S
C3871 C3876 1.399 . S
C3872 C3871 1.399 . S
C3872 C3873 1.376 . S
C3873 H3860 0.930 . S
C3873 C3872 1.376 . S
C3873 C3874 1.388 . S
C3874 H3861 0.930 . S
C3874 C3873 1.388 . S
C3874 C3875 1.390 . S
C3875 C3874 1.390 . S
C3875 C3876 1.394 . S
C3875 C3881 1.465 . S
C3876 C3871 1.399 . S
C3876 C3875 1.394 . S
C3876 C3877 1.516 . S
C3877 C3876 1.516 . S
C3877 C3878 1.502 . S
C3877 C3879 1.561 . S
C3877 C3880 1.526 . S
C3878 H3862 0.975 . S
C3878 H3863 0.959 . S
C3878 H3864 0.961 . S
C3878 C3877 1.502 . S
C3879 H3865 0.960 . S
C3879 H3866 0.961 . S
C3879 H3867 0.959 . S
C3879 C3877 1.561 . S
C3880 C3877 1.526 . S
C3880 C3881 1.396 . S
C3880 C3885 1.390 . S
C3881 C3875 1.465 . S
C3881 C3880 1.396 . S
C3881 C3882 1.399 . S
C3882 H3868 0.929 . S
C3882 C3881 1.399 . S
C3882 C3883 1.385 . S
C3883 H3869 0.931 . S
C3883 C3882 1.385 . S
C3883 C3884 1.389 . S
C3884 C3883 1.389 . S
C3884 C3885 1.387 . S
C3885 H3870 0.930 . S
C3885 C3880 1.390 . S
C3885 C3884 1.387 . S
H3886 C3898 0.930 . S
H3887 C3900 0.930 . S
H3888 C3901 0.930 . S
H3889 C3905 0.959 . S
H3890 C3905 0.959 . S
H3891 C3905 0.961 . S
H3892 C3906 0.960 . S
H3893 C3906 0.961 . S
H3894 C3906 0.959 . S
H3895 C3909 0.929 . S
H3896 C3910 0.931 . S
H3897 C3912 0.930 . S
C3898 H3886 0.930 . S
C3898 C3899 1.399 . S
C3898 C3903 1.399 . S
C3899 C3898 1.399 . S
C3899 C3900 1.376 . S
C3900 H3887 0.930 . S
C3900 C3899 1.376 . S
C3900 C3901 1.388 . S
C3901 H3888 0.930 . S
C3901 C3900 1.388 . S
C3901 C3902 1.390 . S
C3902 C3901 1.390 . S
C3902 C3903 1.394 . S
C3902 C3908 1.465 . S
C3903 C3898 1.399 . S
C3903 C3902 1.394 . S
C3903 C3904 1.516 . S
C3904 C3903 1.516 . S
C3904 C3905 1.502 . S
C3904 C3906 1.561 . S
C3904 C3907 1.526 . S
C3905 H3889 0.959 . S
C3905 H3890 0.959 . S
C3905 H3891 0.961 . S
C3905 C3904 1.502 . S
C3906 H3892 0.960 . S
C3906 H3893 0.961 . S
C3906 H3894 0.959 . S
C3906 C3904 1.561 . S
C3907 C3904 1.526 . S
C3907 C3908 1.396 . S
C3907 C3912 1.390 . S
C3908 C3902 1.465 . S
C3908 C3907 1.396 . S
C3908 C3909 1.399 . S
C3909 H3895 0.929 . S
C3909 C3908 1.399 . S
C3909 C3910 1.385 . S
C3910 H3896 0.931 . S
C3910 C3909 1.385 . S
C3910 C3911 1.389 . S
C3911 C3910 1.389 . S
C3911 C3912 1.387 . S
C3912 H3897 0.930 . S
C3912 C3907 1.390 . S
C3912 C3911 1.387 . S
H3913 C3925 0.930 . S
H3914 C3927 0.930 . S
H3915 C3928 0.930 . S
H3916 C3932 0.959 . S
H3917 C3932 0.959 . S
H3918 C3932 0.961 . S
H3919 C3933 0.960 . S
H3920 C3933 0.961 . S
H3921 C3933 0.959 . S
H3922 C3936 0.929 . S
H3923 C3937 0.931 . S
H3924 C3939 0.930 . S
C3925 H3913 0.930 . S
C3925 C3926 1.399 . S
C3925 C3930 1.399 . S
C3926 C3925 1.399 . S
C3926 C3927 1.376 . S
C3927 H3914 0.930 . S
C3927 C3926 1.376 . S
C3927 C3928 1.388 . S
C3928 H3915 0.930 . S
C3928 C3927 1.388 . S
C3928 C3929 1.390 . S
C3929 C3928 1.390 . S
C3929 C3930 1.394 . S
C3929 C3935 1.465 . S
C3930 C3925 1.399 . S
C3930 C3929 1.394 . S
C3930 C3931 1.516 . S
C3931 C3930 1.516 . S
C3931 C3932 1.502 . S
C3931 C3933 1.561 . S
C3931 C3934 1.526 . S
C3932 H3916 0.959 . S
C3932 H3917 0.959 . S
C3932 H3918 0.961 . S
C3932 C3931 1.502 . S
C3933 H3919 0.960 . S
C3933 H3920 0.961 . S
C3933 H3921 0.959 . S
C3933 C3931 1.561 . S
C3934 C3931 1.526 . S
C3934 C3935 1.396 . S
C3934 C3939 1.390 . S
C3935 C3929 1.465 . S
C3935 C3934 1.396 . S
C3935 C3936 1.399 . S
C3936 H3922 0.929 . S
C3936 C3935 1.399 . S
C3936 C3937 1.385 . S
C3937 H3923 0.931 . S
C3937 C3936 1.385 . S
C3937 C3938 1.389 . S
C3938 C3937 1.389 . S
C3938 C3939 1.387 . S
C3939 H3924 0.930 . S
C3939 C3934 1.390 . S
C3939 C3938 1.387 . S
H3940 C3952 0.930 . S
H3941 C3954 0.930 . S
H3942 C3955 0.930 . S
H3943 C3959 0.959 . S
H3944 C3959 0.959 . S
H3945 C3959 0.961 . S
H3946 C3960 0.960 . S
H3947 C3960 0.961 . S
H3948 C3960 0.959 . S
H3949 C3963 0.929 . S
H3950 C3964 0.931 . S
H3951 C3966 0.930 . S
C3952 H3940 0.930 . S
C3952 C3953 1.399 . S
C3952 C3957 1.399 . S
C3953 C3952 1.399 . S
C3953 C3954 1.376 . S
C3954 H3941 0.930 . S
C3954 C3953 1.376 . S
C3954 C3955 1.388 . S
C3955 H3942 0.930 . S
C3955 C3954 1.388 . S
C3955 C3956 1.390 . S
C3956 C3955 1.390 . S
C3956 C3957 1.394 . S
C3956 C3962 1.465 . S
C3957 C3952 1.399 . S
C3957 C3956 1.394 . S
C3957 C3958 1.516 . S
C3958 C3957 1.516 . S
C3958 C3959 1.502 . S
C3958 C3960 1.561 . S
C3958 C3961 1.526 . S
C3959 H3943 0.959 . S
C3959 H3944 0.959 . S
C3959 H3945 0.961 . S
C3959 C3958 1.502 . S
C3960 H3946 0.960 . S
C3960 H3947 0.961 . S
C3960 H3948 0.959 . S
C3960 C3958 1.561 . S
C3961 C3958 1.526 . S
C3961 C3962 1.396 . S
C3961 C3966 1.390 . S
C3962 C3956 1.465 . S
C3962 C3961 1.396 . S
C3962 C3963 1.399 . S
C3963 H3949 0.929 . S
C3963 C3962 1.399 . S
C3963 C3964 1.385 . S
C3964 H3950 0.931 . S
C3964 C3963 1.385 . S
C3964 C3965 1.389 . S
C3965 C3964 1.389 . S
C3965 C3966 1.387 . S
C3966 H3951 0.930 . S
C3966 C3961 1.390 . S
C3966 C3965 1.387 . S
H3967 C3979 0.930 . S
H3968 C3981 0.930 . S
H3969 C3982 0.930 . S
H3970 C3986 0.959 . S
H3971 C3986 0.959 . S
H3972 C3986 0.961 . S
H3973 C3987 0.960 . S
H3974 C3987 0.961 . S
H3975 C3987 0.959 . S
H3976 C3990 0.929 . S
H3977 C3991 0.931 . S
H3978 C3993 0.930 . S
C3979 H3967 0.930 . S
C3979 C3980 1.399 . S
C3979 C3984 1.399 . S
C3980 C3979 1.399 . S
C3980 C3981 1.376 . S
C3981 H3968 0.930 . S
C3981 C3980 1.376 . S
C3981 C3982 1.388 . S
C3982 H3969 0.930 . S
C3982 C3981 1.388 . S
C3982 C3983 1.390 . S
C3983 C3982 1.390 . S
C3983 C3984 1.394 . S
C3983 C3989 1.465 . S
C3984 C3979 1.399 . S
C3984 C3983 1.394 . S
C3984 C3985 1.516 . S
C3985 C3984 1.516 . S
C3985 C3986 1.502 . S
C3985 C3987 1.561 . S
C3985 C3988 1.526 . S
C3986 H3970 0.959 . S
C3986 H3971 0.959 . S
C3986 H3972 0.961 . S
C3986 C3985 1.502 . S
C3987 H3973 0.960 . S
C3987 H3974 0.961 . S
C3987 H3975 0.959 . S
C3987 C3985 1.561 . S
C3988 C3985 1.526 . S
C3988 C3989 1.396 . S
C3988 C3993 1.390 . S
C3989 C3983 1.465 . S
C3989 C3988 1.396 . S
C3989 C3990 1.399 . S
C3990 H3976 0.929 . S
C3990 C3989 1.399 . S
C3990 C3991 1.385 . S
C3991 H3977 0.931 . S
C3991 C3990 1.385 . S
C3991 C3992 1.389 . S
C3992 C3991 1.389 . S
C3992 C3993 1.387 . S
C3993 H3978 0.930 . S
C3993 C3988 1.390 . S
C3993 C3992 1.387 . S
H3994 C4006 0.930 . S
H3995 C4008 0.930 . S
H3996 C4009 0.930 . S
H3997 C4013 0.959 . S
H3998 C4013 0.959 . S
H3999 C4013 0.961 . S
H4000 C4014 0.960 . S
H4001 C4014 0.961 . S
H4002 C4014 0.959 . S
H4003 C4017 0.929 . S
H4004 C4018 0.931 . S
H4005 C4020 0.930 . S
C4006 H3994 0.930 . S
C4006 C4007 1.399 . S
C4006 C4011 1.399 . S
C4007 C4006 1.399 . S
C4007 C4008 1.376 . S
C4008 H3995 0.930 . S
C4008 C4007 1.376 . S
C4008 C4009 1.388 . S
C4009 H3996 0.930 . S
C4009 C4008 1.388 . S
C4009 C4010 1.390 . S
C4010 C4009 1.390 . S
C4010 C4011 1.394 . S
C4010 C4016 1.465 . S
C4011 C4006 1.399 . S
C4011 C4010 1.394 . S
C4011 C4012 1.516 . S
C4012 C4011 1.516 . S
C4012 C4013 1.502 . S
C4012 C4014 1.561 . S
C4012 C4015 1.526 . S
C4013 H3997 0.959 . S
C4013 H3998 0.959 . S
C4013 H3999 0.961 . S
C4013 C4012 1.502 . S
C4014 H4000 0.960 . S
C4014 H4001 0.961 . S
C4014 H4002 0.959 . S
C4014 C4012 1.561 . S
C4015 C4012 1.526 . S
C4015 C4016 1.396 . S
C4015 C4020 1.390 . S
C4016 C4010 1.465 . S
C4016 C4015 1.396 . S
C4016 C4017 1.399 . S
C4017 H4003 0.929 . S
C4017 C4016 1.399 . S
C4017 C4018 1.385 . S
C4018 H4004 0.931 . S
C4018 C4017 1.385 . S
C4018 C4019 1.389 . S
C4019 C4018 1.389 . S
C4019 C4020 1.387 . S
C4020 H4005 0.930 . S
C4020 C4015 1.390 . S
C4020 C4019 1.387 . S
H4021 C4033 0.930 . S
H4022 C4035 0.930 . S
H4023 C4036 0.930 . S
H4024 C4040 0.959 . S
H4025 C4040 0.959 . S
H4026 C4040 0.961 . S
H4027 C4041 0.960 . S
H4028 C4041 0.961 . S
H4029 C4041 0.959 . S
H4030 C4044 0.929 . S
H4031 C4045 0.931 . S
H4032 C4047 0.930 . S
C4033 H4021 0.930 . S
C4033 C4034 1.399 . S
C4033 C4038 1.399 . S
C4034 C4033 1.399 . S
C4034 C4035 1.376 . S
C4035 H4022 0.930 . S
C4035 C4034 1.376 . S
C4035 C4036 1.388 . S
C4036 H4023 0.930 . S
C4036 C4035 1.388 . S
C4036 C4037 1.390 . S
C4037 C4036 1.390 . S
C4037 C4038 1.394 . S
C4037 C4043 1.465 . S
C4038 C4033 1.399 . S
C4038 C4037 1.394 . S
C4038 C4039 1.516 . S
C4039 C4038 1.516 . S
C4039 C4040 1.502 . S
C4039 C4041 1.561 . S
C4039 C4042 1.526 . S
C4040 H4024 0.959 . S
C4040 H4025 0.959 . S
C4040 H4026 0.961 . S
C4040 C4039 1.502 . S
C4041 H4027 0.960 . S
C4041 H4028 0.961 . S
C4041 H4029 0.959 . S
C4041 C4039 1.561 . S
C4042 C4039 1.526 . S
C4042 C4043 1.396 . S
C4042 C4047 1.390 . S
C4043 C4037 1.465 . S
C4043 C4042 1.396 . S
C4043 C4044 1.399 . S
C4044 H4030 0.929 . S
C4044 C4043 1.399 . S
C4044 C4045 1.385 . S
C4045 H4031 0.931 . S
C4045 C4044 1.385 . S
C4045 C4046 1.389 . S
C4046 C4045 1.389 . S
C4046 C4047 1.387 . S
C4047 H4032 0.930 . S
C4047 C4042 1.390 . S
C4047 C4046 1.387 . S
H4048 C4060 0.930 . S
H4049 C4062 0.930 . S
H4050 C4063 0.930 . S
H4051 C4067 0.959 . S
H4052 C4067 0.959 . S
H4053 C4067 0.961 . S
H4054 C4068 0.960 . S
H4055 C4068 0.961 . S
H4056 C4068 0.959 . S
H4057 C4071 0.929 . S
H4058 C4072 0.931 . S
H4059 C4074 0.930 . S
C4060 H4048 0.930 . S
C4060 C4061 1.399 . S
C4060 C4065 1.399 . S
C4061 C4060 1.399 . S
C4061 C4062 1.376 . S
C4062 H4049 0.930 . S
C4062 C4061 1.376 . S
C4062 C4063 1.388 . S
C4063 H4050 0.930 . S
C4063 C4062 1.388 . S
C4063 C4064 1.390 . S
C4064 C4063 1.390 . S
C4064 C4065 1.394 . S
C4064 C4070 1.465 . S
C4065 C4060 1.399 . S
C4065 C4064 1.394 . S
C4065 C4066 1.516 . S
C4066 C4065 1.516 . S
C4066 C4067 1.502 . S
C4066 C4068 1.561 . S
C4066 C4069 1.526 . S
C4067 H4051 0.959 . S
C4067 H4052 0.959 . S
C4067 H4053 0.961 . S
C4067 C4066 1.502 . S
C4068 H4054 0.960 . S
C4068 H4055 0.961 . S
C4068 H4056 0.959 . S
C4068 C4066 1.561 . S
C4069 C4066 1.526 . S
C4069 C4070 1.396 . S
C4069 C4074 1.390 . S
C4070 C4064 1.465 . S
C4070 C4069 1.396 . S
C4070 C4071 1.399 . S
C4071 H4057 0.929 . S
C4071 C4070 1.399 . S
C4071 C4072 1.385 . S
C4072 H4058 0.931 . S
C4072 C4071 1.385 . S
C4072 C4073 1.389 . S
C4073 C4072 1.389 . S
C4073 C4074 1.387 . S
C4074 H4059 0.930 . S
C4074 C4069 1.390 . S
C4074 C4073 1.387 . S
H4075 C4087 0.930 . S
H4076 C4089 0.930 . S
H4077 C4090 0.930 . S
H4078 C4094 0.959 . S
H4079 C4094 0.959 . S
H4080 C4094 0.961 . S
H4081 C4095 0.960 . S
H4082 C4095 0.961 . S
H4083 C4095 0.959 . S
H4084 C4098 0.929 . S
H4085 C4099 0.931 . S
H4086 C4101 0.930 . S
C4087 H4075 0.930 . S
C4087 C4088 1.399 . S
C4087 C4092 1.399 . S
C4088 C4087 1.399 . S
C4088 C4089 1.376 . S
C4089 H4076 0.930 . S
C4089 C4088 1.376 . S
C4089 C4090 1.388 . S
C4090 H4077 0.930 . S
C4090 C4089 1.388 . S
C4090 C4091 1.390 . S
C4091 C4090 1.390 . S
C4091 C4092 1.394 . S
C4091 C4097 1.465 . S
C4092 C4087 1.399 . S
C4092 C4091 1.394 . S
C4092 C4093 1.516 . S
C4093 C4092 1.516 . S
C4093 C4094 1.502 . S
C4093 C4095 1.561 . S
C4093 C4096 1.526 . S
C4094 H4078 0.959 . S
C4094 H4079 0.959 . S
C4094 H4080 0.961 . S
C4094 C4093 1.502 . S
C4095 H4081 0.960 . S
C4095 H4082 0.961 . S
C4095 H4083 0.959 . S
C4095 C4093 1.561 . S
C4096 C4093 1.526 . S
C4096 C4097 1.396 . S
C4096 C4101 1.390 . S
C4097 C4091 1.465 . S
C4097 C4096 1.396 . S
C4097 C4098 1.399 . S
C4098 H4084 0.929 . S
C4098 C4097 1.399 . S
C4098 C4099 1.385 . S
C4099 H4085 0.931 . S
C4099 C4098 1.385 . S
C4099 C4100 1.389 . S
C4100 C4099 1.389 . S
C4100 C4101 1.387 . S
C4101 H4086 0.930 . S
C4101 C4096 1.390 . S
C4101 C4100 1.387 . S
H4102 C4114 0.930 . S
H4103 C4116 0.930 . S
H4104 C4117 0.930 . S
H4105 C4121 0.959 . S
H4106 C4121 0.959 . S
H4107 C4121 0.961 . S
H4108 C4122 0.960 . S
H4109 C4122 0.961 . S
H4110 C4122 0.959 1_655 S
H4111 C4125 0.929 . S
H4112 C4126 0.931 . S
H4113 C4128 0.930 . S
C4114 H4102 0.930 . S
C4114 C4115 1.420 . S
C4114 C4119 1.399 . S
C4115 C4114 1.420 . S
C4115 C4116 1.350 1_556 S
C4116 H4103 0.930 . S
C4116 C4115 1.350 1_554 S
C4116 C4117 1.388 . S
C4117 H4104 0.930 . S
C4117 C4116 1.388 . S
C4117 C4118 1.390 . S
C4118 C4117 1.390 . S
C4118 C4119 1.394 1_554 S
C4118 C4124 1.465 . S
C4119 C4114 1.399 . S
C4119 C4118 1.394 1_556 S
C4119 C4120 1.516 . S
C4120 C4119 1.516 . S
C4120 C4121 1.502 . S
C4120 C4122 1.561 . S
C4120 C4123 1.526 . S
C4121 H4105 0.959 . S
C4121 H4106 0.959 . S
C4121 H4107 0.961 . S
C4121 C4120 1.502 . S
C4122 H4108 0.960 . S
C4122 H4109 0.961 . S
C4122 H4110 0.959 1_455 S
C4122 C4120 1.561 . S
C4123 C4120 1.526 . S
C4123 C4124 1.396 1_556 S
C4123 C4128 1.390 . S
C4124 C4118 1.465 . S
C4124 C4123 1.396 1_554 S
C4124 C4125 1.399 . S
C4125 H4111 0.929 . S
C4125 C4124 1.399 . S
C4125 C4126 1.385 . S
C4126 H4112 0.931 . S
C4126 C4125 1.385 . S
C4126 C4127 1.389 . S
C4127 C4126 1.389 . S
C4127 C4128 1.387 1_554 S
C4128 H4113 0.930 . S
C4128 C4123 1.390 . S
C4128 C4127 1.387 1_556 S
H4129 C4141 0.930 . S
H4130 C4143 0.930 . S
H4131 C4144 0.930 . S
H4132 C4148 0.959 . S
H4133 C4148 0.959 . S
H4134 C4148 0.961 . S
H4135 C4149 0.960 . S
H4136 C4149 0.961 . S
H4137 C4149 0.959 . S
H4138 C4152 0.929 . S
H4139 C4153 0.931 . S
H4140 C4155 0.930 . S
C4141 H4129 0.930 . S
C4141 C4142 1.399 . S
C4141 C4146 1.399 . S
C4142 C4141 1.399 . S
C4142 C4143 1.376 . S
C4143 H4130 0.930 . S
C4143 C4142 1.376 . S
C4143 C4144 1.388 . S
C4144 H4131 0.930 . S
C4144 C4143 1.388 . S
C4144 C4145 1.390 . S
C4145 C4144 1.390 . S
C4145 C4146 1.394 . S
C4145 C4151 1.465 . S
C4146 C4141 1.399 . S
C4146 C4145 1.394 . S
C4146 C4147 1.516 . S
C4147 C4146 1.516 . S
C4147 C4148 1.502 . S
C4147 C4149 1.561 . S
C4147 C4150 1.526 . S
C4148 H4132 0.959 . S
C4148 H4133 0.959 . S
C4148 H4134 0.961 . S
C4148 C4147 1.502 . S
C4149 H4135 0.960 . S
C4149 H4136 0.961 . S
C4149 H4137 0.959 . S
C4149 C4147 1.561 . S
C4150 C4147 1.526 . S
C4150 C4151 1.396 . S
C4150 C4155 1.390 . S
C4151 C4145 1.465 . S
C4151 C4150 1.396 . S
C4151 C4152 1.399 . S
C4152 H4138 0.929 . S
C4152 C4151 1.399 . S
C4152 C4153 1.385 . S
C4153 H4139 0.931 . S
C4153 C4152 1.385 . S
C4153 C4154 1.389 . S
C4154 C4153 1.389 . S
C4154 C4155 1.387 . S
C4155 H4140 0.930 . S
C4155 C4150 1.390 . S
C4155 C4154 1.387 . S
H4156 C4168 0.930 . S
H4157 C4170 0.930 . S
H4158 C4171 0.930 . S
H4159 C4175 0.959 . S
H4160 C4175 0.959 . S
H4161 C4175 0.961 . S
H4162 C4176 0.960 . S
H4163 C4176 0.961 . S
H4164 C4176 0.959 . S
H4165 C4179 0.929 . S
H4166 C4180 0.931 . S
H4167 C4182 0.930 . S
C4168 H4156 0.930 . S
C4168 C4169 1.399 . S
C4168 C4173 1.399 . S
C4169 C4168 1.399 . S
C4169 C4170 1.376 . S
C4170 H4157 0.930 . S
C4170 C4169 1.376 . S
C4170 C4171 1.388 . S
C4171 H4158 0.930 . S
C4171 C4170 1.388 . S
C4171 C4172 1.390 . S
C4172 C4171 1.390 . S
C4172 C4173 1.394 . S
C4172 C4178 1.465 . S
C4173 C4168 1.399 . S
C4173 C4172 1.394 . S
C4173 C4174 1.516 . S
C4174 C4173 1.516 . S
C4174 C4175 1.502 . S
C4174 C4176 1.561 . S
C4174 C4177 1.526 . S
C4175 H4159 0.959 . S
C4175 H4160 0.959 . S
C4175 H4161 0.961 . S
C4175 C4174 1.502 . S
C4176 H4162 0.960 . S
C4176 H4163 0.961 . S
C4176 H4164 0.959 . S
C4176 C4174 1.561 . S
C4177 C4174 1.526 . S
C4177 C4178 1.396 . S
C4177 C4182 1.390 . S
C4178 C4172 1.465 . S
C4178 C4177 1.396 . S
C4178 C4179 1.399 . S
C4179 H4165 0.929 . S
C4179 C4178 1.399 . S
C4179 C4180 1.385 . S
C4180 H4166 0.931 . S
C4180 C4179 1.385 . S
C4180 C4181 1.389 . S
C4181 C4180 1.389 . S
C4181 C4182 1.387 . S
C4182 H4167 0.930 . S
C4182 C4177 1.390 . S
C4182 C4181 1.387 . S
H4183 C4195 0.930 . S
H4184 C4197 0.930 . S
H4185 C4198 0.930 . S
H4186 C4202 0.959 . S
H4187 C4202 0.959 . S
H4188 C4202 0.961 . S
H4189 C4203 0.960 . S
H4190 C4203 0.961 . S
H4191 C4203 0.959 . S
H4192 C4206 0.929 . S
H4193 C4207 0.931 . S
H4194 C4209 0.930 . S
C4195 H4183 0.930 . S
C4195 C4196 1.399 . S
C4195 C4200 1.399 . S
C4196 C4195 1.399 . S
C4196 C4197 1.376 . S
C4197 H4184 0.930 . S
C4197 C4196 1.376 . S
C4197 C4198 1.388 . S
C4198 H4185 0.930 . S
C4198 C4197 1.388 . S
C4198 C4199 1.390 . S
C4199 C4198 1.390 . S
C4199 C4200 1.394 . S
C4199 C4205 1.465 . S
C4200 C4195 1.399 . S
C4200 C4199 1.394 . S
C4200 C4201 1.516 . S
C4201 C4200 1.516 . S
C4201 C4202 1.502 . S
C4201 C4203 1.561 . S
C4201 C4204 1.526 . S
C4202 H4186 0.959 . S
C4202 H4187 0.959 . S
C4202 H4188 0.961 . S
C4202 C4201 1.502 . S
C4203 H4189 0.960 . S
C4203 H4190 0.961 . S
C4203 H4191 0.959 . S
C4203 C4201 1.561 . S
C4204 C4201 1.526 . S
C4204 C4205 1.396 . S
C4204 C4209 1.390 . S
C4205 C4199 1.465 . S
C4205 C4204 1.396 . S
C4205 C4206 1.399 . S
C4206 H4192 0.929 . S
C4206 C4205 1.399 . S
C4206 C4207 1.385 . S
C4207 H4193 0.931 . S
C4207 C4206 1.385 . S
C4207 C4208 1.389 . S
C4208 C4207 1.389 . S
C4208 C4209 1.387 . S
C4209 H4194 0.930 . S
C4209 C4204 1.390 . S
C4209 C4208 1.387 . S
H4210 C4222 0.930 . S
H4211 C4224 0.930 . S
H4212 C4225 0.930 . S
H4213 C4229 0.959 . S
H4214 C4229 0.959 . S
H4215 C4229 0.961 . S
H4216 C4230 0.960 . S
H4217 C4230 0.961 . S
H4218 C4230 0.959 . S
H4219 C4233 0.929 . S
H4220 C4234 0.931 . S
H4221 C4236 0.930 . S
C4222 H4210 0.930 . S
C4222 C4223 1.399 . S
C4222 C4227 1.399 . S
C4223 C4222 1.399 . S
C4223 C4224 1.376 . S
C4224 H4211 0.930 . S
C4224 C4223 1.376 . S
C4224 C4225 1.388 . S
C4225 H4212 0.930 . S
C4225 C4224 1.388 . S
C4225 C4226 1.390 . S
C4226 C4225 1.390 . S
C4226 C4227 1.394 . S
C4226 C4232 1.465 . S
C4227 C4222 1.399 . S
C4227 C4226 1.394 . S
C4227 C4228 1.516 . S
C4228 C4227 1.516 . S
C4228 C4229 1.502 . S
C4228 C4230 1.561 . S
C4228 C4231 1.526 . S
C4229 H4213 0.959 . S
C4229 H4214 0.959 . S
C4229 H4215 0.961 . S
C4229 C4228 1.502 . S
C4230 H4216 0.960 . S
C4230 H4217 0.961 . S
C4230 H4218 0.959 . S
C4230 C4228 1.561 . S
C4231 C4228 1.526 . S
C4231 C4232 1.396 . S
C4231 C4236 1.390 . S
C4232 C4226 1.465 . S
C4232 C4231 1.396 . S
C4232 C4233 1.399 . S
C4233 H4219 0.929 . S
C4233 C4232 1.399 . S
C4233 C4234 1.385 . S
C4234 H4220 0.931 . S
C4234 C4233 1.385 . S
C4234 C4235 1.389 . S
C4235 C4234 1.389 . S
C4235 C4236 1.387 . S
C4236 H4221 0.930 . S
C4236 C4231 1.390 . S
C4236 C4235 1.387 . S
H4237 C4249 0.930 . S
H4238 C4251 0.930 . S
H4239 C4252 0.930 . S
H4240 C4256 0.959 . S
H4241 C4256 0.959 . S
H4242 C4256 0.961 . S
H4243 C4257 0.960 . S
H4244 C4257 0.961 . S
H4245 C4257 0.959 . S
H4246 C4260 0.929 . S
H4247 C4261 0.931 . S
H4248 C4263 0.930 . S
C4249 H4237 0.930 . S
C4249 C4250 1.399 . S
C4249 C4254 1.399 . S
C4250 C4249 1.399 . S
C4250 C4251 1.376 . S
C4251 H4238 0.930 . S
C4251 C4250 1.376 . S
C4251 C4252 1.388 . S
C4252 H4239 0.930 . S
C4252 C4251 1.388 . S
C4252 C4253 1.390 . S
C4253 C4252 1.390 . S
C4253 C4254 1.394 . S
C4253 C4259 1.465 . S
C4254 C4249 1.399 . S
C4254 C4253 1.394 . S
C4254 C4255 1.516 . S
C4255 C4254 1.516 . S
C4255 C4256 1.502 . S
C4255 C4257 1.561 . S
C4255 C4258 1.526 . S
C4256 H4240 0.959 . S
C4256 H4241 0.959 . S
C4256 H4242 0.961 . S
C4256 C4255 1.502 . S
C4257 H4243 0.960 . S
C4257 H4244 0.961 . S
C4257 H4245 0.959 . S
C4257 C4255 1.561 . S
C4258 C4255 1.526 . S
C4258 C4259 1.396 . S
C4258 C4263 1.390 . S
C4259 C4253 1.465 . S
C4259 C4258 1.396 . S
C4259 C4260 1.399 . S
C4260 H4246 0.929 . S
C4260 C4259 1.399 . S
C4260 C4261 1.385 . S
C4261 H4247 0.931 . S
C4261 C4260 1.385 . S
C4261 C4262 1.389 . S
C4262 C4261 1.389 . S
C4262 C4263 1.387 . S
C4263 H4248 0.930 . S
C4263 C4258 1.390 . S
C4263 C4262 1.387 . S
H4264 C4276 0.930 . S
H4265 C4278 0.930 . S
H4266 C4279 0.930 . S
H4267 C4283 0.959 . S
H4268 C4283 0.959 . S
H4269 C4283 0.961 . S
H4270 C4284 0.960 . S
H4271 C4284 0.961 . S
H4272 C4284 0.959 . S
H4273 C4287 0.929 . S
H4274 C4288 0.931 . S
H4275 C4290 0.930 . S
C4276 H4264 0.930 . S
C4276 C4277 1.399 . S
C4276 C4281 1.399 . S
C4277 C4276 1.399 . S
C4277 C4278 1.376 . S
C4278 H4265 0.930 . S
C4278 C4277 1.376 . S
C4278 C4279 1.388 . S
C4279 H4266 0.930 . S
C4279 C4278 1.388 . S
C4279 C4280 1.390 . S
C4280 C4279 1.390 . S
C4280 C4281 1.394 . S
C4280 C4286 1.465 . S
C4281 C4276 1.399 . S
C4281 C4280 1.394 . S
C4281 C4282 1.516 . S
C4282 C4281 1.516 . S
C4282 C4283 1.502 . S
C4282 C4284 1.561 . S
C4282 C4285 1.526 . S
C4283 H4267 0.959 . S
C4283 H4268 0.959 . S
C4283 H4269 0.961 . S
C4283 C4282 1.502 . S
C4284 H4270 0.960 . S
C4284 H4271 0.961 . S
C4284 H4272 0.959 . S
C4284 C4282 1.561 . S
C4285 C4282 1.526 . S
C4285 C4286 1.396 . S
C4285 C4290 1.390 . S
C4286 C4280 1.465 . S
C4286 C4285 1.396 . S
C4286 C4287 1.399 . S
C4287 H4273 0.929 . S
C4287 C4286 1.399 . S
C4287 C4288 1.385 . S
C4288 H4274 0.931 . S
C4288 C4287 1.385 . S
C4288 C4289 1.389 . S
C4289 C4288 1.389 . S
C4289 C4290 1.387 . S
C4290 H4275 0.930 . S
C4290 C4285 1.390 . S
C4290 C4289 1.387 . S
H4291 C4303 0.930 . S
H4292 C4305 0.930 . S
H4293 C4306 0.930 . S
H4294 C4310 0.959 . S
H4295 C4310 0.959 . S
H4296 C4310 0.961 . S
H4297 C4311 0.960 . S
H4298 C4311 0.961 . S
H4299 C4311 0.959 . S
H4300 C4314 0.929 . S
H4301 C4315 0.931 . S
H4302 C4317 0.930 . S
C4303 H4291 0.930 . S
C4303 C4304 1.399 . S
C4303 C4308 1.399 . S
C4304 C4303 1.399 . S
C4304 C4305 1.376 . S
C4305 H4292 0.930 . S
C4305 C4304 1.376 . S
C4305 C4306 1.388 . S
C4306 H4293 0.930 . S
C4306 C4305 1.388 . S
C4306 C4307 1.390 . S
C4307 C4306 1.390 . S
C4307 C4308 1.394 . S
C4307 C4313 1.465 . S
C4308 C4303 1.399 . S
C4308 C4307 1.394 . S
C4308 C4309 1.516 . S
C4309 C4308 1.516 . S
C4309 C4310 1.502 . S
C4309 C4311 1.561 . S
C4309 C4312 1.526 . S
C4310 H4294 0.959 . S
C4310 H4295 0.959 . S
C4310 H4296 0.961 . S
C4310 C4309 1.502 . S
C4311 H4297 0.960 . S
C4311 H4298 0.961 . S
C4311 H4299 0.959 . S
C4311 C4309 1.561 . S
C4312 C4309 1.526 . S
C4312 C4313 1.396 . S
C4312 C4317 1.390 . S
C4313 C4307 1.465 . S
C4313 C4312 1.396 . S
C4313 C4314 1.399 . S
C4314 H4300 0.929 . S
C4314 C4313 1.399 . S
C4314 C4315 1.385 . S
C4315 H4301 0.931 . S
C4315 C4314 1.385 . S
C4315 C4316 1.389 . S
C4316 C4315 1.389 . S
C4316 C4317 1.387 . S
C4317 H4302 0.930 . S
C4317 C4312 1.390 . S
C4317 C4316 1.387 . S
H4318 C4330 0.930 . S
H4319 C4332 0.930 . S
H4320 C4333 0.930 . S
H4321 C4337 0.959 . S
H4322 C4337 0.959 . S
H4323 C4337 0.961 . S
H4324 C4338 0.960 . S
H4325 C4338 0.961 . S
H4326 C4338 0.959 . S
H4327 C4341 0.929 . S
H4328 C4342 0.931 . S
H4329 C4344 0.930 . S
C4330 H4318 0.930 . S
C4330 C4331 1.399 . S
C4330 C4335 1.399 . S
C4331 C4330 1.399 . S
C4331 C4332 1.376 . S
C4332 H4319 0.930 . S
C4332 C4331 1.376 . S
C4332 C4333 1.388 . S
C4333 H4320 0.930 . S
C4333 C4332 1.388 . S
C4333 C4334 1.390 . S
C4334 C4333 1.390 . S
C4334 C4335 1.394 . S
C4334 C4340 1.465 . S
C4335 C4330 1.399 . S
C4335 C4334 1.394 . S
C4335 C4336 1.516 . S
C4336 C4335 1.516 . S
C4336 C4337 1.502 . S
C4336 C4338 1.561 . S
C4336 C4339 1.526 . S
C4337 H4321 0.959 . S
C4337 H4322 0.959 . S
C4337 H4323 0.961 . S
C4337 C4336 1.502 . S
C4338 H4324 0.960 . S
C4338 H4325 0.961 . S
C4338 H4326 0.959 . S
C4338 C4336 1.561 . S
C4339 C4336 1.526 . S
C4339 C4340 1.396 . S
C4339 C4344 1.390 . S
C4340 C4334 1.465 . S
C4340 C4339 1.396 . S
C4340 C4341 1.399 . S
C4341 H4327 0.929 . S
C4341 C4340 1.399 . S
C4341 C4342 1.385 . S
C4342 H4328 0.931 . S
C4342 C4341 1.385 . S
C4342 C4343 1.389 . S
C4343 C4342 1.389 . S
C4343 C4344 1.387 . S
C4344 H4329 0.930 . S
C4344 C4339 1.390 . S
C4344 C4343 1.387 . S
H4345 C4357 0.930 . S
H4346 C4359 0.930 . S
H4347 C4360 0.930 . S
H4348 C4364 0.959 . S
H4349 C4364 0.959 . S
H4350 C4364 0.961 . S
H4351 C4365 0.960 . S
H4352 C4365 0.961 . S
H4353 C4365 0.959 . S
H4354 C4368 0.929 . S
H4355 C4369 0.931 . S
H4356 C4371 0.930 . S
C4357 H4345 0.930 . S
C4357 C4358 1.399 . S
C4357 C4362 1.399 . S
C4358 C4357 1.399 . S
C4358 C4359 1.376 . S
C4359 H4346 0.930 . S
C4359 C4358 1.376 . S
C4359 C4360 1.388 . S
C4360 H4347 0.930 . S
C4360 C4359 1.388 . S
C4360 C4361 1.390 . S
C4361 C4360 1.390 . S
C4361 C4362 1.394 . S
C4361 C4367 1.465 . S
C4362 C4357 1.399 . S
C4362 C4361 1.394 . S
C4362 C4363 1.516 . S
C4363 C4362 1.516 . S
C4363 C4364 1.502 . S
C4363 C4365 1.561 . S
C4363 C4366 1.526 . S
C4364 H4348 0.959 . S
C4364 H4349 0.959 . S
C4364 H4350 0.961 . S
C4364 C4363 1.502 . S
C4365 H4351 0.960 . S
C4365 H4352 0.961 . S
C4365 H4353 0.959 . S
C4365 C4363 1.561 . S
C4366 C4363 1.526 . S
C4366 C4367 1.396 . S
C4366 C4371 1.390 . S
C4367 C4361 1.465 . S
C4367 C4366 1.396 . S
C4367 C4368 1.399 . S
C4368 H4354 0.929 . S
C4368 C4367 1.399 . S
C4368 C4369 1.385 . S
C4369 H4355 0.931 . S
C4369 C4368 1.385 . S
C4369 C4370 1.389 . S
C4370 C4369 1.389 . S
C4370 C4371 1.387 . S
C4371 H4356 0.930 . S
C4371 C4366 1.390 . S
C4371 C4370 1.387 . S
H4372 C4384 0.930 . S
H4373 C4386 0.930 . S
H4374 C4387 0.930 . S
H4375 C4391 0.959 . S
H4376 C4391 0.959 . S
H4377 C4391 0.961 . S
H4378 C4392 0.960 . S
H4379 C4392 0.961 . S
H4380 C4392 0.959 . S
H4381 C4395 0.929 . S
H4382 C4396 0.931 . S
H4383 C4398 0.930 . S
C4384 H4372 0.930 . S
C4384 C4385 1.399 . S
C4384 C4389 1.399 . S
C4385 C4384 1.399 . S
C4385 C4386 1.376 . S
C4386 H4373 0.930 . S
C4386 C4385 1.376 . S
C4386 C4387 1.388 . S
C4387 H4374 0.930 . S
C4387 C4386 1.388 . S
C4387 C4388 1.390 . S
C4388 C4387 1.390 . S
C4388 C4389 1.394 . S
C4388 C4394 1.465 . S
C4389 C4384 1.399 . S
C4389 C4388 1.394 . S
C4389 C4390 1.516 . S
C4390 C4389 1.516 . S
C4390 C4391 1.502 . S
C4390 C4392 1.561 . S
C4390 C4393 1.526 . S
C4391 H4375 0.959 . S
C4391 H4376 0.959 . S
C4391 H4377 0.961 . S
C4391 C4390 1.502 . S
C4392 H4378 0.960 . S
C4392 H4379 0.961 . S
C4392 H4380 0.959 . S
C4392 C4390 1.561 . S
C4393 C4390 1.526 . S
C4393 C4394 1.396 . S
C4393 C4398 1.390 . S
C4394 C4388 1.465 . S
C4394 C4393 1.396 . S
C4394 C4395 1.399 . S
C4395 H4381 0.929 . S
C4395 C4394 1.399 . S
C4395 C4396 1.385 . S
C4396 H4382 0.931 . S
C4396 C4395 1.385 . S
C4396 C4397 1.389 . S
C4397 C4396 1.389 . S
C4397 C4398 1.387 . S
C4398 H4383 0.930 . S
C4398 C4393 1.390 . S
C4398 C4397 1.387 . S
H4399 C4411 0.930 . S
H4400 C4413 0.930 . S
H4401 C4414 0.930 . S
H4402 C4418 0.959 . S
H4403 C4418 0.959 . S
H4404 C4418 0.961 . S
H4405 C4419 0.960 . S
H4406 C4419 0.961 . S
H4407 C4419 0.959 . S
H4408 C4422 0.929 . S
H4409 C4423 0.931 . S
H4410 C4425 0.930 . S
C4411 H4399 0.930 . S
C4411 C4412 1.399 . S
C4411 C4416 1.399 . S
C4412 C4411 1.399 . S
C4412 C4413 1.376 . S
C4413 H4400 0.930 . S
C4413 C4412 1.376 . S
C4413 C4414 1.388 . S
C4414 H4401 0.930 . S
C4414 C4413 1.388 . S
C4414 C4415 1.390 . S
C4415 C4414 1.390 . S
C4415 C4416 1.394 . S
C4415 C4421 1.465 . S
C4416 C4411 1.399 . S
C4416 C4415 1.394 . S
C4416 C4417 1.516 . S
C4417 C4416 1.516 . S
C4417 C4418 1.502 . S
C4417 C4419 1.561 . S
C4417 C4420 1.526 . S
C4418 H4402 0.959 . S
C4418 H4403 0.959 . S
C4418 H4404 0.961 . S
C4418 C4417 1.502 . S
C4419 H4405 0.960 . S
C4419 H4406 0.961 . S
C4419 H4407 0.959 . S
C4419 C4417 1.561 . S
C4420 C4417 1.526 . S
C4420 C4421 1.396 . S
C4420 C4425 1.390 . S
C4421 C4415 1.465 . S
C4421 C4420 1.396 . S
C4421 C4422 1.399 . S
C4422 H4408 0.929 . S
C4422 C4421 1.399 . S
C4422 C4423 1.385 . S
C4423 H4409 0.931 . S
C4423 C4422 1.385 . S
C4423 C4424 1.389 . S
C4424 C4423 1.389 . S
C4424 C4425 1.387 . S
C4425 H4410 0.930 . S
C4425 C4420 1.390 . S
C4425 C4424 1.387 . S
H4426 C4438 0.930 . S
H4427 C4440 0.930 . S
H4428 C4441 0.930 . S
H4429 C4445 0.959 . S
H4430 C4445 0.959 . S
H4431 C4445 0.961 . S
H4432 C4446 0.960 . S
H4433 C4446 0.961 . S
H4434 C4446 0.959 . S
H4435 C4449 0.929 . S
H4436 C4450 0.931 . S
H4437 C4452 0.930 . S
C4438 H4426 0.930 . S
C4438 C4439 1.399 . S
C4438 C4443 1.399 . S
C4439 C4438 1.399 . S
C4439 C4440 1.376 . S
C4440 H4427 0.930 . S
C4440 C4439 1.376 . S
C4440 C4441 1.388 . S
C4441 H4428 0.930 . S
C4441 C4440 1.388 . S
C4441 C4442 1.390 . S
C4442 C4441 1.390 . S
C4442 C4443 1.394 . S
C4442 C4448 1.465 . S
C4443 C4438 1.399 . S
C4443 C4442 1.394 . S
C4443 C4444 1.516 . S
C4444 C4443 1.516 . S
C4444 C4445 1.502 . S
C4444 C4446 1.561 . S
C4444 C4447 1.526 . S
C4445 H4429 0.959 . S
C4445 H4430 0.959 . S
C4445 H4431 0.961 . S
C4445 C4444 1.502 . S
C4446 H4432 0.960 . S
C4446 H4433 0.961 . S
C4446 H4434 0.959 . S
C4446 C4444 1.561 . S
C4447 C4444 1.526 . S
C4447 C4448 1.396 . S
C4447 C4452 1.390 . S
C4448 C4442 1.465 . S
C4448 C4447 1.396 . S
C4448 C4449 1.399 . S
C4449 H4435 0.929 . S
C4449 C4448 1.399 . S
C4449 C4450 1.385 . S
C4450 H4436 0.931 . S
C4450 C4449 1.385 . S
C4450 C4451 1.389 . S
C4451 C4450 1.389 . S
C4451 C4452 1.387 . S
C4452 H4437 0.930 . S
C4452 C4447 1.390 . S
C4452 C4451 1.387 . S
H4453 C4465 0.930 . S
H4454 C4467 0.930 . S
H4455 C4468 0.930 . S
H4456 C4472 0.959 . S
H4457 C4472 0.959 . S
H4458 C4472 0.961 . S
H4459 C4473 0.960 . S
H4460 C4473 0.961 . S
H4461 C4473 0.959 . S
H4462 C4476 0.929 . S
H4463 C4477 0.931 . S
H4464 C4479 0.930 . S
C4465 H4453 0.930 . S
C4465 C4466 1.399 . S
C4465 C4470 1.399 . S
C4466 C4465 1.399 . S
C4466 C4467 1.376 . S
C4467 H4454 0.930 . S
C4467 C4466 1.376 . S
C4467 C4468 1.388 . S
C4468 H4455 0.930 . S
C4468 C4467 1.388 . S
C4468 C4469 1.390 . S
C4469 C4468 1.390 . S
C4469 C4470 1.394 . S
C4469 C4475 1.465 . S
C4470 C4465 1.399 . S
C4470 C4469 1.394 . S
C4470 C4471 1.516 . S
C4471 C4470 1.516 . S
C4471 C4472 1.502 . S
C4471 C4473 1.561 . S
C4471 C4474 1.526 . S
C4472 H4456 0.959 . S
C4472 H4457 0.959 . S
C4472 H4458 0.961 . S
C4472 C4471 1.502 . S
C4473 H4459 0.960 . S
C4473 H4460 0.961 . S
C4473 H4461 0.959 . S
C4473 C4471 1.561 . S
C4474 C4471 1.526 . S
C4474 C4475 1.396 . S
C4474 C4479 1.390 . S
C4475 C4469 1.465 . S
C4475 C4474 1.396 . S
C4475 C4476 1.399 . S
C4476 H4462 0.929 . S
C4476 C4475 1.399 . S
C4476 C4477 1.385 . S
C4477 H4463 0.931 . S
C4477 C4476 1.385 . S
C4477 C4478 1.389 . S
C4478 C4477 1.389 . S
C4478 C4479 1.387 . S
C4479 H4464 0.930 . S
C4479 C4474 1.390 . S
C4479 C4478 1.387 . S
H4480 C4492 0.930 . S
H4481 C4494 0.930 . S
H4482 C4495 0.930 . S
H4483 C4499 0.959 . S
H4484 C4499 0.959 . S
H4485 C4499 0.961 . S
H4486 C4500 0.960 . S
H4487 C4500 0.961 . S
H4488 C4500 0.959 . S
H4489 C4503 0.929 . S
H4490 C4504 0.931 . S
H4491 C4506 0.930 . S
C4492 H4480 0.930 . S
C4492 C4493 1.399 . S
C4492 C4497 1.399 . S
C4493 C4492 1.399 . S
C4493 C4494 1.376 . S
C4494 H4481 0.930 . S
C4494 C4493 1.376 . S
C4494 C4495 1.388 . S
C4495 H4482 0.930 . S
C4495 C4494 1.388 . S
C4495 C4496 1.390 . S
C4496 C4495 1.390 . S
C4496 C4497 1.394 . S
C4496 C4502 1.465 . S
C4497 C4492 1.399 . S
C4497 C4496 1.394 . S
C4497 C4498 1.516 . S
C4498 C4497 1.516 . S
C4498 C4499 1.502 . S
C4498 C4500 1.561 . S
C4498 C4501 1.526 . S
C4499 H4483 0.959 . S
C4499 H4484 0.959 . S
C4499 H4485 0.961 . S
C4499 C4498 1.502 . S
C4500 H4486 0.960 . S
C4500 H4487 0.961 . S
C4500 H4488 0.959 . S
C4500 C4498 1.561 . S
C4501 C4498 1.526 . S
C4501 C4502 1.396 . S
C4501 C4506 1.390 . S
C4502 C4496 1.465 . S
C4502 C4501 1.396 . S
C4502 C4503 1.399 . S
C4503 H4489 0.929 . S
C4503 C4502 1.399 . S
C4503 C4504 1.385 . S
C4504 H4490 0.931 . S
C4504 C4503 1.385 . S
C4504 C4505 1.389 . S
C4505 C4504 1.389 . S
C4505 C4506 1.387 . S
C4506 H4491 0.930 . S
C4506 C4501 1.390 . S
C4506 C4505 1.387 . S
H4507 C4519 0.930 . S
H4508 C4521 0.930 . S
H4509 C4522 0.930 . S
H4510 C4526 0.959 . S
H4511 C4526 0.959 . S
H4512 C4526 0.961 . S
H4513 C4527 0.960 . S
H4514 C4527 0.961 . S
H4515 C4527 0.959 . S
H4516 C4530 0.929 . S
H4517 C4531 0.931 . S
H4518 C4533 0.930 . S
C4519 H4507 0.930 . S
C4519 C4520 1.399 . S
C4519 C4524 1.399 . S
C4520 C4519 1.399 . S
C4520 C4521 1.376 . S
C4521 H4508 0.930 . S
C4521 C4520 1.376 . S
C4521 C4522 1.388 . S
C4522 H4509 0.930 . S
C4522 C4521 1.388 . S
C4522 C4523 1.390 . S
C4523 C4522 1.390 . S
C4523 C4524 1.394 . S
C4523 C4529 1.465 . S
C4524 C4519 1.399 . S
C4524 C4523 1.394 . S
C4524 C4525 1.516 . S
C4525 C4524 1.516 . S
C4525 C4526 1.502 . S
C4525 C4527 1.561 . S
C4525 C4528 1.526 . S
C4526 H4510 0.959 . S
C4526 H4511 0.959 . S
C4526 H4512 0.961 . S
C4526 C4525 1.502 . S
C4527 H4513 0.960 . S
C4527 H4514 0.961 . S
C4527 H4515 0.959 . S
C4527 C4525 1.561 . S
C4528 C4525 1.526 . S
C4528 C4529 1.396 . S
C4528 C4533 1.390 . S
C4529 C4523 1.465 . S
C4529 C4528 1.396 . S
C4529 C4530 1.399 . S
C4530 H4516 0.929 . S
C4530 C4529 1.399 . S
C4530 C4531 1.385 . S
C4531 H4517 0.931 . S
C4531 C4530 1.385 . S
C4531 C4532 1.389 . S
C4532 C4531 1.389 . S
C4532 C4533 1.387 . S
C4533 H4518 0.930 . S
C4533 C4528 1.390 . S
C4533 C4532 1.387 . S
H4534 C4546 0.930 . S
H4535 C4548 0.930 . S
H4536 C4549 0.930 . S
H4537 C4553 0.959 . S
H4538 C4553 0.959 . S
H4539 C4553 0.961 . S
H4540 C4554 0.960 . S
H4541 C4554 0.961 . S
H4542 C4554 0.959 . S
H4543 C4557 0.929 . S
H4544 C4558 0.931 . S
H4545 C4560 0.930 . S
C4546 H4534 0.930 . S
C4546 C4547 1.399 . S
C4546 C4551 1.399 . S
C4547 C4546 1.399 . S
C4547 C4548 1.376 . S
C4548 H4535 0.930 . S
C4548 C4547 1.376 . S
C4548 C4549 1.388 . S
C4549 H4536 0.930 . S
C4549 C4548 1.388 . S
C4549 C4550 1.390 . S
C4550 C4549 1.390 . S
C4550 C4551 1.394 . S
C4550 C4556 1.465 . S
C4551 C4546 1.399 . S
C4551 C4550 1.394 . S
C4551 C4552 1.516 . S
C4552 C4551 1.516 . S
C4552 C4553 1.502 . S
C4552 C4554 1.561 . S
C4552 C4555 1.526 . S
C4553 H4537 0.959 . S
C4553 H4538 0.959 . S
C4553 H4539 0.961 . S
C4553 C4552 1.502 . S
C4554 H4540 0.960 . S
C4554 H4541 0.961 . S
C4554 H4542 0.959 . S
C4554 C4552 1.561 . S
C4555 C4552 1.526 . S
C4555 C4556 1.396 . S
C4555 C4560 1.390 . S
C4556 C4550 1.465 . S
C4556 C4555 1.396 . S
C4556 C4557 1.399 . S
C4557 H4543 0.929 . S
C4557 C4556 1.399 . S
C4557 C4558 1.385 . S
C4558 H4544 0.931 . S
C4558 C4557 1.385 . S
C4558 C4559 1.389 . S
C4559 C4558 1.389 . S
C4559 C4560 1.387 . S
C4560 H4545 0.930 . S
C4560 C4555 1.390 . S
C4560 C4559 1.387 . S
H4561 C4573 0.930 . S
H4562 C4575 0.930 . S
H4563 C4576 0.930 . S
H4564 C4580 0.959 . S
H4565 C4580 0.959 . S
H4566 C4580 0.961 . S
H4567 C4581 0.960 . S
H4568 C4581 0.961 . S
H4569 C4581 0.959 . S
H4570 C4584 0.929 . S
H4571 C4585 0.886 1_545 S
H4572 C4587 0.930 . S
C4573 H4561 0.930 . S
C4573 C4574 1.399 . S
C4573 C4578 1.399 . S
C4574 C4573 1.399 . S
C4574 C4575 1.376 . S
C4575 H4562 0.930 . S
C4575 C4574 1.376 . S
C4575 C4576 1.388 . S
C4576 H4563 0.930 . S
C4576 C4575 1.388 . S
C4576 C4577 1.390 . S
C4577 C4576 1.390 . S
C4577 C4578 1.394 . S
C4577 C4583 1.465 . S
C4578 C4573 1.399 . S
C4578 C4577 1.394 . S
C4578 C4579 1.516 . S
C4579 C4578 1.516 . S
C4579 C4580 1.502 . S
C4579 C4581 1.561 1_554 S
C4579 C4582 1.526 . S
C4580 H4564 0.959 . S
C4580 H4565 0.959 . S
C4580 H4566 0.961 . S
C4580 C4579 1.502 . S
C4581 H4567 0.960 . S
C4581 H4568 0.961 . S
C4581 H4569 0.959 . S
C4581 C4579 1.561 1_556 S
C4582 C4579 1.526 . S
C4582 C4583 1.396 . S
C4582 C4587 1.390 . S
C4583 C4577 1.465 . S
C4583 C4582 1.396 . S
C4583 C4584 1.399 . S
C4584 H4570 0.929 . S
C4584 C4583 1.399 . S
C4584 C4585 1.385 . S
C4585 H4571 0.886 1_565 S
C4585 C4584 1.385 . S
C4585 C4586 1.389 . S
C4586 C4585 1.389 . S
C4586 C4587 1.387 . S
C4587 H4572 0.930 . S
C4587 C4582 1.390 . S
C4587 C4586 1.387 . S
H4588 C4600 0.930 . S
H4589 C4602 0.930 . S
H4590 C4603 0.930 . S
H4591 C4607 0.959 . S
H4592 C4607 0.959 . S
H4593 C4607 0.961 . S
H4594 C4608 0.960 . S
H4595 C4608 0.961 . S
H4596 C4608 0.959 . S
H4597 C4611 0.929 . S
H4598 C4612 0.931 . S
H4599 C4614 0.930 . S
C4600 H4588 0.930 . S
C4600 C4601 1.399 . S
C4600 C4605 1.399 . S
C4601 C4600 1.399 . S
C4601 C4602 1.376 . S
C4602 H4589 0.930 . S
C4602 C4601 1.376 . S
C4602 C4603 1.388 . S
C4603 H4590 0.930 . S
C4603 C4602 1.388 . S
C4603 C4604 1.390 . S
C4604 C4603 1.390 . S
C4604 C4605 1.394 . S
C4604 C4610 1.465 . S
C4605 C4600 1.399 . S
C4605 C4604 1.394 . S
C4605 C4606 1.516 . S
C4606 C4605 1.516 . S
C4606 C4607 1.502 . S
C4606 C4608 1.561 . S
C4606 C4609 1.526 . S
C4607 H4591 0.959 . S
C4607 H4592 0.959 . S
C4607 H4593 0.961 . S
C4607 C4606 1.502 . S
C4608 H4594 0.960 . S
C4608 H4595 0.961 . S
C4608 H4596 0.959 . S
C4608 C4606 1.561 . S
C4609 C4606 1.526 . S
C4609 C4610 1.396 . S
C4609 C4614 1.390 . S
C4610 C4604 1.465 . S
C4610 C4609 1.396 . S
C4610 C4611 1.399 . S
C4611 H4597 0.929 . S
C4611 C4610 1.399 . S
C4611 C4612 1.385 . S
C4612 H4598 0.931 . S
C4612 C4611 1.385 . S
C4612 C4613 1.389 . S
C4613 C4612 1.389 . S
C4613 C4614 1.387 . S
C4614 H4599 0.930 . S
C4614 C4609 1.390 . S
C4614 C4613 1.387 . S
H4615 C4627 0.930 . S
H4616 C4629 0.930 . S
H4617 C4630 0.930 . S
H4618 C4634 0.959 . S
H4619 C4634 0.959 . S
H4620 C4634 0.961 . S
H4621 C4635 0.960 . S
H4622 C4635 0.961 . S
H4623 C4635 0.959 . S
H4624 C4638 0.929 . S
H4625 C4639 0.931 . S
H4626 C4641 0.930 . S
C4627 H4615 0.930 . S
C4627 C4628 1.399 . S
C4627 C4632 1.399 . S
C4628 C4627 1.399 . S
C4628 C4629 1.376 . S
C4629 H4616 0.930 . S
C4629 C4628 1.376 . S
C4629 C4630 1.388 . S
C4630 H4617 0.930 . S
C4630 C4629 1.388 . S
C4630 C4631 1.390 . S
C4631 C4630 1.390 . S
C4631 C4632 1.394 . S
C4631 C4637 1.465 . S
C4632 C4627 1.399 . S
C4632 C4631 1.394 . S
C4632 C4633 1.516 . S
C4633 C4632 1.516 . S
C4633 C4634 1.502 . S
C4633 C4635 1.561 . S
C4633 C4636 1.526 . S
C4634 H4618 0.959 . S
C4634 H4619 0.959 . S
C4634 H4620 0.961 . S
C4634 C4633 1.502 . S
C4635 H4621 0.960 . S
C4635 H4622 0.961 . S
C4635 H4623 0.959 . S
C4635 C4633 1.561 . S
C4636 C4633 1.526 . S
C4636 C4637 1.396 . S
C4636 C4641 1.390 . S
C4637 C4631 1.465 . S
C4637 C4636 1.396 . S
C4637 C4638 1.399 . S
C4638 H4624 0.929 . S
C4638 C4637 1.399 . S
C4638 C4639 1.385 . S
C4639 H4625 0.931 . S
C4639 C4638 1.385 . S
C4639 C4640 1.389 . S
C4640 C4639 1.389 . S
C4640 C4641 1.387 . S
C4641 H4626 0.930 . S
C4641 C4636 1.390 . S
C4641 C4640 1.387 . S
H4642 C4654 0.930 . S
H4643 C4656 0.930 . S
H4644 C4657 0.930 . S
H4645 C4661 0.959 . S
H4646 C4661 0.959 . S
H4647 C4661 0.961 . S
H4648 C4662 0.960 . S
H4649 C4662 0.961 . S
H4650 C4662 0.959 . S
H4651 C4665 0.929 . S
H4652 C4666 0.931 . S
H4653 C4668 0.930 . S
C4654 H4642 0.930 . S
C4654 C4655 1.399 . S
C4654 C4659 1.399 . S
C4655 C4654 1.399 . S
C4655 C4656 1.376 . S
C4656 H4643 0.930 . S
C4656 C4655 1.376 . S
C4656 C4657 1.388 . S
C4657 H4644 0.930 . S
C4657 C4656 1.388 . S
C4657 C4658 1.390 . S
C4658 C4657 1.390 . S
C4658 C4659 1.394 . S
C4658 C4664 1.465 . S
C4659 C4654 1.399 . S
C4659 C4658 1.394 . S
C4659 C4660 1.516 . S
C4660 C4659 1.516 . S
C4660 C4661 1.502 . S
C4660 C4662 1.561 . S
C4660 C4663 1.526 . S
C4661 H4645 0.959 . S
C4661 H4646 0.959 . S
C4661 H4647 0.961 . S
C4661 C4660 1.502 . S
C4662 H4648 0.960 . S
C4662 H4649 0.961 . S
C4662 H4650 0.959 . S
C4662 C4660 1.561 . S
C4663 C4660 1.526 . S
C4663 C4664 1.396 . S
C4663 C4668 1.390 . S
C4664 C4658 1.465 . S
C4664 C4663 1.396 . S
C4664 C4665 1.399 . S
C4665 H4651 0.929 . S
C4665 C4664 1.399 . S
C4665 C4666 1.385 . S
C4666 H4652 0.931 . S
C4666 C4665 1.385 . S
C4666 C4667 1.389 . S
C4667 C4666 1.389 . S
C4667 C4668 1.387 . S
C4668 H4653 0.930 . S
C4668 C4663 1.390 . S
C4668 C4667 1.387 . S
H4669 C4681 0.930 . S
H4670 C4683 0.930 . S
H4671 C4684 0.930 . S
H4672 C4688 0.959 . S
H4673 C4688 0.959 . S
H4674 C4688 0.961 . S
H4675 C4689 0.960 . S
H4676 C4689 0.961 . S
H4677 C4689 0.959 . S
H4678 C4692 0.929 . S
H4679 C4693 0.931 . S
H4680 C4695 0.930 . S
C4681 H4669 0.930 . S
C4681 C4682 1.399 . S
C4681 C4686 1.399 . S
C4682 C4681 1.399 . S
C4682 C4683 1.376 . S
C4683 H4670 0.930 . S
C4683 C4682 1.376 . S
C4683 C4684 1.388 . S
C4684 H4671 0.930 . S
C4684 C4683 1.388 . S
C4684 C4685 1.390 . S
C4685 C4684 1.390 . S
C4685 C4686 1.394 . S
C4685 C4691 1.465 . S
C4686 C4681 1.399 . S
C4686 C4685 1.394 . S
C4686 C4687 1.516 . S
C4687 C4686 1.516 . S
C4687 C4688 1.502 . S
C4687 C4689 1.561 . S
C4687 C4690 1.526 . S
C4688 H4672 0.959 . S
C4688 H4673 0.959 . S
C4688 H4674 0.961 . S
C4688 C4687 1.502 . S
C4689 H4675 0.960 . S
C4689 H4676 0.961 . S
C4689 H4677 0.959 . S
C4689 C4687 1.561 . S
C4690 C4687 1.526 . S
C4690 C4691 1.396 . S
C4690 C4695 1.390 . S
C4691 C4685 1.465 . S
C4691 C4690 1.396 . S
C4691 C4692 1.399 . S
C4692 H4678 0.929 . S
C4692 C4691 1.399 . S
C4692 C4693 1.385 . S
C4693 H4679 0.931 . S
C4693 C4692 1.385 . S
C4693 C4694 1.389 . S
C4694 C4693 1.389 . S
C4694 C4695 1.387 . S
C4695 H4680 0.930 . S
C4695 C4690 1.390 . S
C4695 C4694 1.387 . S
H4696 C4708 0.930 . S
H4697 C4710 0.930 . S
H4698 C4711 0.930 . S
H4699 C4715 0.959 . S
H4700 C4715 0.959 . S
H4701 C4715 0.961 . S
H4702 C4716 0.960 . S
H4703 C4716 0.961 . S
H4704 C4716 0.959 . S
H4705 C4719 0.929 . S
H4706 C4720 0.931 . S
H4707 C4722 0.930 . S
C4708 H4696 0.930 . S
C4708 C4709 1.399 . S
C4708 C4713 1.399 . S
C4709 C4708 1.399 . S
C4709 C4710 1.376 . S
C4710 H4697 0.930 . S
C4710 C4709 1.376 . S
C4710 C4711 1.388 . S
C4711 H4698 0.930 . S
C4711 C4710 1.388 . S
C4711 C4712 1.390 . S
C4712 C4711 1.390 . S
C4712 C4713 1.394 . S
C4712 C4718 1.465 . S
C4713 C4708 1.399 . S
C4713 C4712 1.394 . S
C4713 C4714 1.516 . S
C4714 C4713 1.516 . S
C4714 C4715 1.502 . S
C4714 C4716 1.561 . S
C4714 C4717 1.526 . S
C4715 H4699 0.959 . S
C4715 H4700 0.959 . S
C4715 H4701 0.961 . S
C4715 C4714 1.502 . S
C4716 H4702 0.960 . S
C4716 H4703 0.961 . S
C4716 H4704 0.959 . S
C4716 C4714 1.561 . S
C4717 C4714 1.526 . S
C4717 C4718 1.396 . S
C4717 C4722 1.390 . S
C4718 C4712 1.465 . S
C4718 C4717 1.396 . S
C4718 C4719 1.399 . S
C4719 H4705 0.929 . S
C4719 C4718 1.399 . S
C4719 C4720 1.385 . S
C4720 H4706 0.931 . S
C4720 C4719 1.385 . S
C4720 C4721 1.389 . S
C4721 C4720 1.389 . S
C4721 C4722 1.387 . S
C4722 H4707 0.930 . S
C4722 C4717 1.390 . S
C4722 C4721 1.387 . S
H4723 C4735 0.930 . S
H4724 C4737 0.930 . S
H4725 C4738 0.930 . S
H4726 C4742 0.959 . S
H4727 C4742 0.959 . S
H4728 C4742 0.961 . S
H4729 C4743 0.960 . S
H4730 C4743 0.961 . S
H4731 C4743 0.959 . S
H4732 C4746 0.929 . S
H4733 C4747 0.931 . S
H4734 C4749 0.930 . S
C4735 H4723 0.930 . S
C4735 C4736 1.399 . S
C4735 C4740 1.399 . S
C4736 C4735 1.399 . S
C4736 C4737 1.376 . S
C4737 H4724 0.930 . S
C4737 C4736 1.376 . S
C4737 C4738 1.388 . S
C4738 H4725 0.930 . S
C4738 C4737 1.388 . S
C4738 C4739 1.390 . S
C4739 C4738 1.390 . S
C4739 C4740 1.394 . S
C4739 C4745 1.465 . S
C4740 C4735 1.399 . S
C4740 C4739 1.394 . S
C4740 C4741 1.516 . S
C4741 C4740 1.516 . S
C4741 C4742 1.502 . S
C4741 C4743 1.561 . S
C4741 C4744 1.526 . S
C4742 H4726 0.959 . S
C4742 H4727 0.959 . S
C4742 H4728 0.961 . S
C4742 C4741 1.502 . S
C4743 H4729 0.960 . S
C4743 H4730 0.961 . S
C4743 H4731 0.959 . S
C4743 C4741 1.561 . S
C4744 C4741 1.526 . S
C4744 C4745 1.396 . S
C4744 C4749 1.390 . S
C4745 C4739 1.465 . S
C4745 C4744 1.396 . S
C4745 C4746 1.399 . S
C4746 H4732 0.929 . S
C4746 C4745 1.399 . S
C4746 C4747 1.385 . S
C4747 H4733 0.931 . S
C4747 C4746 1.385 . S
C4747 C4748 1.389 . S
C4748 C4747 1.389 . S
C4748 C4749 1.387 . S
C4749 H4734 0.930 . S
C4749 C4744 1.390 . S
C4749 C4748 1.387 . S
H4750 C4762 0.930 . S
H4751 C4764 0.930 . S
H4752 C4765 0.930 . S
H4753 C4769 0.959 . S
H4754 C4769 0.959 . S
H4755 C4769 0.961 . S
H4756 C4770 0.960 . S
H4757 C4770 0.961 1_556 S
H4758 C4770 0.959 . S
H4759 C4773 0.929 . S
H4760 C4774 0.931 . S
H4761 C4776 0.930 . S
C4762 H4750 0.930 . S
C4762 C4763 1.399 . S
C4762 C4767 1.399 . S
C4763 C4762 1.399 . S
C4763 C4764 1.376 . S
C4764 H4751 0.930 . S
C4764 C4763 1.376 . S
C4764 C4765 1.388 . S
C4765 H4752 0.930 . S
C4765 C4764 1.388 . S
C4765 C4766 1.390 . S
C4766 C4765 1.390 . S
C4766 C4767 1.394 . S
C4766 C4772 1.465 . S
C4767 C4762 1.399 . S
C4767 C4766 1.394 . S
C4767 C4768 1.516 . S
C4768 C4767 1.516 . S
C4768 C4769 1.502 1_455 S
C4768 C4770 1.561 . S
C4768 C4771 1.526 . S
C4769 H4753 0.959 . S
C4769 H4754 0.959 . S
C4769 H4755 0.961 . S
C4769 C4768 1.502 1_655 S
C4770 H4756 0.960 . S
C4770 H4757 0.961 1_554 S
C4770 H4758 0.959 . S
C4770 C4768 1.561 . S
C4771 C4768 1.526 . S
C4771 C4772 1.396 . S
C4771 C4776 1.390 . S
C4772 C4766 1.465 . S
C4772 C4771 1.396 . S
C4772 C4773 1.399 . S
C4773 H4759 0.929 . S
C4773 C4772 1.399 . S
C4773 C4774 1.385 . S
C4774 H4760 0.931 . S
C4774 C4773 1.385 . S
C4774 C4775 1.389 . S
C4775 C4774 1.389 . S
C4775 C4776 1.387 . S
C4776 H4761 0.930 . S
C4776 C4771 1.390 . S
C4776 C4775 1.387 . S
H4777 C4789 0.930 . S
H4778 C4791 0.930 . S
H4779 C4792 0.930 . S
H4780 C4796 0.959 . S
H4781 C4796 0.959 . S
H4782 C4796 0.961 . S
H4783 C4797 0.960 . S
H4784 C4797 0.961 . S
H4785 C4797 0.959 . S
H4786 C4800 0.929 . S
H4787 C4801 0.931 . S
H4788 C4803 0.930 . S
C4789 H4777 0.930 . S
C4789 C4790 1.399 . S
C4789 C4794 1.399 . S
C4790 C4789 1.399 . S
C4790 C4791 1.376 . S
C4791 H4778 0.930 . S
C4791 C4790 1.376 . S
C4791 C4792 1.388 . S
C4792 H4779 0.930 . S
C4792 C4791 1.388 . S
C4792 C4793 1.390 . S
C4793 C4792 1.390 . S
C4793 C4794 1.394 . S
C4793 C4799 1.465 . S
C4794 C4789 1.399 . S
C4794 C4793 1.394 . S
C4794 C4795 1.516 . S
C4795 C4794 1.516 . S
C4795 C4796 1.502 . S
C4795 C4797 1.561 . S
C4795 C4798 1.526 . S
C4796 H4780 0.959 . S
C4796 H4781 0.959 . S
C4796 H4782 0.961 . S
C4796 C4795 1.502 . S
C4797 H4783 0.960 . S
C4797 H4784 0.961 . S
C4797 H4785 0.959 . S
C4797 C4795 1.561 . S
C4798 C4795 1.526 . S
C4798 C4799 1.396 . S
C4798 C4803 1.390 . S
C4799 C4793 1.465 . S
C4799 C4798 1.396 . S
C4799 C4800 1.399 . S
C4800 H4786 0.929 . S
C4800 C4799 1.399 . S
C4800 C4801 1.385 . S
C4801 H4787 0.931 . S
C4801 C4800 1.385 . S
C4801 C4802 1.389 . S
C4802 C4801 1.389 . S
C4802 C4803 1.387 . S
C4803 H4788 0.930 . S
C4803 C4798 1.390 . S
C4803 C4802 1.387 . S
H4804 C4816 0.930 . S
H4805 C4818 0.930 . S
H4806 C4819 0.930 . S
H4807 C4823 0.959 . S
H4808 C4823 0.959 . S
H4809 C4823 0.961 . S
H4810 C4824 0.960 . S
H4811 C4824 0.961 . S
H4812 C4824 0.959 . S
H4813 C4827 0.929 . S
H4814 C4828 0.931 . S
H4815 C4830 0.930 . S
C4816 H4804 0.930 . S
C4816 C4817 1.399 . S
C4816 C4821 1.399 . S
C4817 C4816 1.399 . S
C4817 C4818 1.376 . S
C4818 H4805 0.930 . S
C4818 C4817 1.376 . S
C4818 C4819 1.388 . S
C4819 H4806 0.930 . S
C4819 C4818 1.388 . S
C4819 C4820 1.390 . S
C4820 C4819 1.390 . S
C4820 C4821 1.394 . S
C4820 C4826 1.465 . S
C4821 C4816 1.399 . S
C4821 C4820 1.394 . S
C4821 C4822 1.516 . S
C4822 C4821 1.516 . S
C4822 C4823 1.502 . S
C4822 C4824 1.561 . S
C4822 C4825 1.526 . S
C4823 H4807 0.959 . S
C4823 H4808 0.959 . S
C4823 H4809 0.961 . S
C4823 C4822 1.502 . S
C4824 H4810 0.960 . S
C4824 H4811 0.961 . S
C4824 H4812 0.959 . S
C4824 C4822 1.561 . S
C4825 C4822 1.526 . S
C4825 C4826 1.396 . S
C4825 C4830 1.390 . S
C4826 C4820 1.465 . S
C4826 C4825 1.396 . S
C4826 C4827 1.399 . S
C4827 H4813 0.929 . S
C4827 C4826 1.399 . S
C4827 C4828 1.385 . S
C4828 H4814 0.931 . S
C4828 C4827 1.385 . S
C4828 C4829 1.389 . S
C4829 C4828 1.389 . S
C4829 C4830 1.387 . S
C4830 H4815 0.930 . S
C4830 C4825 1.390 . S
C4830 C4829 1.387 . S
H4831 C4843 0.930 . S
H4832 C4845 0.930 . S
H4833 C4846 0.930 . S
H4834 C4850 0.959 . S
H4835 C4850 0.959 . S
H4836 C4850 0.961 . S
H4837 C4851 0.960 . S
H4838 C4851 0.961 . S
H4839 C4851 0.959 . S
H4840 C4854 0.929 . S
H4841 C4855 0.931 . S
H4842 C4857 0.930 . S
C4843 H4831 0.930 . S
C4843 C4844 1.399 . S
C4843 C4848 1.399 . S
C4844 C4843 1.399 . S
C4844 C4845 1.376 . S
C4845 H4832 0.930 . S
C4845 C4844 1.376 . S
C4845 C4846 1.388 . S
C4846 H4833 0.930 . S
C4846 C4845 1.388 . S
C4846 C4847 1.390 . S
C4847 C4846 1.390 . S
C4847 C4848 1.394 . S
C4847 C4853 1.465 . S
C4848 C4843 1.399 . S
C4848 C4847 1.394 . S
C4848 C4849 1.516 . S
C4849 C4848 1.516 . S
C4849 C4850 1.502 . S
C4849 C4851 1.561 . S
C4849 C4852 1.526 . S
C4850 H4834 0.959 . S
C4850 H4835 0.959 . S
C4850 H4836 0.961 . S
C4850 C4849 1.502 . S
C4851 H4837 0.960 . S
C4851 H4838 0.961 . S
C4851 H4839 0.959 . S
C4851 C4849 1.561 . S
C4852 C4849 1.526 . S
C4852 C4853 1.396 . S
C4852 C4857 1.390 . S
C4853 C4847 1.465 . S
C4853 C4852 1.396 . S
C4853 C4854 1.399 . S
C4854 H4840 0.929 . S
C4854 C4853 1.399 . S
C4854 C4855 1.385 . S
C4855 H4841 0.931 . S
C4855 C4854 1.385 . S
C4855 C4856 1.389 . S
C4856 C4855 1.389 . S
C4856 C4857 1.387 . S
C4857 H4842 0.930 . S
C4857 C4852 1.390 . S
C4857 C4856 1.387 . S
H4858 C4870 0.930 1_655 S
H4859 C4872 0.930 . S
H4860 C4873 0.930 . S
H4861 C4877 0.959 . S
H4862 C4877 0.959 . S
H4863 C4877 0.961 . S
H4864 C4878 0.960 . S
H4865 C4878 0.961 . S
H4866 C4878 0.959 . S
H4867 C4881 0.929 . S
H4868 C4882 0.931 . S
H4869 C4884 0.930 . S
C4870 H4858 0.930 1_455 S
C4870 C4871 1.399 . S
C4870 C4875 1.399 . S
C4871 C4870 1.399 . S
C4871 C4872 1.376 . S
C4872 H4859 0.930 . S
C4872 C4871 1.376 . S
C4872 C4873 1.388 . S
C4873 H4860 0.930 . S
C4873 C4872 1.388 . S
C4873 C4874 1.390 . S
C4874 C4873 1.390 . S
C4874 C4875 1.394 . S
C4874 C4880 1.465 . S
C4875 C4870 1.399 . S
C4875 C4874 1.394 . S
C4875 C4876 1.516 . S
C4876 C4875 1.516 . S
C4876 C4877 1.502 1_455 S
C4876 C4878 1.561 . S
C4876 C4879 1.526 . S
C4877 H4861 0.959 . S
C4877 H4862 0.959 . S
C4877 H4863 0.961 . S
C4877 C4876 1.502 1_655 S
C4878 H4864 0.960 . S
C4878 H4865 0.961 . S
C4878 H4866 0.959 . S
C4878 C4876 1.561 . S
C4879 C4876 1.526 . S
C4879 C4880 1.396 . S
C4879 C4884 1.390 . S
C4880 C4874 1.465 . S
C4880 C4879 1.396 . S
C4880 C4881 1.399 . S
C4881 H4867 0.929 . S
C4881 C4880 1.399 . S
C4881 C4882 1.385 . S
C4882 H4868 0.931 . S
C4882 C4881 1.385 . S
C4882 C4883 1.389 . S
C4883 C4882 1.389 . S
C4883 C4884 1.387 . S
C4884 H4869 0.930 . S
C4884 C4879 1.390 . S
C4884 C4883 1.387 . S
H4885 C4897 0.930 . S
H4886 C4899 0.930 . S
H4887 C4900 0.930 . S
H4888 C4904 0.959 . S
H4889 C4904 0.959 . S
H4890 C4904 0.961 . S
H4891 C4905 0.960 . S
H4892 C4905 0.961 . S
H4893 C4905 0.959 . S
H4894 C4908 0.929 . S
H4895 C4909 0.931 . S
H4896 C4911 0.930 . S
C4897 H4885 0.930 . S
C4897 C4898 1.399 . S
C4897 C4902 1.399 . S
C4898 C4897 1.399 . S
C4898 C4899 1.376 . S
C4899 H4886 0.930 . S
C4899 C4898 1.376 . S
C4899 C4900 1.388 . S
C4900 H4887 0.930 . S
C4900 C4899 1.388 . S
C4900 C4901 1.390 . S
C4901 C4900 1.390 . S
C4901 C4902 1.394 . S
C4901 C4907 1.465 . S
C4902 C4897 1.399 . S
C4902 C4901 1.394 . S
C4902 C4903 1.516 . S
C4903 C4902 1.516 . S
C4903 C4904 1.502 . S
C4903 C4905 1.561 . S
C4903 C4906 1.526 . S
C4904 H4888 0.959 . S
C4904 H4889 0.959 . S
C4904 H4890 0.961 . S
C4904 C4903 1.502 . S
C4905 H4891 0.960 . S
C4905 H4892 0.961 . S
C4905 H4893 0.959 . S
C4905 C4903 1.561 . S
C4906 C4903 1.526 . S
C4906 C4907 1.396 . S
C4906 C4911 1.390 . S
C4907 C4901 1.465 . S
C4907 C4906 1.396 . S
C4907 C4908 1.399 . S
C4908 H4894 0.929 . S
C4908 C4907 1.399 . S
C4908 C4909 1.385 . S
C4909 H4895 0.931 . S
C4909 C4908 1.385 . S
C4909 C4910 1.389 . S
C4910 C4909 1.389 . S
C4910 C4911 1.387 . S
C4911 H4896 0.930 . S
C4911 C4906 1.390 . S
C4911 C4910 1.387 . S
H4912 C4924 0.930 . S
H4913 C4926 0.930 . S
H4914 C4927 0.930 . S
H4915 C4931 0.959 . S
H4916 C4931 0.959 . S
H4917 C4931 0.961 . S
H4918 C4932 0.960 . S
H4919 C4932 0.961 . S
H4920 C4932 0.959 . S
H4921 C4935 0.929 . S
H4922 C4936 0.931 . S
H4923 C4938 0.930 . S
C4924 H4912 0.930 . S
C4924 C4925 1.399 . S
C4924 C4929 1.399 . S
C4925 C4924 1.399 . S
C4925 C4926 1.376 . S
C4926 H4913 0.930 . S
C4926 C4925 1.376 . S
C4926 C4927 1.388 . S
C4927 H4914 0.930 . S
C4927 C4926 1.388 . S
C4927 C4928 1.390 . S
C4928 C4927 1.390 . S
C4928 C4929 1.394 . S
C4928 C4934 1.465 . S
C4929 C4924 1.399 . S
C4929 C4928 1.394 . S
C4929 C4930 1.516 . S
C4930 C4929 1.516 . S
C4930 C4931 1.502 . S
C4930 C4932 1.561 . S
C4930 C4933 1.526 . S
C4931 H4915 0.959 . S
C4931 H4916 0.959 . S
C4931 H4917 0.961 . S
C4931 C4930 1.502 . S
C4932 H4918 0.960 . S
C4932 H4919 0.961 . S
C4932 H4920 0.959 . S
C4932 C4930 1.561 . S
C4933 C4930 1.526 . S
C4933 C4934 1.396 . S
C4933 C4938 1.390 . S
C4934 C4928 1.465 . S
C4934 C4933 1.396 . S
C4934 C4935 1.399 . S
C4935 H4921 0.929 . S
C4935 C4934 1.399 . S
C4935 C4936 1.385 . S
C4936 H4922 0.931 . S
C4936 C4935 1.385 . S
C4936 C4937 1.389 . S
C4937 C4936 1.389 . S
C4937 C4938 1.387 . S
C4938 H4923 0.930 . S
C4938 C4933 1.390 . S
C4938 C4937 1.387 . S
H4939 C4951 0.930 . S
H4940 C4953 0.930 . S
H4941 C4954 0.930 . S
H4942 C4958 0.959 . S
H4943 C4958 0.959 . S
H4944 C4958 0.961 . S
H4945 C4959 0.960 . S
H4946 C4959 0.961 . S
H4947 C4959 0.959 . S
H4948 C4962 0.929 . S
H4949 C4963 0.931 . S
H4950 C4965 0.930 . S
C4951 H4939 0.930 . S
C4951 C4952 1.399 . S
C4951 C4956 1.399 . S
C4952 C4951 1.399 . S
C4952 C4953 1.376 . S
C4953 H4940 0.930 . S
C4953 C4952 1.376 . S
C4953 C4954 1.388 . S
C4954 H4941 0.930 . S
C4954 C4953 1.388 . S
C4954 C4955 1.390 . S
C4955 C4954 1.390 . S
C4955 C4956 1.394 . S
C4955 C4961 1.465 . S
C4956 C4951 1.399 . S
C4956 C4955 1.394 . S
C4956 C4957 1.516 . S
C4957 C4956 1.516 . S
C4957 C4958 1.502 . S
C4957 C4959 1.561 . S
C4957 C4960 1.526 . S
C4958 H4942 0.959 . S
C4958 H4943 0.959 . S
C4958 H4944 0.961 . S
C4958 C4957 1.502 . S
C4959 H4945 0.960 . S
C4959 H4946 0.961 . S
C4959 H4947 0.959 . S
C4959 C4957 1.561 . S
C4960 C4957 1.526 . S
C4960 C4961 1.396 . S
C4960 C4965 1.390 . S
C4961 C4955 1.465 . S
C4961 C4960 1.396 . S
C4961 C4962 1.399 . S
C4962 H4948 0.929 . S
C4962 C4961 1.399 . S
C4962 C4963 1.385 . S
C4963 H4949 0.931 . S
C4963 C4962 1.385 . S
C4963 C4964 1.389 . S
C4964 C4963 1.389 . S
C4964 C4965 1.387 . S
C4965 H4950 0.930 . S
C4965 C4960 1.390 . S
C4965 C4964 1.387 . S
H4966 C4978 0.930 . S
H4967 C4980 0.930 . S
H4968 C4981 0.930 . S
H4969 C4985 0.959 . S
H4970 C4985 0.959 . S
H4971 C4985 0.961 . S
H4972 C4986 0.960 . S
H4973 C4986 0.961 . S
H4974 C4986 0.959 . S
H4975 C4989 0.929 . S
H4976 C4990 0.931 . S
H4977 C4992 0.930 . S
C4978 H4966 0.930 . S
C4978 C4979 1.399 . S
C4978 C4983 1.399 . S
C4979 C4978 1.399 . S
C4979 C4980 1.376 . S
C4980 H4967 0.930 . S
C4980 C4979 1.376 . S
C4980 C4981 1.388 . S
C4981 H4968 0.930 . S
C4981 C4980 1.388 . S
C4981 C4982 1.390 . S
C4982 C4981 1.390 . S
C4982 C4983 1.394 . S
C4982 C4988 1.465 . S
C4983 C4978 1.399 . S
C4983 C4982 1.394 . S
C4983 C4984 1.516 . S
C4984 C4983 1.516 . S
C4984 C4985 1.502 1_655 S
C4984 C4986 1.561 . S
C4984 C4987 1.526 . S
C4985 H4969 0.959 . S
C4985 H4970 0.959 . S
C4985 H4971 0.961 . S
C4985 C4984 1.502 1_455 S
C4986 H4972 0.960 . S
C4986 H4973 0.961 . S
C4986 H4974 0.959 . S
C4986 C4984 1.561 . S
C4987 C4984 1.526 . S
C4987 C4988 1.396 . S
C4987 C4992 1.390 1_655 S
C4988 C4982 1.465 . S
C4988 C4987 1.396 . S
C4988 C4989 1.399 . S
C4989 H4975 0.929 . S
C4989 C4988 1.399 . S
C4989 C4990 1.385 . S
C4990 H4976 0.931 . S
C4990 C4989 1.385 . S
C4990 C4991 1.389 1_655 S
C4991 C4990 1.389 1_455 S
C4991 C4992 1.387 . S
C4992 H4977 0.930 . S
C4992 C4987 1.390 1_455 S
C4992 C4991 1.387 . S
H4993 C5005 0.930 . S
H4994 C5007 0.930 . S
H4995 C5008 0.930 . S
H4996 C5012 0.959 . S
H4997 C5012 0.959 . S
H4998 C5012 0.961 . S
H4999 C5013 0.960 . S
H5000 C5013 0.961 . S
H5001 C5013 0.959 . S
H5002 C5016 0.929 . S
H5003 C5017 0.931 . S
H5004 C5019 0.930 . S
C5005 H4993 0.930 . S
C5005 C5006 1.399 . S
C5005 C5010 1.399 . S
C5006 C5005 1.399 . S
C5006 C5007 1.376 . S
C5007 H4994 0.930 . S
C5007 C5006 1.376 . S
C5007 C5008 1.388 . S
C5008 H4995 0.930 . S
C5008 C5007 1.388 . S
C5008 C5009 1.390 . S
C5009 C5008 1.390 . S
C5009 C5010 1.394 . S
C5009 C5015 1.465 . S
C5010 C5005 1.399 . S
C5010 C5009 1.394 . S
C5010 C5011 1.516 . S
C5011 C5010 1.516 . S
C5011 C5012 1.502 . S
C5011 C5013 1.561 . S
C5011 C5014 1.526 . S
C5012 H4996 0.959 . S
C5012 H4997 0.959 . S
C5012 H4998 0.961 . S
C5012 C5011 1.502 . S
C5013 H4999 0.960 . S
C5013 H5000 0.961 . S
C5013 H5001 0.959 . S
C5013 C5011 1.561 . S
C5014 C5011 1.526 . S
C5014 C5015 1.396 . S
C5014 C5019 1.390 . S
C5015 C5009 1.465 . S
C5015 C5014 1.396 . S
C5015 C5016 1.399 . S
C5016 H5002 0.929 . S
C5016 C5015 1.399 . S
C5016 C5017 1.385 . S
C5017 H5003 0.931 . S
C5017 C5016 1.385 . S
C5017 C5018 1.389 . S
C5018 C5017 1.389 . S
C5018 C5019 1.387 . S
C5019 H5004 0.930 . S
C5019 C5014 1.390 . S
C5019 C5018 1.387 . S
H5020 C5032 0.930 . S
H5021 C5034 0.930 . S
H5022 C5035 0.930 . S
H5023 C5039 0.959 . S
H5024 C5039 0.959 . S
H5025 C5039 0.961 . S
H5026 C5040 0.960 . S
H5027 C5040 0.961 . S
H5028 C5040 0.959 . S
H5029 C5043 0.929 . S
H5030 C5044 0.931 . S
H5031 C5046 0.930 . S
C5032 H5020 0.930 . S
C5032 C5033 1.399 . S
C5032 C5037 1.399 . S
C5033 C5032 1.399 . S
C5033 C5034 1.376 . S
C5034 H5021 0.930 . S
C5034 C5033 1.376 . S
C5034 C5035 1.388 . S
C5035 H5022 0.930 . S
C5035 C5034 1.388 . S
C5035 C5036 1.390 . S
C5036 C5035 1.390 . S
C5036 C5037 1.394 . S
C5036 C5042 1.465 . S
C5037 C5032 1.399 . S
C5037 C5036 1.394 . S
C5037 C5038 1.516 . S
C5038 C5037 1.516 . S
C5038 C5039 1.502 . S
C5038 C5040 1.561 . S
C5038 C5041 1.526 . S
C5039 H5023 0.959 . S
C5039 H5024 0.959 . S
C5039 H5025 0.961 . S
C5039 C5038 1.502 . S
C5040 H5026 0.960 . S
C5040 H5027 0.961 . S
C5040 H5028 0.959 . S
C5040 C5038 1.561 . S
C5041 C5038 1.526 . S
C5041 C5042 1.396 . S
C5041 C5046 1.390 . S
C5042 C5036 1.465 . S
C5042 C5041 1.396 . S
C5042 C5043 1.399 . S
C5043 H5029 0.929 . S
C5043 C5042 1.399 . S
C5043 C5044 1.385 . S
C5044 H5030 0.931 . S
C5044 C5043 1.385 . S
C5044 C5045 1.389 . S
C5045 C5044 1.389 . S
C5045 C5046 1.387 . S
C5046 H5031 0.930 . S
C5046 C5041 1.390 . S
C5046 C5045 1.387 . S
H5047 C5059 0.930 . S
H5048 C5061 0.930 . S
H5049 C5062 0.930 . S
H5050 C5066 0.959 . S
H5051 C5066 0.959 . S
H5052 C5066 0.961 . S
H5053 C5067 0.960 . S
H5054 C5067 0.961 . S
H5055 C5067 0.959 . S
H5056 C5070 0.929 . S
H5057 C5071 0.931 . S
H5058 C5073 0.930 . S
C5059 H5047 0.930 . S
C5059 C5060 1.399 . S
C5059 C5064 1.399 . S
C5060 C5059 1.399 . S
C5060 C5061 1.376 . S
C5061 H5048 0.930 . S
C5061 C5060 1.376 . S
C5061 C5062 1.388 . S
C5062 H5049 0.930 . S
C5062 C5061 1.388 . S
C5062 C5063 1.390 . S
C5063 C5062 1.390 . S
C5063 C5064 1.394 . S
C5063 C5069 1.465 . S
C5064 C5059 1.399 . S
C5064 C5063 1.394 . S
C5064 C5065 1.516 . S
C5065 C5064 1.516 . S
C5065 C5066 1.502 . S
C5065 C5067 1.561 . S
C5065 C5068 1.526 . S
C5066 H5050 0.959 . S
C5066 H5051 0.959 . S
C5066 H5052 0.961 . S
C5066 C5065 1.502 . S
C5067 H5053 0.960 . S
C5067 H5054 0.961 . S
C5067 H5055 0.959 . S
C5067 C5065 1.561 . S
C5068 C5065 1.526 . S
C5068 C5069 1.396 . S
C5068 C5073 1.390 . S
C5069 C5063 1.465 . S
C5069 C5068 1.396 . S
C5069 C5070 1.399 . S
C5070 H5056 0.929 . S
C5070 C5069 1.399 . S
C5070 C5071 1.385 . S
C5071 H5057 0.931 . S
C5071 C5070 1.385 . S
C5071 C5072 1.389 . S
C5072 C5071 1.389 . S
C5072 C5073 1.387 . S
C5073 H5058 0.930 . S
C5073 C5068 1.390 . S
C5073 C5072 1.387 . S
H5074 C5086 0.930 . S
H5075 C5088 0.930 . S
H5076 C5089 0.930 . S
H5077 C5093 0.954 1_455 S
H5078 C5093 0.948 1_455 S
H5079 C5093 0.966 . S
H5080 C5094 0.960 . S
H5081 C5094 0.961 . S
H5082 C5094 0.959 . S
H5083 C5097 0.929 . S
H5084 C5098 0.931 . S
H5085 C5100 0.930 1_455 S
C5086 H5074 0.930 . S
C5086 C5087 1.399 . S
C5086 C5091 1.399 . S
C5087 C5086 1.399 . S
C5087 C5088 1.376 . S
C5088 H5075 0.930 . S
C5088 C5087 1.376 . S
C5088 C5089 1.388 . S
C5089 H5076 0.930 . S
C5089 C5088 1.388 . S
C5089 C5090 1.390 . S
C5090 C5089 1.390 . S
C5090 C5091 1.394 . S
C5090 C5096 1.465 . S
C5091 C5086 1.399 . S
C5091 C5090 1.394 . S
C5091 C5092 1.516 . S
C5092 C5091 1.516 . S
C5092 C5093 1.513 . S
C5092 C5094 1.561 . S
C5092 C5095 1.526 . S
C5093 H5077 0.954 1_655 S
C5093 H5078 0.948 1_655 S
C5093 H5079 0.966 . S
C5093 C5092 1.513 . S
C5094 H5080 0.960 . S
C5094 H5081 0.961 . S
C5094 H5082 0.959 . S
C5094 C5092 1.561 . S
C5095 C5092 1.526 . S
C5095 C5096 1.396 . S
C5095 C5100 1.390 . S
C5096 C5090 1.465 . S
C5096 C5095 1.396 . S
C5096 C5097 1.399 . S
C5097 H5083 0.929 . S
C5097 C5096 1.399 . S
C5097 C5098 1.385 . S
C5098 H5084 0.931 . S
C5098 C5097 1.385 . S
C5098 C5099 1.389 . S
C5099 C5098 1.389 . S
C5099 C5100 1.387 . S
C5100 H5085 0.930 1_655 S
C5100 C5095 1.390 . S
C5100 C5099 1.387 . S
H5101 C5113 0.930 . S
H5102 C5115 0.930 . S
H5103 C5116 0.930 . S
H5104 C5120 0.959 . S
H5105 C5120 0.959 . S
H5106 C5120 0.961 . S
H5107 C5121 0.960 . S
H5108 C5121 0.961 . S
H5109 C5121 0.959 . S
H5110 C5124 0.929 . S
H5111 C5125 0.931 . S
H5112 C5127 0.930 . S
C5113 H5101 0.930 . S
C5113 C5114 1.399 . S
C5113 C5118 1.399 . S
C5114 C5113 1.399 . S
C5114 C5115 1.376 . S
C5115 H5102 0.930 . S
C5115 C5114 1.376 . S
C5115 C5116 1.388 . S
C5116 H5103 0.930 . S
C5116 C5115 1.388 . S
C5116 C5117 1.390 . S
C5117 C5116 1.390 . S
C5117 C5118 1.394 . S
C5117 C5123 1.465 . S
C5118 C5113 1.399 . S
C5118 C5117 1.394 . S
C5118 C5119 1.516 . S
C5119 C5118 1.516 . S
C5119 C5120 1.502 . S
C5119 C5121 1.561 . S
C5119 C5122 1.526 . S
C5120 H5104 0.959 . S
C5120 H5105 0.959 . S
C5120 H5106 0.961 . S
C5120 C5119 1.502 . S
C5121 H5107 0.960 . S
C5121 H5108 0.961 . S
C5121 H5109 0.959 . S
C5121 C5119 1.561 . S
C5122 C5119 1.526 . S
C5122 C5123 1.396 . S
C5122 C5127 1.390 . S
C5123 C5117 1.465 . S
C5123 C5122 1.396 . S
C5123 C5124 1.399 . S
C5124 H5110 0.929 . S
C5124 C5123 1.399 . S
C5124 C5125 1.385 . S
C5125 H5111 0.931 . S
C5125 C5124 1.385 . S
C5125 C5126 1.389 . S
C5126 C5125 1.389 . S
C5126 C5127 1.387 . S
C5127 H5112 0.930 . S
C5127 C5122 1.390 . S
C5127 C5126 1.387 . S
H5128 C5140 0.930 . S
H5129 C5142 0.930 . S
H5130 C5143 0.930 . S
H5131 C5147 0.959 . S
H5132 C5147 0.959 . S
H5133 C5147 0.961 . S
H5134 C5148 0.960 . S
H5135 C5148 0.961 . S
H5136 C5148 0.959 . S
H5137 C5151 0.929 . S
H5138 C5152 0.931 . S
H5139 C5154 0.930 . S
C5140 H5128 0.930 . S
C5140 C5141 1.399 . S
C5140 C5145 1.399 . S
C5141 C5140 1.399 . S
C5141 C5142 1.376 . S
C5142 H5129 0.930 . S
C5142 C5141 1.376 . S
C5142 C5143 1.388 . S
C5143 H5130 0.930 . S
C5143 C5142 1.388 . S
C5143 C5144 1.390 . S
C5144 C5143 1.390 . S
C5144 C5145 1.394 . S
C5144 C5150 1.465 . S
C5145 C5140 1.399 . S
C5145 C5144 1.394 . S
C5145 C5146 1.516 . S
C5146 C5145 1.516 . S
C5146 C5147 1.502 . S
C5146 C5148 1.561 . S
C5146 C5149 1.526 . S
C5147 H5131 0.959 . S
C5147 H5132 0.959 . S
C5147 H5133 0.961 . S
C5147 C5146 1.502 . S
C5148 H5134 0.960 . S
C5148 H5135 0.961 . S
C5148 H5136 0.959 . S
C5148 C5146 1.561 . S
C5149 C5146 1.526 . S
C5149 C5150 1.396 . S
C5149 C5154 1.390 . S
C5150 C5144 1.465 . S
C5150 C5149 1.396 . S
C5150 C5151 1.399 . S
C5151 H5137 0.929 . S
C5151 C5150 1.399 . S
C5151 C5152 1.385 . S
C5152 H5138 0.931 . S
C5152 C5151 1.385 . S
C5152 C5153 1.389 . S
C5153 C5152 1.389 . S
C5153 C5154 1.387 . S
C5154 H5139 0.930 . S
C5154 C5149 1.390 . S
C5154 C5153 1.387 . S
H5155 C5167 0.930 . S
H5156 C5169 0.930 . S
H5157 C5170 0.930 . S
H5158 C5174 0.959 . S
H5159 C5174 0.959 . S
H5160 C5174 0.961 . S
H5161 C5175 0.960 . S
H5162 C5175 0.961 1_545 S
H5163 C5175 0.959 . S
H5164 C5178 0.929 . S
H5165 C5179 0.931 . S
H5166 C5181 0.930 . S
C5167 H5155 0.930 . S
C5167 C5168 1.399 . S
C5167 C5172 1.399 . S
C5168 C5167 1.399 . S
C5168 C5169 1.376 . S
C5169 H5156 0.930 . S
C5169 C5168 1.376 . S
C5169 C5170 1.388 . S
C5170 H5157 0.930 . S
C5170 C5169 1.388 . S
C5170 C5171 1.390 . S
C5171 C5170 1.390 . S
C5171 C5172 1.394 . S
C5171 C5177 1.465 . S
C5172 C5167 1.399 . S
C5172 C5171 1.394 . S
C5172 C5173 1.516 . S
C5173 C5172 1.516 . S
C5173 C5174 1.502 . S
C5173 C5175 1.561 . S
C5173 C5176 1.526 . S
C5174 H5158 0.959 . S
C5174 H5159 0.959 . S
C5174 H5160 0.961 . S
C5174 C5173 1.502 . S
C5175 H5161 0.960 . S
C5175 H5162 0.961 1_565 S
C5175 H5163 0.959 . S
C5175 C5173 1.561 . S
C5176 C5173 1.526 . S
C5176 C5177 1.396 . S
C5176 C5181 1.390 . S
C5177 C5171 1.465 . S
C5177 C5176 1.396 . S
C5177 C5178 1.399 . S
C5178 H5164 0.929 . S
C5178 C5177 1.399 . S
C5178 C5179 1.385 . S
C5179 H5165 0.931 . S
C5179 C5178 1.385 . S
C5179 C5180 1.389 . S
C5180 C5179 1.389 . S
C5180 C5181 1.387 . S
C5181 H5166 0.930 . S
C5181 C5176 1.390 . S
C5181 C5180 1.387 . S
H5182 C5194 0.930 . S
H5183 C5196 0.930 . S
H5184 C5197 0.930 . S
H5185 C5201 0.959 . S
H5186 C5201 0.959 . S
H5187 C5201 0.961 . S
H5188 C5202 0.960 . S
H5189 C5202 0.961 . S
H5190 C5202 0.959 . S
H5191 C5205 0.929 . S
H5192 C5206 0.931 . S
H5193 C5208 0.930 . S
C5194 H5182 0.930 . S
C5194 C5195 1.399 . S
C5194 C5199 1.399 . S
C5195 C5194 1.399 . S
C5195 C5196 1.376 . S
C5196 H5183 0.930 . S
C5196 C5195 1.376 . S
C5196 C5197 1.388 . S
C5197 H5184 0.930 . S
C5197 C5196 1.388 . S
C5197 C5198 1.390 . S
C5198 C5197 1.390 . S
C5198 C5199 1.394 . S
C5198 C5204 1.465 . S
C5199 C5194 1.399 . S
C5199 C5198 1.394 . S
C5199 C5200 1.516 . S
C5200 C5199 1.516 . S
C5200 C5201 1.502 . S
C5200 C5202 1.561 . S
C5200 C5203 1.526 . S
C5201 H5185 0.959 . S
C5201 H5186 0.959 . S
C5201 H5187 0.961 . S
C5201 C5200 1.502 . S
C5202 H5188 0.960 . S
C5202 H5189 0.961 . S
C5202 H5190 0.959 . S
C5202 C5200 1.561 . S
C5203 C5200 1.526 . S
C5203 C5204 1.396 . S
C5203 C5208 1.390 . S
C5204 C5198 1.465 . S
C5204 C5203 1.396 . S
C5204 C5205 1.399 . S
C5205 H5191 0.929 . S
C5205 C5204 1.399 . S
C5205 C5206 1.385 . S
C5206 H5192 0.931 . S
C5206 C5205 1.385 . S
C5206 C5207 1.389 . S
C5207 C5206 1.389 . S
C5207 C5208 1.387 . S
C5208 H5193 0.930 . S
C5208 C5203 1.390 . S
C5208 C5207 1.387 . S
H5209 C5221 0.930 . S
H5210 C5223 0.930 . S
H5211 C5224 0.942 . S
H5212 C5228 0.959 . S
H5213 C5228 0.959 . S
H5214 C5228 0.961 . S
H5215 C5229 0.960 . S
H5216 C5229 0.961 . S
H5217 C5229 0.959 . S
H5218 C5232 0.929 1_556 S
H5219 C5233 0.931 . S
H5220 C5235 0.930 . S
C5221 H5209 0.930 . S
C5221 C5222 1.399 . S
C5221 C5226 1.399 . S
C5222 C5221 1.399 . S
C5222 C5223 1.376 . S
C5223 H5210 0.930 . S
C5223 C5222 1.376 . S
C5223 C5224 1.388 . S
C5224 H5211 0.942 . S
C5224 C5223 1.388 . S
C5224 C5225 1.390 . S
C5225 C5224 1.390 . S
C5225 C5226 1.394 . S
C5225 C5231 1.465 . S
C5226 C5221 1.399 . S
C5226 C5225 1.394 . S
C5226 C5227 1.516 . S
C5227 C5226 1.516 . S
C5227 C5228 1.502 . S
C5227 C5229 1.561 . S
C5227 C5230 1.526 . S
C5228 H5212 0.959 . S
C5228 H5213 0.959 . S
C5228 H5214 0.961 . S
C5228 C5227 1.502 . S
C5229 H5215 0.960 . S
C5229 H5216 0.961 . S
C5229 H5217 0.959 . S
C5229 C5227 1.561 . S
C5230 C5227 1.526 . S
C5230 C5231 1.396 . S
C5230 C5235 1.390 . S
C5231 C5225 1.465 . S
C5231 C5230 1.396 . S
C5231 C5232 1.399 . S
C5232 H5218 0.929 1_554 S
C5232 C5231 1.399 . S
C5232 C5233 1.385 . S
C5233 H5219 0.931 . S
C5233 C5232 1.385 . S
C5233 C5234 1.389 . S
C5234 C5233 1.389 . S
C5234 C5235 1.387 . S
C5235 H5220 0.930 . S
C5235 C5230 1.390 . S
C5235 C5234 1.387 . S
H5236 C5248 0.930 . S
H5237 C5250 0.930 . S
H5238 C5251 0.930 . S
H5239 C5255 0.959 . S
H5240 C5255 0.959 . S
H5241 C5255 0.961 . S
H5242 C5256 0.960 . S
H5243 C5256 0.961 . S
H5244 C5256 0.959 . S
H5245 C5259 0.929 . S
H5246 C5260 0.931 . S
H5247 C5262 0.930 . S
C5248 H5236 0.930 . S
C5248 C5249 1.399 . S
C5248 C5253 1.399 . S
C5249 C5248 1.399 . S
C5249 C5250 1.376 . S
C5250 H5237 0.930 . S
C5250 C5249 1.376 . S
C5250 C5251 1.388 . S
C5251 H5238 0.930 . S
C5251 C5250 1.388 . S
C5251 C5252 1.390 . S
C5252 C5251 1.390 . S
C5252 C5253 1.394 . S
C5252 C5258 1.465 . S
C5253 C5248 1.399 . S
C5253 C5252 1.394 . S
C5253 C5254 1.516 . S
C5254 C5253 1.516 . S
C5254 C5255 1.502 . S
C5254 C5256 1.561 . S
C5254 C5257 1.526 . S
C5255 H5239 0.959 . S
C5255 H5240 0.959 . S
C5255 H5241 0.961 . S
C5255 C5254 1.502 . S
C5256 H5242 0.960 . S
C5256 H5243 0.961 . S
C5256 H5244 0.959 . S
C5256 C5254 1.561 . S
C5257 C5254 1.526 . S
C5257 C5258 1.396 . S
C5257 C5262 1.390 . S
C5258 C5252 1.465 . S
C5258 C5257 1.396 . S
C5258 C5259 1.399 . S
C5259 H5245 0.929 . S
C5259 C5258 1.399 . S
C5259 C5260 1.385 . S
C5260 H5246 0.931 . S
C5260 C5259 1.385 . S
C5260 C5261 1.389 . S
C5261 C5260 1.389 . S
C5261 C5262 1.387 . S
C5262 H5247 0.930 . S
C5262 C5257 1.390 . S
C5262 C5261 1.387 . S
H5263 C5275 0.930 1_556 S
H5264 C5277 0.930 . S
H5265 C5278 0.930 . S
H5266 C5282 0.959 . S
H5267 C5282 0.959 . S
H5268 C5282 0.961 . S
H5269 C5283 0.960 . S
H5270 C5283 0.961 . S
H5271 C5283 0.959 . S
H5272 C5286 0.929 . S
H5273 C5287 0.931 . S
H5274 C5289 0.930 . S
C5275 H5263 0.930 1_554 S
C5275 C5276 1.399 . S
C5275 C5280 1.399 . S
C5276 C5275 1.399 . S
C5276 C5277 1.376 . S
C5277 H5264 0.930 . S
C5277 C5276 1.376 . S
C5277 C5278 1.388 . S
C5278 H5265 0.930 . S
C5278 C5277 1.388 . S
C5278 C5279 1.390 . S
C5279 C5278 1.390 . S
C5279 C5280 1.394 . S
C5279 C5285 1.465 . S
C5280 C5275 1.399 . S
C5280 C5279 1.394 . S
C5280 C5281 1.516 1_554 S
C5281 C5280 1.516 1_556 S
C5281 C5282 1.502 . S
C5281 C5283 1.561 . S
C5281 C5284 1.526 1_556 S
C5282 H5266 0.959 . S
C5282 H5267 0.959 . S
C5282 H5268 0.961 . S
C5282 C5281 1.502 . S
C5283 H5269 0.960 . S
C5283 H5270 0.961 . S
C5283 H5271 0.959 . S
C5283 C5281 1.561 . S
C5284 C5281 1.526 1_554 S
C5284 C5285 1.396 . S
C5284 C5289 1.390 1_554 S
C5285 C5279 1.465 . S
C5285 C5284 1.396 . S
C5285 C5286 1.399 . S
C5286 H5272 0.929 . S
C5286 C5285 1.399 . S
C5286 C5287 1.385 . S
C5287 H5273 0.931 . S
C5287 C5286 1.385 . S
C5287 C5288 1.389 . S
C5288 C5287 1.389 . S
C5288 C5289 1.387 1_554 S
C5289 H5274 0.930 . S
C5289 C5284 1.390 1_556 S
C5289 C5288 1.387 1_556 S
H5290 C5302 0.930 . S
H5291 C5304 0.930 . S
H5292 C5305 0.930 . S
H5293 C5309 0.959 . S
H5294 C5309 0.959 . S
H5295 C5309 0.961 . S
H5296 C5310 0.960 . S
H5297 C5310 0.961 . S
H5298 C5310 0.959 . S
H5299 C5313 0.929 . S
H5300 C5314 0.931 . S
H5301 C5316 0.930 . S
C5302 H5290 0.930 . S
C5302 C5303 1.399 . S
C5302 C5307 1.399 . S
C5303 C5302 1.399 . S
C5303 C5304 1.376 . S
C5304 H5291 0.930 . S
C5304 C5303 1.376 . S
C5304 C5305 1.388 . S
C5305 H5292 0.930 . S
C5305 C5304 1.388 . S
C5305 C5306 1.390 . S
C5306 C5305 1.390 . S
C5306 C5307 1.394 . S
C5306 C5312 1.465 . S
C5307 C5302 1.399 . S
C5307 C5306 1.394 . S
C5307 C5308 1.516 . S
C5308 C5307 1.516 . S
C5308 C5309 1.502 . S
C5308 C5310 1.561 . S
C5308 C5311 1.526 . S
C5309 H5293 0.959 . S
C5309 H5294 0.959 . S
C5309 H5295 0.961 . S
C5309 C5308 1.502 . S
C5310 H5296 0.960 . S
C5310 H5297 0.961 . S
C5310 H5298 0.959 . S
C5310 C5308 1.561 . S
C5311 C5308 1.526 . S
C5311 C5312 1.396 . S
C5311 C5316 1.390 . S
C5312 C5306 1.465 . S
C5312 C5311 1.396 . S
C5312 C5313 1.399 . S
C5313 H5299 0.929 . S
C5313 C5312 1.399 . S
C5313 C5314 1.385 . S
C5314 H5300 0.931 . S
C5314 C5313 1.385 . S
C5314 C5315 1.389 . S
C5315 C5314 1.389 . S
C5315 C5316 1.387 . S
C5316 H5301 0.930 . S
C5316 C5311 1.390 . S
C5316 C5315 1.387 . S
H5317 C5329 0.930 . S
H5318 C5331 0.930 . S
H5319 C5332 0.930 . S
H5320 C5336 0.959 . S
H5321 C5336 0.959 . S
H5322 C5336 0.961 . S
H5323 C5337 0.960 . S
H5324 C5337 0.961 . S
H5325 C5337 0.959 . S
H5326 C5340 0.929 . S
H5327 C5341 0.931 . S
H5328 C5343 0.930 . S
C5329 H5317 0.930 . S
C5329 C5330 1.399 . S
C5329 C5334 1.399 . S
C5330 C5329 1.399 . S
C5330 C5331 1.376 . S
C5331 H5318 0.930 . S
C5331 C5330 1.376 . S
C5331 C5332 1.388 . S
C5332 H5319 0.930 . S
C5332 C5331 1.388 . S
C5332 C5333 1.390 . S
C5333 C5332 1.390 . S
C5333 C5334 1.394 . S
C5333 C5339 1.465 . S
C5334 C5329 1.399 . S
C5334 C5333 1.394 . S
C5334 C5335 1.516 . S
C5335 C5334 1.516 . S
C5335 C5336 1.502 . S
C5335 C5337 1.561 . S
C5335 C5338 1.526 . S
C5336 H5320 0.959 . S
C5336 H5321 0.959 . S
C5336 H5322 0.961 . S
C5336 C5335 1.502 . S
C5337 H5323 0.960 . S
C5337 H5324 0.961 . S
C5337 H5325 0.959 . S
C5337 C5335 1.561 . S
C5338 C5335 1.526 . S
C5338 C5339 1.396 . S
C5338 C5343 1.390 . S
C5339 C5333 1.465 . S
C5339 C5338 1.396 . S
C5339 C5340 1.399 . S
C5340 H5326 0.929 . S
C5340 C5339 1.399 . S
C5340 C5341 1.385 . S
C5341 H5327 0.931 . S
C5341 C5340 1.385 . S
C5341 C5342 1.389 . S
C5342 C5341 1.389 . S
C5342 C5343 1.387 . S
C5343 H5328 0.930 . S
C5343 C5338 1.390 . S
C5343 C5342 1.387 . S
C2765 C665 2.231 . S
C2777 C2122 2.203 . S
C2792 C381 1.985 . S
C2804 C2170 1.975 . S
C2819 C460 1.204 . S
C2831 C2202 1.256 . S
C2858 C2247 1.503 . S
C2846 C585 1.574 . S
C2873 C108 0.902 . S
C2885 C2287 0.872 . S
C2912 C2322 0.869 . S
C2900 C196 0.905 . S
C2939 C2361 1.087 . S
C2927 C313 1.078 . S
C2954 C49 1.132 . S
C2966 C2398 1.179 . S
C2993 C2130 1.923 . S
C2981 C1457 1.970 . S
C3008 C1545 0.527 . S
C3020 C2167 0.605 . S
C3047 C2210 2.450 . S
C3035 C1721 2.468 . S
C3074 C2242 1.123 . S
C3062 C1113 1.102 . S
C3089 C1428 1.236 . S
C3101 C2282 1.238 . S
C3128 C2330 0.788 . S
C3116 C1516 0.594 . S
C3155 C2371 1.775 . S
C3143 C1692 1.855 . S
C3182 C2401 1.965 . S
C3170 C1085 1.953 . S
C3209 C2127 1.135 . S
C3197 C988 1.184 1_554 S
C3224 C1817 2.150 . S
C3236 C2450 2.084 . S
C3263 C2487 1.159 . S
C3251 C2081 1.114 . S
C3290 C2518 0.211 . S
C3278 C1993 0.324 . S
C3305 C761 2.779 . S
C3317 C2411 2.717 . S
C3332 C821 1.373 . S
C3344 C2207 1.309 . S
C3359 C2053 1.741 . S
C3371 C2570 1.710 . S
C3398 C2602 1.804 . S
C3386 C1868 1.748 . S
C3425 C2131 2.200 . S
C3413 C372 2.217 . S
C3452 C2601 1.978 . S
C3440 C645 1.969 . S
C3467 C577 1.184 . S
C3479 C2211 1.245 . S
C3494 C497 1.548 . S
C3506 C2558 1.557 . S
C3533 C2278 0.861 . S
C3521 C57 0.847 1_455 S
C3548 C293 0.827 . S
C3560 C2491 0.840 . S
C3587 C2370 1.082 . S
C3575 C205 1.073 . S
C3614 C2647 1.161 . S
C3602 C145 1.150 . S
C3641 C2121 1.922 . S
C3629 C909 1.962 . S
C3668 C2598 0.463 . S
C3656 C1956 0.670 . S
C3683 C724 2.456 . S
C3695 C2201 2.456 . S
C3710 C1780 1.118 . S
C3722 C2571 1.123 . S
C3737 C937 1.178 . S
C3749 C2291 1.222 . S
C3776 C2481 0.625 . S
C3764 C1985 0.703 . S
C3791 C753 1.843 . S
C3803 C2362 1.788 . S
C3818 C1809 1.949 . S
C3830 C2650 1.938 . S
C3845 C1173 1.231 . S
C3857 C2118 1.104 . S
C3872 C1105 2.136 . S
C3884 C2441 2.113 . S
C3899 C1633 1.139 . S
C3911 C2318 1.109 . S
C3926 C1553 0.308 . S
C3938 C2527 0.347 . S
C3965 C2642 2.740 . S
C3953 C1729 2.780 . S
C3980 C1340 1.357 . S
C3992 C2198 1.312 . S
C4019 C2241 1.730 . S
C4007 C1604 1.709 . S
C4046 C2171 1.794 . S
C4034 C1252 1.767 . S
C4061 C489 2.234 . S
C4073 C2682 2.235 . S
C4100 C2610 1.959 . S
C4088 C557 1.995 . S
C4115 C636 1.266 . S
C4127 C2722 1.268 . S
C4142 C409 1.575 . S
C4154 C2567 1.501 . S
C4169 C284 0.893 . S
C4181 C2447 0.889 . S
C4208 C2482 0.869 . S
C4196 C20 0.905 . S
C4235 C2521 1.048 . S
C4223 C137 1.080 . S
C4262 C2638 1.175 . S
C4250 C225 1.133 . S
C4289 C2690 1.949 . S
C4277 C1641 1.944 . S
C4304 C1193 0.570 . S
C4316 C2607 0.576 . S
C4343 C2730 2.448 . S
C4331 C1289 2.473 . S
C4370 C2562 1.124 . S
C4358 C1377 1.106 . S
C4397 C2442 1.227 . S
C4385 C1613 1.208 . S
C4412 C1164 0.593 . S
C4424 C2490 0.788 . S
C4451 C2531 1.733 . S
C4439 C1261 1.861 . S
C4466 C1349 1.962 . S
C4478 C2641 1.966 . S
C4505 C2687 1.167 . S
C4493 C1965 1.198 . S
C4520 C849 2.150 . S
C4532 C2290 2.079 . S
C4559 C2327 1.159 . S
C4547 C929 1.115 . S
C4586 C2358 0.475 . S
C4574 C1017 0.179 . S
C4613 C2651 2.719 . S
C4601 C1897 2.781 . S
C4628 C1789 1.352 . S
C4640 C2727 1.345 . S
C4667 C2250 1.711 . S
C4655 C900 1.741 . S
C4694 C2162 1.823 . S
C4682 C733 1.776 . S
C4709 C548 2.237 . S
C4721 C2691 2.219 . S
C4748 C2161 1.982 . S
C4736 C469 1.969 . S
C4763 C401 1.197 . S
C4775 C2731 1.244 . S
C4790 C673 1.557 . S
C4802 C2238 1.550 . S
C4817 C233 0.884 . S
C4829 C2438 0.847 . S
C4856 C2331 0.860 . S
C4844 C117 0.862 . S
C4871 C29 1.082 . S
C4883 C2530 1.038 . S
C4898 C321 1.176 . S
C4910 C2407 1.170 . S
C4937 C2681 1.938 . S
C4925 C2044 1.952 . S
C4952 C997 0.626 . S
C4964 C2158 0.429 . S
C4991 C2721 2.452 . S
C4979 C1877 2.456 . S
C5006 C812 1.044 . S
C5018 C2251 1.098 . S
C5033 C2073 1.175 . S
C5045 C2451 1.221 . S
C5072 C2321 0.614 . S
C5060 C1025 0.722 . S
C5087 C1905 1.854 . S
C5099 C2522 1.736 1_655 S
C5126 C2410 1.944 . S
C5114 C841 1.945 . S
C5153 C2678 1.143 . S
C5141 C1525 1.215 . S
C5180 C2281 2.106 1_565 S
C5168 C1369 2.140 . S
C5195 C1465 1.150 . S
C5207 C2478 1.092 . S
C5234 C2367 0.367 . S
C5222 C1201 0.302 . S
C5249 C1281 2.770 . S
C5261 C2402 2.717 . S
C5276 C1076 1.360 . S
C5288 C2718 1.310 . S
C5315 C2561 1.699 . S
C5303 C1437 1.738 . S
C5342 C2611 1.810 . S
C5330 C1701 1.771 . S
