# Generated by pormake.
# Topology gar, (4,6)-cn, num edge types: 1
# Building blocks:
#     Node 0, Type 0, BuildingBlock: TATPOV_clean_sbu_0, # of connection points: 4
#     Node 1, Type 0, BuildingBlock: TATPOV_clean_sbu_0, # of connection points: 4
#     Node 2, Type 0, BuildingBlock: TATPOV_clean_sbu_0, # of connection points: 4
#     Node 3, Type 0, BuildingBlock: TATPOV_clean_sbu_0, # of connection points: 4
#     Node 4, Type 0, BuildingBlock: TATPOV_clean_sbu_0, # of connection points: 4
#     Node 5, Type 0, BuildingBlock: TATPOV_clean_sbu_0, # of connection points: 4
#     Node 6, Type 0, BuildingBlock: TATPOV_clean_sbu_0, # of connection points: 4
#     Node 7, Type 0, BuildingBlock: TATPOV_clean_sbu_0, # of connection points: 4
#     Node 8, Type 0, BuildingBlock: TATPOV_clean_sbu_0, # of connection points: 4
#     Node 9, Type 0, BuildingBlock: TATPOV_clean_sbu_0, # of connection points: 4
#     Node 10, Type 0, BuildingBlock: TATPOV_clean_sbu_0, # of connection points: 4
#     Node 11, Type 0, BuildingBlock: TATPOV_clean_sbu_0, # of connection points: 4
#     Node 12, Type 0, BuildingBlock: TATPOV_clean_sbu_0, # of connection points: 4
#     Node 13, Type 0, BuildingBlock: TATPOV_clean_sbu_0, # of connection points: 4
#     Node 14, Type 0, BuildingBlock: TATPOV_clean_sbu_0, # of connection points: 4
#     Node 15, Type 0, BuildingBlock: TATPOV_clean_sbu_0, # of connection points: 4
#     Node 16, Type 0, BuildingBlock: TATPOV_clean_sbu_0, # of connection points: 4
#     Node 17, Type 0, BuildingBlock: TATPOV_clean_sbu_0, # of connection points: 4
#     Node 18, Type 0, BuildingBlock: TATPOV_clean_sbu_0, # of connection points: 4
#     Node 19, Type 0, BuildingBlock: TATPOV_clean_sbu_0, # of connection points: 4
#     Node 20, Type 0, BuildingBlock: TATPOV_clean_sbu_0, # of connection points: 4
#     Node 21, Type 0, BuildingBlock: TATPOV_clean_sbu_0, # of connection points: 4
#     Node 22, Type 0, BuildingBlock: TATPOV_clean_sbu_0, # of connection points: 4
#     Node 23, Type 0, BuildingBlock: TATPOV_clean_sbu_0, # of connection points: 4
#     Node 24, Type 1, BuildingBlock: CUKXOW_clean_sbu_0, # of connection points: 6
#     Node 25, Type 1, BuildingBlock: CUKXOW_clean_sbu_0, # of connection points: 6
#     Node 26, Type 1, BuildingBlock: CUKXOW_clean_sbu_0, # of connection points: 6
#     Node 27, Type 1, BuildingBlock: CUKXOW_clean_sbu_0, # of connection points: 6
#     Node 28, Type 1, BuildingBlock: CUKXOW_clean_sbu_0, # of connection points: 6
#     Node 29, Type 1, BuildingBlock: CUKXOW_clean_sbu_0, # of connection points: 6
#     Node 30, Type 1, BuildingBlock: CUKXOW_clean_sbu_0, # of connection points: 6
#     Node 31, Type 1, BuildingBlock: CUKXOW_clean_sbu_0, # of connection points: 6
#     Node 32, Type 1, BuildingBlock: CUKXOW_clean_sbu_0, # of connection points: 6
#     Node 33, Type 1, BuildingBlock: CUKXOW_clean_sbu_0, # of connection points: 6
#     Node 34, Type 1, BuildingBlock: CUKXOW_clean_sbu_0, # of connection points: 6
#     Node 35, Type 1, BuildingBlock: CUKXOW_clean_sbu_0, # of connection points: 6
#     Node 36, Type 1, BuildingBlock: CUKXOW_clean_sbu_0, # of connection points: 6
#     Node 37, Type 1, BuildingBlock: CUKXOW_clean_sbu_0, # of connection points: 6
#     Node 38, Type 1, BuildingBlock: CUKXOW_clean_sbu_0, # of connection points: 6
#     Node 39, Type 1, BuildingBlock: CUKXOW_clean_sbu_0, # of connection points: 6
#     Edge 40, Type (0, 1), BuildingBlock: XIVTED_clean_linker_0, # of connection points: 2
#     Edge 41, Type (0, 1), BuildingBlock: XIVTED_clean_linker_0, # of connection points: 2
#     Edge 42, Type (0, 1), BuildingBlock: XIVTED_clean_linker_0, # of connection points: 2
#     Edge 43, Type (0, 1), BuildingBlock: XIVTED_clean_linker_0, # of connection points: 2
#     Edge 44, Type (0, 1), BuildingBlock: XIVTED_clean_linker_0, # of connection points: 2
#     Edge 45, Type (0, 1), BuildingBlock: XIVTED_clean_linker_0, # of connection points: 2
#     Edge 46, Type (0, 1), BuildingBlock: XIVTED_clean_linker_0, # of connection points: 2
#     Edge 47, Type (0, 1), BuildingBlock: XIVTED_clean_linker_0, # of connection points: 2
#     Edge 48, Type (0, 1), BuildingBlock: XIVTED_clean_linker_0, # of connection points: 2
#     Edge 49, Type (0, 1), BuildingBlock: XIVTED_clean_linker_0, # of connection points: 2
#     Edge 50, Type (0, 1), BuildingBlock: XIVTED_clean_linker_0, # of connection points: 2
#     Edge 51, Type (0, 1), BuildingBlock: XIVTED_clean_linker_0, # of connection points: 2
#     Edge 52, Type (0, 1), BuildingBlock: XIVTED_clean_linker_0, # of connection points: 2
#     Edge 53, Type (0, 1), BuildingBlock: XIVTED_clean_linker_0, # of connection points: 2
#     Edge 54, Type (0, 1), BuildingBlock: XIVTED_clean_linker_0, # of connection points: 2
#     Edge 55, Type (0, 1), BuildingBlock: XIVTED_clean_linker_0, # of connection points: 2
#     Edge 56, Type (0, 1), BuildingBlock: XIVTED_clean_linker_0, # of connection points: 2
#     Edge 57, Type (0, 1), BuildingBlock: XIVTED_clean_linker_0, # of connection points: 2
#     Edge 58, Type (0, 1), BuildingBlock: XIVTED_clean_linker_0, # of connection points: 2
#     Edge 59, Type (0, 1), BuildingBlock: XIVTED_clean_linker_0, # of connection points: 2
#     Edge 60, Type (0, 1), BuildingBlock: XIVTED_clean_linker_0, # of connection points: 2
#     Edge 61, Type (0, 1), BuildingBlock: XIVTED_clean_linker_0, # of connection points: 2
#     Edge 62, Type (0, 1), BuildingBlock: XIVTED_clean_linker_0, # of connection points: 2
#     Edge 63, Type (0, 1), BuildingBlock: XIVTED_clean_linker_0, # of connection points: 2
#     Edge 64, Type (0, 1), BuildingBlock: XIVTED_clean_linker_0, # of connection points: 2
#     Edge 65, Type (0, 1), BuildingBlock: XIVTED_clean_linker_0, # of connection points: 2
#     Edge 66, Type (0, 1), BuildingBlock: XIVTED_clean_linker_0, # of connection points: 2
#     Edge 67, Type (0, 1), BuildingBlock: XIVTED_clean_linker_0, # of connection points: 2
#     Edge 68, Type (0, 1), BuildingBlock: XIVTED_clean_linker_0, # of connection points: 2
#     Edge 69, Type (0, 1), BuildingBlock: XIVTED_clean_linker_0, # of connection points: 2
#     Edge 70, Type (0, 1), BuildingBlock: XIVTED_clean_linker_0, # of connection points: 2
#     Edge 71, Type (0, 1), BuildingBlock: XIVTED_clean_linker_0, # of connection points: 2
#     Edge 72, Type (0, 1), BuildingBlock: XIVTED_clean_linker_0, # of connection points: 2
#     Edge 73, Type (0, 1), BuildingBlock: XIVTED_clean_linker_0, # of connection points: 2
#     Edge 74, Type (0, 1), BuildingBlock: XIVTED_clean_linker_0, # of connection points: 2
#     Edge 75, Type (0, 1), BuildingBlock: XIVTED_clean_linker_0, # of connection points: 2
#     Edge 76, Type (0, 1), BuildingBlock: XIVTED_clean_linker_0, # of connection points: 2
#     Edge 77, Type (0, 1), BuildingBlock: XIVTED_clean_linker_0, # of connection points: 2
#     Edge 78, Type (0, 1), BuildingBlock: XIVTED_clean_linker_0, # of connection points: 2
#     Edge 79, Type (0, 1), BuildingBlock: XIVTED_clean_linker_0, # of connection points: 2
#     Edge 80, Type (0, 1), BuildingBlock: XIVTED_clean_linker_0, # of connection points: 2
#     Edge 81, Type (0, 1), BuildingBlock: XIVTED_clean_linker_0, # of connection points: 2
#     Edge 82, Type (0, 1), BuildingBlock: XIVTED_clean_linker_0, # of connection points: 2
#     Edge 83, Type (0, 1), BuildingBlock: XIVTED_clean_linker_0, # of connection points: 2
#     Edge 84, Type (0, 1), BuildingBlock: XIVTED_clean_linker_0, # of connection points: 2
#     Edge 85, Type (0, 1), BuildingBlock: XIVTED_clean_linker_0, # of connection points: 2
#     Edge 86, Type (0, 1), BuildingBlock: XIVTED_clean_linker_0, # of connection points: 2
#     Edge 87, Type (0, 1), BuildingBlock: XIVTED_clean_linker_0, # of connection points: 2
#     Edge 88, Type (0, 1), BuildingBlock: XIVTED_clean_linker_0, # of connection points: 2
#     Edge 89, Type (0, 1), BuildingBlock: XIVTED_clean_linker_0, # of connection points: 2
#     Edge 90, Type (0, 1), BuildingBlock: XIVTED_clean_linker_0, # of connection points: 2
#     Edge 91, Type (0, 1), BuildingBlock: XIVTED_clean_linker_0, # of connection points: 2
#     Edge 92, Type (0, 1), BuildingBlock: XIVTED_clean_linker_0, # of connection points: 2
#     Edge 93, Type (0, 1), BuildingBlock: XIVTED_clean_linker_0, # of connection points: 2
#     Edge 94, Type (0, 1), BuildingBlock: XIVTED_clean_linker_0, # of connection points: 2
#     Edge 95, Type (0, 1), BuildingBlock: XIVTED_clean_linker_0, # of connection points: 2
#     Edge 96, Type (0, 1), BuildingBlock: XIVTED_clean_linker_0, # of connection points: 2
#     Edge 97, Type (0, 1), BuildingBlock: XIVTED_clean_linker_0, # of connection points: 2
#     Edge 98, Type (0, 1), BuildingBlock: XIVTED_clean_linker_0, # of connection points: 2
#     Edge 99, Type (0, 1), BuildingBlock: XIVTED_clean_linker_0, # of connection points: 2
#     Edge 100, Type (0, 1), BuildingBlock: XIVTED_clean_linker_0, # of connection points: 2
#     Edge 101, Type (0, 1), BuildingBlock: XIVTED_clean_linker_0, # of connection points: 2
#     Edge 102, Type (0, 1), BuildingBlock: XIVTED_clean_linker_0, # of connection points: 2
#     Edge 103, Type (0, 1), BuildingBlock: XIVTED_clean_linker_0, # of connection points: 2
#     Edge 104, Type (0, 1), BuildingBlock: XIVTED_clean_linker_0, # of connection points: 2
#     Edge 105, Type (0, 1), BuildingBlock: XIVTED_clean_linker_0, # of connection points: 2
#     Edge 106, Type (0, 1), BuildingBlock: XIVTED_clean_linker_0, # of connection points: 2
#     Edge 107, Type (0, 1), BuildingBlock: XIVTED_clean_linker_0, # of connection points: 2
#     Edge 108, Type (0, 1), BuildingBlock: XIVTED_clean_linker_0, # of connection points: 2
#     Edge 109, Type (0, 1), BuildingBlock: XIVTED_clean_linker_0, # of connection points: 2
#     Edge 110, Type (0, 1), BuildingBlock: XIVTED_clean_linker_0, # of connection points: 2
#     Edge 111, Type (0, 1), BuildingBlock: XIVTED_clean_linker_0, # of connection points: 2
#     Edge 112, Type (0, 1), BuildingBlock: XIVTED_clean_linker_0, # of connection points: 2
#     Edge 113, Type (0, 1), BuildingBlock: XIVTED_clean_linker_0, # of connection points: 2
#     Edge 114, Type (0, 1), BuildingBlock: XIVTED_clean_linker_0, # of connection points: 2
#     Edge 115, Type (0, 1), BuildingBlock: XIVTED_clean_linker_0, # of connection points: 2
#     Edge 116, Type (0, 1), BuildingBlock: XIVTED_clean_linker_0, # of connection points: 2
#     Edge 117, Type (0, 1), BuildingBlock: XIVTED_clean_linker_0, # of connection points: 2
#     Edge 118, Type (0, 1), BuildingBlock: XIVTED_clean_linker_0, # of connection points: 2
#     Edge 119, Type (0, 1), BuildingBlock: XIVTED_clean_linker_0, # of connection points: 2
#     Edge 120, Type (0, 1), BuildingBlock: XIVTED_clean_linker_0, # of connection points: 2
#     Edge 121, Type (0, 1), BuildingBlock: XIVTED_clean_linker_0, # of connection points: 2
#     Edge 122, Type (0, 1), BuildingBlock: XIVTED_clean_linker_0, # of connection points: 2
#     Edge 123, Type (0, 1), BuildingBlock: XIVTED_clean_linker_0, # of connection points: 2
#     Edge 124, Type (0, 1), BuildingBlock: XIVTED_clean_linker_0, # of connection points: 2
#     Edge 125, Type (0, 1), BuildingBlock: XIVTED_clean_linker_0, # of connection points: 2
#     Edge 126, Type (0, 1), BuildingBlock: XIVTED_clean_linker_0, # of connection points: 2
#     Edge 127, Type (0, 1), BuildingBlock: XIVTED_clean_linker_0, # of connection points: 2
#     Edge 128, Type (0, 1), BuildingBlock: XIVTED_clean_linker_0, # of connection points: 2
#     Edge 129, Type (0, 1), BuildingBlock: XIVTED_clean_linker_0, # of connection points: 2
#     Edge 130, Type (0, 1), BuildingBlock: XIVTED_clean_linker_0, # of connection points: 2
#     Edge 131, Type (0, 1), BuildingBlock: XIVTED_clean_linker_0, # of connection points: 2
#     Edge 132, Type (0, 1), BuildingBlock: XIVTED_clean_linker_0, # of connection points: 2
#     Edge 133, Type (0, 1), BuildingBlock: XIVTED_clean_linker_0, # of connection points: 2
#     Edge 134, Type (0, 1), BuildingBlock: XIVTED_clean_linker_0, # of connection points: 2
#     Edge 135, Type (0, 1), BuildingBlock: XIVTED_clean_linker_0, # of connection points: 2
# Relax obj value: 0.112
# Max RMSD: 0.223
# Mean RMSD: 0.146
data_MOF--net-gar--node1-TATPOV_clean_sbu_0--node2-CUKXOW_clean_sbu_0--edge1-XIVTED_clean_linker_0
_symmetry_space_group_name_H-M    P1
_symmetry_Int_Tables_number       1
_symmetry_cell_setting            triclinic
loop_
_symmetry_equiv_pos_as_xyz
'x, y, z'
_cell_length_a     55.237504
_cell_length_b     53.936102
_cell_length_c     54.879393
_cell_angle_alpha  94.031875
_cell_angle_beta   96.231825
_cell_angle_gamma 101.11234
loop_
_atom_site_label
_atom_site_type_symbol
_atom_site_fract_x
_atom_site_fract_y
_atom_site_fract_z
_atom_type_partial_charge
Zn0 Zn 0.98325 0.25675 0.47472 0.0
Zn1 Zn 0.02177 0.26583 0.44839 0.0
O2 O 0.02755 0.2991 0.47138 0.0
O3 O 0.99489 0.29182 0.49161 0.0
O4 O 0.05025 0.2687 0.4278 0.0
O5 O 0.99526 0.22796 0.48965 0.0
O6 O 0.02463 0.23327 0.46524 0.0
C7 C 0.01456 0.30636 0.48734 0.0
C8 C 0.96827 0.25579 0.42283 0.0
O9 O 0.99158 0.2625 0.42229 0.0
O10 O 0.95986 0.2509 0.44291 0.0
C11 C 0.05371 0.28427 0.41155 0.0
O12 O 0.03917 0.30075 0.40878 0.0
C13 C 0.01365 0.22111 0.48136 0.0
Zn14 Zn 0.98361 0.72351 0.61546 0.0
Zn15 Zn 0.99064 0.76979 0.5992 0.0
O16 O 0.9604 0.76809 0.61828 0.0
O17 O 0.95461 0.73008 0.63163 0.0
O18 O 0.9934 0.80334 0.58551 0.0
O19 O 0.01824 0.73385 0.63398 0.0
O20 O 0.02358 0.772 0.62088 0.0
C21 C 0.94832 0.7513 0.63002 0.0
C22 C 0.9803 0.72222 0.56305 0.0
O23 O 0.98635 0.74618 0.56745 0.0
O24 O 0.97744 0.70814 0.58043 0.0
C25 C 0.97466 0.8068 0.57158 0.0
O26 O 0.95447 0.78888 0.56785 0.0
C27 C 0.03158 0.75572 0.63358 0.0
Zn28 Zn 0.49341 0.76424 0.9834 0.0
Zn29 Zn 0.52954 0.77133 0.95385 0.0
O30 O 0.5375 0.80498 0.97632 0.0
O31 O 0.50743 0.79911 -8e-05 0.0
O32 O 0.55617 0.77338 0.93123 0.0
O33 O 0.50527 0.73467 -0.00305 0.0
O34 O 0.53275 0.7388 0.97049 0.0
C35 C 0.52653 0.813 0.99367 0.0
C36 C 0.475 0.76312 0.932 0.0
O37 O 0.49805 0.76833 0.92964 0.0
O38 O 0.46808 0.7595 0.95296 0.0
C39 C 0.5663 0.79341 0.92238 0.0
O40 O 0.56005 0.81505 0.9287 0.0
C41 C 0.52262 0.72705 0.98731 0.0
Zn42 Zn 0.47925 0.22522 0.11454 0.0
Zn43 Zn 0.48595 0.27063 0.09752 0.0
O44 O 0.45751 0.27091 0.11878 0.0
O45 O 0.45414 0.23436 0.13493 0.0
O46 O 0.49006 0.30427 0.0838 0.0
O47 O 0.51522 0.23295 0.1292 0.0
O48 O 0.51965 0.2716 0.11748 0.0
C49 C 0.44752 0.25537 0.13301 0.0
C50 C 0.47024 0.22252 0.06222 0.0
O51 O 0.47833 0.24635 0.06594 0.0
O52 O 0.46796 0.2091 0.08014 0.0
C53 C 0.47209 0.30895 0.0696 0.0
O54 O 0.45121 0.29199 0.06522 0.0
C55 C 0.52846 0.25483 0.12875 0.0
Zn56 Zn 0.03608 0.77376 0.13564 0.0
Zn57 Zn 0.99631 0.76862 0.15435 0.0
O58 O 0.99454 0.79684 0.12975 0.0
O59 O 0.02598 0.79403 0.10914 0.0
O60 O 0.96461 0.76677 0.17125 0.0
O61 O 0.03234 0.73632 0.12888 0.0
O62 O 0.99356 0.73227 0.13665 0.0
C63 C 0.00712 0.80336 0.11216 0.0
C64 C 0.0481 0.78745 0.18518 0.0
O65 O 0.02512 0.77705 0.18418 0.0
O66 O 0.0576 0.79136 0.16555 0.0
C67 C 0.94484 0.77254 0.16105 0.0
O68 O 0.94432 0.77932 0.1385 0.0
C69 C 0.01108 0.72257 0.12911 0.0
Zn70 Zn 0.47839 0.78778 0.37268 0.0
Zn71 Zn 0.51881 0.79105 0.35559 0.0
O72 O 0.52233 0.82778 0.37233 0.0
O73 O 0.48333 0.82536 0.3788 0.0
O74 O 0.55132 0.79077 0.34124 0.0
O75 O 0.48642 0.76736 0.39977 0.0
O76 O 0.51875 0.76355 0.38086 0.0
C77 C 0.50502 0.83833 0.37902 0.0
C78 C 0.46811 0.77302 0.32311 0.0
O79 O 0.49132 0.78265 0.32469 0.0
O80 O 0.45773 0.77029 0.34239 0.0
C81 C 0.55718 0.80265 0.32281 0.0
O82 O 0.54194 0.8161 0.31282 0.0
C83 C 0.50514 0.75749 0.39779 0.0
Zn84 Zn 0.5296 0.27043 0.63047 0.0
Zn85 Zn 0.49268 0.26574 0.65474 0.0
O86 O 0.48941 0.29405 0.63082 0.0
O87 O 0.51607 0.28988 0.60461 0.0
O88 O 0.46206 0.26367 0.67348 0.0
O89 O 0.52566 0.23297 0.62438 0.0
O90 O 0.48881 0.22923 0.63724 0.0
C91 C 0.49877 0.30003 0.61122 0.0
C92 C 0.54607 0.28488 0.68032 0.0
O93 O 0.52357 0.27439 0.68198 0.0
O94 O 0.55297 0.28853 0.65941 0.0
C95 C 0.45024 0.28175 0.67468 0.0
O96 O 0.45829 0.30248 0.66431 0.0
C97 C 0.50512 0.21936 0.62751 0.0
Zn98 Zn 0.97613 0.28405 0.87713 0.0
Zn99 Zn 0.01687 0.28845 0.85985 0.0
O100 O 0.01939 0.32528 0.87575 0.0
O101 O 0.98029 0.32174 0.88235 0.0
O102 O 0.04969 0.28831 0.84599 0.0
O103 O 0.98508 0.26458 0.90482 0.0
O104 O 0.01749 0.26171 0.8857 0.0
C105 C 0.00166 0.33531 0.88221 0.0
C106 C 0.96648 0.26873 0.82739 0.0
O107 O 0.9895 0.27915 0.82897 0.0
O108 O 0.9562 0.26557 0.8467 0.0
C109 C 0.05593 0.29963 0.82737 0.0
O110 O 0.04081 0.31267 0.81648 0.0
C111 C 0.00429 0.25551 0.9029 0.0
Zn112 Zn 0.4323 0.05482 0.24127 0.0
Zn113 Zn 0.40197 0.08496 0.24651 0.0
O114 O 0.42551 0.08903 0.28072 0.0
O115 O 0.45127 0.06344 0.27452 0.0
O116 O 0.37902 0.11097 0.25159 0.0
O117 O 0.44653 0.06879 0.21255 0.0
O118 O 0.41738 0.09156 0.2125 0.0
C119 C 0.44375 0.079 0.28869 0.0
C120 C 0.38174 0.02792 0.23815 0.0
O121 O 0.37761 0.05007 0.24327 0.0
O122 O 0.40353 0.02503 0.23547 0.0
C123 C 0.36708 0.12021 0.23437 0.0
O124 O 0.36967 0.11366 0.21144 0.0
C125 C 0.43502 0.08414 0.20242 0.0
Zn126 Zn 0.22246 0.16976 0.45739 0.0
Zn127 Zn 0.25778 0.14517 0.4723 0.0
O128 O 0.27418 0.16696 0.44664 0.0
O129 O 0.24636 0.19056 0.43853 0.0
O130 O 0.28416 0.12624 0.48457 0.0
O131 O 0.22145 0.18289 0.4923 0.0
O132 O 0.25421 0.1667 0.50334 0.0
C133 C 0.2674 0.18533 0.43627 0.0
C134 C 0.20511 0.11707 0.44914 0.0
O135 O 0.22635 0.1175 0.46102 0.0
O136 O 0.19936 0.13749 0.44278 0.0
C137 C 0.28101 0.10232 0.48535 0.0
O138 O 0.25922 0.08793 0.47725 0.0
C139 C 0.23841 0.17993 0.50863 0.0
Zn140 Zn 0.11189 0.02042 0.76644 0.0
Zn141 Zn 0.14084 0.99232 0.77828 0.0
O142 O 0.12079 0.9928 0.80882 0.0
O143 O 0.10301 0.02477 0.80015 0.0
O144 O 0.16269 0.96628 0.78283 0.0
O145 O 0.08877 0.99555 0.74214 0.0
O146 O 0.12012 0.97594 0.74506 0.0
C147 C 0.1075 0.0087 0.8148 0.0
C148 C 0.16063 0.04544 0.76392 0.0
O149 O 0.16504 0.02679 0.77558 0.0
O150 O 0.13861 0.046 0.75527 0.0
C151 C 0.18537 0.96997 0.79206 0.0
O152 O 0.19667 0.99274 0.80185 0.0
C153 C 0.09905 0.97809 0.73441 0.0
Zn154 Zn 0.24401 0.85829 0.01947 0.0
Zn155 Zn 0.20973 0.88335 0.01684 0.0
O156 O 0.20501 0.86321 0.98129 0.0
O157 O 0.23648 0.84354 0.98503 0.0
O158 O 0.18067 0.90229 0.01747 0.0
O159 O 0.23293 0.8368 0.04501 0.0
O160 O 0.20648 0.86224 0.04822 0.0
C161 C 0.21798 0.84847 0.97207 0.0
C162 C 0.26419 0.91088 0.02678 0.0
O163 O 0.24149 0.9122 0.02097 0.0
O164 O 0.27017 0.88959 0.02885 0.0
C165 C 0.17795 0.91958 0.00334 0.0
O166 O 0.19386 0.92496 0.9874 0.0
C167 C 0.2163 0.84413 0.05598 0.0
Zn168 Zn 0.27846 0.37006 0.0549 0.0
Zn169 Zn 0.24818 0.4 0.04158 0.0
O170 O 0.24881 0.378 0.0095 0.0
O171 O 0.27721 0.35589 0.02007 0.0
O172 O 0.22515 0.42357 0.03122 0.0
O173 O 0.25415 0.35211 0.07501 0.0
O174 O 0.23024 0.37981 0.06786 0.0
C175 C 0.26186 0.36188 0.00384 0.0
C176 C 0.30313 0.42117 0.06329 0.0
O177 O 0.28242 0.42418 0.05236 0.0
O178 O 0.30567 0.39936 0.06885 0.0
C179 C 0.20604 0.41545 0.01551 0.0
O180 O 0.20138 0.39161 0.00635 0.0
C181 C 0.2347 0.36039 0.07812 0.0
Zn182 Zn 0.77509 0.20656 -0.00158 0.0
Zn183 Zn 0.80669 0.17831 0.0012 0.0
O184 O 0.81064 0.19727 0.96826 0.0
O185 O 0.78674 0.22536 0.97135 0.0
O186 O 0.83296 0.15533 0.00282 0.0
O187 O 0.78444 0.22321 0.03206 0.0
O188 O 0.81383 0.20086 0.03582 0.0
C189 C 0.80198 0.21592 0.96002 0.0
C190 C 0.75068 0.15533 0.99368 0.0
O191 O 0.77293 0.15218 -0.00119 0.0
O192 O 0.74649 0.17727 0.9911 0.0
C193 C 0.84993 0.15548 0.98872 0.0
O194 O 0.85175 0.17166 0.97188 0.0
C195 C 0.80265 0.21749 0.0448 0.0
Zn196 Zn 0.073 0.5144 0.26944 0.0
Zn197 Zn 0.10189 0.48204 0.26991 0.0
O198 O 0.08304 0.47744 0.30133 0.0
O199 O 0.05513 0.50141 0.29657 0.0
O200 O 0.12305 0.45487 0.27155 0.0
O201 O 0.05779 0.50356 0.23504 0.0
O202 O 0.08161 0.47522 0.2343 0.0
C203 C 0.06467 0.48586 0.30863 0.0
C204 C 0.12456 0.53848 0.27681 0.0
O205 O 0.12772 0.51576 0.2733 0.0
O206 O 0.10289 0.54289 0.27698 0.0
C207 C 0.1363 0.45127 0.25456 0.0
O208 O 0.13584 0.46513 0.23582 0.0
C209 C 0.06503 0.48576 0.22358 0.0
Zn210 Zn 0.76535 0.85335 0.54619 0.0
Zn211 Zn 0.738 0.8888 0.5374 0.0
O212 O 0.73586 0.86787 0.50409 0.0
O213 O 0.75826 0.83883 0.51104 0.0
O214 O 0.71645 0.91471 0.53 0.0
O215 O 0.74245 0.83876 0.56932 0.0
O216 O 0.72116 0.86912 0.56466 0.0
C217 C 0.74473 0.84906 0.49642 0.0
C218 C 0.79408 0.90445 0.5544 0.0
O219 O 0.77337 0.91026 0.54701 0.0
O220 O 0.79524 0.88151 0.55688 0.0
C221 C 0.70992 0.91967 0.50819 0.0
O222 O 0.71775 0.90825 0.48955 0.0
C223 C 0.72475 0.84914 0.57444 0.0
Zn224 Zn 0.89876 0.02785 0.24566 0.0
Zn225 Zn 0.87473 0.06105 0.23699 0.0
O226 O 0.89499 0.07247 0.27171 0.0
O227 O 0.92261 0.04816 0.27254 0.0
O228 O 0.85553 0.08941 0.23298 0.0
O229 O 0.90942 0.02594 0.21255 0.0
O230 O 0.89641 0.06149 0.20769 0.0
C231 C 0.91457 0.06647 0.28203 0.0
C232 C 0.84844 0.00763 0.2453 0.0
O233 O 0.84703 0.02837 0.23591 0.0
O234 O 0.86936 0.00342 0.25361 0.0
C235 C 0.84547 0.09617 0.25149 0.0
O236 O 0.84721 0.08395 0.27129 0.0
C237 C 0.90813 0.04469 0.20027 0.0
Zn238 Zn 0.27955 0.70849 0.50368 0.0
Zn239 Zn 0.31025 0.67952 0.50391 0.0
O240 O 0.31334 0.69985 0.47182 0.0
O241 O 0.29071 0.72872 0.47725 0.0
O242 O 0.3371 0.65751 0.50217 0.0
O243 O 0.28968 0.72358 0.53779 0.0
O244 O 0.31856 0.70052 0.53945 0.0
C245 C 0.30507 0.71918 0.46477 0.0
C246 C 0.25434 0.65717 0.49651 0.0
O247 O 0.27644 0.6533 0.50095 0.0
O248 O 0.25068 0.67951 0.4955 0.0
C249 C 0.34101 0.6421 0.51806 0.0
O250 O 0.32763 0.6403 0.53649 0.0
C251 C 0.30796 0.71702 0.5496 0.0
Zn252 Zn 0.40267 0.52782 0.74454 0.0
Zn253 Zn 0.3749 0.55702 0.73583 0.0
O254 O 0.39409 0.56994 0.77081 0.0
O255 O 0.42571 0.55089 0.77033 0.0
O256 O 0.35285 0.58275 0.73089 0.0
O257 O 0.4126 0.52553 0.71118 0.0
O258 O 0.39669 0.55942 0.70649 0.0
C259 C 0.41524 0.56693 0.78052 0.0
C260 C 0.35384 0.50311 0.74629 0.0
O261 O 0.3499 0.52262 0.73585 0.0
O262 O 0.37574 0.50156 0.75436 0.0
C263 C 0.36261 0.60613 0.73622 0.0
O264 O 0.38669 0.61263 0.74305 0.0
C265 C 0.40969 0.54391 0.6989 0.0
Zn266 Zn 0.57248 0.0126 0.7721 0.0
Zn267 Zn 0.60253 0.98093 0.77047 0.0
O268 O 0.58537 0.97658 0.80306 0.0
O269 O 0.55656 -0.00027 0.80069 0.0
O270 O 0.62412 0.95389 0.77106 0.0
O271 O 0.55592 0.00148 0.73799 0.0
O272 O 0.58116 0.97466 0.73531 0.0
C273 C 0.56744 0.98454 0.81189 0.0
C274 C 0.62438 0.03736 0.77711 0.0
O275 O 0.62792 0.01481 0.77333 0.0
O276 O 0.6026 0.04125 0.77816 0.0
C277 C 0.63744 0.95053 0.75405 0.0
O278 O 0.63686 0.96448 0.73538 0.0
C279 C 0.56366 0.98466 0.72554 0.0
Zn280 Zn 0.72778 0.67216 0.94944 0.0
Zn281 Zn 0.76177 0.64635 0.96862 0.0
O282 O 0.77985 0.66568 0.94253 0.0
O283 O 0.75212 0.68672 0.92712 0.0
O284 O 0.78695 0.62732 0.98338 0.0
O285 O 0.72925 0.69038 0.98331 0.0
O286 O 0.75804 0.67019 -0.00233 0.0
C287 C 0.77339 0.68115 0.92786 0.0
C288 C 0.70853 0.61903 0.9464 0.0
O289 O 0.72991 0.61912 0.95782 0.0
O290 O 0.70321 0.63943 0.93946 0.0
C291 C 0.78407 0.6033 0.98275 0.0
O292 O 0.76339 0.58894 0.97151 0.0
C293 C 0.74438 0.68633 0.00092 0.0
Zn294 Zn 0.93272 0.55456 0.74343 0.0
Zn295 Zn 0.90373 0.58545 0.74495 0.0
O296 O 0.92526 0.59112 0.78052 0.0
O297 O 0.94906 0.56294 0.77744 0.0
O298 O 0.88085 0.61206 0.74538 0.0
O299 O 0.95098 0.56782 0.71703 0.0
O300 O 0.92274 0.5915 0.71281 0.0
C301 C 0.94222 0.58021 0.79007 0.0
C302 C 0.88265 0.52821 0.7363 0.0
O303 O 0.87872 0.55053 0.741 0.0
O304 O 0.90455 0.52489 0.73516 0.0
C305 C 0.86872 0.61556 0.76343 0.0
O306 O 0.87126 0.60223 0.78236 0.0
C307 C 0.94135 0.58349 0.7053 0.0
Zn308 Zn 0.74423 0.35959 0.52084 0.0
Zn309 Zn 0.71261 0.38774 0.51701 0.0
O310 O 0.70811 0.36767 0.48135 0.0
O311 O 0.73735 0.34526 0.48619 0.0
O312 O 0.68477 0.40838 0.51667 0.0
O313 O 0.73071 0.33874 0.54598 0.0
O314 O 0.70722 0.36723 0.54849 0.0
C315 C 0.72018 0.35177 0.47256 0.0
C316 C 0.76767 0.4117 0.52902 0.0
O317 O 0.74565 0.41476 0.52231 0.0
O318 O 0.77179 0.38965 0.53121 0.0
C319 C 0.68336 0.42649 0.50321 0.0
O320 O 0.70019 0.43216 0.4882 0.0
C321 C 0.715 0.34811 0.55663 0.0
Zn322 Zn 0.6117 0.52471 0.26501 0.0
Zn323 Zn 0.64369 0.49923 0.27803 0.0
O324 O 0.62248 0.49805 0.30792 0.0
O325 O 0.60053 0.52655 0.29791 0.0
O326 O 0.66848 0.47594 0.28457 0.0
O327 O 0.59155 0.49923 0.23915 0.0
O328 O 0.62482 0.48258 0.24386 0.0
C329 C 0.60668 0.51155 0.31301 0.0
C330 C 0.66011 0.55317 0.26401 0.0
O331 O 0.6659 0.53482 0.27534 0.0
O332 O 0.6377 0.55247 0.25569 0.0
C333 C 0.6616 0.45244 0.27716 0.0
O334 O 0.63834 0.44372 0.26782 0.0
C335 C 0.60384 0.48328 0.23196 0.0
Tb336 Tb 0.01774 0.05857 0.00433 0.0
C337 C 0.01463 0.01722 0.9605 0.0
Tb338 Tb -0.00117 0.00317 0.01213 0.0
O339 O 0.05545 0.0528 0.00255 0.0
O340 O 0.03225 0.03005 0.02309 0.0
O341 O 0.01235 0.04086 0.96672 0.0
C342 C 0.99264 0.95431 0.02119 0.0
O343 O 0.01119 -0.00082 0.97577 0.0
C344 C 0.96423 0.02975 0.00081 0.0
C345 C 0.00331 0.04426 0.0563 0.0
O346 O 0.01257 0.96775 0.01465 0.0
O347 O 0.97601 0.96819 0.02197 0.0
O348 O 0.96126 0.01057 0.01388 0.0
O349 O 0.98489 0.03144 0.99263 0.0
O350 O 0.00546 0.02068 0.0498 0.0
O351 O 0.00601 0.06226 0.04098 0.0
C352 C 0.02244 0.10739 -0.0041 0.0
O353 O 0.03965 0.09423 -0.005 0.0
O354 O 0.00273 0.09321 0.00204 0.0
C355 C 0.05284 0.03273 0.01443 0.0
Tb356 Tb 0.26635 0.80937 0.26285 0.0
C357 C 0.30532 0.77452 0.25189 0.0
Tb358 Tb 0.24933 0.75209 0.25716 0.0
O359 O 0.26755 0.81061 0.30303 0.0
O360 O 0.27361 0.77885 0.28303 0.0
O361 O 0.29961 0.79736 0.25129 0.0
C362 C 0.23321 0.70443 0.26709 0.0
O363 O 0.28919 0.7545 0.25709 0.0
C364 C 0.24572 0.77395 0.21591 0.0
C365 C 0.20986 0.78686 0.26663 0.0
O366 O 0.24016 0.71116 0.24627 0.0
O367 O 0.23524 0.72452 0.28222 0.0
O368 O 0.24848 0.75065 0.21705 0.0
O369 O 0.24234 0.78249 0.23689 0.0
O370 O 0.21559 0.76405 0.26762 0.0
O371 O 0.22633 0.80691 0.26202 0.0
C372 C 0.28248 0.85725 0.25329 0.0
O373 O 0.27514 0.85033 0.27391 0.0
O374 O 0.28086 0.83723 0.23818 0.0
C375 C 0.27046 0.78736 0.30409 0.0
Tb376 Tb 0.53174 0.02747 0.50259 0.0
C377 C 0.51187 0.00582 0.55017 0.0
Tb378 Tb 0.47702 0.02583 0.50914 0.0
O379 O 0.5435 0.05772 0.53271 0.0
O380 O 0.50947 0.05403 0.5109 0.0
O381 O 0.52841 0.00533 0.53436 0.0
C382 C 0.43401 0.03491 0.52186 0.0
O383 O 0.49124 0.01474 0.54486 0.0
C384 C 0.4861 0.9882 0.48128 0.0
C385 C 0.49671 0.04824 0.46172 0.0
O386 O 0.43689 0.01411 0.51017 0.0
O387 O 0.45543 0.05022 0.52684 0.0
O388 O 0.46559 -0.00338 0.47823 0.0
O389 O 0.49926 -0.00075 0.5006 0.0
O390 O 0.47962 0.04741 0.4771 0.0
O391 O 0.51793 0.04023 0.46721 0.0
C392 C 0.57485 0.01745 0.49081 0.0
O393 O 0.57244 0.03576 0.50639 0.0
O394 O 0.5529 0.00535 0.48118 0.0
C395 C 0.52275 0.06568 0.52984 0.0
Tb396 Tb 0.25812 0.27931 0.78213 0.0
C397 C 0.26331 0.32821 0.75153 0.0
Tb398 Tb 0.24668 0.27264 0.72721 0.0
O399 O 0.29303 0.26576 0.78038 0.0
O400 O 0.27917 0.28502 0.75226 0.0
O401 O 0.26153 0.31891 0.77325 0.0
C402 C 0.24809 0.25944 0.67992 0.0
O403 O 0.26107 0.31331 0.73078 0.0
C404 C 0.20964 0.28085 0.75045 0.0
C405 C 0.24175 0.22385 0.75762 0.0
O406 O 0.22921 0.26576 0.68904 0.0
O407 O 0.26618 0.26065 0.69736 0.0
O408 O 0.21307 0.28791 0.72874 0.0
O409 O 0.22528 0.2676 0.7571 0.0
O410 O 0.2443 0.23326 0.7361 0.0
O411 O 0.24322 0.23868 0.77827 0.0
C412 C 0.25574 0.29283 0.82923 0.0
O413 O 0.27312 0.28269 0.82106 0.0
O414 O 0.23978 0.29533 0.81095 0.0
C415 C 0.29572 0.27282 0.75852 0.0
Tb416 Tb 0.99129 0.01299 0.48151 0.0
C417 C 0.95967 0.99317 0.52215 0.0
Tb418 Tb 0.01877 -0.00013 0.5298 0.0
O419 O 0.97349 0.97277 0.47173 0.0
O420 O 0.00774 0.98325 0.49336 0.0
O421 O 0.96072 0.00771 0.50361 0.0
C422 C 0.03234 0.97654 0.56865 0.0
O423 O 0.97936 0.98507 0.53224 0.0
C424 C 0.0206 0.04828 0.52666 0.0
C425 C 0.05036 0.01838 0.48862 0.0
O426 O 0.01615 0.99103 0.56764 0.0
O427 O 0.04148 0.97553 0.54788 0.0
O428 O 0.03633 0.03968 0.54147 0.0
O429 O 0.00326 0.03023 0.51764 0.0
O430 O 0.04941 0.00459 0.50774 0.0
O431 O 0.03072 0.02637 0.47822 0.0
C432 C 0.9767 0.03629 0.44304 0.0
O433 O 0.99173 0.02057 0.44308 0.0
O434 O 0.96928 0.03856 0.46458 0.0
C435 C 0.99078 0.9647 0.48508 0.0
Tb436 Tb 0.29836 0.7896 0.77765 0.0
C437 C 0.25245 0.79549 0.80525 0.0
Tb438 Tb 0.24671 0.78471 0.74747 0.0
O439 O 0.30119 0.82969 0.78985 0.0
O440 O 0.27894 0.81358 0.75757 0.0
O441 O 0.27403 0.78799 0.8066 0.0
C442 C 0.20141 0.78721 0.72715 0.0
O443 O 0.24007 0.79866 0.78401 0.0
C444 C 0.26171 0.74153 0.75229 0.0
C445 C 0.29217 0.78091 0.71906 0.0
O446 O 0.20645 0.77371 0.74494 0.0
O447 O 0.22198 0.79951 0.72065 0.0
O448 O 0.24537 0.74482 0.7347 0.0
O449 O 0.26626 0.76101 0.76749 0.0
O450 O 0.2703 0.78797 0.71805 0.0
O451 O 0.30521 0.77793 0.74017 0.0
C452 C 0.33809 0.77985 0.80444 0.0
O453 O 0.33896 0.79439 0.78647 0.0
O454 O 0.31511 0.77096 0.80706 0.0
C455 C 0.28428 0.83309 0.77278 0.0
Tb456 Tb 0.47851 0.02136 0.00745 0.0
C457 C 0.51949 0.99137 0.02301 0.0
Tb458 Tb 0.53273 0.04885 0.01126 0.0
O459 O 0.48286 0.99427 0.97747 0.0
O460 O 0.50482 0.03082 0.98237 0.0
O461 O 0.49617 0.99335 0.02482 0.0
C462 C 0.58102 0.06353 0.00671 0.0
O463 O 0.5359 0.00963 0.01545 0.0
C464 C 0.50883 0.06088 0.0481 0.0
C465 C 0.49214 0.07768 0.99186 0.0
O466 O 0.57217 0.05701 0.02681 0.0
O467 O 0.56271 0.06211 0.98945 0.0
O468 O 0.52742 0.07604 0.04094 0.0
O469 O 0.50628 0.03934 0.03637 0.0
O470 O 0.51576 0.07599 0.99181 0.0
O471 O 0.47551 0.06 0.0 0.0
C472 C 0.43046 0.00746 0.01327 0.0
O473 O 0.43894 0.01189 0.99253 0.0
O474 O 0.44901 0.01052 0.03055 0.0
C475 C 0.50166 0.00928 0.97044 0.0
Tb476 Tb 0.22325 0.27264 0.27544 0.0
C477 C 0.27588 0.28272 0.30589 0.0
Tb478 Tb 0.26853 0.28521 0.24808 0.0
O479 O 0.23428 0.23653 0.28356 0.0
O480 O 0.24194 0.25244 0.25124 0.0
O481 O 0.25207 0.28336 0.30661 0.0
C482 C 0.30992 0.28368 0.22796 0.0
O483 O 0.286 0.28222 0.28509 0.0
C484 C 0.24814 0.32406 0.25856 0.0
C485 C 0.21629 0.27496 0.21794 0.0
O486 O 0.29571 0.2998 0.22371 0.0
O487 O 0.3009 0.26858 0.2435 0.0
O488 O 0.26144 0.32243 0.24069 0.0
O489 O 0.2497 0.30587 0.27163 0.0
O490 O 0.23926 0.271 0.21781 0.0
O491 O 0.20664 0.27851 0.23871 0.0
C492 C 0.18265 0.27351 0.29787 0.0
O493 O 0.19857 0.29312 0.2935 0.0
O494 O 0.18934 0.25313 0.28931 0.0
C495 C 0.24539 0.23465 0.26402 0.0
Tb496 Tb 0.49588 0.51665 0.98061 0.0
C497 C 0.46682 0.50285 0.02547 0.0
Tb498 Tb 0.52508 0.50274 0.02766 0.0
O499 O 0.47625 0.47699 0.97205 0.0
O500 O 0.51166 0.48594 0.99163 0.0
O501 O 0.46709 0.5144 0.00485 0.0
C502 C 0.54273 0.47772 0.06361 0.0
O503 O 0.4866 0.49534 0.03634 0.0
C504 C 0.52736 0.55144 0.02538 0.0
C505 C 0.55361 0.51861 0.98382 0.0
O506 O 0.51982 0.47341 0.05342 0.0
O507 O 0.55555 0.49621 0.05371 0.0
O508 O 0.54271 0.5425 0.04027 0.0
O509 O 0.50998 0.53355 0.01637 0.0
O510 O 0.55182 0.50271 0.00125 0.0
O511 O 0.53495 0.52946 0.97602 0.0
C512 C 0.48029 0.5395 0.94214 0.0
O513 O 0.49564 0.52411 0.94206 0.0
O514 O 0.4732 0.54176 0.96382 0.0
C515 C 0.4935 0.46813 0.98457 0.0
Tb516 Tb 0.79418 0.28978 0.27334 0.0
C517 C 0.7507 0.29653 0.30377 0.0
Tb518 Tb 0.74205 0.28527 0.24556 0.0
O519 O 0.79608 0.32974 0.286 0.0
O520 O 0.7748 0.31354 0.25309 0.0
O521 O 0.77235 0.28918 0.30413 0.0
C522 C 0.69611 0.28725 0.22673 0.0
O523 O 0.73723 0.29931 0.28294 0.0
C524 C 0.75697 0.24234 0.2506 0.0
C525 C 0.78566 0.281 0.21467 0.0
O526 O 0.70195 0.27232 0.24291 0.0
O527 O 0.71622 0.30134 0.22114 0.0
O528 O 0.74167 0.24596 0.23222 0.0
O529 O 0.76136 0.26163 0.26595 0.0
O530 O 0.76367 0.28765 0.21459 0.0
O531 O 0.79963 0.27851 0.23534 0.0
C532 C 0.83567 0.27833 0.29491 0.0
O533 O 0.81344 0.26489 0.29402 0.0
O534 O 0.83473 0.2986 0.28361 0.0
C535 C 0.77991 0.33314 0.26813 0.0
Tb536 Tb 0.98228 0.52295 0.50838 0.0
C537 C 0.01992 0.48764 0.52454 0.0
Tb538 Tb 0.03754 0.54404 0.51298 0.0
O539 O 0.97885 0.51721 0.46845 0.0
O540 O 0.01218 0.51554 0.48932 0.0
O541 O 0.99709 0.4921 0.52497 0.0
C542 C 0.08499 0.56099 0.50624 0.0
O543 O 0.03786 0.50428 0.51696 0.0
C544 C 0.01613 0.55218 0.55297 0.0
C545 C 0.00038 0.57742 0.49201 0.0
O546 O 0.07731 0.55398 0.52665 0.0
O547 O 0.0659 0.55878 0.48962 0.0
O548 O 0.03918 0.55024 0.55326 0.0
O549 O 0.00721 0.55218 0.53095 0.0
O550 O 0.02345 0.57342 0.49354 0.0
O551 O 0.98219 0.56186 0.50053 0.0
C552 C 0.93559 0.5073 0.51784 0.0
O553 O 0.94232 0.51149 0.49637 0.0
O554 O 0.95521 0.51151 0.53405 0.0
C555 C 0.00199 0.51602 0.4677 0.0
Tb556 Tb 0.75792 0.78589 0.27387 0.0
C557 C 0.75843 0.83352 0.24313 0.0
Tb558 Tb 0.74639 0.77839 0.21853 0.0
O559 O 0.79352 0.77362 0.27264 0.0
O560 O 0.77873 0.79144 0.24378 0.0
O561 O 0.75347 0.82362 0.26396 0.0
C562 C 0.74956 0.76555 0.1715 0.0
O563 O 0.76061 0.81913 0.22319 0.0
C564 C 0.70878 0.78557 0.2415 0.0
C565 C 0.74361 0.72987 0.2496 0.0
O566 O 0.73183 0.77525 0.17948 0.0
O567 O 0.76537 0.76307 0.18993 0.0
O568 O 0.7114 0.79154 0.21928 0.0
O569 O 0.72534 0.77355 0.24855 0.0
O570 O 0.74301 0.73897 0.22767 0.0
O571 O 0.74778 0.74476 0.2705 0.0
C572 C 0.75564 0.7978 0.32131 0.0
O573 O 0.74042 0.77987 0.30733 0.0
O574 O 0.77249 0.8089 0.30875 0.0
C575 C 0.79575 0.77993 0.25044 0.0
Tb576 Tb 0.76863 0.30868 0.75892 0.0
C577 C 0.80624 0.27178 0.74893 0.0
Tb578 Tb 0.74908 0.24916 0.75362 0.0
O579 O 0.76884 0.30963 0.79912 0.0
O580 O 0.77274 0.2772 0.779 0.0
O581 O 0.80223 0.29545 0.75051 0.0
C582 C 0.73499 0.20253 0.76676 0.0
O583 O 0.78873 0.25142 0.75097 0.0
C584 C 0.73884 0.26942 0.71207 0.0
C585 C 0.71166 0.28637 0.75955 0.0
O586 O 0.74531 0.20801 0.74707 0.0
O587 O 0.73279 0.22333 0.77904 0.0
O588 O 0.73321 0.24519 0.71434 0.0
O589 O 0.74991 0.27971 0.73249 0.0
O590 O 0.71699 0.26399 0.76424 0.0
O591 O 0.7285 0.30544 0.75372 0.0
C592 C 0.78552 0.35671 0.75036 0.0
O593 O 0.77527 0.3496 0.76959 0.0
O594 O 0.78649 0.33677 0.73608 0.0
C595 C 0.76988 0.28584 0.80008 0.0
Tb596 Tb 0.72885 0.7764 0.77904 0.0
C597 C 0.78338 0.78411 0.80444 0.0
Tb598 Tb 0.77106 0.78456 0.74697 0.0
O599 O 0.73866 0.74082 0.79016 0.0
O600 O 0.74588 0.75291 0.7562 0.0
O601 O 0.76077 0.78798 0.80716 0.0
C602 C 0.80853 0.78088 0.72137 0.0
O603 O 0.79063 0.78006 0.78253 0.0
C604 C 0.75068 0.82427 0.75438 0.0
C605 C 0.71664 0.77565 0.72138 0.0
O606 O 0.7883 0.76397 0.72057 0.0
O607 O 0.80787 0.8001 0.73674 0.0
O608 O 0.76174 0.8198 0.73534 0.0
O609 O 0.75394 0.80818 0.76951 0.0
O610 O 0.73932 0.7719 0.71905 0.0
O611 O 0.70923 0.78057 0.7431 0.0
C612 C 0.69132 0.77998 0.80511 0.0
O613 O 0.71118 0.79726 0.80516 0.0
O614 O 0.69245 0.76051 0.79024 0.0
C615 C 0.7494 0.73651 0.77083 0.0
Tb616 Tb 0.51765 0.55999 0.50219 0.0
C617 C 0.51818 0.51605 0.46213 0.0
Tb618 Tb 0.50353 0.50493 0.51479 0.0
O619 O 0.55532 0.55564 0.49693 0.0
O620 O 0.53583 0.53404 0.52113 0.0
O621 O 0.51352 0.53916 0.46612 0.0
C622 C 0.50129 0.4586 0.52978 0.0
O623 O 0.51789 0.49999 0.47945 0.0
C624 C 0.46582 0.5281 0.50578 0.0
C625 C 0.50482 0.54919 0.55551 0.0
O626 O 0.489 0.46364 0.50976 0.0
O627 O 0.51515 0.47939 0.54064 0.0
O628 O 0.46562 0.5095 0.51951 0.0
O629 O 0.48553 0.53077 0.49569 0.0
O630 O 0.50773 0.52555 0.5509 0.0
O631 O 0.50615 0.56574 0.53871 0.0
C632 C 0.51829 0.60686 0.48935 0.0
O633 O 0.49938 0.58809 0.48535 0.0
O634 O 0.53697 0.59943 0.50095 0.0
C635 C 0.55541 0.53707 0.51072 0.0
Tb636 Tb 0.03359 0.5295 0.00143 0.0
C637 C 0.01437 0.50777 0.0493 0.0
Tb638 Tb 0.97924 0.52837 0.00915 0.0
O639 O 0.04648 0.5592 0.03181 0.0
O640 O 0.01196 0.55635 0.01098 0.0
O641 O 0.03075 0.50744 0.03329 0.0
C642 C 0.93638 0.53699 0.02269 0.0
O643 O 0.9938 0.51688 0.04445 0.0
C644 C 0.98757 0.49063 0.9808 0.0
C645 C -0.00185 0.55143 0.96182 0.0
O646 O 0.95769 0.55259 0.02722 0.0
O647 O 0.93933 0.51625 0.01098 0.0
O648 O 0.96724 0.49937 0.97799 0.0
O649 O 0.00099 0.50157 -2e-05 0.0
O650 O 0.9814 0.55046 0.97755 0.0
O651 O 0.01928 0.54308 0.96664 0.0
C652 C 0.07541 0.51748 0.98804 0.0
O653 O 0.05296 0.50576 0.97973 0.0
O654 O 0.07425 0.53671 0.00316 0.0
C655 C 0.02585 0.56746 0.02986 0.0
H656 H 0.98029 0.24037 0.94178 0.0
H657 H 0.05924 0.13471 0.97355 0.0
H658 H 0.04183 0.22831 0.90329 0.0
H659 H 0.9876 0.13676 -0.00288 0.0
H660 H 0.05776 0.17376 0.95355 0.0
H661 H 0.98756 0.20734 0.96792 0.0
C662 C 0.99547 0.23088 0.93888 0.0
C663 C 0.01029 0.23695 0.92004 0.0
C664 C 0.04252 0.1658 0.96334 0.0
C665 C 0.01868 0.19892 0.9501 0.0
C666 C 0.04341 0.14365 0.97485 0.0
C667 C 0.02346 0.13257 0.98688 0.0
C668 C 0.02161 0.17693 0.96407 0.0
C669 C 0.00334 0.14473 0.98798 0.0
C670 C -0.00042 0.21197 0.95385 0.0
C671 C 0.02984 0.22413 0.91744 0.0
N672 N 0.00287 0.16621 0.9766 0.0
N673 N 0.03337 0.20555 0.93221 0.0
H674 H 0.08163 0.83023 0.20255 0.0
H675 H 0.16875 0.74899 0.26773 0.0
H676 H 0.05491 0.75345 0.21857 0.0
H677 H 0.19027 0.82955 0.26241 0.0
H678 H 0.12528 0.75172 0.25683 0.0
H679 H 0.11886 0.83246 0.23161 0.0
C680 C 0.08325 0.81415 0.21294 0.0
C681 C 0.06522 0.79167 0.20828 0.0
C682 C 0.13946 0.76889 0.25855 0.0
C683 C 0.1084 0.79351 0.24067 0.0
C684 C 0.16435 0.76736 0.26479 0.0
C685 C 0.18334 0.78898 0.26549 0.0
C686 C 0.13353 0.79217 0.25276 0.0
C687 C 0.17638 0.81226 0.26169 0.0
C688 C 0.10463 0.8153 0.22939 0.0
C689 C 0.06833 0.77121 0.22189 0.0
N690 N 0.15215 0.81314 0.25508 0.0
N691 N 0.08985 0.77237 0.23704 0.0
H692 H 0.54252 0.86457 0.4136 0.0
H693 H 0.46576 0.97431 0.43401 0.0
H694 H 0.47673 0.87226 0.36727 0.0
H695 H 0.52257 0.96038 0.48868 0.0
H696 H 0.47583 0.94231 0.40532 0.0
H697 H 0.54219 0.90528 0.43682 0.0
C698 C 0.52855 0.87528 0.40783 0.0
C699 C 0.50957 0.86518 0.38863 0.0
C700 C 0.48628 0.94633 0.42351 0.0
C701 C 0.50878 0.91113 0.41509 0.0
C702 C 0.48045 0.96452 0.43992 0.0
C703 C 0.49324 0.96978 0.46374 0.0
C704 C 0.50489 0.93303 0.43104 0.0
C705 C 0.51231 0.95681 0.4704 0.0
C706 C 0.52818 0.89829 0.42121 0.0
C707 C 0.49162 0.87945 0.38206 0.0
N708 N 0.51745 0.93881 0.45417 0.0
N709 N 0.49154 0.90155 0.39538 0.0
H710 H 0.41652 0.31266 0.67206 0.0
H711 H 0.33277 0.24634 0.76873 0.0
H712 H 0.43131 0.24594 0.70504 0.0
H713 H 0.30941 0.29842 0.71942 0.0
H714 H 0.37026 0.24732 0.74807 0.0
H715 H 0.37877 0.30942 0.69185 0.0
C716 C 0.41188 0.29731 0.68352 0.0
C717 C 0.42722 0.27955 0.68687 0.0
C718 C 0.35685 0.25842 0.74172 0.0
C719 C 0.38374 0.27578 0.70981 0.0
C720 C 0.3355 0.2579 0.75352 0.0
C721 C 0.31798 0.27233 0.74578 0.0
C722 C 0.36083 0.27374 0.72226 0.0
C723 C 0.3224 0.28696 0.72596 0.0
C724 C 0.39019 0.29542 0.69476 0.0
C725 C 0.42005 0.26003 0.70189 0.0
N726 N 0.34341 0.28741 0.71502 0.0
N727 N 0.3989 0.25874 0.71292 0.0
H728 H 0.93773 0.82092 0.54152 0.0
H729 H 0.02773 0.94453 0.5067 0.0
H730 H 0.01501 0.84507 0.57149 0.0
H731 H 0.94846 0.92857 0.48531 0.0
H732 H 0.02362 0.90582 0.52763 0.0
H733 H 0.94131 0.85842 0.51849 0.0
C734 C 0.95542 0.83413 0.54331 0.0
C735 C 0.97612 0.82986 0.55843 0.0
C736 C 0.00708 0.91064 0.51829 0.0
C737 C 0.98035 0.87257 0.53202 0.0
C738 C 0.00945 0.93271 0.50637 0.0
C739 C 0.98838 0.93973 0.49459 0.0
C740 C 0.98343 0.89539 0.51832 0.0
C741 C 0.96514 0.92365 0.4942 0.0
C742 C 0.95744 0.85549 0.53014 0.0
C743 C -0.00143 0.84759 0.56008 0.0
N744 N 0.96324 0.90219 0.50607 0.0
N745 N 8e-05 0.86811 0.54698 0.0
H746 H 0.4817 0.78143 0.88721 0.0
H747 H 0.33615 0.74711 0.8395 0.0
H748 H 0.42531 0.74342 0.92809 0.0
H749 H 0.38798 0.79993 0.80531 0.0
H750 H 0.37033 0.73999 0.86821 0.0
H751 H 0.4492 0.78306 0.85345 0.0
C752 C 0.46255 0.7732 0.88898 0.0
C753 C 0.45615 0.76244 0.91057 0.0
C754 C 0.37435 0.75309 0.85441 0.0
C755 C 0.41909 0.7642 0.87214 0.0
C756 C 0.35483 0.75714 0.83798 0.0
C757 C 0.3593 0.77436 0.82025 0.0
C758 C 0.39859 0.76639 0.85318 0.0
C759 C 0.38384 0.78663 0.81889 0.0
C760 C 0.44405 0.77423 0.86977 0.0
C761 C 0.43108 0.7521 0.91191 0.0
N762 N 0.40266 0.78255 0.83534 0.0
N763 N 0.4135 0.7533 0.893 0.0
H764 H 0.50077 0.22912 0.02642 0.0
H765 H 0.44495 0.08643 0.9836 0.0
H766 H 0.43114 0.18579 0.04229 0.0
H767 H 0.52194 0.1231 0.98548 0.0
H768 H 0.43361 0.12795 0.98545 0.0
H769 H 0.50138 0.19672 0.99293 0.0
C770 C 0.48507 0.21336 0.02208 0.0
C771 C 0.46622 0.20953 0.03736 0.0
C772 C 0.45291 0.12688 0.98476 0.0
C773 C 0.46688 0.17263 -0.00035 0.0
C774 C 0.45943 0.10318 0.98383 0.0
C775 C 0.48455 0.10142 0.98555 0.0
C776 C 0.4717 0.14886 0.98796 0.0
C777 C 0.5024 0.12366 0.98494 0.0
C778 C 0.48547 0.19484 0.00309 0.0
C779 C 0.44628 0.18895 0.03114 0.0
N780 N 0.49572 0.14658 0.98694 0.0
N781 N 0.44737 0.17094 0.01304 0.0
H782 H 0.07986 0.24641 0.40548 0.0
H783 H 0.16389 0.31493 0.31071 0.0
H784 H 0.07075 0.31799 0.3791 0.0
H785 H 0.15496 0.23487 0.31889 0.0
H786 H 0.13196 0.31756 0.33791 0.0
H787 H 0.11005 0.24313 0.37655 0.0
C788 C 0.08428 0.26151 0.3937 0.0
C789 C 0.07276 0.28255 0.39477 0.0
C790 C 0.13684 0.29937 0.33363 0.0
C791 C 0.10734 0.27886 0.36158 0.0
C792 C 0.15503 0.29786 0.31812 0.0
C793 C 0.16198 0.27463 0.31257 0.0
C794 C 0.1258 0.27757 0.34401 0.0
C795 C 0.15002 0.25311 0.32266 0.0
C796 C 0.10141 0.25953 0.37708 0.0
C797 C 0.07915 0.30144 0.37892 0.0
N798 N 0.13265 0.25513 0.33809 0.0
N799 N 0.09609 0.29921 0.36308 0.0
H800 H 0.91577 0.08436 0.17042 0.0
H801 H 0.00708 0.01772 0.09642 0.0
H802 H 0.93302 0.0108 0.18121 0.0
H803 H 0.97908 0.08178 0.07049 0.0
H804 H 0.98526 0.02044 0.13235 0.0
H805 H 0.94237 0.08799 0.13696 0.0
C806 C 0.92495 0.06898 0.16572 0.0
C807 C 0.92213 0.04727 0.1787 0.0
C808 C 0.98401 0.03411 0.11896 0.0
C809 C 0.95278 0.05153 0.1411 0.0
C810 C 0.99664 0.03265 0.0985 0.0
C811 C 0.99474 0.0494 0.08035 0.0
C812 C 0.96907 0.05229 0.12127 0.0
C813 C 0.98107 0.06851 0.08413 0.0
C814 C 0.94021 0.07113 0.14677 0.0
C815 C 0.93458 0.02797 0.1719 0.0
N816 N 0.96843 0.06925 0.10406 0.0
N817 N 0.94933 0.03063 0.15375 0.0
H818 H 0.31315 0.76852 0.456 0.0
H819 H 0.28278 0.74087 0.30941 0.0
H820 H 0.30456 0.69344 0.41938 0.0
H821 H 0.27586 0.80941 0.35112 0.0
H822 H 0.29664 0.72422 0.34797 0.0
H823 H 0.30761 0.78526 0.41615 0.0
C824 C 0.31076 0.75564 0.43945 0.0
C825 C 0.30931 0.72956 0.44099 0.0
C826 C 0.29212 0.7429 0.34863 0.0
C827 C 0.30202 0.7485 0.3951 0.0
C828 C 0.28409 0.75237 0.32668 0.0
C829 C 0.27799 0.77651 0.32711 0.0
C830 C 0.29434 0.75784 0.3711 0.0
C831 C 0.28024 0.79068 0.34993 0.0
C832 C 0.30729 0.76517 0.41667 0.0
C833 C 0.30604 0.71371 0.41897 0.0
N834 N 0.28826 0.78117 0.37093 0.0
N835 N 0.30212 0.72338 0.39686 0.0
H836 H 0.58652 0.96883 0.6866 0.0
H837 H 0.48274 0.00297 0.58779 0.0
H838 H 0.51823 0.98924 0.70407 0.0
H839 H 0.55293 0.98824 0.56918 0.0
H840 H 0.49323 0.99183 0.62939 0.0
H841 H 0.57219 0.96916 0.64258 0.0
C842 C 0.56829 0.97275 0.68118 0.0
C843 C 0.55364 0.9792 0.69906 0.0
C844 C 0.50629 0.99082 0.61618 0.0
C845 C 0.53728 0.97998 0.64887 0.0
C846 C 0.50028 -0.00281 0.59233 0.0
C847 C 0.51702 -0.00323 0.57487 0.0
C848 C 0.5293 0.98405 0.62284 0.0
C849 C 0.53945 0.98898 0.58199 0.0
C850 C 0.5602 0.97317 0.65607 0.0
C851 C 0.53027 0.98439 0.69096 0.0
N852 N 0.54501 0.98315 0.60543 0.0
N853 N 0.52295 0.98487 0.66659 0.0
H854 H 0.28805 0.32817 0.98598 0.0
H855 H 0.22209 0.31749 0.84761 0.0
H856 H 0.23044 0.36886 0.96365 0.0
H857 H 0.28734 0.28745 0.86921 0.0
H858 H 0.22203 0.33318 0.89058 0.0
H859 H 0.28512 0.30978 0.94379 0.0
C860 C 0.27472 0.33323 0.97221 0.0
C861 C 0.25956 0.35023 0.97835 0.0
C862 C 0.23631 0.32311 0.88591 0.0
C863 C 0.25615 0.32915 0.92988 0.0
C864 C 0.23633 0.31413 0.86147 0.0
C865 C 0.25483 0.30131 0.85502 0.0
C866 C 0.25487 0.31908 0.90392 0.0
C867 C 0.27282 0.29735 0.87351 0.0
C868 C 0.2731 0.32271 0.94808 0.0
C869 C 0.24258 0.35594 0.9597 0.0
N870 N 0.27242 0.30626 0.89717 0.0
N871 N 0.24136 0.34545 0.93624 0.0
H872 H 0.89141 0.07861 0.32148 0.0
H873 H 0.00301 0.04578 0.40493 0.0
H874 H 0.9636 0.07777 0.2989 0.0
H875 H 0.93659 0.05885 0.43387 0.0
H876 H 0.99129 0.06559 0.3682 0.0
H877 H 0.90961 0.0809 0.36459 0.0
C878 C 0.91128 0.08001 0.32568 0.0
C879 C 0.92603 0.07748 0.30678 0.0
C880 C 0.97931 0.06447 0.38261 0.0
C881 C 0.94674 0.07947 0.35561 0.0
C882 C 0.98594 0.05297 0.4035 0.0
C883 C 0.97043 0.05026 0.42205 0.0
C884 C 0.9566 0.07271 0.37991 0.0
C885 C 0.94882 0.06035 0.41967 0.0
C886 C 0.92163 0.08107 0.35025 0.0
C887 C 0.95159 0.07923 0.31305 0.0
N888 N 0.94221 0.07069 0.39864 0.0
N889 N 0.96105 0.0796 0.33691 0.0
H890 H 0.31008 0.76581 0.56566 0.0
H891 H 0.32049 0.74556 0.70923 0.0
H892 H 0.32186 0.69504 0.59179 0.0
H893 H 0.28359 0.80009 0.67497 0.0
H894 H 0.33081 0.73132 0.66868 0.0
H895 H 0.31161 0.78346 0.60798 0.0
C896 C 0.31357 0.75414 0.58042 0.0
C897 C 0.31568 0.72885 0.57518 0.0
C898 C 0.32074 0.7466 0.67017 0.0
C899 C 0.31686 0.74887 0.62394 0.0
C900 C 0.31499 0.75487 0.69328 0.0
C901 C 0.30117 0.77409 0.69547 0.0
C902 C 0.31301 0.75799 0.64923 0.0
C903 C 0.29419 0.78519 0.67416 0.0
C904 C 0.31424 0.76419 0.60461 0.0
C905 C 0.32026 0.71465 0.59506 0.0
N906 N 0.3002 0.77702 0.65203 0.0
N907 N 0.32033 0.72474 0.61865 0.0
H908 H 0.52548 0.95628 0.82551 0.0
H909 H 0.53828 0.03998 0.95015 0.0
H910 H 0.59512 0.00547 0.85469 0.0
H911 H 0.49275 0.96471 0.94105 0.0
H912 H 0.55782 0.02935 0.91386 0.0
H913 H 0.51145 0.95949 0.86644 0.0
C914 C 0.5381 0.96702 0.84079 0.0
C915 C 0.56167 0.98014 0.837 0.0
C916 C 0.54379 0.01505 0.92003 0.0
C917 C 0.54532 0.98513 0.88327 0.0
C918 C 0.53272 0.0211 0.94081 0.0
C919 C 0.51415 0.00312 0.94888 0.0
C920 C 0.5357 0.99109 0.90678 0.0
C921 C 0.50705 0.97914 0.93549 0.0
C922 C 0.53005 0.96904 0.86403 0.0
C923 C 0.57705 0.99458 0.85711 0.0
N924 N 0.51759 0.97391 0.91492 0.0
N925 N 0.56844 -0.00289 0.87929 0.0
H926 H 0.21357 0.3789 0.11687 0.0
H927 H 0.2154 0.25137 0.17235 0.0
H928 H 0.21768 0.30994 0.0743 0.0
H929 H 0.18968 0.31193 0.21061 0.0
H930 H 0.20691 0.26946 0.13367 0.0
H931 H 0.19591 0.35339 0.14854 0.0
C932 C 0.20988 0.35838 0.11382 0.0
C933 C 0.21746 0.34639 0.09335 0.0
C934 C 0.20245 0.27856 0.15036 0.0
C935 C 0.1978 0.31727 0.12927 0.0
C936 C 0.20721 0.26809 0.17242 0.0
C937 C 0.20356 0.28041 0.1946 0.0
C938 C 0.19495 0.30207 0.15066 0.0
C939 C 0.1929 0.302 0.1938 0.0
C940 C 0.1999 0.34381 0.13188 0.0
C941 C 0.21246 0.31983 0.09016 0.0
N942 N 0.18971 0.31267 0.17225 0.0
N943 N 0.20337 0.30618 0.10813 0.0
H944 H 0.14258 0.91624 0.03586 0.0
H945 H 0.08656 0.0311 0.98267 0.0
H946 H 0.1672 0.95667 0.97502 0.0
H947 H 0.05737 0.99231 0.04254 0.0
H948 H 0.1153 0.00256 0.97975 0.0
H949 H 0.11068 0.94219 0.03875 0.0
C950 C 0.14126 0.93046 0.02306 0.0
C951 C 0.15776 0.93425 0.00519 0.0
C952 C 0.10268 9e-05 0.99357 0.0
C953 C 0.12128 0.96404 0.00846 0.0
C954 C 0.08621 0.01651 -0.0047 0.0
C955 C 0.06953 0.01422 0.01296 0.0
C956 C 0.10288 0.98106 0.00974 0.0
C957 C 0.06986 0.9947 0.02861 0.0
C958 C 0.12304 0.94527 0.02475 0.0
C959 C 0.15508 0.95298 0.98915 0.0
N960 N 0.08638 0.97892 0.02673 0.0
N961 N 0.13736 0.96708 0.99122 0.0
H962 H 0.66537 0.60812 0.91497 0.0
H963 H 0.59982 0.51082 0.0015 0.0
H964 H 0.70556 0.57869 0.97445 0.0
H965 H 0.56138 0.54266 0.94249 0.0
H966 H 0.63941 0.5284 0.98694 0.0
H967 H 0.62834 0.57671 0.9192 0.0
C968 C 0.66653 0.59467 0.92861 0.0
C969 C 0.68843 0.59631 0.94467 0.0
C970 C 0.62226 0.53117 0.97697 0.0
C971 C 0.64589 0.56065 0.95008 0.0
C972 C 0.59966 0.52113 0.98526 0.0
C973 C 0.57731 0.52568 0.97346 0.0
C974 C 0.62242 0.5458 0.95675 0.0
C975 C 0.57819 0.53907 0.95245 0.0
C976 C 0.64533 0.57677 0.9311 0.0
C977 C 0.68898 0.57821 0.96181 0.0
N978 N 0.60036 0.54886 0.94496 0.0
N979 N 0.66783 0.56145 0.96443 0.0
H980 H 0.65623 0.40758 0.24912 0.0
H981 H 0.77995 0.36856 0.30647 0.0
H982 H 0.7084 0.4586 0.3032 0.0
H983 H 0.74616 0.34349 0.23213 0.0
H984 H 0.75204 0.39881 0.30904 0.0
H985 H 0.68637 0.38014 0.24651 0.0
C986 C 0.67398 0.41296 0.2606 0.0
C987 C 0.67977 0.43546 0.27645 0.0
C988 C 0.75083 0.38672 0.29215 0.0
C989 C 0.7144 0.40391 0.27356 0.0
C990 C 0.76675 0.36951 0.29064 0.0
C991 C 0.76498 0.35316 0.26916 0.0
C992 C 0.73285 0.38729 0.27216 0.0
C993 C 0.74757 0.35519 0.24923 0.0
C994 C 0.69125 0.39735 0.25894 0.0
C995 C 0.70319 0.44147 0.29072 0.0
N996 N 0.73197 0.37169 0.25129 0.0
N997 N 0.71962 0.42567 0.28909 0.0
H998 H 0.77643 0.45261 0.50193 0.0
H999 H 0.9194 0.49143 0.56052 0.0
H1000 H 0.80836 0.41833 0.56295 0.0
H1001 H 0.89317 0.50369 0.48629 0.0
H1002 H 0.87641 0.47407 0.56707 0.0
H1003 H 0.8168 0.48145 0.50189 0.0
C1004 C 0.79171 0.45171 0.51577 0.0
C1005 C 0.78924 0.43302 0.53234 0.0
C1006 C 0.88007 0.48081 0.54943 0.0
C1007 C 0.83517 0.46556 0.53232 0.0
C1008 C 0.90454 0.49067 0.5457 0.0
C1009 C 0.90976 0.49861 0.52273 0.0
C1010 C 0.86073 0.47913 0.53012 0.0
C1011 C 0.88989 0.49744 0.50417 0.0
C1012 C 0.81475 0.46794 0.51559 0.0
C1013 C 0.80964 0.43238 0.54973 0.0
N1014 N 0.86622 0.48773 0.50822 0.0
N1015 N 0.8318 0.44826 0.54916 0.0
H1016 H 0.352 0.13408 0.27902 0.0
H1017 H 0.26462 0.22435 0.22141 0.0
H1018 H 0.34239 0.14616 0.202 0.0
H1019 H 0.26648 0.20598 0.29665 0.0
H1020 H 0.29465 0.1973 0.21467 0.0
H1021 H 0.32253 0.16174 0.28659 0.0
C1022 C 0.34382 0.14258 0.2637 0.0
C1023 C 0.34979 0.13762 0.23979 0.0
C1024 C 0.28847 0.19905 0.23266 0.0
C1025 C 0.31589 0.16947 0.24838 0.0
C1026 C 0.27129 0.21453 0.23651 0.0
C1027 C 0.26295 0.21744 0.25961 0.0
C1028 C 0.29752 0.18623 0.25205 0.0
C1029 C 0.27227 0.20419 0.27849 0.0
C1030 C 0.3269 0.15835 0.26804 0.0
C1031 C 0.33843 0.14925 0.22073 0.0
N1032 N 0.28906 0.18927 0.27433 0.0
N1033 N 0.32216 0.16453 0.22543 0.0
H1034 H 0.28321 0.05188 0.48384 0.0
H1035 H 0.42628 0.08009 0.54131 0.0
H1036 H 0.32649 0.12663 0.50881 0.0
H1037 H 0.38744 0.00738 0.50549 0.0
H1038 H 0.38739 0.09551 0.53667 0.0
H1039 H 0.31897 0.03367 0.49799 0.0
C1040 C 0.30016 0.06445 0.49244 0.0
C1041 C 0.30195 0.09085 0.4949 0.0
C1042 C 0.38727 0.07607 0.5301 0.0
C1043 C 0.34282 0.07012 0.51124 0.0
C1044 C 0.40943 0.06722 0.53289 0.0
C1045 C 0.41002 0.04253 0.52355 0.0
C1046 C 0.36561 0.06011 0.51781 0.0
C1047 C 0.38772 0.02661 0.51282 0.0
C1048 C 0.32055 0.05404 0.50051 0.0
C1049 C 0.32434 0.1062 0.50628 0.0
N1050 N 0.36642 0.03577 0.50998 0.0
N1051 N 0.34391 0.09562 0.51392 0.0
H1052 H 0.70008 0.57863 0.29661 0.0
H1053 H 0.72723 0.69298 0.21124 0.0
H1054 H 0.66186 0.57961 0.22399 0.0
H1055 H 0.74532 0.703 0.29034 0.0
H1056 H 0.71228 0.64774 0.21373 0.0
H1057 H 0.72566 0.62061 0.29245 0.0
C1058 C 0.69751 0.58741 0.27961 0.0
C1059 C 0.67878 0.57584 0.26067 0.0
C1060 C 0.71974 0.65981 0.23053 0.0
C1061 C 0.70774 0.62343 0.25578 0.0
C1062 C 0.72834 0.68569 0.22913 0.0
C1063 C 0.73721 0.70198 0.25065 0.0
C1064 C 0.7201 0.65002 0.25358 0.0
C1065 C 0.73833 0.69125 0.27328 0.0
C1066 C 0.71192 0.61137 0.27732 0.0
C1067 C 0.67598 0.58805 0.23911 0.0
N1068 N 0.72968 0.66596 0.27418 0.0
N1069 N 0.6902 0.61117 0.23729 0.0
H1070 H 0.8779 0.48649 0.70451 0.0
H1071 H 0.78408 0.40016 0.7786 0.0
H1072 H 0.84239 0.51797 0.76205 0.0
H1073 H 0.80908 0.37336 0.71172 0.0
H1074 H 0.80289 0.4438 0.77181 0.0
H1075 H 0.8501 0.44563 0.70506 0.0
C1076 C 0.86386 0.48484 0.71697 0.0
C1077 C 0.86245 0.50553 0.73333 0.0
C1078 C 0.80402 0.4284 0.75848 0.0
C1079 C 0.83093 0.45854 0.7346 0.0
C1080 C 0.79339 0.40352 0.7624 0.0
C1081 C 0.7953 0.38319 0.74581 0.0
C1082 C 0.8168 0.43287 0.73793 0.0
C1083 C 0.80738 0.3885 0.72506 0.0
C1084 C 0.84802 0.46148 0.71734 0.0
C1085 C 0.84395 0.50245 0.74908 0.0
N1086 N 0.81786 0.41279 0.72183 0.0
N1087 N 0.82915 0.47919 0.74966 0.0
H1088 H 0.02853 0.81704 0.07148 0.0
H1089 H 0.9563 0.92934 0.04582 0.0
H1090 H 0.97211 0.83363 0.11516 0.0
H1091 H 0.02539 0.92269 0.0187 0.0
H1092 H 0.95665 0.89011 0.06593 0.0
H1093 H 0.02205 0.85115 0.04658 0.0
C1094 C 0.01463 0.82777 0.07582 0.0
C1095 C 0.00107 0.82261 0.09575 0.0
C1096 C 0.97158 0.89712 0.05537 0.0
C1097 C 0.9936 0.86202 0.06702 0.0
C1098 C 0.97132 0.91938 0.04378 0.0
C1099 C 0.99089 0.9292 0.03064 0.0
C1100 C 0.99141 0.88456 0.05353 0.0
C1101 C 0.00997 0.91573 0.02868 0.0
C1102 C 0.01098 0.84733 0.06152 0.0
C1103 C 0.9831 0.83705 0.10011 0.0
N1104 N 0.00979 0.89415 0.04006 0.0
N1105 N 0.97999 0.85628 0.08594 0.0
H1106 H 0.96265 0.30146 0.79213 0.0
H1107 H 0.82355 0.22741 0.75014 0.0
H1108 H 0.9316 0.22667 0.81074 0.0
H1109 H 0.8486 0.30813 0.74823 0.0
H1110 H 0.86669 0.2232 0.75921 0.0
H1111 H 0.92524 0.29981 0.76294 0.0
C1112 C 0.94848 0.28423 0.78919 0.0
C1113 C 0.95005 0.2642 0.80385 0.0
C1114 C 0.86277 0.24177 0.75636 0.0
C1115 C 0.90718 0.26238 0.77112 0.0
C1116 C 0.83808 0.24422 0.75114 0.0
C1117 C 0.83228 0.26828 0.74901 0.0
C1118 C 0.88187 0.26351 0.75954 0.0
C1119 C 0.85208 0.28925 0.75018 0.0
C1120 C 0.92699 0.28342 0.7728 0.0
C1121 C 0.93099 0.24251 0.79976 0.0
N1122 N 0.87596 0.28645 0.75578 0.0
N1123 N 0.91017 0.24232 0.78406 0.0
H1124 H 0.53291 0.1861 0.6424 0.0
H1125 H 0.48628 0.09294 0.5206 0.0
H1126 H 0.46907 0.1921 0.59236 0.0
H1127 H 0.54407 0.08313 0.57634 0.0
H1128 H 0.47639 0.12636 0.54822 0.0
H1129 H 0.53343 0.14502 0.62106 0.0
C1130 C 0.51854 0.17829 0.62729 0.0
C1131 C 0.50083 0.19224 0.61916 0.0
C1132 C 0.49103 0.1167 0.55453 0.0
C1133 C 0.5019 0.14582 0.59385 0.0
C1134 C 0.49664 0.09762 0.5388 0.0
C1135 C 0.51596 0.0853 0.5463 0.0
C1136 C 0.50509 0.12364 0.57777 0.0
C1137 C 0.52913 0.09232 0.56982 0.0
C1138 C 0.51893 0.15495 0.61495 0.0
C1139 C 0.48282 0.18164 0.5993 0.0
N1140 N 0.52356 0.11111 0.58465 0.0
N1141 N 0.48407 0.15918 0.58697 0.0
H1142 H 0.5929 0.77588 0.3381 0.0
H1143 H 0.6745 0.81389 0.22897 0.0
H1144 H 0.57471 0.82508 0.28318 0.0
H1145 H 0.6942 0.76496 0.2834 0.0
H1146 H 0.63841 0.81886 0.24948 0.0
H1147 H 0.63054 0.77234 0.31936 0.0
C1148 C 0.59682 0.786 0.32216 0.0
C1149 C 0.5805 0.80077 0.3122 0.0
C1150 C 0.65063 0.8071 0.25707 0.0
C1151 C 0.62363 0.79675 0.29062 0.0
C1152 C 0.67125 0.80424 0.24533 0.0
C1153 C 0.6874 0.78905 0.25454 0.0
C1154 C 0.64596 0.79459 0.2782 0.0
C1155 C 0.68233 0.77705 0.27583 0.0
C1156 C 0.61834 0.78396 0.31146 0.0
C1157 C 0.58663 0.81344 0.29152 0.0
N1158 N 0.66201 0.78 0.28691 0.0
N1159 N 0.6076 0.81109 0.28143 0.0
H1160 H 0.03216 0.18629 0.45436 0.0
H1161 H 0.03727 0.09084 0.55821 0.0
H1162 H 0.01128 0.20308 0.52628 0.0
H1163 H 0.01097 0.06569 0.48208 0.0
H1164 H 0.04059 0.13512 0.54825 0.0
H1165 H 0.03792 0.14453 0.46622 0.0
C1166 C 0.02934 0.18139 0.47279 0.0
C1167 C 0.02102 0.1979 0.48933 0.0
C1168 C 0.03419 0.11979 0.53378 0.0
C1169 C 0.0278 0.15073 0.50295 0.0
C1170 C 0.03227 0.09469 0.53941 0.0
C1171 C 0.02322 0.07475 0.52096 0.0
C1172 C 0.02778 0.12473 0.50942 0.0
C1173 C 0.01723 0.08052 0.49687 0.0
C1174 C 0.03247 0.15761 0.47945 0.0
C1175 C 0.01746 0.19067 0.51296 0.0
N1176 N 0.0197 0.10504 0.49171 0.0
N1177 N 0.02084 0.16753 0.5191 0.0
H1178 H 0.56473 0.29768 0.12867 0.0
H1179 H 0.65412 0.25607 0.23572 0.0
H1180 H 0.54917 0.22651 0.1611 0.0
H1181 H 0.68087 0.3145 0.18974 0.0
H1182 H 0.61298 0.24968 0.21234 0.0
H1183 H 0.60547 0.30804 0.15395 0.0
C1184 C 0.56989 0.28422 0.14101 0.0
C1185 C 0.55356 0.26116 0.14273 0.0
C1186 C 0.62779 0.26399 0.20738 0.0
C1187 C 0.59971 0.27305 0.17178 0.0
C1188 C 0.65122 0.26773 0.2208 0.0
C1189 C 0.67084 0.28567 0.21443 0.0
C1190 C 0.62393 0.27833 0.18747 0.0
C1191 C 0.66614 0.30038 0.19506 0.0
C1192 C 0.59307 0.29017 0.1554 0.0
C1193 C 0.56115 0.24445 0.15904 0.0
N1194 N 0.64307 0.2963 0.18209 0.0
N1195 N 0.5836 0.25078 0.17298 0.0
H1196 H 0.55905 0.85267 0.97863 0.0
H1197 H 0.49591 0.95206 0.04623 0.0
H1198 H 0.51025 0.83388 0.0339 0.0
H1199 H 0.55906 0.97438 0.00695 0.0
H1200 H 0.50411 0.90916 0.04538 0.0
H1201 H 0.56323 0.8977 0.99213 0.0
C1202 C 0.54966 0.85796 -0.00607 0.0
C1203 C 0.53383 0.83953 0.00477 0.0
C1204 C 0.51646 0.92354 0.03731 0.0
C1205 C 0.53824 0.89086 0.02005 0.0
C1206 C 0.51172 0.94802 0.03775 0.0
C1207 C 0.52661 0.96671 0.02637 0.0
C1208 C 0.53591 0.91759 0.02497 0.0
C1209 C 0.547 0.9605 0.01584 0.0
C1210 C 0.55201 0.88367 0.00161 0.0
C1211 C 0.52223 0.84746 0.02463 0.0
N1212 N 0.55078 0.93633 0.01498 0.0
N1213 N 0.52431 0.87253 0.03132 0.0
H1214 H 0.91192 0.71657 0.64513 0.0
H1215 H 0.84983 0.81651 0.71622 0.0
H1216 H 0.9363 0.79726 0.64241 0.0
H1217 H 0.81337 0.73869 0.6944 0.0
H1218 H 0.88381 0.81025 0.69244 0.0
H1219 H 0.87758 0.72463 0.66661 0.0
C1220 C 0.91001 0.73602 0.64904 0.0
C1221 C 0.92699 0.7563 0.64205 0.0
C1222 C 0.86826 0.79466 0.6928 0.0
C1223 C 0.88775 0.76566 0.66676 0.0
C1224 C 0.84903 0.79818 0.70639 0.0
C1225 C 0.82896 0.77804 0.7072 0.0
C1226 C 0.86738 0.77077 0.68036 0.0
C1227 C 0.82858 0.75468 0.69419 0.0
C1228 C 0.89034 0.7406 0.66122 0.0
C1229 C 0.92353 0.78111 0.64745 0.0
N1230 N 0.84759 0.75164 0.68142 0.0
N1231 N 0.90433 0.78515 0.65972 0.0
H1232 H 0.09977 0.97057 0.84635 0.0
H1233 H 0.01433 0.04487 0.92089 0.0
H1234 H 0.08751 0.04588 0.83526 0.0
H1235 H 0.03758 0.97839 0.94686 0.0
H1236 H 0.03698 0.04117 0.88571 0.0
H1237 H 0.07481 0.96985 0.88111 0.0
C1238 C 0.09212 0.98699 0.85136 0.0
C1239 C 0.09558 0.00823 0.83773 0.0
C1240 C 0.03705 0.02722 0.89896 0.0
C1241 C 0.06681 0.00732 0.87682 0.0
C1242 C 0.02391 0.02923 0.919 0.0
C1243 C 0.02411 0.01199 0.9369 0.0
C1244 C 0.05073 0.00791 0.89675 0.0
C1245 C 0.03683 0.99203 0.93338 0.0
C1246 C 0.07776 0.9865 0.87102 0.0
C1247 C 0.08516 0.02894 0.84495 0.0
N1248 N 0.04987 0.99065 0.91379 0.0
N1249 N 0.07121 0.02787 0.86378 0.0
H1250 H 0.71736 0.37421 0.60183 0.0
H1251 H 0.71595 0.24625 0.66804 0.0
H1252 H 0.70046 0.29888 0.56437 0.0
H1253 H 0.74412 0.32056 0.70618 0.0
H1254 H 0.70351 0.26585 0.6313 0.0
H1255 H 0.71965 0.3556 0.64154 0.0
C1256 C 0.71316 0.35377 0.60202 0.0
C1257 C 0.70855 0.33799 0.57988 0.0
C1258 C 0.71239 0.27798 0.64766 0.0
C1259 C 0.71179 0.31667 0.62492 0.0
C1260 C 0.71958 0.26677 0.66864 0.0
C1261 C 0.73149 0.28181 0.69003 0.0
C1262 C 0.71713 0.30455 0.64792 0.0
C1263 C 0.73543 0.3083 0.68989 0.0
C1264 C 0.71486 0.34317 0.62463 0.0
C1265 C 0.70393 0.31166 0.58106 0.0
N1266 N 0.7284 0.31888 0.66907 0.0
N1267 N 0.70587 0.30186 0.60313 0.0
H1268 H 0.48967 0.07284 0.30742 0.0
H1269 H 0.45712 0.06933 0.44567 0.0
H1270 H 0.42268 0.09208 0.32998 0.0
H1271 H 0.52363 0.04969 0.42209 0.0
H1272 H 0.4464 0.08221 0.40481 0.0
H1273 H 0.50464 0.06961 0.35029 0.0
C1274 C 0.47825 0.07684 0.32148 0.0
C1275 C 0.45476 0.08261 0.31499 0.0
C1276 C 0.46345 0.0753 0.40859 0.0
C1277 C 0.47173 0.07842 0.36443 0.0
C1278 C 0.46964 0.06788 0.432 0.0
C1279 C 0.49132 0.05819 0.43745 0.0
C1280 C 0.47894 0.073 0.39027 0.0
C1281 C 0.50673 0.05696 0.41885 0.0
C1282 C 0.48681 0.07487 0.34601 0.0
C1283 C 0.44091 0.08768 0.33408 0.0
N1284 N 0.50016 0.06408 0.39611 0.0
N1285 N 0.44945 0.08513 0.35789 0.0
H1286 H 0.71554 0.71913 0.01587 0.0
H1287 H 0.78504 0.74349 0.15361 0.0
H1288 H 0.77737 0.68544 0.04158 0.0
H1289 H 0.71674 0.76792 0.13127 0.0
H1290 H 0.78525 0.7263 0.11127 0.0
H1291 H 0.71827 0.74111 0.05685 0.0
C1292 C 0.72973 0.71641 0.0301 0.0
C1293 C 0.74615 0.70028 0.02535 0.0
C1294 C 0.77026 0.73551 0.11558 0.0
C1295 C 0.74939 0.72541 0.07217 0.0
C1296 C 0.77017 0.74534 0.1397 0.0
C1297 C 0.75073 0.7569 0.14581 0.0
C1298 C 0.75077 0.73729 0.09751 0.0
C1299 C 0.73197 0.75899 0.12721 0.0
C1300 C 0.73126 0.72895 0.05348 0.0
C1301 C 0.76422 0.69754 0.04445 0.0
N1302 N 0.73238 0.74914 0.10383 0.0
N1303 N 0.76531 0.70994 0.06704 0.0
H1304 H 0.05007 0.96028 0.71933 0.0
H1305 H 0.0752 0.95898 0.58007 0.0
H1306 H 0.12266 0.96288 0.69643 0.0
H1307 H 0.00666 0.9675 0.60732 0.0
H1308 H 0.09009 0.94675 0.6205 0.0
H1309 H 0.03134 0.94771 0.67691 0.0
C1310 C 0.062 0.9575 0.70538 0.0
C1311 C 0.08789 0.96308 0.71115 0.0
C1312 C 0.07159 0.95076 0.61741 0.0
C1313 C 0.06677 0.94973 0.66247 0.0
C1314 C 0.06313 0.95773 0.59442 0.0
C1315 C 0.03999 0.9648 0.59076 0.0
C1316 C 0.0566 0.95077 0.63656 0.0
C1317 C 0.02488 0.96271 0.60968 0.0
C1318 C 0.05134 0.95046 0.68114 0.0
C1319 C 0.10258 0.95894 0.69256 0.0
N1320 N 0.03356 0.95617 0.63185 0.0
N1321 N 0.09183 0.95319 0.66882 0.0
H1322 H 0.70601 0.37428 0.43076 0.0
H1323 H 0.7619 0.2781 0.34761 0.0
H1324 H 0.72616 0.30571 0.45472 0.0
H1325 H 0.71976 0.32922 0.31438 0.0
H1326 H 0.74919 0.28957 0.3873 0.0
H1327 H 0.70968 0.35926 0.38798 0.0
C1328 C 0.71051 0.35583 0.42697 0.0
C1329 C 0.71602 0.34133 0.44635 0.0
C1330 C 0.74248 0.29819 0.37134 0.0
C1331 C 0.72079 0.32441 0.39787 0.0
C1332 C 0.74986 0.29169 0.34866 0.0
C1333 C 0.74186 0.30265 0.32763 0.0
C1334 C 0.72729 0.31619 0.37332 0.0
C1335 C 0.72619 0.32015 0.33013 0.0
C1336 C 0.7128 0.34736 0.40262 0.0
C1337 C 0.72205 0.31768 0.44042 0.0
N1338 N 0.71962 0.32663 0.35264 0.0
N1339 N 0.72458 0.31018 0.4169 0.0
H1340 H 0.40885 0.05993 0.16012 0.0
H1341 H 0.51408 0.1068 0.07474 0.0
H1342 H 0.47422 0.11634 0.18775 0.0
H1343 H 0.47416 0.02936 0.07033 0.0
H1344 H 0.49307 0.11693 0.11033 0.0
H1345 H 0.42508 0.05593 0.12038 0.0
C1346 C 0.42606 0.07237 0.15741 0.0
C1347 C 0.43991 0.08899 0.17703 0.0
C1348 C 0.48868 0.09782 0.1013 0.0
C1349 C 0.45895 0.08396 0.1319 0.0
C1350 C 0.50065 0.09198 0.08102 0.0
C1351 C 0.49557 0.06722 0.0692 0.0
C1352 C 0.47111 0.0789 0.1096 0.0
C1353 C 0.47809 0.04881 0.07828 0.0
C1354 C 0.43552 0.06972 0.13491 0.0
C1355 C 0.46267 0.10382 0.17288 0.0
N1356 N 0.46641 0.05502 0.09781 0.0
N1357 N 0.47153 0.10094 0.1508 0.0
H1358 H 0.80378 0.72605 0.9433 0.0
H1359 H 0.78302 0.79982 0.85283 0.0
H1360 H 0.7816 0.67047 0.88061 0.0
H1361 H 0.81631 0.7524 0.80541 0.0
H1362 H 0.79507 0.77699 0.88746 0.0
H1363 H 0.82085 0.75748 0.91618 0.0
C1364 C 0.80357 0.72022 0.92396 0.0
C1365 C 0.79135 0.69583 0.91398 0.0
C1366 C 0.80071 0.77226 0.86971 0.0
C1367 C 0.80994 0.73154 0.88304 0.0
C1368 C 0.79373 0.78527 0.84991 0.0
C1369 C 0.7982 0.77763 0.82617 0.0
C1370 C 0.81156 0.75106 0.86549 0.0
C1371 C 0.81221 0.75869 0.8234 0.0
C1372 C 0.81304 0.73817 0.90853 0.0
C1373 C 0.79102 0.68914 0.88885 0.0
N1374 N 0.81749 0.74529 0.84265 0.0
N1375 N 0.79985 0.70709 0.87408 0.0
H1376 H 0.8881 0.15138 0.96149 0.0
H1377 H 0.92656 0.03412 0.028 0.0
H1378 H 0.85143 0.11794 0.02033 0.0
H1379 H 0.96337 0.06732 0.96925 0.0
H1380 H 0.89908 0.06467 0.02548 0.0
H1381 H 0.91592 0.12123 0.96426 0.0
C1382 C 0.88586 0.13774 0.97505 0.0
C1383 C 0.86724 0.13732 0.9907 0.0
C1384 C 0.91315 0.06536 0.01313 0.0
C1385 C 0.89928 0.10243 0.99391 0.0
C1386 C 0.92884 0.04784 0.01451 0.0
C1387 C 0.9474 0.04822 -0.00112 0.0
C1388 C 0.91586 0.08348 -0.00411 0.0
C1389 C 0.94948 0.0665 0.98181 0.0
C1390 C 0.90182 0.12046 0.97659 0.0
C1391 C 0.86542 0.11908 0.00787 0.0
N1392 N 0.93395 0.08337 0.98078 0.0
N1393 N 0.88116 0.10242 0.00898 0.0
H1394 H 0.31078 0.4637 0.03816 0.0
H1395 H 0.45779 0.47893 0.06703 0.0
H1396 H 0.34726 0.42422 0.09217 0.0
H1397 H 0.42172 0.51384 0.00874 0.0
H1398 H 0.41772 0.46575 0.08197 0.0
H1399 H 0.35122 0.48967 0.0334 0.0
C1400 C 0.32717 0.46098 0.04955 0.0
C1401 C 0.32569 0.44146 0.06529 0.0
C1402 C 0.4186 0.47655 0.06608 0.0
C1403 C 0.37202 0.47076 0.05961 0.0
C1404 C 0.44152 0.48409 0.05749 0.0
C1405 C 0.44315 0.49724 0.03635 0.0
C1406 C 0.39706 0.48206 0.05339 0.0
C1407 C 0.42138 0.50351 0.02494 0.0
C1408 C 0.3503 0.47566 0.04665 0.0
C1409 C 0.34758 0.43879 0.07953 0.0
N1410 N 0.39921 0.49562 0.03344 0.0
N1411 N 0.36985 0.45297 0.07608 0.0
H1412 H 0.31215 0.60025 0.72262 0.0
H1413 H 0.3101 0.74324 0.77026 0.0
H1414 H 0.37747 0.65651 0.75183 0.0
H1415 H 0.24629 0.69355 0.7294 0.0
H1416 H 0.33408 0.71024 0.76628 0.0
H1417 H 0.28686 0.63275 0.7265 0.0
C1418 C 0.3212 0.61942 0.72972 0.0
C1419 C 0.347 0.62562 0.73693 0.0
C1420 C 0.31475 0.70631 0.75835 0.0
C1421 C 0.31815 0.66277 0.74164 0.0
C1422 C 0.30092 0.72513 0.76116 0.0
C1423 C 0.27602 0.721 0.75099 0.0
C1424 C 0.30358 0.68294 0.74514 0.0
C1425 C 0.26545 0.69744 0.73781 0.0
C1426 C 0.30674 0.63794 0.73194 0.0
C1427 C 0.35769 0.65078 0.74602 0.0
N1428 N 0.27924 0.6792 0.73533 0.0
N1429 N 0.34323 0.66832 0.74822 0.0
H1430 H 0.21476 0.65071 0.46157 0.0
H1431 H 0.12643 0.56298 0.53892 0.0
H1432 H 0.24332 0.61757 0.52499 0.0
H1433 H 0.10302 0.58036 0.46565 0.0
H1434 H 0.1696 0.58099 0.53366 0.0
H1435 H 0.17436 0.62277 0.46145 0.0
C1436 C 0.21259 0.63706 0.47516 0.0
C1437 C 0.2323 0.63635 0.4933 0.0
C1438 C 0.15507 0.58061 0.51863 0.0
C1439 C 0.18585 0.60487 0.49385 0.0
C1440 C 0.13043 0.57046 0.52167 0.0
C1441 C 0.11117 0.57045 0.50276 0.0
C1442 C 0.16041 0.59108 0.49663 0.0
C1443 C 0.11733 0.58019 0.48074 0.0
C1444 C 0.1895 0.62117 0.47515 0.0
C1445 C 0.22857 0.61849 0.51058 0.0
N1446 N 0.14138 0.59035 0.47837 0.0
N1447 N 0.20559 0.60373 0.51073 0.0
H1448 H 0.64704 0.92089 0.79165 0.0
H1449 H 0.73658 0.85136 0.71766 0.0
H1450 H 0.66533 0.93679 0.71912 0.0
H1451 H 0.7283 0.84099 0.79367 0.0
H1452 H 0.70906 0.88152 0.71802 0.0
H1453 H 0.67477 0.89027 0.79281 0.0
C1454 C 0.65681 0.91795 0.77596 0.0
C1455 C 0.65378 0.93152 0.75524 0.0
C1456 C 0.71311 0.87267 0.73468 0.0
C1457 C 0.68555 0.89647 0.75648 0.0
C1458 C 0.72893 0.85542 0.73452 0.0
C1459 C 0.73441 0.84318 0.75556 0.0
C1460 C 0.70261 0.87806 0.75614 0.0
C1461 C 0.72395 0.84934 0.77684 0.0
C1462 C 0.67269 0.9005 0.77667 0.0
C1463 C 0.66701 0.92689 0.73551 0.0
N1464 N 0.70848 0.8663 0.77658 0.0
N1465 N 0.68219 0.90981 0.73662 0.0
H1466 H 0.68203 0.92375 0.46492 0.0
H1467 H 0.61889 0.03295 0.52037 0.0
H1468 H 0.69798 0.95492 0.5409 0.0
H1469 H 0.58281 0.97926 0.45913 0.0
H1470 H 0.65424 0.01152 0.5231 0.0
H1471 H 0.65147 0.95073 0.45806 0.0
C1472 C 0.67928 0.93643 0.48012 0.0
C1473 C 0.69245 0.93696 0.50359 0.0
C1474 C 0.63873 0.00467 0.50887 0.0
C1475 C 0.65776 0.96803 0.49572 0.0
C1476 C 0.61866 0.01699 0.50715 0.0
C1477 C 0.59792 0.00776 0.48954 0.0
C1478 C 0.63814 0.9832 0.49265 0.0
C1479 C 0.59848 0.98692 0.47298 0.0
C1480 C 0.6618 0.95175 0.47617 0.0
C1481 C 0.68809 0.95375 0.52258 0.0
N1482 N 0.61825 0.97524 0.47499 0.0
N1483 N 0.67112 0.96865 0.51822 0.0
H1484 H 0.34695 0.47805 0.7866 0.0
H1485 H 0.26569 0.35526 0.71099 0.0
H1486 H 0.31583 0.47882 0.71124 0.0
H1487 H 0.27716 0.36471 0.79047 0.0
H1488 H 0.2818 0.40074 0.71042 0.0
H1489 H 0.31924 0.43739 0.78865 0.0
C1490 C 0.33383 0.4698 0.77062 0.0
C1491 C 0.33361 0.48164 0.74871 0.0
C1492 C 0.28043 0.3929 0.72796 0.0
C1493 C 0.30237 0.43472 0.75061 0.0
C1494 C 0.27136 0.3669 0.72833 0.0
C1495 C 0.27042 0.35603 0.75082 0.0
C1496 C 0.28892 0.40806 0.75024 0.0
C1497 C 0.27776 0.37213 0.77268 0.0
C1498 C 0.31804 0.44658 0.77177 0.0
C1499 C 0.31639 0.47024 0.72849 0.0
N1500 N 0.28702 0.39724 0.77183 0.0
N1501 N 0.30174 0.44706 0.72975 0.0
H1502 H 0.16738 0.54376 0.25483 0.0
H1503 H 0.21235 0.68951 0.30768 0.0
H1504 H 0.12932 0.58278 0.30508 0.0
H1505 H 0.22954 0.66036 0.23779 0.0
H1506 H 0.19035 0.64691 0.31378 0.0
H1507 H 0.19869 0.58315 0.25532 0.0
C1508 C 0.16595 0.56044 0.26635 0.0
C1509 C 0.14571 0.56022 0.27976 0.0
C1510 C 0.19917 0.6498 0.29724 0.0
C1511 C 0.18121 0.60486 0.28053 0.0
C1512 C 0.21173 0.67405 0.29376 0.0
C1513 C 0.22242 0.6784 0.27206 0.0
C1514 C 0.19747 0.62976 0.27895 0.0
C1515 C 0.22127 0.65774 0.25466 0.0
C1516 C 0.18365 0.58286 0.2665 0.0
C1517 C 0.14453 0.5823 0.29427 0.0
N1518 N 0.20882 0.63425 0.2584 0.0
N1519 N 0.16198 0.60375 0.29422 0.0
H1520 H 0.4762 0.73804 0.43168 0.0
H1521 H 0.5587 0.64148 0.47998 0.0
H1522 H 0.54442 0.73236 0.40192 0.0
H1523 H 0.47879 0.62796 0.47623 0.0
H1524 H 0.55783 0.68064 0.45954 0.0
H1525 H 0.48146 0.70374 0.45681 0.0
C1526 C 0.49245 0.72973 0.43051 0.0
C1527 C 0.50978 0.73796 0.41438 0.0
C1528 C 0.54058 0.66913 0.46343 0.0
C1529 C 0.51586 0.69854 0.4434 0.0
C1530 C 0.54107 0.647 0.47519 0.0
C1531 C 0.51876 0.63164 0.4797 0.0
C1532 C 0.51769 0.676 0.45675 0.0
C1533 C 0.49636 0.63933 0.473 0.0
C1534 C 0.49536 0.71007 0.44488 0.0
C1535 C 0.53051 0.72646 0.41393 0.0
N1536 N 0.4964 0.66102 0.46192 0.0
N1537 N 0.53297 0.70719 0.42822 0.0
H1538 H 0.55316 0.25412 0.71698 0.0
H1539 H 0.69356 0.32936 0.75204 0.0
H1540 H 0.58407 0.32557 0.69097 0.0
H1541 H 0.6695 0.24993 0.7614 0.0
H1542 H 0.65039 0.33225 0.74068 0.0
H1543 H 0.59225 0.25675 0.74414 0.0
C1544 C 0.56781 0.27081 0.71771 0.0
C1545 C 0.56551 0.28965 0.70172 0.0
C1546 C 0.6545 0.31426 0.74556 0.0
C1547 C 0.61014 0.29261 0.73229 0.0
C1548 C 0.6792 0.31257 0.75209 0.0
C1549 C 0.68532 0.28923 0.75726 0.0
C1550 C 0.63563 0.29246 0.74407 0.0
C1551 C 0.66574 0.26826 0.75731 0.0
C1552 C 0.59019 0.27216 0.73296 0.0
C1553 C 0.58518 0.31063 0.70299 0.0
N1554 N 0.6418 0.27027 0.75043 0.0
N1555 N 0.60672 0.31143 0.71778 0.0
H1556 H 0.97168 0.36761 0.8699 0.0
H1557 H 0.02366 0.46267 0.98923 0.0
H1558 H 0.03911 0.36362 0.9156 0.0
H1559 H 0.96498 0.47304 0.93476 0.0
H1560 H 0.03209 0.42851 0.96145 0.0
H1561 H 0.97173 0.4087 0.89141 0.0
C1562 C 0.98685 0.37578 0.88416 0.0
C1563 C 0.00541 0.36233 0.89105 0.0
C1564 C 0.01757 0.43846 0.95546 0.0
C1565 C 0.00517 0.40897 0.91645 0.0
C1566 C 0.01278 0.45794 0.97129 0.0
C1567 C 0.99363 0.47065 0.96419 0.0
C1568 C 0.00285 0.43148 0.93257 0.0
C1569 C 0.97981 0.46359 0.94097 0.0
C1570 C 0.98683 0.39918 0.89654 0.0
C1571 C 0.02458 0.37358 0.90968 0.0
N1572 N 0.98458 0.44439 0.92608 0.0
N1573 N 0.02373 0.39611 0.92212 0.0
H1574 H 0.93754 0.75698 0.20702 0.0
H1575 H 0.80597 0.7993 0.2071 0.0
H1576 H 0.90179 0.78818 0.14588 0.0
H1577 H 0.83506 0.75727 0.26342 0.0
H1578 H 0.84178 0.79661 0.18521 0.0
H1579 H 0.90119 0.75812 0.22879 0.0
C1580 C 0.92208 0.76403 0.19814 0.0
C1581 C 0.92282 0.7725 0.17453 0.0
C1582 C 0.84035 0.78787 0.20231 0.0
C1583 C 0.88113 0.77398 0.19946 0.0
C1584 C 0.81983 0.78934 0.21478 0.0
C1585 C 0.8174 0.77829 0.23701 0.0
C1586 C 0.85883 0.77549 0.21222 0.0
C1587 C 0.83617 0.766 0.2463 0.0
C1588 C 0.9013 0.76465 0.21058 0.0
C1589 C 0.90214 0.78141 0.164 0.0
N1590 N 0.85612 0.76497 0.23391 0.0
N1591 N 0.88228 0.78199 0.17653 0.0
H1592 H 0.51365 0.34646 0.07256 0.0
H1593 H 0.4504 0.43293 0.98295 0.0
H1594 H 0.43765 0.32494 0.03798 0.0
H1595 H 0.52884 0.44716 0.00877 0.0
H1596 H 0.44482 0.39359 0.00336 0.0
H1597 H 0.51891 0.38444 0.05051 0.0
C1598 C 0.49804 0.34974 0.06036 0.0
C1599 C 0.47518 0.33248 0.05707 0.0
C1600 C 0.46327 0.40524 0.00443 0.0
C1601 C 0.48113 0.37588 0.03164 0.0
C1602 C 0.46646 0.42758 0.9927 0.0
C1603 C 0.49007 0.44325 -0.00561 0.0
C1604 C 0.48387 0.3987 0.01792 0.0
C1605 C 0.51029 0.43562 0.00725 0.0
C1606 C 0.50109 0.37139 0.04769 0.0
C1607 C 0.45561 0.33774 0.04104 0.0
N1608 N 0.5067 0.41396 0.01869 0.0
N1609 N 0.45903 0.359 0.02891 0.0
H1610 H 0.92075 0.22887 0.41295 0.0
H1611 H 0.88339 0.30635 0.30268 0.0
H1612 H 0.97573 0.28148 0.38205 0.0
H1613 H 0.83772 0.23678 0.3193 0.0
H1614 H 0.91805 0.29779 0.33072 0.0
H1615 H 0.8903 0.23148 0.3781 0.0
C1616 C 0.92645 0.24081 0.39868 0.0
C1617 C 0.95071 0.25512 0.40044 0.0
C1618 C 0.90053 0.28425 0.32791 0.0
C1619 C 0.91586 0.25851 0.36063 0.0
C1620 C 0.88081 0.28915 0.31198 0.0
C1621 C 0.85769 0.2724 0.30901 0.0
C1622 C 0.89683 0.26263 0.34102 0.0
C1623 C 0.8552 0.25033 0.32134 0.0
C1624 C 0.90909 0.24225 0.37873 0.0
C1625 C 0.95717 0.27015 0.38135 0.0
N1626 N 0.87443 0.24625 0.33704 0.0
N1627 N 0.93971 0.27178 0.36236 0.0
H1628 H 0.01534 0.72868 0.53158 0.0
H1629 H 0.95553 0.58958 0.47814 0.0
H1630 H 0.94185 0.68754 0.5387 0.0
H1631 H 0.03421 0.62152 0.49005 0.0
H1632 H 0.94707 0.63235 0.48012 0.0
H1633 H 0.01793 0.69743 0.49769 0.0
C1634 C -0.00066 0.7137 0.52521 0.0
C1635 C 0.97858 0.71011 0.53807 0.0
C1636 C 0.96621 0.63002 0.48158 0.0
C1637 C 0.98141 0.67457 0.49988 0.0
C1638 C 0.97105 0.60561 0.48054 0.0
C1639 C 0.99557 0.60209 0.4851 0.0
C1640 C 0.98601 0.65089 0.48778 0.0
C1641 C 0.01498 0.62344 0.48725 0.0
C1642 C 0.00085 0.69586 0.50599 0.0
C1643 C 0.95834 0.69051 0.52939 0.0
N1644 N 0.00977 0.64705 0.48936 0.0
N1645 N 0.96042 0.67316 0.51107 0.0
H1646 H 0.59636 0.83271 0.90433 0.0
H1647 H 0.65267 0.74256 0.81303 0.0
H1648 H 0.57723 0.75089 0.8995 0.0
H1649 H 0.68519 0.82173 0.83269 0.0
H1650 H 0.62141 0.74594 0.84097 0.0
H1651 H 0.62588 0.82971 0.87457 0.0
C1652 C 0.59835 0.81412 0.89702 0.0
C1653 C 0.58437 0.79203 0.90451 0.0
C1654 C 0.63536 0.76258 0.83912 0.0
C1655 C 0.61795 0.78846 0.87031 0.0
C1656 C 0.6531 0.76067 0.82313 0.0
C1657 C 0.67151 0.78187 0.82069 0.0
C1658 C 0.63596 0.78592 0.85255 0.0
C1659 C 0.67132 0.8049 0.83416 0.0
C1660 C 0.61522 0.81243 0.88005 0.0
C1661 C 0.58771 0.76844 0.89438 0.0
N1662 N 0.65382 0.80633 0.84951 0.0
N1663 N 0.6041 0.76729 0.87777 0.0
H1664 H 0.41257 0.58284 0.66795 0.0
H1665 H 0.51486 0.52942 0.59865 0.0
H1666 H 0.43899 0.51396 0.68092 0.0
H1667 H 0.47461 0.58243 0.56611 0.0
H1668 H 0.49297 0.53164 0.6346 0.0
H1669 H 0.43909 0.58913 0.6345 0.0
C1670 C 0.42375 0.56904 0.66374 0.0
C1671 C 0.42352 0.54786 0.67733 0.0
C1672 C 0.48905 0.54305 0.61976 0.0
C1673 C 0.4541 0.55527 0.63985 0.0
C1674 C 0.50172 0.54194 0.59931 0.0
C1675 C 0.49637 0.55556 0.57932 0.0
C1676 C 0.47058 0.55766 0.62019 0.0
C1677 C 0.47928 0.57165 0.58123 0.0
C1678 C 0.43893 0.57271 0.6448 0.0
C1679 C 0.43847 0.53063 0.67114 0.0
N1680 N 0.46662 0.57196 0.6012 0.0
N1681 N 0.45313 0.53481 0.65306 0.0
H1682 H 0.81326 0.2651 0.95135 0.0
H1683 H 0.7801 0.23841 0.80493 0.0
H1684 H 0.7999 0.18957 0.91469 0.0
H1685 H 0.7757 0.30745 0.84732 0.0
H1686 H 0.79337 0.22096 0.84323 0.0
H1687 H 0.80803 0.28206 0.91154 0.0
C1688 C 0.81 0.25215 0.93477 0.0
C1689 C 0.80712 0.22592 0.9363 0.0
C1690 C 0.78948 0.2399 0.8441 0.0
C1691 C 0.80006 0.24512 0.8905 0.0
C1692 C 0.78174 0.24981 0.8223 0.0
C1693 C 0.77654 0.27434 0.82299 0.0
C1694 C 0.79239 0.25481 0.86668 0.0
C1695 C 0.77935 0.28842 0.84592 0.0
C1696 C 0.80665 0.2618 0.91204 0.0
C1697 C 0.80259 0.20994 0.91427 0.0
N1698 N 0.78713 0.2785 0.86677 0.0
N1699 N 0.79882 0.21977 0.89221 0.0
H1700 H 0.08902 0.47073 0.18528 0.0
H1701 H 0.98441 0.50223 0.08606 0.0
H1702 H 0.01909 0.48768 0.20185 0.0
H1703 H 0.05608 0.49126 0.06821 0.0
H1704 H 0.99459 0.48995 0.12722 0.0
H1705 H 0.07492 0.47061 0.14112 0.0
C1706 C 0.07047 0.4737 0.1796 0.0
C1707 C 0.05527 0.47943 0.19721 0.0
C1708 C 0.00806 0.49001 0.11427 0.0
C1709 C 0.0392 0.47971 0.14701 0.0
C1710 C 0.00224 0.49706 0.09069 0.0
C1711 C 0.01948 0.49807 0.07362 0.0
C1712 C 0.0314 0.48404 0.12106 0.0
C1713 C 0.04223 0.49093 0.08077 0.0
C1714 C 0.06252 0.47389 0.15444 0.0
C1715 C 0.03151 0.48344 0.18889 0.0
N1716 N 0.04762 0.48447 0.104 0.0
N1717 N 0.02434 0.48374 0.16449 0.0
H1718 H 0.74096 0.80106 0.47541 0.0
H1719 H 0.77531 0.84318 0.34776 0.0
H1720 H 0.742 0.87794 0.45784 0.0
H1721 H 0.72933 0.76975 0.35242 0.0
H1722 H 0.769 0.85588 0.3901 0.0
H1723 H 0.74143 0.78826 0.43173 0.0
C1724 C 0.74095 0.81513 0.46226 0.0
C1725 C 0.74139 0.84053 0.47006 0.0
C1726 C 0.76027 0.83704 0.38174 0.0
C1727 C 0.74268 0.82627 0.4206 0.0
C1728 C 0.76404 0.82974 0.3578 0.0
C1729 C 0.7529 0.8054 0.34686 0.0
C1730 C 0.74579 0.81962 0.39484 0.0
C1731 C 0.73825 0.78868 0.36038 0.0
C1732 C 0.74121 0.80785 0.43746 0.0
C1733 C 0.74144 0.85813 0.45243 0.0
N1734 N 0.73532 0.796 0.38387 0.0
N1735 N 0.74255 0.85075 0.42847 0.0
H1736 H 0.3907 0.57534 0.82009 0.0
H1737 H 0.50533 0.54894 0.90313 0.0
H1738 H 0.46401 0.58214 0.7979 0.0
H1739 H 0.43909 0.56049 0.93337 0.0
H1740 H 0.49195 0.56757 0.86617 0.0
H1741 H 0.40895 0.57789 0.8632 0.0
C1742 C 0.41073 0.57846 0.82438 0.0
C1743 C 0.4259 0.578 0.80553 0.0
C1744 C 0.48038 0.5664 0.88093 0.0
C1745 C 0.44672 0.58027 0.8544 0.0
C1746 C 0.48797 0.55558 0.90196 0.0
C1747 C 0.47303 0.55282 0.92098 0.0
C1748 C 0.4573 0.57392 0.8786 0.0
C1749 C 0.45094 0.5621 0.91885 0.0
C1750 C 0.42112 0.57967 0.84896 0.0
C1751 C 0.45168 0.58194 0.81197 0.0
N1752 N 0.44342 0.57179 0.89772 0.0
N1753 N 0.46123 0.58237 0.83582 0.0
H1754 H 0.79956 0.26525 0.06023 0.0
H1755 H 0.81648 0.2483 0.20436 0.0
H1756 H 0.8195 0.19788 0.08743 0.0
H1757 H 0.77321 0.29797 0.1702 0.0
H1758 H 0.82652 0.23459 0.16358 0.0
H1759 H 0.80014 0.28294 0.10235 0.0
C1760 C 0.80455 0.25435 0.07516 0.0
C1761 C 0.80925 0.22992 0.07028 0.0
C1762 C 0.81507 0.24868 0.16512 0.0
C1763 C 0.80947 0.25002 0.11884 0.0
C1764 C 0.80944 0.25664 0.18836 0.0
C1765 C 0.79397 0.27435 0.19068 0.0
C1766 C 0.80553 0.25886 0.14416 0.0
C1767 C 0.78511 0.28424 0.1693 0.0
C1768 C 0.80471 0.26442 0.09924 0.0
C1769 C 0.81581 0.21679 0.09039 0.0
N1770 N 0.79104 0.27641 0.14703 0.0
N1771 N 0.81539 0.22687 0.11388 0.0
H1772 H 0.09188 0.48381 0.35324 0.0
H1773 H 0.9766 0.5057 0.42201 0.0
H1774 H 0.017 0.47736 0.31809 0.0
H1775 H 0.04876 0.5073 0.46174 0.0
H1776 H 0.99127 0.4917 0.38433 0.0
H1777 H 0.07666 0.48742 0.39366 0.0
C1778 C 0.07215 0.48224 0.35407 0.0
C1779 C 0.05563 0.48037 0.33238 0.0
C1780 C 0.00401 0.49496 0.40121 0.0
C1781 C 0.03827 0.4851 0.3782 0.0
C1782 C 0.99563 0.50311 0.42278 0.0
C1783 C 0.01152 0.5078 0.445 0.0
C1784 C 0.02868 0.49171 0.40161 0.0
C1785 C 0.03597 0.50399 0.4449 0.0
C1786 C 0.06352 0.48462 0.37709 0.0
C1787 C 0.03034 0.47891 0.33439 0.0
N1788 N 0.04391 0.49633 0.42344 0.0
N1789 N 0.02252 0.48157 0.35682 0.0
H1790 H 0.70841 0.87182 0.61433 0.0
H1791 H 0.71037 0.74837 0.67689 0.0
H1792 H 0.7057 0.79932 0.57462 0.0
H1793 H 0.69022 0.81292 0.71428 0.0
H1794 H 0.69909 0.76396 0.63755 0.0
H1795 H 0.69292 0.84971 0.64899 0.0
C1796 C 0.70368 0.85127 0.6126 0.0
C1797 C 0.70877 0.83728 0.59195 0.0
C1798 C 0.69647 0.77452 0.65425 0.0
C1799 C 0.69149 0.81198 0.63127 0.0
C1800 C 0.70278 0.76546 0.67672 0.0
C1801 C 0.70164 0.77965 0.69873 0.0
C1802 C 0.68995 0.79847 0.65388 0.0
C1803 C 0.69167 0.80165 0.69759 0.0
C1804 C 0.69492 0.83863 0.63237 0.0
C1805 C 0.70246 0.81074 0.59052 0.0
N1806 N 0.687 0.81092 0.67551 0.0
N1807 N 0.6946 0.79897 0.61007 0.0
H1808 H 0.64658 0.42253 0.53402 0.0
H1809 H 0.5901 0.53667 0.47947 0.0
H1810 H 0.67465 0.46509 0.4758 0.0
H1811 H 0.56238 0.49874 0.54038 0.0
H1812 H 0.62018 0.50925 0.47754 0.0
H1813 H 0.6148 0.44859 0.53627 0.0
C1814 C 0.64607 0.43727 0.52167 0.0
C1815 C 0.66345 0.44156 0.5047 0.0
C1816 C 0.60757 0.50678 0.49137 0.0
C1817 C 0.62703 0.47151 0.50721 0.0
C1818 C 0.59035 0.52254 0.49253 0.0
C1819 C 0.57359 0.52 0.5101 0.0
C1820 C 0.60832 0.48821 0.508 0.0
C1821 C 0.57475 0.50117 0.52638 0.0
C1822 C 0.62791 0.45217 0.523 0.0
C1823 C 0.66178 0.461 0.48921 0.0
N1824 N 0.59185 0.48601 0.52498 0.0
N1825 N 0.64401 0.47514 0.49086 0.0
H1826 H 0.162 0.10574 0.41756 0.0
H1827 H 0.09698 0.01276 0.50772 0.0
H1828 H 0.20263 0.07672 0.47703 0.0
H1829 H 0.05814 0.04121 0.44654 0.0
H1830 H 0.13642 0.0295 0.49254 0.0
H1831 H 0.12485 0.07489 0.42272 0.0
C1832 C 0.16324 0.09243 0.43132 0.0
C1833 C 0.18528 0.0941 0.44719 0.0
C1834 C 0.11922 0.03175 0.48228 0.0
C1835 C 0.14264 0.0592 0.45373 0.0
C1836 C 0.0967 0.02226 0.49097 0.0
C1837 C 0.07424 0.026 0.47866 0.0
C1838 C 0.11922 0.04508 0.46117 0.0
C1839 C 0.07499 0.03825 0.45693 0.0
C1840 C 0.14198 0.07488 0.43437 0.0
C1841 C 0.18594 0.07622 0.46452 0.0
N1842 N 0.0971 0.04756 0.44906 0.0
N1843 N 0.16473 0.05987 0.46773 0.0
H1844 H 0.17111 0.92452 0.76359 0.0
H1845 H 0.29232 0.87202 0.80874 0.0
H1846 H 0.23178 0.96819 0.81469 0.0
H1847 H 0.24488 0.84177 0.74151 0.0
H1848 H 0.26823 0.90516 0.81376 0.0
H1849 H 0.19536 0.89149 0.75819 0.0
C1850 C 0.18946 0.92712 0.77382 0.0
C1851 C 0.1994 0.94923 0.78966 0.0
C1852 C 0.26307 0.89131 0.79786 0.0
C1853 C 0.22725 0.91137 0.7835 0.0
C1854 C 0.27683 0.87238 0.79495 0.0
C1855 C 0.27043 0.85395 0.77472 0.0
C1856 C 0.24255 0.89174 0.78054 0.0
C1857 C 0.25017 0.85535 0.7575 0.0
C1858 C 0.20334 0.9083 0.77059 0.0
C1859 C 0.22336 0.95153 0.80228 0.0
N1860 N 0.23682 0.87382 0.76086 0.0
N1861 N 0.23641 0.93282 0.799 0.0
H1862 H 0.3018 0.92453 0.0639 0.0
H1863 H 0.3895 0.00104 0.97878 0.0
H1864 H 0.27333 0.94675 -0.00568 0.0
H1865 H 0.41163 0.99548 0.05568 0.0
H1866 H 0.34619 0.98421 0.98464 0.0
H1867 H 0.34103 0.95405 0.06267 0.0
C1868 C 0.30365 0.93626 0.04869 0.0
C1869 C 0.28441 0.93338 0.02923 0.0
C1870 C 0.36047 0.987 0.0003 0.0
C1871 C 0.32959 0.96638 0.02708 0.0
C1872 C 0.38517 -0.00353 -0.00308 0.0
C1873 C 0.40411 -0.00072 0.01671 0.0
C1874 C 0.35481 0.98007 0.02356 0.0
C1875 C 0.39758 0.99331 0.03988 0.0
C1876 C 0.32609 0.953 0.04789 0.0
C1877 C 0.28773 0.9487 0.00978 0.0
N1878 N 0.37353 0.98371 0.0426 0.0
N1879 N 0.31016 0.96421 0.00891 0.0
H1880 H 0.85445 0.64399 0.72613 0.0
H1881 H 0.76773 0.71094 0.80731 0.0
H1882 H 0.84348 0.62925 0.80081 0.0
H1883 H 0.76958 0.71985 0.73013 0.0
H1884 H 0.79684 0.68226 0.80518 0.0
H1885 H 0.82536 0.67328 0.72714 0.0
C1886 C 0.84603 0.6469 0.74274 0.0
C1887 C 0.85154 0.63398 0.7634 0.0
C1888 C 0.79103 0.6905 0.78865 0.0
C1889 C 0.81812 0.6676 0.76469 0.0
C1890 C 0.77429 0.70689 0.78985 0.0
C1891 C 0.76653 0.71832 0.76896 0.0
C1892 C 0.80014 0.68516 0.76631 0.0
C1893 C 0.77568 0.71219 0.74686 0.0
C1894 C 0.82935 0.66361 0.74329 0.0
C1895 C 0.83991 0.63862 0.78437 0.0
N1896 N 0.79202 0.69613 0.7461 0.0
N1897 N 0.82392 0.65494 0.78446 0.0
H1898 H 0.78671 0.55295 0.98045 0.0
H1899 H 0.92812 0.58188 0.04244 0.0
H1900 H 0.82775 0.6273 0.01008 0.0
H1901 H 0.89006 0.50892 0.00658 0.0
H1902 H 0.88895 0.59679 0.03771 0.0
H1903 H 0.82196 0.53478 -0.00388 0.0
C1904 C 0.80304 0.56544 0.99042 0.0
C1905 C 0.80441 0.59174 0.99367 0.0
C1906 C 0.88905 0.57739 0.03119 0.0
C1907 C 0.84475 0.57106 0.0117 0.0
C1908 C 0.91137 0.56885 0.03402 0.0
C1909 C 0.91228 0.54425 0.02463 0.0
C1910 C 0.86757 0.56125 0.01874 0.0
C1911 C 0.89011 0.52809 0.01392 0.0
C1912 C 0.82315 0.55504 -0.00063 0.0
C1913 C 0.82597 0.60696 0.00687 0.0
N1914 N 0.86868 0.53699 0.01095 0.0
N1915 N 0.84535 0.59643 0.01523 0.0
H1916 H 0.19757 0.07073 0.79951 0.0
H1917 H 0.23056 0.1876 0.7184 0.0
H1918 H 0.1669 0.07152 0.72399 0.0
H1919 H 0.23859 0.19625 0.79788 0.0
H1920 H 0.21696 0.14192 0.71927 0.0
H1921 H 0.22268 0.11349 0.79791 0.0
C1922 C 0.19675 0.07959 0.78241 0.0
C1923 C 0.18017 0.06775 0.76186 0.0
C1924 C 0.2219 0.1538 0.73652 0.0
C1925 C 0.20845 0.11633 0.75994 0.0
C1926 C 0.22968 0.17992 0.73607 0.0
C1927 C 0.23539 0.19591 0.75811 0.0
C1928 C 0.21993 0.14344 0.75916 0.0
C1929 C 0.23406 0.18471 0.78043 0.0
C1930 C 0.21082 0.10402 0.78158 0.0
C1931 C 0.17942 0.08012 0.74024 0.0
N1932 N 0.22631 0.15916 0.78039 0.0
N1933 N 0.19322 0.10376 0.73988 0.0
H1934 H 0.34108 0.01967 0.26353 0.0
H1935 H 0.30269 0.87276 0.21253 0.0
H1936 H 0.37773 0.9839 0.20955 0.0
H1937 H 0.28525 0.90122 0.28256 0.0
H1938 H 0.32252 0.9159 0.2057 0.0
H1939 H 0.31267 0.97871 0.26506 0.0
C1940 C 0.34278 0.00335 0.25165 0.0
C1941 C 0.36185 0.00504 0.23654 0.0
C1942 C 0.31418 0.91275 0.22248 0.0
C1943 C 0.32965 0.95848 0.23815 0.0
C1944 C 0.30287 0.88816 0.22638 0.0
C1945 C 0.29262 0.88347 0.24826 0.0
C1946 C 0.31513 0.93282 0.24055 0.0
C1947 C 0.29317 0.90409 0.26554 0.0
C1948 C 0.32675 0.98001 0.25266 0.0
C1949 C 0.36342 0.98333 0.22163 0.0
N1950 N 0.30439 0.92792 0.26138 0.0
N1951 N 0.34762 0.96097 0.22287 0.0
H1952 H 0.49858 0.30466 0.56209 0.0
H1953 H 0.51196 0.45155 0.5777 0.0
H1954 H 0.48418 0.34266 0.6292 0.0
H1955 H 0.48202 0.41058 0.50716 0.0
H1956 H 0.50553 0.4116 0.59677 0.0
H1957 H 0.49491 0.34257 0.54095 0.0
C1958 C 0.49418 0.32084 0.57224 0.0
C1959 C 0.49177 0.32064 0.59744 0.0
C1960 C 0.50021 0.41135 0.57715 0.0
C1961 C 0.48829 0.3641 0.57359 0.0
C1962 C 0.5041 0.43407 0.56621 0.0
C1963 C 0.49764 0.43424 0.54081 0.0
C1964 C 0.49038 0.38853 0.56251 0.0
C1965 C 0.48729 0.41114 0.5268 0.0
C1966 C 0.49208 0.3424 0.56017 0.0
C1967 C 0.48609 0.34205 0.60975 0.0
N1968 N 0.48429 0.38905 0.5378 0.0
N1969 N 0.48507 0.36317 0.59782 0.0
H1970 H 0.43652 0.72954 0.30414 0.0
H1971 H 0.34583 0.81206 0.24787 0.0
H1972 H 0.4607 0.80761 0.29079 0.0
H1973 H 0.32487 0.73163 0.25417 0.0
H1974 H 0.38956 0.80893 0.25469 0.0
H1975 H 0.39838 0.72744 0.27642 0.0
C1976 C 0.43421 0.74592 0.29445 0.0
C1977 C 0.45169 0.76874 0.29963 0.0
C1978 C 0.3754 0.79187 0.25409 0.0
C1979 C 0.40747 0.76706 0.26903 0.0
C1980 C 0.35036 0.79364 0.25022 0.0
C1981 C 0.33156 0.77218 0.25104 0.0
C1982 C 0.38169 0.76852 0.25899 0.0
C1983 C 0.33866 0.74881 0.25387 0.0
C1984 C 0.41228 0.74486 0.27885 0.0
C1985 C 0.44769 0.7896 0.28703 0.0
N1986 N 0.3631 0.7477 0.25816 0.0
N1987 N 0.42565 0.78849 0.27281 0.0
H1988 H 0.97227 0.69405 0.0971 0.0
H1989 H 0.04937 0.58442 0.07561 0.0
H1990 H 0.04231 0.69073 0.13849 0.0
H1991 H 0.98951 0.59555 0.02293 0.0
H1992 H 0.04145 0.6185 0.10338 0.0
H1993 H 0.97241 0.65282 0.07465 0.0
C1994 C 0.98726 0.68427 0.10193 0.0
C1995 C 0.00736 0.6957 0.11955 0.0
C1996 C 0.02986 0.61341 0.08585 0.0
C1997 C 0.00782 0.6491 0.094 0.0
C1998 C 0.03445 0.594 0.06997 0.0
C1999 C 0.0201 0.58725 0.04698 0.0
C2000 C 0.01087 0.62636 0.07865 0.0
C2001 C 0.00084 0.6001 0.04063 0.0
C2002 C 0.98748 0.66095 0.08898 0.0
C2003 C 0.02653 0.68255 0.12493 0.0
N2004 N 0.99687 0.61921 0.05634 0.0
N2005 N 0.02637 0.66008 0.11212 0.0
H2006 H 0.09125 0.27303 0.84428 0.0
H2007 H 0.17608 0.30966 0.73728 0.0
H2008 H 0.07467 0.32132 0.78791 0.0
H2009 H 0.19401 0.26051 0.79223 0.0
H2010 H 0.1396 0.31502 0.75682 0.0
H2011 H 0.12949 0.26906 0.82679 0.0
C2012 C 0.09564 0.28287 0.82828 0.0
C2013 C 0.0796 0.29751 0.81754 0.0
C2014 C 0.15147 0.30309 0.76472 0.0
C2015 C 0.12341 0.29299 0.79741 0.0
C2016 C 0.17234 0.30001 0.75355 0.0
C2017 C 0.18807 0.28457 0.76311 0.0
C2018 C 0.1461 0.29058 0.78569 0.0
C2019 C 0.18236 0.27262 0.78429 0.0
C2020 C 0.1175 0.28057 0.8183 0.0
C2021 C 0.08635 0.3098 0.79683 0.0
N2022 N 0.16178 0.27581 0.79484 0.0
N2023 N 0.10764 0.30722 0.78747 0.0
H2024 H 0.52226 0.70879 0.03228 0.0
H2025 H 0.51473 0.56911 0.98165 0.0
H2026 H 0.53794 0.69133 0.9584 0.0
H2027 H 0.54704 0.59384 0.05644 0.0
H2028 H 0.51869 0.61337 0.97277 0.0
H2029 H 0.52785 0.6665 0.04225 0.0
C2030 C 0.52722 0.69614 0.01829 0.0
C2031 C 0.52955 0.70337 -0.00553 0.0
C2032 C 0.52504 0.6091 0.99109 0.0
C2033 C 0.53533 0.65512 0.00555 0.0
C2034 C 0.52243 0.58389 -0.00378 0.0
C2035 C 0.53013 0.57797 0.01985 0.0
C2036 C 0.53487 0.62845 0.00995 0.0
C2037 C 0.54075 0.5978 0.03801 0.0
C2038 C 0.53047 0.67214 0.02401 0.0
C2039 C 0.53605 0.68641 0.97699 0.0
N2040 N 0.54244 0.62231 0.03281 0.0
N2041 N 0.53822 0.66278 0.98273 0.0
H2042 H 0.04958 0.72996 0.66999 0.0
H2043 H 0.18727 0.81242 0.688 0.0
H2044 H 0.06975 0.79619 0.63095 0.0
H2045 H 0.15846 0.75969 0.73847 0.0
H2046 H 0.14512 0.80689 0.66589 0.0
H2047 H 0.09039 0.74012 0.69405 0.0
C2048 C 0.06263 0.74667 0.66645 0.0
C2049 C 0.05629 0.7622 0.64835 0.0
C2050 C 0.14806 0.79676 0.68195 0.0
C2051 C 0.10321 0.77397 0.67593 0.0
C2052 C 0.17203 0.7999 0.69452 0.0
C2053 C 0.17623 0.78633 0.7149 0.0
C2054 C 0.12843 0.77975 0.6898 0.0
C2055 C 0.15599 0.77038 0.72272 0.0
C2056 C 0.08592 0.75254 0.68031 0.0
C2057 C 0.07391 0.78372 0.64474 0.0
N2058 N 0.13301 0.76737 0.71004 0.0
N2059 N 0.09672 0.7889 0.65831 0.0
H2060 H 0.99215 0.32588 0.524 0.0
H2061 H 0.06066 0.4685 0.51488 0.0
H2062 H 0.05094 0.34644 0.47886 0.0
H2063 H 0.98869 0.4474 0.53999 0.0
H2064 H 0.06387 0.42395 0.51163 0.0
H2065 H 0.99769 0.37021 0.53968 0.0
C2066 C 0.00647 0.33966 0.51758 0.0
C2067 C 0.0208 0.33247 0.49968 0.0
C2068 C 0.04756 0.42915 0.5182 0.0
C2069 C 0.02717 0.38335 0.51769 0.0
C2070 C 0.04571 0.4546 0.52019 0.0
C2071 C 0.02412 0.46168 0.52732 0.0
C2072 C 0.02781 0.41067 0.52358 0.0
C2073 C 0.0055 0.44279 0.53409 0.0
C2074 C 0.00958 0.36499 0.52657 0.0
C2075 C 0.03931 0.35116 0.49242 0.0
N2076 N 0.00767 0.41809 0.53181 0.0
N2077 N 0.04177 0.37585 0.50124 0.0
H2078 H 0.42472 0.29642 0.13144 0.0
H2079 H 0.33908 0.24911 0.23445 0.0
H2080 H 0.42683 0.22849 0.16825 0.0
H2081 H 0.33019 0.31318 0.19395 0.0
H2082 H 0.37406 0.24385 0.21251 0.0
H2083 H 0.3924 0.30532 0.15612 0.0
C2084 C 0.41845 0.28344 0.14471 0.0
C2085 C 0.42836 0.26162 0.1477 0.0
C2086 C 0.36458 0.25915 0.20843 0.0
C2087 C 0.39169 0.27169 0.17589 0.0
C2088 C 0.34467 0.26217 0.22101 0.0
C2089 C 0.33184 0.28153 0.21585 0.0
C2090 C 0.37163 0.27559 0.19054 0.0
C2091 C 0.3397 0.29797 0.19832 0.0
C2092 C 0.40004 0.28852 0.15876 0.0
C2093 C 0.41962 0.24546 0.16518 0.0
N2094 N 0.35912 0.29457 0.18614 0.0
N2095 N 0.4018 0.25082 0.17856 0.0
H2096 H 0.60966 0.47881 0.34989 0.0
H2097 H 0.50816 0.53511 0.41856 0.0
H2098 H 0.57449 0.53995 0.32757 0.0
H2099 H 0.54966 0.48376 0.45234 0.0
H2100 H 0.52892 0.53139 0.38207 0.0
H2101 H 0.58586 0.47602 0.38558 0.0
C2102 C 0.59711 0.49164 0.35248 0.0
C2103 C 0.59411 0.5096 0.3356 0.0
C2104 C 0.53346 0.52071 0.39732 0.0
C2105 C 0.56673 0.50624 0.37588 0.0
C2106 C 0.52143 0.52274 0.41814 0.0
C2107 C 0.52725 0.50983 0.43853 0.0
C2108 C 0.55177 0.50589 0.39685 0.0
C2109 C 0.54455 0.49393 0.4369 0.0
C2110 C 0.58348 0.48996 0.37274 0.0
C2111 C 0.5775 0.52569 0.33986 0.0
N2112 N 0.55648 0.49262 0.41649 0.0
N2113 N 0.56452 0.52355 0.35939 0.0
H2114 H 0.21019 0.79453 0.06338 0.0
H2115 H 0.23278 0.82007 0.21033 0.0
H2116 H 0.21218 0.86792 0.10093 0.0
H2117 H 0.24177 0.75211 0.16903 0.0
H2118 H 0.2196 0.83666 0.17155 0.0
H2119 H 0.21394 0.77688 0.10293 0.0
C2120 C 0.21072 0.80678 0.08003 0.0
C2121 C 0.21086 0.83269 0.07893 0.0
C2122 C 0.2244 0.81811 0.17102 0.0
C2123 C 0.21617 0.81283 0.1245 0.0
C2124 C 0.23204 0.80869 0.1931 0.0
C2125 C 0.23854 0.78475 0.19283 0.0
C2126 C 0.22305 0.80335 0.14859 0.0
C2127 C 0.23706 0.7707 0.17008 0.0
C2128 C 0.21316 0.79677 0.10265 0.0
C2129 C 0.21177 0.84778 0.10104 0.0
N2130 N 0.22948 0.78019 0.14893 0.0
N2131 N 0.21481 0.83771 0.12303 0.0
H2132 H 0.9894 0.57905 0.80859 0.0
H2133 H 0.9578 0.5718 0.94678 0.0
H2134 H 0.92012 0.59193 0.83108 0.0
H2135 H 0.02483 0.55467 0.92203 0.0
H2136 H 0.94624 0.58514 0.90634 0.0
H2137 H 0.00521 0.57707 0.85147 0.0
C2138 C 0.97767 0.58202 0.82269 0.0
C2139 C 0.95333 0.58555 0.81622 0.0
C2140 C 0.96359 0.5787 0.90979 0.0
C2141 C 0.9712 0.58264 0.86558 0.0
C2142 C 0.97028 0.57102 0.93295 0.0
C2143 C 0.99233 0.56183 0.93791 0.0
C2144 C 0.97899 0.57723 0.89126 0.0
C2145 C 0.00765 0.56149 0.91914 0.0
C2146 C 0.98669 0.58071 0.8472 0.0
C2147 C 0.93902 0.58932 0.83525 0.0
N2148 N 0.0006 0.56887 0.89665 0.0
N2149 N 0.94804 0.58737 0.85907 0.0
H2150 H 0.20623 0.20699 0.5267 0.0
H2151 H 0.2849 0.24126 0.65992 0.0
H2152 H 0.27449 0.1816 0.54747 0.0
H2153 H 0.21139 0.25618 0.64192 0.0
H2154 H 0.28335 0.22276 0.61762 0.0
H2155 H 0.20956 0.22822 0.56793 0.0
C2156 C 0.22192 0.20585 0.53994 0.0
C2157 C 0.24008 0.19243 0.53367 0.0
C2158 C 0.2676 0.23017 0.6229 0.0
C2159 C 0.24403 0.21679 0.58087 0.0
C2160 C 0.26852 0.24078 0.64695 0.0
C2161 C 0.24818 0.25008 0.65425 0.0
C2162 C 0.24622 0.22899 0.60615 0.0
C2163 C 0.2274 0.2491 0.63692 0.0
C2164 C 0.2238 0.21799 0.56348 0.0
C2165 C 0.26001 0.19165 0.55157 0.0
N2166 N 0.22691 0.23864 0.61362 0.0
N2167 N 0.26147 0.20369 0.5744 0.0
H2168 H 0.63202 0.46917 0.1975 0.0
H2169 H 0.51557 0.44843 0.09364 0.0
H2170 H 0.55609 0.46508 0.2115 0.0
H2171 H 0.59081 0.48184 0.08339 0.0
H2172 H 0.53087 0.43782 0.13448 0.0
H2173 H 0.61722 0.45666 0.15374 0.0
C2174 C 0.6122 0.46474 0.19151 0.0
C2175 C 0.59523 0.46862 0.20791 0.0
C2176 C 0.54406 0.44693 0.12302 0.0
C2177 C 0.57831 0.45449 0.15824 0.0
C2178 C 0.53537 0.45296 0.09977 0.0
C2179 C 0.55196 0.46652 0.08553 0.0
C2180 C 0.56948 0.45437 0.13183 0.0
C2181 C 0.57741 0.47179 0.09411 0.0
C2182 C 0.6038 0.45779 0.16656 0.0
C2183 C 0.56977 0.46272 0.19927 0.0
N2184 N 0.5854 0.46601 0.1169 0.0
N2185 N 0.56207 0.45631 0.17492 0.0
H2186 H 0.22159 0.80134 0.95531 0.0
H2187 H 0.22118 0.82824 0.81379 0.0
H2188 H 0.20518 0.87083 0.92993 0.0
H2189 H 0.26098 0.77668 0.84955 0.0
H2190 H 0.20656 0.83929 0.85317 0.0
H2191 H 0.22559 0.78651 0.91329 0.0
C2192 C 0.21822 0.81325 0.94071 0.0
C2193 C 0.21319 0.83742 0.94612 0.0
C2194 C 0.21831 0.82542 0.85226 0.0
C2195 C 0.21842 0.82076 0.89786 0.0
C2196 C 0.22658 0.81902 0.82983 0.0
C2197 C 0.24234 0.80149 0.82841 0.0
C2198 C 0.22548 0.81383 0.87325 0.0
C2199 C 0.24899 0.79035 0.8498 0.0
C2200 C 0.22074 0.80485 0.91674 0.0
C2201 C 0.20895 0.85202 0.92649 0.0
N2202 N 0.24048 0.79665 0.87124 0.0
N2203 N 0.21204 0.84361 0.90316 0.0
H2204 H 0.91574 0.58083 0.65886 0.0
H2205 H 0.03792 0.56242 0.60047 0.0
H2206 H 0.98953 0.59755 0.69855 0.0
H2207 H 0.96894 0.56134 0.55498 0.0
H2208 H 0.01981 0.57649 0.63629 0.0
H2209 H 0.93396 0.57647 0.62008 0.0
C2210 C 0.93578 0.58464 0.65931 0.0
C2211 C 0.95118 0.58973 0.68192 0.0
C2212 C 0.00856 0.5733 0.6185 0.0
C2213 C 0.97206 0.58377 0.63795 0.0
C2214 C 0.0189 0.56512 0.59803 0.0
C2215 C 0.00489 0.56051 0.57473 0.0
C2216 C 0.9838 0.57669 0.61587 0.0
C2217 C 0.98033 0.56445 0.57267 0.0
C2218 C 0.94617 0.58175 0.63723 0.0
C2219 C 0.977 0.59372 0.68151 0.0
N2220 N 0.97048 0.57212 0.59301 0.0
N2221 N 0.98655 0.59032 0.66003 0.0
H2222 H 0.29064 0.17249 0.39695 0.0
H2223 H 0.31196 0.25457 0.30956 0.0
H2224 H 0.28067 0.23606 0.44411 0.0
H2225 H 0.27096 0.2972 0.35337 0.0
H2226 H 0.32386 0.2336 0.34575 0.0
H2227 H 0.30654 0.20178 0.3676 0.0
C2228 C 0.29287 0.19273 0.40154 0.0
C2229 C 0.28403 0.20202 0.42257 0.0
C2230 C 0.31264 0.24784 0.34758 0.0
C2231 C 0.30211 0.23564 0.38945 0.0
C2232 C 0.30618 0.26017 0.32702 0.0
C2233 C 0.28996 0.27719 0.32845 0.0
C2234 C 0.30274 0.25272 0.36952 0.0
C2235 C 0.28306 0.28379 0.35143 0.0
C2236 C 0.30202 0.20956 0.38484 0.0
C2237 C 0.28699 0.22828 0.42777 0.0
N2238 N 0.28917 0.27123 0.37099 0.0
N2239 N 0.29529 0.24415 0.41108 0.0
H2240 H 0.35396 0.60852 0.54975 0.0
H2241 H 0.45497 0.56162 0.47209 0.0
H2242 H 0.37168 0.63867 0.48162 0.0
H2243 H 0.43578 0.53423 0.54076 0.0
H2244 H 0.42556 0.59049 0.47484 0.0
H2245 H 0.38444 0.58173 0.54636 0.0
C2246 C 0.36426 0.60958 0.53402 0.0
C2247 C 0.36007 0.62599 0.51594 0.0
C2248 C 0.42787 0.57823 0.48934 0.0
C2249 C 0.39542 0.59494 0.51187 0.0
C2250 C 0.44484 0.56192 0.48787 0.0
C2251 C 0.44816 0.54577 0.50641 0.0
C2252 C 0.41401 0.57824 0.50943 0.0
C2253 C 0.43387 0.54632 0.52603 0.0
C2254 C 0.38177 0.59418 0.53209 0.0
C2255 C 0.3742 0.62635 0.49603 0.0
N2256 N 0.41757 0.56223 0.52703 0.0
N2257 N 0.39117 0.61107 0.49451 0.0
H2258 H 0.80264 0.95012 0.53439 0.0
H2259 H 0.94999 0.96256 0.55906 0.0
H2260 H 0.83928 0.90158 0.57829 0.0
H2261 H 0.9141 0.00383 0.5062 0.0
H2262 H 0.90974 0.94583 0.57203 0.0
H2263 H 0.84337 0.97603 0.53029 0.0
C2264 C 0.81918 0.94527 0.54368 0.0
C2265 C 0.81759 0.92346 0.55645 0.0
C2266 C 0.91066 0.9587 0.55772 0.0
C2267 C 0.86415 0.95278 0.55157 0.0
C2268 C 0.93368 0.96827 0.55025 0.0
C2269 C 0.93547 0.98443 0.53127 0.0
C2270 C 0.88912 0.96522 0.54613 0.0
C2271 C 0.91362 0.99125 0.52074 0.0
C2272 C 0.84243 0.95994 0.54114 0.0
C2273 C 0.83965 0.91803 0.56801 0.0
N2274 N 0.89132 0.98145 0.52818 0.0
N2275 N 0.86199 0.93241 0.56508 0.0
H2276 H 0.82937 0.11977 0.29051 0.0
H2277 H 0.76609 0.21413 0.21095 0.0
H2278 H 0.83257 0.12243 0.21247 0.0
H2279 H 0.77817 0.22252 0.29027 0.0
H2280 H 0.78824 0.17896 0.21086 0.0
H2281 H 0.80854 0.15576 0.29051 0.0
C2282 C 0.82565 0.12787 0.27332 0.0
C2283 C 0.8327 0.11797 0.25142 0.0
C2284 C 0.78617 0.18853 0.2283 0.0
C2285 C 0.80872 0.1593 0.25134 0.0
C2286 C 0.77343 0.20851 0.22837 0.0
C2287 C 0.77049 0.22127 0.25067 0.0
C2288 C 0.79568 0.18097 0.25074 0.0
C2289 C 0.7804 0.21336 0.27269 0.0
C2290 C 0.81382 0.14852 0.27339 0.0
C2291 C 0.82748 0.12942 0.22978 0.0
N2292 N 0.79247 0.19362 0.27219 0.0
N2293 N 0.8157 0.14939 0.23027 0.0
H2294 H 0.71227 0.14399 0.9573 0.0
H2295 H 0.62178 0.06789 0.0413 0.0
H2296 H 0.7394 0.12024 0.02665 0.0
H2297 H 0.60036 0.07778 0.96523 0.0
H2298 H 0.6654 0.08432 0.03598 0.0
H2299 H 0.67196 0.11652 0.95876 0.0
C2300 C 0.70982 0.13241 0.97256 0.0
C2301 C 0.72908 0.13422 0.99182 0.0
C2302 C 0.65117 0.0826 0.0204 0.0
C2303 C 0.68268 0.10346 -0.00579 0.0
C2304 C 0.62631 0.07336 0.02346 0.0
C2305 C 0.6075 0.07182 0.00375 0.0
C2306 C 0.65711 0.0905 -0.00249 0.0
C2307 C 0.61429 0.07894 0.98098 0.0
C2308 C 0.68677 0.11683 0.97349 0.0
C2309 C 0.725 0.11909 0.01132 0.0
N2310 N 0.63848 0.08818 0.97856 0.0
N2311 N 0.70202 0.10466 0.01228 0.0
H2312 H 0.16402 0.43727 0.21974 0.0
H2313 H 0.22423 0.33868 0.29762 0.0
H2314 H 0.14522 0.42131 0.29211 0.0
H2315 H 0.23414 0.3515 0.22235 0.0
H2316 H 0.19586 0.3689 0.29728 0.0
H2317 H 0.19063 0.40627 0.22163 0.0
C2318 C 0.16545 0.42724 0.23608 0.0
C2319 C 0.15229 0.432 0.25578 0.0
C2320 C 0.20419 0.36494 0.28084 0.0
C2321 C 0.18307 0.39616 0.25815 0.0
C2322 C 0.22017 0.34754 0.28098 0.0
C2323 C 0.23118 0.34221 0.25985 0.0
C2324 C 0.19951 0.3772 0.25949 0.0
C2325 C 0.22606 0.35496 0.23907 0.0
C2326 C 0.18071 0.40943 0.23716 0.0
C2327 C 0.15499 0.41825 0.27646 0.0
N2328 N 0.21066 0.37172 0.23943 0.0
N2329 N 0.17012 0.40099 0.27714 0.0
H2330 H 0.16471 0.40421 0.98129 0.0
H2331 H 0.12246 0.53562 0.01141 0.0
H2332 H 0.20811 0.46513 0.03245 0.0
H2333 H 0.0786 0.47351 0.96205 0.0
H2334 H 0.15656 0.51251 0.01518 0.0
H2335 H 0.13535 0.43132 0.97046 0.0
C2336 C 0.16815 0.42333 0.9902 0.0
C2337 C 0.18883 0.4323 0.008 0.0
C2338 C 0.13963 0.50409 0.00323 0.0
C2339 C 0.15515 0.46356 -0.00439 0.0
C2340 C 0.12023 0.51735 0.00095 0.0
C2341 C 0.09768 0.50638 0.98648 0.0
C2342 C 0.13637 0.47965 0.99104 0.0
C2343 C 0.09569 0.48263 0.97343 0.0
C2344 C 0.15136 0.43885 0.98395 0.0
C2345 C 0.19236 0.45735 0.01875 0.0
N2346 N 0.11468 0.46994 0.97622 0.0
N2347 N 0.1756 0.47203 0.01252 0.0
H2348 H 0.81373 0.98582 0.20653 0.0
H2349 H 0.76305 0.86929 0.2822 0.0
H2350 H 0.83469 0.98241 0.28398 0.0
H2351 H 0.76642 0.86166 0.20383 0.0
H2352 H 0.77768 0.91503 0.28271 0.0
H2353 H 0.78472 0.94474 0.20537 0.0
C2354 C 0.81152 0.97684 0.22342 0.0
C2355 C 0.8265 0.98731 0.24539 0.0
C2356 C 0.77488 0.90336 0.26535 0.0
C2357 C 0.79382 0.94067 0.24421 0.0
C2358 C 0.7665 0.87722 0.26501 0.0
C2359 C 0.76393 0.8615 0.24299 0.0
C2360 C 0.7806 0.91394 0.24352 0.0
C2361 C 0.76851 0.87299 0.2213 0.0
C2362 C 0.79523 0.95336 0.22272 0.0
C2363 C 0.82341 0.97483 0.26671 0.0
N2364 N 0.77688 0.89852 0.22214 0.0
N2365 N 0.80754 0.95208 0.26557 0.0
H2366 H 0.66847 0.04215 0.75716 0.0
H2367 H 0.70978 0.18956 0.80534 0.0
H2368 H 0.62747 0.08294 0.80278 0.0
H2369 H 0.73537 0.15712 0.74123 0.0
H2370 H 0.68688 0.14749 0.81167 0.0
H2371 H 0.70008 0.08134 0.75796 0.0
C2372 C 0.66635 0.05921 0.76766 0.0
C2373 C 0.64524 0.05945 0.7797 0.0
C2374 C 0.69772 0.14951 0.79636 0.0
C2375 C 0.68116 0.10395 0.78086 0.0
C2376 C 0.71084 0.17349 0.79279 0.0
C2377 C 0.72417 0.17678 0.77256 0.0
C2378 C 0.69797 0.12867 0.7796 0.0
C2379 C 0.72509 0.15533 0.75694 0.0
C2380 C 0.68428 0.08152 0.76801 0.0
C2381 C 0.64331 0.08203 0.79298 0.0
N2382 N 0.71193 0.13213 0.76065 0.0
N2383 N 0.66097 0.10334 0.79314 0.0
loop_
_geom_bond_atom_site_label_1
_geom_bond_atom_site_label_2
_geom_bond_distance
_geom_bond_site_symmetry_2
_ccdc_geom_bond_type
Zn0 O3 2.031 . S
Zn0 O5 2.049 . S
Zn0 O10 2.067 . S
Zn1 O2 1.962 . S
Zn1 O4 1.986 . S
Zn1 O6 1.996 . S
Zn1 O9 1.943 1_455 S
O2 Zn1 1.962 . S
O2 C7 1.254 . S
O3 Zn0 2.031 . S
O3 C7 1.269 1_655 S
O4 Zn1 1.986 . S
O4 C11 1.262 . S
O5 Zn0 2.049 . S
O5 C13 1.260 1_655 S
O6 Zn1 1.996 . S
O6 C13 1.257 . S
C7 O2 1.254 . S
C7 O3 1.269 1_455 S
C8 O9 1.249 . S
C8 O10 1.270 . S
O9 Zn1 1.943 1_655 S
O9 C8 1.249 . S
O10 Zn0 2.067 . S
O10 C8 1.270 . S
C11 O4 1.262 . S
C11 O12 1.232 . S
O12 C11 1.232 . S
C13 O5 1.260 1_455 S
C13 O6 1.257 . S
Zn14 O17 2.031 1_455 S
Zn14 O19 2.049 . S
Zn14 O24 2.067 . S
Zn15 O16 1.960 1_455 S
Zn15 O18 1.987 . S
Zn15 O20 1.998 . S
Zn15 O23 1.943 1_455 S
O16 Zn15 1.960 1_655 S
O16 C21 1.254 . S
O17 Zn14 2.031 1_655 S
O17 C21 1.269 . S
O18 Zn15 1.987 . S
O18 C25 1.262 . S
O19 Zn14 2.049 . S
O19 C27 1.260 . S
O20 Zn15 1.998 . S
O20 C27 1.257 . S
C21 O16 1.254 . S
C21 O17 1.269 . S
C22 O23 1.249 . S
C22 O24 1.270 1_655 S
O23 Zn15 1.943 1_655 S
O23 C22 1.249 . S
O24 Zn14 2.067 . S
O24 C22 1.270 1_455 S
C25 O18 1.262 . S
C25 O26 1.232 1_455 S
O26 C25 1.232 1_655 S
C27 O19 1.260 . S
C27 O20 1.257 . S
Zn28 O31 2.031 . S
Zn28 O33 2.049 . S
Zn28 O38 2.067 . S
Zn29 O30 1.962 . S
Zn29 O32 1.986 . S
Zn29 O34 1.996 . S
Zn29 O37 1.943 . S
O30 Zn29 1.962 . S
O30 C35 1.254 . S
O31 Zn28 2.031 . S
O31 C35 1.269 . S
O32 Zn29 1.986 . S
O32 C39 1.262 . S
O33 Zn28 2.049 . S
O33 C41 1.260 . S
O34 Zn29 1.996 . S
O34 C41 1.257 . S
C35 O30 1.254 . S
C35 O31 1.269 . S
C36 O37 1.249 . S
C36 O38 1.270 . S
O37 Zn29 1.943 . S
O37 C36 1.249 . S
O38 Zn28 2.067 . S
O38 C36 1.270 . S
C39 O32 1.262 . S
C39 O40 1.232 . S
O40 C39 1.232 . S
C41 O33 1.260 . S
C41 O34 1.257 . S
Zn42 O45 2.031 . S
Zn42 O47 2.049 . S
Zn42 O52 2.067 . S
Zn43 O44 1.962 . S
Zn43 O46 1.986 . S
Zn43 O48 1.996 . S
Zn43 O51 1.943 . S
O44 Zn43 1.962 . S
O44 C49 1.254 . S
O45 Zn42 2.031 . S
O45 C49 1.269 . S
O46 Zn43 1.986 . S
O46 C53 1.262 . S
O47 Zn42 2.049 . S
O47 C55 1.260 . S
O48 Zn43 1.996 . S
O48 C55 1.257 . S
C49 O44 1.254 . S
C49 O45 1.269 . S
C50 O51 1.249 . S
C50 O52 1.270 . S
O51 Zn43 1.943 . S
O51 C50 1.249 . S
O52 Zn42 2.067 . S
O52 C50 1.270 . S
C53 O46 1.262 . S
C53 O54 1.232 . S
O54 C53 1.232 . S
C55 O47 1.260 . S
C55 O48 1.257 . S
Zn56 O59 2.031 . S
Zn56 O61 2.049 . S
Zn56 O66 2.067 . S
Zn57 O58 1.962 . S
Zn57 O60 1.986 . S
Zn57 O62 1.983 1_655 S
Zn57 O65 1.943 1_655 S
O58 Zn57 1.962 . S
O58 C63 1.254 1_655 S
O59 Zn56 2.031 . S
O59 C63 1.269 . S
O60 Zn57 1.986 . S
O60 C67 1.262 . S
O61 Zn56 2.049 . S
O61 C69 1.260 . S
O62 Zn57 1.983 1_455 S
O62 C69 1.282 . S
C63 O58 1.254 1_455 S
C63 O59 1.269 . S
C64 O65 1.249 . S
C64 O66 1.270 . S
O65 Zn57 1.943 1_455 S
O65 C64 1.249 . S
O66 Zn56 2.067 . S
O66 C64 1.270 . S
C67 O60 1.262 . S
C67 O68 1.232 . S
O68 C67 1.232 . S
C69 O61 1.260 . S
C69 O62 1.282 . S
Zn70 O73 2.031 . S
Zn70 O75 2.049 . S
Zn70 O80 2.067 . S
Zn71 O72 1.962 . S
Zn71 O74 1.986 . S
Zn71 O76 1.996 . S
Zn71 O79 1.943 . S
O72 Zn71 1.962 . S
O72 C77 1.254 . S
O73 Zn70 2.031 . S
O73 C77 1.269 . S
O74 Zn71 1.986 . S
O74 C81 1.262 . S
O75 Zn70 2.049 . S
O75 C83 1.260 . S
O76 Zn71 1.996 . S
O76 C83 1.257 . S
C77 O72 1.254 . S
C77 O73 1.269 . S
C78 O79 1.249 . S
C78 O80 1.270 . S
O79 Zn71 1.943 . S
O79 C78 1.249 . S
O80 Zn70 2.067 . S
O80 C78 1.270 . S
C81 O74 1.262 . S
C81 O82 1.232 . S
O82 C81 1.232 . S
C83 O75 1.260 . S
C83 O76 1.257 . S
Zn84 O87 2.031 . S
Zn84 O89 2.049 . S
Zn84 O94 2.067 . S
Zn85 O86 1.962 . S
Zn85 O88 1.986 . S
Zn85 O90 1.996 . S
Zn85 O93 1.943 . S
O86 Zn85 1.962 . S
O86 C91 1.254 . S
O87 Zn84 2.031 . S
O87 C91 1.269 . S
O88 Zn85 1.986 . S
O88 C95 1.262 . S
O89 Zn84 2.049 . S
O89 C97 1.260 . S
O90 Zn85 1.996 . S
O90 C97 1.257 . S
C91 O86 1.254 . S
C91 O87 1.269 . S
C92 O93 1.249 . S
C92 O94 1.270 . S
O93 Zn85 1.943 . S
O93 C92 1.249 . S
O94 Zn84 2.067 . S
O94 C92 1.270 . S
C95 O88 1.262 . S
C95 O96 1.232 . S
O96 C95 1.232 . S
C97 O89 1.260 . S
C97 O90 1.257 . S
Zn98 O101 2.031 . S
Zn98 O103 2.049 . S
Zn98 O108 2.067 . S
Zn99 O100 1.962 . S
Zn99 O102 1.986 . S
Zn99 O104 1.996 . S
Zn99 O107 1.943 1_455 S
O100 Zn99 1.962 . S
O100 C105 1.254 . S
O101 Zn98 2.031 . S
O101 C105 1.269 1_655 S
O102 Zn99 1.986 . S
O102 C109 1.262 . S
O103 Zn98 2.049 . S
O103 C111 1.260 . S
O104 Zn99 1.996 . S
O104 C111 1.257 1_455 S
C105 O100 1.254 . S
C105 O101 1.269 1_455 S
C106 O107 1.249 . S
C106 O108 1.270 . S
O107 Zn99 1.943 1_655 S
O107 C106 1.249 . S
O108 Zn98 2.067 . S
O108 C106 1.270 . S
C109 O102 1.262 . S
C109 O110 1.232 . S
O110 C109 1.232 . S
C111 O103 1.260 . S
C111 O104 1.257 1_655 S
Zn112 O115 2.031 . S
Zn112 O117 2.049 . S
Zn112 O122 2.067 1_545 S
Zn113 O114 1.962 . S
Zn113 O116 1.986 . S
Zn113 O118 1.996 . S
Zn113 O121 1.943 . S
O114 Zn113 1.962 . S
O114 C119 1.254 . S
O115 Zn112 2.031 . S
O115 C119 1.269 . S
O116 Zn113 1.986 . S
O116 C123 1.262 . S
O117 Zn112 2.049 . S
O117 C125 1.260 . S
O118 Zn113 1.996 . S
O118 C125 1.257 . S
C119 O114 1.254 . S
C119 O115 1.269 . S
C120 O121 1.249 . S
C120 O122 1.270 1_545 S
O121 Zn113 1.943 . S
O121 C120 1.249 . S
O122 Zn112 2.067 1_565 S
O122 C120 1.270 1_565 S
C123 O116 1.262 . S
C123 O124 1.232 . S
O124 C123 1.232 . S
C125 O117 1.260 . S
C125 O118 1.257 . S
Zn126 O129 2.031 . S
Zn126 O131 2.049 . S
Zn126 O136 2.067 . S
Zn127 O128 1.962 . S
Zn127 O130 1.986 . S
Zn127 O132 1.996 . S
Zn127 O135 1.943 . S
O128 Zn127 1.962 . S
O128 C133 1.254 . S
O129 Zn126 2.031 . S
O129 C133 1.269 . S
O130 Zn127 1.986 . S
O130 C137 1.262 . S
O131 Zn126 2.049 . S
O131 C139 1.260 . S
O132 Zn127 1.996 . S
O132 C139 1.257 . S
C133 O128 1.254 . S
C133 O129 1.269 . S
C134 O135 1.249 . S
C134 O136 1.270 . S
O135 Zn127 1.943 . S
O135 C134 1.249 . S
O136 Zn126 2.067 . S
O136 C134 1.270 . S
C137 O130 1.262 . S
C137 O138 1.232 . S
O138 C137 1.232 . S
C139 O131 1.260 . S
C139 O132 1.257 . S
Zn140 O143 2.031 . S
Zn140 O145 2.049 . S
Zn140 O150 2.067 . S
Zn141 O142 1.962 . S
Zn141 O144 1.986 . S
Zn141 O146 1.996 . S
Zn141 O149 1.943 1_565 S
O142 Zn141 1.962 . S
O142 C147 1.254 1_565 S
O143 Zn140 2.031 . S
O143 C147 1.269 . S
O144 Zn141 1.986 . S
O144 C151 1.262 . S
O145 Zn140 2.049 . S
O145 C153 1.260 . S
O146 Zn141 1.996 . S
O146 C153 1.257 1_565 S
C147 O142 1.254 1_545 S
C147 O143 1.269 . S
C148 O149 1.249 . S
C148 O150 1.270 . S
O149 Zn141 1.943 1_545 S
O149 C148 1.249 . S
O150 Zn140 2.067 . S
O150 C148 1.270 . S
C151 O144 1.262 . S
C151 O152 1.232 . S
O152 C151 1.232 . S
C153 O145 1.260 . S
C153 O146 1.257 1_545 S
Zn154 O157 1.997 1_554 S
Zn154 O159 2.049 . S
Zn154 O164 2.067 . S
Zn155 O156 1.962 1_554 S
Zn155 O158 1.986 . S
Zn155 O160 1.996 . S
Zn155 O163 1.943 . S
O156 Zn155 1.962 1_556 S
O156 C161 1.254 . S
O157 Zn154 1.997 1_556 S
O157 C161 1.284 . S
O158 Zn155 1.986 . S
O158 C165 1.262 . S
O159 Zn154 2.049 . S
O159 C167 1.260 . S
O160 Zn155 1.996 . S
O160 C167 1.257 . S
C161 O156 1.254 . S
C161 O157 1.284 . S
C162 O163 1.249 . S
C162 O164 1.270 . S
O163 Zn155 1.943 . S
O163 C162 1.249 . S
O164 Zn154 2.067 . S
O164 C162 1.270 . S
C165 O158 1.262 . S
C165 O166 1.232 . S
O166 C165 1.232 . S
C167 O159 1.260 . S
C167 O160 1.257 . S
Zn168 O171 2.031 1_554 S
Zn168 O173 2.049 . S
Zn168 O178 2.067 . S
Zn169 O170 1.962 1_554 S
Zn169 O172 1.986 . S
Zn169 O174 1.996 . S
Zn169 O177 1.943 . S
O170 Zn169 1.962 1_556 S
O170 C175 1.254 . S
O171 Zn168 2.031 1_556 S
O171 C175 1.269 . S
O172 Zn169 1.986 . S
O172 C179 1.262 . S
O173 Zn168 2.049 . S
O173 C181 1.260 . S
O174 Zn169 1.996 . S
O174 C181 1.257 . S
C175 O170 1.254 . S
C175 O171 1.269 . S
C176 O177 1.249 . S
C176 O178 1.270 . S
O177 Zn169 1.943 . S
O177 C176 1.249 . S
O178 Zn168 2.067 . S
O178 C176 1.270 . S
C179 O172 1.262 . S
C179 O180 1.232 . S
O180 C179 1.232 . S
C181 O173 1.260 . S
C181 O174 1.257 . S
Zn182 O185 2.031 1_554 S
Zn182 O187 2.049 . S
Zn182 O192 2.067 . S
Zn183 O184 1.962 1_554 S
Zn183 O186 1.986 . S
Zn183 O188 1.996 . S
Zn183 O191 1.942 . S
O184 Zn183 1.962 1_556 S
O184 C189 1.254 . S
O185 Zn182 2.031 1_556 S
O185 C189 1.269 . S
O186 Zn183 1.986 . S
O186 C193 1.262 . S
O187 Zn182 2.049 . S
O187 C195 1.260 . S
O188 Zn183 1.996 . S
O188 C195 1.257 . S
C189 O184 1.254 . S
C189 O185 1.269 . S
C190 O191 1.245 . S
C190 O192 1.287 . S
O191 Zn183 1.942 . S
O191 C190 1.245 . S
O192 Zn182 2.067 . S
O192 C190 1.287 . S
C193 O186 1.262 . S
C193 O194 1.232 1_554 S
O194 C193 1.232 1_556 S
C195 O187 1.260 . S
C195 O188 1.257 . S
Zn196 O199 2.031 . S
Zn196 O201 2.049 . S
Zn196 O206 2.067 . S
Zn197 O198 1.962 . S
Zn197 O200 1.986 . S
Zn197 O202 1.996 . S
Zn197 O205 1.943 . S
O198 Zn197 1.962 . S
O198 C203 1.254 . S
O199 Zn196 2.031 . S
O199 C203 1.269 . S
O200 Zn197 1.986 . S
O200 C207 1.262 . S
O201 Zn196 2.049 . S
O201 C209 1.260 . S
O202 Zn197 1.996 . S
O202 C209 1.257 . S
C203 O198 1.254 . S
C203 O199 1.269 . S
C204 O205 1.249 . S
C204 O206 1.270 . S
O205 Zn197 1.943 . S
O205 C204 1.249 . S
O206 Zn196 2.067 . S
O206 C204 1.270 . S
C207 O200 1.262 . S
C207 O208 1.232 . S
O208 C207 1.232 . S
C209 O201 1.260 . S
C209 O202 1.257 . S
Zn210 O213 2.031 . S
Zn210 O215 2.049 . S
Zn210 O220 2.067 . S
Zn211 O212 1.962 . S
Zn211 O214 1.986 . S
Zn211 O216 1.996 . S
Zn211 O219 1.943 . S
O212 Zn211 1.962 . S
O212 C217 1.254 . S
O213 Zn210 2.031 . S
O213 C217 1.269 . S
O214 Zn211 1.986 . S
O214 C221 1.262 . S
O215 Zn210 2.049 . S
O215 C223 1.260 . S
O216 Zn211 1.996 . S
O216 C223 1.257 . S
C217 O212 1.254 . S
C217 O213 1.269 . S
C218 O219 1.249 . S
C218 O220 1.270 . S
O219 Zn211 1.943 . S
O219 C218 1.249 . S
O220 Zn210 2.067 . S
O220 C218 1.270 . S
C221 O214 1.262 . S
C221 O222 1.232 . S
O222 C221 1.232 . S
C223 O215 1.260 . S
C223 O216 1.257 . S
Zn224 O227 2.031 . S
Zn224 O229 2.049 . S
Zn224 O234 2.067 . S
Zn225 O226 1.962 . S
Zn225 O228 1.986 . S
Zn225 O230 1.996 . S
Zn225 O233 1.943 . S
O226 Zn225 1.962 . S
O226 C231 1.254 . S
O227 Zn224 2.031 . S
O227 C231 1.269 . S
O228 Zn225 1.986 . S
O228 C235 1.262 . S
O229 Zn224 2.049 . S
O229 C237 1.260 . S
O230 Zn225 1.996 . S
O230 C237 1.257 . S
C231 O226 1.254 . S
C231 O227 1.269 . S
C232 O233 1.249 . S
C232 O234 1.270 . S
O233 Zn225 1.943 . S
O233 C232 1.249 . S
O234 Zn224 2.067 . S
O234 C232 1.270 . S
C235 O228 1.262 . S
C235 O236 1.232 . S
O236 C235 1.232 . S
C237 O229 1.260 . S
C237 O230 1.257 . S
Zn238 O241 2.031 . S
Zn238 O243 2.049 . S
Zn238 O248 2.067 . S
Zn239 O240 1.962 . S
Zn239 O242 1.986 . S
Zn239 O244 1.996 . S
Zn239 O247 1.943 . S
O240 Zn239 1.962 . S
O240 C245 1.254 . S
O241 Zn238 2.031 . S
O241 C245 1.269 . S
O242 Zn239 1.986 . S
O242 C249 1.262 . S
O243 Zn238 2.049 . S
O243 C251 1.260 . S
O244 Zn239 1.996 . S
O244 C251 1.257 . S
C245 O240 1.254 . S
C245 O241 1.269 . S
C246 O247 1.249 . S
C246 O248 1.270 . S
O247 Zn239 1.943 . S
O247 C246 1.249 . S
O248 Zn238 2.067 . S
O248 C246 1.270 . S
C249 O242 1.262 . S
C249 O250 1.232 . S
O250 C249 1.232 . S
C251 O243 1.260 . S
C251 O244 1.257 . S
Zn252 O255 2.031 . S
Zn252 O257 2.049 . S
Zn252 O262 2.067 . S
Zn253 O254 1.962 . S
Zn253 O256 1.986 . S
Zn253 O258 1.996 . S
Zn253 O261 1.943 . S
O254 Zn253 1.962 . S
O254 C259 1.254 . S
O255 Zn252 2.031 . S
O255 C259 1.269 . S
O256 Zn253 1.986 . S
O256 C263 1.262 . S
O257 Zn252 2.049 . S
O257 C265 1.260 . S
O258 Zn253 1.996 . S
O258 C265 1.257 . S
C259 O254 1.254 . S
C259 O255 1.269 . S
C260 O261 1.249 . S
C260 O262 1.270 . S
O261 Zn253 1.943 . S
O261 C260 1.249 . S
O262 Zn252 2.067 . S
O262 C260 1.270 . S
C263 O256 1.262 . S
C263 O264 1.232 . S
O264 C263 1.232 . S
C265 O257 1.260 . S
C265 O258 1.257 . S
Zn266 O269 2.031 . S
Zn266 O271 2.049 . S
Zn266 O276 2.067 . S
Zn267 O268 1.961 1_545 S
Zn267 O270 1.975 1_545 S
Zn267 O272 2.000 . S
Zn267 O275 1.953 . S
O268 Zn267 1.961 1_565 S
O268 C273 1.254 1_565 S
O269 Zn266 2.031 . S
O269 C273 1.269 . S
O270 Zn267 1.975 1_565 S
O270 C277 1.262 . S
O271 Zn266 2.049 . S
O271 C279 1.260 . S
O272 Zn267 2.000 . S
O272 C279 1.257 . S
C273 O268 1.254 1_545 S
C273 O269 1.269 . S
C274 O275 1.249 . S
C274 O276 1.270 . S
O275 Zn267 1.953 . S
O275 C274 1.249 . S
O276 Zn266 2.067 . S
O276 C274 1.270 . S
C277 O270 1.262 . S
C277 O278 1.232 . S
O278 C277 1.232 . S
C279 O271 1.260 . S
C279 O272 1.257 . S
Zn280 O283 2.031 1_554 S
Zn280 O285 2.049 . S
Zn280 O290 2.067 . S
Zn281 O282 1.946 1_554 S
Zn281 O284 1.994 . S
Zn281 O286 2.009 . S
Zn281 O289 1.945 1_554 S
O282 Zn281 1.946 1_556 S
O282 C287 1.254 . S
O283 Zn280 2.031 1_556 S
O283 C287 1.269 . S
O284 Zn281 1.994 . S
O284 C291 1.286 . S
O285 Zn280 2.049 . S
O285 C293 1.260 . S
O286 Zn281 2.009 . S
O286 C293 1.257 . S
C287 O282 1.254 . S
C287 O283 1.269 . S
C288 O289 1.252 . S
C288 O290 1.262 1_556 S
O289 Zn281 1.945 1_556 S
O289 C288 1.252 . S
O290 Zn280 2.067 . S
O290 C288 1.262 1_554 S
C291 O284 1.286 . S
C291 O292 1.205 1_554 S
O292 C291 1.205 1_556 S
C293 O285 1.260 . S
C293 O286 1.257 . S
Zn294 O297 2.031 . S
Zn294 O299 2.049 . S
Zn294 O304 2.067 . S
Zn295 O296 1.962 . S
Zn295 O298 1.986 . S
Zn295 O300 1.996 . S
Zn295 O303 1.943 . S
O296 Zn295 1.962 . S
O296 C301 1.254 . S
O297 Zn294 2.031 . S
O297 C301 1.269 . S
O298 Zn295 1.986 . S
O298 C305 1.262 . S
O299 Zn294 2.049 . S
O299 C307 1.260 . S
O300 Zn295 1.996 . S
O300 C307 1.257 . S
C301 O296 1.254 . S
C301 O297 1.269 . S
C302 O303 1.249 . S
C302 O304 1.270 . S
O303 Zn295 1.943 . S
O303 C302 1.249 . S
O304 Zn294 2.067 . S
O304 C302 1.270 . S
C305 O298 1.262 . S
C305 O306 1.232 . S
O306 C305 1.232 . S
C307 O299 1.260 . S
C307 O300 1.257 . S
Zn308 O311 2.031 . S
Zn308 O313 2.049 . S
Zn308 O318 2.067 . S
Zn309 O310 1.962 . S
Zn309 O312 1.986 . S
Zn309 O314 1.996 . S
Zn309 O317 1.943 . S
O310 Zn309 1.962 . S
O310 C315 1.254 . S
O311 Zn308 2.031 . S
O311 C315 1.269 . S
O312 Zn309 1.986 . S
O312 C319 1.262 . S
O313 Zn308 2.049 . S
O313 C321 1.260 . S
O314 Zn309 1.996 . S
O314 C321 1.257 . S
C315 O310 1.254 . S
C315 O311 1.269 . S
C316 O317 1.249 . S
C316 O318 1.270 . S
O317 Zn309 1.943 . S
O317 C316 1.249 . S
O318 Zn308 2.067 . S
O318 C316 1.270 . S
C319 O312 1.262 . S
C319 O320 1.232 . S
O320 C319 1.232 . S
C321 O313 1.260 . S
C321 O314 1.257 . S
Zn322 O325 2.031 . S
Zn322 O327 2.049 . S
Zn322 O332 2.067 . S
Zn323 O324 1.962 . S
Zn323 O326 1.986 . S
Zn323 O328 1.996 . S
Zn323 O331 1.943 . S
O324 Zn323 1.962 . S
O324 C329 1.254 . S
O325 Zn322 2.031 . S
O325 C329 1.269 . S
O326 Zn323 1.986 . S
O326 C333 1.262 . S
O327 Zn322 2.049 . S
O327 C335 1.260 . S
O328 Zn323 1.996 . S
O328 C335 1.257 . S
C329 O324 1.254 . S
C329 O325 1.269 . S
C330 O331 1.249 . S
C330 O332 1.270 . S
O331 Zn323 1.943 . S
O331 C330 1.249 . S
O332 Zn322 2.067 . S
O332 C330 1.270 . S
C333 O326 1.262 . S
C333 O334 1.232 . S
O334 C333 1.232 . S
C335 O327 1.260 . S
C335 O328 1.257 . S
Tb336 O339 2.453 . S
Tb336 O340 2.596 . S
Tb336 O341 2.374 1_554 S
Tb336 O349 2.343 1_455 S
Tb336 O351 2.353 . S
Tb336 O353 2.427 . S
Tb336 O354 2.513 1_554 S
C337 O341 1.251 . S
C337 O343 1.263 . S
Tb338 O340 2.343 1_655 S
Tb338 O343 2.353 1_654 S
Tb338 O346 2.427 1_645 S
Tb338 O347 2.513 1_645 S
Tb338 O348 2.443 1_554 S
Tb338 O349 2.596 . S
Tb338 O350 2.374 . S
O339 Tb336 2.453 . S
O339 C355 1.245 . S
O340 Tb336 2.596 . S
O340 Tb338 2.343 1_455 S
O340 C355 1.259 . S
O341 Tb336 2.374 1_556 S
O341 C337 1.251 . S
C342 O346 1.275 . S
C342 O347 1.246 . S
O343 C337 1.263 . S
O343 Tb338 2.353 1_456 S
C344 O348 1.242 1_554 S
C344 O349 1.259 . S
C345 O350 1.250 1_455 S
C345 O351 1.263 . S
O346 Tb338 2.427 1_465 S
O346 C342 1.275 . S
O347 Tb338 2.513 1_465 S
O347 C342 1.246 . S
O348 Tb338 2.443 1_556 S
O348 C344 1.242 1_556 S
O349 Tb336 2.343 1_655 S
O349 Tb338 2.596 . S
O349 C344 1.259 . S
O350 Tb338 2.374 . S
O350 C345 1.250 1_655 S
O351 Tb336 2.353 . S
O351 C345 1.263 . S
C352 O353 1.275 . S
C352 O354 1.246 1_554 S
O353 Tb336 2.427 . S
O353 C352 1.275 . S
O354 Tb336 2.513 1_556 S
O354 C352 1.246 1_556 S
C355 O339 1.245 . S
C355 O340 1.259 . S
Tb356 O359 2.453 . S
Tb356 O360 2.596 . S
Tb356 O361 2.374 . S
Tb356 O369 2.343 . S
Tb356 O371 2.353 . S
Tb356 O373 2.427 . S
Tb356 O374 2.513 . S
C357 O361 1.251 . S
C357 O363 1.263 . S
Tb358 O360 2.343 . S
Tb358 O363 2.353 . S
Tb358 O366 2.427 . S
Tb358 O367 2.513 . S
Tb358 O368 2.453 . S
Tb358 O369 2.596 . S
Tb358 O370 2.374 . S
O359 Tb356 2.453 . S
O359 C375 1.245 . S
O360 Tb356 2.596 . S
O360 Tb358 2.343 . S
O360 C375 1.259 . S
O361 Tb356 2.374 . S
O361 C357 1.251 . S
C362 O366 1.275 . S
C362 O367 1.246 . S
O363 C357 1.263 . S
O363 Tb358 2.353 . S
C364 O368 1.245 . S
C364 O369 1.259 . S
C365 O370 1.250 . S
C365 O371 1.263 . S
O366 Tb358 2.427 . S
O366 C362 1.275 . S
O367 Tb358 2.513 . S
O367 C362 1.246 . S
O368 Tb358 2.453 . S
O368 C364 1.245 . S
O369 Tb356 2.343 . S
O369 Tb358 2.596 . S
O369 C364 1.259 . S
O370 Tb358 2.374 . S
O370 C365 1.250 . S
O371 Tb356 2.353 . S
O371 C365 1.263 . S
C372 O373 1.275 . S
C372 O374 1.246 . S
O373 Tb356 2.427 . S
O373 C372 1.275 . S
O374 Tb356 2.513 . S
O374 C372 1.246 . S
C375 O359 1.245 . S
C375 O360 1.259 . S
Tb376 O379 2.453 . S
Tb376 O380 2.596 . S
Tb376 O381 2.374 . S
Tb376 O389 2.369 . S
Tb376 O391 2.353 . S
Tb376 O393 2.427 . S
Tb376 O394 2.513 . S
C377 O381 1.251 . S
C377 O383 1.263 . S
Tb378 O380 2.343 . S
Tb378 O383 2.353 . S
Tb378 O386 2.427 . S
Tb378 O387 2.513 . S
Tb378 O388 2.453 1_545 S
Tb378 O389 2.614 . S
Tb378 O390 2.374 . S
O379 Tb376 2.453 . S
O379 C395 1.245 . S
O380 Tb376 2.596 . S
O380 Tb378 2.343 . S
O380 C395 1.259 . S
O381 Tb376 2.374 . S
O381 C377 1.251 . S
C382 O386 1.275 . S
C382 O387 1.246 . S
O383 C377 1.263 . S
O383 Tb378 2.353 . S
C384 O388 1.245 . S
C384 O389 1.228 1_565 S
C385 O390 1.250 . S
C385 O391 1.263 . S
O386 Tb378 2.427 . S
O386 C382 1.275 . S
O387 Tb378 2.513 . S
O387 C382 1.246 . S
O388 Tb378 2.453 1_565 S
O388 C384 1.245 . S
O389 Tb376 2.369 . S
O389 Tb378 2.614 . S
O389 C384 1.228 1_545 S
O390 Tb378 2.374 . S
O390 C385 1.250 . S
O391 Tb376 2.353 . S
O391 C385 1.263 . S
C392 O393 1.264 1_565 S
C392 O394 1.245 1_565 S
O393 Tb376 2.427 . S
O393 C392 1.264 1_545 S
O394 Tb376 2.513 . S
O394 C392 1.245 1_545 S
C395 O379 1.245 . S
C395 O380 1.259 . S
Tb396 O399 2.453 . S
Tb396 O400 2.596 . S
Tb396 O401 2.374 . S
Tb396 O409 2.343 . S
Tb396 O411 2.353 . S
Tb396 O413 2.427 . S
Tb396 O414 2.513 . S
C397 O401 1.251 . S
C397 O403 1.263 . S
Tb398 O400 2.343 . S
Tb398 O403 2.353 . S
Tb398 O406 2.427 . S
Tb398 O407 2.513 . S
Tb398 O408 2.453 . S
Tb398 O409 2.596 . S
Tb398 O410 2.374 . S
O399 Tb396 2.453 . S
O399 C415 1.245 . S
O400 Tb396 2.596 . S
O400 Tb398 2.343 . S
O400 C415 1.259 . S
O401 Tb396 2.374 . S
O401 C397 1.251 . S
C402 O406 1.275 . S
C402 O407 1.246 . S
O403 C397 1.263 . S
O403 Tb398 2.353 . S
C404 O408 1.245 . S
C404 O409 1.259 . S
C405 O410 1.250 . S
C405 O411 1.263 . S
O406 Tb398 2.427 . S
O406 C402 1.275 . S
O407 Tb398 2.513 . S
O407 C402 1.246 . S
O408 Tb398 2.453 . S
O408 C404 1.245 . S
O409 Tb396 2.343 . S
O409 Tb398 2.596 . S
O409 C404 1.259 . S
O410 Tb398 2.374 . S
O410 C405 1.250 . S
O411 Tb396 2.353 . S
O411 C405 1.263 . S
C412 O413 1.275 . S
C412 O414 1.246 . S
O413 Tb396 2.427 . S
O413 C412 1.275 . S
O414 Tb396 2.513 . S
O414 C412 1.246 . S
C415 O399 1.245 . S
C415 O400 1.259 . S
Tb416 O419 2.453 1_545 S
Tb416 O420 2.596 . S
Tb416 O421 2.374 1_455 S
Tb416 O429 2.343 . S
Tb416 O431 2.353 . S
Tb416 O433 2.427 . S
Tb416 O434 2.513 1_455 S
C417 O421 1.251 . S
C417 O423 1.263 . S
Tb418 O420 2.343 . S
Tb418 O423 2.353 1_455 S
Tb418 O426 2.427 . S
Tb418 O427 2.513 . S
Tb418 O428 2.453 . S
Tb418 O429 2.596 . S
Tb418 O430 2.374 . S
O419 Tb416 2.453 1_565 S
O419 C435 1.245 . S
O420 Tb416 2.596 . S
O420 Tb418 2.343 . S
O420 C435 1.259 1_545 S
O421 Tb416 2.374 1_655 S
O421 C417 1.251 . S
C422 O426 1.275 . S
C422 O427 1.246 . S
O423 C417 1.263 . S
O423 Tb418 2.353 1_655 S
C424 O428 1.245 . S
C424 O429 1.259 . S
C425 O430 1.250 . S
C425 O431 1.263 . S
O426 Tb418 2.427 . S
O426 C422 1.275 . S
O427 Tb418 2.513 . S
O427 C422 1.246 . S
O428 Tb418 2.453 . S
O428 C424 1.245 . S
O429 Tb416 2.343 . S
O429 Tb418 2.596 . S
O429 C424 1.259 . S
O430 Tb418 2.374 . S
O430 C425 1.250 . S
O431 Tb416 2.353 . S
O431 C425 1.263 . S
C432 O433 1.275 1_655 S
C432 O434 1.246 . S
O433 Tb416 2.427 . S
O433 C432 1.275 1_455 S
O434 Tb416 2.513 1_655 S
O434 C432 1.246 . S
C435 O419 1.245 . S
C435 O420 1.259 1_565 S
Tb436 O439 2.453 . S
Tb436 O440 2.596 . S
Tb436 O441 2.374 . S
Tb436 O449 2.343 . S
Tb436 O451 2.353 . S
Tb436 O453 2.427 . S
Tb436 O454 2.513 . S
C437 O441 1.251 . S
C437 O443 1.263 . S
Tb438 O440 2.343 . S
Tb438 O443 2.353 . S
Tb438 O446 2.427 . S
Tb438 O447 2.513 . S
Tb438 O448 2.453 . S
Tb438 O449 2.596 . S
Tb438 O450 2.374 . S
O439 Tb436 2.453 . S
O439 C455 1.245 . S
O440 Tb436 2.596 . S
O440 Tb438 2.343 . S
O440 C455 1.259 . S
O441 Tb436 2.374 . S
O441 C437 1.251 . S
C442 O446 1.275 . S
C442 O447 1.246 . S
O443 C437 1.263 . S
O443 Tb438 2.353 . S
C444 O448 1.245 . S
C444 O449 1.259 . S
C445 O450 1.250 . S
C445 O451 1.263 . S
O446 Tb438 2.427 . S
O446 C442 1.275 . S
O447 Tb438 2.513 . S
O447 C442 1.246 . S
O448 Tb438 2.453 . S
O448 C444 1.245 . S
O449 Tb436 2.343 . S
O449 Tb438 2.596 . S
O449 C444 1.259 . S
O450 Tb438 2.374 . S
O450 C445 1.250 . S
O451 Tb436 2.353 . S
O451 C445 1.263 . S
C452 O453 1.275 . S
C452 O454 1.246 . S
O453 Tb436 2.427 . S
O453 C452 1.275 . S
O454 Tb436 2.513 . S
O454 C452 1.246 . S
C455 O439 1.245 . S
C455 O440 1.259 . S
Tb456 O459 2.453 . S
Tb456 O460 2.596 . S
Tb456 O461 2.374 1_545 S
Tb456 O469 2.343 1_556 S
Tb456 O471 2.353 1_556 S
Tb456 O473 2.427 1_556 S
Tb456 O474 2.513 1_546 S
C457 O461 1.251 . S
C457 O463 1.263 1_556 S
Tb458 O460 2.343 1_554 S
Tb458 O463 2.353 1_545 S
Tb458 O466 2.427 . S
Tb458 O467 2.513 . S
Tb458 O468 2.453 . S
Tb458 O469 2.596 . S
Tb458 O470 2.374 . S
O459 Tb456 2.453 . S
O459 C475 1.245 . S
O460 Tb456 2.596 . S
O460 Tb458 2.343 1_556 S
O460 C475 1.259 . S
O461 Tb456 2.374 1_565 S
O461 C457 1.251 . S
C462 O466 1.275 . S
C462 O467 1.246 . S
O463 C457 1.263 1_554 S
O463 Tb458 2.353 1_565 S
C464 O468 1.245 . S
C464 O469 1.259 . S
C465 O470 1.250 . S
C465 O471 1.263 . S
O466 Tb458 2.427 . S
O466 C462 1.275 . S
O467 Tb458 2.513 . S
O467 C462 1.246 . S
O468 Tb458 2.453 . S
O468 C464 1.245 . S
O469 Tb456 2.343 1_554 S
O469 Tb458 2.596 . S
O469 C464 1.259 . S
O470 Tb458 2.374 . S
O470 C465 1.250 . S
O471 Tb456 2.353 1_554 S
O471 C465 1.263 . S
C472 O473 1.275 . S
C472 O474 1.246 1_545 S
O473 Tb456 2.427 1_554 S
O473 C472 1.275 . S
O474 Tb456 2.513 1_564 S
O474 C472 1.246 1_565 S
C475 O459 1.245 . S
C475 O460 1.259 . S
Tb476 O479 2.453 . S
Tb476 O480 2.596 . S
Tb476 O481 2.374 . S
Tb476 O489 2.343 . S
Tb476 O491 2.353 . S
Tb476 O493 2.427 . S
Tb476 O494 2.513 . S
C477 O481 1.251 . S
C477 O483 1.263 . S
Tb478 O480 2.343 . S
Tb478 O483 2.353 . S
Tb478 O486 2.427 . S
Tb478 O487 2.513 . S
Tb478 O488 2.453 . S
Tb478 O489 2.596 . S
Tb478 O490 2.374 . S
O479 Tb476 2.453 . S
O479 C495 1.245 . S
O480 Tb476 2.596 . S
O480 Tb478 2.343 . S
O480 C495 1.259 . S
O481 Tb476 2.374 . S
O481 C477 1.251 . S
C482 O486 1.275 . S
C482 O487 1.246 . S
O483 C477 1.263 . S
O483 Tb478 2.353 . S
C484 O488 1.245 . S
C484 O489 1.259 . S
C485 O490 1.250 . S
C485 O491 1.263 . S
O486 Tb478 2.427 . S
O486 C482 1.275 . S
O487 Tb478 2.513 . S
O487 C482 1.246 . S
O488 Tb478 2.453 . S
O488 C484 1.245 . S
O489 Tb476 2.343 . S
O489 Tb478 2.596 . S
O489 C484 1.259 . S
O490 Tb478 2.374 . S
O490 C485 1.250 . S
O491 Tb476 2.353 . S
O491 C485 1.263 . S
C492 O493 1.275 . S
C492 O494 1.246 . S
O493 Tb476 2.427 . S
O493 C492 1.275 . S
O494 Tb476 2.513 . S
O494 C492 1.246 . S
C495 O479 1.245 . S
C495 O480 1.259 . S
Tb496 O499 2.453 1_556 S
Tb496 O500 2.596 1_556 S
Tb496 O501 2.374 . S
Tb496 O509 2.343 . S
Tb496 O511 2.353 . S
Tb496 O513 2.427 . S
Tb496 O514 2.513 . S
C497 O501 1.251 1_554 S
C497 O503 1.263 . S
Tb498 O500 2.343 . S
Tb498 O503 2.353 . S
Tb498 O506 2.427 . S
Tb498 O507 2.513 . S
Tb498 O508 2.453 . S
Tb498 O509 2.596 1_554 S
Tb498 O510 2.374 . S
O499 Tb496 2.453 1_554 S
O499 C515 1.245 . S
O500 Tb496 2.596 1_554 S
O500 Tb498 2.343 . S
O500 C515 1.259 . S
O501 Tb496 2.374 . S
O501 C497 1.251 1_556 S
C502 O506 1.275 . S
C502 O507 1.246 . S
O503 C497 1.263 . S
O503 Tb498 2.353 . S
C504 O508 1.245 1_556 S
C504 O509 1.259 . S
C505 O510 1.250 . S
C505 O511 1.263 1_554 S
O506 Tb498 2.427 . S
O506 C502 1.275 . S
O507 Tb498 2.513 . S
O507 C502 1.246 . S
O508 Tb498 2.453 . S
O508 C504 1.245 1_554 S
O509 Tb496 2.343 . S
O509 Tb498 2.596 1_556 S
O509 C504 1.259 . S
O510 Tb498 2.374 . S
O510 C505 1.250 . S
O511 Tb496 2.353 . S
O511 C505 1.263 1_556 S
C512 O513 1.275 . S
C512 O514 1.246 . S
O513 Tb496 2.427 . S
O513 C512 1.275 . S
O514 Tb496 2.513 . S
O514 C512 1.246 . S
C515 O499 1.245 . S
C515 O500 1.259 . S
Tb516 O519 2.453 . S
Tb516 O520 2.596 . S
Tb516 O521 2.374 . S
Tb516 O529 2.343 . S
Tb516 O531 2.353 . S
Tb516 O533 2.427 . S
Tb516 O534 2.513 . S
C517 O521 1.251 . S
C517 O523 1.263 . S
Tb518 O520 2.343 . S
Tb518 O523 2.353 . S
Tb518 O526 2.427 . S
Tb518 O527 2.513 . S
Tb518 O528 2.453 . S
Tb518 O529 2.596 . S
Tb518 O530 2.374 . S
O519 Tb516 2.453 . S
O519 C535 1.245 . S
O520 Tb516 2.596 . S
O520 Tb518 2.343 . S
O520 C535 1.259 . S
O521 Tb516 2.374 . S
O521 C517 1.251 . S
C522 O526 1.275 . S
C522 O527 1.246 . S
O523 C517 1.263 . S
O523 Tb518 2.353 . S
C524 O528 1.245 . S
C524 O529 1.259 . S
C525 O530 1.250 . S
C525 O531 1.263 . S
O526 Tb518 2.427 . S
O526 C522 1.275 . S
O527 Tb518 2.513 . S
O527 C522 1.246 . S
O528 Tb518 2.453 . S
O528 C524 1.245 . S
O529 Tb516 2.343 . S
O529 Tb518 2.596 . S
O529 C524 1.259 . S
O530 Tb518 2.374 . S
O530 C525 1.250 . S
O531 Tb516 2.353 . S
O531 C525 1.263 . S
C532 O533 1.275 . S
C532 O534 1.246 . S
O533 Tb516 2.427 . S
O533 C532 1.275 . S
O534 Tb516 2.513 . S
O534 C532 1.246 . S
C535 O519 1.245 . S
C535 O520 1.259 . S
Tb536 O539 2.453 . S
Tb536 O540 2.596 1_655 S
Tb536 O541 2.374 . S
Tb536 O549 2.343 . S
Tb536 O551 2.353 . S
Tb536 O553 2.427 . S
Tb536 O554 2.513 . S
C537 O541 1.251 1_455 S
C537 O543 1.263 . S
Tb538 O540 2.343 . S
Tb538 O543 2.353 . S
Tb538 O546 2.427 . S
Tb538 O547 2.513 . S
Tb538 O548 2.453 . S
Tb538 O549 2.596 1_455 S
Tb538 O550 2.374 . S
O539 Tb536 2.453 . S
O539 C555 1.245 1_655 S
O540 Tb536 2.596 1_455 S
O540 Tb538 2.343 . S
O540 C555 1.259 . S
O541 Tb536 2.374 . S
O541 C537 1.251 1_655 S
C542 O546 1.275 . S
C542 O547 1.246 . S
O543 C537 1.263 . S
O543 Tb538 2.353 . S
C544 O548 1.245 1_655 S
C544 O549 1.259 . S
C545 O550 1.219 1_655 S
C545 O551 1.280 . S
O546 Tb538 2.427 . S
O546 C542 1.275 . S
O547 Tb538 2.513 . S
O547 C542 1.246 . S
O548 Tb538 2.453 . S
O548 C544 1.245 1_455 S
O549 Tb536 2.343 . S
O549 Tb538 2.596 1_655 S
O549 C544 1.259 . S
O550 Tb538 2.374 . S
O550 C545 1.219 1_455 S
O551 Tb536 2.353 . S
O551 C545 1.280 . S
C552 O553 1.275 . S
C552 O554 1.246 . S
O553 Tb536 2.427 . S
O553 C552 1.275 . S
O554 Tb536 2.513 . S
O554 C552 1.246 . S
C555 O539 1.245 1_455 S
C555 O540 1.259 . S
Tb556 O559 2.453 . S
Tb556 O560 2.596 . S
Tb556 O561 2.374 . S
Tb556 O569 2.343 . S
Tb556 O571 2.353 . S
Tb556 O573 2.427 . S
Tb556 O574 2.513 . S
C557 O561 1.251 . S
C557 O563 1.263 . S
Tb558 O560 2.343 . S
Tb558 O563 2.353 . S
Tb558 O566 2.427 . S
Tb558 O567 2.513 . S
Tb558 O568 2.453 . S
Tb558 O569 2.596 . S
Tb558 O570 2.374 . S
O559 Tb556 2.453 . S
O559 C575 1.245 . S
O560 Tb556 2.596 . S
O560 Tb558 2.343 . S
O560 C575 1.259 . S
O561 Tb556 2.374 . S
O561 C557 1.251 . S
C562 O566 1.275 . S
C562 O567 1.246 . S
O563 C557 1.263 . S
O563 Tb558 2.353 . S
C564 O568 1.245 . S
C564 O569 1.259 . S
C565 O570 1.250 . S
C565 O571 1.263 . S
O566 Tb558 2.427 . S
O566 C562 1.275 . S
O567 Tb558 2.513 . S
O567 C562 1.246 . S
O568 Tb558 2.453 . S
O568 C564 1.245 . S
O569 Tb556 2.343 . S
O569 Tb558 2.596 . S
O569 C564 1.259 . S
O570 Tb558 2.374 . S
O570 C565 1.250 . S
O571 Tb556 2.353 . S
O571 C565 1.263 . S
C572 O573 1.275 . S
C572 O574 1.246 . S
O573 Tb556 2.427 . S
O573 C572 1.275 . S
O574 Tb556 2.513 . S
O574 C572 1.246 . S
C575 O559 1.245 . S
C575 O560 1.259 . S
Tb576 O579 2.453 . S
Tb576 O580 2.596 . S
Tb576 O581 2.374 . S
Tb576 O589 2.343 . S
Tb576 O591 2.353 . S
Tb576 O593 2.427 . S
Tb576 O594 2.513 . S
C577 O581 1.251 . S
C577 O583 1.263 . S
Tb578 O580 2.343 . S
Tb578 O583 2.353 . S
Tb578 O586 2.427 . S
Tb578 O587 2.513 . S
Tb578 O588 2.453 . S
Tb578 O589 2.596 . S
Tb578 O590 2.374 . S
O579 Tb576 2.453 . S
O579 C595 1.245 . S
O580 Tb576 2.596 . S
O580 Tb578 2.343 . S
O580 C595 1.259 . S
O581 Tb576 2.374 . S
O581 C577 1.251 . S
C582 O586 1.275 . S
C582 O587 1.246 . S
O583 C577 1.263 . S
O583 Tb578 2.353 . S
C584 O588 1.245 . S
C584 O589 1.259 . S
C585 O590 1.250 . S
C585 O591 1.263 . S
O586 Tb578 2.427 . S
O586 C582 1.275 . S
O587 Tb578 2.513 . S
O587 C582 1.246 . S
O588 Tb578 2.453 . S
O588 C584 1.245 . S
O589 Tb576 2.343 . S
O589 Tb578 2.596 . S
O589 C584 1.259 . S
O590 Tb578 2.374 . S
O590 C585 1.250 . S
O591 Tb576 2.353 . S
O591 C585 1.263 . S
C592 O593 1.275 . S
C592 O594 1.246 . S
O593 Tb576 2.427 . S
O593 C592 1.275 . S
O594 Tb576 2.513 . S
O594 C592 1.246 . S
C595 O579 1.245 . S
C595 O580 1.259 . S
Tb596 O599 2.453 . S
Tb596 O600 2.596 . S
Tb596 O601 2.374 . S
Tb596 O609 2.343 . S
Tb596 O611 2.353 . S
Tb596 O613 2.427 . S
Tb596 O614 2.513 . S
C597 O601 1.251 . S
C597 O603 1.263 . S
Tb598 O600 2.343 . S
Tb598 O603 2.353 . S
Tb598 O606 2.427 . S
Tb598 O607 2.513 . S
Tb598 O608 2.453 . S
Tb598 O609 2.596 . S
Tb598 O610 2.374 . S
O599 Tb596 2.453 . S
O599 C615 1.245 . S
O600 Tb596 2.596 . S
O600 Tb598 2.343 . S
O600 C615 1.259 . S
O601 Tb596 2.374 . S
O601 C597 1.251 . S
C602 O606 1.275 . S
C602 O607 1.246 . S
O603 C597 1.263 . S
O603 Tb598 2.353 . S
C604 O608 1.245 . S
C604 O609 1.259 . S
C605 O610 1.250 . S
C605 O611 1.263 . S
O606 Tb598 2.427 . S
O606 C602 1.275 . S
O607 Tb598 2.513 . S
O607 C602 1.246 . S
O608 Tb598 2.453 . S
O608 C604 1.245 . S
O609 Tb596 2.343 . S
O609 Tb598 2.596 . S
O609 C604 1.259 . S
O610 Tb598 2.374 . S
O610 C605 1.250 . S
O611 Tb596 2.353 . S
O611 C605 1.263 . S
C612 O613 1.275 . S
C612 O614 1.246 . S
O613 Tb596 2.427 . S
O613 C612 1.275 . S
O614 Tb596 2.513 . S
O614 C612 1.246 . S
C615 O599 1.245 . S
C615 O600 1.259 . S
Tb616 O619 2.453 . S
Tb616 O620 2.596 . S
Tb616 O621 2.374 . S
Tb616 O629 2.343 . S
Tb616 O631 2.353 . S
Tb616 O633 2.427 . S
Tb616 O634 2.513 . S
C617 O621 1.251 . S
C617 O623 1.263 . S
Tb618 O620 2.343 . S
Tb618 O623 2.353 . S
Tb618 O626 2.427 . S
Tb618 O627 2.513 . S
Tb618 O628 2.453 . S
Tb618 O629 2.596 . S
Tb618 O630 2.374 . S
O619 Tb616 2.453 . S
O619 C635 1.245 . S
O620 Tb616 2.596 . S
O620 Tb618 2.343 . S
O620 C635 1.259 . S
O621 Tb616 2.374 . S
O621 C617 1.251 . S
C622 O626 1.275 . S
C622 O627 1.246 . S
O623 C617 1.263 . S
O623 Tb618 2.353 . S
C624 O628 1.245 . S
C624 O629 1.259 . S
C625 O630 1.250 . S
C625 O631 1.263 . S
O626 Tb618 2.427 . S
O626 C622 1.275 . S
O627 Tb618 2.513 . S
O627 C622 1.246 . S
O628 Tb618 2.453 . S
O628 C624 1.245 . S
O629 Tb616 2.343 . S
O629 Tb618 2.596 . S
O629 C624 1.259 . S
O630 Tb618 2.374 . S
O630 C625 1.250 . S
O631 Tb616 2.353 . S
O631 C625 1.263 . S
C632 O633 1.275 . S
C632 O634 1.246 . S
O633 Tb616 2.427 . S
O633 C632 1.275 . S
O634 Tb616 2.513 . S
O634 C632 1.246 . S
C635 O619 1.245 . S
C635 O620 1.259 . S
Tb636 O639 2.453 . S
Tb636 O640 2.599 1_455 S
Tb636 O641 2.374 . S
Tb636 O649 2.343 . S
Tb636 O651 2.353 1_554 S
Tb636 O653 2.427 1_554 S
Tb636 O654 2.513 . S
C637 O641 1.251 . S
C637 O643 1.263 1_455 S
Tb638 O640 2.341 . S
Tb638 O643 2.353 . S
Tb638 O646 2.427 . S
Tb638 O647 2.513 . S
Tb638 O648 2.453 . S
Tb638 O649 2.596 1_655 S
Tb638 O650 2.374 1_554 S
O639 Tb636 2.453 . S
O639 C655 1.245 . S
O640 Tb636 2.599 1_655 S
O640 Tb638 2.341 . S
O640 C655 1.261 1_655 S
O641 Tb636 2.374 . S
O641 C637 1.251 . S
C642 O646 1.275 . S
C642 O647 1.246 . S
O643 C637 1.263 1_655 S
O643 Tb638 2.353 . S
C644 O648 1.245 1_556 S
C644 O649 1.259 1_656 S
C645 O650 1.250 . S
C645 O651 1.263 1_655 S
O646 Tb638 2.427 . S
O646 C642 1.275 . S
O647 Tb638 2.513 . S
O647 C642 1.246 . S
O648 Tb638 2.453 . S
O648 C644 1.245 1_554 S
O649 Tb636 2.343 . S
O649 Tb638 2.596 1_455 S
O649 C644 1.259 1_454 S
O650 Tb638 2.374 1_556 S
O650 C645 1.250 . S
O651 Tb636 2.353 1_556 S
O651 C645 1.263 1_455 S
C652 O653 1.298 . S
C652 O654 1.214 1_556 S
O653 Tb636 2.427 1_556 S
O653 C652 1.298 . S
O654 Tb636 2.513 . S
O654 C652 1.214 1_554 S
C655 O639 1.245 . S
C655 O640 1.261 1_455 S
H656 C662 0.930 . S
H657 C666 0.930 . S
H658 C671 0.929 . S
H659 C669 0.929 . S
H660 C664 0.929 . S
H661 C670 0.929 . S
C662 H656 0.930 . S
C662 C663 1.367 1_655 S
C662 C670 1.378 . S
C663 C662 1.367 1_455 S
C663 C671 1.433 . S
C664 H660 0.929 . S
C664 C666 1.378 . S
C664 C668 1.350 . S
C665 C668 1.463 . S
C665 C670 1.350 1_455 S
C665 N673 1.427 . S
C666 H657 0.930 . S
C666 C664 1.378 . S
C666 C667 1.367 . S
C667 C666 1.367 . S
C667 C669 1.433 1_455 S
C668 C664 1.350 . S
C668 C665 1.463 . S
C668 N672 1.427 1_455 S
C669 H659 0.929 . S
C669 C667 1.433 1_655 S
C669 N672 1.384 . S
C670 H661 0.929 . S
C670 C662 1.378 . S
C670 C665 1.350 1_655 S
C671 H658 0.929 . S
C671 C663 1.433 . S
C671 N673 1.384 . S
N672 C668 1.427 1_655 S
N672 C669 1.384 . S
N673 C665 1.427 . S
N673 C671 1.384 . S
H674 C680 0.930 . S
H675 C684 0.930 . S
H676 C689 0.929 . S
H677 C687 0.929 . S
H678 C682 0.929 . S
H679 C688 0.929 . S
C680 H674 0.930 . S
C680 C681 1.367 . S
C680 C688 1.378 . S
C681 C680 1.367 . S
C681 C689 1.433 . S
C682 H678 0.929 . S
C682 C684 1.378 . S
C682 C686 1.350 . S
C683 C686 1.463 . S
C683 C688 1.350 . S
C683 N691 1.427 . S
C684 H675 0.930 . S
C684 C682 1.378 . S
C684 C685 1.367 . S
C685 C684 1.367 . S
C685 C687 1.433 . S
C686 C682 1.350 . S
C686 C683 1.463 . S
C686 N690 1.427 . S
C687 H677 0.929 . S
C687 C685 1.433 . S
C687 N690 1.384 . S
C688 H679 0.929 . S
C688 C680 1.378 . S
C688 C683 1.350 . S
C689 H676 0.929 . S
C689 C681 1.433 . S
C689 N691 1.384 . S
N690 C686 1.427 . S
N690 C687 1.384 . S
N691 C683 1.427 . S
N691 C689 1.384 . S
H692 C698 0.930 . S
H693 C702 0.930 . S
H694 C707 0.929 . S
H695 C705 0.929 . S
H696 C700 0.929 . S
H697 C706 0.929 . S
C698 H692 0.930 . S
C698 C699 1.367 . S
C698 C706 1.378 . S
C699 C698 1.367 . S
C699 C707 1.433 . S
C700 H696 0.929 . S
C700 C702 1.378 . S
C700 C704 1.350 . S
C701 C704 1.463 . S
C701 C706 1.350 . S
C701 N709 1.427 . S
C702 H693 0.930 . S
C702 C700 1.378 . S
C702 C703 1.367 . S
C703 C702 1.367 . S
C703 C705 1.433 . S
C704 C700 1.350 . S
C704 C701 1.463 . S
C704 N708 1.427 . S
C705 H695 0.929 . S
C705 C703 1.433 . S
C705 N708 1.384 . S
C706 H697 0.929 . S
C706 C698 1.378 . S
C706 C701 1.350 . S
C707 H694 0.929 . S
C707 C699 1.433 . S
C707 N709 1.384 . S
N708 C704 1.427 . S
N708 C705 1.384 . S
N709 C701 1.427 . S
N709 C707 1.384 . S
H710 C716 0.930 . S
H711 C720 0.930 . S
H712 C725 0.929 . S
H713 C723 0.929 . S
H714 C718 0.929 . S
H715 C724 0.929 . S
C716 H710 0.930 . S
C716 C717 1.367 . S
C716 C724 1.378 . S
C717 C716 1.367 . S
C717 C725 1.433 . S
C718 H714 0.929 . S
C718 C720 1.378 . S
C718 C722 1.350 . S
C719 C722 1.463 . S
C719 C724 1.350 . S
C719 N727 1.427 . S
C720 H711 0.930 . S
C720 C718 1.378 . S
C720 C721 1.367 . S
C721 C720 1.367 . S
C721 C723 1.433 . S
C722 C718 1.350 . S
C722 C719 1.463 . S
C722 N726 1.427 . S
C723 H713 0.929 . S
C723 C721 1.433 . S
C723 N726 1.384 . S
C724 H715 0.929 . S
C724 C716 1.378 . S
C724 C719 1.350 . S
C725 H712 0.929 . S
C725 C717 1.433 . S
C725 N727 1.384 . S
N726 C722 1.427 . S
N726 C723 1.384 . S
N727 C719 1.427 . S
N727 C725 1.384 . S
H728 C734 0.930 . S
H729 C738 0.930 . S
H730 C743 0.929 . S
H731 C741 0.929 . S
H732 C736 0.929 . S
H733 C742 0.929 . S
C734 H728 0.930 . S
C734 C735 1.367 1_655 S
C734 C742 1.378 . S
C735 C734 1.367 1_455 S
C735 C743 1.433 . S
C736 H732 0.929 . S
C736 C738 1.378 . S
C736 C740 1.350 . S
C737 C740 1.463 . S
C737 C742 1.350 1_455 S
C737 N745 1.427 . S
C738 H729 0.930 . S
C738 C736 1.378 . S
C738 C739 1.367 . S
C739 C738 1.367 . S
C739 C741 1.433 1_455 S
C740 C736 1.350 . S
C740 C737 1.463 . S
C740 N744 1.427 1_455 S
C741 H731 0.929 . S
C741 C739 1.433 1_655 S
C741 N744 1.384 . S
C742 H733 0.929 . S
C742 C734 1.378 . S
C742 C737 1.350 1_655 S
C743 H730 0.929 . S
C743 C735 1.433 . S
C743 N745 1.384 . S
N744 C740 1.427 1_655 S
N744 C741 1.384 . S
N745 C737 1.427 . S
N745 C743 1.384 . S
H746 C752 0.930 . S
H747 C756 0.930 . S
H748 C761 0.929 . S
H749 C759 0.929 . S
H750 C754 0.929 . S
H751 C760 0.929 . S
C752 H746 0.930 . S
C752 C753 1.367 . S
C752 C760 1.378 . S
C753 C752 1.367 . S
C753 C761 1.433 . S
C754 H750 0.929 . S
C754 C756 1.378 . S
C754 C758 1.350 . S
C755 C758 1.463 . S
C755 C760 1.350 . S
C755 N763 1.427 . S
C756 H747 0.930 . S
C756 C754 1.378 . S
C756 C757 1.367 . S
C757 C756 1.367 . S
C757 C759 1.433 . S
C758 C754 1.350 . S
C758 C755 1.463 . S
C758 N762 1.427 . S
C759 H749 0.929 . S
C759 C757 1.433 . S
C759 N762 1.384 . S
C760 H751 0.929 . S
C760 C752 1.378 . S
C760 C755 1.350 . S
C761 H748 0.929 . S
C761 C753 1.433 . S
C761 N763 1.384 . S
N762 C758 1.427 . S
N762 C759 1.384 . S
N763 C755 1.427 . S
N763 C761 1.384 . S
H764 C770 0.930 . S
H765 C774 0.930 . S
H766 C779 0.929 . S
H767 C777 0.929 . S
H768 C772 0.929 . S
H769 C778 0.929 . S
C770 H764 0.930 . S
C770 C771 1.367 . S
C770 C778 1.378 . S
C771 C770 1.367 . S
C771 C779 1.433 . S
C772 H768 0.929 . S
C772 C774 1.378 . S
C772 C776 1.350 . S
C773 C776 1.463 . S
C773 C778 1.350 . S
C773 N781 1.427 . S
C774 H765 0.930 . S
C774 C772 1.378 . S
C774 C775 1.367 . S
C775 C774 1.367 . S
C775 C777 1.433 . S
C776 C772 1.350 . S
C776 C773 1.463 . S
C776 N780 1.427 . S
C777 H767 0.929 . S
C777 C775 1.433 . S
C777 N780 1.384 . S
C778 H769 0.929 . S
C778 C770 1.378 . S
C778 C773 1.350 . S
C779 H766 0.929 . S
C779 C771 1.433 . S
C779 N781 1.384 . S
N780 C776 1.427 . S
N780 C777 1.384 . S
N781 C773 1.427 . S
N781 C779 1.384 . S
H782 C788 0.930 . S
H783 C792 0.930 . S
H784 C797 0.929 . S
H785 C795 0.929 . S
H786 C790 0.929 . S
H787 C796 0.929 . S
C788 H782 0.930 . S
C788 C789 1.367 . S
C788 C796 1.378 . S
C789 C788 1.367 . S
C789 C797 1.433 . S
C790 H786 0.929 . S
C790 C792 1.378 . S
C790 C794 1.350 . S
C791 C794 1.463 . S
C791 C796 1.350 . S
C791 N799 1.427 . S
C792 H783 0.930 . S
C792 C790 1.378 . S
C792 C793 1.367 . S
C793 C792 1.367 . S
C793 C795 1.433 . S
C794 C790 1.350 . S
C794 C791 1.463 . S
C794 N798 1.427 . S
C795 H785 0.929 . S
C795 C793 1.433 . S
C795 N798 1.384 . S
C796 H787 0.929 . S
C796 C788 1.378 . S
C796 C791 1.350 . S
C797 H784 0.929 . S
C797 C789 1.433 . S
C797 N799 1.384 . S
N798 C794 1.427 . S
N798 C795 1.384 . S
N799 C791 1.427 . S
N799 C797 1.384 . S
H800 C806 0.930 . S
H801 C810 0.930 . S
H802 C815 0.929 . S
H803 C813 0.929 . S
H804 C808 0.929 . S
H805 C814 0.929 . S
C806 H800 0.930 . S
C806 C807 1.367 . S
C806 C814 1.378 . S
C807 C806 1.367 . S
C807 C815 1.433 . S
C808 H804 0.929 . S
C808 C810 1.378 . S
C808 C812 1.350 . S
C809 C812 1.463 . S
C809 C814 1.350 . S
C809 N817 1.427 . S
C810 H801 0.930 . S
C810 C808 1.378 . S
C810 C811 1.367 . S
C811 C810 1.367 . S
C811 C813 1.433 1_655 S
C812 C808 1.350 . S
C812 C809 1.463 . S
C812 N816 1.427 . S
C813 H803 0.929 . S
C813 C811 1.433 1_455 S
C813 N816 1.384 1_455 S
C814 H805 0.929 . S
C814 C806 1.378 . S
C814 C809 1.350 . S
C815 H802 0.929 . S
C815 C807 1.433 . S
C815 N817 1.384 . S
N816 C812 1.427 . S
N816 C813 1.384 1_655 S
N817 C809 1.427 . S
N817 C815 1.384 . S
H818 C824 0.930 . S
H819 C828 0.930 . S
H820 C833 0.929 . S
H821 C831 0.929 . S
H822 C826 0.929 . S
H823 C832 0.929 . S
C824 H818 0.930 . S
C824 C825 1.367 . S
C824 C832 1.378 . S
C825 C824 1.367 . S
C825 C833 1.433 . S
C826 H822 0.929 . S
C826 C828 1.378 . S
C826 C830 1.350 . S
C827 C830 1.463 . S
C827 C832 1.350 . S
C827 N835 1.427 . S
C828 H819 0.930 . S
C828 C826 1.378 . S
C828 C829 1.367 . S
C829 C828 1.367 . S
C829 C831 1.433 . S
C830 C826 1.350 . S
C830 C827 1.463 . S
C830 N834 1.427 . S
C831 H821 0.929 . S
C831 C829 1.433 . S
C831 N834 1.384 . S
C832 H823 0.929 . S
C832 C824 1.378 . S
C832 C827 1.350 . S
C833 H820 0.929 . S
C833 C825 1.433 . S
C833 N835 1.384 . S
N834 C830 1.427 . S
N834 C831 1.384 . S
N835 C827 1.427 . S
N835 C833 1.384 . S
H836 C842 0.930 . S
H837 C846 0.953 . S
H838 C851 0.929 . S
H839 C849 0.929 . S
H840 C844 0.929 . S
H841 C850 0.929 . S
C842 H836 0.930 . S
C842 C843 1.367 . S
C842 C850 1.378 . S
C843 C842 1.367 . S
C843 C851 1.433 1_545 S
C844 H840 0.929 . S
C844 C846 1.388 . S
C844 C848 1.350 1_565 S
C845 C848 1.463 . S
C845 C850 1.350 . S
C845 N853 1.427 1_545 S
C846 H837 0.953 . S
C846 C844 1.388 . S
C846 C847 1.334 1_565 S
C847 C846 1.334 1_545 S
C847 C849 1.433 . S
C848 C844 1.350 1_545 S
C848 C845 1.463 . S
C848 N852 1.427 . S
C849 H839 0.929 . S
C849 C847 1.433 . S
C849 N852 1.384 . S
C850 H841 0.929 . S
C850 C842 1.378 . S
C850 C845 1.350 . S
C851 H838 0.929 . S
C851 C843 1.433 1_565 S
C851 N853 1.384 . S
N852 C848 1.427 . S
N852 C849 1.384 . S
N853 C845 1.427 1_565 S
N853 C851 1.384 . S
H854 C860 0.930 . S
H855 C864 0.930 . S
H856 C869 0.929 . S
H857 C867 0.929 . S
H858 C862 0.929 . S
H859 C868 0.929 . S
C860 H854 0.930 . S
C860 C861 1.367 . S
C860 C868 1.378 . S
C861 C860 1.367 . S
C861 C869 1.433 . S
C862 H858 0.929 . S
C862 C864 1.378 . S
C862 C866 1.350 . S
C863 C866 1.463 . S
C863 C868 1.350 . S
C863 N871 1.427 . S
C864 H855 0.930 . S
C864 C862 1.378 . S
C864 C865 1.367 . S
C865 C864 1.367 . S
C865 C867 1.433 . S
C866 C862 1.350 . S
C866 C863 1.463 . S
C866 N870 1.427 . S
C867 H857 0.929 . S
C867 C865 1.433 . S
C867 N870 1.384 . S
C868 H859 0.929 . S
C868 C860 1.378 . S
C868 C863 1.350 . S
C869 H856 0.929 . S
C869 C861 1.433 . S
C869 N871 1.384 . S
N870 C866 1.427 . S
N870 C867 1.384 . S
N871 C863 1.427 . S
N871 C869 1.384 . S
H872 C878 0.930 . S
H873 C882 0.901 1_455 S
H874 C887 0.929 . S
H875 C885 0.929 . S
H876 C880 0.929 . S
H877 C886 0.929 . S
C878 H872 0.930 . S
C878 C879 1.367 . S
C878 C886 1.378 . S
C879 C878 1.367 . S
C879 C887 1.433 . S
C880 H876 0.929 . S
C880 C882 1.378 . S
C880 C884 1.350 . S
C881 C884 1.463 . S
C881 C886 1.350 . S
C881 N889 1.427 . S
C882 H873 0.901 1_655 S
C882 C880 1.378 . S
C882 C883 1.367 . S
C883 C882 1.367 . S
C883 C885 1.433 . S
C884 C880 1.350 . S
C884 C881 1.463 . S
C884 N888 1.427 . S
C885 H875 0.929 . S
C885 C883 1.433 . S
C885 N888 1.384 . S
C886 H877 0.929 . S
C886 C878 1.378 . S
C886 C881 1.350 . S
C887 H874 0.929 . S
C887 C879 1.433 . S
C887 N889 1.384 . S
N888 C884 1.427 . S
N888 C885 1.384 . S
N889 C881 1.427 . S
N889 C887 1.384 . S
H890 C896 0.930 . S
H891 C900 0.930 . S
H892 C905 0.929 . S
H893 C903 0.929 . S
H894 C898 0.929 . S
H895 C904 0.929 . S
C896 H890 0.930 . S
C896 C897 1.367 . S
C896 C904 1.378 . S
C897 C896 1.367 . S
C897 C905 1.433 . S
C898 H894 0.929 . S
C898 C900 1.378 . S
C898 C902 1.350 . S
C899 C902 1.463 . S
C899 C904 1.350 . S
C899 N907 1.427 . S
C900 H891 0.930 . S
C900 C898 1.378 . S
C900 C901 1.367 . S
C901 C900 1.367 . S
C901 C903 1.433 . S
C902 C898 1.350 . S
C902 C899 1.463 . S
C902 N906 1.427 . S
C903 H893 0.929 . S
C903 C901 1.433 . S
C903 N906 1.384 . S
C904 H895 0.929 . S
C904 C896 1.378 . S
C904 C899 1.350 . S
C905 H892 0.929 . S
C905 C897 1.433 . S
C905 N907 1.384 . S
N906 C902 1.427 . S
N906 C903 1.384 . S
N907 C899 1.427 . S
N907 C905 1.384 . S
H908 C914 0.930 . S
H909 C918 0.930 . S
H910 C923 0.929 . S
H911 C921 0.929 . S
H912 C916 0.929 . S
H913 C922 0.929 1_565 S
C914 H908 0.930 . S
C914 C915 1.367 1_565 S
C914 C922 1.378 1_565 S
C915 C914 1.367 1_545 S
C915 C923 1.433 . S
C916 H912 0.929 . S
C916 C918 1.378 . S
C916 C920 1.350 . S
C917 C920 1.463 . S
C917 C922 1.350 . S
C917 N925 1.427 . S
C918 H909 0.930 . S
C918 C916 1.378 . S
C918 C919 1.367 . S
C919 C918 1.367 . S
C919 C921 1.433 . S
C920 C916 1.350 . S
C920 C917 1.463 . S
C920 N924 1.427 . S
C921 H911 0.929 . S
C921 C919 1.433 . S
C921 N924 1.384 . S
C922 H913 0.929 1_545 S
C922 C914 1.378 1_545 S
C922 C917 1.350 . S
C923 H910 0.929 . S
C923 C915 1.433 . S
C923 N925 1.384 . S
N924 C920 1.427 . S
N924 C921 1.384 . S
N925 C917 1.427 . S
N925 C923 1.384 . S
H926 C932 0.930 . S
H927 C936 0.930 . S
H928 C941 0.929 . S
H929 C939 0.929 . S
H930 C934 0.929 . S
H931 C940 0.929 . S
C932 H926 0.930 . S
C932 C933 1.367 . S
C932 C940 1.378 . S
C933 C932 1.367 . S
C933 C941 1.433 . S
C934 H930 0.929 . S
C934 C936 1.378 . S
C934 C938 1.350 . S
C935 C938 1.463 . S
C935 C940 1.350 . S
C935 N943 1.427 . S
C936 H927 0.930 . S
C936 C934 1.378 . S
C936 C937 1.367 . S
C937 C936 1.367 . S
C937 C939 1.433 . S
C938 C934 1.350 . S
C938 C935 1.463 . S
C938 N942 1.427 . S
C939 H929 0.929 . S
C939 C937 1.433 . S
C939 N942 1.384 . S
C940 H931 0.929 . S
C940 C932 1.378 . S
C940 C935 1.350 . S
C941 H928 0.929 . S
C941 C933 1.433 . S
C941 N943 1.384 . S
N942 C938 1.427 . S
N942 C939 1.384 . S
N943 C935 1.427 . S
N943 C941 1.384 . S
H944 C950 0.930 . S
H945 C954 0.930 1_556 S
H946 C959 0.929 1_556 S
H947 C957 0.929 . S
H948 C952 0.929 1_556 S
H949 C958 0.929 . S
C950 H944 0.930 . S
C950 C951 1.367 . S
C950 C958 1.378 . S
C951 C950 1.367 . S
C951 C959 1.433 . S
C952 H948 0.929 1_554 S
C952 C954 1.378 1_565 S
C952 C956 1.350 . S
C953 C956 1.463 . S
C953 C958 1.350 . S
C953 N961 1.427 . S
C954 H945 0.930 1_554 S
C954 C952 1.378 1_545 S
C954 C955 1.367 . S
C955 C954 1.367 . S
C955 C957 1.433 1_545 S
C956 C952 1.350 . S
C956 C953 1.463 . S
C956 N960 1.427 . S
C957 H947 0.929 . S
C957 C955 1.433 1_565 S
C957 N960 1.384 . S
C958 H949 0.929 . S
C958 C950 1.378 . S
C958 C953 1.350 . S
C959 H946 0.929 1_554 S
C959 C951 1.433 . S
C959 N961 1.384 . S
N960 C956 1.427 . S
N960 C957 1.384 . S
N961 C953 1.427 . S
N961 C959 1.384 . S
H962 C968 0.930 . S
H963 C972 0.930 . S
H964 C977 0.929 . S
H965 C975 0.929 . S
H966 C970 0.929 . S
H967 C976 0.929 . S
C968 H962 0.930 . S
C968 C969 1.367 . S
C968 C976 1.378 . S
C969 C968 1.367 . S
C969 C977 1.433 1_556 S
C970 H966 0.929 . S
C970 C972 1.378 . S
C970 C974 1.350 1_554 S
C971 C974 1.463 . S
C971 C976 1.350 . S
C971 N979 1.427 1_556 S
C972 H963 0.930 . S
C972 C970 1.378 . S
C972 C973 1.341 1_554 S
C973 C972 1.341 1_556 S
C973 C975 1.468 . S
C974 C970 1.350 1_556 S
C974 C971 1.463 . S
C974 N978 1.427 . S
C975 H965 0.929 . S
C975 C973 1.468 . S
C975 N978 1.384 . S
C976 H967 0.929 . S
C976 C968 1.378 . S
C976 C971 1.350 . S
C977 H964 0.929 . S
C977 C969 1.433 1_554 S
C977 N979 1.384 . S
N978 C974 1.427 . S
N978 C975 1.384 . S
N979 C971 1.427 1_554 S
N979 C977 1.384 . S
H980 C986 0.930 . S
H981 C990 0.930 . S
H982 C995 0.929 . S
H983 C993 0.929 . S
H984 C988 0.929 . S
H985 C994 0.929 . S
C986 H980 0.930 . S
C986 C987 1.367 . S
C986 C994 1.378 . S
C987 C986 1.367 . S
C987 C995 1.433 . S
C988 H984 0.929 . S
C988 C990 1.378 . S
C988 C992 1.350 . S
C989 C992 1.463 . S
C989 C994 1.350 . S
C989 N997 1.427 . S
C990 H981 0.930 . S
C990 C988 1.378 . S
C990 C991 1.367 . S
C991 C990 1.367 . S
C991 C993 1.433 . S
C992 C988 1.350 . S
C992 C989 1.463 . S
C992 N996 1.427 . S
C993 H983 0.929 . S
C993 C991 1.433 . S
C993 N996 1.384 . S
C994 H985 0.929 . S
C994 C986 1.378 . S
C994 C989 1.350 . S
C995 H982 0.929 . S
C995 C987 1.433 . S
C995 N997 1.384 . S
N996 C992 1.427 . S
N996 C993 1.384 . S
N997 C989 1.427 . S
N997 C995 1.384 . S
H998 C1004 0.930 . S
H999 C1008 0.930 . S
H1000 C1013 0.929 . S
H1001 C1011 0.929 . S
H1002 C1006 0.929 . S
H1003 C1012 0.929 . S
C1004 H998 0.930 . S
C1004 C1005 1.367 . S
C1004 C1012 1.378 . S
C1005 C1004 1.367 . S
C1005 C1013 1.433 . S
C1006 H1002 0.929 . S
C1006 C1008 1.378 . S
C1006 C1010 1.350 . S
C1007 C1010 1.463 . S
C1007 C1012 1.350 . S
C1007 N1015 1.427 . S
C1008 H999 0.930 . S
C1008 C1006 1.378 . S
C1008 C1009 1.367 . S
C1009 C1008 1.367 . S
C1009 C1011 1.433 . S
C1010 C1006 1.350 . S
C1010 C1007 1.463 . S
C1010 N1014 1.427 . S
C1011 H1001 0.929 . S
C1011 C1009 1.433 . S
C1011 N1014 1.384 . S
C1012 H1003 0.929 . S
C1012 C1004 1.378 . S
C1012 C1007 1.350 . S
C1013 H1000 0.929 . S
C1013 C1005 1.433 . S
C1013 N1015 1.384 . S
N1014 C1010 1.427 . S
N1014 C1011 1.384 . S
N1015 C1007 1.427 . S
N1015 C1013 1.384 . S
H1016 C1022 0.930 . S
H1017 C1026 0.930 . S
H1018 C1031 0.929 . S
H1019 C1029 0.929 . S
H1020 C1024 0.929 . S
H1021 C1030 0.929 . S
C1022 H1016 0.930 . S
C1022 C1023 1.367 . S
C1022 C1030 1.378 . S
C1023 C1022 1.367 . S
C1023 C1031 1.433 . S
C1024 H1020 0.929 . S
C1024 C1026 1.378 . S
C1024 C1028 1.350 . S
C1025 C1028 1.463 . S
C1025 C1030 1.350 . S
C1025 N1033 1.427 . S
C1026 H1017 0.930 . S
C1026 C1024 1.378 . S
C1026 C1027 1.367 . S
C1027 C1026 1.367 . S
C1027 C1029 1.433 . S
C1028 C1024 1.350 . S
C1028 C1025 1.463 . S
C1028 N1032 1.427 . S
C1029 H1019 0.929 . S
C1029 C1027 1.433 . S
C1029 N1032 1.384 . S
C1030 H1021 0.929 . S
C1030 C1022 1.378 . S
C1030 C1025 1.350 . S
C1031 H1018 0.929 . S
C1031 C1023 1.433 . S
C1031 N1033 1.384 . S
N1032 C1028 1.427 . S
N1032 C1029 1.384 . S
N1033 C1025 1.427 . S
N1033 C1031 1.384 . S
H1034 C1040 0.930 . S
H1035 C1044 0.930 . S
H1036 C1049 0.929 . S
H1037 C1047 0.929 . S
H1038 C1042 0.929 . S
H1039 C1048 0.929 . S
C1040 H1034 0.930 . S
C1040 C1041 1.367 . S
C1040 C1048 1.378 . S
C1041 C1040 1.367 . S
C1041 C1049 1.433 . S
C1042 H1038 0.929 . S
C1042 C1044 1.378 . S
C1042 C1046 1.350 . S
C1043 C1046 1.463 . S
C1043 C1048 1.350 . S
C1043 N1051 1.427 . S
C1044 H1035 0.930 . S
C1044 C1042 1.378 . S
C1044 C1045 1.367 . S
C1045 C1044 1.367 . S
C1045 C1047 1.433 . S
C1046 C1042 1.350 . S
C1046 C1043 1.463 . S
C1046 N1050 1.427 . S
C1047 H1037 0.929 . S
C1047 C1045 1.433 . S
C1047 N1050 1.384 . S
C1048 H1039 0.929 . S
C1048 C1040 1.378 . S
C1048 C1043 1.350 . S
C1049 H1036 0.929 . S
C1049 C1041 1.433 . S
C1049 N1051 1.384 . S
N1050 C1046 1.427 . S
N1050 C1047 1.384 . S
N1051 C1043 1.427 . S
N1051 C1049 1.384 . S
H1052 C1058 0.930 . S
H1053 C1062 0.930 . S
H1054 C1067 0.929 . S
H1055 C1065 0.929 . S
H1056 C1060 0.929 . S
H1057 C1066 0.929 . S
C1058 H1052 0.930 . S
C1058 C1059 1.367 . S
C1058 C1066 1.378 . S
C1059 C1058 1.367 . S
C1059 C1067 1.433 . S
C1060 H1056 0.929 . S
C1060 C1062 1.378 . S
C1060 C1064 1.350 . S
C1061 C1064 1.463 . S
C1061 C1066 1.350 . S
C1061 N1069 1.427 . S
C1062 H1053 0.930 . S
C1062 C1060 1.378 . S
C1062 C1063 1.367 . S
C1063 C1062 1.367 . S
C1063 C1065 1.433 . S
C1064 C1060 1.350 . S
C1064 C1061 1.463 . S
C1064 N1068 1.427 . S
C1065 H1055 0.929 . S
C1065 C1063 1.433 . S
C1065 N1068 1.384 . S
C1066 H1057 0.929 . S
C1066 C1058 1.378 . S
C1066 C1061 1.350 . S
C1067 H1054 0.929 . S
C1067 C1059 1.433 . S
C1067 N1069 1.384 . S
N1068 C1064 1.427 . S
N1068 C1065 1.384 . S
N1069 C1061 1.427 . S
N1069 C1067 1.384 . S
H1070 C1076 0.930 . S
H1071 C1080 0.930 . S
H1072 C1085 0.929 . S
H1073 C1083 0.929 . S
H1074 C1078 0.929 . S
H1075 C1084 0.929 . S
C1076 H1070 0.930 . S
C1076 C1077 1.367 . S
C1076 C1084 1.378 . S
C1077 C1076 1.367 . S
C1077 C1085 1.433 . S
C1078 H1074 0.929 . S
C1078 C1080 1.378 . S
C1078 C1082 1.350 . S
C1079 C1082 1.463 . S
C1079 C1084 1.350 . S
C1079 N1087 1.427 . S
C1080 H1071 0.930 . S
C1080 C1078 1.378 . S
C1080 C1081 1.367 . S
C1081 C1080 1.367 . S
C1081 C1083 1.433 . S
C1082 C1078 1.350 . S
C1082 C1079 1.463 . S
C1082 N1086 1.427 . S
C1083 H1073 0.929 . S
C1083 C1081 1.433 . S
C1083 N1086 1.384 . S
C1084 H1075 0.929 . S
C1084 C1076 1.378 . S
C1084 C1079 1.350 . S
C1085 H1072 0.929 . S
C1085 C1077 1.433 . S
C1085 N1087 1.384 . S
N1086 C1082 1.427 . S
N1086 C1083 1.384 . S
N1087 C1079 1.427 . S
N1087 C1085 1.384 . S
H1088 C1094 0.930 . S
H1089 C1098 0.930 . S
H1090 C1103 0.929 1_655 S
H1091 C1101 0.929 . S
H1092 C1096 0.942 . S
H1093 C1102 0.929 . S
C1094 H1088 0.930 . S
C1094 C1095 1.367 . S
C1094 C1102 1.378 . S
C1095 C1094 1.367 . S
C1095 C1103 1.433 . S
C1096 H1092 0.942 . S
C1096 C1098 1.383 . S
C1096 C1100 1.332 1_655 S
C1097 C1100 1.463 . S
C1097 C1102 1.350 . S
C1097 N1105 1.439 . S
C1098 H1089 0.930 . S
C1098 C1096 1.383 . S
C1098 C1099 1.367 1_655 S
C1099 C1098 1.367 1_455 S
C1099 C1101 1.433 . S
C1100 C1096 1.332 1_455 S
C1100 C1097 1.463 . S
C1100 N1104 1.427 . S
C1101 H1091 0.929 . S
C1101 C1099 1.433 . S
C1101 N1104 1.384 . S
C1102 H1093 0.929 . S
C1102 C1094 1.378 . S
C1102 C1097 1.350 . S
C1103 H1090 0.929 1_455 S
C1103 C1095 1.433 . S
C1103 N1105 1.388 . S
N1104 C1100 1.427 . S
N1104 C1101 1.384 . S
N1105 C1097 1.439 . S
N1105 C1103 1.388 . S
H1106 C1112 0.930 . S
H1107 C1116 0.930 . S
H1108 C1121 0.929 . S
H1109 C1119 0.929 . S
H1110 C1114 0.929 . S
H1111 C1120 0.929 . S
C1112 H1106 0.930 . S
C1112 C1113 1.367 . S
C1112 C1120 1.378 . S
C1113 C1112 1.367 . S
C1113 C1121 1.433 . S
C1114 H1110 0.929 . S
C1114 C1116 1.378 . S
C1114 C1118 1.350 . S
C1115 C1118 1.463 . S
C1115 C1120 1.350 . S
C1115 N1123 1.427 . S
C1116 H1107 0.930 . S
C1116 C1114 1.378 . S
C1116 C1117 1.367 . S
C1117 C1116 1.367 . S
C1117 C1119 1.433 . S
C1118 C1114 1.350 . S
C1118 C1115 1.463 . S
C1118 N1122 1.427 . S
C1119 H1109 0.929 . S
C1119 C1117 1.433 . S
C1119 N1122 1.384 . S
C1120 H1111 0.929 . S
C1120 C1112 1.378 . S
C1120 C1115 1.350 . S
C1121 H1108 0.929 . S
C1121 C1113 1.433 . S
C1121 N1123 1.384 . S
N1122 C1118 1.427 . S
N1122 C1119 1.384 . S
N1123 C1115 1.427 . S
N1123 C1121 1.384 . S
H1124 C1130 0.930 . S
H1125 C1134 0.930 . S
H1126 C1139 0.929 . S
H1127 C1137 0.929 . S
H1128 C1132 0.929 . S
H1129 C1138 0.929 . S
C1130 H1124 0.930 . S
C1130 C1131 1.367 . S
C1130 C1138 1.378 . S
C1131 C1130 1.367 . S
C1131 C1139 1.433 . S
C1132 H1128 0.929 . S
C1132 C1134 1.378 . S
C1132 C1136 1.350 . S
C1133 C1136 1.463 . S
C1133 C1138 1.350 . S
C1133 N1141 1.427 . S
C1134 H1125 0.930 . S
C1134 C1132 1.378 . S
C1134 C1135 1.367 . S
C1135 C1134 1.367 . S
C1135 C1137 1.433 . S
C1136 C1132 1.350 . S
C1136 C1133 1.463 . S
C1136 N1140 1.427 . S
C1137 H1127 0.929 . S
C1137 C1135 1.433 . S
C1137 N1140 1.384 . S
C1138 H1129 0.929 . S
C1138 C1130 1.378 . S
C1138 C1133 1.350 . S
C1139 H1126 0.929 . S
C1139 C1131 1.433 . S
C1139 N1141 1.384 . S
N1140 C1136 1.427 . S
N1140 C1137 1.384 . S
N1141 C1133 1.427 . S
N1141 C1139 1.384 . S
H1142 C1148 0.930 . S
H1143 C1152 0.930 . S
H1144 C1157 0.929 . S
H1145 C1155 0.929 . S
H1146 C1150 0.929 . S
H1147 C1156 0.929 . S
C1148 H1142 0.930 . S
C1148 C1149 1.367 . S
C1148 C1156 1.378 . S
C1149 C1148 1.367 . S
C1149 C1157 1.433 . S
C1150 H1146 0.929 . S
C1150 C1152 1.378 . S
C1150 C1154 1.350 . S
C1151 C1154 1.463 . S
C1151 C1156 1.350 . S
C1151 N1159 1.427 . S
C1152 H1143 0.930 . S
C1152 C1150 1.378 . S
C1152 C1153 1.367 . S
C1153 C1152 1.367 . S
C1153 C1155 1.433 . S
C1154 C1150 1.350 . S
C1154 C1151 1.463 . S
C1154 N1158 1.427 . S
C1155 H1145 0.929 . S
C1155 C1153 1.433 . S
C1155 N1158 1.384 . S
C1156 H1147 0.929 . S
C1156 C1148 1.378 . S
C1156 C1151 1.350 . S
C1157 H1144 0.929 . S
C1157 C1149 1.433 . S
C1157 N1159 1.384 . S
N1158 C1154 1.427 . S
N1158 C1155 1.384 . S
N1159 C1151 1.427 . S
N1159 C1157 1.384 . S
H1160 C1166 0.930 . S
H1161 C1170 0.929 . S
H1162 C1175 0.929 . S
H1163 C1173 0.929 . S
H1164 C1168 0.929 1_655 S
H1165 C1174 0.929 . S
C1166 H1160 0.930 . S
C1166 C1167 1.367 . S
C1166 C1174 1.378 . S
C1167 C1166 1.367 . S
C1167 C1175 1.433 . S
C1168 H1164 0.929 1_455 S
C1168 C1170 1.377 1_455 S
C1168 C1172 1.350 . S
C1169 C1172 1.463 . S
C1169 C1174 1.350 . S
C1169 N1177 1.427 . S
C1170 H1161 0.929 . S
C1170 C1168 1.377 1_655 S
C1170 C1171 1.368 1_655 S
C1171 C1170 1.368 1_455 S
C1171 C1173 1.433 . S
C1172 C1168 1.350 . S
C1172 C1169 1.463 . S
C1172 N1176 1.427 . S
C1173 H1163 0.929 . S
C1173 C1171 1.433 . S
C1173 N1176 1.384 . S
C1174 H1165 0.929 . S
C1174 C1166 1.378 . S
C1174 C1169 1.350 . S
C1175 H1162 0.929 . S
C1175 C1167 1.433 . S
C1175 N1177 1.384 . S
N1176 C1172 1.427 . S
N1176 C1173 1.384 . S
N1177 C1169 1.427 . S
N1177 C1175 1.384 . S
H1178 C1184 0.930 . S
H1179 C1188 0.930 . S
H1180 C1193 0.929 . S
H1181 C1191 0.929 . S
H1182 C1186 0.929 . S
H1183 C1192 0.929 . S
C1184 H1178 0.930 . S
C1184 C1185 1.367 . S
C1184 C1192 1.378 . S
C1185 C1184 1.367 . S
C1185 C1193 1.433 . S
C1186 H1182 0.929 . S
C1186 C1188 1.378 . S
C1186 C1190 1.350 . S
C1187 C1190 1.463 . S
C1187 C1192 1.350 . S
C1187 N1195 1.427 . S
C1188 H1179 0.930 . S
C1188 C1186 1.378 . S
C1188 C1189 1.367 . S
C1189 C1188 1.367 . S
C1189 C1191 1.433 . S
C1190 C1186 1.350 . S
C1190 C1187 1.463 . S
C1190 N1194 1.427 . S
C1191 H1181 0.929 . S
C1191 C1189 1.433 . S
C1191 N1194 1.384 . S
C1192 H1183 0.929 . S
C1192 C1184 1.378 . S
C1192 C1187 1.350 . S
C1193 H1180 0.929 . S
C1193 C1185 1.433 . S
C1193 N1195 1.384 . S
N1194 C1190 1.427 . S
N1194 C1191 1.384 . S
N1195 C1187 1.427 . S
N1195 C1193 1.384 . S
H1196 C1202 0.930 . S
H1197 C1206 0.930 . S
H1198 C1211 0.929 . S
H1199 C1209 0.929 1_554 S
H1200 C1204 0.929 . S
H1201 C1210 0.929 . S
C1202 H1196 0.930 . S
C1202 C1203 1.367 . S
C1202 C1210 1.378 . S
C1203 C1202 1.367 . S
C1203 C1211 1.433 . S
C1204 H1200 0.929 . S
C1204 C1206 1.378 . S
C1204 C1208 1.350 . S
C1205 C1208 1.463 . S
C1205 C1210 1.350 . S
C1205 N1213 1.427 . S
C1206 H1197 0.930 . S
C1206 C1204 1.378 . S
C1206 C1207 1.367 . S
C1207 C1206 1.367 . S
C1207 C1209 1.433 . S
C1208 C1204 1.350 . S
C1208 C1205 1.463 . S
C1208 N1212 1.427 . S
C1209 H1199 0.929 1_556 S
C1209 C1207 1.433 . S
C1209 N1212 1.384 . S
C1210 H1201 0.929 . S
C1210 C1202 1.378 . S
C1210 C1205 1.350 . S
C1211 H1198 0.929 . S
C1211 C1203 1.433 . S
C1211 N1213 1.384 . S
N1212 C1208 1.427 . S
N1212 C1209 1.384 . S
N1213 C1205 1.427 . S
N1213 C1211 1.384 . S
H1214 C1220 0.930 . S
H1215 C1224 0.930 . S
H1216 C1229 0.929 . S
H1217 C1227 0.929 . S
H1218 C1222 0.929 . S
H1219 C1228 0.929 . S
C1220 H1214 0.930 . S
C1220 C1221 1.367 . S
C1220 C1228 1.378 . S
C1221 C1220 1.367 . S
C1221 C1229 1.433 . S
C1222 H1218 0.929 . S
C1222 C1224 1.378 . S
C1222 C1226 1.350 . S
C1223 C1226 1.463 . S
C1223 C1228 1.350 . S
C1223 N1231 1.427 . S
C1224 H1215 0.930 . S
C1224 C1222 1.378 . S
C1224 C1225 1.367 . S
C1225 C1224 1.367 . S
C1225 C1227 1.433 . S
C1226 C1222 1.350 . S
C1226 C1223 1.463 . S
C1226 N1230 1.427 . S
C1227 H1217 0.929 . S
C1227 C1225 1.433 . S
C1227 N1230 1.384 . S
C1228 H1219 0.929 . S
C1228 C1220 1.378 . S
C1228 C1223 1.350 . S
C1229 H1216 0.929 . S
C1229 C1221 1.433 . S
C1229 N1231 1.384 . S
N1230 C1226 1.427 . S
N1230 C1227 1.384 . S
N1231 C1223 1.427 . S
N1231 C1229 1.384 . S
H1232 C1238 0.930 . S
H1233 C1242 0.930 . S
H1234 C1247 0.929 . S
H1235 C1245 0.929 . S
H1236 C1240 0.929 . S
H1237 C1246 0.929 . S
C1238 H1232 0.930 . S
C1238 C1239 1.367 1_565 S
C1238 C1246 1.378 . S
C1239 C1238 1.367 1_545 S
C1239 C1247 1.433 . S
C1240 H1236 0.929 . S
C1240 C1242 1.378 . S
C1240 C1244 1.350 . S
C1241 C1244 1.463 . S
C1241 C1246 1.350 1_545 S
C1241 N1249 1.427 . S
C1242 H1233 0.930 . S
C1242 C1240 1.378 . S
C1242 C1243 1.367 . S
C1243 C1242 1.367 . S
C1243 C1245 1.433 1_545 S
C1244 C1240 1.350 . S
C1244 C1241 1.463 . S
C1244 N1248 1.427 1_545 S
C1245 H1235 0.929 . S
C1245 C1243 1.433 1_565 S
C1245 N1248 1.384 . S
C1246 H1237 0.929 . S
C1246 C1238 1.378 . S
C1246 C1241 1.350 1_565 S
C1247 H1234 0.929 . S
C1247 C1239 1.433 . S
C1247 N1249 1.384 . S
N1248 C1244 1.427 1_565 S
N1248 C1245 1.384 . S
N1249 C1241 1.427 . S
N1249 C1247 1.384 . S
H1250 C1256 0.930 . S
H1251 C1260 0.930 . S
H1252 C1265 0.929 . S
H1253 C1263 0.929 . S
H1254 C1258 0.929 . S
H1255 C1264 0.929 . S
C1256 H1250 0.930 . S
C1256 C1257 1.367 . S
C1256 C1264 1.378 . S
C1257 C1256 1.367 . S
C1257 C1265 1.433 . S
C1258 H1254 0.929 . S
C1258 C1260 1.378 . S
C1258 C1262 1.350 . S
C1259 C1262 1.463 . S
C1259 C1264 1.350 . S
C1259 N1267 1.427 . S
C1260 H1251 0.930 . S
C1260 C1258 1.378 . S
C1260 C1261 1.367 . S
C1261 C1260 1.367 . S
C1261 C1263 1.433 . S
C1262 C1258 1.350 . S
C1262 C1259 1.463 . S
C1262 N1266 1.427 . S
C1263 H1253 0.929 . S
C1263 C1261 1.433 . S
C1263 N1266 1.384 . S
C1264 H1255 0.929 . S
C1264 C1256 1.378 . S
C1264 C1259 1.350 . S
C1265 H1252 0.929 . S
C1265 C1257 1.433 . S
C1265 N1267 1.384 . S
N1266 C1262 1.427 . S
N1266 C1263 1.384 . S
N1267 C1259 1.427 . S
N1267 C1265 1.384 . S
H1268 C1274 0.930 . S
H1269 C1278 0.930 . S
H1270 C1283 0.929 . S
H1271 C1281 0.929 . S
H1272 C1276 0.929 . S
H1273 C1282 0.929 . S
C1274 H1268 0.930 . S
C1274 C1275 1.367 . S
C1274 C1282 1.378 . S
C1275 C1274 1.367 . S
C1275 C1283 1.433 . S
C1276 H1272 0.929 . S
C1276 C1278 1.378 . S
C1276 C1280 1.350 . S
C1277 C1280 1.463 . S
C1277 C1282 1.350 . S
C1277 N1285 1.427 . S
C1278 H1269 0.930 . S
C1278 C1276 1.378 . S
C1278 C1279 1.367 . S
C1279 C1278 1.367 . S
C1279 C1281 1.433 . S
C1280 C1276 1.350 . S
C1280 C1277 1.463 . S
C1280 N1284 1.427 . S
C1281 H1271 0.929 . S
C1281 C1279 1.433 . S
C1281 N1284 1.384 . S
C1282 H1273 0.929 . S
C1282 C1274 1.378 . S
C1282 C1277 1.350 . S
C1283 H1270 0.929 . S
C1283 C1275 1.433 . S
C1283 N1285 1.384 . S
N1284 C1280 1.427 . S
N1284 C1281 1.384 . S
N1285 C1277 1.427 . S
N1285 C1283 1.384 . S
H1286 C1292 0.930 . S
H1287 C1296 0.930 . S
H1288 C1301 0.929 . S
H1289 C1299 0.929 . S
H1290 C1294 0.929 . S
H1291 C1300 0.929 . S
C1292 H1286 0.930 . S
C1292 C1293 1.367 . S
C1292 C1300 1.378 . S
C1293 C1292 1.367 . S
C1293 C1301 1.433 . S
C1294 H1290 0.929 . S
C1294 C1296 1.378 . S
C1294 C1298 1.350 . S
C1295 C1298 1.463 . S
C1295 C1300 1.350 . S
C1295 N1303 1.427 . S
C1296 H1287 0.930 . S
C1296 C1294 1.378 . S
C1296 C1297 1.367 . S
C1297 C1296 1.367 . S
C1297 C1299 1.433 . S
C1298 C1294 1.350 . S
C1298 C1295 1.463 . S
C1298 N1302 1.427 . S
C1299 H1289 0.929 . S
C1299 C1297 1.433 . S
C1299 N1302 1.384 . S
C1300 H1291 0.929 . S
C1300 C1292 1.378 . S
C1300 C1295 1.350 . S
C1301 H1288 0.929 . S
C1301 C1293 1.433 . S
C1301 N1303 1.384 . S
N1302 C1298 1.427 . S
N1302 C1299 1.384 . S
N1303 C1295 1.427 . S
N1303 C1301 1.384 . S
H1304 C1310 0.930 . S
H1305 C1314 0.930 . S
H1306 C1319 0.929 . S
H1307 C1317 0.929 . S
H1308 C1312 0.929 . S
H1309 C1318 0.929 . S
C1310 H1304 0.930 . S
C1310 C1311 1.367 1_545 S
C1310 C1318 1.378 . S
C1311 C1310 1.367 1_565 S
C1311 C1319 1.433 . S
C1312 H1308 0.929 . S
C1312 C1314 1.378 . S
C1312 C1316 1.350 1_565 S
C1313 C1316 1.463 . S
C1313 C1318 1.350 . S
C1313 N1321 1.427 1_545 S
C1314 H1305 0.930 . S
C1314 C1312 1.378 . S
C1314 C1315 1.367 1_565 S
C1315 C1314 1.367 1_545 S
C1315 C1317 1.433 . S
C1316 C1312 1.350 1_545 S
C1316 C1313 1.463 . S
C1316 N1320 1.427 . S
C1317 H1307 0.929 . S
C1317 C1315 1.433 . S
C1317 N1320 1.384 . S
C1318 H1309 0.929 . S
C1318 C1310 1.378 . S
C1318 C1313 1.350 . S
C1319 H1306 0.929 . S
C1319 C1311 1.433 . S
C1319 N1321 1.384 . S
N1320 C1316 1.427 . S
N1320 C1317 1.384 . S
N1321 C1313 1.427 1_565 S
N1321 C1319 1.384 . S
H1322 C1328 0.930 . S
H1323 C1332 0.930 . S
H1324 C1337 0.929 . S
H1325 C1335 0.929 . S
H1326 C1330 0.929 . S
H1327 C1336 0.929 . S
C1328 H1322 0.930 . S
C1328 C1329 1.367 . S
C1328 C1336 1.378 . S
C1329 C1328 1.367 . S
C1329 C1337 1.433 . S
C1330 H1326 0.929 . S
C1330 C1332 1.378 . S
C1330 C1334 1.350 . S
C1331 C1334 1.463 . S
C1331 C1336 1.350 . S
C1331 N1339 1.427 . S
C1332 H1323 0.930 . S
C1332 C1330 1.378 . S
C1332 C1333 1.367 . S
C1333 C1332 1.367 . S
C1333 C1335 1.433 . S
C1334 C1330 1.350 . S
C1334 C1331 1.463 . S
C1334 N1338 1.427 . S
C1335 H1325 0.929 . S
C1335 C1333 1.433 . S
C1335 N1338 1.384 . S
C1336 H1327 0.929 . S
C1336 C1328 1.378 . S
C1336 C1331 1.350 . S
C1337 H1324 0.929 . S
C1337 C1329 1.433 . S
C1337 N1339 1.384 . S
N1338 C1334 1.427 . S
N1338 C1335 1.384 . S
N1339 C1331 1.427 . S
N1339 C1337 1.384 . S
H1340 C1346 0.930 . S
H1341 C1350 0.930 . S
H1342 C1355 0.929 . S
H1343 C1353 0.929 1_565 S
H1344 C1348 0.929 . S
H1345 C1354 0.929 . S
C1346 H1340 0.930 . S
C1346 C1347 1.367 . S
C1346 C1354 1.378 . S
C1347 C1346 1.367 . S
C1347 C1355 1.433 . S
C1348 H1344 0.929 . S
C1348 C1350 1.378 . S
C1348 C1352 1.350 . S
C1349 C1352 1.463 . S
C1349 C1354 1.350 . S
C1349 N1357 1.427 . S
C1350 H1341 0.930 . S
C1350 C1348 1.378 . S
C1350 C1351 1.367 . S
C1351 C1350 1.367 . S
C1351 C1353 1.433 . S
C1352 C1348 1.350 . S
C1352 C1349 1.463 . S
C1352 N1356 1.427 . S
C1353 H1343 0.929 1_545 S
C1353 C1351 1.433 . S
C1353 N1356 1.384 . S
C1354 H1345 0.929 . S
C1354 C1346 1.378 . S
C1354 C1349 1.350 . S
C1355 H1342 0.929 . S
C1355 C1347 1.433 . S
C1355 N1357 1.384 . S
N1356 C1352 1.427 . S
N1356 C1353 1.384 . S
N1357 C1349 1.427 . S
N1357 C1355 1.384 . S
H1358 C1364 0.930 . S
H1359 C1368 0.930 . S
H1360 C1373 0.929 . S
H1361 C1371 0.929 . S
H1362 C1366 0.929 . S
H1363 C1372 0.929 . S
C1364 H1358 0.930 . S
C1364 C1365 1.367 . S
C1364 C1372 1.378 . S
C1365 C1364 1.367 . S
C1365 C1373 1.433 . S
C1366 H1362 0.929 . S
C1366 C1368 1.378 . S
C1366 C1370 1.350 . S
C1367 C1370 1.463 . S
C1367 C1372 1.350 . S
C1367 N1375 1.427 . S
C1368 H1359 0.930 . S
C1368 C1366 1.378 . S
C1368 C1369 1.367 . S
C1369 C1368 1.367 . S
C1369 C1371 1.433 . S
C1370 C1366 1.350 . S
C1370 C1367 1.463 . S
C1370 N1374 1.427 . S
C1371 H1361 0.929 . S
C1371 C1369 1.433 . S
C1371 N1374 1.384 . S
C1372 H1363 0.929 . S
C1372 C1364 1.378 . S
C1372 C1367 1.350 . S
C1373 H1360 0.929 . S
C1373 C1365 1.433 . S
C1373 N1375 1.384 . S
N1374 C1370 1.427 . S
N1374 C1371 1.384 . S
N1375 C1367 1.427 . S
N1375 C1373 1.384 . S
H1376 C1382 0.930 . S
H1377 C1386 0.930 . S
H1378 C1391 0.929 . S
H1379 C1389 0.929 . S
H1380 C1384 0.929 . S
H1381 C1390 0.929 . S
C1382 H1376 0.930 . S
C1382 C1383 1.367 1_556 S
C1382 C1390 1.378 . S
C1383 C1382 1.367 1_554 S
C1383 C1391 1.433 . S
C1384 H1380 0.929 . S
C1384 C1386 1.378 . S
C1384 C1388 1.350 . S
C1385 C1388 1.463 . S
C1385 C1390 1.350 1_554 S
C1385 N1393 1.427 . S
C1386 H1377 0.930 . S
C1386 C1384 1.378 . S
C1386 C1387 1.367 . S
C1387 C1386 1.367 . S
C1387 C1389 1.433 1_554 S
C1388 C1384 1.350 . S
C1388 C1385 1.463 . S
C1388 N1392 1.427 1_554 S
C1389 H1379 0.929 . S
C1389 C1387 1.433 1_556 S
C1389 N1392 1.384 . S
C1390 H1381 0.929 . S
C1390 C1382 1.378 . S
C1390 C1385 1.350 1_556 S
C1391 H1378 0.929 . S
C1391 C1383 1.433 . S
C1391 N1393 1.384 . S
N1392 C1388 1.427 1_556 S
N1392 C1389 1.384 . S
N1393 C1385 1.427 . S
N1393 C1391 1.384 . S
H1394 C1400 0.930 . S
H1395 C1404 0.930 . S
H1396 C1409 0.929 . S
H1397 C1407 0.929 1_556 S
H1398 C1402 0.929 . S
H1399 C1408 0.929 . S
C1400 H1394 0.930 . S
C1400 C1401 1.367 . S
C1400 C1408 1.378 . S
C1401 C1400 1.367 . S
C1401 C1409 1.433 . S
C1402 H1398 0.929 . S
C1402 C1404 1.378 . S
C1402 C1406 1.350 . S
C1403 C1406 1.463 . S
C1403 C1408 1.350 . S
C1403 N1411 1.427 . S
C1404 H1395 0.930 . S
C1404 C1402 1.378 . S
C1404 C1405 1.367 . S
C1405 C1404 1.367 . S
C1405 C1407 1.433 . S
C1406 C1402 1.350 . S
C1406 C1403 1.463 . S
C1406 N1410 1.427 . S
C1407 H1397 0.929 1_554 S
C1407 C1405 1.433 . S
C1407 N1410 1.384 . S
C1408 H1399 0.929 . S
C1408 C1400 1.378 . S
C1408 C1403 1.350 . S
C1409 H1396 0.929 . S
C1409 C1401 1.433 . S
C1409 N1411 1.384 . S
N1410 C1406 1.427 . S
N1410 C1407 1.384 . S
N1411 C1403 1.427 . S
N1411 C1409 1.384 . S
H1412 C1418 0.930 . S
H1413 C1422 0.930 . S
H1414 C1427 0.929 . S
H1415 C1425 0.929 . S
H1416 C1420 0.929 . S
H1417 C1426 0.929 . S
C1418 H1412 0.930 . S
C1418 C1419 1.367 . S
C1418 C1426 1.378 . S
C1419 C1418 1.367 . S
C1419 C1427 1.433 . S
C1420 H1416 0.929 . S
C1420 C1422 1.378 . S
C1420 C1424 1.350 . S
C1421 C1424 1.463 . S
C1421 C1426 1.350 . S
C1421 N1429 1.427 . S
C1422 H1413 0.930 . S
C1422 C1420 1.378 . S
C1422 C1423 1.367 . S
C1423 C1422 1.367 . S
C1423 C1425 1.433 . S
C1424 C1420 1.350 . S
C1424 C1421 1.463 . S
C1424 N1428 1.427 . S
C1425 H1415 0.929 . S
C1425 C1423 1.433 . S
C1425 N1428 1.384 . S
C1426 H1417 0.929 . S
C1426 C1418 1.378 . S
C1426 C1421 1.350 . S
C1427 H1414 0.929 . S
C1427 C1419 1.433 . S
C1427 N1429 1.384 . S
N1428 C1424 1.427 . S
N1428 C1425 1.384 . S
N1429 C1421 1.427 . S
N1429 C1427 1.384 . S
H1430 C1436 0.930 . S
H1431 C1440 0.930 . S
H1432 C1445 0.929 . S
H1433 C1443 0.929 . S
H1434 C1438 0.929 . S
H1435 C1444 0.929 . S
C1436 H1430 0.930 . S
C1436 C1437 1.367 . S
C1436 C1444 1.378 . S
C1437 C1436 1.367 . S
C1437 C1445 1.433 . S
C1438 H1434 0.929 . S
C1438 C1440 1.378 . S
C1438 C1442 1.350 . S
C1439 C1442 1.463 . S
C1439 C1444 1.350 . S
C1439 N1447 1.427 . S
C1440 H1431 0.930 . S
C1440 C1438 1.378 . S
C1440 C1441 1.367 . S
C1441 C1440 1.367 . S
C1441 C1443 1.433 . S
C1442 C1438 1.350 . S
C1442 C1439 1.463 . S
C1442 N1446 1.427 . S
C1443 H1433 0.929 . S
C1443 C1441 1.433 . S
C1443 N1446 1.384 . S
C1444 H1435 0.929 . S
C1444 C1436 1.378 . S
C1444 C1439 1.350 . S
C1445 H1432 0.929 . S
C1445 C1437 1.433 . S
C1445 N1447 1.384 . S
N1446 C1442 1.427 . S
N1446 C1443 1.384 . S
N1447 C1439 1.427 . S
N1447 C1445 1.384 . S
H1448 C1454 0.930 . S
H1449 C1458 0.930 . S
H1450 C1463 0.929 . S
H1451 C1461 0.929 . S
H1452 C1456 0.929 . S
H1453 C1462 0.929 . S
C1454 H1448 0.930 . S
C1454 C1455 1.367 . S
C1454 C1462 1.378 . S
C1455 C1454 1.367 . S
C1455 C1463 1.433 . S
C1456 H1452 0.929 . S
C1456 C1458 1.378 . S
C1456 C1460 1.350 . S
C1457 C1460 1.463 . S
C1457 C1462 1.350 . S
C1457 N1465 1.427 . S
C1458 H1449 0.930 . S
C1458 C1456 1.378 . S
C1458 C1459 1.367 . S
C1459 C1458 1.367 . S
C1459 C1461 1.433 . S
C1460 C1456 1.350 . S
C1460 C1457 1.463 . S
C1460 N1464 1.427 . S
C1461 H1451 0.929 . S
C1461 C1459 1.433 . S
C1461 N1464 1.384 . S
C1462 H1453 0.929 . S
C1462 C1454 1.378 . S
C1462 C1457 1.350 . S
C1463 H1450 0.929 . S
C1463 C1455 1.433 . S
C1463 N1465 1.384 . S
N1464 C1460 1.427 . S
N1464 C1461 1.384 . S
N1465 C1457 1.427 . S
N1465 C1463 1.384 . S
H1466 C1472 0.930 . S
H1467 C1476 0.922 1_545 S
H1468 C1481 0.929 . S
H1469 C1479 0.929 . S
H1470 C1474 0.929 . S
H1471 C1480 0.929 . S
C1472 H1466 0.930 . S
C1472 C1473 1.367 . S
C1472 C1480 1.378 . S
C1473 C1472 1.367 . S
C1473 C1481 1.433 . S
C1474 H1470 0.929 . S
C1474 C1476 1.378 . S
C1474 C1478 1.350 . S
C1475 C1478 1.463 . S
C1475 C1480 1.350 . S
C1475 N1483 1.427 . S
C1476 H1467 0.922 1_565 S
C1476 C1474 1.378 . S
C1476 C1477 1.367 . S
C1477 C1476 1.367 . S
C1477 C1479 1.433 . S
C1478 C1474 1.350 . S
C1478 C1475 1.463 . S
C1478 N1482 1.427 . S
C1479 H1469 0.929 . S
C1479 C1477 1.433 . S
C1479 N1482 1.384 . S
C1480 H1471 0.929 . S
C1480 C1472 1.378 . S
C1480 C1475 1.350 . S
C1481 H1468 0.929 . S
C1481 C1473 1.433 . S
C1481 N1483 1.384 . S
N1482 C1478 1.427 . S
N1482 C1479 1.384 . S
N1483 C1475 1.427 . S
N1483 C1481 1.384 . S
H1484 C1490 0.930 . S
H1485 C1494 0.930 . S
H1486 C1499 0.929 . S
H1487 C1497 0.929 . S
H1488 C1492 0.929 . S
H1489 C1498 0.929 . S
C1490 H1484 0.930 . S
C1490 C1491 1.367 . S
C1490 C1498 1.378 . S
C1491 C1490 1.367 . S
C1491 C1499 1.433 . S
C1492 H1488 0.929 . S
C1492 C1494 1.378 . S
C1492 C1496 1.350 . S
C1493 C1496 1.463 . S
C1493 C1498 1.350 . S
C1493 N1501 1.427 . S
C1494 H1485 0.930 . S
C1494 C1492 1.378 . S
C1494 C1495 1.367 . S
C1495 C1494 1.367 . S
C1495 C1497 1.433 . S
C1496 C1492 1.350 . S
C1496 C1493 1.463 . S
C1496 N1500 1.427 . S
C1497 H1487 0.929 . S
C1497 C1495 1.433 . S
C1497 N1500 1.384 . S
C1498 H1489 0.929 . S
C1498 C1490 1.378 . S
C1498 C1493 1.350 . S
C1499 H1486 0.929 . S
C1499 C1491 1.433 . S
C1499 N1501 1.384 . S
N1500 C1496 1.427 . S
N1500 C1497 1.384 . S
N1501 C1493 1.427 . S
N1501 C1499 1.384 . S
H1502 C1508 0.930 . S
H1503 C1512 0.930 . S
H1504 C1517 0.929 . S
H1505 C1515 0.929 . S
H1506 C1510 0.929 . S
H1507 C1516 0.929 . S
C1508 H1502 0.930 . S
C1508 C1509 1.367 . S
C1508 C1516 1.378 . S
C1509 C1508 1.367 . S
C1509 C1517 1.433 . S
C1510 H1506 0.929 . S
C1510 C1512 1.378 . S
C1510 C1514 1.350 . S
C1511 C1514 1.463 . S
C1511 C1516 1.350 . S
C1511 N1519 1.427 . S
C1512 H1503 0.930 . S
C1512 C1510 1.378 . S
C1512 C1513 1.367 . S
C1513 C1512 1.367 . S
C1513 C1515 1.433 . S
C1514 C1510 1.350 . S
C1514 C1511 1.463 . S
C1514 N1518 1.427 . S
C1515 H1505 0.929 . S
C1515 C1513 1.433 . S
C1515 N1518 1.384 . S
C1516 H1507 0.929 . S
C1516 C1508 1.378 . S
C1516 C1511 1.350 . S
C1517 H1504 0.929 . S
C1517 C1509 1.433 . S
C1517 N1519 1.384 . S
N1518 C1514 1.427 . S
N1518 C1515 1.384 . S
N1519 C1511 1.427 . S
N1519 C1517 1.384 . S
H1520 C1526 0.930 . S
H1521 C1530 0.930 . S
H1522 C1535 0.929 . S
H1523 C1533 0.929 . S
H1524 C1528 0.929 . S
H1525 C1534 0.929 . S
C1526 H1520 0.930 . S
C1526 C1527 1.367 . S
C1526 C1534 1.378 . S
C1527 C1526 1.367 . S
C1527 C1535 1.433 . S
C1528 H1524 0.929 . S
C1528 C1530 1.378 . S
C1528 C1532 1.350 . S
C1529 C1532 1.463 . S
C1529 C1534 1.350 . S
C1529 N1537 1.427 . S
C1530 H1521 0.930 . S
C1530 C1528 1.378 . S
C1530 C1531 1.367 . S
C1531 C1530 1.367 . S
C1531 C1533 1.433 . S
C1532 C1528 1.350 . S
C1532 C1529 1.463 . S
C1532 N1536 1.427 . S
C1533 H1523 0.929 . S
C1533 C1531 1.433 . S
C1533 N1536 1.384 . S
C1534 H1525 0.929 . S
C1534 C1526 1.378 . S
C1534 C1529 1.350 . S
C1535 H1522 0.929 . S
C1535 C1527 1.433 . S
C1535 N1537 1.384 . S
N1536 C1532 1.427 . S
N1536 C1533 1.384 . S
N1537 C1529 1.427 . S
N1537 C1535 1.384 . S
H1538 C1544 0.930 . S
H1539 C1548 0.930 . S
H1540 C1553 0.929 . S
H1541 C1551 0.929 . S
H1542 C1546 0.929 . S
H1543 C1552 0.929 . S
C1544 H1538 0.930 . S
C1544 C1545 1.367 . S
C1544 C1552 1.378 . S
C1545 C1544 1.367 . S
C1545 C1553 1.433 . S
C1546 H1542 0.929 . S
C1546 C1548 1.378 . S
C1546 C1550 1.350 . S
C1547 C1550 1.463 . S
C1547 C1552 1.350 . S
C1547 N1555 1.427 . S
C1548 H1539 0.930 . S
C1548 C1546 1.378 . S
C1548 C1549 1.367 . S
C1549 C1548 1.367 . S
C1549 C1551 1.433 . S
C1550 C1546 1.350 . S
C1550 C1547 1.463 . S
C1550 N1554 1.427 . S
C1551 H1541 0.929 . S
C1551 C1549 1.433 . S
C1551 N1554 1.384 . S
C1552 H1543 0.929 . S
C1552 C1544 1.378 . S
C1552 C1547 1.350 . S
C1553 H1540 0.929 . S
C1553 C1545 1.433 . S
C1553 N1555 1.384 . S
N1554 C1550 1.427 . S
N1554 C1551 1.384 . S
N1555 C1547 1.427 . S
N1555 C1553 1.384 . S
H1556 C1562 0.930 . S
H1557 C1566 0.930 . S
H1558 C1571 0.929 . S
H1559 C1569 0.929 . S
H1560 C1564 0.929 . S
H1561 C1570 0.929 . S
C1562 H1556 0.930 . S
C1562 C1563 1.367 1_655 S
C1562 C1570 1.378 . S
C1563 C1562 1.367 1_455 S
C1563 C1571 1.433 . S
C1564 H1560 0.929 . S
C1564 C1566 1.378 . S
C1564 C1568 1.350 . S
C1565 C1568 1.463 . S
C1565 C1570 1.350 1_455 S
C1565 N1573 1.427 . S
C1566 H1557 0.930 . S
C1566 C1564 1.378 . S
C1566 C1567 1.407 . S
C1567 C1566 1.407 . S
C1567 C1569 1.405 1_455 S
C1568 C1564 1.350 . S
C1568 C1565 1.463 . S
C1568 N1572 1.427 1_455 S
C1569 H1559 0.929 . S
C1569 C1567 1.405 1_655 S
C1569 N1572 1.384 . S
C1570 H1561 0.929 . S
C1570 C1562 1.378 . S
C1570 C1565 1.350 1_655 S
C1571 H1558 0.929 . S
C1571 C1563 1.433 . S
C1571 N1573 1.384 . S
N1572 C1568 1.427 1_655 S
N1572 C1569 1.384 . S
N1573 C1565 1.427 . S
N1573 C1571 1.384 . S
H1574 C1580 0.930 . S
H1575 C1584 0.930 . S
H1576 C1589 0.929 . S
H1577 C1587 0.929 . S
H1578 C1582 0.929 . S
H1579 C1588 0.929 . S
C1580 H1574 0.930 . S
C1580 C1581 1.367 . S
C1580 C1588 1.378 . S
C1581 C1580 1.367 . S
C1581 C1589 1.433 . S
C1582 H1578 0.929 . S
C1582 C1584 1.378 . S
C1582 C1586 1.350 . S
C1583 C1586 1.463 . S
C1583 C1588 1.350 . S
C1583 N1591 1.427 . S
C1584 H1575 0.930 . S
C1584 C1582 1.378 . S
C1584 C1585 1.367 . S
C1585 C1584 1.367 . S
C1585 C1587 1.433 . S
C1586 C1582 1.350 . S
C1586 C1583 1.463 . S
C1586 N1590 1.427 . S
C1587 H1577 0.929 . S
C1587 C1585 1.433 . S
C1587 N1590 1.384 . S
C1588 H1579 0.929 . S
C1588 C1580 1.378 . S
C1588 C1583 1.350 . S
C1589 H1576 0.929 . S
C1589 C1581 1.433 . S
C1589 N1591 1.384 . S
N1590 C1586 1.427 . S
N1590 C1587 1.384 . S
N1591 C1583 1.427 . S
N1591 C1589 1.384 . S
H1592 C1598 0.930 . S
H1593 C1602 0.930 . S
H1594 C1607 0.929 . S
H1595 C1605 0.929 . S
H1596 C1600 0.929 . S
H1597 C1606 0.929 . S
C1598 H1592 0.930 . S
C1598 C1599 1.367 . S
C1598 C1606 1.378 . S
C1599 C1598 1.367 . S
C1599 C1607 1.433 . S
C1600 H1596 0.929 . S
C1600 C1602 1.378 . S
C1600 C1604 1.350 . S
C1601 C1604 1.463 . S
C1601 C1606 1.350 . S
C1601 N1609 1.427 . S
C1602 H1593 0.930 . S
C1602 C1600 1.378 . S
C1602 C1603 1.367 . S
C1603 C1602 1.367 . S
C1603 C1605 1.433 . S
C1604 C1600 1.350 . S
C1604 C1601 1.463 . S
C1604 N1608 1.427 . S
C1605 H1595 0.929 . S
C1605 C1603 1.433 . S
C1605 N1608 1.384 . S
C1606 H1597 0.929 . S
C1606 C1598 1.378 . S
C1606 C1601 1.350 . S
C1607 H1594 0.929 . S
C1607 C1599 1.433 . S
C1607 N1609 1.384 . S
N1608 C1604 1.427 . S
N1608 C1605 1.384 . S
N1609 C1601 1.427 . S
N1609 C1607 1.384 . S
H1610 C1616 0.930 . S
H1611 C1620 0.930 . S
H1612 C1625 0.929 . S
H1613 C1623 0.929 . S
H1614 C1618 0.929 . S
H1615 C1624 0.929 . S
C1616 H1610 0.930 . S
C1616 C1617 1.367 . S
C1616 C1624 1.378 . S
C1617 C1616 1.367 . S
C1617 C1625 1.433 . S
C1618 H1614 0.929 . S
C1618 C1620 1.378 . S
C1618 C1622 1.350 . S
C1619 C1622 1.463 . S
C1619 C1624 1.350 . S
C1619 N1627 1.427 . S
C1620 H1611 0.930 . S
C1620 C1618 1.378 . S
C1620 C1621 1.367 . S
C1621 C1620 1.367 . S
C1621 C1623 1.433 . S
C1622 C1618 1.350 . S
C1622 C1619 1.463 . S
C1622 N1626 1.427 . S
C1623 H1613 0.929 . S
C1623 C1621 1.433 . S
C1623 N1626 1.384 . S
C1624 H1615 0.929 . S
C1624 C1616 1.378 . S
C1624 C1619 1.350 . S
C1625 H1612 0.929 . S
C1625 C1617 1.433 . S
C1625 N1627 1.384 . S
N1626 C1622 1.427 . S
N1626 C1623 1.384 . S
N1627 C1619 1.427 . S
N1627 C1625 1.384 . S
H1628 C1634 0.930 . S
H1629 C1638 0.930 . S
H1630 C1643 0.929 . S
H1631 C1641 0.929 . S
H1632 C1636 0.929 . S
H1633 C1642 0.929 . S
C1634 H1628 0.930 . S
C1634 C1635 1.367 1_455 S
C1634 C1642 1.378 . S
C1635 C1634 1.367 1_655 S
C1635 C1643 1.433 . S
C1636 H1632 0.929 . S
C1636 C1638 1.378 . S
C1636 C1640 1.350 . S
C1637 C1640 1.463 . S
C1637 C1642 1.350 1_655 S
C1637 N1645 1.427 . S
C1638 H1629 0.930 . S
C1638 C1636 1.378 . S
C1638 C1639 1.367 . S
C1639 C1638 1.367 . S
C1639 C1641 1.433 1_655 S
C1640 C1636 1.350 . S
C1640 C1637 1.463 . S
C1640 N1644 1.427 1_655 S
C1641 H1631 0.929 . S
C1641 C1639 1.433 1_455 S
C1641 N1644 1.384 . S
C1642 H1633 0.929 . S
C1642 C1634 1.378 . S
C1642 C1637 1.350 1_455 S
C1643 H1630 0.929 . S
C1643 C1635 1.433 . S
C1643 N1645 1.384 . S
N1644 C1640 1.427 1_455 S
N1644 C1641 1.384 . S
N1645 C1637 1.427 . S
N1645 C1643 1.384 . S
H1646 C1652 0.930 . S
H1647 C1656 0.930 . S
H1648 C1661 0.929 . S
H1649 C1659 0.929 . S
H1650 C1654 0.929 . S
H1651 C1660 0.929 . S
C1652 H1646 0.930 . S
C1652 C1653 1.367 . S
C1652 C1660 1.378 . S
C1653 C1652 1.367 . S
C1653 C1661 1.433 . S
C1654 H1650 0.929 . S
C1654 C1656 1.378 . S
C1654 C1658 1.350 . S
C1655 C1658 1.463 . S
C1655 C1660 1.350 . S
C1655 N1663 1.427 . S
C1656 H1647 0.930 . S
C1656 C1654 1.378 . S
C1656 C1657 1.367 . S
C1657 C1656 1.367 . S
C1657 C1659 1.433 . S
C1658 C1654 1.350 . S
C1658 C1655 1.463 . S
C1658 N1662 1.427 . S
C1659 H1649 0.929 . S
C1659 C1657 1.433 . S
C1659 N1662 1.384 . S
C1660 H1651 0.929 . S
C1660 C1652 1.378 . S
C1660 C1655 1.350 . S
C1661 H1648 0.929 . S
C1661 C1653 1.433 . S
C1661 N1663 1.384 . S
N1662 C1658 1.427 . S
N1662 C1659 1.384 . S
N1663 C1655 1.427 . S
N1663 C1661 1.384 . S
H1664 C1670 0.930 . S
H1665 C1674 0.930 . S
H1666 C1679 0.929 . S
H1667 C1677 0.929 . S
H1668 C1672 0.929 . S
H1669 C1678 0.929 . S
C1670 H1664 0.930 . S
C1670 C1671 1.367 . S
C1670 C1678 1.378 . S
C1671 C1670 1.367 . S
C1671 C1679 1.433 . S
C1672 H1668 0.929 . S
C1672 C1674 1.378 . S
C1672 C1676 1.350 . S
C1673 C1676 1.463 . S
C1673 C1678 1.350 . S
C1673 N1681 1.427 . S
C1674 H1665 0.930 . S
C1674 C1672 1.378 . S
C1674 C1675 1.367 . S
C1675 C1674 1.367 . S
C1675 C1677 1.433 . S
C1676 C1672 1.350 . S
C1676 C1673 1.463 . S
C1676 N1680 1.427 . S
C1677 H1667 0.929 . S
C1677 C1675 1.433 . S
C1677 N1680 1.384 . S
C1678 H1669 0.929 . S
C1678 C1670 1.378 . S
C1678 C1673 1.350 . S
C1679 H1666 0.929 . S
C1679 C1671 1.433 . S
C1679 N1681 1.384 . S
N1680 C1676 1.427 . S
N1680 C1677 1.384 . S
N1681 C1673 1.427 . S
N1681 C1679 1.384 . S
H1682 C1688 0.930 . S
H1683 C1692 0.930 . S
H1684 C1697 0.929 . S
H1685 C1695 0.929 . S
H1686 C1690 0.929 . S
H1687 C1696 0.929 . S
C1688 H1682 0.930 . S
C1688 C1689 1.367 . S
C1688 C1696 1.378 . S
C1689 C1688 1.367 . S
C1689 C1697 1.433 . S
C1690 H1686 0.929 . S
C1690 C1692 1.378 . S
C1690 C1694 1.350 . S
C1691 C1694 1.463 . S
C1691 C1696 1.350 . S
C1691 N1699 1.427 . S
C1692 H1683 0.930 . S
C1692 C1690 1.378 . S
C1692 C1693 1.367 . S
C1693 C1692 1.367 . S
C1693 C1695 1.433 . S
C1694 C1690 1.350 . S
C1694 C1691 1.463 . S
C1694 N1698 1.427 . S
C1695 H1685 0.929 . S
C1695 C1693 1.433 . S
C1695 N1698 1.384 . S
C1696 H1687 0.929 . S
C1696 C1688 1.378 . S
C1696 C1691 1.350 . S
C1697 H1684 0.929 . S
C1697 C1689 1.433 . S
C1697 N1699 1.384 . S
N1698 C1694 1.427 . S
N1698 C1695 1.384 . S
N1699 C1691 1.427 . S
N1699 C1697 1.384 . S
H1700 C1706 0.930 . S
H1701 C1710 0.930 1_655 S
H1702 C1715 0.929 . S
H1703 C1713 0.929 . S
H1704 C1708 0.929 . S
H1705 C1714 0.929 . S
C1706 H1700 0.930 . S
C1706 C1707 1.367 . S
C1706 C1714 1.378 . S
C1707 C1706 1.367 . S
C1707 C1715 1.433 . S
C1708 H1704 0.929 . S
C1708 C1710 1.378 . S
C1708 C1712 1.350 . S
C1709 C1712 1.463 . S
C1709 C1714 1.350 . S
C1709 N1717 1.427 . S
C1710 H1701 0.930 1_455 S
C1710 C1708 1.378 . S
C1710 C1711 1.367 . S
C1711 C1710 1.367 . S
C1711 C1713 1.433 . S
C1712 C1708 1.350 . S
C1712 C1709 1.463 . S
C1712 N1716 1.427 . S
C1713 H1703 0.929 . S
C1713 C1711 1.433 . S
C1713 N1716 1.384 . S
C1714 H1705 0.929 . S
C1714 C1706 1.378 . S
C1714 C1709 1.350 . S
C1715 H1702 0.929 . S
C1715 C1707 1.433 . S
C1715 N1717 1.384 . S
N1716 C1712 1.427 . S
N1716 C1713 1.384 . S
N1717 C1709 1.427 . S
N1717 C1715 1.384 . S
H1718 C1724 0.930 . S
H1719 C1728 0.930 . S
H1720 C1733 0.929 . S
H1721 C1731 0.929 . S
H1722 C1726 0.929 . S
H1723 C1732 0.929 . S
C1724 H1718 0.930 . S
C1724 C1725 1.367 . S
C1724 C1732 1.378 . S
C1725 C1724 1.367 . S
C1725 C1733 1.433 . S
C1726 H1722 0.929 . S
C1726 C1728 1.378 . S
C1726 C1730 1.350 . S
C1727 C1730 1.463 . S
C1727 C1732 1.350 . S
C1727 N1735 1.427 . S
C1728 H1719 0.930 . S
C1728 C1726 1.378 . S
C1728 C1729 1.367 . S
C1729 C1728 1.367 . S
C1729 C1731 1.433 . S
C1730 C1726 1.350 . S
C1730 C1727 1.463 . S
C1730 N1734 1.427 . S
C1731 H1721 0.929 . S
C1731 C1729 1.433 . S
C1731 N1734 1.384 . S
C1732 H1723 0.929 . S
C1732 C1724 1.378 . S
C1732 C1727 1.350 . S
C1733 H1720 0.929 . S
C1733 C1725 1.433 . S
C1733 N1735 1.384 . S
N1734 C1730 1.427 . S
N1734 C1731 1.384 . S
N1735 C1727 1.427 . S
N1735 C1733 1.384 . S
H1736 C1742 0.930 . S
H1737 C1746 0.930 . S
H1738 C1751 0.929 . S
H1739 C1749 0.929 . S
H1740 C1744 0.929 . S
H1741 C1750 0.929 . S
C1742 H1736 0.930 . S
C1742 C1743 1.367 . S
C1742 C1750 1.378 . S
C1743 C1742 1.367 . S
C1743 C1751 1.433 . S
C1744 H1740 0.929 . S
C1744 C1746 1.378 . S
C1744 C1748 1.350 . S
C1745 C1748 1.463 . S
C1745 C1750 1.350 . S
C1745 N1753 1.427 . S
C1746 H1737 0.930 . S
C1746 C1744 1.378 . S
C1746 C1747 1.367 . S
C1747 C1746 1.367 . S
C1747 C1749 1.433 . S
C1748 C1744 1.350 . S
C1748 C1745 1.463 . S
C1748 N1752 1.427 . S
C1749 H1739 0.929 . S
C1749 C1747 1.433 . S
C1749 N1752 1.384 . S
C1750 H1741 0.929 . S
C1750 C1742 1.378 . S
C1750 C1745 1.350 . S
C1751 H1738 0.929 . S
C1751 C1743 1.433 . S
C1751 N1753 1.384 . S
N1752 C1748 1.427 . S
N1752 C1749 1.384 . S
N1753 C1745 1.427 . S
N1753 C1751 1.384 . S
H1754 C1760 0.930 . S
H1755 C1764 0.930 . S
H1756 C1769 0.929 . S
H1757 C1767 0.929 . S
H1758 C1762 0.929 . S
H1759 C1768 0.929 . S
C1760 H1754 0.930 . S
C1760 C1761 1.367 . S
C1760 C1768 1.378 . S
C1761 C1760 1.367 . S
C1761 C1769 1.433 . S
C1762 H1758 0.929 . S
C1762 C1764 1.378 . S
C1762 C1766 1.350 . S
C1763 C1766 1.463 . S
C1763 C1768 1.350 . S
C1763 N1771 1.427 . S
C1764 H1755 0.930 . S
C1764 C1762 1.378 . S
C1764 C1765 1.367 . S
C1765 C1764 1.367 . S
C1765 C1767 1.433 . S
C1766 C1762 1.350 . S
C1766 C1763 1.463 . S
C1766 N1770 1.427 . S
C1767 H1757 0.929 . S
C1767 C1765 1.433 . S
C1767 N1770 1.384 . S
C1768 H1759 0.929 . S
C1768 C1760 1.378 . S
C1768 C1763 1.350 . S
C1769 H1756 0.929 . S
C1769 C1761 1.433 . S
C1769 N1771 1.384 . S
N1770 C1766 1.427 . S
N1770 C1767 1.384 . S
N1771 C1763 1.427 . S
N1771 C1769 1.384 . S
H1772 C1778 0.930 . S
H1773 C1782 0.930 1_655 S
H1774 C1787 0.929 . S
H1775 C1785 0.929 . S
H1776 C1780 0.929 . S
H1777 C1786 0.929 . S
C1778 H1772 0.930 . S
C1778 C1779 1.367 . S
C1778 C1786 1.378 . S
C1779 C1778 1.367 . S
C1779 C1787 1.433 . S
C1780 H1776 0.929 . S
C1780 C1782 1.378 . S
C1780 C1784 1.350 . S
C1781 C1784 1.463 . S
C1781 C1786 1.350 . S
C1781 N1789 1.427 . S
C1782 H1773 0.930 1_455 S
C1782 C1780 1.378 . S
C1782 C1783 1.367 . S
C1783 C1782 1.367 . S
C1783 C1785 1.433 . S
C1784 C1780 1.350 . S
C1784 C1781 1.463 . S
C1784 N1788 1.427 . S
C1785 H1775 0.929 . S
C1785 C1783 1.433 . S
C1785 N1788 1.384 . S
C1786 H1777 0.929 . S
C1786 C1778 1.378 . S
C1786 C1781 1.350 . S
C1787 H1774 0.929 . S
C1787 C1779 1.433 . S
C1787 N1789 1.384 . S
N1788 C1784 1.427 . S
N1788 C1785 1.384 . S
N1789 C1781 1.427 . S
N1789 C1787 1.384 . S
H1790 C1796 0.930 . S
H1791 C1800 0.930 . S
H1792 C1805 0.929 . S
H1793 C1803 0.929 . S
H1794 C1798 0.929 . S
H1795 C1804 0.929 . S
C1796 H1790 0.930 . S
C1796 C1797 1.367 . S
C1796 C1804 1.378 . S
C1797 C1796 1.367 . S
C1797 C1805 1.433 . S
C1798 H1794 0.929 . S
C1798 C1800 1.378 . S
C1798 C1802 1.350 . S
C1799 C1802 1.463 . S
C1799 C1804 1.350 . S
C1799 N1807 1.427 . S
C1800 H1791 0.930 . S
C1800 C1798 1.378 . S
C1800 C1801 1.367 . S
C1801 C1800 1.367 . S
C1801 C1803 1.433 . S
C1802 C1798 1.350 . S
C1802 C1799 1.463 . S
C1802 N1806 1.427 . S
C1803 H1793 0.929 . S
C1803 C1801 1.433 . S
C1803 N1806 1.384 . S
C1804 H1795 0.929 . S
C1804 C1796 1.378 . S
C1804 C1799 1.350 . S
C1805 H1792 0.929 . S
C1805 C1797 1.433 . S
C1805 N1807 1.384 . S
N1806 C1802 1.427 . S
N1806 C1803 1.384 . S
N1807 C1799 1.427 . S
N1807 C1805 1.384 . S
H1808 C1814 0.930 . S
H1809 C1818 0.930 . S
H1810 C1823 0.929 . S
H1811 C1821 0.929 . S
H1812 C1816 0.929 . S
H1813 C1822 0.929 . S
C1814 H1808 0.930 . S
C1814 C1815 1.367 . S
C1814 C1822 1.378 . S
C1815 C1814 1.367 . S
C1815 C1823 1.433 . S
C1816 H1812 0.929 . S
C1816 C1818 1.378 . S
C1816 C1820 1.350 . S
C1817 C1820 1.463 . S
C1817 C1822 1.350 . S
C1817 N1825 1.427 . S
C1818 H1809 0.930 . S
C1818 C1816 1.378 . S
C1818 C1819 1.367 . S
C1819 C1818 1.367 . S
C1819 C1821 1.433 . S
C1820 C1816 1.350 . S
C1820 C1817 1.463 . S
C1820 N1824 1.427 . S
C1821 H1811 0.929 . S
C1821 C1819 1.433 . S
C1821 N1824 1.384 . S
C1822 H1813 0.929 . S
C1822 C1814 1.378 . S
C1822 C1817 1.350 . S
C1823 H1810 0.929 . S
C1823 C1815 1.433 . S
C1823 N1825 1.384 . S
N1824 C1820 1.427 . S
N1824 C1821 1.384 . S
N1825 C1817 1.427 . S
N1825 C1823 1.384 . S
H1826 C1832 0.930 . S
H1827 C1836 0.930 . S
H1828 C1841 0.929 . S
H1829 C1839 0.929 . S
H1830 C1834 0.929 . S
H1831 C1840 0.929 . S
C1832 H1826 0.930 . S
C1832 C1833 1.367 . S
C1832 C1840 1.378 . S
C1833 C1832 1.367 . S
C1833 C1841 1.433 . S
C1834 H1830 0.929 . S
C1834 C1836 1.378 . S
C1834 C1838 1.350 . S
C1835 C1838 1.463 . S
C1835 C1840 1.350 . S
C1835 N1843 1.427 . S
C1836 H1827 0.930 . S
C1836 C1834 1.378 . S
C1836 C1837 1.367 . S
C1837 C1836 1.367 . S
C1837 C1839 1.433 . S
C1838 C1834 1.350 . S
C1838 C1835 1.463 . S
C1838 N1842 1.427 . S
C1839 H1829 0.929 . S
C1839 C1837 1.433 . S
C1839 N1842 1.384 . S
C1840 H1831 0.929 . S
C1840 C1832 1.378 . S
C1840 C1835 1.350 . S
C1841 H1828 0.929 . S
C1841 C1833 1.433 . S
C1841 N1843 1.384 . S
N1842 C1838 1.427 . S
N1842 C1839 1.384 . S
N1843 C1835 1.427 . S
N1843 C1841 1.384 . S
H1844 C1850 0.930 . S
H1845 C1854 0.930 . S
H1846 C1859 0.929 . S
H1847 C1857 0.929 . S
H1848 C1852 0.929 . S
H1849 C1858 0.929 . S
C1850 H1844 0.930 . S
C1850 C1851 1.367 . S
C1850 C1858 1.378 . S
C1851 C1850 1.367 . S
C1851 C1859 1.433 . S
C1852 H1848 0.929 . S
C1852 C1854 1.378 . S
C1852 C1856 1.350 . S
C1853 C1856 1.463 . S
C1853 C1858 1.350 . S
C1853 N1861 1.427 . S
C1854 H1845 0.930 . S
C1854 C1852 1.378 . S
C1854 C1855 1.367 . S
C1855 C1854 1.367 . S
C1855 C1857 1.433 . S
C1856 C1852 1.350 . S
C1856 C1853 1.463 . S
C1856 N1860 1.427 . S
C1857 H1847 0.929 . S
C1857 C1855 1.433 . S
C1857 N1860 1.384 . S
C1858 H1849 0.929 . S
C1858 C1850 1.378 . S
C1858 C1853 1.350 . S
C1859 H1846 0.929 . S
C1859 C1851 1.433 . S
C1859 N1861 1.384 . S
N1860 C1856 1.427 . S
N1860 C1857 1.384 . S
N1861 C1853 1.427 . S
N1861 C1859 1.384 . S
H1862 C1868 0.930 . S
H1863 C1872 0.930 . S
H1864 C1877 0.929 1_556 S
H1865 C1875 0.929 . S
H1866 C1870 0.929 . S
H1867 C1876 0.929 . S
C1868 H1862 0.930 . S
C1868 C1869 1.367 . S
C1868 C1876 1.378 . S
C1869 C1868 1.367 . S
C1869 C1877 1.433 . S
C1870 H1866 0.929 . S
C1870 C1872 1.378 . S
C1870 C1874 1.350 1_556 S
C1871 C1874 1.463 . S
C1871 C1876 1.350 . S
C1871 N1879 1.427 . S
C1872 H1863 0.930 . S
C1872 C1870 1.378 . S
C1872 C1873 1.367 1_566 S
C1873 C1872 1.367 1_544 S
C1873 C1875 1.433 . S
C1874 C1870 1.350 1_554 S
C1874 C1871 1.463 . S
C1874 N1878 1.427 . S
C1875 H1865 0.929 . S
C1875 C1873 1.433 . S
C1875 N1878 1.384 1_545 S
C1876 H1867 0.929 . S
C1876 C1868 1.378 . S
C1876 C1871 1.350 . S
C1877 H1864 0.929 1_554 S
C1877 C1869 1.433 . S
C1877 N1879 1.384 . S
N1878 C1874 1.427 . S
N1878 C1875 1.384 1_565 S
N1879 C1871 1.427 . S
N1879 C1877 1.384 . S
H1880 C1886 0.930 . S
H1881 C1890 0.930 . S
H1882 C1895 0.929 . S
H1883 C1893 0.929 . S
H1884 C1888 0.929 . S
H1885 C1894 0.929 . S
C1886 H1880 0.930 . S
C1886 C1887 1.367 . S
C1886 C1894 1.378 . S
C1887 C1886 1.367 . S
C1887 C1895 1.433 . S
C1888 H1884 0.929 . S
C1888 C1890 1.378 . S
C1888 C1892 1.350 . S
C1889 C1892 1.463 . S
C1889 C1894 1.350 . S
C1889 N1897 1.427 . S
C1890 H1881 0.930 . S
C1890 C1888 1.378 . S
C1890 C1891 1.367 . S
C1891 C1890 1.367 . S
C1891 C1893 1.433 . S
C1892 C1888 1.350 . S
C1892 C1889 1.463 . S
C1892 N1896 1.427 . S
C1893 H1883 0.929 . S
C1893 C1891 1.433 . S
C1893 N1896 1.384 . S
C1894 H1885 0.929 . S
C1894 C1886 1.378 . S
C1894 C1889 1.350 . S
C1895 H1882 0.929 . S
C1895 C1887 1.433 . S
C1895 N1897 1.384 . S
N1896 C1892 1.427 . S
N1896 C1893 1.384 . S
N1897 C1889 1.427 . S
N1897 C1895 1.384 . S
H1898 C1904 0.930 . S
H1899 C1908 0.930 . S
H1900 C1913 0.929 . S
H1901 C1911 0.929 1_556 S
H1902 C1906 0.929 . S
H1903 C1912 0.929 . S
C1904 H1898 0.930 . S
C1904 C1905 1.367 1_556 S
C1904 C1912 1.378 . S
C1905 C1904 1.367 1_554 S
C1905 C1913 1.433 . S
C1906 H1902 0.929 . S
C1906 C1908 1.378 . S
C1906 C1910 1.350 . S
C1907 C1910 1.463 . S
C1907 C1912 1.350 1_554 S
C1907 N1915 1.427 . S
C1908 H1899 0.930 . S
C1908 C1906 1.378 . S
C1908 C1909 1.367 . S
C1909 C1908 1.367 . S
C1909 C1911 1.433 . S
C1910 C1906 1.350 . S
C1910 C1907 1.463 . S
C1910 N1914 1.427 . S
C1911 H1901 0.929 1_554 S
C1911 C1909 1.433 . S
C1911 N1914 1.384 . S
C1912 H1903 0.929 . S
C1912 C1904 1.378 . S
C1912 C1907 1.350 1_556 S
C1913 H1900 0.929 . S
C1913 C1905 1.433 . S
C1913 N1915 1.384 . S
N1914 C1910 1.427 . S
N1914 C1911 1.384 . S
N1915 C1907 1.427 . S
N1915 C1913 1.384 . S
H1916 C1922 0.930 . S
H1917 C1926 0.930 . S
H1918 C1931 0.929 . S
H1919 C1929 0.929 . S
H1920 C1924 0.929 . S
H1921 C1930 0.929 . S
C1922 H1916 0.930 . S
C1922 C1923 1.367 . S
C1922 C1930 1.378 . S
C1923 C1922 1.367 . S
C1923 C1931 1.433 . S
C1924 H1920 0.929 . S
C1924 C1926 1.378 . S
C1924 C1928 1.350 . S
C1925 C1928 1.463 . S
C1925 C1930 1.350 . S
C1925 N1933 1.427 . S
C1926 H1917 0.930 . S
C1926 C1924 1.378 . S
C1926 C1927 1.367 . S
C1927 C1926 1.367 . S
C1927 C1929 1.433 . S
C1928 C1924 1.350 . S
C1928 C1925 1.463 . S
C1928 N1932 1.427 . S
C1929 H1919 0.929 . S
C1929 C1927 1.433 . S
C1929 N1932 1.384 . S
C1930 H1921 0.929 . S
C1930 C1922 1.378 . S
C1930 C1925 1.350 . S
C1931 H1918 0.929 . S
C1931 C1923 1.433 . S
C1931 N1933 1.384 . S
N1932 C1928 1.427 . S
N1932 C1929 1.384 . S
N1933 C1925 1.427 . S
N1933 C1931 1.384 . S
H1934 C1940 0.954 . S
H1935 C1944 0.930 . S
H1936 C1949 0.929 . S
H1937 C1947 0.929 . S
H1938 C1942 0.929 . S
H1939 C1948 0.929 . S
C1940 H1934 0.954 . S
C1940 C1941 1.367 . S
C1940 C1948 1.378 . S
C1941 C1940 1.367 . S
C1941 C1949 1.433 . S
C1942 H1938 0.929 . S
C1942 C1944 1.378 . S
C1942 C1946 1.350 . S
C1943 C1946 1.463 . S
C1943 C1948 1.350 . S
C1943 N1951 1.427 . S
C1944 H1935 0.930 . S
C1944 C1942 1.378 . S
C1944 C1945 1.367 . S
C1945 C1944 1.367 . S
C1945 C1947 1.433 . S
C1946 C1942 1.350 . S
C1946 C1943 1.463 . S
C1946 N1950 1.427 . S
C1947 H1937 0.929 . S
C1947 C1945 1.433 . S
C1947 N1950 1.384 . S
C1948 H1939 0.929 . S
C1948 C1940 1.378 . S
C1948 C1943 1.350 . S
C1949 H1936 0.929 . S
C1949 C1941 1.433 . S
C1949 N1951 1.384 . S
N1950 C1946 1.427 . S
N1950 C1947 1.384 . S
N1951 C1943 1.427 . S
N1951 C1949 1.384 . S
H1952 C1958 0.930 . S
H1953 C1962 0.930 . S
H1954 C1967 0.929 . S
H1955 C1965 0.929 . S
H1956 C1960 0.929 . S
H1957 C1966 0.929 . S
C1958 H1952 0.930 . S
C1958 C1959 1.367 . S
C1958 C1966 1.378 . S
C1959 C1958 1.367 . S
C1959 C1967 1.433 . S
C1960 H1956 0.929 . S
C1960 C1962 1.378 . S
C1960 C1964 1.350 . S
C1961 C1964 1.463 . S
C1961 C1966 1.350 . S
C1961 N1969 1.427 . S
C1962 H1953 0.930 . S
C1962 C1960 1.378 . S
C1962 C1963 1.367 . S
C1963 C1962 1.367 . S
C1963 C1965 1.433 . S
C1964 C1960 1.350 . S
C1964 C1961 1.463 . S
C1964 N1968 1.427 . S
C1965 H1955 0.929 . S
C1965 C1963 1.433 . S
C1965 N1968 1.384 . S
C1966 H1957 0.929 . S
C1966 C1958 1.378 . S
C1966 C1961 1.350 . S
C1967 H1954 0.929 . S
C1967 C1959 1.433 . S
C1967 N1969 1.384 . S
N1968 C1964 1.427 . S
N1968 C1965 1.384 . S
N1969 C1961 1.427 . S
N1969 C1967 1.384 . S
H1970 C1976 0.930 . S
H1971 C1980 0.930 . S
H1972 C1985 0.929 . S
H1973 C1983 0.929 . S
H1974 C1978 0.929 . S
H1975 C1984 0.929 . S
C1976 H1970 0.930 . S
C1976 C1977 1.367 . S
C1976 C1984 1.378 . S
C1977 C1976 1.367 . S
C1977 C1985 1.433 . S
C1978 H1974 0.929 . S
C1978 C1980 1.378 . S
C1978 C1982 1.350 . S
C1979 C1982 1.463 . S
C1979 C1984 1.350 . S
C1979 N1987 1.427 . S
C1980 H1971 0.930 . S
C1980 C1978 1.378 . S
C1980 C1981 1.367 . S
C1981 C1980 1.367 . S
C1981 C1983 1.433 . S
C1982 C1978 1.350 . S
C1982 C1979 1.463 . S
C1982 N1986 1.427 . S
C1983 H1973 0.929 . S
C1983 C1981 1.433 . S
C1983 N1986 1.384 . S
C1984 H1975 0.929 . S
C1984 C1976 1.378 . S
C1984 C1979 1.350 . S
C1985 H1972 0.929 . S
C1985 C1977 1.433 . S
C1985 N1987 1.384 . S
N1986 C1982 1.427 . S
N1986 C1983 1.384 . S
N1987 C1979 1.427 . S
N1987 C1985 1.384 . S
H1988 C1994 0.930 . S
H1989 C1998 0.930 . S
H1990 C2003 0.929 . S
H1991 C2001 0.929 . S
H1992 C1996 0.929 . S
H1993 C2002 0.929 . S
C1994 H1988 0.930 . S
C1994 C1995 1.367 1_655 S
C1994 C2002 1.378 . S
C1995 C1994 1.367 1_455 S
C1995 C2003 1.433 . S
C1996 H1992 0.929 . S
C1996 C1998 1.378 . S
C1996 C2000 1.350 . S
C1997 C2000 1.463 . S
C1997 C2002 1.350 1_455 S
C1997 N2005 1.427 . S
C1998 H1989 0.930 . S
C1998 C1996 1.378 . S
C1998 C1999 1.367 . S
C1999 C1998 1.367 . S
C1999 C2001 1.433 1_455 S
C2000 C1996 1.350 . S
C2000 C1997 1.463 . S
C2000 N2004 1.427 1_455 S
C2001 H1991 0.929 . S
C2001 C1999 1.433 1_655 S
C2001 N2004 1.384 . S
C2002 H1993 0.929 . S
C2002 C1994 1.378 . S
C2002 C1997 1.350 1_655 S
C2003 H1990 0.929 . S
C2003 C1995 1.433 . S
C2003 N2005 1.384 . S
N2004 C2000 1.427 1_655 S
N2004 C2001 1.384 . S
N2005 C1997 1.427 . S
N2005 C2003 1.384 . S
H2006 C2012 0.930 . S
H2007 C2016 0.930 . S
H2008 C2021 0.929 . S
H2009 C2019 0.929 . S
H2010 C2014 0.929 . S
H2011 C2020 0.929 . S
C2012 H2006 0.930 . S
C2012 C2013 1.367 . S
C2012 C2020 1.378 . S
C2013 C2012 1.367 . S
C2013 C2021 1.433 . S
C2014 H2010 0.929 . S
C2014 C2016 1.378 . S
C2014 C2018 1.350 . S
C2015 C2018 1.463 . S
C2015 C2020 1.350 . S
C2015 N2023 1.427 . S
C2016 H2007 0.930 . S
C2016 C2014 1.378 . S
C2016 C2017 1.367 . S
C2017 C2016 1.367 . S
C2017 C2019 1.433 . S
C2018 C2014 1.350 . S
C2018 C2015 1.463 . S
C2018 N2022 1.427 . S
C2019 H2009 0.929 . S
C2019 C2017 1.433 . S
C2019 N2022 1.384 . S
C2020 H2011 0.929 . S
C2020 C2012 1.378 . S
C2020 C2015 1.350 . S
C2021 H2008 0.929 . S
C2021 C2013 1.433 . S
C2021 N2023 1.384 . S
N2022 C2018 1.427 . S
N2022 C2019 1.384 . S
N2023 C2015 1.427 . S
N2023 C2021 1.384 . S
H2024 C2030 0.930 . S
H2025 C2034 0.930 . S
H2026 C2039 0.929 . S
H2027 C2037 0.929 1_554 S
H2028 C2032 0.929 . S
H2029 C2038 0.929 . S
C2030 H2024 0.930 . S
C2030 C2031 1.367 . S
C2030 C2038 1.378 . S
C2031 C2030 1.367 . S
C2031 C2039 1.433 . S
C2032 H2028 0.929 . S
C2032 C2034 1.378 . S
C2032 C2036 1.350 . S
C2033 C2036 1.463 . S
C2033 C2038 1.350 . S
C2033 N2041 1.427 . S
C2034 H2025 0.930 . S
C2034 C2032 1.378 . S
C2034 C2035 1.367 . S
C2035 C2034 1.367 . S
C2035 C2037 1.433 . S
C2036 C2032 1.350 . S
C2036 C2033 1.463 . S
C2036 N2040 1.427 . S
C2037 H2027 0.929 1_556 S
C2037 C2035 1.433 . S
C2037 N2040 1.384 . S
C2038 H2029 0.929 . S
C2038 C2030 1.378 . S
C2038 C2033 1.350 . S
C2039 H2026 0.929 . S
C2039 C2031 1.433 . S
C2039 N2041 1.384 . S
N2040 C2036 1.427 . S
N2040 C2037 1.384 . S
N2041 C2033 1.427 . S
N2041 C2039 1.384 . S
H2042 C2048 0.930 . S
H2043 C2052 0.930 . S
H2044 C2057 0.929 . S
H2045 C2055 0.929 . S
H2046 C2050 0.929 . S
H2047 C2056 0.929 . S
C2048 H2042 0.930 . S
C2048 C2049 1.367 . S
C2048 C2056 1.378 . S
C2049 C2048 1.367 . S
C2049 C2057 1.433 . S
C2050 H2046 0.929 . S
C2050 C2052 1.378 . S
C2050 C2054 1.350 . S
C2051 C2054 1.463 . S
C2051 C2056 1.350 . S
C2051 N2059 1.427 . S
C2052 H2043 0.930 . S
C2052 C2050 1.378 . S
C2052 C2053 1.367 . S
C2053 C2052 1.367 . S
C2053 C2055 1.433 . S
C2054 C2050 1.350 . S
C2054 C2051 1.463 . S
C2054 N2058 1.427 . S
C2055 H2045 0.929 . S
C2055 C2053 1.433 . S
C2055 N2058 1.384 . S
C2056 H2047 0.929 . S
C2056 C2048 1.378 . S
C2056 C2051 1.350 . S
C2057 H2044 0.929 . S
C2057 C2049 1.433 . S
C2057 N2059 1.384 . S
N2058 C2054 1.427 . S
N2058 C2055 1.384 . S
N2059 C2051 1.427 . S
N2059 C2057 1.384 . S
H2060 C2066 0.930 1_655 S
H2061 C2070 0.930 . S
H2062 C2075 0.929 . S
H2063 C2073 0.929 . S
H2064 C2068 0.929 . S
H2065 C2074 0.917 1_655 S
C2066 H2060 0.930 1_455 S
C2066 C2067 1.367 . S
C2066 C2074 1.382 . S
C2067 C2066 1.367 . S
C2067 C2075 1.433 . S
C2068 H2064 0.929 . S
C2068 C2070 1.378 . S
C2068 C2072 1.350 . S
C2069 C2072 1.463 . S
C2069 C2074 1.357 . S
C2069 N2077 1.427 . S
C2070 H2061 0.930 . S
C2070 C2068 1.378 . S
C2070 C2071 1.367 . S
C2071 C2070 1.367 . S
C2071 C2073 1.433 1_455 S
C2072 C2068 1.350 . S
C2072 C2069 1.463 . S
C2072 N2076 1.427 1_455 S
C2073 H2063 0.929 . S
C2073 C2071 1.433 1_655 S
C2073 N2076 1.384 . S
C2074 H2065 0.917 1_455 S
C2074 C2066 1.382 . S
C2074 C2069 1.357 . S
C2075 H2062 0.929 . S
C2075 C2067 1.433 . S
C2075 N2077 1.384 . S
N2076 C2072 1.427 1_655 S
N2076 C2073 1.384 . S
N2077 C2069 1.427 . S
N2077 C2075 1.384 . S
H2078 C2084 0.930 . S
H2079 C2088 0.930 . S
H2080 C2093 0.929 . S
H2081 C2091 0.929 . S
H2082 C2086 0.929 . S
H2083 C2092 0.929 . S
C2084 H2078 0.930 . S
C2084 C2085 1.367 . S
C2084 C2092 1.378 . S
C2085 C2084 1.367 . S
C2085 C2093 1.433 . S
C2086 H2082 0.929 . S
C2086 C2088 1.378 . S
C2086 C2090 1.350 . S
C2087 C2090 1.463 . S
C2087 C2092 1.350 . S
C2087 N2095 1.427 . S
C2088 H2079 0.930 . S
C2088 C2086 1.378 . S
C2088 C2089 1.367 . S
C2089 C2088 1.367 . S
C2089 C2091 1.433 . S
C2090 C2086 1.350 . S
C2090 C2087 1.463 . S
C2090 N2094 1.427 . S
C2091 H2081 0.929 . S
C2091 C2089 1.433 . S
C2091 N2094 1.384 . S
C2092 H2083 0.929 . S
C2092 C2084 1.378 . S
C2092 C2087 1.350 . S
C2093 H2080 0.929 . S
C2093 C2085 1.433 . S
C2093 N2095 1.384 . S
N2094 C2090 1.427 . S
N2094 C2091 1.384 . S
N2095 C2087 1.427 . S
N2095 C2093 1.384 . S
H2096 C2102 0.930 . S
H2097 C2106 0.930 . S
H2098 C2111 0.929 . S
H2099 C2109 0.929 . S
H2100 C2104 0.929 . S
H2101 C2110 0.929 . S
C2102 H2096 0.930 . S
C2102 C2103 1.367 . S
C2102 C2110 1.378 . S
C2103 C2102 1.367 . S
C2103 C2111 1.433 . S
C2104 H2100 0.929 . S
C2104 C2106 1.378 . S
C2104 C2108 1.350 . S
C2105 C2108 1.463 . S
C2105 C2110 1.350 . S
C2105 N2113 1.427 . S
C2106 H2097 0.930 . S
C2106 C2104 1.378 . S
C2106 C2107 1.367 . S
C2107 C2106 1.367 . S
C2107 C2109 1.433 . S
C2108 C2104 1.350 . S
C2108 C2105 1.463 . S
C2108 N2112 1.427 . S
C2109 H2099 0.929 . S
C2109 C2107 1.433 . S
C2109 N2112 1.384 . S
C2110 H2101 0.929 . S
C2110 C2102 1.378 . S
C2110 C2105 1.350 . S
C2111 H2098 0.929 . S
C2111 C2103 1.433 . S
C2111 N2113 1.384 . S
N2112 C2108 1.427 . S
N2112 C2109 1.384 . S
N2113 C2105 1.427 . S
N2113 C2111 1.384 . S
H2114 C2120 0.930 . S
H2115 C2124 0.930 . S
H2116 C2129 0.929 . S
H2117 C2127 0.929 . S
H2118 C2122 0.929 . S
H2119 C2128 0.929 . S
C2120 H2114 0.930 . S
C2120 C2121 1.367 . S
C2120 C2128 1.378 . S
C2121 C2120 1.367 . S
C2121 C2129 1.433 . S
C2122 H2118 0.929 . S
C2122 C2124 1.378 . S
C2122 C2126 1.350 . S
C2123 C2126 1.463 . S
C2123 C2128 1.350 . S
C2123 N2131 1.427 . S
C2124 H2115 0.930 . S
C2124 C2122 1.378 . S
C2124 C2125 1.367 . S
C2125 C2124 1.367 . S
C2125 C2127 1.433 . S
C2126 C2122 1.350 . S
C2126 C2123 1.463 . S
C2126 N2130 1.427 . S
C2127 H2117 0.929 . S
C2127 C2125 1.433 . S
C2127 N2130 1.384 . S
C2128 H2119 0.929 . S
C2128 C2120 1.378 . S
C2128 C2123 1.350 . S
C2129 H2116 0.929 . S
C2129 C2121 1.433 . S
C2129 N2131 1.384 . S
N2130 C2126 1.427 . S
N2130 C2127 1.384 . S
N2131 C2123 1.427 . S
N2131 C2129 1.384 . S
H2132 C2138 0.930 . S
H2133 C2142 0.930 . S
H2134 C2147 0.929 . S
H2135 C2145 0.929 1_455 S
H2136 C2140 0.929 . S
H2137 C2146 0.929 . S
C2138 H2132 0.930 . S
C2138 C2139 1.367 . S
C2138 C2146 1.378 . S
C2139 C2138 1.367 . S
C2139 C2147 1.433 . S
C2140 H2136 0.929 . S
C2140 C2142 1.378 . S
C2140 C2144 1.350 . S
C2141 C2144 1.463 . S
C2141 C2146 1.350 . S
C2141 N2149 1.427 . S
C2142 H2133 0.930 . S
C2142 C2140 1.378 . S
C2142 C2143 1.367 . S
C2143 C2142 1.367 . S
C2143 C2145 1.433 . S
C2144 C2140 1.350 . S
C2144 C2141 1.463 . S
C2144 N2148 1.427 . S
C2145 H2135 0.929 1_655 S
C2145 C2143 1.433 . S
C2145 N2148 1.384 . S
C2146 H2137 0.929 . S
C2146 C2138 1.378 . S
C2146 C2141 1.350 . S
C2147 H2134 0.929 . S
C2147 C2139 1.433 . S
C2147 N2149 1.384 . S
N2148 C2144 1.427 . S
N2148 C2145 1.384 . S
N2149 C2141 1.427 . S
N2149 C2147 1.384 . S
H2150 C2156 0.930 . S
H2151 C2160 0.930 . S
H2152 C2165 0.929 . S
H2153 C2163 0.929 . S
H2154 C2158 0.929 . S
H2155 C2164 0.929 . S
C2156 H2150 0.930 . S
C2156 C2157 1.367 . S
C2156 C2164 1.378 . S
C2157 C2156 1.367 . S
C2157 C2165 1.433 . S
C2158 H2154 0.929 . S
C2158 C2160 1.378 . S
C2158 C2162 1.350 . S
C2159 C2162 1.463 . S
C2159 C2164 1.350 . S
C2159 N2167 1.427 . S
C2160 H2151 0.930 . S
C2160 C2158 1.378 . S
C2160 C2161 1.367 . S
C2161 C2160 1.367 . S
C2161 C2163 1.433 . S
C2162 C2158 1.350 . S
C2162 C2159 1.463 . S
C2162 N2166 1.427 . S
C2163 H2153 0.929 . S
C2163 C2161 1.433 . S
C2163 N2166 1.384 . S
C2164 H2155 0.929 . S
C2164 C2156 1.378 . S
C2164 C2159 1.350 . S
C2165 H2152 0.929 . S
C2165 C2157 1.433 . S
C2165 N2167 1.384 . S
N2166 C2162 1.427 . S
N2166 C2163 1.384 . S
N2167 C2159 1.427 . S
N2167 C2165 1.384 . S
H2168 C2174 0.930 . S
H2169 C2178 0.930 . S
H2170 C2183 0.929 . S
H2171 C2181 0.929 . S
H2172 C2176 0.929 . S
H2173 C2182 0.929 . S
C2174 H2168 0.930 . S
C2174 C2175 1.367 . S
C2174 C2182 1.378 . S
C2175 C2174 1.367 . S
C2175 C2183 1.433 . S
C2176 H2172 0.929 . S
C2176 C2178 1.378 . S
C2176 C2180 1.350 . S
C2177 C2180 1.463 . S
C2177 C2182 1.350 . S
C2177 N2185 1.427 . S
C2178 H2169 0.930 . S
C2178 C2176 1.378 . S
C2178 C2179 1.367 . S
C2179 C2178 1.367 . S
C2179 C2181 1.433 . S
C2180 C2176 1.350 . S
C2180 C2177 1.463 . S
C2180 N2184 1.427 . S
C2181 H2171 0.929 . S
C2181 C2179 1.433 . S
C2181 N2184 1.384 . S
C2182 H2173 0.929 . S
C2182 C2174 1.378 . S
C2182 C2177 1.350 . S
C2183 H2170 0.929 . S
C2183 C2175 1.433 . S
C2183 N2185 1.384 . S
N2184 C2180 1.427 . S
N2184 C2181 1.384 . S
N2185 C2177 1.427 . S
N2185 C2183 1.384 . S
H2186 C2192 0.930 . S
H2187 C2196 0.930 . S
H2188 C2201 0.929 . S
H2189 C2199 0.929 . S
H2190 C2194 0.929 . S
H2191 C2200 0.929 . S
C2192 H2186 0.930 . S
C2192 C2193 1.367 . S
C2192 C2200 1.378 . S
C2193 C2192 1.367 . S
C2193 C2201 1.433 . S
C2194 H2190 0.929 . S
C2194 C2196 1.378 . S
C2194 C2198 1.350 . S
C2195 C2198 1.463 . S
C2195 C2200 1.350 . S
C2195 N2203 1.427 . S
C2196 H2187 0.930 . S
C2196 C2194 1.378 . S
C2196 C2197 1.367 . S
C2197 C2196 1.367 . S
C2197 C2199 1.433 . S
C2198 C2194 1.350 . S
C2198 C2195 1.463 . S
C2198 N2202 1.427 . S
C2199 H2189 0.929 . S
C2199 C2197 1.433 . S
C2199 N2202 1.384 . S
C2200 H2191 0.929 . S
C2200 C2192 1.378 . S
C2200 C2195 1.350 . S
C2201 H2188 0.929 . S
C2201 C2193 1.433 . S
C2201 N2203 1.384 . S
N2202 C2198 1.427 . S
N2202 C2199 1.384 . S
N2203 C2195 1.427 . S
N2203 C2201 1.384 . S
H2204 C2210 0.930 . S
H2205 C2214 0.930 1_455 S
H2206 C2219 0.929 . S
H2207 C2217 0.929 . S
H2208 C2212 0.929 . S
H2209 C2218 0.929 . S
C2210 H2204 0.930 . S
C2210 C2211 1.367 . S
C2210 C2218 1.378 . S
C2211 C2210 1.367 . S
C2211 C2219 1.433 . S
C2212 H2208 0.929 . S
C2212 C2214 1.378 . S
C2212 C2216 1.350 . S
C2213 C2216 1.463 . S
C2213 C2218 1.350 . S
C2213 N2221 1.427 . S
C2214 H2205 0.930 1_655 S
C2214 C2212 1.378 . S
C2214 C2215 1.367 . S
C2215 C2214 1.367 . S
C2215 C2217 1.433 . S
C2216 C2212 1.350 . S
C2216 C2213 1.463 . S
C2216 N2220 1.427 . S
C2217 H2207 0.929 . S
C2217 C2215 1.433 . S
C2217 N2220 1.384 . S
C2218 H2209 0.929 . S
C2218 C2210 1.378 . S
C2218 C2213 1.350 . S
C2219 H2206 0.929 . S
C2219 C2211 1.433 . S
C2219 N2221 1.384 . S
N2220 C2216 1.427 . S
N2220 C2217 1.384 . S
N2221 C2213 1.427 . S
N2221 C2219 1.384 . S
H2222 C2228 0.930 . S
H2223 C2232 0.930 . S
H2224 C2237 0.929 . S
H2225 C2235 0.929 . S
H2226 C2230 0.929 . S
H2227 C2236 0.929 . S
C2228 H2222 0.930 . S
C2228 C2229 1.367 . S
C2228 C2236 1.378 . S
C2229 C2228 1.367 . S
C2229 C2237 1.433 . S
C2230 H2226 0.929 . S
C2230 C2232 1.378 . S
C2230 C2234 1.350 . S
C2231 C2234 1.463 . S
C2231 C2236 1.350 . S
C2231 N2239 1.427 . S
C2232 H2223 0.930 . S
C2232 C2230 1.378 . S
C2232 C2233 1.367 . S
C2233 C2232 1.367 . S
C2233 C2235 1.433 . S
C2234 C2230 1.350 . S
C2234 C2231 1.463 . S
C2234 N2238 1.427 . S
C2235 H2225 0.929 . S
C2235 C2233 1.433 . S
C2235 N2238 1.384 . S
C2236 H2227 0.929 . S
C2236 C2228 1.378 . S
C2236 C2231 1.350 . S
C2237 H2224 0.929 . S
C2237 C2229 1.433 . S
C2237 N2239 1.384 . S
N2238 C2234 1.427 . S
N2238 C2235 1.384 . S
N2239 C2231 1.427 . S
N2239 C2237 1.384 . S
H2240 C2246 0.930 . S
H2241 C2250 0.930 . S
H2242 C2255 0.929 . S
H2243 C2253 0.929 . S
H2244 C2248 0.929 . S
H2245 C2254 0.929 . S
C2246 H2240 0.930 . S
C2246 C2247 1.367 . S
C2246 C2254 1.378 . S
C2247 C2246 1.367 . S
C2247 C2255 1.433 . S
C2248 H2244 0.929 . S
C2248 C2250 1.378 . S
C2248 C2252 1.350 . S
C2249 C2252 1.463 . S
C2249 C2254 1.350 . S
C2249 N2257 1.427 . S
C2250 H2241 0.930 . S
C2250 C2248 1.378 . S
C2250 C2251 1.367 . S
C2251 C2250 1.367 . S
C2251 C2253 1.433 . S
C2252 C2248 1.350 . S
C2252 C2249 1.463 . S
C2252 N2256 1.427 . S
C2253 H2243 0.929 . S
C2253 C2251 1.433 . S
C2253 N2256 1.384 . S
C2254 H2245 0.929 . S
C2254 C2246 1.378 . S
C2254 C2249 1.350 . S
C2255 H2242 0.929 . S
C2255 C2247 1.433 . S
C2255 N2257 1.384 . S
N2256 C2252 1.427 . S
N2256 C2253 1.384 . S
N2257 C2249 1.427 . S
N2257 C2255 1.384 . S
H2258 C2264 0.930 . S
H2259 C2268 0.930 . S
H2260 C2273 0.929 . S
H2261 C2271 0.929 . S
H2262 C2266 0.929 . S
H2263 C2272 0.929 . S
C2264 H2258 0.930 . S
C2264 C2265 1.367 . S
C2264 C2272 1.378 . S
C2265 C2264 1.367 . S
C2265 C2273 1.433 . S
C2266 H2262 0.929 . S
C2266 C2268 1.378 . S
C2266 C2270 1.350 . S
C2267 C2270 1.463 . S
C2267 C2272 1.350 . S
C2267 N2275 1.427 . S
C2268 H2259 0.930 . S
C2268 C2266 1.378 . S
C2268 C2269 1.367 . S
C2269 C2268 1.367 . S
C2269 C2271 1.433 1_565 S
C2270 C2266 1.350 . S
C2270 C2267 1.463 . S
C2270 N2274 1.427 . S
C2271 H2261 0.929 . S
C2271 C2269 1.433 1_545 S
C2271 N2274 1.384 1_545 S
C2272 H2263 0.929 . S
C2272 C2264 1.378 . S
C2272 C2267 1.350 . S
C2273 H2260 0.929 . S
C2273 C2265 1.433 . S
C2273 N2275 1.384 . S
N2274 C2270 1.427 . S
N2274 C2271 1.384 1_565 S
N2275 C2267 1.427 . S
N2275 C2273 1.384 . S
H2276 C2282 0.930 . S
H2277 C2286 0.930 . S
H2278 C2291 0.929 . S
H2279 C2289 0.929 . S
H2280 C2284 0.929 . S
H2281 C2290 0.929 . S
C2282 H2276 0.930 . S
C2282 C2283 1.367 . S
C2282 C2290 1.378 . S
C2283 C2282 1.367 . S
C2283 C2291 1.433 . S
C2284 H2280 0.929 . S
C2284 C2286 1.378 . S
C2284 C2288 1.350 . S
C2285 C2288 1.463 . S
C2285 C2290 1.350 . S
C2285 N2293 1.427 . S
C2286 H2277 0.930 . S
C2286 C2284 1.378 . S
C2286 C2287 1.367 . S
C2287 C2286 1.367 . S
C2287 C2289 1.433 . S
C2288 C2284 1.350 . S
C2288 C2285 1.463 . S
C2288 N2292 1.427 . S
C2289 H2279 0.929 . S
C2289 C2287 1.433 . S
C2289 N2292 1.384 . S
C2290 H2281 0.929 . S
C2290 C2282 1.378 . S
C2290 C2285 1.350 . S
C2291 H2278 0.929 . S
C2291 C2283 1.433 . S
C2291 N2293 1.384 . S
N2292 C2288 1.427 . S
N2292 C2289 1.384 . S
N2293 C2285 1.427 . S
N2293 C2291 1.384 . S
H2294 C2300 0.931 . S
H2295 C2304 0.930 . S
H2296 C2309 0.929 . S
H2297 C2307 0.929 . S
H2298 C2302 0.929 . S
H2299 C2308 0.929 . S
C2300 H2294 0.931 . S
C2300 C2301 1.363 1_554 S
C2300 C2308 1.381 . S
C2301 C2300 1.363 1_556 S
C2301 C2309 1.433 . S
C2302 H2298 0.929 . S
C2302 C2304 1.378 . S
C2302 C2306 1.352 . S
C2303 C2306 1.470 . S
C2303 C2308 1.350 1_556 S
C2303 N2311 1.427 . S
C2304 H2295 0.930 . S
C2304 C2302 1.378 . S
C2304 C2305 1.367 1_556 S
C2305 C2304 1.367 1_554 S
C2305 C2307 1.433 . S
C2306 C2302 1.352 . S
C2306 C2303 1.470 . S
C2306 N2310 1.419 1_556 S
C2307 H2297 0.929 . S
C2307 C2305 1.433 . S
C2307 N2310 1.384 . S
C2308 H2299 0.929 . S
C2308 C2300 1.381 . S
C2308 C2303 1.350 1_554 S
C2309 H2296 0.929 . S
C2309 C2301 1.433 . S
C2309 N2311 1.384 . S
N2310 C2306 1.419 1_554 S
N2310 C2307 1.384 . S
N2311 C2303 1.427 . S
N2311 C2309 1.384 . S
H2312 C2318 0.930 . S
H2313 C2322 0.930 . S
H2314 C2327 0.929 . S
H2315 C2325 0.929 . S
H2316 C2320 0.929 . S
H2317 C2326 0.929 . S
C2318 H2312 0.930 . S
C2318 C2319 1.367 . S
C2318 C2326 1.378 . S
C2319 C2318 1.367 . S
C2319 C2327 1.433 . S
C2320 H2316 0.929 . S
C2320 C2322 1.378 . S
C2320 C2324 1.350 . S
C2321 C2324 1.463 . S
C2321 C2326 1.350 . S
C2321 N2329 1.427 . S
C2322 H2313 0.930 . S
C2322 C2320 1.378 . S
C2322 C2323 1.367 . S
C2323 C2322 1.367 . S
C2323 C2325 1.433 . S
C2324 C2320 1.350 . S
C2324 C2321 1.463 . S
C2324 N2328 1.427 . S
C2325 H2315 0.929 . S
C2325 C2323 1.433 . S
C2325 N2328 1.384 . S
C2326 H2317 0.929 . S
C2326 C2318 1.378 . S
C2326 C2321 1.350 . S
C2327 H2314 0.929 . S
C2327 C2319 1.433 . S
C2327 N2329 1.384 . S
N2328 C2324 1.427 . S
N2328 C2325 1.384 . S
N2329 C2321 1.427 . S
N2329 C2327 1.384 . S
H2330 C2336 0.928 1_556 S
H2331 C2340 0.930 . S
H2332 C2345 0.929 . S
H2333 C2343 0.929 . S
H2334 C2338 0.929 . S
H2335 C2344 0.929 . S
C2336 H2330 0.928 1_554 S
C2336 C2337 1.369 . S
C2336 C2344 1.377 1_554 S
C2337 C2336 1.369 . S
C2337 C2345 1.433 . S
C2338 H2334 0.929 . S
C2338 C2340 1.378 . S
C2338 C2342 1.350 . S
C2339 C2342 1.463 . S
C2339 C2344 1.350 1_554 S
C2339 N2347 1.427 . S
C2340 H2331 0.930 . S
C2340 C2338 1.378 . S
C2340 C2341 1.367 1_554 S
C2341 C2340 1.367 1_556 S
C2341 C2343 1.433 . S
C2342 C2338 1.350 . S
C2342 C2339 1.463 . S
C2342 N2346 1.427 1_554 S
C2343 H2333 0.929 . S
C2343 C2341 1.433 . S
C2343 N2346 1.384 . S
C2344 H2335 0.929 . S
C2344 C2336 1.377 1_556 S
C2344 C2339 1.350 1_556 S
C2345 H2332 0.929 . S
C2345 C2337 1.433 . S
C2345 N2347 1.384 . S
N2346 C2342 1.427 1_556 S
N2346 C2343 1.384 . S
N2347 C2339 1.427 . S
N2347 C2345 1.384 . S
H2348 C2354 0.930 . S
H2349 C2358 0.930 . S
H2350 C2363 0.929 . S
H2351 C2361 0.929 . S
H2352 C2356 0.929 . S
H2353 C2362 0.929 . S
C2354 H2348 0.930 . S
C2354 C2355 1.367 . S
C2354 C2362 1.378 . S
C2355 C2354 1.367 . S
C2355 C2363 1.433 . S
C2356 H2352 0.929 . S
C2356 C2358 1.378 . S
C2356 C2360 1.350 . S
C2357 C2360 1.463 . S
C2357 C2362 1.350 . S
C2357 N2365 1.427 . S
C2358 H2349 0.930 . S
C2358 C2356 1.378 . S
C2358 C2359 1.367 . S
C2359 C2358 1.367 . S
C2359 C2361 1.433 . S
C2360 C2356 1.350 . S
C2360 C2357 1.463 . S
C2360 N2364 1.427 . S
C2361 H2351 0.929 . S
C2361 C2359 1.433 . S
C2361 N2364 1.384 . S
C2362 H2353 0.929 . S
C2362 C2354 1.378 . S
C2362 C2357 1.350 . S
C2363 H2350 0.929 . S
C2363 C2355 1.433 . S
C2363 N2365 1.384 . S
N2364 C2360 1.427 . S
N2364 C2361 1.384 . S
N2365 C2357 1.427 . S
N2365 C2363 1.384 . S
H2366 C2372 0.930 . S
H2367 C2376 0.930 . S
H2368 C2381 0.929 . S
H2369 C2379 0.929 . S
H2370 C2374 0.929 . S
H2371 C2380 0.929 . S
C2372 H2366 0.930 . S
C2372 C2373 1.367 . S
C2372 C2380 1.378 . S
C2373 C2372 1.367 . S
C2373 C2381 1.433 . S
C2374 H2370 0.929 . S
C2374 C2376 1.378 . S
C2374 C2378 1.350 . S
C2375 C2378 1.463 . S
C2375 C2380 1.350 . S
C2375 N2383 1.427 . S
C2376 H2367 0.930 . S
C2376 C2374 1.378 . S
C2376 C2377 1.367 . S
C2377 C2376 1.367 . S
C2377 C2379 1.433 . S
C2378 C2374 1.350 . S
C2378 C2375 1.463 . S
C2378 N2382 1.427 . S
C2379 H2369 0.929 . S
C2379 C2377 1.433 . S
C2379 N2382 1.384 . S
C2380 H2371 0.929 . S
C2380 C2372 1.378 . S
C2380 C2375 1.350 . S
C2381 H2368 0.929 . S
C2381 C2373 1.433 . S
C2381 N2383 1.384 . S
N2382 C2378 1.427 . S
N2382 C2379 1.384 . S
N2383 C2375 1.427 . S
N2383 C2381 1.384 . S
C663 C111 1.104 1_455 S
C667 C352 1.139 1_556 S
C681 C64 1.308 . S
C685 C365 1.329 . S
C699 C77 1.235 . S
C703 C384 1.231 . S
C721 C415 1.715 . S
C717 C95 1.739 . S
C735 C25 1.535 . S
C739 C435 1.515 . S
C757 C452 0.851 . S
C753 C36 0.845 . S
C775 C465 1.499 . S
C771 C50 1.444 . S
C789 C11 0.899 . S
C793 C492 0.890 . S
C811 C345 1.139 1_655 S
C807 C237 1.080 . S
C825 C245 1.409 . S
C829 C375 1.388 . S
C847 C377 1.589 . S
C843 C279 1.513 . S
C865 C412 0.774 . S
C861 C175 0.778 . S
C879 C231 1.017 . S
C883 C432 1.009 . S
C901 C445 1.680 . S
C897 C251 1.553 . S
C919 C475 1.263 . S
C915 C273 1.290 . S
C937 C485 1.126 . S
C933 C181 1.114 . S
C955 C355 1.463 . S
C951 C165 1.493 . S
C969 C288 1.752 . S
C973 C505 1.791 1_556 S
C991 C535 1.508 . S
C987 C333 1.537 . S
C1009 C552 1.162 . S
C1005 C316 1.167 . S
C1023 C123 1.782 . S
C1027 C495 1.760 . S
C1041 C137 1.117 . S
C1045 C382 1.087 . S
C1059 C330 1.800 . S
C1063 C565 1.866 . S
C1081 C592 0.932 . S
C1077 C302 0.945 . S
C1099 C342 1.256 . S
C1095 C63 1.285 . S
C1117 C577 1.356 . S
C1113 C106 1.322 . S
C1131 C97 1.246 . S
C1135 C395 1.303 . S
C1149 C81 1.831 . S
C1153 C564 1.779 . S
C1171 C424 1.621 . S
C1167 C13 1.601 . S
C1185 C55 0.829 . S
C1189 C522 0.870 . S
C1207 C457 1.422 . S
C1203 C35 1.421 . S
C1225 C602 1.041 . S
C1221 C21 1.065 . S
C1243 C337 1.244 . S
C1239 C147 1.266 . S
C1261 C584 1.405 . S
C1257 C321 1.357 . S
C1275 C119 1.682 . S
C1279 C385 1.647 . S
C1293 C293 0.854 . S
C1297 C562 0.909 . S
C1311 C153 1.075 1_565 S
C1315 C422 1.170 . S
C1333 C517 1.733 . S
C1329 C315 1.734 . S
C1347 C125 1.201 . S
C1351 C464 1.244 . S
C1365 C287 1.264 . S
C1369 C597 1.229 . S
C1383 C193 1.579 . S
C1387 C344 1.550 . S
C1401 C176 1.784 . S
C1405 C497 1.822 . S
C1419 C263 1.517 . S
C1423 C444 1.513 . S
C1437 C246 1.244 . S
C1441 C542 1.276 . S
C1459 C604 1.884 . S
C1455 C277 1.924 . S
C1473 C221 1.129 . S
C1477 C392 1.112 . S
C1495 C397 1.904 . S
C1491 C260 1.865 . S
C1513 C362 1.040 . S
C1509 C204 1.007 . S
C1527 C83 1.099 . S
C1531 C632 1.136 . S
C1549 C585 1.336 . S
C1545 C92 1.305 . S
C1563 C105 1.233 . S
C1567 C644 1.214 1_455 S
C1581 C67 1.747 . S
C1585 C575 1.722 . S
C1599 C53 1.534 . S
C1603 C515 1.505 . S
C1621 C532 0.836 . S
C1617 C8 0.845 . S
C1639 C545 1.514 . S
C1635 C22 1.441 . S
C1657 C612 0.879 . S
C1653 C39 0.896 . S
C1675 C625 1.135 . S
C1671 C265 1.094 . S
C1689 C189 1.408 . S
C1693 C595 1.389 . S
C1711 C637 1.590 . S
C1707 C209 1.513 . S
C1729 C572 0.772 . S
C1725 C217 0.780 . S
C1747 C512 1.006 . S
C1743 C259 1.018 . S
C1761 C195 1.552 . S
C1765 C525 1.680 . S
C1783 C555 1.254 . S
C1779 C203 1.286 . S
C1797 C223 1.115 . S
C1801 C605 1.125 . S
C1819 C635 1.461 . S
C1815 C319 1.492 . S
C1833 C134 1.743 . S
C1837 C425 1.801 . S
C1855 C455 1.505 . S
C1851 C151 1.542 . S
C1873 C472 1.156 . S
C1869 C162 1.158 . S
C1891 C615 1.760 . S
C1887 C305 1.782 . S
C1905 C291 1.122 . S
C1909 C642 1.089 . S
C1927 C405 1.862 . S
C1923 C148 1.791 . S
C1945 C372 0.943 . S
C1941 C120 0.951 1_565 S
C1959 C91 1.278 . S
C1963 C622 1.252 . S
C1981 C357 1.353 . S
C1977 C78 1.328 . S
C1995 C69 1.244 . S
C1999 C655 1.303 . S
C2013 C109 1.830 . S
C2017 C404 1.778 . S
C2031 C41 1.589 . S
C2035 C504 1.632 . S
C2053 C442 0.862 . S
C2049 C27 0.820 . S
C2067 C7 1.419 . S
C2071 C537 1.423 . S
C2085 C49 1.071 . S
C2089 C482 1.058 . S
C2107 C617 1.243 . S
C2103 C329 1.268 . S
C2121 C167 1.342 . S
C2125 C364 1.418 . S
C2143 C645 1.647 . S
C2139 C301 1.682 . S
C2157 C139 0.871 . S
C2161 C402 0.899 . S
C2175 C335 1.103 . S
C2179 C502 1.165 . S
C2197 C437 1.736 . S
C2193 C161 1.727 . S
C2211 C307 1.206 . S
C2215 C544 1.241 . S
C2233 C477 1.233 . S
C2229 C133 1.263 . S
C2251 C624 1.557 . S
C2247 C249 1.583 . S
C2269 C417 1.825 1_565 S
C2265 C218 1.793 . S
C2283 C235 1.513 . S
C2287 C524 1.502 . S
C2305 C462 1.284 . S
C2301 C190 1.229 1_556 S
C2319 C207 1.927 . S
C2323 C484 1.891 . S
C2337 C179 1.129 . S
C2341 C652 1.105 . S
C2359 C557 1.902 . S
C2355 C232 1.867 1_565 S
C2377 C582 1.040 . S
C2373 C274 1.007 . S
