# Generated by pormake.
# Topology anh, (6,3)-cn, num edge types: 1
# Building blocks:
#     Node 0, Type 0, BuildingBlock: BETDIP_clean_sbu_0, # of connection points: 6
#     Node 1, Type 0, BuildingBlock: BETDIP_clean_sbu_0, # of connection points: 6
#     Node 2, Type 0, BuildingBlock: BETDIP_clean_sbu_0, # of connection points: 6
#     Node 3, Type 1, BuildingBlock: WUSLED_clean_sbu_0, # of connection points: 3
#     Node 4, Type 1, BuildingBlock: WUSLED_clean_sbu_0, # of connection points: 3
#     Node 5, Type 1, BuildingBlock: WUSLED_clean_sbu_0, # of connection points: 3
#     Node 6, Type 1, BuildingBlock: WUSLED_clean_sbu_0, # of connection points: 3
#     Node 7, Type 1, BuildingBlock: WUSLED_clean_sbu_0, # of connection points: 3
#     Node 8, Type 1, BuildingBlock: WUSLED_clean_sbu_0, # of connection points: 3
#     Edge 9, Type (0, 1), None
#     Edge 10, Type (0, 1), None
#     Edge 11, Type (0, 1), None
#     Edge 12, Type (0, 1), None
#     Edge 13, Type (0, 1), None
#     Edge 14, Type (0, 1), None
#     Edge 15, Type (0, 1), None
#     Edge 16, Type (0, 1), None
#     Edge 17, Type (0, 1), None
#     Edge 18, Type (0, 1), None
#     Edge 19, Type (0, 1), None
#     Edge 20, Type (0, 1), None
#     Edge 21, Type (0, 1), None
#     Edge 22, Type (0, 1), None
#     Edge 23, Type (0, 1), None
#     Edge 24, Type (0, 1), None
#     Edge 25, Type (0, 1), None
#     Edge 26, Type (0, 1), None
# Relax obj value: 0.387
# Max RMSD: 0.200
# Mean RMSD: 0.169
data_MOF--net-anh--node1-BETDIP_clean_sbu_0--node2-WUSLED_clean_sbu_0--edge1-none
_symmetry_space_group_name_H-M    P1
_symmetry_Int_Tables_number       1
_symmetry_cell_setting            triclinic
loop_
_symmetry_equiv_pos_as_xyz
'x, y, z'
_cell_length_a     22.837446
_cell_length_b     22.794808
_cell_length_c     40.908365
_cell_angle_alpha  88.765809
_cell_angle_beta   90.10288
_cell_angle_gamma 119.96646
loop_
_atom_site_label
_atom_site_type_symbol
_atom_site_fract_x
_atom_site_fract_y
_atom_site_fract_z
_atom_type_partial_charge
Tb0 Tb 0.20586 0.68365 0.15789 0.0
Tb1 Tb 1.13855 0.53957 0.16212 0.0
C2 C 0.27958 0.80552 0.17203 0.0
C3 C 0.2727 0.85673 0.18993 0.0
C4 C 0.22929 0.83915 0.21717 0.0
C5 C 0.23376 0.88954 0.23766 0.0
C6 C 0.28176 0.95798 0.23113 0.0
C7 C 0.32018 0.97514 0.20196 0.0
C8 C 0.31569 0.9249 0.18163 0.0
C9 C 1.16346 0.62686 0.10152 0.0
C10 C 0.29889 0.6098 0.14802 0.0
C11 C 1.05887 0.41453 0.15603 0.0
C12 C 0.98554 0.37443 0.15087 0.0
C13 C 0.95223 0.3992 0.13081 0.0
C14 C 0.88173 0.36778 0.13152 0.0
C15 C 0.84367 0.31117 0.15218 0.0
C16 C 0.87694 0.28333 0.17012 0.0
C17 C 0.94735 0.31487 0.16951 0.0
C18 C 0.18122 0.59724 0.22014 0.0
C19 C 1.04598 0.61432 0.1538 0.0
O20 O 0.24721 0.78635 0.14445 0.0
O21 O 0.27526 0.75488 0.18968 0.0
O22 O 0.1899 0.60897 0.12366 0.0
O23 O 0.16585 0.68279 0.10925 0.0
O24 O 0.29629 0.66721 0.15082 0.0
O25 O 0.24041 0.55117 0.15046 0.0
O26 O 1.09521 0.45498 0.13201 0.0
O27 O 1.07647 0.44403 0.18421 0.0
O28 O 1.15263 0.61455 0.19818 0.0
O29 O 0.18707 0.54754 0.20917 0.0
O30 O 1.05045 0.558 0.15145 0.0
O31 O 1.1023 0.67135 0.1612 0.0
H32 H 0.1949 0.78648 0.22364 0.0
H33 H 0.20289 0.87464 0.25968 0.0
H34 H 0.35842 1.02695 0.19616 0.0
H35 H 0.34918 0.93922 0.16056 0.0
H36 H 0.98061 0.4448 0.11591 0.0
H37 H 0.85712 0.38961 0.11717 0.0
H38 H 0.84895 0.24004 0.18649 0.0
H39 H 0.97212 0.29502 0.18513 0.0
Tb40 Tb 0.73764 0.11843 0.49362 0.0
Tb41 Tb 0.66206 0.184 0.4897 0.0
C42 C 0.78668 1.04599 0.51091 0.0
C43 C 0.78086 0.98081 0.50333 0.0
C44 C 0.71946 0.91937 0.50591 0.0
C45 C 0.71843 0.85815 0.50164 0.0
C46 C 0.77867 0.85791 0.49471 0.0
C47 C 0.83886 0.91993 0.48999 0.0
C48 C 0.83988 0.98066 0.49437 0.0
C49 C 0.72572 0.15251 0.43353 0.0
C50 C 0.57215 1.02387 0.47956 0.0
C51 C 0.63017 0.27268 0.48084 0.0
C52 C 0.67345 0.34057 0.49453 0.0
C53 C 0.72876 0.38974 0.47588 0.0
C54 C 0.789 0.43498 0.49126 0.0
C55 C 0.79455 0.43104 0.52532 0.0
C56 C 0.73558 0.39063 0.54392 0.0
C57 C 0.6753 0.34662 0.52868 0.0
C58 C 0.67832 0.15454 0.55196 0.0
C59 C 0.82859 0.27774 0.48553 0.0
O60 O 0.73681 1.04615 0.52666 0.0
O61 O 0.81149 1.09143 0.48731 0.0
O62 O 0.68038 0.12836 0.45515 0.0
O63 O 0.77889 0.1524 0.44416 0.0
O64 O 0.63046 1.02631 0.48814 0.0
O65 O 0.57412 1.08328 0.47578 0.0
O66 O 0.6592 0.25646 0.45805 0.0
O67 O 0.59912 0.22307 0.50232 0.0
O68 O 0.72346 0.17832 0.52955 0.0
O69 O 0.6231 0.14632 0.53919 0.0
O70 O 0.76858 0.27207 0.47914 0.0
O71 O 0.82778 0.22251 0.49727 0.0
H72 H 0.67301 0.91846 0.51232 0.0
H73 H 0.67128 0.81103 0.50526 0.0
H74 H 0.88641 0.92176 0.48528 0.0
H75 H 0.88766 1.02767 0.4921 0.0
H76 H 0.7284 0.38777 0.44943 0.0
H77 H 0.83242 0.46897 0.47635 0.0
H78 H 0.73675 0.39026 0.57039 0.0
H79 H 0.63287 0.31157 0.54393 0.0
Tb80 Tb 0.64253 0.62622 0.82624 0.0
Tb81 Tb 0.78503 0.70095 0.8278 0.0
C82 C 0.52046 0.57778 0.84167 0.0
C83 C 0.46545 0.51516 0.85625 0.0
C84 C 0.47751 0.47762 0.88027 0.0
C85 C 0.42332 0.42497 0.89762 0.0
C86 C 0.35656 0.40945 0.89117 0.0
C87 C 0.3451 0.44375 0.86509 0.0
C88 C 0.39908 0.4961 0.84786 0.0
C89 C 0.69866 0.64808 0.76859 0.0
C90 C 0.71759 0.79412 0.81629 0.0
C91 C 0.90699 0.73671 0.81914 0.0
C92 C 0.93929 0.69525 0.82552 0.0
C93 C 0.95301 0.66423 0.79954 0.0
C94 C 0.96897 0.6132 0.80577 0.0
C95 C 0.97108 0.59227 0.83807 0.0
C96 C 0.96188 0.62647 0.86395 0.0
C97 C 0.94632 0.67741 0.85779 0.0
C98 C 0.72977 0.6776 0.88771 0.0
C99 C 0.71003 0.53403 0.8197 0.0
O100 O 0.54068 0.57345 0.81245 0.0
O101 O 0.57062 0.61545 0.86096 0.0
O102 O 0.71631 0.68987 0.79113 0.0
O103 O 0.64451 0.59228 0.777 0.0
O104 O 0.66036 0.73471 0.82191 0.0
O105 O 0.77531 0.79249 0.81518 0.0
O106 O 0.86291 0.71561 0.79557 0.0
O107 O 0.88476 0.75345 0.84472 0.0
O108 O 0.71112 0.63508 0.86475 0.0
O109 O 0.78003 0.73407 0.87687 0.0
O110 O 0.76673 0.59459 0.81854 0.0
O111 O 0.65244 0.53311 0.82646 0.0
H112 H 0.52871 0.49119 0.88674 0.0
H113 H 0.43386 0.39912 0.91728 0.0
H114 H 0.29476 0.43432 0.85961 0.0
H115 H 0.389 0.52437 0.82924 0.0
H116 H 0.94793 0.67694 0.77442 0.0
H117 H 0.97645 0.58801 0.7854 0.0
H118 H 0.96528 0.61276 0.88912 0.0
H119 H 0.93666 0.70041 0.87845 0.0
C120 C 0.64511 0.2429 0.18951 0.0
C121 C 0.6892 0.31232 0.18312 0.0
C122 C 0.77161 0.28744 0.15927 0.0
C123 C 0.7519 0.33438 0.1681 0.0
C124 C 0.72483 0.21797 0.16252 0.0
C125 C 0.66188 0.19587 0.17723 0.0
U126 U 0.5849 0.21057 0.27666 0.0
O127 O 0.5019 0.21331 0.30302 0.0
O128 O 0.50675 0.11968 0.30208 0.0
C129 C 0.47011 0.14749 0.30908 0.0
C130 C 0.58759 0.21991 0.21274 0.0
C131 C 0.4005 1.10751 0.29738 0.0
C132 C 0.31397 0.99117 0.2889 0.0
C133 C 0.36199 1.0404 0.309 0.0
C134 C 0.33217 1.07815 0.24861 0.0
C135 C 0.30359 1.00904 0.25714 0.0
C136 C 0.38136 0.12719 0.26839 0.0
C137 C 0.70918 0.23431 0.34134 0.0
C138 C 0.65998 0.17916 0.39347 0.0
C139 C 0.77654 0.2133 0.38063 0.0
C140 C 0.77064 0.2391 0.35027 0.0
C141 C 0.72076 0.18193 0.40211 0.0
C142 C 0.65425 0.20524 0.36329 0.0
C143 C 0.69807 0.24752 0.30746 0.0
O144 O 0.57175 0.16349 0.229 0.0
O145 O 0.58808 0.26653 0.23144 0.0
O146 O 0.67328 0.28828 0.30292 0.0
O147 O 0.66676 0.19191 0.2907 0.0
H148 H 0.67742 0.3499 0.19171 0.0
H149 H 0.78701 0.38833 0.16589 0.0
H150 H 0.73846 0.1808 0.15542 0.0
H151 H 0.62838 0.14194 0.18104 0.0
H152 H 0.29245 0.93861 0.2966 0.0
H153 H 0.37574 1.02433 0.33145 0.0
H154 H 0.32318 1.09364 0.22479 0.0
H155 H 0.40977 0.17887 0.25903 0.0
H156 H 0.61634 0.15538 0.40967 0.0
H157 H 0.82409 0.21644 0.38695 0.0
H158 H 0.81305 0.2603 0.3333 0.0
H159 H 0.60601 0.19996 0.35646 0.0
C160 C 0.82647 0.70638 0.52034 0.0
C161 C 0.77551 0.71025 0.53758 0.0
C162 C 0.78281 0.7955 0.49881 0.0
C163 C 0.75358 0.75427 0.52682 0.0
C164 C 0.82808 0.78561 0.47957 0.0
C165 C 0.8502 0.74152 0.49044 0.0
U166 U 0.87694 0.65932 0.59872 0.0
O167 O 0.86899 0.56467 0.61702 0.0
O168 O 0.96908 0.65573 0.61212 0.0
C169 C 0.93446 0.58899 0.61393 0.0
C170 C 0.86241 0.67591 0.53639 0.0
C171 C 0.94933 0.55319 0.58873 0.0
C172 C 0.906 0.53659 0.5336 0.0
C173 C 0.95273 0.57836 0.5566 0.0
C174 C 0.87292 0.44052 0.57041 0.0
C175 C 0.86035 0.46876 0.54212 0.0
C176 C 0.91874 0.48289 0.59357 0.0
C177 C 0.79505 0.68426 0.67516 0.0
C178 C 0.72507 0.60624 0.71856 0.0
C179 C 0.77712 0.7274 0.72562 0.0
C180 C 0.8067 0.739 0.69453 0.0
C181 C 0.73438 0.66087 0.73727 0.0
C182 C 0.75572 0.61777 0.68789 0.0
C183 C 0.81563 0.69636 0.64048 0.0
O184 O 0.91563 0.71898 0.55293 0.0
O185 O 0.82366 0.61908 0.55266 0.0
O186 O 0.78446 0.64287 0.62223 0.0
O187 O 0.88048 0.73445 0.63339 0.0
H188 H 0.75666 0.68355 0.56081 0.0
H189 H 0.71908 0.76094 0.54236 0.0
H190 H 0.85063 0.81613 0.4576 0.0
H191 H 0.88941 0.73881 0.47683 0.0
H192 H 0.90005 0.55954 0.51134 0.0
H193 H 0.97962 0.63245 0.55148 0.0
H194 H 0.84155 0.38712 0.57654 0.0
H195 H 0.91824 0.46176 0.61762 0.0
H196 H 0.69331 0.55457 0.72743 0.0
H197 H 0.78536 0.77027 0.73993 0.0
H198 H 0.83652 0.79055 0.68515 0.0
H199 H 0.7462 0.57439 0.67367 0.0
C200 C 1.01706 0.43933 0.86882 0.0
C201 C 0.96013 0.43961 0.88154 0.0
C202 C 0.98187 0.5345 0.84542 0.0
C203 C 0.94251 0.4865 0.86981 0.0
C204 C 1.03507 0.53031 0.83063 0.0
C205 C 1.05258 0.483 0.84231 0.0
U206 U 1.07363 0.41106 0.94981 0.0
O207 O 1.08659 0.32887 0.9719 0.0
O208 O 0.1727 0.43226 0.96704 0.0
C209 C 1.15258 0.36842 0.97378 0.0
C210 C 1.04797 0.40572 0.88732 0.0
C211 C 0.19537 0.34643 0.9577 0.0
C212 C 0.31331 0.38207 0.94864 0.0
C213 C 0.26059 0.37032 0.96986 0.0
C214 C 0.23355 0.33381 0.90449 0.0
C215 C 0.30097 0.36953 0.91508 0.0
C216 C 0.181 0.32318 0.9256 0.0
C217 C 1.05951 0.5095 0.01874 0.0
C218 C 1.13485 0.53106 0.06447 0.0
C219 C 1.08245 0.59998 0.05576 0.0
C220 C 1.04922 0.56225 0.02844 0.0
C221 C 1.12651 0.58545 0.07356 0.0
C222 C 1.10154 0.49328 0.03721 0.0
C223 C 1.03826 0.48153 0.98621 0.0
O224 O 1.10694 0.44857 0.89957 0.0
O225 O 1.00845 0.35714 0.90828 0.0
O226 O 1.00161 0.41512 0.98441 0.0
O227 O 1.08801 0.50874 0.96484 0.0
H228 H 0.93185 0.40686 0.90208 0.0
H229 H 0.90015 0.48758 0.88105 0.0
H230 H 1.06602 0.56656 0.8117 0.0
H231 H 1.09697 0.48399 0.8323 0.0
H232 H 0.36439 0.40916 0.95784 0.0
H233 H 0.27257 0.38867 0.99458 0.0
H234 H 0.22223 0.32152 0.87898 0.0
H235 H 1.13089 0.30455 0.91571 0.0
H236 H 0.16891 0.51923 0.07772 0.0
H237 H 1.07474 0.64134 0.06255 0.0
H238 H 1.01797 0.5762 0.01405 0.0
H239 H 1.11123 0.45366 0.02957 0.0
C240 C 1.0276 0.4743 0.46479 0.0
C241 C 0.96466 0.46191 0.45175 0.0
C242 C 0.89719 0.34575 0.47839 0.0
C243 C 0.90202 0.3995 0.45795 0.0
C244 C 0.96025 0.35802 0.4911 0.0
C245 C 1.02286 0.41991 0.48463 0.0
U246 U 0.20078 0.64797 0.42799 0.0
O247 O 0.25094 0.75372 0.4477 0.0
O248 O 0.30471 0.6981 0.45034 0.0
C249 C 0.30751 0.7559 0.45658 0.0
C250 C 1.09586 0.54417 0.46175 0.0
C251 C 0.37699 0.82498 0.45874 0.0
C252 C 0.44359 0.95223 0.4629 0.0
C253 C 0.38193 0.8898 0.45663 0.0
C254 C 0.5004 0.8902 0.47413 0.0
C255 C 0.50517 0.95495 0.47217 0.0
C256 C 0.43872 0.82773 0.46777 0.0
C257 C 0.19707 0.63384 0.32613 0.0
C258 C 1.16239 0.65141 0.271 0.0
C259 C 0.22028 0.58793 0.27702 0.0
C260 C 0.22446 0.59772 0.31109 0.0
C261 C 0.18864 0.61383 0.25624 0.0
C262 C 0.16641 0.66111 0.30536 0.0
C263 C 0.19797 0.63952 0.36318 0.0
O264 O 1.15353 0.54696 0.45489 0.0
O265 O 1.09716 0.59981 0.45118 0.0
O266 O 0.17164 0.67063 0.37902 0.0
O267 O 0.22694 0.61459 0.38235 0.0
H268 H 0.96343 0.50086 0.43666 0.0
H269 H 0.85676 0.39326 0.44631 0.0
H270 H 0.96142 0.31963 0.50667 0.0
H271 H 1.06825 0.42563 0.49597 0.0
H272 H 0.44245 0.99907 0.46082 0.0
H273 H 0.33718 0.89258 0.45065 0.0
H274 H 0.54471 0.88734 0.48104 0.0
H275 H 0.43927 0.7807 0.47072 0.0
H276 H 1.13735 0.67201 0.25614 0.0
H277 H 0.24136 0.55883 0.26693 0.0
H278 H 0.2484 0.57569 0.32578 0.0
H279 H 1.14443 0.68912 0.31574 0.0
C280 C 0.71517 0.99095 0.79502 0.0
C281 C 0.65545 0.92772 0.80171 0.0
C282 C 0.71653 0.86193 0.80884 0.0
C283 C 0.65606 0.86558 0.80822 0.0
C284 C 0.77621 0.92505 0.80195 0.0
C285 C 0.77559 0.98718 0.79548 0.0
U286 U 0.71287 0.16596 0.76152 0.0
O287 O 0.65926 0.21386 0.78602 0.0
O288 O 0.76845 0.27003 0.78313 0.0
C289 C 0.71409 0.27124 0.79287 0.0
C290 C 0.71525 1.06027 0.79292 0.0
C291 C 0.71289 0.33966 0.79627 0.0
C292 C 0.6514 0.40233 0.80997 0.0
C293 C 0.65227 0.34118 0.80254 0.0
C294 C 0.7718 0.46547 0.80557 0.0
C295 C 0.71113 0.46684 0.81196 0.0
C296 C 0.77269 0.40423 0.79826 0.0
C297 C 0.70116 0.16187 0.65935 0.0
C298 C 0.6313 0.13075 0.60985 0.0
C299 C 0.75218 0.18457 0.60375 0.0
C300 C 0.75851 0.1874 0.63841 0.0
C301 C 0.68823 0.1563 0.58881 0.0
C302 C 0.63755 0.13334 0.64421 0.0
C303 C 0.70645 0.16383 0.69652 0.0
O304 O 0.76925 0.11718 0.78343 0.0
O305 O 0.66005 1.06264 0.78615 0.0
O306 O 0.6529 0.13697 0.71584 0.0
O307 O 0.76399 0.1927 0.71236 0.0
H308 H 0.60736 0.92624 0.80266 0.0
H309 H 0.6083 0.81994 0.8132 0.0
H310 H 0.82452 0.92694 0.80192 0.0
H311 H 0.82354 1.03318 0.79144 0.0
H312 H 0.60294 0.39865 0.81441 0.0
H313 H 0.60452 0.29412 0.80235 0.0
H314 H 0.81963 0.51228 0.80657 0.0
H315 H 0.82126 0.40762 0.7947 0.0
H316 H 0.58106 1.10857 0.59967 0.0
H317 H 0.79742 0.20515 0.58869 0.0
H318 H 0.80854 0.20971 0.64881 0.0
H319 H 0.59196 0.11291 0.65901 0.0
C320 C 0.84899 0.61439 0.13149 0.0
C321 C 0.85369 0.55429 0.13259 0.0
C322 C 0.97774 0.61412 0.14641 0.0
C323 C 0.9157 0.55428 0.13956 0.0
C324 C 0.97304 0.67419 0.14529 0.0
C325 C 0.91112 0.67428 0.13825 0.0
U326 U 0.67734 0.61862 0.09604 0.0
O327 O 0.57082 0.56002 0.11621 0.0
O328 O 0.6253 0.66907 0.11969 0.0
C329 C 0.56742 0.61316 0.12566 0.0
C330 C 0.77943 0.61358 0.12861 0.0
C331 C 0.49805 0.613 0.12745 0.0
C332 C 0.37162 0.55131 0.13636 0.0
C333 C 0.43427 0.55218 0.13017 0.0
C334 C 0.43138 0.67209 0.13766 0.0
C335 C 0.36769 0.61118 0.14061 0.0
C336 C 0.49409 0.67294 0.13151 0.0
C337 C 0.69479 0.64205 0.99418 0.0
C338 C 0.6743 0.5977 0.93799 0.0
C339 C 0.74284 0.71773 0.94586 0.0
C340 C 0.73335 0.70741 0.98002 0.0
C341 C 0.71412 0.66332 0.92408 0.0
C342 C 0.66498 0.58725 0.97248 0.0
C343 C 0.68772 0.63229 0.03121 0.0
O344 O 0.77713 0.66926 0.12215 0.0
O345 O 0.72416 0.56033 0.11823 0.0
O346 O 0.65683 0.57285 0.04643 0.0
O347 O 0.71224 0.68371 0.05105 0.0
H348 H 0.80852 0.5061 0.12862 0.0
H349 H 0.91455 0.50634 0.14004 0.0
H350 H 1.01779 0.72216 0.15015 0.0
H351 H 0.91191 0.72212 0.13877 0.0
H352 H 0.32567 0.50263 0.13823 0.0
H353 H 0.43262 0.5041 0.12821 0.0
H354 H 0.43325 0.72007 0.14059 0.0
H355 H 0.54032 0.72148 0.13061 0.0
H356 H 0.65127 0.55432 0.92231 0.0
H357 H 0.7737 0.76912 0.93647 0.0
H358 H 0.75726 0.75117 0.99545 0.0
H359 H 0.63479 0.53602 0.98215 0.0
loop_
_geom_bond_atom_site_label_1
_geom_bond_atom_site_label_2
_geom_bond_distance
_geom_bond_site_symmetry_2
_ccdc_geom_bond_type
Tb0 C2 2.809 . S
Tb0 O20 2.484 . S
Tb0 O21 2.440 . S
Tb0 O22 2.658 . S
Tb0 O23 2.409 . S
Tb0 O24 2.378 . S
Tb0 O28 2.325 . S
Tb0 O31 2.341 1_455 S
Tb1 C11 2.809 . S
Tb1 O22 2.325 1_655 S
Tb1 O25 2.341 1_655 S
Tb1 O26 2.484 . S
Tb1 O27 2.440 . S
Tb1 O28 2.658 1_655 S
Tb1 O29 2.409 . S
Tb1 O30 2.378 . S
C2 Tb0 2.809 . S
C2 C3 1.514 . S
C2 O20 1.248 . S
C2 O21 1.266 . S
C3 C2 1.514 . S
C3 C4 1.359 . S
C3 C8 1.348 . S
C4 C3 1.359 . S
C4 C5 1.380 . S
C4 H32 0.929 . S
C5 C4 1.380 . S
C5 C6 1.347 . S
C5 H33 0.931 . S
C6 C5 1.347 . S
C6 C7 1.369 . S
C7 C6 1.369 . S
C7 C8 1.408 . S
C7 H34 0.930 . S
C8 C3 1.348 . S
C8 C7 1.408 . S
C8 H35 0.930 . S
C9 O22 1.281 . S
C9 O23 1.254 . S
C10 O24 1.236 . S
C10 O25 1.266 . S
C11 Tb1 2.809 . S
C11 C12 1.514 . S
C11 O26 1.248 . S
C11 O27 1.266 . S
C12 C11 1.514 . S
C12 C13 1.359 . S
C12 C17 1.348 . S
C13 C12 1.359 . S
C13 C14 1.380 . S
C13 H36 0.929 . S
C14 C13 1.380 . S
C14 C15 1.347 . S
C14 H37 0.931 . S
C15 C14 1.347 . S
C15 C16 1.369 . S
C16 C15 1.369 . S
C16 C17 1.408 . S
C16 H38 0.930 . S
C17 C12 1.348 . S
C17 C16 1.408 . S
C17 H39 0.930 . S
C18 O28 1.281 . S
C18 O29 1.254 1_455 S
C19 O30 1.236 . S
C19 O31 1.266 . S
O20 Tb0 2.484 . S
O20 C2 1.248 . S
O21 Tb0 2.440 . S
O21 C2 1.266 . S
O22 Tb0 2.658 . S
O22 Tb1 2.325 1_455 S
O22 C9 1.281 . S
O23 Tb0 2.409 . S
O23 C9 1.254 . S
O24 Tb0 2.378 . S
O24 C10 1.236 . S
O25 Tb1 2.341 1_455 S
O25 C10 1.266 . S
O26 Tb1 2.484 . S
O26 C11 1.248 . S
O27 Tb1 2.440 . S
O27 C11 1.266 . S
O28 Tb0 2.325 . S
O28 Tb1 2.658 1_455 S
O28 C18 1.281 . S
O29 Tb1 2.409 . S
O29 C18 1.254 1_655 S
O30 Tb1 2.378 . S
O30 C19 1.236 . S
O31 Tb0 2.341 1_655 S
O31 C19 1.266 . S
H32 C4 0.929 . S
H33 C5 0.931 . S
H34 C7 0.930 . S
H35 C8 0.930 . S
H36 C13 0.929 . S
H37 C14 0.931 . S
H38 C16 0.930 . S
H39 C17 0.930 . S
Tb40 C42 2.809 . S
Tb40 O60 2.484 . S
Tb40 O61 2.440 . S
Tb40 O62 2.658 1_565 S
Tb40 O63 2.409 . S
Tb40 O64 2.378 . S
Tb40 O68 2.325 1_565 S
Tb40 O71 2.341 1_565 S
Tb41 C51 2.809 . S
Tb41 O62 2.325 . S
Tb41 O65 2.341 1_545 S
Tb41 O66 2.484 . S
Tb41 O67 2.440 . S
Tb41 O68 2.658 . S
Tb41 O69 2.409 . S
Tb41 O70 2.378 . S
C42 Tb40 2.809 . S
C42 C43 1.514 . S
C42 O60 1.248 . S
C42 O61 1.266 . S
C43 C42 1.514 . S
C43 C44 1.359 . S
C43 C48 1.348 . S
C44 C43 1.359 . S
C44 C45 1.380 . S
C44 H72 0.929 . S
C45 C44 1.380 . S
C45 C46 1.347 . S
C45 H73 0.931 . S
C46 C45 1.347 . S
C46 C47 1.369 . S
C47 C46 1.369 . S
C47 C48 1.408 . S
C47 H74 0.930 . S
C48 C43 1.348 . S
C48 C47 1.408 . S
C48 H75 0.930 . S
C49 O62 1.281 . S
C49 O63 1.254 1_545 S
C50 O64 1.236 . S
C50 O65 1.266 . S
C51 Tb41 2.809 . S
C51 C52 1.514 . S
C51 O66 1.248 . S
C51 O67 1.266 . S
C52 C51 1.514 . S
C52 C53 1.359 . S
C52 C57 1.348 . S
C53 C52 1.359 . S
C53 C54 1.380 . S
C53 H76 0.929 . S
C54 C53 1.380 . S
C54 C55 1.347 . S
C54 H77 0.931 . S
C55 C54 1.347 . S
C55 C56 1.369 . S
C56 C55 1.369 . S
C56 C57 1.408 . S
C56 H78 0.930 . S
C57 C52 1.348 . S
C57 C56 1.408 . S
C57 H79 0.930 . S
C58 O68 1.281 . S
C58 O69 1.254 . S
C59 O70 1.236 . S
C59 O71 1.266 . S
O60 Tb40 2.484 . S
O60 C42 1.248 . S
O61 Tb40 2.440 . S
O61 C42 1.266 . S
O62 Tb40 2.658 1_545 S
O62 Tb41 2.325 . S
O62 C49 1.281 . S
O63 Tb40 2.409 . S
O63 C49 1.254 1_565 S
O64 Tb40 2.378 . S
O64 C50 1.236 . S
O65 Tb41 2.341 1_565 S
O65 C50 1.266 . S
O66 Tb41 2.484 . S
O66 C51 1.248 . S
O67 Tb41 2.440 . S
O67 C51 1.266 . S
O68 Tb40 2.325 1_545 S
O68 Tb41 2.658 . S
O68 C58 1.281 . S
O69 Tb41 2.409 . S
O69 C58 1.254 . S
O70 Tb41 2.378 . S
O70 C59 1.236 . S
O71 Tb40 2.341 1_545 S
O71 C59 1.266 . S
H72 C44 0.929 . S
H73 C45 0.931 . S
H74 C47 0.930 . S
H75 C48 0.930 . S
H76 C53 0.929 . S
H77 C54 0.931 . S
H78 C56 0.930 . S
H79 C57 0.930 . S
Tb80 C82 2.809 . S
Tb80 O100 2.484 . S
Tb80 O101 2.440 . S
Tb80 O102 2.658 . S
Tb80 O103 2.409 . S
Tb80 O104 2.378 . S
Tb80 O108 2.325 . S
Tb80 O111 2.341 . S
Tb81 C91 2.809 . S
Tb81 O102 2.325 . S
Tb81 O105 2.341 . S
Tb81 O106 2.484 . S
Tb81 O107 2.440 . S
Tb81 O108 2.658 . S
Tb81 O109 2.409 . S
Tb81 O110 2.378 . S
C82 Tb80 2.809 . S
C82 C83 1.514 . S
C82 O100 1.248 . S
C82 O101 1.266 . S
C83 C82 1.514 . S
C83 C84 1.359 . S
C83 C88 1.348 . S
C84 C83 1.359 . S
C84 C85 1.380 . S
C84 H112 0.929 . S
C85 C84 1.380 . S
C85 C86 1.347 . S
C85 H113 0.931 . S
C86 C85 1.347 . S
C86 C87 1.369 . S
C87 C86 1.369 . S
C87 C88 1.408 . S
C87 H114 0.930 . S
C88 C83 1.348 . S
C88 C87 1.408 . S
C88 H115 0.930 . S
C89 O102 1.281 . S
C89 O103 1.254 . S
C90 O104 1.236 . S
C90 O105 1.266 . S
C91 Tb81 2.809 . S
C91 C92 1.514 . S
C91 O106 1.248 . S
C91 O107 1.266 . S
C92 C91 1.514 . S
C92 C93 1.359 . S
C92 C97 1.348 . S
C93 C92 1.359 . S
C93 C94 1.380 . S
C93 H116 0.929 . S
C94 C93 1.380 . S
C94 C95 1.347 . S
C94 H117 0.931 . S
C95 C94 1.347 . S
C95 C96 1.369 . S
C96 C95 1.369 . S
C96 C97 1.408 . S
C96 H118 0.930 . S
C97 C92 1.348 . S
C97 C96 1.408 . S
C97 H119 0.930 . S
C98 O108 1.281 . S
C98 O109 1.254 . S
C99 O110 1.236 . S
C99 O111 1.266 . S
O100 Tb80 2.484 . S
O100 C82 1.248 . S
O101 Tb80 2.440 . S
O101 C82 1.266 . S
O102 Tb80 2.658 . S
O102 Tb81 2.325 . S
O102 C89 1.281 . S
O103 Tb80 2.409 . S
O103 C89 1.254 . S
O104 Tb80 2.378 . S
O104 C90 1.236 . S
O105 Tb81 2.341 . S
O105 C90 1.266 . S
O106 Tb81 2.484 . S
O106 C91 1.248 . S
O107 Tb81 2.440 . S
O107 C91 1.266 . S
O108 Tb80 2.325 . S
O108 Tb81 2.658 . S
O108 C98 1.281 . S
O109 Tb81 2.409 . S
O109 C98 1.254 . S
O110 Tb81 2.378 . S
O110 C99 1.236 . S
O111 Tb80 2.341 . S
O111 C99 1.266 . S
H112 C84 0.929 . S
H113 C85 0.931 . S
H114 C87 0.930 . S
H115 C88 0.930 . S
H116 C93 0.929 . S
H117 C94 0.931 . S
H118 C96 0.930 . S
H119 C97 0.930 . S
C120 C121 1.264 . S
C120 C125 1.479 . S
C120 C130 1.465 . S
C121 C120 1.264 . S
C121 C123 1.339 . S
C121 H148 0.931 . S
C122 C123 1.395 . S
C122 C124 1.320 . S
C123 C121 1.339 . S
C123 C122 1.395 . S
C123 H149 0.929 . S
C124 C122 1.320 . S
C124 C125 1.405 . S
C124 H150 0.930 . S
C125 C120 1.479 . S
C125 C124 1.405 . S
C125 H151 0.931 . S
U126 O127 2.454 . S
U126 O128 2.458 1_545 S
U126 C129 2.984 1_545 S
U126 C130 2.847 . S
U126 C143 2.882 . S
U126 O144 2.441 . S
U126 O145 2.420 . S
U126 O146 2.455 . S
U126 O147 2.449 . S
O127 U126 2.454 . S
O127 C129 1.353 1_545 S
O128 U126 2.458 1_565 S
O128 C129 1.286 . S
C129 U126 2.984 1_565 S
C129 O127 1.353 1_565 S
C129 O128 1.286 . S
C129 C131 1.363 . S
C130 C120 1.465 . S
C130 U126 2.847 . S
C130 O144 1.249 . S
C130 O145 1.202 . S
C131 C129 1.363 . S
C131 C133 1.408 . S
C131 C136 1.342 . S
C132 C133 1.310 . S
C132 C135 1.461 . S
C132 H152 0.932 . S
C133 C131 1.408 . S
C133 C132 1.310 . S
C133 H153 0.930 . S
C134 C135 1.474 . S
C134 C136 1.285 . S
C134 H154 0.929 . S
C135 C132 1.461 . S
C135 C134 1.474 . S
C136 C131 1.342 . S
C136 C134 1.285 . S
C136 H155 0.930 . S
C137 C140 1.424 . S
C137 C142 1.245 . S
C137 C143 1.428 . S
C138 C141 1.260 . S
C138 C142 1.477 . S
C138 H156 0.932 1_545 S
C139 C140 1.384 . S
C139 C141 1.479 . S
C139 H157 0.929 . S
C140 C137 1.424 . S
C140 C139 1.384 . S
C140 H158 0.928 . S
C141 C138 1.260 . S
C141 C139 1.479 . S
C142 C137 1.245 . S
C142 C138 1.477 . S
C142 H159 0.932 1_545 S
C143 U126 2.882 . S
C143 C137 1.428 . S
C143 O146 1.301 . S
C143 O147 1.282 . S
O144 U126 2.441 . S
O144 C130 1.249 . S
O145 U126 2.420 . S
O145 C130 1.202 . S
O146 U126 2.455 . S
O146 C143 1.301 . S
O147 U126 2.449 . S
O147 C143 1.282 . S
H148 C121 0.931 . S
H149 C123 0.929 . S
H150 C124 0.930 . S
H151 C125 0.931 . S
H152 C132 0.932 . S
H153 C133 0.930 . S
H154 C134 0.929 . S
H155 C136 0.930 . S
H156 C138 0.932 1_565 S
H157 C139 0.929 . S
H158 C140 0.928 . S
H159 C142 0.932 1_565 S
C160 C161 1.264 . S
C160 C165 1.479 . S
C160 C170 1.465 . S
C161 C160 1.264 . S
C161 C163 1.339 . S
C161 H188 0.931 . S
C162 C163 1.395 . S
C162 C164 1.320 . S
C163 C161 1.339 . S
C163 C162 1.395 . S
C163 H189 0.929 . S
C164 C162 1.320 . S
C164 C165 1.405 . S
C164 H190 0.930 . S
C165 C160 1.479 . S
C165 C164 1.405 . S
C165 H191 0.931 . S
U166 O167 2.454 . S
U166 O168 2.458 . S
U166 C169 2.984 . S
U166 C170 2.847 . S
U166 C183 2.882 . S
U166 O184 2.441 . S
U166 O185 2.420 . S
U166 O186 2.455 . S
U166 O187 2.449 . S
O167 U166 2.454 . S
O167 C169 1.353 . S
O168 U166 2.458 . S
O168 C169 1.286 . S
C169 U166 2.984 . S
C169 O167 1.353 . S
C169 O168 1.286 . S
C169 C171 1.363 . S
C170 C160 1.465 . S
C170 U166 2.847 . S
C170 O184 1.249 . S
C170 O185 1.202 . S
C171 C169 1.363 . S
C171 C173 1.408 . S
C171 C176 1.342 . S
C172 C173 1.310 . S
C172 C175 1.461 . S
C172 H192 0.932 . S
C173 C171 1.408 . S
C173 C172 1.310 . S
C173 H193 0.930 . S
C174 C175 1.474 . S
C174 C176 1.285 . S
C174 H194 0.929 . S
C175 C172 1.461 . S
C175 C174 1.474 . S
C176 C171 1.342 . S
C176 C174 1.285 . S
C176 H195 0.930 . S
C177 C180 1.424 . S
C177 C182 1.245 . S
C177 C183 1.428 . S
C178 C181 1.260 . S
C178 C182 1.477 . S
C178 H196 0.932 . S
C179 C180 1.384 . S
C179 C181 1.479 . S
C179 H197 0.929 . S
C180 C177 1.424 . S
C180 C179 1.384 . S
C180 H198 0.928 . S
C181 C178 1.260 . S
C181 C179 1.479 . S
C182 C177 1.245 . S
C182 C178 1.477 . S
C182 H199 0.932 . S
C183 U166 2.882 . S
C183 C177 1.428 . S
C183 O186 1.301 . S
C183 O187 1.282 . S
O184 U166 2.441 . S
O184 C170 1.249 . S
O185 U166 2.420 . S
O185 C170 1.202 . S
O186 U166 2.455 . S
O186 C183 1.301 . S
O187 U166 2.449 . S
O187 C183 1.282 . S
H188 C161 0.931 . S
H189 C163 0.929 . S
H190 C164 0.930 . S
H191 C165 0.931 . S
H192 C172 0.932 . S
H193 C173 0.930 . S
H194 C174 0.929 . S
H195 C176 0.930 . S
H196 C178 0.932 . S
H197 C179 0.929 . S
H198 C180 0.928 . S
H199 C182 0.932 . S
C200 C201 1.264 . S
C200 C205 1.479 . S
C200 C210 1.465 . S
C201 C200 1.264 . S
C201 C203 1.339 . S
C201 H228 0.931 . S
C202 C203 1.395 . S
C202 C204 1.320 . S
C203 C201 1.339 . S
C203 C202 1.395 . S
C203 H229 0.929 . S
C204 C202 1.320 . S
C204 C205 1.405 . S
C204 H230 0.930 . S
C205 C200 1.479 . S
C205 C204 1.405 . S
C205 H231 0.931 . S
U206 O207 2.454 1_655 S
U206 O208 2.458 1_655 S
U206 C209 2.984 1_655 S
U206 C210 2.847 . S
U206 C223 2.882 . S
U206 O224 2.441 . S
U206 O225 2.420 . S
U206 O226 2.455 1_655 S
U206 O227 2.449 . S
O207 U206 2.454 1_455 S
O207 C209 1.353 . S
O208 U206 2.458 1_455 S
O208 C209 1.286 . S
C209 U206 2.984 1_455 S
C209 O207 1.353 . S
C209 O208 1.286 . S
C209 C211 1.363 . S
C210 C200 1.465 . S
C210 U206 2.847 . S
C210 O224 1.249 . S
C210 O225 1.202 . S
C211 C209 1.363 . S
C211 C213 1.408 . S
C211 C216 1.342 . S
C212 C213 1.310 . S
C212 C215 1.461 . S
C212 H232 0.932 . S
C213 C211 1.408 . S
C213 C212 1.310 . S
C213 H233 0.930 . S
C214 C215 1.474 . S
C214 C216 1.285 . S
C214 H234 0.929 . S
C215 C212 1.461 . S
C215 C214 1.474 . S
C216 C211 1.342 . S
C216 C214 1.285 . S
C216 H235 0.930 . S
C217 C220 1.424 . S
C217 C222 1.245 1_655 S
C217 C223 1.428 1_554 S
C218 C221 1.250 1_455 S
C218 C222 1.477 . S
C218 H236 0.932 . S
C219 C220 1.384 . S
C219 C221 1.488 . S
C219 H237 0.929 . S
C220 C217 1.424 . S
C220 C219 1.384 . S
C220 H238 0.928 . S
C221 C218 1.250 1_655 S
C221 C219 1.488 . S
C222 C217 1.245 1_455 S
C222 C218 1.477 . S
C222 H239 0.932 . S
C223 U206 2.882 . S
C223 C217 1.428 1_556 S
C223 O226 1.301 1_655 S
C223 O227 1.282 . S
O224 U206 2.441 . S
O224 C210 1.249 . S
O225 U206 2.420 . S
O225 C210 1.202 . S
O226 U206 2.455 1_455 S
O226 C223 1.301 1_455 S
O227 U206 2.449 . S
O227 C223 1.282 . S
H228 C201 0.931 . S
H229 C203 0.929 . S
H230 C204 0.930 . S
H231 C205 0.931 . S
H232 C212 0.932 . S
H233 C213 0.930 . S
H234 C214 0.929 . S
H235 C216 0.930 . S
H236 C218 0.932 . S
H237 C219 0.929 . S
H238 C220 0.928 . S
H239 C222 0.932 . S
C240 C241 1.264 . S
C240 C245 1.479 . S
C240 C250 1.465 . S
C241 C240 1.264 . S
C241 C243 1.339 . S
C241 H268 0.931 . S
C242 C243 1.395 . S
C242 C244 1.320 . S
C243 C241 1.339 . S
C243 C242 1.395 . S
C243 H269 0.929 . S
C244 C242 1.320 . S
C244 C245 1.405 . S
C244 H270 0.930 . S
C245 C240 1.479 . S
C245 C244 1.405 . S
C245 H271 0.931 . S
U246 O247 2.454 . S
U246 O248 2.458 . S
U246 C249 2.984 . S
U246 C250 2.847 1_455 S
U246 C263 2.882 . S
U246 O264 2.441 1_455 S
U246 O265 2.420 1_455 S
U246 O266 2.455 . S
U246 O267 2.449 1_455 S
O247 U246 2.454 . S
O247 C249 1.353 . S
O248 U246 2.458 . S
O248 C249 1.286 . S
C249 U246 2.984 . S
C249 O247 1.353 . S
C249 O248 1.286 . S
C249 C251 1.363 . S
C250 C240 1.465 . S
C250 U246 2.847 1_655 S
C250 O264 1.249 . S
C250 O265 1.202 . S
C251 C249 1.363 . S
C251 C253 1.408 . S
C251 C256 1.342 . S
C252 C253 1.310 . S
C252 C255 1.461 . S
C252 H272 0.932 . S
C253 C251 1.408 . S
C253 C252 1.310 . S
C253 H273 0.930 . S
C254 C255 1.474 . S
C254 C256 1.285 . S
C254 H274 0.929 . S
C255 C252 1.461 . S
C255 C254 1.474 . S
C256 C251 1.342 . S
C256 C254 1.285 . S
C256 H275 0.930 . S
C257 C260 1.424 1_455 S
C257 C262 1.245 . S
C257 C263 1.428 . S
C258 C261 1.260 . S
C258 C262 1.477 . S
C258 H276 0.932 . S
C259 C260 1.384 . S
C259 C261 1.479 1_655 S
C259 H277 0.929 . S
C260 C257 1.424 1_655 S
C260 C259 1.384 . S
C260 H278 0.928 . S
C261 C258 1.260 . S
C261 C259 1.479 1_455 S
C262 C257 1.245 . S
C262 C258 1.477 . S
C262 H279 0.932 . S
C263 U246 2.882 . S
C263 C257 1.428 . S
C263 O266 1.301 . S
C263 O267 1.282 1_455 S
O264 U246 2.441 1_655 S
O264 C250 1.249 . S
O265 U246 2.420 1_655 S
O265 C250 1.202 . S
O266 U246 2.455 . S
O266 C263 1.301 . S
O267 U246 2.449 1_655 S
O267 C263 1.282 1_655 S
H268 C241 0.931 . S
H269 C243 0.929 . S
H270 C244 0.930 . S
H271 C245 0.931 . S
H272 C252 0.932 . S
H273 C253 0.930 . S
H274 C254 0.929 . S
H275 C256 0.930 . S
H276 C258 0.932 . S
H277 C259 0.929 . S
H278 C260 0.928 . S
H279 C262 0.932 . S
C280 C281 1.264 . S
C280 C285 1.479 . S
C280 C290 1.465 . S
C281 C280 1.264 . S
C281 C283 1.339 . S
C281 H308 0.931 . S
C282 C283 1.395 . S
C282 C284 1.320 . S
C283 C281 1.339 . S
C283 C282 1.395 . S
C283 H309 0.929 . S
C284 C282 1.320 . S
C284 C285 1.405 . S
C284 H310 0.930 . S
C285 C280 1.479 . S
C285 C284 1.405 . S
C285 H311 0.931 . S
U286 O287 2.454 1_565 S
U286 O288 2.458 1_565 S
U286 C289 2.984 1_565 S
U286 C290 2.847 . S
U286 C303 2.882 . S
U286 O304 2.441 . S
U286 O305 2.420 . S
U286 O306 2.455 1_565 S
U286 O307 2.449 . S
O287 U286 2.454 1_545 S
O287 C289 1.353 . S
O288 U286 2.458 1_545 S
O288 C289 1.286 . S
C289 U286 2.984 1_545 S
C289 O287 1.353 . S
C289 O288 1.286 . S
C289 C291 1.363 . S
C290 C280 1.465 . S
C290 U286 2.847 . S
C290 O304 1.249 . S
C290 O305 1.202 . S
C291 C289 1.363 . S
C291 C293 1.408 . S
C291 C296 1.342 . S
C292 C293 1.310 . S
C292 C295 1.461 . S
C292 H312 0.932 . S
C293 C291 1.408 . S
C293 C292 1.310 . S
C293 H313 0.930 . S
C294 C295 1.474 . S
C294 C296 1.285 . S
C294 H314 0.929 . S
C295 C292 1.461 . S
C295 C294 1.474 . S
C296 C291 1.342 . S
C296 C294 1.285 . S
C296 H315 0.930 . S
C297 C300 1.424 . S
C297 C302 1.245 1_565 S
C297 C303 1.428 . S
C298 C301 1.260 . S
C298 C302 1.477 . S
C298 H316 0.932 . S
C299 C300 1.384 . S
C299 C301 1.479 1_565 S
C299 H317 0.929 . S
C300 C297 1.424 . S
C300 C299 1.384 . S
C300 H318 0.928 . S
C301 C298 1.260 . S
C301 C299 1.479 1_545 S
C302 C297 1.245 1_545 S
C302 C298 1.477 . S
C302 H319 0.932 . S
C303 U286 2.882 . S
C303 C297 1.428 . S
C303 O306 1.301 1_565 S
C303 O307 1.282 . S
O304 U286 2.441 . S
O304 C290 1.249 . S
O305 U286 2.420 . S
O305 C290 1.202 . S
O306 U286 2.455 1_545 S
O306 C303 1.301 1_545 S
O307 U286 2.449 . S
O307 C303 1.282 . S
H308 C281 0.931 . S
H309 C283 0.929 . S
H310 C284 0.930 . S
H311 C285 0.931 . S
H312 C292 0.932 . S
H313 C293 0.930 . S
H314 C294 0.929 . S
H315 C296 0.930 . S
H316 C298 0.932 . S
H317 C299 0.929 . S
H318 C300 0.928 . S
H319 C302 0.932 . S
C320 C321 1.264 . S
C320 C325 1.479 . S
C320 C330 1.465 . S
C321 C320 1.264 . S
C321 C323 1.339 . S
C321 H348 0.931 . S
C322 C323 1.395 . S
C322 C324 1.320 . S
C323 C321 1.339 . S
C323 C322 1.395 . S
C323 H349 0.929 . S
C324 C322 1.320 . S
C324 C325 1.405 . S
C324 H350 0.930 . S
C325 C320 1.479 . S
C325 C324 1.405 . S
C325 H351 0.931 . S
U326 O327 2.454 . S
U326 O328 2.458 . S
U326 C329 2.984 . S
U326 C330 2.847 . S
U326 C343 2.882 . S
U326 O344 2.441 . S
U326 O345 2.420 . S
U326 O346 2.455 . S
U326 O347 2.449 . S
O327 U326 2.454 . S
O327 C329 1.353 . S
O328 U326 2.458 . S
O328 C329 1.286 . S
C329 U326 2.984 . S
C329 O327 1.353 . S
C329 O328 1.286 . S
C329 C331 1.363 . S
C330 C320 1.465 . S
C330 U326 2.847 . S
C330 O344 1.249 . S
C330 O345 1.202 . S
C331 C329 1.363 . S
C331 C333 1.408 . S
C331 C336 1.342 . S
C332 C333 1.310 . S
C332 C335 1.461 . S
C332 H352 0.932 . S
C333 C331 1.408 . S
C333 C332 1.310 . S
C333 H353 0.930 . S
C334 C335 1.474 . S
C334 C336 1.285 . S
C334 H354 0.929 . S
C335 C332 1.461 . S
C335 C334 1.474 . S
C336 C331 1.342 . S
C336 C334 1.285 . S
C336 H355 0.930 . S
C337 C340 1.424 . S
C337 C342 1.245 . S
C337 C343 1.428 1_556 S
C338 C341 1.260 . S
C338 C342 1.477 . S
C338 H356 0.932 . S
C339 C340 1.384 . S
C339 C341 1.479 . S
C339 H357 0.929 . S
C340 C337 1.424 . S
C340 C339 1.384 . S
C340 H358 0.928 . S
C341 C338 1.260 . S
C341 C339 1.479 . S
C342 C337 1.245 . S
C342 C338 1.477 . S
C342 H359 0.932 . S
C343 U326 2.882 . S
C343 C337 1.428 1_554 S
C343 O346 1.301 . S
C343 O347 1.282 . S
O344 U326 2.441 . S
O344 C330 1.249 . S
O345 U326 2.420 . S
O345 C330 1.202 . S
O346 U326 2.455 . S
O346 C343 1.301 . S
O347 U326 2.449 . S
O347 C343 1.282 . S
H348 C321 0.931 . S
H349 C323 0.929 . S
H350 C324 0.930 . S
H351 C325 0.931 . S
H352 C332 0.932 . S
H353 C333 0.930 . S
H354 C334 0.929 . S
H355 C336 0.930 . S
H356 C338 0.932 . S
H357 C339 0.929 . S
H358 C340 0.928 . S
H359 C342 0.932 . S
C10 C335 5.128 . S
C59 C242 5.185 . S
C90 C282 5.146 . S
C19 C322 5.187 . S
C255 C50 5.130 . S
C295 C99 5.170 . S
C46 C162 1.314 . S
C95 C202 1.383 . S
C6 C135 1.550 . S
C175 C55 1.310 . S
C215 C86 1.567 . S
C15 C122 1.377 . S
C221 C9 1.281 1_655 S
C49 C141 1.289 . S
C89 C181 0.846 . S
C301 C58 2.037 . S
C341 C98 2.031 . S
C18 C261 2.033 . S
