# Generated by pormake.
# Topology gar, (4,6)-cn, num edge types: 1
# Building blocks:
#     Node 0, Type 0, BuildingBlock: QUQFOY_clean_sbu_1, # of connection points: 4
#     Node 1, Type 0, BuildingBlock: QUQFOY_clean_sbu_1, # of connection points: 4
#     Node 2, Type 0, BuildingBlock: QUQFOY_clean_sbu_1, # of connection points: 4
#     Node 3, Type 0, BuildingBlock: QUQFOY_clean_sbu_1, # of connection points: 4
#     Node 4, Type 0, BuildingBlock: QUQFOY_clean_sbu_1, # of connection points: 4
#     Node 5, Type 0, BuildingBlock: QUQFOY_clean_sbu_1, # of connection points: 4
#     Node 6, Type 0, BuildingBlock: QUQFOY_clean_sbu_1, # of connection points: 4
#     Node 7, Type 0, BuildingBlock: QUQFOY_clean_sbu_1, # of connection points: 4
#     Node 8, Type 0, BuildingBlock: QUQFOY_clean_sbu_1, # of connection points: 4
#     Node 9, Type 0, BuildingBlock: QUQFOY_clean_sbu_1, # of connection points: 4
#     Node 10, Type 0, BuildingBlock: QUQFOY_clean_sbu_1, # of connection points: 4
#     Node 11, Type 0, BuildingBlock: QUQFOY_clean_sbu_1, # of connection points: 4
#     Node 12, Type 0, BuildingBlock: QUQFOY_clean_sbu_1, # of connection points: 4
#     Node 13, Type 0, BuildingBlock: QUQFOY_clean_sbu_1, # of connection points: 4
#     Node 14, Type 0, BuildingBlock: QUQFOY_clean_sbu_1, # of connection points: 4
#     Node 15, Type 0, BuildingBlock: QUQFOY_clean_sbu_1, # of connection points: 4
#     Node 16, Type 0, BuildingBlock: QUQFOY_clean_sbu_1, # of connection points: 4
#     Node 17, Type 0, BuildingBlock: QUQFOY_clean_sbu_1, # of connection points: 4
#     Node 18, Type 0, BuildingBlock: QUQFOY_clean_sbu_1, # of connection points: 4
#     Node 19, Type 0, BuildingBlock: QUQFOY_clean_sbu_1, # of connection points: 4
#     Node 20, Type 0, BuildingBlock: QUQFOY_clean_sbu_1, # of connection points: 4
#     Node 21, Type 0, BuildingBlock: QUQFOY_clean_sbu_1, # of connection points: 4
#     Node 22, Type 0, BuildingBlock: QUQFOY_clean_sbu_1, # of connection points: 4
#     Node 23, Type 0, BuildingBlock: QUQFOY_clean_sbu_1, # of connection points: 4
#     Node 24, Type 1, BuildingBlock: BETDEL_clean_sbu_0, # of connection points: 6
#     Node 25, Type 1, BuildingBlock: BETDEL_clean_sbu_0, # of connection points: 6
#     Node 26, Type 1, BuildingBlock: BETDEL_clean_sbu_0, # of connection points: 6
#     Node 27, Type 1, BuildingBlock: BETDEL_clean_sbu_0, # of connection points: 6
#     Node 28, Type 1, BuildingBlock: BETDEL_clean_sbu_0, # of connection points: 6
#     Node 29, Type 1, BuildingBlock: BETDEL_clean_sbu_0, # of connection points: 6
#     Node 30, Type 1, BuildingBlock: BETDEL_clean_sbu_0, # of connection points: 6
#     Node 31, Type 1, BuildingBlock: BETDEL_clean_sbu_0, # of connection points: 6
#     Node 32, Type 1, BuildingBlock: BETDEL_clean_sbu_0, # of connection points: 6
#     Node 33, Type 1, BuildingBlock: BETDEL_clean_sbu_0, # of connection points: 6
#     Node 34, Type 1, BuildingBlock: BETDEL_clean_sbu_0, # of connection points: 6
#     Node 35, Type 1, BuildingBlock: BETDEL_clean_sbu_0, # of connection points: 6
#     Node 36, Type 1, BuildingBlock: BETDEL_clean_sbu_0, # of connection points: 6
#     Node 37, Type 1, BuildingBlock: BETDEL_clean_sbu_0, # of connection points: 6
#     Node 38, Type 1, BuildingBlock: BETDEL_clean_sbu_0, # of connection points: 6
#     Node 39, Type 1, BuildingBlock: BETDEL_clean_sbu_0, # of connection points: 6
#     Edge 40, Type (0, 1), BuildingBlock: OJICUG_clean_linker_0, # of connection points: 2
#     Edge 41, Type (0, 1), BuildingBlock: OJICUG_clean_linker_0, # of connection points: 2
#     Edge 42, Type (0, 1), BuildingBlock: OJICUG_clean_linker_0, # of connection points: 2
#     Edge 43, Type (0, 1), BuildingBlock: OJICUG_clean_linker_0, # of connection points: 2
#     Edge 44, Type (0, 1), BuildingBlock: OJICUG_clean_linker_0, # of connection points: 2
#     Edge 45, Type (0, 1), BuildingBlock: OJICUG_clean_linker_0, # of connection points: 2
#     Edge 46, Type (0, 1), BuildingBlock: OJICUG_clean_linker_0, # of connection points: 2
#     Edge 47, Type (0, 1), BuildingBlock: OJICUG_clean_linker_0, # of connection points: 2
#     Edge 48, Type (0, 1), BuildingBlock: OJICUG_clean_linker_0, # of connection points: 2
#     Edge 49, Type (0, 1), BuildingBlock: OJICUG_clean_linker_0, # of connection points: 2
#     Edge 50, Type (0, 1), BuildingBlock: OJICUG_clean_linker_0, # of connection points: 2
#     Edge 51, Type (0, 1), BuildingBlock: OJICUG_clean_linker_0, # of connection points: 2
#     Edge 52, Type (0, 1), BuildingBlock: OJICUG_clean_linker_0, # of connection points: 2
#     Edge 53, Type (0, 1), BuildingBlock: OJICUG_clean_linker_0, # of connection points: 2
#     Edge 54, Type (0, 1), BuildingBlock: OJICUG_clean_linker_0, # of connection points: 2
#     Edge 55, Type (0, 1), BuildingBlock: OJICUG_clean_linker_0, # of connection points: 2
#     Edge 56, Type (0, 1), BuildingBlock: OJICUG_clean_linker_0, # of connection points: 2
#     Edge 57, Type (0, 1), BuildingBlock: OJICUG_clean_linker_0, # of connection points: 2
#     Edge 58, Type (0, 1), BuildingBlock: OJICUG_clean_linker_0, # of connection points: 2
#     Edge 59, Type (0, 1), BuildingBlock: OJICUG_clean_linker_0, # of connection points: 2
#     Edge 60, Type (0, 1), BuildingBlock: OJICUG_clean_linker_0, # of connection points: 2
#     Edge 61, Type (0, 1), BuildingBlock: OJICUG_clean_linker_0, # of connection points: 2
#     Edge 62, Type (0, 1), BuildingBlock: OJICUG_clean_linker_0, # of connection points: 2
#     Edge 63, Type (0, 1), BuildingBlock: OJICUG_clean_linker_0, # of connection points: 2
#     Edge 64, Type (0, 1), BuildingBlock: OJICUG_clean_linker_0, # of connection points: 2
#     Edge 65, Type (0, 1), BuildingBlock: OJICUG_clean_linker_0, # of connection points: 2
#     Edge 66, Type (0, 1), BuildingBlock: OJICUG_clean_linker_0, # of connection points: 2
#     Edge 67, Type (0, 1), BuildingBlock: OJICUG_clean_linker_0, # of connection points: 2
#     Edge 68, Type (0, 1), BuildingBlock: OJICUG_clean_linker_0, # of connection points: 2
#     Edge 69, Type (0, 1), BuildingBlock: OJICUG_clean_linker_0, # of connection points: 2
#     Edge 70, Type (0, 1), BuildingBlock: OJICUG_clean_linker_0, # of connection points: 2
#     Edge 71, Type (0, 1), BuildingBlock: OJICUG_clean_linker_0, # of connection points: 2
#     Edge 72, Type (0, 1), BuildingBlock: OJICUG_clean_linker_0, # of connection points: 2
#     Edge 73, Type (0, 1), BuildingBlock: OJICUG_clean_linker_0, # of connection points: 2
#     Edge 74, Type (0, 1), BuildingBlock: OJICUG_clean_linker_0, # of connection points: 2
#     Edge 75, Type (0, 1), BuildingBlock: OJICUG_clean_linker_0, # of connection points: 2
#     Edge 76, Type (0, 1), BuildingBlock: OJICUG_clean_linker_0, # of connection points: 2
#     Edge 77, Type (0, 1), BuildingBlock: OJICUG_clean_linker_0, # of connection points: 2
#     Edge 78, Type (0, 1), BuildingBlock: OJICUG_clean_linker_0, # of connection points: 2
#     Edge 79, Type (0, 1), BuildingBlock: OJICUG_clean_linker_0, # of connection points: 2
#     Edge 80, Type (0, 1), BuildingBlock: OJICUG_clean_linker_0, # of connection points: 2
#     Edge 81, Type (0, 1), BuildingBlock: OJICUG_clean_linker_0, # of connection points: 2
#     Edge 82, Type (0, 1), BuildingBlock: OJICUG_clean_linker_0, # of connection points: 2
#     Edge 83, Type (0, 1), BuildingBlock: OJICUG_clean_linker_0, # of connection points: 2
#     Edge 84, Type (0, 1), BuildingBlock: OJICUG_clean_linker_0, # of connection points: 2
#     Edge 85, Type (0, 1), BuildingBlock: OJICUG_clean_linker_0, # of connection points: 2
#     Edge 86, Type (0, 1), BuildingBlock: OJICUG_clean_linker_0, # of connection points: 2
#     Edge 87, Type (0, 1), BuildingBlock: OJICUG_clean_linker_0, # of connection points: 2
#     Edge 88, Type (0, 1), BuildingBlock: OJICUG_clean_linker_0, # of connection points: 2
#     Edge 89, Type (0, 1), BuildingBlock: OJICUG_clean_linker_0, # of connection points: 2
#     Edge 90, Type (0, 1), BuildingBlock: OJICUG_clean_linker_0, # of connection points: 2
#     Edge 91, Type (0, 1), BuildingBlock: OJICUG_clean_linker_0, # of connection points: 2
#     Edge 92, Type (0, 1), BuildingBlock: OJICUG_clean_linker_0, # of connection points: 2
#     Edge 93, Type (0, 1), BuildingBlock: OJICUG_clean_linker_0, # of connection points: 2
#     Edge 94, Type (0, 1), BuildingBlock: OJICUG_clean_linker_0, # of connection points: 2
#     Edge 95, Type (0, 1), BuildingBlock: OJICUG_clean_linker_0, # of connection points: 2
#     Edge 96, Type (0, 1), BuildingBlock: OJICUG_clean_linker_0, # of connection points: 2
#     Edge 97, Type (0, 1), BuildingBlock: OJICUG_clean_linker_0, # of connection points: 2
#     Edge 98, Type (0, 1), BuildingBlock: OJICUG_clean_linker_0, # of connection points: 2
#     Edge 99, Type (0, 1), BuildingBlock: OJICUG_clean_linker_0, # of connection points: 2
#     Edge 100, Type (0, 1), BuildingBlock: OJICUG_clean_linker_0, # of connection points: 2
#     Edge 101, Type (0, 1), BuildingBlock: OJICUG_clean_linker_0, # of connection points: 2
#     Edge 102, Type (0, 1), BuildingBlock: OJICUG_clean_linker_0, # of connection points: 2
#     Edge 103, Type (0, 1), BuildingBlock: OJICUG_clean_linker_0, # of connection points: 2
#     Edge 104, Type (0, 1), BuildingBlock: OJICUG_clean_linker_0, # of connection points: 2
#     Edge 105, Type (0, 1), BuildingBlock: OJICUG_clean_linker_0, # of connection points: 2
#     Edge 106, Type (0, 1), BuildingBlock: OJICUG_clean_linker_0, # of connection points: 2
#     Edge 107, Type (0, 1), BuildingBlock: OJICUG_clean_linker_0, # of connection points: 2
#     Edge 108, Type (0, 1), BuildingBlock: OJICUG_clean_linker_0, # of connection points: 2
#     Edge 109, Type (0, 1), BuildingBlock: OJICUG_clean_linker_0, # of connection points: 2
#     Edge 110, Type (0, 1), BuildingBlock: OJICUG_clean_linker_0, # of connection points: 2
#     Edge 111, Type (0, 1), BuildingBlock: OJICUG_clean_linker_0, # of connection points: 2
#     Edge 112, Type (0, 1), BuildingBlock: OJICUG_clean_linker_0, # of connection points: 2
#     Edge 113, Type (0, 1), BuildingBlock: OJICUG_clean_linker_0, # of connection points: 2
#     Edge 114, Type (0, 1), BuildingBlock: OJICUG_clean_linker_0, # of connection points: 2
#     Edge 115, Type (0, 1), BuildingBlock: OJICUG_clean_linker_0, # of connection points: 2
#     Edge 116, Type (0, 1), BuildingBlock: OJICUG_clean_linker_0, # of connection points: 2
#     Edge 117, Type (0, 1), BuildingBlock: OJICUG_clean_linker_0, # of connection points: 2
#     Edge 118, Type (0, 1), BuildingBlock: OJICUG_clean_linker_0, # of connection points: 2
#     Edge 119, Type (0, 1), BuildingBlock: OJICUG_clean_linker_0, # of connection points: 2
#     Edge 120, Type (0, 1), BuildingBlock: OJICUG_clean_linker_0, # of connection points: 2
#     Edge 121, Type (0, 1), BuildingBlock: OJICUG_clean_linker_0, # of connection points: 2
#     Edge 122, Type (0, 1), BuildingBlock: OJICUG_clean_linker_0, # of connection points: 2
#     Edge 123, Type (0, 1), BuildingBlock: OJICUG_clean_linker_0, # of connection points: 2
#     Edge 124, Type (0, 1), BuildingBlock: OJICUG_clean_linker_0, # of connection points: 2
#     Edge 125, Type (0, 1), BuildingBlock: OJICUG_clean_linker_0, # of connection points: 2
#     Edge 126, Type (0, 1), BuildingBlock: OJICUG_clean_linker_0, # of connection points: 2
#     Edge 127, Type (0, 1), BuildingBlock: OJICUG_clean_linker_0, # of connection points: 2
#     Edge 128, Type (0, 1), BuildingBlock: OJICUG_clean_linker_0, # of connection points: 2
#     Edge 129, Type (0, 1), BuildingBlock: OJICUG_clean_linker_0, # of connection points: 2
#     Edge 130, Type (0, 1), BuildingBlock: OJICUG_clean_linker_0, # of connection points: 2
#     Edge 131, Type (0, 1), BuildingBlock: OJICUG_clean_linker_0, # of connection points: 2
#     Edge 132, Type (0, 1), BuildingBlock: OJICUG_clean_linker_0, # of connection points: 2
#     Edge 133, Type (0, 1), BuildingBlock: OJICUG_clean_linker_0, # of connection points: 2
#     Edge 134, Type (0, 1), BuildingBlock: OJICUG_clean_linker_0, # of connection points: 2
#     Edge 135, Type (0, 1), BuildingBlock: OJICUG_clean_linker_0, # of connection points: 2
# Relax obj value: 0.166
# Max RMSD: 0.291
# Mean RMSD: 0.182
data_MOF--net-gar--node1-QUQFOY_clean_sbu_1--node2-BETDEL_clean_sbu_0--edge1-OJICUG_clean_linker_0
_symmetry_space_group_name_H-M    P1
_symmetry_Int_Tables_number       1
_symmetry_cell_setting            triclinic
loop_
_symmetry_equiv_pos_as_xyz
'x, y, z'
_cell_length_a     42.453642
_cell_length_b     39.916738
_cell_length_c     41.282732
_cell_angle_alpha  95.637533
_cell_angle_beta   92.043364
_cell_angle_gamma 103.22035
loop_
_atom_site_label
_atom_site_type_symbol
_atom_site_fract_x
_atom_site_fract_y
_atom_site_fract_z
_atom_type_partial_charge
O0 O 0.04238 0.21977 0.40887 0.0
Cd1 Cd 0.04657 0.26016 0.37963 0.0
Cd2 Cd 0.02714 0.2894 0.43845 0.0
O3 O 0.03601 0.24637 0.45678 0.0
O4 O 0.06598 0.24286 0.33968 0.0
O5 O 0.09085 0.28934 0.37219 0.0
C6 C 0.09104 0.26811 0.34651 0.0
C7 C 0.04412 0.34294 0.46899 0.0
C8 C 0.03983 0.21967 0.43953 0.0
C9 C 0.98277 0.28173 0.37885 0.0
O10 O 0.98544 0.28528 0.40979 0.0
O11 O 1.00543 0.27418 0.36238 0.0
O12 O 0.02078 0.31938 0.47761 0.0
O13 O 0.05904 0.33551 0.44348 0.0
O14 O 0.98046 0.70043 0.60708 0.0
Cd15 Cd 0.98993 0.74244 0.64276 0.0
Cd16 Cd 0.01897 0.77481 0.59394 0.0
O17 O 0.9998 0.72879 0.56612 0.0
O18 O 0.96074 0.72929 0.67887 0.0
O19 O 0.96048 0.77515 0.65317 0.0
C20 C 0.9492 0.75605 0.67559 0.0
C21 C 0.01184 0.82503 0.57329 0.0
C22 C 0.98678 0.70071 0.57718 0.0
C23 C 0.06234 0.7636 0.64922 0.0
O24 O 0.06082 0.77513 0.62166 0.0
O25 O 0.03651 0.75153 0.66307 0.0
O26 O 0.03146 0.80777 0.56076 0.0
O27 O 0.99652 0.81409 0.59812 0.0
O28 O 0.61025 0.77774 0.89282 0.0
Cd29 Cd 0.58019 0.78108 0.93146 0.0
Cd30 Cd 0.54653 0.80628 0.88136 0.0
O31 O 0.58305 0.79571 0.85389 0.0
O32 O 0.59054 0.7507 0.96415 0.0
O33 O 0.54354 0.73994 0.93566 0.0
C34 C 0.56195 0.73106 0.95728 0.0
C35 C 0.49481 0.79983 0.85716 0.0
C36 C 0.60706 0.78452 0.86349 0.0
C37 C 0.56807 0.85211 0.94516 0.0
O38 O 0.55636 0.84762 0.91599 0.0
O39 O 0.57909 0.82856 0.95703 0.0
O40 O 0.51903 0.82321 0.84994 0.0
O41 O 0.50031 0.77827 0.87681 0.0
O42 O 0.48163 0.20105 0.10571 0.0
Cd43 Cd 0.48983 0.24255 0.14208 0.0
Cd44 Cd 0.51995 0.27808 0.09454 0.0
O45 O 0.50484 0.23087 0.06714 0.0
O46 O 0.45937 0.22884 0.17728 0.0
O47 O 0.45934 0.27453 0.15131 0.0
C48 C 0.44737 0.25518 0.1733 0.0
C49 C 0.51085 0.3276 0.07304 0.0
C50 C 0.49105 0.20215 0.07678 0.0
C51 C 0.56249 0.26797 0.15084 0.0
O52 O 0.56115 0.28128 0.12417 0.0
O53 O 0.53657 0.25294 0.16306 0.0
O54 O 0.53197 0.31177 0.06151 0.0
O55 O 0.49485 0.31542 0.09703 0.0
O56 O 0.03316 0.7358 0.13124 0.0
Cd57 Cd 0.03924 0.77977 0.1643 0.0
Cd58 Cd 0.07635 0.8073 0.11778 0.0
O59 O 0.06813 0.75722 0.09596 0.0
O60 O 0.00798 0.76528 0.19808 0.0
O61 O 1.00545 0.80821 0.16903 0.0
C62 C 0.99401 0.78947 0.19161 0.0
C63 C 0.0598 0.84882 0.08934 0.0
C64 C 0.04858 0.73167 0.10581 0.0
C65 C 0.11026 0.8102 0.18277 0.0
O66 O 0.11306 0.81976 0.15429 0.0
O67 O 0.08291 0.79428 0.19134 0.0
O68 O 0.08637 0.83939 0.08345 0.0
O69 O 0.04273 0.835 0.11201 0.0
O70 O 0.5548 0.74909 0.3677 0.0
Cd71 Cd 0.52247 0.75026 0.40367 0.0
Cd72 Cd 0.49077 0.77648 0.34723 0.0
O73 O 0.53343 0.77054 0.32709 0.0
O74 O 0.54489 0.73356 0.43986 0.0
O75 O 0.49684 0.70549 0.41772 0.0
C76 C 0.5206 0.70736 0.43876 0.0
C77 C 0.4446 0.7666 0.31177 0.0
C78 C 0.55588 0.75834 0.33909 0.0
C79 C 0.50216 0.81858 0.41437 0.0
O80 O 0.49116 0.81468 0.38489 0.0
O81 O 0.51572 0.79649 0.4255 0.0
O82 O 0.46791 0.79364 0.31182 0.0
O83 O 0.44787 0.74405 0.33125 0.0
O84 O 0.53319 0.2273 0.6404 0.0
Cd85 Cd 0.54071 0.27251 0.67208 0.0
Cd86 Cd 0.57465 0.29811 0.62275 0.0
O87 O 0.56325 0.24802 0.60109 0.0
O88 O 0.5102 0.26026 0.70699 0.0
O89 O 0.50743 0.30146 0.67578 0.0
C90 C 0.49615 0.28397 0.69923 0.0
C91 C 0.55984 0.34111 0.59498 0.0
C92 C 0.54562 0.22269 0.61319 0.0
C93 C 0.61231 0.30083 0.68597 0.0
O94 O 0.61358 0.308 0.65663 0.0
O95 O 0.5854 0.28766 0.69731 0.0
O96 O 0.58499 0.32944 0.58781 0.0
O97 O 0.54325 0.32873 0.61855 0.0
O98 O 1.0014 0.19264 0.8862 0.0
Cd99 Cd 0.99921 0.22222 0.84801 0.0
Cd100 Cd 0.97002 0.25749 0.90005 0.0
O101 O 0.97642 0.217 0.9248 0.0
O102 O 0.02784 0.20607 0.81569 0.0
O103 O 0.03893 0.25895 0.84173 0.0
C104 C 0.04723 0.23626 0.82133 0.0
C105 C 0.98183 0.31258 0.92873 0.0
C106 C 0.99109 0.19397 0.91475 0.0
C107 C 0.93386 0.23593 0.83289 0.0
O108 O 0.9358 0.25013 0.86204 0.0
O109 O 0.95622 0.22214 0.82231 0.0
O110 O 0.95544 0.29019 0.93249 0.0
O111 O 1.00207 0.30345 0.90898 0.0
O112 O 0.43328 0.07214 0.23282 0.0
Cd113 Cd 0.39144 0.05278 0.25433 0.0
Cd114 Cd 0.43057 0.03689 0.29985 0.0
O115 O 0.45877 0.04062 0.26014 0.0
O116 O 0.35646 0.06871 0.23232 0.0
O117 O 0.36984 0.08031 0.2854 0.0
C118 C 0.35077 0.08178 0.2607 0.0
C119 C 0.45937 0.04895 0.35012 0.0
C120 C 0.45735 0.05884 0.23683 0.0
C121 C 0.37233 0.98376 0.2733 0.0
O122 O 0.39036 0.9964 0.29875 0.0
O123 O 0.37349 0.00069 0.24887 0.0
O124 O 0.45881 0.02127 0.3312 0.0
O125 O 0.44384 0.07078 0.34052 0.0
O126 O 0.28029 0.1678 0.55979 0.0
Cd127 Cd 0.27309 0.12905 0.52139 0.0
Cd128 Cd 0.25215 0.18315 0.48961 0.0
O129 O 0.26078 0.20791 0.5376 0.0
O130 O 0.29348 0.0927 0.53789 0.0
O131 O 0.31028 0.11942 0.49525 0.0
C132 C 0.3133 0.09695 0.51493 0.0
C133 C 0.26751 0.21269 0.44286 0.0
C134 C 0.27241 0.19683 0.56233 0.0
C135 C 0.20361 0.11412 0.49434 0.0
O136 O 0.21041 0.14341 0.48315 0.0
O137 O 0.22512 0.10362 0.51007 0.0
O138 O 0.24301 0.21694 0.45899 0.0
O139 O 0.28438 0.1926 0.45376 0.0
O140 O 0.15203 0.00418 0.72544 0.0
Cd141 Cd 0.1875 0.00692 0.76162 0.0
Cd142 Cd 0.1433 0.03574 0.79935 0.0
O143 O 0.12165 0.0337 0.75308 0.0
O144 O 0.21735 0.98096 0.73908 0.0
O145 O 0.19547 0.96674 0.7849 0.0
C146 C 0.2139 0.96082 0.76185 0.0
C147 C 0.10913 0.0231 0.84286 0.0
C148 C 0.12887 0.01956 0.72622 0.0
C149 C 0.20942 0.08082 0.79276 0.0
O150 O 0.18397 0.07618 0.8087 0.0
O151 O 0.21485 0.05672 0.77279 0.0
O152 O 0.11225 0.05138 0.82951 0.0
O153 O 0.12522 0.00124 0.83142 0.0
O154 O 0.24893 0.90395 0.05051 0.0
Cd155 Cd 0.26005 0.94017 0.01838 0.0
Cd156 Cd 0.27015 0.88118 0.97797 0.0
O157 O 0.25586 0.8585 0.01902 0.0
O158 O 0.24604 0.98084 0.03961 0.0
O159 O 0.22652 0.9543 0.99098 0.0
C160 C 0.22684 0.97859 0.01421 0.0
C161 C 0.2565 0.84322 0.93014 0.0
C162 C 0.249 0.87204 0.04612 0.0
C163 C 0.32652 0.94351 0.99606 0.0
O164 O 0.31567 0.91392 0.98017 0.0
O165 O 0.30812 0.9584 0.01272 0.0
O166 O 0.27823 0.84009 0.95134 0.0
O167 O 0.24232 0.86836 0.9359 0.0
O168 O 0.26361 0.38424 0.09755 0.0
Cd169 Cd 0.26883 0.4227 0.06607 0.0
Cd170 Cd 0.29246 0.37153 0.02576 0.0
O171 O 0.2801 0.34393 0.06639 0.0
O172 O 0.24143 0.45541 0.08149 0.0
O173 O 0.23327 0.42522 0.03295 0.0
C174 C 0.22512 0.4477 0.05373 0.0
C175 C 0.28366 0.3452 0.97122 0.0
C176 C 0.26961 0.35428 0.09335 0.0
C177 C 0.33749 0.44317 0.04632 0.0
O178 O 0.33258 0.41307 0.03091 0.0
O179 O 0.31531 0.45235 0.06244 0.0
O180 O 0.30605 0.33995 0.99065 0.0
O181 O 0.26459 0.36358 0.98327 0.0
O182 O 0.82053 0.16653 0.09613 0.0
Cd183 Cd 0.80187 0.12343 0.06358 0.0
Cd184 Cd 0.78951 0.16944 0.02296 0.0
O185 O 0.80405 0.20177 0.06508 0.0
O186 O 0.82221 0.08457 0.07111 0.0
O187 O 0.82569 0.10993 0.02543 0.0
C188 C 0.83206 0.08607 0.04192 0.0
C189 C 0.79609 0.19789 0.97624 0.0
C190 C 0.8166 0.19646 0.09185 0.0
C191 C 0.73448 0.11193 0.039 0.0
O192 O 0.74568 0.13453 0.02026 0.0
O193 O 0.75263 0.10485 0.06111 0.0
O194 O 0.77604 0.20364 0.99743 0.0
O195 O 0.81337 0.17612 0.98178 0.0
O196 O 0.12579 0.46538 0.16029 0.0
Cd197 Cd 0.16563 0.48702 0.19103 0.0
Cd198 Cd 0.12475 0.50011 0.23639 0.0
O199 O 0.09433 0.48495 0.19505 0.0
O200 O 0.2029 0.46565 0.18513 0.0
O201 O 0.17662 0.4669 0.23079 0.0
C202 C 0.2005 0.45944 0.21523 0.0
C203 C 0.09765 0.49585 0.28463 0.0
C204 C 0.0983 0.4706 0.1672 0.0
C205 C 0.17809 0.5584 0.21758 0.0
O206 O 0.15917 0.54623 0.23891 0.0
O207 O 0.18202 0.53919 0.19251 0.0
O208 O 0.09369 0.5172 0.26444 0.0
O209 O 0.11679 0.47576 0.27721 0.0
O210 O 0.76405 0.88415 0.59847 0.0
Cd211 Cd 0.76983 0.92195 0.56619 0.0
Cd212 Cd 0.79217 0.86872 0.5275 0.0
O213 O 0.77767 0.84147 0.56796 0.0
O214 O 0.74316 0.9555 0.58153 0.0
O215 O 0.7334 0.92369 0.53383 0.0
C216 C 0.72587 0.94678 0.55439 0.0
C217 C 0.78329 0.84431 0.4726 0.0
C218 C 0.76796 0.85328 0.59479 0.0
C219 C 0.83853 0.93991 0.54561 0.0
O220 O 0.83332 0.90884 0.53249 0.0
O221 O 0.81641 0.95075 0.5605 0.0
O222 O 0.80454 0.8368 0.49196 0.0
O223 O 0.76498 0.86341 0.48504 0.0
O224 O 0.89931 0.04544 0.16419 0.0
Cd225 Cd 0.86339 0.04116 0.19807 0.0
Cd226 Cd 0.9139 0.02214 0.23398 0.0
O227 O 0.94103 0.04329 0.19709 0.0
O228 O 0.83127 0.06886 0.18682 0.0
O229 O 0.86308 0.08103 0.23203 0.0
C230 C 0.84036 0.08809 0.21407 0.0
C231 C 0.9359 0.02208 0.28667 0.0
C232 C 0.9296 0.04791 0.16942 0.0
C233 C 0.85078 0.96893 0.21572 0.0
O234 O 0.88084 0.97583 0.22377 0.0
O235 O 0.83768 0.99211 0.20609 0.0
O236 O 0.94534 0.00572 0.26184 0.0
O237 O 0.91634 0.04168 0.28125 0.0
O238 O 0.32115 0.66649 0.58612 0.0
Cd239 Cd 0.30762 0.62817 0.5469 0.0
Cd240 Cd 0.29456 0.68282 0.51956 0.0
O241 O 0.31818 0.71132 0.56005 0.0
O242 O 0.3251 0.58807 0.5572 0.0
O243 O 0.33795 0.61597 0.51397 0.0
C244 C 0.34023 0.5908 0.5307 0.0
C245 C 0.29993 0.70895 0.4718 0.0
C246 C 0.32439 0.69901 0.58597 0.0
C247 C 0.23877 0.62479 0.53018 0.0
O248 O 0.24812 0.65596 0.5244 0.0
O249 O 0.25902 0.60743 0.53744 0.0
O250 O 0.28514 0.72009 0.49567 0.0
O251 O 0.31288 0.68315 0.47537 0.0
O252 O 0.40141 0.54456 0.66824 0.0
Cd253 Cd 0.36476 0.53963 0.70142 0.0
Cd254 Cd 0.4139 0.52296 0.73894 0.0
O255 O 0.44225 0.54355 0.70272 0.0
O256 O 0.33226 0.56697 0.6905 0.0
O257 O 0.36348 0.57862 0.73612 0.0
C258 C 0.34067 0.58557 0.71819 0.0
C259 C 0.43475 0.5252 0.7924 0.0
C260 C 0.43162 0.5474 0.67447 0.0
C261 C 0.35284 0.46751 0.71865 0.0
O262 O 0.38245 0.47559 0.7286 0.0
O263 O 0.33953 0.49001 0.70794 0.0
O264 O 0.44514 0.50849 0.76845 0.0
O265 O 0.4146 0.54374 0.78568 0.0
O266 O 0.61902 0.95982 0.66489 0.0
Cd267 Cd 0.65844 0.98153 0.69636 0.0
Cd268 Cd 0.61671 0.9961 0.73996 0.0
O269 O 0.58672 0.97987 0.69836 0.0
O270 O 0.69592 0.96056 0.68956 0.0
O271 O 0.67016 0.96063 0.73554 0.0
C272 C 0.69401 0.95379 0.71952 0.0
C273 C 0.59055 0.98757 0.78818 0.0
C274 C 0.59131 0.96511 0.67085 0.0
C275 C 0.67107 0.05353 0.72252 0.0
O276 O 0.65092 0.04241 0.74321 0.0
O277 O 0.67545 0.03363 0.69814 0.0
O278 O 0.58469 0.00942 0.76929 0.0
O279 O 0.6113 0.96979 0.77956 0.0
O280 O 0.77574 0.66598 0.06347 0.0
Cd281 Cd 0.77217 0.62948 0.02391 0.0
Cd282 Cd 0.75511 0.68465 0.99229 0.0
O283 O 0.7665 0.71057 0.03961 0.0
O284 O 0.79337 0.59337 0.03933 0.0
O285 O 0.81057 0.62299 0.99842 0.0
C286 C 0.81378 0.59967 0.01709 0.0
C287 C 0.76971 0.71345 0.94492 0.0
C288 C 0.77264 0.69702 0.06518 0.0
C289 C 0.70389 0.61666 0.9973 0.0
O290 O 0.7115 0.64687 0.98796 0.0
O291 O 0.72513 0.6039 0.01081 0.0
O292 O 0.74643 0.71914 0.96223 0.0
O293 O 0.78569 0.69208 0.95482 0.0
O294 O 0.9289 0.5655 0.72673 0.0
Cd295 Cd 0.89157 0.54713 0.7549 0.0
Cd296 Cd 0.94146 0.53187 0.7922 0.0
O297 O 0.9669 0.54735 0.75283 0.0
O298 O 0.85448 0.55871 0.73185 0.0
O299 O 0.87057 0.57812 0.78325 0.0
C300 C 0.85036 0.57616 0.75859 0.0
C301 C 0.96713 0.55028 0.84303 0.0
C302 C 0.95765 0.56153 0.72921 0.0
C303 C 0.88404 0.47433 0.77118 0.0
O304 O 0.91017 0.48387 0.78894 0.0
O305 O 0.87423 0.49533 0.75453 0.0
O306 O 0.97634 0.52789 0.82331 0.0
O307 O 0.94339 0.56304 0.83379 0.0
O308 O 0.75539 0.39102 0.55237 0.0
Cd309 Cd 0.76713 0.43094 0.5239 0.0
Cd310 Cd 0.78053 0.37615 0.48003 0.0
O311 O 0.77171 0.35124 0.52074 0.0
O312 O 0.75221 0.46945 0.54835 0.0
O313 O 0.73345 0.44696 0.49832 0.0
C314 C 0.73325 0.4692 0.52323 0.0
C315 C 0.76498 0.33933 0.43197 0.0
C316 C 0.76066 0.36094 0.54723 0.0
C317 C 0.8335 0.44042 0.49819 0.0
O318 O 0.82334 0.41241 0.47965 0.0
O319 O 0.81525 0.45129 0.51836 0.0
O320 O 0.78946 0.3377 0.45044 0.0
O321 O 0.74918 0.36249 0.44057 0.0
O322 O 0.65362 0.50669 0.2321 0.0
Cd323 Cd 0.69071 0.51113 0.26686 0.0
Cd324 Cd 0.64863 0.54042 0.30579 0.0
O325 O 0.625 0.5378 0.26033 0.0
O326 O 0.72001 0.48532 0.24335 0.0
O327 O 0.70061 0.47203 0.29046 0.0
C328 C 0.71808 0.46588 0.26662 0.0
C329 C 0.61699 0.52656 0.35075 0.0
C330 C 0.63079 0.52251 0.23342 0.0
C331 C 0.71352 0.5855 0.29597 0.0
O332 O 0.68923 0.58109 0.31356 0.0
O333 O 0.71786 0.56116 0.27565 0.0
O334 O 0.61881 0.55505 0.33801 0.0
O335 O 0.63295 0.50524 0.33788 0.0
Dy336 Dy 0.98557 0.00945 0.99896 0.0
C337 C 0.12308 0.04694 0.01383 0.0
C338 C 0.92032 0.00533 0.99765 0.0
Dy339 Dy 0.05852 0.04208 0.01867 0.0
O340 O 0.93911 0.01509 0.97452 0.0
O341 O 0.93692 0.99499 0.02 0.0
O342 O 0.99969 0.98138 0.95308 0.0
O343 O 0.02822 0.02908 0.9739 0.0
C344 C 0.02688 0.00449 0.95204 0.0
C345 C 0.01765 0.04936 0.06539 0.0
O346 O 0.04692 0.0864 0.99636 0.0
O347 O 0.99137 0.06763 1.00055 0.0
O348 O 0.10986 0.05528 0.04056 0.0
O349 O 0.10114 0.03765 0.99 0.0
O350 O 0.04541 0.07147 0.06397 0.0
O351 O 0.01546 0.0238 0.04418 0.0
O352 O 0.99713 0.96343 0.01961 0.0
O353 O 0.05314 0.98533 0.02331 0.0
C354 C 0.01718 0.0914 0.99397 0.0
C355 C 0.02715 0.95997 0.02544 0.0
Dy356 Dy 0.27225 0.77611 0.2133 0.0
C357 C 0.28314 0.75627 0.34743 0.0
C358 C 0.26635 0.79741 0.15352 0.0
Dy359 Dy 0.26869 0.77245 0.28749 0.0
O360 O 0.24723 0.77049 0.16329 0.0
O361 O 0.28911 0.81142 0.17572 0.0
O362 O 0.31411 0.74995 0.21218 0.0
O363 O 0.30716 0.78083 0.25391 0.0
C364 C 0.32298 0.75973 0.24279 0.0
C365 C 0.2187 0.79101 0.2593 0.0
O366 O 0.29887 0.82545 0.28673 0.0
O367 O 0.27879 0.83124 0.23536 0.0
O368 O 0.29324 0.74394 0.32055 0.0
O369 O 0.26471 0.77722 0.34163 0.0
O370 O 0.22676 0.79863 0.29034 0.0
O371 O 0.23412 0.76992 0.24707 0.0
O372 O 0.2458 0.72096 0.21162 0.0
O373 O 0.25034 0.71691 0.26751 0.0
C374 C 0.29462 0.84485 0.26356 0.0
C375 C 0.24203 0.70288 0.23704 0.0
Dy376 Dy 0.55479 0.01815 0.51983 0.0
C377 C 0.42015 0.02896 0.51239 0.0
C378 C 0.61502 0.00478 0.52851 0.0
Dy379 Dy 0.47793 0.01093 0.52265 0.0
O380 O 0.59754 0.99891 0.50113 0.0
O381 O 0.60009 0.01926 0.55088 0.0
O382 O 0.55572 0.05176 0.47844 0.0
O383 O 0.51389 0.01479 0.48654 0.0
C384 C 0.52489 0.03949 0.47047 0.0
C385 C 0.50621 0.98609 0.57029 0.0
O386 O 0.47849 0.96249 0.49068 0.0
O387 O 0.53141 0.96133 0.50732 0.0
O388 O 0.4249 0.00631 0.53162 0.0
O389 O 0.44665 0.04076 0.49826 0.0
O390 O 0.47509 0.97614 0.56295 0.0
O391 O 0.51854 0.01184 0.55579 0.0
O392 O 0.55576 0.07016 0.54616 0.0
O393 O 0.49963 0.06558 0.5443 0.0
C394 C 0.50256 0.94634 0.49251 0.0
C395 C 0.53001 0.08313 0.55173 0.0
Dy396 Dy 0.23941 0.27654 0.7615 0.0
C397 C 0.37647 0.29392 0.75647 0.0
C398 C 0.17464 0.26385 0.77132 0.0
Dy399 Dy 0.31197 0.28114 0.76783 0.0
O400 O 0.19412 0.29427 0.77311 0.0
O401 O 0.19042 0.24019 0.76346 0.0
O402 O 0.24725 0.32038 0.73057 0.0
O403 O 0.28251 0.31899 0.76748 0.0
C404 C 0.27608 0.33455 0.74376 0.0
C405 C 0.27482 0.2225 0.78481 0.0
O406 O 0.30726 0.30804 0.81687 0.0
O407 O 0.25157 0.28671 0.81608 0.0
O408 O 0.36186 0.27166 0.77515 0.0
O409 O 0.356 0.30999 0.74481 0.0
O410 O 0.30343 0.23679 0.79833 0.0
O411 O 0.26898 0.23844 0.7612 0.0
O412 O 0.24396 0.25447 0.71014 0.0
O413 O 0.30024 0.26467 0.71405 0.0
C414 C 0.27974 0.30222 0.83193 0.0
C415 C 0.27202 0.25461 0.69684 0.0
Dy416 Dy 0.00553 0.00951 0.47464 0.0
C417 C 0.07398 0.04576 0.60356 0.0
C418 C 0.97032 0.99529 0.41662 0.0
Dy419 Dy 0.03497 0.03894 0.54823 0.0
O420 O 0.99595 0.98379 0.42323 0.0
O421 O 0.96259 0.01205 0.44264 0.0
O422 O 0.05225 0.03469 0.45442 0.0
O423 O 0.0527 0.02079 0.50196 0.0
C424 C 0.06967 0.03689 0.48129 0.0
C425 C 0.96919 0.02237 0.54339 0.0
O426 O 0.04307 0.08784 0.52378 0.0
O427 O 1.00447 0.06544 0.48056 0.0
O428 O 0.05077 0.06181 0.60008 0.0
O429 O 0.07699 0.02807 0.57622 0.0
O430 O 0.986 0.03557 0.57048 0.0
O431 O 0.98902 0.02137 0.52174 0.0
O432 O 1.00024 0.95925 0.49615 0.0
O433 O 0.0246 0.98135 0.54834 0.0
C434 C 0.02562 0.09152 0.49747 0.0
C435 C 0.01031 0.95539 0.52618 0.0
Dy436 Dy 0.30974 0.78681 0.77007 0.0
C437 C 0.18476 0.74703 0.70331 0.0
C438 C 0.36648 0.79991 0.80697 0.0
Dy439 Dy 0.24162 0.75656 0.73996 0.0
O440 O 0.36147 0.81539 0.78169 0.0
O441 O 0.34 0.77831 0.81298 0.0
O442 O 0.32695 0.80157 0.72146 0.0
O443 O 0.29009 0.7578 0.72364 0.0
C444 C 0.30661 0.77619 0.70444 0.0
C445 C 0.2468 0.76568 0.80554 0.0
O446 O 0.26022 0.70792 0.73467 0.0
O447 O 0.30369 0.72904 0.77246 0.0
O448 O 0.18807 0.73383 0.73043 0.0
O449 O 0.21288 0.76372 0.69531 0.0
O450 O 0.22468 0.74166 0.78897 0.0
O451 O 0.2618 0.78505 0.78634 0.0
O452 O 0.28994 0.83469 0.77572 0.0
O453 O 0.24927 0.81375 0.73516 0.0
C454 C 0.28463 0.70291 0.75332 0.0
C455 C 0.26726 0.83973 0.75501 0.0
Dy456 Dy 0.52985 0.0259 0.05616 0.0
C457 C 0.5442 0.00148 0.91583 0.0
C458 C 0.51994 0.04123 0.11964 0.0
Dy459 Dy 0.53225 0.02342 0.97739 0.0
O460 O 0.51499 0.00999 0.10487 0.0
O461 O 0.53016 0.06407 0.09974 0.0
O462 O 0.55573 0.98201 0.05444 0.0
O463 O 0.52634 0.98777 0.01446 0.0
C464 C 0.54596 0.97113 0.02416 0.0
C465 C 0.52057 0.08296 0.0056 0.0
O466 O 0.48165 0.9945 0.98292 0.0
O467 O 0.47742 0.01297 0.03802 0.0
O468 O 0.52029 0.01562 0.92341 0.0
O469 O 0.56159 -0.00041 0.94182 0.0
O470 O 0.52159 0.07667 0.9741 0.0
O471 O 0.52815 0.05836 0.01815 0.0
O472 O 0.58074 0.05405 0.05173 0.0
O473 O 0.58431 0.04115 0.9955 0.0
C474 C 0.46441 0.99841 0.00868 0.0
C475 C 0.59738 0.05362 0.0252 0.0
Dy476 Dy 0.28446 0.31622 0.27415 0.0
C477 C 0.26483 0.17012 0.26749 0.0
C478 C 0.28329 0.38372 0.27077 0.0
Dy479 Dy 0.26189 0.2345 0.25478 0.0
O480 O 0.27327 0.36605 0.29476 0.0
O481 O 0.29645 0.36509 0.25022 0.0
O482 O 0.31019 0.30695 0.32044 0.0
O483 O 0.26931 0.27075 0.29915 0.0
C484 C 0.29116 0.27633 0.32188 0.0
C485 C 0.26001 0.26993 0.20219 0.0
O486 O 0.21491 0.24306 0.27151 0.0
O487 O 0.22961 0.30381 0.27679 0.0
O488 O 0.24824 0.17669 0.24258 0.0
O489 O 0.27847 0.1986 0.28546 0.0
O490 O 0.25212 0.23612 0.20006 0.0
O491 O 0.26767 0.28071 0.23173 0.0
O492 O 0.32861 0.30643 0.24964 0.0
O493 O 0.31549 0.24628 0.24837 0.0
C494 C 0.20802 0.27381 0.27791 0.0
C495 C 0.33579 0.27576 0.24362 0.0
Dy496 Dy 0.50441 0.51844 0.98228 0.0
C497 C 0.57315 0.54702 0.11145 0.0
C498 C 0.46964 0.50474 0.92408 0.0
Dy499 Dy 0.53435 0.54207 0.05631 0.0
O500 O 0.49484 0.49268 0.93102 0.0
O501 O 0.46217 0.52223 0.94979 0.0
O502 O 0.55062 0.545 0.96257 0.0
O503 O 0.55198 0.5272 0.00866 0.0
C504 C 0.56848 0.54503 0.98867 0.0
C505 C 0.46844 0.52634 0.05147 0.0
O506 O 0.54346 0.59266 0.0349 0.0
O507 O 0.50431 0.5749 0.99154 0.0
O508 O 0.55068 0.5641 0.10825 0.0
O509 O 0.57555 0.52917 0.08398 0.0
O510 O 0.48522 0.53684 0.07905 0.0
O511 O 0.48839 0.52737 0.02984 0.0
O512 O 0.49876 0.46628 1.00096 0.0
O513 O 0.52412 0.48438 0.05333 0.0
C514 C 0.52591 0.5994 0.01002 0.0
C515 C 0.50918 0.46 0.03009 0.0
Dy516 Dy 0.81274 0.29064 0.27165 0.0
C517 C 0.68638 0.25384 0.2039 0.0
C518 C 0.86754 0.29995 0.3113 0.0
Dy519 Dy 0.7435 0.2616 0.23974 0.0
O520 O 0.86648 0.31011 0.28242 0.0
O521 O 0.83845 0.28591 0.31903 0.0
O522 O 0.83042 0.308 0.22404 0.0
O523 O 0.79241 0.2649 0.22433 0.0
C524 C 0.80897 0.28443 0.20598 0.0
C525 C 0.74894 0.26699 0.30503 0.0
O526 O 0.76279 0.21348 0.23144 0.0
O527 O 0.80592 0.23237 0.2702 0.0
O528 O 0.69003 0.23866 0.22976 0.0
O529 O 0.71435 0.27162 0.19654 0.0
O530 O 0.72613 0.24434 0.28788 0.0
O531 O 0.76417 0.28735 0.28675 0.0
O532 O 0.79445 0.33937 0.27744 0.0
O533 O 0.75188 0.31936 0.23819 0.0
C534 C 0.78707 0.20742 0.24963 0.0
C535 C 0.77099 0.34478 0.25787 0.0
Dy536 Dy 0.03547 0.53912 0.54972 0.0
C537 C 0.04942 0.51279 0.41165 0.0
C538 C 0.02057 0.55967 0.6107 0.0
Dy539 Dy 0.03727 0.53026 0.47451 0.0
O540 O 0.04434 0.54503 0.60427 0.0
O541 O 1.00485 0.56242 0.58401 0.0
O542 O 0.0586 0.49463 0.55523 0.0
O543 O 0.03093 0.49555 0.51247 0.0
C544 C 0.05086 0.48102 0.52532 0.0
C545 C 0.02175 0.58799 0.50126 0.0
O546 O 0.98684 0.50048 0.47867 0.0
O547 O 0.98285 0.52113 0.53273 0.0
O548 O 0.03924 0.54 0.42194 0.0
O549 O 0.05291 0.49507 0.43565 0.0
O550 O 0.01001 0.57284 0.47264 0.0
O551 O 0.04245 0.5733 0.51205 0.0
O552 O 0.08463 0.57132 0.54357 0.0
O553 O 0.08996 0.54579 0.4916 0.0
C554 C 0.9696 0.50482 0.5042 0.0
C555 C 0.10255 0.5645 0.5193 0.0
Dy556 Dy 0.73917 0.77841 0.26303 0.0
C557 C 0.87652 0.79939 0.25379 0.0
C558 C 0.67522 0.76101 0.27626 0.0
Dy559 Dy 0.8124 0.78662 0.26711 0.0
O560 O 0.68774 0.78434 0.25758 0.0
O561 O 0.6975 0.7466 0.28687 0.0
O562 O 0.74416 0.82374 0.2339 0.0
O563 O 0.7809 0.82249 0.26912 0.0
C564 C 0.7731 0.83854 0.24641 0.0
C565 C 0.77776 0.72647 0.28354 0.0
O566 O 0.80852 0.81213 0.31723 0.0
O567 O 0.75246 0.79319 0.31694 0.0
O568 O 0.86208 0.77598 0.27142 0.0
O569 O 0.85616 0.8168 0.24438 0.0
O570 O 0.80606 0.74185 0.29708 0.0
O571 O 0.77073 0.74234 0.2604 0.0
O572 O 0.74368 0.7511 0.21396 0.0
O573 O 0.799 0.77385 0.21297 0.0
C574 C 0.78105 0.80738 0.33251 0.0
C575 C 0.77066 0.75749 0.19803 0.0
Dy576 Dy 0.777 0.26609 0.71678 0.0
C577 C 0.78431 0.24859 0.85259 0.0
C578 C 0.76469 0.28745 0.65845 0.0
Dy579 Dy 0.77222 0.26512 0.79209 0.0
O580 O 0.78047 0.2635 0.66221 0.0
O581 O 0.75634 0.2995 0.68625 0.0
O582 O 0.82071 0.24196 0.71799 0.0
O583 O 0.81022 0.27233 0.75845 0.0
C584 C 0.82776 0.2525 0.74887 0.0
C585 C 0.72213 0.28056 0.7607 0.0
O586 O 0.80343 0.31831 0.79136 0.0
O587 O 0.79392 0.32214 0.73614 0.0
O588 O 0.76708 0.27052 0.84617 0.0
O589 O 0.79432 0.23545 0.82603 0.0
O590 O 0.73005 0.29094 0.79145 0.0
O591 O 0.73856 0.25962 0.75044 0.0
O592 O 0.74687 0.21273 0.71692 0.0
O593 O 0.7541 0.20892 0.77264 0.0
C594 C 0.80504 0.33639 0.76594 0.0
C595 C 0.74415 0.19473 0.74242 0.0
Dy596 Dy 0.78469 0.81359 0.77421 0.0
C597 C 0.76801 0.66912 0.7605 0.0
C598 C 0.78115 0.88089 0.77253 0.0
Dy599 Dy 0.76512 0.73549 0.755 0.0
O600 O 0.77215 0.86234 0.79615 0.0
O601 O 0.79479 0.86339 0.75148 0.0
O602 O 0.81101 0.80601 0.82071 0.0
O603 O 0.77015 0.76903 0.80074 0.0
C604 C 0.79245 0.77543 0.82306 0.0
C605 C 0.75518 0.77341 0.70672 0.0
O606 O 0.71956 0.74101 0.77698 0.0
O607 O 0.72953 0.79999 0.77328 0.0
O608 O 0.75789 0.67983 0.73409 0.0
O609 O 0.77532 0.69445 0.78362 0.0
O610 O 0.73854 0.74177 0.70817 0.0
O611 O 0.77808 0.78048 0.72847 0.0
O612 O 0.83188 0.80743 0.75411 0.0
O613 O 0.819 0.74734 0.7502 0.0
C614 C 0.71019 0.77048 0.77986 0.0
C615 C 0.83978 0.77721 0.74788 0.0
Dy616 Dy 0.49434 0.5082 0.50668 0.0
C617 C 0.63112 0.54068 0.52749 0.0
C618 C 0.42973 0.50671 0.49965 0.0
Dy619 Dy 0.56662 0.53787 0.53013 0.0
O620 O 0.45061 0.51471 0.47784 0.0
O621 O 0.44386 0.49668 0.52406 0.0
O622 O 0.51015 0.48116 0.4613 0.0
O623 O 0.53859 0.5281 0.48396 0.0
C624 C 0.5376 0.5041 0.46153 0.0
C625 C 0.52422 0.54525 0.57515 0.0
O626 O 0.55764 0.58517 0.51128 0.0
O627 O 0.50153 0.56647 0.51049 0.0
O628 O 0.6167 0.54599 0.55424 0.0
O629 O 0.6105 0.53576 0.50258 0.0
O630 O 0.5528 0.56634 0.57545 0.0
O631 O 0.52192 0.52007 0.55341 0.0
O632 O 0.50278 0.46057 0.52668 0.0
O633 O 0.55898 0.48041 0.53227 0.0
C634 C 0.5282 0.59075 0.50751 0.0
C635 C 0.5322 0.45571 0.53312 0.0
Dy636 Dy 0.05792 0.52494 0.01596 0.0
C637 C 0.92311 0.53564 0.01199 0.0
C638 C 0.11729 0.50967 0.02574 0.0
Dy639 Dy 0.98166 0.51866 0.01981 0.0
O640 O 0.1017 0.50713 0.99757 0.0
O641 O 0.10105 0.52194 0.0482 0.0
O642 O 0.05919 0.55646 0.97363 0.0
O643 O 0.01657 0.52019 0.98238 0.0
C644 C 0.02829 0.54441 0.96577 0.0
C645 C 0.01248 0.50031 0.0701 0.0
O646 O 0.98046 0.46832 0.99081 0.0
O647 O 0.03415 0.46782 0.00501 0.0
O648 O 0.92915 0.51359 0.03125 0.0
O649 O 0.94872 0.5475 0.9966 0.0
O650 O 0.98178 0.48692 0.06263 0.0
O651 O 0.02291 0.52398 0.05275 0.0
O652 O 0.05998 0.57858 0.03973 0.0
O653 O 1.00394 0.57453 0.03697 0.0
C654 C 1.00457 0.45223 0.99215 0.0
C655 C 0.03437 0.59224 0.044 0.0
C656 C 0.02751 0.15906 0.93529 0.0
C657 C 0.99821 0.16958 0.93703 0.0
H658 H 0.05698 0.12725 0.95289 0.0
C659 C 0.97625 0.15663 0.96 0.0
H660 H 0.04505 0.16903 0.91809 0.0
C661 C 0.98281 0.13206 0.97969 0.0
C662 C 0.01191 0.12101 0.97741 0.0
H663 H 0.95354 0.16451 0.96187 0.0
H664 H 0.96488 0.1212 0.99617 0.0
C665 C 0.03448 0.13543 0.95555 0.0
C666 C 0.16977 0.8146 0.19079 0.0
C667 C 0.13951 0.81236 0.20425 0.0
H668 H 0.21859 0.80969 0.19813 0.0
C669 C 0.13671 0.80703 0.23736 0.0
H670 H 0.17283 0.81871 0.16543 0.0
C671 C 0.16312 0.80203 0.25602 0.0
C672 C 0.19243 0.80148 0.24163 0.0
H673 H 0.11374 0.8053 0.24847 0.0
H674 H 0.16006 0.79663 0.28107 0.0
C675 C 0.19586 0.8089 0.20928 0.0
C676 C 0.51928 0.85949 0.46505 0.0
C677 C 0.49986 0.84973 0.43587 0.0
H678 H 0.53514 0.8977 0.50595 0.0
C679 C 0.47898 0.87053 0.42706 0.0
H680 H 0.53552 0.84399 0.47261 0.0
C681 C 0.47837 0.9011 0.44652 0.0
C682 C 0.49901 0.91163 0.47481 0.0
H683 H 0.46349 0.86351 0.40485 0.0
H684 H 0.46288 0.91723 0.43861 0.0
C685 C 0.51904 0.89025 0.48417 0.0
C686 C 0.44963 0.31288 0.70574 0.0
C687 C 0.46735 0.28974 0.71615 0.0
H688 H 0.40691 0.33267 0.71072 0.0
C689 C 0.45645 0.27073 0.74217 0.0
H690 H 0.45748 0.32802 0.68587 0.0
C691 C 0.42769 0.27353 0.75642 0.0
C692 C 0.40922 0.29538 0.74499 0.0
H693 H 0.46964 0.25288 0.75099 0.0
H694 H 0.41935 0.2576 0.77562 0.0
C695 C 0.42077 0.31566 0.72003 0.0
C696 C 0.01504 0.86226 0.52756 0.0
C697 C 0.0079 0.85692 0.55996 0.0
H698 H 0.02039 0.89759 0.49098 0.0
C699 C 0.99852 0.88301 0.57992 0.0
H700 H 0.02209 0.84241 0.51157 0.0
C701 C 0.99814 0.91462 0.56832 0.0
C702 C 0.00627 0.92038 0.5363 0.0
H703 H 0.99286 0.87957 0.60494 0.0
H704 H 0.99216 0.93493 0.58465 0.0
C705 C 0.01382 0.89363 0.51568 0.0
C706 C 0.43446 0.77691 0.85515 0.0
C707 C 0.4617 0.79949 0.84462 0.0
H708 H 0.3826 0.75981 0.85186 0.0
C709 C 0.45708 0.82333 0.82304 0.0
H710 H 0.43724 0.75851 0.87202 0.0
C711 C 0.42597 0.82425 0.81181 0.0
C712 C 0.39881 0.80143 0.82196 0.0
H713 H 0.47753 0.84129 0.81464 0.0
H714 H 0.42324 0.84246 0.79471 0.0
C715 C 0.40322 0.77791 0.84392 0.0
C716 C 0.48748 0.13806 0.06988 0.0
C717 C 0.49212 0.16971 0.0563 0.0
H718 H 0.49219 0.08547 0.064 0.0
C719 C 0.50318 0.17122 0.0246 0.0
H720 H 0.47885 0.13583 0.09413 0.0
C721 C 0.51148 0.14259 0.00785 0.0
C722 C 0.50913 0.11193 0.02247 0.0
H723 H 0.50691 0.19506 0.01327 0.0
H724 H 0.52102 0.14493 0.98397 0.0
C725 C 0.49587 0.10943 0.05304 0.0
C726 C 0.14476 0.30148 0.33008 0.0
C727 C 0.11953 0.27142 0.32622 0.0
H728 H 0.19223 0.32622 0.31709 0.0
C729 C 0.12234 0.24363 0.30364 0.0
H730 H 0.14324 0.32342 0.34711 0.0
C731 C 0.15046 0.24509 0.28666 0.0
C732 C 0.17624 0.27461 0.29141 0.0
H733 H 0.1033 0.22012 0.29997 0.0
H734 H 0.15237 0.22266 0.27049 0.0
C735 C 0.17272 0.30317 0.31264 0.0
C736 C 0.9785 0.07784 0.14182 0.0
C737 C 0.95098 0.05046 0.14186 0.0
H738 H 0.02081 0.09962 0.1169 0.0
C739 C 0.94551 0.02319 0.11669 0.0
H740 H 0.98345 0.0989 0.16133 0.0
C741 C 0.96747 0.02283 0.09229 0.0
C742 C 0.99464 0.05046 0.09156 0.0
H743 H 0.92496 0.00132 0.11669 0.0
H744 H 0.96362 0.00034 0.07453 0.0
C745 C 0.99988 0.07814 0.11654 0.0
C746 C 0.31227 0.70957 0.41311 0.0
C747 C 0.29944 0.72378 0.44064 0.0
H748 H 0.31714 0.70902 0.36163 0.0
C749 C 0.28343 0.7506 0.43761 0.0
H750 H 0.32477 0.68894 0.41478 0.0
C751 C 0.27887 0.76183 0.40732 0.0
C752 C 0.2904 0.74655 0.37963 0.0
H753 H 0.27341 0.76221 0.45845 0.0
H754 H 0.26563 0.78183 0.40547 0.0
C755 C 0.30781 0.72096 0.38276 0.0
C756 C 0.53499 0.96528 0.65118 0.0
C757 C 0.56605 0.96058 0.64422 0.0
H758 H 0.49125 0.97683 0.63259 0.0
C759 C 0.57443 0.95803 0.61163 0.0
H760 H 0.5277 0.967 0.67605 0.0
C761 C 0.55363 0.96394 0.58704 0.0
C762 C 0.52418 0.97216 0.59457 0.0
H763 H 0.598 0.95415 0.60536 0.0
H764 H 0.56122 0.96346 0.56236 0.0
C765 C 0.5141 0.97089 0.62642 0.0
C766 C 0.25352 0.32991 0.91589 0.0
C767 C 0.28179 0.33276 0.93581 0.0
H768 H 0.2305 0.31752 0.86762 0.0
C769 C 0.30922 0.32525 0.92122 0.0
H770 H 0.23202 0.33561 0.92631 0.0
C771 C 0.30863 0.31578 0.88755 0.0
C772 C 0.28037 0.31277 0.86763 0.0
H773 H 0.3315 0.32744 0.93575 0.0
H774 H 0.3303 0.3105 0.87717 0.0
C775 C 0.25268 0.31957 0.88226 0.0
C776 C 0.93032 0.02853 0.34719 0.0
C777 C 0.94475 0.01551 0.32012 0.0
H778 H 0.92639 0.03143 0.39895 0.0
C779 C 0.96581 0.99363 0.32496 0.0
H780 H 0.91362 0.04501 0.34424 0.0
C781 C 0.9728 0.98552 0.3562 0.0
C782 C 0.95879 0.99899 0.38328 0.0
H783 H 0.97706 0.98279 0.3046 0.0
H784 H 0.98981 0.96939 0.35923 0.0
C785 C 0.93724 0.0203 0.37845 0.0
C786 C 0.32823 0.70743 0.64665 0.0
C787 C 0.32814 0.72174 0.61699 0.0
H788 H 0.32176 0.714 0.69762 0.0
C789 C 0.3254 0.75636 0.61713 0.0
H790 H 0.3306 0.68107 0.64754 0.0
C791 C 0.31976 0.77505 0.64594 0.0
C792 C 0.31678 0.7593 0.67479 0.0
H793 H 0.3255 0.76829 0.59466 0.0
H794 H 0.316 0.80093 0.64532 0.0
C795 C 0.32259 0.72608 0.67525 0.0
C796 C 0.54841 -0.00047 0.82498 0.0
C797 C 0.57545 0.98538 0.81968 0.0
H798 H 0.51697 0.01524 0.85974 0.0
C799 C 0.5897 0.97272 0.84564 0.0
H800 H 0.53673 0.00917 0.80529 0.0
C801 C 0.57851 0.97652 0.87692 0.0
C802 C 0.55275 0.99264 0.88245 0.0
H803 H 0.61054 0.96165 0.84219 0.0
H804 H 0.5908 0.96807 0.89694 0.0
C805 C 0.53704 0.00297 0.85609 0.0
C806 C 0.26088 0.34592 0.15265 0.0
C807 C 0.26581 0.33209 0.12094 0.0
H808 H 0.2548 0.33718 0.20285 0.0
C809 C 0.26808 0.2973 0.11633 0.0
H810 H 0.2589 0.37251 0.15732 0.0
C811 C 0.26569 0.2771 0.14261 0.0
C812 C 0.26156 0.29126 0.17432 0.0
H813 H 0.2718 0.28563 0.09239 0.0
H814 H 0.26767 0.25048 0.1382 0.0
C815 C 0.25891 0.32582 0.17896 0.0
C816 C 0.19876 0.02148 0.04126 0.0
C817 C 0.20448 0.00182 0.01281 0.0
H818 H 0.16833 0.05192 0.06388 0.0
C819 C 0.18684 0.00261 0.98363 0.0
H820 H 0.21222 0.02161 0.06408 0.0
C821 C 0.16223 0.02051 0.98344 0.0
C822 C 0.15454 0.03749 0.01251 0.0
H823 H 0.19107 0.98816 0.96124 0.0
H824 H 0.14777 0.01899 0.96094 0.0
C825 C 0.17382 0.03906 0.04115 0.0
C826 C 0.64679 0.60717 0.97435 0.0
C827 C 0.66939 0.59742 0.99488 0.0
H828 H 0.59735 0.59824 0.95667 0.0
C829 C 0.65829 0.57063 0.01456 0.0
H830 H 0.65439 0.62781 0.95911 0.0
C831 C 0.62526 0.55401 0.01363 0.0
C832 C 0.60297 0.56353 0.99259 0.0
H833 H 0.67504 0.56282 0.03102 0.0
H834 H 0.61732 0.53336 0.02877 0.0
C835 C 0.61407 0.59026 0.97305 0.0
C836 C 0.7407 0.42137 0.23454 0.0
C837 C 0.73442 0.43672 0.26502 0.0
H838 H 0.75706 0.37995 0.2085 0.0
C839 C 0.74316 0.42336 0.29341 0.0
H840 H 0.73417 0.431 0.21222 0.0
C841 C 0.75736 0.39478 0.29125 0.0
C842 C 0.76222 0.3786 0.26064 0.0
H843 H 0.73871 0.43476 0.31722 0.0
H844 H 0.76295 0.38424 0.31339 0.0
C845 C 0.75393 0.39227 0.23237 0.0
C846 C 0.88737 0.44965 0.47372 0.0
C847 C 0.86769 0.45908 0.49801 0.0
H848 H 0.93512 0.45684 0.45655 0.0
C849 C 0.88151 0.48494 0.52337 0.0
H850 H 0.87738 0.42988 0.4538 0.0
C851 C 0.9146 0.50011 0.52511 0.0
C852 C 0.93443 0.48997 0.50134 0.0
H853 H 0.86698 0.49277 0.54246 0.0
H854 H 0.92466 0.51954 0.54529 0.0
C855 C 0.92044 0.46509 0.47529 0.0
C856 C 0.30214 0.09831 0.23745 0.0
C857 C 0.32342 0.0985 0.26442 0.0
H858 H 0.26519 0.12033 0.21768 0.0
C859 C 0.31919 0.11617 0.29442 0.0
H860 H 0.30433 0.08418 0.21418 0.0
C861 C 0.29646 0.13643 0.29647 0.0
C862 C 0.27775 0.13924 0.26856 0.0
H863 H 0.33475 0.11615 0.31579 0.0
H864 H 0.29555 0.15222 0.31917 0.0
C865 C 0.2793 0.11848 0.23955 0.0
C866 C 0.36351 0.08518 0.49 0.0
C867 C 0.33919 0.07739 0.51217 0.0
H868 H 0.40806 0.07576 0.47259 0.0
C869 C 0.34054 0.05152 0.53272 0.0
H870 H 0.36321 0.10486 0.47378 0.0
C871 C 0.36611 0.03466 0.53185 0.0
C872 C 0.39101 0.04341 0.51055 0.0
H873 H 0.32214 0.04472 0.54999 0.0
H874 H 0.36691 0.01556 0.54858 0.0
C875 C 0.38919 0.06845 0.48928 0.0
C876 C 0.73834 0.63195 0.26281 0.0
C877 C 0.73258 0.62092 0.29381 0.0
H878 H 0.75613 0.67448 0.23535 0.0
C879 C 0.74196 0.64492 0.32163 0.0
H880 H 0.73076 0.61408 0.24094 0.0
C881 C 0.75734 0.67935 0.31837 0.0
C882 C 0.76209 0.69039 0.28727 0.0
H883 H 0.73735 0.63705 0.34572 0.0
H884 H 0.76473 0.69754 0.34004 0.0
C885 C 0.75245 0.6665 0.25955 0.0
C886 C 0.86863 0.41765 0.79442 0.0
C887 C 0.86383 0.43905 0.77055 0.0
H888 H 0.85305 0.36819 0.81214 0.0
C889 C 0.83847 0.42704 0.74646 0.0
H890 H 0.88779 0.42645 0.81348 0.0
C891 C 0.81872 0.39401 0.74576 0.0
C892 C 0.82372 0.37241 0.76929 0.0
H893 H 0.83405 0.443 0.72782 0.0
H894 H 0.79971 0.38524 0.72653 0.0
C895 C 0.84853 0.38456 0.79392 0.0
C896 C 0.01913 0.88274 0.074 0.0
C897 C 0.04974 0.87511 0.07083 0.0
H898 H 0.9875 0.91517 0.06141 0.0
C899 C 0.07122 0.89339 0.05007 0.0
H900 H 1.00191 0.86893 0.08962 0.0
C901 C 0.06302 0.91973 0.03409 0.0
C902 C 0.03294 0.92826 0.03808 0.0
H903 H 0.09489 0.88809 0.04684 0.0
H904 H 0.08068 0.93408 0.01918 0.0
C905 C 0.01071 0.90895 0.05759 0.0
C906 C 0.90047 0.22078 0.7791 0.0
C907 C 0.90617 0.23817 0.81091 0.0
H908 H 0.87074 0.21133 0.73419 0.0
C909 C 0.88581 0.25969 0.8216 0.0
H910 H 0.91583 0.20412 0.77009 0.0
C911 C 0.86082 0.26421 0.8011 0.0
C912 C 0.85482 0.24681 0.76948 0.0
H913 H 0.8895 0.27381 0.84574 0.0
H914 H 0.84625 0.28167 0.81018 0.0
C915 C 0.87481 0.22495 0.75854 0.0
C916 C 0.51413 0.16131 0.60195 0.0
C917 C 0.5413 0.18726 0.59666 0.0
H918 H 0.48924 0.1081 0.59162 0.0
C919 C 0.56516 0.17866 0.57677 0.0
H920 H 0.49544 0.16716 0.61724 0.0
C921 C 0.56204 0.14459 0.56274 0.0
C922 C 0.53462 0.11878 0.56772 0.0
H923 H 0.58655 0.19812 0.57258 0.0
H924 H 0.58074 0.13859 0.54755 0.0
C925 C 0.51063 0.12752 0.5873 0.0
C926 C 0.60582 0.73616 0.33026 0.0
C927 C 0.5845 0.75594 0.32024 0.0
H928 H 0.65089 0.72171 0.32366 0.0
C929 C 0.59182 0.77468 0.29326 0.0
H930 H 0.60076 0.72112 0.35072 0.0
C931 C 0.62075 0.77513 0.27784 0.0
C932 C 0.64262 0.75652 0.28888 0.0
H933 H 0.57587 0.79011 0.28488 0.0
H934 H 0.6265 0.79096 0.25801 0.0
C935 C 0.63448 0.73632 0.31464 0.0
C936 C 0.04282 0.18785 0.48897 0.0
C937 C 0.0389 0.18745 0.45485 0.0
H938 H 0.04224 0.15766 0.52952 0.0
C939 C 0.03225 0.15556 0.43535 0.0
H940 H 0.04814 0.2121 0.50463 0.0
C941 C 0.02829 0.12475 0.44957 0.0
C942 C 0.03141 0.12498 0.48363 0.0
H943 H 0.0291 0.15425 0.40906 0.0
H944 H 0.02267 0.10058 0.43374 0.0
C945 C 0.0395 0.15681 0.50325 0.0
C946 C 0.62343 0.28129 0.15177 0.0
C947 C 0.59444 0.26603 0.16552 0.0
H948 H 0.67518 0.28897 0.15282 0.0
C949 C 0.5961 0.24605 0.19152 0.0
H950 H 0.62309 0.2966 0.13157 0.0
C951 C 0.6259 0.24126 0.20329 0.0
C952 C 0.65475 0.25644 0.18947 0.0
H953 H 0.57432 0.2336 0.20253 0.0
H954 H 0.62635 0.22592 0.22347 0.0
C955 C 0.65326 0.27661 0.16368 0.0
C956 C 0.54489 0.9038 0.95367 0.0
C957 C 0.56506 0.88373 0.96561 0.0
H958 H 0.52229 0.94582 0.9632 0.0
C959 C 0.57989 0.8932 0.99725 0.0
H960 H 0.5327 0.89724 0.92961 0.0
C961 C 0.57439 0.92216 0.01647 0.0
C962 C 0.55364 0.94153 0.00441 0.0
H963 H 0.59541 0.87816 0.00717 0.0
H964 H 0.58588 0.92903 0.04082 0.0
C965 C 0.53894 0.9319 0.97294 0.0
C966 C 0.90905 0.74001 0.71775 0.0
C967 C 0.9234 0.76383 0.69657 0.0
H968 H 0.8719 0.72591 0.75089 0.0
C969 C 0.91222 0.79433 0.69527 0.0
H970 H 0.91712 0.71638 0.71963 0.0
C971 C 0.8864 0.80009 0.71377 0.0
C972 C 0.87105 0.77528 0.73362 0.0
H973 H 0.9229 0.81334 0.67939 0.0
H974 H 0.87741 0.82305 0.7112 0.0
C975 C 0.88315 0.74556 0.73585 0.0
C976 C 0.08357 0.04571 0.89104 0.0
C977 C 0.08847 0.01709 0.87099 0.0
H978 H 0.06091 0.06396 0.9323 0.0
C979 C 0.07305 0.98359 0.87788 0.0
H980 H 0.09519 0.07183 0.88654 0.0
C981 C 0.05251 0.97904 0.90398 0.0
C982 C 0.04792 0.00788 0.92405 0.0
H983 H 0.07633 0.96104 0.86275 0.0
H984 H 0.04055 0.9531 0.90866 0.0
C985 C 0.06394 0.04117 0.91739 0.0
C986 C 0.77168 0.3099 0.57219 0.0
C987 C 0.75709 0.33832 0.57359 0.0
H988 H 0.78568 0.27127 0.5984 0.0
C989 C 0.74181 0.34685 0.60174 0.0
H990 H 0.78355 0.30262 0.5507 0.0
C991 C 0.74289 0.3288 0.62874 0.0
C992 C 0.75948 0.30209 0.62813 0.0
H993 H 0.73004 0.36831 0.60339 0.0
H994 H 0.73189 0.33677 0.65058 0.0
C995 C 0.77297 0.29197 0.5994 0.0
C996 C 0.4599 0.02773 0.40359 0.0
C997 C 0.47387 0.05229 0.38322 0.0
H998 H 0.46515 0.00462 0.44702 0.0
C999 C 0.50384 0.07516 0.39278 0.0
H1000 H 0.43698 0.00958 0.39632 0.0
C1001 C 0.52037 0.07224 0.42205 0.0
C1002 C 0.50688 0.04647 0.44174 0.0
H1003 H 0.51515 0.09388 0.37689 0.0
H1004 H 0.54406 0.08911 0.42861 0.0
C1005 C 0.47615 0.02491 0.43257 0.0
C1006 C 0.74764 0.69936 0.11852 0.0
C1007 C 0.77106 0.7149 0.09796 0.0
H1008 H 0.72867 0.70102 0.16591 0.0
C1009 C 0.79352 0.74558 0.10992 0.0
H1010 H 0.7301 0.6756 0.10979 0.0
C1011 C 0.79322 0.75974 0.14243 0.0
C1012 C 0.76992 0.74391 0.16314 0.0
H1013 H 0.81191 0.75786 0.09456 0.0
H1014 H 0.81133 0.78294 0.15142 0.0
C1015 C 0.74677 0.71395 0.15059 0.0
C1016 C 0.09139 0.0467 0.69441 0.0
C1017 C 0.11333 0.02505 0.69498 0.0
H1018 H 0.06221 0.0709 0.66497 0.0
C1019 C 0.1229 0.01151 0.66515 0.0
H1020 H 0.08377 0.05792 0.71689 0.0
C1021 C 0.11095 0.0194 0.63559 0.0
C1022 C 0.0891 0.04099 0.63504 0.0
H1023 H 0.13995 0.99503 0.66456 0.0
H1024 H 0.11857 0.0082 0.61308 0.0
C1025 C 0.07939 0.05457 0.66471 0.0
C1026 C 0.7321 0.31997 0.37911 0.0
C1027 C 0.75665 0.31627 0.40124 0.0
H1028 H 0.70999 0.30607 0.33064 0.0
C1029 C 0.77495 0.29176 0.39282 0.0
H1030 H 0.7176 0.33857 0.38496 0.0
C1031 C 0.77036 0.27311 0.36199 0.0
C1032 C 0.74719 0.27837 0.33938 0.0
H1033 H 0.79392 0.28814 0.40943 0.0
H1034 H 0.78611 0.25603 0.35521 0.0
C1035 C 0.72748 0.30117 0.34826 0.0
C1036 C 0.4933 0.02976 0.20416 0.0
C1037 C 0.47999 0.05868 0.21079 0.0
H1038 H 0.51613 0.00131 0.16929 0.0
C1039 C 0.48434 0.08431 0.18931 0.0
H1040 H 0.49019 0.00954 0.22027 0.0
C1041 C 0.49986 0.07989 0.16051 0.0
C1042 C 0.51034 0.04939 0.15258 0.0
H1043 H 0.47434 0.10686 0.19399 0.0
H1044 H 0.50152 0.0991 0.14344 0.0
C1045 C 0.50796 0.0249 0.17498 0.0
C1046 C 0.80729 0.73522 0.90098 0.0
C1047 C 0.7765 0.7298 0.91402 0.0
H1048 H 0.83687 0.75483 0.86238 0.0
C1049 C 0.75154 0.73988 0.89694 0.0
H1050 H 0.82706 0.72779 0.91351 0.0
C1051 C 0.75695 0.75438 0.86747 0.0
C1052 C 0.7877 0.76017 0.85458 0.0
H1053 H 0.7275 0.73599 0.90606 0.0
H1054 H 0.73703 0.7615 0.8549 0.0
C1055 C 0.81296 0.75078 0.8718 0.0
C1056 C 0.86218 0.06348 0.99672 0.0
C1057 C 0.85058 0.06139 0.0281 0.0
H1058 H 0.89281 0.04623 0.96182 0.0
C1059 C 0.85778 0.03614 0.04673 0.0
H1060 H 0.85672 0.08235 0.98159 0.0
C1061 C 0.8781 0.0152 0.03523 0.0
C1062 C 0.89165 0.01911 0.00491 0.0
H1063 H 0.84886 0.03352 0.07083 0.0
H1064 H 0.88488 0.99756 0.05105 0.0
C1065 C 0.88253 0.04247 0.9852 0.0
C1066 C 0.38164 0.49262 0.07235 0.0
C1067 C 0.36983 0.46713 0.04606 0.0
H1068 H 0.42242 0.5312 0.09472 0.0
C1069 C 0.38992 0.46353 0.02017 0.0
H1070 H 0.3668 0.49598 0.09267 0.0
C1071 C 0.42142 0.48429 0.02097 0.0
C1072 C 0.43373 0.50848 0.04804 0.0
H1073 H 0.38143 0.44428 0.99945 0.0
H1074 H 0.43659 0.4803 1.00109 0.0
C1075 C 0.41344 0.51278 0.07351 0.0
C1076 C 0.29775 0.61889 0.71051 0.0
C1077 C 0.32457 0.61395 0.72889 0.0
H1078 H 0.26359 0.65011 0.70417 0.0
C1079 C 0.33598 0.63664 0.75726 0.0
H1080 H 0.28812 0.60178 0.68865 0.0
C1081 C 0.32184 0.66444 0.76624 0.0
C1082 C 0.29572 0.67011 0.74722 0.0
H1083 H 0.35644 0.63351 0.77213 0.0
H1084 H 0.33208 0.68211 0.78757 0.0
C1085 C 0.28342 0.64648 0.71964 0.0
C1086 C 0.18231 0.62816 0.54001 0.0
C1087 C 0.20407 0.60884 0.52828 0.0
H1088 H 0.13267 0.62863 0.54695 0.0
C1089 C 0.19237 0.57471 0.51392 0.0
H1090 H 0.191 0.65455 0.55124 0.0
C1091 C 0.15909 0.56033 0.51057 0.0
C1092 C 0.13739 0.57959 0.52255 0.0
H1093 H 0.20888 0.55953 0.50459 0.0
H1094 H 0.15033 0.53408 0.49901 0.0
C1095 C 0.14915 0.6134 0.53765 0.0
C1096 C 0.74581 0.93414 0.71801 0.0
C1097 C 0.719 0.93931 0.73516 0.0
H1098 H 0.78761 0.91274 0.7172 0.0
C1099 C 0.71644 0.93057 0.76728 0.0
H1100 H 0.74883 0.94118 0.69343 0.0
C1101 C 0.73896 0.9146 0.78105 0.0
C1102 C 0.76438 0.90714 0.76291 0.0
H1103 H 0.69636 0.93478 0.78133 0.0
H1104 H 0.73519 0.90604 0.80501 0.0
C1105 C 0.76834 0.91833 0.73181 0.0
C1106 C 0.68758 0.984 0.57174 0.0
C1107 C 0.69823 0.96272 0.5473 0.0
H1108 H 0.65302 0.01394 0.58499 0.0
C1109 C 0.68204 0.95672 0.5162 0.0
H1110 H 0.69942 0.98917 0.59599 0.0
C1111 C 0.65566 0.9713 0.50983 0.0
C1112 C 0.64471 0.99202 0.53445 0.0
H1113 H 0.68962 0.94058 0.49678 0.0
H1114 H 0.64343 0.96576 0.48576 0.0
C1115 C 0.66104 0.99833 0.56543 0.0
C1116 C 0.34571 0.41262 0.74455 0.0
C1117 C 0.3336 0.43249 0.72292 0.0
H1118 H 0.33667 0.36663 0.76865 0.0
C1119 C 0.30267 0.41929 0.70734 0.0
H1120 H 0.36933 0.42212 0.75724 0.0
C1121 C 0.28417 0.38696 0.71352 0.0
C1122 C 0.29608 0.36769 0.73581 0.0
H1123 H 0.29271 0.434 0.69061 0.0
H1124 H 0.26031 0.3774 0.70136 0.0
C1125 C 0.32702 0.38077 0.75116 0.0
C1126 C 0.19772 0.61366 0.25331 0.0
C1127 C 0.19532 0.59508 0.22231 0.0
H1128 H 0.21455 0.66218 0.28225 0.0
C1129 C 0.2089 0.61201 0.19607 0.0
H1130 H 0.1876 0.60125 0.27403 0.0
C1131 C 0.22415 0.64719 0.20071 0.0
C1132 C 0.22642 0.66574 0.23177 0.0
H1133 H 0.20729 0.59825 0.17188 0.0
H1134 H 0.2342 0.65979 0.18007 0.0
C1135 C 0.21329 0.64857 0.25804 0.0
C1136 C 0.54991 0.67896 0.47741 0.0
C1137 C 0.52107 0.67963 0.45989 0.0
H1138 H 0.57474 0.65045 0.50652 0.0
C1139 C 0.49353 0.65271 0.46148 0.0
H1140 H 0.57153 0.69944 0.47686 0.0
C1141 C 0.49526 0.62483 0.47896 0.0
C1142 C 0.5247 0.62314 0.49478 0.0
H1143 H 0.47091 0.65267 0.44847 0.0
H1144 H 0.47393 0.60379 0.47859 0.0
C1145 C 0.55176 0.65091 0.4945 0.0
C1146 C 0.64785 0.31302 0.73767 0.0
C1147 C 0.64237 0.3002 0.70453 0.0
H1148 H 0.67833 0.31783 0.7814 0.0
C1149 C 0.6635 0.28166 0.69004 0.0
H1150 H 0.63139 0.32676 0.74946 0.0
C1151 C 0.68901 0.27495 0.70855 0.0
C1152 C 0.69503 0.28817 0.74153 0.0
H1153 H 0.65914 0.27056 0.66479 0.0
H1154 H 0.70361 0.25872 0.6971 0.0
C1155 C 0.67445 0.30766 0.7559 0.0
C1156 C 0.01949 0.36913 0.94992 0.0
C1157 C 0.98801 0.34791 0.94593 0.0
H1158 H 0.04949 0.41864 0.96826 0.0
C1159 C 0.96212 0.36092 0.95804 0.0
H1160 H 0.03989 0.35974 0.9409 0.0
C1161 C 0.9675 0.39478 0.9732 0.0
C1162 C 0.99896 0.41604 0.97718 0.0
H1163 H 0.93755 0.34518 0.95522 0.0
H1164 H 0.94701 0.40426 0.98186 0.0
C1165 C 0.02497 0.40277 0.96572 0.0
C1166 C 0.95502 0.77483 0.23488 0.0
C1167 C 0.96551 0.79479 0.20937 0.0
H1168 H 0.91896 0.76115 0.26923 0.0
C1169 C 0.94799 0.81883 0.20068 0.0
H1170 H 0.96808 0.75628 0.24242 0.0
C1171 C 0.91977 0.82171 0.21628 0.0
C1172 C 0.90868 0.80064 0.24082 0.0
H1173 H 0.95554 0.83472 0.18126 0.0
H1174 H 0.90603 0.8395 0.20833 0.0
C1175 C 0.92694 0.77774 0.25041 0.0
C1176 C 0.51603 0.36711 0.02873 0.0
C1177 C 0.50636 0.35961 0.06003 0.0
H1178 H 0.52346 0.40468 0.99408 0.0
C1179 C 0.49423 0.38401 0.07958 0.0
H1180 H 0.52531 0.34868 0.01303 0.0
C1181 C 0.49372 0.41608 0.06893 0.0
C1182 C 0.50448 0.42406 0.03818 0.0
H1183 H 0.4866 0.37902 0.10376 0.0
H1184 H 0.48579 0.43513 0.08518 0.0
C1185 C 0.51473 0.39895 0.01772 0.0
C1186 C 0.95431 0.29622 0.32981 0.0
C1187 C 0.95343 0.28748 0.36197 0.0
H1188 H 0.92794 0.30807 0.28893 0.0
C1189 C 0.92442 0.28489 0.37801 0.0
H1190 H 0.97638 0.29878 0.31694 0.0
C1191 C 0.89659 0.28985 0.36183 0.0
C1192 C 0.89748 0.29826 0.3296 0.0
H1193 H 0.92302 0.27828 0.40283 0.0
H1194 H 0.87429 0.28671 0.37438 0.0
C1195 C 0.92668 0.30189 0.3139 0.0
C1196 C 0.97791 0.6587 0.52634 0.0
C1197 C 0.99036 0.66855 0.55875 0.0
H1198 H 0.97735 0.62426 0.48264 0.0
C1199 C 0.01264 0.6517 0.57179 0.0
H1200 H 0.9615 0.67221 0.51552 0.0
C1201 C 0.02324 0.62633 0.55258 0.0
C1202 C 0.01043 0.61568 0.52047 0.0
H1203 H 0.02356 0.65978 0.59628 0.0
H1204 H 0.04187 0.61532 0.56291 0.0
C1205 C 0.98733 0.63176 0.5075 0.0
C1206 C 0.64675 0.75196 0.84158 0.0
C1207 C 0.63167 0.7796 0.84022 0.0
H1208 H 0.68233 0.7266 0.82251 0.0
C1209 C 0.64057 0.80273 0.8167 0.0
H1210 H 0.64013 0.73363 0.85928 0.0
C1211 C 0.66536 0.79923 0.796 0.0
C1212 C 0.68082 0.77183 0.79773 0.0
H1213 H 0.62924 0.82429 0.81518 0.0
H1214 H 0.67284 0.8183 0.77914 0.0
C1215 C 0.67067 0.74779 0.82021 0.0
C1216 C 0.48323 0.57486 0.64976 0.0
C1217 C 0.45399 0.54948 0.6477 0.0
H1218 H 0.52804 0.59413 0.62776 0.0
C1219 C 0.4479 0.52317 0.62157 0.0
H1220 H 0.48871 0.59507 0.67005 0.0
C1221 C 0.47095 0.52167 0.59842 0.0
C1222 C 0.49995 0.54733 0.5999 0.0
H1223 H 0.42599 0.50269 0.61999 0.0
H1224 H 0.46646 0.49977 0.57994 0.0
C1225 C 0.50576 0.57417 0.62571 0.0
C1226 C 0.81285 0.20246 0.91912 0.0
C1227 C 0.79697 0.21407 0.94569 0.0
H1228 H 0.82117 0.20451 0.86843 0.0
C1229 C 0.77923 0.23935 0.94201 0.0
H1230 H 0.82672 0.18305 0.92131 0.0
C1231 C 0.776 0.25151 0.91188 0.0
C1232 C 0.79041 0.23853 0.88497 0.0
H1233 H 0.76693 0.24902 0.96217 0.0
H1234 H 0.7614 0.2702 0.90944 0.0
C1235 C 0.80954 0.2146 0.8889 0.0
C1236 C 0.04658 0.45123 0.13174 0.0
C1237 C 0.07642 0.47464 0.14063 0.0
H1238 H 1.00226 0.44083 0.10139 0.0
C1239 C 0.08408 0.50619 0.12738 0.0
H1240 H 0.04 0.42718 0.14265 0.0
C1241 C 0.06239 0.51452 0.10552 0.0
C1242 C 0.03304 0.49096 0.09538 0.0
H1243 H 0.10655 0.52505 0.13486 0.0
H1244 H 0.06869 0.53967 0.09655 0.0
C1245 C 0.02498 0.45923 0.10873 0.0
C1246 C 0.75462 0.8335 0.41667 0.0
C1247 C 0.78207 0.83381 0.43686 0.0
H1248 H 0.73266 0.82459 0.36801 0.0
C1249 C 0.80939 0.82593 0.42232 0.0
H1250 H 0.73327 0.83964 0.42704 0.0
C1251 C 0.8094 0.81827 0.38842 0.0
C1252 C 0.78183 0.81753 0.36826 0.0
H1253 H 0.83109 0.82631 0.43711 0.0
H1254 H 0.83084 0.81233 0.37807 0.0
C1255 C 0.75435 0.82499 0.38283 0.0
C1256 C 0.42938 0.53488 0.85284 0.0
C1257 C 0.4435 0.52029 0.82635 0.0
H1258 H 0.42601 0.54064 0.90472 0.0
C1259 C 0.46441 0.49856 0.83232 0.0
H1260 H 0.41284 0.55133 0.84901 0.0
C1261 C 0.47153 0.49206 0.86404 0.0
C1262 C 0.45793 0.50714 0.89053 0.0
H1263 H 0.47541 0.48653 0.81246 0.0
H1264 H 0.48835 0.4759 0.86786 0.0
C1265 C 0.43654 0.52835 0.88466 0.0
C1266 C 0.83557 0.21892 0.1495 0.0
C1267 C 0.82175 0.22391 0.11951 0.0
H1268 H 0.84281 0.23539 0.20065 0.0
C1269 C 0.80861 0.25312 0.11746 0.0
H1270 H 0.84594 0.19681 0.15189 0.0
C1271 C 0.80655 0.275 0.14549 0.0
C1272 C 0.81821 0.26827 0.17565 0.0
H1273 H 0.79778 0.25773 0.09466 0.0
H1274 H 0.7941 0.29569 0.14392 0.0
C1275 C 0.83388 0.24102 0.17734 0.0
C1276 C 0.0629 0.52038 0.32307 0.0
C1277 C 0.08223 0.49659 0.31603 0.0
H1278 H 0.03741 0.54404 0.35896 0.0
C1279 C 0.08832 0.47587 0.34002 0.0
H1280 H 0.05754 0.53659 0.30505 0.0
C1281 C 0.07646 0.48005 0.37098 0.0
C1282 C 0.0586 0.50515 0.37829 0.0
H1283 H 0.10306 0.45728 0.33524 0.0
H1284 H 0.08227 0.46461 0.3895 0.0
C1285 C 0.05134 0.52471 0.35394 0.0
C1286 C 0.76252 0.79625 0.61921 0.0
C1287 C 0.76243 0.83173 0.62284 0.0
H1288 H 0.75966 0.74983 0.64272 0.0
C1289 C 0.75793 0.84696 0.65413 0.0
H1290 H 0.76579 0.7835 0.5956 0.0
C1291 C 0.75471 0.82771 0.68103 0.0
C1292 C 0.75551 0.7926 0.67749 0.0
H1293 H 0.75751 0.87408 0.65809 0.0
H1294 H 0.75146 0.84029 0.70467 0.0
C1295 C 0.75884 0.77687 0.64617 0.0
C1296 C 0.70438 0.50955 0.55339 0.0
C1297 C 0.71086 0.49259 0.52372 0.0
H1298 H 0.67392 0.53871 0.5779 0.0
C1299 C 0.69432 0.49657 0.49486 0.0
H1300 H 0.71696 0.50715 0.57604 0.0
C1301 C 0.67023 0.51522 0.4959 0.0
C1302 C 0.66193 0.52976 0.52588 0.0
H1303 H 0.69913 0.48424 0.4716 0.0
H1304 H 0.65673 0.51634 0.47341 0.0
C1305 C 0.67993 0.52783 0.55449 0.0
C1306 C 0.15828 0.06767 0.51158 0.0
C1307 C 0.16964 0.09321 0.49073 0.0
H1308 H 0.11746 0.03003 0.52546 0.0
C1309 C 0.14766 0.10006 0.46747 0.0
H1310 H 0.17453 0.06199 0.52999 0.0
C1311 C 0.11529 0.08174 0.46489 0.0
C1312 C 0.10387 0.05648 0.4858 0.0
H1313 H 0.15547 0.11959 0.45114 0.0
H1314 H 0.09906 0.0876 0.44654 0.0
C1315 C 0.12558 0.04964 0.50931 0.0
C1316 C 0.23821 0.91816 0.78928 0.0
C1317 C 0.22979 0.93131 0.76065 0.0
H1318 H 0.25799 0.87941 0.80994 0.0
C1319 C 0.2362 0.91558 0.73038 0.0
H1320 H 0.23364 0.92983 0.81293 0.0
C1321 C 0.24942 0.88645 0.72867 0.0
C1322 C 0.25763 0.87316 0.75721 0.0
H1323 H 0.22989 0.92505 0.7079 0.0
H1324 H 0.25281 0.87395 0.70496 0.0
C1325 C 0.25245 0.88961 0.78759 0.0
C1326 C 0.38164 0.94712 0.97538 0.0
C1327 C 0.36151 0.95938 0.9976 0.0
H1328 H 0.43011 0.95001 0.96141 0.0
C1329 C 0.37541 0.98535 0.02288 0.0
H1330 H 0.37157 0.92712 0.95566 0.0
C1331 C 0.4089 0.99804 0.02648 0.0
C1332 C 0.42905 0.98539 0.00458 0.0
H1333 H 0.36052 0.9952 0.0405 0.0
H1334 H 0.41899 0.01774 0.04644 0.0
C1335 C 0.41512 0.96021 0.97869 0.0
C1336 C 0.81803 0.61154 0.7899 0.0
C1337 C 0.82401 0.59446 0.76025 0.0
H1338 H 0.79397 0.64789 0.81332 0.0
C1339 C 0.80582 0.59672 0.73172 0.0
H1340 H 0.83119 0.60965 0.81236 0.0
C1341 C 0.7844 0.61854 0.73227 0.0
C1342 C 0.78091 0.63818 0.76137 0.0
H1343 H 0.80955 0.58332 0.70857 0.0
H1344 H 0.77265 0.62205 0.70953 0.0
C1345 C 0.79647 0.63312 0.79048 0.0
C1346 C 0.86436 0.59013 0.9915 0.0
C1347 C 0.84047 0.58131 0.01391 0.0
H1348 H 0.90907 0.58233 0.9732 0.0
C1349 C 0.84291 0.55546 0.03413 0.0
H1350 H 0.8632 0.60981 0.9755 0.0
C1351 C 0.86912 0.53959 0.03268 0.0
C1352 C 0.89349 0.54928 0.01104 0.0
H1353 H 0.82487 0.5479 0.05159 0.0
H1354 H 0.87075 0.52044 0.04914 0.0
C1355 C 0.89061 0.57432 0.99013 0.0
C1356 C 0.23411 0.14069 0.82001 0.0
C1357 C 0.22914 0.11635 0.79221 0.0
H1358 H 0.25346 0.19378 0.83947 0.0
C1359 C 0.23974 0.12726 0.76225 0.0
H1360 H 0.22582 0.13298 0.84327 0.0
C1361 C 0.25405 0.16198 0.75985 0.0
C1362 C 0.259 0.18623 0.78755 0.0
H1363 H 0.23569 0.1092 0.7403 0.0
H1364 H 0.26144 0.16987 0.73636 0.0
C1365 C 0.24961 0.17533 0.8178 0.0
C1366 C 0.34975 0.92965 0.29839 0.0
C1367 C 0.35031 0.94929 0.27193 0.0
H1368 H 0.33125 0.88125 0.31667 0.0
C1369 C 0.33013 0.9354 0.24382 0.0
H1370 H 0.3648 0.9398 0.3205 0.0
C1371 C 0.31078 0.90191 0.24166 0.0
C1372 C 0.31133 0.8817 0.26756 0.0
H1373 H 0.32978 0.95008 0.22314 0.0
H1374 H 0.29623 0.89155 0.21927 0.0
C1375 C 0.33041 0.89614 0.29623 0.0
C1376 C 0.57262 0.38563 0.5558 0.0
C1377 C 0.55087 0.36828 0.57689 0.0
H1378 H 0.58348 0.42649 0.52518 0.0
C1379 C 0.5211 0.37768 0.58079 0.0
H1380 H 0.59567 0.37898 0.55204 0.0
C1381 C 0.51381 0.40469 0.56477 0.0
C1382 C 0.53639 0.42307 0.54499 0.0
H1383 H 0.50371 0.36461 0.59668 0.0
H1384 H 0.49129 0.4123 0.56918 0.0
C1385 C 0.56558 0.41281 0.54027 0.0
C1386 C 0.39106 0.73167 0.28575 0.0
C1387 C 0.41436 0.76327 0.29158 0.0
H1388 H 0.34358 0.70558 0.26468 0.0
C1389 C 0.40789 0.79279 0.2793 0.0
H1390 H 0.3954 0.70854 0.29497 0.0
C1391 C 0.37837 0.79114 0.26264 0.0
C1392 C 0.35503 0.7598 0.25721 0.0
H1393 H 0.42519 0.81758 0.28356 0.0
H1394 H 0.37351 0.81456 0.25446 0.0
C1395 C 0.36161 0.72989 0.26836 0.0
C1396 C 0.01679 0.67087 0.09184 0.0
C1397 C 0.04488 0.69651 0.08875 0.0
H1398 H 0.99154 0.61813 0.08001 0.0
C1399 C 0.06993 0.68771 0.0707 0.0
H1400 H 0.99713 0.67681 0.10562 0.0
C1401 C 0.06704 0.65367 0.05646 0.0
C1402 C 0.03874 0.62817 0.05942 0.0
H1403 H 0.09203 0.70694 0.0682 0.0
H1404 H 0.08668 0.64744 0.04286 0.0
C1405 C 0.01362 0.63723 0.0771 0.0
C1406 C 0.09039 0.21693 0.78973 0.0
C1407 C 0.07871 0.24389 0.806 0.0
H1408 H 0.13007 0.20213 0.76605 0.0
C1409 C 0.09807 0.27778 0.80875 0.0
H1410 H 0.07607 0.19051 0.78721 0.0
C1411 C 0.1288 0.28442 0.79625 0.0
C1412 C 0.1409 0.25725 0.78112 0.0
H1413 H 0.08971 0.2991 0.82102 0.0
H1414 H 0.14349 0.31068 0.79935 0.0
C1415 C 0.12129 0.22352 0.77759 0.0
C1416 C 0.57095 0.69051 0.99766 0.0
C1417 C 0.55116 0.69882 0.97305 0.0
H1418 H 0.57835 0.65294 0.02899 0.0
C1419 C 0.52161 0.67538 0.96285 0.0
H1420 H 0.59382 0.70803 0.0062 0.0
C1421 C 0.51271 0.64375 0.97596 0.0
C1422 C 0.53303 0.63489 0.99976 0.0
H1423 H 0.50573 0.681 0.94405 0.0
H1424 H 0.49025 0.62585 0.96676 0.0
C1425 C 0.56195 0.65897 0.01093 0.0
C1426 C 0.09514 0.74222 0.69091 0.0
C1427 C 0.09398 0.76047 0.66357 0.0
H1428 H 0.12462 0.72296 0.72435 0.0
C1429 C 0.12298 0.77308 0.64864 0.0
H1430 H 0.07328 0.73178 0.70284 0.0
C1431 C 0.15241 0.76776 0.66094 0.0
C1432 C 0.15343 0.74955 0.68825 0.0
H1433 H 0.12296 0.78696 0.62738 0.0
H1434 H 0.17443 0.77825 0.64927 0.0
C1435 C 0.12451 0.73675 0.70304 0.0
C1436 C 0.03726 0.38431 0.51602 0.0
C1437 C 0.05094 0.37826 0.48609 0.0
H1438 H 0.0269 0.42215 0.55207 0.0
C1439 C 0.0678 0.4066 0.47108 0.0
H1440 H 0.02428 0.36298 0.52825 0.0
C1441 C 0.069 0.44038 0.48468 0.0
C1442 C 0.05364 0.44614 0.51348 0.0
H1443 H 0.07866 0.40272 0.44808 0.0
H1444 H 0.08139 0.46193 0.47244 0.0
C1445 C 0.03875 0.41805 0.52969 0.0
C1446 C 0.4092 0.29275 0.19167 0.0
C1447 C 0.42036 0.26224 0.19305 0.0
H1448 H 0.37416 0.32144 0.20708 0.0
C1449 C 0.40497 0.23783 0.21323 0.0
H1450 H 0.42058 0.31219 0.17651 0.0
C1451 C 0.37845 0.24306 0.23056 0.0
C1452 C 0.36668 0.27307 0.2286 0.0
H1453 H 0.41289 0.21411 0.21507 0.0
H1454 H 0.36674 0.22312 0.24508 0.0
C1455 C 0.38277 0.2982 0.20942 0.0
C1456 C 0.5945 0.54753 0.4017 0.0
C1457 C 0.59776 0.51959 0.37968 0.0
H1458 H 0.5737 0.56433 0.44491 0.0
C1459 C 0.58176 0.48583 0.38524 0.0
H1460 H 0.60664 0.5738 0.39822 0.0
C1461 C 0.562 0.48038 0.41181 0.0
C1462 C 0.55879 0.50853 0.4337 0.0
H1463 H 0.58381 0.46382 0.36857 0.0
H1464 H 0.54932 0.45429 0.41527 0.0
C1465 C 0.57566 0.54205 0.42856 0.0
C1466 C 0.24015 0.81574 0.0702 0.0
C1467 C 0.24751 0.85218 0.07435 0.0
H1468 H 0.23996 0.76933 0.09272 0.0
C1469 C 0.25865 0.86981 0.10516 0.0
H1470 H 0.23156 0.80161 0.04659 0.0
C1471 C 0.26457 0.85156 0.13076 0.0
C1472 C 0.25857 0.81536 0.12628 0.0
H1473 H 0.26473 0.89785 0.10905 0.0
H1474 H 0.27425 0.86586 0.15405 0.0
C1475 C 0.24515 0.79735 0.09631 0.0
C1476 C 0.01279 0.57426 0.88408 0.0
C1477 C 0.98046 0.55642 0.87664 0.0
H1478 H 0.0533 0.58533 0.91919 0.0
C1479 C 0.96316 0.53753 0.89972 0.0
H1480 H 0.02663 0.58826 0.86606 0.0
C1481 C 0.9786 0.53461 0.92925 0.0
C1482 C 0.01128 0.55147 0.93653 0.0
H1483 H 0.93848 0.52275 0.89386 0.0
H1484 H 0.96541 0.51754 0.9455 0.0
C1485 C 0.02801 0.5723 0.91421 0.0
C1486 C 0.24895 0.23115 0.60578 0.0
C1487 C 0.27406 0.21566 0.59548 0.0
H1488 H 0.228 0.25482 0.64613 0.0
C1489 C 0.29874 0.21419 0.61852 0.0
H1490 H 0.22931 0.23215 0.5887 0.0
C1491 C 0.29825 0.22752 0.65109 0.0
C1492 C 0.27256 0.24181 0.66179 0.0
H1493 H 0.31826 0.20216 0.61142 0.0
H1494 H 0.31759 0.22562 0.66815 0.0
C1495 C 0.24798 0.24371 0.63872 0.0
C1496 C 0.62215 0.5122 0.17257 0.0
C1497 C 0.61415 0.52723 0.2025 0.0
H1498 H 0.61605 0.50736 0.12052 0.0
C1499 C 0.59295 0.54969 0.20213 0.0
H1500 H 0.63857 0.49502 0.1718 0.0
C1501 C 0.58027 0.55705 0.17252 0.0
C1502 C 0.58857 0.54214 0.14275 0.0
H1503 H 0.58654 0.56203 0.22468 0.0
H1504 H 0.5638 0.57416 0.17295 0.0
C1505 C 0.60953 0.51959 0.1431 0.0
C1506 C 0.26534 0.79218 0.8947 0.0
C1507 C 0.24957 0.81956 0.89964 0.0
H1508 H 0.27626 0.75295 0.86048 0.0
C1509 C 0.22913 0.8254 0.87438 0.0
H1510 H 0.28117 0.78694 0.91376 0.0
C1511 C 0.22614 0.80561 0.84412 0.0
C1512 C 0.24328 0.77957 0.83888 0.0
H1513 H 0.21671 0.84628 0.87744 0.0
H1514 H 0.21192 0.81191 0.82425 0.0
C1515 C 0.26233 0.77245 0.86443 0.0
C1516 C 0.96827 0.58418 0.67563 0.0
C1517 C 0.97868 0.56878 0.70193 0.0
H1518 H 0.97393 0.59359 0.62588 0.0
C1519 C 0.00681 0.55591 0.69965 0.0
H1520 H 0.947 0.59485 0.67683 0.0
C1521 C 0.02221 0.55518 0.67037 0.0
C1522 C 0.00964 0.56738 0.6432 0.0
H1523 H 0.01561 0.54419 0.71964 0.0
H1524 H 0.0425 0.54302 0.6684 0.0
C1525 C 0.98363 0.58344 0.64645 0.0
C1526 C 0.24868 0.23333 0.39178 0.0
C1527 C 0.27447 0.22882 0.41191 0.0
H1528 H 0.23374 0.25074 0.34753 0.0
C1529 C 0.30627 0.23966 0.4019 0.0
H1530 H 0.2239 0.22509 0.39856 0.0
C1531 C 0.31204 0.25548 0.37285 0.0
C1532 C 0.28606 0.25952 0.35264 0.0
H1533 H 0.32668 0.23655 0.41684 0.0
H1534 H 0.33674 0.26416 0.36601 0.0
C1535 C 0.25433 0.2479 0.36238 0.0
C1536 C 0.37511 0.56757 0.4906 0.0
C1537 C 0.35969 0.56577 0.52015 0.0
H1538 H 0.40876 0.54908 0.46023 0.0
C1539 C 0.36356 0.54016 0.54003 0.0
H1540 H 0.37225 0.5867 0.47454 0.0
C1541 C 0.38423 0.51845 0.5317 0.0
C1542 C 0.40131 0.52183 0.50327 0.0
H1543 H 0.35169 0.53778 0.56277 0.0
H1544 H 0.38832 0.50047 0.54853 0.0
C1545 C 0.39567 0.5457 0.48218 0.0
C1546 C 0.89056 0.95686 0.51781 0.0
C1547 C 0.87087 0.96333 0.54335 0.0
H1548 H 0.93679 0.97125 0.49715 0.0
C1549 C 0.88291 0.99153 0.5671 0.0
H1550 H 0.88188 0.93552 0.49895 0.0
C1551 C 0.91455 0.01161 0.56628 0.0
C1552 C 0.93447 0.00449 0.54127 0.0
H1553 H 0.86837 0.99721 0.58703 0.0
H1554 H 0.92373 0.03224 0.58571 0.0
C1555 C 0.92191 0.97747 0.51659 0.0
C1556 C 0.83594 0.13893 0.2534 0.0
C1557 C 0.82516 0.11729 0.22429 0.0
H1558 H 0.83207 0.18383 0.28451 0.0
C1559 C 0.79986 0.12405 0.20486 0.0
H1560 H 0.85523 0.13443 0.26906 0.0
C1561 C 0.7863 0.15227 0.21389 0.0
C1562 C 0.79779 0.17456 0.24251 0.0
H1563 H 0.79083 0.10787 0.18232 0.0
H1564 H 0.7676 0.15728 0.19779 0.0
C1565 C 0.8225 0.16722 0.26235 0.0
C1566 C 0.68324 0.08212 0.06192 0.0
C1567 C 0.69982 0.09504 0.03532 0.0
H1568 H 0.63736 0.05929 0.07969 0.0
C1569 C 0.68266 0.09355 0.00531 0.0
H1570 H 0.69597 0.08317 0.08536 0.0
C1571 C 0.64938 0.07968 1.00198 0.0
C1572 C 0.63259 0.06762 0.02876 0.0
H1573 H 0.69494 0.10325 0.98438 0.0
H1574 H 0.63674 0.07905 0.97858 0.0
C1575 C 0.64976 0.06879 0.05875 0.0
C1576 C 0.2511 0.43754 0.21458 0.0
C1577 C 0.22481 0.4446 0.23151 0.0
H1578 H 0.29138 0.41376 0.21453 0.0
C1579 C 0.22194 0.43713 0.26399 0.0
H1580 H 0.25434 0.44357 0.18972 0.0
C1581 C 0.24348 0.42041 0.27836 0.0
C1582 C 0.26816 0.41089 0.26044 0.0
H1583 H 0.20228 0.44286 0.27788 0.0
H1584 H 0.23937 0.4128 0.30262 0.0
C1585 C 0.27264 0.42092 0.22896 0.0
C1586 C 0.1865 0.48457 0.07074 0.0
C1587 C 0.1981 0.46436 0.04611 0.0
H1588 H 0.152 0.51466 0.08358 0.0
C1589 C 0.18368 0.46047 0.01431 0.0
H1590 H 0.19696 0.48814 0.09551 0.0
C1591 C 0.15814 0.47615 0.0074 0.0
C1592 C 0.14625 0.49579 0.03219 0.0
H1593 H 0.19208 0.44524 0.99474 0.0
H1594 H 0.14725 0.47226 0.98278 0.0
C1595 C 0.16078 0.49991 0.06389 0.0
C1596 C 0.79939 0.92185 0.20738 0.0
C1597 C 0.83095 0.93468 0.22159 0.0
H1598 H 0.75634 0.88078 0.20375 0.0
C1599 C 0.84327 0.9153 0.24355 0.0
H1600 H 0.78922 0.93627 0.19051 0.0
C1601 C 0.82432 0.88425 0.25166 0.0
C1602 C 0.79289 0.87135 0.23746 0.0
H1603 H 0.86734 0.9246 0.25533 0.0
H1604 H 0.83425 0.87052 0.26933 0.0
C1605 C 0.78061 0.89021 0.21501 0.0
C1606 C 0.6945 0.10769 0.75884 0.0
C1607 C 0.69014 0.08947 0.72754 0.0
H1608 H 0.71559 0.15518 0.78821 0.0
C1609 C 0.70444 0.10572 0.70128 0.0
H1610 H 0.68396 0.09561 0.77956 0.0
C1611 C 0.7223 0.13994 0.70617 0.0
C1612 C 0.72659 0.1582 0.73748 0.0
H1613 H 0.70142 0.09218 0.6769 0.0
H1614 H 0.73274 0.15207 0.68544 0.0
C1615 C 0.71281 0.14168 0.76383 0.0
loop_
_geom_bond_atom_site_label_1
_geom_bond_atom_site_label_2
_geom_bond_distance
_geom_bond_site_symmetry_2
_ccdc_geom_bond_type
O0 Cd1 2.223 . S
O0 C8 1.315 . S
Cd1 O0 2.223 . S
Cd1 O4 2.297 . S
Cd1 O5 2.439 . S
Cd1 O11 2.240 1_455 S
Cd2 O3 2.240 . S
Cd2 O10 2.223 1_455 S
Cd2 O12 2.297 . S
Cd2 O13 2.439 . S
O3 Cd2 2.240 . S
O3 C8 1.279 . S
O4 Cd1 2.297 . S
O4 C6 1.247 . S
O5 Cd1 2.439 . S
O5 C6 1.208 . S
C6 O4 1.247 . S
C6 O5 1.208 . S
C7 O12 1.247 . S
C7 O13 1.208 . S
C8 O0 1.315 . S
C8 O3 1.279 . S
C9 O10 1.315 . S
C9 O11 1.279 . S
O10 Cd2 2.223 1_655 S
O10 C9 1.315 . S
O11 Cd1 2.240 1_655 S
O11 C9 1.279 . S
O12 Cd2 2.297 . S
O12 C7 1.247 . S
O13 Cd2 2.439 . S
O13 C7 1.208 . S
O14 Cd15 2.223 1_455 S
O14 C22 1.312 1_455 S
Cd15 O14 2.223 1_655 S
Cd15 O18 2.297 . S
Cd15 O19 2.439 . S
Cd15 O25 2.240 1_655 S
Cd16 O17 2.240 1_455 S
Cd16 O24 2.223 . S
Cd16 O26 2.297 . S
Cd16 O27 2.439 . S
O17 Cd16 2.240 1_655 S
O17 C22 1.292 . S
O18 Cd15 2.297 . S
O18 C20 1.247 . S
O19 Cd15 2.439 . S
O19 C20 1.208 . S
C20 O18 1.247 . S
C20 O19 1.208 . S
C21 O26 1.247 . S
C21 O27 1.208 . S
C22 O14 1.312 1_655 S
C22 O17 1.292 . S
C23 O24 1.315 . S
C23 O25 1.279 . S
O24 Cd16 2.223 . S
O24 C23 1.315 . S
O25 Cd15 2.240 1_455 S
O25 C23 1.279 . S
O26 Cd16 2.297 . S
O26 C21 1.247 . S
O27 Cd16 2.439 . S
O27 C21 1.208 . S
O28 Cd29 2.223 . S
O28 C36 1.315 . S
Cd29 O28 2.223 . S
Cd29 O32 2.297 . S
Cd29 O33 2.439 . S
Cd29 O39 2.240 . S
Cd30 O31 2.240 . S
Cd30 O38 2.223 . S
Cd30 O40 2.297 . S
Cd30 O41 2.439 . S
O31 Cd30 2.240 . S
O31 C36 1.279 . S
O32 Cd29 2.297 . S
O32 C34 1.247 . S
O33 Cd29 2.439 . S
O33 C34 1.208 . S
C34 O32 1.247 . S
C34 O33 1.208 . S
C35 O40 1.247 . S
C35 O41 1.208 . S
C36 O28 1.315 . S
C36 O31 1.279 . S
C37 O38 1.315 . S
C37 O39 1.279 . S
O38 Cd30 2.223 . S
O38 C37 1.315 . S
O39 Cd29 2.240 . S
O39 C37 1.279 . S
O40 Cd30 2.297 . S
O40 C35 1.247 . S
O41 Cd30 2.439 . S
O41 C35 1.208 . S
O42 Cd43 2.223 . S
O42 C50 1.315 . S
Cd43 O42 2.223 . S
Cd43 O46 2.297 . S
Cd43 O47 2.439 . S
Cd43 O53 2.240 . S
Cd44 O45 2.240 . S
Cd44 O52 2.223 . S
Cd44 O54 2.297 . S
Cd44 O55 2.439 . S
O45 Cd44 2.240 . S
O45 C50 1.279 . S
O46 Cd43 2.297 . S
O46 C48 1.247 . S
O47 Cd43 2.439 . S
O47 C48 1.208 . S
C48 O46 1.247 . S
C48 O47 1.208 . S
C49 O54 1.247 . S
C49 O55 1.208 . S
C50 O42 1.315 . S
C50 O45 1.279 . S
C51 O52 1.315 . S
C51 O53 1.279 . S
O52 Cd44 2.223 . S
O52 C51 1.315 . S
O53 Cd43 2.240 . S
O53 C51 1.279 . S
O54 Cd44 2.297 . S
O54 C49 1.247 . S
O55 Cd44 2.439 . S
O55 C49 1.208 . S
O56 Cd57 2.223 . S
O56 C64 1.315 . S
Cd57 O56 2.223 . S
Cd57 O60 2.297 1_455 S
Cd57 O61 2.439 1_455 S
Cd57 O67 2.240 . S
Cd58 O59 2.240 . S
Cd58 O66 2.223 . S
Cd58 O68 2.297 . S
Cd58 O69 2.439 . S
O59 Cd58 2.240 . S
O59 C64 1.279 . S
O60 Cd57 2.297 1_655 S
O60 C62 1.247 . S
O61 Cd57 2.439 1_655 S
O61 C62 1.208 . S
C62 O60 1.247 . S
C62 O61 1.208 . S
C63 O68 1.247 . S
C63 O69 1.208 . S
C64 O56 1.315 . S
C64 O59 1.279 . S
C65 O66 1.315 . S
C65 O67 1.279 . S
O66 Cd58 2.223 . S
O66 C65 1.315 . S
O67 Cd57 2.240 . S
O67 C65 1.279 . S
O68 Cd58 2.297 . S
O68 C63 1.247 . S
O69 Cd58 2.439 . S
O69 C63 1.208 . S
O70 Cd71 2.223 . S
O70 C78 1.315 . S
Cd71 O70 2.223 . S
Cd71 O74 2.297 . S
Cd71 O75 2.439 . S
Cd71 O81 2.240 . S
Cd72 O73 2.240 . S
Cd72 O80 2.223 . S
Cd72 O82 2.297 . S
Cd72 O83 2.439 . S
O73 Cd72 2.240 . S
O73 C78 1.279 . S
O74 Cd71 2.297 . S
O74 C76 1.247 . S
O75 Cd71 2.439 . S
O75 C76 1.208 . S
C76 O74 1.247 . S
C76 O75 1.208 . S
C77 O82 1.247 . S
C77 O83 1.208 . S
C78 O70 1.315 . S
C78 O73 1.279 . S
C79 O80 1.315 . S
C79 O81 1.279 . S
O80 Cd72 2.223 . S
O80 C79 1.315 . S
O81 Cd71 2.240 . S
O81 C79 1.279 . S
O82 Cd72 2.297 . S
O82 C77 1.247 . S
O83 Cd72 2.439 . S
O83 C77 1.208 . S
O84 Cd85 2.223 . S
O84 C92 1.315 . S
Cd85 O84 2.223 . S
Cd85 O88 2.297 . S
Cd85 O89 2.439 . S
Cd85 O95 2.240 . S
Cd86 O87 2.240 . S
Cd86 O94 2.223 . S
Cd86 O96 2.297 . S
Cd86 O97 2.439 . S
O87 Cd86 2.240 . S
O87 C92 1.279 . S
O88 Cd85 2.297 . S
O88 C90 1.247 . S
O89 Cd85 2.439 . S
O89 C90 1.208 . S
C90 O88 1.247 . S
C90 O89 1.208 . S
C91 O96 1.247 . S
C91 O97 1.208 . S
C92 O84 1.315 . S
C92 O87 1.279 . S
C93 O94 1.315 . S
C93 O95 1.279 . S
O94 Cd86 2.223 . S
O94 C93 1.315 . S
O95 Cd85 2.240 . S
O95 C93 1.279 . S
O96 Cd86 2.297 . S
O96 C91 1.247 . S
O97 Cd86 2.439 . S
O97 C91 1.208 . S
O98 Cd99 2.223 1_655 S
O98 C106 1.315 . S
Cd99 O98 2.223 1_455 S
Cd99 O102 2.297 . S
Cd99 O103 2.439 . S
Cd99 O109 2.240 1_455 S
Cd100 O101 2.240 1_655 S
Cd100 O108 2.223 . S
Cd100 O110 2.297 . S
Cd100 O111 2.439 1_655 S
O101 Cd100 2.240 1_455 S
O101 C106 1.279 1_455 S
O102 Cd99 2.297 . S
O102 C104 1.247 . S
O103 Cd99 2.439 . S
O103 C104 1.208 . S
C104 O102 1.247 . S
C104 O103 1.208 . S
C105 O110 1.247 1_455 S
C105 O111 1.208 . S
C106 O98 1.315 . S
C106 O101 1.279 1_655 S
C107 O108 1.315 . S
C107 O109 1.279 . S
O108 Cd100 2.223 . S
O108 C107 1.315 . S
O109 Cd99 2.240 1_655 S
O109 C107 1.279 . S
O110 Cd100 2.297 . S
O110 C105 1.247 1_655 S
O111 Cd100 2.439 1_455 S
O111 C105 1.208 . S
O112 Cd113 2.223 . S
O112 C120 1.315 . S
Cd113 O112 2.223 . S
Cd113 O116 2.297 . S
Cd113 O117 2.439 . S
Cd113 O123 2.240 1_545 S
Cd114 O115 2.240 . S
Cd114 O122 2.223 1_545 S
Cd114 O124 2.297 1_545 S
Cd114 O125 2.439 . S
O115 Cd114 2.240 . S
O115 C120 1.279 . S
O116 Cd113 2.297 . S
O116 C118 1.247 . S
O117 Cd113 2.439 . S
O117 C118 1.208 . S
C118 O116 1.247 . S
C118 O117 1.208 . S
C119 O124 1.247 1_545 S
C119 O125 1.208 . S
C120 O112 1.315 . S
C120 O115 1.279 . S
C121 O122 1.315 . S
C121 O123 1.279 . S
O122 Cd114 2.223 1_565 S
O122 C121 1.315 . S
O123 Cd113 2.240 1_565 S
O123 C121 1.279 . S
O124 Cd114 2.297 1_565 S
O124 C119 1.247 1_565 S
O125 Cd114 2.439 . S
O125 C119 1.208 . S
O126 Cd127 2.223 . S
O126 C134 1.315 . S
Cd127 O126 2.223 . S
Cd127 O130 2.297 . S
Cd127 O131 2.439 . S
Cd127 O137 2.240 . S
Cd128 O129 2.240 . S
Cd128 O136 2.223 . S
Cd128 O138 2.297 . S
Cd128 O139 2.439 . S
O129 Cd128 2.240 . S
O129 C134 1.279 . S
O130 Cd127 2.297 . S
O130 C132 1.247 . S
O131 Cd127 2.439 . S
O131 C132 1.208 . S
C132 O130 1.247 . S
C132 O131 1.208 . S
C133 O138 1.247 . S
C133 O139 1.208 . S
C134 O126 1.315 . S
C134 O129 1.279 . S
C135 O136 1.315 . S
C135 O137 1.279 . S
O136 Cd128 2.223 . S
O136 C135 1.315 . S
O137 Cd127 2.240 . S
O137 C135 1.279 . S
O138 Cd128 2.297 . S
O138 C133 1.247 . S
O139 Cd128 2.439 . S
O139 C133 1.208 . S
O140 Cd141 2.223 1_545 S
O140 C148 1.315 1_545 S
Cd141 O140 2.223 1_565 S
Cd141 O144 2.297 . S
Cd141 O145 2.439 . S
Cd141 O151 2.240 1_565 S
Cd142 O143 2.240 1_545 S
Cd142 O150 2.223 . S
Cd142 O152 2.297 . S
Cd142 O153 2.439 1_545 S
O143 Cd142 2.240 1_565 S
O143 C148 1.279 . S
O144 Cd141 2.297 . S
O144 C146 1.247 . S
O145 Cd141 2.439 . S
O145 C146 1.208 . S
C146 O144 1.247 . S
C146 O145 1.208 . S
C147 O152 1.247 . S
C147 O153 1.208 1_545 S
C148 O140 1.315 1_565 S
C148 O143 1.279 . S
C149 O150 1.315 . S
C149 O151 1.279 . S
O150 Cd142 2.223 . S
O150 C149 1.315 . S
O151 Cd141 2.240 1_545 S
O151 C149 1.279 . S
O152 Cd142 2.297 . S
O152 C147 1.247 . S
O153 Cd142 2.439 1_565 S
O153 C147 1.208 1_565 S
O154 Cd155 2.223 . S
O154 C162 1.315 . S
Cd155 O154 2.223 . S
Cd155 O158 2.297 . S
Cd155 O159 2.439 1_554 S
Cd155 O165 2.248 . S
Cd156 O157 2.240 1_556 S
Cd156 O164 2.223 1_556 S
Cd156 O166 2.297 . S
Cd156 O167 2.439 . S
O157 Cd156 2.240 1_554 S
O157 C162 1.279 . S
O158 Cd155 2.297 . S
O158 C160 1.247 . S
O159 Cd155 2.439 1_556 S
O159 C160 1.208 1_556 S
C160 O158 1.247 . S
C160 O159 1.208 1_554 S
C161 O166 1.247 . S
C161 O167 1.208 . S
C162 O154 1.315 . S
C162 O157 1.279 . S
C163 O164 1.315 . S
C163 O165 1.284 . S
O164 Cd156 2.223 1_554 S
O164 C163 1.315 . S
O165 Cd155 2.248 . S
O165 C163 1.284 . S
O166 Cd156 2.297 . S
O166 C161 1.247 . S
O167 Cd156 2.439 . S
O167 C161 1.208 . S
O168 Cd169 2.223 . S
O168 C176 1.315 . S
Cd169 O168 2.223 . S
Cd169 O172 2.297 . S
Cd169 O173 2.439 . S
Cd169 O179 2.240 . S
Cd170 O171 2.240 1_556 S
Cd170 O178 2.223 1_556 S
Cd170 O180 2.297 . S
Cd170 O181 2.439 . S
O171 Cd170 2.240 1_554 S
O171 C176 1.279 . S
O172 Cd169 2.297 . S
O172 C174 1.247 . S
O173 Cd169 2.439 . S
O173 C174 1.208 . S
C174 O172 1.247 . S
C174 O173 1.208 . S
C175 O180 1.247 . S
C175 O181 1.208 . S
C176 O168 1.315 . S
C176 O171 1.279 . S
C177 O178 1.315 . S
C177 O179 1.279 . S
O178 Cd170 2.223 1_554 S
O178 C177 1.315 . S
O179 Cd169 2.240 . S
O179 C177 1.279 . S
O180 Cd170 2.297 . S
O180 C175 1.247 . S
O181 Cd170 2.439 . S
O181 C175 1.208 . S
O182 Cd183 2.223 . S
O182 C190 1.315 . S
Cd183 O182 2.223 . S
Cd183 O186 2.297 . S
Cd183 O187 2.439 1_554 S
Cd183 O193 2.240 1_554 S
Cd184 O185 2.240 1_556 S
Cd184 O192 2.223 1_556 S
Cd184 O194 2.297 . S
Cd184 O195 2.439 . S
O185 Cd184 2.240 1_554 S
O185 C190 1.279 . S
O186 Cd183 2.297 . S
O186 C188 1.247 . S
O187 Cd183 2.439 1_556 S
O187 C188 1.208 1_556 S
C188 O186 1.247 . S
C188 O187 1.208 1_554 S
C189 O194 1.247 . S
C189 O195 1.208 . S
C190 O182 1.315 . S
C190 O185 1.279 . S
C191 O192 1.315 . S
C191 O193 1.279 1_554 S
O192 Cd184 2.223 1_554 S
O192 C191 1.315 . S
O193 Cd183 2.240 1_556 S
O193 C191 1.279 1_556 S
O194 Cd184 2.297 . S
O194 C189 1.247 . S
O195 Cd184 2.439 . S
O195 C189 1.208 . S
O196 Cd197 2.223 . S
O196 C204 1.315 . S
Cd197 O196 2.223 . S
Cd197 O200 2.297 . S
Cd197 O201 2.439 . S
Cd197 O207 2.240 . S
Cd198 O199 2.240 . S
Cd198 O206 2.223 . S
Cd198 O208 2.297 . S
Cd198 O209 2.439 . S
O199 Cd198 2.240 . S
O199 C204 1.279 . S
O200 Cd197 2.297 . S
O200 C202 1.247 . S
O201 Cd197 2.439 . S
O201 C202 1.208 . S
C202 O200 1.247 . S
C202 O201 1.208 . S
C203 O208 1.247 . S
C203 O209 1.208 . S
C204 O196 1.315 . S
C204 O199 1.279 . S
C205 O206 1.315 . S
C205 O207 1.279 . S
O206 Cd198 2.223 . S
O206 C205 1.315 . S
O207 Cd197 2.240 . S
O207 C205 1.279 . S
O208 Cd198 2.297 . S
O208 C203 1.247 . S
O209 Cd198 2.439 . S
O209 C203 1.208 . S
O210 Cd211 2.223 . S
O210 C218 1.315 . S
Cd211 O210 2.223 . S
Cd211 O214 2.297 . S
Cd211 O215 2.439 . S
Cd211 O221 2.240 . S
Cd212 O213 2.240 . S
Cd212 O220 2.223 . S
Cd212 O222 2.297 . S
Cd212 O223 2.439 . S
O213 Cd212 2.240 . S
O213 C218 1.279 . S
O214 Cd211 2.297 . S
O214 C216 1.247 . S
O215 Cd211 2.439 . S
O215 C216 1.208 . S
C216 O214 1.247 . S
C216 O215 1.208 . S
C217 O222 1.247 . S
C217 O223 1.208 . S
C218 O210 1.315 . S
C218 O213 1.279 . S
C219 O220 1.315 . S
C219 O221 1.279 . S
O220 Cd212 2.223 . S
O220 C219 1.315 . S
O221 Cd211 2.240 . S
O221 C219 1.279 . S
O222 Cd212 2.297 . S
O222 C217 1.247 . S
O223 Cd212 2.439 . S
O223 C217 1.208 . S
O224 Cd225 2.223 . S
O224 C232 1.315 . S
Cd225 O224 2.223 . S
Cd225 O228 2.297 . S
Cd225 O229 2.439 . S
Cd225 O235 2.240 . S
Cd226 O227 2.240 . S
Cd226 O234 2.223 1_545 S
Cd226 O236 2.297 . S
Cd226 O237 2.439 . S
O227 Cd226 2.240 . S
O227 C232 1.279 . S
O228 Cd225 2.297 . S
O228 C230 1.247 . S
O229 Cd225 2.439 . S
O229 C230 1.208 . S
C230 O228 1.247 . S
C230 O229 1.208 . S
C231 O236 1.247 . S
C231 O237 1.208 . S
C232 O224 1.315 . S
C232 O227 1.279 . S
C233 O234 1.315 . S
C233 O235 1.279 1_565 S
O234 Cd226 2.223 1_565 S
O234 C233 1.315 . S
O235 Cd225 2.240 . S
O235 C233 1.279 1_545 S
O236 Cd226 2.297 . S
O236 C231 1.247 . S
O237 Cd226 2.439 . S
O237 C231 1.208 . S
O238 Cd239 2.223 . S
O238 C246 1.315 . S
Cd239 O238 2.223 . S
Cd239 O242 2.297 . S
Cd239 O243 2.439 . S
Cd239 O249 2.240 . S
Cd240 O241 2.240 . S
Cd240 O248 2.223 . S
Cd240 O250 2.297 . S
Cd240 O251 2.439 . S
O241 Cd240 2.240 . S
O241 C246 1.279 . S
O242 Cd239 2.297 . S
O242 C244 1.247 . S
O243 Cd239 2.439 . S
O243 C244 1.208 . S
C244 O242 1.247 . S
C244 O243 1.208 . S
C245 O250 1.247 . S
C245 O251 1.208 . S
C246 O238 1.315 . S
C246 O241 1.279 . S
C247 O248 1.315 . S
C247 O249 1.279 . S
O248 Cd240 2.223 . S
O248 C247 1.315 . S
O249 Cd239 2.240 . S
O249 C247 1.279 . S
O250 Cd240 2.297 . S
O250 C245 1.247 . S
O251 Cd240 2.439 . S
O251 C245 1.208 . S
O252 Cd253 2.223 . S
O252 C260 1.315 . S
Cd253 O252 2.223 . S
Cd253 O256 2.297 . S
Cd253 O257 2.439 . S
Cd253 O263 2.240 . S
Cd254 O255 2.240 . S
Cd254 O262 2.223 . S
Cd254 O264 2.297 . S
Cd254 O265 2.439 . S
O255 Cd254 2.240 . S
O255 C260 1.279 . S
O256 Cd253 2.297 . S
O256 C258 1.247 . S
O257 Cd253 2.439 . S
O257 C258 1.208 . S
C258 O256 1.247 . S
C258 O257 1.208 . S
C259 O264 1.247 . S
C259 O265 1.208 . S
C260 O252 1.315 . S
C260 O255 1.279 . S
C261 O262 1.315 . S
C261 O263 1.279 . S
O262 Cd254 2.223 . S
O262 C261 1.315 . S
O263 Cd253 2.240 . S
O263 C261 1.279 . S
O264 Cd254 2.297 . S
O264 C259 1.247 . S
O265 Cd254 2.439 . S
O265 C259 1.208 . S
O266 Cd267 2.223 . S
O266 C274 1.315 . S
Cd267 O266 2.223 . S
Cd267 O270 2.297 1_545 S
Cd267 O271 2.439 1_545 S
Cd267 O277 2.240 . S
Cd268 O269 2.240 . S
Cd268 O276 2.223 . S
Cd268 O278 2.297 . S
Cd268 O279 2.439 . S
O269 Cd268 2.240 . S
O269 C274 1.279 . S
O270 Cd267 2.297 1_565 S
O270 C272 1.247 . S
O271 Cd267 2.439 1_565 S
O271 C272 1.208 . S
C272 O270 1.247 . S
C272 O271 1.208 . S
C273 O278 1.247 . S
C273 O279 1.208 . S
C274 O266 1.315 . S
C274 O269 1.279 . S
C275 O276 1.315 . S
C275 O277 1.279 . S
O276 Cd268 2.223 . S
O276 C275 1.315 . S
O277 Cd267 2.240 . S
O277 C275 1.279 . S
O278 Cd268 2.297 . S
O278 C273 1.247 . S
O279 Cd268 2.439 . S
O279 C273 1.208 . S
O280 Cd281 2.223 . S
O280 C288 1.315 . S
Cd281 O280 2.223 . S
Cd281 O284 2.297 . S
Cd281 O285 2.439 . S
Cd281 O291 2.240 1_554 S
Cd282 O283 2.240 . S
Cd282 O290 2.223 . S
Cd282 O292 2.297 1_554 S
Cd282 O293 2.439 1_554 S
O283 Cd282 2.240 . S
O283 C288 1.279 . S
O284 Cd281 2.297 . S
O284 C286 1.247 . S
O285 Cd281 2.439 . S
O285 C286 1.208 . S
C286 O284 1.247 . S
C286 O285 1.208 . S
C287 O292 1.247 . S
C287 O293 1.208 . S
C288 O280 1.315 . S
C288 O283 1.279 . S
C289 O290 1.315 . S
C289 O291 1.279 1_554 S
O290 Cd282 2.223 . S
O290 C289 1.315 . S
O291 Cd281 2.240 1_556 S
O291 C289 1.279 1_556 S
O292 Cd282 2.297 1_556 S
O292 C287 1.247 . S
O293 Cd282 2.439 1_556 S
O293 C287 1.208 . S
O294 Cd295 2.223 . S
O294 C302 1.315 . S
Cd295 O294 2.223 . S
Cd295 O298 2.297 . S
Cd295 O299 2.439 . S
Cd295 O305 2.240 . S
Cd296 O297 2.240 . S
Cd296 O304 2.223 . S
Cd296 O306 2.297 . S
Cd296 O307 2.439 . S
O297 Cd296 2.240 . S
O297 C302 1.279 . S
O298 Cd295 2.297 . S
O298 C300 1.247 . S
O299 Cd295 2.439 . S
O299 C300 1.208 . S
C300 O298 1.247 . S
C300 O299 1.208 . S
C301 O306 1.247 . S
C301 O307 1.208 . S
C302 O294 1.315 . S
C302 O297 1.279 . S
C303 O304 1.315 . S
C303 O305 1.279 . S
O304 Cd296 2.223 . S
O304 C303 1.315 . S
O305 Cd295 2.240 . S
O305 C303 1.279 . S
O306 Cd296 2.297 . S
O306 C301 1.247 . S
O307 Cd296 2.439 . S
O307 C301 1.208 . S
O308 Cd309 2.223 . S
O308 C316 1.315 . S
Cd309 O308 2.223 . S
Cd309 O312 2.297 . S
Cd309 O313 2.439 . S
Cd309 O319 2.240 . S
Cd310 O311 2.240 . S
Cd310 O318 2.223 . S
Cd310 O320 2.297 . S
Cd310 O321 2.439 . S
O311 Cd310 2.240 . S
O311 C316 1.279 . S
O312 Cd309 2.297 . S
O312 C314 1.247 . S
O313 Cd309 2.439 . S
O313 C314 1.208 . S
C314 O312 1.247 . S
C314 O313 1.208 . S
C315 O320 1.247 . S
C315 O321 1.208 . S
C316 O308 1.315 . S
C316 O311 1.279 . S
C317 O318 1.315 . S
C317 O319 1.279 . S
O318 Cd310 2.223 . S
O318 C317 1.315 . S
O319 Cd309 2.240 . S
O319 C317 1.279 . S
O320 Cd310 2.297 . S
O320 C315 1.247 . S
O321 Cd310 2.439 . S
O321 C315 1.208 . S
O322 Cd323 2.223 . S
O322 C330 1.315 . S
Cd323 O322 2.223 . S
Cd323 O326 2.297 . S
Cd323 O327 2.439 . S
Cd323 O333 2.240 . S
Cd324 O325 2.240 . S
Cd324 O332 2.223 . S
Cd324 O334 2.297 . S
Cd324 O335 2.439 . S
O325 Cd324 2.240 . S
O325 C330 1.279 . S
O326 Cd323 2.297 . S
O326 C328 1.247 . S
O327 Cd323 2.439 . S
O327 C328 1.208 . S
C328 O326 1.247 . S
C328 O327 1.208 . S
C329 O334 1.247 . S
C329 O335 1.208 . S
C330 O322 1.315 . S
C330 O325 1.279 . S
C331 O332 1.315 . S
C331 O333 1.279 . S
O332 Cd324 2.223 . S
O332 C331 1.315 . S
O333 Cd323 2.240 . S
O333 C331 1.279 . S
O334 Cd324 2.297 . S
O334 C329 1.247 . S
O335 Cd324 2.439 . S
O335 C329 1.208 . S
Dy336 O340 2.398 . S
Dy336 O341 2.491 1_556 S
Dy336 O342 2.403 . S
Dy336 O343 2.664 1_655 S
Dy336 O347 2.322 1_655 S
Dy336 O351 2.310 1_656 S
Dy336 O352 2.351 1_546 S
C337 O348 1.185 . S
C337 O349 1.355 . S
C338 O340 1.185 . S
C338 O341 1.355 1_556 S
Dy339 O343 2.310 1_554 S
Dy339 O346 2.351 . S
Dy339 O348 2.398 . S
Dy339 O349 2.491 . S
Dy339 O350 2.403 . S
Dy339 O351 2.664 . S
Dy339 O353 2.326 1_545 S
O340 Dy336 2.398 . S
O340 C338 1.185 . S
O341 Dy336 2.491 1_554 S
O341 C338 1.355 1_554 S
O342 Dy336 2.403 . S
O342 C344 1.254 1_655 S
O343 Dy336 2.664 1_455 S
O343 Dy339 2.310 1_556 S
O343 C344 1.268 . S
C344 O342 1.254 1_455 S
C344 O343 1.268 . S
C345 O350 1.254 . S
C345 O351 1.268 . S
O346 Dy339 2.351 . S
O346 C354 1.257 . S
O347 Dy336 2.322 1_455 S
O347 C354 1.273 1_556 S
O348 C337 1.185 . S
O348 Dy339 2.398 . S
O349 C337 1.355 . S
O349 Dy339 2.491 . S
O350 Dy339 2.403 . S
O350 C345 1.254 . S
O351 Dy336 2.310 1_454 S
O351 Dy339 2.664 . S
O351 C345 1.268 . S
O352 Dy336 2.351 1_564 S
O352 C355 1.249 1_655 S
O353 Dy339 2.326 1_565 S
O353 C355 1.267 . S
C354 O346 1.257 . S
C354 O347 1.273 1_554 S
C355 O352 1.249 1_455 S
C355 O353 1.267 . S
Dy356 O360 2.398 . S
Dy356 O361 2.491 . S
Dy356 O362 2.403 . S
Dy356 O363 2.664 . S
Dy356 O367 2.326 . S
Dy356 O371 2.310 . S
Dy356 O372 2.351 . S
C357 O368 1.185 . S
C357 O369 1.355 . S
C358 O360 1.185 . S
C358 O361 1.355 . S
Dy359 O363 2.310 . S
Dy359 O366 2.351 . S
Dy359 O368 2.398 . S
Dy359 O369 2.491 . S
Dy359 O370 2.403 . S
Dy359 O371 2.664 . S
Dy359 O373 2.326 . S
O360 Dy356 2.398 . S
O360 C358 1.185 . S
O361 Dy356 2.491 . S
O361 C358 1.355 . S
O362 Dy356 2.403 . S
O362 C364 1.254 . S
O363 Dy356 2.664 . S
O363 Dy359 2.310 . S
O363 C364 1.268 . S
C364 O362 1.254 . S
C364 O363 1.268 . S
C365 O370 1.254 . S
C365 O371 1.268 . S
O366 Dy359 2.351 . S
O366 C374 1.249 . S
O367 Dy356 2.326 . S
O367 C374 1.267 . S
O368 C357 1.185 . S
O368 Dy359 2.398 . S
O369 C357 1.355 . S
O369 Dy359 2.491 . S
O370 Dy359 2.403 . S
O370 C365 1.254 . S
O371 Dy356 2.310 . S
O371 Dy359 2.664 . S
O371 C365 1.268 . S
O372 Dy356 2.351 . S
O372 C375 1.249 . S
O373 Dy359 2.326 . S
O373 C375 1.267 . S
C374 O366 1.249 . S
C374 O367 1.267 . S
C375 O372 1.249 . S
C375 O373 1.267 . S
Dy376 O380 2.398 . S
Dy376 O381 2.491 1_545 S
Dy376 O382 2.403 . S
Dy376 O383 2.664 . S
Dy376 O387 2.326 1_545 S
Dy376 O391 2.310 . S
Dy376 O392 2.351 . S
C377 O388 1.185 . S
C377 O389 1.355 . S
C378 O380 1.185 1_565 S
C378 O381 1.355 . S
Dy379 O383 2.310 . S
Dy379 O386 2.351 1_545 S
Dy379 O388 2.398 . S
Dy379 O389 2.491 . S
Dy379 O390 2.403 . S
Dy379 O391 2.664 . S
Dy379 O393 2.326 . S
O380 Dy376 2.398 . S
O380 C378 1.185 1_545 S
O381 Dy376 2.491 1_565 S
O381 C378 1.355 . S
O382 Dy376 2.403 . S
O382 C384 1.254 . S
O383 Dy376 2.664 . S
O383 Dy379 2.310 . S
O383 C384 1.268 . S
C384 O382 1.254 . S
C384 O383 1.268 . S
C385 O390 1.254 . S
C385 O391 1.268 . S
O386 Dy379 2.351 1_565 S
O386 C394 1.249 . S
O387 Dy376 2.326 1_565 S
O387 C394 1.267 . S
O388 C377 1.185 . S
O388 Dy379 2.398 . S
O389 C377 1.355 . S
O389 Dy379 2.491 . S
O390 Dy379 2.403 . S
O390 C385 1.254 . S
O391 Dy376 2.310 . S
O391 Dy379 2.664 . S
O391 C385 1.268 . S
O392 Dy376 2.351 . S
O392 C395 1.249 . S
O393 Dy379 2.326 . S
O393 C395 1.267 . S
C394 O386 1.249 . S
C394 O387 1.267 . S
C395 O392 1.249 . S
C395 O393 1.267 . S
Dy396 O400 2.398 . S
Dy396 O401 2.491 . S
Dy396 O402 2.403 . S
Dy396 O403 2.664 . S
Dy396 O407 2.326 . S
Dy396 O411 2.310 . S
Dy396 O412 2.351 . S
C397 O408 1.185 . S
C397 O409 1.355 . S
C398 O400 1.185 . S
C398 O401 1.355 . S
Dy399 O403 2.310 . S
Dy399 O406 2.351 . S
Dy399 O408 2.398 . S
Dy399 O409 2.491 . S
Dy399 O410 2.403 . S
Dy399 O411 2.664 . S
Dy399 O413 2.326 . S
O400 Dy396 2.398 . S
O400 C398 1.185 . S
O401 Dy396 2.491 . S
O401 C398 1.355 . S
O402 Dy396 2.403 . S
O402 C404 1.254 . S
O403 Dy396 2.664 . S
O403 Dy399 2.310 . S
O403 C404 1.268 . S
C404 O402 1.254 . S
C404 O403 1.268 . S
C405 O410 1.254 . S
C405 O411 1.268 . S
O406 Dy399 2.351 . S
O406 C414 1.249 . S
O407 Dy396 2.326 . S
O407 C414 1.267 . S
O408 C397 1.185 . S
O408 Dy399 2.398 . S
O409 C397 1.355 . S
O409 Dy399 2.491 . S
O410 Dy399 2.403 . S
O410 C405 1.254 . S
O411 Dy396 2.310 . S
O411 Dy399 2.664 . S
O411 C405 1.268 . S
O412 Dy396 2.351 . S
O412 C415 1.249 . S
O413 Dy399 2.326 . S
O413 C415 1.267 . S
C414 O406 1.249 . S
C414 O407 1.267 . S
C415 O412 1.249 . S
C415 O413 1.267 . S
Dy416 O420 2.398 . S
Dy416 O421 2.491 1_455 S
Dy416 O422 2.403 . S
Dy416 O423 2.664 . S
Dy416 O427 2.326 . S
Dy416 O431 2.310 1_455 S
Dy416 O432 2.351 1_545 S
C417 O428 1.185 . S
C417 O429 1.355 . S
C418 O420 1.185 1_655 S
C418 O421 1.355 . S
Dy419 O423 2.310 . S
Dy419 O426 2.351 . S
Dy419 O428 2.398 . S
Dy419 O429 2.491 . S
Dy419 O430 2.403 1_455 S
Dy419 O431 2.664 1_455 S
Dy419 O433 2.326 1_545 S
O420 Dy416 2.398 . S
O420 C418 1.185 1_455 S
O421 Dy416 2.491 1_655 S
O421 C418 1.355 . S
O422 Dy416 2.403 . S
O422 C424 1.254 . S
O423 Dy416 2.664 . S
O423 Dy419 2.310 . S
O423 C424 1.268 . S
C424 O422 1.254 . S
C424 O423 1.268 . S
C425 O430 1.254 . S
C425 O431 1.268 . S
O426 Dy419 2.351 . S
O426 C434 1.249 . S
O427 Dy416 2.326 . S
O427 C434 1.267 . S
O428 C417 1.185 . S
O428 Dy419 2.398 . S
O429 C417 1.355 . S
O429 Dy419 2.491 . S
O430 Dy419 2.403 1_655 S
O430 C425 1.254 . S
O431 Dy416 2.310 1_655 S
O431 Dy419 2.664 1_655 S
O431 C425 1.268 . S
O432 Dy416 2.351 1_565 S
O432 C435 1.249 . S
O433 Dy419 2.326 1_565 S
O433 C435 1.267 . S
C434 O426 1.249 . S
C434 O427 1.267 . S
C435 O432 1.249 . S
C435 O433 1.267 . S
Dy436 O440 2.398 . S
Dy436 O441 2.491 . S
Dy436 O442 2.403 . S
Dy436 O443 2.664 . S
Dy436 O447 2.326 . S
Dy436 O451 2.310 . S
Dy436 O452 2.351 . S
C437 O448 1.185 . S
C437 O449 1.355 . S
C438 O440 1.185 . S
C438 O441 1.355 . S
Dy439 O443 2.310 . S
Dy439 O446 2.351 . S
Dy439 O448 2.398 . S
Dy439 O449 2.491 . S
Dy439 O450 2.403 . S
Dy439 O451 2.664 . S
Dy439 O453 2.326 . S
O440 Dy436 2.398 . S
O440 C438 1.185 . S
O441 Dy436 2.491 . S
O441 C438 1.355 . S
O442 Dy436 2.403 . S
O442 C444 1.254 . S
O443 Dy436 2.664 . S
O443 Dy439 2.310 . S
O443 C444 1.268 . S
C444 O442 1.254 . S
C444 O443 1.268 . S
C445 O450 1.254 . S
C445 O451 1.268 . S
O446 Dy439 2.351 . S
O446 C454 1.249 . S
O447 Dy436 2.326 . S
O447 C454 1.267 . S
O448 C437 1.185 . S
O448 Dy439 2.398 . S
O449 C437 1.355 . S
O449 Dy439 2.491 . S
O450 Dy439 2.403 . S
O450 C445 1.254 . S
O451 Dy436 2.310 . S
O451 Dy439 2.664 . S
O451 C445 1.268 . S
O452 Dy436 2.351 . S
O452 C455 1.249 . S
O453 Dy439 2.326 . S
O453 C455 1.267 . S
C454 O446 1.249 . S
C454 O447 1.267 . S
C455 O452 1.249 . S
C455 O453 1.267 . S
Dy456 O460 2.398 1_545 S
Dy456 O461 2.491 . S
Dy456 O462 2.403 1_545 S
Dy456 O463 2.664 1_544 S
Dy456 O467 2.326 1_545 S
Dy456 O471 2.310 . S
Dy456 O472 2.351 . S
C457 O468 1.185 . S
C457 O469 1.355 . S
C458 O460 1.185 . S
C458 O461 1.355 1_565 S
Dy459 O463 2.310 1_545 S
Dy459 O466 2.351 . S
Dy459 O468 2.398 . S
Dy459 O469 2.491 . S
Dy459 O470 2.403 . S
Dy459 O471 2.664 1_556 S
Dy459 O473 2.326 . S
O460 Dy456 2.398 1_565 S
O460 C458 1.185 . S
O461 Dy456 2.491 . S
O461 C458 1.355 1_545 S
O462 Dy456 2.403 1_565 S
O462 C464 1.254 . S
O463 Dy456 2.664 1_566 S
O463 Dy459 2.310 1_565 S
O463 C464 1.268 1_556 S
C464 O462 1.254 . S
C464 O463 1.268 1_554 S
C465 O470 1.254 1_554 S
C465 O471 1.268 . S
O466 Dy459 2.351 . S
O466 C474 1.249 1_546 S
O467 Dy456 2.326 1_565 S
O467 C474 1.267 . S
O468 C457 1.185 . S
O468 Dy459 2.398 . S
O469 C457 1.355 . S
O469 Dy459 2.491 . S
O470 Dy459 2.403 . S
O470 C465 1.254 1_556 S
O471 Dy456 2.310 . S
O471 Dy459 2.664 1_554 S
O471 C465 1.268 . S
O472 Dy456 2.351 . S
O472 C475 1.249 . S
O473 Dy459 2.326 . S
O473 C475 1.267 1_556 S
C474 O466 1.249 1_564 S
C474 O467 1.267 . S
C475 O472 1.249 . S
C475 O473 1.267 1_554 S
Dy476 O480 2.398 . S
Dy476 O481 2.491 . S
Dy476 O482 2.403 . S
Dy476 O483 2.664 . S
Dy476 O487 2.326 . S
Dy476 O491 2.310 . S
Dy476 O492 2.351 . S
C477 O488 1.185 . S
C477 O489 1.355 . S
C478 O480 1.185 . S
C478 O481 1.355 . S
Dy479 O483 2.310 . S
Dy479 O486 2.351 . S
Dy479 O488 2.398 . S
Dy479 O489 2.491 . S
Dy479 O490 2.403 . S
Dy479 O491 2.664 . S
Dy479 O493 2.326 . S
O480 Dy476 2.398 . S
O480 C478 1.185 . S
O481 Dy476 2.491 . S
O481 C478 1.355 . S
O482 Dy476 2.403 . S
O482 C484 1.254 . S
O483 Dy476 2.664 . S
O483 Dy479 2.310 . S
O483 C484 1.268 . S
C484 O482 1.254 . S
C484 O483 1.268 . S
C485 O490 1.254 . S
C485 O491 1.268 . S
O486 Dy479 2.351 . S
O486 C494 1.249 . S
O487 Dy476 2.326 . S
O487 C494 1.267 . S
O488 C477 1.185 . S
O488 Dy479 2.398 . S
O489 C477 1.355 . S
O489 Dy479 2.491 . S
O490 Dy479 2.403 . S
O490 C485 1.254 . S
O491 Dy476 2.310 . S
O491 Dy479 2.664 . S
O491 C485 1.268 . S
O492 Dy476 2.351 . S
O492 C495 1.249 . S
O493 Dy479 2.326 . S
O493 C495 1.267 . S
C494 O486 1.249 . S
C494 O487 1.267 . S
C495 O492 1.249 . S
C495 O493 1.267 . S
Dy496 O500 2.398 . S
Dy496 O501 2.491 . S
Dy496 O502 2.403 . S
Dy496 O503 2.664 1_556 S
Dy496 O507 2.326 . S
Dy496 O511 2.310 1_556 S
Dy496 O512 2.351 1_556 S
C497 O508 1.185 . S
C497 O509 1.355 . S
C498 O500 1.185 . S
C498 O501 1.355 . S
Dy499 O503 2.310 . S
Dy499 O506 2.351 . S
Dy499 O508 2.398 . S
Dy499 O509 2.491 . S
Dy499 O510 2.403 . S
Dy499 O511 2.664 . S
Dy499 O513 2.326 . S
O500 Dy496 2.398 . S
O500 C498 1.185 . S
O501 Dy496 2.491 . S
O501 C498 1.355 . S
O502 Dy496 2.403 . S
O502 C504 1.236 1_556 S
O503 Dy496 2.664 1_554 S
O503 Dy499 2.310 . S
O503 C504 1.281 . S
C504 O502 1.236 1_554 S
C504 O503 1.281 . S
C505 O510 1.254 . S
C505 O511 1.268 . S
O506 Dy499 2.351 . S
O506 C514 1.249 1_554 S
O507 Dy496 2.326 . S
O507 C514 1.267 . S
O508 C497 1.185 . S
O508 Dy499 2.398 . S
O509 C497 1.355 . S
O509 Dy499 2.491 . S
O510 Dy499 2.403 . S
O510 C505 1.254 . S
O511 Dy496 2.310 1_554 S
O511 Dy499 2.664 . S
O511 C505 1.268 . S
O512 Dy496 2.351 1_554 S
O512 C515 1.249 . S
O513 Dy499 2.326 . S
O513 C515 1.267 . S
C514 O506 1.249 1_556 S
C514 O507 1.267 . S
C515 O512 1.249 . S
C515 O513 1.267 . S
Dy516 O520 2.398 . S
Dy516 O521 2.491 . S
Dy516 O522 2.403 . S
Dy516 O523 2.664 . S
Dy516 O527 2.326 . S
Dy516 O531 2.310 . S
Dy516 O532 2.351 . S
C517 O528 1.185 . S
C517 O529 1.355 . S
C518 O520 1.185 . S
C518 O521 1.355 . S
Dy519 O523 2.310 . S
Dy519 O526 2.351 . S
Dy519 O528 2.398 . S
Dy519 O529 2.491 . S
Dy519 O530 2.403 . S
Dy519 O531 2.664 . S
Dy519 O533 2.326 . S
O520 Dy516 2.398 . S
O520 C518 1.185 . S
O521 Dy516 2.491 . S
O521 C518 1.355 . S
O522 Dy516 2.403 . S
O522 C524 1.254 . S
O523 Dy516 2.664 . S
O523 Dy519 2.310 . S
O523 C524 1.268 . S
C524 O522 1.254 . S
C524 O523 1.268 . S
C525 O530 1.254 . S
C525 O531 1.268 . S
O526 Dy519 2.351 . S
O526 C534 1.249 . S
O527 Dy516 2.326 . S
O527 C534 1.267 . S
O528 C517 1.185 . S
O528 Dy519 2.398 . S
O529 C517 1.355 . S
O529 Dy519 2.491 . S
O530 Dy519 2.403 . S
O530 C525 1.254 . S
O531 Dy516 2.310 . S
O531 Dy519 2.664 . S
O531 C525 1.268 . S
O532 Dy516 2.351 . S
O532 C535 1.249 . S
O533 Dy519 2.326 . S
O533 C535 1.267 . S
C534 O526 1.249 . S
C534 O527 1.267 . S
C535 O532 1.249 . S
C535 O533 1.267 . S
Dy536 O540 2.398 1_455 S
Dy536 O541 2.491 1_455 S
Dy536 O542 2.403 . S
Dy536 O543 2.664 . S
Dy536 O547 2.326 1_455 S
Dy536 O551 2.310 . S
Dy536 O552 2.351 . S
C537 O548 1.185 . S
C537 O549 1.355 . S
C538 O540 1.185 . S
C538 O541 1.355 . S
Dy539 O543 2.310 . S
Dy539 O546 2.351 1_455 S
Dy539 O548 2.398 . S
Dy539 O549 2.491 . S
Dy539 O550 2.403 . S
Dy539 O551 2.664 . S
Dy539 O553 2.326 . S
O540 Dy536 2.398 1_655 S
O540 C538 1.185 . S
O541 Dy536 2.491 1_655 S
O541 C538 1.355 . S
O542 Dy536 2.403 . S
O542 C544 1.254 . S
O543 Dy536 2.664 . S
O543 Dy539 2.310 . S
O543 C544 1.268 . S
C544 O542 1.254 . S
C544 O543 1.268 . S
C545 O550 1.254 . S
C545 O551 1.268 . S
O546 Dy539 2.351 1_655 S
O546 C554 1.249 . S
O547 Dy536 2.326 1_655 S
O547 C554 1.267 . S
O548 C537 1.185 . S
O548 Dy539 2.398 . S
O549 C537 1.355 . S
O549 Dy539 2.491 . S
O550 Dy539 2.403 . S
O550 C545 1.254 . S
O551 Dy536 2.310 . S
O551 Dy539 2.664 . S
O551 C545 1.268 . S
O552 Dy536 2.351 . S
O552 C555 1.249 . S
O553 Dy539 2.326 . S
O553 C555 1.267 . S
C554 O546 1.249 . S
C554 O547 1.267 . S
C555 O552 1.249 . S
C555 O553 1.267 . S
Dy556 O560 2.398 . S
Dy556 O561 2.491 . S
Dy556 O562 2.403 . S
Dy556 O563 2.664 . S
Dy556 O567 2.326 . S
Dy556 O571 2.310 . S
Dy556 O572 2.351 . S
C557 O568 1.185 . S
C557 O569 1.355 . S
C558 O560 1.185 . S
C558 O561 1.355 . S
Dy559 O563 2.310 . S
Dy559 O566 2.351 . S
Dy559 O568 2.398 . S
Dy559 O569 2.491 . S
Dy559 O570 2.403 . S
Dy559 O571 2.664 . S
Dy559 O573 2.326 . S
O560 Dy556 2.398 . S
O560 C558 1.185 . S
O561 Dy556 2.491 . S
O561 C558 1.355 . S
O562 Dy556 2.403 . S
O562 C564 1.254 . S
O563 Dy556 2.664 . S
O563 Dy559 2.310 . S
O563 C564 1.268 . S
C564 O562 1.254 . S
C564 O563 1.268 . S
C565 O570 1.254 . S
C565 O571 1.268 . S
O566 Dy559 2.351 . S
O566 C574 1.249 . S
O567 Dy556 2.326 . S
O567 C574 1.267 . S
O568 C557 1.185 . S
O568 Dy559 2.398 . S
O569 C557 1.355 . S
O569 Dy559 2.491 . S
O570 Dy559 2.403 . S
O570 C565 1.254 . S
O571 Dy556 2.310 . S
O571 Dy559 2.664 . S
O571 C565 1.268 . S
O572 Dy556 2.351 . S
O572 C575 1.249 . S
O573 Dy559 2.326 . S
O573 C575 1.267 . S
C574 O566 1.249 . S
C574 O567 1.267 . S
C575 O572 1.249 . S
C575 O573 1.267 . S
Dy576 O580 2.398 . S
Dy576 O581 2.491 . S
Dy576 O582 2.403 . S
Dy576 O583 2.664 . S
Dy576 O587 2.326 . S
Dy576 O591 2.310 . S
Dy576 O592 2.351 . S
C577 O588 1.185 . S
C577 O589 1.355 . S
C578 O580 1.185 . S
C578 O581 1.355 . S
Dy579 O583 2.310 . S
Dy579 O586 2.351 . S
Dy579 O588 2.398 . S
Dy579 O589 2.491 . S
Dy579 O590 2.403 . S
Dy579 O591 2.664 . S
Dy579 O593 2.326 . S
O580 Dy576 2.398 . S
O580 C578 1.185 . S
O581 Dy576 2.491 . S
O581 C578 1.355 . S
O582 Dy576 2.403 . S
O582 C584 1.254 . S
O583 Dy576 2.664 . S
O583 Dy579 2.310 . S
O583 C584 1.268 . S
C584 O582 1.254 . S
C584 O583 1.268 . S
C585 O590 1.254 . S
C585 O591 1.268 . S
O586 Dy579 2.351 . S
O586 C594 1.249 . S
O587 Dy576 2.326 . S
O587 C594 1.267 . S
O588 C577 1.185 . S
O588 Dy579 2.398 . S
O589 C577 1.355 . S
O589 Dy579 2.491 . S
O590 Dy579 2.403 . S
O590 C585 1.254 . S
O591 Dy576 2.310 . S
O591 Dy579 2.664 . S
O591 C585 1.268 . S
O592 Dy576 2.351 . S
O592 C595 1.249 . S
O593 Dy579 2.326 . S
O593 C595 1.267 . S
C594 O586 1.249 . S
C594 O587 1.267 . S
C595 O592 1.249 . S
C595 O593 1.267 . S
Dy596 O600 2.398 . S
Dy596 O601 2.491 . S
Dy596 O602 2.403 . S
Dy596 O603 2.664 . S
Dy596 O607 2.326 . S
Dy596 O611 2.310 . S
Dy596 O612 2.351 . S
C597 O608 1.185 . S
C597 O609 1.355 . S
C598 O600 1.185 . S
C598 O601 1.355 . S
Dy599 O603 2.310 . S
Dy599 O606 2.351 . S
Dy599 O608 2.398 . S
Dy599 O609 2.491 . S
Dy599 O610 2.403 . S
Dy599 O611 2.664 . S
Dy599 O613 2.326 . S
O600 Dy596 2.398 . S
O600 C598 1.185 . S
O601 Dy596 2.491 . S
O601 C598 1.355 . S
O602 Dy596 2.403 . S
O602 C604 1.254 . S
O603 Dy596 2.664 . S
O603 Dy599 2.310 . S
O603 C604 1.268 . S
C604 O602 1.254 . S
C604 O603 1.268 . S
C605 O610 1.254 . S
C605 O611 1.268 . S
O606 Dy599 2.351 . S
O606 C614 1.249 . S
O607 Dy596 2.326 . S
O607 C614 1.267 . S
O608 C597 1.185 . S
O608 Dy599 2.398 . S
O609 C597 1.355 . S
O609 Dy599 2.491 . S
O610 Dy599 2.403 . S
O610 C605 1.254 . S
O611 Dy596 2.310 . S
O611 Dy599 2.664 . S
O611 C605 1.268 . S
O612 Dy596 2.351 . S
O612 C615 1.249 . S
O613 Dy599 2.326 . S
O613 C615 1.267 . S
C614 O606 1.249 . S
C614 O607 1.267 . S
C615 O612 1.249 . S
C615 O613 1.267 . S
Dy616 O620 2.398 . S
Dy616 O621 2.491 . S
Dy616 O622 2.403 . S
Dy616 O623 2.664 . S
Dy616 O627 2.326 . S
Dy616 O631 2.310 . S
Dy616 O632 2.351 . S
C617 O628 1.185 . S
C617 O629 1.355 . S
C618 O620 1.185 . S
C618 O621 1.355 . S
Dy619 O623 2.310 . S
Dy619 O626 2.351 . S
Dy619 O628 2.398 . S
Dy619 O629 2.491 . S
Dy619 O630 2.403 . S
Dy619 O631 2.664 . S
Dy619 O633 2.326 . S
O620 Dy616 2.398 . S
O620 C618 1.185 . S
O621 Dy616 2.491 . S
O621 C618 1.355 . S
O622 Dy616 2.403 . S
O622 C624 1.254 . S
O623 Dy616 2.664 . S
O623 Dy619 2.310 . S
O623 C624 1.268 . S
C624 O622 1.254 . S
C624 O623 1.268 . S
C625 O630 1.254 . S
C625 O631 1.268 . S
O626 Dy619 2.351 . S
O626 C634 1.249 . S
O627 Dy616 2.326 . S
O627 C634 1.267 . S
O628 C617 1.185 . S
O628 Dy619 2.398 . S
O629 C617 1.355 . S
O629 Dy619 2.491 . S
O630 Dy619 2.403 . S
O630 C625 1.254 . S
O631 Dy616 2.310 . S
O631 Dy619 2.664 . S
O631 C625 1.268 . S
O632 Dy616 2.351 . S
O632 C635 1.249 . S
O633 Dy619 2.326 . S
O633 C635 1.267 . S
C634 O626 1.249 . S
C634 O627 1.267 . S
C635 O632 1.249 . S
C635 O633 1.267 . S
Dy636 O640 2.398 1_554 S
Dy636 O641 2.491 . S
Dy636 O642 2.403 1_554 S
Dy636 O643 2.664 1_554 S
Dy636 O647 2.330 . S
Dy636 O651 2.310 . S
Dy636 O652 2.351 . S
C637 O648 1.185 . S
C637 O649 1.355 . S
C638 O640 1.185 1_554 S
C638 O641 1.355 . S
Dy639 O643 2.310 1_654 S
Dy639 O646 2.351 . S
Dy639 O648 2.398 . S
Dy639 O649 2.491 . S
Dy639 O650 2.403 . S
Dy639 O651 2.664 1_655 S
Dy639 O653 2.326 1_655 S
O640 Dy636 2.398 1_556 S
O640 C638 1.185 1_556 S
O641 Dy636 2.491 . S
O641 C638 1.355 . S
O642 Dy636 2.403 1_556 S
O642 C644 1.254 . S
O643 Dy636 2.664 1_556 S
O643 Dy639 2.310 1_456 S
O643 C644 1.268 . S
C644 O642 1.254 . S
C644 O643 1.268 . S
C645 O650 1.254 1_455 S
C645 O651 1.268 . S
O646 Dy639 2.351 . S
O646 C654 1.249 1_655 S
O647 Dy636 2.330 . S
O647 C654 1.278 . S
O648 C637 1.185 . S
O648 Dy639 2.398 . S
O649 C637 1.355 . S
O649 Dy639 2.491 . S
O650 Dy639 2.403 . S
O650 C645 1.254 1_655 S
O651 Dy636 2.310 . S
O651 Dy639 2.664 1_455 S
O651 C645 1.268 . S
O652 Dy636 2.351 . S
O652 C655 1.249 . S
O653 Dy639 2.326 1_455 S
O653 C655 1.267 . S
C654 O646 1.249 1_455 S
C654 O647 1.278 . S
C655 O652 1.249 . S
C655 O653 1.267 . S
C656 C657 1.387 . S
C656 H660 0.950 . S
C656 C665 1.390 1_655 S
C657 C656 1.387 . S
C657 C659 1.387 1_655 S
H658 C665 0.950 . S
C659 C657 1.387 1_455 S
C659 C661 1.390 . S
C659 H663 0.950 . S
H660 C656 0.950 . S
C661 C659 1.390 . S
C661 C662 1.387 . S
C661 H664 0.950 1_556 S
C662 C661 1.387 . S
C662 C665 1.387 . S
H663 C659 0.950 . S
H664 C661 0.950 1_554 S
C665 C656 1.390 1_455 S
C665 H658 0.950 . S
C665 C662 1.387 . S
C666 C667 1.387 . S
C666 H670 0.950 . S
C666 C675 1.390 . S
C667 C666 1.387 . S
C667 C669 1.387 . S
H668 C675 0.950 . S
C669 C667 1.387 . S
C669 C671 1.390 . S
C669 H673 0.950 . S
H670 C666 0.950 . S
C671 C669 1.390 . S
C671 C672 1.387 . S
C671 H674 0.950 . S
C672 C671 1.387 . S
C672 C675 1.387 . S
H673 C669 0.950 . S
H674 C671 0.950 . S
C675 C666 1.390 . S
C675 H668 0.950 . S
C675 C672 1.387 . S
C676 C677 1.387 . S
C676 H680 0.950 . S
C676 C685 1.390 . S
C677 C676 1.387 . S
C677 C679 1.387 . S
H678 C685 0.950 . S
C679 C677 1.387 . S
C679 C681 1.390 . S
C679 H683 0.950 . S
H680 C676 0.950 . S
C681 C679 1.390 . S
C681 C682 1.387 . S
C681 H684 0.950 . S
C682 C681 1.387 . S
C682 C685 1.387 . S
H683 C679 0.950 . S
H684 C681 0.950 . S
C685 C676 1.390 . S
C685 H678 0.950 . S
C685 C682 1.387 . S
C686 C687 1.387 . S
C686 H690 0.950 . S
C686 C695 1.390 . S
C687 C686 1.387 . S
C687 C689 1.387 . S
H688 C695 0.950 . S
C689 C687 1.387 . S
C689 C691 1.390 . S
C689 H693 0.950 . S
H690 C686 0.950 . S
C691 C689 1.390 . S
C691 C692 1.387 . S
C691 H694 0.950 . S
C692 C691 1.387 . S
C692 C695 1.387 . S
H693 C689 0.950 . S
H694 C691 0.950 . S
C695 C686 1.390 . S
C695 H688 0.950 . S
C695 C692 1.387 . S
C696 C697 1.387 . S
C696 H700 0.950 . S
C696 C705 1.390 . S
C697 C696 1.387 . S
C697 C699 1.387 . S
H698 C705 0.950 . S
C699 C697 1.387 . S
C699 C701 1.390 . S
C699 H703 0.950 1_455 S
H700 C696 0.950 . S
C701 C699 1.390 . S
C701 C702 1.387 . S
C701 H704 0.950 1_455 S
C702 C701 1.387 . S
C702 C705 1.387 . S
H703 C699 0.950 1_655 S
H704 C701 0.950 1_655 S
C705 C696 1.390 . S
C705 H698 0.950 . S
C705 C702 1.387 . S
C706 C707 1.387 . S
C706 H710 0.950 . S
C706 C715 1.390 . S
C707 C706 1.387 . S
C707 C709 1.387 . S
H708 C715 0.950 . S
C709 C707 1.387 . S
C709 C711 1.390 . S
C709 H713 0.950 . S
H710 C706 0.950 . S
C711 C709 1.390 . S
C711 C712 1.387 . S
C711 H714 0.950 . S
C712 C711 1.387 . S
C712 C715 1.387 . S
H713 C709 0.950 . S
H714 C711 0.950 . S
C715 C706 1.390 . S
C715 H708 0.950 . S
C715 C712 1.387 . S
C716 C717 1.387 . S
C716 H720 0.950 . S
C716 C725 1.390 . S
C717 C716 1.387 . S
C717 C719 1.387 . S
H718 C725 0.950 . S
C719 C717 1.387 . S
C719 C721 1.390 . S
C719 H723 0.950 . S
H720 C716 0.950 . S
C721 C719 1.390 . S
C721 C722 1.387 . S
C721 H724 0.950 . S
C722 C721 1.387 . S
C722 C725 1.387 . S
H723 C719 0.950 . S
H724 C721 0.950 . S
C725 C716 1.390 . S
C725 H718 0.950 . S
C725 C722 1.387 . S
C726 C727 1.387 . S
C726 H730 0.950 . S
C726 C735 1.390 . S
C727 C726 1.387 . S
C727 C729 1.387 . S
H728 C735 0.950 . S
C729 C727 1.387 . S
C729 C731 1.390 . S
C729 H733 0.950 . S
H730 C726 0.950 . S
C731 C729 1.390 . S
C731 C732 1.387 . S
C731 H734 0.950 . S
C732 C731 1.387 . S
C732 C735 1.387 . S
H733 C729 0.950 . S
H734 C731 0.950 . S
C735 C726 1.390 . S
C735 H728 0.950 . S
C735 C732 1.387 . S
C736 C737 1.387 . S
C736 H740 0.950 . S
C736 C745 1.390 . S
C737 C736 1.387 . S
C737 C739 1.387 . S
H738 C745 0.950 . S
C739 C737 1.387 . S
C739 C741 1.390 . S
C739 H743 0.950 1_545 S
H740 C736 0.950 . S
C741 C739 1.390 . S
C741 C742 1.387 . S
C741 H744 0.933 1_545 S
C742 C741 1.387 . S
C742 C745 1.387 . S
H743 C739 0.950 1_565 S
H744 C741 0.933 1_565 S
C745 C736 1.390 . S
C745 H738 0.950 . S
C745 C742 1.387 . S
C746 C747 1.387 . S
C746 H750 0.950 . S
C746 C755 1.390 . S
C747 C746 1.387 . S
C747 C749 1.387 . S
H748 C755 0.950 . S
C749 C747 1.387 . S
C749 C751 1.390 . S
C749 H753 0.950 . S
H750 C746 0.950 . S
C751 C749 1.390 . S
C751 C752 1.387 . S
C751 H754 0.950 . S
C752 C751 1.387 . S
C752 C755 1.387 . S
H753 C749 0.950 . S
H754 C751 0.950 . S
C755 C746 1.390 . S
C755 H748 0.950 . S
C755 C752 1.387 . S
C756 C757 1.387 1_565 S
C756 H760 0.950 . S
C756 C765 1.390 . S
C757 C756 1.387 1_545 S
C757 C759 1.387 . S
H758 C765 0.950 . S
C759 C757 1.387 . S
C759 C761 1.390 . S
C759 H763 0.950 . S
H760 C756 0.950 . S
C761 C759 1.390 . S
C761 C762 1.387 . S
C761 H764 0.950 . S
C762 C761 1.387 . S
C762 C765 1.387 1_545 S
H763 C759 0.950 . S
H764 C761 0.950 . S
C765 C756 1.390 . S
C765 H758 0.950 . S
C765 C762 1.387 1_565 S
C766 C767 1.387 . S
C766 H770 0.950 . S
C766 C775 1.390 . S
C767 C766 1.387 . S
C767 C769 1.387 . S
H768 C775 0.950 . S
C769 C767 1.387 . S
C769 C771 1.390 . S
C769 H773 0.950 . S
H770 C766 0.950 . S
C771 C769 1.390 . S
C771 C772 1.387 . S
C771 H774 0.950 . S
C772 C771 1.387 . S
C772 C775 1.387 . S
H773 C769 0.950 . S
H774 C771 0.950 . S
C775 C766 1.390 . S
C775 H768 0.950 . S
C775 C772 1.387 . S
C776 C777 1.387 . S
C776 H780 0.950 . S
C776 C785 1.390 . S
C777 C776 1.387 . S
C777 C779 1.387 . S
H778 C785 0.950 . S
C779 C777 1.387 . S
C779 C781 1.390 . S
C779 H783 0.950 1_545 S
H780 C776 0.950 . S
C781 C779 1.390 . S
C781 C782 1.387 . S
C781 H784 0.950 1_545 S
C782 C781 1.387 . S
C782 C785 1.387 . S
H783 C779 0.950 1_565 S
H784 C781 0.950 1_565 S
C785 C776 1.390 . S
C785 H778 0.950 . S
C785 C782 1.387 . S
C786 C787 1.387 . S
C786 H790 0.950 . S
C786 C795 1.390 . S
C787 C786 1.387 . S
C787 C789 1.387 . S
H788 C795 0.950 . S
C789 C787 1.387 . S
C789 C791 1.390 . S
C789 H793 0.950 . S
H790 C786 0.950 . S
C791 C789 1.390 . S
C791 C792 1.387 . S
C791 H794 0.950 . S
C792 C791 1.387 . S
C792 C795 1.387 . S
H793 C789 0.950 . S
H794 C791 0.950 . S
C795 C786 1.390 . S
C795 H788 0.950 . S
C795 C792 1.387 . S
C796 C797 1.387 . S
C796 H800 0.950 . S
C796 C805 1.390 . S
C797 C796 1.387 . S
C797 C799 1.387 . S
H798 C805 0.950 . S
C799 C797 1.387 . S
C799 C801 1.390 . S
C799 H803 0.950 1_545 S
H800 C796 0.950 . S
C801 C799 1.390 . S
C801 C802 1.387 . S
C801 H804 0.950 . S
C802 C801 1.387 . S
C802 C805 1.387 . S
H803 C799 0.950 1_565 S
H804 C801 0.950 . S
C805 C796 1.390 . S
C805 H798 0.950 . S
C805 C802 1.387 . S
C806 C807 1.387 . S
C806 H810 0.950 . S
C806 C815 1.390 . S
C807 C806 1.387 . S
C807 C809 1.387 . S
H808 C815 0.950 . S
C809 C807 1.387 . S
C809 C811 1.390 . S
C809 H813 0.950 . S
H810 C806 0.950 . S
C811 C809 1.390 . S
C811 C812 1.387 . S
C811 H814 0.950 . S
C812 C811 1.387 . S
C812 C815 1.387 . S
H813 C809 0.950 . S
H814 C811 0.950 . S
C815 C806 1.390 . S
C815 H808 0.950 . S
C815 C812 1.387 . S
C816 C817 1.387 . S
C816 H820 0.950 . S
C816 C825 1.390 . S
C817 C816 1.387 . S
C817 C819 1.387 . S
H818 C825 0.950 . S
C819 C817 1.387 . S
C819 C821 1.390 . S
C819 H823 0.950 1_554 S
H820 C816 0.950 . S
C821 C819 1.390 . S
C821 C822 1.387 . S
C821 H824 0.950 1_564 S
C822 C821 1.387 . S
C822 C825 1.387 . S
H823 C819 0.950 1_556 S
H824 C821 0.950 1_546 S
C825 C816 1.390 . S
C825 H818 0.950 . S
C825 C822 1.387 . S
C826 C827 1.387 1_556 S
C826 H830 0.950 . S
C826 C835 1.390 . S
C827 C826 1.387 1_554 S
C827 C829 1.387 . S
H828 C835 0.950 . S
C829 C827 1.387 . S
C829 C831 1.390 . S
C829 H833 0.950 . S
H830 C826 0.950 . S
C831 C829 1.390 . S
C831 C832 1.387 . S
C831 H834 0.950 . S
C832 C831 1.387 . S
C832 C835 1.387 1_554 S
H833 C829 0.950 . S
H834 C831 0.950 . S
C835 C826 1.390 . S
C835 H828 0.950 . S
C835 C832 1.387 1_556 S
C836 C837 1.387 . S
C836 H840 0.950 . S
C836 C845 1.390 . S
C837 C836 1.387 . S
C837 C839 1.387 . S
H838 C845 0.950 . S
C839 C837 1.387 . S
C839 C841 1.390 . S
C839 H843 0.950 . S
H840 C836 0.950 . S
C841 C839 1.390 . S
C841 C842 1.387 . S
C841 H844 0.950 . S
C842 C841 1.387 . S
C842 C845 1.387 . S
H843 C839 0.950 . S
H844 C841 0.950 . S
C845 C836 1.390 . S
C845 H838 0.950 . S
C845 C842 1.387 . S
C846 C847 1.387 . S
C846 H850 0.950 . S
C846 C855 1.390 . S
C847 C846 1.387 . S
C847 C849 1.387 . S
H848 C855 0.950 . S
C849 C847 1.387 . S
C849 C851 1.390 . S
C849 H853 0.950 . S
H850 C846 0.950 . S
C851 C849 1.390 . S
C851 C852 1.387 . S
C851 H854 0.950 . S
C852 C851 1.387 . S
C852 C855 1.387 . S
H853 C849 0.950 . S
H854 C851 0.950 . S
C855 C846 1.390 . S
C855 H848 0.950 . S
C855 C852 1.387 . S
C856 C857 1.387 . S
C856 H860 0.950 . S
C856 C865 1.390 . S
C857 C856 1.387 . S
C857 C859 1.387 . S
H858 C865 0.950 . S
C859 C857 1.387 . S
C859 C861 1.390 . S
C859 H863 0.950 . S
H860 C856 0.950 . S
C861 C859 1.390 . S
C861 C862 1.387 . S
C861 H864 0.950 . S
C862 C861 1.387 . S
C862 C865 1.387 . S
H863 C859 0.950 . S
H864 C861 0.950 . S
C865 C856 1.390 . S
C865 H858 0.950 . S
C865 C862 1.387 . S
C866 C867 1.387 . S
C866 H870 0.950 . S
C866 C875 1.390 . S
C867 C866 1.387 . S
C867 C869 1.387 . S
H868 C875 0.950 . S
C869 C867 1.387 . S
C869 C871 1.390 . S
C869 H873 0.950 . S
H870 C866 0.950 . S
C871 C869 1.390 . S
C871 C872 1.387 . S
C871 H874 0.950 . S
C872 C871 1.387 . S
C872 C875 1.387 . S
H873 C869 0.950 . S
H874 C871 0.950 . S
C875 C866 1.390 . S
C875 H868 0.950 . S
C875 C872 1.387 . S
C876 C877 1.387 . S
C876 H880 0.950 . S
C876 C885 1.390 . S
C877 C876 1.387 . S
C877 C879 1.387 . S
H878 C885 0.950 . S
C879 C877 1.387 . S
C879 C881 1.390 . S
C879 H883 0.950 . S
H880 C876 0.950 . S
C881 C879 1.390 . S
C881 C882 1.387 . S
C881 H884 0.950 . S
C882 C881 1.387 . S
C882 C885 1.387 . S
H883 C879 0.950 . S
H884 C881 0.950 . S
C885 C876 1.390 . S
C885 H878 0.950 . S
C885 C882 1.387 . S
C886 C887 1.387 . S
C886 H890 0.950 . S
C886 C895 1.390 . S
C887 C886 1.387 . S
C887 C889 1.387 . S
H888 C895 0.950 . S
C889 C887 1.387 . S
C889 C891 1.390 . S
C889 H893 0.950 . S
H890 C886 0.950 . S
C891 C889 1.390 . S
C891 C892 1.387 . S
C891 H894 0.950 . S
C892 C891 1.387 . S
C892 C895 1.387 . S
H893 C889 0.950 . S
H894 C891 0.950 . S
C895 C886 1.390 . S
C895 H888 0.950 . S
C895 C892 1.387 . S
C896 C897 1.387 . S
C896 H900 0.950 . S
C896 C905 1.390 . S
C897 C896 1.387 . S
C897 C899 1.387 . S
H898 C905 0.950 . S
C899 C897 1.387 . S
C899 C901 1.390 . S
C899 H903 0.950 . S
H900 C896 0.950 . S
C901 C899 1.390 . S
C901 C902 1.387 . S
C901 H904 0.950 . S
C902 C901 1.387 . S
C902 C905 1.387 . S
H903 C899 0.950 . S
H904 C901 0.950 . S
C905 C896 1.390 . S
C905 H898 0.950 . S
C905 C902 1.387 . S
C906 C907 1.387 . S
C906 H910 0.950 . S
C906 C915 1.390 . S
C907 C906 1.387 . S
C907 C909 1.387 . S
H908 C915 0.950 . S
C909 C907 1.387 . S
C909 C911 1.390 . S
C909 H913 0.950 . S
H910 C906 0.950 . S
C911 C909 1.390 . S
C911 C912 1.387 . S
C911 H914 0.950 . S
C912 C911 1.387 . S
C912 C915 1.387 . S
H913 C909 0.950 . S
H914 C911 0.950 . S
C915 C906 1.390 . S
C915 H908 0.950 . S
C915 C912 1.387 . S
C916 C917 1.387 . S
C916 H920 0.950 . S
C916 C925 1.390 . S
C917 C916 1.387 . S
C917 C919 1.387 . S
H918 C925 0.950 . S
C919 C917 1.387 . S
C919 C921 1.390 . S
C919 H923 0.950 . S
H920 C916 0.950 . S
C921 C919 1.390 . S
C921 C922 1.387 . S
C921 H924 0.950 . S
C922 C921 1.387 . S
C922 C925 1.387 . S
H923 C919 0.950 . S
H924 C921 0.950 . S
C925 C916 1.390 . S
C925 H918 0.950 . S
C925 C922 1.387 . S
C926 C927 1.387 . S
C926 H930 0.950 . S
C926 C935 1.390 . S
C927 C926 1.387 . S
C927 C929 1.387 . S
H928 C935 0.950 . S
C929 C927 1.387 . S
C929 C931 1.390 . S
C929 H933 0.950 . S
H930 C926 0.950 . S
C931 C929 1.390 . S
C931 C932 1.387 . S
C931 H934 0.950 . S
C932 C931 1.387 . S
C932 C935 1.387 . S
H933 C929 0.950 . S
H934 C931 0.950 . S
C935 C926 1.390 . S
C935 H928 0.950 . S
C935 C932 1.387 . S
C936 C937 1.387 1_655 S
C936 H940 0.950 . S
C936 C945 1.390 . S
C937 C936 1.387 1_455 S
C937 C939 1.387 . S
H938 C945 0.950 . S
C939 C937 1.387 . S
C939 C941 1.390 . S
C939 H943 0.950 . S
H940 C936 0.950 . S
C941 C939 1.390 . S
C941 C942 1.387 . S
C941 H944 0.950 . S
C942 C941 1.387 . S
C942 C945 1.387 1_455 S
H943 C939 0.950 . S
H944 C941 0.950 . S
C945 C936 1.390 . S
C945 H938 0.950 . S
C945 C942 1.387 1_655 S
C946 C947 1.387 . S
C946 H950 0.950 . S
C946 C955 1.390 . S
C947 C946 1.387 . S
C947 C949 1.387 . S
H948 C955 0.950 . S
C949 C947 1.387 . S
C949 C951 1.390 . S
C949 H953 0.950 . S
H950 C946 0.950 . S
C951 C949 1.390 . S
C951 C952 1.387 . S
C951 H954 0.950 . S
C952 C951 1.387 . S
C952 C955 1.387 . S
H953 C949 0.950 . S
H954 C951 0.950 . S
C955 C946 1.390 . S
C955 H948 0.950 . S
C955 C952 1.387 . S
C956 C957 1.387 . S
C956 H960 0.950 . S
C956 C965 1.390 . S
C957 C956 1.387 . S
C957 C959 1.387 . S
H958 C965 0.950 . S
C959 C957 1.387 . S
C959 C961 1.390 . S
C959 H963 0.950 . S
H960 C956 0.950 . S
C961 C959 1.390 . S
C961 C962 1.387 . S
C961 H964 0.950 1_556 S
C962 C961 1.387 . S
C962 C965 1.387 . S
H963 C959 0.950 . S
H964 C961 0.950 1_554 S
C965 C956 1.390 . S
C965 H958 0.950 . S
C965 C962 1.387 . S
C966 C967 1.387 . S
C966 H970 0.950 . S
C966 C975 1.390 . S
C967 C966 1.387 . S
C967 C969 1.387 . S
H968 C975 0.950 . S
C969 C967 1.387 . S
C969 C971 1.390 . S
C969 H973 0.950 . S
H970 C966 0.950 . S
C971 C969 1.390 . S
C971 C972 1.387 . S
C971 H974 0.950 . S
C972 C971 1.387 . S
C972 C975 1.387 . S
H973 C969 0.950 . S
H974 C971 0.950 . S
C975 C966 1.390 . S
C975 H968 0.950 . S
C975 C972 1.387 . S
C976 C977 1.387 . S
C976 H980 0.950 . S
C976 C985 1.390 . S
C977 C976 1.387 . S
C977 C979 1.387 1_545 S
H978 C985 0.950 . S
C979 C977 1.387 1_565 S
C979 C981 1.390 . S
C979 H983 0.950 . S
H980 C976 0.950 . S
C981 C979 1.390 . S
C981 C982 1.387 1_565 S
C981 H984 0.950 . S
C982 C981 1.387 1_545 S
C982 C985 1.387 . S
H983 C979 0.950 . S
H984 C981 0.950 . S
C985 C976 1.390 . S
C985 H978 0.950 . S
C985 C982 1.387 . S
C986 C987 1.387 . S
C986 H990 0.950 . S
C986 C995 1.390 . S
C987 C986 1.387 . S
C987 C989 1.387 . S
H988 C995 0.950 . S
C989 C987 1.387 . S
C989 C991 1.390 . S
C989 H993 0.950 . S
H990 C986 0.950 . S
C991 C989 1.390 . S
C991 C992 1.387 . S
C991 H994 0.950 . S
C992 C991 1.387 . S
C992 C995 1.387 . S
H993 C989 0.950 . S
H994 C991 0.950 . S
C995 C986 1.390 . S
C995 H988 0.950 . S
C995 C992 1.387 . S
C996 C997 1.387 1_565 S
C996 H1000 0.950 . S
C996 C1005 1.391 1_565 S
C997 C996 1.387 1_545 S
C997 C999 1.387 . S
H998 C1005 0.946 1_565 S
C999 C997 1.387 . S
C999 C1001 1.390 . S
C999 H1003 0.950 . S
H1000 C996 0.950 . S
C1001 C999 1.390 . S
C1001 C1002 1.387 . S
C1001 H1004 0.950 . S
C1002 C1001 1.387 . S
C1002 C1005 1.390 . S
H1003 C999 0.950 . S
H1004 C1001 0.950 . S
C1005 C996 1.391 1_545 S
C1005 H998 0.946 1_545 S
C1005 C1002 1.390 . S
C1006 C1007 1.387 . S
C1006 H1010 0.950 . S
C1006 C1015 1.390 . S
C1007 C1006 1.387 . S
C1007 C1009 1.387 . S
H1008 C1015 0.950 . S
C1009 C1007 1.387 . S
C1009 C1011 1.390 . S
C1009 H1013 0.950 . S
H1010 C1006 0.950 . S
C1011 C1009 1.390 . S
C1011 C1012 1.387 . S
C1011 H1014 0.950 . S
C1012 C1011 1.387 . S
C1012 C1015 1.387 . S
H1013 C1009 0.950 . S
H1014 C1011 0.950 . S
C1015 C1006 1.390 . S
C1015 H1008 0.950 . S
C1015 C1012 1.387 . S
C1016 C1017 1.387 1_565 S
C1016 H1020 0.950 . S
C1016 C1025 1.390 . S
C1017 C1016 1.387 1_545 S
C1017 C1019 1.387 . S
H1018 C1025 0.950 . S
C1019 C1017 1.387 . S
C1019 C1021 1.390 . S
C1019 H1023 0.950 . S
H1020 C1016 0.950 . S
C1021 C1019 1.390 . S
C1021 C1022 1.387 . S
C1021 H1024 0.950 . S
C1022 C1021 1.387 . S
C1022 C1025 1.387 1_545 S
H1023 C1019 0.950 . S
H1024 C1021 0.950 . S
C1025 C1016 1.390 . S
C1025 H1018 0.950 . S
C1025 C1022 1.387 1_565 S
C1026 C1027 1.387 . S
C1026 H1030 0.950 . S
C1026 C1035 1.390 . S
C1027 C1026 1.387 . S
C1027 C1029 1.387 . S
H1028 C1035 0.950 . S
C1029 C1027 1.387 . S
C1029 C1031 1.390 . S
C1029 H1033 0.950 . S
H1030 C1026 0.950 . S
C1031 C1029 1.390 . S
C1031 C1032 1.387 . S
C1031 H1034 0.950 . S
C1032 C1031 1.387 . S
C1032 C1035 1.387 . S
H1033 C1029 0.950 . S
H1034 C1031 0.950 . S
C1035 C1026 1.390 . S
C1035 H1028 0.950 . S
C1035 C1032 1.387 . S
C1036 C1037 1.387 1_565 S
C1036 H1040 0.950 . S
C1036 C1045 1.390 . S
C1037 C1036 1.387 1_545 S
C1037 C1039 1.387 . S
H1038 C1045 0.950 . S
C1039 C1037 1.387 . S
C1039 C1041 1.390 . S
C1039 H1043 0.950 . S
H1040 C1036 0.950 . S
C1041 C1039 1.390 . S
C1041 C1042 1.387 1_545 S
C1041 H1044 0.950 . S
C1042 C1041 1.387 1_565 S
C1042 C1045 1.387 . S
H1043 C1039 0.950 . S
H1044 C1041 0.950 . S
C1045 C1036 1.390 . S
C1045 H1038 0.950 . S
C1045 C1042 1.387 . S
C1046 C1047 1.387 . S
C1046 H1050 0.950 . S
C1046 C1055 1.390 . S
C1047 C1046 1.387 . S
C1047 C1049 1.387 . S
H1048 C1055 0.950 . S
C1049 C1047 1.387 . S
C1049 C1051 1.390 . S
C1049 H1053 0.950 . S
H1050 C1046 0.950 . S
C1051 C1049 1.390 . S
C1051 C1052 1.387 . S
C1051 H1054 0.950 . S
C1052 C1051 1.387 . S
C1052 C1055 1.387 . S
H1053 C1049 0.950 . S
H1054 C1051 0.950 . S
C1055 C1046 1.390 . S
C1055 H1048 0.950 . S
C1055 C1052 1.387 . S
C1056 C1057 1.387 1_556 S
C1056 H1060 0.950 . S
C1056 C1065 1.390 . S
C1057 C1056 1.387 1_554 S
C1057 C1059 1.387 . S
H1058 C1065 0.950 . S
C1059 C1057 1.387 . S
C1059 C1061 1.390 . S
C1059 H1063 0.950 . S
H1060 C1056 0.950 . S
C1061 C1059 1.390 . S
C1061 C1062 1.387 1_554 S
C1061 H1064 0.950 . S
C1062 C1061 1.387 1_556 S
C1062 C1065 1.387 . S
H1063 C1059 0.950 . S
H1064 C1061 0.950 . S
C1065 C1056 1.390 . S
C1065 H1058 0.950 . S
C1065 C1062 1.387 . S
C1066 C1067 1.387 . S
C1066 H1070 0.950 . S
C1066 C1075 1.390 . S
C1067 C1066 1.387 . S
C1067 C1069 1.387 1_554 S
H1068 C1075 0.950 . S
C1069 C1067 1.387 1_556 S
C1069 C1071 1.390 . S
C1069 H1073 0.950 . S
H1070 C1066 0.950 . S
C1071 C1069 1.390 . S
C1071 C1072 1.387 1_556 S
C1071 H1074 0.950 . S
C1072 C1071 1.387 1_554 S
C1072 C1075 1.387 . S
H1073 C1069 0.950 . S
H1074 C1071 0.950 . S
C1075 C1066 1.390 . S
C1075 H1068 0.950 . S
C1075 C1072 1.387 . S
C1076 C1077 1.387 . S
C1076 H1080 0.950 . S
C1076 C1085 1.390 . S
C1077 C1076 1.387 . S
C1077 C1079 1.387 . S
H1078 C1085 0.950 . S
C1079 C1077 1.387 . S
C1079 C1081 1.390 . S
C1079 H1083 0.950 . S
H1080 C1076 0.950 . S
C1081 C1079 1.390 . S
C1081 C1082 1.387 . S
C1081 H1084 0.950 . S
C1082 C1081 1.387 . S
C1082 C1085 1.387 . S
H1083 C1079 0.950 . S
H1084 C1081 0.950 . S
C1085 C1076 1.390 . S
C1085 H1078 0.950 . S
C1085 C1082 1.387 . S
C1086 C1087 1.387 . S
C1086 H1090 0.950 . S
C1086 C1095 1.390 . S
C1087 C1086 1.387 . S
C1087 C1089 1.387 . S
H1088 C1095 0.950 . S
C1089 C1087 1.387 . S
C1089 C1091 1.390 . S
C1089 H1093 0.950 . S
H1090 C1086 0.950 . S
C1091 C1089 1.390 . S
C1091 C1092 1.387 . S
C1091 H1094 0.950 . S
C1092 C1091 1.387 . S
C1092 C1095 1.387 . S
H1093 C1089 0.950 . S
H1094 C1091 0.950 . S
C1095 C1086 1.390 . S
C1095 H1088 0.950 . S
C1095 C1092 1.387 . S
C1096 C1097 1.387 . S
C1096 H1100 0.950 . S
C1096 C1105 1.390 . S
C1097 C1096 1.387 . S
C1097 C1099 1.387 . S
H1098 C1105 0.950 . S
C1099 C1097 1.387 . S
C1099 C1101 1.390 . S
C1099 H1103 0.950 . S
H1100 C1096 0.950 . S
C1101 C1099 1.390 . S
C1101 C1102 1.387 . S
C1101 H1104 0.950 . S
C1102 C1101 1.387 . S
C1102 C1105 1.387 . S
H1103 C1099 0.950 . S
H1104 C1101 0.950 . S
C1105 C1096 1.390 . S
C1105 H1098 0.950 . S
C1105 C1102 1.387 . S
C1106 C1107 1.387 . S
C1106 H1110 0.950 . S
C1106 C1115 1.390 . S
C1107 C1106 1.387 . S
C1107 C1109 1.387 . S
H1108 C1115 0.936 1_545 S
C1109 C1107 1.387 . S
C1109 C1111 1.390 . S
C1109 H1113 0.950 . S
H1110 C1106 0.950 . S
C1111 C1109 1.390 . S
C1111 C1112 1.387 . S
C1111 H1114 0.950 . S
C1112 C1111 1.387 . S
C1112 C1115 1.387 . S
H1113 C1109 0.950 . S
H1114 C1111 0.950 . S
C1115 C1106 1.390 . S
C1115 H1108 0.936 1_565 S
C1115 C1112 1.387 . S
C1116 C1117 1.387 . S
C1116 H1120 0.950 . S
C1116 C1125 1.390 . S
C1117 C1116 1.387 . S
C1117 C1119 1.387 . S
H1118 C1125 0.950 . S
C1119 C1117 1.387 . S
C1119 C1121 1.390 . S
C1119 H1123 0.950 . S
H1120 C1116 0.950 . S
C1121 C1119 1.390 . S
C1121 C1122 1.387 . S
C1121 H1124 0.950 . S
C1122 C1121 1.387 . S
C1122 C1125 1.387 . S
H1123 C1119 0.950 . S
H1124 C1121 0.950 . S
C1125 C1116 1.390 . S
C1125 H1118 0.950 . S
C1125 C1122 1.387 . S
C1126 C1127 1.387 . S
C1126 H1130 0.950 . S
C1126 C1135 1.390 . S
C1127 C1126 1.387 . S
C1127 C1129 1.387 . S
H1128 C1135 0.950 . S
C1129 C1127 1.387 . S
C1129 C1131 1.390 . S
C1129 H1133 0.950 . S
H1130 C1126 0.950 . S
C1131 C1129 1.390 . S
C1131 C1132 1.387 . S
C1131 H1134 0.950 . S
C1132 C1131 1.387 . S
C1132 C1135 1.387 . S
H1133 C1129 0.950 . S
H1134 C1131 0.950 . S
C1135 C1126 1.390 . S
C1135 H1128 0.950 . S
C1135 C1132 1.387 . S
C1136 C1137 1.387 . S
C1136 H1140 0.950 . S
C1136 C1145 1.390 . S
C1137 C1136 1.387 . S
C1137 C1139 1.387 . S
H1138 C1145 0.950 . S
C1139 C1137 1.387 . S
C1139 C1141 1.390 . S
C1139 H1143 0.950 . S
H1140 C1136 0.950 . S
C1141 C1139 1.390 . S
C1141 C1142 1.387 . S
C1141 H1144 0.950 . S
C1142 C1141 1.387 . S
C1142 C1145 1.387 . S
H1143 C1139 0.950 . S
H1144 C1141 0.950 . S
C1145 C1136 1.390 . S
C1145 H1138 0.950 . S
C1145 C1142 1.387 . S
C1146 C1147 1.387 . S
C1146 H1150 0.950 . S
C1146 C1155 1.390 . S
C1147 C1146 1.387 . S
C1147 C1149 1.387 . S
H1148 C1155 0.950 . S
C1149 C1147 1.387 . S
C1149 C1151 1.390 . S
C1149 H1153 0.950 . S
H1150 C1146 0.950 . S
C1151 C1149 1.390 . S
C1151 C1152 1.387 . S
C1151 H1154 0.950 . S
C1152 C1151 1.387 . S
C1152 C1155 1.387 . S
H1153 C1149 0.950 . S
H1154 C1151 0.950 . S
C1155 C1146 1.390 . S
C1155 H1148 0.950 . S
C1155 C1152 1.387 . S
C1156 C1157 1.387 . S
C1156 H1160 0.950 . S
C1156 C1165 1.390 . S
C1157 C1156 1.387 . S
C1157 C1159 1.387 1_455 S
H1158 C1165 0.950 . S
C1159 C1157 1.387 1_655 S
C1159 C1161 1.390 . S
C1159 H1163 0.950 . S
H1160 C1156 0.950 . S
C1161 C1159 1.390 . S
C1161 C1162 1.388 1_655 S
C1161 H1164 0.950 1_556 S
C1162 C1161 1.388 1_455 S
C1162 C1165 1.393 . S
H1163 C1159 0.950 . S
H1164 C1161 0.950 1_554 S
C1165 C1156 1.390 . S
C1165 H1158 0.950 . S
C1165 C1162 1.393 . S
C1166 C1167 1.387 . S
C1166 H1170 0.950 . S
C1166 C1175 1.390 . S
C1167 C1166 1.387 . S
C1167 C1169 1.387 . S
H1168 C1175 0.950 . S
C1169 C1167 1.387 . S
C1169 C1171 1.390 . S
C1169 H1173 0.950 . S
H1170 C1166 0.950 . S
C1171 C1169 1.390 . S
C1171 C1172 1.387 . S
C1171 H1174 0.950 . S
C1172 C1171 1.387 . S
C1172 C1175 1.387 . S
H1173 C1169 0.950 . S
H1174 C1171 0.950 . S
C1175 C1166 1.390 . S
C1175 H1168 0.950 . S
C1175 C1172 1.387 . S
C1176 C1177 1.387 . S
C1176 H1180 0.950 . S
C1176 C1185 1.390 . S
C1177 C1176 1.387 . S
C1177 C1179 1.387 . S
H1178 C1185 0.950 . S
C1179 C1177 1.387 . S
C1179 C1181 1.390 . S
C1179 H1183 0.950 . S
H1180 C1176 0.950 . S
C1181 C1179 1.390 . S
C1181 C1182 1.387 . S
C1181 H1184 0.950 . S
C1182 C1181 1.387 . S
C1182 C1185 1.387 . S
H1183 C1179 0.950 . S
H1184 C1181 0.950 . S
C1185 C1176 1.390 . S
C1185 H1178 0.950 . S
C1185 C1182 1.387 . S
C1186 C1187 1.387 . S
C1186 H1190 0.950 . S
C1186 C1195 1.390 . S
C1187 C1186 1.387 . S
C1187 C1189 1.387 . S
H1188 C1195 0.950 . S
C1189 C1187 1.387 . S
C1189 C1191 1.390 . S
C1189 H1193 0.950 . S
H1190 C1186 0.950 . S
C1191 C1189 1.390 . S
C1191 C1192 1.387 . S
C1191 H1194 0.950 . S
C1192 C1191 1.387 . S
C1192 C1195 1.387 . S
H1193 C1189 0.950 . S
H1194 C1191 0.950 . S
C1195 C1186 1.390 . S
C1195 H1188 0.950 . S
C1195 C1192 1.387 . S
C1196 C1197 1.387 1_655 S
C1196 H1200 0.950 . S
C1196 C1205 1.390 . S
C1197 C1196 1.387 1_455 S
C1197 C1199 1.387 . S
H1198 C1205 0.950 . S
C1199 C1197 1.387 . S
C1199 C1201 1.390 . S
C1199 H1203 0.950 . S
H1200 C1196 0.950 . S
C1201 C1199 1.390 . S
C1201 C1202 1.387 . S
C1201 H1204 0.950 . S
C1202 C1201 1.387 . S
C1202 C1205 1.387 1_455 S
H1203 C1199 0.950 . S
H1204 C1201 0.950 . S
C1205 C1196 1.390 . S
C1205 H1198 0.950 . S
C1205 C1202 1.387 1_655 S
C1206 C1207 1.387 . S
C1206 H1210 0.950 . S
C1206 C1215 1.390 . S
C1207 C1206 1.387 . S
C1207 C1209 1.387 . S
H1208 C1215 0.950 . S
C1209 C1207 1.387 . S
C1209 C1211 1.390 . S
C1209 H1213 0.950 . S
H1210 C1206 0.950 . S
C1211 C1209 1.390 . S
C1211 C1212 1.387 . S
C1211 H1214 0.950 . S
C1212 C1211 1.387 . S
C1212 C1215 1.387 . S
H1213 C1209 0.950 . S
H1214 C1211 0.950 . S
C1215 C1206 1.390 . S
C1215 H1208 0.950 . S
C1215 C1212 1.387 . S
C1216 C1217 1.387 . S
C1216 H1220 0.950 . S
C1216 C1225 1.390 . S
C1217 C1216 1.387 . S
C1217 C1219 1.387 . S
H1218 C1225 0.950 . S
C1219 C1217 1.387 . S
C1219 C1221 1.390 . S
C1219 H1223 0.950 . S
H1220 C1216 0.950 . S
C1221 C1219 1.390 . S
C1221 C1222 1.387 . S
C1221 H1224 0.950 . S
C1222 C1221 1.387 . S
C1222 C1225 1.387 . S
H1223 C1219 0.950 . S
H1224 C1221 0.950 . S
C1225 C1216 1.390 . S
C1225 H1218 0.950 . S
C1225 C1222 1.387 . S
C1226 C1227 1.387 . S
C1226 H1230 0.950 . S
C1226 C1235 1.390 . S
C1227 C1226 1.387 . S
C1227 C1229 1.387 . S
H1228 C1235 0.950 . S
C1229 C1227 1.387 . S
C1229 C1231 1.390 . S
C1229 H1233 0.950 . S
H1230 C1226 0.950 . S
C1231 C1229 1.390 . S
C1231 C1232 1.387 . S
C1231 H1234 0.950 . S
C1232 C1231 1.387 . S
C1232 C1235 1.387 . S
H1233 C1229 0.950 . S
H1234 C1231 0.950 . S
C1235 C1226 1.390 . S
C1235 H1228 0.950 . S
C1235 C1232 1.387 . S
C1236 C1237 1.387 . S
C1236 H1240 0.950 . S
C1236 C1245 1.390 . S
C1237 C1236 1.387 . S
C1237 C1239 1.387 . S
H1238 C1245 0.950 . S
C1239 C1237 1.387 . S
C1239 C1241 1.390 . S
C1239 H1243 0.950 . S
H1240 C1236 0.950 . S
C1241 C1239 1.390 . S
C1241 C1242 1.387 . S
C1241 H1244 0.950 . S
C1242 C1241 1.387 . S
C1242 C1245 1.387 . S
H1243 C1239 0.950 . S
H1244 C1241 0.950 . S
C1245 C1236 1.390 . S
C1245 H1238 0.950 . S
C1245 C1242 1.387 . S
C1246 C1247 1.387 . S
C1246 H1250 0.950 . S
C1246 C1255 1.390 . S
C1247 C1246 1.387 . S
C1247 C1249 1.387 . S
H1248 C1255 0.950 . S
C1249 C1247 1.387 . S
C1249 C1251 1.390 . S
C1249 H1253 0.950 . S
H1250 C1246 0.950 . S
C1251 C1249 1.390 . S
C1251 C1252 1.387 . S
C1251 H1254 0.950 . S
C1252 C1251 1.387 . S
C1252 C1255 1.387 . S
H1253 C1249 0.950 . S
H1254 C1251 0.950 . S
C1255 C1246 1.390 . S
C1255 H1248 0.950 . S
C1255 C1252 1.387 . S
C1256 C1257 1.387 . S
C1256 H1260 0.950 . S
C1256 C1265 1.390 . S
C1257 C1256 1.387 . S
C1257 C1259 1.387 . S
H1258 C1265 0.950 . S
C1259 C1257 1.387 . S
C1259 C1261 1.390 . S
C1259 H1263 0.950 . S
H1260 C1256 0.950 . S
C1261 C1259 1.390 . S
C1261 C1262 1.387 . S
C1261 H1264 0.950 . S
C1262 C1261 1.387 . S
C1262 C1265 1.387 . S
H1263 C1259 0.950 . S
H1264 C1261 0.950 . S
C1265 C1256 1.390 . S
C1265 H1258 0.950 . S
C1265 C1262 1.387 . S
C1266 C1267 1.387 . S
C1266 H1270 0.950 . S
C1266 C1275 1.390 . S
C1267 C1266 1.387 . S
C1267 C1269 1.387 . S
H1268 C1275 0.950 . S
C1269 C1267 1.387 . S
C1269 C1271 1.390 . S
C1269 H1273 0.950 . S
H1270 C1266 0.950 . S
C1271 C1269 1.390 . S
C1271 C1272 1.387 . S
C1271 H1274 0.950 . S
C1272 C1271 1.387 . S
C1272 C1275 1.387 . S
H1273 C1269 0.950 . S
H1274 C1271 0.950 . S
C1275 C1266 1.390 . S
C1275 H1268 0.950 . S
C1275 C1272 1.387 . S
C1276 C1277 1.387 . S
C1276 H1280 0.950 . S
C1276 C1285 1.390 . S
C1277 C1276 1.387 . S
C1277 C1279 1.387 . S
H1278 C1285 0.950 . S
C1279 C1277 1.387 . S
C1279 C1281 1.390 . S
C1279 H1283 0.950 . S
H1280 C1276 0.950 . S
C1281 C1279 1.390 . S
C1281 C1282 1.387 . S
C1281 H1284 0.950 . S
C1282 C1281 1.387 . S
C1282 C1285 1.387 . S
H1283 C1279 0.950 . S
H1284 C1281 0.950 . S
C1285 C1276 1.390 . S
C1285 H1278 0.950 . S
C1285 C1282 1.387 . S
C1286 C1287 1.387 . S
C1286 H1290 0.950 . S
C1286 C1295 1.390 . S
C1287 C1286 1.387 . S
C1287 C1289 1.387 . S
H1288 C1295 0.950 . S
C1289 C1287 1.387 . S
C1289 C1291 1.390 . S
C1289 H1293 0.950 . S
H1290 C1286 0.950 . S
C1291 C1289 1.390 . S
C1291 C1292 1.387 . S
C1291 H1294 0.950 . S
C1292 C1291 1.387 . S
C1292 C1295 1.387 . S
H1293 C1289 0.950 . S
H1294 C1291 0.950 . S
C1295 C1286 1.390 . S
C1295 H1288 0.950 . S
C1295 C1292 1.387 . S
C1296 C1297 1.387 . S
C1296 H1300 0.950 . S
C1296 C1305 1.390 . S
C1297 C1296 1.387 . S
C1297 C1299 1.387 . S
H1298 C1305 0.950 . S
C1299 C1297 1.387 . S
C1299 C1301 1.390 . S
C1299 H1303 0.950 . S
H1300 C1296 0.950 . S
C1301 C1299 1.390 . S
C1301 C1302 1.387 . S
C1301 H1304 0.950 . S
C1302 C1301 1.387 . S
C1302 C1305 1.387 . S
H1303 C1299 0.950 . S
H1304 C1301 0.950 . S
C1305 C1296 1.390 . S
C1305 H1298 0.950 . S
C1305 C1302 1.387 . S
C1306 C1307 1.387 . S
C1306 H1310 0.950 . S
C1306 C1315 1.390 . S
C1307 C1306 1.387 . S
C1307 C1309 1.387 . S
H1308 C1315 0.950 . S
C1309 C1307 1.387 . S
C1309 C1311 1.390 . S
C1309 H1313 0.950 . S
H1310 C1306 0.950 . S
C1311 C1309 1.390 . S
C1311 C1312 1.387 . S
C1311 H1314 0.950 . S
C1312 C1311 1.387 . S
C1312 C1315 1.387 . S
H1313 C1309 0.950 . S
H1314 C1311 0.950 . S
C1315 C1306 1.390 . S
C1315 H1308 0.950 . S
C1315 C1312 1.387 . S
C1316 C1317 1.387 . S
C1316 H1320 0.950 . S
C1316 C1325 1.390 . S
C1317 C1316 1.387 . S
C1317 C1319 1.387 . S
H1318 C1325 0.950 . S
C1319 C1317 1.387 . S
C1319 C1321 1.390 . S
C1319 H1323 0.950 . S
H1320 C1316 0.950 . S
C1321 C1319 1.390 . S
C1321 C1322 1.387 . S
C1321 H1324 0.950 . S
C1322 C1321 1.387 . S
C1322 C1325 1.387 . S
H1323 C1319 0.950 . S
H1324 C1321 0.950 . S
C1325 C1316 1.390 . S
C1325 H1318 0.950 . S
C1325 C1322 1.387 . S
C1326 C1327 1.387 1_556 S
C1326 H1330 0.950 . S
C1326 C1335 1.390 . S
C1327 C1326 1.387 1_554 S
C1327 C1329 1.387 . S
H1328 C1335 0.950 . S
C1329 C1327 1.387 . S
C1329 C1331 1.390 . S
C1329 H1333 0.950 . S
H1330 C1326 0.950 . S
C1331 C1329 1.390 . S
C1331 C1332 1.387 . S
C1331 H1334 0.950 . S
C1332 C1331 1.387 . S
C1332 C1335 1.387 1_554 S
H1333 C1329 0.950 . S
H1334 C1331 0.950 . S
C1335 C1326 1.390 . S
C1335 H1328 0.950 . S
C1335 C1332 1.387 1_556 S
C1336 C1337 1.387 . S
C1336 H1340 0.950 . S
C1336 C1345 1.390 . S
C1337 C1336 1.387 . S
C1337 C1339 1.387 . S
H1338 C1345 0.950 . S
C1339 C1337 1.387 . S
C1339 C1341 1.390 . S
C1339 H1343 0.950 . S
H1340 C1336 0.950 . S
C1341 C1339 1.390 . S
C1341 C1342 1.387 . S
C1341 H1344 0.950 . S
C1342 C1341 1.387 . S
C1342 C1345 1.387 . S
H1343 C1339 0.950 . S
H1344 C1341 0.950 . S
C1345 C1336 1.390 . S
C1345 H1338 0.950 . S
C1345 C1342 1.387 . S
C1346 C1347 1.387 . S
C1346 H1350 0.950 1_554 S
C1346 C1355 1.390 . S
C1347 C1346 1.387 . S
C1347 C1349 1.387 . S
H1348 C1355 0.950 . S
C1349 C1347 1.387 . S
C1349 C1351 1.390 . S
C1349 H1353 0.950 . S
H1350 C1346 0.950 1_556 S
C1351 C1349 1.390 . S
C1351 C1352 1.387 . S
C1351 H1354 0.950 . S
C1352 C1351 1.387 . S
C1352 C1355 1.387 . S
H1353 C1349 0.950 . S
H1354 C1351 0.950 . S
C1355 C1346 1.390 . S
C1355 H1348 0.950 . S
C1355 C1352 1.387 . S
C1356 C1357 1.387 . S
C1356 H1360 0.950 . S
C1356 C1365 1.390 . S
C1357 C1356 1.387 . S
C1357 C1359 1.387 . S
H1358 C1365 0.950 . S
C1359 C1357 1.387 . S
C1359 C1361 1.390 . S
C1359 H1363 0.950 . S
H1360 C1356 0.950 . S
C1361 C1359 1.390 . S
C1361 C1362 1.387 . S
C1361 H1364 0.950 . S
C1362 C1361 1.387 . S
C1362 C1365 1.387 . S
H1363 C1359 0.950 . S
H1364 C1361 0.950 . S
C1365 C1356 1.390 . S
C1365 H1358 0.950 . S
C1365 C1362 1.387 . S
C1366 C1367 1.387 . S
C1366 H1370 0.950 . S
C1366 C1375 1.390 . S
C1367 C1366 1.387 . S
C1367 C1369 1.387 . S
H1368 C1375 0.950 . S
C1369 C1367 1.387 . S
C1369 C1371 1.390 . S
C1369 H1373 0.950 . S
H1370 C1366 0.950 . S
C1371 C1369 1.390 . S
C1371 C1372 1.387 . S
C1371 H1374 0.950 . S
C1372 C1371 1.387 . S
C1372 C1375 1.387 . S
H1373 C1369 0.950 . S
H1374 C1371 0.950 . S
C1375 C1366 1.390 . S
C1375 H1368 0.950 . S
C1375 C1372 1.387 . S
C1376 C1377 1.387 . S
C1376 H1380 0.950 . S
C1376 C1385 1.390 . S
C1377 C1376 1.387 . S
C1377 C1379 1.387 . S
H1378 C1385 0.950 . S
C1379 C1377 1.387 . S
C1379 C1381 1.390 . S
C1379 H1383 0.950 . S
H1380 C1376 0.950 . S
C1381 C1379 1.390 . S
C1381 C1382 1.387 . S
C1381 H1384 0.950 . S
C1382 C1381 1.387 . S
C1382 C1385 1.387 . S
H1383 C1379 0.950 . S
H1384 C1381 0.950 . S
C1385 C1376 1.390 . S
C1385 H1378 0.950 . S
C1385 C1382 1.387 . S
C1386 C1387 1.387 . S
C1386 H1390 0.950 . S
C1386 C1395 1.390 . S
C1387 C1386 1.387 . S
C1387 C1389 1.387 . S
H1388 C1395 0.950 . S
C1389 C1387 1.387 . S
C1389 C1391 1.390 . S
C1389 H1393 0.950 . S
H1390 C1386 0.950 . S
C1391 C1389 1.390 . S
C1391 C1392 1.387 . S
C1391 H1394 0.950 . S
C1392 C1391 1.387 . S
C1392 C1395 1.387 . S
H1393 C1389 0.950 . S
H1394 C1391 0.950 . S
C1395 C1386 1.390 . S
C1395 H1388 0.950 . S
C1395 C1392 1.387 . S
C1396 C1397 1.387 . S
C1396 H1400 0.950 . S
C1396 C1405 1.390 . S
C1397 C1396 1.387 . S
C1397 C1399 1.387 . S
H1398 C1405 0.950 . S
C1399 C1397 1.387 . S
C1399 C1401 1.390 . S
C1399 H1403 0.950 1_455 S
H1400 C1396 0.950 . S
C1401 C1399 1.390 . S
C1401 C1402 1.387 . S
C1401 H1404 0.950 1_455 S
C1402 C1401 1.387 . S
C1402 C1405 1.387 . S
H1403 C1399 0.950 1_655 S
H1404 C1401 0.950 1_655 S
C1405 C1396 1.390 . S
C1405 H1398 0.950 . S
C1405 C1402 1.387 . S
C1406 C1407 1.387 . S
C1406 H1410 0.950 . S
C1406 C1415 1.390 . S
C1407 C1406 1.387 . S
C1407 C1409 1.387 . S
H1408 C1415 0.950 . S
C1409 C1407 1.387 . S
C1409 C1411 1.390 . S
C1409 H1413 0.950 . S
H1410 C1406 0.950 . S
C1411 C1409 1.390 . S
C1411 C1412 1.387 . S
C1411 H1414 0.950 . S
C1412 C1411 1.387 . S
C1412 C1415 1.387 . S
H1413 C1409 0.950 . S
H1414 C1411 0.950 . S
C1415 C1406 1.390 . S
C1415 H1408 0.950 . S
C1415 C1412 1.387 . S
C1416 C1417 1.387 . S
C1416 H1420 0.950 . S
C1416 C1425 1.390 . S
C1417 C1416 1.387 . S
C1417 C1419 1.387 . S
H1418 C1425 0.950 . S
C1419 C1417 1.387 . S
C1419 C1421 1.390 . S
C1419 H1423 0.950 . S
H1420 C1416 0.950 . S
C1421 C1419 1.390 . S
C1421 C1422 1.387 . S
C1421 H1424 0.950 . S
C1422 C1421 1.387 . S
C1422 C1425 1.387 . S
H1423 C1419 0.950 . S
H1424 C1421 0.950 . S
C1425 C1416 1.390 . S
C1425 H1418 0.950 . S
C1425 C1422 1.387 . S
C1426 C1427 1.387 . S
C1426 H1430 0.950 . S
C1426 C1435 1.390 . S
C1427 C1426 1.387 . S
C1427 C1429 1.387 . S
H1428 C1435 0.950 . S
C1429 C1427 1.387 . S
C1429 C1431 1.390 . S
C1429 H1433 0.950 . S
H1430 C1426 0.950 . S
C1431 C1429 1.390 . S
C1431 C1432 1.387 . S
C1431 H1434 0.950 . S
C1432 C1431 1.387 . S
C1432 C1435 1.387 . S
H1433 C1429 0.950 . S
H1434 C1431 0.950 . S
C1435 C1426 1.390 . S
C1435 H1428 0.950 . S
C1435 C1432 1.387 . S
C1436 C1437 1.387 . S
C1436 H1440 0.950 1_455 S
C1436 C1445 1.390 . S
C1437 C1436 1.387 . S
C1437 C1439 1.387 . S
H1438 C1445 0.950 1_655 S
C1439 C1437 1.387 . S
C1439 C1441 1.390 . S
C1439 H1443 0.950 . S
H1440 C1436 0.950 1_655 S
C1441 C1439 1.390 . S
C1441 C1442 1.387 . S
C1441 H1444 0.950 . S
C1442 C1441 1.387 . S
C1442 C1445 1.387 . S
H1443 C1439 0.950 . S
H1444 C1441 0.950 . S
C1445 C1436 1.390 . S
C1445 H1438 0.950 1_455 S
C1445 C1442 1.387 . S
C1446 C1447 1.387 . S
C1446 H1450 0.950 . S
C1446 C1455 1.390 . S
C1447 C1446 1.387 . S
C1447 C1449 1.387 . S
H1448 C1455 0.950 . S
C1449 C1447 1.387 . S
C1449 C1451 1.390 . S
C1449 H1453 0.950 . S
H1450 C1446 0.950 . S
C1451 C1449 1.390 . S
C1451 C1452 1.387 . S
C1451 H1454 0.950 . S
C1452 C1451 1.387 . S
C1452 C1455 1.387 . S
H1453 C1449 0.950 . S
H1454 C1451 0.950 . S
C1455 C1446 1.390 . S
C1455 H1448 0.950 . S
C1455 C1452 1.387 . S
C1456 C1457 1.387 . S
C1456 H1460 0.950 . S
C1456 C1465 1.390 . S
C1457 C1456 1.387 . S
C1457 C1459 1.387 . S
H1458 C1465 0.950 . S
C1459 C1457 1.387 . S
C1459 C1461 1.390 . S
C1459 H1463 0.950 . S
H1460 C1456 0.950 . S
C1461 C1459 1.390 . S
C1461 C1462 1.387 . S
C1461 H1464 0.950 . S
C1462 C1461 1.387 . S
C1462 C1465 1.387 . S
H1463 C1459 0.950 . S
H1464 C1461 0.950 . S
C1465 C1456 1.390 . S
C1465 H1458 0.950 . S
C1465 C1462 1.387 . S
C1466 C1467 1.387 . S
C1466 H1470 0.950 . S
C1466 C1475 1.390 . S
C1467 C1466 1.387 . S
C1467 C1469 1.387 . S
H1468 C1475 0.950 . S
C1469 C1467 1.387 . S
C1469 C1471 1.390 . S
C1469 H1473 0.950 . S
H1470 C1466 0.950 . S
C1471 C1469 1.390 . S
C1471 C1472 1.387 . S
C1471 H1474 0.950 . S
C1472 C1471 1.387 . S
C1472 C1475 1.387 . S
H1473 C1469 0.950 . S
H1474 C1471 0.950 . S
C1475 C1466 1.390 . S
C1475 H1468 0.950 . S
C1475 C1472 1.387 . S
C1476 C1477 1.387 . S
C1476 H1480 0.950 . S
C1476 C1485 1.390 . S
C1477 C1476 1.387 . S
C1477 C1479 1.387 . S
H1478 C1485 0.950 . S
C1479 C1477 1.387 . S
C1479 C1481 1.390 . S
C1479 H1483 0.950 . S
H1480 C1476 0.950 . S
C1481 C1479 1.390 . S
C1481 C1482 1.387 . S
C1481 H1484 0.950 . S
C1482 C1481 1.387 . S
C1482 C1485 1.387 . S
H1483 C1479 0.950 . S
H1484 C1481 0.950 . S
C1485 C1476 1.390 . S
C1485 H1478 0.950 . S
C1485 C1482 1.387 . S
C1486 C1487 1.387 . S
C1486 H1490 0.950 . S
C1486 C1495 1.390 . S
C1487 C1486 1.387 . S
C1487 C1489 1.387 . S
H1488 C1495 0.950 . S
C1489 C1487 1.387 . S
C1489 C1491 1.390 . S
C1489 H1493 0.950 . S
H1490 C1486 0.950 . S
C1491 C1489 1.390 . S
C1491 C1492 1.387 . S
C1491 H1494 0.950 . S
C1492 C1491 1.387 . S
C1492 C1495 1.387 . S
H1493 C1489 0.950 . S
H1494 C1491 0.950 . S
C1495 C1486 1.390 . S
C1495 H1488 0.950 . S
C1495 C1492 1.387 . S
C1496 C1497 1.387 . S
C1496 H1500 0.950 . S
C1496 C1505 1.390 . S
C1497 C1496 1.387 . S
C1497 C1499 1.387 . S
H1498 C1505 0.950 . S
C1499 C1497 1.387 . S
C1499 C1501 1.390 . S
C1499 H1503 0.950 . S
H1500 C1496 0.950 . S
C1501 C1499 1.390 . S
C1501 C1502 1.387 . S
C1501 H1504 0.950 . S
C1502 C1501 1.387 . S
C1502 C1505 1.387 . S
H1503 C1499 0.950 . S
H1504 C1501 0.950 . S
C1505 C1496 1.390 . S
C1505 H1498 0.950 . S
C1505 C1502 1.387 . S
C1506 C1507 1.387 . S
C1506 H1510 0.950 . S
C1506 C1515 1.390 . S
C1507 C1506 1.387 . S
C1507 C1509 1.387 . S
H1508 C1515 0.950 . S
C1509 C1507 1.387 . S
C1509 C1511 1.390 . S
C1509 H1513 0.950 . S
H1510 C1506 0.950 . S
C1511 C1509 1.390 . S
C1511 C1512 1.387 . S
C1511 H1514 0.950 . S
C1512 C1511 1.387 . S
C1512 C1515 1.387 . S
H1513 C1509 0.950 . S
H1514 C1511 0.950 . S
C1515 C1506 1.390 . S
C1515 H1508 0.950 . S
C1515 C1512 1.387 . S
C1516 C1517 1.387 . S
C1516 H1520 0.950 . S
C1516 C1525 1.390 . S
C1517 C1516 1.387 . S
C1517 C1519 1.387 . S
H1518 C1525 0.950 . S
C1519 C1517 1.387 . S
C1519 C1521 1.390 . S
C1519 H1523 0.950 . S
H1520 C1516 0.950 . S
C1521 C1519 1.390 . S
C1521 C1522 1.387 . S
C1521 H1524 0.950 . S
C1522 C1521 1.387 . S
C1522 C1525 1.387 . S
H1523 C1519 0.950 . S
H1524 C1521 0.950 . S
C1525 C1516 1.390 . S
C1525 H1518 0.950 . S
C1525 C1522 1.387 . S
C1526 C1527 1.387 . S
C1526 H1530 0.950 . S
C1526 C1535 1.390 . S
C1527 C1526 1.387 . S
C1527 C1529 1.387 . S
H1528 C1535 0.950 . S
C1529 C1527 1.387 . S
C1529 C1531 1.390 . S
C1529 H1533 0.950 . S
H1530 C1526 0.950 . S
C1531 C1529 1.390 . S
C1531 C1532 1.387 . S
C1531 H1534 0.950 . S
C1532 C1531 1.387 . S
C1532 C1535 1.387 . S
H1533 C1529 0.950 . S
H1534 C1531 0.950 . S
C1535 C1526 1.390 . S
C1535 H1528 0.950 . S
C1535 C1532 1.387 . S
C1536 C1537 1.387 . S
C1536 H1540 0.950 . S
C1536 C1545 1.390 . S
C1537 C1536 1.387 . S
C1537 C1539 1.387 . S
H1538 C1545 0.950 . S
C1539 C1537 1.387 . S
C1539 C1541 1.390 . S
C1539 H1543 0.950 . S
H1540 C1536 0.950 . S
C1541 C1539 1.390 . S
C1541 C1542 1.387 . S
C1541 H1544 0.950 . S
C1542 C1541 1.387 . S
C1542 C1545 1.387 . S
H1543 C1539 0.950 . S
H1544 C1541 0.950 . S
C1545 C1536 1.390 . S
C1545 H1538 0.950 . S
C1545 C1542 1.387 . S
C1546 C1547 1.387 . S
C1546 H1550 0.950 . S
C1546 C1555 1.390 . S
C1547 C1546 1.387 . S
C1547 C1549 1.387 . S
H1548 C1555 0.950 . S
C1549 C1547 1.387 . S
C1549 C1551 1.390 . S
C1549 H1553 0.950 . S
H1550 C1546 0.950 . S
C1551 C1549 1.390 . S
C1551 C1552 1.387 . S
C1551 H1554 0.950 . S
C1552 C1551 1.387 . S
C1552 C1555 1.387 . S
H1553 C1549 0.950 . S
H1554 C1551 0.950 . S
C1555 C1546 1.390 . S
C1555 H1548 0.950 . S
C1555 C1552 1.387 . S
C1556 C1557 1.387 . S
C1556 H1560 0.950 . S
C1556 C1565 1.390 . S
C1557 C1556 1.387 . S
C1557 C1559 1.387 . S
H1558 C1565 0.950 . S
C1559 C1557 1.387 . S
C1559 C1561 1.390 . S
C1559 H1563 0.950 . S
H1560 C1556 0.950 . S
C1561 C1559 1.390 . S
C1561 C1562 1.387 . S
C1561 H1564 0.950 . S
C1562 C1561 1.387 . S
C1562 C1565 1.387 . S
H1563 C1559 0.950 . S
H1564 C1561 0.950 . S
C1565 C1556 1.390 . S
C1565 H1558 0.950 . S
C1565 C1562 1.387 . S
C1566 C1567 1.387 . S
C1566 H1570 0.950 . S
C1566 C1575 1.390 . S
C1567 C1566 1.387 . S
C1567 C1569 1.387 1_554 S
H1568 C1575 0.950 . S
C1569 C1567 1.387 1_556 S
C1569 C1571 1.390 . S
C1569 H1573 0.950 . S
H1570 C1566 0.950 . S
C1571 C1569 1.390 . S
C1571 C1572 1.387 1_556 S
C1571 H1574 0.950 . S
C1572 C1571 1.387 1_554 S
C1572 C1575 1.387 . S
H1573 C1569 0.950 . S
H1574 C1571 0.950 . S
C1575 C1566 1.390 . S
C1575 H1568 0.950 . S
C1575 C1572 1.387 . S
C1576 C1577 1.387 . S
C1576 H1580 0.950 . S
C1576 C1585 1.390 . S
C1577 C1576 1.387 . S
C1577 C1579 1.387 . S
H1578 C1585 0.950 . S
C1579 C1577 1.387 . S
C1579 C1581 1.390 . S
C1579 H1583 0.950 . S
H1580 C1576 0.950 . S
C1581 C1579 1.390 . S
C1581 C1582 1.387 . S
C1581 H1584 0.950 . S
C1582 C1581 1.387 . S
C1582 C1585 1.387 . S
H1583 C1579 0.950 . S
H1584 C1581 0.950 . S
C1585 C1576 1.390 . S
C1585 H1578 0.950 . S
C1585 C1582 1.387 . S
C1586 C1587 1.387 . S
C1586 H1590 0.950 . S
C1586 C1595 1.390 . S
C1587 C1586 1.387 . S
C1587 C1589 1.387 1_554 S
H1588 C1595 0.950 . S
C1589 C1587 1.387 1_556 S
C1589 C1591 1.390 . S
C1589 H1593 0.950 . S
H1590 C1586 0.950 . S
C1591 C1589 1.390 . S
C1591 C1592 1.387 1_556 S
C1591 H1594 0.950 . S
C1592 C1591 1.387 1_554 S
C1592 C1595 1.387 . S
H1593 C1589 0.950 . S
H1594 C1591 0.950 . S
C1595 C1586 1.390 . S
C1595 H1588 0.950 . S
C1595 C1592 1.387 . S
C1596 C1597 1.387 . S
C1596 H1600 0.950 . S
C1596 C1605 1.390 . S
C1597 C1596 1.387 . S
C1597 C1599 1.387 . S
H1598 C1605 0.950 . S
C1599 C1597 1.387 . S
C1599 C1601 1.390 . S
C1599 H1603 0.950 . S
H1600 C1596 0.950 . S
C1601 C1599 1.390 . S
C1601 C1602 1.387 . S
C1601 H1604 0.950 . S
C1602 C1601 1.387 . S
C1602 C1605 1.387 . S
H1603 C1599 0.950 . S
H1604 C1601 0.950 . S
C1605 C1596 1.390 . S
C1605 H1598 0.950 . S
C1605 C1602 1.387 . S
C1606 C1607 1.387 . S
C1606 H1610 0.950 . S
C1606 C1615 1.390 . S
C1607 C1606 1.387 . S
C1607 C1609 1.387 . S
H1608 C1615 0.950 . S
C1609 C1607 1.387 . S
C1609 C1611 1.390 . S
C1609 H1613 0.950 . S
H1610 C1606 0.950 . S
C1611 C1609 1.390 . S
C1611 C1612 1.387 . S
C1611 H1614 0.950 . S
C1612 C1611 1.387 . S
C1612 C1615 1.387 . S
H1613 C1609 0.950 . S
H1614 C1611 0.950 . S
C1615 C1606 1.390 . S
C1615 H1608 0.950 . S
C1615 C1612 1.387 . S
C657 C106 1.999 . S
C662 C354 1.925 1_556 S
C667 C65 1.701 . S
C672 C365 1.704 . S
C677 C79 1.590 . S
C682 C394 1.494 . S
C692 C397 1.274 . S
C687 C90 1.246 . S
C697 C21 1.435 . S
C702 C435 1.432 . S
C712 C438 1.289 . S
C707 C35 1.193 . S
C722 C465 1.600 . S
C717 C50 1.602 . S
C727 C6 1.698 . S
C732 C494 1.670 . S
C742 C345 1.896 1_655 S
C737 C232 1.884 . S
C747 C245 1.063 . S
C752 C357 1.112 . S
C762 C385 1.617 . S
C757 C274 1.614 . S
C772 C414 1.288 . S
C767 C175 1.286 . S
C777 C231 1.015 . S
C782 C418 1.076 . S
C792 C444 1.604 . S
C787 C246 1.633 . S
C802 C457 0.824 . S
C797 C273 0.822 . S
C812 C485 1.837 . S
C807 C176 1.833 . S
C822 C337 1.607 1_565 S
C817 C160 1.557 . S
C827 C289 1.781 . S
C832 C504 1.742 . S
C842 C535 1.652 . S
C837 C328 1.649 . S
C852 C554 1.199 . S
C847 C317 1.252 . S
C857 C118 1.426 . S
C862 C477 1.542 . S
C867 C132 1.506 . S
C872 C377 1.590 . S
C877 C331 1.672 . S
C882 C565 1.666 . S
C892 C594 1.237 . S
C887 C303 1.310 . S
C902 C355 1.585 . S
C897 C63 1.586 . S
C912 C584 2.062 . S
C907 C107 2.010 . S
C917 C92 1.324 . S
C922 C395 1.274 . S
C927 C78 1.703 . S
C932 C558 1.716 . S
C942 C434 1.891 . S
C937 C8 1.941 . S
C947 C51 1.326 . S
C952 C517 1.311 . S
C962 C464 1.915 1_556 S
C957 C37 1.865 . S
C972 C615 1.587 . S
C967 C20 1.614 . S
C982 C344 1.634 . S
C977 C147 1.559 . S
C992 C578 1.201 . S
C987 C316 1.244 . S
C997 C119 1.495 . S
C1002 C384 1.541 . S
C1007 C288 1.369 . S
C1012 C575 1.360 . S
C1017 C148 1.323 1_545 S
C1022 C417 1.318 . S
C1032 C525 1.579 . S
C1027 C315 1.540 . S
C1037 C120 1.089 . S
C1042 C458 1.064 . S
C1047 C287 1.644 . S
C1052 C604 1.664 . S
C1057 C188 1.489 . S
C1062 C338 1.480 . S
C1067 C177 1.946 . S
C1072 C505 1.928 . S
C1077 C258 1.727 . S
C1082 C454 1.707 . S
C1087 C247 1.251 . S
C1092 C555 1.229 . S
C1102 C598 1.420 . S
C1097 C272 1.389 . S
C1107 C216 1.461 . S
C1112 C378 1.512 . S
C1122 C404 1.841 . S
C1117 C261 1.815 . S
C1132 C375 1.199 . S
C1127 C205 1.256 . S
C1137 C76 1.591 . S
C1142 C634 1.601 . S
C1152 C585 1.772 . S
C1147 C93 1.768 . S
C1157 C105 1.216 . S
C1162 C654 1.196 1_556 S
C1167 C62 1.275 . S
C1172 C557 1.303 . S
C1177 C49 1.404 . S
C1182 C515 1.401 . S
C1192 C518 1.623 . S
C1187 C9 1.593 . S
C1202 C545 1.539 . S
C1197 C22 1.534 1_455 S
C1212 C614 1.972 . S
C1207 C36 2.100 . S
C1222 C625 1.848 . S
C1217 C260 1.838 . S
C1227 C189 0.939 . S
C1232 C577 0.965 . S
C1242 C645 1.574 . S
C1237 C204 1.572 . S
C1252 C574 1.148 . S
C1247 C217 1.153 . S
C1262 C498 1.251 . S
C1257 C259 1.158 . S
C1267 C190 1.675 . S
C1272 C524 1.661 . S
C1282 C537 0.957 . S
C1277 C203 0.938 . S
C1287 C218 1.873 . S
C1292 C605 1.878 . S
C1302 C617 1.585 . S
C1297 C314 1.525 . S
C1307 C135 1.815 . S
C1312 C424 1.783 . S
C1322 C455 1.612 . S
C1317 C146 1.603 . S
C1332 C474 1.243 . S
C1327 C163 1.276 . S
C1342 C597 1.545 . S
C1337 C300 1.440 . S
C1347 C286 1.481 . S
C1352 C637 1.579 . S
C1362 C405 1.614 . S
C1357 C149 1.614 . S
C1372 C374 1.218 . S
C1367 C121 1.315 . S
C1377 C91 1.580 . S
C1382 C635 1.588 . S
C1392 C364 1.689 . S
C1387 C77 1.574 . S
C1397 C64 1.282 . S
C1402 C655 1.244 . S
C1407 C104 1.405 . S
C1412 C398 1.452 . S
C1417 C34 1.597 . S
C1422 C514 1.586 . S
C1432 C437 1.273 . S
C1427 C23 1.277 . S
C1437 C7 1.464 . S
C1442 C544 1.549 . S
C1447 C48 1.587 . S
C1452 C495 1.570 . S
C1462 C624 1.593 . S
C1457 C329 1.528 . S
C1467 C162 1.213 . S
C1472 C358 1.180 . S
C1482 C644 1.515 1_655 S
C1477 C301 1.476 . S
C1487 C134 1.368 . S
C1492 C415 1.364 . S
C1497 C330 1.300 . S
C1502 C497 1.298 . S
C1512 C445 1.556 . S
C1507 C161 1.525 . S
C1517 C302 1.074 . S
C1522 C538 1.055 . S
C1532 C484 1.627 . S
C1527 C133 1.618 . S
C1542 C618 1.612 . S
C1537 C244 1.610 . S
C1552 C425 1.920 1_565 S
C1547 C219 1.946 . S
C1557 C230 1.576 . S
C1562 C534 1.541 . S
C1572 C475 1.193 . S
C1567 C191 1.234 . S
C1577 C202 1.498 . S
C1582 C478 1.534 . S
C1587 C174 1.582 . S
C1592 C638 1.640 . S
C1602 C564 1.837 . S
C1597 C233 1.798 . S
C1612 C595 1.200 . S
C1607 C275 1.279 . S
