# Generated by pormake.
# Topology ctn, (3,4)-cn, num edge types: 1
# Building blocks:
#     Node 0, Type 0, BuildingBlock: OLANEW_clean_sbu_2, # of connection points: 3
#     Node 1, Type 0, BuildingBlock: OLANEW_clean_sbu_2, # of connection points: 3
#     Node 2, Type 0, BuildingBlock: OLANEW_clean_sbu_2, # of connection points: 3
#     Node 3, Type 0, BuildingBlock: OLANEW_clean_sbu_2, # of connection points: 3
#     Node 4, Type 0, BuildingBlock: OLANEW_clean_sbu_2, # of connection points: 3
#     Node 5, Type 0, BuildingBlock: OLANEW_clean_sbu_2, # of connection points: 3
#     Node 6, Type 0, BuildingBlock: OLANEW_clean_sbu_2, # of connection points: 3
#     Node 7, Type 0, BuildingBlock: OLANEW_clean_sbu_2, # of connection points: 3
#     Node 8, Type 0, BuildingBlock: OLANEW_clean_sbu_2, # of connection points: 3
#     Node 9, Type 0, BuildingBlock: OLANEW_clean_sbu_2, # of connection points: 3
#     Node 10, Type 0, BuildingBlock: OLANEW_clean_sbu_2, # of connection points: 3
#     Node 11, Type 0, BuildingBlock: OLANEW_clean_sbu_2, # of connection points: 3
#     Node 12, Type 0, BuildingBlock: OLANEW_clean_sbu_2, # of connection points: 3
#     Node 13, Type 0, BuildingBlock: OLANEW_clean_sbu_2, # of connection points: 3
#     Node 14, Type 0, BuildingBlock: OLANEW_clean_sbu_2, # of connection points: 3
#     Node 15, Type 0, BuildingBlock: OLANEW_clean_sbu_2, # of connection points: 3
#     Node 16, Type 1, BuildingBlock: AZAVOO_clean_sbu_0, # of connection points: 4
#     Node 17, Type 1, BuildingBlock: AZAVOO_clean_sbu_0, # of connection points: 4
#     Node 18, Type 1, BuildingBlock: AZAVOO_clean_sbu_0, # of connection points: 4
#     Node 19, Type 1, BuildingBlock: AZAVOO_clean_sbu_0, # of connection points: 4
#     Node 20, Type 1, BuildingBlock: AZAVOO_clean_sbu_0, # of connection points: 4
#     Node 21, Type 1, BuildingBlock: AZAVOO_clean_sbu_0, # of connection points: 4
#     Node 22, Type 1, BuildingBlock: AZAVOO_clean_sbu_0, # of connection points: 4
#     Node 23, Type 1, BuildingBlock: AZAVOO_clean_sbu_0, # of connection points: 4
#     Node 24, Type 1, BuildingBlock: AZAVOO_clean_sbu_0, # of connection points: 4
#     Node 25, Type 1, BuildingBlock: AZAVOO_clean_sbu_0, # of connection points: 4
#     Node 26, Type 1, BuildingBlock: AZAVOO_clean_sbu_0, # of connection points: 4
#     Node 27, Type 1, BuildingBlock: AZAVOO_clean_sbu_0, # of connection points: 4
#     Edge 28, Type (0, 1), None
#     Edge 29, Type (0, 1), None
#     Edge 30, Type (0, 1), None
#     Edge 31, Type (0, 1), None
#     Edge 32, Type (0, 1), None
#     Edge 33, Type (0, 1), None
#     Edge 34, Type (0, 1), None
#     Edge 35, Type (0, 1), None
#     Edge 36, Type (0, 1), None
#     Edge 37, Type (0, 1), None
#     Edge 38, Type (0, 1), None
#     Edge 39, Type (0, 1), None
#     Edge 40, Type (0, 1), None
#     Edge 41, Type (0, 1), None
#     Edge 42, Type (0, 1), None
#     Edge 43, Type (0, 1), None
#     Edge 44, Type (0, 1), None
#     Edge 45, Type (0, 1), None
#     Edge 46, Type (0, 1), None
#     Edge 47, Type (0, 1), None
#     Edge 48, Type (0, 1), None
#     Edge 49, Type (0, 1), None
#     Edge 50, Type (0, 1), None
#     Edge 51, Type (0, 1), None
#     Edge 52, Type (0, 1), None
#     Edge 53, Type (0, 1), None
#     Edge 54, Type (0, 1), None
#     Edge 55, Type (0, 1), None
#     Edge 56, Type (0, 1), None
#     Edge 57, Type (0, 1), None
#     Edge 58, Type (0, 1), None
#     Edge 59, Type (0, 1), None
#     Edge 60, Type (0, 1), None
#     Edge 61, Type (0, 1), None
#     Edge 62, Type (0, 1), None
#     Edge 63, Type (0, 1), None
#     Edge 64, Type (0, 1), None
#     Edge 65, Type (0, 1), None
#     Edge 66, Type (0, 1), None
#     Edge 67, Type (0, 1), None
#     Edge 68, Type (0, 1), None
#     Edge 69, Type (0, 1), None
#     Edge 70, Type (0, 1), None
#     Edge 71, Type (0, 1), None
#     Edge 72, Type (0, 1), None
#     Edge 73, Type (0, 1), None
#     Edge 74, Type (0, 1), None
#     Edge 75, Type (0, 1), None
# Relax obj value: 0.063
# Max RMSD: 0.181
# Mean RMSD: 0.087
data_MOF--net-ctn--node1-OLANEW_clean_sbu_2--node2-AZAVOO_clean_sbu_0--edge1-none
_symmetry_space_group_name_H-M    P1
_symmetry_Int_Tables_number       1
_symmetry_cell_setting            triclinic
loop_
_symmetry_equiv_pos_as_xyz
'x, y, z'
_cell_length_a     26.318509
_cell_length_b     27.779168
_cell_length_c     25.984441
_cell_angle_alpha  89.360592
_cell_angle_beta   100.25692
_cell_angle_gamma 102.52287
loop_
_atom_site_label
_atom_site_type_symbol
_atom_site_fract_x
_atom_site_fract_y
_atom_site_fract_z
_atom_type_partial_charge
O0 O 0.05604 0.07358 0.89258 0.0
Cd1 Cd 0.03636 0.98184 0.89672 0.0
O2 O 1.00316 0.07913 0.9474 0.0
Cd3 Cd 0.96146 0.10671 0.00325 0.0
O4 O 0.93559 0.11843 0.07741 0.0
C5 C 0.89081 0.12408 0.08539 0.0
O6 O 0.85218 0.12446 0.04581 0.0
C7 C 0.03465 0.10032 0.91788 0.0
C8 C 0.11187 0.93162 0.94983 0.0
O9 O 0.1122 0.94419 0.90225 0.0
O10 O 0.07762 0.94433 0.97318 0.0
O11 O 0.43565 0.82589 0.33091 0.0
Cd12 Cd 0.36193 0.86929 0.30848 0.0
O13 O 0.37589 0.75737 0.31363 0.0
Cd14 Cd 0.34327 0.67852 0.31574 0.0
O15 O 0.2867 0.60844 0.31495 0.0
C16 C 0.24113 0.61137 0.32255 0.0
O17 O 0.23135 0.65496 0.3297 0.0
C18 C 0.42292 0.77916 0.33301 0.0
C19 C 0.29159 0.85685 0.21281 0.0
O20 O 0.32433 0.89807 0.22528 0.0
O21 O 0.29356 0.82099 0.24397 0.0
O22 O 1.00341 0.50231 0.19626 0.0
Cd23 Cd 0.92111 0.48451 0.13146 0.0
O24 O 0.03911 0.4762 0.13542 0.0
Cd25 Cd 0.09467 0.44481 0.10075 0.0
O26 O 0.09561 0.38528 0.04709 0.0
C27 C 0.05653 0.34889 0.04534 0.0
O28 O 0.02184 0.34976 0.07575 0.0
C29 C 0.04338 0.49118 0.18231 0.0
C30 C 0.87612 0.56408 0.09907 0.0
O31 O 0.86739 0.54176 0.14108 0.0
O32 O 0.90718 0.54975 0.07273 0.0
O33 O 0.80662 0.93595 0.14606 0.0
Cd34 Cd 0.73526 0.86295 0.13161 0.0
O35 O 0.78243 0.93777 0.22174 0.0
Cd36 Cd 0.77137 0.95048 0.30176 0.0
O37 O 0.73061 0.91251 0.36297 0.0
C38 C 0.69536 0.8736 0.34834 0.0
O39 O 0.68496 0.85934 0.29884 0.0
C40 C 0.81295 0.95683 0.19053 0.0
C41 C 0.76894 0.79049 0.08394 0.0
O42 O 0.74337 0.81916 0.0566 0.0
O43 O 0.77769 0.79537 0.1339 0.0
O44 O 0.17095 0.08307 0.59515 0.0
Cd45 Cd 0.11445 0.03728 0.65325 0.0
O46 O 0.09972 0.09281 0.54243 0.0
Cd47 Cd 0.05429 0.11799 0.47355 0.0
O48 O 1.00039 0.1171 0.39983 0.0
C49 C 0.00794 0.09278 0.3619 0.0
O50 O 0.04786 0.07064 0.36845 0.0
C51 C 0.14986 0.10119 0.55384 0.0
C52 C 0.09881 0.93535 0.6424 0.0
O53 O 0.06143 0.95672 0.62322 0.0
O54 O 0.14263 0.96187 0.66602 0.0
O55 O 0.20056 0.66314 0.97172 0.0
Cd56 Cd 0.17065 0.60794 0.89444 0.0
O57 O 0.15232 0.70906 0.92703 0.0
Cd58 Cd 0.12425 0.77477 0.90323 0.0
O59 O 0.10659 0.78323 0.81938 0.0
C60 C 0.14115 0.77759 0.79281 0.0
O61 O 0.18731 0.77092 0.81683 0.0
C62 C 0.18366 0.70271 0.96826 0.0
C63 C 0.23748 0.63 0.82117 0.0
O64 O 0.24591 0.60043 0.85834 0.0
O65 O 0.19733 0.64967 0.81822 0.0
O66 O 0.98151 0.46566 0.43346 0.0
Cd67 Cd 0.91878 0.48627 0.4834 0.0
O68 O 0.03017 0.51467 0.49676 0.0
Cd69 Cd 0.09848 0.56653 0.53968 0.0
O70 O 0.08472 0.62624 0.58487 0.0
C71 C 0.10314 0.67198 0.58063 0.0
O72 O 0.13806 0.68686 0.55029 0.0
C73 C 0.02676 0.48985 0.45511 0.0
C74 C 0.8526 0.40817 0.52131 0.0
O75 O 0.83534 0.43119 0.48124 0.0
O76 O 0.90147 0.42107 0.5426 0.0
O77 O 0.79504 0.63432 0.82565 0.0
Cd78 Cd 0.80652 0.63335 0.73398 0.0
O79 O 0.74018 0.68046 0.79462 0.0
Cd80 Cd 0.69597 0.73795 0.79764 0.0
O81 O 0.68792 0.81398 0.78651 0.0
C82 C 0.65995 0.83422 0.81082 0.0
O83 O 0.63281 0.80852 0.84356 0.0
C84 C 0.76302 0.66038 0.83365 0.0
C85 C 0.90219 0.6905 0.71378 0.0
O86 O 0.86078 0.70867 0.70628 0.0
O87 O 0.89836 0.64687 0.73147 0.0
O88 O 0.29504 0.13432 0.32564 0.0
Cd89 Cd 0.30652 0.13336 0.23397 0.0
O90 O 0.24018 0.18046 0.29462 0.0
Cd91 Cd 0.19597 0.23795 0.29764 0.0
O92 O 0.18792 0.31398 0.28651 0.0
C93 C 0.15995 0.33422 0.31083 0.0
O94 O 0.13281 0.30852 0.34356 0.0
C95 C 0.26302 0.16039 0.33364 0.0
C96 C 0.40219 0.19051 0.21378 0.0
O97 O 0.36078 0.20868 0.20628 0.0
O98 O 0.39836 0.14688 0.23146 0.0
O99 O 0.50341 1.0023 0.69626 0.0
Cd100 Cd 0.42112 0.98451 0.63145 0.0
O101 O 0.53912 0.97619 0.63541 0.0
Cd102 Cd 0.59468 0.94481 0.60075 0.0
O103 O 0.59561 0.88527 0.54708 0.0
C104 C 0.55654 0.84889 0.54533 0.0
O105 O 0.52185 0.84975 0.57574 0.0
C106 C 0.54339 0.99118 0.68231 0.0
C107 C 0.37612 0.06407 0.59906 0.0
O108 O 0.36739 0.04175 0.64107 0.0
O109 O 0.40718 0.04974 0.57272 0.0
O110 O 0.30662 0.43594 0.64606 0.0
Cd111 Cd 0.23527 0.36294 0.63162 0.0
O112 O 0.28244 0.43776 0.72174 0.0
Cd113 Cd 0.27137 0.45048 0.80176 0.0
O114 O 0.2306 0.41252 0.86297 0.0
C115 C 0.19536 0.37361 0.84835 0.0
O116 O 0.18496 0.35934 0.79885 0.0
C117 C 0.31295 0.45682 0.69054 0.0
C118 C 0.26894 0.29048 0.58395 0.0
O119 O 0.24338 0.31915 0.55661 0.0
O120 O 0.2777 0.29536 0.6339 0.0
O121 O 0.93565 0.32589 0.83091 0.0
Cd122 Cd 0.86192 0.36929 0.80848 0.0
O123 O 0.87589 0.25737 0.81363 0.0
Cd124 Cd 0.84327 0.17852 0.81574 0.0
O125 O 0.7867 0.10844 0.81494 0.0
C126 C 0.74113 0.11137 0.82255 0.0
O127 O 0.73135 0.15496 0.82969 0.0
C128 C 0.92291 0.27917 0.83301 0.0
C129 C 0.79158 0.35685 0.71281 0.0
O130 O 0.82432 0.39806 0.72529 0.0
O131 O 0.79356 0.32099 0.74397 0.0
O132 O 0.55603 0.57357 0.39258 0.0
Cd133 Cd 0.53636 0.48183 0.39671 0.0
O134 O 0.50316 0.57913 0.44739 0.0
Cd135 Cd 0.46146 0.6067 0.50325 0.0
O136 O 0.43559 0.61842 0.57741 0.0
C137 C 0.39081 0.62407 0.58539 0.0
O138 O 0.35218 0.62445 0.54581 0.0
C139 C 0.53465 0.60031 0.41787 0.0
C140 C 0.61187 0.43161 0.44982 0.0
O141 O 0.6122 0.44419 0.40225 0.0
O142 O 0.57762 0.44433 0.47317 0.0
O143 O 0.67095 0.58308 0.09516 0.0
Cd144 Cd 0.61445 0.53729 0.15326 0.0
O145 O 0.59972 0.59282 0.04243 0.0
Cd146 Cd 0.55429 0.61799 0.97355 0.0
O147 O 0.50039 0.6171 0.89983 0.0
C148 C 0.50794 0.59278 0.86189 0.0
O149 O 0.54786 0.57064 0.86845 0.0
C150 C 0.64985 0.6012 0.05384 0.0
C151 C 0.59881 0.43537 0.1424 0.0
O152 O 0.56143 0.45674 0.12323 0.0
O153 O 0.64263 0.46189 0.16603 0.0
O154 O 0.70055 0.16313 0.47172 0.0
Cd155 Cd 0.67064 0.10793 0.39444 0.0
O156 O 0.65232 0.20906 0.42703 0.0
Cd157 Cd 0.62426 0.27477 0.40323 0.0
O158 O 0.60659 0.28323 0.31938 0.0
C159 C 0.64115 0.27759 0.2928 0.0
O160 O 0.68731 0.27093 0.31682 0.0
C161 C 0.68366 0.20271 0.46826 0.0
C162 C 0.73748 0.13 0.32117 0.0
O163 O 0.74591 0.10043 0.35834 0.0
O164 O 0.69733 0.14967 0.31822 0.0
O165 O 0.4815 0.96567 0.93345 0.0
Cd166 Cd 0.41878 0.98627 0.98339 0.0
O167 O 0.53016 0.01468 0.99674 0.0
Cd168 Cd 0.59848 0.06655 0.03966 0.0
O169 O 0.58471 0.12625 0.08485 0.0
C170 C 0.60313 0.17199 0.08062 0.0
O171 O 0.63805 0.18687 0.05027 0.0
C172 C 0.52675 0.98986 0.9551 0.0
C173 C 0.3526 0.90818 0.0213 0.0
O174 O 0.33534 0.93119 0.98123 0.0
O175 O 0.40147 0.92107 0.04259 0.0
Mg176 Mg 0.19538 0.83877 0.07368 0.0
O177 O 0.26851 0.87503 0.04056 0.0
O178 O 0.33444 0.83745 0.07179 0.0
Mg179 Mg 0.30061 0.771 0.11789 0.0
C180 C 0.31633 0.87074 0.04486 0.0
C181 C 0.14891 0.90229 0.97648 0.0
O182 O 0.18548 0.89178 0.95287 0.0
O183 O 0.17874 0.77603 0.01206 0.0
O184 O 0.24294 0.73651 0.04403 0.0
O185 O 0.22878 0.88536 0.14698 0.0
O186 O 0.24271 0.81087 0.13604 0.0
C187 C 0.2027 0.74078 0.01013 0.0
C188 C 0.25246 0.8506 0.16418 0.0
O189 O 0.14433 0.88574 0.02174 0.0
Mg190 Mg 0.14097 0.48905 0.34884 0.0
O191 O 0.08805 0.49254 0.26953 0.0
O192 O 0.13451 0.48974 0.20602 0.0
Mg193 Mg 0.21979 0.49019 0.24697 0.0
C194 C 0.09147 0.49159 0.22125 0.0
C195 C 0.07296 0.49258 0.43039 0.0
O196 O 0.11877 0.52044 0.45158 0.0
O197 O 0.13828 0.4081 0.33457 0.0
O198 O 0.19204 0.41153 0.27617 0.0
O199 O 0.16363 0.5703 0.35421 0.0
O200 O 0.2084 0.52355 0.32006 0.0
C201 C 0.16268 0.38736 0.30623 0.0
C202 C 0.20269 0.56693 0.33147 0.0
O203 O 0.06824 0.47136 0.38629 0.0
Mg204 Mg 0.8093 0.68411 0.01184 0.0
O205 O 0.73298 0.63603 0.03173 0.0
O206 O 0.66421 0.66813 0.99683 0.0
Mg207 Mg 0.69793 0.73955 0.95681 0.0
C208 C 0.6836 0.63547 0.02368 0.0
C209 C 0.85025 0.60456 0.08136 0.0
O210 O 0.82295 0.62175 0.11169 0.0
O211 O 0.78925 0.65898 0.92571 0.0
O212 O 0.72636 0.69973 0.89359 0.0
O213 O 0.81778 0.72688 0.08551 0.0
O214 O 0.77532 0.7453 0.00873 0.0
C215 C 0.75824 0.67245 0.88735 0.0
C216 C 0.78853 0.75351 0.05848 0.0
O217 O 0.85254 0.62221 0.03625 0.0
Mg218 Mg 0.87384 0.12215 0.23552 0.0
O219 O 0.83994 0.03906 0.22274 0.0
O220 O 0.89573 0.00767 0.18471 0.0
Mg221 Mg 0.96931 0.0686 0.18114 0.0
C222 C 0.8528 0.00294 0.20255 0.0
C223 C 0.77281 0.14001 0.28266 0.0
O224 O 0.76256 0.16727 0.24214 0.0
O225 O 0.93313 0.10955 0.30614 0.0
O226 O 0.99046 0.07726 0.27086 0.0
O227 O 0.83854 0.13382 0.1513 0.0
O228 O 0.91983 0.1235 0.17736 0.0
C229 C 0.97486 0.09247 0.31028 0.0
C230 C 0.88294 0.12861 0.13963 0.0
O231 O 0.81266 0.12037 0.28813 0.0
Mg232 Mg 0.3093 0.1841 0.51183 0.0
O233 O 0.23298 0.13602 0.53173 0.0
O234 O 0.16421 0.16812 0.49684 0.0
Mg235 Mg 0.19793 0.23954 0.45681 0.0
C236 C 0.1836 0.13546 0.52367 0.0
C237 C 0.35025 0.10455 0.58135 0.0
O238 O 0.32295 0.12174 0.61168 0.0
O239 O 0.28925 0.15898 0.42571 0.0
O240 O 0.22636 0.19973 0.39359 0.0
O241 O 0.31778 0.22687 0.58551 0.0
O242 O 0.27532 0.24529 0.50873 0.0
C243 C 0.25824 0.17245 0.38734 0.0
C244 C 0.28853 0.2535 0.55848 0.0
O245 O 0.35254 0.12221 0.53624 0.0
Mg246 Mg 0.37384 0.62214 0.73552 0.0
O247 O 0.33994 0.53905 0.72274 0.0
O248 O 0.39573 0.50766 0.68471 0.0
Mg249 Mg 0.46931 0.56859 0.68114 0.0
C250 C 0.35281 0.50294 0.70255 0.0
C251 C 0.27281 0.64001 0.78265 0.0
O252 O 0.26257 0.66727 0.74214 0.0
O253 O 0.43313 0.60955 0.80614 0.0
O254 O 0.49046 0.57726 0.77086 0.0
O255 O 0.33854 0.63381 0.6513 0.0
O256 O 0.41983 0.6235 0.67736 0.0
C257 C 0.47486 0.59247 0.81027 0.0
C258 C 0.38294 0.6286 0.63963 0.0
O259 O 0.31266 0.62037 0.78812 0.0
Mg260 Mg 0.69538 0.33876 0.57368 0.0
O261 O 0.76851 0.37503 0.54056 0.0
O262 O 0.83444 0.33745 0.57179 0.0
Mg263 Mg 0.8006 0.27099 0.61789 0.0
C264 C 0.81633 0.37073 0.54486 0.0
C265 C 0.64891 0.40229 0.47647 0.0
O266 O 0.68548 0.39178 0.45287 0.0
O267 O 0.67873 0.27602 0.51206 0.0
O268 O 0.74294 0.2365 0.54403 0.0
O269 O 0.72877 0.38536 0.64698 0.0
O270 O 0.74271 0.31087 0.63604 0.0
C271 C 0.70269 0.24078 0.51013 0.0
C272 C 0.75246 0.35059 0.66418 0.0
O273 O 0.64433 0.38574 0.52173 0.0
Mg274 Mg 0.64098 0.98905 0.84884 0.0
O275 O 0.58805 0.99253 0.76953 0.0
O276 O 0.63452 0.98974 0.70601 0.0
Mg277 Mg 0.71979 0.99018 0.74697 0.0
C278 C 0.59148 0.99159 0.72124 0.0
C279 C 0.57296 0.99259 0.93037 0.0
O280 O 0.61876 0.02045 0.95157 0.0
O281 O 0.63828 0.9081 0.83457 0.0
O282 O 0.69204 0.91153 0.77617 0.0
O283 O 0.66363 0.0703 0.85421 0.0
O284 O 0.7084 0.02355 0.82006 0.0
C285 C 0.66268 0.88735 0.80623 0.0
C286 C 0.70269 0.06693 0.83147 0.0
O287 O 0.56824 0.97136 0.88628 0.0
Mg288 Mg 0.08408 0.24865 0.91842 0.0
O289 O 0.00779 0.2642 0.86758 0.0
O290 O 0.93867 0.22691 0.9029 0.0
Mg291 Mg 0.97056 0.19154 0.97831 0.0
C292 C 0.9581 0.25306 0.86755 0.0
C293 C 0.16723 0.34365 0.88598 0.0
O294 O 0.17851 0.35612 0.93597 0.0
O295 O 0.08019 0.3076 0.97686 0.0
O296 O 0.01206 0.26903 0.01357 0.0
O297 O 0.07647 0.17479 0.87988 0.0
O298 O 0.04237 0.18381 0.94965 0.0
C299 C 0.04946 0.30624 0.00998 0.0
C300 C 0.0503 0.1547 0.91519 0.0
O301 O 0.1327 0.30465 0.86984 0.0
Mg302 Mg 0.58408 0.74865 0.41841 0.0
O303 O 0.50779 0.76419 0.36758 0.0
O304 O 0.43868 0.7269 0.4029 0.0
Mg305 Mg 0.47056 0.69153 0.47831 0.0
C306 C 0.45811 0.75306 0.36755 0.0
C307 C 0.66723 0.84364 0.38598 0.0
O308 O 0.67852 0.85611 0.43597 0.0
O309 O 0.5802 0.8076 0.47686 0.0
O310 O 0.51207 0.76902 0.51357 0.0
O311 O 0.57647 0.67479 0.37987 0.0
O312 O 0.54237 0.68381 0.44965 0.0
C313 C 0.54947 0.80624 0.50998 0.0
C314 C 0.55031 0.65469 0.41519 0.0
O315 O 0.6327 0.80464 0.36984 0.0
Mg316 Mg 0.02999 0.76805 0.63257 0.0
O317 O 0.08086 0.77189 0.71373 0.0
O318 O 0.16701 0.78594 0.70998 0.0
Mg319 Mg 0.17166 0.80016 0.6239 0.0
C320 C 0.12916 0.77817 0.73569 0.0
C321 C 0.95226 0.7163 0.69896 0.0
O322 O 0.99253 0.69471 0.70811 0.0
O323 O 0.04843 0.85268 0.63609 0.0
O324 O 0.13512 0.86701 0.63257 0.0
O325 O 0.03377 0.69059 0.61915 0.0
O326 O 0.09229 0.75382 0.59769 0.0
C327 C 0.09328 0.88207 0.63617 0.0
C328 C 0.07648 0.70684 0.60074 0.0
O329 O 0.95541 0.75442 0.67077 0.0
Mg330 Mg 0.52999 0.26807 0.13256 0.0
O331 O 0.58086 0.2719 0.21372 0.0
O332 O 0.66701 0.28595 0.20997 0.0
Mg333 Mg 0.67165 0.30017 0.12389 0.0
C334 C 0.62916 0.27818 0.23568 0.0
C335 C 0.45226 0.21631 0.19896 0.0
O336 O 0.49252 0.19472 0.2081 0.0
O337 O 0.54843 0.35269 0.13609 0.0
O338 O 0.63512 0.36703 0.13257 0.0
O339 O 0.53376 0.1906 0.11914 0.0
O340 O 0.59228 0.25384 0.09768 0.0
C341 C 0.59328 0.38208 0.13617 0.0
C342 C 0.57647 0.20685 0.10073 0.0
O343 O 0.4554 0.25443 0.17077 0.0
loop_
_geom_bond_atom_site_label_1
_geom_bond_atom_site_label_2
_geom_bond_distance
_geom_bond_site_symmetry_2
_ccdc_geom_bond_type
O0 Cd1 2.300 1_556 S
O0 C7 1.275 . S
Cd1 O0 2.300 1_554 S
Cd1 O9 2.381 1_544 S
Cd1 O10 2.378 1_545 S
O2 Cd3 2.385 . S
O2 C7 1.255 1_554 S
Cd3 O2 2.385 . S
Cd3 O4 2.317 1_455 S
O4 Cd3 2.317 1_655 S
O4 C5 1.232 . S
C5 O4 1.232 . S
C5 O6 1.218 . S
O6 C5 1.218 . S
C7 O0 1.275 . S
C7 O2 1.255 1_556 S
C8 O9 1.258 . S
C8 O10 1.256 1_556 S
O9 Cd1 2.381 1_566 S
O9 C8 1.258 . S
O10 Cd1 2.378 1_565 S
O10 C8 1.256 1_554 S
O11 Cd12 2.300 . S
O11 C18 1.275 . S
Cd12 O11 2.300 . S
Cd12 O20 2.381 . S
Cd12 O21 2.378 . S
O13 Cd14 2.385 . S
O13 C18 1.255 . S
Cd14 O13 2.385 . S
Cd14 O15 2.317 . S
O15 Cd14 2.317 . S
O15 C16 1.232 . S
C16 O15 1.232 . S
C16 O17 1.218 . S
O17 C16 1.218 . S
C18 O11 1.275 . S
C18 O13 1.255 . S
C19 O20 1.258 . S
C19 O21 1.256 . S
O20 Cd12 2.381 . S
O20 C19 1.258 . S
O21 Cd12 2.378 . S
O21 C19 1.256 . S
O22 Cd23 2.300 . S
O22 C29 1.275 1_655 S
Cd23 O22 2.300 . S
Cd23 O31 2.381 . S
Cd23 O32 2.378 . S
O24 Cd25 2.385 . S
O24 C29 1.255 . S
Cd25 O24 2.385 . S
Cd25 O26 2.317 . S
O26 Cd25 2.317 . S
O26 C27 1.232 . S
C27 O26 1.232 . S
C27 O28 1.218 . S
O28 C27 1.218 . S
C29 O22 1.275 1_455 S
C29 O24 1.255 . S
C30 O31 1.258 . S
C30 O32 1.256 . S
O31 Cd23 2.381 . S
O31 C30 1.258 . S
O32 Cd23 2.378 . S
O32 C30 1.256 . S
O33 Cd34 2.300 . S
O33 C40 1.275 . S
Cd34 O33 2.300 . S
Cd34 O42 2.381 . S
Cd34 O43 2.378 . S
O35 Cd36 2.385 . S
O35 C40 1.255 . S
Cd36 O35 2.385 . S
Cd36 O37 2.317 . S
O37 Cd36 2.317 . S
O37 C38 1.232 . S
C38 O37 1.232 . S
C38 O39 1.218 . S
O39 C38 1.218 . S
C40 O33 1.275 . S
C40 O35 1.255 . S
C41 O42 1.258 . S
C41 O43 1.256 . S
O42 Cd34 2.381 . S
O42 C41 1.258 . S
O43 Cd34 2.378 . S
O43 C41 1.256 . S
O44 Cd45 2.300 1_545 S
O44 C51 1.275 . S
Cd45 O44 2.300 1_565 S
Cd45 O53 2.381 . S
Cd45 O54 2.378 . S
O46 Cd47 2.385 . S
O46 C51 1.255 . S
Cd47 O46 2.385 . S
Cd47 O48 2.317 1_455 S
O48 Cd47 2.317 1_655 S
O48 C49 1.232 . S
C49 O48 1.232 . S
C49 O50 1.218 1_655 S
O50 C49 1.218 1_455 S
C51 O44 1.275 . S
C51 O46 1.255 . S
C52 O53 1.258 . S
C52 O54 1.256 . S
O53 Cd45 2.381 . S
O53 C52 1.258 . S
O54 Cd45 2.378 . S
O54 C52 1.256 . S
O55 Cd56 2.300 . S
O55 C62 1.275 . S
Cd56 O55 2.300 . S
Cd56 O64 2.381 . S
Cd56 O65 2.378 . S
O57 Cd58 2.385 . S
O57 C62 1.255 . S
Cd58 O57 2.385 . S
Cd58 O59 2.317 . S
O59 Cd58 2.317 . S
O59 C60 1.232 . S
C60 O59 1.232 . S
C60 O61 1.218 . S
O61 C60 1.218 . S
C62 O55 1.275 . S
C62 O57 1.255 . S
C63 O64 1.258 . S
C63 O65 1.256 . S
O64 Cd56 2.381 . S
O64 C63 1.258 . S
O65 Cd56 2.378 . S
O65 C63 1.256 . S
O66 Cd67 2.300 . S
O66 C73 1.275 1_655 S
Cd67 O66 2.300 . S
Cd67 O75 2.381 . S
Cd67 O76 2.378 . S
O68 Cd69 2.385 . S
O68 C73 1.255 . S
Cd69 O68 2.385 . S
Cd69 O70 2.317 . S
O70 Cd69 2.317 . S
O70 C71 1.232 . S
C71 O70 1.232 . S
C71 O72 1.218 . S
O72 C71 1.218 . S
C73 O66 1.275 1_455 S
C73 O68 1.255 . S
C74 O75 1.258 . S
C74 O76 1.256 . S
O75 Cd67 2.381 . S
O75 C74 1.258 . S
O76 Cd67 2.378 . S
O76 C74 1.256 . S
O77 Cd78 2.300 . S
O77 C84 1.275 . S
Cd78 O77 2.300 . S
Cd78 O86 2.381 . S
Cd78 O87 2.378 . S
O79 Cd80 2.385 . S
O79 C84 1.255 . S
Cd80 O79 2.385 . S
Cd80 O81 2.317 . S
O81 Cd80 2.317 . S
O81 C82 1.232 . S
C82 O81 1.232 . S
C82 O83 1.218 . S
O83 C82 1.218 . S
C84 O77 1.275 . S
C84 O79 1.255 . S
C85 O86 1.258 . S
C85 O87 1.256 . S
O86 Cd78 2.381 . S
O86 C85 1.258 . S
O87 Cd78 2.378 . S
O87 C85 1.256 . S
O88 Cd89 2.300 . S
O88 C95 1.275 . S
Cd89 O88 2.300 . S
Cd89 O97 2.381 . S
Cd89 O98 2.378 . S
O90 Cd91 2.385 . S
O90 C95 1.255 . S
Cd91 O90 2.385 . S
Cd91 O92 2.317 . S
O92 Cd91 2.317 . S
O92 C93 1.232 . S
C93 O92 1.232 . S
C93 O94 1.218 . S
O94 C93 1.218 . S
C95 O88 1.275 . S
C95 O90 1.255 . S
C96 O97 1.258 . S
C96 O98 1.256 . S
O97 Cd89 2.381 . S
O97 C96 1.258 . S
O98 Cd89 2.378 . S
O98 C96 1.256 . S
O99 Cd100 2.300 . S
O99 C106 1.275 1_545 S
Cd100 O99 2.300 . S
Cd100 O108 2.381 . S
Cd100 O109 2.378 . S
O101 Cd102 2.385 . S
O101 C106 1.255 . S
Cd102 O101 2.385 . S
Cd102 O103 2.317 . S
O103 Cd102 2.317 . S
O103 C104 1.232 . S
C104 O103 1.232 . S
C104 O105 1.218 . S
O105 C104 1.218 . S
C106 O99 1.275 1_565 S
C106 O101 1.255 . S
C107 O108 1.258 . S
C107 O109 1.256 . S
O108 Cd100 2.381 . S
O108 C107 1.258 . S
O109 Cd100 2.378 . S
O109 C107 1.256 . S
O110 Cd111 2.300 . S
O110 C117 1.275 . S
Cd111 O110 2.300 . S
Cd111 O119 2.381 . S
Cd111 O120 2.378 . S
O112 Cd113 2.385 . S
O112 C117 1.255 . S
Cd113 O112 2.385 . S
Cd113 O114 2.317 . S
O114 Cd113 2.317 . S
O114 C115 1.232 . S
C115 O114 1.232 . S
C115 O116 1.218 . S
O116 C115 1.218 . S
C117 O110 1.275 . S
C117 O112 1.255 . S
C118 O119 1.258 . S
C118 O120 1.256 . S
O119 Cd111 2.381 . S
O119 C118 1.258 . S
O120 Cd111 2.378 . S
O120 C118 1.256 . S
O121 Cd122 2.300 . S
O121 C128 1.275 . S
Cd122 O121 2.300 . S
Cd122 O130 2.381 . S
Cd122 O131 2.378 . S
O123 Cd124 2.385 . S
O123 C128 1.255 . S
Cd124 O123 2.385 . S
Cd124 O125 2.317 . S
O125 Cd124 2.317 . S
O125 C126 1.232 . S
C126 O125 1.232 . S
C126 O127 1.218 . S
O127 C126 1.218 . S
C128 O121 1.275 . S
C128 O123 1.255 . S
C129 O130 1.258 . S
C129 O131 1.256 . S
O130 Cd122 2.381 . S
O130 C129 1.258 . S
O131 Cd122 2.378 . S
O131 C129 1.256 . S
O132 Cd133 2.300 . S
O132 C139 1.275 . S
Cd133 O132 2.300 . S
Cd133 O141 2.381 . S
Cd133 O142 2.378 . S
O134 Cd135 2.385 . S
O134 C139 1.255 . S
Cd135 O134 2.385 . S
Cd135 O136 2.317 . S
O136 Cd135 2.317 . S
O136 C137 1.232 . S
C137 O136 1.232 . S
C137 O138 1.218 . S
O138 C137 1.218 . S
C139 O132 1.275 . S
C139 O134 1.255 . S
C140 O141 1.258 . S
C140 O142 1.256 . S
O141 Cd133 2.381 . S
O141 C140 1.258 . S
O142 Cd133 2.378 . S
O142 C140 1.256 . S
O143 Cd144 2.300 . S
O143 C150 1.278 . S
Cd144 O143 2.300 . S
Cd144 O152 2.381 . S
Cd144 O153 2.378 . S
O145 Cd146 2.385 . S
O145 C150 1.258 1_556 S
Cd146 O145 2.385 . S
Cd146 O147 2.317 . S
O147 Cd146 2.317 . S
O147 C148 1.232 . S
C148 O147 1.232 . S
C148 O149 1.218 . S
O149 C148 1.218 . S
C150 O143 1.278 . S
C150 O145 1.258 1_554 S
C151 O152 1.258 . S
C151 O153 1.256 . S
O152 Cd144 2.381 . S
O152 C151 1.258 . S
O153 Cd144 2.378 . S
O153 C151 1.256 . S
O154 Cd155 2.300 . S
O154 C161 1.275 . S
Cd155 O154 2.300 . S
Cd155 O163 2.381 . S
Cd155 O164 2.378 . S
O156 Cd157 2.385 . S
O156 C161 1.255 . S
Cd157 O156 2.385 . S
Cd157 O158 2.317 . S
O158 Cd157 2.317 . S
O158 C159 1.232 . S
C159 O158 1.232 . S
C159 O160 1.218 . S
O160 C159 1.218 . S
C161 O154 1.275 . S
C161 O156 1.255 . S
C162 O163 1.258 . S
C162 O164 1.256 . S
O163 Cd155 2.381 . S
O163 C162 1.258 . S
O164 Cd155 2.378 . S
O164 C162 1.256 . S
O165 Cd166 2.300 1_556 S
O165 C172 1.275 1_565 S
Cd166 O165 2.300 1_554 S
Cd166 O174 2.381 1_554 S
Cd166 O175 2.378 . S
O167 Cd168 2.385 . S
O167 C172 1.255 1_554 S
Cd168 O167 2.385 . S
Cd168 O169 2.317 . S
O169 Cd168 2.317 . S
O169 C170 1.232 . S
C170 O169 1.232 . S
C170 O171 1.218 . S
O171 C170 1.218 . S
C172 O165 1.275 1_545 S
C172 O167 1.255 1_556 S
C173 O174 1.258 . S
C173 O175 1.256 1_556 S
O174 Cd166 2.381 1_556 S
O174 C173 1.258 . S
O175 Cd166 2.378 . S
O175 C173 1.256 1_554 S
Mg176 O177 2.028 . S
Mg176 O183 1.986 1_554 S
Mg176 O185 2.114 . S
Mg176 O186 2.251 . S
Mg176 O189 2.010 . S
O177 Mg176 2.028 . S
O177 C180 1.250 . S
O178 Mg179 2.029 1_554 S
O178 C180 1.250 . S
Mg179 O178 2.029 1_556 S
Mg179 O184 2.032 . S
Mg179 O186 2.079 1_556 S
C180 O177 1.250 . S
C180 O178 1.250 . S
C181 O182 1.264 . S
C181 O189 1.255 . S
O182 C181 1.264 . S
O183 Mg176 1.986 1_556 S
O183 C187 1.246 . S
O184 Mg179 2.032 . S
O184 C187 1.259 . S
O185 Mg176 2.114 . S
O185 C188 1.252 . S
O186 Mg176 2.251 . S
O186 Mg179 2.079 1_554 S
O186 C188 1.273 . S
C187 O183 1.246 . S
C187 O184 1.259 . S
C188 O185 1.252 . S
C188 O186 1.273 . S
O189 Mg176 2.010 . S
O189 C181 1.255 . S
Mg190 O191 2.028 . S
Mg190 O197 1.986 . S
Mg190 O199 2.114 . S
Mg190 O200 2.251 . S
Mg190 O203 2.010 . S
O191 Mg190 2.028 . S
O191 C194 1.250 . S
O192 Mg193 2.028 . S
O192 C194 1.248 . S
Mg193 O192 2.028 . S
Mg193 O198 2.032 . S
Mg193 O200 2.079 . S
C194 O191 1.250 . S
C194 O192 1.248 . S
C195 O196 1.264 . S
C195 O203 1.249 . S
O196 C195 1.264 . S
O197 Mg190 1.986 . S
O197 C201 1.246 . S
O198 Mg193 2.032 . S
O198 C201 1.259 . S
O199 Mg190 2.114 . S
O199 C202 1.252 . S
O200 Mg190 2.251 . S
O200 Mg193 2.079 . S
O200 C202 1.273 . S
C201 O197 1.246 . S
C201 O198 1.259 . S
C202 O199 1.252 . S
C202 O200 1.273 . S
O203 Mg190 2.010 . S
O203 C195 1.249 . S
Mg204 O205 2.028 . S
Mg204 O211 1.986 1_554 S
Mg204 O213 2.114 . S
Mg204 O214 2.251 . S
Mg204 O217 2.010 . S
O205 Mg204 2.028 . S
O205 C208 1.250 1_554 S
O206 Mg207 2.028 . S
O206 C208 1.248 . S
Mg207 O206 2.028 . S
Mg207 O212 2.032 . S
Mg207 O214 2.079 1_556 S
C208 O205 1.250 1_556 S
C208 O206 1.248 . S
C209 O210 1.264 . S
C209 O217 1.249 . S
O210 C209 1.264 . S
O211 Mg204 1.986 1_556 S
O211 C215 1.246 . S
O212 Mg207 2.032 . S
O212 C215 1.259 . S
O213 Mg204 2.114 . S
O213 C216 1.252 . S
O214 Mg204 2.251 . S
O214 Mg207 2.079 1_554 S
O214 C216 1.273 . S
C215 O211 1.246 . S
C215 O212 1.259 . S
C216 O213 1.252 . S
C216 O214 1.273 . S
O217 Mg204 2.010 . S
O217 C209 1.249 . S
Mg218 O219 2.028 . S
Mg218 O225 1.986 . S
Mg218 O227 2.114 . S
Mg218 O228 2.251 . S
Mg218 O231 2.010 . S
O219 Mg218 2.028 . S
O219 C222 1.250 1_545 S
O220 Mg221 2.028 . S
O220 C222 1.248 . S
Mg221 O220 2.028 . S
Mg221 O226 2.032 . S
Mg221 O228 2.079 1_565 S
C222 O219 1.250 1_565 S
C222 O220 1.248 . S
C223 O224 1.264 . S
C223 O231 1.249 . S
O224 C223 1.264 . S
O225 Mg218 1.986 . S
O225 C229 1.246 . S
O226 Mg221 2.032 . S
O226 C229 1.259 1_565 S
O227 Mg218 2.114 . S
O227 C230 1.252 . S
O228 Mg218 2.251 . S
O228 Mg221 2.079 1_545 S
O228 C230 1.273 . S
C229 O225 1.246 . S
C229 O226 1.259 1_545 S
C230 O227 1.252 . S
C230 O228 1.273 . S
O231 Mg218 2.010 . S
O231 C223 1.249 . S
Mg232 O233 2.028 . S
Mg232 O239 1.986 . S
Mg232 O241 2.114 . S
Mg232 O242 2.251 . S
Mg232 O245 2.010 . S
O233 Mg232 2.028 . S
O233 C236 1.250 . S
O234 Mg235 2.028 . S
O234 C236 1.248 . S
Mg235 O234 2.028 . S
Mg235 O240 2.032 . S
Mg235 O242 2.079 . S
C236 O233 1.250 . S
C236 O234 1.248 . S
C237 O238 1.264 . S
C237 O245 1.249 . S
O238 C237 1.264 . S
O239 Mg232 1.986 . S
O239 C243 1.246 . S
O240 Mg235 2.032 . S
O240 C243 1.259 . S
O241 Mg232 2.114 . S
O241 C244 1.252 . S
O242 Mg232 2.251 . S
O242 Mg235 2.079 . S
O242 C244 1.273 . S
C243 O239 1.246 . S
C243 O240 1.259 . S
C244 O241 1.252 . S
C244 O242 1.273 . S
O245 Mg232 2.010 . S
O245 C237 1.249 . S
Mg246 O247 2.028 . S
Mg246 O253 1.986 . S
Mg246 O255 2.114 . S
Mg246 O256 2.251 . S
Mg246 O259 2.010 . S
O247 Mg246 2.028 . S
O247 C250 1.250 . S
O248 Mg249 2.028 . S
O248 C250 1.248 . S
Mg249 O248 2.028 . S
Mg249 O254 2.032 . S
Mg249 O256 2.079 . S
C250 O247 1.250 . S
C250 O248 1.248 . S
C251 O252 1.264 . S
C251 O259 1.249 . S
O252 C251 1.264 . S
O253 Mg246 1.986 . S
O253 C257 1.246 . S
O254 Mg249 2.032 . S
O254 C257 1.259 . S
O255 Mg246 2.114 . S
O255 C258 1.252 . S
O256 Mg246 2.251 . S
O256 Mg249 2.079 . S
O256 C258 1.273 . S
C257 O253 1.246 . S
C257 O254 1.259 . S
C258 O255 1.252 . S
C258 O256 1.273 . S
O259 Mg246 2.010 . S
O259 C251 1.249 . S
Mg260 O261 2.028 . S
Mg260 O267 1.986 . S
Mg260 O269 2.114 . S
Mg260 O270 2.251 . S
Mg260 O273 2.010 . S
O261 Mg260 2.028 . S
O261 C264 1.250 . S
O262 Mg263 2.028 . S
O262 C264 1.248 . S
Mg263 O262 2.028 . S
Mg263 O268 2.032 . S
Mg263 O270 2.079 . S
C264 O261 1.250 . S
C264 O262 1.248 . S
C265 O266 1.264 . S
C265 O273 1.249 . S
O266 C265 1.264 . S
O267 Mg260 1.986 . S
O267 C271 1.246 . S
O268 Mg263 2.032 . S
O268 C271 1.259 . S
O269 Mg260 2.114 . S
O269 C272 1.252 . S
O270 Mg260 2.251 . S
O270 Mg263 2.079 . S
O270 C272 1.273 . S
C271 O267 1.246 . S
C271 O268 1.259 . S
C272 O269 1.252 . S
C272 O270 1.273 . S
O273 Mg260 2.010 . S
O273 C265 1.249 . S
Mg274 O275 2.028 1_545 S
Mg274 O281 1.986 1_545 S
Mg274 O283 2.114 . S
Mg274 O284 2.251 . S
Mg274 O287 2.010 . S
O275 Mg274 2.028 1_565 S
O275 C278 1.250 . S
O276 Mg277 2.028 . S
O276 C278 1.248 . S
Mg277 O276 2.028 . S
Mg277 O282 2.032 . S
Mg277 O284 2.079 1_565 S
C278 O275 1.250 . S
C278 O276 1.248 . S
C279 O280 1.264 . S
C279 O287 1.249 . S
O280 C279 1.264 . S
O281 Mg274 1.986 1_565 S
O281 C285 1.246 . S
O282 Mg277 2.032 . S
O282 C285 1.259 . S
O283 Mg274 2.114 . S
O283 C286 1.252 . S
O284 Mg274 2.251 . S
O284 Mg277 2.079 1_545 S
O284 C286 1.273 . S
C285 O281 1.246 . S
C285 O282 1.259 . S
C286 O283 1.252 . S
C286 O284 1.273 . S
O287 Mg274 2.010 . S
O287 C279 1.249 . S
Mg288 O289 2.028 1_455 S
Mg288 O295 1.986 . S
Mg288 O297 2.114 . S
Mg288 O298 2.251 1_455 S
Mg288 O301 2.010 . S
O289 Mg288 2.028 1_655 S
O289 C292 1.250 . S
O290 Mg291 2.028 . S
O290 C292 1.248 . S
Mg291 O290 2.028 . S
Mg291 O296 2.032 1_556 S
Mg291 O298 2.079 . S
C292 O289 1.250 . S
C292 O290 1.248 . S
C293 O294 1.264 . S
C293 O301 1.249 . S
O294 C293 1.264 . S
O295 Mg288 1.986 . S
O295 C299 1.246 1_556 S
O296 Mg291 2.032 1_554 S
O296 C299 1.259 1_655 S
O297 Mg288 2.114 . S
O297 C300 1.252 . S
O298 Mg288 2.251 1_655 S
O298 Mg291 2.079 . S
O298 C300 1.273 1_655 S
C299 O295 1.246 1_554 S
C299 O296 1.259 1_455 S
C300 O297 1.252 . S
C300 O298 1.273 1_455 S
O301 Mg288 2.010 . S
O301 C293 1.249 . S
Mg302 O303 2.028 . S
Mg302 O309 1.986 . S
Mg302 O311 2.114 . S
Mg302 O312 2.251 . S
Mg302 O315 2.010 . S
O303 Mg302 2.028 . S
O303 C306 1.250 . S
O304 Mg305 2.028 . S
O304 C306 1.248 . S
Mg305 O304 2.028 . S
Mg305 O310 2.032 . S
Mg305 O312 2.079 . S
C306 O303 1.250 . S
C306 O304 1.248 . S
C307 O308 1.264 . S
C307 O315 1.249 . S
O308 C307 1.264 . S
O309 Mg302 1.986 . S
O309 C313 1.246 . S
O310 Mg305 2.032 . S
O310 C313 1.259 . S
O311 Mg302 2.114 . S
O311 C314 1.252 . S
O312 Mg302 2.251 . S
O312 Mg305 2.079 . S
O312 C314 1.273 . S
C313 O309 1.246 . S
C313 O310 1.259 . S
C314 O311 1.252 . S
C314 O312 1.273 . S
O315 Mg302 2.010 . S
O315 C307 1.249 . S
Mg316 O317 2.016 1_655 S
Mg316 O323 1.982 1_655 S
Mg316 O325 2.114 . S
Mg316 O326 2.238 1_655 S
Mg316 O329 2.027 . S
O317 Mg316 2.016 1_455 S
O317 C320 1.250 . S
O318 Mg319 2.028 . S
O318 C320 1.248 . S
Mg319 O318 2.028 . S
Mg319 O324 2.032 . S
Mg319 O326 2.079 . S
C320 O317 1.250 . S
C320 O318 1.248 . S
C321 O322 1.264 . S
C321 O329 1.249 . S
O322 C321 1.264 . S
O323 Mg316 1.982 1_455 S
O323 C327 1.246 . S
O324 Mg319 2.032 . S
O324 C327 1.259 . S
O325 Mg316 2.114 . S
O325 C328 1.252 1_655 S
O326 Mg316 2.238 1_455 S
O326 Mg319 2.079 . S
O326 C328 1.273 . S
C327 O323 1.246 . S
C327 O324 1.259 . S
C328 O325 1.252 1_455 S
C328 O326 1.273 . S
O329 Mg316 2.027 . S
O329 C321 1.249 . S
Mg330 O331 2.028 . S
Mg330 O337 1.986 . S
Mg330 O339 2.114 . S
Mg330 O340 2.251 . S
Mg330 O343 2.010 . S
O331 Mg330 2.028 . S
O331 C334 1.250 . S
O332 Mg333 2.028 . S
O332 C334 1.248 . S
Mg333 O332 2.028 . S
Mg333 O338 2.032 . S
Mg333 O340 2.079 . S
C334 O331 1.250 . S
C334 O332 1.248 . S
C335 O336 1.264 . S
C335 O343 1.249 . S
O336 C335 1.264 . S
O337 Mg330 1.986 . S
O337 C341 1.246 . S
O338 Mg333 2.032 . S
O338 C341 1.259 . S
O339 Mg330 2.114 . S
O339 C342 1.252 . S
O340 Mg330 2.251 . S
O340 Mg333 2.079 . S
O340 C342 1.273 . S
C341 O337 1.246 . S
C341 O338 1.259 . S
C342 O339 1.252 . S
C342 O340 1.273 . S
O343 Mg330 2.010 . S
O343 C335 1.249 . S
C187 C62 0.968 . S
C195 C73 1.345 . S
C84 C215 1.428 . S
C229 C49 1.492 . S
C244 C118 1.351 . S
C258 C137 1.493 . S
C129 C272 1.776 . S
C278 C106 1.904 . S
C128 C292 2.008 . S
C313 C104 1.695 . S
C115 C293 1.270 . S
C314 C139 1.872 . S
C85 C321 1.210 . S
C52 C327 1.293 . S
C60 C320 1.096 . S
C71 C328 2.021 . S
C40 C222 1.796 . S
C162 C223 0.977 . S
C180 C173 1.115 1_554 S
C201 C93 1.820 . S
C51 C236 1.437 . S
C286 C126 1.521 . S
C237 C107 1.438 . S
C265 C140 1.630 . S
C271 C161 0.968 . S
C172 C279 1.343 . S
C95 C243 1.428 . S
C257 C148 1.496 . S
C41 C216 1.350 . S
C230 C5 1.492 . S
C188 C19 1.777 . S
C194 C29 1.905 . S
C18 C306 2.008 . S
C27 C299 1.695 . S
C38 C307 1.270 . S
C7 C300 1.872 . S
C335 C96 1.210 . S
C341 C151 1.297 . S
C334 C159 1.096 . S
C170 C342 2.021 . S
C117 C250 1.797 . S
C251 C63 0.977 . S
C264 C74 1.114 . S
C285 C82 1.823 . S
C150 C208 1.432 1_554 S
C202 C16 1.522 . S
C30 C209 1.438 . S
C181 C8 1.630 1_554 S
