# Generated by pormake.
# Topology scu, (8,4)-cn, num edge types: 1
# Building blocks:
#     Node 0, Type 0, BuildingBlock: VETTIZ_charged_sbu_0, # of connection points: 8
#     Node 1, Type 1, BuildingBlock: KOZSID_clean_sbu_0, # of connection points: 4
#     Node 2, Type 1, BuildingBlock: KOZSID_clean_sbu_0, # of connection points: 4
#     Edge 3, Type (0, 1), BuildingBlock: ZUJKAS_clean_linker_0, # of connection points: 2
#     Edge 4, Type (0, 1), BuildingBlock: ZUJKAS_clean_linker_0, # of connection points: 2
#     Edge 5, Type (0, 1), BuildingBlock: ZUJKAS_clean_linker_0, # of connection points: 2
#     Edge 6, Type (0, 1), BuildingBlock: ZUJKAS_clean_linker_0, # of connection points: 2
#     Edge 7, Type (0, 1), BuildingBlock: ZUJKAS_clean_linker_0, # of connection points: 2
#     Edge 8, Type (0, 1), BuildingBlock: ZUJKAS_clean_linker_0, # of connection points: 2
#     Edge 9, Type (0, 1), BuildingBlock: ZUJKAS_clean_linker_0, # of connection points: 2
#     Edge 10, Type (0, 1), BuildingBlock: ZUJKAS_clean_linker_0, # of connection points: 2
# Relax obj value: 0.001
# Max RMSD: 0.023
# Mean RMSD: 0.014
data_MOF--net-scu--node1-VETTIZ_charged_sbu_0--node2-KOZSID_clean_sbu_0--edge1-ZUJKAS_clean_linker_0
_symmetry_space_group_name_H-M    P1
_symmetry_Int_Tables_number       1
_symmetry_cell_setting            triclinic
loop_
_symmetry_equiv_pos_as_xyz
'x, y, z'
_cell_length_a     35.873582
_cell_length_b     35.877478
_cell_length_c     25.803427
_cell_angle_alpha  87.107838
_cell_angle_beta   87.094663
_cell_angle_gamma 91.421406
loop_
_atom_site_label
_atom_site_type_symbol
_atom_site_fract_x
_atom_site_fract_y
_atom_site_fract_z
_atom_type_partial_charge
Fe0 Fe 0.98262 0.98257 0.12415 0.0
O1 O 0.98523 0.98802 0.04799 0.0
Fe2 Fe 0.03582 0.97535 0.00843 0.0
Fe3 Fe 0.97439 0.03565 0.00864 0.0
O4 O 0.98798 0.98528 0.04796 0.0
O5 O 0.02511 0.02308 0.96922 0.0
O6 O 0.0223 0.02579 0.96921 0.0
Fe7 Fe 0.02764 0.02853 0.89301 0.0
C8 C 0.90909 0.0142 0.09029 0.0
O9 O 0.98241 0.03939 0.13453 0.0
O10 O 1.00312 0.06713 0.05904 0.0
O11 O 0.08397 0.02414 0.90413 0.0
O12 O 0.08547 0.97239 0.96103 0.0
O13 O 0.06688 1.0045 0.05894 0.0
O14 O 0.03943 0.98332 0.13439 0.0
O15 O 0.97038 0.08515 0.96128 0.0
O16 O 0.02235 0.0847 0.90449 0.0
C17 C 0.06755 0.99771 0.1078 0.0
O18 O 0.02788 0.97176 0.88256 0.0
O19 O 0.00693 0.94405 0.95792 0.0
O20 O 0.92631 0.98693 0.11302 0.0
O21 O 0.92471 0.03858 0.05598 0.0
C22 C 0.99629 0.06775 0.1079 0.0
C23 C 0.99468 0.10127 0.92731 0.0
C24 C 0.94276 0.01301 0.90945 0.0
O25 O 0.94357 0.00626 0.95828 0.0
O26 O 0.97074 0.02765 0.88274 0.0
C27 C 0.10116 0.99683 0.92684 0.0
O28 O 0.03958 0.92571 0.05551 0.0
O29 O 0.98793 0.92637 0.11278 0.0
C30 C 0.01374 0.94348 0.90905 0.0
C31 C 0.01539 0.90963 0.0897 0.0
C32 C 0.0502 0.55738 0.42692 0.0
C33 C 0.08675 0.56816 0.41181 0.0
C34 C 0.10917 0.54822 0.44338 0.0
C35 C 0.08518 0.52662 0.47597 0.0
N36 N 0.04872 0.53126 0.46697 0.0
Co37 Co 1.00455 0.50635 0.50685 0.0
N38 N 0.03764 0.47799 0.5545 0.0
C39 C 0.07541 0.47936 0.55291 0.0
C40 C 0.09054 0.45555 0.58876 0.0
C41 C 0.06071 0.43761 0.6147 0.0
C42 C 0.02887 0.45179 0.59334 0.0
N43 N 0.96038 0.4817 0.54692 0.0
C44 C 0.95886 0.45579 0.5872 0.0
C45 C 0.92228 0.44652 0.60409 0.0
C46 C 0.89987 0.46664 0.57272 0.0
C47 C 0.92389 0.48717 0.53885 0.0
N48 N 0.97146 0.53446 0.45899 0.0
C49 C 0.93372 0.53245 0.45969 0.0
C50 C 0.91873 0.55498 0.42215 0.0
C51 C 0.94863 0.57272 0.39602 0.0
C52 C 0.98026 0.56004 0.41944 0.0
N53 N 0.00594 0.4643 0.45912 0.0
C54 C 0.00768 0.40304 0.39401 0.0
C55 C 0.97402 0.41948 0.40845 0.0
C56 C 0.97379 0.44975 0.44065 0.0
C57 C 0.04048 0.41819 0.41239 0.0
C58 C 0.039 0.4485 0.44447 0.0
N59 N 1.00316 0.5484 0.5546 0.0
C60 C 0.96899 0.59594 0.59895 0.0
C61 C 1.00153 0.60961 0.61986 0.0
C62 C 0.03484 0.5917 0.60786 0.0
C63 C 0.03501 0.56146 0.5756 0.0
C64 C 0.97042 0.56567 0.5668 0.0
H65 H 0.06136 0.54934 0.56785 0.0
H66 H 0.94464 0.55687 0.55214 0.0
H67 H 0.94718 0.46068 0.45043 0.0
H68 H 0.06501 0.45855 0.45705 0.0
C69 C 0.09599 0.5023 0.51603 0.0
C70 C 0.01791 0.57372 0.40323 0.0
C71 C 0.99107 0.43851 0.60998 0.0
C72 C 0.91307 0.51052 0.49769 0.0
H73 H 0.09626 0.5887 0.38157 0.0
H74 H 0.13936 0.5497 0.44312 0.0
H75 H 0.11981 0.45118 0.5946 0.0
H76 H 0.06241 0.41603 0.64522 0.0
H77 H 0.91276 0.42687 0.63546 0.0
H78 H 0.86965 0.46593 0.57392 0.0
H79 H 0.8895 0.55856 0.41516 0.0
H80 H 0.94729 0.59303 0.36375 0.0
H81 H 0.94772 0.40863 0.39587 0.0
H82 H 0.0674 0.40696 0.40178 0.0
H83 H 0.94231 0.60832 0.60758 0.0
H84 H 0.06098 0.60135 0.62242 0.0
C85 C 0.45454 0.96008 0.59065 0.0
C86 C 0.44445 0.92361 0.60703 0.0
C87 C 0.46439 0.90099 0.5757 0.0
C88 C 0.48539 0.9248 0.54208 0.0
N89 N 0.48028 0.96134 0.55014 0.0
Co90 Co 0.50498 0.00529 0.50954 0.0
N91 N 0.53264 0.97191 0.46162 0.0
C92 C 0.53013 0.9342 0.46223 0.0
C93 C 0.55227 0.91898 0.42444 0.0
C94 C 0.57026 0.9487 0.39824 0.0
C95 C 0.55814 0.98046 0.42189 0.0
N96 N 0.53013 0.04922 0.46945 0.0
C97 C 0.55629 0.05044 0.42944 0.0
C98 C 0.56747 0.08688 0.41441 0.0
C99 C 0.54777 0.1095 0.44599 0.0
C100 C 0.5259 0.08573 0.47854 0.0
N101 N 0.47683 0.03867 0.55697 0.0
C102 C 0.47844 0.07643 0.55536 0.0
C103 C 0.45538 0.09168 0.59209 0.0
C104 C 0.43763 0.06192 0.61852 0.0
C105 C 0.45091 0.03011 0.59617 0.0
N106 N 0.54718 1.00375 0.55704 0.0
C107 C 0.60872 1.00196 0.62173 0.0
C108 C 0.59019 0.03511 0.61105 0.0
C109 C 0.55985 0.03539 0.57897 0.0
C110 C 0.59547 0.96963 0.5998 0.0
C111 C 0.56497 0.97112 0.56805 0.0
N112 N 0.4628 0.00682 0.46202 0.0
C113 C 0.41734 0.04168 0.41442 0.0
C114 C 0.40161 0.00891 0.39676 0.0
C115 C 0.41739 0.97509 0.41208 0.0
C116 C 0.44763 0.9747 0.44432 0.0
C117 C 0.4476 0.04003 0.44661 0.0
H118 H 0.45801 0.94798 0.45475 0.0
H119 H 0.45811 0.06603 0.45866 0.0
H120 H 0.54721 0.0616 0.57236 0.0
H121 H 0.55653 0.94552 0.55248 0.0
C122 C 0.50832 0.91377 0.50059 0.0
C123 C 0.43768 0.9925 0.61333 0.0
C124 C 0.57232 0.01797 0.40578 0.0
C125 C 0.50162 0.0968 0.51853 0.0
H126 H 0.42423 0.91428 0.63778 0.0
H127 H 0.46305 0.87079 0.57652 0.0
H128 H 0.55547 0.88971 0.41738 0.0
H129 H 0.59039 0.94715 0.36578 0.0
H130 H 0.58814 0.0962 0.38424 0.0
H131 H 0.54958 0.13967 0.44577 0.0
H132 H 0.45169 0.12096 0.59859 0.0
H133 H 0.41704 0.06344 0.65043 0.0
H134 H 0.59878 0.06088 0.62766 0.0
H135 H 0.60897 0.94324 0.60618 0.0
H136 H 0.40662 0.0687 0.40317 0.0
H137 H 0.40605 0.94881 0.40015 0.0
H138 H 0.98825 0.07858 0.21201 0.0
H139 H 0.99215 0.13723 0.2555 0.0
H140 H 0.01999 0.19643 0.1086 0.0
H141 H 0.01642 0.13758 0.06439 0.0
H142 H 0.0637 0.21924 0.19071 0.0
H143 H 0.91248 0.21735 0.24747 0.0
H144 H 0.93538 0.17545 0.26733 0.0
H145 H 0.93209 0.18764 0.19929 0.0
C146 C 0.99535 0.10396 0.18874 0.0
C147 C 1.0017 0.10324 0.13448 0.0
C148 C 0.99738 0.13757 0.21376 0.0
C149 C 0.0056 0.17135 0.18523 0.0
C150 C 0.01331 0.17072 0.13135 0.0
H151 H 0.96579 0.38987 0.31014 0.0
H152 H 0.96634 0.33529 0.25696 0.0
C153 C 0.01129 0.13701 0.10615 0.0
C154 C 0.00569 0.2072 0.21188 0.0
H155 H 0.95068 0.26183 0.28706 0.0
C156 C 0.03895 0.2287 0.21152 0.0
C157 C 0.97324 0.21985 0.23839 0.0
C158 C 0.93616 0.19911 0.23784 0.0
C159 C 0.04092 0.26187 0.2383 0.0
C160 C 0.00888 0.27361 0.26677 0.0
C161 C 0.97535 0.25268 0.26575 0.0
C162 C 0.00951 0.30729 0.29826 0.0
C163 C 0.0772 0.28422 0.23548 0.0
C164 C 0.0333 0.30964 0.33962 0.0
C165 C 0.03292 0.34075 0.37032 0.0
C166 C 0.00854 0.37017 0.36061 0.0
C167 C 0.98465 0.36764 0.31919 0.0
C168 C 0.98507 0.33651 0.28851 0.0
H169 H 0.0953 0.27756 0.20114 0.0
H170 H 0.07216 0.31466 0.23362 0.0
H171 H 0.0926 0.27742 0.27082 0.0
H172 H 0.05173 0.28706 0.34882 0.0
H173 H 0.05119 0.34131 0.40243 0.0
H174 H 0.86697 0.07747 0.08543 0.0
H175 H 0.80483 0.08542 0.12749 0.0
H176 H 0.80048 0.96912 0.17909 0.0
H177 H 0.8617 0.96082 0.13694 0.0
H178 H 0.73259 0.99412 0.1442 0.0
H179 H 0.79152 0.0877 0.287 0.0
H180 H 0.79967 0.10192 0.21947 0.0
H181 H 0.82068 0.0605 0.24516 0.0
C182 C 0.85243 0.05348 0.10492 0.0
C183 C 0.86955 0.01862 0.10835 0.0
C184 C 0.81709 0.05813 0.12931 0.0
C185 C 0.79834 0.028 0.15727 0.0
C186 C 0.81448 0.99282 0.15804 0.0
H187 H 0.64459 1.00129 0.42004 0.0
H188 H 0.69769 0.00719 0.35599 0.0
C189 C 0.84964 0.98818 0.13401 0.0
C190 C 0.76297 0.03281 0.18846 0.0
H191 H 0.72798 0.0706 0.29914 0.0
C192 C 0.73134 0.01128 0.17764 0.0
C193 C 0.76164 0.05478 0.23253 0.0
C194 C 0.79518 0.07739 0.24723 0.0
C195 C 0.69878 0.01032 0.21044 0.0
C196 C 0.69764 0.0319 0.25488 0.0
C197 C 0.72889 0.05423 0.26491 0.0
C198 C 0.6654 0.02954 0.29352 0.0
C199 C 0.66655 0.98481 0.19865 0.0
C200 C 0.62972 0.04052 0.27984 0.0
C201 C 0.59943 0.03703 0.31637 0.0
C202 C 0.60449 0.02278 0.36714 0.0
C203 C 0.6402 0.01234 0.38103 0.0
C204 C 0.67043 0.01579 0.34457 0.0
H205 H 0.67473 0.96452 0.16928 0.0
H206 H 0.65531 0.9691 0.23448 0.0
H207 H 0.64379 1.0018 0.18313 0.0
H208 H 0.6253 0.05173 0.24095 0.0
H209 H 0.57203 0.04524 0.30504 0.0
H210 H 0.07951 0.86892 0.08688 0.0
H211 H 0.0876 0.80624 0.12713 0.0
H212 H 0.97025 0.79905 0.17287 0.0
H213 H 0.96191 0.86089 0.13275 0.0
H214 H 0.07318 0.78716 0.23246 0.0
H215 H 0.98759 0.69721 0.11455 0.0
H216 H 1.00342 0.74374 0.0922 0.0
H217 H 0.96257 0.73691 0.13545 0.0
C218 C 0.05532 0.85356 0.10443 0.0
C219 C 0.0201 0.86998 0.10675 0.0
C220 C 0.06 0.81785 0.12759 0.0
C221 C 0.02944 0.79778 0.15254 0.0
C222 C 0.99411 0.81362 0.15304 0.0
H223 H 1.00337 0.64647 0.41756 0.0
H224 H 0.01079 0.69947 0.35358 0.0
C225 C 0.98946 0.8492 0.13038 0.0
C226 C 0.03449 0.76197 0.18254 0.0
H227 H 0.99809 0.67317 0.20162 0.0
C228 C 0.05732 0.762 0.22515 0.0
C229 C 0.01411 0.72901 0.17276 0.0
C230 C 0.99085 0.72653 0.12591 0.0
C231 C 0.0586 0.73068 0.25992 0.0
C232 C 0.03603 0.6987 0.25229 0.0
C233 C 0.01496 0.69788 0.20794 0.0
C234 C 0.03243 0.66665 0.29116 0.0
C235 C 0.08373 0.73235 0.30494 0.0
C236 C 0.04118 0.63045 0.27703 0.0
C237 C 0.03669 0.60021 0.31349 0.0
C238 C 0.02318 0.60573 0.36445 0.0
C239 C 0.0141 0.64178 0.37849 0.0
C240 C 0.0186 0.67198 0.34212 0.0
H241 H 0.10706 0.75307 0.29656 0.0
H242 H 0.06729 0.74101 0.33968 0.0
H243 H 0.09556 0.70466 0.31439 0.0
H244 H 0.05155 0.62565 0.23784 0.0
H245 H 0.04361 0.57249 0.30196 0.0
H246 H 0.0774 0.99284 0.21223 0.0
H247 H 0.13558 0.99795 0.25655 0.0
H248 H 0.19631 0.0206 0.10941 0.0
H249 H 0.13791 0.01592 0.06442 0.0
H250 H 0.19669 0.95373 0.24426 0.0
H251 H 0.23638 0.10278 0.198 0.0
H252 H 0.19006 0.08402 0.18939 0.0
H253 H 0.2275 0.07602 0.1427 0.0
C254 C 0.103 0.99929 0.1891 0.0
C255 C 0.10282 1.00395 0.1346 0.0
C256 C 0.13632 1.00216 0.21463 0.0
C257 C 0.17035 0.00991 0.18647 0.0
C258 C 0.17034 0.01523 0.13211 0.0
H259 H 0.38771 0.96616 0.314 0.0
H260 H 0.33288 0.96647 0.26134 0.0
C261 C 0.13689 0.01243 0.10641 0.0
C262 C 0.20577 0.01049 0.21425 0.0
H263 H 0.2802 0.06613 0.24196 0.0
C264 C 0.21498 0.9783 0.24364 0.0
C265 C 0.22948 0.04264 0.21386 0.0
C266 C 0.22033 0.07848 0.1847 0.0
C267 C 0.24712 0.97736 0.27262 0.0
C268 C 0.27114 0.00931 0.27166 0.0
C269 C 0.26194 0.04156 0.24235 0.0
C270 C 0.30525 0.01008 0.30221 0.0
C271 C 0.25453 0.94244 0.30516 0.0
C272 C 0.3085 0.03513 0.34192 0.0
C273 C 0.33981 0.03498 0.37223 0.0
C274 C 0.36875 0.00988 0.36334 0.0
C275 C 0.36572 0.98536 0.32271 0.0
C276 C 0.33439 0.98554 0.29243 0.0
H277 H 0.22919 0.924 0.31145 0.0
H278 H 0.27652 0.92652 0.28495 0.0
H279 H 0.26454 0.94946 0.34359 0.0
H280 H 0.28638 0.05432 0.3502 0.0
H281 H 0.34089 0.05398 0.40345 0.0
H282 H 0.0212 0.93325 0.80481 0.0
H283 H 0.01615 0.87506 0.76054 0.0
H284 H 0.98875 0.81507 0.90702 0.0
H285 H 0.99349 0.87349 0.95201 0.0
H286 H 0.0589 0.81222 0.77661 0.0
H287 H 0.90767 0.77777 0.81317 0.0
H288 H 0.92745 0.82368 0.82183 0.0
H289 H 0.93293 0.78654 0.86993 0.0
C290 C 0.01375 0.90782 0.82781 0.0
C291 C 0.00777 0.90821 0.88215 0.0
C292 C 0.01092 0.87449 0.8023 0.0
C293 C 1.00184 0.84069 0.8303 0.0
C294 C 0.99522 0.8409 0.88445 0.0
H295 H 0.04109 0.62122 0.7065 0.0
H296 H 0.04116 0.67603 0.75922 0.0
C297 C 0.99805 0.87434 0.91014 0.0
C298 C 1.00107 0.80526 0.80264 0.0
H299 H 0.94404 0.73299 0.77095 0.0
C300 C 0.03381 0.79484 0.77553 0.0
C301 C 0.96824 0.78276 0.80082 0.0
C302 C 0.93193 0.79327 0.82758 0.0
C303 C 0.03464 0.76265 0.74664 0.0
C304 C 1.00194 0.7399 0.74529 0.0
C305 C 0.96916 0.7503 0.77235 0.0
C306 C 1.001 0.70593 0.71448 0.0
C307 C 0.07027 0.75381 0.71664 0.0
C308 C 0.97781 0.70409 0.67244 0.0
C309 C 0.9778 0.67284 0.64202 0.0
C310 C 1.00085 0.64254 0.65317 0.0
C311 C 0.02352 0.64424 0.69605 0.0
C312 C 0.02353 0.67554 0.72638 0.0
H313 H 0.09 0.77827 0.71217 0.0
H314 H 0.08427 0.73083 0.73773 0.0
H315 H 0.0643 0.7445 0.67744 0.0
H316 H 0.96021 0.72722 0.66249 0.0
H317 H 0.9603 0.67284 0.60904 0.0
H318 H 0.14354 0.93382 0.93287 0.0
H319 H 0.20627 0.92608 0.89263 0.0
H320 H 0.21022 0.042 0.83921 0.0
H321 H 0.14841 0.05008 0.87941 0.0
H322 H 0.2252 0.93685 0.78717 0.0
H323 H 0.3125 0.03029 0.89773 0.0
H324 H 0.2663 0.01411 0.92114 0.0
H325 H 0.27223 0.05331 0.87479 0.0
C326 C 0.15817 0.95783 0.91358 0.0
C327 C 0.14083 0.99253 0.90926 0.0
C328 C 0.19393 0.95333 0.89042 0.0
C329 C 0.21315 0.98357 0.86338 0.0
C330 C 0.19636 0.01844 0.86069 0.0
H331 H 0.36449 1.00378 0.5976 0.0
H332 H 0.31146 0.99703 0.66165 0.0
C333 C 0.16075 0.0229 0.88342 0.0
C334 C 0.24915 0.97852 0.83375 0.0
H335 H 0.33696 0.01698 0.81184 0.0
C336 C 0.24988 0.95387 0.79316 0.0
C337 C 0.28152 1.00039 0.84184 0.0
C338 C 0.28328 0.02572 0.88661 0.0
C339 C 0.28132 0.9521 0.75868 0.0
C340 C 0.31264 0.97602 0.76448 0.0
C341 C 0.31275 0.99904 0.80689 0.0
C342 C 0.34471 0.97897 0.72555 0.0
C343 C 0.28051 0.92498 0.71592 0.0
C344 C 0.38113 0.97192 0.74039 0.0
C345 C 0.41138 0.97596 0.70385 0.0
C346 C 0.40564 0.98736 0.6521 0.0
C347 C 0.36935 0.99467 0.6373 0.0
C348 C 0.33914 0.99057 0.67374 0.0
H349 H 0.26037 0.90138 0.72606 0.0
H350 H 0.27155 0.93965 0.67994 0.0
H351 H 0.30855 0.91356 0.70763 0.0
H352 H 0.38612 0.96327 0.78021 0.0
H353 H 0.43928 0.97044 0.71594 0.0
H354 H 0.92915 0.13725 0.91217 0.0
H355 H 0.92245 0.19753 0.86417 0.0
H356 H 0.04216 0.21373 0.85382 0.0
H357 H 0.049 0.1535 0.90024 0.0
H358 H 0.94579 0.27261 0.87372 0.0
H359 H 0.01561 0.21248 0.70196 0.0
H360 H 0.99954 0.18428 0.75895 0.0
H361 H 0.04334 0.20998 0.7579 0.0
C362 C 0.95392 0.15415 0.90067 0.0
C363 C 0.98961 0.14052 0.90929 0.0
C364 C 0.95008 0.18846 0.8731 0.0
C365 C 0.98187 0.2096 0.85419 0.0
C366 C 0.0173 0.19742 0.86679 0.0
H367 H 0.0063 0.43408 0.71283 0.0
H368 H 1.00037 0.37891 0.77319 0.0
C369 C 0.02116 0.16309 0.89357 0.0
C370 C 0.97862 0.24284 0.81811 0.0
H371 H 0.00798 0.27819 0.69721 0.0
C372 C 0.95912 0.27382 0.83497 0.0
C373 C 0.99529 0.24408 0.7671 0.0
C374 C 0.01428 0.21079 0.74513 0.0
C375 C 0.95703 0.30651 0.80277 0.0
C376 C 0.97561 0.30847 0.75285 0.0
C377 C 0.99405 0.27698 0.73559 0.0
C378 C 0.97685 0.34276 0.71773 0.0
C379 C 0.93454 0.33836 0.82236 0.0
C380 C 0.96643 0.34078 0.66611 0.0
C381 C 0.97069 0.37199 0.63142 0.0
C382 C 0.98534 0.40582 0.64772 0.0
C383 C 0.995 0.40818 0.69952 0.0
C384 C 0.99118 0.37681 0.73409 0.0
H385 H 0.91277 0.32837 0.85237 0.0
H386 H 0.95337 0.35834 0.8405 0.0
H387 H 0.9208 0.35347 0.79025 0.0
H388 H 0.95547 0.31485 0.65241 0.0
H389 H 0.96303 0.36963 0.59161 0.0
H390 H 0.87238 0.9971 0.95374 0.0
H391 H 0.81392 0.99068 0.90925 0.0
H392 H 0.87451 0.00825 0.76111 0.0
H393 H 0.93289 0.01451 0.80493 0.0
H394 H 0.78306 0.04508 0.84137 0.0
H395 H 0.80969 0.914 0.74234 0.0
H396 H 0.83603 0.92821 0.79616 0.0
H397 H 0.84669 0.94862 0.7319 0.0
C398 C 0.87337 0.9991 0.91167 0.0
C399 C 0.90747 0.00627 0.88298 0.0
C400 C 0.83988 0.99556 0.88631 0.0
C401 C 0.83985 0.99859 0.83181 0.0
C402 C 0.87387 0.00518 0.80312 0.0
H403 H 0.66494 0.05507 0.6255 0.0
H404 H 0.71905 0.05363 0.67933 0.0
C405 C 0.90726 0.00896 0.82835 0.0
C406 C 0.80422 0.99674 0.80475 0.0
H407 H 0.75888 0.94987 0.71334 0.0
C408 C 0.77762 0.02408 0.8137 0.0
C409 C 0.79695 0.96914 0.769 0.0
C410 C 0.82365 0.93809 0.75952 0.0
C411 C 0.74455 0.02525 0.78667 0.0
C412 C 0.73802 0.9986 0.74928 0.0
C413 C 0.76404 0.97053 0.74159 0.0
C414 C 0.70463 0.99968 0.71727 0.0
C415 C 0.71678 0.05496 0.79849 0.0
C416 C 0.67877 0.96955 0.71991 0.0
C417 C 0.64759 0.97035 0.68929 0.0
C418 C 0.64174 1.00119 0.65493 0.0
C419 C 0.66798 0.03119 0.65217 0.0
C420 C 0.69905 0.03041 0.68292 0.0
H421 H 0.72099 0.06672 0.83685 0.0
H422 H 0.72033 0.0781 0.76831 0.0
H423 H 0.68769 0.04367 0.79817 0.0
H424 H 0.68254 0.9455 0.74603 0.0
H425 H 0.62787 0.94692 0.69303 0.0
loop_
_geom_bond_atom_site_label_1
_geom_bond_atom_site_label_2
_geom_bond_distance
_geom_bond_site_symmetry_2
_ccdc_geom_bond_type
Fe0 O1 1.886 1_565 S
Fe0 O4 1.715 1_655 S
Fe0 O9 2.078 1_565 S
Fe0 O14 1.935 1_665 S
Fe0 O20 2.077 . S
Fe0 O29 1.935 . S
O1 Fe0 1.886 1_545 S
O1 Fe3 1.715 1_554 S
Fe2 O4 1.886 . S
Fe2 O5 1.715 1_554 S
Fe2 O12 1.935 1_554 S
Fe2 O13 2.077 . S
Fe2 O19 1.935 1_554 S
Fe2 O28 2.077 . S
Fe3 O1 1.715 1_556 S
Fe3 O6 1.886 . S
Fe3 O10 1.935 1_556 S
Fe3 O15 2.077 . S
Fe3 O21 1.935 1_556 S
Fe3 O25 2.077 . S
O4 Fe0 1.715 1_455 S
O4 Fe2 1.886 . S
O5 Fe2 1.715 1_556 S
O5 Fe7 1.886 1_565 S
O6 Fe3 1.886 . S
O6 Fe7 1.715 1_655 S
Fe7 O5 1.886 1_545 S
Fe7 O6 1.715 1_455 S
Fe7 O11 2.077 . S
Fe7 O16 1.935 . S
Fe7 O18 2.077 1_545 S
Fe7 O26 1.935 1_445 S
C8 O20 1.381 1_545 S
C8 O21 1.421 . S
O9 Fe0 2.078 1_545 S
O9 C22 1.392 . S
O10 Fe3 1.935 1_554 S
O10 C22 1.421 . S
O11 Fe7 2.077 . S
O11 C27 1.381 1_545 S
O12 Fe2 1.935 1_556 S
O12 C27 1.421 . S
O13 Fe2 2.077 . S
O13 C17 1.381 . S
O14 Fe0 1.935 1_445 S
O14 C17 1.421 1_545 S
O15 Fe3 2.077 . S
O15 C23 1.381 . S
O16 Fe7 1.935 . S
O16 C23 1.421 1_455 S
C17 O13 1.381 . S
C17 O14 1.421 1_565 S
O18 Fe7 2.077 1_565 S
O18 C30 1.381 . S
O19 Fe2 1.935 1_556 S
O19 C30 1.421 . S
O20 Fe0 2.077 . S
O20 C8 1.381 1_565 S
O21 Fe3 1.935 1_554 S
O21 C8 1.421 . S
C22 O9 1.392 . S
C22 O10 1.421 . S
C23 O15 1.381 . S
C23 O16 1.421 1_655 S
C24 O25 1.381 . S
C24 O26 1.421 1_545 S
O25 Fe3 2.077 . S
O25 C24 1.381 . S
O26 Fe7 1.935 1_665 S
O26 C24 1.421 1_565 S
C27 O11 1.381 1_565 S
C27 O12 1.421 . S
O28 Fe2 2.077 . S
O28 C31 1.381 . S
O29 Fe0 1.935 . S
O29 C31 1.421 1_655 S
C30 O18 1.381 . S
C30 O19 1.421 . S
C31 O28 1.381 . S
C31 O29 1.421 1_455 S
C32 C33 1.443 . S
C32 N36 1.376 . S
C32 C70 1.404 . S
C33 C32 1.443 . S
C33 C34 1.340 . S
C33 H73 0.951 . S
C34 C33 1.340 . S
C34 C35 1.439 . S
C34 H74 0.950 . S
C35 C34 1.439 . S
C35 N36 1.374 . S
C35 C69 1.395 . S
N36 C32 1.376 . S
N36 C35 1.374 . S
N36 Co37 2.008 . S
Co37 N36 2.008 . S
Co37 N38 1.995 . S
Co37 N43 2.008 1_455 S
Co37 N48 1.995 1_455 S
Co37 N53 2.282 . S
Co37 N59 2.282 1_455 S
N38 Co37 1.995 . S
N38 C39 1.376 . S
N38 C42 1.383 . S
C39 N38 1.376 . S
C39 C40 1.446 . S
C39 C69 1.391 . S
C40 C39 1.446 . S
C40 C41 1.339 . S
C40 H75 0.949 . S
C41 C40 1.339 . S
C41 C42 1.439 . S
C41 H76 0.950 . S
C42 N38 1.383 . S
C42 C41 1.439 . S
C42 C71 1.384 1_455 S
N43 Co37 2.008 1_655 S
N43 C44 1.376 . S
N43 C47 1.374 . S
C44 N43 1.376 . S
C44 C45 1.443 . S
C44 C71 1.397 . S
C45 C44 1.443 . S
C45 C46 1.340 . S
C45 H77 0.951 . S
C46 C45 1.340 . S
C46 C47 1.439 . S
C46 H78 0.950 . S
C47 N43 1.374 . S
C47 C46 1.439 . S
C47 C72 1.395 . S
N48 Co37 1.995 1_655 S
N48 C49 1.376 . S
N48 C52 1.383 . S
C49 N48 1.376 . S
C49 C50 1.446 . S
C49 C72 1.391 . S
C50 C49 1.446 . S
C50 C51 1.339 . S
C50 H79 0.949 . S
C51 C50 1.339 . S
C51 C52 1.439 . S
C51 H80 0.950 . S
C52 N48 1.383 . S
C52 C51 1.439 . S
C52 C70 1.378 1_655 S
N53 Co37 2.282 . S
N53 C56 1.332 1_455 S
N53 C58 1.332 . S
C54 C55 1.375 1_455 S
C54 C57 1.400 . S
C55 C54 1.375 1_655 S
C55 C56 1.382 . S
C55 H81 0.950 . S
C56 N53 1.332 1_655 S
C56 C55 1.382 . S
C56 H67 0.952 . S
C57 C54 1.400 . S
C57 C58 1.382 . S
C57 H82 0.950 . S
C58 N53 1.332 . S
C58 C57 1.382 . S
C58 H68 0.948 . S
N59 Co37 2.282 1_655 S
N59 C63 1.332 1_655 S
N59 C64 1.332 . S
C60 C61 1.394 . S
C60 C64 1.382 . S
C60 H83 0.950 . S
C61 C60 1.394 . S
C61 C62 1.381 1_655 S
C62 C61 1.381 1_455 S
C62 C63 1.382 . S
C62 H84 0.950 . S
C63 N59 1.332 1_455 S
C63 C62 1.382 . S
C63 H65 0.952 . S
C64 N59 1.332 . S
C64 C60 1.382 . S
C64 H66 0.948 . S
H65 C63 0.952 . S
H66 C64 0.948 . S
H67 C56 0.952 . S
H68 C58 0.948 . S
C69 C35 1.395 . S
C69 C39 1.391 . S
C70 C32 1.404 . S
C70 C52 1.378 1_455 S
C71 C42 1.384 1_655 S
C71 C44 1.397 . S
C72 C47 1.395 . S
C72 C49 1.391 . S
H73 C33 0.951 . S
H74 C34 0.950 . S
H75 C40 0.949 . S
H76 C41 0.950 . S
H77 C45 0.951 . S
H78 C46 0.950 . S
H79 C50 0.949 . S
H80 C51 0.950 . S
H81 C55 0.950 . S
H82 C57 0.950 . S
H83 C60 0.950 . S
H84 C62 0.950 . S
C85 C86 1.443 . S
C85 N89 1.376 . S
C85 C123 1.397 . S
C86 C85 1.443 . S
C86 C87 1.340 . S
C86 H126 0.951 . S
C87 C86 1.340 . S
C87 C88 1.439 . S
C87 H127 0.950 . S
C88 C87 1.439 . S
C88 N89 1.374 . S
C88 C122 1.395 . S
N89 C85 1.376 . S
N89 C88 1.374 . S
N89 Co90 2.008 1_565 S
Co90 N89 2.008 1_545 S
Co90 N91 1.995 1_545 S
Co90 N96 2.008 . S
Co90 N101 1.995 . S
Co90 N106 2.282 1_545 S
Co90 N112 2.282 . S
N91 Co90 1.995 1_565 S
N91 C92 1.376 . S
N91 C95 1.383 . S
C92 N91 1.376 . S
C92 C93 1.446 . S
C92 C122 1.391 . S
C93 C92 1.446 . S
C93 C94 1.339 . S
C93 H128 0.949 . S
C94 C93 1.339 . S
C94 C95 1.439 . S
C94 H129 0.950 . S
C95 N91 1.383 . S
C95 C94 1.439 . S
C95 C124 1.378 1_565 S
N96 Co90 2.008 . S
N96 C97 1.376 . S
N96 C100 1.374 . S
C97 N96 1.376 . S
C97 C98 1.443 . S
C97 C124 1.404 . S
C98 C97 1.443 . S
C98 C99 1.340 . S
C98 H130 0.951 . S
C99 C98 1.340 . S
C99 C100 1.439 . S
C99 H131 0.950 . S
C100 N96 1.374 . S
C100 C99 1.439 . S
C100 C125 1.395 . S
N101 Co90 1.995 . S
N101 C102 1.376 . S
N101 C105 1.383 . S
C102 N101 1.376 . S
C102 C103 1.446 . S
C102 C125 1.391 . S
C103 C102 1.446 . S
C103 C104 1.339 . S
C103 H132 0.949 . S
C104 C103 1.339 . S
C104 C105 1.439 . S
C104 H133 0.950 . S
C105 N101 1.383 . S
C105 C104 1.439 . S
C105 C123 1.384 1_545 S
N106 Co90 2.282 1_565 S
N106 C109 1.332 1_565 S
N106 C111 1.332 . S
C107 C108 1.381 1_565 S
C107 C110 1.394 . S
C108 C107 1.381 1_545 S
C108 C109 1.382 . S
C108 H134 0.950 . S
C109 N106 1.332 1_545 S
C109 C108 1.382 . S
C109 H120 0.952 . S
C110 C107 1.394 . S
C110 C111 1.382 . S
C110 H135 0.950 . S
C111 N106 1.332 . S
C111 C110 1.382 . S
C111 H121 0.948 . S
N112 Co90 2.282 . S
N112 C116 1.332 1_545 S
N112 C117 1.332 . S
C113 C114 1.400 . S
C113 C117 1.382 . S
C113 H136 0.950 . S
C114 C113 1.400 . S
C114 C115 1.375 1_545 S
C115 C114 1.375 1_565 S
C115 C116 1.382 . S
C115 H137 0.950 . S
C116 N112 1.332 1_565 S
C116 C115 1.382 . S
C116 H118 0.952 . S
C117 N112 1.332 . S
C117 C113 1.382 . S
C117 H119 0.948 . S
H118 C116 0.952 . S
H119 C117 0.948 . S
H120 C109 0.952 . S
H121 C111 0.948 . S
C122 C88 1.395 . S
C122 C92 1.391 . S
C123 C85 1.397 . S
C123 C105 1.384 1_565 S
C124 C95 1.378 1_545 S
C124 C97 1.404 . S
C125 C100 1.395 . S
C125 C102 1.391 . S
H126 C86 0.951 . S
H127 C87 0.950 . S
H128 C93 0.949 . S
H129 C94 0.950 . S
H130 C98 0.951 . S
H131 C99 0.950 . S
H132 C103 0.949 . S
H133 C104 0.950 . S
H134 C108 0.950 . S
H135 C110 0.950 . S
H136 C113 0.950 . S
H137 C115 0.950 . S
H138 C146 0.929 . S
H139 C148 0.930 . S
H140 C150 0.930 . S
H141 C153 0.929 . S
H142 C156 0.930 . S
H143 C158 0.960 . S
H144 C158 0.960 . S
H145 C158 0.960 . S
C146 H138 0.929 . S
C146 C147 1.377 1_455 S
C146 C148 1.384 . S
C147 C146 1.377 1_655 S
C147 C153 1.390 . S
C148 H139 0.930 . S
C148 C146 1.384 . S
C148 C149 1.377 . S
C149 C148 1.377 . S
C149 C150 1.394 1_455 S
C149 C154 1.490 . S
C150 H140 0.930 . S
C150 C149 1.394 1_655 S
C150 C153 1.386 . S
H151 C167 0.930 . S
H152 C168 0.931 . S
C153 H141 0.929 . S
C153 C147 1.390 . S
C153 C150 1.386 . S
C154 C149 1.490 . S
C154 C156 1.395 . S
C154 C157 1.403 1_455 S
H155 C161 0.930 . S
C156 H142 0.930 . S
C156 C154 1.395 . S
C156 C159 1.403 . S
C157 C154 1.403 1_655 S
C157 C158 1.524 . S
C157 C161 1.400 . S
C158 H143 0.960 . S
C158 H144 0.960 . S
C158 H145 0.960 . S
C158 C157 1.524 . S
C159 C156 1.403 . S
C159 C160 1.392 . S
C159 C163 1.495 . S
C160 C159 1.392 . S
C160 C161 1.385 1_455 S
C160 C162 1.478 . S
C161 H155 0.930 . S
C161 C157 1.400 . S
C161 C160 1.385 1_655 S
C162 C160 1.478 . S
C162 C164 1.381 . S
C162 C168 1.383 1_455 S
C163 C159 1.495 . S
C163 H169 0.959 . S
C163 H170 0.961 . S
C163 H171 0.960 . S
C164 C162 1.381 . S
C164 C165 1.394 . S
C164 H172 0.930 . S
C165 C164 1.394 . S
C165 C166 1.383 . S
C165 H173 0.929 . S
C166 C165 1.383 . S
C166 C167 1.377 1_455 S
C167 H151 0.930 . S
C167 C166 1.377 1_655 S
C167 C168 1.379 . S
C168 H152 0.931 . S
C168 C162 1.383 1_655 S
C168 C167 1.379 . S
H169 C163 0.959 . S
H170 C163 0.961 . S
H171 C163 0.960 . S
H172 C164 0.930 . S
H173 C165 0.929 . S
H174 C182 0.929 . S
H175 C184 0.930 . S
H176 C186 0.930 . S
H177 C189 0.929 . S
H178 C192 0.930 . S
H179 C194 0.960 . S
H180 C194 0.960 . S
H181 C194 0.960 1_565 S
C182 H174 0.929 . S
C182 C183 1.377 1_545 S
C182 C184 1.384 . S
C183 C182 1.377 1_565 S
C183 C189 1.390 . S
C184 H175 0.930 . S
C184 C182 1.384 . S
C184 C185 1.371 . S
C185 C184 1.371 . S
C185 C186 1.401 1_545 S
C185 C190 1.490 . S
C186 H176 0.930 . S
C186 C185 1.401 1_565 S
C186 C189 1.386 . S
H187 C203 0.930 . S
H188 C204 0.931 . S
C189 H177 0.929 . S
C189 C183 1.390 . S
C189 C186 1.386 . S
C190 C185 1.490 . S
C190 C192 1.395 1_545 S
C190 C193 1.402 . S
H191 C197 0.930 . S
C192 H178 0.930 . S
C192 C190 1.395 1_565 S
C192 C195 1.403 . S
C193 C190 1.402 . S
C193 C194 1.524 . S
C193 C197 1.400 . S
C194 H179 0.960 . S
C194 H180 0.960 . S
C194 H181 0.960 1_545 S
C194 C193 1.524 . S
C195 C192 1.403 . S
C195 C196 1.392 . S
C195 C199 1.495 . S
C196 C195 1.392 . S
C196 C197 1.385 1_565 S
C196 C198 1.478 . S
C197 H191 0.930 . S
C197 C193 1.400 . S
C197 C196 1.385 1_545 S
C198 C196 1.478 . S
C198 C200 1.381 1_565 S
C198 C204 1.383 . S
C199 C195 1.495 . S
C199 H205 0.959 . S
C199 H206 0.961 . S
C199 H207 0.960 1_565 S
C200 C198 1.381 1_545 S
C200 C201 1.394 . S
C200 H208 0.930 . S
C201 C200 1.394 . S
C201 C202 1.364 1_545 S
C201 H209 0.929 . S
C202 C201 1.364 1_565 S
C202 C203 1.398 . S
C203 H187 0.930 . S
C203 C202 1.398 . S
C203 C204 1.379 . S
C204 H188 0.931 . S
C204 C198 1.383 . S
C204 C203 1.379 . S
H205 C199 0.959 . S
H206 C199 0.961 . S
H207 C199 0.960 1_545 S
H208 C200 0.930 . S
H209 C201 0.929 . S
H210 C218 0.929 . S
H211 C220 0.930 . S
H212 C222 0.930 . S
H213 C225 0.929 . S
H214 C228 0.930 . S
H215 C230 0.960 . S
H216 C230 0.960 . S
H217 C230 0.960 . S
C218 H210 0.929 . S
C218 C219 1.377 1_455 S
C218 C220 1.384 . S
C219 C218 1.377 1_655 S
C219 C225 1.390 . S
C220 H211 0.930 . S
C220 C218 1.384 . S
C220 C221 1.364 1_455 S
C221 C220 1.364 1_655 S
C221 C222 1.409 . S
C221 C226 1.489 1_655 S
C222 H212 0.930 . S
C222 C221 1.409 . S
C222 C225 1.386 . S
H223 C239 0.930 . S
H224 C240 0.931 . S
C225 H213 0.929 . S
C225 C219 1.390 . S
C225 C222 1.386 . S
C226 C221 1.489 1_455 S
C226 C228 1.395 . S
C226 C229 1.403 1_455 S
H227 C233 0.930 . S
C228 H214 0.930 . S
C228 C226 1.395 . S
C228 C231 1.403 . S
C229 C226 1.403 1_655 S
C229 C230 1.524 . S
C229 C233 1.400 . S
C230 H215 0.960 . S
C230 H216 0.960 . S
C230 H217 0.960 . S
C230 C229 1.524 . S
C231 C228 1.403 . S
C231 C232 1.392 . S
C231 C235 1.495 . S
C232 C231 1.392 . S
C232 C233 1.385 1_455 S
C232 C234 1.478 . S
C233 H227 0.930 . S
C233 C229 1.400 . S
C233 C232 1.385 1_655 S
C234 C232 1.478 . S
C234 C236 1.381 . S
C234 C240 1.383 1_455 S
C235 C231 1.495 . S
C235 H241 0.959 . S
C235 H242 0.961 . S
C235 H243 0.960 . S
C236 C234 1.381 . S
C236 C237 1.394 . S
C236 H244 0.930 . S
C237 C236 1.394 . S
C237 C238 1.383 . S
C237 H245 0.929 . S
C238 C237 1.383 . S
C238 C239 1.377 1_455 S
C239 H223 0.930 . S
C239 C238 1.377 1_655 S
C239 C240 1.379 . S
C240 H224 0.931 . S
C240 C234 1.383 1_655 S
C240 C239 1.379 . S
H241 C235 0.959 . S
H242 C235 0.961 . S
H243 C235 0.960 . S
H244 C236 0.930 . S
H245 C237 0.929 . S
H246 C254 0.929 . S
H247 C256 0.930 . S
H248 C258 0.930 . S
H249 C261 0.929 . S
H250 C264 0.930 . S
H251 C266 0.960 . S
H252 C266 0.960 . S
H253 C266 0.960 1_565 S
C254 H246 0.929 . S
C254 C255 1.377 1_545 S
C254 C256 1.384 . S
C255 C254 1.377 1_565 S
C255 C261 1.390 . S
C256 H247 0.930 . S
C256 C254 1.384 . S
C256 C257 1.380 . S
C257 C256 1.380 . S
C257 C258 1.391 1_545 S
C257 C262 1.490 . S
C258 H248 0.930 . S
C258 C257 1.391 1_565 S
C258 C261 1.386 . S
H259 C275 0.930 . S
H260 C276 0.931 . S
C261 H249 0.929 . S
C261 C255 1.390 . S
C261 C258 1.386 . S
C262 C257 1.490 . S
C262 C264 1.395 1_545 S
C262 C265 1.403 . S
H263 C269 0.930 . S
C264 H250 0.930 . S
C264 C262 1.395 1_565 S
C264 C267 1.403 . S
C265 C262 1.403 . S
C265 C266 1.524 . S
C265 C269 1.400 . S
C266 H251 0.960 . S
C266 H252 0.960 . S
C266 H253 0.960 1_545 S
C266 C265 1.524 . S
C267 C264 1.403 . S
C267 C268 1.392 . S
C267 C271 1.495 . S
C268 C267 1.392 . S
C268 C269 1.385 1_565 S
C268 C270 1.478 . S
C269 H263 0.930 . S
C269 C265 1.400 . S
C269 C268 1.385 1_545 S
C270 C268 1.478 . S
C270 C272 1.356 1_565 S
C270 C276 1.407 . S
C271 C267 1.495 . S
C271 H277 0.959 . S
C271 H278 0.961 . S
C271 H279 0.960 1_565 S
C272 C270 1.356 1_545 S
C272 C273 1.394 . S
C272 H280 0.930 . S
C273 C272 1.394 . S
C273 C274 1.372 1_545 S
C273 H281 0.929 . S
C274 C273 1.372 1_565 S
C274 C275 1.388 . S
C275 H259 0.930 . S
C275 C274 1.388 . S
C275 C276 1.379 . S
C276 H260 0.931 . S
C276 C270 1.407 . S
C276 C275 1.379 . S
H277 C271 0.959 . S
H278 C271 0.961 . S
H279 C271 0.960 1_545 S
H280 C272 0.930 . S
H281 C273 0.929 . S
H282 C290 0.929 . S
H283 C292 0.930 . S
H284 C294 0.930 . S
H285 C297 0.929 . S
H286 C300 0.930 . S
H287 C302 0.960 . S
H288 C302 0.960 . S
H289 C302 0.960 . S
C290 H282 0.929 . S
C290 C291 1.377 1_655 S
C290 C292 1.384 . S
C291 C290 1.377 1_455 S
C291 C297 1.390 . S
C292 H283 0.930 . S
C292 C290 1.384 . S
C292 C293 1.366 1_655 S
C293 C292 1.366 1_455 S
C293 C294 1.406 . S
C293 C298 1.490 . S
C294 H284 0.930 . S
C294 C293 1.406 . S
C294 C297 1.386 . S
H295 C311 0.930 . S
H296 C312 0.931 . S
C297 H285 0.929 . S
C297 C291 1.390 . S
C297 C294 1.386 . S
C298 C293 1.490 . S
C298 C300 1.395 . S
C298 C301 1.403 1_455 S
H299 C305 0.930 . S
C300 H286 0.930 . S
C300 C298 1.395 . S
C300 C303 1.403 . S
C301 C298 1.403 1_655 S
C301 C302 1.524 . S
C301 C305 1.400 . S
C302 H287 0.960 . S
C302 H288 0.960 . S
C302 H289 0.960 . S
C302 C301 1.524 . S
C303 C300 1.403 . S
C303 C304 1.392 . S
C303 C307 1.495 . S
C304 C303 1.392 . S
C304 C305 1.385 1_455 S
C304 C306 1.478 . S
C305 H299 0.930 . S
C305 C301 1.400 . S
C305 C304 1.385 1_655 S
C306 C304 1.478 . S
C306 C308 1.381 1_455 S
C306 C312 1.383 . S
C307 C303 1.495 . S
C307 H313 0.959 . S
C307 H314 0.961 . S
C307 H315 0.960 . S
C308 C306 1.381 1_655 S
C308 C309 1.394 . S
C308 H316 0.930 . S
C309 C308 1.394 . S
C309 C310 1.383 1_655 S
C309 H317 0.929 . S
C310 C309 1.383 1_455 S
C310 C311 1.377 . S
C311 H295 0.930 . S
C311 C310 1.377 . S
C311 C312 1.379 . S
C312 H296 0.931 . S
C312 C306 1.383 . S
C312 C311 1.379 . S
H313 C307 0.959 . S
H314 C307 0.961 . S
H315 C307 0.960 . S
H316 C308 0.930 . S
H317 C309 0.929 . S
H318 C326 0.929 . S
H319 C328 0.930 . S
H320 C330 0.930 . S
H321 C333 0.929 . S
H322 C336 0.930 . S
H323 C338 0.960 . S
H324 C338 0.960 . S
H325 C338 0.960 . S
C326 H318 0.929 . S
C326 C327 1.377 . S
C326 C328 1.384 . S
C327 C326 1.377 . S
C327 C333 1.390 1_545 S
C328 H319 0.930 . S
C328 C326 1.384 . S
C328 C329 1.372 . S
C329 C328 1.372 . S
C329 C330 1.400 1_545 S
C329 C334 1.490 . S
C330 H320 0.930 . S
C330 C329 1.400 1_565 S
C330 C333 1.386 . S
H331 C347 0.930 . S
H332 C348 0.931 . S
C333 H321 0.929 . S
C333 C327 1.390 1_565 S
C333 C330 1.386 . S
C334 C329 1.490 . S
C334 C336 1.395 1_545 S
C334 C337 1.403 . S
H335 C341 0.930 . S
C336 H322 0.930 . S
C336 C334 1.395 1_565 S
C336 C339 1.403 . S
C337 C334 1.403 . S
C337 C338 1.524 . S
C337 C341 1.400 . S
C338 H323 0.960 . S
C338 H324 0.960 . S
C338 H325 0.960 . S
C338 C337 1.524 . S
C339 C336 1.403 . S
C339 C340 1.392 . S
C339 C343 1.495 . S
C340 C339 1.392 . S
C340 C341 1.385 1_565 S
C340 C342 1.478 . S
C341 H335 0.930 . S
C341 C337 1.400 . S
C341 C340 1.385 1_545 S
C342 C340 1.478 . S
C342 C344 1.381 1_565 S
C342 C348 1.383 . S
C343 C339 1.495 . S
C343 H349 0.959 . S
C343 H350 0.961 . S
C343 H351 0.960 . S
C344 C342 1.381 1_545 S
C344 C345 1.394 . S
C344 H352 0.930 . S
C345 C344 1.394 . S
C345 C346 1.383 1_545 S
C345 H353 0.929 . S
C346 C345 1.383 1_565 S
C346 C347 1.377 . S
C347 H331 0.930 . S
C347 C346 1.377 . S
C347 C348 1.379 . S
C348 H332 0.931 . S
C348 C342 1.383 . S
C348 C347 1.379 . S
H349 C343 0.959 . S
H350 C343 0.961 . S
H351 C343 0.960 . S
H352 C344 0.930 . S
H353 C345 0.929 . S
H354 C362 0.929 . S
H355 C364 0.930 . S
H356 C366 0.930 . S
H357 C369 0.929 . S
H358 C372 0.930 . S
H359 C374 0.960 . S
H360 C374 0.960 . S
H361 C374 0.960 . S
C362 H354 0.929 . S
C362 C363 1.377 1_655 S
C362 C364 1.384 . S
C363 C362 1.377 1_455 S
C363 C369 1.390 . S
C364 H355 0.930 . S
C364 C362 1.384 . S
C364 C365 1.370 . S
C365 C364 1.370 . S
C365 C366 1.402 1_655 S
C365 C370 1.490 . S
C366 H356 0.930 . S
C366 C365 1.402 1_455 S
C366 C369 1.386 . S
H367 C383 0.930 . S
H368 C384 0.931 . S
C369 H357 0.929 . S
C369 C363 1.390 . S
C369 C366 1.386 . S
C370 C365 1.490 . S
C370 C372 1.395 . S
C370 C373 1.403 1_655 S
H371 C377 0.930 . S
C372 H358 0.930 . S
C372 C370 1.395 . S
C372 C375 1.403 . S
C373 C370 1.403 1_455 S
C373 C374 1.524 . S
C373 C377 1.400 . S
C374 H359 0.960 . S
C374 H360 0.960 . S
C374 H361 0.960 . S
C374 C373 1.524 . S
C375 C372 1.403 . S
C375 C376 1.392 . S
C375 C379 1.495 . S
C376 C375 1.392 . S
C376 C377 1.385 1_655 S
C376 C378 1.478 . S
C377 H371 0.930 . S
C377 C373 1.400 . S
C377 C376 1.385 1_455 S
C378 C376 1.478 . S
C378 C380 1.381 . S
C378 C384 1.383 1_655 S
C379 C375 1.495 . S
C379 H385 0.959 . S
C379 H386 0.961 . S
C379 H387 0.960 . S
C380 C378 1.381 . S
C380 C381 1.394 . S
C380 H388 0.930 . S
C381 C380 1.394 . S
C381 C382 1.383 . S
C381 H389 0.929 . S
C382 C381 1.383 . S
C382 C383 1.377 1_655 S
C383 H367 0.930 . S
C383 C382 1.377 1_455 S
C383 C384 1.379 . S
C384 H368 0.931 . S
C384 C378 1.383 1_455 S
C384 C383 1.379 . S
H385 C379 0.959 . S
H386 C379 0.961 . S
H387 C379 0.960 . S
H388 C380 0.930 . S
H389 C381 0.929 . S
H390 C398 0.929 . S
H391 C400 0.930 . S
H392 C402 0.930 . S
H393 C405 0.929 . S
H394 C408 0.930 . S
H395 C410 0.960 . S
H396 C410 0.960 . S
H397 C410 0.960 . S
C398 H390 0.929 . S
C398 C399 1.377 1_565 S
C398 C400 1.384 . S
C399 C398 1.377 1_545 S
C399 C405 1.390 . S
C400 H391 0.930 . S
C400 C398 1.384 . S
C400 C401 1.369 1_565 S
C401 C400 1.369 1_545 S
C401 C402 1.402 . S
C401 C406 1.490 . S
C402 H392 0.930 . S
C402 C401 1.402 . S
C402 C405 1.386 . S
H403 C419 0.930 . S
H404 C420 0.931 . S
C405 H393 0.929 . S
C405 C399 1.390 . S
C405 C402 1.386 . S
C406 C401 1.490 . S
C406 C408 1.404 . S
C406 C409 1.393 1_545 S
H407 C413 0.930 . S
C408 H394 0.930 . S
C408 C406 1.404 . S
C408 C411 1.403 . S
C409 C406 1.393 1_565 S
C409 C410 1.524 . S
C409 C413 1.400 . S
C410 H395 0.960 . S
C410 H396 0.960 . S
C410 H397 0.960 . S
C410 C409 1.524 . S
C411 C408 1.403 . S
C411 C412 1.392 . S
C411 C415 1.495 . S
C412 C411 1.392 . S
C412 C413 1.385 1_545 S
C412 C414 1.478 . S
C413 H407 0.930 . S
C413 C409 1.400 . S
C413 C412 1.385 1_565 S
C414 C412 1.478 . S
C414 C416 1.381 1_545 S
C414 C420 1.383 . S
C415 C411 1.495 . S
C415 H421 0.959 . S
C415 H422 0.961 . S
C415 H423 0.960 . S
C416 C414 1.381 1_565 S
C416 C417 1.394 . S
C416 H424 0.930 . S
C417 C416 1.394 . S
C417 C418 1.383 1_565 S
C417 H425 0.929 . S
C418 C417 1.383 1_545 S
C418 C419 1.377 . S
C419 H403 0.930 . S
C419 C418 1.377 . S
C419 C420 1.379 . S
C420 H404 0.931 . S
C420 C414 1.383 . S
C420 C419 1.379 . S
H421 C415 0.959 . S
H422 C415 0.961 . S
H423 C415 0.960 . S
H424 C416 0.930 . S
H425 C417 0.929 . S
C147 C22 1.378 . S
C166 C54 1.415 . S
C183 C8 1.501 1_565 S
C202 C124 1.554 1_565 S
C219 C31 1.512 1_655 S
C238 C70 1.559 . S
C255 C17 1.382 . S
C274 C114 1.417 1_565 S
C291 C30 1.383 . S
C310 C61 1.423 1_455 S
C327 C27 1.512 1_545 S
C346 C123 1.556 . S
C382 C71 1.556 . S
C363 C23 1.502 1_455 S
C399 C24 1.381 . S
C418 C107 1.421 1_545 S
