# Generated by pormake.
# Topology rtl, (3,6)-cn, num edge types: 1
# Building blocks:
#     Node 0, Type 0, BuildingBlock: OLANEW_clean_sbu_2, # of connection points: 3
#     Node 1, Type 0, BuildingBlock: OLANEW_clean_sbu_2, # of connection points: 3
#     Node 2, Type 0, BuildingBlock: OLANEW_clean_sbu_2, # of connection points: 3
#     Node 3, Type 0, BuildingBlock: OLANEW_clean_sbu_2, # of connection points: 3
#     Node 4, Type 1, BuildingBlock: KUMBOL_clean_sbu_1, # of connection points: 6
#     Node 5, Type 1, BuildingBlock: KUMBOL_clean_sbu_1, # of connection points: 6
#     Edge 6, Type (0, 1), BuildingBlock: KIFKEQ_clean_linker_1, # of connection points: 2
#     Edge 7, Type (0, 1), BuildingBlock: KIFKEQ_clean_linker_1, # of connection points: 2
#     Edge 8, Type (0, 1), BuildingBlock: KIFKEQ_clean_linker_1, # of connection points: 2
#     Edge 9, Type (0, 1), BuildingBlock: KIFKEQ_clean_linker_1, # of connection points: 2
#     Edge 10, Type (0, 1), BuildingBlock: KIFKEQ_clean_linker_1, # of connection points: 2
#     Edge 11, Type (0, 1), BuildingBlock: KIFKEQ_clean_linker_1, # of connection points: 2
#     Edge 12, Type (0, 1), BuildingBlock: KIFKEQ_clean_linker_1, # of connection points: 2
#     Edge 13, Type (0, 1), BuildingBlock: KIFKEQ_clean_linker_1, # of connection points: 2
#     Edge 14, Type (0, 1), BuildingBlock: KIFKEQ_clean_linker_1, # of connection points: 2
#     Edge 15, Type (0, 1), BuildingBlock: KIFKEQ_clean_linker_1, # of connection points: 2
#     Edge 16, Type (0, 1), BuildingBlock: KIFKEQ_clean_linker_1, # of connection points: 2
#     Edge 17, Type (0, 1), BuildingBlock: KIFKEQ_clean_linker_1, # of connection points: 2
# Relax obj value: 0.043
# Max RMSD: 0.166
# Mean RMSD: 0.131
data_MOF--net-rtl--node1-OLANEW_clean_sbu_2--node2-KUMBOL_clean_sbu_1--edge1-KIFKEQ_clean_linker_1
_symmetry_space_group_name_H-M    P1
_symmetry_Int_Tables_number       1
_symmetry_cell_setting            triclinic
loop_
_symmetry_equiv_pos_as_xyz
'x, y, z'
_cell_length_a     38.255528
_cell_length_b     38.036726
_cell_length_c     29.645034
_cell_angle_alpha  76.008308
_cell_angle_beta   102.59163
_cell_angle_gamma 91.307199
loop_
_atom_site_label
_atom_site_type_symbol
_atom_site_fract_x
_atom_site_fract_y
_atom_site_fract_z
_atom_type_partial_charge
O0 O 0.22229 0.85047 0.97337 0.0
Cd1 Cd 0.26348 0.82143 0.04804 0.0
O2 O 0.20908 0.89802 0.99754 0.0
Cd3 Cd 0.23232 0.87887 0.0737 0.0
O4 O 0.2209 0.87904 0.14297 0.0
C5 C 0.20119 0.9056 0.14276 0.0
O6 O 0.19123 0.93068 0.10288 0.0
C7 C 0.20661 0.88128 0.96471 0.0
C8 C 0.30482 0.76578 0.03633 0.0
O9 O 0.27613 0.75893 0.0521 0.0
O10 O 0.31402 0.79888 0.02614 0.0
O11 O 0.66078 0.74169 0.71659 0.0
Cd12 Cd 0.67917 0.78287 0.64812 0.0
O13 O 0.65576 0.70098 0.67483 0.0
Cd14 Cd 0.6392 0.65147 0.65178 0.0
O15 O 0.62896 0.61687 0.60134 0.0
C16 C 0.59784 0.61593 0.57557 0.0
O17 O 0.57136 0.6345 0.58148 0.0
C18 C 0.65176 0.7101 0.71198 0.0
C19 C 0.74493 0.81765 0.6567 0.0
O20 O 0.71729 0.83174 0.66433 0.0
O21 O 0.742 0.78626 0.64766 0.0
O22 O 0.77004 0.14377 0.15893 0.0
Cd23 Cd 0.73006 0.16349 0.08002 0.0
O24 O 0.81527 0.1354 0.12738 0.0
Cd25 Cd 0.78846 0.15033 0.05227 0.0
O26 O 0.79935 0.15703 0.98154 0.0
C27 C 0.79983 0.12982 0.9638 0.0
O28 O 0.79017 0.09829 0.98653 0.0
C29 C 0.8027 0.13464 0.16389 0.0
C30 C 0.69091 0.22759 0.06779 0.0
O31 O 0.67924 0.19663 0.08562 0.0
O32 O 0.7213 0.22831 0.05605 0.0
O33 O 0.31937 0.31667 0.53272 0.0
Cd34 Cd 0.30168 0.28275 0.4706 0.0
O35 O 0.37551 0.31785 0.52523 0.0
Cd36 Cd 0.36684 0.30205 0.45758 0.0
O37 O 0.37934 0.31955 0.38694 0.0
C38 C 0.37888 0.35372 0.37045 0.0
O39 O 0.36944 0.37476 0.39529 0.0
C40 C 0.3519 0.32435 0.5467 0.0
C41 C 0.2505 0.22969 0.48694 0.0
O42 O 0.28391 0.22288 0.50549 0.0
O43 O 0.24111 0.26172 0.46132 0.0
C44 C 0.94414 0.11561 0.4947 0.0
C45 C 0.88129 0.10074 0.48156 0.0
C46 C 0.91701 0.0928 0.50729 0.0
C47 C 0.8735 0.1309 0.44241 0.0
C48 C 0.93629 0.14628 0.45594 0.0
C49 C 0.90088 0.15365 0.42972 0.0
N50 N 0.97848 0.10698 0.51928 0.0
C51 C 0.00593 0.12873 0.50869 0.0
C52 C 0.96441 0.1683 0.44416 0.0
C53 C 0.99934 0.15958 0.47082 0.0
Gd54 Gd 0.02349 0.96912 0.54495 0.0
Gd55 Gd 0.98677 0.05508 0.58243 0.0
N56 N 0.92538 0.06335 0.54498 0.0
C57 C 0.85428 0.07855 0.49651 0.0
C58 C 0.89863 0.04389 0.56221 0.0
C59 C 0.86292 0.05047 0.53758 0.0
H60 H 0.90424 0.02403 0.59573 0.0
H61 H 0.842 0.03433 0.55089 0.0
H62 H 0.10608 1.00041 0.53153 0.0
H63 H 0.03287 0.12218 0.52954 0.0
H64 H 0.16847 0.98904 0.5753 0.0
H65 H 0.82655 0.08374 0.4777 0.0
H66 H 0.84626 0.13713 0.42203 0.0
H67 H 0.97812 0.89949 0.59305 0.0
H68 H 0.95945 0.19206 0.41459 0.0
H69 H 0.02119 0.1766 0.46219 0.0
H70 H 0.16486 0.88255 0.69928 0.0
H71 H 0.89439 0.17688 0.39954 0.0
H72 H 0.05187 0.82636 0.70351 0.0
H73 H 0.99003 0.84289 0.65687 0.0
N74 N 0.03242 0.91478 0.60416 0.0
C75 C 0.06676 0.90578 0.62839 0.0
C76 C 0.00508 0.89249 0.61349 0.0
C77 C 0.04678 0.85111 0.67548 0.0
C78 C 0.01181 0.8604 0.64936 0.0
C79 C 0.07479 0.87384 0.66517 0.0
H80 H 0.11689 0.84171 0.71962 0.0
N81 N 0.08515 0.95967 0.5811 0.0
C82 C 0.09372 0.92923 0.6172 0.0
C83 C 0.15647 0.94335 0.62796 0.0
C84 C 0.12955 0.92066 0.64214 0.0
C85 C 0.11182 0.97961 0.56425 0.0
C86 C 0.14763 0.97249 0.58819 0.0
O87 O 0.98665 0.05661 0.50557 0.0
O88 O 0.97368 0.99935 0.49734 0.0
O89 O 0.04465 0.96287 0.48377 0.0
O90 O 0.00866 0.92332 0.51458 0.0
O91 O 0.96338 1.00014 0.60836 0.0
O92 O 0.9653 0.97006 0.54958 0.0
O93 O 0.02555 0.96496 0.62299 0.0
O94 O 0.03399 0.02266 0.63413 0.0
O95 O 0.9634 0.06759 0.63871 0.0
O96 O 0.00332 0.10217 0.60891 0.0
O97 O 0.04787 0.02442 0.52288 0.0
O98 O 0.04558 0.05205 0.58369 0.0
C99 C 0.9693 0.03455 0.48154 0.0
C100 C 0.95219 0.97473 0.58542 0.0
C101 C 0.02812 0.91141 0.44734 0.0
C102 C 0.05565 0.89359 0.3887 0.0
C103 C 1.001 0.86562 0.4073 0.0
C104 C 1.00106 0.8865 0.43997 0.0
C105 C 0.02799 0.8691 0.38182 0.0
C106 C 0.05534 0.91504 0.42141 0.0
C107 C 0.02757 0.93296 0.4825 0.0
C108 C 0.13754 0.88929 0.67949 0.0
C109 C 0.11026 0.86592 0.69091 0.0
H110 H 0.18429 0.93771 0.64617 0.0
C111 C 0.04012 0.98741 0.64848 0.0
C112 C 0.06002 0.04763 0.54901 0.0
C113 C 0.98086 0.12173 0.66915 0.0
C114 C 0.95595 0.14137 0.72868 0.0
C115 C 1.00116 0.17681 0.69313 0.0
C116 C 1.0027 0.15207 0.66579 0.0
C117 C 0.9779 0.17168 0.72415 0.0
C118 C 0.95755 0.11641 0.70081 0.0
C119 C 0.98209 0.0967 0.63838 0.0
H120 H 0.97987 0.84672 0.40161 0.0
H121 H 0.97973 0.88326 0.45927 0.0
H122 H 0.02689 0.85287 0.35616 0.0
H123 H 0.07652 0.93389 0.42739 0.0
H124 H 0.01788 0.20024 0.68996 0.0
H125 H 0.02085 0.15696 0.64168 0.0
H126 H 0.97677 0.19185 0.74412 0.0
H127 H 0.9409 0.0929 0.70389 0.0
C128 C 0.62087 0.5468 0.04458 0.0
C129 C 0.62176 0.61248 0.02138 0.0
C130 C 0.60446 0.58032 0.03776 0.0
C131 C 0.65504 0.61036 0.00935 0.0
C132 C 0.65514 0.54458 0.03489 0.0
C133 C 0.67165 0.57647 0.01594 0.0
N134 N 0.60451 0.51659 0.06404 0.0
C135 C 0.62279 0.48395 0.07954 0.0
C136 C 0.67243 0.51054 0.04643 0.0
C137 C 0.65647 0.48019 0.06975 0.0
Gd138 Gd 0.47058 0.49591 0.97438 0.0
Gd139 Gd 0.54657 0.52595 0.07531 0.0
N140 N 0.57204 0.58147 0.04892 0.0
C141 C 0.60535 0.64575 0.01855 0.0
C142 C 0.55656 0.6136 0.0483 0.0
C143 C 0.57284 0.64627 0.03272 0.0
H144 H 0.5314 0.61389 0.0592 0.0
H145 H 0.56026 0.6718 0.03144 0.0
H146 H 0.50603 0.41804 0.96376 0.0
H147 H 0.61187 0.46075 0.10023 0.0
H148 H 0.50159 0.35232 0.99497 0.0
H149 H 0.61783 0.67108 0.00626 0.0
H150 H 0.66855 0.63476 0.99602 0.0
H151 H 0.39549 0.5344 0.98197 0.0
H152 H 0.69875 0.50766 0.03952 0.0
H153 H 0.67038 0.45402 0.08102 0.0
H154 H 0.40083 0.34235 0.06888 0.0
H155 H 0.6978 0.57526 0.00779 0.0
H156 H 0.33344 0.45158 0.05091 0.0
H157 H 0.34128 0.51614 0.01386 0.0
N158 N 0.4179 0.48085 0.00188 0.0
C159 C 0.41312 0.44505 0.01939 0.0
C160 C 0.39202 0.5062 0.99799 0.0
C161 C 0.35707 0.45943 0.03681 0.0
C162 C 0.36141 0.49593 0.01594 0.0
C163 C 0.38289 0.4334 0.03824 0.0
H164 H 0.35637 0.3868 0.07244 0.0
N165 N 0.46616 0.43235 0.99682 0.0
C166 C 0.43841 0.42012 0.01769 0.0
C167 C 0.45775 0.35814 0.02781 0.0
C168 C 0.43375 0.38269 0.03438 0.0
C169 C 0.48716 0.40846 0.98589 0.0
C170 C 0.48407 0.37109 0.00247 0.0
O171 O 0.53455 0.55961 0.99873 0.0
O172 O 0.52236 0.51702 0.95512 0.0
O173 O 0.44444 0.47416 0.91469 0.0
O174 O 0.44274 0.53187 0.90803 0.0
O175 O 0.49226 0.55422 0.05911 0.0
O176 O 0.46295 0.5533 0.98149 0.0
O177 O 0.46206 0.49342 0.04847 0.0
O178 O 0.51698 0.47459 0.09496 0.0
O179 O 0.53248 0.54289 0.13416 0.0
O180 O 0.58576 0.52159 0.14174 0.0
O181 O 0.52721 0.47268 0.98738 0.0
O182 O 0.54836 0.46827 0.06758 0.0
C183 C 0.53546 0.54832 0.96042 0.0
C184 C 0.46769 0.56663 0.01965 0.0
C185 C 0.44329 0.51133 0.83828 0.0
C186 C 0.43685 0.49105 0.76452 0.0
C187 C 0.47006 0.54514 0.77448 0.0
C188 C 0.46348 0.54049 0.82001 0.0
C189 C 0.45678 0.5208 0.74682 0.0
C190 C 0.43017 0.48673 0.81043 0.0
C191 C 0.43557 0.50584 0.88614 0.0
C192 C 0.40458 0.37098 0.05533 0.0
C193 C 0.37918 0.39628 0.05721 0.0
H194 H 0.45514 0.32917 0.04014 0.0
C195 C 0.48204 0.47439 0.08816 0.0
C196 C 0.54807 0.45714 0.02879 0.0
C197 C 0.56122 0.50906 0.20997 0.0
C198 C 0.56214 0.50278 0.29417 0.0
C199 C 0.55136 0.45056 0.25966 0.0
C200 C 0.55464 0.47202 0.21548 0.0
C201 C 0.55498 0.46578 0.2988 0.0
C202 C 0.56509 0.52432 0.24933 0.0
C203 C 0.56313 0.53216 0.1631 0.0
H204 H 0.48547 0.56779 0.76051 0.0
H205 H 0.47414 0.5597 0.84077 0.0
H206 H 0.46192 0.52553 0.71137 0.0
H207 H 0.41526 0.46384 0.82508 0.0
H208 H 0.54614 0.422 0.26364 0.0
H209 H 0.55208 0.45975 0.18563 0.0
H210 H 0.55283 0.44847 0.33288 0.0
H211 H 0.56993 0.55303 0.24487 0.0
H212 H 0.1808 0.23058 0.43824 0.0
H213 H 0.25945 0.1645 0.55276 0.0
H214 H 0.13646 0.18397 0.45141 0.0
H215 H 0.21497 0.11816 0.56612 0.0
H216 H 0.10965 0.07379 0.61208 0.0
H217 H 0.1568 0.11607 0.59556 0.0
H218 H 0.12543 0.11738 0.44617 0.0
H219 H 0.0782 0.07447 0.46289 0.0
C220 C 0.18864 0.20613 0.46619 0.0
C221 C 0.22362 0.20133 0.4946 0.0
C222 C 0.16332 0.17934 0.47344 0.0
C223 C 0.17227 0.14742 0.50974 0.0
C224 C 0.20727 0.14257 0.53802 0.0
C225 C 0.23274 0.16908 0.5303 0.0
C226 C 0.113 0.08285 0.57574 0.0
C227 C 0.09026 0.07088 0.53873 0.0
C228 C 0.14011 0.10692 0.56635 0.0
C229 C 0.14476 0.12009 0.51958 0.0
C230 C 0.1223 0.1078 0.48253 0.0
C231 C 0.0955 0.0831 0.4921 0.0
H232 H 0.35709 0.77183 0.98517 0.0
H233 H 0.30267 0.69312 0.07499 0.0
H234 H 0.39499 0.7232 0.97831 0.0
H235 H 0.34094 0.64473 0.06864 0.0
H236 H 0.45044 0.58281 0.09678 0.0
H237 H 0.40947 0.6305 0.09811 0.0
H238 H 0.3876 0.6645 0.94461 0.0
H239 H 0.42844 0.61616 0.94302 0.0
C240 C 0.35317 0.74417 0.00334 0.0
C241 C 0.32698 0.73632 0.03078 0.0
C242 C 0.3747 0.71637 0.99916 0.0
C243 C 0.3709 0.68028 0.02302 0.0
C244 C 0.34454 0.67238 0.0501 0.0
C245 C 0.32259 0.70006 0.0536 0.0
C246 C 0.43699 0.60044 0.06323 0.0
C247 C 0.44279 0.59582 0.01976 0.0
C248 C 0.41333 0.62757 0.06405 0.0
C249 C 0.39536 0.6511 0.02149 0.0
C250 C 0.40127 0.64675 0.97794 0.0
C251 C 0.42449 0.61907 0.97704 0.0
H252 H 0.80524 0.79794 0.63222 0.0
H253 H 0.75978 0.88443 0.6748 0.0
H254 H 0.85679 0.83472 0.61892 0.0
H255 H 0.81132 0.92132 0.6611 0.0
H256 H 0.92512 0.96601 0.66599 0.0
H257 H 0.87715 0.92652 0.68834 0.0
H258 H 0.86574 0.88972 0.5592 0.0
H259 H 0.9133 0.92906 0.53676 0.0
C260 C 0.8064 0.82463 0.6393 0.0
C261 C 0.77823 0.83827 0.65434 0.0
C262 C 0.83586 0.84582 0.63133 0.0
C263 C 0.83801 0.88112 0.63844 0.0
C264 C 0.81061 0.89419 0.6555 0.0
C265 C 0.781 0.87305 0.66322 0.0
C266 C 0.9123 0.94957 0.6423 0.0
C267 C 0.92309 0.95083 0.59951 0.0
C268 C 0.88479 0.92696 0.65512 0.0
C269 C 0.86772 0.90481 0.62569 0.0
C270 C 0.87869 0.90597 0.58309 0.0
C271 C 0.90589 0.92873 0.5701 0.0
H272 H 0.62865 0.23508 0.09595 0.0
H273 H 0.70532 0.29667 0.02371 0.0
H274 H 0.59396 0.29069 0.08489 0.0
H275 H 0.67062 0.35239 0.01298 0.0
H276 H 0.56686 0.40123 0.10703 0.0
H277 H 0.60141 0.34609 0.11539 0.0
H278 H 0.61117 0.38243 0.96902 0.0
H279 H 0.57674 0.43808 0.96085 0.0
C280 C 0.63814 0.26047 0.07774 0.0
C281 C 0.66983 0.26143 0.06085 0.0
C282 C 0.61832 0.29236 0.07159 0.0
C283 C 0.62961 0.32594 0.04817 0.0
C284 C 0.66108 0.32689 0.03079 0.0
C285 C 0.68106 0.29499 0.03723 0.0
C286 C 0.57653 0.39753 0.07669 0.0
C287 C 0.5692 0.42392 0.03329 0.0
C288 C 0.59605 0.36581 0.08136 0.0
C289 C 0.60892 0.35984 0.04283 0.0
C290 C 0.60182 0.3864 0.99945 0.0
C291 C 0.58198 0.41809 0.99466 0.0
H292 H 0.1534 0.95523 0.1493 0.0
H293 H 0.21574 0.85858 0.23135 0.0
H294 H 0.12402 0.95379 0.21443 0.0
H295 H 0.18709 0.85779 0.29755 0.0
H296 H 0.08966 0.83883 0.36839 0.0
H297 H 0.12961 0.84384 0.31396 0.0
H298 H 0.12784 0.9603 0.29324 0.0
H299 H 0.08611 0.95531 0.34601 0.0
C300 C 0.16133 0.93399 0.18162 0.0
C301 C 0.18664 0.90676 0.18485 0.0
C302 C 0.14463 0.93333 0.21926 0.0
C303 C 0.15296 0.90556 0.26132 0.0
C304 C 0.17953 0.87924 0.26539 0.0
C305 C 0.19611 0.87978 0.22753 0.0
C306 C 0.09778 0.86554 0.35225 0.0
C307 C 0.08412 0.89671 0.36091 0.0
C308 C 0.12118 0.8684 0.32149 0.0
C309 C 0.13183 0.90251 0.29877 0.0
C310 C 0.11972 0.93361 0.30946 0.0
C311 C 0.09611 0.93075 0.34015 0.0
H312 H 0.60603 0.72965 0.76045 0.0
H313 H 0.65822 0.63606 0.74306 0.0
H314 H 0.57562 0.69079 0.81662 0.0
H315 H 0.62981 0.59681 0.80203 0.0
H316 H 0.55265 0.53072 0.88304 0.0
H317 H 0.57896 0.56937 0.82144 0.0
H318 H 0.58118 0.65699 0.8918 0.0
H319 H 0.55126 0.61971 0.9492 0.0
C320 C 0.61138 0.70065 0.76931 0.0
C321 C 0.63445 0.68589 0.74736 0.0
C322 C 0.59412 0.6782 0.80194 0.0
C323 C 0.60026 0.6403 0.81474 0.0
C324 C 0.62366 0.62563 0.79274 0.0
C325 C 0.64022 0.64814 0.75907 0.0
C326 C 0.5585 0.55838 0.88495 0.0
C327 C 0.55079 0.57179 0.92205 0.0
C328 C 0.57406 0.58054 0.84985 0.0
C329 C 0.58281 0.61655 0.85136 0.0
C330 C 0.5746 0.6298 0.88841 0.0
C331 C 0.55817 0.60801 0.92245 0.0
H332 H 0.78393 0.11545 0.25086 0.0
H333 H 0.87531 0.12585 0.18527 0.0
H334 H 0.82382 0.09232 0.32911 0.0
H335 H 0.91471 0.10281 0.26288 0.0
H336 H 0.97828 0.09463 0.41443 0.0
H337 H 0.93661 0.1214 0.33923 0.0
H338 H 0.86318 0.03549 0.37006 0.0
H339 H 0.90493 0.00892 0.44567 0.0
C340 C 0.81245 0.11303 0.25313 0.0
C341 C 0.82641 0.12238 0.21181 0.0
C342 C 0.83521 0.09961 0.29782 0.0
C343 C 0.87233 0.09575 0.30201 0.0
C344 C 0.88627 0.10581 0.26083 0.0
C345 C 0.8636 0.11882 0.2163 0.0
C346 C 0.95322 0.08153 0.405 0.0
C347 C 0.94475 0.04972 0.43547 0.0
C348 C 0.92944 0.09676 0.36202 0.0
C349 C 0.89666 0.08051 0.3488 0.0
C350 C 0.88811 0.04876 0.37956 0.0
C351 C 0.91211 0.03332 0.4224 0.0
H352 H 0.30969 0.36655 0.5779 0.0
H353 H 0.41839 0.32604 0.60222 0.0
H354 H 0.32956 0.40528 0.6328 0.0
H355 H 0.43805 0.36324 0.65857 0.0
H356 H 0.47041 0.46617 0.70491 0.0
H357 H 0.44852 0.42436 0.65591 0.0
H358 H 0.35226 0.41122 0.71145 0.0
H359 H 0.37311 0.45529 0.75805 0.0
C360 C 0.33768 0.36529 0.59585 0.0
C361 C 0.36252 0.34352 0.58536 0.0
C362 C 0.34912 0.38746 0.62745 0.0
C363 C 0.38561 0.38797 0.6497 0.0
C364 C 0.40996 0.36451 0.64112 0.0
C365 C 0.39863 0.34286 0.60909 0.0
C366 C 0.44433 0.45486 0.70628 0.0
C367 C 0.42355 0.46444 0.73544 0.0
C368 C 0.43198 0.43023 0.67869 0.0
C369 C 0.39865 0.41397 0.67984 0.0
C370 C 0.3779 0.42334 0.70922 0.0
C371 C 0.39013 0.44832 0.73653 0.0
H372 H 0.64838 0.58267 0.54603 0.0
H373 H 0.53447 0.60584 0.51696 0.0
H374 H 0.63941 0.55438 0.47896 0.0
H375 H 0.52562 0.57774 0.44966 0.0
H376 H 0.52152 0.49246 0.36146 0.0
H377 H 0.53014 0.51784 0.43126 0.0
H378 H 0.62174 0.57493 0.39089 0.0
H379 H 0.61356 0.54902 0.3217 0.0
C380 C 0.6214 0.58156 0.52553 0.0
C381 C 0.59215 0.59663 0.53681 0.0
C382 C 0.61631 0.56557 0.48689 0.0
C383 C 0.58184 0.56403 0.45884 0.0
C384 C 0.55248 0.57828 0.4708 0.0
C385 C 0.55759 0.59451 0.50926 0.0
C386 C 0.54362 0.51026 0.3677 0.0
C387 C 0.56688 0.51873 0.3361 0.0
C388 C 0.54837 0.52501 0.40743 0.0
C389 C 0.57667 0.54831 0.41665 0.0
C390 C 0.59992 0.55675 0.38505 0.0
C391 C 0.59501 0.54223 0.34515 0.0
H392 H 0.80449 0.07778 0.91532 0.0
H393 H 0.83417 0.18742 0.92001 0.0
H394 H 0.84023 0.07928 0.8557 0.0
H395 H 0.86983 0.18861 0.86095 0.0
H396 H 0.96941 0.15418 0.81751 0.0
H397 H 0.92782 0.15208 0.86947 0.0
H398 H 0.84544 0.11418 0.76924 0.0
H399 H 0.88682 0.11742 0.71591 0.0
C400 C 0.81815 0.10234 0.90316 0.0
C401 C 0.81678 0.13234 0.92279 0.0
C402 C 0.83851 0.10318 0.869 0.0
C403 C 0.85813 0.13386 0.85434 0.0
C404 C 0.85535 0.16442 0.87223 0.0
C405 C 0.83475 0.16376 0.90587 0.0
C406 C 0.94236 0.14572 0.80615 0.0
C407 C 0.93133 0.13653 0.76212 0.0
C408 C 0.91859 0.14446 0.83601 0.0
C409 C 0.88332 0.13351 0.82296 0.0
C410 C 0.87253 0.12277 0.78001 0.0
C411 C 0.89628 0.12446 0.74969 0.0
H412 H 0.40714 0.31899 0.31464 0.0
H413 H 0.37868 0.42535 0.32591 0.0
H414 H 0.43031 0.34677 0.24398 0.0
H415 H 0.40224 0.45291 0.25616 0.0
H416 H 0.41815 0.49081 0.10558 0.0
H417 H 0.39053 0.45958 0.17042 0.0
H418 H 0.48117 0.38394 0.22473 0.0
H419 H 0.50801 0.41442 0.15849 0.0
C420 C 0.40564 0.34823 0.30194 0.0
C421 C 0.39108 0.36994 0.32597 0.0
C422 C 0.41913 0.36415 0.26167 0.0
C423 C 0.41815 0.40206 0.24446 0.0
C424 C 0.40299 0.42363 0.26805 0.0
C425 C 0.38965 0.40778 0.30827 0.0
C426 C 0.43189 0.4672 0.13098 0.0
C427 C 0.46522 0.45505 0.12709 0.0
C428 C 0.41626 0.44951 0.1684 0.0
C429 C 0.43372 0.41935 0.20292 0.0
C430 C 0.46684 0.40685 0.1985 0.0
C431 C 0.48243 0.42455 0.16095 0.0
H432 H 0.17655 0.94961 0.9315 0.0
H433 H 0.18588 0.84957 0.88959 0.0
H434 H 0.13704 0.97538 0.8546 0.0
H435 H 0.14635 0.87566 0.81228 0.0
H436 H 0.03866 0.92099 0.70868 0.0
H437 H 0.08122 0.89504 0.78331 0.0
H438 H 0.13849 0.99493 0.76843 0.0
H439 H 0.09632 0.02052 0.6932 0.0
C440 C 0.17038 0.93316 0.90579 0.0
C441 C 0.18431 0.89745 0.91681 0.0
C442 C 0.14787 0.94804 0.86162 0.0
C443 C 0.13854 0.9275 0.82753 0.0
C444 C 0.15281 0.89197 0.83814 0.0
C445 C 0.17561 0.87714 0.88227 0.0
C446 C 0.0606 0.93719 0.72114 0.0
C447 C 0.06448 0.97256 0.69497 0.0
C448 C 0.08494 0.92237 0.76381 0.0
C449 C 0.11329 0.9429 0.78156 0.0
C450 C 0.11677 0.97855 0.75575 0.0
C451 C 0.09259 0.99324 0.71284 0.0
loop_
_geom_bond_atom_site_label_1
_geom_bond_atom_site_label_2
_geom_bond_distance
_geom_bond_site_symmetry_2
_ccdc_geom_bond_type
O0 Cd1 2.300 1_556 S
O0 C7 1.275 . S
Cd1 O0 2.300 1_554 S
Cd1 O9 2.381 . S
Cd1 O10 2.378 . S
O2 Cd3 2.385 1_556 S
O2 C7 1.255 . S
Cd3 O2 2.385 1_554 S
Cd3 O4 2.317 . S
O4 Cd3 2.317 . S
O4 C5 1.232 . S
C5 O4 1.232 . S
C5 O6 1.218 . S
O6 C5 1.218 . S
C7 O0 1.275 . S
C7 O2 1.255 . S
C8 O9 1.258 . S
C8 O10 1.256 . S
O9 Cd1 2.381 . S
O9 C8 1.258 . S
O10 Cd1 2.378 . S
O10 C8 1.256 . S
O11 Cd12 2.300 . S
O11 C18 1.275 . S
Cd12 O11 2.300 . S
Cd12 O20 2.381 . S
Cd12 O21 2.378 . S
O13 Cd14 2.385 . S
O13 C18 1.255 . S
Cd14 O13 2.385 . S
Cd14 O15 2.317 . S
O15 Cd14 2.317 . S
O15 C16 1.232 . S
C16 O15 1.232 . S
C16 O17 1.218 . S
O17 C16 1.218 . S
C18 O11 1.275 . S
C18 O13 1.255 . S
C19 O20 1.258 . S
C19 O21 1.256 . S
O20 Cd12 2.381 . S
O20 C19 1.258 . S
O21 Cd12 2.378 . S
O21 C19 1.256 . S
O22 Cd23 2.300 . S
O22 C29 1.275 . S
Cd23 O22 2.300 . S
Cd23 O31 2.381 . S
Cd23 O32 2.378 . S
O24 Cd25 2.385 . S
O24 C29 1.255 . S
Cd25 O24 2.385 . S
Cd25 O26 2.317 . S
O26 Cd25 2.317 . S
O26 C27 1.232 . S
C27 O26 1.232 . S
C27 O28 1.218 . S
O28 C27 1.218 . S
C29 O22 1.275 . S
C29 O24 1.255 . S
C30 O31 1.258 . S
C30 O32 1.256 . S
O31 Cd23 2.381 . S
O31 C30 1.258 . S
O32 Cd23 2.378 . S
O32 C30 1.256 . S
O33 Cd34 2.300 . S
O33 C40 1.275 . S
Cd34 O33 2.300 . S
Cd34 O42 2.381 . S
Cd34 O43 2.378 . S
O35 Cd36 2.385 . S
O35 C40 1.255 . S
Cd36 O35 2.385 . S
Cd36 O37 2.317 . S
O37 Cd36 2.317 . S
O37 C38 1.232 . S
C38 O37 1.232 . S
C38 O39 1.218 . S
O39 C38 1.218 . S
C40 O33 1.275 . S
C40 O35 1.255 . S
C41 O42 1.258 . S
C41 O43 1.256 . S
O42 Cd34 2.381 . S
O42 C41 1.258 . S
O43 Cd34 2.378 . S
O43 C41 1.256 . S
C44 C46 1.422 . S
C44 C48 1.415 . S
C44 N50 1.369 . S
C45 C46 1.421 . S
C45 C47 1.417 . S
C45 C57 1.422 . S
C46 C44 1.422 . S
C46 C45 1.421 . S
C46 N56 1.359 . S
C47 C45 1.417 . S
C47 C49 1.329 . S
C47 H66 0.930 . S
C48 C44 1.415 . S
C48 C49 1.437 . S
C48 C52 1.413 . S
C49 C47 1.329 . S
C49 C48 1.437 . S
C49 H71 0.929 . S
N50 C44 1.369 . S
N50 C51 1.338 1_655 S
N50 Gd55 2.622 . S
C51 N50 1.338 1_455 S
C51 C53 1.378 . S
C51 H63 0.929 . S
C52 C48 1.413 . S
C52 C53 1.348 1_655 S
C52 H68 0.931 . S
C53 C51 1.378 . S
C53 C52 1.348 1_455 S
C53 H69 0.930 . S
Gd54 N74 2.622 . S
Gd54 N81 2.570 . S
Gd54 O88 2.353 1_465 S
Gd54 O89 2.468 . S
Gd54 O90 2.427 . S
Gd54 O92 2.388 1_455 S
Gd54 O93 2.386 . S
Gd54 O97 2.307 1_565 S
Gd54 C107 2.805 . S
Gd55 N50 2.622 . S
Gd55 N56 2.570 . S
Gd55 O87 2.386 . S
Gd55 O91 2.307 1_545 S
Gd55 O94 2.353 1_655 S
Gd55 O95 2.468 . S
Gd55 O96 2.427 . S
Gd55 O98 2.388 1_655 S
Gd55 C119 2.805 . S
N56 C46 1.359 . S
N56 Gd55 2.570 . S
N56 C58 1.343 . S
C57 C45 1.422 . S
C57 C59 1.321 . S
C57 H65 0.931 . S
C58 N56 1.343 . S
C58 C59 1.390 . S
C58 H60 0.931 . S
C59 C57 1.321 . S
C59 C58 1.390 . S
C59 H61 0.930 . S
H60 C58 0.931 . S
H61 C59 0.930 . S
H62 C85 0.931 . S
H63 C51 0.929 . S
H64 C86 0.930 . S
H65 C57 0.931 . S
H66 C47 0.930 . S
H67 C76 0.929 1_655 S
H68 C52 0.931 . S
H69 C53 0.930 . S
H70 C108 0.930 . S
H71 C49 0.929 . S
H72 C77 0.931 . S
H73 C78 0.930 1_655 S
N74 Gd54 2.622 . S
N74 C75 1.369 . S
N74 C76 1.338 . S
C75 N74 1.369 . S
C75 C79 1.415 . S
C75 C82 1.422 . S
C76 H67 0.929 1_455 S
C76 N74 1.338 . S
C76 C78 1.378 . S
C77 H72 0.931 . S
C77 C78 1.348 . S
C77 C79 1.413 . S
C78 H73 0.930 1_455 S
C78 C76 1.378 . S
C78 C77 1.348 . S
C79 C75 1.415 . S
C79 C77 1.413 . S
C79 C109 1.437 . S
H80 C109 0.929 . S
N81 Gd54 2.570 . S
N81 C82 1.359 . S
N81 C85 1.343 . S
C82 C75 1.422 . S
C82 N81 1.359 . S
C82 C84 1.421 . S
C83 C84 1.422 . S
C83 C86 1.321 . S
C83 H110 0.931 . S
C84 C82 1.421 . S
C84 C83 1.422 . S
C84 C108 1.417 . S
C85 H62 0.931 . S
C85 N81 1.343 . S
C85 C86 1.390 . S
C86 H64 0.930 . S
C86 C83 1.321 . S
C86 C85 1.390 . S
O87 Gd55 2.386 . S
O87 C99 1.265 . S
O88 Gd54 2.353 1_645 S
O88 C99 1.242 . S
O89 Gd54 2.468 . S
O89 C107 1.263 . S
O90 Gd54 2.427 . S
O90 C107 1.252 . S
O91 Gd55 2.307 1_565 S
O91 C100 1.261 . S
O92 Gd54 2.388 1_655 S
O92 C100 1.252 . S
O93 Gd54 2.386 . S
O93 C111 1.265 . S
O94 Gd55 2.353 1_455 S
O94 C111 1.242 1_545 S
O95 Gd55 2.468 . S
O95 C119 1.263 . S
O96 Gd55 2.427 . S
O96 C119 1.252 . S
O97 Gd54 2.307 1_545 S
O97 C112 1.261 . S
O98 Gd55 2.388 1_455 S
O98 C112 1.252 . S
C99 O87 1.265 . S
C99 O88 1.242 . S
C100 O91 1.261 . S
C100 O92 1.252 . S
C101 C104 1.394 . S
C101 C106 1.370 . S
C101 C107 1.500 . S
C102 C105 1.383 . S
C102 C106 1.395 . S
C103 C104 1.396 . S
C103 C105 1.365 . S
C103 H120 0.929 . S
C104 C101 1.394 . S
C104 C103 1.396 . S
C104 H121 0.930 . S
C105 C102 1.383 . S
C105 C103 1.365 . S
C105 H122 0.931 . S
C106 C101 1.370 . S
C106 C102 1.395 . S
C106 H123 0.930 . S
C107 Gd54 2.805 . S
C107 O89 1.263 . S
C107 O90 1.252 . S
C107 C101 1.500 . S
C108 H70 0.930 . S
C108 C84 1.417 . S
C108 C109 1.329 . S
C109 C79 1.437 . S
C109 H80 0.929 . S
C109 C108 1.329 . S
H110 C83 0.931 . S
C111 O93 1.265 . S
C111 O94 1.242 1_565 S
C112 O97 1.261 . S
C112 O98 1.252 . S
C113 C116 1.394 . S
C113 C118 1.370 . S
C113 C119 1.500 . S
C114 C117 1.383 . S
C114 C118 1.395 . S
C115 C116 1.396 . S
C115 C117 1.365 . S
C115 H124 0.929 . S
C116 C113 1.394 . S
C116 C115 1.396 . S
C116 H125 0.930 . S
C117 C114 1.383 . S
C117 C115 1.365 . S
C117 H126 0.931 . S
C118 C113 1.370 . S
C118 C114 1.395 . S
C118 H127 0.930 . S
C119 Gd55 2.805 . S
C119 O95 1.263 . S
C119 O96 1.252 . S
C119 C113 1.500 . S
H120 C103 0.929 . S
H121 C104 0.930 . S
H122 C105 0.931 . S
H123 C106 0.930 . S
H124 C115 0.929 . S
H125 C116 0.930 . S
H126 C117 0.931 . S
H127 C118 0.930 . S
C128 C130 1.422 . S
C128 C132 1.415 . S
C128 N134 1.369 . S
C129 C130 1.421 . S
C129 C131 1.417 . S
C129 C141 1.422 . S
C130 C128 1.422 . S
C130 C129 1.421 . S
C130 N140 1.359 . S
C131 C129 1.417 . S
C131 C133 1.329 . S
C131 H150 0.930 . S
C132 C128 1.415 . S
C132 C133 1.437 . S
C132 C136 1.413 . S
C133 C131 1.329 . S
C133 C132 1.437 . S
C133 H155 0.929 . S
N134 C128 1.369 . S
N134 C135 1.338 . S
N134 Gd139 2.622 . S
C135 N134 1.338 . S
C135 C137 1.378 . S
C135 H147 0.929 . S
C136 C132 1.413 . S
C136 C137 1.348 . S
C136 H152 0.931 . S
C137 C135 1.378 . S
C137 C136 1.348 . S
C137 H153 0.930 . S
Gd138 N158 2.622 . S
Gd138 N165 2.570 1_556 S
Gd138 O172 2.353 . S
Gd138 O173 2.468 . S
Gd138 O174 2.427 . S
Gd138 O176 2.388 . S
Gd138 O177 2.386 1_556 S
Gd138 O181 2.307 1_556 S
Gd138 C191 2.805 . S
Gd139 N134 2.622 . S
Gd139 N140 2.570 . S
Gd139 O171 2.386 1_554 S
Gd139 O175 2.307 . S
Gd139 O178 2.353 . S
Gd139 O179 2.468 . S
Gd139 O180 2.427 . S
Gd139 O182 2.388 . S
Gd139 C203 2.805 . S
N140 C130 1.359 . S
N140 Gd139 2.570 . S
N140 C142 1.343 . S
C141 C129 1.422 . S
C141 C143 1.321 . S
C141 H149 0.931 . S
C142 N140 1.343 . S
C142 C143 1.390 . S
C142 H144 0.931 . S
C143 C141 1.321 . S
C143 C142 1.390 . S
C143 H145 0.930 . S
H144 C142 0.931 . S
H145 C143 0.930 . S
H146 C169 0.931 . S
H147 C135 0.929 . S
H148 C170 0.930 . S
H149 C141 0.931 . S
H150 C131 0.930 . S
H151 C160 0.929 . S
H152 C136 0.931 . S
H153 C137 0.930 . S
H154 C192 0.930 . S
H155 C133 0.929 . S
H156 C161 0.931 . S
H157 C162 0.930 . S
N158 Gd138 2.622 . S
N158 C159 1.369 1_556 S
N158 C160 1.338 . S
C159 N158 1.369 1_554 S
C159 C163 1.415 . S
C159 C166 1.422 . S
C160 H151 0.929 . S
C160 N158 1.338 . S
C160 C162 1.378 . S
C161 H156 0.931 . S
C161 C162 1.348 1_554 S
C161 C163 1.413 . S
C162 H157 0.930 . S
C162 C160 1.378 . S
C162 C161 1.348 1_556 S
C163 C159 1.415 . S
C163 C161 1.413 . S
C163 C193 1.437 . S
H164 C193 0.929 . S
N165 Gd138 2.570 1_554 S
N165 C166 1.359 . S
N165 C169 1.343 . S
C166 C159 1.422 . S
C166 N165 1.359 . S
C166 C168 1.421 . S
C167 C168 1.422 . S
C167 C170 1.321 . S
C167 H194 0.931 . S
C168 C166 1.421 . S
C168 C167 1.422 . S
C168 C192 1.417 . S
C169 H146 0.931 . S
C169 N165 1.343 . S
C169 C170 1.390 . S
C170 H148 0.930 . S
C170 C167 1.321 . S
C170 C169 1.390 . S
O171 Gd139 2.386 1_556 S
O171 C183 1.265 . S
O172 Gd138 2.353 . S
O172 C183 1.242 . S
O173 Gd138 2.468 . S
O173 C191 1.263 . S
O174 Gd138 2.427 . S
O174 C191 1.252 . S
O175 Gd139 2.307 . S
O175 C184 1.261 . S
O176 Gd138 2.388 . S
O176 C184 1.252 1_556 S
O177 Gd138 2.386 1_554 S
O177 C195 1.265 . S
O178 Gd139 2.353 . S
O178 C195 1.242 . S
O179 Gd139 2.468 . S
O179 C203 1.263 . S
O180 Gd139 2.427 . S
O180 C203 1.252 . S
O181 Gd138 2.307 1_554 S
O181 C196 1.261 . S
O182 Gd139 2.388 . S
O182 C196 1.252 . S
C183 O171 1.265 . S
C183 O172 1.242 . S
C184 O175 1.261 . S
C184 O176 1.252 1_554 S
C185 C188 1.394 . S
C185 C190 1.370 . S
C185 C191 1.500 . S
C186 C189 1.383 . S
C186 C190 1.395 . S
C187 C188 1.396 . S
C187 C189 1.365 . S
C187 H204 0.929 . S
C188 C185 1.394 . S
C188 C187 1.396 . S
C188 H205 0.930 . S
C189 C186 1.383 . S
C189 C187 1.365 . S
C189 H206 0.931 . S
C190 C185 1.370 . S
C190 C186 1.395 . S
C190 H207 0.930 . S
C191 Gd138 2.805 . S
C191 O173 1.263 . S
C191 O174 1.252 . S
C191 C185 1.500 . S
C192 H154 0.930 . S
C192 C168 1.417 . S
C192 C193 1.329 . S
C193 C163 1.437 . S
C193 H164 0.929 . S
C193 C192 1.329 . S
H194 C167 0.931 . S
C195 O177 1.265 . S
C195 O178 1.242 . S
C196 O181 1.261 . S
C196 O182 1.252 . S
C197 C200 1.394 . S
C197 C202 1.370 . S
C197 C203 1.500 . S
C198 C201 1.383 . S
C198 C202 1.395 . S
C199 C200 1.396 . S
C199 C201 1.365 . S
C199 H208 0.929 . S
C200 C197 1.394 . S
C200 C199 1.396 . S
C200 H209 0.930 . S
C201 C198 1.383 . S
C201 C199 1.365 . S
C201 H210 0.931 . S
C202 C197 1.370 . S
C202 C198 1.395 . S
C202 H211 0.930 . S
C203 Gd139 2.805 . S
C203 O179 1.263 . S
C203 O180 1.252 . S
C203 C197 1.500 . S
H204 C187 0.929 . S
H205 C188 0.930 . S
H206 C189 0.931 . S
H207 C190 0.930 . S
H208 C199 0.929 . S
H209 C200 0.930 . S
H210 C201 0.931 . S
H211 C202 0.930 . S
H212 C220 0.950 . S
H213 C225 0.950 . S
H214 C222 0.950 . S
H215 C224 0.950 . S
H216 C226 0.950 . S
H217 C228 0.950 . S
H218 C230 0.950 . S
H219 C231 0.950 . S
C220 H212 0.950 . S
C220 C221 1.386 . S
C220 C222 1.391 . S
C221 C220 1.386 . S
C221 C225 1.393 . S
C222 H214 0.950 . S
C222 C220 1.391 . S
C222 C223 1.400 . S
C223 C222 1.400 . S
C223 C224 1.398 . S
C223 C229 1.491 . S
C224 H215 0.950 . S
C224 C223 1.398 . S
C224 C225 1.391 . S
C225 H213 0.950 . S
C225 C221 1.393 . S
C225 C224 1.391 . S
C226 H216 0.950 . S
C226 C227 1.386 . S
C226 C228 1.391 . S
C227 C226 1.386 . S
C227 C231 1.393 . S
C228 H217 0.950 . S
C228 C226 1.391 . S
C228 C229 1.400 . S
C229 C223 1.491 . S
C229 C228 1.400 . S
C229 C230 1.398 . S
C230 H218 0.950 . S
C230 C229 1.398 . S
C230 C231 1.391 . S
C231 H219 0.950 . S
C231 C227 1.393 . S
C231 C230 1.391 . S
H232 C240 0.950 . S
H233 C245 0.950 . S
H234 C242 0.950 . S
H235 C244 0.950 . S
H236 C246 0.950 . S
H237 C248 0.950 . S
H238 C250 0.950 1_556 S
H239 C251 0.950 1_556 S
C240 H232 0.950 . S
C240 C241 1.386 . S
C240 C242 1.391 . S
C241 C240 1.386 . S
C241 C245 1.393 . S
C242 H234 0.950 . S
C242 C240 1.391 . S
C242 C243 1.400 . S
C243 C242 1.400 . S
C243 C244 1.398 . S
C243 C249 1.491 . S
C244 H235 0.950 . S
C244 C243 1.398 . S
C244 C245 1.391 . S
C245 H233 0.950 . S
C245 C241 1.393 . S
C245 C244 1.391 . S
C246 H236 0.950 . S
C246 C247 1.386 . S
C246 C248 1.391 . S
C247 C246 1.386 . S
C247 C251 1.393 . S
C248 H237 0.950 . S
C248 C246 1.391 . S
C248 C249 1.400 . S
C249 C243 1.491 . S
C249 C248 1.400 . S
C249 C250 1.398 . S
C250 H238 0.950 1_554 S
C250 C249 1.398 . S
C250 C251 1.391 . S
C251 H239 0.950 1_554 S
C251 C247 1.393 . S
C251 C250 1.391 . S
H252 C260 0.950 . S
H253 C265 0.950 . S
H254 C262 0.950 . S
H255 C264 0.950 . S
H256 C266 0.950 . S
H257 C268 0.950 . S
H258 C270 0.950 . S
H259 C271 0.950 . S
C260 H252 0.950 . S
C260 C261 1.386 . S
C260 C262 1.391 . S
C261 C260 1.386 . S
C261 C265 1.393 . S
C262 H254 0.950 . S
C262 C260 1.391 . S
C262 C263 1.400 . S
C263 C262 1.400 . S
C263 C264 1.398 . S
C263 C269 1.491 . S
C264 H255 0.950 . S
C264 C263 1.398 . S
C264 C265 1.391 . S
C265 H253 0.950 . S
C265 C261 1.393 . S
C265 C264 1.391 . S
C266 H256 0.950 . S
C266 C267 1.386 . S
C266 C268 1.391 . S
C267 C266 1.386 . S
C267 C271 1.393 . S
C268 H257 0.950 . S
C268 C266 1.391 . S
C268 C269 1.400 . S
C269 C263 1.491 . S
C269 C268 1.400 . S
C269 C270 1.398 . S
C270 H258 0.950 . S
C270 C269 1.398 . S
C270 C271 1.391 . S
C271 H259 0.950 . S
C271 C267 1.393 . S
C271 C270 1.391 . S
H272 C280 0.950 . S
H273 C285 0.950 . S
H274 C282 0.950 . S
H275 C284 0.950 . S
H276 C286 0.950 . S
H277 C288 0.950 . S
H278 C290 0.950 . S
H279 C291 0.950 . S
C280 H272 0.950 . S
C280 C281 1.386 . S
C280 C282 1.391 . S
C281 C280 1.386 . S
C281 C285 1.393 . S
C282 H274 0.950 . S
C282 C280 1.391 . S
C282 C283 1.400 . S
C283 C282 1.400 . S
C283 C284 1.398 . S
C283 C289 1.491 . S
C284 H275 0.950 . S
C284 C283 1.398 . S
C284 C285 1.391 . S
C285 H273 0.950 . S
C285 C281 1.393 . S
C285 C284 1.391 . S
C286 H276 0.950 . S
C286 C287 1.386 . S
C286 C288 1.391 . S
C287 C286 1.386 . S
C287 C291 1.393 . S
C288 H277 0.950 . S
C288 C286 1.391 . S
C288 C289 1.400 . S
C289 C283 1.491 . S
C289 C288 1.400 . S
C289 C290 1.398 . S
C290 H278 0.950 . S
C290 C289 1.398 . S
C290 C291 1.391 . S
C291 H279 0.950 . S
C291 C287 1.393 . S
C291 C290 1.391 . S
H292 C300 0.950 . S
H293 C305 0.950 . S
H294 C302 0.950 . S
H295 C304 0.950 . S
H296 C306 0.950 . S
H297 C308 0.950 . S
H298 C310 0.950 . S
H299 C311 0.950 . S
C300 H292 0.950 . S
C300 C301 1.386 . S
C300 C302 1.391 . S
C301 C300 1.386 . S
C301 C305 1.393 . S
C302 H294 0.950 . S
C302 C300 1.391 . S
C302 C303 1.400 . S
C303 C302 1.400 . S
C303 C304 1.398 . S
C303 C309 1.491 . S
C304 H295 0.950 . S
C304 C303 1.398 . S
C304 C305 1.391 . S
C305 H293 0.950 . S
C305 C301 1.393 . S
C305 C304 1.391 . S
C306 H296 0.950 . S
C306 C307 1.386 . S
C306 C308 1.391 . S
C307 C306 1.386 . S
C307 C311 1.393 . S
C308 H297 0.950 . S
C308 C306 1.391 . S
C308 C309 1.400 . S
C309 C303 1.491 . S
C309 C308 1.400 . S
C309 C310 1.398 . S
C310 H298 0.950 . S
C310 C309 1.398 . S
C310 C311 1.391 . S
C311 H299 0.950 . S
C311 C307 1.393 . S
C311 C310 1.391 . S
H312 C320 0.950 . S
H313 C325 0.950 . S
H314 C322 0.950 . S
H315 C324 0.950 . S
H316 C326 0.950 . S
H317 C328 0.950 . S
H318 C330 0.950 . S
H319 C331 0.950 . S
C320 H312 0.950 . S
C320 C321 1.386 . S
C320 C322 1.391 . S
C321 C320 1.386 . S
C321 C325 1.393 . S
C322 H314 0.950 . S
C322 C320 1.391 . S
C322 C323 1.400 . S
C323 C322 1.400 . S
C323 C324 1.398 . S
C323 C329 1.491 . S
C324 H315 0.950 . S
C324 C323 1.398 . S
C324 C325 1.391 . S
C325 H313 0.950 . S
C325 C321 1.393 . S
C325 C324 1.391 . S
C326 H316 0.950 . S
C326 C327 1.386 . S
C326 C328 1.391 . S
C327 C326 1.386 . S
C327 C331 1.393 . S
C328 H317 0.950 . S
C328 C326 1.391 . S
C328 C329 1.400 . S
C329 C323 1.491 . S
C329 C328 1.400 . S
C329 C330 1.398 . S
C330 H318 0.950 . S
C330 C329 1.398 . S
C330 C331 1.391 . S
C331 H319 0.950 . S
C331 C327 1.393 . S
C331 C330 1.391 . S
H332 C340 0.950 . S
H333 C345 0.950 . S
H334 C342 0.950 . S
H335 C344 0.950 . S
H336 C346 0.950 . S
H337 C348 0.950 . S
H338 C350 0.950 . S
H339 C351 0.950 . S
C340 H332 0.950 . S
C340 C341 1.386 . S
C340 C342 1.391 . S
C341 C340 1.386 . S
C341 C345 1.393 . S
C342 H334 0.950 . S
C342 C340 1.391 . S
C342 C343 1.400 . S
C343 C342 1.400 . S
C343 C344 1.398 . S
C343 C349 1.491 . S
C344 H335 0.950 . S
C344 C343 1.398 . S
C344 C345 1.391 . S
C345 H333 0.950 . S
C345 C341 1.393 . S
C345 C344 1.391 . S
C346 H336 0.950 . S
C346 C347 1.386 . S
C346 C348 1.391 . S
C347 C346 1.386 . S
C347 C351 1.393 . S
C348 H337 0.950 . S
C348 C346 1.391 . S
C348 C349 1.400 . S
C349 C343 1.491 . S
C349 C348 1.400 . S
C349 C350 1.398 . S
C350 H338 0.950 . S
C350 C349 1.398 . S
C350 C351 1.391 . S
C351 H339 0.950 . S
C351 C347 1.393 . S
C351 C350 1.391 . S
H352 C360 0.950 . S
H353 C365 0.950 . S
H354 C362 0.950 . S
H355 C364 0.950 . S
H356 C366 0.950 . S
H357 C368 0.950 . S
H358 C370 0.950 . S
H359 C371 0.950 . S
C360 H352 0.950 . S
C360 C361 1.386 . S
C360 C362 1.391 . S
C361 C360 1.386 . S
C361 C365 1.393 . S
C362 H354 0.950 . S
C362 C360 1.391 . S
C362 C363 1.400 . S
C363 C362 1.400 . S
C363 C364 1.398 . S
C363 C369 1.491 . S
C364 H355 0.950 . S
C364 C363 1.398 . S
C364 C365 1.391 . S
C365 H353 0.950 . S
C365 C361 1.393 . S
C365 C364 1.391 . S
C366 H356 0.950 . S
C366 C367 1.386 . S
C366 C368 1.391 . S
C367 C366 1.386 . S
C367 C371 1.393 . S
C368 H357 0.950 . S
C368 C366 1.391 . S
C368 C369 1.400 . S
C369 C363 1.491 . S
C369 C368 1.400 . S
C369 C370 1.398 . S
C370 H358 0.950 . S
C370 C369 1.398 . S
C370 C371 1.391 . S
C371 H359 0.950 . S
C371 C367 1.393 . S
C371 C370 1.391 . S
H372 C380 0.950 . S
H373 C385 0.950 . S
H374 C382 0.950 . S
H375 C384 0.950 . S
H376 C386 0.950 . S
H377 C388 0.950 . S
H378 C390 0.950 . S
H379 C391 0.950 . S
C380 H372 0.950 . S
C380 C381 1.386 . S
C380 C382 1.391 . S
C381 C380 1.386 . S
C381 C385 1.393 . S
C382 H374 0.950 . S
C382 C380 1.391 . S
C382 C383 1.400 . S
C383 C382 1.400 . S
C383 C384 1.398 . S
C383 C389 1.491 . S
C384 H375 0.950 . S
C384 C383 1.398 . S
C384 C385 1.391 . S
C385 H373 0.950 . S
C385 C381 1.393 . S
C385 C384 1.391 . S
C386 H376 0.950 . S
C386 C387 1.386 . S
C386 C388 1.391 . S
C387 C386 1.386 . S
C387 C391 1.393 . S
C388 H377 0.950 . S
C388 C386 1.391 . S
C388 C389 1.400 . S
C389 C383 1.491 . S
C389 C388 1.400 . S
C389 C390 1.398 . S
C390 H378 0.950 . S
C390 C389 1.398 . S
C390 C391 1.391 . S
C391 H379 0.950 . S
C391 C387 1.393 . S
C391 C390 1.391 . S
H392 C400 0.950 . S
H393 C405 0.950 . S
H394 C402 0.950 . S
H395 C404 0.950 . S
H396 C406 0.950 . S
H397 C408 0.950 . S
H398 C410 0.950 . S
H399 C411 0.950 . S
C400 H392 0.950 . S
C400 C401 1.386 . S
C400 C402 1.391 . S
C401 C400 1.386 . S
C401 C405 1.393 . S
C402 H394 0.950 . S
C402 C400 1.391 . S
C402 C403 1.400 . S
C403 C402 1.400 . S
C403 C404 1.398 . S
C403 C409 1.491 . S
C404 H395 0.950 . S
C404 C403 1.398 . S
C404 C405 1.391 . S
C405 H393 0.950 . S
C405 C401 1.393 . S
C405 C404 1.391 . S
C406 H396 0.950 . S
C406 C407 1.386 . S
C406 C408 1.391 . S
C407 C406 1.386 . S
C407 C411 1.393 . S
C408 H397 0.950 . S
C408 C406 1.391 . S
C408 C409 1.400 . S
C409 C403 1.491 . S
C409 C408 1.400 . S
C409 C410 1.398 . S
C410 H398 0.950 . S
C410 C409 1.398 . S
C410 C411 1.391 . S
C411 H399 0.950 . S
C411 C407 1.393 . S
C411 C410 1.391 . S
H412 C420 0.950 . S
H413 C425 0.950 . S
H414 C422 0.950 . S
H415 C424 0.950 . S
H416 C426 0.950 . S
H417 C428 0.950 . S
H418 C430 0.950 . S
H419 C431 0.950 . S
C420 H412 0.950 . S
C420 C421 1.386 . S
C420 C422 1.391 . S
C421 C420 1.386 . S
C421 C425 1.393 . S
C422 H414 0.950 . S
C422 C420 1.391 . S
C422 C423 1.400 . S
C423 C422 1.400 . S
C423 C424 1.398 . S
C423 C429 1.491 . S
C424 H415 0.950 . S
C424 C423 1.398 . S
C424 C425 1.391 . S
C425 H413 0.950 . S
C425 C421 1.393 . S
C425 C424 1.391 . S
C426 H416 0.950 . S
C426 C427 1.386 . S
C426 C428 1.391 . S
C427 C426 1.386 . S
C427 C431 1.393 . S
C428 H417 0.950 . S
C428 C426 1.391 . S
C428 C429 1.400 . S
C429 C423 1.491 . S
C429 C428 1.400 . S
C429 C430 1.398 . S
C430 H418 0.950 . S
C430 C429 1.398 . S
C430 C431 1.391 . S
C431 H419 0.950 . S
C431 C427 1.393 . S
C431 C430 1.391 . S
H432 C440 0.950 . S
H433 C445 0.950 . S
H434 C442 0.950 . S
H435 C444 0.950 . S
H436 C446 0.950 . S
H437 C448 0.950 . S
H438 C450 0.950 . S
H439 C451 0.950 1_545 S
C440 H432 0.950 . S
C440 C441 1.386 . S
C440 C442 1.391 . S
C441 C440 1.386 . S
C441 C445 1.393 . S
C442 H434 0.950 . S
C442 C440 1.391 . S
C442 C443 1.400 . S
C443 C442 1.400 . S
C443 C444 1.398 . S
C443 C449 1.491 . S
C444 H435 0.950 . S
C444 C443 1.398 . S
C444 C445 1.391 . S
C445 H433 0.950 . S
C445 C441 1.393 . S
C445 C444 1.391 . S
C446 H436 0.950 . S
C446 C447 1.386 . S
C446 C448 1.391 . S
C447 C446 1.386 . S
C447 C451 1.393 . S
C448 H437 0.950 . S
C448 C446 1.391 . S
C448 C449 1.400 . S
C449 C443 1.491 . S
C449 C448 1.400 . S
C449 C450 1.398 . S
C450 H438 0.950 . S
C450 C449 1.398 . S
C450 C451 1.391 . S
C451 H439 0.950 1_565 S
C451 C447 1.393 . S
C451 C450 1.391 . S
C227 C112 1.622 . S
C221 C41 1.635 . S
C241 C8 1.645 . S
C247 C184 1.630 . S
C261 C19 1.735 . S
C267 C100 1.756 . S
C281 C30 1.610 . S
C287 C196 1.622 . S
C307 C102 1.489 . S
C301 C5 1.500 . S
C327 C183 1.796 . S
C321 C18 1.756 . S
C341 C29 1.623 . S
C347 C99 1.708 . S
C361 C40 1.607 . S
C367 C186 1.495 . S
C387 C198 1.398 . S
C381 C16 1.294 . S
C407 C114 1.369 . S
C401 C27 1.285 1_556 S
C427 C195 1.547 . S
C421 C38 1.278 . S
C441 C7 1.464 . S
C447 C111 1.511 . S
