# Generated by pormake.
# Topology pth, (4,4)-cn, num edge types: 1
# Building blocks:
#     Node 0, Type 0, BuildingBlock: CEKHIL_clean_sbu_0, # of connection points: 4
#     Node 1, Type 0, BuildingBlock: CEKHIL_clean_sbu_0, # of connection points: 4
#     Node 2, Type 0, BuildingBlock: CEKHIL_clean_sbu_0, # of connection points: 4
#     Node 3, Type 1, BuildingBlock: KOZSID_clean_sbu_0, # of connection points: 4
#     Node 4, Type 1, BuildingBlock: KOZSID_clean_sbu_0, # of connection points: 4
#     Node 5, Type 1, BuildingBlock: KOZSID_clean_sbu_0, # of connection points: 4
#     Edge 6, Type (0, 1), BuildingBlock: XIVTED_clean_linker_0, # of connection points: 2
#     Edge 7, Type (0, 1), BuildingBlock: XIVTED_clean_linker_0, # of connection points: 2
#     Edge 8, Type (0, 1), BuildingBlock: XIVTED_clean_linker_0, # of connection points: 2
#     Edge 9, Type (0, 1), BuildingBlock: XIVTED_clean_linker_0, # of connection points: 2
#     Edge 10, Type (0, 1), BuildingBlock: XIVTED_clean_linker_0, # of connection points: 2
#     Edge 11, Type (0, 1), BuildingBlock: XIVTED_clean_linker_0, # of connection points: 2
#     Edge 12, Type (0, 1), BuildingBlock: XIVTED_clean_linker_0, # of connection points: 2
#     Edge 13, Type (0, 1), BuildingBlock: XIVTED_clean_linker_0, # of connection points: 2
#     Edge 14, Type (0, 1), BuildingBlock: XIVTED_clean_linker_0, # of connection points: 2
#     Edge 15, Type (0, 1), BuildingBlock: XIVTED_clean_linker_0, # of connection points: 2
#     Edge 16, Type (0, 1), BuildingBlock: XIVTED_clean_linker_0, # of connection points: 2
#     Edge 17, Type (0, 1), BuildingBlock: XIVTED_clean_linker_0, # of connection points: 2
# Relax obj value: 0.006
# Max RMSD: 0.056
# Mean RMSD: 0.040
data_MOF--net-pth--node1-CEKHIL_clean_sbu_0--node2-KOZSID_clean_sbu_0--edge1-XIVTED_clean_linker_0
_symmetry_space_group_name_H-M    P1
_symmetry_Int_Tables_number       1
_symmetry_cell_setting            triclinic
loop_
_symmetry_equiv_pos_as_xyz
'x, y, z'
_cell_length_a     26.335007
_cell_length_b     26.43376
_cell_length_c     61.461091
_cell_angle_alpha  88.32873
_cell_angle_beta   87.218439
_cell_angle_gamma 120.43252
loop_
_atom_site_label
_atom_site_type_symbol
_atom_site_fract_x
_atom_site_fract_y
_atom_site_fract_z
_atom_type_partial_charge
Co0 Co 0.06283 0.05653 0.04561 0.0
O1 O 0.02153 0.99489 0.06829 0.0
O2 O 0.09812 0.0076 0.04724 0.0
C3 C 0.06934 0.12933 0.0659 0.0
O4 O 0.11891 0.11683 0.02138 0.0
Co5 Co 0.00866 0.12777 0.02734 0.0
O6 O 0.09159 0.18411 0.01657 0.0
C7 C 0.96676 0.00746 0.01337 0.0
C8 C 0.05902 0.97816 0.06338 0.0
C9 C 0.12865 0.16705 0.0136 0.0
O10 O 0.00688 0.00496 0.02375 0.0
O11 O 0.95835 0.05112 0.01385 0.0
O12 O 0.1071 0.11175 0.06738 0.0
O13 O 0.02679 0.09973 0.05359 0.0
Co14 Co 0.0394 0.08879 0.3627 0.0
O15 O 1.00103 0.11507 0.34314 0.0
O16 O 0.08009 0.1738 0.36041 0.0
C17 C 0.04155 0.02252 0.34081 0.0
O18 O 0.09317 0.07901 0.38331 0.0
Co19 Co 0.97882 0.96033 0.3821 0.0
O20 O 0.05957 0.98267 0.38961 0.0
C21 C 0.94285 0.0412 0.39992 0.0
C22 C 0.04157 0.1682 0.34678 0.0
C23 C 0.09921 0.03639 0.39077 0.0
O24 O 0.98469 0.08452 0.38794 0.0
O25 O 0.93153 0.98814 0.39909 0.0
O26 O 0.08154 0.07788 0.33798 0.0
O27 O 0.99926 0.0097 0.35548 0.0
Co28 Co 0.05354 0.06166 0.69755 0.0
O29 O 0.11794 0.10588 0.67577 0.0
O30 O 0.10157 0.02557 0.69445 0.0
C31 C 0.98377 0.06121 0.67739 0.0
O32 O 0.99035 0.00163 0.72016 0.0
Co33 Co 0.97995 0.11078 0.71851 0.0
O34 O 0.92143 0.02664 0.72623 0.0
C35 C 0.09966 0.15022 0.73276 0.0
C36 C 0.1332 0.06694 0.67937 0.0
C37 C 0.93857 0.98953 0.72763 0.0
O38 O 0.10333 0.11239 0.72101 0.0
O39 O 0.05559 0.1583 0.73297 0.0
O40 O 1.00022 0.02291 0.67464 0.0
O41 O 0.01212 0.10035 0.69111 0.0
C42 C 0.11966 0.6784 0.16931 0.0
C43 C 0.17492 0.72344 0.16109 0.0
C44 C 0.21548 0.71831 0.17243 0.0
C45 C 0.18295 0.67089 0.18696 0.0
N46 N 0.12393 0.64497 0.18552 0.0
Co47 Co 0.06054 0.57629 0.20437 0.0
N48 N 0.12031 0.57166 0.2221 0.0
C49 C 0.17966 0.6076 0.21974 0.0
C50 C 0.20931 0.59512 0.23467 0.0
C51 C 0.1665 0.54791 0.24722 0.0
C52 C 0.11291 0.53374 0.23901 0.0
N53 N 0.99715 0.5074 0.22312 0.0
C54 C 1.00134 0.47374 0.23927 0.0
C55 C 0.94602 0.42728 0.2468 0.0
C56 C 0.90562 0.43229 0.23535 0.0
C57 C 0.93818 0.48076 0.22132 0.0
N58 N 1.00075 0.58114 0.18672 0.0
C59 C 0.94139 0.54555 0.18913 0.0
C60 C 0.91168 0.55952 0.17471 0.0
C61 C 0.95452 0.60745 0.16248 0.0
C62 C 0.00811 0.62023 0.1703 0.0
N63 N 0.06455 0.52123 0.18389 0.0
C64 C 0.07006 0.44146 0.15559 0.0
C65 C 0.01595 0.43514 0.1629 0.0
C66 C 0.01424 0.47509 0.17686 0.0
C67 C 0.12143 0.48875 0.16261 0.0
C68 C 0.1177 0.52772 0.1766 0.0
N69 N 0.05659 0.63143 0.2248 0.0
C70 C 0.99999 0.66445 0.24593 0.0
C71 C 0.05159 0.71342 0.25199 0.0
C72 C 0.10561 0.71975 0.24456 0.0
C73 C 0.10708 0.67872 0.23114 0.0
C74 C 0.00347 0.62433 0.23248 0.0
H75 H 0.14971 0.68659 0.22598 0.0
H76 H 0.9626 0.5883 0.2283 0.0
H77 H 0.97156 0.46733 0.18187 0.0
H78 H 0.15846 0.56265 0.18133 0.0
C79 C 0.20635 0.65224 0.20312 0.0
C80 C 0.06445 0.6709 0.16193 0.0
C81 C 0.05654 0.48299 0.24751 0.0
C82 C 0.91478 0.50011 0.20541 0.0
H83 H 0.18509 0.75745 0.14856 0.0
H84 H 0.26298 0.74685 0.17073 0.0
H85 H 0.25648 0.61747 0.23618 0.0
H86 H 0.17407 0.52614 0.26079 0.0
H87 H 0.93551 0.39236 0.25895 0.0
H88 H 0.85821 0.40303 0.23666 0.0
H89 H 0.86446 0.53785 0.17341 0.0
H90 H 0.94709 0.63081 0.14943 0.0
H91 H 0.97474 0.39881 0.15823 0.0
H92 H 0.16455 0.49615 0.1572 0.0
H93 H 0.95695 0.65764 0.25111 0.0
H94 H 0.14691 0.75617 0.24912 0.0
C95 C 0.44176 0.01336 0.57175 0.0
C96 C 0.39818 0.95783 0.58013 0.0
C97 C 0.40586 0.91823 0.56886 0.0
C98 C 0.45332 0.95152 0.55423 0.0
N99 N 0.4766 0.01012 0.55548 0.0
Co100 Co 0.54599 0.07411 0.53708 0.0
N101 N 0.55335 0.0156 0.51914 0.0
C102 C 0.51657 0.95664 0.5205 0.0
C103 C 0.5317 0.92796 0.50565 0.0
C104 C 0.58149 0.97112 0.49425 0.0
C105 C 0.59428 0.02379 0.50302 0.0
N106 N 0.61712 0.13796 0.51935 0.0
C107 C 0.65412 0.13443 0.5041 0.0
C108 C 0.70144 0.18967 0.4973 0.0
C109 C 0.69409 0.22941 0.50858 0.0
C110 C 0.6433 0.19642 0.52172 0.0
N111 N 0.53691 0.13272 0.55434 0.0
C112 C 0.57052 0.19196 0.55168 0.0
C113 C 0.55332 0.22094 0.56558 0.0
C114 C 0.50516 0.17767 0.57766 0.0
C115 C 0.49559 0.12453 0.57031 0.0
N116 N 0.59949 0.07108 0.5582 0.0
C117 C 0.67889 0.06718 0.58675 0.0
C118 C 0.67706 0.11872 0.58288 0.0
C119 C 0.63789 0.11985 0.56855 0.0
C120 C 0.63932 0.01747 0.57622 0.0
C121 C 0.60001 0.02015 0.56244 0.0
N122 N 0.49253 0.07691 0.51586 0.0
C123 C 0.46689 0.13093 0.49043 0.0
C124 C 0.41718 0.07897 0.48504 0.0
C125 C 0.40541 0.02634 0.4957 0.0
C126 C 0.44312 0.02631 0.51085 0.0
C127 C 0.50373 0.12891 0.50576 0.0
H128 H 0.43113 0.98458 0.51829 0.0
H129 H 0.5411 0.16991 0.5091 0.0
H130 H 0.63977 0.16084 0.56604 0.0
H131 H 0.57089 0.9804 0.55521 0.0
C132 C 0.47238 0.92915 0.53745 0.0
C133 C 0.44632 0.06766 0.57893 0.0
C134 C 0.64741 0.07985 0.49625 0.0
C135 C 0.61956 0.21896 0.53665 0.0
H136 H 0.36331 0.9468 0.59267 0.0
H137 H 0.37858 0.87079 0.57053 0.0
H138 H 0.51031 0.88109 0.50385 0.0
H139 H 0.60648 0.96439 0.48133 0.0
H140 H 0.73822 0.20035 0.48571 0.0
H141 H 0.72298 0.27668 0.50763 0.0
H142 H 0.57358 0.26792 0.56687 0.0
H143 H 0.47993 0.18452 0.59045 0.0
H144 H 0.70552 0.15834 0.59088 0.0
H145 H 0.63903 0.9765 0.57818 0.0
H146 H 0.47802 0.17289 0.48262 0.0
H147 H 0.36672 0.98498 0.49257 0.0
C148 C 0.66127 0.58863 0.83148 0.0
C149 C 0.70464 0.57778 0.8232 0.0
C150 C 0.70777 0.54032 0.83818 0.0
C151 C 0.66585 0.52977 0.85461 0.0
N152 N 0.63568 0.55741 0.85077 0.0
Co153 Co 0.57072 0.55276 0.87033 0.0
N154 N 0.56148 0.48354 0.8877 0.0
C155 C 0.60117 0.46578 0.88802 0.0
C156 C 0.58308 0.41697 0.9018 0.0
C157 C 0.52864 0.4032 0.91079 0.0
C158 C 0.51645 0.44443 0.90187 0.0
N159 N 0.5058 0.54792 0.88992 0.0
C160 C 0.46464 0.50281 0.90349 0.0
C161 C 0.42533 0.5172 0.91331 0.0
C162 C 0.44373 0.57377 0.90613 0.0
C163 C 0.49252 0.59052 0.89215 0.0
N164 N 0.58006 0.62243 0.85313 0.0
C165 C 0.55905 0.65709 0.85961 0.0
C166 C 0.5745 0.70386 0.84516 0.0
C167 C 0.6082 0.69914 0.82865 0.0
C168 C 0.61136 0.64928 0.83391 0.0
N169 N 0.51263 0.50021 0.85077 0.0
C170 C 0.42504 0.42172 0.8247 0.0
C171 C 0.42496 0.47159 0.83187 0.0
C172 C 0.46882 0.50998 0.84485 0.0
C173 C 0.47104 0.41296 0.83049 0.0
C174 C 0.51432 0.45267 0.84346 0.0
N175 N 0.62868 0.60552 0.88996 0.0
C176 C 0.65664 0.63497 0.9263 0.0
C177 C 0.70658 0.68723 0.91776 0.0
C178 C 0.71799 0.69638 0.89508 0.0
C179 C 0.67889 0.65505 0.88154 0.0
C180 C 0.61817 0.5948 0.91212 0.0
H181 H 0.68889 0.66419 0.86422 0.0
H182 H 0.57915 0.55581 0.91913 0.0
H183 H 0.46678 0.54728 0.8503 0.0
H184 H 0.5486 0.44429 0.84786 0.0
C185 C 0.64932 0.48949 0.87254 0.0
C186 C 0.6511 0.63414 0.8219 0.0
C187 C 0.46397 0.44772 0.90847 0.0
C188 C 0.51997 0.64099 0.8781 0.0
H189 H 0.7323 0.59629 0.80816 0.0
H190 H 0.73654 0.52223 0.83704 0.0
H191 H 0.6057 0.39291 0.90438 0.0
H192 H 0.50121 0.36712 0.92263 0.0
H193 H 0.38719 0.48988 0.92445 0.0
H194 H 0.4224 0.59864 0.90987 0.0
H195 H 0.56239 0.73722 0.8464 0.0
H196 H 0.62958 0.7303 0.81474 0.0
H197 H 0.39122 0.48115 0.82749 0.0
H198 H 0.47293 0.37495 0.82552 0.0
H199 H 0.64614 0.6262 0.94375 0.0
H200 H 0.75665 0.73568 0.88779 0.0
H201 H 0.15034 0.19501 0.09476 0.0
H202 H 1.00198 0.38862 0.12152 0.0
H203 H 0.99831 0.1768 0.06421 0.0
H204 H 0.14402 0.39644 0.15635 0.0
H205 H 0.00424 0.31551 0.09877 0.0
H206 H 0.1535 0.27391 0.11565 0.0
C207 C 0.11782 0.20782 0.09237 0.0
C208 C 0.07384 0.17913 0.0778 0.0
C209 C 0.03504 0.33331 0.11136 0.0
C210 C 0.07709 0.26928 0.10166 0.0
C211 C 0.03356 0.37488 0.12445 0.0
C212 C 0.07264 0.39864 0.14101 0.0
C213 C 0.07592 0.31514 0.11476 0.0
C214 C 0.11341 0.37989 0.14368 0.0
C215 C 0.11956 0.25279 0.10432 0.0
C216 C 0.03286 0.19756 0.07533 0.0
N217 N 0.11383 0.33916 0.13076 0.0
N218 N 0.03539 0.24132 0.08717 0.0
H219 H 0.88233 0.97753 0.43759 0.0
H220 H 0.68962 0.12839 0.45456 0.0
H221 H 0.91629 0.12925 0.39719 0.0
H222 H 0.71349 0.0312 0.50654 0.0
H223 H 0.76691 0.12463 0.43174 0.0
H224 H 0.81443 0.99138 0.46166 0.0
C225 C 0.87565 0.01394 0.43382 0.0
C226 C 0.90494 0.05222 0.41531 0.0
C227 C 0.75558 0.10462 0.44821 0.0
C228 C 0.82652 0.06786 0.44272 0.0
C229 C 0.71165 0.10677 0.46117 0.0
C230 C 0.69575 0.08039 0.48243 0.0
C231 C 0.78271 0.07474 0.45645 0.0
C232 C 0.72474 0.0521 0.49022 0.0
C233 C 0.83702 0.02193 0.44763 0.0
C234 C 0.8948 0.09887 0.41133 0.0
N235 N 0.76649 0.0496 0.47718 0.0
N236 N 0.85584 0.105 0.42479 0.0
H237 H 0.9666 0.91779 0.75085 0.0
H238 H 0.63198 0.66344 0.78118 0.0
H239 H 0.81803 0.92924 0.73051 0.0
H240 H 0.76961 0.70658 0.82482 0.0
H241 H 0.70328 0.74605 0.75592 0.0
H242 H 0.89766 0.82497 0.77177 0.0
C243 C 0.91953 0.90046 0.75059 0.0
C244 C 0.89798 0.9315 0.73911 0.0
C245 C 0.71793 0.7367 0.77088 0.0
C246 C 0.81924 0.82526 0.7626 0.0
C247 C 0.6775 0.68956 0.78516 0.0
C248 C 0.69519 0.67814 0.80496 0.0
C249 C 0.77658 0.77184 0.77631 0.0
C250 C 0.75449 0.71356 0.80956 0.0
C251 C 0.88035 0.84773 0.76256 0.0
C252 C 0.83653 0.90707 0.73936 0.0
N253 N 0.79312 0.7588 0.79535 0.0
N254 N 0.79931 0.85535 0.75087 0.0
H255 H 0.12445 0.92493 0.05565 0.0
H256 H 0.02186 0.74298 0.17137 0.0
H257 H 0.99375 0.92285 0.10142 0.0
H258 H 0.10681 0.70166 0.11897 0.0
H259 H 0.01939 0.81627 0.14679 0.0
H260 H 0.12621 0.84922 0.07925 0.0
C261 C 0.09597 0.9084 0.07057 0.0
C262 C 0.05889 0.93025 0.07656 0.0
C263 C 0.03865 0.79128 0.14062 0.0
C264 C 0.06127 0.84447 0.1037 0.0
C265 C 0.04017 0.7497 0.15465 0.0
C266 C 0.06482 0.71674 0.14713 0.0
C267 C 0.06242 0.80038 0.11892 0.0
C268 C 0.08789 0.72674 0.12535 0.0
C269 C 0.09698 0.86523 0.08402 0.0
C270 C 0.02296 0.90728 0.0961 0.0
N271 N 0.08641 0.76792 0.11199 0.0
N272 N 0.02535 0.86604 0.109 0.0
H273 H 0.17881 0.13887 0.4089 0.0
H274 H 0.36499 0.99968 0.45402 0.0
H275 H 0.14137 0.96276 0.39855 0.0
H276 H 0.37894 0.15768 0.47811 0.0
H277 H 0.29319 0.99396 0.42922 0.0
H278 H 0.26214 0.15459 0.42997 0.0
C279 C 0.18839 0.10376 0.41086 0.0
C280 C 0.15267 0.04922 0.40208 0.0
C281 C 0.312 0.03004 0.43987 0.0
C282 C 0.24784 0.06701 0.42603 0.0
C283 C 0.3529 0.03321 0.45414 0.0
C284 C 0.37743 0.07868 0.46851 0.0
C285 C 0.29524 0.07271 0.43977 0.0
C286 C 0.36123 0.12183 0.46736 0.0
C287 C 0.23576 0.11269 0.42296 0.0
C288 C 0.16715 0.0053 0.40518 0.0
N289 N 0.3208 0.11757 0.45336 0.0
N290 N 0.21338 0.01514 0.41688 0.0
H291 H 0.21132 0.16482 0.73264 0.0
H292 H 0.30711 0.38524 0.82946 0.0
H293 H 0.09913 0.21933 0.76491 0.0
H294 H 0.43204 0.35939 0.79047 0.0
H295 H 0.22884 0.31762 0.80762 0.0
H296 H 0.29096 0.22857 0.7554 0.0
C297 C 0.20325 0.18986 0.74454 0.0
C298 C 0.14831 0.18671 0.74675 0.0
C299 C 0.27335 0.32668 0.80379 0.0
C300 C 0.23921 0.25958 0.77285 0.0
C301 C 0.31832 0.36573 0.8162 0.0
C302 C 0.3767 0.37883 0.81172 0.0
C303 C 0.28633 0.29992 0.78671 0.0
C304 C 0.38777 0.35051 0.79466 0.0
C305 C 0.24881 0.22638 0.75747 0.0
C306 C 0.14064 0.22039 0.76244 0.0
N307 N 0.34308 0.31254 0.78275 0.0
N308 N 0.18539 0.25519 0.77482 0.0
H309 H 0.96565 0.15278 0.66996 0.0
H310 H 0.66659 0.97329 0.61246 0.0
H311 H 0.89548 0.97045 0.65711 0.0
H312 H 0.79067 0.15682 0.59451 0.0
H313 H 0.73969 0.97071 0.63467 0.0
H314 H 0.8903 0.15416 0.64848 0.0
C315 C 0.9341 0.11292 0.66274 0.0
C316 C 0.93686 0.06146 0.66522 0.0
C317 C 0.75058 0.01143 0.62585 0.0
C318 C 0.85034 0.06264 0.64093 0.0
C319 C 0.70904 0.01305 0.61299 0.0
C320 C 0.72207 0.06535 0.60127 0.0
C321 C 0.80518 0.06271 0.6275 0.0
C322 C 0.77763 0.11565 0.6034 0.0
C323 C 0.89141 0.11387 0.65042 0.0
C324 C 0.89503 0.01111 0.65547 0.0
N325 N 0.81689 0.11311 0.61631 0.0
N326 N 0.85315 0.01281 0.64384 0.0
H327 H 0.94995 0.89551 0.01379 0.0
H328 H 0.74802 0.80474 0.91261 0.0
H329 H 0.89689 0.00742 0.98194 0.0
H330 H 0.75233 0.67543 0.95571 0.0
H331 H 0.81169 0.88149 0.93598 0.0
H332 H 0.88627 0.81594 0.99093 0.0
C333 C 0.92509 0.90345 1.00201 0.0
C334 C 0.92883 0.95835 0.99983 0.0
C335 C 0.79876 0.83637 0.94038 0.0
C336 C 0.8564 0.86776 0.9736 0.0
C337 C 0.76271 0.79256 0.92696 0.0
C338 C 0.74507 0.73364 0.93217 0.0
C339 C 0.81801 0.8215 0.95913 0.0
C340 C 0.76471 0.72032 0.95118 0.0
C341 C 0.88862 0.85795 0.98905 0.0
C342 C 0.89537 0.96592 0.98432 0.0
N343 N 0.80048 0.764 0.96394 0.0
N344 N 0.86094 0.92137 0.97179 0.0
H345 H 0.12421 0.03835 0.30846 0.0
H346 H 0.97353 0.69575 0.2869 0.0
H347 H 0.96564 0.90332 0.34445 0.0
H348 H 0.1246 0.8333 0.24816 0.0
H349 H 0.97115 0.77035 0.30885 0.0
H350 H 0.12703 0.96306 0.28716 0.0
C351 C 0.09004 0.99281 0.31192 0.0
C352 C 0.04455 0.97711 0.32822 0.0
C353 C 0.00485 0.78417 0.29556 0.0
C354 C 0.04741 0.89052 0.30386 0.0
C355 C 0.00604 0.74159 0.28292 0.0
C356 C 0.04941 0.75809 0.26563 0.0
C357 C 0.04731 0.84382 0.2909 0.0
C358 C 0.09091 0.81824 0.26151 0.0
C359 C 0.09161 0.9498 0.29973 0.0
C360 C 1.00146 0.91739 0.332 0.0
N361 N 0.0888 0.85878 0.27402 0.0
N362 N 0.00391 0.87628 0.31991 0.0
H363 H 0.18636 0.00154 0.6858 0.0
H364 H 0.37 0.10485 0.56983 0.0
H365 H 0.19006 0.13389 0.64186 0.0
H366 H 0.41653 0.02702 0.62196 0.0
H367 H 0.29504 0.10567 0.59484 0.0
H368 H 0.26319 1.00089 0.66166 0.0
C369 C 0.20349 0.03061 0.67115 0.0
C370 C 0.18182 0.06788 0.66584 0.0
C371 C 0.32154 0.08831 0.60084 0.0
C372 C 0.26876 0.06665 0.63808 0.0
C373 C 0.36403 0.08769 0.58657 0.0
C374 C 0.39904 0.06565 0.59391 0.0
C375 C 0.31352 0.06612 0.62258 0.0
C376 C 0.38992 0.04395 0.61572 0.0
C377 C 0.24729 0.03023 0.65742 0.0
C378 C 0.20555 0.10459 0.64665 0.0
N379 N 0.34778 0.04445 0.62932 0.0
N380 N 0.24732 0.10271 0.63341 0.0
H381 H 0.1928 0.28618 0.01248 0.0
H382 H 0.38278 0.33265 0.90267 0.0
H383 H 0.18862 0.13764 0.98349 0.0
H384 H 0.44437 0.46046 0.95147 0.0
H385 H 0.30532 0.26067 0.92965 0.0
H386 H 0.27892 0.35228 0.98789 0.0
C387 C 0.21033 0.26753 1.00099 0.0
C388 C 0.18368 0.20643 1.0 0.0
C389 C 0.33603 0.30443 0.93442 0.0
C390 C 0.28145 0.28181 0.97151 0.0
C391 C 0.37984 0.34536 0.91907 0.0
C392 C 0.41865 0.40276 0.92478 0.0
C393 C 0.33087 0.32156 0.95546 0.0
C394 C 0.41409 0.41704 0.94631 0.0
C395 C 0.25953 0.30523 0.98702 0.0
C396 C 0.20822 0.18454 0.98484 0.0
N397 N 0.37035 0.37707 0.96076 0.0
N398 N 0.25531 0.22226 0.97091 0.0
H399 H 0.1413 0.26824 0.33066 0.0
H400 H 1.00209 0.45027 0.28896 0.0
H401 H 0.95137 0.18352 0.33503 0.0
H402 H 0.11016 0.41787 0.24318 0.0
H403 H 0.99839 0.37517 0.31481 0.0
H404 H 0.14689 0.34828 0.30714 0.0
C405 C 0.10093 0.26712 0.32699 0.0
C406 C 0.04578 0.21942 0.33471 0.0
C407 C 0.02308 0.38499 0.29912 0.0
C408 C 0.05205 0.3107 0.30845 0.0
C409 C 0.02509 0.42743 0.28441 0.0
C410 C 0.05577 0.43952 0.26383 0.0
C411 C 0.05394 0.35636 0.2935 0.0
C412 C 0.08588 0.40961 0.25886 0.0
C413 C 0.10419 0.31239 0.31354 0.0
C414 C 0.99467 0.21956 0.32931 0.0
N415 N 0.08465 0.36968 0.27367 0.0
N416 N 0.99899 0.26483 0.31662 0.0
loop_
_geom_bond_atom_site_label_1
_geom_bond_atom_site_label_2
_geom_bond_distance
_geom_bond_site_symmetry_2
_ccdc_geom_bond_type
Co0 O1 2.216 1_545 S
Co0 O2 2.091 . S
Co0 O4 2.004 . S
Co0 O10 2.021 . S
Co0 O12 2.137 . S
Co0 O13 2.244 . S
O1 Co0 2.216 1_565 S
O1 C8 1.247 . S
O2 Co0 2.091 . S
O2 C8 1.261 1_545 S
C3 O12 1.247 . S
C3 O13 1.272 . S
O4 Co0 2.004 . S
O4 C9 1.259 . S
Co5 O6 2.076 . S
Co5 O11 2.052 1_455 S
Co5 O13 2.135 . S
O6 Co5 2.076 . S
O6 C9 1.249 . S
C7 O10 1.234 1_655 S
C7 O11 1.252 . S
C8 O1 1.247 . S
C8 O2 1.261 1_565 S
C9 O4 1.259 . S
C9 O6 1.249 . S
O10 Co0 2.021 . S
O10 C7 1.234 1_455 S
O11 Co5 2.052 1_655 S
O11 C7 1.252 . S
O12 Co0 2.137 . S
O12 C3 1.247 . S
O13 Co0 2.244 . S
O13 C3 1.272 . S
O13 Co5 2.135 . S
Co14 O15 2.216 . S
Co14 O16 2.091 . S
Co14 O18 2.004 . S
Co14 O24 2.021 . S
Co14 O26 2.137 . S
Co14 O27 2.244 . S
O15 Co14 2.216 . S
O15 C22 1.247 . S
O16 Co14 2.091 . S
O16 C22 1.261 . S
C17 O26 1.247 . S
C17 O27 1.272 . S
O18 Co14 2.004 . S
O18 C23 1.259 . S
Co19 O20 2.061 1_665 S
Co19 O25 2.052 1_565 S
Co19 O27 2.135 1_665 S
O20 Co19 2.061 1_445 S
O20 C23 1.235 . S
C21 O24 1.238 1_655 S
C21 O25 1.241 . S
C22 O15 1.247 . S
C22 O16 1.261 . S
C23 O18 1.259 . S
C23 O20 1.235 . S
O24 Co14 2.021 . S
O24 C21 1.238 1_455 S
O25 Co19 2.052 1_545 S
O25 C21 1.241 . S
O26 Co14 2.137 . S
O26 C17 1.247 . S
O27 Co14 2.244 . S
O27 C17 1.272 . S
O27 Co19 2.135 1_445 S
Co28 O29 2.216 . S
Co28 O30 2.091 1_545 S
Co28 O32 2.004 1_545 S
Co28 O38 2.021 . S
Co28 O40 2.137 . S
Co28 O41 2.244 . S
O29 Co28 2.216 . S
O29 C36 1.247 . S
O30 Co28 2.091 1_565 S
O30 C36 1.261 1_565 S
C31 O40 1.247 1_655 S
C31 O41 1.272 1_655 S
O32 Co28 2.004 1_565 S
O32 C37 1.259 1_455 S
Co33 O34 2.061 . S
Co33 O39 2.052 1_655 S
Co33 O41 2.135 1_655 S
O34 Co33 2.061 . S
O34 C37 1.235 1_545 S
C35 O38 1.238 . S
C35 O39 1.241 . S
C36 O29 1.247 . S
C36 O30 1.261 1_545 S
C37 O32 1.259 1_655 S
C37 O34 1.235 1_565 S
O38 Co28 2.021 . S
O38 C35 1.238 . S
O39 Co33 2.052 1_455 S
O39 C35 1.241 . S
O40 Co28 2.137 . S
O40 C31 1.247 1_455 S
O41 Co28 2.244 . S
O41 C31 1.272 1_455 S
O41 Co33 2.135 1_455 S
C42 C43 1.443 . S
C42 N46 1.376 . S
C42 C80 1.389 . S
C43 C42 1.443 . S
C43 C44 1.340 . S
C43 H83 0.951 . S
C44 C43 1.340 . S
C44 C45 1.439 . S
C44 H84 0.950 . S
C45 C44 1.439 . S
C45 N46 1.374 . S
C45 C79 1.395 . S
N46 C42 1.376 . S
N46 C45 1.374 . S
N46 Co47 2.008 . S
Co47 N46 2.008 . S
Co47 N48 1.995 . S
Co47 N53 2.008 1_455 S
Co47 N58 1.995 1_455 S
Co47 N63 2.282 . S
Co47 N69 2.282 . S
N48 Co47 1.995 . S
N48 C49 1.376 . S
N48 C52 1.383 . S
C49 N48 1.376 . S
C49 C50 1.446 . S
C49 C79 1.391 . S
C50 C49 1.446 . S
C50 C51 1.339 . S
C50 H85 0.949 . S
C51 C50 1.339 . S
C51 C52 1.439 . S
C51 H86 0.950 . S
C52 N48 1.383 . S
C52 C51 1.439 . S
C52 C81 1.392 . S
N53 Co47 2.008 1_655 S
N53 C54 1.376 . S
N53 C57 1.374 . S
C54 N53 1.376 . S
C54 C55 1.443 . S
C54 C81 1.389 1_655 S
C55 C54 1.443 . S
C55 C56 1.340 . S
C55 H87 0.951 . S
C56 C55 1.340 . S
C56 C57 1.439 . S
C56 H88 0.950 . S
C57 N53 1.374 . S
C57 C56 1.439 . S
C57 C82 1.395 . S
N58 Co47 1.995 1_655 S
N58 C59 1.376 . S
N58 C62 1.383 . S
C59 N58 1.376 . S
C59 C60 1.446 . S
C59 C82 1.391 . S
C60 C59 1.446 . S
C60 C61 1.339 . S
C60 H89 0.949 . S
C61 C60 1.339 . S
C61 C62 1.439 . S
C61 H90 0.950 . S
C62 N58 1.383 . S
C62 C61 1.439 . S
C62 C80 1.392 1_655 S
N63 Co47 2.282 . S
N63 C66 1.332 1_455 S
N63 C68 1.332 . S
C64 C65 1.386 1_455 S
C64 C67 1.388 . S
C65 C64 1.386 1_655 S
C65 C66 1.382 . S
C65 H91 0.950 . S
C66 N63 1.332 1_655 S
C66 C65 1.382 . S
C66 H77 0.952 . S
C67 C64 1.388 . S
C67 C68 1.382 . S
C67 H92 0.950 . S
C68 N63 1.332 . S
C68 C67 1.382 . S
C68 H78 0.948 . S
N69 Co47 2.282 . S
N69 C73 1.332 . S
N69 C74 1.332 1_455 S
C70 C71 1.388 1_655 S
C70 C74 1.382 . S
C70 H93 0.950 . S
C71 C70 1.388 1_455 S
C71 C72 1.386 . S
C72 C71 1.386 . S
C72 C73 1.382 . S
C72 H94 0.950 . S
C73 N69 1.332 . S
C73 C72 1.382 . S
C73 H75 0.952 . S
C74 N69 1.332 1_655 S
C74 C70 1.382 . S
C74 H76 0.948 . S
H75 C73 0.952 . S
H76 C74 0.948 . S
H77 C66 0.952 . S
H78 C68 0.948 . S
C79 C45 1.395 . S
C79 C49 1.391 . S
C80 C42 1.389 . S
C80 C62 1.392 1_455 S
C81 C52 1.392 . S
C81 C54 1.389 1_455 S
C82 C57 1.395 . S
C82 C59 1.391 . S
H83 C43 0.951 . S
H84 C44 0.950 . S
H85 C50 0.949 . S
H86 C51 0.950 . S
H87 C55 0.951 . S
H88 C56 0.950 . S
H89 C60 0.949 . S
H90 C61 0.950 . S
H91 C65 0.950 . S
H92 C67 0.950 . S
H93 C70 0.950 . S
H94 C72 0.950 . S
C95 C96 1.443 1_545 S
C95 N99 1.376 . S
C95 C133 1.389 . S
C96 C95 1.443 1_565 S
C96 C97 1.340 . S
C96 H136 0.951 . S
C97 C96 1.340 . S
C97 C98 1.439 . S
C97 H137 0.950 . S
C98 C97 1.439 . S
C98 N99 1.374 1_565 S
C98 C132 1.395 . S
N99 C95 1.376 . S
N99 C98 1.374 1_545 S
N99 Co100 2.008 . S
Co100 N99 2.008 . S
Co100 N101 1.995 . S
Co100 N106 2.008 . S
Co100 N111 1.995 . S
Co100 N116 2.282 . S
Co100 N122 2.282 . S
N101 Co100 1.995 . S
N101 C102 1.376 1_545 S
N101 C105 1.383 . S
C102 N101 1.376 1_565 S
C102 C103 1.446 . S
C102 C132 1.391 . S
C103 C102 1.446 . S
C103 C104 1.339 . S
C103 H138 0.949 . S
C104 C103 1.339 . S
C104 C105 1.439 1_565 S
C104 H139 0.950 . S
C105 N101 1.383 . S
C105 C104 1.439 1_545 S
C105 C134 1.392 . S
N106 Co100 2.008 . S
N106 C107 1.376 . S
N106 C110 1.374 . S
C107 N106 1.376 . S
C107 C108 1.443 . S
C107 C134 1.389 . S
C108 C107 1.443 . S
C108 C109 1.340 . S
C108 H140 0.951 . S
C109 C108 1.340 . S
C109 C110 1.439 . S
C109 H141 0.950 . S
C110 N106 1.374 . S
C110 C109 1.439 . S
C110 C135 1.395 . S
N111 Co100 1.995 . S
N111 C112 1.376 . S
N111 C115 1.383 . S
C112 N111 1.376 . S
C112 C113 1.446 . S
C112 C135 1.391 . S
C113 C112 1.446 . S
C113 C114 1.339 . S
C113 H142 0.949 . S
C114 C113 1.339 . S
C114 C115 1.439 . S
C114 H143 0.950 . S
C115 N111 1.383 . S
C115 C114 1.439 . S
C115 C133 1.392 . S
N116 Co100 2.282 . S
N116 C119 1.332 . S
N116 C121 1.332 . S
C117 C118 1.386 . S
C117 C120 1.388 . S
C118 C117 1.386 . S
C118 C119 1.382 . S
C118 H144 0.950 . S
C119 N116 1.332 . S
C119 C118 1.382 . S
C119 H130 0.952 . S
C120 C117 1.388 . S
C120 C121 1.382 . S
C120 H145 0.950 1_545 S
C121 N116 1.332 . S
C121 C120 1.382 . S
C121 H131 0.948 1_545 S
N122 Co100 2.282 . S
N122 C126 1.332 . S
N122 C127 1.332 . S
C123 C124 1.388 . S
C123 C127 1.382 . S
C123 H146 0.950 . S
C124 C123 1.388 . S
C124 C125 1.386 . S
C125 C124 1.386 . S
C125 C126 1.382 . S
C125 H147 0.950 1_545 S
C126 N122 1.332 . S
C126 C125 1.382 . S
C126 H128 0.952 . S
C127 N122 1.332 . S
C127 C123 1.382 . S
C127 H129 0.948 . S
H128 C126 0.952 . S
H129 C127 0.948 . S
H130 C119 0.952 . S
H131 C121 0.948 1_565 S
C132 C98 1.395 . S
C132 C102 1.391 . S
C133 C95 1.389 . S
C133 C115 1.392 . S
C134 C105 1.392 . S
C134 C107 1.389 . S
C135 C110 1.395 . S
C135 C112 1.391 . S
H136 C96 0.951 . S
H137 C97 0.950 . S
H138 C103 0.949 . S
H139 C104 0.950 . S
H140 C108 0.951 . S
H141 C109 0.950 . S
H142 C113 0.949 . S
H143 C114 0.950 . S
H144 C118 0.950 . S
H145 C120 0.950 1_565 S
H146 C123 0.950 . S
H147 C125 0.950 1_565 S
C148 C149 1.443 . S
C148 N152 1.376 . S
C148 C186 1.389 . S
C149 C148 1.443 . S
C149 C150 1.340 . S
C149 H189 0.951 . S
C150 C149 1.340 . S
C150 C151 1.439 . S
C150 H190 0.950 . S
C151 C150 1.439 . S
C151 N152 1.374 . S
C151 C185 1.395 . S
N152 C148 1.376 . S
N152 C151 1.374 . S
N152 Co153 2.008 . S
Co153 N152 2.008 . S
Co153 N154 1.995 . S
Co153 N159 2.008 . S
Co153 N164 1.995 . S
Co153 N169 2.282 . S
Co153 N175 2.282 . S
N154 Co153 1.995 . S
N154 C155 1.376 . S
N154 C158 1.383 . S
C155 N154 1.376 . S
C155 C156 1.446 . S
C155 C185 1.391 . S
C156 C155 1.446 . S
C156 C157 1.339 . S
C156 H191 0.949 . S
C157 C156 1.339 . S
C157 C158 1.439 . S
C157 H192 0.950 . S
C158 N154 1.383 . S
C158 C157 1.439 . S
C158 C187 1.392 . S
N159 Co153 2.008 . S
N159 C160 1.376 . S
N159 C163 1.374 . S
C160 N159 1.376 . S
C160 C161 1.443 . S
C160 C187 1.389 . S
C161 C160 1.443 . S
C161 C162 1.340 . S
C161 H193 0.951 . S
C162 C161 1.340 . S
C162 C163 1.439 . S
C162 H194 0.950 . S
C163 N159 1.374 . S
C163 C162 1.439 . S
C163 C188 1.395 . S
N164 Co153 1.995 . S
N164 C165 1.376 . S
N164 C168 1.383 . S
C165 N164 1.376 . S
C165 C166 1.446 . S
C165 C188 1.391 . S
C166 C165 1.446 . S
C166 C167 1.339 . S
C166 H195 0.949 . S
C167 C166 1.339 . S
C167 C168 1.439 . S
C167 H196 0.950 . S
C168 N164 1.383 . S
C168 C167 1.439 . S
C168 C186 1.392 . S
N169 Co153 2.282 . S
N169 C172 1.332 . S
N169 C174 1.332 . S
C170 C171 1.386 . S
C170 C173 1.388 . S
C171 C170 1.386 . S
C171 C172 1.382 . S
C171 H197 0.950 . S
C172 N169 1.332 . S
C172 C171 1.382 . S
C172 H183 0.952 . S
C173 C170 1.388 . S
C173 C174 1.382 . S
C173 H198 0.950 . S
C174 N169 1.332 . S
C174 C173 1.382 . S
C174 H184 0.948 . S
N175 Co153 2.282 . S
N175 C179 1.332 . S
N175 C180 1.332 . S
C176 C177 1.388 . S
C176 C180 1.382 . S
C176 H199 0.950 . S
C177 C176 1.388 . S
C177 C178 1.386 . S
C178 C177 1.386 . S
C178 C179 1.382 . S
C178 H200 0.950 . S
C179 N175 1.332 . S
C179 C178 1.382 . S
C179 H181 0.952 . S
C180 N175 1.332 . S
C180 C176 1.382 . S
C180 H182 0.948 . S
H181 C179 0.952 . S
H182 C180 0.948 . S
H183 C172 0.952 . S
H184 C174 0.948 . S
C185 C151 1.395 . S
C185 C155 1.391 . S
C186 C148 1.389 . S
C186 C168 1.392 . S
C187 C158 1.392 . S
C187 C160 1.389 . S
C188 C163 1.395 . S
C188 C165 1.391 . S
H189 C149 0.951 . S
H190 C150 0.950 . S
H191 C156 0.949 . S
H192 C157 0.950 . S
H193 C161 0.951 . S
H194 C162 0.950 . S
H195 C166 0.949 . S
H196 C167 0.950 . S
H197 C171 0.950 . S
H198 C173 0.950 . S
H199 C176 0.950 . S
H200 C178 0.950 . S
H201 C207 0.930 . S
H202 C211 0.930 . S
H203 C216 0.929 . S
H204 C214 0.929 . S
H205 C209 0.929 . S
H206 C215 0.929 . S
C207 H201 0.930 . S
C207 C208 1.367 . S
C207 C215 1.378 . S
C208 C207 1.367 . S
C208 C216 1.433 . S
C209 H205 0.929 . S
C209 C211 1.378 . S
C209 C213 1.350 . S
C210 C213 1.463 . S
C210 C215 1.350 . S
C210 N218 1.427 . S
C211 H202 0.930 . S
C211 C209 1.378 . S
C211 C212 1.367 . S
C212 C211 1.367 . S
C212 C214 1.433 . S
C213 C209 1.350 . S
C213 C210 1.463 . S
C213 N217 1.427 . S
C214 H204 0.929 . S
C214 C212 1.433 . S
C214 N217 1.384 . S
C215 H206 0.929 . S
C215 C207 1.378 . S
C215 C210 1.350 . S
C216 H203 0.929 . S
C216 C208 1.433 . S
C216 N218 1.384 . S
N217 C213 1.427 . S
N217 C214 1.384 . S
N218 C210 1.427 . S
N218 C216 1.384 . S
H219 C225 0.930 . S
H220 C229 0.930 . S
H221 C234 0.929 . S
H222 C232 0.929 . S
H223 C227 0.929 . S
H224 C233 0.929 . S
C225 H219 0.930 . S
C225 C226 1.367 . S
C225 C233 1.378 . S
C226 C225 1.367 . S
C226 C234 1.433 . S
C227 H223 0.929 . S
C227 C229 1.378 . S
C227 C231 1.350 . S
C228 C231 1.463 . S
C228 C233 1.350 . S
C228 N236 1.427 . S
C229 H220 0.930 . S
C229 C227 1.378 . S
C229 C230 1.367 . S
C230 C229 1.367 . S
C230 C232 1.433 . S
C231 C227 1.350 . S
C231 C228 1.463 . S
C231 N235 1.427 . S
C232 H222 0.929 . S
C232 C230 1.433 . S
C232 N235 1.384 . S
C233 H224 0.929 . S
C233 C225 1.378 . S
C233 C228 1.350 . S
C234 H221 0.929 . S
C234 C226 1.433 . S
C234 N236 1.384 . S
N235 C231 1.427 . S
N235 C232 1.384 . S
N236 C228 1.427 . S
N236 C234 1.384 . S
H237 C243 0.930 . S
H238 C247 0.930 . S
H239 C252 0.929 . S
H240 C250 0.929 . S
H241 C245 0.929 . S
H242 C251 0.929 . S
C243 H237 0.930 . S
C243 C244 1.367 . S
C243 C251 1.378 . S
C244 C243 1.367 . S
C244 C252 1.433 . S
C245 H241 0.929 . S
C245 C247 1.378 . S
C245 C249 1.350 . S
C246 C249 1.463 . S
C246 C251 1.350 . S
C246 N254 1.427 . S
C247 H238 0.930 . S
C247 C245 1.378 . S
C247 C248 1.367 . S
C248 C247 1.367 . S
C248 C250 1.433 . S
C249 C245 1.350 . S
C249 C246 1.463 . S
C249 N253 1.427 . S
C250 H240 0.929 . S
C250 C248 1.433 . S
C250 N253 1.384 . S
C251 H242 0.929 . S
C251 C243 1.378 . S
C251 C246 1.350 . S
C252 H239 0.929 . S
C252 C244 1.433 . S
C252 N254 1.384 . S
N253 C249 1.427 . S
N253 C250 1.384 . S
N254 C246 1.427 . S
N254 C252 1.384 . S
H255 C261 0.930 . S
H256 C265 0.930 . S
H257 C270 0.929 . S
H258 C268 0.929 . S
H259 C263 0.929 . S
H260 C269 0.929 . S
C261 H255 0.930 . S
C261 C262 1.367 . S
C261 C269 1.378 . S
C262 C261 1.367 . S
C262 C270 1.433 . S
C263 H259 0.929 . S
C263 C265 1.378 . S
C263 C267 1.350 . S
C264 C267 1.463 . S
C264 C269 1.350 . S
C264 N272 1.427 . S
C265 H256 0.930 . S
C265 C263 1.378 . S
C265 C266 1.367 . S
C266 C265 1.367 . S
C266 C268 1.433 . S
C267 C263 1.350 . S
C267 C264 1.463 . S
C267 N271 1.427 . S
C268 H258 0.929 . S
C268 C266 1.433 . S
C268 N271 1.384 . S
C269 H260 0.929 . S
C269 C261 1.378 . S
C269 C264 1.350 . S
C270 H257 0.929 . S
C270 C262 1.433 . S
C270 N272 1.384 . S
N271 C267 1.427 . S
N271 C268 1.384 . S
N272 C264 1.427 . S
N272 C270 1.384 . S
H273 C279 0.930 . S
H274 C283 0.930 . S
H275 C288 0.929 . S
H276 C286 0.929 . S
H277 C281 0.929 . S
H278 C287 0.929 . S
C279 H273 0.930 . S
C279 C280 1.367 . S
C279 C287 1.378 . S
C280 C279 1.367 . S
C280 C288 1.433 . S
C281 H277 0.929 . S
C281 C283 1.378 . S
C281 C285 1.350 . S
C282 C285 1.463 . S
C282 C287 1.350 . S
C282 N290 1.427 . S
C283 H274 0.930 . S
C283 C281 1.378 . S
C283 C284 1.367 . S
C284 C283 1.367 . S
C284 C286 1.433 . S
C285 C281 1.350 . S
C285 C282 1.463 . S
C285 N289 1.427 . S
C286 H276 0.929 . S
C286 C284 1.433 . S
C286 N289 1.384 . S
C287 H278 0.929 . S
C287 C279 1.378 . S
C287 C282 1.350 . S
C288 H275 0.929 . S
C288 C280 1.433 . S
C288 N290 1.384 . S
N289 C285 1.427 . S
N289 C286 1.384 . S
N290 C282 1.427 . S
N290 C288 1.384 . S
H291 C297 0.930 . S
H292 C301 0.930 . S
H293 C306 0.929 . S
H294 C304 0.929 . S
H295 C299 0.929 . S
H296 C305 0.929 . S
C297 H291 0.930 . S
C297 C298 1.367 . S
C297 C305 1.378 . S
C298 C297 1.367 . S
C298 C306 1.433 . S
C299 H295 0.929 . S
C299 C301 1.378 . S
C299 C303 1.350 . S
C300 C303 1.463 . S
C300 C305 1.350 . S
C300 N308 1.427 . S
C301 H292 0.930 . S
C301 C299 1.378 . S
C301 C302 1.367 . S
C302 C301 1.367 . S
C302 C304 1.433 . S
C303 C299 1.350 . S
C303 C300 1.463 . S
C303 N307 1.427 . S
C304 H294 0.929 . S
C304 C302 1.433 . S
C304 N307 1.384 . S
C305 H296 0.929 . S
C305 C297 1.378 . S
C305 C300 1.350 . S
C306 H293 0.929 . S
C306 C298 1.433 . S
C306 N308 1.384 . S
N307 C303 1.427 . S
N307 C304 1.384 . S
N308 C300 1.427 . S
N308 C306 1.384 . S
H309 C315 0.930 1_455 S
H310 C319 0.930 . S
H311 C324 0.929 1_565 S
H312 C322 0.929 . S
H313 C317 0.938 . S
H314 C323 0.929 . S
C315 H309 0.930 1_655 S
C315 C316 1.367 . S
C315 C323 1.378 . S
C316 C315 1.367 . S
C316 C324 1.433 . S
C317 H313 0.938 . S
C317 C319 1.378 . S
C317 C321 1.350 . S
C318 C321 1.463 . S
C318 C323 1.350 . S
C318 N326 1.427 . S
C319 H310 0.930 . S
C319 C317 1.378 . S
C319 C320 1.367 . S
C320 C319 1.367 . S
C320 C322 1.433 . S
C321 C317 1.350 . S
C321 C318 1.463 . S
C321 N325 1.427 . S
C322 H312 0.929 . S
C322 C320 1.433 . S
C322 N325 1.384 . S
C323 H314 0.929 . S
C323 C315 1.378 . S
C323 C318 1.350 . S
C324 H311 0.929 1_545 S
C324 C316 1.433 . S
C324 N326 1.384 . S
N325 C321 1.427 . S
N325 C322 1.384 . S
N326 C318 1.427 . S
N326 C324 1.384 . S
H327 C333 0.930 . S
H328 C337 0.930 . S
H329 C342 0.929 1_455 S
H330 C340 0.929 . S
H331 C335 0.929 . S
H332 C341 0.929 . S
C333 H327 0.930 . S
C333 C334 1.367 1_554 S
C333 C341 1.378 1_554 S
C334 C333 1.367 1_556 S
C334 C342 1.433 . S
C335 H331 0.929 . S
C335 C337 1.378 . S
C335 C339 1.350 . S
C336 C339 1.463 . S
C336 C341 1.350 . S
C336 N344 1.427 . S
C337 H328 0.930 . S
C337 C335 1.378 . S
C337 C338 1.367 . S
C338 C337 1.367 . S
C338 C340 1.433 . S
C339 C335 1.350 . S
C339 C336 1.463 . S
C339 N343 1.427 . S
C340 H330 0.929 . S
C340 C338 1.433 . S
C340 N343 1.384 . S
C341 H332 0.929 . S
C341 C333 1.378 1_556 S
C341 C336 1.350 . S
C342 H329 0.929 1_655 S
C342 C334 1.433 . S
C342 N344 1.384 . S
N343 C339 1.427 . S
N343 C340 1.384 . S
N344 C336 1.427 . S
N344 C342 1.384 . S
H345 C351 0.930 1_545 S
H346 C355 0.930 . S
H347 C360 0.929 . S
H348 C358 0.929 . S
H349 C353 0.929 . S
H350 C359 0.929 . S
C351 H345 0.930 1_565 S
C351 C352 1.367 . S
C351 C359 1.378 . S
C352 C351 1.367 . S
C352 C360 1.433 1_455 S
C353 H349 0.929 . S
C353 C355 1.378 . S
C353 C357 1.350 1_655 S
C354 C357 1.463 . S
C354 C359 1.350 . S
C354 N362 1.427 1_455 S
C355 H346 0.930 . S
C355 C353 1.378 . S
C355 C356 1.367 1_655 S
C356 C355 1.367 1_455 S
C356 C358 1.433 . S
C357 C353 1.350 1_455 S
C357 C354 1.463 . S
C357 N361 1.427 . S
C358 H348 0.929 . S
C358 C356 1.433 . S
C358 N361 1.384 . S
C359 H350 0.929 . S
C359 C351 1.378 . S
C359 C354 1.350 . S
C360 H347 0.929 . S
C360 C352 1.433 1_655 S
C360 N362 1.384 . S
N361 C357 1.427 . S
N361 C358 1.384 . S
N362 C354 1.427 1_655 S
N362 C360 1.384 . S
H363 C369 0.940 . S
H364 C373 0.930 . S
H365 C378 0.929 . S
H366 C376 0.929 1_565 S
H367 C371 0.929 . S
H368 C377 0.929 1_565 S
C369 H363 0.940 . S
C369 C370 1.352 1_565 S
C369 C377 1.384 1_565 S
C370 C369 1.352 1_545 S
C370 C378 1.433 . S
C371 H367 0.929 . S
C371 C373 1.378 . S
C371 C375 1.350 . S
C372 C375 1.463 . S
C372 C377 1.350 . S
C372 N380 1.427 . S
C373 H364 0.930 . S
C373 C371 1.378 . S
C373 C374 1.367 . S
C374 C373 1.367 . S
C374 C376 1.433 . S
C375 C371 1.350 . S
C375 C372 1.463 . S
C375 N379 1.427 . S
C376 H366 0.929 1_545 S
C376 C374 1.433 . S
C376 N379 1.384 . S
C377 H368 0.929 1_545 S
C377 C369 1.384 1_545 S
C377 C372 1.350 . S
C378 H365 0.929 . S
C378 C370 1.433 . S
C378 N380 1.384 . S
N379 C375 1.427 . S
N379 C376 1.384 . S
N380 C372 1.427 . S
N380 C378 1.384 . S
H381 C387 0.930 1_554 S
H382 C391 0.930 . S
H383 C396 0.929 . S
H384 C394 0.929 . S
H385 C389 0.929 . S
H386 C395 0.929 . S
C387 H381 0.930 1_556 S
C387 C388 1.367 . S
C387 C395 1.378 . S
C388 C387 1.367 . S
C388 C396 1.433 . S
C389 H385 0.929 . S
C389 C391 1.378 . S
C389 C393 1.350 . S
C390 C393 1.463 . S
C390 C395 1.350 . S
C390 N398 1.427 . S
C391 H382 0.930 . S
C391 C389 1.378 . S
C391 C392 1.367 . S
C392 C391 1.367 . S
C392 C394 1.433 . S
C393 C389 1.350 . S
C393 C390 1.463 . S
C393 N397 1.427 . S
C394 H384 0.929 . S
C394 C392 1.433 . S
C394 N397 1.384 . S
C395 H386 0.929 . S
C395 C387 1.378 . S
C395 C390 1.350 . S
C396 H383 0.929 . S
C396 C388 1.433 . S
C396 N398 1.384 . S
N397 C393 1.427 . S
N397 C394 1.384 . S
N398 C390 1.427 . S
N398 C396 1.384 . S
H399 C405 0.930 . S
H400 C409 0.930 . S
H401 C414 0.929 . S
H402 C412 0.929 . S
H403 C407 0.929 . S
H404 C413 0.929 . S
C405 H399 0.930 . S
C405 C406 1.367 . S
C405 C413 1.378 . S
C406 C405 1.367 . S
C406 C414 1.433 1_455 S
C407 H403 0.929 . S
C407 C409 1.378 . S
C407 C411 1.350 1_655 S
C408 C411 1.463 . S
C408 C413 1.350 . S
C408 N416 1.427 1_455 S
C409 H400 0.930 . S
C409 C407 1.378 . S
C409 C410 1.367 1_655 S
C410 C409 1.367 1_455 S
C410 C412 1.433 . S
C411 C407 1.350 1_455 S
C411 C408 1.463 . S
C411 N415 1.427 . S
C412 H402 0.929 . S
C412 C410 1.433 . S
C412 N415 1.384 . S
C413 H404 0.929 . S
C413 C405 1.378 . S
C413 C408 1.350 . S
C414 H401 0.929 . S
C414 C406 1.433 1_655 S
C414 N416 1.384 . S
N415 C411 1.427 . S
N415 C412 1.384 . S
N416 C408 1.427 1_655 S
N416 C414 1.384 . S
C212 C64 1.494 . S
C208 C3 1.493 . S
C226 C21 1.506 . S
C230 C134 1.525 . S
C244 C37 1.487 . S
C248 C186 1.504 . S
C262 C8 1.503 . S
C266 C80 1.502 . S
C284 C124 1.505 . S
C280 C23 1.490 . S
C298 C35 1.484 . S
C302 C170 1.501 . S
C320 C117 1.486 . S
C316 C31 1.485 . S
C334 C7 1.475 1_566 S
C338 C177 1.502 . S
C356 C71 1.495 . S
C352 C17 1.492 1_565 S
C374 C133 1.475 . S
C370 C36 1.475 . S
C392 C187 1.507 . S
C388 C9 1.484 1_556 S
C406 C22 1.503 . S
C410 C81 1.502 . S
