# Generated by pormake.
# Topology gar, (4,6)-cn, num edge types: 1
# Building blocks:
#     Node 0, Type 0, BuildingBlock: NAHDIM_clean_sbu_0, # of connection points: 4
#     Node 1, Type 0, BuildingBlock: NAHDIM_clean_sbu_0, # of connection points: 4
#     Node 2, Type 0, BuildingBlock: NAHDIM_clean_sbu_0, # of connection points: 4
#     Node 3, Type 0, BuildingBlock: NAHDIM_clean_sbu_0, # of connection points: 4
#     Node 4, Type 0, BuildingBlock: NAHDIM_clean_sbu_0, # of connection points: 4
#     Node 5, Type 0, BuildingBlock: NAHDIM_clean_sbu_0, # of connection points: 4
#     Node 6, Type 0, BuildingBlock: NAHDIM_clean_sbu_0, # of connection points: 4
#     Node 7, Type 0, BuildingBlock: NAHDIM_clean_sbu_0, # of connection points: 4
#     Node 8, Type 0, BuildingBlock: NAHDIM_clean_sbu_0, # of connection points: 4
#     Node 9, Type 0, BuildingBlock: NAHDIM_clean_sbu_0, # of connection points: 4
#     Node 10, Type 0, BuildingBlock: NAHDIM_clean_sbu_0, # of connection points: 4
#     Node 11, Type 0, BuildingBlock: NAHDIM_clean_sbu_0, # of connection points: 4
#     Node 12, Type 0, BuildingBlock: NAHDIM_clean_sbu_0, # of connection points: 4
#     Node 13, Type 0, BuildingBlock: NAHDIM_clean_sbu_0, # of connection points: 4
#     Node 14, Type 0, BuildingBlock: NAHDIM_clean_sbu_0, # of connection points: 4
#     Node 15, Type 0, BuildingBlock: NAHDIM_clean_sbu_0, # of connection points: 4
#     Node 16, Type 0, BuildingBlock: NAHDIM_clean_sbu_0, # of connection points: 4
#     Node 17, Type 0, BuildingBlock: NAHDIM_clean_sbu_0, # of connection points: 4
#     Node 18, Type 0, BuildingBlock: NAHDIM_clean_sbu_0, # of connection points: 4
#     Node 19, Type 0, BuildingBlock: NAHDIM_clean_sbu_0, # of connection points: 4
#     Node 20, Type 0, BuildingBlock: NAHDIM_clean_sbu_0, # of connection points: 4
#     Node 21, Type 0, BuildingBlock: NAHDIM_clean_sbu_0, # of connection points: 4
#     Node 22, Type 0, BuildingBlock: NAHDIM_clean_sbu_0, # of connection points: 4
#     Node 23, Type 0, BuildingBlock: NAHDIM_clean_sbu_0, # of connection points: 4
#     Node 24, Type 1, BuildingBlock: KUMBUR_clean_sbu_1, # of connection points: 6
#     Node 25, Type 1, BuildingBlock: KUMBUR_clean_sbu_1, # of connection points: 6
#     Node 26, Type 1, BuildingBlock: KUMBUR_clean_sbu_1, # of connection points: 6
#     Node 27, Type 1, BuildingBlock: KUMBUR_clean_sbu_1, # of connection points: 6
#     Node 28, Type 1, BuildingBlock: KUMBUR_clean_sbu_1, # of connection points: 6
#     Node 29, Type 1, BuildingBlock: KUMBUR_clean_sbu_1, # of connection points: 6
#     Node 30, Type 1, BuildingBlock: KUMBUR_clean_sbu_1, # of connection points: 6
#     Node 31, Type 1, BuildingBlock: KUMBUR_clean_sbu_1, # of connection points: 6
#     Node 32, Type 1, BuildingBlock: KUMBUR_clean_sbu_1, # of connection points: 6
#     Node 33, Type 1, BuildingBlock: KUMBUR_clean_sbu_1, # of connection points: 6
#     Node 34, Type 1, BuildingBlock: KUMBUR_clean_sbu_1, # of connection points: 6
#     Node 35, Type 1, BuildingBlock: KUMBUR_clean_sbu_1, # of connection points: 6
#     Node 36, Type 1, BuildingBlock: KUMBUR_clean_sbu_1, # of connection points: 6
#     Node 37, Type 1, BuildingBlock: KUMBUR_clean_sbu_1, # of connection points: 6
#     Node 38, Type 1, BuildingBlock: KUMBUR_clean_sbu_1, # of connection points: 6
#     Node 39, Type 1, BuildingBlock: KUMBUR_clean_sbu_1, # of connection points: 6
#     Edge 40, Type (0, 1), BuildingBlock: MIFKUJ_clean_linker_0, # of connection points: 2
#     Edge 41, Type (0, 1), BuildingBlock: MIFKUJ_clean_linker_0, # of connection points: 2
#     Edge 42, Type (0, 1), BuildingBlock: MIFKUJ_clean_linker_0, # of connection points: 2
#     Edge 43, Type (0, 1), BuildingBlock: MIFKUJ_clean_linker_0, # of connection points: 2
#     Edge 44, Type (0, 1), BuildingBlock: MIFKUJ_clean_linker_0, # of connection points: 2
#     Edge 45, Type (0, 1), BuildingBlock: MIFKUJ_clean_linker_0, # of connection points: 2
#     Edge 46, Type (0, 1), BuildingBlock: MIFKUJ_clean_linker_0, # of connection points: 2
#     Edge 47, Type (0, 1), BuildingBlock: MIFKUJ_clean_linker_0, # of connection points: 2
#     Edge 48, Type (0, 1), BuildingBlock: MIFKUJ_clean_linker_0, # of connection points: 2
#     Edge 49, Type (0, 1), BuildingBlock: MIFKUJ_clean_linker_0, # of connection points: 2
#     Edge 50, Type (0, 1), BuildingBlock: MIFKUJ_clean_linker_0, # of connection points: 2
#     Edge 51, Type (0, 1), BuildingBlock: MIFKUJ_clean_linker_0, # of connection points: 2
#     Edge 52, Type (0, 1), BuildingBlock: MIFKUJ_clean_linker_0, # of connection points: 2
#     Edge 53, Type (0, 1), BuildingBlock: MIFKUJ_clean_linker_0, # of connection points: 2
#     Edge 54, Type (0, 1), BuildingBlock: MIFKUJ_clean_linker_0, # of connection points: 2
#     Edge 55, Type (0, 1), BuildingBlock: MIFKUJ_clean_linker_0, # of connection points: 2
#     Edge 56, Type (0, 1), BuildingBlock: MIFKUJ_clean_linker_0, # of connection points: 2
#     Edge 57, Type (0, 1), BuildingBlock: MIFKUJ_clean_linker_0, # of connection points: 2
#     Edge 58, Type (0, 1), BuildingBlock: MIFKUJ_clean_linker_0, # of connection points: 2
#     Edge 59, Type (0, 1), BuildingBlock: MIFKUJ_clean_linker_0, # of connection points: 2
#     Edge 60, Type (0, 1), BuildingBlock: MIFKUJ_clean_linker_0, # of connection points: 2
#     Edge 61, Type (0, 1), BuildingBlock: MIFKUJ_clean_linker_0, # of connection points: 2
#     Edge 62, Type (0, 1), BuildingBlock: MIFKUJ_clean_linker_0, # of connection points: 2
#     Edge 63, Type (0, 1), BuildingBlock: MIFKUJ_clean_linker_0, # of connection points: 2
#     Edge 64, Type (0, 1), BuildingBlock: MIFKUJ_clean_linker_0, # of connection points: 2
#     Edge 65, Type (0, 1), BuildingBlock: MIFKUJ_clean_linker_0, # of connection points: 2
#     Edge 66, Type (0, 1), BuildingBlock: MIFKUJ_clean_linker_0, # of connection points: 2
#     Edge 67, Type (0, 1), BuildingBlock: MIFKUJ_clean_linker_0, # of connection points: 2
#     Edge 68, Type (0, 1), BuildingBlock: MIFKUJ_clean_linker_0, # of connection points: 2
#     Edge 69, Type (0, 1), BuildingBlock: MIFKUJ_clean_linker_0, # of connection points: 2
#     Edge 70, Type (0, 1), BuildingBlock: MIFKUJ_clean_linker_0, # of connection points: 2
#     Edge 71, Type (0, 1), BuildingBlock: MIFKUJ_clean_linker_0, # of connection points: 2
#     Edge 72, Type (0, 1), BuildingBlock: MIFKUJ_clean_linker_0, # of connection points: 2
#     Edge 73, Type (0, 1), BuildingBlock: MIFKUJ_clean_linker_0, # of connection points: 2
#     Edge 74, Type (0, 1), BuildingBlock: MIFKUJ_clean_linker_0, # of connection points: 2
#     Edge 75, Type (0, 1), BuildingBlock: MIFKUJ_clean_linker_0, # of connection points: 2
#     Edge 76, Type (0, 1), BuildingBlock: MIFKUJ_clean_linker_0, # of connection points: 2
#     Edge 77, Type (0, 1), BuildingBlock: MIFKUJ_clean_linker_0, # of connection points: 2
#     Edge 78, Type (0, 1), BuildingBlock: MIFKUJ_clean_linker_0, # of connection points: 2
#     Edge 79, Type (0, 1), BuildingBlock: MIFKUJ_clean_linker_0, # of connection points: 2
#     Edge 80, Type (0, 1), BuildingBlock: MIFKUJ_clean_linker_0, # of connection points: 2
#     Edge 81, Type (0, 1), BuildingBlock: MIFKUJ_clean_linker_0, # of connection points: 2
#     Edge 82, Type (0, 1), BuildingBlock: MIFKUJ_clean_linker_0, # of connection points: 2
#     Edge 83, Type (0, 1), BuildingBlock: MIFKUJ_clean_linker_0, # of connection points: 2
#     Edge 84, Type (0, 1), BuildingBlock: MIFKUJ_clean_linker_0, # of connection points: 2
#     Edge 85, Type (0, 1), BuildingBlock: MIFKUJ_clean_linker_0, # of connection points: 2
#     Edge 86, Type (0, 1), BuildingBlock: MIFKUJ_clean_linker_0, # of connection points: 2
#     Edge 87, Type (0, 1), BuildingBlock: MIFKUJ_clean_linker_0, # of connection points: 2
#     Edge 88, Type (0, 1), BuildingBlock: MIFKUJ_clean_linker_0, # of connection points: 2
#     Edge 89, Type (0, 1), BuildingBlock: MIFKUJ_clean_linker_0, # of connection points: 2
#     Edge 90, Type (0, 1), BuildingBlock: MIFKUJ_clean_linker_0, # of connection points: 2
#     Edge 91, Type (0, 1), BuildingBlock: MIFKUJ_clean_linker_0, # of connection points: 2
#     Edge 92, Type (0, 1), BuildingBlock: MIFKUJ_clean_linker_0, # of connection points: 2
#     Edge 93, Type (0, 1), BuildingBlock: MIFKUJ_clean_linker_0, # of connection points: 2
#     Edge 94, Type (0, 1), BuildingBlock: MIFKUJ_clean_linker_0, # of connection points: 2
#     Edge 95, Type (0, 1), BuildingBlock: MIFKUJ_clean_linker_0, # of connection points: 2
#     Edge 96, Type (0, 1), BuildingBlock: MIFKUJ_clean_linker_0, # of connection points: 2
#     Edge 97, Type (0, 1), BuildingBlock: MIFKUJ_clean_linker_0, # of connection points: 2
#     Edge 98, Type (0, 1), BuildingBlock: MIFKUJ_clean_linker_0, # of connection points: 2
#     Edge 99, Type (0, 1), BuildingBlock: MIFKUJ_clean_linker_0, # of connection points: 2
#     Edge 100, Type (0, 1), BuildingBlock: MIFKUJ_clean_linker_0, # of connection points: 2
#     Edge 101, Type (0, 1), BuildingBlock: MIFKUJ_clean_linker_0, # of connection points: 2
#     Edge 102, Type (0, 1), BuildingBlock: MIFKUJ_clean_linker_0, # of connection points: 2
#     Edge 103, Type (0, 1), BuildingBlock: MIFKUJ_clean_linker_0, # of connection points: 2
#     Edge 104, Type (0, 1), BuildingBlock: MIFKUJ_clean_linker_0, # of connection points: 2
#     Edge 105, Type (0, 1), BuildingBlock: MIFKUJ_clean_linker_0, # of connection points: 2
#     Edge 106, Type (0, 1), BuildingBlock: MIFKUJ_clean_linker_0, # of connection points: 2
#     Edge 107, Type (0, 1), BuildingBlock: MIFKUJ_clean_linker_0, # of connection points: 2
#     Edge 108, Type (0, 1), BuildingBlock: MIFKUJ_clean_linker_0, # of connection points: 2
#     Edge 109, Type (0, 1), BuildingBlock: MIFKUJ_clean_linker_0, # of connection points: 2
#     Edge 110, Type (0, 1), BuildingBlock: MIFKUJ_clean_linker_0, # of connection points: 2
#     Edge 111, Type (0, 1), BuildingBlock: MIFKUJ_clean_linker_0, # of connection points: 2
#     Edge 112, Type (0, 1), BuildingBlock: MIFKUJ_clean_linker_0, # of connection points: 2
#     Edge 113, Type (0, 1), BuildingBlock: MIFKUJ_clean_linker_0, # of connection points: 2
#     Edge 114, Type (0, 1), BuildingBlock: MIFKUJ_clean_linker_0, # of connection points: 2
#     Edge 115, Type (0, 1), BuildingBlock: MIFKUJ_clean_linker_0, # of connection points: 2
#     Edge 116, Type (0, 1), BuildingBlock: MIFKUJ_clean_linker_0, # of connection points: 2
#     Edge 117, Type (0, 1), BuildingBlock: MIFKUJ_clean_linker_0, # of connection points: 2
#     Edge 118, Type (0, 1), BuildingBlock: MIFKUJ_clean_linker_0, # of connection points: 2
#     Edge 119, Type (0, 1), BuildingBlock: MIFKUJ_clean_linker_0, # of connection points: 2
#     Edge 120, Type (0, 1), BuildingBlock: MIFKUJ_clean_linker_0, # of connection points: 2
#     Edge 121, Type (0, 1), BuildingBlock: MIFKUJ_clean_linker_0, # of connection points: 2
#     Edge 122, Type (0, 1), BuildingBlock: MIFKUJ_clean_linker_0, # of connection points: 2
#     Edge 123, Type (0, 1), BuildingBlock: MIFKUJ_clean_linker_0, # of connection points: 2
#     Edge 124, Type (0, 1), BuildingBlock: MIFKUJ_clean_linker_0, # of connection points: 2
#     Edge 125, Type (0, 1), BuildingBlock: MIFKUJ_clean_linker_0, # of connection points: 2
#     Edge 126, Type (0, 1), BuildingBlock: MIFKUJ_clean_linker_0, # of connection points: 2
#     Edge 127, Type (0, 1), BuildingBlock: MIFKUJ_clean_linker_0, # of connection points: 2
#     Edge 128, Type (0, 1), BuildingBlock: MIFKUJ_clean_linker_0, # of connection points: 2
#     Edge 129, Type (0, 1), BuildingBlock: MIFKUJ_clean_linker_0, # of connection points: 2
#     Edge 130, Type (0, 1), BuildingBlock: MIFKUJ_clean_linker_0, # of connection points: 2
#     Edge 131, Type (0, 1), BuildingBlock: MIFKUJ_clean_linker_0, # of connection points: 2
#     Edge 132, Type (0, 1), BuildingBlock: MIFKUJ_clean_linker_0, # of connection points: 2
#     Edge 133, Type (0, 1), BuildingBlock: MIFKUJ_clean_linker_0, # of connection points: 2
#     Edge 134, Type (0, 1), BuildingBlock: MIFKUJ_clean_linker_0, # of connection points: 2
#     Edge 135, Type (0, 1), BuildingBlock: MIFKUJ_clean_linker_0, # of connection points: 2
# Relax obj value: 0.069
# Max RMSD: 0.187
# Mean RMSD: 0.132
data_MOF--net-gar--node1-NAHDIM_clean_sbu_0--node2-KUMBUR_clean_sbu_1--edge1-MIFKUJ_clean_linker_0
_symmetry_space_group_name_H-M    P1
_symmetry_Int_Tables_number       1
_symmetry_cell_setting            triclinic
loop_
_symmetry_equiv_pos_as_xyz
'x, y, z'
_cell_length_a     77.640376
_cell_length_b     76.332697
_cell_length_c     70.509364
_cell_angle_alpha  95.724738
_cell_angle_beta   95.973189
_cell_angle_gamma 100.9211
loop_
_atom_site_label
_atom_site_type_symbol
_atom_site_fract_x
_atom_site_fract_y
_atom_site_fract_z
_atom_type_partial_charge
C0 C 0.07565 0.30522 0.3444 0.0
O1 O 0.07807 0.31626 0.36041 0.0
O2 O 0.03354 0.27788 0.36954 0.0
Zn3 Zn 0.03689 0.29945 0.35339 0.0
O4 O 0.04143 0.32432 0.37122 0.0
C5 C 0.99745 0.2923 0.34507 0.0
O6 O 0.99997 0.28829 0.36269 0.0
O7 O 0.05965 0.29707 0.33802 0.0
C8 C 0.03436 0.32646 0.3867 0.0
O9 O 0.02462 0.31231 0.39221 0.0
C10 C 0.04403 0.27543 0.38376 0.0
O11 O 0.05842 0.2877 0.3896 0.0
O12 O 0.0113 0.29721 0.33677 0.0
C13 C 0.97812 0.75594 0.69814 0.0
O14 O 0.97883 0.76161 0.68119 0.0
O15 O 0.01295 0.72557 0.67316 0.0
Zn16 Zn 0.01456 0.7506 0.68994 0.0
O17 O 0.01425 0.77191 0.67318 0.0
C18 C 0.05349 0.75231 0.69955 0.0
O19 O 0.0511 0.7459 0.68128 0.0
O20 O 0.99161 0.75015 0.70543 0.0
C21 C 0.02506 0.77759 0.6616 0.0
O22 O 0.0381 0.76929 0.65891 0.0
C23 C 0.01122 0.72224 0.65482 0.0
O24 O 0.00924 0.73532 0.64454 0.0
O25 O 0.03991 0.7554 0.70735 0.0
C26 C 0.5743 0.79255 0.8446 0.0
O27 O 0.57302 0.78521 0.86059 0.0
O28 O 0.53539 0.77675 0.8685 0.0
Zn29 Zn 0.53821 0.79937 0.85374 0.0
O30 O 0.5428 0.82316 0.87329 0.0
C31 C 0.49862 0.78951 0.84331 0.0
O32 O 0.50078 0.78136 0.85868 0.0
O33 O 0.56123 0.79945 0.83815 0.0
C34 C 0.53029 0.82841 0.88133 0.0
O35 O 0.51439 0.81824 0.87767 0.0
C36 C 0.54254 0.77587 0.88544 0.0
O37 O 0.55283 0.79037 0.89505 0.0
O38 O 0.51265 0.79784 0.83725 0.0
C39 C 0.47629 0.24839 0.19678 0.0
O40 O 0.4731 0.24293 0.17825 0.0
O41 O 0.50981 0.22475 0.16969 0.0
Zn42 Zn 0.51372 0.25009 0.18694 0.0
O43 O 0.51214 0.27027 0.1693 0.0
C44 C 0.54944 0.24381 0.20533 0.0
O45 O 0.54157 0.22684 0.20116 0.0
O46 O 0.49254 0.25172 0.20451 0.0
C47 C 0.52543 0.27963 0.16324 0.0
O48 O 0.54112 0.27593 0.16756 0.0
C49 C 0.5217 0.22079 0.15962 0.0
O50 O 0.53607 0.23308 0.15969 0.0
O51 O 0.5403 0.25579 0.20185 0.0
C52 C 0.01678 0.7759 0.12988 0.0
O53 O 0.01641 0.76089 0.11883 0.0
O54 O 0.04643 0.76176 0.09866 0.0
Zn55 Zn 0.05096 0.78828 0.11406 0.0
O56 O 0.05123 0.81213 0.09977 0.0
C57 C 0.08901 0.78767 0.12761 0.0
O58 O 0.08945 0.78381 0.10911 0.0
O59 O 0.03002 0.78886 0.1305 0.0
C60 C 0.04801 0.81513 0.08226 0.0
O61 O 0.04473 0.8014 0.0687 0.0
C62 C 0.05105 0.75503 0.08302 0.0
O63 O 0.05975 0.76595 0.07242 0.0
O64 O 0.07451 0.79065 0.13316 0.0
C65 C 0.53956 0.76617 0.42001 0.0
O66 O 0.54331 0.7667 0.43869 0.0
O67 O 0.5037 0.73818 0.44241 0.0
Zn68 Zn 0.50363 0.7632 0.43055 0.0
O69 O 0.50937 0.7883 0.44872 0.0
C70 C 0.4646 0.75517 0.41433 0.0
O71 O 0.46205 0.74654 0.42934 0.0
O72 O 0.52347 0.76481 0.41303 0.0
C73 C 0.49803 0.79851 0.44986 0.0
O74 O 0.48188 0.79219 0.44131 0.0
C75 C 0.50354 0.7336 0.45945 0.0
O76 O 0.50267 0.74588 0.47358 0.0
O77 O 0.48039 0.76248 0.41217 0.0
C78 C 0.51508 0.28117 0.6246 0.0
O79 O 0.51123 0.27598 0.60605 0.0
O80 O 0.54703 0.26022 0.59857 0.0
Zn81 Zn 0.55112 0.28693 0.61351 0.0
O82 O 0.54962 0.31047 0.59925 0.0
C83 C 0.58631 0.28041 0.62899 0.0
O84 O 0.58207 0.26708 0.61498 0.0
O85 O 0.53136 0.28625 0.63151 0.0
C86 C 0.55161 0.31515 0.58249 0.0
O87 O 0.55573 0.30364 0.56946 0.0
C88 C 0.54611 0.25291 0.5812 0.0
O89 O 0.54729 0.2633 0.56743 0.0
O90 O 0.57554 0.29105 0.63113 0.0
C91 C 0.03978 0.26974 0.91819 0.0
O92 O 0.04365 0.2768 0.93627 0.0
O93 O 0.00632 0.23977 0.94507 0.0
Zn94 Zn 0.00409 0.26283 0.92983 0.0
O95 O 0.00998 0.28959 0.94488 0.0
C96 C 0.96455 0.25892 0.9158 0.0
O97 O 0.96212 0.25826 0.93389 0.0
O98 O 0.02365 0.26294 0.91185 0.0
C99 C 1.00067 0.29769 0.95545 0.0
O100 O 0.98582 0.28839 0.95967 0.0
C101 C 0.99479 0.22846 0.95187 0.0
O102 O 0.97858 0.23125 0.95125 0.0
O103 O 0.98026 0.26015 0.91132 0.0
C104 C 0.36449 0.04863 0.30517 0.0
O105 O 0.37968 0.04824 0.31504 0.0
O106 O 0.38528 0.02104 0.27063 0.0
Zn107 Zn 0.36922 0.01613 0.29016 0.0
O108 O 0.38203 0.01419 0.31494 0.0
C109 C 0.35891 0.98169 0.27162 0.0
O110 O 0.37286 0.98663 0.26292 0.0
O111 O 0.35662 0.03531 0.29327 0.0
C112 C 0.39134 0.00243 0.31664 0.0
O113 O 0.39229 0.9911 0.30168 0.0
C114 C 0.40202 0.02417 0.27312 0.0
O115 O 0.41057 0.02679 0.29057 0.0
O116 O 0.35342 0.99318 0.28238 0.0
C117 C 0.29738 0.1483 0.50241 0.0
O118 O 0.29762 0.16059 0.49061 0.0
O119 O 0.26579 0.17445 0.53533 0.0
Zn120 Zn 0.26431 0.15853 0.50989 0.0
O121 O 0.26602 0.17158 0.48594 0.0
C122 C 0.22659 0.1463 0.50441 0.0
O123 O 0.22737 0.16344 0.50297 0.0
O124 O 0.28447 0.14505 0.51215 0.0
C125 C 0.26125 0.18616 0.48272 0.0
O126 O 0.25372 0.19454 0.4957 0.0
C127 C 0.2722 0.19112 0.54014 0.0
O128 O 0.27932 0.20085 0.52756 0.0
O129 O 0.24095 0.14064 0.50703 0.0
C130 C 0.14769 1.0015 0.77967 0.0
O131 O 0.1307 0.99737 0.7734 0.0
O132 O 0.12482 0.03203 0.75793 0.0
Zn133 Zn 0.13866 0.03574 0.78476 0.0
O134 O 0.12312 0.03061 0.80584 0.0
C135 C 0.15281 0.07194 0.77716 0.0
O136 O 0.14229 0.06631 0.76102 0.0
O137 O 0.15478 0.01785 0.78537 0.0
C138 C 0.11357 0.04098 0.81246 0.0
O139 O 0.11296 0.05597 0.80497 0.0
C140 C 0.1082 0.03018 0.7536 0.0
O141 O 0.09803 0.02978 0.76738 0.0
O142 O 0.15344 0.06133 0.78995 0.0
C143 C 0.25465 0.94086 0.98986 0.0
O144 O 0.25407 0.92388 0.98384 0.0
O145 O 0.28095 0.92092 0.02128 0.0
Zn146 Zn 0.2873 0.9372 0.00164 0.0
O147 O 0.28824 0.92383 0.97655 0.0
C148 C 0.32104 0.94631 0.02031 0.0
O149 O 0.31604 0.93047 0.02594 0.0
O150 O 0.269 0.95061 0.99814 0.0
C151 C 0.30091 0.91635 0.97285 0.0
O152 O 0.31457 0.91764 0.98591 0.0
C153 C 0.28136 0.90433 0.01902 0.0
O154 O 0.28474 0.89693 0.00258 0.0
O155 O 0.3101 0.95303 0.01024 0.0
C156 C 0.25143 0.39596 0.0305 0.0
O157 O 0.24729 0.37837 0.02665 0.0
O158 O 0.28274 0.37522 0.05994 0.0
Zn159 Zn 0.28648 0.38847 0.03647 0.0
O160 O 0.28353 0.37089 0.01153 0.0
C161 C 0.325 0.40036 0.03873 0.0
O162 O 0.32441 0.3831 0.03447 0.0
O163 O 0.26762 0.40357 0.03471 0.0
C164 C 0.29244 0.37486 0.9978 0.0
O165 O 0.30359 0.39037 -0.00023 0.0
C166 C 0.29187 0.36426 0.06599 0.0
O167 O 0.30454 0.36035 0.05641 0.0
O168 O 0.31064 0.40573 0.0406 0.0
C169 C 0.80015 0.11424 0.05087 0.0
O170 O 0.80258 0.13186 0.05223 0.0
O171 O 0.77252 0.13751 0.07088 0.0
Zn172 Zn 0.76745 0.11989 0.04789 0.0
O173 O 0.76964 0.13298 0.02517 0.0
C174 C 0.73186 0.1136 0.04954 0.0
O175 O 0.73582 0.13103 0.05458 0.0
O176 O 0.78464 0.10499 0.04907 0.0
C177 C 0.75787 0.13095 0.01083 0.0
O178 O 0.74349 0.11845 0.00962 0.0
C179 C 0.77116 0.15357 0.06931 0.0
O180 O 0.76574 0.15823 0.05265 0.0
O181 O 0.74399 0.10516 0.04642 0.0
C182 C 0.18462 0.50003 0.24094 0.0
O183 O 0.16738 0.49666 0.23627 0.0
O184 O 0.16169 0.52889 0.22382 0.0
Zn185 Zn 0.17808 0.53326 0.24729 0.0
O186 O 0.16487 0.53093 0.26951 0.0
C187 C 0.1864 0.56899 0.24133 0.0
O188 O 0.17068 0.56491 0.23129 0.0
O189 O 0.1928 0.51596 0.24633 0.0
C190 C 0.16257 0.5447 0.27975 0.0
O191 O 0.16987 0.56083 0.27626 0.0
C192 C 0.14594 0.53101 0.22397 0.0
O193 O 0.14006 0.53499 0.24033 0.0
O194 O 0.19277 0.55701 0.24913 0.0
C195 C 0.75148 0.89854 0.53861 0.0
O196 O 0.7482 0.88303 0.54545 0.0
O197 O 0.78624 0.87601 0.55729 0.0
Zn198 Zn 0.78547 0.88875 0.53309 0.0
O199 O 0.78041 0.87207 0.50767 0.0
C200 C 0.82355 0.90081 0.53908 0.0
O201 O 0.82288 0.88475 0.5445 0.0
O202 O 0.76644 0.90374 0.53296 0.0
C203 C 0.78982 0.86099 0.50232 0.0
O204 O 0.80325 0.85891 0.51424 0.0
C205 C 0.77833 0.86006 0.55863 0.0
O206 O 0.76879 0.85036 0.54335 0.0
O207 O 0.80919 0.90566 0.53373 0.0
C208 C 0.90727 0.05106 0.25368 0.0
O209 O 0.92374 0.05557 0.25031 0.0
O210 O 0.92953 0.01515 0.2341 0.0
Zn211 Zn 0.91612 0.01609 0.25741 0.0
O212 O 0.93135 0.0212 0.28328 0.0
C213 C 0.90418 0.97753 0.25307 0.0
O214 O 0.92061 0.97758 0.2501 0.0
O215 O 0.90125 0.03501 0.25659 0.0
C216 C 0.94477 0.0146 0.28811 0.0
O217 O 0.95034 0.00401 0.27529 0.0
C218 C 0.9443 0.0251 0.23252 0.0
O219 O 0.95236 0.03688 0.2471 0.0
O220 O 0.89934 0.9924 0.25645 0.0
C221 C 0.30123 0.61488 0.54974 0.0
O222 O 0.30321 0.6319 0.54706 0.0
O223 O 0.27453 0.63932 0.56833 0.0
Zn224 Zn 0.26889 0.62037 0.54667 0.0
O225 O 0.27121 0.63124 0.5225 0.0
C226 C 0.23409 0.61163 0.55517 0.0
O227 O 0.23813 0.62758 0.56521 0.0
O228 O 0.286 0.60567 0.55013 0.0
C229 C 0.25794 0.63502 0.51298 0.0
O230 O 0.24225 0.63076 0.51865 0.0
C231 C 0.27042 0.65442 0.56694 0.0
O232 O 0.2621 0.65753 0.55084 0.0
O233 O 0.2455 0.60564 0.54629 0.0
C234 C 0.4072 0.55089 0.75528 0.0
O235 O 0.42306 0.55474 0.74995 0.0
O236 O 0.42639 0.51593 0.73222 0.0
Zn237 Zn 0.4156 0.51558 0.75719 0.0
O238 O 0.43395 0.51924 0.7811 0.0
C239 C 0.40005 0.47733 0.74762 0.0
O240 O 0.41357 0.47708 0.73791 0.0
O241 O 0.40141 0.53512 0.7592 0.0
C242 C 0.43185 0.50819 0.79347 0.0
O243 O 0.4187 0.49423 0.78989 0.0
C244 C 0.44285 0.5201 0.73101 0.0
O245 O 0.45404 0.52441 0.74684 0.0
O246 O 0.39825 0.49211 0.7564 0.0
C247 C 0.68656 1.00023 0.7365 0.0
O248 O 0.67255 0.99764 0.72361 0.0
O249 O 0.66031 0.03025 0.72685 0.0
Zn250 Zn 0.67593 0.03163 0.7504 0.0
O251 O 0.66243 0.02797 0.7719 0.0
C252 C 0.69356 0.06442 0.74139 0.0
O253 O 0.68776 0.05735 0.72358 0.0
O254 O 0.69043 0.01419 0.74855 0.0
C255 C 0.65874 0.04155 0.78118 0.0
O256 O 0.6641 0.05767 0.77631 0.0
C257 C 0.64458 0.03241 0.72679 0.0
O258 O 0.63764 0.03402 0.74291 0.0
O259 O 0.69088 0.05517 0.75507 0.0
C260 C 0.79865 0.65197 0.009 0.0
O261 O 0.80199 0.66912 0.00682 0.0
O262 O 0.76548 0.67497 0.03405 0.0
Zn263 Zn 0.76368 0.65917 0.00842 0.0
O264 O 0.76716 0.67295 0.9853 0.0
C265 C 0.72724 0.646 0.0139 0.0
O266 O 0.73078 0.66035 0.02666 0.0
O267 O 0.78282 0.64432 0.01027 0.0
C268 C 0.76342 0.68816 0.98294 0.0
O269 O 0.75654 0.69659 0.99649 0.0
C270 C 0.77554 0.69002 0.04052 0.0
O271 O 0.78697 0.69768 0.02985 0.0
O272 O 0.73922 0.64256 0.00389 0.0
C273 C 0.86322 0.54698 0.79958 0.0
O274 O 0.88025 0.54881 0.80497 0.0
O275 O 0.8849 0.5214 0.76813 0.0
Zn276 Zn 0.8688 0.5147 0.78761 0.0
O277 O 0.88186 0.51469 0.81334 0.0
C278 C 0.86055 0.47962 0.77097 0.0
O279 O 0.87671 0.48402 0.76664 0.0
O280 O 0.85453 0.53225 0.7907 0.0
C281 C 0.88765 0.50143 0.81893 0.0
O282 O 0.88566 0.48651 0.80732 0.0
C283 C 0.90076 0.51941 0.77086 0.0
O284 O 0.90661 0.51395 0.78691 0.0
O285 O 0.85354 0.49133 0.7794 0.0
C286 C 0.75696 0.44154 0.49085 0.0
O287 O 0.75709 0.42608 0.48091 0.0
O288 O 0.7878 0.42224 0.52477 0.0
Zn289 Zn 0.79054 0.43833 0.50445 0.0
O290 O 0.79182 0.42461 0.47962 0.0
C291 C 0.82483 0.44974 0.51839 0.0
O292 O 0.82154 0.43357 0.52365 0.0
O293 O 0.77056 0.44976 0.50195 0.0
C294 C 0.79893 0.411 0.47893 0.0
O295 O 0.8062 0.4063 0.49478 0.0
C296 C 0.77847 0.4065 0.5228 0.0
O297 O 0.76842 0.4 0.50652 0.0
O298 O 0.81241 0.4562 0.51069 0.0
C299 C 0.65017 0.50248 0.2767 0.0
O300 O 0.63471 0.49917 0.26608 0.0
O301 O 0.62488 0.53132 0.25847 0.0
Zn302 Zn 0.63965 0.53597 0.28492 0.0
O303 O 0.62446 0.53135 0.30621 0.0
C304 C 0.65357 0.57212 0.27651 0.0
O305 O 0.64355 0.56604 0.26014 0.0
O306 O 0.65579 0.51795 0.28617 0.0
C307 C 0.61641 0.54249 0.31425 0.0
O308 O 0.61727 0.55837 0.30831 0.0
C309 C 0.61053 0.53673 0.25467 0.0
O310 O 0.60426 0.54545 0.2685 0.0
O311 O 0.65415 0.56173 0.28952 0.0
Tb312 Tb 0.04404 0.03161 0.03122 0.0
C313 C 0.98941 0.96916 0.98345 0.0
N314 N 0.99824 0.98537 0.97965 0.0
C315 C 0.00388 0.97165 0.94936 0.0
C316 C 0.98818 0.95343 0.97063 0.0
C317 C 0.00481 0.98687 0.9625 0.0
C318 C 0.99571 0.95482 0.95353 0.0
C319 C 0.972 0.95181 0.00439 0.0
C320 C 0.98133 0.96841 0.00012 0.0
C321 C 0.97122 0.93606 0.99195 0.0
C322 C 0.9792 0.93688 0.97507 0.0
Tb323 Tb 0.99761 0.0094 0.00155 0.0
N324 N 0.98198 0.98398 0.01167 0.0
C325 C 0.96323 0.95157 0.02073 0.0
C326 C 0.97205 0.98386 0.02668 0.0
C327 C 0.96305 0.96771 0.03176 0.0
H328 H 0.01012 0.99979 0.95837 0.0
H329 H 0.95561 0.96777 0.04391 0.0
H330 H 0.04 0.03984 0.0779 0.0
H331 H 0.08446 0.06976 0.98602 0.0
H332 H 0.97046 0.9962 0.03455 0.0
H333 H 0.95599 0.93909 0.02453 0.0
H334 H 0.06651 0.04272 0.99531 0.0
H335 H 0.00918 0.97297 0.93585 0.0
H336 H 0.96411 0.92322 0.99502 0.0
H337 H 0.97816 0.92466 0.9654 0.0
H338 H 0.04824 0.06559 0.10336 0.0
H339 H 0.9949 0.94307 0.94324 0.0
H340 H 0.09159 0.09806 0.00824 0.0
N341 N 0.05059 0.05456 0.05616 0.0
C342 C 0.06035 0.07023 0.05233 0.0
C343 C 0.05156 0.06716 0.08901 0.0
C344 C 0.06564 0.08522 0.06655 0.0
C345 C 0.04676 0.05265 0.07447 0.0
C346 C 0.06087 0.0836 0.08499 0.0
N347 N 0.06167 0.05576 0.02166 0.0
C348 C 0.06874 0.05508 0.00473 0.0
C349 C 0.07693 0.08657 0.03009 0.0
C350 C 0.06605 0.07087 0.03445 0.0
C351 C 0.08323 0.08628 0.0122 0.0
C352 C 0.07925 0.07038 -0.00041 0.0
H353 H 0.06474 0.09477 0.09633 0.0
H354 H 0.08014 0.11278 0.07283 0.0
H355 H 0.08992 0.11399 0.04079 0.0
O356 O 0.06863 0.02494 0.02778 0.0
O357 O 0.0333 0.04987 0.01305 0.0
O358 O 1.00286 0.03947 0.00978 0.0
O359 O 0.05795 0.02417 0.05531 0.0
O360 O 0.04249 0.01649 0.00258 0.0
O361 O 0.01797 0.02278 0.98597 0.0
O362 O 0.97057 0.00919 0.00012 0.0
O363 O 0.0163 0.99142 0.00769 0.0
O364 O 0.02972 0.00517 0.03708 0.0
O365 O 0.98385 0.01229 0.97512 0.0
O366 O 0.99798 0.01403 0.03283 0.0
O367 O 0.02145 0.03711 0.04517 0.0
C368 C 0.01698 0.05248 0.00944 0.0
C369 C 0.08677 0.01684 0.05426 0.0
C370 C 0.11492 0.00884 0.05037 0.0
C371 C 0.11768 0.00728 0.07008 0.0
C372 C 0.08941 0.01514 0.07395 0.0
C373 C 0.10488 0.01037 0.08181 0.0
C374 C 0.09952 0.01363 0.04258 0.0
C375 C 0.03419 0.02015 0.9867 0.0
C376 C 0.07101 0.02229 0.04575 0.0
C377 C 0.07602 0.1011 0.06212 0.0
C378 C 0.08161 0.10179 0.04389 0.0
C379 C 0.0246 0.99053 0.02472 0.0
C380 C 0.95968 0.02653 0.97768 0.0
C381 C 0.93934 0.04562 0.98613 0.0
C382 C 0.94026 0.05257 0.96847 0.0
C383 C 0.96037 0.03334 0.95992 0.0
C384 C 0.94909 0.03272 0.99066 0.0
C385 C 0.95074 0.04639 0.95541 0.0
C386 C 0.00669 0.02612 0.04685 0.0
C387 C 0.96914 0.0123 0.98231 0.0
H388 H 0.12954 0.00338 0.07629 0.0
H389 H 0.07963 0.01759 0.08323 0.0
H390 H 0.10694 0.00905 0.09698 0.0
H391 H 0.09758 0.01497 0.02736 0.0
H392 H 0.93253 0.06239 0.9646 0.0
H393 H 0.96822 0.02848 0.9495 0.0
H394 H 0.94822 0.02742 0.00432 0.0
H395 H 0.95122 0.05154 0.94168 0.0
Tb396 Tb 0.26513 0.77027 0.29392 0.0
C397 C 0.30663 0.74449 0.21926 0.0
N398 N 0.31191 0.75632 0.23549 0.0
C399 C 0.33948 0.74641 0.23955 0.0
C400 C 0.31742 0.73279 0.21282 0.0
C401 C 0.32829 0.7577 0.24539 0.0
C402 C 0.33399 0.73381 0.22327 0.0
C403 C 0.28393 0.73144 0.19271 0.0
C404 C 0.29011 0.74384 0.20934 0.0
C405 C 0.29462 0.71974 0.18624 0.0
C406 C 0.31132 0.72041 0.19628 0.0
Tb407 Tb 0.29252 0.77411 0.24372 0.0
N408 N 0.27985 0.75489 0.21651 0.0
C409 C 0.26712 0.73105 0.18318 0.0
C410 C 0.26361 0.75482 0.20687 0.0
C411 C 0.25696 0.74284 0.19026 0.0
H412 H 0.33306 0.76777 0.25753 0.0
H413 H 0.24401 0.74279 0.18287 0.0
H414 H 0.22495 0.77741 0.28379 0.0
H415 H 0.31794 0.80194 0.35086 0.0
H416 H 0.25567 0.76404 0.21156 0.0
H417 H 0.2619 0.72174 0.17035 0.0
H418 H 0.30267 0.77831 0.3257 0.0
H419 H 0.35241 0.74754 0.24753 0.0
H420 H 0.29005 0.71007 0.17356 0.0
H421 H 0.3194 0.71126 0.19116 0.0
H422 H 0.2073 0.79947 0.29404 0.0
H423 H 0.34268 0.72506 0.2188 0.0
H424 H 0.30352 0.8268 0.36146 0.0
N425 N 0.24759 0.78944 0.30357 0.0
C426 C 0.25467 0.80256 0.3182 0.0
C427 C 0.22066 0.80058 0.30089 0.0
C428 C 0.24519 0.81561 0.32445 0.0
C429 C 0.23075 0.78816 0.295 0.0
C430 C 0.22795 0.81446 0.3156 0.0
N431 N 0.28021 0.79017 0.31984 0.0
C432 C 0.29636 0.78932 0.32909 0.0
C433 C 0.27977 0.81673 0.34147 0.0
C434 C 0.27167 0.8031 0.32647 0.0
C435 C 0.29681 0.81655 0.34994 0.0
C436 C 0.30501 0.80261 0.34392 0.0
H437 H 0.22018 0.82417 0.32003 0.0
H438 H 0.24624 0.83962 0.3441 0.0
H439 H 0.27659 0.84062 0.35903 0.0
O440 O 0.26615 0.75063 0.31252 0.0
O441 O 0.27032 0.79691 0.28564 0.0
O442 O 0.29293 0.79035 0.27114 0.0
O443 O 0.24144 0.75268 0.29692 0.0
O444 O 0.29168 0.76259 0.29577 0.0
O445 O 0.30856 0.77518 0.27241 0.0
O446 O 0.29057 0.79362 0.22491 0.0
O447 O 0.28238 0.74586 0.24585 0.0
O448 O 0.27378 0.76098 0.26858 0.0
O449 O 0.31585 0.78995 0.23763 0.0
O450 O 0.26503 0.78013 0.24204 0.0
O451 O 0.24829 0.76754 0.26567 0.0
C452 C 0.28249 0.80146 0.27469 0.0
C453 C 0.24154 0.74624 0.32911 0.0
C454 C 0.24223 0.73816 0.36163 0.0
C455 C 0.22996 0.74903 0.36542 0.0
C456 C 0.2292 0.75699 0.33306 0.0
C457 C 0.22349 0.75837 0.35116 0.0
C458 C 0.24796 0.73683 0.34344 0.0
C459 C 0.30691 0.76726 0.28847 0.0
C460 C 0.24904 0.74575 0.31082 0.0
C461 C 0.25325 0.82938 0.33917 0.0
C462 C 0.27054 0.82997 0.34763 0.0
C463 C 0.27383 0.74527 0.26033 0.0
C464 C 0.31445 0.79823 0.20634 0.0
C465 C 0.31253 0.80764 0.17435 0.0
C466 C 0.32865 0.80239 0.17177 0.0
C467 C 0.33044 0.79287 0.20344 0.0
C468 C 0.30548 0.80536 0.19167 0.0
C469 C 0.33742 0.7949 0.18618 0.0
C470 C 0.24977 0.77492 0.24926 0.0
C471 C 0.30765 0.79771 0.22499 0.0
H472 H 0.22543 0.75033 0.37942 0.0
H473 H 0.22407 0.76446 0.32231 0.0
H474 H 0.21408 0.76676 0.35418 0.0
H475 H 0.25739 0.72843 0.34039 0.0
H476 H 0.33474 0.80443 0.15882 0.0
H477 H 0.33773 0.78739 0.21456 0.0
H478 H 0.29307 0.8093 0.19389 0.0
H479 H 0.34985 0.79099 0.18411 0.0
Tb480 Tb 0.50409 0.02303 0.52546 0.0
C481 C 0.56808 0.06473 0.49067 0.0
N482 N 0.55682 0.04896 0.4837 0.0
C483 C 0.55548 0.05788 0.45198 0.0
C484 C 0.57284 0.07806 0.47863 0.0
C485 C 0.55118 0.04508 0.46448 0.0
C486 C 0.56618 0.07455 0.45912 0.0
C487 C 0.5867 0.08363 0.51772 0.0
C488 C 0.5751 0.0674 0.50995 0.0
C489 C 0.59119 0.09709 0.50585 0.0
C490 C 0.58433 0.09429 0.48636 0.0
Tb491 Tb 0.55173 0.02899 0.50547 0.0
N492 N 0.57036 0.05413 0.52109 0.0
C493 C 0.59352 0.08576 0.53716 0.0
C494 C 0.57743 0.05591 0.53984 0.0
C495 C 0.58896 0.07177 0.54819 0.0
H496 H 0.54396 0.03192 0.45857 0.0
H497 H 0.59448 0.07304 0.56307 0.0
H498 H 0.51057 0.0245 0.57329 0.0
H499 H 0.45554 0.97867 0.4735 0.0
H500 H 0.5746 0.04503 0.54827 0.0
H501 H 0.60251 0.09801 0.54371 0.0
H502 H 0.47799 0.00623 0.4855 0.0
H503 H 0.55081 0.05474 0.43678 0.0
H504 H 0.6001 0.10965 0.51157 0.0
H505 H 0.5881 0.10471 0.47733 0.0
H506 H 0.50455 0.00355 0.59724 0.0
H507 H 0.56959 0.0844 0.44937 0.0
H508 H 0.44887 0.95484 0.4946 0.0
N509 N 0.49917 0.00511 0.5493 0.0
C510 C 0.4883 0.98884 0.54358 0.0
C511 C 0.50025 0.99907 0.58214 0.0
C512 C 0.48353 0.97675 0.55692 0.0
C513 C 0.50417 0.01077 0.56844 0.0
C514 C 0.49015 0.98184 0.57632 0.0
N515 N 0.48476 0.99741 0.51238 0.0
C516 C 0.47542 0.99569 0.49453 0.0
C517 C 0.46765 0.96924 0.51856 0.0
C518 C 0.4805 0.98505 0.52462 0.0
C519 C 0.45887 0.96679 0.49979 0.0
C520 C 0.46261 0.98019 0.48782 0.0
H521 H 0.48677 0.97296 0.58702 0.0
H522 H 0.46781 0.95096 0.56071 0.0
H523 H 0.45387 0.94441 0.52712 0.0
O524 O 0.48675 0.03891 0.51454 0.0
O525 O 0.51 0.9994 0.50788 0.0
O526 O 0.5402 0.00253 0.51372 0.0
O527 O 0.4831 0.02723 0.5406 0.0
O528 O 0.50999 0.03487 0.49964 0.0
O529 O 0.5285 0.02002 0.48441 0.0
O530 O 0.57805 0.02463 0.50989 0.0
O531 O 0.54059 0.05357 0.51307 0.0
O532 O 0.52308 0.04802 0.53746 0.0
O533 O 0.56078 0.01472 0.4829 0.0
O534 O 0.54943 0.0184 0.53272 0.0
O535 O 0.52742 0.02958 0.54695 0.0
C536 C 0.52436 0.99244 0.50833 0.0
C537 C 0.47207 0.05347 0.53731 0.0
C538 C 0.44925 0.07125 0.53911 0.0
C539 C 0.45847 0.08079 0.5564 0.0
C540 C 0.48139 0.06338 0.55436 0.0
C541 C 0.47459 0.07702 0.56382 0.0
C542 C 0.45621 0.05772 0.52949 0.0
C543 C 0.51408 0.02655 0.4842 0.0
C544 C 0.47736 0.03733 0.5287 0.0
C545 C 0.47154 0.96045 0.55068 0.0
C546 C 0.46357 0.95673 0.53156 0.0
C547 C 0.53305 0.05926 0.52797 0.0
C548 C 0.59025 0.0082 0.48448 0.0
C549 C 0.61646 0.99472 0.4876 0.0
C550 C 0.61596 0.993 0.4675 0.0
C551 C 0.5901 0.00626 0.46446 0.0
C552 C 0.60345 1.00233 0.49611 0.0
C553 C 0.60289 0.99873 0.45606 0.0
C554 C 0.5422 0.0235 0.54779 0.0
C555 C 0.57618 0.01584 0.49275 0.0
H556 H 0.45324 0.09122 0.56406 0.0
H557 H 0.49361 0.06022 0.56062 0.0
H558 H 0.48165 0.08446 0.57712 0.0
H559 H 0.44888 0.04997 0.51643 0.0
H560 H 0.62558 0.98695 0.46055 0.0
H561 H 0.58007 0.01061 0.45524 0.0
H562 H 0.6036 0.00364 0.51157 0.0
H563 H 0.60262 0.99724 0.4406 0.0
Tb564 Tb 0.30063 0.2708 0.77403 0.0
C565 C 0.23579 0.2925 0.72921 0.0
N566 N 0.24659 0.30111 0.74516 0.0
C567 C 0.24804 0.32925 0.73234 0.0
C568 C 0.23123 0.30191 0.71383 0.0
C569 C 0.25213 0.31937 0.74725 0.0
C570 C 0.23771 0.32046 0.71547 0.0
C571 C 0.21781 0.26483 0.71214 0.0
C572 C 0.22916 0.27416 0.72838 0.0
C573 C 0.21347 0.27409 0.69664 0.0
C574 C 0.22018 0.29257 0.69748 0.0
Tb575 Tb 0.25177 0.28344 0.76851 0.0
N576 N 0.23379 0.26552 0.74353 0.0
C577 C 0.21094 0.24652 0.71207 0.0
C578 C 0.22676 0.24776 0.74373 0.0
C579 C 0.21541 0.23795 0.72793 0.0
H580 H 0.25938 0.32654 0.76051 0.0
H581 H 0.20986 0.22386 0.72814 0.0
H582 H 0.29274 0.22697 0.78153 0.0
H583 H 0.34662 0.327 0.81367 0.0
H584 H 0.22933 0.2412 0.75621 0.0
H585 H 0.20184 0.23903 0.70004 0.0
H586 H 0.32658 0.31032 0.78542 0.0
H587 H 0.25267 0.34368 0.73399 0.0
H588 H 0.20482 0.26711 0.684 0.0
H589 H 0.21659 0.29956 0.68549 0.0
H590 H 0.29553 0.21007 0.80911 0.0
H591 H 0.23448 0.32818 0.70398 0.0
H592 H 0.34985 0.31312 0.8438 0.0
N593 N 0.30348 0.25262 0.79778 0.0
C594 C 0.31284 0.26117 0.81465 0.0
C595 C 0.30019 0.2245 0.81096 0.0
C596 C 0.31566 0.25179 0.83056 0.0
C597 C 0.29823 0.23429 0.79541 0.0
C598 C 0.30867 0.23333 0.82872 0.0
N599 N 0.31818 0.28761 0.79972 0.0
C600 C 0.32781 0.30432 0.7986 0.0
C601 C 0.33198 0.28813 0.83201 0.0
C602 C 0.32086 0.27912 0.81549 0.0
C603 C 0.34102 0.30577 0.83147 0.0
C604 C 0.33918 0.31373 0.81454 0.0
H605 H 0.31047 0.22565 0.84064 0.0
H606 H 0.32832 0.25394 0.85983 0.0
H607 H 0.34257 0.28578 0.8611 0.0
O608 O 0.31887 0.27909 0.75452 0.0
O609 O 0.29289 0.28881 0.79672 0.0
O610 O 0.26353 0.27717 0.7959 0.0
O611 O 0.32274 0.25887 0.77242 0.0
O612 O 0.29594 0.29398 0.75989 0.0
O613 O 0.27482 0.30589 0.77477 0.0
O614 O 0.22495 0.27776 0.77438 0.0
O615 O 0.26479 0.27804 0.74252 0.0
O616 O 0.28203 0.25716 0.74913 0.0
O617 O 0.24235 0.30383 0.78399 0.0
O618 O 0.2537 0.2582 0.78025 0.0
O619 O 0.27771 0.24792 0.76881 0.0
C620 C 0.27859 0.2859 0.80533 0.0
C621 C 0.33738 0.25883 0.74449 0.0
C622 C 0.36135 0.25847 0.72416 0.0
C623 C 0.35539 0.23979 0.71964 0.0
C624 C 0.33171 0.24022 0.73934 0.0
C625 C 0.34075 0.23081 0.72715 0.0
C626 C 0.35236 0.26797 0.73689 0.0
C627 C 0.2896 0.30778 0.76672 0.0
C628 C 0.32912 0.26826 0.75947 0.0
C629 C 0.32603 0.26093 0.84746 0.0
C630 C 0.33419 0.27906 0.84818 0.0
C631 C 0.27226 0.2645 0.737 0.0
C632 C 0.21225 0.30091 0.79182 0.0
C633 C 0.18611 0.29787 0.80907 0.0
C634 C 0.18586 0.31605 0.80769 0.0
C635 C 0.21159 0.31904 0.7908 0.0
C636 C 0.19926 0.29016 0.80083 0.0
C637 C 0.19843 0.32649 0.79856 0.0
C638 C 0.26248 0.2454 0.77607 0.0
C639 C 0.22668 0.29379 0.78346 0.0
H640 H 0.36222 0.23204 0.71035 0.0
H641 H 0.32052 0.23284 0.74514 0.0
H642 H 0.33648 0.2164 0.72361 0.0
H643 H 0.357 0.2823 0.74093 0.0
H644 H 0.17589 0.32222 0.81382 0.0
H645 H 0.22125 0.3275 0.78386 0.0
H646 H 0.19967 0.27618 0.80187 0.0
H647 H 0.19804 0.34048 0.79762 0.0
Tb648 Tb 0.03154 1.00069 0.51903 0.0
C649 C 0.00901 0.07014 0.56118 0.0
N650 N 1.00045 0.0602 0.54471 0.0
C651 C 0.97255 0.06245 0.55547 0.0
C652 C 0.99971 0.07621 0.57579 0.0
C653 C 0.98245 0.05688 0.54136 0.0
C654 C 0.98122 0.07195 0.5729 0.0
C655 C 0.03677 0.08553 0.57951 0.0
C656 C 0.02719 0.07462 0.56307 0.0
C657 C 0.02768 0.09125 0.59442 0.0
C658 C 0.00917 0.08654 0.5926 0.0
Tb659 Tb 0.01774 0.04993 0.52351 0.0
N660 N 0.03545 0.06839 0.54854 0.0
C661 C 0.05512 0.09054 0.58026 0.0
C662 C 0.05321 0.074 0.54884 0.0
C663 C 0.06335 0.08479 0.5648 0.0
H664 H 0.97576 0.05031 0.52762 0.0
H665 H 0.07746 0.08879 0.56505 0.0
H666 H 0.07428 0.00689 0.51286 0.0
H667 H 0.97237 0.96299 0.47551 0.0
H668 H 0.05957 0.07066 0.53668 0.0
H669 H 0.06298 0.09927 0.59235 0.0
H670 H 0.98922 0.98351 0.50313 0.0
H671 H 0.95826 0.05956 0.55282 0.0
H672 H 0.03482 0.09948 0.60729 0.0
H673 H 1.00228 0.09121 0.60409 0.0
H674 H 0.09181 0.99851 0.48752 0.0
H675 H 0.97354 0.07631 0.58378 0.0
H676 H 0.98806 0.95116 0.44994 0.0
N677 N 0.04955 0.99384 0.49704 0.0
C678 C 0.0412 0.983 0.48094 0.0
C679 C 0.07756 0.99417 0.48543 0.0
C680 C 0.05076 0.9774 0.46634 0.0
C681 C 0.06754 0.9992 0.49964 0.0
C682 C 0.06914 0.98328 0.46868 0.0
N683 N 0.01404 0.98417 0.49293 0.0
C684 C 0.99614 0.97895 0.49187 0.0
C685 C 0.0138 0.96609 0.46279 0.0
C686 C 0.02291 0.97762 0.47904 0.0
C687 C 0.99545 0.96064 0.46172 0.0
C688 C 0.98656 0.96719 0.47623 0.0
H689 H 0.07697 0.97932 0.45776 0.0
H690 H 0.04882 0.96164 0.43859 0.0
H691 H 0.0165 0.95153 0.43562 0.0
O692 O 0.02047 0.97891 0.53334 0.0
O693 O 0.02493 0.01246 0.49241 0.0
O694 O 0.00466 0.0288 0.50086 0.0
O695 O 0.04662 0.98138 0.52549 0.0
O696 O 0.00813 0.0038 0.53323 0.0
O697 O 0.99556 0.02682 0.52192 0.0
O698 O 0.02869 0.07171 0.50886 0.0
O699 O 0.02478 0.039 0.55068 0.0
O700 O 0.04374 0.01935 0.54457 0.0
O701 O 1.00071 0.06361 0.50867 0.0
O702 O 0.04124 0.04512 0.51017 0.0
O703 O 0.05353 0.02397 0.52515 0.0
C704 C 0.01265 0.02153 0.48772 0.0
C705 C 0.04046 0.96493 0.55173 0.0
C706 C 0.03954 0.94013 0.57166 0.0
C707 C 0.05419 0.95045 0.58381 0.0
C708 C 0.05491 0.97497 0.56438 0.0
C709 C 0.06172 0.96773 0.58025 0.0
C710 C 0.03267 0.94745 0.55554 0.0
C711 C 0.99454 0.01159 0.52969 0.0
C712 C 0.03451 0.97191 0.53377 0.0
C713 C 0.04169 0.9661 0.44996 0.0
C714 C 0.02328 0.96034 0.44827 0.0
C715 C 0.03674 0.02974 0.55637 0.0
C716 C 0.01086 0.09384 0.50343 0.0
C717 C 0.01242 0.12148 0.48786 0.0
C718 C 1.00156 0.1275 0.50072 0.0
C719 C 1.0003 0.1005 0.51631 0.0
C720 C 0.01707 0.10454 0.48923 0.0
C721 C 0.99565 0.11715 0.51487 0.0
C722 C 0.05508 0.03893 0.51697 0.0
C723 C 0.01325 0.07493 0.50302 0.0
H724 H 0.05986 0.94505 0.5961 0.0
H725 H 0.06117 0.9883 0.56177 0.0
H726 H 0.07304 0.97548 0.58973 0.0
H727 H 0.02163 0.93946 0.54578 0.0
H728 H 0.99762 0.14031 0.49978 0.0
H729 H 0.99517 0.09261 0.52716 0.0
H730 H 0.025 0.0995 0.47899 0.0
H731 H 0.98722 0.12195 0.52463 0.0
Tb732 Tb 0.27783 0.79718 0.76355 0.0
C733 C 0.23874 0.7329 0.80222 0.0
N734 N 0.25365 0.74529 0.80912 0.0
C735 C 0.24369 0.7481 0.84015 0.0
C736 C 0.22546 0.72793 0.81397 0.0
C737 C 0.25647 0.75257 0.82792 0.0
C738 C 0.22804 0.73582 0.83312 0.0
C739 C 0.22153 0.71236 0.77551 0.0
C740 C 0.23676 0.7253 0.7832 0.0
C741 C 0.20816 0.7075 0.78709 0.0
C742 C 0.21011 0.71527 0.80627 0.0
Tb743 Tb 0.27356 0.75128 0.78782 0.0
N744 N 0.24982 0.73063 0.77228 0.0
C745 C 0.22037 0.70447 0.75651 0.0
C746 C 0.2494 0.72185 0.75438 0.0
C747 C 0.23453 0.70901 0.74602 0.0
H748 H 0.26883 0.76129 0.83369 0.0
H749 H 0.23416 0.70232 0.73167 0.0
H750 H 0.28039 0.78444 0.71735 0.0
H751 H 0.32187 0.84376 0.81822 0.0
H752 H 0.26078 0.72402 0.74687 0.0
H753 H 0.20891 0.69443 0.75005 0.0
H754 H 0.295 0.82127 0.80552 0.0
H755 H 0.24601 0.75395 0.85504 0.0
H756 H 0.19633 0.69761 0.78142 0.0
H757 H 0.19974 0.7113 0.81507 0.0
H758 H 0.30163 0.79163 0.69428 0.0
H759 H 0.21817 0.73233 0.84264 0.0
H760 H 0.34424 0.85328 0.79682 0.0
N761 N 0.29638 0.80184 0.74075 0.0
C762 C 0.31137 0.81449 0.7465 0.0
C763 C 0.3046 0.79804 0.70897 0.0
C764 C 0.32373 0.81925 0.73367 0.0
C765 C 0.29271 0.79376 0.7222 0.0
C766 C 0.32019 0.81081 0.71472 0.0
N767 N 0.30264 0.8169 0.7777 0.0
C768 C 0.30494 0.82466 0.79629 0.0
C769 C 0.33002 0.83538 0.77207 0.0
C770 C 0.31452 0.82241 0.76552 0.0
C771 C 0.33267 0.84304 0.79129 0.0
C772 C 0.32007 0.83767 0.80343 0.0
H773 H 0.32935 0.81411 0.70441 0.0
H774 H 0.34887 0.83603 0.73052 0.0
H775 H 0.35435 0.85017 0.7641 0.0
O776 O 0.26683 0.82011 0.77138 0.0
O777 O 0.30287 0.78727 0.77046 0.0
O778 O 0.29893 0.77063 0.79591 0.0
O779 O 0.26943 0.81118 0.74162 0.0
O780 O 0.26772 0.79583 0.79111 0.0
O781 O 0.28178 0.7763 0.8067 0.0
O782 O 0.28562 0.7291 0.7803 0.0
O783 O 0.24833 0.76109 0.78098 0.0
O784 O 0.25222 0.77825 0.75589 0.0
O785 O 0.28199 0.73735 0.8099 0.0
O786 O 0.28368 0.75324 0.76025 0.0
O787 O 0.26845 0.77216 0.74538 0.0
C788 C 0.30931 0.77948 0.78483 0.0
C789 C 0.2568 0.83759 0.74625 0.0
C790 C 0.24 0.86139 0.75011 0.0
C791 C 0.24077 0.86387 0.73074 0.0
C792 C 0.2575 0.84047 0.72691 0.0
C793 C 0.24957 0.85354 0.71927 0.0
C794 C 0.24821 0.84834 0.75798 0.0
C795 C 0.27381 0.78997 0.80679 0.0
C796 C 0.26439 0.8228 0.7534 0.0
C797 C 0.33921 0.83219 0.74017 0.0
C798 C 0.34233 0.84025 0.7593 0.0
C799 C 0.24187 0.76904 0.76674 0.0
C800 C 0.29596 0.71173 0.80529 0.0
C801 C 0.3096 0.68562 0.8001 0.0
C802 C 0.31086 0.68433 0.8199 0.0
C803 C 0.29744 0.71013 0.82506 0.0
C804 C 0.30228 0.69948 0.79276 0.0
C805 C 0.30488 0.69655 0.83227 0.0
C806 C 0.27646 0.75862 0.74486 0.0
C807 C 0.28775 0.72619 0.79822 0.0
H808 H 0.23459 0.87392 0.7245 0.0
H809 H 0.26408 0.83248 0.71757 0.0
H810 H 0.25013 0.85559 0.70436 0.0
H811 H 0.24747 0.84627 0.77289 0.0
H812 H 0.31665 0.67388 0.82581 0.0
H813 H 0.2928 0.71938 0.83505 0.0
H814 H 0.30129 0.70052 0.77748 0.0
H815 H 0.30597 0.69548 0.84753 0.0
Tb816 Tb 0.53229 0.03786 -0.00013 0.0
C817 C 0.55606 0.99469 0.0741 0.0
N818 N 0.54492 0.98909 0.0575 0.0
C819 C 0.55646 0.96215 0.05331 0.0
C820 C 0.56826 0.98443 0.08064 0.0
C821 C 0.54477 0.97291 0.04722 0.0
C822 C 0.56834 0.96797 0.07 0.0
C823 C 0.56771 0.01796 0.10076 0.0
C824 C 0.55578 0.01124 0.08401 0.0
C825 C 0.57992 0.00779 0.10735 0.0
C826 C 0.58017 0.99106 0.09732 0.0
Tb827 Tb 0.52702 0.00811 0.04837 0.0
N828 N 0.54433 0.02109 0.07664 0.0
C829 C 0.56717 0.03477 0.11028 0.0
C830 C 0.54316 0.03709 0.08654 0.0
C831 C 0.5547 0.04426 0.10326 0.0
H832 H 0.53552 0.96807 0.03443 0.0
H833 H 0.55387 0.05709 0.1108 0.0
H834 H 0.52364 0.07748 0.01375 0.0
H835 H 0.50309 0.98716 0.93946 0.0
H836 H 0.53327 0.04443 0.08206 0.0
H837 H 0.57617 0.04045 0.12315 0.0
H838 H 0.52473 1.00056 0.96698 0.0
H839 H 0.5563 0.94938 0.0451 0.0
H840 H 0.58927 0.01279 0.12012 0.0
H841 H 0.58973 0.98342 0.1025 0.0
H842 H 0.50266 0.09618 0.00334 0.0
H843 H 0.57751 0.95967 0.07454 0.0
H844 H 0.4802 0.00336 0.92771 0.0
N845 N 0.51349 0.0561 0.99128 0.0
C846 C 0.50171 0.05007 0.9753 0.0
C847 C 0.50219 0.08319 0.99538 0.0
C848 C 0.48939 0.06025 0.96891 0.0
C849 C 0.51399 0.07248 0.0013 0.0
C850 C 0.48979 0.07703 0.97914 0.0
N851 N 0.51366 0.02386 0.97275 0.0
C852 C 0.51456 0.00769 0.96299 0.0
C853 C 0.48923 0.02624 0.94953 0.0
C854 C 0.50166 0.03329 0.96583 0.0
C855 C 0.48957 0.00929 0.94022 0.0
C856 C 0.5024 1.00008 0.94688 0.0
H857 H 0.48058 0.08531 0.97465 0.0
H858 H 0.46737 0.06087 0.94757 0.0
H859 H 0.46728 0.03109 0.93054 0.0
O860 O 0.55263 0.03815 0.98256 0.0
O861 O 0.50527 0.03114 0.00602 0.0
O862 O 0.51316 0.00888 0.02031 0.0
O863 O 0.54836 0.06275 0.99727 0.0
O864 O 0.54025 0.01088 0.99698 0.0
O865 O 0.52724 0.99288 0.01943 0.0
O866 O 0.50582 0.00882 0.06443 0.0
O867 O 0.55517 0.01788 0.0471 0.0
O868 O 0.54144 0.02899 0.02536 0.0
O869 O 0.51168 0.98365 0.05328 0.0
O870 O 0.52044 0.03582 0.05044 0.0
O871 O 0.53522 0.05356 0.02892 0.0
C872 C 0.5014 0.01846 0.01675 0.0
C873 C 0.55577 0.06308 0.96566 0.0
C874 C 0.56364 0.06175 0.93332 0.0
C875 C 0.5538 0.07484 0.92925 0.0
C876 C 0.54571 0.07606 0.96151 0.0
C877 C 0.54479 0.08191 0.94334 0.0
C878 C 0.56469 0.05602 0.95148 0.0
C879 C 0.53574 0.99512 0.00392 0.0
C880 C 0.55621 0.05562 0.98401 0.0
C881 C 0.47699 0.05328 0.95269 0.0
C882 C 0.47692 0.03631 0.94303 0.0
C883 C 0.55661 0.02759 0.03341 0.0
C884 C 0.50139 0.98524 0.08357 0.0
C885 C 0.49171 0.98883 0.11505 0.0
C886 C 0.49977 0.9748 0.12043 0.0
C887 C 0.50938 0.97111 0.08901 0.0
C888 C 0.49232 0.99383 0.09659 0.0
C889 C 0.50847 0.96589 0.10736 0.0
C890 C 0.52632 0.05159 0.04409 0.0
C891 C 0.50255 0.99148 0.06463 0.0
H892 H 0.553 0.07942 0.91519 0.0
H893 H 0.53846 0.08158 0.97215 0.0
H894 H 0.53703 0.09187 0.94016 0.0
H895 H 0.57244 0.04596 0.95455 0.0
H896 H 0.49915 0.97064 0.13464 0.0
H897 H 0.5164 0.96415 0.07919 0.0
H898 H 0.48603 0.00468 0.09252 0.0
H899 H 0.51458 0.95499 0.11148 0.0
Tb900 Tb 0.27011 0.25683 0.26248 0.0
C901 C 0.33193 0.31495 0.30309 0.0
N902 N 0.31758 0.30545 0.30963 0.0
C903 C 0.33542 0.30259 0.33859 0.0
C904 C 0.34881 0.31807 0.31386 0.0
C905 C 0.31901 0.29968 0.32731 0.0
C906 C 0.35042 0.31174 0.3318 0.0
C907 C 0.34439 0.33082 0.27799 0.0
C908 C 0.32965 0.32133 0.28538 0.0
C909 C 0.3613 0.33356 0.28846 0.0
C910 C 0.36348 0.32734 0.3064 0.0
Tb911 Tb 0.29122 0.30428 0.29172 0.0
N912 N 0.31297 0.31892 0.27587 0.0
C913 C 0.34164 0.33781 0.2606 0.0
C914 C 0.31018 0.32739 0.25997 0.0
C915 C 0.32443 0.33632 0.25171 0.0
H916 H 0.30747 0.29332 0.33299 0.0
H917 H 0.32208 0.34258 0.23883 0.0
H918 H 0.26203 0.26741 0.21772 0.0
H919 H 0.22898 0.21809 0.30685 0.0
H920 H 0.29709 0.3282 0.25401 0.0
H921 H 0.35262 0.34508 0.25439 0.0
H922 H 0.25639 0.23646 0.29921 0.0
H923 H 0.33645 0.29798 0.35262 0.0
H924 H 0.37274 0.34083 0.28298 0.0
H925 H 0.37656 0.32981 0.31443 0.0
H926 H 0.23669 0.26254 0.19267 0.0
H927 H 0.36313 0.314 0.34058 0.0
H928 H 0.20224 0.21112 0.28289 0.0
N929 N 0.24731 0.25512 0.2385 0.0
C930 C 0.23173 0.24465 0.24132 0.0
C931 C 0.235 0.25776 0.20643 0.0
C932 C 0.21705 0.2407 0.22691 0.0
C933 C 0.24926 0.2611 0.22103 0.0
C934 C 0.21879 0.24764 0.20942 0.0
N935 N 0.2451 0.24129 0.272 0.0
C936 C 0.24475 0.23411 0.28897 0.0
C937 C 0.21486 0.2262 0.26189 0.0
C938 C 0.23071 0.23722 0.25845 0.0
C939 C 0.21421 0.21947 0.27961 0.0
C940 C 0.22924 0.22345 0.29321 0.0
H941 H 0.20786 0.24481 0.19795 0.0
H942 H 0.1899 0.22641 0.21926 0.0
H943 H 0.1879 0.21396 0.25001 0.0
O944 O 0.27975 0.2331 0.26646 0.0
O945 O 0.25106 0.26932 0.27802 0.0
O946 O 0.26182 0.3001 0.28583 0.0
O947 O 0.2677 0.23785 0.23847 0.0
O948 O 0.28371 0.25691 0.29147 0.0
O949 O 0.27962 0.28315 0.30788 0.0
O950 O 0.29592 0.3323 0.29749 0.0
O951 O 0.30889 0.28474 0.2859 0.0
O952 O 0.29656 0.26989 0.25654 0.0
O953 O 0.28743 0.31572 0.31897 0.0
O954 O 0.2761 0.30502 0.26362 0.0
O955 O 0.2808 0.27919 0.2476 0.0
C956 C 0.2488 0.28569 0.28383 0.0
C957 C 0.27661 0.20965 0.23932 0.0
C958 C 0.28839 0.18272 0.24162 0.0
C959 C 0.27877 0.17515 0.22371 0.0
C960 C 0.2671 0.20213 0.22139 0.0
C961 C 0.26831 0.18495 0.21357 0.0
C962 C 0.28751 0.20014 0.24906 0.0
C963 C 0.28235 0.26668 0.30754 0.0
C964 C 0.27463 0.22702 0.24838 0.0
C965 C 0.20129 0.22961 0.2302 0.0
C966 C 0.20017 0.22244 0.24766 0.0
C967 C 0.31063 0.27611 0.26922 0.0
C968 C 0.27689 0.34255 0.31791 0.0
C969 C 0.25915 0.36362 0.30775 0.0
C970 C 0.24964 0.36117 0.32345 0.0
C971 C 0.2676 0.34043 0.33388 0.0
C972 C 0.27281 0.35451 0.30511 0.0
C973 C 0.25401 0.34972 0.3366 0.0
C974 C 0.27589 0.29462 0.24754 0.0
C975 C 0.29037 0.33194 0.31424 0.0
H976 H 0.27906 0.1616 0.21771 0.0
H977 H 0.25854 0.20938 0.21358 0.0
H978 H 0.26088 0.17909 0.19983 0.0
H979 H 0.29524 0.20634 0.26257 0.0
H980 H 0.23902 0.36826 0.32561 0.0
H981 H 0.27067 0.33141 0.34409 0.0
H982 H 0.27991 0.35652 0.29278 0.0
H983 H 0.24679 0.34795 0.34882 0.0
Tb984 Tb 0.53122 0.50087 0.01898 0.0
C985 C 0.50954 0.56756 0.0636 0.0
N986 N 0.50063 0.55613 0.04818 0.0
C987 C 0.47367 0.55441 0.06237 0.0
C988 C 0.50087 0.57264 0.07923 0.0
C989 C 0.48284 0.54974 0.04721 0.0
C990 C 0.48272 0.56586 0.07848 0.0
C991 C 0.53734 0.58556 0.07965 0.0
C992 C 0.52755 0.57384 0.06385 0.0
C993 C 0.52877 0.59065 0.09529 0.0
C994 C 0.51059 0.5842 0.09509 0.0
Tb995 Tb 0.51711 0.54973 0.02438 0.0
N996 N 0.53549 0.56821 0.04869 0.0
C997 C 0.5554 0.59189 0.07916 0.0
C998 C 0.55277 0.57533 0.04757 0.0
C999 C 0.56309 0.58694 0.06292 0.0
H1000 H 0.47556 0.54138 0.03459 0.0
H1001 H 0.57688 0.59232 0.06206 0.0
H1002 H 0.57408 0.50851 0.01352 0.0
H1003 H 0.47315 0.46224 0.97438 0.0
H1004 H 0.55852 0.57267 0.03467 0.0
H1005 H 0.5634 0.60093 0.091 0.0
H1006 H 0.48975 0.48064 0.0037 0.0
H1007 H 0.45959 0.54929 0.06154 0.0
H1008 H 0.53608 0.59961 0.10759 0.0
H1009 H 0.50417 0.58825 0.10725 0.0
H1010 H 0.59213 0.50199 0.98794 0.0
H1011 H 0.47556 0.56945 0.09019 0.0
H1012 H 0.48898 0.45434 0.94704 0.0
N1013 N 0.5497 0.49519 0.99708 0.0
C1014 C 0.54168 0.48501 0.98044 0.0
C1015 C 0.57794 0.49721 0.98562 0.0
C1016 C 0.55153 0.48065 0.9656 0.0
C1017 C 0.56763 0.50108 -0.0 0.0
C1018 C 0.56987 0.487 0.96833 0.0
N1019 N 0.5143 0.48438 0.99253 0.0
C1020 C 0.4966 0.47792 0.99162 0.0
C1021 C 0.51461 0.46853 0.96126 0.0
C1022 C 0.52342 0.47917 0.9782 0.0
C1023 C 0.49626 0.46264 0.95979 0.0
C1024 C 0.48725 0.46718 0.97514 0.0
H1025 H 0.57791 0.48399 0.95724 0.0
H1026 H 0.55013 0.46667 0.937 0.0
H1027 H 0.51785 0.45593 0.93327 0.0
O1028 O 0.52089 0.47944 0.03425 0.0
O1029 O 0.52548 0.51348 0.9927 0.0
O1030 O 0.50484 0.53033 -0.00033 0.0
O1031 O 0.54626 0.48134 0.02442 0.0
O1032 O 0.507 0.50323 0.03197 0.0
O1033 O 0.4958 0.52582 0.01836 0.0
O1034 O 0.5253 0.57182 0.00817 0.0
O1035 O 0.52358 0.53786 0.0512 0.0
O1036 O 0.54331 0.51954 0.04436 0.0
O1037 O 0.49929 0.56597 0.01745 0.0
O1038 O 0.5413 0.54696 0.01136 0.0
O1039 O 0.55248 0.52473 0.0259 0.0
C1040 C 0.51318 0.52229 0.98735 0.0
C1041 C 0.54174 0.46527 0.05126 0.0
C1042 C 0.54173 0.44074 0.07146 0.0
C1043 C 0.5575 0.45062 0.08206 0.0
C1044 C 0.55764 0.47457 0.06203 0.0
C1045 C 0.5653 0.46741 0.07745 0.0
C1046 C 0.53366 0.44831 0.05617 0.0
C1047 C 0.49402 0.5116 0.02769 0.0
C1048 C 0.53474 0.47219 0.03367 0.0
C1049 C 0.54278 0.47017 0.94858 0.0
C1050 C 0.52439 0.46407 0.94644 0.0
C1051 C 0.53558 0.52858 0.05666 0.0
C1052 C 0.50421 0.59196 0.00015 0.0
C1053 C 0.5075 0.61748 0.98098 0.0
C1054 C 0.49082 0.62023 0.98507 0.0
C1055 C 0.48757 0.59534 0.00378 0.0
C1056 C 0.51437 0.6033 0.98873 0.0
C1057 C 0.48102 0.60931 0.99636 0.0
C1058 C 0.5544 0.53897 0.01654 0.0
C1059 C 0.51001 0.57645 0.00858 0.0
H1060 H 0.56396 0.44519 0.09385 0.0
H1061 H 0.56447 0.48715 0.05813 0.0
H1062 H 0.5776 0.4747 0.08559 0.0
H1063 H 0.52167 0.44071 0.04764 0.0
H1064 H 0.48534 0.63101 0.97949 0.0
H1065 H 0.47943 0.58715 0.01247 0.0
H1066 H 0.5272 0.60099 0.98567 0.0
H1067 H 0.4682 0.61166 -0.00064 0.0
Tb1068 Tb 0.77745 0.29832 0.26331 0.0
C1069 C 0.73929 0.23147 0.30402 0.0
N1070 N 0.75435 0.24378 0.31045 0.0
C1071 C 0.74695 0.24391 0.34267 0.0
C1072 C 0.72693 0.22565 0.31652 0.0
C1073 C 0.75888 0.24895 0.32968 0.0
C1074 C 0.73068 0.23254 0.33598 0.0
C1075 C 0.72242 0.20964 0.27822 0.0
C1076 C 0.7371 0.2235 0.28523 0.0
C1077 C 0.7095 0.20451 0.29025 0.0
C1078 C 0.71175 0.21251 0.30938 0.0
Tb1079 Tb 0.77266 0.2515 0.28789 0.0
N1080 N 0.7498 0.22898 0.274 0.0
C1081 C 0.72144 0.20113 0.25949 0.0
C1082 C 0.74973 0.21964 0.25648 0.0
C1083 C 0.73534 0.20593 0.2487 0.0
H1084 H 0.77214 0.25608 0.33501 0.0
H1085 H 0.73516 0.19885 0.23458 0.0
H1086 H 0.77825 0.28419 0.21665 0.0
H1087 H 0.826 0.34048 0.3175 0.0
H1088 H 0.76099 0.22235 0.24877 0.0
H1089 H 0.71038 0.19041 0.25352 0.0
H1090 H 0.79779 0.31949 0.30566 0.0
H1091 H 0.75054 0.24835 0.35788 0.0
H1092 H 0.698 0.19403 0.28508 0.0
H1093 H 0.702 0.208 0.3187 0.0
H1094 H 0.79894 0.29016 0.19293 0.0
H1095 H 0.72158 0.22838 0.34609 0.0
H1096 H 0.84759 0.34919 0.29495 0.0
N1097 N 0.79547 0.30085 0.23983 0.0
C1098 C 0.81099 0.31291 0.24513 0.0
C1099 C 0.80257 0.2965 0.20761 0.0
C1100 C 0.82307 0.31696 0.23182 0.0
C1101 C 0.79098 0.29287 0.22127 0.0
C1102 C 0.81868 0.30856 0.21289 0.0
N1103 N 0.80339 0.31627 0.27688 0.0
C1104 C 0.80707 0.32318 0.29577 0.0
C1105 C 0.8313 0.33288 0.27028 0.0
C1106 C 0.81503 0.32095 0.26417 0.0
C1107 C 0.8352 0.34 0.28968 0.0
C1108 C 0.82306 0.33508 0.30247 0.0
H1109 H 0.82759 0.31136 0.20223 0.0
H1110 H 0.84854 0.33249 0.22775 0.0
H1111 H 0.85578 0.34629 0.26138 0.0
O1112 O 0.77254 0.32463 0.26987 0.0
O1113 O 0.80141 0.28681 0.2708 0.0
O1114 O 0.79635 0.27276 0.29766 0.0
O1115 O 0.76725 0.31059 0.24061 0.0
O1116 O 0.76724 0.29816 0.29067 0.0
O1117 O 0.776 0.2761 0.30804 0.0
O1118 O 0.7891 0.23324 0.2785 0.0
O1119 O 0.74693 0.25618 0.27401 0.0
O1120 O 0.74998 0.28547 0.26565 0.0
O1121 O 0.78156 0.23574 0.30736 0.0
O1122 O 0.7814 0.25634 0.26032 0.0
O1123 O 0.76596 0.27409 0.24448 0.0
C1124 C 0.80736 0.28026 0.28634 0.0
C1125 C 0.76107 0.34047 0.2443 0.0
C1126 C 0.74408 0.36431 0.2459 0.0
C1127 C 0.74853 0.36822 0.22772 0.0
C1128 C 0.76518 0.34455 0.22613 0.0
C1129 C 0.75905 0.35844 0.21798 0.0
C1130 C 0.75071 0.35056 0.25436 0.0
C1131 C 0.77032 0.29127 0.30668 0.0
C1132 C 0.76682 0.32499 0.25191 0.0
C1133 C 0.83913 0.32918 0.2378 0.0
C1134 C 0.84324 0.33708 0.25696 0.0
C1135 C 0.74028 0.26988 0.26832 0.0
C1136 C 0.80078 0.21524 0.3026 0.0
C1137 C 0.81312 0.18824 0.2982 0.0
C1138 C 0.81741 0.18944 0.3182 0.0
C1139 C 0.80575 0.21642 0.32254 0.0
C1140 C 0.8049 0.20131 0.29032 0.0
C1141 C 0.81399 0.2036 0.33023 0.0
C1142 C 0.77101 0.25886 0.24553 0.0
C1143 C 0.79005 0.22781 0.29547 0.0
H1144 H 0.74389 0.37892 0.22102 0.0
H1145 H 0.77312 0.33693 0.21819 0.0
H1146 H 0.76232 0.36155 0.20398 0.0
H1147 H 0.74723 0.34725 0.26826 0.0
H1148 H 0.82388 0.17962 0.32451 0.0
H1149 H 0.80296 0.22711 0.33231 0.0
H1150 H 0.80122 0.20027 0.27493 0.0
H1151 H 0.81762 0.20456 0.3456 0.0
Tb1152 Tb 0.02796 0.53851 0.4982 0.0
C1153 C 0.05698 0.49561 0.57291 0.0
N1154 N 0.04331 0.48977 0.55874 0.0
C1155 C 0.04786 0.45957 0.55878 0.0
C1156 C 0.06687 0.48364 0.58048 0.0
C1157 C 0.03856 0.47201 0.55167 0.0
C1158 C 0.06211 0.4654 0.57326 0.0
C1159 C 0.07622 0.52062 0.59322 0.0
C1160 C 0.06145 0.51377 0.57928 0.0
C1161 C 0.08596 0.50875 0.60112 0.0
C1162 C 0.08128 0.49029 0.59477 0.0
Tb1163 Tb 0.02852 0.51077 0.54843 0.0
N1164 N 0.05198 0.52481 0.57087 0.0
C1165 C 0.08111 0.53922 0.59831 0.0
C1166 C 0.05739 0.54304 0.57506 0.0
C1167 C 0.07177 0.55048 0.58901 0.0
H1168 H 0.02742 0.46733 0.54073 0.0
H1169 H 0.07584 0.56493 0.59232 0.0
H1170 H 0.02587 0.58145 0.50809 0.0
H1171 H 0.99291 0.48733 0.44088 0.0
H1172 H 0.05124 0.55209 0.56732 0.0
H1173 H 0.0924 0.54503 0.60892 0.0
H1174 H 0.01578 0.50001 0.46765 0.0
H1175 H 0.04401 0.44549 0.55313 0.0
H1176 H 0.09732 0.51376 0.61187 0.0
H1177 H 0.08905 0.48132 0.60078 0.0
H1178 H 0.00689 0.60195 0.49734 0.0
H1179 H 0.06936 0.45576 0.57868 0.0
H1180 H 0.97194 0.50553 0.42879 0.0
N1181 N 0.01172 0.55892 0.48875 0.0
C1182 C 0.99885 0.55305 0.47366 0.0
C1183 C 0.00435 0.58816 0.49068 0.0
C1184 C 0.98776 0.56434 0.46692 0.0
C1185 C 0.01492 0.57641 0.49692 0.0
C1186 C 0.99056 0.58205 0.47576 0.0
N1187 N 0.00791 0.5253 0.47185 0.0
C1188 C 0.00685 0.50825 0.46298 0.0
C1189 C 0.98362 0.52893 0.44923 0.0
C1190 C 0.99695 0.5357 0.4648 0.0
C1191 C 0.98206 0.51126 0.44072 0.0
C1192 C 0.99383 0.50095 0.44753 0.0
H1193 H 0.98237 0.59117 0.47098 0.0
H1194 H 0.96562 0.56608 0.44625 0.0
H1195 H 0.96188 0.53498 0.43087 0.0
O1196 O 0.04688 0.53516 0.4796 0.0
O1197 O 1.00119 0.52453 0.49983 0.0
O1198 O 0.01718 0.51986 0.52432 0.0
O1199 O 0.0445 0.56151 0.49159 0.0
O1200 O 0.03482 0.51098 0.49598 0.0
O1201 O 0.02599 0.49337 0.5207 0.0
O1202 O 0.0129 0.51236 0.57074 0.0
O1203 O 0.05402 0.5171 0.53824 0.0
O1204 O 0.04463 0.53973 0.52527 0.0
O1205 O 0.0075 0.48914 0.54917 0.0
O1206 O 0.02225 0.5382 0.55304 0.0
O1207 O 0.02467 0.55463 0.52591 0.0
C1208 C 1.00161 0.51698 0.51518 0.0
C1209 C 0.05184 0.55838 0.4601 0.0
C1210 C 0.06342 0.55703 0.42961 0.0
C1211 C 0.05428 0.57022 0.42398 0.0
C1212 C 0.04246 0.57144 0.45435 0.0
C1213 C 0.04369 0.57729 0.43631 0.0
C1214 C 0.06214 0.55111 0.44757 0.0
C1215 C 0.03131 0.49537 0.50345 0.0
C1216 C 0.05156 0.55239 0.47915 0.0
C1217 C 0.97436 0.55766 0.45152 0.0
C1218 C 0.97226 0.53996 0.44273 0.0
C1219 C 0.05663 0.53005 0.52743 0.0
C1220 C 1.00021 0.4846 0.58043 0.0
C1221 C 0.98955 0.48118 0.61142 0.0
C1222 C 0.98974 0.46271 0.6085 0.0
C1223 C 1.00029 0.46614 0.57768 0.0
C1224 C 0.99526 0.49202 0.59745 0.0
C1225 C 0.99531 0.45533 0.59183 0.0
C1226 C 0.02178 0.55296 0.54426 0.0
C1227 C 0.00353 0.49623 0.56529 0.0
H1228 H 0.05531 0.57495 0.41008 0.0
H1229 H 0.03435 0.57727 0.46376 0.0
H1230 H 0.03656 0.5874 0.43195 0.0
H1231 H 0.06947 0.54109 0.45193 0.0
H1232 H 0.98514 0.45383 0.61878 0.0
H1233 H 0.0038 0.45997 0.56451 0.0
H1234 H 0.99552 0.50633 0.59956 0.0
H1235 H 0.99522 0.44107 0.58959 0.0
Tb1236 Tb 0.79745 0.76887 0.27007 0.0
C1237 C 0.73175 0.79103 0.22634 0.0
N1238 N 0.74263 0.80086 0.2416 0.0
C1239 C 0.74341 0.82751 0.22604 0.0
C1240 C 0.72655 0.79901 0.21008 0.0
C1241 C 0.74827 0.81893 0.24178 0.0
C1242 C 0.73258 0.81749 0.21005 0.0
C1243 C 0.71478 0.76206 0.21153 0.0
C1244 C 0.72611 0.77279 0.22701 0.0
C1245 C 0.70968 0.76987 0.19516 0.0
C1246 C 0.71555 0.7883 0.19443 0.0
Tb1247 Tb 0.75011 0.78549 0.26638 0.0
N1248 N 0.73164 0.76568 0.24297 0.0
C1249 C 0.70865 0.74389 0.21316 0.0
C1250 C 0.72436 0.74844 0.24528 0.0
C1251 C 0.71319 0.73715 0.23027 0.0
H1252 H 0.75607 0.82681 0.25429 0.0
H1253 H 0.70778 0.72335 0.23208 0.0
H1254 H 0.78912 0.72524 0.27399 0.0
H1255 H 0.83799 0.82609 0.31579 0.0
H1256 H 0.72645 0.74351 0.25887 0.0
H1257 H 0.69991 0.73516 0.2016 0.0
H1258 H 0.81768 0.81081 0.28739 0.0
H1259 H 0.74793 0.84185 0.22631 0.0
H1260 H 0.70105 0.76181 0.18307 0.0
H1261 H 0.71144 0.79417 0.18177 0.0
H1262 H 0.79739 0.70536 0.29742 0.0
H1263 H 0.72885 0.82416 0.19785 0.0
H1264 H 0.84859 0.80831 0.34041 0.0
N1265 N 0.80448 0.74909 0.29027 0.0
C1266 C 0.81598 0.75631 0.3062 0.0
C1267 C 0.80268 0.71968 0.30009 0.0
C1268 C 0.82122 0.74546 0.31987 0.0
C1269 C 0.7979 0.73101 0.28693 0.0
C1270 C 0.81438 0.72694 0.31665 0.0
N1271 N 0.8161 0.78474 0.2959 0.0
C1272 C 0.82192 0.80293 0.29801 0.0
C1273 C 0.83393 0.78286 0.32548 0.0
C1274 C 0.82224 0.77473 0.30897 0.0
C1275 C 0.83959 0.80156 0.32794 0.0
C1276 C 0.83359 0.81162 0.3141 0.0
H1277 H 0.81804 0.71813 0.32683 0.0
H1278 H 0.83713 0.74536 0.34701 0.0
H1279 H 0.84825 0.77812 0.35192 0.0
O1280 O 0.81839 0.77905 0.25455 0.0
O1281 O 0.7877 0.7762 0.29774 0.0
O1282 O 0.77028 0.79657 0.29069 0.0
O1283 O 0.81143 0.75092 0.25713 0.0
O1284 O 0.79569 0.79409 0.25817 0.0
O1285 O 0.77397 0.80703 0.27116 0.0
O1286 O 0.72809 0.77819 0.28203 0.0
O1287 O 0.76191 0.78046 0.23957 0.0
O1288 O 0.77627 0.75806 0.24671 0.0
O1289 O 0.7361 0.80523 0.27466 0.0
O1290 O 0.75225 0.76117 0.28042 0.0
O1291 O 0.77276 0.74887 0.26499 0.0
C1292 C 0.77812 0.78798 0.30309 0.0
C1293 C 0.84121 0.76202 0.25262 0.0
C1294 C 0.86921 0.76305 0.23886 0.0
C1295 C 0.8757 0.75529 0.25466 0.0
C1296 C 0.84829 0.75456 0.26833 0.0
C1297 C 0.86539 0.75124 0.26931 0.0
C1298 C 0.85188 0.76655 0.23796 0.0
C1299 C 0.7888 0.80811 0.26319 0.0
C1300 C 0.82228 0.76334 0.25054 0.0
C1301 C 0.83296 0.75346 0.33631 0.0
C1302 C 0.83931 0.77212 0.3391 0.0
C1303 C 0.77016 0.76764 0.23425 0.0
C1304 C 0.71071 0.80082 0.2923 0.0
C1305 C 0.68439 0.79628 0.3092 0.0
C1306 C 0.68394 0.81456 0.30916 0.0
C1307 C 0.70981 0.81909 0.29262 0.0
C1308 C 0.69791 0.78934 0.30082 0.0
C1309 C 0.69657 0.82585 0.30098 0.0
C1310 C 0.76 0.74762 0.27598 0.0
C1311 C 0.72506 0.79443 0.28287 0.0
H1312 H 0.88888 0.7524 0.25569 0.0
H1313 H 0.84045 0.75084 0.27966 0.0
H1314 H 0.8706 0.74526 0.28137 0.0
H1315 H 0.84653 0.77211 0.22563 0.0
H1316 H 0.67375 0.82013 0.31558 0.0
H1317 H 0.71937 0.82828 0.28633 0.0
H1318 H 0.69834 0.77523 0.30079 0.0
H1319 H 0.69607 0.83993 0.30108 0.0
Tb1320 Tb 0.76479 0.27476 0.79563 0.0
C1321 C 0.80155 0.24272 0.72087 0.0
N1322 N 0.80869 0.25559 0.73569 0.0
C1323 C 0.83424 0.24232 0.74016 0.0
C1324 C 0.81016 0.22869 0.71545 0.0
C1325 C 0.82503 0.25585 0.74506 0.0
C1326 C 0.82667 0.22852 0.72544 0.0
C1327 C 0.778 0.23138 0.69495 0.0
C1328 C 0.78575 0.24404 0.71094 0.0
C1329 C 0.78603 0.21684 0.6899 0.0
C1330 C 0.80213 0.21551 0.70013 0.0
Tb1331 Tb 0.79202 0.27598 0.74442 0.0
N1332 N 0.77856 0.25834 0.71633 0.0
C1333 C 0.76277 0.23407 0.68418 0.0
C1334 C 0.76472 0.26192 0.70469 0.0
C1335 C 0.75635 0.24964 0.68882 0.0
H1336 H 0.83102 0.26649 0.75628 0.0
H1337 H 0.74507 0.25232 0.68005 0.0
H1338 H 0.72274 0.27811 0.78361 0.0
H1339 H 0.81442 0.3105 0.85333 0.0
H1340 H 0.76004 0.27426 0.70731 0.0
H1341 H 0.75634 0.22465 0.67182 0.0
H1342 H 0.80189 0.28678 0.82693 0.0
H1343 H 0.84715 0.24253 0.74775 0.0
H1344 H 0.78016 0.20684 0.67781 0.0
H1345 H 0.80841 0.20448 0.69585 0.0
H1346 H 0.70335 0.29873 0.79242 0.0
H1347 H 0.83379 0.21802 0.72169 0.0
H1348 H 0.79691 0.33273 0.86392 0.0
N1349 N 0.74483 0.29206 0.80356 0.0
C1350 C 0.75058 0.30539 0.81841 0.0
C1351 C 0.71667 0.30086 0.79973 0.0
C1352 C 0.7398 0.31741 0.82404 0.0
C1353 C 0.72787 0.28932 0.79461 0.0
C1354 C 0.72272 0.3151 0.81437 0.0
N1355 N 0.77751 0.29546 0.82163 0.0
C1356 C 0.79405 0.29633 0.83099 0.0
C1357 C 0.7741 0.32092 0.84312 0.0
C1358 C 0.76742 0.30705 0.82792 0.0
C1359 C 0.79127 0.32224 0.85221 0.0
C1360 C 0.80121 0.30977 0.84622 0.0
H1361 H 0.71402 0.32406 0.81824 0.0
H1362 H 0.73837 0.3408 0.84352 0.0
H1363 H 0.76847 0.34392 0.86017 0.0
O1364 O 0.76816 0.25711 0.81597 0.0
O1365 O 0.77716 0.30211 0.79279 0.0
O1366 O 0.78193 0.28587 0.76838 0.0
O1367 O 0.74221 0.2579 0.80242 0.0
O1368 O 0.79213 0.26878 0.79715 0.0
O1369 O 0.80883 0.27978 0.77276 0.0
O1370 O 0.79173 0.29721 0.72782 0.0
O1371 O 0.78681 0.25005 0.7546 0.0
O1372 O 0.76399 0.25658 0.76933 0.0
O1373 O 0.81614 0.29333 0.74246 0.0
O1374 O 0.76386 0.27926 0.74075 0.0
O1375 O 0.74815 0.27582 0.76796 0.0
C1376 C 0.78391 0.30177 0.77707 0.0
C1377 C 0.7446 0.25017 0.83407 0.0
C1378 C 0.74623 0.2383 0.86458 0.0
C1379 C 0.73181 0.24569 0.86931 0.0
C1380 C 0.73017 0.25769 0.83881 0.0
C1381 C 0.72381 0.25539 0.85642 0.0
C1382 C 0.75255 0.24049 0.84702 0.0
C1383 C 0.8073 0.27338 0.78966 0.0
C1384 C 0.75123 0.25132 0.81548 0.0
C1385 C 0.7464 0.33134 0.83911 0.0
C1386 C 0.76353 0.3331 0.84861 0.0
C1387 C 0.77503 0.24594 0.76624 0.0
C1388 C 0.81646 0.30286 0.71154 0.0
C1389 C 0.81506 0.31274 0.67991 0.0
C1390 C 0.82798 0.30307 0.67517 0.0
C1391 C 0.82942 0.29314 0.70675 0.0
C1392 C 0.80952 0.31284 0.69811 0.0
C1393 C 0.83521 0.29338 0.68864 0.0
C1394 C 0.74934 0.27849 0.74962 0.0
C1395 C 0.80886 0.30172 0.72968 0.0
H1396 H 0.72671 0.24384 0.88287 0.0
H1397 H 0.72374 0.26515 0.82894 0.0
H1398 H 0.71261 0.26103 0.86002 0.0
H1399 H 0.76355 0.23447 0.84337 0.0
H1400 H 0.83236 0.30296 0.66107 0.0
H1401 H 0.83486 0.28516 0.71679 0.0
H1402 H 0.79942 0.32027 0.70161 0.0
H1403 H 0.84512 0.28584 0.68495 0.0
Tb1404 Tb 0.76765 0.75544 0.76068 0.0
C1405 C 0.83012 0.81406 0.8073 0.0
N1406 N 0.81498 0.80339 0.81087 0.0
C1407 C 0.82983 0.79783 0.84066 0.0
C1408 C 0.84586 0.81664 0.82016 0.0
C1409 C 0.81452 0.79596 0.82771 0.0
C1410 C 0.84563 0.80806 0.83678 0.0
C1411 C 0.84486 0.83521 0.78779 0.0
C1412 C 0.8296 0.82324 0.79128 0.0
C1413 C 0.86052 0.83769 0.80048 0.0
C1414 C 0.86107 0.82833 0.81652 0.0
Tb1415 Tb 0.79035 0.80287 0.78979 0.0
N1416 N 0.81389 0.82149 0.78 0.0
C1417 C 0.84377 0.84502 0.77215 0.0
C1418 C 0.81254 0.83235 0.76576 0.0
C1419 C 0.82748 0.8437 0.7612 0.0
H1420 H 0.80228 0.78936 0.83179 0.0
H1421 H 0.8263 0.85186 0.74961 0.0
H1422 H 0.75673 0.75864 0.71403 0.0
H1423 H 0.73142 0.717 0.80942 0.0
H1424 H 0.79984 0.83273 0.75812 0.0
H1425 H 0.85524 0.8542 0.76892 0.0
H1426 H 0.75791 0.73313 0.79765 0.0
H1427 H 0.82929 0.7918 0.85391 0.0
H1428 H 0.87216 0.84722 0.79829 0.0
H1429 H 0.87321 0.83061 0.82633 0.0
H1430 H 0.72976 0.75202 0.69078 0.0
H1431 H 0.8574 0.80981 0.84704 0.0
H1432 H 0.70235 0.71218 0.78954 0.0
N1433 N 0.74343 0.75035 0.73761 0.0
C1434 C 0.72804 0.74173 0.74292 0.0
C1435 C 0.729 0.7493 0.70548 0.0
C1436 C 0.71233 0.73727 0.72991 0.0
C1437 C 0.74423 0.75327 0.71882 0.0
C1438 C 0.7129 0.74152 0.71112 0.0
N1439 N 0.74399 0.7394 0.77254 0.0
C1440 C 0.7453 0.73203 0.7894 0.0
C1441 C 0.71285 0.72621 0.76671 0.0
C1442 C 0.72832 0.73605 0.76097 0.0
C1443 C 0.71393 0.71978 0.78461 0.0
C1444 C 0.73029 0.7225 0.79589 0.0
H1445 H 0.70115 0.73823 0.70068 0.0
H1446 H 0.68454 0.72458 0.72602 0.0
H1447 H 0.68497 0.71506 0.75834 0.0
O1448 O 0.77077 0.7289 0.76204 0.0
O1449 O 0.75088 0.76753 0.7794 0.0
O1450 O 0.76113 0.79804 0.77983 0.0
O1451 O 0.77216 0.74066 0.73569 0.0
O1452 O 0.78325 0.7562 0.78884 0.0
O1453 O 0.77775 0.78162 0.80515 0.0
O1454 O 0.78872 0.82997 0.79247 0.0
O1455 O 0.80842 0.78407 0.78463 0.0
O1456 O 0.79494 0.76812 0.75575 0.0
O1457 O 0.78675 0.81521 0.81677 0.0
O1458 O 0.78782 0.80175 0.75835 0.0
O1459 O 0.76447 0.77865 0.74564 0.0
C1460 C 0.74837 0.78418 0.78172 0.0
C1461 C 0.78949 0.71913 0.74088 0.0
C1462 C 0.80776 0.69795 0.74893 0.0
C1463 C 0.81828 0.70301 0.7346 0.0
C1464 C 0.79989 0.7241 0.72634 0.0
C1465 C 0.81426 0.71604 0.72328 0.0
C1466 C 0.79346 0.70598 0.75198 0.0
C1467 C 0.78094 0.76534 0.80492 0.0
C1468 C 0.77403 0.72682 0.74431 0.0
C1469 C 0.69674 0.72802 0.73578 0.0
C1470 C 0.69699 0.72256 0.75418 0.0
C1471 C 0.80927 0.77457 0.76817 0.0
C1472 C 0.77233 0.83994 0.81614 0.0
C1473 C 0.75648 0.8641 0.8118 0.0
C1474 C 0.74858 0.86082 0.82845 0.0
C1475 C 0.76434 0.83671 0.83278 0.0
C1476 C 0.7684 0.85373 0.80585 0.0
C1477 C 0.75257 0.84721 0.83891 0.0
C1478 C 0.776 0.79326 0.74406 0.0
C1479 C 0.78613 0.83049 0.81039 0.0
H1480 H 0.82926 0.69662 0.73193 0.0
H1481 H 0.79691 0.73407 0.7173 0.0
H1482 H 0.82219 0.71979 0.71202 0.0
H1483 H 0.78535 0.70187 0.76303 0.0
H1484 H 0.73933 0.86874 0.83333 0.0
H1485 H 0.76746 0.82639 0.84126 0.0
H1486 H 0.77501 0.85681 0.79341 0.0
H1487 H 0.74672 0.84501 0.85193 0.0
Tb1488 Tb 0.54794 0.53424 0.53242 0.0
C1489 C 0.4898 0.473 0.48363 0.0
N1490 N 0.49886 0.48901 0.47968 0.0
C1491 C 0.50046 0.47591 0.44768 0.0
C1492 C 0.48597 0.45769 0.46978 0.0
C1493 C 0.504 0.49069 0.46187 0.0
C1494 C 0.49152 0.45929 0.45166 0.0
C1495 C 0.4744 0.4558 0.50611 0.0
C1496 C 0.48405 0.47209 0.50154 0.0
C1497 C 0.47074 0.44045 0.49245 0.0
C1498 C 0.47648 0.44141 0.47432 0.0
Tb1499 Tb 0.50182 0.51257 0.50333 0.0
N1500 N 0.48778 0.48724 0.51441 0.0
C1501 C 0.46836 0.45553 0.5241 0.0
C1502 C 0.4811 0.48721 0.53154 0.0
C1503 C 0.47154 0.47138 0.53673 0.0
H1504 H 0.50984 0.50363 0.45815 0.0
H1505 H 0.46622 0.47158 0.55025 0.0
H1506 H 0.54116 0.54623 0.57726 0.0
H1507 H 0.57702 0.57265 0.47895 0.0
H1508 H 0.48241 0.49938 0.541 0.0
H1509 H 0.46081 0.44333 0.52815 0.0
H1510 H 0.56491 0.54527 0.49223 0.0
H1511 H 0.50425 0.47749 0.43355 0.0
H1512 H 0.46329 0.42784 0.49569 0.0
H1513 H 0.47336 0.42951 0.46385 0.0
H1514 H 0.54651 0.574 0.59978 0.0
H1515 H 0.48867 0.4479 0.44055 0.0
H1516 H 0.58156 0.60211 0.49879 0.0
N1517 N 0.55053 0.55922 0.554 0.0
C1518 C 0.55833 0.57494 0.54818 0.0
C1519 C 0.54968 0.5745 0.58523 0.0
C1520 C 0.56195 0.59115 0.5607 0.0
C1521 C 0.5463 0.55878 0.57229 0.0
C1522 C 0.55753 0.59076 0.57942 0.0
N1523 N 0.55919 0.55875 0.51794 0.0
C1524 C 0.56504 0.55789 0.50033 0.0
C1525 C 0.57071 0.5908 0.523 0.0
C1526 C 0.56265 0.57473 0.52953 0.0
C1527 C 0.57534 0.59007 0.50435 0.0
C1528 C 0.57267 0.5735 0.49305 0.0
H1529 H 0.56026 0.6029 0.58953 0.0
H1530 H 0.57294 0.61971 0.56367 0.0
H1531 H 0.58056 0.61943 0.53066 0.0
O1532 O 0.57373 0.5318 0.52835 0.0
O1533 O 0.52908 0.55238 0.52683 0.0
O1534 O 0.51416 0.53982 0.49758 0.0
O1535 O 0.56637 0.53587 0.5568 0.0
O1536 O 0.54769 0.51852 0.50415 0.0
O1537 O 0.52284 0.52419 0.48801 0.0
O1538 O 0.47808 0.52108 0.50758 0.0
O1539 O 0.51794 0.49262 0.51154 0.0
O1540 O 0.53809 0.50619 0.53794 0.0
O1541 O 0.48361 0.51158 0.47895 0.0
O1542 O 0.50211 0.52566 0.53285 0.0
O1543 O 0.52824 0.52258 0.54976 0.0
C1544 C 0.52037 0.55407 0.51028 0.0
C1545 C 0.58742 0.51792 0.55207 0.0
C1546 C 0.61012 0.50107 0.54656 0.0
C1547 C 0.60587 0.49131 0.56183 0.0
C1548 C 0.58289 0.50797 0.56724 0.0
C1549 C 0.59215 0.49469 0.57206 0.0
C1550 C 0.60097 0.51429 0.54176 0.0
C1551 C 0.53789 0.51906 0.48792 0.0
C1552 C 0.57853 0.53225 0.54666 0.0
C1553 C 0.56997 0.60715 0.55422 0.0
C1554 C 0.57428 0.60699 0.53541 0.0
C1555 C 0.5288 0.49167 0.52698 0.0
C1556 C 0.45591 0.52089 0.48048 0.0
C1557 C 0.43099 0.53525 0.48316 0.0
C1558 C 0.42455 0.52896 0.46382 0.0
C1559 C 0.44948 0.51453 0.46116 0.0
C1560 C 0.44669 0.53127 0.4913 0.0
C1561 C 0.43382 0.5186 0.45288 0.0
C1562 C 0.51176 0.52455 0.54909 0.0
C1563 C 0.4728 0.51796 0.48914 0.0
H1564 H 0.61311 0.48111 0.56573 0.0
H1565 H 0.57233 0.51047 0.57537 0.0
H1566 H 0.58875 0.48711 0.58379 0.0
H1567 H 0.6046 0.52195 0.53009 0.0
H1568 H 0.41226 0.53177 0.45732 0.0
H1569 H 0.4566 0.50657 0.45247 0.0
H1570 H 0.45191 0.53656 0.50607 0.0
H1571 H 0.42884 0.51371 0.43801 0.0
Tb1572 Tb 0.00571 0.52467 0.02836 0.0
C1573 C 0.0686 0.56606 0.98961 0.0
N1574 N 0.05765 0.55018 0.98242 0.0
C1575 C 0.05682 0.55914 0.95072 0.0
C1576 C 0.07368 0.57937 0.97765 0.0
C1577 C 0.05215 0.54639 0.96318 0.0
C1578 C 0.0675 0.57579 0.95801 0.0
C1579 C 0.08606 0.58529 0.01713 0.0
C1580 C 0.07478 0.56895 0.00909 0.0
C1581 C 0.09099 0.59868 0.00531 0.0
C1582 C 0.08484 0.59572 0.98562 0.0
Tb1583 Tb 0.05115 0.53039 0.00413 0.0
N1584 N 0.06934 0.55585 0.02019 0.0
C1585 C 0.09209 0.58764 0.03679 0.0
C1586 C 0.07605 0.55769 0.03909 0.0
C1587 C 0.08722 0.57369 0.04777 0.0
H1588 H 0.045 0.53319 0.95733 0.0
H1589 H 0.09227 0.57515 0.06286 0.0
H1590 H 0.01664 0.52377 0.07525 0.0
H1591 H 0.96052 0.47833 0.97443 0.0
H1592 H 0.07326 0.54681 0.04744 0.0
H1593 H 0.10078 0.6 0.04353 0.0
H1594 H 0.98273 0.50571 0.98655 0.0
H1595 H 0.05242 0.556 0.93547 0.0
H1596 H 0.09963 0.61134 0.01124 0.0
H1597 H 0.08886 0.60612 0.97667 0.0
H1598 H 0.01033 0.5025 0.0989 0.0
H1599 H 0.07116 0.58563 0.94832 0.0
H1600 H 0.95098 0.4563 0.99656 0.0
N1601 N 1.00085 0.5064 0.05184 0.0
C1602 C 0.98886 0.49081 0.04634 0.0
C1603 C 0.00434 0.49895 0.08412 0.0
C1604 C 0.98432 0.4785 0.05951 0.0
C1605 C 0.00825 0.51082 0.07056 0.0
C1606 C 0.9924 0.48266 0.07855 0.0
N1607 N 0.98645 0.49901 0.01489 0.0
C1608 C 0.97906 0.49609 0.99617 0.0
C1609 C 0.96854 0.47122 0.02107 0.0
C1610 C 0.98113 0.48716 0.02735 0.0
C1611 C 0.96102 0.46812 0.00184 0.0
C1612 C 0.96635 0.48058 0.98932 0.0
H1613 H 0.98931 0.47354 0.08911 0.0
H1614 H 0.96822 0.45287 0.0632 0.0
H1615 H 0.95435 0.44653 0.02955 0.0
O1616 O 0.98379 0.53657 0.01944 0.0
O1617 O 0.01455 0.49924 0.01921 0.0
O1618 O 0.03289 0.50414 0.99535 0.0
O1619 O 0.99132 0.53345 0.04938 0.0
O1620 O 0.00802 0.53585 0.00133 0.0
O1621 O 0.02701 0.52281 0.98414 0.0
O1622 O 0.07419 0.52031 0.01322 0.0
O1623 O 0.04054 0.55523 0.01177 0.0
O1624 O 0.0251 0.54999 0.03762 0.0
O1625 O 0.0656 0.52167 0.98306 0.0
O1626 O 0.0488 0.51789 0.03042 0.0
O1627 O 0.03053 0.53257 0.04659 0.0
C1628 C 0.02307 0.49327 0.00535 0.0
C1629 C 0.9663 0.54762 0.04388 0.0
C1630 C 0.94083 0.56179 0.03838 0.0
C1631 C 0.94007 0.56403 0.05824 0.0
C1632 C 0.96518 0.55005 0.06375 0.0
C1633 C 0.95219 0.55821 0.07082 0.0
C1634 C 0.95403 0.55361 0.03111 0.0
C1635 C 0.01243 0.52904 0.9852 0.0
C1636 C 0.9806 0.53915 0.03721 0.0
C1637 C 0.97187 0.46251 0.05329 0.0
C1638 C 0.96395 0.45891 0.03414 0.0
C1639 C 0.03334 0.56115 0.02677 0.0
C1640 C 0.09228 0.51019 0.98903 0.0
C1641 C 0.11618 0.49381 0.99391 0.0
C1642 C 0.11939 0.49513 0.97483 0.0
C1643 C 0.09586 0.5114 0.96999 0.0
C1644 C 0.10267 0.50149 0.00113 0.0
C1645 C 0.10933 0.50396 0.963 0.0
C1646 C 0.0434 0.52378 0.04634 0.0
C1647 C 0.07719 0.51743 0.99543 0.0
H1648 H 0.93002 0.57032 0.06403 0.0
H1649 H 0.97442 0.5457 0.07395 0.0
H1650 H 0.9515 0.56002 0.08612 0.0
H1651 H 0.95466 0.5519 0.01577 0.0
H1652 H 0.12971 0.48927 0.96908 0.0
H1653 H 0.08814 0.51804 0.96038 0.0
H1654 H 0.10002 0.50028 0.01579 0.0
H1655 H 0.1119 0.5049 0.94831 0.0
H1656 H 0.97352 0.20416 0.97002 0.0
H1657 H 0.97839 0.17584 0.98047 0.0
H1658 H 0.03004 0.18501 0.96167 0.0
H1659 H 0.02505 0.21353 0.95078 0.0
H1660 H 0.01628 0.15133 0.95189 0.0
H1661 H 0.02242 0.1876 0.01149 0.0
H1662 H 0.01513 0.20846 0.03702 0.0
H1663 H 0.96789 0.17044 0.04202 0.0
H1664 H 0.97476 0.14944 0.01631 0.0
H1665 H 0.04219 0.07926 -0.00078 0.0
H1666 H 0.03947 0.10886 0.99057 0.0
H1667 H 0.98439 0.09782 0.99856 0.0
H1668 H 0.98701 0.06785 0.00718 0.0
H1669 H 1.00133 0.13285 0.01458 0.0
H1670 H 0.99838 0.09573 0.95466 0.0
H1671 H 0.00872 0.07593 0.93047 0.0
H1672 H 0.05368 0.11754 0.92723 0.0
H1673 H 0.04416 0.13723 0.95215 0.0
C1674 C 0.98604 0.20036 0.96817 0.0
C1675 C 0.99887 0.2115 0.95948 0.0
C1676 C 0.98888 0.18399 0.97435 0.0
C1677 C 0.00474 0.17795 0.97228 0.0
C1678 C 0.01766 0.18907 0.96363 0.0
C1679 C 0.01482 0.20557 0.95745 0.0
C1680 C 0.0074 0.1599 0.9785 0.0
C1681 C 0.01327 0.14752 0.96576 0.0
C1682 C 1.00334 0.15436 0.99652 0.0
C1683 C 0.999 0.16703 0.0118 0.0
C1684 C 0.01038 0.18376 0.01789 0.0
C1685 C 0.00634 0.19559 0.03243 0.0
C1686 C 0.99103 0.1908 0.04109 0.0
C1687 C 0.97973 0.17415 0.03526 0.0
C1688 C 0.98369 0.16227 0.02071 0.0
C1689 C 0.02943 0.08299 -0.00074 0.0
C1690 C 0.01484 0.07083 0.00405 0.0
C1691 C 0.02788 0.10009 0.99415 0.0
C1692 C 0.01168 0.10589 0.99368 0.0
C1693 C 0.9971 0.09391 0.99871 0.0
C1694 C 0.99859 0.07663 0.00361 0.0
C1695 C 0.01001 0.12429 0.98787 0.0
C1696 C 0.00435 0.13672 0.00073 0.0
C1697 C 0.01469 0.13001 0.97014 0.0
C1698 C 0.02067 0.1179 0.95553 0.0
C1699 C 0.01067 0.10054 0.9491 0.0
C1700 C 0.01641 0.08931 0.93526 0.0
C1701 C 0.03195 0.09539 0.92745 0.0
C1702 C 0.04178 0.11272 0.93347 0.0
C1703 C 0.03626 0.1239 0.94752 0.0
H1704 H 0.0363 0.08672 0.91664 0.0
H1705 H 0.98794 0.19997 0.05236 0.0
H1706 H 0.09289 0.78981 0.16756 0.0
H1707 H 0.11929 0.78813 0.18924 0.0
H1708 H 0.14849 0.78432 0.14072 0.0
H1709 H 0.12222 0.78545 0.11917 0.0
H1710 H 0.15709 0.76188 0.16196 0.0
H1711 H 0.15376 0.82387 0.17604 0.0
H1712 H 0.14042 0.84965 0.18594 0.0
H1713 H 0.13423 0.83082 0.24071 0.0
H1714 H 0.14733 0.80479 0.23103 0.0
H1715 H 0.24558 0.79306 0.21749 0.0
H1716 H 0.21807 0.79524 0.1982 0.0
H1717 H 0.18784 0.76424 0.23566 0.0
H1718 H 0.21518 0.76073 0.25412 0.0
H1719 H 0.17987 0.80395 0.22134 0.0
H1720 H 0.18215 0.74069 0.20521 0.0
H1721 H 0.19794 0.71688 0.19537 0.0
H1722 H 0.2076 0.74015 0.14352 0.0
H1723 H 0.19223 0.76445 0.15338 0.0
C1724 C 0.10496 0.78873 0.16152 0.0
C1725 C 0.10524 0.78778 0.14148 0.0
C1726 C 0.12019 0.78784 0.174 0.0
C1727 C 0.13624 0.78622 0.16685 0.0
C1728 C 0.13647 0.78546 0.14685 0.0
C1729 C 0.1213 0.7862 0.13444 0.0
C1730 C 0.15267 0.78485 0.17985 0.0
C1731 C 0.16199 0.77125 0.17484 0.0
C1732 C 0.15937 0.79678 0.19696 0.0
C1733 C 0.1513 0.81227 0.20271 0.0
C1734 C 0.14939 0.82514 0.19012 0.0
C1735 C 0.14191 0.83981 0.19571 0.0
C1736 C 0.13642 0.84184 0.21392 0.0
C1737 C 0.13844 0.82921 0.2266 0.0
C1738 C 0.1459 0.8145 0.22107 0.0
C1739 C 0.23313 0.78654 0.22163 0.0
C1740 C 0.23287 0.77679 0.23764 0.0
C1741 C 0.21734 0.78792 0.21058 0.0
C1742 C 0.20077 0.77997 0.21544 0.0
C1743 C 0.20039 0.77058 0.2316 0.0
C1744 C 0.21616 0.76873 0.24231 0.0
C1745 C 0.18394 0.78106 0.20335 0.0
C1746 C 0.17472 0.79461 0.20849 0.0
C1747 C 0.17736 0.76922 0.18631 0.0
C1748 C 0.18634 0.75454 0.1802 0.0
C1749 C 0.18787 0.74088 0.19185 0.0
C1750 C 0.1967 0.72726 0.18624 0.0
C1751 C 0.20385 0.72702 0.16886 0.0
C1752 C 0.20212 0.74039 0.15702 0.0
C1753 C 0.19337 0.7541 0.16263 0.0
H1754 H 0.21069 0.71646 0.16454 0.0
H1755 H 0.13064 0.85322 0.21822 0.0
H1756 H 0.47534 0.8202 0.45964 0.0
H1757 H 0.48163 0.85222 0.4709 0.0
H1758 H 0.53745 0.85371 0.47182 0.0
H1759 H 0.53117 0.82117 0.46069 0.0
H1760 H 0.53144 0.8764 0.50231 0.0
H1761 H 0.51428 0.86891 0.43447 0.0
H1762 H 0.49562 0.8562 0.40391 0.0
H1763 H 0.45173 0.87557 0.42459 0.0
H1764 H 0.47011 0.88827 0.45537 0.0
H1765 H 0.55088 0.97282 0.50853 0.0
H1766 H 0.5484 0.94059 0.4997 0.0
H1767 H 0.49175 0.934 0.48798 0.0
H1768 H 0.4945 0.96634 0.49503 0.0
H1769 H 0.50021 0.91367 0.46263 0.0
H1770 H 0.51786 0.9211 0.5313 0.0
H1771 H 0.53727 0.93428 0.56127 0.0
H1772 H 0.58079 0.91547 0.539 0.0
H1773 H 0.56168 0.90233 0.50881 0.0
C1774 C 0.48903 0.82718 0.46236 0.0
C1775 C 0.5027 0.81786 0.45904 0.0
C1776 C 0.49262 0.84568 0.46877 0.0
C1777 C 0.51003 0.85578 0.47192 0.0
C1778 C 0.52386 0.84643 0.46947 0.0
C1779 C 0.52025 0.82773 0.46309 0.0
C1780 C 0.51342 0.87606 0.47688 0.0
C1781 C 0.52476 0.88455 0.49349 0.0
C1782 C 0.50463 0.88699 0.4657 0.0
C1783 C 0.49353 0.87944 0.44724 0.0
C1784 C 0.50062 0.87037 0.43253 0.0
C1785 C 0.4901 0.86319 0.41518 0.0
C1786 C 0.47251 0.86509 0.41232 0.0
C1787 C 0.46537 0.87414 0.42682 0.0
C1788 C 0.47584 0.88136 0.44421 0.0
C1789 C 0.53785 0.96455 0.50412 0.0
C1790 C 0.52278 0.97244 0.50311 0.0
C1791 C 0.5364 0.94589 0.49923 0.0
C1792 C 0.51979 0.93431 0.49363 0.0
C1793 C 0.50479 0.94226 0.4924 0.0
C1794 C 0.50631 0.96094 0.4968 0.0
C1795 C 0.51793 0.91415 0.48839 0.0
C1796 C 0.50687 0.90562 0.47161 0.0
C1797 C 0.527 0.90326 0.49946 0.0
C1798 C 0.53837 0.91084 0.51775 0.0
C1799 C 0.53158 0.91982 0.53278 0.0
C1800 C 0.54253 0.92729 0.5498 0.0
C1801 C 0.56025 0.92574 0.55203 0.0
C1802 C 0.56706 0.91666 0.53726 0.0
C1803 C 0.55617 0.90918 0.5202 0.0
H1804 H 0.56871 0.93155 0.5652 0.0
H1805 H 0.46445 0.85961 0.39882 0.0
H1806 H 0.51696 0.29379 0.66322 0.0
H1807 H 0.49234 0.29462 0.68233 0.0
H1808 H 0.45534 0.26955 0.63282 0.0
H1809 H 0.47966 0.26906 0.61372 0.0
H1810 H 0.44288 0.29528 0.64956 0.0
H1811 H 0.46787 0.24672 0.67253 0.0
H1812 H 0.49129 0.23277 0.68729 0.0
H1813 H 0.49754 0.27023 0.73838 0.0
H1814 H 0.47428 0.28452 0.72381 0.0
H1815 H 0.36572 0.2559 0.68633 0.0
H1816 H 0.39275 0.26477 0.67194 0.0
H1817 H 0.41997 0.28949 0.72738 0.0
H1818 H 0.39269 0.28019 0.74199 0.0
H1819 H 0.43932 0.26896 0.71087 0.0
H1820 H 0.41173 0.31522 0.6891 0.0
H1821 H 0.3881 0.32887 0.6743 0.0
H1822 H 0.38647 0.2957 0.62098 0.0
H1823 H 0.41 0.28175 0.6355 0.0
C1824 C 0.50358 0.2884 0.65643 0.0
C1825 C 0.50041 0.28134 0.63685 0.0
C1826 C 0.48946 0.28882 0.66742 0.0
C1827 C 0.4718 0.28202 0.65917 0.0
C1828 C 0.46871 0.27497 0.63965 0.0
C1829 C 0.48274 0.27463 0.62869 0.0
C1830 C 0.45642 0.28229 0.6705 0.0
C1831 C 0.44209 0.28938 0.66289 0.0
C1832 C 0.45544 0.27526 0.68833 0.0
C1833 C 0.46953 0.26682 0.69699 0.0
C1834 C 0.47436 0.25208 0.68684 0.0
C1835 C 0.48757 0.24409 0.69519 0.0
C1836 C 0.49594 0.25065 0.71374 0.0
C1837 C 0.49108 0.26519 0.724 0.0
C1838 C 0.47788 0.27324 0.71571 0.0
C1839 C 0.37736 0.26355 0.69543 0.0
C1840 C 0.377 0.26731 0.71532 0.0
C1841 C 0.39287 0.26874 0.68714 0.0
C1842 C 0.40857 0.27797 0.69843 0.0
C1843 C 0.4081 0.28241 0.71826 0.0
C1844 C 0.39244 0.27725 0.7266 0.0
C1845 C 0.42556 0.28147 0.68963 0.0
C1846 C 0.44019 0.27511 0.69769 0.0
C1847 C 0.42682 0.28915 0.67218 0.0
C1848 C 0.41254 0.29736 0.66344 0.0
C1849 C 0.40624 0.31074 0.67426 0.0
C1850 C 0.39289 0.31856 0.66591 0.0
C1851 C 0.38577 0.31313 0.64672 0.0
C1852 C 0.392 0.2999 0.63584 0.0
C1853 C 0.40537 0.29206 0.64411 0.0
H1854 H 0.37544 0.31921 0.64029 0.0
H1855 H 0.50616 0.24444 0.72018 0.0
H1856 H 0.04476 0.791 0.63443 0.0
H1857 H 0.04336 0.81759 0.61842 0.0
H1858 H 1.00061 0.82785 0.64947 0.0
H1859 H 1.00168 0.80074 0.6654 0.0
H1860 H 0.9946 0.83574 0.61348 0.0
H1861 H 0.04301 0.85271 0.66264 0.0
H1862 H 0.07052 0.8508 0.68249 0.0
H1863 H 0.09827 0.85319 0.63291 0.0
H1864 H 0.07085 0.85488 0.61271 0.0
H1865 H 0.01225 0.92916 0.59222 0.0
H1866 H 0.00559 0.90057 0.60593 0.0
H1867 H 0.04521 0.88122 0.57586 0.0
H1868 H 0.05188 0.90977 0.56235 0.0
H1869 H 0.05092 0.87917 0.61376 0.0
H1870 H 0.99996 0.86255 0.56491 0.0
H1871 H 0.97171 0.86574 0.54746 0.0
H1872 H 0.94806 0.86531 0.59986 0.0
H1873 H 0.97623 0.86232 0.61767 0.0
C1874 C 0.03498 0.79881 0.63791 0.0
C1875 C 0.02343 0.79367 0.65142 0.0
C1876 C 0.03425 0.81416 0.62873 0.0
C1877 C 0.02212 0.82511 0.6329 0.0
C1878 C 0.01017 0.81978 0.64598 0.0
C1879 C 0.01084 0.80426 0.65516 0.0
C1880 C 0.02242 0.84219 0.62383 0.0
C1881 C 0.00689 0.84535 0.61377 0.0
C1882 C 0.03836 0.85492 0.6241 0.0
C1883 C 0.05484 0.85375 0.63614 0.0
C1884 C 0.05494 0.85267 0.65594 0.0
C1885 C 0.07052 0.85166 0.66726 0.0
C1886 C 0.08612 0.85183 0.65896 0.0
C1887 C 0.08617 0.85304 0.63932 0.0
C1888 C 0.07062 0.85404 0.62793 0.0
C1889 C 0.01906 0.91852 0.58804 0.0
C1890 C 0.0324 0.92159 0.57599 0.0
C1891 C 0.01529 0.90218 0.59592 0.0
C1892 C 0.02487 0.88859 0.592 0.0
C1893 C 0.0376 0.8914 0.57918 0.0
C1894 C 0.04133 0.90768 0.57131 0.0
C1895 C 0.02328 0.87243 0.60277 0.0
C1896 C 0.03862 0.86955 0.61338 0.0
C1897 C 0.00708 0.86029 0.60332 0.0
C1898 C 0.99027 0.86243 0.59266 0.0
C1899 C 0.9888 0.86334 0.57275 0.0
C1900 C 0.97278 0.86505 0.56278 0.0
C1901 C 0.95812 0.86579 0.57256 0.0
C1902 C 0.95943 0.86478 0.59231 0.0
C1903 C 0.97542 0.86306 0.60234 0.0
H1904 H 0.94573 0.86709 0.56481 0.0
H1905 H 0.09817 0.85106 0.66775 0.0
H1906 H 0.46798 0.77267 0.85497 0.0
H1907 H 0.43753 0.77215 0.84283 0.0
H1908 H 0.45478 0.80494 0.79938 0.0
H1909 H 0.48593 0.80591 0.81202 0.0
H1910 H 0.42669 0.81565 0.81255 0.0
H1911 H 0.4355 0.75825 0.78792 0.0
H1912 H 0.44553 0.72953 0.78891 0.0
H1913 H 0.41087 0.71487 0.83089 0.0
H1914 H 0.40059 0.74346 0.83011 0.0
H1915 H 0.33625 0.79637 0.76579 0.0
H1916 H 0.36821 0.7992 0.77328 0.0
H1917 H 0.35987 0.76889 0.82105 0.0
H1918 H 0.32792 0.76629 0.81383 0.0
H1919 H 0.38409 0.75724 0.80193 0.0
H1920 H 0.37633 0.81627 0.82655 0.0
H1921 H 0.36669 0.84505 0.82431 0.0
H1922 H 0.3994 0.85635 0.77974 0.0
H1923 H 0.40917 0.82756 0.78166 0.0
C1924 C 0.46555 0.77979 0.84274 0.0
C1925 C 0.47981 0.78923 0.83451 0.0
C1926 C 0.44785 0.77936 0.83567 0.0
C1927 C 0.44341 0.78815 0.81979 0.0
C1928 C 0.45757 0.79787 0.81155 0.0
C1929 C 0.4755 0.79836 0.81875 0.0
C1930 C 0.42404 0.78703 0.81226 0.0
C1931 C 0.4175 0.8028 0.80991 0.0
C1932 C 0.41159 0.77042 0.80885 0.0
C1933 C 0.4174 0.75304 0.80907 0.0
C1934 C 0.43004 0.7489 0.79739 0.0
C1935 C 0.43573 0.73262 0.79787 0.0
C1936 C 0.42884 0.72037 0.80996 0.0
C1937 C 0.41614 0.72432 0.82147 0.0
C1938 C 0.41034 0.74053 0.82098 0.0
C1939 C 0.34112 0.79056 0.77811 0.0
C1940 C 0.32917 0.78137 0.78934 0.0
C1941 C 0.35959 0.79215 0.7824 0.0
C1942 C 0.36685 0.78448 0.79798 0.0
C1943 C 0.35491 0.77506 0.809 0.0
C1944 C 0.33647 0.77361 0.80484 0.0
C1945 C 0.38668 0.78586 0.80266 0.0
C1946 C 0.3933 0.77009 0.80445 0.0
C1947 C 0.39916 0.80243 0.80526 0.0
C1948 C 0.39337 0.81973 0.80415 0.0
C1949 C 0.3814 0.82486 0.81621 0.0
C1950 C 0.37594 0.84118 0.81503 0.0
C1951 C 0.38243 0.85252 0.80189 0.0
C1952 C 0.3944 0.84756 0.78992 0.0
C1953 C 0.39993 0.83127 0.79108 0.0
H1954 H 0.37819 0.86516 0.80098 0.0
H1955 H 0.43336 0.70784 0.81041 0.0
H1956 H 0.5487 0.20573 0.14844 0.0
H1957 H 0.54765 0.17695 0.12972 0.0
H1958 H 0.49078 0.16522 0.12604 0.0
H1959 H 0.49188 0.19405 0.14584 0.0
H1960 H 0.50179 0.13511 0.12924 0.0
H1961 H 0.51509 0.17997 0.0868 0.0
H1962 H 0.53147 0.20802 0.07726 0.0
H1963 H 0.57953 0.18784 0.08296 0.0
H1964 H 0.56346 0.15974 0.09269 0.0
H1965 H 0.49645 0.06028 0.05691 0.0
H1966 H 0.49343 0.08828 0.07532 0.0
H1967 H 0.54957 0.10842 0.07781 0.0
H1968 H 0.55215 0.08107 0.05794 0.0
H1969 H 0.53639 0.13462 0.074 0.0
H1970 H 0.52341 0.09014 0.118 0.0
H1971 H 0.50697 0.0621 0.12753 0.0
H1972 H 0.45851 0.08127 0.11904 0.0
H1973 H 0.47464 0.10933 0.10925 0.0
C1974 C 0.53589 0.19711 0.14371 0.0
C1975 C 0.52036 0.2025 0.14859 0.0
C1976 C 0.5353 0.18054 0.13277 0.0
C1977 C 0.51911 0.16883 0.12571 0.0
C1978 C 0.50351 0.1739 0.13102 0.0
C1979 C 0.50413 0.19047 0.14237 0.0
C1980 C 0.51871 0.15156 0.11279 0.0
C1981 C 0.5092 0.13508 0.11702 0.0
C1982 C 0.5285 0.15111 0.09685 0.0
C1983 C 0.53809 0.16781 0.09057 0.0
C1984 C 0.52916 0.18154 0.08606 0.0
C1985 C 0.53839 0.19744 0.08062 0.0
C1986 C 0.55654 0.19972 0.07954 0.0
C1987 C 0.56548 0.18606 0.0838 0.0
C1988 C 0.55631 0.17013 0.08924 0.0
C1989 C 0.50813 0.07072 0.06144 0.0
C1990 C 0.52455 0.06839 0.056 0.0
C1991 C 0.50646 0.08677 0.07222 0.0
C1992 C 0.52133 0.10069 0.07871 0.0
C1993 C 0.53776 0.09819 0.07321 0.0
C1994 C 0.5393 0.08243 0.06185 0.0
C1995 C 0.51992 0.11796 0.09073 0.0
C1996 C 0.52902 0.13453 0.08625 0.0
C1997 C 0.50979 0.11843 0.10645 0.0
C1998 C 0.50021 0.10176 0.11278 0.0
C1999 C 0.50924 0.08835 0.11814 0.0
C2000 C 0.49998 0.07245 0.12357 0.0
C2001 C 0.4817 0.06989 0.12386 0.0
C2002 C 0.47267 0.08326 0.1188 0.0
C2003 C 0.48186 0.09917 0.11333 0.0
H2004 H 0.47456 0.05756 0.12804 0.0
H2005 H 0.56367 0.21206 0.07537 0.0
H2006 H 0.10825 0.32751 0.34942 0.0
H2007 H 0.13553 0.32337 0.3371 0.0
H2008 H 0.10853 0.27264 0.30568 0.0
H2009 H 0.08076 0.27683 0.3181 0.0
H2010 H 0.14011 0.26862 0.32131 0.0
H2011 H 0.12307 0.30987 0.28236 0.0
H2012 H 0.11292 0.33659 0.27226 0.0
H2013 H 0.1592 0.37079 0.30443 0.0
H2014 H 0.16949 0.34427 0.31502 0.0
H2015 H 0.21664 0.26201 0.2739 0.0
H2016 H 0.18758 0.26394 0.28229 0.0
H2017 H 0.20898 0.3162 0.31376 0.0
H2018 H 0.23847 0.31417 0.30501 0.0
H2019 H 0.17872 0.31772 0.29555 0.0
H2020 H 0.19106 0.27174 0.33814 0.0
H2021 H 0.19774 0.24244 0.34521 0.0
H2022 H 0.15853 0.21517 0.29907 0.0
H2023 H 0.15093 0.24411 0.29235 0.0
C2024 C 0.10788 0.31548 0.33972 0.0
C2025 C 0.09192 0.3026 0.33483 0.0
C2026 C 0.1237 0.31314 0.33254 0.0
C2027 C 0.12452 0.29773 0.32015 0.0
C2028 C 0.10859 0.28475 0.31512 0.0
C2029 C 0.09255 0.28721 0.32217 0.0
C2030 C 0.14208 0.29527 0.31319 0.0
C2031 C 0.14838 0.27937 0.31549 0.0
C2032 C 0.15331 0.30902 0.30541 0.0
C2033 C 0.14693 0.32508 0.29971 0.0
C2034 C 0.13096 0.3231 0.28752 0.0
C2035 C 0.12521 0.33821 0.28165 0.0
C2036 C 0.13538 0.35538 0.28776 0.0
C2037 C 0.15132 0.35748 0.29976 0.0
C2038 C 0.15711 0.34241 0.30571 0.0
C2039 C 0.21547 0.27379 0.28286 0.0
C2040 C 0.23046 0.28767 0.28885 0.0
C2041 C 0.19852 0.2749 0.28785 0.0
C2042 C 0.1956 0.29001 0.29932 0.0
C2043 C 0.21048 0.30418 0.30509 0.0
C2044 C 0.22753 0.30304 0.3 0.0
C2045 C 0.1771 0.29138 0.3044 0.0
C2046 C 0.17054 0.30707 0.30159 0.0
C2047 C 0.16542 0.27722 0.31115 0.0
C2048 C 0.17064 0.26005 0.31457 0.0
C2049 C 0.184 0.2595 0.32941 0.0
C2050 C 0.18791 0.24298 0.33339 0.0
C2051 C 0.17885 0.22705 0.32237 0.0
C2052 C 0.16563 0.22753 0.30751 0.0
C2053 C 0.1614 0.24394 0.30373 0.0
H2054 H 0.18196 0.21432 0.32547 0.0
H2055 H 0.13093 0.36707 0.28315 0.0
H2056 H 0.93534 0.99836 0.20212 0.0
H2057 H 0.94683 0.99771 0.17098 0.0
H2058 H 0.98108 0.04931 0.18957 0.0
H2059 H 0.96994 0.04993 0.22081 0.0
H2060 H 0.9596 0.04593 0.15235 0.0
H2061 H 0.99846 0.01473 0.1884 0.0
H2062 H 0.00524 0.99074 0.20712 0.0
H2063 H 0.98066 0.95085 0.15993 0.0
H2064 H 0.97339 0.97458 0.14107 0.0
H2065 H 0.00994 0.05444 0.07501 0.0
H2066 H 1.00124 0.0535 0.10733 0.0
H2067 H 0.98052 0.99645 0.09415 0.0
H2068 H 0.99088 0.99711 0.06273 0.0
H2069 H 0.99443 1.00196 0.12874 0.0
H2070 H 0.95471 0.0298 0.09246 0.0
H2071 H 0.94724 0.05181 0.07134 0.0
H2072 H 0.96883 0.09489 0.11641 0.0
H2073 H 0.97717 0.07319 0.13755 0.0
C2074 C 0.9454 0.00952 0.19962 0.0
C2075 C 0.95173 0.02421 0.21396 0.0
C2076 C 0.95196 0.0091 0.18184 0.0
C2077 C 0.9648 0.02346 0.17798 0.0
C2078 C 0.97116 0.0381 0.19226 0.0
C2079 C 0.96483 0.03839 0.21013 0.0
C2080 C 0.97132 0.02351 0.15891 0.0
C2081 C 0.96739 0.03645 0.14725 0.0
C2082 C 0.98087 0.01069 0.15197 0.0
C2083 C 0.98516 0.99644 0.16341 0.0
C2084 C 0.99429 1.00084 0.1821 0.0
C2085 C 0.99826 0.98728 0.19272 0.0
C2086 C 0.99333 0.96928 0.18475 0.0
C2087 C 0.98443 0.9648 0.16611 0.0
C2088 C 0.98037 0.9783 0.15546 0.0
C2089 C 0.00363 0.0417 0.07908 0.0
C2090 C 1.0006 0.02594 0.06607 0.0
C2091 C 0.99853 0.04118 0.09752 0.0
C2092 C 0.98973 0.02498 0.10311 0.0
C2093 C 0.98706 0.00917 0.09022 0.0
C2094 C 0.99259 0.00963 0.07201 0.0
C2095 C 0.98288 0.02453 0.12212 0.0
C2096 C 0.98664 0.01146 0.13376 0.0
C2097 C 0.97266 0.03687 0.12879 0.0
C2098 C 0.96678 0.04988 0.11652 0.0
C2099 C 0.958 0.04398 0.09783 0.0
C2100 C 0.95375 0.05641 0.0858 0.0
C2101 C 0.95769 0.07476 0.09248 0.0
C2102 C 0.96587 0.08069 0.11122 0.0
C2103 C 0.97045 0.06833 0.12321 0.0
H2104 H 0.95424 0.08435 0.08318 0.0
H2105 H 0.99645 0.95881 0.19298 0.0
H2106 H 0.23292 0.64729 0.49101 0.0
H2107 H 0.23731 0.66494 0.46429 0.0
H2108 H 0.29312 0.66472 0.47207 0.0
H2109 H 0.28894 0.64717 0.49904 0.0
H2110 H 0.2844 0.69868 0.46481 0.0
H2111 H 0.27031 0.63676 0.43841 0.0
H2112 H 0.25306 0.6058 0.43576 0.0
H2113 H 0.20618 0.62358 0.41471 0.0
H2114 H 0.22305 0.65473 0.41767 0.0
H2115 H 0.27628 0.73492 0.37282 0.0
H2116 H 0.28609 0.71662 0.39703 0.0
H2117 H 0.232 0.69962 0.4075 0.0
H2118 H 0.2222 0.7175 0.38335 0.0
H2119 H 0.24904 0.67167 0.4025 0.0
H2120 H 0.26042 0.73288 0.43568 0.0
H2121 H 0.27547 0.76472 0.44212 0.0
H2122 H 0.32559 0.7491 0.45244 0.0
H2123 H 0.31085 0.71712 0.44563 0.0
C2124 C 0.24612 0.65097 0.48706 0.0
C2125 C 0.26052 0.64562 0.49688 0.0
C2126 C 0.24861 0.66109 0.47187 0.0
C2127 C 0.26549 0.66584 0.46618 0.0
C2128 C 0.28002 0.66105 0.4763 0.0
C2129 C 0.27754 0.65094 0.49155 0.0
C2130 C 0.26751 0.67498 0.44895 0.0
C2131 C 0.27708 0.69271 0.451 0.0
C2132 C 0.25796 0.667 0.43107 0.0
C2133 C 0.24797 0.6481 0.42826 0.0
C2134 C 0.25632 0.63408 0.43323 0.0
C2135 C 0.2466 0.6165 0.43172 0.0
C2136 C 0.22854 0.61272 0.42507 0.0
C2137 C 0.22018 0.62652 0.41984 0.0
C2138 C 0.22983 0.64414 0.4214 0.0
C2139 C 0.26655 0.72719 0.3803 0.0
C2140 C 0.24849 0.72764 0.37638 0.0
C2141 C 0.27217 0.71685 0.3941 0.0
C2142 C 0.25974 0.70683 0.40396 0.0
C2143 C 0.24176 0.70726 0.39995 0.0
C2144 C 0.23619 0.71758 0.38632 0.0
C2145 C 0.26497 0.69579 0.41865 0.0
C2146 C 0.25693 0.67752 0.41606 0.0
C2147 C 0.27574 0.70338 0.43606 0.0
C2148 C 0.28457 0.72261 0.43973 0.0
C2149 C 0.27467 0.73622 0.439 0.0
C2150 C 0.28315 0.7543 0.44279 0.0
C2151 C 0.30149 0.75894 0.44757 0.0
C2152 C 0.3114 0.7455 0.44862 0.0
C2153 C 0.303 0.7274 0.44476 0.0
H2154 H 0.30802 0.77294 0.45056 0.0
H2155 H 0.22102 0.59911 0.42396 0.0
H2156 H 0.60893 0.02764 0.71845 0.0
H2157 H 0.59263 0.02793 0.68685 0.0
H2158 H 0.64184 0.04109 0.66306 0.0
H2159 H 0.6582 0.04077 0.69437 0.0
H2160 H 0.6157 0.0603 0.65054 0.0
H2161 H 0.62502 1.00107 0.65586 0.0
H2162 H 0.62534 0.97366 0.67154 0.0
H2163 H 0.56893 0.9648 0.67044 0.0
H2164 H 0.56833 0.99238 0.65507 0.0
H2165 H 0.56993 0.00729 0.55541 0.0
H2166 H 0.58959 0.01141 0.58542 0.0
H2167 H 0.55645 0.04313 0.61255 0.0
H2168 H 0.53801 0.0412 0.58205 0.0
H2169 H 0.5778 1.00189 0.62148 0.0
H2170 H 0.57507 0.07031 0.6242 0.0
H2171 H 0.57885 0.09757 0.60778 0.0
H2172 H 0.62828 0.08763 0.59163 0.0
H2173 H 0.62426 0.05974 0.60713 0.0
C2174 C 0.6162 0.03079 0.70651 0.0
C2175 C 0.63469 0.03389 0.70861 0.0
C2176 C 0.60696 0.03097 0.68862 0.0
C2177 C 0.61622 0.03439 0.67293 0.0
C2178 C 0.63466 0.03843 0.67519 0.0
C2179 C 0.64389 0.03807 0.69297 0.0
C2180 C 0.60662 0.03239 0.65382 0.0
C2181 C 0.60738 0.04757 0.64414 0.0
C2182 C 0.59639 0.0156 0.64547 0.0
C2183 C 0.59666 0.99891 0.65454 0.0
C2184 C 0.61271 0.99338 0.65914 0.0
C2185 C 0.61294 0.97779 0.66794 0.0
C2186 C 0.59717 0.96753 0.67204 0.0
C2187 C 0.58114 0.97279 0.66729 0.0
C2188 C 0.58084 0.9884 0.65853 0.0
C2189 C 0.56687 0.01528 0.56772 0.0
C2190 C 0.55232 0.02381 0.56646 0.0
C2191 C 0.57815 0.01766 0.58472 0.0
C2192 C 0.57468 0.02813 0.60071 0.0
C2193 C 0.55966 0.03575 0.59992 0.0
C2194 C 0.54878 0.03404 0.5827 0.0
C2195 C 0.58613 0.03 0.61868 0.0
C2196 C 0.58598 0.01465 0.62798 0.0
C2197 C 0.59722 0.04654 0.62646 0.0
C2198 C 0.59907 0.06267 0.61626 0.0
C2199 C 0.58646 0.07364 0.61665 0.0
C2200 C 0.5887 0.08926 0.60761 0.0
C2201 C 0.60378 0.09432 0.59864 0.0
C2202 C 0.61657 0.08366 0.59853 0.0
C2203 C 0.61422 0.06785 0.60725 0.0
H2204 H 0.60555 0.10648 0.59175 0.0
H2205 H 0.59737 0.95546 0.67886 0.0
H2206 H 0.31457 0.37607 0.9703 0.0
H2207 H 0.30999 0.35844 0.93878 0.0
H2208 H 0.26059 0.32848 0.95164 0.0
H2209 H 0.26517 0.34614 0.98362 0.0
H2210 H 0.28085 0.30681 0.93087 0.0
H2211 H 0.25745 0.35945 0.92475 0.0
H2212 H 0.25722 0.39182 0.92988 0.0
H2213 H 0.30273 0.40337 0.9 0.0
H2214 H 0.30337 0.37105 0.89492 0.0
H2215 H 0.25434 0.27667 0.82999 0.0
H2216 H 0.25485 0.28966 0.86329 0.0
H2217 H 0.30421 0.32556 0.85987 0.0
H2218 H 0.30357 0.3129 0.82649 0.0
H2219 H 0.28017 0.34291 0.87609 0.0
H2220 H 0.30356 0.2893 0.88345 0.0
H2221 H 0.30247 0.25667 0.87794 0.0
H2222 H 0.25501 0.24651 0.90476 0.0
H2223 H 0.25567 0.27909 0.91025 0.0
C2224 C 0.30274 0.36568 0.96656 0.0
C2225 C 0.29012 0.36271 0.97943 0.0
C2226 C 0.30017 0.35557 0.94849 0.0
C2227 C 0.28483 0.3423 0.94269 0.0
C2228 C 0.27252 0.33866 0.95579 0.0
C2229 C 0.27514 0.34879 0.97403 0.0
C2230 C 0.28147 0.33327 0.9225 0.0
C2231 C 0.28039 0.31464 0.91888 0.0
C2232 C 0.28096 0.34344 0.90679 0.0
C2233 C 0.28054 0.36286 0.90959 0.0
C2234 C 0.26748 0.36891 0.91939 0.0
C2235 C 0.26726 0.38724 0.92227 0.0
C2236 C 0.27997 0.39965 0.9153 0.0
C2237 C 0.2929 0.39374 0.90539 0.0
C2238 C 0.29318 0.37541 0.90249 0.0
C2239 C 0.26533 0.28731 0.83634 0.0
C2240 C 0.27906 0.29358 0.82563 0.0
C2241 C 0.26563 0.29467 0.85542 0.0
C2242 C 0.27965 0.30848 0.86419 0.0
C2243 C 0.29328 0.31487 0.85346 0.0
C2244 C 0.29301 0.30748 0.83441 0.0
C2245 C 0.28004 0.31653 0.88443 0.0
C2246 C 0.2805 0.33502 0.88805 0.0
C2247 C 0.27977 0.30615 0.90003 0.0
C2248 C 0.27958 0.28662 0.89712 0.0
C2249 C 0.29283 0.28011 0.88808 0.0
C2250 C 0.2923 0.26163 0.88496 0.0
C2251 C 0.27866 0.24953 0.89093 0.0
C2252 C 0.26555 0.2559 0.90012 0.0
C2253 C 0.26601 0.27437 0.90327 0.0
H2254 H 0.27827 0.23523 0.88848 0.0
H2255 H 0.27979 0.41384 0.91756 0.0
H2256 H 0.93361 0.03175 0.31919 0.0
H2257 H 0.94608 0.03475 0.35289 0.0
H2258 H 0.98743 0.00784 0.33677 0.0
H2259 H 0.97474 0.00433 0.30309 0.0
H2260 H 0.97352 0.99373 0.36508 0.0
H2261 H 0.99413 0.05463 0.35269 0.0
H2262 H 0.99104 0.08394 0.34238 0.0
H2263 H 0.95707 0.0913 0.38558 0.0
H2264 H 0.95973 0.06191 0.39595 0.0
H2265 H 0.02584 0.00811 0.45591 0.0
H2266 H 0.01482 0.00807 0.42217 0.0
H2267 H 0.97375 0.03503 0.43907 0.0
H2268 H 0.98474 0.03521 0.47283 0.0
H2269 H 0.98757 0.04985 0.41056 0.0
H2270 H 0.96308 0.98925 0.42016 0.0
H2271 H 0.96177 0.95851 0.42867 0.0
H2272 H 1.00044 0.95052 0.39105 0.0
H2273 H 1.00174 0.98115 0.38209 0.0
C2274 C 0.94548 0.02663 0.32277 0.0
C2275 C 0.95316 0.01776 0.3084 0.0
C2276 C 0.95267 0.02847 0.34209 0.0
C2277 C 0.96785 0.02171 0.34745 0.0
C2278 C 0.97573 0.01319 0.33305 0.0
C2279 C 0.96847 0.01121 0.31376 0.0
C2280 C 0.97482 0.02231 0.36808 0.0
C2281 C 0.97693 0.00611 0.3749 0.0
C2282 C 0.97856 0.03829 0.38118 0.0
C2283 C 0.977 0.05598 0.37497 0.0
C2284 C 0.98589 0.06243 0.35989 0.0
C2285 C 0.98423 0.07907 0.35405 0.0
C2286 C 0.97383 0.08945 0.36329 0.0
C2287 C 0.9651 0.08324 0.37841 0.0
C2288 C 0.96669 0.06659 0.38429 0.0
C2289 C 0.01437 0.01389 0.45249 0.0
C2290 C 0.00608 0.02147 0.46715 0.0
C2291 C 0.00805 0.01384 0.43314 0.0
C2292 C 0.99328 0.02135 0.428 0.0
C2293 C 0.98514 0.02914 0.44262 0.0
C2294 C 0.99143 0.02918 0.46196 0.0
C2295 C 0.98648 0.02128 0.40741 0.0
C2296 C 0.98433 0.03754 0.40065 0.0
C2297 C 0.98246 0.00536 0.39432 0.0
C2298 C 0.98262 0.98748 0.40061 0.0
C2299 C 0.97141 0.98098 0.41385 0.0
C2300 C 0.97055 0.96354 0.41861 0.0
C2301 C 0.98098 0.95255 0.41036 0.0
C2302 C 0.99234 0.95902 0.39738 0.0
C2303 C 0.99308 0.97638 0.39239 0.0
H2304 H 0.98031 0.93904 0.41407 0.0
H2305 H 0.97256 0.10233 0.35875 0.0
H2306 H 0.24379 0.66956 0.57763 0.0
H2307 H 0.24214 0.68433 0.60959 0.0
H2308 H 0.29551 0.67882 0.62797 0.0
H2309 H 0.29677 0.66309 0.59628 0.0
H2310 H 0.2744 0.67168 0.65537 0.0
H2311 H 0.28724 0.71797 0.61335 0.0
H2312 H 0.2814 0.73205 0.58396 0.0
H2313 H 0.23042 0.73772 0.59918 0.0
H2314 H 0.23589 0.72345 0.62853 0.0
H2315 H 0.30103 0.7412 0.73216 0.0
H2316 H 0.29774 0.72118 0.70208 0.0
H2317 H 0.24489 0.73035 0.68796 0.0
H2318 H 0.24853 0.75107 0.71741 0.0
H2319 H 0.26298 0.73369 0.65904 0.0
H2320 H 0.25244 0.69111 0.70423 0.0
H2321 H 0.25995 0.67898 0.73446 0.0
H2322 H 0.30741 0.66724 0.71452 0.0
H2323 H 0.30037 0.67962 0.6843 0.0
C2324 C 0.25523 0.67184 0.58844 0.0
C2325 C 0.27058 0.66578 0.58465 0.0
C2326 C 0.25421 0.67999 0.60665 0.0
C2327 C 0.26878 0.68271 0.62091 0.0
C2328 C 0.28415 0.6767 0.61707 0.0
C2329 C 0.28499 0.66809 0.59901 0.0
C2330 C 0.26845 0.69298 0.63943 0.0
C2331 C 0.27196 0.68526 0.6563 0.0
C2332 C 0.26497 0.71051 0.64037 0.0
C2333 C 0.26191 0.71954 0.62302 0.0
C2334 C 0.27477 0.72218 0.61038 0.0
C2335 C 0.27152 0.73018 0.59373 0.0
C2336 C 0.25553 0.73574 0.58969 0.0
C2337 C 0.24279 0.73339 0.60232 0.0
C2338 C 0.24596 0.72537 0.61897 0.0
C2339 C 0.28883 0.73897 0.72245 0.0
C2340 C 0.2751 0.74761 0.72668 0.0
C2341 C 0.28687 0.72746 0.70553 0.0
C2342 C 0.27095 0.72414 0.69317 0.0
C2343 C 0.25723 0.73281 0.69746 0.0
C2344 C 0.25937 0.74468 0.71408 0.0
C2345 C 0.26898 0.7125 0.67508 0.0
C2346 C 0.2651 0.71999 0.65824 0.0
C2347 C 0.27217 0.69484 0.67429 0.0
C2348 C 0.27589 0.68636 0.69198 0.0
C2349 C 0.26448 0.68595 0.70628 0.0
C2350 C 0.26868 0.67906 0.72344 0.0
C2351 C 0.28416 0.67236 0.72642 0.0
C2352 C 0.29542 0.67242 0.71218 0.0
C2353 C 0.29131 0.67935 0.69501 0.0
H2354 H 0.28744 0.66711 0.73975 0.0
H2355 H 0.25303 0.74191 0.57678 0.0
H2356 H 0.65426 0.06707 0.80889 0.0
H2357 H 0.63769 0.06217 0.83617 0.0
H2358 H 0.62259 0.00549 0.81589 0.0
H2359 H 0.6391 0.01021 0.78854 0.0
H2360 H 0.59488 0.02287 0.82767 0.0
H2361 H 0.6528 0.01543 0.85014 0.0
H2362 H 0.6853 0.02421 0.85366 0.0
H2363 H 0.68324 0.07352 0.88762 0.0
H2364 H 0.6507 0.06527 0.8839 0.0
H2365 H 0.55863 0.027 0.91741 0.0
H2366 H 0.57539 0.01474 0.89329 0.0
H2367 H 0.6076 0.06763 0.89409 0.0
H2368 H 0.5908 0.07982 0.91785 0.0
H2369 H 0.62703 0.04081 0.89346 0.0
H2370 H 0.57248 0.05397 0.86317 0.0
H2371 H 0.54022 0.05039 0.85549 0.0
H2372 H 0.53627 0.99507 0.83346 0.0
H2373 H 0.5685 0.99821 0.84151 0.0
C2374 C 0.64734 0.0536 0.81021 0.0
C2375 C 0.6481 0.03897 0.79688 0.0
C2376 C 0.63799 0.05082 0.82575 0.0
C2377 C 0.62934 0.03343 0.828 0.0
C2378 C 0.62944 0.01892 0.81432 0.0
C2379 C 0.63889 0.02166 0.79885 0.0
C2380 C 0.62028 0.0306 0.84488 0.0
C2381 C 0.60182 0.02618 0.84215 0.0
C2382 C 0.62961 0.03513 0.86352 0.0
C2383 C 0.64926 0.0397 0.86673 0.0
C2384 C 0.65926 0.02816 0.85834 0.0
C2385 C 0.6777 0.03307 0.86033 0.0
C2386 C 0.68633 0.04941 0.87086 0.0
C2387 C 0.67654 0.06085 0.87949 0.0
C2388 C 0.65809 0.05605 0.87746 0.0
C2389 C 0.56933 0.03588 0.91233 0.0
C2390 C 0.57337 0.05433 0.91894 0.0
C2391 C 0.5789 0.02889 0.89879 0.0
C2392 C 0.59265 0.04034 0.89207 0.0
C2393 C 0.59705 0.05864 0.89926 0.0
C2394 C 0.58737 0.06563 0.91254 0.0
C2395 C 0.60155 0.03402 0.8762 0.0
C2396 C 0.62004 0.0366 0.8791 0.0
C2397 C 0.59225 0.02822 0.85762 0.0
C2398 C 0.57282 0.02619 0.85342 0.0
C2399 C 0.56469 0.04095 0.85705 0.0
C2400 C 0.54642 0.03902 0.85256 0.0
C2401 C 0.53618 0.02248 0.84412 0.0
C2402 C 0.5442 0.00783 0.84014 0.0
C2403 C 0.56246 0.00966 0.84473 0.0
H2404 H 0.52204 0.02103 0.84056 0.0
H2405 H 0.7006 0.0532 0.87234 0.0
H2406 H 0.31512 0.35086 0.0893 0.0
H2407 H 0.31078 0.33925 0.11981 0.0
H2408 H 0.25735 0.34823 0.11425 0.0
H2409 H 0.26203 0.36088 0.08413 0.0
H2410 H 0.27096 0.35723 0.1498 0.0
H2411 H 0.26884 0.30451 0.10459 0.0
H2412 H 0.28032 0.2864 0.07971 0.0
H2413 H 0.32688 0.28715 0.11866 0.0
H2414 H 0.31577 0.30541 0.14369 0.0
H2415 H 0.24974 0.30783 0.22805 0.0
H2416 H 0.2496 0.31762 0.19589 0.0
H2417 H 0.30289 0.30905 0.19422 0.0
H2418 H 0.30227 0.29774 0.22534 0.0
H2419 H 0.28654 0.29872 0.16121 0.0
H2420 H 0.29052 0.35304 0.20534 0.0
H2421 H 0.2783 0.36756 0.23227 0.0
H2422 H 0.22914 0.36337 0.19638 0.0
H2423 H 0.24098 0.34853 0.16932 0.0
C2424 C 0.30242 0.35031 0.09453 0.0
C2425 C 0.28888 0.35667 0.08422 0.0
C2426 C 0.2999 0.34356 0.11197 0.0
C2427 C 0.28357 0.3424 0.11923 0.0
C2428 C 0.27005 0.34888 0.10899 0.0
C2429 C 0.27271 0.35605 0.09172 0.0
C2430 C 0.28069 0.33452 0.1375 0.0
C2431 C 0.27419 0.34434 0.15216 0.0
C2432 C 0.28507 0.31779 0.14088 0.0
C2433 C 0.2915 0.30639 0.12597 0.0
C2434 C 0.28153 0.30083 0.10782 0.0
C2435 C 0.28798 0.29055 0.0937 0.0
C2436 C 0.30433 0.28565 0.0976 0.0
C2437 C 0.31422 0.29095 0.11566 0.0
C2438 C 0.30784 0.30123 0.12983 0.0
C2439 C 0.26142 0.30827 0.2208 0.0
C2440 C 0.27617 0.30251 0.22928 0.0
C2441 C 0.26139 0.31386 0.20243 0.0
C2442 C 0.27643 0.31457 0.19267 0.0
C2443 C 0.29112 0.30872 0.2013 0.0
C2444 C 0.29085 0.30247 0.21921 0.0
C2445 C 0.27723 0.32159 0.17364 0.0
C2446 C 0.28329 0.31161 0.15882 0.0
C2447 C 0.27266 0.33822 0.1702 0.0
C2448 C 0.26656 0.34953 0.1854 0.0
C2449 C 0.27717 0.3554 0.20315 0.0
C2450 C 0.27026 0.36352 0.21847 0.0
C2451 C 0.25286 0.36607 0.21612 0.0
C2452 C 0.24255 0.36117 0.19823 0.0
C2453 C 0.24936 0.35294 0.18288 0.0
H2454 H 0.24738 0.37189 0.22816 0.0
H2455 H 0.30931 0.27772 0.08663 0.0
H2456 H 0.25118 0.97243 0.00852 0.0
H2457 H 0.22376 0.98199 0.01343 0.0
H2458 H 0.19404 0.93449 0.97766 0.0
H2459 H 0.22166 0.92448 0.97273 0.0
H2460 H 0.18562 0.97076 0.97169 0.0
H2461 H 0.19208 0.93124 0.01965 0.0
H2462 H 0.20771 0.91877 0.04571 0.0
H2463 H 0.21807 0.96998 0.0805 0.0
H2464 H 0.20282 0.98287 0.05453 0.0
H2465 H 0.10841 0.98643 0.01694 0.0
H2466 H 0.13044 0.97631 0.99846 0.0
H2467 H 0.172 0.01275 0.03643 0.0
H2468 H 0.15005 0.02275 0.05509 0.0
H2469 H 0.17067 0.97642 0.03841 0.0
H2470 H 0.16843 0.01735 0.99129 0.0
H2471 H 0.1569 0.03242 0.96485 0.0
H2472 H 0.14184 0.98187 0.92878 0.0
H2473 H 0.15296 0.96643 0.95514 0.0
C2474 C 0.23887 0.96408 0.00145 0.0
C2475 C 0.23842 0.94765 0.99035 0.0
C2476 C 0.22329 0.96952 0.00438 0.0
C2477 C 0.20716 0.95867 0.99614 0.0
C2478 C 0.20657 0.94277 0.9842 0.0
C2479 C 0.22224 0.93717 0.9814 0.0
C2480 C 0.19104 0.96431 0.00041 0.0
C2481 C 0.18187 0.97163 0.98611 0.0
C2482 C 0.18694 0.96574 0.01942 0.0
C2483 C 0.19637 0.95805 0.03503 0.0
C2484 C 0.19785 0.93991 0.03276 0.0
C2485 C 0.20662 0.93275 0.04755 0.0
C2486 C 0.2139 0.94358 0.06473 0.0
C2487 C 0.21243 0.9616 0.06717 0.0
C2488 C 0.20372 0.96884 0.05242 0.0
C2489 C 0.12224 0.99261 0.02095 0.0
C2490 C 0.12777 0.00494 0.03764 0.0
C2491 C 0.13471 0.987 0.01028 0.0
C2492 C 0.15268 0.99382 0.01622 0.0
C2493 C 0.15808 0.00745 0.03174 0.0
C2494 C 0.14566 0.01291 0.04251 0.0
C2495 C 0.16563 0.98373 0.00985 0.0
C2496 C 0.17406 0.97531 0.02383 0.0
C2497 C 0.1692 0.98161 0.99064 0.0
C2498 C 0.16118 0.99067 0.97536 0.0
C2499 C 0.16228 0.00937 0.97789 0.0
C2500 C 0.15592 0.018 0.96286 0.0
C2501 C 0.14855 0.00809 0.94518 0.0
C2502 C 0.14746 0.98952 0.94251 0.0
C2503 C 0.15375 0.98082 0.95751 0.0
H2504 H 0.14376 0.01482 0.93352 0.0
H2505 H 0.22065 0.938 0.07618 0.0
H2506 H 0.70347 0.64411 0.03969 0.0
H2507 H 0.67449 0.62424 0.03702 0.0
H2508 H 0.68173 0.60082 0.98095 0.0
H2509 H 0.71115 0.62052 0.98366 0.0
H2510 H 0.64603 0.61324 0.98759 0.0
H2511 H 0.6865 0.57571 0.00995 0.0
H2512 H 0.71129 0.57022 0.03186 0.0
H2513 H 0.68355 0.58 0.0802 0.0
H2514 H 0.65869 0.58579 0.05858 0.0
H2515 H 0.56717 0.54731 0.98336 0.0
H2516 H 0.59699 0.56314 0.97978 0.0
H2517 H 0.61097 0.5684 0.04138 0.0
H2518 H 0.58196 0.5507 0.04444 0.0
H2519 H 0.63728 0.564 0.02868 0.0
H2520 H 0.59881 0.60398 0.01107 0.0
H2521 H 0.57402 0.61341 0.99271 0.0
H2522 H 0.59674 0.60435 0.94051 0.0
H2523 H 0.62155 0.59466 0.95853 0.0
C2524 C 0.69894 0.63478 0.02674 0.0
C2525 C 0.70963 0.63387 0.01188 0.0
C2526 C 0.68237 0.62344 0.02526 0.0
C2527 C 0.676 0.61112 0.0088 0.0
C2528 C 0.68644 0.61031 0.99375 0.0
C2529 C 0.70325 0.62147 0.99537 0.0
C2530 C 0.6586 0.59884 0.00778 0.0
C2531 C 0.64405 0.60224 0.99629 0.0
C2532 C 0.65601 0.58504 0.01972 0.0
C2533 C 0.67082 0.5813 0.03267 0.0
C2534 C 0.68575 0.57681 0.02526 0.0
C2535 C 0.6998 0.57362 0.03763 0.0
C2536 C 0.69901 0.57479 0.05742 0.0
C2537 C 0.68415 0.5791 0.06487 0.0
C2538 C 0.67007 0.58231 0.05257 0.0
C2539 C 0.5768 0.55172 0.99601 0.0
C2540 C 0.57242 0.54793 0.01416 0.0
C2541 C 0.59377 0.56101 0.99404 0.0
C2542 C 0.60631 0.56758 0.01035 0.0
C2543 C 0.60177 0.56353 0.02848 0.0
C2544 C 0.58515 0.55346 0.03029 0.0
C2545 C 0.62418 0.57848 0.00875 0.0
C2546 C 0.63898 0.57486 0.0198 0.0
C2547 C 0.62682 0.59257 0.99694 0.0
C2548 C 0.61192 0.59841 0.98611 0.0
C2549 C 0.59845 0.6039 0.99566 0.0
C2550 C 0.58441 0.6093 0.98532 0.0
C2551 C 0.58378 0.60943 0.96545 0.0
C2552 C 0.59722 0.60421 0.95589 0.0
C2553 C 0.61128 0.59877 0.96616 0.0
H2554 H 0.5729 0.61362 0.95747 0.0
H2555 H 0.70991 0.57233 0.06696 0.0
H2556 H 0.67549 0.49898 0.30556 0.0
H2557 H 0.69067 0.47372 0.30804 0.0
H2558 H 0.66333 0.44856 0.25272 0.0
H2559 H 0.6476 0.47316 0.25071 0.0
H2560 H 0.66276 0.42451 0.27551 0.0
H2561 H 0.7094 0.47331 0.2623 0.0
H2562 H 0.72907 0.5032 0.26999 0.0
H2563 H 0.74923 0.48856 0.32395 0.0
H2564 H 0.72955 0.45865 0.31664 0.0
H2565 H 0.71318 0.37133 0.22994 0.0
H2566 H 0.69645 0.39257 0.24293 0.0
H2567 H 0.73102 0.4017 0.29655 0.0
H2568 H 0.74835 0.38068 0.28315 0.0
H2569 H 0.72809 0.43259 0.2844 0.0
H2570 H 0.68601 0.38142 0.29373 0.0
H2571 H 0.66656 0.35146 0.28586 0.0
H2572 H 0.6377 0.37019 0.23935 0.0
H2573 H 0.65709 0.40018 0.24677 0.0
C2574 C 0.67284 0.48807 0.29392 0.0
C2575 C 0.66039 0.48804 0.27792 0.0
C2576 C 0.68154 0.47365 0.29532 0.0
C2577 C 0.67829 0.45922 0.28049 0.0
C2578 C 0.66601 0.45941 0.26443 0.0
C2579 C 0.65708 0.47355 0.26324 0.0
C2580 C 0.68741 0.44375 0.28132 0.0
C2581 C 0.67706 0.42629 0.27736 0.0
C2582 C 0.70604 0.44593 0.28474 0.0
C2583 C 0.71788 0.46386 0.28902 0.0
C2584 C 0.71796 0.47652 0.27584 0.0
C2585 C 0.72912 0.49345 0.28013 0.0
C2586 C 0.74035 0.4978 0.29747 0.0
C2587 C 0.7405 0.48519 0.31054 0.0
C2588 C 0.72936 0.46826 0.30633 0.0
C2589 C 0.7171 0.37768 0.24459 0.0
C2590 C 0.73223 0.37458 0.25542 0.0
C2591 C 0.70739 0.38969 0.25212 0.0
C2592 C 0.71236 0.39871 0.27081 0.0
C2593 C 0.72692 0.3949 0.2821 0.0
C2594 C 0.73674 0.38282 0.2745 0.0
C2595 C 0.70343 0.41342 0.27739 0.0
C2596 C 0.71378 0.43073 0.28291 0.0
C2597 C 0.68478 0.41112 0.27534 0.0
C2598 C 0.67306 0.39306 0.2708 0.0
C2599 C 0.67558 0.37913 0.28176 0.0
C2600 C 0.66455 0.36214 0.27738 0.0
C2601 C 0.65091 0.35892 0.26211 0.0
C2602 C 0.64825 0.3727 0.25119 0.0
C2603 C 0.65924 0.38971 0.2555 0.0
H2604 H 0.64238 0.34576 0.25875 0.0
H2605 H 0.74897 0.51091 0.30077 0.0
H2606 H 0.84461 0.48242 0.5323 0.0
H2607 H 0.87562 0.49312 0.5281 0.0
H2608 H 0.87454 0.44427 0.4908 0.0
H2609 H 0.84389 0.43328 0.49585 0.0
H2610 H 0.89939 0.4488 0.51944 0.0
H2611 H 0.8814 0.48505 0.4733 0.0
H2612 H 0.86485 0.50631 0.45951 0.0
H2613 H 0.88975 0.54751 0.50534 0.0
H2614 H 0.90631 0.52644 0.51954 0.0
H2615 H 0.98666 0.48397 0.49859 0.0
H2616 H 0.95593 0.46958 0.49982 0.0
H2617 H 0.95167 0.51167 0.54381 0.0
H2618 H 0.98251 0.52603 0.54255 0.0
H2619 H 0.92996 0.50934 0.50812 0.0
H2620 H 0.9441 0.47085 0.55608 0.0
H2621 H 0.96117 0.44959 0.56895 0.0
H2622 H 0.9443 0.41305 0.51709 0.0
H2623 H 0.9269 0.43405 0.50402 0.0
C2624 C 0.85109 0.4742 0.52311 0.0
C2625 C 0.84249 0.457 0.51481 0.0
C2626 C 0.86857 0.48034 0.52046 0.0
C2627 C 0.87716 0.46943 0.50906 0.0
C2628 C 0.86802 0.45275 0.49967 0.0
C2629 C 0.85074 0.44647 0.50269 0.0
C2630 C 0.89629 0.47413 0.50962 0.0
C2631 C 0.90608 0.4619 0.51655 0.0
C2632 C 0.90483 0.4913 0.50615 0.0
C2633 C 0.89503 0.50411 0.49755 0.0
C2634 C 0.88327 0.49861 0.48051 0.0
C2635 C 0.8739 0.51064 0.4726 0.0
C2636 C 0.87623 0.52824 0.48156 0.0
C2637 C 0.88797 0.53387 0.49841 0.0
C2638 C 0.89738 0.5219 0.50637 0.0
C2639 C 0.97929 0.48955 0.5091 0.0
C2640 C 0.98643 0.50583 0.52053 0.0
C2641 C 0.9619 0.48142 0.50981 0.0
C2642 C 0.95181 0.48978 0.52181 0.0
C2643 C 0.95952 0.50519 0.53454 0.0
C2644 C 0.97696 0.51326 0.53391 0.0
C2645 C 0.93272 0.48426 0.51855 0.0
C2646 C 0.9231 0.49624 0.51086 0.0
C2647 C 0.92431 0.46686 0.5211 0.0
C2648 C 0.93426 0.45398 0.5291 0.0
C2649 C 0.94404 0.45826 0.54745 0.0
C2650 C 0.95377 0.44627 0.55477 0.0
C2651 C 0.95391 0.43001 0.54382 0.0
C2652 C 0.94417 0.42564 0.52557 0.0
C2653 C 0.93428 0.43753 0.51824 0.0
H2654 H 0.96154 0.42079 0.54949 0.0
H2655 H 0.86894 0.53753 0.47543 0.0
H2656 H 0.34385 0.05799 0.27641 0.0
H2657 H 0.33603 0.08714 0.27442 0.0
H2658 H 0.36327 0.10619 0.3314 0.0
H2659 H 0.37162 0.07684 0.33346 0.0
H2660 H 0.32243 0.1095 0.31545 0.0
H2661 H 0.3851 0.12232 0.30603 0.0
H2662 H 0.40981 0.11312 0.29101 0.0
H2663 H 0.38193 0.11249 0.23499 0.0
H2664 H 0.35687 0.12119 0.24963 0.0
H2665 H 0.29251 0.18289 0.28063 0.0
H2666 H 0.31103 0.16692 0.29939 0.0
H2667 H 0.32539 0.14224 0.24705 0.0
H2668 H 0.30856 0.15976 0.2283 0.0
H2669 H 0.352 0.14874 0.27142 0.0
H2670 H 0.29107 0.12312 0.27132 0.0
H2671 H 0.25994 0.12049 0.27693 0.0
H2672 H 0.2759 0.13205 0.33777 0.0
H2673 H 0.3072 0.13521 0.33248 0.0
C2674 C 0.34799 0.06827 0.28864 0.0
C2675 C 0.3583 0.06536 0.30512 0.0
C2676 C 0.34363 0.08485 0.28742 0.0
C2677 C 0.34939 0.09855 0.30269 0.0
C2678 C 0.35901 0.09558 0.31952 0.0
C2679 C 0.36368 0.07897 0.32065 0.0
C2680 C 0.34507 0.11591 0.30047 0.0
C2681 C 0.32913 0.11867 0.30647 0.0
C2682 C 0.35355 0.12677 0.28777 0.0
C2683 C 0.36909 0.12246 0.27899 0.0
C2684 C 0.38421 0.12017 0.29052 0.0
C2685 C 0.39827 0.11501 0.28205 0.0
C2686 C 0.39745 0.11224 0.26206 0.0
C2687 C 0.38258 0.11467 0.25048 0.0
C2688 C 0.36844 0.11974 0.25886 0.0
C2689 C 0.30002 0.17446 0.27311 0.0
C2690 C 0.29911 0.17257 0.25293 0.0
C2691 C 0.31041 0.16521 0.28388 0.0
C2692 C 0.31939 0.15333 0.27459 0.0
C2693 C 0.31861 0.15148 0.25449 0.0
C2694 C 0.30871 0.1612 0.24375 0.0
C2695 C 0.32869 0.14185 0.28552 0.0
C2696 C 0.34562 0.14032 0.28124 0.0
C2697 C 0.32029 0.13091 0.29835 0.0
C2698 C 0.30153 0.12989 0.30148 0.0
C2699 C 0.28798 0.12546 0.28587 0.0
C2700 C 0.27029 0.12381 0.289 0.0
C2701 C 0.26595 0.12623 0.30769 0.0
C2702 C 0.27929 0.13032 0.32329 0.0
C2703 C 0.29701 0.13212 0.32024 0.0
H2704 H 0.25224 0.12484 0.31009 0.0
H2705 H 0.40834 0.1082 0.25554 0.0
H2706 H 0.32353 0.14776 0.47943 0.0
H2707 H 0.34831 0.13228 0.48306 0.0
H2708 H 0.32971 0.11171 0.53363 0.0
H2709 H 0.30473 0.12701 0.53002 0.0
H2710 H 0.36634 0.12795 0.53807 0.0
H2711 H 0.32363 0.08387 0.49497 0.0
H2712 H 0.30223 0.07369 0.46579 0.0
H2713 H 0.34351 0.08739 0.43056 0.0
H2714 H 0.36513 0.0979 0.45958 0.0
H2715 H 0.41943 0.06728 0.55629 0.0
H2716 H 0.39208 0.07721 0.54622 0.0
H2717 H 0.41328 0.09431 0.49536 0.0
H2718 H 0.4406 0.08383 0.50523 0.0
H2719 H 0.37587 0.08022 0.48933 0.0
H2720 H 0.41845 0.12455 0.53138 0.0
H2721 H 0.44045 0.13458 0.56009 0.0
H2722 H 0.39999 0.12147 0.59646 0.0
H2723 H 0.37779 0.11106 0.56792 0.0
C2724 C 0.32465 0.13989 0.49129 0.0
C2725 C 0.31215 0.1386 0.50444 0.0
C2726 C 0.33879 0.13102 0.4933 0.0
C2727 C 0.34076 0.12081 0.50855 0.0
C2728 C 0.32837 0.11953 0.52174 0.0
C2729 C 0.31409 0.12823 0.51963 0.0
C2730 C 0.35601 0.11182 0.51101 0.0
C2731 C 0.3683 0.11737 0.52753 0.0
C2732 C 0.35883 0.09845 0.49692 0.0
C2733 C 0.34596 0.09183 0.47944 0.0
C2734 C 0.32812 0.08483 0.481 0.0
C2735 C 0.31596 0.07898 0.4645 0.0
C2736 C 0.3215 0.07994 0.44633 0.0
C2737 C 0.33924 0.08668 0.44464 0.0
C2738 C 0.35146 0.09256 0.46112 0.0
C2739 C 0.41808 0.07286 0.5428 0.0
C2740 C 0.43208 0.07508 0.53163 0.0
C2741 C 0.40248 0.07845 0.53702 0.0
C2742 C 0.40079 0.08674 0.52021 0.0
C2743 C 0.41434 0.08793 0.50837 0.0
C2744 C 0.42991 0.08206 0.51404 0.0
C2745 C 0.38596 0.09614 0.51657 0.0
C2746 C 0.37388 0.09081 0.49983 0.0
C2747 C 0.38337 0.10991 0.53033 0.0
C2748 C 0.39648 0.11695 0.54753 0.0
C2749 C 0.41425 0.12378 0.54551 0.0
C2750 C 0.42677 0.12951 0.56174 0.0
C2751 C 0.42163 0.12865 0.58009 0.0
C2752 C 0.40395 0.12214 0.58224 0.0
C2753 C 0.39139 0.11634 0.56604 0.0
H2754 H 0.43134 0.13305 0.59265 0.0
H2755 H 0.31205 0.07542 0.43357 0.0
H2756 H 0.67341 0.59117 0.30945 0.0
H2757 H 0.69217 0.62142 0.31272 0.0
H2758 H 0.67721 0.62478 0.25278 0.0
H2759 H 0.65843 0.59496 0.24942 0.0
H2760 H 0.71444 0.63242 0.26498 0.0
H2761 H 0.66015 0.64763 0.28382 0.0
H2762 H 0.63599 0.64684 0.30401 0.0
H2763 H 0.67371 0.66795 0.35379 0.0
H2764 H 0.69813 0.6686 0.33393 0.0
H2765 H 0.7479 0.71997 0.248 0.0
H2766 H 0.72982 0.69085 0.25068 0.0
H2767 H 0.73444 0.70447 0.31226 0.0
H2768 H 0.75062 0.73477 0.30902 0.0
H2769 H 0.70447 0.68705 0.30297 0.0
H2770 H 0.75899 0.67376 0.28517 0.0
H2771 H 0.78371 0.675 0.2657 0.0
H2772 H 0.74755 0.64956 0.21604 0.0
H2773 H 0.72258 0.64843 0.23513 0.0
C2774 C 0.67406 0.59842 0.29702 0.0
C2775 C 0.66449 0.59059 0.27915 0.0
C2776 C 0.68472 0.6157 0.29893 0.0
C2777 C 0.68607 0.62529 0.28297 0.0
C2778 C 0.67638 0.61758 0.26525 0.0
C2779 C 0.66562 0.6005 0.26338 0.0
C2780 C 0.69815 0.64303 0.2842 0.0
C2781 C 0.71229 0.64442 0.27324 0.0
C2782 C 0.69565 0.65849 0.2955 0.0
C2783 C 0.68097 0.6579 0.30743 0.0
C2784 C 0.66331 0.65188 0.29911 0.0
C2785 C 0.64956 0.65152 0.31048 0.0
C2786 C 0.65331 0.65727 0.33018 0.0
C2787 C 0.67082 0.66345 0.33854 0.0
C2788 C 0.68462 0.66381 0.32723 0.0
C2789 C 0.74509 0.71667 0.26211 0.0
C2790 C 0.75065 0.72947 0.27834 0.0
C2791 C 0.7349 0.6999 0.2637 0.0
C2792 C 0.73122 0.69496 0.28179 0.0
C2793 C 0.7371 0.70777 0.29812 0.0
C2794 C 0.74646 0.72501 0.29634 0.0
C2795 C 0.72086 0.67667 0.28347 0.0
C2796 C 0.707 0.6751 0.29497 0.0
C2797 C 0.72383 0.6609 0.27293 0.0
C2798 C 0.73891 0.66106 0.26158 0.0
C2799 C 0.75631 0.66844 0.2701 0.0
C2800 C 0.77036 0.66915 0.25911 0.0
C2801 C 0.7672 0.66236 0.23964 0.0
C2802 C 0.74998 0.6548 0.23112 0.0
C2803 C 0.73588 0.6541 0.24202 0.0
H2804 H 0.77809 0.66295 0.23116 0.0
H2805 H 0.64265 0.657 0.33896 0.0
H2806 H 0.82676 0.46236 0.7603 0.0
H2807 H 0.81432 0.43118 0.76409 0.0
H2808 H 0.86502 0.42575 0.79209 0.0
H2809 H 0.87782 0.456 0.78613 0.0
H2810 H 0.85535 0.40118 0.76574 0.0
H2811 H 0.82574 0.42332 0.81611 0.0
H2812 H 0.80741 0.44112 0.83319 0.0
H2813 H 0.76278 0.41891 0.79076 0.0
H2814 H 0.78085 0.40112 0.77333 0.0
H2815 H 0.81723 0.31583 0.79162 0.0
H2816 H 0.83283 0.34613 0.78847 0.0
H2817 H 0.7895 0.35245 0.74769 0.0
H2818 H 0.77382 0.32205 0.75103 0.0
H2819 H 0.79619 0.37563 0.78279 0.0
H2820 H 0.82862 0.3549 0.73212 0.0
H2821 H 0.84713 0.3349 0.71891 0.0
H2822 H 0.88687 0.35322 0.76756 0.0
H2823 H 0.86863 0.37339 0.781 0.0
C2824 C 0.83515 0.45428 0.76701 0.0
C2825 C 0.8532 0.46107 0.77244 0.0
C2826 C 0.828 0.43675 0.76967 0.0
C2827 C 0.83875 0.42633 0.77861 0.0
C2828 C 0.85658 0.43363 0.78508 0.0
C2829 C 0.86389 0.45076 0.78153 0.0
C2830 C 0.83231 0.40704 0.77807 0.0
C2831 C 0.84254 0.39566 0.76988 0.0
C2832 C 0.81551 0.39987 0.78312 0.0
C2833 C 0.80473 0.411 0.79331 0.0
C2834 C 0.81207 0.42238 0.8103 0.0
C2835 C 0.8017 0.43243 0.82008 0.0
C2836 C 0.78396 0.43119 0.81304 0.0
C2837 C 0.77653 0.41988 0.7962 0.0
C2838 C 0.78682 0.40979 0.78639 0.0
C2839 C 0.8115 0.32354 0.78145 0.0
C2840 C 0.79464 0.31716 0.77146 0.0
C2841 C 0.82034 0.34064 0.7796 0.0
C2842 C 0.81215 0.3512 0.76785 0.0
C2843 C 0.79585 0.3442 0.75669 0.0
C2844 C 0.78701 0.32707 0.75857 0.0
C2845 C 0.81904 0.37034 0.77007 0.0
C2846 C 0.80897 0.38147 0.77876 0.0
C2847 C 0.83609 0.37729 0.76594 0.0
C2848 C 0.84729 0.36563 0.75753 0.0
C2849 C 0.84132 0.35466 0.73997 0.0
C2850 C 0.85175 0.34329 0.73246 0.0
C2851 C 0.86814 0.34276 0.74241 0.0
C2852 C 0.87419 0.35368 0.75984 0.0
C2853 C 0.86386 0.36514 0.76737 0.0
H2854 H 0.87616 0.33389 0.7366 0.0
H2855 H 0.77595 0.43896 0.82064 0.0
H2856 H 0.04246 0.82547 0.04618 0.0
H2857 H 0.03883 0.85461 0.03696 0.0
H2858 H 0.04713 0.87684 0.09658 0.0
H2859 H 0.05034 0.84732 0.10596 0.0
H2860 H 0.02212 0.89027 0.07997 0.0
H2861 H 0.07934 0.88619 0.06226 0.0
H2862 H 0.10151 0.87284 0.04643 0.0
H2863 H 0.07192 0.87199 0.99128 0.0
H2864 H 0.04947 0.88517 0.0068 0.0
H2865 H 0.03546 0.98234 0.06077 0.0
H2866 H 0.03952 0.95329 0.07047 0.0
H2867 H 0.02379 0.92857 0.01204 0.0
H2868 H 0.01976 0.95763 0.00223 0.0
H2869 H 0.05275 0.91689 0.02816 0.0
H2870 H 0.99606 0.92168 0.04566 0.0
H2871 H 0.97457 0.93634 0.06117 0.0
H2872 H 0.00347 0.93648 0.11656 0.0
H2873 H 0.02535 0.92211 0.10132 0.0
C2874 C 0.04364 0.83651 0.05746 0.0
C2875 C 0.04682 0.83374 0.07693 0.0
C2876 C 0.04167 0.85341 0.05208 0.0
C2877 C 0.04297 0.86845 0.06591 0.0
C2878 C 0.04609 0.86573 0.08542 0.0
C2879 C 0.04804 0.84873 0.09083 0.0
C2880 C 0.04071 0.88669 0.05998 0.0
C2881 C 0.02911 0.89612 0.06885 0.0
C2882 C 0.04928 0.89456 0.04506 0.0
C2883 C 0.06264 0.88647 0.03571 0.0
C2884 C 0.07749 0.88301 0.04677 0.0
C2885 C 0.09012 0.87551 0.03785 0.0
C2886 C 0.08809 0.87152 0.01787 0.0
C2887 C 0.07345 0.87506 0.00675 0.0
C2888 C 0.06078 0.88256 0.0156 0.0
C2889 C 0.03281 0.97076 0.04991 0.0
C2890 C 0.02712 0.97255 0.03065 0.0
C2891 C 0.0351 0.95401 0.05554 0.0
C2892 C 0.03188 0.93841 0.04212 0.0
C2893 C 0.0264 0.94021 0.02282 0.0
C2894 C 0.02397 0.95694 0.01721 0.0
C2895 C 0.03428 0.92036 0.0482 0.0
C2896 C 0.04584 0.91099 0.03932 0.0
C2897 C 0.02569 0.91258 0.06309 0.0
C2898 C 0.01245 0.92098 0.07233 0.0
C2899 C 0.99792 0.92496 0.06113 0.0
C2900 C 0.98566 0.9332 0.06988 0.0
C2901 C 0.98768 0.93738 0.08984 0.0
C2902 C 1.00194 0.93326 0.10109 0.0
C2903 C 0.01428 0.92506 0.09241 0.0
H2904 H 0.97818 0.94376 0.09658 0.0
H2905 H 0.09789 0.86572 0.01099 0.0
H2906 H 0.92933 0.25169 0.92012 0.0
H2907 H 0.90397 0.25334 0.89731 0.0
H2908 H 0.93874 0.26849 0.85529 0.0
H2909 H 0.96437 0.26688 0.87824 0.0
H2910 H 0.91401 0.28946 0.8565 0.0
H2911 H 0.91237 0.22614 0.85073 0.0
H2912 H 0.91211 0.19662 0.86219 0.0
H2913 H 0.86419 0.19958 0.88664 0.0
H2914 H 0.86429 0.22923 0.87554 0.0
H2915 H 0.84208 0.28554 0.78385 0.0
H2916 H 0.86896 0.28117 0.80212 0.0
H2917 H 0.83795 0.25484 0.84238 0.0
H2918 H 0.81093 0.25705 0.82268 0.0
H2919 H 0.86234 0.23894 0.84029 0.0
H2920 H 0.8649 0.30323 0.84847 0.0
H2921 H 0.86468 0.33258 0.83672 0.0
H2922 H 0.91038 0.32823 0.8085 0.0
H2923 H 0.91074 0.29875 0.81991 0.0
C2924 C 0.93168 0.25528 0.90601 0.0
C2925 C 0.94905 0.25909 0.90113 0.0
C2926 C 0.91705 0.25615 0.89286 0.0
C2927 C 0.91923 0.26089 0.87435 0.0
C2928 C 0.93657 0.26476 0.8694 0.0
C2929 C 0.95126 0.26374 0.88254 0.0
C2930 C 0.90343 0.26211 0.86049 0.0
C2931 C 0.90281 0.27831 0.85278 0.0
C2932 C 0.88852 0.2478 0.85576 0.0
C2933 C 0.88843 0.22998 0.86246 0.0
C2934 C 0.90185 0.22056 0.85868 0.0
C2935 C 0.90172 0.20379 0.86509 0.0
C2936 C 0.88817 0.19625 0.87518 0.0
C2937 C 0.87469 0.20544 0.87884 0.0
C2938 C 0.87477 0.22222 0.87248 0.0
C2939 C 0.84086 0.27839 0.7963 0.0
C2940 C 0.82406 0.2715 0.80147 0.0
C2941 C 0.85644 0.27628 0.80715 0.0
C2942 C 0.85589 0.2681 0.82422 0.0
C2943 C 0.83909 0.26126 0.82942 0.0
C2944 C 0.82349 0.26272 0.81815 0.0
C2945 C 0.87258 0.26651 0.83661 0.0
C2946 C 0.87345 0.25017 0.84401 0.0
C2947 C 0.88764 0.28079 0.84122 0.0
C2948 C 0.88777 0.29875 0.83492 0.0
C2949 C 0.87489 0.30854 0.83974 0.0
C2950 C 0.87473 0.32518 0.83312 0.0
C2951 C 0.88748 0.33225 0.82183 0.0
C2952 C 0.9005 0.32273 0.81723 0.0
C2953 C 0.90071 0.30607 0.82379 0.0
H2954 H 0.8873 0.3451 0.81666 0.0
H2955 H 0.88809 0.18326 0.88012 0.0
H2956 H 0.54763 0.22669 0.6057 0.0
H2957 H 0.54551 0.19428 0.59728 0.0
H2958 H 0.53871 0.20084 0.53715 0.0
H2959 H 0.54069 0.23309 0.54546 0.0
H2960 H 0.51688 0.17123 0.5421 0.0
H2961 H 0.57848 0.19414 0.56092 0.0
H2962 H 0.60517 0.21056 0.58199 0.0
H2963 H 0.59353 0.17559 0.62506 0.0
H2964 H 0.56659 0.1591 0.60433 0.0
H2965 H 0.54006 0.08717 0.50595 0.0
H2966 H 0.54181 0.11944 0.51528 0.0
H2967 H 0.53306 0.10913 0.5728 0.0
H2968 H 0.53063 0.0768 0.56339 0.0
H2969 H 0.56263 0.14018 0.56932 0.0
H2970 H 0.50088 0.11694 0.5493 0.0
H2971 H 0.47465 0.10081 0.52737 0.0
H2972 H 0.48732 0.13669 0.48544 0.0
H2973 H 0.51391 0.15285 0.50694 0.0
C2974 C 0.54562 0.22127 0.59067 0.0
C2975 C 0.54436 0.23279 0.57634 0.0
C2976 C 0.54451 0.20261 0.58581 0.0
C2977 C 0.5421 0.19477 0.56645 0.0
C2978 C 0.54055 0.20624 0.55218 0.0
C2979 C 0.54176 0.22486 0.55701 0.0
C2980 C 0.54125 0.17479 0.56102 0.0
C2981 C 0.52705 0.16459 0.54795 0.0
C2982 C 0.55426 0.16566 0.56866 0.0
C2983 C 0.57041 0.17552 0.58117 0.0
C2984 C 0.58152 0.19005 0.57495 0.0
C2985 C 0.59671 0.19935 0.58682 0.0
C2986 C 0.60101 0.19416 0.60488 0.0
C2987 C 0.59015 0.17962 0.61108 0.0
C2988 C 0.57493 0.17028 0.59928 0.0
C2989 C 0.53854 0.09173 0.52061 0.0
C2990 C 0.53512 0.0792 0.53385 0.0
C2991 C 0.53951 0.11027 0.52594 0.0
C2992 C 0.53755 0.11694 0.54481 0.0
C2993 C 0.53463 0.1045 0.55818 0.0
C2994 C 0.53319 0.08592 0.55273 0.0
C2995 C 0.53829 0.13676 0.5505 0.0
C2996 C 0.55248 0.14689 0.56354 0.0
C2997 C 0.52536 0.14584 0.54273 0.0
C2998 C 0.50955 0.13597 0.52964 0.0
C2999 C 0.49824 0.12126 0.5353 0.0
C3000 C 0.48326 0.11213 0.52298 0.0
C3001 C 0.47933 0.11768 0.50503 0.0
C3002 C 0.4904 0.13238 0.49934 0.0
C3003 C 0.50544 0.14152 0.51158 0.0
H3004 H 0.46769 0.11063 0.49555 0.0
H3005 H 0.61278 0.20138 0.61405 0.0
H3006 H 0.53705 0.76385 0.38041 0.0
H3007 H 0.56122 0.76554 0.36038 0.0
H3008 H 0.59896 0.77213 0.41124 0.0
H3009 H 0.57505 0.77066 0.43123 0.0
H3010 H 0.61043 0.79549 0.3879 0.0
H3011 H 0.58621 0.73192 0.38056 0.0
H3012 H 0.56281 0.70464 0.3723 0.0
H3013 H 0.55477 0.71676 0.31425 0.0
H3014 H 0.57794 0.74428 0.32224 0.0
H3015 H 0.6865 0.78727 0.34565 0.0
H3016 H 0.66147 0.77817 0.36355 0.0
H3017 H 0.62536 0.77349 0.31165 0.0
H3018 H 0.65043 0.7824 0.29379 0.0
H3019 H 0.61262 0.74864 0.33461 0.0
H3020 H 0.63552 0.81197 0.34139 0.0
H3021 H 0.65869 0.8395 0.34868 0.0
H3022 H 0.66839 0.82845 0.40694 0.0
H3023 H 0.64547 0.80064 0.39989 0.0
C3024 C 0.5505 0.76564 0.38733 0.0
C3025 C 0.55403 0.7671 0.40749 0.0
C3026 C 0.56433 0.76651 0.37583 0.0
C3027 C 0.58201 0.7688 0.38422 0.0
C3028 C 0.5855 0.77034 0.40434 0.0
C3029 C 0.57174 0.76945 0.41579 0.0
C3030 C 0.59699 0.77005 0.37229 0.0
C3031 C 0.61097 0.78508 0.37645 0.0
C3032 C 0.59759 0.7568 0.35689 0.0
C3033 C 0.58367 0.74027 0.35206 0.0
C3034 C 0.57934 0.72885 0.36608 0.0
C3035 C 0.56613 0.71334 0.36143 0.0
C3036 C 0.55727 0.709 0.34278 0.0
C3037 C 0.56162 0.72015 0.32871 0.0
C3038 C 0.57479 0.73571 0.33328 0.0
C3039 C 0.67327 0.7835 0.33794 0.0
C3040 C 0.67041 0.78524 0.31829 0.0
C3041 C 0.65893 0.77854 0.34821 0.0
C3042 C 0.64143 0.77546 0.33906 0.0
C3043 C 0.63867 0.7758 0.31909 0.0
C3044 C 0.65301 0.78077 0.30884 0.0
C3045 C 0.62613 0.77389 0.35053 0.0
C3046 C 0.61207 0.75895 0.34617 0.0
C3047 C 0.62533 0.78729 0.36567 0.0
C3048 C 0.63892 0.80413 0.37005 0.0
C3049 C 0.64268 0.81535 0.35572 0.0
C3050 C 0.65576 0.831 0.35981 0.0
C3051 C 0.66503 0.8357 0.37825 0.0
C3052 C 0.66121 0.82477 0.39266 0.0
C3053 C 0.64818 0.80906 0.38862 0.0
H3054 H 0.67515 0.84783 0.3814 0.0
H3055 H 0.54705 0.69697 0.33921 0.0
H3056 H 0.06453 0.26584 0.41349 0.0
H3057 H 0.05948 0.23822 0.42865 0.0
H3058 H 0.01058 0.21908 0.39117 0.0
H3059 H 0.01552 0.24684 0.37588 0.0
H3060 H 0.00699 0.21245 0.42856 0.0
H3061 H 0.04614 0.20175 0.38267 0.0
H3062 H 0.07265 0.2094 0.36633 0.0
H3063 H 0.10592 0.2111 0.41937 0.0
H3064 H 0.07957 0.20366 0.43609 0.0
H3065 H 0.99389 0.12438 0.4537 0.0
H3066 H 1.00013 0.1485 0.43329 0.0
H3067 H 0.04943 0.17033 0.46931 0.0
H3068 H 0.04326 0.14599 0.48954 0.0
H3069 H 0.0525 0.1747 0.43108 0.0
H3070 H 0.01348 0.1866 0.47711 0.0
H3071 H 0.98705 0.17897 0.4936 0.0
H3072 H 0.9536 0.1754 0.44029 0.0
H3073 H 0.97987 0.18269 0.42342 0.0
C3074 C 0.05266 0.25581 0.40841 0.0
C3075 C 0.0405 0.25865 0.39332 0.0
C3076 C 0.04982 0.23993 0.4171 0.0
C3077 C 0.03474 0.22635 0.41097 0.0
C3078 C 0.02234 0.22927 0.39619 0.0
C3079 C 0.02522 0.24518 0.38741 0.0
C3080 C 0.03209 0.20915 0.41995 0.0
C3081 C 0.01682 0.20407 0.4288 0.0
C3082 C 0.04502 0.19827 0.42071 0.0
C3083 C 0.06089 0.20226 0.41065 0.0
C3084 C 0.05911 0.20382 0.39087 0.0
C3085 C 0.0741 0.20812 0.38154 0.0
C3086 C 0.09096 0.21077 0.39181 0.0
C3087 C 0.09285 0.20904 0.41143 0.0
C3088 C 0.07789 0.20476 0.42084 0.0
C3089 C 0.00633 0.13399 0.45685 0.0
C3090 C 0.01821 0.13318 0.47305 0.0
C3091 C 0.00983 0.14789 0.44529 0.0
C3092 C 0.02515 0.1615 0.44986 0.0
C3093 C 0.03754 0.16005 0.46539 0.0
C3094 C 0.03405 0.14609 0.47692 0.0
C3095 C 0.02739 0.17801 0.43967 0.0
C3096 C 0.04261 0.18301 0.43069 0.0
C3097 C 0.01443 0.18886 0.4388 0.0
C3098 C 0.99862 0.18505 0.44898 0.0
C3099 C 1.00048 0.18411 0.4689 0.0
C3100 C 0.98554 0.17984 0.47831 0.0
C3101 C 0.96865 0.17667 0.46799 0.0
C3102 C 0.96669 0.17784 0.44826 0.0
C3103 C 0.9816 0.18205 0.43876 0.0
H3104 H 0.9571 0.17335 0.4753 0.0
H3105 H 0.10255 0.21413 0.38457 0.0
H3106 H 0.57112 0.22032 0.21304 0.0
H3107 H 0.60259 0.22624 0.22418 0.0
H3108 H 0.60463 0.2832 0.22625 0.0
H3109 H 0.57272 0.27727 0.21459 0.0
H3110 H 0.6337 0.27569 0.21253 0.0
H3111 H 0.60712 0.26168 0.26829 0.0
H3112 H 0.58706 0.24456 0.28788 0.0
H3113 H 0.61113 0.19888 0.27738 0.0
H3114 H 0.6312 0.21567 0.25752 0.0
H3115 H 0.72101 0.29629 0.26376 0.0
H3116 H 0.68937 0.29331 0.2543 0.0
H3117 H 0.68243 0.23567 0.25089 0.0
H3118 H 0.71422 0.23866 0.26049 0.0
H3119 H 0.65579 0.24546 0.26643 0.0
H3120 H 0.68188 0.26023 0.20932 0.0
H3121 H 0.70249 0.27863 0.19123 0.0
H3122 H 0.67978 0.32447 0.20614 0.0
H3123 H 0.65913 0.30636 0.22443 0.0
C3124 C 0.57808 0.2342 0.21593 0.0
C3125 C 0.56899 0.24828 0.21298 0.0
C3126 C 0.59629 0.23759 0.22245 0.0
C3127 C 0.60633 0.25523 0.22653 0.0
C3128 C 0.59741 0.26942 0.22339 0.0
C3129 C 0.57903 0.26601 0.21678 0.0
C3130 C 0.62597 0.25851 0.23389 0.0
C3131 C 0.63842 0.26926 0.22451 0.0
C3132 C 0.6326 0.25006 0.2494 0.0
C3133 C 0.62054 0.23988 0.26127 0.0
C3134 C 0.60804 0.24794 0.27004 0.0
C3135 C 0.59669 0.2383 0.28122 0.0
C3136 C 0.59779 0.22062 0.28384 0.0
C3137 C 0.61028 0.21256 0.27532 0.0
C3138 C 0.62166 0.22214 0.26412 0.0
C3139 C 0.71284 0.28291 0.26104 0.0
C3140 C 0.72048 0.2677 0.26313 0.0
C3141 C 0.69458 0.28121 0.25545 0.0
C3142 C 0.68316 0.26422 0.25142 0.0
C3143 C 0.69069 0.249 0.25381 0.0
C3144 C 0.70901 0.25071 0.25948 0.0
C3145 C 0.66352 0.26235 0.24487 0.0
C3146 C 0.65106 0.25188 0.25444 0.0
C3147 C 0.65693 0.27119 0.22967 0.0
C3148 C 0.66904 0.28198 0.21833 0.0
C3149 C 0.68132 0.27425 0.20877 0.0
C3150 C 0.69301 0.28462 0.19848 0.0
C3151 C 0.69246 0.30272 0.19757 0.0
C3152 C 0.68018 0.31045 0.20686 0.0
C3153 C 0.66846 0.30013 0.21715 0.0
H3154 H 0.70155 0.31074 0.18964 0.0
H3155 H 0.58899 0.21319 0.2925 0.0
H3156 H 0.50532 0.84259 0.89871 0.0
H3157 H 0.50853 0.87102 0.91896 0.0
H3158 H 0.56424 0.88302 0.91383 0.0
H3159 H 0.56112 0.85415 0.89341 0.0
H3160 H 0.55805 0.89266 0.95102 0.0
H3161 H 0.53591 0.90414 0.88863 0.0
H3162 H 0.51601 0.89831 0.85808 0.0
H3163 H 0.47168 0.90221 0.88881 0.0
H3164 H 0.4913 0.90786 0.91957 0.0
H3165 H 0.56254 0.98856 0.9831 0.0
H3166 H 0.56386 0.96067 0.96282 0.0
H3167 H 0.51247 0.93619 0.9759 0.0
H3168 H 0.51139 0.96361 0.99666 0.0
H3169 H 0.51867 0.93429 0.93365 0.0
H3170 H 0.5395 0.91853 0.99535 0.0
H3171 H 0.5585 0.92232 0.02634 0.0
H3172 H 0.60462 0.92673 0.99703 0.0
H3173 H 0.58582 0.92263 0.96578 0.0
C3174 C 0.51833 0.85116 0.90182 0.0
C3175 C 0.53294 0.84592 0.8942 0.0
C3176 C 0.52013 0.86758 0.91343 0.0
C3177 C 0.53658 0.8795 0.91784 0.0
C3178 C 0.55135 0.8742 0.91066 0.0
C3179 C 0.54955 0.85766 0.8989 0.0
C3180 C 0.53802 0.89741 0.92972 0.0
C3181 C 0.54967 0.90189 0.94695 0.0
C3182 C 0.52689 0.90949 0.92487 0.0
C3183 C 0.51506 0.90631 0.9064 0.0
C3184 C 0.5219 0.90366 0.88888 0.0
C3185 C 0.51068 0.9004 0.87152 0.0
C3186 C 0.49259 0.89986 0.87151 0.0
C3187 C 0.48569 0.90263 0.88884 0.0
C3188 C 0.49687 0.90589 0.90624 0.0
C3189 C 0.55159 0.97718 0.98171 0.0
C3190 C 0.53691 0.97832 0.99159 0.0
C3191 C 0.55236 0.96122 0.97015 0.0
C3192 C 0.53826 0.94623 0.96779 0.0
C3193 C 0.52353 0.94747 0.97748 0.0
C3194 C 0.52297 0.96318 0.98942 0.0
C3195 C 0.53858 0.92941 0.9549 0.0
C3196 C 0.52721 0.92515 0.93752 0.0
C3197 C 0.54993 0.91755 0.95962 0.0
C3198 C 0.56131 0.92056 0.97829 0.0
C3199 C 0.55371 0.92053 0.99554 0.0
C3200 C 0.56443 0.92267 0.01314 0.0
C3201 C 0.58277 0.925 0.01369 0.0
C3202 C 0.59042 0.92502 0.99659 0.0
C3203 C 0.57974 0.9227 0.97893 0.0
H3204 H 0.59104 0.92667 0.02734 0.0
H3205 H 0.48391 0.89732 0.85806 0.0
H3206 H 0.96603 0.74021 0.73024 0.0
H3207 H 0.93838 0.74213 0.74413 0.0
H3208 H 0.9251 0.77605 0.70189 0.0
H3209 H 0.95222 0.77421 0.68818 0.0
H3210 H 0.91835 0.78978 0.73516 0.0
H3211 H 0.90487 0.7299 0.70071 0.0
H3212 H 0.90832 0.69862 0.69309 0.0
H3213 H 0.90049 0.68842 0.7507 0.0
H3214 H 0.89728 0.71974 0.75876 0.0
H3215 H 0.82625 0.78808 0.7388 0.0
H3216 H 0.8553 0.78468 0.72972 0.0
H3217 H 0.86186 0.7523 0.77559 0.0
H3218 H 0.83298 0.75621 0.78501 0.0
H3219 H 0.8728 0.73708 0.74356 0.0
H3220 H 0.8907 0.79477 0.78013 0.0
H3221 H 0.8914 0.82635 0.79184 0.0
H3222 H 0.89189 0.84014 0.73427 0.0
H3223 H 0.89219 0.80864 0.72237 0.0
C3224 C 0.95725 0.7481 0.72393 0.0
C3225 C 0.96166 0.75699 0.70791 0.0
C3226 C 0.94125 0.74912 0.73184 0.0
C3227 C 0.9292 0.75917 0.7241 0.0
C3228 C 0.93384 0.76818 0.70834 0.0
C3229 C 0.94956 0.76704 0.7004 0.0
C3230 C 0.91198 0.76087 0.73221 0.0
C3231 C 0.90838 0.77812 0.73667 0.0
C3232 C 0.89887 0.74594 0.73516 0.0
C3233 C 0.90109 0.72723 0.73041 0.0
C3234 C 0.9041 0.72105 0.71182 0.0
C3235 C 0.90596 0.7033 0.70741 0.0
C3236 C 0.90469 0.69156 0.72142 0.0
C3237 C 0.90153 0.69754 0.73987 0.0
C3238 C 0.89969 0.71529 0.74437 0.0
C3239 C 0.83391 0.78028 0.747 0.0
C3240 C 0.82717 0.77245 0.76268 0.0
C3241 C 0.85067 0.77839 0.74185 0.0
C3242 C 0.8612 0.76826 0.75192 0.0
C3243 C 0.8543 0.76021 0.76746 0.0
C3244 C 0.83771 0.7625 0.77291 0.0
C3245 C 0.87913 0.76596 0.74603 0.0
C3246 C 0.88282 0.74866 0.74199 0.0
C3247 C 0.89251 0.7808 0.74372 0.0
C3248 C 0.89113 0.79938 0.75035 0.0
C3249 C 0.89073 0.80451 0.76995 0.0
C3250 C 0.89105 0.82242 0.77663 0.0
C3251 C 0.89129 0.83523 0.76376 0.0
C3252 C 0.89154 0.83018 0.7442 0.0
C3253 C 0.89165 0.81234 0.7375 0.0
H3254 H 0.89146 0.8491 0.76897 0.0
H3255 H 0.90611 0.6778 0.71796 0.0
H3256 H 0.11618 0.0141 0.83505 0.0
H3257 H 0.10218 0.00863 0.864 0.0
H3258 H 0.07517 0.05239 0.85643 0.0
H3259 H 0.08947 0.05822 0.8278 0.0
H3260 H 0.09039 0.05557 0.89175 0.0
H3261 H 0.05395 0.00647 0.84844 0.0
H3262 H 0.04811 0.97905 0.82515 0.0
H3263 H 0.07252 0.95114 0.86695 0.0
H3264 H 0.07876 0.97847 0.8904 0.0
H3265 H 0.02828 0.04055 0.95819 0.0
H3266 H 0.04235 0.04275 0.92883 0.0
H3267 H 0.07392 0.00477 0.9457 0.0
H3268 H 0.05999 0.00273 0.97544 0.0
H3269 H 0.05719 0.99735 0.90646 0.0
H3270 H 0.10102 0.04641 0.94433 0.0
H3271 H 0.11188 0.07416 0.96687 0.0
H3272 H 0.07569 0.10054 0.93609 0.0
H3273 H 0.06497 0.07306 0.91301 0.0
C3274 C 0.10711 0.02245 0.83943 0.0
C3275 C 0.10402 0.03668 0.82914 0.0
C3276 C 0.09902 0.01922 0.85595 0.0
C3277 C 0.08746 0.02999 0.86237 0.0
C3278 C 0.08403 0.04389 0.85181 0.0
C3279 C 0.09222 0.04722 0.83541 0.0
C3280 C 0.07997 0.02776 0.88082 0.0
C3281 C 0.08285 0.04286 0.89471 0.0
C3282 C 0.0708 0.01103 0.88521 0.0
C3283 C 0.06698 0.99458 0.87112 0.0
C3284 C 0.05821 0.99453 0.85262 0.0
C3285 C 0.0548 0.979 0.83939 0.0
C3286 C 0.05998 0.96338 0.84455 0.0
C3287 C 0.06853 0.96325 0.86296 0.0
C3288 C 0.072 0.97876 0.87623 0.0
C3289 C 0.03824 0.03267 0.95568 0.0
C3290 C 0.04304 0.02145 0.96909 0.0
C3291 C 0.04634 0.03402 0.93894 0.0
C3292 C 0.05925 0.024 0.93511 0.0
C3293 C 0.06401 0.01265 0.9484 0.0
C3294 C 0.0561 0.01153 0.96538 0.0
C3295 C 0.0674 0.02524 0.917 0.0
C3296 C 0.06465 0.01 0.90328 0.0
C3297 C 0.07688 0.04173 0.9127 0.0
C3298 C 0.08206 0.0577 0.92721 0.0
C3299 C 0.09527 0.0581 0.94252 0.0
C3300 C 0.10153 0.07382 0.95522 0.0
C3301 C 0.09434 0.08906 0.953 0.0
C3302 C 0.08107 0.08867 0.93788 0.0
C3303 C 0.07501 0.07309 0.9249 0.0
H3304 H 0.0991 0.10117 0.96295 0.0
H3305 H 0.05733 0.95137 0.83429 0.0
H3306 H 0.75707 0.37477 0.52762 0.0
H3307 H 0.76037 0.35695 0.55445 0.0
H3308 H 0.80779 0.39495 0.57913 0.0
H3309 H 0.80458 0.4128 0.55277 0.0
H3310 H 0.81067 0.35869 0.57904 0.0
H3311 H 0.77352 0.39952 0.59729 0.0
H3312 H 0.74789 0.41388 0.59141 0.0
H3313 H 0.71266 0.36273 0.58845 0.0
H3314 H 0.73815 0.34801 0.59398 0.0
H3315 H 0.82523 0.34769 0.67534 0.0
H3316 H 0.81407 0.36311 0.64916 0.0
H3317 H 0.77565 0.31493 0.62681 0.0
H3318 H 0.78694 0.29944 0.65297 0.0
H3319 H 0.76596 0.35413 0.62488 0.0
H3320 H 0.80565 0.31382 0.60591 0.0
H3321 H 0.83254 0.30187 0.61391 0.0
H3322 H 0.86418 0.35524 0.62019 0.0
H3323 H 0.83738 0.3675 0.61249 0.0
C3324 C 0.76819 0.37925 0.53877 0.0
C3325 C 0.7804 0.39527 0.5383 0.0
C3326 C 0.77006 0.36909 0.55398 0.0
C3327 C 0.78427 0.37478 0.56867 0.0
C3328 C 0.79677 0.39041 0.56786 0.0
C3329 C 0.7948 0.40064 0.55287 0.0
C3330 C 0.78584 0.36501 0.58547 0.0
C3331 C 0.80086 0.35762 0.58899 0.0
C3332 C 0.77306 0.36379 0.59844 0.0
C3333 C 0.75771 0.37265 0.59587 0.0
C3334 C 0.7603 0.39132 0.59529 0.0
C3335 C 0.74581 0.39953 0.59202 0.0
C3336 C 0.72865 0.38922 0.58951 0.0
C3337 C 0.72596 0.37069 0.59037 0.0
C3338 C 0.74042 0.36241 0.59359 0.0
C3339 C 0.81419 0.3406 0.66501 0.0
C3340 C 0.80704 0.32246 0.66571 0.0
C3341 C 0.80772 0.3494 0.65028 0.0
C3342 C 0.79405 0.34009 0.63623 0.0
C3343 C 0.78607 0.3223 0.63772 0.0
C3344 C 0.79263 0.31345 0.65241 0.0
C3345 C 0.7907 0.34775 0.61826 0.0
C3346 C 0.7755 0.35485 0.61464 0.0
C3347 C 0.80339 0.34895 0.60524 0.0
C3348 C 0.81958 0.34155 0.60868 0.0
C3349 C 0.81836 0.32298 0.609 0.0
C3350 C 0.83356 0.31616 0.6135 0.0
C3351 C 0.85006 0.32779 0.61756 0.0
C3352 C 0.85139 0.34625 0.61702 0.0
C3353 C 0.83621 0.35314 0.61255 0.0
H3354 H 0.86181 0.32249 0.62111 0.0
H3355 H 0.71744 0.39558 0.58695 0.0
H3356 H 0.38648 0.01389 0.35287 0.0
H3357 H 0.40907 0.02152 0.38094 0.0
H3358 H 0.44753 0.00565 0.34625 0.0
H3359 H 0.42484 0.99724 0.31847 0.0
H3360 H 0.44739 0.99104 0.37842 0.0
H3361 H 0.44496 0.05167 0.36105 0.0
H3362 H 0.43024 0.07713 0.35616 0.0
H3363 H 0.41687 0.07854 0.4138 0.0
H3364 H 0.4313 0.053 0.41896 0.0
H3365 H 0.51882 0.01221 0.44844 0.0
H3366 H 0.50135 0.0136 0.41826 0.0
H3367 H 0.46602 0.03984 0.44902 0.0
H3368 H 0.48538 0.04181 0.47853 0.0
H3369 H 0.46513 0.05055 0.4179 0.0
H3370 H 0.46075 0.99073 0.43625 0.0
H3371 H 0.47249 0.96439 0.44518 0.0
H3372 H 0.49279 0.95898 0.39097 0.0
H3373 H 0.48135 0.9854 0.38184 0.0
C3374 C 0.39973 0.01182 0.35143 0.0
C3375 C 0.40402 0.00474 0.33378 0.0
C3376 C 0.41262 0.01647 0.36728 0.0
C3377 C 0.42995 0.0145 0.36542 0.0
C3378 C 0.43417 0.00732 0.34781 0.0
C3379 C 0.42123 1.0023 0.3321 0.0
C3380 C 0.44346 0.01831 0.38214 0.0
C3381 C 0.45147 0.00413 0.38692 0.0
C3382 C 0.44799 0.03514 0.3937 0.0
C3383 C 0.43909 0.05031 0.39031 0.0
C3384 C 0.43874 0.0573 0.37261 0.0
C3385 C 0.43048 0.07178 0.36981 0.0
C3386 C 0.42259 0.07942 0.38464 0.0
C3387 C 0.42296 0.07261 0.40231 0.0
C3388 C 0.43119 0.05815 0.40518 0.0
C3389 C 0.50788 0.01909 0.44867 0.0
C3390 C 0.50362 0.02705 0.46588 0.0
C3391 C 0.49763 0.01948 0.43145 0.0
C3392 C 0.48203 0.02621 0.43149 0.0
C3393 C 0.47798 0.03452 0.4486 0.0
C3394 C 0.48893 0.03534 0.46558 0.0
C3395 C 0.4691 0.02325 0.41418 0.0
C3396 C 0.46115 0.0375 0.40932 0.0
C3397 C 0.46385 0.0062 0.4031 0.0
C3398 C 0.47032 0.99007 0.40843 0.0
C3399 C 0.46774 0.98391 0.42626 0.0
C3400 C 0.47435 0.96899 0.43137 0.0
C3401 C 0.48339 0.96003 0.41866 0.0
C3402 C 0.48579 0.96593 0.4008 0.0
C3403 C 0.47923 0.98085 0.39564 0.0
H3404 H 0.48853 0.94851 0.42265 0.0
H3405 H 0.41623 0.09063 0.38245 0.0
H3406 H 0.75307 0.6779 0.06607 0.0
H3407 H 0.75163 0.69171 0.0985 0.0
H3408 H 0.79389 0.73547 0.092 0.0
H3409 H 0.79556 0.72162 0.05956 0.0
H3410 H 0.79913 0.72362 0.12657 0.0
H3411 H 0.75067 0.74057 0.08934 0.0
H3412 H 0.72302 0.73565 0.06714 0.0
H3413 H 0.69593 0.70269 0.10512 0.0
H3414 H 0.72349 0.7072 0.12743 0.0
H3415 H 0.7891 0.78294 0.20779 0.0
H3416 H 0.78982 0.77001 0.17454 0.0
H3417 H 0.74975 0.72445 0.1818 0.0
H3418 H 0.74937 0.73722 0.21511 0.0
H3419 H 0.74338 0.73732 0.14699 0.0
H3420 H 0.79055 0.71972 0.18404 0.0
H3421 H 0.81766 0.72355 0.20686 0.0
H3422 H 0.84678 0.75618 0.1701 0.0
H3423 H 0.81976 0.75276 0.14709 0.0
C3424 C 0.76205 0.69049 0.07148 0.0
C3425 C 0.77444 0.69864 0.06014 0.0
C3426 C 0.76116 0.69842 0.09005 0.0
C3427 C 0.77255 0.71475 0.0977 0.0
C3428 C 0.78496 0.72288 0.08645 0.0
C3429 C 0.78586 0.71497 0.06785 0.0
C3430 C 0.77167 0.7232 0.11751 0.0
C3431 C 0.78701 0.72689 0.13093 0.0
C3432 C 0.75573 0.72695 0.12346 0.0
C3433 C 0.73919 0.72408 0.10996 0.0
C3434 C 0.73886 0.73213 0.09287 0.0
C3435 C 0.72319 0.72944 0.08028 0.0
C3436 C 0.70774 0.71883 0.08469 0.0
C3437 C 0.70791 0.71089 0.10171 0.0
C3438 C 0.72355 0.71351 0.11434 0.0
C3439 C 0.78029 0.77031 0.20209 0.0
C3440 C 0.76902 0.76112 0.21375 0.0
C3441 C 0.7808 0.76287 0.18322 0.0
C3442 C 0.76991 0.74619 0.17571 0.0
C3443 C 0.75825 0.73731 0.18726 0.0
C3444 C 0.75798 0.74461 0.20622 0.0
C3445 C 0.77085 0.73788 0.15592 0.0
C3446 C 0.75553 0.73415 0.14257 0.0
C3447 C 0.78676 0.73394 0.1501 0.0
C3448 C 0.80305 0.73617 0.16394 0.0
C3449 C 0.80268 0.72788 0.18089 0.0
C3450 C 0.81805 0.72992 0.19383 0.0
C3451 C 0.83393 0.74008 0.1899 0.0
C3452 C 0.83447 0.74827 0.17305 0.0
C3453 C 0.81913 0.74629 0.16006 0.0
H3454 H 0.84583 0.74157 0.19987 0.0
H3455 H 0.69561 0.71678 0.07494 0.0
H3456 H 0.07329 0.02568 0.73908 0.0
H3457 H 0.06089 0.0259 0.7058 0.0
H3458 H 0.11328 0.03355 0.68871 0.0
H3459 H 0.12581 0.03352 0.722 0.0
H3460 H 0.09491 0.05591 0.67283 0.0
H3461 H 0.08512 0.99314 0.67799 0.0
H3462 H 0.07493 0.96551 0.69245 0.0
H3463 H 0.02141 0.9731 0.6836 0.0
H3464 H 0.03132 1.00095 0.66933 0.0
H3465 H 0.06968 0.02715 0.57171 0.0
H3466 H 0.08099 0.02843 0.6056 0.0
H3467 H 0.03127 0.03801 0.62184 0.0
H3468 H 0.01991 0.03721 0.58774 0.0
H3469 H 0.04755 0.00691 0.63793 0.0
H3470 H 0.05914 0.07258 0.63875 0.0
H3471 H 0.07016 0.10096 0.62601 0.0
H3472 H 0.12044 0.08608 0.62209 0.0
H3473 H 0.10989 0.05792 0.63564 0.0
C3474 C 0.08219 0.02731 0.72825 0.0
C3475 C 0.10056 0.02954 0.73325 0.0
C3476 C 0.07506 0.02738 0.70918 0.0
C3477 C 0.08612 0.0296 0.69467 0.0
C3478 C 0.10446 0.03181 0.69962 0.0
C3479 C 0.1116 0.03171 0.71868 0.0
C3480 C 0.07858 0.03002 0.67442 0.0
C3481 C 0.08469 0.04507 0.66521 0.0
C3482 C 0.06504 0.01606 0.66442 0.0
C3483 C 0.05898 0.99922 0.67277 0.0
C3484 C 0.07119 0.98899 0.67926 0.0
C3485 C 0.06547 0.97328 0.68739 0.0
C3486 C 0.04754 0.96758 0.68899 0.0
C3487 C 0.03529 0.97754 0.68238 0.0
C3488 C 0.04095 0.99329 0.67425 0.0
C3489 C 0.06115 0.02965 0.58247 0.0
C3490 C 0.04383 0.03194 0.57703 0.0
C3491 C 0.06767 0.03041 0.60183 0.0
C3492 C 0.05694 0.03319 0.61621 0.0
C3493 C 0.03973 0.03578 0.61093 0.0
C3494 C 0.03329 0.0354 0.59149 0.0
C3495 C 0.06376 0.03285 0.63663 0.0
C3496 C 0.05766 0.01775 0.64573 0.0
C3497 C 0.0774 0.04662 0.64653 0.0
C3498 C 0.08371 0.06317 0.63799 0.0
C3499 C 0.07252 0.07536 0.63507 0.0
C3500 C 0.0787 0.09142 0.6278 0.0
C3501 C 0.09591 0.09522 0.62296 0.0
C3502 C 0.10709 0.08309 0.62574 0.0
C3503 C 0.10107 0.06715 0.63339 0.0
H3504 H 0.10062 0.10761 0.61718 0.0
H3505 H 0.04313 0.95541 0.69531 0.0
H3506 H 0.79275 0.3748 0.47544 0.0
H3507 H 0.78408 0.35422 0.44578 0.0
H3508 H 0.78927 0.39925 0.41277 0.0
H3509 H 0.79699 0.41999 0.44264 0.0
H3510 H 0.76051 0.37448 0.39863 0.0
H3511 H 0.82226 0.3747 0.41779 0.0
H3512 H 0.84757 0.37217 0.44086 0.0
H3513 H 0.82255 0.31815 0.44689 0.0
H3514 H 0.79701 0.32043 0.42399 0.0
H3515 H 0.7681 0.32665 0.3099 0.0
H3516 H 0.77043 0.34684 0.33907 0.0
H3517 H 0.76989 0.30235 0.37248 0.0
H3518 H 0.76995 0.28269 0.34369 0.0
H3519 H 0.79529 0.32719 0.38645 0.0
H3520 H 0.73374 0.32644 0.36526 0.0
H3521 H 0.70987 0.32881 0.34025 0.0
H3522 H 0.73486 0.38337 0.33654 0.0
H3523 H 0.75897 0.38128 0.36142 0.0
C3524 C 0.79225 0.38026 0.46183 0.0
C3525 C 0.79579 0.39883 0.46112 0.0
C3526 C 0.7872 0.36855 0.44496 0.0
C3527 C 0.78631 0.37528 0.42717 0.0
C3528 C 0.78989 0.39388 0.42642 0.0
C3529 C 0.79447 0.40563 0.44337 0.0
C3530 C 0.78229 0.36282 0.40933 0.0
C3531 C 0.76811 0.36416 0.39584 0.0
C3532 C 0.79214 0.34933 0.40594 0.0
C3533 C 0.80772 0.34778 0.41928 0.0
C3534 C 0.82216 0.3623 0.42408 0.0
C3535 C 0.83653 0.36091 0.43712 0.0
C3536 C 0.83666 0.34502 0.44536 0.0
C3537 C 0.82244 0.33045 0.4405 0.0
C3538 C 0.80803 0.33177 0.42746 0.0
C3539 C 0.76837 0.32102 0.3234 0.0
C3540 C 0.76899 0.30279 0.3243 0.0
C3541 C 0.76944 0.33263 0.3401 0.0
C3542 C 0.77003 0.32604 0.35793 0.0
C3543 C 0.76947 0.30771 0.35881 0.0
C3544 C 0.76934 0.29632 0.34219 0.0
C3545 C 0.7732 0.33844 0.3758 0.0
C3546 C 0.7874 0.33725 0.38927 0.0
C3547 C 0.76334 0.352 0.37907 0.0
C3548 C 0.74815 0.3537 0.36521 0.0
C3549 C 0.73409 0.33898 0.35918 0.0
C3550 C 0.72055 0.34025 0.345 0.0
C3551 C 0.72085 0.35623 0.33682 0.0
C3552 C 0.73462 0.37102 0.34293 0.0
C3553 C 0.74819 0.36982 0.35713 0.0
H3554 H 0.71042 0.35716 0.32574 0.0
H3555 H 0.84778 0.34398 0.45549 0.0
H3556 H 0.43767 0.03223 0.27132 0.0
H3557 H 0.45257 0.02824 0.24261 0.0
H3558 H 0.40214 0.00681 0.20852 0.0
H3559 H 0.3872 0.01088 0.23675 0.0
H3560 H 0.42881 0.98727 0.20116 0.0
H3561 H 0.41756 0.04692 0.20503 0.0
H3562 H 0.41768 0.07622 0.22331 0.0
H3563 H 0.4744 0.08669 0.23368 0.0
H3564 H 0.47458 0.05725 0.21573 0.0
H3565 H 0.45709 0.99083 0.11092 0.0
H3566 H 0.44074 1.00198 0.13594 0.0
H3567 H 0.48942 0.01909 0.17437 0.0
H3568 H 0.50572 0.00766 0.14951 0.0
H3569 H 0.462 0.04175 0.17814 0.0
H3570 H 0.47193 0.98006 0.17577 0.0
H3571 H 0.47069 0.95027 0.15797 0.0
H3572 H 0.4144 0.94341 0.14453 0.0
H3573 H 0.41539 0.9734 0.16189 0.0
C3574 C 0.42981 0.02672 0.25769 0.0
C3575 C 0.41131 0.02215 0.2562 0.0
C3576 C 0.43829 0.02438 0.2414 0.0
C3577 C 0.42833 0.01731 0.2236 0.0
C3578 C 0.40996 0.01225 0.2222 0.0
C3579 C 0.40149 0.01478 0.23834 0.0
C3580 C 0.43692 0.01612 0.2061 0.0
C3581 C 0.43591 0.99916 0.19599 0.0
C3582 C 0.44601 0.03171 0.19946 0.0
C3583 C 0.44609 0.04989 0.20912 0.0
C3584 C 0.43006 0.05549 0.21121 0.0
C3585 C 0.43007 0.07209 0.22154 0.0
C3586 C 0.44604 0.0833 0.22967 0.0
C3587 C 0.46204 0.07798 0.22736 0.0
C3588 C 0.4621 0.06135 0.21709 0.0
C3589 C 0.46427 0.99741 0.12457 0.0
C3590 C 0.48247 0.99813 0.12867 0.0
C3591 C 0.45501 0.00387 0.1387 0.0
C3592 C 0.46396 0.0112 0.1569 0.0
C3593 C 0.48239 0.01351 0.16033 0.0
C3594 C 0.49161 0.0068 0.14631 0.0
C3595 C 0.45402 0.01287 0.17332 0.0
C3596 C 0.45477 0.0299 0.18323 0.0
C3597 C 0.44448 0.99733 0.1797 0.0
C3598 C 0.44376 0.97903 0.16992 0.0
C3599 C 0.45931 0.97225 0.1689 0.0
C3600 C 0.45865 0.95534 0.15889 0.0
C3601 C 0.44248 0.94497 0.15008 0.0
C3602 C 0.42692 0.95147 0.15133 0.0
C3603 C 0.42752 0.96843 0.16124 0.0
H3604 H 0.44199 0.93188 0.14232 0.0
H3605 H 0.44602 0.09613 0.23774 0.0
H3606 H 0.76016 0.72175 0.97453 0.0
H3607 H 0.76474 0.73461 0.94463 0.0
H3608 H 0.77803 0.68549 0.92034 0.0
H3609 H 0.77393 0.67271 0.95042 0.0
H3610 H 0.79964 0.71387 0.91055 0.0
H3611 H 0.73623 0.69574 0.90919 0.0
H3612 H 0.70772 0.69517 0.92189 0.0
H3613 H 0.71505 0.7525 0.92327 0.0
H3614 H 0.74369 0.75342 0.91078 0.0
H3615 H 0.79127 0.73395 0.81321 0.0
H3616 H 0.78932 0.7202 0.84308 0.0
H3617 H 0.76907 0.76491 0.86808 0.0
H3618 H 0.76963 0.77782 0.83804 0.0
H3619 H 0.75106 0.73749 0.87723 0.0
H3620 H 0.81415 0.75683 0.87955 0.0
H3621 H 0.843 0.7586 0.86737 0.0
H3622 H 0.83732 0.70133 0.86506 0.0
H3623 H 0.80833 0.6992 0.87704 0.0
C3624 C 0.76409 0.71367 0.96285 0.0
C3625 C 0.76654 0.69613 0.96487 0.0
C3626 C 0.76665 0.72103 0.9457 0.0
C3627 C 0.77145 0.71093 0.93003 0.0
C3628 C 0.77429 0.69356 0.93216 0.0
C3629 C 0.77187 0.68624 0.94937 0.0
C3630 C 0.77314 0.71833 0.91134 0.0
C3631 C 0.78896 0.71888 0.90315 0.0
C3632 C 0.7594 0.72524 0.9018 0.0
C3633 C 0.74214 0.72465 0.9092 0.0
C3634 C 0.7318 0.70823 0.91231 0.0
C3635 C 0.71561 0.70784 0.91945 0.0
C3636 C 0.7096 0.72379 0.92342 0.0
C3637 C 0.71973 0.74016 0.92021 0.0
C3638 C 0.73592 0.74062 0.91307 0.0
C3639 C 0.78635 0.74078 0.82509 0.0
C3640 C 0.7806 0.75699 0.82315 0.0
C3641 C 0.78543 0.73301 0.84228 0.0
C3642 C 0.77927 0.74158 0.85812 0.0
C3643 C 0.7738 0.7579 0.85619 0.0
C3644 C 0.77424 0.76536 0.83893 0.0
C3645 C 0.77773 0.73343 0.87647 0.0
C3646 C 0.76185 0.73261 0.88459 0.0
C3647 C 0.79153 0.72655 0.88604 0.0
C3648 C 0.80902 0.72785 0.87903 0.0
C3649 C 0.81902 0.74461 0.87636 0.0
C3650 C 0.8354 0.74568 0.8695 0.0
C3651 C 0.84198 0.73008 0.86541 0.0
C3652 C 0.83221 0.71339 0.86822 0.0
C3653 C 0.81582 0.71225 0.87507 0.0
H3654 H 0.85465 0.73093 0.86009 0.0
H3655 H 0.69707 0.72346 0.92896 0.0
H3656 H 0.83328 0.12941 0.04478 0.0
H3657 H 0.85626 0.11349 0.03602 0.0
H3658 H 0.82265 0.06285 0.04187 0.0
H3659 H 0.79957 0.07862 0.0508 0.0
H3660 H 0.85714 0.06683 0.05872 0.0
H3661 H 0.82585 0.07123 0.99893 0.0
H3662 H 0.8109 0.085 0.97348 0.0
H3663 H 0.85974 0.12085 0.9692 0.0
H3664 H 0.87494 0.10753 0.99486 0.0
H3665 H 0.91512 0.02371 0.00284 0.0
H3666 H 0.89211 0.03261 0.0206 0.0
H3667 H 0.91424 0.0884 0.01745 0.0
H3668 H 0.93711 0.07956 -0.00058 0.0
H3669 H 0.88134 0.07597 0.99728 0.0
H3670 H 0.90938 0.07527 0.06387 0.0
H3671 H 0.92092 0.06301 0.09257 0.0
H3672 H 0.87662 0.01868 0.08298 0.0
H3673 H 0.8643 0.03117 0.05483 0.0
C3674 C 0.83089 0.11492 0.04446 0.0
C3675 C 0.81471 0.10517 0.04828 0.0
C3676 C 0.84389 0.10589 0.03929 0.0
C3677 C 0.84076 0.0871 0.03795 0.0
C3678 C 0.82501 0.07738 0.04266 0.0
C3679 C 0.81196 0.08639 0.04778 0.0
C3680 C 0.85428 0.07778 0.03187 0.0
C3681 C 0.86232 0.06847 0.04514 0.0
C3682 C 0.8607 0.08005 0.01413 0.0
C3683 C 0.85153 0.08841 0.99893 0.0
C3684 C 0.83338 0.08218 0.99273 0.0
C3685 C 0.82486 0.08988 0.97822 0.0
C3686 C 0.83437 0.10378 0.96973 0.0
C3687 C 0.85239 0.11007 0.97578 0.0
C3688 C 0.86097 0.10243 0.9903 0.0
C3689 C 0.91534 0.03789 0.00646 0.0
C3690 C 0.92749 0.05103 -0.00054 0.0
C3691 C 0.90235 0.04292 0.01678 0.0
C3692 C 0.90158 0.0611 0.02023 0.0
C3693 C 0.91476 0.07428 0.01486 0.0
C3694 C 0.9276 0.06926 0.00439 0.0
C3695 C 0.88511 0.06612 0.02478 0.0
C3696 C 0.87618 0.07422 0.01085 0.0
C3697 C 0.87774 0.0625 0.04177 0.0
C3698 C 0.88622 0.05386 0.05698 0.0
C3699 C 0.90233 0.06269 0.06764 0.0
C3700 C 0.90894 0.05578 0.08389 0.0
C3701 C 0.89979 0.03984 0.08931 0.0
C3702 C 0.88383 0.03089 0.07864 0.0
C3703 C 0.87697 0.03793 0.06262 0.0
H3704 H 0.90495 0.03457 0.10192 0.0
H3705 H 0.8278 0.10962 0.95839 0.0
H3706 H 0.33386 0.43571 0.05507 0.0
H3707 H 0.36215 0.45671 0.05589 0.0
H3708 H 0.38219 0.41551 0.02365 0.0
H3709 H 0.35451 0.3944 0.02376 0.0
H3710 H 0.40651 0.4308 0.04885 0.0
H3711 H 0.36704 0.45374 0.0045 0.0
H3712 H 0.34112 0.46628 0.99387 0.0
H3713 H 0.35828 0.51119 0.03788 0.0
H3714 H 0.38417 0.49879 0.04892 0.0
H3715 H 0.46567 0.49923 0.00056 0.0
H3716 H 0.43666 0.48192 0.00516 0.0
H3717 H 0.45259 0.48866 0.06632 0.0
H3718 H 0.48214 0.50454 0.06153 0.0
H3719 H 0.41094 0.49195 0.02926 0.0
H3720 H 0.4478 0.46005 0.07644 0.0
H3721 H 0.47409 0.44648 0.08166 0.0
H3722 H 0.46067 0.41635 0.02556 0.0
H3723 H 0.43475 0.43041 0.01974 0.0
C3724 C 0.34436 0.43117 0.04823 0.0
C3725 C 0.34196 0.41336 0.03941 0.0
C3726 C 0.36051 0.44323 0.04857 0.0
C3727 C 0.37438 0.43785 0.03963 0.0
C3728 C 0.37185 0.42007 0.03078 0.0
C3729 C 0.35594 0.40797 0.03081 0.0
C3730 C 0.39171 0.45038 0.03965 0.0
C3731 C 0.40733 0.44419 0.04466 0.0
C3732 C 0.39309 0.46794 0.03416 0.0
C3733 C 0.37739 0.47521 0.02769 0.0
C3734 C 0.36518 0.46619 0.01202 0.0
C3735 C 0.35051 0.4733 0.0059 0.0
C3736 C 0.34801 0.48949 0.01524 0.0
C3737 C 0.36019 0.49863 0.03069 0.0
C3738 C 0.37486 0.49157 0.03689 0.0
C3739 C 0.46294 0.49688 0.01495 0.0
C3740 C 0.47612 0.50279 0.03068 0.0
C3741 C 0.44641 0.48703 0.01757 0.0
C3742 C 0.44267 0.48346 0.03603 0.0
C3743 C 0.45548 0.49045 0.05188 0.0
C3744 C 0.47224 0.4997 0.04918 0.0
C3745 C 0.42539 0.47228 0.03854 0.0
C3746 C 0.4099 0.47867 0.03385 0.0
C3747 C 0.42404 0.45482 0.044 0.0
C3748 C 0.43972 0.44666 0.04746 0.0
C3749 C 0.45071 0.45084 0.06508 0.0
C3750 C 0.46551 0.44304 0.06816 0.0
C3751 C 0.46914 0.43067 0.05389 0.0
C3752 C 0.45797 0.42608 0.03652 0.0
C3753 C 0.4433 0.43406 0.03327 0.0
H3754 H 0.48054 0.42455 0.05635 0.0
H3755 H 0.33667 0.49498 0.01046 0.0
H3756 H 0.37364 0.5472 0.76529 0.0
H3757 H 0.3558 0.57028 0.76822 0.0
H3758 H 0.39781 0.60889 0.75136 0.0
H3759 H 0.41584 0.58598 0.74864 0.0
H3760 H 0.3852 0.62217 0.78269 0.0
H3761 H 0.35985 0.59011 0.72035 0.0
H3762 H 0.34583 0.56305 0.69797 0.0
H3763 H 0.3021 0.55407 0.73083 0.0
H3764 H 0.31597 0.58095 0.75356 0.0
H3765 H 0.3376 0.6916 0.77954 0.0
H3766 H 0.35312 0.66875 0.76654 0.0
H3767 H 0.31265 0.62694 0.78106 0.0
H3768 H 0.2972 0.64971 0.7939 0.0
H3769 H 0.32463 0.61569 0.74879 0.0
H3770 H 0.3487 0.64367 0.8118 0.0
H3771 H 0.36201 0.66809 0.83768 0.0
H3772 H 0.40713 0.6819 0.80772 0.0
H3773 H 0.39388 0.65786 0.78139 0.0
C3774 C 0.37908 0.56058 0.76213 0.0
C3775 C 0.39619 0.56474 0.75673 0.0
C3776 C 0.3688 0.57373 0.7637 0.0
C3777 C 0.37538 0.59126 0.75976 0.0
C3778 C 0.39245 0.59544 0.75438 0.0
C3779 C 0.40273 0.58231 0.75282 0.0
C3780 C 0.36482 0.60547 0.76206 0.0
C3781 C 0.37211 0.62094 0.77494 0.0
C3782 C 0.34745 0.60351 0.75255 0.0
C3783 C 0.33901 0.58748 0.73873 0.0
C3784 C 0.34729 0.58231 0.72287 0.0
C3785 C 0.33937 0.56701 0.71011 0.0
C3786 C 0.3231 0.55683 0.713 0.0
C3787 C 0.3147 0.56196 0.72862 0.0
C3788 C 0.32258 0.57724 0.74143 0.0
C3789 C 0.33176 0.6775 0.77927 0.0
C3790 C 0.31628 0.67232 0.7877 0.0
C3791 C 0.34068 0.66448 0.77203 0.0
C3792 C 0.3342 0.64615 0.77317 0.0
C3793 C 0.31792 0.64097 0.78007 0.0
C3794 C 0.30909 0.65396 0.78738 0.0
C3795 C 0.34514 0.63253 0.76919 0.0
C3796 C 0.33787 0.6171 0.7562 0.0
C3797 C 0.36239 0.6343 0.77896 0.0
C3798 C 0.37016 0.64915 0.79446 0.0
C3799 C 0.36133 0.6521 0.81057 0.0
C3800 C 0.36889 0.66586 0.82535 0.0
C3801 C 0.38537 0.6766 0.82431 0.0
C3802 C 0.39432 0.67365 0.80846 0.0
C3803 C 0.38678 0.65998 0.79358 0.0
H3804 H 0.39124 0.68713 0.83586 0.0
H3805 H 0.317 0.54498 0.70311 0.0
H3806 H 0.20486 0.62589 0.5566 0.0
H3807 H 0.17435 0.61019 0.54664 0.0
H3808 H 0.19193 0.56027 0.53479 0.0
H3809 H 0.2226 0.576 0.54419 0.0
H3810 H 0.1666 0.56542 0.50632 0.0
H3811 H 0.17587 0.56785 0.57541 0.0
H3812 H 0.18564 0.5831 0.60835 0.0
H3813 H 0.14797 0.61718 0.60082 0.0
H3814 H 0.13813 0.60229 0.56774 0.0
H3815 H 0.08226 0.51085 0.52325 0.0
H3816 H 0.11347 0.52368 0.52177 0.0
H3817 H 0.10081 0.57604 0.51848 0.0
H3818 H 0.06995 0.56358 0.52026 0.0
H3819 H 0.12369 0.56789 0.55361 0.0
H3820 H 0.11761 0.56867 0.48383 0.0
H3821 H 0.1045 0.55189 0.45229 0.0
H3822 H 0.13326 0.5103 0.463 0.0
H3823 H 0.14672 0.52701 0.49448 0.0
C3824 C 0.20218 0.61154 0.55209 0.0
C3825 C 0.21587 0.60202 0.5513 0.0
C3826 C 0.18486 0.60267 0.54626 0.0
C3827 C 0.18114 0.58417 0.54012 0.0
C3828 C 0.19476 0.5746 0.53941 0.0
C3829 C 0.21212 0.58352 0.54495 0.0
C3830 C 0.16286 0.57471 0.53534 0.0
C3831 C 0.15724 0.56578 0.51668 0.0
C3832 C 0.15081 0.5754 0.54894 0.0
C3833 C 0.15635 0.58403 0.56905 0.0
C3834 C 0.16972 0.57864 0.58076 0.0
C3835 C 0.17527 0.58722 0.59945 0.0
C3836 C 0.16746 0.60112 0.60666 0.0
C3837 C 0.15402 0.60641 0.59522 0.0
C3838 C 0.14843 0.59789 0.57651 0.0
C3839 C 0.08614 0.52496 0.52159 0.0
C3840 C 0.07395 0.53631 0.52195 0.0
C3841 C 0.10378 0.53218 0.52063 0.0
C3842 C 0.10904 0.55067 0.52009 0.0
C3843 C 0.09667 0.5617 0.51876 0.0
C3844 C 0.07912 0.55453 0.51968 0.0
C3845 C 0.12753 0.55903 0.52465 0.0
C3846 C 0.13314 0.56759 0.54332 0.0
C3847 C 0.13946 0.55801 0.51115 0.0
C3848 C 0.13324 0.5491 0.49137 0.0
C3849 C 0.12133 0.55607 0.47928 0.0
C3850 C 0.1138 0.54656 0.46146 0.0
C3851 C 0.11801 0.53003 0.45564 0.0
C3852 C 0.13006 0.52315 0.46748 0.0
C3853 C 0.13775 0.5327 0.48525 0.0
H3854 H 0.1119 0.52254 0.44199 0.0
H3855 H 0.17181 0.60778 0.62112 0.0
H3856 H 0.68794 0.97123 0.71098 0.0
H3857 H 0.70432 0.94735 0.71719 0.0
H3858 H 0.72285 0.97384 0.77475 0.0
H3859 H 0.70731 0.99757 0.76861 0.0
H3860 H 0.74853 0.96229 0.75945 0.0
H3861 H 0.68777 0.93926 0.7688 0.0
H3862 H 0.65564 0.93234 0.75819 0.0
H3863 H 0.66345 0.8975 0.7095 0.0
H3864 H 0.69567 0.90428 0.71986 0.0
H3865 H 0.75554 0.89861 0.82518 0.0
H3866 H 0.74867 0.92212 0.80615 0.0
H3867 H 0.74271 0.88538 0.75414 0.0
H3868 H 0.74908 0.86173 0.77305 0.0
H3869 H 0.71381 0.90059 0.75906 0.0
H3870 H 0.77792 0.92191 0.76181 0.0
H3871 H 0.80851 0.93295 0.77762 0.0
H3872 H 0.79177 0.97489 0.81182 0.0
H3873 H 0.76112 0.96409 0.79625 0.0
C3874 C 0.69572 0.97193 0.72481 0.0
C3875 C 0.69652 0.98618 0.73924 0.0
C3876 C 0.705 0.95841 0.72831 0.0
C3877 C 0.71479 0.95906 0.74634 0.0
C3878 C 0.71563 0.97336 0.76062 0.0
C3879 C 0.70666 0.98686 0.75709 0.0
C3880 C 0.72329 0.94436 0.75129 0.0
C3881 C 0.74107 0.9487 0.75922 0.0
C3882 C 0.71337 0.92684 0.75101 0.0
C3883 C 0.69405 0.92233 0.745 0.0
C3884 C 0.6826 0.93013 0.75583 0.0
C3885 C 0.6644 0.92624 0.74987 0.0
C3886 C 0.65752 0.91451 0.73316 0.0
C3887 C 0.66881 0.90658 0.72244 0.0
C3888 C 0.68703 0.9104 0.72836 0.0
C3889 C 0.75275 0.89561 0.8097 0.0
C3890 C 0.75265 0.8784 0.80054 0.0
C3891 C 0.74917 0.90907 0.79886 0.0
C3892 C 0.74552 0.90543 0.7788 0.0
C3893 C 0.74575 0.88838 0.76961 0.0
C3894 C 0.74931 0.87494 0.78041 0.0
C3895 C 0.73907 0.91858 0.7677 0.0
C3896 C 0.72157 0.91393 0.75866 0.0
C3897 C 0.74899 0.93615 0.76799 0.0
C3898 C 0.76725 0.9421 0.77795 0.0
C3899 C 0.78075 0.93336 0.77285 0.0
C3900 C 0.79811 0.93963 0.78171 0.0
C3901 C 0.80208 0.95459 0.79574 0.0
C3902 C 0.78869 0.96331 0.80096 0.0
C3903 C 0.77135 0.95714 0.79209 0.0
H3904 H 0.81553 0.95944 0.80253 0.0
H3905 H 0.64343 0.91155 0.72853 0.0
H3906 H 0.71927 0.89283 0.55202 0.0
H3907 H 0.69609 0.91028 0.54805 0.0
H3908 H 0.7288 0.94608 0.51651 0.0
H3909 H 0.75223 0.92898 0.52089 0.0
H3910 H 0.71339 0.9648 0.54019 0.0
H3911 H 0.69341 0.91208 0.49382 0.0
H3912 H 0.6852 0.87953 0.48299 0.0
H3913 H 0.64476 0.87399 0.52041 0.0
H3914 H 0.65286 0.90651 0.53161 0.0
H3915 H 0.65171 1.00208 0.48519 0.0
H3916 H 0.67414 0.98706 0.4991 0.0
H3917 H 0.63561 0.95709 0.52981 0.0
H3918 H 0.61284 0.97193 0.51541 0.0
H3919 H 0.65272 0.9352 0.51072 0.0
H3920 H 0.67127 0.98941 0.55423 0.0
H3921 H 0.67987 0.02212 0.56402 0.0
H3922 H 0.7233 0.02506 0.5306 0.0
H3923 H 0.71486 0.9924 0.52048 0.0
C3924 C 0.72157 0.90445 0.54428 0.0
C3925 C 0.7376 0.90945 0.53671 0.0
C3926 C 0.70824 0.91437 0.54194 0.0
C3927 C 0.71054 0.92936 0.53172 0.0
C3928 C 0.72667 0.93456 0.52444 0.0
C3929 C 0.74006 0.92474 0.52692 0.0
C3930 C 0.6962 0.93963 0.52851 0.0
C3931 C 0.70016 0.95833 0.5336 0.0
C3932 C 0.67876 0.93119 0.52043 0.0
C3933 C 0.67386 0.91167 0.51369 0.0
C3934 C 0.68285 0.90389 0.49983 0.0
C3935 C 0.6782 0.88546 0.49361 0.0
C3936 C 0.6645 0.87469 0.50105 0.0
C3937 C 0.65539 0.88234 0.51468 0.0
C3938 C 0.65999 0.90077 0.52096 0.0
C3939 C 0.64808 0.99252 0.49518 0.0
C3940 C 0.63051 0.98811 0.49913 0.0
C3941 C 0.66096 0.98401 0.50325 0.0
C3942 C 0.65666 0.971 0.51564 0.0
C3943 C 0.63926 0.96712 0.52033 0.0
C3944 C 0.6263 0.9757 0.51223 0.0
C3945 C 0.66998 0.96044 0.52212 0.0
C3946 C 0.66586 0.94166 0.51759 0.0
C3947 C 0.68732 0.96882 0.53056 0.0
C3948 C 0.69237 0.98848 0.53653 0.0
C3949 C 0.68258 0.99706 0.54887 0.0
C3950 C 0.68745 0.01559 0.5545 0.0
C3951 C 0.70211 0.02567 0.54791 0.0
C3952 C 0.71195 0.01724 0.5357 0.0
C3953 C 0.70716 0.99872 0.53005 0.0
H3954 H 0.70586 0.04001 0.55229 0.0
H3955 H 0.66093 0.86042 0.49621 0.0
H3956 H 0.39909 0.44362 0.72964 0.0
H3957 H 0.37894 0.41571 0.73316 0.0
H3958 H 0.35259 0.44488 0.77275 0.0
H3959 H 0.37283 0.47282 0.76953 0.0
H3960 H 0.35879 0.41475 0.78598 0.0
H3961 H 0.33346 0.43028 0.7267 0.0
H3962 H 0.33335 0.43885 0.69389 0.0
H3963 H 0.34888 0.3897 0.67448 0.0
H3964 H 0.34933 0.38094 0.70725 0.0
H3965 H 0.2869 0.34021 0.78578 0.0
H3966 H 0.30451 0.36995 0.78313 0.0
H3967 H 0.3331 0.34584 0.74182 0.0
H3968 H 0.31537 0.31639 0.74396 0.0
H3969 H 0.32395 0.37462 0.7298 0.0
H3970 H 0.3564 0.36347 0.79008 0.0
H3971 H 0.35974 0.35652 0.82361 0.0
H3972 H 0.33036 0.39654 0.84031 0.0
H3973 H 0.32769 0.40441 0.80713 0.0
C3974 C 0.38897 0.44412 0.73904 0.0
C3975 C 0.38753 0.46046 0.74923 0.0
C3976 C 0.37741 0.42816 0.74097 0.0
C3977 C 0.36412 0.42824 0.75304 0.0
C3978 C 0.36271 0.44452 0.76331 0.0
C3979 C 0.37425 0.46048 0.76138 0.0
C3980 C 0.35191 0.4113 0.75524 0.0
C3981 C 0.35095 0.40612 0.77371 0.0
C3982 C 0.34192 0.39987 0.73923 0.0
C3983 C 0.34157 0.40503 0.71947 0.0
C3984 C 0.33698 0.42136 0.71546 0.0
C3985 C 0.33683 0.42624 0.69687 0.0
C3986 C 0.34114 0.41484 0.68212 0.0
C3987 C 0.34556 0.39852 0.68593 0.0
C3988 C 0.34574 0.39358 0.70451 0.0
C3989 C 0.29685 0.34131 0.77604 0.0
C3990 C 0.29968 0.32595 0.76504 0.0
C3991 C 0.30706 0.35827 0.77471 0.0
C3992 C 0.32029 0.3601 0.76245 0.0
C3993 C 0.323 0.34478 0.7514 0.0
C3994 C 0.31284 0.32791 0.75268 0.0
C3995 C 0.33104 0.37796 0.76051 0.0
C3996 C 0.3317 0.38332 0.74207 0.0
C3997 C 0.34077 0.38956 0.77651 0.0
C3998 C 0.34163 0.38432 0.79616 0.0
C3999 C 0.35054 0.37066 0.8009 0.0
C4000 C 0.35236 0.36661 0.81982 0.0
C4001 C 0.34496 0.37581 0.83397 0.0
C4002 C 0.33598 0.38933 0.82931 0.0
C4003 C 0.33446 0.39372 0.81051 0.0
H4004 H 0.34633 0.37258 0.84859 0.0
H4005 H 0.34102 0.41865 0.66773 0.0
H4006 H 0.22 0.5815 0.25818 0.0
H4007 H 0.23392 0.61274 0.26919 0.0
H4008 H 0.18582 0.62941 0.24898 0.0
H4009 H 0.1718 0.59822 0.23767 0.0
H4010 H 0.21522 0.64475 0.23399 0.0
H4011 H 0.19845 0.63298 0.29613 0.0
H4012 H 0.19676 0.61716 0.32492 0.0
H4013 H 0.25343 0.6287 0.33656 0.0
H4014 H 0.25546 0.64434 0.30769 0.0
H4015 H 0.23905 0.73427 0.26005 0.0
H4016 H 0.22405 0.70446 0.26499 0.0
H4017 H 0.27447 0.68931 0.27767 0.0
H4018 H 0.28968 0.71968 0.27327 0.0
H4019 H 0.24446 0.67339 0.29861 0.0
H4020 H 0.26205 0.6819 0.23609 0.0
H4021 H 0.26521 0.69609 0.20641 0.0
H4022 H 0.20876 0.68842 0.19423 0.0
H4023 H 0.20528 0.67471 0.22419 0.0
C4024 C 0.21239 0.59184 0.25616 0.0
C4025 C 0.19496 0.58763 0.24693 0.0
C4026 C 0.22024 0.60953 0.26271 0.0
C4027 C 0.21065 0.62304 0.26017 0.0
C4028 C 0.19319 0.6189 0.25119 0.0
C4029 C 0.18536 0.60122 0.24452 0.0
C4030 C 0.21975 0.64167 0.26407 0.0
C4031 C 0.2213 0.65116 0.24818 0.0
C4032 C 0.22833 0.6494 0.28246 0.0
C4033 C 0.2271 0.63969 0.29963 0.0
C4034 C 0.21055 0.63196 0.3047 0.0
C4035 C 0.20954 0.62307 0.32107 0.0
C4036 C 0.22498 0.62189 0.33254 0.0
C4037 C 0.24147 0.6296 0.32766 0.0
C4038 C 0.24256 0.6385 0.3113 0.0
C4039 C 0.2469 0.7249 0.26484 0.0
C4040 C 0.26533 0.72895 0.26659 0.0
C4041 C 0.23837 0.70796 0.26759 0.0
C4042 C 0.24833 0.69502 0.27156 0.0
C4043 C 0.2668 0.69943 0.27475 0.0
C4044 C 0.27537 0.71649 0.27206 0.0
C4045 C 0.23946 0.67639 0.26863 0.0
C4046 C 0.23816 0.66692 0.28453 0.0
C4047 C 0.23132 0.66844 0.25015 0.0
C4048 C 0.23343 0.67756 0.23261 0.0
C4049 C 0.25032 0.68361 0.22733 0.0
C4050 C 0.25217 0.69153 0.21041 0.0
C4051 C 0.23719 0.69331 0.19853 0.0
C4052 C 0.22035 0.68721 0.20356 0.0
C4053 C 0.21844 0.67939 0.22052 0.0
H4054 H 0.2386 0.69926 0.18533 0.0
H4055 H 0.22416 0.61503 0.34523 0.0
H4056 H 0.50174 0.71983 0.49398 0.0
H4057 H 0.50436 0.68996 0.50184 0.0
H4058 H 0.51111 0.67411 0.44315 0.0
H4059 H 0.50812 0.70412 0.43505 0.0
H4060 H 0.49048 0.64669 0.45637 0.0
H4061 H 0.54681 0.68529 0.48226 0.0
H4062 H 0.56577 0.71175 0.50212 0.0
H4063 H 0.54473 0.69435 0.55262 0.0
H4064 H 0.5255 0.6679 0.53302 0.0
H4065 H 0.51649 0.56475 0.4742 0.0
H4066 H 0.5146 0.59444 0.46522 0.0
H4067 H 0.51867 0.61514 0.52509 0.0
H4068 H 0.52196 0.58563 0.53406 0.0
H4069 H 0.53378 0.64039 0.51082 0.0
H4070 H 0.47708 0.60362 0.48794 0.0
H4071 H 0.45585 0.57749 0.47016 0.0
H4072 H 0.47387 0.5915 0.41705 0.0
H4073 H 0.49536 0.61757 0.43455 0.0
C4074 C 0.50378 0.71008 0.48262 0.0
C4075 C 0.50479 0.71474 0.46381 0.0
C4076 C 0.5054 0.69285 0.48723 0.0
C4077 C 0.50834 0.67951 0.4733 0.0
C4078 C 0.50897 0.68396 0.45436 0.0
C4079 C 0.50728 0.70126 0.4497 0.0
C4080 C 0.51074 0.66113 0.47855 0.0
C4081 C 0.50015 0.64537 0.46812 0.0
C4082 C 0.52283 0.65899 0.49435 0.0
C4083 C 0.53463 0.6747 0.50615 0.0
C4084 C 0.54618 0.68715 0.49759 0.0
C4085 C 0.55698 0.70214 0.5088 0.0
C4086 C 0.55643 0.70475 0.52861 0.0
C4087 C 0.54513 0.69232 0.53727 0.0
C4088 C 0.53431 0.67732 0.52613 0.0
C4089 C 0.51695 0.5756 0.4855 0.0
C4090 C 0.51913 0.57253 0.50492 0.0
C4091 C 0.51565 0.59274 0.48031 0.0
C4092 C 0.51576 0.6074 0.49428 0.0
C4093 C 0.51833 0.60436 0.51375 0.0
C4094 C 0.52014 0.58731 0.51896 0.0
C4095 C 0.51344 0.62577 0.4887 0.0
C4096 C 0.52406 0.64158 0.49906 0.0
C4097 C 0.50101 0.62796 0.47317 0.0
C4098 C 0.48794 0.61245 0.46258 0.0
C4099 C 0.47656 0.60107 0.47248 0.0
C4100 C 0.46448 0.58628 0.46245 0.0
C4101 C 0.46354 0.58282 0.4425 0.0
C4102 C 0.47463 0.59419 0.43251 0.0
C4103 C 0.48675 0.60898 0.44247 0.0
H4104 H 0.4542 0.57135 0.43476 0.0
H4105 H 0.56477 0.71637 0.53726 0.0
H4106 H 0.60908 0.25723 0.62953 0.0
H4107 H 0.63619 0.25898 0.65093 0.0
H4108 H 0.62964 0.3092 0.68009 0.0
H4109 H 0.60211 0.30753 0.65849 0.0
H4110 H 0.66525 0.30942 0.67354 0.0
H4111 H 0.62044 0.27278 0.70184 0.0
H4112 H 0.59479 0.24822 0.7021 0.0
H4113 H 0.62503 0.20947 0.68373 0.0
H4114 H 0.65081 0.23383 0.68313 0.0
H4115 H 0.7302 0.30491 0.75335 0.0
H4116 H 0.70267 0.30708 0.73377 0.0
H4117 H 0.70322 0.25685 0.70012 0.0
H4118 H 0.73076 0.25481 0.71959 0.0
H4119 H 0.67004 0.25835 0.7108 0.0
H4120 H 0.71441 0.2948 0.68141 0.0
H4121 H 0.74007 0.31916 0.68053 0.0
H4122 H 0.71087 0.3582 0.70078 0.0
H4123 H 0.6851 0.33401 0.70206 0.0
C4124 C 0.6133 0.26874 0.64043 0.0
C4125 C 0.60319 0.28221 0.64222 0.0
C4126 C 0.6289 0.26968 0.65275 0.0
C4127 C 0.63503 0.28412 0.66734 0.0
C4128 C 0.62525 0.29788 0.66899 0.0
C4129 C 0.60944 0.29687 0.65666 0.0
C4130 C 0.65137 0.28435 0.68095 0.0
C4131 C 0.66616 0.29843 0.68197 0.0
C4132 C 0.65287 0.26985 0.69172 0.0
C4133 C 0.6375 0.25513 0.6923 0.0
C4134 C 0.62158 0.25902 0.69774 0.0
C4135 C 0.60703 0.24514 0.69797 0.0
C4136 C 0.60827 0.2273 0.6929 0.0
C4137 C 0.62409 0.2233 0.68765 0.0
C4138 C 0.63868 0.23714 0.68739 0.0
C4139 C 0.72444 0.2944 0.7417 0.0
C4140 C 0.73274 0.27983 0.73779 0.0
C4141 C 0.70873 0.29566 0.73048 0.0
C4142 C 0.70083 0.2822 0.71528 0.0
C4143 C 0.70901 0.26746 0.71165 0.0
C4144 C 0.72484 0.26636 0.72268 0.0
C4145 C 0.68399 0.28333 0.70329 0.0
C4146 C 0.66909 0.26946 0.70254 0.0
C4147 C 0.68244 0.29801 0.69281 0.0
C4148 C 0.69789 0.31258 0.69204 0.0
C4149 C 0.71351 0.30857 0.68585 0.0
C4150 C 0.72807 0.32234 0.68524 0.0
C4151 C 0.72712 0.34021 0.69065 0.0
C4152 C 0.7116 0.34434 0.69663 0.0
C4153 C 0.697 0.33061 0.69729 0.0
H4154 H 0.7384 0.35087 0.69016 0.0
H4155 H 0.59698 0.21657 0.69306 0.0
H4156 H 0.02447 0.32436 0.94203 0.0
H4157 H 0.02949 0.35706 0.95079 0.0
H4158 H 0.99297 0.34928 0.99275 0.0
H4159 H 0.98744 0.31689 0.98347 0.0
H4160 H 0.98592 0.37488 0.97716 0.0
H4161 H 0.04175 0.36454 0.00286 0.0
H4162 H 0.06999 0.35417 0.00347 0.0
H4163 H 0.08587 0.38824 0.96082 0.0
H4164 H 0.0576 0.39861 0.95976 0.0
H4165 H 0.00636 0.4656 0.0238 0.0
H4166 H 0.00352 0.43321 0.016 0.0
H4167 H 0.03357 0.44222 0.9686 0.0
H4168 H 0.03625 0.47473 0.97619 0.0
H4169 H 0.04429 0.41643 0.98702 0.0
H4170 H 0.98661 0.42611 0.96261 0.0
H4171 H 0.9581 0.43567 0.96406 0.0
H4172 H 0.94644 0.40238 0.00858 0.0
H4173 H 0.97493 0.39271 0.00747 0.0
C4174 C 0.01765 0.3296 0.95328 0.0
C4175 C 0.0055 0.31773 0.96197 0.0
C4176 C 0.0206 0.34846 0.95841 0.0
C4177 C 0.01176 0.35612 0.97268 0.0
C4178 C 0.99998 0.34414 0.98162 0.0
C4179 C 0.99686 0.32541 0.97633 0.0
C4180 C 0.01396 0.3764 0.97777 0.0
C4181 C 0.9988 0.38379 0.9796 0.0
C4182 C 0.0306 0.3886 0.98071 0.0
C4183 C 0.04746 0.38216 0.98104 0.0
C4184 C 0.05118 0.36967 0.99346 0.0
C4185 C 0.06721 0.36382 0.99392 0.0
C4186 C 0.07969 0.37049 0.98214 0.0
C4187 C 0.07617 0.38304 0.9699 0.0
C4188 C 0.06015 0.38891 0.96936 0.0
C4189 C 0.0121 0.46081 0.01146 0.0
C4190 C 0.0212 0.47313 0.00044 0.0
C4191 C 0.01052 0.44208 0.00702 0.0
C4192 C 0.01807 0.43487 0.99143 0.0
C4193 C 0.02749 0.44715 0.98064 0.0
C4194 C 0.02896 0.46589 0.985 0.0
C4195 C 0.01627 0.4147 0.98644 0.0
C4196 C 0.03147 0.4074 0.98461 0.0
C4197 C 0.99972 0.40249 0.98392 0.0
C4198 C 0.98291 0.40878 0.98503 0.0
C4199 C 0.97802 0.42095 0.97281 0.0
C4200 C 0.96184 0.42632 0.97351 0.0
C4201 C 0.95043 0.41955 0.98633 0.0
C4202 C 0.95526 0.40754 0.9986 0.0
C4203 C 0.9714 0.4021 0.99793 0.0
H4204 H 0.93786 0.42365 0.98679 0.0
H4205 H 0.0921 0.36597 0.98253 0.0
H4206 H 0.00726 0.80657 0.14661 0.0
H4207 H 0.98095 0.80843 0.16271 0.0
H4208 H 0.96584 0.75055 0.1547 0.0
H4209 H 0.99143 0.74873 0.13798 0.0
H4210 H 0.9382 0.76245 0.14653 0.0
H4211 H 0.98587 0.78063 0.20055 0.0
H4212 H 0.01275 0.80052 0.21822 0.0
H4213 H 0.98709 0.84562 0.21736 0.0
H4214 H 0.96013 0.82603 0.19952 0.0
H4215 H 0.88218 0.73888 0.21637 0.0
H4216 H 0.90534 0.74488 0.19552 0.0
H4217 H 0.90664 0.80175 0.20656 0.0
H4218 H 0.88326 0.79564 0.22754 0.0
H4219 H 0.93953 0.79577 0.21086 0.0
H4220 H 0.8918 0.77915 0.16109 0.0
H4221 H 0.86435 0.76149 0.14233 0.0
H4222 H 0.88908 0.71603 0.13388 0.0
H4223 H 0.91671 0.73343 0.15258 0.0
C4224 C 0.99837 0.79425 0.14841 0.0
C4225 C 1.00156 0.77749 0.14096 0.0
C4226 C 0.9833 0.79531 0.15774 0.0
C4227 C 0.97126 0.77961 0.16025 0.0
C4228 C 0.97469 0.76293 0.153 0.0
C4229 C 0.98948 0.76189 0.14344 0.0
C4230 C 0.95483 0.78011 0.16983 0.0
C4231 C 0.93864 0.76959 0.16072 0.0
C4232 C 0.95484 0.79021 0.1879 0.0
C4233 C 0.97109 0.80192 0.19851 0.0
C4234 C 0.98602 0.79481 0.20401 0.0
C4235 C 1.00126 0.80603 0.21408 0.0
C4236 C 1.00165 0.82433 0.21885 0.0
C4237 C 0.98679 0.83145 0.21361 0.0
C4238 C 0.97154 0.8203 0.20354 0.0
C4239 C 0.88711 0.75263 0.21398 0.0
C4240 C 0.88078 0.76677 0.22346 0.0
C4241 C 0.90038 0.75609 0.20202 0.0
C4242 C 0.90783 0.7738 0.19927 0.0
C4243 C 0.90117 0.78796 0.20834 0.0
C4244 C 0.88768 0.78446 0.2202 0.0
C4245 C 0.92325 0.77733 0.18795 0.0
C4246 C 0.93913 0.78869 0.19664 0.0
C4247 C 0.92294 0.76821 0.16937 0.0
C4248 C 0.90628 0.75755 0.15839 0.0
C4249 C 0.89134 0.76534 0.15538 0.0
C4250 C 0.87576 0.75539 0.14471 0.0
C4251 C 0.87493 0.73761 0.13703 0.0
C4252 C 0.88973 0.72979 0.13989 0.0
C4253 C 0.90537 0.73971 0.15046 0.0
H4254 H 0.86285 0.72993 0.1288 0.0
H4255 H 0.01345 0.83298 0.22665 0.0
H4256 H 0.4963 0.2952 0.15593 0.0
H4257 H 0.49463 0.32178 0.13936 0.0
H4258 H 0.54884 0.32554 0.12874 0.0
H4259 H 0.5507 0.29949 0.14557 0.0
H4260 H 0.54459 0.3572 0.14101 0.0
H4261 H 0.51062 0.30971 0.09296 0.0
H4262 H 0.48605 0.2841 0.08114 0.0
H4263 H 0.44848 0.31709 0.09314 0.0
H4264 H 0.47285 0.34285 0.10524 0.0
H4265 H 0.55859 0.41274 0.07032 0.0
H4266 H 0.55092 0.38464 0.0842 0.0
H4267 H 0.5022 0.39885 0.09821 0.0
H4268 H 0.50987 0.4272 0.08403 0.0
H4269 H 0.49977 0.35989 0.0864 0.0
H4270 H 0.53307 0.40757 0.13249 0.0
H4271 H 0.55729 0.43359 0.14391 0.0
H4272 H 0.59546 0.40032 0.13616 0.0
H4273 H 0.57145 0.37415 0.12441 0.0
C4274 C 0.50783 0.30162 0.14994 0.0
C4275 C 0.52366 0.29511 0.15217 0.0
C4276 C 0.50683 0.31684 0.14036 0.0
C4277 C 0.52158 0.32578 0.13257 0.0
C4278 C 0.53725 0.31907 0.13461 0.0
C4279 C 0.53829 0.30404 0.14424 0.0
C4280 C 0.52124 0.34245 0.1229 0.0
C4281 C 0.53482 0.35761 0.12898 0.0
C4282 C 0.50816 0.34355 0.10762 0.0
C4283 C 0.49354 0.32813 0.10019 0.0
C4284 C 0.49712 0.31146 0.09319 0.0
C4285 C 0.48323 0.29693 0.08642 0.0
C4286 C 0.46572 0.29895 0.08644 0.0
C4287 C 0.46205 0.31553 0.09316 0.0
C4288 C 0.47589 0.3301 0.09996 0.0
C4289 C 0.54602 0.40969 0.07592 0.0
C4290 C 0.53487 0.42222 0.07613 0.0
C4291 C 0.54166 0.39362 0.0839 0.0
C4292 C 0.52609 0.38965 0.09253 0.0
C4293 C 0.51428 0.40155 0.09163 0.0
C4294 C 0.51865 0.41774 0.08351 0.0
C4295 C 0.52348 0.37414 0.10415 0.0
C4296 C 0.50939 0.35939 0.09854 0.0
C4297 C 0.536 0.37336 0.11999 0.0
C4298 C 0.55047 0.38894 0.12747 0.0
C4299 C 0.54663 0.40583 0.13313 0.0
C4300 C 0.56032 0.4206 0.13966 0.0
C4301 C 0.5779 0.41862 0.14073 0.0
C4302 C 0.58183 0.40184 0.13532 0.0
C4303 C 0.56819 0.38702 0.12875 0.0
H4304 H 0.58849 0.43007 0.14578 0.0
H4305 H 0.45499 0.28768 0.08121 0.0
H4306 H 0.98396 0.29974 0.30858 0.0
H4307 H 0.95269 0.29772 0.29582 0.0
H4308 H 0.93671 0.28084 0.34898 0.0
H4309 H 0.96729 0.28235 0.36136 0.0
H4310 H 0.91505 0.26132 0.32237 0.0
H4311 H 0.93809 0.32605 0.33273 0.0
H4312 H 0.95765 0.35399 0.32704 0.0
H4313 H 0.93824 0.34372 0.26687 0.0
H4314 H 0.91873 0.3156 0.27218 0.0
H4315 H 0.82596 0.2723 0.31904 0.0
H4316 H 0.85787 0.27458 0.32655 0.0
H4317 H 0.86594 0.29323 0.27181 0.0
H4318 H 0.83411 0.29126 0.26443 0.0
H4319 H 0.89194 0.31093 0.29522 0.0
H4320 H 0.86799 0.24862 0.28349 0.0
H4321 H 0.84962 0.21917 0.28622 0.0
H4322 H 0.87153 0.22273 0.34526 0.0
H4323 H 0.88969 0.25253 0.34309 0.0
C4324 C 0.97378 0.29557 0.31753 0.0
C4325 C 0.97851 0.29124 0.33613 0.0
C4326 C 0.95575 0.29453 0.31024 0.0
C4327 C 0.94189 0.28927 0.32139 0.0
C4328 C 0.94676 0.28488 0.33983 0.0
C4329 C 0.96454 0.28584 0.347 0.0
C4330 C 0.92233 0.28791 0.31432 0.0
C4331 C 0.91008 0.27236 0.31672 0.0
C4332 C 0.91543 0.30176 0.30596 0.0
C4333 C 0.92711 0.31865 0.30283 0.0
C4334 C 0.93809 0.3297 0.31827 0.0
C4335 C 0.94916 0.34557 0.31512 0.0
C4336 C 0.94923 0.3506 0.29659 0.0
C4337 C 0.9382 0.33979 0.2812 0.0
C4338 C 0.92714 0.3239 0.28428 0.0
C4339 C 0.83447 0.27691 0.30855 0.0
C4340 C 0.82714 0.28165 0.2911 0.0
C4341 C 0.8529 0.27812 0.31283 0.0
C4342 C 0.86476 0.28384 0.29971 0.0
C4343 C 0.85743 0.28878 0.28236 0.0
C4344 C 0.83903 0.28764 0.27812 0.0
C4345 C 0.88461 0.28459 0.30403 0.0
C4346 C 0.89689 0.29992 0.30097 0.0
C4347 C 0.89161 0.2704 0.31152 0.0
C4348 C 0.88013 0.25287 0.31315 0.0
C4349 C 0.86873 0.24324 0.29713 0.0
C4350 C 0.85837 0.22646 0.29857 0.0
C4351 C 0.85951 0.21902 0.31586 0.0
C4352 C 0.87073 0.2285 0.33186 0.0
C4353 C 0.88102 0.24536 0.33055 0.0
H4354 H 0.85184 0.20584 0.31681 0.0
H4355 H 0.9578 0.36289 0.29418 0.0
H4356 H 1.00337 0.71016 0.61639 0.0
H4357 H 0.00511 0.68117 0.59951 0.0
H4358 H 0.02285 0.66374 0.6531 0.0
H4359 H 0.02109 0.69296 0.67025 0.0
H4360 H 0.04217 0.6539 0.62401 0.0
H4361 H 0.98101 0.64753 0.63198 0.0
H4362 H 0.95173 0.65577 0.63034 0.0
H4363 H 0.94934 0.65411 0.56904 0.0
H4364 H 0.97873 0.6461 0.57036 0.0
H4365 H 0.02851 0.56109 0.58383 0.0
H4366 H 0.02729 0.589 0.60345 0.0
H4367 H 0.00795 0.61024 0.55289 0.0
H4368 H 0.00893 0.58229 0.53331 0.0
H4369 H 0.98974 0.61751 0.58205 0.0
H4370 H 0.05077 0.62431 0.57374 0.0
H4371 H 0.07998 0.61595 0.57486 0.0
H4372 H 0.08286 0.61685 0.63611 0.0
H4373 H 0.0535 0.62492 0.63532 0.0
C4374 C 0.00759 0.70021 0.62471 0.0
C4375 C 0.01195 0.70404 0.64482 0.0
C4376 C 0.00855 0.68351 0.61496 0.0
C4377 C 0.01397 0.67 0.62491 0.0
C4378 C 0.01859 0.67381 0.64498 0.0
C4379 C 0.01747 0.69055 0.65482 0.0
C4380 C 0.0146 0.65201 0.61423 0.0
C4381 C 0.0306 0.64582 0.61511 0.0
C4382 C 0.99972 0.64146 0.60214 0.0
C4383 C 0.98213 0.6464 0.6013 0.0
C4384 C 0.97431 0.64909 0.61817 0.0
C4385 C 0.95768 0.65368 0.6173 0.0
C4386 C 0.9487 0.65551 0.59961 0.0
C4387 C 0.95632 0.65272 0.58274 0.0
C4388 C 0.97296 0.64814 0.58354 0.0
C4389 C 0.02415 0.57171 0.57674 0.0
C4390 C 0.0196 0.56953 0.5566 0.0
C4391 C 0.02349 0.58778 0.58808 0.0
C4392 C 0.01793 0.6021 0.57973 0.0
C4393 C 0.0126 0.59964 0.55979 0.0
C4394 C 0.01344 0.58365 0.54845 0.0
C4395 C 0.0173 0.61943 0.5917 0.0
C4396 C 1.00129 0.62552 0.59103 0.0
C4397 C 0.0322 0.62987 0.6039 0.0
C4398 C 0.04983 0.62499 0.60444 0.0
C4399 C 0.05754 0.62254 0.58743 0.0
C4400 C 0.07414 0.61789 0.58801 0.0
C4401 C 0.08324 0.6158 0.60554 0.0
C4402 C 0.07577 0.61842 0.62253 0.0
C4403 C 0.05915 0.62303 0.62203 0.0
H4404 H 0.0961 0.61222 0.60595 0.0
H4405 H 0.93582 0.65906 0.59896 0.0
H4406 H 0.58766 0.81138 0.81487 0.0
H4407 H 0.61633 0.81176 0.80249 0.0
H4408 H 0.62777 0.77347 0.84052 0.0
H4409 H 0.59988 0.77345 0.85305 0.0
H4410 H 0.65581 0.79509 0.84277 0.0
H4411 H 0.61652 0.76515 0.78764 0.0
H4412 H 0.59253 0.76043 0.76071 0.0
H4413 H 0.61931 0.80643 0.73745 0.0
H4414 H 0.64334 0.81161 0.76443 0.0
H4415 H 0.72488 0.76168 0.79938 0.0
H4416 H 0.69587 0.76488 0.80804 0.0
H4417 H 0.70147 0.81566 0.78531 0.0
H4418 H 0.73098 0.81269 0.7769 0.0
H4419 H 0.66574 0.79054 0.77435 0.0
H4420 H 0.70701 0.8169 0.83041 0.0
H4421 H 0.73077 0.81731 0.85665 0.0
H4422 H 0.69897 0.77292 0.87767 0.0
H4423 H 0.67519 0.77174 0.85122 0.0
C4424 C 0.59623 0.80295 0.82049 0.0
C4425 C 0.59113 0.79245 0.83516 0.0
C4426 C 0.61277 0.8031 0.81331 0.0
C4427 C 0.62472 0.79261 0.82038 0.0
C4428 C 0.61931 0.78193 0.83471 0.0
C4429 C 0.60305 0.78188 0.84191 0.0
C4430 C 0.64301 0.79292 0.81378 0.0
C4431 C 0.65773 0.79389 0.82772 0.0
C4432 C 0.64623 0.79172 0.79418 0.0
C4433 C 0.63158 0.78895 0.77824 0.0
C4434 C 0.61718 0.7744 0.77693 0.0
C4435 C 0.6036 0.77161 0.76162 0.0
C4436 C 0.60435 0.78317 0.74742 0.0
C4437 C 0.6187 0.79753 0.7485 0.0
C4438 C 0.6323 0.80041 0.7638 0.0
C4439 C 0.72005 0.77357 0.7961 0.0
C4440 C 0.73055 0.78688 0.78729 0.0
C4441 C 0.7033 0.7754 0.80115 0.0
C4442 C 0.69612 0.7905 0.79738 0.0
C4443 C 0.70645 0.80379 0.78839 0.0
C4444 C 0.72348 0.80213 0.78366 0.0
C4445 C 0.67817 0.79243 0.80336 0.0
C4446 C 0.66365 0.79185 0.78935 0.0
C4447 C 0.67496 0.79347 0.82287 0.0
C4448 C 0.68936 0.79411 0.83867 0.0
C4449 C 0.70514 0.80707 0.84045 0.0
C4450 C 0.71861 0.80747 0.85539 0.0
C4451 C 0.71638 0.7952 0.86879 0.0
C4452 C 0.70069 0.78242 0.86726 0.0
C4453 C 0.68723 0.78184 0.85228 0.0
H4454 H 0.72681 0.79561 0.88037 0.0
H4455 H 0.59384 0.78096 0.73556 0.0
H4456 H 0.47693 0.52982 0.7232 0.0
H4457 H 0.48733 0.53124 0.69174 0.0
H4458 H 0.43377 0.513 0.6641 0.0
H4459 H 0.42327 0.51132 0.69552 0.0
H4460 H 0.45551 0.49639 0.64586 0.0
H4461 H 0.45349 0.55671 0.66699 0.0
H4462 H 0.459 0.58455 0.68958 0.0
H4463 H 0.51497 0.58952 0.68902 0.0
H4464 H 0.50979 0.56152 0.66663 0.0
H4465 H 0.47918 0.53166 0.55566 0.0
H4466 H 0.46617 0.53138 0.58599 0.0
H4467 H 0.5138 0.51988 0.61459 0.0
H4468 H 0.52622 0.5184 0.5843 0.0
H4469 H 0.49304 0.55235 0.63101 0.0
H4470 H 0.49227 0.48927 0.6088 0.0
H4471 H 0.48398 0.46326 0.58408 0.0
H4472 H 0.429 0.46327 0.58683 0.0
H4473 H 0.43708 0.49082 0.61002 0.0
C4474 C 0.46735 0.52608 0.71044 0.0
C4475 C 0.44925 0.52056 0.71191 0.0
C4476 C 0.47331 0.52698 0.69245 0.0
C4477 C 0.46131 0.52247 0.67553 0.0
C4478 C 0.44328 0.5166 0.67694 0.0
C4479 C 0.43729 0.5157 0.69493 0.0
C4480 C 0.4676 0.5239 0.6564 0.0
C4481 C 0.46354 0.50871 0.64256 0.0
C4482 C 0.47803 0.53997 0.65201 0.0
C4483 C 0.48126 0.55693 0.66527 0.0
C4484 C 0.46698 0.56367 0.67179 0.0
C4485 C 0.47004 0.57948 0.68454 0.0
C4486 C 0.48733 0.58877 0.69077 0.0
C4487 C 0.50159 0.58229 0.6842 0.0
C4488 C 0.4986 0.56646 0.67146 0.0
C4489 C 0.48686 0.52897 0.56838 0.0
C4490 C 0.50385 0.52521 0.56747 0.0
C4491 C 0.47942 0.5289 0.58569 0.0
C4492 C 0.48905 0.52559 0.60247 0.0
C4493 C 0.50618 0.52249 0.60178 0.0
C4494 C 0.5133 0.52177 0.5844 0.0
C4495 C 0.48118 0.52477 0.62072 0.0
C4496 C 0.48493 0.54011 0.63435 0.0
C4497 C 0.47015 0.50894 0.62478 0.0
C4498 C 0.46532 0.49245 0.61078 0.0
C4499 C 0.47843 0.48414 0.60373 0.0
C4500 C 0.47375 0.46896 0.5901 0.0
C4501 C 0.45595 0.46129 0.58419 0.0
C4502 C 0.44279 0.46915 0.5915 0.0
C4503 C 0.44743 0.48474 0.60467 0.0
H4504 H 0.45236 0.44938 0.57377 0.0
H4505 H 0.48968 0.60101 0.70066 0.0
H4506 H 0.73975 0.1271 0.97491 0.0
H4507 H 0.74451 0.14761 0.95051 0.0
H4508 H 0.78547 0.18338 0.98977 0.0
H4509 H 0.78104 0.16293 0.01416 0.0
H4510 H 0.75835 0.19945 0.96834 0.0
H4511 H 0.80083 0.16245 0.96002 0.0
H4512 H 0.80965 0.13307 0.95811 0.0
H4513 H 0.77293 0.11462 0.90695 0.0
H4514 H 0.76358 0.14384 0.90883 0.0
H4515 H 0.77296 0.2506 0.89334 0.0
H4516 H 0.7839 0.23328 0.91788 0.0
H4517 H 0.74859 0.18513 0.88925 0.0
H4518 H 0.73794 0.2024 0.86462 0.0
H4519 H 0.77969 0.17802 0.90787 0.0
H4520 H 0.73322 0.21091 0.91984 0.0
H4521 H 0.72124 0.23863 0.92203 0.0
H4522 H 0.76325 0.26345 0.96662 0.0
H4523 H 0.77569 0.23594 0.96436 0.0
C4524 C 0.74975 0.13933 0.97833 0.0
C4525 C 0.76019 0.14333 0.99627 0.0
C4526 C 0.75244 0.15098 0.96444 0.0
C4527 C 0.76544 0.16679 0.96846 0.0
C4528 C 0.77546 0.17115 0.98653 0.0
C4529 C 0.77296 0.1594 0.00033 0.0
C4530 C 0.76873 0.17852 0.95346 0.0
C4531 C 0.76347 0.19506 0.95532 0.0
C4532 C 0.77519 0.1725 0.93652 0.0
C4533 C 0.78146 0.1553 0.93461 0.0
C4534 C 0.79461 0.15211 0.94838 0.0
C4535 C 0.79969 0.13548 0.94732 0.0
C4536 C 0.79186 0.12196 0.93241 0.0
C4537 C 0.77899 0.12511 0.91848 0.0
C4538 C 0.77381 0.14172 0.91952 0.0
C4539 C 0.76791 0.23624 0.8922 0.0
C4540 C 0.75439 0.22772 0.87767 0.0
C4541 C 0.77424 0.22638 0.90599 0.0
C4542 C 0.76684 0.20805 0.90542 0.0
C4543 C 0.75445 0.19927 0.88986 0.0
C4544 C 0.7482 0.20911 0.87602 0.0
C4545 C 0.76906 0.1989 0.92261 0.0
C4546 C 0.77521 0.18276 0.92115 0.0
C4547 C 0.76326 0.20521 0.93993 0.0
C4548 C 0.75549 0.2215 0.94178 0.0
C4549 C 0.73994 0.22232 0.93004 0.0
C4550 C 0.73308 0.23799 0.93127 0.0
C4551 C 0.7415 0.25282 0.94442 0.0
C4552 C 0.75677 0.25197 0.95641 0.0
C4553 C 0.76374 0.23635 0.95514 0.0
H4554 H 0.73618 0.26495 0.94536 0.0
H4555 H 0.79578 0.10906 0.93165 0.0
H4556 H 0.1565 0.5269 0.1887 0.0
H4557 H 0.14012 0.5293 0.15823 0.0
H4558 H 0.09661 0.54098 0.18735 0.0
H4559 H 0.11298 0.53856 0.21827 0.0
H4560 H 0.08767 0.51218 0.15955 0.0
H4561 H 0.11911 0.5729 0.16612 0.0
H4562 H 0.14453 0.59843 0.17161 0.0
H4563 H 0.16586 0.57649 0.12289 0.0
H4564 H 0.14072 0.55067 0.11727 0.0
H4565 H 0.04355 0.5441 0.08012 0.0
H4566 H 0.06282 0.54504 0.10974 0.0
H4567 H 0.08875 0.50601 0.08227 0.0
H4568 H 0.06854 0.50388 0.05265 0.0
H4569 H 0.10695 0.54863 0.1082 0.0
H4570 H 0.07665 0.48534 0.10549 0.0
H4571 H 0.04945 0.46187 0.09883 0.0
H4572 H 0.02534 0.49083 0.14051 0.0
H4573 H 0.05229 0.5147 0.14705 0.0
C4574 C 0.14348 0.53007 0.18871 0.0
C4575 C 0.13583 0.53228 0.20577 0.0
C4576 C 0.1343 0.53171 0.17133 0.0
C4577 C 0.1174 0.53555 0.1708 0.0
C4578 C 0.1098 0.53816 0.18776 0.0
C4579 C 0.11903 0.53659 0.20526 0.0
C4580 C 0.10683 0.53412 0.15226 0.0
C4581 C 0.09179 0.5203 0.1484 0.0
C4582 C 0.11266 0.54443 0.13773 0.0
C4583 C 0.12809 0.55972 0.14141 0.0
C4584 C 0.12933 0.57338 0.15672 0.0
C4585 C 0.14367 0.58795 0.15982 0.0
C4586 C 0.15683 0.58906 0.14764 0.0
C4587 C 0.15567 0.5756 0.13234 0.0
C4588 C 0.14137 0.561 0.12918 0.0
C4589 C 0.05286 0.53519 0.08051 0.0
C4590 C 0.05419 0.52343 0.06436 0.0
C4591 C 0.06402 0.53602 0.09728 0.0
C4592 C 0.07687 0.5255 0.09786 0.0
C4593 C 0.07862 0.51403 0.08179 0.0
C4594 C 0.06711 0.51281 0.06507 0.0
C4595 C 0.0882 0.52662 0.11569 0.0
C4596 C 0.10317 0.54045 0.11941 0.0
C4597 C 0.0824 0.51637 0.13013 0.0
C4598 C 0.06635 0.5019 0.12654 0.0
C4599 C 0.06546 0.4868 0.11305 0.0
C4600 C 0.05011 0.47341 0.10933 0.0
C4601 C 0.03564 0.4749 0.11918 0.0
C4602 C 0.03653 0.48973 0.13284 0.0
C4603 C 0.05184 0.50319 0.13655 0.0
H4604 H 0.02376 0.46452 0.11627 0.0
H4605 H 0.16789 0.60037 0.15004 0.0
H4606 H 0.76444 0.86352 0.47298 0.0
H4607 H 0.76104 0.84994 0.43949 0.0
H4608 H 0.80467 0.82382 0.45281 0.0
H4609 H 0.80832 0.83753 0.48613 0.0
H4610 H 0.80865 0.83927 0.42149 0.0
H4611 H 0.76067 0.80086 0.44414 0.0
H4612 H 0.73318 0.79315 0.45882 0.0
H4613 H 0.70533 0.81657 0.41536 0.0
H4614 H 0.73273 0.8247 0.40059 0.0
H4615 H 0.79772 0.77917 0.33451 0.0
H4616 H 0.79883 0.7909 0.36833 0.0
H4617 H 0.75934 0.82151 0.35285 0.0
H4618 H 0.75852 0.81034 0.31908 0.0
H4619 H 0.75278 0.80402 0.38486 0.0
H4620 H 0.8006 0.84154 0.36171 0.0
H4621 H 0.82797 0.84857 0.3467 0.0
H4622 H 0.85619 0.82705 0.39139 0.0
H4623 H 0.82887 0.81919 0.40634 0.0
C4624 C 0.77321 0.85475 0.46883 0.0
C4625 C 0.78668 0.85166 0.48231 0.0
C4626 C 0.7712 0.84692 0.44965 0.0
C4627 C 0.78253 0.83573 0.44354 0.0
C4628 C 0.79577 0.83241 0.45708 0.0
C4629 C 0.7978 0.84023 0.4762 0.0
C4630 C 0.78124 0.82813 0.42294 0.0
C4631 C 0.79648 0.83131 0.41361 0.0
C4632 C 0.76525 0.81821 0.41236 0.0
C4633 C 0.74882 0.81358 0.4214 0.0
C4634 C 0.74873 0.80455 0.43783 0.0
C4635 C 0.73315 0.80007 0.44615 0.0
C4636 C 0.71753 0.80442 0.43807 0.0
C4637 C 0.71745 0.81325 0.42163 0.0
C4638 C 0.733 0.81779 0.41329 0.0
C4639 C 0.78944 0.78855 0.33822 0.0
C4640 C 0.77839 0.79412 0.3239 0.0
C4641 C 0.79 0.79518 0.35762 0.0
C4642 C 0.77928 0.80724 0.36315 0.0
C4643 C 0.76778 0.81229 0.34897 0.0
C4644 C 0.76742 0.80592 0.3296 0.0
C4645 C 0.78025 0.8149 0.38363 0.0
C4646 C 0.76495 0.81188 0.39284 0.0
C4647 C 0.79618 0.82497 0.39412 0.0
C4648 C 0.8126 0.82955 0.38503 0.0
C4649 C 0.81257 0.83807 0.36822 0.0
C4650 C 0.82809 0.84226 0.35975 0.0
C4651 C 0.8438 0.83834 0.36812 0.0
C4652 C 0.84401 0.83009 0.38492 0.0
C4653 C 0.8285 0.8257 0.39337 0.0
H4654 H 0.8558 0.84167 0.36155 0.0
H4655 H 0.70548 0.8009 0.4445 0.0
H4656 H 0.46531 0.52906 0.80402 0.0
H4657 H 0.48248 0.53443 0.83627 0.0
H4658 H 0.4395 0.50113 0.85804 0.0
H4659 H 0.42266 0.49533 0.82616 0.0
H4660 H 0.45476 0.53729 0.88022 0.0
H4661 H 0.47037 0.48288 0.84945 0.0
H4662 H 0.48323 0.46638 0.8245 0.0
H4663 H 0.53302 0.50333 0.83958 0.0
H4664 H 0.52032 0.52026 0.86438 0.0
H4665 H 0.47914 0.51467 0.97083 0.0
H4666 H 0.46818 0.51445 0.93707 0.0
H4667 H 0.5219 0.52831 0.92408 0.0
H4668 H 0.53283 0.52706 0.95778 0.0
H4669 H 0.50495 0.50743 0.89618 0.0
H4670 H 0.49242 0.56004 0.92907 0.0
H4671 H 0.48111 0.57824 0.954 0.0
H4672 H 0.42823 0.54891 0.93496 0.0
H4673 H 0.43924 0.53036 0.91012 0.0
C4674 C 0.4596 0.52289 0.81572 0.0
C4675 C 0.44266 0.51172 0.81255 0.0
C4676 C 0.46939 0.52597 0.83408 0.0
C4677 C 0.46218 0.51821 0.84951 0.0
C4678 C 0.44525 0.50728 0.84634 0.0
C4679 C 0.43569 0.5039 0.82806 0.0
C4680 C 0.47209 0.52106 0.86906 0.0
C4681 C 0.46576 0.53082 0.88379 0.0
C4682 C 0.4868 0.51313 0.87353 0.0
C4683 C 0.49432 0.50299 0.85854 0.0
C4684 C 0.48398 0.48763 0.84727 0.0
C4685 C 0.49126 0.47817 0.83319 0.0
C4686 C 0.50891 0.48385 0.8304 0.0
C4687 C 0.51933 0.49898 0.84171 0.0
C4688 C 0.5121 0.50852 0.85576 0.0
C4689 C 0.48857 0.51755 0.96069 0.0
C4690 C 0.50678 0.52109 0.9668 0.0
C4691 C 0.48232 0.51763 0.94142 0.0
C4692 C 0.49416 0.52207 0.92801 0.0
C4693 C 0.51244 0.52505 0.93409 0.0
C4694 C 0.5187 0.52435 0.95331 0.0
C4695 C 0.48736 0.52332 0.9077 0.0
C4696 C 0.49423 0.51433 0.89276 0.0
C4697 C 0.47341 0.53239 0.903 0.0
C4698 C 0.46669 0.54374 0.91776 0.0
C4699 C 0.47839 0.55742 0.93024 0.0
C4700 C 0.47203 0.5678 0.94437 0.0
C4701 C 0.45397 0.56472 0.94607 0.0
C4702 C 0.44222 0.55129 0.93362 0.0
C4703 C 0.44851 0.54085 0.9195 0.0
H4704 H 0.44908 0.57275 0.95702 0.0
H4705 H 0.51453 0.47648 0.81952 0.0
H4706 H 0.79915 0.16863 0.09542 0.0
H4707 H 0.79825 0.18561 0.1266 0.0
H4708 H 0.74151 0.17896 0.11377 0.0
H4709 H 0.74271 0.16314 0.08218 0.0
H4710 H 0.75496 0.21141 0.12769 0.0
H4711 H 0.76243 0.15338 0.14579 0.0
H4712 H 0.77693 0.12742 0.14799 0.0
H4713 H 0.8246 0.16242 0.17614 0.0
H4714 H 0.81044 0.18859 0.17394 0.0
H4715 H 0.74192 0.24424 0.22091 0.0
H4716 H 0.7405 0.22391 0.19135 0.0
H4717 H 0.79733 0.22937 0.20049 0.0
H4718 H 0.7985 0.24854 0.23068 0.0
H4719 H 0.78226 0.19612 0.18906 0.0
H4720 H 0.77615 0.25401 0.16923 0.0
H4721 H 0.76194 0.28028 0.16873 0.0
H4722 H 0.7126 0.2459 0.14428 0.0
H4723 H 0.72648 0.2194 0.14486 0.0
C4724 C 0.78664 0.1712 0.0993 0.0
C4725 C 0.77106 0.16514 0.08668 0.0
C4726 C 0.78605 0.18054 0.11709 0.0
C4727 C 0.76976 0.18315 0.12252 0.0
C4728 C 0.75419 0.17703 0.10975 0.0
C4729 C 0.75486 0.16818 0.09179 0.0
C4730 C 0.76895 0.19309 0.14113 0.0
C4731 C 0.76069 0.20789 0.14115 0.0
C4732 C 0.77684 0.18868 0.15854 0.0
C4733 C 0.78541 0.17295 0.15955 0.0
C4734 C 0.77604 0.15555 0.15229 0.0
C4735 C 0.78419 0.14079 0.15358 0.0
C4736 C 0.80168 0.14327 0.16216 0.0
C4737 C 0.81106 0.16051 0.16948 0.0
C4738 C 0.80297 0.1753 0.16824 0.0
C4739 C 0.75401 0.24101 0.21642 0.0
C4740 C 0.77029 0.24771 0.22764 0.0
C4741 C 0.75322 0.22949 0.19971 0.0
C4742 C 0.76886 0.22545 0.19374 0.0
C4743 C 0.78515 0.23233 0.205 0.0
C4744 C 0.78584 0.24329 0.22204 0.0
C4745 C 0.76842 0.21442 0.17549 0.0
C4746 C 0.77644 0.19948 0.17557 0.0
C4747 C 0.76046 0.21875 0.15813 0.0
C4748 C 0.75231 0.23474 0.15719 0.0
C4749 C 0.76227 0.25207 0.16378 0.0
C4750 C 0.75427 0.26699 0.16349 0.0
C4751 C 0.73637 0.26476 0.1565 0.0
C4752 C 0.72646 0.24761 0.14969 0.0
C4753 C 0.73438 0.23264 0.14997 0.0
H4754 H 0.73019 0.27633 0.15634 0.0
H4755 H 0.80796 0.13183 0.16316 0.0
H4756 H 0.13871 0.51483 0.28399 0.0
H4757 H 0.12068 0.51059 0.31023 0.0
H4758 H 0.14271 0.56508 0.33568 0.0
H4759 H 0.16071 0.56954 0.30943 0.0
H4760 H 0.14519 0.53713 0.36005 0.0
H4761 H 0.10374 0.55812 0.31603 0.0
H4762 H 0.0853 0.55736 0.28518 0.0
H4763 H 0.05736 0.50429 0.29077 0.0
H4764 H 0.07583 0.50465 0.32156 0.0
H4765 H 0.09398 0.57488 0.42011 0.0
H4766 H 0.11207 0.56386 0.39706 0.0
H4767 H 0.0765 0.51207 0.38801 0.0
H4768 H 0.05849 0.52312 0.41151 0.0
H4769 H 0.0799 0.52919 0.3552 0.0
H4770 H 0.12096 0.50881 0.40012 0.0
H4771 H 0.14107 0.50919 0.42969 0.0
H4772 H 0.16917 0.56181 0.42266 0.0
H4773 H 0.14968 0.56136 0.39254 0.0
C4774 C 0.13967 0.52592 0.29517 0.0
C4775 C 0.15123 0.54245 0.29493 0.0
C4776 C 0.12931 0.52349 0.30999 0.0
C4777 C 0.13056 0.53752 0.32471 0.0
C4778 C 0.14176 0.55415 0.32431 0.0
C4779 C 0.15196 0.55667 0.30939 0.0
C4780 C 0.12095 0.53465 0.3412 0.0
C4781 C 0.13091 0.53537 0.35906 0.0
C4782 C 0.10234 0.5316 0.33953 0.0
C4783 C 0.09135 0.5313 0.32094 0.0
C4784 C 0.09381 0.5462 0.31056 0.0
C4785 C 0.08332 0.54587 0.29312 0.0
C4786 C 0.07022 0.53076 0.28598 0.0
C4787 C 0.06755 0.51597 0.29629 0.0
C4788 C 0.07802 0.51623 0.31374 0.0
C4789 C 0.09028 0.56108 0.41339 0.0
C4790 C 0.07487 0.54985 0.41707 0.0
C4791 C 0.10069 0.55469 0.40053 0.0
C4792 C 0.09566 0.5371 0.39109 0.0
C4793 C 0.08063 0.5256 0.39541 0.0
C4794 C 0.07035 0.53192 0.40858 0.0
C4795 C 0.10421 0.53237 0.37428 0.0
C4796 C 0.09412 0.53025 0.35618 0.0
C4797 C 0.12271 0.53423 0.37568 0.0
C4798 C 0.13378 0.53511 0.39426 0.0
C4799 C 0.13135 0.5205 0.40498 0.0
C4800 C 0.14274 0.52067 0.42173 0.0
C4801 C 0.15627 0.5356 0.42819 0.0
C4802 C 0.15863 0.55029 0.41771 0.0
C4803 C 0.14754 0.55001 0.40069 0.0
H4804 H 0.16495 0.53575 0.44128 0.0
H4805 H 0.06209 0.53053 0.27248 0.0
H4806 H 0.79904 0.87518 0.59249 0.0
H4807 H 0.79956 0.8635 0.62366 0.0
H4808 H 0.76014 0.817 0.59871 0.0
H4809 H 0.7596 0.82846 0.56753 0.0
H4810 H 0.75239 0.83435 0.63328 0.0
H4811 H 0.80234 0.81367 0.60834 0.0
H4812 H 0.83131 0.81835 0.59615 0.0
H4813 H 0.85489 0.85232 0.64818 0.0
H4814 H 0.82601 0.84808 0.66054 0.0
H4815 H 0.74903 0.78793 0.71424 0.0
H4816 H 0.75059 0.79618 0.68207 0.0
H4817 H 0.8038 0.82639 0.69991 0.0
H4818 H 0.80366 0.81397 0.73022 0.0
H4819 H 0.80474 0.81776 0.66779 0.0
H4820 H 0.75825 0.84326 0.69301 0.0
H4821 H 0.7304 0.84271 0.70715 0.0
H4822 H 0.70183 0.80708 0.65827 0.0
H4823 H 0.72953 0.80726 0.64397 0.0
C4824 C 0.79055 0.86241 0.59359 0.0
C4825 C 0.77924 0.85278 0.57746 0.0
C4826 C 0.79091 0.85573 0.61143 0.0
C4827 C 0.77993 0.83934 0.61352 0.0
C4828 C 0.76872 0.82968 0.59744 0.0
C4829 C 0.76846 0.83625 0.57959 0.0
C4830 C 0.77958 0.83248 0.63256 0.0
C4831 C 0.76379 0.83061 0.64086 0.0
C4832 C 0.79463 0.82828 0.64278 0.0
C4833 C 0.81197 0.83069 0.63528 0.0
C4834 C 0.81367 0.82226 0.6171 0.0
C4835 C 0.83008 0.82482 0.61018 0.0
C4836 C 0.84492 0.83566 0.62136 0.0
C4837 C 0.84339 0.84394 0.63952 0.0
C4838 C 0.827 0.84146 0.64649 0.0
C4839 C 0.76131 0.79567 0.71106 0.0
C4840 C 0.77621 0.80018 0.72502 0.0
C4841 C 0.76199 0.80111 0.69272 0.0
C4842 C 0.77703 0.8128 0.68835 0.0
C4843 C 0.79187 0.81754 0.70252 0.0
C4844 C 0.79163 0.81088 0.7203 0.0
C4845 C 0.7775 0.8199 0.66917 0.0
C4846 C 0.79329 0.82172 0.66064 0.0
C4847 C 0.76265 0.82491 0.65913 0.0
C4848 C 0.74596 0.82519 0.6675 0.0
C4849 C 0.74602 0.83531 0.6853 0.0
C4850 C 0.73027 0.83503 0.69335 0.0
C4851 C 0.71436 0.82484 0.68363 0.0
C4852 C 0.71416 0.81496 0.66579 0.0
C4853 C 0.72987 0.81516 0.6577 0.0
H4854 H 0.70219 0.82462 0.6899 0.0
H4855 H 0.85762 0.83761 0.61598 0.0
H4856 H 0.75196 0.46972 0.5145 0.0
H4857 H 0.72423 0.47907 0.51818 0.0
H4858 H 0.69737 0.4382 0.47242 0.0
H4859 H 0.7253 0.4284 0.46862 0.0
H4860 H 0.69106 0.47701 0.47363 0.0
H4861 H 0.69027 0.42684 0.51065 0.0
H4862 H 0.70295 0.40928 0.53401 0.0
H4863 H 0.71068 0.45413 0.57804 0.0
H4864 H 0.69835 0.47207 0.55488 0.0
H4865 H 0.60755 0.48487 0.51017 0.0
H4866 H 0.63202 0.47741 0.49353 0.0
H4867 H 0.66921 0.50455 0.54218 0.0
H4868 H 0.64479 0.51149 0.55894 0.0
H4869 H 0.66724 0.46822 0.53534 0.0
H4870 H 0.67236 0.51957 0.50121 0.0
H4871 H 0.66523 0.54099 0.47916 0.0
H4872 H 0.65391 0.49885 0.43182 0.0
H4873 H 0.66065 0.47708 0.45365 0.0
C4874 C 0.74025 0.4628 0.50502 0.0
C4875 C 0.74067 0.44825 0.49134 0.0
C4876 C 0.72448 0.46813 0.50721 0.0
C4877 C 0.70901 0.45907 0.49571 0.0
C4878 C 0.70937 0.44513 0.48141 0.0
C4879 C 0.72522 0.43961 0.47929 0.0
C4880 C 0.6925 0.46419 0.49937 0.0
C4881 C 0.68535 0.47476 0.48681 0.0
C4882 C 0.68594 0.46163 0.517 0.0
C4883 C 0.69347 0.45084 0.53095 0.0
C4884 C 0.69483 0.43303 0.52525 0.0
C4885 C 0.70193 0.42299 0.53848 0.0
C4886 C 0.70764 0.43059 0.55748 0.0
C4887 C 0.70626 0.44825 0.56331 0.0
C4888 C 0.6992 0.45835 0.55014 0.0
C4889 C 0.62103 0.48936 0.51706 0.0
C4890 C 0.62457 0.4981 0.53591 0.0
C4891 C 0.6349 0.48542 0.50748 0.0
C4892 C 0.65225 0.49046 0.51674 0.0
C4893 C 0.65581 0.50062 0.53492 0.0
C4894 C 0.64198 0.50431 0.54455 0.0
C4895 C 0.66596 0.48168 0.50987 0.0
C4896 C 0.6725 0.47024 0.52187 0.0
C4897 C 0.67221 0.48386 0.49198 0.0
C4898 C 0.66662 0.49659 0.47918 0.0
C4899 C 0.66792 0.51476 0.4862 0.0
C4900 C 0.66408 0.527 0.4737 0.0
C4901 C 0.65901 0.52127 0.45412 0.0
C4902 C 0.65773 0.50326 0.44701 0.0
C4903 C 0.66153 0.49096 0.45945 0.0
H4904 H 0.65618 0.5308 0.44445 0.0
H4905 H 0.71312 0.42279 0.56769 0.0
H4906 H 0.21983 0.11195 0.51424 0.0
H4907 H 0.19095 0.09293 0.51568 0.0
H4908 H 0.16519 0.13392 0.49483 0.0
H4909 H 0.19395 0.15316 0.49397 0.0
H4910 H 0.15042 0.12266 0.52339 0.0
H4911 H 0.1663 0.09306 0.46662 0.0
H4912 H 0.18489 0.07792 0.44689 0.0
H4913 H 0.18265 0.03638 0.48393 0.0
H4914 H 0.16426 0.05142 0.50403 0.0
H4915 H 0.06379 0.06718 0.49631 0.0
H4916 H 0.09313 0.08524 0.495 0.0
H4917 H 0.11651 0.052 0.53185 0.0
H4918 H 0.08713 0.03428 0.53399 0.0
H4919 H 0.13225 0.05867 0.49555 0.0
H4920 H 0.12199 0.09252 0.55532 0.0
H4921 H 0.10581 0.10967 0.57627 0.0
H4922 H 0.0968 0.14265 0.53179 0.0
H4923 H 0.11355 0.12611 0.5109 0.0
C4924 C 0.20801 0.11684 0.5098 0.0
C4925 C 0.2092 0.13409 0.50401 0.0
C4926 C 0.19147 0.10591 0.51054 0.0
C4927 C 0.17581 0.11188 0.50518 0.0
C4928 C 0.17704 0.12899 0.49908 0.0
C4929 C 0.19352 0.13998 0.49855 0.0
C4930 C 0.15815 0.10078 0.5068 0.0
C4931 C 0.14643 0.10874 0.517 0.0
C4932 C 0.15294 0.08246 0.49894 0.0
C4933 C 0.16407 0.07347 0.48694 0.0
C4934 C 0.16991 0.08079 0.47065 0.0
C4935 C 0.18038 0.07221 0.45938 0.0
C4936 C 0.18499 0.05623 0.46418 0.0
C4937 C 0.1791 0.04877 0.48024 0.0
C4938 C 0.16865 0.05731 0.49157 0.0
C4939 C 0.07515 0.06363 0.50412 0.0
C4940 C 0.07307 0.04905 0.51504 0.0
C4941 C 0.0919 0.07406 0.50344 0.0
C4942 C 0.10695 0.06999 0.51339 0.0
C4943 C 0.10502 0.05534 0.52407 0.0
C4944 C 0.08822 0.0451 0.52508 0.0
C4945 C 0.12473 0.08066 0.512 0.0
C4946 C 0.13638 0.0726 0.50183 0.0
C4947 C 0.12987 0.09892 0.51969 0.0
C4948 C 0.11872 0.10794 0.53151 0.0
C4949 C 0.11639 0.10332 0.54998 0.0
C4950 C 0.10729 0.11304 0.5619 0.0
C4951 C 0.1001 0.12711 0.55529 0.0
C4952 C 0.10225 0.13167 0.53685 0.0
C4953 C 0.11167 0.12223 0.52502 0.0
H4954 H 0.09296 0.13453 0.5645 0.0
H4955 H 0.19309 0.0496 0.45543 0.0
H4956 H 0.18165 0.00408 0.79678 0.0
H4957 H 0.19841 0.98 0.79822 0.0
H4958 H 0.15422 0.94264 0.76522 0.0
H4959 H 0.13728 0.96642 0.76423 0.0
H4960 H 0.16736 0.92727 0.7932 0.0
H4961 H 0.19171 0.96214 0.74519 0.0
H4962 H 0.20604 0.98962 0.73279 0.0
H4963 H 0.25112 0.99512 0.77536 0.0
H4964 H 0.23694 0.96778 0.78815 0.0
H4965 H 0.20495 0.86092 0.74516 0.0
H4966 H 0.19014 0.88434 0.75764 0.0
H4967 H 0.23882 0.91147 0.79224 0.0
H4968 H 0.2537 0.88791 0.77956 0.0
H4969 H 0.22582 0.93318 0.76938 0.0
H4970 H 0.20225 0.89454 0.81363 0.0
H4971 H 0.18738 0.86639 0.8243 0.0
H4972 H 0.14024 0.86702 0.78688 0.0
H4973 H 0.15489 0.89506 0.7758 0.0
C4974 C 0.17553 0.99073 0.78982 0.0
C4975 C 0.15815 0.98718 0.78033 0.0
C4976 C 0.18513 0.97698 0.79062 0.0
C4977 C 0.17764 0.95951 0.78168 0.0
C4978 C 0.16027 0.95598 0.7723 0.0
C4979 C 0.15062 0.96963 0.77166 0.0
C4980 C 0.1878 0.94485 0.7818 0.0
C4981 C 0.18011 0.92852 0.7879 0.0
C4982 C 0.20468 0.94663 0.77543 0.0
C4983 C 0.21318 0.96307 0.76777 0.0
C4984 C 0.20461 0.9693 0.752 0.0
C4985 C 0.21272 0.98483 0.74488 0.0
C4986 C 0.22945 0.99415 0.75332 0.0
C4987 C 0.23814 0.98792 0.76887 0.0
C4988 C 0.23008 0.97241 0.77605 0.0
C4989 C 0.21228 0.87156 0.75596 0.0
C4990 C 0.23037 0.87265 0.76153 0.0
C4991 C 0.20383 0.88493 0.76311 0.0
C4992 C 0.21335 0.89966 0.77594 0.0
C4993 C 0.23122 0.90019 0.78241 0.0
C4994 C 0.23966 0.8867 0.77531 0.0
C4995 C 0.20521 0.91545 0.78039 0.0
C4996 C 0.21325 0.93201 0.77508 0.0
C4997 C 0.18856 0.91379 0.78726 0.0
C4998 C 0.17972 0.89687 0.79382 0.0
C4999 C 0.18876 0.88861 0.80757 0.0
C5000 C 0.18035 0.87268 0.81371 0.0
C5001 C 0.16288 0.86491 0.80626 0.0
C5002 C 0.15377 0.87306 0.79265 0.0
C5003 C 0.16211 0.88899 0.78646 0.0
H5004 H 0.1564 0.85259 0.81104 0.0
H5005 H 0.23571 0.00616 0.74779 0.0
H5006 H 0.3471 0.9276 0.01878 0.0
H5007 H 0.37798 0.93957 0.01575 0.0
H5008 H 0.36755 0.99334 0.01906 0.0
H5009 H 0.33635 0.98131 0.02123 0.0
H5010 H 0.38904 0.98652 0.99155 0.0
H5011 H 0.38411 0.97765 0.05898 0.0
H5012 H 0.37519 0.95868 0.08406 0.0
H5013 H 0.40808 0.92246 0.06592 0.0
H5014 H 0.41702 0.94113 0.0406 0.0
H5015 H 0.47526 0.03725 0.01767 0.0
H5016 H 0.44384 0.0246 0.01793 0.0
H5017 H 0.45584 0.97174 0.02016 0.0
H5018 H 0.48702 0.9843 0.02063 0.0
H5019 H 0.43348 0.97723 0.04354 0.0
H5020 H 0.44011 0.98454 0.9779 0.0
H5021 H 0.4492 1.00107 0.95108 0.0
H5022 H 0.41418 0.03696 0.96294 0.0
H5023 H 0.40503 0.02078 0.98999 0.0
C5024 C 0.35148 0.94199 0.01912 0.0
C5025 C 0.33968 0.95371 0.02073 0.0
C5026 C 0.36896 0.94873 0.01717 0.0
C5027 C 0.37483 0.96726 0.01744 0.0
C5028 C 0.36305 0.97898 0.01883 0.0
C5029 C 0.34544 0.97219 0.02034 0.0
C5030 C 0.39354 0.97459 0.01762 0.0
C5031 C 0.39882 0.98469 0.00294 0.0
C5032 C 0.40609 0.97156 0.03224 0.0
C5033 C 0.40114 0.96071 0.04787 0.0
C5034 C 0.3894 0.96562 0.06034 0.0
C5035 C 0.38434 0.95492 0.07458 0.0
C5036 C 0.39105 0.93936 0.07657 0.0
C5037 C 0.40289 0.93451 0.06437 0.0
C5038 C 0.40798 0.94516 0.0501 0.0
C5039 C 0.47107 0.02301 0.01852 0.0
C5040 C 0.48327 0.01168 0.0192 0.0
C5041 C 0.45328 0.01582 0.0185 0.0
C5042 C 0.44774 0.99728 0.0187 0.0
C5043 C 0.46003 0.98609 0.01998 0.0
C5044 C 0.47777 0.99329 0.02036 0.0
C5045 C 0.42907 0.98935 0.01757 0.0
C5046 C 0.42377 0.97909 0.03207 0.0
C5047 C 0.41665 0.9919 0.00252 0.0
C5048 C 0.42196 1.00152 0.98607 0.0
C5049 C 0.43442 0.99602 0.97486 0.0
C5050 C 0.43958 0.00532 0.95961 0.0
C5051 C 0.43229 0.02007 0.95533 0.0
C5052 C 0.41981 0.02553 0.96627 0.0
C5053 C 0.41461 0.01628 0.98155 0.0
H5054 H 0.43626 0.02724 0.9435 0.0
H5055 H 0.38708 0.93107 0.08757 0.0
H5056 H 0.87883 0.58171 0.81213 0.0
H5057 H 0.86501 0.60772 0.80995 0.0
H5058 H 0.81474 0.57263 0.78897 0.0
H5059 H 0.82834 0.54655 0.79107 0.0
H5060 H 0.82754 0.59815 0.76482 0.0
H5061 H 0.81696 0.59453 0.83002 0.0
H5062 H 0.82717 0.59 0.86312 0.0
H5063 H 0.86637 0.63876 0.86864 0.0
H5064 H 0.85658 0.64342 0.8354 0.0
H5065 H 0.78425 0.66802 0.75282 0.0
H5066 H 0.79 0.64285 0.76967 0.0
H5067 H 0.84382 0.67091 0.78774 0.0
H5068 H 0.83815 0.6962 0.77072 0.0
H5069 H 0.82607 0.64787 0.81544 0.0
H5070 H 0.83992 0.64909 0.74997 0.0
H5071 H 0.83353 0.65177 0.71554 0.0
H5072 H 0.79116 0.6056 0.70945 0.0
H5073 H 0.79693 0.60302 0.74405 0.0
C5074 C 0.86477 0.57955 0.8075 0.0
C5075 C 0.85466 0.56227 0.80151 0.0
C5076 C 0.85693 0.59434 0.80631 0.0
C5077 C 0.83897 0.59182 0.79933 0.0
C5078 C 0.82864 0.57458 0.7944 0.0
C5079 C 0.83643 0.55981 0.79559 0.0
C5080 C 0.8315 0.60727 0.79517 0.0
C5081 C 0.82672 0.60884 0.77586 0.0
C5082 C 0.83112 0.62118 0.80972 0.0
C5083 C 0.836 0.61936 0.83025 0.0
C5084 C 0.8277 0.60434 0.83833 0.0
C5085 C 0.83345 0.60171 0.85708 0.0
C5086 C 0.8474 0.6141 0.86798 0.0
C5087 C 0.85553 0.62921 0.86018 0.0
C5088 C 0.84985 0.63188 0.8414 0.0
C5089 C 0.79719 0.66891 0.76072 0.0
C5090 C 0.81095 0.68366 0.76027 0.0
C5091 C 0.80035 0.65472 0.77047 0.0
C5092 C 0.81727 0.65525 0.77981 0.0
C5093 C 0.83066 0.67054 0.78065 0.0
C5094 C 0.82755 0.68469 0.7707 0.0
C5095 C 0.8219 0.63863 0.78505 0.0
C5096 C 0.82636 0.63694 0.80447 0.0
C5097 C 0.82214 0.62453 0.77054 0.0
C5098 C 0.81859 0.62613 0.74972 0.0
C5099 C 0.82902 0.63972 0.74139 0.0
C5100 C 0.82555 0.64119 0.72182 0.0
C5101 C 0.81188 0.62893 0.71033 0.0
C5102 C 0.80167 0.61516 0.71839 0.0
C5103 C 0.80501 0.61372 0.738 0.0
H5104 H 0.80925 0.63005 0.69517 0.0
H5105 H 0.85192 0.61198 0.88246 0.0
H5106 H 0.79659 0.61604 0.01203 0.0
H5107 H 0.82076 0.59956 0.01292 0.0
H5108 H 0.85777 0.64842 0.00859 0.0
H5109 H 0.8337 0.66488 0.00735 0.0
H5110 H 0.8647 0.62163 0.98589 0.0
H5111 H 0.85481 0.63121 0.05151 0.0
H5112 H 0.83774 0.63048 0.07912 0.0
H5113 H 0.82391 0.57287 0.06847 0.0
H5114 H 0.84072 0.57328 0.04062 0.0
H5115 H 0.94382 0.59393 0.02421 0.0
H5116 H 0.91912 0.60802 0.01379 0.0
H5117 H 0.88249 0.55834 0.01605 0.0
H5118 H 0.90718 0.54442 0.02666 0.0
H5119 H 0.87529 0.58532 0.03884 0.0
H5120 H 0.88449 0.57661 0.97176 0.0
H5121 H 0.90133 0.57842 0.94397 0.0
H5122 H 0.91819 0.63547 0.95917 0.0
H5123 H 0.90103 0.63404 0.98676 0.0
C5124 C 0.80987 0.62328 0.01128 0.0
C5125 C 0.81319 0.64181 0.0097 0.0
C5126 C 0.82369 0.61385 0.01185 0.0
C5127 C 0.84114 0.62278 0.01102 0.0
C5128 C 0.84444 0.64122 0.00924 0.0
C5129 C 0.83064 0.65064 0.00862 0.0
C5130 C 0.85598 0.61296 0.0121 0.0
C5131 C 0.8671 0.61382 0.99758 0.0
C5132 C 0.85906 0.60258 0.02719 0.0
C5133 C 0.84884 0.60229 0.04385 0.0
C5134 C 0.84799 0.6184 0.05495 0.0
C5135 C 0.83839 0.61804 0.07066 0.0
C5136 C 0.8297 0.60164 0.07551 0.0
C5137 C 0.83062 0.58556 0.06468 0.0
C5138 C 0.84019 0.58585 0.04893 0.0
C5139 C 0.93055 0.58584 0.02156 0.0
C5140 C 0.92734 0.56806 0.02593 0.0
C5141 C 0.91642 0.59389 0.01569 0.0
C5142 C 0.8989 0.58425 0.01416 0.0
C5143 C 0.89587 0.56604 0.01711 0.0
C5144 C 0.90996 0.55803 0.02298 0.0
C5145 C 0.88381 0.5937 0.01244 0.0
C5146 C 0.87276 0.59295 0.02702 0.0
C5147 C 0.88095 0.60433 0.99756 0.0
C5148 C 0.89166 0.60519 0.98138 0.0
C5149 C 0.89189 0.58952 0.96923 0.0
C5150 C 0.9014 0.59049 0.95346 0.0
C5151 C 0.91097 0.60702 0.94991 0.0
C5152 C 0.91084 0.62266 0.96198 0.0
C5153 C 0.90112 0.6218 0.97759 0.0
H5154 H 0.91844 0.60771 0.93777 0.0
H5155 H 0.82229 0.60139 0.08769 0.0
H5156 H 0.15941 0.09402 0.74968 0.0
H5157 H 0.17911 0.1234 0.75299 0.0
H5158 H 0.19196 0.12076 0.81345 0.0
H5159 H 0.17235 0.09095 0.81024 0.0
H5160 H 0.18312 0.1559 0.8004 0.0
H5161 H 0.22146 0.11326 0.79086 0.0
H5162 H 0.22973 0.08672 0.77412 0.0
H5163 H 0.22876 0.11079 0.72161 0.0
H5164 H 0.22025 0.13737 0.73799 0.0
H5165 H 0.25135 0.23369 0.80856 0.0
H5166 H 0.23403 0.2041 0.81203 0.0
H5167 H 0.2348 0.18733 0.75177 0.0
H5168 H 0.25345 0.21639 0.74891 0.0
H5169 H 0.23742 0.16111 0.76823 0.0
H5170 H 0.19765 0.20206 0.77417 0.0
H5171 H 0.18676 0.22837 0.7877 0.0
H5172 H 0.18698 0.20831 0.84248 0.0
H5173 H 0.1981 0.18201 0.82935 0.0
C5174 C 0.16633 0.09965 0.76374 0.0
C5175 C 0.16435 0.09008 0.77969 0.0
C5176 C 0.17759 0.11646 0.76558 0.0
C5177 C 0.18699 0.12419 0.78343 0.0
C5178 C 0.18477 0.11497 0.79955 0.0
C5179 C 0.17364 0.09795 0.79767 0.0
C5180 C 0.19958 0.1416 0.78479 0.0
C5181 C 0.19519 0.15712 0.7937 0.0
C5182 C 0.21492 0.14315 0.77544 0.0
C5183 C 0.22009 0.12721 0.76561 0.0
C5184 C 0.22287 0.11282 0.77571 0.0
C5185 C 0.22763 0.09779 0.76629 0.0
C5186 C 0.22974 0.09705 0.7468 0.0
C5187 C 0.22712 0.11137 0.7367 0.0
C5188 C 0.22235 0.12642 0.74604 0.0
C5189 C 0.24805 0.22346 0.79622 0.0
C5190 C 0.25379 0.22708 0.77854 0.0
C5191 C 0.23792 0.20667 0.79809 0.0
C5192 C 0.23261 0.19349 0.78206 0.0
C5193 C 0.23868 0.19714 0.76442 0.0
C5194 C 0.24939 0.2137 0.76276 0.0
C5195 C 0.22094 0.17585 0.78353 0.0
C5196 C 0.22548 0.16015 0.77512 0.0
C5197 C 0.20545 0.17427 0.79288 0.0
C5198 C 0.1989 0.19017 0.80083 0.0
C5199 C 0.19551 0.20334 0.78914 0.0
C5200 C 0.18928 0.21824 0.79674 0.0
C5201 C 0.18622 0.22004 0.81595 0.0
C5202 C 0.18938 0.20693 0.82761 0.0
C5203 C 0.19564 0.19202 0.8201 0.0
H5204 H 0.18138 0.23157 0.82179 0.0
H5205 H 0.23343 0.08541 0.73954 0.0
H5206 H 0.33897 0.96786 0.29795 0.0
H5207 H 0.32913 0.93633 0.30126 0.0
H5208 H 0.35579 0.92138 0.25323 0.0
H5209 H 0.36585 0.95313 0.24971 0.0
H5210 H 0.31978 0.90877 0.24869 0.0
H5211 H 0.36966 0.91113 0.29441 0.0
H5212 H 0.39161 0.92189 0.32301 0.0
H5213 H 0.35076 0.91226 0.35954 0.0
H5214 H 0.32847 0.90175 0.33115 0.0
H5215 H 0.31181 0.81662 0.26028 0.0
H5216 H 0.32352 0.8484 0.26068 0.0
H5217 H 0.28009 0.86102 0.28928 0.0
H5218 H 0.26727 0.82896 0.28741 0.0
H5219 H 0.32372 0.87464 0.30478 0.0
H5220 H 0.27372 0.87334 0.25683 0.0
H5221 H 0.25357 0.86034 0.22738 0.0
H5222 H 0.29724 0.86715 0.19425 0.0
H5223 H 0.31775 0.87952 0.22366 0.0
C5224 C 0.34277 0.95789 0.28806 0.0
C5225 C 0.35274 0.96279 0.2732 0.0
C5226 C 0.33747 0.93997 0.29028 0.0
C5227 C 0.342 0.92684 0.27761 0.0
C5228 C 0.35246 0.9316 0.26319 0.0
C5229 C 0.35791 0.94959 0.26104 0.0
C5230 C 0.33288 0.90839 0.27717 0.0
C5231 C 0.32081 0.90118 0.26085 0.0
C5232 C 0.334 0.89906 0.2934 0.0
C5233 C 0.34731 0.90587 0.31057 0.0
C5234 C 0.36528 0.91156 0.30851 0.0
C5235 C 0.37781 0.91755 0.32471 0.0
C5236 C 0.37257 0.91782 0.34308 0.0
C5237 C 0.35479 0.91208 0.3453 0.0
C5238 C 0.3422 0.90611 0.32915 0.0
C5239 C 0.30426 0.82604 0.26575 0.0
C5240 C 0.28843 0.82037 0.27325 0.0
C5241 C 0.31112 0.84412 0.26631 0.0
C5242 C 0.30246 0.85662 0.2749 0.0
C5243 C 0.28667 0.85123 0.28247 0.0
C5244 C 0.27944 0.83305 0.28133 0.0
C5245 C 0.3107 0.87533 0.27643 0.0
C5246 C 0.32264 0.88249 0.29284 0.0
C5247 C 0.30963 0.88461 0.26026 0.0
C5248 C 0.29732 0.87708 0.24253 0.0
C5249 C 0.27908 0.87174 0.24334 0.0
C5250 C 0.26758 0.8645 0.22664 0.0
C5251 C 0.27413 0.86278 0.20897 0.0
C5252 C 0.29219 0.86834 0.20797 0.0
C5253 C 0.30377 0.87543 0.22466 0.0
H5254 H 0.2652 0.85723 0.19604 0.0
H5255 H 0.3823 0.92242 0.3556 0.0
H5256 H 0.54319 0.32456 0.54664 0.0
H5257 H 0.53859 0.35337 0.53738 0.0
H5258 H 0.55059 0.3767 0.5967 0.0
H5259 H 0.55382 0.34725 0.60612 0.0
H5260 H 0.52751 0.39145 0.58346 0.0
H5261 H 0.58006 0.38367 0.55503 0.0
H5262 H 0.59771 0.36766 0.53484 0.0
H5263 H 0.55998 0.36628 0.48536 0.0
H5264 H 0.54206 0.38217 0.50529 0.0
H5265 H 0.54252 0.48319 0.56192 0.0
H5266 H 0.54518 0.45367 0.57136 0.0
H5267 H 0.52134 0.42858 0.51489 0.0
H5268 H 0.51845 0.45807 0.50543 0.0
H5269 H 0.55053 0.41514 0.52612 0.0
H5270 H 0.49679 0.41822 0.55362 0.0
H5271 H 0.47547 0.42849 0.57352 0.0
H5272 H 0.51422 0.43743 0.62346 0.0
H5273 H 0.5356 0.42668 0.60388 0.0
C5274 C 0.54488 0.33579 0.55779 0.0
C5275 C 0.54897 0.33334 0.5772 0.0
C5276 C 0.54247 0.35257 0.5524 0.0
C5277 C 0.54479 0.36791 0.56608 0.0
C5278 C 0.54877 0.36542 0.58557 0.0
C5279 C 0.55067 0.34844 0.59104 0.0
C5280 C 0.54247 0.38621 0.56023 0.0
C5281 C 0.53301 0.39667 0.57115 0.0
C5282 C 0.5488 0.39327 0.54368 0.0
C5283 C 0.55968 0.38397 0.53167 0.0
C5284 C 0.57552 0.3799 0.53985 0.0
C5285 C 0.58556 0.37085 0.52845 0.0
C5286 C 0.57995 0.36592 0.50884 0.0
C5287 C 0.56431 0.3701 0.50055 0.0
C5288 C 0.55423 0.37915 0.51188 0.0
C5289 C 0.53776 0.47143 0.55145 0.0
C5290 C 0.53028 0.47331 0.5328 0.0
C5291 C 0.53918 0.45439 0.55696 0.0
C5292 C 0.5334 0.43854 0.54399 0.0
C5293 C 0.52594 0.44038 0.52534 0.0
C5294 C 0.52424 0.4574 0.51991 0.0
C5295 C 0.5359 0.42032 0.54959 0.0
C5296 C 0.54533 0.40994 0.53859 0.0
C5297 C 0.52959 0.4133 0.56604 0.0
C5298 C 0.51781 0.42194 0.57728 0.0
C5299 C 0.50083 0.42266 0.56878 0.0
C5300 C 0.48868 0.42832 0.58005 0.0
C5301 C 0.49349 0.4336 0.59976 0.0
C5302 C 0.51051 0.43333 0.60821 0.0
C5303 C 0.52262 0.42737 0.59706 0.0
H5304 H 0.48403 0.43792 0.60847 0.0
H5305 H 0.58772 0.35888 0.50005 0.0
H5306 H 0.46378 0.77521 0.38371 0.0
H5307 H 0.43799 0.77769 0.36159 0.0
H5308 H 0.40431 0.74122 0.39146 0.0
H5309 H 0.42991 0.73861 0.41343 0.0
H5310 H 0.3955 0.73248 0.35391 0.0
H5311 H 0.4062 0.78753 0.39694 0.0
H5312 H 0.42297 0.81662 0.4137 0.0
H5313 H 0.43007 0.83632 0.35951 0.0
H5314 H 0.41354 0.80725 0.34241 0.0
H5315 H 0.3109 0.74556 0.31686 0.0
H5316 H 0.3379 0.74408 0.33732 0.0
H5317 H 0.36795 0.78368 0.30755 0.0
H5318 H 0.34084 0.78598 0.28786 0.0
H5319 H 0.37957 0.79101 0.34358 0.0
H5320 H 0.36838 0.73664 0.30031 0.0
H5321 H 0.35058 0.70813 0.28328 0.0
H5322 H 0.34453 0.68734 0.33711 0.0
H5323 H 0.36208 0.71583 0.3545 0.0
C5324 C 0.45089 0.76769 0.38556 0.0
C5325 C 0.44905 0.75669 0.40045 0.0
C5326 C 0.43608 0.7692 0.37293 0.0
C5327 C 0.41901 0.75975 0.37482 0.0
C5328 C 0.41723 0.74866 0.38956 0.0
C5329 C 0.43196 0.74722 0.40221 0.0
C5330 C 0.40299 0.76116 0.36147 0.0
C5331 C 0.39197 0.7453 0.35184 0.0
C5332 C 0.39845 0.77785 0.35816 0.0
C5333 C 0.4088 0.79515 0.3684 0.0
C5334 C 0.41151 0.79799 0.3886 0.0
C5335 C 0.42094 0.81449 0.39816 0.0
C5336 C 0.42759 0.82829 0.38768 0.0
C5337 C 0.42492 0.82561 0.36761 0.0
C5338 C 0.41552 0.80912 0.35798 0.0
C5339 C 0.32326 0.75394 0.31461 0.0
C5340 C 0.3236 0.76567 0.3004 0.0
C5341 C 0.33879 0.75299 0.32628 0.0
C5342 C 0.35524 0.76349 0.32387 0.0
C5343 C 0.35558 0.77531 0.30975 0.0
C5344 C 0.34001 0.77643 0.29825 0.0
C5345 C 0.37199 0.76232 0.33615 0.0
C5346 C 0.38316 0.77819 0.34554 0.0
C5347 C 0.37676 0.74565 0.33914 0.0
C5348 C 0.36645 0.72841 0.32871 0.0
C5349 C 0.36319 0.72601 0.30852 0.0
C5350 C 0.35314 0.70986 0.2988 0.0
C5351 C 0.34641 0.69594 0.30911 0.0
C5352 C 0.34975 0.69813 0.32915 0.0
C5353 C 0.35976 0.71427 0.33895 0.0
H5354 H 0.33863 0.68345 0.30156 0.0
H5355 H 0.43472 0.84109 0.39512 0.0
H5356 H 0.05504 0.73701 0.04847 0.0
H5357 H 0.05142 0.70471 0.0391 0.0
H5358 H 0.03615 0.69449 0.09461 0.0
H5359 H 0.03979 0.72701 0.10412 0.0
H5360 H 0.05865 0.67346 0.08502 0.0
H5361 H 0.00578 0.68547 0.05246 0.0
H5362 H 0.98739 0.70029 0.03115 0.0
H5363 H 0.01339 0.68435 0.98335 0.0
H5364 H 0.03211 0.66964 0.00444 0.0
H5365 H 0.02659 0.57869 0.06044 0.0
H5366 H 0.02931 0.61095 0.06963 0.0
H5367 H 0.04731 0.62166 0.01537 0.0
H5368 H 0.04453 0.5893 0.00603 0.0
H5369 H 0.02324 0.64223 0.02431 0.0
H5370 H 0.07588 0.63005 0.05647 0.0
H5371 H 0.09373 0.61435 0.07732 0.0
H5372 H 0.06815 0.63026 0.12547 0.0
H5373 H 0.04989 0.64579 0.10482 0.0
C5374 C 0.05078 0.72797 0.05873 0.0
C5375 C 0.04769 0.7349 0.07712 0.0
C5376 C 0.04862 0.70932 0.05327 0.0
C5377 C 0.04332 0.69679 0.06597 0.0
C5378 C 0.04022 0.70365 0.08438 0.0
C5379 C 0.04223 0.72236 0.08982 0.0
C5380 C 0.04149 0.67672 0.06017 0.0
C5381 C 0.05065 0.66666 0.07187 0.0
C5382 C 0.03151 0.66755 0.04273 0.0
C5383 C 0.0205 0.67665 0.03009 0.0
C5384 C 0.00771 0.68529 0.03745 0.0
C5385 C 0.9972 0.69363 0.0254 0.0
C5386 C 0.99926 0.69331 0.00593 0.0
C5387 C 0.01183 0.68462 0.99845 0.0
C5388 C 0.02239 0.67628 0.01044 0.0
C5389 C 0.03118 0.58784 0.0504 0.0
C5390 C 0.03542 0.58114 0.03245 0.0
C5391 C 0.0328 0.60643 0.05575 0.0
C5392 C 0.03866 0.61905 0.04334 0.0
C5393 C 0.04276 0.6124 0.02533 0.0
C5394 C 0.04128 0.59378 0.02002 0.0
C5395 C 0.04036 0.63905 0.04916 0.0
C5396 C 0.03121 0.64907 0.03746 0.0
C5397 C 0.05038 0.64818 0.06656 0.0
C5398 C 0.06138 0.63893 0.07905 0.0
C5399 C 0.07394 0.63007 0.07147 0.0
C5400 C 0.08415 0.62122 0.08325 0.0
C5401 C 0.08204 0.62127 0.10269 0.0
C5402 C 0.06974 0.63021 0.11039 0.0
C5403 C 0.05946 0.63905 0.09866 0.0
H5404 H 0.08997 0.61441 0.1118 0.0
H5405 H 0.99109 0.69976 0.99662 0.0
H5406 H 0.03839 0.25241 0.88146 0.0
H5407 H 0.06264 0.25312 0.86151 0.0
H5408 H 0.09806 0.28827 0.90668 0.0
H5409 H 0.07413 0.28758 0.92656 0.0
H5410 H 0.10107 0.30054 0.87223 0.0
H5411 H 0.09993 0.2443 0.89797 0.0
H5412 H 0.08624 0.21389 0.9042 0.0
H5413 H 0.0755 0.1967 0.84353 0.0
H5414 H 0.0889 0.22712 0.83693 0.0
H5415 H 0.18508 0.30258 0.84741 0.0
H5416 H 0.15964 0.29329 0.86447 0.0
H5417 H 0.13078 0.26281 0.81228 0.0
H5418 H 0.15649 0.27206 0.79513 0.0
H5419 H 0.12263 0.24666 0.84705 0.0
H5420 H 0.12438 0.30248 0.82125 0.0
H5421 H 0.13867 0.33268 0.81497 0.0
H5422 H 0.14779 0.3505 0.87555 0.0
H5423 H 0.13385 0.32027 0.88221 0.0
C5424 C 0.05135 0.26028 0.88714 0.0
C5425 C 0.05423 0.26995 0.90567 0.0
C5426 C 0.06525 0.2606 0.87574 0.0
C5427 C 0.08229 0.2707 0.88257 0.0
C5428 C 0.0851 0.28039 0.90101 0.0
C5429 C 0.07133 0.27994 0.91241 0.0
C5430 C 0.09722 0.27172 0.87056 0.0
C5431 C 0.10581 0.28872 0.86688 0.0
C5432 C 0.10322 0.25633 0.86302 0.0
C5433 C 0.09522 0.23804 0.86695 0.0
C5434 C 0.0945 0.23408 0.88595 0.0
C5435 C 0.08682 0.21684 0.88955 0.0
C5436 C 0.07995 0.20339 0.87427 0.0
C5437 C 0.08079 0.20715 0.85535 0.0
C5438 C 0.08844 0.22438 0.85167 0.0
C5439 C 0.17356 0.29333 0.83975 0.0
C5440 C 0.17283 0.28792 0.81999 0.0
C5441 C 0.15896 0.28812 0.84948 0.0
C5442 C 0.14314 0.27754 0.83965 0.0
C5443 C 0.14281 0.27094 0.82021 0.0
C5444 C 0.15752 0.27616 0.81043 0.0
C5445 C 0.12661 0.2755 0.84915 0.0
C5446 C 0.11774 0.2584 0.85229 0.0
C5447 C 0.1202 0.29078 0.85617 0.0
C5448 C 0.1282 0.30909 0.85223 0.0
C5449 C 0.12953 0.31281 0.83324 0.0
C5450 C 0.13756 0.32993 0.82961 0.0
C5451 C 0.14416 0.34349 0.84485 0.0
C5452 C 0.14268 0.33997 0.86375 0.0
C5453 C 0.13471 0.32285 0.86747 0.0
H5454 H 0.15038 0.35674 0.84201 0.0
H5455 H 0.07401 0.19004 0.87708 0.0
H5456 H 0.56086 0.76804 0.91778 0.0
H5457 H 0.55679 0.73999 0.93226 0.0
H5458 H 0.51386 0.71636 0.88791 0.0
H5459 H 0.518 0.74446 0.87312 0.0
H5460 H 0.50623 0.70948 0.92535 0.0
H5461 H 0.55138 0.70345 0.88545 0.0
H5462 H 0.57939 0.71377 0.87258 0.0
H5463 H 0.60807 0.71765 0.9288 0.0
H5464 H 0.58016 0.70756 0.94206 0.0
H5465 H 0.49692 0.62001 0.94372 0.0
H5466 H 0.50522 0.64589 0.92634 0.0
H5467 H 0.54601 0.66997 0.97278 0.0
H5468 H 0.53752 0.64397 0.99039 0.0
H5469 H 0.55524 0.67648 0.93411 0.0
H5470 H 0.50999 0.68285 0.97404 0.0
H5471 H 0.48191 0.67305 0.98697 0.0
H5472 H 0.4533 0.66916 0.9307 0.0
H5473 H 0.48129 0.67862 0.91736 0.0
C5474 C 0.55053 0.75692 0.91103 0.0
C5475 C 0.5398 0.7586 0.89419 0.0
C5476 C 0.54825 0.74081 0.91934 0.0
C5477 C 0.53507 0.72592 0.91118 0.0
C5478 C 0.52413 0.7276 0.89452 0.0
C5479 C 0.52656 0.74368 0.88602 0.0
C5480 C 0.53288 0.70869 0.92008 0.0
C5481 C 0.51687 0.70215 0.92698 0.0
C5482 C 0.54685 0.69924 0.92271 0.0
C5483 C 0.56369 0.70488 0.91477 0.0
C5484 C 0.56366 0.70659 0.89508 0.0
C5485 C 0.57951 0.71239 0.88772 0.0
C5486 C 0.5955 0.7164 0.89987 0.0
C5487 C 0.59567 0.71454 0.91941 0.0
C5488 C 0.57984 0.70876 0.92686 0.0
C5489 C 0.50813 0.63048 0.9499 0.0
C5490 C 0.51669 0.62981 0.96835 0.0
C5491 C 0.51276 0.64538 0.94002 0.0
C5492 C 0.5261 0.66007 0.94829 0.0
C5493 C 0.53569 0.65883 0.96604 0.0
C5494 C 0.53095 0.64387 0.97604 0.0
C5495 C 0.52855 0.67725 0.9393 0.0
C5496 C 0.5446 0.68379 0.93243 0.0
C5497 C 0.51461 0.68676 0.9367 0.0
C5498 C 0.49774 0.68125 0.94467 0.0
C5499 C 0.49773 0.67975 0.96439 0.0
C5500 C 0.48183 0.67428 0.9718 0.0
C5501 C 0.46584 0.67044 0.95965 0.0
C5502 C 0.46571 0.67211 0.94008 0.0
C5503 C 0.48158 0.67753 0.93259 0.0
H5504 H 0.45354 0.66621 0.96542 0.0
H5505 H 0.60776 0.72091 0.89415 0.0
H5506 H 0.06589 0.74769 0.73713 0.0
H5507 H 0.09685 0.74994 0.75089 0.0
H5508 H 0.11433 0.76827 0.69883 0.0
H5509 H 0.08372 0.76504 0.68493 0.0
H5510 H 0.13262 0.74675 0.70664 0.0
H5511 H 0.11903 0.79514 0.74826 0.0
H5512 H 0.10335 0.80954 0.77213 0.0
H5513 H 0.11591 0.77362 0.81221 0.0
H5514 H 0.1315 0.75888 0.78849 0.0
H5515 H 0.22402 0.77998 0.73577 0.0
H5516 H 0.19231 0.77705 0.72714 0.0
H5517 H 0.18235 0.75011 0.77694 0.0
H5518 H 0.21435 0.75345 0.786 0.0
H5519 H 0.16012 0.77341 0.77227 0.0
H5520 H 0.17573 0.72694 0.73067 0.0
H5521 H 0.19282 0.71432 0.70708 0.0
H5522 H 0.17696 0.74851 0.66661 0.0
H5523 H 0.16002 0.76157 0.69009 0.0
C5524 C 0.07637 0.75247 0.72878 0.0
C5525 C 0.07214 0.7562 0.70985 0.0
C5526 C 0.09424 0.75382 0.73669 0.0
C5527 C 0.10844 0.75937 0.72611 0.0
C5528 C 0.10401 0.76372 0.70749 0.0
C5529 C 0.08632 0.762 0.69951 0.0
C5530 C 0.12777 0.75987 0.73351 0.0
C5531 C 0.13852 0.75289 0.72094 0.0
C5532 C 0.13589 0.76717 0.75243 0.0
C5533 C 0.1262 0.77575 0.76651 0.0
C5534 C 0.11828 0.7902 0.76209 0.0
C5535 C 0.10945 0.79845 0.77561 0.0
C5536 C 0.10857 0.79245 0.79364 0.0
C5537 C 0.11655 0.77821 0.79821 0.0
C5538 C 0.12539 0.76991 0.78474 0.0
C5539 C 0.21521 0.77337 0.74498 0.0
C5540 C 0.22207 0.76677 0.76157 0.0
C5541 C 0.19688 0.77163 0.73992 0.0
C5542 C 0.18458 0.76309 0.75112 0.0
C5543 C 0.19135 0.7567 0.76788 0.0
C5544 C 0.20978 0.75847 0.77299 0.0
C5545 C 0.16482 0.76086 0.74515 0.0
C5546 C 0.15407 0.76735 0.75798 0.0
C5547 C 0.15667 0.75329 0.7264 0.0
C5548 C 0.16671 0.74533 0.7122 0.0
C5549 C 0.17598 0.73185 0.71678 0.0
C5550 C 0.18563 0.72461 0.70343 0.0
C5551 C 0.186 0.73063 0.68537 0.0
C5552 C 0.17668 0.74387 0.68061 0.0
C5553 C 0.16704 0.75119 0.69393 0.0
H5554 H 0.19348 0.72501 0.67504 0.0
H5555 H 0.10176 0.79887 0.8041 0.0
H5556 H 0.04997 0.36044 0.37859 0.0
H5557 H 0.05084 0.38969 0.39723 0.0
H5558 H 0.02372 0.3627 0.4398 0.0
H5559 H 0.02248 0.33379 0.42119 0.0
H5560 H 0.0093 0.38916 0.43349 0.0
H5561 H 0.07016 0.38388 0.44573 0.0
H5562 H 0.09956 0.38051 0.4375 0.0
H5563 H 0.10414 0.4287 0.41014 0.0
H5564 H 0.07464 0.43221 0.41796 0.0
H5565 H 0.01871 0.46002 0.50835 0.0
H5566 H 0.02133 0.43275 0.48887 0.0
H5567 H 0.04883 0.46457 0.44992 0.0
H5568 H 0.04743 0.49208 0.47034 0.0
H5569 H 0.06307 0.4368 0.45251 0.0
H5570 H 1.00236 0.44238 0.44128 0.0
H5571 H 0.97341 0.44607 0.4507 0.0
H5572 H 0.96874 0.39709 0.47664 0.0
H5573 H 0.99778 0.39326 0.46764 0.0
C5574 C 0.0443 0.36074 0.39198 0.0
C5575 C 0.03614 0.34458 0.39825 0.0
C5576 C 0.04486 0.37755 0.40275 0.0
C5577 C 0.03743 0.37868 0.42019 0.0
C5578 C 0.02951 0.36248 0.42646 0.0
C5579 C 0.02887 0.34581 0.41573 0.0
C5580 C 0.03722 0.39646 0.43174 0.0
C5581 C 0.02117 0.39943 0.43778 0.0
C5582 C 0.05246 0.41037 0.43707 0.0
C5583 C 0.0701 0.40817 0.4322 0.0
C5584 C 0.07736 0.39366 0.43779 0.0
C5585 C 0.09406 0.39174 0.43323 0.0
C5586 C 0.10369 0.40435 0.42324 0.0
C5587 C 0.09665 0.41892 0.41783 0.0
C5588 C 0.07995 0.42087 0.42231 0.0
C5589 C 0.02569 0.46136 0.49593 0.0
C5590 C 0.03297 0.47851 0.49121 0.0
C5591 C 0.0269 0.44559 0.48446 0.0
C5592 C 0.03492 0.44631 0.46744 0.0
C5593 C 0.04246 0.46341 0.46282 0.0
C5594 C 0.04155 0.47923 0.47453 0.0
C5595 C 0.03522 0.42931 0.45449 0.0
C5596 C 0.05122 0.42653 0.44814 0.0
C5597 C 0.01993 0.41552 0.44885 0.0
C5598 C 1.0023 0.41761 0.4539 0.0
C5599 C 0.99518 0.43244 0.44905 0.0
C5600 C 0.97876 0.43456 0.45433 0.0
C5601 C 0.96926 0.42184 0.4643 0.0
C5602 C 0.97612 0.40694 0.46894 0.0
C5603 C 0.99255 0.40478 0.46374 0.0
H5604 H 0.95656 0.42352 0.46841 0.0
H5605 H 0.11662 0.40286 0.41975 0.0
H5606 H 0.44114 0.23564 0.18469 0.0
H5607 H 0.41538 0.24105 0.19937 0.0
H5608 H 0.44918 0.27283 0.2479 0.0
H5609 H 0.47546 0.26705 0.2332 0.0
H5610 H 0.4197 0.25384 0.26031 0.0
H5611 H 0.42807 0.29273 0.21169 0.0
H5612 H 0.43319 0.30057 0.17936 0.0
H5613 H 0.38464 0.26471 0.1551 0.0
H5614 H 0.37934 0.25649 0.18727 0.0
H5615 H 0.3438 0.28505 0.29137 0.0
H5616 H 0.3727 0.28289 0.28166 0.0
H5617 H 0.34739 0.25708 0.22587 0.0
H5618 H 0.31879 0.26106 0.23495 0.0
H5619 H 0.37481 0.27608 0.21914 0.0
H5620 H 0.36731 0.23589 0.26808 0.0
H5621 H 0.36253 0.2283 0.30059 0.0
H5622 H 0.4094 0.26687 0.3246 0.0
H5623 H 0.41433 0.27485 0.29225 0.0
C5624 C 0.44332 0.24375 0.19855 0.0
C5625 C 0.46071 0.25097 0.20751 0.0
C5626 C 0.42835 0.24694 0.20698 0.0
C5627 C 0.42994 0.25777 0.22471 0.0
C5628 C 0.44729 0.26451 0.23418 0.0
C5629 C 0.46243 0.26119 0.22572 0.0
C5630 C 0.41346 0.26225 0.23263 0.0
C5631 C 0.41002 0.25893 0.25134 0.0
C5632 C 0.40042 0.26876 0.22118 0.0
C5633 C 0.40337 0.27391 0.20187 0.0
C5634 C 0.41852 0.28647 0.19945 0.0
C5635 C 0.42145 0.29098 0.18115 0.0
C5636 C 0.40926 0.28312 0.16518 0.0
C5637 C 0.39407 0.27078 0.16748 0.0
C5638 C 0.39109 0.26621 0.18575 0.0
C5639 C 0.34436 0.27941 0.27686 0.0
C5640 C 0.32867 0.27378 0.26393 0.0
C5641 C 0.36107 0.27769 0.27137 0.0
C5642 C 0.36274 0.26946 0.25294 0.0
C5643 C 0.34696 0.26357 0.24014 0.0
C5644 C 0.33037 0.26577 0.24546 0.0
C5645 C 0.38059 0.2671 0.24666 0.0
C5646 C 0.38438 0.27093 0.22819 0.0
C5647 C 0.39389 0.26108 0.25839 0.0
C5648 C 0.3911 0.25607 0.27777 0.0
C5649 C 0.37656 0.2428 0.2803 0.0
C5650 C 0.37382 0.23843 0.2987 0.0
C5651 C 0.38563 0.24713 0.31465 0.0
C5652 C 0.40025 0.26017 0.31224 0.0
C5653 C 0.40303 0.2646 0.29388 0.0
H5654 H 0.38348 0.24375 0.32888 0.0
H5655 H 0.41157 0.28661 0.15103 0.0
H5656 H 0.59171 0.55884 0.32956 0.0
H5657 H 0.57744 0.55225 0.35807 0.0
H5658 H 0.6062 0.50976 0.36555 0.0
H5659 H 0.6199 0.51577 0.33657 0.0
H5660 H 0.57427 0.49952 0.37425 0.0
H5661 H 0.61951 0.55301 0.39207 0.0
H5662 H 0.63524 0.58375 0.38938 0.0
H5663 H 0.58812 0.60387 0.39733 0.0
H5664 H 0.57206 0.5732 0.39985 0.0
H5665 H 0.5634 0.501 0.47636 0.0
H5666 H 0.57607 0.50193 0.44568 0.0
H5667 H 0.54227 0.53761 0.42784 0.0
H5668 H 0.52972 0.53676 0.45791 0.0
H5669 H 0.57796 0.55024 0.42528 0.0
H5670 H 0.5324 0.49674 0.40545 0.0
H5671 H 0.51624 0.46583 0.40681 0.0
H5672 H 0.56421 0.44611 0.4038 0.0
H5673 H 0.5806 0.47682 0.402 0.0
C5674 C 0.59491 0.54803 0.33722 0.0
C5675 C 0.60706 0.53795 0.33092 0.0
C5676 C 0.58681 0.54431 0.35358 0.0
C5677 C 0.59106 0.53078 0.36428 0.0
C5678 C 0.60275 0.52032 0.35763 0.0
C5679 C 0.61062 0.52381 0.34107 0.0
C5680 C 0.5838 0.52794 0.3827 0.0
C5681 C 0.57533 0.51058 0.38551 0.0
C5682 C 0.58491 0.54236 0.39737 0.0
C5683 C 0.59457 0.56081 0.39599 0.0
C5684 C 0.61249 0.56398 0.39314 0.0
C5685 C 0.62146 0.58139 0.39166 0.0
C5686 C 0.61267 0.59575 0.39314 0.0
C5687 C 0.5949 0.59273 0.39617 0.0
C5688 C 0.58587 0.57535 0.39765 0.0
C5689 C 0.55867 0.50891 0.46579 0.0
C5690 C 0.54554 0.51872 0.46952 0.0
C5691 C 0.56579 0.50935 0.44828 0.0
C5692 C 0.56001 0.51979 0.4345 0.0
C5693 C 0.54686 0.52944 0.43823 0.0
C5694 C 0.53969 0.52888 0.45547 0.0
C5695 C 0.56837 0.52191 0.4167 0.0
C5696 C 0.57707 0.53917 0.41405 0.0
C5697 C 0.56749 0.50742 0.40227 0.0
C5698 C 0.55776 0.48908 0.40387 0.0
C5699 C 0.53953 0.48583 0.40529 0.0
C5700 C 0.53032 0.46836 0.40608 0.0
C5701 C 0.53922 0.45408 0.40566 0.0
C5702 C 0.55734 0.4572 0.40423 0.0
C5703 C 0.56658 0.47461 0.40322 0.0
H5704 H 0.53206 0.44057 0.40632 0.0
H5705 H 0.61964 0.60921 0.39198 0.0
H5706 H 0.29393 0.87392 0.02346 0.0
H5707 H 0.29523 0.85862 0.05218 0.0
H5708 H 0.2698 0.89725 0.08122 0.0
H5709 H 0.26895 0.91303 0.05268 0.0
H5710 H 0.2976 0.8893 0.10426 0.0
H5711 H 0.24596 0.85699 0.06212 0.0
H5712 H 0.23134 0.84236 0.03022 0.0
H5713 H 0.26482 0.80359 0.03132 0.0
H5714 H 0.27987 0.81819 0.06306 0.0
H5715 H 0.29443 0.83506 0.17935 0.0
H5716 H 0.28221 0.85098 0.15463 0.0
H5717 H 0.29928 0.81661 0.11102 0.0
H5718 H 0.31006 0.79962 0.13542 0.0
H5719 H 0.27007 0.82439 0.09754 0.0
H5720 H 0.32501 0.85807 0.13419 0.0
H5721 H 0.34339 0.87297 0.1642 0.0
H5722 H 0.30762 0.90889 0.17193 0.0
H5723 H 0.28884 0.89397 0.14212 0.0
C5724 C 0.28845 0.87905 0.03588 0.0
C5725 C 0.28104 0.89443 0.03578 0.0
C5726 C 0.28929 0.87038 0.05228 0.0
C5727 C 0.28232 0.87669 0.06861 0.0
C5728 C 0.27516 0.8922 0.06868 0.0
C5729 C 0.27455 0.90105 0.05235 0.0
C5730 C 0.28204 0.86664 0.08535 0.0
C5731 C 0.29129 0.8752 0.10299 0.0
C5732 C 0.27394 0.84824 0.08344 0.0
C5733 C 0.26403 0.83868 0.06499 0.0
C5734 C 0.25017 0.84531 0.05558 0.0
C5735 C 0.24185 0.83706 0.0375 0.0
C5736 C 0.24715 0.82206 0.02875 0.0
C5737 C 0.26071 0.8152 0.03812 0.0
C5738 C 0.26911 0.82344 0.05618 0.0
C5739 C 0.29511 0.83051 0.16446 0.0
C5740 C 0.30357 0.81626 0.15938 0.0
C5741 C 0.28826 0.83976 0.15037 0.0
C5742 C 0.29027 0.83527 0.13107 0.0
C5743 C 0.29772 0.8204 0.12587 0.0
C5744 C 0.30416 0.81088 0.13987 0.0
C5745 C 0.28623 0.84681 0.11634 0.0
C5746 C 0.27603 0.83859 0.09904 0.0
C5747 C 0.29381 0.86543 0.11846 0.0
C5748 C 0.3054 0.87476 0.13606 0.0
C5749 C 0.32103 0.8691 0.14233 0.0
C5750 C 0.3315 0.87753 0.15932 0.0
C5751 C 0.32664 0.89182 0.17001 0.0
C5752 C 0.31133 0.89777 0.16367 0.0
C5753 C 0.30076 0.88933 0.14674 0.0
H5754 H 0.33475 0.89831 0.18317 0.0
H5755 H 0.24074 0.81574 0.01471 0.0
H5756 H 0.92249 0.50394 0.8189 0.0
H5757 H 0.94535 0.51364 0.8464 0.0
H5758 H 0.90505 0.5163 0.88391 0.0
H5759 H 0.88216 0.508 0.85594 0.0
H5760 H 0.93229 0.54384 0.89388 0.0
H5761 H 0.92521 0.47875 0.87743 0.0
H5762 H 0.92487 0.45151 0.85523 0.0
H5763 H 0.97837 0.47218 0.84605 0.0
H5764 H 0.97894 0.4996 0.86802 0.0
H5765 H 0.98038 0.53858 0.98207 0.0
H5766 H 0.96011 0.53622 0.95332 0.0
H5767 H 0.99991 0.52272 0.91907 0.0
H5768 H 0.01819 0.52019 0.94807 0.0
H5769 H 0.97348 0.50274 0.90623 0.0
H5770 H 0.982 0.56796 0.92242 0.0
H5771 H 0.98379 0.59429 0.94647 0.0
H5772 H 0.93076 0.57406 0.95729 0.0
H5773 H 0.92835 0.54802 0.93277 0.0
C5774 C 0.9186 0.50651 0.83306 0.0
C5775 C 0.90078 0.5049 0.83568 0.0
C5776 C 0.93158 0.51208 0.84868 0.0
C5777 C 0.92679 0.51532 0.86714 0.0
C5778 C 0.90892 0.51381 0.86972 0.0
C5779 C 0.89593 0.50884 0.85393 0.0
C5780 C 0.9404 0.51938 0.88387 0.0
C5781 C 0.9414 0.53496 0.89664 0.0
C5782 C 0.9524 0.50791 0.88715 0.0
C5783 C 0.95206 0.49125 0.87424 0.0
C5784 C 0.93686 0.47749 0.87062 0.0
C5785 C 0.93663 0.46203 0.85808 0.0
C5786 C 0.95157 0.46014 0.84921 0.0
C5787 C 0.9668 0.47367 0.85291 0.0
C5788 C 0.96709 0.48915 0.86541 0.0
C5789 C 0.98488 0.53512 0.96843 0.0
C5790 C 1.00128 0.5301 0.96743 0.0
C5791 C 0.97336 0.53427 0.95185 0.0
C5792 C 0.97868 0.53015 0.93382 0.0
C5793 C 0.99549 0.52614 0.93279 0.0
C5794 C 0.0063 0.52525 0.94945 0.0
C5795 C 0.96602 0.52764 0.91621 0.0
C5796 C 0.96493 0.51213 0.90333 0.0
C5797 C 0.95427 0.5394 0.9127 0.0
C5798 C 0.95497 0.55612 0.92568 0.0
C5799 C 0.9706 0.56934 0.92965 0.0
C5800 C 0.97169 0.58423 0.94333 0.0
C5801 C 0.95729 0.58597 0.95321 0.0
C5802 C 0.94171 0.57293 0.94928 0.0
C5803 C 0.94041 0.55819 0.93537 0.0
H5804 H 0.95824 0.59735 0.96401 0.0
H5805 H 0.95136 0.44817 0.83949 0.0
H5806 H 0.27189 0.22622 0.55232 0.0
H5807 H 0.27033 0.23961 0.58494 0.0
H5808 H 0.27069 0.18824 0.6055 0.0
H5809 H 0.27115 0.17466 0.57274 0.0
H5810 H 0.24907 0.20184 0.62268 0.0
H5811 H 0.30818 0.22568 0.61211 0.0
H5812 H 0.33182 0.24123 0.59535 0.0
H5813 H 0.31151 0.28971 0.60252 0.0
H5814 H 0.28758 0.27436 0.6191 0.0
H5815 H 0.27808 0.23234 0.72141 0.0
H5816 H 0.27653 0.22113 0.68751 0.0
H5817 H 0.26086 0.26942 0.67152 0.0
H5818 H 0.26244 0.28086 0.70561 0.0
H5819 H 0.28898 0.25893 0.65193 0.0
H5820 H 0.22988 0.23212 0.66474 0.0
H5821 H 0.20853 0.21433 0.6826 0.0
H5822 H 0.2335 0.16918 0.67371 0.0
H5823 H 0.25483 0.18652 0.65553 0.0
C5824 C 0.27166 0.21782 0.56383 0.0
C5825 C 0.27169 0.1994 0.55997 0.0
C5826 C 0.27088 0.22551 0.58255 0.0
C5827 C 0.27071 0.21508 0.59794 0.0
C5828 C 0.27076 0.19666 0.594 0.0
C5829 C 0.27108 0.18888 0.57524 0.0
C5830 C 0.27019 0.22318 0.61806 0.0
C5831 C 0.25797 0.21424 0.62903 0.0
C5832 C 0.28157 0.23951 0.62654 0.0
C5833 C 0.29598 0.24882 0.61666 0.0
C5834 C 0.30868 0.23962 0.60999 0.0
C5835 C 0.32214 0.2484 0.60054 0.0
C5836 C 0.32314 0.26643 0.59782 0.0
C5837 C 0.3107 0.27573 0.60461 0.0
C5838 C 0.29719 0.26701 0.61404 0.0
C5839 C 0.27425 0.24061 0.71073 0.0
C5840 C 0.27038 0.25752 0.71628 0.0
C5841 C 0.2733 0.23412 0.69132 0.0
C5842 C 0.26851 0.24438 0.67695 0.0
C5843 C 0.26457 0.26127 0.68237 0.0
C5844 C 0.26537 0.26773 0.70186 0.0
C5845 C 0.268 0.23747 0.65634 0.0
C5846 C 0.28004 0.24663 0.64536 0.0
C5847 C 0.25686 0.22105 0.64803 0.0
C5848 C 0.244 0.21065 0.65889 0.0
C5849 C 0.23087 0.21843 0.66668 0.0
C5850 C 0.21878 0.20844 0.67685 0.0
C5851 C 0.21977 0.19074 0.67946 0.0
C5852 C 0.23277 0.1829 0.67173 0.0
C5853 C 0.24479 0.19276 0.6614 0.0
H5854 H 0.21042 0.18308 0.68739 0.0
H5855 H 0.33357 0.27321 0.5905 0.0
H5856 H 0.618 0.517 0.22294 0.0
H5857 H 0.60449 0.515 0.18965 0.0
H5858 H 0.57047 0.55048 0.2075 0.0
H5859 H 0.58348 0.55204 0.24081 0.0
H5860 H 0.5523 0.52472 0.18196 0.0
H5861 H 0.60951 0.56461 0.18584 0.0
H5862 H 0.64205 0.57291 0.19221 0.0
H5863 H 0.64633 0.52924 0.15075 0.0
H5864 H 0.61381 0.52055 0.14432 0.0
H5865 H 0.52401 0.54515 0.0884 0.0
H5866 H 0.53623 0.54703 0.12214 0.0
H5867 H 0.57364 0.51491 0.10561 0.0
H5868 H 0.56284 0.51473 0.07215 0.0
H5869 H 0.58999 0.53936 0.13083 0.0
H5870 H 0.5339 0.4986 0.12682 0.0
H5871 H 0.50147 0.48904 0.11996 0.0
H5872 H 0.49509 0.53213 0.16097 0.0
H5873 H 0.52748 0.54209 0.16788 0.0
C5874 C 0.60758 0.5243 0.21978 0.0
C5875 C 0.60188 0.53475 0.23455 0.0
C5876 C 0.59993 0.52324 0.2007 0.0
C5877 C 0.58665 0.53287 0.19593 0.0
C5878 C 0.5807 0.54296 0.21074 0.0
C5879 C 0.58819 0.54387 0.22982 0.0
C5880 C 0.579 0.5326 0.17557 0.0
C5881 C 0.56054 0.52812 0.17082 0.0
C5882 C 0.5897 0.53658 0.16085 0.0
C5883 C 0.60924 0.54184 0.16474 0.0
C5884 C 0.6174 0.55671 0.17818 0.0
C5885 C 0.63583 0.56149 0.18179 0.0
C5886 C 0.64625 0.55159 0.17193 0.0
C5887 C 0.63825 0.53689 0.1584 0.0
C5888 C 0.61982 0.53204 0.15476 0.0
C5889 C 0.535 0.53874 0.09193 0.0
C5890 C 0.54234 0.52971 0.0774 0.0
C5891 C 0.54183 0.53956 0.11132 0.0
C5892 C 0.55574 0.53085 0.11661 0.0
C5893 C 0.56294 0.52178 0.10208 0.0
C5894 C 0.55652 0.52144 0.08282 0.0
C5895 C 0.56324 0.53136 0.13711 0.0
C5896 C 0.58169 0.53593 0.14192 0.0
C5897 C 0.55255 0.52722 0.1518 0.0
C5898 C 0.53309 0.52119 0.14771 0.0
C5899 C 0.52557 0.5061 0.13427 0.0
C5900 C 0.5072 0.50061 0.13039 0.0
C5901 C 0.49623 0.51 0.13999 0.0
C5902 C 0.5036 0.52489 0.15353 0.0
C5903 C 0.52196 0.53045 0.15744 0.0
H5904 H 0.48201 0.50573 0.13696 0.0
H5905 H 0.66052 0.55531 0.17473 0.0
H5906 H 0.31048 0.88406 0.97054 0.0
H5907 H 0.30193 0.85997 0.94377 0.0
H5908 H 0.27563 0.89433 0.91095 0.0
H5909 H 0.28343 0.91818 0.93813 0.0
H5910 H 0.25647 0.86034 0.90653 0.0
H5911 H 0.31707 0.88958 0.90382 0.0
H5912 H 0.34811 0.90118 0.91778 0.0
H5913 H 0.35336 0.84808 0.92916 0.0
H5914 H 0.32227 0.83623 0.91549 0.0
H5915 H 0.25676 0.81764 0.81291 0.0
H5916 H 0.25881 0.83738 0.84258 0.0
H5917 H 0.29008 0.80481 0.87211 0.0
H5918 H 0.29021 0.78658 0.84196 0.0
H5919 H 0.30527 0.83699 0.87927 0.0
H5920 H 0.24438 0.80706 0.8786 0.0
H5921 H 0.2139 0.79618 0.86253 0.0
H5922 H 0.20902 0.8504 0.85586 0.0
H5923 H 0.23955 0.86159 0.87167 0.0
C5924 C 0.30311 0.88651 0.95749 0.0
C5925 C 0.29791 0.90296 0.95605 0.0
C5926 C 0.29807 0.87274 0.94237 0.0
C5927 C 0.28832 0.87554 0.92544 0.0
C5928 C 0.2831 0.89198 0.92399 0.0
C5929 C 0.28777 0.90561 0.93931 0.0
C5930 C 0.28463 0.86172 0.90876 0.0
C5931 C 0.26706 0.85518 0.90047 0.0
C5932 C 0.29851 0.85503 0.90112 0.0
C5933 C 0.31735 0.86206 0.90877 0.0
C5934 C 0.32485 0.8804 0.90935 0.0
C5935 C 0.34244 0.88702 0.91722 0.0
C5936 C 0.35269 0.87538 0.92439 0.0
C5937 C 0.3454 0.85708 0.92362 0.0
C5938 C 0.32781 0.8504 0.91579 0.0
C5939 C 0.26396 0.81459 0.82575 0.0
C5940 C 0.27307 0.80035 0.82518 0.0
C5941 C 0.26488 0.82573 0.84277 0.0
C5942 C 0.27421 0.82226 0.85963 0.0
C5943 C 0.28267 0.80759 0.85925 0.0
C5944 C 0.28249 0.797 0.84205 0.0
C5945 C 0.27701 0.8351 0.87713 0.0
C5946 C 0.29452 0.84172 0.88548 0.0
C5947 C 0.26303 0.84179 0.8847 0.0
C5948 C 0.24428 0.83516 0.87632 0.0
C5949 C 0.23679 0.81667 0.87376 0.0
C5950 C 0.21952 0.81044 0.86465 0.0
C5951 C 0.20953 0.82259 0.85818 0.0
C5952 C 0.21676 0.841 0.86092 0.0
C5953 C 0.23403 0.8473 0.87 0.0
H5954 H 0.1962 0.81774 0.85105 0.0
H5955 H 0.3663 0.88053 0.93051 0.0
H5956 H 0.89972 0.53972 0.74131 0.0
H5957 H 0.91625 0.53852 0.71354 0.0
H5958 H 0.9401 0.49678 0.73579 0.0
H5959 H 0.92444 0.49865 0.76384 0.0
H5960 H 0.96392 0.52039 0.72454 0.0
H5961 H 0.90412 0.48846 0.69669 0.0
H5962 H 0.87209 0.48599 0.68756 0.0
H5963 H 0.88269 0.53142 0.65613 0.0
H5964 H 0.91477 0.53415 0.66512 0.0
H5965 H 0.99203 0.472 0.64817 0.0
H5966 H 0.97871 0.48381 0.67512 0.0
H5967 H 0.9594 0.52136 0.64062 0.0
H5968 H 0.97084 0.50831 0.61307 0.0
H5969 H 0.93464 0.50688 0.65736 0.0
H5970 H 0.99495 0.53515 0.68115 0.0
H5971 H 0.02688 0.53725 0.69045 0.0
H5972 H 0.01546 0.49847 0.72988 0.0
H5973 H 0.9835 0.49609 0.72077 0.0
C5974 C 0.90867 0.53047 0.74025 0.0
C5975 C 0.91111 0.51949 0.75472 0.0
C5976 C 0.91793 0.52966 0.72437 0.0
C5977 C 0.92928 0.51747 0.72258 0.0
C5978 C 0.93153 0.50641 0.73701 0.0
C5979 C 0.92266 0.50753 0.75304 0.0
C5980 C 0.93927 0.51626 0.70602 0.0
C5981 C 0.95754 0.51734 0.70982 0.0
C5982 C 0.93103 0.51311 0.68683 0.0
C5983 C 0.91177 0.51163 0.68176 0.0
C5984 C 0.89958 0.49799 0.68797 0.0
C5985 C 0.88144 0.49652 0.68277 0.0
C5986 C 0.87536 0.50858 0.67133 0.0
C5987 C 0.88741 0.52211 0.66502 0.0
C5988 C 0.90556 0.52361 0.67013 0.0
C5989 C 0.98483 0.48265 0.64623 0.0
C5990 C 0.9826 0.48916 0.62837 0.0
C5991 C 0.97755 0.48971 0.66181 0.0
C5992 C 0.96842 0.50379 0.66003 0.0
C5993 C 0.96654 0.51061 0.64239 0.0
C5994 C 0.97333 0.50322 0.62667 0.0
C5995 C 0.95927 0.5101 0.67593 0.0
C5996 C 0.94118 0.51021 0.67201 0.0
C5997 C 0.96766 0.51426 0.69506 0.0
C5998 C 0.98686 0.51538 0.70019 0.0
C5999 C 0.99927 0.52698 0.69169 0.0
C6000 C 0.01737 0.52825 0.69697 0.0
C6001 C 0.0232 0.51798 0.71072 0.0
C6002 C 0.01094 0.50642 0.71924 0.0
C6003 C 0.99284 0.50514 0.71406 0.0
H6004 H 0.03721 0.519 0.71479 0.0
H6005 H 0.86131 0.50741 0.66732 0.0
H6006 H 0.26578 0.16874 0.44822 0.0
H6007 H 0.27082 0.18176 0.41843 0.0
H6008 H 0.27077 0.23439 0.44725 0.0
H6009 H 0.26469 0.22125 0.47661 0.0
H6010 H 0.25276 0.23123 0.41502 0.0
H6011 H 0.30999 0.21698 0.43418 0.0
H6012 H 0.3306 0.19712 0.44232 0.0
H6013 H 0.31419 0.16535 0.38737 0.0
H6014 H 0.29332 0.18485 0.37902 0.0
H6015 H 0.28042 0.28284 0.34358 0.0
H6016 H 0.28102 0.26984 0.37357 0.0
H6017 H 0.28345 0.21856 0.34319 0.0
H6018 H 0.28581 0.23234 0.31352 0.0
H6019 H 0.29978 0.2201 0.37566 0.0
H6020 H 0.24404 0.23602 0.35559 0.0
H6021 H 0.22659 0.25831 0.34639 0.0
H6022 H 0.23905 0.28652 0.40343 0.0
H6023 H 0.25797 0.26541 0.41249 0.0
C6024 C 0.26686 0.1831 0.44816 0.0
C6025 C 0.26474 0.19397 0.46473 0.0
C6026 C 0.26991 0.19058 0.43114 0.0
C6027 C 0.27148 0.20918 0.43052 0.0
C6028 C 0.26958 0.22001 0.44721 0.0
C6029 C 0.2661 0.21249 0.46404 0.0
C6030 C 0.2743 0.21741 0.41243 0.0
C6031 C 0.26321 0.22895 0.40657 0.0
C6032 C 0.28752 0.21404 0.40091 0.0
C6033 C 0.29996 0.20226 0.40608 0.0
C6034 C 0.31068 0.20567 0.42391 0.0
C6035 C 0.32242 0.19448 0.42855 0.0
C6036 C 0.32367 0.17995 0.4154 0.0
C6037 C 0.31319 0.17658 0.39757 0.0
C6038 C 0.30141 0.18769 0.39288 0.0
C6039 C 0.28162 0.26892 0.34326 0.0
C6040 C 0.28298 0.25865 0.32595 0.0
C6041 C 0.28163 0.26137 0.36049 0.0
C6042 C 0.28141 0.24294 0.36067 0.0
C6043 C 0.28334 0.23276 0.34354 0.0
C6044 C 0.28449 0.24062 0.32646 0.0
C6045 C 0.27841 0.23413 0.37841 0.0
C6046 C 0.28934 0.22239 0.38411 0.0
C6047 C 0.26497 0.23726 0.38979 0.0
C6048 C 0.25256 0.24917 0.38468 0.0
C6049 C 0.2431 0.24699 0.36618 0.0
C6050 C 0.23302 0.25949 0.36095 0.0
C6051 C 0.23145 0.27365 0.37439 0.0
C6052 C 0.24021 0.27551 0.39303 0.0
C6053 C 0.25081 0.26341 0.39816 0.0
H6054 H 0.22353 0.28323 0.37032 0.0
H6055 H 0.33278 0.17133 0.41901 0.0
H6056 H 0.32569 0.62043 0.52572 0.0
H6057 H 0.34752 0.60201 0.5198 0.0
H6058 H 0.33056 0.56998 0.56413 0.0
H6059 H 0.3081 0.58809 0.56971 0.0
H6060 H 0.37071 0.58904 0.56259 0.0
H6061 H 0.3203 0.54685 0.52992 0.0
H6062 H 0.29209 0.53685 0.5087 0.0
H6063 H 0.31712 0.55554 0.46092 0.0
H6064 H 0.34539 0.56601 0.48191 0.0
H6065 H 0.4244 0.53026 0.51951 0.0
H6066 H 0.40497 0.54449 0.53822 0.0
H6067 H 0.39587 0.5769 0.49286 0.0
H6068 H 0.41569 0.56305 0.47416 0.0
H6069 H 0.3665 0.55051 0.50069 0.0
H6070 H 0.41317 0.59832 0.53148 0.0
H6071 H 0.44062 0.61428 0.55151 0.0
H6072 H 0.42283 0.59063 0.60059 0.0
H6073 H 0.39537 0.57426 0.58075 0.0
C6074 C 0.32683 0.60963 0.53435 0.0
C6075 C 0.31562 0.60561 0.54826 0.0
C6076 C 0.33901 0.59904 0.53081 0.0
C6077 C 0.34017 0.58467 0.5414 0.0
C6078 C 0.32943 0.58096 0.55578 0.0
C6079 C 0.31689 0.59131 0.55901 0.0
C6080 C 0.35361 0.57445 0.53781 0.0
C6081 C 0.36983 0.58003 0.54944 0.0
C6082 C 0.35209 0.56338 0.52028 0.0
C6083 C 0.33499 0.55731 0.50759 0.0
C6084 C 0.31976 0.54903 0.51495 0.0
C6085 C 0.30376 0.54324 0.50294 0.0
C6086 C 0.30281 0.54558 0.48348 0.0
C6087 C 0.31787 0.55374 0.476 0.0
C6088 C 0.33389 0.55959 0.48795 0.0
C6089 C 0.41871 0.54084 0.5138 0.0
C6090 C 0.42114 0.54538 0.49526 0.0
C6091 C 0.40778 0.54899 0.52455 0.0
C6092 C 0.39918 0.5616 0.51677 0.0
C6093 C 0.40259 0.56715 0.49894 0.0
C6094 C 0.4136 0.55908 0.48821 0.0
C6095 C 0.38388 0.5659 0.52499 0.0
C6096 C 0.36736 0.55897 0.51421 0.0
C6097 C 0.38523 0.57618 0.54302 0.0
C6098 C 0.4024 0.5847 0.5545 0.0
C6099 C 0.41529 0.59615 0.54642 0.0
C6100 C 0.4308 0.60538 0.55778 0.0
C6101 C 0.43353 0.60338 0.57728 0.0
C6102 C 0.42076 0.59208 0.58545 0.0
C6103 C 0.40524 0.58279 0.57415 0.0
H6104 H 0.44548 0.61065 0.58608 0.0
H6105 H 0.29042 0.54104 0.4742 0.0
H6106 H 0.85585 0.89164 0.53968 0.0
H6107 H 0.88442 0.91127 0.53896 0.0
H6108 H 0.85925 0.95701 0.53794 0.0
H6109 H 0.83042 0.93723 0.5378 0.0
H6110 H 0.88244 0.95895 0.51367 0.0
H6111 H 0.88442 0.94703 0.58019 0.0
H6112 H 0.88255 0.92748 0.60606 0.0
H6113 H 0.92405 0.90335 0.58603 0.0
H6114 H 0.92604 0.92263 0.55995 0.0
H6115 H 0.9625 0.02244 0.52663 0.0
H6116 H 0.93377 0.00559 0.53088 0.0
H6117 H 0.95687 0.95959 0.54075 0.0
H6118 H 0.98601 0.97731 0.53924 0.0
H6119 H 0.93388 0.95877 0.56155 0.0
H6120 H 0.93153 0.96797 0.49432 0.0
H6121 H 0.93367 0.98599 0.46715 0.0
H6122 H 0.89357 0.01289 0.48612 0.0
H6123 H 0.89132 0.99517 0.51349 0.0
C6124 C 0.85638 0.90589 0.53937 0.0
C6125 C 0.84088 0.91289 0.5389 0.0
C6126 C 0.87278 0.91714 0.53907 0.0
C6127 C 0.87411 0.93573 0.53883 0.0
C6128 C 0.8586 0.94274 0.53822 0.0
C6129 C 0.84213 0.93143 0.53817 0.0
C6130 C 0.89161 0.94778 0.53876 0.0
C6131 C 0.89365 0.95908 0.52428 0.0
C6132 C 0.90641 0.94762 0.55225 0.0
C6133 C 0.90529 0.93619 0.56807 0.0
C6134 C 0.89308 0.9375 0.58127 0.0
C6135 C 0.89201 0.92647 0.59597 0.0
C6136 C 0.90315 0.91416 0.59766 0.0
C6137 C 0.91542 0.91288 0.5847 0.0
C6138 C 0.91655 0.92388 0.56998 0.0
C6139 C 0.96168 0.00902 0.53033 0.0
C6140 C 0.97683 1.00151 0.53281 0.0
C6141 C 0.945 0.9991 0.53226 0.0
C6142 C 0.94283 0.98099 0.5355 0.0
C6143 C 0.95798 0.9735 0.53821 0.0
C6144 C 0.97476 0.98371 0.53724 0.0
C6145 C 0.92494 0.96979 0.53618 0.0
C6146 C 0.92276 0.95867 0.55085 0.0
C6147 C 0.9101 0.96985 0.5226 0.0
C6148 C 0.91136 0.98035 0.50602 0.0
C6149 C 0.92322 0.97778 0.49272 0.0
C6150 C 0.92445 0.98794 0.47729 0.0
C6151 C 0.91379 1.0006 0.47493 0.0
C6152 C 0.90183 0.00309 0.48797 0.0
C6153 C 0.90055 0.99298 0.50342 0.0
H6154 H 0.91477 0.00846 0.46299 0.0
H6155 H 0.90228 0.90562 0.60904 0.0
H6156 H 0.91446 0.0853 0.24421 0.0
H6157 H 0.89652 0.10819 0.24768 0.0
H6158 H 0.85726 0.07089 0.27049 0.0
H6159 H 0.87489 0.04776 0.26652 0.0
H6160 H 0.84145 0.08868 0.24702 0.0
H6161 H 0.88705 0.10478 0.29998 0.0
H6162 H 0.91749 0.11204 0.31674 0.0
H6163 H 0.92967 0.15755 0.28574 0.0
H6164 H 0.89935 0.15043 0.26861 0.0
H6165 H 0.80248 0.15258 0.29983 0.0
H6166 H 0.8163 0.12856 0.28678 0.0
H6167 H 0.84911 0.16639 0.25742 0.0
H6168 H 0.83505 0.19046 0.27033 0.0
H6169 H 0.86805 0.14883 0.28232 0.0
H6170 H 0.81933 0.13211 0.23134 0.0
H6171 H 0.78794 0.12387 0.2176 0.0
H6172 H 0.78053 0.07846 0.24941 0.0
H6173 H 0.81184 0.08652 0.26347 0.0
C6174 C 0.90198 0.08194 0.2499 0.0
C6175 C 0.89613 0.06473 0.25514 0.0
C6176 C 0.89177 0.09508 0.25197 0.0
C6177 C 0.87567 0.09136 0.25963 0.0
C6178 C 0.86965 0.07408 0.26456 0.0
C6179 C 0.87976 0.06088 0.26231 0.0
C6180 C 0.86514 0.10551 0.26258 0.0
C6181 C 0.84724 0.10178 0.25488 0.0
C6182 C 0.87271 0.12268 0.27268 0.0
C6183 C 0.891 0.12695 0.28285 0.0
C6184 C 0.89627 0.11624 0.29661 0.0
C6185 C 0.91349 0.12035 0.3062 0.0
C6186 C 0.92553 0.13521 0.30226 0.0
C6187 C 0.92035 0.14602 0.28875 0.0
C6188 C 0.90314 0.14196 0.2791 0.0
C6189 C 0.81221 0.1556 0.29004 0.0
C6190 C 0.81781 0.17333 0.28613 0.0
C6191 C 0.82009 0.14189 0.28259 0.0
C6192 C 0.83376 0.14571 0.27118 0.0
C6193 C 0.83857 0.16319 0.26621 0.0
C6194 C 0.8305 0.17689 0.27349 0.0
C6195 C 0.84443 0.13204 0.2666 0.0
C6196 C 0.86235 0.13582 0.2742 0.0
C6197 C 0.83675 0.11478 0.25688 0.0
C6198 C 0.8179 0.10999 0.24854 0.0
C6199 C 0.81097 0.12045 0.23552 0.0
C6200 C 0.7932 0.11579 0.22764 0.0
C6201 C 0.78223 0.10067 0.23266 0.0
C6202 C 0.78903 0.09016 0.24554 0.0
C6203 C 0.8068 0.09475 0.25343 0.0
H6204 H 0.76848 0.09708 0.22654 0.0
H6205 H 0.93885 0.13838 0.30971 0.0
H6206 H 0.71948 0.07762 0.04136 0.0
H6207 H 0.68884 0.06238 0.03132 0.0
H6208 H 0.67263 0.11357 0.03537 0.0
H6209 H 0.70315 0.12894 0.04575 0.0
H6210 H 0.65542 0.08926 0.05612 0.0
H6211 H 0.6727 0.0901 0.99197 0.0
H6212 H 0.69062 0.08368 0.96621 0.0
H6213 H 0.67632 0.02715 0.97033 0.0
H6214 H 0.65855 0.03324 0.99631 0.0
H6215 H 0.56805 0.06199 0.02859 0.0
H6216 H 0.5975 0.07566 0.02251 0.0
H6217 H 0.61254 0.02392 0.02076 0.0
H6218 H 0.58238 0.00992 0.02563 0.0
H6219 H 0.63026 0.04777 0.99678 0.0
H6220 H 0.61703 0.04491 0.06138 0.0
H6221 H 0.60012 0.0485 0.08873 0.0
H6222 H 0.60884 0.10547 0.08645 0.0
H6223 H 0.62549 0.10215 0.05878 0.0
C6224 C 0.70937 0.08561 0.04006 0.0
C6225 C 0.71353 0.10441 0.04442 0.0
C6226 C 0.69201 0.07693 0.03409 0.0
C6227 C 0.67878 0.087 0.0323 0.0
C6228 C 0.68289 0.10574 0.03652 0.0
C6229 C 0.70021 0.11442 0.04262 0.0
C6230 C 0.66035 0.07787 0.02845 0.0
C6231 C 0.64981 0.08049 0.04298 0.0
C6232 C 0.65355 0.06575 0.01171 0.0
C6233 C 0.66442 0.06216 0.99621 0.0
C6234 C 0.67352 0.07632 0.98752 0.0
C6235 C 0.68362 0.07273 0.97284 0.0
C6236 C 0.68464 0.05502 0.96666 0.0
C6237 C 0.67554 0.04086 0.97513 0.0
C6238 C 0.66545 0.04438 0.98982 0.0
C6239 C 0.57729 0.0534 0.02574 0.0
C6240 C 0.57316 0.035 0.02712 0.0
C6241 C 0.59409 0.06121 0.02243 0.0
C6242 C 0.60695 0.0507 0.02136 0.0
C6243 C 0.60255 0.03206 0.02144 0.0
C6244 C 0.58558 0.02419 0.02446 0.0
C6245 C 0.6254 0.05964 0.02418 0.0
C6246 C 0.63592 0.0568 0.00972 0.0
C6247 C 0.63245 0.0712 0.04126 0.0
C6248 C 0.62228 0.07324 0.05781 0.0
C6249 C 0.61514 0.05817 0.06653 0.0
C6250 C 0.60563 0.06016 0.08213 0.0
C6251 C 0.60334 0.07719 0.08927 0.0
C6252 C 0.61057 0.09227 0.08085 0.0
C6253 C 0.62003 0.09034 0.0652 0.0
H6254 H 0.59601 0.07871 0.10138 0.0
H6255 H 0.69245 0.05227 0.95528 0.0
H6256 H 0.17101 0.46412 0.2345 0.0
H6257 H 0.18658 0.44025 0.24208 0.0
H6258 H 0.2349 0.47959 0.25973 0.0
H6259 H 0.21969 0.50343 0.25181 0.0
H6260 H 0.24058 0.45062 0.23922 0.0
H6261 H 0.21239 0.46449 0.29337 0.0
H6262 H 0.18828 0.47041 0.31166 0.0
H6263 H 0.15931 0.4166 0.29327 0.0
H6264 H 0.18316 0.41043 0.27465 0.0
H6265 H 0.27943 0.39502 0.30173 0.0
H6266 H 0.26997 0.41756 0.28284 0.0
H6267 H 0.22021 0.381 0.26325 0.0
H6268 H 0.22939 0.35884 0.28282 0.0
H6269 H 0.21695 0.41042 0.28558 0.0
H6270 H 0.24587 0.40226 0.22488 0.0
H6271 H 0.27128 0.4008 0.20667 0.0
H6272 H 0.30123 0.44835 0.24142 0.0
H6273 H 0.27604 0.44993 0.25976 0.0
C6274 C 0.185 0.46761 0.2397 0.0
C6275 C 0.19414 0.48552 0.2428 0.0
C6276 C 0.19379 0.45406 0.24413 0.0
C6277 C 0.21168 0.45841 0.25175 0.0
C6278 C 0.22103 0.47616 0.25393 0.0
C6279 C 0.21231 0.48968 0.24942 0.0
C6280 C 0.22057 0.44443 0.25786 0.0
C6281 C 0.23554 0.44183 0.24945 0.0
C6282 C 0.21398 0.43337 0.2714 0.0
C6283 C 0.19949 0.43706 0.28244 0.0
C6284 C 0.2008 0.45397 0.29306 0.0
C6285 C 0.1872 0.45736 0.30353 0.0
C6286 C 0.17225 0.44391 0.30358 0.0
C6287 C 0.17089 0.42702 0.29319 0.0
C6288 C 0.18445 0.42356 0.28269 0.0
C6289 C 0.26666 0.39177 0.29298 0.0
C6290 C 0.25482 0.37565 0.29396 0.0
C6291 C 0.26141 0.40445 0.28197 0.0
C6292 C 0.24442 0.40086 0.2717 0.0
C6293 C 0.23338 0.38392 0.27112 0.0
C6294 C 0.23848 0.37143 0.28241 0.0
C6295 C 0.23649 0.4158 0.26606 0.0
C6296 C 0.22186 0.41894 0.27507 0.0
C6297 C 0.24377 0.42774 0.25361 0.0
C6298 C 0.25942 0.42573 0.24408 0.0
C6299 C 0.25812 0.41198 0.22897 0.0
C6300 C 0.27239 0.41126 0.21852 0.0
C6301 C 0.28796 0.42429 0.2231 0.0
C6302 C 0.28926 0.43813 0.23805 0.0
C6303 C 0.27502 0.43892 0.24847 0.0
H6304 H 0.29893 0.42377 0.21491 0.0
H6305 H 0.16174 0.44655 0.3117 0.0
H6306 H 0.254 0.43126 0.045 0.0
H6307 H 0.23049 0.44874 0.04375 0.0
H6308 H 0.1937 0.40241 0.01364 0.0
H6309 H 0.21693 0.38484 0.01502 0.0
H6310 H 0.19471 0.43388 0.99587 0.0
H6311 H 0.1903 0.41435 0.05856 0.0
H6312 H 0.20128 0.41124 0.09189 0.0
H6313 H 0.2143 0.46868 0.10537 0.0
H6314 H 0.20363 0.47213 0.07201 0.0
H6315 H 0.11348 0.45786 0.99075 0.0
H6316 H 0.13633 0.44194 0.00218 0.0
H6317 H 0.16702 0.49154 0.03304 0.0
H6318 H 0.14392 0.50749 0.02171 0.0
H6319 H 0.17081 0.46095 0.05185 0.0
H6320 H 0.17529 0.48112 0.99038 0.0
H6321 H 0.16482 0.48524 0.95722 0.0
H6322 H 0.15338 0.42806 0.94135 0.0
H6323 H 0.16344 0.42358 0.97456 0.0
C6324 C 0.24088 0.42479 0.03816 0.0
C6325 C 0.23735 0.40667 0.03002 0.0
C6326 C 0.22746 0.43476 0.03758 0.0
C6327 C 0.21035 0.42683 0.02868 0.0
C6328 C 0.20681 0.40876 0.02062 0.0
C6329 C 0.22012 0.39874 0.02141 0.0
C6330 C 0.19628 0.43748 0.02671 0.0
C6331 C 0.18936 0.43962 0.00811 0.0
C6332 C 0.18979 0.44555 0.04272 0.0
C6333 C 0.19638 0.4435 0.06272 0.0
C6334 C 0.1957 0.42632 0.06856 0.0
C6335 C 0.20182 0.42449 0.08748 0.0
C6336 C 0.20854 0.43975 0.10072 0.0
C6337 C 0.20913 0.45687 0.09509 0.0
C6338 C 0.20304 0.45877 0.07618 0.0
C6339 C 0.12477 0.46518 0.00062 0.0
C6340 C 0.12698 0.48381 0.00549 0.0
C6341 C 0.13786 0.45614 0.00702 0.0
C6342 C 0.15351 0.46563 0.01817 0.0
C6343 C 0.15505 0.48398 0.02444 0.0
C6344 C 0.14186 0.49305 0.01806 0.0
C6345 C 0.16893 0.45685 0.02099 0.0
C6346 C 0.17621 0.45522 0.03965 0.0
C6347 C 0.17597 0.44939 0.00504 0.0
C6348 C 0.16994 0.45201 0.98502 0.0
C6349 C 0.17038 0.46941 0.97988 0.0
C6350 C 0.16454 0.47182 0.96106 0.0
C6351 C 0.1584 0.45692 0.9472 0.0
C6352 C 0.15811 0.43959 0.95212 0.0
C6353 C 0.16387 0.43711 0.97094 0.0
H6354 H 0.15391 0.4588 0.93263 0.0
H6355 H 0.21326 0.43831 0.11537 0.0
H6356 H 0.91098 0.94357 0.25061 0.0
H6357 H 0.89005 0.91536 0.25095 0.0
H6358 H 0.84773 0.9444 0.25488 0.0
H6359 H 0.86864 0.97271 0.25502 0.0
H6360 H 0.84641 0.92044 0.27973 0.0
H6361 H 0.85275 0.91949 0.21209 0.0
H6362 H 0.86967 0.92094 0.18434 0.0
H6363 H 0.89106 0.87554 0.19939 0.0
H6364 H 0.87441 0.87394 0.22732 0.0
H6365 H 0.78067 0.84151 0.27158 0.0
H6366 H 0.79737 0.87045 0.26628 0.0
H6367 H 0.83919 0.84481 0.24862 0.0
H6368 H 0.82104 0.8157 0.25028 0.0
H6369 H 0.8393 0.86862 0.22926 0.0
H6370 H 0.83559 0.87045 0.29832 0.0
H6371 H 0.81971 0.86915 0.32686 0.0
H6372 H 0.79546 0.91255 0.31113 0.0
H6373 H 0.81097 0.91396 0.28234 0.0
C6374 C 0.89721 0.94395 0.25146 0.0
C6375 C 0.89147 0.96038 0.25277 0.0
C6376 C 0.88524 0.9278 0.25156 0.0
C6377 C 0.86728 0.92775 0.25267 0.0
C6378 C 0.86152 0.94413 0.25397 0.0
C6379 C 0.87349 0.96029 0.25402 0.0
C6380 C 0.85456 0.91069 0.25309 0.0
C6381 C 0.8447 0.90911 0.26862 0.0
C6382 C 0.85261 0.89584 0.2388 0.0
C6383 C 0.86243 0.89668 0.22185 0.0
C6384 C 0.86113 0.90988 0.20952 0.0
C6385 C 0.87067 0.91072 0.19376 0.0
C6386 C 0.88146 0.89836 0.19012 0.0
C6387 C 0.8827 0.8851 0.20221 0.0
C6388 C 0.8732 0.88421 0.21799 0.0
C6389 C 0.793 0.8419 0.26569 0.0
C6390 C 0.79911 0.82606 0.26077 0.0
C6391 C 0.80294 0.85866 0.26331 0.0
C6392 C 0.81993 0.86012 0.25759 0.0
C6393 C 0.82613 0.84428 0.25296 0.0
C6394 C 0.81572 0.82751 0.25409 0.0
C6395 C 0.83142 0.87794 0.25637 0.0
C6396 C 0.84099 0.87978 0.24055 0.0
C6397 C 0.83337 0.89293 0.27063 0.0
C6398 C 0.82433 0.89221 0.28812 0.0
C6399 C 0.82684 0.87968 0.30094 0.0
C6400 C 0.8179 0.87892 0.31714 0.0
C6401 C 0.80658 0.89073 0.3208 0.0
C6402 C 0.80421 0.90339 0.30828 0.0
C6403 C 0.81307 0.90418 0.29202 0.0
H6404 H 0.79967 0.89008 0.33336 0.0
H6405 H 0.88884 0.89905 0.17792 0.0
H6406 H 0.70518 0.08794 0.71666 0.0
H6407 H 0.71894 0.11978 0.72522 0.0
H6408 H 0.7128 0.11532 0.78479 0.0
H6409 H 0.69926 0.08367 0.77659 0.0
H6410 H 0.70272 0.14696 0.7677 0.0
H6411 H 0.74995 0.1137 0.7769 0.0
H6412 H 0.7676 0.09148 0.76702 0.0
H6413 H 0.78056 0.11926 0.71874 0.0
H6414 H 0.76275 0.14148 0.72817 0.0
H6415 H 0.77087 0.22888 0.79771 0.0
H6416 H 0.75515 0.19783 0.79786 0.0
H6417 H 0.75038 0.18987 0.73588 0.0
H6418 H 0.76492 0.22114 0.73569 0.0
H6419 H 0.76638 0.16453 0.76023 0.0
H6420 H 0.71692 0.19379 0.7459 0.0
H6421 H 0.69866 0.21633 0.75225 0.0
H6422 H 0.68917 0.19693 0.8061 0.0
H6423 H 0.70768 0.17444 0.80018 0.0
C6424 C 0.70676 0.09378 0.73153 0.0
C6425 C 0.70149 0.0834 0.746 0.0
C6426 C 0.71448 0.11184 0.73635 0.0
C6427 C 0.71679 0.11948 0.75557 0.0
C6428 C 0.711 0.10938 0.76992 0.0
C6429 C 0.70347 0.09135 0.76518 0.0
C6430 C 0.72625 0.13783 0.76085 0.0
C6431 C 0.71671 0.15086 0.76647 0.0
C6432 C 0.74436 0.14257 0.75891 0.0
C6433 C 0.7549 0.12911 0.75314 0.0
C6434 C 0.75641 0.11494 0.76406 0.0
C6435 C 0.76648 0.10238 0.75857 0.0
C6436 C 0.77516 0.10393 0.74224 0.0
C6437 C 0.77381 0.11806 0.73137 0.0
C6438 C 0.76374 0.13064 0.73679 0.0
C6439 C 0.76607 0.22055 0.78425 0.0
C6440 C 0.76858 0.22714 0.76674 0.0
C6441 C 0.75732 0.20297 0.78433 0.0
C6442 C 0.75153 0.19209 0.76687 0.0
C6443 C 0.75475 0.19844 0.74939 0.0
C6444 C 0.76316 0.21604 0.74932 0.0
C6445 C 0.74278 0.17365 0.76654 0.0
C6446 C 0.7525 0.16058 0.76196 0.0
C6447 C 0.72479 0.16899 0.76901 0.0
C6448 C 0.71395 0.18269 0.77278 0.0
C6449 C 0.71119 0.19453 0.75924 0.0
C6450 C 0.70073 0.20724 0.76272 0.0
C6451 C 0.69283 0.20813 0.77962 0.0
C6452 C 0.69536 0.19628 0.79306 0.0
C6453 C 0.70584 0.18355 0.78965 0.0
H6454 H 0.6847 0.21795 0.78226 0.0
H6455 H 0.78297 0.0942 0.73803 0.0
loop_
_geom_bond_atom_site_label_1
_geom_bond_atom_site_label_2
_geom_bond_distance
_geom_bond_site_symmetry_2
_ccdc_geom_bond_type
C0 O1 1.160 . S
C0 O7 1.185 . S
O1 C0 1.160 . S
O2 Zn3 1.899 . S
O2 C10 1.284 . S
Zn3 O2 1.899 . S
Zn3 O4 2.032 . S
Zn3 O7 2.086 . S
Zn3 O12 1.977 . S
O4 Zn3 2.032 . S
O4 C8 1.278 . S
C5 O6 1.203 . S
C5 O12 1.267 1_655 S
O6 C5 1.203 . S
O7 C0 1.185 . S
O7 Zn3 2.086 . S
C8 O4 1.278 . S
C8 O9 1.211 . S
O9 C8 1.211 . S
C10 O2 1.284 . S
C10 O11 1.273 . S
O11 C10 1.273 . S
O12 Zn3 1.977 . S
O12 C5 1.267 1_455 S
C13 O14 1.160 . S
C13 O20 1.185 . S
O14 C13 1.160 . S
O15 Zn16 1.899 . S
O15 C23 1.284 . S
Zn16 O15 1.899 . S
Zn16 O17 2.032 . S
Zn16 O20 2.086 1_455 S
Zn16 O25 1.977 . S
O17 Zn16 2.032 . S
O17 C21 1.278 . S
C18 O19 1.203 . S
C18 O25 1.267 . S
O19 C18 1.203 . S
O20 C13 1.185 . S
O20 Zn16 2.086 1_655 S
C21 O17 1.278 . S
C21 O22 1.211 . S
O22 C21 1.211 . S
C23 O15 1.284 . S
C23 O24 1.273 . S
O24 C23 1.273 . S
O25 Zn16 1.977 . S
O25 C18 1.267 . S
C26 O27 1.160 . S
C26 O33 1.185 . S
O27 C26 1.160 . S
O28 Zn29 1.899 . S
O28 C36 1.284 . S
Zn29 O28 1.899 . S
Zn29 O30 2.032 . S
Zn29 O33 2.086 . S
Zn29 O38 1.977 . S
O30 Zn29 2.032 . S
O30 C34 1.278 . S
C31 O32 1.203 . S
C31 O38 1.267 . S
O32 C31 1.203 . S
O33 C26 1.185 . S
O33 Zn29 2.086 . S
C34 O30 1.278 . S
C34 O35 1.211 . S
O35 C34 1.211 . S
C36 O28 1.284 . S
C36 O37 1.273 . S
O37 C36 1.273 . S
O38 Zn29 1.977 . S
O38 C31 1.267 . S
C39 O40 1.160 . S
C39 O46 1.185 . S
O40 C39 1.160 . S
O41 Zn42 1.899 . S
O41 C49 1.284 . S
Zn42 O41 1.899 . S
Zn42 O43 2.032 . S
Zn42 O46 2.086 . S
Zn42 O51 1.977 . S
O43 Zn42 2.032 . S
O43 C47 1.278 . S
C44 O45 1.203 . S
C44 O51 1.267 . S
O45 C44 1.203 . S
O46 C39 1.185 . S
O46 Zn42 2.086 . S
C47 O43 1.278 . S
C47 O48 1.211 . S
O48 C47 1.211 . S
C49 O41 1.284 . S
C49 O50 1.273 . S
O50 C49 1.273 . S
O51 Zn42 1.977 . S
O51 C44 1.267 . S
C52 O53 1.160 . S
C52 O59 1.185 . S
O53 C52 1.160 . S
O54 Zn55 1.899 . S
O54 C62 1.284 . S
Zn55 O54 1.899 . S
Zn55 O56 2.032 . S
Zn55 O59 2.086 . S
Zn55 O64 1.977 . S
O56 Zn55 2.032 . S
O56 C60 1.278 . S
C57 O58 1.203 . S
C57 O64 1.267 . S
O58 C57 1.203 . S
O59 C52 1.185 . S
O59 Zn55 2.086 . S
C60 O56 1.278 . S
C60 O61 1.211 . S
O61 C60 1.211 . S
C62 O54 1.284 . S
C62 O63 1.273 . S
O63 C62 1.273 . S
O64 Zn55 1.977 . S
O64 C57 1.267 . S
C65 O66 1.160 . S
C65 O72 1.185 . S
O66 C65 1.160 . S
O67 Zn68 1.899 . S
O67 C75 1.284 . S
Zn68 O67 1.899 . S
Zn68 O69 2.032 . S
Zn68 O72 2.086 . S
Zn68 O77 1.977 . S
O69 Zn68 2.032 . S
O69 C73 1.278 . S
C70 O71 1.203 . S
C70 O77 1.267 . S
O71 C70 1.203 . S
O72 C65 1.185 . S
O72 Zn68 2.086 . S
C73 O69 1.278 . S
C73 O74 1.211 . S
O74 C73 1.211 . S
C75 O67 1.284 . S
C75 O76 1.273 . S
O76 C75 1.273 . S
O77 Zn68 1.977 . S
O77 C70 1.267 . S
C78 O79 1.160 . S
C78 O85 1.185 . S
O79 C78 1.160 . S
O80 Zn81 1.899 . S
O80 C88 1.284 . S
Zn81 O80 1.899 . S
Zn81 O82 2.032 . S
Zn81 O85 2.086 . S
Zn81 O90 1.977 . S
O82 Zn81 2.032 . S
O82 C86 1.278 . S
C83 O84 1.203 . S
C83 O90 1.267 . S
O84 C83 1.203 . S
O85 C78 1.185 . S
O85 Zn81 2.086 . S
C86 O82 1.278 . S
C86 O87 1.211 . S
O87 C86 1.211 . S
C88 O80 1.284 . S
C88 O89 1.273 . S
O89 C88 1.273 . S
O90 Zn81 1.977 . S
O90 C83 1.267 . S
C91 O92 1.160 . S
C91 O98 1.185 . S
O92 C91 1.160 . S
O93 Zn94 1.900 . S
O93 C101 1.285 1_455 S
Zn94 O93 1.900 . S
Zn94 O95 2.032 . S
Zn94 O98 2.086 . S
Zn94 O103 1.977 1_455 S
O95 Zn94 2.032 . S
O95 C99 1.278 . S
C96 O97 1.203 . S
C96 O103 1.267 . S
O97 C96 1.203 . S
O98 C91 1.185 . S
O98 Zn94 2.086 . S
C99 O95 1.278 . S
C99 O100 1.211 1_455 S
O100 C99 1.211 1_655 S
C101 O93 1.285 1_655 S
C101 O102 1.273 . S
O102 C101 1.273 . S
O103 Zn94 1.977 1_655 S
O103 C96 1.267 . S
C104 O105 1.160 . S
C104 O111 1.185 . S
O105 C104 1.160 . S
O106 Zn107 1.899 . S
O106 C114 1.284 . S
Zn107 O106 1.899 . S
Zn107 O108 2.032 . S
Zn107 O111 2.086 . S
Zn107 O116 1.977 1_545 S
O108 Zn107 2.032 . S
O108 C112 1.278 . S
C109 O110 1.203 . S
C109 O116 1.267 . S
O110 C109 1.203 . S
O111 C104 1.185 . S
O111 Zn107 2.086 . S
C112 O108 1.278 . S
C112 O113 1.211 1_545 S
O113 C112 1.211 1_565 S
C114 O106 1.284 . S
C114 O115 1.273 . S
O115 C114 1.273 . S
O116 Zn107 1.977 1_565 S
O116 C109 1.267 . S
C117 O118 1.160 . S
C117 O124 1.185 . S
O118 C117 1.160 . S
O119 Zn120 1.899 . S
O119 C127 1.284 . S
Zn120 O119 1.899 . S
Zn120 O121 2.032 . S
Zn120 O124 2.086 . S
Zn120 O129 1.977 . S
O121 Zn120 2.032 . S
O121 C125 1.278 . S
C122 O123 1.203 . S
C122 O129 1.267 . S
O123 C122 1.203 . S
O124 C117 1.185 . S
O124 Zn120 2.086 . S
C125 O121 1.278 . S
C125 O126 1.211 . S
O126 C125 1.211 . S
C127 O119 1.284 . S
C127 O128 1.273 . S
O128 C127 1.273 . S
O129 Zn120 1.977 . S
O129 C122 1.267 . S
C130 O131 1.170 . S
C130 O137 1.143 1_565 S
O131 C130 1.170 . S
O132 Zn133 1.899 . S
O132 C140 1.284 . S
Zn133 O132 1.899 . S
Zn133 O134 2.032 . S
Zn133 O137 2.086 . S
Zn133 O142 1.977 . S
O134 Zn133 2.032 . S
O134 C138 1.278 . S
C135 O136 1.203 . S
C135 O142 1.267 . S
O136 C135 1.203 . S
O137 C130 1.143 1_545 S
O137 Zn133 2.086 . S
C138 O134 1.278 . S
C138 O139 1.211 . S
O139 C138 1.211 . S
C140 O132 1.284 . S
C140 O141 1.273 . S
O141 C140 1.273 . S
O142 Zn133 1.977 . S
O142 C135 1.267 . S
C143 O144 1.160 . S
C143 O150 1.185 1_554 S
O144 C143 1.160 . S
O145 Zn146 1.899 . S
O145 C153 1.284 . S
Zn146 O145 1.899 . S
Zn146 O147 2.032 1_554 S
Zn146 O150 2.086 1_554 S
Zn146 O155 1.981 . S
O147 Zn146 2.032 1_556 S
O147 C151 1.278 . S
C148 O149 1.203 . S
C148 O155 1.270 . S
O149 C148 1.203 . S
O150 C143 1.185 1_556 S
O150 Zn146 2.086 1_556 S
C151 O147 1.278 . S
C151 O152 1.211 . S
O152 C151 1.211 . S
C153 O145 1.284 . S
C153 O154 1.273 . S
O154 C153 1.273 . S
O155 Zn146 1.981 . S
O155 C148 1.270 . S
C156 O157 1.160 . S
C156 O163 1.185 . S
O157 C156 1.160 . S
O158 Zn159 1.899 . S
O158 C166 1.284 . S
Zn159 O158 1.899 . S
Zn159 O160 2.032 . S
Zn159 O163 2.086 . S
Zn159 O168 1.977 . S
O160 Zn159 2.032 . S
O160 C164 1.278 . S
C161 O162 1.203 . S
C161 O168 1.267 . S
O162 C161 1.203 . S
O163 C156 1.185 . S
O163 Zn159 2.086 . S
C164 O160 1.278 . S
C164 O165 1.211 . S
O165 C164 1.211 . S
C166 O158 1.284 . S
C166 O167 1.273 . S
O167 C166 1.273 . S
O168 Zn159 1.977 . S
O168 C161 1.267 . S
C169 O170 1.160 . S
C169 O176 1.185 . S
O170 C169 1.160 . S
O171 Zn172 1.899 . S
O171 C179 1.284 . S
Zn172 O171 1.899 . S
Zn172 O173 2.032 . S
Zn172 O176 2.086 . S
Zn172 O181 1.977 . S
O173 Zn172 2.032 . S
O173 C177 1.278 . S
C174 O175 1.203 . S
C174 O181 1.267 . S
O175 C174 1.203 . S
O176 C169 1.185 . S
O176 Zn172 2.086 . S
C177 O173 1.278 . S
C177 O178 1.211 . S
O178 C177 1.211 . S
C179 O171 1.284 . S
C179 O180 1.273 . S
O180 C179 1.273 . S
O181 Zn172 1.977 . S
O181 C174 1.267 . S
C182 O183 1.160 . S
C182 O189 1.185 . S
O183 C182 1.160 . S
O184 Zn185 1.899 . S
O184 C192 1.284 . S
Zn185 O184 1.899 . S
Zn185 O186 2.032 . S
Zn185 O189 2.086 . S
Zn185 O194 1.977 . S
O186 Zn185 2.032 . S
O186 C190 1.278 . S
C187 O188 1.203 . S
C187 O194 1.267 . S
O188 C187 1.203 . S
O189 C182 1.185 . S
O189 Zn185 2.086 . S
C190 O186 1.278 . S
C190 O191 1.211 . S
O191 C190 1.211 . S
C192 O184 1.284 . S
C192 O193 1.273 . S
O193 C192 1.273 . S
O194 Zn185 1.977 . S
O194 C187 1.267 . S
C195 O196 1.160 . S
C195 O202 1.185 . S
O196 C195 1.160 . S
O197 Zn198 1.899 . S
O197 C205 1.284 . S
Zn198 O197 1.899 . S
Zn198 O199 2.032 . S
Zn198 O202 2.086 . S
Zn198 O207 1.977 . S
O199 Zn198 2.032 . S
O199 C203 1.278 . S
C200 O201 1.203 . S
C200 O207 1.267 . S
O201 C200 1.203 . S
O202 C195 1.185 . S
O202 Zn198 2.086 . S
C203 O199 1.278 . S
C203 O204 1.211 . S
O204 C203 1.211 . S
C205 O197 1.284 . S
C205 O206 1.273 . S
O206 C205 1.273 . S
O207 Zn198 1.977 . S
O207 C200 1.267 . S
C208 O209 1.160 . S
C208 O215 1.185 . S
O209 C208 1.160 . S
O210 Zn211 1.899 . S
O210 C218 1.284 . S
Zn211 O210 1.899 . S
Zn211 O212 2.032 . S
Zn211 O215 2.086 . S
Zn211 O220 1.977 1_545 S
O212 Zn211 2.032 . S
O212 C216 1.278 . S
C213 O214 1.203 . S
C213 O220 1.267 . S
O214 C213 1.203 . S
O215 C208 1.185 . S
O215 Zn211 2.086 . S
C216 O212 1.278 . S
C216 O217 1.211 1_545 S
O217 C216 1.211 1_565 S
C218 O210 1.284 . S
C218 O219 1.273 . S
O219 C218 1.273 . S
O220 Zn211 1.977 1_565 S
O220 C213 1.267 . S
C221 O222 1.160 . S
C221 O228 1.185 . S
O222 C221 1.160 . S
O223 Zn224 1.899 . S
O223 C231 1.284 . S
Zn224 O223 1.899 . S
Zn224 O225 2.032 . S
Zn224 O228 2.086 . S
Zn224 O233 1.977 . S
O225 Zn224 2.032 . S
O225 C229 1.278 . S
C226 O227 1.203 . S
C226 O233 1.267 . S
O227 C226 1.203 . S
O228 C221 1.185 . S
O228 Zn224 2.086 . S
C229 O225 1.278 . S
C229 O230 1.211 . S
O230 C229 1.211 . S
C231 O223 1.284 . S
C231 O232 1.273 . S
O232 C231 1.273 . S
O233 Zn224 1.977 . S
O233 C226 1.267 . S
C234 O235 1.160 . S
C234 O241 1.185 . S
O235 C234 1.160 . S
O236 Zn237 1.899 . S
O236 C244 1.284 . S
Zn237 O236 1.899 . S
Zn237 O238 2.032 . S
Zn237 O241 2.086 . S
Zn237 O246 1.977 . S
O238 Zn237 2.032 . S
O238 C242 1.278 . S
C239 O240 1.203 . S
C239 O246 1.267 . S
O240 C239 1.203 . S
O241 C234 1.185 . S
O241 Zn237 2.086 . S
C242 O238 1.278 . S
C242 O243 1.211 . S
O243 C242 1.211 . S
C244 O236 1.284 . S
C244 O245 1.273 . S
O245 C244 1.273 . S
O246 Zn237 1.977 . S
O246 C239 1.267 . S
C247 O248 1.155 1_545 S
C247 O254 1.185 . S
O248 C247 1.155 1_565 S
O249 Zn250 1.899 . S
O249 C257 1.284 . S
Zn250 O249 1.899 . S
Zn250 O251 2.032 . S
Zn250 O254 2.086 . S
Zn250 O259 1.977 . S
O251 Zn250 2.032 . S
O251 C255 1.278 . S
C252 O253 1.203 . S
C252 O259 1.267 . S
O253 C252 1.203 . S
O254 C247 1.185 . S
O254 Zn250 2.086 . S
C255 O251 1.278 . S
C255 O256 1.211 . S
O256 C255 1.211 . S
C257 O249 1.284 . S
C257 O258 1.273 . S
O258 C257 1.273 . S
O259 Zn250 1.977 . S
O259 C252 1.267 . S
C260 O261 1.160 . S
C260 O267 1.185 . S
O261 C260 1.160 . S
O262 Zn263 1.899 . S
O262 C270 1.284 . S
Zn263 O262 1.899 . S
Zn263 O264 2.032 1_554 S
Zn263 O267 2.086 . S
Zn263 O272 1.977 . S
O264 Zn263 2.032 1_556 S
O264 C268 1.278 . S
C265 O266 1.203 . S
C265 O272 1.267 . S
O266 C265 1.203 . S
O267 C260 1.185 . S
O267 Zn263 2.086 . S
C268 O264 1.278 . S
C268 O269 1.211 . S
O269 C268 1.211 . S
C270 O262 1.284 . S
C270 O271 1.273 . S
O271 C270 1.273 . S
O272 Zn263 1.977 . S
O272 C265 1.267 . S
C273 O274 1.160 . S
C273 O280 1.185 . S
O274 C273 1.160 . S
O275 Zn276 1.899 . S
O275 C283 1.284 . S
Zn276 O275 1.899 . S
Zn276 O277 2.032 . S
Zn276 O280 2.086 . S
Zn276 O285 1.977 . S
O277 Zn276 2.032 . S
O277 C281 1.278 . S
C278 O279 1.203 . S
C278 O285 1.267 . S
O279 C278 1.203 . S
O280 C273 1.185 . S
O280 Zn276 2.086 . S
C281 O277 1.278 . S
C281 O282 1.211 . S
O282 C281 1.211 . S
C283 O275 1.284 . S
C283 O284 1.273 . S
O284 C283 1.273 . S
O285 Zn276 1.977 . S
O285 C278 1.267 . S
C286 O287 1.160 . S
C286 O293 1.185 . S
O287 C286 1.160 . S
O288 Zn289 1.899 . S
O288 C296 1.284 . S
Zn289 O288 1.899 . S
Zn289 O290 2.032 . S
Zn289 O293 2.086 . S
Zn289 O298 1.977 . S
O290 Zn289 2.032 . S
O290 C294 1.278 . S
C291 O292 1.203 . S
C291 O298 1.267 . S
O292 C291 1.203 . S
O293 C286 1.185 . S
O293 Zn289 2.086 . S
C294 O290 1.278 . S
C294 O295 1.211 . S
O295 C294 1.211 . S
C296 O288 1.284 . S
C296 O297 1.273 . S
O297 C296 1.273 . S
O298 Zn289 1.977 . S
O298 C291 1.267 . S
C299 O300 1.160 . S
C299 O306 1.185 . S
O300 C299 1.160 . S
O301 Zn302 1.899 . S
O301 C309 1.284 . S
Zn302 O301 1.899 . S
Zn302 O303 2.032 . S
Zn302 O306 2.086 . S
Zn302 O311 1.977 . S
O303 Zn302 2.032 . S
O303 C307 1.278 . S
C304 O305 1.203 . S
C304 O311 1.267 . S
O305 C304 1.203 . S
O306 C299 1.185 . S
O306 Zn302 2.086 . S
C307 O303 1.278 . S
C307 O308 1.211 . S
O308 C307 1.211 . S
C309 O301 1.284 . S
C309 O310 1.273 . S
O310 C309 1.273 . S
O311 Zn302 1.977 . S
O311 C304 1.267 . S
Tb312 N341 2.617 . S
Tb312 N347 2.572 . S
Tb312 O356 2.465 . S
Tb312 O357 2.387 . S
Tb312 O359 2.428 . S
Tb312 O360 2.289 1_554 S
Tb312 O364 2.349 1_545 S
Tb312 O367 2.393 . S
Tb312 C376 2.802 . S
C313 N314 1.379 . S
C313 C316 1.416 . S
C313 C320 1.434 . S
N314 C313 1.379 . S
N314 C317 1.334 . S
N314 Tb323 2.617 1_566 S
C315 C317 1.390 . S
C315 C318 1.339 . S
C315 H335 0.930 . S
C316 C313 1.416 . S
C316 C318 1.416 . S
C316 C322 1.448 . S
C317 N314 1.334 . S
C317 C315 1.390 . S
C317 H328 0.930 . S
C318 C315 1.339 . S
C318 C316 1.416 . S
C318 H339 0.930 . S
C319 C320 1.408 1_554 S
C319 C321 1.427 1_554 S
C319 C325 1.416 . S
C320 C313 1.434 . S
C320 C319 1.408 1_556 S
C320 N324 1.356 1_556 S
C321 C319 1.427 1_556 S
C321 C322 1.328 . S
C321 H336 0.929 . S
C322 C316 1.448 . S
C322 C321 1.328 . S
C322 H337 0.930 . S
Tb323 N314 2.617 1_544 S
Tb323 N324 2.572 1_545 S
Tb323 O358 2.349 1_655 S
Tb323 O361 2.393 1_654 S
Tb323 O362 2.465 . S
Tb323 O363 2.387 1_645 S
Tb323 O365 2.428 1_554 S
Tb323 O366 2.308 1_655 S
Tb323 C387 2.802 1_554 S
N324 C320 1.356 1_554 S
N324 Tb323 2.572 1_565 S
N324 C326 1.340 . S
C325 C319 1.416 . S
C325 C327 1.332 . S
C325 H333 0.931 . S
C326 N324 1.340 . S
C326 C327 1.407 . S
C326 H332 0.930 . S
C327 C325 1.332 . S
C327 C326 1.407 . S
C327 H329 0.929 . S
H328 C317 0.930 . S
H329 C327 0.929 . S
H330 C345 0.930 . S
H331 C352 0.929 . S
H332 C326 0.930 . S
H333 C325 0.931 . S
H334 C348 0.930 1_556 S
H335 C315 0.930 . S
H336 C321 0.929 . S
H337 C322 0.930 . S
H338 C343 0.930 . S
H339 C318 0.930 . S
H340 C351 0.931 . S
N341 Tb312 2.617 . S
N341 C342 1.379 . S
N341 C345 1.334 . S
C342 N341 1.379 . S
C342 C344 1.416 . S
C342 C350 1.424 . S
C343 H338 0.930 . S
C343 C345 1.390 . S
C343 C346 1.339 . S
C344 C342 1.416 . S
C344 C346 1.416 . S
C344 C377 1.448 . S
C345 H330 0.930 . S
C345 N341 1.334 . S
C345 C343 1.390 . S
C346 C343 1.339 . S
C346 C344 1.416 . S
C346 H353 0.930 . S
N347 Tb312 2.572 . S
N347 C348 1.340 . S
N347 C350 1.361 . S
C348 H334 0.930 1_554 S
C348 N347 1.340 . S
C348 C352 1.407 1_554 S
C349 C350 1.413 . S
C349 C351 1.416 . S
C349 C378 1.427 . S
C350 C342 1.424 . S
C350 N347 1.361 . S
C350 C349 1.413 . S
C351 H340 0.931 . S
C351 C349 1.416 . S
C351 C352 1.332 1_554 S
C352 H331 0.929 . S
C352 C348 1.407 1_556 S
C352 C351 1.332 1_556 S
H353 C346 0.930 . S
H354 C377 0.930 . S
H355 C378 0.929 . S
O356 Tb312 2.465 . S
O356 C376 1.264 . S
O357 Tb312 2.387 . S
O357 C368 1.264 . S
O358 Tb323 2.349 1_455 S
O358 C368 1.243 . S
O359 Tb312 2.428 . S
O359 C376 1.256 . S
O360 Tb312 2.289 1_556 S
O360 C375 1.283 . S
O361 Tb323 2.393 1_456 S
O361 C375 1.248 . S
O362 Tb323 2.465 . S
O362 C387 1.264 1_554 S
O363 Tb323 2.387 1_465 S
O363 C379 1.264 . S
O364 Tb312 2.349 1_565 S
O364 C379 1.243 . S
O365 Tb323 2.428 1_556 S
O365 C387 1.256 . S
O366 Tb323 2.308 1_455 S
O366 C386 1.266 . S
O367 Tb312 2.393 . S
O367 C386 1.248 . S
C368 O357 1.264 . S
C368 O358 1.243 . S
C369 C372 1.399 . S
C369 C374 1.383 . S
C369 C376 1.496 . S
C370 C371 1.399 . S
C370 C374 1.389 1_565 S
C371 C370 1.399 . S
C371 C373 1.380 1_565 S
C371 H388 0.929 . S
C372 C369 1.399 . S
C372 C373 1.392 . S
C372 H389 0.929 . S
C373 C371 1.380 1_545 S
C373 C372 1.392 . S
C373 H390 0.929 . S
C374 C369 1.383 . S
C374 C370 1.389 1_545 S
C374 H391 0.931 . S
C375 O360 1.283 . S
C375 O361 1.248 . S
C376 Tb312 2.802 . S
C376 O356 1.264 . S
C376 O359 1.256 . S
C376 C369 1.496 . S
C377 C344 1.448 . S
C377 H354 0.930 . S
C377 C378 1.328 . S
C378 C349 1.427 . S
C378 H355 0.929 . S
C378 C377 1.328 . S
C379 O363 1.264 . S
C379 O364 1.243 . S
C380 C383 1.399 . S
C380 C384 1.383 1_556 S
C380 C387 1.496 . S
C381 C382 1.399 1_554 S
C381 C384 1.389 . S
C382 C381 1.399 1_556 S
C382 C385 1.380 . S
C382 H392 0.929 . S
C383 C380 1.399 . S
C383 C385 1.392 . S
C383 H393 0.929 . S
C384 C380 1.383 1_554 S
C384 C381 1.389 . S
C384 H394 0.931 . S
C385 C382 1.380 . S
C385 C383 1.392 . S
C385 H395 0.929 . S
C386 O366 1.266 . S
C386 O367 1.248 . S
C387 Tb323 2.802 1_556 S
C387 O362 1.264 1_556 S
C387 O365 1.256 . S
C387 C380 1.496 . S
H388 C371 0.929 . S
H389 C372 0.929 . S
H390 C373 0.929 . S
H391 C374 0.931 . S
H392 C382 0.929 . S
H393 C383 0.929 . S
H394 C384 0.931 . S
H395 C385 0.929 . S
Tb396 N425 2.617 . S
Tb396 N431 2.572 . S
Tb396 O440 2.465 . S
Tb396 O441 2.387 . S
Tb396 O443 2.428 . S
Tb396 O444 2.308 . S
Tb396 O448 2.349 . S
Tb396 O451 2.393 . S
Tb396 C460 2.802 . S
C397 N398 1.379 . S
C397 C400 1.416 . S
C397 C404 1.424 . S
N398 C397 1.379 . S
N398 C401 1.334 . S
N398 Tb407 2.617 . S
C399 C401 1.390 . S
C399 C402 1.339 . S
C399 H419 0.930 . S
C400 C397 1.416 . S
C400 C402 1.416 . S
C400 C406 1.448 . S
C401 N398 1.334 . S
C401 C399 1.390 . S
C401 H412 0.930 . S
C402 C399 1.339 . S
C402 C400 1.416 . S
C402 H423 0.930 . S
C403 C404 1.413 . S
C403 C405 1.427 . S
C403 C409 1.416 . S
C404 C397 1.424 . S
C404 C403 1.413 . S
C404 N408 1.361 . S
C405 C403 1.427 . S
C405 C406 1.328 . S
C405 H420 0.929 . S
C406 C400 1.448 . S
C406 C405 1.328 . S
C406 H421 0.930 . S
Tb407 N398 2.617 . S
Tb407 N408 2.572 . S
Tb407 O442 2.349 . S
Tb407 O445 2.393 . S
Tb407 O446 2.465 . S
Tb407 O447 2.387 . S
Tb407 O449 2.428 . S
Tb407 O450 2.308 . S
Tb407 C471 2.802 . S
N408 C404 1.361 . S
N408 Tb407 2.572 . S
N408 C410 1.340 . S
C409 C403 1.416 . S
C409 C411 1.332 . S
C409 H417 0.931 . S
C410 N408 1.340 . S
C410 C411 1.407 . S
C410 H416 0.930 . S
C411 C409 1.332 . S
C411 C410 1.407 . S
C411 H413 0.929 . S
H412 C401 0.930 . S
H413 C411 0.929 . S
H414 C429 0.930 . S
H415 C436 0.929 . S
H416 C410 0.930 . S
H417 C409 0.931 . S
H418 C432 0.930 . S
H419 C399 0.930 . S
H420 C405 0.929 . S
H421 C406 0.930 . S
H422 C427 0.930 . S
H423 C402 0.930 . S
H424 C435 0.931 . S
N425 Tb396 2.617 . S
N425 C426 1.379 . S
N425 C429 1.334 . S
C426 N425 1.379 . S
C426 C428 1.416 . S
C426 C434 1.424 . S
C427 H422 0.930 . S
C427 C429 1.390 . S
C427 C430 1.339 . S
C428 C426 1.416 . S
C428 C430 1.416 . S
C428 C461 1.448 . S
C429 H414 0.930 . S
C429 N425 1.334 . S
C429 C427 1.390 . S
C430 C427 1.339 . S
C430 C428 1.416 . S
C430 H437 0.930 . S
N431 Tb396 2.572 . S
N431 C432 1.340 . S
N431 C434 1.361 . S
C432 H418 0.930 . S
C432 N431 1.340 . S
C432 C436 1.407 . S
C433 C434 1.413 . S
C433 C435 1.416 . S
C433 C462 1.427 . S
C434 C426 1.424 . S
C434 N431 1.361 . S
C434 C433 1.413 . S
C435 H424 0.931 . S
C435 C433 1.416 . S
C435 C436 1.332 . S
C436 H415 0.929 . S
C436 C432 1.407 . S
C436 C435 1.332 . S
H437 C430 0.930 . S
H438 C461 0.930 . S
H439 C462 0.929 . S
O440 Tb396 2.465 . S
O440 C460 1.264 . S
O441 Tb396 2.387 . S
O441 C452 1.264 . S
O442 Tb407 2.349 . S
O442 C452 1.243 . S
O443 Tb396 2.428 . S
O443 C460 1.256 . S
O444 Tb396 2.308 . S
O444 C459 1.266 . S
O445 Tb407 2.393 . S
O445 C459 1.248 . S
O446 Tb407 2.465 . S
O446 C471 1.264 . S
O447 Tb407 2.387 . S
O447 C463 1.264 . S
O448 Tb396 2.349 . S
O448 C463 1.243 . S
O449 Tb407 2.428 . S
O449 C471 1.256 . S
O450 Tb407 2.308 . S
O450 C470 1.266 . S
O451 Tb396 2.393 . S
O451 C470 1.248 . S
C452 O441 1.264 . S
C452 O442 1.243 . S
C453 C456 1.399 . S
C453 C458 1.383 . S
C453 C460 1.496 . S
C454 C455 1.399 . S
C454 C458 1.389 . S
C455 C454 1.399 . S
C455 C457 1.380 . S
C455 H472 0.929 . S
C456 C453 1.399 . S
C456 C457 1.392 . S
C456 H473 0.929 . S
C457 C455 1.380 . S
C457 C456 1.392 . S
C457 H474 0.929 . S
C458 C453 1.383 . S
C458 C454 1.389 . S
C458 H475 0.931 . S
C459 O444 1.266 . S
C459 O445 1.248 . S
C460 Tb396 2.802 . S
C460 O440 1.264 . S
C460 O443 1.256 . S
C460 C453 1.496 . S
C461 C428 1.448 . S
C461 H438 0.930 . S
C461 C462 1.328 . S
C462 C433 1.427 . S
C462 H439 0.929 . S
C462 C461 1.328 . S
C463 O447 1.264 . S
C463 O448 1.243 . S
C464 C467 1.399 . S
C464 C468 1.383 . S
C464 C471 1.496 . S
C465 C466 1.399 . S
C465 C468 1.389 . S
C466 C465 1.399 . S
C466 C469 1.380 . S
C466 H476 0.929 . S
C467 C464 1.399 . S
C467 C469 1.392 . S
C467 H477 0.929 . S
C468 C464 1.383 . S
C468 C465 1.389 . S
C468 H478 0.931 . S
C469 C466 1.380 . S
C469 C467 1.392 . S
C469 H479 0.929 . S
C470 O450 1.266 . S
C470 O451 1.248 . S
C471 Tb407 2.802 . S
C471 O446 1.264 . S
C471 O449 1.256 . S
C471 C464 1.496 . S
H472 C455 0.929 . S
H473 C456 0.929 . S
H474 C457 0.929 . S
H475 C458 0.931 . S
H476 C466 0.929 . S
H477 C467 0.929 . S
H478 C468 0.931 . S
H479 C469 0.929 . S
Tb480 N509 2.643 . S
Tb480 N515 2.572 1_545 S
Tb480 O524 2.465 . S
Tb480 O525 2.387 1_545 S
Tb480 O527 2.428 . S
Tb480 O528 2.308 . S
Tb480 O532 2.349 . S
Tb480 O535 2.393 . S
Tb480 C544 2.802 . S
C481 N482 1.379 . S
C481 C484 1.416 . S
C481 C488 1.424 . S
N482 C481 1.379 . S
N482 C485 1.334 . S
N482 Tb491 2.617 . S
C483 C485 1.390 . S
C483 C486 1.339 . S
C483 H503 0.930 . S
C484 C481 1.416 . S
C484 C486 1.416 . S
C484 C490 1.448 . S
C485 N482 1.334 . S
C485 C483 1.390 . S
C485 H496 0.930 . S
C486 C483 1.339 . S
C486 C484 1.416 . S
C486 H507 0.930 . S
C487 C488 1.413 . S
C487 C489 1.427 . S
C487 C493 1.416 . S
C488 C481 1.424 . S
C488 C487 1.413 . S
C488 N492 1.361 . S
C489 C487 1.427 . S
C489 C490 1.328 . S
C489 H504 0.929 . S
C490 C484 1.448 . S
C490 C489 1.328 . S
C490 H505 0.930 . S
Tb491 N482 2.617 . S
Tb491 N492 2.572 . S
Tb491 O526 2.349 1_545 S
Tb491 O529 2.393 . S
Tb491 O530 2.465 . S
Tb491 O531 2.387 . S
Tb491 O533 2.428 . S
Tb491 O534 2.308 . S
Tb491 C555 2.802 . S
N492 C488 1.361 . S
N492 Tb491 2.572 . S
N492 C494 1.340 . S
C493 C487 1.416 . S
C493 C495 1.332 . S
C493 H501 0.931 . S
C494 N492 1.340 . S
C494 C495 1.407 . S
C494 H500 0.930 . S
C495 C493 1.332 . S
C495 C494 1.407 . S
C495 H497 0.929 . S
H496 C485 0.930 . S
H497 C495 0.929 . S
H498 C513 0.930 . S
H499 C520 0.929 . S
H500 C494 0.930 . S
H501 C493 0.931 . S
H502 C516 0.930 1_545 S
H503 C483 0.930 . S
H504 C489 0.929 . S
H505 C490 0.930 . S
H506 C511 0.930 . S
H507 C486 0.930 . S
H508 C519 0.931 . S
N509 Tb480 2.643 . S
N509 C510 1.352 1_545 S
N509 C513 1.333 . S
C510 N509 1.352 1_565 S
C510 C512 1.416 . S
C510 C518 1.424 . S
C511 H506 0.930 . S
C511 C513 1.390 1_565 S
C511 C514 1.339 . S
C512 C510 1.416 . S
C512 C514 1.416 . S
C512 C545 1.448 . S
C513 H498 0.930 . S
C513 N509 1.333 . S
C513 C511 1.390 1_545 S
C514 C511 1.339 . S
C514 C512 1.416 . S
C514 H521 0.930 . S
N515 Tb480 2.572 1_565 S
N515 C516 1.340 . S
N515 C518 1.361 . S
C516 H502 0.930 1_565 S
C516 N515 1.340 . S
C516 C520 1.407 . S
C517 C518 1.413 . S
C517 C519 1.416 . S
C517 C546 1.427 . S
C518 C510 1.424 . S
C518 N515 1.361 . S
C518 C517 1.413 . S
C519 H508 0.931 . S
C519 C517 1.416 . S
C519 C520 1.332 . S
C520 H499 0.929 . S
C520 C516 1.407 . S
C520 C519 1.332 . S
H521 C514 0.930 . S
H522 C545 0.930 . S
H523 C546 0.929 . S
O524 Tb480 2.465 . S
O524 C544 1.264 . S
O525 Tb480 2.387 1_565 S
O525 C536 1.264 . S
O526 Tb491 2.349 1_565 S
O526 C536 1.243 . S
O527 Tb480 2.428 . S
O527 C544 1.256 . S
O528 Tb480 2.308 . S
O528 C543 1.266 . S
O529 Tb491 2.393 . S
O529 C543 1.248 . S
O530 Tb491 2.465 . S
O530 C555 1.264 . S
O531 Tb491 2.387 . S
O531 C547 1.264 . S
O532 Tb480 2.349 . S
O532 C547 1.243 . S
O533 Tb491 2.428 . S
O533 C555 1.256 . S
O534 Tb491 2.308 . S
O534 C554 1.266 . S
O535 Tb480 2.393 . S
O535 C554 1.248 . S
C536 O525 1.264 . S
C536 O526 1.243 . S
C537 C540 1.399 . S
C537 C542 1.383 . S
C537 C544 1.496 . S
C538 C539 1.399 . S
C538 C542 1.389 . S
C539 C538 1.399 . S
C539 C541 1.380 . S
C539 H556 0.929 . S
C540 C537 1.399 . S
C540 C541 1.392 . S
C540 H557 0.929 . S
C541 C539 1.380 . S
C541 C540 1.392 . S
C541 H558 0.929 . S
C542 C537 1.383 . S
C542 C538 1.389 . S
C542 H559 0.931 . S
C543 O528 1.266 . S
C543 O529 1.248 . S
C544 Tb480 2.802 . S
C544 O524 1.264 . S
C544 O527 1.256 . S
C544 C537 1.496 . S
C545 C512 1.448 . S
C545 H522 0.930 . S
C545 C546 1.328 . S
C546 C517 1.427 . S
C546 H523 0.929 . S
C546 C545 1.328 . S
C547 O531 1.264 . S
C547 O532 1.243 . S
C548 C551 1.400 1_545 S
C548 C552 1.386 1_545 S
C548 C555 1.492 . S
C549 C550 1.399 . S
C549 C552 1.389 . S
C550 C549 1.399 . S
C550 C553 1.380 . S
C550 H560 0.929 . S
C551 C548 1.400 1_565 S
C551 C553 1.392 . S
C551 H561 0.947 . S
C552 C548 1.386 1_565 S
C552 C549 1.389 . S
C552 H562 0.931 . S
C553 C550 1.380 . S
C553 C551 1.392 . S
C553 H563 0.929 . S
C554 O534 1.266 . S
C554 O535 1.248 . S
C555 Tb491 2.802 . S
C555 O530 1.264 . S
C555 O533 1.256 . S
C555 C548 1.492 . S
H556 C539 0.929 . S
H557 C540 0.929 . S
H558 C541 0.929 . S
H559 C542 0.931 . S
H560 C550 0.929 . S
H561 C551 0.947 . S
H562 C552 0.931 . S
H563 C553 0.929 . S
Tb564 N593 2.617 . S
Tb564 N599 2.572 . S
Tb564 O608 2.465 . S
Tb564 O609 2.387 . S
Tb564 O611 2.428 . S
Tb564 O612 2.308 . S
Tb564 O616 2.349 . S
Tb564 O619 2.393 . S
Tb564 C628 2.802 . S
C565 N566 1.379 . S
C565 C568 1.416 . S
C565 C572 1.424 . S
N566 C565 1.379 . S
N566 C569 1.334 . S
N566 Tb575 2.617 . S
C567 C569 1.390 . S
C567 C570 1.339 . S
C567 H587 0.930 . S
C568 C565 1.416 . S
C568 C570 1.416 . S
C568 C574 1.448 . S
C569 N566 1.334 . S
C569 C567 1.390 . S
C569 H580 0.930 . S
C570 C567 1.339 . S
C570 C568 1.416 . S
C570 H591 0.930 . S
C571 C572 1.413 . S
C571 C573 1.427 . S
C571 C577 1.416 . S
C572 C565 1.424 . S
C572 C571 1.413 . S
C572 N576 1.361 . S
C573 C571 1.427 . S
C573 C574 1.328 . S
C573 H588 0.929 . S
C574 C568 1.448 . S
C574 C573 1.328 . S
C574 H589 0.930 . S
Tb575 N566 2.617 . S
Tb575 N576 2.572 . S
Tb575 O610 2.349 . S
Tb575 O613 2.393 . S
Tb575 O614 2.465 . S
Tb575 O615 2.387 . S
Tb575 O617 2.428 . S
Tb575 O618 2.308 . S
Tb575 C639 2.802 . S
N576 C572 1.361 . S
N576 Tb575 2.572 . S
N576 C578 1.340 . S
C577 C571 1.416 . S
C577 C579 1.332 . S
C577 H585 0.931 . S
C578 N576 1.340 . S
C578 C579 1.407 . S
C578 H584 0.930 . S
C579 C577 1.332 . S
C579 C578 1.407 . S
C579 H581 0.929 . S
H580 C569 0.930 . S
H581 C579 0.929 . S
H582 C597 0.930 . S
H583 C604 0.929 . S
H584 C578 0.930 . S
H585 C577 0.931 . S
H586 C600 0.930 . S
H587 C567 0.930 . S
H588 C573 0.929 . S
H589 C574 0.930 . S
H590 C595 0.930 . S
H591 C570 0.930 . S
H592 C603 0.931 . S
N593 Tb564 2.617 . S
N593 C594 1.379 . S
N593 C597 1.334 . S
C594 N593 1.379 . S
C594 C596 1.416 . S
C594 C602 1.424 . S
C595 H590 0.930 . S
C595 C597 1.390 . S
C595 C598 1.339 . S
C596 C594 1.416 . S
C596 C598 1.416 . S
C596 C629 1.448 . S
C597 H582 0.930 . S
C597 N593 1.334 . S
C597 C595 1.390 . S
C598 C595 1.339 . S
C598 C596 1.416 . S
C598 H605 0.930 . S
N599 Tb564 2.572 . S
N599 C600 1.340 . S
N599 C602 1.361 . S
C600 H586 0.930 . S
C600 N599 1.340 . S
C600 C604 1.407 . S
C601 C602 1.413 . S
C601 C603 1.416 . S
C601 C630 1.427 . S
C602 C594 1.424 . S
C602 N599 1.361 . S
C602 C601 1.413 . S
C603 H592 0.931 . S
C603 C601 1.416 . S
C603 C604 1.332 . S
C604 H583 0.929 . S
C604 C600 1.407 . S
C604 C603 1.332 . S
H605 C598 0.930 . S
H606 C629 0.930 . S
H607 C630 0.929 . S
O608 Tb564 2.465 . S
O608 C628 1.264 . S
O609 Tb564 2.387 . S
O609 C620 1.264 . S
O610 Tb575 2.349 . S
O610 C620 1.243 . S
O611 Tb564 2.428 . S
O611 C628 1.256 . S
O612 Tb564 2.308 . S
O612 C627 1.266 . S
O613 Tb575 2.393 . S
O613 C627 1.248 . S
O614 Tb575 2.465 . S
O614 C639 1.264 . S
O615 Tb575 2.387 . S
O615 C631 1.264 . S
O616 Tb564 2.349 . S
O616 C631 1.243 . S
O617 Tb575 2.428 . S
O617 C639 1.256 . S
O618 Tb575 2.308 . S
O618 C638 1.266 . S
O619 Tb564 2.393 . S
O619 C638 1.248 . S
C620 O609 1.264 . S
C620 O610 1.243 . S
C621 C624 1.399 . S
C621 C626 1.383 . S
C621 C628 1.496 . S
C622 C623 1.399 . S
C622 C626 1.389 . S
C623 C622 1.399 . S
C623 C625 1.380 . S
C623 H640 0.929 . S
C624 C621 1.399 . S
C624 C625 1.392 . S
C624 H641 0.929 . S
C625 C623 1.380 . S
C625 C624 1.392 . S
C625 H642 0.929 . S
C626 C621 1.383 . S
C626 C622 1.389 . S
C626 H643 0.931 . S
C627 O612 1.266 . S
C627 O613 1.248 . S
C628 Tb564 2.802 . S
C628 O608 1.264 . S
C628 O611 1.256 . S
C628 C621 1.496 . S
C629 C596 1.448 . S
C629 H606 0.930 . S
C629 C630 1.328 . S
C630 C601 1.427 . S
C630 H607 0.929 . S
C630 C629 1.328 . S
C631 O615 1.264 . S
C631 O616 1.243 . S
C632 C635 1.399 . S
C632 C636 1.383 . S
C632 C639 1.496 . S
C633 C634 1.399 . S
C633 C636 1.389 . S
C634 C633 1.399 . S
C634 C637 1.380 . S
C634 H644 0.929 . S
C635 C632 1.399 . S
C635 C637 1.392 . S
C635 H645 0.929 . S
C636 C632 1.383 . S
C636 C633 1.389 . S
C636 H646 0.931 . S
C637 C634 1.380 . S
C637 C635 1.392 . S
C637 H647 0.929 . S
C638 O618 1.266 . S
C638 O619 1.248 . S
C639 Tb575 2.802 . S
C639 O614 1.264 . S
C639 O617 1.256 . S
C639 C632 1.496 . S
H640 C623 0.929 . S
H641 C624 0.929 . S
H642 C625 0.929 . S
H643 C626 0.931 . S
H644 C634 0.929 . S
H645 C635 0.929 . S
H646 C636 0.931 . S
H647 C637 0.929 . S
Tb648 N677 2.619 . S
Tb648 N683 2.574 . S
Tb648 O692 2.468 . S
Tb648 O693 2.384 1_565 S
Tb648 O695 2.431 . S
Tb648 O696 2.307 1_565 S
Tb648 O700 2.348 1_565 S
Tb648 O703 2.390 1_565 S
Tb648 C712 2.806 . S
C649 N650 1.379 1_455 S
C649 C652 1.416 1_455 S
C649 C656 1.424 . S
N650 C649 1.379 1_655 S
N650 C653 1.334 . S
N650 Tb659 2.617 1_655 S
C651 C653 1.390 . S
C651 C654 1.339 . S
C651 H671 0.930 . S
C652 C649 1.416 1_655 S
C652 C654 1.416 . S
C652 C658 1.448 1_655 S
C653 N650 1.334 . S
C653 C651 1.390 . S
C653 H664 0.930 . S
C654 C651 1.339 . S
C654 C652 1.416 . S
C654 H675 0.930 . S
C655 C656 1.413 . S
C655 C657 1.427 . S
C655 C661 1.416 . S
C656 C649 1.424 . S
C656 C655 1.413 . S
C656 N660 1.361 . S
C657 C655 1.427 . S
C657 C658 1.328 . S
C657 H672 0.929 . S
C658 C652 1.448 1_455 S
C658 C657 1.328 . S
C658 H673 0.930 1_455 S
Tb659 N650 2.617 1_455 S
Tb659 N660 2.572 . S
Tb659 O694 2.349 . S
Tb659 O697 2.393 1_455 S
Tb659 O698 2.465 . S
Tb659 O699 2.387 . S
Tb659 O701 2.428 1_455 S
Tb659 O702 2.308 . S
Tb659 C723 2.802 . S
N660 C656 1.361 . S
N660 Tb659 2.572 . S
N660 C662 1.340 . S
C661 C655 1.416 . S
C661 C663 1.332 . S
C661 H669 0.931 . S
C662 N660 1.340 . S
C662 C663 1.407 . S
C662 H668 0.930 . S
C663 C661 1.332 . S
C663 C662 1.407 . S
C663 H665 0.929 . S
H664 C653 0.930 . S
H665 C663 0.929 . S
H666 C681 0.930 1_545 S
H667 C688 0.929 . S
H668 C662 0.930 . S
H669 C661 0.931 . S
H670 C684 0.930 . S
H671 C651 0.930 . S
H672 C657 0.929 . S
H673 C658 0.930 1_655 S
H674 C679 0.930 . S
H675 C654 0.930 . S
H676 C687 0.931 . S
N677 Tb648 2.619 . S
N677 C678 1.379 . S
N677 C681 1.334 . S
C678 N677 1.379 . S
C678 C680 1.416 . S
C678 C686 1.424 . S
C679 H674 0.930 . S
C679 C681 1.390 . S
C679 C682 1.339 . S
C680 C678 1.416 . S
C680 C682 1.416 . S
C680 C713 1.448 . S
C681 H666 0.930 1_565 S
C681 N677 1.334 . S
C681 C679 1.390 . S
C682 C679 1.339 . S
C682 C680 1.416 . S
C682 H689 0.930 . S
N683 Tb648 2.574 . S
N683 C684 1.340 1_455 S
N683 C686 1.361 . S
C684 H670 0.930 . S
C684 N683 1.340 1_655 S
C684 C688 1.407 . S
C685 C686 1.413 . S
C685 C687 1.416 1_455 S
C685 C714 1.427 . S
C686 C678 1.424 . S
C686 N683 1.361 . S
C686 C685 1.413 . S
C687 H676 0.931 . S
C687 C685 1.416 1_655 S
C687 C688 1.332 . S
C688 H667 0.929 . S
C688 C684 1.407 . S
C688 C687 1.332 . S
H689 C682 0.930 . S
H690 C713 0.930 . S
H691 C714 0.929 . S
O692 Tb648 2.468 . S
O692 C712 1.264 . S
O693 Tb648 2.384 1_545 S
O693 C704 1.264 . S
O694 Tb659 2.349 . S
O694 C704 1.243 . S
O695 Tb648 2.431 . S
O695 C712 1.256 . S
O696 Tb648 2.307 1_545 S
O696 C711 1.266 1_455 S
O697 Tb659 2.393 1_655 S
O697 C711 1.248 . S
O698 Tb659 2.465 . S
O698 C723 1.264 . S
O699 Tb659 2.387 . S
O699 C715 1.264 . S
O700 Tb648 2.348 1_545 S
O700 C715 1.243 . S
O701 Tb659 2.428 1_655 S
O701 C723 1.256 1_655 S
O702 Tb659 2.308 . S
O702 C722 1.266 . S
O703 Tb648 2.390 1_545 S
O703 C722 1.248 . S
C704 O693 1.264 . S
C704 O694 1.243 . S
C705 C708 1.399 . S
C705 C710 1.383 . S
C705 C712 1.496 . S
C706 C707 1.399 . S
C706 C710 1.389 . S
C707 C706 1.399 . S
C707 C709 1.380 . S
C707 H724 0.929 . S
C708 C705 1.399 . S
C708 C709 1.392 . S
C708 H725 0.929 . S
C709 C707 1.380 . S
C709 C708 1.392 . S
C709 H726 0.929 . S
C710 C705 1.383 . S
C710 C706 1.389 . S
C710 H727 0.931 . S
C711 O696 1.266 1_655 S
C711 O697 1.248 . S
C712 Tb648 2.806 . S
C712 O692 1.264 . S
C712 O695 1.256 . S
C712 C705 1.496 . S
C713 C680 1.448 . S
C713 H690 0.930 . S
C713 C714 1.328 . S
C714 C685 1.427 . S
C714 H691 0.929 . S
C714 C713 1.328 . S
C715 O699 1.264 . S
C715 O700 1.243 . S
C716 C719 1.399 1_455 S
C716 C720 1.383 . S
C716 C723 1.496 . S
C717 C718 1.399 1_455 S
C717 C720 1.389 . S
C718 C717 1.399 1_655 S
C718 C721 1.380 . S
C718 H728 0.929 . S
C719 C716 1.399 1_655 S
C719 C721 1.392 . S
C719 H729 0.929 . S
C720 C716 1.383 . S
C720 C717 1.389 . S
C720 H730 0.931 . S
C721 C718 1.380 . S
C721 C719 1.392 . S
C721 H731 0.929 . S
C722 O702 1.266 . S
C722 O703 1.248 . S
C723 Tb659 2.802 . S
C723 O698 1.264 . S
C723 O701 1.256 1_455 S
C723 C716 1.496 . S
H724 C707 0.929 . S
H725 C708 0.929 . S
H726 C709 0.929 . S
H727 C710 0.931 . S
H728 C718 0.929 . S
H729 C719 0.929 . S
H730 C720 0.931 . S
H731 C721 0.929 . S
Tb732 N761 2.617 . S
Tb732 N767 2.572 . S
Tb732 O776 2.465 . S
Tb732 O777 2.387 . S
Tb732 O779 2.428 . S
Tb732 O780 2.308 . S
Tb732 O784 2.349 . S
Tb732 O787 2.393 . S
Tb732 C796 2.802 . S
C733 N734 1.379 . S
C733 C736 1.416 . S
C733 C740 1.424 . S
N734 C733 1.379 . S
N734 C737 1.334 . S
N734 Tb743 2.617 . S
C735 C737 1.390 . S
C735 C738 1.339 . S
C735 H755 0.930 . S
C736 C733 1.416 . S
C736 C738 1.416 . S
C736 C742 1.448 . S
C737 N734 1.334 . S
C737 C735 1.390 . S
C737 H748 0.930 . S
C738 C735 1.339 . S
C738 C736 1.416 . S
C738 H759 0.930 . S
C739 C740 1.413 . S
C739 C741 1.427 . S
C739 C745 1.416 . S
C740 C733 1.424 . S
C740 C739 1.413 . S
C740 N744 1.361 . S
C741 C739 1.427 . S
C741 C742 1.328 . S
C741 H756 0.929 . S
C742 C736 1.448 . S
C742 C741 1.328 . S
C742 H757 0.930 . S
Tb743 N734 2.617 . S
Tb743 N744 2.572 . S
Tb743 O778 2.349 . S
Tb743 O781 2.393 . S
Tb743 O782 2.465 . S
Tb743 O783 2.387 . S
Tb743 O785 2.428 . S
Tb743 O786 2.308 . S
Tb743 C807 2.802 . S
N744 C740 1.361 . S
N744 Tb743 2.572 . S
N744 C746 1.340 . S
C745 C739 1.416 . S
C745 C747 1.332 . S
C745 H753 0.931 . S
C746 N744 1.340 . S
C746 C747 1.407 . S
C746 H752 0.930 . S
C747 C745 1.332 . S
C747 C746 1.407 . S
C747 H749 0.929 . S
H748 C737 0.930 . S
H749 C747 0.929 . S
H750 C765 0.930 . S
H751 C772 0.929 . S
H752 C746 0.930 . S
H753 C745 0.931 . S
H754 C768 0.930 . S
H755 C735 0.930 . S
H756 C741 0.929 . S
H757 C742 0.930 . S
H758 C763 0.930 . S
H759 C738 0.930 . S
H760 C771 0.931 . S
N761 Tb732 2.617 . S
N761 C762 1.379 . S
N761 C765 1.334 . S
C762 N761 1.379 . S
C762 C764 1.416 . S
C762 C770 1.424 . S
C763 H758 0.930 . S
C763 C765 1.390 . S
C763 C766 1.339 . S
C764 C762 1.416 . S
C764 C766 1.416 . S
C764 C797 1.448 . S
C765 H750 0.930 . S
C765 N761 1.334 . S
C765 C763 1.390 . S
C766 C763 1.339 . S
C766 C764 1.416 . S
C766 H773 0.930 . S
N767 Tb732 2.572 . S
N767 C768 1.340 . S
N767 C770 1.361 . S
C768 H754 0.930 . S
C768 N767 1.340 . S
C768 C772 1.407 . S
C769 C770 1.413 . S
C769 C771 1.416 . S
C769 C798 1.427 . S
C770 C762 1.424 . S
C770 N767 1.361 . S
C770 C769 1.413 . S
C771 H760 0.931 . S
C771 C769 1.416 . S
C771 C772 1.332 . S
C772 H751 0.929 . S
C772 C768 1.407 . S
C772 C771 1.332 . S
H773 C766 0.930 . S
H774 C797 0.930 . S
H775 C798 0.929 . S
O776 Tb732 2.465 . S
O776 C796 1.264 . S
O777 Tb732 2.387 . S
O777 C788 1.264 . S
O778 Tb743 2.349 . S
O778 C788 1.243 . S
O779 Tb732 2.428 . S
O779 C796 1.256 . S
O780 Tb732 2.308 . S
O780 C795 1.266 . S
O781 Tb743 2.393 . S
O781 C795 1.248 . S
O782 Tb743 2.465 . S
O782 C807 1.264 . S
O783 Tb743 2.387 . S
O783 C799 1.264 . S
O784 Tb732 2.349 . S
O784 C799 1.243 . S
O785 Tb743 2.428 . S
O785 C807 1.256 . S
O786 Tb743 2.308 . S
O786 C806 1.266 . S
O787 Tb732 2.393 . S
O787 C806 1.248 . S
C788 O777 1.264 . S
C788 O778 1.243 . S
C789 C792 1.399 . S
C789 C794 1.383 . S
C789 C796 1.496 . S
C790 C791 1.399 . S
C790 C794 1.389 . S
C791 C790 1.399 . S
C791 C793 1.380 . S
C791 H808 0.929 . S
C792 C789 1.399 . S
C792 C793 1.392 . S
C792 H809 0.929 . S
C793 C791 1.380 . S
C793 C792 1.392 . S
C793 H810 0.929 . S
C794 C789 1.383 . S
C794 C790 1.389 . S
C794 H811 0.931 . S
C795 O780 1.266 . S
C795 O781 1.248 . S
C796 Tb732 2.802 . S
C796 O776 1.264 . S
C796 O779 1.256 . S
C796 C789 1.496 . S
C797 C764 1.448 . S
C797 H774 0.930 . S
C797 C798 1.328 . S
C798 C769 1.427 . S
C798 H775 0.929 . S
C798 C797 1.328 . S
C799 O783 1.264 . S
C799 O784 1.243 . S
C800 C803 1.399 . S
C800 C804 1.383 . S
C800 C807 1.496 . S
C801 C802 1.399 . S
C801 C804 1.389 . S
C802 C801 1.399 . S
C802 C805 1.380 . S
C802 H812 0.929 . S
C803 C800 1.399 . S
C803 C805 1.392 . S
C803 H813 0.929 . S
C804 C800 1.383 . S
C804 C801 1.389 . S
C804 H814 0.931 . S
C805 C802 1.380 . S
C805 C803 1.392 . S
C805 H815 0.929 . S
C806 O786 1.266 . S
C806 O787 1.248 . S
C807 Tb743 2.802 . S
C807 O782 1.264 . S
C807 O785 1.256 . S
C807 C800 1.496 . S
H808 C791 0.929 . S
H809 C792 0.929 . S
H810 C793 0.929 . S
H811 C794 0.931 . S
H812 C802 0.929 . S
H813 C803 0.929 . S
H814 C804 0.931 . S
H815 C805 0.929 . S
Tb816 N845 2.617 . S
Tb816 N851 2.572 . S
Tb816 O860 2.465 . S
Tb816 O861 2.387 1_556 S
Tb816 O863 2.428 . S
Tb816 O864 2.308 1_556 S
Tb816 O868 2.349 1_556 S
Tb816 O871 2.393 1_556 S
Tb816 C880 2.802 . S
C817 N818 1.379 . S
C817 C820 1.416 . S
C817 C824 1.424 1_565 S
N818 C817 1.379 . S
N818 C821 1.334 . S
N818 Tb827 2.617 1_565 S
C819 C821 1.390 . S
C819 C822 1.339 . S
C819 H839 0.930 . S
C820 C817 1.416 . S
C820 C822 1.416 . S
C820 C826 1.448 . S
C821 N818 1.334 . S
C821 C819 1.390 . S
C821 H832 0.930 . S
C822 C819 1.339 . S
C822 C820 1.416 . S
C822 H843 0.930 . S
C823 C824 1.413 . S
C823 C825 1.427 . S
C823 C829 1.416 . S
C824 C817 1.424 1_545 S
C824 C823 1.413 . S
C824 N828 1.361 . S
C825 C823 1.427 . S
C825 C826 1.328 1_545 S
C825 H840 0.929 . S
C826 C820 1.448 . S
C826 C825 1.328 1_565 S
C826 H841 0.930 . S
Tb827 N818 2.617 1_545 S
Tb827 N828 2.572 . S
Tb827 O862 2.349 . S
Tb827 O865 2.393 1_545 S
Tb827 O866 2.465 . S
Tb827 O867 2.387 . S
Tb827 O869 2.428 1_545 S
Tb827 O870 2.308 . S
Tb827 C891 2.802 1_545 S
N828 C824 1.361 . S
N828 Tb827 2.572 . S
N828 C830 1.340 . S
C829 C823 1.416 . S
C829 C831 1.332 . S
C829 H837 0.931 . S
C830 N828 1.340 . S
C830 C831 1.407 . S
C830 H836 0.930 . S
C831 C829 1.332 . S
C831 C830 1.407 . S
C831 H833 0.929 . S
H832 C821 0.930 . S
H833 C831 0.929 . S
H834 C849 0.930 1_554 S
H835 C856 0.929 . S
H836 C830 0.930 . S
H837 C829 0.931 . S
H838 C852 0.930 1_565 S
H839 C819 0.930 . S
H840 C825 0.929 . S
H841 C826 0.930 . S
H842 C847 0.930 . S
H843 C822 0.930 . S
H844 C855 0.931 1_565 S
N845 Tb816 2.617 . S
N845 C846 1.379 . S
N845 C849 1.334 . S
C846 N845 1.379 . S
C846 C848 1.416 . S
C846 C854 1.424 . S
C847 H842 0.930 . S
C847 C849 1.390 . S
C847 C850 1.339 . S
C848 C846 1.416 . S
C848 C850 1.416 . S
C848 C881 1.448 . S
C849 H834 0.930 1_556 S
C849 N845 1.334 . S
C849 C847 1.390 . S
C850 C847 1.339 . S
C850 C848 1.416 . S
C850 H857 0.930 . S
N851 Tb816 2.572 . S
N851 C852 1.340 . S
N851 C854 1.361 . S
C852 H838 0.930 1_545 S
C852 N851 1.340 . S
C852 C856 1.407 1_545 S
C853 C854 1.413 . S
C853 C855 1.416 . S
C853 C882 1.427 . S
C854 C846 1.424 . S
C854 N851 1.361 . S
C854 C853 1.413 . S
C855 H844 0.931 1_545 S
C855 C853 1.416 . S
C855 C856 1.332 1_545 S
C856 H835 0.929 . S
C856 C852 1.407 1_565 S
C856 C855 1.332 1_565 S
H857 C850 0.930 . S
H858 C881 0.930 . S
H859 C882 0.929 . S
O860 Tb816 2.465 . S
O860 C880 1.264 . S
O861 Tb816 2.387 1_554 S
O861 C872 1.264 . S
O862 Tb827 2.349 . S
O862 C872 1.243 . S
O863 Tb816 2.428 . S
O863 C880 1.256 . S
O864 Tb816 2.308 1_554 S
O864 C879 1.266 1_545 S
O865 Tb827 2.393 1_565 S
O865 C879 1.248 . S
O866 Tb827 2.465 . S
O866 C891 1.264 1_545 S
O867 Tb827 2.387 . S
O867 C883 1.264 . S
O868 Tb816 2.349 1_554 S
O868 C883 1.243 . S
O869 Tb827 2.428 1_565 S
O869 C891 1.256 . S
O870 Tb827 2.308 . S
O870 C890 1.266 . S
O871 Tb816 2.393 1_554 S
O871 C890 1.248 . S
C872 O861 1.264 . S
C872 O862 1.243 . S
C873 C876 1.399 . S
C873 C878 1.383 . S
C873 C880 1.496 . S
C874 C875 1.399 . S
C874 C878 1.389 . S
C875 C874 1.399 . S
C875 C877 1.380 . S
C875 H892 0.929 . S
C876 C873 1.399 . S
C876 C877 1.392 . S
C876 H893 0.929 . S
C877 C875 1.380 . S
C877 C876 1.392 . S
C877 H894 0.929 . S
C878 C873 1.383 . S
C878 C874 1.389 . S
C878 H895 0.931 . S
C879 O864 1.266 1_565 S
C879 O865 1.248 . S
C880 Tb816 2.802 . S
C880 O860 1.264 . S
C880 O863 1.256 . S
C880 C873 1.496 . S
C881 C848 1.448 . S
C881 H858 0.930 . S
C881 C882 1.328 . S
C882 C853 1.427 . S
C882 H859 0.929 . S
C882 C881 1.328 . S
C883 O867 1.264 . S
C883 O868 1.243 . S
C884 C887 1.399 . S
C884 C888 1.383 1_565 S
C884 C891 1.496 . S
C885 C886 1.341 1_545 S
C885 C888 1.405 . S
C886 C885 1.341 1_565 S
C886 C889 1.380 . S
C886 H896 0.929 . S
C887 C884 1.399 . S
C887 C889 1.392 . S
C887 H897 0.929 . S
C888 C884 1.383 1_545 S
C888 C885 1.405 . S
C888 H898 0.931 . S
C889 C886 1.380 . S
C889 C887 1.392 . S
C889 H899 0.929 . S
C890 O870 1.266 . S
C890 O871 1.248 . S
C891 Tb827 2.802 1_565 S
C891 O866 1.264 1_565 S
C891 O869 1.256 . S
C891 C884 1.496 . S
H892 C875 0.929 . S
H893 C876 0.929 . S
H894 C877 0.929 . S
H895 C878 0.931 . S
H896 C886 0.929 . S
H897 C887 0.929 . S
H898 C888 0.931 . S
H899 C889 0.929 . S
Tb900 N929 2.617 . S
Tb900 N935 2.572 . S
Tb900 O944 2.465 . S
Tb900 O945 2.387 . S
Tb900 O947 2.428 . S
Tb900 O948 2.308 . S
Tb900 O952 2.349 . S
Tb900 O955 2.393 . S
Tb900 C964 2.802 . S
C901 N902 1.379 . S
C901 C904 1.416 . S
C901 C908 1.424 . S
N902 C901 1.379 . S
N902 C905 1.334 . S
N902 Tb911 2.617 . S
C903 C905 1.390 . S
C903 C906 1.339 . S
C903 H923 0.930 . S
C904 C901 1.416 . S
C904 C906 1.416 . S
C904 C910 1.448 . S
C905 N902 1.334 . S
C905 C903 1.390 . S
C905 H916 0.930 . S
C906 C903 1.339 . S
C906 C904 1.416 . S
C906 H927 0.930 . S
C907 C908 1.413 . S
C907 C909 1.427 . S
C907 C913 1.416 . S
C908 C901 1.424 . S
C908 C907 1.413 . S
C908 N912 1.361 . S
C909 C907 1.427 . S
C909 C910 1.328 . S
C909 H924 0.929 . S
C910 C904 1.448 . S
C910 C909 1.328 . S
C910 H925 0.930 . S
Tb911 N902 2.617 . S
Tb911 N912 2.572 . S
Tb911 O946 2.349 . S
Tb911 O949 2.393 . S
Tb911 O950 2.465 . S
Tb911 O951 2.387 . S
Tb911 O953 2.428 . S
Tb911 O954 2.308 . S
Tb911 C975 2.802 . S
N912 C908 1.361 . S
N912 Tb911 2.572 . S
N912 C914 1.340 . S
C913 C907 1.416 . S
C913 C915 1.332 . S
C913 H921 0.931 . S
C914 N912 1.340 . S
C914 C915 1.407 . S
C914 H920 0.930 . S
C915 C913 1.332 . S
C915 C914 1.407 . S
C915 H917 0.929 . S
H916 C905 0.930 . S
H917 C915 0.929 . S
H918 C933 0.930 . S
H919 C940 0.929 . S
H920 C914 0.930 . S
H921 C913 0.931 . S
H922 C936 0.930 . S
H923 C903 0.930 . S
H924 C909 0.929 . S
H925 C910 0.930 . S
H926 C931 0.930 . S
H927 C906 0.930 . S
H928 C939 0.931 . S
N929 Tb900 2.617 . S
N929 C930 1.379 . S
N929 C933 1.334 . S
C930 N929 1.379 . S
C930 C932 1.416 . S
C930 C938 1.424 . S
C931 H926 0.930 . S
C931 C933 1.390 . S
C931 C934 1.339 . S
C932 C930 1.416 . S
C932 C934 1.416 . S
C932 C965 1.448 . S
C933 H918 0.930 . S
C933 N929 1.334 . S
C933 C931 1.390 . S
C934 C931 1.339 . S
C934 C932 1.416 . S
C934 H941 0.930 . S
N935 Tb900 2.572 . S
N935 C936 1.340 . S
N935 C938 1.361 . S
C936 H922 0.930 . S
C936 N935 1.340 . S
C936 C940 1.407 . S
C937 C938 1.413 . S
C937 C939 1.416 . S
C937 C966 1.427 . S
C938 C930 1.424 . S
C938 N935 1.361 . S
C938 C937 1.413 . S
C939 H928 0.931 . S
C939 C937 1.416 . S
C939 C940 1.332 . S
C940 H919 0.929 . S
C940 C936 1.407 . S
C940 C939 1.332 . S
H941 C934 0.930 . S
H942 C965 0.930 . S
H943 C966 0.929 . S
O944 Tb900 2.465 . S
O944 C964 1.264 . S
O945 Tb900 2.387 . S
O945 C956 1.264 . S
O946 Tb911 2.349 . S
O946 C956 1.243 . S
O947 Tb900 2.428 . S
O947 C964 1.256 . S
O948 Tb900 2.308 . S
O948 C963 1.266 . S
O949 Tb911 2.393 . S
O949 C963 1.248 . S
O950 Tb911 2.465 . S
O950 C975 1.264 . S
O951 Tb911 2.387 . S
O951 C967 1.264 . S
O952 Tb900 2.349 . S
O952 C967 1.243 . S
O953 Tb911 2.428 . S
O953 C975 1.256 . S
O954 Tb911 2.308 . S
O954 C974 1.266 . S
O955 Tb900 2.393 . S
O955 C974 1.248 . S
C956 O945 1.264 . S
C956 O946 1.243 . S
C957 C960 1.399 . S
C957 C962 1.383 . S
C957 C964 1.496 . S
C958 C959 1.399 . S
C958 C962 1.389 . S
C959 C958 1.399 . S
C959 C961 1.380 . S
C959 H976 0.929 . S
C960 C957 1.399 . S
C960 C961 1.392 . S
C960 H977 0.929 . S
C961 C959 1.380 . S
C961 C960 1.392 . S
C961 H978 0.929 . S
C962 C957 1.383 . S
C962 C958 1.389 . S
C962 H979 0.931 . S
C963 O948 1.266 . S
C963 O949 1.248 . S
C964 Tb900 2.802 . S
C964 O944 1.264 . S
C964 O947 1.256 . S
C964 C957 1.496 . S
C965 C932 1.448 . S
C965 H942 0.930 . S
C965 C966 1.328 . S
C966 C937 1.427 . S
C966 H943 0.929 . S
C966 C965 1.328 . S
C967 O951 1.264 . S
C967 O952 1.243 . S
C968 C971 1.399 . S
C968 C972 1.383 . S
C968 C975 1.496 . S
C969 C970 1.399 . S
C969 C972 1.389 . S
C970 C969 1.399 . S
C970 C973 1.380 . S
C970 H980 0.929 . S
C971 C968 1.399 . S
C971 C973 1.392 . S
C971 H981 0.929 . S
C972 C968 1.383 . S
C972 C969 1.389 . S
C972 H982 0.931 . S
C973 C970 1.380 . S
C973 C971 1.392 . S
C973 H983 0.929 . S
C974 O954 1.266 . S
C974 O955 1.248 . S
C975 Tb911 2.802 . S
C975 O950 1.264 . S
C975 O953 1.256 . S
C975 C968 1.496 . S
H976 C959 0.929 . S
H977 C960 0.929 . S
H978 C961 0.929 . S
H979 C962 0.931 . S
H980 C970 0.929 . S
H981 C971 0.929 . S
H982 C972 0.931 . S
H983 C973 0.929 . S
Tb984 N1013 2.617 1_554 S
Tb984 N1019 2.572 1_554 S
Tb984 O1028 2.465 . S
Tb984 O1029 2.387 1_554 S
Tb984 O1031 2.428 . S
Tb984 O1032 2.308 . S
Tb984 O1036 2.349 . S
Tb984 O1039 2.393 . S
Tb984 C1048 2.802 . S
C985 N986 1.379 . S
C985 C988 1.416 . S
C985 C992 1.424 . S
N986 C985 1.379 . S
N986 C989 1.334 . S
N986 Tb995 2.617 . S
C987 C989 1.390 . S
C987 C990 1.339 . S
C987 H1007 0.930 . S
C988 C985 1.416 . S
C988 C990 1.416 . S
C988 C994 1.448 . S
C989 N986 1.334 . S
C989 C987 1.390 . S
C989 H1000 0.930 . S
C990 C987 1.339 . S
C990 C988 1.416 . S
C990 H1011 0.930 . S
C991 C992 1.413 . S
C991 C993 1.427 . S
C991 C997 1.416 . S
C992 C985 1.424 . S
C992 C991 1.413 . S
C992 N996 1.361 . S
C993 C991 1.427 . S
C993 C994 1.328 . S
C993 H1008 0.929 . S
C994 C988 1.448 . S
C994 C993 1.328 . S
C994 H1009 0.930 . S
Tb995 N986 2.617 . S
Tb995 N996 2.572 . S
Tb995 O1030 2.349 1_554 S
Tb995 O1033 2.393 . S
Tb995 O1034 2.465 . S
Tb995 O1035 2.387 . S
Tb995 O1037 2.428 . S
Tb995 O1038 2.308 . S
Tb995 C1059 2.802 . S
N996 C992 1.361 . S
N996 Tb995 2.572 . S
N996 C998 1.340 . S
C997 C991 1.416 . S
C997 C999 1.332 . S
C997 H1005 0.931 . S
C998 N996 1.340 . S
C998 C999 1.407 . S
C998 H1004 0.930 . S
C999 C997 1.332 . S
C999 C998 1.407 . S
C999 H1001 0.929 . S
H1000 C989 0.930 . S
H1001 C999 0.929 . S
H1002 C1017 0.930 1_554 S
H1003 C1024 0.929 . S
H1004 C998 0.930 . S
H1005 C997 0.931 . S
H1006 C1020 0.930 1_554 S
H1007 C987 0.930 . S
H1008 C993 0.929 . S
H1009 C994 0.930 . S
H1010 C1015 0.930 . S
H1011 C990 0.930 . S
H1012 C1023 0.931 . S
N1013 Tb984 2.617 1_556 S
N1013 C1014 1.379 . S
N1013 C1017 1.334 . S
C1014 N1013 1.379 . S
C1014 C1016 1.416 . S
C1014 C1022 1.424 . S
C1015 H1010 0.930 . S
C1015 C1017 1.390 . S
C1015 C1018 1.339 . S
C1016 C1014 1.416 . S
C1016 C1018 1.416 . S
C1016 C1049 1.448 . S
C1017 H1002 0.930 1_556 S
C1017 N1013 1.334 . S
C1017 C1015 1.390 . S
C1018 C1015 1.339 . S
C1018 C1016 1.416 . S
C1018 H1025 0.930 . S
N1019 Tb984 2.572 1_556 S
N1019 C1020 1.340 . S
N1019 C1022 1.361 . S
C1020 H1006 0.930 1_556 S
C1020 N1019 1.340 . S
C1020 C1024 1.407 . S
C1021 C1022 1.413 . S
C1021 C1023 1.416 . S
C1021 C1050 1.427 . S
C1022 C1014 1.424 . S
C1022 N1019 1.361 . S
C1022 C1021 1.413 . S
C1023 H1012 0.931 . S
C1023 C1021 1.416 . S
C1023 C1024 1.332 . S
C1024 H1003 0.929 . S
C1024 C1020 1.407 . S
C1024 C1023 1.332 . S
H1025 C1018 0.930 . S
H1026 C1049 0.930 . S
H1027 C1050 0.929 . S
O1028 Tb984 2.465 . S
O1028 C1048 1.264 . S
O1029 Tb984 2.387 1_556 S
O1029 C1040 1.264 . S
O1030 Tb995 2.349 1_556 S
O1030 C1040 1.243 . S
O1031 Tb984 2.428 . S
O1031 C1048 1.256 . S
O1032 Tb984 2.308 . S
O1032 C1047 1.266 . S
O1033 Tb995 2.393 . S
O1033 C1047 1.248 . S
O1034 Tb995 2.465 . S
O1034 C1059 1.264 . S
O1035 Tb995 2.387 . S
O1035 C1051 1.264 . S
O1036 Tb984 2.349 . S
O1036 C1051 1.243 . S
O1037 Tb995 2.428 . S
O1037 C1059 1.256 . S
O1038 Tb995 2.308 . S
O1038 C1058 1.266 . S
O1039 Tb984 2.393 . S
O1039 C1058 1.248 . S
C1040 O1029 1.264 . S
C1040 O1030 1.243 . S
C1041 C1044 1.399 . S
C1041 C1046 1.383 . S
C1041 C1048 1.496 . S
C1042 C1043 1.399 . S
C1042 C1046 1.389 . S
C1043 C1042 1.399 . S
C1043 C1045 1.380 . S
C1043 H1060 0.929 . S
C1044 C1041 1.399 . S
C1044 C1045 1.392 . S
C1044 H1061 0.929 . S
C1045 C1043 1.380 . S
C1045 C1044 1.392 . S
C1045 H1062 0.929 . S
C1046 C1041 1.383 . S
C1046 C1042 1.389 . S
C1046 H1063 0.931 . S
C1047 O1032 1.266 . S
C1047 O1033 1.248 . S
C1048 Tb984 2.802 . S
C1048 O1028 1.264 . S
C1048 O1031 1.256 . S
C1048 C1041 1.496 . S
C1049 C1016 1.448 . S
C1049 H1026 0.930 . S
C1049 C1050 1.328 . S
C1050 C1021 1.427 . S
C1050 H1027 0.929 . S
C1050 C1049 1.328 . S
C1051 O1035 1.264 . S
C1051 O1036 1.243 . S
C1052 C1055 1.399 . S
C1052 C1056 1.383 . S
C1052 C1059 1.496 1_556 S
C1053 C1054 1.399 . S
C1053 C1056 1.389 . S
C1054 C1053 1.399 . S
C1054 C1057 1.380 . S
C1054 H1064 0.929 . S
C1055 C1052 1.399 . S
C1055 C1057 1.392 . S
C1055 H1065 0.929 1_556 S
C1056 C1052 1.383 . S
C1056 C1053 1.389 . S
C1056 H1066 0.931 . S
C1057 C1054 1.380 . S
C1057 C1055 1.392 . S
C1057 H1067 0.929 . S
C1058 O1038 1.266 . S
C1058 O1039 1.248 . S
C1059 Tb995 2.802 . S
C1059 O1034 1.264 . S
C1059 O1037 1.256 . S
C1059 C1052 1.496 1_554 S
H1060 C1043 0.929 . S
H1061 C1044 0.929 . S
H1062 C1045 0.929 . S
H1063 C1046 0.931 . S
H1064 C1054 0.929 . S
H1065 C1055 0.929 1_554 S
H1066 C1056 0.931 . S
H1067 C1057 0.929 . S
Tb1068 N1097 2.617 . S
Tb1068 N1103 2.572 . S
Tb1068 O1112 2.465 . S
Tb1068 O1113 2.387 . S
Tb1068 O1115 2.428 . S
Tb1068 O1116 2.308 . S
Tb1068 O1120 2.349 . S
Tb1068 O1123 2.393 . S
Tb1068 C1132 2.802 . S
C1069 N1070 1.379 . S
C1069 C1072 1.416 . S
C1069 C1076 1.424 . S
N1070 C1069 1.379 . S
N1070 C1073 1.334 . S
N1070 Tb1079 2.617 . S
C1071 C1073 1.390 . S
C1071 C1074 1.339 . S
C1071 H1091 0.930 . S
C1072 C1069 1.416 . S
C1072 C1074 1.416 . S
C1072 C1078 1.448 . S
C1073 N1070 1.334 . S
C1073 C1071 1.390 . S
C1073 H1084 0.930 . S
C1074 C1071 1.339 . S
C1074 C1072 1.416 . S
C1074 H1095 0.930 . S
C1075 C1076 1.413 . S
C1075 C1077 1.427 . S
C1075 C1081 1.416 . S
C1076 C1069 1.424 . S
C1076 C1075 1.413 . S
C1076 N1080 1.361 . S
C1077 C1075 1.427 . S
C1077 C1078 1.328 . S
C1077 H1092 0.929 . S
C1078 C1072 1.448 . S
C1078 C1077 1.328 . S
C1078 H1093 0.930 . S
Tb1079 N1070 2.617 . S
Tb1079 N1080 2.572 . S
Tb1079 O1114 2.349 . S
Tb1079 O1117 2.393 . S
Tb1079 O1118 2.465 . S
Tb1079 O1119 2.387 . S
Tb1079 O1121 2.428 . S
Tb1079 O1122 2.308 . S
Tb1079 C1143 2.802 . S
N1080 C1076 1.361 . S
N1080 Tb1079 2.572 . S
N1080 C1082 1.340 . S
C1081 C1075 1.416 . S
C1081 C1083 1.332 . S
C1081 H1089 0.931 . S
C1082 N1080 1.340 . S
C1082 C1083 1.407 . S
C1082 H1088 0.930 . S
C1083 C1081 1.332 . S
C1083 C1082 1.407 . S
C1083 H1085 0.929 . S
H1084 C1073 0.930 . S
H1085 C1083 0.929 . S
H1086 C1101 0.930 . S
H1087 C1108 0.929 . S
H1088 C1082 0.930 . S
H1089 C1081 0.931 . S
H1090 C1104 0.930 . S
H1091 C1071 0.930 . S
H1092 C1077 0.929 . S
H1093 C1078 0.930 . S
H1094 C1099 0.930 . S
H1095 C1074 0.930 . S
H1096 C1107 0.931 . S
N1097 Tb1068 2.617 . S
N1097 C1098 1.379 . S
N1097 C1101 1.334 . S
C1098 N1097 1.379 . S
C1098 C1100 1.416 . S
C1098 C1106 1.424 . S
C1099 H1094 0.930 . S
C1099 C1101 1.390 . S
C1099 C1102 1.339 . S
C1100 C1098 1.416 . S
C1100 C1102 1.416 . S
C1100 C1133 1.448 . S
C1101 H1086 0.930 . S
C1101 N1097 1.334 . S
C1101 C1099 1.390 . S
C1102 C1099 1.339 . S
C1102 C1100 1.416 . S
C1102 H1109 0.930 . S
N1103 Tb1068 2.572 . S
N1103 C1104 1.340 . S
N1103 C1106 1.361 . S
C1104 H1090 0.930 . S
C1104 N1103 1.340 . S
C1104 C1108 1.407 . S
C1105 C1106 1.413 . S
C1105 C1107 1.416 . S
C1105 C1134 1.427 . S
C1106 C1098 1.424 . S
C1106 N1103 1.361 . S
C1106 C1105 1.413 . S
C1107 H1096 0.931 . S
C1107 C1105 1.416 . S
C1107 C1108 1.332 . S
C1108 H1087 0.929 . S
C1108 C1104 1.407 . S
C1108 C1107 1.332 . S
H1109 C1102 0.930 . S
H1110 C1133 0.930 . S
H1111 C1134 0.929 . S
O1112 Tb1068 2.465 . S
O1112 C1132 1.264 . S
O1113 Tb1068 2.387 . S
O1113 C1124 1.264 . S
O1114 Tb1079 2.349 . S
O1114 C1124 1.243 . S
O1115 Tb1068 2.428 . S
O1115 C1132 1.256 . S
O1116 Tb1068 2.308 . S
O1116 C1131 1.266 . S
O1117 Tb1079 2.393 . S
O1117 C1131 1.248 . S
O1118 Tb1079 2.465 . S
O1118 C1143 1.264 . S
O1119 Tb1079 2.387 . S
O1119 C1135 1.264 . S
O1120 Tb1068 2.349 . S
O1120 C1135 1.243 . S
O1121 Tb1079 2.428 . S
O1121 C1143 1.256 . S
O1122 Tb1079 2.308 . S
O1122 C1142 1.266 . S
O1123 Tb1068 2.393 . S
O1123 C1142 1.248 . S
C1124 O1113 1.264 . S
C1124 O1114 1.243 . S
C1125 C1128 1.399 . S
C1125 C1130 1.383 . S
C1125 C1132 1.496 . S
C1126 C1127 1.399 . S
C1126 C1130 1.389 . S
C1127 C1126 1.399 . S
C1127 C1129 1.380 . S
C1127 H1144 0.929 . S
C1128 C1125 1.399 . S
C1128 C1129 1.392 . S
C1128 H1145 0.929 . S
C1129 C1127 1.380 . S
C1129 C1128 1.392 . S
C1129 H1146 0.929 . S
C1130 C1125 1.383 . S
C1130 C1126 1.389 . S
C1130 H1147 0.931 . S
C1131 O1116 1.266 . S
C1131 O1117 1.248 . S
C1132 Tb1068 2.802 . S
C1132 O1112 1.264 . S
C1132 O1115 1.256 . S
C1132 C1125 1.496 . S
C1133 C1100 1.448 . S
C1133 H1110 0.930 . S
C1133 C1134 1.328 . S
C1134 C1105 1.427 . S
C1134 H1111 0.929 . S
C1134 C1133 1.328 . S
C1135 O1119 1.264 . S
C1135 O1120 1.243 . S
C1136 C1139 1.399 . S
C1136 C1140 1.383 . S
C1136 C1143 1.496 . S
C1137 C1138 1.399 . S
C1137 C1140 1.389 . S
C1138 C1137 1.399 . S
C1138 C1141 1.380 . S
C1138 H1148 0.929 . S
C1139 C1136 1.399 . S
C1139 C1141 1.392 . S
C1139 H1149 0.929 . S
C1140 C1136 1.383 . S
C1140 C1137 1.389 . S
C1140 H1150 0.931 . S
C1141 C1138 1.380 . S
C1141 C1139 1.392 . S
C1141 H1151 0.929 . S
C1142 O1122 1.266 . S
C1142 O1123 1.248 . S
C1143 Tb1079 2.802 . S
C1143 O1118 1.264 . S
C1143 O1121 1.256 . S
C1143 C1136 1.496 . S
H1144 C1127 0.929 . S
H1145 C1128 0.929 . S
H1146 C1129 0.929 . S
H1147 C1130 0.931 . S
H1148 C1138 0.929 . S
H1149 C1139 0.929 . S
H1150 C1140 0.931 . S
H1151 C1141 0.929 . S
Tb1152 N1181 2.617 . S
Tb1152 N1187 2.549 1_455 S
Tb1152 O1196 2.465 . S
Tb1152 O1197 2.387 1_455 S
Tb1152 O1199 2.428 . S
Tb1152 O1200 2.308 . S
Tb1152 O1204 2.349 . S
Tb1152 O1207 2.393 . S
Tb1152 C1216 2.802 . S
C1153 N1154 1.379 . S
C1153 C1156 1.416 . S
C1153 C1160 1.424 . S
N1154 C1153 1.379 . S
N1154 C1157 1.334 . S
N1154 Tb1163 2.617 . S
C1155 C1157 1.390 . S
C1155 C1158 1.339 . S
C1155 H1175 0.930 . S
C1156 C1153 1.416 . S
C1156 C1158 1.416 . S
C1156 C1162 1.448 . S
C1157 N1154 1.334 . S
C1157 C1155 1.390 . S
C1157 H1168 0.930 . S
C1158 C1155 1.339 . S
C1158 C1156 1.416 . S
C1158 H1179 0.930 . S
C1159 C1160 1.413 . S
C1159 C1161 1.427 . S
C1159 C1165 1.416 . S
C1160 C1153 1.424 . S
C1160 C1159 1.413 . S
C1160 N1164 1.361 . S
C1161 C1159 1.427 . S
C1161 C1162 1.328 . S
C1161 H1176 0.929 . S
C1162 C1156 1.448 . S
C1162 C1161 1.328 . S
C1162 H1177 0.930 . S
Tb1163 N1154 2.617 . S
Tb1163 N1164 2.572 . S
Tb1163 O1198 2.287 1_455 S
Tb1163 O1201 2.393 . S
Tb1163 O1202 2.465 . S
Tb1163 O1203 2.387 . S
Tb1163 O1205 2.428 . S
Tb1163 O1206 2.308 . S
Tb1163 C1227 2.802 . S
N1164 C1160 1.361 . S
N1164 Tb1163 2.572 . S
N1164 C1166 1.340 . S
C1165 C1159 1.416 . S
C1165 C1167 1.332 . S
C1165 H1173 0.931 . S
C1166 N1164 1.340 . S
C1166 C1167 1.407 . S
C1166 H1172 0.930 . S
C1167 C1165 1.332 . S
C1167 C1166 1.407 . S
C1167 H1169 0.929 . S
H1168 C1157 0.930 . S
H1169 C1167 0.929 . S
H1170 C1185 0.930 . S
H1171 C1192 0.929 . S
H1172 C1166 0.930 . S
H1173 C1165 0.931 . S
H1174 C1188 0.930 1_455 S
H1175 C1155 0.930 . S
H1176 C1161 0.929 . S
H1177 C1162 0.930 . S
H1178 C1183 0.930 . S
H1179 C1158 0.930 . S
H1180 C1191 0.931 . S
N1181 Tb1152 2.617 . S
N1181 C1182 1.379 1_455 S
N1181 C1185 1.334 . S
C1182 N1181 1.379 1_655 S
C1182 C1184 1.416 . S
C1182 C1190 1.424 . S
C1183 H1178 0.930 . S
C1183 C1185 1.390 1_655 S
C1183 C1186 1.339 . S
C1184 C1182 1.416 . S
C1184 C1186 1.416 . S
C1184 C1217 1.448 . S
C1185 H1170 0.930 . S
C1185 N1181 1.334 . S
C1185 C1183 1.390 1_455 S
C1186 C1183 1.339 . S
C1186 C1184 1.416 . S
C1186 H1193 0.930 . S
N1187 Tb1152 2.549 1_655 S
N1187 C1188 1.335 . S
N1187 C1190 1.395 . S
C1188 H1174 0.930 1_655 S
C1188 N1187 1.335 . S
C1188 C1192 1.407 . S
C1189 C1190 1.413 . S
C1189 C1191 1.416 . S
C1189 C1218 1.427 . S
C1190 C1182 1.424 . S
C1190 N1187 1.395 . S
C1190 C1189 1.413 . S
C1191 H1180 0.931 . S
C1191 C1189 1.416 . S
C1191 C1192 1.332 . S
C1192 H1171 0.929 . S
C1192 C1188 1.407 . S
C1192 C1191 1.332 . S
H1193 C1186 0.930 . S
H1194 C1217 0.930 . S
H1195 C1218 0.929 . S
O1196 Tb1152 2.465 . S
O1196 C1216 1.264 . S
O1197 Tb1152 2.387 1_655 S
O1197 C1208 1.264 . S
O1198 Tb1163 2.287 1_655 S
O1198 C1208 1.281 . S
O1199 Tb1152 2.428 . S
O1199 C1216 1.256 . S
O1200 Tb1152 2.308 . S
O1200 C1215 1.266 . S
O1201 Tb1163 2.393 . S
O1201 C1215 1.248 . S
O1202 Tb1163 2.465 . S
O1202 C1227 1.264 . S
O1203 Tb1163 2.387 . S
O1203 C1219 1.264 . S
O1204 Tb1152 2.349 . S
O1204 C1219 1.243 . S
O1205 Tb1163 2.428 . S
O1205 C1227 1.256 . S
O1206 Tb1163 2.308 . S
O1206 C1226 1.266 . S
O1207 Tb1152 2.393 . S
O1207 C1226 1.248 . S
C1208 O1197 1.264 . S
C1208 O1198 1.281 . S
C1209 C1212 1.399 . S
C1209 C1214 1.383 . S
C1209 C1216 1.496 . S
C1210 C1211 1.399 . S
C1210 C1214 1.389 . S
C1211 C1210 1.399 . S
C1211 C1213 1.380 . S
C1211 H1228 0.929 . S
C1212 C1209 1.399 . S
C1212 C1213 1.392 . S
C1212 H1229 0.929 . S
C1213 C1211 1.380 . S
C1213 C1212 1.392 . S
C1213 H1230 0.929 . S
C1214 C1209 1.383 . S
C1214 C1210 1.389 . S
C1214 H1231 0.931 . S
C1215 O1200 1.266 . S
C1215 O1201 1.248 . S
C1216 Tb1152 2.802 . S
C1216 O1196 1.264 . S
C1216 O1199 1.256 . S
C1216 C1209 1.496 . S
C1217 C1184 1.448 . S
C1217 H1194 0.930 . S
C1217 C1218 1.328 . S
C1218 C1189 1.427 . S
C1218 H1195 0.929 . S
C1218 C1217 1.328 . S
C1219 O1203 1.264 . S
C1219 O1204 1.243 . S
C1220 C1223 1.399 . S
C1220 C1224 1.383 . S
C1220 C1227 1.496 1_655 S
C1221 C1222 1.399 . S
C1221 C1224 1.389 . S
C1222 C1221 1.399 . S
C1222 C1225 1.380 . S
C1222 H1232 0.929 . S
C1223 C1220 1.399 . S
C1223 C1225 1.392 . S
C1223 H1233 0.929 . S
C1224 C1220 1.383 . S
C1224 C1221 1.389 . S
C1224 H1234 0.931 . S
C1225 C1222 1.380 . S
C1225 C1223 1.392 . S
C1225 H1235 0.929 . S
C1226 O1206 1.266 . S
C1226 O1207 1.248 . S
C1227 Tb1163 2.802 . S
C1227 O1202 1.264 . S
C1227 O1205 1.256 . S
C1227 C1220 1.496 1_455 S
H1228 C1211 0.929 . S
H1229 C1212 0.929 . S
H1230 C1213 0.929 . S
H1231 C1214 0.931 . S
H1232 C1222 0.929 . S
H1233 C1223 0.929 . S
H1234 C1224 0.931 . S
H1235 C1225 0.929 . S
Tb1236 N1265 2.617 . S
Tb1236 N1271 2.572 . S
Tb1236 O1280 2.465 . S
Tb1236 O1281 2.387 . S
Tb1236 O1283 2.428 . S
Tb1236 O1284 2.308 . S
Tb1236 O1288 2.349 . S
Tb1236 O1291 2.393 . S
Tb1236 C1300 2.802 . S
C1237 N1238 1.379 . S
C1237 C1240 1.416 . S
C1237 C1244 1.424 . S
N1238 C1237 1.379 . S
N1238 C1241 1.334 . S
N1238 Tb1247 2.617 . S
C1239 C1241 1.390 . S
C1239 C1242 1.339 . S
C1239 H1259 0.930 . S
C1240 C1237 1.416 . S
C1240 C1242 1.416 . S
C1240 C1246 1.448 . S
C1241 N1238 1.334 . S
C1241 C1239 1.390 . S
C1241 H1252 0.930 . S
C1242 C1239 1.339 . S
C1242 C1240 1.416 . S
C1242 H1263 0.930 . S
C1243 C1244 1.413 . S
C1243 C1245 1.427 . S
C1243 C1249 1.416 . S
C1244 C1237 1.424 . S
C1244 C1243 1.413 . S
C1244 N1248 1.361 . S
C1245 C1243 1.427 . S
C1245 C1246 1.328 . S
C1245 H1260 0.929 . S
C1246 C1240 1.448 . S
C1246 C1245 1.328 . S
C1246 H1261 0.930 . S
Tb1247 N1238 2.617 . S
Tb1247 N1248 2.572 . S
Tb1247 O1282 2.349 . S
Tb1247 O1285 2.393 . S
Tb1247 O1286 2.465 . S
Tb1247 O1287 2.387 . S
Tb1247 O1289 2.428 . S
Tb1247 O1290 2.308 . S
Tb1247 C1311 2.802 . S
N1248 C1244 1.361 . S
N1248 Tb1247 2.572 . S
N1248 C1250 1.340 . S
C1249 C1243 1.416 . S
C1249 C1251 1.332 . S
C1249 H1257 0.931 . S
C1250 N1248 1.340 . S
C1250 C1251 1.407 . S
C1250 H1256 0.930 . S
C1251 C1249 1.332 . S
C1251 C1250 1.407 . S
C1251 H1253 0.929 . S
H1252 C1241 0.930 . S
H1253 C1251 0.929 . S
H1254 C1269 0.930 . S
H1255 C1276 0.929 . S
H1256 C1250 0.930 . S
H1257 C1249 0.931 . S
H1258 C1272 0.930 . S
H1259 C1239 0.930 . S
H1260 C1245 0.929 . S
H1261 C1246 0.930 . S
H1262 C1267 0.930 . S
H1263 C1242 0.930 . S
H1264 C1275 0.931 . S
N1265 Tb1236 2.617 . S
N1265 C1266 1.379 . S
N1265 C1269 1.334 . S
C1266 N1265 1.379 . S
C1266 C1268 1.416 . S
C1266 C1274 1.424 . S
C1267 H1262 0.930 . S
C1267 C1269 1.390 . S
C1267 C1270 1.339 . S
C1268 C1266 1.416 . S
C1268 C1270 1.416 . S
C1268 C1301 1.448 . S
C1269 H1254 0.930 . S
C1269 N1265 1.334 . S
C1269 C1267 1.390 . S
C1270 C1267 1.339 . S
C1270 C1268 1.416 . S
C1270 H1277 0.930 . S
N1271 Tb1236 2.572 . S
N1271 C1272 1.340 . S
N1271 C1274 1.361 . S
C1272 H1258 0.930 . S
C1272 N1271 1.340 . S
C1272 C1276 1.407 . S
C1273 C1274 1.413 . S
C1273 C1275 1.416 . S
C1273 C1302 1.427 . S
C1274 C1266 1.424 . S
C1274 N1271 1.361 . S
C1274 C1273 1.413 . S
C1275 H1264 0.931 . S
C1275 C1273 1.416 . S
C1275 C1276 1.332 . S
C1276 H1255 0.929 . S
C1276 C1272 1.407 . S
C1276 C1275 1.332 . S
H1277 C1270 0.930 . S
H1278 C1301 0.930 . S
H1279 C1302 0.929 . S
O1280 Tb1236 2.465 . S
O1280 C1300 1.264 . S
O1281 Tb1236 2.387 . S
O1281 C1292 1.264 . S
O1282 Tb1247 2.349 . S
O1282 C1292 1.243 . S
O1283 Tb1236 2.428 . S
O1283 C1300 1.256 . S
O1284 Tb1236 2.308 . S
O1284 C1299 1.266 . S
O1285 Tb1247 2.393 . S
O1285 C1299 1.248 . S
O1286 Tb1247 2.465 . S
O1286 C1311 1.264 . S
O1287 Tb1247 2.387 . S
O1287 C1303 1.264 . S
O1288 Tb1236 2.349 . S
O1288 C1303 1.243 . S
O1289 Tb1247 2.428 . S
O1289 C1311 1.256 . S
O1290 Tb1247 2.308 . S
O1290 C1310 1.266 . S
O1291 Tb1236 2.393 . S
O1291 C1310 1.248 . S
C1292 O1281 1.264 . S
C1292 O1282 1.243 . S
C1293 C1296 1.399 . S
C1293 C1298 1.383 . S
C1293 C1300 1.496 . S
C1294 C1295 1.399 . S
C1294 C1298 1.389 . S
C1295 C1294 1.399 . S
C1295 C1297 1.380 . S
C1295 H1312 0.929 . S
C1296 C1293 1.399 . S
C1296 C1297 1.392 . S
C1296 H1313 0.929 . S
C1297 C1295 1.380 . S
C1297 C1296 1.392 . S
C1297 H1314 0.929 . S
C1298 C1293 1.383 . S
C1298 C1294 1.389 . S
C1298 H1315 0.931 . S
C1299 O1284 1.266 . S
C1299 O1285 1.248 . S
C1300 Tb1236 2.802 . S
C1300 O1280 1.264 . S
C1300 O1283 1.256 . S
C1300 C1293 1.496 . S
C1301 C1268 1.448 . S
C1301 H1278 0.930 . S
C1301 C1302 1.328 . S
C1302 C1273 1.427 . S
C1302 H1279 0.929 . S
C1302 C1301 1.328 . S
C1303 O1287 1.264 . S
C1303 O1288 1.243 . S
C1304 C1307 1.399 . S
C1304 C1308 1.383 . S
C1304 C1311 1.496 . S
C1305 C1306 1.399 . S
C1305 C1308 1.389 . S
C1306 C1305 1.399 . S
C1306 C1309 1.380 . S
C1306 H1316 0.929 . S
C1307 C1304 1.399 . S
C1307 C1309 1.392 . S
C1307 H1317 0.929 . S
C1308 C1304 1.383 . S
C1308 C1305 1.389 . S
C1308 H1318 0.931 . S
C1309 C1306 1.380 . S
C1309 C1307 1.392 . S
C1309 H1319 0.929 . S
C1310 O1290 1.266 . S
C1310 O1291 1.248 . S
C1311 Tb1247 2.802 . S
C1311 O1286 1.264 . S
C1311 O1289 1.256 . S
C1311 C1304 1.496 . S
H1312 C1295 0.929 . S
H1313 C1296 0.929 . S
H1314 C1297 0.929 . S
H1315 C1298 0.931 . S
H1316 C1306 0.929 . S
H1317 C1307 0.929 . S
H1318 C1308 0.931 . S
H1319 C1309 0.929 . S
Tb1320 N1349 2.617 . S
Tb1320 N1355 2.572 . S
Tb1320 O1364 2.465 . S
Tb1320 O1365 2.387 . S
Tb1320 O1367 2.428 . S
Tb1320 O1368 2.308 . S
Tb1320 O1372 2.349 . S
Tb1320 O1375 2.393 . S
Tb1320 C1384 2.802 . S
C1321 N1322 1.379 . S
C1321 C1324 1.416 . S
C1321 C1328 1.424 . S
N1322 C1321 1.379 . S
N1322 C1325 1.334 . S
N1322 Tb1331 2.617 . S
C1323 C1325 1.390 . S
C1323 C1326 1.339 . S
C1323 H1343 0.930 . S
C1324 C1321 1.416 . S
C1324 C1326 1.416 . S
C1324 C1330 1.448 . S
C1325 N1322 1.334 . S
C1325 C1323 1.390 . S
C1325 H1336 0.930 . S
C1326 C1323 1.339 . S
C1326 C1324 1.416 . S
C1326 H1347 0.930 . S
C1327 C1328 1.413 . S
C1327 C1329 1.427 . S
C1327 C1333 1.416 . S
C1328 C1321 1.424 . S
C1328 C1327 1.413 . S
C1328 N1332 1.361 . S
C1329 C1327 1.427 . S
C1329 C1330 1.328 . S
C1329 H1344 0.929 . S
C1330 C1324 1.448 . S
C1330 C1329 1.328 . S
C1330 H1345 0.930 . S
Tb1331 N1322 2.617 . S
Tb1331 N1332 2.572 . S
Tb1331 O1366 2.349 . S
Tb1331 O1369 2.393 . S
Tb1331 O1370 2.465 . S
Tb1331 O1371 2.387 . S
Tb1331 O1373 2.428 . S
Tb1331 O1374 2.308 . S
Tb1331 C1395 2.802 . S
N1332 C1328 1.361 . S
N1332 Tb1331 2.572 . S
N1332 C1334 1.340 . S
C1333 C1327 1.416 . S
C1333 C1335 1.332 . S
C1333 H1341 0.931 . S
C1334 N1332 1.340 . S
C1334 C1335 1.407 . S
C1334 H1340 0.930 . S
C1335 C1333 1.332 . S
C1335 C1334 1.407 . S
C1335 H1337 0.929 . S
H1336 C1325 0.930 . S
H1337 C1335 0.929 . S
H1338 C1353 0.930 . S
H1339 C1360 0.929 . S
H1340 C1334 0.930 . S
H1341 C1333 0.931 . S
H1342 C1356 0.930 . S
H1343 C1323 0.930 . S
H1344 C1329 0.929 . S
H1345 C1330 0.930 . S
H1346 C1351 0.930 . S
H1347 C1326 0.930 . S
H1348 C1359 0.931 . S
N1349 Tb1320 2.617 . S
N1349 C1350 1.379 . S
N1349 C1353 1.334 . S
C1350 N1349 1.379 . S
C1350 C1352 1.416 . S
C1350 C1358 1.424 . S
C1351 H1346 0.930 . S
C1351 C1353 1.390 . S
C1351 C1354 1.339 . S
C1352 C1350 1.416 . S
C1352 C1354 1.416 . S
C1352 C1385 1.448 . S
C1353 H1338 0.930 . S
C1353 N1349 1.334 . S
C1353 C1351 1.390 . S
C1354 C1351 1.339 . S
C1354 C1352 1.416 . S
C1354 H1361 0.930 . S
N1355 Tb1320 2.572 . S
N1355 C1356 1.340 . S
N1355 C1358 1.361 . S
C1356 H1342 0.930 . S
C1356 N1355 1.340 . S
C1356 C1360 1.407 . S
C1357 C1358 1.413 . S
C1357 C1359 1.416 . S
C1357 C1386 1.427 . S
C1358 C1350 1.424 . S
C1358 N1355 1.361 . S
C1358 C1357 1.413 . S
C1359 H1348 0.931 . S
C1359 C1357 1.416 . S
C1359 C1360 1.332 . S
C1360 H1339 0.929 . S
C1360 C1356 1.407 . S
C1360 C1359 1.332 . S
H1361 C1354 0.930 . S
H1362 C1385 0.930 . S
H1363 C1386 0.929 . S
O1364 Tb1320 2.465 . S
O1364 C1384 1.264 . S
O1365 Tb1320 2.387 . S
O1365 C1376 1.264 . S
O1366 Tb1331 2.349 . S
O1366 C1376 1.243 . S
O1367 Tb1320 2.428 . S
O1367 C1384 1.256 . S
O1368 Tb1320 2.308 . S
O1368 C1383 1.266 . S
O1369 Tb1331 2.393 . S
O1369 C1383 1.248 . S
O1370 Tb1331 2.465 . S
O1370 C1395 1.264 . S
O1371 Tb1331 2.387 . S
O1371 C1387 1.264 . S
O1372 Tb1320 2.349 . S
O1372 C1387 1.243 . S
O1373 Tb1331 2.428 . S
O1373 C1395 1.256 . S
O1374 Tb1331 2.308 . S
O1374 C1394 1.266 . S
O1375 Tb1320 2.393 . S
O1375 C1394 1.248 . S
C1376 O1365 1.264 . S
C1376 O1366 1.243 . S
C1377 C1380 1.399 . S
C1377 C1382 1.383 . S
C1377 C1384 1.496 . S
C1378 C1379 1.399 . S
C1378 C1382 1.389 . S
C1379 C1378 1.399 . S
C1379 C1381 1.380 . S
C1379 H1396 0.929 . S
C1380 C1377 1.399 . S
C1380 C1381 1.392 . S
C1380 H1397 0.929 . S
C1381 C1379 1.380 . S
C1381 C1380 1.392 . S
C1381 H1398 0.929 . S
C1382 C1377 1.383 . S
C1382 C1378 1.389 . S
C1382 H1399 0.931 . S
C1383 O1368 1.266 . S
C1383 O1369 1.248 . S
C1384 Tb1320 2.802 . S
C1384 O1364 1.264 . S
C1384 O1367 1.256 . S
C1384 C1377 1.496 . S
C1385 C1352 1.448 . S
C1385 H1362 0.930 . S
C1385 C1386 1.328 . S
C1386 C1357 1.427 . S
C1386 H1363 0.929 . S
C1386 C1385 1.328 . S
C1387 O1371 1.264 . S
C1387 O1372 1.243 . S
C1388 C1391 1.399 . S
C1388 C1392 1.383 . S
C1388 C1395 1.496 . S
C1389 C1390 1.399 . S
C1389 C1392 1.389 . S
C1390 C1389 1.399 . S
C1390 C1393 1.380 . S
C1390 H1400 0.929 . S
C1391 C1388 1.399 . S
C1391 C1393 1.392 . S
C1391 H1401 0.929 . S
C1392 C1388 1.383 . S
C1392 C1389 1.389 . S
C1392 H1402 0.931 . S
C1393 C1390 1.380 . S
C1393 C1391 1.392 . S
C1393 H1403 0.929 . S
C1394 O1374 1.266 . S
C1394 O1375 1.248 . S
C1395 Tb1331 2.802 . S
C1395 O1370 1.264 . S
C1395 O1373 1.256 . S
C1395 C1388 1.496 . S
H1396 C1379 0.929 . S
H1397 C1380 0.929 . S
H1398 C1381 0.929 . S
H1399 C1382 0.931 . S
H1400 C1390 0.929 . S
H1401 C1391 0.929 . S
H1402 C1392 0.931 . S
H1403 C1393 0.929 . S
Tb1404 N1433 2.617 . S
Tb1404 N1439 2.572 . S
Tb1404 O1448 2.465 . S
Tb1404 O1449 2.387 . S
Tb1404 O1451 2.428 . S
Tb1404 O1452 2.308 . S
Tb1404 O1456 2.349 . S
Tb1404 O1459 2.393 . S
Tb1404 C1468 2.802 . S
C1405 N1406 1.379 . S
C1405 C1408 1.416 . S
C1405 C1412 1.424 . S
N1406 C1405 1.379 . S
N1406 C1409 1.334 . S
N1406 Tb1415 2.617 . S
C1407 C1409 1.390 . S
C1407 C1410 1.339 . S
C1407 H1427 0.930 . S
C1408 C1405 1.416 . S
C1408 C1410 1.416 . S
C1408 C1414 1.448 . S
C1409 N1406 1.334 . S
C1409 C1407 1.390 . S
C1409 H1420 0.930 . S
C1410 C1407 1.339 . S
C1410 C1408 1.416 . S
C1410 H1431 0.930 . S
C1411 C1412 1.413 . S
C1411 C1413 1.427 . S
C1411 C1417 1.416 . S
C1412 C1405 1.424 . S
C1412 C1411 1.413 . S
C1412 N1416 1.361 . S
C1413 C1411 1.427 . S
C1413 C1414 1.328 . S
C1413 H1428 0.929 . S
C1414 C1408 1.448 . S
C1414 C1413 1.328 . S
C1414 H1429 0.930 . S
Tb1415 N1406 2.617 . S
Tb1415 N1416 2.572 . S
Tb1415 O1450 2.349 . S
Tb1415 O1453 2.393 . S
Tb1415 O1454 2.465 . S
Tb1415 O1455 2.387 . S
Tb1415 O1457 2.428 . S
Tb1415 O1458 2.308 . S
Tb1415 C1479 2.802 . S
N1416 C1412 1.361 . S
N1416 Tb1415 2.572 . S
N1416 C1418 1.340 . S
C1417 C1411 1.416 . S
C1417 C1419 1.332 . S
C1417 H1425 0.931 . S
C1418 N1416 1.340 . S
C1418 C1419 1.407 . S
C1418 H1424 0.930 . S
C1419 C1417 1.332 . S
C1419 C1418 1.407 . S
C1419 H1421 0.929 . S
H1420 C1409 0.930 . S
H1421 C1419 0.929 . S
H1422 C1437 0.930 . S
H1423 C1444 0.929 . S
H1424 C1418 0.930 . S
H1425 C1417 0.931 . S
H1426 C1440 0.930 . S
H1427 C1407 0.930 . S
H1428 C1413 0.929 . S
H1429 C1414 0.930 . S
H1430 C1435 0.930 . S
H1431 C1410 0.930 . S
H1432 C1443 0.931 . S
N1433 Tb1404 2.617 . S
N1433 C1434 1.379 . S
N1433 C1437 1.334 . S
C1434 N1433 1.379 . S
C1434 C1436 1.416 . S
C1434 C1442 1.424 . S
C1435 H1430 0.930 . S
C1435 C1437 1.390 . S
C1435 C1438 1.339 . S
C1436 C1434 1.416 . S
C1436 C1438 1.416 . S
C1436 C1469 1.448 . S
C1437 H1422 0.930 . S
C1437 N1433 1.334 . S
C1437 C1435 1.390 . S
C1438 C1435 1.339 . S
C1438 C1436 1.416 . S
C1438 H1445 0.930 . S
N1439 Tb1404 2.572 . S
N1439 C1440 1.340 . S
N1439 C1442 1.361 . S
C1440 H1426 0.930 . S
C1440 N1439 1.340 . S
C1440 C1444 1.407 . S
C1441 C1442 1.413 . S
C1441 C1443 1.416 . S
C1441 C1470 1.427 . S
C1442 C1434 1.424 . S
C1442 N1439 1.361 . S
C1442 C1441 1.413 . S
C1443 H1432 0.931 . S
C1443 C1441 1.416 . S
C1443 C1444 1.332 . S
C1444 H1423 0.929 . S
C1444 C1440 1.407 . S
C1444 C1443 1.332 . S
H1445 C1438 0.930 . S
H1446 C1469 0.930 . S
H1447 C1470 0.929 . S
O1448 Tb1404 2.465 . S
O1448 C1468 1.264 . S
O1449 Tb1404 2.387 . S
O1449 C1460 1.264 . S
O1450 Tb1415 2.349 . S
O1450 C1460 1.243 . S
O1451 Tb1404 2.428 . S
O1451 C1468 1.256 . S
O1452 Tb1404 2.308 . S
O1452 C1467 1.266 . S
O1453 Tb1415 2.393 . S
O1453 C1467 1.248 . S
O1454 Tb1415 2.465 . S
O1454 C1479 1.264 . S
O1455 Tb1415 2.387 . S
O1455 C1471 1.264 . S
O1456 Tb1404 2.349 . S
O1456 C1471 1.243 . S
O1457 Tb1415 2.428 . S
O1457 C1479 1.256 . S
O1458 Tb1415 2.308 . S
O1458 C1478 1.266 . S
O1459 Tb1404 2.393 . S
O1459 C1478 1.248 . S
C1460 O1449 1.264 . S
C1460 O1450 1.243 . S
C1461 C1464 1.399 . S
C1461 C1466 1.383 . S
C1461 C1468 1.496 . S
C1462 C1463 1.399 . S
C1462 C1466 1.389 . S
C1463 C1462 1.399 . S
C1463 C1465 1.380 . S
C1463 H1480 0.929 . S
C1464 C1461 1.399 . S
C1464 C1465 1.392 . S
C1464 H1481 0.929 . S
C1465 C1463 1.380 . S
C1465 C1464 1.392 . S
C1465 H1482 0.929 . S
C1466 C1461 1.383 . S
C1466 C1462 1.389 . S
C1466 H1483 0.931 . S
C1467 O1452 1.266 . S
C1467 O1453 1.248 . S
C1468 Tb1404 2.802 . S
C1468 O1448 1.264 . S
C1468 O1451 1.256 . S
C1468 C1461 1.496 . S
C1469 C1436 1.448 . S
C1469 H1446 0.930 . S
C1469 C1470 1.328 . S
C1470 C1441 1.427 . S
C1470 H1447 0.929 . S
C1470 C1469 1.328 . S
C1471 O1455 1.264 . S
C1471 O1456 1.243 . S
C1472 C1475 1.399 . S
C1472 C1476 1.383 . S
C1472 C1479 1.496 . S
C1473 C1474 1.399 . S
C1473 C1476 1.389 . S
C1474 C1473 1.399 . S
C1474 C1477 1.380 . S
C1474 H1484 0.929 . S
C1475 C1472 1.399 . S
C1475 C1477 1.392 . S
C1475 H1485 0.929 . S
C1476 C1472 1.383 . S
C1476 C1473 1.389 . S
C1476 H1486 0.931 . S
C1477 C1474 1.380 . S
C1477 C1475 1.392 . S
C1477 H1487 0.929 . S
C1478 O1458 1.266 . S
C1478 O1459 1.248 . S
C1479 Tb1415 2.802 . S
C1479 O1454 1.264 . S
C1479 O1457 1.256 . S
C1479 C1472 1.496 . S
H1480 C1463 0.929 . S
H1481 C1464 0.929 . S
H1482 C1465 0.929 . S
H1483 C1466 0.931 . S
H1484 C1474 0.929 . S
H1485 C1475 0.929 . S
H1486 C1476 0.931 . S
H1487 C1477 0.929 . S
Tb1488 N1517 2.617 . S
Tb1488 N1523 2.572 . S
Tb1488 O1532 2.465 . S
Tb1488 O1533 2.387 . S
Tb1488 O1535 2.428 . S
Tb1488 O1536 2.308 . S
Tb1488 O1540 2.349 . S
Tb1488 O1543 2.393 . S
Tb1488 C1552 2.802 . S
C1489 N1490 1.379 . S
C1489 C1492 1.416 . S
C1489 C1496 1.424 . S
N1490 C1489 1.379 . S
N1490 C1493 1.334 . S
N1490 Tb1499 2.617 . S
C1491 C1493 1.390 . S
C1491 C1494 1.339 . S
C1491 H1511 0.930 . S
C1492 C1489 1.416 . S
C1492 C1494 1.416 . S
C1492 C1498 1.448 . S
C1493 N1490 1.334 . S
C1493 C1491 1.390 . S
C1493 H1504 0.930 . S
C1494 C1491 1.339 . S
C1494 C1492 1.416 . S
C1494 H1515 0.930 . S
C1495 C1496 1.413 . S
C1495 C1497 1.427 . S
C1495 C1501 1.416 . S
C1496 C1489 1.424 . S
C1496 C1495 1.413 . S
C1496 N1500 1.361 . S
C1497 C1495 1.427 . S
C1497 C1498 1.328 . S
C1497 H1512 0.929 . S
C1498 C1492 1.448 . S
C1498 C1497 1.328 . S
C1498 H1513 0.930 . S
Tb1499 N1490 2.617 . S
Tb1499 N1500 2.572 . S
Tb1499 O1534 2.349 . S
Tb1499 O1537 2.393 . S
Tb1499 O1538 2.465 . S
Tb1499 O1539 2.387 . S
Tb1499 O1541 2.428 . S
Tb1499 O1542 2.308 . S
Tb1499 C1563 2.802 . S
N1500 C1496 1.361 . S
N1500 Tb1499 2.572 . S
N1500 C1502 1.340 . S
C1501 C1495 1.416 . S
C1501 C1503 1.332 . S
C1501 H1509 0.931 . S
C1502 N1500 1.340 . S
C1502 C1503 1.407 . S
C1502 H1508 0.930 . S
C1503 C1501 1.332 . S
C1503 C1502 1.407 . S
C1503 H1505 0.929 . S
H1504 C1493 0.930 . S
H1505 C1503 0.929 . S
H1506 C1521 0.930 . S
H1507 C1528 0.929 . S
H1508 C1502 0.930 . S
H1509 C1501 0.931 . S
H1510 C1524 0.930 . S
H1511 C1491 0.930 . S
H1512 C1497 0.929 . S
H1513 C1498 0.930 . S
H1514 C1519 0.930 . S
H1515 C1494 0.930 . S
H1516 C1527 0.931 . S
N1517 Tb1488 2.617 . S
N1517 C1518 1.379 . S
N1517 C1521 1.334 . S
C1518 N1517 1.379 . S
C1518 C1520 1.416 . S
C1518 C1526 1.424 . S
C1519 H1514 0.930 . S
C1519 C1521 1.390 . S
C1519 C1522 1.339 . S
C1520 C1518 1.416 . S
C1520 C1522 1.416 . S
C1520 C1553 1.448 . S
C1521 H1506 0.930 . S
C1521 N1517 1.334 . S
C1521 C1519 1.390 . S
C1522 C1519 1.339 . S
C1522 C1520 1.416 . S
C1522 H1529 0.930 . S
N1523 Tb1488 2.572 . S
N1523 C1524 1.340 . S
N1523 C1526 1.361 . S
C1524 H1510 0.930 . S
C1524 N1523 1.340 . S
C1524 C1528 1.407 . S
C1525 C1526 1.413 . S
C1525 C1527 1.416 . S
C1525 C1554 1.427 . S
C1526 C1518 1.424 . S
C1526 N1523 1.361 . S
C1526 C1525 1.413 . S
C1527 H1516 0.931 . S
C1527 C1525 1.416 . S
C1527 C1528 1.332 . S
C1528 H1507 0.929 . S
C1528 C1524 1.407 . S
C1528 C1527 1.332 . S
H1529 C1522 0.930 . S
H1530 C1553 0.930 . S
H1531 C1554 0.929 . S
O1532 Tb1488 2.465 . S
O1532 C1552 1.264 . S
O1533 Tb1488 2.387 . S
O1533 C1544 1.264 . S
O1534 Tb1499 2.349 . S
O1534 C1544 1.243 . S
O1535 Tb1488 2.428 . S
O1535 C1552 1.256 . S
O1536 Tb1488 2.308 . S
O1536 C1551 1.266 . S
O1537 Tb1499 2.393 . S
O1537 C1551 1.248 . S
O1538 Tb1499 2.465 . S
O1538 C1563 1.264 . S
O1539 Tb1499 2.387 . S
O1539 C1555 1.264 . S
O1540 Tb1488 2.349 . S
O1540 C1555 1.243 . S
O1541 Tb1499 2.428 . S
O1541 C1563 1.256 . S
O1542 Tb1499 2.308 . S
O1542 C1562 1.266 . S
O1543 Tb1488 2.393 . S
O1543 C1562 1.248 . S
C1544 O1533 1.264 . S
C1544 O1534 1.243 . S
C1545 C1548 1.399 . S
C1545 C1550 1.383 . S
C1545 C1552 1.496 . S
C1546 C1547 1.399 . S
C1546 C1550 1.389 . S
C1547 C1546 1.399 . S
C1547 C1549 1.380 . S
C1547 H1564 0.929 . S
C1548 C1545 1.399 . S
C1548 C1549 1.392 . S
C1548 H1565 0.929 . S
C1549 C1547 1.380 . S
C1549 C1548 1.392 . S
C1549 H1566 0.929 . S
C1550 C1545 1.383 . S
C1550 C1546 1.389 . S
C1550 H1567 0.931 . S
C1551 O1536 1.266 . S
C1551 O1537 1.248 . S
C1552 Tb1488 2.802 . S
C1552 O1532 1.264 . S
C1552 O1535 1.256 . S
C1552 C1545 1.496 . S
C1553 C1520 1.448 . S
C1553 H1530 0.930 . S
C1553 C1554 1.328 . S
C1554 C1525 1.427 . S
C1554 H1531 0.929 . S
C1554 C1553 1.328 . S
C1555 O1539 1.264 . S
C1555 O1540 1.243 . S
C1556 C1559 1.399 . S
C1556 C1560 1.383 . S
C1556 C1563 1.496 . S
C1557 C1558 1.399 . S
C1557 C1560 1.389 . S
C1558 C1557 1.399 . S
C1558 C1561 1.380 . S
C1558 H1568 0.929 . S
C1559 C1556 1.399 . S
C1559 C1561 1.392 . S
C1559 H1569 0.929 . S
C1560 C1556 1.383 . S
C1560 C1557 1.389 . S
C1560 H1570 0.931 . S
C1561 C1558 1.380 . S
C1561 C1559 1.392 . S
C1561 H1571 0.929 . S
C1562 O1542 1.266 . S
C1562 O1543 1.248 . S
C1563 Tb1499 2.802 . S
C1563 O1538 1.264 . S
C1563 O1541 1.256 . S
C1563 C1556 1.496 . S
H1564 C1547 0.929 . S
H1565 C1548 0.929 . S
H1566 C1549 0.929 . S
H1567 C1550 0.931 . S
H1568 C1558 0.929 . S
H1569 C1559 0.929 . S
H1570 C1560 0.931 . S
H1571 C1561 0.929 . S
Tb1572 N1601 2.617 1_455 S
Tb1572 N1607 2.572 1_455 S
Tb1572 O1616 2.465 1_455 S
Tb1572 O1617 2.387 . S
Tb1572 O1619 2.428 1_455 S
Tb1572 O1620 2.265 1_554 S
Tb1572 O1624 2.349 . S
Tb1572 O1627 2.393 . S
Tb1572 C1636 2.802 1_455 S
C1573 N1574 1.379 . S
C1573 C1576 1.416 . S
C1573 C1580 1.424 1_556 S
N1574 C1573 1.379 . S
N1574 C1577 1.334 . S
N1574 Tb1583 2.617 1_556 S
C1575 C1577 1.390 . S
C1575 C1578 1.339 . S
C1575 H1595 0.930 . S
C1576 C1573 1.416 . S
C1576 C1578 1.416 . S
C1576 C1582 1.448 . S
C1577 N1574 1.334 . S
C1577 C1575 1.390 . S
C1577 H1588 0.930 . S
C1578 C1575 1.339 . S
C1578 C1576 1.416 . S
C1578 H1599 0.930 . S
C1579 C1580 1.413 . S
C1579 C1581 1.427 1_554 S
C1579 C1585 1.416 . S
C1580 C1573 1.424 1_554 S
C1580 C1579 1.413 . S
C1580 N1584 1.361 . S
C1581 C1579 1.427 1_556 S
C1581 C1582 1.328 . S
C1581 H1596 0.929 1_556 S
C1582 C1576 1.448 . S
C1582 C1581 1.328 . S
C1582 H1597 0.930 . S
Tb1583 N1574 2.617 1_554 S
Tb1583 N1584 2.572 . S
Tb1583 O1618 2.349 . S
Tb1583 O1621 2.393 1_554 S
Tb1583 O1622 2.465 . S
Tb1583 O1623 2.387 . S
Tb1583 O1625 2.428 1_554 S
Tb1583 O1626 2.308 . S
Tb1583 C1647 2.802 1_554 S
N1584 C1580 1.361 . S
N1584 Tb1583 2.572 . S
N1584 C1586 1.340 . S
C1585 C1579 1.416 . S
C1585 C1587 1.332 . S
C1585 H1593 0.931 . S
C1586 N1584 1.340 . S
C1586 C1587 1.407 . S
C1586 H1592 0.930 . S
C1587 C1585 1.332 . S
C1587 C1586 1.407 . S
C1587 H1589 0.929 . S
H1588 C1577 0.930 . S
H1589 C1587 0.929 . S
H1590 C1605 0.917 1_455 S
H1591 C1612 0.929 . S
H1592 C1586 0.930 . S
H1593 C1585 0.931 . S
H1594 C1608 0.930 1_556 S
H1595 C1575 0.930 . S
H1596 C1581 0.929 1_554 S
H1597 C1582 0.930 . S
H1598 C1603 0.930 1_455 S
H1599 C1578 0.930 . S
H1600 C1611 0.931 . S
N1601 Tb1572 2.617 1_655 S
N1601 C1602 1.379 . S
N1601 C1605 1.343 . S
C1602 N1601 1.379 . S
C1602 C1604 1.416 . S
C1602 C1610 1.424 . S
C1603 H1598 0.930 1_655 S
C1603 C1605 1.394 . S
C1603 C1606 1.339 . S
C1604 C1602 1.416 . S
C1604 C1606 1.416 . S
C1604 C1637 1.448 . S
C1605 H1590 0.917 1_655 S
C1605 N1601 1.343 . S
C1605 C1603 1.394 . S
C1606 C1603 1.339 . S
C1606 C1604 1.416 . S
C1606 H1613 0.930 . S
N1607 Tb1572 2.572 1_655 S
N1607 C1608 1.340 . S
N1607 C1610 1.361 . S
C1608 H1594 0.930 1_554 S
C1608 N1607 1.340 . S
C1608 C1612 1.407 1_554 S
C1609 C1610 1.413 . S
C1609 C1611 1.416 . S
C1609 C1638 1.427 . S
C1610 C1602 1.424 . S
C1610 N1607 1.361 . S
C1610 C1609 1.413 . S
C1611 H1600 0.931 . S
C1611 C1609 1.416 . S
C1611 C1612 1.332 1_554 S
C1612 H1591 0.929 . S
C1612 C1608 1.407 1_556 S
C1612 C1611 1.332 1_556 S
H1613 C1606 0.930 . S
H1614 C1637 0.930 . S
H1615 C1638 0.929 . S
O1616 Tb1572 2.465 1_655 S
O1616 C1636 1.264 . S
O1617 Tb1572 2.387 . S
O1617 C1628 1.264 . S
O1618 Tb1583 2.349 . S
O1618 C1628 1.243 . S
O1619 Tb1572 2.428 1_655 S
O1619 C1636 1.256 . S
O1620 Tb1572 2.265 1_556 S
O1620 C1635 1.307 . S
O1621 Tb1583 2.393 1_556 S
O1621 C1635 1.248 . S
O1622 Tb1583 2.465 . S
O1622 C1647 1.264 1_554 S
O1623 Tb1583 2.387 . S
O1623 C1639 1.264 . S
O1624 Tb1572 2.349 . S
O1624 C1639 1.243 . S
O1625 Tb1583 2.428 1_556 S
O1625 C1647 1.256 . S
O1626 Tb1583 2.308 . S
O1626 C1646 1.266 . S
O1627 Tb1572 2.393 . S
O1627 C1646 1.248 . S
C1628 O1617 1.264 . S
C1628 O1618 1.243 . S
C1629 C1632 1.399 . S
C1629 C1634 1.383 . S
C1629 C1636 1.496 . S
C1630 C1631 1.399 . S
C1630 C1634 1.389 . S
C1631 C1630 1.399 . S
C1631 C1633 1.380 . S
C1631 H1648 0.929 . S
C1632 C1629 1.399 . S
C1632 C1633 1.392 . S
C1632 H1649 0.929 . S
C1633 C1631 1.380 . S
C1633 C1632 1.392 . S
C1633 H1650 0.929 . S
C1634 C1629 1.383 . S
C1634 C1630 1.389 . S
C1634 H1651 0.931 . S
C1635 O1620 1.307 . S
C1635 O1621 1.248 . S
C1636 Tb1572 2.802 1_655 S
C1636 O1616 1.264 . S
C1636 O1619 1.256 . S
C1636 C1629 1.496 . S
C1637 C1604 1.448 . S
C1637 H1614 0.930 . S
C1637 C1638 1.328 . S
C1638 C1609 1.427 . S
C1638 H1615 0.929 . S
C1638 C1637 1.328 . S
C1639 O1623 1.264 . S
C1639 O1624 1.243 . S
C1640 C1643 1.399 . S
C1640 C1644 1.383 1_556 S
C1640 C1647 1.496 . S
C1641 C1642 1.399 1_554 S
C1641 C1644 1.389 . S
C1642 C1641 1.399 1_556 S
C1642 C1645 1.380 . S
C1642 H1652 0.929 . S
C1643 C1640 1.399 . S
C1643 C1645 1.392 . S
C1643 H1653 0.929 . S
C1644 C1640 1.383 1_554 S
C1644 C1641 1.389 . S
C1644 H1654 0.931 . S
C1645 C1642 1.380 . S
C1645 C1643 1.392 . S
C1645 H1655 0.929 . S
C1646 O1626 1.266 . S
C1646 O1627 1.248 . S
C1647 Tb1583 2.802 1_556 S
C1647 O1622 1.264 1_556 S
C1647 O1625 1.256 . S
C1647 C1640 1.496 . S
H1648 C1631 0.929 . S
H1649 C1632 0.929 . S
H1650 C1633 0.929 . S
H1651 C1634 0.931 . S
H1652 C1642 0.929 . S
H1653 C1643 0.929 . S
H1654 C1644 0.931 . S
H1655 C1645 0.929 . S
H1656 C1674 0.951 . S
H1657 C1676 0.951 . S
H1658 C1678 0.950 . S
H1659 C1679 0.950 . S
H1660 C1681 0.950 . S
H1661 C1684 0.950 . S
H1662 C1685 0.950 . S
H1663 C1687 0.950 . S
H1664 C1688 0.950 . S
H1665 C1689 0.946 1_556 S
H1666 C1691 0.951 . S
H1667 C1693 0.950 . S
H1668 C1694 0.964 . S
H1669 C1696 0.950 1_655 S
H1670 C1699 0.950 1_655 S
H1671 C1700 0.950 . S
H1672 C1702 0.950 . S
H1673 C1703 0.950 . S
C1674 H1656 0.951 . S
C1674 C1675 1.366 . S
C1674 C1676 1.388 . S
C1675 C1674 1.366 . S
C1675 C1679 1.385 1_655 S
C1676 H1657 0.951 . S
C1676 C1674 1.388 . S
C1676 C1677 1.366 1_655 S
C1677 C1676 1.366 1_455 S
C1677 C1678 1.414 . S
C1677 C1680 1.499 . S
C1678 H1658 0.950 . S
C1678 C1677 1.414 . S
C1678 C1679 1.374 . S
C1679 H1659 0.950 . S
C1679 C1675 1.385 1_455 S
C1679 C1678 1.374 . S
C1680 C1677 1.499 . S
C1680 C1681 1.373 . S
C1680 C1682 1.409 . S
C1681 H1660 0.950 . S
C1681 C1680 1.373 . S
C1681 C1697 1.377 . S
C1682 C1680 1.409 . S
C1682 C1683 1.496 1_456 S
C1682 C1696 1.391 1_556 S
C1683 C1682 1.496 1_654 S
C1683 C1684 1.397 1_655 S
C1683 C1688 1.363 . S
C1684 H1661 0.950 . S
C1684 C1683 1.397 1_455 S
C1684 C1685 1.334 . S
C1685 H1662 0.950 . S
C1685 C1684 1.334 . S
C1685 C1686 1.287 1_455 S
C1686 C1685 1.287 1_655 S
C1686 C1687 1.524 . S
C1686 H1705 0.913 . S
C1687 H1663 0.950 . S
C1687 C1686 1.524 . S
C1687 C1688 1.415 . S
C1688 H1664 0.950 . S
C1688 C1683 1.363 . S
C1688 C1687 1.415 . S
C1689 H1665 0.946 1_554 S
C1689 C1690 1.365 . S
C1689 C1691 1.388 1_554 S
C1690 C1689 1.365 . S
C1690 C1694 1.365 1_455 S
C1691 H1666 0.951 . S
C1691 C1689 1.388 1_556 S
C1691 C1692 1.366 . S
C1692 C1691 1.366 . S
C1692 C1693 1.414 1_456 S
C1692 C1695 1.499 . S
C1693 H1667 0.950 . S
C1693 C1692 1.414 1_654 S
C1693 C1694 1.379 . S
C1694 H1668 0.964 . S
C1694 C1690 1.365 1_655 S
C1694 C1693 1.379 . S
C1695 C1692 1.499 . S
C1695 C1696 1.373 1_556 S
C1695 C1697 1.389 . S
C1696 H1669 0.950 1_455 S
C1696 C1682 1.391 1_554 S
C1696 C1695 1.373 1_554 S
C1697 C1681 1.377 . S
C1697 C1695 1.389 . S
C1697 C1698 1.524 . S
C1698 C1697 1.524 . S
C1698 C1699 1.397 . S
C1698 C1703 1.363 . S
C1699 H1670 0.950 1_455 S
C1699 C1698 1.397 . S
C1699 C1700 1.334 . S
C1700 H1671 0.950 . S
C1700 C1699 1.334 . S
C1700 C1701 1.287 . S
C1701 C1700 1.287 . S
C1701 C1702 1.524 . S
C1701 H1704 0.999 . S
C1702 H1672 0.950 . S
C1702 C1701 1.524 . S
C1702 C1703 1.415 . S
C1703 H1673 0.950 . S
C1703 C1698 1.363 . S
C1703 C1702 1.415 . S
H1704 C1701 0.999 . S
H1705 C1686 0.913 . S
H1706 C1724 0.951 . S
H1707 C1726 0.951 . S
H1708 C1728 0.950 . S
H1709 C1729 0.950 . S
H1710 C1731 0.950 . S
H1711 C1734 0.950 . S
H1712 C1735 0.950 . S
H1713 C1737 0.950 . S
H1714 C1738 0.950 . S
H1715 C1739 0.951 . S
H1716 C1741 0.951 . S
H1717 C1743 0.950 . S
H1718 C1744 0.950 . S
H1719 C1746 0.950 . S
H1720 C1749 0.950 . S
H1721 C1750 0.950 . S
H1722 C1752 0.950 . S
H1723 C1753 0.950 . S
C1724 H1706 0.951 . S
C1724 C1725 1.366 . S
C1724 C1726 1.388 . S
C1725 C1724 1.366 . S
C1725 C1729 1.385 . S
C1726 H1707 0.951 . S
C1726 C1724 1.388 . S
C1726 C1727 1.366 . S
C1727 C1726 1.366 . S
C1727 C1728 1.414 . S
C1727 C1730 1.499 . S
C1728 H1708 0.950 . S
C1728 C1727 1.414 . S
C1728 C1729 1.374 . S
C1729 H1709 0.950 . S
C1729 C1725 1.385 . S
C1729 C1728 1.374 . S
C1730 C1727 1.499 . S
C1730 C1731 1.373 . S
C1730 C1732 1.389 . S
C1731 H1710 0.950 . S
C1731 C1730 1.373 . S
C1731 C1747 1.377 . S
C1732 C1730 1.389 . S
C1732 C1733 1.524 . S
C1732 C1746 1.377 . S
C1733 C1732 1.524 . S
C1733 C1734 1.397 . S
C1733 C1738 1.363 . S
C1734 H1711 0.950 . S
C1734 C1733 1.397 . S
C1734 C1735 1.334 . S
C1735 H1712 0.950 . S
C1735 C1734 1.334 . S
C1735 C1736 1.287 . S
C1736 C1735 1.287 . S
C1736 C1737 1.524 . S
C1736 H1755 0.913 . S
C1737 H1713 0.950 . S
C1737 C1736 1.524 . S
C1737 C1738 1.415 . S
C1738 H1714 0.950 . S
C1738 C1733 1.363 . S
C1738 C1737 1.415 . S
C1739 H1715 0.951 . S
C1739 C1740 1.366 . S
C1739 C1741 1.388 . S
C1740 C1739 1.366 . S
C1740 C1744 1.385 . S
C1741 H1716 0.951 . S
C1741 C1739 1.388 . S
C1741 C1742 1.366 . S
C1742 C1741 1.366 . S
C1742 C1743 1.414 . S
C1742 C1745 1.499 . S
C1743 H1717 0.950 . S
C1743 C1742 1.414 . S
C1743 C1744 1.374 . S
C1744 H1718 0.950 . S
C1744 C1740 1.385 . S
C1744 C1743 1.374 . S
C1745 C1742 1.499 . S
C1745 C1746 1.373 . S
C1745 C1747 1.389 . S
C1746 H1719 0.950 . S
C1746 C1732 1.377 . S
C1746 C1745 1.373 . S
C1747 C1731 1.377 . S
C1747 C1745 1.389 . S
C1747 C1748 1.524 . S
C1748 C1747 1.524 . S
C1748 C1749 1.397 . S
C1748 C1753 1.363 . S
C1749 H1720 0.950 . S
C1749 C1748 1.397 . S
C1749 C1750 1.334 . S
C1750 H1721 0.950 . S
C1750 C1749 1.334 . S
C1750 C1751 1.287 . S
C1751 C1750 1.287 . S
C1751 C1752 1.524 . S
C1751 H1754 0.999 . S
C1752 H1722 0.950 . S
C1752 C1751 1.524 . S
C1752 C1753 1.415 . S
C1753 H1723 0.950 . S
C1753 C1748 1.363 . S
C1753 C1752 1.415 . S
H1754 C1751 0.999 . S
H1755 C1736 0.913 . S
H1756 C1774 0.951 . S
H1757 C1776 0.951 . S
H1758 C1778 0.950 . S
H1759 C1779 0.950 . S
H1760 C1781 0.950 . S
H1761 C1784 0.950 . S
H1762 C1785 0.950 . S
H1763 C1787 0.950 . S
H1764 C1788 0.950 . S
H1765 C1789 0.951 . S
H1766 C1791 0.951 . S
H1767 C1793 0.950 . S
H1768 C1794 0.950 . S
H1769 C1796 0.950 . S
H1770 C1799 0.950 . S
H1771 C1800 0.950 . S
H1772 C1802 0.950 . S
H1773 C1803 0.950 . S
C1774 H1756 0.951 . S
C1774 C1775 1.366 . S
C1774 C1776 1.388 . S
C1775 C1774 1.366 . S
C1775 C1779 1.385 . S
C1776 H1757 0.951 . S
C1776 C1774 1.388 . S
C1776 C1777 1.366 . S
C1777 C1776 1.366 . S
C1777 C1778 1.414 . S
C1777 C1780 1.499 . S
C1778 H1758 0.950 . S
C1778 C1777 1.414 . S
C1778 C1779 1.374 . S
C1779 H1759 0.950 . S
C1779 C1775 1.385 . S
C1779 C1778 1.374 . S
C1780 C1777 1.499 . S
C1780 C1781 1.373 . S
C1780 C1782 1.389 . S
C1781 H1760 0.950 . S
C1781 C1780 1.373 . S
C1781 C1797 1.377 . S
C1782 C1780 1.389 . S
C1782 C1783 1.524 . S
C1782 C1796 1.377 . S
C1783 C1782 1.524 . S
C1783 C1784 1.397 . S
C1783 C1788 1.363 . S
C1784 H1761 0.950 . S
C1784 C1783 1.397 . S
C1784 C1785 1.334 . S
C1785 H1762 0.950 . S
C1785 C1784 1.334 . S
C1785 C1786 1.287 . S
C1786 C1785 1.287 . S
C1786 C1787 1.524 . S
C1786 H1805 0.913 . S
C1787 H1763 0.950 . S
C1787 C1786 1.524 . S
C1787 C1788 1.415 . S
C1788 H1764 0.950 . S
C1788 C1783 1.363 . S
C1788 C1787 1.415 . S
C1789 H1765 0.951 . S
C1789 C1790 1.366 . S
C1789 C1791 1.388 . S
C1790 C1789 1.366 . S
C1790 C1794 1.385 . S
C1791 H1766 0.951 . S
C1791 C1789 1.388 . S
C1791 C1792 1.366 . S
C1792 C1791 1.366 . S
C1792 C1793 1.414 . S
C1792 C1795 1.499 . S
C1793 H1767 0.950 . S
C1793 C1792 1.414 . S
C1793 C1794 1.374 . S
C1794 H1768 0.950 . S
C1794 C1790 1.385 . S
C1794 C1793 1.374 . S
C1795 C1792 1.499 . S
C1795 C1796 1.373 . S
C1795 C1797 1.389 . S
C1796 H1769 0.950 . S
C1796 C1782 1.377 . S
C1796 C1795 1.373 . S
C1797 C1781 1.377 . S
C1797 C1795 1.389 . S
C1797 C1798 1.524 . S
C1798 C1797 1.524 . S
C1798 C1799 1.397 . S
C1798 C1803 1.363 . S
C1799 H1770 0.950 . S
C1799 C1798 1.397 . S
C1799 C1800 1.334 . S
C1800 H1771 0.950 . S
C1800 C1799 1.334 . S
C1800 C1801 1.287 . S
C1801 C1800 1.287 . S
C1801 C1802 1.524 . S
C1801 H1804 0.999 . S
C1802 H1772 0.950 . S
C1802 C1801 1.524 . S
C1802 C1803 1.415 . S
C1803 H1773 0.950 . S
C1803 C1798 1.363 . S
C1803 C1802 1.415 . S
H1804 C1801 0.999 . S
H1805 C1786 0.913 . S
H1806 C1824 0.951 . S
H1807 C1826 0.951 . S
H1808 C1828 0.950 . S
H1809 C1829 0.950 . S
H1810 C1831 0.950 . S
H1811 C1834 0.950 . S
H1812 C1835 0.950 . S
H1813 C1837 0.950 . S
H1814 C1838 0.950 . S
H1815 C1839 0.951 . S
H1816 C1841 0.951 . S
H1817 C1843 0.950 . S
H1818 C1844 0.950 . S
H1819 C1846 0.950 . S
H1820 C1849 0.950 . S
H1821 C1850 0.950 . S
H1822 C1852 0.950 . S
H1823 C1853 0.950 . S
C1824 H1806 0.951 . S
C1824 C1825 1.366 . S
C1824 C1826 1.388 . S
C1825 C1824 1.366 . S
C1825 C1829 1.385 . S
C1826 H1807 0.951 . S
C1826 C1824 1.388 . S
C1826 C1827 1.366 . S
C1827 C1826 1.366 . S
C1827 C1828 1.414 . S
C1827 C1830 1.499 . S
C1828 H1808 0.950 . S
C1828 C1827 1.414 . S
C1828 C1829 1.374 . S
C1829 H1809 0.950 . S
C1829 C1825 1.385 . S
C1829 C1828 1.374 . S
C1830 C1827 1.499 . S
C1830 C1831 1.373 . S
C1830 C1832 1.389 . S
C1831 H1810 0.950 . S
C1831 C1830 1.373 . S
C1831 C1847 1.377 . S
C1832 C1830 1.389 . S
C1832 C1833 1.524 . S
C1832 C1846 1.377 . S
C1833 C1832 1.524 . S
C1833 C1834 1.397 . S
C1833 C1838 1.363 . S
C1834 H1811 0.950 . S
C1834 C1833 1.397 . S
C1834 C1835 1.334 . S
C1835 H1812 0.950 . S
C1835 C1834 1.334 . S
C1835 C1836 1.287 . S
C1836 C1835 1.287 . S
C1836 C1837 1.524 . S
C1836 H1855 0.913 . S
C1837 H1813 0.950 . S
C1837 C1836 1.524 . S
C1837 C1838 1.415 . S
C1838 H1814 0.950 . S
C1838 C1833 1.363 . S
C1838 C1837 1.415 . S
C1839 H1815 0.951 . S
C1839 C1840 1.366 . S
C1839 C1841 1.388 . S
C1840 C1839 1.366 . S
C1840 C1844 1.385 . S
C1841 H1816 0.951 . S
C1841 C1839 1.388 . S
C1841 C1842 1.366 . S
C1842 C1841 1.366 . S
C1842 C1843 1.414 . S
C1842 C1845 1.499 . S
C1843 H1817 0.950 . S
C1843 C1842 1.414 . S
C1843 C1844 1.374 . S
C1844 H1818 0.950 . S
C1844 C1840 1.385 . S
C1844 C1843 1.374 . S
C1845 C1842 1.499 . S
C1845 C1846 1.373 . S
C1845 C1847 1.389 . S
C1846 H1819 0.950 . S
C1846 C1832 1.377 . S
C1846 C1845 1.373 . S
C1847 C1831 1.377 . S
C1847 C1845 1.389 . S
C1847 C1848 1.524 . S
C1848 C1847 1.524 . S
C1848 C1849 1.397 . S
C1848 C1853 1.363 . S
C1849 H1820 0.950 . S
C1849 C1848 1.397 . S
C1849 C1850 1.334 . S
C1850 H1821 0.950 . S
C1850 C1849 1.334 . S
C1850 C1851 1.287 . S
C1851 C1850 1.287 . S
C1851 C1852 1.524 . S
C1851 H1854 0.999 . S
C1852 H1822 0.950 . S
C1852 C1851 1.524 . S
C1852 C1853 1.415 . S
C1853 H1823 0.950 . S
C1853 C1848 1.363 . S
C1853 C1852 1.415 . S
H1854 C1851 0.999 . S
H1855 C1836 0.913 . S
H1856 C1874 0.951 . S
H1857 C1876 0.951 . S
H1858 C1878 0.950 1_655 S
H1859 C1879 0.950 1_655 S
H1860 C1881 0.950 1_655 S
H1861 C1884 0.950 . S
H1862 C1885 0.950 . S
H1863 C1887 0.950 . S
H1864 C1888 0.950 . S
H1865 C1889 0.967 . S
H1866 C1891 0.903 1_655 S
H1867 C1893 0.950 . S
H1868 C1894 0.950 . S
H1869 C1896 0.950 . S
H1870 C1899 0.950 . S
H1871 C1900 0.950 . S
H1872 C1902 0.950 . S
H1873 C1903 0.950 . S
C1874 H1856 0.951 . S
C1874 C1875 1.366 . S
C1874 C1876 1.388 . S
C1875 C1874 1.366 . S
C1875 C1879 1.385 . S
C1876 H1857 0.951 . S
C1876 C1874 1.388 . S
C1876 C1877 1.366 . S
C1877 C1876 1.366 . S
C1877 C1878 1.414 . S
C1877 C1880 1.499 . S
C1878 H1858 0.950 1_455 S
C1878 C1877 1.414 . S
C1878 C1879 1.374 . S
C1879 H1859 0.950 1_455 S
C1879 C1875 1.385 . S
C1879 C1878 1.374 . S
C1880 C1877 1.499 . S
C1880 C1881 1.373 . S
C1880 C1882 1.389 . S
C1881 H1860 0.950 1_455 S
C1881 C1880 1.373 . S
C1881 C1897 1.377 . S
C1882 C1880 1.389 . S
C1882 C1883 1.524 . S
C1882 C1896 1.377 . S
C1883 C1882 1.524 . S
C1883 C1884 1.397 . S
C1883 C1888 1.363 . S
C1884 H1861 0.950 . S
C1884 C1883 1.397 . S
C1884 C1885 1.334 . S
C1885 H1862 0.950 . S
C1885 C1884 1.334 . S
C1885 C1886 1.287 . S
C1886 C1885 1.287 . S
C1886 C1887 1.524 . S
C1886 H1905 0.913 . S
C1887 H1863 0.950 . S
C1887 C1886 1.524 . S
C1887 C1888 1.415 . S
C1888 H1864 0.950 . S
C1888 C1883 1.363 . S
C1888 C1887 1.415 . S
C1889 H1865 0.967 . S
C1889 C1890 1.366 . S
C1889 C1891 1.388 . S
C1890 C1889 1.366 . S
C1890 C1894 1.385 . S
C1891 H1866 0.903 1_455 S
C1891 C1889 1.388 . S
C1891 C1892 1.366 . S
C1892 C1891 1.366 . S
C1892 C1893 1.414 . S
C1892 C1895 1.499 . S
C1893 H1867 0.950 . S
C1893 C1892 1.414 . S
C1893 C1894 1.374 . S
C1894 H1868 0.950 . S
C1894 C1890 1.385 . S
C1894 C1893 1.374 . S
C1895 C1892 1.499 . S
C1895 C1896 1.373 . S
C1895 C1897 1.389 . S
C1896 H1869 0.950 . S
C1896 C1882 1.377 . S
C1896 C1895 1.373 . S
C1897 C1881 1.377 . S
C1897 C1895 1.389 . S
C1897 C1898 1.524 1_455 S
C1898 C1897 1.524 1_655 S
C1898 C1899 1.397 . S
C1898 C1903 1.363 . S
C1899 H1870 0.950 . S
C1899 C1898 1.397 . S
C1899 C1900 1.334 . S
C1900 H1871 0.950 . S
C1900 C1899 1.334 . S
C1900 C1901 1.287 . S
C1901 C1900 1.287 . S
C1901 C1902 1.524 . S
C1901 H1904 0.999 . S
C1902 H1872 0.950 . S
C1902 C1901 1.524 . S
C1902 C1903 1.415 . S
C1903 H1873 0.950 . S
C1903 C1898 1.363 . S
C1903 C1902 1.415 . S
H1904 C1901 0.999 . S
H1905 C1886 0.913 . S
H1906 C1924 0.951 . S
H1907 C1926 0.951 . S
H1908 C1928 0.950 . S
H1909 C1929 0.950 . S
H1910 C1931 0.950 . S
H1911 C1934 0.950 . S
H1912 C1935 0.950 . S
H1913 C1937 0.950 . S
H1914 C1938 0.950 . S
H1915 C1939 0.951 . S
H1916 C1941 0.951 . S
H1917 C1943 0.950 . S
H1918 C1944 0.950 . S
H1919 C1946 0.950 . S
H1920 C1949 0.950 . S
H1921 C1950 0.950 . S
H1922 C1952 0.950 . S
H1923 C1953 0.950 . S
C1924 H1906 0.951 . S
C1924 C1925 1.366 . S
C1924 C1926 1.388 . S
C1925 C1924 1.366 . S
C1925 C1929 1.385 . S
C1926 H1907 0.951 . S
C1926 C1924 1.388 . S
C1926 C1927 1.366 . S
C1927 C1926 1.366 . S
C1927 C1928 1.414 . S
C1927 C1930 1.499 . S
C1928 H1908 0.950 . S
C1928 C1927 1.414 . S
C1928 C1929 1.374 . S
C1929 H1909 0.950 . S
C1929 C1925 1.385 . S
C1929 C1928 1.374 . S
C1930 C1927 1.499 . S
C1930 C1931 1.373 . S
C1930 C1932 1.389 . S
C1931 H1910 0.950 . S
C1931 C1930 1.373 . S
C1931 C1947 1.377 . S
C1932 C1930 1.389 . S
C1932 C1933 1.524 . S
C1932 C1946 1.377 . S
C1933 C1932 1.524 . S
C1933 C1934 1.397 . S
C1933 C1938 1.363 . S
C1934 H1911 0.950 . S
C1934 C1933 1.397 . S
C1934 C1935 1.334 . S
C1935 H1912 0.950 . S
C1935 C1934 1.334 . S
C1935 C1936 1.287 . S
C1936 C1935 1.287 . S
C1936 C1937 1.524 . S
C1936 H1955 0.913 . S
C1937 H1913 0.950 . S
C1937 C1936 1.524 . S
C1937 C1938 1.415 . S
C1938 H1914 0.950 . S
C1938 C1933 1.363 . S
C1938 C1937 1.415 . S
C1939 H1915 0.951 . S
C1939 C1940 1.366 . S
C1939 C1941 1.388 . S
C1940 C1939 1.366 . S
C1940 C1944 1.385 . S
C1941 H1916 0.951 . S
C1941 C1939 1.388 . S
C1941 C1942 1.366 . S
C1942 C1941 1.366 . S
C1942 C1943 1.414 . S
C1942 C1945 1.499 . S
C1943 H1917 0.950 . S
C1943 C1942 1.414 . S
C1943 C1944 1.374 . S
C1944 H1918 0.950 . S
C1944 C1940 1.385 . S
C1944 C1943 1.374 . S
C1945 C1942 1.499 . S
C1945 C1946 1.373 . S
C1945 C1947 1.389 . S
C1946 H1919 0.950 . S
C1946 C1932 1.377 . S
C1946 C1945 1.373 . S
C1947 C1931 1.377 . S
C1947 C1945 1.389 . S
C1947 C1948 1.524 . S
C1948 C1947 1.524 . S
C1948 C1949 1.397 . S
C1948 C1953 1.363 . S
C1949 H1920 0.950 . S
C1949 C1948 1.397 . S
C1949 C1950 1.334 . S
C1950 H1921 0.950 . S
C1950 C1949 1.334 . S
C1950 C1951 1.287 . S
C1951 C1950 1.287 . S
C1951 C1952 1.524 . S
C1951 H1954 0.999 . S
C1952 H1922 0.950 . S
C1952 C1951 1.524 . S
C1952 C1953 1.415 . S
C1953 H1923 0.950 . S
C1953 C1948 1.363 . S
C1953 C1952 1.415 . S
H1954 C1951 0.999 . S
H1955 C1936 0.913 . S
H1956 C1974 0.951 . S
H1957 C1976 0.951 . S
H1958 C1978 0.950 . S
H1959 C1979 0.950 . S
H1960 C1981 0.950 . S
H1961 C1984 0.950 . S
H1962 C1985 0.950 . S
H1963 C1987 0.950 . S
H1964 C1988 0.950 . S
H1965 C1989 0.951 . S
H1966 C1991 0.951 . S
H1967 C1993 0.950 . S
H1968 C1994 0.950 . S
H1969 C1996 0.950 . S
H1970 C1999 0.950 . S
H1971 C2000 0.950 . S
H1972 C2002 0.950 . S
H1973 C2003 0.950 . S
C1974 H1956 0.951 . S
C1974 C1975 1.366 . S
C1974 C1976 1.388 . S
C1975 C1974 1.366 . S
C1975 C1979 1.385 . S
C1976 H1957 0.951 . S
C1976 C1974 1.388 . S
C1976 C1977 1.366 . S
C1977 C1976 1.366 . S
C1977 C1978 1.414 . S
C1977 C1980 1.499 . S
C1978 H1958 0.950 . S
C1978 C1977 1.414 . S
C1978 C1979 1.374 . S
C1979 H1959 0.950 . S
C1979 C1975 1.385 . S
C1979 C1978 1.374 . S
C1980 C1977 1.499 . S
C1980 C1981 1.373 . S
C1980 C1982 1.389 . S
C1981 H1960 0.950 . S
C1981 C1980 1.373 . S
C1981 C1997 1.377 . S
C1982 C1980 1.389 . S
C1982 C1983 1.524 . S
C1982 C1996 1.377 . S
C1983 C1982 1.524 . S
C1983 C1984 1.397 . S
C1983 C1988 1.363 . S
C1984 H1961 0.950 . S
C1984 C1983 1.397 . S
C1984 C1985 1.334 . S
C1985 H1962 0.950 . S
C1985 C1984 1.334 . S
C1985 C1986 1.287 . S
C1986 C1985 1.287 . S
C1986 C1987 1.524 . S
C1986 H2005 0.913 . S
C1987 H1963 0.950 . S
C1987 C1986 1.524 . S
C1987 C1988 1.415 . S
C1988 H1964 0.950 . S
C1988 C1983 1.363 . S
C1988 C1987 1.415 . S
C1989 H1965 0.951 . S
C1989 C1990 1.366 . S
C1989 C1991 1.388 . S
C1990 C1989 1.366 . S
C1990 C1994 1.385 . S
C1991 H1966 0.951 . S
C1991 C1989 1.388 . S
C1991 C1992 1.366 . S
C1992 C1991 1.366 . S
C1992 C1993 1.414 . S
C1992 C1995 1.499 . S
C1993 H1967 0.950 . S
C1993 C1992 1.414 . S
C1993 C1994 1.374 . S
C1994 H1968 0.950 . S
C1994 C1990 1.385 . S
C1994 C1993 1.374 . S
C1995 C1992 1.499 . S
C1995 C1996 1.373 . S
C1995 C1997 1.389 . S
C1996 H1969 0.950 . S
C1996 C1982 1.377 . S
C1996 C1995 1.373 . S
C1997 C1981 1.377 . S
C1997 C1995 1.389 . S
C1997 C1998 1.524 . S
C1998 C1997 1.524 . S
C1998 C1999 1.397 . S
C1998 C2003 1.363 . S
C1999 H1970 0.950 . S
C1999 C1998 1.397 . S
C1999 C2000 1.334 . S
C2000 H1971 0.950 . S
C2000 C1999 1.334 . S
C2000 C2001 1.287 . S
C2001 C2000 1.287 . S
C2001 C2002 1.524 . S
C2001 H2004 0.999 . S
C2002 H1972 0.950 . S
C2002 C2001 1.524 . S
C2002 C2003 1.415 . S
C2003 H1973 0.950 . S
C2003 C1998 1.363 . S
C2003 C2002 1.415 . S
H2004 C2001 0.999 . S
H2005 C1986 0.913 . S
H2006 C2024 0.951 . S
H2007 C2026 0.951 . S
H2008 C2028 0.950 . S
H2009 C2029 0.950 . S
H2010 C2031 0.950 . S
H2011 C2034 0.950 . S
H2012 C2035 0.950 . S
H2013 C2037 0.950 . S
H2014 C2038 0.950 . S
H2015 C2039 0.951 . S
H2016 C2041 0.951 . S
H2017 C2043 0.950 . S
H2018 C2044 0.950 . S
H2019 C2046 0.950 . S
H2020 C2049 0.950 . S
H2021 C2050 0.950 . S
H2022 C2052 0.950 . S
H2023 C2053 0.950 . S
C2024 H2006 0.951 . S
C2024 C2025 1.366 . S
C2024 C2026 1.388 . S
C2025 C2024 1.366 . S
C2025 C2029 1.385 . S
C2026 H2007 0.951 . S
C2026 C2024 1.388 . S
C2026 C2027 1.366 . S
C2027 C2026 1.366 . S
C2027 C2028 1.414 . S
C2027 C2030 1.499 . S
C2028 H2008 0.950 . S
C2028 C2027 1.414 . S
C2028 C2029 1.374 . S
C2029 H2009 0.950 . S
C2029 C2025 1.385 . S
C2029 C2028 1.374 . S
C2030 C2027 1.499 . S
C2030 C2031 1.373 . S
C2030 C2032 1.389 . S
C2031 H2010 0.950 . S
C2031 C2030 1.373 . S
C2031 C2047 1.377 . S
C2032 C2030 1.389 . S
C2032 C2033 1.524 . S
C2032 C2046 1.377 . S
C2033 C2032 1.524 . S
C2033 C2034 1.397 . S
C2033 C2038 1.363 . S
C2034 H2011 0.950 . S
C2034 C2033 1.397 . S
C2034 C2035 1.334 . S
C2035 H2012 0.950 . S
C2035 C2034 1.334 . S
C2035 C2036 1.287 . S
C2036 C2035 1.287 . S
C2036 C2037 1.524 . S
C2036 H2055 0.913 . S
C2037 H2013 0.950 . S
C2037 C2036 1.524 . S
C2037 C2038 1.415 . S
C2038 H2014 0.950 . S
C2038 C2033 1.363 . S
C2038 C2037 1.415 . S
C2039 H2015 0.951 . S
C2039 C2040 1.366 . S
C2039 C2041 1.388 . S
C2040 C2039 1.366 . S
C2040 C2044 1.385 . S
C2041 H2016 0.951 . S
C2041 C2039 1.388 . S
C2041 C2042 1.366 . S
C2042 C2041 1.366 . S
C2042 C2043 1.414 . S
C2042 C2045 1.499 . S
C2043 H2017 0.950 . S
C2043 C2042 1.414 . S
C2043 C2044 1.374 . S
C2044 H2018 0.950 . S
C2044 C2040 1.385 . S
C2044 C2043 1.374 . S
C2045 C2042 1.499 . S
C2045 C2046 1.373 . S
C2045 C2047 1.389 . S
C2046 H2019 0.950 . S
C2046 C2032 1.377 . S
C2046 C2045 1.373 . S
C2047 C2031 1.377 . S
C2047 C2045 1.389 . S
C2047 C2048 1.524 . S
C2048 C2047 1.524 . S
C2048 C2049 1.397 . S
C2048 C2053 1.363 . S
C2049 H2020 0.950 . S
C2049 C2048 1.397 . S
C2049 C2050 1.334 . S
C2050 H2021 0.950 . S
C2050 C2049 1.334 . S
C2050 C2051 1.287 . S
C2051 C2050 1.287 . S
C2051 C2052 1.524 . S
C2051 H2054 0.999 . S
C2052 H2022 0.950 . S
C2052 C2051 1.524 . S
C2052 C2053 1.415 . S
C2053 H2023 0.950 . S
C2053 C2048 1.363 . S
C2053 C2052 1.415 . S
H2054 C2051 0.999 . S
H2055 C2036 0.913 . S
H2056 C2074 0.987 . S
H2057 C2076 0.925 1_565 S
H2058 C2078 0.950 . S
H2059 C2079 0.950 . S
H2060 C2081 0.950 . S
H2061 C2084 0.950 1_545 S
H2062 C2085 0.951 . S
H2063 C2087 0.950 . S
H2064 C2088 0.950 . S
H2065 C2089 0.951 . S
H2066 C2091 0.951 . S
H2067 C2093 0.950 1_565 S
H2068 C2094 0.950 1_565 S
H2069 C2096 0.950 1_565 S
H2070 C2099 0.950 . S
H2071 C2100 0.950 . S
H2072 C2102 0.950 . S
H2073 C2103 0.950 . S
C2074 H2056 0.987 . S
C2074 C2075 1.334 1_565 S
C2074 C2076 1.384 1_565 S
C2075 C2074 1.334 1_545 S
C2075 C2079 1.385 . S
C2076 H2057 0.925 1_545 S
C2076 C2074 1.384 1_545 S
C2076 C2077 1.394 . S
C2077 C2076 1.394 . S
C2077 C2078 1.414 . S
C2077 C2080 1.499 . S
C2078 H2058 0.950 . S
C2078 C2077 1.414 . S
C2078 C2079 1.374 . S
C2079 H2059 0.950 . S
C2079 C2075 1.385 . S
C2079 C2078 1.374 . S
C2080 C2077 1.499 . S
C2080 C2081 1.373 . S
C2080 C2082 1.389 . S
C2081 H2060 0.950 . S
C2081 C2080 1.373 . S
C2081 C2097 1.377 . S
C2082 C2080 1.389 . S
C2082 C2083 1.524 1_545 S
C2082 C2096 1.377 . S
C2083 C2082 1.524 1_565 S
C2083 C2084 1.397 . S
C2083 C2088 1.363 . S
C2084 H2061 0.950 1_565 S
C2084 C2083 1.397 . S
C2084 C2085 1.334 . S
C2085 H2062 0.951 . S
C2085 C2084 1.334 . S
C2085 C2086 1.287 . S
C2086 C2085 1.287 . S
C2086 C2087 1.524 . S
C2086 H2105 0.913 . S
C2087 H2063 0.950 . S
C2087 C2086 1.524 . S
C2087 C2088 1.415 . S
C2088 H2064 0.950 . S
C2088 C2083 1.363 . S
C2088 C2087 1.415 . S
C2089 H2065 0.951 . S
C2089 C2090 1.366 . S
C2089 C2091 1.388 1_455 S
C2090 C2089 1.366 . S
C2090 C2094 1.385 1_455 S
C2091 H2066 0.951 . S
C2091 C2089 1.388 1_655 S
C2091 C2092 1.366 . S
C2092 C2091 1.366 . S
C2092 C2093 1.414 . S
C2092 C2095 1.499 . S
C2093 H2067 0.950 1_545 S
C2093 C2092 1.414 . S
C2093 C2094 1.374 . S
C2094 H2068 0.950 1_545 S
C2094 C2090 1.385 1_655 S
C2094 C2093 1.374 . S
C2095 C2092 1.499 . S
C2095 C2096 1.373 . S
C2095 C2097 1.389 . S
C2096 H2069 0.950 1_545 S
C2096 C2082 1.377 . S
C2096 C2095 1.373 . S
C2097 C2081 1.377 . S
C2097 C2095 1.389 . S
C2097 C2098 1.524 . S
C2098 C2097 1.524 . S
C2098 C2099 1.397 . S
C2098 C2103 1.363 . S
C2099 H2070 0.950 . S
C2099 C2098 1.397 . S
C2099 C2100 1.334 . S
C2100 H2071 0.950 . S
C2100 C2099 1.334 . S
C2100 C2101 1.287 . S
C2101 C2100 1.287 . S
C2101 C2102 1.524 . S
C2101 H2104 0.999 . S
C2102 H2072 0.950 . S
C2102 C2101 1.524 . S
C2102 C2103 1.415 . S
C2103 H2073 0.950 . S
C2103 C2098 1.363 . S
C2103 C2102 1.415 . S
H2104 C2101 0.999 . S
H2105 C2086 0.913 . S
H2106 C2124 0.951 . S
H2107 C2126 0.951 . S
H2108 C2128 0.950 . S
H2109 C2129 0.950 . S
H2110 C2131 0.950 . S
H2111 C2134 0.950 . S
H2112 C2135 0.950 . S
H2113 C2137 0.950 . S
H2114 C2138 0.950 . S
H2115 C2139 0.951 . S
H2116 C2141 0.951 . S
H2117 C2143 0.950 . S
H2118 C2144 0.950 . S
H2119 C2146 0.950 . S
H2120 C2149 0.950 . S
H2121 C2150 0.950 . S
H2122 C2152 0.950 . S
H2123 C2153 0.950 . S
C2124 H2106 0.951 . S
C2124 C2125 1.366 . S
C2124 C2126 1.388 . S
C2125 C2124 1.366 . S
C2125 C2129 1.385 . S
C2126 H2107 0.951 . S
C2126 C2124 1.388 . S
C2126 C2127 1.366 . S
C2127 C2126 1.366 . S
C2127 C2128 1.414 . S
C2127 C2130 1.499 . S
C2128 H2108 0.950 . S
C2128 C2127 1.414 . S
C2128 C2129 1.374 . S
C2129 H2109 0.950 . S
C2129 C2125 1.385 . S
C2129 C2128 1.374 . S
C2130 C2127 1.499 . S
C2130 C2131 1.373 . S
C2130 C2132 1.389 . S
C2131 H2110 0.950 . S
C2131 C2130 1.373 . S
C2131 C2147 1.377 . S
C2132 C2130 1.389 . S
C2132 C2133 1.524 . S
C2132 C2146 1.377 . S
C2133 C2132 1.524 . S
C2133 C2134 1.397 . S
C2133 C2138 1.363 . S
C2134 H2111 0.950 . S
C2134 C2133 1.397 . S
C2134 C2135 1.334 . S
C2135 H2112 0.950 . S
C2135 C2134 1.334 . S
C2135 C2136 1.287 . S
C2136 C2135 1.287 . S
C2136 C2137 1.524 . S
C2136 H2155 0.913 . S
C2137 H2113 0.950 . S
C2137 C2136 1.524 . S
C2137 C2138 1.415 . S
C2138 H2114 0.950 . S
C2138 C2133 1.363 . S
C2138 C2137 1.415 . S
C2139 H2115 0.951 . S
C2139 C2140 1.366 . S
C2139 C2141 1.388 . S
C2140 C2139 1.366 . S
C2140 C2144 1.385 . S
C2141 H2116 0.951 . S
C2141 C2139 1.388 . S
C2141 C2142 1.366 . S
C2142 C2141 1.366 . S
C2142 C2143 1.414 . S
C2142 C2145 1.499 . S
C2143 H2117 0.950 . S
C2143 C2142 1.414 . S
C2143 C2144 1.374 . S
C2144 H2118 0.950 . S
C2144 C2140 1.385 . S
C2144 C2143 1.374 . S
C2145 C2142 1.499 . S
C2145 C2146 1.373 . S
C2145 C2147 1.389 . S
C2146 H2119 0.950 . S
C2146 C2132 1.377 . S
C2146 C2145 1.373 . S
C2147 C2131 1.377 . S
C2147 C2145 1.389 . S
C2147 C2148 1.524 . S
C2148 C2147 1.524 . S
C2148 C2149 1.397 . S
C2148 C2153 1.363 . S
C2149 H2120 0.950 . S
C2149 C2148 1.397 . S
C2149 C2150 1.334 . S
C2150 H2121 0.950 . S
C2150 C2149 1.334 . S
C2150 C2151 1.287 . S
C2151 C2150 1.287 . S
C2151 C2152 1.524 . S
C2151 H2154 0.999 . S
C2152 H2122 0.950 . S
C2152 C2151 1.524 . S
C2152 C2153 1.415 . S
C2153 H2123 0.950 . S
C2153 C2148 1.363 . S
C2153 C2152 1.415 . S
H2154 C2151 0.999 . S
H2155 C2136 0.913 . S
H2156 C2174 0.951 . S
H2157 C2176 0.951 . S
H2158 C2178 0.950 . S
H2159 C2179 0.950 . S
H2160 C2181 0.950 . S
H2161 C2184 0.950 . S
H2162 C2185 0.950 . S
H2163 C2187 0.950 . S
H2164 C2188 0.950 . S
H2165 C2189 0.951 . S
H2166 C2191 0.951 . S
H2167 C2193 0.950 . S
H2168 C2194 0.950 . S
H2169 C2196 0.950 . S
H2170 C2199 0.950 . S
H2171 C2200 0.950 . S
H2172 C2202 0.950 . S
H2173 C2203 0.950 . S
C2174 H2156 0.951 . S
C2174 C2175 1.366 . S
C2174 C2176 1.388 . S
C2175 C2174 1.366 . S
C2175 C2179 1.385 . S
C2176 H2157 0.951 . S
C2176 C2174 1.388 . S
C2176 C2177 1.366 . S
C2177 C2176 1.366 . S
C2177 C2178 1.414 . S
C2177 C2180 1.499 . S
C2178 H2158 0.950 . S
C2178 C2177 1.414 . S
C2178 C2179 1.374 . S
C2179 H2159 0.950 . S
C2179 C2175 1.385 . S
C2179 C2178 1.374 . S
C2180 C2177 1.499 . S
C2180 C2181 1.373 . S
C2180 C2182 1.389 . S
C2181 H2160 0.950 . S
C2181 C2180 1.373 . S
C2181 C2197 1.377 . S
C2182 C2180 1.389 . S
C2182 C2183 1.524 1_545 S
C2182 C2196 1.377 . S
C2183 C2182 1.524 1_565 S
C2183 C2184 1.397 . S
C2183 C2188 1.363 . S
C2184 H2161 0.950 . S
C2184 C2183 1.397 . S
C2184 C2185 1.334 . S
C2185 H2162 0.950 . S
C2185 C2184 1.334 . S
C2185 C2186 1.287 . S
C2186 C2185 1.287 . S
C2186 C2187 1.524 . S
C2186 H2205 0.913 . S
C2187 H2163 0.950 . S
C2187 C2186 1.524 . S
C2187 C2188 1.415 . S
C2188 H2164 0.950 . S
C2188 C2183 1.363 . S
C2188 C2187 1.415 . S
C2189 H2165 0.951 . S
C2189 C2190 1.366 . S
C2189 C2191 1.388 . S
C2190 C2189 1.366 . S
C2190 C2194 1.385 . S
C2191 H2166 0.951 . S
C2191 C2189 1.388 . S
C2191 C2192 1.366 . S
C2192 C2191 1.366 . S
C2192 C2193 1.414 . S
C2192 C2195 1.499 . S
C2193 H2167 0.950 . S
C2193 C2192 1.414 . S
C2193 C2194 1.374 . S
C2194 H2168 0.950 . S
C2194 C2190 1.385 . S
C2194 C2193 1.374 . S
C2195 C2192 1.499 . S
C2195 C2196 1.373 . S
C2195 C2197 1.389 . S
C2196 H2169 0.950 . S
C2196 C2182 1.377 . S
C2196 C2195 1.373 . S
C2197 C2181 1.377 . S
C2197 C2195 1.389 . S
C2197 C2198 1.524 . S
C2198 C2197 1.524 . S
C2198 C2199 1.397 . S
C2198 C2203 1.363 . S
C2199 H2170 0.950 . S
C2199 C2198 1.397 . S
C2199 C2200 1.334 . S
C2200 H2171 0.950 . S
C2200 C2199 1.334 . S
C2200 C2201 1.287 . S
C2201 C2200 1.287 . S
C2201 C2202 1.524 . S
C2201 H2204 0.999 . S
C2202 H2172 0.950 . S
C2202 C2201 1.524 . S
C2202 C2203 1.415 . S
C2203 H2173 0.950 . S
C2203 C2198 1.363 . S
C2203 C2202 1.415 . S
H2204 C2201 0.999 . S
H2205 C2186 0.913 . S
H2206 C2224 0.951 . S
H2207 C2226 0.951 . S
H2208 C2228 0.950 . S
H2209 C2229 0.950 . S
H2210 C2231 0.950 . S
H2211 C2234 0.950 . S
H2212 C2235 0.950 . S
H2213 C2237 0.950 . S
H2214 C2238 0.950 . S
H2215 C2239 0.951 . S
H2216 C2241 0.951 . S
H2217 C2243 0.950 . S
H2218 C2244 0.950 . S
H2219 C2246 0.950 . S
H2220 C2249 0.950 . S
H2221 C2250 0.950 . S
H2222 C2252 0.950 . S
H2223 C2253 0.950 . S
C2224 H2206 0.951 . S
C2224 C2225 1.366 . S
C2224 C2226 1.388 . S
C2225 C2224 1.366 . S
C2225 C2229 1.385 . S
C2226 H2207 0.951 . S
C2226 C2224 1.388 . S
C2226 C2227 1.366 . S
C2227 C2226 1.366 . S
C2227 C2228 1.414 . S
C2227 C2230 1.499 . S
C2228 H2208 0.950 . S
C2228 C2227 1.414 . S
C2228 C2229 1.374 . S
C2229 H2209 0.950 . S
C2229 C2225 1.385 . S
C2229 C2228 1.374 . S
C2230 C2227 1.499 . S
C2230 C2231 1.373 . S
C2230 C2232 1.389 . S
C2231 H2210 0.950 . S
C2231 C2230 1.373 . S
C2231 C2247 1.377 . S
C2232 C2230 1.389 . S
C2232 C2233 1.524 . S
C2232 C2246 1.377 . S
C2233 C2232 1.524 . S
C2233 C2234 1.397 . S
C2233 C2238 1.363 . S
C2234 H2211 0.950 . S
C2234 C2233 1.397 . S
C2234 C2235 1.334 . S
C2235 H2212 0.950 . S
C2235 C2234 1.334 . S
C2235 C2236 1.287 . S
C2236 C2235 1.287 . S
C2236 C2237 1.524 . S
C2236 H2255 0.913 . S
C2237 H2213 0.950 . S
C2237 C2236 1.524 . S
C2237 C2238 1.415 . S
C2238 H2214 0.950 . S
C2238 C2233 1.363 . S
C2238 C2237 1.415 . S
C2239 H2215 0.951 . S
C2239 C2240 1.366 . S
C2239 C2241 1.388 . S
C2240 C2239 1.366 . S
C2240 C2244 1.385 . S
C2241 H2216 0.951 . S
C2241 C2239 1.388 . S
C2241 C2242 1.366 . S
C2242 C2241 1.366 . S
C2242 C2243 1.414 . S
C2242 C2245 1.499 . S
C2243 H2217 0.950 . S
C2243 C2242 1.414 . S
C2243 C2244 1.374 . S
C2244 H2218 0.950 . S
C2244 C2240 1.385 . S
C2244 C2243 1.374 . S
C2245 C2242 1.499 . S
C2245 C2246 1.373 . S
C2245 C2247 1.389 . S
C2246 H2219 0.950 . S
C2246 C2232 1.377 . S
C2246 C2245 1.373 . S
C2247 C2231 1.377 . S
C2247 C2245 1.389 . S
C2247 C2248 1.524 . S
C2248 C2247 1.524 . S
C2248 C2249 1.397 . S
C2248 C2253 1.363 . S
C2249 H2220 0.950 . S
C2249 C2248 1.397 . S
C2249 C2250 1.334 . S
C2250 H2221 0.950 . S
C2250 C2249 1.334 . S
C2250 C2251 1.287 . S
C2251 C2250 1.287 . S
C2251 C2252 1.524 . S
C2251 H2254 0.999 . S
C2252 H2222 0.950 . S
C2252 C2251 1.524 . S
C2252 C2253 1.415 . S
C2253 H2223 0.950 . S
C2253 C2248 1.363 . S
C2253 C2252 1.415 . S
H2254 C2251 0.999 . S
H2255 C2236 0.913 . S
H2256 C2274 0.951 . S
H2257 C2276 0.951 . S
H2258 C2278 0.950 . S
H2259 C2279 0.950 . S
H2260 C2281 0.950 1_565 S
H2261 C2284 0.950 . S
H2262 C2285 0.950 . S
H2263 C2287 0.950 . S
H2264 C2288 0.950 . S
H2265 C2289 0.951 . S
H2266 C2291 0.951 . S
H2267 C2293 0.950 . S
H2268 C2294 0.950 . S
H2269 C2296 0.950 . S
H2270 C2299 0.950 . S
H2271 C2300 0.950 . S
H2272 C2302 0.950 . S
H2273 C2303 0.950 . S
C2274 H2256 0.951 . S
C2274 C2275 1.366 . S
C2274 C2276 1.388 . S
C2275 C2274 1.366 . S
C2275 C2279 1.385 . S
C2276 H2257 0.951 . S
C2276 C2274 1.388 . S
C2276 C2277 1.366 . S
C2277 C2276 1.366 . S
C2277 C2278 1.414 . S
C2277 C2280 1.499 . S
C2278 H2258 0.950 . S
C2278 C2277 1.414 . S
C2278 C2279 1.374 . S
C2279 H2259 0.950 . S
C2279 C2275 1.385 . S
C2279 C2278 1.374 . S
C2280 C2277 1.499 . S
C2280 C2281 1.373 . S
C2280 C2282 1.389 . S
C2281 H2260 0.950 1_545 S
C2281 C2280 1.373 . S
C2281 C2297 1.377 . S
C2282 C2280 1.389 . S
C2282 C2283 1.524 . S
C2282 C2296 1.377 . S
C2283 C2282 1.524 . S
C2283 C2284 1.397 . S
C2283 C2288 1.363 . S
C2284 H2261 0.950 . S
C2284 C2283 1.397 . S
C2284 C2285 1.334 . S
C2285 H2262 0.950 . S
C2285 C2284 1.334 . S
C2285 C2286 1.287 . S
C2286 C2285 1.287 . S
C2286 C2287 1.524 . S
C2286 H2305 0.913 . S
C2287 H2263 0.950 . S
C2287 C2286 1.524 . S
C2287 C2288 1.415 . S
C2288 H2264 0.950 . S
C2288 C2283 1.363 . S
C2288 C2287 1.415 . S
C2289 H2265 0.951 . S
C2289 C2290 1.366 . S
C2289 C2291 1.388 . S
C2290 C2289 1.366 . S
C2290 C2294 1.385 1_455 S
C2291 H2266 0.951 . S
C2291 C2289 1.388 . S
C2291 C2292 1.366 1_455 S
C2292 C2291 1.366 1_655 S
C2292 C2293 1.414 . S
C2292 C2295 1.499 . S
C2293 H2267 0.950 . S
C2293 C2292 1.414 . S
C2293 C2294 1.374 . S
C2294 H2268 0.950 . S
C2294 C2290 1.385 1_655 S
C2294 C2293 1.374 . S
C2295 C2292 1.499 . S
C2295 C2296 1.373 . S
C2295 C2297 1.389 . S
C2296 H2269 0.950 . S
C2296 C2282 1.377 . S
C2296 C2295 1.373 . S
C2297 C2281 1.377 . S
C2297 C2295 1.389 . S
C2297 C2298 1.524 1_545 S
C2298 C2297 1.524 1_565 S
C2298 C2299 1.397 . S
C2298 C2303 1.363 . S
C2299 H2270 0.950 . S
C2299 C2298 1.397 . S
C2299 C2300 1.334 . S
C2300 H2271 0.950 . S
C2300 C2299 1.334 . S
C2300 C2301 1.287 . S
C2301 C2300 1.287 . S
C2301 C2302 1.524 . S
C2301 H2304 0.999 . S
C2302 H2272 0.950 . S
C2302 C2301 1.524 . S
C2302 C2303 1.415 . S
C2303 H2273 0.950 . S
C2303 C2298 1.363 . S
C2303 C2302 1.415 . S
H2304 C2301 0.999 . S
H2305 C2286 0.913 . S
H2306 C2324 0.951 . S
H2307 C2326 0.951 . S
H2308 C2328 0.950 . S
H2309 C2329 0.950 . S
H2310 C2331 0.950 . S
H2311 C2334 0.950 . S
H2312 C2335 0.950 . S
H2313 C2337 0.950 . S
H2314 C2338 0.950 . S
H2315 C2339 0.951 . S
H2316 C2341 0.951 . S
H2317 C2343 0.950 . S
H2318 C2344 0.950 . S
H2319 C2346 0.950 . S
H2320 C2349 0.950 . S
H2321 C2350 0.950 . S
H2322 C2352 0.950 . S
H2323 C2353 0.950 . S
C2324 H2306 0.951 . S
C2324 C2325 1.366 . S
C2324 C2326 1.388 . S
C2325 C2324 1.366 . S
C2325 C2329 1.385 . S
C2326 H2307 0.951 . S
C2326 C2324 1.388 . S
C2326 C2327 1.366 . S
C2327 C2326 1.366 . S
C2327 C2328 1.414 . S
C2327 C2330 1.499 . S
C2328 H2308 0.950 . S
C2328 C2327 1.414 . S
C2328 C2329 1.374 . S
C2329 H2309 0.950 . S
C2329 C2325 1.385 . S
C2329 C2328 1.374 . S
C2330 C2327 1.499 . S
C2330 C2331 1.373 . S
C2330 C2332 1.389 . S
C2331 H2310 0.950 . S
C2331 C2330 1.373 . S
C2331 C2347 1.377 . S
C2332 C2330 1.389 . S
C2332 C2333 1.524 . S
C2332 C2346 1.377 . S
C2333 C2332 1.524 . S
C2333 C2334 1.397 . S
C2333 C2338 1.363 . S
C2334 H2311 0.950 . S
C2334 C2333 1.397 . S
C2334 C2335 1.334 . S
C2335 H2312 0.950 . S
C2335 C2334 1.334 . S
C2335 C2336 1.287 . S
C2336 C2335 1.287 . S
C2336 C2337 1.524 . S
C2336 H2355 0.913 . S
C2337 H2313 0.950 . S
C2337 C2336 1.524 . S
C2337 C2338 1.415 . S
C2338 H2314 0.950 . S
C2338 C2333 1.363 . S
C2338 C2337 1.415 . S
C2339 H2315 0.951 . S
C2339 C2340 1.366 . S
C2339 C2341 1.388 . S
C2340 C2339 1.366 . S
C2340 C2344 1.385 . S
C2341 H2316 0.951 . S
C2341 C2339 1.388 . S
C2341 C2342 1.366 . S
C2342 C2341 1.366 . S
C2342 C2343 1.414 . S
C2342 C2345 1.499 . S
C2343 H2317 0.950 . S
C2343 C2342 1.414 . S
C2343 C2344 1.374 . S
C2344 H2318 0.950 . S
C2344 C2340 1.385 . S
C2344 C2343 1.374 . S
C2345 C2342 1.499 . S
C2345 C2346 1.373 . S
C2345 C2347 1.389 . S
C2346 H2319 0.950 . S
C2346 C2332 1.377 . S
C2346 C2345 1.373 . S
C2347 C2331 1.377 . S
C2347 C2345 1.389 . S
C2347 C2348 1.524 . S
C2348 C2347 1.524 . S
C2348 C2349 1.397 . S
C2348 C2353 1.363 . S
C2349 H2320 0.950 . S
C2349 C2348 1.397 . S
C2349 C2350 1.334 . S
C2350 H2321 0.950 . S
C2350 C2349 1.334 . S
C2350 C2351 1.287 . S
C2351 C2350 1.287 . S
C2351 C2352 1.524 . S
C2351 H2354 0.999 . S
C2352 H2322 0.950 . S
C2352 C2351 1.524 . S
C2352 C2353 1.415 . S
C2353 H2323 0.950 . S
C2353 C2348 1.363 . S
C2353 C2352 1.415 . S
H2354 C2351 0.999 . S
H2355 C2336 0.913 . S
H2356 C2374 0.951 . S
H2357 C2376 0.951 . S
H2358 C2378 0.950 . S
H2359 C2379 0.950 . S
H2360 C2381 0.950 . S
H2361 C2384 0.950 . S
H2362 C2385 0.950 . S
H2363 C2387 0.950 . S
H2364 C2388 0.950 . S
H2365 C2389 0.951 . S
H2366 C2391 0.951 . S
H2367 C2393 0.950 . S
H2368 C2394 0.950 . S
H2369 C2396 0.950 . S
H2370 C2399 0.950 . S
H2371 C2400 0.950 . S
H2372 C2402 0.950 1_565 S
H2373 C2403 0.950 . S
C2374 H2356 0.951 . S
C2374 C2375 1.366 . S
C2374 C2376 1.388 . S
C2375 C2374 1.366 . S
C2375 C2379 1.385 . S
C2376 H2357 0.951 . S
C2376 C2374 1.388 . S
C2376 C2377 1.366 . S
C2377 C2376 1.366 . S
C2377 C2378 1.414 . S
C2377 C2380 1.499 . S
C2378 H2358 0.950 . S
C2378 C2377 1.414 . S
C2378 C2379 1.374 . S
C2379 H2359 0.950 . S
C2379 C2375 1.385 . S
C2379 C2378 1.374 . S
C2380 C2377 1.499 . S
C2380 C2381 1.373 . S
C2380 C2382 1.389 . S
C2381 H2360 0.950 . S
C2381 C2380 1.373 . S
C2381 C2397 1.377 . S
C2382 C2380 1.389 . S
C2382 C2383 1.524 . S
C2382 C2396 1.377 . S
C2383 C2382 1.524 . S
C2383 C2384 1.397 . S
C2383 C2388 1.363 . S
C2384 H2361 0.950 . S
C2384 C2383 1.397 . S
C2384 C2385 1.334 . S
C2385 H2362 0.950 . S
C2385 C2384 1.334 . S
C2385 C2386 1.287 . S
C2386 C2385 1.287 . S
C2386 C2387 1.524 . S
C2386 H2405 0.913 . S
C2387 H2363 0.950 . S
C2387 C2386 1.524 . S
C2387 C2388 1.415 . S
C2388 H2364 0.950 . S
C2388 C2383 1.363 . S
C2388 C2387 1.415 . S
C2389 H2365 0.951 . S
C2389 C2390 1.366 . S
C2389 C2391 1.388 . S
C2390 C2389 1.366 . S
C2390 C2394 1.385 . S
C2391 H2366 0.951 . S
C2391 C2389 1.388 . S
C2391 C2392 1.366 . S
C2392 C2391 1.366 . S
C2392 C2393 1.414 . S
C2392 C2395 1.499 . S
C2393 H2367 0.950 . S
C2393 C2392 1.414 . S
C2393 C2394 1.374 . S
C2394 H2368 0.950 . S
C2394 C2390 1.385 . S
C2394 C2393 1.374 . S
C2395 C2392 1.499 . S
C2395 C2396 1.373 . S
C2395 C2397 1.389 . S
C2396 H2369 0.950 . S
C2396 C2382 1.377 . S
C2396 C2395 1.373 . S
C2397 C2381 1.377 . S
C2397 C2395 1.389 . S
C2397 C2398 1.524 . S
C2398 C2397 1.524 . S
C2398 C2399 1.397 . S
C2398 C2403 1.363 . S
C2399 H2370 0.950 . S
C2399 C2398 1.397 . S
C2399 C2400 1.334 . S
C2400 H2371 0.950 . S
C2400 C2399 1.334 . S
C2400 C2401 1.287 . S
C2401 C2400 1.287 . S
C2401 C2402 1.524 . S
C2401 H2404 0.999 . S
C2402 H2372 0.950 1_545 S
C2402 C2401 1.524 . S
C2402 C2403 1.415 . S
C2403 H2373 0.950 . S
C2403 C2398 1.363 . S
C2403 C2402 1.415 . S
H2404 C2401 0.999 . S
H2405 C2386 0.913 . S
H2406 C2424 0.951 . S
H2407 C2426 0.951 . S
H2408 C2428 0.950 . S
H2409 C2429 0.950 . S
H2410 C2431 0.950 . S
H2411 C2434 0.950 . S
H2412 C2435 0.950 . S
H2413 C2437 0.950 . S
H2414 C2438 0.950 . S
H2415 C2439 0.951 . S
H2416 C2441 0.951 . S
H2417 C2443 0.950 . S
H2418 C2444 0.950 . S
H2419 C2446 0.950 . S
H2420 C2449 0.950 . S
H2421 C2450 0.950 . S
H2422 C2452 0.950 . S
H2423 C2453 0.950 . S
C2424 H2406 0.951 . S
C2424 C2425 1.366 . S
C2424 C2426 1.388 . S
C2425 C2424 1.366 . S
C2425 C2429 1.385 . S
C2426 H2407 0.951 . S
C2426 C2424 1.388 . S
C2426 C2427 1.366 . S
C2427 C2426 1.366 . S
C2427 C2428 1.414 . S
C2427 C2430 1.499 . S
C2428 H2408 0.950 . S
C2428 C2427 1.414 . S
C2428 C2429 1.374 . S
C2429 H2409 0.950 . S
C2429 C2425 1.385 . S
C2429 C2428 1.374 . S
C2430 C2427 1.499 . S
C2430 C2431 1.373 . S
C2430 C2432 1.389 . S
C2431 H2410 0.950 . S
C2431 C2430 1.373 . S
C2431 C2447 1.377 . S
C2432 C2430 1.389 . S
C2432 C2433 1.524 . S
C2432 C2446 1.377 . S
C2433 C2432 1.524 . S
C2433 C2434 1.397 . S
C2433 C2438 1.363 . S
C2434 H2411 0.950 . S
C2434 C2433 1.397 . S
C2434 C2435 1.334 . S
C2435 H2412 0.950 . S
C2435 C2434 1.334 . S
C2435 C2436 1.287 . S
C2436 C2435 1.287 . S
C2436 C2437 1.524 . S
C2436 H2455 0.913 . S
C2437 H2413 0.950 . S
C2437 C2436 1.524 . S
C2437 C2438 1.415 . S
C2438 H2414 0.950 . S
C2438 C2433 1.363 . S
C2438 C2437 1.415 . S
C2439 H2415 0.951 . S
C2439 C2440 1.366 . S
C2439 C2441 1.388 . S
C2440 C2439 1.366 . S
C2440 C2444 1.385 . S
C2441 H2416 0.951 . S
C2441 C2439 1.388 . S
C2441 C2442 1.366 . S
C2442 C2441 1.366 . S
C2442 C2443 1.414 . S
C2442 C2445 1.499 . S
C2443 H2417 0.950 . S
C2443 C2442 1.414 . S
C2443 C2444 1.374 . S
C2444 H2418 0.950 . S
C2444 C2440 1.385 . S
C2444 C2443 1.374 . S
C2445 C2442 1.499 . S
C2445 C2446 1.373 . S
C2445 C2447 1.389 . S
C2446 H2419 0.950 . S
C2446 C2432 1.377 . S
C2446 C2445 1.373 . S
C2447 C2431 1.377 . S
C2447 C2445 1.389 . S
C2447 C2448 1.524 . S
C2448 C2447 1.524 . S
C2448 C2449 1.397 . S
C2448 C2453 1.363 . S
C2449 H2420 0.950 . S
C2449 C2448 1.397 . S
C2449 C2450 1.334 . S
C2450 H2421 0.950 . S
C2450 C2449 1.334 . S
C2450 C2451 1.287 . S
C2451 C2450 1.287 . S
C2451 C2452 1.524 . S
C2451 H2454 0.999 . S
C2452 H2422 0.950 . S
C2452 C2451 1.524 . S
C2452 C2453 1.415 . S
C2453 H2423 0.950 . S
C2453 C2448 1.363 . S
C2453 C2452 1.415 . S
H2454 C2451 0.999 . S
H2455 C2436 0.913 . S
H2456 C2474 0.951 . S
H2457 C2476 0.951 . S
H2458 C2478 0.950 . S
H2459 C2479 0.950 . S
H2460 C2481 0.950 . S
H2461 C2484 0.950 . S
H2462 C2485 0.950 . S
H2463 C2487 0.950 . S
H2464 C2488 0.950 . S
H2465 C2489 0.951 1_556 S
H2466 C2491 0.951 1_556 S
H2467 C2493 0.958 . S
H2468 C2494 0.964 . S
H2469 C2496 0.950 . S
H2470 C2499 0.950 . S
H2471 C2500 0.950 . S
H2472 C2502 0.950 . S
H2473 C2503 0.950 . S
C2474 H2456 0.951 . S
C2474 C2475 1.366 1_554 S
C2474 C2476 1.388 . S
C2475 C2474 1.366 1_556 S
C2475 C2479 1.385 . S
C2476 H2457 0.951 . S
C2476 C2474 1.388 . S
C2476 C2477 1.366 . S
C2477 C2476 1.366 . S
C2477 C2478 1.414 1_554 S
C2477 C2480 1.499 . S
C2478 H2458 0.950 . S
C2478 C2477 1.414 1_556 S
C2478 C2479 1.374 . S
C2479 H2459 0.950 . S
C2479 C2475 1.385 . S
C2479 C2478 1.374 . S
C2480 C2477 1.499 . S
C2480 C2481 1.373 1_554 S
C2480 C2482 1.389 . S
C2481 H2460 0.950 . S
C2481 C2480 1.373 1_556 S
C2481 C2497 1.377 . S
C2482 C2480 1.389 . S
C2482 C2483 1.524 . S
C2482 C2496 1.377 . S
C2483 C2482 1.524 . S
C2483 C2484 1.397 . S
C2483 C2488 1.363 . S
C2484 H2461 0.950 . S
C2484 C2483 1.397 . S
C2484 C2485 1.334 . S
C2485 H2462 0.950 . S
C2485 C2484 1.334 . S
C2485 C2486 1.287 . S
C2486 C2485 1.287 . S
C2486 C2487 1.524 . S
C2486 H2505 0.913 . S
C2487 H2463 0.950 . S
C2487 C2486 1.524 . S
C2487 C2488 1.415 . S
C2488 H2464 0.950 . S
C2488 C2483 1.363 . S
C2488 C2487 1.415 . S
C2489 H2465 0.951 1_554 S
C2489 C2490 1.366 . S
C2489 C2491 1.388 . S
C2490 C2489 1.366 . S
C2490 C2494 1.381 1_565 S
C2491 H2466 0.951 1_554 S
C2491 C2489 1.388 . S
C2491 C2492 1.366 . S
C2492 C2491 1.366 . S
C2492 C2493 1.414 . S
C2492 C2495 1.499 . S
C2493 H2467 0.958 . S
C2493 C2492 1.414 . S
C2493 C2494 1.363 1_565 S
C2494 H2468 0.964 . S
C2494 C2490 1.381 1_545 S
C2494 C2493 1.363 1_545 S
C2495 C2492 1.499 . S
C2495 C2496 1.373 . S
C2495 C2497 1.389 1_554 S
C2496 H2469 0.950 . S
C2496 C2482 1.377 . S
C2496 C2495 1.373 . S
C2497 C2481 1.377 . S
C2497 C2495 1.389 1_556 S
C2497 C2498 1.524 . S
C2498 C2497 1.524 . S
C2498 C2499 1.397 1_565 S
C2498 C2503 1.363 . S
C2499 H2470 0.950 . S
C2499 C2498 1.397 1_545 S
C2499 C2500 1.334 . S
C2500 H2471 0.950 . S
C2500 C2499 1.334 . S
C2500 C2501 1.296 . S
C2501 C2500 1.296 . S
C2501 C2502 1.501 1_545 S
C2501 H2504 1.013 . S
C2502 H2472 0.950 . S
C2502 C2501 1.501 1_565 S
C2502 C2503 1.415 . S
C2503 H2473 0.950 . S
C2503 C2498 1.363 . S
C2503 C2502 1.415 . S
H2504 C2501 1.013 . S
H2505 C2486 0.913 . S
H2506 C2524 0.951 . S
H2507 C2526 0.951 . S
H2508 C2528 0.950 . S
H2509 C2529 0.950 . S
H2510 C2531 0.950 . S
H2511 C2534 0.950 . S
H2512 C2535 0.950 . S
H2513 C2537 0.950 . S
H2514 C2538 0.950 . S
H2515 C2539 0.951 . S
H2516 C2541 0.951 . S
H2517 C2543 0.950 . S
H2518 C2544 0.950 . S
H2519 C2546 0.950 . S
H2520 C2549 0.950 1_554 S
H2521 C2550 0.950 . S
H2522 C2552 0.950 . S
H2523 C2553 0.950 . S
C2524 H2506 0.951 . S
C2524 C2525 1.366 . S
C2524 C2526 1.388 . S
C2525 C2524 1.366 . S
C2525 C2529 1.385 1_554 S
C2526 H2507 0.951 . S
C2526 C2524 1.388 . S
C2526 C2527 1.366 . S
C2527 C2526 1.366 . S
C2527 C2528 1.414 1_554 S
C2527 C2530 1.499 . S
C2528 H2508 0.950 . S
C2528 C2527 1.414 1_556 S
C2528 C2529 1.374 . S
C2529 H2509 0.950 . S
C2529 C2525 1.385 1_556 S
C2529 C2528 1.374 . S
C2530 C2527 1.499 . S
C2530 C2531 1.373 1_554 S
C2530 C2532 1.389 . S
C2531 H2510 0.950 . S
C2531 C2530 1.373 1_556 S
C2531 C2547 1.377 . S
C2532 C2530 1.389 . S
C2532 C2533 1.524 . S
C2532 C2546 1.377 . S
C2533 C2532 1.524 . S
C2533 C2534 1.397 . S
C2533 C2538 1.363 . S
C2534 H2511 0.950 . S
C2534 C2533 1.397 . S
C2534 C2535 1.334 . S
C2535 H2512 0.950 . S
C2535 C2534 1.334 . S
C2535 C2536 1.287 . S
C2536 C2535 1.287 . S
C2536 C2537 1.524 . S
C2536 H2555 0.913 . S
C2537 H2513 0.950 . S
C2537 C2536 1.524 . S
C2537 C2538 1.415 . S
C2538 H2514 0.950 . S
C2538 C2533 1.363 . S
C2538 C2537 1.415 . S
C2539 H2515 0.951 . S
C2539 C2540 1.366 1_556 S
C2539 C2541 1.388 . S
C2540 C2539 1.366 1_554 S
C2540 C2544 1.385 . S
C2541 H2516 0.951 . S
C2541 C2539 1.388 . S
C2541 C2542 1.366 1_556 S
C2542 C2541 1.366 1_554 S
C2542 C2543 1.414 . S
C2542 C2545 1.499 . S
C2543 H2517 0.950 . S
C2543 C2542 1.414 . S
C2543 C2544 1.374 . S
C2544 H2518 0.950 . S
C2544 C2540 1.385 . S
C2544 C2543 1.374 . S
C2545 C2542 1.499 . S
C2545 C2546 1.373 . S
C2545 C2547 1.389 1_554 S
C2546 H2519 0.950 . S
C2546 C2532 1.377 . S
C2546 C2545 1.373 . S
C2547 C2531 1.377 . S
C2547 C2545 1.389 1_556 S
C2547 C2548 1.524 . S
C2548 C2547 1.524 . S
C2548 C2549 1.397 . S
C2548 C2553 1.363 . S
C2549 H2520 0.950 1_556 S
C2549 C2548 1.397 . S
C2549 C2550 1.334 . S
C2550 H2521 0.950 . S
C2550 C2549 1.334 . S
C2550 C2551 1.287 . S
C2551 C2550 1.287 . S
C2551 C2552 1.524 . S
C2551 H2554 0.999 . S
C2552 H2522 0.950 . S
C2552 C2551 1.524 . S
C2552 C2553 1.415 . S
C2553 H2523 0.950 . S
C2553 C2548 1.363 . S
C2553 C2552 1.415 . S
H2554 C2551 0.999 . S
H2555 C2536 0.913 . S
H2556 C2574 0.951 . S
H2557 C2576 0.951 . S
H2558 C2578 0.950 . S
H2559 C2579 0.950 . S
H2560 C2581 0.950 . S
H2561 C2584 0.950 . S
H2562 C2585 0.950 . S
H2563 C2587 0.950 . S
H2564 C2588 0.950 . S
H2565 C2589 0.951 . S
H2566 C2591 0.951 . S
H2567 C2593 0.950 . S
H2568 C2594 0.950 . S
H2569 C2596 0.950 . S
H2570 C2599 0.950 . S
H2571 C2600 0.950 . S
H2572 C2602 0.950 . S
H2573 C2603 0.950 . S
C2574 H2556 0.951 . S
C2574 C2575 1.366 . S
C2574 C2576 1.388 . S
C2575 C2574 1.366 . S
C2575 C2579 1.385 . S
C2576 H2557 0.951 . S
C2576 C2574 1.388 . S
C2576 C2577 1.366 . S
C2577 C2576 1.366 . S
C2577 C2578 1.414 . S
C2577 C2580 1.499 . S
C2578 H2558 0.950 . S
C2578 C2577 1.414 . S
C2578 C2579 1.374 . S
C2579 H2559 0.950 . S
C2579 C2575 1.385 . S
C2579 C2578 1.374 . S
C2580 C2577 1.499 . S
C2580 C2581 1.373 . S
C2580 C2582 1.389 . S
C2581 H2560 0.950 . S
C2581 C2580 1.373 . S
C2581 C2597 1.377 . S
C2582 C2580 1.389 . S
C2582 C2583 1.524 . S
C2582 C2596 1.377 . S
C2583 C2582 1.524 . S
C2583 C2584 1.397 . S
C2583 C2588 1.363 . S
C2584 H2561 0.950 . S
C2584 C2583 1.397 . S
C2584 C2585 1.334 . S
C2585 H2562 0.950 . S
C2585 C2584 1.334 . S
C2585 C2586 1.287 . S
C2586 C2585 1.287 . S
C2586 C2587 1.524 . S
C2586 H2605 0.913 . S
C2587 H2563 0.950 . S
C2587 C2586 1.524 . S
C2587 C2588 1.415 . S
C2588 H2564 0.950 . S
C2588 C2583 1.363 . S
C2588 C2587 1.415 . S
C2589 H2565 0.951 . S
C2589 C2590 1.366 . S
C2589 C2591 1.388 . S
C2590 C2589 1.366 . S
C2590 C2594 1.385 . S
C2591 H2566 0.951 . S
C2591 C2589 1.388 . S
C2591 C2592 1.366 . S
C2592 C2591 1.366 . S
C2592 C2593 1.414 . S
C2592 C2595 1.499 . S
C2593 H2567 0.950 . S
C2593 C2592 1.414 . S
C2593 C2594 1.374 . S
C2594 H2568 0.950 . S
C2594 C2590 1.385 . S
C2594 C2593 1.374 . S
C2595 C2592 1.499 . S
C2595 C2596 1.373 . S
C2595 C2597 1.389 . S
C2596 H2569 0.950 . S
C2596 C2582 1.377 . S
C2596 C2595 1.373 . S
C2597 C2581 1.377 . S
C2597 C2595 1.389 . S
C2597 C2598 1.524 . S
C2598 C2597 1.524 . S
C2598 C2599 1.397 . S
C2598 C2603 1.363 . S
C2599 H2570 0.950 . S
C2599 C2598 1.397 . S
C2599 C2600 1.334 . S
C2600 H2571 0.950 . S
C2600 C2599 1.334 . S
C2600 C2601 1.287 . S
C2601 C2600 1.287 . S
C2601 C2602 1.524 . S
C2601 H2604 0.999 . S
C2602 H2572 0.950 . S
C2602 C2601 1.524 . S
C2602 C2603 1.415 . S
C2603 H2573 0.950 . S
C2603 C2598 1.363 . S
C2603 C2602 1.415 . S
H2604 C2601 0.999 . S
H2605 C2586 0.913 . S
H2606 C2624 0.951 . S
H2607 C2626 0.951 . S
H2608 C2628 0.950 . S
H2609 C2629 0.950 . S
H2610 C2631 0.950 . S
H2611 C2634 0.950 . S
H2612 C2635 0.950 . S
H2613 C2637 0.950 . S
H2614 C2638 0.950 . S
H2615 C2639 0.951 . S
H2616 C2641 0.951 . S
H2617 C2643 0.950 . S
H2618 C2644 0.950 . S
H2619 C2646 0.950 . S
H2620 C2649 0.950 . S
H2621 C2650 0.950 . S
H2622 C2652 0.950 . S
H2623 C2653 0.950 . S
C2624 H2606 0.951 . S
C2624 C2625 1.366 . S
C2624 C2626 1.388 . S
C2625 C2624 1.366 . S
C2625 C2629 1.385 . S
C2626 H2607 0.951 . S
C2626 C2624 1.388 . S
C2626 C2627 1.366 . S
C2627 C2626 1.366 . S
C2627 C2628 1.414 . S
C2627 C2630 1.499 . S
C2628 H2608 0.950 . S
C2628 C2627 1.414 . S
C2628 C2629 1.374 . S
C2629 H2609 0.950 . S
C2629 C2625 1.385 . S
C2629 C2628 1.374 . S
C2630 C2627 1.499 . S
C2630 C2631 1.373 . S
C2630 C2632 1.389 . S
C2631 H2610 0.950 . S
C2631 C2630 1.373 . S
C2631 C2647 1.377 . S
C2632 C2630 1.389 . S
C2632 C2633 1.524 . S
C2632 C2646 1.377 . S
C2633 C2632 1.524 . S
C2633 C2634 1.397 . S
C2633 C2638 1.363 . S
C2634 H2611 0.950 . S
C2634 C2633 1.397 . S
C2634 C2635 1.334 . S
C2635 H2612 0.950 . S
C2635 C2634 1.334 . S
C2635 C2636 1.287 . S
C2636 C2635 1.287 . S
C2636 C2637 1.524 . S
C2636 H2655 0.913 . S
C2637 H2613 0.950 . S
C2637 C2636 1.524 . S
C2637 C2638 1.415 . S
C2638 H2614 0.950 . S
C2638 C2633 1.363 . S
C2638 C2637 1.415 . S
C2639 H2615 0.951 . S
C2639 C2640 1.366 . S
C2639 C2641 1.388 . S
C2640 C2639 1.366 . S
C2640 C2644 1.385 . S
C2641 H2616 0.951 . S
C2641 C2639 1.388 . S
C2641 C2642 1.366 . S
C2642 C2641 1.366 . S
C2642 C2643 1.414 . S
C2642 C2645 1.499 . S
C2643 H2617 0.950 . S
C2643 C2642 1.414 . S
C2643 C2644 1.374 . S
C2644 H2618 0.950 . S
C2644 C2640 1.385 . S
C2644 C2643 1.374 . S
C2645 C2642 1.499 . S
C2645 C2646 1.373 . S
C2645 C2647 1.389 . S
C2646 H2619 0.950 . S
C2646 C2632 1.377 . S
C2646 C2645 1.373 . S
C2647 C2631 1.377 . S
C2647 C2645 1.389 . S
C2647 C2648 1.524 . S
C2648 C2647 1.524 . S
C2648 C2649 1.397 . S
C2648 C2653 1.363 . S
C2649 H2620 0.950 . S
C2649 C2648 1.397 . S
C2649 C2650 1.334 . S
C2650 H2621 0.950 . S
C2650 C2649 1.334 . S
C2650 C2651 1.287 . S
C2651 C2650 1.287 . S
C2651 C2652 1.524 . S
C2651 H2654 0.999 . S
C2652 H2622 0.950 . S
C2652 C2651 1.524 . S
C2652 C2653 1.415 . S
C2653 H2623 0.950 . S
C2653 C2648 1.363 . S
C2653 C2652 1.415 . S
H2654 C2651 0.999 . S
H2655 C2636 0.913 . S
H2656 C2674 0.951 . S
H2657 C2676 0.951 . S
H2658 C2678 0.950 . S
H2659 C2679 0.950 . S
H2660 C2681 0.950 . S
H2661 C2684 0.950 . S
H2662 C2685 0.950 . S
H2663 C2687 0.950 . S
H2664 C2688 0.950 . S
H2665 C2689 0.951 . S
H2666 C2691 0.951 . S
H2667 C2693 0.950 . S
H2668 C2694 0.950 . S
H2669 C2696 0.950 . S
H2670 C2699 0.950 . S
H2671 C2700 0.950 . S
H2672 C2702 0.950 . S
H2673 C2703 0.950 . S
C2674 H2656 0.951 . S
C2674 C2675 1.366 . S
C2674 C2676 1.388 . S
C2675 C2674 1.366 . S
C2675 C2679 1.385 . S
C2676 H2657 0.951 . S
C2676 C2674 1.388 . S
C2676 C2677 1.366 . S
C2677 C2676 1.366 . S
C2677 C2678 1.414 . S
C2677 C2680 1.499 . S
C2678 H2658 0.950 . S
C2678 C2677 1.414 . S
C2678 C2679 1.374 . S
C2679 H2659 0.950 . S
C2679 C2675 1.385 . S
C2679 C2678 1.374 . S
C2680 C2677 1.499 . S
C2680 C2681 1.373 . S
C2680 C2682 1.389 . S
C2681 H2660 0.950 . S
C2681 C2680 1.373 . S
C2681 C2697 1.377 . S
C2682 C2680 1.389 . S
C2682 C2683 1.524 . S
C2682 C2696 1.377 . S
C2683 C2682 1.524 . S
C2683 C2684 1.397 . S
C2683 C2688 1.363 . S
C2684 H2661 0.950 . S
C2684 C2683 1.397 . S
C2684 C2685 1.334 . S
C2685 H2662 0.950 . S
C2685 C2684 1.334 . S
C2685 C2686 1.287 . S
C2686 C2685 1.287 . S
C2686 C2687 1.524 . S
C2686 H2705 0.913 . S
C2687 H2663 0.950 . S
C2687 C2686 1.524 . S
C2687 C2688 1.415 . S
C2688 H2664 0.950 . S
C2688 C2683 1.363 . S
C2688 C2687 1.415 . S
C2689 H2665 0.951 . S
C2689 C2690 1.366 . S
C2689 C2691 1.388 . S
C2690 C2689 1.366 . S
C2690 C2694 1.385 . S
C2691 H2666 0.951 . S
C2691 C2689 1.388 . S
C2691 C2692 1.366 . S
C2692 C2691 1.366 . S
C2692 C2693 1.414 . S
C2692 C2695 1.499 . S
C2693 H2667 0.950 . S
C2693 C2692 1.414 . S
C2693 C2694 1.374 . S
C2694 H2668 0.950 . S
C2694 C2690 1.385 . S
C2694 C2693 1.374 . S
C2695 C2692 1.499 . S
C2695 C2696 1.373 . S
C2695 C2697 1.389 . S
C2696 H2669 0.950 . S
C2696 C2682 1.377 . S
C2696 C2695 1.373 . S
C2697 C2681 1.377 . S
C2697 C2695 1.389 . S
C2697 C2698 1.524 . S
C2698 C2697 1.524 . S
C2698 C2699 1.397 . S
C2698 C2703 1.363 . S
C2699 H2670 0.950 . S
C2699 C2698 1.397 . S
C2699 C2700 1.334 . S
C2700 H2671 0.950 . S
C2700 C2699 1.334 . S
C2700 C2701 1.287 . S
C2701 C2700 1.287 . S
C2701 C2702 1.524 . S
C2701 H2704 0.999 . S
C2702 H2672 0.950 . S
C2702 C2701 1.524 . S
C2702 C2703 1.415 . S
C2703 H2673 0.950 . S
C2703 C2698 1.363 . S
C2703 C2702 1.415 . S
H2704 C2701 0.999 . S
H2705 C2686 0.913 . S
H2706 C2724 0.951 . S
H2707 C2726 0.951 . S
H2708 C2728 0.950 . S
H2709 C2729 0.950 . S
H2710 C2731 0.950 . S
H2711 C2734 0.950 . S
H2712 C2735 0.950 . S
H2713 C2737 0.950 . S
H2714 C2738 0.950 . S
H2715 C2739 0.951 . S
H2716 C2741 0.951 . S
H2717 C2743 0.950 . S
H2718 C2744 0.950 . S
H2719 C2746 0.950 . S
H2720 C2749 0.950 . S
H2721 C2750 0.950 . S
H2722 C2752 0.950 . S
H2723 C2753 0.950 . S
C2724 H2706 0.951 . S
C2724 C2725 1.366 . S
C2724 C2726 1.388 . S
C2725 C2724 1.366 . S
C2725 C2729 1.385 . S
C2726 H2707 0.951 . S
C2726 C2724 1.388 . S
C2726 C2727 1.366 . S
C2727 C2726 1.366 . S
C2727 C2728 1.414 . S
C2727 C2730 1.499 . S
C2728 H2708 0.950 . S
C2728 C2727 1.414 . S
C2728 C2729 1.374 . S
C2729 H2709 0.950 . S
C2729 C2725 1.385 . S
C2729 C2728 1.374 . S
C2730 C2727 1.499 . S
C2730 C2731 1.373 . S
C2730 C2732 1.389 . S
C2731 H2710 0.950 . S
C2731 C2730 1.373 . S
C2731 C2747 1.377 . S
C2732 C2730 1.389 . S
C2732 C2733 1.524 . S
C2732 C2746 1.377 . S
C2733 C2732 1.524 . S
C2733 C2734 1.397 . S
C2733 C2738 1.363 . S
C2734 H2711 0.950 . S
C2734 C2733 1.397 . S
C2734 C2735 1.334 . S
C2735 H2712 0.950 . S
C2735 C2734 1.334 . S
C2735 C2736 1.287 . S
C2736 C2735 1.287 . S
C2736 C2737 1.524 . S
C2736 H2755 0.913 . S
C2737 H2713 0.950 . S
C2737 C2736 1.524 . S
C2737 C2738 1.415 . S
C2738 H2714 0.950 . S
C2738 C2733 1.363 . S
C2738 C2737 1.415 . S
C2739 H2715 0.951 . S
C2739 C2740 1.366 . S
C2739 C2741 1.388 . S
C2740 C2739 1.366 . S
C2740 C2744 1.385 . S
C2741 H2716 0.951 . S
C2741 C2739 1.388 . S
C2741 C2742 1.366 . S
C2742 C2741 1.366 . S
C2742 C2743 1.414 . S
C2742 C2745 1.499 . S
C2743 H2717 0.950 . S
C2743 C2742 1.414 . S
C2743 C2744 1.374 . S
C2744 H2718 0.950 . S
C2744 C2740 1.385 . S
C2744 C2743 1.374 . S
C2745 C2742 1.499 . S
C2745 C2746 1.373 . S
C2745 C2747 1.389 . S
C2746 H2719 0.950 . S
C2746 C2732 1.377 . S
C2746 C2745 1.373 . S
C2747 C2731 1.377 . S
C2747 C2745 1.389 . S
C2747 C2748 1.524 . S
C2748 C2747 1.524 . S
C2748 C2749 1.397 . S
C2748 C2753 1.363 . S
C2749 H2720 0.950 . S
C2749 C2748 1.397 . S
C2749 C2750 1.334 . S
C2750 H2721 0.950 . S
C2750 C2749 1.334 . S
C2750 C2751 1.287 . S
C2751 C2750 1.287 . S
C2751 C2752 1.524 . S
C2751 H2754 0.999 . S
C2752 H2722 0.950 . S
C2752 C2751 1.524 . S
C2752 C2753 1.415 . S
C2753 H2723 0.950 . S
C2753 C2748 1.363 . S
C2753 C2752 1.415 . S
H2754 C2751 0.999 . S
H2755 C2736 0.913 . S
H2756 C2774 0.951 . S
H2757 C2776 0.951 . S
H2758 C2778 0.950 . S
H2759 C2779 0.950 . S
H2760 C2781 0.950 . S
H2761 C2784 0.950 . S
H2762 C2785 0.950 . S
H2763 C2787 0.950 . S
H2764 C2788 0.950 . S
H2765 C2789 0.951 . S
H2766 C2791 0.951 . S
H2767 C2793 0.950 . S
H2768 C2794 0.950 . S
H2769 C2796 0.950 . S
H2770 C2799 0.950 . S
H2771 C2800 0.950 . S
H2772 C2802 0.950 . S
H2773 C2803 0.950 . S
C2774 H2756 0.951 . S
C2774 C2775 1.366 . S
C2774 C2776 1.388 . S
C2775 C2774 1.366 . S
C2775 C2779 1.385 . S
C2776 H2757 0.951 . S
C2776 C2774 1.388 . S
C2776 C2777 1.366 . S
C2777 C2776 1.366 . S
C2777 C2778 1.414 . S
C2777 C2780 1.499 . S
C2778 H2758 0.950 . S
C2778 C2777 1.414 . S
C2778 C2779 1.374 . S
C2779 H2759 0.950 . S
C2779 C2775 1.385 . S
C2779 C2778 1.374 . S
C2780 C2777 1.499 . S
C2780 C2781 1.373 . S
C2780 C2782 1.389 . S
C2781 H2760 0.950 . S
C2781 C2780 1.373 . S
C2781 C2797 1.377 . S
C2782 C2780 1.389 . S
C2782 C2783 1.524 . S
C2782 C2796 1.377 . S
C2783 C2782 1.524 . S
C2783 C2784 1.397 . S
C2783 C2788 1.363 . S
C2784 H2761 0.950 . S
C2784 C2783 1.397 . S
C2784 C2785 1.334 . S
C2785 H2762 0.950 . S
C2785 C2784 1.334 . S
C2785 C2786 1.287 . S
C2786 C2785 1.287 . S
C2786 C2787 1.524 . S
C2786 H2805 0.913 . S
C2787 H2763 0.950 . S
C2787 C2786 1.524 . S
C2787 C2788 1.415 . S
C2788 H2764 0.950 . S
C2788 C2783 1.363 . S
C2788 C2787 1.415 . S
C2789 H2765 0.951 . S
C2789 C2790 1.366 . S
C2789 C2791 1.388 . S
C2790 C2789 1.366 . S
C2790 C2794 1.385 . S
C2791 H2766 0.951 . S
C2791 C2789 1.388 . S
C2791 C2792 1.366 . S
C2792 C2791 1.366 . S
C2792 C2793 1.414 . S
C2792 C2795 1.499 . S
C2793 H2767 0.950 . S
C2793 C2792 1.414 . S
C2793 C2794 1.374 . S
C2794 H2768 0.950 . S
C2794 C2790 1.385 . S
C2794 C2793 1.374 . S
C2795 C2792 1.499 . S
C2795 C2796 1.373 . S
C2795 C2797 1.389 . S
C2796 H2769 0.950 . S
C2796 C2782 1.377 . S
C2796 C2795 1.373 . S
C2797 C2781 1.377 . S
C2797 C2795 1.389 . S
C2797 C2798 1.524 . S
C2798 C2797 1.524 . S
C2798 C2799 1.397 . S
C2798 C2803 1.363 . S
C2799 H2770 0.950 . S
C2799 C2798 1.397 . S
C2799 C2800 1.334 . S
C2800 H2771 0.950 . S
C2800 C2799 1.334 . S
C2800 C2801 1.287 . S
C2801 C2800 1.287 . S
C2801 C2802 1.524 . S
C2801 H2804 0.999 . S
C2802 H2772 0.950 . S
C2802 C2801 1.524 . S
C2802 C2803 1.415 . S
C2803 H2773 0.950 . S
C2803 C2798 1.363 . S
C2803 C2802 1.415 . S
H2804 C2801 0.999 . S
H2805 C2786 0.913 . S
H2806 C2824 0.951 . S
H2807 C2826 0.951 . S
H2808 C2828 0.950 . S
H2809 C2829 0.950 . S
H2810 C2831 0.950 . S
H2811 C2834 0.950 . S
H2812 C2835 0.950 . S
H2813 C2837 0.950 . S
H2814 C2838 0.950 . S
H2815 C2839 0.951 . S
H2816 C2841 0.951 . S
H2817 C2843 0.950 . S
H2818 C2844 0.950 . S
H2819 C2846 0.950 . S
H2820 C2849 0.950 . S
H2821 C2850 0.950 . S
H2822 C2852 0.950 . S
H2823 C2853 0.950 . S
C2824 H2806 0.951 . S
C2824 C2825 1.366 . S
C2824 C2826 1.388 . S
C2825 C2824 1.366 . S
C2825 C2829 1.385 . S
C2826 H2807 0.951 . S
C2826 C2824 1.388 . S
C2826 C2827 1.366 . S
C2827 C2826 1.366 . S
C2827 C2828 1.414 . S
C2827 C2830 1.499 . S
C2828 H2808 0.950 . S
C2828 C2827 1.414 . S
C2828 C2829 1.374 . S
C2829 H2809 0.950 . S
C2829 C2825 1.385 . S
C2829 C2828 1.374 . S
C2830 C2827 1.499 . S
C2830 C2831 1.373 . S
C2830 C2832 1.389 . S
C2831 H2810 0.950 . S
C2831 C2830 1.373 . S
C2831 C2847 1.377 . S
C2832 C2830 1.389 . S
C2832 C2833 1.524 . S
C2832 C2846 1.377 . S
C2833 C2832 1.524 . S
C2833 C2834 1.397 . S
C2833 C2838 1.363 . S
C2834 H2811 0.950 . S
C2834 C2833 1.397 . S
C2834 C2835 1.334 . S
C2835 H2812 0.950 . S
C2835 C2834 1.334 . S
C2835 C2836 1.287 . S
C2836 C2835 1.287 . S
C2836 C2837 1.524 . S
C2836 H2855 0.913 . S
C2837 H2813 0.950 . S
C2837 C2836 1.524 . S
C2837 C2838 1.415 . S
C2838 H2814 0.950 . S
C2838 C2833 1.363 . S
C2838 C2837 1.415 . S
C2839 H2815 0.951 . S
C2839 C2840 1.366 . S
C2839 C2841 1.388 . S
C2840 C2839 1.366 . S
C2840 C2844 1.385 . S
C2841 H2816 0.951 . S
C2841 C2839 1.388 . S
C2841 C2842 1.366 . S
C2842 C2841 1.366 . S
C2842 C2843 1.414 . S
C2842 C2845 1.499 . S
C2843 H2817 0.950 . S
C2843 C2842 1.414 . S
C2843 C2844 1.374 . S
C2844 H2818 0.950 . S
C2844 C2840 1.385 . S
C2844 C2843 1.374 . S
C2845 C2842 1.499 . S
C2845 C2846 1.373 . S
C2845 C2847 1.389 . S
C2846 H2819 0.950 . S
C2846 C2832 1.377 . S
C2846 C2845 1.373 . S
C2847 C2831 1.377 . S
C2847 C2845 1.389 . S
C2847 C2848 1.524 . S
C2848 C2847 1.524 . S
C2848 C2849 1.397 . S
C2848 C2853 1.363 . S
C2849 H2820 0.950 . S
C2849 C2848 1.397 . S
C2849 C2850 1.334 . S
C2850 H2821 0.950 . S
C2850 C2849 1.334 . S
C2850 C2851 1.287 . S
C2851 C2850 1.287 . S
C2851 C2852 1.524 . S
C2851 H2854 0.999 . S
C2852 H2822 0.950 . S
C2852 C2851 1.524 . S
C2852 C2853 1.415 . S
C2853 H2823 0.950 . S
C2853 C2848 1.363 . S
C2853 C2852 1.415 . S
H2854 C2851 0.999 . S
H2855 C2836 0.913 . S
H2856 C2874 0.951 . S
H2857 C2876 0.951 . S
H2858 C2878 0.950 . S
H2859 C2879 0.950 . S
H2860 C2881 0.950 . S
H2861 C2884 0.950 . S
H2862 C2885 0.950 . S
H2863 C2887 0.950 1_556 S
H2864 C2888 0.950 . S
H2865 C2889 0.951 . S
H2866 C2891 0.951 . S
H2867 C2893 0.950 . S
H2868 C2894 0.950 . S
H2869 C2896 0.950 . S
H2870 C2899 0.950 . S
H2871 C2900 0.950 . S
H2872 C2902 0.958 . S
H2873 C2903 0.950 . S
C2874 H2856 0.951 . S
C2874 C2875 1.366 . S
C2874 C2876 1.388 . S
C2875 C2874 1.366 . S
C2875 C2879 1.385 . S
C2876 H2857 0.951 . S
C2876 C2874 1.388 . S
C2876 C2877 1.366 . S
C2877 C2876 1.366 . S
C2877 C2878 1.414 . S
C2877 C2880 1.499 . S
C2878 H2858 0.950 . S
C2878 C2877 1.414 . S
C2878 C2879 1.374 . S
C2879 H2859 0.950 . S
C2879 C2875 1.385 . S
C2879 C2878 1.374 . S
C2880 C2877 1.499 . S
C2880 C2881 1.373 . S
C2880 C2882 1.389 . S
C2881 H2860 0.950 . S
C2881 C2880 1.373 . S
C2881 C2897 1.377 . S
C2882 C2880 1.389 . S
C2882 C2883 1.524 . S
C2882 C2896 1.377 . S
C2883 C2882 1.524 . S
C2883 C2884 1.397 . S
C2883 C2888 1.363 . S
C2884 H2861 0.950 . S
C2884 C2883 1.397 . S
C2884 C2885 1.334 . S
C2885 H2862 0.950 . S
C2885 C2884 1.334 . S
C2885 C2886 1.287 . S
C2886 C2885 1.287 . S
C2886 C2887 1.524 . S
C2886 H2905 0.913 . S
C2887 H2863 0.950 1_554 S
C2887 C2886 1.524 . S
C2887 C2888 1.415 . S
C2888 H2864 0.950 . S
C2888 C2883 1.363 . S
C2888 C2887 1.415 . S
C2889 H2865 0.951 . S
C2889 C2890 1.366 . S
C2889 C2891 1.388 . S
C2890 C2889 1.366 . S
C2890 C2894 1.385 . S
C2891 H2866 0.951 . S
C2891 C2889 1.388 . S
C2891 C2892 1.366 . S
C2892 C2891 1.366 . S
C2892 C2893 1.414 . S
C2892 C2895 1.499 . S
C2893 H2867 0.950 . S
C2893 C2892 1.414 . S
C2893 C2894 1.374 . S
C2894 H2868 0.950 . S
C2894 C2890 1.385 . S
C2894 C2893 1.374 . S
C2895 C2892 1.499 . S
C2895 C2896 1.373 . S
C2895 C2897 1.389 . S
C2896 H2869 0.950 . S
C2896 C2882 1.377 . S
C2896 C2895 1.373 . S
C2897 C2881 1.377 . S
C2897 C2895 1.389 . S
C2897 C2898 1.524 . S
C2898 C2897 1.524 . S
C2898 C2899 1.397 1_455 S
C2898 C2903 1.363 . S
C2899 H2870 0.950 . S
C2899 C2898 1.397 1_655 S
C2899 C2900 1.334 . S
C2900 H2871 0.950 . S
C2900 C2899 1.334 . S
C2900 C2901 1.287 . S
C2901 C2900 1.287 . S
C2901 C2902 1.529 1_655 S
C2901 H2904 0.999 . S
C2902 H2872 0.958 . S
C2902 C2901 1.529 1_455 S
C2902 C2903 1.410 . S
C2903 H2873 0.950 . S
C2903 C2898 1.363 . S
C2903 C2902 1.410 . S
H2904 C2901 0.999 . S
H2905 C2886 0.913 . S
H2906 C2924 0.951 . S
H2907 C2926 0.951 . S
H2908 C2928 0.950 . S
H2909 C2929 0.950 . S
H2910 C2931 0.950 . S
H2911 C2934 0.950 . S
H2912 C2935 0.950 . S
H2913 C2937 0.950 . S
H2914 C2938 0.950 . S
H2915 C2939 0.951 . S
H2916 C2941 0.951 . S
H2917 C2943 0.950 . S
H2918 C2944 0.950 . S
H2919 C2946 0.950 . S
H2920 C2949 0.950 . S
H2921 C2950 0.950 . S
H2922 C2952 0.950 . S
H2923 C2953 0.950 . S
C2924 H2906 0.951 . S
C2924 C2925 1.366 . S
C2924 C2926 1.388 . S
C2925 C2924 1.366 . S
C2925 C2929 1.385 . S
C2926 H2907 0.951 . S
C2926 C2924 1.388 . S
C2926 C2927 1.366 . S
C2927 C2926 1.366 . S
C2927 C2928 1.414 . S
C2927 C2930 1.499 . S
C2928 H2908 0.950 . S
C2928 C2927 1.414 . S
C2928 C2929 1.374 . S
C2929 H2909 0.950 . S
C2929 C2925 1.385 . S
C2929 C2928 1.374 . S
C2930 C2927 1.499 . S
C2930 C2931 1.373 . S
C2930 C2932 1.389 . S
C2931 H2910 0.950 . S
C2931 C2930 1.373 . S
C2931 C2947 1.377 . S
C2932 C2930 1.389 . S
C2932 C2933 1.524 . S
C2932 C2946 1.377 . S
C2933 C2932 1.524 . S
C2933 C2934 1.397 . S
C2933 C2938 1.363 . S
C2934 H2911 0.950 . S
C2934 C2933 1.397 . S
C2934 C2935 1.334 . S
C2935 H2912 0.950 . S
C2935 C2934 1.334 . S
C2935 C2936 1.287 . S
C2936 C2935 1.287 . S
C2936 C2937 1.524 . S
C2936 H2955 0.913 . S
C2937 H2913 0.950 . S
C2937 C2936 1.524 . S
C2937 C2938 1.415 . S
C2938 H2914 0.950 . S
C2938 C2933 1.363 . S
C2938 C2937 1.415 . S
C2939 H2915 0.951 . S
C2939 C2940 1.366 . S
C2939 C2941 1.388 . S
C2940 C2939 1.366 . S
C2940 C2944 1.385 . S
C2941 H2916 0.951 . S
C2941 C2939 1.388 . S
C2941 C2942 1.366 . S
C2942 C2941 1.366 . S
C2942 C2943 1.414 . S
C2942 C2945 1.499 . S
C2943 H2917 0.950 . S
C2943 C2942 1.414 . S
C2943 C2944 1.374 . S
C2944 H2918 0.950 . S
C2944 C2940 1.385 . S
C2944 C2943 1.374 . S
C2945 C2942 1.499 . S
C2945 C2946 1.373 . S
C2945 C2947 1.389 . S
C2946 H2919 0.950 . S
C2946 C2932 1.377 . S
C2946 C2945 1.373 . S
C2947 C2931 1.377 . S
C2947 C2945 1.389 . S
C2947 C2948 1.524 . S
C2948 C2947 1.524 . S
C2948 C2949 1.397 . S
C2948 C2953 1.363 . S
C2949 H2920 0.950 . S
C2949 C2948 1.397 . S
C2949 C2950 1.334 . S
C2950 H2921 0.950 . S
C2950 C2949 1.334 . S
C2950 C2951 1.287 . S
C2951 C2950 1.287 . S
C2951 C2952 1.524 . S
C2951 H2954 0.999 . S
C2952 H2922 0.950 . S
C2952 C2951 1.524 . S
C2952 C2953 1.415 . S
C2953 H2923 0.950 . S
C2953 C2948 1.363 . S
C2953 C2952 1.415 . S
H2954 C2951 0.999 . S
H2955 C2936 0.913 . S
H2956 C2974 0.951 . S
H2957 C2976 0.951 . S
H2958 C2978 0.950 . S
H2959 C2979 0.950 . S
H2960 C2981 0.950 . S
H2961 C2984 0.950 . S
H2962 C2985 0.950 . S
H2963 C2987 0.950 . S
H2964 C2988 0.950 . S
H2965 C2989 0.951 . S
H2966 C2991 0.951 . S
H2967 C2993 0.950 . S
H2968 C2994 0.950 . S
H2969 C2996 0.950 . S
H2970 C2999 0.950 . S
H2971 C3000 0.950 . S
H2972 C3002 0.950 . S
H2973 C3003 0.950 . S
C2974 H2956 0.951 . S
C2974 C2975 1.366 . S
C2974 C2976 1.388 . S
C2975 C2974 1.366 . S
C2975 C2979 1.385 . S
C2976 H2957 0.951 . S
C2976 C2974 1.388 . S
C2976 C2977 1.366 . S
C2977 C2976 1.366 . S
C2977 C2978 1.414 . S
C2977 C2980 1.499 . S
C2978 H2958 0.950 . S
C2978 C2977 1.414 . S
C2978 C2979 1.374 . S
C2979 H2959 0.950 . S
C2979 C2975 1.385 . S
C2979 C2978 1.374 . S
C2980 C2977 1.499 . S
C2980 C2981 1.373 . S
C2980 C2982 1.389 . S
C2981 H2960 0.950 . S
C2981 C2980 1.373 . S
C2981 C2997 1.377 . S
C2982 C2980 1.389 . S
C2982 C2983 1.524 . S
C2982 C2996 1.377 . S
C2983 C2982 1.524 . S
C2983 C2984 1.397 . S
C2983 C2988 1.363 . S
C2984 H2961 0.950 . S
C2984 C2983 1.397 . S
C2984 C2985 1.334 . S
C2985 H2962 0.950 . S
C2985 C2984 1.334 . S
C2985 C2986 1.287 . S
C2986 C2985 1.287 . S
C2986 C2987 1.524 . S
C2986 H3005 0.913 . S
C2987 H2963 0.950 . S
C2987 C2986 1.524 . S
C2987 C2988 1.415 . S
C2988 H2964 0.950 . S
C2988 C2983 1.363 . S
C2988 C2987 1.415 . S
C2989 H2965 0.951 . S
C2989 C2990 1.366 . S
C2989 C2991 1.388 . S
C2990 C2989 1.366 . S
C2990 C2994 1.385 . S
C2991 H2966 0.951 . S
C2991 C2989 1.388 . S
C2991 C2992 1.366 . S
C2992 C2991 1.366 . S
C2992 C2993 1.414 . S
C2992 C2995 1.499 . S
C2993 H2967 0.950 . S
C2993 C2992 1.414 . S
C2993 C2994 1.374 . S
C2994 H2968 0.950 . S
C2994 C2990 1.385 . S
C2994 C2993 1.374 . S
C2995 C2992 1.499 . S
C2995 C2996 1.373 . S
C2995 C2997 1.389 . S
C2996 H2969 0.950 . S
C2996 C2982 1.377 . S
C2996 C2995 1.373 . S
C2997 C2981 1.377 . S
C2997 C2995 1.389 . S
C2997 C2998 1.524 . S
C2998 C2997 1.524 . S
C2998 C2999 1.397 . S
C2998 C3003 1.363 . S
C2999 H2970 0.950 . S
C2999 C2998 1.397 . S
C2999 C3000 1.334 . S
C3000 H2971 0.950 . S
C3000 C2999 1.334 . S
C3000 C3001 1.287 . S
C3001 C3000 1.287 . S
C3001 C3002 1.524 . S
C3001 H3004 0.999 . S
C3002 H2972 0.950 . S
C3002 C3001 1.524 . S
C3002 C3003 1.415 . S
C3003 H2973 0.950 . S
C3003 C2998 1.363 . S
C3003 C3002 1.415 . S
H3004 C3001 0.999 . S
H3005 C2986 0.913 . S
H3006 C3024 0.951 . S
H3007 C3026 0.951 . S
H3008 C3028 0.950 . S
H3009 C3029 0.950 . S
H3010 C3031 0.950 . S
H3011 C3034 0.950 . S
H3012 C3035 0.950 . S
H3013 C3037 0.950 . S
H3014 C3038 0.950 . S
H3015 C3039 0.951 . S
H3016 C3041 0.951 . S
H3017 C3043 0.950 . S
H3018 C3044 0.950 . S
H3019 C3046 0.950 . S
H3020 C3049 0.950 . S
H3021 C3050 0.950 . S
H3022 C3052 0.950 . S
H3023 C3053 0.950 . S
C3024 H3006 0.951 . S
C3024 C3025 1.366 . S
C3024 C3026 1.388 . S
C3025 C3024 1.366 . S
C3025 C3029 1.385 . S
C3026 H3007 0.951 . S
C3026 C3024 1.388 . S
C3026 C3027 1.366 . S
C3027 C3026 1.366 . S
C3027 C3028 1.414 . S
C3027 C3030 1.499 . S
C3028 H3008 0.950 . S
C3028 C3027 1.414 . S
C3028 C3029 1.374 . S
C3029 H3009 0.950 . S
C3029 C3025 1.385 . S
C3029 C3028 1.374 . S
C3030 C3027 1.499 . S
C3030 C3031 1.373 . S
C3030 C3032 1.389 . S
C3031 H3010 0.950 . S
C3031 C3030 1.373 . S
C3031 C3047 1.377 . S
C3032 C3030 1.389 . S
C3032 C3033 1.524 . S
C3032 C3046 1.377 . S
C3033 C3032 1.524 . S
C3033 C3034 1.397 . S
C3033 C3038 1.363 . S
C3034 H3011 0.950 . S
C3034 C3033 1.397 . S
C3034 C3035 1.334 . S
C3035 H3012 0.950 . S
C3035 C3034 1.334 . S
C3035 C3036 1.287 . S
C3036 C3035 1.287 . S
C3036 C3037 1.524 . S
C3036 H3055 0.913 . S
C3037 H3013 0.950 . S
C3037 C3036 1.524 . S
C3037 C3038 1.415 . S
C3038 H3014 0.950 . S
C3038 C3033 1.363 . S
C3038 C3037 1.415 . S
C3039 H3015 0.951 . S
C3039 C3040 1.366 . S
C3039 C3041 1.388 . S
C3040 C3039 1.366 . S
C3040 C3044 1.385 . S
C3041 H3016 0.951 . S
C3041 C3039 1.388 . S
C3041 C3042 1.366 . S
C3042 C3041 1.366 . S
C3042 C3043 1.414 . S
C3042 C3045 1.499 . S
C3043 H3017 0.950 . S
C3043 C3042 1.414 . S
C3043 C3044 1.374 . S
C3044 H3018 0.950 . S
C3044 C3040 1.385 . S
C3044 C3043 1.374 . S
C3045 C3042 1.499 . S
C3045 C3046 1.373 . S
C3045 C3047 1.389 . S
C3046 H3019 0.950 . S
C3046 C3032 1.377 . S
C3046 C3045 1.373 . S
C3047 C3031 1.377 . S
C3047 C3045 1.389 . S
C3047 C3048 1.524 . S
C3048 C3047 1.524 . S
C3048 C3049 1.397 . S
C3048 C3053 1.363 . S
C3049 H3020 0.950 . S
C3049 C3048 1.397 . S
C3049 C3050 1.334 . S
C3050 H3021 0.950 . S
C3050 C3049 1.334 . S
C3050 C3051 1.287 . S
C3051 C3050 1.287 . S
C3051 C3052 1.524 . S
C3051 H3054 0.999 . S
C3052 H3022 0.950 . S
C3052 C3051 1.524 . S
C3052 C3053 1.415 . S
C3053 H3023 0.950 . S
C3053 C3048 1.363 . S
C3053 C3052 1.415 . S
H3054 C3051 0.999 . S
H3055 C3036 0.913 . S
H3056 C3074 0.951 . S
H3057 C3076 0.951 . S
H3058 C3078 0.950 . S
H3059 C3079 0.950 . S
H3060 C3081 0.950 . S
H3061 C3084 0.950 . S
H3062 C3085 0.950 . S
H3063 C3087 0.950 . S
H3064 C3088 0.950 . S
H3065 C3089 0.951 1_655 S
H3066 C3091 0.953 1_655 S
H3067 C3093 0.950 . S
H3068 C3094 0.950 . S
H3069 C3096 0.950 . S
H3070 C3099 0.950 1_455 S
H3071 C3100 0.950 . S
H3072 C3102 0.950 . S
H3073 C3103 0.950 . S
C3074 H3056 0.951 . S
C3074 C3075 1.366 . S
C3074 C3076 1.388 . S
C3075 C3074 1.366 . S
C3075 C3079 1.385 . S
C3076 H3057 0.951 . S
C3076 C3074 1.388 . S
C3076 C3077 1.366 . S
C3077 C3076 1.366 . S
C3077 C3078 1.414 . S
C3077 C3080 1.499 . S
C3078 H3058 0.950 . S
C3078 C3077 1.414 . S
C3078 C3079 1.374 . S
C3079 H3059 0.950 . S
C3079 C3075 1.385 . S
C3079 C3078 1.374 . S
C3080 C3077 1.499 . S
C3080 C3081 1.373 . S
C3080 C3082 1.389 . S
C3081 H3060 0.950 . S
C3081 C3080 1.373 . S
C3081 C3097 1.377 . S
C3082 C3080 1.389 . S
C3082 C3083 1.524 . S
C3082 C3096 1.377 . S
C3083 C3082 1.524 . S
C3083 C3084 1.397 . S
C3083 C3088 1.363 . S
C3084 H3061 0.950 . S
C3084 C3083 1.397 . S
C3084 C3085 1.334 . S
C3085 H3062 0.950 . S
C3085 C3084 1.334 . S
C3085 C3086 1.287 . S
C3086 C3085 1.287 . S
C3086 C3087 1.524 . S
C3086 H3105 0.913 . S
C3087 H3063 0.950 . S
C3087 C3086 1.524 . S
C3087 C3088 1.415 . S
C3088 H3064 0.950 . S
C3088 C3083 1.363 . S
C3088 C3087 1.415 . S
C3089 H3065 0.951 1_455 S
C3089 C3090 1.366 . S
C3089 C3091 1.388 . S
C3090 C3089 1.366 . S
C3090 C3094 1.385 . S
C3091 H3066 0.953 1_455 S
C3091 C3089 1.388 . S
C3091 C3092 1.366 . S
C3092 C3091 1.366 . S
C3092 C3093 1.414 . S
C3092 C3095 1.499 . S
C3093 H3067 0.950 . S
C3093 C3092 1.414 . S
C3093 C3094 1.374 . S
C3094 H3068 0.950 . S
C3094 C3090 1.385 . S
C3094 C3093 1.374 . S
C3095 C3092 1.499 . S
C3095 C3096 1.373 . S
C3095 C3097 1.389 . S
C3096 H3069 0.950 . S
C3096 C3082 1.377 . S
C3096 C3095 1.373 . S
C3097 C3081 1.377 . S
C3097 C3095 1.389 . S
C3097 C3098 1.524 1_455 S
C3098 C3097 1.524 1_655 S
C3098 C3099 1.397 . S
C3098 C3103 1.363 . S
C3099 H3070 0.950 1_655 S
C3099 C3098 1.397 . S
C3099 C3100 1.334 . S
C3100 H3071 0.950 . S
C3100 C3099 1.334 . S
C3100 C3101 1.287 . S
C3101 C3100 1.287 . S
C3101 C3102 1.524 . S
C3101 H3104 0.999 . S
C3102 H3072 0.950 . S
C3102 C3101 1.524 . S
C3102 C3103 1.415 . S
C3103 H3073 0.950 . S
C3103 C3098 1.363 . S
C3103 C3102 1.415 . S
H3104 C3101 0.999 . S
H3105 C3086 0.913 . S
H3106 C3124 0.951 . S
H3107 C3126 0.951 . S
H3108 C3128 0.950 . S
H3109 C3129 0.950 . S
H3110 C3131 0.950 . S
H3111 C3134 0.950 . S
H3112 C3135 0.950 . S
H3113 C3137 0.950 . S
H3114 C3138 0.950 . S
H3115 C3139 0.951 . S
H3116 C3141 0.951 . S
H3117 C3143 0.950 . S
H3118 C3144 0.950 . S
H3119 C3146 0.950 . S
H3120 C3149 0.950 . S
H3121 C3150 0.950 . S
H3122 C3152 0.950 . S
H3123 C3153 0.950 . S
C3124 H3106 0.951 . S
C3124 C3125 1.366 . S
C3124 C3126 1.388 . S
C3125 C3124 1.366 . S
C3125 C3129 1.385 . S
C3126 H3107 0.951 . S
C3126 C3124 1.388 . S
C3126 C3127 1.366 . S
C3127 C3126 1.366 . S
C3127 C3128 1.414 . S
C3127 C3130 1.499 . S
C3128 H3108 0.950 . S
C3128 C3127 1.414 . S
C3128 C3129 1.374 . S
C3129 H3109 0.950 . S
C3129 C3125 1.385 . S
C3129 C3128 1.374 . S
C3130 C3127 1.499 . S
C3130 C3131 1.373 . S
C3130 C3132 1.389 . S
C3131 H3110 0.950 . S
C3131 C3130 1.373 . S
C3131 C3147 1.377 . S
C3132 C3130 1.389 . S
C3132 C3133 1.524 . S
C3132 C3146 1.377 . S
C3133 C3132 1.524 . S
C3133 C3134 1.397 . S
C3133 C3138 1.363 . S
C3134 H3111 0.950 . S
C3134 C3133 1.397 . S
C3134 C3135 1.334 . S
C3135 H3112 0.950 . S
C3135 C3134 1.334 . S
C3135 C3136 1.287 . S
C3136 C3135 1.287 . S
C3136 C3137 1.524 . S
C3136 H3155 0.913 . S
C3137 H3113 0.950 . S
C3137 C3136 1.524 . S
C3137 C3138 1.415 . S
C3138 H3114 0.950 . S
C3138 C3133 1.363 . S
C3138 C3137 1.415 . S
C3139 H3115 0.951 . S
C3139 C3140 1.366 . S
C3139 C3141 1.388 . S
C3140 C3139 1.366 . S
C3140 C3144 1.385 . S
C3141 H3116 0.951 . S
C3141 C3139 1.388 . S
C3141 C3142 1.366 . S
C3142 C3141 1.366 . S
C3142 C3143 1.414 . S
C3142 C3145 1.499 . S
C3143 H3117 0.950 . S
C3143 C3142 1.414 . S
C3143 C3144 1.374 . S
C3144 H3118 0.950 . S
C3144 C3140 1.385 . S
C3144 C3143 1.374 . S
C3145 C3142 1.499 . S
C3145 C3146 1.373 . S
C3145 C3147 1.389 . S
C3146 H3119 0.950 . S
C3146 C3132 1.377 . S
C3146 C3145 1.373 . S
C3147 C3131 1.377 . S
C3147 C3145 1.389 . S
C3147 C3148 1.524 . S
C3148 C3147 1.524 . S
C3148 C3149 1.397 . S
C3148 C3153 1.363 . S
C3149 H3120 0.950 . S
C3149 C3148 1.397 . S
C3149 C3150 1.334 . S
C3150 H3121 0.950 . S
C3150 C3149 1.334 . S
C3150 C3151 1.287 . S
C3151 C3150 1.287 . S
C3151 C3152 1.524 . S
C3151 H3154 0.999 . S
C3152 H3122 0.950 . S
C3152 C3151 1.524 . S
C3152 C3153 1.415 . S
C3153 H3123 0.950 . S
C3153 C3148 1.363 . S
C3153 C3152 1.415 . S
H3154 C3151 0.999 . S
H3155 C3136 0.913 . S
H3156 C3174 0.951 . S
H3157 C3176 0.951 . S
H3158 C3178 0.950 . S
H3159 C3179 0.950 . S
H3160 C3181 0.950 . S
H3161 C3184 0.950 . S
H3162 C3185 0.950 . S
H3163 C3187 0.950 . S
H3164 C3188 0.950 . S
H3165 C3189 0.951 . S
H3166 C3191 0.951 . S
H3167 C3193 0.950 . S
H3168 C3194 0.950 . S
H3169 C3196 0.950 . S
H3170 C3199 0.950 . S
H3171 C3200 0.950 . S
H3172 C3202 0.950 . S
H3173 C3203 0.950 . S
C3174 H3156 0.951 . S
C3174 C3175 1.366 . S
C3174 C3176 1.388 . S
C3175 C3174 1.366 . S
C3175 C3179 1.385 . S
C3176 H3157 0.951 . S
C3176 C3174 1.388 . S
C3176 C3177 1.366 . S
C3177 C3176 1.366 . S
C3177 C3178 1.414 . S
C3177 C3180 1.499 . S
C3178 H3158 0.950 . S
C3178 C3177 1.414 . S
C3178 C3179 1.374 . S
C3179 H3159 0.950 . S
C3179 C3175 1.385 . S
C3179 C3178 1.374 . S
C3180 C3177 1.499 . S
C3180 C3181 1.373 . S
C3180 C3182 1.389 . S
C3181 H3160 0.950 . S
C3181 C3180 1.373 . S
C3181 C3197 1.377 . S
C3182 C3180 1.389 . S
C3182 C3183 1.524 . S
C3182 C3196 1.377 . S
C3183 C3182 1.524 . S
C3183 C3184 1.397 . S
C3183 C3188 1.363 . S
C3184 H3161 0.950 . S
C3184 C3183 1.397 . S
C3184 C3185 1.334 . S
C3185 H3162 0.950 . S
C3185 C3184 1.334 . S
C3185 C3186 1.287 . S
C3186 C3185 1.287 . S
C3186 C3187 1.524 . S
C3186 H3205 0.913 . S
C3187 H3163 0.950 . S
C3187 C3186 1.524 . S
C3187 C3188 1.415 . S
C3188 H3164 0.950 . S
C3188 C3183 1.363 . S
C3188 C3187 1.415 . S
C3189 H3165 0.951 . S
C3189 C3190 1.366 . S
C3189 C3191 1.388 . S
C3190 C3189 1.366 . S
C3190 C3194 1.385 . S
C3191 H3166 0.951 . S
C3191 C3189 1.388 . S
C3191 C3192 1.366 . S
C3192 C3191 1.366 . S
C3192 C3193 1.414 . S
C3192 C3195 1.499 . S
C3193 H3167 0.950 . S
C3193 C3192 1.414 . S
C3193 C3194 1.374 . S
C3194 H3168 0.950 . S
C3194 C3190 1.385 . S
C3194 C3193 1.374 . S
C3195 C3192 1.499 . S
C3195 C3196 1.373 . S
C3195 C3197 1.389 . S
C3196 H3169 0.950 . S
C3196 C3182 1.377 . S
C3196 C3195 1.373 . S
C3197 C3181 1.377 . S
C3197 C3195 1.389 . S
C3197 C3198 1.524 . S
C3198 C3197 1.524 . S
C3198 C3199 1.397 . S
C3198 C3203 1.363 . S
C3199 H3170 0.950 . S
C3199 C3198 1.397 . S
C3199 C3200 1.334 1_556 S
C3200 H3171 0.950 . S
C3200 C3199 1.334 1_554 S
C3200 C3201 1.287 . S
C3201 C3200 1.287 . S
C3201 C3202 1.524 1_554 S
C3201 H3204 0.999 . S
C3202 H3172 0.950 . S
C3202 C3201 1.524 1_556 S
C3202 C3203 1.415 . S
C3203 H3173 0.950 . S
C3203 C3198 1.363 . S
C3203 C3202 1.415 . S
H3204 C3201 0.999 . S
H3205 C3186 0.913 . S
H3206 C3224 0.951 . S
H3207 C3226 0.951 . S
H3208 C3228 0.950 . S
H3209 C3229 0.950 . S
H3210 C3231 0.950 . S
H3211 C3234 0.950 . S
H3212 C3235 0.950 . S
H3213 C3237 0.950 . S
H3214 C3238 0.950 . S
H3215 C3239 0.951 . S
H3216 C3241 0.951 . S
H3217 C3243 0.950 . S
H3218 C3244 0.950 . S
H3219 C3246 0.950 . S
H3220 C3249 0.950 . S
H3221 C3250 0.950 . S
H3222 C3252 0.950 . S
H3223 C3253 0.950 . S
C3224 H3206 0.951 . S
C3224 C3225 1.366 . S
C3224 C3226 1.388 . S
C3225 C3224 1.366 . S
C3225 C3229 1.385 . S
C3226 H3207 0.951 . S
C3226 C3224 1.388 . S
C3226 C3227 1.366 . S
C3227 C3226 1.366 . S
C3227 C3228 1.414 . S
C3227 C3230 1.499 . S
C3228 H3208 0.950 . S
C3228 C3227 1.414 . S
C3228 C3229 1.374 . S
C3229 H3209 0.950 . S
C3229 C3225 1.385 . S
C3229 C3228 1.374 . S
C3230 C3227 1.499 . S
C3230 C3231 1.373 . S
C3230 C3232 1.389 . S
C3231 H3210 0.950 . S
C3231 C3230 1.373 . S
C3231 C3247 1.377 . S
C3232 C3230 1.389 . S
C3232 C3233 1.524 . S
C3232 C3246 1.377 . S
C3233 C3232 1.524 . S
C3233 C3234 1.397 . S
C3233 C3238 1.363 . S
C3234 H3211 0.950 . S
C3234 C3233 1.397 . S
C3234 C3235 1.334 . S
C3235 H3212 0.950 . S
C3235 C3234 1.334 . S
C3235 C3236 1.287 . S
C3236 C3235 1.287 . S
C3236 C3237 1.524 . S
C3236 H3255 0.913 . S
C3237 H3213 0.950 . S
C3237 C3236 1.524 . S
C3237 C3238 1.415 . S
C3238 H3214 0.950 . S
C3238 C3233 1.363 . S
C3238 C3237 1.415 . S
C3239 H3215 0.951 . S
C3239 C3240 1.366 . S
C3239 C3241 1.388 . S
C3240 C3239 1.366 . S
C3240 C3244 1.385 . S
C3241 H3216 0.951 . S
C3241 C3239 1.388 . S
C3241 C3242 1.366 . S
C3242 C3241 1.366 . S
C3242 C3243 1.414 . S
C3242 C3245 1.499 . S
C3243 H3217 0.950 . S
C3243 C3242 1.414 . S
C3243 C3244 1.374 . S
C3244 H3218 0.950 . S
C3244 C3240 1.385 . S
C3244 C3243 1.374 . S
C3245 C3242 1.499 . S
C3245 C3246 1.373 . S
C3245 C3247 1.389 . S
C3246 H3219 0.950 . S
C3246 C3232 1.377 . S
C3246 C3245 1.373 . S
C3247 C3231 1.377 . S
C3247 C3245 1.389 . S
C3247 C3248 1.524 . S
C3248 C3247 1.524 . S
C3248 C3249 1.397 . S
C3248 C3253 1.363 . S
C3249 H3220 0.950 . S
C3249 C3248 1.397 . S
C3249 C3250 1.334 . S
C3250 H3221 0.950 . S
C3250 C3249 1.334 . S
C3250 C3251 1.287 . S
C3251 C3250 1.287 . S
C3251 C3252 1.524 . S
C3251 H3254 0.999 . S
C3252 H3222 0.950 . S
C3252 C3251 1.524 . S
C3252 C3253 1.415 . S
C3253 H3223 0.950 . S
C3253 C3248 1.363 . S
C3253 C3252 1.415 . S
H3254 C3251 0.999 . S
H3255 C3236 0.913 . S
H3256 C3274 0.951 . S
H3257 C3276 0.951 . S
H3258 C3278 0.950 . S
H3259 C3279 0.950 . S
H3260 C3281 0.950 . S
H3261 C3284 0.950 1_545 S
H3262 C3285 0.950 . S
H3263 C3287 0.950 . S
H3264 C3288 0.950 . S
H3265 C3289 0.951 . S
H3266 C3291 0.951 . S
H3267 C3293 0.950 1_565 S
H3268 C3294 0.950 1_565 S
H3269 C3296 0.950 1_565 S
H3270 C3299 0.950 . S
H3271 C3300 0.950 . S
H3272 C3302 0.950 . S
H3273 C3303 0.950 . S
C3274 H3256 0.951 . S
C3274 C3275 1.366 . S
C3274 C3276 1.388 . S
C3275 C3274 1.366 . S
C3275 C3279 1.385 . S
C3276 H3257 0.951 . S
C3276 C3274 1.388 . S
C3276 C3277 1.366 . S
C3277 C3276 1.366 . S
C3277 C3278 1.414 . S
C3277 C3280 1.499 . S
C3278 H3258 0.950 . S
C3278 C3277 1.414 . S
C3278 C3279 1.374 . S
C3279 H3259 0.950 . S
C3279 C3275 1.385 . S
C3279 C3278 1.374 . S
C3280 C3277 1.499 . S
C3280 C3281 1.373 . S
C3280 C3282 1.389 . S
C3281 H3260 0.950 . S
C3281 C3280 1.373 . S
C3281 C3297 1.377 . S
C3282 C3280 1.389 . S
C3282 C3283 1.524 1_545 S
C3282 C3296 1.377 . S
C3283 C3282 1.524 1_565 S
C3283 C3284 1.397 . S
C3283 C3288 1.363 . S
C3284 H3261 0.950 1_565 S
C3284 C3283 1.397 . S
C3284 C3285 1.334 . S
C3285 H3262 0.950 . S
C3285 C3284 1.334 . S
C3285 C3286 1.287 . S
C3286 C3285 1.287 . S
C3286 C3287 1.524 . S
C3286 H3305 0.913 . S
C3287 H3263 0.950 . S
C3287 C3286 1.524 . S
C3287 C3288 1.415 . S
C3288 H3264 0.950 . S
C3288 C3283 1.363 . S
C3288 C3287 1.415 . S
C3289 H3265 0.951 . S
C3289 C3290 1.366 . S
C3289 C3291 1.388 . S
C3290 C3289 1.366 . S
C3290 C3294 1.385 . S
C3291 H3266 0.951 . S
C3291 C3289 1.388 . S
C3291 C3292 1.366 . S
C3292 C3291 1.366 . S
C3292 C3293 1.414 . S
C3292 C3295 1.499 . S
C3293 H3267 0.950 1_545 S
C3293 C3292 1.414 . S
C3293 C3294 1.374 . S
C3294 H3268 0.950 1_545 S
C3294 C3290 1.385 . S
C3294 C3293 1.374 . S
C3295 C3292 1.499 . S
C3295 C3296 1.373 . S
C3295 C3297 1.389 . S
C3296 H3269 0.950 1_545 S
C3296 C3282 1.377 . S
C3296 C3295 1.373 . S
C3297 C3281 1.377 . S
C3297 C3295 1.389 . S
C3297 C3298 1.524 . S
C3298 C3297 1.524 . S
C3298 C3299 1.397 . S
C3298 C3303 1.363 . S
C3299 H3270 0.950 . S
C3299 C3298 1.397 . S
C3299 C3300 1.334 . S
C3300 H3271 0.950 . S
C3300 C3299 1.334 . S
C3300 C3301 1.287 . S
C3301 C3300 1.287 . S
C3301 C3302 1.524 . S
C3301 H3304 0.999 . S
C3302 H3272 0.950 . S
C3302 C3301 1.524 . S
C3302 C3303 1.415 . S
C3303 H3273 0.950 . S
C3303 C3298 1.363 . S
C3303 C3302 1.415 . S
H3304 C3301 0.999 . S
H3305 C3286 0.913 . S
H3306 C3324 0.951 . S
H3307 C3326 0.951 . S
H3308 C3328 0.950 . S
H3309 C3329 0.950 . S
H3310 C3331 0.950 . S
H3311 C3334 0.950 . S
H3312 C3335 0.950 . S
H3313 C3337 0.950 . S
H3314 C3338 0.950 . S
H3315 C3339 0.951 . S
H3316 C3341 0.951 . S
H3317 C3343 0.950 . S
H3318 C3344 0.950 . S
H3319 C3346 0.950 . S
H3320 C3349 0.950 . S
H3321 C3350 0.950 . S
H3322 C3352 0.950 . S
H3323 C3353 0.950 . S
C3324 H3306 0.951 . S
C3324 C3325 1.366 . S
C3324 C3326 1.388 . S
C3325 C3324 1.366 . S
C3325 C3329 1.385 . S
C3326 H3307 0.951 . S
C3326 C3324 1.388 . S
C3326 C3327 1.366 . S
C3327 C3326 1.366 . S
C3327 C3328 1.414 . S
C3327 C3330 1.499 . S
C3328 H3308 0.950 . S
C3328 C3327 1.414 . S
C3328 C3329 1.374 . S
C3329 H3309 0.950 . S
C3329 C3325 1.385 . S
C3329 C3328 1.374 . S
C3330 C3327 1.499 . S
C3330 C3331 1.373 . S
C3330 C3332 1.389 . S
C3331 H3310 0.950 . S
C3331 C3330 1.373 . S
C3331 C3347 1.377 . S
C3332 C3330 1.389 . S
C3332 C3333 1.524 . S
C3332 C3346 1.377 . S
C3333 C3332 1.524 . S
C3333 C3334 1.397 . S
C3333 C3338 1.363 . S
C3334 H3311 0.950 . S
C3334 C3333 1.397 . S
C3334 C3335 1.334 . S
C3335 H3312 0.950 . S
C3335 C3334 1.334 . S
C3335 C3336 1.287 . S
C3336 C3335 1.287 . S
C3336 C3337 1.524 . S
C3336 H3355 0.913 . S
C3337 H3313 0.950 . S
C3337 C3336 1.524 . S
C3337 C3338 1.415 . S
C3338 H3314 0.950 . S
C3338 C3333 1.363 . S
C3338 C3337 1.415 . S
C3339 H3315 0.951 . S
C3339 C3340 1.366 . S
C3339 C3341 1.388 . S
C3340 C3339 1.366 . S
C3340 C3344 1.385 . S
C3341 H3316 0.951 . S
C3341 C3339 1.388 . S
C3341 C3342 1.366 . S
C3342 C3341 1.366 . S
C3342 C3343 1.414 . S
C3342 C3345 1.499 . S
C3343 H3317 0.950 . S
C3343 C3342 1.414 . S
C3343 C3344 1.374 . S
C3344 H3318 0.950 . S
C3344 C3340 1.385 . S
C3344 C3343 1.374 . S
C3345 C3342 1.499 . S
C3345 C3346 1.373 . S
C3345 C3347 1.389 . S
C3346 H3319 0.950 . S
C3346 C3332 1.377 . S
C3346 C3345 1.373 . S
C3347 C3331 1.377 . S
C3347 C3345 1.389 . S
C3347 C3348 1.524 . S
C3348 C3347 1.524 . S
C3348 C3349 1.397 . S
C3348 C3353 1.363 . S
C3349 H3320 0.950 . S
C3349 C3348 1.397 . S
C3349 C3350 1.334 . S
C3350 H3321 0.950 . S
C3350 C3349 1.334 . S
C3350 C3351 1.287 . S
C3351 C3350 1.287 . S
C3351 C3352 1.524 . S
C3351 H3354 0.999 . S
C3352 H3322 0.950 . S
C3352 C3351 1.524 . S
C3352 C3353 1.415 . S
C3353 H3323 0.950 . S
C3353 C3348 1.363 . S
C3353 C3352 1.415 . S
H3354 C3351 0.999 . S
H3355 C3336 0.913 . S
H3356 C3374 0.951 . S
H3357 C3376 0.951 . S
H3358 C3378 0.950 . S
H3359 C3379 0.950 . S
H3360 C3381 0.950 1_565 S
H3361 C3384 0.950 . S
H3362 C3385 0.950 . S
H3363 C3387 0.950 . S
H3364 C3388 0.950 . S
H3365 C3389 0.951 . S
H3366 C3391 0.951 . S
H3367 C3393 0.950 . S
H3368 C3394 0.950 . S
H3369 C3396 0.950 . S
H3370 C3399 0.950 . S
H3371 C3400 0.950 . S
H3372 C3402 0.950 . S
H3373 C3403 0.950 . S
C3374 H3356 0.951 . S
C3374 C3375 1.366 . S
C3374 C3376 1.388 . S
C3375 C3374 1.366 . S
C3375 C3379 1.385 . S
C3376 H3357 0.951 . S
C3376 C3374 1.388 . S
C3376 C3377 1.366 . S
C3377 C3376 1.366 . S
C3377 C3378 1.414 . S
C3377 C3380 1.499 . S
C3378 H3358 0.950 . S
C3378 C3377 1.414 . S
C3378 C3379 1.374 . S
C3379 H3359 0.950 . S
C3379 C3375 1.385 . S
C3379 C3378 1.374 . S
C3380 C3377 1.499 . S
C3380 C3381 1.373 . S
C3380 C3382 1.389 . S
C3381 H3360 0.950 1_545 S
C3381 C3380 1.373 . S
C3381 C3397 1.377 . S
C3382 C3380 1.389 . S
C3382 C3383 1.524 . S
C3382 C3396 1.377 . S
C3383 C3382 1.524 . S
C3383 C3384 1.397 . S
C3383 C3388 1.363 . S
C3384 H3361 0.950 . S
C3384 C3383 1.397 . S
C3384 C3385 1.334 . S
C3385 H3362 0.950 . S
C3385 C3384 1.334 . S
C3385 C3386 1.287 . S
C3386 C3385 1.287 . S
C3386 C3387 1.524 . S
C3386 H3405 0.913 . S
C3387 H3363 0.950 . S
C3387 C3386 1.524 . S
C3387 C3388 1.415 . S
C3388 H3364 0.950 . S
C3388 C3383 1.363 . S
C3388 C3387 1.415 . S
C3389 H3365 0.951 . S
C3389 C3390 1.366 . S
C3389 C3391 1.388 . S
C3390 C3389 1.366 . S
C3390 C3394 1.385 . S
C3391 H3366 0.951 . S
C3391 C3389 1.388 . S
C3391 C3392 1.366 . S
C3392 C3391 1.366 . S
C3392 C3393 1.414 . S
C3392 C3395 1.499 . S
C3393 H3367 0.950 . S
C3393 C3392 1.414 . S
C3393 C3394 1.374 . S
C3394 H3368 0.950 . S
C3394 C3390 1.385 . S
C3394 C3393 1.374 . S
C3395 C3392 1.499 . S
C3395 C3396 1.373 . S
C3395 C3397 1.389 . S
C3396 H3369 0.950 . S
C3396 C3382 1.377 . S
C3396 C3395 1.373 . S
C3397 C3381 1.377 . S
C3397 C3395 1.389 . S
C3397 C3398 1.524 1_545 S
C3398 C3397 1.524 1_565 S
C3398 C3399 1.397 . S
C3398 C3403 1.363 . S
C3399 H3370 0.950 . S
C3399 C3398 1.397 . S
C3399 C3400 1.334 . S
C3400 H3371 0.950 . S
C3400 C3399 1.334 . S
C3400 C3401 1.287 . S
C3401 C3400 1.287 . S
C3401 C3402 1.524 . S
C3401 H3404 0.999 . S
C3402 H3372 0.950 . S
C3402 C3401 1.524 . S
C3402 C3403 1.415 . S
C3403 H3373 0.950 . S
C3403 C3398 1.363 . S
C3403 C3402 1.415 . S
H3404 C3401 0.999 . S
H3405 C3386 0.913 . S
H3406 C3424 0.951 . S
H3407 C3426 0.951 . S
H3408 C3428 0.950 . S
H3409 C3429 0.950 . S
H3410 C3431 0.950 . S
H3411 C3434 0.950 . S
H3412 C3435 0.950 . S
H3413 C3437 0.950 . S
H3414 C3438 0.950 . S
H3415 C3439 0.951 . S
H3416 C3441 0.951 . S
H3417 C3443 0.950 . S
H3418 C3444 0.950 . S
H3419 C3446 0.950 . S
H3420 C3449 0.950 . S
H3421 C3450 0.950 . S
H3422 C3452 0.950 . S
H3423 C3453 0.950 . S
C3424 H3406 0.951 . S
C3424 C3425 1.366 . S
C3424 C3426 1.388 . S
C3425 C3424 1.366 . S
C3425 C3429 1.385 . S
C3426 H3407 0.951 . S
C3426 C3424 1.388 . S
C3426 C3427 1.366 . S
C3427 C3426 1.366 . S
C3427 C3428 1.414 . S
C3427 C3430 1.499 . S
C3428 H3408 0.950 . S
C3428 C3427 1.414 . S
C3428 C3429 1.374 . S
C3429 H3409 0.950 . S
C3429 C3425 1.385 . S
C3429 C3428 1.374 . S
C3430 C3427 1.499 . S
C3430 C3431 1.373 . S
C3430 C3432 1.389 . S
C3431 H3410 0.950 . S
C3431 C3430 1.373 . S
C3431 C3447 1.377 . S
C3432 C3430 1.389 . S
C3432 C3433 1.524 . S
C3432 C3446 1.377 . S
C3433 C3432 1.524 . S
C3433 C3434 1.397 . S
C3433 C3438 1.363 . S
C3434 H3411 0.950 . S
C3434 C3433 1.397 . S
C3434 C3435 1.334 . S
C3435 H3412 0.950 . S
C3435 C3434 1.334 . S
C3435 C3436 1.287 . S
C3436 C3435 1.287 . S
C3436 C3437 1.524 . S
C3436 H3455 0.913 . S
C3437 H3413 0.950 . S
C3437 C3436 1.524 . S
C3437 C3438 1.415 . S
C3438 H3414 0.950 . S
C3438 C3433 1.363 . S
C3438 C3437 1.415 . S
C3439 H3415 0.951 . S
C3439 C3440 1.366 . S
C3439 C3441 1.388 . S
C3440 C3439 1.366 . S
C3440 C3444 1.385 . S
C3441 H3416 0.951 . S
C3441 C3439 1.388 . S
C3441 C3442 1.366 . S
C3442 C3441 1.366 . S
C3442 C3443 1.414 . S
C3442 C3445 1.499 . S
C3443 H3417 0.950 . S
C3443 C3442 1.414 . S
C3443 C3444 1.374 . S
C3444 H3418 0.950 . S
C3444 C3440 1.385 . S
C3444 C3443 1.374 . S
C3445 C3442 1.499 . S
C3445 C3446 1.373 . S
C3445 C3447 1.389 . S
C3446 H3419 0.950 . S
C3446 C3432 1.377 . S
C3446 C3445 1.373 . S
C3447 C3431 1.377 . S
C3447 C3445 1.389 . S
C3447 C3448 1.524 . S
C3448 C3447 1.524 . S
C3448 C3449 1.397 . S
C3448 C3453 1.363 . S
C3449 H3420 0.950 . S
C3449 C3448 1.397 . S
C3449 C3450 1.334 . S
C3450 H3421 0.950 . S
C3450 C3449 1.334 . S
C3450 C3451 1.287 . S
C3451 C3450 1.287 . S
C3451 C3452 1.524 . S
C3451 H3454 0.999 . S
C3452 H3422 0.950 . S
C3452 C3451 1.524 . S
C3452 C3453 1.415 . S
C3453 H3423 0.950 . S
C3453 C3448 1.363 . S
C3453 C3452 1.415 . S
H3454 C3451 0.999 . S
H3455 C3436 0.913 . S
H3456 C3474 0.951 . S
H3457 C3476 0.951 . S
H3458 C3478 0.950 . S
H3459 C3479 0.950 . S
H3460 C3481 0.950 . S
H3461 C3484 0.950 . S
H3462 C3485 0.950 . S
H3463 C3487 0.950 . S
H3464 C3488 0.950 . S
H3465 C3489 0.951 . S
H3466 C3491 0.951 . S
H3467 C3493 0.950 . S
H3468 C3494 0.950 . S
H3469 C3496 0.950 . S
H3470 C3499 0.950 . S
H3471 C3500 0.950 . S
H3472 C3502 0.950 . S
H3473 C3503 0.950 . S
C3474 H3456 0.951 . S
C3474 C3475 1.366 . S
C3474 C3476 1.388 . S
C3475 C3474 1.366 . S
C3475 C3479 1.385 . S
C3476 H3457 0.951 . S
C3476 C3474 1.388 . S
C3476 C3477 1.366 . S
C3477 C3476 1.366 . S
C3477 C3478 1.414 . S
C3477 C3480 1.499 . S
C3478 H3458 0.950 . S
C3478 C3477 1.414 . S
C3478 C3479 1.374 . S
C3479 H3459 0.950 . S
C3479 C3475 1.385 . S
C3479 C3478 1.374 . S
C3480 C3477 1.499 . S
C3480 C3481 1.373 . S
C3480 C3482 1.389 . S
C3481 H3460 0.950 . S
C3481 C3480 1.373 . S
C3481 C3497 1.377 . S
C3482 C3480 1.389 . S
C3482 C3483 1.524 1_545 S
C3482 C3496 1.377 . S
C3483 C3482 1.524 1_565 S
C3483 C3484 1.397 . S
C3483 C3488 1.363 . S
C3484 H3461 0.950 . S
C3484 C3483 1.397 . S
C3484 C3485 1.334 . S
C3485 H3462 0.950 . S
C3485 C3484 1.334 . S
C3485 C3486 1.287 . S
C3486 C3485 1.287 . S
C3486 C3487 1.524 . S
C3486 H3505 0.913 . S
C3487 H3463 0.950 . S
C3487 C3486 1.524 . S
C3487 C3488 1.415 . S
C3488 H3464 0.950 . S
C3488 C3483 1.363 . S
C3488 C3487 1.415 . S
C3489 H3465 0.951 . S
C3489 C3490 1.366 . S
C3489 C3491 1.388 . S
C3490 C3489 1.366 . S
C3490 C3494 1.385 . S
C3491 H3466 0.951 . S
C3491 C3489 1.388 . S
C3491 C3492 1.366 . S
C3492 C3491 1.366 . S
C3492 C3493 1.414 . S
C3492 C3495 1.499 . S
C3493 H3467 0.950 . S
C3493 C3492 1.414 . S
C3493 C3494 1.374 . S
C3494 H3468 0.950 . S
C3494 C3490 1.385 . S
C3494 C3493 1.374 . S
C3495 C3492 1.499 . S
C3495 C3496 1.373 . S
C3495 C3497 1.389 . S
C3496 H3469 0.950 . S
C3496 C3482 1.377 . S
C3496 C3495 1.373 . S
C3497 C3481 1.377 . S
C3497 C3495 1.389 . S
C3497 C3498 1.524 . S
C3498 C3497 1.524 . S
C3498 C3499 1.397 . S
C3498 C3503 1.363 . S
C3499 H3470 0.950 . S
C3499 C3498 1.397 . S
C3499 C3500 1.334 . S
C3500 H3471 0.950 . S
C3500 C3499 1.334 . S
C3500 C3501 1.287 . S
C3501 C3500 1.287 . S
C3501 C3502 1.524 . S
C3501 H3504 0.999 . S
C3502 H3472 0.950 . S
C3502 C3501 1.524 . S
C3502 C3503 1.415 . S
C3503 H3473 0.950 . S
C3503 C3498 1.363 . S
C3503 C3502 1.415 . S
H3504 C3501 0.999 . S
H3505 C3486 0.913 . S
H3506 C3524 0.951 . S
H3507 C3526 0.951 . S
H3508 C3528 0.950 . S
H3509 C3529 0.950 . S
H3510 C3531 0.950 . S
H3511 C3534 0.950 . S
H3512 C3535 0.950 . S
H3513 C3537 0.950 . S
H3514 C3538 0.950 . S
H3515 C3539 0.951 . S
H3516 C3541 0.951 . S
H3517 C3543 0.950 . S
H3518 C3544 0.950 . S
H3519 C3546 0.950 . S
H3520 C3549 0.950 . S
H3521 C3550 0.950 . S
H3522 C3552 0.950 . S
H3523 C3553 0.950 . S
C3524 H3506 0.951 . S
C3524 C3525 1.366 . S
C3524 C3526 1.388 . S
C3525 C3524 1.366 . S
C3525 C3529 1.385 . S
C3526 H3507 0.951 . S
C3526 C3524 1.388 . S
C3526 C3527 1.366 . S
C3527 C3526 1.366 . S
C3527 C3528 1.414 . S
C3527 C3530 1.499 . S
C3528 H3508 0.950 . S
C3528 C3527 1.414 . S
C3528 C3529 1.374 . S
C3529 H3509 0.950 . S
C3529 C3525 1.385 . S
C3529 C3528 1.374 . S
C3530 C3527 1.499 . S
C3530 C3531 1.373 . S
C3530 C3532 1.389 . S
C3531 H3510 0.950 . S
C3531 C3530 1.373 . S
C3531 C3547 1.377 . S
C3532 C3530 1.389 . S
C3532 C3533 1.524 . S
C3532 C3546 1.377 . S
C3533 C3532 1.524 . S
C3533 C3534 1.397 . S
C3533 C3538 1.363 . S
C3534 H3511 0.950 . S
C3534 C3533 1.397 . S
C3534 C3535 1.334 . S
C3535 H3512 0.950 . S
C3535 C3534 1.334 . S
C3535 C3536 1.287 . S
C3536 C3535 1.287 . S
C3536 C3537 1.524 . S
C3536 H3555 0.913 . S
C3537 H3513 0.950 . S
C3537 C3536 1.524 . S
C3537 C3538 1.415 . S
C3538 H3514 0.950 . S
C3538 C3533 1.363 . S
C3538 C3537 1.415 . S
C3539 H3515 0.951 . S
C3539 C3540 1.366 . S
C3539 C3541 1.388 . S
C3540 C3539 1.366 . S
C3540 C3544 1.385 . S
C3541 H3516 0.951 . S
C3541 C3539 1.388 . S
C3541 C3542 1.366 . S
C3542 C3541 1.366 . S
C3542 C3543 1.414 . S
C3542 C3545 1.499 . S
C3543 H3517 0.950 . S
C3543 C3542 1.414 . S
C3543 C3544 1.374 . S
C3544 H3518 0.950 . S
C3544 C3540 1.385 . S
C3544 C3543 1.374 . S
C3545 C3542 1.499 . S
C3545 C3546 1.373 . S
C3545 C3547 1.389 . S
C3546 H3519 0.950 . S
C3546 C3532 1.377 . S
C3546 C3545 1.373 . S
C3547 C3531 1.377 . S
C3547 C3545 1.389 . S
C3547 C3548 1.524 . S
C3548 C3547 1.524 . S
C3548 C3549 1.397 . S
C3548 C3553 1.363 . S
C3549 H3520 0.950 . S
C3549 C3548 1.397 . S
C3549 C3550 1.334 . S
C3550 H3521 0.950 . S
C3550 C3549 1.334 . S
C3550 C3551 1.287 . S
C3551 C3550 1.287 . S
C3551 C3552 1.524 . S
C3551 H3554 0.999 . S
C3552 H3522 0.950 . S
C3552 C3551 1.524 . S
C3552 C3553 1.415 . S
C3553 H3523 0.950 . S
C3553 C3548 1.363 . S
C3553 C3552 1.415 . S
H3554 C3551 0.999 . S
H3555 C3536 0.913 . S
H3556 C3574 0.951 . S
H3557 C3576 0.951 . S
H3558 C3578 0.950 . S
H3559 C3579 0.950 . S
H3560 C3581 0.950 . S
H3561 C3584 0.950 . S
H3562 C3585 0.950 . S
H3563 C3587 0.950 . S
H3564 C3588 0.950 . S
H3565 C3589 0.958 . S
H3566 C3591 0.951 . S
H3567 C3593 0.950 . S
H3568 C3594 0.950 . S
H3569 C3596 0.950 . S
H3570 C3599 0.950 . S
H3571 C3600 0.950 . S
H3572 C3602 0.950 . S
H3573 C3603 0.950 . S
C3574 H3556 0.951 . S
C3574 C3575 1.366 . S
C3574 C3576 1.388 . S
C3575 C3574 1.366 . S
C3575 C3579 1.385 1_545 S
C3576 H3557 0.951 . S
C3576 C3574 1.388 . S
C3576 C3577 1.366 . S
C3577 C3576 1.366 . S
C3577 C3578 1.414 1_545 S
C3577 C3580 1.499 . S
C3578 H3558 0.950 . S
C3578 C3577 1.414 1_565 S
C3578 C3579 1.374 . S
C3579 H3559 0.950 . S
C3579 C3575 1.385 1_565 S
C3579 C3578 1.374 . S
C3580 C3577 1.499 . S
C3580 C3581 1.373 1_545 S
C3580 C3582 1.389 . S
C3581 H3560 0.950 . S
C3581 C3580 1.373 1_565 S
C3581 C3597 1.377 . S
C3582 C3580 1.389 . S
C3582 C3583 1.524 . S
C3582 C3596 1.377 . S
C3583 C3582 1.524 . S
C3583 C3584 1.397 . S
C3583 C3588 1.363 . S
C3584 H3561 0.950 . S
C3584 C3583 1.397 . S
C3584 C3585 1.334 . S
C3585 H3562 0.950 . S
C3585 C3584 1.334 . S
C3585 C3586 1.287 . S
C3586 C3585 1.287 . S
C3586 C3587 1.524 . S
C3586 H3605 0.913 . S
C3587 H3563 0.950 . S
C3587 C3586 1.524 . S
C3587 C3588 1.415 . S
C3588 H3564 0.950 . S
C3588 C3583 1.363 . S
C3588 C3587 1.415 . S
C3589 H3565 0.958 . S
C3589 C3590 1.359 1_565 S
C3589 C3591 1.388 . S
C3590 C3589 1.359 1_545 S
C3590 C3594 1.385 . S
C3591 H3566 0.951 . S
C3591 C3589 1.388 . S
C3591 C3592 1.366 1_565 S
C3592 C3591 1.366 1_545 S
C3592 C3593 1.414 . S
C3592 C3595 1.499 . S
C3593 H3567 0.950 . S
C3593 C3592 1.414 . S
C3593 C3594 1.374 . S
C3594 H3568 0.950 . S
C3594 C3590 1.385 . S
C3594 C3593 1.374 . S
C3595 C3592 1.499 . S
C3595 C3596 1.373 . S
C3595 C3597 1.389 1_545 S
C3596 H3569 0.950 . S
C3596 C3582 1.377 . S
C3596 C3595 1.373 . S
C3597 C3581 1.377 . S
C3597 C3595 1.389 1_565 S
C3597 C3598 1.524 . S
C3598 C3597 1.524 . S
C3598 C3599 1.397 . S
C3598 C3603 1.363 . S
C3599 H3570 0.950 . S
C3599 C3598 1.397 . S
C3599 C3600 1.334 . S
C3600 H3571 0.950 . S
C3600 C3599 1.334 . S
C3600 C3601 1.287 . S
C3601 C3600 1.287 . S
C3601 C3602 1.524 . S
C3601 H3604 0.999 . S
C3602 H3572 0.950 . S
C3602 C3601 1.524 . S
C3602 C3603 1.415 . S
C3603 H3573 0.950 . S
C3603 C3598 1.363 . S
C3603 C3602 1.415 . S
H3604 C3601 0.999 . S
H3605 C3586 0.913 . S
H3606 C3624 0.951 . S
H3607 C3626 0.951 . S
H3608 C3628 0.950 . S
H3609 C3629 0.950 . S
H3610 C3631 0.950 . S
H3611 C3634 0.950 . S
H3612 C3635 0.950 . S
H3613 C3637 0.950 . S
H3614 C3638 0.950 . S
H3615 C3639 0.951 . S
H3616 C3641 0.951 . S
H3617 C3643 0.950 . S
H3618 C3644 0.950 . S
H3619 C3646 0.950 . S
H3620 C3649 0.950 . S
H3621 C3650 0.950 . S
H3622 C3652 0.950 . S
H3623 C3653 0.950 . S
C3624 H3606 0.951 . S
C3624 C3625 1.366 . S
C3624 C3626 1.388 . S
C3625 C3624 1.366 . S
C3625 C3629 1.385 . S
C3626 H3607 0.951 . S
C3626 C3624 1.388 . S
C3626 C3627 1.366 . S
C3627 C3626 1.366 . S
C3627 C3628 1.414 . S
C3627 C3630 1.499 . S
C3628 H3608 0.950 . S
C3628 C3627 1.414 . S
C3628 C3629 1.374 . S
C3629 H3609 0.950 . S
C3629 C3625 1.385 . S
C3629 C3628 1.374 . S
C3630 C3627 1.499 . S
C3630 C3631 1.373 . S
C3630 C3632 1.389 . S
C3631 H3610 0.950 . S
C3631 C3630 1.373 . S
C3631 C3647 1.377 . S
C3632 C3630 1.389 . S
C3632 C3633 1.524 . S
C3632 C3646 1.377 . S
C3633 C3632 1.524 . S
C3633 C3634 1.397 . S
C3633 C3638 1.363 . S
C3634 H3611 0.950 . S
C3634 C3633 1.397 . S
C3634 C3635 1.334 . S
C3635 H3612 0.950 . S
C3635 C3634 1.334 . S
C3635 C3636 1.287 . S
C3636 C3635 1.287 . S
C3636 C3637 1.524 . S
C3636 H3655 0.913 . S
C3637 H3613 0.950 . S
C3637 C3636 1.524 . S
C3637 C3638 1.415 . S
C3638 H3614 0.950 . S
C3638 C3633 1.363 . S
C3638 C3637 1.415 . S
C3639 H3615 0.951 . S
C3639 C3640 1.366 . S
C3639 C3641 1.388 . S
C3640 C3639 1.366 . S
C3640 C3644 1.385 . S
C3641 H3616 0.951 . S
C3641 C3639 1.388 . S
C3641 C3642 1.366 . S
C3642 C3641 1.366 . S
C3642 C3643 1.414 . S
C3642 C3645 1.499 . S
C3643 H3617 0.950 . S
C3643 C3642 1.414 . S
C3643 C3644 1.374 . S
C3644 H3618 0.950 . S
C3644 C3640 1.385 . S
C3644 C3643 1.374 . S
C3645 C3642 1.499 . S
C3645 C3646 1.373 . S
C3645 C3647 1.389 . S
C3646 H3619 0.950 . S
C3646 C3632 1.377 . S
C3646 C3645 1.373 . S
C3647 C3631 1.377 . S
C3647 C3645 1.389 . S
C3647 C3648 1.524 . S
C3648 C3647 1.524 . S
C3648 C3649 1.397 . S
C3648 C3653 1.363 . S
C3649 H3620 0.950 . S
C3649 C3648 1.397 . S
C3649 C3650 1.334 . S
C3650 H3621 0.950 . S
C3650 C3649 1.334 . S
C3650 C3651 1.287 . S
C3651 C3650 1.287 . S
C3651 C3652 1.524 . S
C3651 H3654 0.999 . S
C3652 H3622 0.950 . S
C3652 C3651 1.524 . S
C3652 C3653 1.415 . S
C3653 H3623 0.950 . S
C3653 C3648 1.363 . S
C3653 C3652 1.415 . S
H3654 C3651 0.999 . S
H3655 C3636 0.913 . S
H3656 C3674 0.951 . S
H3657 C3676 0.951 . S
H3658 C3678 0.950 . S
H3659 C3679 0.950 . S
H3660 C3681 0.950 . S
H3661 C3684 0.950 . S
H3662 C3685 0.950 . S
H3663 C3687 0.950 . S
H3664 C3688 0.950 . S
H3665 C3689 0.951 . S
H3666 C3691 0.951 . S
H3667 C3693 0.950 . S
H3668 C3694 0.950 . S
H3669 C3696 0.950 . S
H3670 C3699 0.950 . S
H3671 C3700 0.950 . S
H3672 C3702 0.950 . S
H3673 C3703 0.950 . S
C3674 H3656 0.951 . S
C3674 C3675 1.366 . S
C3674 C3676 1.388 . S
C3675 C3674 1.366 . S
C3675 C3679 1.385 . S
C3676 H3657 0.951 . S
C3676 C3674 1.388 . S
C3676 C3677 1.366 . S
C3677 C3676 1.366 . S
C3677 C3678 1.414 . S
C3677 C3680 1.499 . S
C3678 H3658 0.950 . S
C3678 C3677 1.414 . S
C3678 C3679 1.374 . S
C3679 H3659 0.950 . S
C3679 C3675 1.385 . S
C3679 C3678 1.374 . S
C3680 C3677 1.499 . S
C3680 C3681 1.373 . S
C3680 C3682 1.389 . S
C3681 H3660 0.950 . S
C3681 C3680 1.373 . S
C3681 C3697 1.377 . S
C3682 C3680 1.389 . S
C3682 C3683 1.524 1_554 S
C3682 C3696 1.377 . S
C3683 C3682 1.524 1_556 S
C3683 C3684 1.397 . S
C3683 C3688 1.363 . S
C3684 H3661 0.950 . S
C3684 C3683 1.397 . S
C3684 C3685 1.334 . S
C3685 H3662 0.950 . S
C3685 C3684 1.334 . S
C3685 C3686 1.287 . S
C3686 C3685 1.287 . S
C3686 C3687 1.524 . S
C3686 H3705 0.913 . S
C3687 H3663 0.950 . S
C3687 C3686 1.524 . S
C3687 C3688 1.415 . S
C3688 H3664 0.950 . S
C3688 C3683 1.363 . S
C3688 C3687 1.415 . S
C3689 H3665 0.951 . S
C3689 C3690 1.366 . S
C3689 C3691 1.388 . S
C3690 C3689 1.366 . S
C3690 C3694 1.385 . S
C3691 H3666 0.951 . S
C3691 C3689 1.388 . S
C3691 C3692 1.366 . S
C3692 C3691 1.366 . S
C3692 C3693 1.414 . S
C3692 C3695 1.499 . S
C3693 H3667 0.950 . S
C3693 C3692 1.414 . S
C3693 C3694 1.374 . S
C3694 H3668 0.950 . S
C3694 C3690 1.385 . S
C3694 C3693 1.374 . S
C3695 C3692 1.499 . S
C3695 C3696 1.373 . S
C3695 C3697 1.389 . S
C3696 H3669 0.950 . S
C3696 C3682 1.377 . S
C3696 C3695 1.373 . S
C3697 C3681 1.377 . S
C3697 C3695 1.389 . S
C3697 C3698 1.524 . S
C3698 C3697 1.524 . S
C3698 C3699 1.397 . S
C3698 C3703 1.363 . S
C3699 H3670 0.950 . S
C3699 C3698 1.397 . S
C3699 C3700 1.334 . S
C3700 H3671 0.950 . S
C3700 C3699 1.334 . S
C3700 C3701 1.287 . S
C3701 C3700 1.287 . S
C3701 C3702 1.524 . S
C3701 H3704 0.999 . S
C3702 H3672 0.950 . S
C3702 C3701 1.524 . S
C3702 C3703 1.415 . S
C3703 H3673 0.950 . S
C3703 C3698 1.363 . S
C3703 C3702 1.415 . S
H3704 C3701 0.999 . S
H3705 C3686 0.913 . S
H3706 C3724 0.951 . S
H3707 C3726 0.951 . S
H3708 C3728 0.950 . S
H3709 C3729 0.950 . S
H3710 C3731 0.950 . S
H3711 C3734 0.950 . S
H3712 C3735 0.950 1_556 S
H3713 C3737 0.950 . S
H3714 C3738 0.950 . S
H3715 C3739 0.951 . S
H3716 C3741 0.951 . S
H3717 C3743 0.950 . S
H3718 C3744 0.950 . S
H3719 C3746 0.950 . S
H3720 C3749 0.950 . S
H3721 C3750 0.950 . S
H3722 C3752 0.950 . S
H3723 C3753 0.950 . S
C3724 H3706 0.951 . S
C3724 C3725 1.366 . S
C3724 C3726 1.388 . S
C3725 C3724 1.366 . S
C3725 C3729 1.385 . S
C3726 H3707 0.951 . S
C3726 C3724 1.388 . S
C3726 C3727 1.366 . S
C3727 C3726 1.366 . S
C3727 C3728 1.414 . S
C3727 C3730 1.499 . S
C3728 H3708 0.950 . S
C3728 C3727 1.414 . S
C3728 C3729 1.374 . S
C3729 H3709 0.950 . S
C3729 C3725 1.385 . S
C3729 C3728 1.374 . S
C3730 C3727 1.499 . S
C3730 C3731 1.373 . S
C3730 C3732 1.389 . S
C3731 H3710 0.950 . S
C3731 C3730 1.373 . S
C3731 C3747 1.377 . S
C3732 C3730 1.389 . S
C3732 C3733 1.524 . S
C3732 C3746 1.377 . S
C3733 C3732 1.524 . S
C3733 C3734 1.397 . S
C3733 C3738 1.363 . S
C3734 H3711 0.950 . S
C3734 C3733 1.397 . S
C3734 C3735 1.334 . S
C3735 H3712 0.950 1_554 S
C3735 C3734 1.334 . S
C3735 C3736 1.287 . S
C3736 C3735 1.287 . S
C3736 C3737 1.524 . S
C3736 H3755 0.913 . S
C3737 H3713 0.950 . S
C3737 C3736 1.524 . S
C3737 C3738 1.415 . S
C3738 H3714 0.950 . S
C3738 C3733 1.363 . S
C3738 C3737 1.415 . S
C3739 H3715 0.951 . S
C3739 C3740 1.366 . S
C3739 C3741 1.388 . S
C3740 C3739 1.366 . S
C3740 C3744 1.385 . S
C3741 H3716 0.951 . S
C3741 C3739 1.388 . S
C3741 C3742 1.366 . S
C3742 C3741 1.366 . S
C3742 C3743 1.414 . S
C3742 C3745 1.499 . S
C3743 H3717 0.950 . S
C3743 C3742 1.414 . S
C3743 C3744 1.374 . S
C3744 H3718 0.950 . S
C3744 C3740 1.385 . S
C3744 C3743 1.374 . S
C3745 C3742 1.499 . S
C3745 C3746 1.373 . S
C3745 C3747 1.389 . S
C3746 H3719 0.950 . S
C3746 C3732 1.377 . S
C3746 C3745 1.373 . S
C3747 C3731 1.377 . S
C3747 C3745 1.389 . S
C3747 C3748 1.524 . S
C3748 C3747 1.524 . S
C3748 C3749 1.397 . S
C3748 C3753 1.363 . S
C3749 H3720 0.950 . S
C3749 C3748 1.397 . S
C3749 C3750 1.334 . S
C3750 H3721 0.950 . S
C3750 C3749 1.334 . S
C3750 C3751 1.287 . S
C3751 C3750 1.287 . S
C3751 C3752 1.524 . S
C3751 H3754 0.999 . S
C3752 H3722 0.950 . S
C3752 C3751 1.524 . S
C3752 C3753 1.415 . S
C3753 H3723 0.950 . S
C3753 C3748 1.363 . S
C3753 C3752 1.415 . S
H3754 C3751 0.999 . S
H3755 C3736 0.913 . S
H3756 C3774 0.951 . S
H3757 C3776 0.951 . S
H3758 C3778 0.950 . S
H3759 C3779 0.950 . S
H3760 C3781 0.950 . S
H3761 C3784 0.950 . S
H3762 C3785 0.950 . S
H3763 C3787 0.950 . S
H3764 C3788 0.950 . S
H3765 C3789 0.951 . S
H3766 C3791 0.951 . S
H3767 C3793 0.950 . S
H3768 C3794 0.950 . S
H3769 C3796 0.950 . S
H3770 C3799 0.950 . S
H3771 C3800 0.950 . S
H3772 C3802 0.950 . S
H3773 C3803 0.950 . S
C3774 H3756 0.951 . S
C3774 C3775 1.366 . S
C3774 C3776 1.388 . S
C3775 C3774 1.366 . S
C3775 C3779 1.385 . S
C3776 H3757 0.951 . S
C3776 C3774 1.388 . S
C3776 C3777 1.366 . S
C3777 C3776 1.366 . S
C3777 C3778 1.414 . S
C3777 C3780 1.499 . S
C3778 H3758 0.950 . S
C3778 C3777 1.414 . S
C3778 C3779 1.374 . S
C3779 H3759 0.950 . S
C3779 C3775 1.385 . S
C3779 C3778 1.374 . S
C3780 C3777 1.499 . S
C3780 C3781 1.373 . S
C3780 C3782 1.389 . S
C3781 H3760 0.950 . S
C3781 C3780 1.373 . S
C3781 C3797 1.377 . S
C3782 C3780 1.389 . S
C3782 C3783 1.524 . S
C3782 C3796 1.377 . S
C3783 C3782 1.524 . S
C3783 C3784 1.397 . S
C3783 C3788 1.363 . S
C3784 H3761 0.950 . S
C3784 C3783 1.397 . S
C3784 C3785 1.334 . S
C3785 H3762 0.950 . S
C3785 C3784 1.334 . S
C3785 C3786 1.287 . S
C3786 C3785 1.287 . S
C3786 C3787 1.524 . S
C3786 H3805 0.913 . S
C3787 H3763 0.950 . S
C3787 C3786 1.524 . S
C3787 C3788 1.415 . S
C3788 H3764 0.950 . S
C3788 C3783 1.363 . S
C3788 C3787 1.415 . S
C3789 H3765 0.951 . S
C3789 C3790 1.366 . S
C3789 C3791 1.388 . S
C3790 C3789 1.366 . S
C3790 C3794 1.385 . S
C3791 H3766 0.951 . S
C3791 C3789 1.388 . S
C3791 C3792 1.366 . S
C3792 C3791 1.366 . S
C3792 C3793 1.414 . S
C3792 C3795 1.499 . S
C3793 H3767 0.950 . S
C3793 C3792 1.414 . S
C3793 C3794 1.374 . S
C3794 H3768 0.950 . S
C3794 C3790 1.385 . S
C3794 C3793 1.374 . S
C3795 C3792 1.499 . S
C3795 C3796 1.373 . S
C3795 C3797 1.389 . S
C3796 H3769 0.950 . S
C3796 C3782 1.377 . S
C3796 C3795 1.373 . S
C3797 C3781 1.377 . S
C3797 C3795 1.389 . S
C3797 C3798 1.524 . S
C3798 C3797 1.524 . S
C3798 C3799 1.397 . S
C3798 C3803 1.363 . S
C3799 H3770 0.950 . S
C3799 C3798 1.397 . S
C3799 C3800 1.334 . S
C3800 H3771 0.950 . S
C3800 C3799 1.334 . S
C3800 C3801 1.287 . S
C3801 C3800 1.287 . S
C3801 C3802 1.524 . S
C3801 H3804 0.999 . S
C3802 H3772 0.950 . S
C3802 C3801 1.524 . S
C3802 C3803 1.415 . S
C3803 H3773 0.950 . S
C3803 C3798 1.363 . S
C3803 C3802 1.415 . S
H3804 C3801 0.999 . S
H3805 C3786 0.913 . S
H3806 C3824 0.951 . S
H3807 C3826 0.951 . S
H3808 C3828 0.950 . S
H3809 C3829 0.950 . S
H3810 C3831 0.950 . S
H3811 C3834 0.950 . S
H3812 C3835 0.950 . S
H3813 C3837 0.950 . S
H3814 C3838 0.950 . S
H3815 C3839 0.951 . S
H3816 C3841 0.951 . S
H3817 C3843 0.950 . S
H3818 C3844 0.950 . S
H3819 C3846 0.950 . S
H3820 C3849 0.950 . S
H3821 C3850 0.950 . S
H3822 C3852 0.950 . S
H3823 C3853 0.950 . S
C3824 H3806 0.951 . S
C3824 C3825 1.366 . S
C3824 C3826 1.388 . S
C3825 C3824 1.366 . S
C3825 C3829 1.385 . S
C3826 H3807 0.951 . S
C3826 C3824 1.388 . S
C3826 C3827 1.366 . S
C3827 C3826 1.366 . S
C3827 C3828 1.414 . S
C3827 C3830 1.499 . S
C3828 H3808 0.950 . S
C3828 C3827 1.414 . S
C3828 C3829 1.374 . S
C3829 H3809 0.950 . S
C3829 C3825 1.385 . S
C3829 C3828 1.374 . S
C3830 C3827 1.499 . S
C3830 C3831 1.373 . S
C3830 C3832 1.389 . S
C3831 H3810 0.950 . S
C3831 C3830 1.373 . S
C3831 C3847 1.377 . S
C3832 C3830 1.389 . S
C3832 C3833 1.524 . S
C3832 C3846 1.377 . S
C3833 C3832 1.524 . S
C3833 C3834 1.397 . S
C3833 C3838 1.363 . S
C3834 H3811 0.950 . S
C3834 C3833 1.397 . S
C3834 C3835 1.334 . S
C3835 H3812 0.950 . S
C3835 C3834 1.334 . S
C3835 C3836 1.287 . S
C3836 C3835 1.287 . S
C3836 C3837 1.524 . S
C3836 H3855 0.913 . S
C3837 H3813 0.950 . S
C3837 C3836 1.524 . S
C3837 C3838 1.415 . S
C3838 H3814 0.950 . S
C3838 C3833 1.363 . S
C3838 C3837 1.415 . S
C3839 H3815 0.951 . S
C3839 C3840 1.366 . S
C3839 C3841 1.388 . S
C3840 C3839 1.366 . S
C3840 C3844 1.385 . S
C3841 H3816 0.951 . S
C3841 C3839 1.388 . S
C3841 C3842 1.366 . S
C3842 C3841 1.366 . S
C3842 C3843 1.414 . S
C3842 C3845 1.499 . S
C3843 H3817 0.950 . S
C3843 C3842 1.414 . S
C3843 C3844 1.374 . S
C3844 H3818 0.950 . S
C3844 C3840 1.385 . S
C3844 C3843 1.374 . S
C3845 C3842 1.499 . S
C3845 C3846 1.373 . S
C3845 C3847 1.389 . S
C3846 H3819 0.950 . S
C3846 C3832 1.377 . S
C3846 C3845 1.373 . S
C3847 C3831 1.377 . S
C3847 C3845 1.389 . S
C3847 C3848 1.524 . S
C3848 C3847 1.524 . S
C3848 C3849 1.397 . S
C3848 C3853 1.363 . S
C3849 H3820 0.950 . S
C3849 C3848 1.397 . S
C3849 C3850 1.334 . S
C3850 H3821 0.950 . S
C3850 C3849 1.334 . S
C3850 C3851 1.287 . S
C3851 C3850 1.287 . S
C3851 C3852 1.524 . S
C3851 H3854 0.999 . S
C3852 H3822 0.950 . S
C3852 C3851 1.524 . S
C3852 C3853 1.415 . S
C3853 H3823 0.950 . S
C3853 C3848 1.363 . S
C3853 C3852 1.415 . S
H3854 C3851 0.999 . S
H3855 C3836 0.913 . S
H3856 C3874 0.951 . S
H3857 C3876 0.951 . S
H3858 C3878 0.950 . S
H3859 C3879 0.906 1_545 S
H3860 C3881 0.950 . S
H3861 C3884 0.950 . S
H3862 C3885 0.950 . S
H3863 C3887 0.950 . S
H3864 C3888 0.950 . S
H3865 C3889 0.951 . S
H3866 C3891 0.951 . S
H3867 C3893 0.950 . S
H3868 C3894 0.950 . S
H3869 C3896 0.950 . S
H3870 C3899 0.950 . S
H3871 C3900 0.950 . S
H3872 C3902 0.950 . S
H3873 C3903 0.950 . S
C3874 H3856 0.951 . S
C3874 C3875 1.362 1_565 S
C3874 C3876 1.388 . S
C3875 C3874 1.362 1_545 S
C3875 C3879 1.369 1_545 S
C3876 H3857 0.951 . S
C3876 C3874 1.388 . S
C3876 C3877 1.366 . S
C3877 C3876 1.366 . S
C3877 C3878 1.414 . S
C3877 C3880 1.499 . S
C3878 H3858 0.950 . S
C3878 C3877 1.414 . S
C3878 C3879 1.434 . S
C3879 H3859 0.906 1_565 S
C3879 C3875 1.369 1_565 S
C3879 C3878 1.434 . S
C3880 C3877 1.499 . S
C3880 C3881 1.373 . S
C3880 C3882 1.389 . S
C3881 H3860 0.950 . S
C3881 C3880 1.373 . S
C3881 C3897 1.377 . S
C3882 C3880 1.389 . S
C3882 C3883 1.524 . S
C3882 C3896 1.377 . S
C3883 C3882 1.524 . S
C3883 C3884 1.397 . S
C3883 C3888 1.363 . S
C3884 H3861 0.950 . S
C3884 C3883 1.397 . S
C3884 C3885 1.334 . S
C3885 H3862 0.950 . S
C3885 C3884 1.334 . S
C3885 C3886 1.287 . S
C3886 C3885 1.287 . S
C3886 C3887 1.524 . S
C3886 H3905 0.913 . S
C3887 H3863 0.950 . S
C3887 C3886 1.524 . S
C3887 C3888 1.415 . S
C3888 H3864 0.950 . S
C3888 C3883 1.363 . S
C3888 C3887 1.415 . S
C3889 H3865 0.951 . S
C3889 C3890 1.366 . S
C3889 C3891 1.388 . S
C3890 C3889 1.366 . S
C3890 C3894 1.385 . S
C3891 H3866 0.951 . S
C3891 C3889 1.388 . S
C3891 C3892 1.366 . S
C3892 C3891 1.366 . S
C3892 C3893 1.414 . S
C3892 C3895 1.499 . S
C3893 H3867 0.950 . S
C3893 C3892 1.414 . S
C3893 C3894 1.374 . S
C3894 H3868 0.950 . S
C3894 C3890 1.385 . S
C3894 C3893 1.374 . S
C3895 C3892 1.499 . S
C3895 C3896 1.373 . S
C3895 C3897 1.389 . S
C3896 H3869 0.950 . S
C3896 C3882 1.377 . S
C3896 C3895 1.373 . S
C3897 C3881 1.377 . S
C3897 C3895 1.389 . S
C3897 C3898 1.524 . S
C3898 C3897 1.524 . S
C3898 C3899 1.397 . S
C3898 C3903 1.363 . S
C3899 H3870 0.950 . S
C3899 C3898 1.397 . S
C3899 C3900 1.334 . S
C3900 H3871 0.950 . S
C3900 C3899 1.334 . S
C3900 C3901 1.287 . S
C3901 C3900 1.287 . S
C3901 C3902 1.524 . S
C3901 H3904 0.999 . S
C3902 H3872 0.950 . S
C3902 C3901 1.524 . S
C3902 C3903 1.415 . S
C3903 H3873 0.950 . S
C3903 C3898 1.363 . S
C3903 C3902 1.415 . S
H3904 C3901 0.999 . S
H3905 C3886 0.913 . S
H3906 C3924 0.951 . S
H3907 C3926 0.951 . S
H3908 C3928 0.950 . S
H3909 C3929 0.950 . S
H3910 C3931 0.950 . S
H3911 C3934 0.950 . S
H3912 C3935 0.950 . S
H3913 C3937 0.950 . S
H3914 C3938 0.950 . S
H3915 C3939 0.951 . S
H3916 C3941 0.951 . S
H3917 C3943 0.950 . S
H3918 C3944 0.950 . S
H3919 C3946 0.950 . S
H3920 C3949 0.950 . S
H3921 C3950 0.950 . S
H3922 C3952 0.950 . S
H3923 C3953 0.950 . S
C3924 H3906 0.951 . S
C3924 C3925 1.366 . S
C3924 C3926 1.388 . S
C3925 C3924 1.366 . S
C3925 C3929 1.385 . S
C3926 H3907 0.951 . S
C3926 C3924 1.388 . S
C3926 C3927 1.366 . S
C3927 C3926 1.366 . S
C3927 C3928 1.414 . S
C3927 C3930 1.499 . S
C3928 H3908 0.950 . S
C3928 C3927 1.414 . S
C3928 C3929 1.374 . S
C3929 H3909 0.950 . S
C3929 C3925 1.385 . S
C3929 C3928 1.374 . S
C3930 C3927 1.499 . S
C3930 C3931 1.373 . S
C3930 C3932 1.389 . S
C3931 H3910 0.950 . S
C3931 C3930 1.373 . S
C3931 C3947 1.377 . S
C3932 C3930 1.389 . S
C3932 C3933 1.524 . S
C3932 C3946 1.377 . S
C3933 C3932 1.524 . S
C3933 C3934 1.397 . S
C3933 C3938 1.363 . S
C3934 H3911 0.950 . S
C3934 C3933 1.397 . S
C3934 C3935 1.334 . S
C3935 H3912 0.950 . S
C3935 C3934 1.334 . S
C3935 C3936 1.287 . S
C3936 C3935 1.287 . S
C3936 C3937 1.524 . S
C3936 H3955 0.913 . S
C3937 H3913 0.950 . S
C3937 C3936 1.524 . S
C3937 C3938 1.415 . S
C3938 H3914 0.950 . S
C3938 C3933 1.363 . S
C3938 C3937 1.415 . S
C3939 H3915 0.951 . S
C3939 C3940 1.366 . S
C3939 C3941 1.388 . S
C3940 C3939 1.366 . S
C3940 C3944 1.385 . S
C3941 H3916 0.951 . S
C3941 C3939 1.388 . S
C3941 C3942 1.366 . S
C3942 C3941 1.366 . S
C3942 C3943 1.414 . S
C3942 C3945 1.499 . S
C3943 H3917 0.950 . S
C3943 C3942 1.414 . S
C3943 C3944 1.374 . S
C3944 H3918 0.950 . S
C3944 C3940 1.385 . S
C3944 C3943 1.374 . S
C3945 C3942 1.499 . S
C3945 C3946 1.373 . S
C3945 C3947 1.389 . S
C3946 H3919 0.950 . S
C3946 C3932 1.377 . S
C3946 C3945 1.373 . S
C3947 C3931 1.377 . S
C3947 C3945 1.389 . S
C3947 C3948 1.524 . S
C3948 C3947 1.524 . S
C3948 C3949 1.397 . S
C3948 C3953 1.363 . S
C3949 H3920 0.950 . S
C3949 C3948 1.397 . S
C3949 C3950 1.334 1_565 S
C3950 H3921 0.950 . S
C3950 C3949 1.334 1_545 S
C3950 C3951 1.287 . S
C3951 C3950 1.287 . S
C3951 C3952 1.524 . S
C3951 H3954 0.999 . S
C3952 H3922 0.950 . S
C3952 C3951 1.524 . S
C3952 C3953 1.415 1_545 S
C3953 H3923 0.950 . S
C3953 C3948 1.363 . S
C3953 C3952 1.415 1_565 S
H3954 C3951 0.999 . S
H3955 C3936 0.913 . S
H3956 C3974 0.951 . S
H3957 C3976 0.951 . S
H3958 C3978 0.950 . S
H3959 C3979 0.950 . S
H3960 C3981 0.950 . S
H3961 C3984 0.950 . S
H3962 C3985 0.950 . S
H3963 C3987 0.950 . S
H3964 C3988 0.950 . S
H3965 C3989 0.951 . S
H3966 C3991 0.951 . S
H3967 C3993 0.950 . S
H3968 C3994 0.950 . S
H3969 C3996 0.950 . S
H3970 C3999 0.950 . S
H3971 C4000 0.950 . S
H3972 C4002 0.950 . S
H3973 C4003 0.950 . S
C3974 H3956 0.951 . S
C3974 C3975 1.366 . S
C3974 C3976 1.388 . S
C3975 C3974 1.366 . S
C3975 C3979 1.385 . S
C3976 H3957 0.951 . S
C3976 C3974 1.388 . S
C3976 C3977 1.366 . S
C3977 C3976 1.366 . S
C3977 C3978 1.414 . S
C3977 C3980 1.499 . S
C3978 H3958 0.950 . S
C3978 C3977 1.414 . S
C3978 C3979 1.374 . S
C3979 H3959 0.950 . S
C3979 C3975 1.385 . S
C3979 C3978 1.374 . S
C3980 C3977 1.499 . S
C3980 C3981 1.373 . S
C3980 C3982 1.389 . S
C3981 H3960 0.950 . S
C3981 C3980 1.373 . S
C3981 C3997 1.377 . S
C3982 C3980 1.389 . S
C3982 C3983 1.524 . S
C3982 C3996 1.377 . S
C3983 C3982 1.524 . S
C3983 C3984 1.397 . S
C3983 C3988 1.363 . S
C3984 H3961 0.950 . S
C3984 C3983 1.397 . S
C3984 C3985 1.334 . S
C3985 H3962 0.950 . S
C3985 C3984 1.334 . S
C3985 C3986 1.287 . S
C3986 C3985 1.287 . S
C3986 C3987 1.524 . S
C3986 H4005 0.913 . S
C3987 H3963 0.950 . S
C3987 C3986 1.524 . S
C3987 C3988 1.415 . S
C3988 H3964 0.950 . S
C3988 C3983 1.363 . S
C3988 C3987 1.415 . S
C3989 H3965 0.951 . S
C3989 C3990 1.366 . S
C3989 C3991 1.388 . S
C3990 C3989 1.366 . S
C3990 C3994 1.385 . S
C3991 H3966 0.951 . S
C3991 C3989 1.388 . S
C3991 C3992 1.366 . S
C3992 C3991 1.366 . S
C3992 C3993 1.414 . S
C3992 C3995 1.499 . S
C3993 H3967 0.950 . S
C3993 C3992 1.414 . S
C3993 C3994 1.374 . S
C3994 H3968 0.950 . S
C3994 C3990 1.385 . S
C3994 C3993 1.374 . S
C3995 C3992 1.499 . S
C3995 C3996 1.373 . S
C3995 C3997 1.389 . S
C3996 H3969 0.950 . S
C3996 C3982 1.377 . S
C3996 C3995 1.373 . S
C3997 C3981 1.377 . S
C3997 C3995 1.389 . S
C3997 C3998 1.524 . S
C3998 C3997 1.524 . S
C3998 C3999 1.397 . S
C3998 C4003 1.363 . S
C3999 H3970 0.950 . S
C3999 C3998 1.397 . S
C3999 C4000 1.334 . S
C4000 H3971 0.950 . S
C4000 C3999 1.334 . S
C4000 C4001 1.287 . S
C4001 C4000 1.287 . S
C4001 C4002 1.524 . S
C4001 H4004 0.999 . S
C4002 H3972 0.950 . S
C4002 C4001 1.524 . S
C4002 C4003 1.415 . S
C4003 H3973 0.950 . S
C4003 C3998 1.363 . S
C4003 C4002 1.415 . S
H4004 C4001 0.999 . S
H4005 C3986 0.913 . S
H4006 C4024 0.951 . S
H4007 C4026 0.951 . S
H4008 C4028 0.950 . S
H4009 C4029 0.950 . S
H4010 C4031 0.950 . S
H4011 C4034 0.950 . S
H4012 C4035 0.950 . S
H4013 C4037 0.950 . S
H4014 C4038 0.950 . S
H4015 C4039 0.951 . S
H4016 C4041 0.951 . S
H4017 C4043 0.950 . S
H4018 C4044 0.950 . S
H4019 C4046 0.950 . S
H4020 C4049 0.950 . S
H4021 C4050 0.950 . S
H4022 C4052 0.950 . S
H4023 C4053 0.950 . S
C4024 H4006 0.951 . S
C4024 C4025 1.366 . S
C4024 C4026 1.388 . S
C4025 C4024 1.366 . S
C4025 C4029 1.385 . S
C4026 H4007 0.951 . S
C4026 C4024 1.388 . S
C4026 C4027 1.366 . S
C4027 C4026 1.366 . S
C4027 C4028 1.414 . S
C4027 C4030 1.499 . S
C4028 H4008 0.950 . S
C4028 C4027 1.414 . S
C4028 C4029 1.374 . S
C4029 H4009 0.950 . S
C4029 C4025 1.385 . S
C4029 C4028 1.374 . S
C4030 C4027 1.499 . S
C4030 C4031 1.373 . S
C4030 C4032 1.389 . S
C4031 H4010 0.950 . S
C4031 C4030 1.373 . S
C4031 C4047 1.377 . S
C4032 C4030 1.389 . S
C4032 C4033 1.524 . S
C4032 C4046 1.377 . S
C4033 C4032 1.524 . S
C4033 C4034 1.397 . S
C4033 C4038 1.363 . S
C4034 H4011 0.950 . S
C4034 C4033 1.397 . S
C4034 C4035 1.334 . S
C4035 H4012 0.950 . S
C4035 C4034 1.334 . S
C4035 C4036 1.287 . S
C4036 C4035 1.287 . S
C4036 C4037 1.524 . S
C4036 H4055 0.913 . S
C4037 H4013 0.950 . S
C4037 C4036 1.524 . S
C4037 C4038 1.415 . S
C4038 H4014 0.950 . S
C4038 C4033 1.363 . S
C4038 C4037 1.415 . S
C4039 H4015 0.951 . S
C4039 C4040 1.366 . S
C4039 C4041 1.388 . S
C4040 C4039 1.366 . S
C4040 C4044 1.385 . S
C4041 H4016 0.951 . S
C4041 C4039 1.388 . S
C4041 C4042 1.366 . S
C4042 C4041 1.366 . S
C4042 C4043 1.414 . S
C4042 C4045 1.499 . S
C4043 H4017 0.950 . S
C4043 C4042 1.414 . S
C4043 C4044 1.374 . S
C4044 H4018 0.950 . S
C4044 C4040 1.385 . S
C4044 C4043 1.374 . S
C4045 C4042 1.499 . S
C4045 C4046 1.373 . S
C4045 C4047 1.389 . S
C4046 H4019 0.950 . S
C4046 C4032 1.377 . S
C4046 C4045 1.373 . S
C4047 C4031 1.377 . S
C4047 C4045 1.389 . S
C4047 C4048 1.524 . S
C4048 C4047 1.524 . S
C4048 C4049 1.397 . S
C4048 C4053 1.363 . S
C4049 H4020 0.950 . S
C4049 C4048 1.397 . S
C4049 C4050 1.334 . S
C4050 H4021 0.950 . S
C4050 C4049 1.334 . S
C4050 C4051 1.287 . S
C4051 C4050 1.287 . S
C4051 C4052 1.524 . S
C4051 H4054 0.999 . S
C4052 H4022 0.950 . S
C4052 C4051 1.524 . S
C4052 C4053 1.415 . S
C4053 H4023 0.950 . S
C4053 C4048 1.363 . S
C4053 C4052 1.415 . S
H4054 C4051 0.999 . S
H4055 C4036 0.913 . S
H4056 C4074 0.951 . S
H4057 C4076 0.951 . S
H4058 C4078 0.950 . S
H4059 C4079 0.950 . S
H4060 C4081 0.950 . S
H4061 C4084 0.950 . S
H4062 C4085 0.950 . S
H4063 C4087 0.950 . S
H4064 C4088 0.950 . S
H4065 C4089 0.951 . S
H4066 C4091 0.951 . S
H4067 C4093 0.950 . S
H4068 C4094 0.950 . S
H4069 C4096 0.950 . S
H4070 C4099 0.950 . S
H4071 C4100 0.950 . S
H4072 C4102 0.950 . S
H4073 C4103 0.950 . S
C4074 H4056 0.951 . S
C4074 C4075 1.366 . S
C4074 C4076 1.388 . S
C4075 C4074 1.366 . S
C4075 C4079 1.385 . S
C4076 H4057 0.951 . S
C4076 C4074 1.388 . S
C4076 C4077 1.366 . S
C4077 C4076 1.366 . S
C4077 C4078 1.414 . S
C4077 C4080 1.499 . S
C4078 H4058 0.950 . S
C4078 C4077 1.414 . S
C4078 C4079 1.374 . S
C4079 H4059 0.950 . S
C4079 C4075 1.385 . S
C4079 C4078 1.374 . S
C4080 C4077 1.499 . S
C4080 C4081 1.373 . S
C4080 C4082 1.389 . S
C4081 H4060 0.950 . S
C4081 C4080 1.373 . S
C4081 C4097 1.377 . S
C4082 C4080 1.389 . S
C4082 C4083 1.524 . S
C4082 C4096 1.377 . S
C4083 C4082 1.524 . S
C4083 C4084 1.397 . S
C4083 C4088 1.363 . S
C4084 H4061 0.950 . S
C4084 C4083 1.397 . S
C4084 C4085 1.334 . S
C4085 H4062 0.950 . S
C4085 C4084 1.334 . S
C4085 C4086 1.287 . S
C4086 C4085 1.287 . S
C4086 C4087 1.524 . S
C4086 H4105 0.913 . S
C4087 H4063 0.950 . S
C4087 C4086 1.524 . S
C4087 C4088 1.415 . S
C4088 H4064 0.950 . S
C4088 C4083 1.363 . S
C4088 C4087 1.415 . S
C4089 H4065 0.951 . S
C4089 C4090 1.366 . S
C4089 C4091 1.388 . S
C4090 C4089 1.366 . S
C4090 C4094 1.385 . S
C4091 H4066 0.951 . S
C4091 C4089 1.388 . S
C4091 C4092 1.366 . S
C4092 C4091 1.366 . S
C4092 C4093 1.414 . S
C4092 C4095 1.499 . S
C4093 H4067 0.950 . S
C4093 C4092 1.414 . S
C4093 C4094 1.374 . S
C4094 H4068 0.950 . S
C4094 C4090 1.385 . S
C4094 C4093 1.374 . S
C4095 C4092 1.499 . S
C4095 C4096 1.373 . S
C4095 C4097 1.389 . S
C4096 H4069 0.950 . S
C4096 C4082 1.377 . S
C4096 C4095 1.373 . S
C4097 C4081 1.377 . S
C4097 C4095 1.389 . S
C4097 C4098 1.524 . S
C4098 C4097 1.524 . S
C4098 C4099 1.397 . S
C4098 C4103 1.363 . S
C4099 H4070 0.950 . S
C4099 C4098 1.397 . S
C4099 C4100 1.334 . S
C4100 H4071 0.950 . S
C4100 C4099 1.334 . S
C4100 C4101 1.287 . S
C4101 C4100 1.287 . S
C4101 C4102 1.524 . S
C4101 H4104 0.999 . S
C4102 H4072 0.950 . S
C4102 C4101 1.524 . S
C4102 C4103 1.415 . S
C4103 H4073 0.950 . S
C4103 C4098 1.363 . S
C4103 C4102 1.415 . S
H4104 C4101 0.999 . S
H4105 C4086 0.913 . S
H4106 C4124 0.951 . S
H4107 C4126 0.951 . S
H4108 C4128 0.950 . S
H4109 C4129 0.950 . S
H4110 C4131 0.950 . S
H4111 C4134 0.950 . S
H4112 C4135 0.950 . S
H4113 C4137 0.950 . S
H4114 C4138 0.950 . S
H4115 C4139 0.951 . S
H4116 C4141 0.951 . S
H4117 C4143 0.950 . S
H4118 C4144 0.950 . S
H4119 C4146 0.950 . S
H4120 C4149 0.950 . S
H4121 C4150 0.950 . S
H4122 C4152 0.950 . S
H4123 C4153 0.950 . S
C4124 H4106 0.951 . S
C4124 C4125 1.366 . S
C4124 C4126 1.388 . S
C4125 C4124 1.366 . S
C4125 C4129 1.385 . S
C4126 H4107 0.951 . S
C4126 C4124 1.388 . S
C4126 C4127 1.366 . S
C4127 C4126 1.366 . S
C4127 C4128 1.414 . S
C4127 C4130 1.499 . S
C4128 H4108 0.950 . S
C4128 C4127 1.414 . S
C4128 C4129 1.374 . S
C4129 H4109 0.950 . S
C4129 C4125 1.385 . S
C4129 C4128 1.374 . S
C4130 C4127 1.499 . S
C4130 C4131 1.373 . S
C4130 C4132 1.389 . S
C4131 H4110 0.950 . S
C4131 C4130 1.373 . S
C4131 C4147 1.377 . S
C4132 C4130 1.389 . S
C4132 C4133 1.524 . S
C4132 C4146 1.377 . S
C4133 C4132 1.524 . S
C4133 C4134 1.397 . S
C4133 C4138 1.363 . S
C4134 H4111 0.950 . S
C4134 C4133 1.397 . S
C4134 C4135 1.334 . S
C4135 H4112 0.950 . S
C4135 C4134 1.334 . S
C4135 C4136 1.287 . S
C4136 C4135 1.287 . S
C4136 C4137 1.524 . S
C4136 H4155 0.913 . S
C4137 H4113 0.950 . S
C4137 C4136 1.524 . S
C4137 C4138 1.415 . S
C4138 H4114 0.950 . S
C4138 C4133 1.363 . S
C4138 C4137 1.415 . S
C4139 H4115 0.951 . S
C4139 C4140 1.366 . S
C4139 C4141 1.388 . S
C4140 C4139 1.366 . S
C4140 C4144 1.385 . S
C4141 H4116 0.951 . S
C4141 C4139 1.388 . S
C4141 C4142 1.366 . S
C4142 C4141 1.366 . S
C4142 C4143 1.414 . S
C4142 C4145 1.499 . S
C4143 H4117 0.950 . S
C4143 C4142 1.414 . S
C4143 C4144 1.374 . S
C4144 H4118 0.950 . S
C4144 C4140 1.385 . S
C4144 C4143 1.374 . S
C4145 C4142 1.499 . S
C4145 C4146 1.373 . S
C4145 C4147 1.389 . S
C4146 H4119 0.950 . S
C4146 C4132 1.377 . S
C4146 C4145 1.373 . S
C4147 C4131 1.377 . S
C4147 C4145 1.389 . S
C4147 C4148 1.524 . S
C4148 C4147 1.524 . S
C4148 C4149 1.397 . S
C4148 C4153 1.363 . S
C4149 H4120 0.950 . S
C4149 C4148 1.397 . S
C4149 C4150 1.334 . S
C4150 H4121 0.950 . S
C4150 C4149 1.334 . S
C4150 C4151 1.287 . S
C4151 C4150 1.287 . S
C4151 C4152 1.524 . S
C4151 H4154 0.999 . S
C4152 H4122 0.950 . S
C4152 C4151 1.524 . S
C4152 C4153 1.415 . S
C4153 H4123 0.950 . S
C4153 C4148 1.363 . S
C4153 C4152 1.415 . S
H4154 C4151 0.999 . S
H4155 C4136 0.913 . S
H4156 C4174 0.951 . S
H4157 C4176 0.951 . S
H4158 C4178 0.950 1_655 S
H4159 C4179 0.963 . S
H4160 C4181 0.950 . S
H4161 C4184 0.950 1_554 S
H4162 C4185 0.950 1_554 S
H4163 C4187 0.950 . S
H4164 C4188 0.950 . S
H4165 C4189 0.951 . S
H4166 C4191 0.951 . S
H4167 C4193 0.950 . S
H4168 C4194 0.950 . S
H4169 C4196 0.950 . S
H4170 C4199 0.950 . S
H4171 C4200 0.950 . S
H4172 C4202 0.908 1_554 S
H4173 C4203 0.917 1_554 S
C4174 H4156 0.951 . S
C4174 C4175 1.366 . S
C4174 C4176 1.388 . S
C4175 C4174 1.366 . S
C4175 C4179 1.368 1_455 S
C4176 H4157 0.951 . S
C4176 C4174 1.388 . S
C4176 C4177 1.366 . S
C4177 C4176 1.366 . S
C4177 C4178 1.414 . S
C4177 C4180 1.499 . S
C4178 H4158 0.950 1_455 S
C4178 C4177 1.414 . S
C4178 C4179 1.378 1_455 S
C4179 H4159 0.963 . S
C4179 C4175 1.368 1_655 S
C4179 C4178 1.378 1_655 S
C4180 C4177 1.499 . S
C4180 C4181 1.373 1_455 S
C4180 C4182 1.389 . S
C4181 H4160 0.950 . S
C4181 C4180 1.373 1_655 S
C4181 C4197 1.377 . S
C4182 C4180 1.389 . S
C4182 C4183 1.524 . S
C4182 C4196 1.377 . S
C4183 C4182 1.524 . S
C4183 C4184 1.397 . S
C4183 C4188 1.363 . S
C4184 H4161 0.950 1_556 S
C4184 C4183 1.397 . S
C4184 C4185 1.334 . S
C4185 H4162 0.950 1_556 S
C4185 C4184 1.334 . S
C4185 C4186 1.287 . S
C4186 C4185 1.287 . S
C4186 C4187 1.524 . S
C4186 H4205 0.913 . S
C4187 H4163 0.950 . S
C4187 C4186 1.524 . S
C4187 C4188 1.415 . S
C4188 H4164 0.950 . S
C4188 C4183 1.363 . S
C4188 C4187 1.415 . S
C4189 H4165 0.951 . S
C4189 C4190 1.366 . S
C4189 C4191 1.388 . S
C4190 C4189 1.366 . S
C4190 C4194 1.385 1_554 S
C4191 H4166 0.951 . S
C4191 C4189 1.388 . S
C4191 C4192 1.366 1_554 S
C4192 C4191 1.366 1_556 S
C4192 C4193 1.414 . S
C4192 C4195 1.499 . S
C4193 H4167 0.950 . S
C4193 C4192 1.414 . S
C4193 C4194 1.374 . S
C4194 H4168 0.950 . S
C4194 C4190 1.385 1_556 S
C4194 C4193 1.374 . S
C4195 C4192 1.499 . S
C4195 C4196 1.373 . S
C4195 C4197 1.389 1_455 S
C4196 H4169 0.950 . S
C4196 C4182 1.377 . S
C4196 C4195 1.373 . S
C4197 C4181 1.377 . S
C4197 C4195 1.389 1_655 S
C4197 C4198 1.524 . S
C4198 C4197 1.524 . S
C4198 C4199 1.397 . S
C4198 C4203 1.401 . S
C4199 H4170 0.950 . S
C4199 C4198 1.397 . S
C4199 C4200 1.334 . S
C4200 H4171 0.950 . S
C4200 C4199 1.334 . S
C4200 C4201 1.287 . S
C4201 C4200 1.287 . S
C4201 C4202 1.570 . S
C4201 H4204 0.999 . S
C4202 H4172 0.908 1_556 S
C4202 C4201 1.570 . S
C4202 C4203 1.415 . S
C4203 H4173 0.917 1_556 S
C4203 C4198 1.401 . S
C4203 C4202 1.415 . S
H4204 C4201 0.999 . S
H4205 C4186 0.913 . S
H4206 C4224 0.951 . S
H4207 C4226 0.951 . S
H4208 C4228 0.950 . S
H4209 C4229 0.950 . S
H4210 C4231 0.950 . S
H4211 C4234 0.950 . S
H4212 C4235 0.950 1_455 S
H4213 C4237 0.950 . S
H4214 C4238 0.950 . S
H4215 C4239 0.951 . S
H4216 C4241 0.951 . S
H4217 C4243 0.950 . S
H4218 C4244 0.950 . S
H4219 C4246 0.950 . S
H4220 C4249 0.950 . S
H4221 C4250 0.950 . S
H4222 C4252 0.950 . S
H4223 C4253 0.950 . S
C4224 H4206 0.951 . S
C4224 C4225 1.366 . S
C4224 C4226 1.388 . S
C4225 C4224 1.366 . S
C4225 C4229 1.385 . S
C4226 H4207 0.951 . S
C4226 C4224 1.388 . S
C4226 C4227 1.366 . S
C4227 C4226 1.366 . S
C4227 C4228 1.414 . S
C4227 C4230 1.499 . S
C4228 H4208 0.950 . S
C4228 C4227 1.414 . S
C4228 C4229 1.374 . S
C4229 H4209 0.950 . S
C4229 C4225 1.385 . S
C4229 C4228 1.374 . S
C4230 C4227 1.499 . S
C4230 C4231 1.373 . S
C4230 C4232 1.389 . S
C4231 H4210 0.950 . S
C4231 C4230 1.373 . S
C4231 C4247 1.377 . S
C4232 C4230 1.389 . S
C4232 C4233 1.524 . S
C4232 C4246 1.377 . S
C4233 C4232 1.524 . S
C4233 C4234 1.397 . S
C4233 C4238 1.363 . S
C4234 H4211 0.950 . S
C4234 C4233 1.397 . S
C4234 C4235 1.334 . S
C4235 H4212 0.950 1_655 S
C4235 C4234 1.334 . S
C4235 C4236 1.287 . S
C4236 C4235 1.287 . S
C4236 C4237 1.524 . S
C4236 H4255 0.913 1_655 S
C4237 H4213 0.950 . S
C4237 C4236 1.524 . S
C4237 C4238 1.415 . S
C4238 H4214 0.950 . S
C4238 C4233 1.363 . S
C4238 C4237 1.415 . S
C4239 H4215 0.951 . S
C4239 C4240 1.366 . S
C4239 C4241 1.388 . S
C4240 C4239 1.366 . S
C4240 C4244 1.385 . S
C4241 H4216 0.951 . S
C4241 C4239 1.388 . S
C4241 C4242 1.366 . S
C4242 C4241 1.366 . S
C4242 C4243 1.414 . S
C4242 C4245 1.499 . S
C4243 H4217 0.950 . S
C4243 C4242 1.414 . S
C4243 C4244 1.374 . S
C4244 H4218 0.950 . S
C4244 C4240 1.385 . S
C4244 C4243 1.374 . S
C4245 C4242 1.499 . S
C4245 C4246 1.373 . S
C4245 C4247 1.389 . S
C4246 H4219 0.950 . S
C4246 C4232 1.377 . S
C4246 C4245 1.373 . S
C4247 C4231 1.377 . S
C4247 C4245 1.389 . S
C4247 C4248 1.524 . S
C4248 C4247 1.524 . S
C4248 C4249 1.397 . S
C4248 C4253 1.363 . S
C4249 H4220 0.950 . S
C4249 C4248 1.397 . S
C4249 C4250 1.334 . S
C4250 H4221 0.950 . S
C4250 C4249 1.334 . S
C4250 C4251 1.287 . S
C4251 C4250 1.287 . S
C4251 C4252 1.524 . S
C4251 H4254 0.999 . S
C4252 H4222 0.950 . S
C4252 C4251 1.524 . S
C4252 C4253 1.415 . S
C4253 H4223 0.950 . S
C4253 C4248 1.363 . S
C4253 C4252 1.415 . S
H4254 C4251 0.999 . S
H4255 C4236 0.913 1_455 S
H4256 C4274 0.951 . S
H4257 C4276 0.951 . S
H4258 C4278 0.950 . S
H4259 C4279 0.950 . S
H4260 C4281 0.950 . S
H4261 C4284 0.950 . S
H4262 C4285 0.950 . S
H4263 C4287 0.950 . S
H4264 C4288 0.950 . S
H4265 C4289 0.951 . S
H4266 C4291 0.951 . S
H4267 C4293 0.950 . S
H4268 C4294 0.950 . S
H4269 C4296 0.950 . S
H4270 C4299 0.950 . S
H4271 C4300 0.950 . S
H4272 C4302 0.950 . S
H4273 C4303 0.950 . S
C4274 H4256 0.951 . S
C4274 C4275 1.366 . S
C4274 C4276 1.388 . S
C4275 C4274 1.366 . S
C4275 C4279 1.385 . S
C4276 H4257 0.951 . S
C4276 C4274 1.388 . S
C4276 C4277 1.366 . S
C4277 C4276 1.366 . S
C4277 C4278 1.414 . S
C4277 C4280 1.499 . S
C4278 H4258 0.950 . S
C4278 C4277 1.414 . S
C4278 C4279 1.374 . S
C4279 H4259 0.950 . S
C4279 C4275 1.385 . S
C4279 C4278 1.374 . S
C4280 C4277 1.499 . S
C4280 C4281 1.373 . S
C4280 C4282 1.389 . S
C4281 H4260 0.950 . S
C4281 C4280 1.373 . S
C4281 C4297 1.377 . S
C4282 C4280 1.389 . S
C4282 C4283 1.524 . S
C4282 C4296 1.377 . S
C4283 C4282 1.524 . S
C4283 C4284 1.397 . S
C4283 C4288 1.363 . S
C4284 H4261 0.950 . S
C4284 C4283 1.397 . S
C4284 C4285 1.334 . S
C4285 H4262 0.950 . S
C4285 C4284 1.334 . S
C4285 C4286 1.287 . S
C4286 C4285 1.287 . S
C4286 C4287 1.524 . S
C4286 H4305 0.913 . S
C4287 H4263 0.950 . S
C4287 C4286 1.524 . S
C4287 C4288 1.415 . S
C4288 H4264 0.950 . S
C4288 C4283 1.363 . S
C4288 C4287 1.415 . S
C4289 H4265 0.951 . S
C4289 C4290 1.366 . S
C4289 C4291 1.388 . S
C4290 C4289 1.366 . S
C4290 C4294 1.385 . S
C4291 H4266 0.951 . S
C4291 C4289 1.388 . S
C4291 C4292 1.366 . S
C4292 C4291 1.366 . S
C4292 C4293 1.414 . S
C4292 C4295 1.499 . S
C4293 H4267 0.950 . S
C4293 C4292 1.414 . S
C4293 C4294 1.374 . S
C4294 H4268 0.950 . S
C4294 C4290 1.385 . S
C4294 C4293 1.374 . S
C4295 C4292 1.499 . S
C4295 C4296 1.373 . S
C4295 C4297 1.389 . S
C4296 H4269 0.950 . S
C4296 C4282 1.377 . S
C4296 C4295 1.373 . S
C4297 C4281 1.377 . S
C4297 C4295 1.389 . S
C4297 C4298 1.524 . S
C4298 C4297 1.524 . S
C4298 C4299 1.397 . S
C4298 C4303 1.363 . S
C4299 H4270 0.950 . S
C4299 C4298 1.397 . S
C4299 C4300 1.334 . S
C4300 H4271 0.950 . S
C4300 C4299 1.334 . S
C4300 C4301 1.287 . S
C4301 C4300 1.287 . S
C4301 C4302 1.524 . S
C4301 H4304 0.999 . S
C4302 H4272 0.950 . S
C4302 C4301 1.524 . S
C4302 C4303 1.415 . S
C4303 H4273 0.950 . S
C4303 C4298 1.363 . S
C4303 C4302 1.415 . S
H4304 C4301 0.999 . S
H4305 C4286 0.913 . S
H4306 C4324 0.951 . S
H4307 C4326 0.951 . S
H4308 C4328 0.950 . S
H4309 C4329 0.950 . S
H4310 C4331 0.950 . S
H4311 C4334 0.950 . S
H4312 C4335 0.950 . S
H4313 C4337 0.950 . S
H4314 C4338 0.950 . S
H4315 C4339 0.951 . S
H4316 C4341 0.951 . S
H4317 C4343 0.950 . S
H4318 C4344 0.950 . S
H4319 C4346 0.950 . S
H4320 C4349 0.950 . S
H4321 C4350 0.950 . S
H4322 C4352 0.950 . S
H4323 C4353 0.950 . S
C4324 H4306 0.951 . S
C4324 C4325 1.366 . S
C4324 C4326 1.388 . S
C4325 C4324 1.366 . S
C4325 C4329 1.385 . S
C4326 H4307 0.951 . S
C4326 C4324 1.388 . S
C4326 C4327 1.366 . S
C4327 C4326 1.366 . S
C4327 C4328 1.414 . S
C4327 C4330 1.499 . S
C4328 H4308 0.950 . S
C4328 C4327 1.414 . S
C4328 C4329 1.374 . S
C4329 H4309 0.950 . S
C4329 C4325 1.385 . S
C4329 C4328 1.374 . S
C4330 C4327 1.499 . S
C4330 C4331 1.373 . S
C4330 C4332 1.389 . S
C4331 H4310 0.950 . S
C4331 C4330 1.373 . S
C4331 C4347 1.377 . S
C4332 C4330 1.389 . S
C4332 C4333 1.524 . S
C4332 C4346 1.377 . S
C4333 C4332 1.524 . S
C4333 C4334 1.397 . S
C4333 C4338 1.363 . S
C4334 H4311 0.950 . S
C4334 C4333 1.397 . S
C4334 C4335 1.334 . S
C4335 H4312 0.950 . S
C4335 C4334 1.334 . S
C4335 C4336 1.287 . S
C4336 C4335 1.287 . S
C4336 C4337 1.524 . S
C4336 H4355 0.913 . S
C4337 H4313 0.950 . S
C4337 C4336 1.524 . S
C4337 C4338 1.415 . S
C4338 H4314 0.950 . S
C4338 C4333 1.363 . S
C4338 C4337 1.415 . S
C4339 H4315 0.951 . S
C4339 C4340 1.366 . S
C4339 C4341 1.388 . S
C4340 C4339 1.366 . S
C4340 C4344 1.385 . S
C4341 H4316 0.951 . S
C4341 C4339 1.388 . S
C4341 C4342 1.366 . S
C4342 C4341 1.366 . S
C4342 C4343 1.414 . S
C4342 C4345 1.499 . S
C4343 H4317 0.950 . S
C4343 C4342 1.414 . S
C4343 C4344 1.374 . S
C4344 H4318 0.950 . S
C4344 C4340 1.385 . S
C4344 C4343 1.374 . S
C4345 C4342 1.499 . S
C4345 C4346 1.373 . S
C4345 C4347 1.389 . S
C4346 H4319 0.950 . S
C4346 C4332 1.377 . S
C4346 C4345 1.373 . S
C4347 C4331 1.377 . S
C4347 C4345 1.389 . S
C4347 C4348 1.524 . S
C4348 C4347 1.524 . S
C4348 C4349 1.397 . S
C4348 C4353 1.363 . S
C4349 H4320 0.950 . S
C4349 C4348 1.397 . S
C4349 C4350 1.334 . S
C4350 H4321 0.950 . S
C4350 C4349 1.334 . S
C4350 C4351 1.287 . S
C4351 C4350 1.287 . S
C4351 C4352 1.524 . S
C4351 H4354 0.999 . S
C4352 H4322 0.950 . S
C4352 C4351 1.524 . S
C4352 C4353 1.415 . S
C4353 H4323 0.950 . S
C4353 C4348 1.363 . S
C4353 C4352 1.415 . S
H4354 C4351 0.999 . S
H4355 C4336 0.913 . S
H4356 C4374 0.963 . S
H4357 C4376 0.951 . S
H4358 C4378 0.950 . S
H4359 C4379 0.950 . S
H4360 C4381 0.950 . S
H4361 C4384 0.950 . S
H4362 C4385 0.950 . S
H4363 C4387 0.950 . S
H4364 C4388 0.950 . S
H4365 C4389 0.951 . S
H4366 C4391 0.951 . S
H4367 C4393 0.950 . S
H4368 C4394 0.950 . S
H4369 C4396 0.950 1_655 S
H4370 C4399 0.950 . S
H4371 C4400 0.950 . S
H4372 C4402 0.950 . S
H4373 C4403 0.950 . S
C4374 H4356 0.963 . S
C4374 C4375 1.366 . S
C4374 C4376 1.388 . S
C4375 C4374 1.366 . S
C4375 C4379 1.385 . S
C4376 H4357 0.951 . S
C4376 C4374 1.388 . S
C4376 C4377 1.366 . S
C4377 C4376 1.366 . S
C4377 C4378 1.414 . S
C4377 C4380 1.499 . S
C4378 H4358 0.950 . S
C4378 C4377 1.414 . S
C4378 C4379 1.374 . S
C4379 H4359 0.950 . S
C4379 C4375 1.385 . S
C4379 C4378 1.374 . S
C4380 C4377 1.499 . S
C4380 C4381 1.373 . S
C4380 C4382 1.362 1_455 S
C4381 H4360 0.950 . S
C4381 C4380 1.373 . S
C4381 C4397 1.377 . S
C4382 C4380 1.362 1_655 S
C4382 C4383 1.569 . S
C4382 C4396 1.362 1_655 S
C4383 C4382 1.569 . S
C4383 C4384 1.397 . S
C4383 C4388 1.363 . S
C4384 H4361 0.950 . S
C4384 C4383 1.397 . S
C4384 C4385 1.334 . S
C4385 H4362 0.950 . S
C4385 C4384 1.334 . S
C4385 C4386 1.287 . S
C4386 C4385 1.287 . S
C4386 C4387 1.524 . S
C4386 H4405 0.913 . S
C4387 H4363 0.950 . S
C4387 C4386 1.524 . S
C4387 C4388 1.415 . S
C4388 H4364 0.950 . S
C4388 C4383 1.363 . S
C4388 C4387 1.415 . S
C4389 H4365 0.951 . S
C4389 C4390 1.366 . S
C4389 C4391 1.388 . S
C4390 C4389 1.366 . S
C4390 C4394 1.385 . S
C4391 H4366 0.951 . S
C4391 C4389 1.388 . S
C4391 C4392 1.366 . S
C4392 C4391 1.366 . S
C4392 C4393 1.414 . S
C4392 C4395 1.499 . S
C4393 H4367 0.950 . S
C4393 C4392 1.414 . S
C4393 C4394 1.374 . S
C4394 H4368 0.950 . S
C4394 C4390 1.385 . S
C4394 C4393 1.374 . S
C4395 C4392 1.499 . S
C4395 C4396 1.373 . S
C4395 C4397 1.389 . S
C4396 H4369 0.950 1_455 S
C4396 C4382 1.362 1_455 S
C4396 C4395 1.373 . S
C4397 C4381 1.377 . S
C4397 C4395 1.389 . S
C4397 C4398 1.524 . S
C4398 C4397 1.524 . S
C4398 C4399 1.397 . S
C4398 C4403 1.363 . S
C4399 H4370 0.950 . S
C4399 C4398 1.397 . S
C4399 C4400 1.334 . S
C4400 H4371 0.950 . S
C4400 C4399 1.334 . S
C4400 C4401 1.287 . S
C4401 C4400 1.287 . S
C4401 C4402 1.524 . S
C4401 H4404 0.999 . S
C4402 H4372 0.950 . S
C4402 C4401 1.524 . S
C4402 C4403 1.415 . S
C4403 H4373 0.950 . S
C4403 C4398 1.363 . S
C4403 C4402 1.415 . S
H4404 C4401 0.999 . S
H4405 C4386 0.913 . S
H4406 C4424 0.951 . S
H4407 C4426 0.951 . S
H4408 C4428 0.950 . S
H4409 C4429 0.950 . S
H4410 C4431 0.950 . S
H4411 C4434 0.950 . S
H4412 C4435 0.950 . S
H4413 C4437 0.950 . S
H4414 C4438 0.950 . S
H4415 C4439 0.951 . S
H4416 C4441 0.951 . S
H4417 C4443 0.950 . S
H4418 C4444 0.950 . S
H4419 C4446 0.950 . S
H4420 C4449 0.950 . S
H4421 C4450 0.950 . S
H4422 C4452 0.950 . S
H4423 C4453 0.950 . S
C4424 H4406 0.951 . S
C4424 C4425 1.366 . S
C4424 C4426 1.388 . S
C4425 C4424 1.366 . S
C4425 C4429 1.385 . S
C4426 H4407 0.951 . S
C4426 C4424 1.388 . S
C4426 C4427 1.366 . S
C4427 C4426 1.366 . S
C4427 C4428 1.414 . S
C4427 C4430 1.499 . S
C4428 H4408 0.950 . S
C4428 C4427 1.414 . S
C4428 C4429 1.374 . S
C4429 H4409 0.950 . S
C4429 C4425 1.385 . S
C4429 C4428 1.374 . S
C4430 C4427 1.499 . S
C4430 C4431 1.373 . S
C4430 C4432 1.389 . S
C4431 H4410 0.950 . S
C4431 C4430 1.373 . S
C4431 C4447 1.377 . S
C4432 C4430 1.389 . S
C4432 C4433 1.524 . S
C4432 C4446 1.377 . S
C4433 C4432 1.524 . S
C4433 C4434 1.397 . S
C4433 C4438 1.363 . S
C4434 H4411 0.950 . S
C4434 C4433 1.397 . S
C4434 C4435 1.334 . S
C4435 H4412 0.950 . S
C4435 C4434 1.334 . S
C4435 C4436 1.287 . S
C4436 C4435 1.287 . S
C4436 C4437 1.524 . S
C4436 H4455 0.913 . S
C4437 H4413 0.950 . S
C4437 C4436 1.524 . S
C4437 C4438 1.415 . S
C4438 H4414 0.950 . S
C4438 C4433 1.363 . S
C4438 C4437 1.415 . S
C4439 H4415 0.951 . S
C4439 C4440 1.366 . S
C4439 C4441 1.388 . S
C4440 C4439 1.366 . S
C4440 C4444 1.385 . S
C4441 H4416 0.951 . S
C4441 C4439 1.388 . S
C4441 C4442 1.366 . S
C4442 C4441 1.366 . S
C4442 C4443 1.414 . S
C4442 C4445 1.499 . S
C4443 H4417 0.950 . S
C4443 C4442 1.414 . S
C4443 C4444 1.374 . S
C4444 H4418 0.950 . S
C4444 C4440 1.385 . S
C4444 C4443 1.374 . S
C4445 C4442 1.499 . S
C4445 C4446 1.373 . S
C4445 C4447 1.389 . S
C4446 H4419 0.950 . S
C4446 C4432 1.377 . S
C4446 C4445 1.373 . S
C4447 C4431 1.377 . S
C4447 C4445 1.389 . S
C4447 C4448 1.524 . S
C4448 C4447 1.524 . S
C4448 C4449 1.397 . S
C4448 C4453 1.363 . S
C4449 H4420 0.950 . S
C4449 C4448 1.397 . S
C4449 C4450 1.334 . S
C4450 H4421 0.950 . S
C4450 C4449 1.334 . S
C4450 C4451 1.287 . S
C4451 C4450 1.287 . S
C4451 C4452 1.524 . S
C4451 H4454 0.999 . S
C4452 H4422 0.950 . S
C4452 C4451 1.524 . S
C4452 C4453 1.415 . S
C4453 H4423 0.950 . S
C4453 C4448 1.363 . S
C4453 C4452 1.415 . S
H4454 C4451 0.999 . S
H4455 C4436 0.913 . S
H4456 C4474 0.951 . S
H4457 C4476 0.951 . S
H4458 C4478 0.950 . S
H4459 C4479 0.950 . S
H4460 C4481 0.950 . S
H4461 C4484 0.950 . S
H4462 C4485 0.950 . S
H4463 C4487 0.950 . S
H4464 C4488 0.950 . S
H4465 C4489 0.951 . S
H4466 C4491 0.951 . S
H4467 C4493 0.950 . S
H4468 C4494 0.950 . S
H4469 C4496 0.950 . S
H4470 C4499 0.950 . S
H4471 C4500 0.950 . S
H4472 C4502 0.950 . S
H4473 C4503 0.950 . S
C4474 H4456 0.951 . S
C4474 C4475 1.366 . S
C4474 C4476 1.388 . S
C4475 C4474 1.366 . S
C4475 C4479 1.385 . S
C4476 H4457 0.951 . S
C4476 C4474 1.388 . S
C4476 C4477 1.366 . S
C4477 C4476 1.366 . S
C4477 C4478 1.414 . S
C4477 C4480 1.499 . S
C4478 H4458 0.950 . S
C4478 C4477 1.414 . S
C4478 C4479 1.374 . S
C4479 H4459 0.950 . S
C4479 C4475 1.385 . S
C4479 C4478 1.374 . S
C4480 C4477 1.499 . S
C4480 C4481 1.373 . S
C4480 C4482 1.389 . S
C4481 H4460 0.950 . S
C4481 C4480 1.373 . S
C4481 C4497 1.377 . S
C4482 C4480 1.389 . S
C4482 C4483 1.524 . S
C4482 C4496 1.377 . S
C4483 C4482 1.524 . S
C4483 C4484 1.397 . S
C4483 C4488 1.363 . S
C4484 H4461 0.950 . S
C4484 C4483 1.397 . S
C4484 C4485 1.334 . S
C4485 H4462 0.950 . S
C4485 C4484 1.334 . S
C4485 C4486 1.287 . S
C4486 C4485 1.287 . S
C4486 C4487 1.524 . S
C4486 H4505 0.913 . S
C4487 H4463 0.950 . S
C4487 C4486 1.524 . S
C4487 C4488 1.415 . S
C4488 H4464 0.950 . S
C4488 C4483 1.363 . S
C4488 C4487 1.415 . S
C4489 H4465 0.951 . S
C4489 C4490 1.366 . S
C4489 C4491 1.388 . S
C4490 C4489 1.366 . S
C4490 C4494 1.385 . S
C4491 H4466 0.951 . S
C4491 C4489 1.388 . S
C4491 C4492 1.366 . S
C4492 C4491 1.366 . S
C4492 C4493 1.414 . S
C4492 C4495 1.499 . S
C4493 H4467 0.950 . S
C4493 C4492 1.414 . S
C4493 C4494 1.374 . S
C4494 H4468 0.950 . S
C4494 C4490 1.385 . S
C4494 C4493 1.374 . S
C4495 C4492 1.499 . S
C4495 C4496 1.373 . S
C4495 C4497 1.389 . S
C4496 H4469 0.950 . S
C4496 C4482 1.377 . S
C4496 C4495 1.373 . S
C4497 C4481 1.377 . S
C4497 C4495 1.389 . S
C4497 C4498 1.524 . S
C4498 C4497 1.524 . S
C4498 C4499 1.397 . S
C4498 C4503 1.363 . S
C4499 H4470 0.950 . S
C4499 C4498 1.397 . S
C4499 C4500 1.334 . S
C4500 H4471 0.950 . S
C4500 C4499 1.334 . S
C4500 C4501 1.287 . S
C4501 C4500 1.287 . S
C4501 C4502 1.524 . S
C4501 H4504 0.999 . S
C4502 H4472 0.950 . S
C4502 C4501 1.524 . S
C4502 C4503 1.415 . S
C4503 H4473 0.950 . S
C4503 C4498 1.363 . S
C4503 C4502 1.415 . S
H4504 C4501 0.999 . S
H4505 C4486 0.913 . S
H4506 C4524 0.951 . S
H4507 C4526 0.951 . S
H4508 C4528 0.950 . S
H4509 C4529 0.950 . S
H4510 C4531 0.950 . S
H4511 C4534 0.950 . S
H4512 C4535 0.950 . S
H4513 C4537 0.950 . S
H4514 C4538 0.950 . S
H4515 C4539 0.951 . S
H4516 C4541 0.951 . S
H4517 C4543 0.950 . S
H4518 C4544 0.950 . S
H4519 C4546 0.950 . S
H4520 C4549 0.950 . S
H4521 C4550 0.950 . S
H4522 C4552 0.950 . S
H4523 C4553 0.950 . S
C4524 H4506 0.951 . S
C4524 C4525 1.366 1_556 S
C4524 C4526 1.388 . S
C4525 C4524 1.366 1_554 S
C4525 C4529 1.385 . S
C4526 H4507 0.951 . S
C4526 C4524 1.388 . S
C4526 C4527 1.366 . S
C4527 C4526 1.366 . S
C4527 C4528 1.414 . S
C4527 C4530 1.499 . S
C4528 H4508 0.950 . S
C4528 C4527 1.414 . S
C4528 C4529 1.374 1_556 S
C4529 H4509 0.950 . S
C4529 C4525 1.385 . S
C4529 C4528 1.374 1_554 S
C4530 C4527 1.499 . S
C4530 C4531 1.373 . S
C4530 C4532 1.389 . S
C4531 H4510 0.950 . S
C4531 C4530 1.373 . S
C4531 C4547 1.377 . S
C4532 C4530 1.389 . S
C4532 C4533 1.524 . S
C4532 C4546 1.377 . S
C4533 C4532 1.524 . S
C4533 C4534 1.397 . S
C4533 C4538 1.363 . S
C4534 H4511 0.950 . S
C4534 C4533 1.397 . S
C4534 C4535 1.334 . S
C4535 H4512 0.950 . S
C4535 C4534 1.334 . S
C4535 C4536 1.287 . S
C4536 C4535 1.287 . S
C4536 C4537 1.524 . S
C4536 H4555 0.913 . S
C4537 H4513 0.950 . S
C4537 C4536 1.524 . S
C4537 C4538 1.415 . S
C4538 H4514 0.950 . S
C4538 C4533 1.363 . S
C4538 C4537 1.415 . S
C4539 H4515 0.951 . S
C4539 C4540 1.366 . S
C4539 C4541 1.388 . S
C4540 C4539 1.366 . S
C4540 C4544 1.385 . S
C4541 H4516 0.951 . S
C4541 C4539 1.388 . S
C4541 C4542 1.366 . S
C4542 C4541 1.366 . S
C4542 C4543 1.414 . S
C4542 C4545 1.499 . S
C4543 H4517 0.950 . S
C4543 C4542 1.414 . S
C4543 C4544 1.374 . S
C4544 H4518 0.950 . S
C4544 C4540 1.385 . S
C4544 C4543 1.374 . S
C4545 C4542 1.499 . S
C4545 C4546 1.373 . S
C4545 C4547 1.389 . S
C4546 H4519 0.950 . S
C4546 C4532 1.377 . S
C4546 C4545 1.373 . S
C4547 C4531 1.377 . S
C4547 C4545 1.389 . S
C4547 C4548 1.524 . S
C4548 C4547 1.524 . S
C4548 C4549 1.397 . S
C4548 C4553 1.363 . S
C4549 H4520 0.950 . S
C4549 C4548 1.397 . S
C4549 C4550 1.334 . S
C4550 H4521 0.950 . S
C4550 C4549 1.334 . S
C4550 C4551 1.287 . S
C4551 C4550 1.287 . S
C4551 C4552 1.524 . S
C4551 H4554 0.999 . S
C4552 H4522 0.950 . S
C4552 C4551 1.524 . S
C4552 C4553 1.415 . S
C4553 H4523 0.950 . S
C4553 C4548 1.363 . S
C4553 C4552 1.415 . S
H4554 C4551 0.999 . S
H4555 C4536 0.913 . S
H4556 C4574 0.951 . S
H4557 C4576 0.951 . S
H4558 C4578 0.950 . S
H4559 C4579 0.950 . S
H4560 C4581 0.950 . S
H4561 C4584 0.950 . S
H4562 C4585 0.950 . S
H4563 C4587 0.950 . S
H4564 C4588 0.950 . S
H4565 C4589 0.951 . S
H4566 C4591 0.951 . S
H4567 C4593 0.950 . S
H4568 C4594 0.950 . S
H4569 C4596 0.950 . S
H4570 C4599 0.950 . S
H4571 C4600 0.950 . S
H4572 C4602 0.950 . S
H4573 C4603 0.950 . S
C4574 H4556 0.951 . S
C4574 C4575 1.366 . S
C4574 C4576 1.388 . S
C4575 C4574 1.366 . S
C4575 C4579 1.385 . S
C4576 H4557 0.951 . S
C4576 C4574 1.388 . S
C4576 C4577 1.366 . S
C4577 C4576 1.366 . S
C4577 C4578 1.414 . S
C4577 C4580 1.499 . S
C4578 H4558 0.950 . S
C4578 C4577 1.414 . S
C4578 C4579 1.374 . S
C4579 H4559 0.950 . S
C4579 C4575 1.385 . S
C4579 C4578 1.374 . S
C4580 C4577 1.499 . S
C4580 C4581 1.373 . S
C4580 C4582 1.389 . S
C4581 H4560 0.950 . S
C4581 C4580 1.373 . S
C4581 C4597 1.377 . S
C4582 C4580 1.389 . S
C4582 C4583 1.524 . S
C4582 C4596 1.377 . S
C4583 C4582 1.524 . S
C4583 C4584 1.397 . S
C4583 C4588 1.363 . S
C4584 H4561 0.950 . S
C4584 C4583 1.397 . S
C4584 C4585 1.334 . S
C4585 H4562 0.950 . S
C4585 C4584 1.334 . S
C4585 C4586 1.287 . S
C4586 C4585 1.287 . S
C4586 C4587 1.524 . S
C4586 H4605 0.913 . S
C4587 H4563 0.950 . S
C4587 C4586 1.524 . S
C4587 C4588 1.415 . S
C4588 H4564 0.950 . S
C4588 C4583 1.363 . S
C4588 C4587 1.415 . S
C4589 H4565 0.951 . S
C4589 C4590 1.366 . S
C4589 C4591 1.388 . S
C4590 C4589 1.366 . S
C4590 C4594 1.385 . S
C4591 H4566 0.951 . S
C4591 C4589 1.388 . S
C4591 C4592 1.366 . S
C4592 C4591 1.366 . S
C4592 C4593 1.414 . S
C4592 C4595 1.499 . S
C4593 H4567 0.950 . S
C4593 C4592 1.414 . S
C4593 C4594 1.374 . S
C4594 H4568 0.950 . S
C4594 C4590 1.385 . S
C4594 C4593 1.374 . S
C4595 C4592 1.499 . S
C4595 C4596 1.373 . S
C4595 C4597 1.389 . S
C4596 H4569 0.950 . S
C4596 C4582 1.377 . S
C4596 C4595 1.373 . S
C4597 C4581 1.377 . S
C4597 C4595 1.389 . S
C4597 C4598 1.524 . S
C4598 C4597 1.524 . S
C4598 C4599 1.397 . S
C4598 C4603 1.363 . S
C4599 H4570 0.950 . S
C4599 C4598 1.397 . S
C4599 C4600 1.334 . S
C4600 H4571 0.950 . S
C4600 C4599 1.334 . S
C4600 C4601 1.287 . S
C4601 C4600 1.287 . S
C4601 C4602 1.524 . S
C4601 H4604 0.999 . S
C4602 H4572 0.950 . S
C4602 C4601 1.524 . S
C4602 C4603 1.415 . S
C4603 H4573 0.950 . S
C4603 C4598 1.363 . S
C4603 C4602 1.415 . S
H4604 C4601 0.999 . S
H4605 C4586 0.913 . S
H4606 C4624 0.951 . S
H4607 C4626 0.951 . S
H4608 C4628 0.950 . S
H4609 C4629 0.950 . S
H4610 C4631 0.950 . S
H4611 C4634 0.950 . S
H4612 C4635 0.950 . S
H4613 C4637 0.950 . S
H4614 C4638 0.950 . S
H4615 C4639 0.951 . S
H4616 C4641 0.951 . S
H4617 C4643 0.950 . S
H4618 C4644 0.950 . S
H4619 C4646 0.950 . S
H4620 C4649 0.950 . S
H4621 C4650 0.950 . S
H4622 C4652 0.950 . S
H4623 C4653 0.950 . S
C4624 H4606 0.951 . S
C4624 C4625 1.366 . S
C4624 C4626 1.388 . S
C4625 C4624 1.366 . S
C4625 C4629 1.385 . S
C4626 H4607 0.951 . S
C4626 C4624 1.388 . S
C4626 C4627 1.366 . S
C4627 C4626 1.366 . S
C4627 C4628 1.414 . S
C4627 C4630 1.499 . S
C4628 H4608 0.950 . S
C4628 C4627 1.414 . S
C4628 C4629 1.374 . S
C4629 H4609 0.950 . S
C4629 C4625 1.385 . S
C4629 C4628 1.374 . S
C4630 C4627 1.499 . S
C4630 C4631 1.373 . S
C4630 C4632 1.389 . S
C4631 H4610 0.950 . S
C4631 C4630 1.373 . S
C4631 C4647 1.377 . S
C4632 C4630 1.389 . S
C4632 C4633 1.524 . S
C4632 C4646 1.377 . S
C4633 C4632 1.524 . S
C4633 C4634 1.397 . S
C4633 C4638 1.363 . S
C4634 H4611 0.950 . S
C4634 C4633 1.397 . S
C4634 C4635 1.334 . S
C4635 H4612 0.950 . S
C4635 C4634 1.334 . S
C4635 C4636 1.287 . S
C4636 C4635 1.287 . S
C4636 C4637 1.524 . S
C4636 H4655 0.913 . S
C4637 H4613 0.950 . S
C4637 C4636 1.524 . S
C4637 C4638 1.415 . S
C4638 H4614 0.950 . S
C4638 C4633 1.363 . S
C4638 C4637 1.415 . S
C4639 H4615 0.951 . S
C4639 C4640 1.366 . S
C4639 C4641 1.388 . S
C4640 C4639 1.366 . S
C4640 C4644 1.385 . S
C4641 H4616 0.951 . S
C4641 C4639 1.388 . S
C4641 C4642 1.366 . S
C4642 C4641 1.366 . S
C4642 C4643 1.414 . S
C4642 C4645 1.499 . S
C4643 H4617 0.950 . S
C4643 C4642 1.414 . S
C4643 C4644 1.374 . S
C4644 H4618 0.950 . S
C4644 C4640 1.385 . S
C4644 C4643 1.374 . S
C4645 C4642 1.499 . S
C4645 C4646 1.373 . S
C4645 C4647 1.389 . S
C4646 H4619 0.950 . S
C4646 C4632 1.377 . S
C4646 C4645 1.373 . S
C4647 C4631 1.377 . S
C4647 C4645 1.389 . S
C4647 C4648 1.524 . S
C4648 C4647 1.524 . S
C4648 C4649 1.397 . S
C4648 C4653 1.363 . S
C4649 H4620 0.950 . S
C4649 C4648 1.397 . S
C4649 C4650 1.334 . S
C4650 H4621 0.950 . S
C4650 C4649 1.334 . S
C4650 C4651 1.287 . S
C4651 C4650 1.287 . S
C4651 C4652 1.524 . S
C4651 H4654 0.999 . S
C4652 H4622 0.950 . S
C4652 C4651 1.524 . S
C4652 C4653 1.415 . S
C4653 H4623 0.950 . S
C4653 C4648 1.363 . S
C4653 C4652 1.415 . S
H4654 C4651 0.999 . S
H4655 C4636 0.913 . S
H4656 C4674 0.951 . S
H4657 C4676 0.951 . S
H4658 C4678 0.950 . S
H4659 C4679 0.950 . S
H4660 C4681 0.950 . S
H4661 C4684 0.950 . S
H4662 C4685 0.950 . S
H4663 C4687 0.950 . S
H4664 C4688 0.950 . S
H4665 C4689 0.951 . S
H4666 C4691 0.951 . S
H4667 C4693 0.950 . S
H4668 C4694 0.950 . S
H4669 C4696 0.950 . S
H4670 C4699 0.950 . S
H4671 C4700 0.950 . S
H4672 C4702 0.950 . S
H4673 C4703 0.950 . S
C4674 H4656 0.951 . S
C4674 C4675 1.366 . S
C4674 C4676 1.388 . S
C4675 C4674 1.366 . S
C4675 C4679 1.385 . S
C4676 H4657 0.951 . S
C4676 C4674 1.388 . S
C4676 C4677 1.366 . S
C4677 C4676 1.366 . S
C4677 C4678 1.414 . S
C4677 C4680 1.499 . S
C4678 H4658 0.950 . S
C4678 C4677 1.414 . S
C4678 C4679 1.374 . S
C4679 H4659 0.950 . S
C4679 C4675 1.385 . S
C4679 C4678 1.374 . S
C4680 C4677 1.499 . S
C4680 C4681 1.373 . S
C4680 C4682 1.389 . S
C4681 H4660 0.950 . S
C4681 C4680 1.373 . S
C4681 C4697 1.377 . S
C4682 C4680 1.389 . S
C4682 C4683 1.524 . S
C4682 C4696 1.377 . S
C4683 C4682 1.524 . S
C4683 C4684 1.397 . S
C4683 C4688 1.363 . S
C4684 H4661 0.950 . S
C4684 C4683 1.397 . S
C4684 C4685 1.334 . S
C4685 H4662 0.950 . S
C4685 C4684 1.334 . S
C4685 C4686 1.287 . S
C4686 C4685 1.287 . S
C4686 C4687 1.524 . S
C4686 H4705 0.913 . S
C4687 H4663 0.950 . S
C4687 C4686 1.524 . S
C4687 C4688 1.415 . S
C4688 H4664 0.950 . S
C4688 C4683 1.363 . S
C4688 C4687 1.415 . S
C4689 H4665 0.951 . S
C4689 C4690 1.366 . S
C4689 C4691 1.388 . S
C4690 C4689 1.366 . S
C4690 C4694 1.385 . S
C4691 H4666 0.951 . S
C4691 C4689 1.388 . S
C4691 C4692 1.366 . S
C4692 C4691 1.366 . S
C4692 C4693 1.414 . S
C4692 C4695 1.499 . S
C4693 H4667 0.950 . S
C4693 C4692 1.414 . S
C4693 C4694 1.374 . S
C4694 H4668 0.950 . S
C4694 C4690 1.385 . S
C4694 C4693 1.374 . S
C4695 C4692 1.499 . S
C4695 C4696 1.373 . S
C4695 C4697 1.389 . S
C4696 H4669 0.950 . S
C4696 C4682 1.377 . S
C4696 C4695 1.373 . S
C4697 C4681 1.377 . S
C4697 C4695 1.389 . S
C4697 C4698 1.524 . S
C4698 C4697 1.524 . S
C4698 C4699 1.397 . S
C4698 C4703 1.363 . S
C4699 H4670 0.950 . S
C4699 C4698 1.397 . S
C4699 C4700 1.334 . S
C4700 H4671 0.950 . S
C4700 C4699 1.334 . S
C4700 C4701 1.287 . S
C4701 C4700 1.287 . S
C4701 C4702 1.524 . S
C4701 H4704 0.999 . S
C4702 H4672 0.950 . S
C4702 C4701 1.524 . S
C4702 C4703 1.415 . S
C4703 H4673 0.950 . S
C4703 C4698 1.363 . S
C4703 C4702 1.415 . S
H4704 C4701 0.999 . S
H4705 C4686 0.913 . S
H4706 C4724 0.951 . S
H4707 C4726 0.951 . S
H4708 C4728 0.950 . S
H4709 C4729 0.950 . S
H4710 C4731 0.950 . S
H4711 C4734 0.950 . S
H4712 C4735 0.950 . S
H4713 C4737 0.950 . S
H4714 C4738 0.950 . S
H4715 C4739 0.951 . S
H4716 C4741 0.951 . S
H4717 C4743 0.950 . S
H4718 C4744 0.950 . S
H4719 C4746 0.950 . S
H4720 C4749 0.950 . S
H4721 C4750 0.950 . S
H4722 C4752 0.950 . S
H4723 C4753 0.950 . S
C4724 H4706 0.951 . S
C4724 C4725 1.366 . S
C4724 C4726 1.388 . S
C4725 C4724 1.366 . S
C4725 C4729 1.385 . S
C4726 H4707 0.951 . S
C4726 C4724 1.388 . S
C4726 C4727 1.366 . S
C4727 C4726 1.366 . S
C4727 C4728 1.414 . S
C4727 C4730 1.499 . S
C4728 H4708 0.950 . S
C4728 C4727 1.414 . S
C4728 C4729 1.374 . S
C4729 H4709 0.950 . S
C4729 C4725 1.385 . S
C4729 C4728 1.374 . S
C4730 C4727 1.499 . S
C4730 C4731 1.373 . S
C4730 C4732 1.389 . S
C4731 H4710 0.950 . S
C4731 C4730 1.373 . S
C4731 C4747 1.377 . S
C4732 C4730 1.389 . S
C4732 C4733 1.524 . S
C4732 C4746 1.377 . S
C4733 C4732 1.524 . S
C4733 C4734 1.397 . S
C4733 C4738 1.363 . S
C4734 H4711 0.950 . S
C4734 C4733 1.397 . S
C4734 C4735 1.334 . S
C4735 H4712 0.950 . S
C4735 C4734 1.334 . S
C4735 C4736 1.287 . S
C4736 C4735 1.287 . S
C4736 C4737 1.524 . S
C4736 H4755 0.913 . S
C4737 H4713 0.950 . S
C4737 C4736 1.524 . S
C4737 C4738 1.415 . S
C4738 H4714 0.950 . S
C4738 C4733 1.363 . S
C4738 C4737 1.415 . S
C4739 H4715 0.951 . S
C4739 C4740 1.366 . S
C4739 C4741 1.388 . S
C4740 C4739 1.366 . S
C4740 C4744 1.385 . S
C4741 H4716 0.951 . S
C4741 C4739 1.388 . S
C4741 C4742 1.366 . S
C4742 C4741 1.366 . S
C4742 C4743 1.414 . S
C4742 C4745 1.499 . S
C4743 H4717 0.950 . S
C4743 C4742 1.414 . S
C4743 C4744 1.374 . S
C4744 H4718 0.950 . S
C4744 C4740 1.385 . S
C4744 C4743 1.374 . S
C4745 C4742 1.499 . S
C4745 C4746 1.373 . S
C4745 C4747 1.389 . S
C4746 H4719 0.950 . S
C4746 C4732 1.377 . S
C4746 C4745 1.373 . S
C4747 C4731 1.377 . S
C4747 C4745 1.389 . S
C4747 C4748 1.524 . S
C4748 C4747 1.524 . S
C4748 C4749 1.397 . S
C4748 C4753 1.363 . S
C4749 H4720 0.950 . S
C4749 C4748 1.397 . S
C4749 C4750 1.334 . S
C4750 H4721 0.950 . S
C4750 C4749 1.334 . S
C4750 C4751 1.287 . S
C4751 C4750 1.287 . S
C4751 C4752 1.524 . S
C4751 H4754 0.999 . S
C4752 H4722 0.950 . S
C4752 C4751 1.524 . S
C4752 C4753 1.415 . S
C4753 H4723 0.950 . S
C4753 C4748 1.363 . S
C4753 C4752 1.415 . S
H4754 C4751 0.999 . S
H4755 C4736 0.913 . S
H4756 C4774 0.951 . S
H4757 C4776 0.951 . S
H4758 C4778 0.950 . S
H4759 C4779 0.950 . S
H4760 C4781 0.950 . S
H4761 C4784 0.950 . S
H4762 C4785 0.950 . S
H4763 C4787 0.950 . S
H4764 C4788 0.950 . S
H4765 C4789 0.951 . S
H4766 C4791 0.951 . S
H4767 C4793 0.950 . S
H4768 C4794 0.950 . S
H4769 C4796 0.950 . S
H4770 C4799 0.950 . S
H4771 C4800 0.950 . S
H4772 C4802 0.950 . S
H4773 C4803 0.950 . S
C4774 H4756 0.951 . S
C4774 C4775 1.366 . S
C4774 C4776 1.388 . S
C4775 C4774 1.366 . S
C4775 C4779 1.385 . S
C4776 H4757 0.951 . S
C4776 C4774 1.388 . S
C4776 C4777 1.366 . S
C4777 C4776 1.366 . S
C4777 C4778 1.414 . S
C4777 C4780 1.499 . S
C4778 H4758 0.950 . S
C4778 C4777 1.414 . S
C4778 C4779 1.374 . S
C4779 H4759 0.950 . S
C4779 C4775 1.385 . S
C4779 C4778 1.374 . S
C4780 C4777 1.499 . S
C4780 C4781 1.373 . S
C4780 C4782 1.389 . S
C4781 H4760 0.950 . S
C4781 C4780 1.373 . S
C4781 C4797 1.377 . S
C4782 C4780 1.389 . S
C4782 C4783 1.524 . S
C4782 C4796 1.377 . S
C4783 C4782 1.524 . S
C4783 C4784 1.397 . S
C4783 C4788 1.363 . S
C4784 H4761 0.950 . S
C4784 C4783 1.397 . S
C4784 C4785 1.334 . S
C4785 H4762 0.950 . S
C4785 C4784 1.334 . S
C4785 C4786 1.287 . S
C4786 C4785 1.287 . S
C4786 C4787 1.524 . S
C4786 H4805 0.913 . S
C4787 H4763 0.950 . S
C4787 C4786 1.524 . S
C4787 C4788 1.415 . S
C4788 H4764 0.950 . S
C4788 C4783 1.363 . S
C4788 C4787 1.415 . S
C4789 H4765 0.951 . S
C4789 C4790 1.366 . S
C4789 C4791 1.388 . S
C4790 C4789 1.366 . S
C4790 C4794 1.385 . S
C4791 H4766 0.951 . S
C4791 C4789 1.388 . S
C4791 C4792 1.366 . S
C4792 C4791 1.366 . S
C4792 C4793 1.414 . S
C4792 C4795 1.499 . S
C4793 H4767 0.950 . S
C4793 C4792 1.414 . S
C4793 C4794 1.374 . S
C4794 H4768 0.950 . S
C4794 C4790 1.385 . S
C4794 C4793 1.374 . S
C4795 C4792 1.499 . S
C4795 C4796 1.373 . S
C4795 C4797 1.389 . S
C4796 H4769 0.950 . S
C4796 C4782 1.377 . S
C4796 C4795 1.373 . S
C4797 C4781 1.377 . S
C4797 C4795 1.389 . S
C4797 C4798 1.524 . S
C4798 C4797 1.524 . S
C4798 C4799 1.397 . S
C4798 C4803 1.363 . S
C4799 H4770 0.950 . S
C4799 C4798 1.397 . S
C4799 C4800 1.334 . S
C4800 H4771 0.950 . S
C4800 C4799 1.334 . S
C4800 C4801 1.287 . S
C4801 C4800 1.287 . S
C4801 C4802 1.524 . S
C4801 H4804 0.999 . S
C4802 H4772 0.950 . S
C4802 C4801 1.524 . S
C4802 C4803 1.415 . S
C4803 H4773 0.950 . S
C4803 C4798 1.363 . S
C4803 C4802 1.415 . S
H4804 C4801 0.999 . S
H4805 C4786 0.913 . S
H4806 C4824 0.951 . S
H4807 C4826 0.951 . S
H4808 C4828 0.950 . S
H4809 C4829 0.950 . S
H4810 C4831 0.950 . S
H4811 C4834 0.950 . S
H4812 C4835 0.950 . S
H4813 C4837 0.950 . S
H4814 C4838 0.950 . S
H4815 C4839 0.951 . S
H4816 C4841 0.951 . S
H4817 C4843 0.950 . S
H4818 C4844 0.950 . S
H4819 C4846 0.950 . S
H4820 C4849 0.950 . S
H4821 C4850 0.950 . S
H4822 C4852 0.950 . S
H4823 C4853 0.950 . S
C4824 H4806 0.951 . S
C4824 C4825 1.366 . S
C4824 C4826 1.388 . S
C4825 C4824 1.366 . S
C4825 C4829 1.385 . S
C4826 H4807 0.951 . S
C4826 C4824 1.388 . S
C4826 C4827 1.366 . S
C4827 C4826 1.366 . S
C4827 C4828 1.414 . S
C4827 C4830 1.499 . S
C4828 H4808 0.950 . S
C4828 C4827 1.414 . S
C4828 C4829 1.374 . S
C4829 H4809 0.950 . S
C4829 C4825 1.385 . S
C4829 C4828 1.374 . S
C4830 C4827 1.499 . S
C4830 C4831 1.373 . S
C4830 C4832 1.389 . S
C4831 H4810 0.950 . S
C4831 C4830 1.373 . S
C4831 C4847 1.377 . S
C4832 C4830 1.389 . S
C4832 C4833 1.524 . S
C4832 C4846 1.377 . S
C4833 C4832 1.524 . S
C4833 C4834 1.397 . S
C4833 C4838 1.363 . S
C4834 H4811 0.950 . S
C4834 C4833 1.397 . S
C4834 C4835 1.334 . S
C4835 H4812 0.950 . S
C4835 C4834 1.334 . S
C4835 C4836 1.287 . S
C4836 C4835 1.287 . S
C4836 C4837 1.524 . S
C4836 H4855 0.913 . S
C4837 H4813 0.950 . S
C4837 C4836 1.524 . S
C4837 C4838 1.415 . S
C4838 H4814 0.950 . S
C4838 C4833 1.363 . S
C4838 C4837 1.415 . S
C4839 H4815 0.951 . S
C4839 C4840 1.366 . S
C4839 C4841 1.388 . S
C4840 C4839 1.366 . S
C4840 C4844 1.385 . S
C4841 H4816 0.951 . S
C4841 C4839 1.388 . S
C4841 C4842 1.366 . S
C4842 C4841 1.366 . S
C4842 C4843 1.414 . S
C4842 C4845 1.499 . S
C4843 H4817 0.950 . S
C4843 C4842 1.414 . S
C4843 C4844 1.374 . S
C4844 H4818 0.950 . S
C4844 C4840 1.385 . S
C4844 C4843 1.374 . S
C4845 C4842 1.499 . S
C4845 C4846 1.373 . S
C4845 C4847 1.389 . S
C4846 H4819 0.950 . S
C4846 C4832 1.377 . S
C4846 C4845 1.373 . S
C4847 C4831 1.377 . S
C4847 C4845 1.389 . S
C4847 C4848 1.524 . S
C4848 C4847 1.524 . S
C4848 C4849 1.397 . S
C4848 C4853 1.363 . S
C4849 H4820 0.950 . S
C4849 C4848 1.397 . S
C4849 C4850 1.334 . S
C4850 H4821 0.950 . S
C4850 C4849 1.334 . S
C4850 C4851 1.287 . S
C4851 C4850 1.287 . S
C4851 C4852 1.524 . S
C4851 H4854 0.999 . S
C4852 H4822 0.950 . S
C4852 C4851 1.524 . S
C4852 C4853 1.415 . S
C4853 H4823 0.950 . S
C4853 C4848 1.363 . S
C4853 C4852 1.415 . S
H4854 C4851 0.999 . S
H4855 C4836 0.913 . S
H4856 C4874 0.951 . S
H4857 C4876 0.951 . S
H4858 C4878 0.950 . S
H4859 C4879 0.950 . S
H4860 C4881 0.950 . S
H4861 C4884 0.950 . S
H4862 C4885 0.950 . S
H4863 C4887 0.950 . S
H4864 C4888 0.950 . S
H4865 C4889 0.951 . S
H4866 C4891 0.951 . S
H4867 C4893 0.950 . S
H4868 C4894 0.950 . S
H4869 C4896 0.950 . S
H4870 C4899 0.950 . S
H4871 C4900 0.950 . S
H4872 C4902 0.950 . S
H4873 C4903 0.950 . S
C4874 H4856 0.951 . S
C4874 C4875 1.366 . S
C4874 C4876 1.388 . S
C4875 C4874 1.366 . S
C4875 C4879 1.385 . S
C4876 H4857 0.951 . S
C4876 C4874 1.388 . S
C4876 C4877 1.366 . S
C4877 C4876 1.366 . S
C4877 C4878 1.414 . S
C4877 C4880 1.499 . S
C4878 H4858 0.950 . S
C4878 C4877 1.414 . S
C4878 C4879 1.374 . S
C4879 H4859 0.950 . S
C4879 C4875 1.385 . S
C4879 C4878 1.374 . S
C4880 C4877 1.499 . S
C4880 C4881 1.373 . S
C4880 C4882 1.389 . S
C4881 H4860 0.950 . S
C4881 C4880 1.373 . S
C4881 C4897 1.377 . S
C4882 C4880 1.389 . S
C4882 C4883 1.524 . S
C4882 C4896 1.377 . S
C4883 C4882 1.524 . S
C4883 C4884 1.397 . S
C4883 C4888 1.363 . S
C4884 H4861 0.950 . S
C4884 C4883 1.397 . S
C4884 C4885 1.334 . S
C4885 H4862 0.950 . S
C4885 C4884 1.334 . S
C4885 C4886 1.287 . S
C4886 C4885 1.287 . S
C4886 C4887 1.524 . S
C4886 H4905 0.913 . S
C4887 H4863 0.950 . S
C4887 C4886 1.524 . S
C4887 C4888 1.415 . S
C4888 H4864 0.950 . S
C4888 C4883 1.363 . S
C4888 C4887 1.415 . S
C4889 H4865 0.951 . S
C4889 C4890 1.366 . S
C4889 C4891 1.388 . S
C4890 C4889 1.366 . S
C4890 C4894 1.385 . S
C4891 H4866 0.951 . S
C4891 C4889 1.388 . S
C4891 C4892 1.366 . S
C4892 C4891 1.366 . S
C4892 C4893 1.414 . S
C4892 C4895 1.499 . S
C4893 H4867 0.950 . S
C4893 C4892 1.414 . S
C4893 C4894 1.374 . S
C4894 H4868 0.950 . S
C4894 C4890 1.385 . S
C4894 C4893 1.374 . S
C4895 C4892 1.499 . S
C4895 C4896 1.373 . S
C4895 C4897 1.389 . S
C4896 H4869 0.950 . S
C4896 C4882 1.377 . S
C4896 C4895 1.373 . S
C4897 C4881 1.377 . S
C4897 C4895 1.389 . S
C4897 C4898 1.524 . S
C4898 C4897 1.524 . S
C4898 C4899 1.397 . S
C4898 C4903 1.363 . S
C4899 H4870 0.950 . S
C4899 C4898 1.397 . S
C4899 C4900 1.334 . S
C4900 H4871 0.950 . S
C4900 C4899 1.334 . S
C4900 C4901 1.287 . S
C4901 C4900 1.287 . S
C4901 C4902 1.524 . S
C4901 H4904 0.999 . S
C4902 H4872 0.950 . S
C4902 C4901 1.524 . S
C4902 C4903 1.415 . S
C4903 H4873 0.950 . S
C4903 C4898 1.363 . S
C4903 C4902 1.415 . S
H4904 C4901 0.999 . S
H4905 C4886 0.913 . S
H4906 C4924 0.951 . S
H4907 C4926 0.951 . S
H4908 C4928 0.950 . S
H4909 C4929 0.950 . S
H4910 C4931 0.950 . S
H4911 C4934 0.950 . S
H4912 C4935 0.950 . S
H4913 C4937 0.950 . S
H4914 C4938 0.950 . S
H4915 C4939 0.951 . S
H4916 C4941 0.951 . S
H4917 C4943 0.950 . S
H4918 C4944 0.950 . S
H4919 C4946 0.950 . S
H4920 C4949 0.950 . S
H4921 C4950 0.950 . S
H4922 C4952 0.950 . S
H4923 C4953 0.950 . S
C4924 H4906 0.951 . S
C4924 C4925 1.366 . S
C4924 C4926 1.388 . S
C4925 C4924 1.366 . S
C4925 C4929 1.385 . S
C4926 H4907 0.951 . S
C4926 C4924 1.388 . S
C4926 C4927 1.366 . S
C4927 C4926 1.366 . S
C4927 C4928 1.414 . S
C4927 C4930 1.499 . S
C4928 H4908 0.950 . S
C4928 C4927 1.414 . S
C4928 C4929 1.374 . S
C4929 H4909 0.950 . S
C4929 C4925 1.385 . S
C4929 C4928 1.374 . S
C4930 C4927 1.499 . S
C4930 C4931 1.373 . S
C4930 C4932 1.389 . S
C4931 H4910 0.950 . S
C4931 C4930 1.373 . S
C4931 C4947 1.377 . S
C4932 C4930 1.389 . S
C4932 C4933 1.524 . S
C4932 C4946 1.377 . S
C4933 C4932 1.524 . S
C4933 C4934 1.397 . S
C4933 C4938 1.363 . S
C4934 H4911 0.950 . S
C4934 C4933 1.397 . S
C4934 C4935 1.334 . S
C4935 H4912 0.950 . S
C4935 C4934 1.334 . S
C4935 C4936 1.287 . S
C4936 C4935 1.287 . S
C4936 C4937 1.524 . S
C4936 H4955 0.913 . S
C4937 H4913 0.950 . S
C4937 C4936 1.524 . S
C4937 C4938 1.415 . S
C4938 H4914 0.950 . S
C4938 C4933 1.363 . S
C4938 C4937 1.415 . S
C4939 H4915 0.951 . S
C4939 C4940 1.366 . S
C4939 C4941 1.388 . S
C4940 C4939 1.366 . S
C4940 C4944 1.385 . S
C4941 H4916 0.951 . S
C4941 C4939 1.388 . S
C4941 C4942 1.366 . S
C4942 C4941 1.366 . S
C4942 C4943 1.414 . S
C4942 C4945 1.499 . S
C4943 H4917 0.950 . S
C4943 C4942 1.414 . S
C4943 C4944 1.374 . S
C4944 H4918 0.950 . S
C4944 C4940 1.385 . S
C4944 C4943 1.374 . S
C4945 C4942 1.499 . S
C4945 C4946 1.373 . S
C4945 C4947 1.389 . S
C4946 H4919 0.950 . S
C4946 C4932 1.377 . S
C4946 C4945 1.373 . S
C4947 C4931 1.377 . S
C4947 C4945 1.389 . S
C4947 C4948 1.524 . S
C4948 C4947 1.524 . S
C4948 C4949 1.397 . S
C4948 C4953 1.363 . S
C4949 H4920 0.950 . S
C4949 C4948 1.397 . S
C4949 C4950 1.334 . S
C4950 H4921 0.950 . S
C4950 C4949 1.334 . S
C4950 C4951 1.287 . S
C4951 C4950 1.287 . S
C4951 C4952 1.524 . S
C4951 H4954 0.999 . S
C4952 H4922 0.950 . S
C4952 C4951 1.524 . S
C4952 C4953 1.415 . S
C4953 H4923 0.950 . S
C4953 C4948 1.363 . S
C4953 C4952 1.415 . S
H4954 C4951 0.999 . S
H4955 C4936 0.913 . S
H4956 C4974 0.926 1_545 S
H4957 C4976 0.951 . S
H4958 C4978 0.950 . S
H4959 C4979 0.950 . S
H4960 C4981 0.950 . S
H4961 C4984 0.950 . S
H4962 C4985 0.950 . S
H4963 C4987 0.950 . S
H4964 C4988 0.950 . S
H4965 C4989 0.951 . S
H4966 C4991 0.951 . S
H4967 C4993 0.950 . S
H4968 C4994 0.950 . S
H4969 C4996 0.950 . S
H4970 C4999 0.950 . S
H4971 C5000 0.950 . S
H4972 C5002 0.950 . S
H4973 C5003 0.950 . S
C4974 H4956 0.926 1_565 S
C4974 C4975 1.366 . S
C4974 C4976 1.388 . S
C4975 C4974 1.366 . S
C4975 C4979 1.385 . S
C4976 H4957 0.951 . S
C4976 C4974 1.388 . S
C4976 C4977 1.366 . S
C4977 C4976 1.366 . S
C4977 C4978 1.414 . S
C4977 C4980 1.499 . S
C4978 H4958 0.950 . S
C4978 C4977 1.414 . S
C4978 C4979 1.374 . S
C4979 H4959 0.950 . S
C4979 C4975 1.385 . S
C4979 C4978 1.374 . S
C4980 C4977 1.499 . S
C4980 C4981 1.373 . S
C4980 C4982 1.389 . S
C4981 H4960 0.950 . S
C4981 C4980 1.373 . S
C4981 C4997 1.377 . S
C4982 C4980 1.389 . S
C4982 C4983 1.524 . S
C4982 C4996 1.377 . S
C4983 C4982 1.524 . S
C4983 C4984 1.397 . S
C4983 C4988 1.363 . S
C4984 H4961 0.950 . S
C4984 C4983 1.397 . S
C4984 C4985 1.334 . S
C4985 H4962 0.950 . S
C4985 C4984 1.334 . S
C4985 C4986 1.287 . S
C4986 C4985 1.287 . S
C4986 C4987 1.524 . S
C4986 H5005 0.913 1_565 S
C4987 H4963 0.950 . S
C4987 C4986 1.524 . S
C4987 C4988 1.415 . S
C4988 H4964 0.950 . S
C4988 C4983 1.363 . S
C4988 C4987 1.415 . S
C4989 H4965 0.951 . S
C4989 C4990 1.366 . S
C4989 C4991 1.388 . S
C4990 C4989 1.366 . S
C4990 C4994 1.385 . S
C4991 H4966 0.951 . S
C4991 C4989 1.388 . S
C4991 C4992 1.366 . S
C4992 C4991 1.366 . S
C4992 C4993 1.414 . S
C4992 C4995 1.499 . S
C4993 H4967 0.950 . S
C4993 C4992 1.414 . S
C4993 C4994 1.374 . S
C4994 H4968 0.950 . S
C4994 C4990 1.385 . S
C4994 C4993 1.374 . S
C4995 C4992 1.499 . S
C4995 C4996 1.373 . S
C4995 C4997 1.389 . S
C4996 H4969 0.950 . S
C4996 C4982 1.377 . S
C4996 C4995 1.373 . S
C4997 C4981 1.377 . S
C4997 C4995 1.389 . S
C4997 C4998 1.524 . S
C4998 C4997 1.524 . S
C4998 C4999 1.397 . S
C4998 C5003 1.363 . S
C4999 H4970 0.950 . S
C4999 C4998 1.397 . S
C4999 C5000 1.334 . S
C5000 H4971 0.950 . S
C5000 C4999 1.334 . S
C5000 C5001 1.287 . S
C5001 C5000 1.287 . S
C5001 C5002 1.524 . S
C5001 H5004 0.999 . S
C5002 H4972 0.950 . S
C5002 C5001 1.524 . S
C5002 C5003 1.415 . S
C5003 H4973 0.950 . S
C5003 C4998 1.363 . S
C5003 C5002 1.415 . S
H5004 C5001 0.999 . S
H5005 C4986 0.913 1_545 S
H5006 C5024 0.951 . S
H5007 C5026 0.951 . S
H5008 C5028 0.950 . S
H5009 C5029 0.950 . S
H5010 C5031 0.979 . S
H5011 C5034 0.950 . S
H5012 C5035 0.950 . S
H5013 C5037 0.950 . S
H5014 C5038 0.950 . S
H5015 C5039 0.951 . S
H5016 C5041 0.951 . S
H5017 C5043 0.950 . S
H5018 C5044 0.950 . S
H5019 C5046 0.950 . S
H5020 C5049 0.950 . S
H5021 C5050 0.950 1_565 S
H5022 C5052 0.950 . S
H5023 C5053 0.950 . S
C5024 H5006 0.951 . S
C5024 C5025 1.366 . S
C5024 C5026 1.388 . S
C5025 C5024 1.366 . S
C5025 C5029 1.385 . S
C5026 H5007 0.951 . S
C5026 C5024 1.388 . S
C5026 C5027 1.366 . S
C5027 C5026 1.366 . S
C5027 C5028 1.414 . S
C5027 C5030 1.499 . S
C5028 H5008 0.950 . S
C5028 C5027 1.414 . S
C5028 C5029 1.374 . S
C5029 H5009 0.950 . S
C5029 C5025 1.385 . S
C5029 C5028 1.374 . S
C5030 C5027 1.499 . S
C5030 C5031 1.340 1_554 S
C5030 C5032 1.389 . S
C5031 H5010 0.979 . S
C5031 C5030 1.340 1_556 S
C5031 C5047 1.381 . S
C5032 C5030 1.389 . S
C5032 C5033 1.524 . S
C5032 C5046 1.377 . S
C5033 C5032 1.524 . S
C5033 C5034 1.397 . S
C5033 C5038 1.363 . S
C5034 H5011 0.950 . S
C5034 C5033 1.397 . S
C5034 C5035 1.334 . S
C5035 H5012 0.950 . S
C5035 C5034 1.334 . S
C5035 C5036 1.287 . S
C5036 C5035 1.287 . S
C5036 C5037 1.524 . S
C5036 H5055 0.913 . S
C5037 H5013 0.950 . S
C5037 C5036 1.524 . S
C5037 C5038 1.415 . S
C5038 H5014 0.950 . S
C5038 C5033 1.363 . S
C5038 C5037 1.415 . S
C5039 H5015 0.951 . S
C5039 C5040 1.366 . S
C5039 C5041 1.388 . S
C5040 C5039 1.366 . S
C5040 C5044 1.385 1_545 S
C5041 H5016 0.951 . S
C5041 C5039 1.388 . S
C5041 C5042 1.366 1_545 S
C5042 C5041 1.366 1_565 S
C5042 C5043 1.414 . S
C5042 C5045 1.499 . S
C5043 H5017 0.950 . S
C5043 C5042 1.414 . S
C5043 C5044 1.374 . S
C5044 H5018 0.950 . S
C5044 C5040 1.385 1_565 S
C5044 C5043 1.374 . S
C5045 C5042 1.499 . S
C5045 C5046 1.373 . S
C5045 C5047 1.381 1_554 S
C5046 H5019 0.950 . S
C5046 C5032 1.377 . S
C5046 C5045 1.373 . S
C5047 C5031 1.381 . S
C5047 C5045 1.381 1_556 S
C5047 C5048 1.542 . S
C5048 C5047 1.542 . S
C5048 C5049 1.401 . S
C5048 C5053 1.353 1_565 S
C5049 H5020 0.950 . S
C5049 C5048 1.401 . S
C5049 C5050 1.334 1_565 S
C5050 H5021 0.950 1_545 S
C5050 C5049 1.334 1_545 S
C5050 C5051 1.287 . S
C5051 C5050 1.287 . S
C5051 C5052 1.524 . S
C5051 H5054 0.999 . S
C5052 H5022 0.950 . S
C5052 C5051 1.524 . S
C5052 C5053 1.415 . S
C5053 H5023 0.950 . S
C5053 C5048 1.353 1_545 S
C5053 C5052 1.415 . S
H5054 C5051 0.999 . S
H5055 C5036 0.913 . S
H5056 C5074 0.951 . S
H5057 C5076 0.951 . S
H5058 C5078 0.950 . S
H5059 C5079 0.950 . S
H5060 C5081 0.950 . S
H5061 C5084 0.950 . S
H5062 C5085 0.950 . S
H5063 C5087 0.950 . S
H5064 C5088 0.950 . S
H5065 C5089 0.951 . S
H5066 C5091 0.951 . S
H5067 C5093 0.950 . S
H5068 C5094 0.950 . S
H5069 C5096 0.950 . S
H5070 C5099 0.950 . S
H5071 C5100 0.950 . S
H5072 C5102 0.950 . S
H5073 C5103 0.950 . S
C5074 H5056 0.951 . S
C5074 C5075 1.366 . S
C5074 C5076 1.388 . S
C5075 C5074 1.366 . S
C5075 C5079 1.385 . S
C5076 H5057 0.951 . S
C5076 C5074 1.388 . S
C5076 C5077 1.366 . S
C5077 C5076 1.366 . S
C5077 C5078 1.414 . S
C5077 C5080 1.499 . S
C5078 H5058 0.950 . S
C5078 C5077 1.414 . S
C5078 C5079 1.374 . S
C5079 H5059 0.950 . S
C5079 C5075 1.385 . S
C5079 C5078 1.374 . S
C5080 C5077 1.499 . S
C5080 C5081 1.373 . S
C5080 C5082 1.389 . S
C5081 H5060 0.950 . S
C5081 C5080 1.373 . S
C5081 C5097 1.377 . S
C5082 C5080 1.389 . S
C5082 C5083 1.524 . S
C5082 C5096 1.377 . S
C5083 C5082 1.524 . S
C5083 C5084 1.397 . S
C5083 C5088 1.363 . S
C5084 H5061 0.950 . S
C5084 C5083 1.397 . S
C5084 C5085 1.334 . S
C5085 H5062 0.950 . S
C5085 C5084 1.334 . S
C5085 C5086 1.287 . S
C5086 C5085 1.287 . S
C5086 C5087 1.524 . S
C5086 H5105 0.913 . S
C5087 H5063 0.950 . S
C5087 C5086 1.524 . S
C5087 C5088 1.415 . S
C5088 H5064 0.950 . S
C5088 C5083 1.363 . S
C5088 C5087 1.415 . S
C5089 H5065 0.951 . S
C5089 C5090 1.366 . S
C5089 C5091 1.388 . S
C5090 C5089 1.366 . S
C5090 C5094 1.385 . S
C5091 H5066 0.951 . S
C5091 C5089 1.388 . S
C5091 C5092 1.366 . S
C5092 C5091 1.366 . S
C5092 C5093 1.414 . S
C5092 C5095 1.499 . S
C5093 H5067 0.950 . S
C5093 C5092 1.414 . S
C5093 C5094 1.374 . S
C5094 H5068 0.950 . S
C5094 C5090 1.385 . S
C5094 C5093 1.374 . S
C5095 C5092 1.499 . S
C5095 C5096 1.373 . S
C5095 C5097 1.389 . S
C5096 H5069 0.950 . S
C5096 C5082 1.377 . S
C5096 C5095 1.373 . S
C5097 C5081 1.377 . S
C5097 C5095 1.389 . S
C5097 C5098 1.524 . S
C5098 C5097 1.524 . S
C5098 C5099 1.397 . S
C5098 C5103 1.363 . S
C5099 H5070 0.950 . S
C5099 C5098 1.397 . S
C5099 C5100 1.334 . S
C5100 H5071 0.950 . S
C5100 C5099 1.334 . S
C5100 C5101 1.287 . S
C5101 C5100 1.287 . S
C5101 C5102 1.524 . S
C5101 H5104 0.999 . S
C5102 H5072 0.950 . S
C5102 C5101 1.524 . S
C5102 C5103 1.415 . S
C5103 H5073 0.950 . S
C5103 C5098 1.363 . S
C5103 C5102 1.415 . S
H5104 C5101 0.999 . S
H5105 C5086 0.913 . S
H5106 C5124 0.951 . S
H5107 C5126 0.951 . S
H5108 C5128 0.950 . S
H5109 C5129 0.950 . S
H5110 C5131 0.950 1_556 S
H5111 C5134 0.950 . S
H5112 C5135 0.950 . S
H5113 C5137 0.950 . S
H5114 C5138 0.950 . S
H5115 C5139 0.951 . S
H5116 C5141 0.951 . S
H5117 C5143 0.950 . S
H5118 C5144 0.950 . S
H5119 C5146 0.950 . S
H5120 C5149 0.950 . S
H5121 C5150 0.950 . S
H5122 C5152 0.950 . S
H5123 C5153 0.950 . S
C5124 H5106 0.951 . S
C5124 C5125 1.366 . S
C5124 C5126 1.388 . S
C5125 C5124 1.366 . S
C5125 C5129 1.385 . S
C5126 H5107 0.951 . S
C5126 C5124 1.388 . S
C5126 C5127 1.366 . S
C5127 C5126 1.366 . S
C5127 C5128 1.414 . S
C5127 C5130 1.499 . S
C5128 H5108 0.950 . S
C5128 C5127 1.414 . S
C5128 C5129 1.374 . S
C5129 H5109 0.950 . S
C5129 C5125 1.385 . S
C5129 C5128 1.374 . S
C5130 C5127 1.499 . S
C5130 C5131 1.373 . S
C5130 C5132 1.389 . S
C5131 H5110 0.950 1_554 S
C5131 C5130 1.373 . S
C5131 C5147 1.377 . S
C5132 C5130 1.389 . S
C5132 C5133 1.524 . S
C5132 C5146 1.377 . S
C5133 C5132 1.524 . S
C5133 C5134 1.397 . S
C5133 C5138 1.363 . S
C5134 H5111 0.950 . S
C5134 C5133 1.397 . S
C5134 C5135 1.334 . S
C5135 H5112 0.950 . S
C5135 C5134 1.334 . S
C5135 C5136 1.287 . S
C5136 C5135 1.287 . S
C5136 C5137 1.524 . S
C5136 H5155 0.913 . S
C5137 H5113 0.950 . S
C5137 C5136 1.524 . S
C5137 C5138 1.415 . S
C5138 H5114 0.950 . S
C5138 C5133 1.363 . S
C5138 C5137 1.415 . S
C5139 H5115 0.951 . S
C5139 C5140 1.366 . S
C5139 C5141 1.388 . S
C5140 C5139 1.366 . S
C5140 C5144 1.385 . S
C5141 H5116 0.951 . S
C5141 C5139 1.388 . S
C5141 C5142 1.366 . S
C5142 C5141 1.366 . S
C5142 C5143 1.414 . S
C5142 C5145 1.499 . S
C5143 H5117 0.950 . S
C5143 C5142 1.414 . S
C5143 C5144 1.374 . S
C5144 H5118 0.950 . S
C5144 C5140 1.385 . S
C5144 C5143 1.374 . S
C5145 C5142 1.499 . S
C5145 C5146 1.373 . S
C5145 C5147 1.389 . S
C5146 H5119 0.950 . S
C5146 C5132 1.377 . S
C5146 C5145 1.373 . S
C5147 C5131 1.377 . S
C5147 C5145 1.389 . S
C5147 C5148 1.524 1_554 S
C5148 C5147 1.524 1_556 S
C5148 C5149 1.397 . S
C5148 C5153 1.363 . S
C5149 H5120 0.950 . S
C5149 C5148 1.397 . S
C5149 C5150 1.334 . S
C5150 H5121 0.950 . S
C5150 C5149 1.334 . S
C5150 C5151 1.287 . S
C5151 C5150 1.287 . S
C5151 C5152 1.524 . S
C5151 H5154 0.999 . S
C5152 H5122 0.950 . S
C5152 C5151 1.524 . S
C5152 C5153 1.415 . S
C5153 H5123 0.950 . S
C5153 C5148 1.363 . S
C5153 C5152 1.415 . S
H5154 C5151 0.999 . S
H5155 C5136 0.913 . S
H5156 C5174 0.951 . S
H5157 C5176 0.951 . S
H5158 C5178 0.950 . S
H5159 C5179 0.950 . S
H5160 C5181 0.950 . S
H5161 C5184 0.950 . S
H5162 C5185 0.950 . S
H5163 C5187 0.950 . S
H5164 C5188 0.950 . S
H5165 C5189 0.951 . S
H5166 C5191 0.951 . S
H5167 C5193 0.950 . S
H5168 C5194 0.950 . S
H5169 C5196 0.950 . S
H5170 C5199 0.950 . S
H5171 C5200 0.950 . S
H5172 C5202 0.950 . S
H5173 C5203 0.950 . S
C5174 H5156 0.951 . S
C5174 C5175 1.366 . S
C5174 C5176 1.388 . S
C5175 C5174 1.366 . S
C5175 C5179 1.385 . S
C5176 H5157 0.951 . S
C5176 C5174 1.388 . S
C5176 C5177 1.366 . S
C5177 C5176 1.366 . S
C5177 C5178 1.414 . S
C5177 C5180 1.499 . S
C5178 H5158 0.950 . S
C5178 C5177 1.414 . S
C5178 C5179 1.374 . S
C5179 H5159 0.950 . S
C5179 C5175 1.385 . S
C5179 C5178 1.374 . S
C5180 C5177 1.499 . S
C5180 C5181 1.373 . S
C5180 C5182 1.389 . S
C5181 H5160 0.950 . S
C5181 C5180 1.373 . S
C5181 C5197 1.377 . S
C5182 C5180 1.389 . S
C5182 C5183 1.524 . S
C5182 C5196 1.377 . S
C5183 C5182 1.524 . S
C5183 C5184 1.397 . S
C5183 C5188 1.363 . S
C5184 H5161 0.950 . S
C5184 C5183 1.397 . S
C5184 C5185 1.334 . S
C5185 H5162 0.950 . S
C5185 C5184 1.334 . S
C5185 C5186 1.287 . S
C5186 C5185 1.287 . S
C5186 C5187 1.524 . S
C5186 H5205 0.913 . S
C5187 H5163 0.950 . S
C5187 C5186 1.524 . S
C5187 C5188 1.415 . S
C5188 H5164 0.950 . S
C5188 C5183 1.363 . S
C5188 C5187 1.415 . S
C5189 H5165 0.951 . S
C5189 C5190 1.366 . S
C5189 C5191 1.388 . S
C5190 C5189 1.366 . S
C5190 C5194 1.385 . S
C5191 H5166 0.951 . S
C5191 C5189 1.388 . S
C5191 C5192 1.366 . S
C5192 C5191 1.366 . S
C5192 C5193 1.414 . S
C5192 C5195 1.499 . S
C5193 H5167 0.950 . S
C5193 C5192 1.414 . S
C5193 C5194 1.374 . S
C5194 H5168 0.950 . S
C5194 C5190 1.385 . S
C5194 C5193 1.374 . S
C5195 C5192 1.499 . S
C5195 C5196 1.373 . S
C5195 C5197 1.389 . S
C5196 H5169 0.950 . S
C5196 C5182 1.377 . S
C5196 C5195 1.373 . S
C5197 C5181 1.377 . S
C5197 C5195 1.389 . S
C5197 C5198 1.524 . S
C5198 C5197 1.524 . S
C5198 C5199 1.397 . S
C5198 C5203 1.363 . S
C5199 H5170 0.950 . S
C5199 C5198 1.397 . S
C5199 C5200 1.334 . S
C5200 H5171 0.950 . S
C5200 C5199 1.334 . S
C5200 C5201 1.287 . S
C5201 C5200 1.287 . S
C5201 C5202 1.524 . S
C5201 H5204 0.999 . S
C5202 H5172 0.950 . S
C5202 C5201 1.524 . S
C5202 C5203 1.415 . S
C5203 H5173 0.950 . S
C5203 C5198 1.363 . S
C5203 C5202 1.415 . S
H5204 C5201 0.999 . S
H5205 C5186 0.913 . S
H5206 C5224 0.951 . S
H5207 C5226 0.951 . S
H5208 C5228 0.950 . S
H5209 C5229 0.950 . S
H5210 C5231 0.950 . S
H5211 C5234 0.950 . S
H5212 C5235 0.950 . S
H5213 C5237 0.950 . S
H5214 C5238 0.950 . S
H5215 C5239 0.951 . S
H5216 C5241 0.951 . S
H5217 C5243 0.950 . S
H5218 C5244 0.950 . S
H5219 C5246 0.950 . S
H5220 C5249 0.950 . S
H5221 C5250 0.950 . S
H5222 C5252 0.950 . S
H5223 C5253 0.950 . S
C5224 H5206 0.951 . S
C5224 C5225 1.366 . S
C5224 C5226 1.388 . S
C5225 C5224 1.366 . S
C5225 C5229 1.385 . S
C5226 H5207 0.951 . S
C5226 C5224 1.388 . S
C5226 C5227 1.366 . S
C5227 C5226 1.366 . S
C5227 C5228 1.414 . S
C5227 C5230 1.499 . S
C5228 H5208 0.950 . S
C5228 C5227 1.414 . S
C5228 C5229 1.374 . S
C5229 H5209 0.950 . S
C5229 C5225 1.385 . S
C5229 C5228 1.374 . S
C5230 C5227 1.499 . S
C5230 C5231 1.373 . S
C5230 C5232 1.389 . S
C5231 H5210 0.950 . S
C5231 C5230 1.373 . S
C5231 C5247 1.377 . S
C5232 C5230 1.389 . S
C5232 C5233 1.524 . S
C5232 C5246 1.377 . S
C5233 C5232 1.524 . S
C5233 C5234 1.397 . S
C5233 C5238 1.363 . S
C5234 H5211 0.950 . S
C5234 C5233 1.397 . S
C5234 C5235 1.334 . S
C5235 H5212 0.950 . S
C5235 C5234 1.334 . S
C5235 C5236 1.287 . S
C5236 C5235 1.287 . S
C5236 C5237 1.524 . S
C5236 H5255 0.913 . S
C5237 H5213 0.950 . S
C5237 C5236 1.524 . S
C5237 C5238 1.415 . S
C5238 H5214 0.950 . S
C5238 C5233 1.363 . S
C5238 C5237 1.415 . S
C5239 H5215 0.951 . S
C5239 C5240 1.366 . S
C5239 C5241 1.388 . S
C5240 C5239 1.366 . S
C5240 C5244 1.385 . S
C5241 H5216 0.951 . S
C5241 C5239 1.388 . S
C5241 C5242 1.366 . S
C5242 C5241 1.366 . S
C5242 C5243 1.414 . S
C5242 C5245 1.499 . S
C5243 H5217 0.950 . S
C5243 C5242 1.414 . S
C5243 C5244 1.374 . S
C5244 H5218 0.950 . S
C5244 C5240 1.385 . S
C5244 C5243 1.374 . S
C5245 C5242 1.499 . S
C5245 C5246 1.373 . S
C5245 C5247 1.389 . S
C5246 H5219 0.950 . S
C5246 C5232 1.377 . S
C5246 C5245 1.373 . S
C5247 C5231 1.377 . S
C5247 C5245 1.389 . S
C5247 C5248 1.524 . S
C5248 C5247 1.524 . S
C5248 C5249 1.397 . S
C5248 C5253 1.363 . S
C5249 H5220 0.950 . S
C5249 C5248 1.397 . S
C5249 C5250 1.334 . S
C5250 H5221 0.950 . S
C5250 C5249 1.334 . S
C5250 C5251 1.287 . S
C5251 C5250 1.287 . S
C5251 C5252 1.524 . S
C5251 H5254 0.999 . S
C5252 H5222 0.950 . S
C5252 C5251 1.524 . S
C5252 C5253 1.415 . S
C5253 H5223 0.950 . S
C5253 C5248 1.363 . S
C5253 C5252 1.415 . S
H5254 C5251 0.999 . S
H5255 C5236 0.913 . S
H5256 C5274 0.951 . S
H5257 C5276 0.951 . S
H5258 C5278 0.950 . S
H5259 C5279 0.950 . S
H5260 C5281 0.950 . S
H5261 C5284 0.950 . S
H5262 C5285 0.950 . S
H5263 C5287 0.950 . S
H5264 C5288 0.950 . S
H5265 C5289 0.951 . S
H5266 C5291 0.951 . S
H5267 C5293 0.950 . S
H5268 C5294 0.950 . S
H5269 C5296 0.950 . S
H5270 C5299 0.950 . S
H5271 C5300 0.950 . S
H5272 C5302 0.950 . S
H5273 C5303 0.950 . S
C5274 H5256 0.951 . S
C5274 C5275 1.366 . S
C5274 C5276 1.388 . S
C5275 C5274 1.366 . S
C5275 C5279 1.385 . S
C5276 H5257 0.951 . S
C5276 C5274 1.388 . S
C5276 C5277 1.366 . S
C5277 C5276 1.366 . S
C5277 C5278 1.414 . S
C5277 C5280 1.499 . S
C5278 H5258 0.950 . S
C5278 C5277 1.414 . S
C5278 C5279 1.374 . S
C5279 H5259 0.950 . S
C5279 C5275 1.385 . S
C5279 C5278 1.374 . S
C5280 C5277 1.499 . S
C5280 C5281 1.373 . S
C5280 C5282 1.389 . S
C5281 H5260 0.950 . S
C5281 C5280 1.373 . S
C5281 C5297 1.377 . S
C5282 C5280 1.389 . S
C5282 C5283 1.524 . S
C5282 C5296 1.377 . S
C5283 C5282 1.524 . S
C5283 C5284 1.397 . S
C5283 C5288 1.363 . S
C5284 H5261 0.950 . S
C5284 C5283 1.397 . S
C5284 C5285 1.334 . S
C5285 H5262 0.950 . S
C5285 C5284 1.334 . S
C5285 C5286 1.287 . S
C5286 C5285 1.287 . S
C5286 C5287 1.524 . S
C5286 H5305 0.913 . S
C5287 H5263 0.950 . S
C5287 C5286 1.524 . S
C5287 C5288 1.415 . S
C5288 H5264 0.950 . S
C5288 C5283 1.363 . S
C5288 C5287 1.415 . S
C5289 H5265 0.951 . S
C5289 C5290 1.366 . S
C5289 C5291 1.388 . S
C5290 C5289 1.366 . S
C5290 C5294 1.385 . S
C5291 H5266 0.951 . S
C5291 C5289 1.388 . S
C5291 C5292 1.366 . S
C5292 C5291 1.366 . S
C5292 C5293 1.414 . S
C5292 C5295 1.499 . S
C5293 H5267 0.950 . S
C5293 C5292 1.414 . S
C5293 C5294 1.374 . S
C5294 H5268 0.950 . S
C5294 C5290 1.385 . S
C5294 C5293 1.374 . S
C5295 C5292 1.499 . S
C5295 C5296 1.373 . S
C5295 C5297 1.389 . S
C5296 H5269 0.950 . S
C5296 C5282 1.377 . S
C5296 C5295 1.373 . S
C5297 C5281 1.377 . S
C5297 C5295 1.389 . S
C5297 C5298 1.524 . S
C5298 C5297 1.524 . S
C5298 C5299 1.397 . S
C5298 C5303 1.363 . S
C5299 H5270 0.950 . S
C5299 C5298 1.397 . S
C5299 C5300 1.334 . S
C5300 H5271 0.950 . S
C5300 C5299 1.334 . S
C5300 C5301 1.287 . S
C5301 C5300 1.287 . S
C5301 C5302 1.524 . S
C5301 H5304 0.999 . S
C5302 H5272 0.950 . S
C5302 C5301 1.524 . S
C5302 C5303 1.415 . S
C5303 H5273 0.950 . S
C5303 C5298 1.363 . S
C5303 C5302 1.415 . S
H5304 C5301 0.999 . S
H5305 C5286 0.913 . S
H5306 C5324 0.951 . S
H5307 C5326 0.951 . S
H5308 C5328 0.950 . S
H5309 C5329 0.950 . S
H5310 C5331 0.950 . S
H5311 C5334 0.950 . S
H5312 C5335 0.950 . S
H5313 C5337 0.950 . S
H5314 C5338 0.950 . S
H5315 C5339 0.951 . S
H5316 C5341 0.951 . S
H5317 C5343 0.950 . S
H5318 C5344 0.950 . S
H5319 C5346 0.950 . S
H5320 C5349 0.950 . S
H5321 C5350 0.950 . S
H5322 C5352 0.950 . S
H5323 C5353 0.950 . S
C5324 H5306 0.951 . S
C5324 C5325 1.366 . S
C5324 C5326 1.388 . S
C5325 C5324 1.366 . S
C5325 C5329 1.385 . S
C5326 H5307 0.951 . S
C5326 C5324 1.388 . S
C5326 C5327 1.366 . S
C5327 C5326 1.366 . S
C5327 C5328 1.414 . S
C5327 C5330 1.499 . S
C5328 H5308 0.950 . S
C5328 C5327 1.414 . S
C5328 C5329 1.374 . S
C5329 H5309 0.950 . S
C5329 C5325 1.385 . S
C5329 C5328 1.374 . S
C5330 C5327 1.499 . S
C5330 C5331 1.373 . S
C5330 C5332 1.389 . S
C5331 H5310 0.950 . S
C5331 C5330 1.373 . S
C5331 C5347 1.377 . S
C5332 C5330 1.389 . S
C5332 C5333 1.524 . S
C5332 C5346 1.377 . S
C5333 C5332 1.524 . S
C5333 C5334 1.397 . S
C5333 C5338 1.363 . S
C5334 H5311 0.950 . S
C5334 C5333 1.397 . S
C5334 C5335 1.334 . S
C5335 H5312 0.950 . S
C5335 C5334 1.334 . S
C5335 C5336 1.287 . S
C5336 C5335 1.287 . S
C5336 C5337 1.524 . S
C5336 H5355 0.913 . S
C5337 H5313 0.950 . S
C5337 C5336 1.524 . S
C5337 C5338 1.415 . S
C5338 H5314 0.950 . S
C5338 C5333 1.363 . S
C5338 C5337 1.415 . S
C5339 H5315 0.951 . S
C5339 C5340 1.366 . S
C5339 C5341 1.388 . S
C5340 C5339 1.366 . S
C5340 C5344 1.385 . S
C5341 H5316 0.951 . S
C5341 C5339 1.388 . S
C5341 C5342 1.366 . S
C5342 C5341 1.366 . S
C5342 C5343 1.414 . S
C5342 C5345 1.499 . S
C5343 H5317 0.950 . S
C5343 C5342 1.414 . S
C5343 C5344 1.374 . S
C5344 H5318 0.950 . S
C5344 C5340 1.385 . S
C5344 C5343 1.374 . S
C5345 C5342 1.499 . S
C5345 C5346 1.373 . S
C5345 C5347 1.389 . S
C5346 H5319 0.950 . S
C5346 C5332 1.377 . S
C5346 C5345 1.373 . S
C5347 C5331 1.377 . S
C5347 C5345 1.389 . S
C5347 C5348 1.524 . S
C5348 C5347 1.524 . S
C5348 C5349 1.397 . S
C5348 C5353 1.363 . S
C5349 H5320 0.950 . S
C5349 C5348 1.397 . S
C5349 C5350 1.334 . S
C5350 H5321 0.950 . S
C5350 C5349 1.334 . S
C5350 C5351 1.287 . S
C5351 C5350 1.287 . S
C5351 C5352 1.524 . S
C5351 H5354 0.999 . S
C5352 H5322 0.950 . S
C5352 C5351 1.524 . S
C5352 C5353 1.415 . S
C5353 H5323 0.950 . S
C5353 C5348 1.363 . S
C5353 C5352 1.415 . S
H5354 C5351 0.999 . S
H5355 C5336 0.913 . S
H5356 C5374 0.951 . S
H5357 C5376 0.951 . S
H5358 C5378 0.950 . S
H5359 C5379 0.950 . S
H5360 C5381 0.950 . S
H5361 C5384 0.950 . S
H5362 C5385 0.950 . S
H5363 C5387 0.950 . S
H5364 C5388 0.950 . S
H5365 C5389 0.951 . S
H5366 C5391 0.951 . S
H5367 C5393 0.950 . S
H5368 C5394 0.950 . S
H5369 C5396 0.950 . S
H5370 C5399 0.950 . S
H5371 C5400 0.950 . S
H5372 C5402 0.950 . S
H5373 C5403 0.950 . S
C5374 H5356 0.951 . S
C5374 C5375 1.366 . S
C5374 C5376 1.388 . S
C5375 C5374 1.366 . S
C5375 C5379 1.385 . S
C5376 H5357 0.951 . S
C5376 C5374 1.388 . S
C5376 C5377 1.366 . S
C5377 C5376 1.366 . S
C5377 C5378 1.414 . S
C5377 C5380 1.499 . S
C5378 H5358 0.950 . S
C5378 C5377 1.414 . S
C5378 C5379 1.374 . S
C5379 H5359 0.950 . S
C5379 C5375 1.385 . S
C5379 C5378 1.374 . S
C5380 C5377 1.499 . S
C5380 C5381 1.373 . S
C5380 C5382 1.389 . S
C5381 H5360 0.950 . S
C5381 C5380 1.373 . S
C5381 C5397 1.377 . S
C5382 C5380 1.389 . S
C5382 C5383 1.524 . S
C5382 C5396 1.377 . S
C5383 C5382 1.524 . S
C5383 C5384 1.397 . S
C5383 C5388 1.363 . S
C5384 H5361 0.950 . S
C5384 C5383 1.397 . S
C5384 C5385 1.334 1_455 S
C5385 H5362 0.950 . S
C5385 C5384 1.334 1_655 S
C5385 C5386 1.287 . S
C5386 C5385 1.287 . S
C5386 C5387 1.524 1_654 S
C5386 H5405 0.926 . S
C5387 H5363 0.950 . S
C5387 C5386 1.524 1_456 S
C5387 C5388 1.415 1_556 S
C5388 H5364 0.950 . S
C5388 C5383 1.363 . S
C5388 C5387 1.415 1_554 S
C5389 H5365 0.951 . S
C5389 C5390 1.366 . S
C5389 C5391 1.388 . S
C5390 C5389 1.366 . S
C5390 C5394 1.385 . S
C5391 H5366 0.951 . S
C5391 C5389 1.388 . S
C5391 C5392 1.366 . S
C5392 C5391 1.366 . S
C5392 C5393 1.414 . S
C5392 C5395 1.499 . S
C5393 H5367 0.950 . S
C5393 C5392 1.414 . S
C5393 C5394 1.374 . S
C5394 H5368 0.950 . S
C5394 C5390 1.385 . S
C5394 C5393 1.374 . S
C5395 C5392 1.499 . S
C5395 C5396 1.373 . S
C5395 C5397 1.389 . S
C5396 H5369 0.950 . S
C5396 C5382 1.377 . S
C5396 C5395 1.373 . S
C5397 C5381 1.377 . S
C5397 C5395 1.389 . S
C5397 C5398 1.524 . S
C5398 C5397 1.524 . S
C5398 C5399 1.397 . S
C5398 C5403 1.363 . S
C5399 H5370 0.950 . S
C5399 C5398 1.397 . S
C5399 C5400 1.334 . S
C5400 H5371 0.950 . S
C5400 C5399 1.334 . S
C5400 C5401 1.287 . S
C5401 C5400 1.287 . S
C5401 C5402 1.524 . S
C5401 H5404 0.999 . S
C5402 H5372 0.950 . S
C5402 C5401 1.524 . S
C5402 C5403 1.415 . S
C5403 H5373 0.950 . S
C5403 C5398 1.363 . S
C5403 C5402 1.415 . S
H5404 C5401 0.999 . S
H5405 C5386 0.926 . S
H5406 C5424 0.951 . S
H5407 C5426 0.951 . S
H5408 C5428 0.950 . S
H5409 C5429 0.950 . S
H5410 C5431 0.950 . S
H5411 C5434 0.950 . S
H5412 C5435 0.950 . S
H5413 C5437 0.950 . S
H5414 C5438 0.950 . S
H5415 C5439 0.951 . S
H5416 C5441 0.951 . S
H5417 C5443 0.950 . S
H5418 C5444 0.950 . S
H5419 C5446 0.950 . S
H5420 C5449 0.950 . S
H5421 C5450 0.950 . S
H5422 C5452 0.950 . S
H5423 C5453 0.950 . S
C5424 H5406 0.951 . S
C5424 C5425 1.366 . S
C5424 C5426 1.388 . S
C5425 C5424 1.366 . S
C5425 C5429 1.385 . S
C5426 H5407 0.951 . S
C5426 C5424 1.388 . S
C5426 C5427 1.366 . S
C5427 C5426 1.366 . S
C5427 C5428 1.414 . S
C5427 C5430 1.499 . S
C5428 H5408 0.950 . S
C5428 C5427 1.414 . S
C5428 C5429 1.374 . S
C5429 H5409 0.950 . S
C5429 C5425 1.385 . S
C5429 C5428 1.374 . S
C5430 C5427 1.499 . S
C5430 C5431 1.373 . S
C5430 C5432 1.389 . S
C5431 H5410 0.950 . S
C5431 C5430 1.373 . S
C5431 C5447 1.377 . S
C5432 C5430 1.389 . S
C5432 C5433 1.524 . S
C5432 C5446 1.377 . S
C5433 C5432 1.524 . S
C5433 C5434 1.397 . S
C5433 C5438 1.363 . S
C5434 H5411 0.950 . S
C5434 C5433 1.397 . S
C5434 C5435 1.334 . S
C5435 H5412 0.950 . S
C5435 C5434 1.334 . S
C5435 C5436 1.287 . S
C5436 C5435 1.287 . S
C5436 C5437 1.524 . S
C5436 H5455 0.913 . S
C5437 H5413 0.950 . S
C5437 C5436 1.524 . S
C5437 C5438 1.415 . S
C5438 H5414 0.950 . S
C5438 C5433 1.363 . S
C5438 C5437 1.415 . S
C5439 H5415 0.951 . S
C5439 C5440 1.366 . S
C5439 C5441 1.388 . S
C5440 C5439 1.366 . S
C5440 C5444 1.385 . S
C5441 H5416 0.951 . S
C5441 C5439 1.388 . S
C5441 C5442 1.366 . S
C5442 C5441 1.366 . S
C5442 C5443 1.414 . S
C5442 C5445 1.499 . S
C5443 H5417 0.950 . S
C5443 C5442 1.414 . S
C5443 C5444 1.374 . S
C5444 H5418 0.950 . S
C5444 C5440 1.385 . S
C5444 C5443 1.374 . S
C5445 C5442 1.499 . S
C5445 C5446 1.373 . S
C5445 C5447 1.389 . S
C5446 H5419 0.950 . S
C5446 C5432 1.377 . S
C5446 C5445 1.373 . S
C5447 C5431 1.377 . S
C5447 C5445 1.389 . S
C5447 C5448 1.524 . S
C5448 C5447 1.524 . S
C5448 C5449 1.397 . S
C5448 C5453 1.363 . S
C5449 H5420 0.950 . S
C5449 C5448 1.397 . S
C5449 C5450 1.334 . S
C5450 H5421 0.950 . S
C5450 C5449 1.334 . S
C5450 C5451 1.287 . S
C5451 C5450 1.287 . S
C5451 C5452 1.524 . S
C5451 H5454 0.999 . S
C5452 H5422 0.950 . S
C5452 C5451 1.524 . S
C5452 C5453 1.415 . S
C5453 H5423 0.950 . S
C5453 C5448 1.363 . S
C5453 C5452 1.415 . S
H5454 C5451 0.999 . S
H5455 C5436 0.913 . S
H5456 C5474 0.951 . S
H5457 C5476 0.951 . S
H5458 C5478 0.950 . S
H5459 C5479 0.950 . S
H5460 C5481 0.950 . S
H5461 C5484 0.950 . S
H5462 C5485 0.950 . S
H5463 C5487 0.950 . S
H5464 C5488 0.950 . S
H5465 C5489 0.951 . S
H5466 C5491 0.951 . S
H5467 C5493 0.950 . S
H5468 C5494 0.950 . S
H5469 C5496 0.950 . S
H5470 C5499 0.950 . S
H5471 C5500 0.950 . S
H5472 C5502 0.950 . S
H5473 C5503 0.950 . S
C5474 H5456 0.951 . S
C5474 C5475 1.366 . S
C5474 C5476 1.388 . S
C5475 C5474 1.366 . S
C5475 C5479 1.385 . S
C5476 H5457 0.951 . S
C5476 C5474 1.388 . S
C5476 C5477 1.366 . S
C5477 C5476 1.366 . S
C5477 C5478 1.414 . S
C5477 C5480 1.499 . S
C5478 H5458 0.950 . S
C5478 C5477 1.414 . S
C5478 C5479 1.374 . S
C5479 H5459 0.950 . S
C5479 C5475 1.385 . S
C5479 C5478 1.374 . S
C5480 C5477 1.499 . S
C5480 C5481 1.373 . S
C5480 C5482 1.389 . S
C5481 H5460 0.950 . S
C5481 C5480 1.373 . S
C5481 C5497 1.377 . S
C5482 C5480 1.389 . S
C5482 C5483 1.524 . S
C5482 C5496 1.377 . S
C5483 C5482 1.524 . S
C5483 C5484 1.397 . S
C5483 C5488 1.363 . S
C5484 H5461 0.950 . S
C5484 C5483 1.397 . S
C5484 C5485 1.334 . S
C5485 H5462 0.950 . S
C5485 C5484 1.334 . S
C5485 C5486 1.287 . S
C5486 C5485 1.287 . S
C5486 C5487 1.524 . S
C5486 H5505 0.913 . S
C5487 H5463 0.950 . S
C5487 C5486 1.524 . S
C5487 C5488 1.415 . S
C5488 H5464 0.950 . S
C5488 C5483 1.363 . S
C5488 C5487 1.415 . S
C5489 H5465 0.951 . S
C5489 C5490 1.366 . S
C5489 C5491 1.388 . S
C5490 C5489 1.366 . S
C5490 C5494 1.385 . S
C5491 H5466 0.951 . S
C5491 C5489 1.388 . S
C5491 C5492 1.366 . S
C5492 C5491 1.366 . S
C5492 C5493 1.414 . S
C5492 C5495 1.499 . S
C5493 H5467 0.950 . S
C5493 C5492 1.414 . S
C5493 C5494 1.374 . S
C5494 H5468 0.950 . S
C5494 C5490 1.385 . S
C5494 C5493 1.374 . S
C5495 C5492 1.499 . S
C5495 C5496 1.373 . S
C5495 C5497 1.389 . S
C5496 H5469 0.950 . S
C5496 C5482 1.377 . S
C5496 C5495 1.373 . S
C5497 C5481 1.377 . S
C5497 C5495 1.389 . S
C5497 C5498 1.524 . S
C5498 C5497 1.524 . S
C5498 C5499 1.397 . S
C5498 C5503 1.363 . S
C5499 H5470 0.950 . S
C5499 C5498 1.397 . S
C5499 C5500 1.334 . S
C5500 H5471 0.950 . S
C5500 C5499 1.334 . S
C5500 C5501 1.287 . S
C5501 C5500 1.287 . S
C5501 C5502 1.524 . S
C5501 H5504 0.999 . S
C5502 H5472 0.950 . S
C5502 C5501 1.524 . S
C5502 C5503 1.415 . S
C5503 H5473 0.950 . S
C5503 C5498 1.363 . S
C5503 C5502 1.415 . S
H5504 C5501 0.999 . S
H5505 C5486 0.913 . S
H5506 C5524 0.951 . S
H5507 C5526 0.951 . S
H5508 C5528 0.950 . S
H5509 C5529 0.950 . S
H5510 C5531 0.950 . S
H5511 C5534 0.950 . S
H5512 C5535 0.950 . S
H5513 C5537 0.950 . S
H5514 C5538 0.950 . S
H5515 C5539 0.951 . S
H5516 C5541 0.951 . S
H5517 C5543 0.950 . S
H5518 C5544 0.950 . S
H5519 C5546 0.950 . S
H5520 C5549 0.950 . S
H5521 C5550 0.950 . S
H5522 C5552 0.950 . S
H5523 C5553 0.950 . S
C5524 H5506 0.951 . S
C5524 C5525 1.366 . S
C5524 C5526 1.388 . S
C5525 C5524 1.366 . S
C5525 C5529 1.385 . S
C5526 H5507 0.951 . S
C5526 C5524 1.388 . S
C5526 C5527 1.366 . S
C5527 C5526 1.366 . S
C5527 C5528 1.414 . S
C5527 C5530 1.499 . S
C5528 H5508 0.950 . S
C5528 C5527 1.414 . S
C5528 C5529 1.374 . S
C5529 H5509 0.950 . S
C5529 C5525 1.385 . S
C5529 C5528 1.374 . S
C5530 C5527 1.499 . S
C5530 C5531 1.373 . S
C5530 C5532 1.389 . S
C5531 H5510 0.950 . S
C5531 C5530 1.373 . S
C5531 C5547 1.377 . S
C5532 C5530 1.389 . S
C5532 C5533 1.524 . S
C5532 C5546 1.377 . S
C5533 C5532 1.524 . S
C5533 C5534 1.397 . S
C5533 C5538 1.363 . S
C5534 H5511 0.950 . S
C5534 C5533 1.397 . S
C5534 C5535 1.334 . S
C5535 H5512 0.950 . S
C5535 C5534 1.334 . S
C5535 C5536 1.287 . S
C5536 C5535 1.287 . S
C5536 C5537 1.524 . S
C5536 H5555 0.913 . S
C5537 H5513 0.950 . S
C5537 C5536 1.524 . S
C5537 C5538 1.415 . S
C5538 H5514 0.950 . S
C5538 C5533 1.363 . S
C5538 C5537 1.415 . S
C5539 H5515 0.951 . S
C5539 C5540 1.366 . S
C5539 C5541 1.388 . S
C5540 C5539 1.366 . S
C5540 C5544 1.385 . S
C5541 H5516 0.951 . S
C5541 C5539 1.388 . S
C5541 C5542 1.366 . S
C5542 C5541 1.366 . S
C5542 C5543 1.414 . S
C5542 C5545 1.499 . S
C5543 H5517 0.950 . S
C5543 C5542 1.414 . S
C5543 C5544 1.374 . S
C5544 H5518 0.950 . S
C5544 C5540 1.385 . S
C5544 C5543 1.374 . S
C5545 C5542 1.499 . S
C5545 C5546 1.373 . S
C5545 C5547 1.389 . S
C5546 H5519 0.950 . S
C5546 C5532 1.377 . S
C5546 C5545 1.373 . S
C5547 C5531 1.377 . S
C5547 C5545 1.389 . S
C5547 C5548 1.524 . S
C5548 C5547 1.524 . S
C5548 C5549 1.397 . S
C5548 C5553 1.363 . S
C5549 H5520 0.950 . S
C5549 C5548 1.397 . S
C5549 C5550 1.334 . S
C5550 H5521 0.950 . S
C5550 C5549 1.334 . S
C5550 C5551 1.287 . S
C5551 C5550 1.287 . S
C5551 C5552 1.524 . S
C5551 H5554 0.999 . S
C5552 H5522 0.950 . S
C5552 C5551 1.524 . S
C5552 C5553 1.415 . S
C5553 H5523 0.950 . S
C5553 C5548 1.363 . S
C5553 C5552 1.415 . S
H5554 C5551 0.999 . S
H5555 C5536 0.913 . S
H5556 C5574 0.951 . S
H5557 C5576 0.951 . S
H5558 C5578 0.950 . S
H5559 C5579 0.950 . S
H5560 C5581 0.950 . S
H5561 C5584 0.950 . S
H5562 C5585 0.950 . S
H5563 C5587 0.950 . S
H5564 C5588 0.950 . S
H5565 C5589 0.951 . S
H5566 C5591 0.951 . S
H5567 C5593 0.950 . S
H5568 C5594 0.950 . S
H5569 C5596 0.950 . S
H5570 C5599 0.946 . S
H5571 C5600 0.950 . S
H5572 C5602 0.950 . S
H5573 C5603 0.950 . S
C5574 H5556 0.951 . S
C5574 C5575 1.366 . S
C5574 C5576 1.388 . S
C5575 C5574 1.366 . S
C5575 C5579 1.385 . S
C5576 H5557 0.951 . S
C5576 C5574 1.388 . S
C5576 C5577 1.366 . S
C5577 C5576 1.366 . S
C5577 C5578 1.414 . S
C5577 C5580 1.499 . S
C5578 H5558 0.950 . S
C5578 C5577 1.414 . S
C5578 C5579 1.374 . S
C5579 H5559 0.950 . S
C5579 C5575 1.385 . S
C5579 C5578 1.374 . S
C5580 C5577 1.499 . S
C5580 C5581 1.373 . S
C5580 C5582 1.389 . S
C5581 H5560 0.950 . S
C5581 C5580 1.373 . S
C5581 C5597 1.377 . S
C5582 C5580 1.389 . S
C5582 C5583 1.524 . S
C5582 C5596 1.377 . S
C5583 C5582 1.524 . S
C5583 C5584 1.397 . S
C5583 C5588 1.363 . S
C5584 H5561 0.950 . S
C5584 C5583 1.397 . S
C5584 C5585 1.334 . S
C5585 H5562 0.950 . S
C5585 C5584 1.334 . S
C5585 C5586 1.287 . S
C5586 C5585 1.287 . S
C5586 C5587 1.524 . S
C5586 H5605 0.913 . S
C5587 H5563 0.950 . S
C5587 C5586 1.524 . S
C5587 C5588 1.415 . S
C5588 H5564 0.950 . S
C5588 C5583 1.363 . S
C5588 C5587 1.415 . S
C5589 H5565 0.951 . S
C5589 C5590 1.366 . S
C5589 C5591 1.388 . S
C5590 C5589 1.366 . S
C5590 C5594 1.385 . S
C5591 H5566 0.951 . S
C5591 C5589 1.388 . S
C5591 C5592 1.366 . S
C5592 C5591 1.366 . S
C5592 C5593 1.414 . S
C5592 C5595 1.499 . S
C5593 H5567 0.950 . S
C5593 C5592 1.414 . S
C5593 C5594 1.374 . S
C5594 H5568 0.950 . S
C5594 C5590 1.385 . S
C5594 C5593 1.374 . S
C5595 C5592 1.499 . S
C5595 C5596 1.373 . S
C5595 C5597 1.389 . S
C5596 H5569 0.950 . S
C5596 C5582 1.377 . S
C5596 C5595 1.373 . S
C5597 C5581 1.377 . S
C5597 C5595 1.389 . S
C5597 C5598 1.556 . S
C5598 C5597 1.556 . S
C5598 C5599 1.380 1_455 S
C5598 C5603 1.349 1_455 S
C5599 H5570 0.946 . S
C5599 C5598 1.380 1_655 S
C5599 C5600 1.334 . S
C5600 H5571 0.950 . S
C5600 C5599 1.334 . S
C5600 C5601 1.287 . S
C5601 C5600 1.287 . S
C5601 C5602 1.524 . S
C5601 H5604 0.999 . S
C5602 H5572 0.950 . S
C5602 C5601 1.524 . S
C5602 C5603 1.415 . S
C5603 H5573 0.950 . S
C5603 C5598 1.349 1_655 S
C5603 C5602 1.415 . S
H5604 C5601 0.999 . S
H5605 C5586 0.913 . S
H5606 C5624 0.951 . S
H5607 C5626 0.951 . S
H5608 C5628 0.950 . S
H5609 C5629 0.950 . S
H5610 C5631 0.950 . S
H5611 C5634 0.950 . S
H5612 C5635 0.950 . S
H5613 C5637 0.950 . S
H5614 C5638 0.950 . S
H5615 C5639 0.951 . S
H5616 C5641 0.951 . S
H5617 C5643 0.950 . S
H5618 C5644 0.950 . S
H5619 C5646 0.950 . S
H5620 C5649 0.950 . S
H5621 C5650 0.950 . S
H5622 C5652 0.950 . S
H5623 C5653 0.950 . S
C5624 H5606 0.951 . S
C5624 C5625 1.366 . S
C5624 C5626 1.388 . S
C5625 C5624 1.366 . S
C5625 C5629 1.385 . S
C5626 H5607 0.951 . S
C5626 C5624 1.388 . S
C5626 C5627 1.366 . S
C5627 C5626 1.366 . S
C5627 C5628 1.414 . S
C5627 C5630 1.499 . S
C5628 H5608 0.950 . S
C5628 C5627 1.414 . S
C5628 C5629 1.374 . S
C5629 H5609 0.950 . S
C5629 C5625 1.385 . S
C5629 C5628 1.374 . S
C5630 C5627 1.499 . S
C5630 C5631 1.373 . S
C5630 C5632 1.389 . S
C5631 H5610 0.950 . S
C5631 C5630 1.373 . S
C5631 C5647 1.377 . S
C5632 C5630 1.389 . S
C5632 C5633 1.524 . S
C5632 C5646 1.377 . S
C5633 C5632 1.524 . S
C5633 C5634 1.397 . S
C5633 C5638 1.363 . S
C5634 H5611 0.950 . S
C5634 C5633 1.397 . S
C5634 C5635 1.334 . S
C5635 H5612 0.950 . S
C5635 C5634 1.334 . S
C5635 C5636 1.287 . S
C5636 C5635 1.287 . S
C5636 C5637 1.524 . S
C5636 H5655 0.913 . S
C5637 H5613 0.950 . S
C5637 C5636 1.524 . S
C5637 C5638 1.415 . S
C5638 H5614 0.950 . S
C5638 C5633 1.363 . S
C5638 C5637 1.415 . S
C5639 H5615 0.951 . S
C5639 C5640 1.366 . S
C5639 C5641 1.388 . S
C5640 C5639 1.366 . S
C5640 C5644 1.385 . S
C5641 H5616 0.951 . S
C5641 C5639 1.388 . S
C5641 C5642 1.366 . S
C5642 C5641 1.366 . S
C5642 C5643 1.414 . S
C5642 C5645 1.499 . S
C5643 H5617 0.950 . S
C5643 C5642 1.414 . S
C5643 C5644 1.374 . S
C5644 H5618 0.950 . S
C5644 C5640 1.385 . S
C5644 C5643 1.374 . S
C5645 C5642 1.499 . S
C5645 C5646 1.373 . S
C5645 C5647 1.389 . S
C5646 H5619 0.950 . S
C5646 C5632 1.377 . S
C5646 C5645 1.373 . S
C5647 C5631 1.377 . S
C5647 C5645 1.389 . S
C5647 C5648 1.524 . S
C5648 C5647 1.524 . S
C5648 C5649 1.397 . S
C5648 C5653 1.363 . S
C5649 H5620 0.950 . S
C5649 C5648 1.397 . S
C5649 C5650 1.334 . S
C5650 H5621 0.950 . S
C5650 C5649 1.334 . S
C5650 C5651 1.287 . S
C5651 C5650 1.287 . S
C5651 C5652 1.524 . S
C5651 H5654 0.999 . S
C5652 H5622 0.950 . S
C5652 C5651 1.524 . S
C5652 C5653 1.415 . S
C5653 H5623 0.950 . S
C5653 C5648 1.363 . S
C5653 C5652 1.415 . S
H5654 C5651 0.999 . S
H5655 C5636 0.913 . S
H5656 C5674 0.951 . S
H5657 C5676 0.951 . S
H5658 C5678 0.950 . S
H5659 C5679 0.950 . S
H5660 C5681 0.950 . S
H5661 C5684 0.950 . S
H5662 C5685 0.950 . S
H5663 C5687 0.950 . S
H5664 C5688 0.950 . S
H5665 C5689 0.951 . S
H5666 C5691 0.951 . S
H5667 C5693 0.950 . S
H5668 C5694 0.950 . S
H5669 C5696 0.950 . S
H5670 C5699 0.950 . S
H5671 C5700 0.950 . S
H5672 C5702 0.950 . S
H5673 C5703 0.950 . S
C5674 H5656 0.951 . S
C5674 C5675 1.366 . S
C5674 C5676 1.388 . S
C5675 C5674 1.366 . S
C5675 C5679 1.385 . S
C5676 H5657 0.951 . S
C5676 C5674 1.388 . S
C5676 C5677 1.366 . S
C5677 C5676 1.366 . S
C5677 C5678 1.414 . S
C5677 C5680 1.499 . S
C5678 H5658 0.950 . S
C5678 C5677 1.414 . S
C5678 C5679 1.374 . S
C5679 H5659 0.950 . S
C5679 C5675 1.385 . S
C5679 C5678 1.374 . S
C5680 C5677 1.499 . S
C5680 C5681 1.373 . S
C5680 C5682 1.389 . S
C5681 H5660 0.950 . S
C5681 C5680 1.373 . S
C5681 C5697 1.377 . S
C5682 C5680 1.389 . S
C5682 C5683 1.524 . S
C5682 C5696 1.377 . S
C5683 C5682 1.524 . S
C5683 C5684 1.397 . S
C5683 C5688 1.363 . S
C5684 H5661 0.950 . S
C5684 C5683 1.397 . S
C5684 C5685 1.334 . S
C5685 H5662 0.950 . S
C5685 C5684 1.334 . S
C5685 C5686 1.287 . S
C5686 C5685 1.287 . S
C5686 C5687 1.524 . S
C5686 H5705 0.913 . S
C5687 H5663 0.950 . S
C5687 C5686 1.524 . S
C5687 C5688 1.415 . S
C5688 H5664 0.950 . S
C5688 C5683 1.363 . S
C5688 C5687 1.415 . S
C5689 H5665 0.951 . S
C5689 C5690 1.366 . S
C5689 C5691 1.388 . S
C5690 C5689 1.366 . S
C5690 C5694 1.385 . S
C5691 H5666 0.951 . S
C5691 C5689 1.388 . S
C5691 C5692 1.366 . S
C5692 C5691 1.366 . S
C5692 C5693 1.414 . S
C5692 C5695 1.499 . S
C5693 H5667 0.950 . S
C5693 C5692 1.414 . S
C5693 C5694 1.374 . S
C5694 H5668 0.950 . S
C5694 C5690 1.385 . S
C5694 C5693 1.374 . S
C5695 C5692 1.499 . S
C5695 C5696 1.373 . S
C5695 C5697 1.389 . S
C5696 H5669 0.950 . S
C5696 C5682 1.377 . S
C5696 C5695 1.373 . S
C5697 C5681 1.377 . S
C5697 C5695 1.389 . S
C5697 C5698 1.524 . S
C5698 C5697 1.524 . S
C5698 C5699 1.397 . S
C5698 C5703 1.363 . S
C5699 H5670 0.950 . S
C5699 C5698 1.397 . S
C5699 C5700 1.334 . S
C5700 H5671 0.950 . S
C5700 C5699 1.334 . S
C5700 C5701 1.287 . S
C5701 C5700 1.287 . S
C5701 C5702 1.524 . S
C5701 H5704 0.999 . S
C5702 H5672 0.950 . S
C5702 C5701 1.524 . S
C5702 C5703 1.415 . S
C5703 H5673 0.950 . S
C5703 C5698 1.363 . S
C5703 C5702 1.415 . S
H5704 C5701 0.999 . S
H5705 C5686 0.913 . S
H5706 C5724 0.951 . S
H5707 C5726 0.951 . S
H5708 C5728 0.950 . S
H5709 C5729 0.950 . S
H5710 C5731 0.950 . S
H5711 C5734 0.950 . S
H5712 C5735 0.950 . S
H5713 C5737 0.950 . S
H5714 C5738 0.950 . S
H5715 C5739 0.951 . S
H5716 C5741 0.951 . S
H5717 C5743 0.950 . S
H5718 C5744 0.950 . S
H5719 C5746 0.950 . S
H5720 C5749 0.950 . S
H5721 C5750 0.950 . S
H5722 C5752 0.950 . S
H5723 C5753 0.950 . S
C5724 H5706 0.951 . S
C5724 C5725 1.366 . S
C5724 C5726 1.388 . S
C5725 C5724 1.366 . S
C5725 C5729 1.385 . S
C5726 H5707 0.951 . S
C5726 C5724 1.388 . S
C5726 C5727 1.366 . S
C5727 C5726 1.366 . S
C5727 C5728 1.414 . S
C5727 C5730 1.499 . S
C5728 H5708 0.950 . S
C5728 C5727 1.414 . S
C5728 C5729 1.374 . S
C5729 H5709 0.950 . S
C5729 C5725 1.385 . S
C5729 C5728 1.374 . S
C5730 C5727 1.499 . S
C5730 C5731 1.373 . S
C5730 C5732 1.389 . S
C5731 H5710 0.950 . S
C5731 C5730 1.373 . S
C5731 C5747 1.377 . S
C5732 C5730 1.389 . S
C5732 C5733 1.524 . S
C5732 C5746 1.377 . S
C5733 C5732 1.524 . S
C5733 C5734 1.397 . S
C5733 C5738 1.363 . S
C5734 H5711 0.950 . S
C5734 C5733 1.397 . S
C5734 C5735 1.334 . S
C5735 H5712 0.950 . S
C5735 C5734 1.334 . S
C5735 C5736 1.287 . S
C5736 C5735 1.287 . S
C5736 C5737 1.524 . S
C5736 H5755 0.913 . S
C5737 H5713 0.950 . S
C5737 C5736 1.524 . S
C5737 C5738 1.415 . S
C5738 H5714 0.950 . S
C5738 C5733 1.363 . S
C5738 C5737 1.415 . S
C5739 H5715 0.951 . S
C5739 C5740 1.366 . S
C5739 C5741 1.388 . S
C5740 C5739 1.366 . S
C5740 C5744 1.385 . S
C5741 H5716 0.951 . S
C5741 C5739 1.388 . S
C5741 C5742 1.366 . S
C5742 C5741 1.366 . S
C5742 C5743 1.414 . S
C5742 C5745 1.499 . S
C5743 H5717 0.950 . S
C5743 C5742 1.414 . S
C5743 C5744 1.374 . S
C5744 H5718 0.950 . S
C5744 C5740 1.385 . S
C5744 C5743 1.374 . S
C5745 C5742 1.499 . S
C5745 C5746 1.373 . S
C5745 C5747 1.389 . S
C5746 H5719 0.950 . S
C5746 C5732 1.377 . S
C5746 C5745 1.373 . S
C5747 C5731 1.377 . S
C5747 C5745 1.389 . S
C5747 C5748 1.524 . S
C5748 C5747 1.524 . S
C5748 C5749 1.397 . S
C5748 C5753 1.363 . S
C5749 H5720 0.950 . S
C5749 C5748 1.397 . S
C5749 C5750 1.334 . S
C5750 H5721 0.950 . S
C5750 C5749 1.334 . S
C5750 C5751 1.287 . S
C5751 C5750 1.287 . S
C5751 C5752 1.524 . S
C5751 H5754 0.999 . S
C5752 H5722 0.950 . S
C5752 C5751 1.524 . S
C5752 C5753 1.415 . S
C5753 H5723 0.950 . S
C5753 C5748 1.363 . S
C5753 C5752 1.415 . S
H5754 C5751 0.999 . S
H5755 C5736 0.913 . S
H5756 C5774 0.951 . S
H5757 C5776 0.951 . S
H5758 C5778 0.950 . S
H5759 C5779 0.950 . S
H5760 C5781 0.950 . S
H5761 C5784 0.950 . S
H5762 C5785 0.950 . S
H5763 C5787 0.950 . S
H5764 C5788 0.950 . S
H5765 C5789 0.951 . S
H5766 C5791 0.951 . S
H5767 C5793 0.956 . S
H5768 C5794 0.950 . S
H5769 C5796 0.950 . S
H5770 C5799 0.950 . S
H5771 C5800 0.950 . S
H5772 C5802 0.950 . S
H5773 C5803 0.950 . S
C5774 H5756 0.951 . S
C5774 C5775 1.366 . S
C5774 C5776 1.388 . S
C5775 C5774 1.366 . S
C5775 C5779 1.385 . S
C5776 H5757 0.951 . S
C5776 C5774 1.388 . S
C5776 C5777 1.366 . S
C5777 C5776 1.366 . S
C5777 C5778 1.414 . S
C5777 C5780 1.499 . S
C5778 H5758 0.950 . S
C5778 C5777 1.414 . S
C5778 C5779 1.374 . S
C5779 H5759 0.950 . S
C5779 C5775 1.385 . S
C5779 C5778 1.374 . S
C5780 C5777 1.499 . S
C5780 C5781 1.373 . S
C5780 C5782 1.389 . S
C5781 H5760 0.950 . S
C5781 C5780 1.373 . S
C5781 C5797 1.377 . S
C5782 C5780 1.389 . S
C5782 C5783 1.524 . S
C5782 C5796 1.377 . S
C5783 C5782 1.524 . S
C5783 C5784 1.397 . S
C5783 C5788 1.363 . S
C5784 H5761 0.950 . S
C5784 C5783 1.397 . S
C5784 C5785 1.334 . S
C5785 H5762 0.950 . S
C5785 C5784 1.334 . S
C5785 C5786 1.287 . S
C5786 C5785 1.287 . S
C5786 C5787 1.524 . S
C5786 H5805 0.913 . S
C5787 H5763 0.950 . S
C5787 C5786 1.524 . S
C5787 C5788 1.415 . S
C5788 H5764 0.950 . S
C5788 C5783 1.363 . S
C5788 C5787 1.415 . S
C5789 H5765 0.951 . S
C5789 C5790 1.315 1_655 S
C5789 C5791 1.388 . S
C5790 C5789 1.315 1_455 S
C5790 C5794 1.408 . S
C5791 H5766 0.951 . S
C5791 C5789 1.388 . S
C5791 C5792 1.366 . S
C5792 C5791 1.366 . S
C5792 C5793 1.414 . S
C5792 C5795 1.499 . S
C5793 H5767 0.956 . S
C5793 C5792 1.414 . S
C5793 C5794 1.374 1_655 S
C5794 H5768 0.950 . S
C5794 C5790 1.408 . S
C5794 C5793 1.374 1_455 S
C5795 C5792 1.499 . S
C5795 C5796 1.373 . S
C5795 C5797 1.389 . S
C5796 H5769 0.950 . S
C5796 C5782 1.377 . S
C5796 C5795 1.373 . S
C5797 C5781 1.377 . S
C5797 C5795 1.389 . S
C5797 C5798 1.524 . S
C5798 C5797 1.524 . S
C5798 C5799 1.397 . S
C5798 C5803 1.363 . S
C5799 H5770 0.950 . S
C5799 C5798 1.397 . S
C5799 C5800 1.334 . S
C5800 H5771 0.950 . S
C5800 C5799 1.334 . S
C5800 C5801 1.287 . S
C5801 C5800 1.287 . S
C5801 C5802 1.524 . S
C5801 H5804 0.999 . S
C5802 H5772 0.950 . S
C5802 C5801 1.524 . S
C5802 C5803 1.415 . S
C5803 H5773 0.950 . S
C5803 C5798 1.363 . S
C5803 C5802 1.415 . S
H5804 C5801 0.999 . S
H5805 C5786 0.913 . S
H5806 C5824 0.951 . S
H5807 C5826 0.951 . S
H5808 C5828 0.950 . S
H5809 C5829 0.950 . S
H5810 C5831 0.950 . S
H5811 C5834 0.950 . S
H5812 C5835 0.950 . S
H5813 C5837 0.950 . S
H5814 C5838 0.950 . S
H5815 C5839 0.951 . S
H5816 C5841 0.951 . S
H5817 C5843 0.950 . S
H5818 C5844 0.950 . S
H5819 C5846 0.950 . S
H5820 C5849 0.950 . S
H5821 C5850 0.950 . S
H5822 C5852 0.950 . S
H5823 C5853 0.950 . S
C5824 H5806 0.951 . S
C5824 C5825 1.366 . S
C5824 C5826 1.388 . S
C5825 C5824 1.366 . S
C5825 C5829 1.385 . S
C5826 H5807 0.951 . S
C5826 C5824 1.388 . S
C5826 C5827 1.366 . S
C5827 C5826 1.366 . S
C5827 C5828 1.414 . S
C5827 C5830 1.499 . S
C5828 H5808 0.950 . S
C5828 C5827 1.414 . S
C5828 C5829 1.374 . S
C5829 H5809 0.950 . S
C5829 C5825 1.385 . S
C5829 C5828 1.374 . S
C5830 C5827 1.499 . S
C5830 C5831 1.373 . S
C5830 C5832 1.389 . S
C5831 H5810 0.950 . S
C5831 C5830 1.373 . S
C5831 C5847 1.377 . S
C5832 C5830 1.389 . S
C5832 C5833 1.524 . S
C5832 C5846 1.377 . S
C5833 C5832 1.524 . S
C5833 C5834 1.397 . S
C5833 C5838 1.363 . S
C5834 H5811 0.950 . S
C5834 C5833 1.397 . S
C5834 C5835 1.334 . S
C5835 H5812 0.950 . S
C5835 C5834 1.334 . S
C5835 C5836 1.287 . S
C5836 C5835 1.287 . S
C5836 C5837 1.524 . S
C5836 H5855 0.913 . S
C5837 H5813 0.950 . S
C5837 C5836 1.524 . S
C5837 C5838 1.415 . S
C5838 H5814 0.950 . S
C5838 C5833 1.363 . S
C5838 C5837 1.415 . S
C5839 H5815 0.951 . S
C5839 C5840 1.366 . S
C5839 C5841 1.388 . S
C5840 C5839 1.366 . S
C5840 C5844 1.385 . S
C5841 H5816 0.951 . S
C5841 C5839 1.388 . S
C5841 C5842 1.366 . S
C5842 C5841 1.366 . S
C5842 C5843 1.414 . S
C5842 C5845 1.499 . S
C5843 H5817 0.950 . S
C5843 C5842 1.414 . S
C5843 C5844 1.374 . S
C5844 H5818 0.950 . S
C5844 C5840 1.385 . S
C5844 C5843 1.374 . S
C5845 C5842 1.499 . S
C5845 C5846 1.373 . S
C5845 C5847 1.389 . S
C5846 H5819 0.950 . S
C5846 C5832 1.377 . S
C5846 C5845 1.373 . S
C5847 C5831 1.377 . S
C5847 C5845 1.389 . S
C5847 C5848 1.524 . S
C5848 C5847 1.524 . S
C5848 C5849 1.397 . S
C5848 C5853 1.363 . S
C5849 H5820 0.950 . S
C5849 C5848 1.397 . S
C5849 C5850 1.334 . S
C5850 H5821 0.950 . S
C5850 C5849 1.334 . S
C5850 C5851 1.287 . S
C5851 C5850 1.287 . S
C5851 C5852 1.524 . S
C5851 H5854 0.999 . S
C5852 H5822 0.950 . S
C5852 C5851 1.524 . S
C5852 C5853 1.415 . S
C5853 H5823 0.950 . S
C5853 C5848 1.363 . S
C5853 C5852 1.415 . S
H5854 C5851 0.999 . S
H5855 C5836 0.913 . S
H5856 C5874 0.951 . S
H5857 C5876 0.951 . S
H5858 C5878 0.950 . S
H5859 C5879 0.950 . S
H5860 C5881 0.950 . S
H5861 C5884 0.950 . S
H5862 C5885 0.950 . S
H5863 C5887 0.950 . S
H5864 C5888 0.950 . S
H5865 C5889 0.951 . S
H5866 C5891 0.951 . S
H5867 C5893 0.950 . S
H5868 C5894 0.950 . S
H5869 C5896 0.950 . S
H5870 C5899 0.950 . S
H5871 C5900 0.950 . S
H5872 C5902 0.950 . S
H5873 C5903 0.950 . S
C5874 H5856 0.951 . S
C5874 C5875 1.366 . S
C5874 C5876 1.388 . S
C5875 C5874 1.366 . S
C5875 C5879 1.385 . S
C5876 H5857 0.951 . S
C5876 C5874 1.388 . S
C5876 C5877 1.366 . S
C5877 C5876 1.366 . S
C5877 C5878 1.414 . S
C5877 C5880 1.499 . S
C5878 H5858 0.950 . S
C5878 C5877 1.414 . S
C5878 C5879 1.374 . S
C5879 H5859 0.950 . S
C5879 C5875 1.385 . S
C5879 C5878 1.374 . S
C5880 C5877 1.499 . S
C5880 C5881 1.373 . S
C5880 C5882 1.389 . S
C5881 H5860 0.950 . S
C5881 C5880 1.373 . S
C5881 C5897 1.377 . S
C5882 C5880 1.389 . S
C5882 C5883 1.524 . S
C5882 C5896 1.377 . S
C5883 C5882 1.524 . S
C5883 C5884 1.397 . S
C5883 C5888 1.363 . S
C5884 H5861 0.950 . S
C5884 C5883 1.397 . S
C5884 C5885 1.334 . S
C5885 H5862 0.950 . S
C5885 C5884 1.334 . S
C5885 C5886 1.287 . S
C5886 C5885 1.287 . S
C5886 C5887 1.524 . S
C5886 H5905 0.913 . S
C5887 H5863 0.950 . S
C5887 C5886 1.524 . S
C5887 C5888 1.415 . S
C5888 H5864 0.950 . S
C5888 C5883 1.363 . S
C5888 C5887 1.415 . S
C5889 H5865 0.951 . S
C5889 C5890 1.366 . S
C5889 C5891 1.388 . S
C5890 C5889 1.366 . S
C5890 C5894 1.385 . S
C5891 H5866 0.951 . S
C5891 C5889 1.388 . S
C5891 C5892 1.366 . S
C5892 C5891 1.366 . S
C5892 C5893 1.414 . S
C5892 C5895 1.499 . S
C5893 H5867 0.950 . S
C5893 C5892 1.414 . S
C5893 C5894 1.374 . S
C5894 H5868 0.950 . S
C5894 C5890 1.385 . S
C5894 C5893 1.374 . S
C5895 C5892 1.499 . S
C5895 C5896 1.373 . S
C5895 C5897 1.389 . S
C5896 H5869 0.950 . S
C5896 C5882 1.377 . S
C5896 C5895 1.373 . S
C5897 C5881 1.377 . S
C5897 C5895 1.389 . S
C5897 C5898 1.524 . S
C5898 C5897 1.524 . S
C5898 C5899 1.397 . S
C5898 C5903 1.363 . S
C5899 H5870 0.950 . S
C5899 C5898 1.397 . S
C5899 C5900 1.334 . S
C5900 H5871 0.950 . S
C5900 C5899 1.334 . S
C5900 C5901 1.287 . S
C5901 C5900 1.287 . S
C5901 C5902 1.524 . S
C5901 H5904 0.999 . S
C5902 H5872 0.950 . S
C5902 C5901 1.524 . S
C5902 C5903 1.415 . S
C5903 H5873 0.950 . S
C5903 C5898 1.363 . S
C5903 C5902 1.415 . S
H5904 C5901 0.999 . S
H5905 C5886 0.913 . S
H5906 C5924 0.951 . S
H5907 C5926 0.951 . S
H5908 C5928 0.950 . S
H5909 C5929 0.950 . S
H5910 C5931 0.950 . S
H5911 C5934 0.950 . S
H5912 C5935 0.950 . S
H5913 C5937 0.950 . S
H5914 C5938 0.950 . S
H5915 C5939 0.951 . S
H5916 C5941 0.951 . S
H5917 C5943 0.950 . S
H5918 C5944 0.950 . S
H5919 C5946 0.950 . S
H5920 C5949 0.950 . S
H5921 C5950 0.950 . S
H5922 C5952 0.950 . S
H5923 C5953 0.950 . S
C5924 H5906 0.951 . S
C5924 C5925 1.366 . S
C5924 C5926 1.388 . S
C5925 C5924 1.366 . S
C5925 C5929 1.385 . S
C5926 H5907 0.951 . S
C5926 C5924 1.388 . S
C5926 C5927 1.366 . S
C5927 C5926 1.366 . S
C5927 C5928 1.414 . S
C5927 C5930 1.499 . S
C5928 H5908 0.950 . S
C5928 C5927 1.414 . S
C5928 C5929 1.374 . S
C5929 H5909 0.950 . S
C5929 C5925 1.385 . S
C5929 C5928 1.374 . S
C5930 C5927 1.499 . S
C5930 C5931 1.373 . S
C5930 C5932 1.389 . S
C5931 H5910 0.950 . S
C5931 C5930 1.373 . S
C5931 C5947 1.377 . S
C5932 C5930 1.389 . S
C5932 C5933 1.524 . S
C5932 C5946 1.377 . S
C5933 C5932 1.524 . S
C5933 C5934 1.397 . S
C5933 C5938 1.363 . S
C5934 H5911 0.950 . S
C5934 C5933 1.397 . S
C5934 C5935 1.334 . S
C5935 H5912 0.950 . S
C5935 C5934 1.334 . S
C5935 C5936 1.287 . S
C5936 C5935 1.287 . S
C5936 C5937 1.524 . S
C5936 H5955 0.913 . S
C5937 H5913 0.950 . S
C5937 C5936 1.524 . S
C5937 C5938 1.415 . S
C5938 H5914 0.950 . S
C5938 C5933 1.363 . S
C5938 C5937 1.415 . S
C5939 H5915 0.951 . S
C5939 C5940 1.366 . S
C5939 C5941 1.388 . S
C5940 C5939 1.366 . S
C5940 C5944 1.385 . S
C5941 H5916 0.951 . S
C5941 C5939 1.388 . S
C5941 C5942 1.366 . S
C5942 C5941 1.366 . S
C5942 C5943 1.414 . S
C5942 C5945 1.499 . S
C5943 H5917 0.950 . S
C5943 C5942 1.414 . S
C5943 C5944 1.374 . S
C5944 H5918 0.950 . S
C5944 C5940 1.385 . S
C5944 C5943 1.374 . S
C5945 C5942 1.499 . S
C5945 C5946 1.373 . S
C5945 C5947 1.389 . S
C5946 H5919 0.950 . S
C5946 C5932 1.377 . S
C5946 C5945 1.373 . S
C5947 C5931 1.377 . S
C5947 C5945 1.389 . S
C5947 C5948 1.524 . S
C5948 C5947 1.524 . S
C5948 C5949 1.397 . S
C5948 C5953 1.363 . S
C5949 H5920 0.950 . S
C5949 C5948 1.397 . S
C5949 C5950 1.334 . S
C5950 H5921 0.950 . S
C5950 C5949 1.334 . S
C5950 C5951 1.287 . S
C5951 C5950 1.287 . S
C5951 C5952 1.524 . S
C5951 H5954 0.999 . S
C5952 H5922 0.950 . S
C5952 C5951 1.524 . S
C5952 C5953 1.415 . S
C5953 H5923 0.950 . S
C5953 C5948 1.363 . S
C5953 C5952 1.415 . S
H5954 C5951 0.999 . S
H5955 C5936 0.913 . S
H5956 C5974 0.951 . S
H5957 C5976 0.951 . S
H5958 C5978 0.950 . S
H5959 C5979 0.950 . S
H5960 C5981 0.950 . S
H5961 C5984 0.950 . S
H5962 C5985 0.950 . S
H5963 C5987 0.950 . S
H5964 C5988 0.950 . S
H5965 C5989 0.951 . S
H5966 C5991 0.951 . S
H5967 C5993 0.950 . S
H5968 C5994 0.950 . S
H5969 C5996 0.950 . S
H5970 C5999 0.950 . S
H5971 C6000 0.950 . S
H5972 C6002 0.950 1_455 S
H5973 C6003 0.950 . S
C5974 H5956 0.951 . S
C5974 C5975 1.366 . S
C5974 C5976 1.388 . S
C5975 C5974 1.366 . S
C5975 C5979 1.385 . S
C5976 H5957 0.951 . S
C5976 C5974 1.388 . S
C5976 C5977 1.366 . S
C5977 C5976 1.366 . S
C5977 C5978 1.414 . S
C5977 C5980 1.499 . S
C5978 H5958 0.950 . S
C5978 C5977 1.414 . S
C5978 C5979 1.374 . S
C5979 H5959 0.950 . S
C5979 C5975 1.385 . S
C5979 C5978 1.374 . S
C5980 C5977 1.499 . S
C5980 C5981 1.373 . S
C5980 C5982 1.389 . S
C5981 H5960 0.950 . S
C5981 C5980 1.373 . S
C5981 C5997 1.377 . S
C5982 C5980 1.389 . S
C5982 C5983 1.524 . S
C5982 C5996 1.377 . S
C5983 C5982 1.524 . S
C5983 C5984 1.397 . S
C5983 C5988 1.363 . S
C5984 H5961 0.950 . S
C5984 C5983 1.397 . S
C5984 C5985 1.334 . S
C5985 H5962 0.950 . S
C5985 C5984 1.334 . S
C5985 C5986 1.287 . S
C5986 C5985 1.287 . S
C5986 C5987 1.524 . S
C5986 H6005 0.913 . S
C5987 H5963 0.950 . S
C5987 C5986 1.524 . S
C5987 C5988 1.415 . S
C5988 H5964 0.950 . S
C5988 C5983 1.363 . S
C5988 C5987 1.415 . S
C5989 H5965 0.951 . S
C5989 C5990 1.366 . S
C5989 C5991 1.388 . S
C5990 C5989 1.366 . S
C5990 C5994 1.385 . S
C5991 H5966 0.951 . S
C5991 C5989 1.388 . S
C5991 C5992 1.366 . S
C5992 C5991 1.366 . S
C5992 C5993 1.414 . S
C5992 C5995 1.499 . S
C5993 H5967 0.950 . S
C5993 C5992 1.414 . S
C5993 C5994 1.374 . S
C5994 H5968 0.950 . S
C5994 C5990 1.385 . S
C5994 C5993 1.374 . S
C5995 C5992 1.499 . S
C5995 C5996 1.373 . S
C5995 C5997 1.389 . S
C5996 H5969 0.950 . S
C5996 C5982 1.377 . S
C5996 C5995 1.373 . S
C5997 C5981 1.377 . S
C5997 C5995 1.389 . S
C5997 C5998 1.524 . S
C5998 C5997 1.524 . S
C5998 C5999 1.397 . S
C5998 C6003 1.363 . S
C5999 H5970 0.950 . S
C5999 C5998 1.397 . S
C5999 C6000 1.334 1_655 S
C6000 H5971 0.950 . S
C6000 C5999 1.334 1_455 S
C6000 C6001 1.287 . S
C6001 C6000 1.287 . S
C6001 C6002 1.524 1_455 S
C6001 H6004 0.999 . S
C6002 H5972 0.950 1_655 S
C6002 C6001 1.524 1_655 S
C6002 C6003 1.415 . S
C6003 H5973 0.950 . S
C6003 C5998 1.363 . S
C6003 C6002 1.415 . S
H6004 C6001 0.999 . S
H6005 C5986 0.913 . S
H6006 C6024 0.951 . S
H6007 C6026 0.951 . S
H6008 C6028 0.950 . S
H6009 C6029 0.950 . S
H6010 C6031 0.950 . S
H6011 C6034 0.950 . S
H6012 C6035 0.950 . S
H6013 C6037 0.950 . S
H6014 C6038 0.950 . S
H6015 C6039 0.951 . S
H6016 C6041 0.951 . S
H6017 C6043 0.950 . S
H6018 C6044 0.950 . S
H6019 C6046 0.950 . S
H6020 C6049 0.950 . S
H6021 C6050 0.950 . S
H6022 C6052 0.950 . S
H6023 C6053 0.950 . S
C6024 H6006 0.951 . S
C6024 C6025 1.366 . S
C6024 C6026 1.388 . S
C6025 C6024 1.366 . S
C6025 C6029 1.385 . S
C6026 H6007 0.951 . S
C6026 C6024 1.388 . S
C6026 C6027 1.366 . S
C6027 C6026 1.366 . S
C6027 C6028 1.414 . S
C6027 C6030 1.499 . S
C6028 H6008 0.950 . S
C6028 C6027 1.414 . S
C6028 C6029 1.374 . S
C6029 H6009 0.950 . S
C6029 C6025 1.385 . S
C6029 C6028 1.374 . S
C6030 C6027 1.499 . S
C6030 C6031 1.373 . S
C6030 C6032 1.389 . S
C6031 H6010 0.950 . S
C6031 C6030 1.373 . S
C6031 C6047 1.377 . S
C6032 C6030 1.389 . S
C6032 C6033 1.524 . S
C6032 C6046 1.377 . S
C6033 C6032 1.524 . S
C6033 C6034 1.397 . S
C6033 C6038 1.363 . S
C6034 H6011 0.950 . S
C6034 C6033 1.397 . S
C6034 C6035 1.334 . S
C6035 H6012 0.950 . S
C6035 C6034 1.334 . S
C6035 C6036 1.287 . S
C6036 C6035 1.287 . S
C6036 C6037 1.524 . S
C6036 H6055 0.913 . S
C6037 H6013 0.950 . S
C6037 C6036 1.524 . S
C6037 C6038 1.415 . S
C6038 H6014 0.950 . S
C6038 C6033 1.363 . S
C6038 C6037 1.415 . S
C6039 H6015 0.951 . S
C6039 C6040 1.366 . S
C6039 C6041 1.388 . S
C6040 C6039 1.366 . S
C6040 C6044 1.385 . S
C6041 H6016 0.951 . S
C6041 C6039 1.388 . S
C6041 C6042 1.366 . S
C6042 C6041 1.366 . S
C6042 C6043 1.414 . S
C6042 C6045 1.499 . S
C6043 H6017 0.950 . S
C6043 C6042 1.414 . S
C6043 C6044 1.374 . S
C6044 H6018 0.950 . S
C6044 C6040 1.385 . S
C6044 C6043 1.374 . S
C6045 C6042 1.499 . S
C6045 C6046 1.373 . S
C6045 C6047 1.389 . S
C6046 H6019 0.950 . S
C6046 C6032 1.377 . S
C6046 C6045 1.373 . S
C6047 C6031 1.377 . S
C6047 C6045 1.389 . S
C6047 C6048 1.524 . S
C6048 C6047 1.524 . S
C6048 C6049 1.397 . S
C6048 C6053 1.363 . S
C6049 H6020 0.950 . S
C6049 C6048 1.397 . S
C6049 C6050 1.334 . S
C6050 H6021 0.950 . S
C6050 C6049 1.334 . S
C6050 C6051 1.287 . S
C6051 C6050 1.287 . S
C6051 C6052 1.524 . S
C6051 H6054 0.999 . S
C6052 H6022 0.950 . S
C6052 C6051 1.524 . S
C6052 C6053 1.415 . S
C6053 H6023 0.950 . S
C6053 C6048 1.363 . S
C6053 C6052 1.415 . S
H6054 C6051 0.999 . S
H6055 C6036 0.913 . S
H6056 C6074 0.951 . S
H6057 C6076 0.951 . S
H6058 C6078 0.950 . S
H6059 C6079 0.950 . S
H6060 C6081 0.950 . S
H6061 C6084 0.950 . S
H6062 C6085 0.950 . S
H6063 C6087 0.950 . S
H6064 C6088 0.950 . S
H6065 C6089 0.951 . S
H6066 C6091 0.951 . S
H6067 C6093 0.950 . S
H6068 C6094 0.950 . S
H6069 C6096 0.950 . S
H6070 C6099 0.950 . S
H6071 C6100 0.950 . S
H6072 C6102 0.950 . S
H6073 C6103 0.950 . S
C6074 H6056 0.951 . S
C6074 C6075 1.366 . S
C6074 C6076 1.388 . S
C6075 C6074 1.366 . S
C6075 C6079 1.385 . S
C6076 H6057 0.951 . S
C6076 C6074 1.388 . S
C6076 C6077 1.366 . S
C6077 C6076 1.366 . S
C6077 C6078 1.414 . S
C6077 C6080 1.499 . S
C6078 H6058 0.950 . S
C6078 C6077 1.414 . S
C6078 C6079 1.374 . S
C6079 H6059 0.950 . S
C6079 C6075 1.385 . S
C6079 C6078 1.374 . S
C6080 C6077 1.499 . S
C6080 C6081 1.373 . S
C6080 C6082 1.389 . S
C6081 H6060 0.950 . S
C6081 C6080 1.373 . S
C6081 C6097 1.377 . S
C6082 C6080 1.389 . S
C6082 C6083 1.524 . S
C6082 C6096 1.377 . S
C6083 C6082 1.524 . S
C6083 C6084 1.397 . S
C6083 C6088 1.363 . S
C6084 H6061 0.950 . S
C6084 C6083 1.397 . S
C6084 C6085 1.334 . S
C6085 H6062 0.950 . S
C6085 C6084 1.334 . S
C6085 C6086 1.287 . S
C6086 C6085 1.287 . S
C6086 C6087 1.524 . S
C6086 H6105 0.913 . S
C6087 H6063 0.950 . S
C6087 C6086 1.524 . S
C6087 C6088 1.415 . S
C6088 H6064 0.950 . S
C6088 C6083 1.363 . S
C6088 C6087 1.415 . S
C6089 H6065 0.951 . S
C6089 C6090 1.366 . S
C6089 C6091 1.388 . S
C6090 C6089 1.366 . S
C6090 C6094 1.385 . S
C6091 H6066 0.951 . S
C6091 C6089 1.388 . S
C6091 C6092 1.366 . S
C6092 C6091 1.366 . S
C6092 C6093 1.414 . S
C6092 C6095 1.499 . S
C6093 H6067 0.950 . S
C6093 C6092 1.414 . S
C6093 C6094 1.374 . S
C6094 H6068 0.950 . S
C6094 C6090 1.385 . S
C6094 C6093 1.374 . S
C6095 C6092 1.499 . S
C6095 C6096 1.373 . S
C6095 C6097 1.389 . S
C6096 H6069 0.950 . S
C6096 C6082 1.377 . S
C6096 C6095 1.373 . S
C6097 C6081 1.377 . S
C6097 C6095 1.389 . S
C6097 C6098 1.524 . S
C6098 C6097 1.524 . S
C6098 C6099 1.397 . S
C6098 C6103 1.363 . S
C6099 H6070 0.950 . S
C6099 C6098 1.397 . S
C6099 C6100 1.334 . S
C6100 H6071 0.950 . S
C6100 C6099 1.334 . S
C6100 C6101 1.287 . S
C6101 C6100 1.287 . S
C6101 C6102 1.524 . S
C6101 H6104 0.999 . S
C6102 H6072 0.950 . S
C6102 C6101 1.524 . S
C6102 C6103 1.415 . S
C6103 H6073 0.950 . S
C6103 C6098 1.363 . S
C6103 C6102 1.415 . S
H6104 C6101 0.999 . S
H6105 C6086 0.913 . S
H6106 C6124 0.951 . S
H6107 C6126 0.951 . S
H6108 C6128 0.950 . S
H6109 C6129 0.950 . S
H6110 C6131 0.950 . S
H6111 C6134 0.950 . S
H6112 C6135 0.950 . S
H6113 C6137 0.950 . S
H6114 C6138 0.950 . S
H6115 C6139 0.951 . S
H6116 C6141 0.951 1_545 S
H6117 C6143 0.950 . S
H6118 C6144 0.950 . S
H6119 C6146 0.950 . S
H6120 C6149 0.950 . S
H6121 C6150 0.950 . S
H6122 C6152 0.950 . S
H6123 C6153 0.950 . S
C6124 H6106 0.951 . S
C6124 C6125 1.366 . S
C6124 C6126 1.388 . S
C6125 C6124 1.366 . S
C6125 C6129 1.385 . S
C6126 H6107 0.951 . S
C6126 C6124 1.388 . S
C6126 C6127 1.366 . S
C6127 C6126 1.366 . S
C6127 C6128 1.414 . S
C6127 C6130 1.499 . S
C6128 H6108 0.950 . S
C6128 C6127 1.414 . S
C6128 C6129 1.374 . S
C6129 H6109 0.950 . S
C6129 C6125 1.385 . S
C6129 C6128 1.374 . S
C6130 C6127 1.499 . S
C6130 C6131 1.373 . S
C6130 C6132 1.389 . S
C6131 H6110 0.950 . S
C6131 C6130 1.373 . S
C6131 C6147 1.377 . S
C6132 C6130 1.389 . S
C6132 C6133 1.524 . S
C6132 C6146 1.377 . S
C6133 C6132 1.524 . S
C6133 C6134 1.397 . S
C6133 C6138 1.363 . S
C6134 H6111 0.950 . S
C6134 C6133 1.397 . S
C6134 C6135 1.334 . S
C6135 H6112 0.950 . S
C6135 C6134 1.334 . S
C6135 C6136 1.287 . S
C6136 C6135 1.287 . S
C6136 C6137 1.524 . S
C6136 H6155 0.913 . S
C6137 H6113 0.950 . S
C6137 C6136 1.524 . S
C6137 C6138 1.415 . S
C6138 H6114 0.950 . S
C6138 C6133 1.363 . S
C6138 C6137 1.415 . S
C6139 H6115 0.951 . S
C6139 C6140 1.366 1_545 S
C6139 C6141 1.388 1_545 S
C6140 C6139 1.366 1_565 S
C6140 C6144 1.385 . S
C6141 H6116 0.951 1_565 S
C6141 C6139 1.388 1_565 S
C6141 C6142 1.366 . S
C6142 C6141 1.366 . S
C6142 C6143 1.414 . S
C6142 C6145 1.499 . S
C6143 H6117 0.950 . S
C6143 C6142 1.414 . S
C6143 C6144 1.374 . S
C6144 H6118 0.950 . S
C6144 C6140 1.385 . S
C6144 C6143 1.374 . S
C6145 C6142 1.499 . S
C6145 C6146 1.373 . S
C6145 C6147 1.389 . S
C6146 H6119 0.950 . S
C6146 C6132 1.377 . S
C6146 C6145 1.373 . S
C6147 C6131 1.377 . S
C6147 C6145 1.389 . S
C6147 C6148 1.524 . S
C6148 C6147 1.524 . S
C6148 C6149 1.397 . S
C6148 C6153 1.363 . S
C6149 H6120 0.950 . S
C6149 C6148 1.397 . S
C6149 C6150 1.334 . S
C6150 H6121 0.950 . S
C6150 C6149 1.334 . S
C6150 C6151 1.298 . S
C6151 C6150 1.298 . S
C6151 C6152 1.520 1_565 S
C6151 H6154 0.989 1_565 S
C6152 H6122 0.950 . S
C6152 C6151 1.520 1_545 S
C6152 C6153 1.415 1_545 S
C6153 H6123 0.950 . S
C6153 C6148 1.363 . S
C6153 C6152 1.415 1_565 S
H6154 C6151 0.989 1_545 S
H6155 C6136 0.913 . S
H6156 C6174 0.951 . S
H6157 C6176 0.951 . S
H6158 C6178 0.950 . S
H6159 C6179 0.950 . S
H6160 C6181 0.950 . S
H6161 C6184 0.950 . S
H6162 C6185 0.950 . S
H6163 C6187 0.950 . S
H6164 C6188 0.950 . S
H6165 C6189 0.951 . S
H6166 C6191 0.951 . S
H6167 C6193 0.950 . S
H6168 C6194 0.950 . S
H6169 C6196 0.950 . S
H6170 C6199 0.950 . S
H6171 C6200 0.950 . S
H6172 C6202 0.950 . S
H6173 C6203 0.950 . S
C6174 H6156 0.951 . S
C6174 C6175 1.366 . S
C6174 C6176 1.388 . S
C6175 C6174 1.366 . S
C6175 C6179 1.385 . S
C6176 H6157 0.951 . S
C6176 C6174 1.388 . S
C6176 C6177 1.366 . S
C6177 C6176 1.366 . S
C6177 C6178 1.414 . S
C6177 C6180 1.499 . S
C6178 H6158 0.950 . S
C6178 C6177 1.414 . S
C6178 C6179 1.374 . S
C6179 H6159 0.950 . S
C6179 C6175 1.385 . S
C6179 C6178 1.374 . S
C6180 C6177 1.499 . S
C6180 C6181 1.373 . S
C6180 C6182 1.389 . S
C6181 H6160 0.950 . S
C6181 C6180 1.373 . S
C6181 C6197 1.377 . S
C6182 C6180 1.389 . S
C6182 C6183 1.524 . S
C6182 C6196 1.377 . S
C6183 C6182 1.524 . S
C6183 C6184 1.397 . S
C6183 C6188 1.363 . S
C6184 H6161 0.950 . S
C6184 C6183 1.397 . S
C6184 C6185 1.334 . S
C6185 H6162 0.950 . S
C6185 C6184 1.334 . S
C6185 C6186 1.287 . S
C6186 C6185 1.287 . S
C6186 C6187 1.524 . S
C6186 H6205 0.913 . S
C6187 H6163 0.950 . S
C6187 C6186 1.524 . S
C6187 C6188 1.415 . S
C6188 H6164 0.950 . S
C6188 C6183 1.363 . S
C6188 C6187 1.415 . S
C6189 H6165 0.951 . S
C6189 C6190 1.366 . S
C6189 C6191 1.388 . S
C6190 C6189 1.366 . S
C6190 C6194 1.385 . S
C6191 H6166 0.951 . S
C6191 C6189 1.388 . S
C6191 C6192 1.366 . S
C6192 C6191 1.366 . S
C6192 C6193 1.414 . S
C6192 C6195 1.499 . S
C6193 H6167 0.950 . S
C6193 C6192 1.414 . S
C6193 C6194 1.374 . S
C6194 H6168 0.950 . S
C6194 C6190 1.385 . S
C6194 C6193 1.374 . S
C6195 C6192 1.499 . S
C6195 C6196 1.373 . S
C6195 C6197 1.389 . S
C6196 H6169 0.950 . S
C6196 C6182 1.377 . S
C6196 C6195 1.373 . S
C6197 C6181 1.377 . S
C6197 C6195 1.389 . S
C6197 C6198 1.524 . S
C6198 C6197 1.524 . S
C6198 C6199 1.397 . S
C6198 C6203 1.363 . S
C6199 H6170 0.950 . S
C6199 C6198 1.397 . S
C6199 C6200 1.334 . S
C6200 H6171 0.950 . S
C6200 C6199 1.334 . S
C6200 C6201 1.287 . S
C6201 C6200 1.287 . S
C6201 C6202 1.524 . S
C6201 H6204 0.999 . S
C6202 H6172 0.950 . S
C6202 C6201 1.524 . S
C6202 C6203 1.415 . S
C6203 H6173 0.950 . S
C6203 C6198 1.363 . S
C6203 C6202 1.415 . S
H6204 C6201 0.999 . S
H6205 C6186 0.913 . S
H6206 C6224 0.951 . S
H6207 C6226 0.951 . S
H6208 C6228 0.950 . S
H6209 C6229 0.950 . S
H6210 C6231 0.950 . S
H6211 C6234 0.950 . S
H6212 C6235 0.950 . S
H6213 C6237 0.950 . S
H6214 C6238 0.950 1_554 S
H6215 C6239 0.951 . S
H6216 C6241 0.951 . S
H6217 C6243 0.950 . S
H6218 C6244 0.950 . S
H6219 C6246 0.950 . S
H6220 C6249 0.950 . S
H6221 C6250 0.950 . S
H6222 C6252 0.950 . S
H6223 C6253 0.950 . S
C6224 H6206 0.951 . S
C6224 C6225 1.366 . S
C6224 C6226 1.388 . S
C6225 C6224 1.366 . S
C6225 C6229 1.385 . S
C6226 H6207 0.951 . S
C6226 C6224 1.388 . S
C6226 C6227 1.366 . S
C6227 C6226 1.366 . S
C6227 C6228 1.414 . S
C6227 C6230 1.499 . S
C6228 H6208 0.950 . S
C6228 C6227 1.414 . S
C6228 C6229 1.374 . S
C6229 H6209 0.950 . S
C6229 C6225 1.385 . S
C6229 C6228 1.374 . S
C6230 C6227 1.499 . S
C6230 C6231 1.373 . S
C6230 C6232 1.389 . S
C6231 H6210 0.950 . S
C6231 C6230 1.373 . S
C6231 C6247 1.377 . S
C6232 C6230 1.389 . S
C6232 C6233 1.524 . S
C6232 C6246 1.377 . S
C6233 C6232 1.524 . S
C6233 C6234 1.397 1_554 S
C6233 C6238 1.363 1_554 S
C6234 H6211 0.950 . S
C6234 C6233 1.397 1_556 S
C6234 C6235 1.334 . S
C6235 H6212 0.950 . S
C6235 C6234 1.334 . S
C6235 C6236 1.287 . S
C6236 C6235 1.287 . S
C6236 C6237 1.524 . S
C6236 H6255 0.913 . S
C6237 H6213 0.950 . S
C6237 C6236 1.524 . S
C6237 C6238 1.415 . S
C6238 H6214 0.950 1_556 S
C6238 C6233 1.363 1_556 S
C6238 C6237 1.415 . S
C6239 H6215 0.951 . S
C6239 C6240 1.366 . S
C6239 C6241 1.388 . S
C6240 C6239 1.366 . S
C6240 C6244 1.385 . S
C6241 H6216 0.951 . S
C6241 C6239 1.388 . S
C6241 C6242 1.366 . S
C6242 C6241 1.366 . S
C6242 C6243 1.414 . S
C6242 C6245 1.499 . S
C6243 H6217 0.950 . S
C6243 C6242 1.414 . S
C6243 C6244 1.374 . S
C6244 H6218 0.950 . S
C6244 C6240 1.385 . S
C6244 C6243 1.374 . S
C6245 C6242 1.499 . S
C6245 C6246 1.373 . S
C6245 C6247 1.389 . S
C6246 H6219 0.950 . S
C6246 C6232 1.377 . S
C6246 C6245 1.373 . S
C6247 C6231 1.377 . S
C6247 C6245 1.389 . S
C6247 C6248 1.524 . S
C6248 C6247 1.524 . S
C6248 C6249 1.397 . S
C6248 C6253 1.363 . S
C6249 H6220 0.950 . S
C6249 C6248 1.397 . S
C6249 C6250 1.334 . S
C6250 H6221 0.950 . S
C6250 C6249 1.334 . S
C6250 C6251 1.287 . S
C6251 C6250 1.287 . S
C6251 C6252 1.524 . S
C6251 H6254 0.999 . S
C6252 H6222 0.950 . S
C6252 C6251 1.524 . S
C6252 C6253 1.415 . S
C6253 H6223 0.950 . S
C6253 C6248 1.363 . S
C6253 C6252 1.415 . S
H6254 C6251 0.999 . S
H6255 C6236 0.913 . S
H6256 C6274 0.951 . S
H6257 C6276 0.951 . S
H6258 C6278 0.950 . S
H6259 C6279 0.950 . S
H6260 C6281 0.950 . S
H6261 C6284 0.950 . S
H6262 C6285 0.950 . S
H6263 C6287 0.950 . S
H6264 C6288 0.950 . S
H6265 C6289 0.951 . S
H6266 C6291 0.951 . S
H6267 C6293 0.950 . S
H6268 C6294 0.950 . S
H6269 C6296 0.950 . S
H6270 C6299 0.950 . S
H6271 C6300 0.950 . S
H6272 C6302 0.950 . S
H6273 C6303 0.950 . S
C6274 H6256 0.951 . S
C6274 C6275 1.366 . S
C6274 C6276 1.388 . S
C6275 C6274 1.366 . S
C6275 C6279 1.385 . S
C6276 H6257 0.951 . S
C6276 C6274 1.388 . S
C6276 C6277 1.366 . S
C6277 C6276 1.366 . S
C6277 C6278 1.414 . S
C6277 C6280 1.499 . S
C6278 H6258 0.950 . S
C6278 C6277 1.414 . S
C6278 C6279 1.374 . S
C6279 H6259 0.950 . S
C6279 C6275 1.385 . S
C6279 C6278 1.374 . S
C6280 C6277 1.499 . S
C6280 C6281 1.373 . S
C6280 C6282 1.389 . S
C6281 H6260 0.950 . S
C6281 C6280 1.373 . S
C6281 C6297 1.377 . S
C6282 C6280 1.389 . S
C6282 C6283 1.524 . S
C6282 C6296 1.377 . S
C6283 C6282 1.524 . S
C6283 C6284 1.397 . S
C6283 C6288 1.363 . S
C6284 H6261 0.950 . S
C6284 C6283 1.397 . S
C6284 C6285 1.334 . S
C6285 H6262 0.950 . S
C6285 C6284 1.334 . S
C6285 C6286 1.287 . S
C6286 C6285 1.287 . S
C6286 C6287 1.524 . S
C6286 H6305 0.913 . S
C6287 H6263 0.950 . S
C6287 C6286 1.524 . S
C6287 C6288 1.415 . S
C6288 H6264 0.950 . S
C6288 C6283 1.363 . S
C6288 C6287 1.415 . S
C6289 H6265 0.951 . S
C6289 C6290 1.366 . S
C6289 C6291 1.388 . S
C6290 C6289 1.366 . S
C6290 C6294 1.385 . S
C6291 H6266 0.951 . S
C6291 C6289 1.388 . S
C6291 C6292 1.366 . S
C6292 C6291 1.366 . S
C6292 C6293 1.414 . S
C6292 C6295 1.499 . S
C6293 H6267 0.950 . S
C6293 C6292 1.414 . S
C6293 C6294 1.374 . S
C6294 H6268 0.950 . S
C6294 C6290 1.385 . S
C6294 C6293 1.374 . S
C6295 C6292 1.499 . S
C6295 C6296 1.373 . S
C6295 C6297 1.389 . S
C6296 H6269 0.950 . S
C6296 C6282 1.377 . S
C6296 C6295 1.373 . S
C6297 C6281 1.377 . S
C6297 C6295 1.389 . S
C6297 C6298 1.524 . S
C6298 C6297 1.524 . S
C6298 C6299 1.397 . S
C6298 C6303 1.363 . S
C6299 H6270 0.950 . S
C6299 C6298 1.397 . S
C6299 C6300 1.334 . S
C6300 H6271 0.950 . S
C6300 C6299 1.334 . S
C6300 C6301 1.287 . S
C6301 C6300 1.287 . S
C6301 C6302 1.524 . S
C6301 H6304 0.999 . S
C6302 H6272 0.950 . S
C6302 C6301 1.524 . S
C6302 C6303 1.415 . S
C6303 H6273 0.950 . S
C6303 C6298 1.363 . S
C6303 C6302 1.415 . S
H6304 C6301 0.999 . S
H6305 C6286 0.913 . S
H6306 C6324 0.951 . S
H6307 C6326 0.951 . S
H6308 C6328 0.950 . S
H6309 C6329 0.950 . S
H6310 C6331 0.950 1_556 S
H6311 C6334 0.950 . S
H6312 C6335 0.950 . S
H6313 C6337 0.950 . S
H6314 C6338 0.950 . S
H6315 C6339 0.951 1_556 S
H6316 C6341 0.933 1_556 S
H6317 C6343 0.950 . S
H6318 C6344 0.950 . S
H6319 C6346 0.950 . S
H6320 C6349 0.950 . S
H6321 C6350 0.950 . S
H6322 C6352 0.950 . S
H6323 C6353 0.950 . S
C6324 H6306 0.951 . S
C6324 C6325 1.366 . S
C6324 C6326 1.388 . S
C6325 C6324 1.366 . S
C6325 C6329 1.385 . S
C6326 H6307 0.951 . S
C6326 C6324 1.388 . S
C6326 C6327 1.366 . S
C6327 C6326 1.366 . S
C6327 C6328 1.414 . S
C6327 C6330 1.499 . S
C6328 H6308 0.950 . S
C6328 C6327 1.414 . S
C6328 C6329 1.374 . S
C6329 H6309 0.950 . S
C6329 C6325 1.385 . S
C6329 C6328 1.374 . S
C6330 C6327 1.499 . S
C6330 C6331 1.373 . S
C6330 C6332 1.389 . S
C6331 H6310 0.950 1_554 S
C6331 C6330 1.373 . S
C6331 C6347 1.377 . S
C6332 C6330 1.389 . S
C6332 C6333 1.524 . S
C6332 C6346 1.377 . S
C6333 C6332 1.524 . S
C6333 C6334 1.397 . S
C6333 C6338 1.363 . S
C6334 H6311 0.950 . S
C6334 C6333 1.397 . S
C6334 C6335 1.334 . S
C6335 H6312 0.950 . S
C6335 C6334 1.334 . S
C6335 C6336 1.287 . S
C6336 C6335 1.287 . S
C6336 C6337 1.524 . S
C6336 H6355 0.913 . S
C6337 H6313 0.950 . S
C6337 C6336 1.524 . S
C6337 C6338 1.415 . S
C6338 H6314 0.950 . S
C6338 C6333 1.363 . S
C6338 C6337 1.415 . S
C6339 H6315 0.951 1_554 S
C6339 C6340 1.366 . S
C6339 C6341 1.388 . S
C6340 C6339 1.366 . S
C6340 C6344 1.385 . S
C6341 H6316 0.933 1_554 S
C6341 C6339 1.388 . S
C6341 C6342 1.366 . S
C6342 C6341 1.366 . S
C6342 C6343 1.414 . S
C6342 C6345 1.499 . S
C6343 H6317 0.950 . S
C6343 C6342 1.414 . S
C6343 C6344 1.374 . S
C6344 H6318 0.950 . S
C6344 C6340 1.385 . S
C6344 C6343 1.374 . S
C6345 C6342 1.499 . S
C6345 C6346 1.373 . S
C6345 C6347 1.389 . S
C6346 H6319 0.950 . S
C6346 C6332 1.377 . S
C6346 C6345 1.373 . S
C6347 C6331 1.377 . S
C6347 C6345 1.389 . S
C6347 C6348 1.524 1_554 S
C6348 C6347 1.524 1_556 S
C6348 C6349 1.397 . S
C6348 C6353 1.363 . S
C6349 H6320 0.950 . S
C6349 C6348 1.397 . S
C6349 C6350 1.334 . S
C6350 H6321 0.950 . S
C6350 C6349 1.334 . S
C6350 C6351 1.287 . S
C6351 C6350 1.287 . S
C6351 C6352 1.524 . S
C6351 H6354 0.999 . S
C6352 H6322 0.950 . S
C6352 C6351 1.524 . S
C6352 C6353 1.415 . S
C6353 H6323 0.950 . S
C6353 C6348 1.363 . S
C6353 C6352 1.415 . S
H6354 C6351 0.999 . S
H6355 C6336 0.913 . S
H6356 C6374 0.951 . S
H6357 C6376 0.951 . S
H6358 C6378 0.950 . S
H6359 C6379 0.950 . S
H6360 C6381 0.950 . S
H6361 C6384 0.950 . S
H6362 C6385 0.950 . S
H6363 C6387 0.950 . S
H6364 C6388 0.950 . S
H6365 C6389 0.951 . S
H6366 C6391 0.951 . S
H6367 C6393 0.950 . S
H6368 C6394 0.950 . S
H6369 C6396 0.950 . S
H6370 C6399 0.950 . S
H6371 C6400 0.950 . S
H6372 C6402 0.950 . S
H6373 C6403 0.950 . S
C6374 H6356 0.951 . S
C6374 C6375 1.366 . S
C6374 C6376 1.388 . S
C6375 C6374 1.366 . S
C6375 C6379 1.385 . S
C6376 H6357 0.951 . S
C6376 C6374 1.388 . S
C6376 C6377 1.366 . S
C6377 C6376 1.366 . S
C6377 C6378 1.414 . S
C6377 C6380 1.499 . S
C6378 H6358 0.950 . S
C6378 C6377 1.414 . S
C6378 C6379 1.374 . S
C6379 H6359 0.950 . S
C6379 C6375 1.385 . S
C6379 C6378 1.374 . S
C6380 C6377 1.499 . S
C6380 C6381 1.373 . S
C6380 C6382 1.389 . S
C6381 H6360 0.950 . S
C6381 C6380 1.373 . S
C6381 C6397 1.377 . S
C6382 C6380 1.389 . S
C6382 C6383 1.524 . S
C6382 C6396 1.377 . S
C6383 C6382 1.524 . S
C6383 C6384 1.397 . S
C6383 C6388 1.363 . S
C6384 H6361 0.950 . S
C6384 C6383 1.397 . S
C6384 C6385 1.334 . S
C6385 H6362 0.950 . S
C6385 C6384 1.334 . S
C6385 C6386 1.287 . S
C6386 C6385 1.287 . S
C6386 C6387 1.524 . S
C6386 H6405 0.913 . S
C6387 H6363 0.950 . S
C6387 C6386 1.524 . S
C6387 C6388 1.415 . S
C6388 H6364 0.950 . S
C6388 C6383 1.363 . S
C6388 C6387 1.415 . S
C6389 H6365 0.951 . S
C6389 C6390 1.366 . S
C6389 C6391 1.388 . S
C6390 C6389 1.366 . S
C6390 C6394 1.385 . S
C6391 H6366 0.951 . S
C6391 C6389 1.388 . S
C6391 C6392 1.366 . S
C6392 C6391 1.366 . S
C6392 C6393 1.414 . S
C6392 C6395 1.499 . S
C6393 H6367 0.950 . S
C6393 C6392 1.414 . S
C6393 C6394 1.374 . S
C6394 H6368 0.950 . S
C6394 C6390 1.385 . S
C6394 C6393 1.374 . S
C6395 C6392 1.499 . S
C6395 C6396 1.373 . S
C6395 C6397 1.389 . S
C6396 H6369 0.950 . S
C6396 C6382 1.377 . S
C6396 C6395 1.373 . S
C6397 C6381 1.377 . S
C6397 C6395 1.389 . S
C6397 C6398 1.524 . S
C6398 C6397 1.524 . S
C6398 C6399 1.397 . S
C6398 C6403 1.363 . S
C6399 H6370 0.950 . S
C6399 C6398 1.397 . S
C6399 C6400 1.334 . S
C6400 H6371 0.950 . S
C6400 C6399 1.334 . S
C6400 C6401 1.287 . S
C6401 C6400 1.287 . S
C6401 C6402 1.524 . S
C6401 H6404 0.999 . S
C6402 H6372 0.950 . S
C6402 C6401 1.524 . S
C6402 C6403 1.415 . S
C6403 H6373 0.950 . S
C6403 C6398 1.363 . S
C6403 C6402 1.415 . S
H6404 C6401 0.999 . S
H6405 C6386 0.913 . S
H6406 C6424 0.951 . S
H6407 C6426 0.951 . S
H6408 C6428 0.950 . S
H6409 C6429 0.950 . S
H6410 C6431 0.950 . S
H6411 C6434 0.950 . S
H6412 C6435 0.950 . S
H6413 C6437 0.950 . S
H6414 C6438 0.950 . S
H6415 C6439 0.951 . S
H6416 C6441 0.951 . S
H6417 C6443 0.950 . S
H6418 C6444 0.950 . S
H6419 C6446 0.950 . S
H6420 C6449 0.950 . S
H6421 C6450 0.950 . S
H6422 C6452 0.950 . S
H6423 C6453 0.950 . S
C6424 H6406 0.951 . S
C6424 C6425 1.366 . S
C6424 C6426 1.388 . S
C6425 C6424 1.366 . S
C6425 C6429 1.385 . S
C6426 H6407 0.951 . S
C6426 C6424 1.388 . S
C6426 C6427 1.366 . S
C6427 C6426 1.366 . S
C6427 C6428 1.414 . S
C6427 C6430 1.499 . S
C6428 H6408 0.950 . S
C6428 C6427 1.414 . S
C6428 C6429 1.374 . S
C6429 H6409 0.950 . S
C6429 C6425 1.385 . S
C6429 C6428 1.374 . S
C6430 C6427 1.499 . S
C6430 C6431 1.373 . S
C6430 C6432 1.389 . S
C6431 H6410 0.950 . S
C6431 C6430 1.373 . S
C6431 C6447 1.377 . S
C6432 C6430 1.389 . S
C6432 C6433 1.524 . S
C6432 C6446 1.377 . S
C6433 C6432 1.524 . S
C6433 C6434 1.397 . S
C6433 C6438 1.363 . S
C6434 H6411 0.950 . S
C6434 C6433 1.397 . S
C6434 C6435 1.334 . S
C6435 H6412 0.950 . S
C6435 C6434 1.334 . S
C6435 C6436 1.287 . S
C6436 C6435 1.287 . S
C6436 C6437 1.524 . S
C6436 H6455 0.913 . S
C6437 H6413 0.950 . S
C6437 C6436 1.524 . S
C6437 C6438 1.415 . S
C6438 H6414 0.950 . S
C6438 C6433 1.363 . S
C6438 C6437 1.415 . S
C6439 H6415 0.951 . S
C6439 C6440 1.366 . S
C6439 C6441 1.388 . S
C6440 C6439 1.366 . S
C6440 C6444 1.385 . S
C6441 H6416 0.951 . S
C6441 C6439 1.388 . S
C6441 C6442 1.366 . S
C6442 C6441 1.366 . S
C6442 C6443 1.414 . S
C6442 C6445 1.499 . S
C6443 H6417 0.950 . S
C6443 C6442 1.414 . S
C6443 C6444 1.374 . S
C6444 H6418 0.950 . S
C6444 C6440 1.385 . S
C6444 C6443 1.374 . S
C6445 C6442 1.499 . S
C6445 C6446 1.373 . S
C6445 C6447 1.389 . S
C6446 H6419 0.950 . S
C6446 C6432 1.377 . S
C6446 C6445 1.373 . S
C6447 C6431 1.377 . S
C6447 C6445 1.389 . S
C6447 C6448 1.524 . S
C6448 C6447 1.524 . S
C6448 C6449 1.397 . S
C6448 C6453 1.363 . S
C6449 H6420 0.950 . S
C6449 C6448 1.397 . S
C6449 C6450 1.334 . S
C6450 H6421 0.950 . S
C6450 C6449 1.334 . S
C6450 C6451 1.287 . S
C6451 C6450 1.287 . S
C6451 C6452 1.524 . S
C6451 H6454 0.999 . S
C6452 H6422 0.950 . S
C6452 C6451 1.524 . S
C6452 C6453 1.415 . S
C6453 H6423 0.950 . S
C6453 C6448 1.363 . S
C6453 C6452 1.415 . S
H6454 C6451 0.999 . S
H6455 C6436 0.913 . S
C1675 C101 2.043 . S
C1690 C368 2.051 . S
C1725 C57 1.818 . S
C1740 C470 1.839 . S
C1775 C73 1.802 . S
C1790 C536 1.890 . S
C1840 C622 1.428 . S
C1825 C78 1.518 . S
C1875 C21 1.634 . S
C1890 C706 1.528 . S
C1940 C788 1.843 . S
C1925 C31 1.751 . S
C1990 C890 1.869 . S
C1975 C49 1.875 . S
C2025 C0 1.856 . S
C2040 C956 1.966 . S
C2090 C386 1.522 . S
C2075 C218 1.557 . S
C2125 C229 0.879 . S
C2140 C454 0.853 . S
C2190 C554 1.061 . S
C2175 C257 1.067 . S
C2240 C620 1.594 . S
C2225 C164 1.531 1_556 S
C2275 C216 1.517 . S
C2290 C704 1.579 . S
C2340 C806 1.071 . S
C2325 C231 1.077 . S
C2390 C874 0.852 . S
C2375 C255 0.877 . S
C2440 C974 1.504 . S
C2425 C166 1.539 . S
C2490 C370 0.855 . S
C2475 C143 0.862 1_556 S
C2525 C265 1.665 . S
C2540 C1058 1.682 . S
C2590 C1126 1.222 . S
C2575 C299 1.265 . S
C2640 C1208 0.819 . S
C2625 C291 0.808 . S
C2675 C104 0.797 . S
C2690 C958 0.793 . S
C2725 C117 1.306 . S
C2740 C538 1.261 . S
C2775 C304 1.595 . S
C2790 C1310 1.610 . S
C2840 C1376 0.702 . S
C2825 C278 0.708 . S
C2890 C379 1.975 . S
C2875 C60 1.947 . S
C2940 C1383 1.724 . S
C2925 C96 1.733 . S
C2975 C88 1.770 . S
C2990 C547 1.769 . S
C3025 C65 1.442 . S
C3040 C1305 1.360 . S
C3090 C717 1.446 . S
C3075 C10 1.560 . S
C3125 C44 1.653 . S
C3140 C1135 1.738 . S
C3190 C879 1.764 1_556 S
C3175 C34 1.718 . S
C3240 C1471 1.875 . S
C3225 C13 1.845 . S
C3290 C375 1.417 . S
C3275 C138 1.431 . S
C3340 C1389 0.780 . S
C3325 C296 0.788 . S
C3375 C112 0.961 . S
C3390 C543 0.967 . S
C3425 C270 1.493 . S
C3440 C1303 1.491 . S
C3475 C140 1.469 . S
C3490 C715 1.467 . S
C3540 C1131 0.975 . S
C3525 C294 0.970 . S
C3575 C114 0.792 . S
C3590 C885 0.825 . S
C3625 C268 1.416 . S
C3640 C1467 1.402 . S
C3675 C169 0.830 . S
C3690 C381 0.818 . S
C3725 C161 1.595 . S
C3740 C1047 1.591 . S
C3775 C234 1.249 . S
C3790 C801 1.189 . S
C3825 C226 0.717 . S
C3840 C1219 0.711 . S
C3890 C1473 0.752 . S
C3875 C247 0.757 . S
C3925 C195 1.279 . S
C3940 C549 1.218 . S
C3990 C627 1.513 . S
C3975 C239 1.519 . S
C4040 C463 0.599 . S
C4025 C187 0.620 . S
C4075 C75 2.044 . S
C4090 C1544 2.051 . S
C4140 C1394 1.838 . S
C4125 C83 1.819 . S
C4175 C99 1.801 . S
C4190 C1628 1.890 . S
C4225 C52 1.517 1_655 S
C4240 C1294 1.429 . S
C4275 C47 1.633 . S
C4290 C1042 1.529 . S
C4340 C1124 1.843 . S
C4325 C5 1.751 . S
C4390 C1226 1.870 . S
C4375 C23 1.875 . S
C4440 C1460 1.966 . S
C4425 C26 1.856 . S
C4490 C1562 1.523 . S
C4475 C244 1.557 . S
C4525 C177 0.879 . S
C4540 C1378 0.854 . S
C4590 C1646 1.060 . S
C4575 C192 1.066 . S
C4640 C1292 1.594 . S
C4625 C203 1.531 . S
C4690 C1040 1.580 . S
C4675 C242 1.518 . S
C4725 C179 1.076 . S
C4740 C1142 1.071 . S
C4790 C1210 0.851 . S
C4775 C190 0.877 . S
C4825 C205 1.538 . S
C4840 C1478 1.503 . S
C4890 C1546 0.856 . S
C4875 C286 0.860 . S
C4925 C122 1.664 . S
C4940 C722 1.682 . S
C4990 C790 1.222 . S
C4975 C130 1.305 . S
C5040 C872 0.818 . S
C5025 C148 0.811 . S
C5090 C1462 0.795 . S
C5075 C273 0.795 . S
C5125 C260 1.307 . S
C5140 C1630 1.260 . S
C5190 C638 1.609 . S
C5175 C135 1.595 . S
C5240 C452 0.703 . S
C5225 C109 0.710 . S
C5275 C86 1.947 . S
C5290 C1555 1.976 . S
C5340 C459 1.724 . S
C5325 C70 1.733 . S
C5375 C62 1.770 . S
C5390 C1639 1.769 . S
C5425 C91 1.442 . S
C5440 C633 1.359 . S
C5475 C36 1.560 . S
C5490 C1053 1.445 . S
C5540 C799 1.737 . S
C5525 C18 1.653 . S
C5575 C8 1.717 . S
C5590 C1215 1.764 . S
C5625 C39 1.845 . S
C5640 C967 1.876 . S
C5690 C1551 1.417 . S
C5675 C307 1.432 . S
C5725 C153 0.788 . S
C5740 C465 0.776 . S
C5790 C1635 0.999 . S
C5775 C281 0.963 . S
C5825 C127 1.493 . S
C5840 C631 1.491 . S
C5875 C309 1.469 . S
C5890 C1051 1.467 . S
C5940 C795 0.975 . S
C5925 C151 0.976 . S
C5975 C283 0.792 . S
C5990 C1221 0.782 . S
C6040 C963 1.403 . S
C6025 C125 1.416 . S
C6090 C1557 0.818 . S
C6075 C221 0.830 . S
C6140 C711 1.592 1_565 S
C6125 C200 1.596 . S
C6175 C208 1.249 . S
C6190 C1137 1.188 . S
C6240 C883 0.711 . S
C6225 C174 0.716 . S
C6275 C182 0.752 . S
C6290 C969 0.751 . S
C6325 C156 1.279 . S
C6340 C1641 1.219 . S
C6390 C1299 1.514 . S
C6375 C213 1.519 . S
C6440 C1387 0.599 . S
C6425 C252 0.619 . S
