# Generated by pormake.
# Topology gar, (4,6)-cn, num edge types: 1
# Building blocks:
#     Node 0, Type 0, BuildingBlock: TATPOV_clean_sbu_0, # of connection points: 4
#     Node 1, Type 0, BuildingBlock: TATPOV_clean_sbu_0, # of connection points: 4
#     Node 2, Type 0, BuildingBlock: TATPOV_clean_sbu_0, # of connection points: 4
#     Node 3, Type 0, BuildingBlock: TATPOV_clean_sbu_0, # of connection points: 4
#     Node 4, Type 0, BuildingBlock: TATPOV_clean_sbu_0, # of connection points: 4
#     Node 5, Type 0, BuildingBlock: TATPOV_clean_sbu_0, # of connection points: 4
#     Node 6, Type 0, BuildingBlock: TATPOV_clean_sbu_0, # of connection points: 4
#     Node 7, Type 0, BuildingBlock: TATPOV_clean_sbu_0, # of connection points: 4
#     Node 8, Type 0, BuildingBlock: TATPOV_clean_sbu_0, # of connection points: 4
#     Node 9, Type 0, BuildingBlock: TATPOV_clean_sbu_0, # of connection points: 4
#     Node 10, Type 0, BuildingBlock: TATPOV_clean_sbu_0, # of connection points: 4
#     Node 11, Type 0, BuildingBlock: TATPOV_clean_sbu_0, # of connection points: 4
#     Node 12, Type 0, BuildingBlock: TATPOV_clean_sbu_0, # of connection points: 4
#     Node 13, Type 0, BuildingBlock: TATPOV_clean_sbu_0, # of connection points: 4
#     Node 14, Type 0, BuildingBlock: TATPOV_clean_sbu_0, # of connection points: 4
#     Node 15, Type 0, BuildingBlock: TATPOV_clean_sbu_0, # of connection points: 4
#     Node 16, Type 0, BuildingBlock: TATPOV_clean_sbu_0, # of connection points: 4
#     Node 17, Type 0, BuildingBlock: TATPOV_clean_sbu_0, # of connection points: 4
#     Node 18, Type 0, BuildingBlock: TATPOV_clean_sbu_0, # of connection points: 4
#     Node 19, Type 0, BuildingBlock: TATPOV_clean_sbu_0, # of connection points: 4
#     Node 20, Type 0, BuildingBlock: TATPOV_clean_sbu_0, # of connection points: 4
#     Node 21, Type 0, BuildingBlock: TATPOV_clean_sbu_0, # of connection points: 4
#     Node 22, Type 0, BuildingBlock: TATPOV_clean_sbu_0, # of connection points: 4
#     Node 23, Type 0, BuildingBlock: TATPOV_clean_sbu_0, # of connection points: 4
#     Node 24, Type 1, BuildingBlock: MIFKUJ_clean_sbu_0, # of connection points: 6
#     Node 25, Type 1, BuildingBlock: MIFKUJ_clean_sbu_0, # of connection points: 6
#     Node 26, Type 1, BuildingBlock: MIFKUJ_clean_sbu_0, # of connection points: 6
#     Node 27, Type 1, BuildingBlock: MIFKUJ_clean_sbu_0, # of connection points: 6
#     Node 28, Type 1, BuildingBlock: MIFKUJ_clean_sbu_0, # of connection points: 6
#     Node 29, Type 1, BuildingBlock: MIFKUJ_clean_sbu_0, # of connection points: 6
#     Node 30, Type 1, BuildingBlock: MIFKUJ_clean_sbu_0, # of connection points: 6
#     Node 31, Type 1, BuildingBlock: MIFKUJ_clean_sbu_0, # of connection points: 6
#     Node 32, Type 1, BuildingBlock: MIFKUJ_clean_sbu_0, # of connection points: 6
#     Node 33, Type 1, BuildingBlock: MIFKUJ_clean_sbu_0, # of connection points: 6
#     Node 34, Type 1, BuildingBlock: MIFKUJ_clean_sbu_0, # of connection points: 6
#     Node 35, Type 1, BuildingBlock: MIFKUJ_clean_sbu_0, # of connection points: 6
#     Node 36, Type 1, BuildingBlock: MIFKUJ_clean_sbu_0, # of connection points: 6
#     Node 37, Type 1, BuildingBlock: MIFKUJ_clean_sbu_0, # of connection points: 6
#     Node 38, Type 1, BuildingBlock: MIFKUJ_clean_sbu_0, # of connection points: 6
#     Node 39, Type 1, BuildingBlock: MIFKUJ_clean_sbu_0, # of connection points: 6
#     Edge 40, Type (0, 1), BuildingBlock: AJUNOK_clean_linker_0, # of connection points: 2
#     Edge 41, Type (0, 1), BuildingBlock: AJUNOK_clean_linker_0, # of connection points: 2
#     Edge 42, Type (0, 1), BuildingBlock: AJUNOK_clean_linker_0, # of connection points: 2
#     Edge 43, Type (0, 1), BuildingBlock: AJUNOK_clean_linker_0, # of connection points: 2
#     Edge 44, Type (0, 1), BuildingBlock: AJUNOK_clean_linker_0, # of connection points: 2
#     Edge 45, Type (0, 1), BuildingBlock: AJUNOK_clean_linker_0, # of connection points: 2
#     Edge 46, Type (0, 1), BuildingBlock: AJUNOK_clean_linker_0, # of connection points: 2
#     Edge 47, Type (0, 1), BuildingBlock: AJUNOK_clean_linker_0, # of connection points: 2
#     Edge 48, Type (0, 1), BuildingBlock: AJUNOK_clean_linker_0, # of connection points: 2
#     Edge 49, Type (0, 1), BuildingBlock: AJUNOK_clean_linker_0, # of connection points: 2
#     Edge 50, Type (0, 1), BuildingBlock: AJUNOK_clean_linker_0, # of connection points: 2
#     Edge 51, Type (0, 1), BuildingBlock: AJUNOK_clean_linker_0, # of connection points: 2
#     Edge 52, Type (0, 1), BuildingBlock: AJUNOK_clean_linker_0, # of connection points: 2
#     Edge 53, Type (0, 1), BuildingBlock: AJUNOK_clean_linker_0, # of connection points: 2
#     Edge 54, Type (0, 1), BuildingBlock: AJUNOK_clean_linker_0, # of connection points: 2
#     Edge 55, Type (0, 1), BuildingBlock: AJUNOK_clean_linker_0, # of connection points: 2
#     Edge 56, Type (0, 1), BuildingBlock: AJUNOK_clean_linker_0, # of connection points: 2
#     Edge 57, Type (0, 1), BuildingBlock: AJUNOK_clean_linker_0, # of connection points: 2
#     Edge 58, Type (0, 1), BuildingBlock: AJUNOK_clean_linker_0, # of connection points: 2
#     Edge 59, Type (0, 1), BuildingBlock: AJUNOK_clean_linker_0, # of connection points: 2
#     Edge 60, Type (0, 1), BuildingBlock: AJUNOK_clean_linker_0, # of connection points: 2
#     Edge 61, Type (0, 1), BuildingBlock: AJUNOK_clean_linker_0, # of connection points: 2
#     Edge 62, Type (0, 1), BuildingBlock: AJUNOK_clean_linker_0, # of connection points: 2
#     Edge 63, Type (0, 1), BuildingBlock: AJUNOK_clean_linker_0, # of connection points: 2
#     Edge 64, Type (0, 1), BuildingBlock: AJUNOK_clean_linker_0, # of connection points: 2
#     Edge 65, Type (0, 1), BuildingBlock: AJUNOK_clean_linker_0, # of connection points: 2
#     Edge 66, Type (0, 1), BuildingBlock: AJUNOK_clean_linker_0, # of connection points: 2
#     Edge 67, Type (0, 1), BuildingBlock: AJUNOK_clean_linker_0, # of connection points: 2
#     Edge 68, Type (0, 1), BuildingBlock: AJUNOK_clean_linker_0, # of connection points: 2
#     Edge 69, Type (0, 1), BuildingBlock: AJUNOK_clean_linker_0, # of connection points: 2
#     Edge 70, Type (0, 1), BuildingBlock: AJUNOK_clean_linker_0, # of connection points: 2
#     Edge 71, Type (0, 1), BuildingBlock: AJUNOK_clean_linker_0, # of connection points: 2
#     Edge 72, Type (0, 1), BuildingBlock: AJUNOK_clean_linker_0, # of connection points: 2
#     Edge 73, Type (0, 1), BuildingBlock: AJUNOK_clean_linker_0, # of connection points: 2
#     Edge 74, Type (0, 1), BuildingBlock: AJUNOK_clean_linker_0, # of connection points: 2
#     Edge 75, Type (0, 1), BuildingBlock: AJUNOK_clean_linker_0, # of connection points: 2
#     Edge 76, Type (0, 1), BuildingBlock: AJUNOK_clean_linker_0, # of connection points: 2
#     Edge 77, Type (0, 1), BuildingBlock: AJUNOK_clean_linker_0, # of connection points: 2
#     Edge 78, Type (0, 1), BuildingBlock: AJUNOK_clean_linker_0, # of connection points: 2
#     Edge 79, Type (0, 1), BuildingBlock: AJUNOK_clean_linker_0, # of connection points: 2
#     Edge 80, Type (0, 1), BuildingBlock: AJUNOK_clean_linker_0, # of connection points: 2
#     Edge 81, Type (0, 1), BuildingBlock: AJUNOK_clean_linker_0, # of connection points: 2
#     Edge 82, Type (0, 1), BuildingBlock: AJUNOK_clean_linker_0, # of connection points: 2
#     Edge 83, Type (0, 1), BuildingBlock: AJUNOK_clean_linker_0, # of connection points: 2
#     Edge 84, Type (0, 1), BuildingBlock: AJUNOK_clean_linker_0, # of connection points: 2
#     Edge 85, Type (0, 1), BuildingBlock: AJUNOK_clean_linker_0, # of connection points: 2
#     Edge 86, Type (0, 1), BuildingBlock: AJUNOK_clean_linker_0, # of connection points: 2
#     Edge 87, Type (0, 1), BuildingBlock: AJUNOK_clean_linker_0, # of connection points: 2
#     Edge 88, Type (0, 1), BuildingBlock: AJUNOK_clean_linker_0, # of connection points: 2
#     Edge 89, Type (0, 1), BuildingBlock: AJUNOK_clean_linker_0, # of connection points: 2
#     Edge 90, Type (0, 1), BuildingBlock: AJUNOK_clean_linker_0, # of connection points: 2
#     Edge 91, Type (0, 1), BuildingBlock: AJUNOK_clean_linker_0, # of connection points: 2
#     Edge 92, Type (0, 1), BuildingBlock: AJUNOK_clean_linker_0, # of connection points: 2
#     Edge 93, Type (0, 1), BuildingBlock: AJUNOK_clean_linker_0, # of connection points: 2
#     Edge 94, Type (0, 1), BuildingBlock: AJUNOK_clean_linker_0, # of connection points: 2
#     Edge 95, Type (0, 1), BuildingBlock: AJUNOK_clean_linker_0, # of connection points: 2
#     Edge 96, Type (0, 1), BuildingBlock: AJUNOK_clean_linker_0, # of connection points: 2
#     Edge 97, Type (0, 1), BuildingBlock: AJUNOK_clean_linker_0, # of connection points: 2
#     Edge 98, Type (0, 1), BuildingBlock: AJUNOK_clean_linker_0, # of connection points: 2
#     Edge 99, Type (0, 1), BuildingBlock: AJUNOK_clean_linker_0, # of connection points: 2
#     Edge 100, Type (0, 1), BuildingBlock: AJUNOK_clean_linker_0, # of connection points: 2
#     Edge 101, Type (0, 1), BuildingBlock: AJUNOK_clean_linker_0, # of connection points: 2
#     Edge 102, Type (0, 1), BuildingBlock: AJUNOK_clean_linker_0, # of connection points: 2
#     Edge 103, Type (0, 1), BuildingBlock: AJUNOK_clean_linker_0, # of connection points: 2
#     Edge 104, Type (0, 1), BuildingBlock: AJUNOK_clean_linker_0, # of connection points: 2
#     Edge 105, Type (0, 1), BuildingBlock: AJUNOK_clean_linker_0, # of connection points: 2
#     Edge 106, Type (0, 1), BuildingBlock: AJUNOK_clean_linker_0, # of connection points: 2
#     Edge 107, Type (0, 1), BuildingBlock: AJUNOK_clean_linker_0, # of connection points: 2
#     Edge 108, Type (0, 1), BuildingBlock: AJUNOK_clean_linker_0, # of connection points: 2
#     Edge 109, Type (0, 1), BuildingBlock: AJUNOK_clean_linker_0, # of connection points: 2
#     Edge 110, Type (0, 1), BuildingBlock: AJUNOK_clean_linker_0, # of connection points: 2
#     Edge 111, Type (0, 1), BuildingBlock: AJUNOK_clean_linker_0, # of connection points: 2
#     Edge 112, Type (0, 1), BuildingBlock: AJUNOK_clean_linker_0, # of connection points: 2
#     Edge 113, Type (0, 1), BuildingBlock: AJUNOK_clean_linker_0, # of connection points: 2
#     Edge 114, Type (0, 1), BuildingBlock: AJUNOK_clean_linker_0, # of connection points: 2
#     Edge 115, Type (0, 1), BuildingBlock: AJUNOK_clean_linker_0, # of connection points: 2
#     Edge 116, Type (0, 1), BuildingBlock: AJUNOK_clean_linker_0, # of connection points: 2
#     Edge 117, Type (0, 1), BuildingBlock: AJUNOK_clean_linker_0, # of connection points: 2
#     Edge 118, Type (0, 1), BuildingBlock: AJUNOK_clean_linker_0, # of connection points: 2
#     Edge 119, Type (0, 1), BuildingBlock: AJUNOK_clean_linker_0, # of connection points: 2
#     Edge 120, Type (0, 1), BuildingBlock: AJUNOK_clean_linker_0, # of connection points: 2
#     Edge 121, Type (0, 1), BuildingBlock: AJUNOK_clean_linker_0, # of connection points: 2
#     Edge 122, Type (0, 1), BuildingBlock: AJUNOK_clean_linker_0, # of connection points: 2
#     Edge 123, Type (0, 1), BuildingBlock: AJUNOK_clean_linker_0, # of connection points: 2
#     Edge 124, Type (0, 1), BuildingBlock: AJUNOK_clean_linker_0, # of connection points: 2
#     Edge 125, Type (0, 1), BuildingBlock: AJUNOK_clean_linker_0, # of connection points: 2
#     Edge 126, Type (0, 1), BuildingBlock: AJUNOK_clean_linker_0, # of connection points: 2
#     Edge 127, Type (0, 1), BuildingBlock: AJUNOK_clean_linker_0, # of connection points: 2
#     Edge 128, Type (0, 1), BuildingBlock: AJUNOK_clean_linker_0, # of connection points: 2
#     Edge 129, Type (0, 1), BuildingBlock: AJUNOK_clean_linker_0, # of connection points: 2
#     Edge 130, Type (0, 1), BuildingBlock: AJUNOK_clean_linker_0, # of connection points: 2
#     Edge 131, Type (0, 1), BuildingBlock: AJUNOK_clean_linker_0, # of connection points: 2
#     Edge 132, Type (0, 1), BuildingBlock: AJUNOK_clean_linker_0, # of connection points: 2
#     Edge 133, Type (0, 1), BuildingBlock: AJUNOK_clean_linker_0, # of connection points: 2
#     Edge 134, Type (0, 1), BuildingBlock: AJUNOK_clean_linker_0, # of connection points: 2
#     Edge 135, Type (0, 1), BuildingBlock: AJUNOK_clean_linker_0, # of connection points: 2
# Relax obj value: 0.120
# Max RMSD: 0.320
# Mean RMSD: 0.158
data_MOF--net-gar--node1-TATPOV_clean_sbu_0--node2-MIFKUJ_clean_sbu_0--edge1-AJUNOK_clean_linker_0
_symmetry_space_group_name_H-M    P1
_symmetry_Int_Tables_number       1
_symmetry_cell_setting            triclinic
loop_
_symmetry_equiv_pos_as_xyz
'x, y, z'
_cell_length_a     41.82225
_cell_length_b     42.175253
_cell_length_c     40.783391
_cell_angle_alpha  95.567386
_cell_angle_beta   95.787745
_cell_angle_gamma 101.85625
loop_
_atom_site_label
_atom_site_type_symbol
_atom_site_fract_x
_atom_site_fract_y
_atom_site_fract_z
_atom_type_partial_charge
Zn0 Zn 0.00545 0.28449 0.51441 0.0
Zn1 Zn 0.04344 0.28234 0.46558 0.0
O2 O 0.05309 0.32996 0.48728 0.0
O3 O 0.02872 0.33017 0.53265 0.0
O4 O 0.07846 0.28085 0.43475 0.0
O5 O 0.01763 0.24628 0.53362 0.0
O6 O 0.04928 0.24563 0.49382 0.0
C7 C 0.04678 0.34521 0.51357 0.0
C8 C 0.97068 0.27254 0.44612 0.0
O9 O 0.99891 0.27257 0.4369 0.0
O10 O 0.96779 0.2774 0.47677 0.0
C11 C 0.07465 0.26975 0.4041 0.0
O12 O 0.04478 0.25913 0.38838 0.0
C13 C 0.03808 0.23373 0.51897 0.0
Zn14 Zn 1.00412 0.70221 0.68335 0.0
Zn15 Zn 0.00939 0.75453 0.64905 0.0
O16 O 0.97334 0.76007 0.67835 0.0
O17 O 0.97092 0.71953 0.70875 0.0
O18 O 0.01245 0.79163 0.62168 0.0
O19 O 0.05318 0.71702 0.6997 0.0
O20 O 0.05543 0.76047 0.67342 0.0
C21 C 0.96146 0.74491 0.70144 0.0
C22 C 0.9919 0.68558 0.6123 0.0
O23 O 0.99976 0.71632 0.61276 0.0
O24 O 0.98988 0.67306 0.63922 0.0
C25 C 0.98881 0.79103 0.59931 0.0
O26 O 0.96237 0.76743 0.59655 0.0
C27 C 0.06954 0.74337 0.69185 0.0
Zn28 Zn 0.49048 0.77668 0.99079 0.0
Zn29 Zn 0.54072 0.77808 0.95268 0.0
O30 O 0.55113 0.82316 0.98021 0.0
O31 O 0.51416 0.82016 0.01539 0.0
O32 O 0.57818 0.77744 0.92493 0.0
O33 O 0.4992 0.73563 0.00755 0.0
O34 O 0.54131 0.7393 0.97884 0.0
C35 C 0.5393 0.83587 0.00463 0.0
C36 C 0.47079 0.77282 0.91971 0.0
O37 O 0.50086 0.77229 0.91778 0.0
O38 O 0.4604 0.77513 0.94781 0.0
C39 C 0.58345 0.79697 0.90324 0.0
O40 O 0.56511 0.8186 0.90011 0.0
C41 C 0.52367 0.72498 -0.00098 0.0
Zn42 Zn 0.50304 0.19697 0.18572 0.0
Zn43 Zn 0.50742 0.24673 0.14839 0.0
O44 O 0.47151 0.25137 0.17789 0.0
O45 O 0.46867 0.21313 0.21094 0.0
O46 O 0.50539 0.28346 0.12158 0.0
O47 O 0.55246 0.21392 0.20121 0.0
O48 O 0.55436 0.25501 0.17148 0.0
C49 C 0.45893 0.23765 0.20142 0.0
C50 C 0.49042 0.17736 0.11419 0.0
O51 O 0.49822 0.20787 0.11287 0.0
O52 O 0.489 0.16646 0.14202 0.0
C53 C 0.5187 0.2881 0.09533 0.0
O54 O 0.53818 0.26934 0.08532 0.0
C55 C 0.56873 0.2393 0.19131 0.0
Zn56 Zn 0.10309 0.78153 0.13291 0.0
Zn57 Zn 0.05576 0.7802 0.17379 0.0
O58 O 0.05144 0.81652 0.14476 0.0
O59 O 0.0864 0.81527 0.10813 0.0
O60 O 0.01861 0.78185 0.20105 0.0
O61 O 0.08446 0.73327 0.11764 0.0
O62 O 0.04515 0.73386 0.1496 0.0
C63 C 0.06385 0.8272 0.11966 0.0
C64 C 0.12726 0.79552 0.20374 0.0
O65 O 0.0969 0.78877 0.20758 0.0
O66 O 0.13605 0.79562 0.17487 0.0
C67 C 0.00608 0.76043 0.21869 0.0
O68 O 0.01834 0.73431 0.22081 0.0
C69 C 0.05891 0.71855 0.12865 0.0
Zn70 Zn 0.45498 0.72751 0.39661 0.0
Zn71 Zn 0.50744 0.73459 0.36272 0.0
O72 O 0.51252 0.78039 0.38637 0.0
O73 O 0.46784 0.7763 0.41132 0.0
O74 O 0.54656 0.73679 0.33808 0.0
O75 O 0.47365 0.69716 0.42462 0.0
O76 O 0.51363 0.69996 0.39318 0.0
C77 C 0.49423 0.79346 0.40412 0.0
C78 C 0.43832 0.71272 0.32557 0.0
O79 O 0.46912 0.72294 0.32576 0.0
O80 O 0.42611 0.71038 0.35267 0.0
C81 C 0.5577 0.75925 0.32098 0.0
O82 O 0.54315 0.78389 0.31876 0.0
C83 C 0.49943 0.68847 0.41698 0.0
Zn84 Zn 0.59462 0.27973 0.62224 0.0
Zn85 Zn 0.54633 0.27516 0.66242 0.0
O86 O 0.53958 0.3099 0.63239 0.0
O87 O 0.57502 0.31104 0.59609 0.0
O88 O 0.50619 0.27261 0.68595 0.0
O89 O 0.5804 0.23074 0.60778 0.0
O90 O 0.54078 0.22884 0.6396 0.0
C91 C 0.55126 0.32114 0.60722 0.0
C92 C 0.61665 0.29807 0.69391 0.0
O93 O 0.58642 0.28875 0.69761 0.0
O94 O 0.62567 0.29741 0.6651 0.0
C95 C 0.50066 0.26657 0.71501 0.0
O96 O 0.52438 0.26082 0.73573 0.0
C97 C 0.5558 0.21455 0.61908 0.0
Zn98 Zn 0.95486 0.23484 0.90709 0.0
Zn99 Zn 0.00632 0.23929 0.87212 0.0
O100 O 0.01536 0.28542 0.89585 0.0
O101 O 0.97173 0.28327 0.9223 0.0
O102 O 0.04405 0.2374 0.84605 0.0
O103 O 0.97009 0.20165 0.93378 0.0
O104 O 0.00985 0.20353 0.90221 0.0
C105 C 0.99823 0.29944 0.91421 0.0
C106 C 0.93623 0.22549 0.83668 0.0
O107 O 0.96722 0.23285 0.83642 0.0
O108 O 0.92426 0.22181 0.86374 0.0
C109 C 0.05483 0.25702 0.82596 0.0
O110 O 0.04146 0.28217 0.82176 0.0
C111 C 0.99521 0.19191 0.92573 0.0
Zn112 Zn 0.45884 0.98136 0.28477 0.0
Zn113 Zn 0.41678 0.0208 0.283 0.0
O114 O 0.43637 0.02658 0.33225 0.0
O115 O 0.47458 0.99748 0.33175 0.0
O116 O 0.38684 0.05299 0.28226 0.0
O117 O 0.48385 0.00301 0.25192 0.0
O118 O 0.4509 0.03753 0.25206 0.0
C119 C 0.46021 0.01681 0.34703 0.0
C120 C 0.39215 0.94707 0.26406 0.0
O121 O 0.38626 0.97565 0.26652 0.0
O122 O 0.42116 0.94326 0.27129 0.0
C123 C 0.37098 0.05923 0.25621 0.0
O124 O 0.37314 0.04343 0.22742 0.0
C125 C 0.4759 0.02821 0.24232 0.0
Zn126 Zn 0.21589 0.17689 0.50812 0.0
Zn127 Zn 0.26219 0.14087 0.50401 0.0
O128 O 0.26398 0.16693 0.46309 0.0
O129 O 0.23069 0.20068 0.46975 0.0
O130 O 0.29926 0.11654 0.50074 0.0
O131 O 0.23574 0.19492 0.55538 0.0
O132 O 0.27471 0.16754 0.55013 0.0
C133 C 0.25127 0.19004 0.45343 0.0
C134 C 0.19 0.10662 0.50012 0.0
O135 O 0.22027 0.10513 0.50284 0.0
O136 O 0.18174 0.13389 0.49976 0.0
C137 C 0.30686 0.09851 0.52228 0.0
O138 O 0.28946 0.09465 0.54726 0.0
C139 C 0.26171 0.18707 0.56751 0.0
Zn140 Zn 0.10421 0.05582 0.79012 0.0
Zn141 Zn 0.14517 0.01389 0.79182 0.0
O142 O 0.12057 0.00655 0.83362 0.0
O143 O 0.08327 0.03646 0.82819 0.0
O144 O 0.17403 0.98059 0.78835 0.0
O145 O 0.08546 0.03737 0.74276 0.0
O146 O 0.11682 0.00171 0.74653 0.0
C147 C 0.09579 0.01636 0.84351 0.0
C148 C 0.17334 0.08744 0.79729 0.0
O149 O 0.17744 0.05824 0.79384 0.0
O150 O 0.14483 0.09305 0.79848 0.0
C151 C 0.18495 0.9663 0.8117 0.0
O152 O 0.17796 0.97341 0.84187 0.0
C153 C 0.09529 0.01311 0.72988 0.0
Zn154 Zn 0.31836 0.82839 0.02169 0.0
Zn155 Zn 0.28072 0.87209 0.0175 0.0
O156 O 0.27814 0.85041 0.96908 0.0
O157 O 0.30868 0.81369 0.97346 0.0
O158 O 0.24965 0.90345 0.01452 0.0
O159 O 0.28959 0.80366 0.05012 0.0
O160 O 0.25873 0.84006 0.04844 0.0
C161 C 0.29001 0.82728 0.95604 0.0
C162 C 0.35445 0.89382 0.0441 0.0
O163 O 0.32686 0.90119 0.03584 0.0
O164 O 0.35693 0.8643 0.04079 0.0
C165 C 0.24121 0.91793 0.04009 0.0
O166 O 0.25417 0.91362 0.0696 0.0
C167 C 0.26455 0.81361 0.05784 0.0
Zn168 Zn 0.30966 0.33192 0.04346 0.0
Zn169 Zn 0.26591 0.36967 0.04295 0.0
O170 O 0.2567 0.34458 -0.00424 0.0
O171 O 0.29401 0.31467 -0.00464 0.0
O172 O 0.22984 0.39566 0.04334 0.0
O173 O 0.2909 0.30805 0.07978 0.0
O174 O 0.25758 0.34204 0.0828 0.0
C175 C 0.27047 0.32433 0.98033 0.0
C176 C 0.33985 0.40038 0.05166 0.0
O177 O 0.31009 0.40354 0.0469 0.0
O178 O 0.34623 0.3725 0.0536 0.0
C179 C 0.22641 0.41821 0.02546 0.0
O180 O 0.24836 0.42706 0.00535 0.0
C181 C 0.26852 0.31829 0.0935 0.0
Zn182 Zn 0.76527 0.20273 0.03325 0.0
Zn183 Zn 0.80412 0.16621 0.02927 0.0
O184 O 0.8127 0.19296 0.98959 0.0
O185 O 0.7688 0.21409 0.98776 0.0
O186 O 0.8363 0.13596 0.0286 0.0
O187 O 0.79175 0.23367 0.06999 0.0
O188 O 0.818 0.19412 0.0757 0.0
C189 C 0.79407 0.20926 0.97526 0.0
C190 C 0.7305 0.13986 0.03253 0.0
O191 O 0.75759 0.13491 0.02343 0.0
O192 O 0.72795 0.16844 0.04239 0.0
C193 C 0.84162 0.11878 0.00308 0.0
O194 O 0.82518 0.11988 0.97417 0.0
C195 C 0.81254 0.22174 0.08649 0.0
Zn196 Zn 0.10869 0.56555 0.26776 0.0
Zn197 Zn 0.13834 0.51479 0.26784 0.0
O198 O 0.1089 0.50834 0.30456 0.0
O199 O 0.0865 0.55135 0.30603 0.0
O200 O 0.15958 0.47566 0.2669 0.0
O201 O 0.0843 0.54849 0.22371 0.0
O202 O 0.10964 0.50753 0.22239 0.0
C203 C 0.08934 0.52466 0.31637 0.0
C204 C 0.17816 0.58565 0.27831 0.0
O205 O 0.1771 0.55518 0.2777 0.0
O206 O 0.15216 0.59623 0.27344 0.0
C207 C 0.18148 0.47138 0.28908 0.0
O208 O 0.19228 0.49407 0.31445 0.0
C209 C 0.0887 0.52217 0.20923 0.0
Zn210 Zn 0.8134 0.82686 0.54339 0.0
Zn211 Zn 0.77109 0.86598 0.54688 0.0
O212 O 0.76202 0.84406 0.49831 0.0
O213 O 0.79767 0.81259 0.49473 0.0
O214 O 0.73477 0.89151 0.54931 0.0
O215 O 0.79433 0.80081 0.57834 0.0
O216 O 0.76245 0.83583 0.58462 0.0
C217 C 0.77488 0.82429 0.48105 0.0
C218 C 0.84506 0.89562 0.55717 0.0
O219 O 0.81558 0.89985 0.55368 0.0
O220 O 0.85035 0.86701 0.55573 0.0
C221 C 0.72903 0.91241 0.5302 0.0
O222 O 0.74876 0.92 0.50772 0.0
C223 C 0.77254 0.81087 0.59324 0.0
Zn224 Zn 0.95981 0.97211 0.26254 0.0
Zn225 Zn 0.92096 0.01478 0.25741 0.0
O226 O 0.94465 0.02626 0.30542 0.0
O227 O 0.97501 0.98983 0.3106 0.0
O228 O 0.89526 0.05095 0.25329 0.0
O229 O 0.98588 0.98856 0.22643 0.0
O230 O 0.94998 0.0194 0.21807 0.0
C231 C 0.9644 0.01368 0.32326 0.0
C232 C 0.89017 0.94185 0.25147 0.0
O233 O 0.88647 0.97126 0.25421 0.0
O234 O 0.91866 0.93584 0.25194 0.0
C235 C 0.87591 0.05817 0.27368 0.0
O236 O 0.87061 0.04051 0.2982 0.0
C237 C 0.97494 0.00873 0.20985 0.0
Zn238 Zn 0.25296 0.70325 0.50204 0.0
Zn239 Zn 0.29028 0.66195 0.51275 0.0
O240 O 0.31089 0.6882 0.47655 0.0
O241 O 0.28193 0.72598 0.47235 0.0
O242 O 0.3211 0.63077 0.51937 0.0
O243 O 0.26064 0.72158 0.5496 0.0
O244 O 0.29614 0.69049 0.55843 0.0
C245 C 0.30586 0.71395 0.46481 0.0
C246 C 0.21588 0.63855 0.48818 0.0
O247 O 0.243 0.63227 0.5002 0.0
O248 O 0.21408 0.66752 0.48425 0.0
C249 C 0.32857 0.6128 0.49562 0.0
O250 O 0.31441 0.61286 0.46537 0.0
C251 C 0.28212 0.71308 0.56885 0.0
Zn252 Zn 0.45176 0.46788 0.75735 0.0
Zn253 Zn 0.41297 0.511 0.75419 0.0
O254 O 0.43802 0.523 0.80166 0.0
O255 O 0.46798 0.486 0.80519 0.0
O256 O 0.38582 0.54574 0.74891 0.0
O257 O 0.4766 0.48412 0.7203 0.0
O258 O 0.44045 0.51502 0.71399 0.0
C259 C 0.45812 0.51001 0.8186 0.0
C260 C 0.38209 0.43824 0.7485 0.0
O261 O 0.37886 0.46774 0.75202 0.0
O262 O 0.41031 0.4318 0.74769 0.0
C263 C 0.37155 0.5579 0.77165 0.0
O264 O 0.37376 0.54754 0.80097 0.0
C265 C 0.46475 0.50415 0.70431 0.0
Zn266 Zn 0.6172 0.06326 0.76598 0.0
Zn267 Zn 0.6511 0.01801 0.76463 0.0
O268 O 0.62799 0.01089 0.80589 0.0
O269 O 0.60313 0.05213 0.80885 0.0
O270 O 0.67654 0.98213 0.76078 0.0
O271 O 0.58684 0.04289 0.72645 0.0
O272 O 0.61709 0.00606 0.7224 0.0
C273 C 0.60962 0.02702 0.82017 0.0
C274 C 0.68411 0.09073 0.76753 0.0
O275 O 0.68645 0.06129 0.76962 0.0
O276 O 0.65621 0.09787 0.76352 0.0
C277 C 0.69662 0.97613 0.78372 0.0
O278 O 0.70235 0.99469 0.8124 0.0
C279 C 0.5924 0.01725 0.7117 0.0
Zn280 Zn 0.71161 0.67751 0.00955 0.0
Zn281 Zn 0.76012 0.64437 0.0047 0.0
O282 O 0.76142 0.67228 0.96522 0.0
O283 O 0.72506 0.7027 0.97185 0.0
O284 O 0.79873 0.62242 0.00091 0.0
O285 O 0.73112 0.69542 0.05689 0.0
O286 O 0.77137 0.66973 0.05147 0.0
C287 C 0.74719 0.69458 0.956 0.0
C288 C 0.68889 0.60691 -0.00063 0.0
O289 O 0.71947 0.60679 0.00189 0.0
O290 O 0.6793 0.63356 0.00025 0.0
C291 C 0.8061 0.60263 0.02059 0.0
O292 O 0.78726 0.59502 0.04381 0.0
C293 C 0.75754 0.68839 0.06896 0.0
Zn294 Zn 0.96444 0.48121 0.76631 0.0
Zn295 Zn 0.92162 0.52157 0.76935 0.0
O296 O 0.94205 0.52484 0.81799 0.0
O297 O 0.97597 0.4911 0.81525 0.0
O298 O 0.89173 0.55423 0.76814 0.0
O299 O 0.99193 0.50888 0.73887 0.0
O300 O 0.95578 0.54013 0.73928 0.0
C301 C 0.96355 0.5113 0.83193 0.0
C302 C 0.89751 0.44901 0.7423 0.0
O303 O 0.89121 0.4766 0.75162 0.0
O304 O 0.92683 0.44514 0.74512 0.0
C305 C 0.87648 0.56207 0.79208 0.0
O306 O 0.87892 0.5476 0.81904 0.0
C307 C 0.98228 0.53366 0.73025 0.0
Zn308 Zn 0.82502 0.34233 0.52781 0.0
Zn309 Zn 0.78153 0.38097 0.52187 0.0
O310 O 0.78003 0.35825 0.47431 0.0
O311 O 0.81572 0.32651 0.47953 0.0
O312 O 0.74595 0.40739 0.51752 0.0
O313 O 0.79852 0.316 0.55695 0.0
O314 O 0.76341 0.34831 0.55378 0.0
C315 C 0.79453 0.33698 0.4618 0.0
C316 C 0.85437 0.41024 0.54805 0.0
O317 O 0.82552 0.41439 0.53897 0.0
O318 O 0.86002 0.38181 0.54644 0.0
C319 C 0.73639 0.42262 0.54192 0.0
O320 O 0.75155 0.42333 0.5719 0.0
C321 C 0.7721 0.32341 0.56417 0.0
Zn322 Zn 0.60282 0.56111 0.28775 0.0
Zn323 Zn 0.64213 0.51785 0.29 0.0
O324 O 0.61565 0.51288 0.33062 0.0
O325 O 0.57965 0.54413 0.32575 0.0
O326 O 0.66877 0.4827 0.29322 0.0
O327 O 0.58479 0.54162 0.24046 0.0
O328 O 0.61525 0.50502 0.24381 0.0
C329 C 0.59153 0.52358 0.34093 0.0
C330 C 0.67286 0.59074 0.295 0.0
O331 O 0.67613 0.56124 0.29164 0.0
O332 O 0.64463 0.59713 0.29612 0.0
C333 C 0.68655 0.47468 0.2716 0.0
O334 O 0.68922 0.49069 0.24558 0.0
C335 C 0.59405 0.51709 0.22737 0.0
Zn336 Zn 0.07231 0.00174 0.0425 0.0
Zn337 Zn 1.00349 0.02476 0.01107 0.0
C338 C 0.05208 0.94841 0.07352 0.0
O339 O 0.06824 0.97128 0.0969 0.0
C340 C 0.02274 0.0775 0.97784 0.0
O341 O 0.01018 0.05346 0.95425 0.0
O342 O 0.11994 0.99698 0.05264 0.0
O343 O 0.07061 0.01459 -0.00404 0.0
O344 O 0.01864 0.99508 0.97599 0.0
C345 C 0.12728 0.97757 0.02999 0.0
O346 O 0.10473 0.96447 0.00488 0.0
O347 O 0.04822 0.95536 0.04392 0.0
C348 C 0.94854 0.04991 0.02016 0.0
O349 O 0.96948 0.06168 0.04688 0.0
O350 O 0.95632 0.02957 -0.00124 0.0
O351 O 0.00467 0.01427 0.05855 0.0
O352 O 0.05705 0.0295 0.07952 0.0
O353 O 0.02637 0.07116 0.00771 0.0
C354 C 0.0489 0.00195 0.97156 0.0
C355 C 0.0266 0.02379 0.08348 0.0
Zn356 Zn 0.30469 0.76841 0.2934 0.0
Zn357 Zn 0.27558 0.75417 0.22495 0.0
C358 C 0.27503 0.70372 0.31256 0.0
O359 O 0.2808 0.71726 0.34354 0.0
C360 C 0.2941 0.82696 0.22102 0.0
O361 O 0.26727 0.82503 0.20061 0.0
O362 O 0.32645 0.77922 0.34027 0.0
O363 O 0.33951 0.77004 0.26234 0.0
O364 O 0.30957 0.72678 0.23128 0.0
C365 C 0.34857 0.76432 0.34985 0.0
O366 O 0.36094 0.74762 0.32747 0.0
O367 O 0.28281 0.72092 0.28954 0.0
C368 C 0.22791 0.75551 0.16935 0.0
O369 O 0.21171 0.76662 0.19221 0.0
O370 O 0.25424 0.74622 0.17808 0.0
O371 O 0.24038 0.74876 0.25511 0.0
O372 O 0.26778 0.79314 0.28611 0.0
O373 O 0.30024 0.80136 0.23198 0.0
C374 C 0.33765 0.74279 0.24503 0.0
C375 C 0.24033 0.77486 0.2734 0.0
Zn376 Zn 0.47812 0.01596 0.54183 0.0
Zn377 Zn 0.54747 0.97906 0.51609 0.0
C378 C 0.50332 0.07564 0.57934 0.0
O379 O 0.4822 0.06023 0.59732 0.0
C380 C 0.5344 0.92876 0.46332 0.0
O381 O 0.5572 0.95024 0.45264 0.0
O382 O 0.43156 0.0244 0.53999 0.0
O383 O 0.48401 0.99439 0.49802 0.0
O384 O 0.53484 0.01351 0.4898 0.0
C385 C 0.42664 0.04744 0.52337 0.0
O386 O 0.451 0.06291 0.50906 0.0
O387 O 0.50781 0.06066 0.55218 0.0
C388 C 0.60288 0.95183 0.52862 0.0
O389 O 0.57865 0.93005 0.53675 0.0
O390 O 0.59635 0.97772 0.51841 0.0
O391 O 0.53558 0.98008 0.56251 0.0
O392 O 0.4899 0.99173 0.57923 0.0
O393 O 0.52421 0.93619 0.49074 0.0
C394 C 0.50418 0.01164 0.48224 0.0
C395 C 0.51686 0.98247 0.58491 0.0
Zn396 Zn 0.31142 0.25911 0.77406 0.0
Zn397 Zn 0.24322 0.26624 0.76991 0.0
C398 C 0.30623 0.2258 0.70848 0.0
O399 O 0.32474 0.2094 0.72478 0.0
C400 C 0.24401 0.29716 0.83615 0.0
O401 O 0.22622 0.31434 0.82002 0.0
O402 O 0.35969 0.25774 0.77682 0.0
O403 O 0.30941 0.30585 0.78842 0.0
O404 O 0.26939 0.3029 0.74835 0.0
C405 C 0.37391 0.27613 0.75728 0.0
O406 O 0.35756 0.29527 0.74243 0.0
O407 O 0.29613 0.24847 0.72448 0.0
C408 C 0.17779 0.24514 0.77808 0.0
O409 O 0.19233 0.22393 0.79152 0.0
O410 O 0.19499 0.26726 0.76421 0.0
O411 O 0.24617 0.21942 0.75667 0.0
O412 O 0.28623 0.22308 0.79698 0.0
O413 O 0.25535 0.27569 0.81971 0.0
C414 C 0.29468 0.31949 0.76693 0.0
C415 C 0.26087 0.20625 0.77864 0.0
Zn416 Zn 0.01954 0.96723 0.52429 0.0
Zn417 Zn 0.01825 0.03545 0.53365 0.0
C418 C 0.05452 0.96993 0.589 0.0
O419 O 0.07094 0.95236 0.5717 0.0
C420 C 0.99039 0.04435 0.46743 0.0
O421 O 0.97848 0.06666 0.48396 0.0
O422 O 0.01919 0.91936 0.52097 0.0
O423 O 0.97308 0.97258 0.51213 0.0
O424 O 0.9803 0.01017 0.5547 0.0
C425 C 0.99256 0.89821 0.51999 0.0
O426 O 0.96444 0.90672 0.51271 0.0
O427 O 0.03126 0.98017 0.5739 0.0
C428 C 0.04639 0.10128 0.5342 0.0
O429 O 0.0656 0.08708 0.5171 0.0
O430 O 0.02278 0.08344 0.54569 0.0
O431 O 0.06423 0.02794 0.54451 0.0
O432 O 0.05631 0.99127 0.50101 0.0
O433 O 0.00728 0.0277 0.48348 0.0
C434 C 0.96156 0.98638 0.53592 0.0
C435 C 0.07547 0.01426 0.52046 0.0
Zn436 Zn 0.27359 0.80547 0.75737 0.0
Zn437 Zn 0.30674 0.73669 0.77586 0.0
C438 C 0.21161 0.78487 0.7255 0.0
O439 O 0.22698 0.80669 0.70827 0.0
C440 C 0.37619 0.74943 0.8011 0.0
O441 O 0.37677 0.72376 0.78036 0.0
O442 O 0.26441 0.85145 0.76247 0.0
O443 O 0.29954 0.80094 0.79937 0.0
O444 O 0.27557 0.75135 0.80634 0.0
C445 C 0.24482 0.85491 0.78395 0.0
O446 O 0.23413 0.83016 0.80011 0.0
O447 O 0.22794 0.77695 0.75027 0.0
C448 C 0.3125 0.67024 0.75285 0.0
O449 O 0.31069 0.6812 0.72388 0.0
O450 O 0.30869 0.68861 0.77823 0.0
O451 O 0.30297 0.74589 0.72755 0.0
O452 O 0.2941 0.79438 0.71696 0.0
O453 O 0.35035 0.76085 0.80005 0.0
C454 C 0.2841 0.78162 0.81712 0.0
C455 C 0.30033 0.76686 0.70745 0.0
Zn456 Zn 0.534 0.02349 -0.00219 0.0
Zn457 Zn 0.53707 0.03027 0.06736 0.0
C458 C 0.59949 0.06346 -0.00249 0.0
O459 O 0.58618 0.06954 0.96889 0.0
C460 C 0.47994 0.98637 0.07814 0.0
O461 O 0.50219 0.98192 0.10132 0.0
O462 O 0.53339 0.01529 0.94915 0.0
O463 O 0.52381 0.979 0.01134 0.0
O464 O 0.56111 0.99417 0.05494 0.0
C465 C 0.55611 0.00119 0.94131 0.0
O466 O 0.57546 0.99335 0.96509 0.0
O467 O 0.58207 0.0451 0.01498 0.0
C468 C 0.53606 0.06682 0.12937 0.0
O469 O 0.52655 0.0872 0.11019 0.0
O470 O 0.54561 0.04232 0.11637 0.0
O471 O 0.5441 0.07316 0.04786 0.0
O472 O 0.50334 0.05317 0.00898 0.0
O473 O 0.48849 0.00801 0.05915 0.0
C474 C 0.545 0.97212 0.03235 0.0
C475 C 0.5192 0.07701 0.02954 0.0
Zn476 Zn 0.27817 0.22231 0.25851 0.0
Zn477 Zn 0.23602 0.28676 0.29079 0.0
C478 C 0.33764 0.26275 0.24295 0.0
O479 O 0.31785 0.26777 0.21786 0.0
C480 C 0.19071 0.27872 0.33507 0.0
O481 O 0.21766 0.2976 0.3514 0.0
O482 O 0.28687 0.17702 0.24715 0.0
O483 O 0.2561 0.21956 0.3001 0.0
O484 O 0.26808 0.2706 0.32354 0.0
C485 C 0.30732 0.16985 0.26905 0.0
O486 O 0.31857 0.19088 0.29568 0.0
O487 O 0.32518 0.24877 0.26641 0.0
C488 C 0.2149 0.34334 0.28208 0.0
O489 O 0.19356 0.3199 0.26302 0.0
O490 O 0.23899 0.33581 0.29903 0.0
O491 O 0.23838 0.27937 0.24074 0.0
O492 O 0.25443 0.23604 0.21876 0.0
O493 O 0.19087 0.26868 0.30458 0.0
C494 C 0.2642 0.24014 0.32598 0.0
C495 C 0.2435 0.26172 0.21548 0.0
Zn496 Zn 0.52051 0.46443 0.02039 0.0
Zn497 Zn 0.51725 0.53124 0.0283 0.0
C498 C 0.55423 0.46982 0.08701 0.0
O499 O 0.57131 0.45124 0.07196 0.0
C500 C 0.48751 0.53835 0.96275 0.0
O501 O 0.47346 0.55828 0.98012 0.0
O502 O 0.52083 0.41669 0.01764 0.0
O503 O 0.47351 0.4681 0.00647 0.0
O504 O 0.47933 0.50577 0.04884 0.0
C505 C 0.49967 0.40198 0.03443 0.0
O506 O 0.47957 0.41832 0.04748 0.0
O507 O 0.53122 0.47877 0.06997 0.0
C508 C 0.54124 0.59762 0.02727 0.0
O509 O 0.56236 0.58495 0.01146 0.0
O510 O 0.51891 0.57867 0.03928 0.0
O511 O 0.56384 0.52593 0.04006 0.0
O512 O 0.55733 0.48857 -0.00268 0.0
O513 O 0.50665 0.52325 0.97805 0.0
C514 C 0.46102 0.4824 0.02922 0.0
C515 C 0.57583 0.51207 0.01668 0.0
Zn516 Zn 0.77258 0.30649 0.25906 0.0
Zn517 Zn 0.8139 0.24019 0.28889 0.0
C518 C 0.71126 0.28201 0.22357 0.0
O519 O 0.72673 0.30216 0.20478 0.0
C520 C 0.85581 0.24756 0.34663 0.0
O521 O 0.82893 0.22772 0.35242 0.0
O522 O 0.76304 0.3521 0.25776 0.0
O523 O 0.79477 0.30627 0.30459 0.0
O524 O 0.77951 0.25554 0.31497 0.0
C525 C 0.74073 0.35765 0.27528 0.0
O526 O 0.72676 0.33445 0.29181 0.0
O527 O 0.72728 0.27677 0.24998 0.0
C528 C 0.83517 0.18258 0.271 0.0
O529 O 0.85607 0.20527 0.2595 0.0
O530 O 0.81156 0.19086 0.2848 0.0
O531 O 0.81795 0.2542 0.24335 0.0
O532 O 0.7992 0.29502 0.22352 0.0
O533 O 0.85661 0.25798 0.31843 0.0
C534 C 0.78257 0.28605 0.32341 0.0
C535 C 0.81469 0.2721 0.22042 0.0
Zn536 Zn 0.02147 0.5281 0.4907 0.0
Zn537 Zn 0.03725 0.54166 0.55937 0.0
C538 C 0.08243 0.5641 0.47397 0.0
O539 O 0.06137 0.57071 0.45088 0.0
C540 C 0.97795 0.50455 0.57844 0.0
O541 O 0.9996 0.49961 0.60199 0.0
O542 O 0.01072 0.51459 0.44245 0.0
O543 O 0.01162 0.48682 0.51087 0.0
O544 O 0.05718 0.503 0.5448 0.0
C545 C 0.02884 0.49595 0.43219 0.0
O546 O 0.04737 0.48479 0.45427 0.0
O547 O 0.07133 0.54669 0.49586 0.0
C548 C 0.04342 0.58032 0.6212 0.0
O549 O 0.03393 0.60101 0.60239 0.0
O550 O 0.05165 0.55531 0.60761 0.0
O551 O 0.04348 0.5826 0.53642 0.0
O552 O 0.9971 0.56238 0.50498 0.0
O553 O 0.98797 0.52314 0.55712 0.0
C554 C 0.03623 0.47999 0.52709 0.0
C555 C 0.01659 0.58677 0.52192 0.0
Zn556 Zn 0.81649 0.75997 0.27521 0.0
Zn557 Zn 0.74936 0.77017 0.27076 0.0
C558 C 0.80809 0.72698 0.20876 0.0
O559 O 0.82583 0.70887 0.22349 0.0
C560 C 0.7493 0.80139 0.33641 0.0
O561 O 0.73274 0.81891 0.31932 0.0
O562 O 0.86371 0.75513 0.27816 0.0
O563 O 0.81714 0.80759 0.28958 0.0
O564 O 0.77716 0.80627 0.24986 0.0
C565 C 0.88225 0.77583 0.26384 0.0
O566 O 0.87004 0.79909 0.25153 0.0
O567 O 0.80095 0.75077 0.22595 0.0
C568 C 0.68303 0.75125 0.27662 0.0
O569 O 0.69559 0.72828 0.28907 0.0
O570 O 0.70177 0.77327 0.26404 0.0
O571 O 0.75009 0.72279 0.25701 0.0
O572 O 0.78922 0.72461 0.29768 0.0
O573 O 0.76059 0.77932 0.3208 0.0
C574 C 0.80295 0.82195 0.26832 0.0
C575 C 0.76372 0.7087 0.27889 0.0
Zn576 Zn 0.79121 0.28403 0.8017 0.0
Zn577 Zn 0.77 0.26628 0.73301 0.0
C578 C 0.77861 0.21123 0.80568 0.0
O579 O 0.80558 0.21521 0.82643 0.0
C580 C 0.80688 0.32422 0.71143 0.0
O581 O 0.80889 0.30302 0.68634 0.0
O582 O 0.80394 0.29365 0.85054 0.0
O583 O 0.8314 0.28875 0.77786 0.0
O584 O 0.80707 0.24385 0.74564 0.0
C585 C 0.82609 0.28134 0.86475 0.0
O586 O 0.84976 0.27482 0.84812 0.0
O587 O 0.76979 0.23583 0.79493 0.0
C588 C 0.72789 0.26206 0.67321 0.0
O589 O 0.70991 0.27447 0.69336 0.0
O590 O 0.75264 0.25207 0.68545 0.0
O591 O 0.73116 0.26232 0.75891 0.0
O592 O 0.75564 0.30855 0.78832 0.0
O593 O 0.79066 0.31428 0.73456 0.0
C594 C 0.83326 0.26221 0.7612 0.0
C595 C 0.72925 0.28934 0.7743 0.0
Zn596 Zn 0.78561 0.7238 0.76517 0.0
Zn597 Zn 0.74516 0.79249 0.79043 0.0
C598 C 0.84326 0.76898 0.75095 0.0
O599 O 0.82292 0.7768 0.72802 0.0
C600 C 0.69521 0.80169 0.82912 0.0
O601 O 0.71944 0.82632 0.84141 0.0
O602 O 0.79652 0.67865 0.75968 0.0
O603 O 0.76181 0.72373 0.80554 0.0
O604 O 0.77321 0.77585 0.82616 0.0
C605 C 0.81412 0.67337 0.78512 0.0
O606 O 0.82268 0.69637 0.81046 0.0
O607 O 0.83141 0.75231 0.77297 0.0
C608 C 0.73411 0.85105 0.77215 0.0
O609 O 0.71233 0.82843 0.75258 0.0
O610 O 0.75462 0.84212 0.79264 0.0
O611 O 0.74594 0.77744 0.74126 0.0
O612 O 0.7622 0.73303 0.72279 0.0
O613 O 0.6993 0.78172 0.80514 0.0
C614 C 0.76708 0.74569 0.83025 0.0
C615 C 0.75041 0.75779 0.71724 0.0
Zn616 Zn 0.56048 0.49739 0.53788 0.0
Zn617 Zn 0.49416 0.52267 0.50441 0.0
C618 C 0.53466 0.44261 0.56599 0.0
O619 O 0.54773 0.46441 0.59152 0.0
C620 C 0.51681 0.57423 0.47258 0.0
O621 O 0.50004 0.55113 0.44974 0.0
O622 O 0.60757 0.49142 0.54936 0.0
O623 O 0.56127 0.51177 0.49216 0.0
O624 O 0.51002 0.49368 0.46892 0.0
C625 C 0.61412 0.4698 0.52845 0.0
O626 O 0.59089 0.45511 0.50452 0.0
O627 O 0.53464 0.45127 0.53698 0.0
C628 C 0.44161 0.55182 0.51312 0.0
O629 O 0.4649 0.5657 0.53732 0.0
O630 O 0.44739 0.52957 0.49242 0.0
O631 O 0.49329 0.51057 0.55116 0.0
O632 O 0.54492 0.52518 0.57437 0.0
O633 O 0.52019 0.56818 0.50253 0.0
C634 C 0.54079 0.50074 0.4664 0.0
C635 C 0.51417 0.51991 0.57692 0.0
Zn636 Zn 0.98075 0.52543 0.0362 0.0
Zn637 Zn 0.04884 0.49167 0.00998 0.0
C638 C 1.0034 0.58198 0.0789 0.0
O639 O 0.98088 0.56421 0.09369 0.0
C640 C 0.03485 0.43845 0.96018 0.0
O641 O 0.05777 0.45857 0.94807 0.0
O642 O 0.93419 0.53338 0.03647 0.0
O643 O 0.9833 0.50936 0.98908 0.0
O644 O 0.03572 0.52589 0.98332 0.0
C645 C 0.92927 0.55738 0.02139 0.0
O646 O 0.95383 0.57407 0.00824 0.0
O647 O 0.01004 0.56985 0.05125 0.0
C648 C 0.103 0.46332 0.02194 0.0
O649 O 0.07837 0.44327 0.0317 0.0
O650 O 0.09733 0.48894 0.01033 0.0
O651 O 0.04098 0.49298 0.05744 0.0
O652 O 0.99156 0.49714 0.07051 0.0
O653 O 0.02439 0.44828 0.98667 0.0
C654 C 0.00542 0.52218 0.97233 0.0
C655 C 0.02015 0.49194 0.07811 0.0
C656 C 0.02576 0.14689 0.92642 0.0
C657 C 0.00673 0.16599 0.94257 0.0
C658 C 0.03338 0.11954 0.93964 0.0
C659 C 0.02309 0.11083 0.96989 0.0
H660 H 0.03325 0.15194 0.90245 0.0
H661 H 0.04599 0.10411 0.92525 0.0
S662 S 0.97581 0.15459 0.0238 0.0
N663 N 0.97991 0.17559 0.99178 0.0
N664 N 0.99511 0.12461 0.0169 0.0
C665 C 0.00616 0.13098 0.98751 0.0
C666 C 0.99772 0.15844 0.97373 0.0
C667 C 0.18247 0.82041 0.23495 0.0
C668 C 0.15262 0.79716 0.23201 0.0
C669 C 0.21071 0.816 0.25406 0.0
C670 C 0.21008 0.78743 0.26933 0.0
H671 H 0.18467 0.84066 0.22027 0.0
H672 H 0.23386 0.83289 0.25335 0.0
S673 S 0.13681 0.72246 0.27403 0.0
N674 N 0.12284 0.74775 0.25065 0.0
N675 N 0.17641 0.73847 0.28482 0.0
C676 C 0.17961 0.7661 0.26971 0.0
C677 C 0.15069 0.77114 0.25126 0.0
C678 C 0.48652 0.84148 0.441 0.0
C679 C 0.50401 0.82858 0.41715 0.0
C680 C 0.49606 0.87408 0.45512 0.0
C681 C 0.52334 0.89525 0.44581 0.0
H682 H 0.46559 0.82616 0.44944 0.0
H683 H 0.48212 0.8826 0.47384 0.0
S684 S 0.57654 0.87419 0.38306 0.0
N685 N 0.54927 0.83999 0.38383 0.0
N686 N 0.56713 0.90132 0.41029 0.0
C687 C 0.54053 0.88301 0.42126 0.0
C688 C 0.53092 0.84968 0.40699 0.0
C689 C 0.46208 0.26533 0.75873 0.0
C690 C 0.4677 0.26723 0.72537 0.0
C691 C 0.43144 0.26755 0.76907 0.0
C692 C 0.40562 0.27217 0.74647 0.0
H693 H 0.48158 0.26259 0.77711 0.0
H694 H 0.4282 0.26647 0.79499 0.0
S695 S 0.40588 0.2746 0.65582 0.0
N696 N 0.44335 0.27101 0.66933 0.0
N697 N 0.3864 0.27558 0.68897 0.0
C698 C 0.41048 0.27299 0.71297 0.0
C699 C 0.44135 0.27043 0.70237 0.0
C700 C 0.96189 0.82197 0.55963 0.0
C701 C 0.99083 0.81655 0.57668 0.0
C702 C 0.96288 0.84726 0.53965 0.0
C703 C 0.99291 0.86797 0.5357 0.0
H704 H 0.93809 0.80731 0.56261 0.0
H705 H 0.93974 0.85132 0.52829 0.0
S706 S 0.07617 0.86112 0.57164 0.0
N707 N 0.05064 0.83197 0.58603 0.0
N708 N 0.05268 0.87911 0.54805 0.0
C709 C 0.02224 0.86151 0.55106 0.0
C710 C 0.02116 0.83598 0.57173 0.0
C711 C 0.45433 0.75452 0.85907 0.0
C712 C 0.44779 0.77009 0.88899 0.0
C713 C 0.4317 0.7493 0.83026 0.0
C714 C 0.40193 0.75994 0.8301 0.0
H715 H 0.47654 0.74519 0.85816 0.0
H716 H 0.43721 0.73602 0.80819 0.0
S717 S 0.37483 0.80529 0.90125 0.0
N718 N 0.4106 0.79832 0.91616 0.0
N719 N 0.36833 0.78909 0.86204 0.0
C720 C 0.39595 0.77718 0.85945 0.0
C721 C 0.41877 0.78203 0.8889 0.0
C722 C 0.51748 0.16094 0.06614 0.0
C723 C 0.49059 0.15466 0.08444 0.0
C724 C 0.52469 0.13606 0.04474 0.0
C725 C 0.50463 0.10453 0.04019 0.0
H726 H 0.53497 0.1842 0.07091 0.0
H727 H 0.54757 0.14078 0.03391 0.0
S728 S 0.42781 0.07753 0.0773 0.0
N729 N 0.44132 0.11614 0.09315 0.0
N730 N 0.45433 0.0695 0.05196 0.0
C731 C 0.47552 0.09905 0.05519 0.0
C732 C 0.46864 0.12415 0.0777 0.0
C733 C 0.1013 0.26731 0.35145 0.0
C734 C 0.10393 0.269 0.38637 0.0
C735 C 0.12922 0.26881 0.33455 0.0
C736 C 0.16071 0.27204 0.35201 0.0
H737 H 0.07768 0.26587 0.33712 0.0
H738 H 0.1263 0.26882 0.30786 0.0
S739 S 0.18022 0.27211 0.44288 0.0
N740 N 0.14022 0.27024 0.43725 0.0
N741 N 0.19234 0.27318 0.40566 0.0
C742 C 0.16335 0.27194 0.38667 0.0
C743 C 0.13508 0.2704 0.40381 0.0
C744 C 0.96966 0.02117 0.15098 0.0
C745 C 0.98979 0.01749 0.17943 0.0
C746 C 0.98221 0.0244 0.12051 0.0
C747 C 0.01563 0.02485 0.11729 0.0
H748 H 0.94361 0.01986 0.15178 0.0
H749 H 0.96519 0.02564 0.09908 0.0
S750 S 0.07959 0.0206 0.18582 0.0
N751 N 0.04531 0.01706 0.20333 0.0
N752 N 0.06926 0.0248 0.14658 0.0
C753 C 0.0365 0.02347 0.1462 0.0
C754 C 0.02349 0.01929 0.17707 0.0
C755 C 0.33868 0.71006 0.41724 0.0
C756 C 0.32626 0.7293 0.44078 0.0
C757 C 0.35026 0.72298 0.38916 0.0
C758 C 0.34948 0.75539 0.3839 0.0
H759 H 0.33677 0.68428 0.41895 0.0
H760 H 0.35654 0.70651 0.36998 0.0
S761 S 0.32805 0.81782 0.44289 0.0
N762 N 0.32057 0.78394 0.46065 0.0
N763 N 0.34186 0.80794 0.40762 0.0
C764 C 0.34118 0.77579 0.40936 0.0
C765 C 0.32956 0.76276 0.43789 0.0
C766 C 0.53946 0.01009 0.67553 0.0
C767 C 0.56998 0.00122 0.68184 0.0
C768 C 0.52002 0.00042 0.64497 0.0
C769 C 0.53055 0.98174 0.6195 0.0
H770 H 0.53125 0.02617 0.69366 0.0
H771 H 0.49812 0.01011 0.64047 0.0
S772 S 0.60411 0.9451 0.62654 0.0
N773 N 0.60671 0.96757 0.66257 0.0
N774 N 0.56993 0.94911 0.60487 0.0
C775 C 0.55893 0.96935 0.62692 0.0
C776 C 0.57879 0.97921 0.65818 0.0
C777 C 0.24369 0.33319 0.92523 0.0
C778 C 0.26148 0.31478 0.94399 0.0
C779 C 0.23809 0.32717 0.89049 0.0
C780 C 0.24992 0.3024 0.873 0.0
H781 H 0.23479 0.35311 0.93733 0.0
H782 H 0.22472 0.34245 0.87729 0.0
S783 S 0.29547 0.24523 0.91053 0.0
N784 N 0.28921 0.26932 0.94253 0.0
N785 N 0.2786 0.25797 0.87734 0.0
C786 C 0.26684 0.28307 0.8915 0.0
C787 C 0.27261 0.28925 0.92691 0.0
C788 C 0.99381 0.00937 0.37872 0.0
C789 C 0.97272 0.02451 0.35955 0.0
C790 C 0.99957 0.01625 0.41337 0.0
C791 C 0.98455 0.03863 0.43052 0.0
H792 H 0.00559 0.99143 0.36701 0.0
H793 H 0.0157 0.00353 0.42678 0.0
S794 S 0.92852 0.08643 0.39209 0.0
N795 N 0.93775 0.06406 0.36039 0.0
N796 N 0.94861 0.07707 0.42548 0.0
C797 C 0.96413 0.05474 0.41167 0.0
C798 C 0.95824 0.04769 0.37626 0.0
C799 C 0.30767 0.7159 0.62772 0.0
C800 C 0.2903 0.72951 0.60343 0.0
C801 C 0.31272 0.72946 0.6611 0.0
C802 C 0.30054 0.75706 0.67153 0.0
H803 H 0.31651 0.694 0.62116 0.0
H804 H 0.32557 0.71766 0.67896 0.0
S805 S 0.25788 0.80494 0.6168 0.0
N806 N 0.26438 0.77458 0.59151 0.0
N807 N 0.27355 0.79964 0.6541 0.0
C808 C 0.28518 0.77224 0.6471 0.0
C809 C 0.28003 0.75849 0.61314 0.0
C810 C 0.56682 0.02831 0.85757 0.0
C811 C 0.59427 0.01626 0.84917 0.0
C812 C 0.55296 0.02117 0.88629 0.0
C813 C 0.56624 0.00194 0.9079 0.0
H814 H 0.55631 0.04413 0.84226 0.0
H815 H 0.5328 0.03228 0.89235 0.0
S816 S 0.6348 0.96029 0.89464 0.0
N817 N 0.63191 0.9811 0.8626 0.0
N818 N 0.60578 0.96756 0.91708 0.0
C819 C 0.59217 0.98772 0.89865 0.0
C820 C 0.60626 0.99494 0.86915 0.0
C821 C 0.26102 0.27124 0.12695 0.0
C822 C 0.25643 0.30279 0.12255 0.0
C823 C 0.25427 0.25725 0.15598 0.0
C824 C 0.243 0.27429 0.18235 0.0
H825 H 0.27092 0.25746 0.10814 0.0
H826 H 0.25962 0.23345 0.1583 0.0
S827 S 0.22351 0.35646 0.18188 0.0
N828 N 0.23702 0.34959 0.14575 0.0
N829 N 0.22473 0.32365 0.2006 0.0
C830 C 0.23635 0.30514 0.17743 0.0
C831 C 0.24297 0.31928 0.14754 0.0
C832 C 0.20295 0.94946 0.06562 0.0
C833 C 0.21473 0.93682 0.03695 0.0
C834 C 0.17575 0.96435 0.06339 0.0
C835 C 0.15912 0.96701 0.03241 0.0
H836 H 0.21414 0.94694 0.09009 0.0
H837 H 0.16678 0.97243 0.08607 0.0
S838 S 0.18237 0.94201 0.94981 0.0
N839 N 0.20925 0.93112 0.97654 0.0
N840 N 0.15826 0.95876 0.97246 0.0
C841 C 0.17163 0.95609 0.00361 0.0
C842 C 0.19937 0.94112 0.00583 0.0
C843 C 0.6368 0.56791 0.97519 0.0
C844 C 0.66418 0.57662 -0.00021 0.0
C845 C 0.60926 0.54385 0.97912 0.0
C846 C 0.6079 0.52873 0.00834 0.0
H847 H 0.636 0.58096 0.95361 0.0
H848 H 0.58783 0.53918 0.9606 0.0
S849 S 0.67383 0.54165 0.07914 0.0
N850 N 0.68927 0.56654 0.05301 0.0
N851 N 0.63673 0.52262 0.06124 0.0
C852 C 0.63571 0.53607 0.03229 0.0
C853 C 0.66411 0.55975 0.02781 0.0
C854 C 0.72105 0.43685 0.24981 0.0
C855 C 0.70229 0.44617 0.27448 0.0
C856 C 0.73434 0.40884 0.25072 0.0
C857 C 0.72917 0.38881 0.27618 0.0
H858 H 0.7251 0.45096 0.22921 0.0
H859 H 0.74793 0.40235 0.23078 0.0
S860 S 0.68435 0.40364 0.3484 0.0
N861 N 0.68123 0.43396 0.32642 0.0
N862 N 0.70572 0.38142 0.32788 0.0
C863 C 0.71135 0.39836 0.30156 0.0
C864 C 0.69807 0.42698 0.30079 0.0
C865 C 0.90672 0.43451 0.58426 0.0
C866 C 0.88241 0.43809 0.55933 0.0
C867 C 0.93667 0.45729 0.59158 0.0
C868 C 0.94388 0.48433 0.57378 0.0
H869 H 0.90305 0.4132 0.59745 0.0
H870 H 0.9549 0.45262 0.61025 0.0
S871 S 0.88707 0.50649 0.50816 0.0
N872 N 0.86617 0.47207 0.51868 0.0
N873 N 0.92287 0.51485 0.53193 0.0
C874 C 0.91901 0.48921 0.55 0.0
C875 C 0.88816 0.46612 0.54292 0.0
C876 C 0.3519 0.10321 0.28958 0.0
C877 C 0.35205 0.08555 0.2585 0.0
C878 C 0.33646 0.12963 0.29261 0.0
C879 C 0.32023 0.1396 0.26476 0.0
H880 H 0.36441 0.09707 0.31188 0.0
H881 H 0.33772 0.14266 0.31711 0.0
S882 S 0.31174 0.10077 0.17781 0.0
N883 N 0.33325 0.07926 0.19924 0.0
N884 N 0.30411 0.12897 0.20511 0.0
C885 C 0.31912 0.12159 0.23362 0.0
C886 C 0.33506 0.09462 0.23045 0.0
C887 C 0.3451 0.06498 0.54549 0.0
C888 C 0.33616 0.08359 0.52051 0.0
C889 C 0.37373 0.05234 0.54568 0.0
C890 C 0.39477 0.05805 0.52108 0.0
H891 H 0.33021 0.06056 0.5655 0.0
H892 H 0.37992 0.0389 0.56586 0.0
S893 S 0.38127 0.10245 0.44833 0.0
N894 N 0.34981 0.10494 0.46911 0.0
N895 N 0.40351 0.08158 0.46971 0.0
C896 C 0.38561 0.07564 0.49536 0.0
C897 C 0.35638 0.08828 0.495 0.0
C898 C 0.7091 0.64449 0.31873 0.0
C899 C 0.70107 0.61787 0.29356 0.0
C900 C 0.73184 0.67309 0.315 0.0
C901 C 0.74628 0.67632 0.28549 0.0
H902 H 0.69688 0.64359 0.34092 0.0
H903 H 0.73643 0.69356 0.33435 0.0
S904 S 0.7339 0.61361 0.21255 0.0
N905 N 0.71049 0.59603 0.23891 0.0
N906 N 0.75182 0.65044 0.23121 0.0
C907 C 0.73913 0.64962 0.26058 0.0
C908 C 0.71685 0.62018 0.2648 0.0
C909 C 0.84402 0.41203 0.74785 0.0
C910 C 0.87092 0.42032 0.73 0.0
C911 C 0.82242 0.38132 0.7407 0.0
C912 C 0.82676 0.35811 0.71515 0.0
H913 H 0.84084 0.42851 0.76876 0.0
H914 H 0.80295 0.37531 0.75614 0.0
S915 S 0.89084 0.37058 0.658 0.0
N916 N 0.89895 0.40472 0.68375 0.0
N917 N 0.85808 0.34742 0.6696 0.0
C918 C 0.85219 0.3673 0.69553 0.0
C919 C 0.87439 0.3983 0.70319 0.0
C920 C 0.06117 0.86178 0.07339 0.0
C921 C 0.05387 0.85519 0.10537 0.0
C922 C 0.05709 0.89093 0.06139 0.0
C923 C 0.04602 0.91456 0.0812 0.0
H924 H 0.07154 0.845 0.05809 0.0
H925 H 0.06517 0.89607 0.03766 0.0
S926 S 0.01955 0.90777 0.1647 0.0
N927 N 0.03149 0.87344 0.155 0.0
N928 N 0.02466 0.92847 0.13258 0.0
C929 C 0.03639 0.90735 0.11209 0.0
C930 C 0.04007 0.87755 0.12416 0.0
C931 C 0.88406 0.20815 0.79806 0.0
C932 C 0.91438 0.23015 0.80786 0.0
C933 C 0.85882 0.21714 0.77819 0.0
C934 C 0.86265 0.24902 0.76933 0.0
H935 H 0.87911 0.18476 0.8076 0.0
H936 H 0.83516 0.20021 0.7728 0.0
S937 S 0.93897 0.31368 0.78439 0.0
N938 N 0.94859 0.28313 0.80285 0.0
N939 N 0.9003 0.30074 0.76749 0.0
C940 C 0.89382 0.26999 0.77627 0.0
C941 C 0.9199 0.2604 0.79525 0.0
C942 C 0.52124 0.16058 0.62633 0.0
C943 C 0.54423 0.17894 0.60876 0.0
C944 C 0.50893 0.12718 0.61698 0.0
C945 C 0.51882 0.1106 0.58947 0.0
H946 H 0.51246 0.17206 0.64755 0.0
H947 H 0.49102 0.11446 0.63129 0.0
S948 S 0.57924 0.14704 0.53545 0.0
N949 N 0.57715 0.17782 0.56285 0.0
N950 N 0.55372 0.11491 0.54512 0.0
C951 C 0.5422 0.12845 0.57188 0.0
C952 C 0.55497 0.1626 0.58156 0.0
C953 C 0.59777 0.72781 0.3014 0.0
C954 C 0.58773 0.75767 0.30512 0.0
C955 C 0.62783 0.72579 0.29022 0.0
C956 C 0.64917 0.75353 0.28225 0.0
H957 H 0.5827 0.70582 0.30806 0.0
H958 H 0.63485 0.70239 0.28889 0.0
S959 S 0.63361 0.83723 0.28541 0.0
N960 N 0.60067 0.81536 0.29805 0.0
N961 N 0.65745 0.81154 0.27695 0.0
C962 C 0.63879 0.78328 0.2841 0.0
C963 C 0.608 0.78536 0.29558 0.0
C964 C 0.02353 0.18336 0.54639 0.0
C965 C 0.04508 0.20254 0.52803 0.0
C966 C 0.02533 0.15112 0.54988 0.0
C967 C 0.0489 0.13687 0.53534 0.0
H968 H 1.00382 0.19259 0.55658 0.0
H969 H 0.00708 0.13686 0.56275 0.0
S970 S 0.11523 0.17885 0.49042 0.0
N971 N 0.09362 0.20654 0.49912 0.0
N972 N 0.09737 0.14597 0.50599 0.0
C973 C 0.07246 0.15668 0.51941 0.0
C974 C 0.07045 0.18951 0.51566 0.0
C975 C 0.62353 0.27238 0.18325 0.0
C976 C 0.60494 0.24966 0.20088 0.0
C977 C 0.65777 0.28195 0.19046 0.0
C978 C 0.67511 0.26953 0.21584 0.0
H979 H 0.61163 0.28275 0.16337 0.0
H980 H 0.67064 0.29963 0.17607 0.0
S981 S 0.63828 0.20946 0.26972 0.0
N982 N 0.60654 0.21482 0.245 0.0
N983 N 0.67106 0.2332 0.25878 0.0
C984 C 0.65695 0.24681 0.2338 0.0
C985 C 0.6219 0.2368 0.22627 0.0
C986 C 0.55451 0.89183 0.9903 0.0
C987 C 0.5495 0.87119 0.01509 0.0
C988 C 0.55448 0.92486 -0.00327 0.0
C989 C 0.55128 0.93898 0.02856 0.0
H990 H 0.55534 0.88193 0.96493 0.0
H991 H 0.55503 0.9388 0.97596 0.0
S992 S 0.54122 0.89606 0.10304 0.0
N993 N 0.54302 0.86719 0.07326 0.0
N994 N 0.5455 0.93035 0.08584 0.0
C995 C 0.54898 0.91921 0.05432 0.0
C996 C 0.54757 0.88504 0.04746 0.0
C997 C 0.91734 0.77688 0.70397 0.0
C998 C 0.93505 0.75567 0.71837 0.0
C999 C 0.88911 0.78344 0.71657 0.0
C1000 C 0.87754 0.76918 0.74418 0.0
H1001 H 0.92421 0.78713 0.68168 0.0
H1002 H 0.87524 0.79831 0.70333 0.0
S1003 S 0.91877 0.7169 0.79476 0.0
N1004 N 0.94169 0.7241 0.76452 0.0
N1005 N 0.88894 0.73665 0.78841 0.0
C1006 C 0.89683 0.7504 0.76068 0.0
C1007 C 0.92542 0.7435 0.74766 0.0
C1008 C 0.10442 0.00633 0.90288 0.0
C1009 C 0.08273 0.00672 0.8744 0.0
C1010 C 0.09294 0.00345 0.93388 0.0
C1011 C 0.05921 0.00011 0.93756 0.0
H1012 H 0.13067 0.01019 0.9016 0.0
H1013 H 0.11093 0.00495 0.95533 0.0
S1014 S 0.99185 0.99457 0.86917 0.0
N1015 N 0.02573 0.00048 0.85093 0.0
N1016 N 1.00391 0.99345 0.90878 0.0
C1017 C 0.03701 0.99789 0.90866 0.0
C1018 C 0.04884 0.00168 0.87724 0.0
C1019 C 0.73366 0.31801 0.60732 0.0
C1020 C 0.75272 0.30375 0.58623 0.0
C1021 C 0.72163 0.30217 0.63365 0.0
C1022 C 0.72855 0.27178 0.63961 0.0
H1023 H 0.73025 0.34254 0.60519 0.0
H1024 H 0.70967 0.31527 0.65114 0.0
S1025 S 0.76923 0.22052 0.58596 0.0
N1026 N 0.77172 0.25463 0.56869 0.0
N1027 N 0.74954 0.22527 0.61858 0.0
C1028 C 0.74385 0.25561 0.61621 0.0
C1029 C 0.75595 0.27157 0.58942 0.0
C1030 C 0.50377 0.03296 0.39459 0.0
C1031 C 0.47006 0.0251 0.38273 0.0
C1032 C 0.51465 0.03118 0.42774 0.0
C1033 C 0.4921 0.02061 0.44984 0.0
H1034 H 0.52193 0.03852 0.37762 0.0
H1035 H 0.54093 0.0359 0.43533 0.0
S1036 S 0.40075 0.00126 0.43121 0.0
N1037 N 0.41407 0.01036 0.3958 0.0
N1038 N 0.43411 0.00555 0.45801 0.0
C1039 C 0.45811 0.01524 0.43871 0.0
C1040 C 0.44715 0.01787 0.40509 0.0
C1041 C 0.7952 0.68585 0.11994 0.0
C1042 C 0.77132 0.70026 0.10406 0.0
C1043 C 0.80709 0.6949 0.15363 0.0
C1044 C 0.79582 0.71894 0.17285 0.0
H1045 H 0.80438 0.66686 0.10647 0.0
H1046 H 0.82513 0.6827 0.16467 0.0
S1047 S 0.73456 0.76543 0.14292 0.0
N1048 N 0.73762 0.7407 0.11 0.0
N1049 N 0.76007 0.75778 0.17322 0.0
C1050 C 0.77249 0.73413 0.15716 0.0
C1051 C 0.76022 0.72478 0.12284 0.0
C1052 C 0.06034 0.01312 0.67622 0.0
C1053 C 0.08344 -0.00036 0.69467 0.0
C1054 C 0.0507 0.00291 0.6423 0.0
C1055 C 0.06386 0.9789 0.62529 0.0
H1056 H 0.04996 0.0322 0.68787 0.0
H1057 H 0.03328 0.0145 0.6292 0.0
S1058 S 0.12331 0.93393 0.66241 0.0
N1059 N 0.11788 0.95953 0.69356 0.0
N1060 N 0.09979 0.94045 0.62987 0.0
C1061 C 0.08623 0.96446 0.64356 0.0
C1062 C 0.09598 0.97476 0.67819 0.0
C1063 C 0.785 0.2906 0.41694 0.0
C1064 C 0.78697 0.32396 0.4265 0.0
C1065 C 0.78151 0.278 0.38342 0.0
C1066 C 0.78095 0.29857 0.35832 0.0
H1067 H 0.78672 0.27419 0.43559 0.0
H1068 H 0.78066 0.25226 0.37733 0.0
S1069 S 0.78358 0.38773 0.37084 0.0
N1070 N 0.78595 0.37696 0.4087 0.0
N1071 N 0.78094 0.35396 0.34565 0.0
C1072 C 0.78173 0.33189 0.36772 0.0
C1073 C 0.78438 0.34444 0.40184 0.0
C1074 C 0.52444 0.03627 0.21127 0.0
C1075 C 0.49494 0.04514 0.21821 0.0
C1076 C 0.53973 0.04638 0.1841 0.0
C1077 C 0.52615 0.06579 0.16294 0.0
H1078 H 0.5349 0.01982 0.22575 0.0
H1079 H 0.56106 0.03704 0.17835 0.0
S1080 S 0.45308 0.10114 0.17436 0.0
N1081 N 0.45562 0.07863 0.205 0.0
N1082 N 0.4844 0.09771 0.15365 0.0
C1083 C 0.49877 0.07784 0.17172 0.0
C1084 C 0.48309 0.06744 0.19946 0.0
C1085 C 0.76632 0.69201 0.89989 0.0
C1086 C 0.75494 0.7097 0.92554 0.0
C1087 C 0.77062 0.70421 0.86952 0.0
C1088 C 0.76476 0.73508 0.8638 0.0
H1089 H 0.7707 0.66792 0.90274 0.0
H1090 H 0.77807 0.68893 0.85016 0.0
S1091 S 0.73608 0.79188 0.92353 0.0
N1092 N 0.73845 0.76007 0.94355 0.0
N1093 N 0.74794 0.78348 0.88687 0.0
C1094 C 0.75454 0.75359 0.88967 0.0
C1095 C 0.74928 0.74078 0.92039 0.0
C1096 C 0.88217 0.09596 0.03791 0.0
C1097 C 0.86692 0.09856 0.0062 0.0
C1098 C 0.90743 0.07891 0.04195 0.0
C1099 C 0.91864 0.06351 0.01453 0.0
H1100 H 0.875 0.10768 0.05997 0.0
H1101 H 0.91875 0.07839 0.06693 0.0
S1102 S 0.88672 0.06207 0.92608 0.0
N1103 N 0.86452 0.08337 0.94667 0.0
N1104 N 0.91216 0.05137 0.95448 0.0
C1105 C 0.90309 0.06499 0.98268 0.0
C1106 C 0.87727 0.08251 0.97847 0.0
C1107 C 0.39409 0.43707 0.07371 0.0
C1108 C 0.36734 0.42756 0.04846 0.0
C1109 C 0.42371 0.45725 0.06807 0.0
C1110 C 0.42788 0.46732 0.03659 0.0
H1111 H 0.39255 0.42772 0.09745 0.0
H1112 H 0.4442 0.46306 0.08773 0.0
S1113 S 0.36503 0.44982 0.96268 0.0
N1114 N 0.34628 0.43117 0.99154 0.0
N1115 N 0.40255 0.46759 0.98044 0.0
C1116 C 0.40101 0.45884 0.01154 0.0
C1117 C 0.37055 0.43929 0.01761 0.0
C1118 C 0.34538 0.60324 0.79283 0.0
C1119 C 0.3541 0.58476 0.76579 0.0
C1120 C 0.33087 0.63003 0.78834 0.0
C1121 C 0.32422 0.63944 0.75659 0.0
H1122 H 0.35059 0.59758 0.81789 0.0
H1123 H 0.32563 0.64394 0.81013 0.0
S1124 S 0.33958 0.59737 0.67709 0.0
N1125 N 0.35309 0.57664 0.7058 0.0
N1126 N 0.3257 0.62655 0.69728 0.0
C1127 C 0.33164 0.62034 0.72916 0.0
C1128 C 0.3466 0.59319 0.73378 0.0
C1129 C 0.17286 0.59661 0.50742 0.0
C1130 C 0.1851 0.61332 0.48156 0.0
C1131 C 0.1399 0.5794 0.50434 0.0
C1132 C 0.11819 0.57832 0.47525 0.0
H1133 H 0.18815 0.59871 0.53095 0.0
H1134 H 0.131 0.56829 0.52548 0.0
S1135 S 0.14056 0.61329 0.39831 0.0
N1136 N 0.17454 0.62463 0.4248 0.0
N1137 N 0.11308 0.59167 0.41839 0.0
C1138 C 0.13112 0.59281 0.44831 0.0
C1139 C 0.16446 0.6105 0.45164 0.0
C1140 C 0.72669 0.93566 0.80675 0.0
C1141 C 0.71067 0.94651 0.77924 0.0
C1142 C 0.73643 0.90563 0.80394 0.0
C1143 C 0.7304 0.88531 0.77354 0.0
H1144 H 0.73052 0.94977 0.83101 0.0
H1145 H 0.74703 0.89749 0.82611 0.0
S1146 S 0.6942 0.90443 0.69291 0.0
N1147 N 0.69294 0.93597 0.7197 0.0
N1148 N 0.71098 0.87967 0.71465 0.0
C1149 C 0.71643 0.89678 0.74545 0.0
C1150 C 0.70664 0.92732 0.74822 0.0
C1151 C 0.6739 0.91089 0.54979 0.0
C1152 C 0.69842 0.9253 0.53127 0.0
C1153 C 0.64362 0.92028 0.54921 0.0
C1154 C 0.63648 0.94487 0.53046 0.0
H1155 H 0.67765 0.89144 0.56426 0.0
H1156 H 0.62545 0.90771 0.56335 0.0
S1157 S 0.6928 0.99194 0.47906 0.0
N1158 N 0.7139 0.96657 0.49454 0.0
N1159 N 0.65703 0.98446 0.49388 0.0
C1160 C 0.66111 0.96038 0.51271 0.0
C1161 C 0.69199 0.95054 0.51298 0.0
C1162 C 0.34479 0.38509 0.725 0.0
C1163 C 0.35409 0.41124 0.7506 0.0
C1164 C 0.32296 0.35616 0.72947 0.0
C1165 C 0.31087 0.35217 0.76009 0.0
H1166 H 0.35546 0.38654 0.70192 0.0
H1167 H 0.31738 0.33601 0.70969 0.0
S1168 S 0.32705 0.41368 0.83439 0.0
N1169 N 0.34819 0.432 0.80682 0.0
N1170 N 0.30858 0.37698 0.81578 0.0
C1171 C 0.31914 0.37849 0.78541 0.0
C1172 C 0.34045 0.40824 0.78052 0.0
C1173 C 0.21851 0.63034 0.26172 0.0
C1174 C 0.20923 0.6098 0.28572 0.0
C1175 C 0.24161 0.65972 0.27038 0.0
C1176 C 0.25561 0.66996 0.30358 0.0
H1177 H 0.20632 0.62459 0.23646 0.0
H1178 H 0.24684 0.67539 0.25117 0.0
S1179 S 0.24194 0.62256 0.3749 0.0
N1180 N 0.21765 0.59962 0.34316 0.0
N1181 N 0.26114 0.65526 0.35987 0.0
C1182 C 0.2482 0.64842 0.32741 0.0
C1183 C 0.22491 0.6182 0.31836 0.0
C1184 C 0.50266 0.65793 0.46622 0.0
C1185 C 0.51153 0.66332 0.43447 0.0
C1186 C 0.50842 0.6306 0.48086 0.0
C1187 C 0.52281 0.60765 0.46395 0.0
H1188 H 0.4896 0.67398 0.47911 0.0
H1189 H 0.49879 0.62589 0.50403 0.0
S1190 S 0.55466 0.61251 0.38269 0.0
N1191 N 0.53916 0.64533 0.38856 0.0
N1192 N 0.54908 0.59352 0.41588 0.0
C1193 C 0.53425 0.61409 0.4336 0.0
C1194 C 0.52885 0.6421 0.41886 0.0
C1195 C 0.64042 0.28196 0.74631 0.0
C1196 C 0.6422 0.30435 0.72283 0.0
C1197 C 0.66864 0.28001 0.76698 0.0
C1198 C 0.69911 0.30102 0.76546 0.0
H1199 H 0.61814 0.2635 0.74616 0.0
H1200 H 0.66732 0.25993 0.78184 0.0
S1201 S 0.7148 0.3684 0.71337 0.0
N1202 N 0.67545 0.35107 0.70275 0.0
N1203 N 0.72818 0.34827 0.74276 0.0
C1204 C 0.70006 0.32641 0.7455 0.0
C1205 C 0.6716 0.32778 0.7237 0.0
C1206 C 0.99106 0.34938 0.94835 0.0
C1207 C 0.00821 0.33499 0.92516 0.0
C1208 C 0.99933 0.38292 0.95881 0.0
C1209 C 0.02499 0.40358 0.94641 0.0
H1210 H 0.97113 0.33462 0.9588 0.0
H1211 H 0.9856 0.39263 0.97704 0.0
S1212 S 0.07709 0.37841 0.88439 0.0
N1213 N 0.05171 0.34422 0.88948 0.0
N1214 N 0.06724 0.40731 0.90911 0.0
C1215 C 0.04208 0.38967 0.92278 0.0
C1216 C 0.03376 0.3554 0.91224 0.0
C1217 C 0.96616 0.79413 0.23422 0.0
C1218 C 0.97634 0.76433 0.23436 0.0
C1219 C 0.93645 0.79789 0.24531 0.0
C1220 C 0.91554 0.77206 0.2571 0.0
H1221 H 0.98083 0.81465 0.22465 0.0
H1222 H 0.92946 0.8211 0.24373 0.0
S1223 S 0.9317 0.68964 0.26504 0.0
N1224 N 0.96394 0.70896 0.2492 0.0
N1225 N 0.90795 0.7161 0.27011 0.0
C1226 C 0.92605 0.74256 0.25894 0.0
C1227 C 0.95645 0.73868 0.24755 0.0
C1228 C 0.53516 0.33014 0.05732 0.0
C1229 C 0.51181 0.31452 0.07633 0.0
C1230 C 0.53029 0.35747 0.04203 0.0
C1231 C 0.50176 0.36985 0.04505 0.0
H1232 H 0.55798 0.32213 0.05546 0.0
H1233 H 0.54969 0.36981 0.02911 0.0
S1234 S 0.43059 0.33397 0.08724 0.0
N1235 N 0.45742 0.31087 0.09397 0.0
N1236 N 0.44802 0.36175 0.06493 0.0
C1237 C 0.47721 0.35292 0.062 0.0
C1238 C 0.48231 0.3254 0.07777 0.0
C1239 C 0.94445 0.26689 0.38707 0.0
C1240 C 0.94108 0.26716 0.42114 0.0
C1241 C 0.91681 0.26163 0.36304 0.0
C1242 C 0.8848 0.25598 0.37218 0.0
H1243 H 0.96862 0.27068 0.37881 0.0
H1244 H 0.92051 0.26108 0.3371 0.0
S1245 S 0.8622 0.25618 0.45784 0.0
N1246 N 0.90277 0.26283 0.46264 0.0
N1247 N 0.85115 0.25258 0.41744 0.0
C1248 C 0.88102 0.2568 0.40606 0.0
C1249 C 0.90906 0.26248 0.43054 0.0
C1250 C 0.9699 0.6341 0.57409 0.0
C1251 C 0.99223 0.66439 0.58151 0.0
C1252 C 0.97565 0.60985 0.55078 0.0
C1253 C 0.00434 0.61507 0.53495 0.0
H1254 H 0.94916 0.62836 0.58802 0.0
H1255 H 0.95945 0.58588 0.54786 0.0
S1256 S 0.06766 0.69168 0.54205 0.0
N1257 N 0.04152 0.69979 0.56778 0.0
N1258 N 0.0529 0.65366 0.52499 0.0
C1259 C 0.02508 0.64618 0.53982 0.0
C1260 C 0.01885 0.67108 0.5629 0.0
C1261 C 0.62336 0.82417 0.86758 0.0
C1262 C 0.61051 0.79627 0.8824 0.0
C1263 C 0.65004 0.82512 0.84922 0.0
C1264 C 0.66428 0.79792 0.84412 0.0
H1265 H 0.61348 0.8459 0.87106 0.0
H1266 H 0.66 0.84755 0.83938 0.0
S1267 S 0.63973 0.71867 0.87657 0.0
N1268 N 0.61407 0.74048 0.89019 0.0
N1269 N 0.66378 0.74228 0.85483 0.0
C1270 C 0.65123 0.76954 0.85781 0.0
C1271 C 0.62447 0.76873 0.87719 0.0
C1272 C 0.51113 0.51409 0.66941 0.0
C1273 C 0.47769 0.51254 0.67292 0.0
C1274 C 0.52319 0.51826 0.63879 0.0
C1275 C 0.50207 0.52003 0.61017 0.0
H1276 H 0.52805 0.51153 0.69042 0.0
H1277 H 0.54899 0.51875 0.63732 0.0
S1278 S 0.4123 0.51769 0.60649 0.0
N1279 N 0.4239 0.51428 0.64563 0.0
N1280 N 0.44592 0.52088 0.58795 0.0
C1281 C 0.46864 0.51928 0.61367 0.0
C1282 C 0.45662 0.51583 0.64503 0.0
C1283 C 0.83524 0.23639 0.94039 0.0
C1284 C 0.8023 0.22486 0.94548 0.0
C1285 C 0.84296 0.25523 0.9145 0.0
C1286 C 0.818 0.26335 0.89324 0.0
H1287 H 0.85513 0.23165 0.95703 0.0
H1288 H 0.86859 0.26377 0.91133 0.0
S1289 S 0.72774 0.23453 0.89331 0.0
N1290 N 0.74461 0.21969 0.92504 0.0
N1291 N 0.75884 0.25522 0.87699 0.0
C1292 C 0.78493 0.25078 0.89744 0.0
C1293 C 0.77717 0.23145 0.92339 0.0
C1294 C 0.03895 0.51896 0.1693 0.0
C1295 C 0.06841 0.50859 0.1774 0.0
C1296 C 0.02109 0.51029 0.1378 0.0
C1297 C 0.03234 0.49134 0.11313 0.0
H1298 H 0.03021 0.53502 0.18701 0.0
H1299 H 0.99983 0.52063 0.13211 0.0
S1300 S 0.10416 0.45253 0.12373 0.0
N1301 N 0.10519 0.47423 0.15991 0.0
N1302 N 0.07159 0.458 0.10037 0.0
C1303 C 0.05991 0.47818 0.12187 0.0
C1304 C 0.07802 0.48683 0.15411 0.0
C1305 C 0.78067 0.79558 0.42592 0.0
C1306 C 0.7656 0.81707 0.44445 0.0
C1307 C 0.77502 0.7905 0.39117 0.0
C1308 C 0.75415 0.80677 0.37331 0.0
H1309 H 0.79751 0.78287 0.43827 0.0
H1310 H 0.78758 0.77399 0.37823 0.0
S1311 S 0.70691 0.86413 0.40978 0.0
N1312 N 0.72758 0.85368 0.44215 0.0
N1313 N 0.71697 0.84416 0.37691 0.0
C1314 C 0.7382 0.82772 0.39147 0.0
C1315 C 0.74388 0.83282 0.42696 0.0
C1316 C 0.48818 0.50405 0.8732 0.0
C1317 C 0.46762 0.5204 0.85486 0.0
C1318 C 0.49477 0.51037 0.90785 0.0
C1319 C 0.48109 0.53334 0.92585 0.0
H1320 H 0.49881 0.48553 0.86083 0.0
H1321 H 0.51031 0.49665 0.92061 0.0
S1322 S 0.42767 0.58483 0.88977 0.0
N1323 N 0.43513 0.56208 0.85739 0.0
N1324 N 0.44747 0.57399 0.92248 0.0
C1325 C 0.46137 0.55074 0.90784 0.0
C1326 C 0.45469 0.54431 0.87242 0.0
C1327 C 0.82785 0.21777 0.1462 0.0
C1328 C 0.82485 0.23731 0.12059 0.0
C1329 C 0.8277 0.23024 0.17927 0.0
C1330 C 0.82454 0.26261 0.18768 0.0
H1331 H 0.82704 0.19196 0.14049 0.0
H1332 H 0.82709 0.21349 0.19782 0.0
S1333 S 0.82552 0.32582 0.13041 0.0
N1334 N 0.82577 0.29211 0.10628 0.0
N1335 N 0.82545 0.31557 0.16846 0.0
C1336 C 0.82589 0.28338 0.16271 0.0
C1337 C 0.82611 0.27071 0.12912 0.0
C1338 C 0.08017 0.4908 0.36252 0.0
C1339 C 0.0697 0.51267 0.34225 0.0
C1340 C 0.06439 0.4827 0.39008 0.0
C1341 C 0.03775 0.49632 0.39824 0.0
H1342 H 0.10178 0.48132 0.35823 0.0
H1343 H 0.07467 0.46744 0.40626 0.0
S1344 S 0.99607 0.54836 0.34808 0.0
N1345 N 0.02753 0.54304 0.32843 0.0
N1346 N 0.99785 0.5278 0.38039 0.0
C1347 C 0.02485 0.51532 0.37605 0.0
C1348 C 0.04098 0.52367 0.34807 0.0
C1349 C 0.74976 0.81237 0.64804 0.0
C1350 C 0.76088 0.79472 0.62211 0.0
C1351 C 0.74401 0.79927 0.67788 0.0
C1352 C 0.74886 0.76785 0.683 0.0
H1353 H 0.74728 0.83721 0.64609 0.0
H1354 H 0.73751 0.81477 0.69769 0.0
S1355 S 0.77189 0.7094 0.62018 0.0
N1356 N 0.77233 0.74259 0.60171 0.0
N1357 N 0.7612 0.71789 0.65735 0.0
C1358 C 0.75731 0.74898 0.65607 0.0
C1359 C 0.76344 0.76243 0.62584 0.0
C1360 C 0.69717 0.45515 0.56397 0.0
C1361 C 0.7066 0.43686 0.53716 0.0
C1362 C 0.66785 0.46669 0.56083 0.0
C1363 C 0.64652 0.46009 0.53086 0.0
H1364 H 0.7123 0.46021 0.58783 0.0
H1365 H 0.66142 0.48005 0.58234 0.0
S1366 S 0.6606 0.41515 0.45239 0.0
N1367 N 0.69279 0.41438 0.47899 0.0
N1368 N 0.63779 0.43538 0.47327 0.0
C1369 C 0.65608 0.44259 0.50361 0.0
C1370 C 0.68605 0.4312 0.50669 0.0
C1371 C 0.13642 0.069 0.47761 0.0
C1372 C 0.16425 0.07736 0.5017 0.0
C1373 C 0.10865 0.04549 0.4822 0.0
C1374 C 0.10748 0.03068 0.51162 0.0
H1375 H 0.13558 0.08174 0.45582 0.0
H1376 H 0.087 0.04098 0.46397 0.0
S1377 S 0.17438 0.04313 0.58144 0.0
N1378 N 0.18978 0.06739 0.55478 0.0
N1379 N 0.13685 0.02468 0.56427 0.0
C1380 C 0.13561 0.03783 0.53517 0.0
C1381 C 0.16423 0.06087 0.52999 0.0
C1382 C 0.20833 0.91941 0.8288 0.0
C1383 C 0.20309 0.93995 0.80451 0.0
C1384 C 0.22274 0.89267 0.82205 0.0
C1385 C 0.23309 0.88552 0.7909 0.0
H1386 H 0.20035 0.92335 0.85304 0.0
H1387 H 0.22537 0.87715 0.84138 0.0
S1388 S 0.22684 0.93246 0.71911 0.0
N1389 N 0.21072 0.95187 0.74816 0.0
N1390 N 0.23825 0.90177 0.73583 0.0
C1391 C 0.22925 0.90646 0.76672 0.0
C1392 C 0.21412 0.93357 0.77342 0.0
C1393 C 0.39049 0.94927 0.04318 0.0
C1394 C 0.38451 0.91927 0.05631 0.0
C1395 C 0.42118 0.97132 0.05088 0.0
C1396 C 0.44673 0.96432 0.07238 0.0
H1397 H 0.37192 0.9551 0.02569 0.0
H1398 H 0.4251 0.99367 0.03938 0.0
S1399 S 0.44196 0.89025 0.11583 0.0
N1400 N 0.40565 0.88471 0.09356 0.0
N1401 N 0.46283 0.92592 0.10837 0.0
C1402 C 0.44029 0.93504 0.08692 0.0
C1403 C 0.40933 0.91258 0.07879 0.0
C1404 C 0.85124 0.6008 0.7598 0.0
C1405 C 0.85795 0.5887 0.79026 0.0
C1406 C 0.83562 0.62725 0.75785 0.0
C1407 C 0.8266 0.64294 0.78638 0.0
H1408 H 0.85851 0.59008 0.73727 0.0
H1409 H 0.83176 0.63623 0.73409 0.0
S1410 S 0.83642 0.61978 0.87175 0.0
N1411 N 0.85242 0.59371 0.84931 0.0
N1412 N 0.82374 0.64345 0.84563 0.0
C1413 C 0.8323 0.63059 0.81676 0.0
C1414 C 0.84776 0.60348 0.81871 0.0
C1415 C 0.84445 0.56784 0.04073 0.0
C1416 C 0.83665 0.58979 0.01879 0.0
C1417 C 0.87397 0.55678 0.04092 0.0
C1418 C 0.89709 0.56744 0.01937 0.0
H1419 H 0.82783 0.55937 0.05832 0.0
H1420 H 0.87903 0.54038 0.05866 0.0
S1421 S 0.88782 0.62314 0.95545 0.0
N1422 N 0.85402 0.62036 0.97363 0.0
N1423 N 0.90937 0.59999 0.97424 0.0
C1424 C 0.88927 0.58875 -0.00328 0.0
C1425 C 0.85913 0.59979 -0.00365 0.0
C1426 C 0.20812 0.14215 0.81998 0.0
C1427 C 0.20088 0.11504 0.79542 0.0
C1428 C 0.23018 0.17097 0.81566 0.0
C1429 C 0.2446 0.17387 0.78611 0.0
H1430 H 0.19578 0.14144 0.8421 0.0
H1431 H 0.23418 0.19182 0.83451 0.0
S1432 S 0.23421 0.1098 0.71472 0.0
N1433 N 0.21113 0.09236 0.7414 0.0
N1434 N 0.25111 0.14719 0.73254 0.0
C1435 C 0.23831 0.14669 0.76187 0.0
C1436 C 0.21678 0.11705 0.76671 0.0
C1437 C 0.37133 0.88722 0.26076 0.0
C1438 C 0.36565 0.91762 0.25337 0.0
C1439 C 0.34795 0.85842 0.25029 0.0
C1440 C 0.31775 0.85851 0.23174 0.0
H1441 H 0.39417 0.88548 0.27484 0.0
H1442 H 0.35395 0.83583 0.2567 0.0
S1443 S 0.29035 0.93177 0.20607 0.0
N1444 N 0.32737 0.94636 0.2267 0.0
N1445 N 0.28309 0.89185 0.20674 0.0
C1446 C 0.31144 0.88877 0.22432 0.0
C1447 C 0.3354 0.91838 0.23527 0.0
C1448 C 0.54904 0.35763 0.56257 0.0
C1449 C 0.53948 0.34835 0.59302 0.0
C1450 C 0.54391 0.38693 0.55172 0.0
C1451 C 0.52943 0.40804 0.5712 0.0
H1452 H 0.5622 0.3431 0.54784 0.0
H1453 H 0.55392 0.39434 0.52947 0.0
S1454 S 0.49507 0.39292 0.64986 0.0
N1455 N 0.51059 0.36078 0.64008 0.0
N1456 N 0.50186 0.41617 0.61988 0.0
C1457 C 0.51721 0.39782 0.6001 0.0
C1458 C 0.52197 0.36784 0.61097 0.0
C1459 C 0.42259 0.73688 0.27516 0.0
C1460 C 0.41602 0.71129 0.29488 0.0
C1461 C 0.39718 0.74451 0.25448 0.0
C1462 C 0.36478 0.7262 0.25221 0.0
H1463 H 0.44645 0.75358 0.27876 0.0
H1464 H 0.4022 0.76689 0.24307 0.0
S1465 S 0.33708 0.6515 0.29179 0.0
N1466 N 0.3765 0.66405 0.30618 0.0
N1467 N 0.32899 0.67731 0.26575 0.0
C1468 C 0.35915 0.6974 0.26749 0.0
C1469 C 0.3848 0.69025 0.28941 0.0
C1470 C 0.05471 0.66867 0.08827 0.0
C1471 C 0.04514 0.68348 0.11707 0.0
C1472 C 0.04153 0.63576 0.07638 0.0
C1473 C 0.01843 0.61624 0.09294 0.0
H1474 H 0.07217 0.68271 0.07443 0.0
H1475 H 0.04929 0.62569 0.05382 0.0
S1476 S 0.98678 0.64273 0.17077 0.0
N1477 N 0.01215 0.67567 0.16266 0.0
N1478 N 0.9876 0.61395 0.14063 0.0
C1479 C 0.00924 0.63056 0.12226 0.0
C1480 C 0.02249 0.66412 0.1342 0.0
C1481 C 0.1036 0.27893 0.79738 0.0
C1482 C 0.08369 0.25243 0.80928 0.0
C1483 C 0.13325 0.27596 0.78529 0.0
C1484 C 0.14391 0.24638 0.78464 0.0
H1485 H 0.09706 0.30253 0.7988 0.0
H1486 H 0.14866 0.29743 0.77805 0.0
S1487 S 0.09802 0.16825 0.80759 0.0
N1488 N 0.07481 0.19459 0.81576 0.0
N1489 N 0.13031 0.18908 0.79305 0.0
C1490 C 0.12311 0.21915 0.7943 0.0
C1491 C 0.09306 0.22216 0.80663 0.0
C1492 C 0.55529 0.68087 -0.00228 0.0
C1493 C 0.53057 0.69461 0.01064 0.0
C1494 C 0.55978 0.65025 0.00487 0.0
C1495 C 0.53969 0.63206 0.02518 0.0
H1496 H 0.57058 0.69324 0.98088 0.0
H1497 H 0.57827 0.64025 0.99314 0.0
S1498 S 0.4749 0.65917 0.06951 0.0
N1499 N 0.48827 0.68929 0.04795 0.0
N1500 N 0.49673 0.63157 0.06129 0.0
C1501 C 0.51639 0.6464 0.04013 0.0
C1502 C 0.51181 0.67769 0.03287 0.0
C1503 C 0.12409 0.77848 0.68694 0.0
C1504 C 0.10557 0.75348 0.70202 0.0
C1505 C 0.15824 0.7879 0.69451 0.0
C1506 C 0.17551 0.77298 0.71774 0.0
H1507 H 0.11225 0.79079 0.66871 0.0
H1508 H 0.17109 0.80733 0.68205 0.0
S1509 S 0.13881 0.70648 0.76476 0.0
N1510 N 0.10709 0.71393 0.74159 0.0
N1511 N 0.17156 0.73201 0.75607 0.0
C1512 C 0.15743 0.74806 0.73329 0.0
C1513 C 0.12244 0.73823 0.72537 0.0
C1514 C 0.06574 0.40237 0.5423 0.0
C1515 C 0.04892 0.38041 0.51493 0.0
C1516 C 0.06244 0.43504 0.54573 0.0
C1517 C 0.04107 0.44608 0.52267 0.0
H1518 H 0.08095 0.39412 0.56135 0.0
H1519 H 0.07574 0.45137 0.56713 0.0
S1520 S 0.99011 0.3965 0.44772 0.0
N1521 N 0.01042 0.37135 0.46464 0.0
N1522 N 1.00209 0.43147 0.47199 0.0
C1523 C 0.02391 0.42385 0.49539 0.0
C1524 C 0.02839 0.39131 0.4913 0.0
C1525 C 0.41685 0.23303 0.24142 0.0
C1526 C 0.43137 0.24889 0.21601 0.0
C1527 C 0.38796 0.23985 0.25233 0.0
C1528 C 0.37227 0.26263 0.23806 0.0
H1529 H 0.42698 0.21409 0.25202 0.0
H1530 H 0.37676 0.22551 0.27047 0.0
S1531 S 0.40294 0.31481 0.17478 0.0
N1532 N 0.42995 0.29161 0.17999 0.0
N1533 N 0.37552 0.30399 0.2003 0.0
C1534 C 0.38785 0.28048 0.21455 0.0
C1535 C 0.41739 0.27372 0.20355 0.0
C1536 C 0.54461 0.51076 0.37478 0.0
C1537 C 0.57831 0.5136 0.37168 0.0
C1538 C 0.53211 0.50441 0.4048 0.0
C1539 C 0.55306 0.50195 0.43329 0.0
H1540 H 0.52781 0.51387 0.35392 0.0
H1541 H 0.50609 0.50283 0.40597 0.0
S1542 S 0.64316 0.50607 0.43757 0.0
N1543 N 0.63201 0.5115 0.3989 0.0
N1544 N 0.60917 0.50117 0.45559 0.0
C1545 C 0.58669 0.50376 0.43006 0.0
C1546 C 0.59915 0.50924 0.39925 0.0
C1547 C 0.22982 0.8118 0.10427 0.0
C1548 C 0.24415 0.79528 0.08009 0.0
C1549 C 0.2196 0.79671 0.13176 0.0
C1550 C 0.22389 0.76498 0.13574 0.0
H1551 H 0.22946 0.83735 0.10371 0.0
H1552 H 0.2119 0.81127 0.15162 0.0
S1553 S 0.25035 0.70844 0.07427 0.0
N1554 N 0.25437 0.74308 0.05779 0.0
N1555 N 0.23606 0.71526 0.10998 0.0
C1556 C 0.23357 0.74685 0.10942 0.0
C1557 C 0.24361 0.76195 0.0814 0.0
C1558 C 0.00712 0.51756 0.87961 0.0
C1559 C 0.97465 0.51873 0.86773 0.0
C1560 C 0.0176 0.52068 0.91364 0.0
C1561 C 0.99572 0.5244 0.93696 0.0
H1562 H 0.02443 0.51346 0.86244 0.0
H1563 H 0.0425 0.51855 0.92157 0.0
S1564 S 0.90869 0.53124 0.91846 0.0
N1565 N 0.92139 0.52618 0.88166 0.0
N1566 N 0.9406 0.53111 0.94577 0.0
C1567 C 0.96353 0.52698 0.92535 0.0
C1568 C 0.95311 0.52442 0.89068 0.0
C1569 C 0.25879 0.21776 0.62259 0.0
C1570 C 0.27538 0.19884 0.60274 0.0
C1571 C 0.26933 0.22694 0.65655 0.0
C1572 C 0.29679 0.21746 0.67216 0.0
H1573 H 0.23697 0.22503 0.61204 0.0
H1574 H 0.25529 0.2409 0.67081 0.0
S1575 S 0.35102 0.17076 0.63104 0.0
N1576 N 0.32229 0.173 0.60103 0.0
N1577 N 0.34198 0.19023 0.66478 0.0
C1578 C 0.31436 0.19956 0.65249 0.0
C1579 C 0.30372 0.19029 0.61784 0.0
C1580 C 0.59786 0.48224 0.17516 0.0
C1581 C 0.5818 0.50376 0.19221 0.0
C1582 C 0.58851 0.47117 0.14134 0.0
C1583 C 0.56258 0.48102 0.12312 0.0
H1584 H 0.61839 0.47436 0.18779 0.0
H1585 H 0.60208 0.45505 0.12936 0.0
S1586 S 0.51096 0.53543 0.15649 0.0
N1587 N 0.53754 0.53332 0.18856 0.0
N1588 N 0.51994 0.51247 0.12512 0.0
C1589 C 0.54568 0.50185 0.14004 0.0
C1590 C 0.55529 0.51322 0.1745 0.0
C1591 C 0.27561 0.78295 0.90891 0.0
C1592 C 0.28349 0.81652 0.92026 0.0
C1593 C 0.27426 0.77175 0.87522 0.0
C1594 C 0.28175 0.79379 0.85193 0.0
H1595 H 0.27122 0.7652 0.92637 0.0
H1596 H 0.26869 0.74567 0.86769 0.0
S1597 S 0.30405 0.88445 0.86984 0.0
N1598 N 0.29784 0.87169 0.90613 0.0
N1599 N 0.29727 0.85113 0.84306 0.0
C1600 C 0.28917 0.82759 0.86316 0.0
C1601 C 0.28951 0.83885 0.89728 0.0
C1602 C 0.03271 0.54901 0.70281 0.0
C1603 C 1.00092 0.5533 0.70763 0.0
C1604 C 0.04824 0.56123 0.67652 0.0
C1605 C 0.03262 0.57828 0.65427 0.0
H1606 H 0.0449 0.53437 0.71816 0.0
H1607 H 0.07154 0.55519 0.67213 0.0
S1608 S 0.95166 0.60051 0.6592 0.0
N1609 N 0.95627 0.57946 0.69073 0.0
N1610 N 0.98539 0.60223 0.64103 0.0
C1611 C 1.00238 0.58566 0.66084 0.0
C1612 C 0.9865 0.57316 0.68765 0.0
C1613 C 0.25869 0.23614 0.41843 0.0
C1614 C 0.25848 0.2032 0.42189 0.0
C1615 C 0.26215 0.24836 0.38781 0.0
C1616 C 0.26437 0.22785 0.35913 0.0
H1617 H 0.25582 0.25257 0.43952 0.0
H1618 H 0.26203 0.27384 0.38648 0.0
S1619 S 0.26621 0.13969 0.35549 0.0
N1620 N 0.26254 0.15067 0.39464 0.0
N1621 N 0.26739 0.17288 0.33689 0.0
C1622 C 0.26495 0.19494 0.3626 0.0
C1623 C 0.2624 0.18281 0.39398 0.0
C1624 C 0.36436 0.57583 0.47455 0.0
C1625 C 0.35522 0.59444 0.50134 0.0
C1626 C 0.3914 0.56082 0.47866 0.0
C1627 C 0.4106 0.56406 0.50965 0.0
H1628 H 0.35104 0.57344 0.44994 0.0
H1629 H 0.39802 0.54766 0.45713 0.0
S1630 S 0.39541 0.60734 0.58852 0.0
N1631 N 0.36631 0.61287 0.5606 0.0
N1632 N 0.41712 0.5854 0.56813 0.0
C1633 C 0.40097 0.58151 0.53687 0.0
C1634 C 0.37332 0.59646 0.53279 0.0
C1635 C 0.87164 0.94796 0.53743 0.0
C1636 C 0.87358 0.92331 0.55807 0.0
C1637 C 0.9002 0.96985 0.53162 0.0
C1638 C 0.93134 0.96832 0.54703 0.0
H1639 H 0.84829 0.94885 0.52381 0.0
H1640 H 0.89808 0.98706 0.51388 0.0
S1641 S 0.94946 0.91079 0.60575 0.0
N1642 N 0.90914 0.90025 0.59553 0.0
N1643 N 0.96236 0.94213 0.58552 0.0
C1644 C 0.93335 0.94536 0.5694 0.0
C1645 C 0.90454 0.92267 0.57473 0.0
C1646 C 0.87272 0.10974 0.24868 0.0
C1647 C 0.86211 0.08804 0.27149 0.0
C1648 C 0.8628 0.13952 0.24804 0.0
C1649 C 0.84153 0.14898 0.26995 0.0
H1650 H 0.88968 0.10422 0.23169 0.0
H1651 H 0.8725 0.1556 0.23052 0.0
S1652 S 0.80458 0.10021 0.33305 0.0
N1653 N 0.82751 0.07752 0.31556 0.0
N1654 N 0.80881 0.13342 0.3141 0.0
C1655 C 0.82954 0.127 0.29198 0.0
C1656 C 0.83986 0.09664 0.29284 0.0
C1657 C 0.68993 0.09754 0.99462 0.0
C1658 C 0.70024 0.11411 0.02671 0.0
C1659 C 0.65737 0.08006 0.98568 0.0
C1660 C 0.63446 0.07791 0.00881 0.0
H1661 H 0.70634 0.10014 0.97565 0.0
H1662 H 0.64978 0.06904 0.96021 0.0
S1663 S 0.65044 0.11395 0.09694 0.0
N1664 N 0.68584 0.12556 0.08221 0.0
N1665 N 0.625 0.09137 0.06578 0.0
C1666 C 0.64517 0.09227 0.0416 0.0
C1667 C 0.67803 0.11077 0.05046 0.0
C1668 C 0.17824 0.41511 0.26126 0.0
C1669 C 0.19277 0.44002 0.28713 0.0
C1670 C 0.18632 0.38446 0.25966 0.0
C1671 C 0.20948 0.37719 0.28372 0.0
H1672 H 0.15987 0.41896 0.24225 0.0
H1673 H 0.17383 0.36614 0.23944 0.0
S1674 S 0.25629 0.43424 0.35563 0.0
N1675 N 0.23275 0.45571 0.33678 0.0
N1676 N 0.24797 0.39793 0.33357 0.0
C1677 C 0.22511 0.40209 0.30918 0.0
C1678 C 0.21673 0.43347 0.31095 0.0
C1679 C 0.17094 0.41855 0.0434 0.0
C1680 C 0.19643 0.43228 0.02565 0.0
C1681 C 0.1414 0.42937 0.04242 0.0
C1682 C 0.13589 0.45467 0.02388 0.0
H1683 H 0.17339 0.39867 0.05774 0.0
H1684 H 0.12253 0.41735 0.05615 0.0
S1685 S 0.19528 0.50035 0.97434 0.0
N1686 N 0.21464 0.47369 0.98985 0.0
N1687 N 0.15905 0.49412 0.98828 0.0
C1688 C 0.16147 0.46942 0.00678 0.0
C1689 C 0.19167 0.4582 0.00757 0.0
C1690 C 0.85547 0.88739 0.22796 0.0
C1691 C 0.86226 0.91436 0.25269 0.0
C1692 C 0.83404 0.8581 0.23215 0.0
C1693 C 0.81978 0.85455 0.26172 0.0
H1694 H 0.86779 0.88855 0.20584 0.0
H1695 H 0.83028 0.83749 0.21307 0.0
S1696 S 0.82907 0.91796 0.33354 0.0
N1697 N 0.85178 0.93611 0.30696 0.0
N1698 N 0.81285 0.8805 0.31549 0.0
C1699 C 0.8256 0.88155 0.28616 0.0
C1700 C 0.84654 0.91165 0.28147 0.0
C1701 C 0.71227 0.14501 0.75585 0.0
C1702 C 0.71314 0.11785 0.77298 0.0
C1703 C 0.73457 0.17462 0.76584 0.0
C1704 C 0.7585 0.17833 0.79358 0.0
H1705 H 0.69311 0.14383 0.73549 0.0
H1706 H 0.73217 0.19504 0.75232 0.0
S1707 S 0.77307 0.11344 0.84488 0.0
N1708 N 0.74135 0.09539 0.8172 0.0
N1709 N 0.78359 0.15141 0.83632 0.0
C1710 C 0.76113 0.1507 0.80961 0.0
C1711 C 0.73836 0.12031 0.79919 0.0
loop_
_geom_bond_atom_site_label_1
_geom_bond_atom_site_label_2
_geom_bond_distance
_geom_bond_site_symmetry_2
_ccdc_geom_bond_type
Zn0 O3 2.031 1_655 S
Zn0 O5 2.049 . S
Zn0 O10 2.067 . S
Zn1 O2 1.962 . S
Zn1 O4 1.986 . S
Zn1 O6 1.996 . S
Zn1 O9 1.943 . S
O2 Zn1 1.962 . S
O2 C7 1.254 . S
O3 Zn0 2.031 1_455 S
O3 C7 1.269 . S
O4 Zn1 1.986 . S
O4 C11 1.262 . S
O5 Zn0 2.049 . S
O5 C13 1.260 1_655 S
O6 Zn1 1.996 . S
O6 C13 1.257 . S
C7 O2 1.254 . S
C7 O3 1.269 . S
C8 O9 1.249 1_655 S
C8 O10 1.270 . S
O9 Zn1 1.943 . S
O9 C8 1.249 1_455 S
O10 Zn0 2.067 . S
O10 C8 1.270 . S
C11 O4 1.262 . S
C11 O12 1.232 . S
O12 C11 1.232 . S
C13 O5 1.260 1_455 S
C13 O6 1.257 . S
Zn14 O17 2.031 1_455 S
Zn14 O19 2.049 . S
Zn14 O24 2.067 . S
Zn15 O16 1.962 1_455 S
Zn15 O18 1.986 . S
Zn15 O20 1.996 . S
Zn15 O23 1.943 . S
O16 Zn15 1.962 1_655 S
O16 C21 1.254 . S
O17 Zn14 2.031 1_655 S
O17 C21 1.269 . S
O18 Zn15 1.986 . S
O18 C25 1.262 . S
O19 Zn14 2.049 . S
O19 C27 1.260 . S
O20 Zn15 1.996 . S
O20 C27 1.257 . S
C21 O16 1.254 . S
C21 O17 1.269 . S
C22 O23 1.249 . S
C22 O24 1.270 . S
O23 Zn15 1.943 . S
O23 C22 1.249 . S
O24 Zn14 2.067 . S
O24 C22 1.270 . S
C25 O18 1.262 . S
C25 O26 1.232 1_455 S
O26 C25 1.232 1_655 S
C27 O19 1.260 . S
C27 O20 1.257 . S
Zn28 O31 2.031 . S
Zn28 O33 2.049 . S
Zn28 O38 2.067 . S
Zn29 O30 1.962 . S
Zn29 O32 1.986 . S
Zn29 O34 1.996 . S
Zn29 O37 1.943 . S
O30 Zn29 1.962 . S
O30 C35 1.254 . S
O31 Zn28 2.031 . S
O31 C35 1.269 . S
O32 Zn29 1.986 . S
O32 C39 1.262 . S
O33 Zn28 2.049 . S
O33 C41 1.260 . S
O34 Zn29 1.996 . S
O34 C41 1.257 . S
C35 O30 1.254 . S
C35 O31 1.269 . S
C36 O37 1.249 . S
C36 O38 1.270 . S
O37 Zn29 1.943 . S
O37 C36 1.249 . S
O38 Zn28 2.067 . S
O38 C36 1.270 . S
C39 O32 1.262 . S
C39 O40 1.232 . S
O40 C39 1.232 . S
C41 O33 1.260 . S
C41 O34 1.257 . S
Zn42 O45 2.031 . S
Zn42 O47 2.049 . S
Zn42 O52 2.067 . S
Zn43 O44 1.962 . S
Zn43 O46 1.986 . S
Zn43 O48 1.996 . S
Zn43 O51 1.943 . S
O44 Zn43 1.962 . S
O44 C49 1.254 . S
O45 Zn42 2.031 . S
O45 C49 1.269 . S
O46 Zn43 1.986 . S
O46 C53 1.262 . S
O47 Zn42 2.049 . S
O47 C55 1.260 . S
O48 Zn43 1.996 . S
O48 C55 1.257 . S
C49 O44 1.254 . S
C49 O45 1.269 . S
C50 O51 1.249 . S
C50 O52 1.270 . S
O51 Zn43 1.943 . S
O51 C50 1.249 . S
O52 Zn42 2.067 . S
O52 C50 1.270 . S
C53 O46 1.262 . S
C53 O54 1.232 . S
O54 C53 1.232 . S
C55 O47 1.260 . S
C55 O48 1.257 . S
Zn56 O59 2.031 . S
Zn56 O61 2.049 . S
Zn56 O66 2.067 . S
Zn57 O58 1.962 . S
Zn57 O60 1.986 1_455 S
Zn57 O62 1.996 . S
Zn57 O65 1.943 . S
O58 Zn57 1.962 . S
O58 C63 1.254 . S
O59 Zn56 2.031 . S
O59 C63 1.269 . S
O60 Zn57 1.986 1_655 S
O60 C67 1.262 . S
O61 Zn56 2.049 . S
O61 C69 1.260 . S
O62 Zn57 1.996 . S
O62 C69 1.257 . S
C63 O58 1.254 . S
C63 O59 1.269 . S
C64 O65 1.249 . S
C64 O66 1.270 . S
O65 Zn57 1.943 . S
O65 C64 1.249 . S
O66 Zn56 2.067 . S
O66 C64 1.270 . S
C67 O60 1.262 . S
C67 O68 1.232 1_655 S
O68 C67 1.232 1_455 S
C69 O61 1.260 . S
C69 O62 1.257 . S
Zn70 O73 2.031 . S
Zn70 O75 2.049 . S
Zn70 O80 2.067 . S
Zn71 O72 1.962 . S
Zn71 O74 1.986 . S
Zn71 O76 1.996 . S
Zn71 O79 1.943 . S
O72 Zn71 1.962 . S
O72 C77 1.254 . S
O73 Zn70 2.031 . S
O73 C77 1.269 . S
O74 Zn71 1.986 . S
O74 C81 1.262 . S
O75 Zn70 2.049 . S
O75 C83 1.260 . S
O76 Zn71 1.996 . S
O76 C83 1.257 . S
C77 O72 1.254 . S
C77 O73 1.269 . S
C78 O79 1.249 . S
C78 O80 1.270 . S
O79 Zn71 1.943 . S
O79 C78 1.249 . S
O80 Zn70 2.067 . S
O80 C78 1.270 . S
C81 O74 1.262 . S
C81 O82 1.232 . S
O82 C81 1.232 . S
C83 O75 1.260 . S
C83 O76 1.257 . S
Zn84 O87 2.031 . S
Zn84 O89 2.049 . S
Zn84 O94 2.067 . S
Zn85 O86 1.962 . S
Zn85 O88 1.986 . S
Zn85 O90 1.996 . S
Zn85 O93 1.943 . S
O86 Zn85 1.962 . S
O86 C91 1.254 . S
O87 Zn84 2.031 . S
O87 C91 1.269 . S
O88 Zn85 1.986 . S
O88 C95 1.262 . S
O89 Zn84 2.049 . S
O89 C97 1.260 . S
O90 Zn85 1.996 . S
O90 C97 1.257 . S
C91 O86 1.254 . S
C91 O87 1.269 . S
C92 O93 1.249 . S
C92 O94 1.270 . S
O93 Zn85 1.943 . S
O93 C92 1.249 . S
O94 Zn84 2.067 . S
O94 C92 1.270 . S
C95 O88 1.262 . S
C95 O96 1.232 . S
O96 C95 1.232 . S
C97 O89 1.260 . S
C97 O90 1.257 . S
Zn98 O101 2.031 . S
Zn98 O103 2.049 . S
Zn98 O108 2.067 . S
Zn99 O100 1.962 . S
Zn99 O102 1.986 . S
Zn99 O104 1.996 . S
Zn99 O107 1.943 1_455 S
O100 Zn99 1.962 . S
O100 C105 1.266 . S
O101 Zn98 2.031 . S
O101 C105 1.258 1_655 S
O102 Zn99 1.986 . S
O102 C109 1.262 . S
O103 Zn98 2.049 . S
O103 C111 1.260 . S
O104 Zn99 1.996 . S
O104 C111 1.257 1_455 S
C105 O100 1.266 . S
C105 O101 1.258 1_455 S
C106 O107 1.249 . S
C106 O108 1.270 . S
O107 Zn99 1.943 1_655 S
O107 C106 1.249 . S
O108 Zn98 2.067 . S
O108 C106 1.270 . S
C109 O102 1.262 . S
C109 O110 1.232 . S
O110 C109 1.232 . S
C111 O103 1.260 . S
C111 O104 1.257 1_655 S
Zn112 O115 2.037 . S
Zn112 O117 2.049 . S
Zn112 O122 2.067 . S
Zn113 O114 1.962 . S
Zn113 O116 1.986 . S
Zn113 O118 1.996 . S
Zn113 O121 1.955 . S
O114 Zn113 1.962 . S
O114 C119 1.254 . S
O115 Zn112 2.037 . S
O115 C119 1.248 1_565 S
O116 Zn113 1.986 . S
O116 C123 1.262 . S
O117 Zn112 2.049 . S
O117 C125 1.260 1_565 S
O118 Zn113 1.996 . S
O118 C125 1.257 . S
C119 O114 1.254 . S
C119 O115 1.248 1_545 S
C120 O121 1.233 1_565 S
C120 O122 1.270 . S
O121 Zn113 1.955 . S
O121 C120 1.233 1_545 S
O122 Zn112 2.067 . S
O122 C120 1.270 . S
C123 O116 1.262 . S
C123 O124 1.232 . S
O124 C123 1.232 . S
C125 O117 1.260 1_545 S
C125 O118 1.257 . S
Zn126 O129 2.031 . S
Zn126 O131 2.049 . S
Zn126 O136 2.067 . S
Zn127 O128 1.962 . S
Zn127 O130 1.986 . S
Zn127 O132 1.996 . S
Zn127 O135 1.943 . S
O128 Zn127 1.962 . S
O128 C133 1.254 . S
O129 Zn126 2.031 . S
O129 C133 1.269 . S
O130 Zn127 1.986 . S
O130 C137 1.262 . S
O131 Zn126 2.049 . S
O131 C139 1.260 . S
O132 Zn127 1.996 . S
O132 C139 1.257 . S
C133 O128 1.254 . S
C133 O129 1.269 . S
C134 O135 1.249 . S
C134 O136 1.270 . S
O135 Zn127 1.943 . S
O135 C134 1.249 . S
O136 Zn126 2.067 . S
O136 C134 1.270 . S
C137 O130 1.262 . S
C137 O138 1.232 . S
O138 C137 1.232 . S
C139 O131 1.260 . S
C139 O132 1.257 . S
Zn140 O143 2.031 . S
Zn140 O145 2.049 . S
Zn140 O150 2.067 . S
Zn141 O142 1.962 . S
Zn141 O144 1.986 1_545 S
Zn141 O146 1.996 . S
Zn141 O149 1.943 . S
O142 Zn141 1.962 . S
O142 C147 1.254 . S
O143 Zn140 2.031 . S
O143 C147 1.269 . S
O144 Zn141 1.986 1_565 S
O144 C151 1.262 . S
O145 Zn140 2.049 . S
O145 C153 1.260 . S
O146 Zn141 1.996 . S
O146 C153 1.257 . S
C147 O142 1.254 . S
C147 O143 1.269 . S
C148 O149 1.249 . S
C148 O150 1.270 . S
O149 Zn141 1.943 . S
O149 C148 1.249 . S
O150 Zn140 2.067 . S
O150 C148 1.270 . S
C151 O144 1.262 . S
C151 O152 1.232 . S
O152 C151 1.232 . S
C153 O145 1.260 . S
C153 O146 1.257 . S
Zn154 O157 2.031 1_554 S
Zn154 O159 2.049 . S
Zn154 O164 2.067 . S
Zn155 O156 1.962 1_554 S
Zn155 O158 1.986 . S
Zn155 O160 1.996 . S
Zn155 O163 1.943 . S
O156 Zn155 1.962 1_556 S
O156 C161 1.254 . S
O157 Zn154 2.031 1_556 S
O157 C161 1.269 . S
O158 Zn155 1.986 . S
O158 C165 1.262 . S
O159 Zn154 2.049 . S
O159 C167 1.260 . S
O160 Zn155 1.996 . S
O160 C167 1.257 . S
C161 O156 1.254 . S
C161 O157 1.269 . S
C162 O163 1.249 . S
C162 O164 1.270 . S
O163 Zn155 1.943 . S
O163 C162 1.249 . S
O164 Zn154 2.067 . S
O164 C162 1.270 . S
C165 O158 1.262 . S
C165 O166 1.232 1_554 S
O166 C165 1.232 1_556 S
C167 O159 1.260 . S
C167 O160 1.257 . S
Zn168 O171 2.031 . S
Zn168 O173 2.049 . S
Zn168 O178 2.067 . S
Zn169 O170 1.962 . S
Zn169 O172 1.986 . S
Zn169 O174 1.996 . S
Zn169 O177 1.943 . S
O170 Zn169 1.962 . S
O170 C175 1.254 . S
O171 Zn168 2.031 . S
O171 C175 1.269 . S
O172 Zn169 1.986 . S
O172 C179 1.262 . S
O173 Zn168 2.049 . S
O173 C181 1.260 . S
O174 Zn169 1.996 . S
O174 C181 1.257 . S
C175 O170 1.254 . S
C175 O171 1.269 . S
C176 O177 1.249 . S
C176 O178 1.270 . S
O177 Zn169 1.943 . S
O177 C176 1.249 . S
O178 Zn168 2.067 . S
O178 C176 1.270 . S
C179 O172 1.262 . S
C179 O180 1.232 . S
O180 C179 1.232 . S
C181 O173 1.260 . S
C181 O174 1.257 . S
Zn182 O185 2.031 . S
Zn182 O187 2.049 . S
Zn182 O192 2.067 . S
Zn183 O184 1.962 . S
Zn183 O186 1.986 . S
Zn183 O188 1.996 . S
Zn183 O191 1.943 . S
O184 Zn183 1.962 . S
O184 C189 1.254 1_554 S
O185 Zn182 2.031 . S
O185 C189 1.269 1_554 S
O186 Zn183 1.986 . S
O186 C193 1.262 . S
O187 Zn182 2.049 . S
O187 C195 1.260 . S
O188 Zn183 1.996 . S
O188 C195 1.257 . S
C189 O184 1.254 1_556 S
C189 O185 1.269 1_556 S
C190 O191 1.249 . S
C190 O192 1.270 . S
O191 Zn183 1.943 . S
O191 C190 1.249 . S
O192 Zn182 2.067 . S
O192 C190 1.270 . S
C193 O186 1.262 . S
C193 O194 1.232 . S
O194 C193 1.232 . S
C195 O187 1.260 . S
C195 O188 1.257 . S
Zn196 O199 2.031 . S
Zn196 O201 2.049 . S
Zn196 O206 2.067 . S
Zn197 O198 1.962 . S
Zn197 O200 1.986 . S
Zn197 O202 1.996 . S
Zn197 O205 1.943 . S
O198 Zn197 1.962 . S
O198 C203 1.254 . S
O199 Zn196 2.031 . S
O199 C203 1.269 . S
O200 Zn197 1.986 . S
O200 C207 1.262 . S
O201 Zn196 2.049 . S
O201 C209 1.260 . S
O202 Zn197 1.996 . S
O202 C209 1.257 . S
C203 O198 1.254 . S
C203 O199 1.269 . S
C204 O205 1.249 . S
C204 O206 1.270 . S
O205 Zn197 1.943 . S
O205 C204 1.249 . S
O206 Zn196 2.067 . S
O206 C204 1.270 . S
C207 O200 1.262 . S
C207 O208 1.232 . S
O208 C207 1.232 . S
C209 O201 1.260 . S
C209 O202 1.257 . S
Zn210 O213 2.031 . S
Zn210 O215 2.049 . S
Zn210 O220 2.067 . S
Zn211 O212 1.962 . S
Zn211 O214 1.986 . S
Zn211 O216 1.996 . S
Zn211 O219 1.943 . S
O212 Zn211 1.962 . S
O212 C217 1.254 . S
O213 Zn210 2.031 . S
O213 C217 1.269 . S
O214 Zn211 1.986 . S
O214 C221 1.262 . S
O215 Zn210 2.049 . S
O215 C223 1.260 . S
O216 Zn211 1.996 . S
O216 C223 1.257 . S
C217 O212 1.254 . S
C217 O213 1.269 . S
C218 O219 1.249 . S
C218 O220 1.270 . S
O219 Zn211 1.943 . S
O219 C218 1.249 . S
O220 Zn210 2.067 . S
O220 C218 1.270 . S
C221 O214 1.262 . S
C221 O222 1.232 . S
O222 C221 1.232 . S
C223 O215 1.260 . S
C223 O216 1.257 . S
Zn224 O227 2.031 . S
Zn224 O229 2.049 . S
Zn224 O234 2.067 . S
Zn225 O226 1.962 . S
Zn225 O228 1.986 . S
Zn225 O230 1.996 . S
Zn225 O233 1.943 1_545 S
O226 Zn225 1.962 . S
O226 C231 1.254 . S
O227 Zn224 2.031 . S
O227 C231 1.269 1_565 S
O228 Zn225 1.986 . S
O228 C235 1.262 . S
O229 Zn224 2.049 . S
O229 C237 1.229 1_565 S
O230 Zn225 1.996 . S
O230 C237 1.272 . S
C231 O226 1.254 . S
C231 O227 1.269 1_545 S
C232 O233 1.249 . S
C232 O234 1.270 . S
O233 Zn225 1.943 1_565 S
O233 C232 1.249 . S
O234 Zn224 2.067 . S
O234 C232 1.270 . S
C235 O228 1.262 . S
C235 O236 1.232 . S
O236 C235 1.232 . S
C237 O229 1.229 1_545 S
C237 O230 1.272 . S
Zn238 O241 2.031 . S
Zn238 O243 2.049 . S
Zn238 O248 2.067 . S
Zn239 O240 1.962 . S
Zn239 O242 1.986 . S
Zn239 O244 1.996 . S
Zn239 O247 1.943 . S
O240 Zn239 1.962 . S
O240 C245 1.254 . S
O241 Zn238 2.031 . S
O241 C245 1.269 . S
O242 Zn239 1.986 . S
O242 C249 1.262 . S
O243 Zn238 2.049 . S
O243 C251 1.260 . S
O244 Zn239 1.996 . S
O244 C251 1.257 . S
C245 O240 1.254 . S
C245 O241 1.269 . S
C246 O247 1.249 . S
C246 O248 1.270 . S
O247 Zn239 1.943 . S
O247 C246 1.249 . S
O248 Zn238 2.067 . S
O248 C246 1.270 . S
C249 O242 1.262 . S
C249 O250 1.232 . S
O250 C249 1.232 . S
C251 O243 1.260 . S
C251 O244 1.257 . S
Zn252 O255 2.031 . S
Zn252 O257 2.049 . S
Zn252 O262 2.067 . S
Zn253 O254 1.962 . S
Zn253 O256 1.986 . S
Zn253 O258 1.996 . S
Zn253 O261 1.943 . S
O254 Zn253 1.962 . S
O254 C259 1.254 . S
O255 Zn252 2.031 . S
O255 C259 1.269 . S
O256 Zn253 1.986 . S
O256 C263 1.262 . S
O257 Zn252 2.049 . S
O257 C265 1.260 . S
O258 Zn253 1.996 . S
O258 C265 1.257 . S
C259 O254 1.254 . S
C259 O255 1.269 . S
C260 O261 1.249 . S
C260 O262 1.270 . S
O261 Zn253 1.943 . S
O261 C260 1.249 . S
O262 Zn252 2.067 . S
O262 C260 1.270 . S
C263 O256 1.262 . S
C263 O264 1.232 . S
O264 C263 1.232 . S
C265 O257 1.260 . S
C265 O258 1.257 . S
Zn266 O269 2.031 . S
Zn266 O271 2.049 . S
Zn266 O276 2.067 . S
Zn267 O268 1.962 . S
Zn267 O270 1.986 . S
Zn267 O272 1.996 . S
Zn267 O275 1.943 1_565 S
O268 Zn267 1.962 . S
O268 C273 1.254 1_565 S
O269 Zn266 2.031 . S
O269 C273 1.269 . S
O270 Zn267 1.986 . S
O270 C277 1.262 . S
O271 Zn266 2.049 . S
O271 C279 1.260 . S
O272 Zn267 1.996 . S
O272 C279 1.257 1_565 S
C273 O268 1.254 1_545 S
C273 O269 1.269 . S
C274 O275 1.249 . S
C274 O276 1.270 . S
O275 Zn267 1.943 1_545 S
O275 C274 1.249 . S
O276 Zn266 2.067 . S
O276 C274 1.270 . S
C277 O270 1.262 . S
C277 O278 1.232 . S
O278 C277 1.232 . S
C279 O271 1.260 . S
C279 O272 1.257 1_545 S
Zn280 O283 2.031 1_554 S
Zn280 O285 2.049 . S
Zn280 O290 2.067 . S
Zn281 O282 1.984 . S
Zn281 O284 1.975 1_556 S
Zn281 O286 1.979 1_556 S
Zn281 O289 1.940 . S
O282 Zn281 1.984 . S
O282 C287 1.254 . S
O283 Zn280 2.031 1_556 S
O283 C287 1.269 . S
O284 Zn281 1.975 1_554 S
O284 C291 1.262 1_554 S
O285 Zn280 2.049 . S
O285 C293 1.260 . S
O286 Zn281 1.979 1_554 S
O286 C293 1.257 . S
C287 O282 1.254 . S
C287 O283 1.269 . S
C288 O289 1.249 . S
C288 O290 1.270 1_556 S
O289 Zn281 1.940 . S
O289 C288 1.249 . S
O290 Zn280 2.067 . S
O290 C288 1.270 1_554 S
C291 O284 1.262 1_556 S
C291 O292 1.232 . S
O292 C291 1.232 . S
C293 O285 1.260 . S
C293 O286 1.257 . S
Zn294 O297 2.031 . S
Zn294 O299 2.049 . S
Zn294 O304 2.067 . S
Zn295 O296 1.962 . S
Zn295 O298 1.986 . S
Zn295 O300 1.996 . S
Zn295 O303 1.943 . S
O296 Zn295 1.962 . S
O296 C301 1.254 . S
O297 Zn294 2.031 . S
O297 C301 1.269 . S
O298 Zn295 1.986 . S
O298 C305 1.262 . S
O299 Zn294 2.049 . S
O299 C307 1.260 . S
O300 Zn295 1.996 . S
O300 C307 1.257 . S
C301 O296 1.254 . S
C301 O297 1.269 . S
C302 O303 1.249 . S
C302 O304 1.270 . S
O303 Zn295 1.943 . S
O303 C302 1.249 . S
O304 Zn294 2.067 . S
O304 C302 1.270 . S
C305 O298 1.262 . S
C305 O306 1.232 . S
O306 C305 1.232 . S
C307 O299 1.260 . S
C307 O300 1.257 . S
Zn308 O311 2.031 . S
Zn308 O313 2.049 . S
Zn308 O318 2.067 . S
Zn309 O310 1.962 . S
Zn309 O312 1.986 . S
Zn309 O314 1.996 . S
Zn309 O317 1.943 . S
O310 Zn309 1.962 . S
O310 C315 1.254 . S
O311 Zn308 2.031 . S
O311 C315 1.269 . S
O312 Zn309 1.986 . S
O312 C319 1.262 . S
O313 Zn308 2.049 . S
O313 C321 1.260 . S
O314 Zn309 1.996 . S
O314 C321 1.257 . S
C315 O310 1.254 . S
C315 O311 1.269 . S
C316 O317 1.249 . S
C316 O318 1.270 . S
O317 Zn309 1.943 . S
O317 C316 1.249 . S
O318 Zn308 2.067 . S
O318 C316 1.270 . S
C319 O312 1.262 . S
C319 O320 1.232 . S
O320 C319 1.232 . S
C321 O313 1.260 . S
C321 O314 1.257 . S
Zn322 O325 2.031 . S
Zn322 O327 2.049 . S
Zn322 O332 2.067 . S
Zn323 O324 1.962 . S
Zn323 O326 1.986 . S
Zn323 O328 1.996 . S
Zn323 O331 1.943 . S
O324 Zn323 1.962 . S
O324 C329 1.254 . S
O325 Zn322 2.031 . S
O325 C329 1.269 . S
O326 Zn323 1.986 . S
O326 C333 1.262 . S
O327 Zn322 2.049 . S
O327 C335 1.260 . S
O328 Zn323 1.996 . S
O328 C335 1.257 . S
C329 O324 1.254 . S
C329 O325 1.269 . S
C330 O331 1.249 . S
C330 O332 1.270 . S
O331 Zn323 1.943 . S
O331 C330 1.249 . S
O332 Zn322 2.067 . S
O332 C330 1.270 . S
C333 O326 1.262 . S
C333 O334 1.232 . S
O334 C333 1.232 . S
C335 O327 1.260 . S
C335 O328 1.257 . S
Zn336 O342 1.969 . S
Zn336 O343 1.965 1_565 S
Zn336 O347 2.024 . S
Zn336 O352 1.969 1_565 S
Zn337 O344 1.948 1_654 S
Zn337 O350 2.000 1_554 S
Zn337 O351 1.963 . S
Zn337 O353 2.011 1_655 S
C338 O339 1.229 . S
C338 O347 1.058 . S
O339 C338 1.229 . S
C340 O341 1.229 1_554 S
C340 O353 1.058 . S
O341 C340 1.229 1_556 S
O342 Zn336 1.969 . S
O342 C345 1.271 . S
O343 Zn336 1.965 1_545 S
O343 C354 1.260 1_554 S
O344 Zn337 1.948 1_456 S
O344 C354 1.258 . S
C345 O342 1.271 . S
C345 O346 1.228 . S
O346 C345 1.228 . S
O347 Zn336 2.024 . S
O347 C338 1.058 . S
C348 O349 1.228 . S
C348 O350 1.267 1_554 S
O349 C348 1.228 . S
O350 Zn337 2.000 1_556 S
O350 C348 1.267 1_556 S
O351 Zn337 1.963 . S
O351 C355 1.260 1_655 S
O352 Zn336 1.969 1_545 S
O352 C355 1.258 . S
O353 Zn337 2.011 1_455 S
O353 C340 1.058 . S
C354 O343 1.260 1_556 S
C354 O344 1.258 . S
C355 O351 1.260 1_455 S
C355 O352 1.258 . S
Zn356 O362 1.969 . S
Zn356 O363 1.965 . S
Zn356 O367 2.024 . S
Zn356 O372 1.969 . S
Zn357 O364 1.969 . S
Zn357 O370 1.969 . S
Zn357 O371 1.965 . S
Zn357 O373 2.024 . S
C358 O359 1.229 . S
C358 O367 1.058 . S
O359 C358 1.229 . S
C360 O361 1.229 . S
C360 O373 1.058 . S
O361 C360 1.229 . S
O362 Zn356 1.969 . S
O362 C365 1.267 . S
O363 Zn356 1.965 . S
O363 C374 1.260 . S
O364 Zn357 1.969 . S
O364 C374 1.258 . S
C365 O362 1.267 . S
C365 O366 1.228 . S
O366 C365 1.228 . S
O367 Zn356 2.024 . S
O367 C358 1.058 . S
C368 O369 1.228 . S
C368 O370 1.267 . S
O369 C368 1.228 . S
O370 Zn357 1.969 . S
O370 C368 1.267 . S
O371 Zn357 1.965 . S
O371 C375 1.260 . S
O372 Zn356 1.969 . S
O372 C375 1.258 . S
O373 Zn357 2.024 . S
O373 C360 1.058 . S
C374 O363 1.260 . S
C374 O364 1.258 . S
C375 O371 1.260 . S
C375 O372 1.258 . S
Zn376 O382 1.969 . S
Zn376 O383 1.965 . S
Zn376 O387 2.024 . S
Zn376 O392 1.969 . S
Zn377 O384 1.969 . S
Zn377 O390 1.969 . S
Zn377 O391 1.965 1_565 S
Zn377 O393 2.024 . S
C378 O379 1.229 . S
C378 O387 1.058 . S
O379 C378 1.229 . S
C380 O381 1.229 . S
C380 O393 1.058 . S
O381 C380 1.229 . S
O382 Zn376 1.969 . S
O382 C385 1.267 . S
O383 Zn376 1.965 . S
O383 C394 1.260 . S
O384 Zn377 1.969 . S
O384 C394 1.258 1_565 S
C385 O382 1.267 . S
C385 O386 1.228 . S
O386 C385 1.228 . S
O387 Zn376 2.024 . S
O387 C378 1.058 . S
C388 O389 1.228 . S
C388 O390 1.267 . S
O389 C388 1.228 . S
O390 Zn377 1.969 . S
O390 C388 1.267 . S
O391 Zn377 1.965 1_545 S
O391 C395 1.260 . S
O392 Zn376 1.969 . S
O392 C395 1.258 . S
O393 Zn377 2.024 . S
O393 C380 1.058 . S
C394 O383 1.260 . S
C394 O384 1.258 1_545 S
C395 O391 1.260 . S
C395 O392 1.258 . S
Zn396 O402 1.969 . S
Zn396 O403 1.965 . S
Zn396 O407 2.024 . S
Zn396 O412 1.969 . S
Zn397 O404 1.969 . S
Zn397 O410 1.969 . S
Zn397 O411 1.965 . S
Zn397 O413 2.024 . S
C398 O399 1.229 . S
C398 O407 1.058 . S
O399 C398 1.229 . S
C400 O401 1.229 . S
C400 O413 1.058 . S
O401 C400 1.229 . S
O402 Zn396 1.969 . S
O402 C405 1.267 . S
O403 Zn396 1.965 . S
O403 C414 1.260 . S
O404 Zn397 1.969 . S
O404 C414 1.258 . S
C405 O402 1.267 . S
C405 O406 1.228 . S
O406 C405 1.228 . S
O407 Zn396 2.024 . S
O407 C398 1.058 . S
C408 O409 1.228 . S
C408 O410 1.267 . S
O409 C408 1.228 . S
O410 Zn397 1.969 . S
O410 C408 1.267 . S
O411 Zn397 1.965 . S
O411 C415 1.260 . S
O412 Zn396 1.969 . S
O412 C415 1.258 . S
O413 Zn397 2.024 . S
O413 C400 1.058 . S
C414 O403 1.260 . S
C414 O404 1.258 . S
C415 O411 1.260 . S
C415 O412 1.258 . S
Zn416 O422 1.969 . S
Zn416 O423 1.965 1_455 S
Zn416 O427 2.024 1_565 S
Zn416 O432 1.969 1_565 S
Zn417 O424 1.969 1_455 S
Zn417 O430 1.969 1_455 S
Zn417 O431 1.965 . S
Zn417 O433 2.024 . S
C418 O419 1.229 1_545 S
C418 O427 1.058 . S
O419 C418 1.229 1_565 S
C420 O421 1.229 . S
C420 O433 1.058 1_655 S
O421 C420 1.229 . S
O422 Zn416 1.969 . S
O422 C425 1.267 . S
O423 Zn416 1.965 1_655 S
O423 C434 1.260 . S
O424 Zn417 1.969 1_655 S
O424 C434 1.258 1_545 S
C425 O422 1.267 . S
C425 O426 1.228 . S
O426 C425 1.228 . S
O427 Zn416 2.024 1_545 S
O427 C418 1.058 . S
C428 O429 1.228 . S
C428 O430 1.267 1_455 S
O429 C428 1.228 . S
O430 Zn417 1.969 1_655 S
O430 C428 1.267 1_655 S
O431 Zn417 1.965 . S
O431 C435 1.260 . S
O432 Zn416 1.969 1_545 S
O432 C435 1.258 . S
O433 Zn417 2.024 . S
O433 C420 1.058 1_455 S
C434 O423 1.260 . S
C434 O424 1.258 1_565 S
C435 O431 1.260 . S
C435 O432 1.258 . S
Zn436 O442 1.969 . S
Zn436 O443 1.965 . S
Zn436 O447 2.024 . S
Zn436 O452 1.969 . S
Zn437 O444 1.969 . S
Zn437 O450 1.969 . S
Zn437 O451 1.965 . S
Zn437 O453 2.024 . S
C438 O439 1.229 . S
C438 O447 1.058 . S
O439 C438 1.229 . S
C440 O441 1.229 . S
C440 O453 1.058 . S
O441 C440 1.229 . S
O442 Zn436 1.969 . S
O442 C445 1.267 . S
O443 Zn436 1.965 . S
O443 C454 1.260 . S
O444 Zn437 1.969 . S
O444 C454 1.258 . S
C445 O442 1.267 . S
C445 O446 1.228 . S
O446 C445 1.228 . S
O447 Zn436 2.024 . S
O447 C438 1.058 . S
C448 O449 1.228 . S
C448 O450 1.267 . S
O449 C448 1.228 . S
O450 Zn437 1.969 . S
O450 C448 1.267 . S
O451 Zn437 1.965 . S
O451 C455 1.260 . S
O452 Zn436 1.969 . S
O452 C455 1.258 . S
O453 Zn437 2.024 . S
O453 C440 1.058 . S
C454 O443 1.260 . S
C454 O444 1.258 . S
C455 O451 1.260 . S
C455 O452 1.258 . S
Zn456 O462 1.969 . S
Zn456 O463 1.965 1_545 S
Zn456 O467 2.024 1_556 S
Zn456 O472 1.969 1_556 S
Zn457 O464 1.969 1_545 S
Zn457 O470 1.969 1_545 S
Zn457 O471 1.965 . S
Zn457 O473 2.024 . S
C458 O459 1.242 . S
C458 O467 1.058 . S
O459 C458 1.242 . S
C460 O461 1.229 . S
C460 O473 1.058 1_565 S
O461 C460 1.229 . S
O462 Zn456 1.969 . S
O462 C465 1.267 . S
O463 Zn456 1.965 1_565 S
O463 C474 1.260 1_556 S
O464 Zn457 1.969 1_565 S
O464 C474 1.258 . S
C465 O462 1.267 . S
C465 O466 1.228 . S
O466 C465 1.228 . S
O467 Zn456 2.024 1_554 S
O467 C458 1.058 . S
C468 O469 1.228 . S
C468 O470 1.267 1_545 S
O469 C468 1.228 . S
O470 Zn457 1.969 1_565 S
O470 C468 1.267 1_565 S
O471 Zn457 1.965 . S
O471 C475 1.260 . S
O472 Zn456 1.969 1_554 S
O472 C475 1.258 . S
O473 Zn457 2.024 . S
O473 C460 1.058 1_545 S
C474 O463 1.260 1_554 S
C474 O464 1.258 . S
C475 O471 1.260 . S
C475 O472 1.258 . S
Zn476 O482 1.969 . S
Zn476 O483 1.965 . S
Zn476 O487 2.024 . S
Zn476 O492 1.969 . S
Zn477 O484 1.969 . S
Zn477 O490 1.969 . S
Zn477 O491 1.965 . S
Zn477 O493 2.024 . S
C478 O479 1.229 . S
C478 O487 1.058 . S
O479 C478 1.229 . S
C480 O481 1.229 . S
C480 O493 1.058 . S
O481 C480 1.229 . S
O482 Zn476 1.969 . S
O482 C485 1.267 . S
O483 Zn476 1.965 . S
O483 C494 1.260 . S
O484 Zn477 1.969 . S
O484 C494 1.258 . S
C485 O482 1.267 . S
C485 O486 1.228 . S
O486 C485 1.228 . S
O487 Zn476 2.024 . S
O487 C478 1.058 . S
C488 O489 1.228 . S
C488 O490 1.267 . S
O489 C488 1.228 . S
O490 Zn477 1.969 . S
O490 C488 1.267 . S
O491 Zn477 1.965 . S
O491 C495 1.260 . S
O492 Zn476 1.969 . S
O492 C495 1.258 . S
O493 Zn477 2.024 . S
O493 C480 1.058 . S
C494 O483 1.260 . S
C494 O484 1.258 . S
C495 O491 1.260 . S
C495 O492 1.258 . S
Zn496 O502 1.969 . S
Zn496 O503 1.965 . S
Zn496 O507 2.024 . S
Zn496 O512 1.969 . S
Zn497 O504 1.969 1_556 S
Zn497 O510 1.969 1_556 S
Zn497 O511 1.965 1_556 S
Zn497 O513 2.024 . S
C498 O499 1.229 . S
C498 O507 1.058 . S
O499 C498 1.229 . S
C500 O501 1.229 . S
C500 O513 1.058 . S
O501 C500 1.229 . S
O502 Zn496 1.969 . S
O502 C505 1.267 . S
O503 Zn496 1.965 . S
O503 C514 1.260 . S
O504 Zn497 1.969 1_554 S
O504 C514 1.258 . S
C505 O502 1.267 . S
C505 O506 1.228 . S
O506 C505 1.228 . S
O507 Zn496 2.024 . S
O507 C498 1.058 . S
C508 O509 1.228 . S
C508 O510 1.267 1_556 S
O509 C508 1.228 . S
O510 Zn497 1.969 1_554 S
O510 C508 1.267 1_554 S
O511 Zn497 1.965 1_554 S
O511 C515 1.260 . S
O512 Zn496 1.969 . S
O512 C515 1.258 . S
O513 Zn497 2.024 . S
O513 C500 1.058 . S
C514 O503 1.260 . S
C514 O504 1.258 . S
C515 O511 1.260 . S
C515 O512 1.258 . S
Zn516 O522 1.969 . S
Zn516 O523 1.965 . S
Zn516 O527 2.024 . S
Zn516 O532 1.969 . S
Zn517 O524 1.969 . S
Zn517 O530 1.969 . S
Zn517 O531 1.965 . S
Zn517 O533 2.024 . S
C518 O519 1.229 . S
C518 O527 1.058 . S
O519 C518 1.229 . S
C520 O521 1.229 . S
C520 O533 1.058 . S
O521 C520 1.229 . S
O522 Zn516 1.969 . S
O522 C525 1.267 . S
O523 Zn516 1.965 . S
O523 C534 1.260 . S
O524 Zn517 1.969 . S
O524 C534 1.258 . S
C525 O522 1.267 . S
C525 O526 1.228 . S
O526 C525 1.228 . S
O527 Zn516 2.024 . S
O527 C518 1.058 . S
C528 O529 1.228 . S
C528 O530 1.267 . S
O529 C528 1.228 . S
O530 Zn517 1.969 . S
O530 C528 1.267 . S
O531 Zn517 1.965 . S
O531 C535 1.260 . S
O532 Zn516 1.969 . S
O532 C535 1.258 . S
O533 Zn517 2.024 . S
O533 C520 1.058 . S
C534 O523 1.260 . S
C534 O524 1.258 . S
C535 O531 1.260 . S
C535 O532 1.258 . S
Zn536 O542 1.969 . S
Zn536 O543 1.965 . S
Zn536 O547 2.024 . S
Zn536 O552 1.969 . S
Zn537 O544 1.947 1_655 S
Zn537 O550 1.969 . S
Zn537 O551 1.965 1_655 S
Zn537 O553 2.024 . S
C538 O539 1.229 . S
C538 O547 1.058 . S
O539 C538 1.229 . S
C540 O541 1.229 . S
C540 O553 1.058 . S
O541 C540 1.229 . S
O542 Zn536 1.969 . S
O542 C545 1.267 . S
O543 Zn536 1.965 . S
O543 C554 1.260 . S
O544 Zn537 1.947 1_455 S
O544 C554 1.283 . S
C545 O542 1.267 . S
C545 O546 1.228 . S
O546 C545 1.228 . S
O547 Zn536 2.024 . S
O547 C538 1.058 . S
C548 O549 1.228 . S
C548 O550 1.267 . S
O549 C548 1.228 . S
O550 Zn537 1.969 . S
O550 C548 1.267 . S
O551 Zn537 1.965 1_455 S
O551 C555 1.260 . S
O552 Zn536 1.969 . S
O552 C555 1.258 . S
O553 Zn537 2.024 . S
O553 C540 1.058 . S
C554 O543 1.260 . S
C554 O544 1.283 . S
C555 O551 1.260 . S
C555 O552 1.258 . S
Zn556 O562 1.969 . S
Zn556 O563 1.965 . S
Zn556 O567 2.024 . S
Zn556 O572 1.969 . S
Zn557 O564 1.969 . S
Zn557 O570 1.969 . S
Zn557 O571 1.965 . S
Zn557 O573 2.024 . S
C558 O559 1.229 . S
C558 O567 1.058 . S
O559 C558 1.229 . S
C560 O561 1.229 . S
C560 O573 1.058 . S
O561 C560 1.229 . S
O562 Zn556 1.969 . S
O562 C565 1.267 . S
O563 Zn556 1.965 . S
O563 C574 1.260 . S
O564 Zn557 1.969 . S
O564 C574 1.258 . S
C565 O562 1.267 . S
C565 O566 1.228 . S
O566 C565 1.228 . S
O567 Zn556 2.024 . S
O567 C558 1.058 . S
C568 O569 1.228 . S
C568 O570 1.267 . S
O569 C568 1.228 . S
O570 Zn557 1.969 . S
O570 C568 1.267 . S
O571 Zn557 1.965 . S
O571 C575 1.260 . S
O572 Zn556 1.969 . S
O572 C575 1.258 . S
O573 Zn557 2.024 . S
O573 C560 1.058 . S
C574 O563 1.260 . S
C574 O564 1.258 . S
C575 O571 1.260 . S
C575 O572 1.258 . S
Zn576 O582 1.969 . S
Zn576 O583 1.965 . S
Zn576 O587 2.024 . S
Zn576 O592 1.969 . S
Zn577 O584 1.969 . S
Zn577 O590 1.969 . S
Zn577 O591 1.965 . S
Zn577 O593 2.024 . S
C578 O579 1.229 . S
C578 O587 1.058 . S
O579 C578 1.229 . S
C580 O581 1.229 . S
C580 O593 1.058 . S
O581 C580 1.229 . S
O582 Zn576 1.969 . S
O582 C585 1.267 . S
O583 Zn576 1.965 . S
O583 C594 1.260 . S
O584 Zn577 1.969 . S
O584 C594 1.258 . S
C585 O582 1.267 . S
C585 O586 1.228 . S
O586 C585 1.228 . S
O587 Zn576 2.024 . S
O587 C578 1.058 . S
C588 O589 1.228 . S
C588 O590 1.267 . S
O589 C588 1.228 . S
O590 Zn577 1.969 . S
O590 C588 1.267 . S
O591 Zn577 1.965 . S
O591 C595 1.260 . S
O592 Zn576 1.969 . S
O592 C595 1.258 . S
O593 Zn577 2.024 . S
O593 C580 1.058 . S
C594 O583 1.260 . S
C594 O584 1.258 . S
C595 O591 1.260 . S
C595 O592 1.258 . S
Zn596 O602 1.969 . S
Zn596 O603 1.965 . S
Zn596 O607 2.024 . S
Zn596 O612 1.969 . S
Zn597 O604 1.969 . S
Zn597 O610 1.969 . S
Zn597 O611 1.965 . S
Zn597 O613 2.024 . S
C598 O599 1.229 . S
C598 O607 1.058 . S
O599 C598 1.229 . S
C600 O601 1.229 . S
C600 O613 1.058 . S
O601 C600 1.229 . S
O602 Zn596 1.969 . S
O602 C605 1.267 . S
O603 Zn596 1.965 . S
O603 C614 1.260 . S
O604 Zn597 1.969 . S
O604 C614 1.258 . S
C605 O602 1.267 . S
C605 O606 1.228 . S
O606 C605 1.228 . S
O607 Zn596 2.024 . S
O607 C598 1.058 . S
C608 O609 1.228 . S
C608 O610 1.267 . S
O609 C608 1.228 . S
O610 Zn597 1.969 . S
O610 C608 1.267 . S
O611 Zn597 1.965 . S
O611 C615 1.260 . S
O612 Zn596 1.969 . S
O612 C615 1.258 . S
O613 Zn597 2.024 . S
O613 C600 1.058 . S
C614 O603 1.260 . S
C614 O604 1.258 . S
C615 O611 1.260 . S
C615 O612 1.258 . S
Zn616 O622 1.969 . S
Zn616 O623 1.965 . S
Zn616 O627 2.024 . S
Zn616 O632 1.969 . S
Zn617 O624 1.969 . S
Zn617 O630 1.969 . S
Zn617 O631 1.965 . S
Zn617 O633 2.024 . S
C618 O619 1.229 . S
C618 O627 1.058 . S
O619 C618 1.229 . S
C620 O621 1.229 . S
C620 O633 1.058 . S
O621 C620 1.229 . S
O622 Zn616 1.969 . S
O622 C625 1.267 . S
O623 Zn616 1.965 . S
O623 C634 1.260 . S
O624 Zn617 1.969 . S
O624 C634 1.258 . S
C625 O622 1.267 . S
C625 O626 1.228 . S
O626 C625 1.228 . S
O627 Zn616 2.024 . S
O627 C618 1.058 . S
C628 O629 1.228 . S
C628 O630 1.267 . S
O629 C628 1.228 . S
O630 Zn617 1.969 . S
O630 C628 1.267 . S
O631 Zn617 1.965 . S
O631 C635 1.260 . S
O632 Zn616 1.969 . S
O632 C635 1.258 . S
O633 Zn617 2.024 . S
O633 C620 1.058 . S
C634 O623 1.260 . S
C634 O624 1.258 . S
C635 O631 1.260 . S
C635 O632 1.258 . S
Zn636 O642 1.969 . S
Zn636 O643 1.965 . S
Zn636 O647 2.024 1_655 S
Zn636 O652 1.969 1_655 S
Zn637 O644 1.969 1_554 S
Zn637 O650 1.969 . S
Zn637 O651 1.965 . S
Zn637 O653 2.024 . S
C638 O639 1.229 . S
C638 O647 1.058 . S
O639 C638 1.229 . S
C640 O641 1.229 . S
C640 O653 1.058 1_556 S
O641 C640 1.229 . S
O642 Zn636 1.969 . S
O642 C645 1.267 . S
O643 Zn636 1.965 . S
O643 C654 1.260 1_654 S
O644 Zn637 1.969 1_556 S
O644 C654 1.258 . S
C645 O642 1.267 . S
C645 O646 1.228 . S
O646 C645 1.228 . S
O647 Zn636 2.024 1_455 S
O647 C638 1.058 . S
C648 O649 1.228 . S
C648 O650 1.267 . S
O649 C648 1.228 . S
O650 Zn637 1.969 . S
O650 C648 1.267 . S
O651 Zn637 1.965 . S
O651 C655 1.260 . S
O652 Zn636 1.969 1_455 S
O652 C655 1.258 . S
O653 Zn637 2.024 . S
O653 C640 1.058 1_554 S
C654 O643 1.260 1_456 S
C654 O644 1.258 . S
C655 O651 1.260 . S
C655 O652 1.258 . S
C656 C657 1.383 . S
C656 C658 1.419 . S
C656 H660 0.930 . S
C657 C656 1.383 . S
C657 C666 1.421 1_455 S
C658 C656 1.419 . S
C658 C659 1.363 1_556 S
C658 H661 0.929 . S
C659 C658 1.363 1_554 S
C659 C665 1.428 1_454 S
H660 C656 0.930 . S
H661 C658 0.929 . S
S662 N663 1.613 . S
S662 N664 1.610 1_556 S
N663 S662 1.613 . S
N663 C666 1.350 . S
N664 S662 1.610 1_554 S
N664 C665 1.351 1_554 S
C665 C659 1.428 1_656 S
C665 N664 1.351 1_556 S
C665 C666 1.434 . S
C666 C657 1.421 1_655 S
C666 N663 1.350 . S
C666 C665 1.434 . S
C667 C668 1.369 . S
C667 C669 1.419 . S
C667 H671 0.930 . S
C668 C667 1.369 . S
C668 C677 1.429 . S
C669 C667 1.419 . S
C669 C670 1.363 . S
C669 H672 0.929 . S
C670 C669 1.363 . S
C670 C676 1.428 . S
H671 C667 0.930 . S
H672 C669 0.929 . S
S673 N674 1.613 . S
S673 N675 1.610 . S
N674 S673 1.613 . S
N674 C677 1.350 . S
N675 S673 1.610 . S
N675 C676 1.351 . S
C676 C670 1.428 . S
C676 N675 1.351 . S
C676 C677 1.434 . S
C677 C668 1.429 . S
C677 N674 1.350 . S
C677 C676 1.434 . S
C678 C679 1.369 . S
C678 C680 1.419 . S
C678 H682 0.930 . S
C679 C678 1.369 . S
C679 C688 1.429 . S
C680 C678 1.419 . S
C680 C681 1.363 . S
C680 H683 0.929 . S
C681 C680 1.363 . S
C681 C687 1.428 . S
H682 C678 0.930 . S
H683 C680 0.929 . S
S684 N685 1.613 . S
S684 N686 1.610 . S
N685 S684 1.613 . S
N685 C688 1.350 . S
N686 S684 1.610 . S
N686 C687 1.351 . S
C687 C681 1.428 . S
C687 N686 1.351 . S
C687 C688 1.434 . S
C688 C679 1.429 . S
C688 N685 1.350 . S
C688 C687 1.434 . S
C689 C690 1.369 . S
C689 C691 1.419 . S
C689 H693 0.930 . S
C690 C689 1.369 . S
C690 C699 1.429 . S
C691 C689 1.419 . S
C691 C692 1.363 . S
C691 H694 0.929 . S
C692 C691 1.363 . S
C692 C698 1.428 . S
H693 C689 0.930 . S
H694 C691 0.929 . S
S695 N696 1.613 . S
S695 N697 1.610 . S
N696 S695 1.613 . S
N696 C699 1.350 . S
N697 S695 1.610 . S
N697 C698 1.351 . S
C698 C692 1.428 . S
C698 N697 1.351 . S
C698 C699 1.434 . S
C699 C690 1.429 . S
C699 N696 1.350 . S
C699 C698 1.434 . S
C700 C701 1.369 1_655 S
C700 C702 1.419 1_655 S
C700 H704 0.930 . S
C701 C700 1.369 1_455 S
C701 C710 1.429 . S
C702 C700 1.419 1_455 S
C702 C703 1.363 . S
C702 H705 0.929 1_455 S
C703 C702 1.363 . S
C703 C709 1.428 . S
H704 C700 0.930 . S
H705 C702 0.929 1_655 S
S706 N707 1.613 . S
S706 N708 1.610 . S
N707 S706 1.613 . S
N707 C710 1.350 . S
N708 S706 1.610 . S
N708 C709 1.351 . S
C709 C703 1.428 . S
C709 N708 1.351 . S
C709 C710 1.434 . S
C710 C701 1.429 . S
C710 N707 1.350 . S
C710 C709 1.434 . S
C711 C712 1.369 . S
C711 C713 1.419 . S
C711 H715 0.930 . S
C712 C711 1.369 . S
C712 C721 1.429 . S
C713 C711 1.419 . S
C713 C714 1.363 . S
C713 H716 0.929 . S
C714 C713 1.363 . S
C714 C720 1.428 . S
H715 C711 0.930 . S
H716 C713 0.929 . S
S717 N718 1.613 . S
S717 N719 1.610 . S
N718 S717 1.613 . S
N718 C721 1.350 . S
N719 S717 1.610 . S
N719 C720 1.351 . S
C720 C714 1.428 . S
C720 N719 1.351 . S
C720 C721 1.434 . S
C721 C712 1.429 . S
C721 N718 1.350 . S
C721 C720 1.434 . S
C722 C723 1.369 . S
C722 C724 1.419 . S
C722 H726 0.930 . S
C723 C722 1.369 . S
C723 C732 1.429 . S
C724 C722 1.419 . S
C724 C725 1.363 . S
C724 H727 0.929 . S
C725 C724 1.363 . S
C725 C731 1.428 . S
H726 C722 0.930 . S
H727 C724 0.929 . S
S728 N729 1.613 . S
S728 N730 1.610 . S
N729 S728 1.613 . S
N729 C732 1.350 . S
N730 S728 1.610 . S
N730 C731 1.351 . S
C731 C725 1.428 . S
C731 N730 1.351 . S
C731 C732 1.434 . S
C732 C723 1.429 . S
C732 N729 1.350 . S
C732 C731 1.434 . S
C733 C734 1.369 . S
C733 C735 1.419 . S
C733 H737 0.930 . S
C734 C733 1.369 . S
C734 C743 1.429 . S
C735 C733 1.419 . S
C735 C736 1.363 . S
C735 H738 0.929 . S
C736 C735 1.363 . S
C736 C742 1.428 . S
H737 C733 0.930 . S
H738 C735 0.929 . S
S739 N740 1.613 . S
S739 N741 1.610 . S
N740 S739 1.613 . S
N740 C743 1.350 . S
N741 S739 1.610 . S
N741 C742 1.351 . S
C742 C736 1.428 . S
C742 N741 1.351 . S
C742 C743 1.434 . S
C743 C734 1.429 . S
C743 N740 1.350 . S
C743 C742 1.434 . S
C744 C745 1.369 . S
C744 C746 1.419 . S
C744 H748 0.930 . S
C745 C744 1.369 . S
C745 C754 1.429 . S
C746 C744 1.419 . S
C746 C747 1.363 . S
C746 H749 0.929 . S
C747 C746 1.363 . S
C747 C753 1.428 1_655 S
H748 C744 0.930 . S
H749 C746 0.929 . S
S750 N751 1.613 1_455 S
S750 N752 1.610 1_565 S
N751 S750 1.613 1_655 S
N751 C754 1.350 1_565 S
N752 S750 1.610 1_545 S
N752 C753 1.351 . S
C753 C747 1.428 1_455 S
C753 N752 1.351 . S
C753 C754 1.434 1_455 S
C754 C745 1.429 . S
C754 N751 1.350 1_545 S
C754 C753 1.434 1_655 S
C755 C756 1.369 . S
C755 C757 1.419 . S
C755 H759 0.930 . S
C756 C755 1.369 . S
C756 C765 1.429 . S
C757 C755 1.419 . S
C757 C758 1.363 . S
C757 H760 0.929 . S
C758 C757 1.363 . S
C758 C764 1.428 . S
H759 C755 0.930 . S
H760 C757 0.929 . S
S761 N762 1.613 . S
S761 N763 1.610 . S
N762 S761 1.613 . S
N762 C765 1.350 . S
N763 S761 1.610 . S
N763 C764 1.351 . S
C764 C758 1.428 . S
C764 N763 1.351 . S
C764 C765 1.434 . S
C765 C756 1.429 . S
C765 N762 1.350 . S
C765 C764 1.434 . S
C766 C767 1.369 1_545 S
C766 C768 1.419 . S
C766 H770 0.930 . S
C767 C766 1.369 1_565 S
C767 C776 1.429 . S
C768 C766 1.419 . S
C768 C769 1.363 1_545 S
C768 H771 0.929 . S
C769 C768 1.363 1_565 S
C769 C775 1.428 . S
H770 C766 0.930 . S
H771 C768 0.929 . S
S772 N773 1.613 . S
S772 N774 1.610 . S
N773 S772 1.613 . S
N773 C776 1.350 . S
N774 S772 1.610 . S
N774 C775 1.351 . S
C775 C769 1.428 . S
C775 N774 1.351 . S
C775 C776 1.434 . S
C776 C767 1.429 . S
C776 N773 1.350 . S
C776 C775 1.434 . S
C777 C778 1.369 . S
C777 C779 1.419 . S
C777 H781 0.930 . S
C778 C777 1.369 . S
C778 C787 1.429 . S
C779 C777 1.419 . S
C779 C780 1.363 . S
C779 H782 0.929 . S
C780 C779 1.363 . S
C780 C786 1.428 . S
H781 C777 0.930 . S
H782 C779 0.929 . S
S783 N784 1.613 . S
S783 N785 1.610 . S
N784 S783 1.613 . S
N784 C787 1.350 . S
N785 S783 1.610 . S
N785 C786 1.351 . S
C786 C780 1.428 . S
C786 N785 1.351 . S
C786 C787 1.434 . S
C787 C778 1.429 . S
C787 N784 1.350 . S
C787 C786 1.434 . S
C788 C789 1.369 . S
C788 C790 1.419 . S
C788 H792 0.930 1_545 S
C789 C788 1.369 . S
C789 C798 1.429 . S
C790 C788 1.419 . S
C790 C791 1.363 . S
C790 H793 0.929 1_645 S
C791 C790 1.363 . S
C791 C797 1.428 . S
H792 C788 0.930 1_565 S
H793 C790 0.929 1_465 S
S794 N795 1.613 . S
S794 N796 1.610 . S
N795 S794 1.613 . S
N795 C798 1.350 . S
N796 S794 1.610 . S
N796 C797 1.351 . S
C797 C791 1.428 . S
C797 N796 1.351 . S
C797 C798 1.434 . S
C798 C789 1.429 . S
C798 N795 1.350 . S
C798 C797 1.434 . S
C799 C800 1.369 . S
C799 C801 1.419 . S
C799 H803 0.930 . S
C800 C799 1.369 . S
C800 C809 1.429 . S
C801 C799 1.419 . S
C801 C802 1.363 . S
C801 H804 0.929 . S
C802 C801 1.363 . S
C802 C808 1.428 . S
H803 C799 0.930 . S
H804 C801 0.929 . S
S805 N806 1.613 . S
S805 N807 1.610 . S
N806 S805 1.613 . S
N806 C809 1.350 . S
N807 S805 1.610 . S
N807 C808 1.351 . S
C808 C802 1.428 . S
C808 N807 1.351 . S
C808 C809 1.434 . S
C809 C800 1.429 . S
C809 N806 1.350 . S
C809 C808 1.434 . S
C810 C811 1.369 . S
C810 C812 1.419 . S
C810 H814 0.930 . S
C811 C810 1.369 . S
C811 C820 1.429 . S
C812 C810 1.419 . S
C812 C813 1.363 . S
C812 H815 0.929 . S
C813 C812 1.363 . S
C813 C819 1.428 . S
H814 C810 0.930 . S
H815 C812 0.929 . S
S816 N817 1.614 . S
S816 N818 1.610 . S
N817 S816 1.614 . S
N817 C820 1.366 . S
N818 S816 1.610 . S
N818 C819 1.351 . S
C819 C813 1.428 . S
C819 N818 1.351 . S
C819 C820 1.434 . S
C820 C811 1.429 . S
C820 N817 1.366 . S
C820 C819 1.434 . S
C821 C822 1.369 . S
C821 C823 1.419 . S
C821 H825 0.930 . S
C822 C821 1.369 . S
C822 C831 1.429 . S
C823 C821 1.419 . S
C823 C824 1.363 . S
C823 H826 0.929 . S
C824 C823 1.363 . S
C824 C830 1.428 . S
H825 C821 0.930 . S
H826 C823 0.929 . S
S827 N828 1.613 . S
S827 N829 1.610 . S
N828 S827 1.613 . S
N828 C831 1.350 . S
N829 S827 1.610 . S
N829 C830 1.351 . S
C830 C824 1.428 . S
C830 N829 1.351 . S
C830 C831 1.434 . S
C831 C822 1.429 . S
C831 N828 1.350 . S
C831 C830 1.434 . S
C832 C833 1.369 . S
C832 C834 1.419 . S
C832 H836 0.930 . S
C833 C832 1.369 . S
C833 C842 1.429 . S
C834 C832 1.419 . S
C834 C835 1.363 . S
C834 H837 0.929 1_565 S
C835 C834 1.363 . S
C835 C841 1.428 . S
H836 C832 0.930 . S
H837 C834 0.929 1_545 S
S838 N839 1.613 . S
S838 N840 1.610 . S
N839 S838 1.613 . S
N839 C842 1.350 . S
N840 S838 1.610 . S
N840 C841 1.351 . S
C841 C835 1.428 . S
C841 N840 1.351 . S
C841 C842 1.434 . S
C842 C833 1.429 . S
C842 N839 1.350 . S
C842 C841 1.434 . S
C843 C844 1.369 . S
C843 C845 1.419 . S
C843 H847 0.930 . S
C844 C843 1.369 . S
C844 C853 1.429 1_556 S
C845 C843 1.419 . S
C845 C846 1.363 1_556 S
C845 H848 0.929 . S
C846 C845 1.363 1_554 S
C846 C852 1.428 . S
H847 C843 0.930 . S
H848 C845 0.929 . S
S849 N850 1.613 . S
S849 N851 1.610 . S
N850 S849 1.613 . S
N850 C853 1.350 . S
N851 S849 1.610 . S
N851 C852 1.351 . S
C852 C846 1.428 . S
C852 N851 1.351 . S
C852 C853 1.434 . S
C853 C844 1.429 1_554 S
C853 N850 1.350 . S
C853 C852 1.434 . S
C854 C855 1.369 . S
C854 C856 1.419 . S
C854 H858 0.930 . S
C855 C854 1.369 . S
C855 C864 1.429 . S
C856 C854 1.419 . S
C856 C857 1.363 . S
C856 H859 0.929 . S
C857 C856 1.363 . S
C857 C863 1.428 . S
H858 C854 0.930 . S
H859 C856 0.929 . S
S860 N861 1.613 . S
S860 N862 1.610 . S
N861 S860 1.613 . S
N861 C864 1.350 . S
N862 S860 1.610 . S
N862 C863 1.351 . S
C863 C857 1.428 . S
C863 N862 1.351 . S
C863 C864 1.434 . S
C864 C855 1.429 . S
C864 N861 1.350 . S
C864 C863 1.434 . S
C865 C866 1.369 . S
C865 C867 1.419 . S
C865 H869 0.930 . S
C866 C865 1.369 . S
C866 C875 1.429 . S
C867 C865 1.419 . S
C867 C868 1.363 . S
C867 H870 0.929 . S
C868 C867 1.363 . S
C868 C874 1.428 . S
H869 C865 0.930 . S
H870 C867 0.929 . S
S871 N872 1.613 . S
S871 N873 1.610 . S
N872 S871 1.613 . S
N872 C875 1.350 . S
N873 S871 1.610 . S
N873 C874 1.351 . S
C874 C868 1.428 . S
C874 N873 1.351 . S
C874 C875 1.434 . S
C875 C866 1.429 . S
C875 N872 1.350 . S
C875 C874 1.434 . S
C876 C877 1.369 . S
C876 C878 1.419 . S
C876 H880 0.930 . S
C877 C876 1.369 . S
C877 C886 1.429 . S
C878 C876 1.419 . S
C878 C879 1.363 . S
C878 H881 0.929 . S
C879 C878 1.363 . S
C879 C885 1.428 . S
H880 C876 0.930 . S
H881 C878 0.929 . S
S882 N883 1.613 . S
S882 N884 1.610 . S
N883 S882 1.613 . S
N883 C886 1.350 . S
N884 S882 1.610 . S
N884 C885 1.351 . S
C885 C879 1.428 . S
C885 N884 1.351 . S
C885 C886 1.434 . S
C886 C877 1.429 . S
C886 N883 1.350 . S
C886 C885 1.434 . S
C887 C888 1.369 . S
C887 C889 1.419 . S
C887 H891 0.930 . S
C888 C887 1.369 . S
C888 C897 1.429 . S
C889 C887 1.419 . S
C889 C890 1.363 . S
C889 H892 0.929 . S
C890 C889 1.363 . S
C890 C896 1.428 . S
H891 C887 0.930 . S
H892 C889 0.929 . S
S893 N894 1.613 . S
S893 N895 1.610 . S
N894 S893 1.613 . S
N894 C897 1.350 . S
N895 S893 1.610 . S
N895 C896 1.351 . S
C896 C890 1.428 . S
C896 N895 1.351 . S
C896 C897 1.434 . S
C897 C888 1.429 . S
C897 N894 1.350 . S
C897 C896 1.434 . S
C898 C899 1.369 . S
C898 C900 1.419 . S
C898 H902 0.930 . S
C899 C898 1.369 . S
C899 C908 1.429 . S
C900 C898 1.419 . S
C900 C901 1.363 . S
C900 H903 0.929 . S
C901 C900 1.363 . S
C901 C907 1.428 . S
H902 C898 0.930 . S
H903 C900 0.929 . S
S904 N905 1.613 . S
S904 N906 1.610 . S
N905 S904 1.613 . S
N905 C908 1.350 . S
N906 S904 1.610 . S
N906 C907 1.351 . S
C907 C901 1.428 . S
C907 N906 1.351 . S
C907 C908 1.434 . S
C908 C899 1.429 . S
C908 N905 1.350 . S
C908 C907 1.434 . S
C909 C910 1.369 . S
C909 C911 1.419 . S
C909 H913 0.930 . S
C910 C909 1.369 . S
C910 C919 1.429 . S
C911 C909 1.419 . S
C911 C912 1.363 . S
C911 H914 0.929 . S
C912 C911 1.363 . S
C912 C918 1.428 . S
H913 C909 0.930 . S
H914 C911 0.929 . S
S915 N916 1.613 . S
S915 N917 1.610 . S
N916 S915 1.613 . S
N916 C919 1.350 . S
N917 S915 1.610 . S
N917 C918 1.351 . S
C918 C912 1.428 . S
C918 N917 1.351 . S
C918 C919 1.434 . S
C919 C910 1.429 . S
C919 N916 1.350 . S
C919 C918 1.434 . S
C920 C921 1.369 . S
C920 C922 1.419 . S
C920 H924 0.930 . S
C921 C920 1.369 . S
C921 C930 1.429 . S
C922 C920 1.419 . S
C922 C923 1.363 . S
C922 H925 0.929 . S
C923 C922 1.363 . S
C923 C929 1.428 . S
H924 C920 0.930 . S
H925 C922 0.929 . S
S926 N927 1.613 . S
S926 N928 1.610 . S
N927 S926 1.613 . S
N927 C930 1.350 1_655 S
N928 S926 1.610 . S
N928 C929 1.351 1_655 S
C929 C923 1.428 . S
C929 N928 1.351 1_455 S
C929 C930 1.434 . S
C930 C921 1.429 . S
C930 N927 1.350 1_455 S
C930 C929 1.434 . S
C931 C932 1.369 . S
C931 C933 1.419 . S
C931 H935 0.930 . S
C932 C931 1.369 . S
C932 C941 1.429 . S
C933 C931 1.419 . S
C933 C934 1.363 . S
C933 H936 0.929 . S
C934 C933 1.363 . S
C934 C940 1.428 . S
H935 C931 0.930 . S
H936 C933 0.929 . S
S937 N938 1.613 . S
S937 N939 1.610 . S
N938 S937 1.613 . S
N938 C941 1.350 . S
N939 S937 1.610 . S
N939 C940 1.351 . S
C940 C934 1.428 . S
C940 N939 1.351 . S
C940 C941 1.434 . S
C941 C932 1.429 . S
C941 N938 1.350 . S
C941 C940 1.434 . S
C942 C943 1.369 . S
C942 C944 1.419 . S
C942 H946 0.930 . S
C943 C942 1.369 . S
C943 C952 1.429 . S
C944 C942 1.419 . S
C944 C945 1.363 . S
C944 H947 0.929 . S
C945 C944 1.363 . S
C945 C951 1.428 . S
H946 C942 0.930 . S
H947 C944 0.929 . S
S948 N949 1.613 . S
S948 N950 1.610 . S
N949 S948 1.613 . S
N949 C952 1.350 . S
N950 S948 1.610 . S
N950 C951 1.351 . S
C951 C945 1.428 . S
C951 N950 1.351 . S
C951 C952 1.434 . S
C952 C943 1.429 . S
C952 N949 1.350 . S
C952 C951 1.434 . S
C953 C954 1.369 . S
C953 C955 1.419 . S
C953 H957 0.930 . S
C954 C953 1.369 . S
C954 C963 1.429 . S
C955 C953 1.419 . S
C955 C956 1.363 . S
C955 H958 0.929 . S
C956 C955 1.363 . S
C956 C962 1.428 . S
H957 C953 0.930 . S
H958 C955 0.929 . S
S959 N960 1.613 . S
S959 N961 1.610 . S
N960 S959 1.613 . S
N960 C963 1.350 . S
N961 S959 1.610 . S
N961 C962 1.351 . S
C962 C956 1.428 . S
C962 N961 1.351 . S
C962 C963 1.434 . S
C963 C954 1.429 . S
C963 N960 1.350 . S
C963 C962 1.434 . S
C964 C965 1.369 . S
C964 C966 1.419 1_455 S
C964 H968 0.930 1_455 S
C965 C964 1.369 . S
C965 C974 1.429 . S
C966 C964 1.419 1_655 S
C966 C967 1.363 1_655 S
C966 H969 0.929 . S
C967 C966 1.363 1_455 S
C967 C973 1.428 . S
H968 C964 0.930 1_655 S
H969 C966 0.929 . S
S970 N971 1.613 . S
S970 N972 1.610 . S
N971 S970 1.613 . S
N971 C974 1.350 . S
N972 S970 1.610 . S
N972 C973 1.351 . S
C973 C967 1.428 . S
C973 N972 1.351 . S
C973 C974 1.434 . S
C974 C965 1.429 . S
C974 N971 1.350 . S
C974 C973 1.434 . S
C975 C976 1.369 . S
C975 C977 1.419 . S
C975 H979 0.930 . S
C976 C975 1.369 . S
C976 C985 1.429 . S
C977 C975 1.419 . S
C977 C978 1.363 . S
C977 H980 0.929 . S
C978 C977 1.363 . S
C978 C984 1.428 . S
H979 C975 0.930 . S
H980 C977 0.929 . S
S981 N982 1.613 . S
S981 N983 1.610 . S
N982 S981 1.613 . S
N982 C985 1.350 . S
N983 S981 1.610 . S
N983 C984 1.351 . S
C984 C978 1.428 . S
C984 N983 1.351 . S
C984 C985 1.434 . S
C985 C976 1.429 . S
C985 N982 1.350 . S
C985 C984 1.434 . S
C986 C987 1.369 . S
C986 C988 1.419 . S
C986 H990 0.930 . S
C987 C986 1.369 . S
C987 C996 1.429 1_556 S
C988 C986 1.419 . S
C988 C989 1.363 . S
C988 H991 0.929 . S
C989 C988 1.363 . S
C989 C995 1.428 1_556 S
H990 C986 0.930 . S
H991 C988 0.929 . S
S992 N993 1.613 . S
S992 N994 1.610 . S
N993 S992 1.613 . S
N993 C996 1.350 . S
N994 S992 1.610 . S
N994 C995 1.351 . S
C995 C989 1.428 1_554 S
C995 N994 1.351 . S
C995 C996 1.434 . S
C996 C987 1.429 1_554 S
C996 N993 1.350 . S
C996 C995 1.434 . S
C997 C998 1.369 . S
C997 C999 1.419 . S
C997 H1001 0.930 . S
C998 C997 1.369 . S
C998 C1007 1.429 . S
C999 C997 1.419 . S
C999 C1000 1.363 . S
C999 H1002 0.929 . S
C1000 C999 1.363 . S
C1000 C1006 1.428 . S
H1001 C997 0.930 . S
H1002 C999 0.929 . S
S1003 N1004 1.613 . S
S1003 N1005 1.610 . S
N1004 S1003 1.613 . S
N1004 C1007 1.350 . S
N1005 S1003 1.610 . S
N1005 C1006 1.351 . S
C1006 C1000 1.428 . S
C1006 N1005 1.351 . S
C1006 C1007 1.434 . S
C1007 C998 1.429 . S
C1007 N1004 1.350 . S
C1007 C1006 1.434 . S
C1008 C1009 1.369 . S
C1008 C1010 1.419 . S
C1008 H1012 0.930 . S
C1009 C1008 1.369 . S
C1009 C1018 1.429 1_545 S
C1010 C1008 1.419 . S
C1010 C1011 1.363 . S
C1010 H1013 0.929 . S
C1011 C1010 1.363 . S
C1011 C1017 1.428 1_545 S
H1012 C1008 0.930 . S
H1013 C1010 0.929 . S
S1014 N1015 1.613 . S
S1014 N1016 1.610 . S
N1015 S1014 1.613 . S
N1015 C1018 1.350 . S
N1016 S1014 1.610 . S
N1016 C1017 1.351 . S
C1017 C1011 1.428 1_565 S
C1017 N1016 1.351 . S
C1017 C1018 1.434 . S
C1018 C1009 1.429 1_565 S
C1018 N1015 1.350 . S
C1018 C1017 1.434 . S
C1019 C1020 1.369 . S
C1019 C1021 1.419 . S
C1019 H1023 0.930 . S
C1020 C1019 1.369 . S
C1020 C1029 1.429 . S
C1021 C1019 1.419 . S
C1021 C1022 1.363 . S
C1021 H1024 0.929 . S
C1022 C1021 1.363 . S
C1022 C1028 1.428 . S
H1023 C1019 0.930 . S
H1024 C1021 0.929 . S
S1025 N1026 1.613 . S
S1025 N1027 1.610 . S
N1026 S1025 1.613 . S
N1026 C1029 1.350 . S
N1027 S1025 1.610 . S
N1027 C1028 1.351 . S
C1028 C1022 1.428 . S
C1028 N1027 1.351 . S
C1028 C1029 1.434 . S
C1029 C1020 1.429 . S
C1029 N1026 1.350 . S
C1029 C1028 1.434 . S
C1030 C1031 1.369 . S
C1030 C1032 1.419 . S
C1030 H1034 0.930 . S
C1031 C1030 1.369 . S
C1031 C1040 1.429 . S
C1032 C1030 1.419 . S
C1032 C1033 1.363 . S
C1032 H1035 0.929 . S
C1033 C1032 1.363 . S
C1033 C1039 1.428 . S
H1034 C1030 0.930 . S
H1035 C1032 0.929 . S
S1036 N1037 1.613 . S
S1036 N1038 1.610 . S
N1037 S1036 1.613 . S
N1037 C1040 1.350 . S
N1038 S1036 1.610 . S
N1038 C1039 1.351 . S
C1039 C1033 1.428 . S
C1039 N1038 1.351 . S
C1039 C1040 1.434 . S
C1040 C1031 1.429 . S
C1040 N1037 1.350 . S
C1040 C1039 1.434 . S
C1041 C1042 1.369 . S
C1041 C1043 1.419 . S
C1041 H1045 0.930 . S
C1042 C1041 1.369 . S
C1042 C1051 1.429 . S
C1043 C1041 1.419 . S
C1043 C1044 1.363 . S
C1043 H1046 0.929 . S
C1044 C1043 1.363 . S
C1044 C1050 1.428 . S
H1045 C1041 0.930 . S
H1046 C1043 0.929 . S
S1047 N1048 1.613 . S
S1047 N1049 1.610 . S
N1048 S1047 1.613 . S
N1048 C1051 1.350 . S
N1049 S1047 1.610 . S
N1049 C1050 1.351 . S
C1050 C1044 1.428 . S
C1050 N1049 1.351 . S
C1050 C1051 1.434 . S
C1051 C1042 1.429 . S
C1051 N1048 1.350 . S
C1051 C1050 1.434 . S
C1052 C1053 1.369 . S
C1052 C1054 1.419 . S
C1052 H1056 0.930 . S
C1053 C1052 1.369 . S
C1053 C1062 1.429 1_545 S
C1054 C1052 1.419 . S
C1054 C1055 1.363 . S
C1054 H1057 0.929 . S
C1055 C1054 1.363 . S
C1055 C1061 1.428 1_545 S
H1056 C1052 0.930 . S
H1057 C1054 0.929 . S
S1058 N1059 1.613 . S
S1058 N1060 1.610 . S
N1059 S1058 1.613 . S
N1059 C1062 1.350 . S
N1060 S1058 1.610 . S
N1060 C1061 1.351 . S
C1061 C1055 1.428 1_565 S
C1061 N1060 1.351 . S
C1061 C1062 1.434 . S
C1062 C1053 1.429 1_565 S
C1062 N1059 1.350 . S
C1062 C1061 1.434 . S
C1063 C1064 1.369 . S
C1063 C1065 1.419 . S
C1063 H1067 0.930 . S
C1064 C1063 1.369 . S
C1064 C1073 1.429 . S
C1065 C1063 1.419 . S
C1065 C1066 1.363 . S
C1065 H1068 0.929 . S
C1066 C1065 1.363 . S
C1066 C1072 1.428 . S
H1067 C1063 0.930 . S
H1068 C1065 0.929 . S
S1069 N1070 1.613 . S
S1069 N1071 1.610 . S
N1070 S1069 1.613 . S
N1070 C1073 1.350 . S
N1071 S1069 1.610 . S
N1071 C1072 1.351 . S
C1072 C1066 1.428 . S
C1072 N1071 1.351 . S
C1072 C1073 1.434 . S
C1073 C1064 1.429 . S
C1073 N1070 1.350 . S
C1073 C1072 1.434 . S
C1074 C1075 1.369 1_565 S
C1074 C1076 1.419 . S
C1074 H1078 0.930 . S
C1075 C1074 1.369 1_545 S
C1075 C1084 1.429 . S
C1076 C1074 1.419 . S
C1076 C1077 1.363 1_565 S
C1076 H1079 0.929 . S
C1077 C1076 1.363 1_545 S
C1077 C1083 1.428 . S
H1078 C1074 0.930 . S
H1079 C1076 0.929 . S
S1080 N1081 1.613 . S
S1080 N1082 1.610 . S
N1081 S1080 1.613 . S
N1081 C1084 1.350 . S
N1082 S1080 1.610 . S
N1082 C1083 1.351 . S
C1083 C1077 1.428 . S
C1083 N1082 1.351 . S
C1083 C1084 1.434 . S
C1084 C1075 1.429 . S
C1084 N1081 1.350 . S
C1084 C1083 1.434 . S
C1085 C1086 1.369 . S
C1085 C1087 1.419 . S
C1085 H1089 0.930 . S
C1086 C1085 1.369 . S
C1086 C1095 1.429 . S
C1087 C1085 1.419 . S
C1087 C1088 1.363 . S
C1087 H1090 0.929 . S
C1088 C1087 1.363 . S
C1088 C1094 1.428 . S
H1089 C1085 0.930 . S
H1090 C1087 0.929 . S
S1091 N1092 1.613 . S
S1091 N1093 1.610 . S
N1092 S1091 1.613 . S
N1092 C1095 1.350 . S
N1093 S1091 1.610 . S
N1093 C1094 1.351 . S
C1094 C1088 1.428 . S
C1094 N1093 1.351 . S
C1094 C1095 1.434 . S
C1095 C1086 1.429 . S
C1095 N1092 1.350 . S
C1095 C1094 1.434 . S
C1096 C1097 1.369 . S
C1096 C1098 1.419 . S
C1096 H1100 0.930 . S
C1097 C1096 1.369 . S
C1097 C1106 1.429 . S
C1098 C1096 1.419 . S
C1098 C1099 1.363 . S
C1098 H1101 0.929 . S
C1099 C1098 1.363 . S
C1099 C1105 1.426 1_554 S
H1100 C1096 0.930 . S
H1101 C1098 0.929 . S
S1102 N1103 1.627 . S
S1102 N1104 1.610 . S
N1103 S1102 1.627 . S
N1103 C1106 1.343 1_556 S
N1104 S1102 1.610 . S
N1104 C1105 1.357 . S
C1105 C1099 1.426 1_556 S
C1105 N1104 1.357 . S
C1105 C1106 1.430 1_556 S
C1106 C1097 1.429 . S
C1106 N1103 1.343 1_554 S
C1106 C1105 1.430 1_554 S
C1107 C1108 1.369 . S
C1107 C1109 1.419 . S
C1107 H1111 0.930 . S
C1108 C1107 1.369 . S
C1108 C1117 1.429 . S
C1109 C1107 1.419 . S
C1109 C1110 1.363 . S
C1109 H1112 0.929 . S
C1110 C1109 1.363 . S
C1110 C1116 1.428 . S
H1111 C1107 0.930 . S
H1112 C1109 0.929 . S
S1113 N1114 1.613 . S
S1113 N1115 1.610 . S
N1114 S1113 1.613 . S
N1114 C1117 1.350 . S
N1115 S1113 1.610 . S
N1115 C1116 1.351 . S
C1116 C1110 1.428 . S
C1116 N1115 1.351 . S
C1116 C1117 1.434 . S
C1117 C1108 1.429 . S
C1117 N1114 1.350 . S
C1117 C1116 1.434 . S
C1118 C1119 1.369 . S
C1118 C1120 1.419 . S
C1118 H1122 0.930 . S
C1119 C1118 1.369 . S
C1119 C1128 1.429 . S
C1120 C1118 1.419 . S
C1120 C1121 1.363 . S
C1120 H1123 0.929 . S
C1121 C1120 1.363 . S
C1121 C1127 1.428 . S
H1122 C1118 0.930 . S
H1123 C1120 0.929 . S
S1124 N1125 1.613 . S
S1124 N1126 1.610 . S
N1125 S1124 1.613 . S
N1125 C1128 1.350 . S
N1126 S1124 1.610 . S
N1126 C1127 1.351 . S
C1127 C1121 1.428 . S
C1127 N1126 1.351 . S
C1127 C1128 1.434 . S
C1128 C1119 1.429 . S
C1128 N1125 1.350 . S
C1128 C1127 1.434 . S
C1129 C1130 1.369 . S
C1129 C1131 1.419 . S
C1129 H1133 0.930 . S
C1130 C1129 1.369 . S
C1130 C1139 1.429 . S
C1131 C1129 1.419 . S
C1131 C1132 1.363 . S
C1131 H1134 0.929 . S
C1132 C1131 1.363 . S
C1132 C1138 1.428 . S
H1133 C1129 0.930 . S
H1134 C1131 0.929 . S
S1135 N1136 1.613 . S
S1135 N1137 1.610 . S
N1136 S1135 1.613 . S
N1136 C1139 1.350 . S
N1137 S1135 1.610 . S
N1137 C1138 1.351 . S
C1138 C1132 1.428 . S
C1138 N1137 1.351 . S
C1138 C1139 1.434 . S
C1139 C1130 1.429 . S
C1139 N1136 1.350 . S
C1139 C1138 1.434 . S
C1140 C1141 1.369 . S
C1140 C1142 1.419 . S
C1140 H1144 0.930 . S
C1141 C1140 1.369 . S
C1141 C1150 1.429 . S
C1142 C1140 1.419 . S
C1142 C1143 1.363 . S
C1142 H1145 0.929 . S
C1143 C1142 1.363 . S
C1143 C1149 1.428 . S
H1144 C1140 0.930 . S
H1145 C1142 0.929 . S
S1146 N1147 1.613 . S
S1146 N1148 1.610 . S
N1147 S1146 1.613 . S
N1147 C1150 1.350 . S
N1148 S1146 1.610 . S
N1148 C1149 1.351 . S
C1149 C1143 1.428 . S
C1149 N1148 1.351 . S
C1149 C1150 1.434 . S
C1150 C1141 1.429 . S
C1150 N1147 1.350 . S
C1150 C1149 1.434 . S
C1151 C1152 1.369 . S
C1151 C1153 1.419 . S
C1151 H1155 0.930 . S
C1152 C1151 1.369 . S
C1152 C1161 1.429 . S
C1153 C1151 1.419 . S
C1153 C1154 1.363 . S
C1153 H1156 0.929 . S
C1154 C1153 1.363 . S
C1154 C1160 1.428 . S
H1155 C1151 0.930 . S
H1156 C1153 0.929 . S
S1157 N1158 1.613 1_545 S
S1157 N1159 1.610 . S
N1158 S1157 1.613 1_565 S
N1158 C1161 1.350 . S
N1159 S1157 1.610 . S
N1159 C1160 1.351 1_545 S
C1160 C1154 1.428 . S
C1160 N1159 1.351 1_565 S
C1160 C1161 1.434 . S
C1161 C1152 1.429 . S
C1161 N1158 1.350 . S
C1161 C1160 1.434 . S
C1162 C1163 1.369 . S
C1162 C1164 1.419 . S
C1162 H1166 0.930 . S
C1163 C1162 1.369 . S
C1163 C1172 1.429 . S
C1164 C1162 1.419 . S
C1164 C1165 1.363 . S
C1164 H1167 0.929 . S
C1165 C1164 1.363 . S
C1165 C1171 1.428 . S
H1166 C1162 0.930 . S
H1167 C1164 0.929 . S
S1168 N1169 1.613 . S
S1168 N1170 1.610 . S
N1169 S1168 1.613 . S
N1169 C1172 1.350 . S
N1170 S1168 1.610 . S
N1170 C1171 1.351 . S
C1171 C1165 1.428 . S
C1171 N1170 1.351 . S
C1171 C1172 1.434 . S
C1172 C1163 1.429 . S
C1172 N1169 1.350 . S
C1172 C1171 1.434 . S
C1173 C1174 1.369 . S
C1173 C1175 1.419 . S
C1173 H1177 0.930 . S
C1174 C1173 1.369 . S
C1174 C1183 1.429 . S
C1175 C1173 1.419 . S
C1175 C1176 1.363 . S
C1175 H1178 0.929 . S
C1176 C1175 1.363 . S
C1176 C1182 1.428 . S
H1177 C1173 0.930 . S
H1178 C1175 0.929 . S
S1179 N1180 1.613 . S
S1179 N1181 1.610 . S
N1180 S1179 1.613 . S
N1180 C1183 1.350 . S
N1181 S1179 1.610 . S
N1181 C1182 1.351 . S
C1182 C1176 1.428 . S
C1182 N1181 1.351 . S
C1182 C1183 1.434 . S
C1183 C1174 1.429 . S
C1183 N1180 1.350 . S
C1183 C1182 1.434 . S
C1184 C1185 1.369 . S
C1184 C1186 1.419 . S
C1184 H1188 0.930 . S
C1185 C1184 1.369 . S
C1185 C1194 1.429 . S
C1186 C1184 1.419 . S
C1186 C1187 1.363 . S
C1186 H1189 0.929 . S
C1187 C1186 1.363 . S
C1187 C1193 1.428 . S
H1188 C1184 0.930 . S
H1189 C1186 0.929 . S
S1190 N1191 1.613 . S
S1190 N1192 1.610 . S
N1191 S1190 1.613 . S
N1191 C1194 1.350 . S
N1192 S1190 1.610 . S
N1192 C1193 1.351 . S
C1193 C1187 1.428 . S
C1193 N1192 1.351 . S
C1193 C1194 1.434 . S
C1194 C1185 1.429 . S
C1194 N1191 1.350 . S
C1194 C1193 1.434 . S
C1195 C1196 1.369 . S
C1195 C1197 1.419 . S
C1195 H1199 0.930 . S
C1196 C1195 1.369 . S
C1196 C1205 1.429 . S
C1197 C1195 1.419 . S
C1197 C1198 1.363 . S
C1197 H1200 0.929 . S
C1198 C1197 1.363 . S
C1198 C1204 1.428 . S
H1199 C1195 0.930 . S
H1200 C1197 0.929 . S
S1201 N1202 1.613 . S
S1201 N1203 1.610 . S
N1202 S1201 1.613 . S
N1202 C1205 1.350 . S
N1203 S1201 1.610 . S
N1203 C1204 1.351 . S
C1204 C1198 1.428 . S
C1204 N1203 1.351 . S
C1204 C1205 1.434 . S
C1205 C1196 1.429 . S
C1205 N1202 1.350 . S
C1205 C1204 1.434 . S
C1206 C1207 1.369 . S
C1206 C1208 1.419 1_556 S
C1206 H1210 0.930 . S
C1207 C1206 1.369 . S
C1207 C1216 1.429 1_455 S
C1208 C1206 1.419 1_554 S
C1208 C1209 1.363 1_554 S
C1208 H1211 0.929 . S
C1209 C1208 1.363 1_556 S
C1209 C1215 1.427 1_455 S
H1210 C1206 0.930 . S
H1211 C1208 0.929 . S
S1212 N1213 1.613 . S
S1212 N1214 1.610 . S
N1213 S1212 1.613 . S
N1213 C1216 1.350 . S
N1214 S1212 1.610 . S
N1214 C1215 1.357 . S
C1215 C1209 1.427 1_655 S
C1215 N1214 1.357 . S
C1215 C1216 1.428 . S
C1216 C1207 1.429 1_655 S
C1216 N1213 1.350 . S
C1216 C1215 1.428 . S
C1217 C1218 1.369 . S
C1217 C1219 1.419 . S
C1217 H1221 0.930 . S
C1218 C1217 1.369 . S
C1218 C1227 1.429 . S
C1219 C1217 1.419 . S
C1219 C1220 1.363 . S
C1219 H1222 0.929 . S
C1220 C1219 1.363 . S
C1220 C1226 1.428 . S
H1221 C1217 0.930 . S
H1222 C1219 0.929 . S
S1223 N1224 1.613 . S
S1223 N1225 1.610 . S
N1224 S1223 1.613 . S
N1224 C1227 1.350 . S
N1225 S1223 1.610 . S
N1225 C1226 1.351 . S
C1226 C1220 1.428 . S
C1226 N1225 1.351 . S
C1226 C1227 1.434 . S
C1227 C1218 1.429 . S
C1227 N1224 1.350 . S
C1227 C1226 1.434 . S
C1228 C1229 1.369 . S
C1228 C1230 1.419 . S
C1228 H1232 0.930 . S
C1229 C1228 1.369 . S
C1229 C1238 1.429 . S
C1230 C1228 1.419 . S
C1230 C1231 1.363 . S
C1230 H1233 0.929 . S
C1231 C1230 1.363 . S
C1231 C1237 1.428 . S
H1232 C1228 0.930 . S
H1233 C1230 0.929 . S
S1234 N1235 1.613 . S
S1234 N1236 1.610 . S
N1235 S1234 1.613 . S
N1235 C1238 1.350 . S
N1236 S1234 1.610 . S
N1236 C1237 1.351 . S
C1237 C1231 1.428 . S
C1237 N1236 1.351 . S
C1237 C1238 1.434 . S
C1238 C1229 1.429 . S
C1238 N1235 1.350 . S
C1238 C1237 1.434 . S
C1239 C1240 1.369 . S
C1239 C1241 1.419 . S
C1239 H1243 0.930 . S
C1240 C1239 1.369 . S
C1240 C1249 1.429 . S
C1241 C1239 1.419 . S
C1241 C1242 1.363 . S
C1241 H1244 0.929 . S
C1242 C1241 1.363 . S
C1242 C1248 1.428 . S
H1243 C1239 0.930 . S
H1244 C1241 0.929 . S
S1245 N1246 1.613 . S
S1245 N1247 1.610 . S
N1246 S1245 1.613 . S
N1246 C1249 1.350 . S
N1247 S1245 1.610 . S
N1247 C1248 1.351 . S
C1248 C1242 1.428 . S
C1248 N1247 1.351 . S
C1248 C1249 1.434 . S
C1249 C1240 1.429 . S
C1249 N1246 1.350 . S
C1249 C1248 1.434 . S
C1250 C1251 1.368 1_655 S
C1250 C1252 1.419 . S
C1250 H1254 0.930 . S
C1251 C1250 1.368 1_455 S
C1251 C1260 1.437 . S
C1252 C1250 1.419 . S
C1252 C1253 1.363 1_655 S
C1252 H1255 0.929 . S
C1253 C1252 1.363 1_455 S
C1253 C1259 1.428 . S
H1254 C1250 0.930 . S
H1255 C1252 0.929 . S
S1256 N1257 1.613 . S
S1256 N1258 1.610 . S
N1257 S1256 1.613 . S
N1257 C1260 1.350 . S
N1258 S1256 1.610 . S
N1258 C1259 1.351 . S
C1259 C1253 1.428 . S
C1259 N1258 1.351 . S
C1259 C1260 1.434 . S
C1260 C1251 1.437 . S
C1260 N1257 1.350 . S
C1260 C1259 1.434 . S
C1261 C1262 1.369 . S
C1261 C1263 1.419 . S
C1261 H1265 0.930 . S
C1262 C1261 1.369 . S
C1262 C1271 1.429 . S
C1263 C1261 1.419 . S
C1263 C1264 1.363 . S
C1263 H1266 0.929 . S
C1264 C1263 1.363 . S
C1264 C1270 1.428 . S
H1265 C1261 0.930 . S
H1266 C1263 0.929 . S
S1267 N1268 1.613 . S
S1267 N1269 1.610 . S
N1268 S1267 1.613 . S
N1268 C1271 1.350 . S
N1269 S1267 1.610 . S
N1269 C1270 1.351 . S
C1270 C1264 1.428 . S
C1270 N1269 1.351 . S
C1270 C1271 1.434 . S
C1271 C1262 1.429 . S
C1271 N1268 1.350 . S
C1271 C1270 1.434 . S
C1272 C1273 1.369 . S
C1272 C1274 1.419 . S
C1272 H1276 0.930 . S
C1273 C1272 1.369 . S
C1273 C1282 1.429 . S
C1274 C1272 1.419 . S
C1274 C1275 1.363 . S
C1274 H1277 0.929 . S
C1275 C1274 1.363 . S
C1275 C1281 1.428 . S
H1276 C1272 0.930 . S
H1277 C1274 0.929 . S
S1278 N1279 1.613 . S
S1278 N1280 1.610 . S
N1279 S1278 1.613 . S
N1279 C1282 1.350 . S
N1280 S1278 1.610 . S
N1280 C1281 1.351 . S
C1281 C1275 1.428 . S
C1281 N1280 1.351 . S
C1281 C1282 1.434 . S
C1282 C1273 1.429 . S
C1282 N1279 1.350 . S
C1282 C1281 1.434 . S
C1283 C1284 1.369 . S
C1283 C1285 1.419 . S
C1283 H1287 0.930 . S
C1284 C1283 1.369 . S
C1284 C1293 1.429 . S
C1285 C1283 1.419 . S
C1285 C1286 1.363 . S
C1285 H1288 0.929 . S
C1286 C1285 1.363 . S
C1286 C1292 1.428 . S
H1287 C1283 0.930 . S
H1288 C1285 0.929 . S
S1289 N1290 1.613 . S
S1289 N1291 1.610 . S
N1290 S1289 1.613 . S
N1290 C1293 1.350 . S
N1291 S1289 1.610 . S
N1291 C1292 1.351 . S
C1292 C1286 1.428 . S
C1292 N1291 1.351 . S
C1292 C1293 1.434 . S
C1293 C1284 1.429 . S
C1293 N1290 1.350 . S
C1293 C1292 1.434 . S
C1294 C1295 1.369 . S
C1294 C1296 1.419 . S
C1294 H1298 0.930 . S
C1295 C1294 1.369 . S
C1295 C1304 1.429 . S
C1296 C1294 1.419 . S
C1296 C1297 1.363 . S
C1296 H1299 0.929 . S
C1297 C1296 1.363 . S
C1297 C1303 1.428 . S
H1298 C1294 0.930 . S
H1299 C1296 0.929 . S
S1300 N1301 1.613 . S
S1300 N1302 1.610 . S
N1301 S1300 1.613 . S
N1301 C1304 1.350 . S
N1302 S1300 1.610 . S
N1302 C1303 1.351 . S
C1303 C1297 1.428 . S
C1303 N1302 1.351 . S
C1303 C1304 1.434 . S
C1304 C1295 1.429 . S
C1304 N1301 1.350 . S
C1304 C1303 1.434 . S
C1305 C1306 1.369 . S
C1305 C1307 1.419 . S
C1305 H1309 0.930 . S
C1306 C1305 1.369 . S
C1306 C1315 1.429 . S
C1307 C1305 1.419 . S
C1307 C1308 1.363 . S
C1307 H1310 0.929 . S
C1308 C1307 1.363 . S
C1308 C1314 1.428 . S
H1309 C1305 0.930 . S
H1310 C1307 0.929 . S
S1311 N1312 1.613 . S
S1311 N1313 1.610 . S
N1312 S1311 1.613 . S
N1312 C1315 1.350 . S
N1313 S1311 1.610 . S
N1313 C1314 1.351 . S
C1314 C1308 1.428 . S
C1314 N1313 1.351 . S
C1314 C1315 1.434 . S
C1315 C1306 1.429 . S
C1315 N1312 1.350 . S
C1315 C1314 1.434 . S
C1316 C1317 1.369 . S
C1316 C1318 1.419 . S
C1316 H1320 0.930 . S
C1317 C1316 1.369 . S
C1317 C1326 1.429 . S
C1318 C1316 1.419 . S
C1318 C1319 1.363 . S
C1318 H1321 0.929 . S
C1319 C1318 1.363 . S
C1319 C1325 1.428 . S
H1320 C1316 0.930 . S
H1321 C1318 0.929 . S
S1322 N1323 1.613 . S
S1322 N1324 1.610 . S
N1323 S1322 1.613 . S
N1323 C1326 1.350 . S
N1324 S1322 1.610 . S
N1324 C1325 1.351 . S
C1325 C1319 1.428 . S
C1325 N1324 1.351 . S
C1325 C1326 1.434 . S
C1326 C1317 1.429 . S
C1326 N1323 1.350 . S
C1326 C1325 1.434 . S
C1327 C1328 1.369 . S
C1327 C1329 1.419 . S
C1327 H1331 0.930 . S
C1328 C1327 1.369 . S
C1328 C1337 1.429 . S
C1329 C1327 1.419 . S
C1329 C1330 1.363 . S
C1329 H1332 0.929 . S
C1330 C1329 1.363 . S
C1330 C1336 1.428 . S
H1331 C1327 0.930 . S
H1332 C1329 0.929 . S
S1333 N1334 1.613 . S
S1333 N1335 1.610 . S
N1334 S1333 1.613 . S
N1334 C1337 1.350 . S
N1335 S1333 1.610 . S
N1335 C1336 1.351 . S
C1336 C1330 1.428 . S
C1336 N1335 1.351 . S
C1336 C1337 1.434 . S
C1337 C1328 1.429 . S
C1337 N1334 1.350 . S
C1337 C1336 1.434 . S
C1338 C1339 1.369 . S
C1338 C1340 1.419 . S
C1338 H1342 0.930 . S
C1339 C1338 1.369 . S
C1339 C1348 1.429 . S
C1340 C1338 1.419 . S
C1340 C1341 1.363 . S
C1340 H1343 0.929 . S
C1341 C1340 1.363 . S
C1341 C1347 1.428 . S
H1342 C1338 0.930 . S
H1343 C1340 0.929 . S
S1344 N1345 1.613 . S
S1344 N1346 1.610 . S
N1345 S1344 1.613 . S
N1345 C1348 1.350 . S
N1346 S1344 1.610 . S
N1346 C1347 1.351 . S
C1347 C1341 1.428 . S
C1347 N1346 1.351 . S
C1347 C1348 1.434 . S
C1348 C1339 1.429 . S
C1348 N1345 1.350 . S
C1348 C1347 1.434 . S
C1349 C1350 1.369 . S
C1349 C1351 1.419 . S
C1349 H1353 0.930 . S
C1350 C1349 1.369 . S
C1350 C1359 1.429 . S
C1351 C1349 1.419 . S
C1351 C1352 1.363 . S
C1351 H1354 0.929 . S
C1352 C1351 1.363 . S
C1352 C1358 1.428 . S
H1353 C1349 0.930 . S
H1354 C1351 0.929 . S
S1355 N1356 1.613 . S
S1355 N1357 1.610 . S
N1356 S1355 1.613 . S
N1356 C1359 1.350 . S
N1357 S1355 1.610 . S
N1357 C1358 1.351 . S
C1358 C1352 1.428 . S
C1358 N1357 1.351 . S
C1358 C1359 1.434 . S
C1359 C1350 1.429 . S
C1359 N1356 1.350 . S
C1359 C1358 1.434 . S
C1360 C1361 1.369 . S
C1360 C1362 1.419 . S
C1360 H1364 0.930 . S
C1361 C1360 1.369 . S
C1361 C1370 1.429 . S
C1362 C1360 1.419 . S
C1362 C1363 1.363 . S
C1362 H1365 0.929 . S
C1363 C1362 1.363 . S
C1363 C1369 1.428 . S
H1364 C1360 0.930 . S
H1365 C1362 0.929 . S
S1366 N1367 1.613 . S
S1366 N1368 1.610 . S
N1367 S1366 1.613 . S
N1367 C1370 1.350 . S
N1368 S1366 1.610 . S
N1368 C1369 1.351 . S
C1369 C1363 1.428 . S
C1369 N1368 1.351 . S
C1369 C1370 1.434 . S
C1370 C1361 1.429 . S
C1370 N1367 1.350 . S
C1370 C1369 1.434 . S
C1371 C1372 1.369 . S
C1371 C1373 1.419 . S
C1371 H1375 0.930 . S
C1372 C1371 1.369 . S
C1372 C1381 1.429 . S
C1373 C1371 1.419 . S
C1373 C1374 1.363 . S
C1373 H1376 0.929 . S
C1374 C1373 1.363 . S
C1374 C1380 1.428 . S
H1375 C1371 0.930 . S
H1376 C1373 0.929 . S
S1377 N1378 1.613 . S
S1377 N1379 1.610 . S
N1378 S1377 1.613 . S
N1378 C1381 1.350 . S
N1379 S1377 1.610 . S
N1379 C1380 1.351 . S
C1380 C1374 1.428 . S
C1380 N1379 1.351 . S
C1380 C1381 1.434 . S
C1381 C1372 1.429 . S
C1381 N1378 1.350 . S
C1381 C1380 1.434 . S
C1382 C1383 1.369 . S
C1382 C1384 1.419 . S
C1382 H1386 0.930 . S
C1383 C1382 1.369 . S
C1383 C1392 1.429 . S
C1384 C1382 1.419 . S
C1384 C1385 1.363 . S
C1384 H1387 0.929 . S
C1385 C1384 1.363 . S
C1385 C1391 1.428 . S
H1386 C1382 0.930 . S
H1387 C1384 0.929 . S
S1388 N1389 1.613 . S
S1388 N1390 1.610 . S
N1389 S1388 1.613 . S
N1389 C1392 1.350 . S
N1390 S1388 1.610 . S
N1390 C1391 1.351 . S
C1391 C1385 1.428 . S
C1391 N1390 1.351 . S
C1391 C1392 1.434 . S
C1392 C1383 1.429 . S
C1392 N1389 1.350 . S
C1392 C1391 1.434 . S
C1393 C1394 1.369 . S
C1393 C1395 1.419 . S
C1393 H1397 0.930 . S
C1394 C1393 1.369 . S
C1394 C1403 1.429 . S
C1395 C1393 1.419 . S
C1395 C1396 1.363 . S
C1395 H1398 0.929 1_565 S
C1396 C1395 1.363 . S
C1396 C1402 1.428 . S
H1397 C1393 0.930 . S
H1398 C1395 0.929 1_545 S
S1399 N1400 1.613 . S
S1399 N1401 1.610 . S
N1400 S1399 1.613 . S
N1400 C1403 1.350 . S
N1401 S1399 1.610 . S
N1401 C1402 1.351 . S
C1402 C1396 1.428 . S
C1402 N1401 1.351 . S
C1402 C1403 1.434 . S
C1403 C1394 1.429 . S
C1403 N1400 1.350 . S
C1403 C1402 1.434 . S
C1404 C1405 1.369 . S
C1404 C1406 1.419 . S
C1404 H1408 0.930 . S
C1405 C1404 1.369 . S
C1405 C1414 1.429 . S
C1406 C1404 1.419 . S
C1406 C1407 1.363 . S
C1406 H1409 0.929 . S
C1407 C1406 1.363 . S
C1407 C1413 1.428 . S
H1408 C1404 0.930 . S
H1409 C1406 0.929 . S
S1410 N1411 1.613 . S
S1410 N1412 1.610 . S
N1411 S1410 1.613 . S
N1411 C1414 1.350 . S
N1412 S1410 1.610 . S
N1412 C1413 1.351 . S
C1413 C1407 1.428 . S
C1413 N1412 1.351 . S
C1413 C1414 1.434 . S
C1414 C1405 1.429 . S
C1414 N1411 1.350 . S
C1414 C1413 1.434 . S
C1415 C1416 1.369 . S
C1415 C1417 1.419 . S
C1415 H1419 0.930 1_554 S
C1416 C1415 1.369 . S
C1416 C1425 1.429 . S
C1417 C1415 1.419 . S
C1417 C1418 1.363 . S
C1417 H1420 0.929 . S
C1418 C1417 1.363 . S
C1418 C1424 1.428 . S
H1419 C1415 0.930 1_556 S
H1420 C1417 0.929 . S
S1421 N1422 1.613 . S
S1421 N1423 1.610 . S
N1422 S1421 1.613 . S
N1422 C1425 1.350 . S
N1423 S1421 1.610 . S
N1423 C1424 1.351 . S
C1424 C1418 1.428 . S
C1424 N1423 1.351 . S
C1424 C1425 1.434 . S
C1425 C1416 1.429 . S
C1425 N1422 1.350 . S
C1425 C1424 1.434 . S
C1426 C1427 1.369 . S
C1426 C1428 1.419 . S
C1426 H1430 0.930 . S
C1427 C1426 1.369 . S
C1427 C1436 1.429 . S
C1428 C1426 1.419 . S
C1428 C1429 1.363 . S
C1428 H1431 0.929 . S
C1429 C1428 1.363 . S
C1429 C1435 1.428 . S
H1430 C1426 0.930 . S
H1431 C1428 0.929 . S
S1432 N1433 1.613 . S
S1432 N1434 1.610 . S
N1433 S1432 1.613 . S
N1433 C1436 1.350 . S
N1434 S1432 1.610 . S
N1434 C1435 1.351 . S
C1435 C1429 1.428 . S
C1435 N1434 1.351 . S
C1435 C1436 1.434 . S
C1436 C1427 1.429 . S
C1436 N1433 1.350 . S
C1436 C1435 1.434 . S
C1437 C1438 1.369 . S
C1437 C1439 1.419 . S
C1437 H1441 0.930 . S
C1438 C1437 1.369 . S
C1438 C1447 1.429 . S
C1439 C1437 1.419 . S
C1439 C1440 1.363 . S
C1439 H1442 0.929 . S
C1440 C1439 1.363 . S
C1440 C1446 1.428 . S
H1441 C1437 0.930 . S
H1442 C1439 0.929 . S
S1443 N1444 1.613 . S
S1443 N1445 1.610 . S
N1444 S1443 1.613 . S
N1444 C1447 1.350 . S
N1445 S1443 1.610 . S
N1445 C1446 1.351 . S
C1446 C1440 1.428 . S
C1446 N1445 1.351 . S
C1446 C1447 1.434 . S
C1447 C1438 1.429 . S
C1447 N1444 1.350 . S
C1447 C1446 1.434 . S
C1448 C1449 1.369 . S
C1448 C1450 1.419 . S
C1448 H1452 0.930 . S
C1449 C1448 1.369 . S
C1449 C1458 1.429 . S
C1450 C1448 1.419 . S
C1450 C1451 1.363 . S
C1450 H1453 0.929 . S
C1451 C1450 1.363 . S
C1451 C1457 1.428 . S
H1452 C1448 0.930 . S
H1453 C1450 0.929 . S
S1454 N1455 1.613 . S
S1454 N1456 1.610 . S
N1455 S1454 1.613 . S
N1455 C1458 1.350 . S
N1456 S1454 1.610 . S
N1456 C1457 1.351 . S
C1457 C1451 1.428 . S
C1457 N1456 1.351 . S
C1457 C1458 1.434 . S
C1458 C1449 1.429 . S
C1458 N1455 1.350 . S
C1458 C1457 1.434 . S
C1459 C1460 1.369 . S
C1459 C1461 1.419 . S
C1459 H1463 0.930 . S
C1460 C1459 1.369 . S
C1460 C1469 1.429 . S
C1461 C1459 1.419 . S
C1461 C1462 1.363 . S
C1461 H1464 0.929 . S
C1462 C1461 1.363 . S
C1462 C1468 1.428 . S
H1463 C1459 0.930 . S
H1464 C1461 0.929 . S
S1465 N1466 1.613 . S
S1465 N1467 1.610 . S
N1466 S1465 1.613 . S
N1466 C1469 1.350 . S
N1467 S1465 1.610 . S
N1467 C1468 1.351 . S
C1468 C1462 1.428 . S
C1468 N1467 1.351 . S
C1468 C1469 1.434 . S
C1469 C1460 1.429 . S
C1469 N1466 1.350 . S
C1469 C1468 1.434 . S
C1470 C1471 1.369 . S
C1470 C1472 1.419 . S
C1470 H1474 0.930 . S
C1471 C1470 1.369 . S
C1471 C1480 1.429 . S
C1472 C1470 1.419 . S
C1472 C1473 1.363 . S
C1472 H1475 0.929 . S
C1473 C1472 1.363 . S
C1473 C1479 1.428 . S
H1474 C1470 0.930 . S
H1475 C1472 0.929 . S
S1476 N1477 1.613 . S
S1476 N1478 1.610 . S
N1477 S1476 1.613 . S
N1477 C1480 1.350 . S
N1478 S1476 1.610 . S
N1478 C1479 1.351 . S
C1479 C1473 1.428 . S
C1479 N1478 1.351 . S
C1479 C1480 1.434 . S
C1480 C1471 1.429 . S
C1480 N1477 1.350 . S
C1480 C1479 1.434 . S
C1481 C1482 1.369 . S
C1481 C1483 1.419 . S
C1481 H1485 0.930 . S
C1482 C1481 1.369 . S
C1482 C1491 1.429 . S
C1483 C1481 1.419 . S
C1483 C1484 1.363 . S
C1483 H1486 0.929 . S
C1484 C1483 1.363 . S
C1484 C1490 1.428 . S
H1485 C1481 0.930 . S
H1486 C1483 0.929 . S
S1487 N1488 1.613 . S
S1487 N1489 1.610 . S
N1488 S1487 1.613 . S
N1488 C1491 1.350 . S
N1489 S1487 1.610 . S
N1489 C1490 1.351 . S
C1490 C1484 1.428 . S
C1490 N1489 1.351 . S
C1490 C1491 1.434 . S
C1491 C1482 1.429 . S
C1491 N1488 1.350 . S
C1491 C1490 1.434 . S
C1492 C1493 1.369 . S
C1492 C1494 1.419 . S
C1492 H1496 0.930 . S
C1493 C1492 1.369 . S
C1493 C1502 1.429 . S
C1494 C1492 1.419 . S
C1494 C1495 1.363 . S
C1494 H1497 0.929 . S
C1495 C1494 1.363 . S
C1495 C1501 1.428 1_556 S
H1496 C1492 0.930 . S
H1497 C1494 0.929 . S
S1498 N1499 1.613 . S
S1498 N1500 1.610 . S
N1499 S1498 1.613 . S
N1499 C1502 1.350 1_554 S
N1500 S1498 1.610 . S
N1500 C1501 1.351 . S
C1501 C1495 1.428 1_554 S
C1501 N1500 1.351 . S
C1501 C1502 1.434 1_554 S
C1502 C1493 1.429 . S
C1502 N1499 1.350 1_556 S
C1502 C1501 1.434 1_556 S
C1503 C1504 1.369 . S
C1503 C1505 1.419 . S
C1503 H1507 0.930 . S
C1504 C1503 1.369 . S
C1504 C1513 1.429 . S
C1505 C1503 1.419 . S
C1505 C1506 1.363 . S
C1505 H1508 0.929 . S
C1506 C1505 1.363 . S
C1506 C1512 1.428 . S
H1507 C1503 0.930 . S
H1508 C1505 0.929 . S
S1509 N1510 1.613 . S
S1509 N1511 1.610 . S
N1510 S1509 1.613 . S
N1510 C1513 1.350 . S
N1511 S1509 1.610 . S
N1511 C1512 1.351 . S
C1512 C1506 1.428 . S
C1512 N1511 1.351 . S
C1512 C1513 1.434 . S
C1513 C1504 1.429 . S
C1513 N1510 1.350 . S
C1513 C1512 1.434 . S
C1514 C1515 1.369 . S
C1514 C1516 1.419 . S
C1514 H1518 0.930 . S
C1515 C1514 1.369 . S
C1515 C1524 1.429 . S
C1516 C1514 1.419 . S
C1516 C1517 1.363 . S
C1516 H1519 0.929 . S
C1517 C1516 1.363 . S
C1517 C1523 1.428 . S
H1518 C1514 0.930 . S
H1519 C1516 0.929 . S
S1520 N1521 1.613 1_655 S
S1520 N1522 1.611 . S
N1521 S1520 1.613 1_455 S
N1521 C1524 1.350 . S
N1522 S1520 1.611 . S
N1522 C1523 1.337 1_655 S
C1523 C1517 1.428 . S
C1523 N1522 1.337 1_455 S
C1523 C1524 1.434 . S
C1524 C1515 1.429 . S
C1524 N1521 1.350 . S
C1524 C1523 1.434 . S
C1525 C1526 1.369 . S
C1525 C1527 1.419 . S
C1525 H1529 0.930 . S
C1526 C1525 1.369 . S
C1526 C1535 1.429 . S
C1527 C1525 1.419 . S
C1527 C1528 1.363 . S
C1527 H1530 0.929 . S
C1528 C1527 1.363 . S
C1528 C1534 1.428 . S
H1529 C1525 0.930 . S
H1530 C1527 0.929 . S
S1531 N1532 1.613 . S
S1531 N1533 1.610 . S
N1532 S1531 1.613 . S
N1532 C1535 1.350 . S
N1533 S1531 1.610 . S
N1533 C1534 1.351 . S
C1534 C1528 1.428 . S
C1534 N1533 1.351 . S
C1534 C1535 1.434 . S
C1535 C1526 1.429 . S
C1535 N1532 1.350 . S
C1535 C1534 1.434 . S
C1536 C1537 1.369 . S
C1536 C1538 1.419 . S
C1536 H1540 0.930 . S
C1537 C1536 1.369 . S
C1537 C1546 1.429 . S
C1538 C1536 1.419 . S
C1538 C1539 1.363 . S
C1538 H1541 0.929 . S
C1539 C1538 1.363 . S
C1539 C1545 1.428 . S
H1540 C1536 0.930 . S
H1541 C1538 0.929 . S
S1542 N1543 1.613 . S
S1542 N1544 1.610 . S
N1543 S1542 1.613 . S
N1543 C1546 1.350 . S
N1544 S1542 1.610 . S
N1544 C1545 1.351 . S
C1545 C1539 1.428 . S
C1545 N1544 1.351 . S
C1545 C1546 1.434 . S
C1546 C1537 1.429 . S
C1546 N1543 1.350 . S
C1546 C1545 1.434 . S
C1547 C1548 1.369 . S
C1547 C1549 1.419 . S
C1547 H1551 0.930 . S
C1548 C1547 1.369 . S
C1548 C1557 1.429 . S
C1549 C1547 1.419 . S
C1549 C1550 1.363 . S
C1549 H1552 0.929 . S
C1550 C1549 1.363 . S
C1550 C1556 1.428 . S
H1551 C1547 0.930 . S
H1552 C1549 0.929 . S
S1553 N1554 1.613 . S
S1553 N1555 1.610 . S
N1554 S1553 1.613 . S
N1554 C1557 1.350 . S
N1555 S1553 1.610 . S
N1555 C1556 1.351 . S
C1556 C1550 1.428 . S
C1556 N1555 1.351 . S
C1556 C1557 1.434 . S
C1557 C1548 1.429 . S
C1557 N1554 1.350 . S
C1557 C1556 1.434 . S
C1558 C1559 1.369 . S
C1558 C1560 1.419 1_655 S
C1558 H1562 0.930 1_655 S
C1559 C1558 1.369 . S
C1559 C1568 1.429 . S
C1560 C1558 1.419 1_455 S
C1560 C1561 1.363 1_455 S
C1560 H1563 0.929 . S
C1561 C1560 1.363 1_655 S
C1561 C1567 1.428 . S
H1562 C1558 0.930 1_455 S
H1563 C1560 0.929 . S
S1564 N1565 1.613 . S
S1564 N1566 1.610 . S
N1565 S1564 1.613 . S
N1565 C1568 1.350 . S
N1566 S1564 1.610 . S
N1566 C1567 1.351 . S
C1567 C1561 1.428 . S
C1567 N1566 1.351 . S
C1567 C1568 1.434 . S
C1568 C1559 1.429 . S
C1568 N1565 1.350 . S
C1568 C1567 1.434 . S
C1569 C1570 1.369 . S
C1569 C1571 1.419 . S
C1569 H1573 0.930 . S
C1570 C1569 1.369 . S
C1570 C1579 1.429 . S
C1571 C1569 1.419 . S
C1571 C1572 1.363 . S
C1571 H1574 0.929 . S
C1572 C1571 1.363 . S
C1572 C1578 1.428 . S
H1573 C1569 0.930 . S
H1574 C1571 0.929 . S
S1575 N1576 1.613 . S
S1575 N1577 1.610 . S
N1576 S1575 1.613 . S
N1576 C1579 1.350 . S
N1577 S1575 1.610 . S
N1577 C1578 1.351 . S
C1578 C1572 1.428 . S
C1578 N1577 1.351 . S
C1578 C1579 1.434 . S
C1579 C1570 1.429 . S
C1579 N1576 1.350 . S
C1579 C1578 1.434 . S
C1580 C1581 1.369 . S
C1580 C1582 1.419 . S
C1580 H1584 0.930 . S
C1581 C1580 1.369 . S
C1581 C1590 1.429 . S
C1582 C1580 1.419 . S
C1582 C1583 1.363 . S
C1582 H1585 0.929 . S
C1583 C1582 1.363 . S
C1583 C1589 1.428 . S
H1584 C1580 0.930 . S
H1585 C1582 0.929 . S
S1586 N1587 1.613 . S
S1586 N1588 1.610 . S
N1587 S1586 1.613 . S
N1587 C1590 1.350 . S
N1588 S1586 1.610 . S
N1588 C1589 1.351 . S
C1589 C1583 1.428 . S
C1589 N1588 1.351 . S
C1589 C1590 1.434 . S
C1590 C1581 1.429 . S
C1590 N1587 1.350 . S
C1590 C1589 1.434 . S
C1591 C1592 1.369 . S
C1591 C1593 1.419 . S
C1591 H1595 0.930 . S
C1592 C1591 1.369 . S
C1592 C1601 1.429 . S
C1593 C1591 1.419 . S
C1593 C1594 1.363 . S
C1593 H1596 0.929 . S
C1594 C1593 1.363 . S
C1594 C1600 1.428 . S
H1595 C1591 0.930 . S
H1596 C1593 0.929 . S
S1597 N1598 1.613 . S
S1597 N1599 1.610 . S
N1598 S1597 1.613 . S
N1598 C1601 1.350 . S
N1599 S1597 1.610 . S
N1599 C1600 1.351 . S
C1600 C1594 1.428 . S
C1600 N1599 1.351 . S
C1600 C1601 1.434 . S
C1601 C1592 1.429 . S
C1601 N1598 1.350 . S
C1601 C1600 1.434 . S
C1602 C1603 1.369 . S
C1602 C1604 1.419 . S
C1602 H1606 0.930 1_655 S
C1603 C1602 1.369 . S
C1603 C1612 1.429 . S
C1604 C1602 1.419 . S
C1604 C1605 1.363 . S
C1604 H1607 0.929 1_655 S
C1605 C1604 1.363 . S
C1605 C1611 1.428 . S
H1606 C1602 0.930 1_455 S
H1607 C1604 0.929 1_455 S
S1608 N1609 1.613 . S
S1608 N1610 1.610 . S
N1609 S1608 1.613 . S
N1609 C1612 1.350 . S
N1610 S1608 1.610 . S
N1610 C1611 1.351 . S
C1611 C1605 1.428 . S
C1611 N1610 1.351 . S
C1611 C1612 1.434 . S
C1612 C1603 1.429 . S
C1612 N1609 1.350 . S
C1612 C1611 1.434 . S
C1613 C1614 1.369 . S
C1613 C1615 1.419 . S
C1613 H1617 0.930 . S
C1614 C1613 1.369 . S
C1614 C1623 1.429 . S
C1615 C1613 1.419 . S
C1615 C1616 1.363 . S
C1615 H1618 0.929 . S
C1616 C1615 1.363 . S
C1616 C1622 1.428 . S
H1617 C1613 0.930 . S
H1618 C1615 0.929 . S
S1619 N1620 1.613 . S
S1619 N1621 1.610 . S
N1620 S1619 1.613 . S
N1620 C1623 1.350 . S
N1621 S1619 1.610 . S
N1621 C1622 1.351 . S
C1622 C1616 1.428 . S
C1622 N1621 1.351 . S
C1622 C1623 1.434 . S
C1623 C1614 1.429 . S
C1623 N1620 1.350 . S
C1623 C1622 1.434 . S
C1624 C1625 1.369 . S
C1624 C1626 1.419 . S
C1624 H1628 0.930 . S
C1625 C1624 1.369 . S
C1625 C1634 1.429 . S
C1626 C1624 1.419 . S
C1626 C1627 1.363 . S
C1626 H1629 0.929 . S
C1627 C1626 1.363 . S
C1627 C1633 1.428 . S
H1628 C1624 0.930 . S
H1629 C1626 0.929 . S
S1630 N1631 1.613 . S
S1630 N1632 1.610 . S
N1631 S1630 1.613 . S
N1631 C1634 1.350 . S
N1632 S1630 1.610 . S
N1632 C1633 1.351 . S
C1633 C1627 1.428 . S
C1633 N1632 1.351 . S
C1633 C1634 1.434 . S
C1634 C1625 1.429 . S
C1634 N1631 1.350 . S
C1634 C1633 1.434 . S
C1635 C1636 1.369 . S
C1635 C1637 1.419 . S
C1635 H1639 0.930 . S
C1636 C1635 1.369 . S
C1636 C1645 1.429 . S
C1637 C1635 1.419 . S
C1637 C1638 1.363 . S
C1637 H1640 0.929 . S
C1638 C1637 1.363 . S
C1638 C1644 1.428 . S
H1639 C1635 0.930 . S
H1640 C1637 0.929 . S
S1641 N1642 1.613 . S
S1641 N1643 1.610 . S
N1642 S1641 1.613 . S
N1642 C1645 1.350 . S
N1643 S1641 1.610 . S
N1643 C1644 1.351 . S
C1644 C1638 1.428 . S
C1644 N1643 1.351 . S
C1644 C1645 1.434 . S
C1645 C1636 1.429 . S
C1645 N1642 1.350 . S
C1645 C1644 1.434 . S
C1646 C1647 1.369 . S
C1646 C1648 1.419 . S
C1646 H1650 0.930 . S
C1647 C1646 1.369 . S
C1647 C1656 1.429 . S
C1648 C1646 1.419 . S
C1648 C1649 1.363 . S
C1648 H1651 0.929 . S
C1649 C1648 1.363 . S
C1649 C1655 1.428 . S
H1650 C1646 0.930 . S
H1651 C1648 0.929 . S
S1652 N1653 1.613 . S
S1652 N1654 1.610 . S
N1653 S1652 1.613 . S
N1653 C1656 1.350 . S
N1654 S1652 1.610 . S
N1654 C1655 1.351 . S
C1655 C1649 1.428 . S
C1655 N1654 1.351 . S
C1655 C1656 1.434 . S
C1656 C1647 1.429 . S
C1656 N1653 1.350 . S
C1656 C1655 1.434 . S
C1657 C1658 1.369 . S
C1657 C1659 1.419 . S
C1657 H1661 0.930 . S
C1658 C1657 1.369 . S
C1658 C1667 1.429 . S
C1659 C1657 1.419 . S
C1659 C1660 1.363 . S
C1659 H1662 0.929 . S
C1660 C1659 1.363 . S
C1660 C1666 1.428 . S
H1661 C1657 0.930 . S
H1662 C1659 0.929 . S
S1663 N1664 1.613 . S
S1663 N1665 1.610 . S
N1664 S1663 1.613 . S
N1664 C1667 1.350 . S
N1665 S1663 1.610 . S
N1665 C1666 1.351 . S
C1666 C1660 1.428 . S
C1666 N1665 1.351 . S
C1666 C1667 1.434 . S
C1667 C1658 1.429 . S
C1667 N1664 1.350 . S
C1667 C1666 1.434 . S
C1668 C1669 1.369 . S
C1668 C1670 1.419 . S
C1668 H1672 0.930 . S
C1669 C1668 1.369 . S
C1669 C1678 1.429 . S
C1670 C1668 1.419 . S
C1670 C1671 1.363 . S
C1670 H1673 0.929 . S
C1671 C1670 1.363 . S
C1671 C1677 1.428 . S
H1672 C1668 0.930 . S
H1673 C1670 0.929 . S
S1674 N1675 1.613 . S
S1674 N1676 1.610 . S
N1675 S1674 1.613 . S
N1675 C1678 1.350 . S
N1676 S1674 1.610 . S
N1676 C1677 1.351 . S
C1677 C1671 1.428 . S
C1677 N1676 1.351 . S
C1677 C1678 1.434 . S
C1678 C1669 1.429 . S
C1678 N1675 1.350 . S
C1678 C1677 1.434 . S
C1679 C1680 1.369 . S
C1679 C1681 1.419 . S
C1679 H1683 0.930 . S
C1680 C1679 1.369 . S
C1680 C1689 1.429 . S
C1681 C1679 1.419 . S
C1681 C1682 1.363 . S
C1681 H1684 0.929 . S
C1682 C1681 1.363 . S
C1682 C1688 1.428 . S
H1683 C1679 0.930 . S
H1684 C1681 0.929 . S
S1685 N1686 1.613 . S
S1685 N1687 1.610 . S
N1686 S1685 1.613 . S
N1686 C1689 1.350 . S
N1687 S1685 1.610 . S
N1687 C1688 1.351 . S
C1688 C1682 1.428 . S
C1688 N1687 1.351 . S
C1688 C1689 1.434 . S
C1689 C1680 1.429 . S
C1689 N1686 1.350 . S
C1689 C1688 1.434 . S
C1690 C1691 1.369 . S
C1690 C1692 1.419 . S
C1690 H1694 0.930 . S
C1691 C1690 1.369 . S
C1691 C1700 1.429 . S
C1692 C1690 1.419 . S
C1692 C1693 1.363 . S
C1692 H1695 0.929 . S
C1693 C1692 1.363 . S
C1693 C1699 1.428 . S
H1694 C1690 0.930 . S
H1695 C1692 0.929 . S
S1696 N1697 1.613 . S
S1696 N1698 1.610 . S
N1697 S1696 1.613 . S
N1697 C1700 1.350 . S
N1698 S1696 1.610 . S
N1698 C1699 1.351 . S
C1699 C1693 1.428 . S
C1699 N1698 1.351 . S
C1699 C1700 1.434 . S
C1700 C1691 1.429 . S
C1700 N1697 1.350 . S
C1700 C1699 1.434 . S
C1701 C1702 1.369 . S
C1701 C1703 1.419 . S
C1701 H1705 0.930 . S
C1702 C1701 1.369 . S
C1702 C1711 1.429 . S
C1703 C1701 1.419 . S
C1703 C1704 1.363 . S
C1703 H1706 0.929 . S
C1704 C1703 1.363 . S
C1704 C1710 1.428 . S
H1705 C1701 0.930 . S
H1706 C1703 0.929 . S
S1707 N1708 1.613 . S
S1707 N1709 1.610 . S
N1708 S1707 1.613 . S
N1708 C1711 1.350 . S
N1709 S1707 1.610 . S
N1709 C1710 1.351 . S
C1710 C1704 1.428 . S
C1710 N1709 1.351 . S
C1710 C1711 1.434 . S
C1711 C1702 1.429 . S
C1711 N1708 1.350 . S
C1711 C1710 1.434 . S
C657 C111 1.486 1_455 S
C659 C340 1.256 . S
C668 C64 1.516 . S
C670 C375 1.575 . S
C679 C77 1.148 . S
C681 C380 1.048 . S
C692 C405 1.264 . S
C690 C95 1.316 . S
C701 C25 1.321 . S
C703 C425 1.272 . S
C714 C440 1.097 . S
C712 C36 1.201 . S
C725 C475 1.559 . S
C723 C50 1.510 . S
C734 C11 1.510 . S
C736 C480 1.204 . S
C747 C355 1.566 1_655 S
C745 C237 1.590 . S
C756 C245 1.106 . S
C758 C365 1.050 . S
C769 C395 1.359 1_565 S
C767 C279 1.293 1_565 S
C780 C400 1.145 . S
C778 C175 1.239 1_556 S
C789 C231 1.206 . S
C791 C420 1.117 . S
C802 C455 1.363 . S
C800 C251 1.281 . S
C813 C465 1.072 . S
C811 C273 1.147 . S
C824 C495 1.559 . S
C822 C181 1.583 . S
C835 C345 1.291 . S
C833 C165 1.544 . S
C844 C288 1.691 . S
C846 C515 1.782 . S
C857 C525 1.422 . S
C855 C333 1.558 . S
C868 C540 1.070 . S
C866 C316 1.165 . S
C877 C123 1.525 . S
C879 C485 1.287 . S
C888 C137 1.531 . S
C890 C385 1.394 . S
C899 C330 1.684 . S
C901 C575 1.775 . S
C912 C580 1.065 . S
C910 C302 1.153 . S
C923 C338 1.338 . S
C921 C63 1.587 . S
C934 C594 1.599 . S
C932 C106 1.583 . S
C943 C97 1.124 . S
C945 C378 1.101 . S
C954 C81 1.363 . S
C956 C568 1.348 . S
C967 C428 1.381 . S
C965 C13 1.377 . S
C976 C55 1.119 . S
C978 C518 1.105 . S
C989 C474 1.520 1_556 S
C987 C35 1.529 . S
C1000 C598 1.323 . S
C998 C21 1.586 . S
C1011 C354 1.654 . S
C1009 C147 1.748 . S
C1022 C588 1.084 . S
C1020 C321 1.058 . S
C1031 C119 1.423 . S
C1033 C394 1.402 . S
C1042 C293 1.235 . S
C1044 C558 1.224 . S
C1053 C153 1.247 . S
C1055 C418 1.219 . S
C1066 C534 1.413 . S
C1064 C315 1.434 . S
C1075 C125 1.066 . S
C1077 C468 1.084 . S
C1086 C287 1.730 . S
C1088 C614 1.637 . S
C1097 C193 1.505 . S
C1099 C348 1.343 . S
C1108 C176 1.770 . S
C1110 C514 1.790 . S
C1119 C263 1.524 . S
C1121 C448 1.454 . S
C1130 C246 1.198 . S
C1132 C538 1.150 . S
C1143 C608 1.325 . S
C1141 C277 1.503 . S
C1152 C221 1.516 . S
C1154 C388 1.454 . S
C1165 C414 1.802 . S
C1163 C260 1.783 . S
C1176 C358 1.146 . S
C1174 C204 1.197 . S
C1185 C83 1.502 . S
C1187 C620 1.254 . S
C1198 C595 1.578 . S
C1196 C92 1.523 . S
C1207 C105 1.148 . S
C1209 C640 1.045 . S
C1218 C67 1.321 . S
C1220 C565 1.273 . S
C1229 C53 1.320 . S
C1231 C505 1.269 . S
C1242 C520 1.100 . S
C1240 C8 1.201 . S
C1253 C555 1.559 . S
C1251 C22 1.508 . S
C1264 C600 1.209 . S
C1262 C39 1.508 . S
C1275 C635 1.561 . S
C1273 C265 1.580 . S
C1284 C189 1.100 . S
C1286 C585 1.056 . S
C1297 C655 1.360 . S
C1295 C209 1.293 . S
C1308 C560 1.144 . S
C1306 C217 1.240 . S
C1319 C500 1.116 . S
C1317 C259 1.206 . S
C1328 C195 1.283 . S
C1330 C535 1.365 . S
C1341 C545 1.086 . S
C1339 C203 1.139 . S
C1350 C223 1.580 . S
C1352 C615 1.562 . S
C1363 C625 1.291 . S
C1361 C319 1.544 . S
C1372 C134 1.691 . S
C1374 C435 1.783 . S
C1385 C445 1.431 . S
C1383 C151 1.557 . S
C1396 C460 1.061 . S
C1394 C162 1.160 . S
C1407 C605 1.276 . S
C1405 C305 1.529 . S
C1416 C291 1.529 1_554 S
C1418 C645 1.395 . S
C1429 C415 1.775 . S
C1427 C148 1.684 . S
C1440 C360 1.063 . S
C1438 C120 1.154 . S
C1449 C91 1.593 . S
C1451 C618 1.328 . S
C1462 C374 1.600 . S
C1460 C78 1.587 . S
C1471 C69 1.126 . S
C1473 C638 1.100 . S
C1482 C109 1.365 . S
C1484 C408 1.340 . S
C1493 C41 1.370 . S
C1495 C508 1.389 . S
C1506 C438 1.107 . S
C1504 C27 1.117 . S
C1515 C7 1.531 . S
C1517 C554 1.519 . S
C1526 C49 1.581 . S
C1528 C478 1.332 . S
C1539 C634 1.651 . S
C1537 C329 1.751 . S
C1548 C167 1.058 . S
C1550 C368 1.084 . S
C1561 C654 1.401 1_655 S
C1559 C301 1.423 . S
C1570 C139 1.246 . S
C1572 C398 1.218 . S
C1581 C335 1.234 . S
C1583 C498 1.230 . S
C1594 C454 1.412 . S
C1592 C161 1.433 . S
C1603 C307 1.059 . S
C1605 C548 1.084 . S
C1616 C494 1.632 . S
C1614 C133 1.732 . S
C1627 C628 1.336 . S
C1625 C249 1.511 . S
C1638 C434 1.793 . S
C1636 C218 1.774 . S
C1647 C235 1.524 . S
C1649 C528 1.459 . S
C1660 C458 1.155 . S
C1658 C190 1.194 . S
C1669 C207 1.493 . S
C1671 C488 1.331 . S
C1680 C179 1.515 . S
C1682 C648 1.455 . S
C1693 C574 1.802 . S
C1691 C232 1.784 . S
C1704 C578 1.139 . S
C1702 C274 1.187 . S
