# Generated by pormake.
# Topology bcu-b, (8,8)-cn, num edge types: 1
# Building blocks:
#     Node 0, Type 0, BuildingBlock: VETTIZ_charged_sbu_0, # of connection points: 8
#     Node 1, Type 1, BuildingBlock: VETTIZ_charged_sbu_0, # of connection points: 8
#     Edge 2, Type (0, 1), BuildingBlock: UVAHIK_clean_linker_0, # of connection points: 2
#     Edge 3, Type (0, 1), BuildingBlock: UVAHIK_clean_linker_0, # of connection points: 2
#     Edge 4, Type (0, 1), BuildingBlock: UVAHIK_clean_linker_0, # of connection points: 2
#     Edge 5, Type (0, 1), BuildingBlock: UVAHIK_clean_linker_0, # of connection points: 2
#     Edge 6, Type (0, 1), BuildingBlock: UVAHIK_clean_linker_0, # of connection points: 2
#     Edge 7, Type (0, 1), BuildingBlock: UVAHIK_clean_linker_0, # of connection points: 2
#     Edge 8, Type (0, 1), BuildingBlock: UVAHIK_clean_linker_0, # of connection points: 2
#     Edge 9, Type (0, 1), BuildingBlock: UVAHIK_clean_linker_0, # of connection points: 2
# Relax obj value: 0.000
# Max RMSD: 0.009
# Mean RMSD: 0.009
data_MOF--net-bcu-b--node1-VETTIZ_charged_sbu_0--node2-VETTIZ_charged_sbu_0--edge1-UVAHIK_clean_linker_0
_symmetry_space_group_name_H-M    P1
_symmetry_Int_Tables_number       1
_symmetry_cell_setting            triclinic
loop_
_symmetry_equiv_pos_as_xyz
'x, y, z'
_cell_length_a     25.114781
_cell_length_b     23.991288
_cell_length_c     25.165241
_cell_angle_alpha  88.405017
_cell_angle_beta   88.901547
_cell_angle_gamma 91.576136
loop_
_atom_site_label
_atom_site_type_symbol
_atom_site_fract_x
_atom_site_fract_y
_atom_site_fract_z
_atom_type_partial_charge
Fe0 Fe 0.04587 0.91068 -0.00021 0.0
O1 O 0.03946 0.99234 0.99784 0.0
Fe2 Fe 0.99377 1.02706 0.93616 0.0
Fe3 Fe 0.01015 0.03432 0.05888 0.0
O4 O 0.03753 0.99126 0.99248 0.0
O5 O 0.96405 0.0687 0.99728 0.0
O6 O 0.96577 0.06964 0.00276 0.0
Fe7 Fe 0.95692 0.15019 0.99582 0.0
C8 C 0.95553 0.92337 0.08241 0.0
O9 O 0.10412 0.93057 0.05251 0.0
O10 O 0.06237 0.99023 0.10939 0.0
O11 O 0.00859 0.16455 0.93104 0.0
O12 O 0.05343 0.08619 0.92336 0.0
O13 O 0.03277 0.97795 0.87971 0.0
O14 O 0.08936 0.92473 0.93031 0.0
O15 O 0.06968 0.09546 0.0496 0.0
O16 O 0.01784 0.16911 0.04592 0.0
C17 C 0.07312 0.94518 0.88524 0.0
O18 O 0.89948 0.13048 0.94184 0.0
O19 O 0.94252 0.07147 0.88527 0.0
O20 O 0.99549 0.89693 0.06545 0.0
O21 O 0.95058 0.97514 0.07249 0.0
C22 C 0.10047 0.95653 0.0969 0.0
C23 C 0.06131 0.14662 0.05817 0.0
C24 C 0.92986 0.11493 0.10999 0.0
O25 O 0.97097 0.08316 0.11522 0.0
O26 O 0.91285 0.13519 0.06507 0.0
C27 C 0.04857 0.13811 0.91393 0.0
O28 O 0.93377 0.96676 0.94484 0.0
O29 O 0.98341 0.8915 0.95138 0.0
C30 C 0.90413 0.10485 0.89735 0.0
C31 C 0.94012 0.91469 0.93948 0.0
Fe32 Fe 0.50381 0.65017 0.54297 0.0
O33 O 0.49703 0.56961 0.53409 0.0
Fe34 Fe 0.56387 0.52719 0.50619 0.0
Fe35 Fe 0.4409 0.53423 0.48974 0.0
O36 O 0.50251 0.56869 0.53583 0.0
O37 O 0.50754 0.49132 0.46246 0.0
O38 O 0.50216 0.49239 0.46053 0.0
Fe39 Fe 0.50038 0.41074 0.4541 0.0
C40 C 0.38946 0.61465 0.5699 0.0
O41 O 0.45363 0.66903 0.48214 0.0
O42 O 0.45016 0.59541 0.43036 0.0
O43 O 0.56999 0.42497 0.41074 0.0
O44 O 0.62056 0.47823 0.46727 0.0
O45 O 0.57661 0.58638 0.44668 0.0
O46 O 0.56873 0.6647 0.49143 0.0
O47 O 0.3904 0.49007 0.43756 0.0
O48 O 0.44756 0.43055 0.39593 0.0
C49 C 0.58594 0.63831 0.45153 0.0
O50 O 0.54887 0.39161 0.51645 0.0
O51 O 0.55523 0.46684 0.56605 0.0
O52 O 0.43442 0.63499 0.5869 0.0
O53 O 0.38431 0.58294 0.52882 0.0
C54 C 0.4415 0.64656 0.4387 0.0
C55 C 0.403 0.45639 0.39955 0.0
C56 C 0.41752 0.42321 0.54423 0.0
O57 O 0.42733 0.475 0.54916 0.0
O58 O 0.43458 0.39682 0.50435 0.0
C59 C 0.61509 0.44553 0.42695 0.0
O60 O 0.61474 0.57167 0.5574 0.0
O61 O 0.55789 0.63055 0.60032 0.0
C62 C 0.56063 0.41478 0.5597 0.0
C63 C 0.60254 0.60501 0.59571 0.0
C64 C 0.07529 0.21664 0.12761 0.0
C65 C 0.09753 0.17919 0.09196 0.0
C66 C 0.10755 0.24927 0.1595 0.0
C67 C 0.24542 0.26407 0.21011 0.0
H68 H 0.19861 0.41204 0.24427 0.0
C69 C 0.38253 0.42182 0.30984 0.0
C70 C 0.36368 0.44142 0.35876 0.0
C71 C 0.34825 0.39489 0.27542 0.0
C72 C 0.21189 0.37071 0.23528 0.0
H73 H 0.17116 0.14585 0.06238 0.0
H74 H 0.22847 0.20493 0.11674 0.0
H75 H 0.14498 0.35387 0.18656 0.0
H76 H 0.29302 0.45221 0.40772 0.0
H77 H 0.23218 0.40592 0.34611 0.0
H78 H 0.31337 0.28222 0.25748 0.0
C79 C 0.1857 0.20816 0.12088 0.0
C80 C 0.18115 0.33707 0.20239 0.0
C81 C 0.15305 0.17444 0.08947 0.0
C82 C 0.30868 0.43775 0.3703 0.0
C83 C 0.27401 0.411 0.33527 0.0
C84 C 0.27655 0.29811 0.24217 0.0
C85 C 0.16329 0.24638 0.15612 0.0
C86 C 0.19725 0.28302 0.1896 0.0
C87 C 0.29405 0.38741 0.28858 0.0
C88 C 0.26003 0.35165 0.25518 0.0
H89 H 0.03247 0.22035 0.13141 0.0
H90 H 0.08844 0.27646 0.18721 0.0
H91 H 0.25881 0.22255 0.20222 0.0
H92 H 0.42455 0.42476 0.29924 0.0
H93 H 0.36451 0.37816 0.23918 0.0
C94 C 0.93264 0.14991 0.20282 0.0
C95 C 0.90313 0.13481 0.15828 0.0
C96 C 0.90861 0.17908 0.24398 0.0
C97 C 0.77693 0.2184 0.29851 0.0
H98 H 0.84709 0.35908 0.33155 0.0
C99 C 0.65936 0.40643 0.34791 0.0
C100 C 0.66297 0.42376 0.40061 0.0
C101 C 0.69758 0.37219 0.32647 0.0
C102 C 0.8276 0.31948 0.32343 0.0
H103 H 0.82508 0.1351 0.12318 0.0
H104 H 0.78311 0.18483 0.19478 0.0
H105 H 0.89599 0.28927 0.282 0.0
H106 H 0.71193 0.42292 0.47066 0.0
H107 H 0.77996 0.36306 0.43221 0.0
H108 H 0.70767 0.24996 0.33683 0.0
C109 C 0.82464 0.1745 0.1983 0.0
C110 C 0.85547 0.27946 0.29534 0.0
C111 C 0.84869 0.14621 0.15709 0.0
C112 C 0.70837 0.41044 0.42981 0.0
C113 C 0.74702 0.37603 0.40806 0.0
C114 C 0.74917 0.25834 0.32608 0.0
C115 C 0.85455 0.1926 0.24155 0.0
C116 C 0.82966 0.22941 0.28086 0.0
C117 C 0.74042 0.35483 0.35708 0.0
C118 C 0.77368 0.30987 0.33712 0.0
H119 H 0.97488 0.14213 0.20437 0.0
H120 H 0.93254 0.19231 0.27693 0.0
H121 H 0.75628 0.17988 0.28878 0.0
H122 H 0.62513 0.4165 0.32426 0.0
H123 H 0.69219 0.3568 0.28679 0.0
C124 C 0.87806 0.92378 0.14703 0.0
C125 C 0.91473 0.89367 0.11704 0.0
C126 C 0.84093 0.89608 0.18129 0.0
C127 C 0.81486 0.75966 0.25246 0.0
H128 H 0.67361 0.81762 0.27363 0.0
C129 C 0.64948 0.63795 0.37328 0.0
C130 C 0.6205 0.66811 0.41073 0.0
C131 C 0.68387 0.66548 0.33624 0.0
C132 C 0.71305 0.80118 0.2684 0.0
H133 H 0.93998 0.81058 0.09862 0.0
H134 H 0.87439 0.76221 0.15716 0.0
H135 H 0.73575 0.86471 0.21035 0.0
H136 H 0.60432 0.75122 0.43758 0.0
H137 H 0.66413 0.7993 0.37243 0.0
H138 H 0.79169 0.69568 0.31003 0.0
C139 C 0.87518 0.80737 0.15537 0.0
C140 C 0.74881 0.82824 0.23221 0.0
C141 C 0.91267 0.83511 0.12147 0.0
C142 C 0.62607 0.72665 0.40945 0.0
C143 C 0.66013 0.75425 0.37195 0.0
C144 C 0.77893 0.73236 0.28822 0.0
C145 C 0.83907 0.83746 0.18615 0.0
C146 C 0.80034 0.80799 0.22385 0.0
C147 C 0.68983 0.72391 0.33527 0.0
C148 C 0.72767 0.75287 0.29676 0.0
H149 H 0.87866 0.96896 0.14493 0.0
H150 H 0.81448 0.92085 0.20485 0.0
H151 H 0.85442 0.74335 0.24805 0.0
H152 H 0.64629 0.59283 0.37301 0.0
H153 H 0.70573 0.64097 0.30813 0.0
C154 C 0.12965 0.93794 0.19106 0.0
C155 C 0.14132 0.94166 0.1362 0.0
C156 C 0.16473 0.91124 0.22572 0.0
C157 C 0.2582 0.7985 0.22324 0.0
H158 H 0.31313 0.85386 0.35501 0.0
C159 C 0.41064 0.6746 0.34704 0.0
C160 C 0.40776 0.67914 0.40245 0.0
C161 C 0.37933 0.7084 0.31435 0.0
C162 C 0.29748 0.83718 0.31877 0.0
H163 H 0.20111 0.92519 0.07554 0.0
H164 H 0.26128 0.87867 0.13558 0.0
H165 H 0.25553 0.91216 0.30131 0.0
H166 H 0.36774 0.71995 0.46728 0.0
H167 H 0.31208 0.7762 0.41123 0.0
H168 H 0.29822 0.72292 0.24096 0.0
C169 C 0.2249 0.89532 0.15174 0.0
C170 C 0.26466 0.87089 0.28799 0.0
C171 C 0.19042 0.92219 0.11747 0.0
C172 C 0.37182 0.71642 0.42456 0.0
C173 C 0.34002 0.74912 0.39225 0.0
C174 C 0.2902 0.76439 0.25439 0.0
C175 C 0.2116 0.88776 0.2058 0.0
C176 C 0.24501 0.85197 0.23979 0.0
C177 C 0.3438 0.74646 0.33662 0.0
C178 C 0.31044 0.7832 0.30263 0.0
H179 H 0.09209 0.95231 0.20662 0.0
H180 H 0.15378 0.9061 0.26745 0.0
H181 H 0.24306 0.78271 0.18637 0.0
H182 H 0.43797 0.64614 0.32905 0.0
H183 H 0.38377 0.70535 0.27168 0.0
C184 C 0.07017 0.91036 0.79205 0.0
C185 C 0.09941 0.92316 0.83751 0.0
C186 C 0.09173 0.87588 0.75341 0.0
C187 C 0.17314 0.75744 0.75085 0.0
H188 H 0.21747 0.78902 0.60448 0.0
C189 C 0.34218 0.64534 0.65105 0.0
C190 C 0.34104 0.63434 0.59664 0.0
C191 C 0.30089 0.67354 0.67519 0.0
C192 C 0.20404 0.77904 0.64487 0.0
H193 H 0.17571 0.91488 0.87547 0.0
H194 H 0.21285 0.85506 0.80845 0.0
H195 H 0.16812 0.8588 0.65362 0.0
H196 H 0.29498 0.64225 0.52501 0.0
H197 H 0.22229 0.69229 0.56748 0.0
H198 H 0.21018 0.67884 0.74337 0.0
C199 C 0.17326 0.87089 0.80301 0.0
C200 C 0.17607 0.81903 0.67288 0.0
C201 C 0.15201 0.90521 0.84121 0.0
C202 C 0.29647 0.64972 0.56722 0.0
C203 C 0.25525 0.6788 0.59133 0.0
C204 C 0.20059 0.71753 0.72295 0.0
C205 C 0.14257 0.85408 0.76008 0.0
C206 C 0.16232 0.80918 0.72666 0.0
C207 C 0.25764 0.69196 0.64538 0.0
C208 C 0.21834 0.72877 0.67038 0.0
H209 H 0.0294 0.92334 0.78838 0.0
H210 H 0.06754 0.86337 0.72039 0.0
H211 H 0.16233 0.74887 0.79224 0.0
H212 H 0.37612 0.63401 0.67459 0.0
H213 H 0.30439 0.68358 0.7167 0.0
C214 C 0.12694 0.1376 0.85048 0.0
C215 C 0.08945 0.16783 0.87936 0.0
C216 C 0.16403 0.16507 0.81607 0.0
C217 C 0.23191 0.30075 0.78664 0.0
H218 H 0.25214 0.24279 0.64561 0.0
C219 C 0.35287 0.42346 0.62161 0.0
C220 C 0.38293 0.39342 0.58498 0.0
C221 C 0.31868 0.3957 0.65875 0.0
C222 C 0.24777 0.25914 0.68507 0.0
H223 H 0.06255 0.25098 0.89537 0.0
H224 H 0.12776 0.29894 0.83555 0.0
H225 H 0.19022 0.1951 0.70838 0.0
H226 H 0.40155 0.31037 0.55978 0.0
H227 H 0.34313 0.26189 0.62539 0.0
H228 H 0.28994 0.36435 0.7638 0.0
C229 C 0.12826 0.25389 0.83962 0.0
C230 C 0.21203 0.23182 0.72103 0.0
C231 C 0.09072 0.22636 0.87369 0.0
C232 C 0.37864 0.33486 0.58707 0.0
C233 C 0.34482 0.30704 0.62457 0.0
C234 C 0.26807 0.32782 0.75085 0.0
C235 C 0.16498 0.2235 0.81001 0.0
C236 C 0.20353 0.2524 0.77216 0.0
C237 C 0.31397 0.33707 0.66067 0.0
C238 C 0.27637 0.30753 0.69943 0.0
H239 H 0.12722 0.09249 0.85374 0.0
H240 H 0.19217 0.14051 0.79428 0.0
H241 H 0.22672 0.31724 0.82598 0.0
H242 H 0.35486 0.46865 0.62099 0.0
H243 H 0.29506 0.42042 0.68518 0.0
C244 C 0.87876 0.1321 0.80428 0.0
C245 C 0.86402 0.11932 0.85743 0.0
C246 C 0.84321 0.15933 0.77058 0.0
C247 C 0.72996 0.25351 0.78114 0.0
H248 H 0.7127 0.22758 0.63115 0.0
C249 C 0.61961 0.40488 0.63918 0.0
C250 C 0.58784 0.38036 0.60028 0.0
C251 C 0.65166 0.37177 0.67159 0.0
C252 C 0.71682 0.23512 0.67312 0.0
H253 H 0.79936 0.12023 0.91566 0.0
H254 H 0.7373 0.16599 0.85689 0.0
H255 H 0.77093 0.16815 0.68321 0.0
H256 H 0.56252 0.3015 0.56724 0.0
H257 H 0.6175 0.24427 0.62392 0.0
H258 H 0.67557 0.32006 0.77131 0.0
C259 C 0.77658 0.15687 0.84147 0.0
C260 C 0.7506 0.20137 0.70278 0.0
C261 C 0.81196 0.13012 0.87497 0.0
C262 C 0.58692 0.32193 0.59636 0.0
C263 C 0.61882 0.28903 0.62857 0.0
C264 C 0.69641 0.28735 0.75148 0.0
C265 C 0.79244 0.17392 0.78959 0.0
C266 C 0.7572 0.20985 0.75728 0.0
C267 C 0.65253 0.31355 0.66572 0.0
C268 C 0.68911 0.27835 0.6972 0.0
H269 H 0.91882 0.12473 0.78994 0.0
H270 H 0.85661 0.17183 0.73075 0.0
H271 H 0.73488 0.26188 0.82286 0.0
H272 H 0.62154 0.44974 0.64303 0.0
H273 H 0.67727 0.39199 0.6998 0.0
C274 C 0.8606 0.90487 0.88044 0.0
C275 C 0.89954 0.88031 0.91217 0.0
C276 C 0.82822 0.87182 0.84833 0.0
C277 C 0.82688 0.7353 0.78304 0.0
H278 H 0.67686 0.76208 0.76482 0.0
C279 C 0.69574 0.63238 0.62116 0.0
C280 C 0.64248 0.61955 0.63579 0.0
C281 C 0.72944 0.65963 0.65668 0.0
C282 C 0.71866 0.7537 0.76978 0.0
H283 H 0.9327 0.8014 0.93733 0.0
H284 H 0.87606 0.74428 0.88223 0.0
H285 H 0.72839 0.82015 0.82417 0.0
H286 H 0.58405 0.62044 0.70024 0.0
H287 H 0.6428 0.66622 0.76225 0.0
H288 H 0.81688 0.66843 0.72893 0.0
C289 C 0.87135 0.78904 0.881 0.0
C290 C 0.74831 0.78749 0.80335 0.0
C291 C 0.90354 0.82188 0.91297 0.0
C292 C 0.62482 0.63035 0.68772 0.0
C293 C 0.65832 0.65713 0.72307 0.0
C294 C 0.79723 0.70161 0.74924 0.0
C295 C 0.83416 0.81362 0.84735 0.0
C296 C 0.8027 0.77849 0.81072 0.0
C297 C 0.71031 0.6742 0.70733 0.0
C298 C 0.74263 0.7101 0.74257 0.0
H299 H 0.8567 0.94974 0.87861 0.0
H300 H 0.79998 0.8921 0.82277 0.0
H301 H 0.86893 0.72776 0.78721 0.0
H302 H 0.71018 0.62501 0.58119 0.0
H303 H 0.76936 0.67213 0.64337 0.0
loop_
_geom_bond_atom_site_label_1
_geom_bond_atom_site_label_2
_geom_bond_distance
_geom_bond_site_symmetry_2
_ccdc_geom_bond_type
Fe0 O1 1.886 . S
Fe0 O4 1.715 1_554 S
Fe0 O9 2.077 . S
Fe0 O14 1.935 1_554 S
Fe0 O20 2.077 1_455 S
Fe0 O29 1.935 1_454 S
O1 Fe0 1.886 . S
O1 Fe3 1.715 1_565 S
Fe2 O4 1.886 . S
Fe2 O5 1.715 1_565 S
Fe2 O12 1.935 1_565 S
Fe2 O13 2.077 . S
Fe2 O19 1.935 1_465 S
Fe2 O28 2.077 1_455 S
Fe3 O1 1.715 1_545 S
Fe3 O6 1.886 . S
Fe3 O10 1.935 1_545 S
Fe3 O15 2.077 . S
Fe3 O21 1.935 1_445 S
Fe3 O25 2.077 1_455 S
O4 Fe0 1.715 1_556 S
O4 Fe2 1.886 . S
O5 Fe2 1.715 1_545 S
O5 Fe7 1.886 . S
O6 Fe3 1.886 . S
O6 Fe7 1.715 1_554 S
Fe7 O5 1.886 . S
Fe7 O6 1.715 1_556 S
Fe7 O11 2.077 . S
Fe7 O16 1.935 1_556 S
Fe7 O18 2.077 1_455 S
Fe7 O26 1.935 1_456 S
C8 O20 1.381 . S
C8 O21 1.421 . S
O9 Fe0 2.077 . S
O9 C22 1.381 . S
O10 Fe3 1.935 1_565 S
O10 C22 1.421 . S
O11 Fe7 2.077 . S
O11 C27 1.381 . S
O12 Fe2 1.935 1_545 S
O12 C27 1.421 . S
O13 Fe2 2.077 . S
O13 C17 1.381 . S
O14 Fe0 1.935 1_556 S
O14 C17 1.421 . S
O15 Fe3 2.077 . S
O15 C23 1.381 . S
O16 Fe7 1.935 1_554 S
O16 C23 1.421 . S
C17 O13 1.381 . S
C17 O14 1.421 . S
O18 Fe7 2.077 1_655 S
O18 C30 1.381 . S
O19 Fe2 1.935 1_645 S
O19 C30 1.421 . S
O20 Fe0 2.077 1_655 S
O20 C8 1.381 . S
O21 Fe3 1.935 1_665 S
O21 C8 1.421 . S
C22 O9 1.381 . S
C22 O10 1.421 . S
C23 O15 1.381 . S
C23 O16 1.421 . S
C24 O25 1.381 . S
C24 O26 1.421 . S
O25 Fe3 2.077 1_655 S
O25 C24 1.381 . S
O26 Fe7 1.935 1_654 S
O26 C24 1.421 . S
C27 O11 1.381 . S
C27 O12 1.421 . S
O28 Fe2 2.077 1_655 S
O28 C31 1.381 . S
O29 Fe0 1.935 1_656 S
O29 C31 1.421 . S
C30 O18 1.381 . S
C30 O19 1.421 . S
C31 O28 1.381 . S
C31 O29 1.421 . S
Fe32 O33 1.886 . S
Fe32 O36 1.715 . S
Fe32 O41 2.077 . S
Fe32 O46 1.935 . S
Fe32 O52 2.077 . S
Fe32 O61 1.935 . S
O33 Fe32 1.886 . S
O33 Fe35 1.715 . S
Fe34 O36 1.886 . S
Fe34 O37 1.715 . S
Fe34 O44 1.935 . S
Fe34 O45 2.077 . S
Fe34 O51 1.935 . S
Fe34 O60 2.077 . S
Fe35 O33 1.715 . S
Fe35 O38 1.886 . S
Fe35 O42 1.935 . S
Fe35 O47 2.077 . S
Fe35 O53 1.935 . S
Fe35 O57 2.077 . S
O36 Fe32 1.715 . S
O36 Fe34 1.886 . S
O37 Fe34 1.715 . S
O37 Fe39 1.886 . S
O38 Fe35 1.886 . S
O38 Fe39 1.715 . S
Fe39 O37 1.886 . S
Fe39 O38 1.715 . S
Fe39 O43 2.077 . S
Fe39 O48 1.935 . S
Fe39 O50 2.077 . S
Fe39 O58 1.935 . S
C40 O52 1.381 . S
C40 O53 1.421 . S
O41 Fe32 2.077 . S
O41 C54 1.381 . S
O42 Fe35 1.935 . S
O42 C54 1.421 . S
O43 Fe39 2.077 . S
O43 C59 1.381 . S
O44 Fe34 1.935 . S
O44 C59 1.421 . S
O45 Fe34 2.077 . S
O45 C49 1.381 . S
O46 Fe32 1.935 . S
O46 C49 1.421 . S
O47 Fe35 2.077 . S
O47 C55 1.381 . S
O48 Fe39 1.935 . S
O48 C55 1.421 . S
C49 O45 1.381 . S
C49 O46 1.421 . S
O50 Fe39 2.077 . S
O50 C62 1.381 . S
O51 Fe34 1.935 . S
O51 C62 1.421 . S
O52 Fe32 2.077 . S
O52 C40 1.381 . S
O53 Fe35 1.935 . S
O53 C40 1.421 . S
C54 O41 1.381 . S
C54 O42 1.421 . S
C55 O47 1.381 . S
C55 O48 1.421 . S
C56 O57 1.381 . S
C56 O58 1.421 . S
O57 Fe35 2.077 . S
O57 C56 1.381 . S
O58 Fe39 1.935 . S
O58 C56 1.421 . S
C59 O43 1.381 . S
C59 O44 1.421 . S
O60 Fe34 2.077 . S
O60 C63 1.381 . S
O61 Fe32 1.935 . S
O61 C63 1.421 . S
C62 O50 1.381 . S
C62 O51 1.421 . S
C63 O60 1.381 . S
C63 O61 1.421 . S
C64 C65 1.349 . S
C64 C66 1.327 . S
C64 H89 0.950 . S
C65 C64 1.349 . S
C65 C81 1.349 . S
C66 C64 1.327 . S
C66 C85 1.429 . S
C66 H90 0.950 . S
C67 C84 1.574 . S
C67 C86 1.368 . S
C67 H91 0.949 . S
H68 C72 0.949 . S
C69 C70 1.349 . S
C69 C71 1.327 . S
C69 H92 0.950 . S
C70 C69 1.349 . S
C70 C82 1.349 . S
C71 C69 1.327 . S
C71 C87 1.429 . S
C71 H93 0.950 . S
C72 H68 0.949 . S
C72 C80 1.574 . S
C72 C88 1.368 . S
H73 C81 0.950 . S
H74 C79 0.950 . S
H75 C80 0.949 . S
H76 C82 0.950 . S
H77 C83 0.950 . S
H78 C84 0.949 . S
C79 H74 0.950 . S
C79 C81 1.327 . S
C79 C85 1.429 . S
C80 C72 1.574 . S
C80 H75 0.949 . S
C80 C86 1.368 . S
C81 C65 1.349 . S
C81 H73 0.950 . S
C81 C79 1.327 . S
C82 C70 1.349 . S
C82 H76 0.950 . S
C82 C83 1.327 . S
C83 H77 0.950 . S
C83 C82 1.327 . S
C83 C87 1.429 . S
C84 C67 1.574 . S
C84 H78 0.949 . S
C84 C88 1.368 . S
C85 C66 1.429 . S
C85 C79 1.429 . S
C85 C86 1.523 . S
C86 C67 1.368 . S
C86 C80 1.368 . S
C86 C85 1.523 . S
C87 C71 1.429 . S
C87 C83 1.429 . S
C87 C88 1.523 . S
C88 C72 1.368 . S
C88 C84 1.368 . S
C88 C87 1.523 . S
H89 C64 0.950 . S
H90 C66 0.950 . S
H91 C67 0.949 . S
H92 C69 0.950 . S
H93 C71 0.950 . S
C94 C95 1.349 . S
C94 C96 1.327 . S
C94 H119 0.950 . S
C95 C94 1.349 . S
C95 C111 1.349 . S
C96 C94 1.327 . S
C96 C115 1.429 . S
C96 H120 0.950 . S
C97 C114 1.574 . S
C97 C116 1.368 . S
C97 H121 0.949 . S
H98 C102 0.949 . S
C99 C100 1.349 . S
C99 C101 1.327 . S
C99 H122 0.950 . S
C100 C99 1.349 . S
C100 C112 1.349 . S
C101 C99 1.327 . S
C101 C117 1.429 . S
C101 H123 0.950 . S
C102 H98 0.949 . S
C102 C110 1.574 . S
C102 C118 1.368 . S
H103 C111 0.950 . S
H104 C109 0.950 . S
H105 C110 0.949 . S
H106 C112 0.950 . S
H107 C113 0.950 . S
H108 C114 0.949 . S
C109 H104 0.950 . S
C109 C111 1.327 . S
C109 C115 1.429 . S
C110 C102 1.574 . S
C110 H105 0.949 . S
C110 C116 1.368 . S
C111 C95 1.349 . S
C111 H103 0.950 . S
C111 C109 1.327 . S
C112 C100 1.349 . S
C112 H106 0.950 . S
C112 C113 1.327 . S
C113 H107 0.950 . S
C113 C112 1.327 . S
C113 C117 1.429 . S
C114 C97 1.574 . S
C114 H108 0.949 . S
C114 C118 1.368 . S
C115 C96 1.429 . S
C115 C109 1.429 . S
C115 C116 1.523 . S
C116 C97 1.368 . S
C116 C110 1.368 . S
C116 C115 1.523 . S
C117 C101 1.429 . S
C117 C113 1.429 . S
C117 C118 1.523 . S
C118 C102 1.368 . S
C118 C114 1.368 . S
C118 C117 1.523 . S
H119 C94 0.950 . S
H120 C96 0.950 . S
H121 C97 0.949 . S
H122 C99 0.950 . S
H123 C101 0.950 . S
C124 C125 1.349 . S
C124 C126 1.327 . S
C124 H149 0.950 . S
C125 C124 1.349 . S
C125 C141 1.349 . S
C126 C124 1.327 . S
C126 C145 1.429 . S
C126 H150 0.950 . S
C127 C144 1.574 . S
C127 C146 1.368 . S
C127 H151 0.949 . S
H128 C132 0.949 . S
C129 C130 1.349 . S
C129 C131 1.327 . S
C129 H152 0.950 . S
C130 C129 1.349 . S
C130 C142 1.349 . S
C131 C129 1.327 . S
C131 C147 1.429 . S
C131 H153 0.950 . S
C132 H128 0.949 . S
C132 C140 1.574 . S
C132 C148 1.368 . S
H133 C141 0.950 . S
H134 C139 0.950 . S
H135 C140 0.949 . S
H136 C142 0.950 . S
H137 C143 0.950 . S
H138 C144 0.949 . S
C139 H134 0.950 . S
C139 C141 1.327 . S
C139 C145 1.429 . S
C140 C132 1.574 . S
C140 H135 0.949 . S
C140 C146 1.368 . S
C141 C125 1.349 . S
C141 H133 0.950 . S
C141 C139 1.327 . S
C142 C130 1.349 . S
C142 H136 0.950 . S
C142 C143 1.327 . S
C143 H137 0.950 . S
C143 C142 1.327 . S
C143 C147 1.429 . S
C144 C127 1.574 . S
C144 H138 0.949 . S
C144 C148 1.368 . S
C145 C126 1.429 . S
C145 C139 1.429 . S
C145 C146 1.523 . S
C146 C127 1.368 . S
C146 C140 1.368 . S
C146 C145 1.523 . S
C147 C131 1.429 . S
C147 C143 1.429 . S
C147 C148 1.523 . S
C148 C132 1.368 . S
C148 C144 1.368 . S
C148 C147 1.523 . S
H149 C124 0.950 . S
H150 C126 0.950 . S
H151 C127 0.949 . S
H152 C129 0.950 . S
H153 C131 0.950 . S
C154 C155 1.349 . S
C154 C156 1.327 . S
C154 H179 0.950 . S
C155 C154 1.349 . S
C155 C171 1.349 . S
C156 C154 1.327 . S
C156 C175 1.429 . S
C156 H180 0.950 . S
C157 C174 1.574 . S
C157 C176 1.368 . S
C157 H181 0.949 . S
H158 C162 0.949 . S
C159 C160 1.349 . S
C159 C161 1.327 . S
C159 H182 0.950 . S
C160 C159 1.349 . S
C160 C172 1.349 . S
C161 C159 1.327 . S
C161 C177 1.429 . S
C161 H183 0.950 . S
C162 H158 0.949 . S
C162 C170 1.574 . S
C162 C178 1.368 . S
H163 C171 0.950 . S
H164 C169 0.950 . S
H165 C170 0.949 . S
H166 C172 0.950 . S
H167 C173 0.950 . S
H168 C174 0.949 . S
C169 H164 0.950 . S
C169 C171 1.327 . S
C169 C175 1.429 . S
C170 C162 1.574 . S
C170 H165 0.949 . S
C170 C176 1.368 . S
C171 C155 1.349 . S
C171 H163 0.950 . S
C171 C169 1.327 . S
C172 C160 1.349 . S
C172 H166 0.950 . S
C172 C173 1.327 . S
C173 H167 0.950 . S
C173 C172 1.327 . S
C173 C177 1.429 . S
C174 C157 1.574 . S
C174 H168 0.949 . S
C174 C178 1.368 . S
C175 C156 1.429 . S
C175 C169 1.429 . S
C175 C176 1.523 . S
C176 C157 1.368 . S
C176 C170 1.368 . S
C176 C175 1.523 . S
C177 C161 1.429 . S
C177 C173 1.429 . S
C177 C178 1.523 . S
C178 C162 1.368 . S
C178 C174 1.368 . S
C178 C177 1.523 . S
H179 C154 0.950 . S
H180 C156 0.950 . S
H181 C157 0.949 . S
H182 C159 0.950 . S
H183 C161 0.950 . S
C184 C185 1.349 . S
C184 C186 1.327 . S
C184 H209 0.950 . S
C185 C184 1.349 . S
C185 C201 1.349 . S
C186 C184 1.327 . S
C186 C205 1.429 . S
C186 H210 0.950 . S
C187 C204 1.574 . S
C187 C206 1.368 . S
C187 H211 0.949 . S
H188 C192 0.949 . S
C189 C190 1.349 . S
C189 C191 1.327 . S
C189 H212 0.950 . S
C190 C189 1.349 . S
C190 C202 1.349 . S
C191 C189 1.327 . S
C191 C207 1.429 . S
C191 H213 0.950 . S
C192 H188 0.949 . S
C192 C200 1.574 . S
C192 C208 1.368 . S
H193 C201 0.950 . S
H194 C199 0.950 . S
H195 C200 0.949 . S
H196 C202 0.950 . S
H197 C203 0.950 . S
H198 C204 0.949 . S
C199 H194 0.950 . S
C199 C201 1.327 . S
C199 C205 1.429 . S
C200 C192 1.574 . S
C200 H195 0.949 . S
C200 C206 1.368 . S
C201 C185 1.349 . S
C201 H193 0.950 . S
C201 C199 1.327 . S
C202 C190 1.349 . S
C202 H196 0.950 . S
C202 C203 1.327 . S
C203 H197 0.950 . S
C203 C202 1.327 . S
C203 C207 1.429 . S
C204 C187 1.574 . S
C204 H198 0.949 . S
C204 C208 1.368 . S
C205 C186 1.429 . S
C205 C199 1.429 . S
C205 C206 1.523 . S
C206 C187 1.368 . S
C206 C200 1.368 . S
C206 C205 1.523 . S
C207 C191 1.429 . S
C207 C203 1.429 . S
C207 C208 1.523 . S
C208 C192 1.368 . S
C208 C204 1.368 . S
C208 C207 1.523 . S
H209 C184 0.950 . S
H210 C186 0.950 . S
H211 C187 0.949 . S
H212 C189 0.950 . S
H213 C191 0.950 . S
C214 C215 1.349 . S
C214 C216 1.327 . S
C214 H239 0.950 . S
C215 C214 1.349 . S
C215 C231 1.349 . S
C216 C214 1.327 . S
C216 C235 1.429 . S
C216 H240 0.950 . S
C217 C234 1.574 . S
C217 C236 1.368 . S
C217 H241 0.949 . S
H218 C222 0.949 . S
C219 C220 1.349 . S
C219 C221 1.327 . S
C219 H242 0.950 . S
C220 C219 1.349 . S
C220 C232 1.349 . S
C221 C219 1.327 . S
C221 C237 1.429 . S
C221 H243 0.950 . S
C222 H218 0.949 . S
C222 C230 1.574 . S
C222 C238 1.368 . S
H223 C231 0.950 . S
H224 C229 0.950 . S
H225 C230 0.949 . S
H226 C232 0.950 . S
H227 C233 0.950 . S
H228 C234 0.949 . S
C229 H224 0.950 . S
C229 C231 1.327 . S
C229 C235 1.429 . S
C230 C222 1.574 . S
C230 H225 0.949 . S
C230 C236 1.368 . S
C231 C215 1.349 . S
C231 H223 0.950 . S
C231 C229 1.327 . S
C232 C220 1.349 . S
C232 H226 0.950 . S
C232 C233 1.327 . S
C233 H227 0.950 . S
C233 C232 1.327 . S
C233 C237 1.429 . S
C234 C217 1.574 . S
C234 H228 0.949 . S
C234 C238 1.368 . S
C235 C216 1.429 . S
C235 C229 1.429 . S
C235 C236 1.523 . S
C236 C217 1.368 . S
C236 C230 1.368 . S
C236 C235 1.523 . S
C237 C221 1.429 . S
C237 C233 1.429 . S
C237 C238 1.523 . S
C238 C222 1.368 . S
C238 C234 1.368 . S
C238 C237 1.523 . S
H239 C214 0.950 . S
H240 C216 0.950 . S
H241 C217 0.949 . S
H242 C219 0.950 . S
H243 C221 0.950 . S
C244 C245 1.349 . S
C244 C246 1.327 . S
C244 H269 0.950 . S
C245 C244 1.349 . S
C245 C261 1.349 . S
C246 C244 1.327 . S
C246 C265 1.429 . S
C246 H270 0.950 . S
C247 C264 1.574 . S
C247 C266 1.368 . S
C247 H271 0.949 . S
H248 C252 0.949 . S
C249 C250 1.349 . S
C249 C251 1.327 . S
C249 H272 0.950 . S
C250 C249 1.349 . S
C250 C262 1.349 . S
C251 C249 1.327 . S
C251 C267 1.429 . S
C251 H273 0.950 . S
C252 H248 0.949 . S
C252 C260 1.574 . S
C252 C268 1.368 . S
H253 C261 0.950 . S
H254 C259 0.950 . S
H255 C260 0.949 . S
H256 C262 0.950 . S
H257 C263 0.950 . S
H258 C264 0.949 . S
C259 H254 0.950 . S
C259 C261 1.327 . S
C259 C265 1.429 . S
C260 C252 1.574 . S
C260 H255 0.949 . S
C260 C266 1.368 . S
C261 C245 1.349 . S
C261 H253 0.950 . S
C261 C259 1.327 . S
C262 C250 1.349 . S
C262 H256 0.950 . S
C262 C263 1.327 . S
C263 H257 0.950 . S
C263 C262 1.327 . S
C263 C267 1.429 . S
C264 C247 1.574 . S
C264 H258 0.949 . S
C264 C268 1.368 . S
C265 C246 1.429 . S
C265 C259 1.429 . S
C265 C266 1.523 . S
C266 C247 1.368 . S
C266 C260 1.368 . S
C266 C265 1.523 . S
C267 C251 1.429 . S
C267 C263 1.429 . S
C267 C268 1.523 . S
C268 C252 1.368 . S
C268 C264 1.368 . S
C268 C267 1.523 . S
H269 C244 0.950 . S
H270 C246 0.950 . S
H271 C247 0.949 . S
H272 C249 0.950 . S
H273 C251 0.950 . S
C274 C275 1.349 . S
C274 C276 1.327 . S
C274 H299 0.950 . S
C275 C274 1.349 . S
C275 C291 1.349 . S
C276 C274 1.327 . S
C276 C295 1.429 . S
C276 H300 0.950 . S
C277 C294 1.574 . S
C277 C296 1.368 . S
C277 H301 0.949 . S
H278 C282 0.949 . S
C279 C280 1.349 . S
C279 C281 1.327 . S
C279 H302 0.950 . S
C280 C279 1.349 . S
C280 C292 1.349 . S
C281 C279 1.327 . S
C281 C297 1.429 . S
C281 H303 0.950 . S
C282 H278 0.949 . S
C282 C290 1.574 . S
C282 C298 1.368 . S
H283 C291 0.950 . S
H284 C289 0.950 . S
H285 C290 0.949 . S
H286 C292 0.950 . S
H287 C293 0.950 . S
H288 C294 0.949 . S
C289 H284 0.950 . S
C289 C291 1.327 . S
C289 C295 1.429 . S
C290 C282 1.574 . S
C290 H285 0.949 . S
C290 C296 1.368 . S
C291 C275 1.349 . S
C291 H283 0.950 . S
C291 C289 1.327 . S
C292 C280 1.349 . S
C292 H286 0.950 . S
C292 C293 1.327 . S
C293 H287 0.950 . S
C293 C292 1.327 . S
C293 C297 1.429 . S
C294 C277 1.574 . S
C294 H288 0.949 . S
C294 C298 1.368 . S
C295 C276 1.429 . S
C295 C289 1.429 . S
C295 C296 1.523 . S
C296 C277 1.368 . S
C296 C290 1.368 . S
C296 C295 1.523 . S
C297 C281 1.429 . S
C297 C293 1.429 . S
C297 C298 1.523 . S
C298 C282 1.368 . S
C298 C294 1.368 . S
C298 C297 1.523 . S
H299 C274 0.950 . S
H300 C276 0.950 . S
H301 C277 0.949 . S
H302 C279 0.950 . S
H303 C281 0.950 . S
C65 C23 1.452 . S
C70 C55 1.447 . S
C95 C24 1.452 . S
C100 C59 1.450 . S
C125 C8 1.452 . S
C130 C49 1.452 . S
C155 C22 1.452 . S
C160 C54 1.450 . S
C185 C17 1.452 . S
C190 C40 1.454 . S
C220 C56 1.452 . S
C215 C27 1.450 . S
C245 C30 1.452 . S
C250 C62 1.454 . S
C280 C63 1.451 . S
C275 C31 1.456 . S
