# Generated by pormake.
# Topology tph, (6,8)-cn, num edge types: 1
# Building blocks:
#     Node 0, Type 0, BuildingBlock: IZENUY_clean_sbu_0, # of connection points: 6
#     Node 1, Type 0, BuildingBlock: IZENUY_clean_sbu_0, # of connection points: 6
#     Node 2, Type 0, BuildingBlock: IZENUY_clean_sbu_0, # of connection points: 6
#     Node 3, Type 0, BuildingBlock: IZENUY_clean_sbu_0, # of connection points: 6
#     Node 4, Type 0, BuildingBlock: IZENUY_clean_sbu_0, # of connection points: 6
#     Node 5, Type 0, BuildingBlock: IZENUY_clean_sbu_0, # of connection points: 6
#     Node 6, Type 0, BuildingBlock: IZENUY_clean_sbu_0, # of connection points: 6
#     Node 7, Type 0, BuildingBlock: IZENUY_clean_sbu_0, # of connection points: 6
#     Node 8, Type 0, BuildingBlock: IZENUY_clean_sbu_0, # of connection points: 6
#     Node 9, Type 0, BuildingBlock: IZENUY_clean_sbu_0, # of connection points: 6
#     Node 10, Type 0, BuildingBlock: IZENUY_clean_sbu_0, # of connection points: 6
#     Node 11, Type 0, BuildingBlock: IZENUY_clean_sbu_0, # of connection points: 6
#     Node 12, Type 0, BuildingBlock: IZENUY_clean_sbu_0, # of connection points: 6
#     Node 13, Type 0, BuildingBlock: IZENUY_clean_sbu_0, # of connection points: 6
#     Node 14, Type 0, BuildingBlock: IZENUY_clean_sbu_0, # of connection points: 6
#     Node 15, Type 0, BuildingBlock: IZENUY_clean_sbu_0, # of connection points: 6
#     Node 16, Type 1, BuildingBlock: TAGTUT_clean_sbu_3, # of connection points: 8
#     Node 17, Type 1, BuildingBlock: TAGTUT_clean_sbu_3, # of connection points: 8
#     Node 18, Type 1, BuildingBlock: TAGTUT_clean_sbu_3, # of connection points: 8
#     Node 19, Type 1, BuildingBlock: TAGTUT_clean_sbu_3, # of connection points: 8
#     Node 20, Type 1, BuildingBlock: TAGTUT_clean_sbu_3, # of connection points: 8
#     Node 21, Type 1, BuildingBlock: TAGTUT_clean_sbu_3, # of connection points: 8
#     Node 22, Type 1, BuildingBlock: TAGTUT_clean_sbu_3, # of connection points: 8
#     Node 23, Type 1, BuildingBlock: TAGTUT_clean_sbu_3, # of connection points: 8
#     Node 24, Type 1, BuildingBlock: TAGTUT_clean_sbu_3, # of connection points: 8
#     Node 25, Type 1, BuildingBlock: TAGTUT_clean_sbu_3, # of connection points: 8
#     Node 26, Type 1, BuildingBlock: TAGTUT_clean_sbu_3, # of connection points: 8
#     Node 27, Type 1, BuildingBlock: TAGTUT_clean_sbu_3, # of connection points: 8
#     Edge 28, Type (0, 1), BuildingBlock: OJICUG_clean_linker_0, # of connection points: 2
#     Edge 29, Type (0, 1), BuildingBlock: OJICUG_clean_linker_0, # of connection points: 2
#     Edge 30, Type (0, 1), BuildingBlock: OJICUG_clean_linker_0, # of connection points: 2
#     Edge 31, Type (0, 1), BuildingBlock: OJICUG_clean_linker_0, # of connection points: 2
#     Edge 32, Type (0, 1), BuildingBlock: OJICUG_clean_linker_0, # of connection points: 2
#     Edge 33, Type (0, 1), BuildingBlock: OJICUG_clean_linker_0, # of connection points: 2
#     Edge 34, Type (0, 1), BuildingBlock: OJICUG_clean_linker_0, # of connection points: 2
#     Edge 35, Type (0, 1), BuildingBlock: OJICUG_clean_linker_0, # of connection points: 2
#     Edge 36, Type (0, 1), BuildingBlock: OJICUG_clean_linker_0, # of connection points: 2
#     Edge 37, Type (0, 1), BuildingBlock: OJICUG_clean_linker_0, # of connection points: 2
#     Edge 38, Type (0, 1), BuildingBlock: OJICUG_clean_linker_0, # of connection points: 2
#     Edge 39, Type (0, 1), BuildingBlock: OJICUG_clean_linker_0, # of connection points: 2
#     Edge 40, Type (0, 1), BuildingBlock: OJICUG_clean_linker_0, # of connection points: 2
#     Edge 41, Type (0, 1), BuildingBlock: OJICUG_clean_linker_0, # of connection points: 2
#     Edge 42, Type (0, 1), BuildingBlock: OJICUG_clean_linker_0, # of connection points: 2
#     Edge 43, Type (0, 1), BuildingBlock: OJICUG_clean_linker_0, # of connection points: 2
#     Edge 44, Type (0, 1), BuildingBlock: OJICUG_clean_linker_0, # of connection points: 2
#     Edge 45, Type (0, 1), BuildingBlock: OJICUG_clean_linker_0, # of connection points: 2
#     Edge 46, Type (0, 1), BuildingBlock: OJICUG_clean_linker_0, # of connection points: 2
#     Edge 47, Type (0, 1), BuildingBlock: OJICUG_clean_linker_0, # of connection points: 2
#     Edge 48, Type (0, 1), BuildingBlock: OJICUG_clean_linker_0, # of connection points: 2
#     Edge 49, Type (0, 1), BuildingBlock: OJICUG_clean_linker_0, # of connection points: 2
#     Edge 50, Type (0, 1), BuildingBlock: OJICUG_clean_linker_0, # of connection points: 2
#     Edge 51, Type (0, 1), BuildingBlock: OJICUG_clean_linker_0, # of connection points: 2
#     Edge 52, Type (0, 1), BuildingBlock: OJICUG_clean_linker_0, # of connection points: 2
#     Edge 53, Type (0, 1), BuildingBlock: OJICUG_clean_linker_0, # of connection points: 2
#     Edge 54, Type (0, 1), BuildingBlock: OJICUG_clean_linker_0, # of connection points: 2
#     Edge 55, Type (0, 1), BuildingBlock: OJICUG_clean_linker_0, # of connection points: 2
#     Edge 56, Type (0, 1), BuildingBlock: OJICUG_clean_linker_0, # of connection points: 2
#     Edge 57, Type (0, 1), BuildingBlock: OJICUG_clean_linker_0, # of connection points: 2
#     Edge 58, Type (0, 1), BuildingBlock: OJICUG_clean_linker_0, # of connection points: 2
#     Edge 59, Type (0, 1), BuildingBlock: OJICUG_clean_linker_0, # of connection points: 2
#     Edge 60, Type (0, 1), BuildingBlock: OJICUG_clean_linker_0, # of connection points: 2
#     Edge 61, Type (0, 1), BuildingBlock: OJICUG_clean_linker_0, # of connection points: 2
#     Edge 62, Type (0, 1), BuildingBlock: OJICUG_clean_linker_0, # of connection points: 2
#     Edge 63, Type (0, 1), BuildingBlock: OJICUG_clean_linker_0, # of connection points: 2
#     Edge 64, Type (0, 1), BuildingBlock: OJICUG_clean_linker_0, # of connection points: 2
#     Edge 65, Type (0, 1), BuildingBlock: OJICUG_clean_linker_0, # of connection points: 2
#     Edge 66, Type (0, 1), BuildingBlock: OJICUG_clean_linker_0, # of connection points: 2
#     Edge 67, Type (0, 1), BuildingBlock: OJICUG_clean_linker_0, # of connection points: 2
#     Edge 68, Type (0, 1), BuildingBlock: OJICUG_clean_linker_0, # of connection points: 2
#     Edge 69, Type (0, 1), BuildingBlock: OJICUG_clean_linker_0, # of connection points: 2
#     Edge 70, Type (0, 1), BuildingBlock: OJICUG_clean_linker_0, # of connection points: 2
#     Edge 71, Type (0, 1), BuildingBlock: OJICUG_clean_linker_0, # of connection points: 2
#     Edge 72, Type (0, 1), BuildingBlock: OJICUG_clean_linker_0, # of connection points: 2
#     Edge 73, Type (0, 1), BuildingBlock: OJICUG_clean_linker_0, # of connection points: 2
#     Edge 74, Type (0, 1), BuildingBlock: OJICUG_clean_linker_0, # of connection points: 2
#     Edge 75, Type (0, 1), BuildingBlock: OJICUG_clean_linker_0, # of connection points: 2
#     Edge 76, Type (0, 1), BuildingBlock: OJICUG_clean_linker_0, # of connection points: 2
#     Edge 77, Type (0, 1), BuildingBlock: OJICUG_clean_linker_0, # of connection points: 2
#     Edge 78, Type (0, 1), BuildingBlock: OJICUG_clean_linker_0, # of connection points: 2
#     Edge 79, Type (0, 1), BuildingBlock: OJICUG_clean_linker_0, # of connection points: 2
#     Edge 80, Type (0, 1), BuildingBlock: OJICUG_clean_linker_0, # of connection points: 2
#     Edge 81, Type (0, 1), BuildingBlock: OJICUG_clean_linker_0, # of connection points: 2
#     Edge 82, Type (0, 1), BuildingBlock: OJICUG_clean_linker_0, # of connection points: 2
#     Edge 83, Type (0, 1), BuildingBlock: OJICUG_clean_linker_0, # of connection points: 2
#     Edge 84, Type (0, 1), BuildingBlock: OJICUG_clean_linker_0, # of connection points: 2
#     Edge 85, Type (0, 1), BuildingBlock: OJICUG_clean_linker_0, # of connection points: 2
#     Edge 86, Type (0, 1), BuildingBlock: OJICUG_clean_linker_0, # of connection points: 2
#     Edge 87, Type (0, 1), BuildingBlock: OJICUG_clean_linker_0, # of connection points: 2
#     Edge 88, Type (0, 1), BuildingBlock: OJICUG_clean_linker_0, # of connection points: 2
#     Edge 89, Type (0, 1), BuildingBlock: OJICUG_clean_linker_0, # of connection points: 2
#     Edge 90, Type (0, 1), BuildingBlock: OJICUG_clean_linker_0, # of connection points: 2
#     Edge 91, Type (0, 1), BuildingBlock: OJICUG_clean_linker_0, # of connection points: 2
#     Edge 92, Type (0, 1), BuildingBlock: OJICUG_clean_linker_0, # of connection points: 2
#     Edge 93, Type (0, 1), BuildingBlock: OJICUG_clean_linker_0, # of connection points: 2
#     Edge 94, Type (0, 1), BuildingBlock: OJICUG_clean_linker_0, # of connection points: 2
#     Edge 95, Type (0, 1), BuildingBlock: OJICUG_clean_linker_0, # of connection points: 2
#     Edge 96, Type (0, 1), BuildingBlock: OJICUG_clean_linker_0, # of connection points: 2
#     Edge 97, Type (0, 1), BuildingBlock: OJICUG_clean_linker_0, # of connection points: 2
#     Edge 98, Type (0, 1), BuildingBlock: OJICUG_clean_linker_0, # of connection points: 2
#     Edge 99, Type (0, 1), BuildingBlock: OJICUG_clean_linker_0, # of connection points: 2
#     Edge 100, Type (0, 1), BuildingBlock: OJICUG_clean_linker_0, # of connection points: 2
#     Edge 101, Type (0, 1), BuildingBlock: OJICUG_clean_linker_0, # of connection points: 2
#     Edge 102, Type (0, 1), BuildingBlock: OJICUG_clean_linker_0, # of connection points: 2
#     Edge 103, Type (0, 1), BuildingBlock: OJICUG_clean_linker_0, # of connection points: 2
#     Edge 104, Type (0, 1), BuildingBlock: OJICUG_clean_linker_0, # of connection points: 2
#     Edge 105, Type (0, 1), BuildingBlock: OJICUG_clean_linker_0, # of connection points: 2
#     Edge 106, Type (0, 1), BuildingBlock: OJICUG_clean_linker_0, # of connection points: 2
#     Edge 107, Type (0, 1), BuildingBlock: OJICUG_clean_linker_0, # of connection points: 2
#     Edge 108, Type (0, 1), BuildingBlock: OJICUG_clean_linker_0, # of connection points: 2
#     Edge 109, Type (0, 1), BuildingBlock: OJICUG_clean_linker_0, # of connection points: 2
#     Edge 110, Type (0, 1), BuildingBlock: OJICUG_clean_linker_0, # of connection points: 2
#     Edge 111, Type (0, 1), BuildingBlock: OJICUG_clean_linker_0, # of connection points: 2
#     Edge 112, Type (0, 1), BuildingBlock: OJICUG_clean_linker_0, # of connection points: 2
#     Edge 113, Type (0, 1), BuildingBlock: OJICUG_clean_linker_0, # of connection points: 2
#     Edge 114, Type (0, 1), BuildingBlock: OJICUG_clean_linker_0, # of connection points: 2
#     Edge 115, Type (0, 1), BuildingBlock: OJICUG_clean_linker_0, # of connection points: 2
#     Edge 116, Type (0, 1), BuildingBlock: OJICUG_clean_linker_0, # of connection points: 2
#     Edge 117, Type (0, 1), BuildingBlock: OJICUG_clean_linker_0, # of connection points: 2
#     Edge 118, Type (0, 1), BuildingBlock: OJICUG_clean_linker_0, # of connection points: 2
#     Edge 119, Type (0, 1), BuildingBlock: OJICUG_clean_linker_0, # of connection points: 2
#     Edge 120, Type (0, 1), BuildingBlock: OJICUG_clean_linker_0, # of connection points: 2
#     Edge 121, Type (0, 1), BuildingBlock: OJICUG_clean_linker_0, # of connection points: 2
#     Edge 122, Type (0, 1), BuildingBlock: OJICUG_clean_linker_0, # of connection points: 2
#     Edge 123, Type (0, 1), BuildingBlock: OJICUG_clean_linker_0, # of connection points: 2
# Relax obj value: 0.185
# Max RMSD: 0.260
# Mean RMSD: 0.254
data_MOF--net-tph--node1-IZENUY_clean_sbu_0--node2-TAGTUT_clean_sbu_3--edge1-OJICUG_clean_linker_0
_symmetry_space_group_name_H-M    P1
_symmetry_Int_Tables_number       1
_symmetry_cell_setting            triclinic
loop_
_symmetry_equiv_pos_as_xyz
'x, y, z'
_cell_length_a     35.760457
_cell_length_b     35.911174
_cell_length_c     35.764656
_cell_angle_alpha  89.261372
_cell_angle_beta   89.891308
_cell_angle_gamma 89.085306
loop_
_atom_site_label
_atom_site_type_symbol
_atom_site_fract_x
_atom_site_fract_y
_atom_site_fract_z
_atom_type_partial_charge
Fe0 Fe 0.19808 0.21272 0.15104 0.0
Fe1 Fe 0.14728 0.22236 0.21863 0.0
O2 O 0.18363 0.19776 0.1958 0.0
Fe3 Fe 0.20485 0.15839 0.21723 0.0
O4 O 0.19252 0.12872 0.17881 0.0
O5 O 0.21238 0.16624 0.13453 0.0
O6 O 0.15255 0.20376 0.13273 0.0
C7 C 0.12326 0.21961 0.14434 0.0
C8 C 0.26499 0.19587 0.18051 0.0
O9 O 0.12295 0.23673 0.17509 0.0
C10 C 0.19484 0.19979 0.27896 0.0
O11 O 0.18649 0.26228 0.15892 0.0
O12 O 0.1749 0.26405 0.21917 0.0
O13 O 0.25133 0.16755 0.19697 0.0
O14 O 0.24423 0.22158 0.16763 0.0
C15 C 0.12785 0.15059 0.23116 0.0
O16 O 0.16354 0.21105 0.26636 0.0
O17 O 0.21856 0.18518 0.2574 0.0
C18 C 0.18385 0.28034 0.18908 0.0
O19 O 0.11866 0.18218 0.21838 0.0
O20 O 0.16141 0.14252 0.23996 0.0
C21 C 0.20321 0.13409 0.1457 0.0
Fe22 Fe 0.47915 0.56041 0.10633 0.0
Fe23 Fe 0.46484 0.60716 0.03556 0.0
O24 O 0.44954 0.57365 0.06873 0.0
Fe25 Fe 0.4044 0.5547 0.06619 0.0
O26 O 0.39235 0.57186 0.11168 0.0
O27 O 0.44117 0.54842 0.13981 0.0
O28 O 0.47646 0.60694 0.12376 0.0
C29 C 0.48426 0.63552 0.10472 0.0
C30 C 0.45333 0.49305 0.08816 0.0
O31 O 0.49119 0.63387 0.07003 0.0
C32 C 0.42176 0.55684 0.99215 0.0
O33 O 0.52334 0.57025 0.08104 0.0
O34 O 0.50524 0.57878 0.0232 0.0
O35 O 0.42055 0.50765 0.08421 0.0
O36 O 0.48176 0.51342 0.08983 0.0
C37 C 0.39317 0.63158 0.05035 0.0
O38 O 0.43911 0.58713 0.99606 0.0
O39 O 0.41245 0.53726 0.01993 0.0
C40 C 0.5313 0.57355 0.04653 0.0
O41 O 0.42721 0.63807 0.04647 0.0
O42 O 0.38123 0.59842 0.04888 0.0
C43 C 0.40848 0.56235 0.14125 0.0
Fe44 Fe 0.77946 0.29061 0.13734 0.0
Fe45 Fe 0.84326 0.28489 0.19373 0.0
O46 O 0.8032 0.30806 0.17614 0.0
Fe47 Fe 0.78689 0.34887 0.19762 0.0
O48 O 0.79509 0.37495 0.15612 0.0
O49 O 0.76455 0.3381 0.11886 0.0
O50 O 0.82025 0.29506 0.10858 0.0
C51 C 0.84927 0.27557 0.11385 0.0
C52 C 0.71974 0.31299 0.17714 0.0
O53 O 0.85849 0.26576 0.14713 0.0
C54 C 0.80578 0.31242 0.25975 0.0
O55 O 0.79127 0.24045 0.14898 0.0
O56 O 0.8165 0.24421 0.20473 0.0
O57 O 0.73705 0.34225 0.18552 0.0
O58 O 0.73722 0.28532 0.16429 0.0
C59 C 0.86576 0.35562 0.19922 0.0
O60 O 0.83518 0.30007 0.24329 0.0
O61 O 0.77854 0.32399 0.24051 0.0
C62 C 0.80218 0.22495 0.17957 0.0
O63 O 0.87164 0.32483 0.18363 0.0
O64 O 0.83377 0.36373 0.21257 0.0
C65 C 0.77804 0.37002 0.12612 0.0
Fe66 Fe 0.53662 0.95095 0.11114 0.0
Fe67 Fe 0.56914 0.88872 0.0617 0.0
O68 O 0.57154 0.9339 0.08021 0.0
Fe69 Fe 0.61065 0.962 0.0698 0.0
O70 O 0.62444 0.95948 0.11805 0.0
O71 O 0.5695 0.97722 0.13983 0.0
O72 O 0.54515 0.91433 0.14366 0.0
C73 C 0.55026 0.88031 0.13833 0.0
C74 C 0.55086 0.01535 0.07744 0.0
O75 O 0.55027 0.86717 0.10537 0.0
C76 C 0.59669 0.93577 1.00096 0.0
O77 O 0.498 0.92591 0.08956 0.0
O78 O 0.52318 0.89708 0.04157 0.0
O79 O 0.58534 0.00649 0.07701 0.0
O80 O 0.52686 0.99017 0.08045 0.0
C81 C 0.64408 0.89115 0.07462 0.0
O82 O 0.58937 0.90374 0.01542 0.0
O83 O 0.5985 0.96439 0.02109 0.0
C84 C 0.49478 0.90768 0.05969 0.0
O85 O 0.61372 0.8757 0.08119 0.0
O86 O 0.64431 0.92368 0.06102 0.0
C87 C 0.60365 0.96896 0.14485 0.0
Fe88 Fe 0.19507 0.84721 0.27616 0.0
Fe89 Fe 0.19044 0.79508 0.3439 0.0
O90 O 0.17406 0.80964 0.29964 0.0
Fe91 Fe 0.13627 0.78655 0.27929 0.0
O92 O 0.1086 0.82804 0.27919 0.0
O93 O 0.15037 0.86436 0.25316 0.0
O94 O 0.18402 0.8785 0.31383 0.0
C95 C 0.19675 0.87356 0.34629 0.0
C96 C 0.18292 0.80404 0.21673 0.0
O97 O 0.20648 0.84135 0.35776 0.0
C98 C 0.16978 0.72718 0.30961 0.0
O99 O 0.24299 0.8364 0.29559 0.0
O100 O 0.23565 0.7829 0.32526 0.0
O101 O 0.15152 0.79505 0.23041 0.0
O102 O 0.20738 0.81802 0.23721 0.0
C103 C 0.11602 0.79219 0.35514 0.0
O104 O 0.17697 0.746 0.33844 0.0
O105 O 0.16232 0.74345 0.27913 0.0
C106 C 0.25692 0.80729 0.31181 0.0
O107 O 0.14614 0.80714 0.36436 0.0
O108 O 0.11327 0.77532 0.32435 0.0
C109 C 0.11627 0.85658 0.26044 0.0
Fe110 Fe 0.1144 0.52852 0.95882 0.0
Fe111 Fe 0.0627 0.55066 0.89351 0.0
O112 O 0.0852 0.56176 0.9355 0.0
Fe113 Fe 0.08045 0.60709 0.95384 0.0
O114 O 0.12937 0.61423 0.94639 0.0
O115 O 0.14689 0.56373 0.97708 0.0
O116 O 0.14503 0.5262 0.92001 0.0
C117 C 0.13693 0.52266 0.8862 0.0
C118 C 0.08391 0.55924 0.01962 0.0
O119 O 0.103 0.52291 0.87521 0.0
C120 C 0.00847 0.59395 0.93558 0.0
O121 O 0.08907 0.48719 0.94254 0.0
O122 O 0.0399 0.51114 0.91435 0.0
O123 O 0.0877 0.59106 0.0036 0.0
O124 O 0.08499 0.53017 1.00009 0.0
C125 C 0.08128 0.6217 0.87523 0.0
O126 O 0.01956 0.57835 0.90537 0.0
O127 O 0.03123 0.60176 0.96108 0.0
C128 C 0.05752 0.4833 0.92705 0.0
O129 O 0.08414 0.58787 0.86859 0.0
O130 O 0.07246 0.63206 0.90799 0.0
C131 C 0.15472 0.59445 0.96116 0.0
Fe132 Fe 0.79475 0.6424 0.30287 0.0
Fe133 Fe 0.85191 0.70387 0.30606 0.0
O134 O 0.81081 0.68344 0.32299 0.0
Fe135 Fe 0.786 0.70337 0.36053 0.0
O136 O 0.74474 0.7103 0.33199 0.0
O137 O 0.74366 0.65242 0.3136 0.0
O138 O 0.78787 0.66528 0.25849 0.0
C139 C 0.81566 0.67569 0.23968 0.0
C140 C 0.78056 0.62427 0.37331 0.0
O141 O 0.84457 0.68788 0.25654 0.0
C142 C 0.85538 0.71515 0.38619 0.0
O143 O 0.84256 0.62453 0.28894 0.0
O144 O 0.87938 0.66295 0.31773 0.0
O145 O 0.76864 0.65742 0.37951 0.0
O146 O 0.80191 0.61845 0.3462 0.0
C147 C 0.81314 0.76655 0.318 0.0
O148 O 0.86617 0.72325 0.35289 0.0
O149 O 0.82564 0.69744 0.39093 0.0
C150 C 0.87502 0.63284 0.30084 0.0
O151 O 0.82662 0.74559 0.29343 0.0
O152 O 0.79962 0.75241 0.34806 0.0
C153 C 0.72629 0.68282 0.32142 0.0
Fe154 Fe 0.89468 0.95963 0.95362 0.0
Fe155 Fe 0.95558 0.93564 0.89786 0.0
O156 O 0.93398 0.93169 0.94221 0.0
Fe157 Fe 0.9515 0.89813 0.97487 0.0
O158 O 0.90943 0.87282 0.97266 0.0
O159 O 0.87052 0.92085 0.97868 0.0
O160 O 0.869 0.94421 0.91465 0.0
C161 C 0.87808 0.94257 0.88106 0.0
C162 C 0.92434 0.95627 0.02239 0.0
O163 O 0.91186 0.94774 0.87127 0.0
C164 C 0.01697 0.9224 0.94971 0.0
O165 O 0.91226 0.00191 0.92849 0.0
O166 O 0.96666 0.98369 0.90495 0.0
O167 O 0.93496 0.9229 0.01708 0.0
O168 O 0.91683 0.97701 0.99489 0.0
C169 C 0.95581 0.86073 0.90699 0.0
O170 O 0.00351 0.92307 0.91648 0.0
O171 O 0.99509 0.92225 0.97743 0.0
C172 C 0.9437 0.00932 0.91323 0.0
O173 O 0.94472 0.88821 0.88795 0.0
O174 O 0.9696 0.86542 0.93914 0.0
C175 C 0.87696 0.88585 0.97622 0.0
Fe176 Fe 0.39335 0.45648 0.45025 0.0
Fe177 Fe 0.45874 0.43662 0.39823 0.0
O178 O 0.43523 0.43133 0.44157 0.0
Fe179 Fe 0.45357 0.39943 0.47521 0.0
O180 O 0.413 0.37204 0.47344 0.0
O181 O 0.37018 0.41694 0.47524 0.0
O182 O 0.37139 0.43795 0.40992 0.0
C183 C 0.38275 0.4388 0.37695 0.0
C184 C 0.42118 0.45705 0.52052 0.0
O185 O 0.41616 0.44809 0.36989 0.0
C186 C 0.51884 0.42516 0.45128 0.0
O187 O 0.41 0.49964 0.42521 0.0
O188 O 0.46747 0.48476 0.407 0.0
O189 O 0.43539 0.42477 0.5163 0.0
O190 O 0.41121 0.47626 0.49257 0.0
C191 C 0.46064 0.36176 0.40734 0.0
O192 O 0.50624 0.42512 0.41788 0.0
O193 O 0.49614 0.42534 0.47822 0.0
C194 C 0.44232 0.50902 0.41293 0.0
O195 O 0.4501 0.38897 0.38748 0.0
O196 O 0.47313 0.36673 0.44008 0.0
C197 C 0.37959 0.38249 0.4766 0.0
Fe198 Fe 0.27902 0.79042 0.63711 0.0
Fe199 Fe 0.28645 0.84881 0.69724 0.0
O200 O 0.30278 0.80799 0.67583 0.0
Fe201 Fe 0.34285 0.7849 0.69347 0.0
O202 O 0.31611 0.74424 0.70457 0.0
O203 O 0.29091 0.74029 0.64884 0.0
O204 O 0.23679 0.78516 0.66411 0.0
C205 C 0.21935 0.81283 0.677 0.0
C206 C 0.34883 0.7754 0.61363 0.0
O207 O 0.23665 0.84214 0.6852 0.0
C208 C 0.36527 0.85564 0.69878 0.0
O209 O 0.26405 0.83787 0.61853 0.0
O210 O 0.2946 0.87483 0.6557 0.0
O211 O 0.35807 0.76568 0.64692 0.0
O212 O 0.31978 0.79484 0.6083 0.0
C213 C 0.30537 0.81247 0.7594 0.0
O214 O 0.33329 0.86374 0.71214 0.0
O215 O 0.37119 0.82482 0.68326 0.0
C216 C 0.27756 0.86982 0.6257 0.0
O217 O 0.27813 0.82399 0.74016 0.0
O218 O 0.3348 0.80017 0.74297 0.0
C219 C 0.30189 0.72487 0.67945 0.0
Fe220 Fe 0.07071 0.38905 0.56194 0.0
Fe221 Fe 0.11131 0.46289 0.56946 0.0
O222 O 0.07272 0.43428 0.58039 0.0
Fe223 Fe 0.03798 0.45085 0.61176 0.0
O224 O 0.04744 0.41429 0.64415 0.0
O225 O 0.05243 0.36729 0.6057 0.0
O226 O 0.11569 0.37665 0.58101 0.0
C227 C 0.14574 0.3925 0.57386 0.0
C228 C 0.99612 0.4072 0.56063 0.0
O229 O 0.14531 0.42502 0.56026 0.0
C230 C 0.05096 0.51543 0.57779 0.0
O231 O 0.09036 0.40423 0.51552 0.0
O232 O 0.09847 0.46505 0.52092 0.0
O233 O 0.99944 0.42532 0.59056 0.0
O234 O 0.02446 0.39689 0.54224 0.0
C235 C 0.10519 0.46979 0.64458 0.0
O236 O 0.08552 0.50702 0.57696 0.0
O237 O 0.02729 0.48999 0.58125 0.0
C238 C 0.09705 0.43632 0.50092 0.0
O239 O 0.12576 0.46059 0.61751 0.0
O240 O 0.07086 0.47755 0.64005 0.0
C241 C 0.0528 0.38034 0.63867 0.0
Fe242 Fe 0.9778 0.05926 0.60656 0.0
Fe243 Fe 0.96411 0.10608 0.53568 0.0
O244 O 0.94837 0.07284 0.56891 0.0
Fe245 Fe 0.90296 0.05451 0.56634 0.0
O246 O 0.89107 0.07193 0.61177 0.0
O247 O 0.93959 0.04795 0.64007 0.0
O248 O 0.97583 0.10587 0.62387 0.0
C249 C 0.98413 0.13428 0.60479 0.0
C250 C 0.95091 0.9923 0.58847 0.0
O251 O 0.99084 0.13252 0.57007 0.0
C252 C 0.92041 0.05623 0.49235 0.0
O253 O 0.02216 0.06846 0.58124 0.0
O254 O 0.00412 0.07711 0.52342 0.0
O255 O 0.91839 0.0074 0.58454 0.0
O256 O 0.97972 0.01216 0.59023 0.0
C257 C 0.89277 0.13141 0.55035 0.0
O258 O 0.93811 0.08632 0.49623 0.0
O259 O 0.91087 0.03681 0.52015 0.0
C260 C 0.03017 0.07184 0.54674 0.0
O261 O 0.9269 0.13749 0.54654 0.0
O262 O 0.88043 0.09842 0.54883 0.0
C263 C 0.90703 0.06226 0.64139 0.0
Fe264 Fe 0.69837 0.713 0.65152 0.0
Fe265 Fe 0.70553 0.65891 0.71783 0.0
O266 O 0.68402 0.69807 0.69631 0.0
Fe267 Fe 0.6475 0.72245 0.71909 0.0
O268 O 0.67475 0.76439 0.71949 0.0
O269 O 0.68643 0.76252 0.65926 0.0
O270 O 0.74446 0.72221 0.66811 0.0
C271 C 0.76537 0.69657 0.68086 0.0
C272 C 0.62351 0.71932 0.64473 0.0
O273 O 0.75186 0.66824 0.69742 0.0
C274 C 0.62868 0.65054 0.73176 0.0
O275 O 0.71297 0.66653 0.63514 0.0
O276 O 0.6933 0.62904 0.67954 0.0
O277 O 0.62301 0.73648 0.67548 0.0
O278 O 0.65294 0.70367 0.63321 0.0
C279 C 0.69542 0.70049 0.77941 0.0
O280 O 0.66226 0.64283 0.74073 0.0
O281 O 0.61923 0.68204 0.71895 0.0
C282 C 0.70399 0.63436 0.64642 0.0
O283 O 0.71917 0.68595 0.75783 0.0
O284 O 0.66396 0.71141 0.76687 0.0
C285 C 0.68362 0.78065 0.68935 0.0
Fe286 Fe 0.69524 0.34712 0.77645 0.0
Fe287 Fe 0.69045 0.29493 0.84414 0.0
O288 O 0.67415 0.30958 0.79987 0.0
Fe289 Fe 0.63638 0.28657 0.77941 0.0
O290 O 0.60873 0.32807 0.77929 0.0
O291 O 0.6506 0.36434 0.75336 0.0
O292 O 0.68419 0.3784 0.81413 0.0
C293 C 0.69694 0.37344 0.84658 0.0
C294 C 0.6832 0.30391 0.71704 0.0
O295 O 0.70655 0.34118 0.85806 0.0
C296 C 0.66958 0.22711 0.80973 0.0
O297 O 0.74309 0.33623 0.79592 0.0
O298 O 0.73571 0.28272 0.82557 0.0
O299 O 0.65172 0.29507 0.73059 0.0
O300 O 0.7076 0.3179 0.73757 0.0
C301 C 0.61601 0.29212 0.85521 0.0
O302 O 0.67686 0.24585 0.8386 0.0
O303 O 0.66245 0.2435 0.77925 0.0
C304 C 0.75699 0.30709 0.81207 0.0
O305 O 0.64612 0.30703 0.86452 0.0
O306 O 0.61328 0.27532 0.8244 0.0
C307 C 0.61647 0.35659 0.76053 0.0
Fe308 Fe 0.61291 0.02927 0.45913 0.0
Fe309 Fe 0.56127 0.05104 0.39364 0.0
O310 O 0.58366 0.06235 0.43564 0.0
Fe311 Fe 0.57875 0.10772 0.45387 0.0
O312 O 0.62768 0.115 0.44659 0.0
O313 O 0.64524 0.06462 0.47744 0.0
O314 O 0.64365 0.02703 0.42041 0.0
C315 C 0.63568 0.02339 0.38658 0.0
C316 C 0.58215 0.06 0.51975 0.0
O317 O 0.60177 0.02344 0.37549 0.0
C318 C 0.50682 0.09439 0.43543 0.0
O319 O 0.58783 0.98779 0.44286 0.0
O320 O 0.53861 0.01141 0.4145 0.0
O321 O 0.58587 0.0918 0.50367 0.0
O322 O 0.58335 0.03089 0.50028 0.0
C323 C 0.57991 0.12213 0.37528 0.0
O324 O 0.51799 0.0786 0.40535 0.0
O325 O 0.52951 0.10233 0.46095 0.0
C326 C 0.55636 0.98368 0.42728 0.0
O327 O 0.58257 0.08828 0.36864 0.0
O328 O 0.57093 0.13257 0.40797 0.0
C329 C 0.65303 0.09535 0.46151 0.0
Fe330 Fe 0.29464 0.14283 0.80226 0.0
Fe331 Fe 0.35196 0.20418 0.8057 0.0
O332 O 0.31081 0.18377 0.82254 0.0
Fe333 Fe 0.28603 0.20368 0.86011 0.0
O334 O 0.24488 0.21079 0.83149 0.0
O335 O 0.2436 0.15297 0.81295 0.0
O336 O 0.28792 0.16583 0.75789 0.0
C337 C 0.31572 0.17637 0.73915 0.0
C338 C 0.28024 0.1245 0.87266 0.0
O339 O 0.34464 0.18842 0.7561 0.0
C340 C 0.3554 0.21517 0.8859 0.0
O341 O 0.3424 0.12491 0.78835 0.0
O342 O 0.37928 0.16317 0.81729 0.0
O343 O 0.26848 0.1577 0.87895 0.0
O344 O 0.30161 0.11867 0.84555 0.0
C345 C 0.31337 0.26692 0.81776 0.0
O346 O 0.36623 0.22336 0.85263 0.0
O347 O 0.32559 0.19755 0.89057 0.0
C348 C 0.37486 0.13312 0.80032 0.0
O349 O 0.32678 0.24597 0.79317 0.0
O350 O 0.29981 0.25274 0.84779 0.0
C351 C 0.22634 0.18339 0.82088 0.0
C352 C 0.07538 0.20358 0.88072 0.0
C353 C 0.028 0.23504 0.0187 0.0
C354 C 0.92272 0.22918 0.97867 0.0
Mg355 Mg 0.03481 0.21276 0.8058 0.0
Mg356 Mg 0.98123 0.28403 0.78833 0.0
O357 O 0.98626 0.2408 0.81712 0.0
Mg358 Mg 0.99397 0.2483 0.8724 0.0
O359 O 0.00661 0.24897 0.92717 0.0
Mg360 Mg 0.00419 0.19403 0.94048 0.0
Mg361 Mg 0.98105 0.28005 0.95952 0.0
C362 C 0.91472 0.29289 0.84557 0.0
O363 O 0.01132 0.31208 0.87215 0.0
O364 O 0.01226 0.20476 0.74784 0.0
O365 O 0.99177 0.33043 0.92959 0.0
O366 O 0.06343 0.26269 0.77689 0.0
O367 O 0.97998 0.25785 0.73412 0.0
O368 O 0.032 0.31294 0.79377 0.0
O369 O 0.97732 0.18693 0.88214 0.0
O370 O 0.00486 0.16144 0.83253 0.0
C371 C 0.98494 0.15836 0.86234 0.0
C372 C 0.99434 0.22629 0.72503 0.0
O373 O 0.93067 0.27144 0.87068 0.0
O374 O 0.03014 0.20767 0.99611 0.0
O375 O 0.93147 0.30357 0.81564 0.0
O376 O 0.94742 0.20312 0.97477 0.0
O377 O 0.01047 0.26553 0.01073 0.0
O378 O 0.92622 0.26012 0.96161 0.0
O379 O 0.05396 0.22701 0.86399 0.0
O380 O 0.06384 0.18667 0.9104 0.0
C381 C 0.05859 0.2979 0.77554 0.0
C382 C 0.00563 0.33731 0.89725 0.0
C383 C 0.57481 0.70294 0.38036 0.0
C384 C 0.52822 0.73426 0.51883 0.0
C385 C 0.42262 0.72885 0.47886 0.0
Mg386 Mg 0.5336 0.71265 0.30556 0.0
Mg387 Mg 0.48063 0.7845 0.289 0.0
O388 O 0.4853 0.74094 0.31737 0.0
Mg389 Mg 0.49347 0.74812 0.37264 0.0
O390 O 0.5065 0.74853 0.42734 0.0
Mg391 Mg 0.50386 0.69355 0.44051 0.0
Mg392 Mg 0.48117 0.77957 0.4599 0.0
C393 C 0.41438 0.79337 0.34641 0.0
O394 O 0.51104 0.81195 0.37257 0.0
O395 O 0.5105 0.7052 0.2477 0.0
O396 O 0.49191 0.83008 0.43022 0.0
O397 O 0.5624 0.76259 0.27654 0.0
O398 O 0.479 0.75889 0.23451 0.0
O399 O 0.53171 0.8127 0.29485 0.0
O400 O 0.47643 0.68676 0.38232 0.0
O401 O 0.50322 0.66139 0.33227 0.0
C402 C 0.48346 0.65827 0.3622 0.0
C403 C 0.49282 0.7272 0.22513 0.0
O404 O 0.43026 0.77161 0.37129 0.0
O405 O 0.53022 0.70692 0.49616 0.0
O406 O 0.43117 0.80429 0.31659 0.0
O407 O 0.44725 0.70274 0.47496 0.0
O408 O 0.51067 0.76477 0.51097 0.0
O409 O 0.42626 0.75985 0.46193 0.0
O410 O 0.5534 0.72647 0.36372 0.0
O411 O 0.56332 0.68608 0.41009 0.0
C412 C 0.55772 0.79784 0.27568 0.0
C413 C 0.50557 0.83709 0.39782 0.0
C414 C 0.97665 0.841 0.64347 0.0
C415 C 0.97767 0.77523 0.7811 0.0
C416 C 0.05397 0.70471 0.74065 0.0
Mg417 Mg 0.99938 0.80716 0.56473 0.0
Mg418 Mg 0.98486 0.72134 0.54448 0.0
O419 O 0.00742 0.75274 0.57789 0.0
Mg420 Mg 0.99267 0.7521 0.63247 0.0
O421 O 0.98168 0.75772 0.68797 0.0
Mg422 Mg 0.02601 0.78807 0.70303 0.0
Mg423 Mg 0.97528 0.71579 0.71823 0.0
C424 C 0.00865 0.66442 0.60814 0.0
O425 O 0.93464 0.72669 0.62852 0.0
O426 O 0.02823 0.79612 0.50978 0.0
O427 O 0.93308 0.69309 0.68278 0.0
O428 O 0.94456 0.79502 0.52745 0.0
O429 O 0.01404 0.73768 0.49379 0.0
O430 O 0.92833 0.73728 0.5411 0.0
O431 O 0.04859 0.77541 0.64432 0.0
O432 O 0.05658 0.81548 0.59697 0.0
C433 C 0.06831 0.79932 0.6272 0.0
C434 C 0.02909 0.76917 0.48667 0.0
O435 O 0.01318 0.68923 0.63363 0.0
O436 O 0.99868 0.79533 0.76014 0.0
O437 O 0.99663 0.67177 0.57515 0.0
O438 O 0.05703 0.73966 0.73475 0.0
O439 O 0.96387 0.74431 0.77056 0.0
O440 O 0.02701 0.68682 0.72678 0.0
O441 O 0.9713 0.81266 0.62284 0.0
O442 O 0.99437 0.83755 0.67455 0.0
C443 C 0.92268 0.76731 0.52291 0.0
C444 C 0.91918 0.7031 0.65099 0.0
C445 C 0.85783 0.99155 0.16587 0.0
C446 C 0.7204 0.9938 0.23742 0.0
C447 C 0.76901 0.05864 0.30457 0.0
Mg448 Mg 0.93372 0.01525 0.20131 0.0
Mg449 Mg 0.95668 0.9933 0.28776 0.0
O450 O 0.92093 0.01467 0.25641 0.0
Mg451 Mg 0.86705 -0.00012 0.25573 0.0
O452 O 0.81216 0.98887 0.24807 0.0
Mg453 Mg 0.79723 0.03743 0.2201 0.0
Mg454 Mg 0.78727 0.98635 0.29379 0.0
C455 C 0.89166 0.0099 0.34488 0.0
O456 O 0.86985 0.93753 0.27895 0.0
O457 O 0.98611 0.04611 0.21651 0.0
O458 O 0.81778 0.93915 0.31512 0.0
O459 O 0.97192 0.96169 0.207 0.0
O460 O 0.00149 0.03105 0.27591 0.0
O461 O 0.97248 0.94105 0.26607 0.0
O462 O 0.85402 0.05931 0.23457 0.0
O463 O 0.89955 0.07124 0.1944 0.0
C464 C 0.86908 0.08095 0.21067 0.0
C465 C 0.00738 0.04866 0.24514 0.0
O466 O 0.86667 0.01574 0.31933 0.0
O467 O 0.74097 0.01113 0.21362 0.0
O468 O 0.92494 0.99801 0.3382 0.0
O469 O 0.76597 0.06566 0.26979 0.0
O470 O 0.73183 0.98233 0.26962 0.0
O471 O 0.79716 0.03972 0.31504 0.0
O472 O 0.87744 0.98489 0.19495 0.0
O473 O 0.82638 0.00935 0.16803 0.0
C474 C 0.98262 0.93815 0.23212 0.0
C475 C 0.84701 0.92226 0.30274 0.0
C476 C 0.20888 0.86798 0.07206 0.0
C477 C 0.23784 0.0057 0.05646 0.0
C478 C 0.23866 0.98976 0.94203 0.0
Mg479 Mg 0.21936 0.79782 0.02613 0.0
Mg480 Mg 0.29219 0.78582 0.97527 0.0
O481 O 0.24833 0.81394 0.97993 0.0
Mg482 Mg 0.25548 0.8682 0.99307 0.0
O483 O 0.25469 0.92132 0.0111 0.0
Mg484 Mg 0.19969 0.9353 0.01005 0.0
Mg485 Mg 0.28832 0.95895 0.00316 0.0
C486 C 0.30219 0.84898 0.91465 0.0
O487 O 0.31923 0.86489 0.01204 0.0
O488 O 0.2121 0.7418 0.99873 0.0
O489 O 0.33797 0.92509 0.00898 0.0
O490 O 0.26909 0.7659 0.05435 0.0
O491 O 0.26701 0.73153 0.96889 0.0
O492 O 0.32047 0.78572 0.02714 0.0
O493 O 0.1943 0.88079 0.97556 0.0
O494 O 0.16837 0.82845 0.99684 0.0
C495 C 0.16562 0.86036 0.9801 0.0
C496 C 0.23506 0.72069 0.98082 0.0
O497 O 0.27967 0.87225 0.93134 0.0
O498 O 0.21018 0.98575 0.04694 0.0
O499 O 0.31356 0.81822 0.9297 0.0
O500 O 0.21016 0.97646 0.95926 0.0
O501 O 0.27109 -0.00028 0.04426 0.0
O502 O 0.27218 0.98133 0.95113 0.0
O503 O 0.23327 0.8537 0.05049 0.0
O504 O 0.19162 0.89826 0.06311 0.0
C505 C 0.30465 0.76536 0.05153 0.0
C506 C 0.34463 0.89016 0.01367 0.0
C507 C 0.13389 0.43054 0.20434 0.0
C508 C 0.99487 0.43821 0.24078 0.0
C509 C 0.00939 0.55172 0.25994 0.0
Mg510 Mg 0.20451 0.48043 0.21381 0.0
Mg511 Mg 0.21886 0.52683 0.28946 0.0
O512 O 0.18604 0.51907 0.25024 0.0
Mg513 Mg 0.13262 0.50133 0.25893 0.0
O514 O 0.08004 0.4812 0.25891 0.0
Mg515 Mg 0.06307 0.49139 0.20622 0.0
Mg516 Mg 0.04333 0.48218 0.29524 0.0
C517 C 0.14635 0.57391 0.31181 0.0
O518 O 0.13923 0.47389 0.32075 0.0
O519 O 0.25771 0.5141 0.20426 0.0
O520 O 0.07911 0.46766 0.34061 0.0
O521 O 0.24295 0.44962 0.25788 0.0
O522 O 0.26792 0.54519 0.25755 0.0
O523 O 0.23403 0.47452 0.31373 0.0
O524 O 0.11666 0.52656 0.20068 0.0
O525 O 0.16898 0.51335 0.16894 0.0
C526 C 0.13579 0.52748 0.17029 0.0
C527 C 0.27769 0.5353 0.2245 0.0
O528 O 0.1239 0.5567 0.28989 0.0
O529 O 0.01346 0.45293 0.21403 0.0
O530 O 0.18032 0.56331 0.31809 0.0
O531 O 0.02147 0.54049 0.22781 0.0
O532 O 0.00227 0.44416 0.27512 0.0
O533 O 0.01915 0.53571 0.29045 0.0
O534 O 0.15 0.44999 0.22881 0.0
O535 O 0.10168 0.44009 0.19106 0.0
C536 C 0.25008 0.45069 0.29289 0.0
C537 C 0.11444 0.46463 0.34574 0.0
C538 C 0.67709 0.63785 0.02007 0.0
C539 C 0.73937 0.77181 0.04383 0.0
C540 C 0.80966 0.74599 0.9623 0.0
Mg541 Mg 0.71094 0.5672 0.98409 0.0
Mg542 Mg 0.79911 0.54074 0.9797 0.0
O543 O 0.76546 0.57988 0.98091 0.0
Mg544 Mg 0.76721 0.63104 0.00403 0.0
O545 O 0.75977 0.68302 0.0235 0.0
Mg546 Mg 0.72747 0.70539 0.98206 0.0
Mg547 Mg 0.80185 0.71101 0.03323 0.0
C548 C 0.85409 0.60905 0.9708 0.0
O549 O 0.79278 0.6205 0.06529 0.0
O550 O 0.71805 0.5197 0.9429 0.0
O551 O 0.82793 0.67215 0.0709 0.0
O552 O 0.72487 0.52238 0.03156 0.0
O553 O 0.7788 0.50506 0.93662 0.0
O554 O 0.78728 0.51317 0.03023 0.0
O555 O 0.74279 0.65288 0.94872 0.0
O556 O 0.70193 0.60903 0.93443 0.0
C557 C 0.71838 0.63971 0.92684 0.0
C558 C 0.74447 0.50046 0.92827 0.0
O559 O 0.83036 0.63464 0.98132 0.0
O560 O 0.71827 0.75497 0.02068 0.0
O561 O 0.8469 0.57422 0.97062 0.0
O562 O 0.77448 0.74293 0.95775 0.0
O563 O 0.77241 0.7605 0.05257 0.0
O564 O 0.82738 0.72137 0.98115 0.0
O565 O 0.70693 0.618 0.02271 0.0
O566 O 0.67811 0.67123 0.00695 0.0
C567 C 0.75503 0.50632 0.04373 0.0
C568 C 0.81585 0.64111 0.08373 0.0
C569 C 0.17535 0.13778 0.52049 0.0
C570 C 0.23962 0.27324 0.54023 0.0
C571 C 0.30626 0.24403 0.45879 0.0
Mg572 Mg 0.20943 0.06713 0.48439 0.0
Mg573 Mg 0.29773 0.04129 0.47956 0.0
O574 O 0.26385 0.08023 0.48108 0.0
Mg575 Mg 0.26541 0.13158 0.50381 0.0
O576 O 0.2578 0.18381 0.52313 0.0
Mg577 Mg 0.22492 0.20548 0.48139 0.0
Mg578 Mg 0.30109 0.21115 0.52925 0.0
C579 C 0.35236 0.10974 0.47024 0.0
O580 O 0.29169 0.12189 0.56473 0.0
O581 O 0.21671 0.01958 0.44326 0.0
O582 O 0.32717 0.17349 0.56841 0.0
O583 O 0.22388 0.02243 0.5319 0.0
O584 O 0.27754 0.00562 0.43649 0.0
O585 O 0.28631 0.01346 0.53002 0.0
O586 O 0.24045 0.15276 0.44864 0.0
O587 O 0.19995 0.1086 0.43448 0.0
C588 C 0.21623 0.13934 0.42676 0.0
C589 C 0.24321 0.00066 0.4284 0.0
O590 O 0.32851 0.13525 0.48067 0.0
O591 O 0.21679 0.25548 0.51951 0.0
O592 O 0.34537 0.07487 0.47027 0.0
O593 O 0.27084 0.24329 0.45556 0.0
O594 O 0.27334 0.26235 0.54677 0.0
O595 O 0.32277 0.2167 0.47472 0.0
O596 O 0.20533 0.11812 0.52291 0.0
O597 O 0.17608 0.17117 0.50733 0.0
C598 C 0.2542 0.00644 0.54377 0.0
C599 C 0.31499 0.14293 0.58236 0.0
C600 C 0.37002 0.58141 0.71059 0.0
C601 C 0.50854 0.54816 0.74448 0.0
C602 C 0.48293 0.43798 0.73133 0.0
Mg603 Mg 0.29807 0.53837 0.7206 0.0
Mg604 Mg 0.28839 0.48694 0.79416 0.0
O605 O 0.31295 0.4896 0.74824 0.0
Mg606 Mg 0.36794 0.50028 0.7555 0.0
O607 O 0.42186 0.51482 0.75596 0.0
Mg608 Mg 0.43442 0.5155 0.70081 0.0
Mg609 Mg 0.45755 0.49307 0.78712 0.0
C610 C 0.34785 0.42258 0.80251 0.0
O611 O 0.36801 0.51601 0.81918 0.0
O612 O 0.24163 0.51231 0.71448 0.0
O613 O 0.42625 0.49793 0.8378 0.0
O614 O 0.2674 0.56673 0.77058 0.0
O615 O 0.23285 0.48295 0.77026 0.0
O616 O 0.2986 0.54023 0.81547 0.0
O617 O 0.37791 0.48553 0.6944 0.0
O618 O 0.32659 0.51034 0.66824 0.0
C619 C 0.35798 0.49253 0.66557 0.0
C620 C 0.22124 0.49471 0.73822 0.0
O621 O 0.37056 0.43778 0.77854 0.0
O622 O 0.48707 0.54596 0.71595 0.0
O623 O 0.31885 0.43961 0.81521 0.0
O624 O 0.47244 0.46173 0.70632 0.0
O625 O 0.50265 0.53042 0.77517 0.0
O626 O 0.47264 0.44072 0.76525 0.0
O627 O 0.35515 0.55978 0.73462 0.0
O628 O 0.40038 0.57169 0.69411 0.0
C629 C 0.27038 0.55919 0.80526 0.0
C630 C 0.39308 0.51005 0.84464 0.0
C631 C 0.71015 0.36838 0.57304 0.0
C632 C 0.73932 0.50589 0.55753 0.0
C633 C 0.73981 0.48968 0.44306 0.0
Mg634 Mg 0.71995 0.29827 0.52728 0.0
Mg635 Mg 0.79242 0.28566 0.476 0.0
O636 O 0.74885 0.31413 0.48088 0.0
Mg637 Mg 0.75654 0.36833 0.49395 0.0
O638 O 0.75602 0.42147 0.51201 0.0
Mg639 Mg 0.70103 0.43557 0.51115 0.0
Mg640 Mg 0.78971 0.45908 0.50422 0.0
C641 C 0.80266 0.34861 0.41519 0.0
O642 O 0.82038 0.36483 0.5128 0.0
O643 O 0.71206 0.24226 0.5 0.0
O644 O 0.83925 0.42501 0.51008 0.0
O645 O 0.76962 0.2662 0.55526 0.0
O646 O 0.76672 0.23156 0.46986 0.0
O647 O 0.82088 0.28587 0.52774 0.0
O648 O 0.69542 0.38114 0.47676 0.0
O649 O 0.6689 0.32925 0.49844 0.0
C650 C 0.66651 0.36111 0.48159 0.0
C651 C 0.73474 0.22098 0.48194 0.0
O652 O 0.78049 0.37213 0.43201 0.0
O653 O 0.71165 0.48601 0.54794 0.0
O654 O 0.81374 0.31772 0.43019 0.0
O655 O 0.71136 0.4764 0.46033 0.0
O656 O 0.77258 0.49986 0.54538 0.0
O657 O 0.77337 0.48146 0.45222 0.0
O658 O 0.73444 0.35403 0.55143 0.0
O659 O 0.69296 0.3987 0.56416 0.0
C660 C 0.80516 0.26562 0.55227 0.0
C661 C 0.84584 0.39004 0.51463 0.0
C662 C 0.63494 0.02781 0.66994 0.0
C663 C 0.77693 0.03551 0.72571 0.0
C664 C 0.746 0.95117 0.79393 0.0
Mg665 Mg 0.56237 0.99145 0.70573 0.0
Mg666 Mg 0.54252 0.98248 0.79479 0.0
O667 O 0.57921 0.98108 0.75848 0.0
Mg668 Mg 0.63149 0.00182 0.75854 0.0
O669 O 0.68462 0.02031 0.74969 0.0
Mg670 Mg 0.7037 0.98123 0.71381 0.0
Mg671 Mg 0.71659 0.02744 0.7895 0.0
C672 C 0.61336 0.96504 0.84557 0.0
O673 O 0.6219 0.05719 0.78943 0.0
O674 O 0.51282 0.95301 0.71353 0.0
O675 O 0.67818 0.06415 0.81771 0.0
O676 O 0.52088 0.04055 0.72717 0.0
O677 O 0.50137 0.94461 0.77464 0.0
O678 O 0.51877 0.03614 0.78984 0.0
O679 O 0.64934 0.9505 0.72847 0.0
O680 O 0.60108 0.94026 0.69073 0.0
C681 C 0.6333 0.93089 0.70407 0.0
C682 C 0.49413 0.93847 0.7403 0.0
O683 O 0.63815 0.97446 0.8206 0.0
O684 O 0.757 0.01495 0.70476 0.0
O685 O 0.57804 0.96794 0.84034 0.0
O686 O 0.74145 0.95025 0.75849 0.0
O687 O 0.76687 0.04476 0.75886 0.0
O688 O 0.72814 0.97465 0.81369 0.0
O689 O 0.61581 0.02672 0.70031 0.0
O690 O 0.6683 0.01403 0.66861 0.0
C691 C 0.50898 0.05201 0.75928 0.0
C692 C 0.64417 0.07452 0.81144 0.0
C693 C 0.47768 0.3413 0.14299 0.0
C694 C 0.48031 0.27634 0.28156 0.0
C695 C 0.55494 0.2051 0.2403 0.0
Mg696 Mg 0.49956 0.30684 0.06463 0.0
Mg697 Mg 0.48525 0.22082 0.04465 0.0
O698 O 0.50739 0.25248 0.07807 0.0
Mg699 Mg 0.493 0.25216 0.13275 0.0
O700 O 0.48243 0.25836 0.1883 0.0
Mg701 Mg 0.5272 0.28853 0.20264 0.0
Mg702 Mg 0.47635 0.21662 0.21893 0.0
C703 C 0.5093 0.1643 0.1086 0.0
O704 O 0.43479 0.22679 0.12953 0.0
O705 O 0.52826 0.29559 0.00974 0.0
O706 O 0.43339 0.19406 0.18434 0.0
O707 O 0.44463 0.29449 0.02753 0.0
O708 O 0.51452 0.237 0.99396 0.0
O709 O 0.42869 0.23654 0.04084 0.0
O710 O 0.54914 0.2753 0.14396 0.0
O711 O 0.55699 0.31531 0.09655 0.0
C712 C 0.56885 0.29912 0.12671 0.0
C713 C 0.52934 0.26858 0.98674 0.0
O714 O 0.51352 0.1892 0.13408 0.0
O715 O 0.50069 0.29645 0.26 0.0
O716 O 0.49733 0.17149 0.07556 0.0
O717 O 0.55801 0.24008 0.23453 0.0
O718 O 0.46638 0.24531 0.27148 0.0
O719 O 0.52803 0.18731 0.22622 0.0
O720 O 0.47174 0.31276 0.12282 0.0
O721 O 0.49586 0.33815 0.17385 0.0
C722 C 0.4229 0.26667 0.02284 0.0
C723 C 0.41936 0.20361 0.15248 0.0
C724 C 0.06566 0.37585 0.7069 0.0
C725 C 0.06034 0.35737 0.67268 0.0
H726 H 0.07098 0.3713 0.76626 0.0
C727 C 0.06302 0.3184 0.67236 0.0
H728 H 0.06509 0.40596 0.70841 0.0
C729 C 0.06748 0.29847 0.70615 0.0
C730 C 0.06906 0.31729 0.74058 0.0
H731 H 0.05999 0.30337 0.64651 0.0
H732 H 0.06655 0.26839 0.70555 0.0
C733 C 0.06989 0.35611 0.74029 0.0
C734 C 0.58493 0.69115 0.59662 0.0
C735 C 0.59242 0.72213 0.61854 0.0
H736 H 0.55843 0.67066 0.54813 0.0
C737 C 0.57478 0.75645 0.61059 0.0
H738 H 0.59812 0.66435 0.60267 0.0
C739 C 0.5523 0.76038 0.57879 0.0
C740 C 0.54733 0.72992 0.55503 0.0
H741 H 0.58046 0.78068 0.62727 0.0
H742 H 0.54047 0.78755 0.57186 0.0
C743 C 0.56248 0.69494 0.56524 0.0
C744 C 0.95493 0.18501 0.63958 0.0
C745 C 0.98755 0.16891 0.62453 0.0
H746 H 0.93174 0.21769 0.6839 0.0
C747 C 0.02264 0.17881 0.63777 0.0
H748 H 0.92762 0.17662 0.63006 0.0
C749 C 0.0249 0.20121 0.66904 0.0
C750 C 0.99209 0.2141 0.68659 0.0
H751 H 0.04788 0.1659 0.62676 0.0
H752 H 0.05205 0.20567 0.68147 0.0
C753 C 0.95722 0.20813 0.67039 0.0
C754 C 0.34998 0.76554 0.54445 0.0
C755 C 0.36654 0.75863 0.57973 0.0
H756 H 0.35372 0.75977 0.48512 0.0
C757 C 0.39839 0.73516 0.58142 0.0
H758 H 0.32499 0.78279 0.54167 0.0
C759 C 0.41462 0.72127 0.54833 0.0
C760 C 0.39914 0.73045 0.51304 0.0
H761 H 0.41151 0.72868 0.60803 0.0
H762 H 0.44081 0.70578 0.5502 0.0
C763 C 0.36597 0.75168 0.51177 0.0
C764 C 0.07206 0.68478 0.84282 0.0
C765 C 0.08261 0.64699 0.84174 0.0
H766 H 0.05606 0.73342 0.81071 0.0
C767 C 0.09082 0.63128 0.80648 0.0
H768 H 0.06554 0.69786 0.86921 0.0
C769 C 0.08501 0.65128 0.77329 0.0
C770 C 0.07189 0.68801 0.77422 0.0
H771 H 0.09921 0.60239 0.80406 0.0
H772 H 0.08847 0.63723 0.74684 0.0
C773 C 0.067 0.70519 0.80927 0.0
C774 C 0.90217 0.75699 0.41924 0.0
C775 C 0.87209 0.7321 0.42048 0.0
H776 H 0.94127 0.78907 0.4509 0.0
C777 C 0.85571 0.72456 0.4557 0.0
H778 H 0.91521 0.764 0.39277 0.0
C779 C 0.86978 0.73969 0.48852 0.0
C780 C 0.90087 0.763 0.48772 0.0
H781 H 0.83221 0.70605 0.45829 0.0
H782 H 0.85755 0.73133 0.51503 0.0
C783 C 0.91649 0.77217 0.45252 0.0
C784 C 0.93128 0.81081 0.86811 0.0
C785 C 0.96205 0.82664 0.88605 0.0
H786 H 0.91221 0.78114 0.82016 0.0
C787 C 0.99825 0.81903 0.87309 0.0
H788 H 0.90305 0.81714 0.87744 0.0
C789 C 0.00329 0.79987 0.83979 0.0
C790 C 0.97226 0.78737 0.81972 0.0
H791 H 0.02219 0.8317 0.88608 0.0
H792 H 0.03128 0.7971 0.82838 0.0
C793 C 0.93641 0.79076 0.83521 0.0
C794 C 0.08359 0.81649 0.41038 0.0
C795 C 0.08789 0.78796 0.38438 0.0
H796 H 0.06176 0.8329 0.46295 0.0
C797 C 0.06997 0.75391 0.39027 0.0
H798 H 0.09712 0.84303 0.40616 0.0
C799 C 0.04995 0.74771 0.42332 0.0
C800 C 0.04762 0.77564 0.45048 0.0
H801 H 0.07334 0.73144 0.37055 0.0
H802 H 0.03743 0.7208 0.42808 0.0
C803 C 0.06358 0.81047 0.44303 0.0
C804 C 0.70342 0.01698 0.37556 0.0
C805 C 0.66789 0.02567 0.36081 0.0
H806 H 0.76222 0.02296 0.37142 0.0
C807 C 0.66554 0.04533 0.32669 0.0
H808 H 0.70633 0.00191 0.40188 0.0
C809 C 0.69818 0.05777 0.30884 0.0
C810 C 0.73368 0.05052 0.32484 0.0
H811 H 0.63859 0.05246 0.31477 0.0
H812 H 0.69562 0.07289 0.28256 0.0
C813 C 0.73562 0.02979 0.35837 0.0
C814 C 0.26575 0.05699 0.86897 0.0
C815 C 0.26176 0.09093 0.88833 0.0
H816 H 0.25953 0.99789 0.87029 0.0
C817 C 0.24069 0.09131 0.92145 0.0
H818 H 0.2807 0.05547 0.84265 0.0
C819 C 0.22745 0.0577 0.9367 0.0
C820 C 0.23497 0.02355 0.91886 0.0
H821 H 0.23646 0.11695 0.93661 0.0
H822 H 0.21469 0.05796 0.96421 0.0
C823 C 0.2527 0.02381 0.88412 0.0
C824 C 0.3229 0.41075 0.35738 0.0
C825 C 0.35381 0.43298 0.34793 0.0
H826 H 0.26512 0.3989 0.34743 0.0
C827 C 0.35243 0.45401 0.31468 0.0
H828 H 0.32353 0.39349 0.38231 0.0
C829 C 0.31918 0.45585 0.29381 0.0
C830 C 0.28694 0.437 0.30602 0.0
H831 H 0.37557 0.47152 0.30669 0.0
H832 H 0.3175 0.47505 0.27032 0.0
C833 C 0.28954 0.41333 0.33718 0.0
C834 C 0.74216 0.4043 0.88821 0.0
C835 C 0.70893 0.40606 0.86736 0.0
H836 H 0.78023 0.43355 0.92285 0.0
C837 C 0.68876 0.43979 0.86462 0.0
H838 H 0.75858 0.37872 0.8901 0.0
C839 C 0.70099 0.47103 0.88356 0.0
C840 C 0.7341 0.4692 0.90461 0.0
H841 H 0.66325 0.44179 0.84835 0.0
H842 H 0.68442 0.49653 0.88201 0.0
C843 C 0.75488 0.43577 0.90636 0.0
C844 C 0.63016 0.01178 0.18988 0.0
C845 C 0.62154 0.97532 0.18035 0.0
H846 H 0.66991 0.04624 0.21679 0.0
C847 C 0.6398 0.94505 0.198 0.0
H848 H 0.61649 0.03528 0.17598 0.0
C849 C 0.66988 0.95122 0.22159 0.0
C850 C 0.68198 0.98761 0.22661 0.0
H851 H 0.63352 0.91674 0.1903 0.0
H852 H 0.68626 0.92765 0.23198 0.0
C853 C 0.66069 0.01795 0.21286 0.0
C854 C 0.19125 0.06869 0.12698 0.0
C855 C 0.21155 0.10155 0.1223 0.0
H856 H 0.18368 0.0125 0.10955 0.0
C857 C 0.24137 0.10233 0.09666 0.0
H858 H 0.16826 0.06736 0.14671 0.0
C859 C 0.25085 0.07068 0.07618 0.0
C860 C 0.23014 0.03801 0.08041 0.0
H861 H 0.2578 0.1272 0.09292 0.0
H862 H 0.27379 0.07205 0.0564 0.0
C863 C 0.20016 0.03734 0.10586 0.0
C864 C 0.37287 0.51988 0.18181 0.0
C865 C 0.38356 0.55636 0.17335 0.0
H866 H 0.32989 0.48493 0.20358 0.0
C867 C 0.36152 0.58634 0.18645 0.0
H868 H 0.38874 0.49638 0.17101 0.0
C869 C 0.32804 0.57983 0.20577 0.0
C870 C 0.31569 0.54329 0.21091 0.0
H871 H 0.3688 0.61473 0.17925 0.0
H872 H 0.31053 0.60322 0.21401 0.0
C873 C 0.33892 0.51341 0.1999 0.0
C874 C 0.73936 0.40846 0.07951 0.0
C875 C 0.76961 0.40461 0.10438 0.0
H876 H 0.70968 0.4452 0.04128 0.0
C877 C 0.7909 0.43627 0.11228 0.0
H878 H 0.72205 0.38484 0.07337 0.0
C879 C 0.78292 0.47048 0.09554 0.0
C880 C 0.75384 0.47427 0.0697 0.0
H881 H 0.81441 0.43471 0.13134 0.0
H882 H 0.80103 0.49366 0.10122 0.0
C883 C 0.73158 0.44319 0.06213 0.0
C884 C 0.3293 0.663 0.05645 0.0
C885 C 0.36847 0.66464 0.05654 0.0
H886 H 0.2777 0.69427 0.05631 0.0
C887 C 0.3853 0.69935 0.06277 0.0
H888 H 0.31545 0.63676 0.05239 0.0
C889 C 0.36396 0.73188 0.06565 0.0
C890 C 0.32508 0.73084 0.06239 0.0
H891 H 0.41541 0.70191 0.06401 0.0
H892 H 0.37809 0.75825 0.06777 0.0
C893 C 0.30773 0.69591 0.05939 0.0
C894 C 0.32212 0.34911 0.45602 0.0
C895 C 0.35283 0.35179 0.48019 0.0
H896 H 0.28374 0.31245 0.42905 0.0
C897 C 0.36555 0.31958 0.49923 0.0
H898 H 0.31146 0.37357 0.44145 0.0
C899 C 0.3511 0.28495 0.49121 0.0
C900 C 0.32242 0.28137 0.46475 0.0
H901 H 0.38906 0.32076 0.51826 0.0
H902 H 0.36286 0.26088 0.5058 0.0
C903 C 0.30689 0.31408 0.4484 0.0
C904 C 0.54917 0.35812 0.74267 0.0
C905 C 0.58383 0.37656 0.74347 0.0
H906 H 0.48966 0.3632 0.73744 0.0
C907 C 0.58503 0.41373 0.73111 0.0
H908 H 0.54707 0.32911 0.75096 0.0
C909 C 0.5516 0.43291 0.72195 0.0
C910 C 0.51678 0.41513 0.72516 0.0
H911 H 0.61115 0.42859 0.73108 0.0
H912 H 0.55264 0.46253 0.7159 0.0
C913 C 0.51607 0.37729 0.73419 0.0
C914 C 0.69178 0.12933 0.50509 0.0
C915 C 0.6874 0.11494 0.46925 0.0
H916 H 0.70982 0.17576 0.53682 0.0
C917 C 0.7062 0.13137 0.43882 0.0
H918 H 0.67711 0.11729 0.52874 0.0
C919 C 0.72503 0.16475 0.44337 0.0
C920 C 0.7244 0.18199 0.47823 0.0
H921 H 0.7026 0.12074 0.41084 0.0
H922 H 0.73661 0.17882 0.4191 0.0
C923 C 0.70977 0.16308 0.50948 0.0
C924 C 0.94397 0.62013 0.30562 0.0
C925 C 0.90963 0.61275 0.28819 0.0
H926 H 0.00267 0.60785 0.30917 0.0
C927 C 0.90992 0.58903 0.2571 0.0
H928 H 0.94512 0.63855 0.32933 0.0
C929 C 0.94355 0.57209 0.24483 0.0
C930 C 0.9775 0.57843 0.26347 0.0
H931 H 0.88419 0.58332 0.24248 0.0
H932 H 0.94258 0.55224 0.22231 0.0
C933 C 0.97724 0.60313 0.2936 0.0
C934 C 0.18168 0.33771 0.59708 0.0
C935 C 0.17938 0.36866 0.57266 0.0
H936 H 0.20363 0.28242 0.60563 0.0
C937 C 0.2041 0.37113 0.54225 0.0
H938 H 0.16294 0.33539 0.62082 0.0
C939 C 0.22732 0.34076 0.53367 0.0
C940 C 0.2262 0.30824 0.55576 0.0
H941 H 0.20262 0.3946 0.52294 0.0
H942 H 0.24355 0.34141 0.50805 0.0
C943 C 0.20488 0.30751 0.58853 0.0
C944 C 0.56958 0.62495 0.71013 0.0
C945 C 0.59951 0.62283 0.73533 0.0
H946 H 0.51759 0.60308 0.69336 0.0
C947 C 0.60033 0.59516 0.76334 0.0
H948 H 0.56863 0.64578 0.68791 0.0
C949 C 0.5706 0.57052 0.76669 0.0
C950 C 0.54039 0.57314 0.7416 0.0
H951 H 0.62333 0.59319 0.78298 0.0
H952 H 0.57126 0.54954 0.78871 0.0
C953 C 0.54042 0.60032 0.71313 0.0
C954 C 0.39806 0.89703 0.74283 0.0
C955 C 0.39765 0.87786 0.70886 0.0
H956 H 0.4297 0.9305 0.78003 0.0
C957 C 0.42949 0.87778 0.68593 0.0
H958 H 0.37397 0.89694 0.76127 0.0
C959 C 0.46114 0.89709 0.69652 0.0
C960 C 0.46171 0.91604 0.7306 0.0
H961 H 0.42982 0.86294 0.65974 0.0
H962 H 0.48524 0.89707 0.67811 0.0
C963 C 0.43004 0.91569 0.75382 0.0
C964 C 0.56169 0.81859 0.17228 0.0
C965 C 0.55749 0.85747 0.17255 0.0
H966 H 0.56712 0.76871 0.2055 0.0
C967 C 0.56156 0.87609 0.20688 0.0
H968 H 0.55973 0.80348 0.14636 0.0
C969 C 0.56636 0.8565 0.24028 0.0
C970 C 0.56722 0.81764 0.24058 0.0
H971 H 0.55978 0.90617 0.20846 0.0
H972 H 0.56668 0.87175 0.26624 0.0
C973 C 0.56664 0.79881 0.20611 0.0
C974 C 0.07498 0.25722 0.11016 0.0
C975 C 0.09211 0.22269 0.11831 0.0
H976 H 0.04108 0.28856 0.07127 0.0
C977 C 0.08402 0.19165 0.09672 0.0
H978 H 0.08113 0.28147 0.12663 0.0
C979 C 0.0615 0.19554 0.06543 0.0
C980 C 0.04694 0.2307 0.05495 0.0
H981 H 0.0968 0.1647 0.10296 0.0
H982 H 0.05697 0.17119 0.04855 0.0
C983 C 0.05246 0.26126 0.07842 0.0
C984 C 0.4537 0.68505 0.14011 0.0
C985 C 0.48665 0.67026 0.12445 0.0
H986 H 0.43 0.71663 0.18497 0.0
C987 C 0.52152 0.68154 0.13709 0.0
H988 H 0.4266 0.6756 0.13104 0.0
C989 C 0.52341 0.70389 0.16843 0.0
C990 C 0.49044 0.71546 0.18656 0.0
H991 H 0.54705 0.66964 0.12563 0.0
H992 H 0.55054 0.70919 0.1805 0.0
C993 C 0.45559 0.70816 0.17096 0.0
C994 C 0.85035 0.26594 0.04462 0.0
C995 C 0.86694 0.25888 0.07986 0.0
H996 H 0.85394 0.26033 0.98526 0.0
C997 C 0.89877 0.23536 0.0814 0.0
H998 H 0.82539 0.28323 0.04193 0.0
C999 C 0.91491 0.22155 0.04822 0.0
C1000 C 0.89937 0.23084 0.01297 0.0
H1001 H 0.91193 0.22877 0.10797 0.0
H1002 H 0.94107 0.206 0.05 0.0
C1003 C 0.86625 0.25215 0.01186 0.0
C1004 C 0.57124 0.1852 0.34275 0.0
C1005 C 0.58185 0.14743 0.34184 0.0
H1006 H 0.55575 0.23383 0.31039 0.0
C1007 C 0.59079 0.13175 0.30675 0.0
H1008 H 0.56421 0.19827 0.36902 0.0
C1009 C 0.58554 0.15174 0.27346 0.0
C1010 C 0.57232 0.18845 0.27417 0.0
H1011 H 0.59935 0.10289 0.3045 0.0
H1012 H 0.58953 0.1377 0.24707 0.0
C1013 C 0.56677 0.20561 0.30913 0.0
C1014 C 0.35594 0.22403 0.9555 0.0
C1015 C 0.37217 0.23191 0.92028 0.0
H1016 H 0.35792 0.23039 0.01488 0.0
C1017 C 0.40212 0.25696 0.91914 0.0
H1018 H 0.33254 0.20539 0.95802 0.0
C1019 C 0.41646 0.27197 0.95249 0.0
C1020 C 0.401 0.26248 0.98768 0.0
H1021 H 0.41504 0.26422 0.89268 0.0
H1022 H 0.44116 0.28901 0.95092 0.0
C1023 C 0.37002 0.23901 0.9884 0.0
C1024 C 0.43641 0.31028 0.37058 0.0
C1025 C 0.46729 0.32734 0.38712 0.0
H1026 H 0.41639 0.27991 0.32348 0.0
C1027 C 0.50312 0.32103 0.3726 0.0
H1028 H 0.4084 0.31563 0.38109 0.0
C1029 C 0.50743 0.30205 0.3391 0.0
C1030 C 0.47605 0.28847 0.32035 0.0
H1031 H 0.52709 0.33467 0.38448 0.0
H1032 H 0.53498 0.30026 0.32652 0.0
C1033 C 0.44084 0.29044 0.33744 0.0
C1034 C 0.58332 0.31626 0.91033 0.0
C1035 C 0.58789 0.28771 0.88442 0.0
H1036 H 0.56135 0.33258 0.96285 0.0
C1037 C 0.57034 0.25348 0.89039 0.0
H1038 H 0.59659 0.34292 0.90605 0.0
C1039 C 0.5504 0.24714 0.92345 0.0
C1040 C 0.5478 0.27512 0.95053 0.0
H1041 H 0.57395 0.231 0.87072 0.0
H1042 H 0.53817 0.22011 0.92829 0.0
C1043 C 0.56339 0.31011 0.943 0.0
C1044 C 0.16684 0.54576 0.8269 0.0
C1045 C 0.16904 0.52497 0.86035 0.0
H1046 H 0.1971 0.5746 0.78373 0.0
C1047 C 0.20449 0.51538 0.87473 0.0
H1048 H 0.13994 0.55363 0.8153 0.0
C1049 C 0.2368 0.52846 0.85794 0.0
C1050 C 0.23501 0.55042 0.82517 0.0
H1051 H 0.20725 0.49946 0.90057 0.0
H1052 H 0.26335 0.52094 0.87073 0.0
C1053 C 0.19956 0.55851 0.80945 0.0
C1054 C 0.74112 0.59109 0.42211 0.0
C1055 C 0.76225 0.59068 0.38904 0.0
H1056 H 0.71528 0.55775 0.46494 0.0
C1057 C 0.7665 0.5567 0.36979 0.0
H1058 H 0.73671 0.61677 0.43714 0.0
C1059 C 0.75367 0.52351 0.38506 0.0
C1060 C 0.73592 0.52331 0.41977 0.0
H1061 H 0.7815 0.55517 0.3435 0.0
H1062 H 0.7607 0.49756 0.37135 0.0
C1063 C 0.72808 0.55747 0.43745 0.0
C1064 C 0.81173 0.92587 0.87006 0.0
C1065 C 0.84652 0.93645 0.85468 0.0
H1066 H 0.75299 0.92011 0.86222 0.0
C1067 C 0.84856 0.94325 0.81598 0.0
H1068 H 0.80844 0.92054 0.89971 0.0
C1069 C 0.81571 0.94295 0.7942 0.0
C1070 C 0.78064 0.93576 0.81087 0.0
H1071 H 0.87472 0.95123 0.80313 0.0
H1072 H 0.81722 0.9518 0.76523 0.0
C1073 C 0.77951 0.92525 0.84851 0.0
C1074 C 0.24176 0.90468 0.38791 0.0
C1075 C 0.20846 0.90622 0.36716 0.0
H1076 H 0.2796 0.93413 0.4226 0.0
C1077 C 0.18792 0.93974 0.36465 0.0
H1078 H 0.25844 0.87925 0.38962 0.0
C1079 C 0.19986 0.971 0.38374 0.0
C1080 C 0.23305 0.96939 0.40469 0.0
H1081 H 0.16236 0.94155 0.34845 0.0
H1082 H 0.18303 0.99634 0.38238 0.0
C1083 C 0.25418 0.93617 0.4062 0.0
C1084 C 0.14226 0.4453 0.69684 0.0
C1085 C 0.12328 0.47563 0.6801 0.0
H1086 H 0.18889 0.42802 0.7306 0.0
C1087 C 0.13084 0.51199 0.69088 0.0
H1088 H 0.1368 0.41709 0.68817 0.0
C1089 C 0.16102 0.5182 0.71433 0.0
C1090 C 0.18297 0.48799 0.72729 0.0
H1091 H 0.11658 0.53555 0.6777 0.0
H1092 H 0.16947 0.54657 0.71924 0.0
C1093 C 0.17194 0.45149 0.7209 0.0
C1094 C 0.69241 0.56885 0.62786 0.0
C1095 C 0.71258 0.60177 0.62316 0.0
H1096 H 0.6851 0.5126 0.61055 0.0
C1097 C 0.74252 0.60259 0.59765 0.0
H1098 H 0.66935 0.56748 0.64751 0.0
C1099 C 0.75219 0.57091 0.57727 0.0
C1100 C 0.73157 0.53819 0.58149 0.0
H1101 H 0.75887 0.62751 0.59391 0.0
H1102 H 0.77519 0.57232 0.55756 0.0
C1103 C 0.70152 0.53748 0.60686 0.0
C1104 C 0.873 0.02092 0.68483 0.0
C1105 C 0.88212 0.0572 0.67373 0.0
H1106 H 0.83142 0.98583 0.70911 0.0
C1107 C 0.85889 0.08712 0.68488 0.0
H1108 H 0.8898 0.99737 0.67562 0.0
C1109 C 0.82571 0.08059 0.70468 0.0
C1110 C 0.81493 0.04398 0.7125 0.0
H1111 H 0.86498 0.11527 0.67574 0.0
H1112 H 0.80718 0.10378 0.71116 0.0
C1113 C 0.83937 0.01434 0.70356 0.0
C1114 C 0.29107 0.93576 0.61124 0.0
C1115 C 0.26923 0.90435 0.60386 0.0
H1116 H 0.30152 0.99306 0.60006 0.0
C1117 C 0.23844 0.90855 0.57968 0.0
H1118 H 0.31501 0.93391 0.62976 0.0
C1119 C 0.23063 0.94339 0.56251 0.0
C1120 C 0.25337 0.97424 0.56962 0.0
H1121 H 0.22071 0.88514 0.57399 0.0
H1122 H 0.20824 0.94566 0.54221 0.0
C1123 C 0.28305 0.97007 0.59475 0.0
C1124 C 0.82926 0.16322 0.55717 0.0
C1125 C 0.86843 0.16466 0.5566 0.0
H1126 H 0.77783 0.19474 0.55779 0.0
C1127 C 0.88558 0.19929 0.56242 0.0
H1128 H 0.81519 0.13704 0.55347 0.0
C1129 C 0.86447 0.23191 0.5656 0.0
C1130 C 0.82554 0.23106 0.56299 0.0
H1131 H 0.91573 0.20168 0.56312 0.0
H1132 H 0.87878 0.25821 0.56741 0.0
C1133 C 0.80793 0.19623 0.56038 0.0
C1134 C 0.84814 0.8322 0.00643 0.0
C1135 C 0.84768 0.85786 0.97665 0.0
H1136 H 0.8388 0.7763 0.02434 0.0
C1137 C 0.83255 0.8471 0.94218 0.0
H1138 H 0.86115 0.83917 0.03273 0.0
C1139 C 0.81919 0.81098 0.93727 0.0
C1140 C 0.82265 0.78456 0.96627 0.0
H1141 H 0.83449 0.86525 0.91799 0.0
H1142 H 0.80838 0.80308 0.91029 0.0
C1143 C 0.83632 0.79587 0.00116 0.0
C1144 C 0.04886 0.85821 0.24302 0.0
C1145 C 0.08356 0.87662 0.24363 0.0
H1146 H 0.98932 0.86337 0.23819 0.0
C1147 C 0.08472 0.91382 0.23137 0.0
H1148 H 0.04679 0.82918 0.25125 0.0
C1149 C 0.05125 0.93305 0.22248 0.0
C1150 C 0.01643 0.91529 0.22586 0.0
H1151 H 0.11085 0.92865 0.23121 0.0
H1152 H 0.05228 0.96267 0.21647 0.0
C1153 C 0.01573 0.87744 0.23481 0.0
C1154 C 0.19305 0.62879 0.00464 0.0
C1155 C 0.18909 0.61398 0.96893 0.0
H1156 H 0.21026 0.67578 0.03597 0.0
C1157 C 0.208 0.63023 0.93848 0.0
H1158 H 0.17826 0.6169 0.0283 0.0
C1159 C 0.2264 0.66389 0.94279 0.0
C1160 C 0.22523 0.68153 0.97743 0.0
H1161 H 0.20471 0.61926 0.91059 0.0
H1162 H 0.23801 0.67782 0.91846 0.0
C1163 C 0.21061 0.66279 0.00878 0.0
C1164 C 0.4438 0.12055 0.80488 0.0
C1165 C 0.40941 0.11305 0.7876 0.0
H1166 H 0.50251 0.10836 0.80823 0.0
C1167 C 0.40959 0.08926 0.75658 0.0
H1168 H 0.44503 0.13903 0.82853 0.0
C1169 C 0.44317 0.07232 0.74423 0.0
C1170 C 0.47716 0.07876 0.76275 0.0
H1171 H 0.3838 0.08347 0.74208 0.0
H1172 H 0.44214 0.05238 0.72181 0.0
C1173 C 0.47703 0.10356 0.79277 0.0
C1174 C 0.67845 0.83558 0.0985 0.0
C1175 C 0.67752 0.86694 0.07449 0.0
H1176 H 0.69977 0.78009 0.10733 0.0
C1177 C 0.70381 0.86973 0.04547 0.0
H1178 H 0.65854 0.833 0.12124 0.0
C1179 C 0.72738 0.83941 0.03767 0.0
C1180 C 0.72502 0.80656 0.05916 0.0
H1181 H 0.70347 0.89352 0.02653 0.0
H1182 H 0.74502 0.84039 0.013 0.0
C1183 C 0.70198 0.80541 0.09071 0.0
C1184 C 0.06762 0.12617 0.21105 0.0
C1185 C 0.09832 0.12329 0.23528 0.0
H1186 H 0.015 0.10492 0.19533 0.0
C1187 C 0.09967 0.09513 0.26279 0.0
H1188 H 0.06618 0.14741 0.18925 0.0
C1189 C 0.06986 0.07062 0.2665 0.0
C1190 C 0.03904 0.07386 0.24224 0.0
H1191 H 0.12322 0.09257 0.28171 0.0
H1192 H 0.07101 0.04915 0.28803 0.0
C1193 C 0.03838 0.10166 0.21439 0.0
C1194 C 0.89873 0.39682 0.24339 0.0
C1195 C 0.8982 0.37779 0.20933 0.0
H1196 H 0.93052 0.4301 0.28064 0.0
C1197 C 0.92999 0.37779 0.18632 0.0
H1198 H 0.87469 0.39667 0.26188 0.0
C1199 C 0.9617 0.39703 0.19691 0.0
C1200 C 0.96239 0.41584 0.23107 0.0
H1201 H 0.93024 0.36307 0.16006 0.0
H1202 H 0.98574 0.39708 0.17842 0.0
C1203 C 0.93078 0.4154 0.25437 0.0
C1204 C 0.16941 0.1568 0.8537 0.0
C1205 C 0.1855 0.18438 0.83049 0.0
H1206 H 0.12265 0.14117 0.8886 0.0
C1207 C 0.16448 0.21707 0.82334 0.0
H1208 H 0.18521 0.13171 0.86073 0.0
C1209 C 0.12889 0.22243 0.83914 0.0
C1210 C 0.11312 0.19568 0.86347 0.0
H1211 H 0.17622 0.23925 0.80641 0.0
H1212 H 0.11425 0.24848 0.83331 0.0
C1213 C 0.13378 0.1625 0.87024 0.0
C1214 C 0.47711 0.55295 0.37118 0.0
C1215 C 0.45051 0.54783 0.39988 0.0
H1216 H 0.50785 0.59085 0.33687 0.0
C1217 C 0.43387 0.5797 0.41574 0.0
H1218 H 0.49039 0.52921 0.35791 0.0
C1219 C 0.4445 0.61567 0.40378 0.0
C1220 C 0.47141 0.62049 0.37518 0.0
H1221 H 0.41339 0.57685 0.4379 0.0
H1222 H 0.43161 0.63968 0.41689 0.0
C1223 C 0.48716 0.58852 0.3589 0.0
C1224 C 0.82184 0.33394 0.81439 0.0
C1225 C 0.79729 0.30497 0.82314 0.0
H1226 H 0.87801 0.3536 0.81635 0.0
C1227 C 0.81108 0.27467 0.84502 0.0
H1228 H 0.81223 0.35806 0.79842 0.0
C1229 C 0.84871 0.27249 0.85611 0.0
C1230 C 0.87367 0.30043 0.84544 0.0
H1231 H 0.79295 0.25203 0.85299 0.0
H1232 H 0.85874 0.24774 0.87082 0.0
C1233 C 0.85945 0.33165 0.82533 0.0
C1234 C 0.56945 0.91615 0.41368 0.0
C1235 C 0.54372 0.94604 0.41667 0.0
H1236 H 0.57754 0.85795 0.40255 0.0
C1237 C 0.50634 0.94039 0.4062 0.0
H1238 H 0.59861 0.91973 0.42069 0.0
C1239 C 0.49451 0.90517 0.39533 0.0
C1240 C 0.51994 0.87504 0.39368 0.0
H1241 H 0.4859 0.96292 0.40767 0.0
H1242 H 0.465 0.9009 0.39041 0.0
C1243 C 0.55767 0.88106 0.40214 0.0
C1244 C 0.1628 0.84198 0.64731 0.0
C1245 C 0.17882 0.81422 0.6707 0.0
H1246 H 0.11508 0.85889 0.61422 0.0
C1247 C 0.15756 0.78364 0.68151 0.0
H1248 H 0.1792 0.86545 0.63795 0.0
C1249 C 0.1213 0.78001 0.66827 0.0
C1250 C 0.10562 0.80653 0.64318 0.0
H1251 H 0.16962 0.76165 0.69893 0.0
H1252 H 0.10625 0.75525 0.67638 0.0
C1253 C 0.12645 0.83799 0.63332 0.0
C1254 C 0.06764 0.58005 0.59699 0.0
C1255 C 0.04007 0.55361 0.58917 0.0
H1256 H 0.07901 0.6364 0.61197 0.0
C1257 C 0.0024 0.56293 0.59606 0.0
H1258 H 0.09703 0.57359 0.59286 0.0
C1259 C 0.9924 0.59852 0.60813 0.0
C1260 C 0.01979 0.62547 0.61372 0.0
H1261 H 0.9805 0.54309 0.59112 0.0
H1262 H 0.96298 0.60597 0.61026 0.0
C1263 C 0.05755 0.61565 0.60919 0.0
C1264 C 0.82757 0.66467 0.67714 0.0
C1265 C 0.80442 0.69538 0.66819 0.0
H1266 H 0.88302 0.64182 0.67602 0.0
C1267 C 0.81822 0.7239 0.64488 0.0
H1268 H 0.81737 0.6416 0.69387 0.0
C1269 C 0.85553 0.72349 0.63383 0.0
C1270 C 0.8796 0.6949 0.6465 0.0
H1271 H 0.80067 0.74736 0.63638 0.0
H1272 H 0.86619 0.74745 0.61873 0.0
C1273 C 0.86488 0.66433 0.66616 0.0
C1274 C 0.98064 0.94568 0.63124 0.0
C1275 C 0.95529 0.95316 0.602 0.0
H1276 H 0.00667 0.90534 0.66719 0.0
C1277 C 0.93566 0.92332 0.58675 0.0
H1278 H 0.9959 0.96802 0.64402 0.0
C1279 C 0.9424 0.88657 0.59987 0.0
C1280 C 0.96804 0.87936 0.62914 0.0
H1281 H 0.91591 0.92828 0.56424 0.0
H1282 H 0.92754 0.8639 0.58724 0.0
C1283 C 0.98667 0.90956 0.64477 0.0
C1284 C 0.83605 0.16807 0.15648 0.0
C1285 C 0.81114 0.18452 0.18223 0.0
H1286 H 0.87468 0.12289 0.14541 0.0
C1287 C 0.80388 0.16545 0.21592 0.0
H1288 H 0.84317 0.18268 0.13081 0.0
C1289 C 0.82194 0.1315 0.22434 0.0
C1290 C 0.84845 0.11591 0.19968 0.0
H1291 H 0.78574 0.17792 0.23676 0.0
H1292 H 0.81649 0.11841 0.25119 0.0
C1293 C 0.85472 0.13422 0.16522 0.0
C1294 C 0.44889 0.88957 0.00998 0.0
C1295 C 0.45702 0.89613 0.04776 0.0
H1296 H 0.40576 0.88138 0.96925 0.0
C1297 C 0.42834 0.89222 0.07443 0.0
H1298 H 0.47045 0.89213 0.98883 0.0
C1299 C 0.39182 0.88455 0.06335 0.0
C1300 C 0.38309 0.88107 0.02537 0.0
H1301 H 0.43383 0.89641 0.10384 0.0
H1302 H 0.36979 0.88462 0.0842 0.0
C1303 C 0.41207 0.88267 0.99882 0.0
C1304 C 0.19183 0.34279 0.21578 0.0
C1305 C 0.17792 0.32076 0.18725 0.0
H1306 H 0.18946 0.39506 0.24285 0.0
C1307 C 0.15274 0.33643 0.16103 0.0
H1308 H 0.21102 0.3311 0.23637 0.0
C1309 C 0.13931 0.37297 0.16521 0.0
C1310 C 0.15166 0.3944 0.19516 0.0
H1311 H 0.14135 0.3196 0.13899 0.0
H1312 H 0.11825 0.38382 0.14608 0.0
C1313 C 0.17926 0.37941 0.21939 0.0
C1314 C 0.60095 0.57423 0.05767 0.0
C1315 C 0.56971 0.58575 0.03636 0.0
H1316 H 0.65949 0.5812 0.06885 0.0
C1317 C 0.57457 0.61368 0.00883 0.0
H1318 H 0.59809 0.55312 0.07935 0.0
C1319 C 0.60925 0.63071 0.00385 0.0
C1320 C 0.64031 0.61967 0.02557 0.0
H1321 H 0.55109 0.62375 0.99227 0.0
H1322 H 0.61173 0.65261 0.98292 0.0
C1323 C 0.63601 0.59055 0.05189 0.0
C1324 C 0.81839 0.83067 0.34558 0.0
C1325 C 0.82361 0.80654 0.31541 0.0
H1326 H 0.82372 0.88618 0.36593 0.0
C1327 C 0.84268 0.82 0.28342 0.0
H1328 H 0.8048 0.82116 0.37097 0.0
C1329 C 0.8546 0.85692 0.28096 0.0
C1330 C 0.84743 0.88155 0.31024 0.0
H1331 H 0.84793 0.80215 0.25974 0.0
H1332 H 0.86696 0.86678 0.25506 0.0
C1333 C 0.83009 0.8677 0.34298 0.0
C1334 C 0.06144 0.88127 0.98561 0.0
C1335 C 0.0557 0.90785 0.95672 0.0
H1336 H 0.09983 0.84516 0.01493 0.0
C1337 C 0.08657 0.91827 0.93479 0.0
H1338 H 0.03828 0.87201 0.00275 0.0
C1339 C 0.12245 0.90314 0.94242 0.0
C1340 C 0.12785 0.8763 0.9712 0.0
H1341 H 0.08306 0.93839 0.9122 0.0
H1342 H 0.14591 0.91209 0.92553 0.0
C1343 C 0.09677 0.86547 0.99244 0.0
C1344 C 0.13334 0.67284 0.28846 0.0
C1345 C 0.15794 0.6884 0.31442 0.0
H1346 H 0.10742 0.62362 0.2692 0.0
C1347 C 0.16903 0.66728 0.34584 0.0
H1348 H 0.12284 0.68896 0.26481 0.0
C1349 C 0.15947 0.62985 0.34874 0.0
C1350 C 0.13885 0.61316 0.32015 0.0
H1351 H 0.18683 0.67902 0.36699 0.0
H1352 H 0.17155 0.61305 0.37117 0.0
C1353 C 0.12343 0.63563 0.29161 0.0
C1354 C 0.95716 0.62322 0.97426 0.0
C1355 C 0.96854 0.60501 0.94119 0.0
H1356 H 0.91117 0.64034 0.00923 0.0
C1357 C 0.94118 0.59633 0.91479 0.0
H1358 H 0.97747 0.63087 0.99511 0.0
C1359 C 0.90329 0.60264 0.92275 0.0
C1360 C 0.89188 0.61783 0.95715 0.0
H1361 H 0.94881 0.58282 0.88891 0.0
H1362 H 0.88263 0.59277 0.90323 0.0
C1363 C 0.91918 0.62949 0.98219 0.0
C1364 C 0.15773 0.83355 0.15854 0.0
C1365 C 0.18608 0.81241 0.17647 0.0
H1366 H 0.14295 0.86877 0.11167 0.0
C1367 C 0.22055 0.80731 0.15841 0.0
H1368 H 0.13115 0.83861 0.17233 0.0
C1369 C 0.22714 0.82424 0.12373 0.0
C1370 C 0.19975 0.8475 0.10692 0.0
H1371 H 0.24302 0.79174 0.172 0.0
H1372 H 0.25448 0.82072 0.11106 0.0
C1373 C 0.16466 0.85135 0.1242 0.0
C1374 C 0.23239 0.1945 0.33762 0.0
C1375 C 0.19815 0.19085 0.31917 0.0
H1376 H 0.26444 0.18189 0.38676 0.0
C1377 C 0.16867 0.17261 0.33757 0.0
H1378 H 0.25562 0.20797 0.32378 0.0
C1379 C 0.17405 0.15643 0.373 0.0
C1380 C 0.20866 0.15919 0.39105 0.0
H1381 H 0.14217 0.16877 0.32359 0.0
H1382 H 0.15146 0.14113 0.38591 0.0
C1383 C 0.23737 0.17942 0.37353 0.0
C1384 C 0.40009 0.50817 0.94809 0.0
C1385 C 0.40891 0.54553 0.95477 0.0
H1386 H 0.38668 0.46752 0.90702 0.0
C1387 C 0.4044 0.57192 0.9257 0.0
H1388 H 0.40291 0.48724 0.97003 0.0
C1389 C 0.39353 0.56073 0.89007 0.0
C1390 C 0.38752 0.52298 0.88286 0.0
H1391 H 0.41026 0.60102 0.93021 0.0
H1392 H 0.39299 0.58109 0.86743 0.0
C1393 C 0.38998 0.49693 0.91231 0.0
C1394 C 0.77657 0.34534 0.31439 0.0
C1395 C 0.80697 0.3248 0.29934 0.0
H1396 H 0.75229 0.37121 0.36255 0.0
C1397 C 0.839 0.31936 0.32147 0.0
H1398 H 0.75161 0.35094 0.29802 0.0
C1399 C 0.83951 0.33178 0.35847 0.0
C1400 C 0.80809 0.3501 0.37417 0.0
H1401 H 0.86327 0.30464 0.3106 0.0
H1402 H 0.86358 0.3248 0.37568 0.0
C1403 C 0.77724 0.35803 0.3512 0.0
C1404 C 0.10238 0.41192 0.43503 0.0
C1405 C 0.10863 0.44019 0.46093 0.0
H1406 H 0.10132 0.39713 0.37711 0.0
C1407 C 0.12606 0.47305 0.44818 0.0
H1408 H 0.08955 0.38612 0.4438 0.0
C1409 C 0.13395 0.47882 0.41015 0.0
C1410 C 0.12447 0.45198 0.38389 0.0
H1411 H 0.13214 0.49523 0.46737 0.0
H1412 H 0.144 0.50574 0.40094 0.0
C1413 C 0.10996 0.4179 0.3969 0.0
C1414 C 0.28712 0.1456 0.68326 0.0
C1415 C 0.31755 0.16436 0.69925 0.0
H1416 H 0.26325 0.1219 0.63418 0.0
C1417 C 0.35005 0.16853 0.6776 0.0
H1418 H 0.26176 0.14099 0.69914 0.0
C1419 C 0.35105 0.1567 0.64031 0.0
C1420 C 0.31965 0.14024 0.62364 0.0
H1421 H 0.37437 0.18183 0.68909 0.0
H1422 H 0.37558 0.16279 0.62363 0.0
C1423 C 0.28824 0.13355 0.64612 0.0
C1424 C 0.41999 0.44973 0.59058 0.0
C1425 C 0.40786 0.46869 0.55812 0.0
H1426 H 0.41372 0.44233 0.64974 0.0
C1427 C 0.37933 0.49606 0.56142 0.0
H1428 H 0.44164 0.42835 0.58909 0.0
C1429 C 0.36265 0.50347 0.59607 0.0
C1430 C 0.3745 0.48416 0.6284 0.0
H1431 H 0.36893 0.51102 0.53699 0.0
H1432 H 0.34061 0.52444 0.59752 0.0
C1433 C 0.40375 0.4576 0.62532 0.0
C1434 C 0.61091 0.08128 0.58026 0.0
C1435 C 0.58928 0.05537 0.56084 0.0
H1436 H 0.64288 0.09256 0.62975 0.0
C1437 C 0.5799 0.02198 0.57952 0.0
H1438 H 0.61903 0.10709 0.5668 0.0
C1439 C 0.59308 0.01402 0.6158 0.0
C1440 C 0.61648 0.03894 0.63415 0.0
H1441 H 0.56353 0.00126 0.56547 0.0
H1442 H 0.58642 0.98754 0.6288 0.0
C1443 C 0.62476 0.07292 0.61629 0.0
C1444 C 0.66422 0.71631 0.32323 0.0
C1445 C 0.68536 0.68377 0.3308 0.0
H1446 H 0.61372 0.74755 0.33256 0.0
C1447 C 0.6692 0.65631 0.35411 0.0
H1448 H 0.67597 0.7384 0.30621 0.0
C1449 C 0.63342 0.66199 0.37035 0.0
C1450 C 0.61263 0.69502 0.36317 0.0
H1451 H 0.68506 0.63134 0.36147 0.0
H1452 H 0.62229 0.64077 0.38884 0.0
C1453 C 0.62845 0.72163 0.33871 0.0
C1454 C 0.98074 0.05307 0.87308 0.0
C1455 C 0.95322 0.04801 0.9009 0.0
H1456 H 0.01182 0.09102 0.8391 0.0
C1457 C 0.93578 0.07988 0.91594 0.0
H1458 H 0.99472 0.02935 0.86049 0.0
C1459 C 0.94614 0.1158 0.90376 0.0
C1460 C 0.97361 0.12058 0.87576 0.0
H1461 H 0.91454 0.0771 0.93737 0.0
H1462 H 0.93242 0.1398 0.91608 0.0
C1463 C 0.99054 0.08864 0.86056 0.0
C1464 C 0.31089 0.77478 0.34482 0.0
C1465 C 0.29715 0.80527 0.32315 0.0
H1466 H 0.35842 0.74777 0.37075 0.0
C1467 C 0.32161 0.83446 0.31502 0.0
H1468 H 0.29282 0.75195 0.35233 0.0
C1469 C 0.35913 0.83224 0.32633 0.0
C1470 C 0.37332 0.80084 0.34619 0.0
H1471 H 0.31202 0.85873 0.29926 0.0
H1472 H 0.37766 0.85438 0.31778 0.0
C1473 C 0.34841 0.77266 0.35627 0.0
C1474 C 0.00709 0.44047 0.90618 0.0
C1475 C 0.0446 0.44581 0.91636 0.0
H1476 H 0.96537 0.40135 0.89049 0.0
C1477 C 0.07013 0.41582 0.91293 0.0
H1478 H 0.9868 0.4631 0.90797 0.0
C1479 C 0.05805 0.3809 0.90125 0.0
C1480 C 0.02019 0.37516 0.89312 0.0
H1481 H 0.09939 0.4192 0.91968 0.0
H1482 H 0.07778 0.35767 0.90132 0.0
C1483 C 0.99495 0.40542 0.89517 0.0
C1484 C 0.66325 0.34203 0.14712 0.0
C1485 C 0.67922 0.31437 0.17067 0.0
H1486 H 0.61565 0.35877 0.11375 0.0
C1487 C 0.65796 0.28375 0.1814 0.0
H1488 H 0.67965 0.36551 0.13779 0.0
C1489 C 0.6218 0.27999 0.16793 0.0
C1490 C 0.60616 0.30642 0.14271 0.0
H1491 H 0.66997 0.26181 0.19892 0.0
H1492 H 0.60679 0.25519 0.17599 0.0
C1493 C 0.62697 0.33792 0.13293 0.0
C1494 C 0.50281 0.06285 0.09702 0.0
C1495 C 0.54029 0.05356 0.08908 0.0
H1496 H 0.46375 0.10581 0.11235 0.0
C1497 C 0.56803 0.08002 0.09616 0.0
H1498 H 0.48078 0.04301 0.09269 0.0
C1499 C 0.55824 0.11561 0.10864 0.0
C1500 C 0.5206 0.1254 0.11426 0.0
H1501 H 0.5973 0.0736 0.09119 0.0
H1502 H 0.57975 0.1364 0.11078 0.0
C1503 C 0.49311 0.09841 0.10943 0.0
C1504 C 0.32771 0.16476 0.1786 0.0
C1505 C 0.30426 0.19489 0.16849 0.0
H1506 H 0.38349 0.14272 0.17896 0.0
C1507 C 0.31809 0.22311 0.14482 0.0
H1508 H 0.31754 0.14195 0.19571 0.0
C1509 C 0.35558 0.22303 0.13443 0.0
C1510 C 0.37983 0.19505 0.14811 0.0
H1511 H 0.30036 0.24611 0.13545 0.0
H1512 H 0.36615 0.24676 0.11892 0.0
C1513 C 0.36522 0.16476 0.16831 0.0
C1514 C 0.48965 0.44398 0.12295 0.0
C1515 C 0.45865 0.45339 0.1003 0.0
H1516 H 0.51938 0.4021 0.15415 0.0
C1517 C 0.4335 0.42511 0.09124 0.0
H1518 H 0.50956 0.46485 0.13095 0.0
C1519 C 0.43972 0.38824 0.10432 0.0
C1520 C 0.47045 0.37945 0.12765 0.0
H1521 H 0.40934 0.43141 0.07394 0.0
H1522 H 0.42018 0.36685 0.09684 0.0
C1523 C 0.49521 0.40785 0.13665 0.0
C1524 C 0.33601 0.66813 0.65629 0.0
C1525 C 0.31118 0.6845 0.68217 0.0
H1526 H 0.37487 0.62317 0.6451 0.0
C1527 C 0.30438 0.66555 0.71602 0.0
H1528 H 0.34278 0.68267 0.63049 0.0
C1529 C 0.32281 0.63181 0.72447 0.0
C1530 C 0.3492 0.61628 0.69964 0.0
H1531 H 0.28632 0.67797 0.73696 0.0
H1532 H 0.31772 0.61883 0.75145 0.0
C1533 C 0.35502 0.63446 0.66503 0.0
C1534 C 0.95015 0.38879 0.51106 0.0
C1535 C 0.9583 0.39564 0.54879 0.0
H1536 H 0.90701 0.38049 0.47036 0.0
C1537 C 0.92955 0.39214 0.57545 0.0
H1538 H 0.97174 0.39104 0.48991 0.0
C1539 C 0.89298 0.38462 0.56439 0.0
C1540 C 0.88426 0.38083 0.52644 0.0
H1541 H 0.93502 0.39658 0.60483 0.0
H1542 H 0.87093 0.38502 0.58522 0.0
C1543 C 0.91328 0.38201 0.49993 0.0
C1544 C 0.69131 0.84321 0.71596 0.0
C1545 C 0.67753 0.82107 0.68745 0.0
H1546 H 0.68878 0.89557 0.74287 0.0
C1547 C 0.65238 0.83662 0.66113 0.0
H1548 H 0.71047 0.83161 0.73663 0.0
C1549 C 0.6389 0.87317 0.66517 0.0
C1550 C 0.65115 0.89473 0.69506 0.0
H1551 H 0.64106 0.8197 0.63913 0.0
H1552 H 0.61787 0.88393 0.64594 0.0
C1553 C 0.67868 0.87983 0.71943 0.0
C1554 C 0.09983 0.07332 0.55804 0.0
C1555 C 0.06849 0.0845 0.53668 0.0
H1556 H 0.15827 0.08093 0.56929 0.0
C1557 C 0.07308 0.11256 0.50924 0.0
H1558 H 0.09718 0.05213 0.57967 0.0
C1559 C 0.10757 0.13001 0.50434 0.0
C1560 C 0.13872 0.11929 0.52608 0.0
H1561 H 0.04953 0.1224 0.49265 0.0
H1562 H 0.10982 0.15198 0.48344 0.0
C1563 C 0.1347 0.09007 0.55233 0.0
C1564 C 0.34287 0.32034 0.78307 0.0
C1565 C 0.32395 0.3069 0.81517 0.0
H1566 H 0.36718 0.36704 0.75461 0.0
C1567 C 0.31902 0.33101 0.84539 0.0
H1568 H 0.34789 0.3025 0.75933 0.0
C1569 C 0.33086 0.36801 0.84276 0.0
C1570 C 0.34808 0.38184 0.80993 0.0
H1571 H 0.30555 0.32153 0.87086 0.0
H1572 H 0.32474 0.38647 0.86578 0.0
C1573 C 0.35494 0.3572 0.78058 0.0
C1574 C 0.58789 0.41849 0.4354 0.0
C1575 C 0.55753 0.41096 0.4592 0.0
H1576 H 0.64652 0.40929 0.4243 0.0
C1577 C 0.56353 0.38673 0.49006 0.0
H1578 H 0.58417 0.4367 0.41127 0.0
C1579 C 0.59856 0.37007 0.49667 0.0
C1580 C 0.62902 0.37783 0.47325 0.0
H1581 H 0.54077 0.3797 0.50875 0.0
H1582 H 0.60191 0.35147 0.52057 0.0
C1583 C 0.62347 0.40266 0.44279 0.0
C1584 C 0.66695 0.16738 0.84618 0.0
C1585 C 0.65692 0.18857 0.81446 0.0
H1586 H 0.66807 0.11319 0.87164 0.0
C1587 C 0.63254 0.17335 0.78806 0.0
H1588 H 0.6845 0.17888 0.86767 0.0
C1589 C 0.62194 0.13632 0.79108 0.0
C1590 C 0.63648 0.11369 0.81994 0.0
H1591 H 0.6228 0.18956 0.76415 0.0
H1592 H 0.60626 0.12449 0.76834 0.0
C1593 C 0.65668 0.13014 0.84897 0.0
C1594 C 0.45541 0.12388 0.47386 0.0
C1595 C 0.46686 0.10552 0.44089 0.0
H1596 H 0.40935 0.1412 0.50864 0.0
C1597 C 0.43956 0.09684 0.41444 0.0
H1598 H 0.47567 0.13155 0.49475 0.0
C1599 C 0.40165 0.10327 0.42226 0.0
C1600 C 0.39015 0.11859 0.45658 0.0
H1601 H 0.44724 0.08322 0.38863 0.0
H1602 H 0.38103 0.09337 0.40272 0.0
C1603 C 0.41741 0.13027 0.48165 0.0
C1604 C 0.65833 0.33353 0.65885 0.0
C1605 C 0.68654 0.31224 0.67683 0.0
H1606 H 0.64396 0.36906 0.61211 0.0
C1607 C 0.72111 0.30713 0.65898 0.0
H1608 H 0.63168 0.33857 0.6725 0.0
C1609 C 0.72798 0.32428 0.62449 0.0
C1610 C 0.70077 0.34773 0.60768 0.0
H1611 H 0.74345 0.29144 0.67264 0.0
H1612 H 0.75541 0.3208 0.61198 0.0
C1613 C 0.66555 0.35152 0.6247 0.0
C1614 C 0.66977 0.67363 0.83844 0.0
C1615 C 0.69908 0.69178 0.81967 0.0
H1616 H 0.65309 0.64208 0.8869 0.0
C1617 C 0.73355 0.69534 0.83775 0.0
H1618 H 0.6431 0.66987 0.82477 0.0
C1619 C 0.73896 0.68014 0.87357 0.0
C1620 C 0.71043 0.6599 0.89137 0.0
H1621 H 0.75666 0.70874 0.82364 0.0
H1622 H 0.76621 0.68247 0.88647 0.0
C1623 C 0.67556 0.65736 0.87376 0.0
C1624 C 0.89828 0.00778 0.44828 0.0
C1625 C 0.90738 0.04507 0.455 0.0
H1626 H 0.88465 0.96729 0.40714 0.0
C1627 C 0.90301 0.07154 0.426 0.0
H1628 H 0.90099 0.98681 0.4702 0.0
C1629 C 0.89207 0.06048 0.39036 0.0
C1630 C 0.88587 0.02279 0.38308 0.0
H1631 H 0.90906 0.10059 0.43055 0.0
H1632 H 0.89168 0.08088 0.36774 0.0
C1633 C 0.8881 0.99667 0.41248 0.0
C1634 C 0.27607 0.84541 0.81394 0.0
C1635 C 0.30655 0.82497 0.79893 0.0
H1636 H 0.25172 0.8713 0.86203 0.0
C1637 C 0.33864 0.81976 0.82102 0.0
H1638 H 0.25106 0.85084 0.79759 0.0
C1639 C 0.33913 0.83229 0.85797 0.0
C1640 C 0.30763 0.85047 0.87365 0.0
H1641 H 0.36297 0.80513 0.81016 0.0
H1642 H 0.36326 0.82548 0.87518 0.0
C1643 C 0.27672 0.85821 0.8507 0.0
C1644 C 0.62582 0.97253 0.94822 0.0
C1645 C 0.6081 0.93977 0.96088 0.0
H1646 H 0.6437 0.00543 0.90108 0.0
C1647 C 0.60123 0.91185 0.93476 0.0
H1648 H 0.63235 0.99446 0.96754 0.0
C1649 C 0.60851 0.9181 0.8966 0.0
C1650 C 0.62335 0.9521 0.88371 0.0
H1651 H 0.58814 0.88615 0.94342 0.0
H1652 H 0.59945 0.8976 0.87671 0.0
C1653 C 0.6334 0.97857 0.91014 0.0
C1654 C 0.85076 0.6652 0.17903 0.0
C1655 C 0.81763 0.66301 0.20003 0.0
H1656 H 0.87699 0.65743 0.12568 0.0
C1657 C 0.78666 0.64537 0.18378 0.0
H1658 H 0.87549 0.67751 0.1908 0.0
C1659 C 0.78791 0.63268 0.14688 0.0
C1660 C 0.82003 0.63758 0.12494 0.0
H1661 H 0.76079 0.64229 0.19922 0.0
H1662 H 0.76258 0.62217 0.13457 0.0
C1663 C 0.85192 0.65267 0.142 0.0
C1664 C 0.92002 0.94709 0.09211 0.0
C1665 C 0.91012 0.96746 0.05976 0.0
H1666 H 0.91123 0.93877 0.15086 0.0
C1667 C 0.88282 0.99609 0.0627 0.0
H1668 H 0.94064 0.92471 0.09082 0.0
C1669 C 0.86517 0.00347 0.09686 0.0
C1670 C 0.87491 0.9829 0.12909 0.0
H1671 H 0.8741 0.01214 0.0383 0.0
H1672 H 0.84417 0.02549 0.09807 0.0
C1673 C 0.90291 0.95499 0.12643 0.0
C1674 C 0.11144 0.58092 0.08065 0.0
C1675 C 0.0908 0.55454 0.06078 0.0
H1676 H 0.14231 0.5928 0.13069 0.0
C1677 C 0.08209 0.52079 0.07917 0.0
H1678 H 0.11908 0.60701 0.06743 0.0
C1679 C 0.095 0.51297 0.11557 0.0
C1680 C 0.11736 0.53844 0.13443 0.0
H1681 H 0.06649 0.4997 0.0648 0.0
H1682 H 0.08895 0.4862 0.12829 0.0
C1683 C 0.12493 0.57276 0.11687 0.0
loop_
_geom_bond_atom_site_label_1
_geom_bond_atom_site_label_2
_geom_bond_distance
_geom_bond_site_symmetry_2
_ccdc_geom_bond_type
Fe0 O2 1.918 . S
Fe0 O5 1.997 . S
Fe0 O6 2.002 . S
Fe0 O11 1.976 . S
Fe0 O14 1.996 . S
Fe1 O2 1.918 . S
Fe1 O9 1.997 . S
Fe1 O12 1.996 . S
Fe1 O16 1.976 . S
Fe1 O19 2.002 . S
O2 Fe0 1.918 . S
O2 Fe1 1.918 . S
O2 Fe3 1.918 . S
Fe3 O2 1.918 . S
Fe3 O4 2.002 . S
Fe3 O13 1.976 . S
Fe3 O17 1.996 . S
Fe3 O20 1.997 . S
O4 Fe3 2.002 . S
O4 C21 1.295 . S
O5 Fe0 1.997 . S
O5 C21 1.235 . S
O6 Fe0 2.002 . S
O6 C7 1.295 . S
C7 O6 1.295 . S
C7 O9 1.235 . S
C8 O13 1.287 . S
C8 O14 1.255 . S
O9 Fe1 1.997 . S
O9 C7 1.235 . S
C10 O16 1.287 . S
C10 O17 1.255 . S
O11 Fe0 1.976 . S
O11 C18 1.287 . S
O12 Fe1 1.996 . S
O12 C18 1.255 . S
O13 Fe3 1.976 . S
O13 C8 1.287 . S
O14 Fe0 1.996 . S
O14 C8 1.255 . S
C15 O19 1.295 . S
C15 O20 1.235 . S
O16 Fe1 1.976 . S
O16 C10 1.287 . S
O17 Fe3 1.996 . S
O17 C10 1.255 . S
C18 O11 1.287 . S
C18 O12 1.255 . S
O19 Fe1 2.002 . S
O19 C15 1.295 . S
O20 Fe3 1.997 . S
O20 C15 1.235 . S
C21 O4 1.295 . S
C21 O5 1.235 . S
Fe22 O24 1.918 . S
Fe22 O27 1.997 . S
Fe22 O28 2.002 . S
Fe22 O33 1.976 . S
Fe22 O36 1.996 . S
Fe23 O24 1.918 . S
Fe23 O31 1.997 . S
Fe23 O34 1.996 . S
Fe23 O38 1.976 . S
Fe23 O41 2.002 . S
O24 Fe22 1.918 . S
O24 Fe23 1.918 . S
O24 Fe25 1.918 . S
Fe25 O24 1.918 . S
Fe25 O26 2.002 . S
Fe25 O35 1.976 . S
Fe25 O39 1.996 . S
Fe25 O42 1.997 . S
O26 Fe25 2.002 . S
O26 C43 1.295 . S
O27 Fe22 1.997 . S
O27 C43 1.235 . S
O28 Fe22 2.002 . S
O28 C29 1.295 . S
C29 O28 1.295 . S
C29 O31 1.235 . S
C30 O35 1.287 . S
C30 O36 1.255 . S
O31 Fe23 1.997 . S
O31 C29 1.235 . S
C32 O38 1.287 1_556 S
C32 O39 1.255 1_556 S
O33 Fe22 1.976 . S
O33 C40 1.287 . S
O34 Fe23 1.996 . S
O34 C40 1.255 . S
O35 Fe25 1.976 . S
O35 C30 1.287 . S
O36 Fe22 1.996 . S
O36 C30 1.255 . S
C37 O41 1.295 . S
C37 O42 1.235 . S
O38 Fe23 1.976 . S
O38 C32 1.287 1_554 S
O39 Fe25 1.996 . S
O39 C32 1.255 1_554 S
C40 O33 1.287 . S
C40 O34 1.255 . S
O41 Fe23 2.002 . S
O41 C37 1.295 . S
O42 Fe25 1.997 . S
O42 C37 1.235 . S
C43 O26 1.295 . S
C43 O27 1.235 . S
Fe44 O46 1.918 . S
Fe44 O49 1.997 . S
Fe44 O50 2.002 . S
Fe44 O55 1.976 . S
Fe44 O58 1.996 . S
Fe45 O46 1.918 . S
Fe45 O53 1.997 . S
Fe45 O56 1.996 . S
Fe45 O60 1.976 . S
Fe45 O63 2.002 . S
O46 Fe44 1.918 . S
O46 Fe45 1.918 . S
O46 Fe47 1.918 . S
Fe47 O46 1.918 . S
Fe47 O48 2.002 . S
Fe47 O57 1.976 . S
Fe47 O61 1.996 . S
Fe47 O64 1.997 . S
O48 Fe47 2.002 . S
O48 C65 1.295 . S
O49 Fe44 1.997 . S
O49 C65 1.235 . S
O50 Fe44 2.002 . S
O50 C51 1.295 . S
C51 O50 1.295 . S
C51 O53 1.235 . S
C52 O57 1.287 . S
C52 O58 1.255 . S
O53 Fe45 1.997 . S
O53 C51 1.235 . S
C54 O60 1.287 . S
C54 O61 1.255 . S
O55 Fe44 1.976 . S
O55 C62 1.287 . S
O56 Fe45 1.996 . S
O56 C62 1.255 . S
O57 Fe47 1.976 . S
O57 C52 1.287 . S
O58 Fe44 1.996 . S
O58 C52 1.255 . S
C59 O63 1.295 . S
C59 O64 1.235 . S
O60 Fe45 1.976 . S
O60 C54 1.287 . S
O61 Fe47 1.996 . S
O61 C54 1.255 . S
C62 O55 1.287 . S
C62 O56 1.255 . S
O63 Fe45 2.002 . S
O63 C59 1.295 . S
O64 Fe47 1.997 . S
O64 C59 1.235 . S
C65 O48 1.295 . S
C65 O49 1.235 . S
Fe66 O68 1.918 . S
Fe66 O71 1.997 . S
Fe66 O72 2.002 . S
Fe66 O77 1.976 . S
Fe66 O80 1.996 . S
Fe67 O68 1.918 . S
Fe67 O75 1.997 . S
Fe67 O78 1.996 . S
Fe67 O82 1.976 . S
Fe67 O85 2.002 . S
O68 Fe66 1.918 . S
O68 Fe67 1.918 . S
O68 Fe69 1.918 . S
Fe69 O68 1.918 . S
Fe69 O70 2.002 . S
Fe69 O79 1.976 . S
Fe69 O83 1.996 . S
Fe69 O86 1.997 . S
O70 Fe69 2.002 . S
O70 C87 1.295 . S
O71 Fe66 1.997 . S
O71 C87 1.235 . S
O72 Fe66 2.002 . S
O72 C73 1.295 . S
C73 O72 1.295 . S
C73 O75 1.235 . S
C74 O79 1.287 1_545 S
C74 O80 1.255 1_545 S
O75 Fe67 1.997 . S
O75 C73 1.235 . S
C76 O82 1.287 1_556 S
C76 O83 1.255 1_556 S
O77 Fe66 1.976 . S
O77 C84 1.287 . S
O78 Fe67 1.996 . S
O78 C84 1.255 . S
O79 Fe69 1.976 . S
O79 C74 1.287 1_565 S
O80 Fe66 1.996 . S
O80 C74 1.255 1_565 S
C81 O85 1.295 . S
C81 O86 1.235 . S
O82 Fe67 1.976 . S
O82 C76 1.287 1_554 S
O83 Fe69 1.996 . S
O83 C76 1.255 1_554 S
C84 O77 1.287 . S
C84 O78 1.255 . S
O85 Fe67 2.002 . S
O85 C81 1.295 . S
O86 Fe69 1.997 . S
O86 C81 1.235 . S
C87 O70 1.295 . S
C87 O71 1.235 . S
Fe88 O90 1.918 . S
Fe88 O93 1.997 . S
Fe88 O94 2.002 . S
Fe88 O99 1.976 . S
Fe88 O102 1.996 . S
Fe89 O90 1.918 . S
Fe89 O97 1.997 . S
Fe89 O100 1.996 . S
Fe89 O104 1.976 . S
Fe89 O107 2.002 . S
O90 Fe88 1.918 . S
O90 Fe89 1.918 . S
O90 Fe91 1.918 . S
Fe91 O90 1.918 . S
Fe91 O92 2.002 . S
Fe91 O101 1.976 . S
Fe91 O105 1.996 . S
Fe91 O108 1.997 . S
O92 Fe91 2.002 . S
O92 C109 1.295 . S
O93 Fe88 1.997 . S
O93 C109 1.235 . S
O94 Fe88 2.002 . S
O94 C95 1.295 . S
C95 O94 1.295 . S
C95 O97 1.235 . S
C96 O101 1.287 . S
C96 O102 1.255 . S
O97 Fe89 1.997 . S
O97 C95 1.235 . S
C98 O104 1.287 . S
C98 O105 1.255 . S
O99 Fe88 1.976 . S
O99 C106 1.287 . S
O100 Fe89 1.996 . S
O100 C106 1.255 . S
O101 Fe91 1.976 . S
O101 C96 1.287 . S
O102 Fe88 1.996 . S
O102 C96 1.255 . S
C103 O107 1.295 . S
C103 O108 1.235 . S
O104 Fe89 1.976 . S
O104 C98 1.287 . S
O105 Fe91 1.996 . S
O105 C98 1.255 . S
C106 O99 1.287 . S
C106 O100 1.255 . S
O107 Fe89 2.002 . S
O107 C103 1.295 . S
O108 Fe91 1.997 . S
O108 C103 1.235 . S
C109 O92 1.295 . S
C109 O93 1.235 . S
Fe110 O112 1.918 . S
Fe110 O115 1.997 . S
Fe110 O116 2.002 . S
Fe110 O121 1.976 . S
Fe110 O124 1.996 . S
Fe111 O112 1.918 . S
Fe111 O119 1.997 . S
Fe111 O122 1.996 . S
Fe111 O126 1.976 . S
Fe111 O129 2.002 . S
O112 Fe110 1.918 . S
O112 Fe111 1.918 . S
O112 Fe113 1.918 . S
Fe113 O112 1.918 . S
Fe113 O114 2.002 . S
Fe113 O123 1.976 . S
Fe113 O127 1.996 . S
Fe113 O130 1.997 . S
O114 Fe113 2.002 . S
O114 C131 1.295 . S
O115 Fe110 1.997 . S
O115 C131 1.235 . S
O116 Fe110 2.002 . S
O116 C117 1.295 . S
C117 O116 1.295 . S
C117 O119 1.235 . S
C118 O123 1.287 1_554 S
C118 O124 1.255 1_554 S
O119 Fe111 1.997 . S
O119 C117 1.235 . S
C120 O126 1.287 1_655 S
C120 O127 1.255 1_655 S
O121 Fe110 1.976 . S
O121 C128 1.287 . S
O122 Fe111 1.996 . S
O122 C128 1.255 . S
O123 Fe113 1.976 . S
O123 C118 1.287 1_556 S
O124 Fe110 1.996 . S
O124 C118 1.255 1_556 S
C125 O129 1.295 . S
C125 O130 1.235 . S
O126 Fe111 1.976 . S
O126 C120 1.287 1_455 S
O127 Fe113 1.996 . S
O127 C120 1.255 1_455 S
C128 O121 1.287 . S
C128 O122 1.255 . S
O129 Fe111 2.002 . S
O129 C125 1.295 . S
O130 Fe113 1.997 . S
O130 C125 1.235 . S
C131 O114 1.295 . S
C131 O115 1.235 . S
Fe132 O134 1.918 . S
Fe132 O137 1.997 . S
Fe132 O138 2.002 . S
Fe132 O143 1.976 . S
Fe132 O146 1.996 . S
Fe133 O134 1.918 . S
Fe133 O141 1.997 . S
Fe133 O144 1.996 . S
Fe133 O148 1.976 . S
Fe133 O151 2.002 . S
O134 Fe132 1.918 . S
O134 Fe133 1.918 . S
O134 Fe135 1.918 . S
Fe135 O134 1.918 . S
Fe135 O136 2.002 . S
Fe135 O145 1.976 . S
Fe135 O149 1.996 . S
Fe135 O152 1.997 . S
O136 Fe135 2.002 . S
O136 C153 1.295 . S
O137 Fe132 1.997 . S
O137 C153 1.235 . S
O138 Fe132 2.002 . S
O138 C139 1.295 . S
C139 O138 1.295 . S
C139 O141 1.235 . S
C140 O145 1.287 . S
C140 O146 1.255 . S
O141 Fe133 1.997 . S
O141 C139 1.235 . S
C142 O148 1.287 . S
C142 O149 1.255 . S
O143 Fe132 1.976 . S
O143 C150 1.287 . S
O144 Fe133 1.996 . S
O144 C150 1.255 . S
O145 Fe135 1.976 . S
O145 C140 1.287 . S
O146 Fe132 1.996 . S
O146 C140 1.255 . S
C147 O151 1.295 . S
C147 O152 1.235 . S
O148 Fe133 1.976 . S
O148 C142 1.287 . S
O149 Fe135 1.996 . S
O149 C142 1.255 . S
C150 O143 1.287 . S
C150 O144 1.255 . S
O151 Fe133 2.002 . S
O151 C147 1.295 . S
O152 Fe135 1.997 . S
O152 C147 1.235 . S
C153 O136 1.295 . S
C153 O137 1.235 . S
Fe154 O156 1.918 . S
Fe154 O159 1.997 . S
Fe154 O160 2.002 . S
Fe154 O165 1.976 . S
Fe154 O168 1.996 . S
Fe155 O156 1.918 . S
Fe155 O163 1.997 . S
Fe155 O166 1.996 . S
Fe155 O170 1.976 . S
Fe155 O173 2.002 . S
O156 Fe154 1.918 . S
O156 Fe155 1.918 . S
O156 Fe157 1.918 . S
Fe157 O156 1.918 . S
Fe157 O158 2.002 . S
Fe157 O167 1.976 . S
Fe157 O171 1.996 . S
Fe157 O174 1.997 . S
O158 Fe157 2.002 . S
O158 C175 1.295 . S
O159 Fe154 1.997 . S
O159 C175 1.235 . S
O160 Fe154 2.002 . S
O160 C161 1.295 . S
C161 O160 1.295 . S
C161 O163 1.235 . S
C162 O167 1.287 1_554 S
C162 O168 1.255 1_554 S
O163 Fe155 1.997 . S
O163 C161 1.235 . S
C164 O170 1.287 1_455 S
C164 O171 1.255 1_455 S
O165 Fe154 1.976 . S
O165 C172 1.287 1_565 S
O166 Fe155 1.996 . S
O166 C172 1.255 1_565 S
O167 Fe157 1.976 . S
O167 C162 1.287 1_556 S
O168 Fe154 1.996 . S
O168 C162 1.255 1_556 S
C169 O173 1.295 . S
C169 O174 1.235 . S
O170 Fe155 1.976 . S
O170 C164 1.287 1_655 S
O171 Fe157 1.996 . S
O171 C164 1.255 1_655 S
C172 O165 1.287 1_545 S
C172 O166 1.255 1_545 S
O173 Fe155 2.002 . S
O173 C169 1.295 . S
O174 Fe157 1.997 . S
O174 C169 1.235 . S
C175 O158 1.295 . S
C175 O159 1.235 . S
Fe176 O178 1.918 . S
Fe176 O181 1.997 . S
Fe176 O182 2.002 . S
Fe176 O187 1.976 . S
Fe176 O190 1.996 . S
Fe177 O178 1.918 . S
Fe177 O185 1.997 . S
Fe177 O188 1.996 . S
Fe177 O192 1.976 . S
Fe177 O195 2.002 . S
O178 Fe176 1.918 . S
O178 Fe177 1.918 . S
O178 Fe179 1.918 . S
Fe179 O178 1.918 . S
Fe179 O180 2.002 . S
Fe179 O189 1.976 . S
Fe179 O193 1.996 . S
Fe179 O196 1.997 . S
O180 Fe179 2.002 . S
O180 C197 1.295 . S
O181 Fe176 1.997 . S
O181 C197 1.235 . S
O182 Fe176 2.002 . S
O182 C183 1.295 . S
C183 O182 1.295 . S
C183 O185 1.235 . S
C184 O189 1.287 . S
C184 O190 1.255 . S
O185 Fe177 1.997 . S
O185 C183 1.235 . S
C186 O192 1.287 . S
C186 O193 1.255 . S
O187 Fe176 1.976 . S
O187 C194 1.287 . S
O188 Fe177 1.996 . S
O188 C194 1.255 . S
O189 Fe179 1.976 . S
O189 C184 1.287 . S
O190 Fe176 1.996 . S
O190 C184 1.255 . S
C191 O195 1.295 . S
C191 O196 1.235 . S
O192 Fe177 1.976 . S
O192 C186 1.287 . S
O193 Fe179 1.996 . S
O193 C186 1.255 . S
C194 O187 1.287 . S
C194 O188 1.255 . S
O195 Fe177 2.002 . S
O195 C191 1.295 . S
O196 Fe179 1.997 . S
O196 C191 1.235 . S
C197 O180 1.295 . S
C197 O181 1.235 . S
Fe198 O200 1.918 . S
Fe198 O203 1.997 . S
Fe198 O204 2.002 . S
Fe198 O209 1.976 . S
Fe198 O212 1.996 . S
Fe199 O200 1.918 . S
Fe199 O207 1.997 . S
Fe199 O210 1.996 . S
Fe199 O214 1.976 . S
Fe199 O217 2.002 . S
O200 Fe198 1.918 . S
O200 Fe199 1.918 . S
O200 Fe201 1.918 . S
Fe201 O200 1.918 . S
Fe201 O202 2.002 . S
Fe201 O211 1.976 . S
Fe201 O215 1.996 . S
Fe201 O218 1.997 . S
O202 Fe201 2.002 . S
O202 C219 1.295 . S
O203 Fe198 1.997 . S
O203 C219 1.235 . S
O204 Fe198 2.002 . S
O204 C205 1.295 . S
C205 O204 1.295 . S
C205 O207 1.235 . S
C206 O211 1.287 . S
C206 O212 1.255 . S
O207 Fe199 1.997 . S
O207 C205 1.235 . S
C208 O214 1.287 . S
C208 O215 1.255 . S
O209 Fe198 1.976 . S
O209 C216 1.287 . S
O210 Fe199 1.996 . S
O210 C216 1.255 . S
O211 Fe201 1.976 . S
O211 C206 1.287 . S
O212 Fe198 1.996 . S
O212 C206 1.255 . S
C213 O217 1.295 . S
C213 O218 1.235 . S
O214 Fe199 1.976 . S
O214 C208 1.287 . S
O215 Fe201 1.996 . S
O215 C208 1.255 . S
C216 O209 1.287 . S
C216 O210 1.255 . S
O217 Fe199 2.002 . S
O217 C213 1.295 . S
O218 Fe201 1.997 . S
O218 C213 1.235 . S
C219 O202 1.295 . S
C219 O203 1.235 . S
Fe220 O222 1.918 . S
Fe220 O225 1.997 . S
Fe220 O226 2.002 . S
Fe220 O231 1.976 . S
Fe220 O234 1.996 . S
Fe221 O222 1.918 . S
Fe221 O229 1.997 . S
Fe221 O232 1.996 . S
Fe221 O236 1.976 . S
Fe221 O239 2.002 . S
O222 Fe220 1.918 . S
O222 Fe221 1.918 . S
O222 Fe223 1.918 . S
Fe223 O222 1.918 . S
Fe223 O224 2.002 . S
Fe223 O233 1.976 . S
Fe223 O237 1.996 . S
Fe223 O240 1.997 . S
O224 Fe223 2.002 . S
O224 C241 1.295 . S
O225 Fe220 1.997 . S
O225 C241 1.235 . S
O226 Fe220 2.002 . S
O226 C227 1.295 . S
C227 O226 1.295 . S
C227 O229 1.235 . S
C228 O233 1.287 1_655 S
C228 O234 1.255 1_655 S
O229 Fe221 1.997 . S
O229 C227 1.235 . S
C230 O236 1.287 . S
C230 O237 1.255 . S
O231 Fe220 1.976 . S
O231 C238 1.287 . S
O232 Fe221 1.996 . S
O232 C238 1.255 . S
O233 Fe223 1.976 . S
O233 C228 1.287 1_455 S
O234 Fe220 1.996 . S
O234 C228 1.255 1_455 S
C235 O239 1.295 . S
C235 O240 1.235 . S
O236 Fe221 1.976 . S
O236 C230 1.287 . S
O237 Fe223 1.996 . S
O237 C230 1.255 . S
C238 O231 1.287 . S
C238 O232 1.255 . S
O239 Fe221 2.002 . S
O239 C235 1.295 . S
O240 Fe223 1.997 . S
O240 C235 1.235 . S
C241 O224 1.295 . S
C241 O225 1.235 . S
Fe242 O244 1.918 . S
Fe242 O247 1.997 . S
Fe242 O248 2.002 . S
Fe242 O253 1.976 . S
Fe242 O256 1.996 . S
Fe243 O244 1.918 . S
Fe243 O251 1.997 . S
Fe243 O254 1.996 . S
Fe243 O258 1.976 . S
Fe243 O261 2.002 . S
O244 Fe242 1.918 . S
O244 Fe243 1.918 . S
O244 Fe245 1.918 . S
Fe245 O244 1.918 . S
Fe245 O246 2.002 . S
Fe245 O255 1.976 . S
Fe245 O259 1.996 . S
Fe245 O262 1.997 . S
O246 Fe245 2.002 . S
O246 C263 1.295 . S
O247 Fe242 1.997 . S
O247 C263 1.235 . S
O248 Fe242 2.002 . S
O248 C249 1.295 . S
C249 O248 1.295 . S
C249 O251 1.235 . S
C250 O255 1.287 1_565 S
C250 O256 1.255 1_565 S
O251 Fe243 1.997 . S
O251 C249 1.235 . S
C252 O258 1.287 . S
C252 O259 1.255 . S
O253 Fe242 1.976 . S
O253 C260 1.287 1_655 S
O254 Fe243 1.996 . S
O254 C260 1.255 1_655 S
O255 Fe245 1.976 . S
O255 C250 1.287 1_545 S
O256 Fe242 1.996 . S
O256 C250 1.255 1_545 S
C257 O261 1.295 . S
C257 O262 1.235 . S
O258 Fe243 1.976 . S
O258 C252 1.287 . S
O259 Fe245 1.996 . S
O259 C252 1.255 . S
C260 O253 1.287 1_455 S
C260 O254 1.255 1_455 S
O261 Fe243 2.002 . S
O261 C257 1.295 . S
O262 Fe245 1.997 . S
O262 C257 1.235 . S
C263 O246 1.295 . S
C263 O247 1.235 . S
Fe264 O266 1.918 . S
Fe264 O269 1.997 . S
Fe264 O270 2.002 . S
Fe264 O275 1.976 . S
Fe264 O278 1.996 . S
Fe265 O266 1.918 . S
Fe265 O273 1.997 . S
Fe265 O276 1.996 . S
Fe265 O280 1.976 . S
Fe265 O283 2.002 . S
O266 Fe264 1.918 . S
O266 Fe265 1.918 . S
O266 Fe267 1.918 . S
Fe267 O266 1.918 . S
Fe267 O268 2.002 . S
Fe267 O277 1.976 . S
Fe267 O281 1.996 . S
Fe267 O284 1.997 . S
O268 Fe267 2.002 . S
O268 C285 1.295 . S
O269 Fe264 1.997 . S
O269 C285 1.235 . S
O270 Fe264 2.002 . S
O270 C271 1.295 . S
C271 O270 1.295 . S
C271 O273 1.235 . S
C272 O277 1.287 . S
C272 O278 1.255 . S
O273 Fe265 1.997 . S
O273 C271 1.235 . S
C274 O280 1.287 . S
C274 O281 1.255 . S
O275 Fe264 1.976 . S
O275 C282 1.287 . S
O276 Fe265 1.996 . S
O276 C282 1.255 . S
O277 Fe267 1.976 . S
O277 C272 1.287 . S
O278 Fe264 1.996 . S
O278 C272 1.255 . S
C279 O283 1.295 . S
C279 O284 1.235 . S
O280 Fe265 1.976 . S
O280 C274 1.287 . S
O281 Fe267 1.996 . S
O281 C274 1.255 . S
C282 O275 1.287 . S
C282 O276 1.255 . S
O283 Fe265 2.002 . S
O283 C279 1.295 . S
O284 Fe267 1.997 . S
O284 C279 1.235 . S
C285 O268 1.295 . S
C285 O269 1.235 . S
Fe286 O288 1.918 . S
Fe286 O291 1.997 . S
Fe286 O292 2.002 . S
Fe286 O297 1.976 . S
Fe286 O300 1.996 . S
Fe287 O288 1.918 . S
Fe287 O295 1.997 . S
Fe287 O298 1.996 . S
Fe287 O302 1.976 . S
Fe287 O305 2.002 . S
O288 Fe286 1.918 . S
O288 Fe287 1.918 . S
O288 Fe289 1.918 . S
Fe289 O288 1.918 . S
Fe289 O290 2.002 . S
Fe289 O299 1.976 . S
Fe289 O303 1.996 . S
Fe289 O306 1.997 . S
O290 Fe289 2.002 . S
O290 C307 1.295 . S
O291 Fe286 1.997 . S
O291 C307 1.235 . S
O292 Fe286 2.002 . S
O292 C293 1.295 . S
C293 O292 1.295 . S
C293 O295 1.235 . S
C294 O299 1.287 . S
C294 O300 1.255 . S
O295 Fe287 1.997 . S
O295 C293 1.235 . S
C296 O302 1.287 . S
C296 O303 1.255 . S
O297 Fe286 1.976 . S
O297 C304 1.287 . S
O298 Fe287 1.996 . S
O298 C304 1.255 . S
O299 Fe289 1.976 . S
O299 C294 1.287 . S
O300 Fe286 1.996 . S
O300 C294 1.255 . S
C301 O305 1.295 . S
C301 O306 1.235 . S
O302 Fe287 1.976 . S
O302 C296 1.287 . S
O303 Fe289 1.996 . S
O303 C296 1.255 . S
C304 O297 1.287 . S
C304 O298 1.255 . S
O305 Fe287 2.002 . S
O305 C301 1.295 . S
O306 Fe289 1.997 . S
O306 C301 1.235 . S
C307 O290 1.295 . S
C307 O291 1.235 . S
Fe308 O310 1.918 . S
Fe308 O313 1.997 . S
Fe308 O314 2.002 . S
Fe308 O319 1.976 . S
Fe308 O322 1.996 . S
Fe309 O310 1.918 . S
Fe309 O317 1.997 . S
Fe309 O320 1.996 . S
Fe309 O324 1.976 . S
Fe309 O327 2.002 . S
O310 Fe308 1.918 . S
O310 Fe309 1.918 . S
O310 Fe311 1.918 . S
Fe311 O310 1.918 . S
Fe311 O312 2.002 . S
Fe311 O321 1.976 . S
Fe311 O325 1.996 . S
Fe311 O328 1.997 . S
O312 Fe311 2.002 . S
O312 C329 1.295 . S
O313 Fe308 1.997 . S
O313 C329 1.235 . S
O314 Fe308 2.002 . S
O314 C315 1.295 . S
C315 O314 1.295 . S
C315 O317 1.235 . S
C316 O321 1.287 . S
C316 O322 1.255 . S
O317 Fe309 1.997 . S
O317 C315 1.235 . S
C318 O324 1.287 . S
C318 O325 1.255 . S
O319 Fe308 1.976 . S
O319 C326 1.287 1_545 S
O320 Fe309 1.996 . S
O320 C326 1.255 1_545 S
O321 Fe311 1.976 . S
O321 C316 1.287 . S
O322 Fe308 1.996 . S
O322 C316 1.255 . S
C323 O327 1.295 . S
C323 O328 1.235 . S
O324 Fe309 1.976 . S
O324 C318 1.287 . S
O325 Fe311 1.996 . S
O325 C318 1.255 . S
C326 O319 1.287 1_565 S
C326 O320 1.255 1_565 S
O327 Fe309 2.002 . S
O327 C323 1.295 . S
O328 Fe311 1.997 . S
O328 C323 1.235 . S
C329 O312 1.295 . S
C329 O313 1.235 . S
Fe330 O332 1.918 . S
Fe330 O335 1.997 . S
Fe330 O336 2.002 . S
Fe330 O341 1.976 . S
Fe330 O344 1.996 . S
Fe331 O332 1.918 . S
Fe331 O339 1.997 . S
Fe331 O342 1.996 . S
Fe331 O346 1.976 . S
Fe331 O349 2.002 . S
O332 Fe330 1.918 . S
O332 Fe331 1.918 . S
O332 Fe333 1.918 . S
Fe333 O332 1.918 . S
Fe333 O334 2.002 . S
Fe333 O343 1.976 . S
Fe333 O347 1.996 . S
Fe333 O350 1.997 . S
O334 Fe333 2.002 . S
O334 C351 1.295 . S
O335 Fe330 1.997 . S
O335 C351 1.235 . S
O336 Fe330 2.002 . S
O336 C337 1.295 . S
C337 O336 1.295 . S
C337 O339 1.235 . S
C338 O343 1.287 . S
C338 O344 1.255 . S
O339 Fe331 1.997 . S
O339 C337 1.235 . S
C340 O346 1.287 . S
C340 O347 1.255 . S
O341 Fe330 1.976 . S
O341 C348 1.287 . S
O342 Fe331 1.996 . S
O342 C348 1.255 . S
O343 Fe333 1.976 . S
O343 C338 1.287 . S
O344 Fe330 1.996 . S
O344 C338 1.255 . S
C345 O349 1.295 . S
C345 O350 1.235 . S
O346 Fe331 1.976 . S
O346 C340 1.287 . S
O347 Fe333 1.996 . S
O347 C340 1.255 . S
C348 O341 1.287 . S
C348 O342 1.255 . S
O349 Fe331 2.002 . S
O349 C345 1.295 . S
O350 Fe333 1.997 . S
O350 C345 1.235 . S
C351 O334 1.295 . S
C351 O335 1.235 . S
C352 O379 1.312 . S
C352 O380 1.208 . S
C353 O374 1.331 1_554 S
C353 O377 1.244 1_554 S
C354 O376 1.264 . S
C354 O378 1.273 . S
Mg355 O357 1.936 1_455 S
Mg355 O364 2.081 1_455 S
Mg355 O366 2.023 . S
Mg355 O370 2.043 . S
Mg355 O379 2.291 . S
Mg356 O357 1.963 . S
Mg356 O367 1.942 . S
Mg356 O368 1.955 1_655 S
Mg356 O375 1.986 . S
O357 Mg355 1.936 1_655 S
O357 Mg356 1.963 . S
O357 Mg358 1.915 . S
Mg358 O357 1.915 . S
Mg358 O359 1.915 1_655 S
Mg358 O363 2.013 1_655 S
Mg358 O369 2.114 . S
Mg358 O373 2.013 . S
Mg358 O379 2.114 1_655 S
O359 Mg358 1.915 1_455 S
O359 Mg360 1.936 . S
O359 Mg361 1.963 1_455 S
Mg360 O359 1.936 . S
Mg360 O369 2.291 1_455 S
Mg360 O374 2.081 . S
Mg360 O376 2.023 1_455 S
Mg360 O380 2.031 . S
Mg361 O359 1.963 1_655 S
Mg361 O365 1.986 1_655 S
Mg361 O377 1.942 1_655 S
Mg361 O378 1.955 . S
C362 O373 1.191 . S
C362 O375 1.307 . S
O363 Mg358 2.013 1_455 S
O363 C382 1.191 . S
O364 Mg355 2.081 1_655 S
O364 C372 1.331 . S
O365 Mg361 1.986 1_455 S
O365 C382 1.307 . S
O366 Mg355 2.023 . S
O366 C381 1.264 . S
O367 Mg356 1.942 . S
O367 C372 1.244 . S
O368 Mg356 1.955 1_455 S
O368 C381 1.273 . S
O369 Mg358 2.114 . S
O369 Mg360 2.291 1_655 S
O369 C371 1.312 . S
O370 Mg355 2.043 . S
O370 C371 1.197 1_455 S
C371 O369 1.312 . S
C371 O370 1.197 1_655 S
C372 O364 1.331 . S
C372 O367 1.244 . S
O373 Mg358 2.013 . S
O373 C362 1.191 . S
O374 C353 1.331 1_556 S
O374 Mg360 2.081 . S
O375 Mg356 1.986 . S
O375 C362 1.307 . S
O376 C354 1.264 . S
O376 Mg360 2.023 1_655 S
O377 C353 1.244 1_556 S
O377 Mg361 1.942 1_455 S
O378 C354 1.273 . S
O378 Mg361 1.955 . S
O379 C352 1.312 . S
O379 Mg355 2.291 . S
O379 Mg358 2.114 1_455 S
O380 C352 1.208 . S
O380 Mg360 2.031 . S
C381 O366 1.264 . S
C381 O368 1.273 . S
C382 O363 1.191 . S
C382 O365 1.307 . S
C383 O410 1.312 . S
C383 O411 1.208 . S
C384 O405 1.331 . S
C384 O408 1.244 . S
C385 O407 1.264 . S
C385 O409 1.273 . S
Mg386 O388 1.936 . S
Mg386 O395 2.081 . S
Mg386 O397 2.023 . S
Mg386 O401 2.031 . S
Mg386 O410 2.291 . S
Mg387 O388 1.963 . S
Mg387 O398 1.942 . S
Mg387 O399 1.955 . S
Mg387 O406 1.986 . S
O388 Mg386 1.936 . S
O388 Mg387 1.963 . S
O388 Mg389 1.915 . S
Mg389 O388 1.915 . S
Mg389 O390 1.915 . S
Mg389 O394 2.013 . S
Mg389 O400 2.114 . S
Mg389 O404 2.013 . S
Mg389 O410 2.114 . S
O390 Mg389 1.915 . S
O390 Mg391 1.936 . S
O390 Mg392 1.963 . S
Mg391 O390 1.936 . S
Mg391 O400 2.291 . S
Mg391 O405 2.081 . S
Mg391 O407 2.023 . S
Mg391 O411 2.031 . S
Mg392 O390 1.963 . S
Mg392 O396 1.986 . S
Mg392 O408 1.942 . S
Mg392 O409 1.955 . S
C393 O404 1.191 . S
C393 O406 1.307 . S
O394 Mg389 2.013 . S
O394 C413 1.191 . S
O395 Mg386 2.081 . S
O395 C403 1.331 . S
O396 Mg392 1.986 . S
O396 C413 1.307 . S
O397 Mg386 2.023 . S
O397 C412 1.264 . S
O398 Mg387 1.942 . S
O398 C403 1.244 . S
O399 Mg387 1.955 . S
O399 C412 1.273 . S
O400 Mg389 2.114 . S
O400 Mg391 2.291 . S
O400 C402 1.312 . S
O401 Mg386 2.031 . S
O401 C402 1.208 . S
C402 O400 1.312 . S
C402 O401 1.208 . S
C403 O395 1.331 . S
C403 O398 1.244 . S
O404 Mg389 2.013 . S
O404 C393 1.191 . S
O405 C384 1.331 . S
O405 Mg391 2.081 . S
O406 Mg387 1.986 . S
O406 C393 1.307 . S
O407 C385 1.264 . S
O407 Mg391 2.023 . S
O408 C384 1.244 . S
O408 Mg392 1.942 . S
O409 C385 1.273 . S
O409 Mg392 1.955 . S
O410 C383 1.312 . S
O410 Mg386 2.291 . S
O410 Mg389 2.114 . S
O411 C383 1.208 . S
O411 Mg391 2.031 . S
C412 O397 1.264 . S
C412 O399 1.273 . S
C413 O394 1.191 . S
C413 O396 1.307 . S
C414 O441 1.312 . S
C414 O442 1.204 1_655 S
C415 O436 1.331 . S
C415 O439 1.244 . S
C416 O438 1.264 . S
C416 O440 1.273 . S
Mg417 O419 1.936 . S
Mg417 O426 2.081 . S
Mg417 O428 2.023 1_455 S
Mg417 O432 2.031 . S
Mg417 O441 2.291 1_455 S
Mg418 O419 1.963 1_655 S
Mg418 O429 1.942 1_655 S
Mg418 O430 1.955 . S
Mg418 O437 1.986 1_655 S
O419 Mg417 1.936 . S
O419 Mg418 1.963 1_455 S
O419 Mg420 1.915 1_455 S
Mg420 O419 1.915 1_655 S
Mg420 O421 1.915 . S
Mg420 O425 2.013 . S
Mg420 O431 2.114 1_655 S
Mg420 O435 2.013 1_655 S
Mg420 O441 2.114 . S
O421 Mg420 1.915 . S
O421 Mg422 1.936 1_655 S
O421 Mg423 1.963 . S
Mg422 O421 1.936 1_455 S
Mg422 O431 2.291 . S
Mg422 O436 2.081 1_455 S
Mg422 O438 2.023 . S
Mg422 O442 2.035 . S
Mg423 O421 1.963 . S
Mg423 O427 1.986 . S
Mg423 O439 1.942 . S
Mg423 O440 1.955 1_655 S
C424 O435 1.191 . S
C424 O437 1.307 . S
O425 Mg420 2.013 . S
O425 C444 1.191 . S
O426 Mg417 2.081 . S
O426 C434 1.331 . S
O427 Mg423 1.986 . S
O427 C444 1.307 . S
O428 Mg417 2.023 1_655 S
O428 C443 1.264 . S
O429 Mg418 1.942 1_455 S
O429 C434 1.244 . S
O430 Mg418 1.955 . S
O430 C443 1.273 . S
O431 Mg420 2.114 1_455 S
O431 Mg422 2.291 . S
O431 C433 1.312 . S
O432 Mg417 2.031 . S
O432 C433 1.208 . S
C433 O431 1.312 . S
C433 O432 1.208 . S
C434 O426 1.331 . S
C434 O429 1.244 . S
O435 Mg420 2.013 1_455 S
O435 C424 1.191 . S
O436 C415 1.331 . S
O436 Mg422 2.081 1_655 S
O437 Mg418 1.986 1_455 S
O437 C424 1.307 . S
O438 C416 1.264 . S
O438 Mg422 2.023 . S
O439 C415 1.244 . S
O439 Mg423 1.942 . S
O440 C416 1.273 . S
O440 Mg423 1.955 1_455 S
O441 C414 1.312 . S
O441 Mg417 2.291 1_655 S
O441 Mg420 2.114 . S
O442 C414 1.204 1_455 S
O442 Mg422 2.035 . S
C443 O428 1.264 . S
C443 O430 1.273 . S
C444 O425 1.191 . S
C444 O427 1.307 . S
C445 O472 1.312 . S
C445 O473 1.200 1_565 S
C446 O467 1.331 . S
C446 O470 1.244 . S
C447 O469 1.264 . S
C447 O471 1.273 . S
Mg448 O450 1.936 . S
Mg448 O457 2.081 . S
Mg448 O459 2.023 1_545 S
Mg448 O463 2.031 . S
Mg448 O472 2.291 1_545 S
Mg449 O450 1.963 1_565 S
Mg449 O460 1.942 1_565 S
Mg449 O461 1.955 . S
Mg449 O468 1.986 1_565 S
O450 Mg448 1.936 . S
O450 Mg449 1.963 1_545 S
O450 Mg451 1.915 1_545 S
Mg451 O450 1.915 1_565 S
Mg451 O452 1.915 . S
Mg451 O456 2.013 . S
Mg451 O462 2.114 1_565 S
Mg451 O466 2.013 1_565 S
Mg451 O472 2.114 . S
O452 Mg451 1.915 . S
O452 Mg453 1.936 1_565 S
O452 Mg454 1.963 . S
Mg453 O452 1.936 1_545 S
Mg453 O462 2.291 . S
Mg453 O467 2.081 1_545 S
Mg453 O469 2.023 . S
Mg453 O473 2.040 . S
Mg454 O452 1.963 . S
Mg454 O458 1.986 . S
Mg454 O470 1.942 . S
Mg454 O471 1.955 1_565 S
C455 O466 1.191 . S
C455 O468 1.307 . S
O456 Mg451 2.013 . S
O456 C475 1.191 . S
O457 Mg448 2.081 . S
O457 C465 1.331 1_655 S
O458 Mg454 1.986 . S
O458 C475 1.307 . S
O459 Mg448 2.023 1_565 S
O459 C474 1.264 . S
O460 Mg449 1.942 1_545 S
O460 C465 1.244 1_655 S
O461 Mg449 1.955 . S
O461 C474 1.273 . S
O462 Mg451 2.114 1_545 S
O462 Mg453 2.291 . S
O462 C464 1.312 . S
O463 Mg448 2.031 . S
O463 C464 1.208 . S
C464 O462 1.312 . S
C464 O463 1.208 . S
C465 O457 1.331 1_455 S
C465 O460 1.244 1_455 S
O466 Mg451 2.013 1_545 S
O466 C455 1.191 . S
O467 C446 1.331 . S
O467 Mg453 2.081 1_565 S
O468 Mg449 1.986 1_545 S
O468 C455 1.307 . S
O469 C447 1.264 . S
O469 Mg453 2.023 . S
O470 C446 1.244 . S
O470 Mg454 1.942 . S
O471 C447 1.273 . S
O471 Mg454 1.955 1_545 S
O472 C445 1.312 . S
O472 Mg448 2.291 1_565 S
O472 Mg451 2.114 . S
O473 C445 1.200 1_545 S
O473 Mg453 2.040 . S
C474 O459 1.264 . S
C474 O461 1.273 . S
C475 O456 1.191 . S
C475 O458 1.307 . S
C476 O503 1.312 . S
C476 O504 1.208 . S
C477 O498 1.331 1_545 S
C477 O501 1.244 1_545 S
C478 O500 1.264 . S
C478 O502 1.273 . S
Mg479 O481 1.936 1_554 S
Mg479 O488 2.081 1_554 S
Mg479 O490 2.023 . S
Mg479 O494 2.037 . S
Mg479 O503 2.291 . S
Mg480 O481 1.963 . S
Mg480 O491 1.942 . S
Mg480 O492 1.955 1_556 S
Mg480 O499 1.986 . S
O481 Mg479 1.936 1_556 S
O481 Mg480 1.963 . S
O481 Mg482 1.915 . S
Mg482 O481 1.915 . S
Mg482 O483 1.915 1_556 S
Mg482 O487 2.013 1_556 S
Mg482 O493 2.114 . S
Mg482 O497 2.013 . S
Mg482 O503 2.114 1_556 S
O483 Mg482 1.915 1_554 S
O483 Mg484 1.936 . S
O483 Mg485 1.963 1_554 S
Mg484 O483 1.936 . S
Mg484 O493 2.291 1_554 S
Mg484 O498 2.081 . S
Mg484 O500 2.023 1_554 S
Mg484 O504 2.031 . S
Mg485 O483 1.963 1_556 S
Mg485 O489 1.986 1_556 S
Mg485 O501 1.942 1_556 S
Mg485 O502 1.955 . S
C486 O497 1.191 . S
C486 O499 1.307 . S
O487 Mg482 2.013 1_554 S
O487 C506 1.191 . S
O488 Mg479 2.081 1_556 S
O488 C496 1.331 . S
O489 Mg485 1.986 1_554 S
O489 C506 1.307 . S
O490 Mg479 2.023 . S
O490 C505 1.264 . S
O491 Mg480 1.942 . S
O491 C496 1.244 . S
O492 Mg480 1.955 1_554 S
O492 C505 1.273 . S
O493 Mg482 2.114 . S
O493 Mg484 2.291 1_556 S
O493 C495 1.312 . S
O494 Mg479 2.037 . S
O494 C495 1.203 1_554 S
C495 O493 1.312 . S
C495 O494 1.203 1_556 S
C496 O488 1.331 . S
C496 O491 1.244 . S
O497 Mg482 2.013 . S
O497 C486 1.191 . S
O498 C477 1.331 1_565 S
O498 Mg484 2.081 . S
O499 Mg480 1.986 . S
O499 C486 1.307 . S
O500 C478 1.264 . S
O500 Mg484 2.023 1_556 S
O501 C477 1.244 1_565 S
O501 Mg485 1.942 1_554 S
O502 C478 1.273 . S
O502 Mg485 1.955 . S
O503 C476 1.312 . S
O503 Mg479 2.291 . S
O503 Mg482 2.114 1_554 S
O504 C476 1.208 . S
O504 Mg484 2.031 . S
C505 O490 1.264 . S
C505 O492 1.273 . S
C506 O487 1.191 . S
C506 O489 1.307 . S
C507 O534 1.312 . S
C507 O535 1.208 . S
C508 O529 1.323 1_655 S
C508 O532 1.240 1_655 S
C509 O531 1.264 . S
C509 O533 1.273 . S
Mg510 O512 1.936 . S
Mg510 O519 2.081 . S
Mg510 O521 2.023 . S
Mg510 O525 2.031 . S
Mg510 O534 2.291 . S
Mg511 O512 1.963 . S
Mg511 O522 1.942 . S
Mg511 O523 1.955 . S
Mg511 O530 1.986 . S
O512 Mg510 1.936 . S
O512 Mg511 1.963 . S
O512 Mg513 1.915 . S
Mg513 O512 1.915 . S
Mg513 O514 1.915 . S
Mg513 O518 2.013 . S
Mg513 O524 2.114 . S
Mg513 O528 2.013 . S
Mg513 O534 2.114 . S
O514 Mg513 1.915 . S
O514 Mg515 1.936 . S
O514 Mg516 1.963 . S
Mg515 O514 1.936 . S
Mg515 O524 2.291 . S
Mg515 O529 2.081 . S
Mg515 O531 2.023 . S
Mg515 O535 2.031 . S
Mg516 O514 1.963 . S
Mg516 O520 1.986 . S
Mg516 O532 1.942 . S
Mg516 O533 1.955 . S
C517 O528 1.191 . S
C517 O530 1.307 . S
O518 Mg513 2.013 . S
O518 C537 1.191 . S
O519 Mg510 2.081 . S
O519 C527 1.331 . S
O520 Mg516 1.986 . S
O520 C537 1.307 . S
O521 Mg510 2.023 . S
O521 C536 1.264 . S
O522 Mg511 1.942 . S
O522 C527 1.244 . S
O523 Mg511 1.955 . S
O523 C536 1.273 . S
O524 Mg513 2.114 . S
O524 Mg515 2.291 . S
O524 C526 1.312 . S
O525 Mg510 2.031 . S
O525 C526 1.208 . S
C526 O524 1.312 . S
C526 O525 1.208 . S
C527 O519 1.331 . S
C527 O522 1.244 . S
O528 Mg513 2.013 . S
O528 C517 1.191 . S
O529 C508 1.323 1_455 S
O529 Mg515 2.081 . S
O530 Mg511 1.986 . S
O530 C517 1.307 . S
O531 C509 1.264 . S
O531 Mg515 2.023 . S
O532 C508 1.240 1_455 S
O532 Mg516 1.942 . S
O533 C509 1.273 . S
O533 Mg516 1.955 . S
O534 C507 1.312 . S
O534 Mg510 2.291 . S
O534 Mg513 2.114 . S
O535 C507 1.208 . S
O535 Mg515 2.031 . S
C536 O521 1.264 . S
C536 O523 1.273 . S
C537 O518 1.191 . S
C537 O520 1.307 . S
C538 O565 1.312 . S
C538 O566 1.208 . S
C539 O560 1.331 . S
C539 O563 1.244 . S
C540 O562 1.264 . S
C540 O564 1.273 . S
Mg541 O543 1.936 . S
Mg541 O550 2.081 . S
Mg541 O552 2.023 1_556 S
Mg541 O556 2.031 . S
Mg541 O565 2.291 1_556 S
Mg542 O543 1.963 1_554 S
Mg542 O553 1.942 1_554 S
Mg542 O554 1.955 . S
Mg542 O561 1.986 1_554 S
O543 Mg541 1.936 . S
O543 Mg542 1.963 1_556 S
O543 Mg544 1.915 1_556 S
Mg544 O543 1.915 1_554 S
Mg544 O545 1.915 . S
Mg544 O549 2.013 . S
Mg544 O555 2.114 1_554 S
Mg544 O559 2.013 1_554 S
Mg544 O565 2.114 . S
O545 Mg544 1.915 . S
O545 Mg546 1.936 1_554 S
O545 Mg547 1.963 . S
Mg546 O545 1.936 1_556 S
Mg546 O555 2.291 . S
Mg546 O560 2.081 1_556 S
Mg546 O562 2.023 . S
Mg546 O566 2.031 1_556 S
Mg547 O545 1.963 . S
Mg547 O551 1.986 . S
Mg547 O563 1.942 . S
Mg547 O564 1.955 1_554 S
C548 O559 1.191 . S
C548 O561 1.307 . S
O549 Mg544 2.013 . S
O549 C568 1.191 . S
O550 Mg541 2.081 . S
O550 C558 1.331 . S
O551 Mg547 1.986 . S
O551 C568 1.307 . S
O552 Mg541 2.023 1_554 S
O552 C567 1.264 . S
O553 Mg542 1.942 1_556 S
O553 C558 1.244 . S
O554 Mg542 1.955 . S
O554 C567 1.273 . S
O555 Mg544 2.114 1_556 S
O555 Mg546 2.291 . S
O555 C557 1.312 . S
O556 Mg541 2.031 . S
O556 C557 1.208 . S
C557 O555 1.312 . S
C557 O556 1.208 . S
C558 O550 1.331 . S
C558 O553 1.244 . S
O559 Mg544 2.013 1_556 S
O559 C548 1.191 . S
O560 C539 1.331 . S
O560 Mg546 2.081 1_554 S
O561 Mg542 1.986 1_556 S
O561 C548 1.307 . S
O562 C540 1.264 . S
O562 Mg546 2.023 . S
O563 C539 1.244 . S
O563 Mg547 1.942 . S
O564 C540 1.273 . S
O564 Mg547 1.955 1_556 S
O565 C538 1.312 . S
O565 Mg541 2.291 1_554 S
O565 Mg544 2.114 . S
O566 C538 1.208 . S
O566 Mg546 2.031 1_554 S
C567 O552 1.264 . S
C567 O554 1.273 . S
C568 O549 1.191 . S
C568 O551 1.307 . S
C569 O596 1.312 . S
C569 O597 1.208 . S
C570 O591 1.331 . S
C570 O594 1.244 . S
C571 O593 1.264 . S
C571 O595 1.273 . S
Mg572 O574 1.936 . S
Mg572 O581 2.081 . S
Mg572 O583 2.023 . S
Mg572 O587 2.031 . S
Mg572 O596 2.291 . S
Mg573 O574 1.963 . S
Mg573 O584 1.942 . S
Mg573 O585 1.955 . S
Mg573 O592 1.986 . S
O574 Mg572 1.936 . S
O574 Mg573 1.963 . S
O574 Mg575 1.915 . S
Mg575 O574 1.915 . S
Mg575 O576 1.915 . S
Mg575 O580 2.013 . S
Mg575 O586 2.114 . S
Mg575 O590 2.013 . S
Mg575 O596 2.114 . S
O576 Mg575 1.915 . S
O576 Mg577 1.936 . S
O576 Mg578 1.963 . S
Mg577 O576 1.936 . S
Mg577 O586 2.291 . S
Mg577 O591 2.081 . S
Mg577 O593 2.023 . S
Mg577 O597 2.031 . S
Mg578 O576 1.963 . S
Mg578 O582 1.986 . S
Mg578 O594 1.942 . S
Mg578 O595 1.955 . S
C579 O590 1.191 . S
C579 O592 1.307 . S
O580 Mg575 2.013 . S
O580 C599 1.191 . S
O581 Mg572 2.081 . S
O581 C589 1.336 . S
O582 Mg578 1.986 . S
O582 C599 1.307 . S
O583 Mg572 2.023 . S
O583 C598 1.264 . S
O584 Mg573 1.942 . S
O584 C589 1.247 . S
O585 Mg573 1.955 . S
O585 C598 1.273 . S
O586 Mg575 2.114 . S
O586 Mg577 2.291 . S
O586 C588 1.312 . S
O587 Mg572 2.031 . S
O587 C588 1.208 . S
C588 O586 1.312 . S
C588 O587 1.208 . S
C589 O581 1.336 . S
C589 O584 1.247 . S
O590 Mg575 2.013 . S
O590 C579 1.191 . S
O591 C570 1.331 . S
O591 Mg577 2.081 . S
O592 Mg573 1.986 . S
O592 C579 1.307 . S
O593 C571 1.264 . S
O593 Mg577 2.023 . S
O594 C570 1.244 . S
O594 Mg578 1.942 . S
O595 C571 1.273 . S
O595 Mg578 1.955 . S
O596 C569 1.312 . S
O596 Mg572 2.291 . S
O596 Mg575 2.114 . S
O597 C569 1.208 . S
O597 Mg577 2.031 . S
C598 O583 1.264 . S
C598 O585 1.273 . S
C599 O580 1.191 . S
C599 O582 1.307 . S
C600 O627 1.312 . S
C600 O628 1.208 . S
C601 O622 1.331 . S
C601 O625 1.244 . S
C602 O624 1.264 . S
C602 O626 1.273 . S
Mg603 O605 1.936 . S
Mg603 O612 2.081 . S
Mg603 O614 2.023 . S
Mg603 O618 2.031 . S
Mg603 O627 2.291 . S
Mg604 O605 1.963 . S
Mg604 O615 1.942 . S
Mg604 O616 1.955 . S
Mg604 O623 1.986 . S
O605 Mg603 1.936 . S
O605 Mg604 1.963 . S
O605 Mg606 1.915 . S
Mg606 O605 1.915 . S
Mg606 O607 1.915 . S
Mg606 O611 2.013 . S
Mg606 O617 2.114 . S
Mg606 O621 2.013 . S
Mg606 O627 2.114 . S
O607 Mg606 1.915 . S
O607 Mg608 1.936 . S
O607 Mg609 1.963 . S
Mg608 O607 1.936 . S
Mg608 O617 2.291 . S
Mg608 O622 2.081 . S
Mg608 O624 2.023 . S
Mg608 O628 2.031 . S
Mg609 O607 1.963 . S
Mg609 O613 1.986 . S
Mg609 O625 1.942 . S
Mg609 O626 1.955 . S
C610 O621 1.191 . S
C610 O623 1.307 . S
O611 Mg606 2.013 . S
O611 C630 1.191 . S
O612 Mg603 2.081 . S
O612 C620 1.331 . S
O613 Mg609 1.986 . S
O613 C630 1.307 . S
O614 Mg603 2.023 . S
O614 C629 1.264 . S
O615 Mg604 1.942 . S
O615 C620 1.244 . S
O616 Mg604 1.955 . S
O616 C629 1.273 . S
O617 Mg606 2.114 . S
O617 Mg608 2.291 . S
O617 C619 1.312 . S
O618 Mg603 2.031 . S
O618 C619 1.208 . S
C619 O617 1.312 . S
C619 O618 1.208 . S
C620 O612 1.331 . S
C620 O615 1.244 . S
O621 Mg606 2.013 . S
O621 C610 1.191 . S
O622 C601 1.331 . S
O622 Mg608 2.081 . S
O623 Mg604 1.986 . S
O623 C610 1.307 . S
O624 C602 1.264 . S
O624 Mg608 2.023 . S
O625 C601 1.244 . S
O625 Mg609 1.942 . S
O626 C602 1.273 . S
O626 Mg609 1.955 . S
O627 C600 1.312 . S
O627 Mg603 2.291 . S
O627 Mg606 2.114 . S
O628 C600 1.208 . S
O628 Mg608 2.031 . S
C629 O614 1.264 . S
C629 O616 1.273 . S
C630 O611 1.191 . S
C630 O613 1.307 . S
C631 O658 1.312 . S
C631 O659 1.208 . S
C632 O653 1.331 . S
C632 O656 1.244 . S
C633 O655 1.264 . S
C633 O657 1.273 . S
Mg634 O636 1.936 . S
Mg634 O643 2.081 . S
Mg634 O645 2.023 . S
Mg634 O649 2.031 . S
Mg634 O658 2.291 . S
Mg635 O636 1.963 . S
Mg635 O646 1.942 . S
Mg635 O647 1.955 . S
Mg635 O654 1.986 . S
O636 Mg634 1.936 . S
O636 Mg635 1.963 . S
O636 Mg637 1.915 . S
Mg637 O636 1.915 . S
Mg637 O638 1.915 . S
Mg637 O642 2.013 . S
Mg637 O648 2.114 . S
Mg637 O652 2.013 . S
Mg637 O658 2.114 . S
O638 Mg637 1.915 . S
O638 Mg639 1.936 . S
O638 Mg640 1.963 . S
Mg639 O638 1.936 . S
Mg639 O648 2.291 . S
Mg639 O653 2.081 . S
Mg639 O655 2.023 . S
Mg639 O659 2.031 . S
Mg640 O638 1.963 . S
Mg640 O644 1.986 . S
Mg640 O656 1.942 . S
Mg640 O657 1.955 . S
C641 O652 1.191 . S
C641 O654 1.307 . S
O642 Mg637 2.013 . S
O642 C661 1.191 . S
O643 Mg634 2.081 . S
O643 C651 1.331 . S
O644 Mg640 1.986 . S
O644 C661 1.307 . S
O645 Mg634 2.023 . S
O645 C660 1.264 . S
O646 Mg635 1.942 . S
O646 C651 1.244 . S
O647 Mg635 1.955 . S
O647 C660 1.273 . S
O648 Mg637 2.114 . S
O648 Mg639 2.291 . S
O648 C650 1.312 . S
O649 Mg634 2.031 . S
O649 C650 1.208 . S
C650 O648 1.312 . S
C650 O649 1.208 . S
C651 O643 1.331 . S
C651 O646 1.244 . S
O652 Mg637 2.013 . S
O652 C641 1.191 . S
O653 C632 1.331 . S
O653 Mg639 2.081 . S
O654 Mg635 1.986 . S
O654 C641 1.307 . S
O655 C633 1.264 . S
O655 Mg639 2.023 . S
O656 C632 1.244 . S
O656 Mg640 1.942 . S
O657 C633 1.273 . S
O657 Mg640 1.955 . S
O658 C631 1.312 . S
O658 Mg634 2.291 . S
O658 Mg637 2.114 . S
O659 C631 1.208 . S
O659 Mg639 2.031 . S
C660 O645 1.264 . S
C660 O647 1.273 . S
C661 O642 1.191 . S
C661 O644 1.307 . S
C662 O689 1.312 . S
C662 O690 1.208 . S
C663 O684 1.331 . S
C663 O687 1.244 . S
C664 O686 1.264 . S
C664 O688 1.273 . S
Mg665 O667 1.936 . S
Mg665 O674 2.081 . S
Mg665 O676 2.023 1_565 S
Mg665 O680 2.031 . S
Mg665 O689 2.291 1_565 S
Mg666 O667 1.963 1_545 S
Mg666 O677 1.942 1_545 S
Mg666 O678 1.955 . S
Mg666 O685 1.986 1_545 S
O667 Mg665 1.936 . S
O667 Mg666 1.963 1_565 S
O667 Mg668 1.915 1_565 S
Mg668 O667 1.915 1_545 S
Mg668 O669 1.915 . S
Mg668 O673 2.013 . S
Mg668 O679 2.114 1_545 S
Mg668 O683 2.013 1_545 S
Mg668 O689 2.114 . S
O669 Mg668 1.915 . S
O669 Mg670 1.936 1_545 S
O669 Mg671 1.963 . S
Mg670 O669 1.936 1_565 S
Mg670 O679 2.291 . S
Mg670 O684 2.081 1_565 S
Mg670 O686 2.023 . S
Mg670 O690 2.031 1_565 S
Mg671 O669 1.963 . S
Mg671 O675 1.986 . S
Mg671 O687 1.942 . S
Mg671 O688 1.955 1_545 S
C672 O683 1.191 . S
C672 O685 1.307 . S
O673 Mg668 2.013 . S
O673 C692 1.191 . S
O674 Mg665 2.081 . S
O674 C682 1.331 . S
O675 Mg671 1.986 . S
O675 C692 1.307 . S
O676 Mg665 2.023 1_545 S
O676 C691 1.264 . S
O677 Mg666 1.942 1_565 S
O677 C682 1.244 . S
O678 Mg666 1.955 . S
O678 C691 1.273 . S
O679 Mg668 2.114 1_565 S
O679 Mg670 2.291 . S
O679 C681 1.312 . S
O680 Mg665 2.031 . S
O680 C681 1.208 . S
C681 O679 1.312 . S
C681 O680 1.208 . S
C682 O674 1.331 . S
C682 O677 1.244 . S
O683 Mg668 2.013 1_565 S
O683 C672 1.191 . S
O684 C663 1.331 . S
O684 Mg670 2.081 1_545 S
O685 Mg666 1.986 1_565 S
O685 C672 1.307 . S
O686 C664 1.264 . S
O686 Mg670 2.023 . S
O687 C663 1.244 . S
O687 Mg671 1.942 . S
O688 C664 1.273 . S
O688 Mg671 1.955 1_565 S
O689 C662 1.312 . S
O689 Mg665 2.291 1_545 S
O689 Mg668 2.114 . S
O690 C662 1.208 . S
O690 Mg670 2.031 1_545 S
C691 O676 1.264 . S
C691 O678 1.273 . S
C692 O673 1.191 . S
C692 O675 1.307 . S
C693 O720 1.312 . S
C693 O721 1.208 . S
C694 O715 1.331 . S
C694 O718 1.244 . S
C695 O717 1.264 . S
C695 O719 1.273 . S
Mg696 O698 1.936 . S
Mg696 O705 2.081 . S
Mg696 O707 2.023 . S
Mg696 O711 2.031 . S
Mg696 O720 2.291 . S
Mg697 O698 1.963 . S
Mg697 O708 1.942 . S
Mg697 O709 1.955 . S
Mg697 O716 1.986 . S
O698 Mg696 1.936 . S
O698 Mg697 1.963 . S
O698 Mg699 1.915 . S
Mg699 O698 1.915 . S
Mg699 O700 1.915 . S
Mg699 O704 2.013 . S
Mg699 O710 2.114 . S
Mg699 O714 2.013 . S
Mg699 O720 2.114 . S
O700 Mg699 1.915 . S
O700 Mg701 1.936 . S
O700 Mg702 1.963 . S
Mg701 O700 1.936 . S
Mg701 O710 2.291 . S
Mg701 O715 2.081 . S
Mg701 O717 2.023 . S
Mg701 O721 2.031 . S
Mg702 O700 1.963 . S
Mg702 O706 1.986 . S
Mg702 O718 1.942 . S
Mg702 O719 1.955 . S
C703 O714 1.191 . S
C703 O716 1.307 . S
O704 Mg699 2.013 . S
O704 C723 1.191 . S
O705 Mg696 2.081 . S
O705 C713 1.331 . S
O706 Mg702 1.986 . S
O706 C723 1.307 . S
O707 Mg696 2.023 . S
O707 C722 1.264 . S
O708 Mg697 1.942 . S
O708 C713 1.244 . S
O709 Mg697 1.955 . S
O709 C722 1.273 . S
O710 Mg699 2.114 . S
O710 Mg701 2.291 . S
O710 C712 1.312 . S
O711 Mg696 2.031 . S
O711 C712 1.208 . S
C712 O710 1.312 . S
C712 O711 1.208 . S
C713 O705 1.331 . S
C713 O708 1.244 . S
O714 Mg699 2.013 . S
O714 C703 1.191 . S
O715 C694 1.331 . S
O715 Mg701 2.081 . S
O716 Mg697 1.986 . S
O716 C703 1.307 . S
O717 C695 1.264 . S
O717 Mg701 2.023 . S
O718 C694 1.244 . S
O718 Mg702 1.942 . S
O719 C695 1.273 . S
O719 Mg702 1.955 . S
O720 C693 1.312 . S
O720 Mg696 2.291 . S
O720 Mg699 2.114 . S
O721 C693 1.208 . S
O721 Mg701 2.031 . S
C722 O707 1.264 . S
C722 O709 1.273 . S
C723 O704 1.191 . S
C723 O706 1.307 . S
C724 C725 1.387 . S
C724 H728 0.950 . S
C724 C733 1.390 . S
C725 C724 1.387 . S
C725 C727 1.387 . S
H726 C733 0.950 . S
C727 C725 1.387 . S
C727 C729 1.390 . S
C727 H731 0.950 . S
H728 C724 0.950 . S
C729 C727 1.390 . S
C729 C730 1.387 . S
C729 H732 0.950 . S
C730 C729 1.387 . S
C730 C733 1.387 . S
H731 C727 0.950 . S
H732 C729 0.950 . S
C733 C724 1.390 . S
C733 H726 0.950 . S
C733 C730 1.387 . S
C734 C735 1.387 . S
C734 H738 0.950 . S
C734 C743 1.390 . S
C735 C734 1.387 . S
C735 C737 1.387 . S
H736 C743 0.950 . S
C737 C735 1.387 . S
C737 C739 1.390 . S
C737 H741 0.950 . S
H738 C734 0.950 . S
C739 C737 1.390 . S
C739 C740 1.387 . S
C739 H742 0.950 . S
C740 C739 1.387 . S
C740 C743 1.387 . S
H741 C737 0.950 . S
H742 C739 0.950 . S
C743 C734 1.390 . S
C743 H736 0.950 . S
C743 C740 1.387 . S
C744 C745 1.387 . S
C744 H748 0.950 . S
C744 C753 1.390 . S
C745 C744 1.387 . S
C745 C747 1.387 . S
H746 C753 0.950 . S
C747 C745 1.387 . S
C747 C749 1.390 . S
C747 H751 0.926 1_655 S
H748 C744 0.950 . S
C749 C747 1.390 . S
C749 C750 1.387 . S
C749 H752 0.950 . S
C750 C749 1.387 . S
C750 C753 1.387 . S
H751 C747 0.926 1_455 S
H752 C749 0.950 . S
C753 C744 1.390 . S
C753 H746 0.950 . S
C753 C750 1.387 . S
C754 C755 1.387 . S
C754 H758 0.950 . S
C754 C763 1.390 . S
C755 C754 1.387 . S
C755 C757 1.387 . S
H756 C763 0.950 . S
C757 C755 1.387 . S
C757 C759 1.390 . S
C757 H761 0.950 . S
H758 C754 0.950 . S
C759 C757 1.390 . S
C759 C760 1.387 . S
C759 H762 0.950 . S
C760 C759 1.387 . S
C760 C763 1.387 . S
H761 C757 0.950 . S
H762 C759 0.950 . S
C763 C754 1.390 . S
C763 H756 0.950 . S
C763 C760 1.387 . S
C764 C765 1.387 . S
C764 H768 0.950 1_455 S
C764 C773 1.390 . S
C765 C764 1.387 . S
C765 C767 1.387 . S
H766 C773 0.934 1_655 S
C767 C765 1.387 . S
C767 C769 1.390 . S
C767 H771 0.950 . S
H768 C764 0.950 1_655 S
C769 C767 1.390 . S
C769 C770 1.387 . S
C769 H772 0.950 . S
C770 C769 1.387 . S
C770 C773 1.387 . S
H771 C767 0.950 . S
H772 C769 0.950 . S
C773 C764 1.390 . S
C773 H766 0.934 1_455 S
C773 C770 1.387 . S
C774 C775 1.387 . S
C774 H778 0.950 . S
C774 C783 1.390 . S
C775 C774 1.387 . S
C775 C777 1.387 . S
H776 C783 0.950 . S
C777 C775 1.387 . S
C777 C779 1.390 . S
C777 H781 0.950 . S
H778 C774 0.950 . S
C779 C777 1.390 . S
C779 C780 1.387 . S
C779 H782 0.950 . S
C780 C779 1.387 . S
C780 C783 1.387 . S
H781 C777 0.950 . S
H782 C779 0.950 . S
C783 C774 1.390 . S
C783 H776 0.950 . S
C783 C780 1.387 . S
C784 C785 1.387 . S
C784 H788 0.950 . S
C784 C793 1.390 . S
C785 C784 1.387 . S
C785 C787 1.387 . S
H786 C793 0.950 . S
C787 C785 1.387 . S
C787 C789 1.390 . S
C787 H791 0.950 . S
H788 C784 0.950 . S
C789 C787 1.390 . S
C789 C790 1.387 . S
C789 H792 0.950 . S
C790 C789 1.387 . S
C790 C793 1.387 . S
H791 C787 0.950 . S
H792 C789 0.950 . S
C793 C784 1.390 . S
C793 H786 0.950 . S
C793 C790 1.387 . S
C794 C795 1.387 . S
C794 H798 0.950 . S
C794 C803 1.390 . S
C795 C794 1.387 . S
C795 C797 1.387 . S
H796 C803 0.950 . S
C797 C795 1.387 . S
C797 C799 1.390 . S
C797 H801 0.950 . S
H798 C794 0.950 . S
C799 C797 1.390 . S
C799 C800 1.387 . S
C799 H802 0.950 . S
C800 C799 1.387 . S
C800 C803 1.387 . S
H801 C797 0.950 . S
H802 C799 0.950 . S
C803 C794 1.390 . S
C803 H796 0.950 . S
C803 C800 1.387 . S
C804 C805 1.387 . S
C804 H808 0.950 1_545 S
C804 C813 1.390 . S
C805 C804 1.387 . S
C805 C807 1.387 . S
H806 C813 0.950 1_565 S
C807 C805 1.387 . S
C807 C809 1.390 . S
C807 H811 0.950 . S
H808 C804 0.950 1_565 S
C809 C807 1.390 . S
C809 C810 1.387 . S
C809 H812 0.950 . S
C810 C809 1.387 . S
C810 C813 1.387 . S
H811 C807 0.950 . S
H812 C809 0.950 . S
C813 C804 1.390 . S
C813 H806 0.950 1_545 S
C813 C810 1.387 . S
C814 C815 1.387 . S
C814 H818 0.950 . S
C814 C823 1.390 . S
C815 C814 1.387 . S
C815 C817 1.387 . S
H816 C823 0.950 . S
C817 C815 1.387 . S
C817 C819 1.390 . S
C817 H821 0.950 . S
H818 C814 0.950 . S
C819 C817 1.390 . S
C819 C820 1.387 . S
C819 H822 0.950 . S
C820 C819 1.387 . S
C820 C823 1.387 . S
H821 C817 0.950 . S
H822 C819 0.950 . S
C823 C814 1.390 . S
C823 H816 0.950 . S
C823 C820 1.387 . S
C824 C825 1.387 . S
C824 H828 0.950 . S
C824 C833 1.390 . S
C825 C824 1.387 . S
C825 C827 1.387 . S
H826 C833 0.950 . S
C827 C825 1.387 . S
C827 C829 1.390 . S
C827 H831 0.950 . S
H828 C824 0.950 . S
C829 C827 1.390 . S
C829 C830 1.387 . S
C829 H832 0.950 . S
C830 C829 1.387 . S
C830 C833 1.387 . S
H831 C827 0.950 . S
H832 C829 0.950 . S
C833 C824 1.390 . S
C833 H826 0.950 . S
C833 C830 1.387 . S
C834 C835 1.387 . S
C834 H838 0.950 . S
C834 C843 1.390 . S
C835 C834 1.387 . S
C835 C837 1.387 . S
H836 C843 0.950 . S
C837 C835 1.387 . S
C837 C839 1.390 . S
C837 H841 0.950 . S
H838 C834 0.950 . S
C839 C837 1.390 . S
C839 C840 1.387 . S
C839 H842 0.950 . S
C840 C839 1.387 . S
C840 C843 1.387 . S
H841 C837 0.950 . S
H842 C839 0.950 . S
C843 C834 1.390 . S
C843 H836 0.950 . S
C843 C840 1.387 . S
C844 C845 1.387 . S
C844 H848 0.950 1_565 S
C844 C853 1.390 . S
C845 C844 1.387 . S
C845 C847 1.387 . S
H846 C853 0.950 . S
C847 C845 1.387 . S
C847 C849 1.390 . S
C847 H851 0.950 . S
H848 C844 0.950 1_545 S
C849 C847 1.390 . S
C849 C850 1.387 . S
C849 H852 0.950 . S
C850 C849 1.387 . S
C850 C853 1.387 . S
H851 C847 0.950 . S
H852 C849 0.950 . S
C853 C844 1.390 . S
C853 H846 0.950 . S
C853 C850 1.387 . S
C854 C855 1.387 . S
C854 H858 0.950 . S
C854 C863 1.390 . S
C855 C854 1.387 . S
C855 C857 1.387 . S
H856 C863 0.950 . S
C857 C855 1.387 . S
C857 C859 1.390 . S
C857 H861 0.950 . S
H858 C854 0.950 . S
C859 C857 1.390 . S
C859 C860 1.387 . S
C859 H862 0.950 . S
C860 C859 1.387 . S
C860 C863 1.387 . S
H861 C857 0.950 . S
H862 C859 0.950 . S
C863 C854 1.390 . S
C863 H856 0.950 . S
C863 C860 1.387 . S
C864 C865 1.387 . S
C864 H868 0.950 . S
C864 C873 1.390 . S
C865 C864 1.387 . S
C865 C867 1.387 . S
H866 C873 0.950 . S
C867 C865 1.387 . S
C867 C869 1.390 . S
C867 H871 0.950 . S
H868 C864 0.950 . S
C869 C867 1.390 . S
C869 C870 1.387 . S
C869 H872 0.950 . S
C870 C869 1.387 . S
C870 C873 1.387 . S
H871 C867 0.950 . S
H872 C869 0.950 . S
C873 C864 1.390 . S
C873 H866 0.950 . S
C873 C870 1.387 . S
C874 C875 1.387 . S
C874 H878 0.950 . S
C874 C883 1.390 . S
C875 C874 1.387 . S
C875 C877 1.387 . S
H876 C883 0.950 . S
C877 C875 1.387 . S
C877 C879 1.390 . S
C877 H881 0.950 . S
H878 C874 0.950 . S
C879 C877 1.390 . S
C879 C880 1.387 . S
C879 H882 0.950 . S
C880 C879 1.387 . S
C880 C883 1.387 . S
H881 C877 0.950 . S
H882 C879 0.950 . S
C883 C874 1.390 . S
C883 H876 0.950 . S
C883 C880 1.387 . S
C884 C885 1.387 . S
C884 H888 0.950 1_554 S
C884 C893 1.390 . S
C885 C884 1.387 . S
C885 C887 1.387 . S
H886 C893 0.973 . S
C887 C885 1.387 . S
C887 C889 1.390 . S
C887 H891 0.950 . S
H888 C884 0.950 1_556 S
C889 C887 1.390 . S
C889 C890 1.387 . S
C889 H892 0.950 . S
C890 C889 1.387 . S
C890 C893 1.387 . S
H891 C887 0.950 . S
H892 C889 0.950 . S
C893 C884 1.390 . S
C893 H886 0.973 . S
C893 C890 1.387 . S
C894 C895 1.387 . S
C894 H898 0.950 . S
C894 C903 1.390 . S
C895 C894 1.387 . S
C895 C897 1.387 . S
H896 C903 0.950 . S
C897 C895 1.387 . S
C897 C899 1.390 . S
C897 H901 0.950 . S
H898 C894 0.950 . S
C899 C897 1.390 . S
C899 C900 1.387 . S
C899 H902 0.950 . S
C900 C899 1.387 . S
C900 C903 1.387 . S
H901 C897 0.950 . S
H902 C899 0.950 . S
C903 C894 1.390 . S
C903 H896 0.950 . S
C903 C900 1.387 . S
C904 C905 1.387 . S
C904 H908 0.950 . S
C904 C913 1.390 . S
C905 C904 1.387 . S
C905 C907 1.387 . S
H906 C913 0.950 . S
C907 C905 1.387 . S
C907 C909 1.390 . S
C907 H911 0.950 . S
H908 C904 0.950 . S
C909 C907 1.390 . S
C909 C910 1.387 . S
C909 H912 0.950 . S
C910 C909 1.387 . S
C910 C913 1.387 . S
H911 C907 0.950 . S
H912 C909 0.950 . S
C913 C904 1.390 . S
C913 H906 0.950 . S
C913 C910 1.387 . S
C914 C915 1.387 . S
C914 H918 0.950 . S
C914 C923 1.390 . S
C915 C914 1.387 . S
C915 C917 1.387 . S
H916 C923 0.950 . S
C917 C915 1.387 . S
C917 C919 1.390 . S
C917 H921 0.950 . S
H918 C914 0.950 . S
C919 C917 1.390 . S
C919 C920 1.387 . S
C919 H922 0.950 . S
C920 C919 1.387 . S
C920 C923 1.387 . S
H921 C917 0.950 . S
H922 C919 0.950 . S
C923 C914 1.390 . S
C923 H916 0.950 . S
C923 C920 1.387 . S
C924 C925 1.387 . S
C924 H928 0.950 . S
C924 C933 1.390 . S
C925 C924 1.387 . S
C925 C927 1.387 . S
H926 C933 0.950 . S
C927 C925 1.387 . S
C927 C929 1.390 . S
C927 H931 0.950 . S
H928 C924 0.950 . S
C929 C927 1.390 . S
C929 C930 1.387 . S
C929 H932 0.950 . S
C930 C929 1.387 . S
C930 C933 1.387 . S
H931 C927 0.950 . S
H932 C929 0.950 . S
C933 C924 1.390 . S
C933 H926 0.950 . S
C933 C930 1.387 . S
C934 C935 1.387 . S
C934 H938 0.950 . S
C934 C943 1.390 . S
C935 C934 1.387 . S
C935 C937 1.387 . S
H936 C943 0.950 . S
C937 C935 1.387 . S
C937 C939 1.390 . S
C937 H941 0.950 . S
H938 C934 0.950 . S
C939 C937 1.390 . S
C939 C940 1.387 . S
C939 H942 0.950 . S
C940 C939 1.387 . S
C940 C943 1.387 . S
H941 C937 0.950 . S
H942 C939 0.950 . S
C943 C934 1.390 . S
C943 H936 0.950 . S
C943 C940 1.387 . S
C944 C945 1.387 . S
C944 H948 0.950 . S
C944 C953 1.390 . S
C945 C944 1.387 . S
C945 C947 1.387 . S
H946 C953 0.950 . S
C947 C945 1.387 . S
C947 C949 1.390 . S
C947 H951 0.950 . S
H948 C944 0.950 . S
C949 C947 1.390 . S
C949 C950 1.387 . S
C949 H952 0.950 . S
C950 C949 1.387 . S
C950 C953 1.387 . S
H951 C947 0.950 . S
H952 C949 0.950 . S
C953 C944 1.390 . S
C953 H946 0.950 . S
C953 C950 1.387 . S
C954 C955 1.387 . S
C954 H958 0.950 . S
C954 C963 1.390 . S
C955 C954 1.387 . S
C955 C957 1.387 . S
H956 C963 0.950 . S
C957 C955 1.387 . S
C957 C959 1.390 . S
C957 H961 0.950 . S
H958 C954 0.950 . S
C959 C957 1.390 . S
C959 C960 1.387 . S
C959 H962 0.950 . S
C960 C959 1.387 . S
C960 C963 1.387 . S
H961 C957 0.950 . S
H962 C959 0.950 . S
C963 C954 1.390 . S
C963 H956 0.950 . S
C963 C960 1.387 . S
C964 C965 1.387 . S
C964 H968 0.950 . S
C964 C973 1.390 . S
C965 C964 1.387 . S
C965 C967 1.387 . S
H966 C973 0.950 . S
C967 C965 1.387 . S
C967 C969 1.390 . S
C967 H971 0.950 . S
H968 C964 0.950 . S
C969 C967 1.390 . S
C969 C970 1.387 . S
C969 H972 0.950 . S
C970 C969 1.387 . S
C970 C973 1.387 . S
H971 C967 0.950 . S
H972 C969 0.950 . S
C973 C964 1.390 . S
C973 H966 0.950 . S
C973 C970 1.387 . S
C974 C975 1.387 . S
C974 H978 0.950 . S
C974 C983 1.390 . S
C975 C974 1.387 . S
C975 C977 1.387 . S
H976 C983 0.950 . S
C977 C975 1.387 . S
C977 C979 1.390 . S
C977 H981 0.950 . S
H978 C974 0.950 . S
C979 C977 1.390 . S
C979 C980 1.387 . S
C979 H982 0.950 . S
C980 C979 1.387 . S
C980 C983 1.387 . S
H981 C977 0.950 . S
H982 C979 0.950 . S
C983 C974 1.390 . S
C983 H976 0.950 . S
C983 C980 1.387 . S
C984 C985 1.387 . S
C984 H988 0.950 . S
C984 C993 1.390 . S
C985 C984 1.387 . S
C985 C987 1.387 . S
H986 C993 0.950 . S
C987 C985 1.387 . S
C987 C989 1.390 . S
C987 H991 0.950 . S
H988 C984 0.950 . S
C989 C987 1.390 . S
C989 C990 1.387 . S
C989 H992 0.950 . S
C990 C989 1.387 . S
C990 C993 1.387 . S
H991 C987 0.950 . S
H992 C989 0.950 . S
C993 C984 1.390 . S
C993 H986 0.950 . S
C993 C990 1.387 . S
C994 C995 1.387 . S
C994 H998 0.950 . S
C994 C1003 1.390 . S
C995 C994 1.387 . S
C995 C997 1.387 . S
H996 C1003 0.953 1_556 S
C997 C995 1.387 . S
C997 C999 1.390 . S
C997 H1001 0.950 . S
H998 C994 0.950 . S
C999 C997 1.390 . S
C999 C1000 1.387 . S
C999 H1002 0.950 . S
C1000 C999 1.387 . S
C1000 C1003 1.387 . S
H1001 C997 0.950 . S
H1002 C999 0.950 . S
C1003 C994 1.390 . S
C1003 H996 0.953 1_554 S
C1003 C1000 1.387 . S
C1004 C1005 1.387 . S
C1004 H1008 0.950 . S
C1004 C1013 1.390 . S
C1005 C1004 1.387 . S
C1005 C1007 1.387 . S
H1006 C1013 0.950 . S
C1007 C1005 1.387 . S
C1007 C1009 1.390 . S
C1007 H1011 0.950 . S
H1008 C1004 0.950 . S
C1009 C1007 1.390 . S
C1009 C1010 1.387 . S
C1009 H1012 0.950 . S
C1010 C1009 1.387 . S
C1010 C1013 1.387 . S
H1011 C1007 0.950 . S
H1012 C1009 0.950 . S
C1013 C1004 1.390 . S
C1013 H1006 0.950 . S
C1013 C1010 1.387 . S
C1014 C1015 1.387 . S
C1014 H1018 0.950 . S
C1014 C1023 1.390 . S
C1015 C1014 1.387 . S
C1015 C1017 1.387 . S
H1016 C1023 0.950 1_554 S
C1017 C1015 1.387 . S
C1017 C1019 1.390 . S
C1017 H1021 0.950 . S
H1018 C1014 0.950 . S
C1019 C1017 1.390 . S
C1019 C1020 1.387 . S
C1019 H1022 0.950 . S
C1020 C1019 1.387 . S
C1020 C1023 1.387 . S
H1021 C1017 0.950 . S
H1022 C1019 0.950 . S
C1023 C1014 1.390 . S
C1023 H1016 0.950 1_556 S
C1023 C1020 1.387 . S
C1024 C1025 1.387 . S
C1024 H1028 0.950 . S
C1024 C1033 1.390 . S
C1025 C1024 1.387 . S
C1025 C1027 1.387 . S
H1026 C1033 0.950 . S
C1027 C1025 1.387 . S
C1027 C1029 1.390 . S
C1027 H1031 0.950 . S
H1028 C1024 0.950 . S
C1029 C1027 1.390 . S
C1029 C1030 1.387 . S
C1029 H1032 0.950 . S
C1030 C1029 1.387 . S
C1030 C1033 1.387 . S
H1031 C1027 0.950 . S
H1032 C1029 0.950 . S
C1033 C1024 1.390 . S
C1033 H1026 0.950 . S
C1033 C1030 1.387 . S
C1034 C1035 1.387 . S
C1034 H1038 0.950 . S
C1034 C1043 1.390 . S
C1035 C1034 1.387 . S
C1035 C1037 1.387 . S
H1036 C1043 0.950 . S
C1037 C1035 1.387 . S
C1037 C1039 1.390 . S
C1037 H1041 0.950 . S
H1038 C1034 0.950 . S
C1039 C1037 1.390 . S
C1039 C1040 1.387 . S
C1039 H1042 0.950 . S
C1040 C1039 1.387 . S
C1040 C1043 1.387 . S
H1041 C1037 0.950 . S
H1042 C1039 0.950 . S
C1043 C1034 1.390 . S
C1043 H1036 0.950 . S
C1043 C1040 1.387 . S
C1044 C1045 1.387 . S
C1044 H1048 0.950 . S
C1044 C1053 1.390 . S
C1045 C1044 1.387 . S
C1045 C1047 1.387 . S
H1046 C1053 0.950 . S
C1047 C1045 1.387 . S
C1047 C1049 1.390 . S
C1047 H1051 0.950 . S
H1048 C1044 0.950 . S
C1049 C1047 1.390 . S
C1049 C1050 1.387 . S
C1049 H1052 0.950 . S
C1050 C1049 1.387 . S
C1050 C1053 1.387 . S
H1051 C1047 0.950 . S
H1052 C1049 0.950 . S
C1053 C1044 1.390 . S
C1053 H1046 0.950 . S
C1053 C1050 1.387 . S
C1054 C1055 1.387 . S
C1054 H1058 0.950 . S
C1054 C1063 1.390 . S
C1055 C1054 1.387 . S
C1055 C1057 1.387 . S
H1056 C1063 0.950 . S
C1057 C1055 1.387 . S
C1057 C1059 1.390 . S
C1057 H1061 0.950 . S
H1058 C1054 0.950 . S
C1059 C1057 1.390 . S
C1059 C1060 1.387 . S
C1059 H1062 0.950 . S
C1060 C1059 1.387 . S
C1060 C1063 1.387 . S
H1061 C1057 0.950 . S
H1062 C1059 0.950 . S
C1063 C1054 1.390 . S
C1063 H1056 0.950 . S
C1063 C1060 1.387 . S
C1064 C1065 1.387 . S
C1064 H1068 0.950 . S
C1064 C1073 1.390 . S
C1065 C1064 1.387 . S
C1065 C1067 1.387 . S
H1066 C1073 0.950 . S
C1067 C1065 1.387 . S
C1067 C1069 1.390 . S
C1067 H1071 0.950 1_565 S
H1068 C1064 0.950 . S
C1069 C1067 1.390 . S
C1069 C1070 1.387 . S
C1069 H1072 0.973 . S
C1070 C1069 1.387 . S
C1070 C1073 1.387 . S
H1071 C1067 0.950 1_545 S
H1072 C1069 0.973 . S
C1073 C1064 1.390 . S
C1073 H1066 0.950 . S
C1073 C1070 1.387 . S
C1074 C1075 1.387 . S
C1074 H1078 0.950 . S
C1074 C1083 1.390 . S
C1075 C1074 1.387 . S
C1075 C1077 1.387 . S
H1076 C1083 0.950 . S
C1077 C1075 1.387 . S
C1077 C1079 1.390 . S
C1077 H1081 0.950 . S
H1078 C1074 0.950 . S
C1079 C1077 1.390 . S
C1079 C1080 1.387 . S
C1079 H1082 0.950 . S
C1080 C1079 1.387 . S
C1080 C1083 1.387 . S
H1081 C1077 0.950 . S
H1082 C1079 0.950 . S
C1083 C1074 1.390 . S
C1083 H1076 0.950 . S
C1083 C1080 1.387 . S
C1084 C1085 1.387 . S
C1084 H1088 0.950 . S
C1084 C1093 1.390 . S
C1085 C1084 1.387 . S
C1085 C1087 1.387 . S
H1086 C1093 0.950 . S
C1087 C1085 1.387 . S
C1087 C1089 1.390 . S
C1087 H1091 0.950 . S
H1088 C1084 0.950 . S
C1089 C1087 1.390 . S
C1089 C1090 1.387 . S
C1089 H1092 0.950 . S
C1090 C1089 1.387 . S
C1090 C1093 1.387 . S
H1091 C1087 0.950 . S
H1092 C1089 0.950 . S
C1093 C1084 1.390 . S
C1093 H1086 0.950 . S
C1093 C1090 1.387 . S
C1094 C1095 1.387 . S
C1094 H1098 0.950 . S
C1094 C1103 1.390 . S
C1095 C1094 1.387 . S
C1095 C1097 1.387 . S
H1096 C1103 0.950 . S
C1097 C1095 1.387 . S
C1097 C1099 1.390 . S
C1097 H1101 0.950 . S
H1098 C1094 0.950 . S
C1099 C1097 1.390 . S
C1099 C1100 1.387 . S
C1099 H1102 0.950 . S
C1100 C1099 1.387 . S
C1100 C1103 1.387 . S
H1101 C1097 0.950 . S
H1102 C1099 0.950 . S
C1103 C1094 1.390 . S
C1103 H1096 0.950 . S
C1103 C1100 1.387 . S
C1104 C1105 1.387 . S
C1104 H1108 0.952 1_545 S
C1104 C1113 1.390 . S
C1105 C1104 1.387 . S
C1105 C1107 1.387 . S
H1106 C1113 0.950 . S
C1107 C1105 1.387 . S
C1107 C1109 1.390 . S
C1107 H1111 0.950 . S
H1108 C1104 0.952 1_565 S
C1109 C1107 1.390 . S
C1109 C1110 1.387 . S
C1109 H1112 0.950 . S
C1110 C1109 1.387 . S
C1110 C1113 1.387 . S
H1111 C1107 0.950 . S
H1112 C1109 0.950 . S
C1113 C1104 1.390 . S
C1113 H1106 0.950 . S
C1113 C1110 1.387 . S
C1114 C1115 1.387 . S
C1114 H1118 0.950 . S
C1114 C1123 1.390 . S
C1115 C1114 1.387 . S
C1115 C1117 1.387 . S
H1116 C1123 0.950 . S
C1117 C1115 1.387 . S
C1117 C1119 1.390 . S
C1117 H1121 0.950 . S
H1118 C1114 0.950 . S
C1119 C1117 1.390 . S
C1119 C1120 1.387 . S
C1119 H1122 0.950 . S
C1120 C1119 1.387 . S
C1120 C1123 1.387 . S
H1121 C1117 0.950 . S
H1122 C1119 0.950 . S
C1123 C1114 1.390 . S
C1123 H1116 0.950 . S
C1123 C1120 1.387 . S
C1124 C1125 1.387 . S
C1124 H1128 0.950 . S
C1124 C1133 1.390 . S
C1125 C1124 1.387 . S
C1125 C1127 1.387 . S
H1126 C1133 0.950 . S
C1127 C1125 1.387 . S
C1127 C1129 1.390 . S
C1127 H1131 0.950 . S
H1128 C1124 0.950 . S
C1129 C1127 1.390 . S
C1129 C1130 1.387 . S
C1129 H1132 0.950 . S
C1130 C1129 1.387 . S
C1130 C1133 1.387 . S
H1131 C1127 0.950 . S
H1132 C1129 0.950 . S
C1133 C1124 1.390 . S
C1133 H1126 0.950 . S
C1133 C1130 1.387 . S
C1134 C1135 1.387 . S
C1134 H1138 0.950 1_556 S
C1134 C1143 1.390 . S
C1135 C1134 1.387 . S
C1135 C1137 1.387 . S
H1136 C1143 0.950 1_554 S
C1137 C1135 1.387 . S
C1137 C1139 1.390 . S
C1137 H1141 0.950 . S
H1138 C1134 0.950 1_554 S
C1139 C1137 1.390 . S
C1139 C1140 1.387 . S
C1139 H1142 0.950 . S
C1140 C1139 1.387 . S
C1140 C1143 1.387 . S
H1141 C1137 0.950 . S
H1142 C1139 0.950 . S
C1143 C1134 1.390 . S
C1143 H1136 0.950 1_556 S
C1143 C1140 1.387 . S
C1144 C1145 1.387 . S
C1144 H1148 0.950 . S
C1144 C1153 1.390 . S
C1145 C1144 1.387 . S
C1145 C1147 1.387 . S
H1146 C1153 0.950 . S
C1147 C1145 1.387 . S
C1147 C1149 1.390 . S
C1147 H1151 0.950 . S
H1148 C1144 0.950 . S
C1149 C1147 1.390 . S
C1149 C1150 1.387 . S
C1149 H1152 0.950 . S
C1150 C1149 1.387 . S
C1150 C1153 1.387 . S
H1151 C1147 0.950 . S
H1152 C1149 0.950 . S
C1153 C1144 1.390 . S
C1153 H1146 0.950 . S
C1153 C1150 1.387 . S
C1154 C1155 1.387 . S
C1154 H1158 0.950 . S
C1154 C1163 1.390 . S
C1155 C1154 1.387 . S
C1155 C1157 1.387 . S
H1156 C1163 0.950 . S
C1157 C1155 1.387 . S
C1157 C1159 1.390 . S
C1157 H1161 0.950 . S
H1158 C1154 0.950 . S
C1159 C1157 1.390 . S
C1159 C1160 1.387 . S
C1159 H1162 0.950 . S
C1160 C1159 1.387 . S
C1160 C1163 1.387 . S
H1161 C1157 0.950 . S
H1162 C1159 0.950 . S
C1163 C1154 1.390 . S
C1163 H1156 0.950 . S
C1163 C1160 1.387 . S
C1164 C1165 1.387 . S
C1164 H1168 0.950 . S
C1164 C1173 1.390 . S
C1165 C1164 1.387 . S
C1165 C1167 1.387 . S
H1166 C1173 0.950 . S
C1167 C1165 1.387 . S
C1167 C1169 1.390 . S
C1167 H1171 0.950 . S
H1168 C1164 0.950 . S
C1169 C1167 1.390 . S
C1169 C1170 1.387 . S
C1169 H1172 0.950 . S
C1170 C1169 1.387 . S
C1170 C1173 1.387 . S
H1171 C1167 0.950 . S
H1172 C1169 0.950 . S
C1173 C1164 1.390 . S
C1173 H1166 0.950 . S
C1173 C1170 1.387 . S
C1174 C1175 1.387 . S
C1174 H1178 0.950 . S
C1174 C1183 1.390 . S
C1175 C1174 1.387 . S
C1175 C1177 1.387 . S
H1176 C1183 0.950 . S
C1177 C1175 1.387 . S
C1177 C1179 1.390 . S
C1177 H1181 0.950 . S
H1178 C1174 0.950 . S
C1179 C1177 1.390 . S
C1179 C1180 1.387 . S
C1179 H1182 0.950 . S
C1180 C1179 1.387 . S
C1180 C1183 1.387 . S
H1181 C1177 0.950 . S
H1182 C1179 0.950 . S
C1183 C1174 1.390 . S
C1183 H1176 0.950 . S
C1183 C1180 1.387 . S
C1184 C1185 1.387 . S
C1184 H1188 0.950 . S
C1184 C1193 1.390 . S
C1185 C1184 1.387 . S
C1185 C1187 1.387 . S
H1186 C1193 0.950 . S
C1187 C1185 1.387 . S
C1187 C1189 1.390 . S
C1187 H1191 0.950 . S
H1188 C1184 0.950 . S
C1189 C1187 1.390 . S
C1189 C1190 1.387 . S
C1189 H1192 0.950 . S
C1190 C1189 1.387 . S
C1190 C1193 1.387 . S
H1191 C1187 0.950 . S
H1192 C1189 0.950 . S
C1193 C1184 1.390 . S
C1193 H1186 0.950 . S
C1193 C1190 1.387 . S
C1194 C1195 1.387 . S
C1194 H1198 0.950 . S
C1194 C1203 1.390 . S
C1195 C1194 1.387 . S
C1195 C1197 1.387 . S
H1196 C1203 0.950 . S
C1197 C1195 1.387 . S
C1197 C1199 1.390 . S
C1197 H1201 0.950 . S
H1198 C1194 0.950 . S
C1199 C1197 1.390 . S
C1199 C1200 1.387 . S
C1199 H1202 0.950 . S
C1200 C1199 1.387 . S
C1200 C1203 1.387 . S
H1201 C1197 0.950 . S
H1202 C1199 0.950 . S
C1203 C1194 1.390 . S
C1203 H1196 0.950 . S
C1203 C1200 1.387 . S
C1204 C1205 1.387 . S
C1204 H1208 0.950 . S
C1204 C1213 1.390 . S
C1205 C1204 1.387 . S
C1205 C1207 1.387 . S
H1206 C1213 0.950 . S
C1207 C1205 1.387 . S
C1207 C1209 1.390 . S
C1207 H1211 0.950 . S
H1208 C1204 0.950 . S
C1209 C1207 1.390 . S
C1209 C1210 1.387 . S
C1209 H1212 0.950 . S
C1210 C1209 1.387 . S
C1210 C1213 1.387 . S
H1211 C1207 0.950 . S
H1212 C1209 0.950 . S
C1213 C1204 1.390 . S
C1213 H1206 0.950 . S
C1213 C1210 1.387 . S
C1214 C1215 1.387 . S
C1214 H1218 0.950 . S
C1214 C1223 1.390 . S
C1215 C1214 1.387 . S
C1215 C1217 1.387 . S
H1216 C1223 0.950 . S
C1217 C1215 1.387 . S
C1217 C1219 1.390 . S
C1217 H1221 0.950 . S
H1218 C1214 0.950 . S
C1219 C1217 1.390 . S
C1219 C1220 1.387 . S
C1219 H1222 0.950 . S
C1220 C1219 1.387 . S
C1220 C1223 1.387 . S
H1221 C1217 0.950 . S
H1222 C1219 0.950 . S
C1223 C1214 1.390 . S
C1223 H1216 0.950 . S
C1223 C1220 1.387 . S
C1224 C1225 1.387 . S
C1224 H1228 0.950 . S
C1224 C1233 1.390 . S
C1225 C1224 1.387 . S
C1225 C1227 1.387 . S
H1226 C1233 0.950 . S
C1227 C1225 1.387 . S
C1227 C1229 1.390 . S
C1227 H1231 0.950 . S
H1228 C1224 0.950 . S
C1229 C1227 1.390 . S
C1229 C1230 1.387 . S
C1229 H1232 0.950 . S
C1230 C1229 1.387 . S
C1230 C1233 1.387 . S
H1231 C1227 0.950 . S
H1232 C1229 0.950 . S
C1233 C1224 1.390 . S
C1233 H1226 0.950 . S
C1233 C1230 1.387 . S
C1234 C1235 1.387 . S
C1234 H1238 0.950 . S
C1234 C1243 1.390 . S
C1235 C1234 1.387 . S
C1235 C1237 1.387 . S
H1236 C1243 0.950 . S
C1237 C1235 1.387 . S
C1237 C1239 1.390 . S
C1237 H1241 0.950 . S
H1238 C1234 0.950 . S
C1239 C1237 1.390 . S
C1239 C1240 1.387 . S
C1239 H1242 0.950 . S
C1240 C1239 1.387 . S
C1240 C1243 1.387 . S
H1241 C1237 0.950 . S
H1242 C1239 0.950 . S
C1243 C1234 1.390 . S
C1243 H1236 0.950 . S
C1243 C1240 1.387 . S
C1244 C1245 1.387 . S
C1244 H1248 0.950 . S
C1244 C1253 1.390 . S
C1245 C1244 1.387 . S
C1245 C1247 1.387 . S
H1246 C1253 0.950 . S
C1247 C1245 1.387 . S
C1247 C1249 1.390 . S
C1247 H1251 0.950 . S
H1248 C1244 0.950 . S
C1249 C1247 1.390 . S
C1249 C1250 1.387 . S
C1249 H1252 0.950 . S
C1250 C1249 1.387 . S
C1250 C1253 1.387 . S
H1251 C1247 0.950 . S
H1252 C1249 0.950 . S
C1253 C1244 1.390 . S
C1253 H1246 0.950 . S
C1253 C1250 1.387 . S
C1254 C1255 1.387 . S
C1254 H1258 0.950 . S
C1254 C1263 1.390 . S
C1255 C1254 1.387 . S
C1255 C1257 1.387 . S
H1256 C1263 0.950 . S
C1257 C1255 1.387 . S
C1257 C1259 1.390 . S
C1257 H1261 0.950 . S
H1258 C1254 0.950 . S
C1259 C1257 1.390 . S
C1259 C1260 1.387 . S
C1259 H1262 0.950 . S
C1260 C1259 1.387 . S
C1260 C1263 1.387 . S
H1261 C1257 0.950 . S
H1262 C1259 0.950 . S
C1263 C1254 1.390 . S
C1263 H1256 0.950 . S
C1263 C1260 1.387 . S
C1264 C1265 1.387 . S
C1264 H1268 0.950 . S
C1264 C1273 1.390 . S
C1265 C1264 1.387 . S
C1265 C1267 1.387 . S
H1266 C1273 0.950 . S
C1267 C1265 1.387 . S
C1267 C1269 1.390 . S
C1267 H1271 0.950 . S
H1268 C1264 0.950 . S
C1269 C1267 1.390 . S
C1269 C1270 1.387 . S
C1269 H1272 0.950 . S
C1270 C1269 1.387 . S
C1270 C1273 1.387 . S
H1271 C1267 0.950 . S
H1272 C1269 0.950 . S
C1273 C1264 1.390 . S
C1273 H1266 0.950 . S
C1273 C1270 1.387 . S
C1274 C1275 1.387 . S
C1274 H1278 0.950 . S
C1274 C1283 1.390 . S
C1275 C1274 1.387 . S
C1275 C1277 1.387 . S
H1276 C1283 0.950 . S
C1277 C1275 1.387 . S
C1277 C1279 1.390 . S
C1277 H1281 0.950 . S
H1278 C1274 0.950 . S
C1279 C1277 1.390 . S
C1279 C1280 1.387 . S
C1279 H1282 0.950 . S
C1280 C1279 1.387 . S
C1280 C1283 1.387 . S
H1281 C1277 0.950 . S
H1282 C1279 0.950 . S
C1283 C1274 1.390 . S
C1283 H1276 0.950 . S
C1283 C1280 1.387 . S
C1284 C1285 1.387 . S
C1284 H1288 0.950 . S
C1284 C1293 1.390 . S
C1285 C1284 1.387 . S
C1285 C1287 1.387 . S
H1286 C1293 0.950 . S
C1287 C1285 1.387 . S
C1287 C1289 1.390 . S
C1287 H1291 0.950 . S
H1288 C1284 0.950 . S
C1289 C1287 1.390 . S
C1289 C1290 1.387 . S
C1289 H1292 0.950 . S
C1290 C1289 1.387 . S
C1290 C1293 1.387 . S
H1291 C1287 0.950 . S
H1292 C1289 0.950 . S
C1293 C1284 1.390 . S
C1293 H1286 0.950 . S
C1293 C1290 1.387 . S
C1294 C1295 1.387 . S
C1294 H1298 0.950 . S
C1294 C1303 1.390 . S
C1295 C1294 1.387 . S
C1295 C1297 1.387 . S
H1296 C1303 0.950 . S
C1297 C1295 1.387 . S
C1297 C1299 1.390 . S
C1297 H1301 0.950 . S
H1298 C1294 0.950 . S
C1299 C1297 1.390 . S
C1299 C1300 1.387 . S
C1299 H1302 0.950 . S
C1300 C1299 1.387 . S
C1300 C1303 1.387 . S
H1301 C1297 0.950 . S
H1302 C1299 0.950 . S
C1303 C1294 1.390 . S
C1303 H1296 0.950 . S
C1303 C1300 1.387 . S
C1304 C1305 1.387 . S
C1304 H1308 0.950 . S
C1304 C1313 1.390 . S
C1305 C1304 1.387 . S
C1305 C1307 1.387 . S
H1306 C1313 0.950 . S
C1307 C1305 1.387 . S
C1307 C1309 1.390 . S
C1307 H1311 0.950 . S
H1308 C1304 0.950 . S
C1309 C1307 1.390 . S
C1309 C1310 1.387 . S
C1309 H1312 0.950 . S
C1310 C1309 1.387 . S
C1310 C1313 1.387 . S
H1311 C1307 0.950 . S
H1312 C1309 0.950 . S
C1313 C1304 1.390 . S
C1313 H1306 0.950 . S
C1313 C1310 1.387 . S
C1314 C1315 1.387 . S
C1314 H1318 0.950 . S
C1314 C1323 1.390 . S
C1315 C1314 1.387 . S
C1315 C1317 1.387 . S
H1316 C1323 0.950 . S
C1317 C1315 1.387 . S
C1317 C1319 1.390 . S
C1317 H1321 0.950 . S
H1318 C1314 0.950 . S
C1319 C1317 1.390 . S
C1319 C1320 1.387 . S
C1319 H1322 0.950 . S
C1320 C1319 1.387 . S
C1320 C1323 1.387 . S
H1321 C1317 0.950 . S
H1322 C1319 0.950 . S
C1323 C1314 1.390 . S
C1323 H1316 0.950 . S
C1323 C1320 1.387 . S
C1324 C1325 1.387 . S
C1324 H1328 0.950 . S
C1324 C1333 1.390 . S
C1325 C1324 1.387 . S
C1325 C1327 1.387 . S
H1326 C1333 0.950 . S
C1327 C1325 1.387 . S
C1327 C1329 1.390 . S
C1327 H1331 0.950 . S
H1328 C1324 0.950 . S
C1329 C1327 1.390 . S
C1329 C1330 1.387 . S
C1329 H1332 0.950 . S
C1330 C1329 1.387 . S
C1330 C1333 1.387 . S
H1331 C1327 0.950 . S
H1332 C1329 0.950 . S
C1333 C1324 1.390 . S
C1333 H1326 0.950 . S
C1333 C1330 1.387 . S
C1334 C1335 1.387 . S
C1334 H1338 0.950 . S
C1334 C1343 1.390 . S
C1335 C1334 1.387 . S
C1335 C1337 1.387 . S
H1336 C1343 0.950 1_554 S
C1337 C1335 1.387 . S
C1337 C1339 1.390 . S
C1337 H1341 0.950 . S
H1338 C1334 0.950 . S
C1339 C1337 1.390 . S
C1339 C1340 1.387 . S
C1339 H1342 0.950 . S
C1340 C1339 1.387 . S
C1340 C1343 1.387 . S
H1341 C1337 0.950 . S
H1342 C1339 0.950 . S
C1343 C1334 1.390 . S
C1343 H1336 0.950 1_556 S
C1343 C1340 1.387 . S
C1344 C1345 1.387 . S
C1344 H1348 0.950 . S
C1344 C1353 1.390 . S
C1345 C1344 1.387 . S
C1345 C1347 1.387 . S
H1346 C1353 0.950 . S
C1347 C1345 1.387 . S
C1347 C1349 1.390 . S
C1347 H1351 0.950 . S
H1348 C1344 0.950 . S
C1349 C1347 1.390 . S
C1349 C1350 1.387 . S
C1349 H1352 0.950 . S
C1350 C1349 1.387 . S
C1350 C1353 1.387 . S
H1351 C1347 0.950 . S
H1352 C1349 0.950 . S
C1353 C1344 1.390 . S
C1353 H1346 0.950 . S
C1353 C1350 1.387 . S
C1354 C1355 1.387 . S
C1354 H1358 0.950 . S
C1354 C1363 1.390 . S
C1355 C1354 1.387 . S
C1355 C1357 1.387 . S
H1356 C1363 0.950 . S
C1357 C1355 1.387 . S
C1357 C1359 1.390 . S
C1357 H1361 0.950 . S
H1358 C1354 0.950 . S
C1359 C1357 1.390 . S
C1359 C1360 1.387 . S
C1359 H1362 0.950 . S
C1360 C1359 1.387 . S
C1360 C1363 1.387 . S
H1361 C1357 0.950 . S
H1362 C1359 0.950 . S
C1363 C1354 1.390 . S
C1363 H1356 0.950 . S
C1363 C1360 1.387 . S
C1364 C1365 1.387 . S
C1364 H1368 0.950 . S
C1364 C1373 1.390 . S
C1365 C1364 1.387 . S
C1365 C1367 1.387 . S
H1366 C1373 0.950 . S
C1367 C1365 1.387 . S
C1367 C1369 1.390 . S
C1367 H1371 0.950 . S
H1368 C1364 0.950 . S
C1369 C1367 1.390 . S
C1369 C1370 1.387 . S
C1369 H1372 0.950 . S
C1370 C1369 1.387 . S
C1370 C1373 1.387 . S
H1371 C1367 0.950 . S
H1372 C1369 0.950 . S
C1373 C1364 1.390 . S
C1373 H1366 0.950 . S
C1373 C1370 1.387 . S
C1374 C1375 1.387 . S
C1374 H1378 0.950 . S
C1374 C1383 1.390 . S
C1375 C1374 1.387 . S
C1375 C1377 1.387 . S
H1376 C1383 0.950 . S
C1377 C1375 1.387 . S
C1377 C1379 1.390 . S
C1377 H1381 0.950 . S
H1378 C1374 0.950 . S
C1379 C1377 1.390 . S
C1379 C1380 1.387 . S
C1379 H1382 0.950 . S
C1380 C1379 1.387 . S
C1380 C1383 1.387 . S
H1381 C1377 0.950 . S
H1382 C1379 0.950 . S
C1383 C1374 1.390 . S
C1383 H1376 0.950 . S
C1383 C1380 1.387 . S
C1384 C1385 1.387 . S
C1384 H1388 0.950 . S
C1384 C1393 1.390 . S
C1385 C1384 1.387 . S
C1385 C1387 1.387 . S
H1386 C1393 0.950 . S
C1387 C1385 1.387 . S
C1387 C1389 1.390 . S
C1387 H1391 0.950 . S
H1388 C1384 0.950 . S
C1389 C1387 1.390 . S
C1389 C1390 1.387 . S
C1389 H1392 0.950 . S
C1390 C1389 1.387 . S
C1390 C1393 1.387 . S
H1391 C1387 0.950 . S
H1392 C1389 0.950 . S
C1393 C1384 1.390 . S
C1393 H1386 0.950 . S
C1393 C1390 1.387 . S
C1394 C1395 1.387 . S
C1394 H1398 0.950 . S
C1394 C1403 1.390 . S
C1395 C1394 1.387 . S
C1395 C1397 1.387 . S
H1396 C1403 0.950 . S
C1397 C1395 1.387 . S
C1397 C1399 1.390 . S
C1397 H1401 0.950 . S
H1398 C1394 0.950 . S
C1399 C1397 1.390 . S
C1399 C1400 1.387 . S
C1399 H1402 0.950 . S
C1400 C1399 1.387 . S
C1400 C1403 1.387 . S
H1401 C1397 0.950 . S
H1402 C1399 0.950 . S
C1403 C1394 1.390 . S
C1403 H1396 0.950 . S
C1403 C1400 1.387 . S
C1404 C1405 1.387 . S
C1404 H1408 0.950 . S
C1404 C1413 1.390 . S
C1405 C1404 1.387 . S
C1405 C1407 1.387 . S
H1406 C1413 0.950 . S
C1407 C1405 1.387 . S
C1407 C1409 1.390 . S
C1407 H1411 0.950 . S
H1408 C1404 0.950 . S
C1409 C1407 1.390 . S
C1409 C1410 1.387 . S
C1409 H1412 0.950 . S
C1410 C1409 1.387 . S
C1410 C1413 1.387 . S
H1411 C1407 0.950 . S
H1412 C1409 0.950 . S
C1413 C1404 1.390 . S
C1413 H1406 0.950 . S
C1413 C1410 1.387 . S
C1414 C1415 1.387 . S
C1414 H1418 0.950 . S
C1414 C1423 1.390 . S
C1415 C1414 1.387 . S
C1415 C1417 1.387 . S
H1416 C1423 0.950 . S
C1417 C1415 1.387 . S
C1417 C1419 1.390 . S
C1417 H1421 0.950 . S
H1418 C1414 0.950 . S
C1419 C1417 1.390 . S
C1419 C1420 1.387 . S
C1419 H1422 0.950 . S
C1420 C1419 1.387 . S
C1420 C1423 1.387 . S
H1421 C1417 0.950 . S
H1422 C1419 0.950 . S
C1423 C1414 1.390 . S
C1423 H1416 0.950 . S
C1423 C1420 1.387 . S
C1424 C1425 1.387 . S
C1424 H1428 0.950 . S
C1424 C1433 1.390 . S
C1425 C1424 1.387 . S
C1425 C1427 1.387 . S
H1426 C1433 0.950 . S
C1427 C1425 1.387 . S
C1427 C1429 1.390 . S
C1427 H1431 0.950 . S
H1428 C1424 0.950 . S
C1429 C1427 1.390 . S
C1429 C1430 1.387 . S
C1429 H1432 0.950 . S
C1430 C1429 1.387 . S
C1430 C1433 1.387 . S
H1431 C1427 0.950 . S
H1432 C1429 0.950 . S
C1433 C1424 1.390 . S
C1433 H1426 0.950 . S
C1433 C1430 1.387 . S
C1434 C1435 1.387 . S
C1434 H1438 0.950 . S
C1434 C1443 1.390 . S
C1435 C1434 1.387 . S
C1435 C1437 1.387 . S
H1436 C1443 0.950 . S
C1437 C1435 1.387 . S
C1437 C1439 1.390 . S
C1437 H1441 0.950 . S
H1438 C1434 0.950 . S
C1439 C1437 1.390 . S
C1439 C1440 1.387 . S
C1439 H1442 0.950 . S
C1440 C1439 1.387 . S
C1440 C1443 1.387 . S
H1441 C1437 0.950 . S
H1442 C1439 0.950 . S
C1443 C1434 1.390 . S
C1443 H1436 0.950 . S
C1443 C1440 1.387 . S
C1444 C1445 1.387 . S
C1444 H1448 0.950 . S
C1444 C1453 1.390 . S
C1445 C1444 1.387 . S
C1445 C1447 1.387 . S
H1446 C1453 0.950 . S
C1447 C1445 1.387 . S
C1447 C1449 1.390 . S
C1447 H1451 0.950 . S
H1448 C1444 0.950 . S
C1449 C1447 1.390 . S
C1449 C1450 1.387 . S
C1449 H1452 0.950 . S
C1450 C1449 1.387 . S
C1450 C1453 1.387 . S
H1451 C1447 0.950 . S
H1452 C1449 0.950 . S
C1453 C1444 1.390 . S
C1453 H1446 0.950 . S
C1453 C1450 1.387 . S
C1454 C1455 1.387 . S
C1454 H1458 0.950 . S
C1454 C1463 1.390 . S
C1455 C1454 1.387 . S
C1455 C1457 1.387 . S
H1456 C1463 0.950 . S
C1457 C1455 1.387 . S
C1457 C1459 1.390 . S
C1457 H1461 0.950 . S
H1458 C1454 0.950 . S
C1459 C1457 1.390 . S
C1459 C1460 1.387 . S
C1459 H1462 0.950 . S
C1460 C1459 1.387 . S
C1460 C1463 1.387 . S
H1461 C1457 0.950 . S
H1462 C1459 0.950 . S
C1463 C1454 1.390 . S
C1463 H1456 0.950 . S
C1463 C1460 1.387 . S
C1464 C1465 1.387 . S
C1464 H1468 0.950 . S
C1464 C1473 1.390 . S
C1465 C1464 1.387 . S
C1465 C1467 1.387 . S
H1466 C1473 0.950 . S
C1467 C1465 1.387 . S
C1467 C1469 1.390 . S
C1467 H1471 0.950 . S
H1468 C1464 0.950 . S
C1469 C1467 1.390 . S
C1469 C1470 1.387 . S
C1469 H1472 0.950 . S
C1470 C1469 1.387 . S
C1470 C1473 1.387 . S
H1471 C1467 0.950 . S
H1472 C1469 0.950 . S
C1473 C1464 1.390 . S
C1473 H1466 0.950 . S
C1473 C1470 1.387 . S
C1474 C1475 1.387 . S
C1474 H1478 0.950 . S
C1474 C1483 1.390 . S
C1475 C1474 1.387 . S
C1475 C1477 1.387 . S
H1476 C1483 0.950 . S
C1477 C1475 1.387 . S
C1477 C1479 1.390 . S
C1477 H1481 0.950 . S
H1478 C1474 0.950 . S
C1479 C1477 1.390 . S
C1479 C1480 1.387 . S
C1479 H1482 0.950 . S
C1480 C1479 1.387 . S
C1480 C1483 1.387 . S
H1481 C1477 0.950 . S
H1482 C1479 0.950 . S
C1483 C1474 1.390 . S
C1483 H1476 0.950 . S
C1483 C1480 1.387 . S
C1484 C1485 1.387 . S
C1484 H1488 0.950 . S
C1484 C1493 1.390 . S
C1485 C1484 1.387 . S
C1485 C1487 1.387 . S
H1486 C1493 0.950 . S
C1487 C1485 1.387 . S
C1487 C1489 1.390 . S
C1487 H1491 0.950 . S
H1488 C1484 0.950 . S
C1489 C1487 1.390 . S
C1489 C1490 1.387 . S
C1489 H1492 0.950 . S
C1490 C1489 1.387 . S
C1490 C1493 1.387 . S
H1491 C1487 0.950 . S
H1492 C1489 0.950 . S
C1493 C1484 1.390 . S
C1493 H1486 0.950 . S
C1493 C1490 1.387 . S
C1494 C1495 1.387 . S
C1494 H1498 0.950 . S
C1494 C1503 1.390 . S
C1495 C1494 1.387 . S
C1495 C1497 1.387 . S
H1496 C1503 0.950 . S
C1497 C1495 1.387 . S
C1497 C1499 1.390 . S
C1497 H1501 0.950 . S
H1498 C1494 0.950 . S
C1499 C1497 1.390 . S
C1499 C1500 1.387 . S
C1499 H1502 0.950 . S
C1500 C1499 1.387 . S
C1500 C1503 1.387 . S
H1501 C1497 0.950 . S
H1502 C1499 0.950 . S
C1503 C1494 1.390 . S
C1503 H1496 0.950 . S
C1503 C1500 1.387 . S
C1504 C1505 1.387 . S
C1504 H1508 0.950 . S
C1504 C1513 1.390 . S
C1505 C1504 1.387 . S
C1505 C1507 1.387 . S
H1506 C1513 0.950 . S
C1507 C1505 1.387 . S
C1507 C1509 1.390 . S
C1507 H1511 0.950 . S
H1508 C1504 0.950 . S
C1509 C1507 1.390 . S
C1509 C1510 1.387 . S
C1509 H1512 0.950 . S
C1510 C1509 1.387 . S
C1510 C1513 1.387 . S
H1511 C1507 0.950 . S
H1512 C1509 0.950 . S
C1513 C1504 1.390 . S
C1513 H1506 0.950 . S
C1513 C1510 1.387 . S
C1514 C1515 1.387 . S
C1514 H1518 0.950 . S
C1514 C1523 1.390 . S
C1515 C1514 1.387 . S
C1515 C1517 1.387 . S
H1516 C1523 0.950 . S
C1517 C1515 1.387 . S
C1517 C1519 1.390 . S
C1517 H1521 0.950 . S
H1518 C1514 0.950 . S
C1519 C1517 1.390 . S
C1519 C1520 1.387 . S
C1519 H1522 0.950 . S
C1520 C1519 1.387 . S
C1520 C1523 1.387 . S
H1521 C1517 0.950 . S
H1522 C1519 0.950 . S
C1523 C1514 1.390 . S
C1523 H1516 0.950 . S
C1523 C1520 1.387 . S
C1524 C1525 1.387 . S
C1524 H1528 0.950 . S
C1524 C1533 1.390 . S
C1525 C1524 1.387 . S
C1525 C1527 1.387 . S
H1526 C1533 0.950 . S
C1527 C1525 1.387 . S
C1527 C1529 1.390 . S
C1527 H1531 0.950 . S
H1528 C1524 0.950 . S
C1529 C1527 1.390 . S
C1529 C1530 1.387 . S
C1529 H1532 0.950 . S
C1530 C1529 1.387 . S
C1530 C1533 1.387 . S
H1531 C1527 0.950 . S
H1532 C1529 0.950 . S
C1533 C1524 1.390 . S
C1533 H1526 0.950 . S
C1533 C1530 1.387 . S
C1534 C1535 1.387 . S
C1534 H1538 0.950 . S
C1534 C1543 1.390 . S
C1535 C1534 1.387 . S
C1535 C1537 1.387 . S
H1536 C1543 0.950 . S
C1537 C1535 1.387 . S
C1537 C1539 1.390 . S
C1537 H1541 0.950 . S
H1538 C1534 0.950 . S
C1539 C1537 1.390 . S
C1539 C1540 1.387 . S
C1539 H1542 0.950 . S
C1540 C1539 1.387 . S
C1540 C1543 1.387 . S
H1541 C1537 0.950 . S
H1542 C1539 0.950 . S
C1543 C1534 1.390 . S
C1543 H1536 0.950 . S
C1543 C1540 1.387 . S
C1544 C1545 1.387 . S
C1544 H1548 0.950 . S
C1544 C1553 1.390 . S
C1545 C1544 1.387 . S
C1545 C1547 1.387 . S
H1546 C1553 0.950 . S
C1547 C1545 1.387 . S
C1547 C1549 1.390 . S
C1547 H1551 0.950 . S
H1548 C1544 0.950 . S
C1549 C1547 1.390 . S
C1549 C1550 1.387 . S
C1549 H1552 0.950 . S
C1550 C1549 1.387 . S
C1550 C1553 1.387 . S
H1551 C1547 0.950 . S
H1552 C1549 0.950 . S
C1553 C1544 1.390 . S
C1553 H1546 0.950 . S
C1553 C1550 1.387 . S
C1554 C1555 1.387 . S
C1554 H1558 0.950 . S
C1554 C1563 1.390 . S
C1555 C1554 1.387 . S
C1555 C1557 1.387 . S
H1556 C1563 0.950 . S
C1557 C1555 1.387 . S
C1557 C1559 1.390 . S
C1557 H1561 0.950 . S
H1558 C1554 0.950 . S
C1559 C1557 1.390 . S
C1559 C1560 1.387 . S
C1559 H1562 0.950 . S
C1560 C1559 1.387 . S
C1560 C1563 1.387 . S
H1561 C1557 0.950 . S
H1562 C1559 0.950 . S
C1563 C1554 1.390 . S
C1563 H1556 0.950 . S
C1563 C1560 1.387 . S
C1564 C1565 1.387 . S
C1564 H1568 0.950 . S
C1564 C1573 1.390 . S
C1565 C1564 1.387 . S
C1565 C1567 1.387 . S
H1566 C1573 0.950 . S
C1567 C1565 1.387 . S
C1567 C1569 1.390 . S
C1567 H1571 0.950 . S
H1568 C1564 0.950 . S
C1569 C1567 1.390 . S
C1569 C1570 1.387 . S
C1569 H1572 0.950 . S
C1570 C1569 1.387 . S
C1570 C1573 1.387 . S
H1571 C1567 0.950 . S
H1572 C1569 0.950 . S
C1573 C1564 1.390 . S
C1573 H1566 0.950 . S
C1573 C1570 1.387 . S
C1574 C1575 1.387 . S
C1574 H1578 0.950 . S
C1574 C1583 1.390 . S
C1575 C1574 1.387 . S
C1575 C1577 1.387 . S
H1576 C1583 0.950 . S
C1577 C1575 1.387 . S
C1577 C1579 1.390 . S
C1577 H1581 0.950 . S
H1578 C1574 0.950 . S
C1579 C1577 1.390 . S
C1579 C1580 1.387 . S
C1579 H1582 0.950 . S
C1580 C1579 1.387 . S
C1580 C1583 1.387 . S
H1581 C1577 0.950 . S
H1582 C1579 0.950 . S
C1583 C1574 1.390 . S
C1583 H1576 0.950 . S
C1583 C1580 1.387 . S
C1584 C1585 1.387 . S
C1584 H1588 0.950 . S
C1584 C1593 1.390 . S
C1585 C1584 1.387 . S
C1585 C1587 1.387 . S
H1586 C1593 0.950 . S
C1587 C1585 1.387 . S
C1587 C1589 1.390 . S
C1587 H1591 0.950 . S
H1588 C1584 0.950 . S
C1589 C1587 1.390 . S
C1589 C1590 1.387 . S
C1589 H1592 0.950 . S
C1590 C1589 1.387 . S
C1590 C1593 1.387 . S
H1591 C1587 0.950 . S
H1592 C1589 0.950 . S
C1593 C1584 1.390 . S
C1593 H1586 0.950 . S
C1593 C1590 1.387 . S
C1594 C1595 1.387 . S
C1594 H1598 0.950 . S
C1594 C1603 1.390 . S
C1595 C1594 1.387 . S
C1595 C1597 1.387 . S
H1596 C1603 0.950 . S
C1597 C1595 1.387 . S
C1597 C1599 1.390 . S
C1597 H1601 0.950 . S
H1598 C1594 0.950 . S
C1599 C1597 1.390 . S
C1599 C1600 1.387 . S
C1599 H1602 0.950 . S
C1600 C1599 1.387 . S
C1600 C1603 1.387 . S
H1601 C1597 0.950 . S
H1602 C1599 0.950 . S
C1603 C1594 1.390 . S
C1603 H1596 0.950 . S
C1603 C1600 1.387 . S
C1604 C1605 1.387 . S
C1604 H1608 0.950 . S
C1604 C1613 1.390 . S
C1605 C1604 1.387 . S
C1605 C1607 1.387 . S
H1606 C1613 0.950 . S
C1607 C1605 1.387 . S
C1607 C1609 1.390 . S
C1607 H1611 0.950 . S
H1608 C1604 0.950 . S
C1609 C1607 1.390 . S
C1609 C1610 1.387 . S
C1609 H1612 0.950 . S
C1610 C1609 1.387 . S
C1610 C1613 1.387 . S
H1611 C1607 0.950 . S
H1612 C1609 0.950 . S
C1613 C1604 1.390 . S
C1613 H1606 0.950 . S
C1613 C1610 1.387 . S
C1614 C1615 1.387 . S
C1614 H1618 0.950 . S
C1614 C1623 1.390 . S
C1615 C1614 1.387 . S
C1615 C1617 1.387 . S
H1616 C1623 0.950 . S
C1617 C1615 1.387 . S
C1617 C1619 1.390 . S
C1617 H1621 0.950 . S
H1618 C1614 0.950 . S
C1619 C1617 1.390 . S
C1619 C1620 1.387 . S
C1619 H1622 0.950 . S
C1620 C1619 1.387 . S
C1620 C1623 1.387 . S
H1621 C1617 0.950 . S
H1622 C1619 0.950 . S
C1623 C1614 1.390 . S
C1623 H1616 0.950 . S
C1623 C1620 1.387 . S
C1624 C1625 1.387 . S
C1624 H1628 0.950 . S
C1624 C1633 1.390 . S
C1625 C1624 1.387 . S
C1625 C1627 1.387 . S
H1626 C1633 0.950 1_565 S
C1627 C1625 1.387 . S
C1627 C1629 1.390 . S
C1627 H1631 0.950 . S
H1628 C1624 0.950 . S
C1629 C1627 1.390 . S
C1629 C1630 1.387 . S
C1629 H1632 0.950 . S
C1630 C1629 1.387 . S
C1630 C1633 1.387 . S
H1631 C1627 0.950 . S
H1632 C1629 0.950 . S
C1633 C1624 1.390 . S
C1633 H1626 0.950 1_545 S
C1633 C1630 1.387 . S
C1634 C1635 1.387 . S
C1634 H1638 0.950 . S
C1634 C1643 1.390 . S
C1635 C1634 1.387 . S
C1635 C1637 1.387 . S
H1636 C1643 0.950 . S
C1637 C1635 1.387 . S
C1637 C1639 1.390 . S
C1637 H1641 0.950 . S
H1638 C1634 0.950 . S
C1639 C1637 1.390 . S
C1639 C1640 1.387 . S
C1639 H1642 0.950 . S
C1640 C1639 1.387 . S
C1640 C1643 1.387 . S
H1641 C1637 0.950 . S
H1642 C1639 0.950 . S
C1643 C1634 1.390 . S
C1643 H1636 0.950 . S
C1643 C1640 1.387 . S
C1644 C1645 1.387 . S
C1644 H1648 0.950 . S
C1644 C1653 1.390 . S
C1645 C1644 1.387 . S
C1645 C1647 1.387 . S
H1646 C1653 0.950 . S
C1647 C1645 1.387 . S
C1647 C1649 1.390 . S
C1647 H1651 0.950 . S
H1648 C1644 0.950 . S
C1649 C1647 1.390 . S
C1649 C1650 1.387 . S
C1649 H1652 0.950 . S
C1650 C1649 1.387 . S
C1650 C1653 1.387 . S
H1651 C1647 0.950 . S
H1652 C1649 0.950 . S
C1653 C1644 1.390 . S
C1653 H1646 0.950 . S
C1653 C1650 1.387 . S
C1654 C1655 1.387 . S
C1654 H1658 0.950 . S
C1654 C1663 1.390 . S
C1655 C1654 1.387 . S
C1655 C1657 1.387 . S
H1656 C1663 0.950 . S
C1657 C1655 1.387 . S
C1657 C1659 1.390 . S
C1657 H1661 0.950 . S
H1658 C1654 0.950 . S
C1659 C1657 1.390 . S
C1659 C1660 1.387 . S
C1659 H1662 0.950 . S
C1660 C1659 1.387 . S
C1660 C1663 1.387 . S
H1661 C1657 0.950 . S
H1662 C1659 0.950 . S
C1663 C1654 1.390 . S
C1663 H1656 0.950 . S
C1663 C1660 1.387 . S
C1664 C1665 1.387 . S
C1664 H1668 0.950 . S
C1664 C1673 1.390 . S
C1665 C1664 1.387 . S
C1665 C1667 1.387 . S
H1666 C1673 0.950 . S
C1667 C1665 1.387 . S
C1667 C1669 1.390 . S
C1667 H1671 0.950 . S
H1668 C1664 0.950 . S
C1669 C1667 1.390 . S
C1669 C1670 1.387 . S
C1669 H1672 0.950 . S
C1670 C1669 1.387 . S
C1670 C1673 1.387 . S
H1671 C1667 0.950 . S
H1672 C1669 0.950 . S
C1673 C1664 1.390 . S
C1673 H1666 0.950 . S
C1673 C1670 1.387 . S
C1674 C1675 1.387 . S
C1674 H1678 0.950 . S
C1674 C1683 1.390 . S
C1675 C1674 1.387 . S
C1675 C1677 1.387 . S
H1676 C1683 0.950 . S
C1677 C1675 1.387 . S
C1677 C1679 1.390 . S
C1677 H1681 0.950 . S
H1678 C1674 0.950 . S
C1679 C1677 1.390 . S
C1679 C1680 1.387 . S
C1679 H1682 0.950 . S
C1680 C1679 1.387 . S
C1680 C1683 1.387 . S
H1681 C1677 0.950 . S
H1682 C1679 0.950 . S
C1683 C1674 1.390 . S
C1683 H1676 0.950 . S
C1683 C1680 1.387 . S
C730 C381 1.237 . S
C725 C241 1.351 . S
C740 C384 1.474 . S
C735 C272 1.606 . S
C750 C372 1.143 . S
C745 C249 1.232 . S
C755 C206 1.765 . S
C760 C385 1.605 . S
C770 C416 1.242 . S
C765 C125 1.344 . S
C775 C142 1.791 . S
C780 C443 1.618 . S
C790 C415 1.135 . S
C785 C169 1.216 . S
C795 C103 1.658 . S
C800 C434 1.529 . S
C805 C315 1.362 . S
C810 C447 1.255 . S
C815 C338 1.730 . S
C820 C478 1.560 1_545 S
C830 C536 1.255 . S
C825 C183 1.365 . S
C840 C558 1.567 . S
C835 C293 1.696 . S
C850 C446 1.134 . S
C845 C87 1.219 . S
C860 C477 1.563 . S
C855 C21 1.681 . S
C865 C43 1.211 . S
C870 C527 1.126 . S
C875 C65 1.753 . S
C880 C567 1.611 . S
C885 C37 1.368 . S
C890 C505 1.257 . S
C900 C571 1.281 . S
C895 C197 1.390 . S
C905 C307 1.770 . S
C910 C602 1.628 . S
C920 C651 1.121 . S
C915 C329 1.203 . S
C925 C150 1.764 . S
C930 C509 1.588 1_655 S
C940 C570 1.101 . S
C935 C227 1.186 . S
C950 C601 1.491 . S
C945 C274 1.621 . S
C960 C682 1.508 . S
C955 C208 1.658 . S
C965 C73 1.344 . S
C970 C412 1.233 . S
C975 C7 1.628 . S
C980 C353 1.511 . S
C990 C403 1.137 . S
C985 C29 1.225 . S
C995 C51 1.784 . S
C1000 C354 1.636 1_554 S
C1005 C323 1.352 . S
C1010 C695 1.249 . S
C1015 C340 1.779 . S
C1020 C722 1.604 1_556 S
C1030 C694 1.143 . S
C1025 C191 1.224 . S
C1035 C301 1.649 . S
C1040 C713 1.520 1_556 S
C1045 C117 1.355 . S
C1050 C629 1.249 . S
C1060 C633 1.566 . S
C1055 C140 1.734 . S
C1070 C664 1.246 . S
C1065 C161 1.356 . S
C1080 C589 1.556 1_565 S
C1075 C95 1.698 . S
C1090 C620 1.129 . S
C1085 C235 1.215 . S
C1095 C282 1.650 . S
C1100 C632 1.515 . S
C1105 C263 1.205 . S
C1110 C663 1.121 . S
C1120 C598 1.564 1_565 S
C1115 C216 1.720 . S
C1125 C257 1.369 . S
C1130 C660 1.258 . S
C1140 C540 1.276 . S
C1135 C175 1.385 . S
C1145 C109 1.758 . S
C1150 C474 1.618 1_455 S
C1155 C131 1.200 . S
C1160 C496 1.118 . S
C1165 C348 1.777 . S
C1170 C691 1.602 . S
C1175 C81 1.188 . S
C1180 C539 1.104 . S
C1185 C15 1.643 . S
C1190 C465 1.523 . S
C1200 C508 1.569 . S
C1195 C59 1.677 . S
C1210 C352 1.669 . S
C1205 C351 1.583 . S
C1220 C402 1.935 . S
C1215 C194 1.872 . S
C1230 C362 1.421 . S
C1225 C304 1.493 . S
C1240 C413 1.756 . S
C1235 C326 1.772 . S
C1250 C433 1.633 . S
C1245 C205 1.547 . S
C1255 C230 1.749 . S
C1260 C424 1.721 . S
C1265 C271 1.483 . S
C1270 C444 1.441 . S
C1275 C250 1.827 . S
C1280 C414 1.879 . S
C1290 C464 1.589 . S
C1285 C62 1.529 . S
C1300 C506 1.743 . S
C1295 C84 1.759 . S
C1305 C18 1.508 . S
C1310 C507 1.570 . S
C1320 C538 1.876 . S
C1315 C40 1.829 . S
C1325 C147 1.523 . S
C1330 C475 1.479 . S
C1340 C495 1.895 . S
C1335 C164 1.853 . S
C1350 C517 1.415 . S
C1345 C98 1.490 . S
C1355 C120 1.781 . S
C1360 C548 1.764 . S
C1370 C476 1.536 . S
C1365 C96 1.478 . S
C1375 C10 1.482 . S
C1380 C588 1.541 . S
C1385 C32 1.754 . S
C1390 C630 1.741 . S
C1395 C54 1.534 . S
C1400 C641 1.457 . S
C1410 C537 1.774 . S
C1405 C238 1.798 . S
C1420 C599 1.503 . S
C1415 C337 1.553 . S
C1425 C184 1.829 . S
C1430 C619 1.884 . S
C1440 C662 1.903 . S
C1435 C316 1.857 . S
C1450 C383 1.664 . S
C1445 C153 1.576 . S
C1455 C172 1.869 . S
C1460 C371 1.931 . S
C1465 C106 1.487 . S
C1470 C393 1.415 . S
C1475 C128 1.771 . S
C1480 C382 1.756 . S
C1490 C712 1.580 . S
C1485 C52 1.527 . S
C1500 C703 1.727 . S
C1495 C74 1.751 . S
C1505 C8 1.461 . S
C1510 C723 1.389 . S
C1515 C30 1.833 . S
C1520 C693 1.880 . S
C1525 C219 1.552 . S
C1530 C600 1.637 . S
C1540 C661 1.731 . S
C1535 C228 1.748 . S
C1550 C681 1.619 . S
C1545 C285 1.529 . S
C1555 C260 1.815 . S
C1560 C569 1.866 . S
C1570 C610 1.473 . S
C1565 C345 1.520 . S
C1575 C186 1.868 . S
C1580 C650 1.914 . S
C1590 C692 1.422 . S
C1585 C296 1.495 . S
C1595 C318 1.798 . S
C1600 C579 1.782 . S
C1605 C294 1.475 . S
C1610 C631 1.532 . S
C1615 C279 1.506 . S
C1620 C557 1.597 . S
C1630 C455 1.756 . S
C1625 C252 1.770 . S
C1635 C213 1.553 . S
C1640 C486 1.508 . S
C1645 C76 1.785 . S
C1650 C672 1.762 . S
C1655 C139 1.558 . S
C1660 C568 1.507 . S
C1670 C445 1.867 . S
C1665 C162 1.818 . S
C1675 C118 1.842 . S
C1680 C526 1.888 . S
