# Generated by pormake.
# Topology eea, (3,6)-cn, num edge types: 1
# Building blocks:
#     Node 0, Type 0, BuildingBlock: OLANEW_clean_sbu_2, # of connection points: 3
#     Node 1, Type 0, BuildingBlock: OLANEW_clean_sbu_2, # of connection points: 3
#     Node 2, Type 0, BuildingBlock: OLANEW_clean_sbu_2, # of connection points: 3
#     Node 3, Type 0, BuildingBlock: OLANEW_clean_sbu_2, # of connection points: 3
#     Node 4, Type 0, BuildingBlock: OLANEW_clean_sbu_2, # of connection points: 3
#     Node 5, Type 0, BuildingBlock: OLANEW_clean_sbu_2, # of connection points: 3
#     Node 6, Type 0, BuildingBlock: OLANEW_clean_sbu_2, # of connection points: 3
#     Node 7, Type 0, BuildingBlock: OLANEW_clean_sbu_2, # of connection points: 3
#     Node 8, Type 0, BuildingBlock: OLANEW_clean_sbu_2, # of connection points: 3
#     Node 9, Type 0, BuildingBlock: OLANEW_clean_sbu_2, # of connection points: 3
#     Node 10, Type 0, BuildingBlock: OLANEW_clean_sbu_2, # of connection points: 3
#     Node 11, Type 0, BuildingBlock: OLANEW_clean_sbu_2, # of connection points: 3
#     Node 12, Type 0, BuildingBlock: OLANEW_clean_sbu_2, # of connection points: 3
#     Node 13, Type 0, BuildingBlock: OLANEW_clean_sbu_2, # of connection points: 3
#     Node 14, Type 0, BuildingBlock: OLANEW_clean_sbu_2, # of connection points: 3
#     Node 15, Type 0, BuildingBlock: OLANEW_clean_sbu_2, # of connection points: 3
#     Node 16, Type 0, BuildingBlock: OLANEW_clean_sbu_2, # of connection points: 3
#     Node 17, Type 0, BuildingBlock: OLANEW_clean_sbu_2, # of connection points: 3
#     Node 18, Type 1, BuildingBlock: HISSIN_clean_sbu_0, # of connection points: 6
#     Node 19, Type 1, BuildingBlock: HISSIN_clean_sbu_0, # of connection points: 6
#     Node 20, Type 1, BuildingBlock: HISSIN_clean_sbu_0, # of connection points: 6
#     Node 21, Type 1, BuildingBlock: HISSIN_clean_sbu_0, # of connection points: 6
#     Node 22, Type 1, BuildingBlock: HISSIN_clean_sbu_0, # of connection points: 6
#     Node 23, Type 1, BuildingBlock: HISSIN_clean_sbu_0, # of connection points: 6
#     Node 24, Type 1, BuildingBlock: HISSIN_clean_sbu_0, # of connection points: 6
#     Node 25, Type 1, BuildingBlock: HISSIN_clean_sbu_0, # of connection points: 6
#     Node 26, Type 1, BuildingBlock: HISSIN_clean_sbu_0, # of connection points: 6
#     Edge 27, Type (0, 1), BuildingBlock: TEMPAE_clean_linker_10, # of connection points: 2
#     Edge 28, Type (0, 1), BuildingBlock: TEMPAE_clean_linker_10, # of connection points: 2
#     Edge 29, Type (0, 1), BuildingBlock: TEMPAE_clean_linker_10, # of connection points: 2
#     Edge 30, Type (0, 1), BuildingBlock: TEMPAE_clean_linker_10, # of connection points: 2
#     Edge 31, Type (0, 1), BuildingBlock: TEMPAE_clean_linker_10, # of connection points: 2
#     Edge 32, Type (0, 1), BuildingBlock: TEMPAE_clean_linker_10, # of connection points: 2
#     Edge 33, Type (0, 1), BuildingBlock: TEMPAE_clean_linker_10, # of connection points: 2
#     Edge 34, Type (0, 1), BuildingBlock: TEMPAE_clean_linker_10, # of connection points: 2
#     Edge 35, Type (0, 1), BuildingBlock: TEMPAE_clean_linker_10, # of connection points: 2
#     Edge 36, Type (0, 1), BuildingBlock: TEMPAE_clean_linker_10, # of connection points: 2
#     Edge 37, Type (0, 1), BuildingBlock: TEMPAE_clean_linker_10, # of connection points: 2
#     Edge 38, Type (0, 1), BuildingBlock: TEMPAE_clean_linker_10, # of connection points: 2
#     Edge 39, Type (0, 1), BuildingBlock: TEMPAE_clean_linker_10, # of connection points: 2
#     Edge 40, Type (0, 1), BuildingBlock: TEMPAE_clean_linker_10, # of connection points: 2
#     Edge 41, Type (0, 1), BuildingBlock: TEMPAE_clean_linker_10, # of connection points: 2
#     Edge 42, Type (0, 1), BuildingBlock: TEMPAE_clean_linker_10, # of connection points: 2
#     Edge 43, Type (0, 1), BuildingBlock: TEMPAE_clean_linker_10, # of connection points: 2
#     Edge 44, Type (0, 1), BuildingBlock: TEMPAE_clean_linker_10, # of connection points: 2
#     Edge 45, Type (0, 1), BuildingBlock: TEMPAE_clean_linker_10, # of connection points: 2
#     Edge 46, Type (0, 1), BuildingBlock: TEMPAE_clean_linker_10, # of connection points: 2
#     Edge 47, Type (0, 1), BuildingBlock: TEMPAE_clean_linker_10, # of connection points: 2
#     Edge 48, Type (0, 1), BuildingBlock: TEMPAE_clean_linker_10, # of connection points: 2
#     Edge 49, Type (0, 1), BuildingBlock: TEMPAE_clean_linker_10, # of connection points: 2
#     Edge 50, Type (0, 1), BuildingBlock: TEMPAE_clean_linker_10, # of connection points: 2
#     Edge 51, Type (0, 1), BuildingBlock: TEMPAE_clean_linker_10, # of connection points: 2
#     Edge 52, Type (0, 1), BuildingBlock: TEMPAE_clean_linker_10, # of connection points: 2
#     Edge 53, Type (0, 1), BuildingBlock: TEMPAE_clean_linker_10, # of connection points: 2
#     Edge 54, Type (0, 1), BuildingBlock: TEMPAE_clean_linker_10, # of connection points: 2
#     Edge 55, Type (0, 1), BuildingBlock: TEMPAE_clean_linker_10, # of connection points: 2
#     Edge 56, Type (0, 1), BuildingBlock: TEMPAE_clean_linker_10, # of connection points: 2
#     Edge 57, Type (0, 1), BuildingBlock: TEMPAE_clean_linker_10, # of connection points: 2
#     Edge 58, Type (0, 1), BuildingBlock: TEMPAE_clean_linker_10, # of connection points: 2
#     Edge 59, Type (0, 1), BuildingBlock: TEMPAE_clean_linker_10, # of connection points: 2
#     Edge 60, Type (0, 1), BuildingBlock: TEMPAE_clean_linker_10, # of connection points: 2
#     Edge 61, Type (0, 1), BuildingBlock: TEMPAE_clean_linker_10, # of connection points: 2
#     Edge 62, Type (0, 1), BuildingBlock: TEMPAE_clean_linker_10, # of connection points: 2
#     Edge 63, Type (0, 1), BuildingBlock: TEMPAE_clean_linker_10, # of connection points: 2
#     Edge 64, Type (0, 1), BuildingBlock: TEMPAE_clean_linker_10, # of connection points: 2
#     Edge 65, Type (0, 1), BuildingBlock: TEMPAE_clean_linker_10, # of connection points: 2
#     Edge 66, Type (0, 1), BuildingBlock: TEMPAE_clean_linker_10, # of connection points: 2
#     Edge 67, Type (0, 1), BuildingBlock: TEMPAE_clean_linker_10, # of connection points: 2
#     Edge 68, Type (0, 1), BuildingBlock: TEMPAE_clean_linker_10, # of connection points: 2
#     Edge 69, Type (0, 1), BuildingBlock: TEMPAE_clean_linker_10, # of connection points: 2
#     Edge 70, Type (0, 1), BuildingBlock: TEMPAE_clean_linker_10, # of connection points: 2
#     Edge 71, Type (0, 1), BuildingBlock: TEMPAE_clean_linker_10, # of connection points: 2
#     Edge 72, Type (0, 1), BuildingBlock: TEMPAE_clean_linker_10, # of connection points: 2
#     Edge 73, Type (0, 1), BuildingBlock: TEMPAE_clean_linker_10, # of connection points: 2
#     Edge 74, Type (0, 1), BuildingBlock: TEMPAE_clean_linker_10, # of connection points: 2
#     Edge 75, Type (0, 1), BuildingBlock: TEMPAE_clean_linker_10, # of connection points: 2
#     Edge 76, Type (0, 1), BuildingBlock: TEMPAE_clean_linker_10, # of connection points: 2
#     Edge 77, Type (0, 1), BuildingBlock: TEMPAE_clean_linker_10, # of connection points: 2
#     Edge 78, Type (0, 1), BuildingBlock: TEMPAE_clean_linker_10, # of connection points: 2
#     Edge 79, Type (0, 1), BuildingBlock: TEMPAE_clean_linker_10, # of connection points: 2
#     Edge 80, Type (0, 1), BuildingBlock: TEMPAE_clean_linker_10, # of connection points: 2
# Relax obj value: 0.028
# Max RMSD: 0.191
# Mean RMSD: 0.126
data_MOF--net-eea--node1-OLANEW_clean_sbu_2--node2-HISSIN_clean_sbu_0--edge1-TEMPAE_clean_linker_10
_symmetry_space_group_name_H-M    P1
_symmetry_Int_Tables_number       1
_symmetry_cell_setting            triclinic
loop_
_symmetry_equiv_pos_as_xyz
'x, y, z'
_cell_length_a     61.091142
_cell_length_b     60.341746
_cell_length_c     71.789522
_cell_angle_alpha  96.729793
_cell_angle_beta   93.674202
_cell_angle_gamma 120.11508
loop_
_atom_site_label
_atom_site_type_symbol
_atom_site_fract_x
_atom_site_fract_y
_atom_site_fract_z
_atom_type_partial_charge
O0 O 0.24361 0.12302 0.43087 0.0
Cd1 Cd 0.22757 0.10971 0.39701 0.0
O2 O 0.28384 0.14125 0.42628 0.0
Cd3 Cd 0.27241 0.12013 0.39731 0.0
O4 O 0.25552 0.08016 0.38267 0.0
C5 C 0.24206 0.06318 0.39245 0.0
O6 O 0.23902 0.07108 0.40942 0.0
C7 C 0.26728 0.13667 0.43745 0.0
C8 C 0.22127 0.14836 0.38442 0.0
O9 O 0.20259 0.1287 0.38955 0.0
O10 O 0.24279 0.14943 0.38487 0.0
O11 O 0.90766 0.19994 0.43264 0.0
Cd12 Cd 0.91209 0.20002 0.39899 0.0
O13 O 0.88084 0.15848 0.42282 0.0
Cd14 Cd 0.85033 0.11944 0.42495 0.0
O15 O 0.81915 0.07911 0.42008 0.0
C16 C 0.82027 0.06217 0.42838 0.0
O17 O 0.84047 0.06933 0.44071 0.0
C18 C 0.89184 0.17777 0.43634 0.0
C19 C 0.96147 0.2176 0.39053 0.0
O20 O 0.95301 0.23316 0.39336 0.0
O21 O 0.94669 0.19376 0.39206 0.0
O22 O 0.90202 0.74599 0.44801 0.0
Cd23 Cd 0.90497 0.76355 0.41858 0.0
O24 O 0.86229 0.73672 0.44804 0.0
Cd25 Cd 0.85917 0.7548 0.42425 0.0
O26 O 0.83726 0.76938 0.41046 0.0
C27 C 0.81315 0.75545 0.40973 0.0
O28 O 0.80365 0.73342 0.41622 0.0
C29 C 0.88149 0.73621 0.45538 0.0
C30 C 0.94917 0.77323 0.40318 0.0
O31 O 0.94852 0.79129 0.41402 0.0
O32 O 0.92894 0.75058 0.39966 0.0
O33 O 0.14528 0.25405 0.58054 0.0
Cd34 Cd 0.13378 0.23561 0.6094 0.0
O35 O 0.11956 0.26971 0.58017 0.0
Cd36 Cd 0.09987 0.25291 0.60373 0.0
O37 O 0.06742 0.23975 0.61963 0.0
C38 C 0.04715 0.21797 0.61346 0.0
O39 O 0.04687 0.20326 0.59832 0.0
C40 C 0.13671 0.26681 0.5731 0.0
C41 C 0.17216 0.22781 0.62473 0.0
O42 O 0.1529 0.20971 0.61312 0.0
O43 O 0.17308 0.24948 0.62928 0.0
O44 O 0.74252 0.8502 0.61057 0.0
Cd45 Cd 0.76405 0.86328 0.64322 0.0
O46 O 0.77796 0.86314 0.59798 0.0
Cd47 Cd 0.80037 0.88793 0.62469 0.0
O48 O 0.80875 0.92536 0.63985 0.0
C49 C 0.79029 0.92943 0.638 0.0
O50 O 0.76825 0.91071 0.62853 0.0
C51 C 0.75369 0.85148 0.59603 0.0
C52 C 0.78057 0.82937 0.65104 0.0
O53 O 0.75787 0.82418 0.65306 0.0
O54 O 0.7956 0.85081 0.6456 0.0
O55 O 0.10136 0.85023 0.586 0.0
Cd56 Cd 0.09582 0.86746 0.61679 0.0
O57 O 0.1431 0.87035 0.59375 0.0
Cd58 Cd 0.14524 0.89254 0.62082 0.0
O59 O 0.16491 0.93013 0.63976 0.0
C60 C 0.18906 0.94086 0.6434 0.0
O61 O 0.19984 0.92802 0.63675 0.0
C62 C 0.12312 0.85517 0.58187 0.0
C63 C 0.05247 0.83091 0.63035 0.0
O64 O 0.05126 0.84619 0.61988 0.0
O65 O 0.07419 0.83289 0.63437 0.0
O66 O 0.90168 0.45847 0.77653 0.0
Cd67 Cd 0.8811 0.44261 0.74359 0.0
O68 O 0.94068 0.47349 0.76957 0.0
Cd69 Cd 0.92625 0.45363 0.74031 0.0
O70 O 0.91075 0.41581 0.72243 0.0
C71 C 0.89665 0.39662 0.73029 0.0
O72 O 0.89182 0.40127 0.74742 0.0
C73 C 0.92571 0.47061 0.7818 0.0
C74 C 0.87374 0.48007 0.72991 0.0
O75 O 0.85681 0.46291 0.73819 0.0
O76 O 0.89403 0.47925 0.72787 0.0
O77 O 0.56072 0.50628 0.75959 0.0
Cd78 Cd 0.56567 0.49415 0.72701 0.0
O79 O 0.58266 0.49083 0.7726 0.0
Cd80 Cd 0.57749 0.4669 0.74567 0.0
O81 O 0.54994 0.42862 0.72935 0.0
C82 C 0.54315 0.40989 0.73846 0.0
O83 O 0.55431 0.41479 0.75594 0.0
C84 C 0.57112 0.50341 0.77432 0.0
C85 C 0.61593 0.52385 0.71971 0.0
O86 O 0.60028 0.53202 0.71811 0.0
O87 O 0.60782 0.50165 0.72475 0.0
O88 O 0.57564 0.08327 0.78096 0.0
Cd89 Cd 0.57977 0.10099 0.75153 0.0
O90 O 0.53581 0.07394 0.7804 0.0
Cd91 Cd 0.5333 0.09238 0.75663 0.0
O92 O 0.51244 0.10806 0.74282 0.0
C93 C 0.48879 0.09693 0.74441 0.0
O94 O 0.479 0.07689 0.75327 0.0
C95 C 0.55486 0.07339 0.78802 0.0
C96 C 0.62488 0.11118 0.73734 0.0
O97 O 0.62362 0.12916 0.74775 0.0
O98 O 0.60485 0.08839 0.73368 0.0
O99 O 0.78924 0.54855 0.90551 0.0
Cd100 Cd 0.77267 0.52527 0.93175 0.0
O101 O 0.78026 0.57868 0.91518 0.0
Cd102 Cd 0.75583 0.55738 0.93538 0.0
O103 O 0.72 0.53966 0.94738 0.0
C104 C 0.7085 0.55233 0.94848 0.0
O105 O 0.71916 0.57515 0.94308 0.0
C106 C 0.79041 0.56987 0.9039 0.0
C107 C 0.81129 0.52253 0.95251 0.0
O108 O 0.79615 0.50443 0.93873 0.0
O109 O 0.80795 0.54178 0.95663 0.0
O110 O 0.3304 0.09206 0.92788 0.0
Cd111 Cd 0.33109 0.08197 0.95979 0.0
O112 O 0.3487 0.13276 0.94157 0.0
Cd113 Cd 0.36739 0.17477 0.94241 0.0
O114 O 0.38603 0.21707 0.94659 0.0
C115 C 0.38181 0.22855 0.96066 0.0
O116 O 0.36629 0.21452 0.97195 0.0
C117 C 0.33949 0.1158 0.92651 0.0
C118 C 0.37173 0.07489 0.96977 0.0
O119 O 0.34977 0.05563 0.96211 0.0
O120 O 0.3745 0.09758 0.97266 0.0
O121 O 0.77279 0.18615 0.91744 0.0
Cd122 Cd 0.76699 0.20398 0.94784 0.0
O123 O 0.81131 0.195 0.92828 0.0
Cd124 Cd 0.8136 0.21694 0.95546 0.0
O125 O 0.83276 0.2545 0.97433 0.0
C126 C 0.85701 0.26608 0.97737 0.0
O127 O 0.8683 0.25408 0.97014 0.0
C128 C 0.79279 0.18532 0.91485 0.0
C129 C 0.72402 0.16708 0.96142 0.0
O130 O 0.72242 0.18196 0.95074 0.0
O131 O 0.746 0.16972 0.9657 0.0
O132 O 0.56587 0.78452 0.10484 0.0
Cd133 Cd 0.54489 0.76811 0.07208 0.0
O134 O 0.60345 0.79282 0.09779 0.0
Cd135 Cd 0.58681 0.76956 0.0696 0.0
O136 O 0.57096 0.73059 0.05342 0.0
C137 C 0.58388 0.71978 0.05622 0.0
O138 O 0.60591 0.73318 0.06741 0.0
C139 C 0.58963 0.79403 0.10991 0.0
C140 C 0.53999 0.80708 0.05862 0.0
O141 O 0.52249 0.79034 0.06678 0.0
O142 O 0.55957 0.80499 0.05641 0.0
O143 O 0.24357 0.89273 0.10475 0.0
Cd144 Cd 0.25126 0.90053 0.0725 0.0
O145 O 0.22087 0.85147 0.09235 0.0
Cd146 Cd 0.19364 0.81005 0.09111 0.0
O147 O 0.16735 0.76813 0.08666 0.0
C148 C 0.15112 0.75739 0.07169 0.0
O149 O 0.15061 0.77198 0.05964 0.0
C150 C 0.22936 0.86928 0.10687 0.0
C151 C 0.29932 0.9112 0.06451 0.0
O152 O 0.29552 0.92951 0.07103 0.0
O153 O 0.28043 0.88774 0.06206 0.0
O154 O 0.24084 0.42308 0.11445 0.0
Cd155 Cd 0.24668 0.44458 0.08669 0.0
O156 O 0.21871 0.43955 0.12644 0.0
Cd157 Cd 0.21588 0.45896 0.10342 0.0
O158 O 0.19143 0.47125 0.09021 0.0
C159 C 0.16782 0.45725 0.09153 0.0
O160 O 0.16036 0.43676 0.09979 0.0
C161 C 0.22893 0.42579 0.12761 0.0
C162 C 0.28906 0.45046 0.06998 0.0
O163 O 0.29114 0.46819 0.08296 0.0
O164 O 0.26695 0.42992 0.06494 0.0
O165 O 0.46399 0.89641 0.2437 0.0
Cd166 Cd 0.44555 0.87312 0.26957 0.0
O167 O 0.44013 0.91416 0.24306 0.0
Cd168 Cd 0.41662 0.8939 0.26402 0.0
O169 O 0.38229 0.87686 0.2778 0.0
C170 C 0.37803 0.89179 0.28896 0.0
O171 O 0.39514 0.91679 0.29266 0.0
C172 C 0.45777 0.91133 0.23687 0.0
C173 C 0.48017 0.86313 0.28862 0.0
O174 O 0.46403 0.84695 0.27436 0.0
O175 O 0.47973 0.8839 0.29401 0.0
O176 O -0.00119 0.43855 0.2785 0.0
Cd177 Cd 0.00564 0.43659 0.31202 0.0
O178 O 0.02588 0.48014 0.28736 0.0
Cd179 Cd 0.04723 0.52144 0.28527 0.0
O180 O 0.06808 0.56382 0.28919 0.0
C181 C 0.05577 0.5755 0.28763 0.0
O182 O 0.03079 0.56162 0.28306 0.0
C183 C 0.01133 0.46106 0.27419 0.0
C184 C 0.04329 0.42439 0.31949 0.0
O185 O 0.01954 0.4067 0.31646 0.0
O186 O 0.04926 0.44793 0.31907 0.0
O187 O 0.42086 0.52262 0.23537 0.0
Cd188 Cd 0.41641 0.54294 0.26529 0.0
O189 O 0.44495 0.51034 0.24959 0.0
Cd190 Cd 0.45073 0.5352 0.27612 0.0
O191 O 0.47416 0.57556 0.29004 0.0
C192 C 0.49547 0.58794 0.28397 0.0
O193 O 0.50129 0.57546 0.27085 0.0
C194 C 0.43293 0.5105 0.23452 0.0
C195 C 0.37685 0.50611 0.28172 0.0
O196 O 0.37313 0.52043 0.27164 0.0
O197 O 0.3993 0.50938 0.28416 0.0
Eu198 Eu 0.50992 0.98288 0.99308 0.0
Eu199 Eu 0.52887 0.0104 0.03815 0.0
C200 C 0.50371 0.03039 0.00861 0.0
C201 C 0.50767 0.97453 0.93995 0.0
C202 C 0.52996 -0.00098 0.94166 0.0
C203 C 0.50295 0.97146 0.90579 0.0
C204 C 0.53867 0.00971 0.92551 0.0
C205 C 0.4943 0.96076 0.92196 0.0
C206 C 0.52515 -0.00387 0.90738 0.0
C207 C 0.49805 0.96365 0.95691 0.0
O208 O 0.49087 0.97398 0.03737 0.0
O209 O 0.47404 0.96933 1.00666 0.0
C210 C 0.47114 0.96502 0.02414 0.0
O211 O 0.50961 0.95247 0.00846 0.0
O212 O 0.52268 0.02663 0.06466 0.0
O213 O 0.55773 0.02619 0.06323 0.0
O214 O 0.54026 0.98015 0.0334 0.0
C215 C 0.52658 0.95703 0.02278 0.0
O216 O 0.55278 0.00854 0.9972 0.0
O217 O 0.55748 0.03873 0.02195 0.0
O218 O 0.50481 0.02516 0.02578 0.0
O219 O 0.51406 0.96141 0.96832 0.0
O220 O 0.48602 0.97323 0.96602 0.0
O221 O 0.5121 0.02142 0.99506 0.0
C222 C 0.53952 0.01855 0.09148 0.0
C223 C 0.53119 0.99207 0.09044 0.0
C224 C 0.53655 0.02203 0.12512 0.0
C225 C 0.52541 0.98059 0.10663 0.0
C226 C 0.5424 0.03351 0.10891 0.0
C227 C 0.52766 -0.00465 0.12412 0.0
C228 C 0.54334 0.0301 0.07421 0.0
C229 C 0.56589 0.03205 0.00724 0.0
H230 H 0.54049 0.00994 0.9555 0.0
H231 H 0.49186 0.96068 0.89208 0.0
H232 H 0.55596 0.02861 0.92723 0.0
H233 H 0.47699 0.94189 0.92043 0.0
H234 H 0.5287 0.98018 0.07703 0.0
H235 H 0.53816 0.03386 0.13829 0.0
H236 H 0.51893 0.9601 0.10541 0.0
H237 H 0.54857 0.05392 0.1099 0.0
Eu238 Eu 0.00906 0.51197 0.01109 0.0
Eu239 Eu 0.99024 0.51108 0.05314 0.0
C240 C 0.96708 0.45918 0.02278 0.0
C241 C 0.01261 0.51074 0.95801 0.0
C242 C 0.98718 0.49123 0.95116 0.0
C243 C 0.01723 0.52443 0.92731 0.0
C244 C 0.97696 0.48815 0.93241 0.0
C245 C 0.0275 0.52735 0.94599 0.0
C246 C 0.99191 0.50473 0.92031 0.0
C247 C 0.02383 0.51451 0.97768 0.0
O248 O 0.02712 0.51092 0.05785 0.0
O249 O 0.02932 0.49635 0.02735 0.0
C250 C 0.03669 0.50124 0.04569 0.0
O251 O 0.03835 0.54847 0.03081 0.0
O252 O 0.96318 0.4939 0.07299 0.0
O253 O 0.9977 0.53161 0.08203 0.0
O254 O 0.00933 0.55192 0.04703 0.0
C255 C 0.03173 0.56281 0.04123 0.0
O256 O 0.97978 0.52407 0.00857 0.0
O257 O 0.95818 0.50784 0.03337 0.0
O258 O 0.97697 0.46962 0.04059 0.0
O259 O 0.02656 0.53451 0.98905 0.0
O260 O 0.01554 0.49387 0.98563 0.0
O261 O 0.97256 0.47362 0.00948 0.0
C262 C 0.98118 0.5058 0.10563 0.0
C263 C 0.99022 0.52495 0.12189 0.0
C264 C 0.97872 0.47469 0.12535 0.0
C265 C 0.99348 0.5191 0.13973 0.0
C266 C 0.97558 0.48061 0.10745 0.0
C267 C 0.98757 0.49385 0.14172 0.0
C268 C 0.9775 0.51273 0.08714 0.0
C269 C 0.95975 0.517 0.01745 0.0
H270 H 0.97524 0.4784 0.96028 0.0
H271 H 0.02923 0.53731 0.91824 0.0
H272 H 0.95731 0.47297 0.9274 0.0
H273 H 0.04712 0.54258 0.95108 0.0
H274 H 0.99474 0.54452 0.12081 0.0
H275 H 0.97378 0.45499 0.1264 0.0
H276 H 0.0008 0.53446 0.15196 0.0
H277 H 0.96862 0.46547 0.0951 0.0
Eu278 Eu 0.49882 0.47323 0.02335 0.0
Eu279 Eu 0.47936 0.47806 0.98118 0.0
C280 C 0.50988 0.52741 0.01373 0.0
C281 C 0.50317 0.47172 0.07566 0.0
C282 C 0.49597 0.49029 0.07983 0.0
C283 C 0.49126 0.45719 0.10551 0.0
C284 C 0.48672 0.49246 0.09681 0.0
C285 C 0.50076 0.45519 0.08858 0.0
C286 C 0.48419 0.47586 0.10977 0.0
C287 C 0.51138 0.46821 0.05732 0.0
O288 O 0.51481 0.47594 0.97802 0.0
O289 O 0.53402 0.48965 0.00901 0.0
C290 C 0.5351 0.48537 0.99082 0.0
O291 O 0.48953 0.43732 1.0031 0.0
O292 O 0.47498 0.50091 0.96128 0.0
O293 O 0.46177 0.4602 0.95197 0.0
O294 O 0.45724 0.43601 0.98455 0.0
C295 C 0.46823 0.42412 0.9912 0.0
O296 O 0.45746 0.46105 0.02333 0.0
O297 O 0.45124 0.48005 0.99919 0.0
O298 O 0.50932 0.51817 0.99614 0.0
O299 O 0.4938 0.44887 0.04476 0.0
O300 O 0.52462 0.48919 0.05009 0.0
O301 O 0.50079 0.51178 0.0261 0.0
C302 C 0.48094 0.48875 0.93042 0.0
C303 C 0.49656 0.47859 0.92579 0.0
C304 C 0.49182 0.51147 0.90356 0.0
C305 C 0.50915 0.48429 0.90992 0.0
C306 C 0.47891 0.50548 0.91934 0.0
C307 C 0.5067 0.50057 0.89858 0.0
C308 C 0.46699 0.48217 0.94682 0.0
C309 C 0.44422 0.46922 0.0143 0.0
H310 H 0.49719 0.5029 0.06986 0.0
H311 H 0.48962 0.44428 0.11534 0.0
H312 H 0.48112 0.50681 0.09967 0.0
H313 H 0.50596 0.44056 0.08547 0.0
H314 H 0.49885 0.46601 0.9343 0.0
H315 H 0.4896 0.524 0.89495 0.0
H316 H 0.52074 0.47589 0.90645 0.0
H317 H 0.46715 0.51369 0.92278 0.0
Eu318 Eu 0.17379 0.31308 0.32153 0.0
Eu319 Eu 0.1955 0.34518 0.36597 0.0
C320 C 0.16477 0.36016 0.33697 0.0
C321 C 0.16853 0.30393 0.26871 0.0
C322 C 0.18032 0.33102 0.27032 0.0
C323 C 0.17298 0.30076 0.23529 0.0
C324 C 0.18859 0.34294 0.25459 0.0
C325 C 0.16482 0.28883 0.25112 0.0
C326 C 0.18519 0.32798 0.23692 0.0
C327 C 0.16211 0.29194 0.28573 0.0
O328 O 0.15352 0.31713 0.36521 0.0
O329 O 0.1433 0.28735 0.33794 0.0
C330 C 0.13776 0.29481 0.35405 0.0
O331 O 0.19729 0.29868 0.33531 0.0
O332 O 0.19309 0.36686 0.39153 0.0
O333 O 0.22425 0.35942 0.39091 0.0
O334 O 0.19178 0.30625 0.36605 0.0
C335 C 0.19719 0.29388 0.35265 0.0
O336 O 0.20649 0.35273 0.32016 0.0
O337 O 0.22892 0.3624 0.34963 0.0
O338 O 0.18334 0.36898 0.35117 0.0
O339 O 0.18165 0.29517 0.29673 0.0
O340 O 0.14672 0.29617 0.2953 0.0
O341 O 0.15608 0.3378 0.3257 0.0
C342 C 0.20674 0.35766 0.41935 0.0
C343 C 0.19632 0.33106 0.4197 0.0
C344 C 0.20461 0.36501 0.45297 0.0
C345 C 0.19014 0.32149 0.43658 0.0
C346 C 0.21092 0.37459 0.43606 0.0
C347 C 0.19401 0.33831 0.45341 0.0
C348 C 0.21214 0.36753 0.40142 0.0
C349 C 0.22776 0.36612 0.33204 0.0
H350 H 0.18341 0.343 0.28382 0.0
H351 H 0.17024 0.28875 0.22189 0.0
H352 H 0.19755 0.36389 0.25625 0.0
H353 H 0.156 0.26792 0.2497 0.0
H354 H 0.19279 0.31764 0.40687 0.0
H355 H 0.2075 0.37843 0.4656 0.0
H356 H 0.18235 0.30091 0.43645 0.0
H357 H 0.21872 0.39514 0.43598 0.0
Eu358 Eu 0.66723 0.8321 0.33793 0.0
Eu359 Eu 0.64322 0.8182 0.37762 0.0
C360 C 0.62131 0.77572 0.33961 0.0
C361 C 0.67524 0.84087 0.28669 0.0
C362 C 0.64924 0.82343 0.27998 0.0
C363 C 0.68177 0.85341 0.25572 0.0
C364 C 0.63965 0.82069 0.26114 0.0
C365 C 0.69139 0.85601 0.27454 0.0
C366 C 0.65587 0.83551 0.24879 0.0
C367 C 0.6857 0.84332 0.30627 0.0
O368 O 0.68179 0.82186 0.3822 0.0
O369 O 0.68427 0.81106 0.35109 0.0
C370 C 0.69146 0.81358 0.36922 0.0
O371 O 0.69604 0.8641 0.36109 0.0
O372 O 0.62927 0.79111 0.39752 0.0
O373 O 0.62825 0.82664 0.40256 0.0
O374 O 0.66879 0.86177 0.38223 0.0
C375 C 0.69069 0.87458 0.37583 0.0
O376 O 0.63964 0.8464 0.33971 0.0
O377 O 0.61318 0.81932 0.3585 0.0
O378 O 0.62923 0.78054 0.35783 0.0
O379 O 0.6844 0.85995 0.31881 0.0
O380 O 0.67941 0.82155 0.31224 0.0
O381 O 0.62959 0.79446 0.32955 0.0
C382 C 0.63707 0.81116 0.42904 0.0
C383 C 0.66233 0.83148 0.43526 0.0
C384 C 0.63527 0.7972 0.45953 0.0
C385 C 0.67397 0.83468 0.45355 0.0
C386 C 0.62358 0.79412 0.44127 0.0
C387 C 0.66062 0.81744 0.46581 0.0
C388 C 0.62539 0.80639 0.40941 0.0
C389 C 0.61765 0.83509 0.34621 0.0
H390 H 0.63645 0.81179 0.28927 0.0
H391 H 0.69472 0.8649 0.24646 0.0
H392 H 0.61955 0.80697 0.25621 0.0
H393 H 0.71149 0.86962 0.27956 0.0
H394 H 0.67317 0.84457 0.42586 0.0
H395 H 0.6245 0.78378 0.46875 0.0
H396 H 0.69362 0.85025 0.45794 0.0
H397 H 0.60414 0.7782 0.4366 0.0
Eu398 Eu 0.16879 0.81895 0.36209 0.0
Eu399 Eu 0.14814 0.82252 0.31954 0.0
C400 C 0.17474 0.87166 0.35211 0.0
C401 C 0.17314 0.81567 0.41455 0.0
C402 C 0.15411 0.82195 0.41665 0.0
C403 C 0.1739 0.80965 0.44737 0.0
C404 C 0.14523 0.82237 0.43406 0.0
C405 C 0.18279 0.80926 0.42993 0.0
C406 C 0.15523 0.81651 0.44969 0.0
C407 C 0.18322 0.8162 0.39648 0.0
O408 O 0.19072 0.83965 0.32108 0.0
O409 O 0.19745 0.81915 0.34387 0.0
C410 C 0.20485 0.83217 0.32982 0.0
O411 O 0.14141 0.77811 0.34674 0.0
O412 O 0.14785 0.84623 0.29906 0.0
O413 O 0.12599 0.80424 0.29123 0.0
O414 O 0.14911 0.78556 0.31681 0.0
C415 C 0.14085 0.76955 0.32896 0.0
O416 O 0.13293 0.8199 0.36523 0.0
O417 O 0.11309 0.80508 0.3343 0.0
O418 O 0.15442 0.85744 0.33939 0.0
O419 O 0.16932 0.79594 0.38331 0.0
O420 O 0.19181 0.83785 0.38987 0.0
O421 O 0.18691 0.86135 0.35961 0.0
C422 C 0.14568 0.8285 0.26725 0.0
C423 C 0.13126 0.8097 0.25108 0.0
C424 C 0.17963 0.8515 0.2486 0.0
C425 C 0.14092 0.81176 0.2338 0.0
C426 C 0.17008 0.84931 0.26587 0.0
C427 C 0.16514 0.83284 0.2323 0.0
C428 C 0.13497 0.82645 0.2853 0.0
C429 C 0.11239 0.80976 0.35258 0.0
H430 H 0.14639 0.82687 0.40488 0.0
H431 H 0.18217 0.80532 0.45919 0.0
H432 H 0.13063 0.82743 0.43534 0.0
H433 H 0.19747 0.80435 0.42853 0.0
H434 H 0.11245 0.79343 0.25179 0.0
H435 H 0.19816 0.86821 0.24796 0.0
H436 H 0.12939 0.7968 0.22163 0.0
H437 H 0.18176 0.86414 0.27808 0.0
Eu438 Eu 0.83629 0.65019 0.66144 0.0
Eu439 Eu 0.85428 0.67775 0.70666 0.0
C440 C 0.83452 0.70143 0.67629 0.0
C441 C 0.8353 0.64085 0.60837 0.0
C442 C 0.85782 0.66512 0.61 0.0
C443 C 0.83106 0.63709 0.57416 0.0
C444 C 0.86689 0.67538 0.59378 0.0
C445 C 0.82207 0.62683 0.5904 0.0
C446 C 0.85349 0.66157 0.57567 0.0
C447 C 0.82524 0.63045 0.62538 0.0
O448 O 0.81571 0.64172 0.70531 0.0
O449 O 0.79978 0.63609 0.67414 0.0
C450 C 0.79642 0.63173 0.69154 0.0
O451 O 0.83584 0.61998 0.67726 0.0
O452 O 0.847 0.69347 0.73287 0.0
O453 O 0.88232 0.69329 0.73226 0.0
O454 O 0.86617 0.64795 0.70224 0.0
C455 C 0.8527 0.62476 0.69174 0.0
O456 O 0.87921 0.67522 0.66607 0.0
O457 O 0.88459 0.70549 0.69111 0.0
O458 O 0.83464 0.69645 0.69361 0.0
O459 O 0.84093 0.62832 0.63721 0.0
O460 O 0.81312 0.64033 0.63399 0.0
O461 O 0.8398 0.68931 0.66252 0.0
C462 C 0.86294 0.68534 0.76044 0.0
C463 C 0.87395 0.67081 0.7654 0.0
C464 C 0.84069 0.67617 0.78799 0.0
C465 C 0.86824 0.65897 0.78147 0.0
C466 C 0.84661 0.68823 0.77208 0.0
C467 C 0.85124 0.66123 0.79274 0.0
C468 C 0.86726 0.69663 0.74287 0.0
C469 C 0.89281 0.69854 0.67637 0.0
H470 H 0.86825 0.67623 0.62382 0.0
H471 H 0.82006 0.62616 0.56046 0.0
H472 H 0.88434 0.69414 0.59542 0.0
H473 H 0.80459 0.60812 0.58893 0.0
H474 H 0.8866 0.66817 0.75672 0.0
H475 H 0.82779 0.67848 0.79659 0.0
H476 H 0.87653 0.64745 0.78479 0.0
H477 H 0.83801 0.69946 0.76867 0.0
Eu478 Eu 0.35161 0.17998 0.66749 0.0
Eu479 Eu 0.33988 0.18782 0.71117 0.0
C480 C 0.30685 0.13351 0.68328 0.0
C481 C 0.34946 0.17171 0.61353 0.0
C482 C 0.35762 0.16248 0.59832 0.0
C483 C 0.31965 0.17475 0.59144 0.0
C484 C 0.34692 0.1594 0.57976 0.0
C485 C 0.33032 0.17772 0.61005 0.0
C486 C 0.32787 0.16555 0.57611 0.0
C487 C 0.3614 0.17526 0.63285 0.0
O488 O 0.37171 0.17912 0.7139 0.0
O489 O 0.36803 0.16034 0.68319 0.0
C490 C 0.37705 0.16557 0.70126 0.0
O491 O 0.38676 0.21422 0.68488 0.0
O492 O 0.31404 0.17876 0.73241 0.0
O493 O 0.3539 0.20912 0.7402 0.0
O494 O 0.36527 0.22722 0.7035 0.0
C495 C 0.38595 0.23258 0.69591 0.0
O496 O 0.32886 0.19992 0.6662 0.0
O497 O 0.30981 0.19 0.69302 0.0
O498 O 0.31937 0.14464 0.70046 0.0
O499 O 0.36914 0.19756 0.64361 0.0
O500 O 0.35011 0.15568 0.64181 0.0
O501 O 0.31243 0.14661 0.66919 0.0
C502 C 0.3334 0.18542 0.76397 0.0
C503 C 0.34683 0.20351 0.78064 0.0
C504 C 0.32253 0.1503 0.78186 0.0
C505 C 0.34817 0.19513 0.79778 0.0
C506 C 0.32138 0.1587 0.76467 0.0
C507 C 0.33593 0.16845 0.79859 0.0
C508 C 0.33215 0.19497 0.74619 0.0
C509 C 0.31122 0.1979 0.67661 0.0
H510 H 0.37242 0.15782 0.6008 0.0
H511 H 0.30485 0.17942 0.58904 0.0
H512 H 0.35386 0.15259 0.56823 0.0
H513 H 0.32372 0.18478 0.62169 0.0
H514 H 0.3562 0.22419 0.78042 0.0
H515 H 0.31313 0.12962 0.78206 0.0
H516 H 0.35839 0.20955 0.81048 0.0
H517 H 0.31105 0.14432 0.75197 0.0
Eu518 Eu 0.84723 0.16343 0.6966 0.0
Eu519 Eu 0.82314 0.16003 0.65318 0.0
C520 C 0.84919 0.21226 0.68285 0.0
C521 C 0.85236 0.16266 0.74923 0.0
C522 C 0.83308 0.16853 0.75164 0.0
C523 C 0.85043 0.15178 0.78082 0.0
C524 C 0.82297 0.16661 0.76867 0.0
C525 C 0.8607 0.15392 0.7638 0.0
C526 C 0.83178 0.15854 0.78351 0.0
C527 C 0.8639 0.16584 0.73166 0.0
O528 O 0.86568 0.17811 0.65324 0.0
O529 O 0.87581 0.16317 0.67849 0.0
C530 C 0.88131 0.17322 0.66295 0.0
O531 O 0.82064 0.12127 0.68405 0.0
O532 O 0.82174 0.18013 0.63025 0.0
O533 O 0.79807 0.13813 0.62646 0.0
O534 O 0.82699 0.12486 0.65338 0.0
C535 C 0.8208 0.11098 0.66699 0.0
O536 O 0.80999 0.16153 0.69962 0.0
O537 O 0.78915 0.14352 0.6691 0.0
O538 O 0.82839 0.19597 0.67103 0.0
O539 O 0.85445 0.145 0.71881 0.0
O540 O 0.86766 0.18608 0.7244 0.0
O541 O 0.86331 0.20417 0.69061 0.0
C542 C 0.81414 0.15698 0.59967 0.0
C543 C 0.8329 0.15051 0.59683 0.0
C544 C 0.81239 0.16372 0.56709 0.0
C545 C 0.84139 0.15066 0.57916 0.0
C546 C 0.80386 0.16344 0.58471 0.0
C547 C 0.83135 0.15747 0.56411 0.0
C548 C 0.80629 0.1587 0.61843 0.0
C549 C 0.78901 0.14966 0.68728 0.0
H550 H 0.82614 0.17503 0.74046 0.0
H551 H 0.85766 0.14567 0.7921 0.0
H552 H 0.80842 0.17166 0.77031 0.0
H553 H 0.87545 0.14915 0.76213 0.0
H554 H 0.84119 0.14567 0.60832 0.0
H555 H 0.80457 0.16951 0.55596 0.0
H556 H 0.85581 0.14549 0.57732 0.0
H557 H 0.78958 0.16878 0.58675 0.0
C558 C 0.32875 0.89693 0.05261 0.0
C559 C 0.32458 0.91709 0.05941 0.0
C560 C 0.35228 0.90234 0.04694 0.0
C561 C 0.37204 0.92851 0.04805 0.0
C562 C 0.36807 0.94893 0.05515 0.0
C563 C 0.34442 0.94297 0.06078 0.0
C564 C 0.35587 0.88009 0.0395 0.0
C565 C 0.38868 0.97711 0.05649 0.0
C566 C 0.44148 0.94767 0.04816 0.0
C567 C 0.4451 0.95226 0.02956 0.0
C568 C 0.41751 0.93893 0.05419 0.0
C569 C 0.3967 0.93474 0.04134 0.0
C570 C 0.39995 0.93822 0.02234 0.0
C571 C 0.42409 0.94687 0.01667 0.0
C572 C 0.41475 0.93529 0.07454 0.0
C573 C 0.37823 0.93401 0.00821 0.0
H574 H 0.31354 0.87687 0.05153 0.0
H575 H 0.34137 0.95866 0.066 0.0
H576 H 0.35937 0.8807 0.02454 0.0
H577 H 0.37289 0.88197 0.04773 0.0
H578 H 0.33897 0.86085 0.04021 0.0
H579 H 0.38276 0.99068 0.06275 0.0
H580 H 0.40632 0.98119 0.06528 0.0
H581 H 0.39357 0.98121 0.04218 0.0
H582 H 0.45756 0.95168 0.05822 0.0
H583 H 0.42666 0.95037 1.00228 0.0
H584 H 0.39812 0.91588 0.07519 0.0
H585 H 0.41112 0.95006 0.08199 0.0
H586 H 0.43211 0.93719 0.08228 0.0
H587 H 0.36111 0.91457 0.00793 0.0
H588 H 0.38334 0.93555 0.99365 0.0
H589 H 0.3729 0.94873 0.01254 0.0
C590 C 0.1571 0.48791 0.07831 0.0
C591 C 0.14904 0.46421 0.08465 0.0
C592 C 0.13938 0.49486 0.0723 0.0
C593 C 0.11298 0.47764 0.0725 0.0
C594 C 0.10473 0.45366 0.07879 0.0
C595 C 0.12285 0.44728 0.08484 0.0
C596 C 0.14887 0.52064 0.06572 0.0
C597 C 0.07673 0.43466 0.07905 0.0
C598 C 0.06708 0.5029 0.07187 0.0
C599 C 0.05641 0.49554 0.05269 0.0
C600 C 0.08577 0.4975 0.0785 0.0
C601 C 0.09385 0.48431 0.06566 0.0
C602 C 0.08318 0.47687 0.04631 0.0
C603 C 0.06468 0.48263 0.04006 0.0
C604 C 0.0968 0.50581 0.09923 0.0
C605 C 0.09113 0.46258 0.03221 0.0
H606 H 0.1773 0.50114 0.0782 0.0
H607 H 0.11643 0.42892 0.08969 0.0
H608 H 0.14053 0.51739 0.05077 0.0
H609 H 0.14256 0.53235 0.07432 0.0
H610 H 0.17005 0.53207 0.06679 0.0
H611 H 0.07348 0.41691 0.08449 0.0
H612 H 0.06854 0.44407 0.08805 0.0
H613 H 0.06607 0.42874 0.06452 0.0
H614 H 0.06089 0.51294 0.08173 0.0
H615 H 0.05654 0.47677 0.02522 0.0
H616 H 0.1179 0.51851 0.10083 0.0
H617 H 0.09265 0.4885 0.10566 0.0
H618 H 0.08896 0.51647 0.10728 0.0
H619 H 0.11206 0.4742 0.03206 0.0
H620 H 0.08122 0.45845 0.0176 0.0
H621 H 0.08684 0.44387 0.03647 0.0
C622 C 0.54821 0.67634 0.03928 0.0
C623 C 0.57346 0.69199 0.04846 0.0
C624 C 0.53762 0.64955 0.03315 0.0
C625 C 0.55271 0.63822 0.03617 0.0
C626 C 0.57838 0.65403 0.04502 0.0
C627 C 0.58843 0.6807 0.05109 0.0
C628 C 0.51015 0.63329 0.02378 0.0
C629 C 0.59513 0.64269 0.04834 0.0
C630 C 0.51955 0.56591 0.03776 0.0
C631 C 0.52088 0.55574 0.01955 0.0
C632 C 0.52968 0.59271 0.04331 0.0
C633 C 0.54154 0.60975 0.03038 0.0
C634 C 0.54301 0.59963 0.01201 0.0
C635 C 0.53261 0.57275 0.0068 0.0
C636 C 0.52768 0.60281 0.06301 0.0
C637 C 0.55566 0.61721 0.99788 0.0
H638 H 0.5365 0.68489 0.03723 0.0
H639 H 0.60798 0.69266 0.05811 0.0
H640 H 0.50901 0.62287 0.00962 0.0
H641 H 0.49885 0.61833 0.03236 0.0
H642 H 0.50119 0.64517 0.02206 0.0
H643 H 0.61494 0.65777 0.05486 0.0
H644 H 0.58684 0.62809 0.05781 0.0
H645 H 0.59594 0.63247 0.03475 0.0
H646 H 0.51046 0.55291 0.04768 0.0
H647 H 0.53378 0.5651 0.99271 0.0
H648 H 0.5173 0.61345 0.06217 0.0
H649 H 0.54707 0.61679 0.07083 0.0
H650 H 0.5176 0.58696 0.07127 0.0
H651 H 0.54603 0.62822 0.99523 0.0
H652 H 0.55514 0.60624 0.98414 0.0
H653 H 0.57589 0.63166 1.00372 0.0
C654 C 0.86068 0.30759 0.99266 0.0
C655 C 0.87247 0.29358 0.98695 0.0
C656 C 0.87528 0.33435 0.99992 0.0
C657 C 0.90227 0.34736 1.00149 0.0
C658 C 0.91429 0.33312 0.99646 0.0
C659 C 0.89925 0.30641 0.98927 0.0
C660 C 0.86179 0.34888 1.00524 0.0
C661 C 0.94304 0.34629 0.99798 0.0
C662 C 0.93954 0.41919 0.9985 0.0
C663 C 0.94976 0.43064 0.01752 0.0
C664 C 0.92372 0.39215 0.99317 0.0
C665 C 0.91794 0.37612 0.00719 0.0
C666 C 0.92785 0.38753 0.02645 0.0
C667 C 0.94367 0.41467 0.03139 0.0
C668 C 0.91353 0.38071 0.97247 0.0
C669 C 0.92205 0.37105 0.04178 0.0
H670 H 0.84 0.29781 0.99097 0.0
H671 H 0.90855 0.29574 0.98499 0.0
H672 H 0.86978 0.36038 0.01975 0.0
H673 H 0.86497 0.3628 0.99543 0.0
H674 H 0.84087 0.33561 1.00462 0.0
H675 H 0.94945 0.33218 0.99466 0.0
H676 H 0.95005 0.36034 0.98801 0.0
H677 H 0.95211 0.35745 0.01247 0.0
H678 H 0.94407 0.43133 0.98768 0.0
H679 H 0.95141 0.42332 0.04613 0.0
H680 H 0.89235 0.36868 0.97051 0.0
H681 H 0.92071 0.36775 0.9675 0.0
H682 H 0.91922 0.3959 0.9634 0.0
H683 H 0.90108 0.35853 0.04129 0.0
H684 H 0.93037 0.38298 0.05616 0.0
H685 H 0.9298 0.35796 0.03936 0.0
C686 C 0.67168 0.55646 0.95746 0.0
C687 C 0.68312 0.54135 0.95501 0.0
C688 C 0.64743 0.54632 0.9632 0.0
C689 C 0.63417 0.52036 0.96648 0.0
C690 C 0.64557 0.50497 0.96406 0.0
C691 C 0.66996 0.51567 0.95841 0.0
C692 C 0.636 0.56343 0.96578 0.0
C693 C 0.63195 0.47718 0.96736 0.0
C694 C 0.5823 0.50382 0.99794 0.0
C695 C 0.56016 0.49252 0.98457 0.0
C696 C 0.60642 0.5124 0.99225 0.0
C697 C 0.6085 0.50956 0.97271 0.0
C698 C 0.58619 0.49756 0.95913 0.0
C699 C 0.56229 0.4892 0.96522 0.0
C700 C 0.62978 0.52521 0.00716 0.0
C701 C 0.58763 0.49412 0.93816 0.0
H702 H 0.6817 0.57633 0.95491 0.0
H703 H 0.67861 0.50383 0.95648 0.0
H704 H 0.61752 0.55442 0.95632 0.0
H705 H 0.63199 0.56532 0.98055 0.0
H706 H 0.64881 0.58321 0.96267 0.0
H707 H 0.64333 0.46773 0.96471 0.0
H708 H 0.62781 0.47651 0.98217 0.0
H709 H 0.61333 0.46569 0.95795 0.0
H710 H 0.58091 0.50648 0.01293 0.0
H711 H 0.54533 0.48048 0.95477 0.0
H712 H 0.64245 0.54576 1.00557 0.0
H713 H 0.64087 0.51534 1.00528 0.0
H714 H 0.62479 0.52485 0.02178 0.0
H715 H 0.59873 0.51343 0.93387 0.0
H716 H 0.56841 0.48329 0.92948 0.0
H717 H 0.5978 0.48353 0.93489 0.0
C718 C 0.38895 0.04569 0.97403 0.0
C719 C 0.39313 0.07093 0.97532 0.0
C720 C 0.40882 0.04153 0.97963 0.0
C721 C 0.43356 0.06313 0.98655 0.0
C722 C 0.43802 0.08867 0.98769 0.0
C723 C 0.41772 0.09228 0.98212 0.0
C724 C 0.40326 0.01396 0.97833 0.0
C725 C 0.46417 0.11215 0.99493 0.0
C726 C 0.47548 0.04777 0.01707 0.0
C727 C 0.4892 0.04307 1.00379 0.0
C728 C 0.4581 0.05546 0.01185 0.0
C729 C 0.45451 0.05874 0.99292 0.0
C730 C 0.46943 0.0556 0.97974 0.0
C731 C 0.48657 0.04774 0.98532 0.0
C732 C 0.44251 0.05854 0.02633 0.0
C733 C 0.4663 0.05917 0.95947 0.0
H734 H 0.37001 0.0291 0.96884 0.0
H735 H 0.42112 0.11185 0.98311 0.0
H736 H 0.41589 0.01096 0.96924 0.0
H737 H 0.40735 0.01039 0.99261 0.0
H738 H 0.38306 -0.00069 0.97243 0.0
H739 H 0.46465 0.13072 0.99444 0.0
H740 H 0.47014 0.11184 0.00977 0.0
H741 H 0.47846 0.11163 0.98638 0.0
H742 H 0.47736 0.04425 0.03139 0.0
H743 H 0.49717 0.04429 0.97497 0.0
H744 H 0.42223 0.04268 0.02245 0.0
H745 H 0.44306 0.07722 0.0265 0.0
H746 H 0.44938 0.05788 0.04084 0.0
H747 H 0.44726 0.0434 0.95209 0.0
H748 H 0.48119 0.05877 0.95157 0.0
H749 H 0.46714 0.07789 0.95898 0.0
C750 C 0.70315 0.13121 0.98023 0.0
C751 C 0.70115 0.14738 0.96855 0.0
C752 C 0.6816 0.11235 0.98697 0.0
C753 C 0.65747 0.10959 0.98191 0.0
C754 C 0.65532 0.12588 0.97016 0.0
C755 C 0.67718 0.14458 0.96363 0.0
C756 C 0.68462 0.0953 0.99946 0.0
C757 C 0.62989 0.12348 0.96444 0.0
C758 C 0.59744 0.04557 0.98422 0.0
C759 C 0.58992 0.05159 1.00123 0.0
C760 C 0.61945 0.06422 0.97782 0.0
C761 C 0.6344 0.08948 0.98874 0.0
C762 C 0.62712 0.09561 1.00603 0.0
C763 C 0.60494 0.07661 0.01206 0.0
C764 C 0.62652 0.05697 0.95925 0.0
C765 C 0.64261 0.12235 0.01805 0.0
H766 H 0.72159 0.13324 0.98411 0.0
H767 H 0.67545 0.15698 0.95461 0.0
H768 H 0.67798 0.09745 0.01321 0.0
H769 H 0.67254 0.07457 0.99267 0.0
H770 H 0.70474 0.10008 1.00224 0.0
H771 H 0.63149 0.13776 0.95535 0.0
H772 H 0.61611 0.1036 0.95662 0.0
H773 H 0.62179 0.12646 0.97725 0.0
H774 H 0.58594 0.02634 0.9757 0.0
H775 H 0.59929 0.08145 0.02521 0.0
H776 H 0.64605 0.06003 0.96153 0.0
H777 H 0.62674 0.06972 0.94922 0.0
H778 H 0.61299 0.0364 0.95255 0.0
H779 H 0.66262 0.12726 0.02183 0.0
H780 H 0.63466 0.12384 0.03132 0.0
H781 H 0.64321 0.13712 0.0099 0.0
C782 C 0.8501 0.54245 0.97707 0.0
C783 C 0.83237 0.52152 0.96307 0.0
C784 C 0.87072 0.54218 0.98665 0.0
C785 C 0.87364 0.52041 0.98216 0.0
C786 C 0.85558 0.49904 0.96827 0.0
C787 C 0.8352 0.49987 0.95886 0.0
C788 C 0.88963 0.56536 1.00133 0.0
C789 C 0.85799 0.47543 0.96314 0.0
C790 C 0.93954 0.52904 0.99214 0.0
C791 C 0.93801 0.51875 0.00889 0.0
C792 C 0.91884 0.52994 0.98343 0.0
C793 C 0.89597 0.52026 0.99161 0.0
C794 C 0.89435 0.51008 0.0086 0.0
C795 C 0.9154 0.50948 0.01705 0.0
C796 C 0.92135 0.54101 0.96534 0.0
C797 C 0.87026 0.49951 0.01771 0.0
H798 H 0.84808 0.55927 0.98041 0.0
H799 H 0.82157 0.48359 0.94809 0.0
H800 H 0.89103 0.55911 0.01507 0.0
H801 H 0.90892 0.57424 0.99689 0.0
H802 H 0.88428 0.58046 1.00355 0.0
H803 H 0.84189 0.46008 0.95248 0.0
H804 H 0.87615 0.48114 0.95736 0.0
H805 H 0.85864 0.46708 0.97599 0.0
H806 H 0.95689 0.53627 0.98569 0.0
H807 H 0.91397 0.50144 0.02996 0.0
H808 H 0.91762 0.55728 0.96714 0.0
H809 H 0.90687 0.5259 0.95369 0.0
H810 H 0.94061 0.54826 0.96102 0.0
H811 H 0.86519 0.51469 0.0208 0.0
H812 H 0.87224 0.49272 0.03111 0.0
H813 H 0.85411 0.48298 0.00779 0.0
C814 C 0.38984 0.26977 0.98014 0.0
C815 C 0.39449 0.25729 0.96448 0.0
C816 C 0.40192 0.29698 0.98414 0.0
C817 C 0.41907 0.31208 0.9722 0.0
C818 C 0.42378 0.29963 0.95633 0.0
C819 C 0.41142 0.27238 0.95265 0.0
C820 C 0.3964 0.30956 1.0012 0.0
C821 C 0.44197 0.31512 0.94329 0.0
C822 C 0.43279 0.38106 0.97361 0.0
C823 C 0.45612 0.39557 0.98577 0.0
C824 C 0.42069 0.3539 0.96887 0.0
C825 C 0.43219 0.34094 0.97645 0.0
C826 C 0.45591 0.35549 0.98849 0.0
C827 C 0.46759 0.38263 0.99302 0.0
C828 C 0.39539 0.33902 0.95597 0.0
C829 C 0.46879 0.34235 0.99682 0.0
H830 H 0.37679 0.25829 0.98936 0.0
H831 H 0.41512 0.2629 0.94052 0.0
H832 H 0.41435 0.3227 0.01109 0.0
H833 H 0.38875 0.32164 0.99672 0.0
H834 H 0.38241 0.29504 0.00897 0.0
H835 H 0.44339 0.30248 0.93146 0.0
H836 H 0.43558 0.32738 0.93723 0.0
H837 H 0.46131 0.32843 0.9514 0.0
H838 H 0.4238 0.39088 0.96791 0.0
H839 H 0.48563 0.39366 1.00239 0.0
H840 H 0.38035 0.32542 0.9636 0.0
H841 H 0.39664 0.32714 0.94353 0.0
H842 H 0.38935 0.35207 0.95083 0.0
H843 H 0.45633 0.32887 1.00588 0.0
H844 H 0.48757 0.35653 1.00549 0.0
H845 H 0.47176 0.33056 0.98533 0.0
C846 C 0.13452 0.71313 0.0802 0.0
C847 C 0.13339 0.72885 0.06767 0.0
C848 C 0.11809 0.68603 0.07636 0.0
C849 C 0.10009 0.67438 0.05963 0.0
C850 C 0.09876 0.69013 0.04699 0.0
C851 C 0.11543 0.71717 0.05116 0.0
C852 C 0.12008 0.66983 0.09015 0.0
C853 C 0.07978 0.6784 0.02901 0.0
C854 C 0.07342 0.60304 0.04005 0.0
C855 C 0.04936 0.5913 0.04619 0.0
C856 C 0.09021 0.63005 0.04445 0.0
C857 C 0.08274 0.64568 0.05524 0.0
C858 C 0.05856 0.63395 0.06158 0.0
C859 C 0.04216 0.60689 0.05699 0.0
C860 C 0.11588 0.64187 0.03747 0.0
C861 C 0.04994 0.65002 0.0731 0.0
H862 H 0.14834 0.72199 0.09299 0.0
H863 H 0.1144 0.72915 0.04141 0.0
H864 H 0.10145 0.65844 0.09527 0.0
H865 H 0.12469 0.65571 0.08293 0.0
H866 H 0.13497 0.6819 0.10259 0.0
H867 H 0.08102 0.69336 0.02077 0.0
H868 H 0.08315 0.66453 0.01992 0.0
H869 H 0.06004 0.66725 0.03246 0.0
H870 H 0.07917 0.59115 0.03173 0.0
H871 H 0.02362 0.59798 0.06181 0.0
H872 H 0.13144 0.65293 0.04962 0.0
H873 H 0.11747 0.65584 0.0281 0.0
H874 H 0.11895 0.62697 0.0295 0.0
H875 H 0.06378 0.66127 0.08619 0.0
H876 H 0.0307 0.63787 0.07717 0.0
H877 H 0.04943 0.66426 0.06488 0.0
C878 C 0.30917 0.43355 0.04748 0.0
C879 C 0.31151 0.45358 0.06111 0.0
C880 C 0.33035 0.43607 0.0392 0.0
C881 C 0.35446 0.45918 0.04464 0.0
C882 C 0.3569 0.47959 0.05822 0.0
C883 C 0.33541 0.47653 0.0663 0.0
C884 C 0.32701 0.41382 0.02483 0.0
C885 C 0.38229 0.50455 0.06437 0.0
C886 C 0.41408 0.45589 0.03835 0.0
C887 C 0.42096 0.46636 0.02173 0.0
C888 C 0.39251 0.45344 0.0459 0.0
C889 C 0.37734 0.46163 0.03665 0.0
C890 C 0.38409 0.47216 0.01986 0.0
C891 C 0.40582 0.47441 0.01259 0.0
C892 C 0.38602 0.44215 0.06386 0.0
C893 C 0.3684 0.48116 0.00962 0.0
H894 H 0.29079 0.41576 0.04336 0.0
H895 H 0.3374 0.49214 0.07678 0.0
H896 H 0.33337 0.42068 0.01141 0.0
H897 H 0.33915 0.40643 0.03016 0.0
H898 H 0.30686 0.39746 0.02172 0.0
H899 H 0.3808 0.51889 0.0746 0.0
H900 H 0.39635 0.50034 0.07111 0.0
H901 H 0.38994 0.5135 0.05187 0.0
H902 H 0.42564 0.44968 0.0456 0.0
H903 H 0.41097 0.48256 0.99978 0.0
H904 H 0.36656 0.42462 0.06124 0.0
H905 H 0.38592 0.45645 0.07502 0.0
H906 H 0.39977 0.43668 0.06932 0.0
H907 H 0.3484 0.4648 1.00545 0.0
H908 H 0.37614 0.48883 0.9967 0.0
H909 H 0.36784 0.49663 0.0192 0.0
C910 C 0.51768 0.83214 0.05664 0.0
C911 C 0.538 0.82867 0.05247 0.0
C912 C 0.51608 0.85312 0.05162 0.0
C913 C 0.53519 0.87098 0.0421 0.0
C914 C 0.55559 0.86744 0.03764 0.0
C915 C 0.55679 0.84635 0.04292 0.0
C916 C 0.49407 0.8563 0.05666 0.0
C917 C 0.57623 0.88602 0.0274 0.0
C918 C 0.5182 0.91173 0.01476 0.0
C919 C 0.52968 0.93541 0.02743 0.0
C920 C 0.52018 0.89073 0.01923 0.0
C921 C 0.5338 0.89341 0.03686 0.0
C922 C 0.54563 0.91731 0.04965 0.0
C923 C 0.5435 0.93807 0.04475 0.0
C924 C 0.50744 0.86558 1.00519 0.0
C925 C 0.56018 0.92084 0.06864 0.0
H926 H 0.50313 0.81862 0.06406 0.0
H927 H 0.57254 0.84381 0.03963 0.0
H928 H 0.50147 0.87534 0.06596 0.0
H929 H 0.48317 0.8562 0.04365 0.0
H930 H 0.48075 0.84066 0.06403 0.0
H931 H 0.59058 0.88031 0.02472 0.0
H932 H 0.56758 0.88688 0.01363 0.0
H933 H 0.58622 0.90593 0.03588 0.0
H934 H 0.50756 0.90953 1.00131 0.0
H935 H 0.55232 0.95625 0.05467 0.0
H936 H 0.49267 0.84967 0.01155 0.0
H937 H 0.52169 0.86008 1.00166 0.0
H938 H 0.49822 0.86693 0.99186 0.0
H939 H 0.54724 0.90672 0.07714 0.0
H940 H 0.56859 0.94079 0.07684 0.0
H941 H 0.57579 0.91681 0.06663 0.0
C942 C 0.99797 0.21091 0.38488 0.0
C943 C 0.98732 0.22682 0.38524 0.0
C944 C 0.02241 0.21945 0.37974 0.0
C945 C 0.03636 0.24435 0.37464 0.0
C946 C 0.0256 0.2604 0.37481 0.0
C947 C 0.00129 0.2515 0.38021 0.0
C948 C 0.0334 0.20195 0.37994 0.0
C949 C 0.03981 0.28703 0.36931 0.0
C950 C 0.10857 0.28159 0.37851 0.0
C951 C 0.11219 0.27864 0.35948 0.0
C952 C 0.08402 0.26939 0.38376 0.0
C953 C 0.06252 0.25414 0.3696 0.0
C954 C 0.0661 0.25007 0.35046 0.0
C955 C 0.09097 0.26225 0.34564 0.0
C956 C 0.08105 0.27386 0.40435 0.0
C957 C 0.04363 0.23407 0.33495 0.0
H958 H 0.98729 0.19182 0.38878 0.0
H959 H 0.99314 0.26385 0.38034 0.0
H960 H 0.03824 0.1982 0.36574 0.0
H961 H 0.0514 0.21171 0.39006 0.0
H962 H 0.01998 0.18301 0.38403 0.0
H963 H 0.02843 0.29674 0.3696 0.0
H964 H 0.05793 0.2996 0.37914 0.0
H965 H 0.0449 0.28545 0.35485 0.0
H966 H 0.12496 0.29403 0.3893 0.0
H967 H 0.09366 0.26001 0.33091 0.0
H968 H 0.06824 0.2551 0.40889 0.0
H969 H 0.07213 0.28593 0.40627 0.0
H970 H 0.09968 0.28391 0.4138 0.0
H971 H 0.03031 0.21491 0.33875 0.0
H972 H 0.04966 0.23082 0.32112 0.0
H973 H 0.03286 0.24419 0.33328 0.0
C974 C 0.80613 0.78969 0.39884 0.0
C975 C 0.79606 0.76445 0.40287 0.0
C976 C 0.78997 0.79876 0.3933 0.0
C977 C 0.76314 0.78211 0.39164 0.0
C978 C 0.75287 0.7565 0.39543 0.0
C979 C 0.76944 0.74802 0.40104 0.0
C980 C 0.80159 0.82621 0.38941 0.0
C981 C 0.72435 0.7381 0.39367 0.0
C982 C 0.71982 0.8103 0.39421 0.0
C983 C 0.71052 0.80646 0.37501 0.0
C984 C 0.73736 0.80294 0.39981 0.0
C985 C 0.74569 0.79134 0.38589 0.0
C986 C 0.73663 0.7877 0.3665 0.0
C987 C 0.71921 0.79535 0.36129 0.0
C988 C 0.7467 0.80724 0.42064 0.0
C989 C 0.74496 0.77527 0.35125 0.0
H990 H 0.82667 0.80254 0.40028 0.0
H991 H 0.76148 0.72846 0.40408 0.0
H992 H 0.7945 0.82599 0.37474 0.0
H993 H 0.79566 0.8373 0.39912 0.0
H994 H 0.82282 0.83665 0.39125 0.0
H995 H 0.71944 0.71869 0.39688 0.0
H996 H 0.716 0.74643 0.40349 0.0
H997 H 0.71519 0.73549 0.37909 0.0
H998 H 0.71329 0.81895 0.40491 0.0
H999 H 0.71216 0.79228 0.34642 0.0
H1000 H 0.7679 0.81889 0.42327 0.0
H1001 H 0.74077 0.78827 0.42513 0.0
H1002 H 0.73915 0.8174 0.42962 0.0
H1003 H 0.7661 0.7862 0.35232 0.0
H1004 H 0.73673 0.77454 0.33678 0.0
H1005 H 0.73896 0.75514 0.35324 0.0
C1006 C 0.2149 0.01674 0.39603 0.0
C1007 C 0.23114 0.03508 0.38552 0.0
C1008 C 0.2053 0.9901 0.39031 0.0
C1009 C 0.2122 0.98157 0.3737 0.0
C1010 C 0.2283 -8e-05 0.36286 0.0
C1011 C 0.23752 0.02649 0.36887 0.0
C1012 C 0.18803 0.9711 0.40216 0.0
C1013 C 0.23611 0.99152 0.3451 0.0
C1014 C 0.20753 0.91597 0.36974 0.0
C1015 C 0.18434 0.89977 0.35767 0.0
C1016 C 0.21697 0.9427 0.37489 0.0
C1017 C 0.20282 0.95345 0.36788 0.0
C1018 C 0.17942 0.93722 0.3557 0.0
C1019 C 0.17048 0.91059 0.35071 0.0
C1020 C 0.24206 0.95943 0.38787 0.0
C1021 C 0.16371 0.94796 0.34806 0.0
H1022 H 0.20978 0.02319 0.40888 0.0
H1023 H 0.2501 0.04055 0.3607 0.0
H1024 H 0.16964 0.95628 0.39334 0.0
H1025 H 0.19703 0.96065 0.40761 0.0
H1026 H 0.18393 0.98083 0.41441 0.0
H1027 H 0.24833 0.00815 0.33807 0.0
H1028 H 0.24676 0.98177 0.3486 0.0
H1029 H 0.21889 0.97718 0.3349 0.0
H1030 H 0.21842 0.90781 0.37513 0.0
H1031 H 0.15254 0.89824 0.34139 0.0
H1032 H 0.23902 0.96845 0.40106 0.0
H1033 H 0.25563 0.97548 0.38095 0.0
H1034 H 0.25101 0.94818 0.39174 0.0
H1035 H 0.15817 0.95667 0.35995 0.0
H1036 H 0.14608 0.9328 0.33854 0.0
H1037 H 0.17525 0.96367 0.34009 0.0
C1038 C 0.53843 0.62805 0.28685 0.0
C1039 C 0.51343 0.6159 0.29131 0.0
C1040 C 0.55591 0.65444 0.29384 0.0
C1041 C 0.5481 0.66909 0.30541 0.0
C1042 C 0.52272 0.6571 0.30965 0.0
C1043 C 0.50572 0.63056 0.30264 0.0
C1044 C 0.5829 0.66647 0.28921 0.0
C1045 C 0.51367 0.67221 0.3218 0.0
C1046 C 0.5989 0.72812 0.34004 0.0
C1047 C 0.60287 0.74856 0.3305 0.0
C1048 C 0.58123 0.70221 0.33196 0.0
C1049 C 0.56692 0.69657 0.31397 0.0
C1050 C 0.57079 0.71707 0.30423 0.0
C1051 C 0.58888 0.74288 0.31257 0.0
C1052 C 0.57793 0.68085 0.34267 0.0
C1053 C 0.55566 0.71175 0.2851 0.0
H1054 H 0.54454 0.61683 0.27811 0.0
H1055 H 0.48636 0.62134 0.30601 0.0
H1056 H 0.58784 0.6838 0.28258 0.0
H1057 H 0.59653 0.67314 0.30245 0.0
H1058 H 0.58566 0.65263 0.27948 0.0
H1059 H 0.49295 0.66042 0.32284 0.0
H1060 H 0.52453 0.67893 0.3363 0.0
H1061 H 0.51733 0.68978 0.31592 0.0
H1062 H 0.60976 0.73233 0.35385 0.0
H1063 H 0.59178 0.75861 0.30518 0.0
H1064 H 0.58185 0.66711 0.33398 0.0
H1065 H 0.55788 0.66959 0.34548 0.0
H1066 H 0.59081 0.68852 0.3564 0.0
H1067 H 0.55898 0.69892 0.2748 0.0
H1068 H 0.56082 0.72988 0.27946 0.0
H1069 H 0.53492 0.70135 0.28616 0.0
C1070 C 0.33345 0.85576 0.29018 0.0
C1071 C 0.35323 0.88163 0.29634 0.0
C1072 C 0.30924 0.84651 0.29591 0.0
C1073 C 0.30474 0.86351 0.30816 0.0
C1074 C 0.32482 0.88942 0.31487 0.0
C1075 C 0.3488 0.89818 0.30885 0.0
C1076 C 0.28828 0.81877 0.28844 0.0
C1077 C 0.32081 0.90808 0.32806 0.0
C1078 C 0.23705 0.8504 0.30763 0.0
C1079 C 0.23008 0.83931 0.32398 0.0
C1080 C 0.26114 0.85798 0.30218 0.0
C1081 C 0.27878 0.85456 0.3134 0.0
C1082 C 0.27179 0.84313 0.32981 0.0
C1083 C 0.24749 0.83557 0.33487 0.0
C1084 C 0.2678 0.86992 0.2845 0.0
C1085 C 0.29013 0.83926 0.34216 0.0
H1086 H 0.33668 0.84283 0.28051 0.0
H1087 H 0.36398 0.91816 0.31375 0.0
H1088 H 0.28011 0.80858 0.30036 0.0
H1089 H 0.27254 0.81857 0.27965 0.0
H1090 H 0.29517 0.80771 0.27971 0.0
H1091 H 0.3387 0.92718 0.33271 0.0
H1092 H 0.30631 0.91134 0.32085 0.0
H1093 H 0.31335 0.89965 0.34078 0.0
H1094 H 0.2237 0.85324 0.29904 0.0
H1095 H 0.24231 0.82706 0.34754 0.0
H1096 H 0.27348 0.85876 0.27462 0.0
H1097 H 0.28438 0.89009 0.28824 0.0
H1098 H 0.25162 0.87043 0.27698 0.0
H1099 H 0.29633 0.82739 0.33363 0.0
H1100 H 0.28155 0.82952 0.35419 0.0
H1101 H 0.30753 0.85835 0.34793 0.0
C1102 C 0.08874 0.43525 0.32128 0.0
C1103 C 0.06323 0.41773 0.32309 0.0
C1104 C 0.10758 0.4286 0.32381 0.0
C1105 C 0.10077 0.40404 0.32855 0.0
C1106 C 0.07518 0.38659 0.33092 0.0
C1107 C 0.05668 0.39356 0.32799 0.0
C1108 C 0.13459 0.44754 0.32091 0.0
C1109 C 0.06725 0.36036 0.33626 0.0
C1110 C 0.13789 0.37073 0.31659 0.0
C1111 C 0.15156 0.37465 0.3343 0.0
C1112 C 0.12231 0.38139 0.31432 0.0
C1113 C 0.12001 0.39592 0.33023 0.0
C1114 C 0.13462 0.40089 0.34798 0.0
C1115 C 0.15042 0.39035 0.34977 0.0
C1116 C 0.10744 0.37609 0.29508 0.0
C1117 C 0.13245 0.41606 0.36531 0.0
H1118 H 0.09388 0.45393 0.31743 0.0
H1119 H 0.03703 0.38003 0.32956 0.0
H1120 H 0.14818 0.45158 0.33363 0.0
H1121 H 0.1399 0.43886 0.30883 0.0
H1122 H 0.13699 0.46626 0.31799 0.0
H1123 H 0.04693 0.3497 0.33861 0.0
H1124 H 0.06998 0.34825 0.32485 0.0
H1125 H 0.07945 0.36275 0.34936 0.0
H1126 H 0.13891 0.35879 0.30455 0.0
H1127 H 0.16083 0.39328 0.36352 0.0
H1128 H 0.11007 0.39445 0.29119 0.0
H1129 H 0.08674 0.36307 0.29549 0.0
H1130 H 0.11332 0.36673 0.28382 0.0
H1131 H 0.135 0.43474 0.36225 0.0
H1132 H 0.14674 0.42021 0.37761 0.0
H1133 H 0.11304 0.40479 0.36932 0.0
C1134 C 0.35741 0.46542 0.29563 0.0
C1135 C 0.35573 0.48606 0.29002 0.0
C1136 C 0.33713 0.4457 0.30286 0.0
C1137 C 0.31488 0.44698 0.3049 0.0
C1138 C 0.3133 0.46809 0.29963 0.0
C1139 C 0.33365 0.48724 0.29206 0.0
C1140 C 0.33927 0.4232 0.30794 0.0
C1141 C 0.29006 0.47036 0.30191 0.0
C1142 C 0.252 0.38522 0.30585 0.0
C1143 C 0.25061 0.38632 0.32533 0.0
C1144 C 0.27302 0.4046 0.29903 0.0
C1145 C 0.29293 0.42587 0.31202 0.0
C1146 C 0.29169 0.42708 0.33172 0.0
C1147 C 0.27063 0.40712 0.33817 0.0
C1148 C 0.27381 0.40235 0.27793 0.0
C1149 C 0.31236 0.44971 0.34595 0.0
H1150 H 0.37439 0.46434 0.29397 0.0
H1151 H 0.33234 0.50326 0.28784 0.0
H1152 H 0.33684 0.42167 0.32301 0.0
H1153 H 0.32378 0.40472 0.29924 0.0
H1154 H 0.35795 0.42521 0.30566 0.0
H1155 H 0.29239 0.48865 0.29805 0.0
H1156 H 0.27301 0.45366 0.29284 0.0
H1157 H 0.2862 0.46967 0.3168 0.0
H1158 H 0.23665 0.36908 0.29586 0.0
H1159 H 0.26953 0.40814 0.35323 0.0
H1160 H 0.29184 0.40345 0.27478 0.0
H1161 H 0.27347 0.41882 0.27277 0.0
H1162 H 0.25743 0.38389 0.26985 0.0
H1163 H 0.33111 0.45143 0.34461 0.0
H1164 H 0.30854 0.44772 0.36077 0.0
H1165 H 0.31396 0.46809 0.34303 0.0
C1166 C 0.51649 0.87593 0.31403 0.0
C1167 C 0.49919 0.85828 0.29825 0.0
C1168 C 0.53532 0.87215 0.32276 0.0
C1169 C 0.53694 0.85024 0.3155 0.0
C1170 C 0.51925 0.83211 0.29979 0.0
C1171 C 0.50057 0.83633 0.29138 0.0
C1172 C 0.5538 0.89186 0.33952 0.0
C1173 C 0.5204 0.80855 0.29162 0.0
C1174 C 0.60082 0.85414 0.32426 0.0
C1175 C 0.59719 0.83957 0.33886 0.0
C1176 C 0.58143 0.85786 0.31664 0.0
C1177 C 0.5578 0.84685 0.32381 0.0
C1178 C 0.55406 0.83236 0.33868 0.0
C1179 C 0.57378 0.82884 0.346 0.0
C1180 C 0.58614 0.87336 0.30074 0.0
C1181 C 0.52915 0.82039 0.34673 0.0
H1182 H 0.51553 0.8929 0.31946 0.0
H1183 H 0.48727 0.82258 0.2792 0.0
H1184 H 0.55358 0.88205 0.35171 0.0
H1185 H 0.57353 0.90133 0.3359 0.0
H1186 H 0.54925 0.90717 0.34399 0.0
H1187 H 0.50466 0.7958 0.27983 0.0
H1188 H 0.53891 0.81484 0.28624 0.0
H1189 H 0.51938 0.79698 0.30281 0.0
H1190 H 0.61878 0.86245 0.31858 0.0
H1191 H 0.57078 0.81757 0.35728 0.0
H1192 H 0.5835 0.89008 0.30487 0.0
H1193 H 0.57203 0.86105 0.28798 0.0
H1194 H 0.60567 0.88087 0.2969 0.0
H1195 H 0.5249 0.83568 0.35197 0.0
H1196 H 0.52947 0.81017 0.35855 0.0
H1197 H 0.51326 0.80629 0.33545 0.0
C1198 C 0.0553 0.61701 0.29149 0.0
C1199 C 0.06916 0.60427 0.29213 0.0
C1200 C 0.06748 0.64411 0.29681 0.0
C1201 C 0.09419 0.65883 0.30288 0.0
C1202 C 0.1084 0.64618 0.30313 0.0
C1203 C 0.09572 0.61904 0.29775 0.0
C1204 C 0.05169 0.65692 0.29632 0.0
C1205 C 0.13692 0.66125 0.30946 0.0
C1206 C 0.12829 0.73168 0.30328 0.0
C1207 C 0.12984 0.74133 0.32239 0.0
C1208 C 0.11701 0.70489 0.29676 0.0
C1209 C 0.10704 0.68734 0.30964 0.0
C1210 C 0.10886 0.69696 0.32898 0.0
C1211 C 0.12024 0.72383 0.33512 0.0
C1212 C 0.11546 0.69534 0.27603 0.0
C1213 C 0.09847 0.67884 0.34316 0.0
H1214 H 0.0348 0.60578 0.28712 0.0
H1215 H 0.10661 0.60938 0.29824 0.0
H1216 H 0.05268 0.6663 0.31085 0.0
H1217 H 0.05949 0.67243 0.28753 0.0
H1218 H 0.0313 0.64285 0.29055 0.0
H1219 H 0.14535 0.64866 0.30802 0.0
H1220 H 0.14652 0.67695 0.30102 0.0
H1221 H 0.1411 0.67068 0.32451 0.0
H1222 H 0.13567 0.74504 0.29333 0.0
H1223 H 0.12137 0.73107 0.34991 0.0
H1224 H 0.09515 0.68253 0.2696 0.0
H1225 H 0.12472 0.68356 0.27447 0.0
H1226 H 0.12477 0.71156 0.26796 0.0
H1227 H 0.07758 0.66536 0.33902 0.0
H1228 H 0.1019 0.68947 0.35776 0.0
H1229 H 0.10745 0.66679 0.34324 0.0
C1230 C 0.77889 0.02696 0.40943 0.0
C1231 C 0.79998 0.03441 0.42302 0.0
C1232 C 0.76053 0.00066 0.40302 0.0
C1233 C 0.76329 0.98131 0.41039 0.0
C1234 C 0.78403 0.98867 0.42458 0.0
C1235 C 0.80215 0.01517 0.43073 0.0
C1236 C 0.73863 -0.00643 0.3879 0.0
C1237 C 0.78752 0.96855 0.4328 0.0
C1238 C 0.70492 0.91306 0.40139 0.0
C1239 C 0.70973 0.90147 0.3853 0.0
C1240 C 0.72246 0.93888 0.41002 0.0
C1241 C 0.74529 0.95342 0.40234 0.0
C1242 C 0.75049 0.94166 0.38635 0.0
C1243 C 0.73268 0.91585 0.37805 0.0
C1244 C 0.71634 0.95076 0.4271 0.0
C1245 C 0.77465 0.95655 0.37775 0.0
H1246 H 0.77696 0.04168 0.40346 0.0
H1247 H 0.81834 0.02074 0.44128 0.0
H1248 H 0.74006 0.98295 0.37478 0.0
H1249 H 0.72012 0.98041 0.39256 0.0
H1250 H 0.73842 0.01094 0.38444 0.0
H1251 H 0.80356 0.97746 0.44469 0.0
H1252 H 0.76975 0.95466 0.43798 0.0
H1253 H 0.7914 0.95718 0.42161 0.0
H1254 H 0.68732 0.90208 0.40718 0.0
H1255 H 0.73663 0.90707 0.36566 0.0
H1256 H 0.71418 0.96706 0.42363 0.0
H1257 H 0.73228 0.95893 0.43897 0.0
H1258 H 0.69847 0.93642 0.43197 0.0
H1259 H 0.77505 0.9733 0.3725 0.0
H1260 H 0.77629 0.94427 0.36578 0.0
H1261 H 0.79166 0.96449 0.38866 0.0
C1262 C 0.99262 0.80394 0.39557 0.0
C1263 C 0.97261 0.77834 0.39503 0.0
C1264 C 0.01501 0.80907 0.388 0.0
C1265 C 0.01761 0.78808 0.37997 0.0
C1266 C 0.99747 0.76219 0.37935 0.0
C1267 C 0.97513 0.75763 0.38676 0.0
C1268 C 0.03594 0.83695 0.38871 0.0
C1269 C -0.0003 0.7393 0.37116 0.0
C1270 C 0.06738 0.80043 0.34694 0.0
C1271 C 0.0879 0.80373 0.35932 0.0
C1272 C 0.04438 0.7954 0.35346 0.0
C1273 C 0.04174 0.79323 0.37274 0.0
C1274 C 0.06228 0.79617 0.38521 0.0
C1275 C 0.08513 0.80154 0.37838 0.0
C1276 C 0.02301 0.79273 0.3398 0.0
C1277 C 0.06014 0.79364 0.4058 0.0
H1278 H 0.99074 0.82004 0.40183 0.0
H1279 H 0.95978 0.73779 0.38636 0.0
H1280 H 0.05355 0.84093 0.39749 0.0
H1281 H 0.04067 0.84034 0.37425 0.0
H1282 H 0.0305 0.85103 0.3947 0.0
H1283 H 0.9822 0.72037 0.37154 0.0
H1284 H 0.00336 0.74031 0.35626 0.0
H1285 H 0.0162 0.73997 0.37922 0.0
H1286 H 0.06943 0.80223 0.33221 0.0
H1287 H 0.10079 0.80378 0.388 0.0
H1288 H 0.01816 0.8076 0.34491 0.0
H1289 H 0.00557 0.77339 0.33908 0.0
H1290 H 0.02811 0.795 0.32528 0.0
H1291 H 0.05647 0.80853 0.41295 0.0
H1292 H 0.07772 0.79598 0.41354 0.0
H1293 H 0.04372 0.77431 0.4069 0.0
C1294 C 0.19396 0.16663 0.37582 0.0
C1295 C 0.21827 0.1696 0.37873 0.0
C1296 C 0.19092 0.18696 0.37114 0.0
C1297 C 0.21275 0.21091 0.36954 0.0
C1298 C 0.23732 0.21397 0.37233 0.0
C1299 C 0.23978 0.19321 0.37679 0.0
C1300 C 0.16437 0.18288 0.36806 0.0
C1301 C 0.26105 0.23931 0.3709 0.0
C1302 C 0.20294 0.25627 0.34232 0.0
C1303 C 0.20236 0.27341 0.357 0.0
C1304 C 0.20651 0.23595 0.3462 0.0
C1305 C 0.20983 0.23287 0.36523 0.0
C1306 C 0.20978 0.25042 0.38013 0.0
C1307 C 0.20592 0.27041 0.37584 0.0
C1308 C 0.20623 0.21748 0.32993 0.0
C1309 C 0.21352 0.24791 0.40062 0.0
H1310 H 0.17725 0.14841 0.37723 0.0
H1311 H 0.25864 0.19568 0.3791 0.0
H1312 H 0.16286 0.19683 0.37864 0.0
H1313 H 0.16055 0.18671 0.35382 0.0
H1314 H 0.14933 0.16282 0.36925 0.0
H1315 H 0.27873 0.23843 0.37324 0.0
H1316 H 0.25963 0.24447 0.35673 0.0
H1317 H 0.26278 0.2552 0.38154 0.0
H1318 H 0.20009 0.25837 0.32772 0.0
H1319 H 0.20562 0.28364 0.38728 0.0
H1320 H 0.19032 0.19742 0.33001 0.0
H1321 H 0.22425 0.21718 0.33156 0.0
H1322 H 0.20391 0.22285 0.31596 0.0
H1323 H 0.19787 0.22894 0.40315 0.0
H1324 H 0.21386 0.26369 0.41055 0.0
H1325 H 0.23173 0.24833 0.40393 0.0
C1326 C 0.65817 0.52867 0.7147 0.0
C1327 C 0.64254 0.5395 0.71579 0.0
C1328 C 0.68334 0.54317 0.7108 0.0
C1329 C 0.6932 0.56921 0.70814 0.0
C1330 C 0.6776 0.58033 0.70938 0.0
C1331 C 0.6524 0.56529 0.7131 0.0
C1332 C 0.69932 0.53057 0.70939 0.0
C1333 C 0.68753 0.60812 0.70681 0.0
C1334 C 0.76528 0.61448 0.71462 0.0
C1335 C 0.77012 0.61519 0.69579 0.0
C1336 C 0.74034 0.59957 0.71885 0.0
C1337 C 0.71979 0.58479 0.7039 0.0
C1338 C 0.72458 0.58512 0.68487 0.0
C1339 C 0.74967 0.60042 0.68104 0.0
C1340 C 0.73595 0.59989 0.73933 0.0
C1341 C 0.70319 0.56938 0.66854 0.0
H1342 H 0.65066 0.50872 0.71671 0.0
H1343 H 0.64048 0.57382 0.714 0.0
H1344 H 0.70551 0.53087 0.69518 0.0
H1345 H 0.71686 0.54171 0.71997 0.0
H1346 H 0.68878 0.51011 0.71177 0.0
H1347 H 0.67312 0.614 0.70857 0.0
H1348 H 0.70485 0.62145 0.71725 0.0
H1349 H 0.69319 0.61069 0.69249 0.0
H1350 H 0.78094 0.62592 0.72612 0.0
H1351 H 0.75323 0.60074 0.66645 0.0
H1352 H 0.72665 0.57984 0.74252 0.0
H1353 H 0.72283 0.60724 0.74194 0.0
H1354 H 0.75402 0.61228 0.7493 0.0
H1355 H 0.69296 0.54853 0.66992 0.0
H1356 H 0.7102 0.57124 0.65458 0.0
H1357 H 0.68908 0.57582 0.66884 0.0
C1358 C 0.44638 0.09352 0.73839 0.0
C1359 C 0.47269 0.10695 0.73734 0.0
C1360 C 0.43089 0.1031 0.73243 0.0
C1361 C 0.44197 0.12675 0.72531 0.0
C1362 C 0.46848 0.14034 0.72408 0.0
C1363 C 0.48353 0.13024 0.73006 0.0
C1364 C 0.40265 0.08796 0.73384 0.0
C1365 C 0.48097 0.16565 0.71658 0.0
C1366 C 0.39795 0.13945 0.69451 0.0
C1367 C 0.39383 0.15585 0.70747 0.0
C1368 C 0.41369 0.12999 0.7001 0.0
C1369 C 0.42574 0.13717 0.7191 0.0
C1370 C 0.42182 0.15382 0.73224 0.0
C1371 C 0.40586 0.16291 0.72628 0.0
C1372 C 0.41727 0.11213 0.68571 0.0
C1373 C 0.43439 0.16194 0.75261 0.0
H1374 H 0.43781 0.07549 0.74395 0.0
H1375 H 0.50385 0.14076 0.72924 0.0
H1376 H 0.3975 0.1001 0.7432 0.0
H1377 H 0.39135 0.08287 0.71966 0.0
H1378 H 0.39696 0.06975 0.73953 0.0
H1379 H 0.50179 0.17379 0.7165 0.0
H1380 H 0.47183 0.16268 0.70193 0.0
H1381 H 0.47819 0.18018 0.72539 0.0
H1382 H 0.38872 0.1338 0.67995 0.0
H1383 H 0.40288 0.17562 0.73639 0.0
H1384 H 0.41042 0.09311 0.69038 0.0
H1385 H 0.43788 0.12053 0.68458 0.0
H1386 H 0.40682 0.10868 0.67143 0.0
H1387 H 0.42808 0.14453 0.75944 0.0
H1388 H 0.42982 0.17542 0.76096 0.0
H1389 H 0.45546 0.17163 0.75322 0.0
C1390 C 0.87179 0.34878 0.73006 0.0
C1391 C 0.88777 0.36961 0.72124 0.0
C1392 C 0.86488 0.32322 0.72268 0.0
C1393 C 0.87421 0.31835 0.70609 0.0
C1394 C 0.8897 0.33916 0.69677 0.0
C1395 C 0.89627 0.36457 0.70445 0.0
C1396 C 0.84819 0.30152 0.73296 0.0
C1397 C 0.89995 0.33467 0.67903 0.0
C1398 C 0.87863 0.25748 0.70049 0.0
C1399 C 0.85631 0.23977 0.68795 0.0
C1400 C 0.885 0.28331 0.70612 0.0
C1401 C 0.86864 0.29162 0.69907 0.0
C1402 C 0.84638 0.27402 0.68609 0.0
C1403 C 0.84048 0.2483 0.68067 0.0
C1404 C 0.90896 0.30155 0.71996 0.0
C1405 C 0.82847 0.28219 0.6783 0.0
H1406 H 0.86501 0.35246 0.74298 0.0
H1407 H 0.9086 0.38057 0.69755 0.0
H1408 H 0.83126 0.28592 0.72308 0.0
H1409 H 0.859 0.29274 0.73831 0.0
H1410 H 0.84148 0.30837 0.74513 0.0
H1411 H 0.91046 0.35264 0.67287 0.0
H1412 H 0.91309 0.32754 0.68231 0.0
H1413 H 0.88409 0.31944 0.6682 0.0
H1414 H 0.89102 0.25111 0.70614 0.0
H1415 H 0.82322 0.23478 0.67094 0.0
H1416 H 0.90381 0.30778 0.73331 0.0
H1417 H 0.92122 0.31932 0.71407 0.0
H1418 H 0.92027 0.29242 0.7234 0.0
H1419 H 0.82001 0.28742 0.69001 0.0
H1420 H 0.8127 0.26658 0.66755 0.0
H1421 H 0.83913 0.29973 0.67174 0.0
C1422 C 0.19399 0.98316 0.65836 0.0
C1423 C 0.20511 0.9684 0.65284 0.0
C1424 C 0.20922 0.01 0.66525 0.0
C1425 C 0.23616 0.02233 0.66658 0.0
C1426 C 0.24749 0.00731 0.66188 0.0
C1427 C 0.23184 0.98054 0.65512 0.0
C1428 C 0.19646 0.02534 0.67032 0.0
C1429 C 0.27615 0.01972 0.66311 0.0
C1430 C 0.2754 0.09295 0.66077 0.0
C1431 C 0.28717 0.10542 0.67939 0.0
C1432 C 0.2582 0.06603 0.65654 0.0
C1433 C 0.25248 0.05117 0.67129 0.0
C1434 C 0.26357 0.06371 0.69022 0.0
C1435 C 0.28086 0.0907 0.69404 0.0
C1436 C 0.24681 0.05339 0.63616 0.0
C1437 C 0.25777 0.04852 0.70633 0.0
H1438 H 0.17335 0.97392 0.65675 0.0
H1439 H 0.24063 0.96929 0.65102 0.0
H1440 H 0.20533 0.03785 0.68444 0.0
H1441 H 0.19918 0.03835 0.65986 0.0
H1442 H 0.17562 0.01254 0.67047 0.0
H1443 H 0.28201 0.00508 0.66026 0.0
H1444 H 0.28321 0.03304 0.65265 0.0
H1445 H 0.28567 0.03153 0.67736 0.0
H1446 H 0.28006 0.10411 0.64934 0.0
H1447 H 0.28975 0.10017 0.70849 0.0
H1448 H 0.22565 0.04184 0.63483 0.0
H1449 H 0.25334 0.03976 0.63141 0.0
H1450 H 0.25227 0.06784 0.62648 0.0
H1451 H 0.2368 0.0362 0.70601 0.0
H1452 H 0.26622 0.0614 0.72038 0.0
H1453 H 0.26547 0.03532 0.70473 0.0
C1454 C 0.00146 0.18591 0.6157 0.0
C1455 C 0.0235 0.21035 0.62212 0.0
C1456 C 0.9784 0.1791 0.62278 0.0
C1457 C 0.97729 0.19723 0.63652 0.0
C1458 C -0.00041 0.22172 0.64335 0.0
C1459 C 0.02245 0.22795 0.63613 0.0
C1460 C 0.95507 0.1527 0.61527 0.0
C1461 C -0.00085 0.24161 0.65795 0.0
C1462 C 0.91273 0.19104 0.64009 0.0
C1463 C 0.90586 0.1793 0.65619 0.0
C1464 C 0.93591 0.19696 0.63355 0.0
C1465 C 0.95261 0.19092 0.64329 0.0
C1466 C 0.94576 0.17894 0.65947 0.0
C1467 C 0.9225 0.17333 0.66575 0.0
C1468 C 0.94255 0.20978 0.61624 0.0
C1469 C 0.963 0.17204 0.67014 0.0
H1470 H 0.0021 0.17214 0.60494 0.0
H1471 H 0.03936 0.2469 0.64115 0.0
H1472 H 0.94699 0.14237 0.62716 0.0
H1473 H 0.94008 0.15505 0.6078 0.0
H1474 H 0.9594 0.14037 0.60529 0.0
H1475 H 0.01831 0.2594 0.66227 0.0
H1476 H 0.98574 0.24728 0.65216 0.0
H1477 H 0.99208 0.23312 0.67074 0.0
H1478 H 0.90002 0.1957 0.63256 0.0
H1479 H 0.91737 0.16417 0.67817 0.0
H1480 H 0.94539 0.19745 0.6051 0.0
H1481 H 0.96079 0.22871 0.61989 0.0
H1482 H 0.92747 0.21318 0.61028 0.0
H1483 H 0.96646 0.15871 0.66049 0.0
H1484 H 0.95478 0.16256 0.68236 0.0
H1485 H 0.98184 0.18983 0.67546 0.0
C1486 C 0.81489 0.81849 0.65517 0.0
C1487 C 0.78906 0.811 0.65462 0.0
C1488 C 0.82316 0.8012 0.65846 0.0
C1489 C 0.80512 0.77575 0.66106 0.0
C1490 C 0.779 0.76801 0.66037 0.0
C1491 C 0.7713 0.78578 0.65727 0.0
C1492 C 0.85122 0.81023 0.65931 0.0
C1493 C 0.75917 0.74094 0.66292 0.0
C1494 C 0.82187 0.7229 0.65356 0.0
C1495 C 0.82798 0.72109 0.67228 0.0
C1496 C 0.81455 0.74073 0.64967 0.0
C1497 C 0.8136 0.75731 0.66487 0.0
C1498 C 0.82024 0.75594 0.68377 0.0
C1499 C 0.82721 0.73777 0.68725 0.0
C1500 C 0.80738 0.74149 0.62933 0.0
C1501 C 0.81975 0.77352 0.70034 0.0
H1502 H 0.82873 0.83796 0.65316 0.0
H1503 H 0.75129 0.77981 0.65676 0.0
H1504 H 0.85868 0.8088 0.67334 0.0
H1505 H 0.85393 0.79747 0.64846 0.0
H1506 H 0.86279 0.83063 0.65694 0.0
H1507 H 0.73954 0.73778 0.66152 0.0
H1508 H 0.75948 0.72628 0.65224 0.0
H1509 H 0.76367 0.73743 0.6771 0.0
H1510 H 0.82233 0.71003 0.64191 0.0
H1511 H 0.83207 0.73664 0.70176 0.0
H1512 H 0.81947 0.76137 0.62621 0.0
H1513 H 0.78723 0.73668 0.627 0.0
H1514 H 0.80956 0.72762 0.61914 0.0
H1515 H 0.8321 0.79418 0.69889 0.0
H1516 H 0.82635 0.77065 0.71415 0.0
H1517 H 0.80004 0.76978 0.70049 0.0
C1518 C 0.03108 0.79523 0.64927 0.0
C1519 C 0.02945 0.81158 0.63759 0.0
C1520 C 0.0094 0.77678 0.65616 0.0
C1521 C 0.98551 0.77462 0.65125 0.0
C1522 C 0.98374 0.79111 0.63952 0.0
C1523 C 0.00572 0.8094 0.63284 0.0
C1524 C 0.01203 0.75952 0.66863 0.0
C1525 C 0.95857 0.78933 0.63393 0.0
C1526 C 0.92463 0.71135 0.65354 0.0
C1527 C 0.91723 0.71765 0.67054 0.0
C1528 C 0.94688 0.72964 0.64719 0.0
C1529 C 0.96226 0.75483 0.65813 0.0
C1530 C 0.95516 0.76121 0.67544 0.0
C1531 C 0.9327 0.74256 0.68142 0.0
C1532 C 0.95372 0.72211 0.62859 0.0
C1533 C 0.97111 0.78788 0.6875 0.0
H1534 H 0.04933 0.79679 0.65303 0.0
H1535 H 0.00427 0.82195 0.62383 0.0
H1536 H 0.00553 0.76188 0.68241 0.0
H1537 H -0.00036 0.73882 0.66186 0.0
H1538 H 0.03203 0.7639 0.67137 0.0
H1539 H 0.96047 0.80376 0.62488 0.0
H1540 H 0.94446 0.76956 0.62611 0.0
H1541 H 0.95069 0.79256 0.64679 0.0
H1542 H 0.9128 0.69219 0.64498 0.0
H1543 H 0.92716 0.74763 0.69456 0.0
H1544 H 0.97309 0.72477 0.63083 0.0
H1545 H 0.95422 0.73498 0.61857 0.0
H1546 H 0.9399 0.70161 0.6219 0.0
H1547 H 0.991 0.79238 0.69117 0.0
H1548 H 0.96334 0.78954 0.70083 0.0
H1549 H 0.97198 0.80282 0.67942 0.0
C1550 C 0.21488 0.2446 0.64383 0.0
C1551 C 0.19285 0.22392 0.63247 0.0
C1552 C 0.23475 0.24126 0.65106 0.0
C1553 C 0.23249 0.21662 0.64692 0.0
C1554 C 0.2103 0.19565 0.63548 0.0
C1555 C 0.19078 0.19957 0.62836 0.0
C1556 C 0.25817 0.2641 0.66314 0.0
C1557 C 0.20713 0.16904 0.63083 0.0
C1558 C 0.2923 0.21182 0.65169 0.0
C1559 C 0.2917 0.20373 0.66931 0.0
C1560 C 0.2733 0.21633 0.64431 0.0
C1561 C 0.25318 0.21263 0.65476 0.0
C1562 C 0.2526 0.20473 0.67262 0.0
C1563 C 0.27186 0.20042 0.67968 0.0
C1564 C 0.27463 0.22482 0.62524 0.0
C1565 C 0.23141 0.20047 0.68416 0.0
H1566 H 0.21668 0.2635 0.64703 0.0
H1567 H 0.17384 0.18348 0.6196 0.0
H1568 H 0.2605 0.25952 0.67739 0.0
H1569 H 0.27552 0.26798 0.6567 0.0
H1570 H 0.25713 0.28208 0.66484 0.0
H1571 H 0.18876 0.15482 0.62169 0.0
H1572 H 0.22305 0.17033 0.62348 0.0
H1573 H 0.20793 0.16154 0.64409 0.0
H1574 H 0.3075 0.21443 0.64354 0.0
H1575 H 0.27115 0.19415 0.69328 0.0
H1576 H 0.27502 0.24353 0.62659 0.0
H1577 H 0.2573 0.21025 0.61522 0.0
H1578 H 0.29175 0.22726 0.61905 0.0
H1579 H 0.23063 0.21851 0.68703 0.0
H1580 H 0.23393 0.19468 0.6979 0.0
H1581 H 0.21271 0.18507 0.67604 0.0
C1582 C 0.81843 0.97662 0.65212 0.0
C1583 C 0.79407 0.95548 0.6445 0.0
C1584 C 0.82256 0.00183 0.65664 0.0
C1585 C 0.80184 0.00593 0.65352 0.0
C1586 C 0.77707 0.98455 0.64645 0.0
C1587 C 0.77349 0.95959 0.64202 0.0
C1588 C 0.84924 0.02418 0.66422 0.0
C1589 C 0.75447 0.98814 0.64304 0.0
C1590 C 0.8087 0.06889 0.67789 0.0
C1591 C 0.81507 0.0838 0.66335 0.0
C1592 C 0.80425 0.04348 0.67489 0.0
C1593 C 0.80624 0.03273 0.65693 0.0
C1594 C 0.81243 0.04756 0.64214 0.0
C1595 C 0.81675 0.07291 0.64552 0.0
C1596 C 0.79759 0.0282 0.69096 0.0
C1597 C 0.81469 0.03672 0.62278 0.0
H1598 H 0.83442 0.97361 0.6541 0.0
H1599 H 0.75458 0.94335 0.63622 0.0
H1600 H 0.85609 0.0379 0.65401 0.0
H1601 H 0.84917 0.03515 0.67772 0.0
H1602 H 0.86302 0.01757 0.66672 0.0
H1603 H 0.73624 0.96934 0.63843 0.0
H1604 H 0.75263 -0.00154 0.65614 0.0
H1605 H 0.75749 0.00037 0.63196 0.0
H1606 H 0.80736 0.07712 0.69172 0.0
H1607 H 0.82169 0.08428 0.63422 0.0
H1608 H 0.81213 0.02283 0.69431 0.0
H1609 H 0.77892 0.00982 0.68671 0.0
H1610 H 0.79652 0.03927 0.70402 0.0
H1611 H 0.8297 0.03152 0.62399 0.0
H1612 H 0.81952 0.05072 0.61279 0.0
H1613 H 0.79643 0.01864 0.61667 0.0
C1614 C 0.51488 0.36298 0.74043 0.0
C1615 C 0.52136 0.38356 0.73042 0.0
C1616 C 0.4931 0.3384 0.73391 0.0
C1617 C 0.47734 0.3343 0.717 0.0
C1618 C 0.48409 0.35478 0.70656 0.0
C1619 C 0.50608 0.37918 0.71337 0.0
C1620 C 0.48667 0.31697 0.74535 0.0
C1621 C 0.46772 0.35111 0.68847 0.0
C1622 C 0.43168 0.26415 0.69358 0.0
C1623 C 0.40889 0.25904 0.70047 0.0
C1624 C 0.45398 0.28872 0.69852 0.0
C1625 C 0.45347 0.30871 0.71058 0.0
C1626 C 0.4304 0.30388 0.71722 0.0
C1627 C 0.40839 0.27908 0.71211 0.0
C1628 C 0.47824 0.29311 0.6912 0.0
C1629 C 0.42909 0.32476 0.73005 0.0
H1630 H 0.52663 0.36615 0.75356 0.0
H1631 H 0.51093 0.39499 0.70557 0.0
H1632 H 0.46805 0.31096 0.75046 0.0
H1633 H 0.48468 0.29963 0.73634 0.0
H1634 H 0.50143 0.32303 0.7578 0.0
H1635 H 0.47615 0.36865 0.68163 0.0
H1636 H 0.46509 0.33436 0.67828 0.0
H1637 H 0.44847 0.3466 0.69152 0.0
H1638 H 0.43227 0.2488 0.68455 0.0
H1639 H 0.39085 0.27534 0.71744 0.0
H1640 H 0.4929 0.29747 0.70326 0.0
H1641 H 0.48611 0.31016 0.68387 0.0
H1642 H 0.47515 0.27594 0.68123 0.0
H1643 H 0.44189 0.33047 0.74361 0.0
H1644 H 0.40942 0.31827 0.73323 0.0
H1645 H 0.4359 0.34238 0.72341 0.0
C1646 C 0.6521 0.09605 0.72243 0.0
C1647 C 0.64873 0.11657 0.72973 0.0
C1648 C 0.67472 0.10088 0.71535 0.0
C1649 C 0.69425 0.12684 0.71527 0.0
C1650 C 0.69083 0.14763 0.72242 0.0
C1651 C 0.66821 0.14225 0.72972 0.0
C1652 C 0.67784 0.07823 0.70815 0.0
C1653 C 0.71106 0.17555 0.72232 0.0
C1654 C 0.76247 0.14243 0.71353 0.0
C1655 C 0.76456 0.14332 0.69424 0.0
C1656 C 0.73962 0.13678 0.72051 0.0
C1657 C 0.71842 0.1323 0.70795 0.0
C1658 C 0.7204 0.1332 0.68847 0.0
C1659 C 0.74339 0.13848 0.68181 0.0
C1660 C 0.73818 0.1356 0.74133 0.0
C1661 C 0.69834 0.12891 0.6747 0.0
H1662 H 0.63718 0.07616 0.72248 0.0
H1663 H 0.66567 0.15819 0.73523 0.0
H1664 H 0.68095 0.07821 0.6931 0.0
H1665 H 0.69496 0.08019 0.71631 0.0
H1666 H 0.66092 0.05922 0.70931 0.0
H1667 H 0.70514 0.18942 0.72788 0.0
H1668 H 0.72906 0.18052 0.73108 0.0
H1669 H 0.71533 0.17822 0.70768 0.0
H1670 H 0.77866 0.14591 0.7232 0.0
H1671 H 0.74493 0.13929 0.66691 0.0
H1672 H 0.72229 0.1163 0.7431 0.0
H1673 H 0.73406 0.15043 0.74793 0.0
H1674 H 0.75621 0.13899 0.74911 0.0
H1675 H 0.68141 0.10941 0.67459 0.0
H1676 H 0.70301 0.13043 0.66003 0.0
H1677 H 0.69287 0.14346 0.67927 0.0
C1678 C 0.8492 0.50284 0.72741 0.0
C1679 C 0.87022 0.50058 0.72332 0.0
C1680 C 0.84613 0.52279 0.7219 0.0
C1681 C 0.86443 0.54081 0.71198 0.0
C1682 C 0.88548 0.53841 0.70756 0.0
C1683 C 0.88816 0.51836 0.71333 0.0
C1684 C 0.82349 0.5248 0.72694 0.0
C1685 C 0.90529 0.55718 0.69689 0.0
C1686 C 0.84494 0.57959 0.68427 0.0
C1687 C 0.85616 0.60346 0.69668 0.0
C1688 C 0.84769 0.5591 0.68898 0.0
C1689 C 0.86181 0.5625 0.70658 0.0
C1690 C 0.87321 0.58655 0.71915 0.0
C1691 C 0.87033 0.60677 0.71401 0.0
C1692 C 0.83539 0.53377 0.67517 0.0
C1693 C 0.88824 0.59085 0.73811 0.0
H1694 H 0.83527 0.48921 0.73515 0.0
H1695 H 0.90442 0.51671 0.71008 0.0
H1696 H 0.83024 0.54377 0.73615 0.0
H1697 H 0.81214 0.52405 0.71393 0.0
H1698 H 0.81076 0.50899 0.73444 0.0
H1699 H 0.9201 0.55218 0.69407 0.0
H1700 H 0.89597 0.55735 0.68317 0.0
H1701 H 0.91486 0.57719 0.70515 0.0
H1702 H 0.83402 0.57688 0.67083 0.0
H1703 H 0.87894 0.62509 0.72375 0.0
H1704 H 0.82131 0.51772 0.68182 0.0
H1705 H 0.85008 0.529 0.67146 0.0
H1706 H 0.82547 0.53443 0.66192 0.0
H1707 H 0.8759 0.57646 0.7467 0.0
H1708 H 0.89589 0.61071 0.74625 0.0
H1709 H 0.90446 0.58784 0.73605 0.0
C1710 C 0.46451 0.94239 0.21455 0.0
C1711 C 0.4704 0.92481 0.2213 0.0
C1712 C 0.47524 0.95435 0.19921 0.0
C1713 C 0.49223 0.94857 0.19033 0.0
C1714 C 0.4987 0.93127 0.19728 0.0
C1715 C 0.48774 0.91963 0.21271 0.0
C1716 C 0.46797 0.9728 0.19228 0.0
C1717 C 0.51672 0.92461 0.18813 0.0
C1718 C 0.49703 0.95841 0.13917 0.0
C1719 C 0.51955 0.98273 0.14102 0.0
C1720 C 0.4883 0.9468 0.15506 0.0
C1721 C 0.50234 0.95986 0.17328 0.0
C1722 C 0.52534 0.98417 0.17523 0.0
C1723 C 0.53368 -0.00469 0.15907 0.0
C1724 C 0.46367 0.92085 0.15239 0.0
C1725 C 0.54083 -0.00134 0.19443 0.0
H1726 H 0.45124 0.94663 0.22113 0.0
H1727 H 0.49243 0.9061 0.21781 0.0
H1728 H 0.48539 0.99185 0.19211 0.0
H1729 H 0.45793 0.96491 0.17752 0.0
H1730 H 0.45533 0.97607 0.20123 0.0
H1731 H 0.52073 0.91177 0.19577 0.0
H1732 H 0.50835 0.91465 0.17328 0.0
H1733 H 0.53508 0.94263 0.18766 0.0
H1734 H 0.48578 0.94874 0.12533 0.0
H1735 H 0.55127 0.01394 0.16058 0.0
H1736 H 0.4492 0.92306 0.15964 0.0
H1737 H 0.46681 0.90672 0.15893 0.0
H1738 H 0.45574 0.91261 0.1372 0.0
H1739 H 0.52938 0.00376 0.20344 0.0
H1740 H 0.55884 0.01681 0.19345 0.0
H1741 H 0.54565 0.98609 0.20169 0.0
C1742 C 0.02791 0.48535 0.24746 0.0
C1743 C 0.00811 0.46485 0.25442 0.0
C1744 C 0.0247 0.48952 0.22891 0.0
C1745 C 0.00129 0.47245 0.21692 0.0
C1746 C 0.98151 0.45121 0.22367 0.0
C1747 C 0.98517 0.44766 0.24234 0.0
C1748 C 0.04629 0.51235 0.22222 0.0
C1749 C 0.95634 0.43248 0.21125 0.0
C1750 C 0.98348 0.49804 0.17631 0.0
C1751 C 0.99048 0.48766 0.16086 0.0
C1752 C 0.98684 0.49317 0.19458 0.0
C1753 C 0.99723 0.47731 0.19751 0.0
C1754 C 0.00396 0.46641 0.18197 0.0
C1755 C 0.00058 0.47178 0.16384 0.0
C1756 C 0.97946 0.50518 0.2108 0.0
C1757 C 0.01498 0.44929 0.18454 0.0
H1758 H 0.04609 0.49794 0.25639 0.0
H1759 H 0.96987 0.43163 0.2476 0.0
H1760 H 0.052 0.50545 0.20947 0.0
H1761 H 0.03981 0.52552 0.21809 0.0
H1762 H 0.06334 0.5237 0.23327 0.0
H1763 H 0.94329 0.41637 0.21839 0.0
H1764 H 0.94666 0.44299 0.20727 0.0
H1765 H 0.95967 0.42403 0.19793 0.0
H1766 H 0.97522 0.50993 0.1741 0.0
H1767 H 0.0063 0.46391 0.15204 0.0
H1768 H 0.99639 0.5178 0.22173 0.0
H1769 H 0.96494 0.48972 0.21764 0.0
H1770 H 0.97159 0.51702 0.20614 0.0
H1771 H 0.0333 0.46043 0.19431 0.0
H1772 H 0.0185 0.44168 0.17092 0.0
H1773 H 0.00177 0.43259 0.19108 0.0
C1774 C 0.45339 0.49117 0.21476 0.0
C1775 C 0.43554 0.49925 0.21593 0.0
C1776 C 0.45928 0.48456 0.19719 0.0
C1777 C 0.44681 0.48577 0.18038 0.0
C1778 C 0.42752 0.49217 0.18138 0.0
C1779 C 0.42219 0.49897 0.19917 0.0
C1780 C 0.48003 0.47791 0.19671 0.0
C1781 C 0.41351 0.49325 0.16372 0.0
C1782 C 0.4844 0.50267 0.13905 0.0
C1783 C 0.47433 0.47821 0.12773 0.0
C1784 C 0.4755 0.50534 0.15618 0.0
C1785 C 0.45583 0.48301 0.16201 0.0
C1786 C 0.44536 0.45827 0.15053 0.0
C1787 C 0.45489 0.45614 0.13355 0.0
C1788 C 0.48736 0.53203 0.16815 0.0
C1789 C 0.42415 0.43412 0.15619 0.0
H1790 H 0.46375 0.49123 0.22762 0.0
H1791 H 0.40821 0.50497 0.19993 0.0
H1792 H 0.47344 0.45979 0.18647 0.0
H1793 H 0.49694 0.49372 0.19187 0.0
H1794 H 0.48613 0.47539 0.21083 0.0
H1795 H 0.39694 0.49528 0.16674 0.0
H1796 H 0.42679 0.51009 0.15732 0.0
H1797 H 0.40662 0.47545 0.15303 0.0
H1798 H 0.4996 0.51971 0.13463 0.0
H1799 H 0.44692 0.43725 0.12467 0.0
H1800 H 0.4959 0.53214 0.1823 0.0
H1801 H 0.47245 0.53704 0.17041 0.0
H1802 H 0.50247 0.54738 0.16156 0.0
H1803 H 0.43071 0.43108 0.16991 0.0
H1804 H 0.41767 0.41645 0.14544 0.0
H1805 H 0.40757 0.43654 0.15824 0.0
C1806 C 0.92001 0.47862 0.81567 0.0
C1807 C 0.936 0.4795 0.80223 0.0
C1808 C 0.92884 0.48446 0.83515 0.0
C1809 C 0.95417 0.49106 0.84133 0.0
C1810 C 0.97067 0.49284 0.82786 0.0
C1811 C 0.96143 0.48717 0.80847 0.0
C1812 C 0.91081 0.48273 0.84912 0.0
C1813 C 0.99778 0.49968 0.8339 0.0
C1814 C 0.9848 0.52263 0.89229 0.0
C1815 C 0.98135 0.50118 0.9003 0.0
C1816 C 0.97563 0.5196 0.87318 0.0
C1817 C 0.96299 0.49457 0.86181 0.0
C1818 C 0.95927 0.47282 0.86989 0.0
C1819 C 0.96839 0.47638 0.88907 0.0
C1820 C 0.97963 0.54316 0.86511 0.0
C1821 C 0.9461 0.44585 0.85817 0.0
H1822 H 0.90038 0.47287 0.81097 0.0
H1823 H 0.97392 0.48788 0.79819 0.0
H1824 H 0.90659 0.46644 0.85683 0.0
H1825 H 0.91983 0.50083 0.85982 0.0
H1826 H 0.89246 0.4795 0.84208 0.0
H1827 H 0.00857 0.5016 0.82171 0.0
H1828 H 0.00815 0.51822 0.84415 0.0
H1829 H 0.99758 0.48436 0.8412 0.0
H1830 H 0.99459 0.54179 0.90102 0.0
H1831 H 0.96595 0.45983 0.8952 0.0
H1832 H 0.96102 0.53994 0.85872 0.0
H1833 H 0.9917 0.54632 0.85365 0.0
H1834 H 0.98897 0.56109 0.87602 0.0
H1835 H 0.92665 0.4403 0.85175 0.0
H1836 H 0.94443 0.43097 0.86667 0.0
H1837 H 0.9569 0.4456 0.84637 0.0
C1838 C 0.54572 0.51462 0.79522 0.0
C1839 C 0.56662 0.51123 0.79335 0.0
C1840 C 0.53786 0.51662 0.81296 0.0
C1841 C 0.55158 0.51575 0.82924 0.0
C1842 C 0.574 0.51464 0.82766 0.0
C1843 C 0.58112 0.51211 0.80968 0.0
C1844 C 0.51367 0.51745 0.814 0.0
C1845 C 0.58951 0.51435 0.84476 0.0
C1846 C 0.53453 0.5301 0.87748 0.0
C1847 C 0.51852 0.50489 0.88101 0.0
C1848 C 0.54588 0.53408 0.86081 0.0
C1849 C 0.54053 0.51231 0.84728 0.0
C1850 C 0.52415 0.48683 0.85078 0.0
C1851 C 0.51356 0.48346 0.86768 0.0
C1852 C 0.56366 0.56149 0.85773 0.0
C1853 C 0.51758 0.46308 0.83657 0.0
H1854 H 0.5344 0.51394 0.78266 0.0
H1855 H 0.59746 0.50979 0.80835 0.0
H1856 H 0.49833 0.49855 0.81692 0.0
H1857 H 0.51658 0.53274 0.82576 0.0
H1858 H 0.507 0.52116 0.80059 0.0
H1859 H 0.60841 0.51765 0.84167 0.0
H1860 H 0.59257 0.52945 0.85675 0.0
H1861 H 0.57893 0.49521 0.84941 0.0
H1862 H 0.53846 0.54664 0.8879 0.0
H1863 H 0.50096 0.46397 0.87038 0.0
H1864 H 0.55609 0.56504 0.84467 0.0
H1865 H 0.58263 0.56416 0.85567 0.0
H1866 H 0.56626 0.57628 0.86982 0.0
H1867 H 0.50883 0.46372 0.82276 0.0
H1868 H 0.50409 0.44467 0.8413 0.0
H1869 H 0.53521 0.46284 0.83415 0.0
C1870 C 0.57392 0.06334 0.81557 0.0
C1871 C 0.55258 0.06152 0.8053 0.0
C1872 C 0.5718 0.05287 0.83232 0.0
C1873 C 0.54777 0.04024 0.83887 0.0
C1874 C 0.52613 0.038 0.8284 0.0
C1875 C 0.5288 0.04868 0.8118 0.0
C1876 C 0.59529 0.05566 0.84317 0.0
C1877 C 0.50013 0.02456 0.83485 0.0
C1878 C 0.5322 -0.00704 0.87334 0.0
C1879 C 0.53345 0.00807 0.89024 0.0
C1880 C 0.53792 0.00349 0.85665 0.0
C1881 C 0.54508 0.02978 0.85689 0.0
C1882 C 0.54739 0.04542 0.87407 0.0
C1883 C 0.5415 0.03437 0.89053 0.0
C1884 C 0.53531 0.98621 0.83861 0.0
C1885 C 0.55497 0.07354 0.8749 0.0
H1886 H 0.59236 0.07324 0.81066 0.0
H1887 H 0.51215 0.04703 0.80394 0.0
H1888 H 0.59946 0.06728 0.85749 0.0
H1889 H 0.59187 0.03627 0.84515 0.0
H1890 H 0.61239 0.06527 0.83588 0.0
H1891 H 0.48511 0.02395 0.82485 0.0
H1892 H 0.49443 0.00434 0.83633 0.0
H1893 H 0.50091 0.03481 0.84898 0.0
H1894 H 0.52642 0.97274 0.8731 0.0
H1895 H 0.54227 0.04612 0.90347 0.0
H1896 H 0.55285 -0.00433 0.83182 0.0
H1897 H 0.51918 0.98312 0.82843 0.0
H1898 H 0.53174 0.96693 0.84115 0.0
H1899 H 0.57264 0.0841 0.86844 0.0
H1900 H 0.55821 0.08367 0.88965 0.0
H1901 H 0.53966 0.0746 0.86661 0.0
C1902 C 0.16233 0.27182 0.54629 0.0
C1903 C 0.14637 0.27804 0.55601 0.0
C1904 C 0.1709 0.28172 0.52976 0.0
C1905 C 0.16351 0.29839 0.52286 0.0
C1906 C 0.14776 0.30507 0.53276 0.0
C1907 C 0.13931 0.29474 0.54916 0.0
C1908 C 0.18754 0.27403 0.5195 0.0
C1909 C 0.13964 0.32296 0.52593 0.0
C1910 C 0.20197 0.34166 0.48868 0.0
C1911 C 0.1865 0.32792 0.47123 0.0
C1912 C 0.19482 0.33222 0.5056 0.0
C1913 C 0.17172 0.30839 0.50504 0.0
C1914 C 0.15613 0.2943 0.48747 0.0
C1915 C 0.16365 0.30429 0.4708 0.0
C1916 C 0.21188 0.34782 0.5241 0.0
C1917 C 0.13137 0.2688 0.48628 0.0
H1918 H 0.16785 0.25889 0.55145 0.0
H1919 H 0.1271 0.29977 0.55661 0.0
H1920 H 0.17778 0.26357 0.50496 0.0
H1921 H 0.20574 0.29164 0.51808 0.0
H1922 H 0.19202 0.26132 0.52692 0.0
H1923 H 0.12797 0.32685 0.53556 0.0
H1924 H 0.15672 0.34177 0.52472 0.0
H1925 H 0.12829 0.31422 0.51161 0.0
H1926 H 0.21982 0.35976 0.48912 0.0
H1927 H 0.15136 0.29375 0.45743 0.0
H1928 H 0.21783 0.33592 0.53118 0.0
H1929 H 0.2012 0.35317 0.53379 0.0
H1930 H 0.22929 0.3659 0.5221 0.0
H1931 H 0.13497 0.25487 0.4927 0.0
H1932 H 0.12185 0.25985 0.47145 0.0
H1933 H 0.11804 0.27188 0.49447 0.0
C1934 C 0.75076 0.84232 0.56076 0.0
C1935 C 0.73869 0.84172 0.57683 0.0
C1936 C 0.73746 0.83618 0.54247 0.0
C1937 C 0.71156 0.82947 0.54024 0.0
C1938 C 0.69896 0.82772 0.55634 0.0
C1939 C 0.71265 0.83376 0.57446 0.0
C1940 C 0.75144 0.83795 0.52559 0.0
C1941 C 0.67135 0.82067 0.55451 0.0
C1942 C 0.68739 0.8449 0.49651 0.0
C1943 C 0.67328 0.82035 0.48497 0.0
C1944 C 0.6998 0.84806 0.51457 0.0
C1945 C 0.69821 0.82616 0.52119 0.0
C1946 C 0.68398 0.80131 0.50961 0.0
C1947 C 0.67158 0.79868 0.49164 0.0
C1948 C 0.71461 0.87486 0.52659 0.0
C1949 C 0.68206 0.77757 0.51614 0.0
H1950 H 0.77082 0.84828 0.56246 0.0
H1951 H 0.70315 0.83321 0.58679 0.0
H1952 H 0.74035 0.8199 0.5149 0.0
H1953 H 0.75347 0.8543 0.51873 0.0
H1954 H 0.7708 0.84112 0.52961 0.0
H1955 H 0.66382 0.81825 0.56828 0.0
H1956 H 0.66952 0.83616 0.54896 0.0
H1957 H 0.65923 0.80236 0.54425 0.0
H1958 H 0.6885 0.86163 0.49145 0.0
H1959 H 0.66092 0.77972 0.48264 0.0
H1960 H 0.73496 0.88068 0.52999 0.0
H1961 H 0.70697 0.87466 0.54022 0.0
H1962 H 0.71372 0.88979 0.51943 0.0
H1963 H 0.70143 0.78039 0.51908 0.0
H1964 H 0.6701 0.75962 0.50547 0.0
H1965 H 0.67374 0.77475 0.52957 0.0
C1966 C 0.15 0.85177 0.55815 0.0
C1967 C 0.12569 0.84496 0.56281 0.0
C1968 C 0.15327 0.84474 0.53968 0.0
C1969 C 0.1317 0.83041 0.52548 0.0
C1970 C 0.10697 0.82246 0.53022 0.0
C1971 C 0.10425 0.82988 0.54884 0.0
C1972 C 0.17998 0.8536 0.53521 0.0
C1973 C 0.0835 0.80697 0.51548 0.0
C1974 C 0.14541 0.84054 0.4754 0.0
C1975 C 0.14723 0.81886 0.46858 0.0
C1976 C 0.13959 0.84409 0.49369 0.0
C1977 C 0.13539 0.82545 0.50546 0.0
C1978 C 0.13641 0.8031 0.49846 0.0
C1979 C 0.14242 0.80012 0.48012 0.0
C1980 C 0.13885 0.86828 0.50066 0.0
C1981 C 0.13181 0.78269 0.51053 0.0
H1982 H 0.1667 0.8633 0.56883 0.0
H1983 H 0.08537 0.82443 0.5523 0.0
H1984 H 0.18102 0.8368 0.52827 0.0
H1985 H 0.18491 0.86747 0.52514 0.0
H1986 H 0.19456 0.86328 0.54808 0.0
H1987 H 0.06553 0.80024 0.52179 0.0
H1988 H 0.08393 0.81912 0.50488 0.0
H1989 H 0.08325 0.78978 0.50777 0.0
H1990 H 0.14941 0.85525 0.46665 0.0
H1991 H 0.1435 0.78316 0.47482 0.0
H1992 H 0.15436 0.88043 0.5127 0.0
H1993 H 0.12047 0.86297 0.50595 0.0
H1994 H 0.1412 0.88017 0.48942 0.0
H1995 H 0.14716 0.79117 0.52285 0.0
H1996 H 0.13137 0.76553 0.50251 0.0
H1997 H 0.11344 0.77607 0.51619 0.0
C1998 C 0.58608 0.80766 0.14333 0.0
C1999 C 0.60074 0.80466 0.1301 0.0
C2000 C 0.59538 0.81506 0.16277 0.0
C2001 C 0.61981 0.81933 0.16911 0.0
C2002 C 0.63514 0.81739 0.15579 0.0
C2003 C 0.62546 0.81019 0.13642 0.0
C2004 C 0.57862 0.81725 0.17656 0.0
C2005 C 0.66127 0.82172 0.16204 0.0
C2006 C 0.65208 0.85291 0.21949 0.0
C2007 C 0.64602 0.83157 0.22855 0.0
C2008 C 0.64336 0.84928 0.20018 0.0
C2009 C 0.62852 0.82372 0.18971 0.0
C2010 C 0.62227 0.80212 0.19882 0.0
C2011 C 0.63102 0.80632 0.21815 0.0
C2012 C 0.65014 0.87273 0.19096 0.0
C2013 C 0.60666 0.77457 0.18809 0.0
H2014 H 0.56704 0.80364 0.13855 0.0
H2015 H 0.63694 0.80797 0.12631 0.0
H2016 H 0.57255 0.80148 0.1851 0.0
H2017 H 0.58945 0.83601 0.18655 0.0
H2018 H 0.56125 0.81582 0.16927 0.0
H2019 H 0.67151 0.82135 0.14987 0.0
H2020 H 0.67315 0.84067 0.17167 0.0
H2021 H 0.65932 0.80634 0.17007 0.0
H2022 H 0.6635 0.87245 0.22757 0.0
H2023 H 0.62661 0.78981 0.22507 0.0
H2024 H 0.63248 0.87139 0.18439 0.0
H2025 H 0.66159 0.87326 0.17945 0.0
H2026 H 0.66123 0.89126 0.20121 0.0
H2027 H 0.58788 0.77074 0.18154 0.0
H2028 H 0.6033 0.75994 0.19733 0.0
H2029 H 0.61663 0.77183 0.17643 0.0
C2030 C 0.22015 0.88176 0.13847 0.0
C2031 C 0.22161 0.86332 0.12563 0.0
C2032 C 0.21166 0.87619 0.15597 0.0
C2033 C 0.20443 0.85154 0.16075 0.0
C2034 C 0.20651 0.83308 0.14807 0.0
C2035 C 0.21536 0.83932 0.13074 0.0
C2036 C 0.21 0.89651 0.1692 0.0
C2037 C 0.19907 0.80663 0.1527 0.0
C2038 C 0.20109 0.84578 0.21277 0.0
C2039 C 0.17499 0.83593 0.21373 0.0
C2040 C 0.2109 0.85054 0.19557 0.0
C2041 C 0.19417 0.84499 0.17885 0.0
C2042 C 0.1677 0.83424 0.17958 0.0
C2043 C 0.15846 0.83001 0.197 0.0
C2044 C 0.23926 0.86214 0.1954 0.0
C2045 C 0.14921 0.82784 0.16201 0.0
H2046 H 0.22514 0.90043 0.13465 0.0
H2047 H 0.21764 0.82549 0.12133 0.0
H2048 H 0.18983 0.88917 0.17135 0.0
H2049 H 0.22111 0.90053 0.18328 0.0
H2050 H 0.2173 0.91507 0.1637 0.0
H2051 H 0.20185 0.7945 0.14132 0.0
H2052 H 0.21054 0.80877 0.16612 0.0
H2053 H 0.17868 0.79617 0.15484 0.0
H2054 H 0.21395 0.84996 0.22553 0.0
H2055 H 0.13835 0.82273 0.19758 0.0
H2056 H 0.24752 0.88153 0.1911 0.0
H2057 H 0.24277 0.84974 0.18484 0.0
H2058 H 0.24954 0.8644 0.20947 0.0
H2059 H 0.15379 0.84594 0.15658 0.0
H2060 H 0.12903 0.81808 0.16473 0.0
H2061 H 0.15111 0.81498 0.15067 0.0
C2062 C 0.21286 0.41576 0.15849 0.0
C2063 C 0.2257 0.41206 0.144 0.0
C2064 C 0.20794 0.40179 0.1735 0.0
C2065 C 0.21607 0.38365 0.17414 0.0
C2066 C 0.2296 0.38024 0.15987 0.0
C2067 C 0.23425 0.39449 0.14493 0.0
C2068 C 0.19352 0.40608 0.18848 0.0
C2069 C 0.23865 0.36114 0.16016 0.0
C2070 C 0.21802 0.36392 0.22223 0.0
C2071 C 0.19417 0.3409 0.22029 0.0
C2072 C 0.22594 0.37748 0.20706 0.0
C2073 C 0.20958 0.36781 0.18953 0.0
C2074 C 0.18592 0.34406 0.18727 0.0
C2075 C 0.17851 0.33087 0.20267 0.0
C2076 C 0.25138 0.40264 0.21001 0.0
C2077 C 0.1679 0.33316 0.16882 0.0
H2078 H 0.20624 0.42934 0.15798 0.0
H2079 H 0.24419 0.39151 0.13383 0.0
H2080 H 0.17527 0.38772 0.18849 0.0
H2081 H 0.20483 0.41172 0.20273 0.0
H2082 H 0.18915 0.42143 0.1862 0.0
H2083 H 0.25006 0.36174 0.14858 0.0
H2084 H 0.25047 0.36528 0.17393 0.0
H2085 H 0.22195 0.34112 0.15869 0.0
H2086 H 0.2304 0.37152 0.23572 0.0
H2087 H 0.15999 0.31319 0.20113 0.0
H2088 H 0.24822 0.41911 0.20929 0.0
H2089 H 0.26271 0.40239 0.1986 0.0
H2090 H 0.26277 0.40633 0.22392 0.0
H2091 H 0.16075 0.34634 0.16619 0.0
H2092 H 0.15122 0.3135 0.16888 0.0
H2093 H 0.17808 0.33199 0.15684 0.0
C2094 C 0.80842 0.60964 0.88882 0.0
C2095 C 0.80248 0.5839 0.88842 0.0
C2096 C 0.81818 0.62264 0.87366 0.0
C2097 C 0.82176 0.60945 0.85759 0.0
C2098 C 0.81643 0.5837 0.85729 0.0
C2099 C 0.80703 0.57129 0.87278 0.0
C2100 C 0.824 0.65024 0.87463 0.0
C2101 C 0.81975 0.56892 0.84031 0.0
C2102 C 0.81803 0.63259 0.81122 0.0
C2103 C 0.84389 0.64747 0.80912 0.0
C2104 C 0.81059 0.61972 0.82675 0.0
C2105 C 0.82951 0.62207 0.84064 0.0
C2106 C 0.85567 0.63694 0.83853 0.0
C2107 C 0.86255 0.64933 0.82269 0.0
C2108 C 0.78248 0.60376 0.82834 0.0
C2109 C 0.87637 0.64014 0.85318 0.0
H2110 H 0.80517 0.61961 0.90092 0.0
H2111 H 0.80243 0.55138 0.87234 0.0
H2112 H 0.84372 0.66291 0.87161 0.0
H2113 H 0.81076 0.65087 0.86366 0.0
H2114 H 0.82205 0.6584 0.8887 0.0
H2115 H 0.81616 0.5496 0.84274 0.0
H2116 H 0.8063 0.56599 0.82783 0.0
H2117 H 0.83938 0.58027 0.83673 0.0
H2118 H 0.80357 0.63085 0.80059 0.0
H2119 H 0.88256 0.66097 0.82112 0.0
H2120 H 0.77837 0.61202 0.84136 0.0
H2121 H 0.77715 0.58355 0.82958 0.0
H2122 H 0.77017 0.60311 0.81596 0.0
H2123 H 0.87563 0.6498 0.86706 0.0
H2124 H 0.89577 0.65187 0.84923 0.0
H2125 H 0.87322 0.62083 0.85509 0.0
C2126 C 0.33553 0.14386 0.90519 0.0
C2127 C 0.33946 0.12337 0.90768 0.0
C2128 C 0.33512 0.151 0.88732 0.0
C2129 C 0.33863 0.13722 0.87156 0.0
C2130 C 0.34245 0.11639 0.87399 0.0
C2131 C 0.34264 0.10959 0.89202 0.0
C2132 C 0.33067 0.17311 0.88526 0.0
C2133 C 0.3464 0.10134 0.85756 0.0
C2134 C 0.31441 0.14029 0.82242 0.0
C2135 C 0.3368 0.15969 0.81695 0.0
C2136 C 0.31475 0.13264 0.84011 0.0
C2137 C 0.33811 0.14452 0.85253 0.0
C2138 C 0.36086 0.16378 0.84694 0.0
C2139 C 0.35991 0.17121 0.82924 0.0
C2140 C 0.29006 0.1122 0.84564 0.0
C2141 C 0.38616 0.1767 0.85972 0.0
H2142 H 0.33209 0.15389 0.91711 0.0
H2143 H 0.34556 0.09365 0.89393 0.0
H2144 H 0.34685 0.18842 0.87945 0.0
H2145 H 0.31314 0.16599 0.87508 0.0
H2146 H 0.32858 0.18203 0.89896 0.0
H2147 H 0.34944 0.08588 0.86187 0.0
H2148 H 0.32954 0.0922 0.84636 0.0
H2149 H 0.36321 0.11475 0.85118 0.0
H2150 H 0.29647 0.13155 0.81303 0.0
H2151 H 0.37731 0.186 0.82495 0.0
H2152 H 0.28577 0.12054 0.85853 0.0
H2153 H 0.29193 0.09576 0.84916 0.0
H2154 H 0.27363 0.1045 0.83421 0.0
H2155 H 0.38519 0.1872 0.87311 0.0
H2156 H 0.40222 0.19073 0.85301 0.0
H2157 H 0.39036 0.16178 0.86352 0.0
C2158 C 0.81962 0.17976 0.89207 0.0
C2159 C 0.79566 0.17552 0.89579 0.0
C2160 C 0.82377 0.17405 0.8736 0.0
C2161 C 0.80338 0.16351 0.85849 0.0
C2162 C 0.77876 0.15766 0.86229 0.0
C2163 C 0.77521 0.1639 0.8809 0.0
C2164 C 0.85037 0.18075 0.87013 0.0
C2165 C 0.75645 0.14596 0.84658 0.0
C2166 C 0.82279 0.18088 0.81077 0.0
C2167 C 0.82273 0.15878 0.80215 0.0
C2168 C 0.81597 0.18237 0.82894 0.0
C2169 C 0.80857 0.16108 0.83863 0.0
C2170 C 0.80767 0.13835 0.82975 0.0
C2171 C 0.81502 0.13757 0.81165 0.0
C2172 C 0.81752 0.2071 0.83801 0.0
C2173 C 0.79944 0.11512 0.83952 0.0
H2174 H 0.83554 0.18867 0.90347 0.0
H2175 H 0.75658 0.16034 0.88366 0.0
H2176 H 0.84984 0.16379 0.86178 0.0
H2177 H 0.85819 0.19672 0.86173 0.0
H2178 H 0.86366 0.18704 0.88354 0.0
H2179 H 0.738 0.13954 0.85213 0.0
H2180 H 0.75931 0.16057 0.83746 0.0
H2181 H 0.75519 0.12907 0.83747 0.0
H2182 H 0.82903 0.19741 0.80353 0.0
H2183 H 0.81476 0.12038 0.8049 0.0
H2184 H 0.83191 0.21605 0.85098 0.0
H2185 H 0.79887 0.20271 0.84239 0.0
H2186 H 0.8229 0.22156 0.82834 0.0
H2187 H 0.8135 0.12033 0.85222 0.0
H2188 H 0.79778 0.09821 0.83009 0.0
H2189 H 0.78073 0.10923 0.84444 0.0
C2190 C 0.30154 0.15892 0.46556 0.0
C2191 C 0.27548 0.14522 0.45816 0.0
C2192 C 0.3095 0.16427 0.48515 0.0
C2193 C 0.29096 0.15572 0.49763 0.0
C2194 C 0.26469 0.14311 0.49034 0.0
C2195 C 0.25726 0.13802 0.47068 0.0
C2196 C 0.33772 0.17791 0.49241 0.0
C2197 C 0.24437 0.13382 0.50322 0.0
C2198 C 0.3103 0.14018 0.54326 0.0
C2199 C 0.3169 0.1625 0.5563 0.0
C2200 C 0.30137 0.13758 0.52421 0.0
C2201 C 0.29898 0.1578 0.51804 0.0
C2202 C 0.30501 0.18013 0.53121 0.0
C2203 C 0.31389 0.1822 0.55024 0.0
C2204 C 0.29493 0.11336 0.51061 0.0
C2205 C 0.30271 0.20207 0.52511 0.0
H2206 H 0.31577 0.16472 0.45602 0.0
H2207 H 0.23708 0.12756 0.46511 0.0
H2208 H 0.34316 0.19439 0.504 0.0
H2209 H 0.34209 0.16418 0.49836 0.0
H2210 H 0.34973 0.18543 0.48108 0.0
H2211 H 0.22507 0.12683 0.49556 0.0
H2212 H 0.24386 0.11765 0.5095 0.0
H2213 H 0.2489 0.14967 0.51509 0.0
H2214 H 0.31223 0.12474 0.54797 0.0
H2215 H 0.31917 0.19958 0.56026 0.0
H2216 H 0.30761 0.11866 0.49948 0.0
H2217 H 0.27497 0.10381 0.5034 0.0
H2218 H 0.29709 0.09911 0.51781 0.0
H2219 H 0.31633 0.21108 0.515 0.0
H2220 H 0.30672 0.21738 0.53729 0.0
H2221 H 0.28322 0.1945 0.51762 0.0
C2222 C 0.87885 0.15184 0.46255 0.0
C2223 C 0.88519 0.17483 0.45569 0.0
C2224 C 0.87105 0.14827 0.48049 0.0
C2225 C 0.86956 0.16821 0.49179 0.0
C2226 C 0.87666 0.19179 0.48513 0.0
C2227 C 0.88457 0.19488 0.4672 0.0
C2228 C 0.86403 0.12303 0.4872 0.0
C2229 C 0.87519 0.21345 0.4967 0.0
C2230 C 0.82419 0.15041 0.52855 0.0
C2231 C 0.84105 0.15882 0.54551 0.0
C2232 C 0.8332 0.15305 0.51098 0.0
C2233 C 0.85971 0.16414 0.51028 0.0
C2234 C 0.87677 0.17201 0.52726 0.0
C2235 C 0.86726 0.16937 0.54468 0.0
C2236 C 0.81438 0.14442 0.49317 0.0
C2237 C 0.90514 0.18372 0.52708 0.0
H2238 H 0.88016 0.13666 0.45395 0.0
H2239 H 0.88954 0.21272 0.46193 0.0
H2240 H 0.87514 0.12698 0.50127 0.0
H2241 H 0.84349 0.11255 0.48892 0.0
H2242 H 0.86758 0.11008 0.47717 0.0
H2243 H 0.88212 0.23085 0.48975 0.0
H2244 H 0.85511 0.20651 0.49896 0.0
H2245 H 0.88671 0.21931 0.51088 0.0
H2246 H 0.80387 0.1418 0.52901 0.0
H2247 H 0.88049 0.17623 0.5577 0.0
H2248 H 0.81575 0.12987 0.48314 0.0
H2249 H 0.81909 0.16128 0.48599 0.0
H2250 H 0.79434 0.13577 0.49611 0.0
H2251 H 0.90875 0.1706 0.51732 0.0
H2252 H 0.91565 0.1874 0.54138 0.0
H2253 H 0.91307 0.2024 0.52172 0.0
C2254 C 0.90123 0.72654 0.48277 0.0
C2255 C 0.87967 0.72455 0.47272 0.0
C2256 C 0.89956 0.7164 0.49964 0.0
C2257 C 0.87576 0.70395 0.50653 0.0
C2258 C 0.85388 0.70148 0.49626 0.0
C2259 C 0.85611 0.71181 0.47953 0.0
C2260 C 0.92328 0.7194 0.51026 0.0
C2261 C 0.82811 0.68822 0.50307 0.0
C2262 C 0.86066 0.65766 0.54169 0.0
C2263 C 0.86204 0.67314 0.55843 0.0
C2264 C 0.86633 0.66778 0.52484 0.0
C2265 C 0.87355 0.69402 0.52475 0.0
C2266 C 0.87612 0.71007 0.54179 0.0
C2267 C 0.87029 0.69943 0.55841 0.0
C2268 C 0.86345 0.65009 0.50697 0.0
C2269 C 0.88378 0.73816 0.54228 0.0
H2270 H 0.91951 0.73635 0.47761 0.0
H2271 H 0.83928 0.71003 0.47184 0.0
H2272 H 0.92789 0.73148 0.52445 0.0
H2273 H 0.91991 0.70013 0.51255 0.0
H2274 H 0.94009 0.72863 0.50264 0.0
H2275 H 0.81284 0.68732 0.49316 0.0
H2276 H 0.82256 0.66811 0.50481 0.0
H2277 H 0.82918 0.6988 0.51714 0.0
H2278 H 0.85474 0.63745 0.54168 0.0
H2279 H 0.87116 0.71147 0.57122 0.0
H2280 H 0.88075 0.6594 0.49989 0.0
H2281 H 0.84702 0.64657 0.49691 0.0
H2282 H 0.86018 0.63102 0.50979 0.0
H2283 H 0.90123 0.74841 0.53551 0.0
H2284 H 0.88743 0.74868 0.55696 0.0
H2285 H 0.86831 0.73909 0.53409 0.0
loop_
_geom_bond_atom_site_label_1
_geom_bond_atom_site_label_2
_geom_bond_distance
_geom_bond_site_symmetry_2
_ccdc_geom_bond_type
O0 Cd1 2.300 . S
O0 C7 1.275 . S
Cd1 O0 2.300 . S
Cd1 O9 2.381 . S
Cd1 O10 2.378 . S
O2 Cd3 2.385 . S
O2 C7 1.255 . S
Cd3 O2 2.385 . S
Cd3 O4 2.317 . S
O4 Cd3 2.317 . S
O4 C5 1.232 . S
C5 O4 1.232 . S
C5 O6 1.218 . S
O6 C5 1.218 . S
C7 O0 1.275 . S
C7 O2 1.255 . S
C8 O9 1.258 . S
C8 O10 1.256 . S
O9 Cd1 2.381 . S
O9 C8 1.258 . S
O10 Cd1 2.378 . S
O10 C8 1.256 . S
O11 Cd12 2.300 . S
O11 C18 1.275 . S
Cd12 O11 2.300 . S
Cd12 O20 2.381 . S
Cd12 O21 2.378 . S
O13 Cd14 2.385 . S
O13 C18 1.255 . S
Cd14 O13 2.385 . S
Cd14 O15 2.317 . S
O15 Cd14 2.317 . S
O15 C16 1.232 . S
C16 O15 1.232 . S
C16 O17 1.218 . S
O17 C16 1.218 . S
C18 O11 1.275 . S
C18 O13 1.255 . S
C19 O20 1.258 . S
C19 O21 1.256 . S
O20 Cd12 2.381 . S
O20 C19 1.258 . S
O21 Cd12 2.378 . S
O21 C19 1.256 . S
O22 Cd23 2.300 . S
O22 C29 1.275 . S
Cd23 O22 2.300 . S
Cd23 O31 2.381 . S
Cd23 O32 2.378 . S
O24 Cd25 2.385 . S
O24 C29 1.255 . S
Cd25 O24 2.385 . S
Cd25 O26 2.317 . S
O26 Cd25 2.317 . S
O26 C27 1.232 . S
C27 O26 1.232 . S
C27 O28 1.218 . S
O28 C27 1.218 . S
C29 O22 1.275 . S
C29 O24 1.255 . S
C30 O31 1.258 . S
C30 O32 1.256 . S
O31 Cd23 2.381 . S
O31 C30 1.258 . S
O32 Cd23 2.378 . S
O32 C30 1.256 . S
O33 Cd34 2.300 . S
O33 C40 1.275 . S
Cd34 O33 2.300 . S
Cd34 O42 2.381 . S
Cd34 O43 2.378 . S
O35 Cd36 2.385 . S
O35 C40 1.255 . S
Cd36 O35 2.385 . S
Cd36 O37 2.317 . S
O37 Cd36 2.317 . S
O37 C38 1.232 . S
C38 O37 1.232 . S
C38 O39 1.218 . S
O39 C38 1.218 . S
C40 O33 1.275 . S
C40 O35 1.255 . S
C41 O42 1.258 . S
C41 O43 1.256 . S
O42 Cd34 2.381 . S
O42 C41 1.258 . S
O43 Cd34 2.378 . S
O43 C41 1.256 . S
O44 Cd45 2.300 . S
O44 C51 1.275 . S
Cd45 O44 2.300 . S
Cd45 O53 2.381 . S
Cd45 O54 2.378 . S
O46 Cd47 2.385 . S
O46 C51 1.255 . S
Cd47 O46 2.385 . S
Cd47 O48 2.317 . S
O48 Cd47 2.317 . S
O48 C49 1.232 . S
C49 O48 1.232 . S
C49 O50 1.218 . S
O50 C49 1.218 . S
C51 O44 1.275 . S
C51 O46 1.255 . S
C52 O53 1.258 . S
C52 O54 1.256 . S
O53 Cd45 2.381 . S
O53 C52 1.258 . S
O54 Cd45 2.378 . S
O54 C52 1.256 . S
O55 Cd56 2.300 . S
O55 C62 1.275 . S
Cd56 O55 2.300 . S
Cd56 O64 2.381 . S
Cd56 O65 2.378 . S
O57 Cd58 2.385 . S
O57 C62 1.255 . S
Cd58 O57 2.385 . S
Cd58 O59 2.317 . S
O59 Cd58 2.317 . S
O59 C60 1.232 . S
C60 O59 1.232 . S
C60 O61 1.218 . S
O61 C60 1.218 . S
C62 O55 1.275 . S
C62 O57 1.255 . S
C63 O64 1.258 . S
C63 O65 1.256 . S
O64 Cd56 2.381 . S
O64 C63 1.258 . S
O65 Cd56 2.378 . S
O65 C63 1.256 . S
O66 Cd67 2.300 . S
O66 C73 1.275 . S
Cd67 O66 2.300 . S
Cd67 O75 2.381 . S
Cd67 O76 2.378 . S
O68 Cd69 2.385 . S
O68 C73 1.255 . S
Cd69 O68 2.385 . S
Cd69 O70 2.317 . S
O70 Cd69 2.317 . S
O70 C71 1.232 . S
C71 O70 1.232 . S
C71 O72 1.218 . S
O72 C71 1.218 . S
C73 O66 1.275 . S
C73 O68 1.255 . S
C74 O75 1.258 . S
C74 O76 1.256 . S
O75 Cd67 2.381 . S
O75 C74 1.258 . S
O76 Cd67 2.378 . S
O76 C74 1.256 . S
O77 Cd78 2.300 . S
O77 C84 1.275 . S
Cd78 O77 2.300 . S
Cd78 O86 2.381 . S
Cd78 O87 2.378 . S
O79 Cd80 2.385 . S
O79 C84 1.255 . S
Cd80 O79 2.385 . S
Cd80 O81 2.317 . S
O81 Cd80 2.317 . S
O81 C82 1.232 . S
C82 O81 1.232 . S
C82 O83 1.218 . S
O83 C82 1.218 . S
C84 O77 1.275 . S
C84 O79 1.255 . S
C85 O86 1.258 . S
C85 O87 1.256 . S
O86 Cd78 2.381 . S
O86 C85 1.258 . S
O87 Cd78 2.378 . S
O87 C85 1.256 . S
O88 Cd89 2.300 . S
O88 C95 1.275 . S
Cd89 O88 2.300 . S
Cd89 O97 2.381 . S
Cd89 O98 2.378 . S
O90 Cd91 2.385 . S
O90 C95 1.255 . S
Cd91 O90 2.385 . S
Cd91 O92 2.317 . S
O92 Cd91 2.317 . S
O92 C93 1.232 . S
C93 O92 1.232 . S
C93 O94 1.218 . S
O94 C93 1.218 . S
C95 O88 1.275 . S
C95 O90 1.255 . S
C96 O97 1.258 . S
C96 O98 1.256 . S
O97 Cd89 2.381 . S
O97 C96 1.258 . S
O98 Cd89 2.378 . S
O98 C96 1.256 . S
O99 Cd100 2.300 . S
O99 C106 1.275 . S
Cd100 O99 2.300 . S
Cd100 O108 2.381 . S
Cd100 O109 2.378 . S
O101 Cd102 2.385 . S
O101 C106 1.255 . S
Cd102 O101 2.385 . S
Cd102 O103 2.317 . S
O103 Cd102 2.317 . S
O103 C104 1.232 . S
C104 O103 1.232 . S
C104 O105 1.218 . S
O105 C104 1.218 . S
C106 O99 1.275 . S
C106 O101 1.255 . S
C107 O108 1.258 . S
C107 O109 1.256 . S
O108 Cd100 2.381 . S
O108 C107 1.258 . S
O109 Cd100 2.378 . S
O109 C107 1.256 . S
O110 Cd111 2.300 . S
O110 C117 1.275 . S
Cd111 O110 2.300 . S
Cd111 O119 2.381 . S
Cd111 O120 2.378 . S
O112 Cd113 2.385 . S
O112 C117 1.255 . S
Cd113 O112 2.385 . S
Cd113 O114 2.317 . S
O114 Cd113 2.317 . S
O114 C115 1.232 . S
C115 O114 1.232 . S
C115 O116 1.218 . S
O116 C115 1.218 . S
C117 O110 1.275 . S
C117 O112 1.255 . S
C118 O119 1.258 . S
C118 O120 1.256 . S
O119 Cd111 2.381 . S
O119 C118 1.258 . S
O120 Cd111 2.378 . S
O120 C118 1.256 . S
O121 Cd122 2.300 . S
O121 C128 1.275 . S
Cd122 O121 2.300 . S
Cd122 O130 2.381 . S
Cd122 O131 2.378 . S
O123 Cd124 2.385 . S
O123 C128 1.255 . S
Cd124 O123 2.385 . S
Cd124 O125 2.317 . S
O125 Cd124 2.317 . S
O125 C126 1.232 . S
C126 O125 1.232 . S
C126 O127 1.218 . S
O127 C126 1.218 . S
C128 O121 1.275 . S
C128 O123 1.255 . S
C129 O130 1.258 . S
C129 O131 1.256 . S
O130 Cd122 2.381 . S
O130 C129 1.258 . S
O131 Cd122 2.378 . S
O131 C129 1.256 . S
O132 Cd133 2.300 . S
O132 C139 1.275 . S
Cd133 O132 2.300 . S
Cd133 O141 2.381 . S
Cd133 O142 2.378 . S
O134 Cd135 2.385 . S
O134 C139 1.255 . S
Cd135 O134 2.385 . S
Cd135 O136 2.317 . S
O136 Cd135 2.317 . S
O136 C137 1.232 . S
C137 O136 1.232 . S
C137 O138 1.218 . S
O138 C137 1.218 . S
C139 O132 1.275 . S
C139 O134 1.255 . S
C140 O141 1.258 . S
C140 O142 1.256 . S
O141 Cd133 2.381 . S
O141 C140 1.258 . S
O142 Cd133 2.378 . S
O142 C140 1.256 . S
O143 Cd144 2.300 . S
O143 C150 1.275 . S
Cd144 O143 2.300 . S
Cd144 O152 2.381 . S
Cd144 O153 2.378 . S
O145 Cd146 2.385 . S
O145 C150 1.255 . S
Cd146 O145 2.385 . S
Cd146 O147 2.317 . S
O147 Cd146 2.317 . S
O147 C148 1.232 . S
C148 O147 1.232 . S
C148 O149 1.218 . S
O149 C148 1.218 . S
C150 O143 1.275 . S
C150 O145 1.255 . S
C151 O152 1.258 . S
C151 O153 1.256 . S
O152 Cd144 2.381 . S
O152 C151 1.258 . S
O153 Cd144 2.378 . S
O153 C151 1.256 . S
O154 Cd155 2.300 . S
O154 C161 1.275 . S
Cd155 O154 2.300 . S
Cd155 O163 2.381 . S
Cd155 O164 2.378 . S
O156 Cd157 2.385 . S
O156 C161 1.255 . S
Cd157 O156 2.385 . S
Cd157 O158 2.317 . S
O158 Cd157 2.317 . S
O158 C159 1.232 . S
C159 O158 1.232 . S
C159 O160 1.218 . S
O160 C159 1.218 . S
C161 O154 1.275 . S
C161 O156 1.255 . S
C162 O163 1.258 . S
C162 O164 1.256 . S
O163 Cd155 2.381 . S
O163 C162 1.258 . S
O164 Cd155 2.378 . S
O164 C162 1.256 . S
O165 Cd166 2.300 . S
O165 C172 1.275 . S
Cd166 O165 2.300 . S
Cd166 O174 2.381 . S
Cd166 O175 2.378 . S
O167 Cd168 2.385 . S
O167 C172 1.255 . S
Cd168 O167 2.385 . S
Cd168 O169 2.317 . S
O169 Cd168 2.317 . S
O169 C170 1.232 . S
C170 O169 1.232 . S
C170 O171 1.218 . S
O171 C170 1.218 . S
C172 O165 1.275 . S
C172 O167 1.255 . S
C173 O174 1.258 . S
C173 O175 1.256 . S
O174 Cd166 2.381 . S
O174 C173 1.258 . S
O175 Cd166 2.378 . S
O175 C173 1.256 . S
O176 Cd177 2.300 . S
O176 C183 1.275 . S
Cd177 O176 2.300 . S
Cd177 O185 2.381 . S
Cd177 O186 2.378 . S
O178 Cd179 2.385 . S
O178 C183 1.255 . S
Cd179 O178 2.385 . S
Cd179 O180 2.317 . S
O180 Cd179 2.317 . S
O180 C181 1.232 . S
C181 O180 1.232 . S
C181 O182 1.218 . S
O182 C181 1.218 . S
C183 O176 1.275 . S
C183 O178 1.255 . S
C184 O185 1.258 . S
C184 O186 1.256 . S
O185 Cd177 2.381 . S
O185 C184 1.258 . S
O186 Cd177 2.378 . S
O186 C184 1.256 . S
O187 Cd188 2.300 . S
O187 C194 1.275 . S
Cd188 O187 2.300 . S
Cd188 O196 2.381 . S
Cd188 O197 2.378 . S
O189 Cd190 2.385 . S
O189 C194 1.255 . S
Cd190 O189 2.385 . S
Cd190 O191 2.317 . S
O191 Cd190 2.317 . S
O191 C192 1.232 . S
C192 O191 1.232 . S
C192 O193 1.218 . S
O193 C192 1.218 . S
C194 O187 1.275 . S
C194 O189 1.255 . S
C195 O196 1.258 . S
C195 O197 1.256 . S
O196 Cd188 2.381 . S
O196 C195 1.258 . S
O197 Cd188 2.378 . S
O197 C195 1.256 . S
Eu198 C207 2.828 . S
Eu198 O209 2.360 1_556 S
Eu198 O211 2.418 . S
Eu198 O216 2.373 1_565 S
Eu198 O219 2.488 . S
Eu198 O220 2.471 1_565 S
Eu198 O221 2.353 1_565 S
Eu199 O208 2.373 1_545 S
Eu199 O212 2.488 . S
Eu199 O213 2.471 1_545 S
Eu199 O214 2.349 1_545 S
Eu199 O217 2.392 . S
Eu199 O218 2.418 . S
Eu199 C228 2.828 . S
C200 O218 1.244 . S
C200 O221 1.261 1_554 S
C201 C202 1.379 . S
C201 C205 1.373 1_545 S
C201 C207 1.505 1_545 S
C202 C201 1.379 . S
C202 C204 1.369 . S
C202 H230 0.930 . S
C203 C205 1.383 . S
C203 C206 1.382 1_565 S
C203 H231 0.930 . S
C204 C202 1.369 . S
C204 C206 1.392 . S
C204 H232 0.930 . S
C205 C201 1.373 1_565 S
C205 C203 1.383 . S
C205 H233 0.931 . S
C206 C203 1.382 1_545 S
C206 C204 1.392 . S
C207 Eu198 2.828 . S
C207 C201 1.505 1_565 S
C207 O219 1.249 . S
C207 O220 1.244 1_565 S
O208 Eu199 2.373 1_565 S
O208 C210 1.258 . S
O209 Eu198 2.360 1_554 S
O209 C210 1.284 . S
C210 O208 1.258 . S
C210 O209 1.284 . S
O211 Eu198 2.418 . S
O211 C215 1.244 1_556 S
O212 Eu199 2.488 . S
O212 C228 1.249 . S
O213 Eu199 2.471 1_565 S
O213 C228 1.244 1_565 S
O214 Eu199 2.349 1_565 S
O214 C215 1.265 . S
C215 O211 1.244 1_554 S
C215 O214 1.265 . S
O216 Eu198 2.373 1_545 S
O216 C229 1.258 . S
O217 Eu199 2.392 . S
O217 C229 1.242 1_554 S
O218 Eu199 2.418 . S
O218 C200 1.244 . S
O219 Eu198 2.488 . S
O219 C207 1.249 . S
O220 Eu198 2.471 1_545 S
O220 C207 1.244 1_545 S
O221 Eu198 2.353 1_545 S
O221 C200 1.261 1_556 S
C222 C223 1.379 . S
C222 C226 1.373 1_565 S
C222 C228 1.505 1_565 S
C223 C222 1.379 . S
C223 C225 1.369 . S
C223 H234 0.930 . S
C224 C226 1.383 . S
C224 C227 1.382 1_545 S
C224 H235 0.930 . S
C225 C223 1.369 . S
C225 C227 1.392 . S
C225 H236 0.930 . S
C226 C222 1.373 1_545 S
C226 C224 1.383 . S
C226 H237 0.931 . S
C227 C224 1.382 1_565 S
C227 C225 1.392 . S
C228 Eu199 2.828 . S
C228 O212 1.249 . S
C228 O213 1.244 1_545 S
C228 C222 1.505 1_545 S
C229 O216 1.258 . S
C229 O217 1.242 1_556 S
H230 C202 0.930 . S
H231 C203 0.930 . S
H232 C204 0.930 . S
H233 C205 0.931 . S
H234 C223 0.930 . S
H235 C224 0.930 . S
H236 C225 0.930 . S
H237 C226 0.931 . S
Eu238 C247 2.828 1_455 S
Eu238 O249 2.392 1_556 S
Eu238 O251 2.417 . S
Eu238 O256 2.373 1_455 S
Eu238 O259 2.488 . S
Eu238 O260 2.471 1_455 S
Eu238 O261 2.328 1_456 S
Eu239 O248 2.373 1_655 S
Eu239 O252 2.488 . S
Eu239 O253 2.471 1_655 S
Eu239 O254 2.349 1_655 S
Eu239 O257 2.392 . S
Eu239 O258 2.418 . S
Eu239 C268 2.828 1_655 S
C240 O258 1.244 . S
C240 O261 1.285 . S
C241 C242 1.379 . S
C241 C245 1.359 1_655 S
C241 C247 1.505 . S
C242 C241 1.379 . S
C242 C244 1.369 . S
C242 H270 0.930 . S
C243 C245 1.366 1_655 S
C243 C246 1.382 . S
C243 H271 0.930 1_655 S
C244 C242 1.369 . S
C244 C246 1.392 . S
C244 H272 0.930 . S
C245 C241 1.359 1_455 S
C245 C243 1.366 1_455 S
C245 H273 0.964 . S
C246 C243 1.382 . S
C246 C244 1.392 . S
C247 Eu238 2.828 1_655 S
C247 C241 1.505 . S
C247 O259 1.249 1_655 S
C247 O260 1.244 . S
O248 Eu239 2.373 1_455 S
O248 C250 1.258 . S
O249 Eu238 2.392 1_554 S
O249 C250 1.242 . S
C250 O248 1.258 . S
C250 O249 1.242 . S
O251 Eu238 2.417 . S
O251 C255 1.247 1_556 S
O252 Eu239 2.488 . S
O252 C268 1.249 1_655 S
O253 Eu239 2.471 1_455 S
O253 C268 1.244 . S
O254 Eu239 2.349 1_455 S
O254 C255 1.265 . S
C255 O251 1.247 1_554 S
C255 O254 1.265 . S
O256 Eu238 2.373 1_655 S
O256 C269 1.258 . S
O257 Eu239 2.392 . S
O257 C269 1.242 1_554 S
O258 Eu239 2.418 . S
O258 C240 1.244 . S
O259 Eu238 2.488 . S
O259 C247 1.249 1_455 S
O260 Eu238 2.471 1_655 S
O260 C247 1.244 . S
O261 Eu238 2.328 1_654 S
O261 C240 1.285 . S
C262 C263 1.379 . S
C262 C266 1.373 . S
C262 C268 1.505 . S
C263 C262 1.379 . S
C263 C265 1.369 . S
C263 H274 0.930 . S
C264 C266 1.383 . S
C264 C267 1.382 . S
C264 H275 0.930 . S
C265 C263 1.369 . S
C265 C267 1.392 . S
C265 H276 0.930 . S
C266 C262 1.373 . S
C266 C264 1.383 . S
C266 H277 0.931 1_455 S
C267 C264 1.382 . S
C267 C265 1.392 . S
C268 Eu239 2.828 1_455 S
C268 O252 1.249 1_455 S
C268 O253 1.244 . S
C268 C262 1.505 . S
C269 O256 1.258 . S
C269 O257 1.242 1_556 S
H270 C242 0.930 . S
H271 C243 0.930 1_455 S
H272 C244 0.930 . S
H273 C245 0.964 . S
H274 C263 0.930 . S
H275 C264 0.930 . S
H276 C265 0.930 . S
H277 C266 0.931 1_655 S
Eu278 C287 2.828 . S
Eu278 O289 2.392 . S
Eu278 O291 2.418 . S
Eu278 O296 2.373 . S
Eu278 O299 2.488 . S
Eu278 O300 2.471 . S
Eu278 O301 2.349 . S
Eu279 O288 2.373 . S
Eu279 O292 2.488 . S
Eu279 O293 2.471 . S
Eu279 O294 2.349 . S
Eu279 O297 2.392 1_556 S
Eu279 O298 2.418 . S
Eu279 C308 2.828 . S
C280 O298 1.244 1_554 S
C280 O301 1.265 . S
C281 C282 1.379 . S
C281 C285 1.373 . S
C281 C287 1.505 . S
C282 C281 1.379 . S
C282 C284 1.369 . S
C282 H310 0.930 . S
C283 C285 1.383 . S
C283 C286 1.382 . S
C283 H311 0.930 . S
C284 C282 1.369 . S
C284 C286 1.392 . S
C284 H312 0.930 . S
C285 C281 1.373 . S
C285 C283 1.383 . S
C285 H313 0.931 . S
C286 C283 1.382 . S
C286 C284 1.392 . S
C287 Eu278 2.828 . S
C287 C281 1.505 . S
C287 O299 1.249 . S
C287 O300 1.244 . S
O288 Eu279 2.373 . S
O288 C290 1.258 . S
O289 Eu278 2.392 . S
O289 C290 1.242 1_554 S
C290 O288 1.258 . S
C290 O289 1.242 1_556 S
O291 Eu278 2.418 . S
O291 C295 1.244 . S
O292 Eu279 2.488 . S
O292 C308 1.249 . S
O293 Eu279 2.471 . S
O293 C308 1.244 . S
O294 Eu279 2.349 . S
O294 C295 1.265 1_556 S
C295 O291 1.244 . S
C295 O294 1.265 1_554 S
O296 Eu278 2.373 . S
O296 C309 1.258 . S
O297 Eu279 2.392 1_554 S
O297 C309 1.242 . S
O298 Eu279 2.418 . S
O298 C280 1.244 1_556 S
O299 Eu278 2.488 . S
O299 C287 1.249 . S
O300 Eu278 2.471 . S
O300 C287 1.244 . S
O301 Eu278 2.349 . S
O301 C280 1.265 . S
C302 C303 1.379 . S
C302 C306 1.373 . S
C302 C308 1.505 . S
C303 C302 1.379 . S
C303 C305 1.369 . S
C303 H314 0.930 . S
C304 C306 1.383 . S
C304 C307 1.382 . S
C304 H315 0.930 . S
C305 C303 1.369 . S
C305 C307 1.392 . S
C305 H316 0.930 . S
C306 C302 1.373 . S
C306 C304 1.383 . S
C306 H317 0.931 . S
C307 C304 1.382 . S
C307 C305 1.392 . S
C308 Eu279 2.828 . S
C308 O292 1.249 . S
C308 O293 1.244 . S
C308 C302 1.505 . S
C309 O296 1.258 . S
C309 O297 1.242 . S
H310 C282 0.930 . S
H311 C283 0.930 . S
H312 C284 0.930 . S
H313 C285 0.931 . S
H314 C303 0.930 . S
H315 C304 0.930 . S
H316 C305 0.930 . S
H317 C306 0.931 . S
Eu318 C327 2.828 . S
Eu318 O329 2.392 . S
Eu318 O331 2.418 . S
Eu318 O336 2.373 . S
Eu318 O339 2.488 . S
Eu318 O340 2.471 . S
Eu318 O341 2.349 . S
Eu319 O328 2.373 . S
Eu319 O332 2.488 . S
Eu319 O333 2.471 . S
Eu319 O334 2.349 . S
Eu319 O337 2.392 . S
Eu319 O338 2.418 . S
Eu319 C348 2.828 . S
C320 O338 1.244 . S
C320 O341 1.265 . S
C321 C322 1.379 . S
C321 C325 1.373 . S
C321 C327 1.505 . S
C322 C321 1.379 . S
C322 C324 1.369 . S
C322 H350 0.930 . S
C323 C325 1.383 . S
C323 C326 1.382 . S
C323 H351 0.930 . S
C324 C322 1.369 . S
C324 C326 1.392 . S
C324 H352 0.930 . S
C325 C321 1.373 . S
C325 C323 1.383 . S
C325 H353 0.931 . S
C326 C323 1.382 . S
C326 C324 1.392 . S
C327 Eu318 2.828 . S
C327 C321 1.505 . S
C327 O339 1.249 . S
C327 O340 1.244 . S
O328 Eu319 2.373 . S
O328 C330 1.258 . S
O329 Eu318 2.392 . S
O329 C330 1.242 . S
C330 O328 1.258 . S
C330 O329 1.242 . S
O331 Eu318 2.418 . S
O331 C335 1.244 . S
O332 Eu319 2.488 . S
O332 C348 1.249 . S
O333 Eu319 2.471 . S
O333 C348 1.244 . S
O334 Eu319 2.349 . S
O334 C335 1.265 . S
C335 O331 1.244 . S
C335 O334 1.265 . S
O336 Eu318 2.373 . S
O336 C349 1.258 . S
O337 Eu319 2.392 . S
O337 C349 1.242 . S
O338 Eu319 2.418 . S
O338 C320 1.244 . S
O339 Eu318 2.488 . S
O339 C327 1.249 . S
O340 Eu318 2.471 . S
O340 C327 1.244 . S
O341 Eu318 2.349 . S
O341 C320 1.265 . S
C342 C343 1.379 . S
C342 C346 1.373 . S
C342 C348 1.505 . S
C343 C342 1.379 . S
C343 C345 1.369 . S
C343 H354 0.930 . S
C344 C346 1.383 . S
C344 C347 1.382 . S
C344 H355 0.930 . S
C345 C343 1.369 . S
C345 C347 1.392 . S
C345 H356 0.930 . S
C346 C342 1.373 . S
C346 C344 1.383 . S
C346 H357 0.931 . S
C347 C344 1.382 . S
C347 C345 1.392 . S
C348 Eu319 2.828 . S
C348 O332 1.249 . S
C348 O333 1.244 . S
C348 C342 1.505 . S
C349 O336 1.258 . S
C349 O337 1.242 . S
H350 C322 0.930 . S
H351 C323 0.930 . S
H352 C324 0.930 . S
H353 C325 0.931 . S
H354 C343 0.930 . S
H355 C344 0.930 . S
H356 C345 0.930 . S
H357 C346 0.931 . S
Eu358 C367 2.828 . S
Eu358 O369 2.392 . S
Eu358 O371 2.418 . S
Eu358 O376 2.373 . S
Eu358 O379 2.488 . S
Eu358 O380 2.471 . S
Eu358 O381 2.349 . S
Eu359 O368 2.373 . S
Eu359 O372 2.488 . S
Eu359 O373 2.471 . S
Eu359 O374 2.349 . S
Eu359 O377 2.392 . S
Eu359 O378 2.418 . S
Eu359 C388 2.828 . S
C360 O378 1.244 . S
C360 O381 1.265 . S
C361 C362 1.379 . S
C361 C365 1.373 . S
C361 C367 1.505 . S
C362 C361 1.379 . S
C362 C364 1.369 . S
C362 H390 0.930 . S
C363 C365 1.383 . S
C363 C366 1.382 . S
C363 H391 0.930 . S
C364 C362 1.369 . S
C364 C366 1.392 . S
C364 H392 0.930 . S
C365 C361 1.373 . S
C365 C363 1.383 . S
C365 H393 0.931 . S
C366 C363 1.382 . S
C366 C364 1.392 . S
C367 Eu358 2.828 . S
C367 C361 1.505 . S
C367 O379 1.249 . S
C367 O380 1.244 . S
O368 Eu359 2.373 . S
O368 C370 1.258 . S
O369 Eu358 2.392 . S
O369 C370 1.242 . S
C370 O368 1.258 . S
C370 O369 1.242 . S
O371 Eu358 2.418 . S
O371 C375 1.244 . S
O372 Eu359 2.488 . S
O372 C388 1.249 . S
O373 Eu359 2.471 . S
O373 C388 1.244 . S
O374 Eu359 2.349 . S
O374 C375 1.265 . S
C375 O371 1.244 . S
C375 O374 1.265 . S
O376 Eu358 2.373 . S
O376 C389 1.258 . S
O377 Eu359 2.392 . S
O377 C389 1.242 . S
O378 Eu359 2.418 . S
O378 C360 1.244 . S
O379 Eu358 2.488 . S
O379 C367 1.249 . S
O380 Eu358 2.471 . S
O380 C367 1.244 . S
O381 Eu358 2.349 . S
O381 C360 1.265 . S
C382 C383 1.379 . S
C382 C386 1.373 . S
C382 C388 1.505 . S
C383 C382 1.379 . S
C383 C385 1.369 . S
C383 H394 0.930 . S
C384 C386 1.383 . S
C384 C387 1.382 . S
C384 H395 0.930 . S
C385 C383 1.369 . S
C385 C387 1.392 . S
C385 H396 0.930 . S
C386 C382 1.373 . S
C386 C384 1.383 . S
C386 H397 0.931 . S
C387 C384 1.382 . S
C387 C385 1.392 . S
C388 Eu359 2.828 . S
C388 O372 1.249 . S
C388 O373 1.244 . S
C388 C382 1.505 . S
C389 O376 1.258 . S
C389 O377 1.242 . S
H390 C362 0.930 . S
H391 C363 0.930 . S
H392 C364 0.930 . S
H393 C365 0.931 . S
H394 C383 0.930 . S
H395 C384 0.930 . S
H396 C385 0.930 . S
H397 C386 0.931 . S
Eu398 C407 2.828 . S
Eu398 O409 2.392 . S
Eu398 O411 2.418 . S
Eu398 O416 2.373 . S
Eu398 O419 2.488 . S
Eu398 O420 2.471 . S
Eu398 O421 2.349 . S
Eu399 O408 2.373 . S
Eu399 O412 2.488 . S
Eu399 O413 2.471 . S
Eu399 O414 2.349 . S
Eu399 O417 2.392 . S
Eu399 O418 2.418 . S
Eu399 C428 2.828 . S
C400 O418 1.244 . S
C400 O421 1.265 . S
C401 C402 1.379 . S
C401 C405 1.373 . S
C401 C407 1.505 . S
C402 C401 1.379 . S
C402 C404 1.369 . S
C402 H430 0.930 . S
C403 C405 1.383 . S
C403 C406 1.382 . S
C403 H431 0.930 . S
C404 C402 1.369 . S
C404 C406 1.392 . S
C404 H432 0.930 . S
C405 C401 1.373 . S
C405 C403 1.383 . S
C405 H433 0.931 . S
C406 C403 1.382 . S
C406 C404 1.392 . S
C407 Eu398 2.828 . S
C407 C401 1.505 . S
C407 O419 1.249 . S
C407 O420 1.244 . S
O408 Eu399 2.373 . S
O408 C410 1.258 . S
O409 Eu398 2.392 . S
O409 C410 1.242 . S
C410 O408 1.258 . S
C410 O409 1.242 . S
O411 Eu398 2.418 . S
O411 C415 1.244 . S
O412 Eu399 2.488 . S
O412 C428 1.249 . S
O413 Eu399 2.471 . S
O413 C428 1.244 . S
O414 Eu399 2.349 . S
O414 C415 1.265 . S
C415 O411 1.244 . S
C415 O414 1.265 . S
O416 Eu398 2.373 . S
O416 C429 1.258 . S
O417 Eu399 2.392 . S
O417 C429 1.242 . S
O418 Eu399 2.418 . S
O418 C400 1.244 . S
O419 Eu398 2.488 . S
O419 C407 1.249 . S
O420 Eu398 2.471 . S
O420 C407 1.244 . S
O421 Eu398 2.349 . S
O421 C400 1.265 . S
C422 C423 1.379 . S
C422 C426 1.373 . S
C422 C428 1.505 . S
C423 C422 1.379 . S
C423 C425 1.369 . S
C423 H434 0.930 . S
C424 C426 1.383 . S
C424 C427 1.382 . S
C424 H435 0.930 . S
C425 C423 1.369 . S
C425 C427 1.392 . S
C425 H436 0.930 . S
C426 C422 1.373 . S
C426 C424 1.383 . S
C426 H437 0.931 . S
C427 C424 1.382 . S
C427 C425 1.392 . S
C428 Eu399 2.828 . S
C428 O412 1.249 . S
C428 O413 1.244 . S
C428 C422 1.505 . S
C429 O416 1.258 . S
C429 O417 1.242 . S
H430 C402 0.930 . S
H431 C403 0.930 . S
H432 C404 0.930 . S
H433 C405 0.931 . S
H434 C423 0.930 . S
H435 C424 0.930 . S
H436 C425 0.930 . S
H437 C426 0.931 . S
Eu438 C447 2.828 . S
Eu438 O449 2.392 . S
Eu438 O451 2.418 . S
Eu438 O456 2.373 . S
Eu438 O459 2.488 . S
Eu438 O460 2.471 . S
Eu438 O461 2.349 . S
Eu439 O448 2.373 . S
Eu439 O452 2.488 . S
Eu439 O453 2.471 . S
Eu439 O454 2.349 . S
Eu439 O457 2.392 . S
Eu439 O458 2.418 . S
Eu439 C468 2.828 . S
C440 O458 1.244 . S
C440 O461 1.265 . S
C441 C442 1.379 . S
C441 C445 1.373 . S
C441 C447 1.505 . S
C442 C441 1.379 . S
C442 C444 1.369 . S
C442 H470 0.930 . S
C443 C445 1.383 . S
C443 C446 1.382 . S
C443 H471 0.930 . S
C444 C442 1.369 . S
C444 C446 1.392 . S
C444 H472 0.930 . S
C445 C441 1.373 . S
C445 C443 1.383 . S
C445 H473 0.931 . S
C446 C443 1.382 . S
C446 C444 1.392 . S
C447 Eu438 2.828 . S
C447 C441 1.505 . S
C447 O459 1.249 . S
C447 O460 1.244 . S
O448 Eu439 2.373 . S
O448 C450 1.258 . S
O449 Eu438 2.392 . S
O449 C450 1.242 . S
C450 O448 1.258 . S
C450 O449 1.242 . S
O451 Eu438 2.418 . S
O451 C455 1.244 . S
O452 Eu439 2.488 . S
O452 C468 1.249 . S
O453 Eu439 2.471 . S
O453 C468 1.244 . S
O454 Eu439 2.349 . S
O454 C455 1.265 . S
C455 O451 1.244 . S
C455 O454 1.265 . S
O456 Eu438 2.373 . S
O456 C469 1.258 . S
O457 Eu439 2.392 . S
O457 C469 1.242 . S
O458 Eu439 2.418 . S
O458 C440 1.244 . S
O459 Eu438 2.488 . S
O459 C447 1.249 . S
O460 Eu438 2.471 . S
O460 C447 1.244 . S
O461 Eu438 2.349 . S
O461 C440 1.265 . S
C462 C463 1.379 . S
C462 C466 1.373 . S
C462 C468 1.505 . S
C463 C462 1.379 . S
C463 C465 1.369 . S
C463 H474 0.930 . S
C464 C466 1.383 . S
C464 C467 1.382 . S
C464 H475 0.930 . S
C465 C463 1.369 . S
C465 C467 1.392 . S
C465 H476 0.930 . S
C466 C462 1.373 . S
C466 C464 1.383 . S
C466 H477 0.931 . S
C467 C464 1.382 . S
C467 C465 1.392 . S
C468 Eu439 2.828 . S
C468 O452 1.249 . S
C468 O453 1.244 . S
C468 C462 1.505 . S
C469 O456 1.258 . S
C469 O457 1.242 . S
H470 C442 0.930 . S
H471 C443 0.930 . S
H472 C444 0.930 . S
H473 C445 0.931 . S
H474 C463 0.930 . S
H475 C464 0.930 . S
H476 C465 0.930 . S
H477 C466 0.931 . S
Eu478 C487 2.828 . S
Eu478 O489 2.392 . S
Eu478 O491 2.418 . S
Eu478 O496 2.373 . S
Eu478 O499 2.488 . S
Eu478 O500 2.471 . S
Eu478 O501 2.349 . S
Eu479 O488 2.373 . S
Eu479 O492 2.488 . S
Eu479 O493 2.471 . S
Eu479 O494 2.349 . S
Eu479 O497 2.392 . S
Eu479 O498 2.418 . S
Eu479 C508 2.828 . S
C480 O498 1.244 . S
C480 O501 1.265 . S
C481 C482 1.379 . S
C481 C485 1.373 . S
C481 C487 1.505 . S
C482 C481 1.379 . S
C482 C484 1.369 . S
C482 H510 0.930 . S
C483 C485 1.383 . S
C483 C486 1.382 . S
C483 H511 0.930 . S
C484 C482 1.369 . S
C484 C486 1.392 . S
C484 H512 0.930 . S
C485 C481 1.373 . S
C485 C483 1.383 . S
C485 H513 0.931 . S
C486 C483 1.382 . S
C486 C484 1.392 . S
C487 Eu478 2.828 . S
C487 C481 1.505 . S
C487 O499 1.249 . S
C487 O500 1.244 . S
O488 Eu479 2.373 . S
O488 C490 1.258 . S
O489 Eu478 2.392 . S
O489 C490 1.242 . S
C490 O488 1.258 . S
C490 O489 1.242 . S
O491 Eu478 2.418 . S
O491 C495 1.244 . S
O492 Eu479 2.488 . S
O492 C508 1.249 . S
O493 Eu479 2.471 . S
O493 C508 1.244 . S
O494 Eu479 2.349 . S
O494 C495 1.265 . S
C495 O491 1.244 . S
C495 O494 1.265 . S
O496 Eu478 2.373 . S
O496 C509 1.258 . S
O497 Eu479 2.392 . S
O497 C509 1.242 . S
O498 Eu479 2.418 . S
O498 C480 1.244 . S
O499 Eu478 2.488 . S
O499 C487 1.249 . S
O500 Eu478 2.471 . S
O500 C487 1.244 . S
O501 Eu478 2.349 . S
O501 C480 1.265 . S
C502 C503 1.379 . S
C502 C506 1.373 . S
C502 C508 1.505 . S
C503 C502 1.379 . S
C503 C505 1.369 . S
C503 H514 0.930 . S
C504 C506 1.383 . S
C504 C507 1.382 . S
C504 H515 0.930 . S
C505 C503 1.369 . S
C505 C507 1.392 . S
C505 H516 0.930 . S
C506 C502 1.373 . S
C506 C504 1.383 . S
C506 H517 0.931 . S
C507 C504 1.382 . S
C507 C505 1.392 . S
C508 Eu479 2.828 . S
C508 O492 1.249 . S
C508 O493 1.244 . S
C508 C502 1.505 . S
C509 O496 1.258 . S
C509 O497 1.242 . S
H510 C482 0.930 . S
H511 C483 0.930 . S
H512 C484 0.930 . S
H513 C485 0.931 . S
H514 C503 0.930 . S
H515 C504 0.930 . S
H516 C505 0.930 . S
H517 C506 0.931 . S
Eu518 C527 2.828 . S
Eu518 O529 2.392 . S
Eu518 O531 2.418 . S
Eu518 O536 2.373 . S
Eu518 O539 2.488 . S
Eu518 O540 2.471 . S
Eu518 O541 2.349 . S
Eu519 O528 2.373 . S
Eu519 O532 2.488 . S
Eu519 O533 2.471 . S
Eu519 O534 2.349 . S
Eu519 O537 2.392 . S
Eu519 O538 2.418 . S
Eu519 C548 2.828 . S
C520 O538 1.244 . S
C520 O541 1.265 . S
C521 C522 1.379 . S
C521 C525 1.373 . S
C521 C527 1.505 . S
C522 C521 1.379 . S
C522 C524 1.369 . S
C522 H550 0.930 . S
C523 C525 1.383 . S
C523 C526 1.382 . S
C523 H551 0.930 . S
C524 C522 1.369 . S
C524 C526 1.392 . S
C524 H552 0.930 . S
C525 C521 1.373 . S
C525 C523 1.383 . S
C525 H553 0.931 . S
C526 C523 1.382 . S
C526 C524 1.392 . S
C527 Eu518 2.828 . S
C527 C521 1.505 . S
C527 O539 1.249 . S
C527 O540 1.244 . S
O528 Eu519 2.373 . S
O528 C530 1.258 . S
O529 Eu518 2.392 . S
O529 C530 1.242 . S
C530 O528 1.258 . S
C530 O529 1.242 . S
O531 Eu518 2.418 . S
O531 C535 1.244 . S
O532 Eu519 2.488 . S
O532 C548 1.249 . S
O533 Eu519 2.471 . S
O533 C548 1.244 . S
O534 Eu519 2.349 . S
O534 C535 1.265 . S
C535 O531 1.244 . S
C535 O534 1.265 . S
O536 Eu518 2.373 . S
O536 C549 1.258 . S
O537 Eu519 2.392 . S
O537 C549 1.242 . S
O538 Eu519 2.418 . S
O538 C520 1.244 . S
O539 Eu518 2.488 . S
O539 C527 1.249 . S
O540 Eu518 2.471 . S
O540 C527 1.244 . S
O541 Eu518 2.349 . S
O541 C520 1.265 . S
C542 C543 1.379 . S
C542 C546 1.373 . S
C542 C548 1.505 . S
C543 C542 1.379 . S
C543 C545 1.369 . S
C543 H554 0.930 . S
C544 C546 1.383 . S
C544 C547 1.382 . S
C544 H555 0.930 . S
C545 C543 1.369 . S
C545 C547 1.392 . S
C545 H556 0.930 . S
C546 C542 1.373 . S
C546 C544 1.383 . S
C546 H557 0.931 . S
C547 C544 1.382 . S
C547 C545 1.392 . S
C548 Eu519 2.828 . S
C548 O532 1.249 . S
C548 O533 1.244 . S
C548 C542 1.505 . S
C549 O536 1.258 . S
C549 O537 1.242 . S
H550 C522 0.930 . S
H551 C523 0.930 . S
H552 C524 0.930 . S
H553 C525 0.931 . S
H554 C543 0.930 . S
H555 C544 0.930 . S
H556 C545 0.930 . S
H557 C546 0.931 . S
C558 C559 1.391 . S
C558 C560 1.394 . S
C558 H574 0.931 . S
C559 C558 1.391 . S
C559 C563 1.376 . S
C560 C558 1.394 . S
C560 C561 1.369 . S
C560 C564 1.531 . S
C561 C560 1.369 . S
C561 C562 1.410 . S
C561 C569 1.503 . S
C562 C561 1.410 . S
C562 C563 1.392 . S
C562 C565 1.511 . S
C563 C559 1.376 . S
C563 C562 1.392 . S
C563 H575 0.929 . S
C564 C560 1.531 . S
C564 H576 0.960 . S
C564 H577 0.962 . S
C564 H578 0.960 . S
C565 C562 1.511 . S
C565 H579 0.961 . S
C565 H580 0.961 . S
C565 H581 0.961 . S
C566 C567 1.370 . S
C566 C568 1.363 . S
C566 H582 0.931 . S
C567 C566 1.370 . S
C567 C571 1.408 . S
C568 C566 1.363 . S
C568 C569 1.370 . S
C568 C572 1.524 . S
C569 C561 1.503 . S
C569 C568 1.370 . S
C569 C570 1.403 . S
C570 C569 1.403 . S
C570 C571 1.404 . S
C570 C573 1.539 1_554 S
C571 C567 1.408 . S
C571 C570 1.404 . S
C571 H583 0.930 1_554 S
C572 C568 1.524 . S
C572 H584 0.956 . S
C572 H585 0.961 . S
C572 H586 0.961 . S
C573 C570 1.539 1_556 S
C573 H587 0.958 . S
C573 H588 0.961 . S
C573 H589 0.960 . S
H574 C558 0.931 . S
H575 C563 0.929 . S
H576 C564 0.960 . S
H577 C564 0.962 . S
H578 C564 0.960 . S
H579 C565 0.961 . S
H580 C565 0.961 . S
H581 C565 0.961 . S
H582 C566 0.931 . S
H583 C571 0.930 1_556 S
H584 C572 0.956 . S
H585 C572 0.961 . S
H586 C572 0.961 . S
H587 C573 0.958 . S
H588 C573 0.961 . S
H589 C573 0.960 . S
C590 C591 1.391 . S
C590 C592 1.394 . S
C590 H606 0.931 . S
C591 C590 1.391 . S
C591 C595 1.376 . S
C592 C590 1.394 . S
C592 C593 1.369 . S
C592 C596 1.531 . S
C593 C592 1.369 . S
C593 C594 1.410 . S
C593 C601 1.503 . S
C594 C593 1.410 . S
C594 C595 1.392 . S
C594 C597 1.511 . S
C595 C591 1.376 . S
C595 C594 1.392 . S
C595 H607 0.929 . S
C596 C592 1.531 . S
C596 H608 0.960 . S
C596 H609 0.962 . S
C596 H610 0.960 . S
C597 C594 1.511 . S
C597 H611 0.961 . S
C597 H612 0.961 . S
C597 H613 0.961 . S
C598 C599 1.370 . S
C598 C600 1.363 . S
C598 H614 0.931 . S
C599 C598 1.370 . S
C599 C603 1.408 . S
C600 C598 1.363 . S
C600 C601 1.370 . S
C600 C604 1.524 . S
C601 C593 1.503 . S
C601 C600 1.370 . S
C601 C602 1.403 . S
C602 C601 1.403 . S
C602 C603 1.404 . S
C602 C605 1.539 . S
C603 C599 1.408 . S
C603 C602 1.404 . S
C603 H615 0.930 . S
C604 C600 1.524 . S
C604 H616 0.956 . S
C604 H617 0.961 . S
C604 H618 0.961 . S
C605 C602 1.539 . S
C605 H619 0.958 . S
C605 H620 0.961 . S
C605 H621 0.960 . S
H606 C590 0.931 . S
H607 C595 0.929 . S
H608 C596 0.960 . S
H609 C596 0.962 . S
H610 C596 0.960 . S
H611 C597 0.961 . S
H612 C597 0.961 . S
H613 C597 0.961 . S
H614 C598 0.931 . S
H615 C603 0.930 . S
H616 C604 0.956 . S
H617 C604 0.961 . S
H618 C604 0.961 . S
H619 C605 0.958 . S
H620 C605 0.961 . S
H621 C605 0.960 . S
C622 C623 1.391 . S
C622 C624 1.394 . S
C622 H638 0.931 . S
C623 C622 1.391 . S
C623 C627 1.376 . S
C624 C622 1.394 . S
C624 C625 1.369 . S
C624 C628 1.560 . S
C625 C624 1.369 . S
C625 C626 1.410 . S
C625 C633 1.503 . S
C626 C625 1.410 . S
C626 C627 1.392 . S
C626 C629 1.511 . S
C627 C623 1.376 . S
C627 C626 1.392 . S
C627 H639 0.929 . S
C628 C624 1.560 . S
C628 H640 0.939 1_554 S
C628 H641 1.001 . S
C628 H642 0.918 1_554 S
C629 C626 1.511 . S
C629 H643 0.961 . S
C629 H644 0.961 . S
C629 H645 0.961 . S
C630 C631 1.370 . S
C630 C632 1.363 . S
C630 H646 0.931 . S
C631 C630 1.370 . S
C631 C635 1.408 . S
C632 C630 1.363 . S
C632 C633 1.370 . S
C632 C636 1.524 . S
C633 C625 1.503 . S
C633 C632 1.370 . S
C633 C634 1.403 . S
C634 C633 1.403 . S
C634 C635 1.404 . S
C634 C637 1.539 1_554 S
C635 C631 1.408 . S
C635 C634 1.404 . S
C635 H647 0.930 1_554 S
C636 C632 1.524 . S
C636 H648 0.956 . S
C636 H649 0.961 . S
C636 H650 0.961 . S
C637 C634 1.539 1_556 S
C637 H651 0.958 . S
C637 H652 0.961 . S
C637 H653 0.960 . S
H638 C622 0.931 . S
H639 C627 0.929 . S
H640 C628 0.939 1_556 S
H641 C628 1.001 . S
H642 C628 0.918 1_556 S
H643 C629 0.961 . S
H644 C629 0.961 . S
H645 C629 0.961 . S
H646 C630 0.931 . S
H647 C635 0.930 1_556 S
H648 C636 0.956 . S
H649 C636 0.961 . S
H650 C636 0.961 . S
H651 C637 0.958 . S
H652 C637 0.961 . S
H653 C637 0.960 . S
C654 C655 1.391 . S
C654 C656 1.394 . S
C654 H670 0.931 1_556 S
C655 C654 1.391 . S
C655 C659 1.376 . S
C656 C654 1.394 . S
C656 C657 1.369 . S
C656 C660 1.531 1_556 S
C657 C656 1.369 . S
C657 C658 1.410 . S
C657 C665 1.503 . S
C658 C657 1.410 . S
C658 C659 1.392 . S
C658 C661 1.511 . S
C659 C655 1.376 . S
C659 C658 1.392 . S
C659 H671 0.929 . S
C660 C656 1.531 1_554 S
C660 H672 0.960 . S
C660 H673 0.962 . S
C660 H674 0.960 . S
C661 C658 1.511 . S
C661 H675 0.961 . S
C661 H676 0.961 . S
C661 H677 0.961 . S
C662 C663 1.370 . S
C662 C664 1.363 . S
C662 H678 0.931 . S
C663 C662 1.370 . S
C663 C667 1.414 . S
C664 C662 1.363 . S
C664 C665 1.370 . S
C664 C668 1.524 . S
C665 C657 1.503 . S
C665 C664 1.370 . S
C665 C666 1.403 . S
C666 C665 1.403 . S
C666 C667 1.406 . S
C666 C669 1.539 . S
C667 C663 1.414 . S
C667 C666 1.406 . S
C667 H679 0.924 1_556 S
C668 C664 1.524 . S
C668 H680 0.956 . S
C668 H681 0.961 . S
C668 H682 0.961 . S
C669 C666 1.539 . S
C669 H683 0.958 1_556 S
C669 H684 0.961 . S
C669 H685 0.960 . S
H670 C654 0.931 1_554 S
H671 C659 0.929 . S
H672 C660 0.960 . S
H673 C660 0.962 . S
H674 C660 0.960 . S
H675 C661 0.961 . S
H676 C661 0.961 . S
H677 C661 0.961 . S
H678 C662 0.931 . S
H679 C667 0.924 1_554 S
H680 C668 0.956 . S
H681 C668 0.961 . S
H682 C668 0.961 . S
H683 C669 0.958 1_554 S
H684 C669 0.961 . S
H685 C669 0.960 . S
C686 C687 1.391 . S
C686 C688 1.394 . S
C686 H702 0.931 . S
C687 C686 1.391 . S
C687 C691 1.376 . S
C688 C686 1.394 . S
C688 C689 1.369 . S
C688 C692 1.531 . S
C689 C688 1.369 . S
C689 C690 1.410 . S
C689 C697 1.503 . S
C690 C689 1.410 . S
C690 C691 1.392 . S
C690 C693 1.511 . S
C691 C687 1.376 . S
C691 C690 1.392 . S
C691 H703 0.929 . S
C692 C688 1.531 . S
C692 H704 0.960 . S
C692 H705 0.962 . S
C692 H706 0.960 . S
C693 C690 1.511 . S
C693 H707 0.961 1_556 S
C693 H708 0.962 1_556 S
C693 H709 0.961 . S
C694 C695 1.370 . S
C694 C696 1.363 . S
C694 H710 0.931 . S
C695 C694 1.370 . S
C695 C699 1.408 . S
C696 C694 1.363 . S
C696 C697 1.370 . S
C696 C700 1.524 . S
C697 C689 1.503 . S
C697 C696 1.370 . S
C697 C698 1.403 . S
C698 C697 1.403 . S
C698 C699 1.404 . S
C698 C701 1.539 . S
C699 C695 1.408 . S
C699 C698 1.404 . S
C699 H711 0.930 . S
C700 C696 1.524 . S
C700 H712 0.956 . S
C700 H713 0.961 . S
C700 H714 1.000 . S
C701 C698 1.539 . S
C701 H715 0.958 . S
C701 H716 0.961 . S
C701 H717 0.960 . S
H702 C686 0.931 . S
H703 C691 0.929 . S
H704 C692 0.960 . S
H705 C692 0.962 . S
H706 C692 0.960 . S
H707 C693 0.961 1_554 S
H708 C693 0.962 1_554 S
H709 C693 0.961 . S
H710 C694 0.931 . S
H711 C699 0.930 . S
H712 C700 0.956 . S
H713 C700 0.961 . S
H714 C700 1.000 . S
H715 C701 0.958 . S
H716 C701 0.961 . S
H717 C701 0.960 . S
C718 C719 1.391 1_554 S
C718 C720 1.394 . S
C718 H734 0.931 . S
C719 C718 1.391 1_556 S
C719 C723 1.376 . S
C720 C718 1.394 . S
C720 C721 1.369 1_554 S
C720 C724 1.531 . S
C721 C720 1.369 1_556 S
C721 C722 1.410 . S
C721 C729 1.503 . S
C722 C721 1.410 . S
C722 C723 1.392 . S
C722 C725 1.511 . S
C723 C719 1.376 . S
C723 C722 1.392 . S
C723 H735 0.929 . S
C724 C720 1.531 . S
C724 H736 0.960 . S
C724 H737 0.962 . S
C724 H738 0.960 . S
C725 C722 1.511 . S
C725 H739 0.961 . S
C725 H740 0.961 . S
C725 H741 0.961 . S
C726 C727 1.370 . S
C726 C728 1.363 . S
C726 H742 0.931 . S
C727 C726 1.370 . S
C727 C731 1.408 1_554 S
C728 C726 1.363 . S
C728 C729 1.370 1_554 S
C728 C732 1.524 . S
C729 C721 1.503 . S
C729 C728 1.370 1_556 S
C729 C730 1.403 . S
C730 C729 1.403 . S
C730 C731 1.404 . S
C730 C733 1.539 . S
C731 C727 1.408 1_556 S
C731 C730 1.404 . S
C731 H743 0.930 . S
C732 C728 1.524 . S
C732 H744 0.956 . S
C732 H745 0.961 . S
C732 H746 0.961 . S
C733 C730 1.539 . S
C733 H747 0.958 . S
C733 H748 0.961 . S
C733 H749 0.960 . S
H734 C718 0.931 . S
H735 C723 0.929 . S
H736 C724 0.960 . S
H737 C724 0.962 . S
H738 C724 0.960 . S
H739 C725 0.961 . S
H740 C725 0.961 . S
H741 C725 0.961 . S
H742 C726 0.931 . S
H743 C731 0.930 . S
H744 C732 0.956 . S
H745 C732 0.961 . S
H746 C732 0.961 . S
H747 C733 0.958 . S
H748 C733 0.961 . S
H749 C733 0.960 . S
C750 C751 1.391 . S
C750 C752 1.394 . S
C750 H766 0.931 . S
C751 C750 1.391 . S
C751 C755 1.376 . S
C752 C750 1.394 . S
C752 C753 1.369 . S
C752 C756 1.531 1_556 S
C753 C752 1.369 . S
C753 C754 1.410 . S
C753 C761 1.503 . S
C754 C753 1.410 . S
C754 C755 1.392 . S
C754 C757 1.511 . S
C755 C751 1.376 . S
C755 C754 1.392 . S
C755 H767 0.929 . S
C756 C752 1.531 1_554 S
C756 H768 0.960 . S
C756 H769 0.962 . S
C756 H770 0.960 . S
C757 C754 1.511 . S
C757 H771 0.961 . S
C757 H772 0.961 . S
C757 H773 0.961 . S
C758 C759 1.370 . S
C758 C760 1.363 . S
C758 H774 0.931 . S
C759 C758 1.370 . S
C759 C763 1.408 1_556 S
C760 C758 1.363 . S
C760 C761 1.370 . S
C760 C764 1.524 . S
C761 C753 1.503 . S
C761 C760 1.370 . S
C761 C762 1.401 1_556 S
C762 C761 1.401 1_554 S
C762 C763 1.405 . S
C762 C765 1.540 . S
C763 C759 1.408 1_554 S
C763 C762 1.405 . S
C763 H775 0.930 . S
C764 C760 1.524 . S
C764 H776 0.956 . S
C764 H777 0.961 . S
C764 H778 0.961 . S
C765 C762 1.540 . S
C765 H779 0.958 . S
C765 H780 0.961 . S
C765 H781 0.960 . S
H766 C750 0.931 . S
H767 C755 0.929 . S
H768 C756 0.960 . S
H769 C756 0.962 . S
H770 C756 0.960 . S
H771 C757 0.961 . S
H772 C757 0.961 . S
H773 C757 0.961 . S
H774 C758 0.931 . S
H775 C763 0.930 . S
H776 C764 0.956 . S
H777 C764 0.961 . S
H778 C764 0.961 . S
H779 C765 0.958 . S
H780 C765 0.961 . S
H781 C765 0.960 . S
C782 C783 1.391 . S
C782 C784 1.394 . S
C782 H798 0.931 . S
C783 C782 1.391 . S
C783 C787 1.376 . S
C784 C782 1.394 . S
C784 C785 1.369 . S
C784 C788 1.531 . S
C785 C784 1.369 . S
C785 C786 1.410 . S
C785 C793 1.503 . S
C786 C785 1.410 . S
C786 C787 1.392 . S
C786 C789 1.511 . S
C787 C783 1.376 . S
C787 C786 1.392 . S
C787 H799 0.929 . S
C788 C784 1.531 . S
C788 H800 0.960 . S
C788 H801 0.962 . S
C788 H802 0.960 . S
C789 C786 1.511 . S
C789 H803 0.961 . S
C789 H804 0.961 . S
C789 H805 0.961 . S
C790 C791 1.370 . S
C790 C792 1.363 . S
C790 H806 0.931 . S
C791 C790 1.370 . S
C791 C795 1.408 1_556 S
C792 C790 1.363 . S
C792 C793 1.370 . S
C792 C796 1.524 . S
C793 C785 1.503 . S
C793 C792 1.370 . S
C793 C794 1.403 1_556 S
C794 C793 1.403 1_554 S
C794 C795 1.404 . S
C794 C797 1.539 . S
C795 C791 1.408 1_554 S
C795 C794 1.404 . S
C795 H807 0.930 . S
C796 C792 1.524 . S
C796 H808 0.956 . S
C796 H809 0.961 . S
C796 H810 0.961 . S
C797 C794 1.539 . S
C797 H811 0.958 . S
C797 H812 0.961 . S
C797 H813 0.960 . S
H798 C782 0.931 . S
H799 C787 0.929 . S
H800 C788 0.960 . S
H801 C788 0.962 . S
H802 C788 0.960 . S
H803 C789 0.961 . S
H804 C789 0.961 . S
H805 C789 0.961 . S
H806 C790 0.931 . S
H807 C795 0.930 . S
H808 C796 0.956 . S
H809 C796 0.961 . S
H810 C796 0.961 . S
H811 C797 0.958 . S
H812 C797 0.961 . S
H813 C797 0.960 . S
C814 C815 1.391 . S
C814 C816 1.394 1_556 S
C814 H830 0.931 1_556 S
C815 C814 1.391 . S
C815 C819 1.376 . S
C816 C814 1.394 1_554 S
C816 C817 1.367 1_554 S
C816 C820 1.532 . S
C817 C816 1.367 1_556 S
C817 C818 1.410 . S
C817 C825 1.503 . S
C818 C817 1.410 . S
C818 C819 1.392 . S
C818 C821 1.511 . S
C819 C815 1.376 . S
C819 C818 1.392 . S
C819 H831 0.929 . S
C820 C816 1.532 . S
C820 H832 0.960 . S
C820 H833 0.962 . S
C820 H834 0.960 . S
C821 C818 1.511 . S
C821 H835 0.961 . S
C821 H836 0.961 . S
C821 H837 0.961 . S
C822 C823 1.370 . S
C822 C824 1.363 . S
C822 H838 0.931 . S
C823 C822 1.370 . S
C823 C827 1.408 1_556 S
C824 C822 1.363 . S
C824 C825 1.370 . S
C824 C828 1.524 . S
C825 C817 1.503 . S
C825 C824 1.370 . S
C825 C826 1.403 1_556 S
C826 C825 1.403 1_554 S
C826 C827 1.404 . S
C826 C829 1.539 . S
C827 C823 1.408 1_554 S
C827 C826 1.404 . S
C827 H839 0.930 . S
C828 C824 1.524 . S
C828 H840 0.956 . S
C828 H841 0.961 . S
C828 H842 0.961 . S
C829 C826 1.539 . S
C829 H843 0.958 . S
C829 H844 0.961 . S
C829 H845 0.960 . S
H830 C814 0.931 1_554 S
H831 C819 0.929 . S
H832 C820 0.960 . S
H833 C820 0.962 . S
H834 C820 0.960 . S
H835 C821 0.961 . S
H836 C821 0.961 . S
H837 C821 0.961 . S
H838 C822 0.931 . S
H839 C827 0.930 . S
H840 C828 0.956 . S
H841 C828 0.961 . S
H842 C828 0.961 . S
H843 C829 0.958 . S
H844 C829 0.961 . S
H845 C829 0.960 . S
C846 C847 1.391 . S
C846 C848 1.394 . S
C846 H862 0.931 . S
C847 C846 1.391 . S
C847 C851 1.376 . S
C848 C846 1.394 . S
C848 C849 1.369 . S
C848 C852 1.531 . S
C849 C848 1.369 . S
C849 C850 1.410 . S
C849 C857 1.503 . S
C850 C849 1.410 . S
C850 C851 1.392 . S
C850 C853 1.511 . S
C851 C847 1.376 . S
C851 C850 1.392 . S
C851 H863 0.929 . S
C852 C848 1.531 . S
C852 H864 0.960 . S
C852 H865 0.962 . S
C852 H866 0.960 . S
C853 C850 1.511 . S
C853 H867 0.961 . S
C853 H868 0.961 . S
C853 H869 0.961 . S
C854 C855 1.370 . S
C854 C856 1.363 . S
C854 H870 0.931 . S
C855 C854 1.370 . S
C855 C859 1.408 . S
C856 C854 1.363 . S
C856 C857 1.370 . S
C856 C860 1.524 . S
C857 C849 1.503 . S
C857 C856 1.370 . S
C857 C858 1.403 . S
C858 C857 1.403 . S
C858 C859 1.404 . S
C858 C861 1.539 . S
C859 C855 1.408 . S
C859 C858 1.404 . S
C859 H871 0.930 . S
C860 C856 1.524 . S
C860 H872 0.956 . S
C860 H873 0.961 . S
C860 H874 0.961 1_554 S
C861 C858 1.539 . S
C861 H875 0.958 . S
C861 H876 0.961 . S
C861 H877 0.960 . S
H862 C846 0.931 . S
H863 C851 0.929 . S
H864 C852 0.960 . S
H865 C852 0.962 . S
H866 C852 0.960 . S
H867 C853 0.961 . S
H868 C853 0.961 . S
H869 C853 0.961 . S
H870 C854 0.931 . S
H871 C859 0.930 . S
H872 C860 0.956 . S
H873 C860 0.961 . S
H874 C860 0.961 1_556 S
H875 C861 0.958 . S
H876 C861 0.961 . S
H877 C861 0.960 . S
C878 C879 1.391 . S
C878 C880 1.394 . S
C878 H894 0.931 . S
C879 C878 1.391 . S
C879 C883 1.376 . S
C880 C878 1.394 . S
C880 C881 1.369 . S
C880 C884 1.531 . S
C881 C880 1.369 . S
C881 C882 1.410 . S
C881 C889 1.503 . S
C882 C881 1.410 . S
C882 C883 1.392 . S
C882 C885 1.511 . S
C883 C879 1.376 . S
C883 C882 1.392 . S
C883 H895 0.929 . S
C884 C880 1.531 . S
C884 H896 0.960 . S
C884 H897 0.962 . S
C884 H898 0.960 . S
C885 C882 1.511 . S
C885 H899 0.961 . S
C885 H900 0.961 . S
C885 H901 0.961 . S
C886 C887 1.370 . S
C886 C888 1.363 . S
C886 H902 0.931 . S
C887 C886 1.370 . S
C887 C891 1.408 . S
C888 C886 1.363 . S
C888 C889 1.370 . S
C888 C892 1.524 . S
C889 C881 1.503 . S
C889 C888 1.370 . S
C889 C890 1.403 . S
C890 C889 1.403 . S
C890 C891 1.404 . S
C890 C893 1.539 . S
C891 C887 1.408 . S
C891 C890 1.404 . S
C891 H903 0.930 . S
C892 C888 1.524 . S
C892 H904 0.956 . S
C892 H905 0.961 . S
C892 H906 0.961 . S
C893 C890 1.539 . S
C893 H907 0.958 . S
C893 H908 0.961 . S
C893 H909 0.960 . S
H894 C878 0.931 . S
H895 C883 0.929 . S
H896 C884 0.960 . S
H897 C884 0.962 . S
H898 C884 0.960 . S
H899 C885 0.961 . S
H900 C885 0.961 . S
H901 C885 0.961 . S
H902 C886 0.931 . S
H903 C891 0.930 . S
H904 C892 0.956 . S
H905 C892 0.961 . S
H906 C892 0.961 . S
H907 C893 0.958 . S
H908 C893 0.961 . S
H909 C893 0.960 . S
C910 C911 1.391 . S
C910 C912 1.394 . S
C910 H926 0.931 . S
C911 C910 1.391 . S
C911 C915 1.376 . S
C912 C910 1.394 . S
C912 C913 1.369 . S
C912 C916 1.531 . S
C913 C912 1.369 . S
C913 C914 1.410 . S
C913 C921 1.503 . S
C914 C913 1.410 . S
C914 C915 1.392 . S
C914 C917 1.511 . S
C915 C911 1.376 . S
C915 C914 1.392 . S
C915 H927 0.929 . S
C916 C912 1.531 . S
C916 H928 0.960 . S
C916 H929 0.962 . S
C916 H930 0.960 . S
C917 C914 1.511 . S
C917 H931 0.961 . S
C917 H932 0.961 . S
C917 H933 0.961 . S
C918 C919 1.405 . S
C918 C920 1.380 . S
C918 H934 0.881 1_554 S
C919 C918 1.405 . S
C919 C923 1.408 . S
C920 C918 1.380 . S
C920 C921 1.370 . S
C920 C924 1.524 1_554 S
C921 C913 1.503 . S
C921 C920 1.370 . S
C921 C922 1.403 . S
C922 C921 1.403 . S
C922 C923 1.404 . S
C922 C925 1.539 . S
C923 C919 1.408 . S
C923 C922 1.404 . S
C923 H935 0.930 . S
C924 C920 1.524 1_556 S
C924 H936 0.956 . S
C924 H937 0.961 . S
C924 H938 0.961 . S
C925 C922 1.539 . S
C925 H939 0.958 . S
C925 H940 0.961 . S
C925 H941 0.960 . S
H926 C910 0.931 . S
H927 C915 0.929 . S
H928 C916 0.960 . S
H929 C916 0.962 . S
H930 C916 0.960 . S
H931 C917 0.961 . S
H932 C917 0.961 . S
H933 C917 0.961 . S
H934 C918 0.881 1_556 S
H935 C923 0.930 . S
H936 C924 0.956 . S
H937 C924 0.961 . S
H938 C924 0.961 . S
H939 C925 0.958 . S
H940 C925 0.961 . S
H941 C925 0.960 . S
C942 C943 1.391 . S
C942 C944 1.394 1_655 S
C942 H958 0.931 . S
C943 C942 1.391 . S
C943 C947 1.376 . S
C944 C942 1.394 1_455 S
C944 C945 1.369 . S
C944 C948 1.531 . S
C945 C944 1.369 . S
C945 C946 1.410 1_455 S
C945 C953 1.503 . S
C946 C945 1.410 1_655 S
C946 C947 1.392 . S
C946 C949 1.511 1_655 S
C947 C943 1.376 . S
C947 C946 1.392 . S
C947 H959 0.929 . S
C948 C944 1.531 . S
C948 H960 0.960 . S
C948 H961 0.962 . S
C948 H962 0.960 . S
C949 C946 1.511 1_455 S
C949 H963 0.961 1_455 S
C949 H964 0.961 . S
C949 H965 0.958 1_455 S
C950 C951 1.370 . S
C950 C952 1.363 . S
C950 H966 0.931 . S
C951 C950 1.370 . S
C951 C955 1.408 . S
C952 C950 1.363 . S
C952 C953 1.370 . S
C952 C956 1.524 . S
C953 C945 1.503 . S
C953 C952 1.370 . S
C953 C954 1.403 . S
C954 C953 1.403 . S
C954 C955 1.404 . S
C954 C957 1.539 . S
C955 C951 1.408 . S
C955 C954 1.404 . S
C955 H967 0.930 . S
C956 C952 1.524 . S
C956 H968 0.956 . S
C956 H969 0.961 . S
C956 H970 0.961 . S
C957 C954 1.539 . S
C957 H971 0.958 . S
C957 H972 0.961 . S
C957 H973 0.960 . S
H958 C942 0.931 . S
H959 C947 0.929 . S
H960 C948 0.960 . S
H961 C948 0.962 . S
H962 C948 0.960 . S
H963 C949 0.961 1_655 S
H964 C949 0.961 . S
H965 C949 0.958 1_655 S
H966 C950 0.931 . S
H967 C955 0.930 . S
H968 C956 0.956 . S
H969 C956 0.961 . S
H970 C956 0.961 . S
H971 C957 0.958 . S
H972 C957 0.961 . S
H973 C957 0.960 . S
C974 C975 1.391 . S
C974 C976 1.394 . S
C974 H990 0.931 . S
C975 C974 1.391 . S
C975 C979 1.376 . S
C976 C974 1.394 . S
C976 C977 1.369 . S
C976 C980 1.531 . S
C977 C976 1.369 . S
C977 C978 1.410 . S
C977 C985 1.503 . S
C978 C977 1.410 . S
C978 C979 1.392 . S
C978 C981 1.511 . S
C979 C975 1.376 . S
C979 C978 1.392 . S
C979 H991 0.929 . S
C980 C976 1.531 . S
C980 H992 0.960 . S
C980 H993 0.962 . S
C980 H994 0.960 . S
C981 C978 1.511 . S
C981 H995 0.961 . S
C981 H996 0.961 . S
C981 H997 0.961 . S
C982 C983 1.370 . S
C982 C984 1.363 . S
C982 H998 0.931 . S
C983 C982 1.370 . S
C983 C987 1.408 . S
C984 C982 1.363 . S
C984 C985 1.370 . S
C984 C988 1.524 . S
C985 C977 1.503 . S
C985 C984 1.370 . S
C985 C986 1.403 . S
C986 C985 1.403 . S
C986 C987 1.404 . S
C986 C989 1.539 . S
C987 C983 1.408 . S
C987 C986 1.404 . S
C987 H999 0.930 . S
C988 C984 1.524 . S
C988 H1000 0.956 . S
C988 H1001 0.961 . S
C988 H1002 0.961 . S
C989 C986 1.539 . S
C989 H1003 0.958 . S
C989 H1004 0.961 . S
C989 H1005 0.960 . S
H990 C974 0.931 . S
H991 C979 0.929 . S
H992 C980 0.960 . S
H993 C980 0.962 . S
H994 C980 0.960 . S
H995 C981 0.961 . S
H996 C981 0.961 . S
H997 C981 0.961 . S
H998 C982 0.931 . S
H999 C987 0.930 . S
H1000 C988 0.956 . S
H1001 C988 0.961 . S
H1002 C988 0.961 . S
H1003 C989 0.958 . S
H1004 C989 0.961 . S
H1005 C989 0.960 . S
C1006 C1007 1.391 . S
C1006 C1008 1.394 . S
C1006 H1022 0.931 . S
C1007 C1006 1.391 . S
C1007 C1011 1.376 . S
C1008 C1006 1.394 . S
C1008 C1009 1.369 . S
C1008 C1012 1.521 1_545 S
C1009 C1008 1.369 . S
C1009 C1010 1.410 . S
C1009 C1017 1.503 1_545 S
C1010 C1009 1.410 . S
C1010 C1011 1.392 . S
C1010 C1013 1.511 . S
C1011 C1007 1.376 . S
C1011 C1010 1.392 . S
C1011 H1023 0.929 . S
C1012 C1008 1.521 1_565 S
C1012 H1024 0.974 . S
C1012 H1025 0.975 . S
C1012 H1026 0.943 1_565 S
C1013 C1010 1.511 . S
C1013 H1027 0.961 . S
C1013 H1028 0.961 1_545 S
C1013 H1029 0.956 . S
C1014 C1015 1.370 . S
C1014 C1016 1.363 . S
C1014 H1030 0.931 . S
C1015 C1014 1.370 . S
C1015 C1019 1.408 . S
C1016 C1014 1.363 . S
C1016 C1017 1.370 . S
C1016 C1020 1.524 . S
C1017 C1009 1.503 1_565 S
C1017 C1016 1.370 . S
C1017 C1018 1.403 . S
C1018 C1017 1.403 . S
C1018 C1019 1.404 . S
C1018 C1021 1.539 . S
C1019 C1015 1.408 . S
C1019 C1018 1.404 . S
C1019 H1031 0.930 . S
C1020 C1016 1.524 . S
C1020 H1032 0.956 . S
C1020 H1033 0.984 . S
C1020 H1034 0.961 . S
C1021 C1018 1.539 . S
C1021 H1035 0.958 . S
C1021 H1036 0.961 . S
C1021 H1037 0.960 . S
H1022 C1006 0.931 . S
H1023 C1011 0.929 . S
H1024 C1012 0.974 . S
H1025 C1012 0.975 . S
H1026 C1012 0.943 1_545 S
H1027 C1013 0.961 . S
H1028 C1013 0.961 1_565 S
H1029 C1013 0.956 . S
H1030 C1014 0.931 . S
H1031 C1019 0.930 . S
H1032 C1020 0.956 . S
H1033 C1020 0.984 . S
H1034 C1020 0.961 . S
H1035 C1021 0.958 . S
H1036 C1021 0.961 . S
H1037 C1021 0.960 . S
C1038 C1039 1.391 . S
C1038 C1040 1.394 . S
C1038 H1054 0.931 . S
C1039 C1038 1.391 . S
C1039 C1043 1.376 . S
C1040 C1038 1.394 . S
C1040 C1041 1.369 . S
C1040 C1044 1.531 . S
C1041 C1040 1.369 . S
C1041 C1042 1.410 . S
C1041 C1049 1.503 . S
C1042 C1041 1.410 . S
C1042 C1043 1.392 . S
C1042 C1045 1.511 . S
C1043 C1039 1.376 . S
C1043 C1042 1.392 . S
C1043 H1055 0.929 . S
C1044 C1040 1.531 . S
C1044 H1056 0.960 . S
C1044 H1057 0.962 . S
C1044 H1058 0.960 . S
C1045 C1042 1.511 . S
C1045 H1059 0.961 . S
C1045 H1060 0.961 . S
C1045 H1061 0.961 . S
C1046 C1047 1.370 . S
C1046 C1048 1.363 . S
C1046 H1062 0.931 . S
C1047 C1046 1.370 . S
C1047 C1051 1.408 . S
C1048 C1046 1.363 . S
C1048 C1049 1.370 . S
C1048 C1052 1.524 . S
C1049 C1041 1.503 . S
C1049 C1048 1.370 . S
C1049 C1050 1.403 . S
C1050 C1049 1.403 . S
C1050 C1051 1.404 . S
C1050 C1053 1.539 . S
C1051 C1047 1.408 . S
C1051 C1050 1.404 . S
C1051 H1063 0.930 . S
C1052 C1048 1.524 . S
C1052 H1064 0.956 . S
C1052 H1065 0.961 . S
C1052 H1066 0.961 . S
C1053 C1050 1.539 . S
C1053 H1067 0.958 . S
C1053 H1068 0.961 . S
C1053 H1069 0.960 . S
H1054 C1038 0.931 . S
H1055 C1043 0.929 . S
H1056 C1044 0.960 . S
H1057 C1044 0.962 . S
H1058 C1044 0.960 . S
H1059 C1045 0.961 . S
H1060 C1045 0.961 . S
H1061 C1045 0.961 . S
H1062 C1046 0.931 . S
H1063 C1051 0.930 . S
H1064 C1052 0.956 . S
H1065 C1052 0.961 . S
H1066 C1052 0.961 . S
H1067 C1053 0.958 . S
H1068 C1053 0.961 . S
H1069 C1053 0.960 . S
C1070 C1071 1.391 . S
C1070 C1072 1.394 . S
C1070 H1086 0.931 . S
C1071 C1070 1.391 . S
C1071 C1075 1.376 . S
C1072 C1070 1.394 . S
C1072 C1073 1.369 . S
C1072 C1076 1.531 . S
C1073 C1072 1.369 . S
C1073 C1074 1.410 . S
C1073 C1081 1.503 . S
C1074 C1073 1.410 . S
C1074 C1075 1.392 . S
C1074 C1077 1.511 . S
C1075 C1071 1.376 . S
C1075 C1074 1.392 . S
C1075 H1087 0.929 . S
C1076 C1072 1.531 . S
C1076 H1088 0.960 . S
C1076 H1089 0.962 . S
C1076 H1090 0.960 . S
C1077 C1074 1.511 . S
C1077 H1091 0.961 . S
C1077 H1092 0.961 . S
C1077 H1093 0.961 . S
C1078 C1079 1.370 . S
C1078 C1080 1.363 . S
C1078 H1094 0.931 . S
C1079 C1078 1.370 . S
C1079 C1083 1.408 . S
C1080 C1078 1.363 . S
C1080 C1081 1.370 . S
C1080 C1084 1.524 . S
C1081 C1073 1.503 . S
C1081 C1080 1.370 . S
C1081 C1082 1.403 . S
C1082 C1081 1.403 . S
C1082 C1083 1.404 . S
C1082 C1085 1.539 . S
C1083 C1079 1.408 . S
C1083 C1082 1.404 . S
C1083 H1095 0.930 . S
C1084 C1080 1.524 . S
C1084 H1096 0.956 . S
C1084 H1097 0.961 . S
C1084 H1098 0.961 . S
C1085 C1082 1.539 . S
C1085 H1099 0.958 . S
C1085 H1100 0.961 . S
C1085 H1101 0.960 . S
H1086 C1070 0.931 . S
H1087 C1075 0.929 . S
H1088 C1076 0.960 . S
H1089 C1076 0.962 . S
H1090 C1076 0.960 . S
H1091 C1077 0.961 . S
H1092 C1077 0.961 . S
H1093 C1077 0.961 . S
H1094 C1078 0.931 . S
H1095 C1083 0.930 . S
H1096 C1084 0.956 . S
H1097 C1084 0.961 . S
H1098 C1084 0.961 . S
H1099 C1085 0.958 . S
H1100 C1085 0.961 . S
H1101 C1085 0.960 . S
C1102 C1103 1.391 . S
C1102 C1104 1.394 . S
C1102 H1118 0.931 . S
C1103 C1102 1.391 . S
C1103 C1107 1.376 . S
C1104 C1102 1.394 . S
C1104 C1105 1.369 . S
C1104 C1108 1.531 . S
C1105 C1104 1.369 . S
C1105 C1106 1.410 . S
C1105 C1113 1.503 . S
C1106 C1105 1.410 . S
C1106 C1107 1.392 . S
C1106 C1109 1.511 . S
C1107 C1103 1.376 . S
C1107 C1106 1.392 . S
C1107 H1119 0.929 . S
C1108 C1104 1.531 . S
C1108 H1120 0.960 . S
C1108 H1121 0.962 . S
C1108 H1122 0.960 . S
C1109 C1106 1.511 . S
C1109 H1123 0.961 . S
C1109 H1124 0.961 . S
C1109 H1125 0.961 . S
C1110 C1111 1.370 . S
C1110 C1112 1.363 . S
C1110 H1126 0.931 . S
C1111 C1110 1.370 . S
C1111 C1115 1.408 . S
C1112 C1110 1.363 . S
C1112 C1113 1.370 . S
C1112 C1116 1.524 . S
C1113 C1105 1.503 . S
C1113 C1112 1.370 . S
C1113 C1114 1.403 . S
C1114 C1113 1.403 . S
C1114 C1115 1.404 . S
C1114 C1117 1.539 . S
C1115 C1111 1.408 . S
C1115 C1114 1.404 . S
C1115 H1127 0.930 . S
C1116 C1112 1.524 . S
C1116 H1128 0.956 . S
C1116 H1129 0.961 . S
C1116 H1130 0.961 . S
C1117 C1114 1.539 . S
C1117 H1131 0.958 . S
C1117 H1132 0.961 . S
C1117 H1133 0.960 . S
H1118 C1102 0.931 . S
H1119 C1107 0.929 . S
H1120 C1108 0.960 . S
H1121 C1108 0.962 . S
H1122 C1108 0.960 . S
H1123 C1109 0.961 . S
H1124 C1109 0.961 . S
H1125 C1109 0.961 . S
H1126 C1110 0.931 . S
H1127 C1115 0.930 . S
H1128 C1116 0.956 . S
H1129 C1116 0.961 . S
H1130 C1116 0.961 . S
H1131 C1117 0.958 . S
H1132 C1117 0.961 . S
H1133 C1117 0.960 . S
C1134 C1135 1.391 . S
C1134 C1136 1.394 . S
C1134 H1150 0.931 . S
C1135 C1134 1.391 . S
C1135 C1139 1.376 . S
C1136 C1134 1.394 . S
C1136 C1137 1.369 . S
C1136 C1140 1.531 . S
C1137 C1136 1.369 . S
C1137 C1138 1.410 . S
C1137 C1145 1.503 . S
C1138 C1137 1.410 . S
C1138 C1139 1.392 . S
C1138 C1141 1.511 . S
C1139 C1135 1.376 . S
C1139 C1138 1.392 . S
C1139 H1151 0.929 . S
C1140 C1136 1.531 . S
C1140 H1152 0.960 . S
C1140 H1153 0.962 . S
C1140 H1154 0.960 . S
C1141 C1138 1.511 . S
C1141 H1155 0.961 . S
C1141 H1156 0.961 . S
C1141 H1157 0.961 . S
C1142 C1143 1.370 . S
C1142 C1144 1.363 . S
C1142 H1158 0.931 . S
C1143 C1142 1.370 . S
C1143 C1147 1.408 . S
C1144 C1142 1.363 . S
C1144 C1145 1.370 . S
C1144 C1148 1.524 . S
C1145 C1137 1.503 . S
C1145 C1144 1.370 . S
C1145 C1146 1.403 . S
C1146 C1145 1.403 . S
C1146 C1147 1.404 . S
C1146 C1149 1.539 . S
C1147 C1143 1.408 . S
C1147 C1146 1.404 . S
C1147 H1159 0.930 . S
C1148 C1144 1.524 . S
C1148 H1160 0.956 . S
C1148 H1161 0.961 . S
C1148 H1162 0.961 . S
C1149 C1146 1.539 . S
C1149 H1163 0.958 . S
C1149 H1164 0.961 . S
C1149 H1165 0.960 . S
H1150 C1134 0.931 . S
H1151 C1139 0.929 . S
H1152 C1140 0.960 . S
H1153 C1140 0.962 . S
H1154 C1140 0.960 . S
H1155 C1141 0.961 . S
H1156 C1141 0.961 . S
H1157 C1141 0.961 . S
H1158 C1142 0.931 . S
H1159 C1147 0.930 . S
H1160 C1148 0.956 . S
H1161 C1148 0.961 . S
H1162 C1148 0.961 . S
H1163 C1149 0.958 . S
H1164 C1149 0.961 . S
H1165 C1149 0.960 . S
C1166 C1167 1.391 . S
C1166 C1168 1.394 . S
C1166 H1182 0.931 . S
C1167 C1166 1.391 . S
C1167 C1171 1.376 . S
C1168 C1166 1.394 . S
C1168 C1169 1.369 . S
C1168 C1172 1.531 . S
C1169 C1168 1.369 . S
C1169 C1170 1.410 . S
C1169 C1177 1.503 . S
C1170 C1169 1.410 . S
C1170 C1171 1.392 . S
C1170 C1173 1.511 . S
C1171 C1167 1.376 . S
C1171 C1170 1.392 . S
C1171 H1183 0.929 . S
C1172 C1168 1.531 . S
C1172 H1184 0.960 . S
C1172 H1185 0.962 . S
C1172 H1186 0.960 . S
C1173 C1170 1.511 . S
C1173 H1187 0.961 . S
C1173 H1188 0.961 . S
C1173 H1189 0.961 . S
C1174 C1175 1.370 . S
C1174 C1176 1.363 . S
C1174 H1190 0.931 . S
C1175 C1174 1.370 . S
C1175 C1179 1.408 . S
C1176 C1174 1.363 . S
C1176 C1177 1.370 . S
C1176 C1180 1.524 . S
C1177 C1169 1.503 . S
C1177 C1176 1.370 . S
C1177 C1178 1.403 . S
C1178 C1177 1.403 . S
C1178 C1179 1.404 . S
C1178 C1181 1.539 . S
C1179 C1175 1.408 . S
C1179 C1178 1.404 . S
C1179 H1191 0.930 . S
C1180 C1176 1.524 . S
C1180 H1192 0.956 . S
C1180 H1193 0.961 . S
C1180 H1194 0.961 . S
C1181 C1178 1.539 . S
C1181 H1195 0.958 . S
C1181 H1196 0.961 . S
C1181 H1197 0.960 . S
H1182 C1166 0.931 . S
H1183 C1171 0.929 . S
H1184 C1172 0.960 . S
H1185 C1172 0.962 . S
H1186 C1172 0.960 . S
H1187 C1173 0.961 . S
H1188 C1173 0.961 . S
H1189 C1173 0.961 . S
H1190 C1174 0.931 . S
H1191 C1179 0.930 . S
H1192 C1180 0.956 . S
H1193 C1180 0.961 . S
H1194 C1180 0.961 . S
H1195 C1181 0.958 . S
H1196 C1181 0.961 . S
H1197 C1181 0.960 . S
C1198 C1199 1.391 . S
C1198 C1200 1.394 . S
C1198 H1214 0.931 . S
C1199 C1198 1.391 . S
C1199 C1203 1.376 . S
C1200 C1198 1.394 . S
C1200 C1201 1.369 . S
C1200 C1204 1.531 . S
C1201 C1200 1.369 . S
C1201 C1202 1.410 . S
C1201 C1209 1.503 . S
C1202 C1201 1.410 . S
C1202 C1203 1.392 . S
C1202 C1205 1.511 . S
C1203 C1199 1.376 . S
C1203 C1202 1.392 . S
C1203 H1215 0.929 . S
C1204 C1200 1.531 . S
C1204 H1216 0.960 . S
C1204 H1217 0.962 . S
C1204 H1218 0.960 . S
C1205 C1202 1.511 . S
C1205 H1219 0.961 . S
C1205 H1220 0.961 . S
C1205 H1221 0.961 . S
C1206 C1207 1.370 . S
C1206 C1208 1.363 . S
C1206 H1222 0.931 . S
C1207 C1206 1.370 . S
C1207 C1211 1.408 . S
C1208 C1206 1.363 . S
C1208 C1209 1.370 . S
C1208 C1212 1.524 . S
C1209 C1201 1.503 . S
C1209 C1208 1.370 . S
C1209 C1210 1.403 . S
C1210 C1209 1.403 . S
C1210 C1211 1.404 . S
C1210 C1213 1.539 . S
C1211 C1207 1.408 . S
C1211 C1210 1.404 . S
C1211 H1223 0.930 . S
C1212 C1208 1.524 . S
C1212 H1224 0.956 . S
C1212 H1225 0.961 . S
C1212 H1226 0.961 . S
C1213 C1210 1.539 . S
C1213 H1227 0.958 . S
C1213 H1228 0.961 . S
C1213 H1229 0.960 . S
H1214 C1198 0.931 . S
H1215 C1203 0.929 . S
H1216 C1204 0.960 . S
H1217 C1204 0.962 . S
H1218 C1204 0.960 . S
H1219 C1205 0.961 . S
H1220 C1205 0.961 . S
H1221 C1205 0.961 . S
H1222 C1206 0.931 . S
H1223 C1211 0.930 . S
H1224 C1212 0.956 . S
H1225 C1212 0.961 . S
H1226 C1212 0.961 . S
H1227 C1213 0.958 . S
H1228 C1213 0.961 . S
H1229 C1213 0.960 . S
C1230 C1231 1.391 . S
C1230 C1232 1.394 . S
C1230 H1246 0.931 . S
C1231 C1230 1.391 . S
C1231 C1235 1.376 . S
C1232 C1230 1.394 . S
C1232 C1233 1.369 1_545 S
C1232 C1236 1.531 1_545 S
C1233 C1232 1.369 1_565 S
C1233 C1234 1.410 1_565 S
C1233 C1241 1.503 . S
C1234 C1233 1.410 1_545 S
C1234 C1235 1.392 . S
C1234 C1237 1.511 1_545 S
C1235 C1231 1.376 . S
C1235 C1234 1.392 . S
C1235 H1247 0.929 . S
C1236 C1232 1.531 1_565 S
C1236 H1248 0.960 . S
C1236 H1249 0.962 . S
C1236 H1250 0.960 . S
C1237 C1234 1.511 1_565 S
C1237 H1251 0.961 1_565 S
C1237 H1252 0.961 . S
C1237 H1253 0.961 . S
C1238 C1239 1.370 . S
C1238 C1240 1.363 . S
C1238 H1254 0.931 . S
C1239 C1238 1.370 . S
C1239 C1243 1.408 . S
C1240 C1238 1.363 . S
C1240 C1241 1.370 . S
C1240 C1244 1.524 . S
C1241 C1233 1.503 . S
C1241 C1240 1.370 . S
C1241 C1242 1.403 . S
C1242 C1241 1.403 . S
C1242 C1243 1.404 . S
C1242 C1245 1.539 . S
C1243 C1239 1.408 . S
C1243 C1242 1.404 . S
C1243 H1255 0.930 . S
C1244 C1240 1.524 . S
C1244 H1256 0.956 . S
C1244 H1257 0.961 . S
C1244 H1258 0.961 . S
C1245 C1242 1.539 . S
C1245 H1259 0.958 . S
C1245 H1260 0.961 . S
C1245 H1261 0.960 . S
H1246 C1230 0.931 . S
H1247 C1235 0.929 . S
H1248 C1236 0.960 . S
H1249 C1236 0.962 . S
H1250 C1236 0.960 . S
H1251 C1237 0.961 1_545 S
H1252 C1237 0.961 . S
H1253 C1237 0.961 . S
H1254 C1238 0.931 . S
H1255 C1243 0.930 . S
H1256 C1244 0.956 . S
H1257 C1244 0.961 . S
H1258 C1244 0.961 . S
H1259 C1245 0.958 . S
H1260 C1245 0.961 . S
H1261 C1245 0.960 . S
C1262 C1263 1.391 . S
C1262 C1264 1.394 1_655 S
C1262 H1278 0.931 . S
C1263 C1262 1.391 . S
C1263 C1267 1.376 . S
C1264 C1262 1.394 1_455 S
C1264 C1265 1.369 . S
C1264 C1268 1.531 . S
C1265 C1264 1.369 . S
C1265 C1266 1.410 . S
C1265 C1273 1.503 . S
C1266 C1265 1.410 . S
C1266 C1267 1.392 1_455 S
C1266 C1269 1.511 . S
C1267 C1263 1.376 . S
C1267 C1266 1.392 1_655 S
C1267 H1279 0.929 . S
C1268 C1264 1.531 . S
C1268 H1280 0.960 . S
C1268 H1281 0.962 . S
C1268 H1282 0.960 . S
C1269 C1266 1.511 . S
C1269 H1283 0.961 . S
C1269 H1284 0.961 . S
C1269 H1285 0.961 . S
C1270 C1271 1.370 . S
C1270 C1272 1.363 . S
C1270 H1286 0.931 . S
C1271 C1270 1.370 . S
C1271 C1275 1.408 . S
C1272 C1270 1.363 . S
C1272 C1273 1.370 . S
C1272 C1276 1.524 . S
C1273 C1265 1.503 . S
C1273 C1272 1.370 . S
C1273 C1274 1.403 . S
C1274 C1273 1.403 . S
C1274 C1275 1.404 . S
C1274 C1277 1.539 . S
C1275 C1271 1.408 . S
C1275 C1274 1.404 . S
C1275 H1287 0.930 . S
C1276 C1272 1.524 . S
C1276 H1288 0.956 . S
C1276 H1289 0.961 . S
C1276 H1290 0.961 . S
C1277 C1274 1.539 . S
C1277 H1291 0.958 . S
C1277 H1292 0.961 . S
C1277 H1293 0.960 . S
H1278 C1262 0.931 . S
H1279 C1267 0.929 . S
H1280 C1268 0.960 . S
H1281 C1268 0.962 . S
H1282 C1268 0.960 . S
H1283 C1269 0.961 . S
H1284 C1269 0.961 . S
H1285 C1269 0.961 . S
H1286 C1270 0.931 . S
H1287 C1275 0.930 . S
H1288 C1276 0.956 . S
H1289 C1276 0.961 . S
H1290 C1276 0.961 . S
H1291 C1277 0.958 . S
H1292 C1277 0.961 . S
H1293 C1277 0.960 . S
C1294 C1295 1.391 . S
C1294 C1296 1.394 . S
C1294 H1310 0.931 . S
C1295 C1294 1.391 . S
C1295 C1299 1.376 . S
C1296 C1294 1.394 . S
C1296 C1297 1.369 . S
C1296 C1300 1.531 . S
C1297 C1296 1.369 . S
C1297 C1298 1.410 . S
C1297 C1305 1.503 . S
C1298 C1297 1.410 . S
C1298 C1299 1.392 . S
C1298 C1301 1.511 . S
C1299 C1295 1.376 . S
C1299 C1298 1.392 . S
C1299 H1311 0.929 . S
C1300 C1296 1.531 . S
C1300 H1312 0.960 . S
C1300 H1313 0.962 . S
C1300 H1314 0.960 . S
C1301 C1298 1.511 . S
C1301 H1315 0.961 . S
C1301 H1316 0.961 . S
C1301 H1317 0.961 . S
C1302 C1303 1.370 . S
C1302 C1304 1.363 . S
C1302 H1318 0.931 . S
C1303 C1302 1.370 . S
C1303 C1307 1.408 . S
C1304 C1302 1.363 . S
C1304 C1305 1.370 . S
C1304 C1308 1.524 . S
C1305 C1297 1.503 . S
C1305 C1304 1.370 . S
C1305 C1306 1.403 . S
C1306 C1305 1.403 . S
C1306 C1307 1.404 . S
C1306 C1309 1.539 . S
C1307 C1303 1.408 . S
C1307 C1306 1.404 . S
C1307 H1319 0.930 . S
C1308 C1304 1.524 . S
C1308 H1320 0.956 . S
C1308 H1321 0.961 . S
C1308 H1322 0.961 . S
C1309 C1306 1.539 . S
C1309 H1323 0.958 . S
C1309 H1324 0.961 . S
C1309 H1325 0.960 . S
H1310 C1294 0.931 . S
H1311 C1299 0.929 . S
H1312 C1300 0.960 . S
H1313 C1300 0.962 . S
H1314 C1300 0.960 . S
H1315 C1301 0.961 . S
H1316 C1301 0.961 . S
H1317 C1301 0.961 . S
H1318 C1302 0.931 . S
H1319 C1307 0.930 . S
H1320 C1308 0.956 . S
H1321 C1308 0.961 . S
H1322 C1308 0.961 . S
H1323 C1309 0.958 . S
H1324 C1309 0.961 . S
H1325 C1309 0.960 . S
C1326 C1327 1.391 . S
C1326 C1328 1.394 . S
C1326 H1342 0.931 . S
C1327 C1326 1.391 . S
C1327 C1331 1.376 . S
C1328 C1326 1.394 . S
C1328 C1329 1.369 . S
C1328 C1332 1.531 . S
C1329 C1328 1.369 . S
C1329 C1330 1.410 . S
C1329 C1337 1.503 . S
C1330 C1329 1.410 . S
C1330 C1331 1.392 . S
C1330 C1333 1.511 . S
C1331 C1327 1.376 . S
C1331 C1330 1.392 . S
C1331 H1343 0.929 . S
C1332 C1328 1.531 . S
C1332 H1344 0.960 . S
C1332 H1345 0.962 . S
C1332 H1346 0.960 . S
C1333 C1330 1.511 . S
C1333 H1347 0.961 . S
C1333 H1348 0.961 . S
C1333 H1349 0.961 . S
C1334 C1335 1.370 . S
C1334 C1336 1.363 . S
C1334 H1350 0.931 . S
C1335 C1334 1.370 . S
C1335 C1339 1.408 . S
C1336 C1334 1.363 . S
C1336 C1337 1.370 . S
C1336 C1340 1.524 . S
C1337 C1329 1.503 . S
C1337 C1336 1.370 . S
C1337 C1338 1.403 . S
C1338 C1337 1.403 . S
C1338 C1339 1.404 . S
C1338 C1341 1.539 . S
C1339 C1335 1.408 . S
C1339 C1338 1.404 . S
C1339 H1351 0.930 . S
C1340 C1336 1.524 . S
C1340 H1352 0.956 . S
C1340 H1353 0.961 . S
C1340 H1354 0.961 . S
C1341 C1338 1.539 . S
C1341 H1355 0.958 . S
C1341 H1356 0.961 . S
C1341 H1357 0.960 . S
H1342 C1326 0.931 . S
H1343 C1331 0.929 . S
H1344 C1332 0.960 . S
H1345 C1332 0.962 . S
H1346 C1332 0.960 . S
H1347 C1333 0.961 . S
H1348 C1333 0.961 . S
H1349 C1333 0.961 . S
H1350 C1334 0.931 . S
H1351 C1339 0.930 . S
H1352 C1340 0.956 . S
H1353 C1340 0.961 . S
H1354 C1340 0.961 . S
H1355 C1341 0.958 . S
H1356 C1341 0.961 . S
H1357 C1341 0.960 . S
C1358 C1359 1.391 . S
C1358 C1360 1.394 . S
C1358 H1374 0.931 . S
C1359 C1358 1.391 . S
C1359 C1363 1.376 . S
C1360 C1358 1.394 . S
C1360 C1361 1.369 . S
C1360 C1364 1.531 . S
C1361 C1360 1.369 . S
C1361 C1362 1.410 . S
C1361 C1369 1.503 . S
C1362 C1361 1.410 . S
C1362 C1363 1.392 . S
C1362 C1365 1.511 . S
C1363 C1359 1.376 . S
C1363 C1362 1.392 . S
C1363 H1375 0.929 . S
C1364 C1360 1.531 . S
C1364 H1376 0.960 . S
C1364 H1377 0.962 . S
C1364 H1378 0.960 . S
C1365 C1362 1.511 . S
C1365 H1379 0.961 . S
C1365 H1380 0.961 . S
C1365 H1381 0.961 . S
C1366 C1367 1.370 . S
C1366 C1368 1.363 . S
C1366 H1382 0.931 . S
C1367 C1366 1.370 . S
C1367 C1371 1.408 . S
C1368 C1366 1.363 . S
C1368 C1369 1.370 . S
C1368 C1372 1.524 . S
C1369 C1361 1.503 . S
C1369 C1368 1.370 . S
C1369 C1370 1.403 . S
C1370 C1369 1.403 . S
C1370 C1371 1.404 . S
C1370 C1373 1.539 . S
C1371 C1367 1.408 . S
C1371 C1370 1.404 . S
C1371 H1383 0.930 . S
C1372 C1368 1.524 . S
C1372 H1384 0.956 . S
C1372 H1385 0.961 . S
C1372 H1386 0.961 . S
C1373 C1370 1.539 . S
C1373 H1387 0.958 . S
C1373 H1388 0.961 . S
C1373 H1389 0.960 . S
H1374 C1358 0.931 . S
H1375 C1363 0.929 . S
H1376 C1364 0.960 . S
H1377 C1364 0.962 . S
H1378 C1364 0.960 . S
H1379 C1365 0.961 . S
H1380 C1365 0.961 . S
H1381 C1365 0.961 . S
H1382 C1366 0.931 . S
H1383 C1371 0.930 . S
H1384 C1372 0.956 . S
H1385 C1372 0.961 . S
H1386 C1372 0.961 . S
H1387 C1373 0.958 . S
H1388 C1373 0.961 . S
H1389 C1373 0.960 . S
C1390 C1391 1.391 . S
C1390 C1392 1.394 . S
C1390 H1406 0.931 . S
C1391 C1390 1.391 . S
C1391 C1395 1.376 . S
C1392 C1390 1.394 . S
C1392 C1393 1.369 . S
C1392 C1396 1.531 . S
C1393 C1392 1.369 . S
C1393 C1394 1.410 . S
C1393 C1401 1.503 . S
C1394 C1393 1.410 . S
C1394 C1395 1.392 . S
C1394 C1397 1.511 . S
C1395 C1391 1.376 . S
C1395 C1394 1.392 . S
C1395 H1407 0.929 . S
C1396 C1392 1.531 . S
C1396 H1408 0.960 . S
C1396 H1409 0.962 . S
C1396 H1410 0.960 . S
C1397 C1394 1.511 . S
C1397 H1411 0.961 . S
C1397 H1412 0.961 . S
C1397 H1413 0.961 . S
C1398 C1399 1.370 . S
C1398 C1400 1.363 . S
C1398 H1414 0.931 . S
C1399 C1398 1.370 . S
C1399 C1403 1.408 . S
C1400 C1398 1.363 . S
C1400 C1401 1.370 . S
C1400 C1404 1.524 . S
C1401 C1393 1.503 . S
C1401 C1400 1.370 . S
C1401 C1402 1.403 . S
C1402 C1401 1.403 . S
C1402 C1403 1.404 . S
C1402 C1405 1.539 . S
C1403 C1399 1.408 . S
C1403 C1402 1.404 . S
C1403 H1415 0.930 . S
C1404 C1400 1.524 . S
C1404 H1416 0.956 . S
C1404 H1417 0.961 . S
C1404 H1418 0.961 . S
C1405 C1402 1.539 . S
C1405 H1419 0.958 . S
C1405 H1420 0.961 . S
C1405 H1421 0.960 . S
H1406 C1390 0.931 . S
H1407 C1395 0.929 . S
H1408 C1396 0.960 . S
H1409 C1396 0.962 . S
H1410 C1396 0.960 . S
H1411 C1397 0.961 . S
H1412 C1397 0.961 . S
H1413 C1397 0.961 . S
H1414 C1398 0.931 . S
H1415 C1403 0.930 . S
H1416 C1404 0.956 . S
H1417 C1404 0.961 . S
H1418 C1404 0.961 . S
H1419 C1405 0.958 . S
H1420 C1405 0.961 . S
H1421 C1405 0.960 . S
C1422 C1423 1.391 . S
C1422 C1424 1.394 . S
C1422 H1438 0.931 . S
C1423 C1422 1.391 . S
C1423 C1427 1.376 . S
C1424 C1422 1.394 . S
C1424 C1425 1.369 1_565 S
C1424 C1428 1.531 1_565 S
C1425 C1424 1.369 1_545 S
C1425 C1426 1.410 1_545 S
C1425 C1433 1.503 . S
C1426 C1425 1.410 1_565 S
C1426 C1427 1.392 . S
C1426 C1429 1.511 . S
C1427 C1423 1.376 . S
C1427 C1426 1.392 . S
C1427 H1439 0.929 . S
C1428 C1424 1.531 1_545 S
C1428 H1440 0.960 . S
C1428 H1441 0.962 . S
C1428 H1442 0.948 1_545 S
C1429 C1426 1.511 . S
C1429 H1443 0.961 . S
C1429 H1444 0.961 1_565 S
C1429 H1445 0.961 . S
C1430 C1431 1.370 . S
C1430 C1432 1.363 . S
C1430 H1446 0.931 . S
C1431 C1430 1.370 . S
C1431 C1435 1.408 . S
C1432 C1430 1.363 . S
C1432 C1433 1.370 . S
C1432 C1436 1.524 . S
C1433 C1425 1.503 . S
C1433 C1432 1.370 . S
C1433 C1434 1.403 . S
C1434 C1433 1.403 . S
C1434 C1435 1.404 . S
C1434 C1437 1.539 . S
C1435 C1431 1.408 . S
C1435 C1434 1.404 . S
C1435 H1447 0.930 . S
C1436 C1432 1.524 . S
C1436 H1448 0.956 . S
C1436 H1449 0.961 . S
C1436 H1450 0.961 . S
C1437 C1434 1.539 . S
C1437 H1451 0.958 . S
C1437 H1452 0.961 . S
C1437 H1453 0.960 . S
H1438 C1422 0.931 . S
H1439 C1427 0.929 . S
H1440 C1428 0.960 . S
H1441 C1428 0.962 . S
H1442 C1428 0.948 1_565 S
H1443 C1429 0.961 . S
H1444 C1429 0.961 1_545 S
H1445 C1429 0.961 . S
H1446 C1430 0.931 . S
H1447 C1435 0.930 . S
H1448 C1436 0.956 . S
H1449 C1436 0.961 . S
H1450 C1436 0.961 . S
H1451 C1437 0.958 . S
H1452 C1437 0.961 . S
H1453 C1437 0.960 . S
C1454 C1455 1.391 . S
C1454 C1456 1.394 1_455 S
C1454 H1470 0.931 . S
C1455 C1454 1.391 . S
C1455 C1459 1.376 . S
C1456 C1454 1.394 1_655 S
C1456 C1457 1.369 . S
C1456 C1460 1.531 . S
C1457 C1456 1.369 . S
C1457 C1458 1.410 1_655 S
C1457 C1465 1.503 . S
C1458 C1457 1.410 1_455 S
C1458 C1459 1.392 . S
C1458 C1461 1.511 . S
C1459 C1455 1.376 . S
C1459 C1458 1.392 . S
C1459 H1471 0.929 . S
C1460 C1456 1.531 . S
C1460 H1472 0.960 . S
C1460 H1473 0.962 . S
C1460 H1474 0.960 . S
C1461 C1458 1.511 . S
C1461 H1475 0.961 . S
C1461 H1476 0.961 1_455 S
C1461 H1477 0.960 . S
C1462 C1463 1.370 . S
C1462 C1464 1.363 . S
C1462 H1478 0.931 . S
C1463 C1462 1.370 . S
C1463 C1467 1.408 . S
C1464 C1462 1.363 . S
C1464 C1465 1.370 . S
C1464 C1468 1.524 . S
C1465 C1457 1.503 . S
C1465 C1464 1.370 . S
C1465 C1466 1.403 . S
C1466 C1465 1.403 . S
C1466 C1467 1.404 . S
C1466 C1469 1.539 . S
C1467 C1463 1.408 . S
C1467 C1466 1.404 . S
C1467 H1479 0.930 . S
C1468 C1464 1.524 . S
C1468 H1480 0.956 . S
C1468 H1481 0.961 . S
C1468 H1482 0.961 . S
C1469 C1466 1.539 . S
C1469 H1483 0.958 . S
C1469 H1484 0.961 . S
C1469 H1485 0.960 . S
H1470 C1454 0.931 . S
H1471 C1459 0.929 . S
H1472 C1460 0.960 . S
H1473 C1460 0.962 . S
H1474 C1460 0.960 . S
H1475 C1461 0.961 . S
H1476 C1461 0.961 1_655 S
H1477 C1461 0.960 . S
H1478 C1462 0.931 . S
H1479 C1467 0.930 . S
H1480 C1468 0.956 . S
H1481 C1468 0.961 . S
H1482 C1468 0.961 . S
H1483 C1469 0.958 . S
H1484 C1469 0.961 . S
H1485 C1469 0.960 . S
C1486 C1487 1.391 . S
C1486 C1488 1.394 . S
C1486 H1502 0.931 . S
C1487 C1486 1.391 . S
C1487 C1491 1.376 . S
C1488 C1486 1.394 . S
C1488 C1489 1.369 . S
C1488 C1492 1.531 . S
C1489 C1488 1.369 . S
C1489 C1490 1.410 . S
C1489 C1497 1.503 . S
C1490 C1489 1.410 . S
C1490 C1491 1.392 . S
C1490 C1493 1.511 . S
C1491 C1487 1.376 . S
C1491 C1490 1.392 . S
C1491 H1503 0.929 . S
C1492 C1488 1.531 . S
C1492 H1504 0.960 . S
C1492 H1505 0.962 . S
C1492 H1506 0.960 . S
C1493 C1490 1.511 . S
C1493 H1507 0.961 . S
C1493 H1508 0.961 . S
C1493 H1509 0.961 . S
C1494 C1495 1.370 . S
C1494 C1496 1.363 . S
C1494 H1510 0.931 . S
C1495 C1494 1.370 . S
C1495 C1499 1.408 . S
C1496 C1494 1.363 . S
C1496 C1497 1.370 . S
C1496 C1500 1.524 . S
C1497 C1489 1.503 . S
C1497 C1496 1.370 . S
C1497 C1498 1.403 . S
C1498 C1497 1.403 . S
C1498 C1499 1.404 . S
C1498 C1501 1.539 . S
C1499 C1495 1.408 . S
C1499 C1498 1.404 . S
C1499 H1511 0.930 . S
C1500 C1496 1.524 . S
C1500 H1512 0.956 . S
C1500 H1513 0.961 . S
C1500 H1514 0.961 . S
C1501 C1498 1.539 . S
C1501 H1515 0.958 . S
C1501 H1516 0.961 . S
C1501 H1517 0.960 . S
H1502 C1486 0.931 . S
H1503 C1491 0.929 . S
H1504 C1492 0.960 . S
H1505 C1492 0.962 . S
H1506 C1492 0.960 . S
H1507 C1493 0.961 . S
H1508 C1493 0.961 . S
H1509 C1493 0.961 . S
H1510 C1494 0.931 . S
H1511 C1499 0.930 . S
H1512 C1500 0.956 . S
H1513 C1500 0.961 . S
H1514 C1500 0.961 . S
H1515 C1501 0.958 . S
H1516 C1501 0.961 . S
H1517 C1501 0.960 . S
C1518 C1519 1.391 . S
C1518 C1520 1.394 1_455 S
C1518 H1534 0.931 . S
C1519 C1518 1.391 . S
C1519 C1523 1.376 . S
C1520 C1518 1.394 1_655 S
C1520 C1521 1.369 . S
C1520 C1524 1.531 . S
C1521 C1520 1.369 . S
C1521 C1522 1.410 . S
C1521 C1529 1.503 . S
C1522 C1521 1.410 . S
C1522 C1523 1.392 1_655 S
C1522 C1525 1.511 . S
C1523 C1519 1.376 . S
C1523 C1522 1.392 1_455 S
C1523 H1535 0.929 . S
C1524 C1520 1.531 . S
C1524 H1536 0.960 . S
C1524 H1537 0.962 . S
C1524 H1538 0.960 1_655 S
C1525 C1522 1.511 . S
C1525 H1539 0.961 . S
C1525 H1540 0.961 . S
C1525 H1541 0.961 . S
C1526 C1527 1.370 . S
C1526 C1528 1.363 . S
C1526 H1542 0.931 . S
C1527 C1526 1.370 . S
C1527 C1531 1.408 . S
C1528 C1526 1.363 . S
C1528 C1529 1.370 . S
C1528 C1532 1.524 . S
C1529 C1521 1.503 . S
C1529 C1528 1.370 . S
C1529 C1530 1.403 . S
C1530 C1529 1.403 . S
C1530 C1531 1.404 . S
C1530 C1533 1.539 . S
C1531 C1527 1.408 . S
C1531 C1530 1.404 . S
C1531 H1543 0.930 . S
C1532 C1528 1.524 . S
C1532 H1544 0.956 . S
C1532 H1545 0.961 . S
C1532 H1546 0.961 . S
C1533 C1530 1.539 . S
C1533 H1547 0.958 . S
C1533 H1548 0.961 . S
C1533 H1549 0.960 . S
H1534 C1518 0.931 . S
H1535 C1523 0.929 . S
H1536 C1524 0.960 . S
H1537 C1524 0.962 . S
H1538 C1524 0.960 1_455 S
H1539 C1525 0.961 . S
H1540 C1525 0.961 . S
H1541 C1525 0.961 . S
H1542 C1526 0.931 . S
H1543 C1531 0.930 . S
H1544 C1532 0.956 . S
H1545 C1532 0.961 . S
H1546 C1532 0.961 . S
H1547 C1533 0.958 . S
H1548 C1533 0.961 . S
H1549 C1533 0.960 . S
C1550 C1551 1.391 . S
C1550 C1552 1.394 . S
C1550 H1566 0.931 . S
C1551 C1550 1.391 . S
C1551 C1555 1.376 . S
C1552 C1550 1.394 . S
C1552 C1553 1.369 . S
C1552 C1556 1.531 . S
C1553 C1552 1.369 . S
C1553 C1554 1.410 . S
C1553 C1561 1.503 . S
C1554 C1553 1.410 . S
C1554 C1555 1.392 . S
C1554 C1557 1.511 . S
C1555 C1551 1.376 . S
C1555 C1554 1.392 . S
C1555 H1567 0.929 . S
C1556 C1552 1.531 . S
C1556 H1568 0.960 . S
C1556 H1569 0.962 . S
C1556 H1570 0.960 . S
C1557 C1554 1.511 . S
C1557 H1571 0.961 . S
C1557 H1572 0.961 . S
C1557 H1573 0.961 . S
C1558 C1559 1.370 . S
C1558 C1560 1.363 . S
C1558 H1574 0.931 . S
C1559 C1558 1.370 . S
C1559 C1563 1.408 . S
C1560 C1558 1.363 . S
C1560 C1561 1.370 . S
C1560 C1564 1.524 . S
C1561 C1553 1.503 . S
C1561 C1560 1.370 . S
C1561 C1562 1.403 . S
C1562 C1561 1.403 . S
C1562 C1563 1.404 . S
C1562 C1565 1.539 . S
C1563 C1559 1.408 . S
C1563 C1562 1.404 . S
C1563 H1575 0.930 . S
C1564 C1560 1.524 . S
C1564 H1576 0.956 . S
C1564 H1577 0.961 . S
C1564 H1578 0.961 . S
C1565 C1562 1.539 . S
C1565 H1579 0.958 . S
C1565 H1580 0.961 . S
C1565 H1581 0.960 . S
H1566 C1550 0.931 . S
H1567 C1555 0.929 . S
H1568 C1556 0.960 . S
H1569 C1556 0.962 . S
H1570 C1556 0.960 . S
H1571 C1557 0.961 . S
H1572 C1557 0.961 . S
H1573 C1557 0.961 . S
H1574 C1558 0.931 . S
H1575 C1563 0.930 . S
H1576 C1564 0.956 . S
H1577 C1564 0.961 . S
H1578 C1564 0.961 . S
H1579 C1565 0.958 . S
H1580 C1565 0.961 . S
H1581 C1565 0.960 . S
C1582 C1583 1.391 . S
C1582 C1584 1.394 . S
C1582 H1598 0.931 . S
C1583 C1582 1.391 . S
C1583 C1587 1.376 . S
C1584 C1582 1.394 . S
C1584 C1585 1.369 1_565 S
C1584 C1588 1.531 1_565 S
C1585 C1584 1.369 1_545 S
C1585 C1586 1.410 1_545 S
C1585 C1593 1.503 . S
C1586 C1585 1.410 1_565 S
C1586 C1587 1.392 . S
C1586 C1589 1.493 1_565 S
C1587 C1583 1.376 . S
C1587 C1586 1.392 . S
C1587 H1599 0.929 . S
C1588 C1584 1.531 1_545 S
C1588 H1600 0.960 . S
C1588 H1601 0.962 . S
C1588 H1602 0.960 . S
C1589 C1586 1.493 1_545 S
C1589 H1603 0.956 1_545 S
C1589 H1604 0.981 . S
C1589 H1605 0.964 . S
C1590 C1591 1.370 . S
C1590 C1592 1.363 . S
C1590 H1606 0.931 . S
C1591 C1590 1.370 . S
C1591 C1595 1.408 . S
C1592 C1590 1.363 . S
C1592 C1593 1.370 . S
C1592 C1596 1.524 . S
C1593 C1585 1.503 . S
C1593 C1592 1.370 . S
C1593 C1594 1.403 . S
C1594 C1593 1.403 . S
C1594 C1595 1.404 . S
C1594 C1597 1.539 . S
C1595 C1591 1.408 . S
C1595 C1594 1.404 . S
C1595 H1607 0.930 . S
C1596 C1592 1.524 . S
C1596 H1608 0.956 . S
C1596 H1609 0.961 . S
C1596 H1610 0.961 . S
C1597 C1594 1.539 . S
C1597 H1611 0.958 . S
C1597 H1612 0.961 . S
C1597 H1613 0.960 . S
H1598 C1582 0.931 . S
H1599 C1587 0.929 . S
H1600 C1588 0.960 . S
H1601 C1588 0.962 . S
H1602 C1588 0.960 . S
H1603 C1589 0.956 1_565 S
H1604 C1589 0.981 . S
H1605 C1589 0.964 . S
H1606 C1590 0.931 . S
H1607 C1595 0.930 . S
H1608 C1596 0.956 . S
H1609 C1596 0.961 . S
H1610 C1596 0.961 . S
H1611 C1597 0.958 . S
H1612 C1597 0.961 . S
H1613 C1597 0.960 . S
C1614 C1615 1.391 . S
C1614 C1616 1.394 . S
C1614 H1630 0.931 . S
C1615 C1614 1.391 . S
C1615 C1619 1.376 . S
C1616 C1614 1.394 . S
C1616 C1617 1.369 . S
C1616 C1620 1.531 . S
C1617 C1616 1.369 . S
C1617 C1618 1.410 . S
C1617 C1625 1.503 . S
C1618 C1617 1.410 . S
C1618 C1619 1.392 . S
C1618 C1621 1.511 . S
C1619 C1615 1.376 . S
C1619 C1618 1.392 . S
C1619 H1631 0.929 . S
C1620 C1616 1.531 . S
C1620 H1632 0.960 . S
C1620 H1633 0.962 . S
C1620 H1634 0.960 . S
C1621 C1618 1.511 . S
C1621 H1635 0.961 . S
C1621 H1636 0.961 . S
C1621 H1637 0.961 . S
C1622 C1623 1.370 . S
C1622 C1624 1.363 . S
C1622 H1638 0.931 . S
C1623 C1622 1.370 . S
C1623 C1627 1.408 . S
C1624 C1622 1.363 . S
C1624 C1625 1.370 . S
C1624 C1628 1.524 . S
C1625 C1617 1.503 . S
C1625 C1624 1.370 . S
C1625 C1626 1.403 . S
C1626 C1625 1.403 . S
C1626 C1627 1.404 . S
C1626 C1629 1.539 . S
C1627 C1623 1.408 . S
C1627 C1626 1.404 . S
C1627 H1639 0.930 . S
C1628 C1624 1.524 . S
C1628 H1640 0.956 . S
C1628 H1641 0.961 . S
C1628 H1642 0.961 . S
C1629 C1626 1.539 . S
C1629 H1643 0.958 . S
C1629 H1644 0.961 . S
C1629 H1645 0.960 . S
H1630 C1614 0.931 . S
H1631 C1619 0.929 . S
H1632 C1620 0.960 . S
H1633 C1620 0.962 . S
H1634 C1620 0.960 . S
H1635 C1621 0.961 . S
H1636 C1621 0.961 . S
H1637 C1621 0.961 . S
H1638 C1622 0.931 . S
H1639 C1627 0.930 . S
H1640 C1628 0.956 . S
H1641 C1628 0.961 . S
H1642 C1628 0.961 . S
H1643 C1629 0.958 . S
H1644 C1629 0.961 . S
H1645 C1629 0.960 . S
C1646 C1647 1.391 . S
C1646 C1648 1.394 . S
C1646 H1662 0.931 . S
C1647 C1646 1.391 . S
C1647 C1651 1.376 . S
C1648 C1646 1.394 . S
C1648 C1649 1.369 . S
C1648 C1652 1.531 . S
C1649 C1648 1.369 . S
C1649 C1650 1.410 . S
C1649 C1657 1.503 . S
C1650 C1649 1.410 . S
C1650 C1651 1.392 . S
C1650 C1653 1.511 . S
C1651 C1647 1.376 . S
C1651 C1650 1.392 . S
C1651 H1663 0.929 . S
C1652 C1648 1.531 . S
C1652 H1664 0.960 . S
C1652 H1665 0.962 . S
C1652 H1666 0.960 . S
C1653 C1650 1.511 . S
C1653 H1667 0.961 . S
C1653 H1668 0.961 . S
C1653 H1669 0.961 . S
C1654 C1655 1.370 . S
C1654 C1656 1.363 . S
C1654 H1670 0.931 . S
C1655 C1654 1.370 . S
C1655 C1659 1.408 . S
C1656 C1654 1.363 . S
C1656 C1657 1.370 . S
C1656 C1660 1.524 . S
C1657 C1649 1.503 . S
C1657 C1656 1.370 . S
C1657 C1658 1.403 . S
C1658 C1657 1.403 . S
C1658 C1659 1.404 . S
C1658 C1661 1.539 . S
C1659 C1655 1.408 . S
C1659 C1658 1.404 . S
C1659 H1671 0.930 . S
C1660 C1656 1.524 . S
C1660 H1672 0.956 . S
C1660 H1673 0.961 . S
C1660 H1674 0.961 . S
C1661 C1658 1.539 . S
C1661 H1675 0.958 . S
C1661 H1676 0.961 . S
C1661 H1677 0.960 . S
H1662 C1646 0.931 . S
H1663 C1651 0.929 . S
H1664 C1652 0.960 . S
H1665 C1652 0.962 . S
H1666 C1652 0.960 . S
H1667 C1653 0.961 . S
H1668 C1653 0.961 . S
H1669 C1653 0.961 . S
H1670 C1654 0.931 . S
H1671 C1659 0.930 . S
H1672 C1660 0.956 . S
H1673 C1660 0.961 . S
H1674 C1660 0.961 . S
H1675 C1661 0.958 . S
H1676 C1661 0.961 . S
H1677 C1661 0.960 . S
C1678 C1679 1.391 . S
C1678 C1680 1.394 . S
C1678 H1694 0.931 . S
C1679 C1678 1.391 . S
C1679 C1683 1.376 . S
C1680 C1678 1.394 . S
C1680 C1681 1.369 . S
C1680 C1684 1.531 . S
C1681 C1680 1.369 . S
C1681 C1682 1.410 . S
C1681 C1689 1.503 . S
C1682 C1681 1.410 . S
C1682 C1683 1.392 . S
C1682 C1685 1.511 . S
C1683 C1679 1.376 . S
C1683 C1682 1.392 . S
C1683 H1695 0.929 . S
C1684 C1680 1.531 . S
C1684 H1696 0.960 . S
C1684 H1697 0.962 . S
C1684 H1698 0.960 . S
C1685 C1682 1.511 . S
C1685 H1699 0.961 . S
C1685 H1700 0.961 . S
C1685 H1701 0.961 . S
C1686 C1687 1.370 . S
C1686 C1688 1.363 . S
C1686 H1702 0.931 . S
C1687 C1686 1.370 . S
C1687 C1691 1.408 . S
C1688 C1686 1.363 . S
C1688 C1689 1.370 . S
C1688 C1692 1.524 . S
C1689 C1681 1.503 . S
C1689 C1688 1.370 . S
C1689 C1690 1.403 . S
C1690 C1689 1.403 . S
C1690 C1691 1.404 . S
C1690 C1693 1.539 . S
C1691 C1687 1.408 . S
C1691 C1690 1.404 . S
C1691 H1703 0.930 . S
C1692 C1688 1.524 . S
C1692 H1704 0.956 . S
C1692 H1705 0.961 . S
C1692 H1706 0.961 . S
C1693 C1690 1.539 . S
C1693 H1707 0.958 . S
C1693 H1708 0.961 . S
C1693 H1709 0.960 . S
H1694 C1678 0.931 . S
H1695 C1683 0.929 . S
H1696 C1684 0.960 . S
H1697 C1684 0.962 . S
H1698 C1684 0.960 . S
H1699 C1685 0.961 . S
H1700 C1685 0.961 . S
H1701 C1685 0.961 . S
H1702 C1686 0.931 . S
H1703 C1691 0.930 . S
H1704 C1692 0.956 . S
H1705 C1692 0.961 . S
H1706 C1692 0.961 . S
H1707 C1693 0.958 . S
H1708 C1693 0.961 . S
H1709 C1693 0.960 . S
C1710 C1711 1.391 . S
C1710 C1712 1.394 . S
C1710 H1726 0.931 . S
C1711 C1710 1.391 . S
C1711 C1715 1.376 . S
C1712 C1710 1.394 . S
C1712 C1713 1.369 . S
C1712 C1716 1.531 . S
C1713 C1712 1.369 . S
C1713 C1714 1.410 . S
C1713 C1721 1.503 . S
C1714 C1713 1.410 . S
C1714 C1715 1.392 . S
C1714 C1717 1.511 . S
C1715 C1711 1.376 . S
C1715 C1714 1.392 . S
C1715 H1727 0.929 . S
C1716 C1712 1.531 . S
C1716 H1728 0.960 . S
C1716 H1729 0.962 . S
C1716 H1730 0.960 . S
C1717 C1714 1.511 . S
C1717 H1731 0.961 . S
C1717 H1732 0.961 . S
C1717 H1733 0.961 . S
C1718 C1719 1.370 . S
C1718 C1720 1.363 . S
C1718 H1734 0.931 . S
C1719 C1718 1.370 . S
C1719 C1723 1.408 . S
C1720 C1718 1.363 . S
C1720 C1721 1.370 . S
C1720 C1724 1.524 . S
C1721 C1713 1.503 . S
C1721 C1720 1.370 . S
C1721 C1722 1.403 . S
C1722 C1721 1.403 . S
C1722 C1723 1.404 . S
C1722 C1725 1.539 1_565 S
C1723 C1719 1.408 . S
C1723 C1722 1.404 . S
C1723 H1735 0.930 1_565 S
C1724 C1720 1.524 . S
C1724 H1736 0.956 . S
C1724 H1737 0.961 . S
C1724 H1738 0.961 . S
C1725 C1722 1.539 1_545 S
C1725 H1739 0.958 . S
C1725 H1740 0.961 . S
C1725 H1741 0.960 . S
H1726 C1710 0.931 . S
H1727 C1715 0.929 . S
H1728 C1716 0.960 . S
H1729 C1716 0.962 . S
H1730 C1716 0.960 . S
H1731 C1717 0.961 . S
H1732 C1717 0.961 . S
H1733 C1717 0.961 . S
H1734 C1718 0.931 . S
H1735 C1723 0.930 1_545 S
H1736 C1724 0.956 . S
H1737 C1724 0.961 . S
H1738 C1724 0.961 . S
H1739 C1725 0.958 . S
H1740 C1725 0.961 . S
H1741 C1725 0.960 . S
C1742 C1743 1.391 . S
C1742 C1744 1.394 . S
C1742 H1758 0.931 . S
C1743 C1742 1.391 . S
C1743 C1747 1.376 . S
C1744 C1742 1.394 . S
C1744 C1745 1.369 . S
C1744 C1748 1.531 . S
C1745 C1744 1.369 . S
C1745 C1746 1.410 . S
C1745 C1753 1.503 . S
C1746 C1745 1.410 . S
C1746 C1747 1.392 . S
C1746 C1749 1.511 . S
C1747 C1743 1.376 . S
C1747 C1746 1.392 . S
C1747 H1759 0.929 . S
C1748 C1744 1.531 . S
C1748 H1760 0.960 . S
C1748 H1761 0.962 . S
C1748 H1762 0.960 . S
C1749 C1746 1.511 . S
C1749 H1763 0.961 . S
C1749 H1764 0.961 . S
C1749 H1765 0.961 . S
C1750 C1751 1.370 . S
C1750 C1752 1.363 . S
C1750 H1766 0.931 . S
C1751 C1750 1.370 . S
C1751 C1755 1.408 . S
C1752 C1750 1.363 . S
C1752 C1753 1.370 . S
C1752 C1756 1.524 . S
C1753 C1745 1.503 . S
C1753 C1752 1.370 . S
C1753 C1754 1.403 . S
C1754 C1753 1.403 . S
C1754 C1755 1.404 . S
C1754 C1757 1.539 . S
C1755 C1751 1.408 . S
C1755 C1754 1.404 . S
C1755 H1767 0.930 . S
C1756 C1752 1.524 . S
C1756 H1768 0.956 . S
C1756 H1769 0.961 . S
C1756 H1770 0.961 . S
C1757 C1754 1.539 . S
C1757 H1771 0.958 . S
C1757 H1772 0.961 1_455 S
C1757 H1773 0.979 . S
H1758 C1742 0.931 . S
H1759 C1747 0.929 . S
H1760 C1748 0.960 . S
H1761 C1748 0.962 . S
H1762 C1748 0.960 . S
H1763 C1749 0.961 . S
H1764 C1749 0.961 . S
H1765 C1749 0.961 . S
H1766 C1750 0.931 . S
H1767 C1755 0.930 . S
H1768 C1756 0.956 . S
H1769 C1756 0.961 . S
H1770 C1756 0.961 . S
H1771 C1757 0.958 . S
H1772 C1757 0.961 1_655 S
H1773 C1757 0.979 . S
C1774 C1775 1.391 . S
C1774 C1776 1.394 . S
C1774 H1790 0.931 . S
C1775 C1774 1.391 . S
C1775 C1779 1.376 . S
C1776 C1774 1.394 . S
C1776 C1777 1.369 . S
C1776 C1780 1.531 . S
C1777 C1776 1.369 . S
C1777 C1778 1.410 . S
C1777 C1785 1.503 . S
C1778 C1777 1.410 . S
C1778 C1779 1.392 . S
C1778 C1781 1.511 . S
C1779 C1775 1.376 . S
C1779 C1778 1.392 . S
C1779 H1791 0.929 . S
C1780 C1776 1.531 . S
C1780 H1792 0.960 . S
C1780 H1793 0.962 . S
C1780 H1794 0.960 . S
C1781 C1778 1.511 . S
C1781 H1795 0.961 . S
C1781 H1796 0.961 . S
C1781 H1797 0.961 . S
C1782 C1783 1.370 . S
C1782 C1784 1.363 . S
C1782 H1798 0.931 . S
C1783 C1782 1.370 . S
C1783 C1787 1.408 . S
C1784 C1782 1.363 . S
C1784 C1785 1.370 . S
C1784 C1788 1.524 . S
C1785 C1777 1.503 . S
C1785 C1784 1.370 . S
C1785 C1786 1.403 . S
C1786 C1785 1.403 . S
C1786 C1787 1.404 . S
C1786 C1789 1.539 . S
C1787 C1783 1.408 . S
C1787 C1786 1.404 . S
C1787 H1799 0.930 . S
C1788 C1784 1.524 . S
C1788 H1800 0.956 . S
C1788 H1801 0.961 . S
C1788 H1802 0.961 . S
C1789 C1786 1.539 . S
C1789 H1803 0.958 . S
C1789 H1804 0.961 . S
C1789 H1805 0.960 . S
H1790 C1774 0.931 . S
H1791 C1779 0.929 . S
H1792 C1780 0.960 . S
H1793 C1780 0.962 . S
H1794 C1780 0.960 . S
H1795 C1781 0.961 . S
H1796 C1781 0.961 . S
H1797 C1781 0.961 . S
H1798 C1782 0.931 . S
H1799 C1787 0.930 . S
H1800 C1788 0.956 . S
H1801 C1788 0.961 . S
H1802 C1788 0.961 . S
H1803 C1789 0.958 . S
H1804 C1789 0.961 . S
H1805 C1789 0.960 . S
C1806 C1807 1.391 . S
C1806 C1808 1.394 . S
C1806 H1822 0.931 . S
C1807 C1806 1.391 . S
C1807 C1811 1.376 . S
C1808 C1806 1.394 . S
C1808 C1809 1.369 . S
C1808 C1812 1.531 . S
C1809 C1808 1.369 . S
C1809 C1810 1.410 . S
C1809 C1817 1.503 . S
C1810 C1809 1.410 . S
C1810 C1811 1.392 . S
C1810 C1813 1.511 1_655 S
C1811 C1807 1.376 . S
C1811 C1810 1.392 . S
C1811 H1823 0.929 . S
C1812 C1808 1.531 . S
C1812 H1824 0.960 . S
C1812 H1825 0.962 . S
C1812 H1826 0.960 . S
C1813 C1810 1.511 1_455 S
C1813 H1827 0.961 . S
C1813 H1828 0.961 . S
C1813 H1829 0.961 . S
C1814 C1815 1.370 . S
C1814 C1816 1.363 . S
C1814 H1830 0.931 . S
C1815 C1814 1.370 . S
C1815 C1819 1.408 . S
C1816 C1814 1.363 . S
C1816 C1817 1.370 . S
C1816 C1820 1.524 . S
C1817 C1809 1.503 . S
C1817 C1816 1.370 . S
C1817 C1818 1.403 . S
C1818 C1817 1.403 . S
C1818 C1819 1.404 . S
C1818 C1821 1.539 . S
C1819 C1815 1.408 . S
C1819 C1818 1.404 . S
C1819 H1831 0.930 . S
C1820 C1816 1.524 . S
C1820 H1832 0.956 . S
C1820 H1833 0.961 . S
C1820 H1834 0.961 . S
C1821 C1818 1.539 . S
C1821 H1835 0.958 . S
C1821 H1836 0.961 . S
C1821 H1837 0.960 . S
H1822 C1806 0.931 . S
H1823 C1811 0.929 . S
H1824 C1812 0.960 . S
H1825 C1812 0.962 . S
H1826 C1812 0.960 . S
H1827 C1813 0.961 . S
H1828 C1813 0.961 . S
H1829 C1813 0.961 . S
H1830 C1814 0.931 . S
H1831 C1819 0.930 . S
H1832 C1820 0.956 . S
H1833 C1820 0.961 . S
H1834 C1820 0.961 . S
H1835 C1821 0.958 . S
H1836 C1821 0.961 . S
H1837 C1821 0.960 . S
C1838 C1839 1.391 . S
C1838 C1840 1.394 . S
C1838 H1854 0.931 . S
C1839 C1838 1.391 . S
C1839 C1843 1.376 . S
C1840 C1838 1.394 . S
C1840 C1841 1.369 . S
C1840 C1844 1.531 . S
C1841 C1840 1.369 . S
C1841 C1842 1.410 . S
C1841 C1849 1.503 . S
C1842 C1841 1.410 . S
C1842 C1843 1.392 . S
C1842 C1845 1.511 . S
C1843 C1839 1.376 . S
C1843 C1842 1.392 . S
C1843 H1855 0.929 . S
C1844 C1840 1.531 . S
C1844 H1856 0.960 . S
C1844 H1857 0.962 . S
C1844 H1858 0.960 . S
C1845 C1842 1.511 . S
C1845 H1859 0.961 . S
C1845 H1860 0.961 . S
C1845 H1861 0.961 . S
C1846 C1847 1.370 . S
C1846 C1848 1.363 . S
C1846 H1862 0.931 . S
C1847 C1846 1.370 . S
C1847 C1851 1.408 . S
C1848 C1846 1.363 . S
C1848 C1849 1.370 . S
C1848 C1852 1.524 . S
C1849 C1841 1.503 . S
C1849 C1848 1.370 . S
C1849 C1850 1.403 . S
C1850 C1849 1.403 . S
C1850 C1851 1.404 . S
C1850 C1853 1.539 . S
C1851 C1847 1.408 . S
C1851 C1850 1.404 . S
C1851 H1863 0.930 . S
C1852 C1848 1.524 . S
C1852 H1864 0.956 . S
C1852 H1865 0.961 . S
C1852 H1866 0.961 . S
C1853 C1850 1.539 . S
C1853 H1867 0.958 . S
C1853 H1868 0.961 . S
C1853 H1869 0.960 . S
H1854 C1838 0.931 . S
H1855 C1843 0.929 . S
H1856 C1844 0.960 . S
H1857 C1844 0.962 . S
H1858 C1844 0.960 . S
H1859 C1845 0.961 . S
H1860 C1845 0.961 . S
H1861 C1845 0.961 . S
H1862 C1846 0.931 . S
H1863 C1851 0.930 . S
H1864 C1852 0.956 . S
H1865 C1852 0.961 . S
H1866 C1852 0.961 . S
H1867 C1853 0.958 . S
H1868 C1853 0.961 . S
H1869 C1853 0.960 . S
C1870 C1871 1.391 . S
C1870 C1872 1.394 . S
C1870 H1886 0.931 . S
C1871 C1870 1.391 . S
C1871 C1875 1.376 . S
C1872 C1870 1.394 . S
C1872 C1873 1.369 . S
C1872 C1876 1.531 . S
C1873 C1872 1.369 . S
C1873 C1874 1.410 . S
C1873 C1881 1.503 . S
C1874 C1873 1.410 . S
C1874 C1875 1.392 . S
C1874 C1877 1.511 . S
C1875 C1871 1.376 . S
C1875 C1874 1.392 . S
C1875 H1887 0.929 . S
C1876 C1872 1.531 . S
C1876 H1888 0.960 . S
C1876 H1889 0.962 . S
C1876 H1890 0.960 . S
C1877 C1874 1.511 . S
C1877 H1891 0.961 1_545 S
C1877 H1892 0.959 1_545 S
C1877 H1893 0.965 1_545 S
C1878 C1879 1.370 . S
C1878 C1880 1.363 . S
C1878 H1894 0.931 . S
C1879 C1878 1.370 . S
C1879 C1883 1.408 . S
C1880 C1878 1.363 . S
C1880 C1881 1.370 . S
C1880 C1884 1.524 . S
C1881 C1873 1.503 . S
C1881 C1880 1.370 . S
C1881 C1882 1.403 . S
C1882 C1881 1.403 . S
C1882 C1883 1.404 . S
C1882 C1885 1.539 . S
C1883 C1879 1.408 . S
C1883 C1882 1.404 . S
C1883 H1895 0.930 . S
C1884 C1880 1.524 . S
C1884 H1896 0.956 . S
C1884 H1897 0.961 . S
C1884 H1898 0.961 . S
C1885 C1882 1.539 . S
C1885 H1899 0.958 . S
C1885 H1900 0.961 . S
C1885 H1901 0.960 . S
H1886 C1870 0.931 . S
H1887 C1875 0.929 . S
H1888 C1876 0.960 . S
H1889 C1876 0.962 . S
H1890 C1876 0.960 . S
H1891 C1877 0.961 1_565 S
H1892 C1877 0.959 1_565 S
H1893 C1877 0.965 1_565 S
H1894 C1878 0.931 . S
H1895 C1883 0.930 . S
H1896 C1884 0.956 . S
H1897 C1884 0.961 . S
H1898 C1884 0.961 . S
H1899 C1885 0.958 . S
H1900 C1885 0.961 . S
H1901 C1885 0.960 . S
C1902 C1903 1.391 . S
C1902 C1904 1.394 . S
C1902 H1918 0.931 . S
C1903 C1902 1.391 . S
C1903 C1907 1.376 . S
C1904 C1902 1.394 . S
C1904 C1905 1.369 . S
C1904 C1908 1.531 . S
C1905 C1904 1.369 . S
C1905 C1906 1.410 . S
C1905 C1913 1.503 . S
C1906 C1905 1.410 . S
C1906 C1907 1.392 . S
C1906 C1909 1.511 . S
C1907 C1903 1.376 . S
C1907 C1906 1.392 . S
C1907 H1919 0.929 . S
C1908 C1904 1.531 . S
C1908 H1920 0.960 . S
C1908 H1921 0.962 . S
C1908 H1922 0.960 . S
C1909 C1906 1.511 . S
C1909 H1923 0.961 . S
C1909 H1924 0.961 . S
C1909 H1925 0.961 . S
C1910 C1911 1.370 . S
C1910 C1912 1.363 . S
C1910 H1926 0.931 . S
C1911 C1910 1.370 . S
C1911 C1915 1.408 . S
C1912 C1910 1.363 . S
C1912 C1913 1.370 . S
C1912 C1916 1.524 . S
C1913 C1905 1.503 . S
C1913 C1912 1.370 . S
C1913 C1914 1.403 . S
C1914 C1913 1.403 . S
C1914 C1915 1.404 . S
C1914 C1917 1.539 . S
C1915 C1911 1.408 . S
C1915 C1914 1.404 . S
C1915 H1927 0.930 . S
C1916 C1912 1.524 . S
C1916 H1928 0.956 . S
C1916 H1929 0.961 . S
C1916 H1930 0.961 . S
C1917 C1914 1.539 . S
C1917 H1931 0.958 . S
C1917 H1932 0.961 . S
C1917 H1933 0.960 . S
H1918 C1902 0.931 . S
H1919 C1907 0.929 . S
H1920 C1908 0.960 . S
H1921 C1908 0.962 . S
H1922 C1908 0.960 . S
H1923 C1909 0.961 . S
H1924 C1909 0.961 . S
H1925 C1909 0.961 . S
H1926 C1910 0.931 . S
H1927 C1915 0.930 . S
H1928 C1916 0.956 . S
H1929 C1916 0.961 . S
H1930 C1916 0.961 . S
H1931 C1917 0.958 . S
H1932 C1917 0.961 . S
H1933 C1917 0.960 . S
C1934 C1935 1.391 . S
C1934 C1936 1.394 . S
C1934 H1950 0.931 . S
C1935 C1934 1.391 . S
C1935 C1939 1.376 . S
C1936 C1934 1.394 . S
C1936 C1937 1.369 . S
C1936 C1940 1.531 . S
C1937 C1936 1.369 . S
C1937 C1938 1.410 . S
C1937 C1945 1.503 . S
C1938 C1937 1.410 . S
C1938 C1939 1.392 . S
C1938 C1941 1.511 . S
C1939 C1935 1.376 . S
C1939 C1938 1.392 . S
C1939 H1951 0.929 . S
C1940 C1936 1.531 . S
C1940 H1952 0.960 . S
C1940 H1953 0.962 . S
C1940 H1954 0.960 . S
C1941 C1938 1.511 . S
C1941 H1955 0.961 . S
C1941 H1956 0.961 . S
C1941 H1957 0.961 . S
C1942 C1943 1.370 . S
C1942 C1944 1.363 . S
C1942 H1958 0.931 . S
C1943 C1942 1.370 . S
C1943 C1947 1.408 . S
C1944 C1942 1.363 . S
C1944 C1945 1.370 . S
C1944 C1948 1.524 . S
C1945 C1937 1.503 . S
C1945 C1944 1.370 . S
C1945 C1946 1.403 . S
C1946 C1945 1.403 . S
C1946 C1947 1.404 . S
C1946 C1949 1.539 . S
C1947 C1943 1.408 . S
C1947 C1946 1.404 . S
C1947 H1959 0.930 . S
C1948 C1944 1.524 . S
C1948 H1960 0.956 . S
C1948 H1961 0.961 . S
C1948 H1962 0.961 . S
C1949 C1946 1.539 . S
C1949 H1963 0.958 . S
C1949 H1964 0.961 . S
C1949 H1965 0.960 . S
H1950 C1934 0.931 . S
H1951 C1939 0.929 . S
H1952 C1940 0.960 . S
H1953 C1940 0.962 . S
H1954 C1940 0.960 . S
H1955 C1941 0.961 . S
H1956 C1941 0.961 . S
H1957 C1941 0.961 . S
H1958 C1942 0.931 . S
H1959 C1947 0.930 . S
H1960 C1948 0.956 . S
H1961 C1948 0.961 . S
H1962 C1948 0.961 . S
H1963 C1949 0.958 . S
H1964 C1949 0.961 . S
H1965 C1949 0.960 . S
C1966 C1967 1.391 . S
C1966 C1968 1.394 . S
C1966 H1982 0.931 . S
C1967 C1966 1.391 . S
C1967 C1971 1.376 . S
C1968 C1966 1.394 . S
C1968 C1969 1.369 . S
C1968 C1972 1.531 . S
C1969 C1968 1.369 . S
C1969 C1970 1.410 . S
C1969 C1977 1.503 . S
C1970 C1969 1.410 . S
C1970 C1971 1.392 . S
C1970 C1973 1.511 . S
C1971 C1967 1.376 . S
C1971 C1970 1.392 . S
C1971 H1983 0.929 . S
C1972 C1968 1.531 . S
C1972 H1984 0.960 . S
C1972 H1985 0.962 . S
C1972 H1986 0.960 . S
C1973 C1970 1.511 . S
C1973 H1987 0.961 . S
C1973 H1988 0.961 . S
C1973 H1989 0.961 . S
C1974 C1975 1.370 . S
C1974 C1976 1.363 . S
C1974 H1990 0.931 . S
C1975 C1974 1.370 . S
C1975 C1979 1.408 . S
C1976 C1974 1.363 . S
C1976 C1977 1.370 . S
C1976 C1980 1.524 . S
C1977 C1969 1.503 . S
C1977 C1976 1.370 . S
C1977 C1978 1.403 . S
C1978 C1977 1.403 . S
C1978 C1979 1.404 . S
C1978 C1981 1.539 . S
C1979 C1975 1.408 . S
C1979 C1978 1.404 . S
C1979 H1991 0.930 . S
C1980 C1976 1.524 . S
C1980 H1992 0.956 . S
C1980 H1993 0.961 . S
C1980 H1994 0.961 . S
C1981 C1978 1.539 . S
C1981 H1995 0.958 . S
C1981 H1996 0.961 . S
C1981 H1997 0.960 . S
H1982 C1966 0.931 . S
H1983 C1971 0.929 . S
H1984 C1972 0.960 . S
H1985 C1972 0.962 . S
H1986 C1972 0.960 . S
H1987 C1973 0.961 . S
H1988 C1973 0.961 . S
H1989 C1973 0.961 . S
H1990 C1974 0.931 . S
H1991 C1979 0.930 . S
H1992 C1980 0.956 . S
H1993 C1980 0.961 . S
H1994 C1980 0.961 . S
H1995 C1981 0.958 . S
H1996 C1981 0.961 . S
H1997 C1981 0.960 . S
C1998 C1999 1.391 . S
C1998 C2000 1.394 . S
C1998 H2014 0.931 . S
C1999 C1998 1.391 . S
C1999 C2003 1.376 . S
C2000 C1998 1.394 . S
C2000 C2001 1.369 . S
C2000 C2004 1.531 . S
C2001 C2000 1.369 . S
C2001 C2002 1.410 . S
C2001 C2009 1.503 . S
C2002 C2001 1.410 . S
C2002 C2003 1.392 . S
C2002 C2005 1.511 . S
C2003 C1999 1.376 . S
C2003 C2002 1.392 . S
C2003 H2015 0.929 . S
C2004 C2000 1.531 . S
C2004 H2016 0.960 . S
C2004 H2017 0.962 . S
C2004 H2018 0.960 . S
C2005 C2002 1.511 . S
C2005 H2019 0.961 . S
C2005 H2020 0.961 . S
C2005 H2021 0.961 . S
C2006 C2007 1.370 . S
C2006 C2008 1.363 . S
C2006 H2022 0.931 . S
C2007 C2006 1.370 . S
C2007 C2011 1.408 . S
C2008 C2006 1.363 . S
C2008 C2009 1.370 . S
C2008 C2012 1.524 . S
C2009 C2001 1.503 . S
C2009 C2008 1.370 . S
C2009 C2010 1.403 . S
C2010 C2009 1.403 . S
C2010 C2011 1.404 . S
C2010 C2013 1.539 . S
C2011 C2007 1.408 . S
C2011 C2010 1.404 . S
C2011 H2023 0.930 . S
C2012 C2008 1.524 . S
C2012 H2024 0.956 . S
C2012 H2025 0.961 . S
C2012 H2026 0.961 . S
C2013 C2010 1.539 . S
C2013 H2027 0.958 . S
C2013 H2028 0.961 . S
C2013 H2029 0.960 . S
H2014 C1998 0.931 . S
H2015 C2003 0.929 . S
H2016 C2004 0.960 . S
H2017 C2004 0.962 . S
H2018 C2004 0.960 . S
H2019 C2005 0.961 . S
H2020 C2005 0.961 . S
H2021 C2005 0.961 . S
H2022 C2006 0.931 . S
H2023 C2011 0.930 . S
H2024 C2012 0.956 . S
H2025 C2012 0.961 . S
H2026 C2012 0.961 . S
H2027 C2013 0.958 . S
H2028 C2013 0.961 . S
H2029 C2013 0.960 . S
C2030 C2031 1.391 . S
C2030 C2032 1.394 . S
C2030 H2046 0.931 . S
C2031 C2030 1.391 . S
C2031 C2035 1.376 . S
C2032 C2030 1.394 . S
C2032 C2033 1.369 . S
C2032 C2036 1.531 . S
C2033 C2032 1.369 . S
C2033 C2034 1.410 . S
C2033 C2041 1.503 . S
C2034 C2033 1.410 . S
C2034 C2035 1.392 . S
C2034 C2037 1.511 . S
C2035 C2031 1.376 . S
C2035 C2034 1.392 . S
C2035 H2047 0.929 . S
C2036 C2032 1.531 . S
C2036 H2048 0.960 . S
C2036 H2049 0.962 . S
C2036 H2050 0.960 . S
C2037 C2034 1.511 . S
C2037 H2051 0.961 . S
C2037 H2052 0.961 . S
C2037 H2053 0.961 . S
C2038 C2039 1.370 . S
C2038 C2040 1.363 . S
C2038 H2054 0.931 . S
C2039 C2038 1.370 . S
C2039 C2043 1.408 . S
C2040 C2038 1.363 . S
C2040 C2041 1.370 . S
C2040 C2044 1.524 . S
C2041 C2033 1.503 . S
C2041 C2040 1.370 . S
C2041 C2042 1.403 . S
C2042 C2041 1.403 . S
C2042 C2043 1.404 . S
C2042 C2045 1.539 . S
C2043 C2039 1.408 . S
C2043 C2042 1.404 . S
C2043 H2055 0.930 . S
C2044 C2040 1.524 . S
C2044 H2056 0.956 . S
C2044 H2057 0.961 . S
C2044 H2058 0.961 . S
C2045 C2042 1.539 . S
C2045 H2059 0.958 . S
C2045 H2060 0.961 . S
C2045 H2061 0.960 . S
H2046 C2030 0.931 . S
H2047 C2035 0.929 . S
H2048 C2036 0.960 . S
H2049 C2036 0.962 . S
H2050 C2036 0.960 . S
H2051 C2037 0.961 . S
H2052 C2037 0.961 . S
H2053 C2037 0.961 . S
H2054 C2038 0.931 . S
H2055 C2043 0.930 . S
H2056 C2044 0.956 . S
H2057 C2044 0.961 . S
H2058 C2044 0.961 . S
H2059 C2045 0.958 . S
H2060 C2045 0.961 . S
H2061 C2045 0.960 . S
C2062 C2063 1.391 . S
C2062 C2064 1.394 . S
C2062 H2078 0.931 . S
C2063 C2062 1.391 . S
C2063 C2067 1.376 . S
C2064 C2062 1.394 . S
C2064 C2065 1.369 . S
C2064 C2068 1.531 . S
C2065 C2064 1.369 . S
C2065 C2066 1.410 . S
C2065 C2073 1.503 . S
C2066 C2065 1.410 . S
C2066 C2067 1.392 . S
C2066 C2069 1.511 . S
C2067 C2063 1.376 . S
C2067 C2066 1.392 . S
C2067 H2079 0.929 . S
C2068 C2064 1.531 . S
C2068 H2080 0.960 . S
C2068 H2081 0.962 . S
C2068 H2082 0.960 . S
C2069 C2066 1.511 . S
C2069 H2083 0.961 . S
C2069 H2084 0.961 . S
C2069 H2085 0.961 . S
C2070 C2071 1.370 . S
C2070 C2072 1.363 . S
C2070 H2086 0.931 . S
C2071 C2070 1.370 . S
C2071 C2075 1.408 . S
C2072 C2070 1.363 . S
C2072 C2073 1.370 . S
C2072 C2076 1.524 . S
C2073 C2065 1.503 . S
C2073 C2072 1.370 . S
C2073 C2074 1.403 . S
C2074 C2073 1.403 . S
C2074 C2075 1.404 . S
C2074 C2077 1.539 . S
C2075 C2071 1.408 . S
C2075 C2074 1.404 . S
C2075 H2087 0.930 . S
C2076 C2072 1.524 . S
C2076 H2088 0.956 . S
C2076 H2089 0.961 . S
C2076 H2090 0.961 . S
C2077 C2074 1.539 . S
C2077 H2091 0.958 . S
C2077 H2092 0.961 . S
C2077 H2093 0.960 . S
H2078 C2062 0.931 . S
H2079 C2067 0.929 . S
H2080 C2068 0.960 . S
H2081 C2068 0.962 . S
H2082 C2068 0.960 . S
H2083 C2069 0.961 . S
H2084 C2069 0.961 . S
H2085 C2069 0.961 . S
H2086 C2070 0.931 . S
H2087 C2075 0.930 . S
H2088 C2076 0.956 . S
H2089 C2076 0.961 . S
H2090 C2076 0.961 . S
H2091 C2077 0.958 . S
H2092 C2077 0.961 . S
H2093 C2077 0.960 . S
C2094 C2095 1.391 . S
C2094 C2096 1.394 . S
C2094 H2110 0.931 . S
C2095 C2094 1.391 . S
C2095 C2099 1.376 . S
C2096 C2094 1.394 . S
C2096 C2097 1.369 . S
C2096 C2100 1.531 . S
C2097 C2096 1.369 . S
C2097 C2098 1.410 . S
C2097 C2105 1.503 . S
C2098 C2097 1.410 . S
C2098 C2099 1.392 . S
C2098 C2101 1.511 . S
C2099 C2095 1.376 . S
C2099 C2098 1.392 . S
C2099 H2111 0.929 . S
C2100 C2096 1.531 . S
C2100 H2112 0.960 . S
C2100 H2113 0.962 . S
C2100 H2114 0.960 . S
C2101 C2098 1.511 . S
C2101 H2115 0.961 . S
C2101 H2116 0.961 . S
C2101 H2117 0.961 . S
C2102 C2103 1.370 . S
C2102 C2104 1.363 . S
C2102 H2118 0.931 . S
C2103 C2102 1.370 . S
C2103 C2107 1.408 . S
C2104 C2102 1.363 . S
C2104 C2105 1.370 . S
C2104 C2108 1.524 . S
C2105 C2097 1.503 . S
C2105 C2104 1.370 . S
C2105 C2106 1.403 . S
C2106 C2105 1.403 . S
C2106 C2107 1.404 . S
C2106 C2109 1.539 . S
C2107 C2103 1.408 . S
C2107 C2106 1.404 . S
C2107 H2119 0.930 . S
C2108 C2104 1.524 . S
C2108 H2120 0.956 . S
C2108 H2121 0.961 . S
C2108 H2122 0.961 . S
C2109 C2106 1.539 . S
C2109 H2123 0.958 . S
C2109 H2124 0.961 . S
C2109 H2125 0.960 . S
H2110 C2094 0.931 . S
H2111 C2099 0.929 . S
H2112 C2100 0.960 . S
H2113 C2100 0.962 . S
H2114 C2100 0.960 . S
H2115 C2101 0.961 . S
H2116 C2101 0.961 . S
H2117 C2101 0.961 . S
H2118 C2102 0.931 . S
H2119 C2107 0.930 . S
H2120 C2108 0.956 . S
H2121 C2108 0.961 . S
H2122 C2108 0.961 . S
H2123 C2109 0.958 . S
H2124 C2109 0.961 . S
H2125 C2109 0.960 . S
C2126 C2127 1.391 . S
C2126 C2128 1.394 . S
C2126 H2142 0.931 . S
C2127 C2126 1.391 . S
C2127 C2131 1.376 . S
C2128 C2126 1.394 . S
C2128 C2129 1.369 . S
C2128 C2132 1.531 . S
C2129 C2128 1.369 . S
C2129 C2130 1.410 . S
C2129 C2137 1.503 . S
C2130 C2129 1.410 . S
C2130 C2131 1.392 . S
C2130 C2133 1.511 . S
C2131 C2127 1.376 . S
C2131 C2130 1.392 . S
C2131 H2143 0.929 . S
C2132 C2128 1.531 . S
C2132 H2144 0.960 . S
C2132 H2145 0.962 . S
C2132 H2146 0.960 . S
C2133 C2130 1.511 . S
C2133 H2147 0.961 . S
C2133 H2148 0.961 . S
C2133 H2149 0.961 . S
C2134 C2135 1.370 . S
C2134 C2136 1.363 . S
C2134 H2150 0.931 . S
C2135 C2134 1.370 . S
C2135 C2139 1.408 . S
C2136 C2134 1.363 . S
C2136 C2137 1.370 . S
C2136 C2140 1.524 . S
C2137 C2129 1.503 . S
C2137 C2136 1.370 . S
C2137 C2138 1.403 . S
C2138 C2137 1.403 . S
C2138 C2139 1.404 . S
C2138 C2141 1.539 . S
C2139 C2135 1.408 . S
C2139 C2138 1.404 . S
C2139 H2151 0.930 . S
C2140 C2136 1.524 . S
C2140 H2152 0.956 . S
C2140 H2153 0.961 . S
C2140 H2154 0.961 . S
C2141 C2138 1.539 . S
C2141 H2155 0.958 . S
C2141 H2156 0.961 . S
C2141 H2157 0.960 . S
H2142 C2126 0.931 . S
H2143 C2131 0.929 . S
H2144 C2132 0.960 . S
H2145 C2132 0.962 . S
H2146 C2132 0.960 . S
H2147 C2133 0.961 . S
H2148 C2133 0.961 . S
H2149 C2133 0.961 . S
H2150 C2134 0.931 . S
H2151 C2139 0.930 . S
H2152 C2140 0.956 . S
H2153 C2140 0.961 . S
H2154 C2140 0.961 . S
H2155 C2141 0.958 . S
H2156 C2141 0.961 . S
H2157 C2141 0.960 . S
C2158 C2159 1.391 . S
C2158 C2160 1.394 . S
C2158 H2174 0.931 . S
C2159 C2158 1.391 . S
C2159 C2163 1.376 . S
C2160 C2158 1.394 . S
C2160 C2161 1.369 . S
C2160 C2164 1.531 . S
C2161 C2160 1.369 . S
C2161 C2162 1.410 . S
C2161 C2169 1.503 . S
C2162 C2161 1.410 . S
C2162 C2163 1.392 . S
C2162 C2165 1.511 . S
C2163 C2159 1.376 . S
C2163 C2162 1.392 . S
C2163 H2175 0.929 . S
C2164 C2160 1.531 . S
C2164 H2176 0.960 . S
C2164 H2177 0.962 . S
C2164 H2178 0.960 . S
C2165 C2162 1.511 . S
C2165 H2179 0.961 . S
C2165 H2180 0.961 . S
C2165 H2181 0.961 . S
C2166 C2167 1.370 . S
C2166 C2168 1.363 . S
C2166 H2182 0.931 . S
C2167 C2166 1.370 . S
C2167 C2171 1.408 . S
C2168 C2166 1.363 . S
C2168 C2169 1.370 . S
C2168 C2172 1.524 . S
C2169 C2161 1.503 . S
C2169 C2168 1.370 . S
C2169 C2170 1.403 . S
C2170 C2169 1.403 . S
C2170 C2171 1.404 . S
C2170 C2173 1.539 . S
C2171 C2167 1.408 . S
C2171 C2170 1.404 . S
C2171 H2183 0.930 . S
C2172 C2168 1.524 . S
C2172 H2184 0.956 . S
C2172 H2185 0.961 . S
C2172 H2186 0.961 . S
C2173 C2170 1.539 . S
C2173 H2187 0.958 . S
C2173 H2188 0.961 . S
C2173 H2189 0.960 . S
H2174 C2158 0.931 . S
H2175 C2163 0.929 . S
H2176 C2164 0.960 . S
H2177 C2164 0.962 . S
H2178 C2164 0.960 . S
H2179 C2165 0.961 . S
H2180 C2165 0.961 . S
H2181 C2165 0.961 . S
H2182 C2166 0.931 . S
H2183 C2171 0.930 . S
H2184 C2172 0.956 . S
H2185 C2172 0.961 . S
H2186 C2172 0.961 . S
H2187 C2173 0.958 . S
H2188 C2173 0.961 . S
H2189 C2173 0.960 . S
C2190 C2191 1.391 . S
C2190 C2192 1.394 . S
C2190 H2206 0.931 . S
C2191 C2190 1.391 . S
C2191 C2195 1.376 . S
C2192 C2190 1.394 . S
C2192 C2193 1.369 . S
C2192 C2196 1.531 . S
C2193 C2192 1.369 . S
C2193 C2194 1.410 . S
C2193 C2201 1.503 . S
C2194 C2193 1.410 . S
C2194 C2195 1.392 . S
C2194 C2197 1.511 . S
C2195 C2191 1.376 . S
C2195 C2194 1.392 . S
C2195 H2207 0.929 . S
C2196 C2192 1.531 . S
C2196 H2208 0.960 . S
C2196 H2209 0.962 . S
C2196 H2210 0.960 . S
C2197 C2194 1.511 . S
C2197 H2211 0.961 . S
C2197 H2212 0.961 . S
C2197 H2213 0.961 . S
C2198 C2199 1.370 . S
C2198 C2200 1.363 . S
C2198 H2214 0.931 . S
C2199 C2198 1.370 . S
C2199 C2203 1.408 . S
C2200 C2198 1.363 . S
C2200 C2201 1.370 . S
C2200 C2204 1.524 . S
C2201 C2193 1.503 . S
C2201 C2200 1.370 . S
C2201 C2202 1.403 . S
C2202 C2201 1.403 . S
C2202 C2203 1.404 . S
C2202 C2205 1.539 . S
C2203 C2199 1.408 . S
C2203 C2202 1.404 . S
C2203 H2215 0.930 . S
C2204 C2200 1.524 . S
C2204 H2216 0.956 . S
C2204 H2217 0.961 . S
C2204 H2218 0.961 . S
C2205 C2202 1.539 . S
C2205 H2219 0.958 . S
C2205 H2220 0.961 . S
C2205 H2221 0.960 . S
H2206 C2190 0.931 . S
H2207 C2195 0.929 . S
H2208 C2196 0.960 . S
H2209 C2196 0.962 . S
H2210 C2196 0.960 . S
H2211 C2197 0.961 . S
H2212 C2197 0.961 . S
H2213 C2197 0.961 . S
H2214 C2198 0.931 . S
H2215 C2203 0.930 . S
H2216 C2204 0.956 . S
H2217 C2204 0.961 . S
H2218 C2204 0.961 . S
H2219 C2205 0.958 . S
H2220 C2205 0.961 . S
H2221 C2205 0.960 . S
C2222 C2223 1.391 . S
C2222 C2224 1.394 . S
C2222 H2238 0.931 . S
C2223 C2222 1.391 . S
C2223 C2227 1.376 . S
C2224 C2222 1.394 . S
C2224 C2225 1.369 . S
C2224 C2228 1.531 . S
C2225 C2224 1.369 . S
C2225 C2226 1.410 . S
C2225 C2233 1.503 . S
C2226 C2225 1.410 . S
C2226 C2227 1.392 . S
C2226 C2229 1.511 . S
C2227 C2223 1.376 . S
C2227 C2226 1.392 . S
C2227 H2239 0.929 . S
C2228 C2224 1.531 . S
C2228 H2240 0.960 . S
C2228 H2241 0.962 . S
C2228 H2242 0.960 . S
C2229 C2226 1.511 . S
C2229 H2243 0.961 . S
C2229 H2244 0.961 . S
C2229 H2245 0.961 . S
C2230 C2231 1.370 . S
C2230 C2232 1.363 . S
C2230 H2246 0.931 . S
C2231 C2230 1.370 . S
C2231 C2235 1.408 . S
C2232 C2230 1.363 . S
C2232 C2233 1.370 . S
C2232 C2236 1.524 . S
C2233 C2225 1.503 . S
C2233 C2232 1.370 . S
C2233 C2234 1.403 . S
C2234 C2233 1.403 . S
C2234 C2235 1.404 . S
C2234 C2237 1.539 . S
C2235 C2231 1.408 . S
C2235 C2234 1.404 . S
C2235 H2247 0.930 . S
C2236 C2232 1.524 . S
C2236 H2248 0.956 . S
C2236 H2249 0.961 . S
C2236 H2250 0.961 . S
C2237 C2234 1.539 . S
C2237 H2251 0.958 . S
C2237 H2252 0.961 . S
C2237 H2253 0.960 . S
H2238 C2222 0.931 . S
H2239 C2227 0.929 . S
H2240 C2228 0.960 . S
H2241 C2228 0.962 . S
H2242 C2228 0.960 . S
H2243 C2229 0.961 . S
H2244 C2229 0.961 . S
H2245 C2229 0.961 . S
H2246 C2230 0.931 . S
H2247 C2235 0.930 . S
H2248 C2236 0.956 . S
H2249 C2236 0.961 . S
H2250 C2236 0.961 . S
H2251 C2237 0.958 . S
H2252 C2237 0.961 . S
H2253 C2237 0.960 . S
C2254 C2255 1.391 . S
C2254 C2256 1.394 . S
C2254 H2270 0.931 . S
C2255 C2254 1.391 . S
C2255 C2259 1.376 . S
C2256 C2254 1.394 . S
C2256 C2257 1.369 . S
C2256 C2260 1.531 . S
C2257 C2256 1.369 . S
C2257 C2258 1.410 . S
C2257 C2265 1.503 . S
C2258 C2257 1.410 . S
C2258 C2259 1.392 . S
C2258 C2261 1.511 . S
C2259 C2255 1.376 . S
C2259 C2258 1.392 . S
C2259 H2271 0.929 . S
C2260 C2256 1.531 . S
C2260 H2272 0.960 . S
C2260 H2273 0.962 . S
C2260 H2274 0.960 . S
C2261 C2258 1.511 . S
C2261 H2275 0.961 . S
C2261 H2276 0.961 . S
C2261 H2277 0.961 . S
C2262 C2263 1.370 . S
C2262 C2264 1.363 . S
C2262 H2278 0.931 . S
C2263 C2262 1.370 . S
C2263 C2267 1.408 . S
C2264 C2262 1.363 . S
C2264 C2265 1.370 . S
C2264 C2268 1.524 . S
C2265 C2257 1.503 . S
C2265 C2264 1.370 . S
C2265 C2266 1.403 . S
C2266 C2265 1.403 . S
C2266 C2267 1.404 . S
C2266 C2269 1.539 . S
C2267 C2263 1.408 . S
C2267 C2266 1.404 . S
C2267 H2279 0.930 . S
C2268 C2264 1.524 . S
C2268 H2280 0.956 . S
C2268 H2281 0.961 . S
C2268 H2282 0.961 . S
C2269 C2266 1.539 . S
C2269 H2283 0.958 . S
C2269 H2284 0.961 . S
C2269 H2285 0.960 . S
H2270 C2254 0.931 . S
H2271 C2259 0.929 . S
H2272 C2260 0.960 . S
H2273 C2260 0.962 . S
H2274 C2260 0.960 . S
H2275 C2261 0.961 . S
H2276 C2261 0.961 . S
H2277 C2261 0.961 . S
H2278 C2262 0.931 . S
H2279 C2267 0.930 . S
H2280 C2268 0.956 . S
H2281 C2268 0.961 . S
H2282 C2268 0.961 . S
H2283 C2269 0.958 . S
H2284 C2269 0.961 . S
H2285 C2269 0.960 . S
C559 C151 1.326 . S
C567 C210 1.352 . S
C591 C159 1.887 . S
C599 C250 2.077 . S
C623 C137 1.538 . S
C631 C280 1.637 . S
C655 C126 1.335 . S
C663 C240 1.479 1_556 S
C695 C290 1.857 . S
C687 C104 1.748 . S
C719 C118 1.094 . S
C727 C200 1.130 . S
C759 C229 1.633 . S
C751 C129 1.633 . S
C791 C269 1.788 . S
C783 C107 1.795 . S
C815 C115 1.309 . S
C823 C295 1.640 1_556 S
C847 C148 1.167 . S
C855 C255 1.471 . S
C879 C162 1.559 . S
C887 C309 1.563 . S
C919 C215 1.419 . S
C911 C140 1.413 . S
C951 C330 1.353 . S
C943 C19 1.333 . S
C975 C27 1.880 . S
C983 C370 2.078 . S
C1007 C5 1.593 . S
C1015 C400 1.637 . S
C1039 C192 1.405 . S
C1047 C360 1.481 . S
C1071 C170 1.701 . S
C1079 C410 1.854 . S
C1103 C184 1.078 . S
C1111 C320 1.111 . S
C1135 C195 1.630 . S
C1143 C349 1.635 . S
C1167 C173 1.792 . S
C1175 C389 1.794 . S
C1207 C415 1.638 . S
C1199 C181 1.343 . S
C1231 C16 1.113 . S
C1239 C375 1.467 . S
C1271 C429 1.561 . S
C1263 C30 1.560 . S
C1295 C8 1.409 . S
C1303 C335 1.420 . S
C1335 C450 1.354 . S
C1327 C85 1.317 . S
C1359 C93 1.947 . S
C1367 C490 2.079 . S
C1399 C520 1.639 . S
C1391 C71 1.594 . S
C1431 C480 1.472 . S
C1423 C60 1.353 . S
C1463 C530 1.857 . S
C1455 C38 1.749 . S
C1487 C52 1.075 . S
C1495 C440 1.111 . S
C1519 C63 1.634 . S
C1527 C469 1.634 . S
C1551 C41 1.795 . S
C1559 C509 1.787 . S
C1591 C535 1.659 . S
C1583 C49 1.239 . S
C1615 C82 1.247 . S
C1623 C495 1.459 . S
C1647 C96 1.558 . S
C1655 C549 1.562 . S
C1679 C74 1.426 . S
C1687 C455 1.411 . S
C1711 C172 1.469 . S
C1719 C227 1.514 . S
C1751 C267 1.634 . S
C1743 C183 1.561 . S
C1775 C194 1.510 . S
C1783 C286 1.548 . S
C1807 C73 1.818 . S
C1815 C246 1.801 . S
C1839 C84 1.268 . S
C1847 C307 1.351 . S
C1879 C206 1.454 . S
C1871 C95 1.442 . S
C1903 C40 1.515 . S
C1911 C347 1.524 . S
C1935 C51 1.554 . S
C1943 C387 1.636 . S
C1967 C62 1.510 . S
C1975 C406 1.540 . S
C1999 C139 1.816 . S
C2007 C366 1.807 . S
C2039 C427 1.352 . S
C2031 C150 1.270 . S
C2063 C161 1.422 . S
C2071 C326 1.455 . S
C2095 C106 1.468 . S
C2103 C467 1.511 . S
C2127 C117 1.526 . S
C2135 C507 1.646 . S
C2167 C526 1.547 . S
C2159 C128 1.509 . S
C2191 C7 1.793 . S
C2199 C486 1.801 . S
C2223 C18 1.241 . S
C2231 C547 1.355 . S
C2255 C29 1.444 . S
C2263 C446 1.457 . S
