# Generated by pormake.
# Topology pto, (3,4)-cn, num edge types: 1
# Building blocks:
#     Node 0, Type 0, BuildingBlock: WUSLED_clean_sbu_0, # of connection points: 3
#     Node 1, Type 0, BuildingBlock: WUSLED_clean_sbu_0, # of connection points: 3
#     Node 2, Type 0, BuildingBlock: WUSLED_clean_sbu_0, # of connection points: 3
#     Node 3, Type 0, BuildingBlock: WUSLED_clean_sbu_0, # of connection points: 3
#     Node 4, Type 0, BuildingBlock: WUSLED_clean_sbu_0, # of connection points: 3
#     Node 5, Type 0, BuildingBlock: WUSLED_clean_sbu_0, # of connection points: 3
#     Node 6, Type 0, BuildingBlock: WUSLED_clean_sbu_0, # of connection points: 3
#     Node 7, Type 0, BuildingBlock: WUSLED_clean_sbu_0, # of connection points: 3
#     Node 8, Type 1, BuildingBlock: NAWXER_clean_sbu_0, # of connection points: 4
#     Node 9, Type 1, BuildingBlock: NAWXER_clean_sbu_0, # of connection points: 4
#     Node 10, Type 1, BuildingBlock: NAWXER_clean_sbu_0, # of connection points: 4
#     Node 11, Type 1, BuildingBlock: NAWXER_clean_sbu_0, # of connection points: 4
#     Node 12, Type 1, BuildingBlock: NAWXER_clean_sbu_0, # of connection points: 4
#     Node 13, Type 1, BuildingBlock: NAWXER_clean_sbu_0, # of connection points: 4
#     Edge 14, Type (0, 1), BuildingBlock: XIVTED_clean_linker_0, # of connection points: 2
#     Edge 15, Type (0, 1), BuildingBlock: XIVTED_clean_linker_0, # of connection points: 2
#     Edge 16, Type (0, 1), BuildingBlock: XIVTED_clean_linker_0, # of connection points: 2
#     Edge 17, Type (0, 1), BuildingBlock: XIVTED_clean_linker_0, # of connection points: 2
#     Edge 18, Type (0, 1), BuildingBlock: XIVTED_clean_linker_0, # of connection points: 2
#     Edge 19, Type (0, 1), BuildingBlock: XIVTED_clean_linker_0, # of connection points: 2
#     Edge 20, Type (0, 1), BuildingBlock: XIVTED_clean_linker_0, # of connection points: 2
#     Edge 21, Type (0, 1), BuildingBlock: XIVTED_clean_linker_0, # of connection points: 2
#     Edge 22, Type (0, 1), BuildingBlock: XIVTED_clean_linker_0, # of connection points: 2
#     Edge 23, Type (0, 1), BuildingBlock: XIVTED_clean_linker_0, # of connection points: 2
#     Edge 24, Type (0, 1), BuildingBlock: XIVTED_clean_linker_0, # of connection points: 2
#     Edge 25, Type (0, 1), BuildingBlock: XIVTED_clean_linker_0, # of connection points: 2
#     Edge 26, Type (0, 1), BuildingBlock: XIVTED_clean_linker_0, # of connection points: 2
#     Edge 27, Type (0, 1), BuildingBlock: XIVTED_clean_linker_0, # of connection points: 2
#     Edge 28, Type (0, 1), BuildingBlock: XIVTED_clean_linker_0, # of connection points: 2
#     Edge 29, Type (0, 1), BuildingBlock: XIVTED_clean_linker_0, # of connection points: 2
#     Edge 30, Type (0, 1), BuildingBlock: XIVTED_clean_linker_0, # of connection points: 2
#     Edge 31, Type (0, 1), BuildingBlock: XIVTED_clean_linker_0, # of connection points: 2
#     Edge 32, Type (0, 1), BuildingBlock: XIVTED_clean_linker_0, # of connection points: 2
#     Edge 33, Type (0, 1), BuildingBlock: XIVTED_clean_linker_0, # of connection points: 2
#     Edge 34, Type (0, 1), BuildingBlock: XIVTED_clean_linker_0, # of connection points: 2
#     Edge 35, Type (0, 1), BuildingBlock: XIVTED_clean_linker_0, # of connection points: 2
#     Edge 36, Type (0, 1), BuildingBlock: XIVTED_clean_linker_0, # of connection points: 2
#     Edge 37, Type (0, 1), BuildingBlock: XIVTED_clean_linker_0, # of connection points: 2
# Relax obj value: 0.000
# Max RMSD: 0.007
# Mean RMSD: 0.004
data_MOF--net-pto--node1-WUSLED_clean_sbu_0--node2-NAWXER_clean_sbu_0--edge1-XIVTED_clean_linker_0
_symmetry_space_group_name_H-M    P1
_symmetry_Int_Tables_number       1
_symmetry_cell_setting            triclinic
loop_
_symmetry_equiv_pos_as_xyz
'x, y, z'
_cell_length_a     56.385265
_cell_length_b     53.217938
_cell_length_c     49.943439
_cell_angle_alpha  89.33595
_cell_angle_beta   90.42276
_cell_angle_gamma 90.478805
loop_
_atom_site_label
_atom_site_type_symbol
_atom_site_fract_x
_atom_site_fract_y
_atom_site_fract_z
_atom_type_partial_charge
C0 C 0.24169 0.22014 0.32155 0.0
C1 C 0.26294 0.20949 0.33084 0.0
C2 C 0.2408 0.17734 0.35567 0.0
C3 C 0.2625 0.18839 0.34781 0.0
C4 C 0.21957 0.18789 0.3459 0.0
C5 C 0.22004 0.20909 0.32908 0.0
U6 U 0.267 0.26249 0.26555 0.0
O7 O 0.24805 0.28471 0.23489 0.0
O8 O 0.27085 0.30366 0.26429 0.0
C9 C 0.25511 0.30625 0.24493 0.0
C10 C 0.24159 0.24303 0.30461 0.0
C11 C 0.23619 0.32447 0.24981 0.0
C12 C 0.20206 0.33839 0.27506 0.0
C13 C 0.22041 0.32123 0.27122 0.0
C14 C 0.21527 0.36227 0.23627 0.0
C15 C 0.19912 0.35899 0.25743 0.0
C16 C 0.23359 0.34516 0.23252 0.0
C17 C 0.32181 0.24151 0.2264 0.0
C18 C 0.337 0.26309 0.18682 0.0
C19 C 0.35831 0.2277 0.20578 0.0
C20 C 0.34116 0.22519 0.22576 0.0
C21 C 0.35644 0.24662 0.18596 0.0
C22 C 0.31985 0.26055 0.20687 0.0
C23 C 0.30372 0.238 0.24729 0.0
O24 O 0.25916 0.25903 0.30846 0.0
O25 O 0.23644 0.23974 0.27918 0.0
O26 O 0.2819 0.23438 0.23864 0.0
O27 O 0.30505 0.25345 0.26761 0.0
H28 H 0.2799 0.21764 0.32527 0.0
H29 H 0.2792 0.18108 0.35519 0.0
H30 H 0.20256 0.17971 0.35112 0.0
H31 H 0.20344 0.21698 0.32203 0.0
H32 H 0.18983 0.3352 0.29139 0.0
H33 H 0.22214 0.30527 0.28476 0.0
H34 H 0.21377 0.37811 0.22258 0.0
H35 H 0.24566 0.34801 0.21595 0.0
H36 H 0.33482 0.27769 0.17175 0.0
H37 H 0.37318 0.21496 0.20607 0.0
H38 H 0.343 0.21042 0.24073 0.0
H39 H 0.30498 0.27332 0.20702 0.0
C40 C 0.24657 0.79297 0.73795 0.0
C41 C 0.26724 0.7981 0.72326 0.0
C42 C 0.24808 0.83384 0.70113 0.0
C43 C 0.26796 0.81829 0.705 0.0
C44 C 0.2276 0.82883 0.7163 0.0
C45 C 0.22687 0.8086 0.73443 0.0
U46 U 0.27064 0.74741 0.7924 0.0
O47 O 0.25163 0.73093 0.82691 0.0
O48 O 0.26626 0.70647 0.79616 0.0
C49 C 0.25282 0.70802 0.81748 0.0
C50 C 0.24469 0.77107 0.75631 0.0
C51 C 0.23024 0.69377 0.81671 0.0
C52 C 0.19748 0.67472 0.79207 0.0
C53 C 0.21848 0.6889 0.79242 0.0
C54 C 0.1993 0.67058 0.84037 0.0
C55 C 0.1876 0.66529 0.81604 0.0
C56 C 0.22041 0.68461 0.84066 0.0
C57 C 0.33372 0.75628 0.82121 0.0
C58 C 0.35607 0.72548 0.84732 0.0
C59 C 0.37015 0.76851 0.84399 0.0
C60 C 0.35061 0.77463 0.82791 0.0
C61 C 0.37333 0.7438 0.85369 0.0
C62 C 0.33642 0.73167 0.8312 0.0
C63 C 0.31383 0.76332 0.80339 0.0
O64 O 0.25789 0.75154 0.75088 0.0
O65 O 0.24402 0.77611 0.78199 0.0
O66 O 0.29488 0.772 0.81519 0.0
O67 O 0.30885 0.74769 0.7839 0.0
H68 H 0.28272 0.78635 0.72561 0.0
H69 H 0.28395 0.82135 0.6935 0.0
H70 H 0.21211 0.8406 0.7143 0.0
H71 H 0.21076 0.80503 0.7456 0.0
H72 H 0.18926 0.67076 0.77291 0.0
H73 H 0.22563 0.69583 0.77363 0.0
H74 H 0.19208 0.66404 0.85926 0.0
H75 H 0.22913 0.68828 0.85964 0.0
H76 H 0.35798 0.70627 0.85432 0.0
H77 H 0.38272 0.78327 0.84894 0.0
H78 H 0.34875 0.79376 0.82056 0.0
H79 H 0.3235 0.71723 0.82631 0.0
C80 C 0.72794 0.75965 0.23927 0.0
C81 C 0.73221 0.74353 0.21777 0.0
C82 C 0.69193 0.75003 0.2009 0.0
C83 C 0.71433 0.73874 0.19875 0.0
C84 C 0.68758 0.76533 0.22312 0.0
C85 C 0.7054 0.77011 0.24203 0.0
U86 U 0.78725 0.74919 0.27661 0.0
O87 O 0.81621 0.77634 0.28408 0.0
O88 O 0.79762 0.75853 0.31787 0.0
C89 C 0.8134 0.7754 0.31016 0.0
C90 C 0.74692 0.76706 0.25818 0.0
C91 C 0.81293 0.79982 0.3238 0.0
C92 C 0.83472 0.83493 0.3431 0.0
C93 C 0.83442 0.81219 0.32934 0.0
C94 C 0.79187 0.83342 0.34581 0.0
C95 C 0.81346 0.84579 0.35172 0.0
C96 C 0.7916 0.81069 0.33193 0.0
C97 C 0.82393 0.69016 0.26622 0.0
C98 C 0.85652 0.67661 0.29509 0.0
C99 C 0.85379 0.66188 0.24945 0.0
C100 C 0.83301 0.6756 0.24555 0.0
C101 C 0.86589 0.66236 0.27418 0.0
C102 C 0.83578 0.69055 0.29109 0.0
C103 C 0.80259 0.70534 0.26104 0.0
O104 O 0.74856 0.75378 0.28047 0.0
O105 O 0.76763 0.77243 0.24752 0.0
O106 O 0.80619 0.72626 0.24738 0.0
O107 O 0.78809 0.70805 0.2813 0.0
H108 H 0.74951 0.73519 0.21531 0.0
H109 H 0.71835 0.72698 0.18185 0.0
H110 H 0.67042 0.77394 0.22572 0.0
H111 H 0.7017 0.78247 0.25854 0.0
H112 H 0.85163 0.84407 0.34684 0.0
H113 H 0.85107 0.80415 0.32314 0.0
H114 H 0.77516 0.84101 0.35237 0.0
H115 H 0.77477 0.80149 0.32783 0.0
H116 H 0.86556 0.6775 0.31427 0.0
H117 H 0.8604 0.65084 0.23305 0.0
H118 H 0.82414 0.67505 0.22624 0.0
H119 H 0.82919 0.70185 0.30728 0.0
C120 C 0.77273 0.1997 0.74471 0.0
C121 C 0.79284 0.20444 0.72896 0.0
C122 C 0.78159 0.17021 0.69928 0.0
C123 C 0.79729 0.18974 0.70645 0.0
C124 C 0.76184 0.16519 0.71564 0.0
C125 C 0.75746 0.17981 0.7381 0.0
U126 U 0.78514 0.25617 0.78952 0.0
O127 O 0.7606 0.28485 0.80392 0.0
O128 O 0.77951 0.26076 0.83277 0.0
C129 C 0.76315 0.27796 0.82911 0.0
C130 C 0.76672 0.21594 0.76726 0.0
C131 C 0.74091 0.27421 0.84397 0.0
C132 C 0.70552 0.24972 0.85482 0.0
C133 C 0.72711 0.25229 0.8412 0.0
C134 C 0.71149 0.29087 0.8741 0.0
C135 C 0.69733 0.26914 0.8712 0.0
C136 C 0.73302 0.29335 0.86061 0.0
C137 C 0.84088 0.2966 0.77525 0.0
C138 C 0.8535 0.33314 0.80069 0.0
C139 C 0.87356 0.3227 0.75961 0.0
C140 C 0.8586 0.30189 0.75649 0.0
C141 C 0.8711 0.33874 0.7816 0.0
C142 C 0.83842 0.31226 0.79748 0.0
C143 C 0.82496 0.275 0.77066 0.0
O144 O 0.78112 0.21499 0.78807 0.0
O145 O 0.76057 0.23894 0.76058 0.0
O146 O 0.804 0.28044 0.76064 0.0
O147 O 0.82417 0.2578 0.78975 0.0
H148 H 0.8048 0.21981 0.73378 0.0
H149 H 0.81255 0.1942 0.69419 0.0
H150 H 0.74961 0.15004 0.71095 0.0
H151 H 0.7419 0.17584 0.75007 0.0
H152 H 0.69498 0.23284 0.852 0.0
H153 H 0.73289 0.23734 0.8283 0.0
H154 H 0.70595 0.30601 0.88687 0.0
H155 H 0.74345 0.31039 0.86302 0.0
H156 H 0.85104 0.3452 0.81775 0.0
H157 H 0.88716 0.32618 0.74478 0.0
H158 H 0.86079 0.28997 0.73925 0.0
H159 H 0.82474 0.30848 0.81214 0.0
C160 C 0.8123 0.71258 0.7644 0.0
C161 C 0.81491 0.69781 0.74143 0.0
C162 C 0.85086 0.67905 0.76018 0.0
C163 C 0.83399 0.68122 0.73936 0.0
C164 C 0.84843 0.69433 0.7828 0.0
C165 C 0.82935 0.71078 0.7849 0.0
U166 U 0.77116 0.76689 0.74281 0.0
O167 O 0.73252 0.77089 0.74666 0.0
O168 O 0.75652 0.79716 0.76715 0.0
C169 C 0.73447 0.78984 0.7632 0.0
C170 C 0.79169 0.72927 0.76808 0.0
C171 C 0.71948 0.78851 0.78712 0.0
C172 C 0.70909 0.77033 0.83035 0.0
C173 C 0.72383 0.77116 0.80788 0.0
C174 C 0.68569 0.80425 0.81148 0.0
C175 C 0.68979 0.78686 0.83239 0.0
C176 C 0.7004 0.80505 0.7891 0.0
C177 C 0.78118 0.8043 0.67864 0.0
C178 C 0.75281 0.83514 0.66206 0.0
C179 C 0.79356 0.83669 0.64701 0.0
C180 C 0.79876 0.81558 0.66278 0.0
C181 C 0.77062 0.84692 0.64673 0.0
C182 C 0.7581 0.81409 0.67806 0.0
C183 C 0.78763 0.78347 0.69686 0.0
O184 O 0.79674 0.75295 0.7729 0.0
O185 O 0.77351 0.72637 0.75169 0.0
O186 O 0.77215 0.76493 0.69883 0.0
O187 O 0.79637 0.79044 0.7201 0.0
H188 H 0.80206 0.69878 0.72524 0.0
H189 H 0.83515 0.66963 0.72175 0.0
H190 H 0.86128 0.69359 0.799 0.0
H191 H 0.82779 0.72198 0.80278 0.0
H192 H 0.71292 0.75688 0.8462 0.0
H193 H 0.73856 0.75829 0.80668 0.0
H194 H 0.67082 0.81697 0.81213 0.0
H195 H 0.69678 0.81854 0.77319 0.0
H196 H 0.73505 0.84272 0.66241 0.0
H197 H 0.80758 0.8452 0.63518 0.0
H198 H 0.81667 0.80834 0.66302 0.0
H199 H 0.74431 0.80579 0.6904 0.0
C200 C 0.71085 0.29813 0.22187 0.0
C201 C 0.71478 0.3082 0.19615 0.0
C202 C 0.67222 0.30771 0.18707 0.0
C203 C 0.6956 0.31295 0.17887 0.0
C204 C 0.66843 0.2987 0.21331 0.0
C205 C 0.68756 0.29392 0.23048 0.0
U206 U 0.77482 0.3038 0.24891 0.0
O207 O 0.78755 0.29958 0.29051 0.0
O208 O 0.79975 0.27373 0.25971 0.0
C209 C 0.79921 0.27892 0.28536 0.0
C210 C 0.73058 0.29062 0.23961 0.0
C211 C 0.79429 0.25736 0.30326 0.0
C212 C 0.76869 0.22301 0.31827 0.0
C213 C 0.77268 0.24411 0.3018 0.0
C214 C 0.8077 0.22851 0.33809 0.0
C215 C 0.78628 0.21477 0.33643 0.0
C216 C 0.81165 0.24955 0.32164 0.0
C217 C 0.81725 0.35427 0.22081 0.0
C218 C 0.85873 0.3579 0.2339 0.0
C219 C 0.84108 0.38966 0.20509 0.0
C220 C 0.81945 0.37663 0.20591 0.0
C221 C 0.861 0.38056 0.2192 0.0
C222 C 0.83703 0.3449 0.23473 0.0
C223 C 0.79413 0.34127 0.22184 0.0
O224 O 0.74876 0.28009 0.22797 0.0
O225 O 0.73678 0.30679 0.25813 0.0
O226 O 0.78202 0.34429 0.24394 0.0
O227 O 0.7938 0.31796 0.2134 0.0
H228 H 0.73266 0.31172 0.18917 0.0
H229 H 0.69915 0.31974 0.15876 0.0
H230 H 0.65066 0.29491 0.22045 0.0
H231 H 0.68418 0.28633 0.25033 0.0
H232 H 0.75209 0.2128 0.3163 0.0
H233 H 0.75905 0.24991 0.28767 0.0
H234 H 0.82147 0.22302 0.35216 0.0
H235 H 0.82838 0.25961 0.32314 0.0
H236 H 0.87373 0.35015 0.24473 0.0
H237 H 0.84201 0.4072 0.19392 0.0
H238 H 0.80431 0.38418 0.19511 0.0
H239 H 0.83566 0.32761 0.24632 0.0
C240 C 0.26503 0.24841 0.68507 0.0
C241 C 0.28786 0.23812 0.6869 0.0
C242 C 0.27455 0.20141 0.66194 0.0
C243 C 0.29262 0.21484 0.67528 0.0
C244 C 0.25182 0.21203 0.66 0.0
C245 C 0.24714 0.23527 0.67145 0.0
U246 U 0.27667 0.3002 0.73643 0.0
O247 O 0.27133 0.34116 0.73286 0.0
O248 O 0.25168 0.31906 0.76288 0.0
C249 C 0.25441 0.34098 0.75083 0.0
C250 C 0.25916 0.27235 0.69785 0.0
C251 C 0.23242 0.35447 0.74349 0.0
C252 C 0.21208 0.39421 0.73653 0.0
C253 C 0.23298 0.38076 0.7411 0.0
C254 C 0.1897 0.35519 0.73604 0.0
C255 C 0.19012 0.38162 0.73446 0.0
C256 C 0.21064 0.34174 0.7404 0.0
C257 C 0.33074 0.29447 0.78433 0.0
C258 C 0.3697 0.30724 0.80103 0.0
C259 C 0.33847 0.29672 0.8323 0.0
C260 C 0.32293 0.29211 0.81094 0.0
C261 C 0.36216 0.30383 0.82761 0.0
C262 C 0.35418 0.30246 0.77963 0.0
C263 C 0.31558 0.28632 0.76158 0.0
O264 O 0.25223 0.27046 0.72284 0.0
O265 O 0.27391 0.29123 0.69359 0.0
O266 O 0.31573 0.30061 0.7399 0.0
O267 O 0.29437 0.27755 0.76751 0.0
H268 H 0.30189 0.24795 0.69753 0.0
H269 H 0.31026 0.20709 0.67727 0.0
H270 H 0.2376 0.20239 0.64952 0.0
H271 H 0.22943 0.24292 0.66982 0.0
H272 H 0.213 0.41454 0.73568 0.0
H273 H 0.24955 0.39098 0.74348 0.0
H274 H 0.17311 0.34492 0.73421 0.0
H275 H 0.20968 0.32144 0.74192 0.0
H276 H 0.3879 0.31247 0.79675 0.0
H277 H 0.33206 0.29421 0.85256 0.0
H278 H 0.30501 0.28599 0.81538 0.0
H279 H 0.36077 0.3042 0.75936 0.0
C280 C 0.22183 0.73548 0.26195 0.0
C281 C 0.22318 0.72087 0.23878 0.0
C282 C 0.18913 0.69578 0.25344 0.0
C283 C 0.20689 0.70121 0.2345 0.0
C284 C 0.18767 0.7109 0.27631 0.0
C285 C 0.20386 0.7305 0.2805 0.0
U286 U 0.27858 0.77289 0.24607 0.0
O287 O 0.28653 0.81322 0.25052 0.0
O288 O 0.30712 0.78528 0.27319 0.0
C289 C 0.3029 0.80924 0.26891 0.0
C290 C 0.23936 0.75539 0.2677 0.0
C291 C 0.3015 0.82483 0.29295 0.0
C292 C 0.28481 0.83409 0.33641 0.0
C293 C 0.28556 0.81907 0.31359 0.0
C294 C 0.31587 0.86075 0.31809 0.0
C295 C 0.29996 0.85515 0.33894 0.0
C296 C 0.31662 0.84572 0.29535 0.0
C297 C 0.31589 0.75861 0.18526 0.0
C298 C 0.35038 0.7842 0.1738 0.0
C299 C 0.34388 0.74411 0.1523 0.0
C300 C 0.32307 0.74055 0.16692 0.0
C301 C 0.35792 0.76585 0.15577 0.0
C302 C 0.32958 0.78054 0.18854 0.0
C303 C 0.29475 0.75381 0.20165 0.0
O304 O 0.26059 0.74751 0.27459 0.0
O305 O 0.23982 0.77454 0.25083 0.0
O306 O 0.27915 0.77202 0.20205 0.0
O307 O 0.29905 0.74401 0.22544 0.0
H308 H 0.23702 0.72443 0.22425 0.0
H309 H 0.20861 0.68984 0.21679 0.0
H310 H 0.174 0.70753 0.29108 0.0
H311 H 0.2025 0.74163 0.29845 0.0
H312 H 0.27253 0.82904 0.35219 0.0
H313 H 0.27378 0.80295 0.31209 0.0
H314 H 0.32751 0.877 0.31911 0.0
H315 H 0.32901 0.85045 0.27955 0.0
H316 H 0.36091 0.80101 0.1771 0.0
H317 H 0.34905 0.72978 0.13832 0.0
H318 H 0.31272 0.72351 0.16416 0.0
H319 H 0.32438 0.79462 0.20281 0.0
C320 C 1.00611 0.49096 0.23264 0.0
C321 C 0.06942 0.55507 0.23901 0.0
O322 O 1.01346 0.49527 0.25649 0.0
Zn323 Zn 0.03832 0.51847 0.27721 0.0
O324 O 1.01533 0.503 0.21307 0.0
Zn325 Zn 0.03794 0.52302 0.23407 0.0
O326 O 0.06163 0.49524 0.24939 0.0
O327 O 0.05962 0.49368 0.29349 0.0
O328 O 0.05965 0.54743 0.21748 0.0
O329 O 0.06282 0.54565 0.26153 0.0
O330 O 1.01705 0.53915 0.29858 0.0
O331 O 1.0148 0.54699 0.25514 0.0
C332 C 0.06846 0.48571 0.27181 0.0
C333 C 1.00817 0.55158 0.27905 0.0
C334 C 0.9859 0.48442 0.78692 0.0
C335 C 0.04635 0.55076 0.79564 0.0
O336 O 0.99542 0.49222 0.8085 0.0
Zn337 Zn 1.01598 0.51752 0.79222 0.0
O338 O 0.99209 0.49436 0.76447 0.0
Zn339 Zn 1.01588 0.5231 0.74975 0.0
O340 O 0.0379 0.50424 0.72779 0.0
O341 O 0.04035 0.49472 0.77082 0.0
O342 O 0.03961 0.54711 0.77142 0.0
O343 O 0.03733 0.53755 0.81441 0.0
O344 O 0.99087 0.54456 0.77728 0.0
O345 O 0.99409 0.54703 0.73333 0.0
C346 C 0.0472 0.4914 0.74672 0.0
C347 C 0.98418 0.55408 0.75476 0.0
C348 C 0.25569 0.97355 0.5633 0.0
C349 C 0.2516 0.037 0.49124 0.0
O350 O 0.2371 0.98236 0.55221 0.0
Zn351 Zn 0.25263 1.00552 0.52748 0.0
O352 O 0.27611 0.98159 0.55571 0.0
Zn353 Zn 0.29062 1.00775 0.52699 0.0
O354 O 0.30685 0.03265 0.5492 0.0
O355 O 0.26794 0.03288 0.55346 0.0
O356 O 0.27277 0.03131 0.4984 0.0
O357 O 0.23409 0.02669 0.50312 0.0
O358 O 0.26956 0.98056 0.50045 0.0
O359 O 0.30833 0.98591 0.50342 0.0
C360 C 0.28841 0.04168 0.55988 0.0
C361 C 0.29051 0.9748 0.49297 0.0
C362 C 0.56992 0.73778 0.0529 0.0
C363 C 0.5109 0.73175 0.97986 0.0
O364 O 0.56193 0.71753 0.04275 0.0
Zn365 Zn 0.54046 0.73311 0.01643 0.0
O366 O 0.56251 0.75896 0.0438 0.0
Zn367 Zn 0.5388 0.77361 0.01408 0.0
O368 O 0.51525 0.79107 0.03544 0.0
O369 O 0.51475 0.74993 0.04138 0.0
O370 O 0.51685 0.75421 0.98611 0.0
O371 O 0.51988 0.71325 0.99263 0.0
O372 O 0.56476 0.75067 0.98912 0.0
O373 O 0.56024 0.79182 0.9903 0.0
C374 C 0.50659 0.77163 0.04692 0.0
C375 C 0.57069 0.77276 0.98092 0.0
C376 C 0.76157 0.99931 0.52958 0.0
C377 C 0.76957 0.06609 0.46123 0.0
O378 O 0.74451 1.00866 0.51602 0.0
Zn379 Zn 0.76402 0.03233 0.4949 0.0
O380 O 0.78284 1.00676 0.52518 0.0
Zn381 Zn 0.80212 0.03214 0.50032 0.0
O382 O 0.81666 0.05384 0.52729 0.0
O383 O 0.77766 0.05677 0.52516 0.0
O384 O 0.78927 0.0585 0.47127 0.0
O385 O 0.75021 0.05619 0.46923 0.0
O386 O 0.78253 1.00711 0.4698 0.0
O387 O 0.82081 1.00898 0.47906 0.0
C388 C 0.79751 0.06335 0.53576 0.0
C389 C 0.8037 0.9996 0.46563 0.0
C390 C 0.54303 0.3038 0.04801 0.0
C391 C 0.48445 0.30113 0.97499 0.0
O392 O 0.53711 0.28155 0.04086 0.0
Zn393 Zn 0.51503 0.26331 1.01199 0.0
O394 O 0.53418 0.32268 0.03581 0.0
Zn395 Zn 0.51418 0.30359 1.01109 0.0
O396 O 0.48918 0.28559 0.03773 0.0
O397 O 0.49346 0.24451 0.03505 0.0
O398 O 0.49361 0.32071 0.98534 0.0
O399 O 0.49109 0.27937 0.98325 0.0
O400 O 0.53825 0.246 0.99005 0.0
O401 O 0.54021 0.28723 0.98588 0.0
C402 C 0.48304 0.26329 0.04508 0.0
C403 C 0.54783 0.26547 0.97963 0.0
H404 H 0.17101 0.37887 0.21792 0.0
H405 H 0.09233 0.46353 0.31457 0.0
H406 H 0.18099 0.37909 0.30367 0.0
H407 H 0.08634 0.46236 0.22835 0.0
H408 H 0.12358 0.4316 0.31215 0.0
H409 H 0.1388 0.40857 0.22241 0.0
C410 C 0.16652 0.38529 0.23774 0.0
C411 C 0.17895 0.37662 0.26041 0.0
C412 C 0.11531 0.43835 0.29383 0.0
C413 C 0.14162 0.41068 0.26582 0.0
C414 C 0.09747 0.45653 0.2952 0.0
C415 C 0.08673 0.46577 0.27164 0.0
C416 C 0.12234 0.42937 0.26873 0.0
C417 C 0.09413 0.456 0.24709 0.0
C418 C 0.14797 0.40219 0.24033 0.0
C419 C 0.17185 0.3852 0.28564 0.0
N420 N 0.1114 0.43847 0.24632 0.0
N421 N 0.15372 0.40185 0.28767 0.0
H422 H 0.17582 0.62435 0.84779 0.0
H423 H 0.0603 0.5894 0.76305 0.0
H424 H 0.14855 0.67062 0.78315 0.0
H425 H 0.07548 0.55516 0.83996 0.0
H426 H 0.0933 0.61855 0.76977 0.0
H427 H 0.13999 0.59825 0.84521 0.0
C428 C 0.16226 0.62924 0.83323 0.0
C429 C 0.16542 0.64974 0.81554 0.0
C430 C 0.08936 0.60482 0.78531 0.0
C431 C 0.12446 0.61953 0.81222 0.0
C432 C 0.07052 0.5881 0.78147 0.0
C433 C 0.06515 0.56972 0.80094 0.0
C434 C 0.10328 0.60303 0.80865 0.0
C435 C 0.07896 0.56906 0.82446 0.0
C436 C 0.14182 0.61422 0.83172 0.0
C437 C 0.14727 0.65477 0.79684 0.0
N438 N 0.09757 0.58531 0.82755 0.0
N439 N 0.12772 0.6397 0.79558 0.0
H440 H 0.90302 0.66131 0.23965 0.0
H441 H 0.97721 0.55751 0.32132 0.0
H442 H 0.88054 0.63235 0.31647 0.0
H443 H 0.9969 0.58946 0.24476 0.0
H444 H 0.94364 0.58685 0.32278 0.0
H445 H 0.93924 0.63703 0.24371 0.0
C446 C 0.90571 0.64976 0.2574 0.0
C447 C 0.88858 0.64861 0.27758 0.0
C448 C 0.9555 0.58753 0.30583 0.0
C449 C 0.93029 0.62061 0.28252 0.0
C450 C 0.9747 0.5709 0.30507 0.0
C451 C 0.98971 0.57085 0.28275 0.0
C452 C 0.9515 0.60419 0.2842 0.0
C453 C 0.98561 0.58853 0.2622 0.0
C454 C 0.9265 0.63595 0.25981 0.0
C455 C 0.8933 0.63374 0.30043 0.0
N456 N 0.96691 0.60429 0.26337 0.0
N457 N 0.91364 0.62011 0.30219 0.0
H458 H 0.89302 0.35767 0.82675 0.0
H459 H 0.9605 0.46653 0.74448 0.0
H460 H 0.88453 0.37159 0.74194 0.0
H461 H 0.97009 0.45551 0.82964 0.0
H462 H 0.93168 0.43237 0.74413 0.0
H463 H 0.91999 0.39406 0.82924 0.0
C464 C 0.89667 0.36846 0.8087 0.0
C465 C 0.88664 0.36139 0.78404 0.0
C466 C 0.93999 0.43737 0.76297 0.0
C467 C 0.91757 0.4029 0.78672 0.0
C468 C 0.95655 0.45694 0.76319 0.0
C469 C 0.96787 0.46392 0.78713 0.0
C470 C 0.93462 0.42442 0.78685 0.0
C471 C 0.96183 0.45076 0.81071 0.0
C472 C 0.91216 0.38915 0.81012 0.0
C473 C 0.89216 0.37599 0.76129 0.0
N474 N 0.94566 0.43157 0.80997 0.0
N475 N 0.90724 0.39591 0.76319 0.0
H476 H 0.20916 0.16645 0.39614 0.0
H477 H 0.28367 0.0512 0.45354 0.0
H478 H 0.27144 0.13744 0.35774 0.0
H479 H 0.21217 0.06554 0.47915 0.0
H480 H 0.27968 0.08382 0.41931 0.0
H481 H 0.20988 0.1307 0.42736 0.0
C482 C 0.22285 0.15249 0.39403 0.0
C483 C 0.24037 0.15517 0.37425 0.0
C484 C 0.26476 0.07979 0.43225 0.0
C485 C 0.24147 0.11438 0.41035 0.0
C486 C 0.26704 0.06118 0.4519 0.0
C487 C 0.24825 0.05569 0.46935 0.0
C488 C 0.24362 0.0934 0.43011 0.0
C489 C 0.22708 0.06915 0.46609 0.0
C490 C 0.22328 0.13212 0.41198 0.0
C491 C 0.25785 0.13658 0.37292 0.0
N492 N 0.22541 0.08759 0.447 0.0
N493 N 0.25803 0.11713 0.39078 0.0
H494 H 0.37675 0.71232 0.89799 0.0
H495 H 0.50674 0.75997 0.93483 0.0
H496 H 0.41896 0.76063 0.84684 0.0
H497 H 0.47462 0.69674 0.97579 0.0
H498 H 0.47461 0.75938 0.90204 0.0
H499 H 0.41187 0.70507 0.92631 0.0
C500 C 0.39341 0.72119 0.8925 0.0
C501 C 0.39473 0.73746 0.87015 0.0
C502 C 0.47461 0.74537 0.91794 0.0
C503 C 0.43489 0.72939 0.90265 0.0
C504 C 0.493 0.7457 0.93668 0.0
C505 C 0.49331 0.72839 0.95805 0.0
C506 C 0.45596 0.72792 0.92076 0.0
C507 C 0.47508 0.7103 0.95948 0.0
C508 C 0.41343 0.71706 0.90874 0.0
C509 C 0.41682 0.74849 0.86421 0.0
N510 N 0.45688 0.71077 0.94129 0.0
N511 N 0.43586 0.74444 0.88044 0.0
H512 H 0.84556 0.86118 0.39018 0.0
H513 H 0.77325 0.9844 0.42644 0.0
H514 H 0.78225 0.88516 0.34833 0.0
H515 H 0.84203 0.96807 0.46055 0.0
H516 H 0.77691 0.94834 0.39731 0.0
H517 H 0.84523 0.90013 0.41567 0.0
C518 C 0.8317 0.87469 0.38612 0.0
C519 C 0.81384 0.86971 0.36704 0.0
C520 C 0.79133 0.95266 0.41098 0.0
C521 C 0.81323 0.9143 0.39655 0.0
C522 C 0.78925 0.9733 0.42769 0.0
C523 C 0.80732 0.97923 0.44611 0.0
C524 C 0.81153 0.9375 0.41277 0.0
C525 C 0.82769 0.96422 0.44663 0.0
C526 C 0.83149 0.89691 0.40081 0.0
C527 C 0.79615 0.88785 0.3631 0.0
N528 N 0.82915 0.94387 0.43039 0.0
N529 N 0.79626 0.90921 0.37776 0.0
H530 H 0.66393 0.30572 0.87597 0.0
H531 H 0.57538 0.22424 0.96809 0.0
H532 H 0.67722 0.22829 0.89733 0.0
H533 H 0.56706 0.30301 0.94909 0.0
H534 H 0.61088 0.2237 0.93977 0.0
H535 H 0.62669 0.3035 0.90023 0.0
C536 C 0.65905 0.28823 0.88587 0.0
C537 C 0.67394 0.26726 0.88485 0.0
C538 C 0.60116 0.24103 0.94173 0.0
C539 C 0.63091 0.26447 0.91268 0.0
C540 C 0.58086 0.24133 0.95782 0.0
C541 C 0.56825 0.26374 0.96114 0.0
C542 C 0.60879 0.26327 0.92881 0.0
C543 C 0.57623 0.28533 0.94737 0.0
C544 C 0.63766 0.28692 0.89964 0.0
C545 C 0.6663 0.24491 0.89753 0.0
N546 N 0.59593 0.28454 0.93196 0.0
N547 N 0.64538 0.24414 0.91108 0.0
H548 H 0.21214 0.85012 0.6677 0.0
H549 H 0.29179 0.95478 0.59415 0.0
H550 H 0.2851 0.86595 0.68882 0.0
H551 H 0.21636 0.94713 0.58079 0.0
H552 H 0.28971 0.92147 0.62797 0.0
H553 H 0.21335 0.88475 0.63518 0.0
C554 C 0.22838 0.86095 0.66571 0.0
C555 C 0.24855 0.85499 0.68119 0.0
C556 C 0.27357 0.92709 0.61774 0.0
C557 C 0.25013 0.89457 0.64349 0.0
C558 C 0.27473 0.94614 0.59834 0.0
C559 C 0.25421 0.95381 0.58451 0.0
C560 C 0.25174 0.91537 0.62336 0.0
C561 C 0.23264 0.94188 0.59094 0.0
C562 C 0.22908 0.88068 0.64698 0.0
C563 C 0.2692 0.8695 0.67717 0.0
N564 N 0.23198 0.92319 0.60981 0.0
N565 N 0.26944 0.88852 0.65873 0.0
H566 H 0.66305 0.78634 0.17997 0.0
H567 H 0.59433 0.69767 0.07557 0.0
H568 H 0.67915 0.70762 0.1724 0.0
H569 H 0.58598 0.77801 0.08103 0.0
H570 H 0.62403 0.69955 0.11195 0.0
H571 H 0.63321 0.78226 0.14495 0.0
C572 C 0.66017 0.76808 0.17112 0.0
C573 C 0.67358 0.74725 0.17941 0.0
C574 C 0.61563 0.7167 0.10511 0.0
C575 C 0.63937 0.74247 0.13858 0.0
C576 C 0.59866 0.71564 0.08439 0.0
C577 C 0.58763 0.73771 0.07512 0.0
C578 C 0.62145 0.73997 0.11665 0.0
C579 C 0.59398 0.76047 0.08732 0.0
C580 C 0.64318 0.76579 0.15088 0.0
C581 C 0.66934 0.72422 0.16658 0.0
N582 N 0.61036 0.76096 0.10733 0.0
N583 N 0.65256 0.72241 0.14684 0.0
H584 H 0.74786 0.15674 0.66262 0.0
H585 H 0.83441 0.07774 0.56937 0.0
H586 H 0.82295 0.15112 0.67859 0.0
H587 H 0.75984 0.0895 0.55406 0.0
H588 H 0.83171 0.10511 0.60863 0.0
H589 H 0.75286 0.13233 0.62226 0.0
C590 C 0.76543 0.15023 0.65771 0.0
C591 C 0.78496 0.15578 0.67423 0.0
C592 C 0.81602 0.10174 0.59652 0.0
C593 C 0.79095 0.12784 0.62753 0.0
C594 C 0.81756 0.08619 0.57409 0.0
C595 C 0.7973 0.08116 0.55843 0.0
C596 C 0.79407 0.11227 0.60325 0.0
C597 C 0.77593 0.09261 0.56555 0.0
C598 C 0.76833 0.13639 0.63449 0.0
C599 C 0.80741 0.14731 0.66641 0.0
N600 N 0.7749 0.10745 0.58738 0.0
N601 N 0.80979 0.13362 0.64368 0.0
H602 H 0.37542 0.28991 0.16411 0.0
H603 H 0.46471 0.2192 0.06631 0.0
H604 H 0.37937 0.20914 0.15903 0.0
H605 H 0.45805 0.29983 0.07022 0.0
H606 H 0.43362 0.21482 0.10019 0.0
H607 H 0.40561 0.29365 0.12949 0.0
C608 C 0.38248 0.27293 0.15561 0.0
C609 C 0.37474 0.24917 0.16461 0.0
C610 C 0.43897 0.23346 0.09358 0.0
C611 C 0.40973 0.25332 0.12499 0.0
C612 C 0.45672 0.23597 0.07423 0.0
C613 C 0.46407 0.25991 0.06535 0.0
C614 C 0.42849 0.25505 0.10418 0.0
C615 C 0.45304 0.28096 0.07639 0.0
C616 C 0.39988 0.27508 0.13591 0.0
C617 C 0.38497 0.22786 0.15306 0.0
N618 N 0.43589 0.27803 0.09517 0.0
N619 N 0.40189 0.23045 0.1339 0.0
H620 H 0.86892 0.64981 0.80088 0.0
H621 H 0.96506 0.57975 0.71138 0.0
H622 H 0.87758 0.66551 0.7165 0.0
H623 H 0.95891 0.57118 0.79712 0.0
H624 H 0.93258 0.61022 0.71192 0.0
H625 H 0.90134 0.62005 0.79899 0.0
C626 C 0.87775 0.64719 0.78194 0.0
C627 C 0.87053 0.66048 0.75887 0.0
C628 C 0.9384 0.60166 0.73058 0.0
C629 C 0.90772 0.62579 0.75646 0.0
C630 C 0.95694 0.58426 0.73029 0.0
C631 C 0.96479 0.57283 0.75424 0.0
C632 C 0.92759 0.6076 0.75498 0.0
C633 C 0.95356 0.57944 0.77813 0.0
C634 C 0.89624 0.63 0.78085 0.0
C635 C 0.88236 0.65562 0.73478 0.0
N636 N 0.9356 0.59628 0.77786 0.0
N637 N 0.90038 0.63872 0.73421 0.0
H638 H 0.88205 0.40691 0.17764 0.0
H639 H 0.98818 0.45835 0.26976 0.0
H640 H 0.89183 0.38778 0.26121 0.0
H641 H 0.97908 0.48155 0.18723 0.0
H642 H 0.9543 0.43027 0.26537 0.0
H643 H 0.9184 0.43242 0.17938 0.0
C644 C 0.89179 0.40804 0.19636 0.0
C645 C 0.88373 0.39514 0.21935 0.0
C646 C 0.95966 0.44138 0.24812 0.0
C647 C 0.92553 0.42417 0.22134 0.0
C648 C 0.9791 0.4575 0.25059 0.0
C649 C 0.98647 0.47255 0.22886 0.0
C650 C 0.94722 0.44018 0.22373 0.0
C651 C 0.97402 0.47034 0.20452 0.0
C652 C 0.91262 0.42252 0.19727 0.0
C653 C 0.89739 0.39704 0.24287 0.0
N654 N 0.95488 0.45457 0.20265 0.0
N655 N 0.91748 0.4113 0.24325 0.0
H656 H 0.18023 0.42326 0.70316 0.0
H657 H 0.05953 0.45152 0.77812 0.0
H658 H 0.14891 0.37317 0.76178 0.0
H659 H 0.07839 0.48954 0.70445 0.0
H660 H 0.09285 0.42327 0.77256 0.0
H661 H 0.14397 0.44849 0.70334 0.0
C662 C 0.16569 0.4175 0.71595 0.0
C663 C 0.16765 0.39608 0.73253 0.0
C664 C 0.08965 0.43763 0.75744 0.0
C665 C 0.12621 0.42489 0.73291 0.0
C666 C 0.07064 0.45384 0.76064 0.0
C667 C 0.06621 0.47301 0.74177 0.0
C668 C 0.10475 0.44075 0.73541 0.0
C669 C 0.08114 0.47497 0.71944 0.0
C670 C 0.14497 0.43182 0.71593 0.0
C671 C 0.14816 0.38937 0.7485 0.0
N672 N 0.09995 0.45923 0.71703 0.0
N673 N 0.12841 0.40383 0.74848 0.0
H674 H 0.17483 0.66197 0.29167 0.0
H675 H 0.08583 0.58446 0.19672 0.0
H676 H 0.16604 0.67962 0.20766 0.0
H677 H 0.09584 0.57093 0.28144 0.0
H678 H 0.11602 0.6181 0.19889 0.0
H679 H 0.14679 0.62734 0.28697 0.0
C680 C 0.16688 0.65865 0.27221 0.0
C681 C 0.17263 0.67398 0.25011 0.0
C682 C 0.11159 0.60766 0.21693 0.0
C683 C 0.14042 0.63388 0.24443 0.0
C684 C 0.0944 0.58844 0.21569 0.0
C685 C 0.08816 0.57487 0.23894 0.0
C686 C 0.12261 0.61322 0.24156 0.0
C687 C 0.09987 0.58089 0.26298 0.0
C688 C 0.15091 0.63871 0.26947 0.0
C689 C 0.16217 0.66826 0.22523 0.0
N690 N 0.11639 0.59953 0.26363 0.0
N691 N 0.14645 0.64875 0.22308 0.0
H692 H 0.73273 0.85824 0.61356 0.0
H693 H 0.78764 0.99281 0.57451 0.0
H694 H 0.79756 0.88956 0.64577 0.0
H695 H 0.72789 0.96113 0.53193 0.0
H696 H 0.78694 0.95729 0.60539 0.0
H697 H 0.72671 0.89731 0.58756 0.0
C698 C 0.74558 0.87338 0.61529 0.0
C699 C 0.76585 0.87055 0.63157 0.0
C700 C 0.77381 0.95803 0.58947 0.0
C701 C 0.75901 0.91513 0.60217 0.0
C702 C 0.77416 0.9784 0.57184 0.0
C703 C 0.75797 0.97976 0.55045 0.0
C704 C 0.75731 0.93849 0.58565 0.0
C705 C 0.7407 0.96073 0.54818 0.0
C706 C 0.74217 0.8956 0.60042 0.0
C707 C 0.78194 0.89071 0.63309 0.0
N708 N 0.74101 0.9406 0.56539 0.0
N709 N 0.77819 0.91202 0.61858 0.0
H710 H 0.66335 0.34471 0.14908 0.0
H711 H 0.55378 0.26917 0.08629 0.0
H712 H 0.63512 0.27499 0.18093 0.0
H713 H 0.57157 0.34463 0.06052 0.0
H714 H 0.58389 0.27182 0.1211 0.0
H715 H 0.63057 0.34581 0.11637 0.0
C716 C 0.65025 0.3297 0.14927 0.0
C717 C 0.65199 0.30975 0.16787 0.0
C718 C 0.58122 0.28793 0.10801 0.0
C719 C 0.61454 0.31093 0.13061 0.0
C720 C 0.56401 0.2864 0.08802 0.0
C721 C 0.56023 0.30667 0.07033 0.0
C722 C 0.59512 0.30981 0.11035 0.0
C723 C 0.57391 0.32859 0.07377 0.0
C724 C 0.6315 0.33043 0.13071 0.0
C725 C 0.6344 0.29094 0.16733 0.0
N726 N 0.59097 0.32951 0.09326 0.0
N727 N 0.61657 0.29195 0.14897 0.0
H728 H 0.24623 0.15963 0.66499 0.0
H729 H 0.32492 0.07589 0.56764 0.0
H730 H 0.31297 0.18566 0.6328 0.0
H731 H 0.25456 0.05634 0.59467 0.0
H732 H 0.32379 0.11378 0.5954 0.0
H733 H 0.25185 0.11939 0.64335 0.0
C734 C 0.26209 0.15689 0.6533 0.0
C735 C 0.27897 0.17622 0.65038 0.0
C736 C 0.30872 0.10103 0.59538 0.0
C737 C 0.28566 0.12987 0.62551 0.0
C738 C 0.30941 0.07936 0.57966 0.0
C739 C 0.28973 0.06303 0.57865 0.0
C740 C 0.28828 0.1062 0.61028 0.0
C741 C 0.27006 0.0685 0.59456 0.0
C742 C 0.26536 0.13382 0.64102 0.0
C743 C 0.29949 0.17129 0.63556 0.0
N744 N 0.26982 0.08958 0.60954 0.0
N745 N 0.30217 0.14866 0.62345 0.0
H746 H 0.37636 0.80801 0.13064 0.0
H747 H 0.49146 0.73517 0.08131 0.0
H748 H 0.39172 0.73027 0.14837 0.0
H749 H 0.47601 0.81109 0.05578 0.0
H750 H 0.45657 0.73521 0.10938 0.0
H751 H 0.41399 0.81146 0.10628 0.0
C752 C 0.38769 0.79173 0.12953 0.0
C753 C 0.38078 0.76873 0.14135 0.0
C754 C 0.46075 0.75196 0.09777 0.0
C755 C 0.42373 0.77256 0.11361 0.0
C756 C 0.48076 0.75197 0.08169 0.0
C757 C 0.4866 0.77309 0.06592 0.0
C758 C 0.44617 0.77318 0.09816 0.0
C759 C 0.47214 0.79439 0.06758 0.0
C760 C 0.40909 0.79369 0.11556 0.0
C761 C 0.39607 0.74822 0.13918 0.0
N762 N 0.45243 0.79383 0.08327 0.0
N763 N 0.41673 0.75063 0.1256 0.0
H764 H 0.81862 0.17818 0.34825 0.0
H765 H 0.73259 0.09522 0.44193 0.0
H766 H 0.74584 0.19831 0.36246 0.0
H767 H 0.80791 0.08383 0.43402 0.0
H768 H 0.73546 0.13069 0.41 0.0
H769 H 0.81344 0.14127 0.37685 0.0
C770 C 0.80155 0.17494 0.35752 0.0
C771 C 0.78275 0.19165 0.35315 0.0
C772 C 0.75129 0.1203 0.41524 0.0
C773 C 0.77653 0.14891 0.38589 0.0
C774 C 0.74965 0.10002 0.43337 0.0
C775 C 0.77005 0.08659 0.44082 0.0
C776 C 0.77345 0.127 0.40438 0.0
C777 C 0.79171 0.09369 0.42912 0.0
C778 C 0.79854 0.15371 0.37377 0.0
C779 C 0.76083 0.18594 0.36517 0.0
N780 N 0.7928 0.11333 0.4116 0.0
N781 N 0.75834 0.16512 0.3811 0.0
H782 H 0.3966 0.33994 0.83653 0.0
H783 H 0.45471 0.26387 0.95844 0.0
H784 H 0.36718 0.27149 0.86999 0.0
H785 H 0.47175 0.34198 0.94348 0.0
H786 H 0.4245 0.26582 0.92352 0.0
H787 H 0.42603 0.34069 0.87312 0.0
C788 C 0.39628 0.32515 0.8516 0.0
C789 C 0.37936 0.30566 0.85025 0.0
C790 C 0.43474 0.2826 0.92787 0.0
C791 C 0.41297 0.30631 0.89189 0.0
C792 C 0.45212 0.28149 0.94778 0.0
C793 C 0.46586 0.3028 0.95391 0.0
C794 C 0.43111 0.30512 0.91359 0.0
C795 C 0.46153 0.32512 0.93944 0.0
C796 C 0.41299 0.32566 0.8725 0.0
C797 C 0.37967 0.28705 0.87039 0.0
N798 N 0.44461 0.32567 0.91979 0.0
N799 N 0.39627 0.28775 0.89019 0.0
H800 H 0.26059 0.86996 0.36637 0.0
H801 H 0.33147 0.95912 0.46834 0.0
H802 H 0.33685 0.87793 0.36616 0.0
H803 H 0.25563 0.94725 0.46887 0.0
H804 H 0.33441 0.92893 0.43169 0.0
H805 H 0.25897 0.8976 0.40484 0.0
C806 C 0.27704 0.87731 0.37455 0.0
C807 C 0.29888 0.87153 0.36291 0.0
C808 C 0.31716 0.93291 0.43995 0.0
C809 C 0.29714 0.9037 0.40696 0.0
C810 C 0.31548 0.95011 0.46088 0.0
C811 C 0.29327 0.95583 0.47169 0.0
C812 C 0.29648 0.9214 0.42978 0.0
C813 C 0.27315 0.94358 0.46119 0.0
C814 C 0.2761 0.89328 0.39647 0.0
C815 C 0.31957 0.88211 0.37419 0.0
N816 N 0.27524 0.92707 0.44085 0.0
N817 N 0.31819 0.8977 0.39553 0.0
H818 H 0.66928 0.82594 0.85919 0.0
H819 H 0.59612 0.73537 0.95812 0.0
H820 H 0.67313 0.74496 0.859 0.0
H821 H 0.58792 0.81597 0.95651 0.0
H822 H 0.62594 0.73915 0.9234 0.0
H823 H 0.64105 0.8232 0.8961 0.0
C824 C 0.66419 0.80757 0.86685 0.0
C825 C 0.67359 0.78563 0.85582 0.0
C826 C 0.6177 0.75606 0.93061 0.0
C827 C 0.64138 0.78242 0.8983 0.0
C828 C 0.60061 0.75394 0.95052 0.0
C829 C 0.58937 0.7754 0.96027 0.0
C830 C 0.62375 0.77984 0.92019 0.0
C831 C 0.59607 0.79892 0.94959 0.0
C832 C 0.64814 0.80605 0.88802 0.0
C833 C 0.66663 0.7624 0.86698 0.0
N834 N 0.6128 0.80051 0.93006 0.0
N835 N 0.65093 0.76143 0.88748 0.0
loop_
_geom_bond_atom_site_label_1
_geom_bond_atom_site_label_2
_geom_bond_distance
_geom_bond_site_symmetry_2
_ccdc_geom_bond_type
C0 C1 1.264 . S
C0 C5 1.479 . S
C0 C10 1.465 . S
C1 C0 1.264 . S
C1 C3 1.339 . S
C1 H28 0.931 . S
C2 C3 1.395 . S
C2 C4 1.320 . S
C3 C1 1.339 . S
C3 C2 1.395 . S
C3 H29 0.929 . S
C4 C2 1.320 . S
C4 C5 1.405 . S
C4 H30 0.930 . S
C5 C0 1.479 . S
C5 C4 1.405 . S
C5 H31 0.931 . S
U6 O7 2.454 . S
U6 O8 2.458 . S
U6 C9 2.984 . S
U6 C10 2.847 . S
U6 C23 2.882 . S
U6 O24 2.441 . S
U6 O25 2.420 . S
U6 O26 2.455 . S
U6 O27 2.449 . S
O7 U6 2.454 . S
O7 C9 1.353 . S
O8 U6 2.458 . S
O8 C9 1.286 . S
C9 U6 2.984 . S
C9 O7 1.353 . S
C9 O8 1.286 . S
C9 C11 1.363 . S
C10 C0 1.465 . S
C10 U6 2.847 . S
C10 O24 1.249 . S
C10 O25 1.202 . S
C11 C9 1.363 . S
C11 C13 1.408 . S
C11 C16 1.342 . S
C12 C13 1.310 . S
C12 C15 1.461 . S
C12 H32 0.932 . S
C13 C11 1.408 . S
C13 C12 1.310 . S
C13 H33 0.930 . S
C14 C15 1.474 . S
C14 C16 1.285 . S
C14 H34 0.929 . S
C15 C12 1.461 . S
C15 C14 1.474 . S
C16 C11 1.342 . S
C16 C14 1.285 . S
C16 H35 0.930 . S
C17 C20 1.424 . S
C17 C22 1.245 . S
C17 C23 1.428 . S
C18 C21 1.260 . S
C18 C22 1.477 . S
C18 H36 0.932 . S
C19 C20 1.384 . S
C19 C21 1.479 . S
C19 H37 0.929 . S
C20 C17 1.424 . S
C20 C19 1.384 . S
C20 H38 0.928 . S
C21 C18 1.260 . S
C21 C19 1.479 . S
C22 C17 1.245 . S
C22 C18 1.477 . S
C22 H39 0.932 . S
C23 U6 2.882 . S
C23 C17 1.428 . S
C23 O26 1.301 . S
C23 O27 1.282 . S
O24 U6 2.441 . S
O24 C10 1.249 . S
O25 U6 2.420 . S
O25 C10 1.202 . S
O26 U6 2.455 . S
O26 C23 1.301 . S
O27 U6 2.449 . S
O27 C23 1.282 . S
H28 C1 0.931 . S
H29 C3 0.929 . S
H30 C4 0.930 . S
H31 C5 0.931 . S
H32 C12 0.932 . S
H33 C13 0.930 . S
H34 C14 0.929 . S
H35 C16 0.930 . S
H36 C18 0.932 . S
H37 C19 0.929 . S
H38 C20 0.928 . S
H39 C22 0.932 . S
C40 C41 1.264 . S
C40 C45 1.479 . S
C40 C50 1.465 . S
C41 C40 1.264 . S
C41 C43 1.339 . S
C41 H68 0.931 . S
C42 C43 1.395 . S
C42 C44 1.320 . S
C43 C41 1.339 . S
C43 C42 1.395 . S
C43 H69 0.929 . S
C44 C42 1.320 . S
C44 C45 1.405 . S
C44 H70 0.930 . S
C45 C40 1.479 . S
C45 C44 1.405 . S
C45 H71 0.931 . S
U46 O47 2.454 . S
U46 O48 2.458 . S
U46 C49 2.984 . S
U46 C50 2.847 . S
U46 C63 2.882 . S
U46 O64 2.441 . S
U46 O65 2.420 . S
U46 O66 2.455 . S
U46 O67 2.449 . S
O47 U46 2.454 . S
O47 C49 1.353 . S
O48 U46 2.458 . S
O48 C49 1.286 . S
C49 U46 2.984 . S
C49 O47 1.353 . S
C49 O48 1.286 . S
C49 C51 1.363 . S
C50 C40 1.465 . S
C50 U46 2.847 . S
C50 O64 1.249 . S
C50 O65 1.202 . S
C51 C49 1.363 . S
C51 C53 1.408 . S
C51 C56 1.342 . S
C52 C53 1.310 . S
C52 C55 1.461 . S
C52 H72 0.932 . S
C53 C51 1.408 . S
C53 C52 1.310 . S
C53 H73 0.930 . S
C54 C55 1.474 . S
C54 C56 1.285 . S
C54 H74 0.929 . S
C55 C52 1.461 . S
C55 C54 1.474 . S
C56 C51 1.342 . S
C56 C54 1.285 . S
C56 H75 0.930 . S
C57 C60 1.424 . S
C57 C62 1.245 . S
C57 C63 1.428 . S
C58 C61 1.260 . S
C58 C62 1.477 . S
C58 H76 0.932 . S
C59 C60 1.384 . S
C59 C61 1.479 . S
C59 H77 0.929 . S
C60 C57 1.424 . S
C60 C59 1.384 . S
C60 H78 0.928 . S
C61 C58 1.260 . S
C61 C59 1.479 . S
C62 C57 1.245 . S
C62 C58 1.477 . S
C62 H79 0.932 . S
C63 U46 2.882 . S
C63 C57 1.428 . S
C63 O66 1.301 . S
C63 O67 1.282 . S
O64 U46 2.441 . S
O64 C50 1.249 . S
O65 U46 2.420 . S
O65 C50 1.202 . S
O66 U46 2.455 . S
O66 C63 1.301 . S
O67 U46 2.449 . S
O67 C63 1.282 . S
H68 C41 0.931 . S
H69 C43 0.929 . S
H70 C44 0.930 . S
H71 C45 0.931 . S
H72 C52 0.932 . S
H73 C53 0.930 . S
H74 C54 0.929 . S
H75 C56 0.930 . S
H76 C58 0.932 . S
H77 C59 0.929 . S
H78 C60 0.928 . S
H79 C62 0.932 . S
C80 C81 1.264 . S
C80 C85 1.479 . S
C80 C90 1.465 . S
C81 C80 1.264 . S
C81 C83 1.339 . S
C81 H108 0.931 . S
C82 C83 1.395 . S
C82 C84 1.320 . S
C83 C81 1.339 . S
C83 C82 1.395 . S
C83 H109 0.929 . S
C84 C82 1.320 . S
C84 C85 1.405 . S
C84 H110 0.930 . S
C85 C80 1.479 . S
C85 C84 1.405 . S
C85 H111 0.931 . S
U86 O87 2.454 . S
U86 O88 2.458 . S
U86 C89 2.984 . S
U86 C90 2.847 . S
U86 C103 2.882 . S
U86 O104 2.441 . S
U86 O105 2.420 . S
U86 O106 2.455 . S
U86 O107 2.449 . S
O87 U86 2.454 . S
O87 C89 1.353 . S
O88 U86 2.458 . S
O88 C89 1.286 . S
C89 U86 2.984 . S
C89 O87 1.353 . S
C89 O88 1.286 . S
C89 C91 1.363 . S
C90 C80 1.465 . S
C90 U86 2.847 . S
C90 O104 1.249 . S
C90 O105 1.202 . S
C91 C89 1.363 . S
C91 C93 1.408 . S
C91 C96 1.342 . S
C92 C93 1.310 . S
C92 C95 1.461 . S
C92 H112 0.932 . S
C93 C91 1.408 . S
C93 C92 1.310 . S
C93 H113 0.930 . S
C94 C95 1.474 . S
C94 C96 1.285 . S
C94 H114 0.929 . S
C95 C92 1.461 . S
C95 C94 1.474 . S
C96 C91 1.342 . S
C96 C94 1.285 . S
C96 H115 0.930 . S
C97 C100 1.424 . S
C97 C102 1.245 . S
C97 C103 1.428 . S
C98 C101 1.260 . S
C98 C102 1.477 . S
C98 H116 0.932 . S
C99 C100 1.384 . S
C99 C101 1.479 . S
C99 H117 0.929 . S
C100 C97 1.424 . S
C100 C99 1.384 . S
C100 H118 0.928 . S
C101 C98 1.260 . S
C101 C99 1.479 . S
C102 C97 1.245 . S
C102 C98 1.477 . S
C102 H119 0.932 . S
C103 U86 2.882 . S
C103 C97 1.428 . S
C103 O106 1.301 . S
C103 O107 1.282 . S
O104 U86 2.441 . S
O104 C90 1.249 . S
O105 U86 2.420 . S
O105 C90 1.202 . S
O106 U86 2.455 . S
O106 C103 1.301 . S
O107 U86 2.449 . S
O107 C103 1.282 . S
H108 C81 0.931 . S
H109 C83 0.929 . S
H110 C84 0.930 . S
H111 C85 0.931 . S
H112 C92 0.932 . S
H113 C93 0.930 . S
H114 C94 0.929 . S
H115 C96 0.930 . S
H116 C98 0.932 . S
H117 C99 0.929 . S
H118 C100 0.928 . S
H119 C102 0.932 . S
C120 C121 1.264 . S
C120 C125 1.479 . S
C120 C130 1.465 . S
C121 C120 1.264 . S
C121 C123 1.339 . S
C121 H148 0.931 . S
C122 C123 1.395 . S
C122 C124 1.320 . S
C123 C121 1.339 . S
C123 C122 1.395 . S
C123 H149 0.929 . S
C124 C122 1.320 . S
C124 C125 1.405 . S
C124 H150 0.930 . S
C125 C120 1.479 . S
C125 C124 1.405 . S
C125 H151 0.931 . S
U126 O127 2.454 . S
U126 O128 2.458 . S
U126 C129 2.984 . S
U126 C130 2.847 . S
U126 C143 2.882 . S
U126 O144 2.441 . S
U126 O145 2.420 . S
U126 O146 2.455 . S
U126 O147 2.449 . S
O127 U126 2.454 . S
O127 C129 1.353 . S
O128 U126 2.458 . S
O128 C129 1.286 . S
C129 U126 2.984 . S
C129 O127 1.353 . S
C129 O128 1.286 . S
C129 C131 1.363 . S
C130 C120 1.465 . S
C130 U126 2.847 . S
C130 O144 1.249 . S
C130 O145 1.202 . S
C131 C129 1.363 . S
C131 C133 1.408 . S
C131 C136 1.342 . S
C132 C133 1.310 . S
C132 C135 1.461 . S
C132 H152 0.932 . S
C133 C131 1.408 . S
C133 C132 1.310 . S
C133 H153 0.930 . S
C134 C135 1.474 . S
C134 C136 1.285 . S
C134 H154 0.929 . S
C135 C132 1.461 . S
C135 C134 1.474 . S
C136 C131 1.342 . S
C136 C134 1.285 . S
C136 H155 0.930 . S
C137 C140 1.424 . S
C137 C142 1.245 . S
C137 C143 1.428 . S
C138 C141 1.260 . S
C138 C142 1.477 . S
C138 H156 0.932 . S
C139 C140 1.384 . S
C139 C141 1.479 . S
C139 H157 0.929 . S
C140 C137 1.424 . S
C140 C139 1.384 . S
C140 H158 0.928 . S
C141 C138 1.260 . S
C141 C139 1.479 . S
C142 C137 1.245 . S
C142 C138 1.477 . S
C142 H159 0.932 . S
C143 U126 2.882 . S
C143 C137 1.428 . S
C143 O146 1.301 . S
C143 O147 1.282 . S
O144 U126 2.441 . S
O144 C130 1.249 . S
O145 U126 2.420 . S
O145 C130 1.202 . S
O146 U126 2.455 . S
O146 C143 1.301 . S
O147 U126 2.449 . S
O147 C143 1.282 . S
H148 C121 0.931 . S
H149 C123 0.929 . S
H150 C124 0.930 . S
H151 C125 0.931 . S
H152 C132 0.932 . S
H153 C133 0.930 . S
H154 C134 0.929 . S
H155 C136 0.930 . S
H156 C138 0.932 . S
H157 C139 0.929 . S
H158 C140 0.928 . S
H159 C142 0.932 . S
C160 C161 1.264 . S
C160 C165 1.479 . S
C160 C170 1.465 . S
C161 C160 1.264 . S
C161 C163 1.339 . S
C161 H188 0.931 . S
C162 C163 1.395 . S
C162 C164 1.320 . S
C163 C161 1.339 . S
C163 C162 1.395 . S
C163 H189 0.929 . S
C164 C162 1.320 . S
C164 C165 1.405 . S
C164 H190 0.930 . S
C165 C160 1.479 . S
C165 C164 1.405 . S
C165 H191 0.931 . S
U166 O167 2.454 . S
U166 O168 2.458 . S
U166 C169 2.984 . S
U166 C170 2.847 . S
U166 C183 2.882 . S
U166 O184 2.441 . S
U166 O185 2.420 . S
U166 O186 2.455 . S
U166 O187 2.449 . S
O167 U166 2.454 . S
O167 C169 1.353 . S
O168 U166 2.458 . S
O168 C169 1.286 . S
C169 U166 2.984 . S
C169 O167 1.353 . S
C169 O168 1.286 . S
C169 C171 1.363 . S
C170 C160 1.465 . S
C170 U166 2.847 . S
C170 O184 1.249 . S
C170 O185 1.202 . S
C171 C169 1.363 . S
C171 C173 1.408 . S
C171 C176 1.342 . S
C172 C173 1.310 . S
C172 C175 1.461 . S
C172 H192 0.932 . S
C173 C171 1.408 . S
C173 C172 1.310 . S
C173 H193 0.930 . S
C174 C175 1.474 . S
C174 C176 1.285 . S
C174 H194 0.929 . S
C175 C172 1.461 . S
C175 C174 1.474 . S
C176 C171 1.342 . S
C176 C174 1.285 . S
C176 H195 0.930 . S
C177 C180 1.424 . S
C177 C182 1.245 . S
C177 C183 1.428 . S
C178 C181 1.260 . S
C178 C182 1.477 . S
C178 H196 0.932 . S
C179 C180 1.384 . S
C179 C181 1.479 . S
C179 H197 0.929 . S
C180 C177 1.424 . S
C180 C179 1.384 . S
C180 H198 0.928 . S
C181 C178 1.260 . S
C181 C179 1.479 . S
C182 C177 1.245 . S
C182 C178 1.477 . S
C182 H199 0.932 . S
C183 U166 2.882 . S
C183 C177 1.428 . S
C183 O186 1.301 . S
C183 O187 1.282 . S
O184 U166 2.441 . S
O184 C170 1.249 . S
O185 U166 2.420 . S
O185 C170 1.202 . S
O186 U166 2.455 . S
O186 C183 1.301 . S
O187 U166 2.449 . S
O187 C183 1.282 . S
H188 C161 0.931 . S
H189 C163 0.929 . S
H190 C164 0.930 . S
H191 C165 0.931 . S
H192 C172 0.932 . S
H193 C173 0.930 . S
H194 C174 0.929 . S
H195 C176 0.930 . S
H196 C178 0.932 . S
H197 C179 0.929 . S
H198 C180 0.928 . S
H199 C182 0.932 . S
C200 C201 1.264 . S
C200 C205 1.479 . S
C200 C210 1.465 . S
C201 C200 1.264 . S
C201 C203 1.339 . S
C201 H228 0.931 . S
C202 C203 1.395 . S
C202 C204 1.320 . S
C203 C201 1.339 . S
C203 C202 1.395 . S
C203 H229 0.929 . S
C204 C202 1.320 . S
C204 C205 1.405 . S
C204 H230 0.930 . S
C205 C200 1.479 . S
C205 C204 1.405 . S
C205 H231 0.931 . S
U206 O207 2.454 . S
U206 O208 2.458 . S
U206 C209 2.984 . S
U206 C210 2.847 . S
U206 C223 2.882 . S
U206 O224 2.441 . S
U206 O225 2.420 . S
U206 O226 2.455 . S
U206 O227 2.449 . S
O207 U206 2.454 . S
O207 C209 1.353 . S
O208 U206 2.458 . S
O208 C209 1.286 . S
C209 U206 2.984 . S
C209 O207 1.353 . S
C209 O208 1.286 . S
C209 C211 1.363 . S
C210 C200 1.465 . S
C210 U206 2.847 . S
C210 O224 1.249 . S
C210 O225 1.202 . S
C211 C209 1.363 . S
C211 C213 1.408 . S
C211 C216 1.342 . S
C212 C213 1.310 . S
C212 C215 1.461 . S
C212 H232 0.932 . S
C213 C211 1.408 . S
C213 C212 1.310 . S
C213 H233 0.930 . S
C214 C215 1.474 . S
C214 C216 1.285 . S
C214 H234 0.929 . S
C215 C212 1.461 . S
C215 C214 1.474 . S
C216 C211 1.342 . S
C216 C214 1.285 . S
C216 H235 0.930 . S
C217 C220 1.424 . S
C217 C222 1.245 . S
C217 C223 1.428 . S
C218 C221 1.260 . S
C218 C222 1.477 . S
C218 H236 0.932 . S
C219 C220 1.384 . S
C219 C221 1.479 . S
C219 H237 0.929 . S
C220 C217 1.424 . S
C220 C219 1.384 . S
C220 H238 0.928 . S
C221 C218 1.260 . S
C221 C219 1.479 . S
C222 C217 1.245 . S
C222 C218 1.477 . S
C222 H239 0.932 . S
C223 U206 2.882 . S
C223 C217 1.428 . S
C223 O226 1.301 . S
C223 O227 1.282 . S
O224 U206 2.441 . S
O224 C210 1.249 . S
O225 U206 2.420 . S
O225 C210 1.202 . S
O226 U206 2.455 . S
O226 C223 1.301 . S
O227 U206 2.449 . S
O227 C223 1.282 . S
H228 C201 0.931 . S
H229 C203 0.929 . S
H230 C204 0.930 . S
H231 C205 0.931 . S
H232 C212 0.932 . S
H233 C213 0.930 . S
H234 C214 0.929 . S
H235 C216 0.930 . S
H236 C218 0.932 . S
H237 C219 0.929 . S
H238 C220 0.928 . S
H239 C222 0.932 . S
C240 C241 1.264 . S
C240 C245 1.479 . S
C240 C250 1.465 . S
C241 C240 1.264 . S
C241 C243 1.339 . S
C241 H268 0.931 . S
C242 C243 1.395 . S
C242 C244 1.320 . S
C243 C241 1.339 . S
C243 C242 1.395 . S
C243 H269 0.929 . S
C244 C242 1.320 . S
C244 C245 1.405 . S
C244 H270 0.930 . S
C245 C240 1.479 . S
C245 C244 1.405 . S
C245 H271 0.931 . S
U246 O247 2.454 . S
U246 O248 2.458 . S
U246 C249 2.984 . S
U246 C250 2.847 . S
U246 C263 2.882 . S
U246 O264 2.441 . S
U246 O265 2.420 . S
U246 O266 2.455 . S
U246 O267 2.449 . S
O247 U246 2.454 . S
O247 C249 1.353 . S
O248 U246 2.458 . S
O248 C249 1.286 . S
C249 U246 2.984 . S
C249 O247 1.353 . S
C249 O248 1.286 . S
C249 C251 1.363 . S
C250 C240 1.465 . S
C250 U246 2.847 . S
C250 O264 1.249 . S
C250 O265 1.202 . S
C251 C249 1.363 . S
C251 C253 1.408 . S
C251 C256 1.342 . S
C252 C253 1.310 . S
C252 C255 1.461 . S
C252 H272 0.932 . S
C253 C251 1.408 . S
C253 C252 1.310 . S
C253 H273 0.930 . S
C254 C255 1.474 . S
C254 C256 1.285 . S
C254 H274 0.929 . S
C255 C252 1.461 . S
C255 C254 1.474 . S
C256 C251 1.342 . S
C256 C254 1.285 . S
C256 H275 0.930 . S
C257 C260 1.424 . S
C257 C262 1.245 . S
C257 C263 1.428 . S
C258 C261 1.260 . S
C258 C262 1.477 . S
C258 H276 0.932 . S
C259 C260 1.384 . S
C259 C261 1.479 . S
C259 H277 0.929 . S
C260 C257 1.424 . S
C260 C259 1.384 . S
C260 H278 0.928 . S
C261 C258 1.260 . S
C261 C259 1.479 . S
C262 C257 1.245 . S
C262 C258 1.477 . S
C262 H279 0.932 . S
C263 U246 2.882 . S
C263 C257 1.428 . S
C263 O266 1.301 . S
C263 O267 1.282 . S
O264 U246 2.441 . S
O264 C250 1.249 . S
O265 U246 2.420 . S
O265 C250 1.202 . S
O266 U246 2.455 . S
O266 C263 1.301 . S
O267 U246 2.449 . S
O267 C263 1.282 . S
H268 C241 0.931 . S
H269 C243 0.929 . S
H270 C244 0.930 . S
H271 C245 0.931 . S
H272 C252 0.932 . S
H273 C253 0.930 . S
H274 C254 0.929 . S
H275 C256 0.930 . S
H276 C258 0.932 . S
H277 C259 0.929 . S
H278 C260 0.928 . S
H279 C262 0.932 . S
C280 C281 1.264 . S
C280 C285 1.479 . S
C280 C290 1.465 . S
C281 C280 1.264 . S
C281 C283 1.339 . S
C281 H308 0.931 . S
C282 C283 1.395 . S
C282 C284 1.320 . S
C283 C281 1.339 . S
C283 C282 1.395 . S
C283 H309 0.929 . S
C284 C282 1.320 . S
C284 C285 1.405 . S
C284 H310 0.930 . S
C285 C280 1.479 . S
C285 C284 1.405 . S
C285 H311 0.931 . S
U286 O287 2.454 . S
U286 O288 2.458 . S
U286 C289 2.984 . S
U286 C290 2.847 . S
U286 C303 2.882 . S
U286 O304 2.441 . S
U286 O305 2.420 . S
U286 O306 2.455 . S
U286 O307 2.449 . S
O287 U286 2.454 . S
O287 C289 1.353 . S
O288 U286 2.458 . S
O288 C289 1.286 . S
C289 U286 2.984 . S
C289 O287 1.353 . S
C289 O288 1.286 . S
C289 C291 1.363 . S
C290 C280 1.465 . S
C290 U286 2.847 . S
C290 O304 1.249 . S
C290 O305 1.202 . S
C291 C289 1.363 . S
C291 C293 1.408 . S
C291 C296 1.342 . S
C292 C293 1.310 . S
C292 C295 1.461 . S
C292 H312 0.932 . S
C293 C291 1.408 . S
C293 C292 1.310 . S
C293 H313 0.930 . S
C294 C295 1.474 . S
C294 C296 1.285 . S
C294 H314 0.929 . S
C295 C292 1.461 . S
C295 C294 1.474 . S
C296 C291 1.342 . S
C296 C294 1.285 . S
C296 H315 0.930 . S
C297 C300 1.424 . S
C297 C302 1.245 . S
C297 C303 1.428 . S
C298 C301 1.260 . S
C298 C302 1.477 . S
C298 H316 0.932 . S
C299 C300 1.384 . S
C299 C301 1.479 . S
C299 H317 0.929 . S
C300 C297 1.424 . S
C300 C299 1.384 . S
C300 H318 0.928 . S
C301 C298 1.260 . S
C301 C299 1.479 . S
C302 C297 1.245 . S
C302 C298 1.477 . S
C302 H319 0.932 . S
C303 U286 2.882 . S
C303 C297 1.428 . S
C303 O306 1.301 . S
C303 O307 1.282 . S
O304 U286 2.441 . S
O304 C290 1.249 . S
O305 U286 2.420 . S
O305 C290 1.202 . S
O306 U286 2.455 . S
O306 C303 1.301 . S
O307 U286 2.449 . S
O307 C303 1.282 . S
H308 C281 0.931 . S
H309 C283 0.929 . S
H310 C284 0.930 . S
H311 C285 0.931 . S
H312 C292 0.932 . S
H313 C293 0.930 . S
H314 C294 0.929 . S
H315 C296 0.930 . S
H316 C298 0.932 . S
H317 C299 0.929 . S
H318 C300 0.928 . S
H319 C302 0.932 . S
C320 O322 1.247 . S
C320 O324 1.258 . S
C321 O328 1.247 . S
C321 O329 1.258 . S
O322 C320 1.247 . S
O322 Zn323 2.028 1_655 S
Zn323 O322 2.028 1_455 S
Zn323 O327 2.035 . S
Zn323 O329 2.035 . S
Zn323 O330 2.028 1_455 S
O324 C320 1.258 . S
O324 Zn325 2.035 1_655 S
Zn325 O324 2.035 1_455 S
Zn325 O326 2.028 . S
Zn325 O328 2.028 . S
Zn325 O331 2.035 1_455 S
O326 Zn325 2.028 . S
O326 C332 1.247 . S
O327 Zn323 2.035 . S
O327 C332 1.258 . S
O328 C321 1.247 . S
O328 Zn325 2.028 . S
O329 C321 1.258 . S
O329 Zn323 2.035 . S
O330 Zn323 2.028 1_655 S
O330 C333 1.247 . S
O331 Zn325 2.035 1_655 S
O331 C333 1.258 . S
C332 O326 1.247 . S
C332 O327 1.258 . S
C333 O330 1.247 . S
C333 O331 1.258 . S
C334 O336 1.247 . S
C334 O338 1.258 . S
C335 O342 1.247 . S
C335 O343 1.258 . S
O336 C334 1.247 . S
O336 Zn337 2.028 1_655 S
Zn337 O336 2.028 1_455 S
Zn337 O341 2.035 . S
Zn337 O343 2.035 . S
Zn337 O344 2.028 1_455 S
O338 C334 1.258 . S
O338 Zn339 2.035 1_655 S
Zn339 O338 2.035 1_455 S
Zn339 O340 2.028 . S
Zn339 O342 2.028 . S
Zn339 O345 2.035 1_455 S
O340 Zn339 2.028 . S
O340 C346 1.247 . S
O341 Zn337 2.035 . S
O341 C346 1.258 . S
O342 C335 1.247 . S
O342 Zn339 2.028 . S
O343 C335 1.258 . S
O343 Zn337 2.035 . S
O344 Zn337 2.028 1_655 S
O344 C347 1.247 . S
O345 Zn339 2.035 1_655 S
O345 C347 1.258 . S
C346 O340 1.247 . S
C346 O341 1.258 . S
C347 O344 1.247 . S
C347 O345 1.258 . S
C348 O350 1.247 . S
C348 O352 1.258 . S
C349 O356 1.247 . S
C349 O357 1.258 . S
O350 C348 1.247 . S
O350 Zn351 2.028 1_565 S
Zn351 O350 2.028 1_545 S
Zn351 O355 2.035 . S
Zn351 O357 2.035 . S
Zn351 O358 2.028 1_545 S
O352 C348 1.258 . S
O352 Zn353 2.035 1_565 S
Zn353 O352 2.035 1_545 S
Zn353 O354 2.028 . S
Zn353 O356 2.028 . S
Zn353 O359 2.035 1_545 S
O354 Zn353 2.028 . S
O354 C360 1.247 . S
O355 Zn351 2.035 . S
O355 C360 1.258 . S
O356 C349 1.247 . S
O356 Zn353 2.028 . S
O357 C349 1.258 . S
O357 Zn351 2.035 . S
O358 Zn351 2.028 1_565 S
O358 C361 1.247 . S
O359 Zn353 2.035 1_565 S
O359 C361 1.258 . S
C360 O354 1.247 . S
C360 O355 1.258 . S
C361 O358 1.247 . S
C361 O359 1.258 . S
C362 O364 1.247 . S
C362 O366 1.258 . S
C363 O370 1.247 . S
C363 O371 1.258 . S
O364 C362 1.247 . S
O364 Zn365 2.028 . S
Zn365 O364 2.028 . S
Zn365 O369 2.035 . S
Zn365 O371 2.035 1_554 S
Zn365 O372 2.028 1_554 S
O366 C362 1.258 . S
O366 Zn367 2.035 . S
Zn367 O366 2.035 . S
Zn367 O368 2.028 . S
Zn367 O370 2.028 1_554 S
Zn367 O373 2.035 1_554 S
O368 Zn367 2.028 . S
O368 C374 1.247 . S
O369 Zn365 2.035 . S
O369 C374 1.258 . S
O370 C363 1.247 . S
O370 Zn367 2.028 1_556 S
O371 C363 1.258 . S
O371 Zn365 2.035 1_556 S
O372 Zn365 2.028 1_556 S
O372 C375 1.247 . S
O373 Zn367 2.035 1_556 S
O373 C375 1.258 . S
C374 O368 1.247 . S
C374 O369 1.258 . S
C375 O372 1.247 . S
C375 O373 1.258 . S
C376 O378 1.247 . S
C376 O380 1.258 . S
C377 O384 1.247 . S
C377 O385 1.258 . S
O378 C376 1.247 . S
O378 Zn379 2.025 . S
Zn379 O378 2.025 . S
Zn379 O383 2.038 1_565 S
Zn379 O385 2.038 1_565 S
Zn379 O386 2.025 . S
O380 C376 1.258 . S
O380 Zn381 2.009 1_565 S
Zn381 O380 2.009 1_545 S
Zn381 O382 2.054 . S
Zn381 O384 2.054 . S
Zn381 O387 2.009 1_545 S
O382 Zn381 2.054 . S
O382 C388 1.247 . S
O383 Zn379 2.038 1_545 S
O383 C388 1.258 . S
O384 C377 1.247 . S
O384 Zn381 2.054 . S
O385 C377 1.258 . S
O385 Zn379 2.038 1_545 S
O386 Zn379 2.025 . S
O386 C389 1.247 . S
O387 Zn381 2.009 1_565 S
O387 C389 1.258 . S
C388 O382 1.247 . S
C388 O383 1.258 . S
C389 O386 1.247 . S
C389 O387 1.258 . S
C390 O392 1.247 . S
C390 O394 1.258 . S
C391 O398 1.247 . S
C391 O399 1.258 . S
O392 C390 1.247 . S
O392 Zn393 2.028 . S
Zn393 O392 2.028 . S
Zn393 O397 2.035 . S
Zn393 O399 2.035 1_554 S
Zn393 O400 2.028 1_554 S
O394 C390 1.258 . S
O394 Zn395 2.055 . S
Zn395 O394 2.055 . S
Zn395 O396 2.048 . S
Zn395 O398 2.008 1_554 S
Zn395 O401 2.015 1_554 S
O396 Zn395 2.048 . S
O396 C402 1.247 . S
O397 Zn393 2.035 . S
O397 C402 1.258 . S
O398 C391 1.247 . S
O398 Zn395 2.008 1_556 S
O399 C391 1.258 . S
O399 Zn393 2.035 1_556 S
O400 Zn393 2.028 1_556 S
O400 C403 1.247 . S
O401 Zn395 2.015 1_556 S
O401 C403 1.258 . S
C402 O396 1.247 . S
C402 O397 1.258 . S
C403 O400 1.247 . S
C403 O401 1.258 . S
H404 C410 0.930 . S
H405 C414 0.930 . S
H406 C419 0.929 . S
H407 C417 0.929 . S
H408 C412 0.929 . S
H409 C418 0.929 . S
C410 H404 0.930 . S
C410 C411 1.367 . S
C410 C418 1.378 . S
C411 C410 1.367 . S
C411 C419 1.433 . S
C412 H408 0.929 . S
C412 C414 1.378 . S
C412 C416 1.350 . S
C413 C416 1.463 . S
C413 C418 1.350 . S
C413 N421 1.427 . S
C414 H405 0.930 . S
C414 C412 1.378 . S
C414 C415 1.367 . S
C415 C414 1.367 . S
C415 C417 1.433 . S
C416 C412 1.350 . S
C416 C413 1.463 . S
C416 N420 1.427 . S
C417 H407 0.929 . S
C417 C415 1.433 . S
C417 N420 1.384 . S
C418 H409 0.929 . S
C418 C410 1.378 . S
C418 C413 1.350 . S
C419 H406 0.929 . S
C419 C411 1.433 . S
C419 N421 1.384 . S
N420 C416 1.427 . S
N420 C417 1.384 . S
N421 C413 1.427 . S
N421 C419 1.384 . S
H422 C428 0.930 . S
H423 C432 0.930 . S
H424 C437 0.929 . S
H425 C435 0.929 . S
H426 C430 0.929 . S
H427 C436 0.929 . S
C428 H422 0.930 . S
C428 C429 1.367 . S
C428 C436 1.378 . S
C429 C428 1.367 . S
C429 C437 1.433 . S
C430 H426 0.929 . S
C430 C432 1.378 . S
C430 C434 1.350 . S
C431 C434 1.463 . S
C431 C436 1.350 . S
C431 N439 1.427 . S
C432 H423 0.930 . S
C432 C430 1.378 . S
C432 C433 1.367 . S
C433 C432 1.367 . S
C433 C435 1.433 . S
C434 C430 1.350 . S
C434 C431 1.463 . S
C434 N438 1.427 . S
C435 H425 0.929 . S
C435 C433 1.433 . S
C435 N438 1.384 . S
C436 H427 0.929 . S
C436 C428 1.378 . S
C436 C431 1.350 . S
C437 H424 0.929 . S
C437 C429 1.433 . S
C437 N439 1.384 . S
N438 C434 1.427 . S
N438 C435 1.384 . S
N439 C431 1.427 . S
N439 C437 1.384 . S
H440 C446 0.930 . S
H441 C450 0.930 . S
H442 C455 0.929 . S
H443 C453 0.929 . S
H444 C448 0.929 . S
H445 C454 0.929 . S
C446 H440 0.930 . S
C446 C447 1.367 . S
C446 C454 1.378 . S
C447 C446 1.367 . S
C447 C455 1.433 . S
C448 H444 0.929 . S
C448 C450 1.378 . S
C448 C452 1.350 . S
C449 C452 1.463 . S
C449 C454 1.350 . S
C449 N457 1.427 . S
C450 H441 0.930 . S
C450 C448 1.378 . S
C450 C451 1.367 . S
C451 C450 1.367 . S
C451 C453 1.433 . S
C452 C448 1.350 . S
C452 C449 1.463 . S
C452 N456 1.427 . S
C453 H443 0.929 . S
C453 C451 1.433 . S
C453 N456 1.384 . S
C454 H445 0.929 . S
C454 C446 1.378 . S
C454 C449 1.350 . S
C455 H442 0.929 . S
C455 C447 1.433 . S
C455 N457 1.384 . S
N456 C452 1.427 . S
N456 C453 1.384 . S
N457 C449 1.427 . S
N457 C455 1.384 . S
H458 C464 0.930 . S
H459 C468 0.930 . S
H460 C473 0.929 . S
H461 C471 0.929 . S
H462 C466 0.929 . S
H463 C472 0.929 . S
C464 H458 0.930 . S
C464 C465 1.367 . S
C464 C472 1.378 . S
C465 C464 1.367 . S
C465 C473 1.433 . S
C466 H462 0.929 . S
C466 C468 1.378 . S
C466 C470 1.350 . S
C467 C470 1.463 . S
C467 C472 1.350 . S
C467 N475 1.427 . S
C468 H459 0.930 . S
C468 C466 1.378 . S
C468 C469 1.367 . S
C469 C468 1.367 . S
C469 C471 1.433 . S
C470 C466 1.350 . S
C470 C467 1.463 . S
C470 N474 1.427 . S
C471 H461 0.929 . S
C471 C469 1.433 . S
C471 N474 1.384 . S
C472 H463 0.929 . S
C472 C464 1.378 . S
C472 C467 1.350 . S
C473 H460 0.929 . S
C473 C465 1.433 . S
C473 N475 1.384 . S
N474 C470 1.427 . S
N474 C471 1.384 . S
N475 C467 1.427 . S
N475 C473 1.384 . S
H476 C482 0.930 . S
H477 C486 0.930 . S
H478 C491 0.929 . S
H479 C489 0.929 . S
H480 C484 0.929 . S
H481 C490 0.929 . S
C482 H476 0.930 . S
C482 C483 1.367 . S
C482 C490 1.378 . S
C483 C482 1.367 . S
C483 C491 1.433 . S
C484 H480 0.929 . S
C484 C486 1.378 . S
C484 C488 1.350 . S
C485 C488 1.463 . S
C485 C490 1.350 . S
C485 N493 1.427 . S
C486 H477 0.930 . S
C486 C484 1.378 . S
C486 C487 1.367 . S
C487 C486 1.367 . S
C487 C489 1.433 . S
C488 C484 1.350 . S
C488 C485 1.463 . S
C488 N492 1.427 . S
C489 H479 0.929 . S
C489 C487 1.433 . S
C489 N492 1.384 . S
C490 H481 0.929 . S
C490 C482 1.378 . S
C490 C485 1.350 . S
C491 H478 0.929 . S
C491 C483 1.433 . S
C491 N493 1.384 . S
N492 C488 1.427 . S
N492 C489 1.384 . S
N493 C485 1.427 . S
N493 C491 1.384 . S
H494 C500 0.930 . S
H495 C504 0.930 . S
H496 C509 0.929 . S
H497 C507 0.929 . S
H498 C502 0.929 . S
H499 C508 0.929 . S
C500 H494 0.930 . S
C500 C501 1.367 . S
C500 C508 1.378 . S
C501 C500 1.367 . S
C501 C509 1.433 . S
C502 H498 0.929 . S
C502 C504 1.378 . S
C502 C506 1.350 . S
C503 C506 1.463 . S
C503 C508 1.350 . S
C503 N511 1.427 . S
C504 H495 0.930 . S
C504 C502 1.378 . S
C504 C505 1.367 . S
C505 C504 1.367 . S
C505 C507 1.433 . S
C506 C502 1.350 . S
C506 C503 1.463 . S
C506 N510 1.427 . S
C507 H497 0.929 . S
C507 C505 1.433 . S
C507 N510 1.384 . S
C508 H499 0.929 . S
C508 C500 1.378 . S
C508 C503 1.350 . S
C509 H496 0.929 . S
C509 C501 1.433 . S
C509 N511 1.384 . S
N510 C506 1.427 . S
N510 C507 1.384 . S
N511 C503 1.427 . S
N511 C509 1.384 . S
H512 C518 0.930 . S
H513 C522 0.930 . S
H514 C527 0.929 . S
H515 C525 0.929 . S
H516 C520 0.929 . S
H517 C526 0.929 . S
C518 H512 0.930 . S
C518 C519 1.367 . S
C518 C526 1.378 . S
C519 C518 1.367 . S
C519 C527 1.433 . S
C520 H516 0.929 . S
C520 C522 1.378 . S
C520 C524 1.350 . S
C521 C524 1.463 . S
C521 C526 1.350 . S
C521 N529 1.427 . S
C522 H513 0.930 . S
C522 C520 1.378 . S
C522 C523 1.367 . S
C523 C522 1.367 . S
C523 C525 1.433 . S
C524 C520 1.350 . S
C524 C521 1.463 . S
C524 N528 1.427 . S
C525 H515 0.929 . S
C525 C523 1.433 . S
C525 N528 1.384 . S
C526 H517 0.929 . S
C526 C518 1.378 . S
C526 C521 1.350 . S
C527 H514 0.929 . S
C527 C519 1.433 . S
C527 N529 1.384 . S
N528 C524 1.427 . S
N528 C525 1.384 . S
N529 C521 1.427 . S
N529 C527 1.384 . S
H530 C536 0.930 . S
H531 C540 0.930 . S
H532 C545 0.929 . S
H533 C543 0.929 . S
H534 C538 0.929 . S
H535 C544 0.929 . S
C536 H530 0.930 . S
C536 C537 1.367 . S
C536 C544 1.378 . S
C537 C536 1.367 . S
C537 C545 1.433 . S
C538 H534 0.929 . S
C538 C540 1.378 . S
C538 C542 1.350 . S
C539 C542 1.463 . S
C539 C544 1.350 . S
C539 N547 1.427 . S
C540 H531 0.930 . S
C540 C538 1.378 . S
C540 C541 1.367 . S
C541 C540 1.367 . S
C541 C543 1.433 . S
C542 C538 1.350 . S
C542 C539 1.463 . S
C542 N546 1.427 . S
C543 H533 0.929 . S
C543 C541 1.433 . S
C543 N546 1.384 . S
C544 H535 0.929 . S
C544 C536 1.378 . S
C544 C539 1.350 . S
C545 H532 0.929 . S
C545 C537 1.433 . S
C545 N547 1.384 . S
N546 C542 1.427 . S
N546 C543 1.384 . S
N547 C539 1.427 . S
N547 C545 1.384 . S
H548 C554 0.930 . S
H549 C558 0.930 . S
H550 C563 0.929 . S
H551 C561 0.929 . S
H552 C556 0.929 . S
H553 C562 0.929 . S
C554 H548 0.930 . S
C554 C555 1.367 . S
C554 C562 1.378 . S
C555 C554 1.367 . S
C555 C563 1.433 . S
C556 H552 0.929 . S
C556 C558 1.378 . S
C556 C560 1.350 . S
C557 C560 1.463 . S
C557 C562 1.350 . S
C557 N565 1.427 . S
C558 H549 0.930 . S
C558 C556 1.378 . S
C558 C559 1.367 . S
C559 C558 1.367 . S
C559 C561 1.433 . S
C560 C556 1.350 . S
C560 C557 1.463 . S
C560 N564 1.427 . S
C561 H551 0.929 . S
C561 C559 1.433 . S
C561 N564 1.384 . S
C562 H553 0.929 . S
C562 C554 1.378 . S
C562 C557 1.350 . S
C563 H550 0.929 . S
C563 C555 1.433 . S
C563 N565 1.384 . S
N564 C560 1.427 . S
N564 C561 1.384 . S
N565 C557 1.427 . S
N565 C563 1.384 . S
H566 C572 0.930 . S
H567 C576 0.930 . S
H568 C581 0.929 . S
H569 C579 0.929 . S
H570 C574 0.929 . S
H571 C580 0.929 . S
C572 H566 0.930 . S
C572 C573 1.367 . S
C572 C580 1.378 . S
C573 C572 1.367 . S
C573 C581 1.433 . S
C574 H570 0.929 . S
C574 C576 1.378 . S
C574 C578 1.350 . S
C575 C578 1.463 . S
C575 C580 1.350 . S
C575 N583 1.427 . S
C576 H567 0.930 . S
C576 C574 1.378 . S
C576 C577 1.367 . S
C577 C576 1.367 . S
C577 C579 1.433 . S
C578 C574 1.350 . S
C578 C575 1.463 . S
C578 N582 1.427 . S
C579 H569 0.929 . S
C579 C577 1.433 . S
C579 N582 1.384 . S
C580 H571 0.929 . S
C580 C572 1.378 . S
C580 C575 1.350 . S
C581 H568 0.929 . S
C581 C573 1.433 . S
C581 N583 1.384 . S
N582 C578 1.427 . S
N582 C579 1.384 . S
N583 C575 1.427 . S
N583 C581 1.384 . S
H584 C590 0.930 . S
H585 C594 0.930 . S
H586 C599 0.929 . S
H587 C597 0.929 . S
H588 C592 0.929 . S
H589 C598 0.929 . S
C590 H584 0.930 . S
C590 C591 1.367 . S
C590 C598 1.378 . S
C591 C590 1.367 . S
C591 C599 1.433 . S
C592 H588 0.929 . S
C592 C594 1.378 . S
C592 C596 1.350 . S
C593 C596 1.463 . S
C593 C598 1.350 . S
C593 N601 1.427 . S
C594 H585 0.930 . S
C594 C592 1.378 . S
C594 C595 1.367 . S
C595 C594 1.367 . S
C595 C597 1.433 . S
C596 C592 1.350 . S
C596 C593 1.463 . S
C596 N600 1.427 . S
C597 H587 0.929 . S
C597 C595 1.433 . S
C597 N600 1.384 . S
C598 H589 0.929 . S
C598 C590 1.378 . S
C598 C593 1.350 . S
C599 H586 0.929 . S
C599 C591 1.433 . S
C599 N601 1.384 . S
N600 C596 1.427 . S
N600 C597 1.384 . S
N601 C593 1.427 . S
N601 C599 1.384 . S
H602 C608 0.930 . S
H603 C612 0.930 . S
H604 C617 0.929 . S
H605 C615 0.929 . S
H606 C610 0.929 . S
H607 C616 0.929 . S
C608 H602 0.930 . S
C608 C609 1.367 . S
C608 C616 1.378 . S
C609 C608 1.367 . S
C609 C617 1.433 . S
C610 H606 0.929 . S
C610 C612 1.378 . S
C610 C614 1.350 . S
C611 C614 1.463 . S
C611 C616 1.350 . S
C611 N619 1.427 . S
C612 H603 0.930 . S
C612 C610 1.378 . S
C612 C613 1.367 . S
C613 C612 1.367 . S
C613 C615 1.433 . S
C614 C610 1.350 . S
C614 C611 1.463 . S
C614 N618 1.427 . S
C615 H605 0.929 . S
C615 C613 1.433 . S
C615 N618 1.384 . S
C616 H607 0.929 . S
C616 C608 1.378 . S
C616 C611 1.350 . S
C617 H604 0.929 . S
C617 C609 1.433 . S
C617 N619 1.384 . S
N618 C614 1.427 . S
N618 C615 1.384 . S
N619 C611 1.427 . S
N619 C617 1.384 . S
H620 C626 0.930 . S
H621 C630 0.930 . S
H622 C635 0.929 . S
H623 C633 0.929 . S
H624 C628 0.929 . S
H625 C634 0.929 . S
C626 H620 0.930 . S
C626 C627 1.367 . S
C626 C634 1.378 . S
C627 C626 1.367 . S
C627 C635 1.433 . S
C628 H624 0.929 . S
C628 C630 1.378 . S
C628 C632 1.350 . S
C629 C632 1.463 . S
C629 C634 1.350 . S
C629 N637 1.427 . S
C630 H621 0.930 . S
C630 C628 1.378 . S
C630 C631 1.367 . S
C631 C630 1.367 . S
C631 C633 1.433 . S
C632 C628 1.350 . S
C632 C629 1.463 . S
C632 N636 1.427 . S
C633 H623 0.929 . S
C633 C631 1.433 . S
C633 N636 1.384 . S
C634 H625 0.929 . S
C634 C626 1.378 . S
C634 C629 1.350 . S
C635 H622 0.929 . S
C635 C627 1.433 . S
C635 N637 1.384 . S
N636 C632 1.427 . S
N636 C633 1.384 . S
N637 C629 1.427 . S
N637 C635 1.384 . S
H638 C644 0.930 . S
H639 C648 0.930 . S
H640 C653 0.929 . S
H641 C651 0.929 . S
H642 C646 0.929 . S
H643 C652 0.929 . S
C644 H638 0.930 . S
C644 C645 1.367 . S
C644 C652 1.378 . S
C645 C644 1.367 . S
C645 C653 1.433 . S
C646 H642 0.929 . S
C646 C648 1.378 . S
C646 C650 1.350 . S
C647 C650 1.463 . S
C647 C652 1.350 . S
C647 N655 1.427 . S
C648 H639 0.930 . S
C648 C646 1.378 . S
C648 C649 1.367 . S
C649 C648 1.367 . S
C649 C651 1.433 . S
C650 C646 1.350 . S
C650 C647 1.463 . S
C650 N654 1.427 . S
C651 H641 0.929 . S
C651 C649 1.433 . S
C651 N654 1.384 . S
C652 H643 0.929 . S
C652 C644 1.378 . S
C652 C647 1.350 . S
C653 H640 0.929 . S
C653 C645 1.433 . S
C653 N655 1.384 . S
N654 C650 1.427 . S
N654 C651 1.384 . S
N655 C647 1.427 . S
N655 C653 1.384 . S
H656 C662 0.930 . S
H657 C666 0.930 . S
H658 C671 0.929 . S
H659 C669 0.929 . S
H660 C664 0.929 . S
H661 C670 0.929 . S
C662 H656 0.930 . S
C662 C663 1.367 . S
C662 C670 1.378 . S
C663 C662 1.367 . S
C663 C671 1.433 . S
C664 H660 0.929 . S
C664 C666 1.378 . S
C664 C668 1.350 . S
C665 C668 1.463 . S
C665 C670 1.350 . S
C665 N673 1.427 . S
C666 H657 0.930 . S
C666 C664 1.378 . S
C666 C667 1.367 . S
C667 C666 1.367 . S
C667 C669 1.433 . S
C668 C664 1.350 . S
C668 C665 1.463 . S
C668 N672 1.427 . S
C669 H659 0.929 . S
C669 C667 1.433 . S
C669 N672 1.384 . S
C670 H661 0.929 . S
C670 C662 1.378 . S
C670 C665 1.350 . S
C671 H658 0.929 . S
C671 C663 1.433 . S
C671 N673 1.384 . S
N672 C668 1.427 . S
N672 C669 1.384 . S
N673 C665 1.427 . S
N673 C671 1.384 . S
H674 C680 0.930 . S
H675 C684 0.930 . S
H676 C689 0.929 . S
H677 C687 0.929 . S
H678 C682 0.929 . S
H679 C688 0.929 . S
C680 H674 0.930 . S
C680 C681 1.367 . S
C680 C688 1.378 . S
C681 C680 1.367 . S
C681 C689 1.433 . S
C682 H678 0.929 . S
C682 C684 1.378 . S
C682 C686 1.350 . S
C683 C686 1.463 . S
C683 C688 1.350 . S
C683 N691 1.427 . S
C684 H675 0.930 . S
C684 C682 1.378 . S
C684 C685 1.367 . S
C685 C684 1.367 . S
C685 C687 1.433 . S
C686 C682 1.350 . S
C686 C683 1.463 . S
C686 N690 1.427 . S
C687 H677 0.929 . S
C687 C685 1.433 . S
C687 N690 1.384 . S
C688 H679 0.929 . S
C688 C680 1.378 . S
C688 C683 1.350 . S
C689 H676 0.929 . S
C689 C681 1.433 . S
C689 N691 1.384 . S
N690 C686 1.427 . S
N690 C687 1.384 . S
N691 C683 1.427 . S
N691 C689 1.384 . S
H692 C698 0.930 . S
H693 C702 0.930 . S
H694 C707 0.929 . S
H695 C705 0.929 . S
H696 C700 0.929 . S
H697 C706 0.929 . S
C698 H692 0.930 . S
C698 C699 1.367 . S
C698 C706 1.378 . S
C699 C698 1.367 . S
C699 C707 1.433 . S
C700 H696 0.929 . S
C700 C702 1.378 . S
C700 C704 1.350 . S
C701 C704 1.463 . S
C701 C706 1.350 . S
C701 N709 1.427 . S
C702 H693 0.930 . S
C702 C700 1.378 . S
C702 C703 1.367 . S
C703 C702 1.367 . S
C703 C705 1.433 . S
C704 C700 1.350 . S
C704 C701 1.463 . S
C704 N708 1.427 . S
C705 H695 0.929 . S
C705 C703 1.433 . S
C705 N708 1.384 . S
C706 H697 0.929 . S
C706 C698 1.378 . S
C706 C701 1.350 . S
C707 H694 0.929 . S
C707 C699 1.433 . S
C707 N709 1.384 . S
N708 C704 1.427 . S
N708 C705 1.384 . S
N709 C701 1.427 . S
N709 C707 1.384 . S
H710 C716 0.930 . S
H711 C720 0.930 . S
H712 C725 0.929 . S
H713 C723 0.929 . S
H714 C718 0.929 . S
H715 C724 0.929 . S
C716 H710 0.930 . S
C716 C717 1.367 . S
C716 C724 1.378 . S
C717 C716 1.367 . S
C717 C725 1.433 . S
C718 H714 0.929 . S
C718 C720 1.378 . S
C718 C722 1.350 . S
C719 C722 1.463 . S
C719 C724 1.350 . S
C719 N727 1.427 . S
C720 H711 0.930 . S
C720 C718 1.378 . S
C720 C721 1.367 . S
C721 C720 1.367 . S
C721 C723 1.433 . S
C722 C718 1.350 . S
C722 C719 1.463 . S
C722 N726 1.427 . S
C723 H713 0.929 . S
C723 C721 1.433 . S
C723 N726 1.384 . S
C724 H715 0.929 . S
C724 C716 1.378 . S
C724 C719 1.350 . S
C725 H712 0.929 . S
C725 C717 1.433 . S
C725 N727 1.384 . S
N726 C722 1.427 . S
N726 C723 1.384 . S
N727 C719 1.427 . S
N727 C725 1.384 . S
H728 C734 0.930 . S
H729 C738 0.930 . S
H730 C743 0.929 . S
H731 C741 0.929 . S
H732 C736 0.929 . S
H733 C742 0.929 . S
C734 H728 0.930 . S
C734 C735 1.367 . S
C734 C742 1.378 . S
C735 C734 1.367 . S
C735 C743 1.433 . S
C736 H732 0.929 . S
C736 C738 1.378 . S
C736 C740 1.350 . S
C737 C740 1.463 . S
C737 C742 1.350 . S
C737 N745 1.427 . S
C738 H729 0.930 . S
C738 C736 1.378 . S
C738 C739 1.367 . S
C739 C738 1.367 . S
C739 C741 1.433 . S
C740 C736 1.350 . S
C740 C737 1.463 . S
C740 N744 1.427 . S
C741 H731 0.929 . S
C741 C739 1.433 . S
C741 N744 1.384 . S
C742 H733 0.929 . S
C742 C734 1.378 . S
C742 C737 1.350 . S
C743 H730 0.929 . S
C743 C735 1.433 . S
C743 N745 1.384 . S
N744 C740 1.427 . S
N744 C741 1.384 . S
N745 C737 1.427 . S
N745 C743 1.384 . S
H746 C752 0.930 . S
H747 C756 0.930 . S
H748 C761 0.929 . S
H749 C759 0.929 . S
H750 C754 0.929 . S
H751 C760 0.929 . S
C752 H746 0.930 . S
C752 C753 1.367 . S
C752 C760 1.378 . S
C753 C752 1.367 . S
C753 C761 1.433 . S
C754 H750 0.929 . S
C754 C756 1.378 . S
C754 C758 1.350 . S
C755 C758 1.463 . S
C755 C760 1.350 . S
C755 N763 1.427 . S
C756 H747 0.930 . S
C756 C754 1.378 . S
C756 C757 1.367 . S
C757 C756 1.367 . S
C757 C759 1.433 . S
C758 C754 1.350 . S
C758 C755 1.463 . S
C758 N762 1.427 . S
C759 H749 0.929 . S
C759 C757 1.433 . S
C759 N762 1.384 . S
C760 H751 0.929 . S
C760 C752 1.378 . S
C760 C755 1.350 . S
C761 H748 0.929 . S
C761 C753 1.433 . S
C761 N763 1.384 . S
N762 C758 1.427 . S
N762 C759 1.384 . S
N763 C755 1.427 . S
N763 C761 1.384 . S
H764 C770 0.930 . S
H765 C774 0.930 . S
H766 C779 0.929 . S
H767 C777 0.929 . S
H768 C772 0.929 . S
H769 C778 0.929 . S
C770 H764 0.930 . S
C770 C771 1.367 . S
C770 C778 1.378 . S
C771 C770 1.367 . S
C771 C779 1.433 . S
C772 H768 0.929 . S
C772 C774 1.378 . S
C772 C776 1.350 . S
C773 C776 1.463 . S
C773 C778 1.350 . S
C773 N781 1.427 . S
C774 H765 0.930 . S
C774 C772 1.378 . S
C774 C775 1.367 . S
C775 C774 1.367 . S
C775 C777 1.433 . S
C776 C772 1.350 . S
C776 C773 1.463 . S
C776 N780 1.427 . S
C777 H767 0.929 . S
C777 C775 1.433 . S
C777 N780 1.384 . S
C778 H769 0.929 . S
C778 C770 1.378 . S
C778 C773 1.350 . S
C779 H766 0.929 . S
C779 C771 1.433 . S
C779 N781 1.384 . S
N780 C776 1.427 . S
N780 C777 1.384 . S
N781 C773 1.427 . S
N781 C779 1.384 . S
H782 C788 0.930 . S
H783 C792 0.930 . S
H784 C797 0.929 . S
H785 C795 0.929 . S
H786 C790 0.929 . S
H787 C796 0.929 . S
C788 H782 0.930 . S
C788 C789 1.367 . S
C788 C796 1.378 . S
C789 C788 1.367 . S
C789 C797 1.433 . S
C790 H786 0.929 . S
C790 C792 1.378 . S
C790 C794 1.350 . S
C791 C794 1.463 . S
C791 C796 1.350 . S
C791 N799 1.427 . S
C792 H783 0.930 . S
C792 C790 1.378 . S
C792 C793 1.367 . S
C793 C792 1.367 . S
C793 C795 1.433 . S
C794 C790 1.350 . S
C794 C791 1.463 . S
C794 N798 1.427 . S
C795 H785 0.929 . S
C795 C793 1.433 . S
C795 N798 1.384 . S
C796 H787 0.929 . S
C796 C788 1.378 . S
C796 C791 1.350 . S
C797 H784 0.929 . S
C797 C789 1.433 . S
C797 N799 1.384 . S
N798 C794 1.427 . S
N798 C795 1.384 . S
N799 C791 1.427 . S
N799 C797 1.384 . S
H800 C806 0.930 . S
H801 C810 0.930 . S
H802 C815 0.929 . S
H803 C813 0.929 . S
H804 C808 0.929 . S
H805 C814 0.929 . S
C806 H800 0.930 . S
C806 C807 1.367 . S
C806 C814 1.378 . S
C807 C806 1.367 . S
C807 C815 1.433 . S
C808 H804 0.929 . S
C808 C810 1.378 . S
C808 C812 1.350 . S
C809 C812 1.463 . S
C809 C814 1.350 . S
C809 N817 1.427 . S
C810 H801 0.930 . S
C810 C808 1.378 . S
C810 C811 1.367 . S
C811 C810 1.367 . S
C811 C813 1.433 . S
C812 C808 1.350 . S
C812 C809 1.463 . S
C812 N816 1.427 . S
C813 H803 0.929 . S
C813 C811 1.433 . S
C813 N816 1.384 . S
C814 H805 0.929 . S
C814 C806 1.378 . S
C814 C809 1.350 . S
C815 H802 0.929 . S
C815 C807 1.433 . S
C815 N817 1.384 . S
N816 C812 1.427 . S
N816 C813 1.384 . S
N817 C809 1.427 . S
N817 C815 1.384 . S
H818 C824 0.930 . S
H819 C828 0.930 . S
H820 C833 0.929 . S
H821 C831 0.929 . S
H822 C826 0.929 . S
H823 C832 0.929 . S
C824 H818 0.930 . S
C824 C825 1.367 . S
C824 C832 1.378 . S
C825 C824 1.367 . S
C825 C833 1.433 . S
C826 H822 0.929 . S
C826 C828 1.378 . S
C826 C830 1.350 . S
C827 C830 1.463 . S
C827 C832 1.350 . S
C827 N835 1.427 . S
C828 H819 0.930 . S
C828 C826 1.378 . S
C828 C829 1.367 . S
C829 C828 1.367 . S
C829 C831 1.433 . S
C830 C826 1.350 . S
C830 C827 1.463 . S
C830 N834 1.427 . S
C831 H821 0.929 . S
C831 C829 1.433 . S
C831 N834 1.384 . S
C832 H823 0.929 . S
C832 C824 1.378 . S
C832 C827 1.350 . S
C833 H820 0.929 . S
C833 C825 1.433 . S
C833 N835 1.384 . S
N834 C830 1.427 . S
N834 C831 1.384 . S
N835 C827 1.427 . S
N835 C833 1.384 . S
C415 C332 1.518 . S
C411 C15 1.518 . S
C433 C335 1.474 . S
C429 C55 1.477 . S
C451 C333 1.536 . S
C447 C101 1.517 . S
C469 C334 1.499 . S
C465 C141 1.495 . S
C487 C349 1.500 . S
C483 C2 1.489 . S
C505 C363 1.497 . S
C501 C61 1.488 . S
C519 C95 1.516 . S
C523 C389 1.517 . S
C541 C403 1.497 . S
C537 C135 1.500 . S
C559 C348 1.489 . S
C555 C42 1.475 . S
C573 C82 1.503 . S
C577 C362 1.521 . S
C595 C388 1.509 . S
C591 C122 1.499 . S
C613 C402 1.524 . S
C609 C21 1.517 . S
C627 C162 1.485 . S
C631 C347 1.494 . S
C649 C320 1.531 . S
C645 C221 1.530 . S
C663 C255 1.481 . S
C667 C346 1.480 . S
C681 C282 1.507 . S
C685 C321 1.519 . S
C703 C376 1.519 . S
C699 C181 1.512 . S
C721 C390 1.514 . S
C717 C202 1.510 . S
C739 C360 1.495 . S
C735 C242 1.487 . S
C753 C301 1.511 . S
C757 C374 1.524 . S
C775 C377 1.519 . S
C771 C215 1.519 . S
C793 C391 1.506 . S
C789 C261 1.501 . S
C811 C361 1.501 . S
C807 C295 1.500 . S
C825 C175 1.499 . S
C829 C375 1.496 . S
