# Generated by pormake.
# Topology tsx, (6,3)-cn, num edge types: 1
# Building blocks:
#     Node 0, Type 0, BuildingBlock: VOLQOD_clean_sbu_1, # of connection points: 6
#     Node 1, Type 0, BuildingBlock: VOLQOD_clean_sbu_1, # of connection points: 6
#     Node 2, Type 1, BuildingBlock: WUSLED_clean_sbu_0, # of connection points: 3
#     Node 3, Type 1, BuildingBlock: WUSLED_clean_sbu_0, # of connection points: 3
#     Node 4, Type 1, BuildingBlock: WUSLED_clean_sbu_0, # of connection points: 3
#     Node 5, Type 1, BuildingBlock: WUSLED_clean_sbu_0, # of connection points: 3
#     Edge 6, Type (0, 1), BuildingBlock: MIFKUJ_clean_linker_0, # of connection points: 2
#     Edge 7, Type (0, 1), BuildingBlock: MIFKUJ_clean_linker_0, # of connection points: 2
#     Edge 8, Type (0, 1), BuildingBlock: MIFKUJ_clean_linker_0, # of connection points: 2
#     Edge 9, Type (0, 1), BuildingBlock: MIFKUJ_clean_linker_0, # of connection points: 2
#     Edge 10, Type (0, 1), BuildingBlock: MIFKUJ_clean_linker_0, # of connection points: 2
#     Edge 11, Type (0, 1), BuildingBlock: MIFKUJ_clean_linker_0, # of connection points: 2
#     Edge 12, Type (0, 1), BuildingBlock: MIFKUJ_clean_linker_0, # of connection points: 2
#     Edge 13, Type (0, 1), BuildingBlock: MIFKUJ_clean_linker_0, # of connection points: 2
#     Edge 14, Type (0, 1), BuildingBlock: MIFKUJ_clean_linker_0, # of connection points: 2
#     Edge 15, Type (0, 1), BuildingBlock: MIFKUJ_clean_linker_0, # of connection points: 2
#     Edge 16, Type (0, 1), BuildingBlock: MIFKUJ_clean_linker_0, # of connection points: 2
#     Edge 17, Type (0, 1), BuildingBlock: MIFKUJ_clean_linker_0, # of connection points: 2
# Relax obj value: 0.070
# Max RMSD: 0.104
# Mean RMSD: 0.078
data_MOF--net-tsx--node1-VOLQOD_clean_sbu_1--node2-WUSLED_clean_sbu_0--edge1-MIFKUJ_clean_linker_0
_symmetry_space_group_name_H-M    P1
_symmetry_Int_Tables_number       1
_symmetry_cell_setting            triclinic
loop_
_symmetry_equiv_pos_as_xyz
'x, y, z'
_cell_length_a     32.16817
_cell_length_b     33.388354
_cell_length_c     63.617049
_cell_angle_alpha  90.702158
_cell_angle_beta   89.943857
_cell_angle_gamma 89.930401
loop_
_atom_site_label
_atom_site_type_symbol
_atom_site_fract_x
_atom_site_fract_y
_atom_site_fract_z
_atom_type_partial_charge
O0 O 0.04579 1.00176 0.0604 0.0
Zn1 Zn 0.06334 1.00343 0.02982 0.0
O2 O 0.0148 0.00934 0.01163 0.0
Zn3 Zn 0.00768 0.96049 0.99476 0.0
Zn4 Zn 0.9651 0.01841 0.02877 0.0
Zn5 Zn 0.02305 0.05502 0.99316 0.0
O6 O 1.00523 0.97363 0.96384 0.0
O7 O 0.02771 0.03656 0.96284 0.0
O8 O 0.09696 0.95396 0.02195 0.0
O9 O 0.05683 0.92363 0.99824 0.0
O10 O 0.95643 0.92969 0.00349 0.0
O11 O 0.92676 0.97082 0.02673 0.0
O12 O 0.93282 0.06731 0.01935 0.0
O13 O 0.10118 0.05117 0.02716 0.0
O14 O 0.97337 0.09187 0.9944 0.0
O15 O 0.0737 0.08751 1.00167 0.0
C16 C 0.01259 0.01299 0.06978 0.0
C17 C 0.01676 1.00421 0.95352 0.0
C18 C 0.92726 0.93787 0.01643 0.0
C19 C 0.08992 0.92498 0.0092 0.0
C20 C 0.94017 0.09332 0.00532 0.0
C21 C 0.10161 0.08202 0.01557 0.0
O22 O 0.98035 0.02328 0.0595 0.0
O23 O 0.54881 0.50222 0.56005 0.0
Zn24 Zn 0.56526 0.5028 0.52931 0.0
O25 O 0.51575 0.50764 0.51155 0.0
Zn26 Zn 0.50977 0.45859 0.49454 0.0
Zn27 Zn 0.46603 0.51511 0.52896 0.0
Zn28 Zn 0.52188 0.55425 0.49345 0.0
O29 O 0.50854 0.47204 0.46362 0.0
O30 O 0.52485 0.53675 0.46297 0.0
O31 O 0.599 0.45318 0.52185 0.0
O32 O 0.55913 0.42209 0.49833 0.0
O33 O 0.45837 0.42706 0.50276 0.0
O34 O 0.42842 0.46715 0.52642 0.0
O35 O 0.43241 0.5639 0.52044 0.0
O36 O 0.60297 0.5505 0.52581 0.0
O37 O 0.47212 0.59068 0.49581 0.0
O38 O 0.57248 0.58732 0.50139 0.0
C39 C 0.5152 0.5113 0.56967 0.0
C40 C 0.517 0.50375 0.45347 0.0
C41 C 0.4291 0.43462 0.51575 0.0
C42 C 0.59218 0.42384 0.50931 0.0
C43 C 0.43915 0.59098 0.50691 0.0
C44 C 0.60181 0.58169 0.51449 0.0
O45 O 0.48195 0.51924 0.55962 0.0
C46 C 0.95914 0.06903 0.44123 0.0
C47 C 0.95952 0.10798 0.43306 0.0
C48 C 0.90047 0.12677 0.4551 0.0
C49 C 0.93065 0.13659 0.44002 0.0
C50 C 0.90001 0.08773 0.46317 0.0
C51 C 0.92918 0.05923 0.45637 0.0
U52 U 0.01452 0.0126 0.39696 0.0
O53 O 0.0799 0.99432 0.39313 0.0
O54 O 0.03063 0.94885 0.39318 0.0
C55 C 0.07082 0.95596 0.39271 0.0
C56 C 0.98916 0.03819 0.43396 0.0
C57 C 0.09727 0.93014 0.40571 0.0
C58 C 0.11353 0.8968 0.43851 0.0
C59 C 0.08775 0.92206 0.42679 0.0
C60 C 0.15854 0.88793 0.40825 0.0
C61 C 0.14931 0.87949 0.42936 0.0
C62 C 0.1328 0.91297 0.39659 0.0
C63 C 0.98759 0.04083 0.34031 0.0
C64 C 0.00793 1.00212 0.30934 0.0
C65 C 0.97765 0.0681 0.30547 0.0
C66 C 0.97435 0.07187 0.32731 0.0
C67 C 0.99417 0.03306 0.29617 0.0
C68 C 1.00472 0.00601 0.33123 0.0
C69 C 0.98284 0.04532 0.36322 0.0
O70 O 0.9729 0.00688 0.42432 0.0
O71 O 0.0231 0.05134 0.4248 0.0
O72 O 0.01511 0.06015 0.37326 0.0
O73 O 0.96567 0.01493 0.37288 0.0
H74 H 0.98197 0.11636 0.4212 0.0
H75 H 0.93147 0.16624 0.43331 0.0
H76 H 0.87735 0.07936 0.47493 0.0
H77 H 0.92825 0.02942 0.46289 0.0
H78 H 0.10571 0.89117 0.45477 0.0
H79 H 0.06048 0.93519 0.43413 0.0
H80 H 0.18538 0.87464 0.40059 0.0
H81 H 0.14055 0.91876 0.38033 0.0
H82 H 0.02048 0.97461 0.30273 0.0
H83 H 0.9675 0.09282 0.29587 0.0
H84 H 0.96131 0.09907 0.33406 0.0
H85 H 0.01524 0.98174 0.34106 0.0
C86 C 0.95629 0.94763 0.58233 0.0
C87 C 0.91531 0.94701 0.59008 0.0
C88 C 0.89972 0.88799 0.56863 0.0
C89 C 0.88731 0.91763 0.58322 0.0
C90 C 0.94074 0.88852 0.56096 0.0
C91 C 0.96864 0.91817 0.56767 0.0
U92 U 0.01395 1.00296 0.62619 0.0
O93 O 0.07876 0.02333 0.62859 0.0
O94 O 0.02781 0.06705 0.63084 0.0
C95 C 0.06821 0.06133 0.63004 0.0
C96 C 0.98649 0.97839 0.58943 0.0
C97 C 0.09189 0.08949 0.61701 0.0
C98 C 0.12827 0.10707 0.58486 0.0
C99 C 0.10418 0.08 0.59635 0.0
C100 C 0.12731 0.15343 0.61445 0.0
C101 C 0.14021 0.1441 0.59382 0.0
C102 C 0.10344 0.12642 0.62588 0.0
C103 C 0.99226 0.97263 0.68311 0.0
C104 C 1.00097 0.0135 0.71472 0.0
C105 C 0.9982 0.94123 0.71724 0.0
C106 C 0.99344 0.93816 0.69544 0.0
C107 C 1.00162 0.97896 0.72721 0.0
C108 C 0.9965 0.01036 0.69288 0.0
C109 C 0.98597 0.96841 0.66023 0.0
O110 O 0.97107 0.00959 0.59959 0.0
O111 O 0.02089 0.96469 0.59789 0.0
O112 O 0.01797 0.95475 0.64946 0.0
O113 O 0.96667 0.99812 0.65097 0.0
H114 H 0.90484 0.96909 0.60153 0.0
H115 H 0.85609 0.91771 0.58961 0.0
H116 H 0.95111 0.86627 0.54958 0.0
H117 H 1.0 0.91803 0.56143 0.0
H118 H 0.13739 0.09912 0.56896 0.0
H119 H 0.09544 0.05165 0.58919 0.0
H120 H 0.13646 0.18131 0.62199 0.0
H121 H 0.09441 0.13419 0.64184 0.0
H122 H 1.00306 0.04305 0.72184 0.0
H123 H 0.99939 0.91395 0.72625 0.0
H124 H 0.9905 0.90876 0.68819 0.0
H125 H 0.9959 0.03744 0.68368 0.0
C126 C 0.454 0.56789 0.9406 0.0
C127 C 0.45276 0.60565 0.93108 0.0
C128 C 0.39596 0.62641 0.95414 0.0
C129 C 0.42421 0.63469 0.93788 0.0
C130 C 0.39716 0.58852 0.96357 0.0
C131 C 0.42602 0.55962 0.9569 0.0
U132 U 0.51054 0.51292 0.89636 0.0
O133 O 0.57497 0.49156 0.89349 0.0
O134 O 0.52339 0.44866 0.89132 0.0
C135 C 0.56388 0.45374 0.89193 0.0
C136 C 0.48337 0.53657 0.93338 0.0
C137 C 0.58744 0.4252 0.90478 0.0
C138 C 0.62267 0.40661 0.93707 0.0
C139 C 0.59831 0.43372 0.92574 0.0
C140 C 0.62471 0.36206 0.90674 0.0
C141 C 0.63633 0.37051 0.92765 0.0
C142 C 0.60055 0.38913 0.89547 0.0
C143 C 0.48909 0.54542 0.83995 0.0
C144 C 0.52218 0.51383 0.80964 0.0
C145 C 0.4715 0.56663 0.8047 0.0
C146 C 0.46641 0.57003 0.82647 0.0
C147 C 0.49945 0.5385 0.79599 0.0
C148 C 0.51704 0.51728 0.83145 0.0
C149 C 0.48279 0.54922 0.86276 0.0
O150 O 0.46664 0.5067 0.92274 0.0
O151 O 0.51844 0.54923 0.92514 0.0
O152 O 0.51506 0.56185 0.87361 0.0
O153 O 0.46346 0.5191 0.87156 0.0
H154 H 0.47366 0.61265 0.91828 0.0
H155 H 0.42369 0.6634 0.93014 0.0
H156 H 0.37602 0.58136 0.97624 0.0
H157 H 0.42635 0.53067 0.96441 0.0
H158 H 0.63073 0.41386 0.95319 0.0
H159 H 0.58835 0.46141 0.93324 0.0
H160 H 0.63517 0.33493 0.89886 0.0
H161 H 0.59263 0.38213 0.87928 0.0
H162 H 0.54425 0.49215 0.80348 0.0
H163 H 0.45299 0.58563 0.79468 0.0
H164 H 0.44454 0.59177 0.83279 0.0
H165 H 0.53482 0.49802 0.84168 0.0
C166 C 0.45943 0.44524 0.08326 0.0
C167 C 0.44402 0.41753 0.09772 0.0
C168 C 0.40169 0.38633 0.07033 0.0
C169 C 0.4155 0.38828 0.0913 0.0
C170 C 0.41703 0.41444 0.05595 0.0
C171 C 0.44572 0.4436 0.06237 0.0
U172 U 0.51704 0.50011 0.12679 0.0
O173 O 0.58249 0.51887 0.12929 0.0
O174 O 0.53262 0.56375 0.13117 0.0
C175 C 0.5729 0.55717 0.13 0.0
C176 C 0.48959 0.47593 0.08993 0.0
C177 C 0.59744 0.58379 0.11625 0.0
C178 C 0.60315 0.64255 0.09409 0.0
C179 C 0.57877 0.61543 0.10529 0.0
C180 C 0.66518 0.6064 0.10408 0.0
C181 C 0.64668 0.63863 0.09357 0.0
C182 C 0.64085 0.57944 0.11537 0.0
C183 C 0.49417 0.47067 0.18356 0.0
C184 C 0.52497 0.50488 0.21365 0.0
C185 C 0.47903 0.44839 0.21891 0.0
C186 C 0.47389 0.44448 0.19718 0.0
C187 C 0.5046 0.47866 0.22744 0.0
C188 C 0.51984 0.50087 0.19188 0.0
C189 C 0.48783 0.46626 0.16078 0.0
O190 O 0.47374 0.50668 0.10026 0.0
O191 O 0.52379 0.46209 0.09852 0.0
O192 O 0.51967 0.45201 0.1501 0.0
O193 O 0.4697 0.49673 0.15164 0.0
H194 H 0.45406 0.41856 0.11397 0.0
H195 H 0.40385 0.36749 0.10284 0.0
H196 H 0.40732 0.41353 0.03965 0.0
H197 H 0.45729 0.4648 0.05102 0.0
H198 H 0.58794 0.66684 0.08598 0.0
H199 H 0.54541 0.6198 0.10567 0.0
H200 H 0.69865 0.60282 0.10422 0.0
H201 H 0.65614 0.55567 0.12387 0.0
H202 H 0.5452 0.52822 0.21969 0.0
H203 H 0.46241 0.42809 0.22906 0.0
H204 H 0.45385 0.42109 0.19099 0.0
H205 H 0.53581 0.52131 0.18153 0.0
H206 H 0.10489 0.15834 1.00009 0.0
H207 H 0.15633 0.21018 0.00807 0.0
H208 H 0.22382 0.12717 0.04677 0.0
H209 H 0.17203 0.07561 0.03932 0.0
H210 H 0.21607 0.19564 0.06666 0.0
H211 H 0.2585 0.15628 0.99689 0.0
H212 H 0.24902 0.14305 0.95898 0.0
H213 H 0.21357 0.26564 0.94988 0.0
H214 H 0.22233 0.27948 0.9878 0.0
H215 H 0.40105 0.30698 0.08058 0.0
H216 H 0.35057 0.25593 0.07006 0.0
H217 H 0.28348 0.34362 0.03415 0.0
H218 H 0.33402 0.39489 0.04458 0.0
H219 H 0.28999 0.2743 0.01259 0.0
H220 H 0.24837 0.31359 0.08234 0.0
H221 H 0.25815 0.32673 0.12024 0.0
H222 H 0.29226 0.20378 0.12932 0.0
H223 H 0.28323 0.19002 0.09141 0.0
C224 C 0.13088 0.15099 0.01014 0.0
C225 C 0.13426 0.11277 0.01907 0.0
C226 C 0.16039 0.18066 0.01465 0.0
C227 C 0.19424 0.17255 0.0279 0.0
C228 C 0.19797 0.13423 0.03655 0.0
C229 C 0.16834 0.10471 0.03222 0.0
C230 C 0.22496 0.20427 0.03345 0.0
C231 C 0.23265 0.21241 0.0548 0.0
C232 C 0.2458 0.22704 0.01803 0.0
C233 C 0.24068 0.21881 0.99522 0.0
C234 C 0.24839 0.18034 0.98683 0.0
C235 C 0.2432 0.17274 0.96533 0.0
C236 C 0.23059 0.20346 0.95204 0.0
C237 C 0.22327 0.24187 0.9602 0.0
C238 C 0.22839 0.24961 0.98169 0.0
C239 C 0.37539 0.31549 0.07056 0.0
C240 C 0.37142 0.35509 0.06354 0.0
C241 C 0.34657 0.28625 0.06453 0.0
C242 C 0.31286 0.29603 0.05154 0.0
C243 C 0.30921 0.33536 0.04418 0.0
C244 C 0.33817 0.36461 0.05013 0.0
C245 C 0.28134 0.26528 0.04577 0.0
C246 C 0.27341 0.25745 0.02441 0.0
C247 C 0.26027 0.24271 0.06117 0.0
C248 C 0.26548 0.25087 0.084 0.0
C249 C 0.25824 0.28942 0.09239 0.0
C250 C 0.26361 0.29697 0.11388 0.0
C251 C 0.27591 0.26613 0.12717 0.0
C252 C 0.28277 0.22765 0.119 0.0
C253 C 0.2775 0.21995 0.09752 0.0
H254 H 0.28005 0.27204 0.1438 0.0
H255 H 0.22659 0.19752 0.9354 0.0
H256 H 0.17375 0.9298 0.01601 0.0
H257 H 0.22644 0.8786 0.00806 0.0
H258 H 0.13032 0.79695 0.98791 0.0
H259 H 0.07755 0.84825 0.99527 0.0
H260 H 0.19687 0.76449 0.01625 0.0
H261 H 0.17492 0.83613 0.95154 0.0
H262 H 0.17024 0.89703 0.93016 0.0
H263 H 0.29683 0.92612 0.94522 0.0
H264 H 0.302 0.8657 0.96705 0.0
H265 H 0.313 0.61593 0.96167 0.0
H266 H 0.26201 0.66641 0.97258 0.0
H267 H 0.35813 0.75648 0.97346 0.0
H268 H 0.40906 0.70616 0.96207 0.0
H269 H 0.29228 0.7861 0.9561 0.0
H270 H 0.31703 0.71496 0.01952 0.0
H271 H 0.32319 0.65596 0.04224 0.0
H272 H 0.19463 0.62786 0.03163 0.0
H273 H 0.18784 0.68641 0.00859 0.0
C274 C 0.16381 0.90081 0.01009 0.0
C275 C 0.12151 0.89308 0.00621 0.0
C276 C 0.19393 0.87168 0.00551 0.0
C277 C 0.18219 0.83411 0.99736 0.0
C278 C 0.13993 0.82577 0.99421 0.0
C279 C 0.10989 0.85514 0.99835 0.0
C280 C 0.21411 0.80407 0.9913 0.0
C281 C 0.21752 0.76889 1.00298 0.0
C282 C 0.24164 0.81049 0.97434 0.0
C283 C 0.23868 0.84668 0.96114 0.0
C284 C 0.20162 0.85573 0.95048 0.0
C285 C 0.1989 0.89011 0.93823 0.0
C286 C 0.23318 0.91549 0.93637 0.0
C287 C 0.27028 0.90647 0.94671 0.0
C288 C 0.27312 0.87217 0.95902 0.0
C289 C 0.32331 0.64643 0.96435 0.0
C290 C 0.36508 0.65703 0.96109 0.0
C291 C 0.29414 0.6753 0.97064 0.0
C292 C 0.30624 0.71526 0.9742 0.0
C293 C 0.34795 0.72591 0.97084 0.0
C294 C 0.37704 0.69713 0.96432 0.0
C295 C 0.27528 0.74604 0.98101 0.0
C296 C 0.27193 0.78151 0.96946 0.0
C297 C 0.24812 0.74005 0.99827 0.0
C298 C 0.25204 0.70487 0.01217 0.0
C299 C 0.29015 0.69603 0.0219 0.0
C300 C 0.29375 0.66269 0.03486 0.0
C301 C 0.25935 0.63812 0.03834 0.0
C302 C 0.22126 0.6469 0.0289 0.0
C303 C 0.21751 0.68017 0.01591 0.0
H304 H 0.2622 0.61232 0.04838 0.0
H305 H 0.23102 0.94209 0.92687 0.0
H306 H 0.85421 0.94859 0.03777 0.0
H307 H 0.80436 0.89747 0.04815 0.0
H308 H 0.87739 0.80703 0.01613 0.0
H309 H 0.92696 0.85827 0.00518 0.0
H310 H 0.79697 0.79206 0.01089 0.0
H311 H 0.88504 0.82163 0.06926 0.0
H312 H 0.9208 0.86475 0.09521 0.0
H313 H 0.80309 0.9042 0.11977 0.0
H314 H 0.76657 0.86182 0.09367 0.0
H315 H 0.71482 0.62617 0.06835 0.0
H316 H 0.76025 0.6768 0.0529 0.0
H317 H 0.68342 0.77042 0.07955 0.0
H318 H 0.63829 0.72006 0.0953 0.0
H319 H 0.76655 0.78245 0.08715 0.0
H320 H 0.67941 0.74965 0.02771 0.0
H321 H 0.64673 0.70417 1.00176 0.0
H322 H 0.76716 0.66674 0.97992 0.0
H323 H 0.80059 0.71162 0.00594 0.0
C324 C 0.85952 0.91791 0.03273 0.0
C325 C 0.89485 0.9075 0.02081 0.0
C326 C 0.83103 0.88865 0.03876 0.0
C327 C 0.83758 0.84824 0.03332 0.0
C328 C 0.87178 0.83798 0.0206 0.0
C329 C 0.90012 0.86733 0.01437 0.0
C330 C 0.80974 0.81663 0.04167 0.0
C331 C 0.79069 0.78967 0.02758 0.0
C332 C 0.80125 0.81364 0.06346 0.0
C333 C 0.82307 0.83884 0.07936 0.0
C334 C 0.86677 0.83971 0.0801 0.0
C335 C 0.88718 0.864 0.09485 0.0
C336 C 0.86425 0.88726 0.10912 0.0
C337 C 0.82083 0.8862 0.10869 0.0
C338 C 0.80024 0.86204 0.09392 0.0
C339 C 0.70758 0.65755 0.07088 0.0
C340 C 0.6729 0.6691 0.08303 0.0
C341 C 0.73339 0.68643 0.06192 0.0
C342 C 0.72507 0.72739 0.06497 0.0
C343 C 0.69034 0.73898 0.07696 0.0
C344 C 0.6644 0.71016 0.0858 0.0
C345 C 0.75338 0.75825 0.05635 0.0
C346 C 0.77272 0.78495 0.07044 0.0
C347 C 0.76257 0.76055 0.03463 0.0
C348 C 0.7425 0.73371 0.01891 0.0
C349 C 0.69893 0.73149 0.01749 0.0
C350 C 0.68027 0.70586 1.00275 0.0
C351 C 0.70485 0.68251 0.98924 0.0
C352 C 0.74816 0.68482 0.99041 0.0
C353 C 0.76698 0.71037 0.00514 0.0
H354 H 0.69034 0.66269 0.97784 0.0
H355 H 0.88012 0.90606 0.12053 0.0
H356 H 0.8622 0.10267 0.02247 0.0
H357 H 0.80831 0.15034 0.01205 0.0
H358 H 0.89271 0.20235 0.96734 0.0
H359 H 0.94646 0.15474 0.9774 0.0
H360 H 0.80102 0.23189 0.01154 0.0
H361 H 0.83989 0.22317 0.92285 0.0
H362 H 0.87099 0.17566 0.8973 0.0
H363 H 0.83359 0.07692 0.93555 0.0
H364 H 0.80177 0.12379 0.96116 0.0
H365 H 0.70235 0.38805 0.95347 0.0
H366 H 0.75055 0.34104 0.96983 0.0
H367 H 0.68087 0.24182 0.94394 0.0
H368 H 0.63244 0.28856 0.92769 0.0
H369 H 0.76127 0.23247 0.93619 0.0
H370 H 0.67794 0.26391 0.99644 0.0
H371 H 0.64328 0.30782 0.02253 0.0
H372 H 0.76162 0.3545 0.04204 0.0
H373 H 0.79697 0.31125 0.01585 0.0
C374 C 0.86946 0.12449 0.01055 0.0
C375 C 0.90861 0.12452 1.00063 0.0
C376 C 0.83862 0.15179 0.00466 0.0
C377 C 0.84626 0.17953 0.9887 0.0
C378 C 0.88587 0.18079 0.97945 0.0
C379 C 0.91663 0.15353 0.98528 0.0
C380 C 0.8124 0.20584 0.98094 0.0
C381 C 0.79232 0.23209 0.99507 0.0
C382 C 0.80046 0.20556 0.95952 0.0
C383 C 0.81881 0.17704 0.94401 0.0
C384 C 0.83814 0.19131 0.92575 0.0
C385 C 0.85592 0.1645 0.91127 0.0
C386 C 0.85438 0.12331 0.91483 0.0
C387 C 0.83489 0.10884 0.93284 0.0
C388 C 0.81702 0.13552 0.94736 0.0
C389 C 0.69681 0.35623 0.95158 0.0
C390 C 0.66361 0.34211 0.93916 0.0
C391 C 0.72447 0.32936 0.96092 0.0
C392 C 0.71934 0.28784 0.95815 0.0
C393 C 0.68563 0.2737 0.9462 0.0
C394 C 0.65803 0.30049 0.93687 0.0
C395 C 0.75025 0.25915 0.96671 0.0
C396 C 0.76988 0.2324 0.95268 0.0
C397 C 0.76121 0.25859 0.98826 0.0
C398 C 0.74007 0.28459 0.00405 0.0
C399 C 0.69655 0.28377 0.00618 0.0
C400 C 0.67678 0.3085 0.021 0.0
C401 C 0.70022 0.33401 0.0339 0.0
C402 C 0.7435 0.33476 0.03202 0.0
C403 C 0.76342 0.31012 0.01721 0.0
H404 H 0.68486 0.35313 0.04537 0.0
H405 H 0.86822 0.10261 0.90361 0.0
H406 H 0.5959 0.66189 0.50678 0.0
H407 H 0.64735 0.71373 0.5146 0.0
H408 H 0.73286 0.62338 0.53618 0.0
H409 H 0.68061 0.57177 0.52944 0.0
H410 H 0.73513 0.68086 0.56222 0.0
H411 H 0.74272 0.67594 0.48701 0.0
H412 H 0.71594 0.67741 0.45072 0.0
H413 H 0.67002 0.79684 0.46108 0.0
H414 H 0.69607 0.79591 0.49753 0.0
H415 H 0.91356 0.80733 0.56489 0.0
H416 H 0.86398 0.75531 0.55417 0.0
H417 H 0.76928 0.84524 0.54589 0.0
H418 H 0.81876 0.89745 0.55651 0.0
H419 H 0.77297 0.78854 0.51273 0.0
H420 H 0.76686 0.79127 0.58853 0.0
H421 H 0.79632 0.78852 0.62425 0.0
H422 H 0.84352 0.67036 0.61143 0.0
H423 H 0.81483 0.67265 0.57551 0.0
C424 C 0.62585 0.65306 0.51299 0.0
C425 C 0.63423 0.61273 0.51746 0.0
C426 C 0.65539 0.68275 0.51738 0.0
C427 C 0.69445 0.6726 0.52573 0.0
C428 C 0.70304 0.63215 0.5298 0.0
C429 C 0.67319 0.6026 0.52587 0.0
C430 C 0.72565 0.70415 0.53111 0.0
C431 C 0.74383 0.70393 0.5512 0.0
C432 C 0.73658 0.735 0.517 0.0
C433 C 0.72102 0.7357 0.49506 0.0
C434 C 0.72666 0.70242 0.48159 0.0
C435 C 0.71165 0.70317 0.46099 0.0
C436 C 0.6912 0.73716 0.45361 0.0
C437 C 0.68582 0.77052 0.46682 0.0
C438 C 0.70075 0.76991 0.48745 0.0
C439 C 0.88227 0.81604 0.56062 0.0
C440 C 0.87001 0.85647 0.56161 0.0
C441 C 0.85393 0.78628 0.55462 0.0
C442 C 0.81288 0.7964 0.54937 0.0
C443 C 0.80079 0.8368 0.54991 0.0
C444 C 0.82899 0.86653 0.55612 0.0
C445 C 0.78235 0.76478 0.54365 0.0
C446 C 0.76429 0.76517 0.52359 0.0
C447 C 0.77194 0.73376 0.55764 0.0
C448 C 0.78907 0.73231 0.57926 0.0
C449 C 0.78382 0.76484 0.59326 0.0
C450 C 0.80032 0.76334 0.61356 0.0
C451 C 0.82187 0.72933 0.62009 0.0
C452 C 0.82687 0.69671 0.60635 0.0
C453 C 0.81047 0.69808 0.58602 0.0
H454 H 0.83461 0.72821 0.63581 0.0
H455 H 0.67959 0.73768 0.43766 0.0
H456 H 0.6755 0.42821 0.51784 0.0
H457 H 0.72869 0.37729 0.51038 0.0
H458 H 0.63418 0.29672 0.48722 0.0
H459 H 0.58093 0.34766 0.49421 0.0
H460 H 0.69633 0.2614 0.51529 0.0
H461 H 0.68465 0.34099 0.45256 0.0
H462 H 0.68424 0.4042 0.43292 0.0
H463 H 0.80907 0.42871 0.45313 0.0
H464 H 0.80997 0.36588 0.47316 0.0
H465 H 0.8166 0.117 0.45988 0.0
H466 H 0.76534 0.16712 0.47095 0.0
H467 H 0.86285 0.25498 0.47777 0.0
H468 H 0.91408 0.2051 0.46621 0.0
H469 H 0.80014 0.28798 0.45943 0.0
H470 H 0.81491 0.20905 0.52099 0.0
H471 H 0.81687 0.14742 0.54192 0.0
H472 H 0.68946 0.12336 0.52622 0.0
H473 H 0.6869 0.18459 0.50494 0.0
C474 C 0.66598 0.39951 0.51136 0.0
C475 C 0.624 0.39202 0.50655 0.0
C476 C 0.69641 0.37053 0.50705 0.0
C477 C 0.68533 0.33335 0.49818 0.0
C478 C 0.64333 0.32523 0.49408 0.0
C479 C 0.61299 0.35443 0.49802 0.0
C480 C 0.71767 0.3035 0.49236 0.0
C481 C 0.71884 0.26693 0.50295 0.0
C482 C 0.74763 0.3113 0.47666 0.0
C483 C 0.7472 0.34898 0.46456 0.0
C484 C 0.71186 0.36005 0.45298 0.0
C485 C 0.71157 0.39577 0.44174 0.0
C486 C 0.74656 0.42053 0.44183 0.0
C487 C 0.78196 0.40955 0.45311 0.0
C488 C 0.78239 0.37387 0.4644 0.0
C489 C 0.82713 0.14692 0.46391 0.0
C490 C 0.8694 0.15706 0.46224 0.0
C491 C 0.79781 0.17557 0.47029 0.0
C492 C 0.81019 0.21481 0.47554 0.0
C493 C 0.85243 0.22498 0.47382 0.0
C494 C 0.8817 0.19645 0.4672 0.0
C495 C 0.77902 0.24543 0.48233 0.0
C496 C 0.77795 0.28228 0.47189 0.0
C497 C 0.74947 0.23803 0.49838 0.0
C498 C 0.75084 0.20123 0.5112 0.0
C499 C 0.7874 0.19046 0.52187 0.0
C500 C 0.78861 0.15562 0.53382 0.0
C501 C 0.75335 0.13144 0.53536 0.0
C502 C 0.71677 0.1421 0.52499 0.0
C503 C 0.71541 0.17689 0.513 0.0
H504 H 0.75434 0.10448 0.54462 0.0
H505 H 0.74628 0.44816 0.43311 0.0
H506 H 0.35382 0.44607 0.53474 0.0
H507 H 0.30317 0.39536 0.54461 0.0
H508 H 0.38013 0.30339 0.51643 0.0
H509 H 0.43055 0.35433 0.50588 0.0
H510 H 0.30036 0.28702 0.50948 0.0
H511 H 0.3816 0.32194 0.56986 0.0
H512 H 0.41392 0.36729 0.59598 0.0
H513 H 0.29329 0.40854 0.61552 0.0
H514 H 0.26025 0.36383 0.5893 0.0
H515 H 0.20815 0.1275 0.569 0.0
H516 H 0.25519 0.17538 0.55243 0.0
H517 H 0.18009 0.27323 0.57593 0.0
H518 H 0.13284 0.22568 0.59233 0.0
H519 H 0.26119 0.28413 0.5849 0.0
H520 H 0.18059 0.24725 0.5238 0.0
H521 H 0.15021 0.20013 0.49793 0.0
H522 H 0.27234 0.15962 0.48048 0.0
H523 H 0.30344 0.20613 0.50646 0.0
C524 C 0.35985 0.41511 0.53043 0.0
C525 C 0.39649 0.40422 0.51971 0.0
C526 C 0.3309 0.38608 0.53617 0.0
C527 C 0.33828 0.34538 0.53173 0.0
C528 C 0.37386 0.33456 0.52015 0.0
C529 C 0.40268 0.36373 0.51414 0.0
C530 C 0.30972 0.31422 0.53999 0.0
C531 C 0.29219 0.28606 0.52602 0.0
C532 C 0.29871 0.31309 0.56155 0.0
C533 C 0.31847 0.33978 0.57748 0.0
C534 C 0.36197 0.34087 0.57963 0.0
C535 C 0.38042 0.36644 0.59447 0.0
C536 C 0.35568 0.39085 0.60737 0.0
C537 C 0.31242 0.38965 0.6055 0.0
C538 C 0.29381 0.36418 0.59066 0.0
C539 C 0.20121 0.15918 0.5703 0.0
C540 C 0.16684 0.17274 0.58212 0.0
C541 C 0.22819 0.18653 0.56085 0.0
C542 C 0.22116 0.22794 0.56291 0.0
C543 C 0.18629 0.24145 0.57423 0.0
C544 C 0.15937 0.21421 0.58365 0.0
C545 C 0.25121 0.25739 0.55436 0.0
C546 C 0.26928 0.28511 0.56835 0.0
C547 C 0.26297 0.25775 0.5329 0.0
C548 C 0.24431 0.22989 0.51723 0.0
C549 C 0.20095 0.22806 0.51457 0.0
C550 C 0.18361 0.20151 0.49986 0.0
C551 C 0.20932 0.17682 0.48761 0.0
C552 C 0.25245 0.17872 0.49 0.0
C553 C 0.26996 0.2052 0.5047 0.0
H554 H 0.19584 0.15628 0.47624 0.0
H555 H 0.37003 0.41064 0.61884 0.0
H556 H 0.44871 0.66008 0.48487 0.0
H557 H 0.39603 0.71018 0.4768 0.0
H558 H 0.30516 0.64399 0.51208 0.0
H559 H 0.35792 0.59345 0.52032 0.0
H560 H 0.27669 0.66597 0.47274 0.0
H561 H 0.34017 0.72968 0.53201 0.0
H562 H 0.39808 0.75502 0.55374 0.0
H563 H 0.43352 0.83517 0.50461 0.0
H564 H 0.37618 0.80989 0.48244 0.0
H565 H 0.12687 0.82018 0.4567 0.0
H566 H 0.17259 0.77292 0.47468 0.0
H567 H 0.27962 0.82937 0.44694 0.0
H568 H 0.23433 0.87736 0.42952 0.0
H569 H 0.29499 0.81135 0.48689 0.0
H570 H 0.23821 0.74267 0.4263 0.0
H571 H 0.18225 0.71666 0.40348 0.0
H572 H 0.13604 0.64546 0.45415 0.0
H573 H 0.19146 0.67149 0.47737 0.0
C574 C 0.41764 0.65622 0.49109 0.0
C575 C 0.40759 0.62266 0.50326 0.0
C576 C 0.38757 0.68505 0.48652 0.0
C577 C 0.34671 0.68101 0.49396 0.0
C578 C 0.33654 0.64774 0.50623 0.0
C579 C 0.36677 0.61899 0.51099 0.0
C580 C 0.31451 0.71077 0.48803 0.0
C581 C 0.28019 0.69768 0.47622 0.0
C582 C 0.31956 0.75223 0.49219 0.0
C583 C 0.35403 0.76765 0.5055 0.0
C584 C 0.3605 0.75249 0.52577 0.0
C585 C 0.3932 0.76688 0.53818 0.0
C586 C 0.41951 0.79663 0.53055 0.0
C587 C 0.41313 0.81211 0.5105 0.0
C588 C 0.38049 0.79779 0.49801 0.0
C589 C 0.16018 0.82292 0.4547 0.0
C590 C 0.1769 0.85235 0.4415 0.0
C591 C 0.18627 0.79565 0.46484 0.0
C592 C 0.22956 0.79719 0.46193 0.0
C593 C 0.24635 0.82744 0.44937 0.0
C594 C 0.22035 0.85465 0.43926 0.0
C595 C 0.25752 0.76664 0.47128 0.0
C596 C 0.29111 0.77959 0.4837 0.0
C597 C 0.25195 0.72506 0.46757 0.0
C598 C 0.21864 0.7094 0.45364 0.0
C599 C 0.2159 0.72173 0.43263 0.0
C600 C 0.18432 0.70694 0.41961 0.0
C601 C 0.15552 0.67953 0.42738 0.0
C602 C 0.15831 0.66677 0.44817 0.0
C603 C 0.1898 0.68152 0.46126 0.0
H604 H 0.13111 0.6681 0.41727 0.0
H605 H 0.44481 0.80774 0.54018 0.0
H606 H 0.07128 0.98527 0.09731 0.0
H607 H 0.0687 0.98693 0.13574 0.0
H608 H 0.94862 0.04428 0.1336 0.0
H609 H 0.95087 0.04286 0.09521 0.0
H610 H 1.0008 0.08094 0.16173 0.0
H611 H 0.95471 0.94727 0.14579 0.0
H612 H 0.95877 0.88 0.1295 0.0
H613 H 0.073 0.85736 0.16214 0.0
H614 H 0.06984 0.92471 0.1785 0.0
H615 H 0.93675 0.05663 0.26706 0.0
H616 H 0.94172 0.05211 0.22882 0.0
H617 H 0.0614 0.9948 0.23401 0.0
H618 H 0.05703 0.99977 0.27239 0.0
H619 H 0.01179 0.95795 0.20441 0.0
H620 H 0.05656 0.09129 0.22114 0.0
H621 H 0.0517 0.15832 0.23766 0.0
H622 H 0.93956 0.18172 0.20335 0.0
H623 H 0.94342 0.11455 0.18685 0.0
C624 C 0.04428 0.99824 0.10499 0.0
C625 C 0.01127 0.01392 0.09312 0.0
C626 C 0.0428 0.99899 0.12697 0.0
C627 C 0.00833 0.01547 0.13753 0.0
C628 C 0.97551 0.03141 0.12576 0.0
C629 C 0.97683 0.03046 0.1038 0.0
C630 C 0.00672 0.01669 0.16086 0.0
C631 C 1.00268 0.054 0.17106 0.0
C632 C 0.01023 0.98164 0.17304 0.0
C633 C 0.01227 0.94119 0.16319 0.0
C634 C 0.98089 0.92809 0.14935 0.0
C635 C 0.98298 0.88992 0.14014 0.0
C636 C 0.0162 0.86449 0.14471 0.0
C637 C 0.04733 0.87713 0.15858 0.0
C638 C 0.04538 0.91527 0.16785 0.0
C639 C 0.96436 0.0434 0.26012 0.0
C640 C 0.99668 0.02891 0.27285 0.0
C641 C 0.96706 0.0407 0.23823 0.0
C642 C 1.00216 0.02357 0.22855 0.0
C643 C 0.03405 0.00816 0.24116 0.0
C644 C 0.03142 0.01093 0.2631 0.0
C645 C 1.00558 0.02218 0.20526 0.0
C646 C 0.01002 0.98488 0.19508 0.0
C647 C 1.00241 0.05725 0.19308 0.0
C648 C 1.00008 0.09774 0.20291 0.0
C649 C 0.03068 0.1106 0.21724 0.0
C650 C 0.02814 0.14864 0.22658 0.0
C651 C 0.99528 0.17423 0.2216 0.0
C652 C 0.96496 0.16185 0.20722 0.0
C653 C 0.96733 0.12381 0.19785 0.0
H654 H 0.99337 0.20367 0.22884 0.0
H655 H 0.01775 0.83494 0.13756 0.0
H656 H 0.98199 0.94688 0.92799 0.0
H657 H 0.98217 0.94383 0.88966 0.0
H658 H 0.05354 0.05307 0.88783 0.0
H659 H 0.05234 0.05704 0.92622 0.0
H660 H 0.99572 0.05578 0.8594 0.0
H661 H 0.0983 0.95913 0.87773 0.0
H662 H 0.12736 0.90082 0.89606 0.0
H663 H 0.0351 0.82474 0.86769 0.0
H664 H 1.00518 0.88271 0.84934 0.0
H665 H 0.04905 0.03154 0.75058 0.0
H666 H 0.05372 0.03707 0.78889 0.0
H667 H 0.96792 0.93881 0.79505 0.0
H668 H 0.96211 0.93371 0.75685 0.0
H669 H 0.03712 0.93183 0.82094 0.0
H670 H 0.93464 0.03194 0.80316 0.0
H671 H 0.90888 0.09143 0.7846 0.0
H672 H 0.00658 0.16249 0.81185 0.0
H673 H 0.03327 0.10325 0.83034 0.0
C674 C 0.99785 0.97023 0.91946 0.0
C675 C 0.0173 1.00213 0.93021 0.0
C676 C 0.99811 0.96834 0.8975 0.0
C677 C 0.0185 0.99785 0.8858 0.0
C678 C 0.03769 0.02989 0.89649 0.0
C679 C 0.03704 0.03206 0.91846 0.0
C680 C 0.01911 0.99559 0.86242 0.0
C681 C 1.00544 0.02887 0.85101 0.0
C682 C 0.03127 0.96035 0.85139 0.0
C683 C 0.04928 0.92534 0.86231 0.0
C684 C 0.08403 0.93002 0.87551 0.0
C685 C 0.10069 0.89702 0.88589 0.0
C686 C 0.08302 0.85912 0.8831 0.0
C687 C 0.04873 0.85412 0.86986 0.0
C688 C 0.03194 0.88703 0.85944 0.0
C689 C 0.03079 0.01137 0.76005 0.0
C690 C 1.00516 0.98218 0.75055 0.0
C691 C 0.03367 0.01447 0.78196 0.0
C692 C 0.01102 0.98845 0.7948 0.0
C693 C 0.9858 0.95906 0.78541 0.0
C694 C 0.9827 0.95609 0.76355 0.0
C695 C 0.01341 0.99182 0.81805 0.0
C696 C 0.02767 0.95876 0.82939 0.0
C697 C 1.00236 0.02742 0.829 0.0
C698 C 0.98621 0.06307 0.81795 0.0
C699 C 0.95084 0.06017 0.80505 0.0
C700 C 0.93603 0.09386 0.79457 0.0
C701 C 0.95615 0.13069 0.79699 0.0
C702 C 0.99106 0.13393 0.80996 0.0
C703 C 0.00602 0.10032 0.82045 0.0
H704 H 0.94464 0.15675 0.78887 0.0
H705 H 0.09595 0.83362 0.89116 0.0
H706 H 0.45038 0.5321 0.59554 0.0
H707 H 0.44993 0.53584 0.63387 0.0
H708 H 0.57778 0.49686 0.63517 0.0
H709 H 0.57881 0.49373 0.59677 0.0
H710 H 0.46014 0.48168 0.66335 0.0
H711 H 0.62676 0.5413 0.67691 0.0
H712 H 0.67936 0.58192 0.65867 0.0
H713 H 0.58298 0.64206 0.62463 0.0
H714 H 0.52981 0.60219 0.64287 0.0
H715 H 0.50723 0.46988 0.7721 0.0
H716 H 0.51276 0.46413 0.73383 0.0
H717 H 0.50698 0.59277 0.72902 0.0
H718 H 0.50297 0.59883 0.76727 0.0
H719 H 0.56351 0.5635 0.70259 0.0
H720 H 0.42138 0.53447 0.71977 0.0
H721 H 0.36439 0.49926 0.73772 0.0
H722 H 0.40383 0.38781 0.70977 0.0
H723 H 0.46144 0.4223 0.69187 0.0
C724 C 0.47848 0.52434 0.60393 0.0
C725 C 0.51472 0.51284 0.59301 0.0
C726 C 0.4781 0.52636 0.62589 0.0
C727 C 0.51392 0.51701 0.63742 0.0
C728 C 0.54995 0.50484 0.62661 0.0
C729 C 0.55043 0.50294 0.60463 0.0
C730 C 0.51347 0.52029 0.66075 0.0
C731 C 0.48285 0.49946 0.67192 0.0
C732 C 0.54271 0.54392 0.67197 0.0
C733 C 0.57437 0.56844 0.6611 0.0
C734 C 0.61681 0.56329 0.66559 0.0
C735 C 0.64672 0.58617 0.65524 0.0
C736 C 0.63453 0.61445 0.64045 0.0
C737 C 0.59239 0.62003 0.63603 0.0
C738 C 0.56236 0.59727 0.64635 0.0
C739 C 0.50773 0.49698 0.76293 0.0
C740 C 0.50438 0.53482 0.77277 0.0
C741 C 0.51051 0.49362 0.74102 0.0
C742 C 0.50973 0.528 0.72851 0.0
C743 C 0.50749 0.56581 0.73833 0.0
C744 C 0.50478 0.56921 0.7602 0.0
C745 C 0.51035 0.52468 0.70519 0.0
C746 C 0.54101 0.54546 0.69402 0.0
C747 C 0.48062 0.50168 0.69395 0.0
C748 C 0.44598 0.4809 0.70466 0.0
C749 C 0.4181 0.5024 0.71759 0.0
C750 C 0.38565 0.48259 0.72773 0.0
C751 C 0.38056 0.44131 0.72494 0.0
C752 C 0.40785 0.41978 0.71195 0.0
C753 C 0.44039 0.43944 0.70179 0.0
H754 H 0.35541 0.42602 0.7328 0.0
H755 H 0.65773 0.63211 0.63244 0.0
H756 H 0.52022 0.56676 0.42635 0.0
H757 H 0.52055 0.56417 0.38791 0.0
H758 H 0.51576 0.43517 0.38929 0.0
H759 H 0.51534 0.43738 0.42774 0.0
H760 H 0.57414 0.46416 0.36082 0.0
H761 H 0.43011 0.48525 0.37866 0.0
H762 H 0.37144 0.51991 0.39602 0.0
H763 H 0.4008 0.62782 0.36314 0.0
H764 H 0.46006 0.59393 0.3458 0.0
H765 H 0.51424 0.4191 0.25623 0.0
H766 H 0.51914 0.42584 0.29441 0.0
H767 H 0.51208 0.5544 0.28937 0.0
H768 H 0.50579 0.54781 0.25114 0.0
H769 H 0.46192 0.52862 0.31976 0.0
H770 H 0.60384 0.50827 0.30082 0.0
H771 H 0.66356 0.47512 0.2836 0.0
H772 H 0.64021 0.36818 0.31849 0.0
H773 H 0.57993 0.40051 0.33572 0.0
C774 C 0.5193 0.5378 0.41851 0.0
C775 C 0.51761 0.50227 0.43016 0.0
C776 C 0.51936 0.53641 0.39653 0.0
C777 C 0.5179 0.49949 0.38577 0.0
C778 C 0.51688 0.46397 0.39731 0.0
C779 C 0.51645 0.46532 0.41929 0.0
C780 C 0.51714 0.49789 0.36246 0.0
C781 C 0.54938 0.47783 0.35182 0.0
C782 C 0.48548 0.5168 0.35075 0.0
C783 C 0.44979 0.53718 0.36111 0.0
C784 C 0.42428 0.51647 0.37527 0.0
C785 C 0.39087 0.53596 0.38508 0.0
C786 C 0.38247 0.57608 0.38073 0.0
C787 C 0.40739 0.59676 0.36652 0.0
C788 C 0.44087 0.57742 0.35668 0.0
C789 C 0.51354 0.44882 0.26323 0.0
C790 C 0.50955 0.48292 0.25061 0.0
C791 C 0.51678 0.45265 0.28507 0.0
C792 C 0.51642 0.49065 0.29477 0.0
C793 C 0.51258 0.52478 0.28223 0.0
C794 C 0.50933 0.52098 0.26037 0.0
C795 C 0.5188 0.49457 0.31803 0.0
C796 C 0.48685 0.51509 0.3287 0.0
C797 C 0.55091 0.47631 0.32976 0.0
C798 C 0.58711 0.4567 0.31941 0.0
C799 C 0.61121 0.47757 0.30469 0.0
C800 C 0.6452 0.45894 0.29495 0.0
C801 C 0.65561 0.41953 0.29991 0.0
C802 C 0.63208 0.39869 0.31465 0.0
C803 C 0.59801 0.41716 0.32442 0.0
H804 H 0.68195 0.40518 0.29236 0.0
H805 H 0.35659 0.59111 0.38834 0.0
loop_
_geom_bond_atom_site_label_1
_geom_bond_atom_site_label_2
_geom_bond_distance
_geom_bond_site_symmetry_2
_ccdc_geom_bond_type
O0 Zn1 1.953 . S
O0 C16 1.225 1_565 S
Zn1 O0 1.953 . S
Zn1 O2 1.949 1_565 S
Zn1 O8 1.919 . S
Zn1 O13 1.924 1_565 S
O2 Zn1 1.949 1_545 S
O2 Zn3 1.923 1_444 S
O2 Zn4 1.950 1_455 S
O2 Zn5 1.945 1_554 S
Zn3 O2 1.923 1_666 S
Zn3 O6 1.934 . S
Zn3 O9 1.941 1_655 S
Zn3 O10 1.965 . S
Zn4 O2 1.950 1_655 S
Zn4 O11 1.938 1_545 S
Zn4 O12 1.906 . S
Zn4 O22 1.953 . S
Zn5 O2 1.945 1_556 S
Zn5 O7 1.932 . S
Zn5 O14 1.977 1_455 S
Zn5 O15 1.899 1_556 S
O6 Zn3 1.934 . S
O6 C17 1.226 1_665 S
O7 Zn5 1.932 . S
O7 C17 1.307 . S
O8 Zn1 1.919 . S
O8 C19 1.253 . S
O9 Zn3 1.941 1_455 S
O9 C19 1.283 1_556 S
O10 Zn3 1.965 . S
O10 C18 1.303 1_556 S
O11 Zn4 1.938 1_565 S
O11 C18 1.247 . S
O12 Zn4 1.906 . S
O12 C20 1.304 . S
O13 Zn1 1.924 1_545 S
O13 C21 1.311 . S
O14 Zn5 1.977 1_655 S
O14 C20 1.272 1_556 S
O15 Zn5 1.899 1_554 S
O15 C21 1.261 . S
C16 O0 1.225 1_545 S
C16 O22 1.298 1_455 S
C17 O6 1.226 1_445 S
C17 O7 1.307 . S
C18 O10 1.303 1_554 S
C18 O11 1.247 . S
C19 O8 1.253 . S
C19 O9 1.283 1_554 S
C20 O12 1.304 . S
C20 O14 1.272 1_554 S
C21 O13 1.311 . S
C21 O15 1.261 . S
O22 Zn4 1.953 . S
O22 C16 1.298 1_655 S
O23 Zn24 1.953 . S
O23 C39 1.225 . S
Zn24 O23 1.953 . S
Zn24 O25 1.949 . S
Zn24 O31 1.919 . S
Zn24 O36 1.924 . S
O25 Zn24 1.949 . S
O25 Zn26 1.923 . S
O25 Zn27 1.950 . S
O25 Zn28 1.945 . S
Zn26 O25 1.923 . S
Zn26 O29 1.933 . S
Zn26 O32 1.941 . S
Zn26 O33 1.965 . S
Zn27 O25 1.950 . S
Zn27 O34 1.938 . S
Zn27 O35 1.906 . S
Zn27 O45 1.953 . S
Zn28 O25 1.945 . S
Zn28 O30 1.932 . S
Zn28 O37 1.977 . S
Zn28 O38 1.910 . S
O29 Zn26 1.933 . S
O29 C40 1.226 . S
O30 Zn28 1.932 . S
O30 C40 1.307 . S
O31 Zn24 1.919 . S
O31 C42 1.253 . S
O32 Zn26 1.941 . S
O32 C42 1.283 . S
O33 Zn26 1.965 . S
O33 C41 1.303 . S
O34 Zn27 1.938 . S
O34 C41 1.247 . S
O35 Zn27 1.906 . S
O35 C43 1.304 . S
O36 Zn24 1.924 . S
O36 C44 1.311 . S
O37 Zn28 1.977 . S
O37 C43 1.272 . S
O38 Zn28 1.910 . S
O38 C44 1.231 . S
C39 O23 1.225 . S
C39 O45 1.298 . S
C40 O29 1.226 . S
C40 O30 1.307 . S
C41 O33 1.303 . S
C41 O34 1.247 . S
C42 O31 1.253 . S
C42 O32 1.283 . S
C43 O35 1.304 . S
C43 O37 1.272 . S
C44 O36 1.311 . S
C44 O38 1.231 . S
O45 Zn27 1.953 . S
O45 C39 1.298 . S
C46 C47 1.264 . S
C46 C51 1.479 . S
C46 C56 1.465 . S
C47 C46 1.264 . S
C47 C49 1.339 . S
C47 H74 0.931 . S
C48 C49 1.395 . S
C48 C50 1.320 . S
C49 C47 1.339 . S
C49 C48 1.395 . S
C49 H75 0.929 . S
C50 C48 1.320 . S
C50 C51 1.405 . S
C50 H76 0.930 . S
C51 C46 1.479 . S
C51 C50 1.405 . S
C51 H77 0.931 . S
U52 O53 2.454 1_545 S
U52 O54 2.458 1_545 S
U52 C55 2.984 1_545 S
U52 C56 2.847 1_455 S
U52 C69 2.882 . S
U52 O70 2.441 1_455 S
U52 O71 2.420 1_455 S
U52 O72 2.455 1_545 S
U52 O73 2.449 . S
O53 U52 2.454 1_565 S
O53 C55 1.353 . S
O54 U52 2.458 1_565 S
O54 C55 1.286 . S
C55 U52 2.984 1_565 S
C55 O53 1.353 . S
C55 O54 1.286 . S
C55 C57 1.363 . S
C56 C46 1.465 . S
C56 U52 2.847 1_655 S
C56 O70 1.249 . S
C56 O71 1.202 . S
C57 C55 1.363 . S
C57 C59 1.408 . S
C57 C62 1.342 . S
C58 C59 1.310 . S
C58 C61 1.461 . S
C58 H78 0.932 . S
C59 C57 1.408 . S
C59 C58 1.310 . S
C59 H79 0.930 . S
C60 C61 1.474 . S
C60 C62 1.285 . S
C60 H80 0.929 . S
C61 C58 1.461 . S
C61 C60 1.474 . S
C62 C57 1.342 . S
C62 C60 1.285 . S
C62 H81 0.930 . S
C63 C66 1.424 1_455 S
C63 C68 1.245 1_545 S
C63 C69 1.428 . S
C64 C67 1.260 1_565 S
C64 C68 1.477 . S
C64 H82 0.932 . S
C65 C66 1.384 . S
C65 C67 1.479 1_655 S
C65 H83 0.929 . S
C66 C63 1.424 1_655 S
C66 C65 1.384 . S
C66 H84 0.928 . S
C67 C64 1.260 1_545 S
C67 C65 1.479 1_455 S
C68 C63 1.245 1_565 S
C68 C64 1.477 . S
C68 H85 0.932 . S
C69 U52 2.882 . S
C69 C63 1.428 . S
C69 O72 1.301 1_545 S
C69 O73 1.282 . S
O70 U52 2.441 1_655 S
O70 C56 1.249 . S
O71 U52 2.420 1_655 S
O71 C56 1.202 . S
O72 U52 2.455 1_565 S
O72 C69 1.301 1_565 S
O73 U52 2.449 . S
O73 C69 1.282 . S
H74 C47 0.931 . S
H75 C49 0.929 . S
H76 C50 0.930 . S
H77 C51 0.931 . S
H78 C58 0.932 . S
H79 C59 0.930 . S
H80 C60 0.929 . S
H81 C62 0.930 . S
H82 C64 0.932 . S
H83 C65 0.929 . S
H84 C66 0.928 . S
H85 C68 0.932 . S
C86 C87 1.264 . S
C86 C91 1.479 . S
C86 C96 1.465 . S
C87 C86 1.264 . S
C87 C89 1.339 . S
C87 H114 0.931 . S
C88 C89 1.395 . S
C88 C90 1.320 . S
C89 C87 1.339 . S
C89 C88 1.395 . S
C89 H115 0.929 . S
C90 C88 1.320 . S
C90 C91 1.405 . S
C90 H116 0.930 . S
C91 C86 1.479 . S
C91 C90 1.405 . S
C91 H117 0.931 . S
U92 O93 2.454 1_565 S
U92 O94 2.458 1_565 S
U92 C95 2.984 1_565 S
U92 C96 2.847 1_455 S
U92 C109 2.882 . S
U92 O110 2.441 . S
U92 O111 2.420 1_455 S
U92 O112 2.455 1_565 S
U92 O113 2.449 . S
O93 U92 2.454 1_545 S
O93 C95 1.353 . S
O94 U92 2.458 1_545 S
O94 C95 1.286 . S
C95 U92 2.984 1_545 S
C95 O93 1.353 . S
C95 O94 1.286 . S
C95 C97 1.363 . S
C96 C86 1.465 . S
C96 U92 2.847 1_655 S
C96 O110 1.249 1_655 S
C96 O111 1.202 . S
C97 C95 1.363 . S
C97 C99 1.408 . S
C97 C102 1.342 . S
C98 C99 1.310 . S
C98 C101 1.461 . S
C98 H118 0.932 . S
C99 C97 1.408 . S
C99 C98 1.310 . S
C99 H119 0.930 . S
C100 C101 1.474 . S
C100 C102 1.285 . S
C100 H120 0.929 . S
C101 C98 1.461 . S
C101 C100 1.474 . S
C102 C97 1.342 . S
C102 C100 1.285 . S
C102 H121 0.930 . S
C103 C106 1.421 1_455 S
C103 C108 1.245 1_565 S
C103 C109 1.428 . S
C104 C107 1.260 1_545 S
C104 C108 1.477 . S
C104 H122 0.932 . S
C105 C106 1.384 . S
C105 C107 1.479 1_655 S
C105 H123 0.929 . S
C106 C103 1.421 1_655 S
C106 C105 1.384 . S
C106 H124 0.930 . S
C107 C104 1.260 1_565 S
C107 C105 1.479 1_455 S
C108 C103 1.245 1_545 S
C108 C104 1.477 . S
C108 H125 0.932 . S
C109 U92 2.882 . S
C109 C103 1.428 . S
C109 O112 1.301 1_565 S
C109 O113 1.282 . S
O110 U92 2.441 . S
O110 C96 1.249 1_455 S
O111 U92 2.420 1_655 S
O111 C96 1.202 . S
O112 U92 2.455 1_545 S
O112 C109 1.301 1_545 S
O113 U92 2.449 . S
O113 C109 1.282 . S
H114 C87 0.931 . S
H115 C89 0.929 . S
H116 C90 0.930 . S
H117 C91 0.931 . S
H118 C98 0.932 . S
H119 C99 0.930 . S
H120 C100 0.929 . S
H121 C102 0.930 . S
H122 C104 0.932 . S
H123 C105 0.929 . S
H124 C106 0.930 . S
H125 C108 0.932 . S
C126 C127 1.264 . S
C126 C131 1.479 . S
C126 C136 1.465 . S
C127 C126 1.264 . S
C127 C129 1.339 . S
C127 H154 0.931 . S
C128 C129 1.395 . S
C128 C130 1.320 . S
C129 C127 1.339 . S
C129 C128 1.395 . S
C129 H155 0.929 . S
C130 C128 1.320 . S
C130 C131 1.405 . S
C130 H156 0.930 . S
C131 C126 1.479 . S
C131 C130 1.405 . S
C131 H157 0.931 . S
U132 O133 2.454 . S
U132 O134 2.458 . S
U132 C135 2.984 . S
U132 C136 2.847 . S
U132 C149 2.882 . S
U132 O150 2.441 . S
U132 O151 2.420 . S
U132 O152 2.455 . S
U132 O153 2.449 . S
O133 U132 2.454 . S
O133 C135 1.353 . S
O134 U132 2.458 . S
O134 C135 1.286 . S
C135 U132 2.984 . S
C135 O133 1.353 . S
C135 O134 1.286 . S
C135 C137 1.363 . S
C136 C126 1.465 . S
C136 U132 2.847 . S
C136 O150 1.249 . S
C136 O151 1.202 . S
C137 C135 1.363 . S
C137 C139 1.408 . S
C137 C142 1.342 . S
C138 C139 1.310 . S
C138 C141 1.461 . S
C138 H158 0.932 . S
C139 C137 1.408 . S
C139 C138 1.310 . S
C139 H159 0.930 . S
C140 C141 1.474 . S
C140 C142 1.285 . S
C140 H160 0.929 . S
C141 C138 1.461 . S
C141 C140 1.474 . S
C142 C137 1.342 . S
C142 C140 1.285 . S
C142 H161 0.930 . S
C143 C146 1.424 . S
C143 C148 1.245 . S
C143 C149 1.428 . S
C144 C147 1.260 . S
C144 C148 1.477 . S
C144 H162 0.932 . S
C145 C146 1.384 . S
C145 C147 1.479 . S
C145 H163 0.929 . S
C146 C143 1.424 . S
C146 C145 1.384 . S
C146 H164 0.928 . S
C147 C144 1.260 . S
C147 C145 1.479 . S
C148 C143 1.245 . S
C148 C144 1.477 . S
C148 H165 0.932 . S
C149 U132 2.882 . S
C149 C143 1.428 . S
C149 O152 1.301 . S
C149 O153 1.282 . S
O150 U132 2.441 . S
O150 C136 1.249 . S
O151 U132 2.420 . S
O151 C136 1.202 . S
O152 U132 2.455 . S
O152 C149 1.301 . S
O153 U132 2.449 . S
O153 C149 1.282 . S
H154 C127 0.931 . S
H155 C129 0.929 . S
H156 C130 0.930 . S
H157 C131 0.931 . S
H158 C138 0.932 . S
H159 C139 0.930 . S
H160 C140 0.929 . S
H161 C142 0.930 . S
H162 C144 0.932 . S
H163 C145 0.929 . S
H164 C146 0.928 . S
H165 C148 0.932 . S
C166 C167 1.264 . S
C166 C171 1.479 . S
C166 C176 1.465 . S
C167 C166 1.264 . S
C167 C169 1.339 . S
C167 H194 0.931 . S
C168 C169 1.395 . S
C168 C170 1.320 . S
C169 C167 1.339 . S
C169 C168 1.395 . S
C169 H195 0.929 . S
C170 C168 1.320 . S
C170 C171 1.405 . S
C170 H196 0.930 . S
C171 C166 1.479 . S
C171 C170 1.405 . S
C171 H197 0.931 . S
U172 O173 2.454 . S
U172 O174 2.458 . S
U172 C175 2.984 . S
U172 C176 2.847 . S
U172 C189 2.882 . S
U172 O190 2.441 . S
U172 O191 2.420 . S
U172 O192 2.455 . S
U172 O193 2.449 . S
O173 U172 2.454 . S
O173 C175 1.353 . S
O174 U172 2.458 . S
O174 C175 1.286 . S
C175 U172 2.984 . S
C175 O173 1.353 . S
C175 O174 1.286 . S
C175 C177 1.363 . S
C176 C166 1.465 . S
C176 U172 2.847 . S
C176 O190 1.249 . S
C176 O191 1.202 . S
C177 C175 1.363 . S
C177 C179 1.408 . S
C177 C182 1.342 . S
C178 C179 1.310 . S
C178 C181 1.461 . S
C178 H198 0.932 . S
C179 C177 1.408 . S
C179 C178 1.310 . S
C179 H199 0.930 . S
C180 C181 1.474 . S
C180 C182 1.285 . S
C180 H200 0.929 . S
C181 C178 1.461 . S
C181 C180 1.474 . S
C182 C177 1.342 . S
C182 C180 1.285 . S
C182 H201 0.930 . S
C183 C186 1.424 . S
C183 C188 1.245 . S
C183 C189 1.428 . S
C184 C187 1.260 . S
C184 C188 1.477 . S
C184 H202 0.932 . S
C185 C186 1.384 . S
C185 C187 1.479 . S
C185 H203 0.929 . S
C186 C183 1.424 . S
C186 C185 1.384 . S
C186 H204 0.928 . S
C187 C184 1.260 . S
C187 C185 1.479 . S
C188 C183 1.245 . S
C188 C184 1.477 . S
C188 H205 0.932 . S
C189 U172 2.882 . S
C189 C183 1.428 . S
C189 O192 1.301 . S
C189 O193 1.282 . S
O190 U172 2.441 . S
O190 C176 1.249 . S
O191 U172 2.420 . S
O191 C176 1.202 . S
O192 U172 2.455 . S
O192 C189 1.301 . S
O193 U172 2.449 . S
O193 C189 1.282 . S
H194 C167 0.931 . S
H195 C169 0.929 . S
H196 C170 0.930 . S
H197 C171 0.931 . S
H198 C178 0.932 . S
H199 C179 0.930 . S
H200 C180 0.929 . S
H201 C182 0.930 . S
H202 C184 0.932 . S
H203 C185 0.929 . S
H204 C186 0.928 . S
H205 C188 0.932 . S
H206 C224 0.951 . S
H207 C226 0.951 . S
H208 C228 0.950 . S
H209 C229 0.950 . S
H210 C231 0.950 . S
H211 C234 0.950 . S
H212 C235 0.950 . S
H213 C237 0.950 . S
H214 C238 0.950 . S
H215 C239 0.951 . S
H216 C241 0.951 . S
H217 C243 0.950 . S
H218 C244 0.950 . S
H219 C246 0.950 . S
H220 C249 0.950 . S
H221 C250 0.950 . S
H222 C252 0.950 . S
H223 C253 0.950 . S
C224 H206 0.951 . S
C224 C225 1.366 . S
C224 C226 1.388 . S
C225 C224 1.366 . S
C225 C229 1.385 . S
C226 H207 0.951 . S
C226 C224 1.388 . S
C226 C227 1.366 . S
C227 C226 1.366 . S
C227 C228 1.414 . S
C227 C230 1.499 . S
C228 H208 0.950 . S
C228 C227 1.414 . S
C228 C229 1.374 . S
C229 H209 0.950 . S
C229 C225 1.385 . S
C229 C228 1.374 . S
C230 C227 1.499 . S
C230 C231 1.373 . S
C230 C232 1.389 . S
C231 H210 0.950 . S
C231 C230 1.373 . S
C231 C247 1.377 . S
C232 C230 1.389 . S
C232 C233 1.524 . S
C232 C246 1.377 . S
C233 C232 1.524 . S
C233 C234 1.397 1_554 S
C233 C238 1.363 . S
C234 H211 0.950 . S
C234 C233 1.397 1_556 S
C234 C235 1.334 . S
C235 H212 0.950 . S
C235 C234 1.334 . S
C235 C236 1.287 . S
C236 C235 1.287 . S
C236 C237 1.524 . S
C236 H255 0.913 . S
C237 H213 0.950 . S
C237 C236 1.524 . S
C237 C238 1.415 1_556 S
C238 H214 0.950 . S
C238 C233 1.363 . S
C238 C237 1.415 1_554 S
C239 H215 0.951 . S
C239 C240 1.366 . S
C239 C241 1.388 . S
C240 C239 1.366 . S
C240 C244 1.385 . S
C241 H216 0.951 . S
C241 C239 1.388 . S
C241 C242 1.366 . S
C242 C241 1.366 . S
C242 C243 1.414 . S
C242 C245 1.499 . S
C243 H217 0.950 . S
C243 C242 1.414 . S
C243 C244 1.374 . S
C244 H218 0.950 . S
C244 C240 1.385 . S
C244 C243 1.374 . S
C245 C242 1.499 . S
C245 C246 1.373 . S
C245 C247 1.389 . S
C246 H219 0.950 . S
C246 C232 1.377 . S
C246 C245 1.373 . S
C247 C231 1.377 . S
C247 C245 1.389 . S
C247 C248 1.524 . S
C248 C247 1.524 . S
C248 C249 1.397 . S
C248 C253 1.363 . S
C249 H220 0.950 . S
C249 C248 1.397 . S
C249 C250 1.334 . S
C250 H221 0.950 . S
C250 C249 1.334 . S
C250 C251 1.287 . S
C251 C250 1.287 . S
C251 C252 1.524 . S
C251 H254 0.999 . S
C252 H222 0.950 . S
C252 C251 1.524 . S
C252 C253 1.415 . S
C253 H223 0.950 . S
C253 C248 1.363 . S
C253 C252 1.415 . S
H254 C251 0.999 . S
H255 C236 0.913 . S
H256 C274 0.951 . S
H257 C276 0.951 . S
H258 C278 0.950 . S
H259 C279 0.950 1_554 S
H260 C281 0.950 1_554 S
H261 C284 0.950 . S
H262 C285 0.950 . S
H263 C287 0.950 . S
H264 C288 0.950 . S
H265 C289 0.951 . S
H266 C291 0.951 . S
H267 C293 0.950 . S
H268 C294 0.950 . S
H269 C296 0.950 . S
H270 C299 0.950 . S
H271 C300 0.950 . S
H272 C302 0.950 . S
H273 C303 0.950 . S
C274 H256 0.951 . S
C274 C275 1.366 . S
C274 C276 1.388 . S
C275 C274 1.366 . S
C275 C279 1.385 . S
C276 H257 0.951 . S
C276 C274 1.388 . S
C276 C277 1.366 . S
C277 C276 1.366 . S
C277 C278 1.414 . S
C277 C280 1.499 . S
C278 H258 0.950 . S
C278 C277 1.414 . S
C278 C279 1.374 . S
C279 H259 0.950 1_556 S
C279 C275 1.385 . S
C279 C278 1.374 . S
C280 C277 1.499 . S
C280 C281 1.373 . S
C280 C282 1.389 . S
C281 H260 0.950 1_556 S
C281 C280 1.373 . S
C281 C297 1.377 . S
C282 C280 1.389 . S
C282 C283 1.524 . S
C282 C296 1.377 . S
C283 C282 1.524 . S
C283 C284 1.397 . S
C283 C288 1.363 . S
C284 H261 0.950 . S
C284 C283 1.397 . S
C284 C285 1.334 . S
C285 H262 0.950 . S
C285 C284 1.334 . S
C285 C286 1.287 . S
C286 C285 1.287 . S
C286 C287 1.524 . S
C286 H305 0.913 . S
C287 H263 0.950 . S
C287 C286 1.524 . S
C287 C288 1.415 . S
C288 H264 0.950 . S
C288 C283 1.363 . S
C288 C287 1.415 . S
C289 H265 0.951 . S
C289 C290 1.366 . S
C289 C291 1.388 . S
C290 C289 1.366 . S
C290 C294 1.385 . S
C291 H266 0.951 . S
C291 C289 1.388 . S
C291 C292 1.366 . S
C292 C291 1.366 . S
C292 C293 1.414 . S
C292 C295 1.499 . S
C293 H267 0.950 . S
C293 C292 1.414 . S
C293 C294 1.374 . S
C294 H268 0.950 . S
C294 C290 1.385 . S
C294 C293 1.374 . S
C295 C292 1.499 . S
C295 C296 1.373 . S
C295 C297 1.389 . S
C296 H269 0.950 . S
C296 C282 1.377 . S
C296 C295 1.373 . S
C297 C281 1.377 . S
C297 C295 1.389 . S
C297 C298 1.524 1_556 S
C298 C297 1.524 1_554 S
C298 C299 1.397 . S
C298 C303 1.363 . S
C299 H270 0.950 . S
C299 C298 1.397 . S
C299 C300 1.334 . S
C300 H271 0.950 . S
C300 C299 1.334 . S
C300 C301 1.287 . S
C301 C300 1.287 . S
C301 C302 1.524 . S
C301 H304 0.999 . S
C302 H272 0.950 . S
C302 C301 1.524 . S
C302 C303 1.415 . S
C303 H273 0.950 . S
C303 C298 1.363 . S
C303 C302 1.415 . S
H304 C301 0.999 . S
H305 C286 0.913 . S
H306 C324 0.951 . S
H307 C326 0.951 . S
H308 C328 0.950 . S
H309 C329 0.950 . S
H310 C331 0.950 . S
H311 C334 0.950 . S
H312 C335 0.950 . S
H313 C337 0.950 . S
H314 C338 0.950 . S
H315 C339 0.951 . S
H316 C341 0.951 . S
H317 C343 0.950 . S
H318 C344 0.950 . S
H319 C346 0.950 . S
H320 C349 0.950 . S
H321 C350 0.950 . S
H322 C352 0.948 1_556 S
H323 C353 0.950 . S
C324 H306 0.951 . S
C324 C325 1.366 . S
C324 C326 1.388 . S
C325 C324 1.366 . S
C325 C329 1.385 . S
C326 H307 0.951 . S
C326 C324 1.388 . S
C326 C327 1.366 . S
C327 C326 1.366 . S
C327 C328 1.414 . S
C327 C330 1.499 . S
C328 H308 0.950 . S
C328 C327 1.414 . S
C328 C329 1.374 . S
C329 H309 0.950 . S
C329 C325 1.385 . S
C329 C328 1.374 . S
C330 C327 1.499 . S
C330 C331 1.373 . S
C330 C332 1.389 . S
C331 H310 0.950 . S
C331 C330 1.373 . S
C331 C347 1.377 . S
C332 C330 1.389 . S
C332 C333 1.524 . S
C332 C346 1.377 . S
C333 C332 1.524 . S
C333 C334 1.397 . S
C333 C338 1.363 . S
C334 H311 0.950 . S
C334 C333 1.397 . S
C334 C335 1.334 . S
C335 H312 0.950 . S
C335 C334 1.334 . S
C335 C336 1.287 . S
C336 C335 1.287 . S
C336 C337 1.524 . S
C336 H355 0.913 . S
C337 H313 0.950 . S
C337 C336 1.524 . S
C337 C338 1.415 . S
C338 H314 0.950 . S
C338 C333 1.363 . S
C338 C337 1.415 . S
C339 H315 0.951 . S
C339 C340 1.366 . S
C339 C341 1.388 . S
C340 C339 1.366 . S
C340 C344 1.385 . S
C341 H316 0.951 . S
C341 C339 1.388 . S
C341 C342 1.366 . S
C342 C341 1.366 . S
C342 C343 1.414 . S
C342 C345 1.499 . S
C343 H317 0.950 . S
C343 C342 1.414 . S
C343 C344 1.374 . S
C344 H318 0.950 . S
C344 C340 1.385 . S
C344 C343 1.374 . S
C345 C342 1.499 . S
C345 C346 1.373 . S
C345 C347 1.389 . S
C346 H319 0.950 . S
C346 C332 1.377 . S
C346 C345 1.373 . S
C347 C331 1.377 . S
C347 C345 1.389 . S
C347 C348 1.524 . S
C348 C347 1.524 . S
C348 C349 1.397 . S
C348 C353 1.363 . S
C349 H320 0.950 . S
C349 C348 1.397 . S
C349 C350 1.334 1_554 S
C350 H321 0.950 . S
C350 C349 1.334 1_556 S
C350 C351 1.287 . S
C351 C350 1.287 . S
C351 C352 1.524 1_556 S
C351 H354 0.999 . S
C352 H322 0.948 1_554 S
C352 C351 1.524 1_554 S
C352 C353 1.415 . S
C353 H323 0.950 . S
C353 C348 1.363 . S
C353 C352 1.415 . S
H354 C351 0.999 . S
H355 C336 0.913 . S
H356 C374 0.951 . S
H357 C376 0.951 . S
H358 C378 0.956 . S
H359 C379 0.950 . S
H360 C381 0.950 1_554 S
H361 C384 0.950 . S
H362 C385 0.950 . S
H363 C387 0.950 . S
H364 C388 0.950 . S
H365 C389 0.951 . S
H366 C391 0.951 . S
H367 C393 0.950 . S
H368 C394 0.950 . S
H369 C396 0.950 . S
H370 C399 0.954 1_556 S
H371 C400 0.950 . S
H372 C402 0.950 . S
H373 C403 0.950 . S
C374 H356 0.951 . S
C374 C375 1.366 . S
C374 C376 1.388 . S
C375 C374 1.366 . S
C375 C379 1.385 1_556 S
C376 H357 0.951 . S
C376 C374 1.388 . S
C376 C377 1.366 . S
C377 C376 1.366 . S
C377 C378 1.405 1_556 S
C377 C380 1.499 . S
C378 H358 0.956 . S
C378 C377 1.405 1_554 S
C378 C379 1.377 . S
C379 H359 0.950 . S
C379 C375 1.385 1_554 S
C379 C378 1.377 . S
C380 C377 1.499 . S
C380 C381 1.373 . S
C380 C382 1.389 . S
C381 H360 0.950 1_556 S
C381 C380 1.373 . S
C381 C397 1.377 . S
C382 C380 1.389 . S
C382 C383 1.524 . S
C382 C396 1.377 . S
C383 C382 1.524 . S
C383 C384 1.397 . S
C383 C388 1.363 . S
C384 H361 0.950 . S
C384 C383 1.397 . S
C384 C385 1.334 . S
C385 H362 0.950 . S
C385 C384 1.334 . S
C385 C386 1.287 . S
C386 C385 1.287 . S
C386 C387 1.524 . S
C386 H405 0.913 . S
C387 H363 0.950 . S
C387 C386 1.524 . S
C387 C388 1.415 . S
C388 H364 0.950 . S
C388 C383 1.363 . S
C388 C387 1.415 . S
C389 H365 0.951 . S
C389 C390 1.366 . S
C389 C391 1.388 . S
C390 C389 1.366 . S
C390 C394 1.385 . S
C391 H366 0.951 . S
C391 C389 1.388 . S
C391 C392 1.366 . S
C392 C391 1.366 . S
C392 C393 1.414 . S
C392 C395 1.499 . S
C393 H367 0.950 . S
C393 C392 1.414 . S
C393 C394 1.374 . S
C394 H368 0.950 . S
C394 C390 1.385 . S
C394 C393 1.374 . S
C395 C392 1.499 . S
C395 C396 1.373 . S
C395 C397 1.389 . S
C396 H369 0.950 . S
C396 C382 1.377 . S
C396 C395 1.373 . S
C397 C381 1.377 . S
C397 C395 1.389 . S
C397 C398 1.524 1_556 S
C398 C397 1.524 1_554 S
C398 C399 1.397 . S
C398 C403 1.363 . S
C399 H370 0.954 1_554 S
C399 C398 1.397 . S
C399 C400 1.334 . S
C400 H371 0.950 . S
C400 C399 1.334 . S
C400 C401 1.287 . S
C401 C400 1.287 . S
C401 C402 1.524 . S
C401 H404 0.999 . S
C402 H372 0.950 . S
C402 C401 1.524 . S
C402 C403 1.415 . S
C403 H373 0.950 . S
C403 C398 1.363 . S
C403 C402 1.415 . S
H404 C401 0.999 . S
H405 C386 0.913 . S
H406 C424 0.951 . S
H407 C426 0.951 . S
H408 C428 0.950 . S
H409 C429 0.950 . S
H410 C431 0.950 . S
H411 C434 0.950 . S
H412 C435 0.950 . S
H413 C437 0.950 . S
H414 C438 0.950 . S
H415 C439 0.951 . S
H416 C441 0.951 . S
H417 C443 0.950 . S
H418 C444 0.950 . S
H419 C446 0.950 . S
H420 C449 0.950 . S
H421 C450 0.950 . S
H422 C452 0.950 . S
H423 C453 0.950 . S
C424 H406 0.951 . S
C424 C425 1.366 . S
C424 C426 1.388 . S
C425 C424 1.366 . S
C425 C429 1.385 . S
C426 H407 0.951 . S
C426 C424 1.388 . S
C426 C427 1.366 . S
C427 C426 1.366 . S
C427 C428 1.414 . S
C427 C430 1.499 . S
C428 H408 0.950 . S
C428 C427 1.414 . S
C428 C429 1.374 . S
C429 H409 0.950 . S
C429 C425 1.385 . S
C429 C428 1.374 . S
C430 C427 1.499 . S
C430 C431 1.373 . S
C430 C432 1.389 . S
C431 H410 0.950 . S
C431 C430 1.373 . S
C431 C447 1.377 . S
C432 C430 1.389 . S
C432 C433 1.524 . S
C432 C446 1.377 . S
C433 C432 1.524 . S
C433 C434 1.397 . S
C433 C438 1.363 . S
C434 H411 0.950 . S
C434 C433 1.397 . S
C434 C435 1.334 . S
C435 H412 0.950 . S
C435 C434 1.334 . S
C435 C436 1.287 . S
C436 C435 1.287 . S
C436 C437 1.524 . S
C436 H455 0.913 . S
C437 H413 0.950 . S
C437 C436 1.524 . S
C437 C438 1.415 . S
C438 H414 0.950 . S
C438 C433 1.363 . S
C438 C437 1.415 . S
C439 H415 0.951 . S
C439 C440 1.366 . S
C439 C441 1.388 . S
C440 C439 1.366 . S
C440 C444 1.385 . S
C441 H416 0.951 . S
C441 C439 1.388 . S
C441 C442 1.366 . S
C442 C441 1.366 . S
C442 C443 1.414 . S
C442 C445 1.499 . S
C443 H417 0.950 . S
C443 C442 1.414 . S
C443 C444 1.374 . S
C444 H418 0.950 . S
C444 C440 1.385 . S
C444 C443 1.374 . S
C445 C442 1.499 . S
C445 C446 1.373 . S
C445 C447 1.389 . S
C446 H419 0.950 . S
C446 C432 1.377 . S
C446 C445 1.373 . S
C447 C431 1.377 . S
C447 C445 1.389 . S
C447 C448 1.524 . S
C448 C447 1.524 . S
C448 C449 1.397 . S
C448 C453 1.363 . S
C449 H420 0.950 . S
C449 C448 1.397 . S
C449 C450 1.334 . S
C450 H421 0.950 . S
C450 C449 1.334 . S
C450 C451 1.287 . S
C451 C450 1.287 . S
C451 C452 1.524 . S
C451 H454 0.999 . S
C452 H422 0.950 . S
C452 C451 1.524 . S
C452 C453 1.415 . S
C453 H423 0.950 . S
C453 C448 1.363 . S
C453 C452 1.415 . S
H454 C451 0.999 . S
H455 C436 0.913 . S
H456 C474 0.951 . S
H457 C476 0.951 . S
H458 C478 0.950 . S
H459 C479 0.950 . S
H460 C481 0.950 . S
H461 C484 0.950 . S
H462 C485 0.950 . S
H463 C487 0.950 . S
H464 C488 0.950 . S
H465 C489 0.951 . S
H466 C491 0.951 . S
H467 C493 0.950 . S
H468 C494 0.950 . S
H469 C496 0.950 . S
H470 C499 0.950 . S
H471 C500 0.950 . S
H472 C502 0.950 . S
H473 C503 0.950 . S
C474 H456 0.951 . S
C474 C475 1.366 . S
C474 C476 1.388 . S
C475 C474 1.366 . S
C475 C479 1.385 . S
C476 H457 0.951 . S
C476 C474 1.388 . S
C476 C477 1.366 . S
C477 C476 1.366 . S
C477 C478 1.414 . S
C477 C480 1.499 . S
C478 H458 0.950 . S
C478 C477 1.414 . S
C478 C479 1.374 . S
C479 H459 0.950 . S
C479 C475 1.385 . S
C479 C478 1.374 . S
C480 C477 1.499 . S
C480 C481 1.373 . S
C480 C482 1.389 . S
C481 H460 0.950 . S
C481 C480 1.373 . S
C481 C497 1.377 . S
C482 C480 1.389 . S
C482 C483 1.524 . S
C482 C496 1.377 . S
C483 C482 1.524 . S
C483 C484 1.397 . S
C483 C488 1.363 . S
C484 H461 0.950 . S
C484 C483 1.397 . S
C484 C485 1.334 . S
C485 H462 0.950 . S
C485 C484 1.334 . S
C485 C486 1.287 . S
C486 C485 1.287 . S
C486 C487 1.524 . S
C486 H505 0.913 . S
C487 H463 0.950 . S
C487 C486 1.524 . S
C487 C488 1.415 . S
C488 H464 0.950 . S
C488 C483 1.363 . S
C488 C487 1.415 . S
C489 H465 0.951 . S
C489 C490 1.366 . S
C489 C491 1.388 . S
C490 C489 1.366 . S
C490 C494 1.385 . S
C491 H466 0.951 . S
C491 C489 1.388 . S
C491 C492 1.366 . S
C492 C491 1.366 . S
C492 C493 1.414 . S
C492 C495 1.499 . S
C493 H467 0.950 . S
C493 C492 1.414 . S
C493 C494 1.374 . S
C494 H468 0.950 . S
C494 C490 1.385 . S
C494 C493 1.374 . S
C495 C492 1.499 . S
C495 C496 1.373 . S
C495 C497 1.389 . S
C496 H469 0.950 . S
C496 C482 1.377 . S
C496 C495 1.373 . S
C497 C481 1.377 . S
C497 C495 1.389 . S
C497 C498 1.524 . S
C498 C497 1.524 . S
C498 C499 1.397 . S
C498 C503 1.363 . S
C499 H470 0.950 . S
C499 C498 1.397 . S
C499 C500 1.334 . S
C500 H471 0.950 . S
C500 C499 1.334 . S
C500 C501 1.287 . S
C501 C500 1.287 . S
C501 C502 1.524 . S
C501 H504 0.999 . S
C502 H472 0.950 . S
C502 C501 1.524 . S
C502 C503 1.415 . S
C503 H473 0.950 . S
C503 C498 1.363 . S
C503 C502 1.415 . S
H504 C501 0.999 . S
H505 C486 0.913 . S
H506 C524 0.951 . S
H507 C526 0.951 . S
H508 C528 0.950 . S
H509 C529 0.950 . S
H510 C531 0.950 . S
H511 C534 0.950 . S
H512 C535 0.950 . S
H513 C537 0.950 . S
H514 C538 0.950 . S
H515 C539 0.951 . S
H516 C541 0.951 . S
H517 C543 0.950 . S
H518 C544 0.950 . S
H519 C546 0.950 . S
H520 C549 0.950 . S
H521 C550 0.950 . S
H522 C552 0.950 . S
H523 C553 0.950 . S
C524 H506 0.951 . S
C524 C525 1.366 . S
C524 C526 1.388 . S
C525 C524 1.366 . S
C525 C529 1.385 . S
C526 H507 0.951 . S
C526 C524 1.388 . S
C526 C527 1.366 . S
C527 C526 1.366 . S
C527 C528 1.414 . S
C527 C530 1.499 . S
C528 H508 0.950 . S
C528 C527 1.414 . S
C528 C529 1.374 . S
C529 H509 0.950 . S
C529 C525 1.385 . S
C529 C528 1.374 . S
C530 C527 1.499 . S
C530 C531 1.373 . S
C530 C532 1.389 . S
C531 H510 0.950 . S
C531 C530 1.373 . S
C531 C547 1.377 . S
C532 C530 1.389 . S
C532 C533 1.524 . S
C532 C546 1.377 . S
C533 C532 1.524 . S
C533 C534 1.397 . S
C533 C538 1.363 . S
C534 H511 0.950 . S
C534 C533 1.397 . S
C534 C535 1.334 . S
C535 H512 0.950 . S
C535 C534 1.334 . S
C535 C536 1.287 . S
C536 C535 1.287 . S
C536 C537 1.524 . S
C536 H555 0.913 . S
C537 H513 0.950 . S
C537 C536 1.524 . S
C537 C538 1.415 . S
C538 H514 0.950 . S
C538 C533 1.363 . S
C538 C537 1.415 . S
C539 H515 0.951 . S
C539 C540 1.366 . S
C539 C541 1.388 . S
C540 C539 1.366 . S
C540 C544 1.385 . S
C541 H516 0.951 . S
C541 C539 1.388 . S
C541 C542 1.366 . S
C542 C541 1.366 . S
C542 C543 1.414 . S
C542 C545 1.499 . S
C543 H517 0.950 . S
C543 C542 1.414 . S
C543 C544 1.374 . S
C544 H518 0.950 . S
C544 C540 1.385 . S
C544 C543 1.374 . S
C545 C542 1.499 . S
C545 C546 1.373 . S
C545 C547 1.389 . S
C546 H519 0.950 . S
C546 C532 1.377 . S
C546 C545 1.373 . S
C547 C531 1.377 . S
C547 C545 1.389 . S
C547 C548 1.524 . S
C548 C547 1.524 . S
C548 C549 1.397 . S
C548 C553 1.363 . S
C549 H520 0.950 . S
C549 C548 1.397 . S
C549 C550 1.334 . S
C550 H521 0.950 . S
C550 C549 1.334 . S
C550 C551 1.287 . S
C551 C550 1.287 . S
C551 C552 1.524 . S
C551 H554 0.999 . S
C552 H522 0.950 . S
C552 C551 1.524 . S
C552 C553 1.415 . S
C553 H523 0.950 . S
C553 C548 1.363 . S
C553 C552 1.415 . S
H554 C551 0.999 . S
H555 C536 0.913 . S
H556 C574 0.951 . S
H557 C576 0.951 . S
H558 C578 0.950 . S
H559 C579 0.950 . S
H560 C581 0.950 . S
H561 C584 0.950 . S
H562 C585 0.950 . S
H563 C587 0.950 . S
H564 C588 0.950 . S
H565 C589 0.951 . S
H566 C591 0.951 . S
H567 C593 0.950 . S
H568 C594 0.950 . S
H569 C596 0.950 . S
H570 C599 0.950 . S
H571 C600 0.950 . S
H572 C602 0.950 . S
H573 C603 0.950 . S
C574 H556 0.951 . S
C574 C575 1.366 . S
C574 C576 1.388 . S
C575 C574 1.366 . S
C575 C579 1.385 . S
C576 H557 0.951 . S
C576 C574 1.388 . S
C576 C577 1.366 . S
C577 C576 1.366 . S
C577 C578 1.414 . S
C577 C580 1.499 . S
C578 H558 0.950 . S
C578 C577 1.414 . S
C578 C579 1.374 . S
C579 H559 0.950 . S
C579 C575 1.385 . S
C579 C578 1.374 . S
C580 C577 1.499 . S
C580 C581 1.373 . S
C580 C582 1.389 . S
C581 H560 0.950 . S
C581 C580 1.373 . S
C581 C597 1.377 . S
C582 C580 1.389 . S
C582 C583 1.524 . S
C582 C596 1.377 . S
C583 C582 1.524 . S
C583 C584 1.397 . S
C583 C588 1.363 . S
C584 H561 0.950 . S
C584 C583 1.397 . S
C584 C585 1.334 . S
C585 H562 0.950 . S
C585 C584 1.334 . S
C585 C586 1.287 . S
C586 C585 1.287 . S
C586 C587 1.524 . S
C586 H605 0.913 . S
C587 H563 0.950 . S
C587 C586 1.524 . S
C587 C588 1.415 . S
C588 H564 0.950 . S
C588 C583 1.363 . S
C588 C587 1.415 . S
C589 H565 0.951 . S
C589 C590 1.366 . S
C589 C591 1.388 . S
C590 C589 1.366 . S
C590 C594 1.385 . S
C591 H566 0.951 . S
C591 C589 1.388 . S
C591 C592 1.366 . S
C592 C591 1.366 . S
C592 C593 1.414 . S
C592 C595 1.499 . S
C593 H567 0.950 . S
C593 C592 1.414 . S
C593 C594 1.374 . S
C594 H568 0.950 . S
C594 C590 1.385 . S
C594 C593 1.374 . S
C595 C592 1.499 . S
C595 C596 1.373 . S
C595 C597 1.389 . S
C596 H569 0.950 . S
C596 C582 1.377 . S
C596 C595 1.373 . S
C597 C581 1.377 . S
C597 C595 1.389 . S
C597 C598 1.524 . S
C598 C597 1.524 . S
C598 C599 1.397 . S
C598 C603 1.363 . S
C599 H570 0.950 . S
C599 C598 1.397 . S
C599 C600 1.334 . S
C600 H571 0.950 . S
C600 C599 1.334 . S
C600 C601 1.287 . S
C601 C600 1.287 . S
C601 C602 1.524 . S
C601 H604 0.999 . S
C602 H572 0.950 . S
C602 C601 1.524 . S
C602 C603 1.415 . S
C603 H573 0.950 . S
C603 C598 1.363 . S
C603 C602 1.415 . S
H604 C601 0.999 . S
H605 C586 0.913 . S
H606 C624 0.951 . S
H607 C626 0.951 . S
H608 C628 0.950 . S
H609 C629 0.950 . S
H610 C631 0.950 . S
H611 C634 0.950 . S
H612 C635 0.950 . S
H613 C637 0.950 . S
H614 C638 0.950 . S
H615 C639 0.951 . S
H616 C641 0.951 . S
H617 C643 0.950 . S
H618 C644 0.950 . S
H619 C646 0.950 . S
H620 C649 0.950 . S
H621 C650 0.950 . S
H622 C652 0.950 . S
H623 C653 0.950 . S
C624 H606 0.951 . S
C624 C625 1.366 1_565 S
C624 C626 1.388 . S
C625 C624 1.366 1_545 S
C625 C629 1.385 1_455 S
C626 H607 0.951 . S
C626 C624 1.388 . S
C626 C627 1.366 1_565 S
C627 C626 1.366 1_545 S
C627 C628 1.414 1_455 S
C627 C630 1.499 . S
C628 H608 0.950 . S
C628 C627 1.414 1_655 S
C628 C629 1.374 . S
C629 H609 0.950 . S
C629 C625 1.385 1_655 S
C629 C628 1.374 . S
C630 C627 1.499 . S
C630 C631 1.373 . S
C630 C632 1.390 1_545 S
C631 H610 0.950 . S
C631 C630 1.373 . S
C631 C647 1.377 . S
C632 C630 1.390 1_565 S
C632 C633 1.523 1_455 S
C632 C646 1.377 . S
C633 C632 1.523 1_655 S
C633 C634 1.397 . S
C633 C638 1.363 1_655 S
C634 H611 0.950 . S
C634 C633 1.397 . S
C634 C635 1.334 . S
C635 H612 0.950 . S
C635 C634 1.334 . S
C635 C636 1.287 . S
C636 C635 1.287 . S
C636 C637 1.524 1_655 S
C636 H655 0.913 . S
C637 H613 0.950 . S
C637 C636 1.524 1_455 S
C637 C638 1.415 . S
C638 H614 0.950 . S
C638 C633 1.363 1_455 S
C638 C637 1.415 . S
C639 H615 0.951 . S
C639 C640 1.388 . S
C639 C641 1.388 . S
C640 C639 1.388 . S
C640 C644 1.363 1_645 S
C641 H616 0.951 . S
C641 C639 1.388 . S
C641 C642 1.366 1_655 S
C642 C641 1.366 1_455 S
C642 C643 1.414 1_545 S
C642 C645 1.499 . S
C643 H617 0.950 . S
C643 C642 1.414 1_565 S
C643 C644 1.374 . S
C644 H618 0.950 . S
C644 C640 1.363 1_465 S
C644 C643 1.374 . S
C645 C642 1.499 . S
C645 C646 1.373 1_545 S
C645 C647 1.389 . S
C646 H619 0.950 . S
C646 C632 1.377 . S
C646 C645 1.373 1_565 S
C647 C631 1.377 . S
C647 C645 1.389 . S
C647 C648 1.524 . S
C648 C647 1.524 . S
C648 C649 1.397 . S
C648 C653 1.363 1_455 S
C649 H620 0.950 . S
C649 C648 1.397 . S
C649 C650 1.334 . S
C650 H621 0.950 . S
C650 C649 1.334 . S
C650 C651 1.287 . S
C651 C650 1.287 . S
C651 C652 1.524 1_455 S
C651 H654 0.999 . S
C652 H622 0.950 . S
C652 C651 1.524 1_655 S
C652 C653 1.415 . S
C653 H623 0.950 . S
C653 C648 1.363 1_655 S
C653 C652 1.415 . S
H654 C651 0.999 . S
H655 C636 0.913 . S
H656 C674 0.951 . S
H657 C676 0.951 . S
H658 C678 0.950 . S
H659 C679 0.950 . S
H660 C681 0.950 . S
H661 C684 0.950 . S
H662 C685 0.950 . S
H663 C687 0.950 . S
H664 C688 0.950 . S
H665 C689 0.951 . S
H666 C691 0.951 . S
H667 C693 0.950 . S
H668 C694 0.950 . S
H669 C696 0.950 . S
H670 C699 0.950 . S
H671 C700 0.950 . S
H672 C702 0.950 . S
H673 C703 0.950 . S
C674 H656 0.951 . S
C674 C675 1.366 1_665 S
C674 C676 1.388 . S
C675 C674 1.366 1_445 S
C675 C679 1.385 . S
C676 H657 0.951 . S
C676 C674 1.388 . S
C676 C677 1.366 1_665 S
C677 C676 1.366 1_445 S
C677 C678 1.414 . S
C677 C680 1.499 . S
C678 H658 0.950 . S
C678 C677 1.414 . S
C678 C679 1.374 . S
C679 H659 0.950 . S
C679 C675 1.385 . S
C679 C678 1.374 . S
C680 C677 1.499 . S
C680 C681 1.373 . S
C680 C682 1.389 1_545 S
C681 H660 0.950 . S
C681 C680 1.373 . S
C681 C697 1.377 . S
C682 C680 1.389 1_565 S
C682 C683 1.524 . S
C682 C696 1.377 . S
C683 C682 1.524 . S
C683 C684 1.397 . S
C683 C688 1.363 1_455 S
C684 H661 0.950 . S
C684 C683 1.397 . S
C684 C685 1.334 . S
C685 H662 0.950 . S
C685 C684 1.334 . S
C685 C686 1.287 . S
C686 C685 1.287 . S
C686 C687 1.524 1_455 S
C686 H705 0.913 . S
C687 H663 0.950 . S
C687 C686 1.524 1_655 S
C687 C688 1.415 . S
C688 H664 0.950 . S
C688 C683 1.363 1_655 S
C688 C687 1.415 . S
C689 H665 0.951 . S
C689 C690 1.366 . S
C689 C691 1.388 . S
C690 C689 1.366 . S
C690 C694 1.385 1_445 S
C691 H666 0.951 . S
C691 C689 1.388 . S
C691 C692 1.366 . S
C692 C691 1.366 . S
C692 C693 1.414 1_445 S
C692 C695 1.499 . S
C693 H667 0.950 . S
C693 C692 1.414 1_665 S
C693 C694 1.374 . S
C694 H668 0.950 . S
C694 C690 1.385 1_665 S
C694 C693 1.374 . S
C695 C692 1.499 . S
C695 C696 1.373 1_545 S
C695 C697 1.389 . S
C696 H669 0.950 . S
C696 C682 1.377 . S
C696 C695 1.373 1_565 S
C697 C681 1.377 . S
C697 C695 1.389 . S
C697 C698 1.524 . S
C698 C697 1.524 . S
C698 C699 1.397 1_455 S
C698 C703 1.363 . S
C699 H670 0.950 . S
C699 C698 1.397 1_655 S
C699 C700 1.334 . S
C700 H671 0.950 . S
C700 C699 1.334 . S
C700 C701 1.287 1_655 S
C701 C700 1.287 1_455 S
C701 C702 1.524 . S
C701 H704 0.999 . S
C702 H672 0.950 . S
C702 C701 1.524 . S
C702 C703 1.415 . S
C703 H673 0.950 . S
C703 C698 1.363 . S
C703 C702 1.415 . S
H704 C701 0.999 . S
H705 C686 0.913 . S
H706 C724 0.951 . S
H707 C726 0.951 . S
H708 C728 0.950 . S
H709 C729 0.950 . S
H710 C731 0.950 . S
H711 C734 0.950 . S
H712 C735 0.950 . S
H713 C737 0.950 . S
H714 C738 0.950 . S
H715 C739 0.951 . S
H716 C741 0.951 . S
H717 C743 0.950 . S
H718 C744 0.950 . S
H719 C746 0.950 . S
H720 C749 0.950 . S
H721 C750 0.950 . S
H722 C752 0.950 . S
H723 C753 0.950 . S
C724 H706 0.951 . S
C724 C725 1.366 . S
C724 C726 1.388 . S
C725 C724 1.366 . S
C725 C729 1.385 . S
C726 H707 0.951 . S
C726 C724 1.388 . S
C726 C727 1.366 . S
C727 C726 1.366 . S
C727 C728 1.414 . S
C727 C730 1.499 . S
C728 H708 0.950 . S
C728 C727 1.414 . S
C728 C729 1.374 . S
C729 H709 0.950 . S
C729 C725 1.385 . S
C729 C728 1.374 . S
C730 C727 1.499 . S
C730 C731 1.373 . S
C730 C732 1.389 . S
C731 H710 0.950 . S
C731 C730 1.373 . S
C731 C747 1.377 . S
C732 C730 1.389 . S
C732 C733 1.524 . S
C732 C746 1.377 . S
C733 C732 1.524 . S
C733 C734 1.397 . S
C733 C738 1.363 . S
C734 H711 0.950 . S
C734 C733 1.397 . S
C734 C735 1.334 . S
C735 H712 0.950 . S
C735 C734 1.334 . S
C735 C736 1.287 . S
C736 C735 1.287 . S
C736 C737 1.524 . S
C736 H755 0.913 . S
C737 H713 0.950 . S
C737 C736 1.524 . S
C737 C738 1.415 . S
C738 H714 0.950 . S
C738 C733 1.363 . S
C738 C737 1.415 . S
C739 H715 0.951 . S
C739 C740 1.366 . S
C739 C741 1.388 . S
C740 C739 1.366 . S
C740 C744 1.385 . S
C741 H716 0.951 . S
C741 C739 1.388 . S
C741 C742 1.366 . S
C742 C741 1.366 . S
C742 C743 1.414 . S
C742 C745 1.499 . S
C743 H717 0.950 . S
C743 C742 1.414 . S
C743 C744 1.374 . S
C744 H718 0.950 . S
C744 C740 1.385 . S
C744 C743 1.374 . S
C745 C742 1.499 . S
C745 C746 1.373 . S
C745 C747 1.389 . S
C746 H719 0.950 . S
C746 C732 1.377 . S
C746 C745 1.373 . S
C747 C731 1.377 . S
C747 C745 1.389 . S
C747 C748 1.524 . S
C748 C747 1.524 . S
C748 C749 1.397 . S
C748 C753 1.363 . S
C749 H720 0.950 . S
C749 C748 1.397 . S
C749 C750 1.334 . S
C750 H721 0.950 . S
C750 C749 1.334 . S
C750 C751 1.287 . S
C751 C750 1.287 . S
C751 C752 1.524 . S
C751 H754 0.999 . S
C752 H722 0.950 . S
C752 C751 1.524 . S
C752 C753 1.415 . S
C753 H723 0.950 . S
C753 C748 1.363 . S
C753 C752 1.415 . S
H754 C751 0.999 . S
H755 C736 0.913 . S
H756 C774 0.951 . S
H757 C776 0.951 . S
H758 C778 0.950 . S
H759 C779 0.950 . S
H760 C781 0.950 . S
H761 C784 0.950 . S
H762 C785 0.950 . S
H763 C787 0.950 . S
H764 C788 0.950 . S
H765 C789 0.951 . S
H766 C791 0.951 . S
H767 C793 0.950 . S
H768 C794 0.950 . S
H769 C796 0.950 . S
H770 C799 0.950 . S
H771 C800 0.950 . S
H772 C802 0.950 . S
H773 C803 0.950 . S
C774 H756 0.951 . S
C774 C775 1.366 . S
C774 C776 1.388 . S
C775 C774 1.366 . S
C775 C779 1.385 . S
C776 H757 0.951 . S
C776 C774 1.388 . S
C776 C777 1.366 . S
C777 C776 1.366 . S
C777 C778 1.414 . S
C777 C780 1.499 . S
C778 H758 0.950 . S
C778 C777 1.414 . S
C778 C779 1.374 . S
C779 H759 0.950 . S
C779 C775 1.385 . S
C779 C778 1.374 . S
C780 C777 1.499 . S
C780 C781 1.373 . S
C780 C782 1.389 . S
C781 H760 0.950 . S
C781 C780 1.373 . S
C781 C797 1.377 . S
C782 C780 1.389 . S
C782 C783 1.524 . S
C782 C796 1.377 . S
C783 C782 1.524 . S
C783 C784 1.397 . S
C783 C788 1.363 . S
C784 H761 0.950 . S
C784 C783 1.397 . S
C784 C785 1.334 . S
C785 H762 0.950 . S
C785 C784 1.334 . S
C785 C786 1.287 . S
C786 C785 1.287 . S
C786 C787 1.524 . S
C786 H805 0.913 . S
C787 H763 0.950 . S
C787 C786 1.524 . S
C787 C788 1.415 . S
C788 H764 0.950 . S
C788 C783 1.363 . S
C788 C787 1.415 . S
C789 H765 0.951 . S
C789 C790 1.366 . S
C789 C791 1.388 . S
C790 C789 1.366 . S
C790 C794 1.385 . S
C791 H766 0.951 . S
C791 C789 1.388 . S
C791 C792 1.366 . S
C792 C791 1.366 . S
C792 C793 1.414 . S
C792 C795 1.499 . S
C793 H767 0.950 . S
C793 C792 1.414 . S
C793 C794 1.374 . S
C794 H768 0.950 . S
C794 C790 1.385 . S
C794 C793 1.374 . S
C795 C792 1.499 . S
C795 C796 1.373 . S
C795 C797 1.389 . S
C796 H769 0.950 . S
C796 C782 1.377 . S
C796 C795 1.373 . S
C797 C781 1.377 . S
C797 C795 1.389 . S
C797 C798 1.524 . S
C798 C797 1.524 . S
C798 C799 1.397 . S
C798 C803 1.363 . S
C799 H770 0.950 . S
C799 C798 1.397 . S
C799 C800 1.334 . S
C800 H771 0.950 . S
C800 C799 1.334 . S
C800 C801 1.287 . S
C801 C800 1.287 . S
C801 C802 1.524 . S
C801 H804 0.999 . S
C802 H772 0.950 . S
C802 C801 1.524 . S
C802 C803 1.415 . S
C803 H773 0.950 . S
C803 C798 1.363 . S
C803 C802 1.415 . S
H804 C801 0.999 . S
H805 C786 0.913 . S
C240 C168 1.431 . S
C225 C21 1.431 . S
C275 C19 1.418 1_556 S
C290 C128 1.419 . S
C325 C18 1.382 . S
C340 C181 1.386 . S
C375 C20 1.408 1_556 S
C390 C141 1.403 . S
C425 C44 1.431 . S
C440 C88 1.431 . S
C475 C42 1.418 . S
C490 C48 1.419 . S
C540 C101 1.386 . S
C525 C41 1.382 . S
C590 C61 1.403 . S
C575 C43 1.408 . S
C625 C16 1.490 . S
C640 C67 1.480 1_655 S
C675 C17 1.448 . S
C690 C107 1.438 1_545 S
C740 C147 1.477 . S
C725 C39 1.490 . S
C775 C40 1.448 . S
C790 C187 1.439 . S
