# Generated by pormake.
# Topology llk, (3,12)-cn, num edge types: 1
# Building blocks:
#     Node 0, Type 0, BuildingBlock: WUSLED_clean_sbu_0, # of connection points: 3
#     Node 1, Type 0, BuildingBlock: WUSLED_clean_sbu_0, # of connection points: 3
#     Node 2, Type 0, BuildingBlock: WUSLED_clean_sbu_0, # of connection points: 3
#     Node 3, Type 0, BuildingBlock: WUSLED_clean_sbu_0, # of connection points: 3
#     Node 4, Type 0, BuildingBlock: WUSLED_clean_sbu_0, # of connection points: 3
#     Node 5, Type 0, BuildingBlock: WUSLED_clean_sbu_0, # of connection points: 3
#     Node 6, Type 0, BuildingBlock: WUSLED_clean_sbu_0, # of connection points: 3
#     Node 7, Type 0, BuildingBlock: WUSLED_clean_sbu_0, # of connection points: 3
#     Node 8, Type 0, BuildingBlock: WUSLED_clean_sbu_0, # of connection points: 3
#     Node 9, Type 0, BuildingBlock: WUSLED_clean_sbu_0, # of connection points: 3
#     Node 10, Type 0, BuildingBlock: WUSLED_clean_sbu_0, # of connection points: 3
#     Node 11, Type 0, BuildingBlock: WUSLED_clean_sbu_0, # of connection points: 3
#     Node 12, Type 0, BuildingBlock: WUSLED_clean_sbu_0, # of connection points: 3
#     Node 13, Type 0, BuildingBlock: WUSLED_clean_sbu_0, # of connection points: 3
#     Node 14, Type 0, BuildingBlock: WUSLED_clean_sbu_0, # of connection points: 3
#     Node 15, Type 0, BuildingBlock: WUSLED_clean_sbu_0, # of connection points: 3
#     Node 16, Type 0, BuildingBlock: WUSLED_clean_sbu_0, # of connection points: 3
#     Node 17, Type 0, BuildingBlock: WUSLED_clean_sbu_0, # of connection points: 3
#     Node 18, Type 0, BuildingBlock: WUSLED_clean_sbu_0, # of connection points: 3
#     Node 19, Type 0, BuildingBlock: WUSLED_clean_sbu_0, # of connection points: 3
#     Node 20, Type 0, BuildingBlock: WUSLED_clean_sbu_0, # of connection points: 3
#     Node 21, Type 0, BuildingBlock: WUSLED_clean_sbu_0, # of connection points: 3
#     Node 22, Type 0, BuildingBlock: WUSLED_clean_sbu_0, # of connection points: 3
#     Node 23, Type 0, BuildingBlock: WUSLED_clean_sbu_0, # of connection points: 3
#     Node 24, Type 1, BuildingBlock: QEWDON_clean_sbu_0, # of connection points: 12
#     Node 25, Type 1, BuildingBlock: QEWDON_clean_sbu_0, # of connection points: 12
#     Node 26, Type 1, BuildingBlock: QEWDON_clean_sbu_0, # of connection points: 12
#     Node 27, Type 1, BuildingBlock: QEWDON_clean_sbu_0, # of connection points: 12
#     Node 28, Type 1, BuildingBlock: QEWDON_clean_sbu_0, # of connection points: 12
#     Node 29, Type 1, BuildingBlock: QEWDON_clean_sbu_0, # of connection points: 12
#     Edge 30, Type (0, 1), BuildingBlock: CIFDUS_clean_linker_0, # of connection points: 2
#     Edge 31, Type (0, 1), BuildingBlock: CIFDUS_clean_linker_0, # of connection points: 2
#     Edge 32, Type (0, 1), BuildingBlock: CIFDUS_clean_linker_0, # of connection points: 2
#     Edge 33, Type (0, 1), BuildingBlock: CIFDUS_clean_linker_0, # of connection points: 2
#     Edge 34, Type (0, 1), BuildingBlock: CIFDUS_clean_linker_0, # of connection points: 2
#     Edge 35, Type (0, 1), BuildingBlock: CIFDUS_clean_linker_0, # of connection points: 2
#     Edge 36, Type (0, 1), BuildingBlock: CIFDUS_clean_linker_0, # of connection points: 2
#     Edge 37, Type (0, 1), BuildingBlock: CIFDUS_clean_linker_0, # of connection points: 2
#     Edge 38, Type (0, 1), BuildingBlock: CIFDUS_clean_linker_0, # of connection points: 2
#     Edge 39, Type (0, 1), BuildingBlock: CIFDUS_clean_linker_0, # of connection points: 2
#     Edge 40, Type (0, 1), BuildingBlock: CIFDUS_clean_linker_0, # of connection points: 2
#     Edge 41, Type (0, 1), BuildingBlock: CIFDUS_clean_linker_0, # of connection points: 2
#     Edge 42, Type (0, 1), BuildingBlock: CIFDUS_clean_linker_0, # of connection points: 2
#     Edge 43, Type (0, 1), BuildingBlock: CIFDUS_clean_linker_0, # of connection points: 2
#     Edge 44, Type (0, 1), BuildingBlock: CIFDUS_clean_linker_0, # of connection points: 2
#     Edge 45, Type (0, 1), BuildingBlock: CIFDUS_clean_linker_0, # of connection points: 2
#     Edge 46, Type (0, 1), BuildingBlock: CIFDUS_clean_linker_0, # of connection points: 2
#     Edge 47, Type (0, 1), BuildingBlock: CIFDUS_clean_linker_0, # of connection points: 2
#     Edge 48, Type (0, 1), BuildingBlock: CIFDUS_clean_linker_0, # of connection points: 2
#     Edge 49, Type (0, 1), BuildingBlock: CIFDUS_clean_linker_0, # of connection points: 2
#     Edge 50, Type (0, 1), BuildingBlock: CIFDUS_clean_linker_0, # of connection points: 2
#     Edge 51, Type (0, 1), BuildingBlock: CIFDUS_clean_linker_0, # of connection points: 2
#     Edge 52, Type (0, 1), BuildingBlock: CIFDUS_clean_linker_0, # of connection points: 2
#     Edge 53, Type (0, 1), BuildingBlock: CIFDUS_clean_linker_0, # of connection points: 2
#     Edge 54, Type (0, 1), BuildingBlock: CIFDUS_clean_linker_0, # of connection points: 2
#     Edge 55, Type (0, 1), BuildingBlock: CIFDUS_clean_linker_0, # of connection points: 2
#     Edge 56, Type (0, 1), BuildingBlock: CIFDUS_clean_linker_0, # of connection points: 2
#     Edge 57, Type (0, 1), BuildingBlock: CIFDUS_clean_linker_0, # of connection points: 2
#     Edge 58, Type (0, 1), BuildingBlock: CIFDUS_clean_linker_0, # of connection points: 2
#     Edge 59, Type (0, 1), BuildingBlock: CIFDUS_clean_linker_0, # of connection points: 2
#     Edge 60, Type (0, 1), BuildingBlock: CIFDUS_clean_linker_0, # of connection points: 2
#     Edge 61, Type (0, 1), BuildingBlock: CIFDUS_clean_linker_0, # of connection points: 2
#     Edge 62, Type (0, 1), BuildingBlock: CIFDUS_clean_linker_0, # of connection points: 2
#     Edge 63, Type (0, 1), BuildingBlock: CIFDUS_clean_linker_0, # of connection points: 2
#     Edge 64, Type (0, 1), BuildingBlock: CIFDUS_clean_linker_0, # of connection points: 2
#     Edge 65, Type (0, 1), BuildingBlock: CIFDUS_clean_linker_0, # of connection points: 2
#     Edge 66, Type (0, 1), BuildingBlock: CIFDUS_clean_linker_0, # of connection points: 2
#     Edge 67, Type (0, 1), BuildingBlock: CIFDUS_clean_linker_0, # of connection points: 2
#     Edge 68, Type (0, 1), BuildingBlock: CIFDUS_clean_linker_0, # of connection points: 2
#     Edge 69, Type (0, 1), BuildingBlock: CIFDUS_clean_linker_0, # of connection points: 2
#     Edge 70, Type (0, 1), BuildingBlock: CIFDUS_clean_linker_0, # of connection points: 2
#     Edge 71, Type (0, 1), BuildingBlock: CIFDUS_clean_linker_0, # of connection points: 2
#     Edge 72, Type (0, 1), BuildingBlock: CIFDUS_clean_linker_0, # of connection points: 2
#     Edge 73, Type (0, 1), BuildingBlock: CIFDUS_clean_linker_0, # of connection points: 2
#     Edge 74, Type (0, 1), BuildingBlock: CIFDUS_clean_linker_0, # of connection points: 2
#     Edge 75, Type (0, 1), BuildingBlock: CIFDUS_clean_linker_0, # of connection points: 2
#     Edge 76, Type (0, 1), BuildingBlock: CIFDUS_clean_linker_0, # of connection points: 2
#     Edge 77, Type (0, 1), BuildingBlock: CIFDUS_clean_linker_0, # of connection points: 2
#     Edge 78, Type (0, 1), BuildingBlock: CIFDUS_clean_linker_0, # of connection points: 2
#     Edge 79, Type (0, 1), BuildingBlock: CIFDUS_clean_linker_0, # of connection points: 2
#     Edge 80, Type (0, 1), BuildingBlock: CIFDUS_clean_linker_0, # of connection points: 2
#     Edge 81, Type (0, 1), BuildingBlock: CIFDUS_clean_linker_0, # of connection points: 2
#     Edge 82, Type (0, 1), BuildingBlock: CIFDUS_clean_linker_0, # of connection points: 2
#     Edge 83, Type (0, 1), BuildingBlock: CIFDUS_clean_linker_0, # of connection points: 2
#     Edge 84, Type (0, 1), BuildingBlock: CIFDUS_clean_linker_0, # of connection points: 2
#     Edge 85, Type (0, 1), BuildingBlock: CIFDUS_clean_linker_0, # of connection points: 2
#     Edge 86, Type (0, 1), BuildingBlock: CIFDUS_clean_linker_0, # of connection points: 2
#     Edge 87, Type (0, 1), BuildingBlock: CIFDUS_clean_linker_0, # of connection points: 2
#     Edge 88, Type (0, 1), BuildingBlock: CIFDUS_clean_linker_0, # of connection points: 2
#     Edge 89, Type (0, 1), BuildingBlock: CIFDUS_clean_linker_0, # of connection points: 2
#     Edge 90, Type (0, 1), BuildingBlock: CIFDUS_clean_linker_0, # of connection points: 2
#     Edge 91, Type (0, 1), BuildingBlock: CIFDUS_clean_linker_0, # of connection points: 2
#     Edge 92, Type (0, 1), BuildingBlock: CIFDUS_clean_linker_0, # of connection points: 2
#     Edge 93, Type (0, 1), BuildingBlock: CIFDUS_clean_linker_0, # of connection points: 2
#     Edge 94, Type (0, 1), BuildingBlock: CIFDUS_clean_linker_0, # of connection points: 2
#     Edge 95, Type (0, 1), BuildingBlock: CIFDUS_clean_linker_0, # of connection points: 2
#     Edge 96, Type (0, 1), BuildingBlock: CIFDUS_clean_linker_0, # of connection points: 2
#     Edge 97, Type (0, 1), BuildingBlock: CIFDUS_clean_linker_0, # of connection points: 2
#     Edge 98, Type (0, 1), BuildingBlock: CIFDUS_clean_linker_0, # of connection points: 2
#     Edge 99, Type (0, 1), BuildingBlock: CIFDUS_clean_linker_0, # of connection points: 2
#     Edge 100, Type (0, 1), BuildingBlock: CIFDUS_clean_linker_0, # of connection points: 2
#     Edge 101, Type (0, 1), BuildingBlock: CIFDUS_clean_linker_0, # of connection points: 2
# Relax obj value: 0.122
# Max RMSD: 0.156
# Mean RMSD: 0.140
data_MOF--net-llk--node1-WUSLED_clean_sbu_0--node2-QEWDON_clean_sbu_0--edge1-CIFDUS_clean_linker_0
_symmetry_space_group_name_H-M    P1
_symmetry_Int_Tables_number       1
_symmetry_cell_setting            triclinic
loop_
_symmetry_equiv_pos_as_xyz
'x, y, z'
_cell_length_a     53.897636
_cell_length_b     55.286365
_cell_length_c     54.631223
_cell_angle_alpha  90.217613
_cell_angle_beta   89.94621
_cell_angle_gamma 89.485732
loop_
_atom_site_label
_atom_site_type_symbol
_atom_site_fract_x
_atom_site_fract_y
_atom_site_fract_z
_atom_type_partial_charge
C0 C 0.02561 0.30435 0.19672 0.0
C1 C 0.02387 0.32813 0.2056 0.0
C2 C 0.02861 0.34354 0.1642 0.0
C3 C 0.02544 0.3476 0.18944 0.0
C4 C 0.02966 0.31973 0.15528 0.0
C5 C 0.02831 0.30025 0.17149 0.0
U6 U 0.02959 0.2763 0.26091 0.0
O7 O 0.01036 0.24403 0.27474 0.0
O8 O 0.05106 0.24383 0.27091 0.0
C9 C 0.03113 0.23146 0.27643 0.0
C10 C 0.02598 0.28367 0.21351 0.0
C11 C 0.03329 0.21325 0.2958 0.0
C12 C 0.03346 0.17058 0.3064 0.0
C13 C 0.03112 0.18886 0.28899 0.0
C14 C 0.04064 0.20084 0.33776 0.0
C15 C 0.03833 0.17642 0.33089 0.0
C16 C 0.03809 0.21924 0.32029 0.0
C17 C 0.03416 0.32897 0.31147 0.0
C18 C 0.02872 0.33455 0.35531 0.0
C19 C 0.03632 0.36914 0.32929 0.0
C20 C 0.03776 0.35391 0.30899 0.0
C21 C 0.03137 0.35966 0.35249 0.0
C22 C 0.0301 0.31918 0.3348 0.0
C23 C 0.03242 0.31477 0.28879 0.0
O24 O 0.04714 0.27997 0.22481 0.0
O25 O 0.00664 0.28147 0.22796 0.0
O26 O 0.0113 0.30418 0.28357 0.0
O27 O 0.0522 0.30354 0.28019 0.0
H28 H 0.02182 0.33161 0.22504 0.0
H29 H 0.0245 0.36587 0.19664 0.0
H30 H 0.0323 0.31624 0.13592 0.0
H31 H 0.02984 0.28197 0.16439 0.0
H32 H 0.03137 0.15188 0.30079 0.0
H33 H 0.02754 0.18395 0.2701 0.0
H34 H 0.04397 0.20565 0.35671 0.0
H35 H 0.03981 0.23798 0.32584 0.0
H36 H 0.0245 0.32705 0.37311 0.0
H37 H 0.03794 0.3885 0.32673 0.0
H38 H 0.04065 0.36178 0.29108 0.0
H39 H 0.02711 0.29996 0.33699 0.0
C40 C 0.82751 0.06046 0.28269 0.0
C41 C 0.81901 0.0605 0.30696 0.0
C42 C 0.86127 0.05486 0.32144 0.0
C43 C 0.83579 0.05767 0.3262 0.0
C44 C 0.86976 0.05514 0.29712 0.0
C45 C 0.85292 0.05777 0.27785 0.0
U46 U 0.76123 0.06054 0.25976 0.0
O47 O 0.74403 0.07686 0.22715 0.0
O48 O 0.74654 0.037 0.23066 0.0
C49 C 0.74055 0.05558 0.21689 0.0
C50 C 0.80981 0.06111 0.26239 0.0
C51 C 0.72134 0.05285 0.19817 0.0
C52 C 0.71218 0.04242 0.15604 0.0
C53 C 0.72897 0.04412 0.17528 0.0
C54 C 0.67948 0.05777 0.1825 0.0
C55 C 0.68729 0.04956 0.15922 0.0
C56 C 0.69646 0.05948 0.2019 0.0
C57 C 0.71456 0.05762 0.3157 0.0
C58 C 0.67006 0.06017 0.32225 0.0
C59 C 0.69648 0.04055 0.35218 0.0
C60 C 0.71711 0.04593 0.33816 0.0
C61 C 0.67252 0.04755 0.34463 0.0
C62 C 0.69095 0.06492 0.3077 0.0
C63 C 0.73737 0.0607 0.30153 0.0
O64 O 0.7969 0.04125 0.26004 0.0
O65 O 0.79622 0.08089 0.26043 0.0
O66 O 0.74056 0.08047 0.28859 0.0
O67 O 0.74651 0.04104 0.29128 0.0
H68 H 0.79939 0.06232 0.31096 0.0
H69 H 0.82887 0.05774 0.34483 0.0
H70 H 0.88932 0.05286 0.29304 0.0
H71 H 0.85968 0.05734 0.25916 0.0
H72 H 0.71878 0.03551 0.13862 0.0
H73 H 0.74815 0.03889 0.17215 0.0
H74 H 0.66045 0.06349 0.18553 0.0
H75 H 0.69031 0.06627 0.21953 0.0
H76 H 0.65213 0.06644 0.31588 0.0
H77 H 0.69963 0.03014 0.3686 0.0
H78 H 0.73525 0.04021 0.34461 0.0
H79 H 0.68867 0.07409 0.29036 0.0
C80 C 0.0131 0.84257 0.29038 0.0
C81 C 0.00342 0.83892 0.31394 0.0
C82 C 0.01845 0.8785 0.32668 0.0
C83 C 0.00593 0.85685 0.33193 0.0
C84 C 0.02879 0.88146 0.30322 0.0
C85 C 0.02591 0.86381 0.28525 0.0
U86 U 0.01005 0.77734 0.2668 0.0
O87 O 0.98828 0.76267 0.23597 0.0
O88 O 0.02915 0.76318 0.23408 0.0
C89 C 0.00824 0.75882 0.22257 0.0
C90 C 0.01073 0.82454 0.27079 0.0
C91 C 0.00811 0.73944 0.20411 0.0
C92 C 0.0098 0.72849 0.16088 0.0
C93 C 0.00813 0.74608 0.17929 0.0
C94 C 0.01103 0.69731 0.19194 0.0
C95 C 0.0115 0.70399 0.1671 0.0
C96 C 0.00927 0.71493 0.21038 0.0
C97 C 0.01432 0.73074 0.32191 0.0
C98 C 0.0221 0.68764 0.32523 0.0
C99 C 0.01302 0.71126 0.36167 0.0
C100 C 0.01092 0.732 0.34733 0.0
C101 C 0.01863 0.68879 0.35082 0.0
C102 C 0.01995 0.70848 0.31086 0.0
C103 C 0.01296 0.75336 0.30805 0.0
O104 O 0.0307 0.81137 0.26678 0.0
O105 O 0.99009 0.81206 0.27022 0.0
O106 O 0.99171 0.75923 0.29775 0.0
O107 O 0.03251 0.75945 0.29513 0.0
H108 H 0.99371 0.82241 0.31833 0.0
H109 H -0.00246 0.85396 0.34968 0.0
H110 H 0.03919 0.89747 0.29859 0.0
H111 H 0.03379 0.86674 0.26725 0.0
H112 H 0.01069 0.73404 0.1419 0.0
H113 H 0.00748 0.765 0.17417 0.0
H114 H 0.01273 0.67846 0.19704 0.0
H115 H 0.00944 0.70951 0.22941 0.0
H116 H 0.02665 0.67064 0.31632 0.0
H117 H 0.00976 0.71279 0.38118 0.0
H118 H 0.00665 0.74914 0.35614 0.0
H119 H 0.02282 0.70725 0.29126 0.0
C120 C 0.19491 0.99795 0.27512 0.0
C121 C 0.20281 0.99609 0.29949 0.0
C122 C 0.1601 0.9992 0.31281 0.0
C123 C 0.18538 0.99663 0.31832 0.0
C124 C 0.15224 1.00126 0.28852 0.0
C125 C 0.16965 1.00055 0.26968 0.0
U126 U 0.26111 0.99941 0.2509 0.0
O127 O 0.2735 0.02149 0.21998 0.0
O128 O 0.27625 0.98162 0.21805 0.0
C129 C 0.27912 1.00236 0.20668 0.0
C130 C 0.21279 0.99818 0.25518 0.0
C131 C 0.2996 1.00447 0.18945 0.0
C132 C 0.31214 0.01348 0.14799 0.0
C133 C 0.29378 0.01219 0.16579 0.0
C134 C 0.3426 0.99949 0.17751 0.0
C135 C 0.33672 1.00682 0.15349 0.0
C136 C 0.32408 0.99832 0.19545 0.0
C137 C 0.30794 1.00067 0.30804 0.0
C138 C 0.35178 0.99826 0.31769 0.0
C139 C 0.32182 1.00777 0.34955 0.0
C140 C 0.30277 1.00608 0.33257 0.0
C141 C 0.34653 1.00406 0.34231 0.0
C142 C 0.3325 0.99652 0.30057 0.0
C143 C 0.28674 0.99972 0.2914 0.0
O144 O 0.2253 0.01833 0.25328 0.0
O145 O 0.22663 0.97862 0.25287 0.0
O146 O 0.28217 0.9797 0.27919 0.0
O147 O 0.27909 0.01969 0.28069 0.0
H148 H 0.22235 0.99439 0.30387 0.0
H149 H 0.19155 0.99534 0.33715 0.0
H150 H 0.13273 1.00347 0.2842 0.0
H151 H 0.16345 1.00224 0.2509 0.0
H152 H 0.30702 0.01973 0.1299 0.0
H153 H 0.27486 0.01705 0.16098 0.0
H154 H 0.36133 0.99409 0.18228 0.0
H155 H 0.32876 0.9923 0.21373 0.0
H156 H 0.37073 0.99522 0.31171 0.0
H157 H 0.31722 0.01272 0.36823 0.0
H158 H 0.28385 0.00932 0.33858 0.0
H159 H 0.33674 0.99221 0.28165 0.0
C160 C 0.99644 0.74111 0.82271 0.0
C161 C 0.99327 0.71653 0.81734 0.0
C162 C 0.00055 0.70648 0.86023 0.0
C163 C 0.99524 0.69932 0.83606 0.0
C164 C 0.00382 0.73105 0.8655 0.0
C165 C 0.00184 0.74821 0.84684 0.0
U166 U 0.98978 0.77757 0.75963 0.0
O167 O 0.01023 0.81154 0.75635 0.0
O168 O 0.96953 0.8123 0.75772 0.0
C169 C 0.98998 0.82476 0.75482 0.0
C170 C 0.99411 0.76012 0.80406 0.0
C171 C 0.98999 0.84292 0.73532 0.0
C172 C -0.00225 0.88433 0.72347 0.0
C173 C -0.00331 0.86654 0.74141 0.0
C174 C 0.98534 0.85505 0.69282 0.0
C175 C 0.99186 0.87896 0.69896 0.0
C176 C 0.98448 0.83711 0.71089 0.0
C177 C 0.98754 0.72971 0.70493 0.0
C178 C 0.99221 0.71024 0.66523 0.0
C179 C 0.98554 0.68605 0.70151 0.0
C180 C 0.98447 0.70709 0.71589 0.0
C181 C 0.98983 0.68737 0.67604 0.0
C182 C 0.99105 0.73115 0.67955 0.0
C183 C 0.98756 0.75241 0.71891 0.0
O184 O 0.01324 0.76426 0.78979 0.0
O185 O 0.9725 0.76374 0.7934 0.0
O186 O 0.00857 0.75916 0.72891 0.0
O187 O 0.9678 0.75814 0.73193 0.0
H188 H 0.989 0.71074 0.79887 0.0
H189 H 0.99215 0.68043 0.83181 0.0
H190 H 0.00736 0.73698 0.88408 0.0
H191 H 0.00421 0.76716 0.85133 0.0
H192 H 0.00353 0.90228 0.72885 0.0
H193 H 0.00136 0.87121 0.76012 0.0
H194 H 0.98059 0.85027 0.67418 0.0
H195 H 0.97952 0.81881 0.70585 0.0
H196 H 0.99592 0.71201 0.64584 0.0
H197 H 0.98331 0.66872 0.71038 0.0
H198 H 0.98158 0.70569 0.73545 0.0
H199 H 0.99339 0.74855 0.67081 0.0
C200 C 0.21258 0.02342 0.74244 0.0
C201 C 0.22114 0.02435 0.7183 0.0
C202 C 0.17882 0.01948 0.70388 0.0
C203 C 0.20427 0.02245 0.69906 0.0
C204 C 0.17045 0.01835 0.72812 0.0
C205 C 0.18728 0.02037 0.74729 0.0
U206 U 0.27512 0.02458 0.77889 0.0
O207 O 0.27741 1.0055 0.81378 0.0
O208 O 0.28165 0.04502 0.81288 0.0
C209 C 0.28246 0.02521 0.82614 0.0
C210 C 0.22931 0.02494 0.76323 0.0
C211 C 0.30308 0.02269 0.84325 0.0
C212 C 0.31624 0.01446 0.88466 0.0
C213 C 0.29739 0.01768 0.86762 0.0
C214 C 0.34701 0.02082 0.85295 0.0
C215 C 0.34125 0.01647 0.8777 0.0
C216 C 0.32796 0.02386 0.83574 0.0
C217 C 0.32863 0.01642 0.72917 0.0
C218 C 0.36926 0.00987 0.71175 0.0
C219 C 0.33268 1.00736 0.68594 0.0
C220 C 0.3176 0.01241 0.70627 0.0
C221 C 0.35852 1.0057 0.68887 0.0
C222 C 0.35441 0.01535 0.73171 0.0
C223 C 0.31451 0.01988 0.75159 0.0
O224 O 0.24154 1.00501 0.7686 0.0
O225 O 0.24247 0.04475 0.76559 0.0
O226 O 0.30219 1.00131 0.76008 0.0
O227 O 0.30444 0.04114 0.75639 0.0
H228 H 0.24072 0.02646 0.7144 0.0
H229 H 0.21111 0.02304 0.68042 0.0
H230 H 0.15092 0.01621 0.73223 0.0
H231 H 0.18054 0.01952 0.76597 0.0
H232 H 0.31119 0.01068 0.90344 0.0
H233 H 0.27824 0.01626 0.87351 0.0
H234 H 0.3661 0.02261 0.84708 0.0
H235 H 0.33259 0.02733 0.81677 0.0
H236 H 0.38925 0.00951 0.71401 0.0
H237 H 0.32434 1.00489 0.66808 0.0
H238 H 0.29763 0.01317 0.70419 0.0
H239 H 0.36311 0.01848 0.74931 0.0
C240 C 0.00874 0.2092 0.73292 0.0
C241 C 0.0051 0.21743 0.70892 0.0
C242 C 0.01116 0.17646 0.69328 0.0
C243 C 0.0064 0.20117 0.68924 0.0
C244 C 0.01403 0.16814 0.71736 0.0
C245 C 0.01289 0.18444 0.73704 0.0
U246 U 0.01097 0.27322 0.76108 0.0
O247 O 0.99205 0.28601 0.79464 0.0
O248 O 0.03288 0.28506 0.79294 0.0
C249 C 0.01304 0.28927 0.80639 0.0
C250 C 0.0094 0.22615 0.75377 0.0
C251 C 0.01409 0.30834 0.82529 0.0
C252 C 0.00976 0.31883 0.86842 0.0
C253 C 0.00883 0.30177 0.84952 0.0
C254 C 0.02181 0.34942 0.83921 0.0
C255 C 0.01615 0.34288 0.8635 0.0
C256 C 0.02071 0.33227 0.82018 0.0
C257 C 0.01018 0.32088 0.70504 0.0
C258 C 0.0028 0.36319 0.69528 0.0
C259 C 0.01428 0.33489 0.66314 0.0
C260 C 0.01527 0.31627 0.68027 0.0
C261 C 0.00797 0.35849 0.67044 0.0
C262 C 0.00397 0.34446 0.71256 0.0
C263 C 0.01042 0.30019 0.72186 0.0
O264 O 0.03013 0.23818 0.75639 0.0
O265 O 0.98954 0.23971 0.75709 0.0
O266 O 0.99016 0.2946 0.73393 0.0
O267 O 0.03122 0.29281 0.7321 0.0
H268 H 0.00193 0.23648 0.70537 0.0
H269 H 0.00442 0.20796 0.67076 0.0
H270 H 0.01819 0.14926 0.72085 0.0
H271 H 0.01587 0.17781 0.75545 0.0
H272 H 0.0055 0.31321 0.88692 0.0
H273 H 0.00395 0.2833 0.85387 0.0
H274 H 0.02655 0.36791 0.83487 0.0
H275 H 0.02492 0.33768 0.80161 0.0
H276 H -0.00185 0.38136 0.70131 0.0
H277 H 0.01823 0.33083 0.6441 0.0
H278 H 0.01983 0.29811 0.67411 0.0
H279 H -6e-05 0.34832 0.73161 0.0
C280 C 0.7488 0.05304 0.84063 0.0
C281 C 0.72481 0.05602 0.83103 0.0
C282 C 0.70702 0.05519 0.87199 0.0
C283 C 0.70419 0.05711 0.84649 0.0
C284 C 0.73109 0.05186 0.88159 0.0
C285 C 0.75184 0.05087 0.866 0.0
U286 U 0.768 0.0519 0.77594 0.0
O287 O 0.79838 0.06716 0.75402 0.0
O288 O 0.79173 0.02774 0.7539 0.0
C289 C 0.80476 0.04578 0.74526 0.0
C290 C 0.7701 0.05157 0.8237 0.0
C291 C 0.83074 0.04099 0.73889 0.0
C292 C 0.87516 0.04736 0.74291 0.0
C293 C 0.85096 0.05012 0.75219 0.0
C294 C 0.85881 0.02549 0.70796 0.0
C295 C 0.87901 0.03526 0.72055 0.0
C296 C 0.83493 0.02841 0.717 0.0
C297 C 0.71284 0.0532 0.73257 0.0
C298 C 0.71663 0.04952 0.68842 0.0
C299 C 0.67679 0.04402 0.70831 0.0
C300 C 0.68755 0.04832 0.73094 0.0
C301 C 0.69112 0.04482 0.68683 0.0
C302 C 0.72751 0.05366 0.7113 0.0
C303 C 0.72363 0.05526 0.75693 0.0
O304 O 0.77087 0.03169 0.81042 0.0
O305 O 0.77392 0.07123 0.81074 0.0
O306 O 0.7375 0.07426 0.7612 0.0
O307 O 0.73313 0.03498 0.7652 0.0
H308 H 0.72201 0.05744 0.81146 0.0
H309 H 0.68594 0.05912 0.83842 0.0
H310 H 0.7339 0.05029 0.90114 0.0
H311 H 0.77019 0.04838 0.87373 0.0
H312 H 0.8906 0.05542 0.75253 0.0
H313 H 0.84797 0.06005 0.76908 0.0
H314 H 0.86141 0.01671 0.69035 0.0
H315 H 0.81954 0.02161 0.70631 0.0
H316 H 0.72796 0.05032 0.67205 0.0
H317 H 0.65715 0.04003 0.7076 0.0
H318 H 0.67615 0.04742 0.74727 0.0
H319 H 0.74725 0.05701 0.71244 0.0
C320 C 0.18411 0.30512 0.03716 0.0
C321 C 0.19221 0.32897 0.04031 0.0
C322 C 0.15165 0.34392 0.02782 0.0
C323 C 0.17597 0.34831 0.03574 0.0
C324 C 0.14352 0.3201 0.02491 0.0
C325 C 0.15966 0.3008 0.02963 0.0
U326 U 0.24914 0.27581 0.03744 0.0
O327 O 0.25735 0.24244 0.01723 0.0
O328 O 0.26307 0.24367 0.05709 0.0
C329 C 0.26437 0.23065 0.03689 0.0
C330 C 0.20121 0.28449 0.03936 0.0
C331 C 0.28583 0.21466 0.03346 0.0
C332 C 0.30169 0.17655 0.01749 0.0
C333 C 0.28175 0.19178 0.02315 0.0
C334 C 0.33006 0.20682 0.03294 0.0
C335 C 0.32601 0.18418 0.02189 0.0
C336 C 0.31005 0.22204 0.03873 0.0
C337 C 0.30288 0.32435 0.02833 0.0
C338 C 0.3474 0.32826 0.03452 0.0
C339 C 0.32408 0.36033 0.01471 0.0
C340 C 0.30248 0.34701 0.01706 0.0
C341 C 0.34673 0.35143 0.02383 0.0
C342 C 0.32551 0.31478 0.03687 0.0
C343 C 0.27875 0.31273 0.03198 0.0
O344 O 0.21313 0.27905 0.01913 0.0
O345 O 0.21534 0.28358 0.05897 0.0
O346 O 0.27349 0.30345 0.0535 0.0
O347 O 0.26867 0.3013 0.0134 0.0
H348 H 0.21116 0.3326 0.0457 0.0
H349 H 0.18256 0.36667 0.03771 0.0
H350 H 0.12489 0.31649 0.0185 0.0
H351 H 0.15327 0.28248 0.02677 0.0
H352 H 0.29819 0.15917 0.00899 0.0
H353 H 0.26308 0.18592 0.01893 0.0
H354 H 0.34875 0.21281 0.03678 0.0
H355 H 0.31348 0.23965 0.04671 0.0
H356 H 0.36459 0.32097 0.04176 0.0
H357 H 0.32292 0.37783 0.00591 0.0
H358 H 0.28519 0.35472 0.01043 0.0
H359 H 0.32615 0.29729 0.04571 0.0
C360 C 0.2733 0.84964 0.02309 0.0
C361 C 0.29708 0.83995 0.01927 0.0
C362 C 0.31451 0.88026 0.02221 0.0
C363 C 0.31756 0.85517 0.01882 0.0
C364 C 0.29057 0.88999 0.02523 0.0
C365 C 0.27006 0.8747 0.02576 0.0
U366 U 0.24323 0.78733 0.02823 0.0
O367 O 0.21033 0.77757 0.04986 0.0
O368 O 0.20893 0.77661 0.00962 0.0
C369 C 0.19676 0.77376 0.03024 0.0
C370 C 0.25179 0.83385 0.0249 0.0
C371 C 0.17902 0.75392 0.03087 0.0
C372 C 0.13734 0.74018 0.02184 0.0
C373 C 0.15449 0.75884 0.02371 0.0
C374 C 0.16882 0.71167 0.03552 0.0
C375 C 0.14455 0.71646 0.02739 0.0
C376 C 0.18606 0.73034 0.03725 0.0
C377 C 0.29982 0.73808 0.02781 0.0
C378 C 0.31162 0.69599 0.02109 0.0
C379 C 0.3433 0.72634 0.0267 0.0
C380 C 0.32495 0.74405 0.02973 0.0
C381 C 0.33688 0.70222 0.02179 0.0
C382 C 0.29317 0.7139 0.02389 0.0
C383 C 0.28131 0.75779 0.02813 0.0
O384 O 0.24788 0.81987 0.00584 0.0
O385 O 0.24933 0.82257 0.04588 0.0
O386 O 0.27171 0.76631 0.0486 0.0
O387 O 0.26958 0.76402 0.00799 0.0
H388 H 0.29983 0.82062 0.01707 0.0
H389 H 0.33587 0.84732 0.01626 0.0
H390 H 0.28783 0.90924 0.02805 0.0
H391 H 0.25172 0.88237 0.02871 0.0
H392 H 0.11889 0.74405 0.01493 0.0
H393 H 0.14886 0.77702 0.01866 0.0
H394 H 0.17476 0.69327 0.03924 0.0
H395 H 0.20496 0.72627 0.04269 0.0
H396 H 0.30618 0.67753 0.01736 0.0
H397 H 0.3626 0.73159 0.02772 0.0
H398 H 0.33043 0.76263 0.03279 0.0
H399 H 0.27381 0.709 0.02236 0.0
C400 C 0.76949 0.20587 0.01692 0.0
C401 C 0.74524 0.21166 0.02415 0.0
C402 C 0.73269 0.17036 0.01513 0.0
C403 C 0.72694 0.19396 0.02331 0.0
C404 C 0.75715 0.16463 0.00833 0.0
C405 C 0.7754 0.18231 0.00922 0.0
U406 U 0.7999 0.26989 0.01486 0.0
O407 O 0.83375 0.27662 0.99365 0.0
O408 O 0.83471 0.27877 0.03377 0.0
C409 C 0.8472 0.28079 0.01322 0.0
C410 C 0.7892 0.22379 0.01681 0.0
C411 C 0.86465 0.30087 0.0116 0.0
C412 C 0.90748 0.31393 0.00928 0.0
C413 C 0.8901 0.29546 0.01104 0.0
C414 C 0.87401 0.34352 0.00837 0.0
C415 C 0.89964 0.33816 0.00792 0.0
C416 C 0.85661 0.32498 0.01024 0.0
C417 C 0.74383 0.31938 0.01323 0.0
C418 C 0.72458 0.35843 0.02148 0.0
C419 C 0.70064 0.32662 1.00248 0.0
C420 C 0.72142 0.31114 0.00332 0.0
C421 C 0.70196 0.35052 0.01158 0.0
C422 C 0.74521 0.34307 0.02218 0.0
C423 C 0.76659 0.30449 0.01385 0.0
O424 O 0.79225 0.23555 0.9962 0.0
O425 O 0.79167 0.2374 0.03644 0.0
O426 O 0.77562 0.29608 0.03453 0.0
O427 O 0.77445 0.29331 0.99396 0.0
H428 H 0.74046 0.22978 0.03023 0.0
H429 H 0.70827 0.19872 0.02902 0.0
H430 H 0.76205 0.14669 1.00181 0.0
H431 H 0.79414 0.17765 0.0036 0.0
H432 H 0.92704 0.30926 0.00887 0.0
H433 H 0.89655 0.27686 0.01197 0.0
H434 H 0.86746 0.36209 0.00776 0.0
H435 H 0.83699 0.32942 0.01069 0.0
H436 H 0.72637 0.37639 0.02918 0.0
H437 H 0.68369 0.31991 0.99441 0.0
H438 H 0.72003 0.2929 0.99617 0.0
H439 H 0.76241 0.34978 0.02977 0.0
C440 C 0.84769 0.75631 0.0095 0.0
C441 C 0.83853 0.73264 0.00846 0.0
C442 C 0.88048 0.71636 0.00912 0.0
C443 C 0.85476 0.71287 0.00828 0.0
C444 C 0.8898 0.74 0.00974 0.0
C445 C 0.87344 0.75993 0.00984 0.0
U446 U 0.78149 0.77497 0.01247 0.0
O447 O 0.76006 0.80458 0.02975 0.0
O448 O 0.75887 0.79916 0.98957 0.0
C449 C 0.75072 0.81149 0.0086 0.0
C450 C 0.82997 0.77676 0.0102 0.0
C451 C 0.74279 0.83671 0.00507 0.0
C452 C 0.73694 0.8777 0.02052 0.0
C453 C 0.75005 0.85563 0.02072 0.0
C454 C 0.71068 0.86248 0.98802 0.0
C455 C 0.71656 0.88075 0.00477 0.0
C456 C 0.72369 0.84069 0.98815 0.0
C457 C 0.7374 0.72063 0.01311 0.0
C458 C 0.69233 0.72123 0.01611 0.0
C459 C 0.71413 0.68478 0.00321 0.0
C460 C 0.73665 0.69657 0.00535 0.0
C461 C 0.6918 0.69675 0.00909 0.0
C462 C 0.71513 0.7332 0.0181 0.0
C463 C 0.76183 0.73191 0.01462 0.0
O464 O 0.81565 0.77823 0.99081 0.0
O465 O 0.81761 0.7793 0.03087 0.0
O466 O 0.76673 0.74485 0.03426 0.0
O467 O 0.76948 0.74177 0.99421 0.0
H468 H 0.81874 0.72944 0.00824 0.0
H469 H 0.84722 0.69476 0.00839 0.0
H470 H 0.90959 0.74298 0.01104 0.0
H471 H 0.88084 0.77807 0.01066 0.0
H472 H 0.74158 0.89165 0.03367 0.0
H473 H 0.76467 0.85286 0.03402 0.0
H474 H 0.69484 0.86447 0.97594 0.0
H475 H 0.71755 0.82625 0.97618 0.0
H476 H 0.67533 0.73077 0.0208 0.0
H477 H 0.7142 0.666 0.99745 0.0
H478 H 0.75363 0.68677 1.00104 0.0
H479 H 0.71541 0.75199 0.02375 0.0
C480 C 0.52127 0.80322 0.68409 0.0
C481 C 0.51322 0.82621 0.6918 0.0
C482 C 0.52338 0.84303 0.65175 0.0
C483 C 0.51435 0.84593 0.67579 0.0
C484 C 0.53073 0.81987 0.64382 0.0
C485 C 0.52977 0.80016 0.65991 0.0
U486 U 0.52423 0.77116 0.74771 0.0
O487 O 0.54506 0.73756 0.75564 0.0
O488 O 0.50453 0.73813 0.75858 0.0
C489 C 0.52506 0.7254 0.76134 0.0
C490 C 0.52137 0.7822 0.7008 0.0
C491 C 0.52673 0.70995 0.78333 0.0
C492 C 0.53672 0.67072 0.80144 0.0
C493 C 0.53469 0.68578 0.78088 0.0
C494 C 0.52211 0.7037 0.82706 0.0
C495 C 0.53078 0.67958 0.82494 0.0
C496 C 0.5203 0.71874 0.80657 0.0
C497 C 0.52853 0.82437 0.79953 0.0
C498 C 0.52344 0.83681 0.84201 0.0
C499 C 0.53686 0.86587 0.81177 0.0
C500 C 0.53576 0.84795 0.79361 0.0
C501 C 0.53063 0.86045 0.83609 0.0
C502 C 0.52244 0.81887 0.82385 0.0
C503 C 0.52721 0.80574 0.78023 0.0
O504 O 0.54236 0.7777 0.71217 0.0
O505 O 0.50185 0.77946 0.71496 0.0
O506 O 0.50591 0.79638 0.77354 0.0
O507 O 0.54706 0.79635 0.76975 0.0
H508 H 0.50652 0.82902 0.7103 0.0
H509 H 0.50861 0.86363 0.68233 0.0
H510 H 0.53804 0.81719 0.62552 0.0
H511 H 0.53607 0.78255 0.65359 0.0
H512 H 0.54348 0.65238 0.79893 0.0
H513 H 0.53958 0.67859 0.76302 0.0
H514 H 0.51659 0.71107 0.84464 0.0
H515 H 0.51386 0.73722 0.80889 0.0
H516 H 0.51875 0.83223 0.8607 0.0
H517 H 0.54228 0.88402 0.80679 0.0
H518 H 0.54038 0.85255 0.7749 0.0
H519 H 0.51697 0.80072 0.82878 0.0
C520 C 0.35924 0.55335 0.7808 0.0
C521 C 0.35069 0.56099 0.80386 0.0
C522 C 0.38915 0.54708 0.8225 0.0
C523 C 0.36554 0.55783 0.82455 0.0
C524 C 0.39827 0.54068 0.79926 0.0
C525 C 0.38332 0.54373 0.77851 0.0
U526 U 0.29342 0.55188 0.7574 0.0
O527 O 0.27666 0.56783 0.72444 0.0
O528 O 0.27626 0.52785 0.72992 0.0
C529 C 0.27055 0.5464 0.71595 0.0
C530 C 0.34203 0.55238 0.75997 0.0
C531 C 0.25785 0.54362 0.69241 0.0
C532 C 0.24787 0.55972 0.65234 0.0
C533 C 0.26267 0.55979 0.67328 0.0
C534 C 0.22466 0.526 0.66861 0.0
C535 C 0.22827 0.54337 0.65033 0.0
C536 C 0.23942 0.5261 0.68958 0.0
C537 C 0.24346 0.55584 0.80916 0.0
C538 C 0.19896 0.54886 0.80722 0.0
C539 C 0.21868 0.55753 0.84611 0.0
C540 C 0.24149 0.55953 0.83441 0.0
C541 C 0.19725 0.55167 0.83279 0.0
C542 C 0.22205 0.55082 0.79543 0.0
C543 C 0.26846 0.55599 0.7985 0.0
O544 O 0.32908 0.5324 0.75884 0.0
O545 O 0.32853 0.57194 0.75616 0.0
O546 O 0.27442 0.57466 0.78495 0.0
O547 O 0.27678 0.53525 0.78986 0.0
H548 H 0.33208 0.56825 0.80605 0.0
H549 H 0.35817 0.56278 0.84236 0.0
H550 H 0.41633 0.53211 0.79737 0.0
H551 H 0.39008 0.53751 0.76087 0.0
H552 H 0.25075 0.57332 0.63842 0.0
H553 H 0.27708 0.57322 0.67504 0.0
H554 H 0.20928 0.51354 0.66749 0.0
H555 H 0.23541 0.51351 0.70418 0.0
H556 H 0.1827 0.54438 0.79655 0.0
H557 H 0.21788 0.5603 0.86574 0.0
H558 H 0.2578 0.56348 0.84526 0.0
H559 H 0.2233 0.54791 0.77585 0.0
C560 C 0.48571 0.34484 0.78702 0.0
C561 C 0.48547 0.33646 0.81121 0.0
C562 C 0.48742 0.37801 0.82666 0.0
C563 C 0.48621 0.3529 0.83081 0.0
C564 C 0.48821 0.38631 0.80239 0.0
C565 C 0.48721 0.36985 0.78277 0.0
U566 U 0.48268 0.28119 0.75618 0.0
O567 O 0.46223 0.27069 0.72275 0.0
O568 O 0.50297 0.27061 0.72275 0.0
C569 C 0.48265 0.26721 0.70997 0.0
C570 C 0.48458 0.32798 0.76595 0.0
C571 C 0.48322 0.24778 0.69129 0.0
C572 C 0.49125 0.2366 0.64876 0.0
C573 C 0.48796 0.25429 0.6669 0.0
C574 C 0.48384 0.20545 0.67885 0.0
C575 C 0.48958 0.212 0.65462 0.0
C576 C 0.48068 0.22322 0.69711 0.0
C577 C 0.48232 0.23052 0.80995 0.0
C578 C 0.48062 0.18732 0.81848 0.0
C579 C 0.48696 0.21586 0.85157 0.0
C580 C 0.48572 0.23494 0.83498 0.0
C581 C 0.48488 0.19177 0.84356 0.0
C582 C 0.47944 0.20661 0.80173 0.0
C583 C 0.4825 0.2515 0.79337 0.0
O584 O 0.50429 0.31432 0.76229 0.0
O585 O 0.46375 0.31615 0.76296 0.0
O586 O 0.46195 0.25933 0.78299 0.0
O587 O 0.50312 0.25839 0.78268 0.0
H588 H 0.48455 0.31726 0.81493 0.0
H589 H 0.48586 0.34596 0.84932 0.0
H590 H 0.48902 0.4055 0.7986 0.0
H591 H 0.48748 0.37668 0.7642 0.0
H592 H 0.49615 0.24208 0.63037 0.0
H593 H 0.49005 0.27315 0.66202 0.0
H594 H 0.483 0.18654 0.68385 0.0
H595 H 0.47713 0.21779 0.7158 0.0
H596 H 0.47901 0.16895 0.81175 0.0
H597 H 0.48983 0.21997 0.87076 0.0
H598 H 0.48779 0.25327 0.84172 0.0
H599 H 0.47673 0.20286 0.78245 0.0
C600 C 0.67657 0.4986 0.79062 0.0
C601 C 0.68395 0.48688 0.81221 0.0
C602 C 0.64839 0.50418 0.83378 0.0
C603 C 0.66992 0.48959 0.83357 0.0
C604 C 0.64051 0.51504 0.81188 0.0
C605 C 0.65454 0.5123 0.79049 0.0
U606 U 0.74085 0.50091 0.76211 0.0
O607 O 0.75238 0.52299 0.73089 0.0
O608 O 0.75558 0.4833 0.72874 0.0
C609 C 0.75852 0.50407 0.71747 0.0
C610 C 0.69273 0.49875 0.76891 0.0
C611 C 0.78011 0.50656 0.70137 0.0
C612 C 0.79661 0.50449 0.66 0.0
C613 C 0.77723 0.50084 0.67652 0.0
C614 C 0.8221 0.51962 0.69313 0.0
C615 C 0.81929 0.51388 0.66813 0.0
C616 C 0.80264 0.516 0.70966 0.0
C617 C 0.79097 0.50233 0.81594 0.0
C618 C 0.83499 0.51012 0.82029 0.0
C619 C 0.81032 0.50007 0.85591 0.0
C620 C 0.78942 0.49815 0.84115 0.0
C621 C 0.8333 0.50629 0.84574 0.0
C622 C 0.81387 0.50823 0.80543 0.0
C623 C 0.76779 0.50126 0.80199 0.0
O624 O 0.70462 0.51909 0.76563 0.0
O625 O 0.70676 0.47948 0.76529 0.0
O626 O 0.76255 0.48126 0.79003 0.0
O627 O 0.75966 0.52111 0.79139 0.0
H628 H 0.70095 0.4763 0.8128 0.0
H629 H 0.67624 0.48076 0.85013 0.0
H630 H 0.62412 0.52652 0.81155 0.0
H631 H 0.64869 0.52162 0.77404 0.0
H632 H 0.7939 0.49971 0.64095 0.0
H633 H 0.75981 0.49376 0.66981 0.0
H634 H 0.83924 0.52724 0.69986 0.0
H635 H 0.80505 0.52083 0.72874 0.0
H636 H 0.85249 0.51503 0.81199 0.0
H637 H 0.80849 0.49653 0.87531 0.0
H638 H 0.77185 0.49356 0.84953 0.0
H639 H 0.81532 0.51159 0.78597 0.0
C640 C 0.49313 0.25194 0.33575 0.0
C641 C 0.48103 0.23005 0.33117 0.0
C642 C 0.49939 0.21259 0.36799 0.0
C643 C 0.48408 0.21059 0.3472 0.0
C644 C 0.51027 0.23497 0.37331 0.0
C645 C 0.5072 0.25446 0.35725 0.0
U646 U 0.49218 0.28164 0.27096 0.0
O647 O 0.51334 0.31407 0.26117 0.0
O648 O 0.47265 0.31536 0.26043 0.0
C649 C 0.49338 0.32724 0.25707 0.0
C650 C 0.49213 0.2722 0.31825 0.0
C651 C 0.49438 0.34478 0.2367 0.0
C652 C 0.49125 0.38688 0.22379 0.0
C653 C 0.48915 0.36917 0.24192 0.0
C654 C 0.50366 0.35605 0.19461 0.0
C655 C 0.49858 0.38064 0.19984 0.0
C656 C 0.50166 0.33829 0.21288 0.0
C657 C 0.49327 0.2257 0.22182 0.0
C658 C 0.4958 0.21034 0.1801 0.0
C659 C 0.49726 0.18241 0.21409 0.0
C660 C 0.49486 0.2019 0.23054 0.0
C661 C 0.49814 0.18642 0.18861 0.0
C662 C 0.4934 0.22972 0.19652 0.0
C663 C 0.49282 0.24663 0.23868 0.0
O664 O 0.5124 0.27564 0.30544 0.0
O665 O 0.47176 0.27495 0.30526 0.0
O666 O 0.47197 0.25615 0.24694 0.0
O667 O 0.51326 0.25555 0.24804 0.0
H668 H 0.46982 0.22775 0.3149 0.0
H669 H 0.47506 0.19366 0.34294 0.0
H670 H 0.52211 0.23705 0.38919 0.0
H671 H 0.51647 0.27133 0.36124 0.0
H672 H 0.48697 0.40549 0.22855 0.0
H673 H 0.48366 0.37462 0.26024 0.0
H674 H 0.50973 0.35058 0.1765 0.0
H675 H 0.50607 0.31962 0.20849 0.0
H676 H 0.49678 0.21425 0.16072 0.0
H677 H 0.49871 0.16425 0.22132 0.0
H678 H 0.49471 0.19842 0.25005 0.0
H679 H 0.49231 0.24798 0.18943 0.0
C680 C 0.67862 0.53056 0.242 0.0
C681 C 0.68638 0.5385 0.21893 0.0
C682 C 0.64999 0.52026 0.20016 0.0
C683 C 0.67212 0.53348 0.19822 0.0
C684 C 0.64164 0.51342 0.22346 0.0
C685 C 0.65593 0.51847 0.24422 0.0
U686 U 0.74269 0.53057 0.27278 0.0
O687 O 0.75551 0.55009 0.30563 0.0
O688 O 0.75081 0.51059 0.30646 0.0
C689 C 0.75669 0.53018 0.31874 0.0
C690 C 0.69486 0.53252 0.26351 0.0
C691 C 0.77701 0.52744 0.33628 0.0
C692 C 0.79059 0.5124 0.37583 0.0
C693 C 0.77177 0.51643 0.3588 0.0
C694 C 0.82006 0.53084 0.34812 0.0
C695 C 0.8149 0.5192 0.37035 0.0
C696 C 0.80118 0.53501 0.33112 0.0
C697 C 0.79712 0.52285 0.22297 0.0
C698 C 0.84202 0.52691 0.22019 0.0
C699 C 0.8185 0.514 0.18479 0.0
C700 C 0.79671 0.51539 0.19846 0.0
C701 C 0.8414 0.52011 0.19529 0.0
C702 C 0.81995 0.52841 0.23396 0.0
C703 C 0.77295 0.52578 0.23534 0.0
O704 O 0.70684 0.5125 0.2689 0.0
O705 O 0.70878 0.55189 0.26523 0.0
O706 O 0.76708 0.54688 0.24505 0.0
O707 O 0.76335 0.50721 0.2468 0.0
H708 H 0.70384 0.54783 0.21679 0.0
H709 H 0.67876 0.53937 0.18051 0.0
H710 H 0.6247 0.50322 0.2255 0.0
H711 H 0.64972 0.51212 0.26192 0.0
H712 H 0.78635 0.50338 0.39289 0.0
H713 H 0.75311 0.51058 0.36302 0.0
H714 H 0.8388 0.53636 0.34382 0.0
H715 H 0.8055 0.54366 0.3139 0.0
H716 H 0.85939 0.5318 0.22875 0.0
H717 H 0.81737 0.50832 0.16583 0.0
H718 H 0.77929 0.51105 0.18963 0.0
H719 H 0.82064 0.53429 0.25287 0.0
C720 C 0.54549 0.71021 0.24277 0.0
C721 C 0.54706 0.71856 0.2186 0.0
C722 C 0.5403 0.67764 0.20309 0.0
C723 C 0.5444 0.70241 0.19895 0.0
C724 C 0.53985 0.66915 0.22727 0.0
C725 C 0.54237 0.68535 0.24694 0.0
U726 U 0.54483 0.77405 0.27274 0.0
O727 O 0.52359 0.78546 0.30543 0.0
O728 O 0.56429 0.7851 0.30644 0.0
C729 C 0.5436 0.78909 0.31864 0.0
C730 C 0.54556 0.72709 0.26382 0.0
C731 C 0.54325 0.8095 0.3362 0.0
C732 C 0.54681 0.82335 0.37858 0.0
C733 C 0.54617 0.80454 0.36129 0.0
C734 C 0.5413 0.85239 0.34593 0.0
C735 C 0.54482 0.8475 0.371 0.0
C736 C 0.54042 0.83356 0.32867 0.0
C737 C 0.54484 0.82528 0.22038 0.0
C738 C 0.53795 0.86859 0.21574 0.0
C739 C 0.54611 0.84364 0.18005 0.0
C740 C 0.54812 0.82333 0.19501 0.0
C741 C 0.54073 0.86651 0.19012 0.0
C742 C 0.54002 0.84808 0.23081 0.0
C743 C 0.54518 0.80265 0.23455 0.0
O744 O 0.56568 0.73996 0.267 0.0
O745 O 0.5251 0.73977 0.26713 0.0
O746 O 0.52461 0.79533 0.24503 0.0
O747 O 0.56559 0.79578 0.24583 0.0
H748 H 0.54946 0.73764 0.21495 0.0
H749 H 0.54458 0.70939 0.18045 0.0
H750 H 0.53627 0.65027 0.23096 0.0
H751 H 0.54104 0.67857 0.26547 0.0
H752 H 0.54965 0.81907 0.39772 0.0
H753 H 0.54831 0.78604 0.36748 0.0
H754 H 0.53954 0.87089 0.33967 0.0
H755 H 0.53795 0.83779 0.30947 0.0
H756 H 0.53388 0.886 0.22405 0.0
H757 H 0.54783 0.8412 0.16044 0.0
H758 H 0.55162 0.80585 0.18659 0.0
H759 H 0.53741 0.84993 0.25039 0.0
C760 C 0.2606 0.55284 0.33164 0.0
C761 C 0.23646 0.5547 0.32226 0.0
C762 C 0.21958 0.55013 0.36325 0.0
C763 C 0.2161 0.55335 0.33796 0.0
C764 C 0.24384 0.54884 0.37262 0.0
C765 C 0.26422 0.5501 0.35686 0.0
U766 U 0.28768 0.54984 0.26753 0.0
O767 O 0.31966 0.52829 0.25451 0.0
O768 O 0.321 0.56808 0.25377 0.0
C769 C 0.33296 0.54759 0.24988 0.0
C770 C 0.28199 0.55225 0.31516 0.0
C771 C 0.35019 0.54672 0.22907 0.0
C772 C 0.39142 0.55549 0.21343 0.0
C773 C 0.37459 0.55459 0.23287 0.0
C774 C 0.35984 0.53972 0.1863 0.0
C775 C 0.38396 0.54873 0.18982 0.0
C776 C 0.34303 0.53868 0.20582 0.0
C777 C 0.23171 0.5491 0.21939 0.0
C778 C 0.22674 0.54788 0.17521 0.0
C779 C 0.19052 0.55023 0.20152 0.0
C780 C 0.20584 0.55002 0.22203 0.0
C781 C 0.20084 0.54931 0.178 0.0
C782 C 0.2422 0.54792 0.1959 0.0
C783 C 0.24659 0.54983 0.24186 0.0
O784 O 0.28497 0.53182 0.30314 0.0
O785 O 0.28478 0.57143 0.30133 0.0
O786 O 0.2588 0.56969 0.24704 0.0
O787 O 0.25766 0.52987 0.24922 0.0
H788 H 0.23339 0.55683 0.30278 0.0
H789 H 0.1976 0.55485 0.33035 0.0
H790 H 0.24701 0.54635 0.39203 0.0
H791 H 0.28279 0.54853 0.3643 0.0
H792 H 0.40986 0.56246 0.21664 0.0
H793 H 0.38047 0.56061 0.25084 0.0
H794 H 0.35382 0.53402 0.16829 0.0
H795 H 0.32439 0.53221 0.20265 0.0
H796 H 0.23495 0.54724 0.15711 0.0
H797 H 0.17058 0.55122 0.20401 0.0
H798 H 0.19744 0.55085 0.24005 0.0
H799 H 0.26215 0.54723 0.19359 0.0
C800 C 0.7979 0.70903 0.4915 0.0
C801 C 0.82193 0.71702 0.48623 0.0
C802 C 0.8386 0.67714 0.49588 0.0
C803 C 0.84215 0.70117 0.48846 0.0
C804 C 0.81443 0.66885 0.5 0.0
C805 C 0.7942 0.68476 0.49789 0.0
U806 U 0.77009 0.77314 0.49586 0.0
O807 O 0.73826 0.78404 0.51866 0.0
O808 O 0.73571 0.78696 0.47864 0.0
C809 C 0.72429 0.7897 0.49977 0.0
C810 C 0.77684 0.72606 0.49257 0.0
C811 C 0.70725 0.81051 0.50258 0.0
C812 C 0.66626 0.82815 0.49545 0.0
C813 C 0.68307 0.8088 0.49314 0.0
C814 C 0.69729 0.85068 0.51777 0.0
C815 C 0.67343 0.84958 0.50725 0.0
C816 C 0.71408 0.83138 0.51538 0.0
C817 C 0.82566 0.82163 0.49628 0.0
C818 C 0.83156 0.865 0.50067 0.0
C819 C 0.86697 0.83884 0.49284 0.0
C820 C 0.85129 0.81885 0.49258 0.0
C821 C 0.8574 0.86225 0.49689 0.0
C822 C 0.81581 0.84485 0.50035 0.0
C823 C 0.81032 0.79964 0.49566 0.0
O824 O 0.7744 0.73768 0.51343 0.0
O825 O 0.77356 0.74007 0.47344 0.0
O826 O 0.79786 0.79442 0.47567 0.0
O827 O 0.79985 0.79198 0.51592 0.0
H828 H 0.82515 0.73572 0.48136 0.0
H829 H 0.8607 0.70789 0.48531 0.0
H830 H 0.81134 0.65048 0.50606 0.0
H831 H 0.77575 0.67837 0.50217 0.0
H832 H 0.64812 0.82675 0.48707 0.0
H833 H 0.6773 0.79258 0.48359 0.0
H834 H 0.70323 0.86683 0.52732 0.0
H835 H 0.73245 0.8329 0.52324 0.0
H836 H 0.82352 0.88269 0.5042 0.0
H837 H 0.88657 0.83593 0.48948 0.0
H838 H 0.85926 0.80105 0.48936 0.0
H839 H 0.79608 0.84738 0.50333 0.0
C840 C 0.79923 0.34314 0.5115 0.0
C841 C 0.8227 0.33655 0.52056 0.0
C842 C 0.83996 0.37448 0.50578 0.0
C843 C 0.84283 0.35215 0.51787 0.0
C844 C 0.81633 0.38087 0.49676 0.0
C845 C 0.79621 0.3654 0.49971 0.0
U846 U 0.77134 0.27974 0.51134 0.0
O847 O 0.73797 0.26808 0.49121 0.0
O848 O 0.73901 0.26585 0.53144 0.0
C849 C 0.72579 0.26307 0.5114 0.0
C850 C 0.77793 0.32672 0.51289 0.0
C851 C 0.70711 0.24371 0.51071 0.0
C852 C 0.66367 0.23292 0.50569 0.0
C853 C 0.68254 0.25013 0.50516 0.0
C854 C 0.6937 0.20244 0.51765 0.0
C855 C 0.66873 0.20872 0.51231 0.0
C856 C 0.71266 0.21969 0.5167 0.0
C857 C 0.82853 0.23263 0.50545 0.0
C858 C 0.83641 0.18942 0.50207 0.0
C859 C 0.87056 0.21748 0.49944 0.0
C860 C 0.85399 0.23674 0.50271 0.0
C861 C 0.86208 0.1935 0.49908 0.0
C862 C 0.81973 0.20887 0.50516 0.0
C863 C 0.81217 0.25389 0.50789 0.0
O864 O 0.77328 0.3148 0.49263 0.0
O865 O 0.77618 0.31329 0.53263 0.0
O866 O 0.8013 0.25859 0.52898 0.0
O867 O 0.79975 0.26148 0.48866 0.0
H868 H 0.82549 0.31933 0.52959 0.0
H869 H 0.86057 0.34678 0.52548 0.0
H870 H 0.81337 0.39766 0.48703 0.0
H871 H 0.77828 0.37069 0.4924 0.0
H872 H 0.64518 0.23881 0.5007 0.0
H873 H 0.67783 0.26866 0.50053 0.0
H874 H 0.69877 0.18436 0.5233 0.0
H875 H 0.73151 0.21438 0.52115 0.0
H876 H 0.8292 0.17121 0.50232 0.0
H877 H 0.88999 0.22152 0.4968 0.0
H878 H 0.86111 0.25502 0.50281 0.0
H879 H 0.8001 0.2054 0.50729 0.0
C880 C 0.24167 0.70775 0.53433 0.0
C881 C 0.21727 0.71572 0.53864 0.0
C882 C 0.20197 0.67511 0.53066 0.0
C883 C 0.19756 0.69949 0.53677 0.0
C884 C 0.22647 0.66696 0.52732 0.0
C885 C 0.2462 0.68321 0.52915 0.0
U886 U 0.26853 0.77203 0.53043 0.0
O887 O 0.30033 0.78357 0.50794 0.0
O888 O 0.30255 0.78549 0.54807 0.0
C889 C 0.31419 0.78833 0.52713 0.0
C890 C 0.26239 0.72492 0.53336 0.0
C891 C 0.33241 0.80801 0.52532 0.0
C892 C 0.37582 0.82013 0.52691 0.0
C893 C 0.35776 0.80208 0.52739 0.0
C894 C 0.34345 0.85036 0.5218 0.0
C895 C 0.36877 0.84446 0.52443 0.0
C896 C 0.32536 0.83225 0.52213 0.0
C897 C 0.2104 0.81918 0.53015 0.0
C898 C 0.19953 0.86151 0.53684 0.0
C899 C 0.16771 0.83309 0.52506 0.0
C900 C 0.18546 0.8145 0.52463 0.0
C901 C 0.17451 0.85677 0.53122 0.0
C902 C 0.2174 0.84283 0.53624 0.0
C903 C 0.22794 0.79854 0.53049 0.0
O904 O 0.26475 0.73653 0.51258 0.0
O905 O 0.26534 0.73896 0.55258 0.0
O906 O 0.2406 0.79372 0.55049 0.0
O907 O 0.23834 0.79063 0.51016 0.0
H908 H 0.21338 0.7346 0.54254 0.0
H909 H 0.17874 0.70617 0.53905 0.0
H910 H 0.23024 0.64835 0.52213 0.0
H911 H 0.26493 0.6768 0.52563 0.0
H912 H 0.39517 0.81519 0.52926 0.0
H913 H 0.36358 0.78343 0.52985 0.0
H914 H 0.33767 0.86908 0.52002 0.0
H915 H 0.30596 0.83719 0.52041 0.0
H916 H 0.20526 0.87969 0.54144 0.0
H917 H 0.14858 0.82889 0.52086 0.0
H918 H 0.17962 0.7963 0.52019 0.0
H919 H 0.23653 0.8468 0.54063 0.0
C920 C 0.33848 0.245 0.53178 0.0
C921 C 0.33226 0.22084 0.53622 0.0
C922 C 0.37443 0.20808 0.5255 0.0
C923 C 0.35014 0.2025 0.53315 0.0
C924 C 0.38053 0.23244 0.52162 0.0
C925 C 0.36273 0.25067 0.52475 0.0
U926 U 0.27194 0.27298 0.53295 0.0
O927 O 0.261 0.30534 0.51223 0.0
O928 O 0.26114 0.3063 0.55253 0.0
C929 C 0.25737 0.31833 0.53214 0.0
C930 C 0.32005 0.26468 0.53295 0.0
C931 C 0.23662 0.33552 0.53198 0.0
C932 C 0.22238 0.37668 0.53896 0.0
C933 C 0.24142 0.35949 0.53874 0.0
C934 C 0.19348 0.34608 0.52528 0.0
C935 C 0.19817 0.3701 0.53247 0.0
C936 C 0.21263 0.32885 0.52502 0.0
C937 C 0.21862 0.2221 0.53231 0.0
C938 C 0.17412 0.21721 0.53815 0.0
C939 C 0.19975 0.18265 0.52733 0.0
C940 C 0.2206 0.19737 0.52717 0.0
C941 C 0.17608 0.19209 0.53321 0.0
C942 C 0.1952 0.2321 0.53762 0.0
C943 C 0.24188 0.23598 0.53267 0.0
O944 O 0.30699 0.268 0.51297 0.0
O945 O 0.30682 0.26671 0.55309 0.0
O946 O 0.24884 0.2469 0.55294 0.0
O947 O 0.25005 0.24604 0.51247 0.0
H948 H 0.31359 0.21617 0.5417 0.0
H949 H 0.34496 0.18397 0.53672 0.0
H950 H 0.39891 0.23741 0.51552 0.0
H951 H 0.3678 0.26925 0.52117 0.0
H952 H 0.22651 0.39501 0.54464 0.0
H953 H 0.25996 0.36489 0.544 0.0
H954 H 0.17504 0.34069 0.51976 0.0
H955 H 0.20874 0.31043 0.5195 0.0
H956 H 0.15646 0.22542 0.5429 0.0
H957 H 0.20241 0.16384 0.52242 0.0
H958 H 0.23852 0.1893 0.52296 0.0
H959 H 0.19326 0.25123 0.54164 0.0
Zn960 Zn 0.97899 0.9994 0.46741 0.0
Zn961 Zn 0.97579 0.05782 0.47184 0.0
O962 O -0.00181 0.02933 0.47748 0.0
H963 H 0.00766 0.02834 0.49237 0.0
C964 C 0.95381 0.96754 0.52393 0.0
O965 O 0.95045 0.98728 0.51099 0.0
Zn966 Zn 0.06266 0.05619 0.55522 0.0
Zn967 Zn 0.05446 0.99831 0.56063 0.0
O968 O 0.03739 0.02973 0.55217 0.0
H969 H 0.02263 0.03079 0.54234 0.0
Zn970 Zn 0.97513 1.00251 0.55953 0.0
O971 O 0.97829 0.03102 0.53604 0.0
Zn972 Zn 0.97823 0.06035 0.55786 0.0
H973 H 0.97165 0.03025 0.51967 0.0
Zn974 Zn 0.05497 1.0027 0.47121 0.0
O975 O 0.0522 0.03356 0.49115 0.0
H976 H 0.04767 0.03378 0.50816 0.0
Zn977 Zn 0.0602 0.0618 0.46922 0.0
C978 C 0.07886 0.96465 0.50506 0.0
O979 O 0.08029 0.98148 0.522 0.0
O980 O 0.94891 0.00815 0.44592 0.0
O981 O 0.94553 0.04781 0.4528 0.0
O982 O 0.08507 1.0058 0.58099 0.0
O983 O 0.09333 0.04408 0.57167 0.0
O984 O 0.96055 0.01296 0.59357 0.0
O985 O 0.95895 0.0527 0.58714 0.0
C986 C 0.01196 0.08594 0.44095 0.0
O987 O 0.07014 0.01078 0.43812 0.0
O988 O 0.08053 0.04964 0.44144 0.0
O989 O 0.03468 0.96909 0.57389 0.0
C990 C 0.93814 0.02843 0.44252 0.0
O991 O -0.00189 0.9689 0.45505 0.0
C992 C 0.02672 0.08286 0.5822 0.0
O993 O 0.96436 0.96904 0.54472 0.0
C994 C 0.09848 0.02454 0.58291 0.0
O995 O 0.06874 0.96967 0.48463 0.0
C996 C 0.961 0.0903 0.51806 0.0
O997 O 0.99025 0.0812 0.44836 0.0
O998 O 0.03061 0.07666 0.45181 0.0
C999 C 0.95433 0.03435 0.60022 0.0
O1000 O 0.04987 0.0812 0.57851 0.0
O1001 O 0.01271 0.07019 0.56849 0.0
C1002 C 0.08095 0.08626 0.51078 0.0
O1003 O 0.96269 0.08869 0.54117 0.0
O1004 O 0.96883 0.07274 0.50501 0.0
C1005 C 0.08071 0.02959 0.4299 0.0
O1006 O 0.0795 0.08732 0.48761 0.0
O1007 O 0.06906 0.06978 0.52171 0.0
C1008 C 0.02102 0.97263 0.59254 0.0
O1009 O 0.01795 0.99485 0.60069 0.0
C1010 C 0.01252 0.97243 0.43705 0.0
O1011 O 0.0164 0.99477 0.42997 0.0
Zn1012 Zn 0.47758 0.06201 0.03651 0.0
Zn1013 Zn 0.48086 0.07086 0.97808 0.0
O1014 O 0.49377 0.04993 0.00554 0.0
H1015 H 0.50308 0.03503 0.00435 0.0
C1016 C 0.52522 0.10078 0.07269 0.0
O1017 O 0.51048 0.0949 0.05453 0.0
Zn1018 Zn 0.56001 0.9852 0.97083 0.0
Zn1019 Zn 0.5557 0.99282 0.02922 0.0
O1020 O 0.54652 1.00771 0.99608 0.0
H1021 H 0.54152 0.02428 0.99347 0.0
Zn1022 Zn 0.56475 0.07928 0.03932 0.0
O1023 O 0.54382 0.07183 0.00876 0.0
Zn1024 Zn 0.56558 0.07293 0.97865 0.0
H1025 H 0.52742 0.07889 0.00807 0.0
Zn1026 Zn 0.47952 0.97363 0.04287 0.0
O1027 O 0.50042 0.98128 0.01337 0.0
H1028 H 0.51237 0.99346 0.01728 0.0
Zn1029 Zn 0.47845 0.98227 0.98366 0.0
C1030 C 0.51814 0.95212 0.07526 0.0
O1031 O 0.53249 0.95667 0.05641 0.0
O1032 O 0.44747 0.08267 0.02853 0.0
O1033 O 0.45287 0.09363 0.98973 0.0
O1034 O 0.58163 0.9655 0.02664 0.0
O1035 O 0.58522 0.96227 0.9862 0.0
O1036 O 0.59909 0.09236 0.02855 0.0
O1037 O 0.59747 0.08897 0.98774 0.0
C1038 C 0.46189 0.02705 0.95661 0.0
O1039 O 0.44435 0.9645 0.03294 0.0
O1040 O 0.44341 0.9703 0.99249 0.0
O1041 O 0.56489 0.01412 0.05905 0.0
C1042 C 0.44044 0.09416 0.00967 0.0
O1043 O 0.46831 0.03986 0.06526 0.0
C1044 C 0.58774 0.02601 0.95178 0.0
O1045 O 0.54828 0.09571 0.07099 0.0
C1046 C 0.59194 0.95646 0.00776 0.0
O1047 O 0.49525 0.95782 0.07415 0.0
C1048 C 0.52605 0.09901 0.9488 0.0
O1049 O 0.46287 0.04986 0.95457 0.0
O1050 O 0.4759 0.01653 0.97202 0.0
C1051 C 0.60856 0.09517 0.00734 0.0
O1052 O 0.58286 1.00371 0.94917 0.0
O1053 O 0.57263 0.03933 0.964 0.0
C1054 C 0.51326 0.95686 0.94472 0.0
O1055 O 0.54882 0.09466 0.95363 0.0
O1056 O 0.50899 0.08795 0.96028 0.0
C1057 C 0.43291 0.96414 0.01253 0.0
O1058 O 0.493 0.96194 0.95592 0.0
O1059 O 0.53411 0.96568 0.95135 0.0
C1060 C 0.58497 0.02577 0.05686 0.0
O1061 O 0.59547 0.02682 0.03517 0.0
C1062 C 0.44854 0.02818 0.06126 0.0
O1063 O 0.43981 0.02749 0.03881 0.0
Zn1064 Zn 0.98577 0.50171 0.96178 0.0
Zn1065 Zn 0.97321 0.55959 0.97147 0.0
O1066 O -6e-05 0.53334 0.97589 0.0
H1067 H 0.0095 0.53283 0.99075 0.0
C1068 C 0.96259 0.4659 0.012 0.0
O1069 O 0.96006 0.48499 0.998 0.0
Zn1070 Zn 0.0587 0.56156 0.05262 0.0
Zn1071 Zn 0.05357 0.5031 0.06284 0.0
O1072 O 0.03483 0.53342 0.05123 0.0
H1073 H 0.02185 0.53261 0.0392 0.0
Zn1074 Zn 0.9743 0.50239 0.0519 0.0
O1075 O 0.97823 0.53342 0.03205 0.0
Zn1076 Zn 0.97458 0.56099 0.05642 0.0
H1077 H 0.97232 0.53363 0.0154 0.0
Zn1078 Zn 0.06733 0.506 0.97378 0.0
O1079 O 0.05428 0.53624 0.99 0.0
H1080 H 0.05015 0.53701 0.00713 0.0
Zn1081 Zn 0.05726 0.56366 0.96553 0.0
C1082 C 0.07235 0.46445 0.01092 0.0
O1083 O 0.05659 0.47577 0.0253 0.0
O1084 O 0.95175 0.50738 0.94732 0.0
O1085 O 0.94227 0.54576 0.95625 0.0
O1086 O 0.08905 0.51072 0.0735 0.0
O1087 O 0.09087 0.55051 0.06752 0.0
O1088 O 0.95225 0.50917 0.08227 0.0
O1089 O 0.95283 0.54956 0.08398 0.0
C1090 C 0.00707 0.59088 0.94598 0.0
O1091 O 0.08883 0.51481 0.94507 0.0
O1092 O 0.08044 0.55366 0.93735 0.0
O1093 O 0.03876 0.47285 0.08104 0.0
C1094 C 0.93682 0.52528 0.94701 0.0
O1095 O 0.00151 0.46769 0.95175 0.0
C1096 C 0.02235 0.59059 0.07728 0.0
O1097 O 0.96853 0.46879 0.03436 0.0
C1098 C 0.10059 0.53067 0.07473 0.0
O1099 O 0.07851 0.47395 0.99071 0.0
C1100 C 0.95561 0.59211 0.01837 0.0
O1101 O 0.98453 0.58552 0.94931 0.0
O1102 O 0.02347 0.57683 0.95522 0.0
C1103 C 0.94552 0.52918 0.092 0.0
O1104 O 0.04536 0.58675 0.07456 0.0
O1105 O 0.00748 0.57568 0.06719 0.0
C1106 C 0.07249 0.5941 0.00558 0.0
O1107 O 0.95716 0.58824 0.04114 0.0
O1108 O 0.96437 0.57605 0.00383 0.0
C1109 C 0.09199 0.53387 0.93258 0.0
O1110 O 0.07195 0.59137 0.98252 0.0
O1111 O 0.06472 0.57683 0.01897 0.0
C1112 C 0.02487 0.45603 0.07311 0.0
O1113 O 0.01573 0.45737 0.05091 0.0
C1114 C 0.02364 0.46071 0.94736 0.0
O1115 O 0.04184 0.47602 0.95023 0.0
Zn1116 Zn 0.4746 0.49227 0.9891 0.0
Zn1117 Zn 0.48095 0.48907 0.04917 0.0
O1118 O 0.48915 0.50975 0.01919 0.0
H1119 H 0.49565 0.52596 0.0189 0.0
C1120 C 0.51612 0.45895 0.94457 0.0
O1121 O 0.49808 0.45883 0.96074 0.0
Zn1122 Zn 0.5583 0.563 0.05536 0.0
Zn1123 Zn 0.55731 0.5602 0.99592 0.0
O1124 O 0.54679 0.54229 0.0271 0.0
H1125 H 0.53833 0.52701 0.0279 0.0
Zn1126 Zn 0.55292 0.47376 0.98699 0.0
O1127 O 0.53382 0.47703 0.01967 0.0
Zn1128 Zn 0.55872 0.47575 0.04853 0.0
H1129 H 0.51703 0.47111 0.02011 0.0
Zn1130 Zn 0.49224 0.58889 0.98909 0.0
O1131 O 0.50977 0.581 0.02182 0.0
H1132 H 0.52674 0.58574 0.02466 0.0
Zn1133 Zn 0.48335 0.57842 0.04867 0.0
C1134 C 0.5193 0.58968 0.93868 0.0
O1135 O 0.52024 0.56606 0.94026 0.0
O1136 O 0.45312 0.4636 0.99922 0.0
O1137 O 0.45527 0.46459 0.04007 0.0
O1138 O 0.57771 0.59084 0.00313 0.0
O1139 O 0.58317 0.58677 0.04338 0.0
O1140 O 0.58726 0.45885 0.99488 0.0
O1141 O 0.58999 0.45965 0.03585 0.0
C1142 C 0.47004 0.53217 0.07717 0.0
O1143 O 0.45678 0.60232 0.99682 0.0
O1144 O 0.45153 0.59357 0.03642 0.0
O1145 O 0.57204 0.54235 0.96519 0.0
C1146 C 0.44689 0.45577 0.02018 0.0
O1147 O 0.46304 0.50762 0.95542 0.0
C1148 C 0.57292 0.52037 0.08134 0.0
O1149 O 0.53797 0.46459 0.95148 0.0
C1150 C 0.58794 0.59709 0.02313 0.0
O1151 O 0.51011 0.60199 0.95643 0.0
C1152 C 0.52228 0.45925 0.08003 0.0
O1153 O 0.46851 0.50934 0.07631 0.0
O1154 O 0.47717 0.54355 0.05815 0.0
C1155 C 0.59886 0.4545 0.01475 0.0
O1156 O 0.57314 0.54325 0.08149 0.0
O1157 O 0.56589 0.50942 0.06194 0.0
C1158 C 0.51597 0.59329 0.08606 0.0
O1159 O 0.54544 0.45662 0.07704 0.0
O1160 O 0.51082 0.47238 0.0645 0.0
C1161 C 0.44359 0.60237 0.01629 0.0
O1162 O 0.49363 0.59594 0.07926 0.0
O1163 O 0.53026 0.58095 0.07219 0.0
C1164 C 0.56141 0.52812 0.95026 0.0
O1165 O 0.53854 0.52129 0.95452 0.0
C1166 C 0.46605 0.52846 0.94614 0.0
O1167 O 0.47819 0.54494 0.95851 0.0
Zn1168 Zn 0.97978 0.49997 0.47066 0.0
Zn1169 Zn 0.97236 0.5583 0.47323 0.0
O1170 O -0.00226 0.53154 0.47518 0.0
H1171 H 0.01392 0.53255 0.48254 0.0
C1172 C 0.93864 0.48001 0.5145 0.0
O1173 O 0.93559 0.50351 0.51241 0.0
Zn1174 Zn 0.06266 0.5612 0.55618 0.0
Zn1175 Zn 0.06444 0.50345 0.55153 0.0
O1176 O 0.04095 0.53216 0.55205 0.0
H1177 H 0.02458 0.53185 0.54501 0.0
Zn1178 Zn 0.97142 0.49925 0.54977 0.0
O1179 O 0.97854 0.53126 0.53356 0.0
Zn1180 Zn 0.97379 0.55814 0.55789 0.0
H1181 H 0.98916 0.53237 0.51944 0.0
Zn1182 Zn 0.07286 0.50684 0.47533 0.0
O1183 O 0.05944 0.53605 0.49302 0.0
H1184 H 0.04961 0.53538 0.50771 0.0
Zn1185 Zn 0.06101 0.56398 0.47043 0.0
C1186 C 0.09824 0.47322 0.51009 0.0
O1187 O 0.07598 0.46741 0.51776 0.0
O1188 O 0.94384 0.50489 0.45966 0.0
O1189 O 0.94074 0.54512 0.45863 0.0
O1190 O 0.1005 0.51303 0.5592 0.0
O1191 O 0.09427 0.55072 0.57243 0.0
O1192 O 0.95042 0.50567 0.58048 0.0
O1193 O 0.9529 0.54565 0.58624 0.0
C1194 C 0.01095 0.58749 0.45185 0.0
O1195 O 0.08641 0.5142 0.44131 0.0
O1196 O 0.08224 0.55433 0.44103 0.0
O1197 O 0.054 0.47139 0.56836 0.0
C1198 C 0.93153 0.52417 0.45553 0.0
O1199 O -0.00329 0.47096 0.45342 0.0
C1200 C 0.02025 0.586 0.5773 0.0
O1201 O 0.95573 0.47222 0.52845 0.0
C1202 C 0.10827 0.53223 0.5695 0.0
O1203 O 0.10054 0.48885 0.49338 0.0
C1204 C 0.95059 0.58499 0.51993 0.0
O1205 O 0.98751 0.58479 0.45297 0.0
O1206 O 0.02494 0.57328 0.46396 0.0
C1207 C 0.94469 0.52486 0.5922 0.0
O1208 O 0.04387 0.58589 0.57655 0.0
O1209 O 0.00855 0.56998 0.56534 0.0
C1210 C 0.085 0.58932 0.50978 0.0
O1211 O 0.95308 0.58443 0.54299 0.0
O1212 O 0.96408 0.5706 0.50725 0.0
C1213 C 0.09074 0.53466 0.43179 0.0
O1214 O 0.081 0.58958 0.48688 0.0
O1215 O 0.0717 0.57533 0.52285 0.0
C1216 C 0.03266 0.46446 0.57518 0.0
O1217 O 0.01318 0.47832 0.57116 0.0
C1218 C 0.01944 0.46522 0.45081 0.0
O1219 O 0.03669 0.47888 0.46045 0.0
Zn1220 Zn 0.48775 1.0051 0.47157 0.0
Zn1221 Zn 0.47213 0.06325 0.46943 0.0
O1222 O 0.50175 0.03928 0.46676 0.0
H1223 H 0.51539 0.04079 0.4554 0.0
C1224 C 0.46075 0.95686 0.51579 0.0
O1225 O 0.47692 0.96247 0.49888 0.0
Zn1226 Zn 0.55862 0.06783 0.54838 0.0
Zn1227 Zn 0.55572 1.00718 0.55562 0.0
O1228 O 0.53529 0.03831 0.54854 0.0
H1229 H 0.5186 0.03868 0.55489 0.0
Zn1230 Zn 0.47722 1.0024 0.54593 0.0
O1231 O 0.48272 0.03425 0.52684 0.0
Zn1232 Zn 0.47812 0.06302 0.55064 0.0
H1233 H 0.49268 0.03477 0.51218 0.0
Zn1234 Zn 0.58397 0.01762 0.49733 0.0
O1235 O 0.55162 0.04122 0.49105 0.0
H1236 H 0.53722 0.03786 0.50103 0.0
Zn1237 Zn 0.54904 0.07218 0.4684 0.0
C1238 C 0.57801 0.9615 0.50344 0.0
O1239 O 0.55609 0.96437 0.51353 0.0
O1240 O 0.45096 1.00678 0.46088 0.0
O1241 O 0.44372 0.0463 0.45497 0.0
O1242 O 0.5871 0.01832 0.57384 0.0
O1243 O 0.58884 0.058 0.56613 0.0
O1244 O 0.46561 0.01063 0.5805 0.0
O1245 O 0.46439 0.05086 0.58095 0.0
C1246 C 0.5005 0.10072 0.45534 0.0
O1247 O 0.56979 0.03632 0.46828 0.0
O1248 O 0.56061 0.05862 0.43702 0.0
O1249 O 0.54183 0.97372 0.57002 0.0
C1250 C 0.43713 0.02425 0.45382 0.0
O1251 O 0.50575 0.97188 0.46044 0.0
C1252 C 0.5216 0.09873 0.568 0.0
O1253 O 0.45811 0.97073 0.5343 0.0
C1254 C 0.59745 0.03886 0.57599 0.0
O1255 O 0.58971 0.9799 0.49569 0.0
C1256 C 0.45233 0.08833 0.51611 0.0
O1257 O 0.4778 0.09548 0.45376 0.0
O1258 O 0.51486 0.08442 0.46352 0.0
C1259 C 0.4604 0.03063 0.59097 0.0
O1260 O 0.54495 0.09655 0.5668 0.0
O1261 O 0.50911 0.08149 0.55883 0.0
C1262 C 0.57666 0.09726 0.50207 0.0
O1263 O 0.45399 0.08711 0.53903 0.0
O1264 O 0.46388 0.07233 0.50365 0.0
C1265 C 0.57213 0.04039 0.44544 0.0
O1266 O 0.57235 0.09779 0.47933 0.0
O1267 O 0.56534 0.0814 0.5147 0.0
C1268 C 0.52602 0.95825 0.56259 0.0
O1269 O 0.51331 0.96263 0.54258 0.0
C1270 C 0.52736 0.96476 0.45389 0.0
O1271 O 0.54546 0.98046 0.45251 0.0
H1272 H 0.17458 0.14322 0.5432 0.0
H1273 H 0.12662 0.20353 0.52448 0.0
H1274 H 0.09174 0.17621 0.52092 0.0
H1275 H 0.07616 0.13457 0.51635 0.0
H1276 H 0.12489 0.07431 0.53132 0.0
H1277 H 0.15842 0.10213 0.54178 0.0
C1278 C 0.15673 0.15061 0.53788 0.0
C1279 C 0.15388 0.17569 0.53346 0.0
C1280 C 0.13682 0.13463 0.53474 0.0
C1281 C 0.12988 0.18455 0.52803 0.0
C1282 C 0.10978 0.16883 0.52573 0.0
C1283 C 0.09392 0.12766 0.52272 0.0
C1284 C 0.09809 0.10256 0.5235 0.0
C1285 C 0.11321 0.14378 0.52818 0.0
C1286 C 0.1212 0.09362 0.53122 0.0
C1287 C 0.14041 0.10952 0.53689 0.0
H1288 H 0.9093 0.19002 0.51691 0.0
H1289 H 0.85568 0.15074 0.47403 0.0
H1290 H 0.88401 0.11606 0.47183 0.0
H1291 H 0.92207 0.09516 0.4866 0.0
H1292 H 0.97503 0.13528 0.52917 0.0
H1293 H 0.94952 0.17174 0.52583 0.0
C1294 C 0.9039 0.17418 0.50651 0.0
C1295 C 0.88008 0.173 0.49601 0.0
C1296 C 0.92038 0.15444 0.50503 0.0
C1297 C 0.87355 0.152 0.48295 0.0
C1298 C 0.88988 0.13221 0.48143 0.0
C1299 C 0.9284 0.11218 0.4942 0.0
C1300 C 0.95031 0.11269 0.50806 0.0
C1301 C 0.91311 0.13296 0.49295 0.0
C1302 C 0.95823 0.13464 0.51829 0.0
C1303 C 0.9435 0.15538 0.51668 0.0
H1304 H 0.90468 0.86505 0.51545 0.0
H1305 H 0.84855 0.90759 0.4786 0.0
H1306 H 0.8749 0.94313 0.48106 0.0
H1307 H 0.91227 0.96299 0.49656 0.0
H1308 H 0.96773 0.92115 0.53488 0.0
H1309 H 0.94384 0.88426 0.52785 0.0
C1310 C 0.8983 0.88196 0.50757 0.0
C1311 C 0.87434 0.88358 0.49718 0.0
C1312 C 0.91357 0.90246 0.50912 0.0
C1313 C 0.86652 0.90583 0.48728 0.0
C1314 C 0.8817 0.92617 0.48847 0.0
C1315 C 0.91932 0.94573 0.50306 0.0
C1316 C 0.94155 0.94481 0.5165 0.0
C1317 C 0.90501 0.92482 0.4998 0.0
C1318 C 0.95047 0.92234 0.52478 0.0
C1319 C 0.93677 0.90128 0.52083 0.0
H1320 H 0.14259 0.86885 0.4948 0.0
H1321 H 0.16365 0.88847 0.56824 0.0
H1322 H 0.13359 0.92203 0.56789 0.0
H1323 H 0.104 0.94791 0.54523 0.0
H1324 H 0.08422 0.92861 0.47114 0.0
H1325 H 0.11089 0.89291 0.47327 0.0
C1326 C 0.14044 0.8804 0.51077 0.0
C1327 C 0.15553 0.87646 0.53139 0.0
C1328 C 0.12346 0.89986 0.51025 0.0
C1329 C 0.15255 0.89148 0.552 0.0
C1330 C 0.1353 0.91058 0.55182 0.0
C1331 C 0.10529 0.93575 0.52965 0.0
C1332 C 0.09231 0.94122 0.50795 0.0
C1333 C 0.12106 0.91531 0.53082 0.0
C1334 C 0.09407 0.92506 0.48804 0.0
C1335 C 0.10942 0.90461 0.48918 0.0
H1336 H 0.47736 0.1789 0.14352 0.0
H1337 H 0.5305 0.14821 0.19386 0.0
H1338 H 0.54278 0.11815 0.16318 0.0
H1339 H 0.54131 0.10293 0.12039 0.0
H1340 H 0.487 0.13295 0.07086 0.0
H1341 H 0.47277 0.16103 0.10255 0.0
C1342 C 0.49161 0.16563 0.14783 0.0
C1343 C 0.50322 0.16618 0.17094 0.0
C1344 C 0.49873 0.14842 0.13001 0.0
C1345 C 0.52116 0.14832 0.17632 0.0
C1346 C 0.52839 0.13119 0.15866 0.0
C1347 C 0.52627 0.11552 0.11663 0.0
C1348 C 0.51551 0.11605 0.09313 0.0
C1349 C 0.51778 0.13145 0.13519 0.0
C1350 C 0.4957 0.13218 0.08872 0.0
C1351 C 0.48755 0.14832 0.10684 0.0
H1352 H 0.84545 0.53837 0.1497 0.0
H1353 H 0.88825 0.50263 0.20577 0.0
H1354 H 0.9246 0.50173 0.17866 0.0
H1355 H 0.94392 0.51061 0.13825 0.0
H1356 H 0.90049 0.54755 0.08349 0.0
H1357 H 0.86439 0.54781 0.11051 0.0
C1358 C 0.86266 0.53019 0.15597 0.0
C1359 C 0.86404 0.52036 0.17963 0.0
C1360 C 0.88329 0.52978 0.14039 0.0
C1361 C 0.8867 0.5104 0.18767 0.0
C1362 C 0.90743 0.50974 0.17212 0.0
C1363 C 0.92651 0.51874 0.13247 0.0
C1364 C 0.92466 0.52921 0.10917 0.0
C1365 C 0.90591 0.51929 0.14837 0.0
C1366 C 0.90219 0.53968 0.10156 0.0
C1367 C 0.8816 0.53978 0.11694 0.0
H1368 H 0.56749 0.87951 0.14987 0.0
H1369 H 0.50336 0.9002 0.19263 0.0
H1370 H 0.49167 0.93 0.1617 0.0
H1371 H 0.49712 0.94693 0.12038 0.0
H1372 H 0.56143 0.92631 0.07776 0.0
H1373 H 0.57545 0.89972 0.11062 0.0
C1374 C 0.55106 0.89069 0.15252 0.0
C1375 C 0.53615 0.88737 0.17343 0.0
C1376 C 0.54427 0.90758 0.13449 0.0
C1377 C 0.51523 0.90239 0.1768 0.0
C1378 C 0.5084 0.9193 0.15898 0.0
C1379 C 0.51431 0.93678 0.11838 0.0
C1380 C 0.52795 0.9383 0.09644 0.0
C1381 C 0.52236 0.92154 0.13742 0.0
C1382 C 0.55044 0.92536 0.09434 0.0
C1383 C 0.55847 0.91008 0.11312 0.0
H1384 H 0.19195 0.5143 0.14436 0.0
H1385 H 0.17189 0.58717 0.16503 0.0
H1386 H 0.14107 0.58882 0.13224 0.0
H1387 H 0.11786 0.56859 0.10014 0.0
H1388 H 0.13441 0.4942 0.08183 0.0
H1389 H 0.16899 0.49411 0.11092 0.0
C1390 C 0.18108 0.53061 0.14126 0.0
C1391 C 0.18422 0.55071 0.15667 0.0
C1392 C 0.16288 0.53111 0.12288 0.0
C1393 C 0.16977 0.57163 0.1531 0.0
C1394 C 0.15219 0.57254 0.13445 0.0
C1395 C 0.12939 0.55251 0.10207 0.0
C1396 C 0.12381 0.5315 0.08877 0.0
C1397 C 0.14837 0.55229 0.11949 0.0
C1398 C 0.13852 0.51063 0.09185 0.0
C1399 C 0.15815 0.51054 0.10855 0.0
H1400 H 0.4923 0.87818 0.8629 0.0
H1401 H 0.57099 0.8853 0.85183 0.0
H1402 H 0.57279 0.91604 0.88428 0.0
H1403 H 0.55191 0.94029 0.91636 0.0
H1404 H 0.47262 0.93416 0.9259 0.0
H1405 H 0.47109 0.90401 0.89336 0.0
C1406 C 0.50978 0.88653 0.86766 0.0
C1407 C 0.53152 0.87946 0.85526 0.0
C1408 C 0.51055 0.90444 0.88599 0.0
C1409 C 0.55407 0.89053 0.86124 0.0
C1410 C 0.55507 0.90806 0.87977 0.0
C1411 C 0.53427 0.93244 0.91131 0.0
C1412 C 0.51248 0.9394 0.92391 0.0
C1413 C 0.53343 0.91509 0.89237 0.0
C1414 C 0.48978 0.92909 0.91681 0.0
C1415 C 0.48884 0.91178 0.89815 0.0
H1416 H 0.19123 0.52531 0.87356 0.0
H1417 H 0.15047 0.56902 0.82199 0.0
H1418 H 0.11333 0.56672 0.84795 0.0
H1419 H 0.09385 0.55526 0.88753 0.0
H1420 H 0.13586 0.51137 0.93816 0.0
H1421 H 0.17136 0.51137 0.91071 0.0
C1422 C 0.17422 0.53436 0.86798 0.0
C1423 C 0.17371 0.54778 0.84624 0.0
C1424 C 0.15332 0.53327 0.88305 0.0
C1425 C 0.15133 0.55871 0.83879 0.0
C1426 C 0.13019 0.55756 0.8537 0.0
C1427 C 0.11078 0.54566 0.89233 0.0
C1428 C 0.11237 0.53345 0.91476 0.0
C1429 C 0.13118 0.54544 0.87623 0.0
C1430 C 0.13422 0.52079 0.92086 0.0
C1431 C 0.15454 0.5208 0.90523 0.0
H1432 H 0.52119 0.18793 0.87732 0.0
H1433 H 0.45717 0.15049 0.84982 0.0
H1434 H 0.46317 0.11871 0.88068 0.0
H1435 H 0.48713 0.10166 0.91598 0.0
H1436 H 0.55207 0.13951 0.94112 0.0
H1437 H 0.54488 0.17119 0.91116 0.0
C1438 C 0.50839 0.17291 0.87815 0.0
C1439 C 0.48863 0.17172 0.86143 0.0
C1440 C 0.51207 0.15481 0.89572 0.0
C1441 C 0.47259 0.15181 0.86244 0.0
C1442 C 0.47595 0.13372 0.88018 0.0
C1443 C 0.49955 0.11694 0.9149 0.0
C1444 C 0.52014 0.11822 0.93079 0.0
C1445 C 0.49565 0.13504 0.89703 0.0
C1446 C 0.53622 0.13799 0.92904 0.0
C1447 C 0.53213 0.15616 0.91191 0.0
H1448 H 0.83545 0.52794 0.89046 0.0
H1449 H 0.88038 0.48963 0.83724 0.0
H1450 H 0.91601 0.49146 0.86473 0.0
H1451 H 0.93409 0.50341 0.90371 0.0
H1452 H 0.89029 0.54307 0.95662 0.0
H1453 H 0.85392 0.54054 0.92963 0.0
C1454 C 0.853 0.51983 0.88495 0.0
C1455 C 0.85525 0.50854 0.86188 0.0
C1456 C 0.87333 0.52089 0.90085 0.0
C1457 C 0.87823 0.4986 0.85478 0.0
C1458 C 0.89852 0.49945 0.87054 0.0
C1459 C 0.91647 0.51128 0.9094 0.0
C1460 C 0.91452 0.52315 0.93204 0.0
C1461 C 0.89618 0.5104 0.89361 0.0
C1462 C 0.89195 0.5338 0.93918 0.0
C1463 C 0.87131 0.53238 0.92378 0.0
H1464 H 0.68632 0.65491 0.03219 0.0
H1465 H 0.64594 0.70675 0.98866 0.0
H1466 H 0.60953 0.6801 0.98855 0.0
H1467 H 0.59007 0.64089 1.00017 0.0
H1468 H 0.63194 0.59061 0.04448 0.0
H1469 H 0.6674 0.61748 0.04423 0.0
C1470 C 0.66958 0.66035 0.02256 0.0
C1471 C 0.66881 0.68246 0.01018 0.0
C1472 C 0.6492 0.64507 0.02249 0.0
C1473 C 0.64686 0.68969 0.99831 0.0
C1474 C 0.62619 0.67442 0.99811 0.0
C1475 C 0.60701 0.63604 0.00976 0.0
C1476 C 0.60854 0.61406 0.02253 0.0
C1477 C 0.62727 0.6519 0.00998 0.0
C1478 C 0.63039 0.60768 0.0349 0.0
C1479 C 0.65063 0.62296 0.03471 0.0
H1480 H 0.3432 0.65671 0.04044 0.0
H1481 H 0.37504 0.70764 0.98999 0.0
H1482 H 0.4094 0.67983 0.9817 0.0
H1483 H 0.43194 0.64245 0.99077 0.0
H1484 H 0.40239 0.59253 0.04348 0.0
H1485 H 0.36533 0.6181 0.04844 0.0
C1486 C 0.35752 0.66151 0.02742 0.0
C1487 C 0.35668 0.68426 0.01597 0.0
C1488 C 0.37757 0.64556 0.02305 0.0
C1489 C 0.37547 0.69037 0.99928 0.0
C1490 C 0.39506 0.67444 0.99444 0.0
C1491 C 0.41714 0.63693 0.00296 0.0
C1492 C 0.41975 0.61564 0.01662 0.0
C1493 C 0.3965 0.65217 0.00647 0.0
C1494 C 0.4007 0.6089 0.03274 0.0
C1495 C 0.3796 0.62355 0.03566 0.0
H1496 H 0.34836 0.39918 0.03373 0.0
H1497 H 0.39502 0.33893 0.01225 0.0
H1498 H 0.43063 0.36608 0.00882 0.0
H1499 H 0.44807 0.40753 0.01116 0.0
H1500 H 0.40029 0.46698 0.0322 0.0
H1501 H 0.36508 0.43967 0.03561 0.0
C1502 C 0.36622 0.39194 0.02799 0.0
C1503 C 0.36894 0.36712 0.02295 0.0
C1504 C 0.38627 0.40758 0.02571 0.0
C1505 C 0.39245 0.35797 0.01632 0.0
C1506 C 0.41274 0.3735 0.01417 0.0
C1507 C 0.42987 0.41426 0.01648 0.0
C1508 C 0.42642 0.43892 0.02163 0.0
C1509 C 0.4098 0.39838 0.01868 0.0
C1510 C 0.40305 0.44788 0.02842 0.0
C1511 C 0.38304 0.43234 0.03036 0.0
H1512 H 0.70094 0.39975 0.00529 0.0
H1513 H 0.65293 0.33873 0.01766 0.0
H1514 H 0.61706 0.36573 0.01891 0.0
H1515 H 0.59932 0.40667 0.01813 0.0
H1516 H 0.64695 0.46796 0.00831 0.0
H1517 H 0.68331 0.44087 0.00544 0.0
C1518 C 0.68274 0.39226 0.00863 0.0
C1519 C 0.67987 0.36705 0.01142 0.0
C1520 C 0.66219 0.40797 0.01014 0.0
C1521 C 0.65587 0.35788 0.015 0.0
C1522 C 0.63529 0.37334 0.01601 0.0
C1523 C 0.61775 0.41396 0.01542 0.0
C1524 C 0.62083 0.43898 0.01348 0.0
C1525 C 0.63828 0.39837 0.01383 0.0
C1526 C 0.64448 0.44859 0.00986 0.0
C1527 C 0.66512 0.43315 0.00819 0.0
H1528 H 0.97451 0.67793 0.62892 0.0
H1529 H 0.01515 0.64683 0.68947 0.0
H1530 H 0.02552 0.61161 0.66473 0.0
H1531 H 0.0265 0.59118 0.62519 0.0
H1532 H 0.98713 0.62137 0.56382 0.0
H1533 H 0.97298 0.65557 0.5894 0.0
C1534 C 0.98556 0.6634 0.63671 0.0
C1535 C 0.99397 0.66509 0.66115 0.0
C1536 C 0.99182 0.64314 0.62219 0.0
C1537 C 0.00803 0.64593 0.67097 0.0
C1538 C 0.01419 0.62582 0.65675 0.0
C1539 C 0.01435 0.60503 0.61764 0.0
C1540 C 0.00761 0.60386 0.59295 0.0
C1541 C 0.00657 0.62444 0.63232 0.0
C1542 C 0.99212 0.62185 0.58303 0.0
C1543 C 0.98428 0.64145 0.59758 0.0
H1544 H 0.36718 0.04029 0.65701 0.0
H1545 H 0.38882 0.9679 0.67697 0.0
H1546 H 0.42493 0.96991 0.64964 0.0
H1547 H 0.45075 0.99328 0.62134 0.0
H1548 H 0.43054 0.06752 0.60566 0.0
H1549 H 0.39391 0.06416 0.63098 0.0
C1550 C 0.37944 0.02475 0.65466 0.0
C1551 C 0.37525 1.00375 0.66802 0.0
C1552 C 0.40079 0.02673 0.64053 0.0
C1553 C 0.39156 0.98392 0.66597 0.0
C1554 C 0.41234 0.98528 0.65085 0.0
C1555 C 0.43855 0.00881 0.62392 0.0
C1556 C 0.44318 0.03044 0.61154 0.0
C1557 C 0.41738 1.00682 0.63845 0.0
C1558 C 0.42747 0.05061 0.61512 0.0
C1559 C 0.40624 0.04865 0.62924 0.0
H1560 H 0.04556 0.37196 0.64111 0.0
H1561 H 0.96936 0.38853 0.65862 0.0
H1562 H 0.96921 0.42148 0.62859 0.0
H1563 H 0.99194 0.44726 0.59942 0.0
H1564 H 0.06891 0.43104 0.58368 0.0
H1565 H 0.06757 0.39634 0.61084 0.0
C1566 C 0.02893 0.38278 0.63823 0.0
C1567 C 0.0076 0.37814 0.65212 0.0
C1568 C 0.02918 0.40183 0.62135 0.0
C1569 C 0.98609 0.39214 0.64832 0.0
C1570 C 0.986 0.41086 0.63111 0.0
C1571 C 0.00833 0.43599 0.60174 0.0
C1572 C 0.03056 0.44196 0.58968 0.0
C1573 C 0.00761 0.41616 0.61782 0.0
C1574 C 0.0516 0.42706 0.59286 0.0
C1575 C 0.05089 0.40717 0.60844 0.0
H1576 H 0.6496 0.06729 0.67308 0.0
H1577 H 0.70479 0.01624 0.64758 0.0
H1578 H 0.68066 0.00946 0.61 0.0
H1579 H 0.64227 0.0171 0.58551 0.0
H1580 H 0.58806 0.06833 0.61305 0.0
H1581 H 0.61291 0.07527 0.64937 0.0
C1582 C 0.65632 0.05458 0.65934 0.0
C1583 C 0.6786 0.04202 0.66307 0.0
C1584 C 0.64234 0.05059 0.63839 0.0
C1585 C 0.68756 0.0261 0.64493 0.0
C1586 C 0.67371 0.0221 0.62363 0.0
C1587 C 0.63626 0.02987 0.59947 0.0
C1588 C 0.61386 0.0426 0.59668 0.0
C1589 C 0.65086 0.03406 0.62032 0.0
C1590 C 0.60569 0.05886 0.61479 0.0
C1591 C 0.61975 0.06277 0.63554 0.0
H1592 H 0.06214 0.37816 0.38736 0.0
H1593 H 0.98691 0.3799 0.36075 0.0
H1594 H 0.97644 0.41233 0.38954 0.0
H1595 H 0.98901 0.44125 0.4204 0.0
H1596 H 0.06441 0.4415 0.44693 0.0
H1597 H 0.07454 0.40696 0.42026 0.0
C1598 C 0.0434 0.38542 0.38837 0.0
C1599 C 0.02511 0.37659 0.37242 0.0
C1600 C 0.03765 0.40438 0.40475 0.0
C1601 C 0.00102 0.38629 0.37327 0.0
C1602 C 0.99511 0.40488 0.38956 0.0
C1603 C 0.00766 0.4337 0.42057 0.0
C1604 C 0.02594 0.44395 0.43557 0.0
C1605 C 0.01333 0.41422 0.40512 0.0
C1606 C 0.05004 0.434 0.43539 0.0
C1607 C 0.05581 0.41424 0.4202 0.0
H1608 H 0.67114 0.04053 0.39435 0.0
H1609 H 0.62385 0.04024 0.33027 0.0
H1610 H 0.58815 0.03236 0.35621 0.0
H1611 H 0.57013 0.03051 0.39748 0.0
H1612 H 0.61824 0.02744 0.46039 0.0
H1613 H 0.65459 0.02879 0.43374 0.0
C1614 C 0.65344 0.03775 0.38552 0.0
C1615 C 0.65059 0.04135 0.3601 0.0
C1616 C 0.63321 0.03186 0.40024 0.0
C1617 C 0.62683 0.03851 0.34976 0.0
C1618 C 0.60636 0.03351 0.36452 0.0
C1619 C 0.58865 0.0291 0.40517 0.0
C1620 C 0.59179 0.02952 0.43064 0.0
C1621 C 0.60931 0.03074 0.38983 0.0
C1622 C 0.61557 0.02725 0.44073 0.0
C1623 C 0.63629 0.02855 0.42553 0.0
H1624 H 0.03827 0.68281 0.39685 0.0
H1625 H 0.00028 0.64464 0.33898 0.0
H1626 H -0.00174 0.6087 0.3643 0.0
H1627 H 0.00296 0.58945 0.40403 0.0
H1628 H 0.0393 0.62682 0.46299 0.0
H1629 H 0.0463 0.66184 0.43622 0.0
C1630 C 0.0296 0.6666 0.38978 0.0
C1631 C 0.01939 0.6665 0.36597 0.0
C1632 C 0.02814 0.64593 0.40465 0.0
C1633 C 0.00859 0.64521 0.35701 0.0
C1634 C 0.00725 0.62465 0.37155 0.0
C1635 C 0.01299 0.60507 0.41074 0.0
C1636 C 0.02076 0.60574 0.43516 0.0
C1637 C 0.01648 0.62498 0.39547 0.0
C1638 C 0.03353 0.62596 0.44401 0.0
C1639 C 0.03724 0.64599 0.4288 0.0
H1640 H 0.34832 0.98861 0.38953 0.0
H1641 H 0.38931 0.02877 0.33546 0.0
H1642 H 0.42024 0.03928 0.36612 0.0
H1643 H 0.4348 0.03816 0.40808 0.0
H1644 H 0.39581 0.99695 0.46244 0.0
H1645 H 0.36402 0.98629 0.43194 0.0
C1646 C 0.36405 0.99964 0.38451 0.0
C1647 C 0.36655 0.00797 0.3603 0.0
C1648 C 0.38161 1.00579 0.40227 0.0
C1649 C 0.38717 0.02191 0.35387 0.0
C1650 C 0.40467 0.02815 0.37142 0.0
C1651 C 0.41912 0.02706 0.41323 0.0
C1652 C 0.41699 0.01867 0.43723 0.0
C1653 C 0.40185 0.02045 0.39562 0.0
C1654 C 0.3973 1.00375 0.44392 0.0
C1655 C 0.37938 0.99762 0.42653 0.0
H1656 H -0.00046 0.15132 0.34733 0.0
H1657 H 0.07841 0.15876 0.35596 0.0
H1658 H 0.07814 0.12941 0.38972 0.0
H1659 H 0.05426 0.10459 0.41946 0.0
H1660 H 0.97472 0.09979 0.41072 0.0
H1661 H 0.97647 0.12495 0.37467 0.0
C1662 C 0.01665 0.1463 0.35654 0.0
C1663 C 0.03888 0.15722 0.34959 0.0
C1664 C 0.01615 0.13012 0.37624 0.0
C1665 C 0.06104 0.15065 0.3614 0.0
C1666 C 0.06084 0.13394 0.38066 0.0
C1667 C 0.03737 0.10908 0.40965 0.0
C1668 C 0.01436 0.10072 0.41836 0.0
C1669 C 0.03834 0.12408 0.38877 0.0
C1670 C 0.99269 0.10634 0.405 0.0
C1671 C 0.9936 0.1207 0.38418 0.0
H1672 H 0.85854 0.02263 0.35846 0.0
H1673 H 0.90341 0.08026 0.32998 0.0
H1674 H 0.93061 0.07771 0.36577 0.0
H1675 H 0.94051 0.06009 0.40579 0.0
H1676 H 0.8979 1.00029 0.43291 0.0
H1677 H 0.87046 1.00284 0.39712 0.0
C1678 C 0.87429 0.03459 0.36018 0.0
C1679 C 0.87885 0.05185 0.34194 0.0
C1680 C 0.88988 0.03285 0.38063 0.0
C1681 C 0.89959 0.0669 0.34391 0.0
C1682 C 0.91501 0.06554 0.36439 0.0
C1683 C 0.92495 0.04788 0.40397 0.0
C1684 C 0.92053 0.03055 0.42217 0.0
C1685 C 0.91005 0.04887 0.38302 0.0
C1686 C 0.90113 0.01409 0.41928 0.0
C1687 C 0.88563 0.01547 0.39881 0.0
H1688 H 0.02299 0.87544 0.37683 0.0
H1689 H 0.01646 0.927 0.31777 0.0
H1690 H 0.01874 0.96012 0.34669 0.0
H1691 H 0.01897 0.97484 0.38846 0.0
H1692 H 0.01928 0.92447 0.44851 0.0
H1693 H 0.02312 0.89055 0.41955 0.0
C1694 C 0.02189 0.89389 0.37027 0.0
C1695 C 0.0199 0.89851 0.34495 0.0
C1696 C 0.02213 0.91314 0.3872 0.0
C1697 C 0.01875 0.92267 0.33694 0.0
C1698 C 0.01982 0.94176 0.35352 0.0
C1699 C 0.02034 0.95647 0.3953 0.0
C1700 C 0.01891 0.95213 0.42053 0.0
C1701 C 0.0212 0.93722 0.37863 0.0
C1702 C 0.02034 0.92821 0.42909 0.0
C1703 C 0.02238 0.90885 0.41254 0.0
H1704 H 0.14006 0.03952 0.33166 0.0
H1705 H 0.14096 0.96191 0.33803 0.0
H1706 H 0.11449 0.96447 0.37448 0.0
H1707 H 0.09436 0.98896 0.40595 0.0
H1708 H 0.09532 0.06693 0.401 0.0
H1709 H 0.11796 0.06418 0.36236 0.0
C1710 C 0.13407 0.02328 0.34098 0.0
C1711 C 0.14212 1.0006 0.33265 0.0
C1712 C 0.11959 0.025 0.36211 0.0
C1713 C 0.1347 0.97948 0.34451 0.0
C1714 C 0.11975 0.98097 0.36524 0.0
C1715 C 0.09937 1.00536 0.39634 0.0
C1716 C 0.09351 0.02808 0.40633 0.0
C1717 C 0.1126 1.00366 0.37448 0.0
C1718 C 0.10004 0.04921 0.39375 0.0
C1719 C 0.11285 0.04767 0.37166 0.0
H1720 H 0.00751 0.87575 0.65121 0.0
H1721 H 0.97764 0.92622 0.7044 0.0
H1722 H 0.98244 0.95922 0.67557 0.0
H1723 H -0.00271 0.97431 0.63633 0.0
H1724 H 0.02651 0.92426 0.58251 0.0
H1725 H 0.01879 0.89049 0.61017 0.0
C1726 C 0.0016 0.89386 0.65637 0.0
C1727 C 0.99264 0.89844 0.6802 0.0
C1728 C 0.00414 0.91289 0.63953 0.0
C1729 C 0.98527 0.92216 0.68649 0.0
C1730 C 0.9878 0.94109 0.66992 0.0
C1731 C 0.0017 0.956 0.63046 0.0
C1732 C 0.01275 0.95189 0.60749 0.0
C1733 C -0.00241 0.93674 0.64656 0.0
C1734 C 0.01815 0.92799 0.60018 0.0
C1735 C 0.01385 0.90866 0.61604 0.0
H1736 H 0.17555 0.04892 0.66499 0.0
H1737 H 0.1423 0.98618 0.69778 0.0
H1738 H 0.11516 0.98148 0.66222 0.0
H1739 H 0.10229 0.99443 0.62147 0.0
H1740 H 0.13506 0.05776 0.58901 0.0
H1741 H 0.16166 0.06267 0.62478 0.0
C1742 C 0.16244 0.03416 0.66421 0.0
C1743 C 0.16113 0.01766 0.68354 0.0
C1744 C 0.14724 0.03145 0.64374 0.0
C1745 C 0.1436 0.99902 0.68291 0.0
C1746 C 0.12828 0.99623 0.66258 0.0
C1747 C 0.11561 0.00902 0.62195 0.0
C1748 C 0.11714 0.0254 0.60241 0.0
C1749 C 0.13032 0.01209 0.64272 0.0
C1750 C 0.1339 0.04467 0.60366 0.0
C1751 C 0.14892 0.04762 0.62416 0.0
H1752 H 0.9839 0.13833 0.67573 0.0
H1753 H 0.05096 0.17862 0.66404 0.0
H1754 H 0.06098 0.15372 0.62833 0.0
H1755 H 0.05064 0.12135 0.60016 0.0
H1756 H 0.98417 0.08014 0.61067 0.0
H1757 H 0.97343 0.1048 0.64658 0.0
C1758 C 0.00065 0.14152 0.66526 0.0
C1759 C 0.01667 0.16033 0.67226 0.0
C1760 C 0.0061 0.1273 0.64434 0.0
C1761 C 0.03836 0.16436 0.65876 0.0
C1762 C 0.04405 0.15016 0.63837 0.0
C1763 C 0.03362 0.11783 0.6101 0.0
C1764 C 0.01789 0.09915 0.60225 0.0
C1765 C 0.02797 0.1318 0.63086 0.0
C1766 C 0.99612 0.09483 0.61564 0.0
C1767 C 0.99022 0.10876 0.63648 0.0
H1768 H 0.89244 0.06999 0.69045 0.0
H1769 H 0.91603 1.00122 0.71911 0.0
H1770 H 0.94373 0.99509 0.68386 0.0
H1771 H 0.95491 1.00628 0.64138 0.0
H1772 H 0.92651 0.07345 0.61187 0.0
H1773 H 0.9064 0.08288 0.65044 0.0
C1774 C 0.90454 0.0542 0.68942 0.0
C1775 C 0.90259 0.0362 0.7072 0.0
C1776 C 0.91859 0.05 0.66834 0.0
C1777 C 0.91772 0.01546 0.70566 0.0
C1778 C 0.93306 0.01175 0.68528 0.0
C1779 C 0.94429 0.02292 0.6435 0.0
C1780 C 0.94195 0.03897 0.62376 0.0
C1781 C 0.9325 0.02828 0.66584 0.0
C1782 C 0.9285 0.0607 0.62677 0.0
C1783 C 0.91709 0.06625 0.64887 0.0
H1784 H 0.38489 0.02102 0.1574 0.0
H1785 H 0.33156 0.99343 0.10561 0.0
H1786 H 0.3621 0.99596 0.0729 0.0
H1787 H 0.40334 1.00728 0.05867 0.0
H1788 H 0.45709 0.03437 0.11029 0.0
H1789 H 0.42726 0.02974 0.14357 0.0
C1790 C 0.38007 0.01517 0.13906 0.0
C1791 C 0.35588 1.00726 0.13399 0.0
C1792 C 0.39786 0.01632 0.12032 0.0
C1793 C 0.34987 1.00009 0.10998 0.0
C1794 C 0.36739 1.00131 0.09127 0.0
C1795 C 0.40871 0.01186 0.07724 0.0
C1796 C 0.43238 0.02127 0.08192 0.0
C1797 C 0.39136 0.00957 0.0962 0.0
C1798 C 0.439 0.02704 0.10614 0.0
C1799 C 0.42188 0.02458 0.12517 0.0
H1800 H 0.00048 0.35656 0.12488 0.0
H1801 H 0.06495 0.37669 0.1666 0.0
H1802 H 0.06992 0.41292 0.14161 0.0
H1803 H 0.05471 0.43994 0.10957 0.0
H1804 H 0.98914 0.42136 0.06885 0.0
H1805 H 0.98574 0.3835 0.09158 0.0
C1806 C 0.01566 0.36887 0.12827 0.0
C1807 C 0.03221 0.36427 0.14762 0.0
C1808 C 0.01805 0.38999 0.11417 0.0
C1809 C 0.05187 0.38017 0.15195 0.0
C1810 C 0.05469 0.40083 0.1377 0.0
C1811 C 0.03954 0.42772 0.10577 0.0
C1812 C 0.02214 0.43352 0.08752 0.0
C1813 C 0.0376 0.40619 0.11913 0.0
C1814 C 0.0029 0.41722 0.08257 0.0
C1815 C 0.0009 0.39561 0.09568 0.0
H1816 H 0.63867 0.03571 0.15879 0.0
H1817 H 0.69701 0.06186 0.11184 0.0
H1818 H 0.66991 0.05845 0.07641 0.0
H1819 H 0.63036 0.04654 0.0584 0.0
H1820 H 0.57167 0.02054 0.10497 0.0
H1821 H 0.59791 0.02626 0.14093 0.0
C1822 C 0.64533 0.04102 0.14088 0.0
C1823 C 0.66997 0.04878 0.13804 0.0
C1824 C 0.62953 0.03923 0.12049 0.0
C1825 C 0.67833 0.05532 0.11457 0.0
C1826 C 0.66278 0.05357 0.09427 0.0
C1827 C 0.62313 0.04241 0.07643 0.0
C1828 C 0.59911 0.033 0.07892 0.0
C1829 C 0.63844 0.04532 0.09697 0.0
C1830 C 0.59009 0.02783 0.10248 0.0
C1831 C 0.60514 0.03094 0.12307 0.0
H1832 H 0.98029 0.68396 0.13292 0.0
H1833 H 0.05564 0.68292 0.1594 0.0
H1834 H 0.06544 0.64855 0.1329 0.0
H1835 H 0.05193 0.61679 0.10605 0.0
H1836 H 0.97683 0.61532 0.07882 0.0
H1837 H 0.96742 0.65277 0.10184 0.0
C1838 C -0.00115 0.67625 0.13253 0.0
C1839 C 0.01723 0.68553 0.14827 0.0
C1840 C 0.0042 0.65595 0.11756 0.0
C1841 C 0.04128 0.67577 0.14761 0.0
C1842 C 0.04682 0.65613 0.13255 0.0
C1843 C 0.03336 0.62447 0.10499 0.0
C1844 C 0.01492 0.61278 0.09114 0.0
C1845 C 0.02826 0.64564 0.11814 0.0
C1846 C 0.99118 0.62347 0.08986 0.0
C1847 C 0.98591 0.64499 0.10288 0.0
H1848 H 0.38715 0.99429 0.87632 0.0
H1849 H 0.33927 0.03846 0.92197 0.0
H1850 H 0.37128 0.04072 0.95301 0.0
H1851 H 0.41426 0.03491 0.96496 0.0
H1852 H 0.46423 0.99382 0.91915 0.0
H1853 H 0.43005 0.98499 0.8907 0.0
C1854 C 0.38377 1.00427 0.89313 0.0
C1855 C 0.3608 0.01617 0.89679 0.0
C1856 C 0.40259 1.00592 0.91094 0.0
C1857 C 0.35658 0.02884 0.91878 0.0
C1858 C 0.37493 0.03026 0.93655 0.0
C1859 C 0.41741 0.02334 0.94912 0.0
C1860 C 0.44145 0.01484 0.94407 0.0
C1861 C 0.39811 0.01938 0.93258 0.0
C1862 C 0.44566 1.00018 0.92347 0.0
C1863 C 0.42622 0.9955 0.90707 0.0
H1864 H 0.05173 0.37581 0.87493 0.0
H1865 H 0.97963 0.35088 0.89723 0.0
H1866 H 0.97653 0.38367 0.92728 0.0
H1867 H 0.99234 0.42216 0.94383 0.0
H1868 H 0.06525 0.44611 0.92265 0.0
H1869 H 0.0701 0.41092 0.89594 0.0
C1870 C 0.03541 0.37753 0.88647 0.0
C1871 C 0.0157 0.36129 0.88346 0.0
C1872 C 0.03383 0.39635 0.90386 0.0
C1873 C 0.99497 0.36329 0.89902 0.0
C1874 C 0.99315 0.38208 0.91617 0.0
C1875 C 0.00942 0.41953 0.93361 0.0
C1876 C 0.02814 0.43713 0.93483 0.0
C1877 C 0.01215 0.39915 0.91824 0.0
C1878 C 0.05039 0.43308 0.92188 0.0
C1879 C 0.05316 0.41298 0.90647 0.0
H1880 H 0.69612 0.0259 0.91048 0.0
H1881 H 0.66754 0.0866 0.86969 0.0
H1882 H 0.62889 0.08558 0.89313 0.0
H1883 H 0.60122 0.0645 0.92251 0.0
H1884 H 0.63032 1.00326 0.96215 0.0
H1885 H 0.6705 1.00769 0.94241 0.0
C1886 C 0.68164 0.03921 0.90704 0.0
C1887 C 0.68469 0.05614 0.88817 0.0
C1888 C 0.65932 0.03838 0.92043 0.0
C1889 C 0.66554 0.07309 0.88383 0.0
C1890 C 0.64342 0.07259 0.89731 0.0
C1891 C 0.61661 0.05268 0.92729 0.0
C1892 C 0.61278 0.03363 0.9438 0.0
C1893 C 0.63979 0.05494 0.91531 0.0
C1894 C 0.63282 0.01812 0.94952 0.0
C1895 C 0.65581 0.02051 0.93812 0.0
H1896 H 0.03887 0.68075 0.88098 0.0
H1897 H 0.95973 0.69241 0.88401 0.0
H1898 H 0.95558 0.65913 0.91293 0.0
H1899 H 0.97334 0.62442 0.93295 0.0
H1900 H 0.05224 0.61046 0.93077 0.0
H1901 H 0.0578 0.64735 0.90616 0.0
C1902 C 0.02086 0.67606 0.88832 0.0
C1903 C -0.00051 0.68859 0.88022 0.0
C1904 C 0.0186 0.6565 0.90475 0.0
C1905 C 0.97625 0.68275 0.88989 0.0
C1906 C 0.97392 0.66374 0.90634 0.0
C1907 C 0.99193 0.62925 0.92731 0.0
C1908 C 0.01228 0.61411 0.93316 0.0
C1909 C 0.99481 0.65004 0.91317 0.0
C1910 C 0.03617 0.62138 0.92609 0.0
C1911 C 0.0393 0.64248 0.91203 0.0
H1912 H 0.12165 0.37092 0.05712 0.0
H1913 H 0.14587 0.36187 0.98246 0.0
H1914 H 0.12197 0.39773 0.97029 0.0
H1915 H 0.09675 0.43292 0.98144 0.0
H1916 H 0.07278 0.44292 0.05618 0.0
H1917 H 0.09347 0.40512 0.06779 0.0
C1918 C 0.1214 0.37683 0.03821 0.0
C1919 C 0.13549 0.36421 0.02064 0.0
C1920 C 0.10772 0.39751 0.03144 0.0
C1921 C 0.13513 0.37161 0.99615 0.0
C1922 C 0.12155 0.39204 0.98925 0.0
C1923 C 0.09599 0.42686 1.00029 0.0
C1924 C 0.08339 0.44085 0.01796 0.0
C1925 C 0.10821 0.40538 0.00683 0.0
C1926 C 0.08225 0.43247 0.0422 0.0
C1927 C 0.09423 0.41093 0.04888 0.0
H1928 H 0.11001 0.69176 0.05408 0.0
H1929 H 0.14505 0.69618 0.98326 0.0
H1930 H 0.12556 0.65855 0.97063 0.0
H1931 H 0.1024 0.62317 0.98081 0.0
H1932 H 0.06467 0.61779 0.05008 0.0
H1933 H 0.08161 0.65702 0.06262 0.0
C1934 C 0.11292 0.6845 0.03583 0.0
C1935 C 0.12906 0.69623 0.01958 0.0
C1936 C 0.10174 0.66264 0.02874 0.0
C1937 C 0.13274 0.68714 0.99591 0.0
C1938 C 0.12175 0.66565 0.98878 0.0
C1939 C 0.09774 0.63041 0.99874 0.0
C1940 C 0.08292 0.61706 0.01488 0.0
C1941 C 0.10692 0.65297 0.0053 0.0
C1942 C 0.07689 0.62709 0.0378 0.0
C1943 C 0.08629 0.64973 0.04474 0.0
H1944 H 0.33532 0.13777 0.03469 0.0
H1945 H 0.36385 0.19672 0.99204 0.0
H1946 H 0.40091 0.17285 0.98179 0.0
H1947 H 0.42698 0.13666 0.98828 0.0
H1948 H 0.39965 0.07916 0.03379 0.0
H1949 H 0.36033 0.10069 0.03936 0.0
C1950 C 0.3496 0.14518 0.02296 0.0
C1951 C 0.34723 0.16894 0.01434 0.0
C1952 C 0.37111 0.13166 0.0178 0.0
C1953 C 0.36567 0.17852 0.99914 0.0
C1954 C 0.38676 0.1649 0.99326 0.0
C1955 C 0.41228 0.12884 0.99918 0.0
C1956 C 0.41625 0.10666 0.01091 0.0
C1957 C 0.39 0.14169 0.003 0.0
C1958 C 0.39711 0.09653 0.02497 0.0
C1959 C 0.37461 0.10876 0.02813 0.0
H1960 H 0.89951 0.37742 0.97824 0.0
H1961 H 0.94133 0.34298 0.03588 0.0
H1962 H 0.96778 0.37851 0.03939 0.0
H1963 H 0.97452 0.42163 0.03034 0.0
H1964 H 0.93196 0.45623 0.97347 0.0
H1965 H 0.91078 0.41829 0.96491 0.0
C1966 C 0.91456 0.37766 0.99142 0.0
C1967 C 0.91804 0.35793 0.00722 0.0
C1968 C 0.92945 0.39824 0.99357 0.0
C1969 C 0.93811 0.35807 0.02366 0.0
C1970 C 0.95317 0.37842 0.02577 0.0
C1971 C 0.96072 0.42078 0.01605 0.0
C1972 C 0.95413 0.44192 0.0033 0.0
C1973 C 0.94829 0.39899 0.01153 0.0
C1974 C 0.93706 0.44034 0.98392 0.0
C1975 C 0.92482 0.41867 0.97909 0.0
H1976 H 0.6737 0.87758 0.02863 0.0
H1977 H 0.71839 0.92696 0.98724 0.0
H1978 H 0.68323 0.95555 0.98484 0.0
H1979 H 0.63832 0.96403 0.99093 0.0
H1980 H 0.59423 0.91446 0.03291 0.0
H1981 H 0.63045 0.88791 0.03836 0.0
C1982 C 0.6758 0.89493 0.01965 0.0
C1983 C 0.69836 0.90044 0.00823 0.0
C1984 C 0.65546 0.91073 0.01787 0.0
C1985 C 0.70113 0.92266 0.99635 0.0
C1986 C 0.68098 0.93877 0.99475 0.0
C1987 C 0.63679 0.94736 1.00121 0.0
C1988 C 0.61371 0.94068 0.01103 0.0
C1989 C 0.65782 0.93257 0.00472 0.0
C1990 C 0.61183 0.91956 0.02493 0.0
C1991 C 0.6325 0.90453 0.02812 0.0
H1992 H 0.90963 0.69033 0.97675 0.0
H1993 H 0.88639 0.69494 0.05222 0.0
H1994 H 0.90751 0.65688 0.06112 0.0
H1995 H 0.92985 0.62186 0.04752 0.0
H1996 H 0.95458 0.61483 0.97274 0.0
H1997 H 0.93552 0.65443 0.96326 0.0
C1998 C 0.90968 0.68305 0.99515 0.0
C1999 C 0.89664 0.69528 0.01395 0.0
C2000 C 0.9217 0.66078 1.00009 0.0
C2001 C 0.89648 0.68579 0.03766 0.0
C2002 C 0.90838 0.66401 0.04268 0.0
C2003 C 0.93126 0.62877 0.02902 0.0
C2004 C 0.94353 0.61517 0.01076 0.0
C2005 C 0.92057 0.65122 0.02399 0.0
C2006 C 0.94501 0.62473 0.98702 0.0
C2007 C 0.93421 0.64743 0.98171 0.0
H2008 H 0.32514 0.92186 0.99741 0.0
H2009 H 0.35322 0.87296 0.0524 0.0
H2010 H 0.39144 0.89592 0.0552 0.0
H2011 H 0.41775 0.92792 0.04061 0.0
H2012 H 0.39257 0.97584 0.98357 0.0
H2013 H 0.35208 0.95551 0.98312 0.0
C2014 C 0.33962 0.9165 0.01011 0.0
C2015 C 0.33661 0.89566 0.02453 0.0
C2016 C 0.36193 0.92953 0.01122 0.0
C2017 C 0.35537 0.88874 0.04092 0.0
C2018 C 0.37715 0.90187 0.04257 0.0
C2019 C 0.40333 0.93412 0.02821 0.0
C2020 C 0.40802 0.95328 0.01218 0.0
C2021 C 0.38076 0.92198 0.02757 0.0
C2022 C 0.38934 0.96095 0.99597 0.0
C2023 C 0.36626 0.94937 0.99576 0.0
H2024 H 0.6871 0.17671 0.996 0.0
H2025 H 0.73449 0.1228 0.02911 0.0
H2026 H 0.70047 0.0937 0.02842 0.0
H2027 H 0.65585 0.085 0.02161 0.0
H2028 H 0.60948 0.1392 0.98769 0.0
H2029 H 0.64431 0.16709 0.98599 0.0
C2030 C 0.68993 0.15863 0.00318 0.0
C2031 C 0.71297 0.15206 0.01313 0.0
C2032 C 0.67039 0.1422 0.00284 0.0
C2033 C 0.71675 0.12831 0.02155 0.0
C2034 C 0.69732 0.11173 0.02126 0.0
C2035 C 0.65365 0.10287 0.01371 0.0
C2036 C 0.6304 0.11036 0.00496 0.0
C2037 C 0.67387 0.11868 0.01249 0.0
C2038 C 0.62742 0.1333 0.99449 0.0
C2039 C 0.64723 0.14919 0.99355 0.0
H2040 H 0.52359 0.6302 0.83066 0.0
H2041 H 0.54643 0.69414 0.87006 0.0
H2042 H 0.54598 0.67189 0.90824 0.0
H2043 H 0.53493 0.63568 0.93139 0.0
H2044 H 0.51805 0.56996 0.89241 0.0
H2045 H 0.52055 0.59136 0.85339 0.0
C2046 C 0.52885 0.63923 0.84749 0.0
C2047 C 0.53388 0.66431 0.84741 0.0
C2048 C 0.52929 0.62607 0.86965 0.0
C2049 C 0.54117 0.6753 0.86953 0.0
C2050 C 0.54118 0.66251 0.89147 0.0
C2051 C 0.53205 0.62598 0.91435 0.0
C2052 C 0.52525 0.60156 0.91497 0.0
C2053 C 0.53444 0.63816 0.89191 0.0
C2054 C 0.52249 0.58902 0.89262 0.0
C2055 C 0.524 0.60124 0.87021 0.0
H2056 H 0.43213 0.56532 0.84125 0.0
H2057 H 0.37537 0.51245 0.8539 0.0
H2058 H 0.39496 0.50083 0.8925 0.0
H2059 H 0.42711 0.50688 0.92358 0.0
H2060 H 0.48089 0.56304 0.91379 0.0
H2061 H 0.46425 0.57192 0.87316 0.0
C2062 C 0.42431 0.55114 0.85246 0.0
C2063 C 0.40245 0.53965 0.84491 0.0
C2064 C 0.43525 0.54511 0.8751 0.0
C2065 C 0.39221 0.52146 0.85952 0.0
C2066 C 0.40338 0.51485 0.88155 0.0
C2067 C 0.43527 0.52099 0.91251 0.0
C2068 C 0.45559 0.53403 0.92158 0.0
C2069 C 0.42472 0.52674 0.88969 0.0
C2070 C 0.4656 0.55251 0.90711 0.0
C2071 C 0.45594 0.55767 0.8839 0.0
H2072 H 0.51962 0.41503 0.83702 0.0
H2073 H 0.45417 0.37953 0.86385 0.0
H2074 H 0.45538 0.40379 0.90126 0.0
H2075 H 0.47752 0.43163 0.92841 0.0
H2076 H 0.54493 0.465 0.90352 0.0
H2077 H 0.5402 0.44574 0.86337 0.0
C2078 C 0.50547 0.4129 0.85095 0.0
C2079 C 0.48703 0.39519 0.84782 0.0
C2080 C 0.50671 0.42651 0.8729 0.0
C2081 C 0.46878 0.3927 0.866 0.0
C2082 C 0.46945 0.40661 0.8874 0.0
C2083 C 0.49106 0.43496 0.91415 0.0
C2084 C 0.51172 0.44962 0.9192 0.0
C2085 C 0.48874 0.42302 0.89141 0.0
C2086 C 0.52896 0.45369 0.90032 0.0
C2087 C 0.5263 0.44257 0.87732 0.0
H2088 H 0.59851 0.50334 0.84296 0.0
H2089 H 0.66921 0.51724 0.87695 0.0
H2090 H 0.64864 0.52576 0.91585 0.0
H2091 H 0.61072 0.52892 0.94043 0.0
H2092 H 0.53983 0.51436 0.9072 0.0
H2093 H 0.5602 0.50646 0.86788 0.0
C2094 C 0.60933 0.50829 0.85891 0.0
C2095 C 0.63536 0.5094 0.85717 0.0
C2096 C 0.59736 0.51296 0.88138 0.0
C2097 C 0.6492 0.51582 0.87795 0.0
C2098 C 0.63744 0.52082 0.90017 0.0
C2099 C 0.59973 0.52392 0.92461 0.0
C2100 C 0.57383 0.52199 0.92681 0.0
C2101 C 0.61158 0.51929 0.90215 0.0
C2102 C 0.55984 0.5156 0.9061 0.0
C2103 C 0.57147 0.51124 0.88356 0.0
H2104 H 0.48509 0.37863 0.15154 0.0
H2105 H 0.51828 0.42609 0.20487 0.0
H2106 H 0.52549 0.45628 0.17314 0.0
H2107 H 0.52658 0.46733 0.12906 0.0
H2108 H 0.49251 0.42027 0.07613 0.0
H2109 H 0.48166 0.39184 0.10865 0.0
C2110 C 0.49393 0.39556 0.15625 0.0
C2111 C 0.50147 0.39975 0.18061 0.0
C2112 C 0.49796 0.41296 0.13786 0.0
C2113 C 0.51227 0.42219 0.18637 0.0
C2114 C 0.51651 0.4395 0.16816 0.0
C2115 C 0.51607 0.45121 0.12483 0.0
C2116 C 0.51 0.44604 0.10024 0.0
C2117 C 0.50992 0.43488 0.14371 0.0
C2118 C 0.49685 0.42489 0.09493 0.0
C2119 C 0.49094 0.40849 0.11351 0.0
H2120 H 0.60021 0.5231 0.18994 0.0
H2121 H 0.67035 0.49914 0.16006 0.0
H2122 H 0.65073 0.49056 0.12084 0.0
H2123 H 0.61539 0.49678 0.09308 0.0
H2124 H 0.54548 0.52156 0.12231 0.0
H2125 H 0.56283 0.52231 0.16359 0.0
C2126 C 0.61104 0.51558 0.17495 0.0
C2127 C 0.63684 0.51241 0.17764 0.0
C2128 C 0.5996 0.51077 0.15225 0.0
C2129 C 0.65061 0.50245 0.15816 0.0
C2130 C 0.63937 0.49737 0.13576 0.0
C2131 C 0.60363 0.50093 0.1087 0.0
C2132 C 0.57911 0.50864 0.10472 0.0
C2133 C 0.61408 0.50229 0.13228 0.0
C2134 C 0.56426 0.51491 0.12504 0.0
C2135 C 0.57434 0.51587 0.14861 0.0
H2136 H 0.56416 0.63775 0.18286 0.0
H2137 H 0.49843 0.68243 0.17727 0.0
H2138 H 0.48475 0.6594 0.14173 0.0
H2139 H 0.49222 0.62862 0.11092 0.0
H2140 H 0.55835 0.58427 0.11359 0.0
H2141 H 0.57113 0.60491 0.1515 0.0
C2142 C 0.54682 0.64223 0.17383 0.0
C2143 C 0.53237 0.66194 0.18246 0.0
C2144 C 0.53927 0.62913 0.15281 0.0
C2145 C 0.50992 0.66756 0.17075 0.0
C2146 C 0.5021 0.65439 0.15045 0.0
C2147 C 0.50947 0.62334 0.11972 0.0
C2148 C 0.52442 0.60511 0.10917 0.0
C2149 C 0.51678 0.63549 0.14107 0.0
C2150 C 0.54664 0.59852 0.12104 0.0
C2151 C 0.55389 0.61028 0.14279 0.0
H2152 H 0.43235 0.53437 0.18348 0.0
H2153 H 0.37243 0.57327 0.14873 0.0
H2154 H 0.39707 0.57747 0.11152 0.0
H2155 H 0.43255 0.56387 0.08656 0.0
H2156 H 0.49168 0.52335 0.12047 0.0
H2157 H 0.47104 0.52645 0.16019 0.0
C2158 C 0.42491 0.54404 0.16783 0.0
C2159 C 0.40037 0.55292 0.16849 0.0
C2160 C 0.43913 0.54612 0.14629 0.0
C2161 C 0.39102 0.56565 0.14828 0.0
C2162 C 0.40516 0.56822 0.12707 0.0
C2163 C 0.44144 0.55686 0.1029 0.0
C2164 C 0.46361 0.54363 0.10071 0.0
C2165 C 0.42886 0.55776 0.1255 0.0
C2166 C 0.47472 0.53397 0.12189 0.0
C2167 C 0.46271 0.53535 0.14453 0.0
H2168 H 0.86774 0.50272 0.67524 0.0
H2169 H 0.81743 0.53263 0.6217 0.0
H2170 H 0.85216 0.53955 0.59377 0.0
H2171 H 0.89721 0.53773 0.58503 0.0
H2172 H 0.947 0.50659 0.63811 0.0
H2173 H 0.91217 0.50007 0.66621 0.0
C2174 C 0.86441 0.51101 0.65757 0.0
C2175 C 0.84012 0.51746 0.65073 0.0
C2176 C 0.88442 0.51502 0.64174 0.0
C2177 C 0.83597 0.52748 0.62743 0.0
C2178 C 0.85583 0.53159 0.61152 0.0
C2179 C 0.90033 0.52992 0.60297 0.0
C2180 C 0.92451 0.52326 0.61006 0.0
C2181 C 0.88016 0.52566 0.61861 0.0
C2182 C 0.92852 0.51233 0.63277 0.0
C2183 C 0.90864 0.50846 0.64865 0.0
H2184 H 0.50343 0.85397 0.60658 0.0
H2185 H 0.55287 0.88059 0.66229 0.0
H2186 H 0.55869 0.91793 0.6394 0.0
H2187 H 0.54829 0.94404 0.60493 0.0
H2188 H 0.49774 0.91902 0.54934 0.0
H2189 H 0.49368 0.88037 0.57069 0.0
C2190 C 0.51556 0.86796 0.61353 0.0
C2191 C 0.52754 0.8647 0.63625 0.0
C2192 C 0.51841 0.88981 0.60042 0.0
C2193 C 0.54325 0.88287 0.64503 0.0
C2194 C 0.54657 0.90421 0.63195 0.0
C2195 C 0.53635 0.93019 0.59742 0.0
C2196 C 0.52323 0.93468 0.57562 0.0
C2197 C 0.53395 0.90809 0.60988 0.0
C2198 C 0.50795 0.91629 0.56619 0.0
C2199 C 0.50566 0.89407 0.57838 0.0
H2200 H 0.21558 0.51506 0.61163 0.0
H2201 H 0.19627 0.58061 0.65034 0.0
H2202 H 0.15778 0.58415 0.62703 0.0
H2203 H 0.12782 0.56616 0.59933 0.0
H2204 H 0.14632 0.50028 0.56043 0.0
H2205 H 0.18731 0.49965 0.57955 0.0
C2206 C 0.20314 0.53037 0.61436 0.0
C2207 C 0.20847 0.5476 0.63245 0.0
C2208 C 0.18095 0.53213 0.60105 0.0
C2209 C 0.19242 0.56736 0.6362 0.0
C2210 C 0.17039 0.56927 0.62307 0.0
C2211 C 0.14086 0.55175 0.59482 0.0
C2212 C 0.13383 0.53296 0.579 0.0
C2213 C 0.16415 0.55136 0.60602 0.0
C2214 C 0.1511 0.51465 0.57306 0.0
C2215 C 0.17455 0.51431 0.58391 0.0
H2216 H 0.46239 0.18327 0.62334 0.0
H2217 H 0.5369 0.19946 0.64637 0.0
H2218 H 0.55324 0.16686 0.62057 0.0
H2219 H 0.54638 0.13221 0.59414 0.0
H2220 H 0.47243 0.11439 0.57069 0.0
H2221 H 0.45585 0.14941 0.59332 0.0
C2222 C 0.48218 0.17964 0.62246 0.0
C2223 C 0.4985 0.19344 0.63694 0.0
C2224 C 0.49149 0.1606 0.60756 0.0
C2225 C 0.52409 0.1889 0.63551 0.0
C2226 C 0.5334 0.17026 0.62079 0.0
C2227 C 0.52657 0.13583 0.59387 0.0
C2228 C 0.51064 0.12021 0.58097 0.0
C2229 C 0.51727 0.15569 0.60721 0.0
C2230 C 0.48511 0.1257 0.58069 0.0
C2231 C 0.47564 0.1458 0.59368 0.0
H2232 H 0.82323 0.5374 0.41569 0.0
H2233 H 0.85209 0.4876 0.36168 0.0
H2234 H 0.88994 0.48194 0.38568 0.0
H2235 H 0.91696 0.49559 0.41874 0.0
H2236 H 0.88997 0.54799 0.47109 0.0
H2237 H 0.84914 0.54814 0.45143 0.0
C2238 C 0.8377 0.525 0.40957 0.0
C2239 C 0.83534 0.5131 0.38699 0.0
C2240 C 0.85976 0.52261 0.423 0.0
C2241 C 0.85392 0.49704 0.37899 0.0
C2242 C 0.87548 0.49387 0.39263 0.0
C2243 C 0.90196 0.50674 0.42598 0.0
C2244 C 0.90635 0.52218 0.44581 0.0
C2245 C 0.87898 0.50725 0.41414 0.0
C2246 C 0.88699 0.53655 0.45528 0.0
C2247 C 0.86368 0.5365 0.44416 0.0
H2248 H 0.51741 0.8584 0.41216 0.0
H2249 H 0.57972 0.8821 0.3693 0.0
H2250 H 0.58244 0.919 0.39384 0.0
H2251 H 0.56344 0.9472 0.42333 0.0
H2252 H 0.49996 0.92492 0.46521 0.0
H2253 H 0.50147 0.88498 0.44571 0.0
C2254 C 0.53176 0.87154 0.40851 0.0
C2255 C 0.54804 0.86785 0.38859 0.0
C2256 C 0.53277 0.89318 0.42235 0.0
C2257 C 0.5667 0.88485 0.3842 0.0
C2258 C 0.56826 0.90593 0.39824 0.0
C2259 C 0.55015 0.93351 0.42847 0.0
C2260 C 0.53109 0.93936 0.44517 0.0
C2261 C 0.55081 0.91077 0.41671 0.0
C2262 C 0.51429 0.92118 0.45183 0.0
C2263 C 0.51522 0.89828 0.44072 0.0
H2264 H 0.17895 0.5222 0.35706 0.0
H2265 H 0.21174 0.57398 0.40635 0.0
H2266 H 0.17396 0.57446 0.43117 0.0
H2267 H 0.13092 0.56189 0.43747 0.0
H2268 H 0.09889 0.50794 0.3903 0.0
H2269 H 0.13693 0.50695 0.36548 0.0
C2270 C 0.17773 0.53361 0.37323 0.0
C2271 C 0.19781 0.54842 0.37963 0.0
C2272 C 0.15598 0.53381 0.38734 0.0
C2273 C 0.19644 0.56254 0.40102 0.0
C2274 C 0.1748 0.56296 0.41508 0.0
C2275 C 0.1321 0.55036 0.42138 0.0
C2276 C 0.11184 0.53589 0.41484 0.0
C2277 C 0.15428 0.54914 0.40803 0.0
C2278 C 0.114 0.5199 0.39495 0.0
C2279 C 0.13579 0.51915 0.38102 0.0
H2280 H 0.49949 0.20686 0.41806 0.0
H2281 H 0.51429 0.16929 0.35017 0.0
H2282 H 0.52126 0.13168 0.37221 0.0
H2283 H 0.51729 0.1082 0.40984 0.0
H2284 H 0.50018 0.14441 0.47767 0.0
H2285 H 0.50075 0.18374 0.45703 0.0
C2286 C 0.50457 0.19047 0.40822 0.0
C2287 C 0.50571 0.19068 0.38244 0.0
C2288 C 0.50829 0.16865 0.42107 0.0
C2289 C 0.51255 0.1694 0.36993 0.0
C2290 C 0.51674 0.14791 0.38252 0.0
C2291 C 0.51468 0.12484 0.42017 0.0
C2292 C 0.5091 0.12366 0.44514 0.0
C2293 C 0.51389 0.14713 0.40796 0.0
C2294 C 0.50499 0.14512 0.45842 0.0
C2295 C 0.50497 0.16754 0.44655 0.0
H2296 H 0.62273 0.85509 0.5151 0.0
H2297 H 0.68884 0.89404 0.49513 0.0
H2298 H 0.66497 0.93114 0.49147 0.0
H2299 H 0.62623 0.95292 0.49392 0.0
H2300 H 0.55914 0.91645 0.51492 0.0
H2301 H 0.58231 0.87802 0.51781 0.0
C2302 C 0.63181 0.87174 0.50996 0.0
C2303 C 0.65773 0.87182 0.50578 0.0
C2304 C 0.6178 0.89341 0.50786 0.0
C2305 C 0.66915 0.89352 0.49906 0.0
C2306 C 0.65546 0.91477 0.49673 0.0
C2307 C 0.61648 0.93661 0.49897 0.0
C2308 C 0.59095 0.93763 0.50401 0.0
C2309 C 0.62991 0.91495 0.50109 0.0
C2310 C 0.57881 0.91621 0.51081 0.0
C2311 C 0.59209 0.89424 0.51254 0.0
H2312 H 0.67189 0.15906 0.50748 0.0
H2313 H 0.61822 0.21632 0.52074 0.0
H2314 H 0.58511 0.18686 0.52098 0.0
H2315 H 0.57081 0.14451 0.51541 0.0
H2316 H 0.6252 0.08759 0.50692 0.0
H2317 H 0.65859 0.11717 0.50833 0.0
C2318 C 0.6532 0.16538 0.51119 0.0
C2319 C 0.64815 0.19037 0.51376 0.0
C2320 C 0.63415 0.14818 0.51268 0.0
C2321 C 0.6232 0.19755 0.5178 0.0
C2322 C 0.60403 0.18057 0.51837 0.0
C2323 C 0.59005 0.13857 0.51497 0.0
C2324 C 0.59562 0.1138 0.5118 0.0
C2325 C 0.60925 0.1558 0.51568 0.0
C2326 C 0.62054 0.10643 0.51023 0.0
C2327 C 0.6396 0.1234 0.51058 0.0
H2328 H 0.85493 0.63496 0.47455 0.0
H2329 H 0.87062 0.6858 0.53238 0.0
H2330 H 0.90732 0.66238 0.5441 0.0
H2331 H 0.9349 0.62767 0.53809 0.0
H2332 H 0.92086 0.57717 0.47996 0.0
H2333 H 0.88396 0.60018 0.46772 0.0
C2334 C 0.86649 0.64078 0.48967 0.0
C2335 C 0.86031 0.66207 0.50258 0.0
C2336 C 0.88799 0.62748 0.49597 0.0
C2337 C 0.87526 0.66955 0.52215 0.0
C2338 C 0.89621 0.6562 0.52882 0.0
C2339 C 0.92399 0.6219 0.52247 0.0
C2340 C 0.93088 0.60082 0.50962 0.0
C2341 C 0.90284 0.63527 0.51578 0.0
C2342 C 0.9164 0.59354 0.48964 0.0
C2343 C 0.89506 0.6066 0.48291 0.0
H2344 H 0.40311 0.85992 0.49109 0.0
H2345 H 0.37574 0.87236 0.56419 0.0
H2346 H 0.4029 0.9073 0.56867 0.0
H2347 H 0.43175 0.93627 0.55073 0.0
H2348 H 0.45798 0.92545 0.47686 0.0
H2349 H 0.43435 0.88804 0.47378 0.0
C2350 C 0.40335 0.87025 0.50801 0.0
C2351 C 0.38728 0.86392 0.52723 0.0
C2352 C 0.41869 0.89073 0.51023 0.0
C2353 C 0.38779 0.87719 0.54914 0.0
C2354 C 0.40328 0.89715 0.55166 0.0
C2355 C 0.43231 0.92578 0.53392 0.0
C2356 C 0.44657 0.93388 0.51401 0.0
C2357 C 0.4183 0.90449 0.53212 0.0
C2358 C 0.44728 0.91973 0.49252 0.0
C2359 C 0.43365 0.89832 0.4907 0.0
H2360 H 0.19891 0.41609 0.51536 0.0
H2361 H 0.15204 0.36467 0.55188 0.0
H2362 H 0.11752 0.39361 0.55126 0.0
H2363 H 0.09969 0.4319 0.53686 0.0
H2364 H 0.14652 0.4829 0.49949 0.0
H2365 H 0.18217 0.45602 0.50456 0.0
C2366 C 0.18123 0.41137 0.52348 0.0
C2367 C 0.17784 0.3882 0.53332 0.0
C2368 C 0.16147 0.428 0.52291 0.0
C2369 C 0.15485 0.38225 0.5437 0.0
C2370 C 0.13519 0.39882 0.54351 0.0
C2371 C 0.11777 0.4373 0.53019 0.0
C2372 C 0.12033 0.4591 0.51741 0.0
C2373 C 0.13812 0.42152 0.53264 0.0
C2374 C 0.14395 0.46599 0.50909 0.0
C2375 C 0.16437 0.45061 0.51189 0.0
H2376 H 0.36802 0.16407 0.50364 0.0
H2377 H 0.42363 0.20867 0.53774 0.0
H2378 H 0.45456 0.17671 0.53203 0.0
H2379 H 0.46448 0.13449 0.52209 0.0
H2380 H 0.40869 0.0886 0.49079 0.0
H2381 H 0.37926 0.12276 0.49007 0.0
C2382 C 0.38689 0.16678 0.50984 0.0
C2383 C 0.39335 0.1887 0.52133 0.0
C2384 C 0.40462 0.14818 0.5067 0.0
C2385 C 0.41808 0.19208 0.52877 0.0
C2386 C 0.43582 0.17379 0.52553 0.0
C2387 C 0.44619 0.1323 0.51411 0.0
C2388 C 0.43884 0.10927 0.50601 0.0
C2389 C 0.42917 0.15163 0.51494 0.0
C2390 C 0.41494 0.10634 0.49641 0.0
C2391 C 0.39799 0.12575 0.49651 0.0
H2392 H 0.8391 0.42373 0.50794 0.0
H2393 H 0.88908 0.36314 0.49714 0.0
H2394 H 0.92436 0.39058 0.49663 0.0
H2395 H 0.94123 0.43173 0.50327 0.0
H2396 H 0.89018 0.49196 0.51038 0.0
H2397 H 0.85515 0.4647 0.50761 0.0
C2398 C 0.85758 0.41642 0.50489 0.0
C2399 C 0.86132 0.39126 0.50309 0.0
C2400 C 0.87771 0.43228 0.50402 0.0
C2401 C 0.88561 0.38234 0.49938 0.0
C2402 C 0.90583 0.39804 0.49886 0.0
C2403 C 0.9224 0.43885 0.5037 0.0
C2404 C 0.91829 0.46376 0.50738 0.0
C2405 C 0.90215 0.42303 0.50182 0.0
C2406 C 0.89387 0.47285 0.50758 0.0
C2407 C 0.87377 0.45725 0.50619 0.0
H2408 H 0.18102 0.63778 0.55641 0.0
H2409 H 0.17576 0.67819 0.48927 0.0
H2410 H 0.13895 0.6556 0.47741 0.0
H2411 H 0.10766 0.62576 0.48646 0.0
H2412 H 0.11094 0.58543 0.55355 0.0
H2413 H 0.1489 0.60647 0.5653 0.0
C2414 C 0.17177 0.64141 0.53917 0.0
C2415 C 0.18085 0.65965 0.5237 0.0
C2416 C 0.15018 0.62858 0.53265 0.0
C2417 C 0.1689 0.6643 0.50141 0.0
C2418 C 0.14786 0.65145 0.49469 0.0
C2419 C 0.11646 0.62158 0.50381 0.0
C2420 C 0.10617 0.6039 0.51919 0.0
C2421 C 0.13814 0.63386 0.5103 0.0
C2422 C 0.11813 0.5989 0.54147 0.0
C2423 C 0.14001 0.61094 0.5481 0.0
loop_
_geom_bond_atom_site_label_1
_geom_bond_atom_site_label_2
_geom_bond_distance
_geom_bond_site_symmetry_2
_ccdc_geom_bond_type
C0 C1 1.264 . S
C0 C5 1.479 . S
C0 C10 1.465 . S
C1 C0 1.264 . S
C1 C3 1.339 . S
C1 H28 0.931 . S
C2 C3 1.395 . S
C2 C4 1.320 . S
C3 C1 1.339 . S
C3 C2 1.395 . S
C3 H29 0.929 . S
C4 C2 1.320 . S
C4 C5 1.405 . S
C4 H30 0.930 . S
C5 C0 1.479 . S
C5 C4 1.405 . S
C5 H31 0.931 . S
U6 O7 2.454 . S
U6 O8 2.458 . S
U6 C9 2.984 . S
U6 C10 2.847 . S
U6 C23 2.882 . S
U6 O24 2.441 . S
U6 O25 2.420 . S
U6 O26 2.455 . S
U6 O27 2.449 . S
O7 U6 2.454 . S
O7 C9 1.353 . S
O8 U6 2.458 . S
O8 C9 1.286 . S
C9 U6 2.984 . S
C9 O7 1.353 . S
C9 O8 1.286 . S
C9 C11 1.363 . S
C10 C0 1.465 . S
C10 U6 2.847 . S
C10 O24 1.249 . S
C10 O25 1.202 . S
C11 C9 1.363 . S
C11 C13 1.408 . S
C11 C16 1.342 . S
C12 C13 1.310 . S
C12 C15 1.461 . S
C12 H32 0.932 . S
C13 C11 1.408 . S
C13 C12 1.310 . S
C13 H33 0.930 . S
C14 C15 1.474 . S
C14 C16 1.285 . S
C14 H34 0.929 . S
C15 C12 1.461 . S
C15 C14 1.474 . S
C16 C11 1.342 . S
C16 C14 1.285 . S
C16 H35 0.930 . S
C17 C20 1.424 . S
C17 C22 1.245 . S
C17 C23 1.428 . S
C18 C21 1.260 . S
C18 C22 1.477 . S
C18 H36 0.932 . S
C19 C20 1.384 . S
C19 C21 1.479 . S
C19 H37 0.929 . S
C20 C17 1.424 . S
C20 C19 1.384 . S
C20 H38 0.928 . S
C21 C18 1.260 . S
C21 C19 1.479 . S
C22 C17 1.245 . S
C22 C18 1.477 . S
C22 H39 0.932 . S
C23 U6 2.882 . S
C23 C17 1.428 . S
C23 O26 1.301 . S
C23 O27 1.282 . S
O24 U6 2.441 . S
O24 C10 1.249 . S
O25 U6 2.420 . S
O25 C10 1.202 . S
O26 U6 2.455 . S
O26 C23 1.301 . S
O27 U6 2.449 . S
O27 C23 1.282 . S
H28 C1 0.931 . S
H29 C3 0.929 . S
H30 C4 0.930 . S
H31 C5 0.931 . S
H32 C12 0.932 . S
H33 C13 0.930 . S
H34 C14 0.929 . S
H35 C16 0.930 . S
H36 C18 0.932 . S
H37 C19 0.929 . S
H38 C20 0.928 . S
H39 C22 0.932 . S
C40 C41 1.264 . S
C40 C45 1.479 . S
C40 C50 1.465 . S
C41 C40 1.264 . S
C41 C43 1.339 . S
C41 H68 0.931 . S
C42 C43 1.395 . S
C42 C44 1.320 . S
C43 C41 1.339 . S
C43 C42 1.395 . S
C43 H69 0.929 . S
C44 C42 1.320 . S
C44 C45 1.405 . S
C44 H70 0.930 . S
C45 C40 1.479 . S
C45 C44 1.405 . S
C45 H71 0.931 . S
U46 O47 2.454 . S
U46 O48 2.458 . S
U46 C49 2.984 . S
U46 C50 2.847 . S
U46 C63 2.882 . S
U46 O64 2.441 . S
U46 O65 2.420 . S
U46 O66 2.455 . S
U46 O67 2.449 . S
O47 U46 2.454 . S
O47 C49 1.353 . S
O48 U46 2.458 . S
O48 C49 1.286 . S
C49 U46 2.984 . S
C49 O47 1.353 . S
C49 O48 1.286 . S
C49 C51 1.363 . S
C50 C40 1.465 . S
C50 U46 2.847 . S
C50 O64 1.249 . S
C50 O65 1.202 . S
C51 C49 1.363 . S
C51 C53 1.408 . S
C51 C56 1.342 . S
C52 C53 1.310 . S
C52 C55 1.461 . S
C52 H72 0.932 . S
C53 C51 1.408 . S
C53 C52 1.310 . S
C53 H73 0.930 . S
C54 C55 1.474 . S
C54 C56 1.285 . S
C54 H74 0.929 . S
C55 C52 1.461 . S
C55 C54 1.474 . S
C56 C51 1.342 . S
C56 C54 1.285 . S
C56 H75 0.930 . S
C57 C60 1.424 . S
C57 C62 1.245 . S
C57 C63 1.428 . S
C58 C61 1.260 . S
C58 C62 1.477 . S
C58 H76 0.932 . S
C59 C60 1.384 . S
C59 C61 1.479 . S
C59 H77 0.929 . S
C60 C57 1.424 . S
C60 C59 1.384 . S
C60 H78 0.928 . S
C61 C58 1.260 . S
C61 C59 1.479 . S
C62 C57 1.245 . S
C62 C58 1.477 . S
C62 H79 0.932 . S
C63 U46 2.882 . S
C63 C57 1.428 . S
C63 O66 1.301 . S
C63 O67 1.282 . S
O64 U46 2.441 . S
O64 C50 1.249 . S
O65 U46 2.420 . S
O65 C50 1.202 . S
O66 U46 2.455 . S
O66 C63 1.301 . S
O67 U46 2.449 . S
O67 C63 1.282 . S
H68 C41 0.931 . S
H69 C43 0.929 . S
H70 C44 0.930 . S
H71 C45 0.931 . S
H72 C52 0.932 . S
H73 C53 0.930 . S
H74 C54 0.929 . S
H75 C56 0.930 . S
H76 C58 0.932 . S
H77 C59 0.929 . S
H78 C60 0.928 . S
H79 C62 0.932 . S
C80 C81 1.264 . S
C80 C85 1.479 . S
C80 C90 1.465 . S
C81 C80 1.264 . S
C81 C83 1.339 . S
C81 H108 0.931 . S
C82 C83 1.395 . S
C82 C84 1.320 . S
C83 C81 1.339 . S
C83 C82 1.395 . S
C83 H109 0.929 . S
C84 C82 1.320 . S
C84 C85 1.405 . S
C84 H110 0.930 . S
C85 C80 1.479 . S
C85 C84 1.405 . S
C85 H111 0.931 . S
U86 O87 2.454 . S
U86 O88 2.458 . S
U86 C89 2.984 . S
U86 C90 2.847 . S
U86 C103 2.882 . S
U86 O104 2.441 . S
U86 O105 2.420 . S
U86 O106 2.455 . S
U86 O107 2.449 . S
O87 U86 2.454 . S
O87 C89 1.353 . S
O88 U86 2.458 . S
O88 C89 1.286 . S
C89 U86 2.984 . S
C89 O87 1.353 . S
C89 O88 1.286 . S
C89 C91 1.363 . S
C90 C80 1.465 . S
C90 U86 2.847 . S
C90 O104 1.249 . S
C90 O105 1.202 . S
C91 C89 1.363 . S
C91 C93 1.408 . S
C91 C96 1.342 . S
C92 C93 1.310 . S
C92 C95 1.461 . S
C92 H112 0.932 . S
C93 C91 1.408 . S
C93 C92 1.310 . S
C93 H113 0.930 . S
C94 C95 1.474 . S
C94 C96 1.285 . S
C94 H114 0.929 . S
C95 C92 1.461 . S
C95 C94 1.474 . S
C96 C91 1.342 . S
C96 C94 1.285 . S
C96 H115 0.930 . S
C97 C100 1.424 . S
C97 C102 1.245 . S
C97 C103 1.428 . S
C98 C101 1.260 . S
C98 C102 1.477 . S
C98 H116 0.932 . S
C99 C100 1.384 . S
C99 C101 1.479 . S
C99 H117 0.929 . S
C100 C97 1.424 . S
C100 C99 1.384 . S
C100 H118 0.928 . S
C101 C98 1.260 . S
C101 C99 1.479 . S
C102 C97 1.245 . S
C102 C98 1.477 . S
C102 H119 0.932 . S
C103 U86 2.882 . S
C103 C97 1.428 . S
C103 O106 1.301 . S
C103 O107 1.282 . S
O104 U86 2.441 . S
O104 C90 1.249 . S
O105 U86 2.420 . S
O105 C90 1.202 . S
O106 U86 2.455 . S
O106 C103 1.301 . S
O107 U86 2.449 . S
O107 C103 1.282 . S
H108 C81 0.931 . S
H109 C83 0.929 . S
H110 C84 0.930 . S
H111 C85 0.931 . S
H112 C92 0.932 . S
H113 C93 0.930 . S
H114 C94 0.929 . S
H115 C96 0.930 . S
H116 C98 0.932 . S
H117 C99 0.929 . S
H118 C100 0.928 . S
H119 C102 0.932 . S
C120 C121 1.264 . S
C120 C125 1.479 . S
C120 C130 1.465 . S
C121 C120 1.264 . S
C121 C123 1.339 . S
C121 H148 0.931 . S
C122 C123 1.394 . S
C122 C124 1.320 1_565 S
C123 C121 1.339 . S
C123 C122 1.394 . S
C123 H149 0.929 . S
C124 C122 1.320 1_545 S
C124 C125 1.404 1_545 S
C124 H150 0.931 . S
C125 C120 1.479 . S
C125 C124 1.404 1_565 S
C125 H151 0.931 . S
U126 O127 2.454 . S
U126 O128 2.458 . S
U126 C129 2.984 . S
U126 C130 2.847 . S
U126 C143 2.882 . S
U126 O144 2.441 . S
U126 O145 2.420 . S
U126 O146 2.455 . S
U126 O147 2.449 . S
O127 U126 2.454 . S
O127 C129 1.353 . S
O128 U126 2.458 . S
O128 C129 1.286 . S
C129 U126 2.984 . S
C129 O127 1.353 . S
C129 O128 1.286 . S
C129 C131 1.363 . S
C130 C120 1.465 . S
C130 U126 2.847 . S
C130 O144 1.249 . S
C130 O145 1.202 . S
C131 C129 1.363 . S
C131 C133 1.409 . S
C131 C136 1.342 1_565 S
C132 C133 1.307 1_545 S
C132 C135 1.461 . S
C132 H152 0.932 . S
C133 C131 1.409 . S
C133 C132 1.307 1_565 S
C133 H153 0.934 . S
C134 C135 1.474 . S
C134 C136 1.285 . S
C134 H154 0.929 . S
C135 C132 1.461 . S
C135 C134 1.474 . S
C136 C131 1.342 1_545 S
C136 C134 1.285 . S
C136 H155 0.930 . S
C137 C140 1.424 . S
C137 C142 1.245 . S
C137 C143 1.428 . S
C138 C141 1.258 1_565 S
C138 C142 1.477 . S
C138 H156 0.932 . S
C139 C140 1.384 . S
C139 C141 1.477 1_565 S
C139 H157 0.929 . S
C140 C137 1.424 . S
C140 C139 1.384 . S
C140 H158 0.928 . S
C141 C138 1.258 1_545 S
C141 C139 1.477 1_545 S
C142 C137 1.245 . S
C142 C138 1.477 . S
C142 H159 0.932 . S
C143 U126 2.882 . S
C143 C137 1.428 . S
C143 O146 1.301 . S
C143 O147 1.282 . S
O144 U126 2.441 . S
O144 C130 1.249 . S
O145 U126 2.420 . S
O145 C130 1.202 . S
O146 U126 2.455 . S
O146 C143 1.301 . S
O147 U126 2.449 . S
O147 C143 1.282 . S
H148 C121 0.931 . S
H149 C123 0.929 . S
H150 C124 0.931 . S
H151 C125 0.931 . S
H152 C132 0.932 . S
H153 C133 0.934 . S
H154 C134 0.929 . S
H155 C136 0.930 . S
H156 C138 0.932 . S
H157 C139 0.929 . S
H158 C140 0.928 . S
H159 C142 0.932 . S
C160 C161 1.264 . S
C160 C165 1.479 . S
C160 C170 1.465 . S
C161 C160 1.264 . S
C161 C163 1.339 . S
C161 H188 0.931 . S
C162 C163 1.395 . S
C162 C164 1.320 . S
C163 C161 1.339 . S
C163 C162 1.395 . S
C163 H189 0.929 . S
C164 C162 1.320 . S
C164 C165 1.405 . S
C164 H190 0.930 1_655 S
C165 C160 1.479 . S
C165 C164 1.405 . S
C165 H191 0.931 . S
U166 O167 2.454 . S
U166 O168 2.458 . S
U166 C169 2.984 . S
U166 C170 2.847 . S
U166 C183 2.882 . S
U166 O184 2.441 . S
U166 O185 2.420 . S
U166 O186 2.455 . S
U166 O187 2.449 . S
O167 U166 2.454 . S
O167 C169 1.353 . S
O168 U166 2.458 . S
O168 C169 1.286 . S
C169 U166 2.984 . S
C169 O167 1.353 . S
C169 O168 1.286 . S
C169 C171 1.363 . S
C170 C160 1.465 . S
C170 U166 2.847 . S
C170 O184 1.249 . S
C170 O185 1.202 . S
C171 C169 1.363 . S
C171 C173 1.408 . S
C171 C176 1.342 . S
C172 C173 1.310 . S
C172 C175 1.460 1_655 S
C172 H192 0.934 . S
C173 C171 1.408 . S
C173 C172 1.310 . S
C173 H193 0.930 . S
C174 C175 1.474 . S
C174 C176 1.283 1_455 S
C174 H194 0.934 . S
C175 C172 1.460 1_455 S
C175 C174 1.474 . S
C176 C171 1.342 . S
C176 C174 1.283 1_655 S
C176 H195 0.931 . S
C177 C180 1.424 . S
C177 C182 1.245 . S
C177 C183 1.428 . S
C178 C181 1.260 . S
C178 C182 1.477 . S
C178 H196 0.932 . S
C179 C180 1.384 . S
C179 C181 1.479 . S
C179 H197 0.929 . S
C180 C177 1.424 . S
C180 C179 1.384 . S
C180 H198 0.928 . S
C181 C178 1.260 . S
C181 C179 1.479 . S
C182 C177 1.245 . S
C182 C178 1.477 . S
C182 H199 0.932 . S
C183 U166 2.882 . S
C183 C177 1.428 . S
C183 O186 1.301 . S
C183 O187 1.282 . S
O184 U166 2.441 . S
O184 C170 1.249 . S
O185 U166 2.420 . S
O185 C170 1.202 . S
O186 U166 2.455 . S
O186 C183 1.301 . S
O187 U166 2.449 . S
O187 C183 1.282 . S
H188 C161 0.931 . S
H189 C163 0.929 . S
H190 C164 0.930 1_455 S
H191 C165 0.931 . S
H192 C172 0.934 . S
H193 C173 0.930 . S
H194 C174 0.934 . S
H195 C176 0.931 . S
H196 C178 0.932 . S
H197 C179 0.929 . S
H198 C180 0.928 . S
H199 C182 0.932 . S
C200 C201 1.264 . S
C200 C205 1.479 . S
C200 C210 1.465 . S
C201 C200 1.264 . S
C201 C203 1.339 . S
C201 H228 0.931 . S
C202 C203 1.395 . S
C202 C204 1.320 . S
C203 C201 1.339 . S
C203 C202 1.395 . S
C203 H229 0.929 . S
C204 C202 1.320 . S
C204 C205 1.405 . S
C204 H230 0.930 . S
C205 C200 1.479 . S
C205 C204 1.405 . S
C205 H231 0.931 . S
U206 O207 2.454 . S
U206 O208 2.458 . S
U206 C209 2.984 . S
U206 C210 2.847 . S
U206 C223 2.882 . S
U206 O224 2.441 . S
U206 O225 2.420 . S
U206 O226 2.455 . S
U206 O227 2.449 . S
O207 U206 2.454 . S
O207 C209 1.353 . S
O208 U206 2.458 . S
O208 C209 1.286 . S
C209 U206 2.984 . S
C209 O207 1.353 . S
C209 O208 1.286 . S
C209 C211 1.363 . S
C210 C200 1.465 . S
C210 U206 2.847 . S
C210 O224 1.249 . S
C210 O225 1.202 . S
C211 C209 1.363 . S
C211 C213 1.408 . S
C211 C216 1.342 . S
C212 C213 1.310 . S
C212 C215 1.461 . S
C212 H232 0.932 . S
C213 C211 1.408 . S
C213 C212 1.310 . S
C213 H233 0.930 . S
C214 C215 1.474 . S
C214 C216 1.285 . S
C214 H234 0.929 . S
C215 C212 1.461 . S
C215 C214 1.474 . S
C216 C211 1.342 . S
C216 C214 1.285 . S
C216 H235 0.930 . S
C217 C220 1.424 . S
C217 C222 1.245 . S
C217 C223 1.428 . S
C218 C221 1.260 . S
C218 C222 1.477 . S
C218 H236 0.932 . S
C219 C220 1.384 . S
C219 C221 1.479 . S
C219 H237 0.929 . S
C220 C217 1.424 . S
C220 C219 1.384 . S
C220 H238 0.928 . S
C221 C218 1.260 . S
C221 C219 1.479 . S
C222 C217 1.245 . S
C222 C218 1.477 . S
C222 H239 0.932 . S
C223 U206 2.882 . S
C223 C217 1.428 . S
C223 O226 1.301 . S
C223 O227 1.282 . S
O224 U206 2.441 . S
O224 C210 1.249 . S
O225 U206 2.420 . S
O225 C210 1.202 . S
O226 U206 2.455 . S
O226 C223 1.301 . S
O227 U206 2.449 . S
O227 C223 1.282 . S
H228 C201 0.931 . S
H229 C203 0.929 . S
H230 C204 0.930 . S
H231 C205 0.931 . S
H232 C212 0.932 . S
H233 C213 0.930 . S
H234 C214 0.929 . S
H235 C216 0.930 . S
H236 C218 0.932 . S
H237 C219 0.929 . S
H238 C220 0.928 . S
H239 C222 0.932 . S
C240 C241 1.264 . S
C240 C245 1.479 . S
C240 C250 1.465 . S
C241 C240 1.264 . S
C241 C243 1.339 . S
C241 H268 0.931 . S
C242 C243 1.395 . S
C242 C244 1.320 . S
C243 C241 1.339 . S
C243 C242 1.395 . S
C243 H269 0.929 . S
C244 C242 1.320 . S
C244 C245 1.405 . S
C244 H270 0.930 . S
C245 C240 1.479 . S
C245 C244 1.405 . S
C245 H271 0.931 . S
U246 O247 2.454 . S
U246 O248 2.458 . S
U246 C249 2.984 . S
U246 C250 2.847 . S
U246 C263 2.882 . S
U246 O264 2.441 . S
U246 O265 2.420 . S
U246 O266 2.455 . S
U246 O267 2.449 . S
O247 U246 2.454 . S
O247 C249 1.353 . S
O248 U246 2.458 . S
O248 C249 1.286 . S
C249 U246 2.984 . S
C249 O247 1.353 . S
C249 O248 1.286 . S
C249 C251 1.363 . S
C250 C240 1.465 . S
C250 U246 2.847 . S
C250 O264 1.249 . S
C250 O265 1.202 . S
C251 C249 1.363 . S
C251 C253 1.408 . S
C251 C256 1.342 . S
C252 C253 1.310 . S
C252 C255 1.461 . S
C252 H272 0.932 . S
C253 C251 1.408 . S
C253 C252 1.310 . S
C253 H273 0.930 . S
C254 C255 1.474 . S
C254 C256 1.285 . S
C254 H274 0.929 . S
C255 C252 1.461 . S
C255 C254 1.474 . S
C256 C251 1.342 . S
C256 C254 1.285 . S
C256 H275 0.930 . S
C257 C260 1.424 . S
C257 C262 1.245 . S
C257 C263 1.428 . S
C258 C261 1.260 . S
C258 C262 1.477 . S
C258 H276 0.932 . S
C259 C260 1.384 . S
C259 C261 1.479 . S
C259 H277 0.929 . S
C260 C257 1.424 . S
C260 C259 1.384 . S
C260 H278 0.928 . S
C261 C258 1.260 . S
C261 C259 1.479 . S
C262 C257 1.245 . S
C262 C258 1.477 . S
C262 H279 0.932 . S
C263 U246 2.882 . S
C263 C257 1.428 . S
C263 O266 1.301 . S
C263 O267 1.282 . S
O264 U246 2.441 . S
O264 C250 1.249 . S
O265 U246 2.420 . S
O265 C250 1.202 . S
O266 U246 2.455 . S
O266 C263 1.301 . S
O267 U246 2.449 . S
O267 C263 1.282 . S
H268 C241 0.931 . S
H269 C243 0.929 . S
H270 C244 0.930 . S
H271 C245 0.931 . S
H272 C252 0.932 . S
H273 C253 0.930 . S
H274 C254 0.929 . S
H275 C256 0.930 . S
H276 C258 0.932 . S
H277 C259 0.929 . S
H278 C260 0.928 . S
H279 C262 0.932 . S
C280 C281 1.264 . S
C280 C285 1.479 . S
C280 C290 1.465 . S
C281 C280 1.264 . S
C281 C283 1.339 . S
C281 H308 0.931 . S
C282 C283 1.395 . S
C282 C284 1.320 . S
C283 C281 1.339 . S
C283 C282 1.395 . S
C283 H309 0.929 . S
C284 C282 1.320 . S
C284 C285 1.405 . S
C284 H310 0.930 . S
C285 C280 1.479 . S
C285 C284 1.405 . S
C285 H311 0.931 . S
U286 O287 2.454 . S
U286 O288 2.458 . S
U286 C289 2.984 . S
U286 C290 2.847 . S
U286 C303 2.882 . S
U286 O304 2.441 . S
U286 O305 2.420 . S
U286 O306 2.455 . S
U286 O307 2.449 . S
O287 U286 2.454 . S
O287 C289 1.353 . S
O288 U286 2.458 . S
O288 C289 1.286 . S
C289 U286 2.984 . S
C289 O287 1.353 . S
C289 O288 1.286 . S
C289 C291 1.363 . S
C290 C280 1.465 . S
C290 U286 2.847 . S
C290 O304 1.249 . S
C290 O305 1.202 . S
C291 C289 1.363 . S
C291 C293 1.408 . S
C291 C296 1.342 . S
C292 C293 1.310 . S
C292 C295 1.461 . S
C292 H312 0.932 . S
C293 C291 1.408 . S
C293 C292 1.310 . S
C293 H313 0.930 . S
C294 C295 1.474 . S
C294 C296 1.285 . S
C294 H314 0.929 . S
C295 C292 1.461 . S
C295 C294 1.474 . S
C296 C291 1.342 . S
C296 C294 1.285 . S
C296 H315 0.930 . S
C297 C300 1.424 . S
C297 C302 1.245 . S
C297 C303 1.428 . S
C298 C301 1.260 . S
C298 C302 1.477 . S
C298 H316 0.932 . S
C299 C300 1.384 . S
C299 C301 1.479 . S
C299 H317 0.929 . S
C300 C297 1.424 . S
C300 C299 1.384 . S
C300 H318 0.928 . S
C301 C298 1.260 . S
C301 C299 1.479 . S
C302 C297 1.245 . S
C302 C298 1.477 . S
C302 H319 0.932 . S
C303 U286 2.882 . S
C303 C297 1.428 . S
C303 O306 1.301 . S
C303 O307 1.282 . S
O304 U286 2.441 . S
O304 C290 1.249 . S
O305 U286 2.420 . S
O305 C290 1.202 . S
O306 U286 2.455 . S
O306 C303 1.301 . S
O307 U286 2.449 . S
O307 C303 1.282 . S
H308 C281 0.931 . S
H309 C283 0.929 . S
H310 C284 0.930 . S
H311 C285 0.931 . S
H312 C292 0.932 . S
H313 C293 0.930 . S
H314 C294 0.929 . S
H315 C296 0.930 . S
H316 C298 0.932 . S
H317 C299 0.929 . S
H318 C300 0.928 . S
H319 C302 0.932 . S
C320 C321 1.264 . S
C320 C325 1.479 . S
C320 C330 1.465 . S
C321 C320 1.264 . S
C321 C323 1.339 . S
C321 H348 0.931 . S
C322 C323 1.395 . S
C322 C324 1.320 . S
C323 C321 1.339 . S
C323 C322 1.395 . S
C323 H349 0.929 . S
C324 C322 1.320 . S
C324 C325 1.405 . S
C324 H350 0.930 . S
C325 C320 1.479 . S
C325 C324 1.405 . S
C325 H351 0.931 . S
U326 O327 2.454 . S
U326 O328 2.458 . S
U326 C329 2.984 . S
U326 C330 2.847 . S
U326 C343 2.882 . S
U326 O344 2.441 . S
U326 O345 2.420 . S
U326 O346 2.455 . S
U326 O347 2.449 . S
O327 U326 2.454 . S
O327 C329 1.353 . S
O328 U326 2.458 . S
O328 C329 1.286 . S
C329 U326 2.984 . S
C329 O327 1.353 . S
C329 O328 1.286 . S
C329 C331 1.363 . S
C330 C320 1.465 . S
C330 U326 2.847 . S
C330 O344 1.249 . S
C330 O345 1.202 . S
C331 C329 1.363 . S
C331 C333 1.408 . S
C331 C336 1.342 . S
C332 C333 1.310 . S
C332 C335 1.461 . S
C332 H352 0.932 . S
C333 C331 1.408 . S
C333 C332 1.310 . S
C333 H353 0.930 . S
C334 C335 1.474 . S
C334 C336 1.285 . S
C334 H354 0.929 . S
C335 C332 1.461 . S
C335 C334 1.474 . S
C336 C331 1.342 . S
C336 C334 1.285 . S
C336 H355 0.930 . S
C337 C340 1.424 . S
C337 C342 1.245 . S
C337 C343 1.428 . S
C338 C341 1.260 . S
C338 C342 1.477 . S
C338 H356 0.932 . S
C339 C340 1.384 . S
C339 C341 1.479 . S
C339 H357 0.929 . S
C340 C337 1.424 . S
C340 C339 1.384 . S
C340 H358 0.928 . S
C341 C338 1.260 . S
C341 C339 1.479 . S
C342 C337 1.245 . S
C342 C338 1.477 . S
C342 H359 0.932 . S
C343 U326 2.882 . S
C343 C337 1.428 . S
C343 O346 1.301 . S
C343 O347 1.282 . S
O344 U326 2.441 . S
O344 C330 1.249 . S
O345 U326 2.420 . S
O345 C330 1.202 . S
O346 U326 2.455 . S
O346 C343 1.301 . S
O347 U326 2.449 . S
O347 C343 1.282 . S
H348 C321 0.931 . S
H349 C323 0.929 . S
H350 C324 0.930 . S
H351 C325 0.931 . S
H352 C332 0.932 . S
H353 C333 0.930 . S
H354 C334 0.929 . S
H355 C336 0.930 . S
H356 C338 0.932 . S
H357 C339 0.929 . S
H358 C340 0.928 . S
H359 C342 0.932 . S
C360 C361 1.264 . S
C360 C365 1.479 . S
C360 C370 1.465 . S
C361 C360 1.264 . S
C361 C363 1.339 . S
C361 H388 0.931 . S
C362 C363 1.395 . S
C362 C364 1.320 . S
C363 C361 1.339 . S
C363 C362 1.395 . S
C363 H389 0.929 . S
C364 C362 1.320 . S
C364 C365 1.405 . S
C364 H390 0.930 . S
C365 C360 1.479 . S
C365 C364 1.405 . S
C365 H391 0.931 . S
U366 O367 2.454 . S
U366 O368 2.458 . S
U366 C369 2.984 . S
U366 C370 2.847 . S
U366 C383 2.882 . S
U366 O384 2.441 . S
U366 O385 2.420 . S
U366 O386 2.455 . S
U366 O387 2.449 . S
O367 U366 2.454 . S
O367 C369 1.353 . S
O368 U366 2.458 . S
O368 C369 1.286 . S
C369 U366 2.984 . S
C369 O367 1.353 . S
C369 O368 1.286 . S
C369 C371 1.363 . S
C370 C360 1.465 . S
C370 U366 2.847 . S
C370 O384 1.249 . S
C370 O385 1.202 . S
C371 C369 1.363 . S
C371 C373 1.408 . S
C371 C376 1.342 . S
C372 C373 1.310 . S
C372 C375 1.461 . S
C372 H392 0.932 . S
C373 C371 1.408 . S
C373 C372 1.310 . S
C373 H393 0.930 . S
C374 C375 1.474 . S
C374 C376 1.285 . S
C374 H394 0.929 . S
C375 C372 1.461 . S
C375 C374 1.474 . S
C376 C371 1.342 . S
C376 C374 1.285 . S
C376 H395 0.930 . S
C377 C380 1.424 . S
C377 C382 1.245 . S
C377 C383 1.428 . S
C378 C381 1.260 . S
C378 C382 1.477 . S
C378 H396 0.932 . S
C379 C380 1.384 . S
C379 C381 1.479 . S
C379 H397 0.929 . S
C380 C377 1.424 . S
C380 C379 1.384 . S
C380 H398 0.928 . S
C381 C378 1.260 . S
C381 C379 1.479 . S
C382 C377 1.245 . S
C382 C378 1.477 . S
C382 H399 0.932 . S
C383 U366 2.882 . S
C383 C377 1.428 . S
C383 O386 1.301 . S
C383 O387 1.282 . S
O384 U366 2.441 . S
O384 C370 1.249 . S
O385 U366 2.420 . S
O385 C370 1.202 . S
O386 U366 2.455 . S
O386 C383 1.301 . S
O387 U366 2.449 . S
O387 C383 1.282 . S
H388 C361 0.931 . S
H389 C363 0.929 . S
H390 C364 0.930 . S
H391 C365 0.931 . S
H392 C372 0.932 . S
H393 C373 0.930 . S
H394 C374 0.929 . S
H395 C376 0.930 . S
H396 C378 0.932 . S
H397 C379 0.929 . S
H398 C380 0.928 . S
H399 C382 0.932 . S
C400 C401 1.264 . S
C400 C405 1.479 . S
C400 C410 1.465 . S
C401 C400 1.264 . S
C401 C403 1.339 . S
C401 H428 0.931 . S
C402 C403 1.395 . S
C402 C404 1.320 . S
C403 C401 1.339 . S
C403 C402 1.395 . S
C403 H429 0.929 . S
C404 C402 1.320 . S
C404 C405 1.405 . S
C404 H430 0.940 . S
C405 C400 1.479 . S
C405 C404 1.405 . S
C405 H431 0.931 . S
U406 O407 2.454 . S
U406 O408 2.458 . S
U406 C409 2.984 . S
U406 C410 2.847 . S
U406 C423 2.882 . S
U406 O424 2.441 . S
U406 O425 2.420 . S
U406 O426 2.455 . S
U406 O427 2.449 . S
O407 U406 2.454 . S
O407 C409 1.353 . S
O408 U406 2.458 . S
O408 C409 1.286 . S
C409 U406 2.984 . S
C409 O407 1.353 . S
C409 O408 1.286 . S
C409 C411 1.363 . S
C410 C400 1.465 . S
C410 U406 2.847 . S
C410 O424 1.249 . S
C410 O425 1.202 . S
C411 C409 1.363 . S
C411 C413 1.408 . S
C411 C416 1.342 . S
C412 C413 1.310 . S
C412 C415 1.461 . S
C412 H432 0.932 . S
C413 C411 1.408 . S
C413 C412 1.310 . S
C413 H433 0.930 . S
C414 C415 1.474 . S
C414 C416 1.285 . S
C414 H434 0.932 . S
C415 C412 1.461 . S
C415 C414 1.474 . S
C416 C411 1.342 . S
C416 C414 1.285 . S
C416 H435 0.930 . S
C417 C420 1.424 . S
C417 C422 1.245 . S
C417 C423 1.428 . S
C418 C421 1.260 . S
C418 C422 1.477 . S
C418 H436 0.932 . S
C419 C420 1.384 . S
C419 C421 1.479 . S
C419 H437 0.929 . S
C420 C417 1.424 . S
C420 C419 1.384 . S
C420 H438 0.928 . S
C421 C418 1.260 . S
C421 C419 1.479 . S
C422 C417 1.245 . S
C422 C418 1.477 . S
C422 H439 0.932 . S
C423 U406 2.882 . S
C423 C417 1.428 . S
C423 O426 1.301 . S
C423 O427 1.282 . S
O424 U406 2.441 . S
O424 C410 1.249 . S
O425 U406 2.420 . S
O425 C410 1.202 . S
O426 U406 2.455 . S
O426 C423 1.301 . S
O427 U406 2.449 . S
O427 C423 1.282 . S
H428 C401 0.931 . S
H429 C403 0.929 . S
H430 C404 0.940 . S
H431 C405 0.931 . S
H432 C412 0.932 . S
H433 C413 0.930 . S
H434 C414 0.932 . S
H435 C416 0.930 . S
H436 C418 0.932 . S
H437 C419 0.929 . S
H438 C420 0.928 . S
H439 C422 0.932 . S
C440 C441 1.264 . S
C440 C445 1.479 . S
C440 C450 1.465 . S
C441 C440 1.264 . S
C441 C443 1.339 . S
C441 H468 0.931 . S
C442 C443 1.395 . S
C442 C444 1.320 . S
C443 C441 1.339 . S
C443 C442 1.395 . S
C443 H469 0.929 . S
C444 C442 1.320 . S
C444 C445 1.405 . S
C444 H470 0.930 . S
C445 C440 1.479 . S
C445 C444 1.405 . S
C445 H471 0.931 . S
U446 O447 2.454 . S
U446 O448 2.458 . S
U446 C449 2.984 . S
U446 C450 2.847 . S
U446 C463 2.882 . S
U446 O464 2.441 . S
U446 O465 2.420 . S
U446 O466 2.455 . S
U446 O467 2.449 . S
O447 U446 2.454 . S
O447 C449 1.353 . S
O448 U446 2.458 . S
O448 C449 1.286 . S
C449 U446 2.984 . S
C449 O447 1.353 . S
C449 O448 1.286 . S
C449 C451 1.363 . S
C450 C440 1.465 . S
C450 U446 2.847 . S
C450 O464 1.249 . S
C450 O465 1.202 . S
C451 C449 1.363 . S
C451 C453 1.408 . S
C451 C456 1.342 . S
C452 C453 1.310 . S
C452 C455 1.461 . S
C452 H472 0.932 . S
C453 C451 1.408 . S
C453 C452 1.310 . S
C453 H473 0.930 . S
C454 C455 1.474 . S
C454 C456 1.285 . S
C454 H474 0.929 . S
C455 C452 1.461 . S
C455 C454 1.474 . S
C456 C451 1.342 . S
C456 C454 1.285 . S
C456 H475 0.930 . S
C457 C460 1.424 . S
C457 C462 1.245 . S
C457 C463 1.428 . S
C458 C461 1.260 . S
C458 C462 1.477 . S
C458 H476 0.932 . S
C459 C460 1.384 . S
C459 C461 1.479 . S
C459 H477 0.929 . S
C460 C457 1.424 . S
C460 C459 1.384 . S
C460 H478 0.928 . S
C461 C458 1.260 . S
C461 C459 1.479 . S
C462 C457 1.245 . S
C462 C458 1.477 . S
C462 H479 0.932 . S
C463 U446 2.882 . S
C463 C457 1.428 . S
C463 O466 1.301 . S
C463 O467 1.282 . S
O464 U446 2.441 . S
O464 C450 1.249 . S
O465 U446 2.420 . S
O465 C450 1.202 . S
O466 U446 2.455 . S
O466 C463 1.301 . S
O467 U446 2.449 . S
O467 C463 1.282 . S
H468 C441 0.931 . S
H469 C443 0.929 . S
H470 C444 0.930 . S
H471 C445 0.931 . S
H472 C452 0.932 . S
H473 C453 0.930 . S
H474 C454 0.929 . S
H475 C456 0.930 . S
H476 C458 0.932 . S
H477 C459 0.929 . S
H478 C460 0.928 . S
H479 C462 0.932 . S
C480 C481 1.264 . S
C480 C485 1.479 . S
C480 C490 1.465 . S
C481 C480 1.264 . S
C481 C483 1.339 . S
C481 H508 0.931 . S
C482 C483 1.395 . S
C482 C484 1.320 . S
C483 C481 1.339 . S
C483 C482 1.395 . S
C483 H509 0.929 . S
C484 C482 1.320 . S
C484 C485 1.405 . S
C484 H510 0.930 . S
C485 C480 1.479 . S
C485 C484 1.405 . S
C485 H511 0.931 . S
U486 O487 2.454 . S
U486 O488 2.458 . S
U486 C489 2.984 . S
U486 C490 2.847 . S
U486 C503 2.882 . S
U486 O504 2.441 . S
U486 O505 2.420 . S
U486 O506 2.455 . S
U486 O507 2.449 . S
O487 U486 2.454 . S
O487 C489 1.353 . S
O488 U486 2.458 . S
O488 C489 1.286 . S
C489 U486 2.984 . S
C489 O487 1.353 . S
C489 O488 1.286 . S
C489 C491 1.363 . S
C490 C480 1.465 . S
C490 U486 2.847 . S
C490 O504 1.249 . S
C490 O505 1.202 . S
C491 C489 1.363 . S
C491 C493 1.408 . S
C491 C496 1.342 . S
C492 C493 1.310 . S
C492 C495 1.461 . S
C492 H512 0.932 . S
C493 C491 1.408 . S
C493 C492 1.310 . S
C493 H513 0.930 . S
C494 C495 1.474 . S
C494 C496 1.285 . S
C494 H514 0.929 . S
C495 C492 1.461 . S
C495 C494 1.474 . S
C496 C491 1.342 . S
C496 C494 1.285 . S
C496 H515 0.930 . S
C497 C500 1.424 . S
C497 C502 1.245 . S
C497 C503 1.428 . S
C498 C501 1.260 . S
C498 C502 1.477 . S
C498 H516 0.932 . S
C499 C500 1.384 . S
C499 C501 1.479 . S
C499 H517 0.929 . S
C500 C497 1.424 . S
C500 C499 1.384 . S
C500 H518 0.928 . S
C501 C498 1.260 . S
C501 C499 1.479 . S
C502 C497 1.245 . S
C502 C498 1.477 . S
C502 H519 0.932 . S
C503 U486 2.882 . S
C503 C497 1.428 . S
C503 O506 1.301 . S
C503 O507 1.282 . S
O504 U486 2.441 . S
O504 C490 1.249 . S
O505 U486 2.420 . S
O505 C490 1.202 . S
O506 U486 2.455 . S
O506 C503 1.301 . S
O507 U486 2.449 . S
O507 C503 1.282 . S
H508 C481 0.931 . S
H509 C483 0.929 . S
H510 C484 0.930 . S
H511 C485 0.931 . S
H512 C492 0.932 . S
H513 C493 0.930 . S
H514 C494 0.929 . S
H515 C496 0.930 . S
H516 C498 0.932 . S
H517 C499 0.929 . S
H518 C500 0.928 . S
H519 C502 0.932 . S
C520 C521 1.264 . S
C520 C525 1.479 . S
C520 C530 1.465 . S
C521 C520 1.264 . S
C521 C523 1.339 . S
C521 H548 0.931 . S
C522 C523 1.395 . S
C522 C524 1.320 . S
C523 C521 1.339 . S
C523 C522 1.395 . S
C523 H549 0.929 . S
C524 C522 1.320 . S
C524 C525 1.405 . S
C524 H550 0.930 . S
C525 C520 1.479 . S
C525 C524 1.405 . S
C525 H551 0.931 . S
U526 O527 2.454 . S
U526 O528 2.458 . S
U526 C529 2.984 . S
U526 C530 2.847 . S
U526 C543 2.882 . S
U526 O544 2.441 . S
U526 O545 2.420 . S
U526 O546 2.455 . S
U526 O547 2.449 . S
O527 U526 2.454 . S
O527 C529 1.353 . S
O528 U526 2.458 . S
O528 C529 1.286 . S
C529 U526 2.984 . S
C529 O527 1.353 . S
C529 O528 1.286 . S
C529 C531 1.363 . S
C530 C520 1.465 . S
C530 U526 2.847 . S
C530 O544 1.249 . S
C530 O545 1.202 . S
C531 C529 1.363 . S
C531 C533 1.408 . S
C531 C536 1.342 . S
C532 C533 1.310 . S
C532 C535 1.461 . S
C532 H552 0.932 . S
C533 C531 1.408 . S
C533 C532 1.310 . S
C533 H553 0.930 . S
C534 C535 1.474 . S
C534 C536 1.285 . S
C534 H554 0.929 . S
C535 C532 1.461 . S
C535 C534 1.474 . S
C536 C531 1.342 . S
C536 C534 1.285 . S
C536 H555 0.930 . S
C537 C540 1.424 . S
C537 C542 1.245 . S
C537 C543 1.428 . S
C538 C541 1.260 . S
C538 C542 1.477 . S
C538 H556 0.932 . S
C539 C540 1.384 . S
C539 C541 1.479 . S
C539 H557 0.929 . S
C540 C537 1.424 . S
C540 C539 1.384 . S
C540 H558 0.928 . S
C541 C538 1.260 . S
C541 C539 1.479 . S
C542 C537 1.245 . S
C542 C538 1.477 . S
C542 H559 0.932 . S
C543 U526 2.882 . S
C543 C537 1.428 . S
C543 O546 1.301 . S
C543 O547 1.282 . S
O544 U526 2.441 . S
O544 C530 1.249 . S
O545 U526 2.420 . S
O545 C530 1.202 . S
O546 U526 2.455 . S
O546 C543 1.301 . S
O547 U526 2.449 . S
O547 C543 1.282 . S
H548 C521 0.931 . S
H549 C523 0.929 . S
H550 C524 0.930 . S
H551 C525 0.931 . S
H552 C532 0.932 . S
H553 C533 0.930 . S
H554 C534 0.929 . S
H555 C536 0.930 . S
H556 C538 0.932 . S
H557 C539 0.929 . S
H558 C540 0.928 . S
H559 C542 0.932 . S
C560 C561 1.264 . S
C560 C565 1.479 . S
C560 C570 1.465 . S
C561 C560 1.264 . S
C561 C563 1.339 . S
C561 H588 0.931 . S
C562 C563 1.395 . S
C562 C564 1.320 . S
C563 C561 1.339 . S
C563 C562 1.395 . S
C563 H589 0.929 . S
C564 C562 1.320 . S
C564 C565 1.405 . S
C564 H590 0.930 . S
C565 C560 1.479 . S
C565 C564 1.405 . S
C565 H591 0.931 . S
U566 O567 2.454 . S
U566 O568 2.458 . S
U566 C569 2.984 . S
U566 C570 2.847 . S
U566 C583 2.882 . S
U566 O584 2.441 . S
U566 O585 2.420 . S
U566 O586 2.455 . S
U566 O587 2.449 . S
O567 U566 2.454 . S
O567 C569 1.353 . S
O568 U566 2.458 . S
O568 C569 1.286 . S
C569 U566 2.984 . S
C569 O567 1.353 . S
C569 O568 1.286 . S
C569 C571 1.363 . S
C570 C560 1.465 . S
C570 U566 2.847 . S
C570 O584 1.249 . S
C570 O585 1.202 . S
C571 C569 1.363 . S
C571 C573 1.408 . S
C571 C576 1.342 . S
C572 C573 1.310 . S
C572 C575 1.461 . S
C572 H592 0.932 . S
C573 C571 1.408 . S
C573 C572 1.310 . S
C573 H593 0.930 . S
C574 C575 1.474 . S
C574 C576 1.285 . S
C574 H594 0.929 . S
C575 C572 1.461 . S
C575 C574 1.474 . S
C576 C571 1.342 . S
C576 C574 1.285 . S
C576 H595 0.930 . S
C577 C580 1.424 . S
C577 C582 1.245 . S
C577 C583 1.428 . S
C578 C581 1.260 . S
C578 C582 1.477 . S
C578 H596 0.932 . S
C579 C580 1.384 . S
C579 C581 1.479 . S
C579 H597 0.929 . S
C580 C577 1.424 . S
C580 C579 1.384 . S
C580 H598 0.928 . S
C581 C578 1.260 . S
C581 C579 1.479 . S
C582 C577 1.245 . S
C582 C578 1.477 . S
C582 H599 0.932 . S
C583 U566 2.882 . S
C583 C577 1.428 . S
C583 O586 1.301 . S
C583 O587 1.282 . S
O584 U566 2.441 . S
O584 C570 1.249 . S
O585 U566 2.420 . S
O585 C570 1.202 . S
O586 U566 2.455 . S
O586 C583 1.301 . S
O587 U566 2.449 . S
O587 C583 1.282 . S
H588 C561 0.931 . S
H589 C563 0.929 . S
H590 C564 0.930 . S
H591 C565 0.931 . S
H592 C572 0.932 . S
H593 C573 0.930 . S
H594 C574 0.929 . S
H595 C576 0.930 . S
H596 C578 0.932 . S
H597 C579 0.929 . S
H598 C580 0.928 . S
H599 C582 0.932 . S
C600 C601 1.264 . S
C600 C605 1.479 . S
C600 C610 1.465 . S
C601 C600 1.264 . S
C601 C603 1.339 . S
C601 H628 0.931 . S
C602 C603 1.395 . S
C602 C604 1.320 . S
C603 C601 1.339 . S
C603 C602 1.395 . S
C603 H629 0.929 . S
C604 C602 1.320 . S
C604 C605 1.405 . S
C604 H630 0.930 . S
C605 C600 1.479 . S
C605 C604 1.405 . S
C605 H631 0.931 . S
U606 O607 2.454 . S
U606 O608 2.458 . S
U606 C609 2.984 . S
U606 C610 2.847 . S
U606 C623 2.882 . S
U606 O624 2.441 . S
U606 O625 2.420 . S
U606 O626 2.455 . S
U606 O627 2.449 . S
O607 U606 2.454 . S
O607 C609 1.353 . S
O608 U606 2.458 . S
O608 C609 1.286 . S
C609 U606 2.984 . S
C609 O607 1.353 . S
C609 O608 1.286 . S
C609 C611 1.363 . S
C610 C600 1.465 . S
C610 U606 2.847 . S
C610 O624 1.249 . S
C610 O625 1.202 . S
C611 C609 1.363 . S
C611 C613 1.408 . S
C611 C616 1.342 . S
C612 C613 1.310 . S
C612 C615 1.461 . S
C612 H632 0.932 . S
C613 C611 1.408 . S
C613 C612 1.310 . S
C613 H633 0.930 . S
C614 C615 1.474 . S
C614 C616 1.285 . S
C614 H634 0.929 . S
C615 C612 1.461 . S
C615 C614 1.474 . S
C616 C611 1.342 . S
C616 C614 1.285 . S
C616 H635 0.930 . S
C617 C620 1.424 . S
C617 C622 1.245 . S
C617 C623 1.428 . S
C618 C621 1.260 . S
C618 C622 1.477 . S
C618 H636 0.932 . S
C619 C620 1.384 . S
C619 C621 1.479 . S
C619 H637 0.929 . S
C620 C617 1.424 . S
C620 C619 1.384 . S
C620 H638 0.928 . S
C621 C618 1.260 . S
C621 C619 1.479 . S
C622 C617 1.245 . S
C622 C618 1.477 . S
C622 H639 0.932 . S
C623 U606 2.882 . S
C623 C617 1.428 . S
C623 O626 1.301 . S
C623 O627 1.282 . S
O624 U606 2.441 . S
O624 C610 1.249 . S
O625 U606 2.420 . S
O625 C610 1.202 . S
O626 U606 2.455 . S
O626 C623 1.301 . S
O627 U606 2.449 . S
O627 C623 1.282 . S
H628 C601 0.931 . S
H629 C603 0.929 . S
H630 C604 0.930 . S
H631 C605 0.931 . S
H632 C612 0.932 . S
H633 C613 0.930 . S
H634 C614 0.929 . S
H635 C616 0.930 . S
H636 C618 0.932 . S
H637 C619 0.929 . S
H638 C620 0.928 . S
H639 C622 0.932 . S
C640 C641 1.264 . S
C640 C645 1.479 . S
C640 C650 1.465 . S
C641 C640 1.264 . S
C641 C643 1.339 . S
C641 H668 0.931 . S
C642 C643 1.395 . S
C642 C644 1.320 . S
C643 C641 1.339 . S
C643 C642 1.395 . S
C643 H669 0.929 . S
C644 C642 1.320 . S
C644 C645 1.405 . S
C644 H670 0.930 . S
C645 C640 1.479 . S
C645 C644 1.405 . S
C645 H671 0.931 . S
U646 O647 2.454 . S
U646 O648 2.458 . S
U646 C649 2.984 . S
U646 C650 2.847 . S
U646 C663 2.882 . S
U646 O664 2.441 . S
U646 O665 2.420 . S
U646 O666 2.455 . S
U646 O667 2.449 . S
O647 U646 2.454 . S
O647 C649 1.353 . S
O648 U646 2.458 . S
O648 C649 1.286 . S
C649 U646 2.984 . S
C649 O647 1.353 . S
C649 O648 1.286 . S
C649 C651 1.363 . S
C650 C640 1.465 . S
C650 U646 2.847 . S
C650 O664 1.249 . S
C650 O665 1.202 . S
C651 C649 1.363 . S
C651 C653 1.408 . S
C651 C656 1.342 . S
C652 C653 1.310 . S
C652 C655 1.461 . S
C652 H672 0.932 . S
C653 C651 1.408 . S
C653 C652 1.310 . S
C653 H673 0.930 . S
C654 C655 1.474 . S
C654 C656 1.285 . S
C654 H674 0.929 . S
C655 C652 1.461 . S
C655 C654 1.474 . S
C656 C651 1.342 . S
C656 C654 1.285 . S
C656 H675 0.930 . S
C657 C660 1.424 . S
C657 C662 1.245 . S
C657 C663 1.428 . S
C658 C661 1.260 . S
C658 C662 1.477 . S
C658 H676 0.932 . S
C659 C660 1.384 . S
C659 C661 1.479 . S
C659 H677 0.929 . S
C660 C657 1.424 . S
C660 C659 1.384 . S
C660 H678 0.928 . S
C661 C658 1.260 . S
C661 C659 1.479 . S
C662 C657 1.245 . S
C662 C658 1.477 . S
C662 H679 0.932 . S
C663 U646 2.882 . S
C663 C657 1.428 . S
C663 O666 1.301 . S
C663 O667 1.282 . S
O664 U646 2.441 . S
O664 C650 1.249 . S
O665 U646 2.420 . S
O665 C650 1.202 . S
O666 U646 2.455 . S
O666 C663 1.301 . S
O667 U646 2.449 . S
O667 C663 1.282 . S
H668 C641 0.931 . S
H669 C643 0.929 . S
H670 C644 0.930 . S
H671 C645 0.931 . S
H672 C652 0.932 . S
H673 C653 0.930 . S
H674 C654 0.929 . S
H675 C656 0.930 . S
H676 C658 0.932 . S
H677 C659 0.929 . S
H678 C660 0.928 . S
H679 C662 0.932 . S
C680 C681 1.264 . S
C680 C685 1.479 . S
C680 C690 1.465 . S
C681 C680 1.264 . S
C681 C683 1.339 . S
C681 H708 0.931 . S
C682 C683 1.395 . S
C682 C684 1.320 . S
C683 C681 1.339 . S
C683 C682 1.395 . S
C683 H709 0.929 . S
C684 C682 1.320 . S
C684 C685 1.405 . S
C684 H710 0.930 . S
C685 C680 1.479 . S
C685 C684 1.405 . S
C685 H711 0.931 . S
U686 O687 2.454 . S
U686 O688 2.458 . S
U686 C689 2.984 . S
U686 C690 2.847 . S
U686 C703 2.882 . S
U686 O704 2.441 . S
U686 O705 2.420 . S
U686 O706 2.455 . S
U686 O707 2.449 . S
O687 U686 2.454 . S
O687 C689 1.353 . S
O688 U686 2.458 . S
O688 C689 1.286 . S
C689 U686 2.984 . S
C689 O687 1.353 . S
C689 O688 1.286 . S
C689 C691 1.363 . S
C690 C680 1.465 . S
C690 U686 2.847 . S
C690 O704 1.249 . S
C690 O705 1.202 . S
C691 C689 1.363 . S
C691 C693 1.408 . S
C691 C696 1.342 . S
C692 C693 1.310 . S
C692 C695 1.461 . S
C692 H712 0.932 . S
C693 C691 1.408 . S
C693 C692 1.310 . S
C693 H713 0.930 . S
C694 C695 1.474 . S
C694 C696 1.285 . S
C694 H714 0.929 . S
C695 C692 1.461 . S
C695 C694 1.474 . S
C696 C691 1.342 . S
C696 C694 1.285 . S
C696 H715 0.930 . S
C697 C700 1.424 . S
C697 C702 1.245 . S
C697 C703 1.428 . S
C698 C701 1.260 . S
C698 C702 1.477 . S
C698 H716 0.932 . S
C699 C700 1.384 . S
C699 C701 1.479 . S
C699 H717 0.929 . S
C700 C697 1.424 . S
C700 C699 1.384 . S
C700 H718 0.928 . S
C701 C698 1.260 . S
C701 C699 1.479 . S
C702 C697 1.245 . S
C702 C698 1.477 . S
C702 H719 0.932 . S
C703 U686 2.882 . S
C703 C697 1.428 . S
C703 O706 1.301 . S
C703 O707 1.282 . S
O704 U686 2.441 . S
O704 C690 1.249 . S
O705 U686 2.420 . S
O705 C690 1.202 . S
O706 U686 2.455 . S
O706 C703 1.301 . S
O707 U686 2.449 . S
O707 C703 1.282 . S
H708 C681 0.931 . S
H709 C683 0.929 . S
H710 C684 0.930 . S
H711 C685 0.931 . S
H712 C692 0.932 . S
H713 C693 0.930 . S
H714 C694 0.929 . S
H715 C696 0.930 . S
H716 C698 0.932 . S
H717 C699 0.929 . S
H718 C700 0.928 . S
H719 C702 0.932 . S
C720 C721 1.264 . S
C720 C725 1.479 . S
C720 C730 1.465 . S
C721 C720 1.264 . S
C721 C723 1.339 . S
C721 H748 0.931 . S
C722 C723 1.395 . S
C722 C724 1.320 . S
C723 C721 1.339 . S
C723 C722 1.395 . S
C723 H749 0.929 . S
C724 C722 1.320 . S
C724 C725 1.405 . S
C724 H750 0.930 . S
C725 C720 1.479 . S
C725 C724 1.405 . S
C725 H751 0.931 . S
U726 O727 2.454 . S
U726 O728 2.458 . S
U726 C729 2.984 . S
U726 C730 2.847 . S
U726 C743 2.882 . S
U726 O744 2.441 . S
U726 O745 2.420 . S
U726 O746 2.455 . S
U726 O747 2.449 . S
O727 U726 2.454 . S
O727 C729 1.353 . S
O728 U726 2.458 . S
O728 C729 1.286 . S
C729 U726 2.984 . S
C729 O727 1.353 . S
C729 O728 1.286 . S
C729 C731 1.363 . S
C730 C720 1.465 . S
C730 U726 2.847 . S
C730 O744 1.249 . S
C730 O745 1.202 . S
C731 C729 1.363 . S
C731 C733 1.408 . S
C731 C736 1.342 . S
C732 C733 1.310 . S
C732 C735 1.461 . S
C732 H752 0.932 . S
C733 C731 1.408 . S
C733 C732 1.310 . S
C733 H753 0.930 . S
C734 C735 1.474 . S
C734 C736 1.285 . S
C734 H754 0.929 . S
C735 C732 1.461 . S
C735 C734 1.474 . S
C736 C731 1.342 . S
C736 C734 1.285 . S
C736 H755 0.930 . S
C737 C740 1.424 . S
C737 C742 1.245 . S
C737 C743 1.428 . S
C738 C741 1.260 . S
C738 C742 1.477 . S
C738 H756 0.932 . S
C739 C740 1.384 . S
C739 C741 1.479 . S
C739 H757 0.929 . S
C740 C737 1.424 . S
C740 C739 1.384 . S
C740 H758 0.928 . S
C741 C738 1.260 . S
C741 C739 1.479 . S
C742 C737 1.245 . S
C742 C738 1.477 . S
C742 H759 0.932 . S
C743 U726 2.882 . S
C743 C737 1.428 . S
C743 O746 1.301 . S
C743 O747 1.282 . S
O744 U726 2.441 . S
O744 C730 1.249 . S
O745 U726 2.420 . S
O745 C730 1.202 . S
O746 U726 2.455 . S
O746 C743 1.301 . S
O747 U726 2.449 . S
O747 C743 1.282 . S
H748 C721 0.931 . S
H749 C723 0.929 . S
H750 C724 0.930 . S
H751 C725 0.931 . S
H752 C732 0.932 . S
H753 C733 0.930 . S
H754 C734 0.929 . S
H755 C736 0.930 . S
H756 C738 0.932 . S
H757 C739 0.929 . S
H758 C740 0.928 . S
H759 C742 0.932 . S
C760 C761 1.264 . S
C760 C765 1.479 . S
C760 C770 1.465 . S
C761 C760 1.264 . S
C761 C763 1.339 . S
C761 H788 0.931 . S
C762 C763 1.395 . S
C762 C764 1.320 . S
C763 C761 1.339 . S
C763 C762 1.395 . S
C763 H789 0.929 . S
C764 C762 1.320 . S
C764 C765 1.405 . S
C764 H790 0.930 . S
C765 C760 1.479 . S
C765 C764 1.405 . S
C765 H791 0.931 . S
U766 O767 2.454 . S
U766 O768 2.458 . S
U766 C769 2.984 . S
U766 C770 2.847 . S
U766 C783 2.882 . S
U766 O784 2.441 . S
U766 O785 2.420 . S
U766 O786 2.455 . S
U766 O787 2.449 . S
O767 U766 2.454 . S
O767 C769 1.353 . S
O768 U766 2.458 . S
O768 C769 1.286 . S
C769 U766 2.984 . S
C769 O767 1.353 . S
C769 O768 1.286 . S
C769 C771 1.363 . S
C770 C760 1.465 . S
C770 U766 2.847 . S
C770 O784 1.249 . S
C770 O785 1.202 . S
C771 C769 1.363 . S
C771 C773 1.408 . S
C771 C776 1.342 . S
C772 C773 1.310 . S
C772 C775 1.461 . S
C772 H792 0.932 . S
C773 C771 1.408 . S
C773 C772 1.310 . S
C773 H793 0.930 . S
C774 C775 1.474 . S
C774 C776 1.285 . S
C774 H794 0.929 . S
C775 C772 1.461 . S
C775 C774 1.474 . S
C776 C771 1.342 . S
C776 C774 1.285 . S
C776 H795 0.930 . S
C777 C780 1.424 . S
C777 C782 1.245 . S
C777 C783 1.428 . S
C778 C781 1.260 . S
C778 C782 1.477 . S
C778 H796 0.932 . S
C779 C780 1.384 . S
C779 C781 1.479 . S
C779 H797 0.929 . S
C780 C777 1.424 . S
C780 C779 1.384 . S
C780 H798 0.928 . S
C781 C778 1.260 . S
C781 C779 1.479 . S
C782 C777 1.245 . S
C782 C778 1.477 . S
C782 H799 0.932 . S
C783 U766 2.882 . S
C783 C777 1.428 . S
C783 O786 1.301 . S
C783 O787 1.282 . S
O784 U766 2.441 . S
O784 C770 1.249 . S
O785 U766 2.420 . S
O785 C770 1.202 . S
O786 U766 2.455 . S
O786 C783 1.301 . S
O787 U766 2.449 . S
O787 C783 1.282 . S
H788 C761 0.931 . S
H789 C763 0.929 . S
H790 C764 0.930 . S
H791 C765 0.931 . S
H792 C772 0.932 . S
H793 C773 0.930 . S
H794 C774 0.929 . S
H795 C776 0.930 . S
H796 C778 0.932 . S
H797 C779 0.929 . S
H798 C780 0.928 . S
H799 C782 0.932 . S
C800 C801 1.264 . S
C800 C805 1.479 . S
C800 C810 1.465 . S
C801 C800 1.264 . S
C801 C803 1.339 . S
C801 H828 0.931 . S
C802 C803 1.395 . S
C802 C804 1.320 . S
C803 C801 1.339 . S
C803 C802 1.395 . S
C803 H829 0.929 . S
C804 C802 1.320 . S
C804 C805 1.405 . S
C804 H830 0.930 . S
C805 C800 1.479 . S
C805 C804 1.405 . S
C805 H831 0.931 . S
U806 O807 2.454 . S
U806 O808 2.458 . S
U806 C809 2.984 . S
U806 C810 2.847 . S
U806 C823 2.882 . S
U806 O824 2.441 . S
U806 O825 2.420 . S
U806 O826 2.455 . S
U806 O827 2.449 . S
O807 U806 2.454 . S
O807 C809 1.353 . S
O808 U806 2.458 . S
O808 C809 1.286 . S
C809 U806 2.984 . S
C809 O807 1.353 . S
C809 O808 1.286 . S
C809 C811 1.363 . S
C810 C800 1.465 . S
C810 U806 2.847 . S
C810 O824 1.249 . S
C810 O825 1.202 . S
C811 C809 1.363 . S
C811 C813 1.408 . S
C811 C816 1.342 . S
C812 C813 1.310 . S
C812 C815 1.461 . S
C812 H832 0.932 . S
C813 C811 1.408 . S
C813 C812 1.310 . S
C813 H833 0.930 . S
C814 C815 1.474 . S
C814 C816 1.285 . S
C814 H834 0.929 . S
C815 C812 1.461 . S
C815 C814 1.474 . S
C816 C811 1.342 . S
C816 C814 1.285 . S
C816 H835 0.930 . S
C817 C820 1.424 . S
C817 C822 1.245 . S
C817 C823 1.428 . S
C818 C821 1.260 . S
C818 C822 1.477 . S
C818 H836 0.932 . S
C819 C820 1.384 . S
C819 C821 1.479 . S
C819 H837 0.929 . S
C820 C817 1.424 . S
C820 C819 1.384 . S
C820 H838 0.928 . S
C821 C818 1.260 . S
C821 C819 1.479 . S
C822 C817 1.245 . S
C822 C818 1.477 . S
C822 H839 0.932 . S
C823 U806 2.882 . S
C823 C817 1.428 . S
C823 O826 1.301 . S
C823 O827 1.282 . S
O824 U806 2.441 . S
O824 C810 1.249 . S
O825 U806 2.420 . S
O825 C810 1.202 . S
O826 U806 2.455 . S
O826 C823 1.301 . S
O827 U806 2.449 . S
O827 C823 1.282 . S
H828 C801 0.931 . S
H829 C803 0.929 . S
H830 C804 0.930 . S
H831 C805 0.931 . S
H832 C812 0.932 . S
H833 C813 0.930 . S
H834 C814 0.929 . S
H835 C816 0.930 . S
H836 C818 0.932 . S
H837 C819 0.929 . S
H838 C820 0.928 . S
H839 C822 0.932 . S
C840 C841 1.264 . S
C840 C845 1.479 . S
C840 C850 1.465 . S
C841 C840 1.264 . S
C841 C843 1.339 . S
C841 H868 0.931 . S
C842 C843 1.395 . S
C842 C844 1.320 . S
C843 C841 1.339 . S
C843 C842 1.395 . S
C843 H869 0.929 . S
C844 C842 1.320 . S
C844 C845 1.405 . S
C844 H870 0.930 . S
C845 C840 1.479 . S
C845 C844 1.405 . S
C845 H871 0.931 . S
U846 O847 2.454 . S
U846 O848 2.458 . S
U846 C849 2.984 . S
U846 C850 2.847 . S
U846 C863 2.882 . S
U846 O864 2.441 . S
U846 O865 2.420 . S
U846 O866 2.455 . S
U846 O867 2.449 . S
O847 U846 2.454 . S
O847 C849 1.353 . S
O848 U846 2.458 . S
O848 C849 1.286 . S
C849 U846 2.984 . S
C849 O847 1.353 . S
C849 O848 1.286 . S
C849 C851 1.363 . S
C850 C840 1.465 . S
C850 U846 2.847 . S
C850 O864 1.249 . S
C850 O865 1.202 . S
C851 C849 1.363 . S
C851 C853 1.408 . S
C851 C856 1.342 . S
C852 C853 1.310 . S
C852 C855 1.461 . S
C852 H872 0.932 . S
C853 C851 1.408 . S
C853 C852 1.310 . S
C853 H873 0.930 . S
C854 C855 1.474 . S
C854 C856 1.285 . S
C854 H874 0.929 . S
C855 C852 1.461 . S
C855 C854 1.474 . S
C856 C851 1.342 . S
C856 C854 1.285 . S
C856 H875 0.930 . S
C857 C860 1.424 . S
C857 C862 1.245 . S
C857 C863 1.428 . S
C858 C861 1.260 . S
C858 C862 1.477 . S
C858 H876 0.932 . S
C859 C860 1.384 . S
C859 C861 1.479 . S
C859 H877 0.929 . S
C860 C857 1.424 . S
C860 C859 1.384 . S
C860 H878 0.928 . S
C861 C858 1.260 . S
C861 C859 1.479 . S
C862 C857 1.245 . S
C862 C858 1.477 . S
C862 H879 0.932 . S
C863 U846 2.882 . S
C863 C857 1.428 . S
C863 O866 1.301 . S
C863 O867 1.282 . S
O864 U846 2.441 . S
O864 C850 1.249 . S
O865 U846 2.420 . S
O865 C850 1.202 . S
O866 U846 2.455 . S
O866 C863 1.301 . S
O867 U846 2.449 . S
O867 C863 1.282 . S
H868 C841 0.931 . S
H869 C843 0.929 . S
H870 C844 0.930 . S
H871 C845 0.931 . S
H872 C852 0.932 . S
H873 C853 0.930 . S
H874 C854 0.929 . S
H875 C856 0.930 . S
H876 C858 0.932 . S
H877 C859 0.929 . S
H878 C860 0.928 . S
H879 C862 0.932 . S
C880 C881 1.264 . S
C880 C885 1.479 . S
C880 C890 1.465 . S
C881 C880 1.264 . S
C881 C883 1.339 . S
C881 H908 0.931 . S
C882 C883 1.395 . S
C882 C884 1.320 . S
C883 C881 1.339 . S
C883 C882 1.395 . S
C883 H909 0.929 . S
C884 C882 1.320 . S
C884 C885 1.405 . S
C884 H910 0.930 . S
C885 C880 1.479 . S
C885 C884 1.405 . S
C885 H911 0.931 . S
U886 O887 2.454 . S
U886 O888 2.458 . S
U886 C889 2.984 . S
U886 C890 2.847 . S
U886 C903 2.882 . S
U886 O904 2.441 . S
U886 O905 2.420 . S
U886 O906 2.455 . S
U886 O907 2.449 . S
O887 U886 2.454 . S
O887 C889 1.353 . S
O888 U886 2.458 . S
O888 C889 1.286 . S
C889 U886 2.984 . S
C889 O887 1.353 . S
C889 O888 1.286 . S
C889 C891 1.363 . S
C890 C880 1.465 . S
C890 U886 2.847 . S
C890 O904 1.249 . S
C890 O905 1.202 . S
C891 C889 1.363 . S
C891 C893 1.408 . S
C891 C896 1.342 . S
C892 C893 1.310 . S
C892 C895 1.461 . S
C892 H912 0.932 . S
C893 C891 1.408 . S
C893 C892 1.310 . S
C893 H913 0.930 . S
C894 C895 1.474 . S
C894 C896 1.285 . S
C894 H914 0.929 . S
C895 C892 1.461 . S
C895 C894 1.474 . S
C896 C891 1.342 . S
C896 C894 1.285 . S
C896 H915 0.930 . S
C897 C900 1.424 . S
C897 C902 1.245 . S
C897 C903 1.428 . S
C898 C901 1.260 . S
C898 C902 1.477 . S
C898 H916 0.932 . S
C899 C900 1.384 . S
C899 C901 1.479 . S
C899 H917 0.929 . S
C900 C897 1.424 . S
C900 C899 1.384 . S
C900 H918 0.928 . S
C901 C898 1.260 . S
C901 C899 1.479 . S
C902 C897 1.245 . S
C902 C898 1.477 . S
C902 H919 0.932 . S
C903 U886 2.882 . S
C903 C897 1.428 . S
C903 O906 1.301 . S
C903 O907 1.282 . S
O904 U886 2.441 . S
O904 C890 1.249 . S
O905 U886 2.420 . S
O905 C890 1.202 . S
O906 U886 2.455 . S
O906 C903 1.301 . S
O907 U886 2.449 . S
O907 C903 1.282 . S
H908 C881 0.931 . S
H909 C883 0.929 . S
H910 C884 0.930 . S
H911 C885 0.931 . S
H912 C892 0.932 . S
H913 C893 0.930 . S
H914 C894 0.929 . S
H915 C896 0.930 . S
H916 C898 0.932 . S
H917 C899 0.929 . S
H918 C900 0.928 . S
H919 C902 0.932 . S
C920 C921 1.264 . S
C920 C925 1.479 . S
C920 C930 1.465 . S
C921 C920 1.264 . S
C921 C923 1.339 . S
C921 H948 0.931 . S
C922 C923 1.395 . S
C922 C924 1.320 . S
C923 C921 1.339 . S
C923 C922 1.395 . S
C923 H949 0.929 . S
C924 C922 1.320 . S
C924 C925 1.405 . S
C924 H950 0.930 . S
C925 C920 1.479 . S
C925 C924 1.405 . S
C925 H951 0.931 . S
U926 O927 2.454 . S
U926 O928 2.458 . S
U926 C929 2.984 . S
U926 C930 2.847 . S
U926 C943 2.882 . S
U926 O944 2.441 . S
U926 O945 2.420 . S
U926 O946 2.455 . S
U926 O947 2.449 . S
O927 U926 2.454 . S
O927 C929 1.353 . S
O928 U926 2.458 . S
O928 C929 1.286 . S
C929 U926 2.984 . S
C929 O927 1.353 . S
C929 O928 1.286 . S
C929 C931 1.363 . S
C930 C920 1.465 . S
C930 U926 2.847 . S
C930 O944 1.249 . S
C930 O945 1.202 . S
C931 C929 1.363 . S
C931 C933 1.408 . S
C931 C936 1.342 . S
C932 C933 1.310 . S
C932 C935 1.461 . S
C932 H952 0.932 . S
C933 C931 1.408 . S
C933 C932 1.310 . S
C933 H953 0.930 . S
C934 C935 1.474 . S
C934 C936 1.285 . S
C934 H954 0.929 . S
C935 C932 1.461 . S
C935 C934 1.474 . S
C936 C931 1.342 . S
C936 C934 1.285 . S
C936 H955 0.930 . S
C937 C940 1.424 . S
C937 C942 1.245 . S
C937 C943 1.428 . S
C938 C941 1.260 . S
C938 C942 1.477 . S
C938 H956 0.932 . S
C939 C940 1.384 . S
C939 C941 1.479 . S
C939 H957 0.929 . S
C940 C937 1.424 . S
C940 C939 1.384 . S
C940 H958 0.928 . S
C941 C938 1.260 . S
C941 C939 1.479 . S
C942 C937 1.245 . S
C942 C938 1.477 . S
C942 H959 0.932 . S
C943 U926 2.882 . S
C943 C937 1.428 . S
C943 O946 1.301 . S
C943 O947 1.282 . S
O944 U926 2.441 . S
O944 C930 1.249 . S
O945 U926 2.420 . S
O945 C930 1.202 . S
O946 U926 2.455 . S
O946 C943 1.301 . S
O947 U926 2.449 . S
O947 C943 1.282 . S
H948 C921 0.931 . S
H949 C923 0.929 . S
H950 C924 0.930 . S
H951 C925 0.931 . S
H952 C932 0.932 . S
H953 C933 0.930 . S
H954 C934 0.929 . S
H955 C936 0.930 . S
H956 C938 0.932 . S
H957 C939 0.929 . S
H958 C940 0.928 . S
H959 C942 0.932 . S
Zn960 O962 1.933 1_665 S
Zn960 O980 1.985 1_565 S
Zn960 O991 1.953 1_655 S
Zn961 O962 1.911 1_655 S
Zn961 O981 1.970 . S
Zn961 O997 1.945 1_655 S
Zn961 O1004 1.981 . S
O962 Zn960 1.933 1_445 S
O962 Zn961 1.911 1_455 S
O962 H963 0.841 . S
H963 O962 0.841 . S
C964 O965 1.246 . S
C964 O993 1.276 . S
O965 C964 1.246 . S
Zn966 O968 1.911 . S
Zn966 O983 1.970 . S
Zn966 O1000 1.945 . S
Zn966 O1007 1.981 . S
Zn967 O968 1.933 1_565 S
Zn967 O982 1.985 . S
Zn967 O989 1.955 . S
O968 Zn966 1.911 . S
O968 Zn967 1.933 1_545 S
O968 H969 0.841 . S
H969 O968 0.841 . S
Zn970 O971 1.933 1_565 S
Zn970 O984 1.985 1_565 S
Zn970 O993 1.955 . S
O971 Zn970 1.933 1_545 S
O971 Zn972 1.911 . S
O971 H973 0.841 . S
Zn972 O971 1.911 . S
Zn972 O985 1.970 . S
Zn972 O1001 1.981 1_655 S
Zn972 O1003 1.945 . S
H973 O971 0.841 . S
Zn974 O975 1.933 1_565 S
Zn974 O987 1.985 . S
Zn974 O995 1.955 . S
O975 Zn974 1.933 1_545 S
O975 H976 0.841 . S
O975 Zn977 1.911 . S
H976 O975 0.841 . S
Zn977 O975 1.911 . S
Zn977 O988 1.970 . S
Zn977 O998 1.981 . S
Zn977 O1006 1.945 . S
C978 O979 1.246 . S
C978 O995 1.276 . S
O979 C978 1.246 . S
O980 Zn960 1.985 1_545 S
O980 C990 1.245 . S
O981 Zn961 1.970 . S
O981 C990 1.263 . S
O982 Zn967 1.985 . S
O982 C994 1.245 1_565 S
O983 Zn966 1.970 . S
O983 C994 1.263 . S
O984 Zn970 1.985 1_545 S
O984 C999 1.245 . S
O985 Zn972 1.970 . S
O985 C999 1.263 . S
C986 O997 1.262 . S
C986 O998 1.245 . S
O987 Zn974 1.985 . S
O987 C1005 1.245 1_565 S
O988 Zn977 1.970 . S
O988 C1005 1.263 . S
O989 Zn967 1.955 . S
O989 C1008 1.276 . S
C990 O980 1.245 . S
C990 O981 1.263 . S
O991 Zn960 1.953 1_455 S
O991 C1010 1.282 . S
C992 O1000 1.262 . S
C992 O1001 1.245 . S
O993 C964 1.276 . S
O993 Zn970 1.955 . S
C994 O982 1.245 1_545 S
C994 O983 1.263 . S
O995 Zn974 1.955 . S
O995 C978 1.276 . S
C996 O1003 1.262 . S
C996 O1004 1.245 . S
O997 Zn961 1.945 1_455 S
O997 C986 1.262 . S
O998 Zn977 1.981 . S
O998 C986 1.245 . S
C999 O984 1.245 . S
C999 O985 1.263 . S
O1000 Zn966 1.945 . S
O1000 C992 1.262 . S
O1001 Zn972 1.981 1_455 S
O1001 C992 1.245 . S
C1002 O1006 1.262 . S
C1002 O1007 1.245 . S
O1003 Zn972 1.945 . S
O1003 C996 1.262 . S
O1004 Zn961 1.981 . S
O1004 C996 1.245 . S
C1005 O987 1.245 1_545 S
C1005 O988 1.263 . S
O1006 Zn977 1.945 . S
O1006 C1002 1.262 . S
O1007 Zn966 1.981 . S
O1007 C1002 1.245 . S
C1008 O989 1.276 . S
C1008 O1009 1.246 . S
O1009 C1008 1.246 . S
C1010 O991 1.282 . S
C1010 O1011 1.246 . S
O1011 C1010 1.246 . S
Zn1012 O1014 1.933 . S
Zn1012 O1032 1.985 . S
Zn1012 O1043 1.955 . S
Zn1013 O1014 1.911 1_556 S
Zn1013 O1033 1.970 . S
Zn1013 O1049 1.945 . S
Zn1013 O1056 1.981 . S
O1014 Zn1012 1.933 . S
O1014 Zn1013 1.911 1_554 S
O1014 H1015 0.841 . S
H1015 O1014 0.841 . S
C1016 O1017 1.246 . S
C1016 O1045 1.276 . S
O1017 C1016 1.246 . S
Zn1018 O1020 1.906 1_566 S
Zn1018 O1035 1.970 . S
Zn1018 O1052 1.945 . S
Zn1018 O1059 1.981 . S
Zn1019 O1020 1.929 1_565 S
Zn1019 O1034 1.985 . S
Zn1019 O1041 1.949 1_565 S
O1020 Zn1018 1.906 1_544 S
O1020 Zn1019 1.929 1_545 S
O1020 H1021 0.853 . S
H1021 O1020 0.853 . S
Zn1022 O1023 1.933 . S
Zn1022 O1036 1.985 . S
Zn1022 O1045 1.955 . S
O1023 Zn1022 1.933 . S
O1023 Zn1024 1.911 1_554 S
O1023 H1025 0.841 . S
Zn1024 O1023 1.911 1_556 S
Zn1024 O1037 1.970 . S
Zn1024 O1053 1.981 . S
Zn1024 O1055 1.945 . S
H1025 O1023 0.841 . S
Zn1026 O1027 1.933 . S
Zn1026 O1039 1.985 . S
Zn1026 O1047 1.955 . S
O1027 Zn1026 1.933 . S
O1027 H1028 0.841 . S
O1027 Zn1029 1.911 1_554 S
H1028 O1027 0.841 . S
Zn1029 O1027 1.911 1_556 S
Zn1029 O1040 1.970 . S
Zn1029 O1050 1.981 1_565 S
Zn1029 O1058 1.945 . S
C1030 O1031 1.246 . S
C1030 O1047 1.276 . S
O1031 C1030 1.246 . S
O1032 Zn1012 1.985 . S
O1032 C1042 1.245 . S
O1033 Zn1013 1.970 . S
O1033 C1042 1.263 1_556 S
O1034 Zn1019 1.985 . S
O1034 C1046 1.245 . S
O1035 Zn1018 1.970 . S
O1035 C1046 1.263 1_556 S
O1036 Zn1022 1.985 . S
O1036 C1051 1.245 . S
O1037 Zn1024 1.970 . S
O1037 C1051 1.263 1_556 S
C1038 O1049 1.262 . S
C1038 O1050 1.245 . S
O1039 Zn1026 1.985 . S
O1039 C1057 1.245 . S
O1040 Zn1029 1.970 . S
O1040 C1057 1.263 1_556 S
O1041 Zn1019 1.949 1_545 S
O1041 C1060 1.295 . S
C1042 O1032 1.245 . S
C1042 O1033 1.263 1_554 S
O1043 Zn1012 1.955 . S
O1043 C1062 1.276 . S
C1044 O1052 1.262 1_545 S
C1044 O1053 1.245 . S
O1045 C1016 1.276 . S
O1045 Zn1022 1.955 . S
C1046 O1034 1.245 . S
C1046 O1035 1.263 1_554 S
O1047 Zn1026 1.955 . S
O1047 C1030 1.276 . S
C1048 O1055 1.262 . S
C1048 O1056 1.245 . S
O1049 Zn1013 1.945 . S
O1049 C1038 1.262 . S
O1050 Zn1029 1.981 1_545 S
O1050 C1038 1.245 . S
C1051 O1036 1.245 . S
C1051 O1037 1.263 1_554 S
O1052 Zn1018 1.945 . S
O1052 C1044 1.262 1_565 S
O1053 Zn1024 1.981 . S
O1053 C1044 1.245 . S
C1054 O1058 1.262 . S
C1054 O1059 1.245 . S
O1055 Zn1024 1.945 . S
O1055 C1048 1.262 . S
O1056 Zn1013 1.981 . S
O1056 C1048 1.245 . S
C1057 O1039 1.245 . S
C1057 O1040 1.263 1_554 S
O1058 Zn1029 1.945 . S
O1058 C1054 1.262 . S
O1059 Zn1018 1.981 . S
O1059 C1054 1.245 . S
C1060 O1041 1.295 . S
C1060 O1061 1.246 . S
O1061 C1060 1.246 . S
C1062 O1043 1.276 . S
C1062 O1063 1.246 . S
O1063 C1062 1.246 . S
Zn1064 O1066 1.928 1_655 S
Zn1064 O1084 1.985 . S
Zn1064 O1095 1.955 1_655 S
Zn1065 O1066 1.902 1_655 S
Zn1065 O1085 1.970 . S
Zn1065 O1101 1.945 . S
Zn1065 O1108 1.981 . S
O1066 Zn1064 1.928 1_455 S
O1066 Zn1065 1.902 1_455 S
O1066 H1067 0.859 . S
H1067 O1066 0.859 . S
C1068 O1069 1.246 1_554 S
C1068 O1097 1.276 . S
O1069 C1068 1.246 1_556 S
Zn1070 O1072 1.911 . S
Zn1070 O1087 1.970 . S
Zn1070 O1104 1.945 . S
Zn1070 O1111 1.981 . S
Zn1071 O1072 1.933 . S
Zn1071 O1086 1.985 . S
Zn1071 O1093 1.955 . S
O1072 Zn1070 1.911 . S
O1072 Zn1071 1.933 . S
O1072 H1073 0.841 . S
H1073 O1072 0.841 . S
Zn1074 O1075 1.933 . S
Zn1074 O1088 1.985 . S
Zn1074 O1097 1.955 . S
O1075 Zn1074 1.933 . S
O1075 Zn1076 1.911 . S
O1075 H1077 0.841 . S
Zn1076 O1075 1.911 . S
Zn1076 O1089 1.970 . S
Zn1076 O1105 1.981 1_655 S
Zn1076 O1107 1.945 . S
H1077 O1075 0.841 . S
Zn1078 O1079 1.933 . S
Zn1078 O1091 1.985 . S
Zn1078 O1099 1.955 . S
O1079 Zn1078 1.933 . S
O1079 H1080 0.841 1_556 S
O1079 Zn1081 1.911 . S
H1080 O1079 0.841 1_554 S
Zn1081 O1079 1.911 . S
Zn1081 O1092 1.970 . S
Zn1081 O1102 1.981 . S
Zn1081 O1110 1.945 . S
C1082 O1083 1.246 . S
C1082 O1099 1.276 1_554 S
O1083 C1082 1.246 . S
O1084 Zn1064 1.985 . S
O1084 C1094 1.245 . S
O1085 Zn1065 1.970 . S
O1085 C1094 1.263 . S
O1086 Zn1071 1.985 . S
O1086 C1098 1.245 . S
O1087 Zn1070 1.970 . S
O1087 C1098 1.263 . S
O1088 Zn1074 1.985 . S
O1088 C1103 1.245 . S
O1089 Zn1076 1.970 . S
O1089 C1103 1.263 . S
C1090 O1101 1.262 1_455 S
C1090 O1102 1.245 . S
O1091 Zn1078 1.985 . S
O1091 C1109 1.245 . S
O1092 Zn1081 1.970 . S
O1092 C1109 1.263 . S
O1093 Zn1071 1.955 . S
O1093 C1112 1.276 . S
C1094 O1084 1.245 . S
C1094 O1085 1.263 . S
O1095 Zn1064 1.955 1_455 S
O1095 C1114 1.276 . S
C1096 O1104 1.262 . S
C1096 O1105 1.245 . S
O1097 C1068 1.276 . S
O1097 Zn1074 1.955 . S
C1098 O1086 1.245 . S
C1098 O1087 1.263 . S
O1099 Zn1078 1.955 . S
O1099 C1082 1.276 1_556 S
C1100 O1107 1.262 . S
C1100 O1108 1.245 1_554 S
O1101 Zn1065 1.945 . S
O1101 C1090 1.262 1_655 S
O1102 Zn1081 1.981 . S
O1102 C1090 1.245 . S
C1103 O1088 1.245 . S
C1103 O1089 1.263 . S
O1104 Zn1070 1.945 . S
O1104 C1096 1.262 . S
O1105 Zn1076 1.981 1_455 S
O1105 C1096 1.245 . S
C1106 O1110 1.262 1_554 S
C1106 O1111 1.245 . S
O1107 Zn1076 1.945 . S
O1107 C1100 1.262 . S
O1108 Zn1065 1.981 . S
O1108 C1100 1.245 1_556 S
C1109 O1091 1.245 . S
C1109 O1092 1.263 . S
O1110 Zn1081 1.945 . S
O1110 C1106 1.262 1_556 S
O1111 Zn1070 1.981 . S
O1111 C1106 1.245 . S
C1112 O1093 1.276 . S
C1112 O1113 1.246 . S
O1113 C1112 1.246 . S
C1114 O1095 1.276 . S
C1114 O1115 1.246 . S
O1115 C1114 1.246 . S
Zn1116 O1118 1.933 1_556 S
Zn1116 O1136 1.985 . S
Zn1116 O1147 1.955 . S
Zn1117 O1118 1.911 . S
Zn1117 O1137 1.970 . S
Zn1117 O1153 1.945 . S
Zn1117 O1160 1.981 . S
O1118 Zn1116 1.933 1_554 S
O1118 Zn1117 1.911 . S
O1118 H1119 0.841 . S
H1119 O1118 0.841 . S
C1120 O1121 1.246 . S
C1120 O1149 1.276 . S
O1121 C1120 1.246 . S
Zn1122 O1124 1.911 . S
Zn1122 O1139 1.970 . S
Zn1122 O1156 1.945 . S
Zn1122 O1163 1.981 . S
Zn1123 O1124 1.933 1_556 S
Zn1123 O1138 1.985 . S
Zn1123 O1145 1.955 . S
O1124 Zn1122 1.911 . S
O1124 Zn1123 1.933 1_554 S
O1124 H1125 0.841 . S
H1125 O1124 0.841 . S
Zn1126 O1127 1.933 1_556 S
Zn1126 O1140 1.985 . S
Zn1126 O1149 1.955 . S
O1127 Zn1126 1.933 1_554 S
O1127 Zn1128 1.911 . S
O1127 H1129 0.841 . S
Zn1128 O1127 1.911 . S
Zn1128 O1141 1.970 . S
Zn1128 O1157 1.981 . S
Zn1128 O1159 1.945 . S
H1129 O1127 0.841 . S
Zn1130 O1131 1.933 1_556 S
Zn1130 O1143 1.985 . S
Zn1130 O1151 1.955 . S
O1131 Zn1130 1.933 1_554 S
O1131 H1132 0.841 . S
O1131 Zn1133 1.911 . S
H1132 O1131 0.841 . S
Zn1133 O1131 1.911 . S
Zn1133 O1144 1.970 . S
Zn1133 O1154 1.981 . S
Zn1133 O1162 1.945 . S
C1134 O1135 1.246 . S
C1134 O1151 1.276 . S
O1135 C1134 1.246 . S
O1136 Zn1116 1.985 . S
O1136 C1146 1.245 1_556 S
O1137 Zn1117 1.970 . S
O1137 C1146 1.263 . S
O1138 Zn1123 1.985 . S
O1138 C1150 1.245 1_556 S
O1139 Zn1122 1.970 . S
O1139 C1150 1.263 . S
O1140 Zn1126 1.985 . S
O1140 C1155 1.245 1_556 S
O1141 Zn1128 1.970 . S
O1141 C1155 1.263 . S
C1142 O1153 1.262 . S
C1142 O1154 1.245 . S
O1143 Zn1130 1.985 . S
O1143 C1161 1.245 1_556 S
O1144 Zn1133 1.970 . S
O1144 C1161 1.263 . S
O1145 Zn1123 1.955 . S
O1145 C1164 1.276 . S
C1146 O1136 1.245 1_554 S
C1146 O1137 1.263 . S
O1147 Zn1116 1.955 . S
O1147 C1166 1.276 . S
C1148 O1156 1.262 . S
C1148 O1157 1.245 . S
O1149 C1120 1.276 . S
O1149 Zn1126 1.955 . S
C1150 O1138 1.245 1_554 S
C1150 O1139 1.263 . S
O1151 Zn1130 1.955 . S
O1151 C1134 1.276 . S
C1152 O1159 1.262 . S
C1152 O1160 1.245 . S
O1153 Zn1117 1.945 . S
O1153 C1142 1.262 . S
O1154 Zn1133 1.981 . S
O1154 C1142 1.245 . S
C1155 O1140 1.245 1_554 S
C1155 O1141 1.263 . S
O1156 Zn1122 1.945 . S
O1156 C1148 1.262 . S
O1157 Zn1128 1.981 . S
O1157 C1148 1.245 . S
C1158 O1162 1.262 . S
C1158 O1163 1.245 . S
O1159 Zn1128 1.945 . S
O1159 C1152 1.262 . S
O1160 Zn1117 1.981 . S
O1160 C1152 1.245 . S
C1161 O1143 1.245 1_554 S
C1161 O1144 1.263 . S
O1162 Zn1133 1.945 . S
O1162 C1158 1.262 . S
O1163 Zn1122 1.981 . S
O1163 C1158 1.245 . S
C1164 O1145 1.276 . S
C1164 O1165 1.246 . S
O1165 C1164 1.246 . S
C1166 O1147 1.276 . S
C1166 O1167 1.246 . S
O1167 C1166 1.246 . S
Zn1168 O1170 1.933 1_655 S
Zn1168 O1188 1.985 . S
Zn1168 O1199 1.955 1_655 S
Zn1169 O1170 1.911 1_655 S
Zn1169 O1189 1.970 . S
Zn1169 O1205 1.945 . S
Zn1169 O1212 1.981 . S
O1170 Zn1168 1.933 1_455 S
O1170 Zn1169 1.911 1_455 S
O1170 H1171 0.841 . S
H1171 O1170 0.841 . S
C1172 O1173 1.246 . S
C1172 O1201 1.276 . S
O1173 C1172 1.246 . S
Zn1174 O1176 1.911 . S
Zn1174 O1191 1.970 . S
Zn1174 O1208 1.945 . S
Zn1174 O1215 1.981 . S
Zn1175 O1176 1.933 . S
Zn1175 O1190 1.985 . S
Zn1175 O1197 1.955 . S
O1176 Zn1174 1.911 . S
O1176 Zn1175 1.933 . S
O1176 H1177 0.841 . S
H1177 O1176 0.841 . S
Zn1178 O1179 1.933 . S
Zn1178 O1192 1.985 . S
Zn1178 O1201 1.955 . S
O1179 Zn1178 1.933 . S
O1179 Zn1180 1.911 . S
O1179 H1181 0.841 . S
Zn1180 O1179 1.911 . S
Zn1180 O1193 1.970 . S
Zn1180 O1209 1.981 1_655 S
Zn1180 O1211 1.945 . S
H1181 O1179 0.841 . S
Zn1182 O1183 1.933 . S
Zn1182 O1195 1.985 . S
Zn1182 O1203 1.955 . S
O1183 Zn1182 1.933 . S
O1183 H1184 0.841 . S
O1183 Zn1185 1.911 . S
H1184 O1183 0.841 . S
Zn1185 O1183 1.911 . S
Zn1185 O1196 1.970 . S
Zn1185 O1206 1.981 . S
Zn1185 O1214 1.945 . S
C1186 O1187 1.246 . S
C1186 O1203 1.276 . S
O1187 C1186 1.246 . S
O1188 Zn1168 1.985 . S
O1188 C1198 1.245 . S
O1189 Zn1169 1.970 . S
O1189 C1198 1.263 . S
O1190 Zn1175 1.985 . S
O1190 C1202 1.245 . S
O1191 Zn1174 1.970 . S
O1191 C1202 1.263 . S
O1192 Zn1178 1.985 . S
O1192 C1207 1.245 . S
O1193 Zn1180 1.970 . S
O1193 C1207 1.263 . S
C1194 O1205 1.262 1_455 S
C1194 O1206 1.245 . S
O1195 Zn1182 1.985 . S
O1195 C1213 1.245 . S
O1196 Zn1185 1.970 . S
O1196 C1213 1.263 . S
O1197 Zn1175 1.955 . S
O1197 C1216 1.276 . S
C1198 O1188 1.245 . S
C1198 O1189 1.263 . S
O1199 Zn1168 1.955 1_455 S
O1199 C1218 1.276 . S
C1200 O1208 1.262 . S
C1200 O1209 1.245 . S
O1201 C1172 1.276 . S
O1201 Zn1178 1.955 . S
C1202 O1190 1.245 . S
C1202 O1191 1.263 . S
O1203 Zn1182 1.955 . S
O1203 C1186 1.276 . S
C1204 O1211 1.262 . S
C1204 O1212 1.245 . S
O1205 Zn1169 1.945 . S
O1205 C1194 1.262 1_655 S
O1206 Zn1185 1.981 . S
O1206 C1194 1.245 . S
C1207 O1192 1.245 . S
C1207 O1193 1.263 . S
O1208 Zn1174 1.945 . S
O1208 C1200 1.262 . S
O1209 Zn1180 1.981 1_455 S
O1209 C1200 1.245 . S
C1210 O1214 1.262 . S
C1210 O1215 1.245 . S
O1211 Zn1180 1.945 . S
O1211 C1204 1.262 . S
O1212 Zn1169 1.981 . S
O1212 C1204 1.245 . S
C1213 O1195 1.245 . S
C1213 O1196 1.263 . S
O1214 Zn1185 1.945 . S
O1214 C1210 1.262 . S
O1215 Zn1174 1.981 . S
O1215 C1210 1.245 . S
C1216 O1197 1.276 . S
C1216 O1217 1.246 . S
O1217 C1216 1.246 . S
C1218 O1199 1.276 . S
C1218 O1219 1.246 . S
O1219 C1218 1.246 . S
Zn1220 O1222 1.933 1_565 S
Zn1220 O1240 1.985 . S
Zn1220 O1251 1.955 . S
Zn1221 O1222 1.911 . S
Zn1221 O1241 1.970 . S
Zn1221 O1257 1.945 . S
Zn1221 O1264 1.981 . S
O1222 Zn1220 1.933 1_545 S
O1222 Zn1221 1.911 . S
O1222 H1223 0.841 . S
H1223 O1222 0.841 . S
C1224 O1225 1.246 . S
C1224 O1253 1.276 . S
O1225 C1224 1.246 . S
Zn1226 O1228 1.911 . S
Zn1226 O1243 1.970 . S
Zn1226 O1260 1.945 . S
Zn1226 O1267 1.981 . S
Zn1227 O1228 1.933 1_565 S
Zn1227 O1242 1.985 1_565 S
Zn1227 O1249 1.955 . S
O1228 Zn1226 1.911 . S
O1228 Zn1227 1.933 1_545 S
O1228 H1229 0.841 . S
H1229 O1228 0.841 . S
Zn1230 O1231 1.933 1_565 S
Zn1230 O1244 1.985 . S
Zn1230 O1253 1.955 . S
O1231 Zn1230 1.933 1_545 S
O1231 Zn1232 1.911 . S
O1231 H1233 0.841 . S
Zn1232 O1231 1.911 . S
Zn1232 O1245 1.970 . S
Zn1232 O1261 1.981 . S
Zn1232 O1263 1.945 . S
H1233 O1231 0.841 . S
Zn1234 O1235 1.933 1_565 S
Zn1234 O1247 1.985 1_565 S
Zn1234 O1255 1.955 . S
O1235 Zn1234 1.933 1_545 S
O1235 H1236 0.841 . S
O1235 Zn1237 1.911 . S
H1236 O1235 0.841 . S
Zn1237 O1235 1.911 . S
Zn1237 O1248 1.970 . S
Zn1237 O1258 1.981 . S
Zn1237 O1266 1.945 . S
C1238 O1239 1.246 . S
C1238 O1255 1.276 . S
O1239 C1238 1.246 . S
O1240 Zn1220 1.985 . S
O1240 C1250 1.245 1_565 S
O1241 Zn1221 1.970 . S
O1241 C1250 1.263 . S
O1242 Zn1227 1.985 1_545 S
O1242 C1254 1.245 . S
O1243 Zn1226 1.970 . S
O1243 C1254 1.263 . S
O1244 Zn1230 1.985 . S
O1244 C1259 1.245 1_565 S
O1245 Zn1232 1.970 . S
O1245 C1259 1.263 . S
C1246 O1257 1.262 . S
C1246 O1258 1.245 . S
O1247 Zn1234 1.985 1_545 S
O1247 C1265 1.245 . S
O1248 Zn1237 1.970 . S
O1248 C1265 1.263 . S
O1249 Zn1227 1.955 . S
O1249 C1268 1.276 . S
C1250 O1240 1.245 1_545 S
C1250 O1241 1.263 . S
O1251 Zn1220 1.955 . S
O1251 C1270 1.276 . S
C1252 O1260 1.262 . S
C1252 O1261 1.245 . S
O1253 C1224 1.276 . S
O1253 Zn1230 1.955 . S
C1254 O1242 1.245 . S
C1254 O1243 1.263 . S
O1255 Zn1234 1.955 . S
O1255 C1238 1.276 . S
C1256 O1263 1.262 . S
C1256 O1264 1.245 . S
O1257 Zn1221 1.945 . S
O1257 C1246 1.262 . S
O1258 Zn1237 1.981 . S
O1258 C1246 1.245 . S
C1259 O1244 1.245 1_545 S
C1259 O1245 1.263 . S
O1260 Zn1226 1.945 . S
O1260 C1252 1.262 . S
O1261 Zn1232 1.981 . S
O1261 C1252 1.245 . S
C1262 O1266 1.262 . S
C1262 O1267 1.245 . S
O1263 Zn1232 1.945 . S
O1263 C1256 1.262 . S
O1264 Zn1221 1.981 . S
O1264 C1256 1.245 . S
C1265 O1247 1.245 . S
C1265 O1248 1.263 . S
O1266 Zn1237 1.945 . S
O1266 C1262 1.262 . S
O1267 Zn1226 1.981 . S
O1267 C1262 1.245 . S
C1268 O1249 1.276 . S
C1268 O1269 1.246 . S
O1269 C1268 1.246 . S
C1270 O1251 1.276 . S
C1270 O1271 1.246 . S
O1271 C1270 1.246 . S
H1272 C1278 0.930 . S
H1273 C1281 0.930 . S
H1274 C1282 0.930 . S
H1275 C1283 0.930 . S
H1276 C1286 0.930 . S
H1277 C1287 0.930 . S
C1278 H1272 0.930 . S
C1278 C1279 1.355 . S
C1278 C1280 1.415 . S
C1279 C1278 1.355 . S
C1279 C1281 1.419 . S
C1280 C1278 1.415 . S
C1280 C1285 1.425 . S
C1280 C1287 1.409 . S
C1281 H1273 0.930 . S
C1281 C1279 1.419 . S
C1281 C1282 1.362 . S
C1282 H1274 0.930 . S
C1282 C1281 1.362 . S
C1282 C1285 1.409 . S
C1283 H1275 0.930 . S
C1283 C1284 1.355 . S
C1283 C1285 1.415 . S
C1284 C1283 1.355 . S
C1284 C1286 1.419 . S
C1285 C1280 1.425 . S
C1285 C1282 1.409 . S
C1285 C1283 1.415 . S
C1286 H1276 0.930 . S
C1286 C1284 1.419 . S
C1286 C1287 1.362 . S
C1287 H1277 0.930 . S
C1287 C1280 1.409 . S
C1287 C1286 1.362 . S
H1288 C1294 0.930 . S
H1289 C1297 0.930 . S
H1290 C1298 0.930 . S
H1291 C1299 0.930 . S
H1292 C1302 0.930 . S
H1293 C1303 0.930 . S
C1294 H1288 0.930 . S
C1294 C1295 1.355 . S
C1294 C1296 1.415 . S
C1295 C1294 1.355 . S
C1295 C1297 1.419 . S
C1296 C1294 1.415 . S
C1296 C1301 1.425 . S
C1296 C1303 1.409 . S
C1297 H1289 0.930 . S
C1297 C1295 1.419 . S
C1297 C1298 1.362 . S
C1298 H1290 0.930 . S
C1298 C1297 1.362 . S
C1298 C1301 1.409 . S
C1299 H1291 0.930 . S
C1299 C1300 1.355 . S
C1299 C1301 1.415 . S
C1300 C1299 1.355 . S
C1300 C1302 1.419 . S
C1301 C1296 1.425 . S
C1301 C1298 1.409 . S
C1301 C1299 1.415 . S
C1302 H1292 0.930 . S
C1302 C1300 1.419 . S
C1302 C1303 1.362 . S
C1303 H1293 0.930 . S
C1303 C1296 1.409 . S
C1303 C1302 1.362 . S
H1304 C1310 0.930 . S
H1305 C1313 0.930 . S
H1306 C1314 0.930 . S
H1307 C1315 0.930 . S
H1308 C1318 0.930 . S
H1309 C1319 0.930 . S
C1310 H1304 0.930 . S
C1310 C1311 1.355 . S
C1310 C1312 1.415 . S
C1311 C1310 1.355 . S
C1311 C1313 1.419 . S
C1312 C1310 1.415 . S
C1312 C1317 1.425 . S
C1312 C1319 1.409 . S
C1313 H1305 0.930 . S
C1313 C1311 1.419 . S
C1313 C1314 1.362 . S
C1314 H1306 0.930 . S
C1314 C1313 1.362 . S
C1314 C1317 1.409 . S
C1315 H1307 0.930 . S
C1315 C1316 1.355 . S
C1315 C1317 1.415 . S
C1316 C1315 1.355 . S
C1316 C1318 1.419 . S
C1317 C1312 1.425 . S
C1317 C1314 1.409 . S
C1317 C1315 1.415 . S
C1318 H1308 0.930 . S
C1318 C1316 1.419 . S
C1318 C1319 1.362 . S
C1319 H1309 0.930 . S
C1319 C1312 1.409 . S
C1319 C1318 1.362 . S
H1320 C1326 0.930 . S
H1321 C1329 0.930 . S
H1322 C1330 0.930 . S
H1323 C1331 0.930 . S
H1324 C1334 0.930 . S
H1325 C1335 0.930 . S
C1326 H1320 0.930 . S
C1326 C1327 1.355 . S
C1326 C1328 1.415 . S
C1327 C1326 1.355 . S
C1327 C1329 1.419 . S
C1328 C1326 1.415 . S
C1328 C1333 1.425 . S
C1328 C1335 1.409 . S
C1329 H1321 0.930 . S
C1329 C1327 1.419 . S
C1329 C1330 1.362 . S
C1330 H1322 0.930 . S
C1330 C1329 1.362 . S
C1330 C1333 1.409 . S
C1331 H1323 0.930 . S
C1331 C1332 1.355 . S
C1331 C1333 1.415 . S
C1332 C1331 1.355 . S
C1332 C1334 1.419 . S
C1333 C1328 1.425 . S
C1333 C1330 1.409 . S
C1333 C1331 1.415 . S
C1334 H1324 0.930 . S
C1334 C1332 1.419 . S
C1334 C1335 1.362 . S
C1335 H1325 0.930 . S
C1335 C1328 1.409 . S
C1335 C1334 1.362 . S
H1336 C1342 0.930 . S
H1337 C1345 0.930 . S
H1338 C1346 0.930 . S
H1339 C1347 0.930 . S
H1340 C1350 0.930 . S
H1341 C1351 0.930 . S
C1342 H1336 0.930 . S
C1342 C1343 1.355 . S
C1342 C1344 1.415 . S
C1343 C1342 1.355 . S
C1343 C1345 1.419 . S
C1344 C1342 1.415 . S
C1344 C1349 1.425 . S
C1344 C1351 1.409 . S
C1345 H1337 0.930 . S
C1345 C1343 1.419 . S
C1345 C1346 1.362 . S
C1346 H1338 0.930 . S
C1346 C1345 1.362 . S
C1346 C1349 1.409 . S
C1347 H1339 0.930 . S
C1347 C1348 1.355 . S
C1347 C1349 1.415 . S
C1348 C1347 1.355 . S
C1348 C1350 1.419 . S
C1349 C1344 1.425 . S
C1349 C1346 1.409 . S
C1349 C1347 1.415 . S
C1350 H1340 0.930 . S
C1350 C1348 1.419 . S
C1350 C1351 1.362 . S
C1351 H1341 0.930 . S
C1351 C1344 1.409 . S
C1351 C1350 1.362 . S
H1352 C1358 0.930 . S
H1353 C1361 0.930 . S
H1354 C1362 0.930 . S
H1355 C1363 0.930 . S
H1356 C1366 0.930 . S
H1357 C1367 0.930 . S
C1358 H1352 0.930 . S
C1358 C1359 1.355 . S
C1358 C1360 1.415 . S
C1359 C1358 1.355 . S
C1359 C1361 1.419 . S
C1360 C1358 1.415 . S
C1360 C1365 1.425 . S
C1360 C1367 1.409 . S
C1361 H1353 0.930 . S
C1361 C1359 1.419 . S
C1361 C1362 1.362 . S
C1362 H1354 0.930 . S
C1362 C1361 1.362 . S
C1362 C1365 1.409 . S
C1363 H1355 0.930 . S
C1363 C1364 1.355 . S
C1363 C1365 1.415 . S
C1364 C1363 1.355 . S
C1364 C1366 1.419 . S
C1365 C1360 1.425 . S
C1365 C1362 1.409 . S
C1365 C1363 1.415 . S
C1366 H1356 0.930 . S
C1366 C1364 1.419 . S
C1366 C1367 1.362 . S
C1367 H1357 0.930 . S
C1367 C1360 1.409 . S
C1367 C1366 1.362 . S
H1368 C1374 0.930 . S
H1369 C1377 0.930 . S
H1370 C1378 0.930 . S
H1371 C1379 0.930 . S
H1372 C1382 0.930 . S
H1373 C1383 0.930 . S
C1374 H1368 0.930 . S
C1374 C1375 1.355 . S
C1374 C1376 1.415 . S
C1375 C1374 1.355 . S
C1375 C1377 1.419 . S
C1376 C1374 1.415 . S
C1376 C1381 1.425 . S
C1376 C1383 1.409 . S
C1377 H1369 0.930 . S
C1377 C1375 1.419 . S
C1377 C1378 1.362 . S
C1378 H1370 0.930 . S
C1378 C1377 1.362 . S
C1378 C1381 1.409 . S
C1379 H1371 0.930 . S
C1379 C1380 1.355 . S
C1379 C1381 1.415 . S
C1380 C1379 1.355 . S
C1380 C1382 1.419 . S
C1381 C1376 1.425 . S
C1381 C1378 1.409 . S
C1381 C1379 1.415 . S
C1382 H1372 0.930 . S
C1382 C1380 1.419 . S
C1382 C1383 1.362 . S
C1383 H1373 0.930 . S
C1383 C1376 1.409 . S
C1383 C1382 1.362 . S
H1384 C1390 0.930 . S
H1385 C1393 0.930 . S
H1386 C1394 0.930 . S
H1387 C1395 0.930 . S
H1388 C1398 0.930 . S
H1389 C1399 0.930 . S
C1390 H1384 0.930 . S
C1390 C1391 1.355 . S
C1390 C1392 1.415 . S
C1391 C1390 1.355 . S
C1391 C1393 1.419 . S
C1392 C1390 1.415 . S
C1392 C1397 1.425 . S
C1392 C1399 1.409 . S
C1393 H1385 0.930 . S
C1393 C1391 1.419 . S
C1393 C1394 1.362 . S
C1394 H1386 0.930 . S
C1394 C1393 1.362 . S
C1394 C1397 1.409 . S
C1395 H1387 0.930 . S
C1395 C1396 1.355 . S
C1395 C1397 1.415 . S
C1396 C1395 1.355 . S
C1396 C1398 1.419 . S
C1397 C1392 1.425 . S
C1397 C1394 1.409 . S
C1397 C1395 1.415 . S
C1398 H1388 0.930 . S
C1398 C1396 1.419 . S
C1398 C1399 1.362 . S
C1399 H1389 0.930 . S
C1399 C1392 1.409 . S
C1399 C1398 1.362 . S
H1400 C1406 0.930 . S
H1401 C1409 0.930 . S
H1402 C1410 0.930 . S
H1403 C1411 0.930 . S
H1404 C1414 0.930 . S
H1405 C1415 0.930 . S
C1406 H1400 0.930 . S
C1406 C1407 1.355 . S
C1406 C1408 1.415 . S
C1407 C1406 1.355 . S
C1407 C1409 1.419 . S
C1408 C1406 1.415 . S
C1408 C1413 1.425 . S
C1408 C1415 1.409 . S
C1409 H1401 0.930 . S
C1409 C1407 1.419 . S
C1409 C1410 1.362 . S
C1410 H1402 0.930 . S
C1410 C1409 1.362 . S
C1410 C1413 1.409 . S
C1411 H1403 0.930 . S
C1411 C1412 1.355 . S
C1411 C1413 1.415 . S
C1412 C1411 1.355 . S
C1412 C1414 1.419 . S
C1413 C1408 1.425 . S
C1413 C1410 1.409 . S
C1413 C1411 1.415 . S
C1414 H1404 0.930 . S
C1414 C1412 1.419 . S
C1414 C1415 1.362 . S
C1415 H1405 0.930 . S
C1415 C1408 1.409 . S
C1415 C1414 1.362 . S
H1416 C1422 0.930 . S
H1417 C1425 0.930 . S
H1418 C1426 0.930 . S
H1419 C1427 0.930 . S
H1420 C1430 0.930 . S
H1421 C1431 0.930 . S
C1422 H1416 0.930 . S
C1422 C1423 1.355 . S
C1422 C1424 1.415 . S
C1423 C1422 1.355 . S
C1423 C1425 1.419 . S
C1424 C1422 1.415 . S
C1424 C1429 1.425 . S
C1424 C1431 1.409 . S
C1425 H1417 0.930 . S
C1425 C1423 1.419 . S
C1425 C1426 1.362 . S
C1426 H1418 0.930 . S
C1426 C1425 1.362 . S
C1426 C1429 1.409 . S
C1427 H1419 0.930 . S
C1427 C1428 1.355 . S
C1427 C1429 1.415 . S
C1428 C1427 1.355 . S
C1428 C1430 1.419 . S
C1429 C1424 1.425 . S
C1429 C1426 1.409 . S
C1429 C1427 1.415 . S
C1430 H1420 0.930 . S
C1430 C1428 1.419 . S
C1430 C1431 1.362 . S
C1431 H1421 0.930 . S
C1431 C1424 1.409 . S
C1431 C1430 1.362 . S
H1432 C1438 0.930 . S
H1433 C1441 0.930 . S
H1434 C1442 0.930 . S
H1435 C1443 0.930 . S
H1436 C1446 0.930 . S
H1437 C1447 0.930 . S
C1438 H1432 0.930 . S
C1438 C1439 1.355 . S
C1438 C1440 1.415 . S
C1439 C1438 1.355 . S
C1439 C1441 1.419 . S
C1440 C1438 1.415 . S
C1440 C1445 1.425 . S
C1440 C1447 1.409 . S
C1441 H1433 0.930 . S
C1441 C1439 1.419 . S
C1441 C1442 1.362 . S
C1442 H1434 0.930 . S
C1442 C1441 1.362 . S
C1442 C1445 1.409 . S
C1443 H1435 0.930 . S
C1443 C1444 1.355 . S
C1443 C1445 1.415 . S
C1444 C1443 1.355 . S
C1444 C1446 1.419 . S
C1445 C1440 1.425 . S
C1445 C1442 1.409 . S
C1445 C1443 1.415 . S
C1446 H1436 0.930 . S
C1446 C1444 1.419 . S
C1446 C1447 1.362 . S
C1447 H1437 0.930 . S
C1447 C1440 1.409 . S
C1447 C1446 1.362 . S
H1448 C1454 0.930 . S
H1449 C1457 0.930 . S
H1450 C1458 0.930 . S
H1451 C1459 0.930 . S
H1452 C1462 0.930 . S
H1453 C1463 0.930 . S
C1454 H1448 0.930 . S
C1454 C1455 1.355 . S
C1454 C1456 1.415 . S
C1455 C1454 1.355 . S
C1455 C1457 1.419 . S
C1456 C1454 1.415 . S
C1456 C1461 1.425 . S
C1456 C1463 1.409 . S
C1457 H1449 0.930 . S
C1457 C1455 1.419 . S
C1457 C1458 1.362 . S
C1458 H1450 0.930 . S
C1458 C1457 1.362 . S
C1458 C1461 1.409 . S
C1459 H1451 0.930 . S
C1459 C1460 1.355 . S
C1459 C1461 1.415 . S
C1460 C1459 1.355 . S
C1460 C1462 1.419 . S
C1461 C1456 1.425 . S
C1461 C1458 1.409 . S
C1461 C1459 1.415 . S
C1462 H1452 0.930 . S
C1462 C1460 1.419 . S
C1462 C1463 1.362 . S
C1463 H1453 0.930 . S
C1463 C1456 1.409 . S
C1463 C1462 1.362 . S
H1464 C1470 0.930 . S
H1465 C1473 0.930 . S
H1466 C1474 0.930 . S
H1467 C1475 0.930 1_556 S
H1468 C1478 0.930 . S
H1469 C1479 0.930 . S
C1470 H1464 0.930 . S
C1470 C1471 1.355 . S
C1470 C1472 1.415 . S
C1471 C1470 1.355 . S
C1471 C1473 1.419 1_554 S
C1472 C1470 1.415 . S
C1472 C1477 1.425 . S
C1472 C1479 1.409 . S
C1473 H1465 0.930 . S
C1473 C1471 1.419 1_556 S
C1473 C1474 1.362 . S
C1474 H1466 0.930 . S
C1474 C1473 1.362 . S
C1474 C1477 1.409 1_556 S
C1475 H1467 0.930 1_554 S
C1475 C1476 1.355 . S
C1475 C1477 1.415 . S
C1476 C1475 1.355 . S
C1476 C1478 1.419 . S
C1477 C1472 1.425 . S
C1477 C1474 1.409 1_554 S
C1477 C1475 1.415 . S
C1478 H1468 0.930 . S
C1478 C1476 1.419 . S
C1478 C1479 1.362 . S
C1479 H1469 0.930 . S
C1479 C1472 1.409 . S
C1479 C1478 1.362 . S
H1480 C1486 0.930 . S
H1481 C1489 0.930 1_556 S
H1482 C1490 0.930 . S
H1483 C1491 0.930 1_556 S
H1484 C1494 0.930 . S
H1485 C1495 0.930 . S
C1486 H1480 0.930 . S
C1486 C1487 1.355 . S
C1486 C1488 1.415 . S
C1487 C1486 1.355 . S
C1487 C1489 1.419 . S
C1488 C1486 1.415 . S
C1488 C1493 1.425 . S
C1488 C1495 1.409 . S
C1489 H1481 0.930 1_554 S
C1489 C1487 1.419 . S
C1489 C1490 1.362 1_554 S
C1490 H1482 0.930 . S
C1490 C1489 1.362 1_556 S
C1490 C1493 1.409 1_556 S
C1491 H1483 0.930 1_554 S
C1491 C1492 1.355 . S
C1491 C1493 1.415 . S
C1492 C1491 1.355 . S
C1492 C1494 1.419 . S
C1493 C1488 1.425 . S
C1493 C1490 1.409 1_554 S
C1493 C1491 1.415 . S
C1494 H1484 0.930 . S
C1494 C1492 1.419 . S
C1494 C1495 1.362 . S
C1495 H1485 0.930 . S
C1495 C1488 1.409 . S
C1495 C1494 1.362 . S
H1496 C1502 0.930 . S
H1497 C1505 0.930 . S
H1498 C1506 0.930 . S
H1499 C1507 0.930 . S
H1500 C1510 0.930 . S
H1501 C1511 0.930 . S
C1502 H1496 0.930 . S
C1502 C1503 1.355 . S
C1502 C1504 1.415 . S
C1503 C1502 1.355 . S
C1503 C1505 1.419 . S
C1504 C1502 1.415 . S
C1504 C1509 1.425 . S
C1504 C1511 1.409 . S
C1505 H1497 0.930 . S
C1505 C1503 1.419 . S
C1505 C1506 1.362 . S
C1506 H1498 0.930 . S
C1506 C1505 1.362 . S
C1506 C1509 1.409 . S
C1507 H1499 0.930 . S
C1507 C1508 1.355 . S
C1507 C1509 1.415 . S
C1508 C1507 1.355 . S
C1508 C1510 1.419 . S
C1509 C1504 1.425 . S
C1509 C1506 1.409 . S
C1509 C1507 1.415 . S
C1510 H1500 0.930 . S
C1510 C1508 1.419 . S
C1510 C1511 1.362 . S
C1511 H1501 0.930 . S
C1511 C1504 1.409 . S
C1511 C1510 1.362 . S
H1512 C1518 0.930 . S
H1513 C1521 0.930 . S
H1514 C1522 0.930 . S
H1515 C1523 0.930 . S
H1516 C1526 0.930 . S
H1517 C1527 0.930 . S
C1518 H1512 0.930 . S
C1518 C1519 1.355 . S
C1518 C1520 1.415 . S
C1519 C1518 1.355 . S
C1519 C1521 1.419 . S
C1520 C1518 1.415 . S
C1520 C1525 1.425 . S
C1520 C1527 1.409 . S
C1521 H1513 0.930 . S
C1521 C1519 1.419 . S
C1521 C1522 1.362 . S
C1522 H1514 0.930 . S
C1522 C1521 1.362 . S
C1522 C1525 1.409 . S
C1523 H1515 0.930 . S
C1523 C1524 1.355 . S
C1523 C1525 1.415 . S
C1524 C1523 1.355 . S
C1524 C1526 1.419 . S
C1525 C1520 1.425 . S
C1525 C1522 1.409 . S
C1525 C1523 1.415 . S
C1526 H1516 0.930 . S
C1526 C1524 1.419 . S
C1526 C1527 1.362 . S
C1527 H1517 0.930 . S
C1527 C1520 1.409 . S
C1527 C1526 1.362 . S
H1528 C1534 0.930 . S
H1529 C1537 0.930 . S
H1530 C1538 0.930 . S
H1531 C1539 0.930 . S
H1532 C1542 0.930 1_655 S
H1533 C1543 0.930 . S
C1534 H1528 0.930 . S
C1534 C1535 1.355 1_655 S
C1534 C1536 1.415 1_655 S
C1535 C1534 1.355 1_455 S
C1535 C1537 1.419 . S
C1536 C1534 1.415 1_455 S
C1536 C1541 1.425 . S
C1536 C1543 1.409 1_455 S
C1537 H1529 0.930 . S
C1537 C1535 1.419 . S
C1537 C1538 1.362 . S
C1538 H1530 0.930 . S
C1538 C1537 1.362 . S
C1538 C1541 1.409 . S
C1539 H1531 0.930 . S
C1539 C1540 1.355 . S
C1539 C1541 1.415 . S
C1540 C1539 1.355 . S
C1540 C1542 1.419 . S
C1541 C1536 1.425 . S
C1541 C1538 1.409 . S
C1541 C1539 1.415 . S
C1542 H1532 0.930 1_455 S
C1542 C1540 1.419 . S
C1542 C1543 1.362 1_455 S
C1543 H1533 0.930 . S
C1543 C1536 1.409 1_655 S
C1543 C1542 1.362 1_655 S
H1544 C1550 0.930 . S
H1545 C1553 0.930 . S
H1546 C1554 0.930 . S
H1547 C1555 0.930 1_565 S
H1548 C1558 0.930 . S
H1549 C1559 0.930 . S
C1550 H1544 0.930 . S
C1550 C1551 1.355 . S
C1550 C1552 1.415 . S
C1551 C1550 1.355 . S
C1551 C1553 1.419 1_545 S
C1552 C1550 1.415 . S
C1552 C1557 1.425 . S
C1552 C1559 1.409 . S
C1553 H1545 0.930 . S
C1553 C1551 1.419 1_565 S
C1553 C1554 1.362 . S
C1554 H1546 0.930 . S
C1554 C1553 1.362 . S
C1554 C1557 1.409 1_565 S
C1555 H1547 0.930 1_545 S
C1555 C1556 1.355 . S
C1555 C1557 1.415 . S
C1556 C1555 1.355 . S
C1556 C1558 1.419 . S
C1557 C1552 1.425 . S
C1557 C1554 1.409 1_545 S
C1557 C1555 1.415 . S
C1558 H1548 0.930 . S
C1558 C1556 1.419 . S
C1558 C1559 1.362 . S
C1559 H1549 0.930 . S
C1559 C1552 1.409 . S
C1559 C1558 1.362 . S
H1560 C1566 0.930 . S
H1561 C1569 0.930 . S
H1562 C1570 0.930 . S
H1563 C1571 0.914 1_655 S
H1564 C1574 0.930 . S
H1565 C1575 0.930 . S
C1566 H1560 0.930 . S
C1566 C1567 1.355 . S
C1566 C1568 1.415 . S
C1567 C1566 1.355 . S
C1567 C1569 1.419 1_455 S
C1568 C1566 1.415 . S
C1568 C1573 1.425 . S
C1568 C1575 1.409 . S
C1569 H1561 0.930 . S
C1569 C1567 1.419 1_655 S
C1569 C1570 1.362 . S
C1570 H1562 0.930 . S
C1570 C1569 1.362 . S
C1570 C1573 1.409 1_655 S
C1571 H1563 0.914 1_455 S
C1571 C1572 1.366 . S
C1571 C1573 1.418 . S
C1572 C1571 1.366 . S
C1572 C1574 1.419 . S
C1573 C1568 1.425 . S
C1573 C1570 1.409 1_455 S
C1573 C1571 1.418 . S
C1574 H1564 0.930 . S
C1574 C1572 1.419 . S
C1574 C1575 1.362 . S
C1575 H1565 0.930 . S
C1575 C1568 1.409 . S
C1575 C1574 1.362 . S
H1576 C1582 0.930 . S
H1577 C1585 0.930 . S
H1578 C1586 0.930 . S
H1579 C1587 0.930 . S
H1580 C1590 0.930 . S
H1581 C1591 0.930 . S
C1582 H1576 0.930 . S
C1582 C1583 1.355 . S
C1582 C1584 1.415 . S
C1583 C1582 1.355 . S
C1583 C1585 1.419 . S
C1584 C1582 1.415 . S
C1584 C1589 1.425 . S
C1584 C1591 1.409 . S
C1585 H1577 0.930 . S
C1585 C1583 1.419 . S
C1585 C1586 1.362 . S
C1586 H1578 0.930 . S
C1586 C1585 1.362 . S
C1586 C1589 1.409 . S
C1587 H1579 0.930 . S
C1587 C1588 1.355 . S
C1587 C1589 1.415 . S
C1588 C1587 1.355 . S
C1588 C1590 1.419 . S
C1589 C1584 1.425 . S
C1589 C1586 1.409 . S
C1589 C1587 1.415 . S
C1590 H1580 0.930 . S
C1590 C1588 1.419 . S
C1590 C1591 1.362 . S
C1591 H1581 0.930 . S
C1591 C1584 1.409 . S
C1591 C1590 1.362 . S
H1592 C1598 0.930 . S
H1593 C1601 0.930 . S
H1594 C1602 0.930 1_655 S
H1595 C1603 0.930 . S
H1596 C1606 0.930 . S
H1597 C1607 0.930 . S
C1598 H1592 0.930 . S
C1598 C1599 1.355 . S
C1598 C1600 1.415 . S
C1599 C1598 1.355 . S
C1599 C1601 1.419 . S
C1600 C1598 1.415 . S
C1600 C1605 1.425 . S
C1600 C1607 1.409 . S
C1601 H1593 0.930 . S
C1601 C1599 1.419 . S
C1601 C1602 1.362 . S
C1602 H1594 0.930 1_455 S
C1602 C1601 1.362 . S
C1602 C1605 1.409 . S
C1603 H1595 0.930 . S
C1603 C1604 1.355 . S
C1603 C1605 1.415 . S
C1604 C1603 1.355 . S
C1604 C1606 1.419 . S
C1605 C1600 1.425 . S
C1605 C1602 1.409 . S
C1605 C1603 1.415 . S
C1606 H1596 0.930 . S
C1606 C1604 1.419 . S
C1606 C1607 1.362 . S
C1607 H1597 0.930 . S
C1607 C1600 1.409 . S
C1607 C1606 1.362 . S
H1608 C1614 0.930 . S
H1609 C1617 0.930 . S
H1610 C1618 0.930 . S
H1611 C1619 0.930 . S
H1612 C1622 0.930 . S
H1613 C1623 0.930 . S
C1614 H1608 0.930 . S
C1614 C1615 1.355 . S
C1614 C1616 1.415 . S
C1615 C1614 1.355 . S
C1615 C1617 1.419 . S
C1616 C1614 1.415 . S
C1616 C1621 1.425 . S
C1616 C1623 1.409 . S
C1617 H1609 0.930 . S
C1617 C1615 1.419 . S
C1617 C1618 1.362 . S
C1618 H1610 0.930 . S
C1618 C1617 1.362 . S
C1618 C1621 1.409 . S
C1619 H1611 0.930 . S
C1619 C1620 1.355 . S
C1619 C1621 1.415 . S
C1620 C1619 1.355 . S
C1620 C1622 1.419 . S
C1621 C1616 1.425 . S
C1621 C1618 1.409 . S
C1621 C1619 1.415 . S
C1622 H1612 0.930 . S
C1622 C1620 1.419 . S
C1622 C1623 1.362 . S
C1623 H1613 0.930 . S
C1623 C1616 1.409 . S
C1623 C1622 1.362 . S
H1624 C1630 0.930 . S
H1625 C1633 0.930 . S
H1626 C1634 0.930 . S
H1627 C1635 0.930 . S
H1628 C1638 0.930 . S
H1629 C1639 0.930 . S
C1630 H1624 0.930 . S
C1630 C1631 1.355 . S
C1630 C1632 1.415 . S
C1631 C1630 1.355 . S
C1631 C1633 1.419 . S
C1632 C1630 1.415 . S
C1632 C1637 1.425 . S
C1632 C1639 1.409 . S
C1633 H1625 0.930 . S
C1633 C1631 1.419 . S
C1633 C1634 1.362 . S
C1634 H1626 0.930 . S
C1634 C1633 1.362 . S
C1634 C1637 1.409 . S
C1635 H1627 0.930 . S
C1635 C1636 1.355 . S
C1635 C1637 1.415 . S
C1636 C1635 1.355 . S
C1636 C1638 1.419 . S
C1637 C1632 1.425 . S
C1637 C1634 1.409 . S
C1637 C1635 1.415 . S
C1638 H1628 0.930 . S
C1638 C1636 1.419 . S
C1638 C1639 1.362 . S
C1639 H1629 0.930 . S
C1639 C1632 1.409 . S
C1639 C1638 1.362 . S
H1640 C1646 0.928 1_565 S
H1641 C1649 0.930 . S
H1642 C1650 0.930 . S
H1643 C1651 0.930 . S
H1644 C1654 0.930 . S
H1645 C1655 0.947 . S
C1646 H1640 0.928 1_545 S
C1646 C1647 1.355 . S
C1646 C1648 1.415 . S
C1647 C1646 1.355 . S
C1647 C1649 1.419 . S
C1648 C1646 1.415 . S
C1648 C1653 1.425 . S
C1648 C1655 1.402 1_545 S
C1649 H1641 0.930 . S
C1649 C1647 1.419 . S
C1649 C1650 1.362 . S
C1650 H1642 0.930 . S
C1650 C1649 1.362 . S
C1650 C1653 1.409 . S
C1651 H1643 0.930 . S
C1651 C1652 1.355 . S
C1651 C1653 1.415 . S
C1652 C1651 1.355 . S
C1652 C1654 1.419 . S
C1653 C1648 1.425 . S
C1653 C1650 1.409 . S
C1653 C1651 1.415 . S
C1654 H1644 0.930 . S
C1654 C1652 1.419 . S
C1654 C1655 1.355 1_545 S
C1655 H1645 0.947 . S
C1655 C1648 1.402 1_565 S
C1655 C1654 1.355 1_565 S
H1656 C1662 0.930 . S
H1657 C1665 0.930 . S
H1658 C1666 0.930 . S
H1659 C1667 0.930 . S
H1660 C1670 0.930 1_655 S
H1661 C1671 0.930 1_655 S
C1662 H1656 0.930 . S
C1662 C1663 1.355 . S
C1662 C1664 1.415 . S
C1663 C1662 1.355 . S
C1663 C1665 1.419 . S
C1664 C1662 1.415 . S
C1664 C1669 1.425 . S
C1664 C1671 1.409 . S
C1665 H1657 0.930 . S
C1665 C1663 1.419 . S
C1665 C1666 1.362 . S
C1666 H1658 0.930 . S
C1666 C1665 1.362 . S
C1666 C1669 1.409 . S
C1667 H1659 0.930 . S
C1667 C1668 1.355 . S
C1667 C1669 1.415 . S
C1668 C1667 1.355 . S
C1668 C1670 1.419 . S
C1669 C1664 1.425 . S
C1669 C1666 1.409 . S
C1669 C1667 1.415 . S
C1670 H1660 0.930 1_455 S
C1670 C1668 1.419 . S
C1670 C1671 1.362 . S
C1671 H1661 0.930 1_455 S
C1671 C1664 1.409 . S
C1671 C1670 1.362 . S
H1672 C1678 0.930 . S
H1673 C1681 0.930 . S
H1674 C1682 0.930 . S
H1675 C1683 0.930 . S
H1676 C1686 0.930 1_565 S
H1677 C1687 0.930 1_565 S
C1678 H1672 0.930 . S
C1678 C1679 1.355 . S
C1678 C1680 1.415 . S
C1679 C1678 1.355 . S
C1679 C1681 1.419 . S
C1680 C1678 1.415 . S
C1680 C1685 1.425 . S
C1680 C1687 1.409 . S
C1681 H1673 0.930 . S
C1681 C1679 1.419 . S
C1681 C1682 1.362 . S
C1682 H1674 0.930 . S
C1682 C1681 1.362 . S
C1682 C1685 1.409 . S
C1683 H1675 0.930 . S
C1683 C1684 1.355 . S
C1683 C1685 1.415 . S
C1684 C1683 1.355 . S
C1684 C1686 1.419 . S
C1685 C1680 1.425 . S
C1685 C1682 1.409 . S
C1685 C1683 1.415 . S
C1686 H1676 0.930 1_545 S
C1686 C1684 1.419 . S
C1686 C1687 1.362 . S
C1687 H1677 0.930 1_545 S
C1687 C1680 1.409 . S
C1687 C1686 1.362 . S
H1688 C1694 0.930 . S
H1689 C1697 0.930 . S
H1690 C1698 0.930 . S
H1691 C1699 0.930 . S
H1692 C1702 0.930 . S
H1693 C1703 0.930 . S
C1694 H1688 0.930 . S
C1694 C1695 1.355 . S
C1694 C1696 1.415 . S
C1695 C1694 1.355 . S
C1695 C1697 1.419 . S
C1696 C1694 1.415 . S
C1696 C1701 1.425 . S
C1696 C1703 1.409 . S
C1697 H1689 0.930 . S
C1697 C1695 1.419 . S
C1697 C1698 1.362 . S
C1698 H1690 0.930 . S
C1698 C1697 1.362 . S
C1698 C1701 1.409 . S
C1699 H1691 0.930 . S
C1699 C1700 1.355 . S
C1699 C1701 1.415 . S
C1700 C1699 1.355 . S
C1700 C1702 1.419 . S
C1701 C1696 1.425 . S
C1701 C1698 1.409 . S
C1701 C1699 1.415 . S
C1702 H1692 0.930 . S
C1702 C1700 1.419 . S
C1702 C1703 1.362 . S
C1703 H1693 0.930 . S
C1703 C1696 1.409 . S
C1703 C1702 1.362 . S
H1704 C1710 0.930 . S
H1705 C1713 0.930 . S
H1706 C1714 0.930 . S
H1707 C1715 0.930 . S
H1708 C1718 0.930 . S
H1709 C1719 0.930 . S
C1710 H1704 0.930 . S
C1710 C1711 1.355 . S
C1710 C1712 1.415 . S
C1711 C1710 1.355 . S
C1711 C1713 1.419 1_545 S
C1712 C1710 1.415 . S
C1712 C1717 1.387 1_545 S
C1712 C1719 1.409 . S
C1713 H1705 0.930 . S
C1713 C1711 1.419 1_565 S
C1713 C1714 1.362 . S
C1714 H1706 0.930 . S
C1714 C1713 1.362 . S
C1714 C1717 1.444 . S
C1715 H1707 0.930 . S
C1715 C1716 1.355 1_565 S
C1715 C1717 1.417 . S
C1716 C1715 1.355 1_545 S
C1716 C1718 1.419 . S
C1717 C1712 1.387 1_565 S
C1717 C1714 1.444 . S
C1717 C1715 1.417 . S
C1718 H1708 0.930 . S
C1718 C1716 1.419 . S
C1718 C1719 1.362 . S
C1719 H1709 0.930 . S
C1719 C1712 1.409 . S
C1719 C1718 1.362 . S
H1720 C1726 0.930 . S
H1721 C1729 0.930 1_655 S
H1722 C1730 0.930 . S
H1723 C1731 0.930 . S
H1724 C1734 0.930 . S
H1725 C1735 0.930 . S
C1726 H1720 0.930 . S
C1726 C1727 1.355 . S
C1726 C1728 1.415 . S
C1727 C1726 1.355 . S
C1727 C1729 1.419 . S
C1728 C1726 1.415 . S
C1728 C1733 1.425 . S
C1728 C1735 1.409 . S
C1729 H1721 0.930 1_455 S
C1729 C1727 1.419 . S
C1729 C1730 1.362 . S
C1730 H1722 0.930 . S
C1730 C1729 1.362 . S
C1730 C1733 1.409 . S
C1731 H1723 0.930 . S
C1731 C1732 1.355 . S
C1731 C1733 1.415 . S
C1732 C1731 1.355 . S
C1732 C1734 1.419 . S
C1733 C1728 1.425 . S
C1733 C1730 1.409 . S
C1733 C1731 1.415 . S
C1734 H1724 0.930 . S
C1734 C1732 1.419 . S
C1734 C1735 1.362 . S
C1735 H1725 0.930 . S
C1735 C1728 1.409 . S
C1735 C1734 1.362 . S
H1736 C1742 0.930 . S
H1737 C1745 0.930 . S
H1738 C1746 0.930 . S
H1739 C1747 0.905 1_565 S
H1740 C1750 0.930 . S
H1741 C1751 0.930 . S
C1742 H1736 0.930 . S
C1742 C1743 1.355 . S
C1742 C1744 1.415 . S
C1743 C1742 1.355 . S
C1743 C1745 1.419 1_545 S
C1744 C1742 1.415 . S
C1744 C1749 1.425 . S
C1744 C1751 1.409 . S
C1745 H1737 0.930 . S
C1745 C1743 1.419 1_565 S
C1745 C1746 1.362 . S
C1746 H1738 0.930 . S
C1746 C1745 1.362 . S
C1746 C1749 1.409 1_565 S
C1747 H1739 0.905 1_545 S
C1747 C1748 1.377 . S
C1747 C1749 1.417 . S
C1748 C1747 1.377 . S
C1748 C1750 1.419 . S
C1749 C1744 1.425 . S
C1749 C1746 1.409 1_545 S
C1749 C1747 1.417 . S
C1750 H1740 0.930 . S
C1750 C1748 1.419 . S
C1750 C1751 1.362 . S
C1751 H1741 0.930 . S
C1751 C1744 1.409 . S
C1751 C1750 1.362 . S
H1752 C1758 0.930 . S
H1753 C1761 0.930 . S
H1754 C1762 0.930 . S
H1755 C1763 0.930 . S
H1756 C1766 0.922 1_655 S
H1757 C1767 0.930 . S
C1758 H1752 0.930 . S
C1758 C1759 1.355 . S
C1758 C1760 1.415 . S
C1759 C1758 1.355 . S
C1759 C1761 1.419 . S
C1760 C1758 1.415 . S
C1760 C1765 1.425 . S
C1760 C1767 1.409 1_455 S
C1761 H1753 0.930 . S
C1761 C1759 1.419 . S
C1761 C1762 1.362 . S
C1762 H1754 0.930 . S
C1762 C1761 1.362 . S
C1762 C1765 1.409 . S
C1763 H1755 0.930 . S
C1763 C1764 1.355 . S
C1763 C1765 1.415 . S
C1764 C1763 1.355 . S
C1764 C1766 1.428 . S
C1765 C1760 1.425 . S
C1765 C1762 1.409 . S
C1765 C1763 1.415 . S
C1766 H1756 0.922 1_455 S
C1766 C1764 1.428 . S
C1766 C1767 1.361 1_455 S
C1767 H1757 0.930 . S
C1767 C1760 1.409 1_655 S
C1767 C1766 1.361 1_655 S
H1768 C1774 0.930 . S
H1769 C1777 0.930 . S
H1770 C1778 0.930 1_565 S
H1771 C1779 0.930 . S
H1772 C1782 0.930 . S
H1773 C1783 0.930 . S
C1774 H1768 0.930 . S
C1774 C1775 1.355 . S
C1774 C1776 1.415 . S
C1775 C1774 1.355 . S
C1775 C1777 1.419 . S
C1776 C1774 1.415 . S
C1776 C1781 1.425 . S
C1776 C1783 1.409 . S
C1777 H1769 0.930 . S
C1777 C1775 1.419 . S
C1777 C1778 1.362 . S
C1778 H1770 0.930 1_545 S
C1778 C1777 1.362 . S
C1778 C1781 1.409 . S
C1779 H1771 0.930 . S
C1779 C1780 1.355 . S
C1779 C1781 1.415 . S
C1780 C1779 1.355 . S
C1780 C1782 1.419 . S
C1781 C1776 1.425 . S
C1781 C1778 1.409 . S
C1781 C1779 1.415 . S
C1782 H1772 0.930 . S
C1782 C1780 1.419 . S
C1782 C1783 1.362 . S
C1783 H1773 0.930 . S
C1783 C1776 1.409 . S
C1783 C1782 1.362 . S
H1784 C1790 0.930 . S
H1785 C1793 0.930 . S
H1786 C1794 0.930 . S
H1787 C1795 0.930 . S
H1788 C1798 0.930 . S
H1789 C1799 0.930 . S
C1790 H1784 0.930 . S
C1790 C1791 1.355 . S
C1790 C1792 1.415 . S
C1791 C1790 1.355 . S
C1791 C1793 1.419 . S
C1792 C1790 1.415 . S
C1792 C1797 1.425 . S
C1792 C1799 1.409 . S
C1793 H1785 0.930 . S
C1793 C1791 1.419 . S
C1793 C1794 1.362 . S
C1794 H1786 0.930 . S
C1794 C1793 1.362 . S
C1794 C1797 1.409 . S
C1795 H1787 0.930 . S
C1795 C1796 1.355 . S
C1795 C1797 1.415 . S
C1796 C1795 1.355 . S
C1796 C1798 1.419 . S
C1797 C1792 1.425 . S
C1797 C1794 1.409 . S
C1797 C1795 1.415 . S
C1798 H1788 0.930 . S
C1798 C1796 1.419 . S
C1798 C1799 1.362 . S
C1799 H1789 0.930 . S
C1799 C1792 1.409 . S
C1799 C1798 1.362 . S
H1800 C1806 0.930 . S
H1801 C1809 0.930 . S
H1802 C1810 0.930 . S
H1803 C1811 0.930 . S
H1804 C1814 0.930 1_655 S
H1805 C1815 0.930 1_655 S
C1806 H1800 0.930 . S
C1806 C1807 1.355 . S
C1806 C1808 1.415 . S
C1807 C1806 1.355 . S
C1807 C1809 1.419 . S
C1808 C1806 1.415 . S
C1808 C1813 1.425 . S
C1808 C1815 1.409 . S
C1809 H1801 0.930 . S
C1809 C1807 1.419 . S
C1809 C1810 1.362 . S
C1810 H1802 0.930 . S
C1810 C1809 1.362 . S
C1810 C1813 1.409 . S
C1811 H1803 0.930 . S
C1811 C1812 1.355 . S
C1811 C1813 1.415 . S
C1812 C1811 1.355 . S
C1812 C1814 1.419 . S
C1813 C1808 1.425 . S
C1813 C1810 1.409 . S
C1813 C1811 1.415 . S
C1814 H1804 0.930 1_455 S
C1814 C1812 1.419 . S
C1814 C1815 1.362 . S
C1815 H1805 0.930 1_455 S
C1815 C1808 1.409 . S
C1815 C1814 1.362 . S
H1816 C1822 0.930 . S
H1817 C1825 0.930 . S
H1818 C1826 0.930 . S
H1819 C1827 0.930 . S
H1820 C1830 0.930 . S
H1821 C1831 0.930 . S
C1822 H1816 0.930 . S
C1822 C1823 1.355 . S
C1822 C1824 1.415 . S
C1823 C1822 1.355 . S
C1823 C1825 1.419 . S
C1824 C1822 1.415 . S
C1824 C1829 1.425 . S
C1824 C1831 1.409 . S
C1825 H1817 0.930 . S
C1825 C1823 1.419 . S
C1825 C1826 1.362 . S
C1826 H1818 0.930 . S
C1826 C1825 1.362 . S
C1826 C1829 1.409 . S
C1827 H1819 0.930 . S
C1827 C1828 1.355 . S
C1827 C1829 1.415 . S
C1828 C1827 1.355 . S
C1828 C1830 1.419 . S
C1829 C1824 1.425 . S
C1829 C1826 1.409 . S
C1829 C1827 1.415 . S
C1830 H1820 0.930 . S
C1830 C1828 1.419 . S
C1830 C1831 1.362 . S
C1831 H1821 0.930 . S
C1831 C1824 1.409 . S
C1831 C1830 1.362 . S
H1832 C1838 0.930 1_655 S
H1833 C1841 0.930 . S
H1834 C1842 0.930 . S
H1835 C1843 0.930 . S
H1836 C1846 0.930 . S
H1837 C1847 0.930 . S
C1838 H1832 0.930 1_455 S
C1838 C1839 1.355 . S
C1838 C1840 1.415 . S
C1839 C1838 1.355 . S
C1839 C1841 1.419 . S
C1840 C1838 1.415 . S
C1840 C1845 1.425 . S
C1840 C1847 1.409 1_455 S
C1841 H1833 0.930 . S
C1841 C1839 1.419 . S
C1841 C1842 1.362 . S
C1842 H1834 0.930 . S
C1842 C1841 1.362 . S
C1842 C1845 1.409 . S
C1843 H1835 0.930 . S
C1843 C1844 1.355 . S
C1843 C1845 1.415 . S
C1844 C1843 1.355 . S
C1844 C1846 1.419 1_455 S
C1845 C1840 1.425 . S
C1845 C1842 1.409 . S
C1845 C1843 1.415 . S
C1846 H1836 0.930 . S
C1846 C1844 1.419 1_655 S
C1846 C1847 1.362 . S
C1847 H1837 0.930 . S
C1847 C1840 1.409 1_655 S
C1847 C1846 1.362 . S
H1848 C1854 0.942 . S
H1849 C1857 0.930 . S
H1850 C1858 0.930 . S
H1851 C1859 0.930 . S
H1852 C1862 0.930 . S
H1853 C1863 0.930 . S
C1854 H1848 0.942 . S
C1854 C1855 1.346 1_565 S
C1854 C1856 1.411 1_565 S
C1855 C1854 1.346 1_545 S
C1855 C1857 1.419 . S
C1856 C1854 1.411 1_545 S
C1856 C1861 1.425 . S
C1856 C1863 1.409 1_545 S
C1857 H1849 0.930 . S
C1857 C1855 1.419 . S
C1857 C1858 1.362 . S
C1858 H1850 0.930 . S
C1858 C1857 1.362 . S
C1858 C1861 1.409 . S
C1859 H1851 0.930 . S
C1859 C1860 1.355 . S
C1859 C1861 1.415 . S
C1860 C1859 1.355 . S
C1860 C1862 1.419 1_545 S
C1861 C1856 1.425 . S
C1861 C1858 1.409 . S
C1861 C1859 1.415 . S
C1862 H1852 0.930 . S
C1862 C1860 1.419 1_565 S
C1862 C1863 1.362 . S
C1863 H1853 0.930 . S
C1863 C1856 1.409 1_565 S
C1863 C1862 1.362 . S
H1864 C1870 0.930 . S
H1865 C1873 0.930 1_655 S
H1866 C1874 0.942 . S
H1867 C1875 0.945 . S
H1868 C1878 0.930 . S
H1869 C1879 0.930 . S
C1870 H1864 0.930 . S
C1870 C1871 1.355 . S
C1870 C1872 1.415 . S
C1871 C1870 1.355 . S
C1871 C1873 1.419 . S
C1872 C1870 1.415 . S
C1872 C1877 1.425 . S
C1872 C1879 1.409 . S
C1873 H1865 0.930 1_455 S
C1873 C1871 1.419 . S
C1873 C1874 1.361 1_455 S
C1874 H1866 0.942 . S
C1874 C1873 1.361 1_655 S
C1874 C1877 1.399 1_655 S
C1875 H1867 0.945 . S
C1875 C1876 1.355 . S
C1875 C1877 1.415 . S
C1876 C1875 1.355 . S
C1876 C1878 1.419 . S
C1877 C1872 1.425 . S
C1877 C1874 1.399 1_455 S
C1877 C1875 1.415 . S
C1878 H1868 0.930 . S
C1878 C1876 1.419 . S
C1878 C1879 1.362 . S
C1879 H1869 0.930 . S
C1879 C1872 1.409 . S
C1879 C1878 1.362 . S
H1880 C1886 0.930 . S
H1881 C1889 0.930 . S
H1882 C1890 0.930 . S
H1883 C1891 0.930 . S
H1884 C1894 0.930 1_565 S
H1885 C1895 0.930 1_565 S
C1886 H1880 0.930 . S
C1886 C1887 1.355 . S
C1886 C1888 1.415 . S
C1887 C1886 1.355 . S
C1887 C1889 1.419 . S
C1888 C1886 1.415 . S
C1888 C1893 1.425 . S
C1888 C1895 1.409 . S
C1889 H1881 0.930 . S
C1889 C1887 1.419 . S
C1889 C1890 1.362 . S
C1890 H1882 0.930 . S
C1890 C1889 1.362 . S
C1890 C1893 1.409 . S
C1891 H1883 0.930 . S
C1891 C1892 1.355 . S
C1891 C1893 1.415 . S
C1892 C1891 1.355 . S
C1892 C1894 1.419 . S
C1893 C1888 1.425 . S
C1893 C1890 1.409 . S
C1893 C1891 1.415 . S
C1894 H1884 0.930 1_545 S
C1894 C1892 1.419 . S
C1894 C1895 1.362 . S
C1895 H1885 0.930 1_545 S
C1895 C1888 1.409 . S
C1895 C1894 1.362 . S
H1896 C1902 0.930 . S
H1897 C1905 0.930 . S
H1898 C1906 0.930 . S
H1899 C1907 0.926 1_655 S
H1900 C1910 0.930 . S
H1901 C1911 0.930 . S
C1902 H1896 0.930 . S
C1902 C1903 1.355 . S
C1902 C1904 1.415 . S
C1903 C1902 1.355 . S
C1903 C1905 1.419 1_455 S
C1904 C1902 1.415 . S
C1904 C1909 1.444 . S
C1904 C1911 1.409 . S
C1905 H1897 0.930 . S
C1905 C1903 1.419 1_655 S
C1905 C1906 1.362 . S
C1906 H1898 0.930 . S
C1906 C1905 1.362 . S
C1906 C1909 1.392 1_655 S
C1907 H1899 0.926 1_455 S
C1907 C1908 1.358 . S
C1907 C1909 1.414 . S
C1908 C1907 1.358 . S
C1908 C1910 1.419 . S
C1909 C1904 1.444 . S
C1909 C1906 1.392 1_455 S
C1909 C1907 1.414 . S
C1910 H1900 0.930 . S
C1910 C1908 1.419 . S
C1910 C1911 1.362 . S
C1911 H1901 0.930 . S
C1911 C1904 1.409 . S
C1911 C1910 1.362 . S
H1912 C1918 0.930 . S
H1913 C1921 0.930 . S
H1914 C1922 0.930 . S
H1915 C1923 0.930 1_556 S
H1916 C1926 0.930 . S
H1917 C1927 0.930 . S
C1918 H1912 0.930 . S
C1918 C1919 1.355 . S
C1918 C1920 1.415 . S
C1919 C1918 1.355 . S
C1919 C1921 1.419 1_554 S
C1920 C1918 1.415 . S
C1920 C1925 1.425 . S
C1920 C1927 1.409 . S
C1921 H1913 0.930 . S
C1921 C1919 1.419 1_556 S
C1921 C1922 1.362 . S
C1922 H1914 0.930 . S
C1922 C1921 1.362 . S
C1922 C1925 1.409 1_556 S
C1923 H1915 0.930 1_554 S
C1923 C1924 1.355 . S
C1923 C1925 1.415 . S
C1924 C1923 1.355 . S
C1924 C1926 1.419 . S
C1925 C1920 1.425 . S
C1925 C1922 1.409 1_554 S
C1925 C1923 1.415 . S
C1926 H1916 0.930 . S
C1926 C1924 1.419 . S
C1926 C1927 1.362 . S
C1927 H1917 0.930 . S
C1927 C1920 1.409 . S
C1927 C1926 1.362 . S
H1928 C1934 0.930 . S
H1929 C1937 0.943 . S
H1930 C1938 0.930 . S
H1931 C1939 0.930 1_556 S
H1932 C1942 0.930 . S
H1933 C1943 0.930 . S
C1934 H1928 0.930 . S
C1934 C1935 1.355 . S
C1934 C1936 1.415 . S
C1935 C1934 1.355 . S
C1935 C1937 1.403 1_554 S
C1936 C1934 1.415 . S
C1936 C1941 1.425 . S
C1936 C1943 1.409 . S
C1937 H1929 0.943 . S
C1937 C1935 1.403 1_556 S
C1937 C1938 1.366 . S
C1938 H1930 0.930 . S
C1938 C1937 1.366 . S
C1938 C1941 1.409 1_556 S
C1939 H1931 0.930 1_554 S
C1939 C1940 1.355 . S
C1939 C1941 1.415 . S
C1940 C1939 1.355 . S
C1940 C1942 1.419 . S
C1941 C1936 1.425 . S
C1941 C1938 1.409 1_554 S
C1941 C1939 1.415 . S
C1942 H1932 0.930 . S
C1942 C1940 1.419 . S
C1942 C1943 1.362 . S
C1943 H1933 0.930 . S
C1943 C1936 1.409 . S
C1943 C1942 1.362 . S
H1944 C1950 0.930 . S
H1945 C1953 0.930 . S
H1946 C1954 0.930 . S
H1947 C1955 0.930 . S
H1948 C1958 0.930 . S
H1949 C1959 0.930 . S
C1950 H1944 0.930 . S
C1950 C1951 1.355 . S
C1950 C1952 1.415 . S
C1951 C1950 1.355 . S
C1951 C1953 1.419 . S
C1952 C1950 1.415 . S
C1952 C1957 1.425 . S
C1952 C1959 1.409 . S
C1953 H1945 0.930 . S
C1953 C1951 1.419 . S
C1953 C1954 1.362 . S
C1954 H1946 0.930 . S
C1954 C1953 1.362 . S
C1954 C1957 1.409 . S
C1955 H1947 0.930 . S
C1955 C1956 1.355 . S
C1955 C1957 1.415 . S
C1956 C1955 1.355 . S
C1956 C1958 1.419 . S
C1957 C1952 1.425 . S
C1957 C1954 1.409 . S
C1957 C1955 1.415 . S
C1958 H1948 0.930 . S
C1958 C1956 1.419 . S
C1958 C1959 1.362 . S
C1959 H1949 0.930 . S
C1959 C1952 1.409 . S
C1959 C1958 1.362 . S
H1960 C1966 0.930 . S
H1961 C1969 0.930 . S
H1962 C1970 0.930 . S
H1963 C1971 0.930 . S
H1964 C1974 0.930 . S
H1965 C1975 0.930 . S
C1966 H1960 0.930 . S
C1966 C1967 1.355 1_556 S
C1966 C1968 1.415 . S
C1967 C1966 1.355 1_554 S
C1967 C1969 1.419 . S
C1968 C1966 1.415 . S
C1968 C1973 1.425 1_556 S
C1968 C1975 1.409 . S
C1969 H1961 0.930 . S
C1969 C1967 1.419 . S
C1969 C1970 1.362 . S
C1970 H1962 0.930 . S
C1970 C1969 1.362 . S
C1970 C1973 1.409 . S
C1971 H1963 0.930 . S
C1971 C1972 1.355 . S
C1971 C1973 1.415 . S
C1972 C1971 1.355 . S
C1972 C1974 1.419 1_554 S
C1973 C1968 1.425 1_554 S
C1973 C1970 1.409 . S
C1973 C1971 1.415 . S
C1974 H1964 0.930 . S
C1974 C1972 1.419 1_556 S
C1974 C1975 1.362 . S
C1975 H1965 0.930 . S
C1975 C1968 1.409 . S
C1975 C1974 1.362 . S
H1976 C1982 0.930 . S
H1977 C1985 0.930 . S
H1978 C1986 0.930 . S
H1979 C1987 0.932 . S
H1980 C1990 0.930 . S
H1981 C1991 0.930 . S
C1982 H1976 0.930 . S
C1982 C1983 1.355 . S
C1982 C1984 1.415 . S
C1983 C1982 1.355 . S
C1983 C1985 1.419 1_554 S
C1984 C1982 1.415 . S
C1984 C1989 1.425 . S
C1984 C1991 1.409 . S
C1985 H1977 0.930 . S
C1985 C1983 1.419 1_556 S
C1985 C1986 1.362 . S
C1986 H1978 0.930 . S
C1986 C1985 1.362 . S
C1986 C1989 1.409 1_556 S
C1987 H1979 0.932 . S
C1987 C1988 1.355 . S
C1987 C1989 1.415 . S
C1988 C1987 1.355 . S
C1988 C1990 1.419 . S
C1989 C1984 1.425 . S
C1989 C1986 1.409 1_554 S
C1989 C1987 1.415 . S
C1990 H1980 0.930 . S
C1990 C1988 1.419 . S
C1990 C1991 1.362 . S
C1991 H1981 0.930 . S
C1991 C1984 1.409 . S
C1991 C1990 1.362 . S
H1992 C1998 0.930 . S
H1993 C2001 0.930 . S
H1994 C2002 0.930 . S
H1995 C2003 0.930 . S
H1996 C2006 0.930 . S
H1997 C2007 0.930 . S
C1998 H1992 0.930 . S
C1998 C1999 1.355 1_556 S
C1998 C2000 1.415 . S
C1999 C1998 1.355 1_554 S
C1999 C2001 1.419 . S
C2000 C1998 1.415 . S
C2000 C2005 1.425 1_556 S
C2000 C2007 1.409 . S
C2001 H1993 0.930 . S
C2001 C1999 1.419 . S
C2001 C2002 1.362 . S
C2002 H1994 0.930 . S
C2002 C2001 1.362 . S
C2002 C2005 1.409 . S
C2003 H1995 0.930 . S
C2003 C2004 1.355 . S
C2003 C2005 1.415 . S
C2004 C2003 1.355 . S
C2004 C2006 1.419 1_554 S
C2005 C2000 1.425 1_554 S
C2005 C2002 1.409 . S
C2005 C2003 1.415 . S
C2006 H1996 0.930 . S
C2006 C2004 1.419 1_556 S
C2006 C2007 1.362 . S
C2007 H1997 0.930 . S
C2007 C2000 1.409 . S
C2007 C2006 1.362 . S
H2008 C2014 0.930 . S
H2009 C2017 0.930 . S
H2010 C2018 0.930 . S
H2011 C2019 0.930 . S
H2012 C2022 0.930 1_556 S
H2013 C2023 0.930 1_556 S
C2014 H2008 0.930 . S
C2014 C2015 1.355 . S
C2014 C2016 1.415 . S
C2015 C2014 1.355 . S
C2015 C2017 1.419 . S
C2016 C2014 1.415 . S
C2016 C2021 1.425 . S
C2016 C2023 1.409 . S
C2017 H2009 0.930 . S
C2017 C2015 1.419 . S
C2017 C2018 1.362 . S
C2018 H2010 0.930 . S
C2018 C2017 1.362 . S
C2018 C2021 1.409 . S
C2019 H2011 0.930 . S
C2019 C2020 1.355 . S
C2019 C2021 1.415 . S
C2020 C2019 1.355 . S
C2020 C2022 1.419 . S
C2021 C2016 1.425 . S
C2021 C2018 1.409 . S
C2021 C2019 1.415 . S
C2022 H2012 0.930 1_554 S
C2022 C2020 1.419 . S
C2022 C2023 1.362 . S
C2023 H2013 0.930 1_554 S
C2023 C2016 1.409 . S
C2023 C2022 1.362 . S
H2024 C2030 0.927 1_556 S
H2025 C2033 0.930 . S
H2026 C2034 0.930 . S
H2027 C2035 0.930 . S
H2028 C2038 0.931 . S
H2029 C2039 0.930 . S
C2030 H2024 0.927 1_554 S
C2030 C2031 1.355 . S
C2030 C2032 1.415 . S
C2031 C2030 1.355 . S
C2031 C2033 1.419 . S
C2032 C2030 1.415 . S
C2032 C2037 1.425 . S
C2032 C2039 1.409 1_554 S
C2033 H2025 0.930 . S
C2033 C2031 1.419 . S
C2033 C2034 1.362 . S
C2034 H2026 0.930 . S
C2034 C2033 1.362 . S
C2034 C2037 1.409 . S
C2035 H2027 0.930 . S
C2035 C2036 1.355 . S
C2035 C2037 1.415 . S
C2036 C2035 1.355 . S
C2036 C2038 1.419 . S
C2037 C2032 1.425 . S
C2037 C2034 1.409 . S
C2037 C2035 1.415 . S
C2038 H2028 0.931 . S
C2038 C2036 1.419 . S
C2038 C2039 1.362 1_554 S
C2039 H2029 0.930 . S
C2039 C2032 1.409 1_556 S
C2039 C2038 1.362 1_556 S
H2040 C2046 0.930 . S
H2041 C2049 0.930 . S
H2042 C2050 0.930 . S
H2043 C2051 0.930 . S
H2044 C2054 0.930 . S
H2045 C2055 0.930 . S
C2046 H2040 0.930 . S
C2046 C2047 1.355 . S
C2046 C2048 1.415 . S
C2047 C2046 1.355 . S
C2047 C2049 1.419 . S
C2048 C2046 1.415 . S
C2048 C2053 1.425 . S
C2048 C2055 1.409 . S
C2049 H2041 0.930 . S
C2049 C2047 1.419 . S
C2049 C2050 1.362 . S
C2050 H2042 0.930 . S
C2050 C2049 1.362 . S
C2050 C2053 1.409 . S
C2051 H2043 0.930 . S
C2051 C2052 1.355 . S
C2051 C2053 1.415 . S
C2052 C2051 1.355 . S
C2052 C2054 1.419 . S
C2053 C2048 1.425 . S
C2053 C2050 1.409 . S
C2053 C2051 1.415 . S
C2054 H2044 0.930 . S
C2054 C2052 1.419 . S
C2054 C2055 1.362 . S
C2055 H2045 0.930 . S
C2055 C2048 1.409 . S
C2055 C2054 1.362 . S
H2056 C2062 0.930 . S
H2057 C2065 0.930 . S
H2058 C2066 0.930 . S
H2059 C2067 0.930 . S
H2060 C2070 0.930 . S
H2061 C2071 0.930 . S
C2062 H2056 0.930 . S
C2062 C2063 1.355 . S
C2062 C2064 1.415 . S
C2063 C2062 1.355 . S
C2063 C2065 1.419 . S
C2064 C2062 1.415 . S
C2064 C2069 1.425 . S
C2064 C2071 1.409 . S
C2065 H2057 0.930 . S
C2065 C2063 1.419 . S
C2065 C2066 1.362 . S
C2066 H2058 0.930 . S
C2066 C2065 1.362 . S
C2066 C2069 1.409 . S
C2067 H2059 0.930 . S
C2067 C2068 1.355 . S
C2067 C2069 1.415 . S
C2068 C2067 1.355 . S
C2068 C2070 1.419 . S
C2069 C2064 1.425 . S
C2069 C2066 1.409 . S
C2069 C2067 1.415 . S
C2070 H2060 0.930 . S
C2070 C2068 1.419 . S
C2070 C2071 1.362 . S
C2071 H2061 0.930 . S
C2071 C2064 1.409 . S
C2071 C2070 1.362 . S
H2072 C2078 0.930 . S
H2073 C2081 0.930 . S
H2074 C2082 0.930 . S
H2075 C2083 0.930 . S
H2076 C2086 0.930 . S
H2077 C2087 0.930 . S
C2078 H2072 0.930 . S
C2078 C2079 1.355 . S
C2078 C2080 1.415 . S
C2079 C2078 1.355 . S
C2079 C2081 1.419 . S
C2080 C2078 1.415 . S
C2080 C2085 1.425 . S
C2080 C2087 1.409 . S
C2081 H2073 0.930 . S
C2081 C2079 1.419 . S
C2081 C2082 1.362 . S
C2082 H2074 0.930 . S
C2082 C2081 1.362 . S
C2082 C2085 1.409 . S
C2083 H2075 0.930 . S
C2083 C2084 1.355 . S
C2083 C2085 1.415 . S
C2084 C2083 1.355 . S
C2084 C2086 1.419 . S
C2085 C2080 1.425 . S
C2085 C2082 1.409 . S
C2085 C2083 1.415 . S
C2086 H2076 0.930 . S
C2086 C2084 1.419 . S
C2086 C2087 1.362 . S
C2087 H2077 0.930 . S
C2087 C2080 1.409 . S
C2087 C2086 1.362 . S
H2088 C2094 0.930 . S
H2089 C2097 0.930 . S
H2090 C2098 0.930 . S
H2091 C2099 0.930 . S
H2092 C2102 0.930 . S
H2093 C2103 0.930 . S
C2094 H2088 0.930 . S
C2094 C2095 1.355 . S
C2094 C2096 1.415 . S
C2095 C2094 1.355 . S
C2095 C2097 1.419 . S
C2096 C2094 1.415 . S
C2096 C2101 1.425 . S
C2096 C2103 1.409 . S
C2097 H2089 0.930 . S
C2097 C2095 1.419 . S
C2097 C2098 1.362 . S
C2098 H2090 0.930 . S
C2098 C2097 1.362 . S
C2098 C2101 1.409 . S
C2099 H2091 0.930 . S
C2099 C2100 1.355 . S
C2099 C2101 1.415 . S
C2100 C2099 1.355 . S
C2100 C2102 1.419 . S
C2101 C2096 1.425 . S
C2101 C2098 1.409 . S
C2101 C2099 1.415 . S
C2102 H2092 0.930 . S
C2102 C2100 1.419 . S
C2102 C2103 1.362 . S
C2103 H2093 0.930 . S
C2103 C2096 1.409 . S
C2103 C2102 1.362 . S
H2104 C2110 0.930 . S
H2105 C2113 0.930 . S
H2106 C2114 0.930 . S
H2107 C2115 0.930 . S
H2108 C2118 0.930 . S
H2109 C2119 0.930 . S
C2110 H2104 0.930 . S
C2110 C2111 1.355 . S
C2110 C2112 1.415 . S
C2111 C2110 1.355 . S
C2111 C2113 1.419 . S
C2112 C2110 1.415 . S
C2112 C2117 1.425 . S
C2112 C2119 1.409 . S
C2113 H2105 0.930 . S
C2113 C2111 1.419 . S
C2113 C2114 1.362 . S
C2114 H2106 0.930 . S
C2114 C2113 1.362 . S
C2114 C2117 1.409 . S
C2115 H2107 0.930 . S
C2115 C2116 1.355 . S
C2115 C2117 1.415 . S
C2116 C2115 1.355 . S
C2116 C2118 1.419 . S
C2117 C2112 1.425 . S
C2117 C2114 1.409 . S
C2117 C2115 1.415 . S
C2118 H2108 0.930 . S
C2118 C2116 1.419 . S
C2118 C2119 1.362 . S
C2119 H2109 0.930 . S
C2119 C2112 1.409 . S
C2119 C2118 1.362 . S
H2120 C2126 0.930 . S
H2121 C2129 0.930 . S
H2122 C2130 0.930 . S
H2123 C2131 0.930 . S
H2124 C2134 0.930 . S
H2125 C2135 0.930 . S
C2126 H2120 0.930 . S
C2126 C2127 1.355 . S
C2126 C2128 1.415 . S
C2127 C2126 1.355 . S
C2127 C2129 1.419 . S
C2128 C2126 1.415 . S
C2128 C2133 1.425 . S
C2128 C2135 1.409 . S
C2129 H2121 0.930 . S
C2129 C2127 1.419 . S
C2129 C2130 1.362 . S
C2130 H2122 0.930 . S
C2130 C2129 1.362 . S
C2130 C2133 1.409 . S
C2131 H2123 0.930 . S
C2131 C2132 1.355 . S
C2131 C2133 1.415 . S
C2132 C2131 1.355 . S
C2132 C2134 1.419 . S
C2133 C2128 1.425 . S
C2133 C2130 1.409 . S
C2133 C2131 1.415 . S
C2134 H2124 0.930 . S
C2134 C2132 1.419 . S
C2134 C2135 1.362 . S
C2135 H2125 0.930 . S
C2135 C2128 1.409 . S
C2135 C2134 1.362 . S
H2136 C2142 0.930 . S
H2137 C2145 0.930 . S
H2138 C2146 0.930 . S
H2139 C2147 0.930 . S
H2140 C2150 0.930 . S
H2141 C2151 0.930 . S
C2142 H2136 0.930 . S
C2142 C2143 1.355 . S
C2142 C2144 1.415 . S
C2143 C2142 1.355 . S
C2143 C2145 1.419 . S
C2144 C2142 1.415 . S
C2144 C2149 1.425 . S
C2144 C2151 1.409 . S
C2145 H2137 0.930 . S
C2145 C2143 1.419 . S
C2145 C2146 1.362 . S
C2146 H2138 0.930 . S
C2146 C2145 1.362 . S
C2146 C2149 1.409 . S
C2147 H2139 0.930 . S
C2147 C2148 1.355 . S
C2147 C2149 1.415 . S
C2148 C2147 1.355 . S
C2148 C2150 1.419 . S
C2149 C2144 1.425 . S
C2149 C2146 1.409 . S
C2149 C2147 1.415 . S
C2150 H2140 0.930 . S
C2150 C2148 1.419 . S
C2150 C2151 1.362 . S
C2151 H2141 0.930 . S
C2151 C2144 1.409 . S
C2151 C2150 1.362 . S
H2152 C2158 0.930 . S
H2153 C2161 0.930 . S
H2154 C2162 0.930 . S
H2155 C2163 0.930 . S
H2156 C2166 0.930 . S
H2157 C2167 0.930 . S
C2158 H2152 0.930 . S
C2158 C2159 1.355 . S
C2158 C2160 1.415 . S
C2159 C2158 1.355 . S
C2159 C2161 1.419 . S
C2160 C2158 1.415 . S
C2160 C2165 1.425 . S
C2160 C2167 1.409 . S
C2161 H2153 0.930 . S
C2161 C2159 1.419 . S
C2161 C2162 1.362 . S
C2162 H2154 0.930 . S
C2162 C2161 1.362 . S
C2162 C2165 1.409 . S
C2163 H2155 0.930 . S
C2163 C2164 1.355 . S
C2163 C2165 1.415 . S
C2164 C2163 1.355 . S
C2164 C2166 1.419 . S
C2165 C2160 1.425 . S
C2165 C2162 1.409 . S
C2165 C2163 1.415 . S
C2166 H2156 0.930 . S
C2166 C2164 1.419 . S
C2166 C2167 1.362 . S
C2167 H2157 0.930 . S
C2167 C2160 1.409 . S
C2167 C2166 1.362 . S
H2168 C2174 0.930 . S
H2169 C2177 0.930 . S
H2170 C2178 0.930 . S
H2171 C2179 0.930 . S
H2172 C2182 0.930 . S
H2173 C2183 0.930 . S
C2174 H2168 0.930 . S
C2174 C2175 1.355 . S
C2174 C2176 1.415 . S
C2175 C2174 1.355 . S
C2175 C2177 1.419 . S
C2176 C2174 1.415 . S
C2176 C2181 1.425 . S
C2176 C2183 1.409 . S
C2177 H2169 0.930 . S
C2177 C2175 1.419 . S
C2177 C2178 1.362 . S
C2178 H2170 0.930 . S
C2178 C2177 1.362 . S
C2178 C2181 1.409 . S
C2179 H2171 0.930 . S
C2179 C2180 1.355 . S
C2179 C2181 1.415 . S
C2180 C2179 1.355 . S
C2180 C2182 1.419 . S
C2181 C2176 1.425 . S
C2181 C2178 1.409 . S
C2181 C2179 1.415 . S
C2182 H2172 0.930 . S
C2182 C2180 1.419 . S
C2182 C2183 1.362 . S
C2183 H2173 0.930 . S
C2183 C2176 1.409 . S
C2183 C2182 1.362 . S
H2184 C2190 0.930 . S
H2185 C2193 0.930 . S
H2186 C2194 0.930 . S
H2187 C2195 0.930 . S
H2188 C2198 0.930 . S
H2189 C2199 0.930 . S
C2190 H2184 0.930 . S
C2190 C2191 1.355 . S
C2190 C2192 1.415 . S
C2191 C2190 1.355 . S
C2191 C2193 1.419 . S
C2192 C2190 1.415 . S
C2192 C2197 1.425 . S
C2192 C2199 1.409 . S
C2193 H2185 0.930 . S
C2193 C2191 1.419 . S
C2193 C2194 1.362 . S
C2194 H2186 0.930 . S
C2194 C2193 1.362 . S
C2194 C2197 1.409 . S
C2195 H2187 0.930 . S
C2195 C2196 1.355 . S
C2195 C2197 1.415 . S
C2196 C2195 1.355 . S
C2196 C2198 1.419 . S
C2197 C2192 1.425 . S
C2197 C2194 1.409 . S
C2197 C2195 1.415 . S
C2198 H2188 0.930 . S
C2198 C2196 1.419 . S
C2198 C2199 1.362 . S
C2199 H2189 0.930 . S
C2199 C2192 1.409 . S
C2199 C2198 1.362 . S
H2200 C2206 0.930 . S
H2201 C2209 0.930 . S
H2202 C2210 0.930 . S
H2203 C2211 0.930 . S
H2204 C2214 0.930 . S
H2205 C2215 0.930 . S
C2206 H2200 0.930 . S
C2206 C2207 1.355 . S
C2206 C2208 1.415 . S
C2207 C2206 1.355 . S
C2207 C2209 1.419 . S
C2208 C2206 1.415 . S
C2208 C2213 1.425 . S
C2208 C2215 1.409 . S
C2209 H2201 0.930 . S
C2209 C2207 1.419 . S
C2209 C2210 1.362 . S
C2210 H2202 0.930 . S
C2210 C2209 1.362 . S
C2210 C2213 1.409 . S
C2211 H2203 0.930 . S
C2211 C2212 1.355 . S
C2211 C2213 1.415 . S
C2212 C2211 1.355 . S
C2212 C2214 1.419 . S
C2213 C2208 1.425 . S
C2213 C2210 1.409 . S
C2213 C2211 1.415 . S
C2214 H2204 0.930 . S
C2214 C2212 1.419 . S
C2214 C2215 1.362 . S
C2215 H2205 0.930 . S
C2215 C2208 1.409 . S
C2215 C2214 1.362 . S
H2216 C2222 0.930 . S
H2217 C2225 0.930 . S
H2218 C2226 0.930 . S
H2219 C2227 0.930 . S
H2220 C2230 0.930 . S
H2221 C2231 0.930 . S
C2222 H2216 0.930 . S
C2222 C2223 1.355 . S
C2222 C2224 1.415 . S
C2223 C2222 1.355 . S
C2223 C2225 1.419 . S
C2224 C2222 1.415 . S
C2224 C2229 1.425 . S
C2224 C2231 1.409 . S
C2225 H2217 0.930 . S
C2225 C2223 1.419 . S
C2225 C2226 1.362 . S
C2226 H2218 0.930 . S
C2226 C2225 1.362 . S
C2226 C2229 1.409 . S
C2227 H2219 0.930 . S
C2227 C2228 1.355 . S
C2227 C2229 1.415 . S
C2228 C2227 1.355 . S
C2228 C2230 1.419 . S
C2229 C2224 1.425 . S
C2229 C2226 1.409 . S
C2229 C2227 1.415 . S
C2230 H2220 0.930 . S
C2230 C2228 1.419 . S
C2230 C2231 1.362 . S
C2231 H2221 0.930 . S
C2231 C2224 1.409 . S
C2231 C2230 1.362 . S
H2232 C2238 0.930 . S
H2233 C2241 0.930 . S
H2234 C2242 0.930 . S
H2235 C2243 0.930 . S
H2236 C2246 0.930 . S
H2237 C2247 0.930 . S
C2238 H2232 0.930 . S
C2238 C2239 1.355 . S
C2238 C2240 1.415 . S
C2239 C2238 1.355 . S
C2239 C2241 1.419 . S
C2240 C2238 1.415 . S
C2240 C2245 1.425 . S
C2240 C2247 1.409 . S
C2241 H2233 0.930 . S
C2241 C2239 1.419 . S
C2241 C2242 1.362 . S
C2242 H2234 0.930 . S
C2242 C2241 1.362 . S
C2242 C2245 1.409 . S
C2243 H2235 0.930 . S
C2243 C2244 1.355 . S
C2243 C2245 1.415 . S
C2244 C2243 1.355 . S
C2244 C2246 1.419 . S
C2245 C2240 1.425 . S
C2245 C2242 1.409 . S
C2245 C2243 1.415 . S
C2246 H2236 0.930 . S
C2246 C2244 1.419 . S
C2246 C2247 1.362 . S
C2247 H2237 0.930 . S
C2247 C2240 1.409 . S
C2247 C2246 1.362 . S
H2248 C2254 0.930 . S
H2249 C2257 0.930 . S
H2250 C2258 0.930 . S
H2251 C2259 0.930 . S
H2252 C2262 0.930 . S
H2253 C2263 0.930 . S
C2254 H2248 0.930 . S
C2254 C2255 1.355 . S
C2254 C2256 1.415 . S
C2255 C2254 1.355 . S
C2255 C2257 1.419 . S
C2256 C2254 1.415 . S
C2256 C2261 1.425 . S
C2256 C2263 1.409 . S
C2257 H2249 0.930 . S
C2257 C2255 1.419 . S
C2257 C2258 1.362 . S
C2258 H2250 0.930 . S
C2258 C2257 1.362 . S
C2258 C2261 1.409 . S
C2259 H2251 0.930 . S
C2259 C2260 1.355 . S
C2259 C2261 1.415 . S
C2260 C2259 1.355 . S
C2260 C2262 1.419 . S
C2261 C2256 1.425 . S
C2261 C2258 1.409 . S
C2261 C2259 1.415 . S
C2262 H2252 0.930 . S
C2262 C2260 1.419 . S
C2262 C2263 1.362 . S
C2263 H2253 0.930 . S
C2263 C2256 1.409 . S
C2263 C2262 1.362 . S
H2264 C2270 0.930 . S
H2265 C2273 0.930 . S
H2266 C2274 0.930 . S
H2267 C2275 0.930 . S
H2268 C2278 0.930 . S
H2269 C2279 0.930 . S
C2270 H2264 0.930 . S
C2270 C2271 1.355 . S
C2270 C2272 1.415 . S
C2271 C2270 1.355 . S
C2271 C2273 1.419 . S
C2272 C2270 1.415 . S
C2272 C2277 1.425 . S
C2272 C2279 1.409 . S
C2273 H2265 0.930 . S
C2273 C2271 1.419 . S
C2273 C2274 1.362 . S
C2274 H2266 0.930 . S
C2274 C2273 1.362 . S
C2274 C2277 1.409 . S
C2275 H2267 0.930 . S
C2275 C2276 1.355 . S
C2275 C2277 1.415 . S
C2276 C2275 1.355 . S
C2276 C2278 1.419 . S
C2277 C2272 1.425 . S
C2277 C2274 1.409 . S
C2277 C2275 1.415 . S
C2278 H2268 0.930 . S
C2278 C2276 1.419 . S
C2278 C2279 1.362 . S
C2279 H2269 0.930 . S
C2279 C2272 1.409 . S
C2279 C2278 1.362 . S
H2280 C2286 0.930 . S
H2281 C2289 0.930 . S
H2282 C2290 0.930 . S
H2283 C2291 0.930 . S
H2284 C2294 0.930 . S
H2285 C2295 0.930 . S
C2286 H2280 0.930 . S
C2286 C2287 1.355 . S
C2286 C2288 1.415 . S
C2287 C2286 1.355 . S
C2287 C2289 1.419 . S
C2288 C2286 1.415 . S
C2288 C2293 1.425 . S
C2288 C2295 1.409 . S
C2289 H2281 0.930 . S
C2289 C2287 1.419 . S
C2289 C2290 1.362 . S
C2290 H2282 0.930 . S
C2290 C2289 1.362 . S
C2290 C2293 1.409 . S
C2291 H2283 0.930 . S
C2291 C2292 1.355 . S
C2291 C2293 1.415 . S
C2292 C2291 1.355 . S
C2292 C2294 1.419 . S
C2293 C2288 1.425 . S
C2293 C2290 1.409 . S
C2293 C2291 1.415 . S
C2294 H2284 0.930 . S
C2294 C2292 1.419 . S
C2294 C2295 1.362 . S
C2295 H2285 0.930 . S
C2295 C2288 1.409 . S
C2295 C2294 1.362 . S
H2296 C2302 0.930 . S
H2297 C2305 0.930 . S
H2298 C2306 0.930 . S
H2299 C2307 0.930 . S
H2300 C2310 0.930 . S
H2301 C2311 0.930 . S
C2302 H2296 0.930 . S
C2302 C2303 1.355 . S
C2302 C2304 1.415 . S
C2303 C2302 1.355 . S
C2303 C2305 1.419 . S
C2304 C2302 1.415 . S
C2304 C2309 1.425 . S
C2304 C2311 1.409 . S
C2305 H2297 0.930 . S
C2305 C2303 1.419 . S
C2305 C2306 1.362 . S
C2306 H2298 0.930 . S
C2306 C2305 1.362 . S
C2306 C2309 1.409 . S
C2307 H2299 0.930 . S
C2307 C2308 1.355 . S
C2307 C2309 1.415 . S
C2308 C2307 1.355 . S
C2308 C2310 1.419 . S
C2309 C2304 1.425 . S
C2309 C2306 1.409 . S
C2309 C2307 1.415 . S
C2310 H2300 0.930 . S
C2310 C2308 1.419 . S
C2310 C2311 1.362 . S
C2311 H2301 0.930 . S
C2311 C2304 1.409 . S
C2311 C2310 1.362 . S
H2312 C2318 0.930 . S
H2313 C2321 0.930 . S
H2314 C2322 0.930 . S
H2315 C2323 0.930 . S
H2316 C2326 0.930 . S
H2317 C2327 0.930 . S
C2318 H2312 0.930 . S
C2318 C2319 1.355 . S
C2318 C2320 1.415 . S
C2319 C2318 1.355 . S
C2319 C2321 1.419 . S
C2320 C2318 1.415 . S
C2320 C2325 1.425 . S
C2320 C2327 1.409 . S
C2321 H2313 0.930 . S
C2321 C2319 1.419 . S
C2321 C2322 1.362 . S
C2322 H2314 0.930 . S
C2322 C2321 1.362 . S
C2322 C2325 1.409 . S
C2323 H2315 0.930 . S
C2323 C2324 1.355 . S
C2323 C2325 1.415 . S
C2324 C2323 1.355 . S
C2324 C2326 1.419 . S
C2325 C2320 1.425 . S
C2325 C2322 1.409 . S
C2325 C2323 1.415 . S
C2326 H2316 0.930 . S
C2326 C2324 1.419 . S
C2326 C2327 1.362 . S
C2327 H2317 0.930 . S
C2327 C2320 1.409 . S
C2327 C2326 1.362 . S
H2328 C2334 0.930 . S
H2329 C2337 0.930 . S
H2330 C2338 0.930 . S
H2331 C2339 0.930 . S
H2332 C2342 0.930 . S
H2333 C2343 0.930 . S
C2334 H2328 0.930 . S
C2334 C2335 1.355 . S
C2334 C2336 1.415 . S
C2335 C2334 1.355 . S
C2335 C2337 1.419 . S
C2336 C2334 1.415 . S
C2336 C2341 1.425 . S
C2336 C2343 1.409 . S
C2337 H2329 0.930 . S
C2337 C2335 1.419 . S
C2337 C2338 1.362 . S
C2338 H2330 0.930 . S
C2338 C2337 1.362 . S
C2338 C2341 1.409 . S
C2339 H2331 0.930 . S
C2339 C2340 1.355 . S
C2339 C2341 1.415 . S
C2340 C2339 1.355 . S
C2340 C2342 1.419 . S
C2341 C2336 1.425 . S
C2341 C2338 1.409 . S
C2341 C2339 1.415 . S
C2342 H2332 0.930 . S
C2342 C2340 1.419 . S
C2342 C2343 1.362 . S
C2343 H2333 0.930 . S
C2343 C2336 1.409 . S
C2343 C2342 1.362 . S
H2344 C2350 0.930 . S
H2345 C2353 0.930 . S
H2346 C2354 0.930 . S
H2347 C2355 0.930 . S
H2348 C2358 0.930 . S
H2349 C2359 0.930 . S
C2350 H2344 0.930 . S
C2350 C2351 1.355 . S
C2350 C2352 1.415 . S
C2351 C2350 1.355 . S
C2351 C2353 1.419 . S
C2352 C2350 1.415 . S
C2352 C2357 1.425 . S
C2352 C2359 1.409 . S
C2353 H2345 0.930 . S
C2353 C2351 1.419 . S
C2353 C2354 1.362 . S
C2354 H2346 0.930 . S
C2354 C2353 1.362 . S
C2354 C2357 1.409 . S
C2355 H2347 0.930 . S
C2355 C2356 1.355 . S
C2355 C2357 1.415 . S
C2356 C2355 1.355 . S
C2356 C2358 1.419 . S
C2357 C2352 1.425 . S
C2357 C2354 1.409 . S
C2357 C2355 1.415 . S
C2358 H2348 0.930 . S
C2358 C2356 1.419 . S
C2358 C2359 1.362 . S
C2359 H2349 0.930 . S
C2359 C2352 1.409 . S
C2359 C2358 1.362 . S
H2360 C2366 0.930 . S
H2361 C2369 0.930 . S
H2362 C2370 0.930 . S
H2363 C2371 0.930 . S
H2364 C2374 0.930 . S
H2365 C2375 0.930 . S
C2366 H2360 0.930 . S
C2366 C2367 1.355 . S
C2366 C2368 1.415 . S
C2367 C2366 1.355 . S
C2367 C2369 1.419 . S
C2368 C2366 1.415 . S
C2368 C2373 1.425 . S
C2368 C2375 1.409 . S
C2369 H2361 0.930 . S
C2369 C2367 1.419 . S
C2369 C2370 1.362 . S
C2370 H2362 0.930 . S
C2370 C2369 1.362 . S
C2370 C2373 1.409 . S
C2371 H2363 0.930 . S
C2371 C2372 1.355 . S
C2371 C2373 1.415 . S
C2372 C2371 1.355 . S
C2372 C2374 1.419 . S
C2373 C2368 1.425 . S
C2373 C2370 1.409 . S
C2373 C2371 1.415 . S
C2374 H2364 0.930 . S
C2374 C2372 1.419 . S
C2374 C2375 1.362 . S
C2375 H2365 0.930 . S
C2375 C2368 1.409 . S
C2375 C2374 1.362 . S
H2376 C2382 0.930 . S
H2377 C2385 0.930 . S
H2378 C2386 0.930 . S
H2379 C2387 0.930 . S
H2380 C2390 0.930 . S
H2381 C2391 0.930 . S
C2382 H2376 0.930 . S
C2382 C2383 1.355 . S
C2382 C2384 1.415 . S
C2383 C2382 1.355 . S
C2383 C2385 1.419 . S
C2384 C2382 1.415 . S
C2384 C2389 1.425 . S
C2384 C2391 1.409 . S
C2385 H2377 0.930 . S
C2385 C2383 1.419 . S
C2385 C2386 1.362 . S
C2386 H2378 0.930 . S
C2386 C2385 1.362 . S
C2386 C2389 1.409 . S
C2387 H2379 0.930 . S
C2387 C2388 1.355 . S
C2387 C2389 1.415 . S
C2388 C2387 1.355 . S
C2388 C2390 1.419 . S
C2389 C2384 1.425 . S
C2389 C2386 1.409 . S
C2389 C2387 1.415 . S
C2390 H2380 0.930 . S
C2390 C2388 1.419 . S
C2390 C2391 1.362 . S
C2391 H2381 0.930 . S
C2391 C2384 1.409 . S
C2391 C2390 1.362 . S
H2392 C2398 0.930 . S
H2393 C2401 0.930 . S
H2394 C2402 0.930 . S
H2395 C2403 0.930 . S
H2396 C2406 0.930 . S
H2397 C2407 0.930 . S
C2398 H2392 0.930 . S
C2398 C2399 1.355 . S
C2398 C2400 1.415 . S
C2399 C2398 1.355 . S
C2399 C2401 1.419 . S
C2400 C2398 1.415 . S
C2400 C2405 1.425 . S
C2400 C2407 1.409 . S
C2401 H2393 0.930 . S
C2401 C2399 1.419 . S
C2401 C2402 1.362 . S
C2402 H2394 0.930 . S
C2402 C2401 1.362 . S
C2402 C2405 1.409 . S
C2403 H2395 0.930 . S
C2403 C2404 1.355 . S
C2403 C2405 1.415 . S
C2404 C2403 1.355 . S
C2404 C2406 1.419 . S
C2405 C2400 1.425 . S
C2405 C2402 1.409 . S
C2405 C2403 1.415 . S
C2406 H2396 0.930 . S
C2406 C2404 1.419 . S
C2406 C2407 1.362 . S
C2407 H2397 0.930 . S
C2407 C2400 1.409 . S
C2407 C2406 1.362 . S
H2408 C2414 0.930 . S
H2409 C2417 0.930 . S
H2410 C2418 0.930 . S
H2411 C2419 0.930 . S
H2412 C2422 0.930 . S
H2413 C2423 0.930 . S
C2414 H2408 0.930 . S
C2414 C2415 1.355 . S
C2414 C2416 1.415 . S
C2415 C2414 1.355 . S
C2415 C2417 1.419 . S
C2416 C2414 1.415 . S
C2416 C2421 1.425 . S
C2416 C2423 1.409 . S
C2417 H2409 0.930 . S
C2417 C2415 1.419 . S
C2417 C2418 1.362 . S
C2418 H2410 0.930 . S
C2418 C2417 1.362 . S
C2418 C2421 1.409 . S
C2419 H2411 0.930 . S
C2419 C2420 1.355 . S
C2419 C2421 1.415 . S
C2420 C2419 1.355 . S
C2420 C2422 1.419 . S
C2421 C2416 1.425 . S
C2421 C2418 1.409 . S
C2421 C2419 1.415 . S
C2422 H2412 0.930 . S
C2422 C2420 1.419 . S
C2422 C2423 1.362 . S
C2423 H2413 0.930 . S
C2423 C2416 1.409 . S
C2423 C2422 1.362 . S
C1284 C1002 1.016 . S
C1279 C941 1.081 . S
C1295 C861 1.135 . S
C1300 C996 1.068 . S
C1316 C964 1.234 . S
C1311 C821 1.250 . S
C1327 C901 1.242 . S
C1332 C978 1.179 . S
C1348 C1016 1.604 . S
C1343 C661 1.714 . S
C1364 C1103 1.101 . S
C1359 C701 1.162 . S
C1375 C741 1.742 . S
C1380 C1030 1.696 . S
C1396 C1098 0.808 . S
C1391 C781 0.786 . S
C1407 C501 1.768 . S
C1412 C1054 1.656 . S
C1428 C1109 1.164 . S
C1423 C541 1.235 . S
C1439 C581 1.723 . S
C1444 C1048 1.619 . S
C1455 C621 0.860 . S
C1460 C1094 0.893 . S
C1476 C1150 0.810 . S
C1471 C461 0.865 . S
C1487 C381 1.272 . S
C1492 C1161 1.275 . S
C1503 C341 0.927 . S
C1508 C1146 0.868 . S
C1524 C1155 1.332 . S
C1519 C421 1.311 . S
C1535 C181 1.221 1_455 S
C1540 C1200 1.216 . S
C1551 C221 0.489 . S
C1556 C1259 0.419 . S
C1567 C261 1.342 . S
C1572 C1216 1.268 . S
C1583 C301 0.804 . S
C1588 C1254 0.750 . S
C1604 C1218 1.357 . S
C1599 C21 1.362 . S
C1620 C1265 0.292 . S
C1615 C61 0.342 . S
C1631 C101 1.184 . S
C1636 C1194 1.177 . S
C1652 C1250 0.793 . S
C1647 C141 0.781 . S
C1668 C986 2.037 . S
C1663 C15 2.061 . S
C1679 C42 1.842 . S
C1684 C990 1.846 . S
C1695 C82 2.171 . S
C1700 C1010 2.083 . S
C1711 C122 1.477 1_545 S
C1716 C1005 1.635 . S
C1727 C175 2.164 . S
C1732 C1008 2.141 . S
C1748 C994 1.847 . S
C1743 C202 1.838 . S
C1759 C242 2.090 . S
C1764 C992 2.024 . S
C1780 C999 1.654 . S
C1775 C295 1.489 . S
C1796 C1062 2.125 . S
C1791 C135 2.156 . S
C1807 C2 2.339 . S
C1812 C1112 2.428 . S
C1828 C1060 1.730 . S
C1823 C55 1.751 . S
C1844 C1096 2.319 . S
C1839 C95 2.171 . S
C1855 C215 1.691 . S
C1860 C1038 1.681 . S
C1876 C1114 2.404 . S
C1871 C255 2.323 . S
C1892 C1044 1.998 . S
C1887 C282 2.073 . S
C1908 C1090 2.347 . S
C1903 C162 2.272 1_455 S
C1924 C1082 2.201 . S
C1919 C322 2.078 . S
C1935 C375 1.895 . S
C1940 C1106 2.159 . S
C1956 C1042 1.770 . S
C1951 C335 1.700 . S
C1972 C1068 2.200 . S
C1967 C415 2.025 . S
C1983 C455 1.722 . S
C1988 C1046 1.776 . S
C1999 C442 1.974 . S
C2004 C1100 2.147 . S
C2020 C1057 2.145 . S
C2015 C362 1.957 . S
C2036 C1051 2.215 . S
C2031 C402 2.063 . S
C2052 C1134 2.593 . S
C2047 C495 2.395 . S
C2068 C1166 2.289 . S
C2063 C522 2.116 . S
C2079 C562 2.413 . S
C2084 C1120 2.541 . S
C2100 C1164 1.853 . S
C2095 C602 1.704 . S
C2116 C1152 2.525 . S
C2111 C655 2.390 . S
C2127 C682 2.031 . S
C2132 C1148 2.202 . S
C2143 C722 2.420 . S
C2148 C1158 2.609 . S
C2164 C1142 1.798 . S
C2159 C775 1.604 . S
C2180 C1207 2.083 . S
C2175 C615 2.027 . S
C2191 C482 2.170 . S
C2196 C1268 2.329 . S
C2212 C1202 1.883 . S
C2207 C535 1.626 . S
C2228 C1252 2.341 . S
C2223 C575 2.083 . S
C2244 C1198 1.788 . S
C2239 C695 1.529 . S
C2255 C735 2.020 . S
C2260 C1270 2.251 . S
C2276 C1213 1.984 . S
C2271 C762 1.978 . S
C2292 C1246 2.138 . S
C2287 C642 2.022 . S
C2308 C1238 2.292 . S
C2303 C815 2.126 . S
C2319 C855 2.239 . S
C2324 C1262 2.302 . S
C2340 C1204 1.884 . S
C2335 C802 1.933 . S
C2351 C895 2.276 . S
C2356 C1224 2.406 . S
C2372 C1186 1.893 . S
C2367 C935 1.929 . S
C2388 C1256 2.182 . S
C2383 C922 2.130 . S
C2404 C1172 1.884 . S
C2399 C842 1.989 . S
C2415 C882 1.967 . S
C2420 C1210 1.901 . S
