# Generated by pormake.
# Topology eea, (3,6)-cn, num edge types: 1
# Building blocks:
#     Node 0, Type 0, BuildingBlock: OLANEW_clean_sbu_2, # of connection points: 3
#     Node 1, Type 0, BuildingBlock: OLANEW_clean_sbu_2, # of connection points: 3
#     Node 2, Type 0, BuildingBlock: OLANEW_clean_sbu_2, # of connection points: 3
#     Node 3, Type 0, BuildingBlock: OLANEW_clean_sbu_2, # of connection points: 3
#     Node 4, Type 0, BuildingBlock: OLANEW_clean_sbu_2, # of connection points: 3
#     Node 5, Type 0, BuildingBlock: OLANEW_clean_sbu_2, # of connection points: 3
#     Node 6, Type 0, BuildingBlock: OLANEW_clean_sbu_2, # of connection points: 3
#     Node 7, Type 0, BuildingBlock: OLANEW_clean_sbu_2, # of connection points: 3
#     Node 8, Type 0, BuildingBlock: OLANEW_clean_sbu_2, # of connection points: 3
#     Node 9, Type 0, BuildingBlock: OLANEW_clean_sbu_2, # of connection points: 3
#     Node 10, Type 0, BuildingBlock: OLANEW_clean_sbu_2, # of connection points: 3
#     Node 11, Type 0, BuildingBlock: OLANEW_clean_sbu_2, # of connection points: 3
#     Node 12, Type 0, BuildingBlock: OLANEW_clean_sbu_2, # of connection points: 3
#     Node 13, Type 0, BuildingBlock: OLANEW_clean_sbu_2, # of connection points: 3
#     Node 14, Type 0, BuildingBlock: OLANEW_clean_sbu_2, # of connection points: 3
#     Node 15, Type 0, BuildingBlock: OLANEW_clean_sbu_2, # of connection points: 3
#     Node 16, Type 0, BuildingBlock: OLANEW_clean_sbu_2, # of connection points: 3
#     Node 17, Type 0, BuildingBlock: OLANEW_clean_sbu_2, # of connection points: 3
#     Node 18, Type 1, BuildingBlock: CIFDUS_clean_sbu_1, # of connection points: 6
#     Node 19, Type 1, BuildingBlock: CIFDUS_clean_sbu_1, # of connection points: 6
#     Node 20, Type 1, BuildingBlock: CIFDUS_clean_sbu_1, # of connection points: 6
#     Node 21, Type 1, BuildingBlock: CIFDUS_clean_sbu_1, # of connection points: 6
#     Node 22, Type 1, BuildingBlock: CIFDUS_clean_sbu_1, # of connection points: 6
#     Node 23, Type 1, BuildingBlock: CIFDUS_clean_sbu_1, # of connection points: 6
#     Node 24, Type 1, BuildingBlock: CIFDUS_clean_sbu_1, # of connection points: 6
#     Node 25, Type 1, BuildingBlock: CIFDUS_clean_sbu_1, # of connection points: 6
#     Node 26, Type 1, BuildingBlock: CIFDUS_clean_sbu_1, # of connection points: 6
#     Edge 27, Type (0, 1), BuildingBlock: XIVTED_clean_linker_0, # of connection points: 2
#     Edge 28, Type (0, 1), BuildingBlock: XIVTED_clean_linker_0, # of connection points: 2
#     Edge 29, Type (0, 1), BuildingBlock: XIVTED_clean_linker_0, # of connection points: 2
#     Edge 30, Type (0, 1), BuildingBlock: XIVTED_clean_linker_0, # of connection points: 2
#     Edge 31, Type (0, 1), BuildingBlock: XIVTED_clean_linker_0, # of connection points: 2
#     Edge 32, Type (0, 1), BuildingBlock: XIVTED_clean_linker_0, # of connection points: 2
#     Edge 33, Type (0, 1), BuildingBlock: XIVTED_clean_linker_0, # of connection points: 2
#     Edge 34, Type (0, 1), BuildingBlock: XIVTED_clean_linker_0, # of connection points: 2
#     Edge 35, Type (0, 1), BuildingBlock: XIVTED_clean_linker_0, # of connection points: 2
#     Edge 36, Type (0, 1), BuildingBlock: XIVTED_clean_linker_0, # of connection points: 2
#     Edge 37, Type (0, 1), BuildingBlock: XIVTED_clean_linker_0, # of connection points: 2
#     Edge 38, Type (0, 1), BuildingBlock: XIVTED_clean_linker_0, # of connection points: 2
#     Edge 39, Type (0, 1), BuildingBlock: XIVTED_clean_linker_0, # of connection points: 2
#     Edge 40, Type (0, 1), BuildingBlock: XIVTED_clean_linker_0, # of connection points: 2
#     Edge 41, Type (0, 1), BuildingBlock: XIVTED_clean_linker_0, # of connection points: 2
#     Edge 42, Type (0, 1), BuildingBlock: XIVTED_clean_linker_0, # of connection points: 2
#     Edge 43, Type (0, 1), BuildingBlock: XIVTED_clean_linker_0, # of connection points: 2
#     Edge 44, Type (0, 1), BuildingBlock: XIVTED_clean_linker_0, # of connection points: 2
#     Edge 45, Type (0, 1), BuildingBlock: XIVTED_clean_linker_0, # of connection points: 2
#     Edge 46, Type (0, 1), BuildingBlock: XIVTED_clean_linker_0, # of connection points: 2
#     Edge 47, Type (0, 1), BuildingBlock: XIVTED_clean_linker_0, # of connection points: 2
#     Edge 48, Type (0, 1), BuildingBlock: XIVTED_clean_linker_0, # of connection points: 2
#     Edge 49, Type (0, 1), BuildingBlock: XIVTED_clean_linker_0, # of connection points: 2
#     Edge 50, Type (0, 1), BuildingBlock: XIVTED_clean_linker_0, # of connection points: 2
#     Edge 51, Type (0, 1), BuildingBlock: XIVTED_clean_linker_0, # of connection points: 2
#     Edge 52, Type (0, 1), BuildingBlock: XIVTED_clean_linker_0, # of connection points: 2
#     Edge 53, Type (0, 1), BuildingBlock: XIVTED_clean_linker_0, # of connection points: 2
#     Edge 54, Type (0, 1), BuildingBlock: XIVTED_clean_linker_0, # of connection points: 2
#     Edge 55, Type (0, 1), BuildingBlock: XIVTED_clean_linker_0, # of connection points: 2
#     Edge 56, Type (0, 1), BuildingBlock: XIVTED_clean_linker_0, # of connection points: 2
#     Edge 57, Type (0, 1), BuildingBlock: XIVTED_clean_linker_0, # of connection points: 2
#     Edge 58, Type (0, 1), BuildingBlock: XIVTED_clean_linker_0, # of connection points: 2
#     Edge 59, Type (0, 1), BuildingBlock: XIVTED_clean_linker_0, # of connection points: 2
#     Edge 60, Type (0, 1), BuildingBlock: XIVTED_clean_linker_0, # of connection points: 2
#     Edge 61, Type (0, 1), BuildingBlock: XIVTED_clean_linker_0, # of connection points: 2
#     Edge 62, Type (0, 1), BuildingBlock: XIVTED_clean_linker_0, # of connection points: 2
#     Edge 63, Type (0, 1), BuildingBlock: XIVTED_clean_linker_0, # of connection points: 2
#     Edge 64, Type (0, 1), BuildingBlock: XIVTED_clean_linker_0, # of connection points: 2
#     Edge 65, Type (0, 1), BuildingBlock: XIVTED_clean_linker_0, # of connection points: 2
#     Edge 66, Type (0, 1), BuildingBlock: XIVTED_clean_linker_0, # of connection points: 2
#     Edge 67, Type (0, 1), BuildingBlock: XIVTED_clean_linker_0, # of connection points: 2
#     Edge 68, Type (0, 1), BuildingBlock: XIVTED_clean_linker_0, # of connection points: 2
#     Edge 69, Type (0, 1), BuildingBlock: XIVTED_clean_linker_0, # of connection points: 2
#     Edge 70, Type (0, 1), BuildingBlock: XIVTED_clean_linker_0, # of connection points: 2
#     Edge 71, Type (0, 1), BuildingBlock: XIVTED_clean_linker_0, # of connection points: 2
#     Edge 72, Type (0, 1), BuildingBlock: XIVTED_clean_linker_0, # of connection points: 2
#     Edge 73, Type (0, 1), BuildingBlock: XIVTED_clean_linker_0, # of connection points: 2
#     Edge 74, Type (0, 1), BuildingBlock: XIVTED_clean_linker_0, # of connection points: 2
#     Edge 75, Type (0, 1), BuildingBlock: XIVTED_clean_linker_0, # of connection points: 2
#     Edge 76, Type (0, 1), BuildingBlock: XIVTED_clean_linker_0, # of connection points: 2
#     Edge 77, Type (0, 1), BuildingBlock: XIVTED_clean_linker_0, # of connection points: 2
#     Edge 78, Type (0, 1), BuildingBlock: XIVTED_clean_linker_0, # of connection points: 2
#     Edge 79, Type (0, 1), BuildingBlock: XIVTED_clean_linker_0, # of connection points: 2
#     Edge 80, Type (0, 1), BuildingBlock: XIVTED_clean_linker_0, # of connection points: 2
# Relax obj value: 0.065
# Max RMSD: 0.119
# Mean RMSD: 0.081
data_MOF--net-eea--node1-OLANEW_clean_sbu_2--node2-CIFDUS_clean_sbu_1--edge1-XIVTED_clean_linker_0
_symmetry_space_group_name_H-M    P1
_symmetry_Int_Tables_number       1
_symmetry_cell_setting            triclinic
loop_
_symmetry_equiv_pos_as_xyz
'x, y, z'
_cell_length_a     63.414623
_cell_length_b     62.150061
_cell_length_c     44.989136
_cell_angle_alpha  94.772709
_cell_angle_beta   90.117314
_cell_angle_gamma 120.38598
loop_
_atom_site_label
_atom_site_type_symbol
_atom_site_fract_x
_atom_site_fract_y
_atom_site_fract_z
_atom_type_partial_charge
O0 O 0.15293 0.09251 0.49826 0.0
Cd1 Cd 0.12153 0.08564 0.46062 0.0
O2 O 0.16117 0.06346 0.48029 0.0
Cd3 Cd 0.1334 0.04274 0.44401 0.0
O4 O 0.12345 0.00829 0.41547 0.0
C5 C 0.12523 0.99175 0.42832 0.0
O6 O 0.13098 0.99589 0.45713 0.0
C7 C 0.16535 0.08166 0.49933 0.0
C8 C 0.13613 0.12938 0.43246 0.0
O9 O 0.12394 0.1254 0.45608 0.0
O10 O 0.14111 0.11268 0.42217 0.0
O11 O 0.91896 0.11504 0.39889 0.0
Cd12 Cd 0.93868 0.10115 0.3614 0.0
O13 O 0.91821 0.08697 0.42552 0.0
Cd14 Cd 0.90608 0.05912 0.4576 0.0
O15 O 0.87809 0.02023 0.45864 0.0
C16 C 0.85677 0.0156 0.46483 0.0
O17 O 0.85358 0.03436 0.47396 0.0
C18 C 0.91232 0.10343 0.42217 0.0
C19 C 0.9847 0.13894 0.34752 0.0
O20 O 0.96523 0.13541 0.33399 0.0
O21 O 0.98237 0.12463 0.36776 0.0
O22 O 0.8922 0.75603 0.40475 0.0
Cd23 Cd 0.8976 0.77125 0.35517 0.0
O24 O 0.85516 0.72392 0.39336 0.0
Cd25 Cd 0.84908 0.73915 0.35434 0.0
O26 O 0.82319 0.75046 0.34101 0.0
C27 C 0.80092 0.73462 0.34483 0.0
O28 O 0.79556 0.71289 0.35375 0.0
C29 C 0.87373 0.73582 0.41152 0.0
C30 C 0.94161 0.77767 0.33354 0.0
O31 O 0.9407 0.79601 0.34745 0.0
O32 O 0.92167 0.75647 0.32935 0.0
O33 O 0.15576 0.27054 0.63659 0.0
Cd34 Cd 0.14134 0.254 0.68469 0.0
O35 O 0.1251 0.2393 0.60906 0.0
Cd36 Cd 0.10025 0.22715 0.6459 0.0
O37 O 0.06669 0.22495 0.66251 0.0
C38 C 0.04697 0.20445 0.66536 0.0
O39 O 0.04675 0.18322 0.66013 0.0
C40 C 0.14606 0.25915 0.61109 0.0
C41 C 0.17562 0.24384 0.70922 0.0
O42 O 0.15653 0.22656 0.69407 0.0
O43 O 0.17812 0.26567 0.71351 0.0
O44 O 0.86661 0.89496 0.53495 0.0
Cd45 Cd 0.90656 0.89891 0.54502 0.0
O46 O 0.8841 0.93491 0.52825 0.0
Cd47 Cd 0.88275 0.96868 0.52131 0.0
O48 O 0.87317 0.99785 0.52806 0.0
C49 C 0.88865 0.02082 0.53561 0.0
O50 O 0.91203 0.02813 0.53805 0.0
C51 C 0.8648 0.91357 0.52872 0.0
C52 C 0.90281 0.85931 0.57448 0.0
O53 O 0.90605 0.87947 0.58904 0.0
O54 O 0.90136 0.85783 0.54589 0.0
O55 O 0.09104 0.90843 0.5682 0.0
Cd56 Cd 0.07567 0.9207 0.61257 0.0
O57 O 0.12268 0.913 0.59418 0.0
Cd58 Cd 0.11748 0.93367 0.6322 0.0
O59 O 0.13272 0.97046 0.65707 0.0
C60 C 0.14264 0.98892 0.6414 0.0
O61 O 0.14125 0.98442 0.61218 0.0
C62 C 0.10995 0.90634 0.56973 0.0
C63 C 0.04096 0.87861 0.6391 0.0
O64 O 0.03444 0.88898 0.62051 0.0
O65 O 0.06389 0.88825 0.64536 0.0
O66 O 0.82554 0.43007 0.82187 0.0
Cd67 Cd 0.7936 0.42301 0.785 0.0
O68 O 0.83297 0.40032 0.80444 0.0
Cd69 Cd 0.80459 0.37983 0.76878 0.0
O70 O 0.79303 0.34476 0.74079 0.0
C71 C 0.79366 0.32772 0.75392 0.0
O72 O 0.7992 0.33176 0.78279 0.0
C73 C 0.83764 0.41889 0.8231 0.0
C74 C 0.80593 0.46698 0.7585 0.0
O75 O 0.79518 0.46258 0.78323 0.0
O76 O 0.81072 0.45064 0.74634 0.0
O77 O 0.58597 0.44738 0.7352 0.0
Cd78 Cd 0.60438 0.43437 0.69496 0.0
O79 O 0.58672 0.41892 0.75974 0.0
Cd80 Cd 0.57433 0.39096 0.79172 0.0
O81 O 0.54398 0.35309 0.79289 0.0
C82 C 0.52334 0.35062 0.79868 0.0
O83 O 0.52223 0.37072 0.80744 0.0
C84 C 0.58059 0.43539 0.75818 0.0
C85 C 0.64931 0.47292 0.67923 0.0
O86 O 0.62919 0.46912 0.66729 0.0
O87 O 0.64817 0.45851 0.69875 0.0
O88 O 0.55528 0.07086 0.73614 0.0
Cd89 Cd 0.55929 0.0896 0.68907 0.0
O90 O 0.51719 0.06106 0.74344 0.0
Cd91 Cd 0.51004 0.07534 0.70418 0.0
O92 O 0.48176 0.08101 0.68485 0.0
C93 C 0.4852 0.10243 0.68021 0.0
O94 O 0.50729 0.12213 0.68481 0.0
C95 C 0.53652 0.06136 0.75175 0.0
C96 C 0.60482 0.10257 0.66615 0.0
O97 O 0.60202 0.11852 0.683 0.0
O98 O 0.58604 0.08073 0.65972 0.0
O99 O 0.8101 0.58249 0.95071 0.0
Cd100 Cd 0.79592 0.56552 0.99868 0.0
O101 O 0.79985 0.61138 0.95873 0.0
Cd102 Cd 0.77498 0.59436 0.99447 0.0
O103 O 0.73864 0.58491 0.00946 0.0
C104 C 0.72082 0.56252 0.00898 0.0
O105 O 0.72456 0.54389 0.00134 0.0
C106 C 0.81042 0.60192 0.94316 0.0
C107 C 0.83195 0.55906 0.02542 0.0
O108 O 0.81378 0.54082 0.00991 0.0
O109 O 0.83276 0.58014 0.02892 0.0
O110 O 0.52428 0.21735 0.86081 0.0
Cd111 Cd 0.56434 0.22084 0.8687 0.0
O112 O 0.54286 0.2583 0.86255 0.0
Cd113 Cd 0.54392 0.2941 0.86397 0.0
O114 O 0.544 0.32879 0.87694 0.0
C115 C 0.52555 0.3306 0.8701 0.0
O116 O 0.507 0.31169 0.85436 0.0
C117 C 0.52319 0.2371 0.85921 0.0
C118 C 0.56322 0.18419 0.90188 0.0
O119 O 0.56676 0.20506 0.91462 0.0
O120 O 0.56001 0.1805 0.87335 0.0
O121 O 0.76056 0.23505 0.90241 0.0
Cd122 Cd 0.74643 0.24841 0.94715 0.0
O123 O 0.79311 0.24024 0.92687 0.0
Cd124 Cd 0.78888 0.26183 0.96468 0.0
O125 O 0.80307 0.29896 0.98831 0.0
C126 C 0.81194 0.31706 0.97204 0.0
O127 O 0.8103 0.31201 0.94289 0.0
C128 C 0.77952 0.23298 0.90306 0.0
C129 C 0.71225 0.20715 0.97538 0.0
O130 O 0.70538 0.21708 0.95659 0.0
O131 O 0.73527 0.21685 0.98104 0.0
O132 O 0.49306 0.75779 0.16646 0.0
Cd133 Cd 0.46257 0.75271 0.12852 0.0
O134 O 0.49498 0.72356 0.15446 0.0
Cd135 Cd 0.46774 0.70424 0.1174 0.0
O136 O 0.4566 0.66999 0.0879 0.0
C137 C 0.45722 0.65255 0.10008 0.0
O138 O 0.4626 0.65574 0.12893 0.0
C139 C 0.502 0.74393 0.17081 0.0
C140 C 0.47574 0.79789 0.10436 0.0
O141 O 0.46545 0.79302 0.12935 0.0
O142 O 0.47985 0.7815 0.09078 0.0
O143 O 0.2547 0.77965 0.07152 0.0
Cd144 Cd 0.273 0.76445 0.03348 0.0
O145 O 0.25356 0.75107 0.09764 0.0
Cd146 Cd 0.23952 0.72373 0.13041 0.0
O147 O 0.20888 0.6859 0.13073 0.0
C148 C 0.18807 0.68339 0.13548 0.0
O149 O 0.18676 0.70343 0.14385 0.0
C150 C 0.24841 0.76813 0.09487 0.0
C151 C 0.3185 0.8016 0.01726 0.0
O152 O 0.29869 0.79753 0.00411 0.0
O153 O 0.31678 0.78809 0.0382 0.0
O154 O 0.22041 0.40361 0.06878 0.0
Cd155 Cd 0.2241 0.41881 0.01944 0.0
O156 O 0.18245 0.39415 0.07633 0.0
Cd157 Cd 0.17527 0.40639 0.03533 0.0
O158 O 0.14797 0.4125 0.01413 0.0
C159 C 0.15196 0.43424 0.01019 0.0
O160 O 0.17399 0.45368 0.01655 0.0
C161 C 0.20201 0.3951 0.08503 0.0
C162 C 0.26914 0.42862 0.99766 0.0
O163 O 0.26689 0.44605 0.01183 0.0
O164 O 0.25002 0.40677 0.99318 0.0
O165 O 0.48621 0.92554 0.29427 0.0
Cd166 Cd 0.47465 0.90857 0.34269 0.0
O167 O 0.46571 0.94554 0.29818 0.0
Cd168 Cd 0.44277 0.92783 0.3352 0.0
O169 O 0.40651 0.91836 0.35059 0.0
C170 C 0.38846 0.89602 0.34897 0.0
O171 O 0.39195 0.87744 0.34004 0.0
C172 C 0.48062 0.94073 0.28451 0.0
C173 C 0.51182 0.902 0.36571 0.0
O174 O 0.49276 0.88365 0.35167 0.0
O175 O 0.51308 0.92329 0.36943 0.0
O176 O 0.1878 0.54964 0.19732 0.0
Cd177 Cd 0.22784 0.55337 0.20641 0.0
O178 O 0.20628 0.59062 0.19994 0.0
Cd179 Cd 0.20735 0.62644 0.20164 0.0
O180 O 0.20788 0.66131 0.21497 0.0
C181 C 0.18991 0.66377 0.20765 0.0
O182 O 0.17148 0.64537 0.19118 0.0
C183 C 0.18669 0.5694 0.1958 0.0
C184 C 0.22669 0.51685 0.23987 0.0
O185 O 0.2299 0.53763 0.25252 0.0
O186 O 0.22375 0.51317 0.21133 0.0
O187 O 0.42558 0.57185 0.23641 0.0
Cd188 Cd 0.41177 0.58431 0.28215 0.0
O189 O 0.45809 0.57652 0.26038 0.0
Cd190 Cd 0.45421 0.59725 0.29941 0.0
O191 O 0.47043 0.63395 0.32475 0.0
C192 C 0.48173 0.65239 0.30927 0.0
O193 O 0.48118 0.64789 0.28012 0.0
C194 C 0.44455 0.56979 0.23661 0.0
C195 C 0.37902 0.54255 0.31079 0.0
O196 O 0.37133 0.55224 0.29266 0.0
O197 O 0.4022 0.55269 0.31557 0.0
O198 O 0.49439 0.966 0.00798 0.0
Mn199 Mn 0.52857 -0.00117 0.01543 0.0
O200 O 0.46594 0.97683 0.01783 0.0
Mn201 Mn 0.48701 0.00717 0.03951 0.0
O202 O 0.56254 0.03178 0.02237 0.0
O203 O 0.54448 0.97802 0.01186 0.0
Mn204 Mn 0.5707 0.99163 0.99065 0.0
O205 O 0.53048 0.00181 0.96954 0.0
O206 O 0.59189 0.02269 0.01116 0.0
O207 O 0.52639 0.99557 0.0616 0.0
O208 O 0.49793 0.00511 0.07685 0.0
O209 O 0.56678 0.96155 0.00133 0.0
O210 O 0.5596 0.99376 0.95326 0.0
C211 C 0.5106 0.03926 0.01639 0.0
C212 C 0.47206 0.96099 0.00805 0.0
C213 C 0.58516 0.03813 0.02065 0.0
C214 C 0.54769 0.95938 0.01423 0.0
C215 C 0.54307 -0.00074 0.9486 0.0
C216 C 0.51404 -0.00082 0.08212 0.0
O217 O 0.51323 0.02021 0.01863 0.0
O218 O 0.49164 0.03749 0.02926 0.0
O219 O 0.01723 0.48792 0.0298 0.0
Mn220 Mn 0.99829 0.50624 0.04222 0.0
O221 O 0.0081 0.45885 0.06216 0.0
Mn222 Mn 0.99049 0.46812 0.08808 0.0
O223 O 0.97908 0.52446 0.05367 0.0
O224 O 0.02127 0.53495 0.02018 0.0
Mn225 Mn 0.0069 0.54325 0.99402 0.0
O226 O 0.97479 0.4894 0.00393 0.0
O227 O 0.98583 0.54978 0.01693 0.0
O228 O 0.02245 0.52311 0.08022 0.0
O229 O 0.0099 0.49565 0.11495 0.0
O230 O 0.0402 0.56723 0.99579 0.0
O231 O 0.99099 0.5148 0.9673 0.0
C232 C 0.9547 0.45868 0.07146 0.0
C233 C 0.01891 0.46988 0.03933 0.0
C234 C 0.97563 0.54028 0.04083 0.0
C235 C 0.04155 0.55504 0.0169 0.0
C236 C 0.97534 0.49393 0.97644 0.0
C237 C 0.02457 0.51709 0.10637 0.0
O238 O 0.97505 0.47735 0.06442 0.0
O239 O 0.95729 0.44651 0.09175 0.0
O240 O 0.53194 0.51116 0.99412 0.0
Mn241 Mn 0.49425 0.49432 0.9855 0.0
O242 O 0.54998 0.54438 0.96694 0.0
Mn243 Mn 0.52198 0.53795 0.94516 0.0
O244 O 0.45658 0.47758 0.97741 0.0
O245 O 0.48962 0.46292 0.9999 0.0
Mn246 Mn 0.46744 0.45059 0.02648 0.0
O247 O 0.49017 0.50687 0.0287 0.0
O248 O 0.43913 0.44592 0.0071 0.0
O249 O 0.49855 0.48141 0.94265 0.0
O250 O 0.51216 0.51319 0.91356 0.0
O251 O 0.47791 0.42772 0.01738 0.0
O252 O 0.47983 0.47558 0.05801 0.0
C253 C 0.49607 0.54486 0.96865 0.0
C254 C 0.55101 0.53052 0.98574 0.0
C255 C 0.43774 0.45921 0.98775 0.0
C256 C 0.49118 0.4431 0.99848 0.0
C257 C 0.48611 0.49816 0.05441 0.0
C258 C 0.50484 0.49039 0.91725 0.0
O259 O 0.49881 0.52588 0.9708 0.0
O260 O 0.50988 0.55968 0.94956 0.0
O261 O 0.16404 0.30064 0.34284 0.0
Mn262 Mn 0.19879 0.3328 0.35051 0.0
O263 O 0.13699 0.31191 0.35916 0.0
Mn264 Mn 0.15941 0.34172 0.38082 0.0
O265 O 0.23282 0.36569 0.35804 0.0
O266 O 0.21414 0.31124 0.34358 0.0
Mn267 Mn 0.24047 0.3277 0.32286 0.0
O268 O 0.19961 0.3377 0.30494 0.0
O269 O 0.26224 0.35749 0.34506 0.0
O270 O 0.19791 0.32743 0.39605 0.0
O271 O 0.17205 0.33868 0.41643 0.0
O272 O 0.23858 0.29795 0.32886 0.0
O273 O 0.22952 0.33179 0.28671 0.0
C274 C 0.18147 0.37395 0.35713 0.0
C275 C 0.14203 0.29619 0.3459 0.0
C276 C 0.25549 0.37246 0.35599 0.0
C277 C 0.21896 0.29325 0.34254 0.0
C278 C 0.21246 0.33671 0.28331 0.0
C279 C 0.18733 0.3312 0.41861 0.0
O280 O 0.18414 0.35473 0.35753 0.0
O281 O 0.16365 0.37235 0.37259 0.0
O282 O 0.68465 0.81304 0.3738 0.0
Mn283 Mn 0.66848 0.83468 0.38291 0.0
O284 O 0.67622 0.78882 0.41197 0.0
Mn285 Mn 0.66045 0.80189 0.43582 0.0
O286 O 0.6519 0.85595 0.39129 0.0
O287 O 0.69133 0.85972 0.35652 0.0
Mn288 Mn 0.67679 0.86631 0.32864 0.0
O289 O 0.64299 0.81539 0.34675 0.0
O290 O 0.65757 0.87656 0.35006 0.0
O291 O 0.69447 0.85386 0.4187 0.0
O292 O 0.68181 0.8316 0.45853 0.0
O293 O 0.71031 0.88885 0.32769 0.0
O294 O 0.65889 0.83571 0.30612 0.0
C295 C 0.62488 0.79233 0.41759 0.0
C296 C 0.68583 0.79606 0.38703 0.0
C297 C 0.64859 0.87052 0.37562 0.0
C298 C 0.71178 0.87875 0.35098 0.0
C299 C 0.64278 0.81681 0.31837 0.0
C300 C 0.6972 0.85088 0.4462 0.0
O301 O 0.64556 0.80974 0.40959 0.0
O302 O 0.62693 0.7821 0.44046 0.0
O303 O 0.20049 0.84744 0.32991 0.0
Mn304 Mn 0.16301 0.83157 0.32029 0.0
O305 O 0.21983 0.88092 0.30332 0.0
Mn306 Mn 0.19257 0.87516 0.28047 0.0
O307 O 0.12556 0.81588 0.31131 0.0
O308 O 0.15708 0.79972 0.33493 0.0
Mn309 Mn 0.13449 0.78817 0.36116 0.0
O310 O 0.15861 0.84445 0.36315 0.0
O311 O 0.10682 0.78453 0.34125 0.0
O312 O 0.16761 0.81839 0.27774 0.0
O313 O 0.183 0.85042 0.24888 0.0
O314 O 0.14384 0.76436 0.3528 0.0
O315 O 0.14716 0.81313 0.39268 0.0
C316 C 0.16661 0.88275 0.30269 0.0
C317 C 0.22003 0.86667 0.32217 0.0
C318 C 0.10624 0.79804 0.32161 0.0
C319 C 0.15774 0.7794 0.33398 0.0
C320 C 0.15399 0.83581 0.3889 0.0
C321 C 0.17483 0.82745 0.25253 0.0
O322 O 0.16877 0.86348 0.30531 0.0
O323 O 0.1811 0.89745 0.28396 0.0
O324 O 0.82549 0.63714 0.66941 0.0
Mn325 Mn 0.86029 0.66894 0.67738 0.0
O326 O 0.79843 0.64848 0.68559 0.0
Mn327 Mn 0.82074 0.67802 0.70801 0.0
O328 O 0.89469 0.70114 0.68517 0.0
O329 O 0.87536 0.6475 0.66862 0.0
Mn330 Mn 0.90087 0.6626 0.64642 0.0
O331 O 0.8612 0.67532 0.63241 0.0
O332 O 0.92318 0.69246 0.66841 0.0
O333 O 0.85897 0.6626 0.72275 0.0
O334 O 0.83307 0.67398 0.74323 0.0
O335 O 0.89718 0.63171 0.65196 0.0
O336 O 0.88891 0.66713 0.61121 0.0
C337 C 0.84421 0.71044 0.685 0.0
C338 C 0.80349 0.63272 0.67243 0.0
C339 C 0.9171 0.70751 0.68119 0.0
C340 C 0.87852 0.6285 0.66685 0.0
C341 C 0.87271 0.67344 0.60979 0.0
C342 C 0.84812 0.66618 0.74523 0.0
O343 O 0.84583 0.6907 0.68542 0.0
O344 O 0.82647 0.70946 0.70006 0.0
O345 O 0.3492 0.15451 0.70052 0.0
Mn346 Mn 0.33115 0.17367 0.71337 0.0
O347 O 0.34095 0.12648 0.73408 0.0
Mn348 Mn 0.32394 0.13638 0.76032 0.0
O349 O 0.31291 0.19282 0.72547 0.0
O350 O 0.35371 0.20157 0.69 0.0
Mn351 Mn 0.33893 0.20986 0.66439 0.0
O352 O 0.30649 0.15643 0.67613 0.0
O353 O 0.31918 0.21767 0.68833 0.0
O354 O 0.3564 0.19085 0.75034 0.0
O355 O 0.3441 0.16439 0.78621 0.0
O356 O 0.37234 0.23316 0.66448 0.0
O357 O 0.32168 0.181 0.63856 0.0
C358 C 0.28804 0.12713 0.7441 0.0
C359 C 0.35114 0.13678 0.71059 0.0
C360 C 0.30965 0.20883 0.71278 0.0
C361 C 0.37404 0.22125 0.6857 0.0
C362 C 0.30621 0.16046 0.64856 0.0
C363 C 0.35896 0.18537 0.77665 0.0
O364 O 0.30841 0.14557 0.73682 0.0
O365 O 0.29068 0.11514 0.76458 0.0
O366 O 0.86585 0.17612 0.65726 0.0
Mn367 Mn 0.82858 0.16258 0.64831 0.0
O368 O 0.88689 0.21125 0.63404 0.0
Mn369 Mn 0.86022 0.20804 0.61239 0.0
O370 O 0.79127 0.149 0.64007 0.0
O371 O 0.82121 0.12921 0.65986 0.0
Mn372 Mn 0.79848 0.11754 0.68598 0.0
O373 O 0.82515 0.17397 0.69242 0.0
O374 O 0.77142 0.11575 0.66703 0.0
O375 O 0.83179 0.15086 0.60414 0.0
O376 O 0.84978 0.18508 0.57894 0.0
O377 O 0.80602 0.09274 0.67579 0.0
O378 O 0.81159 0.14076 0.71921 0.0
C379 C 0.83502 0.21623 0.63522 0.0
C380 C 0.88607 0.19527 0.65086 0.0
C381 C 0.77156 0.1307 0.64903 0.0
C382 C 0.82058 0.10812 0.65764 0.0
C383 C 0.81978 0.16399 0.71733 0.0
C384 C 0.83961 0.16145 0.57987 0.0
O385 O 0.83599 0.19611 0.63666 0.0
O386 O 0.85053 0.23159 0.61779 0.0
H387 H 0.36406 0.813 0.03792 0.0
H388 H 0.42877 0.94679 0.97909 0.0
H389 H 0.32783 0.83659 0.97841 0.0
H390 H 0.46947 0.91695 0.01835 0.0
H391 H 0.39238 0.90508 0.97456 0.0
H392 H 0.40338 0.84925 0.02794 0.0
C393 C 0.36439 0.82567 0.02255 0.0
C394 C 0.34259 0.82197 0.00932 0.0
C395 C 0.40934 0.90745 0.98365 0.0
C396 C 0.38747 0.86348 0.99788 0.0
C397 C 0.43011 0.93126 0.98619 0.0
C398 C 0.45202 0.93525 0.99928 0.0
C399 C 0.41032 0.88758 0.99497 0.0
C400 C 0.45288 0.91456 0.00804 0.0
C401 C 0.38686 0.84629 0.01675 0.0
C402 C 0.34413 0.83884 0.98935 0.0
N403 N 0.43214 0.89163 0.0063 0.0
N404 N 0.36614 0.85902 0.98456 0.0
H405 H 0.10325 0.39862 0.00385 0.0
H406 H 0.05944 0.4989 0.00859 0.0
H407 H 0.15293 0.47814 0.00262 0.0
H408 H 0.01723 0.42504 0.03831 0.0
H409 H 0.09083 0.489 0.99281 0.0
H410 H 0.06885 0.40581 0.00249 0.0
C411 C 0.10696 0.41756 0.0028 0.0
C412 C 0.13108 0.43787 0.00391 0.0
C413 C 0.07449 0.47486 0.00235 0.0
C414 C 0.09168 0.44617 0.00243 0.0
C415 C 0.05652 0.48042 0.01119 0.0
C416 C 0.03583 0.46284 0.02508 0.0
C417 C 0.07156 0.45147 0.00712 0.0
C418 C 0.03305 0.43925 0.02805 0.0
C419 C 0.08727 0.42164 0.00212 0.0
C420 C 0.13466 0.46196 0.00221 0.0
N421 N 0.05078 0.43432 0.01933 0.0
N422 N 0.11517 0.46549 0.00189 0.0
H423 H 0.4635 0.61527 0.11879 0.0
H424 H 0.46239 0.5571 0.95301 0.0
H425 H 0.44717 0.64004 0.03959 0.0
H426 H 0.50048 0.55219 0.02903 0.0
H427 H 0.44645 0.57854 0.98597 0.0
H428 H 0.46653 0.58297 0.08754 0.0
C429 C 0.46022 0.61374 0.09486 0.0
C430 C 0.45548 0.63071 0.08175 0.0
C431 C 0.45772 0.57211 0.99556 0.0
C432 C 0.45893 0.59371 0.04589 0.0
C433 C 0.46662 0.55973 0.97684 0.0
C434 C 0.48193 0.55205 0.98864 0.0
C435 C 0.46457 0.57714 0.02618 0.0
C436 C 0.48769 0.55665 0.01939 0.0
C437 C 0.46201 0.59531 0.07705 0.0
C438 C 0.45117 0.62759 0.05063 0.0
N439 N 0.47914 0.56906 0.03711 0.0
N440 N 0.45322 0.60961 0.03372 0.0
H441 H 0.81721 0.33513 0.031 0.0
H442 H 0.94705 0.4451 0.01208 0.0
H443 H 0.84275 0.35833 0.94396 0.0
H444 H 0.90959 0.44325 0.09229 0.0
H445 H 0.90797 0.41616 0.98565 0.0
H446 H 0.8489 0.37633 0.05362 0.0
C447 C 0.82919 0.34903 0.01661 0.0
C448 C 0.82765 0.34311 0.9856 0.0
C449 C 0.90808 0.42283 0.00871 0.0
C450 C 0.86407 0.3901 0.01132 0.0
C451 C 0.93044 0.43991 0.02361 0.0
C452 C 0.93141 0.44757 0.05395 0.0
C453 C 0.88665 0.41256 0.02464 0.0
C454 C 0.90943 0.43821 0.06863 0.0
C455 C 0.84721 0.37258 0.02952 0.0
C456 C 0.84347 0.36194 0.96801 0.0
N457 N 0.88792 0.42083 0.05397 0.0
N458 N 0.86137 0.38441 0.98116 0.0
H459 H 0.67826 0.51723 0.01023 0.0
H460 H 0.59374 0.57557 0.98904 0.0
H461 H 0.70582 0.59684 0.01628 0.0
H462 H 0.56437 0.49849 0.00632 0.0
H463 H 0.63488 0.58372 0.00062 0.0
H464 H 0.63646 0.50975 0.01054 0.0
C465 C 0.67557 0.53315 0.01197 0.0
C466 C 0.69562 0.5577 0.01293 0.0
C467 C 0.61945 0.56508 0.00226 0.0
C468 C 0.64781 0.54925 0.01301 0.0
C469 C 0.59593 0.5604 0.99558 0.0
C470 C 0.57558 0.53628 0.99654 0.0
C471 C 0.62279 0.5454 0.00945 0.0
C472 C 0.57954 0.51738 0.00536 0.0
C473 C 0.65168 0.52886 0.01218 0.0
C474 C 0.69097 0.57759 0.01531 0.0
N475 N 0.60272 0.52226 0.01105 0.0
N476 N 0.66759 0.57291 0.0149 0.0
H477 H 0.56839 0.18626 0.96257 0.0
H478 H 0.53189 0.04278 0.9624 0.0
H479 H 0.55577 0.13772 0.8819 0.0
H480 H 0.52604 0.08702 0.03719 0.0
H481 H 0.55116 0.08009 0.93473 0.0
H482 H 0.56311 0.15273 0.99193 0.0
C483 C 0.56468 0.16861 0.95099 0.0
C484 C 0.56211 0.16467 0.91971 0.0
C485 C 0.54613 0.08171 0.95744 0.0
C486 C 0.55606 0.12614 0.95329 0.0
C487 C 0.53538 0.06047 0.97328 0.0
C488 C 0.5273 0.06186 0.00193 0.0
C489 C 0.54892 0.10439 0.97066 0.0
C490 C 0.53186 0.08518 0.01498 0.0
C491 C 0.5617 0.14947 0.96779 0.0
C492 C 0.55759 0.14147 0.90598 0.0
N493 N 0.54218 0.10546 0.99919 0.0
N494 N 0.55447 0.12297 0.92286 0.0
H495 H 0.72077 0.17642 0.00734 0.0
H496 H 0.57853 0.07849 0.02203 0.0
H497 H 0.66248 0.18641 0.97493 0.0
H498 H 0.635 0.0594 0.02771 0.0
H499 H 0.60996 0.1219 0.01706 0.0
H500 H 0.69023 0.13722 0.02633 0.0
C501 C 0.70158 0.17052 0.0045 0.0
C502 C 0.69415 0.18458 0.98922 0.0
C503 C 0.61547 0.10828 0.01989 0.0
C504 C 0.65917 0.13986 0.01108 0.0
C505 C 0.59754 0.08348 0.02297 0.0
C506 C 0.60407 0.06512 0.02487 0.0
C507 C 0.64014 0.11484 0.01905 0.0
C508 C 0.62908 0.07283 0.02594 0.0
C509 C 0.68417 0.14814 0.01531 0.0
C510 C 0.66902 0.17604 0.98627 0.0
N511 N 0.64618 0.09705 0.02274 0.0
N512 N 0.65242 0.15419 0.99697 0.0
H513 H 0.8328 0.51578 0.02997 0.0
H514 H 0.9759 0.58431 0.04198 0.0
H515 H 0.87748 0.5962 0.0471 0.0
H516 H 0.93124 0.50751 0.06134 0.0
H517 H 0.94035 0.58961 0.04666 0.0
H518 H 0.86825 0.5122 0.04346 0.0
C519 C 0.84998 0.53266 0.03692 0.0
C520 C 0.85225 0.55634 0.0371 0.0
C521 C 0.93841 0.57176 0.0506 0.0
C522 C 0.89291 0.55239 0.05226 0.0
C523 C 0.95872 0.56876 0.04802 0.0
C524 C 0.95645 0.54546 0.05128 0.0
C525 C 0.91551 0.55108 0.05561 0.0
C526 C 0.93377 0.52585 0.05889 0.0
C527 C 0.87018 0.5306 0.04475 0.0
C528 C 0.87492 0.57757 0.04649 0.0
N529 N 0.914 0.52892 0.06014 0.0
N530 N 0.89447 0.57512 0.0532 0.0
H531 H 0.48826 0.33983 0.86129 0.0
H532 H 0.53602 0.44723 0.99624 0.0
H533 H 0.55882 0.37108 0.90757 0.0
H534 H 0.46773 0.41856 0.94592 0.0
H535 H 0.54782 0.42437 0.95921 0.0
H536 H 0.48343 0.37314 0.88682 0.0
C537 C 0.50289 0.35388 0.87653 0.0
C538 C 0.52382 0.35243 0.88257 0.0
C539 C 0.53048 0.42349 0.95588 0.0
C540 C 0.51822 0.39045 0.91241 0.0
C541 C 0.52389 0.43668 0.97686 0.0
C542 C 0.50112 0.43494 0.97363 0.0
C543 C 0.51386 0.40809 0.93203 0.0
C544 C 0.48561 0.42053 0.94877 0.0
C545 C 0.50011 0.37291 0.89118 0.0
C546 C 0.54223 0.37127 0.90249 0.0
N547 N 0.49214 0.40743 0.92906 0.0
N548 N 0.53884 0.38928 0.91702 0.0
H549 H 0.1845 0.64166 0.10469 0.0
H550 H 0.04041 0.57757 0.06997 0.0
H551 H 0.14051 0.67094 0.14264 0.0
H552 H 0.08779 0.56288 0.01433 0.0
H553 H 0.07553 0.6057 0.10441 0.0
H554 H 0.14759 0.60609 0.07972 0.0
C555 C 0.16704 0.6404 0.10824 0.0
C556 C 0.16563 0.65953 0.12537 0.0
C557 C 0.0782 0.59602 0.08495 0.0
C558 C 0.12343 0.61891 0.09688 0.0
C559 C 0.05819 0.57984 0.06555 0.0
C560 C 0.06137 0.56764 0.03989 0.0
C561 C 0.10147 0.59988 0.07856 0.0
C562 C 0.08472 0.57165 0.03434 0.0
C563 C 0.14602 0.62017 0.09381 0.0
C564 C 0.14248 0.65677 0.12937 0.0
N565 N 0.10397 0.58746 0.05362 0.0
N566 N 0.1223 0.63694 0.115 0.0
H567 H 0.28122 0.39398 0.97615 0.0
H568 H 0.42465 0.49309 0.9737 0.0
H569 H 0.31231 0.47353 0.99827 0.0
H570 H 0.39463 0.41463 0.98416 0.0
H571 H 0.38288 0.48585 0.96966 0.0
H572 H 0.32209 0.40125 0.96622 0.0
C573 C 0.29658 0.41302 0.97856 0.0
C574 C 0.29336 0.43315 0.9884 0.0
C575 C 0.38549 0.47019 0.97235 0.0
C576 C 0.3402 0.44158 0.97695 0.0
C577 C 0.40928 0.47424 0.97438 0.0
C578 C 0.41306 0.45443 0.97943 0.0
C579 C 0.36544 0.4461 0.97496 0.0
C580 C 0.39251 0.43045 0.98051 0.0
C581 C 0.31992 0.41713 0.97295 0.0
C582 C 0.31398 0.45743 0.99102 0.0
N583 N 0.36961 0.42698 0.97844 0.0
N584 N 0.33656 0.46096 0.9855 0.0
H585 H 0.48331 0.84193 0.13359 0.0
H586 H 0.51388 0.91438 0.98651 0.0
H587 H 0.48445 0.80824 0.04625 0.0
H588 H 0.54631 0.95242 0.07305 0.0
H589 H 0.49289 0.87435 0.00883 0.0
H590 H 0.49694 0.88179 0.11225 0.0
C591 C 0.48622 0.84286 0.1099 0.0
C592 C 0.48292 0.82179 0.09168 0.0
C593 C 0.50411 0.89154 0.02308 0.0
C594 C 0.49803 0.86708 0.06718 0.0
C595 C 0.51585 0.91432 0.01043 0.0
C596 C 0.53102 0.93665 0.02832 0.0
C597 C 0.50774 0.89117 0.0538 0.0
C598 C 0.53378 0.93564 0.05895 0.0
C599 C 0.49403 0.86558 0.0978 0.0
C600 C 0.48698 0.82406 0.06115 0.0
N601 N 0.52223 0.91324 0.07082 0.0
N602 N 0.49425 0.84627 0.04984 0.0
H603 H 0.0297 0.14804 0.3671 0.0
H604 H 0.09859 0.28582 0.32087 0.0
H605 H 0.99523 0.17658 0.31228 0.0
H606 H 0.13745 0.25016 0.34912 0.0
H607 H 0.06099 0.24509 0.31451 0.0
H608 H 0.06962 0.1842 0.35879 0.0
C609 C 0.03054 0.1618 0.35312 0.0
C610 C 0.00908 0.15947 0.34068 0.0
C611 C 0.07779 0.24602 0.32156 0.0
C612 C 0.05464 0.20085 0.33117 0.0
C613 C 0.09925 0.26926 0.32517 0.0
C614 C 0.12105 0.2713 0.33579 0.0
C615 C 0.07797 0.22471 0.32935 0.0
C616 C 0.121 0.24933 0.34092 0.0
C617 C 0.05334 0.18235 0.34825 0.0
C618 C 0.01127 0.17772 0.32252 0.0
N619 N 0.09962 0.22693 0.33826 0.0
N620 N 0.03361 0.19781 0.31865 0.0
H621 H 0.75259 0.70591 0.35589 0.0
H622 H 0.72321 0.81641 0.34864 0.0
H623 H 0.8056 0.77921 0.33127 0.0
H624 H 0.6813 0.75105 0.39595 0.0
H625 H 0.7497 0.79993 0.33235 0.0
H626 H 0.72245 0.71915 0.36039 0.0
C627 C 0.75785 0.72472 0.35108 0.0
C628 C 0.7818 0.74158 0.34356 0.0
C629 C 0.73453 0.78913 0.34603 0.0
C630 C 0.74726 0.75689 0.3488 0.0
C631 C 0.71933 0.79842 0.35519 0.0
C632 C 0.70014 0.78516 0.37388 0.0
C633 C 0.73026 0.76629 0.35533 0.0
C634 C 0.69604 0.76203 0.38183 0.0
C635 C 0.74061 0.73228 0.35374 0.0
C636 C 0.78742 0.76566 0.33737 0.0
N637 N 0.71101 0.7534 0.3726 0.0
N638 N 0.77032 0.77268 0.34037 0.0
H639 H 0.13342 0.95624 0.44872 0.0
H640 H 0.13358 0.89526 0.28506 0.0
H641 H 0.11508 0.9776 0.36802 0.0
H642 H 0.16978 0.89044 0.36305 0.0
H643 H 0.11737 0.91725 0.31653 0.0
H644 H 0.13738 0.92394 0.41893 0.0
C645 C 0.12989 0.95395 0.42476 0.0
C646 C 0.12427 0.96996 0.41081 0.0
C647 C 0.12831 0.91077 0.32688 0.0
C648 C 0.12874 0.93286 0.37658 0.0
C649 C 0.13735 0.89807 0.30901 0.0
C650 C 0.15223 0.89026 0.32178 0.0
C651 C 0.13461 0.91605 0.35766 0.0
C652 C 0.15739 0.89508 0.35265 0.0
C653 C 0.1322 0.93548 0.40778 0.0
C654 C 0.11972 0.96589 0.3797 0.0
N655 N 0.14874 0.90783 0.36954 0.0
N656 N 0.12227 0.94788 0.36359 0.0
H657 H 0.48542 0.66974 0.36834 0.0
H658 H 0.62019 0.77227 0.36092 0.0
H659 H 0.51681 0.69286 0.28349 0.0
H660 H 0.57851 0.77917 0.43258 0.0
H661 H 0.58233 0.74334 0.33202 0.0
H662 H 0.51829 0.70955 0.39296 0.0
C663 C 0.49896 0.68333 0.35484 0.0
C664 C 0.49862 0.67779 0.32389 0.0
C665 C 0.58137 0.75188 0.35358 0.0
C666 C 0.53625 0.72302 0.35189 0.0
C667 C 0.60303 0.76891 0.36977 0.0
C668 C 0.60242 0.77939 0.39826 0.0
C669 C 0.5589 0.7444 0.36655 0.0
C670 C 0.57961 0.77211 0.41016 0.0
C671 C 0.51761 0.70606 0.36888 0.0
C672 C 0.51649 0.69619 0.30745 0.0
N673 N 0.55864 0.75476 0.39437 0.0
N674 N 0.53489 0.71776 0.32173 0.0
H675 H 0.34551 0.85085 0.34819 0.0
H676 H 0.26303 0.91147 0.3278 0.0
H677 H 0.37396 0.93067 0.35796 0.0
H678 H 0.2322 0.83362 0.3423 0.0
H679 H 0.3037 0.91883 0.34058 0.0
H680 H 0.30388 0.84387 0.34791 0.0
C681 C 0.34304 0.86691 0.35065 0.0
C682 C 0.36331 0.8914 0.35279 0.0
C683 C 0.28805 0.90018 0.34136 0.0
C684 C 0.3157 0.88351 0.35217 0.0
C685 C 0.2648 0.89596 0.334 0.0
C686 C 0.24419 0.87186 0.33381 0.0
C687 C 0.29088 0.88008 0.34807 0.0
C688 C 0.24759 0.85251 0.34222 0.0
C689 C 0.31925 0.8629 0.35051 0.0
C690 C 0.35894 0.91146 0.35606 0.0
N691 N 0.27054 0.85695 0.34858 0.0
N692 N 0.33565 0.90707 0.35526 0.0
H693 H 0.23223 0.51925 0.30057 0.0
H694 H 0.19866 0.37673 0.30072 0.0
H695 H 0.2196 0.4705 0.22011 0.0
H696 H 0.19746 0.42197 0.37767 0.0
H697 H 0.21556 0.41337 0.27215 0.0
H698 H 0.22821 0.48628 0.33008 0.0
C699 C 0.22874 0.50166 0.28907 0.0
C700 C 0.2259 0.49753 0.25781 0.0
C701 C 0.2121 0.41541 0.29548 0.0
C702 C 0.22128 0.4596 0.29155 0.0
C703 C 0.20277 0.39453 0.31185 0.0
C704 C 0.19673 0.39634 0.34149 0.0
C705 C 0.21544 0.43821 0.30908 0.0
C706 C 0.20176 0.41979 0.35474 0.0
C707 C 0.22648 0.48283 0.30595 0.0
C708 C 0.22166 0.4744 0.24417 0.0
N709 N 0.21064 0.43973 0.33841 0.0
N710 N 0.21927 0.45622 0.26114 0.0
H711 H 0.38918 0.51207 0.34101 0.0
H712 H 0.24814 0.41241 0.36034 0.0
H713 H 0.32928 0.52112 0.31268 0.0
H714 H 0.30546 0.39427 0.36153 0.0
H715 H 0.27892 0.45611 0.35569 0.0
H716 H 0.35973 0.47258 0.36041 0.0
C717 C 0.36987 0.50591 0.33915 0.0
C718 C 0.36165 0.51978 0.32489 0.0
C719 C 0.28478 0.44263 0.3575 0.0
C720 C 0.32793 0.47475 0.34724 0.0
C721 C 0.26723 0.41767 0.36041 0.0
C722 C 0.27416 0.3995 0.36089 0.0
C723 C 0.30947 0.44955 0.35538 0.0
C724 C 0.29923 0.40755 0.36087 0.0
C725 C 0.35309 0.48336 0.3502 0.0
C726 C 0.33641 0.5109 0.3232 0.0
N727 N 0.31595 0.43193 0.35781 0.0
N728 N 0.32045 0.48891 0.33412 0.0
H729 H 0.55922 0.9388 0.38014 0.0
H730 H 0.60625 0.84356 0.4039 0.0
H731 H 0.51136 0.85852 0.3736 0.0
H732 H 0.65023 0.91438 0.36765 0.0
H733 H 0.57284 0.85257 0.40866 0.0
H734 H 0.59399 0.93325 0.39088 0.0
C735 C 0.55596 0.92004 0.38144 0.0
C736 C 0.5324 0.89906 0.37564 0.0
C737 C 0.59002 0.86633 0.40028 0.0
C738 C 0.57201 0.89268 0.38824 0.0
C739 C 0.60915 0.86135 0.39785 0.0
C740 C 0.63097 0.87825 0.38527 0.0
C741 C 0.59296 0.88854 0.39053 0.0
C742 C 0.63363 0.90083 0.37732 0.0
C743 C 0.5758 0.91692 0.38748 0.0
C744 C 0.52925 0.87518 0.3776 0.0
N745 N 0.61479 0.90527 0.37994 0.0
N746 N 0.54886 0.87263 0.38364 0.0
H747 H 0.15387 0.6746 0.19745 0.0
H748 H 0.20206 0.78226 0.33269 0.0
H749 H 0.22282 0.70313 0.24668 0.0
H750 H 0.13424 0.75438 0.28163 0.0
H751 H 0.21328 0.75824 0.29662 0.0
H752 H 0.14957 0.7083 0.2229 0.0
C753 C 0.16825 0.68811 0.21337 0.0
C754 C 0.18856 0.6858 0.22023 0.0
C755 C 0.19617 0.75777 0.29293 0.0
C756 C 0.18358 0.72428 0.24988 0.0
C757 C 0.18993 0.77162 0.31335 0.0
C758 C 0.16747 0.77048 0.30961 0.0
C759 C 0.17952 0.74233 0.26912 0.0
C760 C 0.15191 0.75593 0.28484 0.0
C761 C 0.16577 0.70737 0.22796 0.0
C762 C 0.2067 0.704 0.24093 0.0
N763 N 0.15811 0.74222 0.26566 0.0
N764 N 0.20362 0.72227 0.25532 0.0
H765 H 0.85607 0.97692 0.43016 0.0
H766 H 0.71071 0.9036 0.40227 0.0
H767 H 0.8088 0.99795 0.47687 0.0
H768 H 0.75867 0.8886 0.34822 0.0
H769 H 0.74591 0.93414 0.43506 0.0
H770 H 0.82007 0.93996 0.40589 0.0
C771 C 0.83811 0.97353 0.43577 0.0
C772 C 0.83541 0.99077 0.45518 0.0
C773 C 0.74875 0.92391 0.41635 0.0
C774 C 0.79416 0.94853 0.4274 0.0
C775 C 0.72867 0.90633 0.3979 0.0
C776 C 0.73195 0.89323 0.37324 0.0
C777 C 0.77223 0.92838 0.40994 0.0
C778 C 0.75552 0.89799 0.36758 0.0
C779 C 0.81756 0.95251 0.42169 0.0
C780 C 0.8117 0.9853 0.46173 0.0
N781 N 0.77484 0.9152 0.38588 0.0
N782 N 0.79196 0.96475 0.44765 0.0
H783 H 0.95088 0.74076 0.31283 0.0
H784 H 0.09544 0.83339 0.30682 0.0
H785 H 0.9861 0.82096 0.33288 0.0
H786 H 0.06191 0.75475 0.31863 0.0
H787 H 0.05458 0.8285 0.30327 0.0
H788 H 0.99068 0.74533 0.30222 0.0
C789 C 0.96693 0.75937 0.31466 0.0
C790 C 0.96518 0.78049 0.32409 0.0
C791 C 0.05621 0.81226 0.30612 0.0
C792 C 0.01078 0.78582 0.31184 0.0
C793 C 0.07948 0.81497 0.30785 0.0
C794 C 0.08203 0.79444 0.31318 0.0
C795 C 0.03542 0.78881 0.30934 0.0
C796 C 0.06075 0.77108 0.31475 0.0
C797 C 0.98964 0.76194 0.30866 0.0
C798 C 0.98663 0.80414 0.32597 0.0
N799 N 0.03836 0.76893 0.313 0.0
N800 N 0.00857 0.80617 0.32006 0.0
H801 H 0.12999 0.16962 0.44893 0.0
H802 H 0.22344 0.25252 0.3314 0.0
H803 H 0.16259 0.14273 0.38272 0.0
H804 H 0.17981 0.27744 0.37982 0.0
H805 H 0.20104 0.2125 0.35155 0.0
H806 H 0.14748 0.20923 0.42568 0.0
C807 C 0.14066 0.17194 0.42943 0.0
C808 C 0.145 0.15285 0.41791 0.0
C809 C 0.19617 0.22657 0.35788 0.0
C810 C 0.16502 0.19803 0.3914 0.0
C811 C 0.20908 0.24961 0.34641 0.0
C812 C 0.20376 0.26861 0.35429 0.0
C813 C 0.17779 0.22225 0.37783 0.0
C814 C 0.18473 0.26345 0.37356 0.0
C815 C 0.15057 0.19453 0.41618 0.0
C816 C 0.15887 0.15689 0.39256 0.0
N817 N 0.17252 0.24076 0.38499 0.0
N818 N 0.16846 0.179 0.38037 0.0
H819 H 0.69534 0.4832 0.69592 0.0
H820 H 0.75891 0.621 0.64951 0.0
H821 H 0.65748 0.51038 0.64479 0.0
H822 H 0.80049 0.58742 0.67524 0.0
H823 H 0.72197 0.57969 0.64432 0.0
H824 H 0.73431 0.52007 0.68628 0.0
C825 C 0.69523 0.49681 0.68247 0.0
C826 C 0.6731 0.49389 0.67148 0.0
C827 C 0.7392 0.5812 0.65056 0.0
C828 C 0.71758 0.53609 0.66045 0.0
C829 C 0.76029 0.60478 0.65349 0.0
C830 C 0.78266 0.60756 0.66302 0.0
C831 C 0.74038 0.56031 0.65793 0.0
C832 C 0.78354 0.586 0.66779 0.0
C833 C 0.71749 0.51778 0.67683 0.0
C834 C 0.67407 0.51197 0.65393 0.0
N835 N 0.76254 0.56327 0.6658 0.0
N836 N 0.69591 0.53245 0.6493 0.0
H837 H 0.4366 0.06638 0.67722 0.0
H838 H 0.39064 0.16481 0.67782 0.0
H839 H 0.48503 0.1455 0.67102 0.0
H840 H 0.35013 0.09236 0.71156 0.0
H841 H 0.42206 0.15494 0.6622 0.0
H842 H 0.40176 0.0729 0.67645 0.0
C843 C 0.43993 0.08508 0.67523 0.0
C844 C 0.46387 0.10551 0.67471 0.0
C845 C 0.40608 0.14108 0.67259 0.0
C846 C 0.42395 0.11305 0.67387 0.0
C847 C 0.38806 0.14661 0.68133 0.0
C848 C 0.36785 0.12945 0.69629 0.0
C849 C 0.40369 0.11815 0.67855 0.0
C850 C 0.36556 0.10624 0.70042 0.0
C851 C 0.42 0.08878 0.67489 0.0
C852 C 0.46694 0.12926 0.67186 0.0
N853 N 0.38333 0.10134 0.69179 0.0
N854 N 0.44722 0.13243 0.67186 0.0
H855 H 0.78372 0.31367 0.69365 0.0
H856 H 0.83368 0.22 0.6956 0.0
H857 H 0.79975 0.29101 0.77481 0.0
H858 H 0.80486 0.23164 0.61578 0.0
H859 H 0.81684 0.24194 0.72555 0.0
H860 H 0.78682 0.28023 0.66509 0.0
C861 C 0.78757 0.30147 0.70551 0.0
C862 C 0.79185 0.30543 0.73664 0.0
C863 C 0.81345 0.23901 0.70154 0.0
C864 C 0.79567 0.26724 0.70406 0.0
C865 C 0.82273 0.22609 0.68453 0.0
C866 C 0.81988 0.22332 0.65339 0.0
C867 C 0.80171 0.24965 0.68714 0.0
C868 C 0.80698 0.23305 0.63988 0.0
C869 C 0.78932 0.28235 0.68919 0.0
C870 C 0.79658 0.28888 0.75081 0.0
N871 N 0.79855 0.24599 0.6568 0.0
N872 N 0.79871 0.27077 0.7344 0.0
H873 H 0.14819 0.00597 0.70079 0.0
H874 H 0.28076 0.11189 0.68521 0.0
H875 H 0.17526 0.03017 0.61457 0.0
H876 H 0.24277 0.11282 0.764 0.0
H877 H 0.2417 0.08366 0.65828 0.0
H878 H 0.18115 0.04605 0.72449 0.0
C879 C 0.16078 0.01987 0.68682 0.0
C880 C 0.15926 0.01452 0.6557 0.0
C881 C 0.24175 0.0908 0.6811 0.0
C882 C 0.19708 0.06016 0.68265 0.0
C883 C 0.2641 0.10742 0.69626 0.0
C884 C 0.26488 0.1158 0.7263 0.0
C885 C 0.22007 0.08172 0.69645 0.0
C886 C 0.24277 0.10731 0.74052 0.0
C887 C 0.17952 0.04277 0.70035 0.0
C888 C 0.17591 0.03333 0.63866 0.0
N889 N 0.2212 0.09041 0.72558 0.0
N890 N 0.19445 0.0551 0.6524 0.0
H891 H 0.03977 0.24449 0.6693 0.0
H892 H 0.89414 0.16141 0.67739 0.0
H893 H 0.00138 0.16439 0.67339 0.0
H894 H 0.93219 0.23563 0.6478 0.0
H895 H 0.93368 0.16436 0.68656 0.0
H896 H 0.00085 0.24348 0.6722 0.0
C897 C 0.02321 0.22671 0.67116 0.0
C898 C 0.02387 0.20444 0.67075 0.0
C899 C 0.9333 0.18004 0.6783 0.0
C900 C 0.97913 0.20319 0.67404 0.0
C901 C 0.91074 0.17839 0.67306 0.0
C902 C 0.90971 0.19806 0.66112 0.0
C903 C 0.95501 0.20167 0.67204 0.0
C904 C 0.93195 0.2198 0.65653 0.0
C905 C 0.00096 0.22615 0.67272 0.0
C906 C 0.00175 0.18199 0.67336 0.0
N907 N 0.9536 0.22094 0.66182 0.0
N908 N 0.98026 0.18191 0.67469 0.0
H909 H 0.89281 0.8128 0.55041 0.0
H910 H 0.86868 0.75847 0.70911 0.0
H911 H 0.90643 0.85746 0.63468 0.0
H912 H 0.85486 0.71265 0.62611 0.0
H913 H 0.88892 0.79593 0.68235 0.0
H914 H 0.88473 0.777 0.57751 0.0
C915 C 0.89431 0.81515 0.5746 0.0
C916 C 0.89997 0.83809 0.59031 0.0
C917 C 0.88195 0.77776 0.66994 0.0
C918 C 0.89075 0.79721 0.62143 0.0
C919 C 0.8705 0.75641 0.68525 0.0
C920 C 0.86057 0.73259 0.66975 0.0
C921 C 0.88278 0.77521 0.6387 0.0
C922 C 0.86304 0.73076 0.63888 0.0
C923 C 0.88973 0.79471 0.59004 0.0
C924 C 0.90185 0.84009 0.62162 0.0
N925 N 0.87361 0.75182 0.62422 0.0
N926 N 0.89704 0.81988 0.6361 0.0
H927 H 0.99127 0.8583 0.63815 0.0
H928 H 0.91075 0.74753 0.69594 0.0
H929 H 0.04873 0.84647 0.66917 0.0
H930 H 0.96692 0.72918 0.67753 0.0
H931 H 0.94058 0.79157 0.69184 0.0
H932 H 0.961 0.8187 0.6561 0.0
C933 C 0.99754 0.84753 0.64914 0.0
C934 C 0.02257 0.85569 0.6521 0.0
C935 C 0.94639 0.77792 0.68876 0.0
C936 C 0.98799 0.8104 0.67316 0.0
C937 C 0.92942 0.75275 0.69149 0.0
C938 C 0.93613 0.73445 0.68636 0.0
C939 C 0.97031 0.78487 0.681 0.0
C940 C 0.96077 0.74252 0.68116 0.0
C941 C 0.98023 0.82502 0.65972 0.0
C942 C 0.02962 0.84092 0.66646 0.0
N943 N 0.9769 0.7671 0.67832 0.0
N944 N 0.01239 0.81879 0.67604 0.0
H945 H 0.22234 0.2785 0.72991 0.0
H946 H 0.26551 0.1781 0.73553 0.0
H947 H 0.17339 0.19875 0.71152 0.0
H948 H 0.31262 0.2542 0.71498 0.0
H949 H 0.23215 0.18699 0.74279 0.0
H950 H 0.25581 0.2709 0.74016 0.0
C951 C 0.21851 0.25936 0.72851 0.0
C952 C 0.19509 0.23923 0.71945 0.0
C953 C 0.24998 0.20185 0.73737 0.0
C954 C 0.23329 0.23047 0.73135 0.0
C955 C 0.26905 0.19689 0.73354 0.0
C956 C 0.29177 0.21546 0.72456 0.0
C957 C 0.25387 0.22563 0.73262 0.0
C958 C 0.29531 0.23936 0.72176 0.0
C959 C 0.23765 0.25507 0.73429 0.0
C960 C 0.19123 0.21483 0.71809 0.0
N961 N 0.27652 0.24373 0.7256 0.0
N962 N 0.21018 0.21112 0.72377 0.0
H963 H 0.91558 0.06966 0.56084 0.0
H964 H 0.79668 0.06463 0.62328 0.0
H965 H 0.84164 0.01126 0.53412 0.0
H966 H 0.86759 0.13152 0.63769 0.0
H967 H 0.81346 0.04672 0.58731 0.0
H968 H 0.89946 0.09475 0.58531 0.0
C969 C 0.89601 0.06227 0.5597 0.0
C970 C 0.8799 0.03807 0.54595 0.0
C971 C 0.82547 0.06541 0.59802 0.0
C972 C 0.86143 0.06656 0.57399 0.0
C973 C 0.81587 0.07561 0.61861 0.0
C974 C 0.83087 0.09946 0.63351 0.0
C975 C 0.85052 0.07885 0.59276 0.0
C976 C 0.85555 0.11302 0.62666 0.0
C977 C 0.88685 0.07661 0.57368 0.0
C978 C 0.85476 0.02958 0.54491 0.0
N979 N 0.86479 0.10234 0.60702 0.0
N980 N 0.84634 0.04365 0.55905 0.0
H981 H 0.51896 0.30839 0.76821 0.0
H982 H 0.37434 0.24464 0.73877 0.0
H983 H 0.47608 0.33858 0.80737 0.0
H984 H 0.42004 0.22862 0.68148 0.0
H985 H 0.41027 0.27305 0.77189 0.0
H986 H 0.48146 0.27257 0.74468 0.0
C987 C 0.50163 0.30729 0.77233 0.0
C988 C 0.50068 0.32672 0.7894 0.0
C989 C 0.41241 0.26303 0.75236 0.0
C990 C 0.45783 0.28582 0.76259 0.0
C991 C 0.39193 0.24669 0.73371 0.0
C992 C 0.39441 0.23403 0.70797 0.0
C993 C 0.43543 0.2666 0.74513 0.0
C994 C 0.41753 0.23775 0.70159 0.0
C995 C 0.48028 0.28691 0.75873 0.0
C996 C 0.4777 0.32416 0.79416 0.0
N997 N 0.43725 0.25374 0.72014 0.0
N998 N 0.45719 0.30418 0.78061 0.0
H999 H 0.64784 0.1479 0.67283 0.0
H1000 H 0.7289 0.08699 0.63522 0.0
H1001 H 0.61758 0.07101 0.63625 0.0
H1002 H 0.75961 0.16707 0.64539 0.0
H1003 H 0.68791 0.08126 0.63228 0.0
H1004 H 0.68871 0.15611 0.6605 0.0
C1005 C 0.64974 0.13281 0.66192 0.0
C1006 C 0.62926 0.10864 0.65589 0.0
C1007 C 0.70356 0.10012 0.63457 0.0
C1008 C 0.67598 0.11789 0.64189 0.0
C1009 C 0.72696 0.10338 0.63618 0.0
C1010 C 0.74759 0.12751 0.64058 0.0
C1011 C 0.70068 0.12114 0.63818 0.0
C1012 C 0.74412 0.14815 0.64178 0.0
C1013 C 0.67307 0.13755 0.65478 0.0
C1014 C 0.63282 0.08988 0.64154 0.0
N1015 N 0.72104 0.14449 0.6412 0.0
N1016 N 0.65574 0.09481 0.63541 0.0
H1017 H 0.80597 0.50919 0.78263 0.0
H1018 H 0.86148 0.58246 0.63809 0.0
H1019 H 0.82189 0.47803 0.70242 0.0
H1020 H 0.8604 0.61993 0.72214 0.0
H1021 H 0.84014 0.54233 0.65942 0.0
H1022 H 0.8196 0.54823 0.75938 0.0
C1023 C 0.81216 0.51047 0.76008 0.0
C1024 C 0.81295 0.49034 0.74451 0.0
C1025 C 0.84413 0.5592 0.67326 0.0
C1026 C 0.82835 0.53482 0.71778 0.0
C1027 C 0.8562 0.58207 0.66102 0.0
C1028 C 0.86215 0.60431 0.67847 0.0
C1029 C 0.83832 0.55857 0.7034 0.0
C1030 C 0.85518 0.60294 0.70801 0.0
C1031 C 0.81995 0.53277 0.74687 0.0
C1032 C 0.82113 0.49307 0.71537 0.0
N1033 N 0.84379 0.58043 0.71978 0.0
N1034 N 0.82852 0.51486 0.70303 0.0
H1035 H 0.48128 0.98138 0.2649 0.0
H1036 H 0.52344 0.96429 0.10238 0.0
H1037 H 0.50309 0.92702 0.24072 0.0
H1038 H 0.50963 0.02335 0.13275 0.0
H1039 H 0.52024 0.95256 0.15362 0.0
H1040 H 0.49505 -0.0011 0.21758 0.0
C1041 C 0.48908 0.97317 0.24966 0.0
C1042 C 0.49079 0.95252 0.2567 0.0
C1043 C 0.5184 0.9684 0.14918 0.0
C1044 C 0.50654 0.97249 0.20205 0.0
C1045 C 0.52053 0.97525 0.11997 0.0
C1046 C 0.51689 0.99481 0.11331 0.0
C1047 C 0.51247 0.98121 0.17177 0.0
C1048 C 0.51239 0.00801 0.13685 0.0
C1049 C 0.49704 0.98326 0.2226 0.0
C1050 C 0.50134 0.94289 0.23615 0.0
N1051 N 0.5101 0.00083 0.16489 0.0
N1052 N 0.50856 0.95277 0.20957 0.0
H1053 H 0.17825 0.59802 0.1601 0.0
H1054 H 0.0327 0.52126 0.16725 0.0
H1055 H 0.14132 0.53573 0.21334 0.0
H1056 H 0.06969 0.54476 0.08583 0.0
H1057 H 0.07277 0.53868 0.19404 0.0
H1058 H 0.13838 0.59115 0.14301 0.0
C1059 C 0.16181 0.58334 0.16882 0.0
C1060 C 0.16305 0.56745 0.18825 0.0
C1061 C 0.072 0.54082 0.17048 0.0
C1062 C 0.11758 0.55952 0.16863 0.0
C1063 C 0.04924 0.53107 0.15524 0.0
C1064 C 0.04789 0.53262 0.12436 0.0
C1065 C 0.09347 0.55235 0.15475 0.0
C1066 C 0.06987 0.54471 0.10978 0.0
C1067 C 0.13912 0.57933 0.15885 0.0
C1068 C 0.1411 0.5483 0.19824 0.0
N1069 N 0.09173 0.55412 0.12503 0.0
N1070 N 0.1192 0.5448 0.18826 0.0
H1071 H 0.42506 0.56142 0.17941 0.0
H1072 H 0.50718 0.50738 0.11049 0.0
H1073 H 0.48019 0.55741 0.23112 0.0
H1074 H 0.45884 0.52041 0.05749 0.0
H1075 H 0.49846 0.52673 0.15492 0.0
H1076 H 0.43771 0.54711 0.13431 0.0
C1077 C 0.43974 0.55742 0.18132 0.0
C1078 C 0.45147 0.56049 0.20914 0.0
C1079 C 0.49014 0.52585 0.13347 0.0
C1080 C 0.46608 0.54411 0.15758 0.0
C1081 C 0.49523 0.51495 0.10818 0.0
C1082 C 0.48435 0.51318 0.08027 0.0
C1083 C 0.47361 0.53447 0.13085 0.0
C1084 C 0.46844 0.52252 0.07842 0.0
C1085 C 0.44705 0.54937 0.15553 0.0
C1086 C 0.47056 0.55525 0.21018 0.0
N1087 N 0.46342 0.53265 0.10339 0.0
N1088 N 0.47718 0.54721 0.18482 0.0
H1089 H 0.87663 0.41151 0.82203 0.0
H1090 H 0.92763 0.47543 0.98735 0.0
H1091 H 0.84355 0.44536 0.87734 0.0
H1092 H 0.97524 0.47634 0.91863 0.0
H1093 H 0.89277 0.45412 0.95081 0.0
H1094 H 0.90947 0.42603 0.86074 0.0
C1095 C 0.8762 0.42189 0.84238 0.0
C1096 C 0.85742 0.4274 0.84643 0.0
C1097 C 0.91078 0.45861 0.94386 0.0
C1098 C 0.89461 0.44357 0.89083 0.0
C1099 C 0.93056 0.47036 0.96475 0.0
C1100 C 0.95414 0.47708 0.956 0.0
C1101 C 0.91467 0.45354 0.91406 0.0
C1102 C 0.95722 0.47111 0.92621 0.0
C1103 C 0.89495 0.43016 0.86436 0.0
C1104 C 0.8578 0.44092 0.8732 0.0
N1105 N 0.93765 0.45961 0.90622 0.0
N1106 N 0.87606 0.44845 0.89447 0.0
H1107 H 0.57901 0.42771 0.81771 0.0
H1108 H 0.49659 0.48873 0.85708 0.0
H1109 H 0.54967 0.45339 0.75167 0.0
H1110 H 0.52457 0.46103 0.92191 0.0
H1111 H 0.51164 0.4714 0.81718 0.0
H1112 H 0.55513 0.43519 0.85523 0.0
C1113 C 0.56714 0.43438 0.8109 0.0
C1114 C 0.56603 0.43947 0.78132 0.0
C1115 C 0.51394 0.46852 0.8401 0.0
C1116 C 0.53927 0.44907 0.82454 0.0
C1117 C 0.50521 0.47827 0.86281 0.0
C1118 C 0.5087 0.47559 0.89277 0.0
C1119 C 0.52668 0.45646 0.84749 0.0
C1120 C 0.5205 0.46245 0.89908 0.0
C1121 C 0.55368 0.43894 0.83246 0.0
C1122 C 0.55112 0.44922 0.77421 0.0
N1123 N 0.52926 0.45358 0.87671 0.0
N1124 N 0.53842 0.45379 0.79566 0.0
H1125 H 0.57301 0.05516 0.77492 0.0
H1126 H 0.50594 0.00477 0.92574 0.0
H1127 H 0.50115 0.0432 0.79277 0.0
H1128 H 0.57304 0.00726 0.90196 0.0
H1129 H 0.50368 0.0187 0.87717 0.0
H1130 H 0.57341 0.03791 0.82166 0.0
C1131 C 0.5573 0.04889 0.78862 0.0
C1132 C 0.53703 0.05069 0.77986 0.0
C1133 C 0.5188 0.01602 0.88252 0.0
C1134 C 0.53739 0.0309 0.83349 0.0
C1135 C 0.52011 0.00806 0.91027 0.0
C1136 C 0.53981 0.00499 0.91813 0.0
C1137 C 0.53735 0.02102 0.86246 0.0
C1138 C 0.5575 0.00935 0.89698 0.0
C1139 C 0.55752 0.03897 0.81529 0.0
C1140 C 0.51719 0.0422 0.79856 0.0
N1141 N 0.55594 0.01731 0.87028 0.0
N1142 N 0.51791 0.03278 0.82451 0.0
H1143 H 0.13971 0.23507 0.55506 0.0
H1144 H 0.18985 0.35522 0.47306 0.0
H1145 H 0.1799 0.30802 0.60458 0.0
H1146 H 0.19095 0.2908 0.43144 0.0
H1147 H 0.18558 0.33853 0.52149 0.0
H1148 H 0.15682 0.2544 0.50901 0.0
C1149 C 0.15232 0.2551 0.55628 0.0
C1150 C 0.15826 0.27 0.58365 0.0
C1151 C 0.18726 0.3283 0.50184 0.0
C1152 C 0.17752 0.29217 0.53113 0.0
C1153 C 0.18971 0.3378 0.47423 0.0
C1154 C 0.1906 0.32427 0.44818 0.0
C1155 C 0.18488 0.30471 0.50326 0.0
C1156 C 0.19029 0.30178 0.45093 0.0
C1157 C 0.16218 0.26607 0.53006 0.0
C1158 C 0.17481 0.29584 0.58397 0.0
N1159 N 0.18683 0.29235 0.4779 0.0
N1160 N 0.18349 0.30619 0.55802 0.0
H1161 H 0.85298 0.93415 0.4851 0.0
H1162 H 0.70902 0.86234 0.50678 0.0
H1163 H 0.82127 0.88397 0.55378 0.0
H1164 H 0.74097 0.8723 0.421 0.0
H1165 H 0.75045 0.88196 0.53088 0.0
H1166 H 0.81192 0.924 0.46851 0.0
C1167 C 0.83745 0.92156 0.49722 0.0
C1168 C 0.84049 0.90998 0.52096 0.0
C1169 C 0.74826 0.88051 0.50678 0.0
C1170 C 0.7936 0.89831 0.5019 0.0
C1171 C 0.72475 0.86951 0.49305 0.0
C1172 C 0.72161 0.86682 0.46175 0.0
C1173 C 0.76865 0.88898 0.48903 0.0
C1174 C 0.74256 0.87553 0.44506 0.0
C1175 C 0.81406 0.91567 0.48757 0.0
C1176 C 0.81962 0.89322 0.53531 0.0
N1177 N 0.76512 0.8863 0.45884 0.0
N1178 N 0.79696 0.88782 0.52552 0.0
H1179 H 0.14633 0.89485 0.56671 0.0
H1180 H 0.12752 0.85886 0.38984 0.0
H1181 H 0.09179 0.89725 0.51176 0.0
H1182 H 0.17311 0.84439 0.44603 0.0
H1183 H 0.11839 0.87832 0.43351 0.0
H1184 H 0.15975 0.88073 0.52225 0.0
C1185 C 0.13713 0.89238 0.54531 0.0
C1186 C 0.11778 0.89712 0.54302 0.0
C1187 C 0.13079 0.87136 0.43629 0.0
C1188 C 0.13327 0.88117 0.49195 0.0
C1189 C 0.13638 0.86073 0.41128 0.0
C1190 C 0.1518 0.85094 0.41429 0.0
C1191 C 0.14049 0.87193 0.46463 0.0
C1192 C 0.16152 0.85223 0.44281 0.0
C1193 C 0.14485 0.88435 0.51992 0.0
C1194 C 0.10665 0.89366 0.51465 0.0
N1195 N 0.1557 0.86254 0.46694 0.0
N1196 N 0.11457 0.88593 0.49024 0.0
H1197 H 0.51145 0.77579 0.22145 0.0
H1198 H 0.63909 0.79188 0.26395 0.0
H1199 H 0.53589 0.72938 0.17494 0.0
H1200 H 0.59631 0.80401 0.33031 0.0
H1201 H 0.60264 0.77026 0.22957 0.0
H1202 H 0.54388 0.78877 0.26033 0.0
C1203 C 0.52362 0.76833 0.21944 0.0
C1204 C 0.52107 0.7516 0.19487 0.0
C1205 C 0.60112 0.77716 0.2519 0.0
C1206 C 0.5582 0.76647 0.23901 0.0
C1207 C 0.62183 0.78936 0.27147 0.0
C1208 C 0.62045 0.79926 0.30003 0.0
C1209 C 0.57924 0.77573 0.26071 0.0
C1210 C 0.5979 0.79614 0.30861 0.0
C1211 C 0.54196 0.77557 0.24171 0.0
C1212 C 0.53721 0.74233 0.19351 0.0
N1213 N 0.57822 0.78498 0.28885 0.0
N1214 N 0.55531 0.75015 0.21506 0.0
H1215 H 0.21906 0.78765 0.08583 0.0
H1216 H 0.19138 0.7955 0.25836 0.0
H1217 H 0.24568 0.76179 0.15477 0.0
H1218 H 0.16966 0.82751 0.19198 0.0
H1219 H 0.20535 0.77682 0.21917 0.0
H1220 H 0.1963 0.79758 0.12293 0.0
C1221 C 0.21996 0.78384 0.10872 0.0
C1222 C 0.23403 0.77348 0.11708 0.0
C1223 C 0.19701 0.78742 0.21298 0.0
C1224 C 0.20799 0.7848 0.15968 0.0
C1225 C 0.1885 0.79758 0.23536 0.0
C1226 C 0.17857 0.8123 0.22836 0.0
C1227 C 0.19601 0.79238 0.1833 0.0
C1228 C 0.1769 0.81596 0.19827 0.0
C1229 C 0.20687 0.78942 0.12986 0.0
C1230 C 0.23451 0.76897 0.14705 0.0
N1231 N 0.18568 0.8062 0.17685 0.0
N1232 N 0.22176 0.77472 0.16725 0.0
H1233 H 0.23961 0.39153 0.10944 0.0
H1234 H 0.17444 0.34168 0.26162 0.0
H1235 H 0.1672 0.37808 0.12702 0.0
H1236 H 0.24257 0.34697 0.23681 0.0
H1237 H 0.17137 0.35572 0.21325 0.0
H1238 H 0.24116 0.37633 0.15716 0.0
C1239 C 0.22402 0.38539 0.12332 0.0
C1240 C 0.20323 0.38607 0.11411 0.0
C1241 C 0.18691 0.35368 0.21843 0.0
C1242 C 0.20488 0.36857 0.16898 0.0
C1243 C 0.18869 0.3457 0.24605 0.0
C1244 C 0.20887 0.34327 0.25348 0.0
C1245 C 0.20545 0.35928 0.19816 0.0
C1246 C 0.22664 0.34851 0.23222 0.0
C1247 C 0.22489 0.37665 0.15059 0.0
C1248 C 0.1836 0.37785 0.13315 0.0
N1249 N 0.22456 0.35635 0.20571 0.0
N1250 N 0.18491 0.36948 0.1597 0.0
H1251 H 0.82326 0.58059 0.89604 0.0
H1252 H 0.86189 0.69557 0.79785 0.0
H1253 H 0.82388 0.6485 0.92723 0.0
H1254 H 0.83818 0.62044 0.76006 0.0
H1255 H 0.85806 0.68158 0.84797 0.0
H1256 H 0.83862 0.59801 0.84853 0.0
C1257 C 0.82692 0.59927 0.89306 0.0
C1258 C 0.82201 0.613 0.91552 0.0
C1259 C 0.85439 0.66831 0.82869 0.0
C1260 C 0.83972 0.63305 0.8614 0.0
C1261 C 0.85675 0.67633 0.80016 0.0
C1262 C 0.85125 0.65932 0.77481 0.0
C1263 C 0.84616 0.643 0.83185 0.0
C1264 C 0.84397 0.63443 0.77891 0.0
C1265 C 0.83562 0.60916 0.86594 0.0
C1266 C 0.82711 0.63712 0.91042 0.0
N1267 N 0.84147 0.62696 0.80689 0.0
N1268 N 0.83559 0.64632 0.88389 0.0
H1269 H 0.51391 0.2651 0.82343 0.0
H1270 H 0.36897 0.19048 0.83727 0.0
H1271 H 0.47835 0.20411 0.87878 0.0
H1272 H 0.40345 0.21167 0.75392 0.0
H1273 H 0.40969 0.20768 0.86224 0.0
H1274 H 0.47373 0.2583 0.80795 0.0
C1275 C 0.49772 0.25073 0.83294 0.0
C1276 C 0.49942 0.23518 0.85251 0.0
C1277 C 0.40824 0.20935 0.83866 0.0
C1278 C 0.45359 0.22734 0.83473 0.0
C1279 C 0.38511 0.19974 0.82444 0.0
C1280 C 0.38285 0.20073 0.79356 0.0
C1281 C 0.42918 0.2202 0.82189 0.0
C1282 C 0.40435 0.21209 0.77791 0.0
C1283 C 0.47485 0.24676 0.82388 0.0
C1284 C 0.47777 0.21641 0.86354 0.0
N1285 N 0.42657 0.22141 0.79218 0.0
N1286 N 0.45568 0.21295 0.85445 0.0
H1287 H 0.81538 0.22075 0.89829 0.0
H1288 H 0.79441 0.18808 0.72102 0.0
H1289 H 0.75988 0.22359 0.84589 0.0
H1290 H 0.83861 0.16975 0.77419 0.0
H1291 H 0.78602 0.20668 0.76611 0.0
H1292 H 0.82765 0.20639 0.85285 0.0
C1293 C 0.80573 0.21831 0.87726 0.0
C1294 C 0.78649 0.2233 0.87594 0.0
C1295 C 0.7979 0.19899 0.76796 0.0
C1296 C 0.80067 0.20716 0.82382 0.0
C1297 C 0.80312 0.1889 0.74215 0.0
C1298 C 0.81801 0.17838 0.74387 0.0
C1299 C 0.80741 0.19825 0.79582 0.0
C1300 C 0.82748 0.17825 0.77199 0.0
C1301 C 0.81277 0.21014 0.85134 0.0
C1302 C 0.7747 0.21984 0.84803 0.0
N1303 N 0.82204 0.18808 0.79694 0.0
N1304 N 0.78203 0.21206 0.8231 0.0
H1305 H 0.20425 0.07415 0.49834 0.0
H1306 H 0.25894 0.14323 0.661 0.0
H1307 H 0.17179 0.10892 0.55323 0.0
H1308 H 0.30443 0.14085 0.59131 0.0
H1309 H 0.22315 0.12093 0.62585 0.0
H1310 H 0.23771 0.08964 0.53631 0.0
C1311 C 0.20406 0.0849 0.51846 0.0
C1312 C 0.18528 0.09041 0.52255 0.0
C1313 C 0.2409 0.12495 0.61839 0.0
C1314 C 0.22329 0.10779 0.56614 0.0
C1315 C 0.26121 0.13731 0.63849 0.0
C1316 C 0.28446 0.14333 0.62906 0.0
C1317 C 0.24393 0.11859 0.5887 0.0
C1318 C 0.28669 0.13617 0.59942 0.0
C1319 C 0.22318 0.09375 0.54003 0.0
C1320 C 0.18602 0.10445 0.54905 0.0
N1321 N 0.26663 0.12411 0.58021 0.0
N1322 N 0.2047 0.1126 0.56991 0.0
H1323 H 0.88694 0.12706 0.41246 0.0
H1324 H 0.83247 0.11374 0.57427 0.0
H1325 H 0.90275 0.09149 0.48054 0.0
H1326 H 0.84958 0.17579 0.52323 0.0
H1327 H 0.84639 0.09576 0.53361 0.0
H1328 H 0.86257 0.13633 0.44753 0.0
C1329 C 0.88508 0.12087 0.43461 0.0
C1330 C 0.89674 0.10809 0.44328 0.0
C1331 C 0.84679 0.11317 0.53133 0.0
C1332 C 0.86847 0.11836 0.48337 0.0
C1333 C 0.83884 0.1234 0.55447 0.0
C1334 C 0.84083 0.1468 0.55279 0.0
C1335 C 0.85612 0.12616 0.50603 0.0
C1336 C 0.8483 0.15802 0.52594 0.0
C1337 C 0.87106 0.1261 0.45453 0.0
C1338 C 0.89355 0.10056 0.47234 0.0
N1339 N 0.85593 0.14776 0.50379 0.0
N1340 N 0.87974 0.10583 0.49135 0.0
H1341 H 0.90567 0.7605 0.46006 0.0
H1342 H 0.84327 0.64555 0.56058 0.0
H1343 H 0.8408 0.69019 0.43017 0.0
H1344 H 0.89662 0.72093 0.59513 0.0
H1345 H 0.84271 0.6607 0.5119 0.0
H1346 H 0.90386 0.74545 0.50898 0.0
C1347 C 0.89111 0.74185 0.46372 0.0
C1348 C 0.87338 0.72658 0.44093 0.0
C1349 C 0.85432 0.67398 0.53023 0.0
C1350 C 0.87118 0.70921 0.49697 0.0
C1351 C 0.85453 0.66534 0.5579 0.0
C1352 C 0.86974 0.68217 0.58167 0.0
C1353 C 0.86975 0.69951 0.5264 0.0
C1354 C 0.88442 0.70753 0.57725 0.0
C1355 C 0.89 0.73331 0.49172 0.0
C1356 C 0.85485 0.70261 0.44708 0.0
N1357 N 0.88416 0.71544 0.55009 0.0
N1358 N 0.85428 0.69463 0.47447 0.0
loop_
_geom_bond_atom_site_label_1
_geom_bond_atom_site_label_2
_geom_bond_distance
_geom_bond_site_symmetry_2
_ccdc_geom_bond_type
O0 Cd1 2.300 . S
O0 C7 1.275 . S
Cd1 O0 2.300 . S
Cd1 O9 2.381 . S
Cd1 O10 2.378 . S
O2 Cd3 2.385 . S
O2 C7 1.255 . S
Cd3 O2 2.385 . S
Cd3 O4 2.317 . S
O4 Cd3 2.317 . S
O4 C5 1.232 . S
C5 O4 1.232 . S
C5 O6 1.218 . S
O6 C5 1.218 . S
C7 O0 1.275 . S
C7 O2 1.255 . S
C8 O9 1.258 . S
C8 O10 1.256 . S
O9 Cd1 2.381 . S
O9 C8 1.258 . S
O10 Cd1 2.378 . S
O10 C8 1.256 . S
O11 Cd12 2.300 . S
O11 C18 1.275 . S
Cd12 O11 2.300 . S
Cd12 O20 2.381 . S
Cd12 O21 2.378 . S
O13 Cd14 2.385 . S
O13 C18 1.255 . S
Cd14 O13 2.385 . S
Cd14 O15 2.317 . S
O15 Cd14 2.317 . S
O15 C16 1.232 . S
C16 O15 1.232 . S
C16 O17 1.218 . S
O17 C16 1.218 . S
C18 O11 1.275 . S
C18 O13 1.255 . S
C19 O20 1.258 . S
C19 O21 1.256 . S
O20 Cd12 2.381 . S
O20 C19 1.258 . S
O21 Cd12 2.378 . S
O21 C19 1.256 . S
O22 Cd23 2.300 . S
O22 C29 1.275 . S
Cd23 O22 2.300 . S
Cd23 O31 2.381 . S
Cd23 O32 2.378 . S
O24 Cd25 2.385 . S
O24 C29 1.255 . S
Cd25 O24 2.385 . S
Cd25 O26 2.317 . S
O26 Cd25 2.317 . S
O26 C27 1.232 . S
C27 O26 1.232 . S
C27 O28 1.218 . S
O28 C27 1.218 . S
C29 O22 1.275 . S
C29 O24 1.255 . S
C30 O31 1.258 . S
C30 O32 1.256 . S
O31 Cd23 2.381 . S
O31 C30 1.258 . S
O32 Cd23 2.378 . S
O32 C30 1.256 . S
O33 Cd34 2.300 . S
O33 C40 1.275 . S
Cd34 O33 2.300 . S
Cd34 O42 2.381 . S
Cd34 O43 2.378 . S
O35 Cd36 2.385 . S
O35 C40 1.255 . S
Cd36 O35 2.385 . S
Cd36 O37 2.317 . S
O37 Cd36 2.317 . S
O37 C38 1.232 . S
C38 O37 1.232 . S
C38 O39 1.218 . S
O39 C38 1.218 . S
C40 O33 1.275 . S
C40 O35 1.255 . S
C41 O42 1.258 . S
C41 O43 1.256 . S
O42 Cd34 2.381 . S
O42 C41 1.258 . S
O43 Cd34 2.378 . S
O43 C41 1.256 . S
O44 Cd45 2.300 . S
O44 C51 1.275 . S
Cd45 O44 2.300 . S
Cd45 O53 2.381 . S
Cd45 O54 2.378 . S
O46 Cd47 2.385 . S
O46 C51 1.255 . S
Cd47 O46 2.385 . S
Cd47 O48 2.317 . S
O48 Cd47 2.317 . S
O48 C49 1.232 . S
C49 O48 1.232 . S
C49 O50 1.218 . S
O50 C49 1.218 . S
C51 O44 1.275 . S
C51 O46 1.255 . S
C52 O53 1.258 . S
C52 O54 1.256 . S
O53 Cd45 2.381 . S
O53 C52 1.258 . S
O54 Cd45 2.378 . S
O54 C52 1.256 . S
O55 Cd56 2.300 . S
O55 C62 1.275 . S
Cd56 O55 2.300 . S
Cd56 O64 2.381 . S
Cd56 O65 2.378 . S
O57 Cd58 2.385 . S
O57 C62 1.255 . S
Cd58 O57 2.385 . S
Cd58 O59 2.317 . S
O59 Cd58 2.317 . S
O59 C60 1.232 . S
C60 O59 1.232 . S
C60 O61 1.218 . S
O61 C60 1.218 . S
C62 O55 1.275 . S
C62 O57 1.255 . S
C63 O64 1.258 . S
C63 O65 1.256 . S
O64 Cd56 2.381 . S
O64 C63 1.258 . S
O65 Cd56 2.378 . S
O65 C63 1.256 . S
O66 Cd67 2.300 . S
O66 C73 1.275 . S
Cd67 O66 2.300 . S
Cd67 O75 2.381 . S
Cd67 O76 2.378 . S
O68 Cd69 2.385 . S
O68 C73 1.255 . S
Cd69 O68 2.385 . S
Cd69 O70 2.317 . S
O70 Cd69 2.317 . S
O70 C71 1.232 . S
C71 O70 1.232 . S
C71 O72 1.218 . S
O72 C71 1.218 . S
C73 O66 1.275 . S
C73 O68 1.255 . S
C74 O75 1.258 . S
C74 O76 1.256 . S
O75 Cd67 2.381 . S
O75 C74 1.258 . S
O76 Cd67 2.378 . S
O76 C74 1.256 . S
O77 Cd78 2.300 . S
O77 C84 1.275 . S
Cd78 O77 2.300 . S
Cd78 O86 2.381 . S
Cd78 O87 2.378 . S
O79 Cd80 2.385 . S
O79 C84 1.255 . S
Cd80 O79 2.385 . S
Cd80 O81 2.317 . S
O81 Cd80 2.317 . S
O81 C82 1.232 . S
C82 O81 1.232 . S
C82 O83 1.218 . S
O83 C82 1.218 . S
C84 O77 1.275 . S
C84 O79 1.255 . S
C85 O86 1.258 . S
C85 O87 1.256 . S
O86 Cd78 2.381 . S
O86 C85 1.258 . S
O87 Cd78 2.378 . S
O87 C85 1.256 . S
O88 Cd89 2.300 . S
O88 C95 1.275 . S
Cd89 O88 2.300 . S
Cd89 O97 2.381 . S
Cd89 O98 2.378 . S
O90 Cd91 2.385 . S
O90 C95 1.255 . S
Cd91 O90 2.385 . S
Cd91 O92 2.317 . S
O92 Cd91 2.317 . S
O92 C93 1.232 . S
C93 O92 1.232 . S
C93 O94 1.218 . S
O94 C93 1.218 . S
C95 O88 1.275 . S
C95 O90 1.255 . S
C96 O97 1.258 . S
C96 O98 1.256 . S
O97 Cd89 2.381 . S
O97 C96 1.258 . S
O98 Cd89 2.378 . S
O98 C96 1.256 . S
O99 Cd100 2.300 1_556 S
O99 C106 1.275 . S
Cd100 O99 2.300 1_554 S
Cd100 O108 2.376 1_554 S
Cd100 O109 2.378 . S
O101 Cd102 2.385 1_556 S
O101 C106 1.255 . S
Cd102 O101 2.385 1_554 S
Cd102 O103 2.317 . S
O103 Cd102 2.317 . S
O103 C104 1.232 . S
C104 O103 1.232 . S
C104 O105 1.218 . S
O105 C104 1.218 . S
C106 O99 1.275 . S
C106 O101 1.255 . S
C107 O108 1.223 1_554 S
C107 O109 1.256 . S
O108 Cd100 2.376 1_556 S
O108 C107 1.223 1_556 S
O109 Cd100 2.378 . S
O109 C107 1.256 . S
O110 Cd111 2.300 . S
O110 C117 1.275 . S
Cd111 O110 2.300 . S
Cd111 O119 2.381 1_556 S
Cd111 O120 2.378 1_556 S
O112 Cd113 2.385 . S
O112 C117 1.255 . S
Cd113 O112 2.385 . S
Cd113 O114 2.317 1_556 S
O114 Cd113 2.317 1_554 S
O114 C115 1.232 . S
C115 O114 1.232 . S
C115 O116 1.218 1_554 S
O116 C115 1.218 1_556 S
C117 O110 1.275 . S
C117 O112 1.255 . S
C118 O119 1.258 . S
C118 O120 1.256 . S
O119 Cd111 2.381 1_554 S
O119 C118 1.258 . S
O120 Cd111 2.378 1_554 S
O120 C118 1.256 . S
O121 Cd122 2.300 . S
O121 C128 1.275 . S
Cd122 O121 2.300 . S
Cd122 O130 2.381 . S
Cd122 O131 2.378 1_556 S
O123 Cd124 2.385 1_556 S
O123 C128 1.255 . S
Cd124 O123 2.385 1_554 S
Cd124 O125 2.317 . S
O125 Cd124 2.317 . S
O125 C126 1.232 . S
C126 O125 1.232 . S
C126 O127 1.217 1_554 S
O127 C126 1.217 1_556 S
C128 O121 1.275 . S
C128 O123 1.255 . S
C129 O130 1.258 1_554 S
C129 O131 1.256 . S
O130 Cd122 2.381 . S
O130 C129 1.258 1_556 S
O131 Cd122 2.378 1_554 S
O131 C129 1.256 . S
O132 Cd133 2.300 . S
O132 C139 1.275 . S
Cd133 O132 2.300 . S
Cd133 O141 2.381 . S
Cd133 O142 2.378 1_554 S
O134 Cd135 2.385 . S
O134 C139 1.255 . S
Cd135 O134 2.385 . S
Cd135 O136 2.316 1_554 S
O136 Cd135 2.316 1_556 S
O136 C137 1.227 1_556 S
C137 O136 1.227 1_554 S
C137 O138 1.218 . S
O138 C137 1.218 . S
C139 O132 1.275 . S
C139 O134 1.255 . S
C140 O141 1.258 . S
C140 O142 1.256 1_554 S
O141 Cd133 2.381 . S
O141 C140 1.258 . S
O142 Cd133 2.378 1_556 S
O142 C140 1.256 1_556 S
O143 Cd144 2.300 . S
O143 C150 1.275 . S
Cd144 O143 2.300 . S
Cd144 O152 2.381 . S
Cd144 O153 2.380 . S
O145 Cd146 2.385 . S
O145 C150 1.255 . S
Cd146 O145 2.385 . S
Cd146 O147 2.317 . S
O147 Cd146 2.317 . S
O147 C148 1.232 . S
C148 O147 1.232 . S
C148 O149 1.218 . S
O149 C148 1.218 . S
C150 O143 1.275 . S
C150 O145 1.255 . S
C151 O152 1.252 1_556 S
C151 O153 1.254 1_556 S
O152 Cd144 2.381 . S
O152 C151 1.252 1_554 S
O153 Cd144 2.380 . S
O153 C151 1.254 1_554 S
O154 Cd155 2.300 . S
O154 C161 1.275 . S
Cd155 O154 2.300 . S
Cd155 O163 2.381 . S
Cd155 O164 2.378 1_554 S
O156 Cd157 2.385 . S
O156 C161 1.255 . S
Cd157 O156 2.385 . S
Cd157 O158 2.317 1_554 S
O158 Cd157 2.317 1_556 S
O158 C159 1.232 1_556 S
C159 O158 1.232 1_554 S
C159 O160 1.218 . S
O160 C159 1.218 . S
C161 O154 1.275 . S
C161 O156 1.255 . S
C162 O163 1.258 . S
C162 O164 1.256 1_554 S
O163 Cd155 2.381 . S
O163 C162 1.258 . S
O164 Cd155 2.378 1_556 S
O164 C162 1.256 1_556 S
O165 Cd166 2.300 . S
O165 C172 1.275 . S
Cd166 O165 2.300 . S
Cd166 O174 2.381 . S
Cd166 O175 2.378 . S
O167 Cd168 2.385 . S
O167 C172 1.255 . S
Cd168 O167 2.385 . S
Cd168 O169 2.317 . S
O169 Cd168 2.317 . S
O169 C170 1.232 . S
C170 O169 1.232 . S
C170 O171 1.218 . S
O171 C170 1.218 . S
C172 O165 1.275 . S
C172 O167 1.255 . S
C173 O174 1.258 . S
C173 O175 1.256 . S
O174 Cd166 2.381 . S
O174 C173 1.258 . S
O175 Cd166 2.378 . S
O175 C173 1.256 . S
O176 Cd177 2.300 . S
O176 C183 1.275 . S
Cd177 O176 2.300 . S
Cd177 O185 2.381 . S
Cd177 O186 2.378 . S
O178 Cd179 2.385 . S
O178 C183 1.255 . S
Cd179 O178 2.385 . S
Cd179 O180 2.317 . S
O180 Cd179 2.317 . S
O180 C181 1.232 . S
C181 O180 1.232 . S
C181 O182 1.218 . S
O182 C181 1.218 . S
C183 O176 1.275 . S
C183 O178 1.255 . S
C184 O185 1.258 . S
C184 O186 1.256 . S
O185 Cd177 2.381 . S
O185 C184 1.258 . S
O186 Cd177 2.378 . S
O186 C184 1.256 . S
O187 Cd188 2.300 . S
O187 C194 1.275 . S
Cd188 O187 2.300 . S
Cd188 O196 2.381 . S
Cd188 O197 2.378 . S
O189 Cd190 2.385 . S
O189 C194 1.255 . S
Cd190 O189 2.385 . S
Cd190 O191 2.317 . S
O191 Cd190 2.317 . S
O191 C192 1.232 . S
C192 O191 1.232 . S
C192 O193 1.218 . S
O193 C192 1.218 . S
C194 O187 1.275 . S
C194 O189 1.255 . S
C195 O196 1.258 . S
C195 O197 1.256 . S
O196 Cd188 2.381 . S
O196 C195 1.258 . S
O197 Cd188 2.378 . S
O197 C195 1.256 . S
O198 Mn199 2.163 1_565 S
O198 C212 1.244 . S
Mn199 O198 2.163 1_545 S
Mn199 O202 2.160 . S
Mn199 O203 2.221 1_545 S
Mn199 O205 2.163 1_554 S
Mn199 O207 2.159 1_545 S
Mn199 O217 2.221 . S
O200 Mn201 2.087 1_565 S
O200 C212 1.256 . S
Mn201 O200 2.087 1_545 S
Mn201 O208 2.089 1_545 S
Mn201 O217 2.290 . S
Mn201 O218 2.251 . S
O202 Mn199 2.160 . S
O202 C213 1.239 . S
O203 Mn199 2.221 1_565 S
O203 Mn204 2.290 1_554 S
O203 C214 1.278 1_554 S
Mn204 O203 2.290 1_556 S
Mn204 O206 2.089 1_565 S
Mn204 O209 2.251 . S
Mn204 O210 2.087 . S
O205 Mn199 2.163 1_556 S
O205 C215 1.244 . S
O206 Mn204 2.089 1_545 S
O206 C213 1.256 1_556 S
O207 Mn199 2.159 1_565 S
O207 C216 1.239 . S
O208 Mn201 2.089 1_565 S
O208 C216 1.256 . S
O209 Mn204 2.251 . S
O209 C214 1.241 . S
O210 Mn204 2.087 . S
O210 C215 1.256 1_565 S
C211 O217 1.278 . S
C211 O218 1.241 . S
C212 O198 1.244 . S
C212 O200 1.256 . S
C213 O202 1.239 . S
C213 O206 1.256 1_554 S
C214 O203 1.278 1_556 S
C214 O209 1.241 . S
C215 O205 1.244 . S
C215 O210 1.256 1_545 S
C216 O207 1.239 . S
C216 O208 1.256 . S
O217 Mn199 2.221 . S
O217 Mn201 2.290 . S
O217 C211 1.278 . S
O218 Mn201 2.251 . S
O218 C211 1.241 . S
O219 Mn220 2.163 . S
O219 C233 1.244 . S
Mn220 O219 2.163 . S
Mn220 O223 2.160 1_455 S
Mn220 O224 2.221 . S
Mn220 O226 2.163 1_454 S
Mn220 O228 2.160 . S
Mn220 O238 2.221 1_455 S
O221 Mn222 2.087 . S
O221 C233 1.256 . S
Mn222 O221 2.087 . S
Mn222 O229 2.089 . S
Mn222 O238 2.290 1_455 S
Mn222 O239 2.251 1_455 S
O223 Mn220 2.160 1_655 S
O223 C234 1.239 . S
O224 Mn220 2.221 . S
O224 Mn225 2.290 1_554 S
O224 C235 1.278 . S
Mn225 O224 2.290 1_556 S
Mn225 O227 2.089 1_455 S
Mn225 O230 2.251 . S
Mn225 O231 2.087 . S
O226 Mn220 2.163 1_656 S
O226 C236 1.244 . S
O227 Mn225 2.089 1_655 S
O227 C234 1.256 1_556 S
O228 Mn220 2.160 . S
O228 C237 1.239 . S
O229 Mn222 2.089 . S
O229 C237 1.256 . S
O230 Mn225 2.251 . S
O230 C235 1.241 1_556 S
O231 Mn225 2.087 . S
O231 C236 1.256 1_455 S
C232 O238 1.278 . S
C232 O239 1.241 . S
C233 O219 1.244 . S
C233 O221 1.256 . S
C234 O223 1.239 . S
C234 O227 1.256 1_554 S
C235 O224 1.278 . S
C235 O230 1.241 1_554 S
C236 O226 1.244 . S
C236 O231 1.256 1_655 S
C237 O228 1.239 . S
C237 O229 1.256 . S
O238 Mn220 2.221 1_655 S
O238 Mn222 2.290 1_655 S
O238 C232 1.278 . S
O239 Mn222 2.251 1_655 S
O239 C232 1.241 . S
O240 Mn241 2.159 1_554 S
O240 C254 1.250 . S
Mn241 O240 2.159 1_556 S
Mn241 O244 2.165 . S
Mn241 O245 2.212 1_556 S
Mn241 O247 2.128 1_556 S
Mn241 O249 2.196 . S
Mn241 O259 2.233 . S
O242 Mn243 2.087 . S
O242 C254 1.246 1_556 S
Mn243 O242 2.087 . S
Mn243 O250 2.089 . S
Mn243 O259 2.290 . S
Mn243 O260 2.251 . S
O244 Mn241 2.165 . S
O244 C255 1.239 1_556 S
O245 Mn241 2.212 1_554 S
O245 Mn246 2.290 . S
O245 C256 1.278 . S
Mn246 O245 2.290 . S
Mn246 O248 2.089 . S
Mn246 O251 2.251 . S
Mn246 O252 2.087 . S
O247 Mn241 2.128 1_554 S
O247 C257 1.244 . S
O248 Mn246 2.089 . S
O248 C255 1.256 . S
O249 Mn241 2.196 . S
O249 C258 1.239 . S
O250 Mn243 2.089 . S
O250 C258 1.256 . S
O251 Mn246 2.251 . S
O251 C256 1.241 . S
O252 Mn246 2.087 . S
O252 C257 1.256 . S
C253 O259 1.270 1_554 S
C253 O260 1.235 1_554 S
C254 O240 1.250 . S
C254 O242 1.246 1_554 S
C255 O244 1.239 1_554 S
C255 O248 1.256 . S
C256 O245 1.278 . S
C256 O251 1.241 . S
C257 O247 1.244 . S
C257 O252 1.256 . S
C258 O249 1.239 . S
C258 O250 1.256 . S
O259 Mn241 2.233 . S
O259 Mn243 2.290 . S
O259 C253 1.270 1_556 S
O260 Mn243 2.251 . S
O260 C253 1.235 1_556 S
O261 Mn262 2.163 . S
O261 C275 1.244 . S
Mn262 O261 2.163 . S
Mn262 O265 2.160 . S
Mn262 O266 2.221 . S
Mn262 O268 2.163 . S
Mn262 O270 2.160 . S
Mn262 O280 2.221 . S
O263 Mn264 2.087 . S
O263 C275 1.256 . S
Mn264 O263 2.087 . S
Mn264 O271 2.089 . S
Mn264 O280 2.290 . S
Mn264 O281 2.251 . S
O265 Mn262 2.160 . S
O265 C276 1.239 . S
O266 Mn262 2.221 . S
O266 Mn267 2.290 . S
O266 C277 1.278 . S
Mn267 O266 2.290 . S
Mn267 O269 2.089 . S
Mn267 O272 2.251 . S
Mn267 O273 2.087 . S
O268 Mn262 2.163 . S
O268 C278 1.244 . S
O269 Mn267 2.089 . S
O269 C276 1.256 . S
O270 Mn262 2.160 . S
O270 C279 1.239 . S
O271 Mn264 2.089 . S
O271 C279 1.256 . S
O272 Mn267 2.251 . S
O272 C277 1.241 . S
O273 Mn267 2.087 . S
O273 C278 1.256 . S
C274 O280 1.278 . S
C274 O281 1.241 . S
C275 O261 1.244 . S
C275 O263 1.256 . S
C276 O265 1.239 . S
C276 O269 1.256 . S
C277 O266 1.278 . S
C277 O272 1.241 . S
C278 O268 1.244 . S
C278 O273 1.256 . S
C279 O270 1.239 . S
C279 O271 1.256 . S
O280 Mn262 2.221 . S
O280 Mn264 2.290 . S
O280 C274 1.278 . S
O281 Mn264 2.251 . S
O281 C274 1.241 . S
O282 Mn283 2.163 . S
O282 C296 1.244 . S
Mn283 O282 2.163 . S
Mn283 O286 2.160 . S
Mn283 O287 2.221 . S
Mn283 O289 2.163 . S
Mn283 O291 2.160 . S
Mn283 O301 2.221 . S
O284 Mn285 2.087 . S
O284 C296 1.256 . S
Mn285 O284 2.087 . S
Mn285 O292 2.089 . S
Mn285 O301 2.290 . S
Mn285 O302 2.251 . S
O286 Mn283 2.160 . S
O286 C297 1.239 . S
O287 Mn283 2.221 . S
O287 Mn288 2.290 . S
O287 C298 1.278 . S
Mn288 O287 2.290 . S
Mn288 O290 2.089 . S
Mn288 O293 2.251 . S
Mn288 O294 2.087 . S
O289 Mn283 2.163 . S
O289 C299 1.244 . S
O290 Mn288 2.089 . S
O290 C297 1.256 . S
O291 Mn283 2.160 . S
O291 C300 1.239 . S
O292 Mn285 2.089 . S
O292 C300 1.256 . S
O293 Mn288 2.251 . S
O293 C298 1.241 . S
O294 Mn288 2.087 . S
O294 C299 1.256 . S
C295 O301 1.278 . S
C295 O302 1.241 . S
C296 O282 1.244 . S
C296 O284 1.256 . S
C297 O286 1.239 . S
C297 O290 1.256 . S
C298 O287 1.278 . S
C298 O293 1.241 . S
C299 O289 1.244 . S
C299 O294 1.256 . S
C300 O291 1.239 . S
C300 O292 1.256 . S
O301 Mn283 2.221 . S
O301 Mn285 2.290 . S
O301 C295 1.278 . S
O302 Mn285 2.251 . S
O302 C295 1.241 . S
O303 Mn304 2.163 . S
O303 C317 1.244 . S
Mn304 O303 2.163 . S
Mn304 O307 2.160 . S
Mn304 O308 2.221 . S
Mn304 O310 2.163 . S
Mn304 O312 2.160 . S
Mn304 O322 2.221 . S
O305 Mn306 2.087 . S
O305 C317 1.256 . S
Mn306 O305 2.087 . S
Mn306 O313 2.089 . S
Mn306 O322 2.290 . S
Mn306 O323 2.251 . S
O307 Mn304 2.160 . S
O307 C318 1.239 . S
O308 Mn304 2.221 . S
O308 Mn309 2.290 . S
O308 C319 1.278 . S
Mn309 O308 2.290 . S
Mn309 O311 2.089 . S
Mn309 O314 2.251 . S
Mn309 O315 2.087 . S
O310 Mn304 2.163 . S
O310 C320 1.244 . S
O311 Mn309 2.089 . S
O311 C318 1.256 . S
O312 Mn304 2.160 . S
O312 C321 1.239 . S
O313 Mn306 2.089 . S
O313 C321 1.256 . S
O314 Mn309 2.251 . S
O314 C319 1.241 . S
O315 Mn309 2.087 . S
O315 C320 1.256 . S
C316 O322 1.278 . S
C316 O323 1.241 . S
C317 O303 1.244 . S
C317 O305 1.256 . S
C318 O307 1.239 . S
C318 O311 1.256 . S
C319 O308 1.278 . S
C319 O314 1.241 . S
C320 O310 1.244 . S
C320 O315 1.256 . S
C321 O312 1.239 . S
C321 O313 1.256 . S
O322 Mn304 2.221 . S
O322 Mn306 2.290 . S
O322 C316 1.278 . S
O323 Mn306 2.251 . S
O323 C316 1.241 . S
O324 Mn325 2.163 . S
O324 C338 1.244 . S
Mn325 O324 2.163 . S
Mn325 O328 2.160 . S
Mn325 O329 2.221 . S
Mn325 O331 2.163 . S
Mn325 O333 2.160 . S
Mn325 O343 2.221 . S
O326 Mn327 2.087 . S
O326 C338 1.256 . S
Mn327 O326 2.087 . S
Mn327 O334 2.089 . S
Mn327 O343 2.290 . S
Mn327 O344 2.251 . S
O328 Mn325 2.160 . S
O328 C339 1.239 . S
O329 Mn325 2.221 . S
O329 Mn330 2.290 . S
O329 C340 1.278 . S
Mn330 O329 2.290 . S
Mn330 O332 2.089 . S
Mn330 O335 2.251 . S
Mn330 O336 2.087 . S
O331 Mn325 2.163 . S
O331 C341 1.244 . S
O332 Mn330 2.089 . S
O332 C339 1.256 . S
O333 Mn325 2.160 . S
O333 C342 1.239 . S
O334 Mn327 2.089 . S
O334 C342 1.256 . S
O335 Mn330 2.251 . S
O335 C340 1.241 . S
O336 Mn330 2.087 . S
O336 C341 1.256 . S
C337 O343 1.278 . S
C337 O344 1.241 . S
C338 O324 1.244 . S
C338 O326 1.256 . S
C339 O328 1.239 . S
C339 O332 1.256 . S
C340 O329 1.278 . S
C340 O335 1.241 . S
C341 O331 1.244 . S
C341 O336 1.256 . S
C342 O333 1.239 . S
C342 O334 1.256 . S
O343 Mn325 2.221 . S
O343 Mn327 2.290 . S
O343 C337 1.278 . S
O344 Mn327 2.251 . S
O344 C337 1.241 . S
O345 Mn346 2.163 . S
O345 C359 1.244 . S
Mn346 O345 2.163 . S
Mn346 O349 2.160 . S
Mn346 O350 2.221 . S
Mn346 O352 2.163 . S
Mn346 O354 2.160 . S
Mn346 O364 2.221 . S
O347 Mn348 2.087 . S
O347 C359 1.256 . S
Mn348 O347 2.087 . S
Mn348 O355 2.089 . S
Mn348 O364 2.290 . S
Mn348 O365 2.251 . S
O349 Mn346 2.160 . S
O349 C360 1.239 . S
O350 Mn346 2.221 . S
O350 Mn351 2.290 . S
O350 C361 1.278 . S
Mn351 O350 2.290 . S
Mn351 O353 2.089 . S
Mn351 O356 2.251 . S
Mn351 O357 2.087 . S
O352 Mn346 2.163 . S
O352 C362 1.244 . S
O353 Mn351 2.089 . S
O353 C360 1.256 . S
O354 Mn346 2.160 . S
O354 C363 1.239 . S
O355 Mn348 2.089 . S
O355 C363 1.256 . S
O356 Mn351 2.251 . S
O356 C361 1.241 . S
O357 Mn351 2.087 . S
O357 C362 1.256 . S
C358 O364 1.278 . S
C358 O365 1.241 . S
C359 O345 1.244 . S
C359 O347 1.256 . S
C360 O349 1.239 . S
C360 O353 1.256 . S
C361 O350 1.278 . S
C361 O356 1.241 . S
C362 O352 1.244 . S
C362 O357 1.256 . S
C363 O354 1.239 . S
C363 O355 1.256 . S
O364 Mn346 2.221 . S
O364 Mn348 2.290 . S
O364 C358 1.278 . S
O365 Mn348 2.251 . S
O365 C358 1.241 . S
O366 Mn367 2.163 . S
O366 C380 1.244 . S
Mn367 O366 2.163 . S
Mn367 O370 2.160 . S
Mn367 O371 2.221 . S
Mn367 O373 2.163 . S
Mn367 O375 2.160 . S
Mn367 O385 2.221 . S
O368 Mn369 2.087 . S
O368 C380 1.256 . S
Mn369 O368 2.087 . S
Mn369 O376 2.089 . S
Mn369 O385 2.290 . S
Mn369 O386 2.251 . S
O370 Mn367 2.160 . S
O370 C381 1.239 . S
O371 Mn367 2.221 . S
O371 Mn372 2.290 . S
O371 C382 1.278 . S
Mn372 O371 2.290 . S
Mn372 O374 2.089 . S
Mn372 O377 2.251 . S
Mn372 O378 2.087 . S
O373 Mn367 2.163 . S
O373 C383 1.244 . S
O374 Mn372 2.089 . S
O374 C381 1.256 . S
O375 Mn367 2.160 . S
O375 C384 1.239 . S
O376 Mn369 2.089 . S
O376 C384 1.256 . S
O377 Mn372 2.251 . S
O377 C382 1.241 . S
O378 Mn372 2.087 . S
O378 C383 1.256 . S
C379 O385 1.278 . S
C379 O386 1.241 . S
C380 O366 1.244 . S
C380 O368 1.256 . S
C381 O370 1.239 . S
C381 O374 1.256 . S
C382 O371 1.278 . S
C382 O377 1.241 . S
C383 O373 1.244 . S
C383 O378 1.256 . S
C384 O375 1.239 . S
C384 O376 1.256 . S
O385 Mn367 2.221 . S
O385 Mn369 2.290 . S
O385 C379 1.278 . S
O386 Mn369 2.251 . S
O386 C379 1.241 . S
H387 C393 0.930 . S
H388 C397 0.930 . S
H389 C402 0.929 . S
H390 C400 0.929 . S
H391 C395 0.929 . S
H392 C401 0.929 . S
C393 H387 0.930 . S
C393 C394 1.367 1_554 S
C393 C401 1.378 . S
C394 C393 1.367 1_556 S
C394 C402 1.433 . S
C395 H391 0.929 . S
C395 C397 1.378 . S
C395 C399 1.350 1_556 S
C396 C399 1.463 . S
C396 C401 1.359 . S
C396 N404 1.418 1_554 S
C397 H388 0.930 . S
C397 C395 1.378 . S
C397 C398 1.367 1_556 S
C398 C397 1.367 1_554 S
C398 C400 1.433 . S
C399 C395 1.350 1_554 S
C399 C396 1.463 . S
C399 N403 1.427 . S
C400 H390 0.929 . S
C400 C398 1.433 . S
C400 N403 1.384 . S
C401 H392 0.929 . S
C401 C393 1.378 . S
C401 C396 1.359 . S
C402 H389 0.929 . S
C402 C394 1.433 . S
C402 N404 1.384 . S
N403 C399 1.427 . S
N403 C400 1.384 . S
N404 C396 1.418 1_556 S
N404 C402 1.384 . S
H405 C411 0.930 . S
H406 C415 0.930 . S
H407 C420 0.929 . S
H408 C418 0.929 . S
H409 C413 0.929 . S
H410 C419 0.929 . S
C411 H405 0.930 . S
C411 C412 1.367 1_556 S
C411 C419 1.378 . S
C412 C411 1.367 1_554 S
C412 C420 1.433 . S
C413 H409 0.929 . S
C413 C415 1.378 . S
C413 C417 1.350 . S
C414 C417 1.463 . S
C414 C419 1.350 1_554 S
C414 N422 1.427 . S
C415 H406 0.930 . S
C415 C413 1.378 . S
C415 C416 1.367 . S
C416 C415 1.367 . S
C416 C418 1.433 1_554 S
C417 C413 1.350 . S
C417 C414 1.463 . S
C417 N421 1.427 1_554 S
C418 H408 0.929 . S
C418 C416 1.433 1_556 S
C418 N421 1.384 . S
C419 H410 0.929 . S
C419 C411 1.378 . S
C419 C414 1.350 1_556 S
C420 H407 0.929 . S
C420 C412 1.433 . S
C420 N422 1.384 . S
N421 C417 1.427 1_556 S
N421 C418 1.384 . S
N422 C414 1.427 . S
N422 C420 1.384 . S
H423 C429 0.930 . S
H424 C433 0.930 . S
H425 C438 0.929 . S
H426 C436 0.929 . S
H427 C431 0.929 . S
H428 C437 0.929 . S
C429 H423 0.930 . S
C429 C430 1.367 . S
C429 C437 1.378 . S
C430 C429 1.367 . S
C430 C438 1.433 1_554 S
C431 H427 0.929 . S
C431 C433 1.378 . S
C431 C435 1.350 1_556 S
C432 C435 1.463 . S
C432 C437 1.350 . S
C432 N440 1.427 1_554 S
C433 H424 0.930 . S
C433 C431 1.378 . S
C433 C434 1.367 1_556 S
C434 C433 1.367 1_554 S
C434 C436 1.433 . S
C435 C431 1.350 1_554 S
C435 C432 1.463 . S
C435 N439 1.427 . S
C436 H426 0.929 . S
C436 C434 1.433 . S
C436 N439 1.384 . S
C437 H428 0.929 . S
C437 C429 1.378 . S
C437 C432 1.350 . S
C438 H425 0.929 . S
C438 C430 1.433 1_556 S
C438 N440 1.384 . S
N439 C435 1.427 . S
N439 C436 1.384 . S
N440 C432 1.427 1_556 S
N440 C438 1.384 . S
H441 C447 0.930 . S
H442 C451 0.930 . S
H443 C456 0.929 . S
H444 C454 0.929 . S
H445 C449 0.929 . S
H446 C455 0.929 . S
C447 H441 0.930 . S
C447 C448 1.367 . S
C447 C455 1.378 . S
C448 C447 1.367 . S
C448 C456 1.433 1_554 S
C449 H445 0.929 . S
C449 C451 1.378 . S
C449 C453 1.350 1_556 S
C450 C453 1.463 . S
C450 C455 1.350 . S
C450 N458 1.427 1_554 S
C451 H442 0.930 . S
C451 C449 1.378 . S
C451 C452 1.367 1_556 S
C452 C451 1.367 1_554 S
C452 C454 1.433 . S
C453 C449 1.350 1_554 S
C453 C450 1.463 . S
C453 N457 1.427 . S
C454 H444 0.929 . S
C454 C452 1.433 . S
C454 N457 1.384 . S
C455 H446 0.929 . S
C455 C447 1.378 . S
C455 C450 1.350 . S
C456 H443 0.929 . S
C456 C448 1.433 1_556 S
C456 N458 1.384 . S
N457 C453 1.427 . S
N457 C454 1.384 . S
N458 C450 1.427 1_556 S
N458 C456 1.384 . S
H459 C465 0.930 . S
H460 C469 0.930 . S
H461 C474 0.929 . S
H462 C472 0.929 . S
H463 C467 0.929 . S
H464 C473 0.929 . S
C465 H459 0.930 . S
C465 C466 1.367 1_556 S
C465 C473 1.378 . S
C466 C465 1.367 1_554 S
C466 C474 1.433 . S
C467 H463 0.929 . S
C467 C469 1.378 . S
C467 C471 1.350 . S
C468 C471 1.463 . S
C468 C473 1.350 1_554 S
C468 N476 1.427 . S
C469 H460 0.930 . S
C469 C467 1.378 . S
C469 C470 1.367 . S
C470 C469 1.367 . S
C470 C472 1.433 1_554 S
C471 C467 1.350 . S
C471 C468 1.463 . S
C471 N475 1.427 1_554 S
C472 H462 0.929 . S
C472 C470 1.433 1_556 S
C472 N475 1.384 . S
C473 H464 0.929 . S
C473 C465 1.378 . S
C473 C468 1.350 1_556 S
C474 H461 0.929 . S
C474 C466 1.433 . S
C474 N476 1.384 . S
N475 C471 1.427 1_556 S
N475 C472 1.384 . S
N476 C468 1.427 . S
N476 C474 1.384 . S
H477 C483 0.930 . S
H478 C487 0.930 . S
H479 C492 0.929 1_556 S
H480 C490 0.929 . S
H481 C485 0.929 . S
H482 C491 0.929 . S
C483 H477 0.930 . S
C483 C484 1.367 . S
C483 C491 1.378 . S
C484 C483 1.367 . S
C484 C492 1.433 . S
C485 H481 0.929 . S
C485 C487 1.378 . S
C485 C489 1.350 1_556 S
C486 C489 1.463 . S
C486 C491 1.350 . S
C486 N494 1.427 . S
C487 H478 0.930 . S
C487 C485 1.378 . S
C487 C488 1.367 1_556 S
C488 C487 1.367 1_554 S
C488 C490 1.433 . S
C489 C485 1.350 1_554 S
C489 C486 1.463 . S
C489 N493 1.427 . S
C490 H480 0.929 . S
C490 C488 1.433 . S
C490 N493 1.384 . S
C491 H482 0.929 . S
C491 C483 1.378 . S
C491 C486 1.350 . S
C492 H479 0.929 1_554 S
C492 C484 1.433 . S
C492 N494 1.384 . S
N493 C489 1.427 . S
N493 C490 1.384 . S
N494 C486 1.427 . S
N494 C492 1.384 . S
H495 C501 0.930 . S
H496 C505 0.930 . S
H497 C510 0.929 . S
H498 C508 0.929 . S
H499 C503 0.929 . S
H500 C509 0.929 . S
C501 H495 0.930 . S
C501 C502 1.367 . S
C501 C509 1.378 . S
C502 C501 1.367 . S
C502 C510 1.433 1_554 S
C503 H499 0.929 . S
C503 C505 1.378 . S
C503 C507 1.350 1_556 S
C504 C507 1.463 . S
C504 C509 1.350 . S
C504 N512 1.427 1_554 S
C505 H496 0.930 . S
C505 C503 1.378 . S
C505 C506 1.367 1_556 S
C506 C505 1.367 1_554 S
C506 C508 1.433 . S
C507 C503 1.350 1_554 S
C507 C504 1.463 . S
C507 N511 1.427 . S
C508 H498 0.929 . S
C508 C506 1.433 . S
C508 N511 1.384 . S
C509 H500 0.929 . S
C509 C501 1.378 . S
C509 C504 1.350 . S
C510 H497 0.929 . S
C510 C502 1.433 1_556 S
C510 N512 1.384 . S
N511 C507 1.427 . S
N511 C508 1.384 . S
N512 C504 1.427 1_556 S
N512 C510 1.384 . S
H513 C519 0.930 1_556 S
H514 C523 0.930 . S
H515 C528 0.929 . S
H516 C526 0.929 . S
H517 C521 0.929 . S
H518 C527 0.929 1_556 S
C519 H513 0.930 1_554 S
C519 C520 1.367 . S
C519 C527 1.378 . S
C520 C519 1.367 . S
C520 C528 1.433 . S
C521 H517 0.929 . S
C521 C523 1.378 . S
C521 C525 1.350 . S
C522 C525 1.463 . S
C522 C527 1.350 . S
C522 N530 1.427 . S
C523 H514 0.930 . S
C523 C521 1.378 . S
C523 C524 1.367 . S
C524 C523 1.367 . S
C524 C526 1.433 1_554 S
C525 C521 1.350 . S
C525 C522 1.463 . S
C525 N529 1.405 1_554 S
C526 H516 0.929 . S
C526 C524 1.433 1_556 S
C526 N529 1.384 . S
C527 H518 0.929 1_554 S
C527 C519 1.378 . S
C527 C522 1.350 . S
C528 H515 0.929 . S
C528 C520 1.433 . S
C528 N530 1.384 . S
N529 C525 1.405 1_556 S
N529 C526 1.384 . S
N530 C522 1.427 . S
N530 C528 1.384 . S
H531 C537 0.917 1_556 S
H532 C541 0.930 . S
H533 C546 0.929 . S
H534 C544 0.929 . S
H535 C539 0.929 . S
H536 C545 0.929 . S
C537 H531 0.917 1_554 S
C537 C538 1.386 . S
C537 C545 1.373 1_554 S
C538 C537 1.386 . S
C538 C546 1.433 . S
C539 H535 0.929 . S
C539 C541 1.378 . S
C539 C543 1.350 . S
C540 C543 1.463 . S
C540 C545 1.350 1_554 S
C540 N548 1.427 . S
C541 H532 0.930 . S
C541 C539 1.378 . S
C541 C542 1.367 . S
C542 C541 1.367 . S
C542 C544 1.433 1_554 S
C543 C539 1.350 . S
C543 C540 1.463 . S
C543 N547 1.427 1_554 S
C544 H534 0.929 . S
C544 C542 1.433 1_556 S
C544 N547 1.384 . S
C545 H536 0.929 . S
C545 C537 1.373 1_556 S
C545 C540 1.350 1_556 S
C546 H533 0.929 . S
C546 C538 1.433 . S
C546 N548 1.384 . S
N547 C543 1.427 1_556 S
N547 C544 1.384 . S
N548 C540 1.427 . S
N548 C546 1.384 . S
H549 C555 0.930 . S
H550 C559 0.930 . S
H551 C564 0.929 . S
H552 C562 0.929 . S
H553 C557 0.929 . S
H554 C563 0.929 . S
C555 H549 0.930 . S
C555 C556 1.367 1_556 S
C555 C563 1.378 . S
C556 C555 1.367 1_554 S
C556 C564 1.433 . S
C557 H553 0.929 . S
C557 C559 1.378 . S
C557 C561 1.350 . S
C558 C561 1.463 . S
C558 C563 1.350 1_554 S
C558 N566 1.427 . S
C559 H550 0.930 . S
C559 C557 1.378 . S
C559 C560 1.367 . S
C560 C559 1.367 . S
C560 C562 1.433 1_554 S
C561 C557 1.350 . S
C561 C558 1.463 . S
C561 N565 1.427 1_554 S
C562 H552 0.929 . S
C562 C560 1.433 1_556 S
C562 N565 1.384 . S
C563 H554 0.929 . S
C563 C555 1.378 . S
C563 C558 1.350 1_556 S
C564 H551 0.929 . S
C564 C556 1.433 . S
C564 N566 1.384 . S
N565 C561 1.427 1_556 S
N565 C562 1.384 . S
N566 C558 1.427 . S
N566 C564 1.384 . S
H567 C573 0.930 . S
H568 C577 0.930 . S
H569 C582 0.929 . S
H570 C580 0.929 . S
H571 C575 0.929 . S
H572 C581 0.929 . S
C573 H567 0.930 . S
C573 C574 1.367 1_554 S
C573 C581 1.378 . S
C574 C573 1.367 1_556 S
C574 C582 1.433 . S
C575 H571 0.929 . S
C575 C577 1.378 . S
C575 C579 1.350 . S
C576 C579 1.463 . S
C576 C581 1.350 1_556 S
C576 N584 1.427 . S
C577 H568 0.930 . S
C577 C575 1.378 . S
C577 C578 1.367 . S
C578 C577 1.367 . S
C578 C580 1.433 1_556 S
C579 C575 1.350 . S
C579 C576 1.463 . S
C579 N583 1.427 1_556 S
C580 H570 0.929 . S
C580 C578 1.433 1_554 S
C580 N583 1.384 . S
C581 H572 0.929 . S
C581 C573 1.378 . S
C581 C576 1.350 1_554 S
C582 H569 0.929 . S
C582 C574 1.433 . S
C582 N584 1.384 . S
N583 C579 1.427 1_554 S
N583 C580 1.384 . S
N584 C576 1.427 . S
N584 C582 1.384 . S
H585 C591 0.930 . S
H586 C595 0.930 . S
H587 C600 0.929 . S
H588 C598 0.929 . S
H589 C593 0.929 . S
H590 C599 0.929 . S
C591 H585 0.930 . S
C591 C592 1.367 . S
C591 C599 1.378 . S
C592 C591 1.367 . S
C592 C600 1.433 1_554 S
C593 H589 0.929 . S
C593 C595 1.378 . S
C593 C597 1.350 1_556 S
C594 C597 1.463 . S
C594 C599 1.350 . S
C594 N602 1.427 1_554 S
C595 H586 0.930 . S
C595 C593 1.378 . S
C595 C596 1.367 1_556 S
C596 C595 1.367 1_554 S
C596 C598 1.433 . S
C597 C593 1.350 1_554 S
C597 C594 1.463 . S
C597 N601 1.427 . S
C598 H588 0.929 . S
C598 C596 1.433 . S
C598 N601 1.384 . S
C599 H590 0.929 . S
C599 C591 1.378 . S
C599 C594 1.350 . S
C600 H587 0.929 . S
C600 C592 1.433 1_556 S
C600 N602 1.384 . S
N601 C597 1.427 . S
N601 C598 1.384 . S
N602 C594 1.427 1_556 S
N602 C600 1.384 . S
H603 C609 0.930 . S
H604 C613 0.930 . S
H605 C618 0.929 . S
H606 C616 0.929 . S
H607 C611 0.929 . S
H608 C617 0.929 . S
C609 H603 0.930 . S
C609 C610 1.367 . S
C609 C617 1.378 1_655 S
C610 C609 1.367 . S
C610 C618 1.433 . S
C611 H607 0.929 . S
C611 C613 1.378 . S
C611 C615 1.350 . S
C612 C615 1.463 . S
C612 C617 1.350 . S
C612 N620 1.427 . S
C613 H604 0.930 . S
C613 C611 1.378 . S
C613 C614 1.367 . S
C614 C613 1.367 . S
C614 C616 1.433 . S
C615 C611 1.350 . S
C615 C612 1.463 . S
C615 N619 1.427 . S
C616 H606 0.929 . S
C616 C614 1.433 . S
C616 N619 1.384 . S
C617 H608 0.929 . S
C617 C609 1.378 1_455 S
C617 C612 1.350 . S
C618 H605 0.929 . S
C618 C610 1.433 . S
C618 N620 1.384 1_655 S
N619 C615 1.427 . S
N619 C616 1.384 . S
N620 C612 1.427 . S
N620 C618 1.384 1_455 S
H621 C627 0.930 . S
H622 C631 0.930 . S
H623 C636 0.929 . S
H624 C634 0.929 . S
H625 C629 0.929 . S
H626 C635 0.929 . S
C627 H621 0.930 . S
C627 C628 1.367 . S
C627 C635 1.378 . S
C628 C627 1.367 . S
C628 C636 1.433 . S
C629 H625 0.929 . S
C629 C631 1.378 . S
C629 C633 1.350 . S
C630 C633 1.463 . S
C630 C635 1.350 . S
C630 N638 1.427 . S
C631 H622 0.930 . S
C631 C629 1.378 . S
C631 C632 1.367 . S
C632 C631 1.367 . S
C632 C634 1.433 . S
C633 C629 1.350 . S
C633 C630 1.463 . S
C633 N637 1.427 . S
C634 H624 0.929 . S
C634 C632 1.433 . S
C634 N637 1.384 . S
C635 H626 0.929 . S
C635 C627 1.378 . S
C635 C630 1.350 . S
C636 H623 0.929 . S
C636 C628 1.433 . S
C636 N638 1.384 . S
N637 C633 1.427 . S
N637 C634 1.384 . S
N638 C630 1.427 . S
N638 C636 1.384 . S
H639 C645 0.930 . S
H640 C649 0.930 . S
H641 C654 0.929 . S
H642 C652 0.929 . S
H643 C647 0.929 . S
H644 C653 0.929 . S
C645 H639 0.930 . S
C645 C646 1.367 . S
C645 C653 1.378 1_545 S
C646 C645 1.367 . S
C646 C654 1.433 . S
C647 H643 0.929 . S
C647 C649 1.378 . S
C647 C651 1.350 . S
C648 C651 1.463 . S
C648 C653 1.350 . S
C648 N656 1.427 1_565 S
C649 H640 0.930 . S
C649 C647 1.378 . S
C649 C650 1.367 . S
C650 C649 1.367 . S
C650 C652 1.433 . S
C651 C647 1.350 . S
C651 C648 1.463 . S
C651 N655 1.427 . S
C652 H642 0.929 . S
C652 C650 1.433 . S
C652 N655 1.384 . S
C653 H644 0.929 . S
C653 C645 1.378 1_565 S
C653 C648 1.350 . S
C654 H641 0.929 . S
C654 C646 1.433 . S
C654 N656 1.384 . S
N655 C651 1.427 . S
N655 C652 1.384 . S
N656 C648 1.427 1_545 S
N656 C654 1.384 . S
H657 C663 0.930 . S
H658 C667 0.930 . S
H659 C672 0.929 . S
H660 C670 0.929 . S
H661 C665 0.929 . S
H662 C671 0.929 . S
C663 H657 0.930 . S
C663 C664 1.367 . S
C663 C671 1.378 . S
C664 C663 1.367 . S
C664 C672 1.433 . S
C665 H661 0.929 . S
C665 C667 1.378 . S
C665 C669 1.350 . S
C666 C669 1.463 . S
C666 C671 1.350 . S
C666 N674 1.427 . S
C667 H658 0.930 . S
C667 C665 1.378 . S
C667 C668 1.367 . S
C668 C667 1.367 . S
C668 C670 1.433 . S
C669 C665 1.350 . S
C669 C666 1.463 . S
C669 N673 1.427 . S
C670 H660 0.929 . S
C670 C668 1.433 . S
C670 N673 1.384 . S
C671 H662 0.929 . S
C671 C663 1.378 . S
C671 C666 1.350 . S
C672 H659 0.929 . S
C672 C664 1.433 . S
C672 N674 1.384 . S
N673 C669 1.427 . S
N673 C670 1.384 . S
N674 C666 1.427 . S
N674 C672 1.384 . S
H675 C681 0.930 . S
H676 C685 0.930 . S
H677 C690 0.929 . S
H678 C688 0.929 . S
H679 C683 0.929 . S
H680 C689 0.929 . S
C681 H675 0.930 . S
C681 C682 1.367 . S
C681 C689 1.378 . S
C682 C681 1.367 . S
C682 C690 1.433 . S
C683 H679 0.929 . S
C683 C685 1.378 . S
C683 C687 1.350 . S
C684 C687 1.463 . S
C684 C689 1.350 . S
C684 N692 1.427 . S
C685 H676 0.930 . S
C685 C683 1.378 . S
C685 C686 1.367 . S
C686 C685 1.367 . S
C686 C688 1.433 . S
C687 C683 1.350 . S
C687 C684 1.463 . S
C687 N691 1.427 . S
C688 H678 0.929 . S
C688 C686 1.433 . S
C688 N691 1.384 . S
C689 H680 0.929 . S
C689 C681 1.378 . S
C689 C684 1.350 . S
C690 H677 0.929 . S
C690 C682 1.433 . S
C690 N692 1.384 . S
N691 C687 1.427 . S
N691 C688 1.384 . S
N692 C684 1.427 . S
N692 C690 1.384 . S
H693 C699 0.930 . S
H694 C703 0.930 . S
H695 C708 0.929 . S
H696 C706 0.929 . S
H697 C701 0.929 . S
H698 C707 0.929 . S
C699 H693 0.930 . S
C699 C700 1.367 . S
C699 C707 1.378 . S
C700 C699 1.367 . S
C700 C708 1.433 . S
C701 H697 0.929 . S
C701 C703 1.378 . S
C701 C705 1.350 . S
C702 C705 1.463 . S
C702 C707 1.350 . S
C702 N710 1.427 . S
C703 H694 0.930 . S
C703 C701 1.378 . S
C703 C704 1.367 . S
C704 C703 1.367 . S
C704 C706 1.433 . S
C705 C701 1.350 . S
C705 C702 1.463 . S
C705 N709 1.427 . S
C706 H696 0.929 . S
C706 C704 1.433 . S
C706 N709 1.384 . S
C707 H698 0.929 . S
C707 C699 1.378 . S
C707 C702 1.350 . S
C708 H695 0.929 . S
C708 C700 1.433 . S
C708 N710 1.384 . S
N709 C705 1.427 . S
N709 C706 1.384 . S
N710 C702 1.427 . S
N710 C708 1.384 . S
H711 C717 0.930 . S
H712 C721 0.930 . S
H713 C726 0.929 . S
H714 C724 0.929 . S
H715 C719 0.929 . S
H716 C725 0.929 . S
C717 H711 0.930 . S
C717 C718 1.367 . S
C717 C725 1.378 . S
C718 C717 1.367 . S
C718 C726 1.433 . S
C719 H715 0.929 . S
C719 C721 1.378 . S
C719 C723 1.350 . S
C720 C723 1.463 . S
C720 C725 1.350 . S
C720 N728 1.427 . S
C721 H712 0.930 . S
C721 C719 1.378 . S
C721 C722 1.367 . S
C722 C721 1.367 . S
C722 C724 1.433 . S
C723 C719 1.350 . S
C723 C720 1.463 . S
C723 N727 1.427 . S
C724 H714 0.929 . S
C724 C722 1.433 . S
C724 N727 1.384 . S
C725 H716 0.929 . S
C725 C717 1.378 . S
C725 C720 1.350 . S
C726 H713 0.929 . S
C726 C718 1.433 . S
C726 N728 1.384 . S
N727 C723 1.427 . S
N727 C724 1.384 . S
N728 C720 1.427 . S
N728 C726 1.384 . S
H729 C735 0.930 . S
H730 C739 0.930 . S
H731 C744 0.929 . S
H732 C742 0.929 . S
H733 C737 0.929 . S
H734 C743 0.929 . S
C735 H729 0.930 . S
C735 C736 1.367 . S
C735 C743 1.378 . S
C736 C735 1.367 . S
C736 C744 1.433 . S
C737 H733 0.929 . S
C737 C739 1.378 . S
C737 C741 1.350 . S
C738 C741 1.463 . S
C738 C743 1.350 . S
C738 N746 1.427 . S
C739 H730 0.930 . S
C739 C737 1.378 . S
C739 C740 1.367 . S
C740 C739 1.367 . S
C740 C742 1.433 . S
C741 C737 1.350 . S
C741 C738 1.463 . S
C741 N745 1.427 . S
C742 H732 0.929 . S
C742 C740 1.433 . S
C742 N745 1.384 . S
C743 H734 0.929 . S
C743 C735 1.378 . S
C743 C738 1.350 . S
C744 H731 0.929 . S
C744 C736 1.433 . S
C744 N746 1.384 . S
N745 C741 1.427 . S
N745 C742 1.384 . S
N746 C738 1.427 . S
N746 C744 1.384 . S
H747 C753 0.930 . S
H748 C757 0.930 . S
H749 C762 0.929 . S
H750 C760 0.929 . S
H751 C755 0.929 . S
H752 C761 0.929 . S
C753 H747 0.930 . S
C753 C754 1.367 . S
C753 C761 1.378 . S
C754 C753 1.367 . S
C754 C762 1.433 . S
C755 H751 0.929 . S
C755 C757 1.378 . S
C755 C759 1.350 . S
C756 C759 1.463 . S
C756 C761 1.350 . S
C756 N764 1.427 . S
C757 H748 0.930 . S
C757 C755 1.378 . S
C757 C758 1.367 . S
C758 C757 1.367 . S
C758 C760 1.433 . S
C759 C755 1.350 . S
C759 C756 1.463 . S
C759 N763 1.427 . S
C760 H750 0.929 . S
C760 C758 1.433 . S
C760 N763 1.384 . S
C761 H752 0.929 . S
C761 C753 1.378 . S
C761 C756 1.350 . S
C762 H749 0.929 . S
C762 C754 1.433 . S
C762 N764 1.384 . S
N763 C759 1.427 . S
N763 C760 1.384 . S
N764 C756 1.427 . S
N764 C762 1.384 . S
H765 C771 0.930 . S
H766 C775 0.930 . S
H767 C780 0.929 . S
H768 C778 0.929 . S
H769 C773 0.929 . S
H770 C779 0.929 . S
C771 H765 0.930 . S
C771 C772 1.367 . S
C771 C779 1.378 1_545 S
C772 C771 1.367 . S
C772 C780 1.433 . S
C773 H769 0.929 . S
C773 C775 1.378 . S
C773 C777 1.350 . S
C774 C777 1.463 . S
C774 C779 1.350 . S
C774 N782 1.427 . S
C775 H766 0.930 . S
C775 C773 1.378 . S
C775 C776 1.367 . S
C776 C775 1.367 . S
C776 C778 1.433 . S
C777 C773 1.350 . S
C777 C774 1.463 . S
C777 N781 1.427 . S
C778 H768 0.929 . S
C778 C776 1.433 . S
C778 N781 1.384 . S
C779 H770 0.929 . S
C779 C771 1.378 1_565 S
C779 C774 1.350 . S
C780 H767 0.929 . S
C780 C772 1.433 . S
C780 N782 1.384 1_545 S
N781 C777 1.427 . S
N781 C778 1.384 . S
N782 C774 1.427 . S
N782 C780 1.384 1_565 S
H783 C789 0.930 . S
H784 C793 0.930 . S
H785 C798 0.929 . S
H786 C796 0.929 . S
H787 C791 0.929 . S
H788 C797 0.929 . S
C789 H783 0.930 . S
C789 C790 1.367 . S
C789 C797 1.378 1_655 S
C790 C789 1.367 . S
C790 C798 1.433 . S
C791 H787 0.929 . S
C791 C793 1.378 . S
C791 C795 1.350 . S
C792 C795 1.463 . S
C792 C797 1.350 . S
C792 N800 1.427 . S
C793 H784 0.930 . S
C793 C791 1.378 . S
C793 C794 1.367 . S
C794 C793 1.367 . S
C794 C796 1.433 . S
C795 C791 1.350 . S
C795 C792 1.463 . S
C795 N799 1.427 . S
C796 H786 0.929 . S
C796 C794 1.433 . S
C796 N799 1.384 . S
C797 H788 0.929 . S
C797 C789 1.378 1_455 S
C797 C792 1.350 . S
C798 H785 0.929 . S
C798 C790 1.433 . S
C798 N800 1.384 1_655 S
N799 C795 1.427 . S
N799 C796 1.384 . S
N800 C792 1.427 . S
N800 C798 1.384 1_455 S
H801 C807 0.930 . S
H802 C811 0.930 . S
H803 C816 0.929 . S
H804 C814 0.929 . S
H805 C809 0.929 . S
H806 C815 0.929 . S
C807 H801 0.930 . S
C807 C808 1.367 . S
C807 C815 1.378 . S
C808 C807 1.367 . S
C808 C816 1.433 . S
C809 H805 0.929 . S
C809 C811 1.378 . S
C809 C813 1.350 . S
C810 C813 1.463 . S
C810 C815 1.350 . S
C810 N818 1.427 . S
C811 H802 0.930 . S
C811 C809 1.378 . S
C811 C812 1.367 . S
C812 C811 1.367 . S
C812 C814 1.433 . S
C813 C809 1.350 . S
C813 C810 1.463 . S
C813 N817 1.427 . S
C814 H804 0.929 . S
C814 C812 1.433 . S
C814 N817 1.384 . S
C815 H806 0.929 . S
C815 C807 1.378 . S
C815 C810 1.350 . S
C816 H803 0.929 . S
C816 C808 1.433 . S
C816 N818 1.384 . S
N817 C813 1.427 . S
N817 C814 1.384 . S
N818 C810 1.427 . S
N818 C816 1.384 . S
H819 C825 0.930 . S
H820 C829 0.930 . S
H821 C834 0.929 . S
H822 C832 0.929 . S
H823 C827 0.929 . S
H824 C833 0.929 . S
C825 H819 0.930 . S
C825 C826 1.367 . S
C825 C833 1.378 . S
C826 C825 1.367 . S
C826 C834 1.433 . S
C827 H823 0.929 . S
C827 C829 1.378 . S
C827 C831 1.350 . S
C828 C831 1.463 . S
C828 C833 1.350 . S
C828 N836 1.427 . S
C829 H820 0.930 . S
C829 C827 1.378 . S
C829 C830 1.367 . S
C830 C829 1.367 . S
C830 C832 1.433 . S
C831 C827 1.350 . S
C831 C828 1.463 . S
C831 N835 1.427 . S
C832 H822 0.929 . S
C832 C830 1.433 . S
C832 N835 1.384 . S
C833 H824 0.929 . S
C833 C825 1.378 . S
C833 C828 1.350 . S
C834 H821 0.929 . S
C834 C826 1.433 . S
C834 N836 1.384 . S
N835 C831 1.427 . S
N835 C832 1.384 . S
N836 C828 1.427 . S
N836 C834 1.384 . S
H837 C843 0.930 . S
H838 C847 0.930 . S
H839 C852 0.929 . S
H840 C850 0.929 . S
H841 C845 0.929 . S
H842 C851 0.929 . S
C843 H837 0.930 . S
C843 C844 1.367 . S
C843 C851 1.378 . S
C844 C843 1.367 . S
C844 C852 1.433 . S
C845 H841 0.929 . S
C845 C847 1.378 . S
C845 C849 1.350 . S
C846 C849 1.463 . S
C846 C851 1.350 . S
C846 N854 1.427 . S
C847 H838 0.930 . S
C847 C845 1.378 . S
C847 C848 1.367 . S
C848 C847 1.367 . S
C848 C850 1.433 . S
C849 C845 1.350 . S
C849 C846 1.463 . S
C849 N853 1.427 . S
C850 H840 0.929 . S
C850 C848 1.433 . S
C850 N853 1.384 . S
C851 H842 0.929 . S
C851 C843 1.378 . S
C851 C846 1.350 . S
C852 H839 0.929 . S
C852 C844 1.433 . S
C852 N854 1.384 . S
N853 C849 1.427 . S
N853 C850 1.384 . S
N854 C846 1.427 . S
N854 C852 1.384 . S
H855 C861 0.930 . S
H856 C865 0.930 . S
H857 C870 0.929 . S
H858 C868 0.929 . S
H859 C863 0.929 . S
H860 C869 0.929 . S
C861 H855 0.930 . S
C861 C862 1.367 . S
C861 C869 1.378 . S
C862 C861 1.367 . S
C862 C870 1.433 . S
C863 H859 0.929 . S
C863 C865 1.378 . S
C863 C867 1.350 . S
C864 C867 1.463 . S
C864 C869 1.350 . S
C864 N872 1.427 . S
C865 H856 0.930 . S
C865 C863 1.378 . S
C865 C866 1.367 . S
C866 C865 1.367 . S
C866 C868 1.433 . S
C867 C863 1.350 . S
C867 C864 1.463 . S
C867 N871 1.427 . S
C868 H858 0.929 . S
C868 C866 1.433 . S
C868 N871 1.384 . S
C869 H860 0.929 . S
C869 C861 1.378 . S
C869 C864 1.350 . S
C870 H857 0.929 . S
C870 C862 1.433 . S
C870 N872 1.384 . S
N871 C867 1.427 . S
N871 C868 1.384 . S
N872 C864 1.427 . S
N872 C870 1.384 . S
H873 C879 0.930 . S
H874 C883 0.930 . S
H875 C888 0.929 . S
H876 C886 0.929 . S
H877 C881 0.929 . S
H878 C887 0.929 1_545 S
C879 H873 0.930 . S
C879 C880 1.367 . S
C879 C887 1.378 . S
C880 C879 1.367 . S
C880 C888 1.433 . S
C881 H877 0.929 . S
C881 C883 1.378 . S
C881 C885 1.350 . S
C882 C885 1.463 . S
C882 C887 1.350 1_545 S
C882 N890 1.427 . S
C883 H874 0.930 . S
C883 C881 1.378 . S
C883 C884 1.367 . S
C884 C883 1.367 . S
C884 C886 1.433 . S
C885 C881 1.350 . S
C885 C882 1.463 . S
C885 N889 1.427 . S
C886 H876 0.929 . S
C886 C884 1.433 . S
C886 N889 1.384 . S
C887 H878 0.929 1_565 S
C887 C879 1.378 . S
C887 C882 1.350 1_565 S
C888 H875 0.929 . S
C888 C880 1.433 . S
C888 N890 1.384 1_565 S
N889 C885 1.427 . S
N889 C886 1.384 . S
N890 C882 1.427 . S
N890 C888 1.384 1_545 S
H891 C897 0.930 . S
H892 C901 0.930 . S
H893 C906 0.929 . S
H894 C904 0.929 . S
H895 C899 0.929 . S
H896 C905 0.922 1_655 S
C897 H891 0.930 . S
C897 C898 1.367 . S
C897 C905 1.378 . S
C898 C897 1.367 . S
C898 C906 1.433 . S
C899 H895 0.929 . S
C899 C901 1.378 . S
C899 C903 1.350 . S
C900 C903 1.463 1_455 S
C900 C905 1.350 . S
C900 N908 1.427 . S
C901 H892 0.930 . S
C901 C899 1.378 . S
C901 C902 1.367 . S
C902 C901 1.367 . S
C902 C904 1.433 . S
C903 C899 1.350 . S
C903 C900 1.463 1_655 S
C903 N907 1.427 . S
C904 H894 0.929 . S
C904 C902 1.433 . S
C904 N907 1.384 . S
C905 H896 0.922 1_455 S
C905 C897 1.378 . S
C905 C900 1.350 . S
C906 H893 0.929 . S
C906 C898 1.433 . S
C906 N908 1.384 . S
N907 C903 1.427 . S
N907 C904 1.384 . S
N908 C900 1.427 . S
N908 C906 1.384 . S
H909 C915 0.930 . S
H910 C919 0.930 . S
H911 C924 0.929 . S
H912 C922 0.929 . S
H913 C917 0.929 . S
H914 C923 0.929 . S
C915 H909 0.930 . S
C915 C916 1.367 . S
C915 C923 1.378 . S
C916 C915 1.367 . S
C916 C924 1.433 . S
C917 H913 0.929 . S
C917 C919 1.378 . S
C917 C921 1.350 . S
C918 C921 1.463 . S
C918 C923 1.350 . S
C918 N926 1.427 . S
C919 H910 0.930 . S
C919 C917 1.378 . S
C919 C920 1.367 . S
C920 C919 1.367 . S
C920 C922 1.433 . S
C921 C917 1.350 . S
C921 C918 1.463 . S
C921 N925 1.427 . S
C922 H912 0.929 . S
C922 C920 1.433 . S
C922 N925 1.384 . S
C923 H914 0.929 . S
C923 C915 1.378 . S
C923 C918 1.350 . S
C924 H911 0.929 . S
C924 C916 1.433 . S
C924 N926 1.384 . S
N925 C921 1.427 . S
N925 C922 1.384 . S
N926 C918 1.427 . S
N926 C924 1.384 . S
H927 C933 0.930 . S
H928 C937 0.930 . S
H929 C942 0.929 . S
H930 C940 0.929 . S
H931 C935 0.929 . S
H932 C941 0.944 . S
C933 H927 0.930 . S
C933 C934 1.367 . S
C933 C941 1.361 1_455 S
C934 C933 1.367 . S
C934 C942 1.433 . S
C935 H931 0.929 . S
C935 C937 1.378 . S
C935 C939 1.350 . S
C936 C939 1.463 . S
C936 C941 1.351 . S
C936 N944 1.427 1_655 S
C937 H928 0.930 . S
C937 C935 1.378 . S
C937 C938 1.367 . S
C938 C937 1.367 . S
C938 C940 1.433 . S
C939 C935 1.350 . S
C939 C936 1.463 . S
C939 N943 1.427 . S
C940 H930 0.929 . S
C940 C938 1.433 . S
C940 N943 1.384 . S
C941 H932 0.944 . S
C941 C933 1.361 1_655 S
C941 C936 1.351 . S
C942 H929 0.929 . S
C942 C934 1.433 . S
C942 N944 1.384 . S
N943 C939 1.427 . S
N943 C940 1.384 . S
N944 C936 1.427 1_455 S
N944 C942 1.384 . S
H945 C951 0.930 . S
H946 C955 0.930 . S
H947 C960 0.929 . S
H948 C958 0.929 . S
H949 C953 0.929 . S
H950 C959 0.929 . S
C951 H945 0.930 . S
C951 C952 1.367 . S
C951 C959 1.378 . S
C952 C951 1.367 . S
C952 C960 1.433 . S
C953 H949 0.929 . S
C953 C955 1.378 . S
C953 C957 1.350 . S
C954 C957 1.463 . S
C954 C959 1.350 . S
C954 N962 1.427 . S
C955 H946 0.930 . S
C955 C953 1.378 . S
C955 C956 1.367 . S
C956 C955 1.367 . S
C956 C958 1.433 . S
C957 C953 1.350 . S
C957 C954 1.463 . S
C957 N961 1.427 . S
C958 H948 0.929 . S
C958 C956 1.433 . S
C958 N961 1.384 . S
C959 H950 0.929 . S
C959 C951 1.378 . S
C959 C954 1.350 . S
C960 H947 0.929 . S
C960 C952 1.433 . S
C960 N962 1.384 . S
N961 C957 1.427 . S
N961 C958 1.384 . S
N962 C954 1.427 . S
N962 C960 1.384 . S
H963 C969 0.930 . S
H964 C973 0.930 . S
H965 C978 0.929 . S
H966 C976 0.929 . S
H967 C971 0.929 . S
H968 C977 0.929 . S
C969 H963 0.930 . S
C969 C970 1.367 . S
C969 C977 1.378 1_565 S
C970 C969 1.367 . S
C970 C978 1.433 . S
C971 H967 0.929 . S
C971 C973 1.378 . S
C971 C975 1.350 . S
C972 C975 1.463 . S
C972 C977 1.350 . S
C972 N980 1.427 . S
C973 H964 0.930 . S
C973 C971 1.378 . S
C973 C974 1.367 . S
C974 C973 1.367 . S
C974 C976 1.433 . S
C975 C971 1.350 . S
C975 C972 1.463 . S
C975 N979 1.427 . S
C976 H966 0.929 . S
C976 C974 1.433 . S
C976 N979 1.384 . S
C977 H968 0.929 . S
C977 C969 1.378 1_545 S
C977 C972 1.350 . S
C978 H965 0.929 . S
C978 C970 1.433 . S
C978 N980 1.384 1_565 S
N979 C975 1.427 . S
N979 C976 1.384 . S
N980 C972 1.427 . S
N980 C978 1.384 1_545 S
H981 C987 0.930 . S
H982 C991 0.930 . S
H983 C996 0.929 . S
H984 C994 0.929 . S
H985 C989 0.929 . S
H986 C995 0.929 . S
C987 H981 0.930 . S
C987 C988 1.367 . S
C987 C995 1.378 . S
C988 C987 1.367 . S
C988 C996 1.433 . S
C989 H985 0.929 . S
C989 C991 1.378 . S
C989 C993 1.350 . S
C990 C993 1.463 . S
C990 C995 1.350 . S
C990 N998 1.427 . S
C991 H982 0.930 . S
C991 C989 1.378 . S
C991 C992 1.367 . S
C992 C991 1.367 . S
C992 C994 1.433 . S
C993 C989 1.350 . S
C993 C990 1.463 . S
C993 N997 1.427 . S
C994 H984 0.929 . S
C994 C992 1.433 . S
C994 N997 1.384 . S
C995 H986 0.929 . S
C995 C987 1.378 . S
C995 C990 1.350 . S
C996 H983 0.929 . S
C996 C988 1.433 . S
C996 N998 1.384 . S
N997 C993 1.427 . S
N997 C994 1.384 . S
N998 C990 1.427 . S
N998 C996 1.384 . S
H999 C1005 0.930 . S
H1000 C1009 0.930 . S
H1001 C1014 0.929 . S
H1002 C1012 0.929 . S
H1003 C1007 0.929 . S
H1004 C1013 0.929 . S
C1005 H999 0.930 . S
C1005 C1006 1.367 . S
C1005 C1013 1.378 . S
C1006 C1005 1.367 . S
C1006 C1014 1.433 . S
C1007 H1003 0.929 . S
C1007 C1009 1.378 . S
C1007 C1011 1.350 . S
C1008 C1011 1.463 . S
C1008 C1013 1.350 . S
C1008 N1016 1.427 . S
C1009 H1000 0.930 . S
C1009 C1007 1.378 . S
C1009 C1010 1.367 . S
C1010 C1009 1.367 . S
C1010 C1012 1.433 . S
C1011 C1007 1.350 . S
C1011 C1008 1.463 . S
C1011 N1015 1.427 . S
C1012 H1002 0.929 . S
C1012 C1010 1.433 . S
C1012 N1015 1.384 . S
C1013 H1004 0.929 . S
C1013 C1005 1.378 . S
C1013 C1008 1.350 . S
C1014 H1001 0.929 . S
C1014 C1006 1.433 . S
C1014 N1016 1.384 . S
N1015 C1011 1.427 . S
N1015 C1012 1.384 . S
N1016 C1008 1.427 . S
N1016 C1014 1.384 . S
H1017 C1023 0.930 . S
H1018 C1027 0.930 . S
H1019 C1032 0.929 . S
H1020 C1030 0.929 . S
H1021 C1025 0.929 . S
H1022 C1031 0.929 . S
C1023 H1017 0.930 . S
C1023 C1024 1.367 . S
C1023 C1031 1.378 . S
C1024 C1023 1.367 . S
C1024 C1032 1.433 . S
C1025 H1021 0.929 . S
C1025 C1027 1.378 . S
C1025 C1029 1.350 . S
C1026 C1029 1.463 . S
C1026 C1031 1.350 . S
C1026 N1034 1.427 . S
C1027 H1018 0.930 . S
C1027 C1025 1.378 . S
C1027 C1028 1.367 . S
C1028 C1027 1.367 . S
C1028 C1030 1.433 . S
C1029 C1025 1.350 . S
C1029 C1026 1.463 . S
C1029 N1033 1.427 . S
C1030 H1020 0.929 . S
C1030 C1028 1.433 . S
C1030 N1033 1.384 . S
C1031 H1022 0.929 . S
C1031 C1023 1.378 . S
C1031 C1026 1.350 . S
C1032 H1019 0.929 . S
C1032 C1024 1.433 . S
C1032 N1034 1.384 . S
N1033 C1029 1.427 . S
N1033 C1030 1.384 . S
N1034 C1026 1.427 . S
N1034 C1032 1.384 . S
H1035 C1041 0.930 . S
H1036 C1045 0.930 . S
H1037 C1050 0.929 . S
H1038 C1048 0.929 . S
H1039 C1043 0.929 . S
H1040 C1049 0.929 . S
C1041 H1035 0.930 . S
C1041 C1042 1.367 . S
C1041 C1049 1.378 . S
C1042 C1041 1.367 . S
C1042 C1050 1.433 . S
C1043 H1039 0.929 . S
C1043 C1045 1.378 . S
C1043 C1047 1.350 . S
C1044 C1047 1.463 . S
C1044 C1049 1.350 . S
C1044 N1052 1.427 . S
C1045 H1036 0.930 . S
C1045 C1043 1.378 . S
C1045 C1046 1.367 . S
C1046 C1045 1.367 . S
C1046 C1048 1.433 1_565 S
C1047 C1043 1.350 . S
C1047 C1044 1.463 . S
C1047 N1051 1.427 . S
C1048 H1038 0.929 . S
C1048 C1046 1.433 1_545 S
C1048 N1051 1.384 1_545 S
C1049 H1040 0.929 . S
C1049 C1041 1.378 . S
C1049 C1044 1.350 . S
C1050 H1037 0.929 . S
C1050 C1042 1.433 . S
C1050 N1052 1.384 . S
N1051 C1047 1.427 . S
N1051 C1048 1.384 1_565 S
N1052 C1044 1.427 . S
N1052 C1050 1.384 . S
H1053 C1059 0.930 . S
H1054 C1063 0.912 1_655 S
H1055 C1068 0.929 . S
H1056 C1066 0.929 . S
H1057 C1061 0.929 . S
H1058 C1067 0.929 . S
C1059 H1053 0.930 . S
C1059 C1060 1.367 . S
C1059 C1067 1.378 . S
C1060 C1059 1.367 . S
C1060 C1068 1.433 . S
C1061 H1057 0.929 . S
C1061 C1063 1.378 . S
C1061 C1065 1.350 . S
C1062 C1065 1.463 . S
C1062 C1067 1.350 . S
C1062 N1070 1.427 . S
C1063 H1054 0.912 1_455 S
C1063 C1061 1.378 . S
C1063 C1064 1.367 . S
C1064 C1063 1.367 . S
C1064 C1066 1.433 . S
C1065 C1061 1.350 . S
C1065 C1062 1.463 . S
C1065 N1069 1.427 . S
C1066 H1056 0.929 . S
C1066 C1064 1.433 . S
C1066 N1069 1.384 . S
C1067 H1058 0.929 . S
C1067 C1059 1.378 . S
C1067 C1062 1.350 . S
C1068 H1055 0.929 . S
C1068 C1060 1.433 . S
C1068 N1070 1.384 . S
N1069 C1065 1.427 . S
N1069 C1066 1.384 . S
N1070 C1062 1.427 . S
N1070 C1068 1.384 . S
H1071 C1077 0.930 . S
H1072 C1081 0.930 . S
H1073 C1086 0.929 . S
H1074 C1084 0.929 . S
H1075 C1079 0.929 . S
H1076 C1085 0.929 . S
C1077 H1071 0.930 . S
C1077 C1078 1.367 . S
C1077 C1085 1.378 . S
C1078 C1077 1.367 . S
C1078 C1086 1.433 . S
C1079 H1075 0.929 . S
C1079 C1081 1.378 . S
C1079 C1083 1.350 . S
C1080 C1083 1.463 . S
C1080 C1085 1.350 . S
C1080 N1088 1.427 . S
C1081 H1072 0.930 . S
C1081 C1079 1.378 . S
C1081 C1082 1.367 . S
C1082 C1081 1.367 . S
C1082 C1084 1.433 . S
C1083 C1079 1.350 . S
C1083 C1080 1.463 . S
C1083 N1087 1.427 . S
C1084 H1074 0.929 . S
C1084 C1082 1.433 . S
C1084 N1087 1.384 . S
C1085 H1076 0.929 . S
C1085 C1077 1.378 . S
C1085 C1080 1.350 . S
C1086 H1073 0.929 . S
C1086 C1078 1.433 . S
C1086 N1088 1.384 . S
N1087 C1083 1.427 . S
N1087 C1084 1.384 . S
N1088 C1080 1.427 . S
N1088 C1086 1.384 . S
H1089 C1095 0.930 . S
H1090 C1099 0.930 . S
H1091 C1104 0.929 . S
H1092 C1102 0.929 . S
H1093 C1097 0.929 . S
H1094 C1103 0.929 . S
C1095 H1089 0.930 . S
C1095 C1096 1.367 . S
C1095 C1103 1.378 . S
C1096 C1095 1.367 . S
C1096 C1104 1.433 . S
C1097 H1093 0.929 . S
C1097 C1099 1.378 . S
C1097 C1101 1.350 . S
C1098 C1101 1.463 . S
C1098 C1103 1.350 . S
C1098 N1106 1.427 . S
C1099 H1090 0.930 . S
C1099 C1097 1.378 . S
C1099 C1100 1.367 . S
C1100 C1099 1.367 . S
C1100 C1102 1.433 . S
C1101 C1097 1.350 . S
C1101 C1098 1.463 . S
C1101 N1105 1.427 . S
C1102 H1092 0.929 . S
C1102 C1100 1.433 . S
C1102 N1105 1.384 . S
C1103 H1094 0.929 . S
C1103 C1095 1.378 . S
C1103 C1098 1.350 . S
C1104 H1091 0.929 . S
C1104 C1096 1.433 . S
C1104 N1106 1.384 . S
N1105 C1101 1.427 . S
N1105 C1102 1.384 . S
N1106 C1098 1.427 . S
N1106 C1104 1.384 . S
H1107 C1113 0.930 . S
H1108 C1117 0.930 . S
H1109 C1122 0.929 . S
H1110 C1120 0.929 . S
H1111 C1115 0.929 . S
H1112 C1121 0.929 . S
C1113 H1107 0.930 . S
C1113 C1114 1.367 . S
C1113 C1121 1.378 . S
C1114 C1113 1.367 . S
C1114 C1122 1.433 . S
C1115 H1111 0.929 . S
C1115 C1117 1.378 . S
C1115 C1119 1.350 . S
C1116 C1119 1.463 . S
C1116 C1121 1.350 . S
C1116 N1124 1.427 . S
C1117 H1108 0.930 . S
C1117 C1115 1.378 . S
C1117 C1118 1.367 . S
C1118 C1117 1.367 . S
C1118 C1120 1.433 . S
C1119 C1115 1.350 . S
C1119 C1116 1.463 . S
C1119 N1123 1.427 . S
C1120 H1110 0.929 . S
C1120 C1118 1.433 . S
C1120 N1123 1.384 . S
C1121 H1112 0.929 . S
C1121 C1113 1.378 . S
C1121 C1116 1.350 . S
C1122 H1109 0.929 . S
C1122 C1114 1.433 . S
C1122 N1124 1.384 . S
N1123 C1119 1.427 . S
N1123 C1120 1.384 . S
N1124 C1116 1.427 . S
N1124 C1122 1.384 . S
H1125 C1131 0.930 . S
H1126 C1135 0.930 1_565 S
H1127 C1140 0.929 . S
H1128 C1138 0.929 . S
H1129 C1133 0.929 . S
H1130 C1139 0.929 . S
C1131 H1125 0.930 . S
C1131 C1132 1.367 . S
C1131 C1139 1.378 . S
C1132 C1131 1.367 . S
C1132 C1140 1.433 . S
C1133 H1129 0.929 . S
C1133 C1135 1.378 . S
C1133 C1137 1.350 . S
C1134 C1137 1.463 . S
C1134 C1139 1.350 . S
C1134 N1142 1.427 . S
C1135 H1126 0.930 1_545 S
C1135 C1133 1.378 . S
C1135 C1136 1.367 . S
C1136 C1135 1.367 . S
C1136 C1138 1.433 . S
C1137 C1133 1.350 . S
C1137 C1134 1.463 . S
C1137 N1141 1.427 . S
C1138 H1128 0.929 . S
C1138 C1136 1.433 . S
C1138 N1141 1.384 . S
C1139 H1130 0.929 . S
C1139 C1131 1.378 . S
C1139 C1134 1.350 . S
C1140 H1127 0.929 . S
C1140 C1132 1.433 . S
C1140 N1142 1.384 . S
N1141 C1137 1.427 . S
N1141 C1138 1.384 . S
N1142 C1134 1.427 . S
N1142 C1140 1.384 . S
H1143 C1149 0.930 . S
H1144 C1153 0.930 . S
H1145 C1158 0.929 . S
H1146 C1156 0.929 . S
H1147 C1151 0.929 . S
H1148 C1157 0.929 . S
C1149 H1143 0.930 . S
C1149 C1150 1.367 . S
C1149 C1157 1.378 . S
C1150 C1149 1.367 . S
C1150 C1158 1.433 . S
C1151 H1147 0.929 . S
C1151 C1153 1.378 . S
C1151 C1155 1.350 . S
C1152 C1155 1.463 . S
C1152 C1157 1.350 . S
C1152 N1160 1.427 . S
C1153 H1144 0.930 . S
C1153 C1151 1.378 . S
C1153 C1154 1.367 . S
C1154 C1153 1.367 . S
C1154 C1156 1.433 . S
C1155 C1151 1.350 . S
C1155 C1152 1.463 . S
C1155 N1159 1.427 . S
C1156 H1146 0.929 . S
C1156 C1154 1.433 . S
C1156 N1159 1.384 . S
C1157 H1148 0.929 . S
C1157 C1149 1.378 . S
C1157 C1152 1.350 . S
C1158 H1145 0.929 . S
C1158 C1150 1.433 . S
C1158 N1160 1.384 . S
N1159 C1155 1.427 . S
N1159 C1156 1.384 . S
N1160 C1152 1.427 . S
N1160 C1158 1.384 . S
H1161 C1167 0.930 . S
H1162 C1171 0.930 . S
H1163 C1176 0.929 . S
H1164 C1174 0.929 . S
H1165 C1169 0.929 . S
H1166 C1175 0.929 . S
C1167 H1161 0.930 . S
C1167 C1168 1.367 . S
C1167 C1175 1.378 . S
C1168 C1167 1.367 . S
C1168 C1176 1.433 . S
C1169 H1165 0.929 . S
C1169 C1171 1.378 . S
C1169 C1173 1.350 . S
C1170 C1173 1.463 . S
C1170 C1175 1.350 . S
C1170 N1178 1.427 . S
C1171 H1162 0.930 . S
C1171 C1169 1.378 . S
C1171 C1172 1.367 . S
C1172 C1171 1.367 . S
C1172 C1174 1.433 . S
C1173 C1169 1.350 . S
C1173 C1170 1.463 . S
C1173 N1177 1.427 . S
C1174 H1164 0.929 . S
C1174 C1172 1.433 . S
C1174 N1177 1.384 . S
C1175 H1166 0.929 . S
C1175 C1167 1.378 . S
C1175 C1170 1.350 . S
C1176 H1163 0.929 . S
C1176 C1168 1.433 . S
C1176 N1178 1.384 . S
N1177 C1173 1.427 . S
N1177 C1174 1.384 . S
N1178 C1170 1.427 . S
N1178 C1176 1.384 . S
H1179 C1185 0.930 . S
H1180 C1189 0.930 . S
H1181 C1194 0.929 . S
H1182 C1192 0.929 . S
H1183 C1187 0.929 . S
H1184 C1193 0.929 . S
C1185 H1179 0.930 . S
C1185 C1186 1.367 . S
C1185 C1193 1.378 . S
C1186 C1185 1.367 . S
C1186 C1194 1.433 . S
C1187 H1183 0.929 . S
C1187 C1189 1.378 . S
C1187 C1191 1.350 . S
C1188 C1191 1.463 . S
C1188 C1193 1.350 . S
C1188 N1196 1.427 . S
C1189 H1180 0.930 . S
C1189 C1187 1.378 . S
C1189 C1190 1.367 . S
C1190 C1189 1.367 . S
C1190 C1192 1.433 . S
C1191 C1187 1.350 . S
C1191 C1188 1.463 . S
C1191 N1195 1.427 . S
C1192 H1182 0.929 . S
C1192 C1190 1.433 . S
C1192 N1195 1.384 . S
C1193 H1184 0.929 . S
C1193 C1185 1.378 . S
C1193 C1188 1.350 . S
C1194 H1181 0.929 . S
C1194 C1186 1.433 . S
C1194 N1196 1.384 . S
N1195 C1191 1.427 . S
N1195 C1192 1.384 . S
N1196 C1188 1.427 . S
N1196 C1194 1.384 . S
H1197 C1203 0.930 . S
H1198 C1207 0.930 . S
H1199 C1212 0.929 . S
H1200 C1210 0.929 . S
H1201 C1205 0.929 . S
H1202 C1211 0.929 . S
C1203 H1197 0.930 . S
C1203 C1204 1.367 . S
C1203 C1211 1.378 . S
C1204 C1203 1.367 . S
C1204 C1212 1.433 . S
C1205 H1201 0.929 . S
C1205 C1207 1.378 . S
C1205 C1209 1.350 . S
C1206 C1209 1.463 . S
C1206 C1211 1.350 . S
C1206 N1214 1.427 . S
C1207 H1198 0.930 . S
C1207 C1205 1.378 . S
C1207 C1208 1.367 . S
C1208 C1207 1.367 . S
C1208 C1210 1.433 . S
C1209 C1205 1.350 . S
C1209 C1206 1.463 . S
C1209 N1213 1.427 . S
C1210 H1200 0.929 . S
C1210 C1208 1.433 . S
C1210 N1213 1.384 . S
C1211 H1202 0.929 . S
C1211 C1203 1.378 . S
C1211 C1206 1.350 . S
C1212 H1199 0.929 . S
C1212 C1204 1.433 . S
C1212 N1214 1.384 . S
N1213 C1209 1.427 . S
N1213 C1210 1.384 . S
N1214 C1206 1.427 . S
N1214 C1212 1.384 . S
H1215 C1221 0.930 . S
H1216 C1225 0.930 . S
H1217 C1230 0.929 . S
H1218 C1228 0.929 . S
H1219 C1223 0.929 . S
H1220 C1229 0.929 . S
C1221 H1215 0.930 . S
C1221 C1222 1.367 . S
C1221 C1229 1.378 . S
C1222 C1221 1.367 . S
C1222 C1230 1.433 . S
C1223 H1219 0.929 . S
C1223 C1225 1.378 . S
C1223 C1227 1.350 . S
C1224 C1227 1.463 . S
C1224 C1229 1.350 . S
C1224 N1232 1.427 . S
C1225 H1216 0.930 . S
C1225 C1223 1.378 . S
C1225 C1226 1.367 . S
C1226 C1225 1.367 . S
C1226 C1228 1.433 . S
C1227 C1223 1.350 . S
C1227 C1224 1.463 . S
C1227 N1231 1.427 . S
C1228 H1218 0.929 . S
C1228 C1226 1.433 . S
C1228 N1231 1.384 . S
C1229 H1220 0.929 . S
C1229 C1221 1.378 . S
C1229 C1224 1.350 . S
C1230 H1217 0.929 . S
C1230 C1222 1.433 . S
C1230 N1232 1.384 . S
N1231 C1227 1.427 . S
N1231 C1228 1.384 . S
N1232 C1224 1.427 . S
N1232 C1230 1.384 . S
H1233 C1239 0.930 . S
H1234 C1243 0.930 . S
H1235 C1248 0.929 . S
H1236 C1246 0.929 . S
H1237 C1241 0.929 . S
H1238 C1247 0.929 . S
C1239 H1233 0.930 . S
C1239 C1240 1.367 . S
C1239 C1247 1.378 . S
C1240 C1239 1.367 . S
C1240 C1248 1.433 . S
C1241 H1237 0.929 . S
C1241 C1243 1.378 . S
C1241 C1245 1.350 . S
C1242 C1245 1.463 . S
C1242 C1247 1.350 . S
C1242 N1250 1.427 . S
C1243 H1234 0.930 . S
C1243 C1241 1.378 . S
C1243 C1244 1.367 . S
C1244 C1243 1.367 . S
C1244 C1246 1.433 . S
C1245 C1241 1.350 . S
C1245 C1242 1.463 . S
C1245 N1249 1.427 . S
C1246 H1236 0.929 . S
C1246 C1244 1.433 . S
C1246 N1249 1.384 . S
C1247 H1238 0.929 . S
C1247 C1239 1.378 . S
C1247 C1242 1.350 . S
C1248 H1235 0.929 . S
C1248 C1240 1.433 . S
C1248 N1250 1.384 . S
N1249 C1245 1.427 . S
N1249 C1246 1.384 . S
N1250 C1242 1.427 . S
N1250 C1248 1.384 . S
H1251 C1257 0.930 . S
H1252 C1261 0.930 . S
H1253 C1266 0.929 . S
H1254 C1264 0.929 . S
H1255 C1259 0.929 . S
H1256 C1265 0.929 . S
C1257 H1251 0.930 . S
C1257 C1258 1.367 . S
C1257 C1265 1.378 . S
C1258 C1257 1.367 . S
C1258 C1266 1.433 . S
C1259 H1255 0.929 . S
C1259 C1261 1.378 . S
C1259 C1263 1.350 . S
C1260 C1263 1.463 . S
C1260 C1265 1.350 . S
C1260 N1268 1.427 . S
C1261 H1252 0.930 . S
C1261 C1259 1.378 . S
C1261 C1262 1.367 . S
C1262 C1261 1.367 . S
C1262 C1264 1.433 . S
C1263 C1259 1.350 . S
C1263 C1260 1.463 . S
C1263 N1267 1.427 . S
C1264 H1254 0.929 . S
C1264 C1262 1.433 . S
C1264 N1267 1.384 . S
C1265 H1256 0.929 . S
C1265 C1257 1.378 . S
C1265 C1260 1.350 . S
C1266 H1253 0.929 . S
C1266 C1258 1.433 . S
C1266 N1268 1.384 . S
N1267 C1263 1.427 . S
N1267 C1264 1.384 . S
N1268 C1260 1.427 . S
N1268 C1266 1.384 . S
H1269 C1275 0.930 . S
H1270 C1279 0.930 . S
H1271 C1284 0.929 . S
H1272 C1282 0.929 . S
H1273 C1277 0.929 . S
H1274 C1283 0.929 . S
C1275 H1269 0.930 . S
C1275 C1276 1.367 . S
C1275 C1283 1.378 . S
C1276 C1275 1.367 . S
C1276 C1284 1.433 . S
C1277 H1273 0.929 . S
C1277 C1279 1.378 . S
C1277 C1281 1.350 . S
C1278 C1281 1.463 . S
C1278 C1283 1.350 . S
C1278 N1286 1.427 . S
C1279 H1270 0.930 . S
C1279 C1277 1.378 . S
C1279 C1280 1.367 . S
C1280 C1279 1.367 . S
C1280 C1282 1.433 . S
C1281 C1277 1.350 . S
C1281 C1278 1.463 . S
C1281 N1285 1.427 . S
C1282 H1272 0.929 . S
C1282 C1280 1.433 . S
C1282 N1285 1.384 . S
C1283 H1274 0.929 . S
C1283 C1275 1.378 . S
C1283 C1278 1.350 . S
C1284 H1271 0.929 . S
C1284 C1276 1.433 . S
C1284 N1286 1.384 . S
N1285 C1281 1.427 . S
N1285 C1282 1.384 . S
N1286 C1278 1.427 . S
N1286 C1284 1.384 . S
H1287 C1293 0.930 . S
H1288 C1297 0.930 . S
H1289 C1302 0.929 . S
H1290 C1300 0.929 . S
H1291 C1295 0.929 . S
H1292 C1301 0.929 . S
C1293 H1287 0.930 . S
C1293 C1294 1.367 . S
C1293 C1301 1.378 . S
C1294 C1293 1.367 . S
C1294 C1302 1.433 . S
C1295 H1291 0.929 . S
C1295 C1297 1.378 . S
C1295 C1299 1.350 . S
C1296 C1299 1.463 . S
C1296 C1301 1.350 . S
C1296 N1304 1.427 . S
C1297 H1288 0.930 . S
C1297 C1295 1.378 . S
C1297 C1298 1.367 . S
C1298 C1297 1.367 . S
C1298 C1300 1.433 . S
C1299 C1295 1.350 . S
C1299 C1296 1.463 . S
C1299 N1303 1.427 . S
C1300 H1290 0.929 . S
C1300 C1298 1.433 . S
C1300 N1303 1.384 . S
C1301 H1292 0.929 . S
C1301 C1293 1.378 . S
C1301 C1296 1.350 . S
C1302 H1289 0.929 . S
C1302 C1294 1.433 . S
C1302 N1304 1.384 . S
N1303 C1299 1.427 . S
N1303 C1300 1.384 . S
N1304 C1296 1.427 . S
N1304 C1302 1.384 . S
H1305 C1311 0.930 . S
H1306 C1315 0.930 . S
H1307 C1320 0.929 . S
H1308 C1318 0.929 . S
H1309 C1313 0.929 . S
H1310 C1319 0.929 . S
C1311 H1305 0.930 . S
C1311 C1312 1.367 . S
C1311 C1319 1.378 . S
C1312 C1311 1.367 . S
C1312 C1320 1.433 . S
C1313 H1309 0.929 . S
C1313 C1315 1.378 . S
C1313 C1317 1.350 . S
C1314 C1317 1.463 . S
C1314 C1319 1.350 . S
C1314 N1322 1.427 . S
C1315 H1306 0.930 . S
C1315 C1313 1.378 . S
C1315 C1316 1.367 . S
C1316 C1315 1.367 . S
C1316 C1318 1.433 . S
C1317 C1313 1.350 . S
C1317 C1314 1.463 . S
C1317 N1321 1.427 . S
C1318 H1308 0.929 . S
C1318 C1316 1.433 . S
C1318 N1321 1.384 . S
C1319 H1310 0.929 . S
C1319 C1311 1.378 . S
C1319 C1314 1.350 . S
C1320 H1307 0.929 . S
C1320 C1312 1.433 . S
C1320 N1322 1.384 . S
N1321 C1317 1.427 . S
N1321 C1318 1.384 . S
N1322 C1314 1.427 . S
N1322 C1320 1.384 . S
H1323 C1329 0.930 . S
H1324 C1333 0.930 . S
H1325 C1338 0.929 . S
H1326 C1336 0.929 . S
H1327 C1331 0.929 . S
H1328 C1337 0.929 . S
C1329 H1323 0.930 . S
C1329 C1330 1.367 . S
C1329 C1337 1.378 . S
C1330 C1329 1.367 . S
C1330 C1338 1.433 . S
C1331 H1327 0.929 . S
C1331 C1333 1.378 . S
C1331 C1335 1.350 . S
C1332 C1335 1.463 . S
C1332 C1337 1.350 . S
C1332 N1340 1.427 . S
C1333 H1324 0.930 . S
C1333 C1331 1.378 . S
C1333 C1334 1.367 . S
C1334 C1333 1.367 . S
C1334 C1336 1.433 . S
C1335 C1331 1.350 . S
C1335 C1332 1.463 . S
C1335 N1339 1.427 . S
C1336 H1326 0.929 . S
C1336 C1334 1.433 . S
C1336 N1339 1.384 . S
C1337 H1328 0.929 . S
C1337 C1329 1.378 . S
C1337 C1332 1.350 . S
C1338 H1325 0.929 . S
C1338 C1330 1.433 . S
C1338 N1340 1.384 . S
N1339 C1335 1.427 . S
N1339 C1336 1.384 . S
N1340 C1332 1.427 . S
N1340 C1338 1.384 . S
H1341 C1347 0.930 . S
H1342 C1351 0.930 . S
H1343 C1356 0.929 . S
H1344 C1354 0.929 . S
H1345 C1349 0.929 . S
H1346 C1355 0.929 . S
C1347 H1341 0.930 . S
C1347 C1348 1.367 . S
C1347 C1355 1.378 . S
C1348 C1347 1.367 . S
C1348 C1356 1.433 . S
C1349 H1345 0.929 . S
C1349 C1351 1.378 . S
C1349 C1353 1.350 . S
C1350 C1353 1.463 . S
C1350 C1355 1.350 . S
C1350 N1358 1.427 . S
C1351 H1342 0.930 . S
C1351 C1349 1.378 . S
C1351 C1352 1.367 . S
C1352 C1351 1.367 . S
C1352 C1354 1.433 . S
C1353 C1349 1.350 . S
C1353 C1350 1.463 . S
C1353 N1357 1.427 . S
C1354 H1344 0.929 . S
C1354 C1352 1.433 . S
C1354 N1357 1.384 . S
C1355 H1346 0.929 . S
C1355 C1347 1.378 . S
C1355 C1350 1.350 . S
C1356 H1343 0.929 . S
C1356 C1348 1.433 . S
C1356 N1358 1.384 . S
N1357 C1353 1.427 . S
N1357 C1354 1.384 . S
N1358 C1350 1.427 . S
N1358 C1356 1.384 . S
C394 C151 1.282 . S
C398 C212 1.305 . S
C412 C159 1.621 . S
C416 C233 1.683 . S
C430 C137 1.279 . S
C434 C253 1.206 . S
C448 C126 1.296 . S
C452 C232 1.200 . S
C470 C254 1.718 . S
C466 C104 1.666 . S
C484 C118 1.256 . S
C488 C211 1.140 . S
C506 C213 1.356 . S
C502 C129 1.422 . S
C524 C234 1.477 . S
C520 C107 1.522 . S
C538 C115 1.141 . S
C542 C256 1.226 . S
C556 C148 1.127 . S
C560 C235 1.205 . S
C574 C162 1.506 1_556 S
C578 C255 1.460 1_556 S
C596 C214 1.245 1_554 S
C592 C140 1.459 . S
C614 C275 1.306 . S
C610 C19 1.276 . S
C628 C27 1.624 . S
C632 C296 1.686 . S
C646 C5 1.284 . S
C650 C316 1.198 . S
C664 C192 1.274 . S
C668 C295 1.219 . S
C682 C170 1.675 . S
C686 C317 1.707 . S
C700 C184 1.253 . S
C704 C274 1.140 . S
C718 C195 1.417 . S
C722 C276 1.369 . S
C736 C173 1.522 . S
C740 C297 1.482 . S
C758 C319 1.238 . S
C754 C181 1.158 . S
C772 C16 1.124 . S
C776 C298 1.203 . S
C794 C318 1.460 . S
C790 C30 1.505 . S
C808 C8 1.466 . S
C812 C277 1.249 . S
C830 C338 1.310 . S
C826 C85 1.274 . S
C844 C93 1.622 . S
C848 C359 1.681 . S
C866 C379 1.228 . S
C862 C71 1.267 . S
C884 C358 1.219 . S
C880 C60 1.278 . S
C902 C380 1.704 . S
C898 C38 1.673 . S
C916 C52 1.235 . S
C920 C337 1.108 . S
C934 C63 1.422 . S
C938 C339 1.355 . S
C952 C41 1.522 . S
C956 C360 1.482 . S
C974 C382 1.236 . S
C970 C49 1.159 . S
C988 C82 1.120 . S
C992 C361 1.199 . S
C1006 C96 1.512 . S
C1010 C381 1.443 . S
C1024 C74 1.460 . S
C1028 C340 1.243 . S
C1042 C172 1.580 . S
C1046 C216 1.577 . S
C1064 C237 1.306 . S
C1060 C183 1.260 . S
C1078 C194 1.521 . S
C1082 C257 1.515 . S
C1096 C73 1.591 . S
C1100 C236 1.569 . S
C1114 C84 1.297 . S
C1118 C258 1.336 . S
C1136 C215 1.676 . S
C1132 C95 1.686 . S
C1150 C40 1.590 . S
C1154 C279 1.586 . S
C1168 C51 1.260 . S
C1172 C300 1.306 . S
C1186 C62 1.531 . S
C1190 C320 1.504 . S
C1204 C139 1.582 . S
C1208 C299 1.579 . S
C1226 C321 1.345 . S
C1222 C150 1.300 . S
C1240 C161 1.680 . S
C1244 C278 1.682 . S
C1258 C106 1.579 . S
C1262 C342 1.574 . S
C1276 C117 1.264 . S
C1280 C363 1.303 . S
C1298 C383 1.503 . S
C1294 C128 1.532 . S
C1312 C7 1.592 . S
C1316 C362 1.567 . S
C1330 C18 1.298 . S
C1334 C384 1.346 . S
C1348 C29 1.686 . S
C1352 C341 1.675 . S
