# Generated by pormake.
# Topology gar, (4,6)-cn, num edge types: 1
# Building blocks:
#     Node 0, Type 0, BuildingBlock: QUQFOY_clean_sbu_1, # of connection points: 4
#     Node 1, Type 0, BuildingBlock: QUQFOY_clean_sbu_1, # of connection points: 4
#     Node 2, Type 0, BuildingBlock: QUQFOY_clean_sbu_1, # of connection points: 4
#     Node 3, Type 0, BuildingBlock: QUQFOY_clean_sbu_1, # of connection points: 4
#     Node 4, Type 0, BuildingBlock: QUQFOY_clean_sbu_1, # of connection points: 4
#     Node 5, Type 0, BuildingBlock: QUQFOY_clean_sbu_1, # of connection points: 4
#     Node 6, Type 0, BuildingBlock: QUQFOY_clean_sbu_1, # of connection points: 4
#     Node 7, Type 0, BuildingBlock: QUQFOY_clean_sbu_1, # of connection points: 4
#     Node 8, Type 0, BuildingBlock: QUQFOY_clean_sbu_1, # of connection points: 4
#     Node 9, Type 0, BuildingBlock: QUQFOY_clean_sbu_1, # of connection points: 4
#     Node 10, Type 0, BuildingBlock: QUQFOY_clean_sbu_1, # of connection points: 4
#     Node 11, Type 0, BuildingBlock: QUQFOY_clean_sbu_1, # of connection points: 4
#     Node 12, Type 0, BuildingBlock: QUQFOY_clean_sbu_1, # of connection points: 4
#     Node 13, Type 0, BuildingBlock: QUQFOY_clean_sbu_1, # of connection points: 4
#     Node 14, Type 0, BuildingBlock: QUQFOY_clean_sbu_1, # of connection points: 4
#     Node 15, Type 0, BuildingBlock: QUQFOY_clean_sbu_1, # of connection points: 4
#     Node 16, Type 0, BuildingBlock: QUQFOY_clean_sbu_1, # of connection points: 4
#     Node 17, Type 0, BuildingBlock: QUQFOY_clean_sbu_1, # of connection points: 4
#     Node 18, Type 0, BuildingBlock: QUQFOY_clean_sbu_1, # of connection points: 4
#     Node 19, Type 0, BuildingBlock: QUQFOY_clean_sbu_1, # of connection points: 4
#     Node 20, Type 0, BuildingBlock: QUQFOY_clean_sbu_1, # of connection points: 4
#     Node 21, Type 0, BuildingBlock: QUQFOY_clean_sbu_1, # of connection points: 4
#     Node 22, Type 0, BuildingBlock: QUQFOY_clean_sbu_1, # of connection points: 4
#     Node 23, Type 0, BuildingBlock: QUQFOY_clean_sbu_1, # of connection points: 4
#     Node 24, Type 1, BuildingBlock: BETDAH_clean_sbu_0, # of connection points: 6
#     Node 25, Type 1, BuildingBlock: BETDAH_clean_sbu_0, # of connection points: 6
#     Node 26, Type 1, BuildingBlock: BETDAH_clean_sbu_0, # of connection points: 6
#     Node 27, Type 1, BuildingBlock: BETDAH_clean_sbu_0, # of connection points: 6
#     Node 28, Type 1, BuildingBlock: BETDAH_clean_sbu_0, # of connection points: 6
#     Node 29, Type 1, BuildingBlock: BETDAH_clean_sbu_0, # of connection points: 6
#     Node 30, Type 1, BuildingBlock: BETDAH_clean_sbu_0, # of connection points: 6
#     Node 31, Type 1, BuildingBlock: BETDAH_clean_sbu_0, # of connection points: 6
#     Node 32, Type 1, BuildingBlock: BETDAH_clean_sbu_0, # of connection points: 6
#     Node 33, Type 1, BuildingBlock: BETDAH_clean_sbu_0, # of connection points: 6
#     Node 34, Type 1, BuildingBlock: BETDAH_clean_sbu_0, # of connection points: 6
#     Node 35, Type 1, BuildingBlock: BETDAH_clean_sbu_0, # of connection points: 6
#     Node 36, Type 1, BuildingBlock: BETDAH_clean_sbu_0, # of connection points: 6
#     Node 37, Type 1, BuildingBlock: BETDAH_clean_sbu_0, # of connection points: 6
#     Node 38, Type 1, BuildingBlock: BETDAH_clean_sbu_0, # of connection points: 6
#     Node 39, Type 1, BuildingBlock: BETDAH_clean_sbu_0, # of connection points: 6
#     Edge 40, Type (0, 1), BuildingBlock: UVAHIK_clean_linker_0, # of connection points: 2
#     Edge 41, Type (0, 1), BuildingBlock: UVAHIK_clean_linker_0, # of connection points: 2
#     Edge 42, Type (0, 1), BuildingBlock: UVAHIK_clean_linker_0, # of connection points: 2
#     Edge 43, Type (0, 1), BuildingBlock: UVAHIK_clean_linker_0, # of connection points: 2
#     Edge 44, Type (0, 1), BuildingBlock: UVAHIK_clean_linker_0, # of connection points: 2
#     Edge 45, Type (0, 1), BuildingBlock: UVAHIK_clean_linker_0, # of connection points: 2
#     Edge 46, Type (0, 1), BuildingBlock: UVAHIK_clean_linker_0, # of connection points: 2
#     Edge 47, Type (0, 1), BuildingBlock: UVAHIK_clean_linker_0, # of connection points: 2
#     Edge 48, Type (0, 1), BuildingBlock: UVAHIK_clean_linker_0, # of connection points: 2
#     Edge 49, Type (0, 1), BuildingBlock: UVAHIK_clean_linker_0, # of connection points: 2
#     Edge 50, Type (0, 1), BuildingBlock: UVAHIK_clean_linker_0, # of connection points: 2
#     Edge 51, Type (0, 1), BuildingBlock: UVAHIK_clean_linker_0, # of connection points: 2
#     Edge 52, Type (0, 1), BuildingBlock: UVAHIK_clean_linker_0, # of connection points: 2
#     Edge 53, Type (0, 1), BuildingBlock: UVAHIK_clean_linker_0, # of connection points: 2
#     Edge 54, Type (0, 1), BuildingBlock: UVAHIK_clean_linker_0, # of connection points: 2
#     Edge 55, Type (0, 1), BuildingBlock: UVAHIK_clean_linker_0, # of connection points: 2
#     Edge 56, Type (0, 1), BuildingBlock: UVAHIK_clean_linker_0, # of connection points: 2
#     Edge 57, Type (0, 1), BuildingBlock: UVAHIK_clean_linker_0, # of connection points: 2
#     Edge 58, Type (0, 1), BuildingBlock: UVAHIK_clean_linker_0, # of connection points: 2
#     Edge 59, Type (0, 1), BuildingBlock: UVAHIK_clean_linker_0, # of connection points: 2
#     Edge 60, Type (0, 1), BuildingBlock: UVAHIK_clean_linker_0, # of connection points: 2
#     Edge 61, Type (0, 1), BuildingBlock: UVAHIK_clean_linker_0, # of connection points: 2
#     Edge 62, Type (0, 1), BuildingBlock: UVAHIK_clean_linker_0, # of connection points: 2
#     Edge 63, Type (0, 1), BuildingBlock: UVAHIK_clean_linker_0, # of connection points: 2
#     Edge 64, Type (0, 1), BuildingBlock: UVAHIK_clean_linker_0, # of connection points: 2
#     Edge 65, Type (0, 1), BuildingBlock: UVAHIK_clean_linker_0, # of connection points: 2
#     Edge 66, Type (0, 1), BuildingBlock: UVAHIK_clean_linker_0, # of connection points: 2
#     Edge 67, Type (0, 1), BuildingBlock: UVAHIK_clean_linker_0, # of connection points: 2
#     Edge 68, Type (0, 1), BuildingBlock: UVAHIK_clean_linker_0, # of connection points: 2
#     Edge 69, Type (0, 1), BuildingBlock: UVAHIK_clean_linker_0, # of connection points: 2
#     Edge 70, Type (0, 1), BuildingBlock: UVAHIK_clean_linker_0, # of connection points: 2
#     Edge 71, Type (0, 1), BuildingBlock: UVAHIK_clean_linker_0, # of connection points: 2
#     Edge 72, Type (0, 1), BuildingBlock: UVAHIK_clean_linker_0, # of connection points: 2
#     Edge 73, Type (0, 1), BuildingBlock: UVAHIK_clean_linker_0, # of connection points: 2
#     Edge 74, Type (0, 1), BuildingBlock: UVAHIK_clean_linker_0, # of connection points: 2
#     Edge 75, Type (0, 1), BuildingBlock: UVAHIK_clean_linker_0, # of connection points: 2
#     Edge 76, Type (0, 1), BuildingBlock: UVAHIK_clean_linker_0, # of connection points: 2
#     Edge 77, Type (0, 1), BuildingBlock: UVAHIK_clean_linker_0, # of connection points: 2
#     Edge 78, Type (0, 1), BuildingBlock: UVAHIK_clean_linker_0, # of connection points: 2
#     Edge 79, Type (0, 1), BuildingBlock: UVAHIK_clean_linker_0, # of connection points: 2
#     Edge 80, Type (0, 1), BuildingBlock: UVAHIK_clean_linker_0, # of connection points: 2
#     Edge 81, Type (0, 1), BuildingBlock: UVAHIK_clean_linker_0, # of connection points: 2
#     Edge 82, Type (0, 1), BuildingBlock: UVAHIK_clean_linker_0, # of connection points: 2
#     Edge 83, Type (0, 1), BuildingBlock: UVAHIK_clean_linker_0, # of connection points: 2
#     Edge 84, Type (0, 1), BuildingBlock: UVAHIK_clean_linker_0, # of connection points: 2
#     Edge 85, Type (0, 1), BuildingBlock: UVAHIK_clean_linker_0, # of connection points: 2
#     Edge 86, Type (0, 1), BuildingBlock: UVAHIK_clean_linker_0, # of connection points: 2
#     Edge 87, Type (0, 1), BuildingBlock: UVAHIK_clean_linker_0, # of connection points: 2
#     Edge 88, Type (0, 1), BuildingBlock: UVAHIK_clean_linker_0, # of connection points: 2
#     Edge 89, Type (0, 1), BuildingBlock: UVAHIK_clean_linker_0, # of connection points: 2
#     Edge 90, Type (0, 1), BuildingBlock: UVAHIK_clean_linker_0, # of connection points: 2
#     Edge 91, Type (0, 1), BuildingBlock: UVAHIK_clean_linker_0, # of connection points: 2
#     Edge 92, Type (0, 1), BuildingBlock: UVAHIK_clean_linker_0, # of connection points: 2
#     Edge 93, Type (0, 1), BuildingBlock: UVAHIK_clean_linker_0, # of connection points: 2
#     Edge 94, Type (0, 1), BuildingBlock: UVAHIK_clean_linker_0, # of connection points: 2
#     Edge 95, Type (0, 1), BuildingBlock: UVAHIK_clean_linker_0, # of connection points: 2
#     Edge 96, Type (0, 1), BuildingBlock: UVAHIK_clean_linker_0, # of connection points: 2
#     Edge 97, Type (0, 1), BuildingBlock: UVAHIK_clean_linker_0, # of connection points: 2
#     Edge 98, Type (0, 1), BuildingBlock: UVAHIK_clean_linker_0, # of connection points: 2
#     Edge 99, Type (0, 1), BuildingBlock: UVAHIK_clean_linker_0, # of connection points: 2
#     Edge 100, Type (0, 1), BuildingBlock: UVAHIK_clean_linker_0, # of connection points: 2
#     Edge 101, Type (0, 1), BuildingBlock: UVAHIK_clean_linker_0, # of connection points: 2
#     Edge 102, Type (0, 1), BuildingBlock: UVAHIK_clean_linker_0, # of connection points: 2
#     Edge 103, Type (0, 1), BuildingBlock: UVAHIK_clean_linker_0, # of connection points: 2
#     Edge 104, Type (0, 1), BuildingBlock: UVAHIK_clean_linker_0, # of connection points: 2
#     Edge 105, Type (0, 1), BuildingBlock: UVAHIK_clean_linker_0, # of connection points: 2
#     Edge 106, Type (0, 1), BuildingBlock: UVAHIK_clean_linker_0, # of connection points: 2
#     Edge 107, Type (0, 1), BuildingBlock: UVAHIK_clean_linker_0, # of connection points: 2
#     Edge 108, Type (0, 1), BuildingBlock: UVAHIK_clean_linker_0, # of connection points: 2
#     Edge 109, Type (0, 1), BuildingBlock: UVAHIK_clean_linker_0, # of connection points: 2
#     Edge 110, Type (0, 1), BuildingBlock: UVAHIK_clean_linker_0, # of connection points: 2
#     Edge 111, Type (0, 1), BuildingBlock: UVAHIK_clean_linker_0, # of connection points: 2
#     Edge 112, Type (0, 1), BuildingBlock: UVAHIK_clean_linker_0, # of connection points: 2
#     Edge 113, Type (0, 1), BuildingBlock: UVAHIK_clean_linker_0, # of connection points: 2
#     Edge 114, Type (0, 1), BuildingBlock: UVAHIK_clean_linker_0, # of connection points: 2
#     Edge 115, Type (0, 1), BuildingBlock: UVAHIK_clean_linker_0, # of connection points: 2
#     Edge 116, Type (0, 1), BuildingBlock: UVAHIK_clean_linker_0, # of connection points: 2
#     Edge 117, Type (0, 1), BuildingBlock: UVAHIK_clean_linker_0, # of connection points: 2
#     Edge 118, Type (0, 1), BuildingBlock: UVAHIK_clean_linker_0, # of connection points: 2
#     Edge 119, Type (0, 1), BuildingBlock: UVAHIK_clean_linker_0, # of connection points: 2
#     Edge 120, Type (0, 1), BuildingBlock: UVAHIK_clean_linker_0, # of connection points: 2
#     Edge 121, Type (0, 1), BuildingBlock: UVAHIK_clean_linker_0, # of connection points: 2
#     Edge 122, Type (0, 1), BuildingBlock: UVAHIK_clean_linker_0, # of connection points: 2
#     Edge 123, Type (0, 1), BuildingBlock: UVAHIK_clean_linker_0, # of connection points: 2
#     Edge 124, Type (0, 1), BuildingBlock: UVAHIK_clean_linker_0, # of connection points: 2
#     Edge 125, Type (0, 1), BuildingBlock: UVAHIK_clean_linker_0, # of connection points: 2
#     Edge 126, Type (0, 1), BuildingBlock: UVAHIK_clean_linker_0, # of connection points: 2
#     Edge 127, Type (0, 1), BuildingBlock: UVAHIK_clean_linker_0, # of connection points: 2
#     Edge 128, Type (0, 1), BuildingBlock: UVAHIK_clean_linker_0, # of connection points: 2
#     Edge 129, Type (0, 1), BuildingBlock: UVAHIK_clean_linker_0, # of connection points: 2
#     Edge 130, Type (0, 1), BuildingBlock: UVAHIK_clean_linker_0, # of connection points: 2
#     Edge 131, Type (0, 1), BuildingBlock: UVAHIK_clean_linker_0, # of connection points: 2
#     Edge 132, Type (0, 1), BuildingBlock: UVAHIK_clean_linker_0, # of connection points: 2
#     Edge 133, Type (0, 1), BuildingBlock: UVAHIK_clean_linker_0, # of connection points: 2
#     Edge 134, Type (0, 1), BuildingBlock: UVAHIK_clean_linker_0, # of connection points: 2
#     Edge 135, Type (0, 1), BuildingBlock: UVAHIK_clean_linker_0, # of connection points: 2
# Relax obj value: 0.178
# Max RMSD: 0.297
# Mean RMSD: 0.180
data_MOF--net-gar--node1-QUQFOY_clean_sbu_1--node2-BETDAH_clean_sbu_0--edge1-UVAHIK_clean_linker_0
_symmetry_space_group_name_H-M    P1
_symmetry_Int_Tables_number       1
_symmetry_cell_setting            triclinic
loop_
_symmetry_equiv_pos_as_xyz
'x, y, z'
_cell_length_a     79.212659
_cell_length_b     72.732069
_cell_length_c     72.91026
_cell_angle_alpha  98.384605
_cell_angle_beta   95.151608
_cell_angle_gamma 104.70816
loop_
_atom_site_label
_atom_site_type_symbol
_atom_site_fract_x
_atom_site_fract_y
_atom_site_fract_z
_atom_type_partial_charge
O0 O 0.11313 0.28563 0.38707 0.0
Cd1 Cd 0.10708 0.30353 0.36958 0.0
Cd2 Cd 0.10163 0.32394 0.40061 0.0
O3 O 0.11273 0.3053 0.41294 0.0
O4 O 0.11848 0.2995 0.34687 0.0
O5 O 0.12535 0.32725 0.36676 0.0
C6 C 0.1278 0.31722 0.35157 0.0
C7 C 0.10984 0.35646 0.41433 0.0
C8 C 0.11548 0.28986 0.40481 0.0
C9 C 0.07048 0.30565 0.37114 0.0
O10 O 0.07586 0.3141 0.38794 0.0
O11 O 0.08117 0.30076 0.36074 0.0
O12 O 0.10057 0.34339 0.42224 0.0
O13 O 0.11499 0.35104 0.39862 0.0
O14 O 0.98585 0.69781 0.65225 0.0
Cd15 Cd 0.99033 0.72041 0.67414 0.0
Cd16 Cd 1.0055 0.74235 0.64987 0.0
O17 O 0.9978 0.71573 0.63239 0.0
O18 O 0.97168 0.71496 0.69053 0.0
O19 O 0.97584 0.73915 0.67453 0.0
C20 C 0.96722 0.72979 0.68608 0.0
C21 C 1.00456 0.76936 0.63622 0.0
C22 C 0.99017 0.69932 0.63606 0.0
C23 C 0.02765 0.74107 0.68589 0.0
O24 O 0.02636 0.74782 0.67086 0.0
O25 O 0.01454 0.72908 0.69013 0.0
O26 O 0.01603 0.75996 0.63299 0.0
O27 O 0.9931 0.76313 0.64697 0.0
O28 O 0.63743 0.84553 0.89518 0.0
Cd29 Cd 0.61986 0.84099 0.91432 0.0
Cd30 Cd 0.59902 0.85155 0.88912 0.0
O31 O 0.61991 0.85325 0.87414 0.0
O32 O 0.62775 0.8246 0.93103 0.0
O33 O 0.60252 0.81511 0.91211 0.0
C34 C 0.61324 0.8115 0.92463 0.0
C35 C 0.57163 0.83265 0.8745 0.0
C36 C 0.63459 0.85035 0.87936 0.0
C37 C 0.60765 0.87597 0.92716 0.0
O38 O 0.59993 0.87372 0.91061 0.0
O39 O 0.61622 0.86432 0.93155 0.0
O40 O 0.57847 0.84941 0.87047 0.0
O41 O 0.5804 0.82657 0.88698 0.0
O42 O 0.47716 0.18926 0.14078 0.0
Cd43 Cd 0.48422 0.21083 0.16386 0.0
Cd44 Cd 0.49911 0.23434 0.14008 0.0
O45 O 0.48957 0.20827 0.12199 0.0
O46 O 0.46697 0.20593 0.1818 0.0
O47 O 0.47142 0.23111 0.1671 0.0
C48 C 0.46336 0.22173 0.17898 0.0
C49 C 0.5001 0.26192 0.12663 0.0
C50 C 0.48113 0.19173 0.12466 0.0
C51 C 0.52222 0.22978 0.17399 0.0
O52 O 0.52046 0.23797 0.15996 0.0
O53 O 0.50922 0.21746 0.178 0.0
O54 O 0.51026 0.25104 0.12279 0.0
O55 O 0.4889 0.257 0.13804 0.0
O56 O 0.07817 0.79242 0.1335 0.0
Cd57 Cd 0.08486 0.8177 0.15286 0.0
Cd58 Cd 0.10188 0.83159 0.12481 0.0
O59 O 0.09255 0.8033 0.11099 0.0
O60 O 0.06979 0.81105 0.17278 0.0
O61 O 0.06709 0.83328 0.15598 0.0
C62 C 0.06171 0.82354 0.16879 0.0
C63 C 0.09493 0.85669 0.11178 0.0
C64 C 0.08292 0.7895 0.11738 0.0
C65 C 0.12469 0.83395 0.16048 0.0
O66 O 0.12424 0.83756 0.14392 0.0
O67 O 0.11048 0.82652 0.16673 0.0
O68 O 0.10662 0.84868 0.10569 0.0
O69 O 0.08704 0.85031 0.12528 0.0
O70 O 0.55272 0.77416 0.40692 0.0
Cd71 Cd 0.53422 0.77279 0.42527 0.0
Cd72 Cd 0.51508 0.78337 0.39368 0.0
O73 O 0.53756 0.78018 0.38256 0.0
O74 O 0.54236 0.76007 0.44557 0.0
O75 O 0.51767 0.74685 0.42626 0.0
C76 C 0.52857 0.74575 0.4401 0.0
C77 C 0.48931 0.77775 0.37241 0.0
C78 C 0.55147 0.77712 0.39014 0.0
C79 C 0.52456 0.81036 0.43181 0.0
O80 O 0.51773 0.80645 0.41477 0.0
O81 O 0.53162 0.79872 0.43894 0.0
O82 O 0.50284 0.79203 0.37274 0.0
O83 O 0.49044 0.76605 0.3839 0.0
O84 O 0.57761 0.28848 0.6334 0.0
Cd85 Cd 0.58416 0.31238 0.65433 0.0
Cd86 Cd 0.60155 0.32865 0.62723 0.0
O87 O 0.59111 0.30141 0.61132 0.0
O88 O 0.56884 0.30344 0.67338 0.0
O89 O 0.56642 0.32764 0.65921 0.0
C90 C 0.5608 0.31636 0.67079 0.0
C91 C 0.59626 0.3553 0.6156 0.0
C92 C 0.58175 0.28687 0.61692 0.0
C93 C 0.62394 0.32726 0.66223 0.0
O94 O 0.62372 0.33207 0.64613 0.0
O95 O 0.60958 0.31992 0.66826 0.0
O96 O 0.60763 0.34691 0.60933 0.0
O97 O 0.5879 0.34862 0.62871 0.0
O98 O 0.01923 0.24146 0.9143 0.0
Cd99 Cd 0.01904 0.26208 0.89731 0.0
Cd100 Cd 1.00397 0.27644 0.92643 0.0
O101 O 1.00815 0.25374 0.93841 0.0
O102 O 0.03354 0.25601 0.87746 0.0
O103 O 0.04152 0.28312 0.89808 0.0
C104 C 0.04488 0.27236 0.88392 0.0
C105 C 0.01559 0.30844 0.94111 0.0
C106 C 0.01452 0.24076 0.93049 0.0
C107 C 0.98219 0.26648 0.88897 0.0
O108 O 0.98244 0.27114 0.90649 0.0
O109 O 0.99565 0.26304 0.88244 0.0
O110 O 1.00178 0.29753 0.946 0.0
O111 O 0.0233 0.30089 0.92827 0.0
O112 O 0.43086 0.09877 0.2768 0.0
Cd113 Cd 0.42436 0.08776 0.30076 0.0
Cd114 Cd 0.45706 0.08415 0.30238 0.0
O115 O 0.45904 0.09999 0.28128 0.0
O116 O 0.4009 0.09161 0.30432 0.0
O117 O 0.42482 0.10603 0.32455 0.0
C118 C 0.40809 0.10288 0.31986 0.0
C119 C 0.47584 0.09444 0.3303 0.0
C120 C 0.44621 0.10342 0.27195 0.0
C121 C 0.42931 0.0477 0.29696 0.0
O122 O 0.44535 0.05492 0.29541 0.0
O123 O 0.41929 0.05853 0.30041 0.0
O124 O 0.48102 0.08734 0.31522 0.0
O125 O 0.46001 0.09638 0.3293 0.0
O126 O 0.30099 0.19902 0.54285 0.0
Cd127 Cd 0.2963 0.17859 0.51876 0.0
Cd128 Cd 0.28195 0.20492 0.50457 0.0
O129 O 0.28937 0.2203 0.53165 0.0
O130 O 0.30986 0.16031 0.52552 0.0
O131 O 0.31587 0.17722 0.50299 0.0
C132 C 0.31956 0.16496 0.51276 0.0
C133 C 0.29107 0.21912 0.47899 0.0
C134 C 0.29691 0.21493 0.54526 0.0
C135 C 0.25728 0.16603 0.50413 0.0
O136 O 0.2589 0.18285 0.50031 0.0
O137 O 0.27065 0.16142 0.51105 0.0
O138 O 0.27899 0.22374 0.48793 0.0
O139 O 0.2982 0.20648 0.48471 0.0
O140 O 0.17276 0.0206 0.75453 0.0
Cd141 Cd 0.19454 0.02314 0.77516 0.0
Cd142 Cd 0.16559 0.04242 0.79758 0.0
O143 O 0.15272 0.03186 0.76911 0.0
O144 O 0.2116 1.00826 0.76334 0.0
O145 O 0.1986 0.99954 0.78695 0.0
C146 C 0.20907 0.99636 0.77499 0.0
C147 C 0.1504 0.04177 0.82614 0.0
C148 C 0.15794 0.02489 0.75399 0.0
C149 C 0.20341 0.06787 0.79209 0.0
O150 O 0.18831 0.06563 0.79794 0.0
O151 O 0.20822 0.05324 0.78435 0.0
O152 O 0.14862 0.0529 0.81424 0.0
O153 O 0.16031 0.03058 0.82185 0.0
O154 O 0.26083 0.9345 0.03755 0.0
Cd155 Cd 0.27653 0.95031 0.02092 0.0
Cd156 Cd 0.28058 0.91478 1.00752 0.0
O157 O 0.25985 0.90581 0.02198 0.0
O158 O 0.27111 0.97563 0.02402 0.0
O159 O 0.26534 0.95547 0.99698 0.0
C160 C 0.26486 0.97172 1.00653 0.0
C161 C 0.28039 0.89608 0.97862 0.0
C162 C 0.25467 0.91625 0.03457 0.0
C163 C 0.31236 0.9452 0.02845 0.0
O164 O 0.30529 0.92736 0.02241 0.0
O165 O 0.30344 0.95735 0.02765 0.0
O166 O 0.28373 0.89033 0.99408 0.0
O167 O 0.27678 0.91251 0.97946 0.0
O168 O 0.31391 0.41089 0.08558 0.0
Cd169 Cd 0.31557 0.42654 0.06384 0.0
Cd170 Cd 0.32219 0.39436 0.04623 0.0
O171 O 0.31316 0.38272 0.06901 0.0
O172 O 0.30426 0.44769 0.07121 0.0
O173 O 0.29341 0.42458 0.04667 0.0
C174 C 0.29209 0.43989 0.05727 0.0
C175 C 0.31208 0.37931 0.01515 0.0
C176 C 0.31215 0.39286 0.08444 0.0
C177 C 0.35195 0.43059 0.0539 0.0
O178 O 0.34754 0.41224 0.05024 0.0
O179 O 0.34057 0.43957 0.05804 0.0
O180 O 0.32202 0.37263 0.0259 0.0
O181 O 0.30706 0.39403 0.02237 0.0
O182 O 0.78601 0.14567 0.06787 0.0
Cd183 Cd 0.77854 0.12321 0.0454 0.0
Cd184 Cd 0.77157 0.15082 0.02695 0.0
O185 O 0.78648 0.16813 0.05057 0.0
O186 O 0.79131 0.10409 0.05071 0.0
O187 O 0.79581 0.12062 0.02747 0.0
C188 C 0.79974 0.10813 0.03682 0.0
C189 C 0.77289 0.16502 1.00035 0.0
C190 C 0.78976 0.16336 0.06627 0.0
C191 C 0.74131 0.11746 0.03144 0.0
O192 O 0.74648 0.13446 0.02802 0.0
O193 O 0.75233 0.10911 0.03757 0.0
O194 O 0.76582 0.17112 0.01434 0.0
O195 O 0.77971 0.15082 1.00146 0.0
O196 O 0.15041 0.52221 0.20079 0.0
Cd197 Cd 0.17552 0.53438 0.21444 0.0
Cd198 Cd 0.15849 0.54649 0.24219 0.0
O199 O 0.13644 0.53275 0.22319 0.0
O200 O 0.19173 0.51951 0.20477 0.0
O201 O 0.18518 0.52196 0.23382 0.0
C202 C 0.19392 0.51561 0.2214 0.0
C203 C 0.15913 0.54048 0.27265 0.0
C204 C 0.13615 0.52347 0.20693 0.0
C205 C 0.18465 0.57673 0.22725 0.0
O206 O 0.17378 0.57295 0.23886 0.0
O207 O 0.1872 0.56324 0.21562 0.0
O208 O 0.15042 0.55181 0.26697 0.0
O209 O 0.16722 0.53217 0.26085 0.0
O210 O 0.81243 0.91064 0.58392 0.0
Cd211 Cd 0.81516 0.92784 0.56361 0.0
Cd212 Cd 0.82161 0.89596 0.54363 0.0
O213 O 0.81366 0.88363 0.56654 0.0
O214 O 0.80353 0.94849 0.57162 0.0
O215 O 0.79375 0.92683 0.54578 0.0
C216 C 0.79192 0.94145 0.55706 0.0
C217 C 0.81166 0.87966 0.51285 0.0
C218 C 0.81158 0.89276 0.58208 0.0
C219 C 0.8514 0.93284 0.55294 0.0
O220 O 0.8465 0.9148 0.54663 0.0
O221 O 0.84059 0.94139 0.55969 0.0
O222 O 0.82245 0.87426 0.52381 0.0
O223 O 0.80573 0.89384 0.51969 0.0
O224 O 0.93849 0.07299 0.23435 0.0
Cd225 Cd 0.91821 0.07367 0.25256 0.0
Cd226 Cd 0.95079 0.05796 0.27563 0.0
O227 O 0.96022 0.06408 0.24952 0.0
O228 O 0.90014 0.08725 0.24134 0.0
O229 O 0.91628 0.09977 0.26815 0.0
C230 C 0.90437 0.1012 0.25551 0.0
C231 C 0.96864 0.05973 0.30568 0.0
C232 C 0.9535 0.06897 0.23477 0.0
C233 C 0.91069 0.03275 0.26576 0.0
O234 O 0.927 0.03636 0.27205 0.0
O235 O 0.90475 0.04544 0.25854 0.0
O236 O 0.96762 0.04664 0.29132 0.0
O237 O 0.96064 0.0727 0.30287 0.0
O238 O 0.30729 0.67637 0.56679 0.0
Cd239 Cd 0.29808 0.65158 0.54716 0.0
Cd240 Cd 0.29348 0.67623 0.52481 0.0
O241 O 0.30416 0.69695 0.54822 0.0
O242 O 0.30867 0.63186 0.55577 0.0
O243 O 0.31392 0.6435 0.52975 0.0
C244 C 0.31664 0.63213 0.54109 0.0
C245 C 0.30336 0.68113 0.49641 0.0
C246 C 0.30878 0.6936 0.56426 0.0
C247 C 0.26133 0.64602 0.53038 0.0
O248 O 0.26763 0.66052 0.52286 0.0
O249 O 0.27137 0.63969 0.54088 0.0
O250 O 0.29304 0.69043 0.50368 0.0
O251 O 0.30858 0.66925 0.5056 0.0
O252 O 0.43835 0.57358 0.73422 0.0
Cd253 Cd 0.41814 0.5746 0.7524 0.0
Cd254 Cd 0.45013 0.55879 0.77571 0.0
O255 O 0.45978 0.56447 0.74964 0.0
O256 O 0.40044 0.58856 0.74117 0.0
O257 O 0.41652 0.60073 0.76811 0.0
C258 C 0.40477 0.60241 0.75543 0.0
C259 C 0.46794 0.56077 0.80573 0.0
C260 C 0.45325 0.56935 0.7348 0.0
C261 C 0.40996 0.53398 0.76603 0.0
O262 O 0.42621 0.53744 0.77247 0.0
O263 O 0.40429 0.5466 0.75842 0.0
O264 O 0.46683 0.54751 0.79149 0.0
O265 O 0.46003 0.57379 0.80278 0.0
O266 O 0.63684 0.03074 0.72447 0.0
Cd267 Cd 0.65882 0.03935 0.74424 0.0
Cd268 Cd 0.63814 0.05535 0.76465 0.0
O269 O 0.62051 0.04586 0.74045 0.0
O270 O 0.6758 0.02596 0.73407 0.0
O271 O 0.66514 0.02149 0.7606 0.0
C272 C 0.67555 0.01797 0.74872 0.0
C273 C 0.63091 0.04214 0.79094 0.0
C274 C 0.62257 0.03555 0.72563 0.0
C275 C 0.67094 0.0825 0.75854 0.0
O276 O 0.65735 0.08105 0.76685 0.0
O277 O 0.67343 0.06771 0.7488 0.0
O278 O 0.62458 0.05577 0.7863 0.0
O279 O 0.64168 0.03626 0.78073 0.0
O280 O 0.80279 0.70038 0.04161 0.0
Cd281 Cd 0.79738 0.67904 0.01819 0.0
Cd282 Cd 0.78257 0.70548 1.00347 0.0
O283 O 0.7912 0.72156 0.03011 0.0
O284 O 0.81083 0.66096 0.0258 0.0
O285 O 0.81667 0.67649 1.0023 0.0
C286 C 0.82043 0.66481 0.01277 0.0
C287 C 0.78963 0.71956 0.9772 0.0
C288 C 0.79907 0.7165 0.04371 0.0
C289 C 0.75807 0.66673 1.00486 0.0
O290 O 0.75964 0.6834 1.00064 0.0
O291 O 0.77153 0.66208 0.01146 0.0
O292 O 0.77805 0.72397 0.98708 0.0
O293 O 0.79741 0.70717 0.98232 0.0
O294 O 0.9354 0.56667 0.78586 0.0
Cd295 Cd 0.92898 0.56824 0.81276 0.0
Cd296 Cd 0.96199 0.57187 0.8207 0.0
O297 O 0.96381 0.57876 0.79468 0.0
O298 O 0.90469 0.57068 0.80967 0.0
O299 O 0.92713 0.59373 0.82594 0.0
C300 C 0.91062 0.58783 0.8193 0.0
C301 C 0.97985 0.59189 0.84654 0.0
C302 C 0.9508 0.57325 0.78183 0.0
C303 C 0.93804 0.53487 0.82497 0.0
O304 O 0.95349 0.54281 0.82186 0.0
O305 O 0.92641 0.54405 0.8247 0.0
O306 O 0.98601 0.58138 0.83449 0.0
O307 O 0.96338 0.59138 0.84362 0.0
O308 O 0.78118 0.45283 0.53743 0.0
Cd309 Cd 0.79206 0.46418 0.51549 0.0
Cd310 Cd 0.78815 0.42745 0.50143 0.0
O311 O 0.77156 0.42323 0.52147 0.0
O312 O 0.78781 0.48994 0.51626 0.0
O313 O 0.77587 0.46526 0.49318 0.0
C314 C 0.77751 0.48298 0.5007 0.0
C315 C 0.78027 0.40732 0.47238 0.0
C316 C 0.77214 0.43544 0.53603 0.0
C317 C 0.825 0.45289 0.51323 0.0
O318 O 0.81502 0.43576 0.50962 0.0
O319 O 0.81841 0.46714 0.51462 0.0
O320 O 0.78434 0.40096 0.48727 0.0
O321 O 0.77992 0.42514 0.47405 0.0
O322 O 0.66919 0.5173 0.25403 0.0
Cd323 Cd 0.69147 0.51989 0.27401 0.0
Cd324 Cd 0.66404 0.54012 0.29801 0.0
O325 O 0.65095 0.53084 0.26959 0.0
O326 O 0.7078 0.50445 0.26152 0.0
O327 O 0.69567 0.49638 0.28583 0.0
C328 C 0.70557 0.49275 0.27337 0.0
C329 C 0.64904 0.53932 0.32665 0.0
C330 C 0.65505 0.52294 0.25419 0.0
C331 C 0.70163 0.56476 0.29168 0.0
O332 O 0.68708 0.56281 0.29865 0.0
O333 O 0.70558 0.55002 0.28283 0.0
O334 O 0.64762 0.55093 0.31516 0.0
O335 O 0.65847 0.52772 0.3219 0.0
Ho336 Ho 0.03329 0.03988 0.02061 0.0
Ho337 Ho 0.07091 0.06572 0.03972 0.0
C338 C 0.04383 0.08525 0.0197 0.0
C339 C 1.0002 0.02188 0.01377 0.0
C340 C 0.98352 0.0265 0.01634 0.0
C341 C 0.98256 0.04122 0.03062 0.0
C342 C 0.96687 0.04652 0.03173 0.0
C343 C 0.95199 0.03741 0.01838 0.0
C344 C 0.95306 0.02253 1.00423 0.0
C345 C 0.96868 0.0171 1.00328 0.0
C346 C 0.05724 0.04083 0.99463 0.0
C347 C 0.06055 0.01933 0.03852 0.0
C348 C 0.1041 0.08297 0.04389 0.0
C349 C 0.11822 0.07911 0.03349 0.0
C350 C 0.11629 0.06062 0.02331 0.0
C351 C 0.12941 0.05692 0.01299 0.0
C352 C 0.14478 0.07163 0.01272 0.0
C353 C 0.14662 0.09021 0.02283 0.0
C354 C 0.13337 0.09393 0.03309 0.0
C355 C 0.04727 0.06554 0.06586 0.0
O356 O 0.03077 0.06993 0.02026 0.0
O357 O 0.0605 0.086 0.02455 0.0
O358 O 0.00898 0.03078 1.00181 0.0
O359 O 0.01028 0.02135 0.02885 0.0
O360 O 0.0408 0.03119 0.99171 0.0
O361 O 0.05991 0.04884 0.01176 0.0
O362 O 0.07327 0.03554 0.04005 0.0
O363 O 0.04393 0.01792 0.03265 0.0
O364 O 0.09719 0.06978 0.05355 0.0
O365 O 0.09222 0.08884 0.03448 0.0
O366 O 0.06376 0.07514 0.06856 0.0
O367 O 0.04431 0.05708 0.04881 0.0
H368 H 0.994 0.04884 0.04067 0.0
H369 H 0.96646 0.05785 0.04296 0.0
H370 H 0.94202 0.01544 0.99352 0.0
H371 H 0.96931 1.0059 0.99201 0.0
H372 H 0.10459 0.04901 0.02329 0.0
H373 H 0.1277 0.04239 1.00562 0.0
H374 H 0.15829 0.10183 0.02282 0.0
H375 H 0.13498 0.10834 0.04073 0.0
Ho376 Ho 0.31451 0.80761 0.23905 0.0
Ho377 Ho 0.3107 0.81254 0.28049 0.0
C378 C 0.33067 0.84945 0.26567 0.0
C379 C 0.31144 0.80997 0.20403 0.0
C380 C 0.29777 0.81541 0.19276 0.0
C381 C 0.28892 0.8282 0.20115 0.0
C382 C 0.27552 0.83293 0.19068 0.0
C383 C 0.27073 0.82499 0.1716 0.0
C384 C 0.27949 0.81198 0.1633 0.0
C385 C 0.29288 0.8072 0.17383 0.0
C386 C 0.33866 0.79635 0.26013 0.0
C387 C 0.29355 0.77188 0.25405 0.0
C388 C 0.31117 0.80929 0.31529 0.0
C389 C 0.31586 0.79531 0.32591 0.0
C390 C 0.32229 0.78045 0.31716 0.0
C391 C 0.32711 0.7674 0.32745 0.0
C392 C 0.32562 0.76909 0.34665 0.0
C393 C 0.3192 0.78407 0.35531 0.0
C394 C 0.31437 0.79709 0.345 0.0
C395 C 0.28675 0.82377 0.25882 0.0
O396 O 0.32397 0.83989 0.24865 0.0
O397 O 0.32897 0.84125 0.2806 0.0
O398 O 0.32151 0.82372 0.21693 0.0
O399 O 0.30616 0.79373 0.21012 0.0
O400 O 0.33326 0.78914 0.24263 0.0
O401 O 0.33267 0.81053 0.26467 0.0
O402 O 0.30304 0.78031 0.27033 0.0
O403 O 0.2929 0.78166 0.2403 0.0
O404 O 0.29695 0.80272 0.30309 0.0
O405 O 0.32426 0.81997 0.30864 0.0
O406 O 0.29283 0.83191 0.276 0.0
O407 O 0.29255 0.80937 0.25481 0.0
H408 H 0.29237 0.83453 0.21584 0.0
H409 H 0.26892 0.84284 0.19752 0.0
H410 H 0.27631 0.80586 0.14855 0.0
H411 H 0.29948 0.79719 0.16718 0.0
H412 H 0.32363 0.77901 0.30241 0.0
H413 H 0.3321 0.75609 0.32044 0.0
H414 H 0.3176 0.78553 0.37 0.0
H415 H 0.30945 0.80851 0.35193 0.0
Ho416 Ho 0.57305 0.05326 0.52739 0.0
Ho417 Ho 0.53344 0.04675 0.51279 0.0
C418 C 0.54896 1.01048 0.5068 0.0
C419 C 0.60294 0.05217 0.54414 0.0
C420 C 0.61546 0.04015 0.54362 0.0
C421 C 0.62344 0.03732 0.56055 0.0
C422 C 0.63654 0.02758 0.56072 0.0
C423 C 0.64207 0.0205 0.54393 0.0
C424 C 0.63361 0.02278 0.5269 0.0
C425 C 0.62043 0.03251 0.52675 0.0
C426 C 0.56582 0.05998 0.49255 0.0
C427 C 0.55753 0.0897 0.53314 0.0
C428 C 0.50341 0.04755 0.49608 0.0
C429 C 0.49032 0.05876 0.49751 0.0
C430 C 0.49532 0.079 0.50209 0.0
C431 C 0.48251 0.08921 0.50269 0.0
C432 C 0.46447 0.07935 0.4987 0.0
C433 C 0.45959 0.05906 0.49432 0.0
C434 C 0.47238 0.04891 0.49372 0.0
C435 C 0.54069 0.04067 0.54786 0.0
O436 O 0.56295 0.02073 0.51875 0.0
O437 O 0.53705 0.01844 0.49997 0.0
O438 O 0.60144 0.06123 0.53009 0.0
O439 O 0.58784 0.04512 0.54991 0.0
O440 O 0.57983 0.06973 0.50389 0.0
O441 O 0.5572 0.04655 0.49981 0.0
O442 O 0.54337 0.07924 0.52153 0.0
O443 O 0.56974 0.08197 0.53975 0.0
O444 O 0.50492 0.03734 0.50919 0.0
O445 O 0.51862 0.05602 0.4913 0.0
O446 O 0.52655 0.03092 0.53675 0.0
O447 O 0.54933 0.05384 0.54036 0.0
H448 H 0.61977 0.04302 0.57373 0.0
H449 H 0.64247 0.02574 0.57407 0.0
H450 H 0.63757 0.01763 0.51371 0.0
H451 H 0.61444 0.03445 0.51347 0.0
H452 H 0.50909 0.08693 0.50501 0.0
H453 H 0.48674 0.10483 0.50596 0.0
H454 H 0.44585 0.05096 0.4915 0.0
H455 H 0.46825 0.03329 0.49019 0.0
Ho456 Ho 0.28216 0.30089 0.77535 0.0
Ho457 Ho 0.32456 0.30357 0.78224 0.0
C458 C 0.30364 0.31404 0.81738 0.0
C459 C 0.24832 0.28766 0.77262 0.0
C460 C 0.23304 0.29055 0.78157 0.0
C461 C 0.21904 0.27433 0.78164 0.0
C462 C 0.2043 0.27622 0.79008 0.0
C463 C 0.20319 0.29444 0.7986 0.0
C464 C 0.21738 0.31073 0.7987 0.0
C465 C 0.23222 0.30879 0.79025 0.0
C466 C 0.30357 0.33765 0.77584 0.0
C467 C 0.3029 0.29008 0.7403 0.0
C468 C 0.35818 0.31807 0.78451 0.0
C469 C 0.37358 0.31612 0.77527 0.0
C470 C 0.38682 0.33294 0.77485 0.0
C471 C 0.40132 0.33206 0.76556 0.0
C472 C 0.40293 0.31429 0.75647 0.0
C473 C 0.38972 0.29734 0.75709 0.0
C474 C 0.37508 0.29826 0.76634 0.0
C475 C 0.30344 0.26659 0.78127 0.0
O476 O 0.28814 0.30799 0.80665 0.0
O477 O 0.31899 0.31497 0.81093 0.0
O478 O 0.2561 0.30078 0.76329 0.0
O479 O 0.25943 0.28122 0.78252 0.0
O480 O 0.28643 0.33281 0.77272 0.0
O481 O 0.3075 0.32243 0.77878 0.0
O482 O 0.31843 0.29615 0.75095 0.0
O483 O 0.2876 0.28922 0.74677 0.0
O484 O 0.35103 0.30462 0.79388 0.0
O485 O 0.34655 0.32403 0.77479 0.0
O486 O 0.32061 0.27137 0.78335 0.0
O487 O 0.29917 0.28197 0.77951 0.0
H488 H 0.21953 0.26011 0.77519 0.0
H489 H 0.19385 0.26332 0.79009 0.0
H490 H 0.21692 0.32497 0.80506 0.0
H491 H 0.24299 0.32149 0.79047 0.0
H492 H 0.38588 0.34687 0.78164 0.0
H493 H 0.41136 0.34533 0.7656 0.0
H494 H 0.39053 0.28345 0.7501 0.0
H495 H 0.3649 0.28511 0.76635 0.0
Ho496 Ho 0.06085 0.06087 0.5387 0.0
Ho497 Ho 0.05701 0.0187 0.52381 0.0
C498 C 0.04589 0.04344 0.49393 0.0
C499 C 0.06937 0.09816 0.545 0.0
C500 C 0.07627 0.1131 0.53406 0.0
C501 C 0.08446 0.10883 0.51831 0.0
C502 C 0.09157 0.12334 0.50837 0.0
C503 C 0.09051 0.14231 0.51398 0.0
C504 C 0.08208 0.14639 0.52968 0.0
C505 C 0.07505 0.13189 0.53965 0.0
C506 C 0.0314 0.03635 0.54608 0.0
C507 C 0.07271 0.03636 0.56832 0.0
C508 C 0.04893 0.98138 0.5176 0.0
C509 C 0.04354 0.96625 0.52883 0.0
C510 C 0.03921 0.97073 0.54688 0.0
C511 C 0.03374 0.95612 0.5573 0.0
C512 C 0.03245 0.93679 0.54977 0.0
C513 C 0.03682 0.93244 0.53165 0.0
C514 C 0.04233 0.94706 0.52129 0.0
C515 C 0.08616 0.04357 0.51629 0.0
O516 O 0.05383 0.05889 0.50694 0.0
O517 O 0.04407 0.0258 0.49773 0.0
O518 O 0.05325 0.08753 0.53934 0.0
O519 O 0.0801 0.08801 0.54935 0.0
O520 O 0.0399 0.05225 0.55721 0.0
O521 O 0.03821 0.0351 0.53116 0.0
O522 O 0.06431 0.02085 0.55559 0.0
O523 O 0.07459 0.05391 0.56432 0.0
O524 O 0.06512 0.99227 0.52188 0.0
O525 O 0.03762 0.9913 0.5147 0.0
O526 O 0.07772 0.02776 0.505 0.0
O527 O 0.07949 0.04444 0.53128 0.0
H528 H 0.08552 0.09433 0.51382 0.0
H529 H 0.09811 0.11975 0.49646 0.0
H530 H 0.08075 0.16077 0.53416 0.0
H531 H 0.06871 0.13537 0.55175 0.0
H532 H 0.03993 0.98549 0.55285 0.0
H533 H 0.03032 0.95991 0.57113 0.0
H534 H 0.03622 0.91774 0.52558 0.0
H535 H 0.04563 0.94339 0.50736 0.0
Ho536 Ho 0.32513 0.81481 0.7769 0.0
Ho537 Ho 0.2901 0.78602 0.76217 0.0
C538 C 0.32309 0.76774 0.76907 0.0
C539 C 0.35449 0.83206 0.79773 0.0
C540 C 0.37067 0.82611 0.80132 0.0
C541 C 0.37956 0.83011 0.81954 0.0
C542 C 0.39395 0.8229 0.82357 0.0
C543 C 0.39972 0.81167 0.80937 0.0
C544 C 0.39089 0.80781 0.79107 0.0
C545 C 0.37638 0.81484 0.7871 0.0
C546 C 0.31864 0.80552 0.73944 0.0
C547 C 0.29251 0.8333 0.76885 0.0
C548 C 0.26051 0.76626 0.74283 0.0
C549 C 0.24214 0.76701 0.74228 0.0
C550 C 0.23791 0.78469 0.74587 0.0
C551 C 0.22041 0.78505 0.74634 0.0
C552 C 0.2069 0.76772 0.7434 0.0
C553 C 0.21121 0.75005 0.73977 0.0
C554 C 0.2287 0.74973 0.73919 0.0
C555 C 0.29637 0.79623 0.7998 0.0
O556 O 0.332 0.78563 0.7774 0.0
O557 O 0.30684 0.76461 0.76046 0.0
O558 O 0.35073 0.83545 0.78088 0.0
O559 O 0.34083 0.82183 0.804 0.0
O560 O 0.32736 0.82262 0.74827 0.0
O561 O 0.31499 0.79419 0.75089 0.0
O562 O 0.28339 0.81522 0.76114 0.0
O563 O 0.30891 0.8367 0.77728 0.0
O564 O 0.26705 0.76174 0.75812 0.0
O565 O 0.27151 0.78034 0.73709 0.0
O566 O 0.28735 0.7792 0.79124 0.0
O567 O 0.30016 0.80696 0.78795 0.0
H568 H 0.37517 0.83854 0.83072 0.0
H569 H 0.40067 0.82624 0.83775 0.0
H570 H 0.39502 0.79907 0.77993 0.0
H571 H 0.36945 0.81119 0.773 0.0
H572 H 0.24814 0.79817 0.7485 0.0
H573 H 0.21748 0.79886 0.7493 0.0
H574 H 0.20104 0.73648 0.73719 0.0
H575 H 0.23175 0.73595 0.73651 0.0
Ho576 Ho 0.53242 0.03838 0.04274 0.0
Ho577 Ho 0.52106 1.00279 0.01032 0.0
C578 C 0.49658 1.00359 0.0418 0.0
C579 C 0.53448 0.06916 0.06655 0.0
C580 C 0.52258 0.07731 0.07739 0.0
C581 C 0.52943 0.09443 0.09033 0.0
C582 C 0.51852 0.10178 0.10164 0.0
C583 C 0.5005 0.09214 0.10015 0.0
C584 C 0.49357 0.07533 0.08657 0.0
C585 C 0.50456 0.06793 0.07536 0.0
C586 C 0.54889 1.01056 0.04566 0.0
C587 C 0.55769 0.03631 0.01184 0.0
C588 C 0.51944 0.97438 0.98386 0.0
C589 C 0.53181 0.97084 0.97074 0.0
C590 C 0.55008 0.97715 0.97628 0.0
C591 C 0.5617 0.97703 0.96296 0.0
C592 C 0.55528 0.97061 0.94386 0.0
C593 C 0.53697 0.96327 0.93856 0.0
C594 C 0.52537 0.9634 0.95188 0.0
C595 C 0.50552 0.03159 1.00799 0.0
O596 O 0.50502 0.02216 0.04719 0.0
O597 O 0.50216 0.99199 0.02952 0.0
O598 O 0.5377 0.05358 0.0713 0.0
O599 O 0.53166 0.06812 0.04843 0.0
O600 O 0.55622 0.02879 0.05185 0.0
O601 O 0.53291 1.00809 0.0396 0.0
O602 O 0.54867 0.01805 1.00613 0.0
O603 O 0.55247 0.04818 0.02416 0.0
O604 O 0.51287 0.98877 0.98151 0.0
O605 O 0.52413 0.97421 1.00151 0.0
O606 O 0.49719 1.01344 1.00306 0.0
O607 O 0.52141 0.03318 0.01335 0.0
H608 H 0.54334 0.10184 0.09203 0.0
H609 H 0.52438 0.11458 0.11209 0.0
H610 H 0.47972 0.06773 0.08481 0.0
H611 H 0.49905 0.05476 0.06531 0.0
H612 H 0.55537 0.98298 0.99077 0.0
H613 H 0.57569 0.98263 0.96752 0.0
H614 H 0.53149 0.95849 0.92397 0.0
H615 H 0.51131 0.95862 0.94732 0.0
Ho616 Ho 0.32341 0.33132 0.29064 0.0
Ho617 Ho 0.29957 0.28752 0.28065 0.0
C618 C 0.2802 0.32111 0.28463 0.0
C619 C 0.33678 0.36796 0.29357 0.0
C620 C 0.32986 0.38284 0.28658 0.0
C621 C 0.3154 0.37744 0.27248 0.0
C622 C 0.30814 0.39135 0.26636 0.0
C623 C 0.31499 0.41087 0.27452 0.0
C624 C 0.32942 0.4163 0.28873 0.0
C625 C 0.3369 0.40233 0.29465 0.0
C626 C 0.3222 0.31008 0.31833 0.0
C627 C 0.34134 0.29837 0.27813 0.0
C628 C 0.2854 0.25296 0.28587 0.0
C629 C 0.29179 0.24181 0.29879 0.0
C630 C 0.30756 0.25036 0.31073 0.0
C631 C 0.31412 0.24011 0.32301 0.0
C632 C 0.30558 0.22059 0.32286 0.0
C633 C 0.28963 0.21205 0.31083 0.0
C634 C 0.28271 0.22267 0.29903 0.0
C635 C 0.30272 0.30393 0.24941 0.0
O636 O 0.29567 0.3341 0.28626 0.0
O637 O 0.27832 0.30232 0.28331 0.0
O638 O 0.32841 0.36012 0.3064 0.0
O639 O 0.34008 0.35521 0.28072 0.0
O640 O 0.33597 0.32348 0.31648 0.0
O641 O 0.30974 0.30946 0.30608 0.0
O642 O 0.32784 0.2862 0.28331 0.0
O643 O 0.34167 0.31649 0.27735 0.0
O644 O 0.29507 0.25671 0.2725 0.0
O645 O 0.28105 0.26811 0.29386 0.0
O646 O 0.29332 0.2864 0.24927 0.0
O647 O 0.30932 0.31102 0.26604 0.0
H648 H 0.30945 0.36242 0.26648 0.0
H649 H 0.29677 0.38677 0.25568 0.0
H650 H 0.33483 0.43129 0.29526 0.0
H651 H 0.34794 0.40667 0.30572 0.0
H652 H 0.31497 0.26496 0.31033 0.0
H653 H 0.32614 0.24746 0.3323 0.0
H654 H 0.28279 0.19698 0.30996 0.0
H655 H 0.27057 0.21579 0.28973 0.0
Ho656 Ho 0.55965 0.56198 0.03892 0.0
Ho657 Ho 0.55667 0.52014 0.02338 0.0
C658 C 0.54472 0.5448 0.99388 0.0
C659 C 0.56713 0.59928 0.04576 0.0
C660 C 0.56873 0.61493 0.03488 0.0
C661 C 0.56723 0.61111 0.01529 0.0
C662 C 0.56946 0.62626 1.00516 0.0
C663 C 0.57341 0.64547 0.01451 0.0
C664 C 0.57471 0.64918 0.03414 0.0
C665 C 0.57235 0.63401 0.04423 0.0
C666 C 0.53036 0.53643 0.04493 0.0
C667 C 0.57195 0.53736 0.06827 0.0
C668 C 0.54816 0.48283 0.01717 0.0
C669 C 0.54452 0.46708 0.02827 0.0
C670 C 0.52728 0.4591 0.03191 0.0
C671 C 0.52362 0.44366 0.04162 0.0
C672 C 0.53709 0.43574 0.04783 0.0
C673 C 0.55435 0.44383 0.04433 0.0
C674 C 0.55802 0.45929 0.03461 0.0
C675 C 0.58586 0.54558 0.01704 0.0
O676 O 0.55129 0.56013 1.00741 0.0
O677 O 0.54424 0.52719 0.99707 0.0
O678 O 0.55127 0.58803 0.04522 0.0
O679 O 0.57898 0.58969 0.04421 0.0
O680 O 0.53871 0.55174 0.05696 0.0
O681 O 0.53746 0.53608 0.03016 0.0
O682 O 0.56498 0.52196 0.0549 0.0
O683 O 0.57263 0.55498 0.06498 0.0
O684 O 0.56442 0.49352 0.01879 0.0
O685 O 0.53669 0.49296 0.01651 0.0
O686 O 0.57765 0.52997 1.00528 0.0
O687 O 0.57887 0.54609 0.0319 0.0
H688 H 0.56464 0.59648 1.00785 0.0
H689 H 0.56858 0.62298 0.99007 0.0
H690 H 0.57758 0.66383 0.04168 0.0
H691 H 0.57355 0.63719 0.05935 0.0
H692 H 0.51651 0.46459 0.02702 0.0
H693 H 0.51014 0.43759 0.04383 0.0
H694 H 0.56506 0.4382 0.0491 0.0
H695 H 0.57141 0.465 0.03193 0.0
Ho696 Ho 0.82111 0.3111 0.27035 0.0
Ho697 Ho 0.78571 0.28134 0.26326 0.0
C698 C 0.81997 0.26453 0.26822 0.0
C699 C 0.85197 0.33201 0.28528 0.0
C700 C 0.86907 0.32801 0.28924 0.0
C701 C 0.87034 0.31185 0.29716 0.0
C702 C 0.88667 0.30837 0.3011 0.0
C703 C 0.90205 0.32086 0.29704 0.0
C704 C 0.90065 0.33676 0.28868 0.0
C705 C 0.88429 0.34033 0.28487 0.0
C706 C 0.80942 0.2959 0.23416 0.0
C707 C 0.78718 0.32812 0.26478 0.0
C708 C 0.75497 0.25942 0.24885 0.0
C709 C 0.7366 0.26014 0.24821 0.0
C710 C 0.73216 0.27772 0.24936 0.0
C711 C 0.71452 0.27798 0.24839 0.0
C712 C 0.70109 0.26065 0.24639 0.0
C713 C 0.70568 0.24312 0.24557 0.0
C714 C 0.72329 0.24289 0.24646 0.0
C715 C 0.7971 0.29678 0.2996 0.0
O716 O 0.82918 0.28301 0.27372 0.0
O717 O 0.8029 0.26035 0.2619 0.0
O718 O 0.84615 0.3304 0.26758 0.0
O719 O 0.83968 0.3245 0.29502 0.0
O720 O 0.81855 0.31374 0.23979 0.0
O721 O 0.80811 0.28719 0.24783 0.0
O722 O 0.77768 0.3096 0.26042 0.0
O723 O 0.80442 0.33239 0.27019 0.0
O724 O 0.76271 0.25857 0.2652 0.0
O725 O 0.7651 0.27116 0.2398 0.0
O726 O 0.78807 0.27896 0.29384 0.0
O727 O 0.79855 0.30536 0.28584 0.0
H728 H 0.85876 0.30201 0.30054 0.0
H729 H 0.88727 0.29615 0.30779 0.0
H730 H 0.91219 0.34649 0.2851 0.0
H731 H 0.88353 0.35275 0.27857 0.0
H732 H 0.74229 0.2912 0.25086 0.0
H733 H 0.71139 0.29171 0.24922 0.0
H734 H 0.69562 0.22952 0.24375 0.0
H735 H 0.72651 0.2292 0.24559 0.0
Ho736 Ho 0.04965 0.53146 0.53344 0.0
Ho737 Ho 0.03906 0.52493 0.49068 0.0
C738 C 0.01086 0.50453 0.51426 0.0
C739 C 0.05194 0.53719 0.56935 0.0
C740 C 0.03963 0.53692 0.5832 0.0
C741 C 0.02516 0.54463 0.58089 0.0
C742 C 0.0142 0.54507 0.59483 0.0
C743 C 0.01749 0.53766 0.61114 0.0
C744 C 0.03151 0.52916 0.61291 0.0
C745 C 0.04254 0.52891 0.5991 0.0
C746 C 0.06424 0.50738 0.51276 0.0
C747 C 0.0766 0.55449 0.51067 0.0
C748 C 0.04006 0.5172 0.45537 0.0
C749 C 0.05546 0.51811 0.44531 0.0
C750 C 0.05607 0.50217 0.43228 0.0
C751 C 0.07126 0.50232 0.42384 0.0
C752 C 0.08611 0.5184 0.42839 0.0
C753 C 0.08552 0.53419 0.4417 0.0
C754 C 0.07035 0.53409 0.45 0.0
C755 C 0.02562 0.5505 0.51083 0.0
O756 O 0.02065 0.51621 0.5292 0.0
O757 O 0.01626 0.50326 0.4976 0.0
O758 O 0.0511 0.52045 0.55933 0.0
O759 O 0.05372 0.55113 0.55956 0.0
O760 O 0.07229 0.51885 0.52804 0.0
O761 O 0.04862 0.5084 0.50997 0.0
O762 O 0.06781 0.54199 0.49569 0.0
O763 O 0.07055 0.55536 0.52694 0.0
O764 O 0.03828 0.53373 0.46364 0.0
O765 O 0.03726 0.50389 0.46587 0.0
O766 O 0.01745 0.53968 0.49516 0.0
O767 O 0.04079 0.54828 0.51393 0.0
H768 H 0.02253 0.55061 0.56853 0.0
H769 H 1.00355 0.55178 0.5931 0.0
H770 H 0.03413 0.52294 0.62513 0.0
H771 H 0.05349 0.52266 0.60095 0.0
H772 H 0.04484 0.48958 0.42871 0.0
H773 H 0.07123 0.49001 0.41348 0.0
H774 H 0.09681 0.54667 0.44573 0.0
H775 H 0.07038 0.54649 0.46023 0.0
Ho776 Ho 0.78513 0.79806 0.27296 0.0
Ho777 Ho 0.82427 0.79798 0.28145 0.0
C778 C 0.80516 0.81204 0.31548 0.0
C779 C 0.75123 0.7851 0.26948 0.0
C780 C 0.73579 0.78702 0.27872 0.0
C781 C 0.72418 0.77019 0.28212 0.0
C782 C 0.7092 0.77107 0.29052 0.0
C783 C 0.70537 0.78882 0.2956 0.0
C784 C 0.71714 0.80578 0.29235 0.0
C785 C 0.73224 0.80489 0.28397 0.0
C786 C 0.80632 0.83482 0.27362 0.0
C787 C 0.80581 0.79028 0.23824 0.0
C788 C 0.85777 0.8015 0.2831 0.0
C789 C 0.87228 0.80484 0.27143 0.0
C790 C 0.8795 0.82305 0.26674 0.0
C791 C 0.89436 0.82623 0.2573 0.0
C792 C 0.90236 0.81131 0.25245 0.0
C793 C 0.89476 0.79298 0.25667 0.0
C794 C 0.87998 0.78983 0.2661 0.0
C795 C 0.79974 0.76528 0.28588 0.0
O796 O 0.78996 0.80488 0.30443 0.0
O797 O 0.8205 0.81299 0.30926 0.0
O798 O 0.7593 0.79921 0.2614 0.0
O799 O 0.76208 0.77748 0.27835 0.0
O800 O 0.7892 0.82982 0.27072 0.0
O801 O 0.81088 0.81982 0.27629 0.0
O802 O 0.82059 0.79499 0.25 0.0
O803 O 0.79022 0.78889 0.24389 0.0
O804 O 0.84577 0.78493 0.2786 0.0
O805 O 0.85114 0.81587 0.28844 0.0
O806 O 0.81438 0.77335 0.29689 0.0
O807 O 0.799 0.77506 0.27286 0.0
H808 H 0.72669 0.75627 0.27825 0.0
H809 H 0.70068 0.75778 0.29316 0.0
H810 H 0.71453 0.81967 0.296 0.0
H811 H 0.74104 0.8181 0.28152 0.0
H812 H 0.87396 0.83498 0.27073 0.0
H813 H 0.89994 0.84055 0.2544 0.0
H814 H 0.90037 0.78107 0.25286 0.0
H815 H 0.87478 0.77568 0.26959 0.0
Ho816 Ho 0.81498 0.30218 0.74596 0.0
Ho817 Ho 0.80982 0.30858 0.78696 0.0
C818 C 0.83034 0.34514 0.77036 0.0
C819 C 0.81292 0.30178 0.71041 0.0
C820 C 0.80775 0.31447 0.69845 0.0
C821 C 0.80669 0.33287 0.70629 0.0
C822 C 0.79914 0.34371 0.69538 0.0
C823 C 0.79252 0.33628 0.67648 0.0
C824 C 0.79415 0.31807 0.66857 0.0
C825 C 0.80166 0.30723 0.67951 0.0
C826 C 0.8378 0.29124 0.76894 0.0
C827 C 0.79495 0.26661 0.7639 0.0
C828 C 0.81122 0.31355 0.82271 0.0
C829 C 0.80286 0.30024 0.83469 0.0
C830 C 0.80454 0.2813 0.83251 0.0
C831 C 0.79592 0.26837 0.84313 0.0
C832 C 0.78517 0.27392 0.85599 0.0
C833 C 0.78334 0.29284 0.85803 0.0
C834 C 0.79217 0.30591 0.84749 0.0
C835 C 0.78147 0.30692 0.76251 0.0
O836 O 0.82851 0.33402 0.75384 0.0
O837 O 0.82387 0.33867 0.78495 0.0
O838 O 0.8277 0.30893 0.72176 0.0
O839 O 0.8001 0.29256 0.71852 0.0
O840 O 0.8319 0.28236 0.75193 0.0
O841 O 0.83224 0.30593 0.77224 0.0
O842 O 0.80311 0.27645 0.7803 0.0
O843 O 0.79529 0.27472 0.74881 0.0
O844 O 0.80047 0.31982 0.81211 0.0
O845 O 0.82347 0.30854 0.81385 0.0
O846 O 0.78058 0.29953 0.77765 0.0
O847 O 0.79724 0.31532 0.76138 0.0
H848 H 0.81109 0.33855 0.721 0.0
H849 H 0.79795 0.35761 0.7019 0.0
H850 H 0.78946 0.31211 0.65396 0.0
H851 H 0.80225 0.29296 0.67331 0.0
H852 H 0.81251 0.27638 0.82257 0.0
H853 H 0.79799 0.25409 0.84146 0.0
H854 H 0.77503 0.29752 0.86768 0.0
H855 H 0.79049 0.32036 0.84917 0.0
Ho856 Ho 0.81314 0.82824 0.78529 0.0
Ho857 Ho 0.78943 0.784 0.77567 0.0
C858 C 0.77018 0.81736 0.78312 0.0
C859 C 0.82536 0.86501 0.78763 0.0
C860 C 0.81675 0.87945 0.78237 0.0
C861 C 0.80043 0.8734 0.77101 0.0
C862 C 0.791 0.88659 0.76777 0.0
C863 C 0.79777 0.90624 0.77565 0.0
C864 C 0.81446 0.9124 0.78653 0.0
C865 C 0.82384 0.89905 0.78995 0.0
C866 C 0.81218 0.80714 0.81292 0.0
C867 C 0.83105 0.79509 0.77081 0.0
C868 C 0.77541 0.74894 0.7793 0.0
C869 C 0.78028 0.73108 0.77366 0.0
C870 C 0.79328 0.73094 0.76183 0.0
C871 C 0.80174 0.71626 0.76069 0.0
C872 C 0.79735 0.70163 0.77147 0.0
C873 C 0.78321 0.70093 0.78197 0.0
C874 C 0.77478 0.71564 0.78311 0.0
C875 C 0.79359 0.80032 0.74441 0.0
O876 O 0.78513 0.83027 0.78221 0.0
O877 O 0.76892 0.79883 0.78282 0.0
O878 O 0.81934 0.85696 0.80154 0.0
O879 O 0.82738 0.85244 0.77375 0.0
O880 O 0.82595 0.82051 0.81089 0.0
O881 O 0.7995 0.80643 0.80081 0.0
O882 O 0.8172 0.7819 0.77418 0.0
O883 O 0.8318 0.81367 0.77223 0.0
O884 O 0.76963 0.75683 0.76584 0.0
O885 O 0.78712 0.7614 0.792 0.0
O886 O 0.78497 0.78245 0.74396 0.0
O887 O 0.79914 0.80752 0.76122 0.0
H888 H 0.79465 0.85834 0.7651 0.0
H889 H 0.77806 0.88117 0.75967 0.0
H890 H 0.82017 0.92746 0.79262 0.0
H891 H 0.83641 0.90395 0.79882 0.0
H892 H 0.79779 0.74291 0.75458 0.0
H893 H 0.81246 0.71703 0.75235 0.0
H894 H 0.77966 0.68994 0.79056 0.0
H895 H 0.76492 0.71573 0.79249 0.0
Ho896 Ho 0.53376 0.53686 0.52231 0.0
Ho897 Ho 0.5716 0.56314 0.54075 0.0
C898 C 0.54411 0.58214 0.52068 0.0
C899 C 0.50063 0.51913 0.51678 0.0
C900 C 0.48471 0.52467 0.52105 0.0
C901 C 0.48584 0.54102 0.53441 0.0
C902 C 0.47096 0.54756 0.53686 0.0
C903 C 0.45478 0.53809 0.52568 0.0
C904 C 0.45366 0.52139 0.51263 0.0
C905 C 0.46853 0.51473 0.51037 0.0
C906 C 0.55736 0.53758 0.49601 0.0
C907 C 0.56145 0.51688 0.54045 0.0
C908 C 0.60472 0.58049 0.54434 0.0
C909 C 0.61883 0.57653 0.53395 0.0
C910 C 0.61753 0.5577 0.525 0.0
C911 C 0.63059 0.55397 0.5146 0.0
C912 C 0.64527 0.569 0.51297 0.0
C913 C 0.64647 0.5879 0.52187 0.0
C914 C 0.63331 0.59163 0.53224 0.0
C915 C 0.54811 0.56339 0.56702 0.0
O916 O 0.53116 0.56687 0.52167 0.0
O917 O 0.56084 0.583 0.52529 0.0
O918 O 0.50885 0.52812 0.50452 0.0
O919 O 0.51133 0.51797 0.53109 0.0
O920 O 0.54092 0.52788 0.49329 0.0
O921 O 0.56018 0.54575 0.51309 0.0
O922 O 0.57409 0.53309 0.54165 0.0
O923 O 0.54477 0.51528 0.53462 0.0
O924 O 0.59801 0.56759 0.55439 0.0
O925 O 0.5927 0.58604 0.5348 0.0
O926 O 0.56458 0.57308 0.56956 0.0
O927 O 0.54516 0.55464 0.55009 0.0
H928 H 0.49834 0.54906 0.54255 0.0
H929 H 0.47223 0.56027 0.54724 0.0
H930 H 0.4415 0.51391 0.5036 0.0
H931 H 0.46753 0.50223 0.49981 0.0
H932 H 0.60634 0.54585 0.52596 0.0
H933 H 0.62938 0.53921 0.50819 0.0
H934 H 0.65756 0.59979 0.52077 0.0
H935 H 0.63441 0.60629 0.5389 0.0
Ho936 Ho 0.07437 0.55327 0.0342 0.0
Ho937 Ho 0.0354 0.54781 0.01696 0.0
C938 C 0.05146 0.51201 1.00858 0.0
C939 C 0.10294 0.55032 0.05236 0.0
C940 C 0.11559 0.53854 0.05104 0.0
C941 C 0.12544 0.53708 0.06745 0.0
C942 C 0.1387 0.52755 0.06659 0.0
C943 C 0.14247 0.51931 0.04926 0.0
C944 C 0.1321 0.5202 0.03283 0.0
C945 C 0.11878 0.52973 0.03371 0.0
C946 C 0.06986 0.56415 1.0008 0.0
C947 C 0.05839 0.58928 0.04204 0.0
C948 C 1.00683 0.55096 0.99893 0.0
C949 C 0.99427 0.56278 1.00068 0.0
C950 C 0.98463 0.565 0.98446 0.0
C951 C 0.97199 0.57534 0.98569 0.0
C952 C 0.96872 0.58368 1.00321 0.0
C953 C 0.97874 0.58179 0.01946 0.0
C954 C 0.99144 0.57148 0.0182 0.0
C955 C 0.03991 0.53765 0.05068 0.0
O956 O 0.06517 0.52148 0.02127 0.0
O957 O 0.0394 0.52023 1.0026 0.0
O958 O 0.10272 0.56155 0.03991 0.0
O959 O 0.08715 0.54192 0.05585 0.0
O960 O 0.08328 0.57261 0.01343 0.0
O961 O 0.06048 0.54965 1.00605 0.0
O962 O 0.04459 0.57959 0.02957 0.0
O963 O 0.07059 0.58124 0.04812 0.0
O964 O 1.007 0.53923 0.01091 0.0
O965 O 0.02262 0.55975 0.99591 0.0
O966 O 0.02642 0.52902 0.03821 0.0
O967 O 0.04936 0.55193 0.04521 0.0
H968 H 0.12312 0.54368 0.08096 0.0
H969 H 0.14612 0.52681 0.07955 0.0
H970 H 0.13467 0.51412 0.01924 0.0
H971 H 0.11128 0.53063 0.02085 0.0
H972 H 0.98669 0.55844 0.97081 0.0
H973 H 0.96443 0.57632 0.97291 0.0
H974 H 0.97675 0.58828 0.03315 0.0
H975 H 0.9989 0.57012 0.0309 0.0
C976 C 0.02891 0.2146 0.93528 0.0
C977 C 0.0166 0.22473 0.94014 0.0
C978 C 0.031 0.19952 0.94437 0.0
C979 C 0.02021 0.17742 0.98667 0.0
H980 H 0.0345 0.13535 0.95919 0.0
C981 C 0.02305 0.1049 0.01185 0.0
C982 C 0.03987 0.10175 0.01214 0.0
C983 C 0.01932 0.12003 1.00377 0.0
C984 C 0.03049 0.14702 0.967 0.0
H985 H 0.99663 0.22683 0.95819 0.0
H986 H 0.99963 0.19995 0.97345 0.0
H987 H 0.02913 0.16094 0.94332 0.0
H988 H 0.06591 0.11197 1.00414 0.0
H989 H 0.05919 0.13789 0.98961 0.0
H990 H 0.02106 0.1628 1.01018 0.0
C991 C 1.00815 0.204 0.96307 0.0
C992 C 0.02756 0.16183 0.95798 0.0
C993 C 1.00633 0.21937 0.95423 0.0
C994 C 0.05286 0.11407 1.00428 0.0
C995 C 0.04902 0.12885 0.99587 0.0
C996 C 0.02278 0.16233 0.99556 0.0
C997 C 0.02055 0.19384 0.95829 0.0
C998 C 0.02269 0.17747 0.96775 0.0
C999 C 0.03222 0.13191 0.99546 0.0
C1000 C 0.02821 0.14718 0.98586 0.0
H1001 H 0.03717 0.21852 0.92463 0.0
H1002 H 0.04103 0.19251 0.94057 0.0
H1003 H 0.01672 0.18926 0.99481 0.0
H1004 H 0.01277 0.09565 0.0178 0.0
H1005 H 1.00625 0.12213 1.00357 0.0
C1006 C 0.15782 0.84508 0.16535 0.0
C1007 C 0.14195 0.83671 0.1719 0.0
C1008 C 0.17407 0.84561 0.17508 0.0
C1009 C 0.20699 0.85216 0.20382 0.0
H1010 H 0.20959 0.80422 0.21973 0.0
C1011 C 0.26587 0.84368 0.25284 0.0
C1012 C 0.27146 0.827 0.24787 0.0
C1013 C 0.25081 0.84611 0.24293 0.0
C1014 C 0.2091 0.81768 0.21529 0.0
H1015 H 0.13085 0.82305 0.19428 0.0
H1016 H 0.15912 0.82396 0.21115 0.0
H1017 H 0.18181 0.80665 0.20435 0.0
H1018 H 0.266 0.80004 0.22836 0.0
H1019 H 0.23967 0.80416 0.21126 0.0
H1020 H 0.2344 0.86311 0.21484 0.0
C1021 C 0.15898 0.82995 0.19839 0.0
C1022 C 0.19314 0.81915 0.20666 0.0
C1023 C 0.14277 0.82955 0.18877 0.0
C1024 C 0.26194 0.81299 0.23261 0.0
C1025 C 0.24683 0.81531 0.22285 0.0
C1026 C 0.22296 0.85075 0.21268 0.0
C1027 C 0.1748 0.83764 0.19148 0.0
C1028 C 0.19186 0.83639 0.20084 0.0
C1029 C 0.24097 0.83178 0.22803 0.0
C1030 C 0.22418 0.83347 0.21847 0.0
H1031 H 0.15771 0.85075 0.15242 0.0
H1032 H 0.18601 0.85156 0.16935 0.0
H1033 H 0.20641 0.86565 0.19952 0.0
H1034 H 0.27301 0.85472 0.26452 0.0
H1035 H 0.24656 0.8589 0.24729 0.0
C1036 C 0.53798 0.8377 0.4586 0.0
C1037 C 0.52535 0.82942 0.44278 0.0
C1038 C 0.54031 0.85688 0.46715 0.0
C1039 C 0.53288 0.90203 0.4552 0.0
H1040 H 0.54375 0.92119 0.50857 0.0
C1041 C 0.53281 0.97895 0.4866 0.0
C1042 C 0.54674 0.98961 0.50044 0.0
C1043 C 0.53053 0.95928 0.48053 0.0
C1044 C 0.5409 0.91604 0.49363 0.0
H1045 H 0.50439 0.83425 0.42443 0.0
H1046 H 0.50811 0.86733 0.43956 0.0
H1047 H 0.53843 0.88664 0.49677 0.0
H1048 H 0.56911 0.98784 0.51894 0.0
H1049 H 0.56511 0.95334 0.50822 0.0
H1050 H 0.53523 0.93127 0.45199 0.0
C1051 C 0.51663 0.85931 0.44502 0.0
C1052 C 0.53784 0.89627 0.48687 0.0
C1053 C 0.51442 0.84029 0.43641 0.0
C1054 C 0.55828 0.98007 0.5082 0.0
C1055 C 0.55593 0.96029 0.50217 0.0
C1056 C 0.53586 0.92168 0.46193 0.0
C1057 C 0.52997 0.86806 0.4601 0.0
C1058 C 0.5336 0.88903 0.46757 0.0
C1059 C 0.54209 0.94973 0.48817 0.0
C1060 C 0.53972 0.9289 0.48121 0.0
H1061 H 0.54663 0.82969 0.46382 0.0
H1062 H 0.55072 0.86319 0.47872 0.0
H1063 H 0.53014 0.89705 0.44023 0.0
H1064 H 0.52361 0.98576 0.48036 0.0
H1065 H 0.51959 0.95148 0.46991 0.0
C1066 C 0.53559 0.33068 0.67679 0.0
C1067 C 0.5451 0.31735 0.68017 0.0
C1068 C 0.52014 0.33059 0.68482 0.0
C1069 C 0.48506 0.29859 0.7048 0.0
H1070 H 0.4751 0.34619 0.72585 0.0
C1071 C 0.42753 0.2997 0.74835 0.0
C1072 C 0.41839 0.31368 0.74641 0.0
C1073 C 0.44269 0.29997 0.73976 0.0
C1074 C 0.47754 0.33275 0.71981 0.0
H1075 H 0.54601 0.29373 0.69499 0.0
H1076 H 0.51928 0.29369 0.70902 0.0
H1077 H 0.5022 0.34743 0.71204 0.0
H1078 H 0.41757 0.33837 0.73324 0.0
H1079 H 0.4438 0.33869 0.7181 0.0
H1080 H 0.4604 0.28388 0.71246 0.0
C1081 C 0.52358 0.30404 0.69997 0.0
C1082 C 0.49311 0.33348 0.7119 0.0
C1083 C 0.539 0.30418 0.69202 0.0
C1084 C 0.42449 0.3276 0.73529 0.0
C1085 C 0.43958 0.32782 0.72665 0.0
C1086 C 0.46946 0.29785 0.71263 0.0
C1087 C 0.51385 0.3171 0.69634 0.0
C1088 C 0.49711 0.31641 0.70439 0.0
C1089 C 0.44902 0.31416 0.72894 0.0
C1090 C 0.46551 0.31491 0.72031 0.0
H1091 H 0.5399 0.34098 0.66769 0.0
H1092 H 0.5129 0.34077 0.68165 0.0
H1093 H 0.48758 0.28516 0.69885 0.0
H1094 H 0.42326 0.2889 0.75697 0.0
H1095 H 0.44972 0.28935 0.74202 0.0
C1096 C 0.99252 0.79734 0.63103 0.0
C1097 C 1.00522 0.78711 0.62833 0.0
C1098 C 0.99387 0.81457 0.62408 0.0
C1099 C 0.02661 0.85391 0.60999 0.0
H1100 H 0.98702 0.86315 0.58107 0.0
C1101 C 0.03349 0.92385 0.57982 0.0
C1102 C 0.02684 0.9212 0.56081 0.0
C1103 C 0.02917 0.90871 0.58986 0.0
C1104 C 0.99817 0.86077 0.58916 0.0
H1105 H 0.02914 0.78681 0.61603 0.0
H1106 H 0.03145 0.81666 0.60404 0.0
H1107 H 0.98282 0.83397 0.59512 0.0
H1108 H 0.00976 0.90091 0.53768 0.0
H1109 H 1.00245 0.87441 0.55512 0.0
H1110 H 0.04213 0.88027 0.60364 0.0
C1111 C 0.02056 0.81153 0.61164 0.0
C1112 C 0.99573 0.84417 0.59732 0.0
C1113 C 0.01914 0.79433 0.61841 0.0
C1114 C 0.01529 0.90331 0.55225 0.0
C1115 C 0.01092 0.8882 0.5623 0.0
C1116 C 0.02903 0.87051 0.60196 0.0
C1117 C 1.00805 0.82193 0.61452 0.0
C1118 C 0.01003 0.84039 0.60747 0.0
C1119 C 0.01806 0.89063 0.58113 0.0
C1120 C 0.01492 0.87396 0.59117 0.0
H1121 H 0.98164 0.79214 0.63862 0.0
H1122 H 0.98405 0.82233 0.62651 0.0
H1123 H 0.03783 0.85147 0.61794 0.0
H1124 H 0.04249 0.93743 0.5868 0.0
H1125 H 0.03474 0.91108 0.60441 0.0
C1126 C 0.54353 0.8072 0.87415 0.0
C1127 C 0.55395 0.8212 0.86547 0.0
C1128 C 0.52596 0.79825 0.86667 0.0
C1129 C 0.49312 0.78989 0.82487 0.0
H1130 H 0.46195 0.80141 0.86026 0.0
C1131 C 0.42901 0.80756 0.80263 0.0
C1132 C 0.41525 0.80451 0.81362 0.0
C1133 C 0.44453 0.80277 0.80777 0.0
C1134 C 0.47026 0.7975 0.85021 0.0
H1135 H 0.55472 0.83579 0.84153 0.0
H1136 H 0.52422 0.82001 0.82839 0.0
H1137 H 0.49251 0.80446 0.87137 0.0
H1138 H 0.40626 0.79277 0.83777 0.0
H1139 H 0.43323 0.7839 0.84657 0.0
H1140 H 0.47101 0.78348 0.80361 0.0
C1141 C 0.52952 0.816 0.84097 0.0
C1142 C 0.48783 0.79929 0.85662 0.0
C1143 C 0.54692 0.82517 0.84859 0.0
C1144 C 0.41685 0.79556 0.82925 0.0
C1145 C 0.43229 0.79052 0.83428 0.0
C1146 C 0.47547 0.78785 0.81847 0.0
C1147 C 0.51873 0.80289 0.85021 0.0
C1148 C 0.49957 0.79632 0.84392 0.0
C1149 C 0.44653 0.79459 0.82392 0.0
C1150 C 0.46403 0.7925 0.83096 0.0
H1151 H 0.54866 0.80387 0.88717 0.0
H1152 H 0.51787 0.78818 0.87404 0.0
H1153 H 0.50191 0.78731 0.81484 0.0
H1154 H 0.42812 0.81455 0.79057 0.0
H1155 H 0.45527 0.80645 0.79961 0.0
C1156 C 0.46756 0.15658 0.1112 0.0
C1157 C 0.47765 0.17499 0.1093 0.0
C1158 C 0.46665 0.1404 0.09773 0.0
C1159 C 0.49533 0.12433 0.06736 0.0
H1160 H 0.45491 0.08349 0.04177 0.0
C1161 C 0.50611 0.06604 0.01302 0.0
C1162 C 0.49717 0.04697 0.01372 0.0
C1163 C 0.50075 0.0813 0.02224 0.0
C1164 C 0.46631 0.09472 0.04893 0.0
H1165 H 0.4936 0.191 0.09108 0.0
H1166 H 0.49235 0.16281 0.06804 0.0
H1167 H 0.45051 0.11071 0.06325 0.0
H1168 H 0.47491 0.02859 0.02336 0.0
H1169 H 0.46584 0.05535 0.04022 0.0
H1170 H 0.51126 0.10843 0.0539 0.0
C1171 C 0.48518 0.16091 0.07991 0.0
C1172 C 0.46377 0.11025 0.06116 0.0
C1173 C 0.48585 0.17704 0.09312 0.0
C1174 C 0.48196 0.04326 0.0226 0.0
C1175 C 0.47676 0.05859 0.03221 0.0
C1176 C 0.49787 0.10885 0.05537 0.0
C1177 C 0.47611 0.1424 0.08243 0.0
C1178 C 0.47829 0.12534 0.07017 0.0
C1179 C 0.48659 0.07779 0.03279 0.0
C1180 C 0.48342 0.09402 0.04569 0.0
H1181 H 0.46097 0.15456 0.12344 0.0
H1182 H 0.45951 0.12623 0.09989 0.0
H1183 H 0.50676 0.1355 0.07459 0.0
H1184 H 0.51782 0.06917 1.00611 0.0
H1185 H 0.50825 0.0959 0.02184 0.0
C1186 C 0.15274 0.34402 0.3459 0.0
C1187 C 0.14135 0.32537 0.34015 0.0
C1188 C 0.1667 0.35071 0.33597 0.0
C1189 C 0.1859 0.33838 0.29221 0.0
H1190 H 0.23016 0.35697 0.32516 0.0
C1191 C 0.24754 0.31507 0.27924 0.0
C1192 C 0.26425 0.32804 0.28509 0.0
C1193 C 0.23237 0.32097 0.28184 0.0
C1194 C 0.21795 0.35229 0.31567 0.0
H1195 H 0.13497 0.29959 0.31886 0.0
H1196 H 0.15935 0.31095 0.30193 0.0
H1197 H 0.20279 0.35638 0.33792 0.0
H1198 H 0.27818 0.35773 0.29716 0.0
H1199 H 0.25154 0.36788 0.30215 0.0
H1200 H 0.20115 0.33279 0.27027 0.0
C1201 C 0.15749 0.32063 0.31387 0.0
C1202 C 0.20221 0.35197 0.32299 0.0
C1203 C 0.14358 0.31399 0.32375 0.0
C1204 C 0.26548 0.34736 0.29261 0.0
C1205 C 0.25027 0.35319 0.29547 0.0
C1206 C 0.20163 0.33851 0.28494 0.0
C1207 C 0.16949 0.33887 0.32012 0.0
C1208 C 0.18596 0.34408 0.31152 0.0
C1209 C 0.2336 0.33991 0.29054 0.0
C1210 C 0.21771 0.34461 0.2968 0.0
H1211 H 0.15123 0.35319 0.35841 0.0
H1212 H 0.17561 0.36491 0.34102 0.0
H1213 H 0.17361 0.33267 0.28292 0.0
H1214 H 0.24616 0.30016 0.2732 0.0
H1215 H 0.2197 0.31036 0.27809 0.0
C1216 C 0.95546 0.07289 0.20025 0.0
C1217 C 0.96289 0.06893 0.21716 0.0
C1218 C 0.96373 0.07196 0.18371 0.0
C1219 C 1.00753 0.07005 0.16605 0.0
H1220 H 0.97992 0.05706 0.11703 0.0
C1221 C 0.04246 0.07758 0.09886 0.0
C1222 C 0.03555 0.06516 0.08154 0.0
C1223 C 0.03308 0.07749 0.11446 0.0
C1224 C 0.98799 0.06061 0.13052 0.0
H1225 H 0.98536 0.06071 0.22904 0.0
H1226 H 0.99954 0.05905 0.2007 0.0
H1227 H 0.96524 0.05792 0.14518 0.0
H1228 H 0.01257 0.04271 0.06772 0.0
H1229 H 0.99603 0.04253 0.09493 0.0
H1230 H 0.03022 0.07241 0.15156 0.0
C1231 C 0.98734 0.06319 0.20012 0.0
C1232 C 0.97947 0.06134 0.14693 0.0
C1233 C 0.97906 0.06407 0.21663 0.0
C1234 C 0.01847 0.05268 0.08055 0.0
C1235 C 0.00893 0.05261 0.09636 0.0
C1236 C 0.01602 0.06939 0.14971 0.0
C1237 C 0.97992 0.06706 0.18313 0.0
C1238 C 0.98901 0.06613 0.1652 0.0
C1239 C 0.01614 0.06489 0.11385 0.0
C1240 C 1.00655 0.06479 0.13145 0.0
H1241 H 0.94307 0.07664 0.19969 0.0
H1242 H 0.95739 0.07536 0.17136 0.0
H1243 H 0.01573 0.074 0.17946 0.0
H1244 H 0.05544 0.08756 0.1005 0.0
H1245 H 0.03927 0.08762 0.12711 0.0
C1246 C 0.3233 0.67869 0.47176 0.0
C1247 C 0.30849 0.68379 0.47785 0.0
C1248 C 0.32823 0.68208 0.45431 0.0
C1249 C 0.31115 0.69144 0.40887 0.0
H1250 H 0.35725 0.72656 0.40988 0.0
C1251 C 0.324 0.735 0.35045 0.0
C1252 C 0.32996 0.75488 0.3576 0.0
C1253 C 0.32563 0.72155 0.36191 0.0
C1254 C 0.34442 0.71653 0.40927 0.0
H1255 H 0.28688 0.6957 0.47028 0.0
H1256 H 0.29531 0.70136 0.43999 0.0
H1257 H 0.35059 0.7105 0.43662 0.0
H1258 H 0.34381 0.77629 0.38167 0.0
H1259 H 0.34622 0.75297 0.40177 0.0
H1260 H 0.30438 0.69854 0.38233 0.0
C1261 C 0.30314 0.69478 0.44858 0.0
C1262 C 0.34067 0.70722 0.4245 0.0
C1263 C 0.29843 0.69174 0.46603 0.0
C1264 C 0.33879 0.76105 0.37591 0.0
C1265 C 0.34041 0.74764 0.38734 0.0
C1266 C 0.31487 0.70069 0.39368 0.0
C1267 C 0.31815 0.69016 0.4426 0.0
C1268 C 0.3237 0.69542 0.4248 0.0
C1269 C 0.33326 0.72776 0.3807 0.0
C1270 C 0.33125 0.71412 0.39415 0.0
H1271 H 0.33127 0.67252 0.48064 0.0
H1272 H 0.33991 0.6785 0.45 0.0
H1273 H 0.29801 0.68221 0.40872 0.0
H1274 H 0.31716 0.72982 0.33637 0.0
H1275 H 0.32016 0.70632 0.35633 0.0
C1276 C 0.6117 0.02029 0.69219 0.0
C1277 C 0.60897 0.03051 0.70907 0.0
C1278 C 0.60016 0.01793 0.67585 0.0
C1279 C 0.57089 1.01038 0.64346 0.0
H1280 H 0.56193 0.05884 0.63558 0.0
C1281 C 0.53643 0.02126 0.57352 0.0
C1282 C 0.5455 0.03772 0.56694 0.0
C1283 C 0.54127 0.01854 0.59165 0.0
C1284 C 0.56424 0.04518 0.63761 0.0
H1285 H 0.59124 0.04495 0.72232 0.0
H1286 H 0.57105 0.04074 0.69379 0.0
H1287 H 0.57499 0.05608 0.66621 0.0
H1288 H 0.56656 0.06427 0.574 0.0
H1289 H 0.57496 0.05958 0.60559 0.0
H1290 H 0.56082 0.99985 0.61449 0.0
C1291 C 0.58229 0.03484 0.69316 0.0
C1292 C 0.57153 0.04351 0.65521 0.0
C1293 C 0.59383 0.03721 0.70952 0.0
C1294 C 0.55935 0.05146 0.57875 0.0
C1295 C 0.56407 0.04884 0.59686 0.0
C1296 C 0.56349 1.01204 0.62583 0.0
C1297 C 0.58564 0.02572 0.67606 0.0
C1298 C 0.57537 0.02626 0.65821 0.0
C1299 C 0.55509 0.03237 0.60351 0.0
C1300 C 0.56058 0.02964 0.62264 0.0
H1301 H 0.62319 0.01483 0.69136 0.0
H1302 H 0.6032 1.01096 0.66288 0.0
H1303 H 0.57355 0.99686 0.64541 0.0
H1304 H 0.52571 1.01045 0.56462 0.0
H1305 H 0.53413 1.00574 0.59647 0.0
C1306 C 0.31114 0.35356 0.98787 0.0
C1307 C 0.30788 0.37122 0.99487 0.0
C1308 C 0.3091 0.34689 0.96859 0.0
C1309 C 0.31123 0.36459 0.9242 0.0
H1310 H 0.28901 0.31114 0.90174 0.0
C1311 C 0.31919 0.33164 0.84913 0.0
C1312 C 0.3037 0.32032 0.83772 0.0
C1313 C 0.31906 0.33784 0.86822 0.0
C1314 C 0.2952 0.32613 0.9078 0.0
H1315 H 0.29953 0.39551 0.98708 0.0
H1316 H 0.29616 0.38393 0.95335 0.0
H1317 H 0.28903 0.32179 0.93517 0.0
H1318 H 0.27596 0.30645 0.83761 0.0
H1319 H 0.27586 0.31704 0.87091 0.0
H1320 H 0.31761 0.36887 0.89689 0.0
C1321 C 0.30028 0.37526 0.96284 0.0
C1322 C 0.29529 0.33219 0.92695 0.0
C1323 C 0.30208 0.38181 0.98215 0.0
C1324 C 0.28814 0.31519 0.84593 0.0
C1325 C 0.28807 0.32117 0.86505 0.0
C1326 C 0.31135 0.35846 0.90511 0.0
C1327 C 0.30399 0.35785 0.95584 0.0
C1328 C 0.30331 0.3515 0.93537 0.0
C1329 C 0.3035 0.33264 0.8764 0.0
C1330 C 0.30335 0.33916 0.89669 0.0
H1331 H 0.31564 0.34505 0.99729 0.0
H1332 H 0.31216 0.33347 0.96365 0.0
H1333 H 0.31766 0.37951 0.93032 0.0
H1334 H 0.3314 0.3359 0.84328 0.0
H1335 H 0.3312 0.34654 0.87664 0.0
C1336 C 0.98329 0.04281 0.32829 0.0
C1337 C 0.97775 0.05911 0.32484 0.0
C1338 C 0.99087 0.0416 0.34628 0.0
C1339 C 0.99834 0.06585 0.39793 0.0
H1340 H 0.02857 0.03204 0.40275 0.0
C1341 C 0.03733 0.06392 0.47059 0.0
C1342 C 0.03875 0.04587 0.47454 0.0
C1343 C 0.03018 0.0659 0.45265 0.0
C1344 C 0.02005 0.04147 0.40183 0.0
H1345 H 0.97632 0.08713 0.33832 0.0
H1346 H 0.99001 0.08547 0.36919 0.0
H1347 H 0.01636 0.035 0.37186 0.0
H1348 H 0.03364 0.01578 0.46191 0.0
H1349 H 0.0216 0.01925 0.43095 0.0
H1350 H 1.00252 0.0726 0.42805 0.0
C1351 C 0.98813 0.07319 0.35816 0.0
C1352 C 0.01285 0.04316 0.38384 0.0
C1353 C 0.98033 0.07428 0.34018 0.0
C1354 C 0.0329 0.02997 0.45969 0.0
C1355 C 0.026 0.032 0.44171 0.0
C1356 C 1.00575 0.06434 0.41592 0.0
C1357 C 0.99352 0.05674 0.36177 0.0
C1358 C 1.00167 0.05529 0.38134 0.0
C1359 C 0.02438 0.04998 0.43775 0.0
C1360 C 0.01669 0.05201 0.41832 0.0
H1361 H 0.98144 0.03066 0.31709 0.0
H1362 H 0.9943 0.02842 0.34798 0.0
H1363 H 0.98968 0.07513 0.39719 0.0
H1364 H 0.04161 0.0766 0.48145 0.0
H1365 H 0.02943 0.08008 0.4504 0.0
C1366 C 0.31533 0.72869 0.57838 0.0
C1367 C 0.31497 0.70964 0.58036 0.0
C1368 C 0.31953 0.74342 0.59405 0.0
C1369 C 0.3379 0.75468 0.64452 0.0
H1370 H 0.30473 0.7857 0.64929 0.0
C1371 C 0.31393 0.77868 0.71266 0.0
C1372 C 0.31886 0.79862 0.71948 0.0
C1373 C 0.31591 0.7717 0.69441 0.0
C1374 C 0.3143 0.77743 0.64796 0.0
H1375 H 0.31951 0.69132 0.60021 0.0
H1376 H 0.32647 0.71674 0.62737 0.0
H1377 H 0.30489 0.7661 0.61905 0.0
H1378 H 0.32889 0.82696 0.7124 0.0
H1379 H 0.33186 0.81453 0.67989 0.0
H1380 H 0.34627 0.76489 0.67383 0.0
C1381 C 0.32379 0.72047 0.61377 0.0
C1382 C 0.31446 0.76625 0.63069 0.0
C1383 C 0.31962 0.70581 0.59817 0.0
C1384 C 0.32505 0.81152 0.70744 0.0
C1385 C 0.32678 0.80448 0.68896 0.0
C1386 C 0.33757 0.76564 0.66177 0.0
C1387 C 0.32349 0.73938 0.61196 0.0
C1388 C 0.32581 0.75417 0.62899 0.0
C1389 C 0.32257 0.78451 0.68254 0.0
C1390 C 0.32539 0.77657 0.66371 0.0
H1391 H 0.3119 0.73214 0.56483 0.0
H1392 H 0.31936 0.75788 0.59219 0.0
H1393 H 0.34705 0.74587 0.64357 0.0
H1394 H 0.30904 0.76839 0.72159 0.0
H1395 H 0.31244 0.75623 0.68958 0.0
C1396 C 0.6345 0.02082 0.81432 0.0
C1397 C 0.62547 0.03309 0.80711 0.0
C1398 C 0.62884 1.01181 0.82925 0.0
C1399 C 0.58943 0.99507 0.85109 0.0
H1400 H 0.62089 0.99927 0.89638 0.0
C1401 C 0.56406 0.96028 0.91246 0.0
C1402 C 0.56729 0.97352 0.92933 0.0
C1403 C 0.5734 0.96471 0.89758 0.0
C1404 C 0.61201 0.99785 0.88374 0.0
H1405 H 0.60351 0.0456 0.80991 0.0
H1406 H 0.59353 0.02966 0.83569 0.0
H1407 H 0.63256 1.01311 0.86986 0.0
H1408 H 0.58374 1.00133 0.94409 0.0
H1409 H 0.60019 1.0088 0.91829 0.0
H1410 H 0.56882 0.98025 0.86495 0.0
C1411 C 0.60498 0.02704 0.82983 0.0
C1412 C 0.61869 1.00568 0.86858 0.0
C1413 C 0.61077 0.03625 0.81516 0.0
C1414 C 0.58099 0.99066 0.93142 0.0
C1415 C 0.59043 0.995 0.91659 0.0
C1416 C 0.58282 0.98703 0.86608 0.0
C1417 C 0.61389 0.01467 0.83696 0.0
C1418 C 0.60736 1.00474 0.8523 0.0
C1419 C 0.5863 0.98238 0.89932 0.0
C1420 C 0.59396 0.98867 0.88271 0.0
H1421 H 0.6459 0.01813 0.80842 0.0
H1422 H 0.63591 1.00231 0.83451 0.0
H1423 H 0.58046 0.99402 0.83861 0.0
H1424 H 0.55389 0.94676 0.91052 0.0
H1425 H 0.57014 0.95459 0.88449 0.0
C1426 C 0.31434 0.39552 0.11934 0.0
C1427 C 0.31003 0.38393 0.10147 0.0
C1428 C 0.31355 0.38717 0.13548 0.0
C1429 C 0.3118 0.34022 0.15148 0.0
H1430 H 0.30002 0.36621 0.19693 0.0
C1431 C 0.29575 0.30334 0.21528 0.0
C1432 C 0.30426 0.31361 0.23291 0.0
C1433 C 0.29685 0.31222 0.1995 0.0
C1434 C 0.30347 0.35888 0.18437 0.0
H1435 H 0.30092 0.35443 0.0866 0.0
H1436 H 0.29876 0.33986 0.11464 0.0
H1437 H 0.30014 0.38074 0.1688 0.0
H1438 H 0.32098 0.34099 0.24774 0.0
H1439 H 0.32238 0.35691 0.22022 0.0
H1440 H 0.3145 0.31805 0.16703 0.0
C1441 C 0.30338 0.35543 0.11629 0.0
C1442 C 0.30361 0.36722 0.16821 0.0
C1443 C 0.30445 0.36378 0.10014 0.0
C1444 C 0.314 0.33292 0.23442 0.0
C1445 C 0.31484 0.34196 0.21867 0.0
C1446 C 0.31137 0.33176 0.16754 0.0
C1447 C 0.30814 0.36698 0.13423 0.0
C1448 C 0.30779 0.35802 0.15149 0.0
C1449 C 0.30631 0.33165 0.20102 0.0
C1450 C 0.30721 0.34098 0.18416 0.0
H1451 H 0.31884 0.4111 0.1209 0.0
H1452 H 0.31762 0.39662 0.14892 0.0
H1453 H 0.3155 0.33285 0.13913 0.0
H1454 H 0.28818 0.2884 0.21365 0.0
H1455 H 0.29005 0.30394 0.18611 0.0
C1456 C 0.25881 1.00384 1.00823 0.0
C1457 C 0.25657 0.98517 0.99824 0.0
C1458 C 0.24912 0.01579 1.00201 0.0
C1459 C 0.20612 1.01112 0.97736 0.0
H1460 H 0.22167 0.06705 0.98865 0.0
C1461 C 0.15568 0.05443 0.98577 0.0
C1462 C 0.1593 0.06699 1.0031 0.0
C1463 C 0.16892 0.0473 0.97839 0.0
C1464 C 0.21713 0.05145 0.98526 0.0
H1465 H 0.24334 0.96484 0.9732 0.0
H1466 H 0.2262 0.98579 0.96234 0.0
H1467 H 0.24343 0.04852 0.98749 0.0
H1468 H 0.17988 0.08297 0.02559 0.0
H1469 H 0.20287 0.07053 0.01285 0.0
H1470 H 0.17988 0.01389 0.97626 0.0
C1471 C 0.23543 0.99109 0.97506 0.0
C1472 C 0.22958 0.04084 0.98459 0.0
C1473 C 0.24525 0.97913 0.98124 0.0
C1474 C 0.17669 0.07343 0.01216 0.0
C1475 C 0.1899 0.06631 1.00479 0.0
C1476 C 0.19368 0.0217 0.97803 0.0
C1477 C 0.2369 1.00934 0.98568 0.0
C1478 C 0.22419 0.02055 0.98152 0.0
C1479 C 0.18602 0.0526 0.98819 0.0
C1480 C 0.19905 0.04195 0.98286 0.0
H1481 H 0.26754 1.00898 0.0213 0.0
H1482 H 0.25045 0.02964 0.01068 0.0
H1483 H 0.20149 0.99551 0.97511 0.0
H1484 H 0.14246 0.04953 0.97828 0.0
H1485 H 0.16558 0.03701 0.96541 0.0
C1486 C 0.73806 0.63557 1.01 0.0
C1487 C 0.74026 0.65317 1.00343 0.0
C1488 C 0.72121 0.62367 0.01036 0.0
C1489 C 0.68491 0.60888 0.02179 0.0
H1490 H 0.64683 0.60033 0.98152 0.0
C1491 C 0.61277 0.57267 0.02984 0.0
C1492 C 0.60287 0.55869 0.01476 0.0
C1493 C 0.62925 0.58445 0.02791 0.0
C1494 C 0.65734 0.6025 0.99285 0.0
H1495 H 0.72632 0.67168 0.9915 0.0
H1496 H 0.69697 0.65091 0.99214 0.0
H1497 H 0.67629 0.61954 0.97851 0.0
H1498 H 0.60226 0.54627 0.98576 0.0
H1499 H 0.63109 0.56676 0.98238 0.0
H1500 H 0.66607 0.59171 0.03606 0.0
C1501 C 0.7083 0.64629 0.99694 0.0
C1502 C 0.67419 0.61365 0.99119 0.0
C1503 C 0.72516 0.65824 0.99665 0.0
C1504 C 0.60962 0.55693 0.99762 0.0
C1505 C 0.62609 0.56875 0.99566 0.0
C1506 C 0.66807 0.59783 0.02349 0.0
C1507 C 0.70612 0.62901 1.0041 0.0
C1508 C 0.6882 0.61695 1.00564 0.0
C1509 C 0.63619 0.58252 0.01085 0.0
C1510 C 0.65406 0.59449 1.00904 0.0
H1511 H 0.74936 0.63116 0.01529 0.0
H1512 H 0.72001 0.61031 0.01567 0.0
H1513 H 0.69533 0.61133 0.03329 0.0
H1514 H 0.60791 0.57432 0.04323 0.0
H1515 H 0.63657 0.59507 0.03981 0.0
C1516 C 0.72521 0.47259 0.2592 0.0
C1517 C 0.71386 0.47576 0.27251 0.0
C1518 C 0.73281 0.4568 0.25823 0.0
C1519 C 0.72908 0.40816 0.27423 0.0
H1520 H 0.77489 0.41343 0.25767 0.0
C1521 C 0.75986 0.34145 0.26158 0.0
C1522 C 0.77834 0.34466 0.26488 0.0
C1523 C 0.7519 0.35701 0.26237 0.0
C1524 C 0.76212 0.4115 0.26248 0.0
H1525 H 0.70189 0.46395 0.29531 0.0
H1526 H 0.715 0.43677 0.29374 0.0
H1527 H 0.76189 0.4405 0.25972 0.0
H1528 H 0.80263 0.36764 0.27168 0.0
H1529 H 0.78905 0.39427 0.27303 0.0
H1530 H 0.72946 0.3792 0.27721 0.0
C1531 C 0.718 0.44641 0.28378 0.0
C1532 C 0.75444 0.42722 0.26344 0.0
C1533 C 0.71047 0.46228 0.2848 0.0
C1534 C 0.78842 0.36419 0.26891 0.0
C1535 C 0.7805 0.37971 0.26959 0.0
C1536 C 0.73673 0.39237 0.27314 0.0
C1537 C 0.72942 0.44322 0.27048 0.0
C1538 C 0.73771 0.42605 0.26939 0.0
C1539 C 0.76201 0.37661 0.26639 0.0
C1540 C 0.75351 0.3936 0.2673 0.0
H1541 H 0.72825 0.48238 0.24935 0.0
H1542 H 0.7412 0.45513 0.24754 0.0
H1543 H 0.71618 0.40614 0.27869 0.0
H1544 H 0.75141 0.32684 0.25848 0.0
H1545 H 0.7377 0.35356 0.25956 0.0
C1546 C 0.85553 0.47498 0.51805 0.0
C1547 C 0.84433 0.45618 0.51556 0.0
C1548 C 0.87377 0.47805 0.51973 0.0
C1549 C 0.91198 0.48159 0.53241 0.0
H1550 H 0.93118 0.44808 0.49887 0.0
C1551 C 0.98661 0.49484 0.53355 0.0
C1552 C 0.99255 0.4943 0.51594 0.0
C1553 C 0.96881 0.48741 0.535 0.0
C1554 C 0.92602 0.45757 0.50832 0.0
H1555 H 0.84352 0.42585 0.51323 0.0
H1556 H 0.87537 0.43127 0.51642 0.0
H1557 H 0.89939 0.4413 0.49856 0.0
H1558 H 0.98459 0.48467 0.48608 0.0
H1559 H 0.95354 0.47205 0.48858 0.0
H1560 H 0.9385 0.49841 0.54153 0.0
C1561 C 0.87003 0.44361 0.51678 0.0
C1562 C 0.90781 0.45357 0.50829 0.0
C1563 C 0.85178 0.44053 0.51504 0.0
C1564 C 0.98046 0.48531 0.49987 0.0
C1565 C 0.96264 0.47797 0.50132 0.0
C1566 C 0.93016 0.48563 0.53239 0.0
C1567 C 0.88122 0.4624 0.51904 0.0
C1568 C 0.90058 0.46572 0.52012 0.0
C1569 C 0.95656 0.47936 0.51886 0.0
C1570 C 0.93738 0.47384 0.52014 0.0
H1571 H 0.85023 0.48735 0.51844 0.0
H1572 H 0.882 0.49269 0.52114 0.0
H1573 H 0.90684 0.49107 0.54189 0.0
H1574 H 0.99561 0.50151 0.54624 0.0
H1575 H 0.96459 0.48836 0.54875 0.0
C1576 C 0.37985 0.1023 0.33231 0.0
C1577 C 0.39731 0.11226 0.33138 0.0
C1578 C 0.36853 0.11192 0.34053 0.0
C1579 C 0.36622 0.16061 0.36445 0.0
H1580 H 0.32172 0.1463 0.33198 0.0
C1581 C 0.33271 0.21278 0.33629 0.0
C1582 C 0.31422 0.20881 0.3337 0.0
C1583 C 0.34094 0.20043 0.34413 0.0
C1584 C 0.33384 0.15024 0.34156 0.0
H1585 H 0.4171 0.13965 0.33925 0.0
H1586 H 0.39718 0.15691 0.35251 0.0
H1587 H 0.34031 0.12459 0.33053 0.0
H1588 H 0.29005 0.18931 0.33885 0.0
H1589 H 0.30455 0.16704 0.3515 0.0
H1590 H 0.36023 0.18728 0.37396 0.0
C1591 C 0.3922 0.14152 0.34758 0.0
C1592 C 0.3446 0.13774 0.34079 0.0
C1593 C 0.40365 0.1317 0.33984 0.0
C1594 C 0.30426 0.19262 0.34015 0.0
C1595 C 0.31254 0.17998 0.34763 0.0
C1596 C 0.35556 0.17328 0.36496 0.0
C1597 C 0.37428 0.13191 0.34738 0.0
C1598 C 0.36131 0.14312 0.3516 0.0
C1599 C 0.33093 0.18357 0.34923 0.0
C1600 C 0.33964 0.16851 0.35292 0.0
H1601 H 0.37478 0.08716 0.32613 0.0
H1602 H 0.35504 0.10385 0.34067 0.0
H1603 H 0.37873 0.16502 0.3734 0.0
H1604 H 0.34095 0.22476 0.33122 0.0
H1605 H 0.35512 0.20335 0.34486 0.0
C1606 C 0.34622 0.16269 0.49709 0.0
C1607 C 0.33469 0.15678 0.50999 0.0
C1608 C 0.36089 0.15543 0.49525 0.0
C1609 C 0.38976 0.13204 0.52095 0.0
H1610 H 0.40334 0.11769 0.47226 0.0
C1611 C 0.45232 0.10609 0.51314 0.0
C1612 C 0.45072 0.09006 0.4991 0.0
C1613 C 0.43901 0.11557 0.51393 0.0
C1614 C 0.39968 0.12156 0.48596 0.0
H1615 H 0.32935 0.13828 0.53079 0.0
H1616 H 0.35463 0.1255 0.52742 0.0
H1617 H 0.37816 0.13112 0.47458 0.0
H1618 H 0.43409 0.07191 0.47445 0.0
H1619 H 0.41075 0.08812 0.47608 0.0
H1620 H 0.41088 0.12196 0.53231 0.0
C1621 C 0.35261 0.13601 0.51895 0.0
C1622 C 0.38536 0.12946 0.4873 0.0
C1623 C 0.338 0.14325 0.52078 0.0
C1624 C 0.43565 0.08402 0.48563 0.0
C1625 C 0.42235 0.09349 0.48642 0.0
C1626 C 0.40406 0.12416 0.51961 0.0
C1627 C 0.36434 0.14212 0.5063 0.0
C1628 C 0.3801 0.13459 0.50481 0.0
C1629 C 0.42377 0.10928 0.50068 0.0
C1630 C 0.40911 0.11864 0.50209 0.0
H1631 H 0.34406 0.17313 0.48859 0.0
H1632 H 0.36972 0.16053 0.48545 0.0
H1633 H 0.38625 0.1361 0.53468 0.0
H1634 H 0.46368 0.11106 0.52381 0.0
H1635 H 0.44065 0.12782 0.52498 0.0
C1636 C 0.72652 0.58919 0.28073 0.0
C1637 C 0.71318 0.58512 0.29233 0.0
C1638 C 0.73578 0.60843 0.27992 0.0
C1639 C 0.74599 0.65993 0.30576 0.0
H1640 H 0.75899 0.67371 0.25858 0.0
C1641 C 0.7914 0.73617 0.30179 0.0
C1642 C 0.78863 0.74507 0.28626 0.0
C1643 C 0.78202 0.71701 0.30231 0.0
C1644 C 0.7554 0.67027 0.2719 0.0
H1645 H 0.69961 0.59887 0.31243 0.0
H1646 H 0.71565 0.63191 0.3112 0.0
H1647 H 0.74376 0.64027 0.26007 0.0
H1648 H 0.77339 0.74025 0.259 0.0
H1649 H 0.75699 0.7068 0.25982 0.0
H1650 H 0.75745 0.68985 0.31759 0.0
C1651 C 0.71913 0.62028 0.3027 0.0
C1652 C 0.74677 0.65086 0.27282 0.0
C1653 C 0.70979 0.60111 0.30338 0.0
C1654 C 0.77594 0.73404 0.27124 0.0
C1655 C 0.7666 0.71469 0.27168 0.0
C1656 C 0.75472 0.67925 0.30488 0.0
C1657 C 0.73221 0.62443 0.29081 0.0
C1658 C 0.74184 0.64525 0.28977 0.0
C1659 C 0.76946 0.70574 0.28725 0.0
C1660 C 0.75965 0.6849 0.28794 0.0
H1661 H 0.72955 0.57748 0.27184 0.0
H1662 H 0.74583 0.61074 0.27072 0.0
H1663 H 0.74269 0.65649 0.31917 0.0
H1664 H 0.80106 0.74402 0.31364 0.0
H1665 H 0.78497 0.71089 0.31448 0.0
C1666 C 0.94073 0.50149 0.8155 0.0
C1667 C 0.93245 0.51402 0.82535 0.0
C1668 C 0.93258 0.48166 0.8113 0.0
C1669 C 0.8966 0.44253 0.82127 0.0
H1670 H 0.88829 0.4255 0.76746 0.0
C1671 C 0.83875 0.37863 0.78807 0.0
C1672 C 0.84152 0.36514 0.77364 0.0
C1673 C 0.85125 0.3963 0.79414 0.0
C1674 C 0.89069 0.42987 0.78252 0.0
H1675 H 0.91025 0.51559 0.84026 0.0
H1676 H 0.89625 0.48099 0.83331 0.0
H1677 H 0.90962 0.45623 0.78083 0.0
H1678 H 0.85903 0.35983 0.75353 0.0
H1679 H 0.88113 0.39077 0.76432 0.0
H1680 H 0.87759 0.41636 0.82303 0.0
C1681 C 0.90887 0.48643 0.82862 0.0
C1682 C 0.90296 0.44742 0.79018 0.0
C1683 C 0.91686 0.50624 0.83256 0.0
C1684 C 0.85653 0.37008 0.76459 0.0
C1685 C 0.8692 0.38775 0.77083 0.0
C1686 C 0.88447 0.42493 0.81364 0.0
C1687 C 0.91624 0.4741 0.81721 0.0
C1688 C 0.90569 0.45412 0.80958 0.0
C1689 C 0.86694 0.40076 0.78609 0.0
C1690 C 0.88099 0.41866 0.79414 0.0
H1691 H 0.95274 0.50711 0.80973 0.0
H1692 H 0.93859 0.47238 0.80263 0.0
H1693 H 0.89859 0.44732 0.83628 0.0
H1694 H 0.82719 0.37524 0.79515 0.0
H1695 H 0.84881 0.40627 0.80549 0.0
C1696 C 0.09723 0.87728 0.08688 0.0
C1697 C 0.09096 0.87289 0.10361 0.0
C1698 C 0.09386 0.89278 0.07929 0.0
C1699 C 0.08409 0.93924 0.09208 0.0
H1700 H 0.06797 0.93324 0.03915 0.0
C1701 C 0.0809 1.00413 0.05559 0.0
C1702 C 0.06496 1.00218 0.04431 0.0
C1703 C 0.08438 0.98822 0.06233 0.0
C1704 C 0.07245 0.93512 0.05396 0.0
H1705 H 0.0762 0.88136 0.12547 0.0
H1706 H 0.07053 0.90864 0.11232 0.0
H1707 H 0.07295 0.90557 0.05212 0.0
H1708 H 0.04045 0.98178 0.03079 0.0
H1709 H 0.0467 0.95401 0.04231 0.0
H1710 H 0.08366 0.96881 0.09391 0.0
C1711 C 0.07803 0.90003 0.10509 0.0
C1712 C 0.0754 0.91933 0.06136 0.0
C1713 C 0.0812 0.88434 0.11256 0.0
C1714 C 0.05284 0.98383 0.03948 0.0
C1715 C 0.05644 0.96788 0.04601 0.0
C1716 C 0.08138 0.9551 0.08463 0.0
C1717 C 0.08434 0.90442 0.08838 0.0
C1718 C 0.08117 0.92119 0.08051 0.0
C1719 C 0.07213 0.96995 0.05773 0.0
C1720 C 0.07546 0.9532 0.0655 0.0
H1721 H 0.10478 0.86874 0.07962 0.0
H1722 H 0.099 0.8959 0.06648 0.0
H1723 H 0.08867 0.94116 0.10686 0.0
H1724 H 0.09052 0.01805 0.05963 0.0
H1725 H 0.09667 0.99021 0.07119 0.0
C1726 C 0.96742 0.2673 0.85727 0.0
C1727 C 0.96636 0.26591 0.87617 0.0
C1728 C 0.95277 0.2683 0.8456 0.0
C1729 C 0.9181 0.26232 0.82107 0.0
H1730 H 0.88704 0.29017 0.84306 0.0
C1731 C 0.85575 0.26925 0.77766 0.0
C1732 C 0.85142 0.28685 0.78144 0.0
C1733 C 0.86897 0.26538 0.78937 0.0
C1734 C 0.89565 0.28251 0.83659 0.0
H1735 H 0.94884 0.26358 0.89743 0.0
H1736 H 0.92316 0.26452 0.877 0.0
H1737 H 0.91176 0.28615 0.86265 0.0
H1738 H 0.85749 0.31425 0.80032 0.0
H1739 H 0.88083 0.30788 0.82034 0.0
H1740 H 0.90249 0.25963 0.79481 0.0
C1741 C 0.93544 0.26556 0.87125 0.0
C1742 C 0.90973 0.27989 0.84794 0.0
C1743 C 0.95016 0.26487 0.88298 0.0
C1744 C 0.86046 0.30048 0.79715 0.0
C1745 C 0.87379 0.29674 0.80871 0.0
C1746 C 0.90413 0.26516 0.80966 0.0
C1747 C 0.9366 0.26765 0.85247 0.0
C1748 C 0.92122 0.26982 0.84036 0.0
C1749 C 0.87827 0.27914 0.805 0.0
C1750 C 0.89276 0.2754 0.81724 0.0
H1751 H 0.97974 0.26826 0.85162 0.0
H1752 H 0.95431 0.27018 0.83133 0.0
H1753 H 0.92646 0.25424 0.81471 0.0
H1754 H 0.84889 0.25844 0.76568 0.0
H1755 H 0.87179 0.25155 0.7862 0.0
C1756 C 0.58396 0.26439 0.58814 0.0
C1757 C 0.57669 0.26757 0.60484 0.0
C1758 C 0.58068 0.2457 0.57794 0.0
C1759 C 0.55134 0.19596 0.57198 0.0
H1760 H 0.59216 0.18072 0.55665 0.0
C1761 C 0.54644 0.11912 0.53319 0.0
C1762 C 0.55937 0.11051 0.5395 0.0
C1763 C 0.54809 0.13869 0.53935 0.0
C1764 C 0.58064 0.18474 0.56087 0.0
H1765 H 0.55963 0.25369 0.62341 0.0
H1766 H 0.55399 0.22125 0.60568 0.0
H1767 H 0.59521 0.21425 0.57034 0.0
H1768 H 0.5843 0.11587 0.55713 0.0
H1769 H 0.5871 0.14992 0.56795 0.0
H1770 H 0.5369 0.16632 0.56308 0.0
C1771 C 0.56215 0.23316 0.60041 0.0
C1772 C 0.58233 0.204 0.5685 0.0
C1773 C 0.56549 0.25178 0.61065 0.0
C1774 C 0.57408 0.12199 0.55197 0.0
C1775 C 0.57576 0.14157 0.55808 0.0
C1776 C 0.54963 0.17671 0.56429 0.0
C1777 C 0.56998 0.22984 0.58414 0.0
C1778 C 0.56776 0.20978 0.57441 0.0
C1779 C 0.56275 0.15014 0.5519 0.0
C1780 C 0.56432 0.17082 0.55891 0.0
H1781 H 0.59262 0.27623 0.58325 0.0
H1782 H 0.58673 0.24363 0.56532 0.0
H1783 H 0.53983 0.19998 0.57623 0.0
H1784 H 0.53499 0.11076 0.5235 0.0
H1785 H 0.53794 0.1449 0.53417 0.0
C1786 C 0.58174 0.77319 0.38703 0.0
C1787 C 0.56676 0.77802 0.3796 0.0
C1788 C 0.59651 0.77501 0.37755 0.0
C1789 C 0.61087 0.77963 0.33093 0.0
H1790 H 0.65739 0.79743 0.35962 0.0
C1791 C 0.67337 0.7748 0.29792 0.0
C1792 C 0.68913 0.7894 0.30424 0.0
C1793 C 0.65836 0.77449 0.30668 0.0
C1794 C 0.64451 0.79267 0.35135 0.0
H1795 H 0.55559 0.78852 0.35628 0.0
H1796 H 0.58139 0.79201 0.33995 0.0
H1797 H 0.63148 0.79479 0.37572 0.0
H1798 H 0.70124 0.81545 0.32453 0.0
H1799 H 0.67485 0.81525 0.3395 0.0
H1800 H 0.62389 0.77797 0.30653 0.0
C1801 C 0.58165 0.78648 0.35294 0.0
C1802 C 0.62962 0.79087 0.36062 0.0
C1803 C 0.56685 0.78453 0.36236 0.0
C1804 C 0.68932 0.80405 0.31923 0.0
C1805 C 0.67424 0.80379 0.32797 0.0
C1806 C 0.62576 0.78153 0.32165 0.0
C1807 C 0.59672 0.78184 0.36046 0.0
C1808 C 0.6126 0.78416 0.35055 0.0
C1809 C 0.65862 0.78887 0.32193 0.0
C1810 C 0.64278 0.7879 0.33175 0.0
H1811 H 0.58212 0.76805 0.40024 0.0
H1812 H 0.60773 0.77096 0.3836 0.0
H1813 H 0.59799 0.77427 0.32269 0.0
H1814 H 0.67264 0.76346 0.28622 0.0
H1815 H 0.64667 0.76267 0.30174 0.0
C1816 C 0.12494 0.28173 0.43555 0.0
C1817 C 0.11974 0.27601 0.41618 0.0
C1818 C 0.12639 0.2681 0.4468 0.0
C1819 C 0.12612 0.21659 0.44589 0.0
H1820 H 0.10389 0.22302 0.49079 0.0
C1821 C 0.0959 0.15409 0.48377 0.0
C1822 C 0.09794 0.15778 0.50343 0.0
C1823 C 0.10198 0.16895 0.47384 0.0
C1824 C 0.11041 0.22115 0.47848 0.0
H1825 H 0.11298 0.25168 0.39327 0.0
H1826 H 0.11502 0.22782 0.41295 0.0
H1827 H 0.10896 0.24845 0.47213 0.0
H1828 H 0.10881 0.17975 0.52807 0.0
H1829 H 0.1192 0.20573 0.5107 0.0
H1830 H 0.12683 0.18882 0.45201 0.0
C1831 C 0.11828 0.24286 0.41945 0.0
C1832 C 0.11338 0.23577 0.46778 0.0
C1833 C 0.11702 0.25654 0.40816 0.0
C1834 C 0.10669 0.17652 0.51293 0.0
C1835 C 0.1127 0.19138 0.50301 0.0
C1836 C 0.12303 0.20188 0.45656 0.0
C1837 C 0.12246 0.24841 0.43898 0.0
C1838 C 0.12106 0.23359 0.45122 0.0
C1839 C 0.11018 0.18781 0.48336 0.0
C1840 C 0.11493 0.20392 0.47283 0.0
H1841 H 0.12737 0.29668 0.44212 0.0
H1842 H 0.13007 0.27293 0.46173 0.0
H1843 H 0.13228 0.21456 0.43335 0.0
H1844 H 0.08905 0.13987 0.47602 0.0
H1845 H 0.09965 0.16583 0.4587 0.0
C1846 C 0.55374 0.24898 0.1814 0.0
C1847 C 0.53963 0.23473 0.18552 0.0
C1848 C 0.57034 0.25342 0.1918 0.0
C1849 C 0.59798 0.23218 0.2203 0.0
H1850 H 0.62824 0.2846 0.23174 0.0
C1851 C 0.6701 0.24854 0.25313 0.0
C1852 C 0.6823 0.26063 0.24424 0.0
C1853 C 0.65214 0.24707 0.24959 0.0
C1854 C 0.61995 0.26989 0.22862 0.0
H1855 H 0.53182 0.21428 0.20412 0.0
H1856 H 0.56094 0.22207 0.22235 0.0
H1857 H 0.59743 0.27868 0.21885 0.0
H1858 H 0.68532 0.28109 0.22511 0.0
H1859 H 0.65402 0.27846 0.21884 0.0
H1860 H 0.62057 0.22329 0.22947 0.0
C1861 C 0.5591 0.22968 0.21094 0.0
C1862 C 0.60233 0.2665 0.22125 0.0
C1863 C 0.54243 0.22525 0.20053 0.0
C1864 C 0.67626 0.27182 0.23233 0.0
C1865 C 0.65831 0.27032 0.22877 0.0
C1866 C 0.6156 0.23556 0.22765 0.0
C1867 C 0.57325 0.24372 0.20659 0.0
C1868 C 0.59127 0.24757 0.2166 0.0
C1869 C 0.64602 0.25764 0.23706 0.0
C1870 C 0.62687 0.25441 0.2315 0.0
H1871 H 0.55206 0.2566 0.16995 0.0
H1872 H 0.58102 0.26408 0.1879 0.0
H1873 H 0.58986 0.21741 0.21666 0.0
H1874 H 0.67441 0.24 0.26263 0.0
H1875 H 0.64301 0.23742 0.25643 0.0
C1876 C 0.59806 0.90584 0.93678 0.0
C1877 C 0.60594 0.89165 0.94164 0.0
C1878 C 0.59536 0.91983 0.95063 0.0
C1879 C 0.5879 0.92681 0.99933 0.0
H1880 H 0.59555 0.9805 0.99414 0.0
C1881 C 0.55042 0.97704 0.0348 0.0
C1882 C 0.55897 0.99676 0.03998 0.0
C1883 C 0.55911 0.96443 0.02609 0.0
C1884 C 0.59351 0.9656 0.99591 0.0
H1885 H 0.61763 0.88134 0.96482 0.0
H1886 H 0.61275 0.9057 0.98897 0.0
H1887 H 0.60537 0.95862 0.9715 0.0
H1888 H 0.58369 0.01866 0.04168 0.0
H1889 H 0.59897 0.99661 0.02659 0.0
H1890 H 0.57552 0.93362 0.02338 0.0
C1891 C 0.60864 0.90593 0.97445 0.0
C1892 C 0.59902 0.95307 0.98287 0.0
C1893 C 0.61148 0.89205 0.9606 0.0
C1894 C 0.57677 1.00348 0.03771 0.0
C1895 C 0.58546 0.99091 0.02894 0.0
C1896 C 0.58218 0.93928 0.01223 0.0
C1897 C 0.60037 0.9198 0.96961 0.0
C1898 C 0.59601 0.9335 0.9843 0.0
C1899 C 0.57654 0.97137 0.02249 0.0
C1900 C 0.58461 0.95871 0.01043 0.0
H1901 H 0.59369 0.90597 0.9223 0.0
H1902 H 0.58881 0.93027 0.94653 0.0
H1903 H 0.58533 0.91175 1.0007 0.0
H1904 H 0.53675 0.97154 0.03668 0.0
H1905 H 0.55182 0.94949 0.02118 0.0
C1906 C 0.94182 0.72416 0.70446 0.0
C1907 C 0.95287 0.73609 0.6944 0.0
C1908 C 0.92861 0.73032 0.7129 0.0
C1909 C 0.90288 0.76635 0.7124 0.0
H1910 H 0.89348 0.7539 0.76111 0.0
C1911 C 0.85922 0.80125 0.75688 0.0
C1912 C 0.84596 0.78856 0.76406 0.0
C1913 C 0.87251 0.79476 0.74897 0.0
C1914 C 0.8959 0.75736 0.74746 0.0
H1915 H 0.9588 0.76384 0.68529 0.0
H1916 H 0.93605 0.77484 0.70043 0.0
H1917 H 0.91617 0.74282 0.74583 0.0
H1918 H 0.83661 0.7592 0.76911 0.0
H1919 H 0.86003 0.74796 0.75544 0.0
H1920 H 0.88282 0.78121 0.71427 0.0
C1921 C 0.9373 0.76053 0.70146 0.0
C1922 C 0.90884 0.75096 0.73865 0.0
C1923 C 0.9504 0.75427 0.69285 0.0
C1924 C 0.84661 0.76936 0.76369 0.0
C1925 C 0.86004 0.76292 0.75593 0.0
C1926 C 0.89009 0.7729 0.72129 0.0
C1927 C 0.92627 0.74865 0.71164 0.0
C1928 C 0.91248 0.75538 0.72101 0.0
C1929 C 0.87292 0.7755 0.74822 0.0
C1930 C 0.88649 0.76848 0.7389 0.0
H1931 H 0.94333 0.71001 0.7058 0.0
H1932 H 0.92016 0.72065 0.72032 0.0
H1933 H 0.90508 0.76971 0.69868 0.0
H1934 H 0.85914 0.81613 0.75691 0.0
H1935 H 0.88242 0.80481 0.74334 0.0
C1936 C 0.12888 0.0524 0.84708 0.0
C1937 C 0.14164 0.04215 0.84408 0.0
C1938 C 0.12079 0.05293 0.8637 0.0
C1939 C 0.12527 0.04465 0.91418 0.0
H1940 H 0.07593 0.0434 0.91052 0.0
C1941 C 0.08648 0.0539 0.98082 0.0
C1942 C 0.06904 0.04204 0.97905 0.0
C1943 C 0.09631 0.05446 0.96527 0.0
C1944 C 0.08973 0.04374 0.91201 0.0
H1945 H 0.15578 0.02459 0.85718 0.0
H1946 H 0.142 0.02571 0.88603 0.0
H1947 H 0.09052 0.04294 0.88248 0.0
H1948 H 0.04864 0.02163 0.95886 0.0
H1949 H 0.06517 0.02289 0.93244 0.0
H1950 H 0.12433 0.04546 0.94386 0.0
C1951 C 0.13814 0.03339 0.87544 0.0
C1952 C 0.09826 0.04364 0.89571 0.0
C1953 C 0.14605 0.03262 0.85866 0.0
C1954 C 0.06194 0.031 0.96113 0.0
C1955 C 0.07151 0.0318 0.9457 0.0
C1956 C 0.11677 0.04506 0.9306 0.0
C1957 C 0.12522 0.04347 0.87837 0.0
C1958 C 0.11622 0.04394 0.89628 0.0
C1959 C 0.08891 0.04358 0.94722 0.0
C1960 C 0.0987 0.04438 0.92989 0.0
H1961 H 0.12501 0.06005 0.83646 0.0
H1962 H 0.11116 0.06109 0.86513 0.0
H1963 H 0.1391 0.04509 0.9156 0.0
H1964 H 0.09242 0.06297 0.99409 0.0
H1965 H 0.10959 0.06385 0.9673 0.0
C1966 C 0.77203 0.43794 0.57049 0.0
C1967 C 0.76453 0.42849 0.55229 0.0
C1968 C 0.76816 0.42881 0.58577 0.0
C1969 C 0.75611 0.37897 0.59385 0.0
H1970 H 0.76336 0.40391 0.64578 0.0
C1971 C 0.76844 0.33782 0.65251 0.0
C1972 C 0.78376 0.34731 0.66503 0.0
C1973 C 0.76088 0.34789 0.64072 0.0
C1974 C 0.7612 0.39674 0.63133 0.0
H1975 H 0.74537 0.40334 0.53598 0.0
H1976 H 0.73802 0.38774 0.56271 0.0
H1977 H 0.75781 0.4219 0.62109 0.0
H1978 H 0.80275 0.37495 0.67558 0.0
H1979 H 0.78963 0.39253 0.65489 0.0
H1980 H 0.76008 0.3541 0.60396 0.0
C1981 C 0.74748 0.40181 0.56515 0.0
C1982 C 0.75805 0.40703 0.61719 0.0
C1983 C 0.7516 0.41078 0.54984 0.0
C1984 C 0.7909 0.36727 0.66614 0.0
C1985 C 0.78333 0.37735 0.65436 0.0
C1986 C 0.7591 0.3687 0.60793 0.0
C1987 C 0.7565 0.41019 0.58314 0.0
C1988 C 0.75608 0.39846 0.59826 0.0
C1989 C 0.76848 0.36766 0.64123 0.0
C1990 C 0.76227 0.37766 0.62678 0.0
H1991 H 0.78202 0.45163 0.57279 0.0
H1992 H 0.77543 0.43572 0.59936 0.0
H1993 H 0.755 0.37193 0.57948 0.0
H1994 H 0.76239 0.32253 0.65165 0.0
H1995 H 0.74931 0.34011 0.6309 0.0
C1996 C 0.48067 0.10303 0.36528 0.0
C1997 C 0.48723 0.0985 0.34841 0.0
C1998 C 0.49049 0.10368 0.3824 0.0
C1999 C 0.53463 0.10335 0.40472 0.0
H2000 H 0.50728 0.07288 0.43675 0.0
C2001 C 0.54454 0.05397 0.46373 0.0
C2002 C 0.55875 0.06648 0.47607 0.0
C2003 C 0.53653 0.06056 0.44915 0.0
C2004 C 0.5151 0.0814 0.42793 0.0
H2005 H 0.50972 0.0925 0.33631 0.0
H2006 H 0.52667 0.09339 0.36603 0.0
H2007 H 0.49228 0.08125 0.40989 0.0
H2008 H 0.57625 0.09545 0.48258 0.0
H2009 H 0.56228 0.10705 0.45693 0.0
H2010 H 0.55751 0.10268 0.42238 0.0
C2011 C 0.51404 0.09658 0.36613 0.0
C2012 C 0.50649 0.08646 0.4127 0.0
C2013 C 0.50425 0.09592 0.34905 0.0
C2014 C 0.56531 0.08552 0.47319 0.0
C2015 C 0.55731 0.09215 0.45855 0.0
C2016 C 0.54325 0.09828 0.42 0.0
C2017 C 0.50705 0.09985 0.38297 0.0
C2018 C 0.51616 0.09711 0.40065 0.0
C2019 C 0.54264 0.07981 0.44658 0.0
C2020 C 0.53358 0.08683 0.43147 0.0
H2021 H 0.46765 0.10522 0.36525 0.0
H2022 H 0.48487 0.10655 0.39517 0.0
H2023 H 0.54243 0.11174 0.39581 0.0
H2024 H 0.53936 0.03916 0.46559 0.0
H2025 H 0.52551 0.05059 0.43991 0.0
C2026 C 0.79276 0.74173 0.0674 0.0
C2027 C 0.80259 0.72855 0.0626 0.0
C2028 C 0.79436 0.7511 0.08591 0.0
C2029 C 0.8225 0.76524 0.13129 0.0
H2030 H 0.77861 0.75788 0.15248 0.0
C2031 C 0.82087 0.78006 0.21123 0.0
C2032 C 0.80665 0.78597 0.2179 0.0
C2033 C 0.8211 0.77495 0.192 0.0
C2034 C 0.791 0.76051 0.14681 0.0
H2035 H 0.82251 0.71571 0.07326 0.0
H2036 H 0.82559 0.73247 0.10547 0.0
H2037 H 0.77818 0.7467 0.11931 0.0
H2038 H 0.78193 0.79203 0.20962 0.0
H2039 H 0.78267 0.78401 0.1762 0.0
H2040 H 0.83537 0.77934 0.15864 0.0
C2041 C 0.81654 0.73538 0.09494 0.0
C2042 C 0.79072 0.75399 0.12776 0.0
C2043 C 0.81471 0.72573 0.07651 0.0
C2044 C 0.79296 0.78727 0.20493 0.0
C2045 C 0.79335 0.78252 0.18572 0.0
C2046 C 0.82278 0.77209 0.15032 0.0
C2047 C 0.80606 0.74778 0.09991 0.0
C2048 C 0.80646 0.75609 0.11984 0.0
C2049 C 0.80727 0.77596 0.17894 0.0
C2050 C 0.80704 0.76961 0.15843 0.0
H2051 H 0.78327 0.74417 0.05703 0.0
H2052 H 0.78621 0.7607 0.08936 0.0
H2053 H 0.83483 0.76714 0.12549 0.0
H2054 H 0.83158 0.77882 0.22088 0.0
H2055 H 0.83193 0.76969 0.18745 0.0
C2056 C 0.15542 0.0211 0.71835 0.0
C2057 C 0.14762 0.02368 0.73491 0.0
C2058 C 0.14686 0.02183 0.70069 0.0
C2059 C 0.10291 0.01783 0.67353 0.0
H2060 H 0.13099 0.04526 0.64008 0.0
C2061 C 0.07591 0.01673 0.5945 0.0
C2062 C 0.08055 0.03422 0.58752 0.0
C2063 C 0.08341 0.01507 0.61242 0.0
C2064 C 0.12283 0.03755 0.64916 0.0
H2065 H 0.12402 0.02871 0.74507 0.0
H2066 H 0.10892 0.02939 0.71431 0.0
H2067 H 0.14479 0.04299 0.67072 0.0
H2068 H 0.09717 0.06362 0.59452 0.0
H2069 H 0.11036 0.06062 0.62515 0.0
H2070 H 0.08097 1.01222 0.65178 0.0
C2071 C 0.12186 0.02691 0.71507 0.0
C2072 C 0.13085 0.0361 0.66685 0.0
C2073 C 0.13059 0.02653 0.73286 0.0
C2074 C 0.09309 0.04988 0.59917 0.0
C2075 C 0.10081 0.04812 0.61687 0.0
C2076 C 0.09494 0.01896 0.65565 0.0
C2077 C 0.12993 0.02487 0.69861 0.0
C2078 C 0.12109 0.02628 0.6795 0.0
C2079 C 0.09616 0.0307 0.62396 0.0
C2080 C 0.1047 0.02896 0.64309 0.0
H2081 H 0.16849 0.01898 0.71903 0.0
H2082 H 0.15359 0.01993 0.68856 0.0
H2083 H 0.09482 1.01003 0.68262 0.0
H2084 H 0.06635 1.00427 0.58614 0.0
H2085 H 0.07944 1.00133 0.6171 0.0
C2086 C 0.78044 0.40303 0.43776 0.0
C2087 C 0.77784 0.39489 0.45393 0.0
C2088 C 0.78121 0.39149 0.42092 0.0
C2089 C 0.79078 0.34519 0.40385 0.0
H2090 H 0.7758 0.3556 0.35525 0.0
C2091 C 0.79124 0.29718 0.33279 0.0
C2092 C 0.79758 0.30716 0.31864 0.0
C2093 C 0.78906 0.30734 0.34985 0.0
C2094 C 0.78014 0.35263 0.36876 0.0
H2095 H 0.7727 0.36815 0.46493 0.0
H2096 H 0.77335 0.34792 0.43545 0.0
H2097 H 0.7695 0.37385 0.38338 0.0
H2098 H 0.80761 0.33553 0.31153 0.0
H2099 H 0.80373 0.35319 0.34122 0.0
H2100 H 0.80119 0.32375 0.38906 0.0
C2101 C 0.77546 0.36329 0.43585 0.0
C2102 C 0.77656 0.36309 0.38487 0.0
C2103 C 0.77491 0.37485 0.4527 0.0
C2104 C 0.80258 0.32744 0.32216 0.0
C2105 C 0.80024 0.33756 0.33908 0.0
C2106 C 0.79418 0.33458 0.38771 0.0
C2107 C 0.77918 0.37155 0.41989 0.0
C2108 C 0.78199 0.35964 0.40264 0.0
C2109 C 0.79306 0.3276 0.35289 0.0
C2110 C 0.78908 0.33837 0.37004 0.0
H2111 H 0.78284 0.41846 0.43834 0.0
H2112 H 0.78425 0.3984 0.40898 0.0
H2113 H 0.79547 0.34238 0.4173 0.0
H2114 H 0.78731 0.28154 0.33042 0.0
H2115 H 0.78353 0.29934 0.36032 0.0
C2116 C 0.46604 0.11625 0.24932 0.0
C2117 C 0.44901 0.11115 0.25443 0.0
C2118 C 0.46861 0.12056 0.23159 0.0
C2119 C 0.44506 0.10784 0.18413 0.0
H2120 H 0.48952 0.13884 0.17366 0.0
C2121 C 0.49197 0.11831 0.1208 0.0
C2122 C 0.48952 0.09858 0.1139 0.0
C2123 C 0.48353 0.12413 0.13575 0.0
C2124 C 0.47682 0.13041 0.17615 0.0
H2125 H 0.42142 0.10805 0.24543 0.0
H2126 H 0.42595 0.11582 0.21443 0.0
H2127 H 0.48151 0.14341 0.20506 0.0
H2128 H 0.47568 0.06957 0.11694 0.0
H2129 H 0.46111 0.07961 0.14282 0.0
H2130 H 0.44045 0.09471 0.15527 0.0
C2131 C 0.43729 0.11612 0.22406 0.0
C2132 C 0.47233 0.13287 0.19427 0.0
C2133 C 0.4347 0.11177 0.24186 0.0
C2134 C 0.47768 0.08488 0.12163 0.0
C2135 C 0.46926 0.09069 0.13654 0.0
C2136 C 0.44945 0.10553 0.16597 0.0
C2137 C 0.45422 0.11997 0.21852 0.0
C2138 C 0.45683 0.12092 0.19869 0.0
C2139 C 0.47242 0.11037 0.14413 0.0
C2140 C 0.4658 0.11608 0.16198 0.0
H2141 H 0.47739 0.11606 0.25869 0.0
H2142 H 0.48181 0.12319 0.22781 0.0
H2143 H 0.43299 0.09838 0.18696 0.0
H2144 H 0.50073 0.12926 0.1149 0.0
H2145 H 0.48605 0.13942 0.14104 0.0
C2146 C 0.8014 0.7196 0.94627 0.0
C2147 C 0.79355 0.72834 0.96039 0.0
C2148 C 0.80427 0.72756 0.93004 0.0
C2149 C 0.8109 0.77282 0.91185 0.0
H2150 H 0.79295 0.74088 0.86312 0.0
C2151 C 0.82564 0.79941 0.84223 0.0
C2152 C 0.81078 0.79687 0.82908 0.0
C2153 C 0.82426 0.79049 0.85801 0.0
C2154 C 0.79806 0.74994 0.87664 0.0
H2155 H 0.78291 0.75251 0.96875 0.0
H2156 H 0.78838 0.76665 0.94072 0.0
H2157 H 0.78963 0.72647 0.89144 0.0
H2158 H 0.78277 0.78322 0.8223 0.0
H2159 H 0.7805 0.767 0.8495 0.0
H2160 H 0.81941 0.79626 0.8971 0.0
C2161 C 0.79215 0.75355 0.94211 0.0
C2162 C 0.79626 0.74169 0.89281 0.0
C2163 C 0.78896 0.7454 0.95812 0.0
C2164 C 0.79454 0.78508 0.83195 0.0
C2165 C 0.79322 0.77586 0.84755 0.0
C2166 C 0.813 0.78098 0.89569 0.0
C2167 C 0.79969 0.74464 0.92782 0.0
C2168 C 0.80249 0.7531 0.9106 0.0
C2169 C 0.80803 0.77862 0.86084 0.0
C2170 C 0.80644 0.76968 0.87792 0.0
H2171 H 0.80502 0.70641 0.94758 0.0
H2172 H 0.81017 0.72045 0.91927 0.0
H2173 H 0.81588 0.78193 0.92538 0.0
H2174 H 0.83833 0.80848 0.84045 0.0
H2175 H 0.8359 0.79282 0.868 0.0
C2176 C 0.82219 0.10192 0.01629 0.0
C2177 C 0.81394 0.09912 0.03232 0.0
C2178 C 0.83615 0.09398 0.01267 0.0
C2179 C 0.85814 0.05763 0.02664 0.0
H2180 H 0.89838 0.0889 1.00856 0.0
C2181 C 0.91899 0.0303 0.01383 0.0
C2182 C 0.9356 0.04377 0.01879 0.0
C2183 C 0.90362 0.03636 0.01367 0.0
C2184 C 0.8873 0.08004 0.01376 0.0
H2185 H 0.81377 0.08577 0.05707 0.0
H2186 H 0.83827 0.07246 0.05108 0.0
H2187 H 0.8724 0.10055 0.01168 0.0
H2188 H 0.94897 0.07426 0.02731 0.0
H2189 H 0.9222 0.08468 0.02798 0.0
H2190 H 0.87334 0.03763 0.02973 0.0
C2191 C 0.83377 0.08032 0.041 0.0
C2192 C 0.87228 0.08659 0.01526 0.0
C2193 C 0.81977 0.08809 0.04452 0.0
C2194 C 0.93643 0.06344 0.0237 0.0
C2195 C 0.92104 0.06946 0.02375 0.0
C2196 C 0.87321 0.05119 0.02534 0.0
C2197 C 0.84219 0.08322 0.02509 0.0
C2198 C 0.8576 0.07558 0.02198 0.0
C2199 C 0.90444 0.05601 0.01869 0.0
C2200 C 0.88807 0.06242 0.01909 0.0
H2201 H 0.81793 0.11031 1.00659 0.0
H2202 H 0.84219 0.09628 1.00015 0.0
H2203 H 0.84696 0.04861 0.03155 0.0
H2204 H 0.91783 0.01502 1.01017 0.0
H2205 H 0.89108 0.0256 1.00948 0.0
C2206 C 0.38389 0.43194 0.05397 0.0
C2207 C 0.37046 0.4414 0.05345 0.0
C2208 C 0.40138 0.44203 0.05358 0.0
C2209 C 0.42844 0.48378 0.0378 0.0
H2210 H 0.46586 0.47928 0.07362 0.0
C2211 C 0.50219 0.51209 0.03048 0.0
C2212 C 0.51276 0.52409 0.04643 0.0
C2213 C 0.48501 0.50152 0.03158 0.0
C2214 C 0.45554 0.48067 0.06355 0.0
H2215 H 0.36488 0.46888 0.05198 0.0
H2216 H 0.39546 0.48642 0.05089 0.0
H2217 H 0.43525 0.46208 0.07517 0.0
H2218 H 0.51396 0.53395 0.07614 0.0
H2219 H 0.48397 0.51511 0.07816 0.0
H2220 H 0.44872 0.50218 0.02604 0.0
C2221 C 0.39239 0.4712 0.05173 0.0
C2222 C 0.43806 0.47077 0.06437 0.0
C2223 C 0.37492 0.46118 0.05244 0.0
C2224 C 0.50605 0.52484 0.06363 0.0
C2225 C 0.48895 0.51403 0.06479 0.0
C2226 C 0.44593 0.49341 0.03678 0.0
C2227 C 0.4058 0.46173 0.05235 0.0
C2228 C 0.42434 0.47229 0.05155 0.0
C2229 C 0.47816 0.50251 0.04871 0.0
C2230 C 0.45965 0.492 0.04968 0.0
H2231 H 0.38093 0.41673 0.05481 0.0
H2232 H 0.41143 0.43434 0.05394 0.0
H2233 H 0.41814 0.48509 0.02767 0.0
H2234 H 0.50704 0.51122 0.01704 0.0
H2235 H 0.47704 0.4926 0.01902 0.0
C2236 C 0.38527 0.62216 0.74214 0.0
C2237 C 0.3966 0.61954 0.75708 0.0
C2238 C 0.37774 0.63802 0.74353 0.0
C2239 C 0.38003 0.6868 0.77444 0.0
H2240 H 0.3374 0.68281 0.74199 0.0
C2241 C 0.34984 0.75388 0.77445 0.0
C2242 C 0.33175 0.75102 0.76831 0.0
C2243 C 0.35778 0.73829 0.77321 0.0
C2244 C 0.34919 0.68442 0.75147 0.0
H2245 H 0.40846 0.63231 0.78548 0.0
H2246 H 0.39518 0.65929 0.78817 0.0
H2247 H 0.35017 0.6558 0.74016 0.0
H2248 H 0.30808 0.72858 0.75618 0.0
H2249 H 0.32143 0.70183 0.75457 0.0
H2250 H 0.37865 0.71519 0.78623 0.0
C2251 C 0.39229 0.64938 0.775 0.0
C2252 C 0.35687 0.66867 0.75016 0.0
C2253 C 0.39995 0.63358 0.77353 0.0
C2254 C 0.32201 0.73176 0.76103 0.0
C2255 C 0.32988 0.71617 0.75995 0.0
C2256 C 0.37227 0.70252 0.77584 0.0
C2257 C 0.38094 0.65213 0.76003 0.0
C2258 C 0.37256 0.66934 0.76157 0.0
C2259 C 0.34804 0.71892 0.76589 0.0
C2260 C 0.35659 0.70184 0.7644 0.0
H2261 H 0.38228 0.61195 0.72913 0.0
H2262 H 0.36953 0.63924 0.73135 0.0
H2263 H 0.39213 0.6886 0.78349 0.0
H2264 H 0.35803 0.76832 0.78006 0.0
H2265 H 0.37175 0.74167 0.7778 0.0
C2266 C 0.23486 0.62081 0.53535 0.0
C2267 C 0.2422 0.63666 0.52692 0.0
C2268 C 0.21673 0.61227 0.53234 0.0
C2269 C 0.17634 0.60741 0.50055 0.0
H2270 H 0.15328 0.59457 0.54351 0.0
C2271 C 0.10424 0.56115 0.49578 0.0
C2272 C 0.09449 0.5664 0.50985 0.0
C2273 C 0.12201 0.57088 0.49659 0.0
C2274 C 0.15949 0.59825 0.53141 0.0
H2275 H 0.23629 0.65582 0.50852 0.0
H2276 H 0.20464 0.64096 0.50348 0.0
H2277 H 0.18495 0.60883 0.54753 0.0
H2278 H 0.09528 0.58665 0.53512 0.0
H2279 H 0.12616 0.60377 0.53637 0.0
H2280 H 0.15073 0.597 0.48449 0.0
C2281 C 0.21293 0.63505 0.51223 0.0
C2282 C 0.17767 0.60617 0.53367 0.0
C2283 C 0.23105 0.64361 0.51525 0.0
C2284 C 0.10253 0.58214 0.52419 0.0
C2285 C 0.12023 0.59189 0.52496 0.0
C2286 C 0.15811 0.59943 0.49828 0.0
C2287 C 0.20558 0.61938 0.52085 0.0
C2288 C 0.18629 0.61081 0.51828 0.0
C2289 C 0.13027 0.58602 0.51147 0.0
C2290 C 0.14952 0.59483 0.5137 0.0
H2291 H 0.24308 0.61506 0.54432 0.0
H2292 H 0.21144 0.60003 0.53898 0.0
H2293 H 0.18267 0.61073 0.48842 0.0
H2294 H 0.09844 0.54893 0.48468 0.0
H2295 H 0.12945 0.56596 0.48606 0.0
C2296 C 0.70262 1.00789 0.7429 0.0
C2297 C 0.68768 1.00614 0.75224 0.0
C2298 C 0.7148 0.99769 0.74686 0.0
C2299 C 0.74292 0.98422 0.76907 0.0
H2300 H 0.72779 0.92826 0.76129 0.0
C2301 C 0.78651 0.93431 0.78819 0.0
C2302 C 0.78687 0.91982 0.77327 0.0
C2303 C 0.77486 0.94572 0.78651 0.0
C2304 C 0.73212 0.94389 0.76358 0.0
H2305 H 0.67355 0.9921 0.77276 0.0
H2306 H 0.69471 0.9736 0.77921 0.0
H2307 H 0.70593 0.94644 0.75729 0.0
H2308 H 0.77592 0.90679 0.74451 0.0
H2309 H 0.75518 0.92624 0.74195 0.0
H2310 H 0.76911 0.98166 0.77543 0.0
C2311 C 0.69701 0.98315 0.76905 0.0
C2312 C 0.71966 0.95423 0.76142 0.0
C2313 C 0.68496 0.99369 0.76537 0.0
C2314 C 0.77571 0.91746 0.75645 0.0
C2315 C 0.76388 0.92861 0.75492 0.0
C2316 C 0.75534 0.97389 0.77161 0.0
C2317 C 0.7121 0.98527 0.75996 0.0
C2318 C 0.72502 0.97444 0.76385 0.0
C2319 C 0.76321 0.94262 0.77001 0.0
C2320 C 0.75005 0.95365 0.76856 0.0
H2321 H 0.70512 0.01747 0.73279 0.0
H2322 H 0.72629 0.99938 0.73957 0.0
H2323 H 0.74728 0.99983 0.77106 0.0
H2324 H 0.79473 0.93638 0.80142 0.0
H2325 H 0.77451 0.95649 0.79832 0.0
C2326 C 0.77529 0.96557 0.56645 0.0
C2327 C 0.77665 0.94951 0.55397 0.0
C2328 C 0.76049 0.9726 0.56445 0.0
C2329 C 0.7222 0.97229 0.53108 0.0
H2330 H 0.70383 0.98828 0.57649 0.0
C2331 C 0.65693 0.99542 0.53092 0.0
C2332 C 0.65705 1.0115 0.54432 0.0
C2333 C 0.67111 0.98714 0.53146 0.0
C2334 C 0.70887 0.98406 0.56367 0.0
H2335 H 0.7636 0.92847 0.52932 0.0
H2336 H 0.73763 0.94071 0.52588 0.0
H2337 H 0.72927 0.97535 0.57838 0.0
H2338 H 0.67255 0.03179 0.56842 0.0
H2339 H 0.69705 0.01737 0.5694 0.0
H2340 H 0.70172 0.98109 0.5164 0.0
C2341 C 0.74812 0.94795 0.53716 0.0
C2342 C 0.7235 0.97664 0.56475 0.0
C2343 C 0.76298 0.94089 0.53916 0.0
C2344 C 0.67177 0.01916 0.55814 0.0
C2345 C 0.68587 1.01088 0.55869 0.0
C2346 C 0.70751 0.97972 0.52999 0.0
C2347 C 0.74659 0.96375 0.54994 0.0
C2348 C 0.73051 0.97088 0.54851 0.0
C2349 C 0.68572 0.99472 0.54542 0.0
C2350 C 0.70079 0.98591 0.54631 0.0
H2351 H 0.7856 0.97266 0.57796 0.0
H2352 H 0.75996 0.98504 0.57433 0.0
H2353 H 0.72733 0.96812 0.5183 0.0
H2354 H 0.64576 0.98902 0.52019 0.0
H2355 H 0.67048 0.97459 0.52112 0.0
C2356 C 0.38027 0.50756 0.75901 0.0
C2357 C 0.39804 0.51427 0.76725 0.0
C2358 C 0.36997 0.48866 0.75979 0.0
C2359 C 0.37435 0.43983 0.76921 0.0
H2360 H 0.32455 0.42924 0.77322 0.0
C2361 C 0.3331 0.36404 0.78228 0.0
C2362 C 0.31524 0.3573 0.77451 0.0
C2363 C 0.34321 0.38294 0.7813 0.0
C2364 C 0.3384 0.4317 0.77186 0.0
H2365 H 0.41843 0.50572 0.78314 0.0
H2366 H 0.40078 0.47364 0.78463 0.0
H2367 H 0.34133 0.46184 0.77128 0.0
H2368 H 0.29422 0.3656 0.75965 0.0
H2369 H 0.31157 0.39784 0.75765 0.0
H2370 H 0.37144 0.40972 0.76974 0.0
C2371 C 0.39472 0.48265 0.77719 0.0
C2372 C 0.34813 0.45064 0.77073 0.0
C2373 C 0.40492 0.50139 0.77644 0.0
C2374 C 0.30791 0.37011 0.76582 0.0
C2375 C 0.31793 0.38887 0.7648 0.0
C2376 C 0.36463 0.4209 0.77031 0.0
C2377 C 0.37705 0.47571 0.76876 0.0
C2378 C 0.36635 0.45519 0.76945 0.0
C2379 C 0.3358 0.39584 0.7726 0.0
C2380 C 0.34641 0.41635 0.77166 0.0
H2381 H 0.37437 0.51681 0.75173 0.0
H2382 H 0.35651 0.48409 0.75297 0.0
H2383 H 0.38821 0.44232 0.76789 0.0
H2384 H 0.33916 0.35495 0.78959 0.0
H2385 H 0.35678 0.38757 0.78781 0.0
C2386 C 0.21017 0.6009 0.21898 0.0
C2387 C 0.19519 0.59684 0.22823 0.0
C2388 C 0.22106 0.61971 0.22139 0.0
C2389 C 0.23254 0.6662 0.25414 0.0
H2390 H 0.25427 0.68637 0.21304 0.0
C2391 C 0.27132 0.74352 0.23471 0.0
C2392 C 0.28307 0.75155 0.25122 0.0
C2393 C 0.26115 0.72442 0.23191 0.0
C2394 C 0.24822 0.681 0.22464 0.0
H2395 H 0.17946 0.60943 0.24662 0.0
H2396 H 0.19817 0.64228 0.2504 0.0
H2397 H 0.23461 0.65385 0.20758 0.0
H2398 H 0.29353 0.74583 0.27768 0.0
H2399 H 0.27591 0.71222 0.27263 0.0
H2400 H 0.24567 0.69359 0.27105 0.0
C2401 C 0.20179 0.63087 0.24171 0.0
C2402 C 0.2371 0.66227 0.22156 0.0
C2403 C 0.19099 0.61206 0.23942 0.0
C2404 C 0.28453 0.74005 0.26485 0.0
C2405 C 0.27439 0.72084 0.26199 0.0
C2406 C 0.24359 0.68497 0.2572 0.0
C2407 C 0.21711 0.63486 0.23298 0.0
C2408 C 0.22906 0.6547 0.23625 0.0
C2409 C 0.26256 0.71284 0.24548 0.0
C2410 C 0.25146 0.69262 0.24246 0.0
H2411 H 0.21381 0.58947 0.21034 0.0
H2412 H 0.23284 0.62226 0.2146 0.0
H2413 H 0.22679 0.66069 0.26584 0.0
H2414 H 0.26978 0.75203 0.22397 0.0
H2415 H 0.25194 0.71883 0.21921 0.0
C2416 C 0.53459 0.72958 0.46703 0.0
C2417 C 0.52589 0.72839 0.44904 0.0
C2418 C 0.53335 0.713 0.475 0.0
C2419 C 0.52902 0.66211 0.46205 0.0
H2420 H 0.52033 0.65894 0.5132 0.0
C2421 C 0.55275 0.61079 0.50495 0.0
C2422 C 0.53995 0.59855 0.5131 0.0
C2423 C 0.54884 0.62575 0.49689 0.0
C2424 C 0.52263 0.65959 0.49885 0.0
H2425 H 0.5088 0.70893 0.42543 0.0
H2426 H 0.50707 0.67978 0.4392 0.0
H2427 H 0.51687 0.68699 0.49964 0.0
H2428 H 0.51309 0.59265 0.51948 0.0
H2429 H 0.50645 0.61944 0.50587 0.0
H2430 H 0.53559 0.63521 0.46153 0.0
C2431 C 0.51465 0.69363 0.44717 0.0
C2432 C 0.52073 0.67562 0.49114 0.0
C2433 C 0.51559 0.7103 0.43934 0.0
C2434 C 0.52321 0.60184 0.5133 0.0
C2435 C 0.51942 0.61714 0.50556 0.0
C2436 C 0.53127 0.64631 0.46988 0.0
C2437 C 0.52366 0.69482 0.46501 0.0
C2438 C 0.52406 0.67711 0.47271 0.0
C2439 C 0.53216 0.62907 0.49709 0.0
C2440 C 0.52828 0.645 0.48841 0.0
H2441 H 0.54259 0.74332 0.47486 0.0
H2442 H 0.54054 0.71431 0.4887 0.0
H2443 H 0.53182 0.66297 0.44788 0.0
H2444 H 0.56573 0.60859 0.50443 0.0
H2445 H 0.55892 0.63484 0.49057 0.0
C2446 C 0.65708 0.33538 0.66653 0.0
C2447 C 0.64098 0.32827 0.67324 0.0
C2448 C 0.6729 0.334 0.67574 0.0
C2449 C 0.68913 0.30442 0.70623 0.0
H2450 H 0.73261 0.34554 0.71552 0.0
C2451 C 0.74899 0.30072 0.75486 0.0
C2452 C 0.76598 0.3086 0.75064 0.0
C2453 C 0.73425 0.30308 0.74443 0.0
C2454 C 0.72066 0.3338 0.71278 0.0
H2455 H 0.62912 0.3149 0.69543 0.0
H2456 H 0.65662 0.31257 0.71141 0.0
H2457 H 0.70603 0.35064 0.69974 0.0
H2458 H 0.7809 0.32479 0.732 0.0
H2459 H 0.7551 0.32859 0.71337 0.0
H2460 H 0.7036 0.28746 0.71901 0.0
C2461 C 0.65698 0.31898 0.69889 0.0
C2462 C 0.70541 0.33676 0.70379 0.0
C2463 C 0.64121 0.32046 0.68978 0.0
C2464 C 0.76794 0.31859 0.73553 0.0
C2465 C 0.75316 0.32089 0.72499 0.0
C2466 C 0.70435 0.3014 0.71506 0.0
C2467 C 0.67296 0.32535 0.69177 0.0
C2468 C 0.68941 0.32219 0.70068 0.0
C2469 C 0.73611 0.31326 0.72939 0.0
C2470 C 0.72026 0.31614 0.71873 0.0
H2471 H 0.65741 0.34148 0.65383 0.0
H2472 H 0.68499 0.33901 0.66989 0.0
H2473 H 0.67712 0.29274 0.70364 0.0
H2474 H 0.74707 0.293 0.76647 0.0
H2475 H 0.72141 0.29728 0.74848 0.0
C2476 C 0.03844 0.34052 0.94727 0.0
C2477 C 0.02158 0.32928 0.9491 0.0
C2478 C 0.04345 0.36049 0.9538 0.0
C2479 C 0.02621 0.40125 0.95859 0.0
H2480 H 0.06266 0.42718 1.00002 0.0
C2481 C 0.03287 0.4794 0.99292 0.0
C2482 C 0.04951 0.49151 1.00079 0.0
C2483 C 0.03069 0.45986 0.98617 0.0
C2484 C 0.05268 0.42031 0.98817 0.0
H2485 H 0.99684 0.33012 0.95932 0.0
H2486 H 1.00544 0.365 0.97013 0.0
H2487 H 0.05718 0.39249 0.98908 0.0
H2488 H 0.07703 0.4927 1.00749 0.0
H2489 H 0.07342 0.45874 0.99493 0.0
H2490 H 0.02188 0.42879 0.95707 0.0
C2491 C 0.01481 0.35829 0.96391 0.0
C2492 C 0.04951 0.40042 0.98203 0.0
C2493 C 0.00995 0.33834 0.95779 0.0
C2494 C 0.06401 0.48369 1.00156 0.0
C2495 C 0.06189 0.46416 0.99447 0.0
C2496 C 0.02959 0.42114 0.96443 0.0
C2497 C 0.03152 0.36952 0.96185 0.0
C2498 C 0.03603 0.39072 0.96742 0.0
C2499 C 0.04516 0.45192 0.98675 0.0
C2500 C 0.04262 0.43093 0.97959 0.0
H2501 H 0.04768 0.33392 0.94065 0.0
H2502 H 0.0564 0.36896 0.95207 0.0
H2503 H 0.01585 0.39404 0.94716 0.0
H2504 H 0.02138 0.48492 0.99237 0.0
H2505 H 0.01751 0.45093 0.98084 0.0
C2506 C 0.04188 0.81611 0.19312 0.0
C2507 C 0.04634 0.82585 0.1782 0.0
C2508 C 0.02686 0.81714 0.20142 0.0
C2509 C 0.98341 0.82592 0.1922 0.0
H2510 H 0.98437 0.82885 0.24583 0.0
C2511 C 0.92168 0.82648 0.22989 0.0
C2512 C 0.91902 0.81493 0.24383 0.0
C2513 C 0.93743 0.82976 0.22194 0.0
C2514 C 0.98382 0.82787 0.23081 0.0
H2515 H 0.03855 0.84455 0.16046 0.0
H2516 H 0.01218 0.84637 0.17503 0.0
H2517 H 0.01159 0.83147 0.23205 0.0
H2518 H 0.93105 0.79815 0.26058 0.0
H2519 H 0.95817 0.80349 0.24653 0.0
H2520 H 0.95554 0.82196 0.19096 0.0
C2521 C 0.02034 0.83785 0.18021 0.0
C2522 C 0.99945 0.82941 0.22291 0.0
C2523 C 0.0355 0.83691 0.17195 0.0
C2524 C 0.93251 0.80688 0.24969 0.0
C2525 C 0.9482 0.81018 0.24181 0.0
C2526 C 0.96773 0.82435 0.20012 0.0
C2527 C 0.01581 0.82789 0.195 0.0
C2528 C 0.99941 0.8281 0.20348 0.0
C2529 C 0.95091 0.82168 0.22785 0.0
C2530 C 0.9677 0.82494 0.21949 0.0
H2531 H 0.04989 0.80742 0.19827 0.0
H2532 H 0.02365 0.80907 0.21259 0.0
H2533 H 0.98289 0.82469 0.17716 0.0
H2534 H 0.91153 0.83281 0.22496 0.0
H2535 H 0.93911 0.83879 0.21131 0.0
C2536 C 0.51353 0.28358 0.10526 0.0
C2537 C 0.50196 0.27977 0.11861 0.0
C2538 C 0.51655 0.30093 0.09852 0.0
C2539 C 0.49898 0.34236 0.09324 0.0
H2540 H 0.54749 0.36681 0.08809 0.0
C2541 C 0.52105 0.41719 0.07054 0.0
C2542 C 0.53301 0.41869 0.05733 0.0
C2543 C 0.51696 0.40088 0.07909 0.0
C2544 C 0.53386 0.3601 0.0893 0.0
H2545 H 0.48406 0.29096 0.13496 0.0
H2546 H 0.48944 0.32155 0.12315 0.0
H2547 H 0.54048 0.3371 0.10088 0.0
H2548 H 0.54978 0.40406 0.04251 0.0
H2549 H 0.54273 0.37575 0.05745 0.0
H2550 H 0.4924 0.36539 0.08147 0.0
C2551 C 0.4961 0.31097 0.11789 0.0
C2552 C 0.52984 0.34307 0.09663 0.0
C2553 C 0.49304 0.2935 0.12467 0.0
C2554 C 0.5408 0.40355 0.05289 0.0
C2555 C 0.53673 0.3873 0.06145 0.0
C2556 C 0.50302 0.35946 0.08588 0.0
C2557 C 0.50814 0.31498 0.10498 0.0
C2558 C 0.51233 0.33381 0.09839 0.0
C2559 C 0.52478 0.38577 0.07464 0.0
C2560 C 0.52049 0.36834 0.08357 0.0
H2561 H 0.52048 0.27325 0.10014 0.0
H2562 H 0.52558 0.30338 0.08826 0.0
H2563 H 0.48535 0.3355 0.09433 0.0
H2564 H 0.51498 0.42871 0.07442 0.0
H2565 H 0.50785 0.40022 0.08936 0.0
C2566 C 0.03942 0.30541 0.37511 0.0
C2567 C 0.05199 0.30281 0.3633 0.0
C2568 C 0.02242 0.3048 0.36759 0.0
C2569 C 0.99122 0.29172 0.32346 0.0
H2570 H 0.97247 0.3316 0.34825 0.0
C2571 C 0.93397 0.33357 0.31001 0.0
C2572 C 0.9195 0.31777 0.3024 0.0
C2573 C 0.95001 0.33067 0.31653 0.0
C2574 C 0.97759 0.32052 0.34103 0.0
H2575 H 0.05644 0.29677 0.33436 0.0
H2576 H 0.02697 0.29629 0.32126 0.0
H2577 H 1.00022 0.32767 0.36158 0.0
H2578 H 0.9108 0.28653 0.29486 0.0
H2579 H 0.93862 0.28144 0.30692 0.0
H2580 H 0.96887 0.28517 0.30245 0.0
C2581 C 0.03009 0.29842 0.33632 0.0
C2582 C 0.99337 0.31802 0.34887 0.0
C2583 C 0.04703 0.2988 0.34384 0.0
C2584 C 0.92161 0.29901 0.30094 0.0
C2585 C 0.93763 0.29609 0.30764 0.0
C2586 C 0.97547 0.29433 0.31551 0.0
C2587 C 0.01771 0.30184 0.34811 0.0
C2588 C 1.00042 0.30364 0.34016 0.0
C2589 C 0.95191 0.31189 0.3158 0.0
C2590 C 0.96855 0.30886 0.32416 0.0
H2591 H 0.0428 0.30829 0.39017 0.0
H2592 H 0.01307 0.30703 0.37707 0.0
H2593 H 0.99621 0.28039 0.31649 0.0
H2594 H 0.93279 0.34821 0.31151 0.0
H2595 H 0.96087 0.34317 0.32238 0.0
C2596 C 0.98188 0.6633 0.6266 0.0
C2597 C 0.98762 0.68174 0.62187 0.0
C2598 C 0.98168 0.64681 0.61396 0.0
C2599 C 0.99772 0.61869 0.59137 0.0
H2600 H 0.98573 0.61257 0.53765 0.0
C2601 C 0.02915 0.57568 0.53896 0.0
C2602 C 0.01837 0.56348 0.52329 0.0
C2603 C 0.02241 0.58786 0.55105 0.0
C2604 C 0.9889 0.61393 0.55264 0.0
H2605 H 0.99662 0.6972 0.59971 0.0
H2606 H 0.99634 0.66848 0.57776 0.0
H2607 H 0.97804 0.63799 0.55831 0.0
H2608 H 0.99215 0.55446 0.50777 0.0
H2609 H 0.98036 0.57618 0.52881 0.0
H2610 H 0.00899 0.59497 0.58568 0.0
C2611 C 0.99193 0.66675 0.5912 0.0
C2612 C 0.98464 0.62856 0.56444 0.0
C2613 C 0.99221 0.68324 0.60385 0.0
C2614 C 1.00073 0.56378 0.51977 0.0
C2615 C 0.994 0.57616 0.53178 0.0
C2616 C 1.00208 0.60417 0.57957 0.0
C2617 C 0.9871 0.64841 0.5963 0.0
C2618 C 0.98936 0.63136 0.5839 0.0
C2619 C 1.00479 0.58827 0.54757 0.0
C2620 C 0.99809 0.60195 0.56008 0.0
H2621 H 0.97816 0.66162 0.64032 0.0
H2622 H 0.9777 0.63284 0.61819 0.0
H2623 H 1.00167 0.62056 0.60628 0.0
H2624 H 0.04287 0.57598 0.54181 0.0
H2625 H 0.03112 0.59729 0.56291 0.0
C2626 C 0.64426 0.85409 0.84802 0.0
C2627 C 0.64824 0.85207 0.8667 0.0
C2628 C 0.65687 0.85454 0.83576 0.0
C2629 C 0.68158 0.8391 0.81162 0.0
H2630 H 0.73089 0.86525 0.82812 0.0
C2631 C 0.73829 0.81113 0.78697 0.0
C2632 C 0.75446 0.82428 0.78603 0.0
C2633 C 0.72416 0.81774 0.79247 0.0
C2634 C 0.71715 0.85817 0.82308 0.0
H2635 H 0.6687 0.84959 0.8873 0.0
H2636 H 0.69065 0.85035 0.86591 0.0
H2637 H 0.70872 0.87196 0.84718 0.0
H2638 H 0.76803 0.85472 0.78868 0.0
H2639 H 0.74329 0.8662 0.7983 0.0
H2640 H 0.6901 0.82477 0.78784 0.0
C2641 C 0.67784 0.85171 0.86079 0.0
C2642 C 0.70449 0.86186 0.83411 0.0
C2643 C 0.66522 0.8511 0.873 0.0
C2644 C 0.75581 0.84418 0.78944 0.0
C2645 C 0.74167 0.85078 0.79499 0.0
C2646 C 0.69426 0.83534 0.80061 0.0
C2647 C 0.67372 0.85318 0.842 0.0
C2648 C 0.68667 0.85187 0.82881 0.0
C2649 C 0.7259 0.83763 0.79715 0.0
C2650 C 0.71222 0.84436 0.80656 0.0
H2651 H 0.6313 0.8549 0.84274 0.0
H2652 H 0.6534 0.85576 0.82136 0.0
H2653 H 0.66792 0.83116 0.80722 0.0
H2654 H 0.73674 0.79571 0.78427 0.0
H2655 H 0.71223 0.80724 0.79415 0.0
C2656 C 0.47897 0.56422 0.71709 0.0
C2657 C 0.46277 0.56906 0.71731 0.0
C2658 C 0.48739 0.56312 0.7007 0.0
C2659 C 0.47986 0.56025 0.64743 0.0
H2660 H 0.53068 0.57209 0.65253 0.0
C2661 C 0.51945 0.55048 0.58182 0.0
C2662 C 0.53636 0.56327 0.58263 0.0
C2663 C 0.50983 0.55067 0.59753 0.0
C2664 C 0.51647 0.56883 0.65056 0.0
H2665 H 0.44305 0.57648 0.69944 0.0
H2666 H 0.45761 0.57479 0.67128 0.0
H2667 H 0.51596 0.57405 0.68026 0.0
H2668 H 0.55588 0.58645 0.60115 0.0
H2669 H 0.53954 0.58693 0.62765 0.0
H2670 H 0.48053 0.55533 0.61758 0.0
C2671 C 0.46385 0.57159 0.6838 0.0
C2672 C 0.50785 0.56972 0.66679 0.0
C2673 C 0.45546 0.57276 0.70022 0.0
C2674 C 0.54302 0.57624 0.59967 0.0
C2675 C 0.53357 0.5764 0.6152 0.0
C2676 C 0.48851 0.55927 0.63113 0.0
C2677 C 0.48007 0.56672 0.68354 0.0
C2678 C 0.4893 0.56554 0.66575 0.0
C2679 C 0.51679 0.56352 0.61475 0.0
C2680 C 0.50709 0.56371 0.63224 0.0
H2681 H 0.48518 0.56106 0.72966 0.0
H2682 H 0.49961 0.55903 0.70151 0.0
H2683 H 0.46563 0.55661 0.64556 0.0
H2684 H 0.51379 0.54004 0.56923 0.0
H2685 H 0.49708 0.54035 0.59626 0.0
C2686 C 0.77319 0.16361 0.96586 0.0
C2687 C 0.77242 0.17385 0.98349 0.0
C2688 C 0.77087 0.17159 0.94978 0.0
C2689 C 0.75396 0.21061 0.93347 0.0
H2690 H 0.78378 0.20619 0.89464 0.0
C2691 C 0.77646 0.26676 0.88693 0.0
C2692 C 0.77687 0.26023 0.8679 0.0
C2693 C 0.77126 0.25359 0.89881 0.0
C2694 C 0.77512 0.20722 0.90521 0.0
H2695 H 0.76943 0.20068 0.99834 0.0
H2696 H 0.76621 0.2149 0.97063 0.0
H2697 H 0.78484 0.18796 0.92005 0.0
H2698 H 0.77056 0.23482 0.84611 0.0
H2699 H 0.76222 0.2118 0.86716 0.0
H2700 H 0.74521 0.23095 0.91919 0.0
C2701 C 0.76783 0.20043 0.96895 0.0
C2702 C 0.7757 0.19678 0.91975 0.0
C2703 C 0.76989 0.19238 0.98488 0.0
C2704 C 0.77086 0.2403 0.8608 0.0
C2705 C 0.76596 0.22712 0.87276 0.0
C2706 C 0.7536 0.22127 0.9191 0.0
C2707 C 0.76795 0.19002 0.95117 0.0
C2708 C 0.76553 0.19883 0.93436 0.0
C2709 C 0.76658 0.23367 0.89192 0.0
C2710 C 0.76451 0.22001 0.90514 0.0
H2711 H 0.77499 0.14922 0.96443 0.0
H2712 H 0.771 0.16318 0.93629 0.0
H2713 H 0.74557 0.21209 0.94422 0.0
H2714 H 0.78115 0.28196 0.89292 0.0
H2715 H 0.77199 0.25894 0.9136 0.0
C2716 C 0.11909 0.50672 0.17589 0.0
C2717 C 0.11931 0.51578 0.19433 0.0
C2718 C 0.10409 0.50288 0.16286 0.0
C2719 C 0.0702 0.49469 0.1369 0.0
H2720 H 0.05664 0.54248 0.13883 0.0
C2721 C 0.03419 0.51425 0.07279 0.0
C2722 C 0.04338 0.5322 0.06897 0.0
C2723 C 0.03817 0.5089 0.08999 0.0
C2724 C 0.06008 0.52892 0.1382 0.0
H2725 H 0.10334 0.52594 0.2141 0.0
H2726 H 0.0771 0.51912 0.19129 0.0
H2727 H 0.07289 0.53671 0.16628 0.0
H2728 H 0.06352 0.55884 0.08006 0.0
H2729 H 0.07043 0.54961 0.11001 0.0
H2730 H 0.05851 0.48771 0.10823 0.0
C2731 C 0.08866 0.51535 0.18686 0.0
C2732 C 0.06923 0.52549 0.154 0.0
C2733 C 0.10369 0.51923 0.19991 0.0
C2734 C 0.05626 0.54491 0.08268 0.0
C2735 C 0.06008 0.53969 0.09988 0.0
C2736 C 0.06101 0.49814 0.12106 0.0
C2737 C 0.08898 0.50797 0.168 0.0
C2738 C 0.07517 0.50878 0.15323 0.0
C2739 C 0.05119 0.52159 0.10366 0.0
C2740 C 0.05669 0.51574 0.12134 0.0
H2741 H 0.13083 0.50366 0.17118 0.0
H2742 H 0.10488 0.49732 0.14845 0.0
H2743 H 0.07437 0.48155 0.13599 0.0
H2744 H 0.0242 0.50421 0.06236 0.0
H2745 H 0.03118 0.49486 0.09258 0.0
C2746 C 0.80023 0.87997 0.47963 0.0
C2747 C 0.80754 0.87082 0.49275 0.0
C2748 C 0.79862 0.87294 0.46042 0.0
C2749 C 0.79025 0.85087 0.42025 0.0
H2750 H 0.82853 0.83138 0.40351 0.0
C2751 C 0.78894 0.8156 0.34331 0.0
C2752 C 0.80489 0.81898 0.33563 0.0
C2753 C 0.78869 0.8218 0.36236 0.0
C2754 C 0.8178 0.83695 0.40787 0.0
H2755 H 0.81796 0.84648 0.49603 0.0
H2756 H 0.81465 0.83391 0.46273 0.0
H2757 H 0.82868 0.84223 0.43664 0.0
H2758 H 0.83307 0.83192 0.34202 0.0
H2759 H 0.8326 0.84308 0.37507 0.0
H2760 H 0.77973 0.84619 0.39134 0.0
C2761 C 0.81066 0.84687 0.46715 0.0
C2762 C 0.81773 0.8429 0.42698 0.0
C2763 C 0.81241 0.85399 0.48629 0.0
C2764 C 0.82056 0.82892 0.34745 0.0
C2765 C 0.82029 0.83523 0.36647 0.0
C2766 C 0.79037 0.84499 0.4011 0.0
C2767 C 0.80417 0.85651 0.4539 0.0
C2768 C 0.80395 0.84992 0.43347 0.0
C2769 C 0.80437 0.83166 0.37423 0.0
C2770 C 0.80416 0.83796 0.39464 0.0
H2771 H 0.79644 0.89304 0.48414 0.0
H2772 H 0.79368 0.88085 0.45068 0.0
H2773 H 0.77934 0.85603 0.4247 0.0
H2774 H 0.77661 0.80792 0.33467 0.0
H2775 H 0.7762 0.81853 0.36782 0.0
C2776 C 0.47916 0.57533 0.84026 0.0
C2777 C 0.47702 0.5603 0.8249 0.0
C2778 C 0.48689 0.57431 0.85828 0.0
C2779 C 0.51274 0.54549 0.88393 0.0
H2780 H 0.49997 0.57251 0.92808 0.0
C2781 C 0.53286 0.53172 0.95936 0.0
C2782 C 0.53752 0.54729 0.97457 0.0
C2783 C 0.52599 0.53378 0.94141 0.0
C2784 C 0.5039 0.56497 0.91598 0.0
H2785 H 0.48148 0.5322 0.81709 0.0
H2786 H 0.49433 0.53014 0.84807 0.0
H2787 H 0.48729 0.57504 0.89713 0.0
H2788 H 0.53824 0.57744 0.98218 0.0
H2789 H 0.5262 0.58099 0.95113 0.0
H2790 H 0.52907 0.53513 0.90288 0.0
C2791 C 0.49054 0.54312 0.84634 0.0
C2792 C 0.49658 0.56646 0.89796 0.0
C2793 C 0.48297 0.54424 0.82833 0.0
C2794 C 0.53493 0.56503 0.97102 0.0
C2795 C 0.52785 0.56704 0.95308 0.0
C2796 C 0.51989 0.54384 0.90193 0.0
C2797 C 0.4927 0.55811 0.86184 0.0
C2798 C 0.50077 0.55673 0.88142 0.0
C2799 C 0.52324 0.55146 0.93783 0.0
C2800 C 0.51564 0.55351 0.9184 0.0
H2801 H 0.47481 0.58798 0.8384 0.0
H2802 H 0.48841 0.58645 0.86938 0.0
H2803 H 0.51689 0.53803 0.87195 0.0
H2804 H 0.53454 0.51777 0.96128 0.0
H2805 H 0.52251 0.52128 0.93036 0.0
C2806 C 0.79641 0.17428 0.10092 0.0
C2807 C 0.79679 0.17867 0.08282 0.0
C2808 C 0.80103 0.18907 0.11649 0.0
C2809 C 0.80268 0.24035 0.12946 0.0
H2810 H 0.82317 0.23343 0.17742 0.0
C2811 C 0.81455 0.29449 0.20057 0.0
C2812 C 0.80741 0.28538 0.21494 0.0
C2813 C 0.81495 0.28347 0.18325 0.0
C2814 C 0.81753 0.23558 0.16406 0.0
H2815 H 0.80341 0.20189 0.06686 0.0
H2816 H 0.81182 0.22763 0.09406 0.0
H2817 H 0.82261 0.21029 0.14943 0.0
H2818 H 0.79413 0.25794 0.22219 0.0
H2819 H 0.79501 0.23886 0.1922 0.0
H2820 H 0.79749 0.26562 0.14437 0.0
C2821 C 0.80752 0.21283 0.09621 0.0
C2822 C 0.81713 0.22231 0.14807 0.0
C2823 C 0.80277 0.19806 0.08064 0.0
C2824 C 0.79988 0.26533 0.21144 0.0
C2825 C 0.80047 0.25438 0.19434 0.0
C2826 C 0.80327 0.25377 0.14548 0.0
C2827 C 0.80629 0.20853 0.11428 0.0
C2828 C 0.80917 0.22418 0.13069 0.0
C2829 C 0.8084 0.26327 0.1803 0.0
C2830 C 0.81018 0.25109 0.16296 0.0
H2831 H 0.79183 0.1595 0.10306 0.0
H2832 H 0.79971 0.18523 0.13019 0.0
H2833 H 0.79632 0.24214 0.11632 0.0
H2834 H 0.82041 0.30995 0.20296 0.0
H2835 H 0.82101 0.29058 0.17249 0.0
C2836 C 0.15567 0.55045 0.30587 0.0
C2837 C 0.15976 0.53724 0.29213 0.0
C2838 C 0.15526 0.54705 0.32415 0.0
C2839 C 0.16125 0.53968 0.36368 0.0
H2840 H 0.1254 0.49259 0.36513 0.0
C2841 C 0.10982 0.53657 0.41236 0.0
C2842 C 0.10168 0.51937 0.41834 0.0
C2843 C 0.12321 0.5372 0.40116 0.0
C2844 C 0.13585 0.50553 0.36522 0.0
H2845 H 0.16722 0.51045 0.28676 0.0
H2846 H 0.16586 0.50414 0.31884 0.0
H2847 H 0.13839 0.49676 0.33652 0.0
H2848 H 0.10203 0.48964 0.41831 0.0
H2849 H 0.12539 0.49066 0.39834 0.0
H2850 H 0.15802 0.54892 0.39205 0.0
C2851 C 0.16325 0.51724 0.31541 0.0
C2852 C 0.14328 0.50792 0.34878 0.0
C2853 C 0.16398 0.52083 0.29712 0.0
C2854 C 0.10785 0.50301 0.41362 0.0
C2855 C 0.12127 0.50362 0.4023 0.0
C2856 C 0.15396 0.53723 0.38017 0.0
C2857 C 0.1587 0.53024 0.32902 0.0
C2858 C 0.15525 0.52547 0.34757 0.0
C2859 C 0.12878 0.52061 0.39558 0.0
C2860 C 0.14038 0.52063 0.38071 0.0
H2861 H 0.15251 0.56329 0.30245 0.0
H2862 H 0.15143 0.55716 0.33429 0.0
H2863 H 0.17069 0.55323 0.36313 0.0
H2864 H 0.10524 0.54936 0.41548 0.0
H2865 H 0.12838 0.55041 0.39591 0.0
C2866 C 0.81038 0.89368 0.61645 0.0
C2867 C 0.80895 0.88286 0.59847 0.0
C2868 C 0.80872 0.88464 0.63209 0.0
C2869 C 0.81037 0.83873 0.64824 0.0
H2870 H 0.78895 0.85914 0.68954 0.0
C2871 C 0.79196 0.79876 0.70987 0.0
C2872 C 0.79634 0.80986 0.72794 0.0
C2873 C 0.79392 0.80762 0.69411 0.0
C2874 C 0.79511 0.85339 0.67818 0.0
H2875 H 0.80431 0.8539 0.58286 0.0
H2876 H 0.80085 0.83801 0.61007 0.0
H2877 H 0.7907 0.87421 0.66177 0.0
H2878 H 0.80618 0.8388 0.74367 0.0
H2879 H 0.80943 0.85446 0.71617 0.0
H2880 H 0.81435 0.81761 0.66461 0.0
C2881 C 0.80371 0.8536 0.61217 0.0
C2882 C 0.79617 0.86204 0.66224 0.0
C2883 C 0.80556 0.86269 0.59651 0.0
C2884 C 0.80278 0.82996 0.72995 0.0
C2885 C 0.80453 0.83889 0.71419 0.0
C2886 C 0.80912 0.82994 0.6641 0.0
C2887 C 0.80539 0.86446 0.63022 0.0
C2888 C 0.80388 0.8549 0.64705 0.0
C2889 C 0.80008 0.8278 0.69608 0.0
C2890 C 0.80154 0.83722 0.67928 0.0
H2891 H 0.81313 0.90927 0.61853 0.0
H2892 H 0.81043 0.89358 0.64573 0.0
H2893 H 0.8167 0.833 0.63704 0.0
H2894 H 0.78693 0.7832 0.7079 0.0
H2895 H 0.79024 0.79869 0.68035 0.0
C2896 C 0.75342 0.4862 0.47762 0.0
C2897 C 0.7668 0.49456 0.49272 0.0
C2898 C 0.74147 0.49629 0.47223 0.0
C2899 C 0.73173 0.54436 0.48066 0.0
H2900 H 0.68378 0.51316 0.47862 0.0
C2901 C 0.67734 0.57274 0.51105 0.0
C2902 C 0.65971 0.56457 0.50306 0.0
C2903 C 0.69081 0.56637 0.50339 0.0
C2904 C 0.69702 0.52208 0.47868 0.0
H2905 H 0.77902 0.52059 0.51304 0.0
H2906 H 0.75815 0.53794 0.50396 0.0
H2907 H 0.70736 0.49758 0.47621 0.0
H2908 H 0.64254 0.54455 0.4798 0.0
H2909 H 0.66611 0.53325 0.46651 0.0
H2910 H 0.72136 0.56895 0.48433 0.0
C2911 C 0.75686 0.52372 0.49608 0.0
C2912 C 0.71059 0.51311 0.47727 0.0
C2913 C 0.76877 0.51367 0.50143 0.0
C2914 C 0.65597 0.55081 0.48651 0.0
C2915 C 0.66945 0.5444 0.47886 0.0
C2916 C 0.71814 0.55334 0.48216 0.0
C2917 C 0.7427 0.51492 0.48185 0.0
C2918 C 0.72819 0.52418 0.47901 0.0
C2919 C 0.68694 0.55166 0.48758 0.0
C2920 C 0.70074 0.54231 0.48192 0.0
H2921 H 0.75164 0.47155 0.47053 0.0
H2922 H 0.73086 0.48922 0.46103 0.0
H2923 H 0.74511 0.55328 0.48167 0.0
H2924 H 0.68065 0.58323 0.52389 0.0
H2925 H 0.70411 0.57209 0.51059 0.0
C2926 C 0.23735 0.1344 0.50811 0.0
C2927 C 0.23953 0.15222 0.50199 0.0
C2928 C 0.22052 0.12228 0.50804 0.0
C2929 C 0.18431 0.10753 0.51948 0.0
H2930 H 0.14618 0.09849 0.47914 0.0
C2931 C 0.11259 0.07141 0.5281 0.0
C2932 C 0.10286 0.05682 0.51342 0.0
C2933 C 0.12883 0.08336 0.52579 0.0
C2934 C 0.15672 0.10082 0.49048 0.0
H2935 H 0.22562 0.17084 0.49023 0.0
H2936 H 0.19625 0.14966 0.49011 0.0
H2937 H 0.17563 0.1179 0.47608 0.0
H2938 H 0.10217 0.04361 0.48466 0.0
H2939 H 0.13067 0.06448 0.4806 0.0
H2940 H 0.16555 0.09042 0.53385 0.0
C2941 C 0.2076 0.14506 0.49493 0.0
C2942 C 0.17355 0.11205 0.48879 0.0
C2943 C 0.22445 0.15724 0.49507 0.0
C2944 C 0.10945 0.05472 0.49622 0.0
C2945 C 0.1257 0.06674 0.49387 0.0
C2946 C 0.16752 0.09644 0.52121 0.0
C2947 C 0.20543 0.12762 0.50178 0.0
C2948 C 0.18755 0.11549 0.50327 0.0
C2949 C 0.1357 0.08102 0.50873 0.0
C2950 C 0.15351 0.09296 0.50676 0.0
H2951 H 0.24864 0.12999 0.51345 0.0
H2952 H 0.21931 0.10879 0.51311 0.0
H2953 H 0.19474 0.11009 0.531 0.0
H2954 H 0.10783 0.07337 0.54151 0.0
H2955 H 0.13607 0.09441 0.53742 0.0
C2956 C 0.23036 0.97752 0.76239 0.0
C2957 C 0.21772 0.97965 0.77447 0.0
C2958 C 0.23833 0.96202 0.76179 0.0
C2959 C 0.23334 0.91222 0.77526 0.0
H2960 H 0.28156 0.91994 0.76511 0.0
C2961 C 0.26576 0.84694 0.76291 0.0
C2962 C 0.28389 0.85002 0.769 0.0
C2963 C 0.25776 0.86244 0.76357 0.0
C2964 C 0.2681 0.91733 0.76808 0.0
H2965 H 0.20379 0.96629 0.79543 0.0
H2966 H 0.21742 0.9395 0.79436 0.0
H2967 H 0.26803 0.94668 0.76654 0.0
H2968 H 0.30755 0.87275 0.78055 0.0
H2969 H 0.29388 0.89941 0.78154 0.0
H2970 H 0.23344 0.88289 0.77689 0.0
C2971 C 0.22123 0.94981 0.78516 0.0
C2972 C 0.26015 0.93285 0.76871 0.0
C2973 C 0.21339 0.96543 0.78588 0.0
C2974 C 0.29362 0.86943 0.77563 0.0
C2975 C 0.28568 0.88494 0.77611 0.0
C2976 C 0.24123 0.89664 0.77444 0.0
C2977 C 0.23396 0.94768 0.77312 0.0
C2978 C 0.24256 0.93077 0.77237 0.0
C2979 C 0.2675 0.8819 0.77017 0.0
C2980 C 0.25886 0.89876 0.77088 0.0
H2981 H 0.23418 0.98792 0.75327 0.0
H2982 H 0.24779 0.96116 0.7521 0.0
H2983 H 0.21979 0.90954 0.77794 0.0
H2984 H 0.25758 0.83244 0.75771 0.0
H2985 H 0.24385 0.85907 0.75859 0.0
C2986 C 0.33924 0.93982 0.04492 0.0
C2987 C 0.33119 0.95184 0.036 0.0
C2988 C 0.35727 0.94571 0.05125 0.0
C2989 C 0.39727 0.98825 0.05754 0.0
H2990 H 0.42118 0.94788 0.05135 0.0
C2991 C 0.46792 0.97847 0.03818 0.0
C2992 C 0.47914 0.99612 0.04772 0.0
C2993 C 0.45048 0.97263 0.04147 0.0
C2994 C 0.41476 0.95939 0.05305 0.0
H2995 H 0.3355 0.97949 0.02687 0.0
H2996 H 0.36707 0.9893 0.0367 0.0
H2997 H 0.38941 0.93929 0.04737 0.0
H2998 H 0.48116 0.0209 0.06916 0.0
H2999 H 0.45082 1.0103 0.07552 0.0
H3000 H 0.42267 1.00839 0.06143 0.0
C3001 C 0.35952 0.97567 0.03965 0.0
C3002 C 0.39641 0.95443 0.0511 0.0
C3003 C 0.3414 0.96999 0.03381 0.0
C3004 C 0.4728 1.00727 0.06147 0.0
C3005 C 0.45535 1.00126 0.065 0.0
C3006 C 0.41564 0.99323 0.05901 0.0
C3007 C 0.36778 0.96352 0.04828 0.0
C3008 C 0.38735 0.9688 0.05282 0.0
C3009 C 0.44381 0.9841 0.05466 0.0
C3010 C 0.42461 0.97886 0.05623 0.0
H3011 H 0.33157 0.92585 0.04703 0.0
H3012 H 0.36296 0.93614 0.05828 0.0
H3013 H 0.39087 0.99975 0.05955 0.0
H3014 H 0.47229 0.96955 0.0274 0.0
H3015 H 0.44204 0.95954 0.03291 0.0
C3016 C 0.88076 0.59301 0.81653 0.0
C3017 C 0.89908 0.6008 0.82067 0.0
C3018 C 0.86987 0.60496 0.81382 0.0
C3019 C 0.87159 0.64905 0.79595 0.0
H3020 H 0.82515 0.64326 0.81122 0.0
C3021 C 0.82746 0.69755 0.77811 0.0
C3022 C 0.80918 0.68921 0.77431 0.0
C3023 C 0.83863 0.68687 0.78386 0.0
C3024 C 0.838 0.64484 0.80663 0.0
H3025 H 0.92031 0.62725 0.82658 0.0
H3026 H 0.90117 0.64823 0.82173 0.0
H3027 H 0.84449 0.62557 0.82394 0.0
H3028 H 0.78833 0.66288 0.77254 0.0
H3029 H 0.80795 0.64398 0.78225 0.0
H3030 H 0.86502 0.6679 0.77828 0.0
C3031 C 0.89531 0.63285 0.82048 0.0
C3032 C 0.8491 0.63486 0.81406 0.0
C3033 C 0.90622 0.62089 0.8234 0.0
C3034 C 0.80236 0.66969 0.77553 0.0
C3035 C 0.81357 0.65895 0.78121 0.0
C3036 C 0.86046 0.65893 0.78843 0.0
C3037 C 0.87712 0.62489 0.81505 0.0
C3038 C 0.86596 0.63682 0.80871 0.0
C3039 C 0.83177 0.66758 0.78587 0.0
C3040 C 0.84351 0.65685 0.79361 0.0
H3041 H 0.87491 0.57756 0.81445 0.0
H3042 H 0.8559 0.59843 0.80959 0.0
H3043 H 0.8844 0.6505 0.79129 0.0
H3044 H 0.83308 0.71268 0.77766 0.0
H3045 H 0.85254 0.69402 0.78756 0.0
C3046 C 0.8468 0.66133 0.99705 0.0
C3047 C 0.83563 0.65659 0.01059 0.0
C3048 C 0.86162 0.6542 0.99585 0.0
C3049 C 0.89183 0.63454 0.0241 0.0
H3050 H 0.90433 0.61516 0.97627 0.0
C3051 C 0.94314 0.59078 0.01819 0.0
C3052 C 0.95448 0.59367 1.00449 0.0
C3053 C 0.92925 0.5994 0.01888 0.0
C3054 C 0.90118 0.62077 0.98975 0.0
H3055 H 0.83111 0.64033 0.03323 0.0
H3056 H 0.8567 0.62787 0.03102 0.0
H3057 H 0.87888 0.62829 0.97724 0.0
H3058 H 0.96034 0.60839 0.98105 0.0
H3059 H 0.93616 0.6235 0.98231 0.0
H3060 H 0.91405 0.62703 0.03666 0.0
C3061 C 0.85423 0.63731 0.02151 0.0
C3062 C 0.88657 0.62828 0.99029 0.0
C3063 C 0.83945 0.64436 0.02267 0.0
C3064 C 0.95171 0.60563 0.99163 0.0
C3065 C 0.93782 0.61427 0.99234 0.0
C3066 C 0.90644 0.62709 0.02357 0.0
C3067 C 0.86561 0.64226 1.00822 0.0
C3068 C 0.8816 0.63506 1.00749 0.0
C3069 C 0.92634 0.61118 1.0059 0.0
C3070 C 0.91122 0.61991 1.0064 0.0
H3071 H 0.84425 0.67075 0.98756 0.0
H3072 H 0.87017 0.65839 0.98552 0.0
H3073 H 0.8886 0.64 0.03759 0.0
H3074 H 0.94469 0.58141 0.02812 0.0
H3075 H 0.92052 0.59641 0.02933 0.0
C3076 C 0.20878 0.10448 0.79939 0.0
C3077 C 0.21473 0.08834 0.79261 0.0
C3078 C 0.21823 0.12351 0.79831 0.0
C3079 C 0.25423 0.15183 0.77408 0.0
H3080 H 0.25131 0.19509 0.81038 0.0
C3081 C 0.29865 0.23039 0.7762 0.0
C3082 C 0.29201 0.24641 0.78125 0.0
C3083 C 0.28905 0.21143 0.77723 0.0
C3084 C 0.25218 0.1833 0.79991 0.0
H3085 H 0.23594 0.08033 0.77955 0.0
H3086 H 0.25257 0.11326 0.77811 0.0
H3087 H 0.23597 0.16232 0.81338 0.0
H3088 H 0.27004 0.25454 0.7923 0.0
H3089 H 0.25308 0.22163 0.79378 0.0
H3090 H 0.27061 0.17286 0.76074 0.0
C3091 C 0.2403 0.11124 0.78399 0.0
C3092 C 0.24326 0.16425 0.80163 0.0
C3093 C 0.23079 0.09216 0.78502 0.0
C3094 C 0.27538 0.24271 0.78758 0.0
C3095 C 0.26578 0.22369 0.78879 0.0
C3096 C 0.26321 0.17087 0.77242 0.0
C3097 C 0.23416 0.1274 0.79044 0.0
C3098 C 0.24404 0.14801 0.78875 0.0
C3099 C 0.27243 0.20759 0.78366 0.0
C3100 C 0.26241 0.18707 0.78529 0.0
H3101 H 0.19646 0.10244 0.8052 0.0
H3102 H 0.21265 0.13514 0.80323 0.0
H3103 H 0.25508 0.1401 0.76353 0.0
H3104 H 0.31149 0.23253 0.7715 0.0
H3105 H 0.29498 0.19979 0.77342 0.0
C3106 C 0.40785 0.01907 0.30411 0.0
C3107 C 0.42195 0.02665 0.29459 0.0
C3108 C 0.40001 0.99925 0.30116 0.0
C3109 C 0.38793 0.95751 0.26617 0.0
H3110 H 0.38351 0.92809 0.30659 0.0
C3111 C 0.35016 0.87658 0.25373 0.0
C3112 C 0.34105 0.86974 0.26808 0.0
C3113 C 0.36125 0.89535 0.25666 0.0
C3114 C 0.38437 0.93613 0.29517 0.0
H3115 H 0.43907 0.01959 0.27468 0.0
H3116 H 0.42476 0.98469 0.26897 0.0
H3117 H 0.40128 0.96159 0.31269 0.0
H3118 H 0.33571 0.87725 0.29643 0.0
H3119 H 0.35421 0.91024 0.30125 0.0
H3120 H 0.37022 0.93266 0.24883 0.0
C3121 C 0.42009 0.9942 0.27893 0.0
C3122 C 0.39472 0.95522 0.29867 0.0
C3123 C 0.42826 0.01405 0.28224 0.0
C3124 C 0.34274 0.88213 0.28519 0.0
C3125 C 0.35351 0.90099 0.28799 0.0
C3126 C 0.37726 0.93854 0.26273 0.0
C3127 C 0.40587 0.98673 0.28833 0.0
C3128 C 0.39645 0.96606 0.28423 0.0
C3129 C 0.36317 0.90776 0.2739 0.0
C3130 C 0.37517 0.92766 0.27725 0.0
H3131 H 0.40281 0.02849 0.31377 0.0
H3132 H 0.38899 0.99374 0.30847 0.0
H3133 H 0.38895 0.96578 0.25491 0.0
H3134 H 0.34921 0.86723 0.24046 0.0
H3135 H 0.36862 0.89991 0.24555 0.0
C3136 C 0.59934 0.37642 0.59116 0.0
C3137 C 0.59287 0.37195 0.60778 0.0
C3138 C 0.59609 0.39196 0.58357 0.0
C3139 C 0.58593 0.43832 0.59576 0.0
H3140 H 0.56962 0.43139 0.54277 0.0
C3141 C 0.58201 0.50224 0.55796 0.0
C3142 C 0.56602 0.49996 0.54663 0.0
C3143 C 0.58564 0.48658 0.56508 0.0
C3144 C 0.57416 0.43354 0.55759 0.0
H3145 H 0.57804 0.38046 0.62955 0.0
H3146 H 0.57261 0.40788 0.61641 0.0
H3147 H 0.57495 0.40412 0.55619 0.0
H3148 H 0.54156 0.47923 0.53346 0.0
H3149 H 0.54808 0.45189 0.5456 0.0
H3150 H 0.58521 0.46776 0.59713 0.0
C3151 C 0.58015 0.39925 0.60925 0.0
C3152 C 0.57731 0.41797 0.56525 0.0
C3153 C 0.58319 0.3835 0.61672 0.0
C3154 C 0.55399 0.48153 0.54216 0.0
C3155 C 0.55774 0.46583 0.54906 0.0
C3156 C 0.58303 0.45397 0.58804 0.0
C3157 C 0.58651 0.40359 0.59254 0.0
C3158 C 0.58316 0.42016 0.58443 0.0
C3159 C 0.5735 0.46823 0.5608 0.0
C3160 C 0.57703 0.45173 0.56889 0.0
H3161 H 0.60683 0.3678 0.5839 0.0
H3162 H 0.60129 0.39505 0.57077 0.0
H3163 H 0.59056 0.44048 0.61056 0.0
H3164 H 0.59155 0.51623 0.56174 0.0
H3165 H 0.59797 0.48882 0.57395 0.0
C3166 C 0.47317 0.78723 0.3459 0.0
C3167 C 0.47293 0.77566 0.35978 0.0
C3168 C 0.45769 0.78655 0.33474 0.0
C3169 C 0.40988 0.77554 0.33425 0.0
H3170 H 0.41007 0.77785 0.28145 0.0
C3171 C 0.35983 0.77654 0.26454 0.0
C3172 C 0.35232 0.79109 0.27184 0.0
C3173 C 0.37333 0.77216 0.27531 0.0
C3174 C 0.40971 0.77699 0.29612 0.0
H3175 H 0.45619 0.75408 0.37265 0.0
H3176 H 0.42896 0.75294 0.35308 0.0
H3177 H 0.43601 0.77421 0.29965 0.0
H3178 H 0.3527 0.81214 0.29628 0.0
H3179 H 0.37615 0.8044 0.31519 0.0
H3180 H 0.3836 0.77861 0.33071 0.0
C3181 C 0.44122 0.76257 0.35093 0.0
C3182 C 0.42464 0.77508 0.30659 0.0
C3183 C 0.45682 0.76312 0.36204 0.0
C3184 C 0.35821 0.80082 0.2903 0.0
C3185 C 0.37159 0.79631 0.30116 0.0
C3186 C 0.39496 0.7776 0.32378 0.0
C3187 C 0.44149 0.77437 0.33721 0.0
C3188 C 0.42501 0.7746 0.32583 0.0
C3189 C 0.3795 0.78214 0.29369 0.0
C3190 C 0.39479 0.77857 0.30464 0.0
H3191 H 0.48534 0.79708 0.3438 0.0
H3192 H 0.45834 0.796 0.32448 0.0
H3193 H 0.40979 0.77534 0.34906 0.0
H3194 H 0.35546 0.76872 0.25038 0.0
H3195 H 0.37902 0.76101 0.26923 0.0
C3196 C 0.08985 0.76368 0.09511 0.0
C3197 C 0.07834 0.76957 0.10678 0.0
C3198 C 0.08668 0.74426 0.087 0.0
C3199 C 0.06068 0.69505 0.09238 0.0
H3200 H 0.07812 0.6796 0.04618 0.0
C3201 C 0.04497 0.61662 0.04997 0.0
C3202 C 0.06002 0.60975 0.04951 0.0
C3203 C 0.04656 0.63611 0.05658 0.0
C3204 C 0.0732 0.68379 0.0591 0.0
H3205 H 0.05398 0.76003 0.11827 0.0
H3206 H 0.04779 0.72645 0.10323 0.0
H3207 H 0.08106 0.71374 0.05726 0.0
H3208 H 0.08852 0.61789 0.05529 0.0
H3209 H 0.09128 0.65217 0.0663 0.0
H3210 H 0.05223 0.66483 0.09361 0.0
C3211 C 0.05975 0.73652 0.10097 0.0
C3212 C 0.07499 0.70336 0.06557 0.0
C3213 C 0.06316 0.75584 0.10946 0.0
C3214 C 0.07669 0.62276 0.05565 0.0
C3215 C 0.0783 0.64233 0.06182 0.0
C3216 C 0.05853 0.67548 0.08564 0.0
C3217 C 0.07169 0.7303 0.09001 0.0
C3218 C 0.06893 0.70934 0.08245 0.0
C3219 C 0.06324 0.64912 0.06238 0.0
C3220 C 0.06496 0.66975 0.06909 0.0
H3221 H 0.10176 0.77392 0.09296 0.0
H3222 H 0.0964 0.74017 0.07895 0.0
H3223 H 0.05619 0.69892 0.10562 0.0
H3224 H 0.03195 0.60692 0.04533 0.0
H3225 H 0.0348 0.6411 0.05692 0.0
C3226 C 0.0754 0.29382 0.88433 0.0
C3227 C 0.06124 0.27823 0.87535 0.0
C3228 C 0.09107 0.29862 0.87638 0.0
C3229 C 0.10897 0.293 0.8315 0.0
H3230 H 0.15342 0.29882 0.86181 0.0
C3231 C 0.17043 0.28499 0.79859 0.0
C3232 C 0.18719 0.29619 0.80726 0.0
C3233 C 0.15543 0.28557 0.80708 0.0
C3234 C 0.14119 0.29761 0.85319 0.0
H3235 H 0.05231 0.25573 0.85083 0.0
H3236 H 0.07944 0.26421 0.83695 0.0
H3237 H 0.12647 0.29506 0.87644 0.0
H3238 H 0.20122 0.31717 0.83158 0.0
H3239 H 0.17489 0.31856 0.84625 0.0
H3240 H 0.12352 0.29541 0.80825 0.0
C3241 C 0.07847 0.27274 0.8501 0.0
C3242 C 0.12573 0.29542 0.86159 0.0
C3243 C 0.06296 0.26781 0.85813 0.0
C3244 C 0.1885 0.30843 0.82445 0.0
C3245 C 0.17343 0.30906 0.83297 0.0
C3246 C 0.12439 0.29533 0.82314 0.0
C3247 C 0.09275 0.28812 0.85916 0.0
C3248 C 0.10941 0.29264 0.85075 0.0
C3249 C 0.1567 0.29749 0.82445 0.0
C3250 C 0.14065 0.2972 0.83378 0.0
H3251 H 0.07448 0.3021 0.89764 0.0
H3252 H 0.10183 0.3106 0.88363 0.0
H3253 H 0.09662 0.29123 0.82284 0.0
H3254 H 0.16887 0.27562 0.78521 0.0
H3255 H 0.14284 0.27625 0.80019 0.0
C3256 C 0.59349 0.77846 0.92439 0.0
C3257 C 0.60894 0.79311 0.9318 0.0
C3258 C 0.58931 0.76132 0.93165 0.0
C3259 C 0.60916 0.7322 0.96052 0.0
H3260 H 0.56105 0.71055 0.96901 0.0
C3261 C 0.59138 0.67775 1.01006 0.0
C3262 C 0.57683 0.66163 1.00389 0.0
C3263 C 0.59493 0.69285 0.99994 0.0
C3264 C 0.5745 0.71631 0.96651 0.0
H3265 H 0.63212 0.80126 0.95261 0.0
H3266 H 0.6247 0.77168 0.96545 0.0
H3267 H 0.56802 0.73861 0.95349 0.0
H3268 H 0.55445 0.64875 0.98244 0.0
H3269 H 0.56065 0.67529 0.9647 0.0
H3270 H 0.61569 0.7102 0.97398 0.0
C3271 C 0.61596 0.77318 0.9538 0.0
C3272 C 0.5785 0.73235 0.95758 0.0
C3273 C 0.62016 0.79023 0.94651 0.0
C3274 C 0.56582 0.66097 0.98744 0.0
C3275 C 0.56929 0.67618 0.97738 0.0
C3276 C 0.60518 0.71628 0.96954 0.0
C3277 C 0.60048 0.75852 0.9465 0.0
C3278 C 0.59593 0.74065 0.95473 0.0
C3279 C 0.58395 0.69221 0.98348 0.0
C3280 C 0.58787 0.70833 0.97285 0.0
H3281 H 0.5846 0.78024 0.91302 0.0
H3282 H 0.57739 0.75024 0.92558 0.0
H3283 H 0.62265 0.73796 0.95818 0.0
H3284 H 0.6002 0.67857 0.02259 0.0
H3285 H 0.60622 0.70512 1.00508 0.0
C3286 C 0.05861 0.76167 0.6944 0.0
C3287 C 0.04477 0.74678 0.69801 0.0
C3288 C 0.07526 0.76607 0.70467 0.0
C3289 C 0.10336 0.7426 0.72916 0.0
H3290 H 0.13475 0.7944 0.74188 0.0
C3291 C 0.17708 0.75507 0.75286 0.0
C3292 C 0.1883 0.76797 0.74376 0.0
C3293 C 0.15923 0.75428 0.75197 0.0
C3294 C 0.12614 0.77985 0.7384 0.0
H3295 H 0.03736 0.72541 0.71583 0.0
H3296 H 0.06663 0.73306 0.73374 0.0
H3297 H 0.10345 0.78985 0.73206 0.0
H3298 H 0.18978 0.7905 0.72705 0.0
H3299 H 0.15859 0.78894 0.72521 0.0
H3300 H 0.12606 0.7325 0.7346 0.0
C3301 C 0.06452 0.74123 0.72286 0.0
C3302 C 0.10824 0.77726 0.73283 0.0
C3303 C 0.04778 0.7369 0.71264 0.0
C3304 C 0.18147 0.78054 0.73433 0.0
C3305 C 0.1636 0.77969 0.73335 0.0
C3306 C 0.12126 0.74518 0.73465 0.0
C3307 C 0.0785 0.75563 0.71874 0.0
C3308 C 0.09676 0.75859 0.72765 0.0
C3309 C 0.15221 0.7663 0.74188 0.0
C3310 C 0.13293 0.76381 0.73882 0.0
H3311 H 0.05671 0.76965 0.68331 0.0
H3312 H 0.08581 0.77707 0.701 0.0
H3313 H 0.09489 0.72803 0.72503 0.0
H3314 H 0.18208 0.74546 0.76052 0.0
H3315 H 0.15085 0.74403 0.75894 0.0
C3316 C 0.11193 0.38204 0.44166 0.0
C3317 C 0.1132 0.377 0.42262 0.0
C3318 C 0.11223 0.40087 0.44919 0.0
C3319 C 0.11828 0.44323 0.4637 0.0
H3320 H 0.08258 0.46103 0.4371 0.0
C3321 C 0.09152 0.50259 0.50068 0.0
C3322 C 0.07307 0.49751 0.49912 0.0
C3323 C 0.10002 0.49262 0.48838 0.0
C3324 C 0.09269 0.45634 0.44462 0.0
H3325 H 0.11666 0.38783 0.39666 0.0
H3326 H 0.11692 0.42096 0.40988 0.0
H3327 H 0.09257 0.43436 0.42157 0.0
H3328 H 0.04897 0.47862 0.48323 0.0
H3329 H 0.06373 0.46095 0.46186 0.0
H3330 H 0.11755 0.46415 0.48717 0.0
C3331 C 0.11576 0.41027 0.41893 0.0
C3332 C 0.09857 0.44123 0.43566 0.0
C3333 C 0.11571 0.39139 0.41142 0.0
C3334 C 0.06322 0.48285 0.48463 0.0
C3335 C 0.0717 0.47285 0.47233 0.0
C3336 C 0.11243 0.4583 0.47263 0.0
C3337 C 0.11364 0.41507 0.43782 0.0
C3338 C 0.11083 0.43395 0.44543 0.0
C3339 C 0.0902 0.4773 0.47435 0.0
C3340 C 0.09901 0.46445 0.46347 0.0
H3341 H 0.11004 0.37126 0.45064 0.0
H3342 H 0.11034 0.404 0.46373 0.0
H3343 H 0.12792 0.43808 0.47147 0.0
H3344 H 0.09941 0.51411 0.51157 0.0
H3345 H 0.11427 0.49657 0.49014 0.0
C3346 C 0.44912 0.24787 0.18911 0.0
C3347 C 0.4508 0.22917 0.18964 0.0
C3348 C 0.43795 0.25525 0.20006 0.0
C3349 C 0.39932 0.24078 0.22409 0.0
H3350 H 0.41619 0.29272 0.25269 0.0
C3351 C 0.35655 0.27213 0.27292 0.0
C3352 C 0.35601 0.2911 0.27177 0.0
C3353 C 0.36925 0.26458 0.26485 0.0
C3354 C 0.41124 0.27824 0.24468 0.0
H3355 H 0.44187 0.20343 0.20177 0.0
H3356 H 0.42226 0.21629 0.22073 0.0
H3357 H 0.43564 0.27943 0.23378 0.0
H3358 H 0.36879 0.31725 0.26188 0.0
H3359 H 0.39063 0.30401 0.24758 0.0
H3360 H 0.37479 0.23968 0.23452 0.0
C3361 C 0.42959 0.22521 0.21187 0.0
C3362 C 0.42237 0.27066 0.23386 0.0
C3363 C 0.44086 0.21789 0.20106 0.0
C3364 C 0.36885 0.30259 0.26307 0.0
C3365 C 0.38146 0.29502 0.25493 0.0
C3366 C 0.38814 0.2484 0.23479 0.0
C3367 C 0.42815 0.24402 0.2116 0.0
C3368 C 0.41647 0.25191 0.22337 0.0
C3369 C 0.3816 0.27581 0.2554 0.0
C3370 C 0.39392 0.26728 0.24511 0.0
H3371 H 0.45663 0.25691 0.18047 0.0
H3372 H 0.43692 0.26972 0.19943 0.0
H3373 H 0.39439 0.22634 0.21599 0.0
H3374 H 0.34693 0.26294 0.27965 0.0
H3375 H 0.36922 0.24985 0.26576 0.0
C3376 C 0.62822 0.55045 0.3482 0.0
C3377 C 0.64044 0.53961 0.34468 0.0
C3378 C 0.62028 0.55091 0.36491 0.0
C3379 C 0.6245 0.54106 0.41484 0.0
H3380 H 0.57568 0.5419 0.41198 0.0
C3381 C 0.5866 0.55019 0.48212 0.0
C3382 C 0.56894 0.53892 0.48027 0.0
C3383 C 0.59631 0.55082 0.46648 0.0
C3384 C 0.58933 0.54164 0.41323 0.0
H3385 H 0.65381 0.52089 0.35693 0.0
H3386 H 0.64027 0.52186 0.38594 0.0
H3387 H 0.59005 0.54154 0.38379 0.0
H3388 H 0.54802 0.5196 0.45987 0.0
H3389 H 0.56435 0.52098 0.4333 0.0
H3390 H 0.62364 0.54118 0.44444 0.0
C3391 C 0.63673 0.53007 0.37569 0.0
C3392 C 0.59773 0.5416 0.39686 0.0
C3393 C 0.64449 0.52939 0.35882 0.0
C3394 C 0.56149 0.52852 0.4622 0.0
C3395 C 0.57095 0.52939 0.44669 0.0
C3396 C 0.61614 0.5414 0.43135 0.0
C3397 C 0.62434 0.54077 0.37915 0.0
C3398 C 0.6155 0.54116 0.39714 0.0
C3399 C 0.58857 0.54059 0.4483 0.0
C3400 C 0.59825 0.54147 0.43091 0.0
H3401 H 0.62466 0.55863 0.33792 0.0
H3402 H 0.61107 0.55955 0.36676 0.0
H3403 H 0.63819 0.54091 0.41602 0.0
H3404 H 0.59285 0.55869 0.49556 0.0
H3405 H 0.60977 0.55974 0.46858 0.0
C3406 C 0.23291 0.88758 0.04154 0.0
C3407 C 0.24327 0.9067 0.04728 0.0
C3408 C 0.22555 0.87684 0.05463 0.0
C3409 C 0.22218 0.87884 0.10593 0.0
H3410 H 0.23713 0.8319 0.0971 0.0
C3411 C 0.25821 0.85102 0.16209 0.0
C3412 C 0.25765 0.83135 0.16001 0.0
C3413 C 0.24806 0.8576 0.14923 0.0
C3414 C 0.23236 0.84461 0.09975 0.0
H3415 H 0.25254 0.93024 0.07082 0.0
H3416 H 0.24041 0.91136 0.09379 0.0
H3417 H 0.23371 0.84893 0.07165 0.0
H3418 H 0.24461 0.8029 0.14405 0.0
H3419 H 0.22688 0.81443 0.12149 0.0
H3420 H 0.22216 0.87502 0.13454 0.0
C3421 C 0.23759 0.90464 0.07919 0.0
C3422 C 0.23036 0.85446 0.08504 0.0
C3423 C 0.24467 0.91549 0.06602 0.0
C3424 C 0.24564 0.81821 0.14572 0.0
C3425 C 0.23543 0.8248 0.13287 0.0
C3426 C 0.22425 0.86897 0.12072 0.0
C3427 C 0.22876 0.88488 0.07378 0.0
C3428 C 0.22608 0.87219 0.08813 0.0
C3429 C 0.23712 0.84466 0.13402 0.0
C3430 C 0.2302 0.85225 0.11795 0.0
H3431 H 0.23134 0.88057 0.02708 0.0
H3432 H 0.21838 0.86183 0.04991 0.0
H3433 H 0.2185 0.89223 0.1087 0.0
H3434 H 0.26738 0.86155 0.17288 0.0
H3435 H 0.24986 0.87302 0.15045 0.0
C3436 C 0.00912 0.60372 0.86609 0.0
C3437 C 0.99102 0.6023 0.86414 0.0
C3438 C 0.01904 0.60887 0.88372 0.0
C3439 C 0.01055 0.60006 0.92976 0.0
H3440 H 0.06146 0.61867 0.94019 0.0
C3441 C 0.06919 0.59348 0.98706 0.0
C3442 C 0.06351 0.57338 0.98601 0.0
C3443 C 0.06115 0.60243 0.97443 0.0
C3444 C 0.04722 0.61372 0.93765 0.0
H3445 H 0.96955 0.60751 0.87873 0.0
H3446 H 0.98696 0.6166 0.90967 0.0
H3447 H 0.04584 0.62857 0.91449 0.0
H3448 H 0.04598 0.5467 0.97049 0.0
H3449 H 0.03199 0.56224 0.94837 0.0
H3450 H 0.01198 0.58457 0.95236 0.0
C3451 C 0.9934 0.6134 0.89757 0.0
C3452 C 0.03829 0.61931 0.92294 0.0
C3453 C 0.98345 0.60826 0.87986 0.0
C3454 C 0.05042 0.56225 0.97163 0.0
C3455 C 0.04233 0.57115 0.95914 0.0
C3456 C 0.01946 0.59448 0.94439 0.0
C3457 C 0.01103 0.61267 0.89977 0.0
C3458 C 0.01994 0.61177 0.91827 0.0
C3459 C 0.04732 0.59134 0.9607 0.0
C3460 C 0.03792 0.60049 0.94786 0.0
H3461 H 0.01538 0.5995 0.85416 0.0
H3462 H 0.03255 0.60809 0.88484 0.0
H3463 H 0.99645 0.59387 0.92655 0.0
H3464 H 0.07928 0.60235 0.99808 0.0
H3465 H 0.06529 0.618 0.97579 0.0
C3466 C 0.28916 0.23876 0.5693 0.0
C3467 C 0.29965 0.22631 0.56441 0.0
C3468 C 0.29016 0.24754 0.58794 0.0
C3469 C 0.31795 0.26208 0.63341 0.0
H3470 H 0.27401 0.25297 0.65458 0.0
C3471 C 0.31689 0.27792 0.71321 0.0
C3472 C 0.30269 0.28382 0.71996 0.0
C3473 C 0.31673 0.27199 0.69404 0.0
C3474 C 0.2864 0.25605 0.64891 0.0
H3475 H 0.32001 0.21408 0.57509 0.0
H3476 H 0.32209 0.22988 0.60751 0.0
H3477 H 0.27384 0.24195 0.62136 0.0
H3478 H 0.27732 0.28849 0.71182 0.0
H3479 H 0.27731 0.27894 0.6784 0.0
H3480 H 0.33056 0.27655 0.66071 0.0
C3481 C 0.31297 0.23264 0.59695 0.0
C3482 C 0.28626 0.24963 0.62984 0.0
C3483 C 0.31173 0.22356 0.5784 0.0
C3484 C 0.28839 0.28383 0.70709 0.0
C3485 C 0.28836 0.27823 0.68788 0.0
C3486 C 0.31807 0.26882 0.65242 0.0
C3487 C 0.30192 0.24437 0.60197 0.0
C3488 C 0.30205 0.25239 0.62194 0.0
C3489 C 0.30249 0.27212 0.68104 0.0
C3490 C 0.30231 0.26569 0.66054 0.0
H3491 H 0.27966 0.2411 0.55888 0.0
H3492 H 0.28158 0.25662 0.59143 0.0
H3493 H 0.3303 0.26454 0.62763 0.0
H3494 H 0.32805 0.27759 0.72276 0.0
H3495 H 0.32769 0.26701 0.68949 0.0
C3496 C 0.63345 0.53478 0.23365 0.0
C3497 C 0.64429 0.52227 0.23555 0.0
C3498 C 0.62518 0.53589 0.21592 0.0
C3499 C 0.61061 0.50949 0.16634 0.0
H3500 H 0.61231 0.56005 0.15458 0.0
C3501 C 0.58403 0.518 0.0905 0.0
C3502 C 0.57942 0.53494 0.08749 0.0
C3503 C 0.59161 0.51618 0.10831 0.0
C3504 C 0.61122 0.54565 0.15743 0.0
H3505 H 0.6543 0.50075 0.21962 0.0
H3506 H 0.63947 0.50215 0.18907 0.0
H3507 H 0.62492 0.5571 0.18526 0.0
H3508 H 0.57899 0.56307 0.10167 0.0
H3509 H 0.59108 0.5597 0.1324 0.0
H3510 H 0.59644 0.49785 0.13891 0.0
C3511 C 0.63747 0.51131 0.20133 0.0
C3512 C 0.61869 0.54401 0.17531 0.0
C3513 C 0.64605 0.5105 0.21899 0.0
C3514 C 0.58242 0.54982 0.10314 0.0
C3515 C 0.58965 0.54788 0.12101 0.0
C3516 C 0.6028 0.51109 0.14856 0.0
C3517 C 0.62708 0.52425 0.19934 0.0
C3518 C 0.61864 0.52591 0.18016 0.0
C3519 C 0.59465 0.53108 0.12412 0.0
C3520 C 0.60294 0.52924 0.14352 0.0
H3521 H 0.63178 0.54428 0.24584 0.0
H3522 H 0.61723 0.54594 0.21523 0.0
H3523 H 0.61004 0.49522 0.16937 0.0
H3524 H 0.58212 0.50618 0.07893 0.0
H3525 H 0.59533 0.50304 0.10941 0.0
C3526 C 0.27384 0.88765 0.94362 0.0
C3527 C 0.28127 0.88429 0.96062 0.0
C3528 C 0.27506 0.8765 0.92669 0.0
C3529 C 0.30294 0.8497 0.90495 0.0
H3530 H 0.26217 0.82413 0.86805 0.0
C3531 C 0.30593 0.8229 0.82719 0.0
C3532 C 0.29609 0.80393 0.81957 0.0
C3533 C 0.30452 0.83115 0.84528 0.0
C3534 C 0.27362 0.83109 0.87832 0.0
H3535 H 0.2958 0.8667 0.97326 0.0
H3536 H 0.29826 0.84764 0.9437 0.0
H3537 H 0.25838 0.84218 0.89787 0.0
H3538 H 0.27718 0.77861 0.82489 0.0
H3539 H 0.27432 0.79337 0.85657 0.0
H3540 H 0.31825 0.83917 0.8852 0.0
C3541 C 0.29138 0.85873 0.9435 0.0
C3542 C 0.27147 0.84151 0.89524 0.0
C3543 C 0.2899 0.8696 0.96039 0.0
C3544 C 0.28499 0.79322 0.83049 0.0
C3545 C 0.28328 0.80166 0.84851 0.0
C3546 C 0.30512 0.83961 0.88792 0.0
C3547 C 0.28401 0.8621 0.92652 0.0
C3548 C 0.28613 0.85092 0.90866 0.0
C3549 C 0.29295 0.82074 0.85596 0.0
C3550 C 0.29049 0.83026 0.87446 0.0
H3551 H 0.26709 0.89885 0.9434 0.0
H3552 H 0.26936 0.87941 0.91372 0.0
H3553 H 0.31444 0.85692 0.91507 0.0
H3554 H 0.31438 0.83157 0.81898 0.0
H3555 H 0.31197 0.84595 0.85068 0.0
C3556 C 0.97133 0.57733 0.75791 0.0
C3557 C 0.95397 0.57215 0.76212 0.0
C3558 C 0.97483 0.57297 0.73968 0.0
C3559 C 0.97634 0.54384 0.70598 0.0
H3560 H 0.96303 0.56374 0.66193 0.0
C3561 C 0.98877 0.53685 0.62372 0.0
C3562 C 1.00712 0.53978 0.62684 0.0
C3563 C 0.97929 0.53902 0.63882 0.0
C3564 C 0.9665 0.55776 0.67403 0.0
H3565 H 0.92654 0.55986 0.75026 0.0
H3566 H 0.93284 0.55247 0.71809 0.0
H3567 H 0.95143 0.57219 0.69126 0.0
H3568 H 0.02998 0.54805 0.64808 0.0
H3569 H 0.01353 0.55158 0.67422 0.0
H3570 H 0.99166 0.52975 0.68919 0.0
C3571 C 0.94361 0.5597 0.72909 0.0
C3572 C 0.95994 0.56264 0.69073 0.0
C3573 C 0.94006 0.56391 0.74745 0.0
C3574 C 0.0158 0.54514 0.64523 0.0
C3575 C 1.00638 0.5472 0.66022 0.0
C3576 C 0.98275 0.53887 0.68938 0.0
C3577 C 0.96107 0.56356 0.72529 0.0
C3578 C 0.96539 0.55625 0.70693 0.0
C3579 C 0.98804 0.54403 0.6572 0.0
C3580 C 0.97847 0.54639 0.67347 0.0
H3581 H 0.98233 0.58385 0.76882 0.0
H3582 H 0.9884 0.57626 0.73692 0.0
H3583 H 0.98043 0.53852 0.71831 0.0
H3584 H 0.98173 0.53266 0.60967 0.0
H3585 H 0.96514 0.53653 0.63617 0.0
C3586 C 0.29252 0.24536 0.45998 0.0
C3587 C 0.2963 0.22797 0.46255 0.0
C3588 C 0.29696 0.25361 0.4443 0.0
C3589 C 0.30332 0.24219 0.39571 0.0
H3590 H 0.32806 0.29653 0.4017 0.0
C3591 C 0.3038 0.28895 0.33746 0.0
C3592 C 0.32042 0.29975 0.33441 0.0
C3593 C 0.30211 0.27902 0.35254 0.0
C3594 C 0.32125 0.28132 0.39983 0.0
H3595 H 0.30761 0.20552 0.45058 0.0
H3596 H 0.31494 0.21975 0.42279 0.0
H3597 H 0.32293 0.2815 0.42938 0.0
H3598 H 0.34822 0.30904 0.34505 0.0
H3599 H 0.34514 0.29226 0.37193 0.0
H3600 H 0.3011 0.24224 0.36612 0.0
C3601 C 0.30872 0.22705 0.4331 0.0
C3602 C 0.31824 0.27275 0.41564 0.0
C3603 C 0.3046 0.21898 0.44903 0.0
C3604 C 0.33526 0.30076 0.34701 0.0
C3605 C 0.33352 0.29116 0.36234 0.0
C3606 C 0.30603 0.25086 0.37988 0.0
C3607 C 0.30497 0.24448 0.43062 0.0
C3608 C 0.30913 0.25315 0.41376 0.0
C3609 C 0.31694 0.28013 0.3652 0.0
C3610 C 0.31492 0.27055 0.38181 0.0
H3611 H 0.28615 0.25266 0.47014 0.0
H3612 H 0.2938 0.26698 0.44268 0.0
H3613 H 0.29621 0.22707 0.39387 0.0
H3614 H 0.2921 0.28816 0.32817 0.0
H3615 H 0.28915 0.27082 0.35456 0.0
C3616 C 0.33421 0.61072 0.55173 0.0
C3617 C 0.32885 0.6201 0.53766 0.0
C3618 C 0.34644 0.60011 0.54894 0.0
C3619 C 0.38165 0.59564 0.52016 0.0
H3620 H 0.38014 0.55038 0.54294 0.0
C3621 C 0.44198 0.56637 0.52921 0.0
C3622 C 0.43946 0.54628 0.52679 0.0
C3623 C 0.42764 0.57418 0.52954 0.0
C3624 C 0.38065 0.56284 0.53627 0.0
H3625 H 0.33159 0.62517 0.50936 0.0
H3626 H 0.35262 0.6062 0.50427 0.0
H3627 H 0.35589 0.56524 0.5443 0.0
H3628 H 0.4198 0.51866 0.52303 0.0
H3629 H 0.39469 0.53229 0.52294 0.0
H3630 H 0.40616 0.59298 0.51171 0.0
C3631 C 0.34771 0.60744 0.51765 0.0
C3632 C 0.36685 0.57152 0.53726 0.0
C3633 C 0.3356 0.61823 0.52053 0.0
C3634 C 0.42221 0.53419 0.52474 0.0
C3635 C 0.40782 0.54201 0.5249 0.0
C3636 C 0.39534 0.58686 0.51901 0.0
C3637 C 0.35346 0.59847 0.53193 0.0
C3638 C 0.36733 0.58822 0.5295 0.0
C3639 C 0.41037 0.56211 0.52722 0.0
C3640 C 0.39518 0.57057 0.52735 0.0
H3641 H 0.32929 0.61195 0.56512 0.0
H3642 H 0.35077 0.59369 0.56036 0.0
H3643 H 0.38256 0.60858 0.51418 0.0
H3644 H 0.45504 0.57612 0.53052 0.0
H3645 H 0.43013 0.58973 0.5317 0.0
C3646 C 0.88045 0.93587 0.5409 0.0
C3647 C 0.86987 0.94377 0.55251 0.0
C3648 C 0.89794 0.94595 0.54057 0.0
C3649 C 0.93552 0.98229 0.56844 0.0
H3650 H 0.95235 0.98814 0.52075 0.0
C3651 C 1.00495 0.03029 0.56307 0.0
C3652 C 0.0136 0.02479 0.54807 0.0
C3653 C 0.98758 0.02019 0.56414 0.0
C3654 C 0.94803 0.98637 0.53421 0.0
H3655 H 0.86947 0.96841 0.57301 0.0
H3656 H 0.90023 0.98588 0.57266 0.0
H3657 H 0.9218 0.97106 0.52154 0.0
H3658 H 0.01102 1.00414 0.5227 0.0
H3659 H 0.98121 0.98592 0.525 0.0
H3660 H 0.9618 0.99708 0.58117 0.0
C3661 C 0.89486 0.97191 0.56375 0.0
C3662 C 0.93045 0.97668 0.53463 0.0
C3663 C 0.87724 0.96196 0.56386 0.0
C3664 C 1.00475 1.00867 0.53447 0.0
C3665 C 0.98751 0.99839 0.53567 0.0
C3666 C 0.9532 0.99175 0.56803 0.0
C3667 C 0.90536 0.96402 0.55205 0.0
C3668 C 0.924 0.97455 0.55173 0.0
C3669 C 0.97854 1.0042 0.55034 0.0
C3670 C 0.95972 0.99394 0.5509 0.0
H3671 H 0.87519 0.9219 0.53196 0.0
H3672 H 0.90577 0.93946 0.53151 0.0
H3673 H 0.93093 0.98067 0.58182 0.0
H3674 H 0.01144 0.04272 0.57373 0.0
H3675 H 0.98112 0.02531 0.57552 0.0
C3676 C 0.88384 0.12007 0.24247 0.0
C3677 C 0.89594 0.11816 0.25709 0.0
C3678 C 0.87606 0.13575 0.24381 0.0
C3679 C 0.87917 0.18551 0.27319 0.0
H3680 H 0.83442 0.17933 0.2436 0.0
C3681 C 0.84747 0.25151 0.27212 0.0
C3682 C 0.82903 0.24811 0.26779 0.0
C3683 C 0.85568 0.23613 0.27101 0.0
C3684 C 0.84683 0.18156 0.25225 0.0
H3685 H 0.90896 0.13209 0.28485 0.0
H3686 H 0.89535 0.15885 0.2874 0.0
H3687 H 0.84769 0.15265 0.24183 0.0
H3688 H 0.8051 0.22492 0.25901 0.0
H3689 H 0.819 0.19861 0.25754 0.0
H3690 H 0.878 0.21427 0.28402 0.0
C3691 C 0.89198 0.14843 0.27455 0.0
C3692 C 0.85477 0.16601 0.25098 0.0
C3693 C 0.89983 0.13277 0.27315 0.0
C3694 C 0.81927 0.22853 0.26245 0.0
C3695 C 0.82744 0.21318 0.26143 0.0
C3696 C 0.87119 0.20107 0.27451 0.0
C3697 C 0.87983 0.15043 0.25991 0.0
C3698 C 0.8712 0.16745 0.26138 0.0
C3699 C 0.84592 0.21645 0.26555 0.0
C3700 C 0.85475 0.19959 0.2641 0.0
H3701 H 0.8804 0.1094 0.22976 0.0
H3702 H 0.86719 0.13638 0.23189 0.0
H3703 H 0.89183 0.18788 0.28141 0.0
H3704 H 0.85569 0.2662 0.2762 0.0
H3705 H 0.86987 0.23986 0.27416 0.0
C3706 C 0.71661 0.08703 0.02459 0.0
C3707 C 0.7224 0.10727 0.02729 0.0
C3708 C 0.69876 0.07751 0.01921 0.0
C3709 C 0.65692 0.08568 0.99909 0.0
H3710 H 0.63512 0.04174 0.02131 0.0
C3711 C 0.58402 0.06277 1.00928 0.0
C3712 C 0.57535 0.04298 1.00625 0.0
C3713 C 0.6018 0.06897 1.00724 0.0
C3714 C 0.6411 0.05377 0.01472 0.0
H3715 H 0.71404 0.13344 0.02709 0.0
H3716 H 0.683 0.11697 0.01849 0.0
H3717 H 0.66688 0.0558 0.02788 0.0
H3718 H 0.57822 0.0142 0.99759 0.0
H3719 H 0.60942 0.02508 0.99443 0.0
H3720 H 0.63089 0.08424 0.98684 0.0
C3721 C 0.6922 0.10834 0.01982 0.0
C3722 C 0.65929 0.06184 0.01847 0.0
C3723 C 0.71 0.11781 0.02496 0.0
C3724 C 0.58452 0.02955 1.00002 0.0
C3725 C 0.60239 0.03574 0.9983 0.0
C3726 C 0.63871 0.07777 0.99556 0.0
C3727 C 0.68637 0.08807 0.01663 0.0
C3728 C 0.66736 0.07818 0.01106 0.0
C3729 C 0.61127 0.05548 1.00237 0.0
C3730 C 0.63063 0.06201 1.00365 0.0
H3731 H 0.7259 0.07853 0.02615 0.0
H3732 H 0.69475 0.06187 0.01674 0.0
H3733 H 0.66276 0.09794 0.99274 0.0
H3734 H 0.57726 0.07345 0.01399 0.0
H3735 H 0.60839 0.08428 0.01056 0.0
C3736 C 0.21104 0.50354 0.24513 0.0
C3737 C 0.20667 0.50492 0.22637 0.0
C3738 C 0.22389 0.49446 0.25003 0.0
C3739 C 0.24605 0.45893 0.23141 0.0
H3740 H 0.28238 0.48396 0.27327 0.0
C3741 C 0.30197 0.42545 0.24981 0.0
C3742 C 0.30621 0.42515 0.26884 0.0
C3743 C 0.29151 0.43698 0.24429 0.0
C3744 C 0.27224 0.47672 0.26165 0.0
H3745 H 0.21208 0.49759 0.19797 0.0
H3746 H 0.23443 0.4815 0.20654 0.0
H3747 H 0.25997 0.49987 0.26439 0.0
H3748 H 0.30345 0.43701 0.29707 0.0
H3749 H 0.28482 0.4569 0.28748 0.0
H3750 H 0.25788 0.43555 0.22891 0.0
C3751 C 0.22791 0.48749 0.21743 0.0
C3752 C 0.25945 0.48583 0.25658 0.0
C3753 C 0.21516 0.49673 0.21254 0.0
C3754 C 0.30048 0.43718 0.28231 0.0
C3755 C 0.28984 0.44856 0.27679 0.0
C3756 C 0.25873 0.44975 0.23657 0.0
C3757 C 0.23249 0.48644 0.23623 0.0
C3758 C 0.24621 0.47697 0.24145 0.0
C3759 C 0.28489 0.44823 0.2577 0.0
C3760 C 0.27196 0.45852 0.25177 0.0
H3761 H 0.20473 0.50974 0.2561 0.0
H3762 H 0.22704 0.49361 0.2646 0.0
H3763 H 0.23585 0.4517 0.21984 0.0
H3764 H 0.30642 0.41641 0.23919 0.0
H3765 H 0.28829 0.43674 0.22949 0.0
C3766 C 0.26257 0.43857 0.04017 0.0
C3767 C 0.2769 0.44805 0.05404 0.0
C3768 C 0.24795 0.446 0.03787 0.0
C3769 C 0.23397 0.49098 0.04891 0.0
H3770 H 0.18689 0.45642 0.04262 0.0
C3771 C 0.17349 0.51937 0.06033 0.0
C3772 C 0.15762 0.5106 0.0484 0.0
C3773 C 0.18782 0.51148 0.05959 0.0
C3774 C 0.19993 0.46626 0.0441 0.0
H3775 H 0.28713 0.4729 0.07621 0.0
H3776 H 0.26179 0.48575 0.07225 0.0
H3777 H 0.21234 0.44322 0.04357 0.0
H3778 H 0.14446 0.48648 0.02631 0.0
H3779 H 0.16962 0.47284 0.02481 0.0
H3780 H 0.22165 0.51401 0.04958 0.0
C3781 C 0.26184 0.47269 0.06301 0.0
C3782 C 0.21454 0.45868 0.04465 0.0
C3783 C 0.27637 0.46524 0.06535 0.0
C3784 C 0.15651 0.49371 0.03563 0.0
C3785 C 0.17088 0.48577 0.0349 0.0
C3786 C 0.2194 0.49853 0.04834 0.0
C3787 C 0.2474 0.46314 0.04931 0.0
C3788 C 0.23176 0.47098 0.04734 0.0
C3789 C 0.18676 0.4946 0.04684 0.0
C3790 C 0.20218 0.48632 0.04622 0.0
H3791 H 0.26254 0.4253 0.03123 0.0
H3792 H 0.23712 0.43837 0.02708 0.0
H3793 H 0.24701 0.50085 0.05062 0.0
H3794 H 0.17496 0.53254 0.07016 0.0
H3795 H 0.19972 0.51855 0.06919 0.0
C3796 C 0.9067 0.99897 0.27322 0.0
C3797 C 0.89905 1.01276 0.26658 0.0
C3798 C 0.89667 0.9801 0.27375 0.0
C3799 C 0.85056 0.94921 0.27312 0.0
H3800 H 0.87184 0.90703 0.26245 0.0
C3801 C 0.80951 0.869 0.26833 0.0
C3802 C 0.81765 0.85488 0.27304 0.0
C3803 C 0.81935 0.88789 0.26749 0.0
C3804 C 0.86564 0.91852 0.26579 0.0
H3805 H 0.87421 0.01671 0.25541 0.0
H3806 H 0.85661 0.98378 0.25647 0.0
H3807 H 0.88827 0.93982 0.26077 0.0
H3808 H 0.843 0.85006 0.28061 0.0
H3809 H 0.86026 0.88307 0.27959 0.0
H3810 H 0.82804 0.92806 0.27843 0.0
C3811 C 0.87059 0.98775 0.26134 0.0
C3812 C 0.87515 0.93757 0.26475 0.0
C3813 C 0.88073 1.00676 0.26065 0.0
C3814 C 0.83617 0.86041 0.27692 0.0
C3815 C 0.8461 0.87947 0.27619 0.0
C3816 C 0.84108 0.93019 0.27428 0.0
C3817 C 0.87841 0.97396 0.26778 0.0
C3818 C 0.86785 0.95337 0.26841 0.0
C3819 C 0.83789 0.8937 0.27148 0.0
C3820 C 0.84835 0.91433 0.2706 0.0
H3821 H 0.92068 1.00268 0.27801 0.0
H3822 H 0.90335 0.97035 0.27915 0.0
H3823 H 0.8444 0.96077 0.27636 0.0
H3824 H 0.79531 0.86543 0.26509 0.0
H3825 H 0.81225 0.89784 0.26338 0.0
C3826 C 0.69998 0.10227 0.75255 0.0
C3827 C 0.68403 0.10138 0.7599 0.0
C3828 C 0.71228 0.11995 0.75327 0.0
C3829 C 0.73088 0.15927 0.74594 0.0
H3830 H 0.7405 0.19945 0.78973 0.0
C3831 C 0.77257 0.23697 0.74646 0.0
C3832 C 0.78381 0.24673 0.7629 0.0
C3833 C 0.76084 0.21894 0.74608 0.0
C3834 C 0.7381 0.1883 0.77746 0.0
H3835 H 0.66857 0.11841 0.77392 0.0
H3836 H 0.69002 0.14945 0.7749 0.0
H3837 H 0.71914 0.16865 0.78949 0.0
H3838 H 0.79198 0.24493 0.79167 0.0
H3839 H 0.77178 0.21332 0.79086 0.0
H3840 H 0.75013 0.17871 0.73407 0.0
C3841 C 0.69307 0.13637 0.76881 0.0
C3842 C 0.72567 0.17075 0.77723 0.0
C3843 C 0.68075 0.11861 0.76818 0.0
C3844 C 0.78344 0.23783 0.77879 0.0
C3845 C 0.77176 0.21978 0.77838 0.0
C3846 C 0.74334 0.17678 0.74619 0.0
C3847 C 0.70893 0.13723 0.76124 0.0
C3848 C 0.72194 0.15602 0.76147 0.0
C3849 C 0.76014 0.21024 0.7621 0.0
C3850 C 0.74709 0.19151 0.76194 0.0
H3851 H 0.70302 0.08927 0.74622 0.0
H3852 H 0.7245 0.12005 0.74765 0.0
H3853 H 0.72816 0.14832 0.73347 0.0
H3854 H 0.77245 0.24347 0.73401 0.0
H3855 H 0.75194 0.21209 0.73337 0.0
loop_
_geom_bond_atom_site_label_1
_geom_bond_atom_site_label_2
_geom_bond_distance
_geom_bond_site_symmetry_2
_ccdc_geom_bond_type
O0 Cd1 2.223 . S
O0 C8 1.315 . S
Cd1 O0 2.223 . S
Cd1 O4 2.297 . S
Cd1 O5 2.439 . S
Cd1 O11 2.240 . S
Cd2 O3 2.240 . S
Cd2 O10 2.223 . S
Cd2 O12 2.297 . S
Cd2 O13 2.439 . S
O3 Cd2 2.240 . S
O3 C8 1.279 . S
O4 Cd1 2.297 . S
O4 C6 1.247 . S
O5 Cd1 2.439 . S
O5 C6 1.208 . S
C6 O4 1.247 . S
C6 O5 1.208 . S
C7 O12 1.247 . S
C7 O13 1.208 . S
C8 O0 1.315 . S
C8 O3 1.279 . S
C9 O10 1.315 . S
C9 O11 1.279 . S
O10 Cd2 2.223 . S
O10 C9 1.315 . S
O11 Cd1 2.240 . S
O11 C9 1.279 . S
O12 Cd2 2.297 . S
O12 C7 1.247 . S
O13 Cd2 2.439 . S
O13 C7 1.208 . S
O14 Cd15 2.251 . S
O14 C22 1.323 . S
Cd15 O14 2.251 . S
Cd15 O18 2.297 . S
Cd15 O19 2.439 . S
Cd15 O25 2.240 1_655 S
Cd16 O17 2.240 1_455 S
Cd16 O24 2.223 . S
Cd16 O26 2.297 . S
Cd16 O27 2.447 . S
O17 Cd16 2.240 1_655 S
O17 C22 1.279 . S
O18 Cd15 2.297 . S
O18 C20 1.247 . S
O19 Cd15 2.439 . S
O19 C20 1.208 . S
C20 O18 1.247 . S
C20 O19 1.208 . S
C21 O26 1.247 . S
C21 O27 1.217 . S
C22 O14 1.323 . S
C22 O17 1.279 . S
C23 O24 1.315 . S
C23 O25 1.279 . S
O24 Cd16 2.223 . S
O24 C23 1.315 . S
O25 Cd15 2.240 1_455 S
O25 C23 1.279 . S
O26 Cd16 2.297 . S
O26 C21 1.247 . S
O27 Cd16 2.447 . S
O27 C21 1.217 . S
O28 Cd29 2.223 . S
O28 C36 1.315 . S
Cd29 O28 2.223 . S
Cd29 O32 2.297 . S
Cd29 O33 2.439 . S
Cd29 O39 2.240 . S
Cd30 O31 2.240 . S
Cd30 O38 2.223 . S
Cd30 O40 2.297 . S
Cd30 O41 2.439 . S
O31 Cd30 2.240 . S
O31 C36 1.279 . S
O32 Cd29 2.297 . S
O32 C34 1.247 . S
O33 Cd29 2.439 . S
O33 C34 1.208 . S
C34 O32 1.247 . S
C34 O33 1.208 . S
C35 O40 1.247 . S
C35 O41 1.208 . S
C36 O28 1.315 . S
C36 O31 1.279 . S
C37 O38 1.315 . S
C37 O39 1.279 . S
O38 Cd30 2.223 . S
O38 C37 1.315 . S
O39 Cd29 2.240 . S
O39 C37 1.279 . S
O40 Cd30 2.297 . S
O40 C35 1.247 . S
O41 Cd30 2.439 . S
O41 C35 1.208 . S
O42 Cd43 2.223 . S
O42 C50 1.315 . S
Cd43 O42 2.223 . S
Cd43 O46 2.297 . S
Cd43 O47 2.439 . S
Cd43 O53 2.240 . S
Cd44 O45 2.240 . S
Cd44 O52 2.223 . S
Cd44 O54 2.297 . S
Cd44 O55 2.439 . S
O45 Cd44 2.240 . S
O45 C50 1.279 . S
O46 Cd43 2.297 . S
O46 C48 1.247 . S
O47 Cd43 2.439 . S
O47 C48 1.208 . S
C48 O46 1.247 . S
C48 O47 1.208 . S
C49 O54 1.247 . S
C49 O55 1.208 . S
C50 O42 1.315 . S
C50 O45 1.279 . S
C51 O52 1.315 . S
C51 O53 1.279 . S
O52 Cd44 2.223 . S
O52 C51 1.315 . S
O53 Cd43 2.240 . S
O53 C51 1.279 . S
O54 Cd44 2.297 . S
O54 C49 1.247 . S
O55 Cd44 2.439 . S
O55 C49 1.208 . S
O56 Cd57 2.223 . S
O56 C64 1.315 . S
Cd57 O56 2.223 . S
Cd57 O60 2.297 . S
Cd57 O61 2.439 . S
Cd57 O67 2.240 . S
Cd58 O59 2.240 . S
Cd58 O66 2.223 . S
Cd58 O68 2.297 . S
Cd58 O69 2.439 . S
O59 Cd58 2.240 . S
O59 C64 1.279 . S
O60 Cd57 2.297 . S
O60 C62 1.247 . S
O61 Cd57 2.439 . S
O61 C62 1.208 . S
C62 O60 1.247 . S
C62 O61 1.208 . S
C63 O68 1.247 . S
C63 O69 1.208 . S
C64 O56 1.315 . S
C64 O59 1.279 . S
C65 O66 1.315 . S
C65 O67 1.279 . S
O66 Cd58 2.223 . S
O66 C65 1.315 . S
O67 Cd57 2.240 . S
O67 C65 1.279 . S
O68 Cd58 2.297 . S
O68 C63 1.247 . S
O69 Cd58 2.439 . S
O69 C63 1.208 . S
O70 Cd71 2.223 . S
O70 C78 1.315 . S
Cd71 O70 2.223 . S
Cd71 O74 2.297 . S
Cd71 O75 2.439 . S
Cd71 O81 2.240 . S
Cd72 O73 2.240 . S
Cd72 O80 2.223 . S
Cd72 O82 2.297 . S
Cd72 O83 2.439 . S
O73 Cd72 2.240 . S
O73 C78 1.279 . S
O74 Cd71 2.297 . S
O74 C76 1.247 . S
O75 Cd71 2.439 . S
O75 C76 1.208 . S
C76 O74 1.247 . S
C76 O75 1.208 . S
C77 O82 1.247 . S
C77 O83 1.208 . S
C78 O70 1.315 . S
C78 O73 1.279 . S
C79 O80 1.315 . S
C79 O81 1.279 . S
O80 Cd72 2.223 . S
O80 C79 1.315 . S
O81 Cd71 2.240 . S
O81 C79 1.279 . S
O82 Cd72 2.297 . S
O82 C77 1.247 . S
O83 Cd72 2.439 . S
O83 C77 1.208 . S
O84 Cd85 2.223 . S
O84 C92 1.315 . S
Cd85 O84 2.223 . S
Cd85 O88 2.297 . S
Cd85 O89 2.439 . S
Cd85 O95 2.240 . S
Cd86 O87 2.240 . S
Cd86 O94 2.223 . S
Cd86 O96 2.297 . S
Cd86 O97 2.439 . S
O87 Cd86 2.240 . S
O87 C92 1.279 . S
O88 Cd85 2.297 . S
O88 C90 1.247 . S
O89 Cd85 2.439 . S
O89 C90 1.208 . S
C90 O88 1.247 . S
C90 O89 1.208 . S
C91 O96 1.247 . S
C91 O97 1.208 . S
C92 O84 1.315 . S
C92 O87 1.279 . S
C93 O94 1.315 . S
C93 O95 1.279 . S
O94 Cd86 2.223 . S
O94 C93 1.315 . S
O95 Cd85 2.240 . S
O95 C93 1.279 . S
O96 Cd86 2.297 . S
O96 C91 1.247 . S
O97 Cd86 2.439 . S
O97 C91 1.208 . S
O98 Cd99 2.223 . S
O98 C106 1.315 . S
Cd99 O98 2.223 . S
Cd99 O102 2.297 . S
Cd99 O103 2.439 . S
Cd99 O109 2.240 . S
Cd100 O101 2.240 . S
Cd100 O108 2.223 1_455 S
Cd100 O110 2.297 . S
Cd100 O111 2.439 . S
O101 Cd100 2.240 . S
O101 C106 1.279 . S
O102 Cd99 2.297 . S
O102 C104 1.247 . S
O103 Cd99 2.439 . S
O103 C104 1.208 . S
C104 O102 1.247 . S
C104 O103 1.208 . S
C105 O110 1.247 . S
C105 O111 1.208 . S
C106 O98 1.315 . S
C106 O101 1.279 . S
C107 O108 1.315 . S
C107 O109 1.279 1_655 S
O108 Cd100 2.223 1_655 S
O108 C107 1.315 . S
O109 Cd99 2.240 . S
O109 C107 1.279 1_455 S
O110 Cd100 2.297 . S
O110 C105 1.247 . S
O111 Cd100 2.439 . S
O111 C105 1.208 . S
O112 Cd113 2.223 . S
O112 C120 1.315 . S
Cd113 O112 2.223 . S
Cd113 O116 2.297 . S
Cd113 O117 2.439 . S
Cd113 O123 2.240 1_545 S
Cd114 O115 2.240 . S
Cd114 O122 2.223 1_545 S
Cd114 O124 2.297 . S
Cd114 O125 2.439 . S
O115 Cd114 2.240 . S
O115 C120 1.279 . S
O116 Cd113 2.297 . S
O116 C118 1.247 . S
O117 Cd113 2.439 . S
O117 C118 1.208 . S
C118 O116 1.247 . S
C118 O117 1.208 . S
C119 O124 1.247 . S
C119 O125 1.208 . S
C120 O112 1.315 . S
C120 O115 1.279 . S
C121 O122 1.315 . S
C121 O123 1.279 . S
O122 Cd114 2.223 1_565 S
O122 C121 1.315 . S
O123 Cd113 2.240 1_565 S
O123 C121 1.279 . S
O124 Cd114 2.297 . S
O124 C119 1.247 . S
O125 Cd114 2.439 . S
O125 C119 1.208 . S
O126 Cd127 2.223 . S
O126 C134 1.315 . S
Cd127 O126 2.223 . S
Cd127 O130 2.297 . S
Cd127 O131 2.439 . S
Cd127 O137 2.240 . S
Cd128 O129 2.240 . S
Cd128 O136 2.223 . S
Cd128 O138 2.297 . S
Cd128 O139 2.439 . S
O129 Cd128 2.240 . S
O129 C134 1.279 . S
O130 Cd127 2.297 . S
O130 C132 1.247 . S
O131 Cd127 2.439 . S
O131 C132 1.208 . S
C132 O130 1.247 . S
C132 O131 1.208 . S
C133 O138 1.247 . S
C133 O139 1.208 . S
C134 O126 1.315 . S
C134 O129 1.279 . S
C135 O136 1.315 . S
C135 O137 1.279 . S
O136 Cd128 2.223 . S
O136 C135 1.315 . S
O137 Cd127 2.240 . S
O137 C135 1.279 . S
O138 Cd128 2.297 . S
O138 C133 1.247 . S
O139 Cd128 2.439 . S
O139 C133 1.208 . S
O140 Cd141 2.223 1_545 S
O140 C148 1.315 1_545 S
Cd141 O140 2.223 1_565 S
Cd141 O144 2.297 . S
Cd141 O145 2.439 . S
Cd141 O151 2.240 1_565 S
Cd142 O143 2.240 1_545 S
Cd142 O150 2.223 . S
Cd142 O152 2.297 . S
Cd142 O153 2.439 1_545 S
O143 Cd142 2.240 1_565 S
O143 C148 1.279 . S
O144 Cd141 2.297 . S
O144 C146 1.247 . S
O145 Cd141 2.439 . S
O145 C146 1.208 . S
C146 O144 1.247 . S
C146 O145 1.208 . S
C147 O152 1.247 . S
C147 O153 1.208 1_545 S
C148 O140 1.315 1_565 S
C148 O143 1.279 . S
C149 O150 1.315 . S
C149 O151 1.279 . S
O150 Cd142 2.223 . S
O150 C149 1.315 . S
O151 Cd141 2.240 1_545 S
O151 C149 1.279 . S
O152 Cd142 2.297 . S
O152 C147 1.247 . S
O153 Cd142 2.439 1_565 S
O153 C147 1.208 1_565 S
O154 Cd155 2.223 . S
O154 C162 1.315 . S
Cd155 O154 2.223 . S
Cd155 O158 2.297 . S
Cd155 O159 2.423 1_554 S
Cd155 O165 2.240 . S
Cd156 O157 2.240 1_556 S
Cd156 O164 2.223 1_556 S
Cd156 O166 2.297 . S
Cd156 O167 2.439 . S
O157 Cd156 2.240 1_554 S
O157 C162 1.279 . S
O158 Cd155 2.297 . S
O158 C160 1.247 . S
O159 Cd155 2.423 1_556 S
O159 C160 1.179 1_556 S
C160 O158 1.247 . S
C160 O159 1.179 1_554 S
C161 O166 1.247 . S
C161 O167 1.208 . S
C162 O154 1.315 . S
C162 O157 1.279 . S
C163 O164 1.315 . S
C163 O165 1.279 . S
O164 Cd156 2.223 1_554 S
O164 C163 1.315 . S
O165 Cd155 2.240 . S
O165 C163 1.279 . S
O166 Cd156 2.297 . S
O166 C161 1.247 . S
O167 Cd156 2.439 . S
O167 C161 1.208 . S
O168 Cd169 2.223 . S
O168 C176 1.315 . S
Cd169 O168 2.223 . S
Cd169 O172 2.297 . S
Cd169 O173 2.439 . S
Cd169 O179 2.240 . S
Cd170 O171 2.240 . S
Cd170 O178 2.223 . S
Cd170 O180 2.297 1_554 S
Cd170 O181 2.439 1_554 S
O171 Cd170 2.240 . S
O171 C176 1.279 . S
O172 Cd169 2.297 . S
O172 C174 1.247 . S
O173 Cd169 2.439 . S
O173 C174 1.208 . S
C174 O172 1.247 . S
C174 O173 1.208 . S
C175 O180 1.247 . S
C175 O181 1.208 . S
C176 O168 1.315 . S
C176 O171 1.279 . S
C177 O178 1.315 . S
C177 O179 1.279 . S
O178 Cd170 2.223 . S
O178 C177 1.315 . S
O179 Cd169 2.240 . S
O179 C177 1.279 . S
O180 Cd170 2.297 1_556 S
O180 C175 1.247 . S
O181 Cd170 2.439 1_556 S
O181 C175 1.208 . S
O182 Cd183 2.223 . S
O182 C190 1.315 . S
Cd183 O182 2.223 . S
Cd183 O186 2.297 . S
Cd183 O187 2.439 . S
Cd183 O193 2.240 . S
Cd184 O185 2.240 . S
Cd184 O192 2.223 . S
Cd184 O194 2.297 1_554 S
Cd184 O195 2.439 1_554 S
O185 Cd184 2.240 . S
O185 C190 1.279 . S
O186 Cd183 2.297 . S
O186 C188 1.247 . S
O187 Cd183 2.439 . S
O187 C188 1.208 . S
C188 O186 1.247 . S
C188 O187 1.208 . S
C189 O194 1.247 . S
C189 O195 1.208 . S
C190 O182 1.315 . S
C190 O185 1.279 . S
C191 O192 1.315 . S
C191 O193 1.279 . S
O192 Cd184 2.223 . S
O192 C191 1.315 . S
O193 Cd183 2.240 . S
O193 C191 1.279 . S
O194 Cd184 2.297 1_556 S
O194 C189 1.247 . S
O195 Cd184 2.439 1_556 S
O195 C189 1.208 . S
O196 Cd197 2.223 . S
O196 C204 1.315 . S
Cd197 O196 2.223 . S
Cd197 O200 2.297 . S
Cd197 O201 2.439 . S
Cd197 O207 2.240 . S
Cd198 O199 2.240 . S
Cd198 O206 2.223 . S
Cd198 O208 2.297 . S
Cd198 O209 2.439 . S
O199 Cd198 2.240 . S
O199 C204 1.279 . S
O200 Cd197 2.297 . S
O200 C202 1.247 . S
O201 Cd197 2.439 . S
O201 C202 1.208 . S
C202 O200 1.247 . S
C202 O201 1.208 . S
C203 O208 1.247 . S
C203 O209 1.208 . S
C204 O196 1.315 . S
C204 O199 1.279 . S
C205 O206 1.315 . S
C205 O207 1.279 . S
O206 Cd198 2.223 . S
O206 C205 1.315 . S
O207 Cd197 2.240 . S
O207 C205 1.279 . S
O208 Cd198 2.297 . S
O208 C203 1.247 . S
O209 Cd198 2.439 . S
O209 C203 1.208 . S
O210 Cd211 2.223 . S
O210 C218 1.315 . S
Cd211 O210 2.223 . S
Cd211 O214 2.297 . S
Cd211 O215 2.439 . S
Cd211 O221 2.240 . S
Cd212 O213 2.240 . S
Cd212 O220 2.223 . S
Cd212 O222 2.297 . S
Cd212 O223 2.439 . S
O213 Cd212 2.240 . S
O213 C218 1.279 . S
O214 Cd211 2.297 . S
O214 C216 1.247 . S
O215 Cd211 2.439 . S
O215 C216 1.208 . S
C216 O214 1.247 . S
C216 O215 1.208 . S
C217 O222 1.247 . S
C217 O223 1.208 . S
C218 O210 1.315 . S
C218 O213 1.279 . S
C219 O220 1.315 . S
C219 O221 1.279 . S
O220 Cd212 2.223 . S
O220 C219 1.315 . S
O221 Cd211 2.240 . S
O221 C219 1.279 . S
O222 Cd212 2.297 . S
O222 C217 1.247 . S
O223 Cd212 2.439 . S
O223 C217 1.208 . S
O224 Cd225 2.223 . S
O224 C232 1.315 . S
Cd225 O224 2.223 . S
Cd225 O228 2.297 . S
Cd225 O229 2.439 . S
Cd225 O235 2.240 . S
Cd226 O227 2.240 . S
Cd226 O234 2.223 . S
Cd226 O236 2.297 . S
Cd226 O237 2.439 . S
O227 Cd226 2.240 . S
O227 C232 1.279 . S
O228 Cd225 2.297 . S
O228 C230 1.247 . S
O229 Cd225 2.439 . S
O229 C230 1.208 . S
C230 O228 1.247 . S
C230 O229 1.208 . S
C231 O236 1.247 . S
C231 O237 1.208 . S
C232 O224 1.315 . S
C232 O227 1.279 . S
C233 O234 1.315 . S
C233 O235 1.279 . S
O234 Cd226 2.223 . S
O234 C233 1.315 . S
O235 Cd225 2.240 . S
O235 C233 1.279 . S
O236 Cd226 2.297 . S
O236 C231 1.247 . S
O237 Cd226 2.439 . S
O237 C231 1.208 . S
O238 Cd239 2.223 . S
O238 C246 1.315 . S
Cd239 O238 2.223 . S
Cd239 O242 2.297 . S
Cd239 O243 2.439 . S
Cd239 O249 2.240 . S
Cd240 O241 2.240 . S
Cd240 O248 2.223 . S
Cd240 O250 2.297 . S
Cd240 O251 2.439 . S
O241 Cd240 2.240 . S
O241 C246 1.279 . S
O242 Cd239 2.297 . S
O242 C244 1.247 . S
O243 Cd239 2.439 . S
O243 C244 1.208 . S
C244 O242 1.247 . S
C244 O243 1.208 . S
C245 O250 1.247 . S
C245 O251 1.208 . S
C246 O238 1.315 . S
C246 O241 1.279 . S
C247 O248 1.315 . S
C247 O249 1.279 . S
O248 Cd240 2.223 . S
O248 C247 1.315 . S
O249 Cd239 2.240 . S
O249 C247 1.279 . S
O250 Cd240 2.297 . S
O250 C245 1.247 . S
O251 Cd240 2.439 . S
O251 C245 1.208 . S
O252 Cd253 2.223 . S
O252 C260 1.315 . S
Cd253 O252 2.223 . S
Cd253 O256 2.297 . S
Cd253 O257 2.439 . S
Cd253 O263 2.240 . S
Cd254 O255 2.240 . S
Cd254 O262 2.223 . S
Cd254 O264 2.297 . S
Cd254 O265 2.439 . S
O255 Cd254 2.240 . S
O255 C260 1.279 . S
O256 Cd253 2.297 . S
O256 C258 1.247 . S
O257 Cd253 2.439 . S
O257 C258 1.208 . S
C258 O256 1.247 . S
C258 O257 1.208 . S
C259 O264 1.247 . S
C259 O265 1.208 . S
C260 O252 1.315 . S
C260 O255 1.279 . S
C261 O262 1.315 . S
C261 O263 1.279 . S
O262 Cd254 2.223 . S
O262 C261 1.315 . S
O263 Cd253 2.240 . S
O263 C261 1.279 . S
O264 Cd254 2.297 . S
O264 C259 1.247 . S
O265 Cd254 2.439 . S
O265 C259 1.208 . S
O266 Cd267 2.223 . S
O266 C274 1.315 . S
Cd267 O266 2.223 . S
Cd267 O270 2.297 . S
Cd267 O271 2.439 . S
Cd267 O277 2.240 . S
Cd268 O269 2.240 . S
Cd268 O276 2.223 . S
Cd268 O278 2.297 . S
Cd268 O279 2.439 . S
O269 Cd268 2.240 . S
O269 C274 1.279 . S
O270 Cd267 2.297 . S
O270 C272 1.247 . S
O271 Cd267 2.439 . S
O271 C272 1.208 . S
C272 O270 1.247 . S
C272 O271 1.208 . S
C273 O278 1.247 . S
C273 O279 1.208 . S
C274 O266 1.315 . S
C274 O269 1.279 . S
C275 O276 1.315 . S
C275 O277 1.279 . S
O276 Cd268 2.223 . S
O276 C275 1.315 . S
O277 Cd267 2.240 . S
O277 C275 1.279 . S
O278 Cd268 2.297 . S
O278 C273 1.247 . S
O279 Cd268 2.439 . S
O279 C273 1.208 . S
O280 Cd281 2.223 . S
O280 C288 1.315 . S
Cd281 O280 2.223 . S
Cd281 O284 2.297 . S
Cd281 O285 2.439 . S
Cd281 O291 2.240 . S
Cd282 O283 2.240 . S
Cd282 O290 2.223 . S
Cd282 O292 2.297 1_554 S
Cd282 O293 2.439 1_554 S
O283 Cd282 2.240 . S
O283 C288 1.279 . S
O284 Cd281 2.297 . S
O284 C286 1.247 . S
O285 Cd281 2.439 . S
O285 C286 1.208 . S
C286 O284 1.247 . S
C286 O285 1.208 . S
C287 O292 1.247 . S
C287 O293 1.208 . S
C288 O280 1.315 . S
C288 O283 1.279 . S
C289 O290 1.315 . S
C289 O291 1.279 . S
O290 Cd282 2.223 . S
O290 C289 1.315 . S
O291 Cd281 2.240 . S
O291 C289 1.279 . S
O292 Cd282 2.297 1_556 S
O292 C287 1.247 . S
O293 Cd282 2.439 1_556 S
O293 C287 1.208 . S
O294 Cd295 2.223 . S
O294 C302 1.315 . S
Cd295 O294 2.223 . S
Cd295 O298 2.297 . S
Cd295 O299 2.439 . S
Cd295 O305 2.240 . S
Cd296 O297 2.240 . S
Cd296 O304 2.223 . S
Cd296 O306 2.297 . S
Cd296 O307 2.439 . S
O297 Cd296 2.240 . S
O297 C302 1.279 . S
O298 Cd295 2.297 . S
O298 C300 1.247 . S
O299 Cd295 2.439 . S
O299 C300 1.208 . S
C300 O298 1.247 . S
C300 O299 1.208 . S
C301 O306 1.247 . S
C301 O307 1.208 . S
C302 O294 1.315 . S
C302 O297 1.279 . S
C303 O304 1.315 . S
C303 O305 1.279 . S
O304 Cd296 2.223 . S
O304 C303 1.315 . S
O305 Cd295 2.240 . S
O305 C303 1.279 . S
O306 Cd296 2.297 . S
O306 C301 1.247 . S
O307 Cd296 2.439 . S
O307 C301 1.208 . S
O308 Cd309 2.223 . S
O308 C316 1.315 . S
Cd309 O308 2.223 . S
Cd309 O312 2.297 . S
Cd309 O313 2.439 . S
Cd309 O319 2.240 . S
Cd310 O311 2.240 . S
Cd310 O318 2.223 . S
Cd310 O320 2.297 . S
Cd310 O321 2.439 . S
O311 Cd310 2.240 . S
O311 C316 1.279 . S
O312 Cd309 2.297 . S
O312 C314 1.247 . S
O313 Cd309 2.439 . S
O313 C314 1.208 . S
C314 O312 1.247 . S
C314 O313 1.208 . S
C315 O320 1.247 . S
C315 O321 1.208 . S
C316 O308 1.315 . S
C316 O311 1.279 . S
C317 O318 1.315 . S
C317 O319 1.279 . S
O318 Cd310 2.223 . S
O318 C317 1.315 . S
O319 Cd309 2.240 . S
O319 C317 1.279 . S
O320 Cd310 2.297 . S
O320 C315 1.247 . S
O321 Cd310 2.439 . S
O321 C315 1.208 . S
O322 Cd323 2.223 . S
O322 C330 1.315 . S
Cd323 O322 2.223 . S
Cd323 O326 2.297 . S
Cd323 O327 2.439 . S
Cd323 O333 2.240 . S
Cd324 O325 2.240 . S
Cd324 O332 2.223 . S
Cd324 O334 2.297 . S
Cd324 O335 2.439 . S
O325 Cd324 2.240 . S
O325 C330 1.279 . S
O326 Cd323 2.297 . S
O326 C328 1.247 . S
O327 Cd323 2.439 . S
O327 C328 1.208 . S
C328 O326 1.247 . S
C328 O327 1.208 . S
C329 O334 1.247 . S
C329 O335 1.208 . S
C330 O322 1.315 . S
C330 O325 1.279 . S
C331 O332 1.315 . S
C331 O333 1.279 . S
O332 Cd324 2.223 . S
O332 C331 1.315 . S
O333 Cd323 2.240 . S
O333 C331 1.279 . S
O334 Cd324 2.297 . S
O334 C329 1.247 . S
O335 Cd324 2.439 . S
O335 C329 1.208 . S
Ho336 C339 2.822 1_455 S
Ho336 O356 2.322 . S
Ho336 O358 2.378 1_454 S
Ho336 O359 2.524 1_455 S
Ho336 O360 2.381 1_554 S
Ho336 O361 2.678 . S
Ho336 O363 2.346 . S
Ho336 O367 2.305 . S
Ho337 C348 2.811 . S
Ho337 O357 2.346 . S
Ho337 O361 2.325 . S
Ho337 O362 2.322 . S
Ho337 O364 2.378 . S
Ho337 O365 2.524 . S
Ho337 O366 2.381 . S
Ho337 O367 2.669 . S
C338 O356 1.259 . S
C338 O357 1.268 . S
C339 Ho336 2.822 1_655 S
C339 C340 1.475 1_554 S
C339 O358 1.174 1_554 S
C339 O359 1.346 . S
C340 C339 1.475 1_556 S
C340 C341 1.348 1_556 S
C340 C345 1.413 . S
C341 C340 1.348 1_554 S
C341 C342 1.442 . S
C341 H368 0.930 . S
C342 C341 1.442 . S
C342 C343 1.381 1_554 S
C342 H369 0.931 . S
C343 C342 1.381 1_556 S
C343 C344 1.321 . S
C344 C343 1.321 . S
C344 C345 1.403 . S
C344 H370 0.934 . S
C345 C340 1.413 . S
C345 C344 1.403 . S
C345 H371 0.930 . S
C346 O360 1.275 . S
C346 O361 1.231 1_556 S
C347 O362 1.259 . S
C347 O363 1.268 . S
C348 Ho337 2.811 . S
C348 C349 1.488 . S
C348 O364 1.215 . S
C348 O365 1.289 . S
C349 C348 1.488 . S
C349 C350 1.348 . S
C349 C354 1.413 . S
C350 C349 1.348 . S
C350 C351 1.442 . S
C350 H372 0.930 . S
C351 C350 1.442 . S
C351 C352 1.381 . S
C351 H373 0.931 1_545 S
C352 C351 1.381 . S
C352 C353 1.321 . S
C353 C352 1.321 . S
C353 C354 1.403 . S
C353 H374 0.934 . S
C354 C349 1.413 . S
C354 C353 1.403 . S
C354 H375 0.930 . S
C355 O366 1.275 . S
C355 O367 1.256 . S
O356 Ho336 2.322 . S
O356 C338 1.259 . S
O357 Ho337 2.346 . S
O357 C338 1.268 . S
O358 Ho336 2.378 1_656 S
O358 C339 1.174 1_556 S
O359 Ho336 2.524 1_655 S
O359 C339 1.346 . S
O360 Ho336 2.381 1_556 S
O360 C346 1.275 . S
O361 Ho336 2.678 . S
O361 Ho337 2.325 . S
O361 C346 1.231 1_554 S
O362 Ho337 2.322 . S
O362 C347 1.259 . S
O363 Ho336 2.346 . S
O363 C347 1.268 . S
O364 Ho337 2.378 . S
O364 C348 1.215 . S
O365 Ho337 2.524 . S
O365 C348 1.289 . S
O366 Ho337 2.381 . S
O366 C355 1.275 . S
O367 Ho336 2.305 . S
O367 Ho337 2.669 . S
O367 C355 1.256 . S
H368 C341 0.930 . S
H369 C342 0.931 . S
H370 C344 0.934 . S
H371 C345 0.930 . S
H372 C350 0.930 . S
H373 C351 0.931 1_565 S
H374 C353 0.934 . S
H375 C354 0.930 . S
Ho376 C379 2.811 . S
Ho376 O396 2.322 . S
Ho376 O398 2.378 . S
Ho376 O399 2.524 . S
Ho376 O400 2.381 . S
Ho376 O401 2.669 . S
Ho376 O403 2.346 . S
Ho376 O407 2.305 . S
Ho377 C388 2.811 . S
Ho377 O397 2.346 . S
Ho377 O401 2.305 . S
Ho377 O402 2.322 . S
Ho377 O404 2.378 . S
Ho377 O405 2.524 . S
Ho377 O406 2.381 . S
Ho377 O407 2.669 . S
C378 O396 1.259 . S
C378 O397 1.268 . S
C379 Ho376 2.811 . S
C379 C380 1.488 . S
C379 O398 1.215 . S
C379 O399 1.289 . S
C380 C379 1.488 . S
C380 C381 1.348 . S
C380 C385 1.413 . S
C381 C380 1.348 . S
C381 C382 1.442 . S
C381 H408 0.930 . S
C382 C381 1.442 . S
C382 C383 1.381 . S
C382 H409 0.931 . S
C383 C382 1.381 . S
C383 C384 1.321 . S
C384 C383 1.321 . S
C384 C385 1.403 . S
C384 H410 0.934 . S
C385 C380 1.413 . S
C385 C384 1.403 . S
C385 H411 0.930 . S
C386 O400 1.275 . S
C386 O401 1.256 . S
C387 O402 1.259 . S
C387 O403 1.268 . S
C388 Ho377 2.811 . S
C388 C389 1.488 . S
C388 O404 1.215 . S
C388 O405 1.289 . S
C389 C388 1.488 . S
C389 C390 1.348 . S
C389 C394 1.413 . S
C390 C389 1.348 . S
C390 C391 1.442 . S
C390 H412 0.930 . S
C391 C390 1.442 . S
C391 C392 1.381 . S
C391 H413 0.931 . S
C392 C391 1.381 . S
C392 C393 1.321 . S
C393 C392 1.321 . S
C393 C394 1.403 . S
C393 H414 0.934 . S
C394 C389 1.413 . S
C394 C393 1.403 . S
C394 H415 0.930 . S
C395 O406 1.275 . S
C395 O407 1.256 . S
O396 Ho376 2.322 . S
O396 C378 1.259 . S
O397 Ho377 2.346 . S
O397 C378 1.268 . S
O398 Ho376 2.378 . S
O398 C379 1.215 . S
O399 Ho376 2.524 . S
O399 C379 1.289 . S
O400 Ho376 2.381 . S
O400 C386 1.275 . S
O401 Ho376 2.669 . S
O401 Ho377 2.305 . S
O401 C386 1.256 . S
O402 Ho377 2.322 . S
O402 C387 1.259 . S
O403 Ho376 2.346 . S
O403 C387 1.268 . S
O404 Ho377 2.378 . S
O404 C388 1.215 . S
O405 Ho377 2.524 . S
O405 C388 1.289 . S
O406 Ho377 2.381 . S
O406 C395 1.275 . S
O407 Ho376 2.305 . S
O407 Ho377 2.669 . S
O407 C395 1.256 . S
H408 C381 0.930 . S
H409 C382 0.931 . S
H410 C384 0.934 . S
H411 C385 0.930 . S
H412 C390 0.930 . S
H413 C391 0.931 . S
H414 C393 0.934 . S
H415 C394 0.930 . S
Ho416 C419 2.811 . S
Ho416 O436 2.322 . S
Ho416 O438 2.378 . S
Ho416 O439 2.524 . S
Ho416 O440 2.381 . S
Ho416 O441 2.669 . S
Ho416 O443 2.346 . S
Ho416 O447 2.305 . S
Ho417 C428 2.811 . S
Ho417 O437 2.340 . S
Ho417 O441 2.305 . S
Ho417 O442 2.322 . S
Ho417 O444 2.378 . S
Ho417 O445 2.524 . S
Ho417 O446 2.381 . S
Ho417 O447 2.669 . S
C418 O436 1.259 1_565 S
C418 O437 1.270 1_565 S
C419 Ho416 2.811 . S
C419 C420 1.488 . S
C419 O438 1.215 . S
C419 O439 1.289 . S
C420 C419 1.488 . S
C420 C421 1.348 1_545 S
C420 C425 1.413 . S
C421 C420 1.348 1_565 S
C421 C422 1.442 . S
C421 H448 0.930 . S
C422 C421 1.442 . S
C422 C423 1.381 . S
C422 H449 0.931 . S
C423 C422 1.381 . S
C423 C424 1.321 . S
C424 C423 1.321 . S
C424 C425 1.403 1_565 S
C424 H450 0.934 . S
C425 C420 1.413 . S
C425 C424 1.403 1_545 S
C425 H451 0.930 . S
C426 O440 1.275 . S
C426 O441 1.256 . S
C427 O442 1.259 . S
C427 O443 1.268 . S
C428 Ho417 2.811 . S
C428 C429 1.488 . S
C428 O444 1.215 . S
C428 O445 1.289 . S
C429 C428 1.488 . S
C429 C430 1.348 . S
C429 C434 1.413 . S
C430 C429 1.348 . S
C430 C431 1.442 . S
C430 H452 0.930 . S
C431 C430 1.442 . S
C431 C432 1.381 . S
C431 H453 0.931 . S
C432 C431 1.381 . S
C432 C433 1.321 . S
C433 C432 1.321 . S
C433 C434 1.403 . S
C433 H454 0.934 . S
C434 C429 1.413 . S
C434 C433 1.403 . S
C434 H455 0.930 . S
C435 O446 1.275 . S
C435 O447 1.256 . S
O436 Ho416 2.322 . S
O436 C418 1.259 1_545 S
O437 Ho417 2.340 . S
O437 C418 1.270 1_545 S
O438 Ho416 2.378 . S
O438 C419 1.215 . S
O439 Ho416 2.524 . S
O439 C419 1.289 . S
O440 Ho416 2.381 . S
O440 C426 1.275 . S
O441 Ho416 2.669 . S
O441 Ho417 2.305 . S
O441 C426 1.256 . S
O442 Ho417 2.322 . S
O442 C427 1.259 . S
O443 Ho416 2.346 . S
O443 C427 1.268 . S
O444 Ho417 2.378 . S
O444 C428 1.215 . S
O445 Ho417 2.524 . S
O445 C428 1.289 . S
O446 Ho417 2.381 . S
O446 C435 1.275 . S
O447 Ho416 2.305 . S
O447 Ho417 2.669 . S
O447 C435 1.256 . S
H448 C421 0.930 . S
H449 C422 0.931 . S
H450 C424 0.934 . S
H451 C425 0.930 . S
H452 C430 0.930 . S
H453 C431 0.931 . S
H454 C433 0.934 . S
H455 C434 0.930 . S
Ho456 C459 2.811 . S
Ho456 O476 2.322 . S
Ho456 O478 2.378 . S
Ho456 O479 2.524 . S
Ho456 O480 2.381 . S
Ho456 O481 2.669 . S
Ho456 O483 2.346 . S
Ho456 O487 2.305 . S
Ho457 C468 2.811 . S
Ho457 O477 2.346 . S
Ho457 O481 2.305 . S
Ho457 O482 2.322 . S
Ho457 O484 2.378 . S
Ho457 O485 2.524 . S
Ho457 O486 2.381 . S
Ho457 O487 2.669 . S
C458 O476 1.259 . S
C458 O477 1.268 . S
C459 Ho456 2.811 . S
C459 C460 1.488 . S
C459 O478 1.215 . S
C459 O479 1.289 . S
C460 C459 1.488 . S
C460 C461 1.348 . S
C460 C465 1.413 . S
C461 C460 1.348 . S
C461 C462 1.442 . S
C461 H488 0.930 . S
C462 C461 1.442 . S
C462 C463 1.381 . S
C462 H489 0.931 . S
C463 C462 1.381 . S
C463 C464 1.321 . S
C464 C463 1.321 . S
C464 C465 1.403 . S
C464 H490 0.934 . S
C465 C460 1.413 . S
C465 C464 1.403 . S
C465 H491 0.930 . S
C466 O480 1.275 . S
C466 O481 1.256 . S
C467 O482 1.259 . S
C467 O483 1.268 . S
C468 Ho457 2.811 . S
C468 C469 1.488 . S
C468 O484 1.215 . S
C468 O485 1.289 . S
C469 C468 1.488 . S
C469 C470 1.348 . S
C469 C474 1.413 . S
C470 C469 1.348 . S
C470 C471 1.442 . S
C470 H492 0.930 . S
C471 C470 1.442 . S
C471 C472 1.381 . S
C471 H493 0.931 . S
C472 C471 1.381 . S
C472 C473 1.321 . S
C473 C472 1.321 . S
C473 C474 1.403 . S
C473 H494 0.934 . S
C474 C469 1.413 . S
C474 C473 1.403 . S
C474 H495 0.930 . S
C475 O486 1.275 . S
C475 O487 1.256 . S
O476 Ho456 2.322 . S
O476 C458 1.259 . S
O477 Ho457 2.346 . S
O477 C458 1.268 . S
O478 Ho456 2.378 . S
O478 C459 1.215 . S
O479 Ho456 2.524 . S
O479 C459 1.289 . S
O480 Ho456 2.381 . S
O480 C466 1.275 . S
O481 Ho456 2.669 . S
O481 Ho457 2.305 . S
O481 C466 1.256 . S
O482 Ho457 2.322 . S
O482 C467 1.259 . S
O483 Ho456 2.346 . S
O483 C467 1.268 . S
O484 Ho457 2.378 . S
O484 C468 1.215 . S
O485 Ho457 2.524 . S
O485 C468 1.289 . S
O486 Ho457 2.381 . S
O486 C475 1.275 . S
O487 Ho456 2.305 . S
O487 Ho457 2.669 . S
O487 C475 1.256 . S
H488 C461 0.930 . S
H489 C462 0.931 . S
H490 C464 0.934 . S
H491 C465 0.930 . S
H492 C470 0.930 . S
H493 C471 0.931 . S
H494 C473 0.934 . S
H495 C474 0.930 . S
Ho496 C499 2.811 . S
Ho496 O516 2.322 . S
Ho496 O518 2.378 . S
Ho496 O519 2.524 . S
Ho496 O520 2.381 . S
Ho496 O521 2.669 . S
Ho496 O523 2.346 . S
Ho496 O527 2.305 . S
Ho497 C508 2.811 1_545 S
Ho497 O517 2.346 . S
Ho497 O521 2.305 . S
Ho497 O522 2.322 . S
Ho497 O524 2.378 1_545 S
Ho497 O525 2.524 1_545 S
Ho497 O526 2.381 . S
Ho497 O527 2.669 . S
C498 O516 1.259 . S
C498 O517 1.268 . S
C499 Ho496 2.811 . S
C499 C500 1.488 . S
C499 O518 1.215 . S
C499 O519 1.289 . S
C500 C499 1.488 . S
C500 C501 1.348 . S
C500 C505 1.413 . S
C501 C500 1.348 . S
C501 C502 1.442 . S
C501 H528 0.930 . S
C502 C501 1.442 . S
C502 C503 1.381 . S
C502 H529 0.931 . S
C503 C502 1.381 . S
C503 C504 1.321 . S
C504 C503 1.321 . S
C504 C505 1.403 . S
C504 H530 0.934 . S
C505 C500 1.413 . S
C505 C504 1.403 . S
C505 H531 0.930 . S
C506 O520 1.275 . S
C506 O521 1.256 . S
C507 O522 1.259 . S
C507 O523 1.268 . S
C508 Ho497 2.811 1_565 S
C508 C509 1.488 . S
C508 O524 1.215 . S
C508 O525 1.289 . S
C509 C508 1.488 . S
C509 C510 1.348 . S
C509 C514 1.413 . S
C510 C509 1.348 . S
C510 C511 1.442 . S
C510 H532 0.930 . S
C511 C510 1.442 . S
C511 C512 1.381 . S
C511 H533 0.931 . S
C512 C511 1.381 . S
C512 C513 1.321 . S
C513 C512 1.321 . S
C513 C514 1.403 . S
C513 H534 0.934 . S
C514 C509 1.413 . S
C514 C513 1.403 . S
C514 H535 0.930 . S
C515 O526 1.275 . S
C515 O527 1.256 . S
O516 Ho496 2.322 . S
O516 C498 1.259 . S
O517 Ho497 2.346 . S
O517 C498 1.268 . S
O518 Ho496 2.378 . S
O518 C499 1.215 . S
O519 Ho496 2.524 . S
O519 C499 1.289 . S
O520 Ho496 2.381 . S
O520 C506 1.275 . S
O521 Ho496 2.669 . S
O521 Ho497 2.305 . S
O521 C506 1.256 . S
O522 Ho497 2.322 . S
O522 C507 1.259 . S
O523 Ho496 2.346 . S
O523 C507 1.268 . S
O524 Ho497 2.378 1_565 S
O524 C508 1.215 . S
O525 Ho497 2.524 1_565 S
O525 C508 1.289 . S
O526 Ho497 2.381 . S
O526 C515 1.275 . S
O527 Ho496 2.305 . S
O527 Ho497 2.669 . S
O527 C515 1.256 . S
H528 C501 0.930 . S
H529 C502 0.931 . S
H530 C504 0.934 . S
H531 C505 0.930 . S
H532 C510 0.930 . S
H533 C511 0.931 . S
H534 C513 0.934 . S
H535 C514 0.930 . S
Ho536 C539 2.811 . S
Ho536 O556 2.322 . S
Ho536 O558 2.378 . S
Ho536 O559 2.524 . S
Ho536 O560 2.381 . S
Ho536 O561 2.669 . S
Ho536 O563 2.346 . S
Ho536 O567 2.305 . S
Ho537 C548 2.811 . S
Ho537 O557 2.346 . S
Ho537 O561 2.305 . S
Ho537 O562 2.322 . S
Ho537 O564 2.378 . S
Ho537 O565 2.524 . S
Ho537 O566 2.381 . S
Ho537 O567 2.669 . S
C538 O556 1.259 . S
C538 O557 1.268 . S
C539 Ho536 2.811 . S
C539 C540 1.488 . S
C539 O558 1.215 . S
C539 O559 1.289 . S
C540 C539 1.488 . S
C540 C541 1.348 . S
C540 C545 1.413 . S
C541 C540 1.348 . S
C541 C542 1.442 . S
C541 H568 0.930 . S
C542 C541 1.442 . S
C542 C543 1.381 . S
C542 H569 0.931 . S
C543 C542 1.381 . S
C543 C544 1.321 . S
C544 C543 1.321 . S
C544 C545 1.403 . S
C544 H570 0.934 . S
C545 C540 1.413 . S
C545 C544 1.403 . S
C545 H571 0.930 . S
C546 O560 1.275 . S
C546 O561 1.256 . S
C547 O562 1.259 . S
C547 O563 1.268 . S
C548 Ho537 2.811 . S
C548 C549 1.488 . S
C548 O564 1.215 . S
C548 O565 1.289 . S
C549 C548 1.488 . S
C549 C550 1.348 . S
C549 C554 1.413 . S
C550 C549 1.348 . S
C550 C551 1.442 . S
C550 H572 0.930 . S
C551 C550 1.442 . S
C551 C552 1.381 . S
C551 H573 0.931 . S
C552 C551 1.381 . S
C552 C553 1.321 . S
C553 C552 1.321 . S
C553 C554 1.403 . S
C553 H574 0.934 . S
C554 C549 1.413 . S
C554 C553 1.403 . S
C554 H575 0.930 . S
C555 O566 1.275 . S
C555 O567 1.256 . S
O556 Ho536 2.322 . S
O556 C538 1.259 . S
O557 Ho537 2.346 . S
O557 C538 1.268 . S
O558 Ho536 2.378 . S
O558 C539 1.215 . S
O559 Ho536 2.524 . S
O559 C539 1.289 . S
O560 Ho536 2.381 . S
O560 C546 1.275 . S
O561 Ho536 2.669 . S
O561 Ho537 2.305 . S
O561 C546 1.256 . S
O562 Ho537 2.322 . S
O562 C547 1.259 . S
O563 Ho536 2.346 . S
O563 C547 1.268 . S
O564 Ho537 2.378 . S
O564 C548 1.215 . S
O565 Ho537 2.524 . S
O565 C548 1.289 . S
O566 Ho537 2.381 . S
O566 C555 1.275 . S
O567 Ho536 2.305 . S
O567 Ho537 2.669 . S
O567 C555 1.256 . S
H568 C541 0.930 . S
H569 C542 0.931 . S
H570 C544 0.934 . S
H571 C545 0.930 . S
H572 C550 0.930 . S
H573 C551 0.931 . S
H574 C553 0.934 . S
H575 C554 0.930 . S
Ho576 C579 2.811 . S
Ho576 O596 2.322 . S
Ho576 O598 2.378 . S
Ho576 O599 2.524 . S
Ho576 O600 2.363 1_545 S
Ho576 O601 2.669 . S
Ho576 O603 2.346 . S
Ho576 O607 2.305 . S
Ho577 C588 2.811 . S
Ho577 O597 2.346 1_556 S
Ho577 O601 2.305 1_556 S
Ho577 O602 2.322 1_556 S
Ho577 O604 2.378 . S
Ho577 O605 2.524 . S
Ho577 O606 2.381 1_556 S
Ho577 O607 2.669 1_556 S
C578 O596 1.259 . S
C578 O597 1.268 . S
C579 Ho576 2.811 . S
C579 C580 1.488 . S
C579 O598 1.215 . S
C579 O599 1.289 . S
C580 C579 1.488 . S
C580 C581 1.348 . S
C580 C585 1.413 1_545 S
C581 C580 1.348 . S
C581 C582 1.442 . S
C581 H608 0.930 . S
C582 C581 1.442 . S
C582 C583 1.432 . S
C582 H609 0.931 . S
C583 C582 1.432 . S
C583 C584 1.288 1_545 S
C584 C583 1.288 1_565 S
C584 C585 1.403 . S
C584 H610 0.934 . S
C585 C580 1.413 1_565 S
C585 C584 1.403 . S
C585 H611 0.930 . S
C586 O600 1.268 1_545 S
C586 O601 1.256 . S
C587 O602 1.259 . S
C587 O603 1.268 . S
C588 Ho577 2.811 . S
C588 C589 1.488 . S
C588 O604 1.215 . S
C588 O605 1.289 . S
C589 C588 1.488 . S
C589 C590 1.348 . S
C589 C594 1.413 . S
C590 C589 1.348 . S
C590 C591 1.442 . S
C590 H612 0.930 . S
C591 C590 1.442 . S
C591 C592 1.381 . S
C591 H613 0.931 . S
C592 C591 1.381 . S
C592 C593 1.321 . S
C593 C592 1.321 . S
C593 C594 1.403 . S
C593 H614 0.934 . S
C594 C589 1.413 . S
C594 C593 1.403 . S
C594 H615 0.930 . S
C595 O606 1.275 . S
C595 O607 1.256 . S
O596 Ho576 2.322 . S
O596 C578 1.259 . S
O597 Ho577 2.346 1_554 S
O597 C578 1.268 . S
O598 Ho576 2.378 . S
O598 C579 1.215 . S
O599 Ho576 2.524 . S
O599 C579 1.289 . S
O600 Ho576 2.363 1_565 S
O600 C586 1.268 1_565 S
O601 Ho576 2.669 . S
O601 Ho577 2.305 1_554 S
O601 C586 1.256 . S
O602 Ho577 2.322 1_554 S
O602 C587 1.259 . S
O603 Ho576 2.346 . S
O603 C587 1.268 . S
O604 Ho577 2.378 . S
O604 C588 1.215 . S
O605 Ho577 2.524 . S
O605 C588 1.289 . S
O606 Ho577 2.381 1_554 S
O606 C595 1.275 . S
O607 Ho576 2.305 . S
O607 Ho577 2.669 1_554 S
O607 C595 1.256 . S
H608 C581 0.930 . S
H609 C582 0.931 . S
H610 C584 0.934 . S
H611 C585 0.930 . S
H612 C590 0.930 . S
H613 C591 0.931 . S
H614 C593 0.934 . S
H615 C594 0.930 . S
Ho616 C619 2.811 . S
Ho616 O636 2.322 . S
Ho616 O638 2.378 . S
Ho616 O639 2.524 . S
Ho616 O640 2.381 . S
Ho616 O641 2.669 . S
Ho616 O643 2.346 . S
Ho616 O647 2.305 . S
Ho617 C628 2.811 . S
Ho617 O637 2.346 . S
Ho617 O641 2.305 . S
Ho617 O642 2.322 . S
Ho617 O644 2.378 . S
Ho617 O645 2.524 . S
Ho617 O646 2.381 . S
Ho617 O647 2.669 . S
C618 O636 1.259 . S
C618 O637 1.268 . S
C619 Ho616 2.811 . S
C619 C620 1.488 . S
C619 O638 1.215 . S
C619 O639 1.289 . S
C620 C619 1.488 . S
C620 C621 1.348 . S
C620 C625 1.413 . S
C621 C620 1.348 . S
C621 C622 1.442 . S
C621 H648 0.930 . S
C622 C621 1.442 . S
C622 C623 1.381 . S
C622 H649 0.931 . S
C623 C622 1.381 . S
C623 C624 1.321 . S
C624 C623 1.321 . S
C624 C625 1.403 . S
C624 H650 0.934 . S
C625 C620 1.413 . S
C625 C624 1.403 . S
C625 H651 0.930 . S
C626 O640 1.275 . S
C626 O641 1.256 . S
C627 O642 1.259 . S
C627 O643 1.268 . S
C628 Ho617 2.811 . S
C628 C629 1.488 . S
C628 O644 1.215 . S
C628 O645 1.289 . S
C629 C628 1.488 . S
C629 C630 1.348 . S
C629 C634 1.413 . S
C630 C629 1.348 . S
C630 C631 1.442 . S
C630 H652 0.930 . S
C631 C630 1.442 . S
C631 C632 1.381 . S
C631 H653 0.931 . S
C632 C631 1.381 . S
C632 C633 1.321 . S
C633 C632 1.321 . S
C633 C634 1.403 . S
C633 H654 0.934 . S
C634 C629 1.413 . S
C634 C633 1.403 . S
C634 H655 0.930 . S
C635 O646 1.275 . S
C635 O647 1.256 . S
O636 Ho616 2.322 . S
O636 C618 1.259 . S
O637 Ho617 2.346 . S
O637 C618 1.268 . S
O638 Ho616 2.378 . S
O638 C619 1.215 . S
O639 Ho616 2.524 . S
O639 C619 1.289 . S
O640 Ho616 2.381 . S
O640 C626 1.275 . S
O641 Ho616 2.669 . S
O641 Ho617 2.305 . S
O641 C626 1.256 . S
O642 Ho617 2.322 . S
O642 C627 1.259 . S
O643 Ho616 2.346 . S
O643 C627 1.268 . S
O644 Ho617 2.378 . S
O644 C628 1.215 . S
O645 Ho617 2.524 . S
O645 C628 1.289 . S
O646 Ho617 2.381 . S
O646 C635 1.275 . S
O647 Ho616 2.305 . S
O647 Ho617 2.669 . S
O647 C635 1.256 . S
H648 C621 0.930 . S
H649 C622 0.931 . S
H650 C624 0.934 . S
H651 C625 0.930 . S
H652 C630 0.930 . S
H653 C631 0.931 . S
H654 C633 0.934 . S
H655 C634 0.930 . S
Ho656 C659 2.811 . S
Ho656 O676 2.322 1_554 S
Ho656 O678 2.378 . S
Ho656 O679 2.524 . S
Ho656 O680 2.381 . S
Ho656 O681 2.669 . S
Ho656 O683 2.346 . S
Ho656 O687 2.305 . S
Ho657 C668 2.811 . S
Ho657 O677 2.346 1_554 S
Ho657 O681 2.305 . S
Ho657 O682 2.322 . S
Ho657 O684 2.378 . S
Ho657 O685 2.524 . S
Ho657 O686 2.381 . S
Ho657 O687 2.669 . S
C658 O676 1.259 . S
C658 O677 1.268 . S
C659 Ho656 2.811 . S
C659 C660 1.488 1_554 S
C659 O678 1.215 . S
C659 O679 1.289 . S
C660 C659 1.488 1_556 S
C660 C661 1.348 . S
C660 C665 1.411 1_556 S
C661 C660 1.348 . S
C661 C662 1.442 . S
C661 H688 0.930 . S
C662 C661 1.442 . S
C662 C663 1.381 . S
C662 H689 0.931 . S
C663 C662 1.381 . S
C663 C664 1.321 . S
C664 C663 1.321 . S
C664 C665 1.391 1_556 S
C664 H690 0.934 . S
C665 C660 1.411 1_554 S
C665 C664 1.391 1_554 S
C665 H691 0.945 . S
C666 O680 1.275 . S
C666 O681 1.256 . S
C667 O682 1.259 . S
C667 O683 1.268 . S
C668 Ho657 2.811 . S
C668 C669 1.488 . S
C668 O684 1.215 . S
C668 O685 1.289 . S
C669 C668 1.488 . S
C669 C670 1.348 . S
C669 C674 1.413 . S
C670 C669 1.348 . S
C670 C671 1.442 . S
C670 H692 0.930 . S
C671 C670 1.442 . S
C671 C672 1.381 . S
C671 H693 0.931 . S
C672 C671 1.381 . S
C672 C673 1.321 . S
C673 C672 1.321 . S
C673 C674 1.403 . S
C673 H694 0.934 . S
C674 C669 1.413 . S
C674 C673 1.403 . S
C674 H695 0.930 . S
C675 O686 1.275 . S
C675 O687 1.256 . S
O676 Ho656 2.322 1_556 S
O676 C658 1.259 . S
O677 Ho657 2.346 1_556 S
O677 C658 1.268 . S
O678 Ho656 2.378 . S
O678 C659 1.215 . S
O679 Ho656 2.524 . S
O679 C659 1.289 . S
O680 Ho656 2.381 . S
O680 C666 1.275 . S
O681 Ho656 2.669 . S
O681 Ho657 2.305 . S
O681 C666 1.256 . S
O682 Ho657 2.322 . S
O682 C667 1.259 . S
O683 Ho656 2.346 . S
O683 C667 1.268 . S
O684 Ho657 2.378 . S
O684 C668 1.215 . S
O685 Ho657 2.524 . S
O685 C668 1.289 . S
O686 Ho657 2.381 . S
O686 C675 1.275 . S
O687 Ho656 2.305 . S
O687 Ho657 2.669 . S
O687 C675 1.256 . S
H688 C661 0.930 . S
H689 C662 0.931 . S
H690 C664 0.934 . S
H691 C665 0.945 . S
H692 C670 0.930 . S
H693 C671 0.931 . S
H694 C673 0.934 . S
H695 C674 0.930 . S
Ho696 C699 2.811 . S
Ho696 O716 2.322 . S
Ho696 O718 2.378 . S
Ho696 O719 2.524 . S
Ho696 O720 2.381 . S
Ho696 O721 2.669 . S
Ho696 O723 2.346 . S
Ho696 O727 2.305 . S
Ho697 C708 2.811 . S
Ho697 O717 2.346 . S
Ho697 O721 2.305 . S
Ho697 O722 2.322 . S
Ho697 O724 2.378 . S
Ho697 O725 2.524 . S
Ho697 O726 2.381 . S
Ho697 O727 2.669 . S
C698 O716 1.259 . S
C698 O717 1.268 . S
C699 Ho696 2.811 . S
C699 C700 1.488 . S
C699 O718 1.215 . S
C699 O719 1.289 . S
C700 C699 1.488 . S
C700 C701 1.348 . S
C700 C705 1.413 . S
C701 C700 1.348 . S
C701 C702 1.442 . S
C701 H728 0.930 . S
C702 C701 1.442 . S
C702 C703 1.381 . S
C702 H729 0.931 . S
C703 C702 1.381 . S
C703 C704 1.321 . S
C704 C703 1.321 . S
C704 C705 1.403 . S
C704 H730 0.934 . S
C705 C700 1.413 . S
C705 C704 1.403 . S
C705 H731 0.930 . S
C706 O720 1.275 . S
C706 O721 1.256 . S
C707 O722 1.259 . S
C707 O723 1.268 . S
C708 Ho697 2.811 . S
C708 C709 1.488 . S
C708 O724 1.215 . S
C708 O725 1.289 . S
C709 C708 1.488 . S
C709 C710 1.348 . S
C709 C714 1.413 . S
C710 C709 1.348 . S
C710 C711 1.442 . S
C710 H732 0.930 . S
C711 C710 1.442 . S
C711 C712 1.381 . S
C711 H733 0.931 . S
C712 C711 1.381 . S
C712 C713 1.321 . S
C713 C712 1.321 . S
C713 C714 1.403 . S
C713 H734 0.934 . S
C714 C709 1.413 . S
C714 C713 1.403 . S
C714 H735 0.930 . S
C715 O726 1.275 . S
C715 O727 1.256 . S
O716 Ho696 2.322 . S
O716 C698 1.259 . S
O717 Ho697 2.346 . S
O717 C698 1.268 . S
O718 Ho696 2.378 . S
O718 C699 1.215 . S
O719 Ho696 2.524 . S
O719 C699 1.289 . S
O720 Ho696 2.381 . S
O720 C706 1.275 . S
O721 Ho696 2.669 . S
O721 Ho697 2.305 . S
O721 C706 1.256 . S
O722 Ho697 2.322 . S
O722 C707 1.259 . S
O723 Ho696 2.346 . S
O723 C707 1.268 . S
O724 Ho697 2.378 . S
O724 C708 1.215 . S
O725 Ho697 2.524 . S
O725 C708 1.289 . S
O726 Ho697 2.381 . S
O726 C715 1.275 . S
O727 Ho696 2.305 . S
O727 Ho697 2.669 . S
O727 C715 1.256 . S
H728 C701 0.930 . S
H729 C702 0.931 . S
H730 C704 0.934 . S
H731 C705 0.930 . S
H732 C710 0.930 . S
H733 C711 0.931 . S
H734 C713 0.934 . S
H735 C714 0.930 . S
Ho736 C739 2.811 . S
Ho736 O756 2.322 . S
Ho736 O758 2.378 . S
Ho736 O759 2.524 . S
Ho736 O760 2.381 . S
Ho736 O761 2.669 . S
Ho736 O763 2.346 . S
Ho736 O767 2.305 . S
Ho737 C748 2.811 . S
Ho737 O757 2.346 . S
Ho737 O761 2.305 . S
Ho737 O762 2.322 . S
Ho737 O764 2.378 . S
Ho737 O765 2.524 . S
Ho737 O766 2.381 . S
Ho737 O767 2.669 . S
C738 O756 1.259 . S
C738 O757 1.268 . S
C739 Ho736 2.811 . S
C739 C740 1.488 . S
C739 O758 1.215 . S
C739 O759 1.289 . S
C740 C739 1.488 . S
C740 C741 1.348 . S
C740 C745 1.413 . S
C741 C740 1.348 . S
C741 C742 1.442 1_455 S
C741 H768 0.930 . S
C742 C741 1.442 1_655 S
C742 C743 1.381 . S
C742 H769 0.931 . S
C743 C742 1.381 . S
C743 C744 1.321 1_655 S
C744 C743 1.321 1_455 S
C744 C745 1.403 . S
C744 H770 0.934 . S
C745 C740 1.413 . S
C745 C744 1.403 . S
C745 H771 0.930 . S
C746 O760 1.275 . S
C746 O761 1.256 . S
C747 O762 1.259 . S
C747 O763 1.268 . S
C748 Ho737 2.811 . S
C748 C749 1.488 . S
C748 O764 1.215 . S
C748 O765 1.289 . S
C749 C748 1.488 . S
C749 C750 1.348 . S
C749 C754 1.413 . S
C750 C749 1.348 . S
C750 C751 1.442 . S
C750 H772 0.930 . S
C751 C750 1.442 . S
C751 C752 1.381 . S
C751 H773 0.931 . S
C752 C751 1.381 . S
C752 C753 1.321 . S
C753 C752 1.321 . S
C753 C754 1.403 . S
C753 H774 0.934 . S
C754 C749 1.413 . S
C754 C753 1.403 . S
C754 H775 0.930 . S
C755 O766 1.275 . S
C755 O767 1.256 . S
O756 Ho736 2.322 . S
O756 C738 1.259 . S
O757 Ho737 2.346 . S
O757 C738 1.268 . S
O758 Ho736 2.378 . S
O758 C739 1.215 . S
O759 Ho736 2.524 . S
O759 C739 1.289 . S
O760 Ho736 2.381 . S
O760 C746 1.275 . S
O761 Ho736 2.669 . S
O761 Ho737 2.305 . S
O761 C746 1.256 . S
O762 Ho737 2.322 . S
O762 C747 1.259 . S
O763 Ho736 2.346 . S
O763 C747 1.268 . S
O764 Ho737 2.378 . S
O764 C748 1.215 . S
O765 Ho737 2.524 . S
O765 C748 1.289 . S
O766 Ho737 2.381 . S
O766 C755 1.275 . S
O767 Ho736 2.305 . S
O767 Ho737 2.669 . S
O767 C755 1.256 . S
H768 C741 0.930 . S
H769 C742 0.931 . S
H770 C744 0.934 . S
H771 C745 0.930 . S
H772 C750 0.930 . S
H773 C751 0.931 . S
H774 C753 0.934 . S
H775 C754 0.930 . S
Ho776 C779 2.811 . S
Ho776 O796 2.322 . S
Ho776 O798 2.378 . S
Ho776 O799 2.524 . S
Ho776 O800 2.381 . S
Ho776 O801 2.669 . S
Ho776 O803 2.346 . S
Ho776 O807 2.305 . S
Ho777 C788 2.811 . S
Ho777 O797 2.346 . S
Ho777 O801 2.305 . S
Ho777 O802 2.322 . S
Ho777 O804 2.378 . S
Ho777 O805 2.524 . S
Ho777 O806 2.381 . S
Ho777 O807 2.669 . S
C778 O796 1.259 . S
C778 O797 1.268 . S
C779 Ho776 2.811 . S
C779 C780 1.488 . S
C779 O798 1.215 . S
C779 O799 1.289 . S
C780 C779 1.488 . S
C780 C781 1.348 . S
C780 C785 1.413 . S
C781 C780 1.348 . S
C781 C782 1.442 . S
C781 H808 0.930 . S
C782 C781 1.442 . S
C782 C783 1.381 . S
C782 H809 0.931 . S
C783 C782 1.381 . S
C783 C784 1.321 . S
C784 C783 1.321 . S
C784 C785 1.403 . S
C784 H810 0.934 . S
C785 C780 1.413 . S
C785 C784 1.403 . S
C785 H811 0.930 . S
C786 O800 1.275 . S
C786 O801 1.256 . S
C787 O802 1.259 . S
C787 O803 1.268 . S
C788 Ho777 2.811 . S
C788 C789 1.488 . S
C788 O804 1.215 . S
C788 O805 1.289 . S
C789 C788 1.488 . S
C789 C790 1.348 . S
C789 C794 1.413 . S
C790 C789 1.348 . S
C790 C791 1.442 . S
C790 H812 0.930 . S
C791 C790 1.442 . S
C791 C792 1.381 . S
C791 H813 0.931 . S
C792 C791 1.381 . S
C792 C793 1.321 . S
C793 C792 1.321 . S
C793 C794 1.403 . S
C793 H814 0.934 . S
C794 C789 1.413 . S
C794 C793 1.403 . S
C794 H815 0.930 . S
C795 O806 1.275 . S
C795 O807 1.256 . S
O796 Ho776 2.322 . S
O796 C778 1.259 . S
O797 Ho777 2.346 . S
O797 C778 1.268 . S
O798 Ho776 2.378 . S
O798 C779 1.215 . S
O799 Ho776 2.524 . S
O799 C779 1.289 . S
O800 Ho776 2.381 . S
O800 C786 1.275 . S
O801 Ho776 2.669 . S
O801 Ho777 2.305 . S
O801 C786 1.256 . S
O802 Ho777 2.322 . S
O802 C787 1.259 . S
O803 Ho776 2.346 . S
O803 C787 1.268 . S
O804 Ho777 2.378 . S
O804 C788 1.215 . S
O805 Ho777 2.524 . S
O805 C788 1.289 . S
O806 Ho777 2.381 . S
O806 C795 1.275 . S
O807 Ho776 2.305 . S
O807 Ho777 2.669 . S
O807 C795 1.256 . S
H808 C781 0.930 . S
H809 C782 0.931 . S
H810 C784 0.934 . S
H811 C785 0.930 . S
H812 C790 0.930 . S
H813 C791 0.931 . S
H814 C793 0.934 . S
H815 C794 0.930 . S
Ho816 C819 2.811 . S
Ho816 O836 2.322 . S
Ho816 O838 2.378 . S
Ho816 O839 2.524 . S
Ho816 O840 2.381 . S
Ho816 O841 2.669 . S
Ho816 O843 2.346 . S
Ho816 O847 2.305 . S
Ho817 C828 2.811 . S
Ho817 O837 2.346 . S
Ho817 O841 2.305 . S
Ho817 O842 2.322 . S
Ho817 O844 2.378 . S
Ho817 O845 2.524 . S
Ho817 O846 2.381 . S
Ho817 O847 2.669 . S
C818 O836 1.259 . S
C818 O837 1.268 . S
C819 Ho816 2.811 . S
C819 C820 1.488 . S
C819 O838 1.215 . S
C819 O839 1.289 . S
C820 C819 1.488 . S
C820 C821 1.348 . S
C820 C825 1.413 . S
C821 C820 1.348 . S
C821 C822 1.442 . S
C821 H848 0.930 . S
C822 C821 1.442 . S
C822 C823 1.381 . S
C822 H849 0.931 . S
C823 C822 1.381 . S
C823 C824 1.321 . S
C824 C823 1.321 . S
C824 C825 1.403 . S
C824 H850 0.934 . S
C825 C820 1.413 . S
C825 C824 1.403 . S
C825 H851 0.930 . S
C826 O840 1.275 . S
C826 O841 1.256 . S
C827 O842 1.259 . S
C827 O843 1.268 . S
C828 Ho817 2.811 . S
C828 C829 1.488 . S
C828 O844 1.215 . S
C828 O845 1.289 . S
C829 C828 1.488 . S
C829 C830 1.348 . S
C829 C834 1.413 . S
C830 C829 1.348 . S
C830 C831 1.442 . S
C830 H852 0.930 . S
C831 C830 1.442 . S
C831 C832 1.381 . S
C831 H853 0.931 . S
C832 C831 1.381 . S
C832 C833 1.321 . S
C833 C832 1.321 . S
C833 C834 1.403 . S
C833 H854 0.934 . S
C834 C829 1.413 . S
C834 C833 1.403 . S
C834 H855 0.930 . S
C835 O846 1.275 . S
C835 O847 1.256 . S
O836 Ho816 2.322 . S
O836 C818 1.259 . S
O837 Ho817 2.346 . S
O837 C818 1.268 . S
O838 Ho816 2.378 . S
O838 C819 1.215 . S
O839 Ho816 2.524 . S
O839 C819 1.289 . S
O840 Ho816 2.381 . S
O840 C826 1.275 . S
O841 Ho816 2.669 . S
O841 Ho817 2.305 . S
O841 C826 1.256 . S
O842 Ho817 2.322 . S
O842 C827 1.259 . S
O843 Ho816 2.346 . S
O843 C827 1.268 . S
O844 Ho817 2.378 . S
O844 C828 1.215 . S
O845 Ho817 2.524 . S
O845 C828 1.289 . S
O846 Ho817 2.381 . S
O846 C835 1.275 . S
O847 Ho816 2.305 . S
O847 Ho817 2.669 . S
O847 C835 1.256 . S
H848 C821 0.930 . S
H849 C822 0.931 . S
H850 C824 0.934 . S
H851 C825 0.930 . S
H852 C830 0.930 . S
H853 C831 0.931 . S
H854 C833 0.934 . S
H855 C834 0.930 . S
Ho856 C859 2.811 . S
Ho856 O876 2.322 . S
Ho856 O878 2.378 . S
Ho856 O879 2.524 . S
Ho856 O880 2.381 . S
Ho856 O881 2.669 . S
Ho856 O883 2.346 . S
Ho856 O887 2.305 . S
Ho857 C868 2.811 . S
Ho857 O877 2.346 . S
Ho857 O881 2.305 . S
Ho857 O882 2.322 . S
Ho857 O884 2.378 . S
Ho857 O885 2.524 . S
Ho857 O886 2.381 . S
Ho857 O887 2.669 . S
C858 O876 1.259 . S
C858 O877 1.268 . S
C859 Ho856 2.811 . S
C859 C860 1.488 . S
C859 O878 1.215 . S
C859 O879 1.289 . S
C860 C859 1.488 . S
C860 C861 1.348 . S
C860 C865 1.413 . S
C861 C860 1.348 . S
C861 C862 1.442 . S
C861 H888 0.930 . S
C862 C861 1.442 . S
C862 C863 1.381 . S
C862 H889 0.931 . S
C863 C862 1.381 . S
C863 C864 1.321 . S
C864 C863 1.321 . S
C864 C865 1.403 . S
C864 H890 0.934 . S
C865 C860 1.413 . S
C865 C864 1.403 . S
C865 H891 0.930 . S
C866 O880 1.275 . S
C866 O881 1.256 . S
C867 O882 1.259 . S
C867 O883 1.268 . S
C868 Ho857 2.811 . S
C868 C869 1.488 . S
C868 O884 1.215 . S
C868 O885 1.289 . S
C869 C868 1.488 . S
C869 C870 1.348 . S
C869 C874 1.413 . S
C870 C869 1.348 . S
C870 C871 1.442 . S
C870 H892 0.930 . S
C871 C870 1.442 . S
C871 C872 1.381 . S
C871 H893 0.931 . S
C872 C871 1.381 . S
C872 C873 1.321 . S
C873 C872 1.321 . S
C873 C874 1.403 . S
C873 H894 0.934 . S
C874 C869 1.413 . S
C874 C873 1.403 . S
C874 H895 0.930 . S
C875 O886 1.275 . S
C875 O887 1.256 . S
O876 Ho856 2.322 . S
O876 C858 1.259 . S
O877 Ho857 2.346 . S
O877 C858 1.268 . S
O878 Ho856 2.378 . S
O878 C859 1.215 . S
O879 Ho856 2.524 . S
O879 C859 1.289 . S
O880 Ho856 2.381 . S
O880 C866 1.275 . S
O881 Ho856 2.669 . S
O881 Ho857 2.305 . S
O881 C866 1.256 . S
O882 Ho857 2.322 . S
O882 C867 1.259 . S
O883 Ho856 2.346 . S
O883 C867 1.268 . S
O884 Ho857 2.378 . S
O884 C868 1.215 . S
O885 Ho857 2.524 . S
O885 C868 1.289 . S
O886 Ho857 2.381 . S
O886 C875 1.275 . S
O887 Ho856 2.305 . S
O887 Ho857 2.669 . S
O887 C875 1.256 . S
H888 C861 0.930 . S
H889 C862 0.931 . S
H890 C864 0.934 . S
H891 C865 0.930 . S
H892 C870 0.930 . S
H893 C871 0.931 . S
H894 C873 0.934 . S
H895 C874 0.930 . S
Ho896 C899 2.811 . S
Ho896 O916 2.322 . S
Ho896 O918 2.378 . S
Ho896 O919 2.524 . S
Ho896 O920 2.381 . S
Ho896 O921 2.669 . S
Ho896 O923 2.346 . S
Ho896 O927 2.305 . S
Ho897 C908 2.811 . S
Ho897 O917 2.346 . S
Ho897 O921 2.305 . S
Ho897 O922 2.322 . S
Ho897 O924 2.378 . S
Ho897 O925 2.524 . S
Ho897 O926 2.381 . S
Ho897 O927 2.669 . S
C898 O916 1.259 . S
C898 O917 1.268 . S
C899 Ho896 2.811 . S
C899 C900 1.488 . S
C899 O918 1.215 . S
C899 O919 1.289 . S
C900 C899 1.488 . S
C900 C901 1.348 . S
C900 C905 1.413 . S
C901 C900 1.348 . S
C901 C902 1.442 . S
C901 H928 0.930 . S
C902 C901 1.442 . S
C902 C903 1.381 . S
C902 H929 0.931 . S
C903 C902 1.381 . S
C903 C904 1.321 . S
C904 C903 1.321 . S
C904 C905 1.403 . S
C904 H930 0.934 . S
C905 C900 1.413 . S
C905 C904 1.403 . S
C905 H931 0.930 . S
C906 O920 1.275 . S
C906 O921 1.256 . S
C907 O922 1.259 . S
C907 O923 1.268 . S
C908 Ho897 2.811 . S
C908 C909 1.488 . S
C908 O924 1.215 . S
C908 O925 1.289 . S
C909 C908 1.488 . S
C909 C910 1.348 . S
C909 C914 1.413 . S
C910 C909 1.348 . S
C910 C911 1.442 . S
C910 H932 0.930 . S
C911 C910 1.442 . S
C911 C912 1.381 . S
C911 H933 0.931 . S
C912 C911 1.381 . S
C912 C913 1.321 . S
C913 C912 1.321 . S
C913 C914 1.403 . S
C913 H934 0.934 . S
C914 C909 1.413 . S
C914 C913 1.403 . S
C914 H935 0.930 . S
C915 O926 1.275 . S
C915 O927 1.256 . S
O916 Ho896 2.322 . S
O916 C898 1.259 . S
O917 Ho897 2.346 . S
O917 C898 1.268 . S
O918 Ho896 2.378 . S
O918 C899 1.215 . S
O919 Ho896 2.524 . S
O919 C899 1.289 . S
O920 Ho896 2.381 . S
O920 C906 1.275 . S
O921 Ho896 2.669 . S
O921 Ho897 2.305 . S
O921 C906 1.256 . S
O922 Ho897 2.322 . S
O922 C907 1.259 . S
O923 Ho896 2.346 . S
O923 C907 1.268 . S
O924 Ho897 2.378 . S
O924 C908 1.215 . S
O925 Ho897 2.524 . S
O925 C908 1.289 . S
O926 Ho897 2.381 . S
O926 C915 1.275 . S
O927 Ho896 2.305 . S
O927 Ho897 2.669 . S
O927 C915 1.256 . S
H928 C901 0.930 . S
H929 C902 0.931 . S
H930 C904 0.934 . S
H931 C905 0.930 . S
H932 C910 0.930 . S
H933 C911 0.931 . S
H934 C913 0.934 . S
H935 C914 0.930 . S
Ho936 C939 2.811 . S
Ho936 O956 2.322 . S
Ho936 O958 2.378 . S
Ho936 O959 2.524 . S
Ho936 O960 2.381 1_554 S
Ho936 O961 2.669 . S
Ho936 O963 2.346 . S
Ho936 O967 2.305 . S
Ho937 C948 2.811 1_455 S
Ho937 O957 2.346 . S
Ho937 O961 2.305 . S
Ho937 O962 2.322 . S
Ho937 O964 2.374 . S
Ho937 O965 2.524 . S
Ho937 O966 2.381 . S
Ho937 O967 2.669 . S
C938 O956 1.259 . S
C938 O957 1.268 . S
C939 Ho936 2.811 . S
C939 C940 1.488 . S
C939 O958 1.215 . S
C939 O959 1.289 . S
C940 C939 1.488 . S
C940 C941 1.348 . S
C940 C945 1.413 . S
C941 C940 1.348 . S
C941 C942 1.442 . S
C941 H968 0.930 . S
C942 C941 1.442 . S
C942 C943 1.381 . S
C942 H969 0.931 . S
C943 C942 1.381 . S
C943 C944 1.282 1_554 S
C944 C943 1.282 1_556 S
C944 C945 1.396 1_556 S
C944 H970 0.983 . S
C945 C940 1.413 . S
C945 C944 1.396 1_554 S
C945 H971 0.930 1_554 S
C946 O960 1.275 1_554 S
C946 O961 1.256 . S
C947 O962 1.259 . S
C947 O963 1.268 . S
C948 Ho937 2.811 1_655 S
C948 C949 1.488 . S
C948 O964 1.217 1_655 S
C948 O965 1.289 1_655 S
C949 C948 1.488 . S
C949 C950 1.348 . S
C949 C954 1.413 . S
C950 C949 1.348 . S
C950 C951 1.442 . S
C950 H972 0.930 . S
C951 C950 1.442 . S
C951 C952 1.381 . S
C951 H973 0.931 . S
C952 C951 1.381 . S
C952 C953 1.321 . S
C953 C952 1.321 . S
C953 C954 1.403 . S
C953 H974 0.934 . S
C954 C949 1.413 . S
C954 C953 1.403 . S
C954 H975 0.930 . S
C955 O966 1.275 . S
C955 O967 1.256 . S
O956 Ho936 2.322 . S
O956 C938 1.259 . S
O957 Ho937 2.346 . S
O957 C938 1.268 . S
O958 Ho936 2.378 . S
O958 C939 1.215 . S
O959 Ho936 2.524 . S
O959 C939 1.289 . S
O960 Ho936 2.381 1_556 S
O960 C946 1.275 1_556 S
O961 Ho936 2.669 . S
O961 Ho937 2.305 . S
O961 C946 1.256 . S
O962 Ho937 2.322 . S
O962 C947 1.259 . S
O963 Ho936 2.346 . S
O963 C947 1.268 . S
O964 Ho937 2.374 . S
O964 C948 1.217 1_455 S
O965 Ho937 2.524 . S
O965 C948 1.289 1_455 S
O966 Ho937 2.381 . S
O966 C955 1.275 . S
O967 Ho936 2.305 . S
O967 Ho937 2.669 . S
O967 C955 1.256 . S
H968 C941 0.930 . S
H969 C942 0.931 . S
H970 C944 0.983 . S
H971 C945 0.930 1_556 S
H972 C950 0.930 . S
H973 C951 0.931 . S
H974 C953 0.934 . S
H975 C954 0.930 . S
C976 C977 1.349 . S
C976 C978 1.327 . S
C976 H1001 0.950 . S
C977 C976 1.349 . S
C977 C993 1.349 . S
C978 C976 1.327 . S
C978 C997 1.429 . S
C978 H1002 0.950 . S
C979 C996 1.574 . S
C979 C998 1.368 . S
C979 H1003 0.949 . S
H980 C984 0.949 . S
C981 C982 1.349 . S
C981 C983 1.327 . S
C981 H1004 0.950 . S
C982 C981 1.349 . S
C982 C994 1.349 1_554 S
C983 C981 1.327 . S
C983 C999 1.429 1_554 S
C983 H1005 0.950 . S
C984 H980 0.949 . S
C984 C992 1.574 . S
C984 C1000 1.368 . S
H985 C993 0.950 . S
H986 C991 0.950 . S
H987 C992 0.949 . S
H988 C994 0.950 . S
H989 C995 0.950 . S
H990 C996 0.969 . S
C991 H986 0.950 . S
C991 C993 1.327 . S
C991 C997 1.429 . S
C992 C984 1.574 . S
C992 H987 0.949 . S
C992 C998 1.368 . S
C993 C977 1.349 . S
C993 H985 0.950 . S
C993 C991 1.327 . S
C994 C982 1.349 1_556 S
C994 H988 0.950 . S
C994 C995 1.327 . S
C995 H989 0.950 . S
C995 C994 1.327 . S
C995 C999 1.429 . S
C996 C979 1.574 . S
C996 H990 0.969 . S
C996 C1000 1.368 . S
C997 C978 1.429 . S
C997 C991 1.429 . S
C997 C998 1.523 . S
C998 C979 1.368 . S
C998 C992 1.368 . S
C998 C997 1.523 . S
C999 C983 1.429 1_556 S
C999 C995 1.429 . S
C999 C1000 1.523 . S
C1000 C984 1.368 . S
C1000 C996 1.368 . S
C1000 C999 1.523 . S
H1001 C976 0.950 . S
H1002 C978 0.950 . S
H1003 C979 0.949 . S
H1004 C981 0.950 . S
H1005 C983 0.950 . S
C1006 C1007 1.349 . S
C1006 C1008 1.327 . S
C1006 H1031 0.950 . S
C1007 C1006 1.349 . S
C1007 C1023 1.349 . S
C1008 C1006 1.327 . S
C1008 C1027 1.429 . S
C1008 H1032 0.950 . S
C1009 C1026 1.574 . S
C1009 C1028 1.368 . S
C1009 H1033 0.949 . S
H1010 C1014 0.949 . S
C1011 C1012 1.349 . S
C1011 C1013 1.327 . S
C1011 H1034 0.950 . S
C1012 C1011 1.349 . S
C1012 C1024 1.349 . S
C1013 C1011 1.327 . S
C1013 C1029 1.429 . S
C1013 H1035 0.950 . S
C1014 H1010 0.949 . S
C1014 C1022 1.574 . S
C1014 C1030 1.368 . S
H1015 C1023 0.950 . S
H1016 C1021 0.950 . S
H1017 C1022 0.949 . S
H1018 C1024 0.950 . S
H1019 C1025 0.950 . S
H1020 C1026 0.949 . S
C1021 H1016 0.950 . S
C1021 C1023 1.327 . S
C1021 C1027 1.429 . S
C1022 C1014 1.574 . S
C1022 H1017 0.949 . S
C1022 C1028 1.368 . S
C1023 C1007 1.349 . S
C1023 H1015 0.950 . S
C1023 C1021 1.327 . S
C1024 C1012 1.349 . S
C1024 H1018 0.950 . S
C1024 C1025 1.327 . S
C1025 H1019 0.950 . S
C1025 C1024 1.327 . S
C1025 C1029 1.429 . S
C1026 C1009 1.574 . S
C1026 H1020 0.949 . S
C1026 C1030 1.368 . S
C1027 C1008 1.429 . S
C1027 C1021 1.429 . S
C1027 C1028 1.523 . S
C1028 C1009 1.368 . S
C1028 C1022 1.368 . S
C1028 C1027 1.523 . S
C1029 C1013 1.429 . S
C1029 C1025 1.429 . S
C1029 C1030 1.523 . S
C1030 C1014 1.368 . S
C1030 C1026 1.368 . S
C1030 C1029 1.523 . S
H1031 C1006 0.950 . S
H1032 C1008 0.950 . S
H1033 C1009 0.949 . S
H1034 C1011 0.950 . S
H1035 C1013 0.950 . S
C1036 C1037 1.349 . S
C1036 C1038 1.327 . S
C1036 H1061 0.950 . S
C1037 C1036 1.349 . S
C1037 C1053 1.349 . S
C1038 C1036 1.327 . S
C1038 C1057 1.429 . S
C1038 H1062 0.950 . S
C1039 C1056 1.574 . S
C1039 C1058 1.368 . S
C1039 H1063 0.949 . S
H1040 C1044 0.949 . S
C1041 C1042 1.349 . S
C1041 C1043 1.327 . S
C1041 H1064 0.950 . S
C1042 C1041 1.349 . S
C1042 C1054 1.349 . S
C1043 C1041 1.327 . S
C1043 C1059 1.429 . S
C1043 H1065 0.950 . S
C1044 H1040 0.949 . S
C1044 C1052 1.574 . S
C1044 C1060 1.368 . S
H1045 C1053 0.950 . S
H1046 C1051 0.950 . S
H1047 C1052 0.949 . S
H1048 C1054 0.950 . S
H1049 C1055 0.950 . S
H1050 C1056 0.949 . S
C1051 H1046 0.950 . S
C1051 C1053 1.327 . S
C1051 C1057 1.429 . S
C1052 C1044 1.574 . S
C1052 H1047 0.949 . S
C1052 C1058 1.368 . S
C1053 C1037 1.349 . S
C1053 H1045 0.950 . S
C1053 C1051 1.327 . S
C1054 C1042 1.349 . S
C1054 H1048 0.950 . S
C1054 C1055 1.327 . S
C1055 H1049 0.950 . S
C1055 C1054 1.327 . S
C1055 C1059 1.429 . S
C1056 C1039 1.574 . S
C1056 H1050 0.949 . S
C1056 C1060 1.368 . S
C1057 C1038 1.429 . S
C1057 C1051 1.429 . S
C1057 C1058 1.523 . S
C1058 C1039 1.368 . S
C1058 C1052 1.368 . S
C1058 C1057 1.523 . S
C1059 C1043 1.429 . S
C1059 C1055 1.429 . S
C1059 C1060 1.523 . S
C1060 C1044 1.368 . S
C1060 C1056 1.368 . S
C1060 C1059 1.523 . S
H1061 C1036 0.950 . S
H1062 C1038 0.950 . S
H1063 C1039 0.949 . S
H1064 C1041 0.950 . S
H1065 C1043 0.950 . S
C1066 C1067 1.349 . S
C1066 C1068 1.327 . S
C1066 H1091 0.950 . S
C1067 C1066 1.349 . S
C1067 C1083 1.349 . S
C1068 C1066 1.327 . S
C1068 C1087 1.429 . S
C1068 H1092 0.950 . S
C1069 C1086 1.574 . S
C1069 C1088 1.368 . S
C1069 H1093 0.949 . S
H1070 C1074 0.949 . S
C1071 C1072 1.349 . S
C1071 C1073 1.327 . S
C1071 H1094 0.950 . S
C1072 C1071 1.349 . S
C1072 C1084 1.349 . S
C1073 C1071 1.327 . S
C1073 C1089 1.429 . S
C1073 H1095 0.950 . S
C1074 H1070 0.949 . S
C1074 C1082 1.574 . S
C1074 C1090 1.368 . S
H1075 C1083 0.950 . S
H1076 C1081 0.950 . S
H1077 C1082 0.949 . S
H1078 C1084 0.950 . S
H1079 C1085 0.950 . S
H1080 C1086 0.949 . S
C1081 H1076 0.950 . S
C1081 C1083 1.327 . S
C1081 C1087 1.429 . S
C1082 C1074 1.574 . S
C1082 H1077 0.949 . S
C1082 C1088 1.368 . S
C1083 C1067 1.349 . S
C1083 H1075 0.950 . S
C1083 C1081 1.327 . S
C1084 C1072 1.349 . S
C1084 H1078 0.950 . S
C1084 C1085 1.327 . S
C1085 H1079 0.950 . S
C1085 C1084 1.327 . S
C1085 C1089 1.429 . S
C1086 C1069 1.574 . S
C1086 H1080 0.949 . S
C1086 C1090 1.368 . S
C1087 C1068 1.429 . S
C1087 C1081 1.429 . S
C1087 C1088 1.523 . S
C1088 C1069 1.368 . S
C1088 C1082 1.368 . S
C1088 C1087 1.523 . S
C1089 C1073 1.429 . S
C1089 C1085 1.429 . S
C1089 C1090 1.523 . S
C1090 C1074 1.368 . S
C1090 C1086 1.368 . S
C1090 C1089 1.523 . S
H1091 C1066 0.950 . S
H1092 C1068 0.950 . S
H1093 C1069 0.949 . S
H1094 C1071 0.950 . S
H1095 C1073 0.950 . S
C1096 C1097 1.349 . S
C1096 C1098 1.327 . S
C1096 H1121 0.950 1_455 S
C1097 C1096 1.349 . S
C1097 C1113 1.349 . S
C1098 C1096 1.327 . S
C1098 C1117 1.429 . S
C1098 H1122 0.948 1_455 S
C1099 C1116 1.574 . S
C1099 C1118 1.368 . S
C1099 H1123 0.949 . S
H1100 C1104 0.949 . S
C1101 C1102 1.349 . S
C1101 C1103 1.327 . S
C1101 H1124 0.950 . S
C1102 C1101 1.349 . S
C1102 C1114 1.349 . S
C1103 C1101 1.327 . S
C1103 C1119 1.429 . S
C1103 H1125 0.950 . S
C1104 H1100 0.949 . S
C1104 C1112 1.574 . S
C1104 C1120 1.368 . S
H1105 C1113 0.950 . S
H1106 C1111 0.950 . S
H1107 C1112 0.949 . S
H1108 C1114 0.950 . S
H1109 C1115 0.950 . S
H1110 C1116 0.949 . S
C1111 H1106 0.950 . S
C1111 C1113 1.327 . S
C1111 C1117 1.429 . S
C1112 C1104 1.574 . S
C1112 H1107 0.949 . S
C1112 C1118 1.368 . S
C1113 C1097 1.349 . S
C1113 H1105 0.950 . S
C1113 C1111 1.327 . S
C1114 C1102 1.349 . S
C1114 H1108 0.950 . S
C1114 C1115 1.327 . S
C1115 H1109 0.950 . S
C1115 C1114 1.327 . S
C1115 C1119 1.429 . S
C1116 C1099 1.574 . S
C1116 H1110 0.949 . S
C1116 C1120 1.368 . S
C1117 C1098 1.429 . S
C1117 C1111 1.429 . S
C1117 C1118 1.523 . S
C1118 C1099 1.368 . S
C1118 C1112 1.368 . S
C1118 C1117 1.523 . S
C1119 C1103 1.429 . S
C1119 C1115 1.429 . S
C1119 C1120 1.523 . S
C1120 C1104 1.368 . S
C1120 C1116 1.368 . S
C1120 C1119 1.523 . S
H1121 C1096 0.950 1_655 S
H1122 C1098 0.948 1_655 S
H1123 C1099 0.949 . S
H1124 C1101 0.950 . S
H1125 C1103 0.950 . S
C1126 C1127 1.349 . S
C1126 C1128 1.327 . S
C1126 H1151 0.950 . S
C1127 C1126 1.349 . S
C1127 C1143 1.349 . S
C1128 C1126 1.327 . S
C1128 C1147 1.429 . S
C1128 H1152 0.950 . S
C1129 C1146 1.574 . S
C1129 C1148 1.368 . S
C1129 H1153 0.949 . S
H1130 C1134 0.949 . S
C1131 C1132 1.349 . S
C1131 C1133 1.327 . S
C1131 H1154 0.950 . S
C1132 C1131 1.349 . S
C1132 C1144 1.349 . S
C1133 C1131 1.327 . S
C1133 C1149 1.429 . S
C1133 H1155 0.950 . S
C1134 H1130 0.949 . S
C1134 C1142 1.574 . S
C1134 C1150 1.368 . S
H1135 C1143 0.950 . S
H1136 C1141 0.950 . S
H1137 C1142 0.949 . S
H1138 C1144 0.950 . S
H1139 C1145 0.950 . S
H1140 C1146 0.949 . S
C1141 H1136 0.950 . S
C1141 C1143 1.327 . S
C1141 C1147 1.429 . S
C1142 C1134 1.574 . S
C1142 H1137 0.949 . S
C1142 C1148 1.368 . S
C1143 C1127 1.349 . S
C1143 H1135 0.950 . S
C1143 C1141 1.327 . S
C1144 C1132 1.349 . S
C1144 H1138 0.950 . S
C1144 C1145 1.327 . S
C1145 H1139 0.950 . S
C1145 C1144 1.327 . S
C1145 C1149 1.429 . S
C1146 C1129 1.574 . S
C1146 H1140 0.949 . S
C1146 C1150 1.368 . S
C1147 C1128 1.429 . S
C1147 C1141 1.429 . S
C1147 C1148 1.523 . S
C1148 C1129 1.368 . S
C1148 C1142 1.368 . S
C1148 C1147 1.523 . S
C1149 C1133 1.429 . S
C1149 C1145 1.429 . S
C1149 C1150 1.523 . S
C1150 C1134 1.368 . S
C1150 C1146 1.368 . S
C1150 C1149 1.523 . S
H1151 C1126 0.950 . S
H1152 C1128 0.950 . S
H1153 C1129 0.949 . S
H1154 C1131 0.950 . S
H1155 C1133 0.950 . S
C1156 C1157 1.349 . S
C1156 C1158 1.327 . S
C1156 H1181 0.950 . S
C1157 C1156 1.349 . S
C1157 C1173 1.349 . S
C1158 C1156 1.327 . S
C1158 C1177 1.429 . S
C1158 H1182 0.950 . S
C1159 C1176 1.574 . S
C1159 C1178 1.368 . S
C1159 H1183 0.949 . S
H1160 C1164 0.949 . S
C1161 C1162 1.349 . S
C1161 C1163 1.327 . S
C1161 H1184 0.950 . S
C1162 C1161 1.349 . S
C1162 C1174 1.349 . S
C1163 C1161 1.327 . S
C1163 C1179 1.429 . S
C1163 H1185 0.950 . S
C1164 H1160 0.949 . S
C1164 C1172 1.574 . S
C1164 C1180 1.368 . S
H1165 C1173 0.950 . S
H1166 C1171 0.950 . S
H1167 C1172 0.949 . S
H1168 C1174 0.950 . S
H1169 C1175 0.950 . S
H1170 C1176 0.949 . S
C1171 H1166 0.950 . S
C1171 C1173 1.327 . S
C1171 C1177 1.429 . S
C1172 C1164 1.574 . S
C1172 H1167 0.949 . S
C1172 C1178 1.368 . S
C1173 C1157 1.349 . S
C1173 H1165 0.950 . S
C1173 C1171 1.327 . S
C1174 C1162 1.349 . S
C1174 H1168 0.950 . S
C1174 C1175 1.327 . S
C1175 H1169 0.950 . S
C1175 C1174 1.327 . S
C1175 C1179 1.429 . S
C1176 C1159 1.574 . S
C1176 H1170 0.949 . S
C1176 C1180 1.368 . S
C1177 C1158 1.429 . S
C1177 C1171 1.429 . S
C1177 C1178 1.523 . S
C1178 C1159 1.368 . S
C1178 C1172 1.368 . S
C1178 C1177 1.523 . S
C1179 C1163 1.429 . S
C1179 C1175 1.429 . S
C1179 C1180 1.523 . S
C1180 C1164 1.368 . S
C1180 C1176 1.368 . S
C1180 C1179 1.523 . S
H1181 C1156 0.950 . S
H1182 C1158 0.950 . S
H1183 C1159 0.949 . S
H1184 C1161 0.950 . S
H1185 C1163 0.950 . S
C1186 C1187 1.349 . S
C1186 C1188 1.327 . S
C1186 H1211 0.950 . S
C1187 C1186 1.349 . S
C1187 C1203 1.349 . S
C1188 C1186 1.327 . S
C1188 C1207 1.429 . S
C1188 H1212 0.950 . S
C1189 C1206 1.574 . S
C1189 C1208 1.368 . S
C1189 H1213 0.949 . S
H1190 C1194 0.949 . S
C1191 C1192 1.349 . S
C1191 C1193 1.327 . S
C1191 H1214 0.950 . S
C1192 C1191 1.349 . S
C1192 C1204 1.349 . S
C1193 C1191 1.327 . S
C1193 C1209 1.429 . S
C1193 H1215 0.950 . S
C1194 H1190 0.949 . S
C1194 C1202 1.574 . S
C1194 C1210 1.368 . S
H1195 C1203 0.950 . S
H1196 C1201 0.950 . S
H1197 C1202 0.949 . S
H1198 C1204 0.950 . S
H1199 C1205 0.950 . S
H1200 C1206 0.949 . S
C1201 H1196 0.950 . S
C1201 C1203 1.327 . S
C1201 C1207 1.429 . S
C1202 C1194 1.574 . S
C1202 H1197 0.949 . S
C1202 C1208 1.368 . S
C1203 C1187 1.349 . S
C1203 H1195 0.950 . S
C1203 C1201 1.327 . S
C1204 C1192 1.349 . S
C1204 H1198 0.950 . S
C1204 C1205 1.327 . S
C1205 H1199 0.950 . S
C1205 C1204 1.327 . S
C1205 C1209 1.429 . S
C1206 C1189 1.574 . S
C1206 H1200 0.949 . S
C1206 C1210 1.368 . S
C1207 C1188 1.429 . S
C1207 C1201 1.429 . S
C1207 C1208 1.523 . S
C1208 C1189 1.368 . S
C1208 C1202 1.368 . S
C1208 C1207 1.523 . S
C1209 C1193 1.429 . S
C1209 C1205 1.429 . S
C1209 C1210 1.523 . S
C1210 C1194 1.368 . S
C1210 C1206 1.368 . S
C1210 C1209 1.523 . S
H1211 C1186 0.950 . S
H1212 C1188 0.950 . S
H1213 C1189 0.949 . S
H1214 C1191 0.950 . S
H1215 C1193 0.950 . S
C1216 C1217 1.349 . S
C1216 C1218 1.327 . S
C1216 H1241 0.950 . S
C1217 C1216 1.349 . S
C1217 C1233 1.349 . S
C1218 C1216 1.327 . S
C1218 C1237 1.429 . S
C1218 H1242 0.950 . S
C1219 C1236 1.574 1_655 S
C1219 C1238 1.368 . S
C1219 H1243 0.950 1_655 S
H1220 C1224 0.949 . S
C1221 C1222 1.349 . S
C1221 C1223 1.327 . S
C1221 H1244 0.950 . S
C1222 C1221 1.349 . S
C1222 C1234 1.349 . S
C1223 C1221 1.327 . S
C1223 C1239 1.429 . S
C1223 H1245 0.950 . S
C1224 H1220 0.949 . S
C1224 C1232 1.574 . S
C1224 C1240 1.401 . S
H1225 C1233 0.950 . S
H1226 C1231 0.950 . S
H1227 C1232 0.949 . S
H1228 C1234 0.950 . S
H1229 C1235 0.950 1_655 S
H1230 C1236 0.949 . S
C1231 H1226 0.950 . S
C1231 C1233 1.327 . S
C1231 C1237 1.429 . S
C1232 C1224 1.574 . S
C1232 H1227 0.949 . S
C1232 C1238 1.368 . S
C1233 C1217 1.349 . S
C1233 H1225 0.950 . S
C1233 C1231 1.327 . S
C1234 C1222 1.349 . S
C1234 H1228 0.950 . S
C1234 C1235 1.327 . S
C1235 H1229 0.950 1_455 S
C1235 C1234 1.327 . S
C1235 C1239 1.429 . S
C1236 C1219 1.574 1_455 S
C1236 H1230 0.949 . S
C1236 C1240 1.363 1_455 S
C1237 C1218 1.429 . S
C1237 C1231 1.429 . S
C1237 C1238 1.523 . S
C1238 C1219 1.368 . S
C1238 C1232 1.368 . S
C1238 C1237 1.523 . S
C1239 C1223 1.429 . S
C1239 C1235 1.429 . S
C1239 C1240 1.491 1_455 S
C1240 C1224 1.401 . S
C1240 C1236 1.363 1_655 S
C1240 C1239 1.491 1_655 S
H1241 C1216 0.950 . S
H1242 C1218 0.950 . S
H1243 C1219 0.950 1_455 S
H1244 C1221 0.950 . S
H1245 C1223 0.950 . S
C1246 C1247 1.349 . S
C1246 C1248 1.327 . S
C1246 H1271 0.950 . S
C1247 C1246 1.349 . S
C1247 C1263 1.349 . S
C1248 C1246 1.327 . S
C1248 C1267 1.429 . S
C1248 H1272 0.950 . S
C1249 C1266 1.574 . S
C1249 C1268 1.368 . S
C1249 H1273 0.949 . S
H1250 C1254 0.949 . S
C1251 C1252 1.349 . S
C1251 C1253 1.327 . S
C1251 H1274 0.950 . S
C1252 C1251 1.349 . S
C1252 C1264 1.349 . S
C1253 C1251 1.327 . S
C1253 C1269 1.429 . S
C1253 H1275 0.950 . S
C1254 H1250 0.949 . S
C1254 C1262 1.574 . S
C1254 C1270 1.368 . S
H1255 C1263 0.950 . S
H1256 C1261 0.950 . S
H1257 C1262 0.949 . S
H1258 C1264 0.950 . S
H1259 C1265 0.950 . S
H1260 C1266 0.949 . S
C1261 H1256 0.950 . S
C1261 C1263 1.327 . S
C1261 C1267 1.429 . S
C1262 C1254 1.574 . S
C1262 H1257 0.949 . S
C1262 C1268 1.368 . S
C1263 C1247 1.349 . S
C1263 H1255 0.950 . S
C1263 C1261 1.327 . S
C1264 C1252 1.349 . S
C1264 H1258 0.950 . S
C1264 C1265 1.327 . S
C1265 H1259 0.950 . S
C1265 C1264 1.327 . S
C1265 C1269 1.429 . S
C1266 C1249 1.574 . S
C1266 H1260 0.949 . S
C1266 C1270 1.368 . S
C1267 C1248 1.429 . S
C1267 C1261 1.429 . S
C1267 C1268 1.523 . S
C1268 C1249 1.368 . S
C1268 C1262 1.368 . S
C1268 C1267 1.523 . S
C1269 C1253 1.429 . S
C1269 C1265 1.429 . S
C1269 C1270 1.523 . S
C1270 C1254 1.368 . S
C1270 C1266 1.368 . S
C1270 C1269 1.523 . S
H1271 C1246 0.950 . S
H1272 C1248 0.950 . S
H1273 C1249 0.949 . S
H1274 C1251 0.950 . S
H1275 C1253 0.950 . S
C1276 C1277 1.349 . S
C1276 C1278 1.327 . S
C1276 H1301 0.950 . S
C1277 C1276 1.349 . S
C1277 C1293 1.349 . S
C1278 C1276 1.327 . S
C1278 C1297 1.429 . S
C1278 H1302 0.950 . S
C1279 C1296 1.574 . S
C1279 C1298 1.368 . S
C1279 H1303 0.949 . S
H1280 C1284 0.949 . S
C1281 C1282 1.349 . S
C1281 C1283 1.327 . S
C1281 H1304 0.950 . S
C1282 C1281 1.349 . S
C1282 C1294 1.349 . S
C1283 C1281 1.327 . S
C1283 C1299 1.429 . S
C1283 H1305 0.950 . S
C1284 H1280 0.949 . S
C1284 C1292 1.574 . S
C1284 C1300 1.368 . S
H1285 C1293 0.950 . S
H1286 C1291 0.950 . S
H1287 C1292 0.949 . S
H1288 C1294 0.950 . S
H1289 C1295 0.950 . S
H1290 C1296 0.949 . S
C1291 H1286 0.950 . S
C1291 C1293 1.327 . S
C1291 C1297 1.429 . S
C1292 C1284 1.574 . S
C1292 H1287 0.949 . S
C1292 C1298 1.368 . S
C1293 C1277 1.349 . S
C1293 H1285 0.950 . S
C1293 C1291 1.327 . S
C1294 C1282 1.349 . S
C1294 H1288 0.950 . S
C1294 C1295 1.327 . S
C1295 H1289 0.950 . S
C1295 C1294 1.327 . S
C1295 C1299 1.429 . S
C1296 C1279 1.574 . S
C1296 H1290 0.949 . S
C1296 C1300 1.368 . S
C1297 C1278 1.429 . S
C1297 C1291 1.429 . S
C1297 C1298 1.523 . S
C1298 C1279 1.368 . S
C1298 C1292 1.368 . S
C1298 C1297 1.523 . S
C1299 C1283 1.429 . S
C1299 C1295 1.429 . S
C1299 C1300 1.523 . S
C1300 C1284 1.368 . S
C1300 C1296 1.368 . S
C1300 C1299 1.523 . S
H1301 C1276 0.950 . S
H1302 C1278 0.950 . S
H1303 C1279 0.949 . S
H1304 C1281 0.950 . S
H1305 C1283 0.950 . S
C1306 C1307 1.349 . S
C1306 C1308 1.327 . S
C1306 H1331 0.950 . S
C1307 C1306 1.349 . S
C1307 C1323 1.349 . S
C1308 C1306 1.327 . S
C1308 C1327 1.429 . S
C1308 H1332 0.950 . S
C1309 C1326 1.574 . S
C1309 C1328 1.368 . S
C1309 H1333 0.949 . S
H1310 C1314 0.949 . S
C1311 C1312 1.349 . S
C1311 C1313 1.327 . S
C1311 H1334 0.950 . S
C1312 C1311 1.349 . S
C1312 C1324 1.349 . S
C1313 C1311 1.327 . S
C1313 C1329 1.429 . S
C1313 H1335 0.950 . S
C1314 H1310 0.949 . S
C1314 C1322 1.574 . S
C1314 C1330 1.368 . S
H1315 C1323 0.950 . S
H1316 C1321 0.950 . S
H1317 C1322 0.949 . S
H1318 C1324 0.950 . S
H1319 C1325 0.950 . S
H1320 C1326 0.949 . S
C1321 H1316 0.950 . S
C1321 C1323 1.327 . S
C1321 C1327 1.429 . S
C1322 C1314 1.574 . S
C1322 H1317 0.949 . S
C1322 C1328 1.368 . S
C1323 C1307 1.349 . S
C1323 H1315 0.950 . S
C1323 C1321 1.327 . S
C1324 C1312 1.349 . S
C1324 H1318 0.950 . S
C1324 C1325 1.327 . S
C1325 H1319 0.950 . S
C1325 C1324 1.327 . S
C1325 C1329 1.429 . S
C1326 C1309 1.574 . S
C1326 H1320 0.949 . S
C1326 C1330 1.368 . S
C1327 C1308 1.429 . S
C1327 C1321 1.429 . S
C1327 C1328 1.523 . S
C1328 C1309 1.368 . S
C1328 C1322 1.368 . S
C1328 C1327 1.523 . S
C1329 C1313 1.429 . S
C1329 C1325 1.429 . S
C1329 C1330 1.523 . S
C1330 C1314 1.368 . S
C1330 C1326 1.368 . S
C1330 C1329 1.523 . S
H1331 C1306 0.950 . S
H1332 C1308 0.950 . S
H1333 C1309 0.949 . S
H1334 C1311 0.950 . S
H1335 C1313 0.950 . S
C1336 C1337 1.349 . S
C1336 C1338 1.327 . S
C1336 H1361 0.950 . S
C1337 C1336 1.349 . S
C1337 C1353 1.349 . S
C1338 C1336 1.327 . S
C1338 C1357 1.429 . S
C1338 H1362 0.950 . S
C1339 C1356 1.574 1_655 S
C1339 C1358 1.368 . S
C1339 H1363 0.949 . S
H1340 C1344 0.949 . S
C1341 C1342 1.349 . S
C1341 C1343 1.327 . S
C1341 H1364 0.950 . S
C1342 C1341 1.349 . S
C1342 C1354 1.349 . S
C1343 C1341 1.327 . S
C1343 C1359 1.429 . S
C1343 H1365 0.950 . S
C1344 H1340 0.949 . S
C1344 C1352 1.574 1_455 S
C1344 C1360 1.368 . S
H1345 C1353 0.950 . S
H1346 C1351 0.950 . S
H1347 C1352 0.949 . S
H1348 C1354 0.950 . S
H1349 C1355 0.950 . S
H1350 C1356 0.949 . S
C1351 H1346 0.950 . S
C1351 C1353 1.327 . S
C1351 C1357 1.429 . S
C1352 C1344 1.574 1_655 S
C1352 H1347 0.949 . S
C1352 C1358 1.368 . S
C1353 C1337 1.349 . S
C1353 H1345 0.950 . S
C1353 C1351 1.327 . S
C1354 C1342 1.349 . S
C1354 H1348 0.950 . S
C1354 C1355 1.327 . S
C1355 H1349 0.950 . S
C1355 C1354 1.327 . S
C1355 C1359 1.429 . S
C1356 C1339 1.574 1_455 S
C1356 H1350 0.949 . S
C1356 C1360 1.368 . S
C1357 C1338 1.429 . S
C1357 C1351 1.429 . S
C1357 C1358 1.523 . S
C1358 C1339 1.368 . S
C1358 C1352 1.368 . S
C1358 C1357 1.523 . S
C1359 C1343 1.429 . S
C1359 C1355 1.429 . S
C1359 C1360 1.523 . S
C1360 C1344 1.368 . S
C1360 C1356 1.368 . S
C1360 C1359 1.523 . S
H1361 C1336 0.950 . S
H1362 C1338 0.950 . S
H1363 C1339 0.949 . S
H1364 C1341 0.950 . S
H1365 C1343 0.950 . S
C1366 C1367 1.349 . S
C1366 C1368 1.327 . S
C1366 H1391 0.950 . S
C1367 C1366 1.349 . S
C1367 C1383 1.349 . S
C1368 C1366 1.327 . S
C1368 C1387 1.429 . S
C1368 H1392 0.950 . S
C1369 C1386 1.574 . S
C1369 C1388 1.368 . S
C1369 H1393 0.949 . S
H1370 C1374 0.949 . S
C1371 C1372 1.349 . S
C1371 C1373 1.327 . S
C1371 H1394 0.950 . S
C1372 C1371 1.349 . S
C1372 C1384 1.349 . S
C1373 C1371 1.327 . S
C1373 C1389 1.429 . S
C1373 H1395 0.950 . S
C1374 H1370 0.949 . S
C1374 C1382 1.574 . S
C1374 C1390 1.368 . S
H1375 C1383 0.950 . S
H1376 C1381 0.950 . S
H1377 C1382 0.949 . S
H1378 C1384 0.950 . S
H1379 C1385 0.950 . S
H1380 C1386 0.949 . S
C1381 H1376 0.950 . S
C1381 C1383 1.327 . S
C1381 C1387 1.429 . S
C1382 C1374 1.574 . S
C1382 H1377 0.949 . S
C1382 C1388 1.368 . S
C1383 C1367 1.349 . S
C1383 H1375 0.950 . S
C1383 C1381 1.327 . S
C1384 C1372 1.349 . S
C1384 H1378 0.950 . S
C1384 C1385 1.327 . S
C1385 H1379 0.950 . S
C1385 C1384 1.327 . S
C1385 C1389 1.429 . S
C1386 C1369 1.574 . S
C1386 H1380 0.949 . S
C1386 C1390 1.368 . S
C1387 C1368 1.429 . S
C1387 C1381 1.429 . S
C1387 C1388 1.523 . S
C1388 C1369 1.368 . S
C1388 C1382 1.368 . S
C1388 C1387 1.523 . S
C1389 C1373 1.429 . S
C1389 C1385 1.429 . S
C1389 C1390 1.523 . S
C1390 C1374 1.368 . S
C1390 C1386 1.368 . S
C1390 C1389 1.523 . S
H1391 C1366 0.950 . S
H1392 C1368 0.950 . S
H1393 C1369 0.949 . S
H1394 C1371 0.950 . S
H1395 C1373 0.950 . S
C1396 C1397 1.349 . S
C1396 C1398 1.327 . S
C1396 H1421 0.950 . S
C1397 C1396 1.349 . S
C1397 C1413 1.349 . S
C1398 C1396 1.327 . S
C1398 C1417 1.429 . S
C1398 H1422 0.950 . S
C1399 C1416 1.574 . S
C1399 C1418 1.368 . S
C1399 H1423 0.949 . S
H1400 C1404 0.949 . S
C1401 C1402 1.349 . S
C1401 C1403 1.327 . S
C1401 H1424 0.950 . S
C1402 C1401 1.349 . S
C1402 C1414 1.349 . S
C1403 C1401 1.327 . S
C1403 C1419 1.429 . S
C1403 H1425 0.950 . S
C1404 H1400 0.949 . S
C1404 C1412 1.574 . S
C1404 C1420 1.368 . S
H1405 C1413 0.950 . S
H1406 C1411 0.950 . S
H1407 C1412 0.949 . S
H1408 C1414 0.950 . S
H1409 C1415 0.950 . S
H1410 C1416 0.949 . S
C1411 H1406 0.950 . S
C1411 C1413 1.327 . S
C1411 C1417 1.429 . S
C1412 C1404 1.574 . S
C1412 H1407 0.949 . S
C1412 C1418 1.368 . S
C1413 C1397 1.349 . S
C1413 H1405 0.950 . S
C1413 C1411 1.327 . S
C1414 C1402 1.349 . S
C1414 H1408 0.950 . S
C1414 C1415 1.327 . S
C1415 H1409 0.950 . S
C1415 C1414 1.327 . S
C1415 C1419 1.429 . S
C1416 C1399 1.574 . S
C1416 H1410 0.949 . S
C1416 C1420 1.368 . S
C1417 C1398 1.429 . S
C1417 C1411 1.429 . S
C1417 C1418 1.523 . S
C1418 C1399 1.368 . S
C1418 C1412 1.368 . S
C1418 C1417 1.523 . S
C1419 C1403 1.429 . S
C1419 C1415 1.429 . S
C1419 C1420 1.523 . S
C1420 C1404 1.368 . S
C1420 C1416 1.368 . S
C1420 C1419 1.523 . S
H1421 C1396 0.950 . S
H1422 C1398 0.950 . S
H1423 C1399 0.949 . S
H1424 C1401 0.950 . S
H1425 C1403 0.950 . S
C1426 C1427 1.349 . S
C1426 C1428 1.327 . S
C1426 H1451 0.950 . S
C1427 C1426 1.349 . S
C1427 C1443 1.349 . S
C1428 C1426 1.327 . S
C1428 C1447 1.429 . S
C1428 H1452 0.950 . S
C1429 C1446 1.574 . S
C1429 C1448 1.368 . S
C1429 H1453 0.949 . S
H1430 C1434 0.949 . S
C1431 C1432 1.349 . S
C1431 C1433 1.327 . S
C1431 H1454 0.950 . S
C1432 C1431 1.349 . S
C1432 C1444 1.349 . S
C1433 C1431 1.327 . S
C1433 C1449 1.429 . S
C1433 H1455 0.950 . S
C1434 H1430 0.949 . S
C1434 C1442 1.574 . S
C1434 C1450 1.368 . S
H1435 C1443 0.950 . S
H1436 C1441 0.950 . S
H1437 C1442 0.949 . S
H1438 C1444 0.950 . S
H1439 C1445 0.950 . S
H1440 C1446 0.949 . S
C1441 H1436 0.950 . S
C1441 C1443 1.327 . S
C1441 C1447 1.429 . S
C1442 C1434 1.574 . S
C1442 H1437 0.949 . S
C1442 C1448 1.368 . S
C1443 C1427 1.349 . S
C1443 H1435 0.950 . S
C1443 C1441 1.327 . S
C1444 C1432 1.349 . S
C1444 H1438 0.950 . S
C1444 C1445 1.327 . S
C1445 H1439 0.950 . S
C1445 C1444 1.327 . S
C1445 C1449 1.429 . S
C1446 C1429 1.574 . S
C1446 H1440 0.949 . S
C1446 C1450 1.368 . S
C1447 C1428 1.429 . S
C1447 C1441 1.429 . S
C1447 C1448 1.523 . S
C1448 C1429 1.368 . S
C1448 C1442 1.368 . S
C1448 C1447 1.523 . S
C1449 C1433 1.429 . S
C1449 C1445 1.429 . S
C1449 C1450 1.523 . S
C1450 C1434 1.368 . S
C1450 C1446 1.368 . S
C1450 C1449 1.523 . S
H1451 C1426 0.950 . S
H1452 C1428 0.950 . S
H1453 C1429 0.949 . S
H1454 C1431 0.950 . S
H1455 C1433 0.950 . S
C1456 C1457 1.349 . S
C1456 C1458 1.327 . S
C1456 H1481 0.950 . S
C1457 C1456 1.349 . S
C1457 C1473 1.349 1_554 S
C1458 C1456 1.327 . S
C1458 C1477 1.429 . S
C1458 H1482 0.950 . S
C1459 C1476 1.574 . S
C1459 C1478 1.368 . S
C1459 H1483 0.949 1_554 S
H1460 C1464 0.949 . S
C1461 C1462 1.349 . S
C1461 C1463 1.327 1_545 S
C1461 H1484 0.950 . S
C1462 C1461 1.349 . S
C1462 C1474 1.349 . S
C1463 C1461 1.327 1_565 S
C1463 C1479 1.429 . S
C1463 H1485 0.950 . S
C1464 H1460 0.949 . S
C1464 C1472 1.574 . S
C1464 C1480 1.368 . S
H1465 C1473 0.950 . S
H1466 C1471 0.950 1_556 S
H1467 C1472 0.949 . S
H1468 C1474 0.950 . S
H1469 C1475 0.950 . S
H1470 C1476 0.949 . S
C1471 H1466 0.950 1_554 S
C1471 C1473 1.327 1_554 S
C1471 C1477 1.429 . S
C1472 C1464 1.574 . S
C1472 H1467 0.949 . S
C1472 C1478 1.368 . S
C1473 C1457 1.349 1_556 S
C1473 H1465 0.950 . S
C1473 C1471 1.327 1_556 S
C1474 C1462 1.349 . S
C1474 H1468 0.950 . S
C1474 C1475 1.327 1_545 S
C1475 H1469 0.950 . S
C1475 C1474 1.327 1_565 S
C1475 C1479 1.429 . S
C1476 C1459 1.574 . S
C1476 H1470 0.949 . S
C1476 C1480 1.368 . S
C1477 C1458 1.429 . S
C1477 C1471 1.429 . S
C1477 C1478 1.523 . S
C1478 C1459 1.368 . S
C1478 C1472 1.368 . S
C1478 C1477 1.523 . S
C1479 C1463 1.429 . S
C1479 C1475 1.429 . S
C1479 C1480 1.523 . S
C1480 C1464 1.368 . S
C1480 C1476 1.368 . S
C1480 C1479 1.523 . S
H1481 C1456 0.950 . S
H1482 C1458 0.950 . S
H1483 C1459 0.949 1_556 S
H1484 C1461 0.950 . S
H1485 C1463 0.950 . S
C1486 C1487 1.349 1_556 S
C1486 C1488 1.327 . S
C1486 H1511 0.950 . S
C1487 C1486 1.349 1_554 S
C1487 C1503 1.349 . S
C1488 C1486 1.327 . S
C1488 C1507 1.429 1_556 S
C1488 H1512 0.950 . S
C1489 C1506 1.574 . S
C1489 C1508 1.368 . S
C1489 H1513 0.949 . S
H1490 C1494 0.949 . S
C1491 C1492 1.349 . S
C1491 C1493 1.327 . S
C1491 H1514 0.950 . S
C1492 C1491 1.349 . S
C1492 C1504 1.349 1_554 S
C1493 C1491 1.327 . S
C1493 C1509 1.429 . S
C1493 H1515 0.950 . S
C1494 H1490 0.949 . S
C1494 C1502 1.574 . S
C1494 C1510 1.368 1_556 S
H1495 C1503 0.950 . S
H1496 C1501 0.950 . S
H1497 C1502 0.949 . S
H1498 C1504 0.950 . S
H1499 C1505 0.950 . S
H1500 C1506 0.949 . S
C1501 H1496 0.950 . S
C1501 C1503 1.327 . S
C1501 C1507 1.429 . S
C1502 C1494 1.574 . S
C1502 H1497 0.949 . S
C1502 C1508 1.368 1_556 S
C1503 C1487 1.349 . S
C1503 H1495 0.950 . S
C1503 C1501 1.327 . S
C1504 C1492 1.349 1_556 S
C1504 H1498 0.950 . S
C1504 C1505 1.327 . S
C1505 H1499 0.950 . S
C1505 C1504 1.327 . S
C1505 C1509 1.429 1_556 S
C1506 C1489 1.574 . S
C1506 H1500 0.949 . S
C1506 C1510 1.368 . S
C1507 C1488 1.429 1_554 S
C1507 C1501 1.429 . S
C1507 C1508 1.523 . S
C1508 C1489 1.368 . S
C1508 C1502 1.368 1_554 S
C1508 C1507 1.523 . S
C1509 C1493 1.429 . S
C1509 C1505 1.429 1_554 S
C1509 C1510 1.523 . S
C1510 C1494 1.368 1_554 S
C1510 C1506 1.368 . S
C1510 C1509 1.523 . S
H1511 C1486 0.950 . S
H1512 C1488 0.950 . S
H1513 C1489 0.949 . S
H1514 C1491 0.950 . S
H1515 C1493 0.950 . S
C1516 C1517 1.349 . S
C1516 C1518 1.327 . S
C1516 H1541 0.950 . S
C1517 C1516 1.349 . S
C1517 C1533 1.349 . S
C1518 C1516 1.327 . S
C1518 C1537 1.429 . S
C1518 H1542 0.950 . S
C1519 C1536 1.574 . S
C1519 C1538 1.368 . S
C1519 H1543 0.949 . S
H1520 C1524 0.949 . S
C1521 C1522 1.349 . S
C1521 C1523 1.327 . S
C1521 H1544 0.950 . S
C1522 C1521 1.349 . S
C1522 C1534 1.349 . S
C1523 C1521 1.327 . S
C1523 C1539 1.429 . S
C1523 H1545 0.950 . S
C1524 H1520 0.949 . S
C1524 C1532 1.574 . S
C1524 C1540 1.368 . S
H1525 C1533 0.950 . S
H1526 C1531 0.950 . S
H1527 C1532 0.949 . S
H1528 C1534 0.950 . S
H1529 C1535 0.950 . S
H1530 C1536 0.949 . S
C1531 H1526 0.950 . S
C1531 C1533 1.327 . S
C1531 C1537 1.429 . S
C1532 C1524 1.574 . S
C1532 H1527 0.949 . S
C1532 C1538 1.368 . S
C1533 C1517 1.349 . S
C1533 H1525 0.950 . S
C1533 C1531 1.327 . S
C1534 C1522 1.349 . S
C1534 H1528 0.950 . S
C1534 C1535 1.327 . S
C1535 H1529 0.950 . S
C1535 C1534 1.327 . S
C1535 C1539 1.429 . S
C1536 C1519 1.574 . S
C1536 H1530 0.949 . S
C1536 C1540 1.368 . S
C1537 C1518 1.429 . S
C1537 C1531 1.429 . S
C1537 C1538 1.523 . S
C1538 C1519 1.368 . S
C1538 C1532 1.368 . S
C1538 C1537 1.523 . S
C1539 C1523 1.429 . S
C1539 C1535 1.429 . S
C1539 C1540 1.523 . S
C1540 C1524 1.368 . S
C1540 C1536 1.368 . S
C1540 C1539 1.523 . S
H1541 C1516 0.950 . S
H1542 C1518 0.950 . S
H1543 C1519 0.949 . S
H1544 C1521 0.950 . S
H1545 C1523 0.950 . S
C1546 C1547 1.349 . S
C1546 C1548 1.327 . S
C1546 H1571 0.950 . S
C1547 C1546 1.349 . S
C1547 C1563 1.349 . S
C1548 C1546 1.327 . S
C1548 C1567 1.429 . S
C1548 H1572 0.950 . S
C1549 C1566 1.574 . S
C1549 C1568 1.368 . S
C1549 H1573 0.949 . S
H1550 C1554 0.949 . S
C1551 C1552 1.349 . S
C1551 C1553 1.327 . S
C1551 H1574 0.948 1_655 S
C1552 C1551 1.349 . S
C1552 C1564 1.349 . S
C1553 C1551 1.327 . S
C1553 C1569 1.429 . S
C1553 H1575 0.950 . S
C1554 H1550 0.949 . S
C1554 C1562 1.574 . S
C1554 C1570 1.368 . S
H1555 C1563 0.950 . S
H1556 C1561 0.950 . S
H1557 C1562 0.949 . S
H1558 C1564 0.950 . S
H1559 C1565 0.950 . S
H1560 C1566 0.949 . S
C1561 H1556 0.950 . S
C1561 C1563 1.327 . S
C1561 C1567 1.429 . S
C1562 C1554 1.574 . S
C1562 H1557 0.949 . S
C1562 C1568 1.368 . S
C1563 C1547 1.349 . S
C1563 H1555 0.950 . S
C1563 C1561 1.327 . S
C1564 C1552 1.349 . S
C1564 H1558 0.950 . S
C1564 C1565 1.327 . S
C1565 H1559 0.950 . S
C1565 C1564 1.327 . S
C1565 C1569 1.429 . S
C1566 C1549 1.574 . S
C1566 H1560 0.949 . S
C1566 C1570 1.368 . S
C1567 C1548 1.429 . S
C1567 C1561 1.429 . S
C1567 C1568 1.523 . S
C1568 C1549 1.368 . S
C1568 C1562 1.368 . S
C1568 C1567 1.523 . S
C1569 C1553 1.429 . S
C1569 C1565 1.429 . S
C1569 C1570 1.523 . S
C1570 C1554 1.368 . S
C1570 C1566 1.368 . S
C1570 C1569 1.523 . S
H1571 C1546 0.950 . S
H1572 C1548 0.950 . S
H1573 C1549 0.949 . S
H1574 C1551 0.948 1_455 S
H1575 C1553 0.950 . S
C1576 C1577 1.349 . S
C1576 C1578 1.327 . S
C1576 H1601 0.950 . S
C1577 C1576 1.349 . S
C1577 C1593 1.349 . S
C1578 C1576 1.327 . S
C1578 C1597 1.429 . S
C1578 H1602 0.950 . S
C1579 C1596 1.574 . S
C1579 C1598 1.368 . S
C1579 H1603 0.949 . S
H1580 C1584 0.949 . S
C1581 C1582 1.349 . S
C1581 C1583 1.327 . S
C1581 H1604 0.950 . S
C1582 C1581 1.349 . S
C1582 C1594 1.349 . S
C1583 C1581 1.327 . S
C1583 C1599 1.429 . S
C1583 H1605 0.950 . S
C1584 H1580 0.949 . S
C1584 C1592 1.574 . S
C1584 C1600 1.368 . S
H1585 C1593 0.950 . S
H1586 C1591 0.950 . S
H1587 C1592 0.949 . S
H1588 C1594 0.950 . S
H1589 C1595 0.950 . S
H1590 C1596 0.949 . S
C1591 H1586 0.950 . S
C1591 C1593 1.327 . S
C1591 C1597 1.429 . S
C1592 C1584 1.574 . S
C1592 H1587 0.949 . S
C1592 C1598 1.368 . S
C1593 C1577 1.349 . S
C1593 H1585 0.950 . S
C1593 C1591 1.327 . S
C1594 C1582 1.349 . S
C1594 H1588 0.950 . S
C1594 C1595 1.327 . S
C1595 H1589 0.950 . S
C1595 C1594 1.327 . S
C1595 C1599 1.429 . S
C1596 C1579 1.574 . S
C1596 H1590 0.949 . S
C1596 C1600 1.368 . S
C1597 C1578 1.429 . S
C1597 C1591 1.429 . S
C1597 C1598 1.523 . S
C1598 C1579 1.368 . S
C1598 C1592 1.368 . S
C1598 C1597 1.523 . S
C1599 C1583 1.429 . S
C1599 C1595 1.429 . S
C1599 C1600 1.523 . S
C1600 C1584 1.368 . S
C1600 C1596 1.368 . S
C1600 C1599 1.523 . S
H1601 C1576 0.950 . S
H1602 C1578 0.950 . S
H1603 C1579 0.949 . S
H1604 C1581 0.950 . S
H1605 C1583 0.950 . S
C1606 C1607 1.349 . S
C1606 C1608 1.327 . S
C1606 H1631 0.950 . S
C1607 C1606 1.349 . S
C1607 C1623 1.349 . S
C1608 C1606 1.327 . S
C1608 C1627 1.429 . S
C1608 H1632 0.950 . S
C1609 C1626 1.574 . S
C1609 C1628 1.368 . S
C1609 H1633 0.949 . S
H1610 C1614 0.949 . S
C1611 C1612 1.349 . S
C1611 C1613 1.327 . S
C1611 H1634 0.950 . S
C1612 C1611 1.349 . S
C1612 C1624 1.349 . S
C1613 C1611 1.327 . S
C1613 C1629 1.429 . S
C1613 H1635 0.950 . S
C1614 H1610 0.949 . S
C1614 C1622 1.574 . S
C1614 C1630 1.368 . S
H1615 C1623 0.950 . S
H1616 C1621 0.950 . S
H1617 C1622 0.949 . S
H1618 C1624 0.950 . S
H1619 C1625 0.950 . S
H1620 C1626 0.949 . S
C1621 H1616 0.950 . S
C1621 C1623 1.327 . S
C1621 C1627 1.429 . S
C1622 C1614 1.574 . S
C1622 H1617 0.949 . S
C1622 C1628 1.368 . S
C1623 C1607 1.349 . S
C1623 H1615 0.950 . S
C1623 C1621 1.327 . S
C1624 C1612 1.349 . S
C1624 H1618 0.950 . S
C1624 C1625 1.327 . S
C1625 H1619 0.950 . S
C1625 C1624 1.327 . S
C1625 C1629 1.429 . S
C1626 C1609 1.574 . S
C1626 H1620 0.949 . S
C1626 C1630 1.368 . S
C1627 C1608 1.429 . S
C1627 C1621 1.429 . S
C1627 C1628 1.523 . S
C1628 C1609 1.368 . S
C1628 C1622 1.368 . S
C1628 C1627 1.523 . S
C1629 C1613 1.429 . S
C1629 C1625 1.429 . S
C1629 C1630 1.523 . S
C1630 C1614 1.368 . S
C1630 C1626 1.368 . S
C1630 C1629 1.523 . S
H1631 C1606 0.950 . S
H1632 C1608 0.950 . S
H1633 C1609 0.949 . S
H1634 C1611 0.950 . S
H1635 C1613 0.950 . S
C1636 C1637 1.349 . S
C1636 C1638 1.327 . S
C1636 H1661 0.950 . S
C1637 C1636 1.349 . S
C1637 C1653 1.349 . S
C1638 C1636 1.327 . S
C1638 C1657 1.429 . S
C1638 H1662 0.950 . S
C1639 C1656 1.574 . S
C1639 C1658 1.368 . S
C1639 H1663 0.949 . S
H1640 C1644 0.949 . S
C1641 C1642 1.349 . S
C1641 C1643 1.327 . S
C1641 H1664 0.950 . S
C1642 C1641 1.349 . S
C1642 C1654 1.349 . S
C1643 C1641 1.327 . S
C1643 C1659 1.429 . S
C1643 H1665 0.950 . S
C1644 H1640 0.949 . S
C1644 C1652 1.574 . S
C1644 C1660 1.368 . S
H1645 C1653 0.950 . S
H1646 C1651 0.950 . S
H1647 C1652 0.949 . S
H1648 C1654 0.950 . S
H1649 C1655 0.950 . S
H1650 C1656 0.949 . S
C1651 H1646 0.950 . S
C1651 C1653 1.327 . S
C1651 C1657 1.429 . S
C1652 C1644 1.574 . S
C1652 H1647 0.949 . S
C1652 C1658 1.368 . S
C1653 C1637 1.349 . S
C1653 H1645 0.950 . S
C1653 C1651 1.327 . S
C1654 C1642 1.349 . S
C1654 H1648 0.950 . S
C1654 C1655 1.327 . S
C1655 H1649 0.950 . S
C1655 C1654 1.327 . S
C1655 C1659 1.429 . S
C1656 C1639 1.574 . S
C1656 H1650 0.949 . S
C1656 C1660 1.368 . S
C1657 C1638 1.429 . S
C1657 C1651 1.429 . S
C1657 C1658 1.523 . S
C1658 C1639 1.368 . S
C1658 C1652 1.368 . S
C1658 C1657 1.523 . S
C1659 C1643 1.429 . S
C1659 C1655 1.429 . S
C1659 C1660 1.523 . S
C1660 C1644 1.368 . S
C1660 C1656 1.368 . S
C1660 C1659 1.523 . S
H1661 C1636 0.950 . S
H1662 C1638 0.950 . S
H1663 C1639 0.949 . S
H1664 C1641 0.950 . S
H1665 C1643 0.950 . S
C1666 C1667 1.349 . S
C1666 C1668 1.327 . S
C1666 H1691 0.950 . S
C1667 C1666 1.349 . S
C1667 C1683 1.349 . S
C1668 C1666 1.327 . S
C1668 C1687 1.429 . S
C1668 H1692 0.950 . S
C1669 C1686 1.574 . S
C1669 C1688 1.368 . S
C1669 H1693 0.949 . S
H1670 C1674 0.949 . S
C1671 C1672 1.349 . S
C1671 C1673 1.327 . S
C1671 H1694 0.950 . S
C1672 C1671 1.349 . S
C1672 C1684 1.349 . S
C1673 C1671 1.327 . S
C1673 C1689 1.429 . S
C1673 H1695 0.950 . S
C1674 H1670 0.949 . S
C1674 C1682 1.574 . S
C1674 C1690 1.368 . S
H1675 C1683 0.950 . S
H1676 C1681 0.950 . S
H1677 C1682 0.949 . S
H1678 C1684 0.950 . S
H1679 C1685 0.950 . S
H1680 C1686 0.949 . S
C1681 H1676 0.950 . S
C1681 C1683 1.327 . S
C1681 C1687 1.429 . S
C1682 C1674 1.574 . S
C1682 H1677 0.949 . S
C1682 C1688 1.368 . S
C1683 C1667 1.349 . S
C1683 H1675 0.950 . S
C1683 C1681 1.327 . S
C1684 C1672 1.349 . S
C1684 H1678 0.950 . S
C1684 C1685 1.327 . S
C1685 H1679 0.950 . S
C1685 C1684 1.327 . S
C1685 C1689 1.429 . S
C1686 C1669 1.574 . S
C1686 H1680 0.949 . S
C1686 C1690 1.368 . S
C1687 C1668 1.429 . S
C1687 C1681 1.429 . S
C1687 C1688 1.523 . S
C1688 C1669 1.368 . S
C1688 C1682 1.368 . S
C1688 C1687 1.523 . S
C1689 C1673 1.429 . S
C1689 C1685 1.429 . S
C1689 C1690 1.523 . S
C1690 C1674 1.368 . S
C1690 C1686 1.368 . S
C1690 C1689 1.523 . S
H1691 C1666 0.950 . S
H1692 C1668 0.950 . S
H1693 C1669 0.949 . S
H1694 C1671 0.950 . S
H1695 C1673 0.950 . S
C1696 C1697 1.349 . S
C1696 C1698 1.327 . S
C1696 H1721 0.950 . S
C1697 C1696 1.349 . S
C1697 C1713 1.349 . S
C1698 C1696 1.327 . S
C1698 C1717 1.429 . S
C1698 H1722 0.950 . S
C1699 C1716 1.574 . S
C1699 C1718 1.368 . S
C1699 H1723 0.949 . S
H1700 C1704 0.949 . S
C1701 C1702 1.349 . S
C1701 C1703 1.327 . S
C1701 H1724 0.950 . S
C1702 C1701 1.349 . S
C1702 C1714 1.349 . S
C1703 C1701 1.327 . S
C1703 C1719 1.429 . S
C1703 H1725 0.950 . S
C1704 H1700 0.949 . S
C1704 C1712 1.574 . S
C1704 C1720 1.368 . S
H1705 C1713 0.950 . S
H1706 C1711 0.950 . S
H1707 C1712 0.949 . S
H1708 C1714 0.950 . S
H1709 C1715 0.950 . S
H1710 C1716 0.949 . S
C1711 H1706 0.950 . S
C1711 C1713 1.327 . S
C1711 C1717 1.429 . S
C1712 C1704 1.574 . S
C1712 H1707 0.949 . S
C1712 C1718 1.368 . S
C1713 C1697 1.349 . S
C1713 H1705 0.950 . S
C1713 C1711 1.327 . S
C1714 C1702 1.349 . S
C1714 H1708 0.950 . S
C1714 C1715 1.327 . S
C1715 H1709 0.950 . S
C1715 C1714 1.327 . S
C1715 C1719 1.429 . S
C1716 C1699 1.574 . S
C1716 H1710 0.949 . S
C1716 C1720 1.368 . S
C1717 C1698 1.429 . S
C1717 C1711 1.429 . S
C1717 C1718 1.523 . S
C1718 C1699 1.368 . S
C1718 C1712 1.368 . S
C1718 C1717 1.523 . S
C1719 C1703 1.429 . S
C1719 C1715 1.429 . S
C1719 C1720 1.523 . S
C1720 C1704 1.368 . S
C1720 C1716 1.368 . S
C1720 C1719 1.523 . S
H1721 C1696 0.950 . S
H1722 C1698 0.950 . S
H1723 C1699 0.949 . S
H1724 C1701 0.950 . S
H1725 C1703 0.950 . S
C1726 C1727 1.349 . S
C1726 C1728 1.327 . S
C1726 H1751 0.950 . S
C1727 C1726 1.349 . S
C1727 C1743 1.349 . S
C1728 C1726 1.327 . S
C1728 C1747 1.429 . S
C1728 H1752 0.950 . S
C1729 C1746 1.574 . S
C1729 C1748 1.368 . S
C1729 H1753 0.949 . S
H1730 C1734 0.949 . S
C1731 C1732 1.349 . S
C1731 C1733 1.327 . S
C1731 H1754 0.950 . S
C1732 C1731 1.349 . S
C1732 C1744 1.349 . S
C1733 C1731 1.327 . S
C1733 C1749 1.429 . S
C1733 H1755 0.950 . S
C1734 H1730 0.949 . S
C1734 C1742 1.574 . S
C1734 C1750 1.368 . S
H1735 C1743 0.950 . S
H1736 C1741 0.950 . S
H1737 C1742 0.949 . S
H1738 C1744 0.950 . S
H1739 C1745 0.950 . S
H1740 C1746 0.949 . S
C1741 H1736 0.950 . S
C1741 C1743 1.327 . S
C1741 C1747 1.429 . S
C1742 C1734 1.574 . S
C1742 H1737 0.949 . S
C1742 C1748 1.368 . S
C1743 C1727 1.349 . S
C1743 H1735 0.950 . S
C1743 C1741 1.327 . S
C1744 C1732 1.349 . S
C1744 H1738 0.950 . S
C1744 C1745 1.327 . S
C1745 H1739 0.950 . S
C1745 C1744 1.327 . S
C1745 C1749 1.429 . S
C1746 C1729 1.574 . S
C1746 H1740 0.949 . S
C1746 C1750 1.368 . S
C1747 C1728 1.429 . S
C1747 C1741 1.429 . S
C1747 C1748 1.523 . S
C1748 C1729 1.368 . S
C1748 C1742 1.368 . S
C1748 C1747 1.523 . S
C1749 C1733 1.429 . S
C1749 C1745 1.429 . S
C1749 C1750 1.523 . S
C1750 C1734 1.368 . S
C1750 C1746 1.368 . S
C1750 C1749 1.523 . S
H1751 C1726 0.950 . S
H1752 C1728 0.950 . S
H1753 C1729 0.949 . S
H1754 C1731 0.950 . S
H1755 C1733 0.950 . S
C1756 C1757 1.349 . S
C1756 C1758 1.327 . S
C1756 H1781 0.950 . S
C1757 C1756 1.349 . S
C1757 C1773 1.349 . S
C1758 C1756 1.327 . S
C1758 C1777 1.429 . S
C1758 H1782 0.950 . S
C1759 C1776 1.574 . S
C1759 C1778 1.368 . S
C1759 H1783 0.949 . S
H1760 C1764 0.949 . S
C1761 C1762 1.349 . S
C1761 C1763 1.327 . S
C1761 H1784 0.950 . S
C1762 C1761 1.349 . S
C1762 C1774 1.349 . S
C1763 C1761 1.327 . S
C1763 C1779 1.429 . S
C1763 H1785 0.950 . S
C1764 H1760 0.949 . S
C1764 C1772 1.574 . S
C1764 C1780 1.368 . S
H1765 C1773 0.950 . S
H1766 C1771 0.950 . S
H1767 C1772 0.949 . S
H1768 C1774 0.950 . S
H1769 C1775 0.950 . S
H1770 C1776 0.949 . S
C1771 H1766 0.950 . S
C1771 C1773 1.327 . S
C1771 C1777 1.429 . S
C1772 C1764 1.574 . S
C1772 H1767 0.949 . S
C1772 C1778 1.368 . S
C1773 C1757 1.349 . S
C1773 H1765 0.950 . S
C1773 C1771 1.327 . S
C1774 C1762 1.349 . S
C1774 H1768 0.950 . S
C1774 C1775 1.327 . S
C1775 H1769 0.950 . S
C1775 C1774 1.327 . S
C1775 C1779 1.429 . S
C1776 C1759 1.574 . S
C1776 H1770 0.949 . S
C1776 C1780 1.368 . S
C1777 C1758 1.429 . S
C1777 C1771 1.429 . S
C1777 C1778 1.523 . S
C1778 C1759 1.368 . S
C1778 C1772 1.368 . S
C1778 C1777 1.523 . S
C1779 C1763 1.429 . S
C1779 C1775 1.429 . S
C1779 C1780 1.523 . S
C1780 C1764 1.368 . S
C1780 C1776 1.368 . S
C1780 C1779 1.523 . S
H1781 C1756 0.950 . S
H1782 C1758 0.950 . S
H1783 C1759 0.949 . S
H1784 C1761 0.950 . S
H1785 C1763 0.950 . S
C1786 C1787 1.349 . S
C1786 C1788 1.327 . S
C1786 H1811 0.950 . S
C1787 C1786 1.349 . S
C1787 C1803 1.349 . S
C1788 C1786 1.327 . S
C1788 C1807 1.429 . S
C1788 H1812 0.950 . S
C1789 C1806 1.574 . S
C1789 C1808 1.368 . S
C1789 H1813 0.949 . S
H1790 C1794 0.949 . S
C1791 C1792 1.349 . S
C1791 C1793 1.327 . S
C1791 H1814 0.950 . S
C1792 C1791 1.349 . S
C1792 C1804 1.349 . S
C1793 C1791 1.327 . S
C1793 C1809 1.429 . S
C1793 H1815 0.950 . S
C1794 H1790 0.949 . S
C1794 C1802 1.574 . S
C1794 C1810 1.368 . S
H1795 C1803 0.950 . S
H1796 C1801 0.950 . S
H1797 C1802 0.949 . S
H1798 C1804 0.950 . S
H1799 C1805 0.950 . S
H1800 C1806 0.949 . S
C1801 H1796 0.950 . S
C1801 C1803 1.327 . S
C1801 C1807 1.429 . S
C1802 C1794 1.574 . S
C1802 H1797 0.949 . S
C1802 C1808 1.368 . S
C1803 C1787 1.349 . S
C1803 H1795 0.950 . S
C1803 C1801 1.327 . S
C1804 C1792 1.349 . S
C1804 H1798 0.950 . S
C1804 C1805 1.327 . S
C1805 H1799 0.950 . S
C1805 C1804 1.327 . S
C1805 C1809 1.429 . S
C1806 C1789 1.574 . S
C1806 H1800 0.949 . S
C1806 C1810 1.368 . S
C1807 C1788 1.429 . S
C1807 C1801 1.429 . S
C1807 C1808 1.523 . S
C1808 C1789 1.368 . S
C1808 C1802 1.368 . S
C1808 C1807 1.523 . S
C1809 C1793 1.429 . S
C1809 C1805 1.429 . S
C1809 C1810 1.523 . S
C1810 C1794 1.368 . S
C1810 C1806 1.368 . S
C1810 C1809 1.523 . S
H1811 C1786 0.950 . S
H1812 C1788 0.950 . S
H1813 C1789 0.949 . S
H1814 C1791 0.950 . S
H1815 C1793 0.950 . S
C1816 C1817 1.349 . S
C1816 C1818 1.327 . S
C1816 H1841 0.950 . S
C1817 C1816 1.349 . S
C1817 C1833 1.349 . S
C1818 C1816 1.327 . S
C1818 C1837 1.429 . S
C1818 H1842 0.950 . S
C1819 C1836 1.574 . S
C1819 C1838 1.368 . S
C1819 H1843 0.949 . S
H1820 C1824 0.949 . S
C1821 C1822 1.349 . S
C1821 C1823 1.327 . S
C1821 H1844 0.950 . S
C1822 C1821 1.349 . S
C1822 C1834 1.349 . S
C1823 C1821 1.327 . S
C1823 C1839 1.429 . S
C1823 H1845 0.950 . S
C1824 H1820 0.949 . S
C1824 C1832 1.574 . S
C1824 C1840 1.368 . S
H1825 C1833 0.950 . S
H1826 C1831 0.950 . S
H1827 C1832 0.949 . S
H1828 C1834 0.950 . S
H1829 C1835 0.950 . S
H1830 C1836 0.949 . S
C1831 H1826 0.950 . S
C1831 C1833 1.327 . S
C1831 C1837 1.429 . S
C1832 C1824 1.574 . S
C1832 H1827 0.949 . S
C1832 C1838 1.368 . S
C1833 C1817 1.349 . S
C1833 H1825 0.950 . S
C1833 C1831 1.327 . S
C1834 C1822 1.349 . S
C1834 H1828 0.950 . S
C1834 C1835 1.327 . S
C1835 H1829 0.950 . S
C1835 C1834 1.327 . S
C1835 C1839 1.429 . S
C1836 C1819 1.574 . S
C1836 H1830 0.949 . S
C1836 C1840 1.368 . S
C1837 C1818 1.429 . S
C1837 C1831 1.429 . S
C1837 C1838 1.523 . S
C1838 C1819 1.368 . S
C1838 C1832 1.368 . S
C1838 C1837 1.523 . S
C1839 C1823 1.429 . S
C1839 C1835 1.429 . S
C1839 C1840 1.523 . S
C1840 C1824 1.368 . S
C1840 C1836 1.368 . S
C1840 C1839 1.523 . S
H1841 C1816 0.950 . S
H1842 C1818 0.950 . S
H1843 C1819 0.949 . S
H1844 C1821 0.950 . S
H1845 C1823 0.950 . S
C1846 C1847 1.349 . S
C1846 C1848 1.327 . S
C1846 H1871 0.950 . S
C1847 C1846 1.349 . S
C1847 C1863 1.349 . S
C1848 C1846 1.327 . S
C1848 C1867 1.429 . S
C1848 H1872 0.950 . S
C1849 C1866 1.574 . S
C1849 C1868 1.368 . S
C1849 H1873 0.949 . S
H1850 C1854 0.949 . S
C1851 C1852 1.349 . S
C1851 C1853 1.327 . S
C1851 H1874 0.950 . S
C1852 C1851 1.349 . S
C1852 C1864 1.349 . S
C1853 C1851 1.327 . S
C1853 C1869 1.429 . S
C1853 H1875 0.950 . S
C1854 H1850 0.949 . S
C1854 C1862 1.574 . S
C1854 C1870 1.368 . S
H1855 C1863 0.950 . S
H1856 C1861 0.950 . S
H1857 C1862 0.949 . S
H1858 C1864 0.950 . S
H1859 C1865 0.950 . S
H1860 C1866 0.949 . S
C1861 H1856 0.950 . S
C1861 C1863 1.327 . S
C1861 C1867 1.429 . S
C1862 C1854 1.574 . S
C1862 H1857 0.949 . S
C1862 C1868 1.368 . S
C1863 C1847 1.349 . S
C1863 H1855 0.950 . S
C1863 C1861 1.327 . S
C1864 C1852 1.349 . S
C1864 H1858 0.950 . S
C1864 C1865 1.327 . S
C1865 H1859 0.950 . S
C1865 C1864 1.327 . S
C1865 C1869 1.429 . S
C1866 C1849 1.574 . S
C1866 H1860 0.949 . S
C1866 C1870 1.368 . S
C1867 C1848 1.429 . S
C1867 C1861 1.429 . S
C1867 C1868 1.523 . S
C1868 C1849 1.368 . S
C1868 C1862 1.368 . S
C1868 C1867 1.523 . S
C1869 C1853 1.429 . S
C1869 C1865 1.429 . S
C1869 C1870 1.523 . S
C1870 C1854 1.368 . S
C1870 C1866 1.368 . S
C1870 C1869 1.523 . S
H1871 C1846 0.950 . S
H1872 C1848 0.950 . S
H1873 C1849 0.949 . S
H1874 C1851 0.950 . S
H1875 C1853 0.950 . S
C1876 C1877 1.349 . S
C1876 C1878 1.327 . S
C1876 H1901 0.950 . S
C1877 C1876 1.349 . S
C1877 C1893 1.349 . S
C1878 C1876 1.327 . S
C1878 C1897 1.429 . S
C1878 H1902 0.950 . S
C1879 C1896 1.574 . S
C1879 C1898 1.368 . S
C1879 H1903 0.949 . S
H1880 C1884 0.949 . S
C1881 C1882 1.349 . S
C1881 C1883 1.327 . S
C1881 H1904 0.950 1_556 S
C1882 C1881 1.349 . S
C1882 C1894 1.349 . S
C1883 C1881 1.327 . S
C1883 C1899 1.429 . S
C1883 H1905 0.950 . S
C1884 H1880 0.949 . S
C1884 C1892 1.574 . S
C1884 C1900 1.368 . S
H1885 C1893 0.950 . S
H1886 C1891 0.950 . S
H1887 C1892 0.949 . S
H1888 C1894 0.950 1_545 S
H1889 C1895 0.950 . S
H1890 C1896 0.949 . S
C1891 H1886 0.950 . S
C1891 C1893 1.327 . S
C1891 C1897 1.429 . S
C1892 C1884 1.574 . S
C1892 H1887 0.949 . S
C1892 C1898 1.368 . S
C1893 C1877 1.349 . S
C1893 H1885 0.950 . S
C1893 C1891 1.327 . S
C1894 C1882 1.349 . S
C1894 H1888 0.950 1_565 S
C1894 C1895 1.327 . S
C1895 H1889 0.950 . S
C1895 C1894 1.327 . S
C1895 C1899 1.429 . S
C1896 C1879 1.574 . S
C1896 H1890 0.949 . S
C1896 C1900 1.368 . S
C1897 C1878 1.429 . S
C1897 C1891 1.429 . S
C1897 C1898 1.523 . S
C1898 C1879 1.368 . S
C1898 C1892 1.368 . S
C1898 C1897 1.523 . S
C1899 C1883 1.429 . S
C1899 C1895 1.429 . S
C1899 C1900 1.523 . S
C1900 C1884 1.368 . S
C1900 C1896 1.368 . S
C1900 C1899 1.523 . S
H1901 C1876 0.950 . S
H1902 C1878 0.950 . S
H1903 C1879 0.949 . S
H1904 C1881 0.950 1_554 S
H1905 C1883 0.950 . S
C1906 C1907 1.349 . S
C1906 C1908 1.327 . S
C1906 H1931 0.950 . S
C1907 C1906 1.349 . S
C1907 C1923 1.349 . S
C1908 C1906 1.327 . S
C1908 C1927 1.429 . S
C1908 H1932 0.950 . S
C1909 C1926 1.574 . S
C1909 C1928 1.368 . S
C1909 H1933 0.949 . S
H1910 C1914 0.949 . S
C1911 C1912 1.349 . S
C1911 C1913 1.327 . S
C1911 H1934 0.950 . S
C1912 C1911 1.349 . S
C1912 C1924 1.349 . S
C1913 C1911 1.327 . S
C1913 C1929 1.429 . S
C1913 H1935 0.950 . S
C1914 H1910 0.949 . S
C1914 C1922 1.574 . S
C1914 C1930 1.368 . S
H1915 C1923 0.950 . S
H1916 C1921 0.950 . S
H1917 C1922 0.949 . S
H1918 C1924 0.950 . S
H1919 C1925 0.950 . S
H1920 C1926 0.949 . S
C1921 H1916 0.950 . S
C1921 C1923 1.327 . S
C1921 C1927 1.429 . S
C1922 C1914 1.574 . S
C1922 H1917 0.949 . S
C1922 C1928 1.368 . S
C1923 C1907 1.349 . S
C1923 H1915 0.950 . S
C1923 C1921 1.327 . S
C1924 C1912 1.349 . S
C1924 H1918 0.950 . S
C1924 C1925 1.327 . S
C1925 H1919 0.950 . S
C1925 C1924 1.327 . S
C1925 C1929 1.429 . S
C1926 C1909 1.574 . S
C1926 H1920 0.949 . S
C1926 C1930 1.368 . S
C1927 C1908 1.429 . S
C1927 C1921 1.429 . S
C1927 C1928 1.523 . S
C1928 C1909 1.368 . S
C1928 C1922 1.368 . S
C1928 C1927 1.523 . S
C1929 C1913 1.429 . S
C1929 C1925 1.429 . S
C1929 C1930 1.523 . S
C1930 C1914 1.368 . S
C1930 C1926 1.368 . S
C1930 C1929 1.523 . S
H1931 C1906 0.950 . S
H1932 C1908 0.950 . S
H1933 C1909 0.949 . S
H1934 C1911 0.950 . S
H1935 C1913 0.950 . S
C1936 C1937 1.349 . S
C1936 C1938 1.327 . S
C1936 H1961 0.950 . S
C1937 C1936 1.349 . S
C1937 C1953 1.349 1_545 S
C1938 C1936 1.327 . S
C1938 C1957 1.429 . S
C1938 H1962 0.950 . S
C1939 C1956 1.574 . S
C1939 C1958 1.368 . S
C1939 H1963 0.949 1_545 S
H1940 C1944 0.949 . S
C1941 C1942 1.349 . S
C1941 C1943 1.327 . S
C1941 H1964 0.950 . S
C1942 C1941 1.349 . S
C1942 C1954 1.349 . S
C1943 C1941 1.327 . S
C1943 C1959 1.429 . S
C1943 H1965 0.997 . S
C1944 H1940 0.949 . S
C1944 C1952 1.574 . S
C1944 C1960 1.368 . S
H1945 C1953 0.950 . S
H1946 C1951 0.952 1_565 S
H1947 C1952 0.949 . S
H1948 C1954 0.950 . S
H1949 C1955 0.950 . S
H1950 C1956 0.949 1_565 S
C1951 H1946 0.952 1_545 S
C1951 C1953 1.327 1_545 S
C1951 C1957 1.426 . S
C1952 C1944 1.574 . S
C1952 H1947 0.949 . S
C1952 C1958 1.368 . S
C1953 C1937 1.349 1_565 S
C1953 H1945 0.950 . S
C1953 C1951 1.327 1_565 S
C1954 C1942 1.349 . S
C1954 H1948 0.950 . S
C1954 C1955 1.327 . S
C1955 H1949 0.950 . S
C1955 C1954 1.327 . S
C1955 C1959 1.429 . S
C1956 C1939 1.574 . S
C1956 H1950 0.949 1_545 S
C1956 C1960 1.368 . S
C1957 C1938 1.429 . S
C1957 C1951 1.426 . S
C1957 C1958 1.523 . S
C1958 C1939 1.368 . S
C1958 C1952 1.368 . S
C1958 C1957 1.523 . S
C1959 C1943 1.429 . S
C1959 C1955 1.429 . S
C1959 C1960 1.523 . S
C1960 C1944 1.368 . S
C1960 C1956 1.368 . S
C1960 C1959 1.523 . S
H1961 C1936 0.950 . S
H1962 C1938 0.950 . S
H1963 C1939 0.949 1_565 S
H1964 C1941 0.950 . S
H1965 C1943 0.997 . S
C1966 C1967 1.349 . S
C1966 C1968 1.327 . S
C1966 H1991 0.950 . S
C1967 C1966 1.349 . S
C1967 C1983 1.349 . S
C1968 C1966 1.327 . S
C1968 C1987 1.429 . S
C1968 H1992 0.950 . S
C1969 C1986 1.574 . S
C1969 C1988 1.368 . S
C1969 H1993 0.949 . S
H1970 C1974 0.949 . S
C1971 C1972 1.349 . S
C1971 C1973 1.327 . S
C1971 H1994 0.950 . S
C1972 C1971 1.349 . S
C1972 C1984 1.349 . S
C1973 C1971 1.327 . S
C1973 C1989 1.429 . S
C1973 H1995 0.950 . S
C1974 H1970 0.949 . S
C1974 C1982 1.574 . S
C1974 C1990 1.368 . S
H1975 C1983 0.950 . S
H1976 C1981 0.950 . S
H1977 C1982 0.949 . S
H1978 C1984 0.950 . S
H1979 C1985 0.950 . S
H1980 C1986 0.949 . S
C1981 H1976 0.950 . S
C1981 C1983 1.327 . S
C1981 C1987 1.429 . S
C1982 C1974 1.574 . S
C1982 H1977 0.949 . S
C1982 C1988 1.368 . S
C1983 C1967 1.349 . S
C1983 H1975 0.950 . S
C1983 C1981 1.327 . S
C1984 C1972 1.349 . S
C1984 H1978 0.950 . S
C1984 C1985 1.327 . S
C1985 H1979 0.950 . S
C1985 C1984 1.327 . S
C1985 C1989 1.429 . S
C1986 C1969 1.574 . S
C1986 H1980 0.949 . S
C1986 C1990 1.368 . S
C1987 C1968 1.429 . S
C1987 C1981 1.429 . S
C1987 C1988 1.523 . S
C1988 C1969 1.368 . S
C1988 C1982 1.368 . S
C1988 C1987 1.523 . S
C1989 C1973 1.429 . S
C1989 C1985 1.429 . S
C1989 C1990 1.523 . S
C1990 C1974 1.368 . S
C1990 C1986 1.368 . S
C1990 C1989 1.523 . S
H1991 C1966 0.950 . S
H1992 C1968 0.950 . S
H1993 C1969 0.949 . S
H1994 C1971 0.950 . S
H1995 C1973 0.950 . S
C1996 C1997 1.349 . S
C1996 C1998 1.327 . S
C1996 H2021 0.950 . S
C1997 C1996 1.349 . S
C1997 C2013 1.349 . S
C1998 C1996 1.327 . S
C1998 C2017 1.429 . S
C1998 H2022 0.950 . S
C1999 C2016 1.574 . S
C1999 C2018 1.368 . S
C1999 H2023 0.949 . S
H2000 C2004 0.949 . S
C2001 C2002 1.349 . S
C2001 C2003 1.327 . S
C2001 H2024 0.950 . S
C2002 C2001 1.349 . S
C2002 C2014 1.349 . S
C2003 C2001 1.327 . S
C2003 C2019 1.429 . S
C2003 H2025 0.950 . S
C2004 H2000 0.949 . S
C2004 C2012 1.574 . S
C2004 C2020 1.368 . S
H2005 C2013 0.950 1_565 S
H2006 C2011 0.953 1_565 S
H2007 C2012 0.949 . S
H2008 C2014 0.950 . S
H2009 C2015 0.950 . S
H2010 C2016 0.949 . S
C2011 H2006 0.953 1_545 S
C2011 C2013 1.327 . S
C2011 C2017 1.429 . S
C2012 C2004 1.574 . S
C2012 H2007 0.949 . S
C2012 C2018 1.368 . S
C2013 C1997 1.349 . S
C2013 H2005 0.950 1_545 S
C2013 C2011 1.327 . S
C2014 C2002 1.349 . S
C2014 H2008 0.950 . S
C2014 C2015 1.327 . S
C2015 H2009 0.950 . S
C2015 C2014 1.327 . S
C2015 C2019 1.429 . S
C2016 C1999 1.574 . S
C2016 H2010 0.949 . S
C2016 C2020 1.368 . S
C2017 C1998 1.429 . S
C2017 C2011 1.429 . S
C2017 C2018 1.523 . S
C2018 C1999 1.368 . S
C2018 C2012 1.368 . S
C2018 C2017 1.523 . S
C2019 C2003 1.429 . S
C2019 C2015 1.429 . S
C2019 C2020 1.523 . S
C2020 C2004 1.368 . S
C2020 C2016 1.368 . S
C2020 C2019 1.523 . S
H2021 C1996 0.950 . S
H2022 C1998 0.950 . S
H2023 C1999 0.949 . S
H2024 C2001 0.950 . S
H2025 C2003 0.950 . S
C2026 C2027 1.349 . S
C2026 C2028 1.327 . S
C2026 H2051 0.950 . S
C2027 C2026 1.349 . S
C2027 C2043 1.349 . S
C2028 C2026 1.327 . S
C2028 C2047 1.429 . S
C2028 H2052 0.950 . S
C2029 C2046 1.574 . S
C2029 C2048 1.368 . S
C2029 H2053 0.949 . S
H2030 C2034 0.949 . S
C2031 C2032 1.349 . S
C2031 C2033 1.327 . S
C2031 H2054 0.950 . S
C2032 C2031 1.349 . S
C2032 C2044 1.349 . S
C2033 C2031 1.327 . S
C2033 C2049 1.429 . S
C2033 H2055 0.950 . S
C2034 H2030 0.949 . S
C2034 C2042 1.574 . S
C2034 C2050 1.368 . S
H2035 C2043 0.950 . S
H2036 C2041 0.950 . S
H2037 C2042 0.949 . S
H2038 C2044 0.950 . S
H2039 C2045 0.950 . S
H2040 C2046 0.949 . S
C2041 H2036 0.950 . S
C2041 C2043 1.327 . S
C2041 C2047 1.429 . S
C2042 C2034 1.574 . S
C2042 H2037 0.949 . S
C2042 C2048 1.368 . S
C2043 C2027 1.349 . S
C2043 H2035 0.950 . S
C2043 C2041 1.327 . S
C2044 C2032 1.349 . S
C2044 H2038 0.950 . S
C2044 C2045 1.327 . S
C2045 H2039 0.950 . S
C2045 C2044 1.327 . S
C2045 C2049 1.429 . S
C2046 C2029 1.574 . S
C2046 H2040 0.949 . S
C2046 C2050 1.368 . S
C2047 C2028 1.429 . S
C2047 C2041 1.429 . S
C2047 C2048 1.523 . S
C2048 C2029 1.368 . S
C2048 C2042 1.368 . S
C2048 C2047 1.523 . S
C2049 C2033 1.429 . S
C2049 C2045 1.429 . S
C2049 C2050 1.523 . S
C2050 C2034 1.368 . S
C2050 C2046 1.368 . S
C2050 C2049 1.523 . S
H2051 C2026 0.950 . S
H2052 C2028 0.950 . S
H2053 C2029 0.949 . S
H2054 C2031 0.950 . S
H2055 C2033 0.950 . S
C2056 C2057 1.383 . S
C2056 C2058 1.327 . S
C2056 H2081 0.950 . S
C2057 C2056 1.383 . S
C2057 C2073 1.340 1_545 S
C2058 C2056 1.327 . S
C2058 C2077 1.429 . S
C2058 H2082 0.950 . S
C2059 C2076 1.574 . S
C2059 C2078 1.368 . S
C2059 H2083 0.949 1_545 S
H2060 C2064 0.949 . S
C2061 C2062 1.349 . S
C2061 C2063 1.327 . S
C2061 H2084 0.950 . S
C2062 C2061 1.349 . S
C2062 C2074 1.349 . S
C2063 C2061 1.327 . S
C2063 C2079 1.429 . S
C2063 H2085 0.950 . S
C2064 H2060 0.949 . S
C2064 C2072 1.574 . S
C2064 C2080 1.368 . S
H2065 C2073 0.950 . S
H2066 C2071 0.950 . S
H2067 C2072 0.949 . S
H2068 C2074 0.950 . S
H2069 C2075 0.950 . S
H2070 C2076 0.949 1_565 S
C2071 H2066 0.950 . S
C2071 C2073 1.327 . S
C2071 C2077 1.429 1_565 S
C2072 C2064 1.574 . S
C2072 H2067 0.949 . S
C2072 C2078 1.368 . S
C2073 C2057 1.340 1_565 S
C2073 H2065 0.950 . S
C2073 C2071 1.327 . S
C2074 C2062 1.349 . S
C2074 H2068 0.950 . S
C2074 C2075 1.327 . S
C2075 H2069 0.950 . S
C2075 C2074 1.327 . S
C2075 C2079 1.429 . S
C2076 C2059 1.574 . S
C2076 H2070 0.949 1_545 S
C2076 C2080 1.368 . S
C2077 C2058 1.429 . S
C2077 C2071 1.429 1_545 S
C2077 C2078 1.523 . S
C2078 C2059 1.368 . S
C2078 C2072 1.368 . S
C2078 C2077 1.523 . S
C2079 C2063 1.429 . S
C2079 C2075 1.429 . S
C2079 C2080 1.523 . S
C2080 C2064 1.368 . S
C2080 C2076 1.368 . S
C2080 C2079 1.523 . S
H2081 C2056 0.950 . S
H2082 C2058 0.950 . S
H2083 C2059 0.949 1_565 S
H2084 C2061 0.950 . S
H2085 C2063 0.950 . S
C2086 C2087 1.349 . S
C2086 C2088 1.327 . S
C2086 H2111 0.950 . S
C2087 C2086 1.349 . S
C2087 C2103 1.349 . S
C2088 C2086 1.327 . S
C2088 C2107 1.429 . S
C2088 H2112 0.950 . S
C2089 C2106 1.574 . S
C2089 C2108 1.368 . S
C2089 H2113 0.949 . S
H2090 C2094 0.949 . S
C2091 C2092 1.349 . S
C2091 C2093 1.327 . S
C2091 H2114 0.950 . S
C2092 C2091 1.349 . S
C2092 C2104 1.349 . S
C2093 C2091 1.327 . S
C2093 C2109 1.429 . S
C2093 H2115 0.950 . S
C2094 H2090 0.949 . S
C2094 C2102 1.574 . S
C2094 C2110 1.368 . S
H2095 C2103 0.950 . S
H2096 C2101 0.950 . S
H2097 C2102 0.949 . S
H2098 C2104 0.950 . S
H2099 C2105 0.950 . S
H2100 C2106 0.949 . S
C2101 H2096 0.950 . S
C2101 C2103 1.327 . S
C2101 C2107 1.429 . S
C2102 C2094 1.574 . S
C2102 H2097 0.949 . S
C2102 C2108 1.368 . S
C2103 C2087 1.349 . S
C2103 H2095 0.950 . S
C2103 C2101 1.327 . S
C2104 C2092 1.349 . S
C2104 H2098 0.950 . S
C2104 C2105 1.327 . S
C2105 H2099 0.950 . S
C2105 C2104 1.327 . S
C2105 C2109 1.429 . S
C2106 C2089 1.574 . S
C2106 H2100 0.949 . S
C2106 C2110 1.368 . S
C2107 C2088 1.429 . S
C2107 C2101 1.429 . S
C2107 C2108 1.523 . S
C2108 C2089 1.368 . S
C2108 C2102 1.368 . S
C2108 C2107 1.523 . S
C2109 C2093 1.429 . S
C2109 C2105 1.429 . S
C2109 C2110 1.523 . S
C2110 C2094 1.368 . S
C2110 C2106 1.368 . S
C2110 C2109 1.523 . S
H2111 C2086 0.950 . S
H2112 C2088 0.950 . S
H2113 C2089 0.949 . S
H2114 C2091 0.950 . S
H2115 C2093 0.950 . S
C2116 C2117 1.349 . S
C2116 C2118 1.327 . S
C2116 H2141 0.950 . S
C2117 C2116 1.349 . S
C2117 C2133 1.349 1_545 S
C2118 C2116 1.327 . S
C2118 C2137 1.429 . S
C2118 H2142 0.950 . S
C2119 C2136 1.574 . S
C2119 C2138 1.368 1_565 S
C2119 H2143 0.949 . S
H2120 C2124 0.949 . S
C2121 C2122 1.349 . S
C2121 C2123 1.327 . S
C2121 H2144 0.950 . S
C2122 C2121 1.349 . S
C2122 C2134 1.349 1_565 S
C2123 C2121 1.327 . S
C2123 C2139 1.429 1_565 S
C2123 H2145 0.950 . S
C2124 H2120 0.949 . S
C2124 C2132 1.574 . S
C2124 C2140 1.368 . S
H2125 C2133 0.950 . S
H2126 C2131 0.950 . S
H2127 C2132 0.949 . S
H2128 C2134 0.950 . S
H2129 C2135 0.950 . S
H2130 C2136 0.949 . S
C2131 H2126 0.950 . S
C2131 C2133 1.327 . S
C2131 C2137 1.429 1_565 S
C2132 C2124 1.574 . S
C2132 H2127 0.949 . S
C2132 C2138 1.368 . S
C2133 C2117 1.349 1_565 S
C2133 H2125 0.950 . S
C2133 C2131 1.327 . S
C2134 C2122 1.349 1_545 S
C2134 H2128 0.950 . S
C2134 C2135 1.327 . S
C2135 H2129 0.950 . S
C2135 C2134 1.327 . S
C2135 C2139 1.429 . S
C2136 C2119 1.574 . S
C2136 H2130 0.949 . S
C2136 C2140 1.368 1_565 S
C2137 C2118 1.429 . S
C2137 C2131 1.429 1_545 S
C2137 C2138 1.523 . S
C2138 C2119 1.368 1_545 S
C2138 C2132 1.368 . S
C2138 C2137 1.523 . S
C2139 C2123 1.429 1_545 S
C2139 C2135 1.429 . S
C2139 C2140 1.523 . S
C2140 C2124 1.368 . S
C2140 C2136 1.368 1_545 S
C2140 C2139 1.523 . S
H2141 C2116 0.950 . S
H2142 C2118 0.950 . S
H2143 C2119 0.949 . S
H2144 C2121 0.950 . S
H2145 C2123 0.950 . S
C2146 C2147 1.349 . S
C2146 C2148 1.327 . S
C2146 H2171 0.950 . S
C2147 C2146 1.349 . S
C2147 C2163 1.349 . S
C2148 C2146 1.327 . S
C2148 C2167 1.429 . S
C2148 H2172 0.950 . S
C2149 C2166 1.574 . S
C2149 C2168 1.368 . S
C2149 H2173 0.949 . S
H2150 C2154 0.949 . S
C2151 C2152 1.349 . S
C2151 C2153 1.327 . S
C2151 H2174 0.950 . S
C2152 C2151 1.349 . S
C2152 C2164 1.349 . S
C2153 C2151 1.327 . S
C2153 C2169 1.429 . S
C2153 H2175 0.950 . S
C2154 H2150 0.949 . S
C2154 C2162 1.574 . S
C2154 C2170 1.368 . S
H2155 C2163 0.950 . S
H2156 C2161 0.950 . S
H2157 C2162 0.949 . S
H2158 C2164 0.950 . S
H2159 C2165 0.950 . S
H2160 C2166 0.949 . S
C2161 H2156 0.950 . S
C2161 C2163 1.327 . S
C2161 C2167 1.429 . S
C2162 C2154 1.574 . S
C2162 H2157 0.949 . S
C2162 C2168 1.368 . S
C2163 C2147 1.349 . S
C2163 H2155 0.950 . S
C2163 C2161 1.327 . S
C2164 C2152 1.349 . S
C2164 H2158 0.950 . S
C2164 C2165 1.327 . S
C2165 H2159 0.950 . S
C2165 C2164 1.327 . S
C2165 C2169 1.429 . S
C2166 C2149 1.574 . S
C2166 H2160 0.949 . S
C2166 C2170 1.368 . S
C2167 C2148 1.429 . S
C2167 C2161 1.429 . S
C2167 C2168 1.523 . S
C2168 C2149 1.368 . S
C2168 C2162 1.368 . S
C2168 C2167 1.523 . S
C2169 C2153 1.429 . S
C2169 C2165 1.429 . S
C2169 C2170 1.523 . S
C2170 C2154 1.368 . S
C2170 C2166 1.368 . S
C2170 C2169 1.523 . S
H2171 C2146 0.950 . S
H2172 C2148 0.950 . S
H2173 C2149 0.949 . S
H2174 C2151 0.950 . S
H2175 C2153 0.950 . S
C2176 C2177 1.349 . S
C2176 C2178 1.327 . S
C2176 H2201 0.950 . S
C2177 C2176 1.349 . S
C2177 C2193 1.349 . S
C2178 C2176 1.327 . S
C2178 C2197 1.429 . S
C2178 H2202 0.954 . S
C2179 C2196 1.574 . S
C2179 C2198 1.368 . S
C2179 H2203 0.949 . S
H2180 C2184 0.949 . S
C2181 C2182 1.349 . S
C2181 C2183 1.327 . S
C2181 H2204 0.950 . S
C2182 C2181 1.349 . S
C2182 C2194 1.349 . S
C2183 C2181 1.327 . S
C2183 C2199 1.429 . S
C2183 H2205 0.950 . S
C2184 H2180 0.949 . S
C2184 C2192 1.574 . S
C2184 C2200 1.368 . S
H2185 C2193 0.950 . S
H2186 C2191 0.950 . S
H2187 C2192 0.949 . S
H2188 C2194 0.950 . S
H2189 C2195 0.950 . S
H2190 C2196 0.949 . S
C2191 H2186 0.950 . S
C2191 C2193 1.327 . S
C2191 C2197 1.429 . S
C2192 C2184 1.574 . S
C2192 H2187 0.949 . S
C2192 C2198 1.368 1_556 S
C2193 C2177 1.349 . S
C2193 H2185 0.950 . S
C2193 C2191 1.327 . S
C2194 C2182 1.349 . S
C2194 H2188 0.950 . S
C2194 C2195 1.327 . S
C2195 H2189 0.950 . S
C2195 C2194 1.327 . S
C2195 C2199 1.429 . S
C2196 C2179 1.574 . S
C2196 H2190 0.949 . S
C2196 C2200 1.368 1_554 S
C2197 C2178 1.429 . S
C2197 C2191 1.429 . S
C2197 C2198 1.523 . S
C2198 C2179 1.368 . S
C2198 C2192 1.368 1_554 S
C2198 C2197 1.523 . S
C2199 C2183 1.429 . S
C2199 C2195 1.429 . S
C2199 C2200 1.523 . S
C2200 C2184 1.368 . S
C2200 C2196 1.368 1_556 S
C2200 C2199 1.523 . S
H2201 C2176 0.950 . S
H2202 C2178 0.954 . S
H2203 C2179 0.949 . S
H2204 C2181 0.950 . S
H2205 C2183 0.950 . S
C2206 C2207 1.349 . S
C2206 C2208 1.327 . S
C2206 H2231 0.950 . S
C2207 C2206 1.349 . S
C2207 C2223 1.349 . S
C2208 C2206 1.327 . S
C2208 C2227 1.429 . S
C2208 H2232 0.950 . S
C2209 C2226 1.574 . S
C2209 C2228 1.368 . S
C2209 H2233 0.949 . S
H2210 C2214 0.949 . S
C2211 C2212 1.349 . S
C2211 C2213 1.327 . S
C2211 H2234 0.985 . S
C2212 C2211 1.349 . S
C2212 C2224 1.349 . S
C2213 C2211 1.327 . S
C2213 C2229 1.429 . S
C2213 H2235 0.972 . S
C2214 H2210 0.949 . S
C2214 C2222 1.574 . S
C2214 C2230 1.368 . S
H2215 C2223 0.950 . S
H2216 C2221 0.950 . S
H2217 C2222 0.949 . S
H2218 C2224 0.950 . S
H2219 C2225 0.950 . S
H2220 C2226 0.993 . S
C2221 H2216 0.950 . S
C2221 C2223 1.327 . S
C2221 C2227 1.429 . S
C2222 C2214 1.574 . S
C2222 H2217 0.949 . S
C2222 C2228 1.368 . S
C2223 C2207 1.349 . S
C2223 H2215 0.950 . S
C2223 C2221 1.327 . S
C2224 C2212 1.349 . S
C2224 H2218 0.950 . S
C2224 C2225 1.327 . S
C2225 H2219 0.950 . S
C2225 C2224 1.327 . S
C2225 C2229 1.429 . S
C2226 C2209 1.574 . S
C2226 H2220 0.993 . S
C2226 C2230 1.368 . S
C2227 C2208 1.429 . S
C2227 C2221 1.429 . S
C2227 C2228 1.523 . S
C2228 C2209 1.368 . S
C2228 C2222 1.368 . S
C2228 C2227 1.523 . S
C2229 C2213 1.429 . S
C2229 C2225 1.429 . S
C2229 C2230 1.523 . S
C2230 C2214 1.368 . S
C2230 C2226 1.368 . S
C2230 C2229 1.523 . S
H2231 C2206 0.950 . S
H2232 C2208 0.950 . S
H2233 C2209 0.949 . S
H2234 C2211 0.985 . S
H2235 C2213 0.972 . S
C2236 C2237 1.349 . S
C2236 C2238 1.327 . S
C2236 H2261 0.950 . S
C2237 C2236 1.349 . S
C2237 C2253 1.349 . S
C2238 C2236 1.327 . S
C2238 C2257 1.429 . S
C2238 H2262 0.950 . S
C2239 C2256 1.574 . S
C2239 C2258 1.368 . S
C2239 H2263 0.949 . S
H2240 C2244 0.949 . S
C2241 C2242 1.349 . S
C2241 C2243 1.327 . S
C2241 H2264 0.950 . S
C2242 C2241 1.349 . S
C2242 C2254 1.349 . S
C2243 C2241 1.327 . S
C2243 C2259 1.429 . S
C2243 H2265 0.950 . S
C2244 H2240 0.949 . S
C2244 C2252 1.574 . S
C2244 C2260 1.368 . S
H2245 C2253 0.950 . S
H2246 C2251 0.950 . S
H2247 C2252 0.949 . S
H2248 C2254 0.950 . S
H2249 C2255 0.950 . S
H2250 C2256 0.949 . S
C2251 H2246 0.950 . S
C2251 C2253 1.327 . S
C2251 C2257 1.429 . S
C2252 C2244 1.574 . S
C2252 H2247 0.949 . S
C2252 C2258 1.368 . S
C2253 C2237 1.349 . S
C2253 H2245 0.950 . S
C2253 C2251 1.327 . S
C2254 C2242 1.349 . S
C2254 H2248 0.950 . S
C2254 C2255 1.327 . S
C2255 H2249 0.950 . S
C2255 C2254 1.327 . S
C2255 C2259 1.429 . S
C2256 C2239 1.574 . S
C2256 H2250 0.949 . S
C2256 C2260 1.368 . S
C2257 C2238 1.429 . S
C2257 C2251 1.429 . S
C2257 C2258 1.523 . S
C2258 C2239 1.368 . S
C2258 C2252 1.368 . S
C2258 C2257 1.523 . S
C2259 C2243 1.429 . S
C2259 C2255 1.429 . S
C2259 C2260 1.523 . S
C2260 C2244 1.368 . S
C2260 C2256 1.368 . S
C2260 C2259 1.523 . S
H2261 C2236 0.950 . S
H2262 C2238 0.950 . S
H2263 C2239 0.949 . S
H2264 C2241 0.950 . S
H2265 C2243 0.950 . S
C2266 C2267 1.349 . S
C2266 C2268 1.327 . S
C2266 H2291 0.950 . S
C2267 C2266 1.349 . S
C2267 C2283 1.349 . S
C2268 C2266 1.327 . S
C2268 C2287 1.429 . S
C2268 H2292 0.950 . S
C2269 C2286 1.574 . S
C2269 C2288 1.368 . S
C2269 H2293 0.949 . S
H2270 C2274 0.949 . S
C2271 C2272 1.349 . S
C2271 C2273 1.327 . S
C2271 H2294 0.950 . S
C2272 C2271 1.349 . S
C2272 C2284 1.349 . S
C2273 C2271 1.327 . S
C2273 C2289 1.429 . S
C2273 H2295 0.950 . S
C2274 H2270 0.949 . S
C2274 C2282 1.574 . S
C2274 C2290 1.368 . S
H2275 C2283 0.950 . S
H2276 C2281 0.950 . S
H2277 C2282 0.949 . S
H2278 C2284 0.950 . S
H2279 C2285 0.950 . S
H2280 C2286 0.949 . S
C2281 H2276 0.950 . S
C2281 C2283 1.327 . S
C2281 C2287 1.429 . S
C2282 C2274 1.574 . S
C2282 H2277 0.949 . S
C2282 C2288 1.368 . S
C2283 C2267 1.349 . S
C2283 H2275 0.950 . S
C2283 C2281 1.327 . S
C2284 C2272 1.349 . S
C2284 H2278 0.950 . S
C2284 C2285 1.327 . S
C2285 H2279 0.950 . S
C2285 C2284 1.327 . S
C2285 C2289 1.429 . S
C2286 C2269 1.574 . S
C2286 H2280 0.949 . S
C2286 C2290 1.368 . S
C2287 C2268 1.429 . S
C2287 C2281 1.429 . S
C2287 C2288 1.523 . S
C2288 C2269 1.368 . S
C2288 C2282 1.368 . S
C2288 C2287 1.523 . S
C2289 C2273 1.429 . S
C2289 C2285 1.429 . S
C2289 C2290 1.523 . S
C2290 C2274 1.368 . S
C2290 C2286 1.368 . S
C2290 C2289 1.523 . S
H2291 C2266 0.950 . S
H2292 C2268 0.950 . S
H2293 C2269 0.949 . S
H2294 C2271 0.950 . S
H2295 C2273 0.950 . S
C2296 C2297 1.349 1_565 S
C2296 C2298 1.327 . S
C2296 H2321 0.950 . S
C2297 C2296 1.349 1_545 S
C2297 C2313 1.349 . S
C2298 C2296 1.327 . S
C2298 C2317 1.429 . S
C2298 H2322 0.950 . S
C2299 C2316 1.574 . S
C2299 C2318 1.368 . S
C2299 H2323 0.949 . S
H2300 C2304 0.949 . S
C2301 C2302 1.349 . S
C2301 C2303 1.327 . S
C2301 H2324 0.950 . S
C2302 C2301 1.349 . S
C2302 C2314 1.349 . S
C2303 C2301 1.327 . S
C2303 C2319 1.429 . S
C2303 H2325 0.950 . S
C2304 H2300 0.949 . S
C2304 C2312 1.574 . S
C2304 C2320 1.368 . S
H2305 C2313 0.950 . S
H2306 C2311 0.950 . S
H2307 C2312 0.949 . S
H2308 C2314 0.950 . S
H2309 C2315 0.950 . S
H2310 C2316 0.949 . S
C2311 H2306 0.950 . S
C2311 C2313 1.327 1_565 S
C2311 C2317 1.429 . S
C2312 C2304 1.574 . S
C2312 H2307 0.949 . S
C2312 C2318 1.368 . S
C2313 C2297 1.349 . S
C2313 H2305 0.950 . S
C2313 C2311 1.327 1_545 S
C2314 C2302 1.349 . S
C2314 H2308 0.950 . S
C2314 C2315 1.327 . S
C2315 H2309 0.950 . S
C2315 C2314 1.327 . S
C2315 C2319 1.429 . S
C2316 C2299 1.574 . S
C2316 H2310 0.949 . S
C2316 C2320 1.368 . S
C2317 C2298 1.429 . S
C2317 C2311 1.429 . S
C2317 C2318 1.523 . S
C2318 C2299 1.368 . S
C2318 C2312 1.368 . S
C2318 C2317 1.523 . S
C2319 C2303 1.429 . S
C2319 C2315 1.429 . S
C2319 C2320 1.523 . S
C2320 C2304 1.368 . S
C2320 C2316 1.368 . S
C2320 C2319 1.523 . S
H2321 C2296 0.950 . S
H2322 C2298 0.950 . S
H2323 C2299 0.949 . S
H2324 C2301 0.950 . S
H2325 C2303 0.950 . S
C2326 C2327 1.349 . S
C2326 C2328 1.327 . S
C2326 H2351 0.950 . S
C2327 C2326 1.349 . S
C2327 C2343 1.349 . S
C2328 C2326 1.327 . S
C2328 C2347 1.429 . S
C2328 H2352 0.950 . S
C2329 C2346 1.574 . S
C2329 C2348 1.368 . S
C2329 H2353 0.949 . S
H2330 C2334 0.949 . S
C2331 C2332 1.349 . S
C2331 C2333 1.327 . S
C2331 H2354 0.950 . S
C2332 C2331 1.349 . S
C2332 C2344 1.349 . S
C2333 C2331 1.327 . S
C2333 C2349 1.429 . S
C2333 H2355 0.950 . S
C2334 H2330 0.949 . S
C2334 C2342 1.574 . S
C2334 C2350 1.368 . S
H2335 C2343 0.950 . S
H2336 C2341 0.950 . S
H2337 C2342 0.949 . S
H2338 C2344 0.950 . S
H2339 C2345 0.950 . S
H2340 C2346 0.949 . S
C2341 H2336 0.950 . S
C2341 C2343 1.327 . S
C2341 C2347 1.429 . S
C2342 C2334 1.574 . S
C2342 H2337 0.949 . S
C2342 C2348 1.368 . S
C2343 C2327 1.349 . S
C2343 H2335 0.950 . S
C2343 C2341 1.327 . S
C2344 C2332 1.349 . S
C2344 H2338 0.950 . S
C2344 C2345 1.327 . S
C2345 H2339 0.950 . S
C2345 C2344 1.327 . S
C2345 C2349 1.429 . S
C2346 C2329 1.574 . S
C2346 H2340 0.949 . S
C2346 C2350 1.368 . S
C2347 C2328 1.429 . S
C2347 C2341 1.429 . S
C2347 C2348 1.523 . S
C2348 C2329 1.368 . S
C2348 C2342 1.368 . S
C2348 C2347 1.523 . S
C2349 C2333 1.429 . S
C2349 C2345 1.429 . S
C2349 C2350 1.523 . S
C2350 C2334 1.368 . S
C2350 C2346 1.368 . S
C2350 C2349 1.523 . S
H2351 C2326 0.950 . S
H2352 C2328 0.950 . S
H2353 C2329 0.949 . S
H2354 C2331 0.950 . S
H2355 C2333 0.950 . S
C2356 C2357 1.349 . S
C2356 C2358 1.327 . S
C2356 H2381 0.950 . S
C2357 C2356 1.349 . S
C2357 C2373 1.349 . S
C2358 C2356 1.327 . S
C2358 C2377 1.429 . S
C2358 H2382 0.950 . S
C2359 C2376 1.574 . S
C2359 C2378 1.368 . S
C2359 H2383 0.949 . S
H2360 C2364 0.949 . S
C2361 C2362 1.349 . S
C2361 C2363 1.327 . S
C2361 H2384 0.950 . S
C2362 C2361 1.349 . S
C2362 C2374 1.349 . S
C2363 C2361 1.327 . S
C2363 C2379 1.429 . S
C2363 H2385 0.950 . S
C2364 H2360 0.949 . S
C2364 C2372 1.574 . S
C2364 C2380 1.368 . S
H2365 C2373 0.950 . S
H2366 C2371 0.950 . S
H2367 C2372 0.949 . S
H2368 C2374 0.950 . S
H2369 C2375 0.950 . S
H2370 C2376 0.949 . S
C2371 H2366 0.950 . S
C2371 C2373 1.327 . S
C2371 C2377 1.429 . S
C2372 C2364 1.574 . S
C2372 H2367 0.949 . S
C2372 C2378 1.368 . S
C2373 C2357 1.349 . S
C2373 H2365 0.950 . S
C2373 C2371 1.327 . S
C2374 C2362 1.349 . S
C2374 H2368 0.950 . S
C2374 C2375 1.327 . S
C2375 H2369 0.950 . S
C2375 C2374 1.327 . S
C2375 C2379 1.429 . S
C2376 C2359 1.574 . S
C2376 H2370 0.949 . S
C2376 C2380 1.368 . S
C2377 C2358 1.429 . S
C2377 C2371 1.429 . S
C2377 C2378 1.523 . S
C2378 C2359 1.368 . S
C2378 C2372 1.368 . S
C2378 C2377 1.523 . S
C2379 C2363 1.429 . S
C2379 C2375 1.429 . S
C2379 C2380 1.523 . S
C2380 C2364 1.368 . S
C2380 C2376 1.368 . S
C2380 C2379 1.523 . S
H2381 C2356 0.950 . S
H2382 C2358 0.950 . S
H2383 C2359 0.949 . S
H2384 C2361 0.950 . S
H2385 C2363 0.950 . S
C2386 C2387 1.349 . S
C2386 C2388 1.327 . S
C2386 H2411 0.950 . S
C2387 C2386 1.349 . S
C2387 C2403 1.349 . S
C2388 C2386 1.327 . S
C2388 C2407 1.429 . S
C2388 H2412 0.950 . S
C2389 C2406 1.574 . S
C2389 C2408 1.368 . S
C2389 H2413 0.949 . S
H2390 C2394 0.949 . S
C2391 C2392 1.349 . S
C2391 C2393 1.327 . S
C2391 H2414 0.950 . S
C2392 C2391 1.349 . S
C2392 C2404 1.349 . S
C2393 C2391 1.327 . S
C2393 C2409 1.429 . S
C2393 H2415 0.950 . S
C2394 H2390 0.949 . S
C2394 C2402 1.574 . S
C2394 C2410 1.368 . S
H2395 C2403 0.950 . S
H2396 C2401 0.950 . S
H2397 C2402 0.949 . S
H2398 C2404 0.950 . S
H2399 C2405 0.950 . S
H2400 C2406 0.949 . S
C2401 H2396 0.950 . S
C2401 C2403 1.327 . S
C2401 C2407 1.429 . S
C2402 C2394 1.574 . S
C2402 H2397 0.949 . S
C2402 C2408 1.368 . S
C2403 C2387 1.349 . S
C2403 H2395 0.950 . S
C2403 C2401 1.327 . S
C2404 C2392 1.349 . S
C2404 H2398 0.950 . S
C2404 C2405 1.327 . S
C2405 H2399 0.950 . S
C2405 C2404 1.327 . S
C2405 C2409 1.429 . S
C2406 C2389 1.574 . S
C2406 H2400 0.949 . S
C2406 C2410 1.368 . S
C2407 C2388 1.429 . S
C2407 C2401 1.429 . S
C2407 C2408 1.523 . S
C2408 C2389 1.368 . S
C2408 C2402 1.368 . S
C2408 C2407 1.523 . S
C2409 C2393 1.429 . S
C2409 C2405 1.429 . S
C2409 C2410 1.523 . S
C2410 C2394 1.368 . S
C2410 C2406 1.368 . S
C2410 C2409 1.523 . S
H2411 C2386 0.950 . S
H2412 C2388 0.950 . S
H2413 C2389 0.949 . S
H2414 C2391 0.950 . S
H2415 C2393 0.950 . S
C2416 C2417 1.349 . S
C2416 C2418 1.327 . S
C2416 H2441 0.950 . S
C2417 C2416 1.349 . S
C2417 C2433 1.349 . S
C2418 C2416 1.327 . S
C2418 C2437 1.429 . S
C2418 H2442 0.950 . S
C2419 C2436 1.574 . S
C2419 C2438 1.368 . S
C2419 H2443 0.949 . S
H2420 C2424 0.949 . S
C2421 C2422 1.349 . S
C2421 C2423 1.327 . S
C2421 H2444 0.950 . S
C2422 C2421 1.349 . S
C2422 C2434 1.349 . S
C2423 C2421 1.327 . S
C2423 C2439 1.429 . S
C2423 H2445 0.950 . S
C2424 H2420 0.949 . S
C2424 C2432 1.574 . S
C2424 C2440 1.368 . S
H2425 C2433 0.950 . S
H2426 C2431 0.950 . S
H2427 C2432 0.949 . S
H2428 C2434 0.950 . S
H2429 C2435 0.950 . S
H2430 C2436 0.949 . S
C2431 H2426 0.950 . S
C2431 C2433 1.327 . S
C2431 C2437 1.429 . S
C2432 C2424 1.574 . S
C2432 H2427 0.949 . S
C2432 C2438 1.368 . S
C2433 C2417 1.349 . S
C2433 H2425 0.950 . S
C2433 C2431 1.327 . S
C2434 C2422 1.349 . S
C2434 H2428 0.950 . S
C2434 C2435 1.327 . S
C2435 H2429 0.950 . S
C2435 C2434 1.327 . S
C2435 C2439 1.429 . S
C2436 C2419 1.574 . S
C2436 H2430 0.949 . S
C2436 C2440 1.368 . S
C2437 C2418 1.429 . S
C2437 C2431 1.429 . S
C2437 C2438 1.523 . S
C2438 C2419 1.368 . S
C2438 C2432 1.368 . S
C2438 C2437 1.523 . S
C2439 C2423 1.429 . S
C2439 C2435 1.429 . S
C2439 C2440 1.523 . S
C2440 C2424 1.368 . S
C2440 C2436 1.368 . S
C2440 C2439 1.523 . S
H2441 C2416 0.950 . S
H2442 C2418 0.950 . S
H2443 C2419 0.949 . S
H2444 C2421 0.950 . S
H2445 C2423 0.950 . S
C2446 C2447 1.349 . S
C2446 C2448 1.327 . S
C2446 H2471 0.950 . S
C2447 C2446 1.349 . S
C2447 C2463 1.349 . S
C2448 C2446 1.327 . S
C2448 C2467 1.429 . S
C2448 H2472 0.950 . S
C2449 C2466 1.574 . S
C2449 C2468 1.368 . S
C2449 H2473 0.949 . S
H2450 C2454 0.949 . S
C2451 C2452 1.349 . S
C2451 C2453 1.327 . S
C2451 H2474 0.950 . S
C2452 C2451 1.349 . S
C2452 C2464 1.349 . S
C2453 C2451 1.327 . S
C2453 C2469 1.429 . S
C2453 H2475 0.950 . S
C2454 H2450 0.949 . S
C2454 C2462 1.574 . S
C2454 C2470 1.368 . S
H2455 C2463 0.950 . S
H2456 C2461 0.950 . S
H2457 C2462 0.949 . S
H2458 C2464 0.950 . S
H2459 C2465 0.950 . S
H2460 C2466 0.949 . S
C2461 H2456 0.950 . S
C2461 C2463 1.327 . S
C2461 C2467 1.429 . S
C2462 C2454 1.574 . S
C2462 H2457 0.949 . S
C2462 C2468 1.368 . S
C2463 C2447 1.349 . S
C2463 H2455 0.950 . S
C2463 C2461 1.327 . S
C2464 C2452 1.349 . S
C2464 H2458 0.950 . S
C2464 C2465 1.327 . S
C2465 H2459 0.950 . S
C2465 C2464 1.327 . S
C2465 C2469 1.429 . S
C2466 C2449 1.574 . S
C2466 H2460 0.949 . S
C2466 C2470 1.368 . S
C2467 C2448 1.429 . S
C2467 C2461 1.429 . S
C2467 C2468 1.523 . S
C2468 C2449 1.368 . S
C2468 C2462 1.368 . S
C2468 C2467 1.523 . S
C2469 C2453 1.429 . S
C2469 C2465 1.429 . S
C2469 C2470 1.523 . S
C2470 C2454 1.368 . S
C2470 C2466 1.368 . S
C2470 C2469 1.523 . S
H2471 C2446 0.950 . S
H2472 C2448 0.950 . S
H2473 C2449 0.949 . S
H2474 C2451 0.950 . S
H2475 C2453 0.950 . S
C2476 C2477 1.349 . S
C2476 C2478 1.327 . S
C2476 H2501 0.950 . S
C2477 C2476 1.349 . S
C2477 C2493 1.349 . S
C2478 C2476 1.327 . S
C2478 C2497 1.429 . S
C2478 H2502 0.950 . S
C2479 C2496 1.574 . S
C2479 C2498 1.368 . S
C2479 H2503 0.949 . S
H2480 C2484 0.949 . S
C2481 C2482 1.349 . S
C2481 C2483 1.327 1_554 S
C2481 H2504 0.950 . S
C2482 C2481 1.349 . S
C2482 C2494 1.349 . S
C2483 C2481 1.327 1_556 S
C2483 C2499 1.429 1_556 S
C2483 H2505 0.950 . S
C2484 H2480 0.949 . S
C2484 C2492 1.574 1_554 S
C2484 C2500 1.368 1_554 S
H2485 C2493 0.950 . S
H2486 C2491 0.950 . S
H2487 C2492 0.949 . S
H2488 C2494 0.950 . S
H2489 C2495 0.950 . S
H2490 C2496 0.949 . S
C2491 H2486 0.950 . S
C2491 C2493 1.327 . S
C2491 C2497 1.429 . S
C2492 C2484 1.574 1_556 S
C2492 H2487 0.949 . S
C2492 C2498 1.368 . S
C2493 C2477 1.349 . S
C2493 H2485 0.950 . S
C2493 C2491 1.327 . S
C2494 C2482 1.349 . S
C2494 H2488 0.950 . S
C2494 C2495 1.327 . S
C2495 H2489 0.950 . S
C2495 C2494 1.327 . S
C2495 C2499 1.429 . S
C2496 C2479 1.574 . S
C2496 H2490 0.949 . S
C2496 C2500 1.368 . S
C2497 C2478 1.429 . S
C2497 C2491 1.429 . S
C2497 C2498 1.523 . S
C2498 C2479 1.368 . S
C2498 C2492 1.368 . S
C2498 C2497 1.523 . S
C2499 C2483 1.429 1_554 S
C2499 C2495 1.429 . S
C2499 C2500 1.523 1_554 S
C2500 C2484 1.368 1_556 S
C2500 C2496 1.368 . S
C2500 C2499 1.523 1_556 S
H2501 C2476 0.950 . S
H2502 C2478 0.950 . S
H2503 C2479 0.949 . S
H2504 C2481 0.950 . S
H2505 C2483 0.950 . S
C2506 C2507 1.349 . S
C2506 C2508 1.273 1_455 S
C2506 H2531 0.950 . S
C2507 C2506 1.349 . S
C2507 C2523 1.349 1_455 S
C2508 C2506 1.273 1_655 S
C2508 C2527 1.487 . S
C2508 H2532 0.950 1_655 S
C2509 C2526 1.574 . S
C2509 C2528 1.368 . S
C2509 H2533 0.949 . S
H2510 C2514 0.949 . S
C2511 C2512 1.349 . S
C2511 C2513 1.327 . S
C2511 H2534 0.950 . S
C2512 C2511 1.349 . S
C2512 C2524 1.349 . S
C2513 C2511 1.327 . S
C2513 C2529 1.429 . S
C2513 H2535 0.950 . S
C2514 H2510 0.949 . S
C2514 C2522 1.574 . S
C2514 C2530 1.368 . S
H2515 C2523 0.950 . S
H2516 C2521 0.950 . S
H2517 C2522 0.949 . S
H2518 C2524 0.950 . S
H2519 C2525 0.950 . S
H2520 C2526 0.949 . S
C2521 H2516 0.950 . S
C2521 C2523 1.327 . S
C2521 C2527 1.429 . S
C2522 C2514 1.574 . S
C2522 H2517 0.949 . S
C2522 C2528 1.368 . S
C2523 C2507 1.349 1_655 S
C2523 H2515 0.950 . S
C2523 C2521 1.327 . S
C2524 C2512 1.349 . S
C2524 H2518 0.950 . S
C2524 C2525 1.327 . S
C2525 H2519 0.950 . S
C2525 C2524 1.327 . S
C2525 C2529 1.429 . S
C2526 C2509 1.574 . S
C2526 H2520 0.949 . S
C2526 C2530 1.368 . S
C2527 C2508 1.487 . S
C2527 C2521 1.429 . S
C2527 C2528 1.523 . S
C2528 C2509 1.368 . S
C2528 C2522 1.368 . S
C2528 C2527 1.523 . S
C2529 C2513 1.429 . S
C2529 C2525 1.429 . S
C2529 C2530 1.523 . S
C2530 C2514 1.368 . S
C2530 C2526 1.368 . S
C2530 C2529 1.523 . S
H2531 C2506 0.950 . S
H2532 C2508 0.950 1_455 S
H2533 C2509 0.949 . S
H2534 C2511 0.950 . S
H2535 C2513 0.950 . S
C2536 C2537 1.349 . S
C2536 C2538 1.327 . S
C2536 H2561 0.950 . S
C2537 C2536 1.349 . S
C2537 C2553 1.349 . S
C2538 C2536 1.327 . S
C2538 C2557 1.429 . S
C2538 H2562 0.950 . S
C2539 C2556 1.574 . S
C2539 C2558 1.368 . S
C2539 H2563 0.949 . S
H2540 C2544 0.949 . S
C2541 C2542 1.349 . S
C2541 C2543 1.327 . S
C2541 H2564 0.950 . S
C2542 C2541 1.349 . S
C2542 C2554 1.349 . S
C2543 C2541 1.327 . S
C2543 C2559 1.429 . S
C2543 H2565 0.950 . S
C2544 H2540 0.949 . S
C2544 C2552 1.574 . S
C2544 C2560 1.368 . S
H2545 C2553 0.950 . S
H2546 C2551 0.950 . S
H2547 C2552 0.949 . S
H2548 C2554 0.950 . S
H2549 C2555 0.950 . S
H2550 C2556 0.949 . S
C2551 H2546 0.950 . S
C2551 C2553 1.327 . S
C2551 C2557 1.429 . S
C2552 C2544 1.574 . S
C2552 H2547 0.949 . S
C2552 C2558 1.368 . S
C2553 C2537 1.349 . S
C2553 H2545 0.950 . S
C2553 C2551 1.327 . S
C2554 C2542 1.349 . S
C2554 H2548 0.950 . S
C2554 C2555 1.327 . S
C2555 H2549 0.950 . S
C2555 C2554 1.327 . S
C2555 C2559 1.429 . S
C2556 C2539 1.574 . S
C2556 H2550 0.949 . S
C2556 C2560 1.368 . S
C2557 C2538 1.429 . S
C2557 C2551 1.429 . S
C2557 C2558 1.523 . S
C2558 C2539 1.368 . S
C2558 C2552 1.368 . S
C2558 C2557 1.523 . S
C2559 C2543 1.429 . S
C2559 C2555 1.429 . S
C2559 C2560 1.523 . S
C2560 C2544 1.368 . S
C2560 C2556 1.368 . S
C2560 C2559 1.523 . S
H2561 C2536 0.950 . S
H2562 C2538 0.950 . S
H2563 C2539 0.949 . S
H2564 C2541 0.950 . S
H2565 C2543 0.950 . S
C2566 C2567 1.349 . S
C2566 C2568 1.327 . S
C2566 H2591 0.950 . S
C2567 C2566 1.349 . S
C2567 C2583 1.349 . S
C2568 C2566 1.327 . S
C2568 C2587 1.429 . S
C2568 H2592 0.950 . S
C2569 C2586 1.574 . S
C2569 C2588 1.368 . S
C2569 H2593 0.949 1_655 S
H2570 C2574 0.949 . S
C2571 C2572 1.349 . S
C2571 C2573 1.327 . S
C2571 H2594 0.950 . S
C2572 C2571 1.349 . S
C2572 C2584 1.349 . S
C2573 C2571 1.327 . S
C2573 C2589 1.429 . S
C2573 H2595 0.950 . S
C2574 H2570 0.949 . S
C2574 C2582 1.574 . S
C2574 C2590 1.368 . S
H2575 C2583 0.950 . S
H2576 C2581 0.950 . S
H2577 C2582 0.949 . S
H2578 C2584 0.950 . S
H2579 C2585 0.950 . S
H2580 C2586 0.949 . S
C2581 H2576 0.950 . S
C2581 C2583 1.327 . S
C2581 C2587 1.429 . S
C2582 C2574 1.574 . S
C2582 H2577 0.949 . S
C2582 C2588 1.368 . S
C2583 C2567 1.349 . S
C2583 H2575 0.950 . S
C2583 C2581 1.327 . S
C2584 C2572 1.349 . S
C2584 H2578 0.950 . S
C2584 C2585 1.327 . S
C2585 H2579 0.950 . S
C2585 C2584 1.327 . S
C2585 C2589 1.429 . S
C2586 C2569 1.574 . S
C2586 H2580 0.949 . S
C2586 C2590 1.368 . S
C2587 C2568 1.429 . S
C2587 C2581 1.429 . S
C2587 C2588 1.523 1_455 S
C2588 C2569 1.368 . S
C2588 C2582 1.368 . S
C2588 C2587 1.523 1_655 S
C2589 C2573 1.429 . S
C2589 C2585 1.429 . S
C2589 C2590 1.523 . S
C2590 C2574 1.368 . S
C2590 C2586 1.368 . S
C2590 C2589 1.523 . S
H2591 C2566 0.950 . S
H2592 C2568 0.950 . S
H2593 C2569 0.949 1_455 S
H2594 C2571 0.950 . S
H2595 C2573 0.950 . S
C2596 C2597 1.349 . S
C2596 C2598 1.327 . S
C2596 H2621 0.950 . S
C2597 C2596 1.349 . S
C2597 C2613 1.349 1_655 S
C2598 C2596 1.327 . S
C2598 C2617 1.429 1_655 S
C2598 H2622 0.950 . S
C2599 C2616 1.574 . S
C2599 C2618 1.368 . S
C2599 H2623 0.949 . S
H2600 C2604 0.949 1_655 S
C2601 C2602 1.349 . S
C2601 C2603 1.327 . S
C2601 H2624 0.950 . S
C2602 C2601 1.349 . S
C2602 C2614 1.349 . S
C2603 C2601 1.327 . S
C2603 C2619 1.429 . S
C2603 H2625 0.950 . S
C2604 H2600 0.949 1_455 S
C2604 C2612 1.574 1_455 S
C2604 C2620 1.368 . S
H2605 C2613 0.950 . S
H2606 C2611 0.950 . S
H2607 C2612 0.949 . S
H2608 C2614 0.950 . S
H2609 C2615 0.950 . S
H2610 C2616 0.949 . S
C2611 H2606 0.950 . S
C2611 C2613 1.327 . S
C2611 C2617 1.429 . S
C2612 C2604 1.574 1_655 S
C2612 H2607 0.949 . S
C2612 C2618 1.368 1_655 S
C2613 C2597 1.349 1_455 S
C2613 H2605 0.950 . S
C2613 C2611 1.327 . S
C2614 C2602 1.349 . S
C2614 H2608 0.950 . S
C2614 C2615 1.327 . S
C2615 H2609 0.950 . S
C2615 C2614 1.327 . S
C2615 C2619 1.429 . S
C2616 C2599 1.574 . S
C2616 H2610 0.949 . S
C2616 C2620 1.368 . S
C2617 C2598 1.429 1_455 S
C2617 C2611 1.429 . S
C2617 C2618 1.523 . S
C2618 C2599 1.368 . S
C2618 C2612 1.368 1_455 S
C2618 C2617 1.523 . S
C2619 C2603 1.429 . S
C2619 C2615 1.429 . S
C2619 C2620 1.523 . S
C2620 C2604 1.368 . S
C2620 C2616 1.368 . S
C2620 C2619 1.523 . S
H2621 C2596 0.950 . S
H2622 C2598 0.950 . S
H2623 C2599 0.949 . S
H2624 C2601 0.950 . S
H2625 C2603 0.950 . S
C2626 C2627 1.349 . S
C2626 C2628 1.327 . S
C2626 H2651 0.950 . S
C2627 C2626 1.349 . S
C2627 C2643 1.349 . S
C2628 C2626 1.327 . S
C2628 C2647 1.429 . S
C2628 H2652 0.950 . S
C2629 C2646 1.574 . S
C2629 C2648 1.368 . S
C2629 H2653 0.949 . S
H2630 C2634 0.949 . S
C2631 C2632 1.349 . S
C2631 C2633 1.327 . S
C2631 H2654 0.950 . S
C2632 C2631 1.349 . S
C2632 C2644 1.349 . S
C2633 C2631 1.327 . S
C2633 C2649 1.429 . S
C2633 H2655 0.950 . S
C2634 H2630 0.949 . S
C2634 C2642 1.574 . S
C2634 C2650 1.368 . S
H2635 C2643 0.950 . S
H2636 C2641 0.950 . S
H2637 C2642 0.949 . S
H2638 C2644 0.950 . S
H2639 C2645 0.950 . S
H2640 C2646 0.949 . S
C2641 H2636 0.950 . S
C2641 C2643 1.327 . S
C2641 C2647 1.429 . S
C2642 C2634 1.574 . S
C2642 H2637 0.949 . S
C2642 C2648 1.368 . S
C2643 C2627 1.349 . S
C2643 H2635 0.950 . S
C2643 C2641 1.327 . S
C2644 C2632 1.349 . S
C2644 H2638 0.950 . S
C2644 C2645 1.327 . S
C2645 H2639 0.950 . S
C2645 C2644 1.327 . S
C2645 C2649 1.429 . S
C2646 C2629 1.574 . S
C2646 H2640 0.949 . S
C2646 C2650 1.368 . S
C2647 C2628 1.429 . S
C2647 C2641 1.429 . S
C2647 C2648 1.523 . S
C2648 C2629 1.368 . S
C2648 C2642 1.368 . S
C2648 C2647 1.523 . S
C2649 C2633 1.429 . S
C2649 C2645 1.429 . S
C2649 C2650 1.523 . S
C2650 C2634 1.368 . S
C2650 C2646 1.368 . S
C2650 C2649 1.523 . S
H2651 C2626 0.950 . S
H2652 C2628 0.950 . S
H2653 C2629 0.949 . S
H2654 C2631 0.950 . S
H2655 C2633 0.950 . S
C2656 C2657 1.349 . S
C2656 C2658 1.327 . S
C2656 H2681 0.950 . S
C2657 C2656 1.349 . S
C2657 C2673 1.349 . S
C2658 C2656 1.327 . S
C2658 C2677 1.429 . S
C2658 H2682 0.950 . S
C2659 C2676 1.574 . S
C2659 C2678 1.368 . S
C2659 H2683 0.949 . S
H2660 C2664 0.949 . S
C2661 C2662 1.349 . S
C2661 C2663 1.327 . S
C2661 H2684 0.950 . S
C2662 C2661 1.349 . S
C2662 C2674 1.349 . S
C2663 C2661 1.327 . S
C2663 C2679 1.429 . S
C2663 H2685 0.950 . S
C2664 H2660 0.949 . S
C2664 C2672 1.574 . S
C2664 C2680 1.368 . S
H2665 C2673 0.950 . S
H2666 C2671 0.950 . S
H2667 C2672 0.949 . S
H2668 C2674 0.950 . S
H2669 C2675 0.950 . S
H2670 C2676 0.949 . S
C2671 H2666 0.950 . S
C2671 C2673 1.327 . S
C2671 C2677 1.429 . S
C2672 C2664 1.574 . S
C2672 H2667 0.949 . S
C2672 C2678 1.368 . S
C2673 C2657 1.349 . S
C2673 H2665 0.950 . S
C2673 C2671 1.327 . S
C2674 C2662 1.349 . S
C2674 H2668 0.950 . S
C2674 C2675 1.327 . S
C2675 H2669 0.950 . S
C2675 C2674 1.327 . S
C2675 C2679 1.429 . S
C2676 C2659 1.574 . S
C2676 H2670 0.949 . S
C2676 C2680 1.368 . S
C2677 C2658 1.429 . S
C2677 C2671 1.429 . S
C2677 C2678 1.523 . S
C2678 C2659 1.368 . S
C2678 C2672 1.368 . S
C2678 C2677 1.523 . S
C2679 C2663 1.429 . S
C2679 C2675 1.429 . S
C2679 C2680 1.523 . S
C2680 C2664 1.368 . S
C2680 C2676 1.368 . S
C2680 C2679 1.523 . S
H2681 C2656 0.950 . S
H2682 C2658 0.950 . S
H2683 C2659 0.949 . S
H2684 C2661 0.950 . S
H2685 C2663 0.950 . S
C2686 C2687 1.349 . S
C2686 C2688 1.327 . S
C2686 H2711 0.950 . S
C2687 C2686 1.349 . S
C2687 C2703 1.349 . S
C2688 C2686 1.327 . S
C2688 C2707 1.429 . S
C2688 H2712 0.950 . S
C2689 C2706 1.574 . S
C2689 C2708 1.368 . S
C2689 H2713 0.949 . S
H2690 C2694 0.949 . S
C2691 C2692 1.349 . S
C2691 C2693 1.327 . S
C2691 H2714 0.950 . S
C2692 C2691 1.349 . S
C2692 C2704 1.349 . S
C2693 C2691 1.327 . S
C2693 C2709 1.429 . S
C2693 H2715 0.950 . S
C2694 H2690 0.949 . S
C2694 C2702 1.574 . S
C2694 C2710 1.368 . S
H2695 C2703 0.950 . S
H2696 C2701 0.950 . S
H2697 C2702 0.949 . S
H2698 C2704 0.950 . S
H2699 C2705 0.950 . S
H2700 C2706 0.949 . S
C2701 H2696 0.950 . S
C2701 C2703 1.327 . S
C2701 C2707 1.429 . S
C2702 C2694 1.574 . S
C2702 H2697 0.949 . S
C2702 C2708 1.368 . S
C2703 C2687 1.349 . S
C2703 H2695 0.950 . S
C2703 C2701 1.327 . S
C2704 C2692 1.349 . S
C2704 H2698 0.950 . S
C2704 C2705 1.327 . S
C2705 H2699 0.950 . S
C2705 C2704 1.327 . S
C2705 C2709 1.429 . S
C2706 C2689 1.574 . S
C2706 H2700 0.949 . S
C2706 C2710 1.368 . S
C2707 C2688 1.429 . S
C2707 C2701 1.429 . S
C2707 C2708 1.523 . S
C2708 C2689 1.368 . S
C2708 C2702 1.368 . S
C2708 C2707 1.523 . S
C2709 C2693 1.429 . S
C2709 C2705 1.429 . S
C2709 C2710 1.523 . S
C2710 C2694 1.368 . S
C2710 C2706 1.368 . S
C2710 C2709 1.523 . S
H2711 C2686 0.950 . S
H2712 C2688 0.950 . S
H2713 C2689 0.949 . S
H2714 C2691 0.950 . S
H2715 C2693 0.950 . S
C2716 C2717 1.349 . S
C2716 C2718 1.327 . S
C2716 H2741 0.950 . S
C2717 C2716 1.349 . S
C2717 C2733 1.349 . S
C2718 C2716 1.327 . S
C2718 C2737 1.429 . S
C2718 H2742 0.950 . S
C2719 C2736 1.574 . S
C2719 C2738 1.368 . S
C2719 H2743 0.949 . S
H2720 C2724 0.949 . S
C2721 C2722 1.349 . S
C2721 C2723 1.327 . S
C2721 H2744 0.950 . S
C2722 C2721 1.349 . S
C2722 C2734 1.349 . S
C2723 C2721 1.327 . S
C2723 C2739 1.429 . S
C2723 H2745 0.950 . S
C2724 H2720 0.949 . S
C2724 C2732 1.574 . S
C2724 C2740 1.368 . S
H2725 C2733 0.950 . S
H2726 C2731 0.950 . S
H2727 C2732 0.949 . S
H2728 C2734 0.950 . S
H2729 C2735 0.950 . S
H2730 C2736 0.949 . S
C2731 H2726 0.950 . S
C2731 C2733 1.327 . S
C2731 C2737 1.429 . S
C2732 C2724 1.574 . S
C2732 H2727 0.949 . S
C2732 C2738 1.368 . S
C2733 C2717 1.349 . S
C2733 H2725 0.950 . S
C2733 C2731 1.327 . S
C2734 C2722 1.349 . S
C2734 H2728 0.950 . S
C2734 C2735 1.327 . S
C2735 H2729 0.950 . S
C2735 C2734 1.327 . S
C2735 C2739 1.429 . S
C2736 C2719 1.574 . S
C2736 H2730 0.949 . S
C2736 C2740 1.368 . S
C2737 C2718 1.429 . S
C2737 C2731 1.429 . S
C2737 C2738 1.523 . S
C2738 C2719 1.368 . S
C2738 C2732 1.368 . S
C2738 C2737 1.523 . S
C2739 C2723 1.429 . S
C2739 C2735 1.429 . S
C2739 C2740 1.523 . S
C2740 C2724 1.368 . S
C2740 C2736 1.368 . S
C2740 C2739 1.523 . S
H2741 C2716 0.950 . S
H2742 C2718 0.950 . S
H2743 C2719 0.949 . S
H2744 C2721 0.950 . S
H2745 C2723 0.950 . S
C2746 C2747 1.349 . S
C2746 C2748 1.327 . S
C2746 H2771 0.950 . S
C2747 C2746 1.349 . S
C2747 C2763 1.349 . S
C2748 C2746 1.327 . S
C2748 C2767 1.429 . S
C2748 H2772 0.950 . S
C2749 C2766 1.574 . S
C2749 C2768 1.368 . S
C2749 H2773 0.949 . S
H2750 C2754 0.949 . S
C2751 C2752 1.349 . S
C2751 C2753 1.327 . S
C2751 H2774 0.950 . S
C2752 C2751 1.349 . S
C2752 C2764 1.349 . S
C2753 C2751 1.327 . S
C2753 C2769 1.429 . S
C2753 H2775 0.950 . S
C2754 H2750 0.949 . S
C2754 C2762 1.574 . S
C2754 C2770 1.368 . S
H2755 C2763 0.950 . S
H2756 C2761 0.950 . S
H2757 C2762 0.949 . S
H2758 C2764 0.950 . S
H2759 C2765 0.950 . S
H2760 C2766 0.949 . S
C2761 H2756 0.950 . S
C2761 C2763 1.327 . S
C2761 C2767 1.429 . S
C2762 C2754 1.574 . S
C2762 H2757 0.949 . S
C2762 C2768 1.368 . S
C2763 C2747 1.349 . S
C2763 H2755 0.950 . S
C2763 C2761 1.327 . S
C2764 C2752 1.349 . S
C2764 H2758 0.950 . S
C2764 C2765 1.327 . S
C2765 H2759 0.950 . S
C2765 C2764 1.327 . S
C2765 C2769 1.429 . S
C2766 C2749 1.574 . S
C2766 H2760 0.949 . S
C2766 C2770 1.368 . S
C2767 C2748 1.429 . S
C2767 C2761 1.429 . S
C2767 C2768 1.523 . S
C2768 C2749 1.368 . S
C2768 C2762 1.368 . S
C2768 C2767 1.523 . S
C2769 C2753 1.429 . S
C2769 C2765 1.429 . S
C2769 C2770 1.523 . S
C2770 C2754 1.368 . S
C2770 C2766 1.368 . S
C2770 C2769 1.523 . S
H2771 C2746 0.950 . S
H2772 C2748 0.950 . S
H2773 C2749 0.949 . S
H2774 C2751 0.950 . S
H2775 C2753 0.950 . S
C2776 C2777 1.349 . S
C2776 C2778 1.327 . S
C2776 H2801 0.950 . S
C2777 C2776 1.349 . S
C2777 C2793 1.349 . S
C2778 C2776 1.327 . S
C2778 C2797 1.429 . S
C2778 H2802 0.950 . S
C2779 C2796 1.574 . S
C2779 C2798 1.368 . S
C2779 H2803 0.949 . S
H2780 C2784 0.949 . S
C2781 C2782 1.349 . S
C2781 C2783 1.327 . S
C2781 H2804 0.950 . S
C2782 C2781 1.349 . S
C2782 C2794 1.349 . S
C2783 C2781 1.327 . S
C2783 C2799 1.429 . S
C2783 H2805 0.950 . S
C2784 H2780 0.949 . S
C2784 C2792 1.574 . S
C2784 C2800 1.368 . S
H2785 C2793 0.950 . S
H2786 C2791 0.950 . S
H2787 C2792 0.949 . S
H2788 C2794 0.950 . S
H2789 C2795 0.950 . S
H2790 C2796 0.949 . S
C2791 H2786 0.950 . S
C2791 C2793 1.327 . S
C2791 C2797 1.429 . S
C2792 C2784 1.574 . S
C2792 H2787 0.949 . S
C2792 C2798 1.368 . S
C2793 C2777 1.349 . S
C2793 H2785 0.950 . S
C2793 C2791 1.327 . S
C2794 C2782 1.349 . S
C2794 H2788 0.950 . S
C2794 C2795 1.327 . S
C2795 H2789 0.950 . S
C2795 C2794 1.327 . S
C2795 C2799 1.429 . S
C2796 C2779 1.574 . S
C2796 H2790 0.949 . S
C2796 C2800 1.368 . S
C2797 C2778 1.429 . S
C2797 C2791 1.429 . S
C2797 C2798 1.523 . S
C2798 C2779 1.368 . S
C2798 C2792 1.368 . S
C2798 C2797 1.523 . S
C2799 C2783 1.429 . S
C2799 C2795 1.429 . S
C2799 C2800 1.523 . S
C2800 C2784 1.368 . S
C2800 C2796 1.368 . S
C2800 C2799 1.523 . S
H2801 C2776 0.950 . S
H2802 C2778 0.950 . S
H2803 C2779 0.949 . S
H2804 C2781 0.950 . S
H2805 C2783 0.950 . S
C2806 C2807 1.349 . S
C2806 C2808 1.327 . S
C2806 H2831 0.950 . S
C2807 C2806 1.349 . S
C2807 C2823 1.349 . S
C2808 C2806 1.327 . S
C2808 C2827 1.429 . S
C2808 H2832 0.950 . S
C2809 C2826 1.574 . S
C2809 C2828 1.368 . S
C2809 H2833 0.949 . S
H2810 C2814 0.949 . S
C2811 C2812 1.349 . S
C2811 C2813 1.327 . S
C2811 H2834 0.950 . S
C2812 C2811 1.349 . S
C2812 C2824 1.349 . S
C2813 C2811 1.327 . S
C2813 C2829 1.429 . S
C2813 H2835 0.950 . S
C2814 H2810 0.949 . S
C2814 C2822 1.574 . S
C2814 C2830 1.368 . S
H2815 C2823 0.950 . S
H2816 C2821 0.950 . S
H2817 C2822 0.949 . S
H2818 C2824 0.950 . S
H2819 C2825 0.950 . S
H2820 C2826 0.949 . S
C2821 H2816 0.950 . S
C2821 C2823 1.327 . S
C2821 C2827 1.429 . S
C2822 C2814 1.574 . S
C2822 H2817 0.949 . S
C2822 C2828 1.368 . S
C2823 C2807 1.349 . S
C2823 H2815 0.950 . S
C2823 C2821 1.327 . S
C2824 C2812 1.349 . S
C2824 H2818 0.950 . S
C2824 C2825 1.327 . S
C2825 H2819 0.950 . S
C2825 C2824 1.327 . S
C2825 C2829 1.429 . S
C2826 C2809 1.574 . S
C2826 H2820 0.949 . S
C2826 C2830 1.368 . S
C2827 C2808 1.429 . S
C2827 C2821 1.429 . S
C2827 C2828 1.523 . S
C2828 C2809 1.368 . S
C2828 C2822 1.368 . S
C2828 C2827 1.523 . S
C2829 C2813 1.429 . S
C2829 C2825 1.429 . S
C2829 C2830 1.523 . S
C2830 C2814 1.368 . S
C2830 C2826 1.368 . S
C2830 C2829 1.523 . S
H2831 C2806 0.950 . S
H2832 C2808 0.950 . S
H2833 C2809 0.949 . S
H2834 C2811 0.950 . S
H2835 C2813 0.950 . S
C2836 C2837 1.349 . S
C2836 C2838 1.327 . S
C2836 H2861 0.950 . S
C2837 C2836 1.349 . S
C2837 C2853 1.349 . S
C2838 C2836 1.327 . S
C2838 C2857 1.429 . S
C2838 H2862 0.950 . S
C2839 C2856 1.574 . S
C2839 C2858 1.368 . S
C2839 H2863 0.949 . S
H2840 C2844 0.949 . S
C2841 C2842 1.349 . S
C2841 C2843 1.327 . S
C2841 H2864 0.950 . S
C2842 C2841 1.349 . S
C2842 C2854 1.349 . S
C2843 C2841 1.327 . S
C2843 C2859 1.429 . S
C2843 H2865 0.950 . S
C2844 H2840 0.949 . S
C2844 C2852 1.574 . S
C2844 C2860 1.368 . S
H2845 C2853 0.950 . S
H2846 C2851 0.950 . S
H2847 C2852 0.949 . S
H2848 C2854 0.950 . S
H2849 C2855 0.950 . S
H2850 C2856 0.949 . S
C2851 H2846 0.950 . S
C2851 C2853 1.327 . S
C2851 C2857 1.429 . S
C2852 C2844 1.574 . S
C2852 H2847 0.949 . S
C2852 C2858 1.368 . S
C2853 C2837 1.349 . S
C2853 H2845 0.950 . S
C2853 C2851 1.327 . S
C2854 C2842 1.349 . S
C2854 H2848 0.950 . S
C2854 C2855 1.327 . S
C2855 H2849 0.950 . S
C2855 C2854 1.327 . S
C2855 C2859 1.429 . S
C2856 C2839 1.574 . S
C2856 H2850 0.949 . S
C2856 C2860 1.368 . S
C2857 C2838 1.429 . S
C2857 C2851 1.429 . S
C2857 C2858 1.523 . S
C2858 C2839 1.368 . S
C2858 C2852 1.368 . S
C2858 C2857 1.523 . S
C2859 C2843 1.429 . S
C2859 C2855 1.429 . S
C2859 C2860 1.523 . S
C2860 C2844 1.368 . S
C2860 C2856 1.368 . S
C2860 C2859 1.523 . S
H2861 C2836 0.950 . S
H2862 C2838 0.950 . S
H2863 C2839 0.949 . S
H2864 C2841 0.950 . S
H2865 C2843 0.950 . S
C2866 C2867 1.349 . S
C2866 C2868 1.327 . S
C2866 H2891 0.950 . S
C2867 C2866 1.349 . S
C2867 C2883 1.349 . S
C2868 C2866 1.327 . S
C2868 C2887 1.429 . S
C2868 H2892 0.950 . S
C2869 C2886 1.574 . S
C2869 C2888 1.368 . S
C2869 H2893 0.949 . S
H2870 C2874 0.949 . S
C2871 C2872 1.349 . S
C2871 C2873 1.327 . S
C2871 H2894 0.950 . S
C2872 C2871 1.349 . S
C2872 C2884 1.349 . S
C2873 C2871 1.327 . S
C2873 C2889 1.429 . S
C2873 H2895 0.950 . S
C2874 H2870 0.949 . S
C2874 C2882 1.574 . S
C2874 C2890 1.368 . S
H2875 C2883 0.950 . S
H2876 C2881 0.950 . S
H2877 C2882 0.949 . S
H2878 C2884 0.950 . S
H2879 C2885 0.950 . S
H2880 C2886 0.949 . S
C2881 H2876 0.950 . S
C2881 C2883 1.327 . S
C2881 C2887 1.429 . S
C2882 C2874 1.574 . S
C2882 H2877 0.949 . S
C2882 C2888 1.368 . S
C2883 C2867 1.349 . S
C2883 H2875 0.950 . S
C2883 C2881 1.327 . S
C2884 C2872 1.349 . S
C2884 H2878 0.950 . S
C2884 C2885 1.327 . S
C2885 H2879 0.950 . S
C2885 C2884 1.327 . S
C2885 C2889 1.429 . S
C2886 C2869 1.574 . S
C2886 H2880 0.949 . S
C2886 C2890 1.368 . S
C2887 C2868 1.429 . S
C2887 C2881 1.429 . S
C2887 C2888 1.523 . S
C2888 C2869 1.368 . S
C2888 C2882 1.368 . S
C2888 C2887 1.523 . S
C2889 C2873 1.429 . S
C2889 C2885 1.429 . S
C2889 C2890 1.523 . S
C2890 C2874 1.368 . S
C2890 C2886 1.368 . S
C2890 C2889 1.523 . S
H2891 C2866 0.950 . S
H2892 C2868 0.950 . S
H2893 C2869 0.949 . S
H2894 C2871 0.950 . S
H2895 C2873 0.950 . S
C2896 C2897 1.349 . S
C2896 C2898 1.327 . S
C2896 H2921 0.950 . S
C2897 C2896 1.349 . S
C2897 C2913 1.349 . S
C2898 C2896 1.327 . S
C2898 C2917 1.429 . S
C2898 H2922 0.950 . S
C2899 C2916 1.574 . S
C2899 C2918 1.368 . S
C2899 H2923 0.949 . S
H2900 C2904 0.949 . S
C2901 C2902 1.349 . S
C2901 C2903 1.327 . S
C2901 H2924 0.950 . S
C2902 C2901 1.349 . S
C2902 C2914 1.349 . S
C2903 C2901 1.327 . S
C2903 C2919 1.429 . S
C2903 H2925 0.950 . S
C2904 H2900 0.949 . S
C2904 C2912 1.574 . S
C2904 C2920 1.368 . S
H2905 C2913 0.950 . S
H2906 C2911 0.950 . S
H2907 C2912 0.949 . S
H2908 C2914 0.950 . S
H2909 C2915 0.950 . S
H2910 C2916 0.949 . S
C2911 H2906 0.950 . S
C2911 C2913 1.327 . S
C2911 C2917 1.429 . S
C2912 C2904 1.574 . S
C2912 H2907 0.949 . S
C2912 C2918 1.368 . S
C2913 C2897 1.349 . S
C2913 H2905 0.950 . S
C2913 C2911 1.327 . S
C2914 C2902 1.349 . S
C2914 H2908 0.950 . S
C2914 C2915 1.327 . S
C2915 H2909 0.950 . S
C2915 C2914 1.327 . S
C2915 C2919 1.429 . S
C2916 C2899 1.574 . S
C2916 H2910 0.949 . S
C2916 C2920 1.368 . S
C2917 C2898 1.429 . S
C2917 C2911 1.429 . S
C2917 C2918 1.523 . S
C2918 C2899 1.368 . S
C2918 C2912 1.368 . S
C2918 C2917 1.523 . S
C2919 C2903 1.429 . S
C2919 C2915 1.429 . S
C2919 C2920 1.523 . S
C2920 C2904 1.368 . S
C2920 C2916 1.368 . S
C2920 C2919 1.523 . S
H2921 C2896 0.950 . S
H2922 C2898 0.950 . S
H2923 C2899 0.949 . S
H2924 C2901 0.950 . S
H2925 C2903 0.950 . S
C2926 C2927 1.349 . S
C2926 C2928 1.327 . S
C2926 H2951 0.950 . S
C2927 C2926 1.349 . S
C2927 C2943 1.349 . S
C2928 C2926 1.327 . S
C2928 C2947 1.429 . S
C2928 H2952 0.950 . S
C2929 C2946 1.574 . S
C2929 C2948 1.368 . S
C2929 H2953 0.949 . S
H2930 C2934 0.949 . S
C2931 C2932 1.349 . S
C2931 C2933 1.327 . S
C2931 H2954 0.950 . S
C2932 C2931 1.349 . S
C2932 C2944 1.349 . S
C2933 C2931 1.327 . S
C2933 C2949 1.429 . S
C2933 H2955 0.950 . S
C2934 H2930 0.949 . S
C2934 C2942 1.574 . S
C2934 C2950 1.368 . S
H2935 C2943 0.950 . S
H2936 C2941 0.950 . S
H2937 C2942 0.949 . S
H2938 C2944 0.950 . S
H2939 C2945 0.950 . S
H2940 C2946 0.949 . S
C2941 H2936 0.950 . S
C2941 C2943 1.327 . S
C2941 C2947 1.429 . S
C2942 C2934 1.574 . S
C2942 H2937 0.949 . S
C2942 C2948 1.368 . S
C2943 C2927 1.349 . S
C2943 H2935 0.950 . S
C2943 C2941 1.327 . S
C2944 C2932 1.349 . S
C2944 H2938 0.950 . S
C2944 C2945 1.327 . S
C2945 H2939 0.950 . S
C2945 C2944 1.327 . S
C2945 C2949 1.429 . S
C2946 C2929 1.574 . S
C2946 H2940 0.949 . S
C2946 C2950 1.368 . S
C2947 C2928 1.429 . S
C2947 C2941 1.429 . S
C2947 C2948 1.523 . S
C2948 C2929 1.368 . S
C2948 C2942 1.368 . S
C2948 C2947 1.523 . S
C2949 C2933 1.429 . S
C2949 C2945 1.429 . S
C2949 C2950 1.523 . S
C2950 C2934 1.368 . S
C2950 C2946 1.368 . S
C2950 C2949 1.523 . S
H2951 C2926 0.950 . S
H2952 C2928 0.950 . S
H2953 C2929 0.949 . S
H2954 C2931 0.950 . S
H2955 C2933 0.950 . S
C2956 C2957 1.349 . S
C2956 C2958 1.327 . S
C2956 H2981 0.950 . S
C2957 C2956 1.349 . S
C2957 C2973 1.349 . S
C2958 C2956 1.327 . S
C2958 C2977 1.429 . S
C2958 H2982 0.950 . S
C2959 C2976 1.574 . S
C2959 C2978 1.368 . S
C2959 H2983 0.949 . S
H2960 C2964 0.949 . S
C2961 C2962 1.349 . S
C2961 C2963 1.327 . S
C2961 H2984 0.950 . S
C2962 C2961 1.349 . S
C2962 C2974 1.349 . S
C2963 C2961 1.327 . S
C2963 C2979 1.429 . S
C2963 H2985 0.950 . S
C2964 H2960 0.949 . S
C2964 C2972 1.574 . S
C2964 C2980 1.368 . S
H2965 C2973 0.950 . S
H2966 C2971 0.950 . S
H2967 C2972 0.949 . S
H2968 C2974 0.950 . S
H2969 C2975 0.950 . S
H2970 C2976 0.949 . S
C2971 H2966 0.950 . S
C2971 C2973 1.327 . S
C2971 C2977 1.429 . S
C2972 C2964 1.574 . S
C2972 H2967 0.949 . S
C2972 C2978 1.368 . S
C2973 C2957 1.349 . S
C2973 H2965 0.950 . S
C2973 C2971 1.327 . S
C2974 C2962 1.349 . S
C2974 H2968 0.950 . S
C2974 C2975 1.327 . S
C2975 H2969 0.950 . S
C2975 C2974 1.327 . S
C2975 C2979 1.429 . S
C2976 C2959 1.574 . S
C2976 H2970 0.949 . S
C2976 C2980 1.368 . S
C2977 C2958 1.429 . S
C2977 C2971 1.429 . S
C2977 C2978 1.523 . S
C2978 C2959 1.368 . S
C2978 C2972 1.368 . S
C2978 C2977 1.523 . S
C2979 C2963 1.429 . S
C2979 C2975 1.429 . S
C2979 C2980 1.523 . S
C2980 C2964 1.368 . S
C2980 C2976 1.368 . S
C2980 C2979 1.523 . S
H2981 C2956 0.950 . S
H2982 C2958 0.950 . S
H2983 C2959 0.949 . S
H2984 C2961 0.950 . S
H2985 C2963 0.950 . S
C2986 C2987 1.349 . S
C2986 C2988 1.327 . S
C2986 H3011 0.950 . S
C2987 C2986 1.349 . S
C2987 C3003 1.349 . S
C2988 C2986 1.327 . S
C2988 C3007 1.429 . S
C2988 H3012 0.950 . S
C2989 C3006 1.574 . S
C2989 C3008 1.368 . S
C2989 H3013 0.949 . S
H2990 C2994 0.949 . S
C2991 C2992 1.349 . S
C2991 C2993 1.327 . S
C2991 H3014 0.950 . S
C2992 C2991 1.349 . S
C2992 C3004 1.349 1_545 S
C2993 C2991 1.327 . S
C2993 C3009 1.429 1_545 S
C2993 H3015 0.950 . S
C2994 H2990 0.949 . S
C2994 C3002 1.574 . S
C2994 C3010 1.368 . S
H2995 C3003 0.950 . S
H2996 C3001 0.950 . S
H2997 C3002 0.949 . S
H2998 C3004 0.950 . S
H2999 C3005 0.950 . S
H3000 C3006 0.949 1_545 S
C3001 H2996 0.950 . S
C3001 C3003 1.327 . S
C3001 C3007 1.429 . S
C3002 C2994 1.574 . S
C3002 H2997 0.949 . S
C3002 C3008 1.368 . S
C3003 C2987 1.349 . S
C3003 H2995 0.950 . S
C3003 C3001 1.327 . S
C3004 C2992 1.349 1_565 S
C3004 H2998 0.950 . S
C3004 C3005 1.327 . S
C3005 H2999 0.950 . S
C3005 C3004 1.327 . S
C3005 C3009 1.429 . S
C3006 C2989 1.574 . S
C3006 H3000 0.949 1_565 S
C3006 C3010 1.368 . S
C3007 C2988 1.429 . S
C3007 C3001 1.429 . S
C3007 C3008 1.523 . S
C3008 C2989 1.368 . S
C3008 C3002 1.368 . S
C3008 C3007 1.523 . S
C3009 C2993 1.429 1_565 S
C3009 C3005 1.429 . S
C3009 C3010 1.523 . S
C3010 C2994 1.368 . S
C3010 C3006 1.368 . S
C3010 C3009 1.523 . S
H3011 C2986 0.950 . S
H3012 C2988 0.950 . S
H3013 C2989 0.949 . S
H3014 C2991 0.950 . S
H3015 C2993 0.950 . S
C3016 C3017 1.349 . S
C3016 C3018 1.327 . S
C3016 H3041 0.950 . S
C3017 C3016 1.349 . S
C3017 C3033 1.349 . S
C3018 C3016 1.327 . S
C3018 C3037 1.429 . S
C3018 H3042 0.950 . S
C3019 C3036 1.574 . S
C3019 C3038 1.368 . S
C3019 H3043 0.949 . S
H3020 C3024 0.949 . S
C3021 C3022 1.349 . S
C3021 C3023 1.327 . S
C3021 H3044 0.950 . S
C3022 C3021 1.349 . S
C3022 C3034 1.349 . S
C3023 C3021 1.327 . S
C3023 C3039 1.429 . S
C3023 H3045 0.950 . S
C3024 H3020 0.949 . S
C3024 C3032 1.574 . S
C3024 C3040 1.368 . S
H3025 C3033 0.950 . S
H3026 C3031 0.950 . S
H3027 C3032 0.949 . S
H3028 C3034 0.950 . S
H3029 C3035 0.950 . S
H3030 C3036 0.949 . S
C3031 H3026 0.950 . S
C3031 C3033 1.327 . S
C3031 C3037 1.429 . S
C3032 C3024 1.574 . S
C3032 H3027 0.949 . S
C3032 C3038 1.368 . S
C3033 C3017 1.349 . S
C3033 H3025 0.950 . S
C3033 C3031 1.327 . S
C3034 C3022 1.349 . S
C3034 H3028 0.950 . S
C3034 C3035 1.327 . S
C3035 H3029 0.950 . S
C3035 C3034 1.327 . S
C3035 C3039 1.429 . S
C3036 C3019 1.574 . S
C3036 H3030 0.949 . S
C3036 C3040 1.368 . S
C3037 C3018 1.429 . S
C3037 C3031 1.429 . S
C3037 C3038 1.523 . S
C3038 C3019 1.368 . S
C3038 C3032 1.368 . S
C3038 C3037 1.523 . S
C3039 C3023 1.429 . S
C3039 C3035 1.429 . S
C3039 C3040 1.523 . S
C3040 C3024 1.368 . S
C3040 C3036 1.368 . S
C3040 C3039 1.523 . S
H3041 C3016 0.950 . S
H3042 C3018 0.950 . S
H3043 C3019 0.949 . S
H3044 C3021 0.950 . S
H3045 C3023 0.950 . S
C3046 C3047 1.349 . S
C3046 C3048 1.327 . S
C3046 H3071 0.950 . S
C3047 C3046 1.349 . S
C3047 C3063 1.349 . S
C3048 C3046 1.327 . S
C3048 C3067 1.429 . S
C3048 H3072 0.950 . S
C3049 C3066 1.574 . S
C3049 C3068 1.368 . S
C3049 H3073 0.949 . S
H3050 C3054 0.949 . S
C3051 C3052 1.349 . S
C3051 C3053 1.327 . S
C3051 H3074 0.950 . S
C3052 C3051 1.349 . S
C3052 C3064 1.349 . S
C3053 C3051 1.327 . S
C3053 C3069 1.429 . S
C3053 H3075 0.950 . S
C3054 H3050 0.949 . S
C3054 C3062 1.574 . S
C3054 C3070 1.368 . S
H3055 C3063 0.950 . S
H3056 C3061 0.950 . S
H3057 C3062 0.949 . S
H3058 C3064 0.950 . S
H3059 C3065 0.950 . S
H3060 C3066 0.949 . S
C3061 H3056 0.950 . S
C3061 C3063 1.327 . S
C3061 C3067 1.429 . S
C3062 C3054 1.574 . S
C3062 H3057 0.949 . S
C3062 C3068 1.368 . S
C3063 C3047 1.349 . S
C3063 H3055 0.950 . S
C3063 C3061 1.327 . S
C3064 C3052 1.349 . S
C3064 H3058 0.950 . S
C3064 C3065 1.327 . S
C3065 H3059 0.950 . S
C3065 C3064 1.327 . S
C3065 C3069 1.429 . S
C3066 C3049 1.574 . S
C3066 H3060 0.949 . S
C3066 C3070 1.368 . S
C3067 C3048 1.429 . S
C3067 C3061 1.429 . S
C3067 C3068 1.523 . S
C3068 C3049 1.368 . S
C3068 C3062 1.368 . S
C3068 C3067 1.523 . S
C3069 C3053 1.429 . S
C3069 C3065 1.429 . S
C3069 C3070 1.523 . S
C3070 C3054 1.368 . S
C3070 C3066 1.368 . S
C3070 C3069 1.523 . S
H3071 C3046 0.950 . S
H3072 C3048 0.950 . S
H3073 C3049 0.949 . S
H3074 C3051 0.950 . S
H3075 C3053 0.950 . S
C3076 C3077 1.349 . S
C3076 C3078 1.327 . S
C3076 H3101 0.950 . S
C3077 C3076 1.349 . S
C3077 C3093 1.349 . S
C3078 C3076 1.327 . S
C3078 C3097 1.429 . S
C3078 H3102 0.950 . S
C3079 C3096 1.574 . S
C3079 C3098 1.368 . S
C3079 H3103 0.949 . S
H3080 C3084 0.949 . S
C3081 C3082 1.349 . S
C3081 C3083 1.327 . S
C3081 H3104 0.950 . S
C3082 C3081 1.349 . S
C3082 C3094 1.349 . S
C3083 C3081 1.327 . S
C3083 C3099 1.429 . S
C3083 H3105 0.950 . S
C3084 H3080 0.949 . S
C3084 C3092 1.574 . S
C3084 C3100 1.368 . S
H3085 C3093 0.950 . S
H3086 C3091 0.950 . S
H3087 C3092 0.949 . S
H3088 C3094 0.950 . S
H3089 C3095 0.950 . S
H3090 C3096 0.949 . S
C3091 H3086 0.950 . S
C3091 C3093 1.327 . S
C3091 C3097 1.429 . S
C3092 C3084 1.574 . S
C3092 H3087 0.949 . S
C3092 C3098 1.368 . S
C3093 C3077 1.349 . S
C3093 H3085 0.950 . S
C3093 C3091 1.327 . S
C3094 C3082 1.349 . S
C3094 H3088 0.950 . S
C3094 C3095 1.327 . S
C3095 H3089 0.950 . S
C3095 C3094 1.327 . S
C3095 C3099 1.429 . S
C3096 C3079 1.574 . S
C3096 H3090 0.949 . S
C3096 C3100 1.368 . S
C3097 C3078 1.429 . S
C3097 C3091 1.429 . S
C3097 C3098 1.523 . S
C3098 C3079 1.368 . S
C3098 C3092 1.368 . S
C3098 C3097 1.523 . S
C3099 C3083 1.429 . S
C3099 C3095 1.429 . S
C3099 C3100 1.523 . S
C3100 C3084 1.368 . S
C3100 C3096 1.368 . S
C3100 C3099 1.523 . S
H3101 C3076 0.950 . S
H3102 C3078 0.950 . S
H3103 C3079 0.949 . S
H3104 C3081 0.950 . S
H3105 C3083 0.950 . S
C3106 C3107 1.349 . S
C3106 C3108 1.327 . S
C3106 H3131 0.950 . S
C3107 C3106 1.349 . S
C3107 C3123 1.349 . S
C3108 C3106 1.327 . S
C3108 C3127 1.429 . S
C3108 H3132 0.950 . S
C3109 C3126 1.574 . S
C3109 C3128 1.368 . S
C3109 H3133 0.949 . S
H3110 C3114 0.949 . S
C3111 C3112 1.349 . S
C3111 C3113 1.327 . S
C3111 H3134 0.950 . S
C3112 C3111 1.349 . S
C3112 C3124 1.349 . S
C3113 C3111 1.327 . S
C3113 C3129 1.429 . S
C3113 H3135 0.950 . S
C3114 H3110 0.949 . S
C3114 C3122 1.574 . S
C3114 C3130 1.368 . S
H3115 C3123 0.950 . S
H3116 C3121 0.950 . S
H3117 C3122 0.949 . S
H3118 C3124 0.950 . S
H3119 C3125 0.950 . S
H3120 C3126 0.949 . S
C3121 H3116 0.950 . S
C3121 C3123 1.327 . S
C3121 C3127 1.429 . S
C3122 C3114 1.574 . S
C3122 H3117 0.949 . S
C3122 C3128 1.368 . S
C3123 C3107 1.349 . S
C3123 H3115 0.950 . S
C3123 C3121 1.327 . S
C3124 C3112 1.349 . S
C3124 H3118 0.950 . S
C3124 C3125 1.327 . S
C3125 H3119 0.950 . S
C3125 C3124 1.327 . S
C3125 C3129 1.429 . S
C3126 C3109 1.574 . S
C3126 H3120 0.949 . S
C3126 C3130 1.368 . S
C3127 C3108 1.429 . S
C3127 C3121 1.429 . S
C3127 C3128 1.523 . S
C3128 C3109 1.368 . S
C3128 C3122 1.368 . S
C3128 C3127 1.523 . S
C3129 C3113 1.429 . S
C3129 C3125 1.429 . S
C3129 C3130 1.523 . S
C3130 C3114 1.368 . S
C3130 C3126 1.368 . S
C3130 C3129 1.523 . S
H3131 C3106 0.950 . S
H3132 C3108 0.950 . S
H3133 C3109 0.949 . S
H3134 C3111 0.950 . S
H3135 C3113 0.950 . S
C3136 C3137 1.349 . S
C3136 C3138 1.327 . S
C3136 H3161 0.950 . S
C3137 C3136 1.349 . S
C3137 C3153 1.349 . S
C3138 C3136 1.327 . S
C3138 C3157 1.429 . S
C3138 H3162 0.950 . S
C3139 C3156 1.574 . S
C3139 C3158 1.368 . S
C3139 H3163 0.949 . S
H3140 C3144 0.949 . S
C3141 C3142 1.349 . S
C3141 C3143 1.327 . S
C3141 H3164 0.950 . S
C3142 C3141 1.349 . S
C3142 C3154 1.349 . S
C3143 C3141 1.327 . S
C3143 C3159 1.429 . S
C3143 H3165 0.950 . S
C3144 H3140 0.949 . S
C3144 C3152 1.574 . S
C3144 C3160 1.368 . S
H3145 C3153 0.950 . S
H3146 C3151 0.950 . S
H3147 C3152 0.949 . S
H3148 C3154 0.950 . S
H3149 C3155 0.950 . S
H3150 C3156 0.949 . S
C3151 H3146 0.950 . S
C3151 C3153 1.327 . S
C3151 C3157 1.429 . S
C3152 C3144 1.574 . S
C3152 H3147 0.949 . S
C3152 C3158 1.368 . S
C3153 C3137 1.349 . S
C3153 H3145 0.950 . S
C3153 C3151 1.327 . S
C3154 C3142 1.349 . S
C3154 H3148 0.950 . S
C3154 C3155 1.327 . S
C3155 H3149 0.950 . S
C3155 C3154 1.327 . S
C3155 C3159 1.429 . S
C3156 C3139 1.574 . S
C3156 H3150 0.949 . S
C3156 C3160 1.368 . S
C3157 C3138 1.429 . S
C3157 C3151 1.429 . S
C3157 C3158 1.523 . S
C3158 C3139 1.368 . S
C3158 C3152 1.368 . S
C3158 C3157 1.523 . S
C3159 C3143 1.429 . S
C3159 C3155 1.429 . S
C3159 C3160 1.523 . S
C3160 C3144 1.368 . S
C3160 C3156 1.368 . S
C3160 C3159 1.523 . S
H3161 C3136 0.950 . S
H3162 C3138 0.950 . S
H3163 C3139 0.949 . S
H3164 C3141 0.950 . S
H3165 C3143 0.950 . S
C3166 C3167 1.349 . S
C3166 C3168 1.327 . S
C3166 H3191 0.950 . S
C3167 C3166 1.349 . S
C3167 C3183 1.349 . S
C3168 C3166 1.327 . S
C3168 C3187 1.429 . S
C3168 H3192 0.950 . S
C3169 C3186 1.574 . S
C3169 C3188 1.368 . S
C3169 H3193 0.949 . S
H3170 C3174 0.949 . S
C3171 C3172 1.349 . S
C3171 C3173 1.327 . S
C3171 H3194 0.950 . S
C3172 C3171 1.349 . S
C3172 C3184 1.349 . S
C3173 C3171 1.327 . S
C3173 C3189 1.429 . S
C3173 H3195 0.950 . S
C3174 H3170 0.949 . S
C3174 C3182 1.574 . S
C3174 C3190 1.368 . S
H3175 C3183 0.950 . S
H3176 C3181 0.950 . S
H3177 C3182 0.949 . S
H3178 C3184 0.950 . S
H3179 C3185 0.950 . S
H3180 C3186 0.949 . S
C3181 H3176 0.950 . S
C3181 C3183 1.327 . S
C3181 C3187 1.429 . S
C3182 C3174 1.574 . S
C3182 H3177 0.949 . S
C3182 C3188 1.368 . S
C3183 C3167 1.349 . S
C3183 H3175 0.950 . S
C3183 C3181 1.327 . S
C3184 C3172 1.349 . S
C3184 H3178 0.950 . S
C3184 C3185 1.327 . S
C3185 H3179 0.950 . S
C3185 C3184 1.327 . S
C3185 C3189 1.429 . S
C3186 C3169 1.574 . S
C3186 H3180 0.949 . S
C3186 C3190 1.368 . S
C3187 C3168 1.429 . S
C3187 C3181 1.429 . S
C3187 C3188 1.523 . S
C3188 C3169 1.368 . S
C3188 C3182 1.368 . S
C3188 C3187 1.523 . S
C3189 C3173 1.429 . S
C3189 C3185 1.429 . S
C3189 C3190 1.523 . S
C3190 C3174 1.368 . S
C3190 C3186 1.368 . S
C3190 C3189 1.523 . S
H3191 C3166 0.950 . S
H3192 C3168 0.950 . S
H3193 C3169 0.949 . S
H3194 C3171 0.950 . S
H3195 C3173 0.950 . S
C3196 C3197 1.349 . S
C3196 C3198 1.327 . S
C3196 H3221 0.950 . S
C3197 C3196 1.349 . S
C3197 C3213 1.349 . S
C3198 C3196 1.327 . S
C3198 C3217 1.429 . S
C3198 H3222 0.950 . S
C3199 C3216 1.574 . S
C3199 C3218 1.368 . S
C3199 H3223 0.949 . S
H3200 C3204 0.949 . S
C3201 C3202 1.349 . S
C3201 C3203 1.327 . S
C3201 H3224 0.950 . S
C3202 C3201 1.349 . S
C3202 C3214 1.349 . S
C3203 C3201 1.327 . S
C3203 C3219 1.429 . S
C3203 H3225 0.950 . S
C3204 H3200 0.949 . S
C3204 C3212 1.574 . S
C3204 C3220 1.368 . S
H3205 C3213 0.950 . S
H3206 C3211 0.950 . S
H3207 C3212 0.949 . S
H3208 C3214 0.950 . S
H3209 C3215 0.950 . S
H3210 C3216 0.949 . S
C3211 H3206 0.950 . S
C3211 C3213 1.327 . S
C3211 C3217 1.429 . S
C3212 C3204 1.574 . S
C3212 H3207 0.949 . S
C3212 C3218 1.368 . S
C3213 C3197 1.349 . S
C3213 H3205 0.950 . S
C3213 C3211 1.327 . S
C3214 C3202 1.349 . S
C3214 H3208 0.950 . S
C3214 C3215 1.327 . S
C3215 H3209 0.950 . S
C3215 C3214 1.327 . S
C3215 C3219 1.429 . S
C3216 C3199 1.574 . S
C3216 H3210 0.949 . S
C3216 C3220 1.368 . S
C3217 C3198 1.429 . S
C3217 C3211 1.429 . S
C3217 C3218 1.523 . S
C3218 C3199 1.368 . S
C3218 C3212 1.368 . S
C3218 C3217 1.523 . S
C3219 C3203 1.429 . S
C3219 C3215 1.429 . S
C3219 C3220 1.523 . S
C3220 C3204 1.368 . S
C3220 C3216 1.368 . S
C3220 C3219 1.523 . S
H3221 C3196 0.950 . S
H3222 C3198 0.950 . S
H3223 C3199 0.949 . S
H3224 C3201 0.950 . S
H3225 C3203 0.950 . S
C3226 C3227 1.349 . S
C3226 C3228 1.327 . S
C3226 H3251 0.950 . S
C3227 C3226 1.349 . S
C3227 C3243 1.349 . S
C3228 C3226 1.327 . S
C3228 C3247 1.429 . S
C3228 H3252 0.950 . S
C3229 C3246 1.574 . S
C3229 C3248 1.368 . S
C3229 H3253 0.949 . S
H3230 C3234 0.949 . S
C3231 C3232 1.349 . S
C3231 C3233 1.327 . S
C3231 H3254 0.950 . S
C3232 C3231 1.349 . S
C3232 C3244 1.349 . S
C3233 C3231 1.327 . S
C3233 C3249 1.429 . S
C3233 H3255 0.950 . S
C3234 H3230 0.949 . S
C3234 C3242 1.574 . S
C3234 C3250 1.368 . S
H3235 C3243 0.950 . S
H3236 C3241 0.950 . S
H3237 C3242 0.949 . S
H3238 C3244 0.950 . S
H3239 C3245 0.950 . S
H3240 C3246 0.949 . S
C3241 H3236 0.950 . S
C3241 C3243 1.327 . S
C3241 C3247 1.429 . S
C3242 C3234 1.574 . S
C3242 H3237 0.949 . S
C3242 C3248 1.368 . S
C3243 C3227 1.349 . S
C3243 H3235 0.950 . S
C3243 C3241 1.327 . S
C3244 C3232 1.349 . S
C3244 H3238 0.950 . S
C3244 C3245 1.327 . S
C3245 H3239 0.950 . S
C3245 C3244 1.327 . S
C3245 C3249 1.429 . S
C3246 C3229 1.574 . S
C3246 H3240 0.949 . S
C3246 C3250 1.368 . S
C3247 C3228 1.429 . S
C3247 C3241 1.429 . S
C3247 C3248 1.523 . S
C3248 C3229 1.368 . S
C3248 C3242 1.368 . S
C3248 C3247 1.523 . S
C3249 C3233 1.429 . S
C3249 C3245 1.429 . S
C3249 C3250 1.523 . S
C3250 C3234 1.368 . S
C3250 C3246 1.368 . S
C3250 C3249 1.523 . S
H3251 C3226 0.950 . S
H3252 C3228 0.950 . S
H3253 C3229 0.949 . S
H3254 C3231 0.950 . S
H3255 C3233 0.950 . S
C3256 C3257 1.349 . S
C3256 C3258 1.327 . S
C3256 H3281 0.950 . S
C3257 C3256 1.349 . S
C3257 C3273 1.349 . S
C3258 C3256 1.327 . S
C3258 C3277 1.429 . S
C3258 H3282 0.950 . S
C3259 C3276 1.574 . S
C3259 C3278 1.368 . S
C3259 H3283 0.949 . S
H3260 C3264 0.949 . S
C3261 C3262 1.349 . S
C3261 C3263 1.327 . S
C3261 H3284 0.950 . S
C3262 C3261 1.349 . S
C3262 C3274 1.349 . S
C3263 C3261 1.327 . S
C3263 C3279 1.429 . S
C3263 H3285 0.950 . S
C3264 H3260 0.949 . S
C3264 C3272 1.574 . S
C3264 C3280 1.368 . S
H3265 C3273 0.950 . S
H3266 C3271 0.950 . S
H3267 C3272 0.949 . S
H3268 C3274 0.950 . S
H3269 C3275 0.950 . S
H3270 C3276 0.949 . S
C3271 H3266 0.950 . S
C3271 C3273 1.327 . S
C3271 C3277 1.429 . S
C3272 C3264 1.574 . S
C3272 H3267 0.949 . S
C3272 C3278 1.368 . S
C3273 C3257 1.349 . S
C3273 H3265 0.950 . S
C3273 C3271 1.327 . S
C3274 C3262 1.349 . S
C3274 H3268 0.950 . S
C3274 C3275 1.327 . S
C3275 H3269 0.950 . S
C3275 C3274 1.327 . S
C3275 C3279 1.429 . S
C3276 C3259 1.574 . S
C3276 H3270 0.949 . S
C3276 C3280 1.368 . S
C3277 C3258 1.429 . S
C3277 C3271 1.429 . S
C3277 C3278 1.523 . S
C3278 C3259 1.368 . S
C3278 C3272 1.368 . S
C3278 C3277 1.523 . S
C3279 C3263 1.429 . S
C3279 C3275 1.429 . S
C3279 C3280 1.523 . S
C3280 C3264 1.368 . S
C3280 C3276 1.368 . S
C3280 C3279 1.523 . S
H3281 C3256 0.950 . S
H3282 C3258 0.950 . S
H3283 C3259 0.949 . S
H3284 C3261 0.950 . S
H3285 C3263 0.950 . S
C3286 C3287 1.349 . S
C3286 C3288 1.327 . S
C3286 H3311 0.950 . S
C3287 C3286 1.349 . S
C3287 C3303 1.349 . S
C3288 C3286 1.327 . S
C3288 C3307 1.429 . S
C3288 H3312 0.950 . S
C3289 C3306 1.574 . S
C3289 C3308 1.368 . S
C3289 H3313 0.949 . S
H3290 C3294 0.949 . S
C3291 C3292 1.349 . S
C3291 C3293 1.327 . S
C3291 H3314 0.950 . S
C3292 C3291 1.349 . S
C3292 C3304 1.349 . S
C3293 C3291 1.327 . S
C3293 C3309 1.429 . S
C3293 H3315 0.950 . S
C3294 H3290 0.949 . S
C3294 C3302 1.574 . S
C3294 C3310 1.368 . S
H3295 C3303 0.950 . S
H3296 C3301 0.950 . S
H3297 C3302 0.949 . S
H3298 C3304 0.950 . S
H3299 C3305 0.950 . S
H3300 C3306 0.949 . S
C3301 H3296 0.950 . S
C3301 C3303 1.327 . S
C3301 C3307 1.429 . S
C3302 C3294 1.574 . S
C3302 H3297 0.949 . S
C3302 C3308 1.368 . S
C3303 C3287 1.349 . S
C3303 H3295 0.950 . S
C3303 C3301 1.327 . S
C3304 C3292 1.349 . S
C3304 H3298 0.950 . S
C3304 C3305 1.327 . S
C3305 H3299 0.950 . S
C3305 C3304 1.327 . S
C3305 C3309 1.429 . S
C3306 C3289 1.574 . S
C3306 H3300 0.949 . S
C3306 C3310 1.368 . S
C3307 C3288 1.429 . S
C3307 C3301 1.429 . S
C3307 C3308 1.523 . S
C3308 C3289 1.368 . S
C3308 C3302 1.368 . S
C3308 C3307 1.523 . S
C3309 C3293 1.429 . S
C3309 C3305 1.429 . S
C3309 C3310 1.523 . S
C3310 C3294 1.368 . S
C3310 C3306 1.368 . S
C3310 C3309 1.523 . S
H3311 C3286 0.950 . S
H3312 C3288 0.950 . S
H3313 C3289 0.949 . S
H3314 C3291 0.950 . S
H3315 C3293 0.950 . S
C3316 C3317 1.349 . S
C3316 C3318 1.327 . S
C3316 H3341 0.950 . S
C3317 C3316 1.349 . S
C3317 C3333 1.349 . S
C3318 C3316 1.327 . S
C3318 C3337 1.429 . S
C3318 H3342 0.950 . S
C3319 C3336 1.574 . S
C3319 C3338 1.368 . S
C3319 H3343 0.949 . S
H3320 C3324 0.949 . S
C3321 C3322 1.349 . S
C3321 C3323 1.327 . S
C3321 H3344 0.950 . S
C3322 C3321 1.349 . S
C3322 C3334 1.349 . S
C3323 C3321 1.327 . S
C3323 C3339 1.429 . S
C3323 H3345 0.950 . S
C3324 H3320 0.949 . S
C3324 C3332 1.574 . S
C3324 C3340 1.368 . S
H3325 C3333 0.950 . S
H3326 C3331 0.950 . S
H3327 C3332 0.949 . S
H3328 C3334 0.950 . S
H3329 C3335 0.950 . S
H3330 C3336 0.949 . S
C3331 H3326 0.950 . S
C3331 C3333 1.327 . S
C3331 C3337 1.429 . S
C3332 C3324 1.574 . S
C3332 H3327 0.949 . S
C3332 C3338 1.368 . S
C3333 C3317 1.349 . S
C3333 H3325 0.950 . S
C3333 C3331 1.327 . S
C3334 C3322 1.349 . S
C3334 H3328 0.950 . S
C3334 C3335 1.327 . S
C3335 H3329 0.950 . S
C3335 C3334 1.327 . S
C3335 C3339 1.429 . S
C3336 C3319 1.574 . S
C3336 H3330 0.949 . S
C3336 C3340 1.368 . S
C3337 C3318 1.429 . S
C3337 C3331 1.429 . S
C3337 C3338 1.523 . S
C3338 C3319 1.368 . S
C3338 C3332 1.368 . S
C3338 C3337 1.523 . S
C3339 C3323 1.429 . S
C3339 C3335 1.429 . S
C3339 C3340 1.523 . S
C3340 C3324 1.368 . S
C3340 C3336 1.368 . S
C3340 C3339 1.523 . S
H3341 C3316 0.950 . S
H3342 C3318 0.950 . S
H3343 C3319 0.949 . S
H3344 C3321 0.950 . S
H3345 C3323 0.950 . S
C3346 C3347 1.349 . S
C3346 C3348 1.327 . S
C3346 H3371 0.950 . S
C3347 C3346 1.349 . S
C3347 C3363 1.349 . S
C3348 C3346 1.327 . S
C3348 C3367 1.429 . S
C3348 H3372 0.950 . S
C3349 C3366 1.574 . S
C3349 C3368 1.368 . S
C3349 H3373 0.949 . S
H3350 C3354 0.949 . S
C3351 C3352 1.349 . S
C3351 C3353 1.327 . S
C3351 H3374 0.950 . S
C3352 C3351 1.349 . S
C3352 C3364 1.349 . S
C3353 C3351 1.327 . S
C3353 C3369 1.429 . S
C3353 H3375 0.950 . S
C3354 H3350 0.949 . S
C3354 C3362 1.574 . S
C3354 C3370 1.368 . S
H3355 C3363 0.950 . S
H3356 C3361 0.950 . S
H3357 C3362 0.949 . S
H3358 C3364 0.950 . S
H3359 C3365 0.950 . S
H3360 C3366 0.949 . S
C3361 H3356 0.950 . S
C3361 C3363 1.327 . S
C3361 C3367 1.429 . S
C3362 C3354 1.574 . S
C3362 H3357 0.949 . S
C3362 C3368 1.368 . S
C3363 C3347 1.349 . S
C3363 H3355 0.950 . S
C3363 C3361 1.327 . S
C3364 C3352 1.349 . S
C3364 H3358 0.950 . S
C3364 C3365 1.327 . S
C3365 H3359 0.950 . S
C3365 C3364 1.327 . S
C3365 C3369 1.429 . S
C3366 C3349 1.574 . S
C3366 H3360 0.949 . S
C3366 C3370 1.368 . S
C3367 C3348 1.429 . S
C3367 C3361 1.429 . S
C3367 C3368 1.523 . S
C3368 C3349 1.368 . S
C3368 C3362 1.368 . S
C3368 C3367 1.523 . S
C3369 C3353 1.429 . S
C3369 C3365 1.429 . S
C3369 C3370 1.523 . S
C3370 C3354 1.368 . S
C3370 C3366 1.368 . S
C3370 C3369 1.523 . S
H3371 C3346 0.950 . S
H3372 C3348 0.950 . S
H3373 C3349 0.949 . S
H3374 C3351 0.950 . S
H3375 C3353 0.950 . S
C3376 C3377 1.349 . S
C3376 C3378 1.327 . S
C3376 H3401 0.950 . S
C3377 C3376 1.349 . S
C3377 C3393 1.349 . S
C3378 C3376 1.327 . S
C3378 C3397 1.429 . S
C3378 H3402 0.950 . S
C3379 C3396 1.574 . S
C3379 C3398 1.368 . S
C3379 H3403 0.949 . S
H3380 C3384 0.949 . S
C3381 C3382 1.349 . S
C3381 C3383 1.327 . S
C3381 H3404 0.950 . S
C3382 C3381 1.349 . S
C3382 C3394 1.349 . S
C3383 C3381 1.327 . S
C3383 C3399 1.429 . S
C3383 H3405 0.950 . S
C3384 H3380 0.949 . S
C3384 C3392 1.574 . S
C3384 C3400 1.368 . S
H3385 C3393 0.950 . S
H3386 C3391 0.950 . S
H3387 C3392 0.949 . S
H3388 C3394 0.950 . S
H3389 C3395 0.950 . S
H3390 C3396 0.949 . S
C3391 H3386 0.950 . S
C3391 C3393 1.327 . S
C3391 C3397 1.429 . S
C3392 C3384 1.574 . S
C3392 H3387 0.949 . S
C3392 C3398 1.368 . S
C3393 C3377 1.349 . S
C3393 H3385 0.950 . S
C3393 C3391 1.327 . S
C3394 C3382 1.349 . S
C3394 H3388 0.950 . S
C3394 C3395 1.327 . S
C3395 H3389 0.950 . S
C3395 C3394 1.327 . S
C3395 C3399 1.429 . S
C3396 C3379 1.574 . S
C3396 H3390 0.949 . S
C3396 C3400 1.368 . S
C3397 C3378 1.429 . S
C3397 C3391 1.429 . S
C3397 C3398 1.523 . S
C3398 C3379 1.368 . S
C3398 C3392 1.368 . S
C3398 C3397 1.523 . S
C3399 C3383 1.429 . S
C3399 C3395 1.429 . S
C3399 C3400 1.523 . S
C3400 C3384 1.368 . S
C3400 C3396 1.368 . S
C3400 C3399 1.523 . S
H3401 C3376 0.950 . S
H3402 C3378 0.950 . S
H3403 C3379 0.949 . S
H3404 C3381 0.950 . S
H3405 C3383 0.950 . S
C3406 C3407 1.349 . S
C3406 C3408 1.327 . S
C3406 H3431 0.950 . S
C3407 C3406 1.349 . S
C3407 C3423 1.349 . S
C3408 C3406 1.327 . S
C3408 C3427 1.429 . S
C3408 H3432 0.950 . S
C3409 C3426 1.574 . S
C3409 C3428 1.368 . S
C3409 H3433 0.949 . S
H3410 C3414 0.949 . S
C3411 C3412 1.349 . S
C3411 C3413 1.327 . S
C3411 H3434 0.950 . S
C3412 C3411 1.349 . S
C3412 C3424 1.349 . S
C3413 C3411 1.327 . S
C3413 C3429 1.429 . S
C3413 H3435 0.950 . S
C3414 H3410 0.949 . S
C3414 C3422 1.574 . S
C3414 C3430 1.368 . S
H3415 C3423 0.950 . S
H3416 C3421 0.950 . S
H3417 C3422 0.949 . S
H3418 C3424 0.950 . S
H3419 C3425 0.950 . S
H3420 C3426 0.949 . S
C3421 H3416 0.950 . S
C3421 C3423 1.327 . S
C3421 C3427 1.429 . S
C3422 C3414 1.574 . S
C3422 H3417 0.949 . S
C3422 C3428 1.368 . S
C3423 C3407 1.349 . S
C3423 H3415 0.950 . S
C3423 C3421 1.327 . S
C3424 C3412 1.349 . S
C3424 H3418 0.950 . S
C3424 C3425 1.327 . S
C3425 H3419 0.950 . S
C3425 C3424 1.327 . S
C3425 C3429 1.429 . S
C3426 C3409 1.574 . S
C3426 H3420 0.949 . S
C3426 C3430 1.368 . S
C3427 C3408 1.429 . S
C3427 C3421 1.429 . S
C3427 C3428 1.523 . S
C3428 C3409 1.368 . S
C3428 C3422 1.368 . S
C3428 C3427 1.523 . S
C3429 C3413 1.429 . S
C3429 C3425 1.429 . S
C3429 C3430 1.523 . S
C3430 C3414 1.368 . S
C3430 C3426 1.368 . S
C3430 C3429 1.523 . S
H3431 C3406 0.950 . S
H3432 C3408 0.950 . S
H3433 C3409 0.949 . S
H3434 C3411 0.950 . S
H3435 C3413 0.950 . S
C3436 C3437 1.349 . S
C3436 C3438 1.327 . S
C3436 H3461 0.950 . S
C3437 C3436 1.349 . S
C3437 C3453 1.349 . S
C3438 C3436 1.327 . S
C3438 C3457 1.429 . S
C3438 H3462 0.950 . S
C3439 C3456 1.574 . S
C3439 C3458 1.368 . S
C3439 H3463 0.949 . S
H3440 C3444 0.949 1_455 S
C3441 C3442 1.349 . S
C3441 C3443 1.327 . S
C3441 H3464 0.950 . S
C3442 C3441 1.349 . S
C3442 C3454 1.349 . S
C3443 C3441 1.327 . S
C3443 C3459 1.429 . S
C3443 H3465 0.950 . S
C3444 H3440 0.949 1_655 S
C3444 C3452 1.574 . S
C3444 C3460 1.368 . S
H3445 C3453 0.950 . S
H3446 C3451 0.950 . S
H3447 C3452 0.949 . S
H3448 C3454 0.950 . S
H3449 C3455 0.950 . S
H3450 C3456 0.949 . S
C3451 H3446 0.950 . S
C3451 C3453 1.327 . S
C3451 C3457 1.429 . S
C3452 C3444 1.574 . S
C3452 H3447 0.949 . S
C3452 C3458 1.368 . S
C3453 C3437 1.349 . S
C3453 H3445 0.950 . S
C3453 C3451 1.327 . S
C3454 C3442 1.349 . S
C3454 H3448 0.950 . S
C3454 C3455 1.327 . S
C3455 H3449 0.950 . S
C3455 C3454 1.327 . S
C3455 C3459 1.429 . S
C3456 C3439 1.574 . S
C3456 H3450 0.949 . S
C3456 C3460 1.368 . S
C3457 C3438 1.429 . S
C3457 C3451 1.429 . S
C3457 C3458 1.523 . S
C3458 C3439 1.368 . S
C3458 C3452 1.368 . S
C3458 C3457 1.523 . S
C3459 C3443 1.429 . S
C3459 C3455 1.429 . S
C3459 C3460 1.523 1_455 S
C3460 C3444 1.368 . S
C3460 C3456 1.368 . S
C3460 C3459 1.523 1_655 S
H3461 C3436 0.950 . S
H3462 C3438 0.950 . S
H3463 C3439 0.949 . S
H3464 C3441 0.950 . S
H3465 C3443 0.950 . S
C3466 C3467 1.349 . S
C3466 C3468 1.327 . S
C3466 H3491 0.950 . S
C3467 C3466 1.349 . S
C3467 C3483 1.349 . S
C3468 C3466 1.327 . S
C3468 C3487 1.429 . S
C3468 H3492 0.950 . S
C3469 C3486 1.574 . S
C3469 C3488 1.368 . S
C3469 H3493 0.949 . S
H3470 C3474 0.949 . S
C3471 C3472 1.349 . S
C3471 C3473 1.327 . S
C3471 H3494 0.950 . S
C3472 C3471 1.349 . S
C3472 C3484 1.349 . S
C3473 C3471 1.327 . S
C3473 C3489 1.429 . S
C3473 H3495 0.950 . S
C3474 H3470 0.949 . S
C3474 C3482 1.574 . S
C3474 C3490 1.368 . S
H3475 C3483 0.950 . S
H3476 C3481 0.950 . S
H3477 C3482 0.949 . S
H3478 C3484 0.950 . S
H3479 C3485 0.950 . S
H3480 C3486 0.949 . S
C3481 H3476 0.950 . S
C3481 C3483 1.327 . S
C3481 C3487 1.429 . S
C3482 C3474 1.574 . S
C3482 H3477 0.949 . S
C3482 C3488 1.368 . S
C3483 C3467 1.349 . S
C3483 H3475 0.950 . S
C3483 C3481 1.327 . S
C3484 C3472 1.349 . S
C3484 H3478 0.950 . S
C3484 C3485 1.327 . S
C3485 H3479 0.950 . S
C3485 C3484 1.327 . S
C3485 C3489 1.429 . S
C3486 C3469 1.574 . S
C3486 H3480 0.949 . S
C3486 C3490 1.368 . S
C3487 C3468 1.429 . S
C3487 C3481 1.429 . S
C3487 C3488 1.523 . S
C3488 C3469 1.368 . S
C3488 C3482 1.368 . S
C3488 C3487 1.523 . S
C3489 C3473 1.429 . S
C3489 C3485 1.429 . S
C3489 C3490 1.523 . S
C3490 C3474 1.368 . S
C3490 C3486 1.368 . S
C3490 C3489 1.523 . S
H3491 C3466 0.950 . S
H3492 C3468 0.950 . S
H3493 C3469 0.949 . S
H3494 C3471 0.950 . S
H3495 C3473 0.950 . S
C3496 C3497 1.349 . S
C3496 C3498 1.327 . S
C3496 H3521 0.950 . S
C3497 C3496 1.349 . S
C3497 C3513 1.349 . S
C3498 C3496 1.327 . S
C3498 C3517 1.429 . S
C3498 H3522 0.950 . S
C3499 C3516 1.574 . S
C3499 C3518 1.368 . S
C3499 H3523 0.949 . S
H3500 C3504 0.949 . S
C3501 C3502 1.349 . S
C3501 C3503 1.327 . S
C3501 H3524 0.950 . S
C3502 C3501 1.349 . S
C3502 C3514 1.349 . S
C3503 C3501 1.327 . S
C3503 C3519 1.429 . S
C3503 H3525 0.950 . S
C3504 H3500 0.949 . S
C3504 C3512 1.574 . S
C3504 C3520 1.368 . S
H3505 C3513 0.950 . S
H3506 C3511 0.950 . S
H3507 C3512 0.949 . S
H3508 C3514 0.950 . S
H3509 C3515 0.950 . S
H3510 C3516 0.949 . S
C3511 H3506 0.950 . S
C3511 C3513 1.327 . S
C3511 C3517 1.429 . S
C3512 C3504 1.574 . S
C3512 H3507 0.949 . S
C3512 C3518 1.368 . S
C3513 C3497 1.349 . S
C3513 H3505 0.950 . S
C3513 C3511 1.327 . S
C3514 C3502 1.349 . S
C3514 H3508 0.950 . S
C3514 C3515 1.327 . S
C3515 H3509 0.950 . S
C3515 C3514 1.327 . S
C3515 C3519 1.429 . S
C3516 C3499 1.574 . S
C3516 H3510 0.949 . S
C3516 C3520 1.368 . S
C3517 C3498 1.429 . S
C3517 C3511 1.429 . S
C3517 C3518 1.523 . S
C3518 C3499 1.368 . S
C3518 C3512 1.368 . S
C3518 C3517 1.523 . S
C3519 C3503 1.429 . S
C3519 C3515 1.429 . S
C3519 C3520 1.523 . S
C3520 C3504 1.368 . S
C3520 C3516 1.368 . S
C3520 C3519 1.523 . S
H3521 C3496 0.950 . S
H3522 C3498 0.950 . S
H3523 C3499 0.949 . S
H3524 C3501 0.950 . S
H3525 C3503 0.950 . S
C3526 C3527 1.349 . S
C3526 C3528 1.327 . S
C3526 H3551 0.950 . S
C3527 C3526 1.349 . S
C3527 C3543 1.349 . S
C3528 C3526 1.327 . S
C3528 C3547 1.429 . S
C3528 H3552 0.950 . S
C3529 C3546 1.574 . S
C3529 C3548 1.368 . S
C3529 H3553 0.949 . S
H3530 C3534 0.949 . S
C3531 C3532 1.349 . S
C3531 C3533 1.327 . S
C3531 H3554 0.950 . S
C3532 C3531 1.349 . S
C3532 C3544 1.349 . S
C3533 C3531 1.327 . S
C3533 C3549 1.429 . S
C3533 H3555 0.950 . S
C3534 H3530 0.949 . S
C3534 C3542 1.574 . S
C3534 C3550 1.368 . S
H3535 C3543 0.950 . S
H3536 C3541 0.950 . S
H3537 C3542 0.949 . S
H3538 C3544 0.950 . S
H3539 C3545 0.950 . S
H3540 C3546 0.949 . S
C3541 H3536 0.950 . S
C3541 C3543 1.327 . S
C3541 C3547 1.429 . S
C3542 C3534 1.574 . S
C3542 H3537 0.949 . S
C3542 C3548 1.368 . S
C3543 C3527 1.349 . S
C3543 H3535 0.950 . S
C3543 C3541 1.327 . S
C3544 C3532 1.349 . S
C3544 H3538 0.950 . S
C3544 C3545 1.327 . S
C3545 H3539 0.950 . S
C3545 C3544 1.327 . S
C3545 C3549 1.429 . S
C3546 C3529 1.574 . S
C3546 H3540 0.949 . S
C3546 C3550 1.368 . S
C3547 C3528 1.429 . S
C3547 C3541 1.429 . S
C3547 C3548 1.523 . S
C3548 C3529 1.368 . S
C3548 C3542 1.368 . S
C3548 C3547 1.523 . S
C3549 C3533 1.429 . S
C3549 C3545 1.429 . S
C3549 C3550 1.523 . S
C3550 C3534 1.368 . S
C3550 C3546 1.368 . S
C3550 C3549 1.523 . S
H3551 C3526 0.950 . S
H3552 C3528 0.950 . S
H3553 C3529 0.949 . S
H3554 C3531 0.950 . S
H3555 C3533 0.950 . S
C3556 C3557 1.349 . S
C3556 C3558 1.327 . S
C3556 H3581 0.950 . S
C3557 C3556 1.349 . S
C3557 C3573 1.349 . S
C3558 C3556 1.327 . S
C3558 C3577 1.429 . S
C3558 H3582 0.950 . S
C3559 C3576 1.574 . S
C3559 C3578 1.368 . S
C3559 H3583 0.949 . S
H3560 C3564 0.949 . S
C3561 C3562 1.349 . S
C3561 C3563 1.327 . S
C3561 H3584 0.950 . S
C3562 C3561 1.349 . S
C3562 C3574 1.349 . S
C3563 C3561 1.327 . S
C3563 C3579 1.429 . S
C3563 H3585 0.950 . S
C3564 H3560 0.949 . S
C3564 C3572 1.574 . S
C3564 C3580 1.368 . S
H3565 C3573 0.950 . S
H3566 C3571 0.950 . S
H3567 C3572 0.949 . S
H3568 C3574 0.950 . S
H3569 C3575 0.950 . S
H3570 C3576 0.949 . S
C3571 H3566 0.950 . S
C3571 C3573 1.327 . S
C3571 C3577 1.429 . S
C3572 C3564 1.574 . S
C3572 H3567 0.949 . S
C3572 C3578 1.368 . S
C3573 C3557 1.349 . S
C3573 H3565 0.950 . S
C3573 C3571 1.327 . S
C3574 C3562 1.349 . S
C3574 H3568 0.950 . S
C3574 C3575 1.327 . S
C3575 H3569 0.950 . S
C3575 C3574 1.327 . S
C3575 C3579 1.429 . S
C3576 C3559 1.574 . S
C3576 H3570 0.949 . S
C3576 C3580 1.368 . S
C3577 C3558 1.429 . S
C3577 C3571 1.429 . S
C3577 C3578 1.523 . S
C3578 C3559 1.368 . S
C3578 C3572 1.368 . S
C3578 C3577 1.523 . S
C3579 C3563 1.429 . S
C3579 C3575 1.429 . S
C3579 C3580 1.523 . S
C3580 C3564 1.368 . S
C3580 C3576 1.368 . S
C3580 C3579 1.523 . S
H3581 C3556 0.950 . S
H3582 C3558 0.950 . S
H3583 C3559 0.949 . S
H3584 C3561 0.950 . S
H3585 C3563 0.950 . S
C3586 C3587 1.349 . S
C3586 C3588 1.327 . S
C3586 H3611 0.950 . S
C3587 C3586 1.349 . S
C3587 C3603 1.349 . S
C3588 C3586 1.327 . S
C3588 C3607 1.429 . S
C3588 H3612 0.950 . S
C3589 C3606 1.574 . S
C3589 C3608 1.368 . S
C3589 H3613 0.949 . S
H3590 C3594 0.949 . S
C3591 C3592 1.349 . S
C3591 C3593 1.327 . S
C3591 H3614 0.950 . S
C3592 C3591 1.349 . S
C3592 C3604 1.349 . S
C3593 C3591 1.327 . S
C3593 C3609 1.429 . S
C3593 H3615 0.950 . S
C3594 H3590 0.949 . S
C3594 C3602 1.574 . S
C3594 C3610 1.368 . S
H3595 C3603 0.950 . S
H3596 C3601 0.950 . S
H3597 C3602 0.949 . S
H3598 C3604 0.950 . S
H3599 C3605 0.950 . S
H3600 C3606 0.949 . S
C3601 H3596 0.950 . S
C3601 C3603 1.327 . S
C3601 C3607 1.429 . S
C3602 C3594 1.574 . S
C3602 H3597 0.949 . S
C3602 C3608 1.368 . S
C3603 C3587 1.349 . S
C3603 H3595 0.950 . S
C3603 C3601 1.327 . S
C3604 C3592 1.349 . S
C3604 H3598 0.950 . S
C3604 C3605 1.327 . S
C3605 H3599 0.950 . S
C3605 C3604 1.327 . S
C3605 C3609 1.429 . S
C3606 C3589 1.574 . S
C3606 H3600 0.949 . S
C3606 C3610 1.368 . S
C3607 C3588 1.429 . S
C3607 C3601 1.429 . S
C3607 C3608 1.523 . S
C3608 C3589 1.368 . S
C3608 C3602 1.368 . S
C3608 C3607 1.523 . S
C3609 C3593 1.429 . S
C3609 C3605 1.429 . S
C3609 C3610 1.523 . S
C3610 C3594 1.368 . S
C3610 C3606 1.368 . S
C3610 C3609 1.523 . S
H3611 C3586 0.950 . S
H3612 C3588 0.950 . S
H3613 C3589 0.949 . S
H3614 C3591 0.950 . S
H3615 C3593 0.950 . S
C3616 C3617 1.349 . S
C3616 C3618 1.327 . S
C3616 H3641 0.950 . S
C3617 C3616 1.349 . S
C3617 C3633 1.349 . S
C3618 C3616 1.327 . S
C3618 C3637 1.429 . S
C3618 H3642 0.950 . S
C3619 C3636 1.574 . S
C3619 C3638 1.368 . S
C3619 H3643 0.949 . S
H3620 C3624 0.949 . S
C3621 C3622 1.349 . S
C3621 C3623 1.327 . S
C3621 H3644 0.950 . S
C3622 C3621 1.349 . S
C3622 C3634 1.349 . S
C3623 C3621 1.327 . S
C3623 C3639 1.429 . S
C3623 H3645 0.950 . S
C3624 H3620 0.949 . S
C3624 C3632 1.574 . S
C3624 C3640 1.368 . S
H3625 C3633 0.950 . S
H3626 C3631 0.950 . S
H3627 C3632 0.949 . S
H3628 C3634 0.950 . S
H3629 C3635 0.950 . S
H3630 C3636 0.949 . S
C3631 H3626 0.950 . S
C3631 C3633 1.327 . S
C3631 C3637 1.429 . S
C3632 C3624 1.574 . S
C3632 H3627 0.949 . S
C3632 C3638 1.368 . S
C3633 C3617 1.349 . S
C3633 H3625 0.950 . S
C3633 C3631 1.327 . S
C3634 C3622 1.349 . S
C3634 H3628 0.950 . S
C3634 C3635 1.327 . S
C3635 H3629 0.950 . S
C3635 C3634 1.327 . S
C3635 C3639 1.429 . S
C3636 C3619 1.574 . S
C3636 H3630 0.949 . S
C3636 C3640 1.368 . S
C3637 C3618 1.429 . S
C3637 C3631 1.429 . S
C3637 C3638 1.523 . S
C3638 C3619 1.368 . S
C3638 C3632 1.368 . S
C3638 C3637 1.523 . S
C3639 C3623 1.429 . S
C3639 C3635 1.429 . S
C3639 C3640 1.523 . S
C3640 C3624 1.368 . S
C3640 C3636 1.368 . S
C3640 C3639 1.523 . S
H3641 C3616 0.950 . S
H3642 C3618 0.950 . S
H3643 C3619 0.949 . S
H3644 C3621 0.950 . S
H3645 C3623 0.950 . S
C3646 C3647 1.349 . S
C3646 C3648 1.327 . S
C3646 H3671 0.950 . S
C3647 C3646 1.349 . S
C3647 C3663 1.349 . S
C3648 C3646 1.327 . S
C3648 C3667 1.429 . S
C3648 H3672 0.950 . S
C3649 C3666 1.574 . S
C3649 C3668 1.368 . S
C3649 H3673 0.949 . S
H3650 C3654 0.949 . S
C3651 C3652 1.349 . S
C3651 C3653 1.327 1_545 S
C3651 H3674 0.950 . S
C3652 C3651 1.349 . S
C3652 C3664 1.347 1_545 S
C3653 C3651 1.327 1_565 S
C3653 C3669 1.429 . S
C3653 H3675 0.950 . S
C3654 H3650 0.949 . S
C3654 C3662 1.574 . S
C3654 C3670 1.368 . S
H3655 C3663 0.950 . S
H3656 C3661 0.950 . S
H3657 C3662 0.949 . S
H3658 C3664 0.940 1_545 S
H3659 C3665 0.950 . S
H3660 C3666 0.949 . S
C3661 H3656 0.950 . S
C3661 C3663 1.327 . S
C3661 C3667 1.429 . S
C3662 C3654 1.574 . S
C3662 H3657 0.949 . S
C3662 C3668 1.368 . S
C3663 C3647 1.349 . S
C3663 H3655 0.950 . S
C3663 C3661 1.327 . S
C3664 C3652 1.347 1_565 S
C3664 H3658 0.940 1_565 S
C3664 C3665 1.340 . S
C3665 H3659 0.950 . S
C3665 C3664 1.340 . S
C3665 C3669 1.429 . S
C3666 C3649 1.574 . S
C3666 H3660 0.949 . S
C3666 C3670 1.368 . S
C3667 C3648 1.429 . S
C3667 C3661 1.429 . S
C3667 C3668 1.523 . S
C3668 C3649 1.368 . S
C3668 C3662 1.368 . S
C3668 C3667 1.523 . S
C3669 C3653 1.429 . S
C3669 C3665 1.429 . S
C3669 C3670 1.523 . S
C3670 C3654 1.368 . S
C3670 C3666 1.368 . S
C3670 C3669 1.523 . S
H3671 C3646 0.950 . S
H3672 C3648 0.950 . S
H3673 C3649 0.949 . S
H3674 C3651 0.950 . S
H3675 C3653 0.950 . S
C3676 C3677 1.349 . S
C3676 C3678 1.327 . S
C3676 H3701 0.950 . S
C3677 C3676 1.349 . S
C3677 C3693 1.349 . S
C3678 C3676 1.327 . S
C3678 C3697 1.429 . S
C3678 H3702 0.950 . S
C3679 C3696 1.574 . S
C3679 C3698 1.368 . S
C3679 H3703 0.949 . S
H3680 C3684 0.949 . S
C3681 C3682 1.349 . S
C3681 C3683 1.327 . S
C3681 H3704 0.950 . S
C3682 C3681 1.349 . S
C3682 C3694 1.349 . S
C3683 C3681 1.327 . S
C3683 C3699 1.429 . S
C3683 H3705 0.950 . S
C3684 H3680 0.949 . S
C3684 C3692 1.574 . S
C3684 C3700 1.368 . S
H3685 C3693 0.950 . S
H3686 C3691 0.950 . S
H3687 C3692 0.949 . S
H3688 C3694 0.950 . S
H3689 C3695 0.950 . S
H3690 C3696 0.949 . S
C3691 H3686 0.950 . S
C3691 C3693 1.327 . S
C3691 C3697 1.429 . S
C3692 C3684 1.574 . S
C3692 H3687 0.949 . S
C3692 C3698 1.368 . S
C3693 C3677 1.349 . S
C3693 H3685 0.950 . S
C3693 C3691 1.327 . S
C3694 C3682 1.349 . S
C3694 H3688 0.950 . S
C3694 C3695 1.327 . S
C3695 H3689 0.950 . S
C3695 C3694 1.327 . S
C3695 C3699 1.429 . S
C3696 C3679 1.574 . S
C3696 H3690 0.949 . S
C3696 C3700 1.368 . S
C3697 C3678 1.429 . S
C3697 C3691 1.429 . S
C3697 C3698 1.523 . S
C3698 C3679 1.368 . S
C3698 C3692 1.368 . S
C3698 C3697 1.523 . S
C3699 C3683 1.429 . S
C3699 C3695 1.429 . S
C3699 C3700 1.523 . S
C3700 C3684 1.368 . S
C3700 C3696 1.368 . S
C3700 C3699 1.523 . S
H3701 C3676 0.950 . S
H3702 C3678 0.950 . S
H3703 C3679 0.949 . S
H3704 C3681 0.950 . S
H3705 C3683 0.950 . S
C3706 C3707 1.349 . S
C3706 C3708 1.327 . S
C3706 H3731 0.950 1_554 S
C3707 C3706 1.349 . S
C3707 C3723 1.349 . S
C3708 C3706 1.327 . S
C3708 C3727 1.429 . S
C3708 H3732 0.950 1_554 S
C3709 C3726 1.574 . S
C3709 C3728 1.368 . S
C3709 H3733 0.949 . S
H3710 C3714 0.949 . S
C3711 C3712 1.349 . S
C3711 C3713 1.327 . S
C3711 H3734 0.950 . S
C3712 C3711 1.349 . S
C3712 C3724 1.349 . S
C3713 C3711 1.327 . S
C3713 C3729 1.429 . S
C3713 H3735 0.950 . S
C3714 H3710 0.949 . S
C3714 C3722 1.574 . S
C3714 C3730 1.368 . S
H3715 C3723 0.950 . S
H3716 C3721 0.950 . S
H3717 C3722 0.949 1_556 S
H3718 C3724 0.950 . S
H3719 C3725 0.950 . S
H3720 C3726 0.949 . S
C3721 H3716 0.950 . S
C3721 C3723 1.327 . S
C3721 C3727 1.429 . S
C3722 C3714 1.574 . S
C3722 H3717 0.949 1_554 S
C3722 C3728 1.368 . S
C3723 C3707 1.349 . S
C3723 H3715 0.950 . S
C3723 C3721 1.327 . S
C3724 C3712 1.349 . S
C3724 H3718 0.950 . S
C3724 C3725 1.327 . S
C3725 H3719 0.950 . S
C3725 C3724 1.327 . S
C3725 C3729 1.429 . S
C3726 C3709 1.574 . S
C3726 H3720 0.949 . S
C3726 C3730 1.368 . S
C3727 C3708 1.429 . S
C3727 C3721 1.429 . S
C3727 C3728 1.523 . S
C3728 C3709 1.368 . S
C3728 C3722 1.368 . S
C3728 C3727 1.523 . S
C3729 C3713 1.429 . S
C3729 C3725 1.429 . S
C3729 C3730 1.523 . S
C3730 C3714 1.368 . S
C3730 C3726 1.368 . S
C3730 C3729 1.523 . S
H3731 C3706 0.950 1_556 S
H3732 C3708 0.950 1_556 S
H3733 C3709 0.949 . S
H3734 C3711 0.950 . S
H3735 C3713 0.950 . S
C3736 C3737 1.349 . S
C3736 C3738 1.327 . S
C3736 H3761 0.950 . S
C3737 C3736 1.349 . S
C3737 C3753 1.349 . S
C3738 C3736 1.327 . S
C3738 C3757 1.429 . S
C3738 H3762 0.950 . S
C3739 C3756 1.574 . S
C3739 C3758 1.368 . S
C3739 H3763 0.949 . S
H3740 C3744 0.949 . S
C3741 C3742 1.349 . S
C3741 C3743 1.327 . S
C3741 H3764 0.950 . S
C3742 C3741 1.349 . S
C3742 C3754 1.349 . S
C3743 C3741 1.327 . S
C3743 C3759 1.429 . S
C3743 H3765 0.950 . S
C3744 H3740 0.949 . S
C3744 C3752 1.574 . S
C3744 C3760 1.368 . S
H3745 C3753 0.950 . S
H3746 C3751 0.950 . S
H3747 C3752 0.949 . S
H3748 C3754 0.950 . S
H3749 C3755 0.950 . S
H3750 C3756 0.949 . S
C3751 H3746 0.950 . S
C3751 C3753 1.327 . S
C3751 C3757 1.429 . S
C3752 C3744 1.574 . S
C3752 H3747 0.949 . S
C3752 C3758 1.368 . S
C3753 C3737 1.349 . S
C3753 H3745 0.950 . S
C3753 C3751 1.327 . S
C3754 C3742 1.349 . S
C3754 H3748 0.950 . S
C3754 C3755 1.327 . S
C3755 H3749 0.950 . S
C3755 C3754 1.327 . S
C3755 C3759 1.429 . S
C3756 C3739 1.574 . S
C3756 H3750 0.949 . S
C3756 C3760 1.368 . S
C3757 C3738 1.429 . S
C3757 C3751 1.429 . S
C3757 C3758 1.523 . S
C3758 C3739 1.368 . S
C3758 C3752 1.368 . S
C3758 C3757 1.523 . S
C3759 C3743 1.429 . S
C3759 C3755 1.429 . S
C3759 C3760 1.523 . S
C3760 C3744 1.368 . S
C3760 C3756 1.368 . S
C3760 C3759 1.523 . S
H3761 C3736 0.950 . S
H3762 C3738 0.950 . S
H3763 C3739 0.949 . S
H3764 C3741 0.950 . S
H3765 C3743 0.950 . S
C3766 C3767 1.349 . S
C3766 C3768 1.327 . S
C3766 H3791 0.950 . S
C3767 C3766 1.349 . S
C3767 C3783 1.349 . S
C3768 C3766 1.327 . S
C3768 C3787 1.429 . S
C3768 H3792 0.950 1_554 S
C3769 C3786 1.574 . S
C3769 C3788 1.368 . S
C3769 H3793 0.949 . S
H3770 C3774 0.949 1_556 S
C3771 C3772 1.349 . S
C3771 C3773 1.327 . S
C3771 H3794 0.950 . S
C3772 C3771 1.349 . S
C3772 C3784 1.349 1_554 S
C3773 C3771 1.327 . S
C3773 C3789 1.429 . S
C3773 H3795 0.950 . S
C3774 H3770 0.949 1_554 S
C3774 C3782 1.574 . S
C3774 C3790 1.368 . S
H3775 C3783 0.950 . S
H3776 C3781 0.950 . S
H3777 C3782 0.949 1_556 S
H3778 C3784 0.950 . S
H3779 C3785 0.981 . S
H3780 C3786 0.949 . S
C3781 H3776 0.950 . S
C3781 C3783 1.327 . S
C3781 C3787 1.429 . S
C3782 C3774 1.574 . S
C3782 H3777 0.949 1_554 S
C3782 C3788 1.368 . S
C3783 C3767 1.349 . S
C3783 H3775 0.950 . S
C3783 C3781 1.327 . S
C3784 C3772 1.349 1_556 S
C3784 H3778 0.950 . S
C3784 C3785 1.334 . S
C3785 H3779 0.981 . S
C3785 C3784 1.334 . S
C3785 C3789 1.395 1_556 S
C3786 C3769 1.574 . S
C3786 H3780 0.949 . S
C3786 C3790 1.368 . S
C3787 C3768 1.429 . S
C3787 C3781 1.429 . S
C3787 C3788 1.523 . S
C3788 C3769 1.368 . S
C3788 C3782 1.368 . S
C3788 C3787 1.523 . S
C3789 C3773 1.429 . S
C3789 C3785 1.395 1_554 S
C3789 C3790 1.523 . S
C3790 C3774 1.368 . S
C3790 C3786 1.368 . S
C3790 C3789 1.523 . S
H3791 C3766 0.950 . S
H3792 C3768 0.950 1_556 S
H3793 C3769 0.949 . S
H3794 C3771 0.950 . S
H3795 C3773 0.950 . S
C3796 C3797 1.349 . S
C3796 C3798 1.327 . S
C3796 H3821 0.950 . S
C3797 C3796 1.349 . S
C3797 C3813 1.349 . S
C3798 C3796 1.327 . S
C3798 C3817 1.429 . S
C3798 H3822 0.950 . S
C3799 C3816 1.574 . S
C3799 C3818 1.368 . S
C3799 H3823 0.949 . S
H3800 C3804 0.949 . S
C3801 C3802 1.349 . S
C3801 C3803 1.327 . S
C3801 H3824 0.950 . S
C3802 C3801 1.349 . S
C3802 C3814 1.349 . S
C3803 C3801 1.327 . S
C3803 C3819 1.429 . S
C3803 H3825 0.950 . S
C3804 H3800 0.949 . S
C3804 C3812 1.574 . S
C3804 C3820 1.368 . S
H3805 C3813 0.916 1_545 S
H3806 C3811 0.950 . S
H3807 C3812 0.949 . S
H3808 C3814 0.950 . S
H3809 C3815 0.950 . S
H3810 C3816 0.949 . S
C3811 H3806 0.950 . S
C3811 C3813 1.327 . S
C3811 C3817 1.429 . S
C3812 C3804 1.574 . S
C3812 H3807 0.949 . S
C3812 C3818 1.368 . S
C3813 C3797 1.349 . S
C3813 H3805 0.916 1_565 S
C3813 C3811 1.327 . S
C3814 C3802 1.349 . S
C3814 H3808 0.950 . S
C3814 C3815 1.327 . S
C3815 H3809 0.950 . S
C3815 C3814 1.327 . S
C3815 C3819 1.429 . S
C3816 C3799 1.574 . S
C3816 H3810 0.949 . S
C3816 C3820 1.368 . S
C3817 C3798 1.429 . S
C3817 C3811 1.429 . S
C3817 C3818 1.523 . S
C3818 C3799 1.368 . S
C3818 C3812 1.368 . S
C3818 C3817 1.523 . S
C3819 C3803 1.429 . S
C3819 C3815 1.429 . S
C3819 C3820 1.523 . S
C3820 C3804 1.368 . S
C3820 C3816 1.368 . S
C3820 C3819 1.523 . S
H3821 C3796 0.950 . S
H3822 C3798 0.950 . S
H3823 C3799 0.949 . S
H3824 C3801 0.950 . S
H3825 C3803 0.950 . S
C3826 C3827 1.349 . S
C3826 C3828 1.327 . S
C3826 H3851 0.950 . S
C3827 C3826 1.349 . S
C3827 C3843 1.349 . S
C3828 C3826 1.327 . S
C3828 C3847 1.429 . S
C3828 H3852 0.950 . S
C3829 C3846 1.574 . S
C3829 C3848 1.368 . S
C3829 H3853 0.949 . S
H3830 C3834 0.949 . S
C3831 C3832 1.349 . S
C3831 C3833 1.327 . S
C3831 H3854 0.950 . S
C3832 C3831 1.349 . S
C3832 C3844 1.349 . S
C3833 C3831 1.327 . S
C3833 C3849 1.429 . S
C3833 H3855 0.950 . S
C3834 H3830 0.949 . S
C3834 C3842 1.574 . S
C3834 C3850 1.368 . S
H3835 C3843 0.950 . S
H3836 C3841 0.950 . S
H3837 C3842 0.949 . S
H3838 C3844 0.950 . S
H3839 C3845 0.950 . S
H3840 C3846 0.949 . S
C3841 H3836 0.950 . S
C3841 C3843 1.327 . S
C3841 C3847 1.429 . S
C3842 C3834 1.574 . S
C3842 H3837 0.949 . S
C3842 C3848 1.368 . S
C3843 C3827 1.349 . S
C3843 H3835 0.950 . S
C3843 C3841 1.327 . S
C3844 C3832 1.349 . S
C3844 H3838 0.950 . S
C3844 C3845 1.327 . S
C3845 H3839 0.950 . S
C3845 C3844 1.327 . S
C3845 C3849 1.429 . S
C3846 C3829 1.574 . S
C3846 H3840 0.949 . S
C3846 C3850 1.368 . S
C3847 C3828 1.429 . S
C3847 C3841 1.429 . S
C3847 C3848 1.523 . S
C3848 C3829 1.368 . S
C3848 C3842 1.368 . S
C3848 C3847 1.523 . S
C3849 C3833 1.429 . S
C3849 C3845 1.429 . S
C3849 C3850 1.523 . S
C3850 C3834 1.368 . S
C3850 C3846 1.368 . S
C3850 C3849 1.523 . S
H3851 C3826 0.950 . S
H3852 C3828 0.950 . S
H3853 C3829 0.949 . S
H3854 C3831 0.950 . S
H3855 C3833 0.950 . S
C977 C106 2.539 . S
C982 C338 2.529 . S
C1007 C65 2.016 . S
C1012 C395 2.009 . S
C1037 C79 1.434 . S
C1042 C418 1.405 . S
C1072 C472 1.172 . S
C1067 C90 1.155 . S
C1097 C21 0.968 . S
C1102 C512 0.981 . S
C1132 C543 0.376 . S
C1127 C35 0.436 . S
C1162 C595 1.163 . S
C1157 C50 1.165 . S
C1187 C6 1.751 . S
C1192 C618 1.755 . S
C1222 C355 2.646 . S
C1217 C232 2.645 . S
C1247 C245 0.454 . S
C1252 C392 0.371 . S
C1282 C435 1.404 . S
C1277 C274 1.406 . S
C1312 C458 1.178 . S
C1307 C175 1.181 . S
C1337 C231 1.491 . S
C1342 C498 1.514 . S
C1372 C546 1.413 . S
C1367 C246 1.432 . S
C1402 C592 0.270 . S
C1397 C273 0.372 . S
C1432 C635 2.140 . S
C1427 C176 2.129 . S
C1462 C352 1.453 . S
C1457 C160 1.445 . S
C1487 C289 1.982 . S
C1492 C675 1.979 . S
C1522 C707 2.676 . S
C1517 C328 2.653 . S
C1552 C738 0.741 1_655 S
C1547 C317 0.741 . S
C1577 C118 1.346 . S
C1582 C632 1.381 . S
C1607 C132 1.531 . S
C1612 C432 1.567 . S
C1637 C331 2.390 . S
C1642 C795 2.378 . S
C1672 C818 0.721 . S
C1667 C303 0.717 . S
C1702 C347 2.058 1_565 S
C1697 C63 2.074 . S
C1732 C826 2.509 . S
C1727 C107 2.466 . S
C1757 C92 1.195 . S
C1762 C427 1.194 . S
C1787 C78 1.742 . S
C1792 C783 1.747 . S
C1822 C503 1.464 . S
C1817 C8 1.489 . S
C1847 C51 0.509 . S
C1852 C712 0.504 . S
C1882 C586 1.670 1_566 S
C1877 C37 1.607 . S
C1912 C867 1.617 . S
C1907 C20 1.640 . S
C1942 C346 2.467 . S
C1937 C147 2.428 . S
C1972 C823 0.464 . S
C1967 C316 0.420 . S
C1997 C119 1.290 . S
C2002 C426 1.321 . S
C2027 C288 1.330 . S
C2032 C787 1.335 . S
C2057 C148 1.938 1_545 S
C2062 C507 1.930 . S
C2092 C715 1.416 . S
C2087 C315 1.399 . S
C2117 C120 0.311 . S
C2122 C583 0.328 1_565 S
C2147 C287 1.983 . S
C2152 C866 1.993 . S
C2177 C188 1.319 . S
C2182 C343 1.309 . S
C2207 C177 2.340 . S
C2212 C666 2.360 . S
C2237 C258 2.763 . S
C2242 C538 2.801 . S
C2267 C247 0.772 . S
C2272 C747 0.773 . S
C2302 C863 1.148 . S
C2297 C272 1.143 . S
C2327 C216 1.317 . S
C2332 C423 1.339 . S
C2362 C466 2.636 . S
C2357 C261 2.628 . S
C2392 C387 0.691 . S
C2387 C205 0.685 . S
C2417 C76 2.124 . S
C2422 C898 2.134 . S
C2452 C835 2.115 . S
C2447 C93 2.122 . S
C2477 C105 0.994 . S
C2482 C938 0.984 . S
C2507 C62 1.184 . S
C2512 C792 1.205 . S
C2537 C49 0.960 . S
C2542 C672 0.970 . S
C2572 C703 0.734 . S
C2567 C9 0.734 . S
C2602 C755 1.064 . S
C2597 C22 1.063 . S
C2632 C858 2.127 . S
C2627 C36 2.172 . S
C2662 C915 2.571 . S
C2657 C260 2.570 . S
C2687 C189 0.407 . S
C2692 C832 0.306 . S
C2722 C955 1.275 . S
C2717 C204 1.277 . S
C2752 C778 0.990 . S
C2747 C217 0.995 . S
C2782 C658 1.814 . S
C2777 C259 1.780 . S
C2807 C190 1.543 . S
C2812 C706 1.528 . S
C2842 C752 0.286 . S
C2837 C203 0.378 . S
C2867 C218 2.231 . S
C2872 C875 2.241 . S
C2902 C912 1.422 . S
C2897 C314 1.411 . S
C2927 C135 2.075 . S
C2932 C515 2.069 . S
C2962 C547 2.549 . S
C2957 C146 2.527 . S
C2992 C578 0.765 . S
C2987 C163 0.765 . S
C3022 C872 1.398 . S
C3017 C300 1.364 . S
C3047 C286 1.476 . S
C3052 C952 1.517 . S
C3082 C475 2.277 . S
C3077 C149 2.281 . S
C3112 C378 0.678 . S
C3107 C121 0.663 . S
C3137 C91 2.056 . S
C3142 C907 2.047 . S
C3172 C386 2.082 . S
C3167 C77 1.988 . S
C3197 C64 1.163 . S
C3202 C947 1.169 . S
C3227 C104 1.359 . S
C3232 C463 1.389 . S
C3257 C34 1.069 . S
C3262 C663 1.081 . S
C3292 C552 0.465 . S
C3287 C23 0.481 . S
C3317 C7 1.167 . S
C3322 C746 1.247 . S
C3347 C48 1.618 . S
C3352 C627 1.606 . S
C3382 C906 2.429 . S
C3377 C329 2.395 . S
C3407 C162 0.434 . S
C3412 C383 0.468 . S
C3442 C946 1.324 1_556 S
C3437 C301 1.298 . S
C3467 C134 1.346 . S
C3472 C467 1.351 . S
C3497 C330 1.918 . S
C3502 C667 1.896 . S
C3532 C555 1.435 . S
C3527 C161 1.424 . S
C3557 C302 0.317 . S
C3562 C743 0.348 . S
C3592 C626 1.964 . S
C3587 C133 1.958 . S
C3622 C903 1.509 . S
C3617 C244 1.516 . S
C3652 C506 2.292 1_655 S
C3647 C219 2.264 . S
C3677 C230 2.399 . S
C3682 C698 2.426 . S
C3712 C587 0.760 . S
C3707 C191 0.760 . S
C3737 C202 1.321 . S
C3742 C623 1.331 . S
C3767 C174 1.547 . S
C3772 C943 1.577 . S
C3802 C786 2.606 . S
C3797 C233 2.590 1_565 S
C3832 C827 0.686 . S
C3827 C275 0.677 . S
