# Generated by pormake.
# Topology scu, (8,4)-cn, num edge types: 1
# Building blocks:
#     Node 0, Type 0, BuildingBlock: TAGTUT_clean_sbu_3, # of connection points: 8
#     Node 1, Type 1, BuildingBlock: NAWXER_clean_sbu_0, # of connection points: 4
#     Node 2, Type 1, BuildingBlock: NAWXER_clean_sbu_0, # of connection points: 4
#     Edge 3, Type (0, 1), BuildingBlock: UVAHIK_clean_linker_0, # of connection points: 2
#     Edge 4, Type (0, 1), BuildingBlock: UVAHIK_clean_linker_0, # of connection points: 2
#     Edge 5, Type (0, 1), BuildingBlock: UVAHIK_clean_linker_0, # of connection points: 2
#     Edge 6, Type (0, 1), BuildingBlock: UVAHIK_clean_linker_0, # of connection points: 2
#     Edge 7, Type (0, 1), BuildingBlock: UVAHIK_clean_linker_0, # of connection points: 2
#     Edge 8, Type (0, 1), BuildingBlock: UVAHIK_clean_linker_0, # of connection points: 2
#     Edge 9, Type (0, 1), BuildingBlock: UVAHIK_clean_linker_0, # of connection points: 2
#     Edge 10, Type (0, 1), BuildingBlock: UVAHIK_clean_linker_0, # of connection points: 2
# Relax obj value: 0.034
# Max RMSD: 0.102
# Mean RMSD: 0.062
data_MOF--net-scu--node1-TAGTUT_clean_sbu_3--node2-NAWXER_clean_sbu_0--edge1-UVAHIK_clean_linker_0
_symmetry_space_group_name_H-M    P1
_symmetry_Int_Tables_number       1
_symmetry_cell_setting            triclinic
loop_
_symmetry_equiv_pos_as_xyz
'x, y, z'
_cell_length_a     33.829552
_cell_length_b     29.258967
_cell_length_c     25.71007
_cell_angle_alpha  90.134854
_cell_angle_beta   90.861272
_cell_angle_gamma 89.987784
loop_
_atom_site_label
_atom_site_type_symbol
_atom_site_fract_x
_atom_site_fract_y
_atom_site_fract_z
_atom_type_partial_charge
C0 C 0.99844 0.90983 0.05765 0.0
C1 C 0.85591 0.98579 0.04861 0.0
C2 C 0.89621 0.03624 0.90107 0.0
Mg3 Mg 0.08083 0.94731 0.0106 0.0
Mg4 Mg 0.09444 0.05645 0.98384 0.0
O5 O 0.06296 0.0042 0.97376 0.0
Mg6 Mg 1.00675 0.00518 -0.00373 0.0
O7 O 0.95067 0.00252 0.0187 0.0
Mg8 Mg 0.93236 0.94917 0.97557 0.0
Mg9 Mg 0.91983 0.0559 0.01358 0.0
C10 C 0.01804 0.10049 0.93026 0.0
O11 O 0.01726 0.06008 0.0589 0.0
O12 O 0.13968 0.95537 0.96447 0.0
O13 O 0.96084 0.10136 0.05509 0.0
O14 O 0.10912 0.98692 0.07987 0.0
O15 O 0.14568 0.03002 0.9449 0.0
O16 O 0.10967 0.06198 0.06509 0.0
O17 O 0.99309 0.95138 0.93414 0.0
O18 O 0.04973 0.91201 0.94259 0.0
C19 C 0.01576 0.91824 0.92086 0.0
C20 C 0.15819 0.98864 0.94292 0.0
O21 O 0.99683 0.06537 0.94065 0.0
O22 O 0.87394 0.9537 0.02396 0.0
O23 O 0.05399 0.1051 0.9465 0.0
O24 O 0.90364 0.9945 0.9121 0.0
O25 O 0.86875 0.02706 0.05005 0.0
O26 O 0.90358 0.06826 0.93352 0.0
O27 O 0.01995 0.94533 0.05038 0.0
O28 O 0.96396 0.90609 0.03667 0.0
C29 C 0.11656 0.02787 0.0947 0.0
C30 C 0.99653 0.09504 0.0716 0.0
C31 C 0.02084 0.55197 0.56787 0.0
C32 C 0.06071 0.43193 0.44806 0.0
O33 O 0.05509 0.53421 0.56448 0.0
Zn34 Zn 0.04199 0.49064 0.5107 0.0
O35 O 0.99249 0.53757 0.53851 0.0
Zn36 Zn 0.98298 0.48801 0.47798 0.0
O37 O 0.94442 0.44637 0.50787 0.0
O38 O 1.00194 0.44754 0.54993 0.0
O39 O 0.02452 0.44396 0.44278 0.0
O40 O 0.08212 0.44899 0.48418 0.0
O41 O 0.03064 0.53587 0.44725 0.0
O42 O 0.96885 0.52693 0.4198 0.0
C43 C 0.96623 0.43339 0.54572 0.0
C44 C 1.0022 0.54678 0.41624 0.0
C45 C 0.569 0.0375 0.548 0.0
C46 C 0.44647 0.03364 0.44462 0.0
O47 O 0.55695 -0.00314 0.53773 0.0
Zn48 Zn 0.50875 0.96392 0.49754 0.0
O49 O 0.54883 0.07153 0.53211 0.0
Zn50 Zn 0.50778 0.03674 0.49619 0.0
O51 O 0.47668 0.00575 0.55935 0.0
O52 O 0.48236 0.93089 0.55235 0.0
O53 O 0.46568 0.06884 0.45931 0.0
O54 O 0.45969 0.99379 0.4562 0.0
O55 O 0.53598 0.93004 0.44399 0.0
O56 O 0.53975 0.00477 0.43411 0.0
C57 C 0.46901 0.96555 0.5763 0.0
C58 C 0.54843 0.96429 0.41869 0.0
C59 C 1.00209 0.17523 0.10312 0.0
C60 C 0.01422 0.12954 0.10674 0.0
C61 C 0.01664 0.20769 0.13818 0.0
C62 C 0.09229 0.23038 0.24202 0.0
H63 H 0.01262 0.31711 0.28569 0.0
C64 C 0.08909 0.35624 0.42321 0.0
C65 C 0.07662 0.40036 0.4093 0.0
C66 C 0.09205 0.32218 0.38493 0.0
C67 C 0.03524 0.29325 0.27363 0.0
H68 H 0.05211 0.08206 0.14863 0.0
H69 H 0.07665 0.13865 0.21141 0.0
H70 H 0.99541 0.25917 0.22186 0.0
H71 H 0.06114 0.44511 0.34527 0.0
H72 H 0.0668 0.38611 0.27869 0.0
H73 H 0.13159 0.26455 0.2962 0.0
C74 C 0.05647 0.14961 0.18082 0.0
C75 C 0.02552 0.2602 0.23673 0.0
C76 C 0.04232 0.11716 0.14501 0.0
C77 C 0.07093 0.41124 0.35667 0.0
C78 C 0.07408 0.37757 0.3187 0.0
C79 C 0.10192 0.26341 0.27983 0.0
C80 C 0.043 0.19508 0.17854 0.0
C81 C 0.05402 0.22888 0.21955 0.0
C82 C 0.08256 0.3323 0.33279 0.0
C83 C 0.07353 0.29555 0.29506 0.0
H84 H 0.98112 0.1859 0.07328 0.0
H85 H 1.00663 0.24268 0.1341 0.0
H86 H 0.11493 0.20672 0.22969 0.0
H87 H 0.09306 0.34715 0.46378 0.0
H88 H 0.09834 0.28734 0.39658 0.0
C89 C 0.80966 0.93041 0.09187 0.0
C90 C 0.81935 0.97537 0.07751 0.0
C91 C 0.77645 0.92186 0.12245 0.0
C92 C 0.68221 0.9737 0.16485 0.0
H93 H 0.69661 0.90092 0.28953 0.0
C94 C 0.58463 -0.00345 0.34308 0.0
C95 C 0.57416 0.95835 0.37292 0.0
C96 C 0.61073 0.9922 0.30185 0.0
C97 C 0.69179 0.92063 0.25441 0.0
H98 H 0.8009 0.0463 0.0826 0.0
H99 H 0.74342 0.03139 0.13522 0.0
H100 H 0.74929 0.90431 0.22561 0.0
H101 H 0.58247 0.88529 0.38204 0.0
H102 H 0.62826 0.87768 0.30962 0.0
H103 H 0.62523 0.99101 0.19403 0.0
C104 C 0.76126 0.00268 0.12295 0.0
C105 C 0.72199 0.92257 0.21777 0.0
C106 C 0.79449 0.01126 0.09306 0.0
C107 C 0.5899 0.9154 0.35982 0.0
C108 C 0.6163 0.91108 0.31853 0.0
C109 C 0.65206 0.97169 0.2013 0.0
C110 C 0.75201 0.95801 0.1385 0.0
C111 C 0.71796 0.95021 0.17334 0.0
C112 C 0.62719 0.94954 0.28927 0.0
C113 C 0.65692 0.94623 0.24727 0.0
H114 H 0.82824 0.90202 0.08064 0.0
H115 H 0.76996 0.88703 0.13367 0.0
H116 H 0.6779 -0.00539 0.13051 0.0
H117 H 0.57313 0.03017 0.35201 0.0
H118 H 0.61891 0.02269 0.28077 0.0
C119 C 0.04274 0.8757 0.12701 0.0
C120 C 0.01311 0.87077 0.08856 0.0
C121 C 0.0522 0.83896 0.15991 0.0
C122 C 0.03579 0.71346 0.17639 0.0
H123 H 0.03505 0.74246 0.32356 0.0
C124 C 0.9843 0.58759 0.33345 0.0
C125 C 0.0089 0.58301 0.37756 0.0
C126 C 0.99191 0.62152 0.29671 0.0
C127 C 0.03577 0.73392 0.28256 0.0
H128 H 0.97232 0.82282 0.05183 0.0
H129 H 0.98812 0.76 0.10882 0.0
H130 H 0.03962 0.80411 0.26011 0.0
H131 H 0.06031 0.61071 0.41832 0.0
H132 H 0.07289 0.67037 0.35471 0.0
H133 H 0.02964 0.64343 0.19901 0.0
C134 C 1.0044 0.7916 0.11394 0.0
C135 C 0.03873 0.76914 0.24624 0.0
C136 C 0.99493 0.828 0.08156 0.0
C137 C 0.0409 0.61325 0.38455 0.0
C138 C 0.04809 0.6475 0.34834 0.0
C139 C 0.03227 0.67838 0.21265 0.0
C140 C 0.03245 0.79679 0.15427 0.0
C141 C 0.03755 0.75938 0.19267 0.0
C142 C 0.02382 0.6518 0.304 0.0
C143 C 0.03122 0.68843 0.26594 0.0
H144 H 0.05736 0.90827 0.13304 0.0
H145 H 0.07422 0.84384 0.19042 0.0
H146 H 0.03566 0.70472 0.13542 0.0
H147 H 0.95952 0.56471 0.32706 0.0
H148 H 0.97254 0.62454 0.26296 0.0
C149 C 0.14725 -0.00251 0.17671 0.0
C150 C 0.13898 0.0349 0.14411 0.0
C151 C 0.17561 0.00111 0.21649 0.0
C152 C 0.24013 0.08002 0.29268 0.0
H153 H 0.3137 0.97867 0.28498 0.0
C154 C 0.39591 0.07945 0.39382 0.0
C155 C 0.40868 0.03761 0.41504 0.0
C156 C 0.36062 0.08184 0.36455 0.0
C157 C 0.29324 0.00696 0.28835 0.0
H158 H 0.1511 0.10685 0.13138 0.0
H159 H 0.20094 0.11292 0.20069 0.0
H160 H 0.25437 0.97815 0.23099 0.0
H161 H 0.3935 0.966 0.42402 0.0
H162 H 0.33224 0.97036 0.37428 0.0
H163 H 0.27959 0.10884 0.35015 0.0
C164 C 0.18557 0.08076 0.19525 0.0
C165 C 0.2591 0.00662 0.25737 0.0
C166 C 0.15704 0.07719 0.1554 0.0
C167 C 0.38495 -0.00133 0.4076 0.0
C168 C 0.34978 0.00111 0.37883 0.0
C169 C 0.27442 0.08027 0.32407 0.0
C170 C 0.19642 0.04215 0.2246 0.0
C171 C 0.23198 0.04292 0.25932 0.0
C172 C 0.33743 0.04248 0.35615 0.0
C173 C 0.30125 0.04352 0.32246 0.0
H174 H 0.13341 0.96461 0.16979 0.0
H175 H 0.18255 0.97106 0.23943 0.0
H176 H 0.2198 0.10853 0.29496 0.0
H177 H 0.41349 0.1101 0.39899 0.0
H178 H 0.35208 0.1142 0.34738 0.0
C179 C 0.03681 0.87198 0.84591 0.0
C180 C 1.00576 0.88904 0.87589 0.0
C181 C 0.02943 0.84145 0.80563 0.0
C182 C 0.96374 0.75059 0.76743 0.0
H183 H 0.02724 0.75411 0.64301 0.0
C184 C 0.97446 0.60283 0.6156 0.0
C185 C 0.01348 0.59071 0.60321 0.0
C186 C 0.96692 0.64175 0.64536 0.0
C187 C 0.00924 0.75276 0.67748 0.0
H188 H 0.94234 0.88892 0.88625 0.0
H189 H 0.92922 0.83378 0.81526 0.0
H190 H 0.02246 0.82199 0.6978 0.0
H191 H 0.07518 0.6092 0.61309 0.0
H192 H 0.06194 0.67758 0.66478 0.0
H193 H 0.95153 0.68068 0.74754 0.0
C194 C 0.95931 0.84464 0.82331 0.0
C195 C 1.0063 0.79158 0.70862 0.0
C196 C 0.96673 0.87612 0.86361 0.0
C197 C 0.04486 0.61765 0.62209 0.0
C198 C 0.03727 0.65693 0.65122 0.0
C199 C 0.96639 0.71172 0.73587 0.0
C200 C 0.99078 0.82684 0.79429 0.0
C201 C 0.98499 0.79026 0.7551 0.0
C202 C 0.99822 0.66958 0.66254 0.0
C203 C 0.9905 0.71205 0.69184 0.0
H204 H 0.06719 0.88172 0.8541 0.0
H205 H 0.05438 0.82784 0.78466 0.0
H206 H 0.94734 0.74855 0.80321 0.0
H207 H 0.94966 0.58254 0.60175 0.0
H208 H 0.93661 0.65078 0.6537 0.0
C209 C 0.20517 0.93444 0.89903 0.0
C210 C 0.19479 0.97922 0.91356 0.0
C211 C 0.2386 0.92644 0.86873 0.0
C212 C 0.33239 0.97971 0.82731 0.0
H213 H 0.32046 0.90385 0.70421 0.0
C214 C 0.43222 -0.00082 0.65076 0.0
C215 C 0.44324 0.96037 0.62209 0.0
C216 C 0.40576 -0.00442 0.69165 0.0
C217 C 0.3246 0.92444 0.73893 0.0
H218 H 0.21216 0.05049 0.90869 0.0
H219 H 0.27007 0.03654 0.85631 0.0
H220 H 0.26689 0.90801 0.76672 0.0
H221 H 0.43566 0.88702 0.61481 0.0
H222 H 0.38923 0.88073 0.68666 0.0
H223 H 0.38962 -0.00297 0.79909 0.0
C224 C 0.25259 0.00754 0.86842 0.0
C225 C 0.29386 0.92684 0.77474 0.0
C226 C 0.21912 0.01557 0.89817 0.0
C227 C 0.42779 0.91758 0.63614 0.0
C228 C 0.40103 0.91401 0.67707 0.0
C229 C 0.36307 0.97723 0.79166 0.0
C230 C 0.26258 0.96298 0.85293 0.0
C231 C 0.29702 0.95549 0.81861 0.0
C232 C 0.38947 0.95309 0.70502 0.0
C233 C 0.35914 0.95057 0.7463 0.0
H234 H 0.18705 0.90565 0.91013 0.0
H235 H 0.24567 0.89169 0.85764 0.0
H236 H 0.33605 0.00137 0.86127 0.0
H237 H 0.44351 0.03269 0.64109 0.0
H238 H 0.3971 0.0265 0.71173 0.0
C239 C 0.01473 0.18142 0.90077 0.0
C240 C 1.00102 0.13635 0.89655 0.0
C241 C 1.00155 0.21462 0.86584 0.0
C242 C 0.92809 0.24083 0.76049 0.0
H243 H 0.01262 0.32047 0.71595 0.0
C244 C 0.93468 0.3609 0.57613 0.0
C245 C 0.95141 0.40382 0.5871 0.0
C246 C 0.93102 0.32855 0.61602 0.0
C247 C 0.98861 0.29871 0.72829 0.0
H248 H 0.96167 0.09087 0.8538 0.0
H249 H 0.93943 0.14869 0.79156 0.0
H250 H 0.02607 0.26333 0.7818 0.0
H251 H 0.97344 0.44873 0.64798 0.0
H252 H 0.96646 0.3929 0.7173 0.0
H253 H 0.89114 0.27618 0.70471 0.0
C254 C 0.95977 0.15865 0.82247 0.0
C255 C 0.99622 0.26611 0.76633 0.0
C256 C 0.97257 0.12549 0.85805 0.0
C257 C 0.96073 0.41563 0.63871 0.0
C258 C 0.9568 0.38375 0.67827 0.0
C259 C 0.92055 0.27345 0.72165 0.0
C260 C 0.975 0.20332 0.82512 0.0
C261 C 0.96599 0.23725 0.78368 0.0
C262 C 0.94394 0.33924 0.66687 0.0
C263 C 0.95071 0.30311 0.70602 0.0
H264 H 0.03611 0.1909 0.93069 0.0
H265 H 0.01296 0.24904 0.87004 0.0
H266 H 0.90417 0.21903 0.77293 0.0
H267 H 0.92759 0.35114 0.53641 0.0
H268 H 0.92112 0.29431 0.60642 0.0
C269 C 0.85284 0.08752 0.84635 0.0
C270 C 0.87363 0.04615 0.85252 0.0
C271 C 0.8242 0.09219 0.80673 0.0
C272 C 0.75546 0.01772 0.73692 0.0
H273 H 0.73005 0.12278 0.65108 0.0
C274 C 0.63245 0.00657 0.58356 0.0
C275 C 0.60646 0.04371 0.57774 0.0
C276 C 0.6671 0.01078 0.61314 0.0
C277 C 0.73657 0.09338 0.67524 0.0
H278 H 0.88398 0.97942 0.81826 0.0
H279 H 0.83459 0.98782 0.7493 0.0
H280 H 0.78912 0.12425 0.70777 0.0
H281 H 0.59709 0.11496 0.59729 0.0
H282 H 0.65754 0.12206 0.65053 0.0
H283 H 0.70294 0.98707 0.70618 0.0
C284 C 0.83954 0.01612 0.77586 0.0
C285 C 0.77045 0.09419 0.70746 0.0
C286 C 0.86798 0.01141 0.8153 0.0
C287 C 0.6165 0.08569 0.60119 0.0
C288 C 0.65122 0.0898 0.63143 0.0
C289 C 0.7217 0.01703 0.70527 0.0
C290 C 0.81603 0.05563 0.77266 0.0
C291 C 0.78046 0.05602 0.73808 0.0
C292 C 0.67659 0.05208 0.63842 0.0
C293 C 0.71203 0.05451 0.67343 0.0
H294 H 0.85669 0.11509 0.87416 0.0
H295 H 0.80665 0.12313 0.80504 0.0
H296 H 0.7617 0.98829 0.7612 0.0
H297 H 0.62602 0.97395 0.5653 0.0
H298 H 0.68641 0.98136 0.61642 0.0
loop_
_geom_bond_atom_site_label_1
_geom_bond_atom_site_label_2
_geom_bond_distance
_geom_bond_site_symmetry_2
_ccdc_geom_bond_type
C0 O27 1.312 1_655 S
C0 O28 1.208 . S
C1 O22 1.331 . S
C1 O25 1.244 1_565 S
C2 O24 1.264 1_545 S
C2 O26 1.273 . S
Mg3 O5 1.936 1_565 S
Mg3 O12 2.081 . S
Mg3 O14 2.023 1_556 S
Mg3 O18 2.031 . S
Mg3 O27 2.291 1_556 S
Mg4 O5 1.963 . S
Mg4 O15 1.942 . S
Mg4 O16 1.955 1_556 S
Mg4 O23 1.986 . S
O5 Mg3 1.936 1_545 S
O5 Mg4 1.963 . S
O5 Mg6 1.915 1_556 S
Mg6 O5 1.915 1_554 S
Mg6 O7 1.915 1_455 S
Mg6 O11 2.013 . S
Mg6 O17 2.114 1_444 S
Mg6 O21 2.013 1_454 S
Mg6 O27 2.114 1_545 S
O7 Mg6 1.915 1_655 S
O7 Mg8 1.936 1_545 S
O7 Mg9 1.963 . S
Mg8 O7 1.936 1_565 S
Mg8 O17 2.291 1_554 S
Mg8 O22 2.081 . S
Mg8 O24 2.023 1_554 S
Mg8 O28 2.031 . S
Mg9 O7 1.963 . S
Mg9 O13 1.986 . S
Mg9 O25 1.942 . S
Mg9 O26 1.955 1_554 S
C10 O21 1.191 1_455 S
C10 O23 1.307 . S
O11 Mg6 2.013 . S
O11 C30 1.191 1_455 S
O12 Mg3 2.081 . S
O12 C20 1.331 . S
O13 Mg9 1.986 . S
O13 C30 1.307 . S
O14 Mg3 2.023 1_554 S
O14 C29 1.264 1_565 S
O15 Mg4 1.942 . S
O15 C20 1.244 1_545 S
O16 Mg4 1.955 1_554 S
O16 C29 1.273 . S
O17 Mg6 2.114 1_666 S
O17 Mg8 2.291 1_556 S
O17 C19 1.312 1_655 S
O18 Mg3 2.031 . S
O18 C19 1.208 . S
C19 O17 1.312 1_455 S
C19 O18 1.208 . S
C20 O12 1.331 . S
C20 O15 1.244 1_565 S
O21 Mg6 2.013 1_656 S
O21 C10 1.191 1_655 S
O22 C1 1.331 . S
O22 Mg8 2.081 . S
O23 Mg4 1.986 . S
O23 C10 1.307 . S
O24 C2 1.264 1_565 S
O24 Mg8 2.023 1_556 S
O25 C1 1.244 1_545 S
O25 Mg9 1.942 . S
O26 C2 1.273 . S
O26 Mg9 1.955 1_556 S
O27 C0 1.312 1_455 S
O27 Mg3 2.291 1_554 S
O27 Mg6 2.114 1_565 S
O28 C0 1.208 . S
O28 Mg8 2.031 . S
C29 O14 1.264 1_545 S
C29 O16 1.273 . S
C30 O11 1.191 1_655 S
C30 O13 1.307 . S
C31 O33 1.251 . S
C31 O35 1.254 1_455 S
C32 O39 1.245 . S
C32 O40 1.260 1_655 S
O33 C31 1.251 . S
O33 Zn34 2.028 . S
Zn34 O33 2.028 . S
Zn34 O38 2.035 . S
Zn34 O40 2.035 . S
Zn34 O41 2.028 . S
O35 C31 1.254 1_655 S
O35 Zn36 2.035 . S
Zn36 O35 2.035 . S
Zn36 O37 2.028 . S
Zn36 O39 2.028 . S
Zn36 O42 2.035 . S
O37 Zn36 2.028 . S
O37 C43 1.245 . S
O38 Zn34 2.035 . S
O38 C43 1.260 1_455 S
O39 C32 1.245 . S
O39 Zn36 2.028 . S
O40 C32 1.260 1_455 S
O40 Zn34 2.035 . S
O41 Zn34 2.028 . S
O41 C44 1.251 . S
O42 Zn36 2.035 . S
O42 C44 1.254 1_655 S
C43 O37 1.245 . S
C43 O38 1.260 1_655 S
C44 O41 1.251 . S
C44 O42 1.254 1_455 S
C45 O47 1.247 1_545 S
C45 O49 1.258 . S
C46 O53 1.247 . S
C46 O54 1.258 1_545 S
O47 C45 1.247 1_565 S
O47 Zn48 2.028 . S
Zn48 O47 2.028 . S
Zn48 O52 2.035 . S
Zn48 O54 2.035 . S
Zn48 O55 2.028 . S
O49 C45 1.258 . S
O49 Zn50 2.035 . S
Zn50 O49 2.035 . S
Zn50 O51 2.028 . S
Zn50 O53 2.028 . S
Zn50 O56 2.035 . S
O51 Zn50 2.028 . S
O51 C57 1.247 . S
O52 Zn48 2.035 . S
O52 C57 1.258 1_565 S
O53 C46 1.247 . S
O53 Zn50 2.028 . S
O54 C46 1.258 1_565 S
O54 Zn48 2.035 . S
O55 Zn48 2.028 . S
O55 C58 1.247 1_565 S
O56 Zn50 2.035 . S
O56 C58 1.258 . S
C57 O51 1.247 . S
C57 O52 1.258 1_545 S
C58 O55 1.247 1_545 S
C58 O56 1.258 . S
C59 C60 1.349 . S
C59 C61 1.327 . S
C59 H84 0.950 . S
C60 C59 1.349 . S
C60 C76 1.349 1_655 S
C61 C59 1.327 . S
C61 C80 1.430 . S
C61 H85 0.950 . S
C62 C79 1.574 . S
C62 C81 1.367 1_455 S
C62 H86 0.949 . S
H63 C67 0.949 . S
C64 C65 1.349 . S
C64 C66 1.327 . S
C64 H87 0.950 . S
C65 C64 1.349 . S
C65 C77 1.349 1_455 S
C66 C64 1.327 . S
C66 C82 1.428 1_455 S
C66 H88 0.950 . S
C67 H63 0.949 . S
C67 C75 1.574 . S
C67 C83 1.369 . S
H68 C76 0.950 . S
H69 C74 0.950 . S
H70 C75 0.949 . S
H71 C77 0.950 . S
H72 C78 0.950 . S
H73 C79 0.949 . S
C74 H69 0.950 . S
C74 C76 1.327 . S
C74 C80 1.427 1_455 S
C75 C67 1.574 . S
C75 H70 0.949 . S
C75 C81 1.370 . S
C76 C60 1.349 1_455 S
C76 H68 0.950 . S
C76 C74 1.327 . S
C77 C65 1.349 1_655 S
C77 H71 0.950 . S
C77 C78 1.327 . S
C78 H72 0.950 . S
C78 C77 1.327 . S
C78 C82 1.429 . S
C79 C62 1.574 . S
C79 H73 0.949 . S
C79 C83 1.367 1_455 S
C80 C61 1.430 . S
C80 C74 1.427 1_655 S
C80 C81 1.523 . S
C81 C62 1.367 1_655 S
C81 C75 1.370 . S
C81 C80 1.523 . S
C82 C66 1.428 1_655 S
C82 C78 1.429 . S
C82 C83 1.523 . S
C83 C67 1.369 . S
C83 C79 1.367 1_655 S
C83 C82 1.523 . S
H84 C59 0.950 . S
H85 C61 0.950 . S
H86 C62 0.949 . S
H87 C64 0.950 . S
H88 C66 0.950 . S
C89 C90 1.349 . S
C89 C91 1.327 . S
C89 H114 0.950 . S
C90 C89 1.349 . S
C90 C106 1.349 1_565 S
C91 C89 1.327 . S
C91 C110 1.429 . S
C91 H115 0.950 . S
C92 C109 1.574 . S
C92 C111 1.368 1_545 S
C92 H116 0.949 . S
H93 C97 0.949 . S
C94 C95 1.349 . S
C94 C96 1.327 . S
C94 H117 0.950 . S
C95 C94 1.349 . S
C95 C107 1.349 1_545 S
C96 C94 1.327 . S
C96 C112 1.445 . S
C96 H118 0.950 . S
C97 H93 0.949 . S
C97 C105 1.574 . S
C97 C113 1.370 1_565 S
H98 C106 0.950 . S
H99 C104 0.950 . S
H100 C105 0.949 . S
H101 C107 0.950 . S
H102 C108 0.950 . S
H103 C109 0.949 . S
C104 H99 0.950 . S
C104 C106 1.327 . S
C104 C110 1.429 1_545 S
C105 C97 1.574 . S
C105 H100 0.949 . S
C105 C111 1.368 . S
C106 C90 1.349 1_545 S
C106 H98 0.950 . S
C106 C104 1.327 . S
C107 C95 1.349 1_565 S
C107 H101 0.950 . S
C107 C108 1.327 . S
C108 H102 0.950 . S
C108 C107 1.327 . S
C108 C112 1.412 1_565 S
C109 C92 1.574 . S
C109 H103 0.949 . S
C109 C113 1.367 . S
C110 C91 1.429 . S
C110 C104 1.429 1_565 S
C110 C111 1.523 . S
C111 C92 1.368 1_565 S
C111 C105 1.368 . S
C111 C110 1.523 . S
C112 C96 1.445 . S
C112 C108 1.412 1_545 S
C112 C113 1.523 . S
C113 C97 1.370 1_545 S
C113 C109 1.367 . S
C113 C112 1.523 . S
H114 C89 0.950 . S
H115 C91 0.950 . S
H116 C92 0.949 . S
H117 C94 0.950 . S
H118 C96 0.950 . S
C119 C120 1.349 . S
C119 C121 1.327 . S
C119 H144 0.950 . S
C120 C119 1.349 . S
C120 C136 1.349 1_455 S
C121 C119 1.327 . S
C121 C140 1.429 . S
C121 H145 0.950 . S
C122 C139 1.574 . S
C122 C141 1.368 1_655 S
C122 H146 0.949 . S
H123 C127 0.949 . S
C124 C125 1.346 1_655 S
C124 C126 1.327 . S
C124 H147 0.950 . S
C125 C124 1.346 1_455 S
C125 C137 1.352 . S
C126 C124 1.327 . S
C126 C142 1.410 1_655 S
C126 H148 0.950 . S
C127 H123 0.949 . S
C127 C135 1.574 . S
C127 C143 1.368 . S
H128 C136 0.950 . S
H129 C134 0.950 . S
H130 C135 0.949 . S
H131 C137 0.950 . S
H132 C138 0.950 . S
H133 C139 0.949 . S
C134 H129 0.950 . S
C134 C136 1.327 . S
C134 C140 1.429 1_655 S
C135 C127 1.574 . S
C135 H130 0.949 . S
C135 C141 1.368 . S
C136 C120 1.349 1_655 S
C136 H128 0.950 . S
C136 C134 1.327 . S
C137 C125 1.352 . S
C137 H131 0.950 . S
C137 C138 1.327 . S
C138 H132 0.950 . S
C138 C137 1.327 . S
C138 C142 1.447 . S
C139 C122 1.574 . S
C139 H133 0.949 . S
C139 C143 1.368 1_655 S
C140 C121 1.429 . S
C140 C134 1.429 1_455 S
C140 C141 1.523 . S
C141 C122 1.368 1_455 S
C141 C135 1.368 . S
C141 C140 1.523 . S
C142 C126 1.410 1_455 S
C142 C138 1.447 . S
C142 C143 1.524 . S
C143 C127 1.368 . S
C143 C139 1.368 1_455 S
C143 C142 1.524 . S
H144 C119 0.950 . S
H145 C121 0.950 . S
H146 C122 0.949 . S
H147 C124 0.950 . S
H148 C126 0.950 . S
C149 C150 1.349 1_565 S
C149 C151 1.327 . S
C149 H174 0.950 . S
C150 C149 1.349 1_545 S
C150 C166 1.349 . S
C151 C149 1.327 . S
C151 C170 1.429 1_565 S
C151 H175 0.950 . S
C152 C169 1.574 . S
C152 C171 1.368 . S
C152 H176 0.949 . S
H153 C157 0.949 . S
C154 C155 1.349 . S
C154 C156 1.327 . S
C154 H177 0.950 . S
C155 C154 1.349 . S
C155 C167 1.349 1_545 S
C156 C154 1.327 . S
C156 C172 1.429 . S
C156 H178 0.950 . S
C157 H153 0.949 . S
C157 C165 1.574 . S
C157 C173 1.368 1_565 S
H158 C166 0.950 . S
H159 C164 0.950 . S
H160 C165 0.949 . S
H161 C167 0.950 . S
H162 C168 0.950 . S
H163 C169 0.949 . S
C164 H159 0.950 . S
C164 C166 1.327 . S
C164 C170 1.429 . S
C165 C157 1.574 . S
C165 H160 0.949 . S
C165 C171 1.368 1_565 S
C166 C150 1.349 . S
C166 H158 0.950 . S
C166 C164 1.327 . S
C167 C155 1.349 1_565 S
C167 H161 0.950 . S
C167 C168 1.327 . S
C168 H162 0.950 . S
C168 C167 1.327 . S
C168 C172 1.429 1_565 S
C169 C152 1.574 . S
C169 H163 0.949 . S
C169 C173 1.368 . S
C170 C151 1.429 1_545 S
C170 C164 1.429 . S
C170 C171 1.523 . S
C171 C152 1.368 . S
C171 C165 1.368 1_545 S
C171 C170 1.523 . S
C172 C156 1.429 . S
C172 C168 1.429 1_545 S
C172 C173 1.523 . S
C173 C157 1.368 1_545 S
C173 C169 1.368 . S
C173 C172 1.523 . S
H174 C149 0.950 . S
H175 C151 0.950 . S
H176 C152 0.949 . S
H177 C154 0.950 . S
H178 C156 0.950 . S
C179 C180 1.349 1_455 S
C179 C181 1.327 . S
C179 H204 0.950 . S
C180 C179 1.349 1_655 S
C180 C196 1.349 . S
C181 C179 1.327 . S
C181 C200 1.429 1_455 S
C181 H205 0.950 . S
C182 C199 1.574 . S
C182 C201 1.368 . S
C182 H206 0.949 . S
H183 C187 0.949 . S
C184 C185 1.348 . S
C184 C186 1.327 . S
C184 H207 0.950 . S
C185 C184 1.348 . S
C185 C197 1.350 1_655 S
C186 C184 1.327 . S
C186 C202 1.434 . S
C186 H208 0.950 . S
C187 H183 0.949 . S
C187 C195 1.574 . S
C187 C203 1.359 1_455 S
H188 C196 0.950 . S
H189 C194 0.950 . S
H190 C195 0.949 . S
H191 C197 0.950 . S
H192 C198 0.950 . S
H193 C199 0.949 . S
C194 H189 0.950 . S
C194 C196 1.327 . S
C194 C200 1.429 . S
C195 C187 1.574 . S
C195 H190 0.949 . S
C195 C201 1.368 1_455 S
C196 C180 1.349 . S
C196 H188 0.950 . S
C196 C194 1.327 . S
C197 C185 1.350 1_455 S
C197 H191 0.950 . S
C197 C198 1.327 . S
C198 H192 0.950 . S
C198 C197 1.327 . S
C198 C202 1.423 1_455 S
C199 C182 1.574 . S
C199 H193 0.949 . S
C199 C203 1.378 . S
C200 C181 1.429 1_655 S
C200 C194 1.429 . S
C200 C201 1.523 . S
C201 C182 1.368 . S
C201 C195 1.368 1_655 S
C201 C200 1.523 . S
C202 C186 1.434 . S
C202 C198 1.423 1_655 S
C202 C203 1.523 . S
C203 C187 1.359 1_655 S
C203 C199 1.378 . S
C203 C202 1.523 . S
H204 C179 0.950 . S
H205 C181 0.950 . S
H206 C182 0.949 . S
H207 C184 0.950 . S
H208 C186 0.950 . S
C209 C210 1.349 . S
C209 C211 1.327 . S
C209 H234 0.950 . S
C210 C209 1.349 . S
C210 C226 1.349 1_565 S
C211 C209 1.327 . S
C211 C230 1.429 . S
C211 H235 0.950 . S
C212 C229 1.574 . S
C212 C231 1.368 1_545 S
C212 H236 0.949 . S
H213 C217 0.949 . S
C214 C215 1.349 . S
C214 C216 1.327 . S
C214 H237 0.950 . S
C215 C214 1.349 . S
C215 C227 1.349 1_545 S
C216 C214 1.327 . S
C216 C232 1.444 . S
C216 H238 0.950 . S
C217 H213 0.949 . S
C217 C225 1.574 . S
C217 C233 1.370 1_565 S
H218 C226 0.950 . S
H219 C224 0.950 . S
H220 C225 0.949 . S
H221 C227 0.950 . S
H222 C228 0.950 . S
H223 C229 0.949 . S
C224 H219 0.950 . S
C224 C226 1.327 . S
C224 C230 1.429 1_545 S
C225 C217 1.574 . S
C225 H220 0.949 . S
C225 C231 1.368 . S
C226 C210 1.349 1_545 S
C226 H218 0.950 . S
C226 C224 1.327 . S
C227 C215 1.349 1_565 S
C227 H221 0.950 . S
C227 C228 1.327 . S
C228 H222 0.950 . S
C228 C227 1.327 . S
C228 C232 1.414 1_565 S
C229 C212 1.574 . S
C229 H223 0.949 . S
C229 C233 1.367 . S
C230 C211 1.429 . S
C230 C224 1.429 1_565 S
C230 C231 1.523 . S
C231 C212 1.368 1_565 S
C231 C225 1.368 . S
C231 C230 1.523 . S
C232 C216 1.444 . S
C232 C228 1.414 1_545 S
C232 C233 1.523 . S
C233 C217 1.370 1_545 S
C233 C229 1.367 . S
C233 C232 1.523 . S
H234 C209 0.950 . S
H235 C211 0.950 . S
H236 C212 0.949 . S
H237 C214 0.950 . S
H238 C216 0.950 . S
C239 C240 1.349 . S
C239 C241 1.327 . S
C239 H264 0.950 . S
C240 C239 1.349 . S
C240 C256 1.349 1_455 S
C241 C239 1.327 . S
C241 C260 1.446 . S
C241 H265 0.950 . S
C242 C259 1.574 . S
C242 C261 1.353 1_655 S
C242 H266 0.949 . S
H243 C247 0.949 . S
C244 C245 1.348 1_655 S
C244 C246 1.327 . S
C244 H267 0.950 . S
C245 C244 1.348 1_455 S
C245 C257 1.350 . S
C246 C244 1.327 . S
C246 C262 1.422 1_655 S
C246 H268 0.950 . S
C247 H243 0.949 . S
C247 C255 1.574 . S
C247 C263 1.379 . S
H248 C256 0.950 . S
H249 C254 0.950 . S
H250 C255 0.949 . S
H251 C257 0.950 . S
H252 C258 0.950 . S
H253 C259 0.949 . S
C254 H249 0.950 . S
C254 C256 1.327 . S
C254 C260 1.411 1_655 S
C255 C247 1.574 . S
C255 H250 0.949 . S
C255 C261 1.384 . S
C256 C240 1.349 1_655 S
C256 H248 0.950 . S
C256 C254 1.327 . S
C257 C245 1.350 . S
C257 H251 0.950 . S
C257 C258 1.327 . S
C258 H252 0.950 . S
C258 C257 1.327 . S
C258 C262 1.435 . S
C259 C242 1.574 . S
C259 H253 0.949 . S
C259 C263 1.358 1_655 S
C260 C241 1.446 . S
C260 C254 1.411 1_455 S
C260 C261 1.523 . S
C261 C242 1.353 1_455 S
C261 C255 1.384 . S
C261 C260 1.523 . S
C262 C246 1.422 1_455 S
C262 C258 1.435 . S
C262 C263 1.523 . S
C263 C247 1.379 . S
C263 C259 1.358 1_455 S
C263 C262 1.523 . S
H264 C239 0.950 . S
H265 C241 0.950 . S
H266 C242 0.949 . S
H267 C244 0.950 . S
H268 C246 0.950 . S
C269 C270 1.349 . S
C269 C271 1.327 . S
C269 H294 0.950 . S
C270 C269 1.349 . S
C270 C286 1.349 1_545 S
C271 C269 1.327 . S
C271 C290 1.429 . S
C271 H295 0.950 . S
C272 C289 1.574 . S
C272 C291 1.368 1_565 S
C272 H296 0.949 . S
H273 C277 0.949 . S
C274 C275 1.349 1_565 S
C274 C276 1.327 . S
C274 H297 0.950 . S
C275 C274 1.349 1_545 S
C275 C287 1.349 . S
C276 C274 1.327 . S
C276 C292 1.429 1_565 S
C276 H298 0.950 . S
C277 H273 0.949 . S
C277 C285 1.574 . S
C277 C293 1.368 . S
H278 C286 0.950 . S
H279 C284 0.950 . S
H280 C285 0.949 . S
H281 C287 0.950 . S
H282 C288 0.950 . S
H283 C289 0.949 . S
C284 H279 0.950 . S
C284 C286 1.327 . S
C284 C290 1.429 1_565 S
C285 C277 1.574 . S
C285 H280 0.949 . S
C285 C291 1.368 . S
C286 C270 1.349 1_565 S
C286 H278 0.950 . S
C286 C284 1.327 . S
C287 C275 1.349 . S
C287 H281 0.950 . S
C287 C288 1.327 . S
C288 H282 0.950 . S
C288 C287 1.327 . S
C288 C292 1.429 . S
C289 C272 1.574 . S
C289 H283 0.949 . S
C289 C293 1.368 1_565 S
C290 C271 1.429 . S
C290 C284 1.429 1_545 S
C290 C291 1.523 . S
C291 C272 1.368 1_545 S
C291 C285 1.368 . S
C291 C290 1.523 . S
C292 C276 1.429 1_545 S
C292 C288 1.429 . S
C292 C293 1.523 . S
C293 C277 1.368 . S
C293 C289 1.368 1_545 S
C293 C292 1.523 . S
H294 C269 0.950 . S
H295 C271 0.950 . S
H296 C272 0.949 . S
H297 C274 0.950 . S
H298 C276 0.950 . S
C60 C30 1.275 . S
C65 C32 1.306 1_455 S
C90 C1 1.539 . S
C95 C58 1.566 . S
C120 C0 1.268 1_455 S
C125 C44 1.319 . S
C150 C29 1.578 . S
C155 C46 1.607 . S
C180 C19 1.268 1_655 S
C185 C31 1.322 1_655 S
C210 C20 1.539 . S
C215 C57 1.568 . S
C245 C43 1.307 1_455 S
C240 C10 1.277 . S
C270 C2 1.578 . S
C275 C45 1.611 . S
