# Generated by pormake.
# Topology wbl, (4,4)-cn, num edge types: 1
# Building blocks:
#     Node 0, Type 0, BuildingBlock: MUDLON_clean_sbu_0, # of connection points: 4
#     Node 1, Type 0, BuildingBlock: MUDLON_clean_sbu_0, # of connection points: 4
#     Node 2, Type 0, BuildingBlock: MUDLON_clean_sbu_0, # of connection points: 4
#     Node 3, Type 0, BuildingBlock: MUDLON_clean_sbu_0, # of connection points: 4
#     Node 4, Type 0, BuildingBlock: MUDLON_clean_sbu_0, # of connection points: 4
#     Node 5, Type 0, BuildingBlock: MUDLON_clean_sbu_0, # of connection points: 4
#     Node 6, Type 0, BuildingBlock: MUDLON_clean_sbu_0, # of connection points: 4
#     Node 7, Type 0, BuildingBlock: MUDLON_clean_sbu_0, # of connection points: 4
#     Node 8, Type 1, BuildingBlock: GALJAG_clean_sbu_0, # of connection points: 4
#     Node 9, Type 1, BuildingBlock: GALJAG_clean_sbu_0, # of connection points: 4
#     Node 10, Type 1, BuildingBlock: GALJAG_clean_sbu_0, # of connection points: 4
#     Node 11, Type 1, BuildingBlock: GALJAG_clean_sbu_0, # of connection points: 4
#     Node 12, Type 1, BuildingBlock: GALJAG_clean_sbu_0, # of connection points: 4
#     Node 13, Type 1, BuildingBlock: GALJAG_clean_sbu_0, # of connection points: 4
#     Node 14, Type 1, BuildingBlock: GALJAG_clean_sbu_0, # of connection points: 4
#     Node 15, Type 1, BuildingBlock: GALJAG_clean_sbu_0, # of connection points: 4
#     Edge 16, Type (0, 1), BuildingBlock: EYOCIG_clean_linker_4, # of connection points: 2
#     Edge 17, Type (0, 1), BuildingBlock: EYOCIG_clean_linker_4, # of connection points: 2
#     Edge 18, Type (0, 1), BuildingBlock: EYOCIG_clean_linker_4, # of connection points: 2
#     Edge 19, Type (0, 1), BuildingBlock: EYOCIG_clean_linker_4, # of connection points: 2
#     Edge 20, Type (0, 1), BuildingBlock: EYOCIG_clean_linker_4, # of connection points: 2
#     Edge 21, Type (0, 1), BuildingBlock: EYOCIG_clean_linker_4, # of connection points: 2
#     Edge 22, Type (0, 1), BuildingBlock: EYOCIG_clean_linker_4, # of connection points: 2
#     Edge 23, Type (0, 1), BuildingBlock: EYOCIG_clean_linker_4, # of connection points: 2
#     Edge 24, Type (0, 1), BuildingBlock: EYOCIG_clean_linker_4, # of connection points: 2
#     Edge 25, Type (0, 1), BuildingBlock: EYOCIG_clean_linker_4, # of connection points: 2
#     Edge 26, Type (0, 1), BuildingBlock: EYOCIG_clean_linker_4, # of connection points: 2
#     Edge 27, Type (0, 1), BuildingBlock: EYOCIG_clean_linker_4, # of connection points: 2
#     Edge 28, Type (0, 1), BuildingBlock: EYOCIG_clean_linker_4, # of connection points: 2
#     Edge 29, Type (0, 1), BuildingBlock: EYOCIG_clean_linker_4, # of connection points: 2
#     Edge 30, Type (0, 1), BuildingBlock: EYOCIG_clean_linker_4, # of connection points: 2
#     Edge 31, Type (0, 1), BuildingBlock: EYOCIG_clean_linker_4, # of connection points: 2
#     Edge 32, Type (0, 1), BuildingBlock: EYOCIG_clean_linker_4, # of connection points: 2
#     Edge 33, Type (0, 1), BuildingBlock: EYOCIG_clean_linker_4, # of connection points: 2
#     Edge 34, Type (0, 1), BuildingBlock: EYOCIG_clean_linker_4, # of connection points: 2
#     Edge 35, Type (0, 1), BuildingBlock: EYOCIG_clean_linker_4, # of connection points: 2
#     Edge 36, Type (0, 1), BuildingBlock: EYOCIG_clean_linker_4, # of connection points: 2
#     Edge 37, Type (0, 1), BuildingBlock: EYOCIG_clean_linker_4, # of connection points: 2
#     Edge 38, Type (0, 1), BuildingBlock: EYOCIG_clean_linker_4, # of connection points: 2
#     Edge 39, Type (0, 1), BuildingBlock: EYOCIG_clean_linker_4, # of connection points: 2
#     Edge 40, Type (0, 1), BuildingBlock: EYOCIG_clean_linker_4, # of connection points: 2
#     Edge 41, Type (0, 1), BuildingBlock: EYOCIG_clean_linker_4, # of connection points: 2
#     Edge 42, Type (0, 1), BuildingBlock: EYOCIG_clean_linker_4, # of connection points: 2
#     Edge 43, Type (0, 1), BuildingBlock: EYOCIG_clean_linker_4, # of connection points: 2
#     Edge 44, Type (0, 1), BuildingBlock: EYOCIG_clean_linker_4, # of connection points: 2
#     Edge 45, Type (0, 1), BuildingBlock: EYOCIG_clean_linker_4, # of connection points: 2
#     Edge 46, Type (0, 1), BuildingBlock: EYOCIG_clean_linker_4, # of connection points: 2
#     Edge 47, Type (0, 1), BuildingBlock: EYOCIG_clean_linker_4, # of connection points: 2
# Relax obj value: 0.157
# Max RMSD: 0.185
# Mean RMSD: 0.148
data_MOF--net-wbl--node1-MUDLON_clean_sbu_0--node2-GALJAG_clean_sbu_0--edge1-EYOCIG_clean_linker_4
_symmetry_space_group_name_H-M    P1
_symmetry_Int_Tables_number       1
_symmetry_cell_setting            triclinic
loop_
_symmetry_equiv_pos_as_xyz
'x, y, z'
_cell_length_a     27.519077
_cell_length_b     27.624728
_cell_length_c     64.828196
_cell_angle_alpha  90.030976
_cell_angle_beta   90.068204
_cell_angle_gamma 90.053987
loop_
_atom_site_label
_atom_site_type_symbol
_atom_site_fract_x
_atom_site_fract_y
_atom_site_fract_z
_atom_type_partial_charge
Mg0 Mg 0.00325 0.00324 0.35737 0.0
C1 C 0.04278 0.94008 0.38953 0.0
O2 O 0.001 0.91992 0.38499 0.0
C3 C 0.93193 0.03674 0.32645 0.0
O4 O 0.91363 -0.00532 0.33174 0.0
C5 C 0.05305 0.9447 0.32697 0.0
O6 O 0.01552 0.91816 0.33226 0.0
O7 O 0.05872 0.98623 0.33502 0.0
O8 O 0.05524 0.97871 0.38039 0.0
O9 O 0.97622 0.05412 0.37992 0.0
C10 C 0.93967 0.04143 0.39059 0.0
O11 O 0.92061 -0.00178 0.38813 0.0
O12 O 0.97144 0.05088 0.33454 0.0
Mg13 Mg 0.98872 0.50402 0.60726 0.0
C14 C 0.04957 0.54518 0.6397 0.0
O15 O 0.071 0.50418 0.63519 0.0
C16 C 0.95679 0.43172 0.57685 0.0
O17 O -0.00033 0.41517 0.58218 0.0
C18 C 0.0477 0.55202 0.57617 0.0
O19 O 0.07481 0.51552 0.58207 0.0
O20 O 0.00602 0.55785 0.58418 0.0
O21 O 0.01078 0.55672 0.63035 0.0
O22 O 0.93822 0.47492 0.62959 0.0
C23 C 0.95139 0.43827 0.64002 0.0
O24 O -0.00491 0.42014 0.63754 0.0
O25 O 0.94134 0.47079 0.58472 0.0
Mg26 Mg 0.49024 0.48941 0.85755 0.0
C27 C 0.44836 0.55135 0.88963 0.0
O28 O 0.48996 0.57226 0.88547 0.0
C29 C 0.56145 0.45785 0.82625 0.0
O30 O 0.57947 0.49976 0.83195 0.0
C31 C 0.44026 0.54772 0.8271 0.0
O32 O 0.47762 0.57448 0.83245 0.0
O33 O 0.43482 0.50617 0.83511 0.0
O34 O 0.43698 0.51253 0.88033 0.0
O35 O 0.51949 0.43978 0.8801 0.0
C36 C 0.55621 0.45355 0.89045 0.0
O37 O 0.5742 0.4971 0.88768 0.0
O38 O 0.52229 0.44283 0.83434 0.0
Mg39 Mg 0.48858 0.00396 0.10724 0.0
C40 C 0.55065 0.04564 0.13939 0.0
O41 O 0.57145 0.00413 0.13522 0.0
C42 C 0.45736 0.93239 0.07608 0.0
O43 O 0.49948 0.91482 0.08189 0.0
C44 C 0.54815 0.0521 0.07657 0.0
O45 O 0.57469 0.01505 0.08233 0.0
O46 O 0.5064 0.05815 0.08446 0.0
O47 O 0.5118 0.05712 0.13005 0.0
O48 O 0.43881 0.97431 0.12973 0.0
C49 C 0.45266 0.93774 0.14005 0.0
O50 O 0.49647 0.92008 0.13732 0.0
O51 O 0.44205 0.97145 0.08405 0.0
Mg52 Mg 0.00195 0.4901 0.90631 0.0
C53 C 0.04379 0.5516 0.87429 0.0
O54 O 0.00208 0.57228 0.87841 0.0
C55 C 0.93123 0.45627 0.93718 0.0
O56 O 0.91315 0.49849 0.93201 0.0
C57 C 0.05214 0.54721 0.93746 0.0
O58 O 0.01579 0.57504 0.93194 0.0
O59 O 0.05695 0.50584 0.92917 0.0
O60 O 0.0554 0.51298 0.88363 0.0
O61 O 0.97261 0.44066 0.8836 0.0
C62 C 0.9358 0.45411 0.87325 0.0
O63 O 0.91757 0.49753 0.87602 0.0
O64 O 0.9704 0.44189 0.92892 0.0
Mg65 Mg 0.50301 0.50226 0.15651 0.0
C66 C 0.44097 0.54402 0.12439 0.0
O67 O 0.42002 0.50249 0.12844 0.0
C68 C 0.53449 0.43083 0.18765 0.0
O69 O 0.49219 0.41322 0.18204 0.0
C70 C 0.44603 0.55277 0.18728 0.0
O71 O 0.41817 0.5164 0.1818 0.0
O72 O 0.48767 0.55752 0.17912 0.0
O73 O 0.47972 0.55544 0.13382 0.0
O74 O 0.55264 0.47359 0.13378 0.0
C75 C 0.53867 0.43724 0.12332 0.0
O76 O 0.49505 0.41917 0.12617 0.0
O77 O 0.54978 0.4697 0.17952 0.0
Mg78 Mg 0.50215 0.99019 0.40637 0.0
C79 C 0.54426 0.05111 0.37421 0.0
O80 O 0.50265 0.07199 0.37834 0.0
C81 C 0.4312 0.95596 0.43704 0.0
O82 O 0.41336 -0.00164 0.43198 0.0
C83 C 0.55124 0.04796 0.43758 0.0
O84 O 0.51481 0.07549 0.43187 0.0
O85 O 0.55655 0.00658 0.42938 0.0
O86 O 0.55578 0.01257 0.38365 0.0
O87 O 0.47293 0.941 0.38357 0.0
C88 C 0.43627 0.95461 0.37316 0.0
O89 O 0.418 -0.00201 0.37599 0.0
O90 O 0.47039 0.94158 0.42881 0.0
Mg91 Mg 0.98879 0.98908 0.65632 0.0
C92 C 0.05083 0.94743 0.62424 0.0
O93 O 0.07198 0.98877 0.62849 0.0
C94 C 0.95791 0.06156 0.68703 0.0
O95 O 0.00061 0.07828 0.68154 0.0
C96 C 0.04658 0.93899 0.68695 0.0
O97 O 0.07394 0.97578 0.68155 0.0
O98 O 0.00478 0.93402 0.67891 0.0
O99 O 0.01186 0.93616 0.63349 0.0
O100 O 0.93829 0.01761 0.63391 0.0
C101 C 0.95156 0.05444 0.62362 0.0
O102 O -0.00481 0.0727 0.62631 0.0
O103 O 0.9423 0.0225 0.67915 0.0
In104 In 0.31263 0.68097 0.007 0.0
O105 O 0.30018 0.76045 0.01577 0.0
O106 O 0.37298 0.73402 0.01472 0.0
C107 C 0.22576 0.64642 0.99523 0.0
C108 C 0.33225 0.64081 0.04369 0.0
C109 C 0.35272 0.66122 0.97025 0.0
O110 O 0.2328 0.69125 0.99783 0.0
O111 O 0.26098 0.61943 0.99981 0.0
O112 O 0.36207 0.63708 0.98626 0.0
O113 O 0.32599 0.6978 0.97287 0.0
C114 C 0.34483 0.76865 0.0188 0.0
O115 O 0.35702 0.63217 0.02776 0.0
O116 O 0.29533 0.66716 0.04102 0.0
In117 In 0.31219 0.81211 0.25651 0.0
O118 O 0.30122 0.73288 0.24721 0.0
O119 O 0.37354 0.76071 0.24914 0.0
C120 C 0.2255 0.84449 0.26907 0.0
C121 C 0.3302 0.8531 0.21989 0.0
C122 C 0.35366 0.8315 0.29294 0.0
O123 O 0.23324 0.79984 0.26631 0.0
O124 O 0.25981 0.87236 0.26417 0.0
O125 O 0.3619 0.85625 0.27699 0.0
O126 O 0.32693 0.79483 0.29043 0.0
C127 C 0.34618 0.72577 0.24458 0.0
O128 O 0.35522 0.86196 0.23576 0.0
O129 O 0.29388 0.82589 0.22258 0.0
In130 In 0.18085 0.81151 0.50693 0.0
O131 O 0.1367 0.86085 0.52761 0.0
O132 O 0.19775 0.82525 0.54107 0.0
C133 C 0.13884 0.83104 0.47052 0.0
C134 C 0.14814 0.72432 0.51872 0.0
C135 C 0.26865 0.84274 0.49455 0.0
O136 O 0.13139 0.8561 0.48646 0.0
O137 O 0.16491 0.79396 0.47306 0.0
O138 O 0.26005 0.79838 0.49757 0.0
O139 O 0.23448 0.87116 0.499 0.0
C140 C 0.16095 0.85178 0.54365 0.0
O141 O 0.1929 0.73215 0.51589 0.0
O142 O 0.12028 0.75903 0.51447 0.0
In143 In 0.18001 0.68043 0.75723 0.0
O144 O 0.13078 0.63679 0.77802 0.0
O145 O 0.16627 0.69828 0.7912 0.0
C146 C 0.15965 0.63949 0.7208 0.0
C147 C 0.2669 0.64779 0.76953 0.0
C148 C 0.14682 0.76659 0.74473 0.0
O149 O 0.13549 0.6308 0.73689 0.0
O150 O 0.19664 0.66597 0.72321 0.0
O151 O 0.19175 0.75902 0.74725 0.0
O152 O 0.1191 0.7324 0.74988 0.0
C153 C 0.13976 0.66152 0.79392 0.0
O154 O 0.25928 0.69244 0.76673 0.0
O155 O 0.23237 0.62002 0.76476 0.0
In156 In 0.81213 0.18052 0.50715 0.0
O157 O 0.79939 0.25949 0.51643 0.0
O158 O 0.87223 0.23304 0.51565 0.0
C159 C 0.7252 0.14702 0.49498 0.0
C160 C 0.82974 0.13898 0.54369 0.0
C161 C 0.85497 0.16244 0.47083 0.0
O162 O 0.73273 0.19176 0.4976 0.0
O163 O 0.76012 0.11962 0.4995 0.0
O164 O 0.86268 0.13722 0.4867 0.0
O165 O 0.82785 0.19876 0.47337 0.0
C166 C 0.84392 0.26746 0.51983 0.0
O167 O 0.85525 0.13072 0.52794 0.0
O168 O 0.79338 0.16599 0.54092 0.0
In169 In 0.81133 0.31216 0.75651 0.0
O170 O 0.85468 0.36212 0.7358 0.0
O171 O 0.79297 0.32672 0.72266 0.0
C172 C 0.85274 0.33106 0.7931 0.0
C173 C 0.84438 0.22533 0.7441 0.0
C174 C 0.72374 0.34463 0.76856 0.0
O175 O 0.86116 0.35593 0.7772 0.0
O176 O 0.8259 0.29452 0.79045 0.0
O177 O 0.7318 0.30007 0.76573 0.0
O178 O 0.75847 0.37252 0.76421 0.0
C179 C 0.82937 0.35377 0.71997 0.0
O180 O 0.79969 0.2329 0.74721 0.0
O181 O 0.87223 0.26007 0.74846 0.0
In182 In 0.68139 0.31147 0.00684 0.0
O183 O 0.69366 0.23252 0.01636 0.0
O184 O 0.62093 0.25893 0.01457 0.0
C185 C 0.76928 0.34274 0.9947 0.0
C186 C 0.66152 0.35365 0.04311 0.0
C187 C 0.63965 0.33041 0.97036 0.0
O188 O 0.76061 0.29835 0.99758 0.0
O189 O 0.73507 0.37114 0.99912 0.0
O190 O 0.6317 0.3554 0.98627 0.0
O191 O 0.66627 0.29374 0.97294 0.0
C192 C 0.64892 0.22456 0.01914 0.0
O193 O 0.63703 0.36161 0.02703 0.0
O194 O 0.69818 0.32679 0.04081 0.0
In195 In 0.68073 0.18119 0.25696 0.0
O196 O 0.63157 0.13626 0.27743 0.0
O197 O 0.66622 0.19768 0.29102 0.0
C198 C 0.66112 0.14065 0.22022 0.0
C199 C 0.76871 0.15021 0.26932 0.0
C200 C 0.6477 0.2686 0.24526 0.0
O201 O 0.6365 0.13191 0.23617 0.0
O202 O 0.69807 0.16699 0.22291 0.0
O203 O 0.69246 0.26058 0.24794 0.0
O204 O 0.61982 0.23395 0.24966 0.0
C205 C 0.64003 0.16061 0.29349 0.0
O206 O 0.76014 0.19451 0.26613 0.0
O207 O 0.73442 0.1217 0.26502 0.0
C208 C 0.11726 0.90573 0.30184 0.0
C209 C 0.08883 0.92488 0.31335 0.0
C210 C 0.15169 0.88177 0.2894 0.0
C211 C 0.18428 0.86239 0.28018 0.0
C212 C 0.08624 0.61445 0.55011 0.0
C213 C 0.06723 0.58685 0.56203 0.0
C214 C 0.11047 0.64891 0.53777 0.0
C215 C 0.13016 0.68214 0.5291 0.0
C216 C 0.37572 0.58645 0.802 0.0
C217 C 0.4043 0.56739 0.81349 0.0
C218 C 0.34109 0.61042 0.78964 0.0
C219 C 0.30834 0.62983 0.78051 0.0
C220 C 0.40529 0.87989 0.05013 0.0
C221 C 0.42753 0.90531 0.06199 0.0
C222 C 0.38098 0.84526 0.03778 0.0
C223 C 0.36223 0.81134 0.02913 0.0
C224 C 0.11621 0.58376 0.96345 0.0
C225 C 0.0879 0.56554 0.95155 0.0
C226 C 0.15099 0.60754 0.97588 0.0
C227 C 0.18406 0.62743 0.98467 0.0
C228 C 0.40889 0.61682 0.21292 0.0
C229 C 0.42742 0.58855 0.20118 0.0
C230 C 0.38485 0.65138 0.22524 0.0
C231 C 0.36492 0.68423 0.23402 0.0
C232 C 0.37912 0.90215 0.46237 0.0
C233 C 0.40444 0.92509 0.45076 0.0
C234 C 0.34472 0.87778 0.47478 0.0
C235 C 0.31103 0.85951 0.48377 0.0
C236 C 0.08483 0.87447 0.71209 0.0
C237 C 0.0659 0.90301 0.70057 0.0
C238 C 0.10882 0.84 0.72448 0.0
C239 C 0.1284 0.80751 0.73365 0.0
C240 C 0.61322 0.4056 0.80018 0.0
C241 C 0.58813 0.42794 0.81211 0.0
C242 C 0.64752 0.38115 0.78774 0.0
C243 C 0.68127 0.36226 0.77902 0.0
C244 C 0.58761 0.1151 0.05103 0.0
C245 C 0.56833 0.08716 0.06272 0.0
C246 C 0.61171 0.14966 0.0387 0.0
C247 C 0.6311 0.18273 0.02982 0.0
C248 C 0.87972 0.09089 0.30127 0.0
C249 C 0.90515 0.0678 0.3128 0.0
C250 C 0.84514 0.11535 0.28896 0.0
C251 C 0.81132 0.1336 0.28002 0.0
C252 C 0.90369 0.37764 0.55196 0.0
C253 C 0.92647 0.40367 0.56336 0.0
C254 C 0.87934 0.34304 0.53967 0.0
C255 C 0.86091 0.30957 0.53063 0.0
C256 C 0.6147 0.08505 0.46368 0.0
C257 C 0.58661 0.0667 0.45174 0.0
C258 C 0.64962 0.10883 0.47601 0.0
C259 C 0.68304 0.12851 0.48463 0.0
C260 C 0.90525 0.11541 0.71215 0.0
C261 C 0.92786 0.08951 0.70065 0.0
C262 C 0.88082 0.14994 0.72444 0.0
C263 C 0.86206 0.18335 0.73339 0.0
C264 C 0.87969 0.40254 0.96272 0.0
C265 C 0.90475 0.42549 0.95101 0.0
C266 C 0.84545 0.37806 0.97515 0.0
C267 C 0.81173 0.35963 0.98404 0.0
C268 C 0.58676 0.379 0.21369 0.0
C269 C 0.56442 0.4041 0.20177 0.0
C270 C 0.61109 0.34467 0.22613 0.0
C271 C 0.6299 0.31092 0.23483 0.0
C272 C 0.09287 0.89518 0.4183 0.0
C273 C 0.07285 0.9183 0.40503 0.0
C274 C 0.11087 0.86779 0.43501 0.0
C275 C 0.12488 0.84829 0.45053 0.0
C276 C 0.09321 0.59559 0.66871 0.0
C277 C 0.07041 0.57555 0.65532 0.0
C278 C 0.12098 0.61323 0.6854 0.0
C279 C 0.14129 0.62654 0.70086 0.0
C280 C 0.39666 0.5958 0.918 0.0
C281 C 0.41723 0.57267 0.90488 0.0
C282 C 0.37872 0.62348 0.93463 0.0
C283 C 0.36546 0.6434 0.95018 0.0
C284 C 0.39449 0.89983 0.16804 0.0
C285 C 0.42121 0.91699 0.15528 0.0
C286 C 0.36591 0.88205 0.1844 0.0
C287 C 0.34665 0.86738 0.19985 0.0
C288 C 0.09545 0.59631 0.84602 0.0
C289 C 0.07489 0.57309 0.8591 0.0
C290 C 0.11349 0.62415 0.82949 0.0
C291 C 0.12691 0.6441 0.81399 0.0
C292 C 0.39682 0.5957 0.09596 0.0
C293 C 0.41977 0.57507 0.10912 0.0
C294 C 0.36935 0.61392 0.0793 0.0
C295 C 0.34965 0.62754 0.06375 0.0
C296 C 0.39954 0.89661 0.34483 0.0
C297 C 0.41611 0.9233 0.35774 0.0
C298 C 0.38233 0.86798 0.32837 0.0
C299 C 0.3679 0.84853 0.31292 0.0
C300 C 0.09513 0.89588 0.59581 0.0
C301 C 0.07206 0.91644 0.60895 0.0
C302 C 0.12288 0.8779 0.57919 0.0
C303 C 0.14296 0.86461 0.56368 0.0
C304 C 0.59357 0.39556 0.91858 0.0
C305 C 0.57674 0.42227 0.90577 0.0
C306 C 0.61092 0.36682 0.93496 0.0
C307 C 0.62539 0.34729 0.95038 0.0
C308 C 0.59547 0.09685 0.16788 0.0
C309 C 0.57216 0.07653 0.15471 0.0
C310 C 0.62333 0.1146 0.18456 0.0
C311 C 0.64333 0.12783 0.20013 0.0
C312 C 0.90384 0.10001 0.41886 0.0
C313 C 0.92041 0.07347 0.40592 0.0
C314 C 0.8859 0.12787 0.43541 0.0
C315 C 0.87047 0.14642 0.45088 0.0
C316 C 0.89243 0.40122 0.66792 0.0
C317 C 0.91938 0.41811 0.65519 0.0
C318 C 0.86411 0.38348 0.68438 0.0
C319 C 0.8454 0.36855 0.69991 0.0
C320 C 0.59566 0.09513 0.34565 0.0
C321 C 0.57524 0.07219 0.35886 0.0
C322 C 0.61356 0.12271 0.32899 0.0
C323 C 0.62693 0.14266 0.31348 0.0
C324 C 0.89275 0.0917 0.59572 0.0
C325 C 0.9197 0.07477 0.60845 0.0
C326 C 0.86435 0.10941 0.57929 0.0
C327 C 0.84561 0.1243 0.56377 0.0
C328 C 0.89861 0.39582 0.84511 0.0
C329 C 0.91542 0.42261 0.85793 0.0
C330 C 0.88127 0.36719 0.82865 0.0
C331 C 0.86688 0.34785 0.81315 0.0
C332 C 0.59623 0.4006 0.09481 0.0
C333 C 0.56979 0.41718 0.10781 0.0
C334 C 0.6247 0.38318 0.07834 0.0
C335 C 0.6442 0.36841 0.06296 0.0
loop_
_geom_bond_atom_site_label_1
_geom_bond_atom_site_label_2
_geom_bond_distance
_geom_bond_site_symmetry_2
_ccdc_geom_bond_type
Mg0 O7 2.141 1_545 S
Mg0 O8 2.048 1_545 S
Mg0 O9 2.048 1_455 S
Mg0 O12 2.141 1_455 S
C1 O2 1.313 . S
C1 O8 1.195 . S
O2 C1 1.313 . S
C3 O4 1.245 . S
C3 O12 1.289 . S
O4 C3 1.245 . S
C5 O6 1.245 . S
C5 O7 1.289 . S
O6 C5 1.245 . S
O7 Mg0 2.141 1_565 S
O7 C5 1.289 . S
O8 Mg0 2.048 1_565 S
O8 C1 1.195 . S
O9 Mg0 2.048 1_655 S
O9 C10 1.195 . S
C10 O9 1.195 . S
C10 O11 1.313 1_545 S
O11 C10 1.313 1_565 S
O12 Mg0 2.141 1_655 S
O12 C3 1.289 . S
Mg13 O20 2.141 1_655 S
Mg13 O21 2.048 1_655 S
Mg13 O22 2.048 . S
Mg13 O25 2.141 . S
C14 O15 1.313 . S
C14 O21 1.195 . S
O15 C14 1.313 . S
C16 O17 1.245 . S
C16 O25 1.289 . S
O17 C16 1.245 . S
C18 O19 1.245 . S
C18 O20 1.289 . S
O19 C18 1.245 . S
O20 Mg13 2.141 1_455 S
O20 C18 1.289 . S
O21 Mg13 2.048 1_455 S
O21 C14 1.195 . S
O22 Mg13 2.048 . S
O22 C23 1.195 . S
C23 O22 1.195 . S
C23 O24 1.313 1_655 S
O24 C23 1.313 1_455 S
O25 Mg13 2.141 . S
O25 C16 1.289 . S
Mg26 O33 2.141 . S
Mg26 O34 2.048 . S
Mg26 O35 2.048 . S
Mg26 O38 2.141 . S
C27 O28 1.313 . S
C27 O34 1.195 . S
O28 C27 1.313 . S
C29 O30 1.245 . S
C29 O38 1.289 . S
O30 C29 1.245 . S
C31 O32 1.245 . S
C31 O33 1.289 . S
O32 C31 1.245 . S
O33 Mg26 2.141 . S
O33 C31 1.289 . S
O34 Mg26 2.048 . S
O34 C27 1.195 . S
O35 Mg26 2.048 . S
O35 C36 1.195 . S
C36 O35 1.195 . S
C36 O37 1.313 . S
O37 C36 1.313 . S
O38 Mg26 2.141 . S
O38 C29 1.289 . S
Mg39 O46 2.141 . S
Mg39 O47 2.048 . S
Mg39 O48 2.048 1_545 S
Mg39 O51 2.141 1_545 S
C40 O41 1.313 . S
C40 O47 1.195 . S
O41 C40 1.313 . S
C42 O43 1.245 . S
C42 O51 1.289 . S
O43 C42 1.245 . S
C44 O45 1.245 . S
C44 O46 1.289 . S
O45 C44 1.245 . S
O46 Mg39 2.141 . S
O46 C44 1.289 . S
O47 Mg39 2.048 . S
O47 C40 1.195 . S
O48 Mg39 2.048 1_565 S
O48 C49 1.195 . S
C49 O48 1.195 . S
C49 O50 1.313 . S
O50 C49 1.313 . S
O51 Mg39 2.141 1_565 S
O51 C42 1.289 . S
Mg52 O59 2.141 . S
Mg52 O60 2.048 . S
Mg52 O61 2.048 1_455 S
Mg52 O64 2.141 1_455 S
C53 O54 1.313 . S
C53 O60 1.195 . S
O54 C53 1.313 . S
C55 O56 1.245 . S
C55 O64 1.289 . S
O56 C55 1.245 . S
C57 O58 1.245 . S
C57 O59 1.289 . S
O58 C57 1.245 . S
O59 Mg52 2.141 . S
O59 C57 1.289 . S
O60 Mg52 2.048 . S
O60 C53 1.195 . S
O61 Mg52 2.048 1_655 S
O61 C62 1.195 . S
C62 O61 1.195 . S
C62 O63 1.313 . S
O63 C62 1.313 . S
O64 Mg52 2.141 1_655 S
O64 C55 1.289 . S
Mg65 O72 2.141 . S
Mg65 O73 2.048 . S
Mg65 O74 2.048 . S
Mg65 O77 2.141 . S
C66 O67 1.313 . S
C66 O73 1.195 . S
O67 C66 1.313 . S
C68 O69 1.245 . S
C68 O77 1.289 . S
O69 C68 1.245 . S
C70 O71 1.245 . S
C70 O72 1.289 . S
O71 C70 1.245 . S
O72 Mg65 2.141 . S
O72 C70 1.289 . S
O73 Mg65 2.048 . S
O73 C66 1.195 . S
O74 Mg65 2.048 . S
O74 C75 1.195 . S
C75 O74 1.195 . S
C75 O76 1.313 . S
O76 C75 1.313 . S
O77 Mg65 2.141 . S
O77 C68 1.289 . S
Mg78 O85 2.141 1_565 S
Mg78 O86 2.048 1_565 S
Mg78 O87 2.048 . S
Mg78 O90 2.141 . S
C79 O80 1.313 . S
C79 O86 1.195 . S
O80 C79 1.313 . S
C81 O82 1.245 . S
C81 O90 1.289 . S
O82 C81 1.245 . S
C83 O84 1.245 . S
C83 O85 1.289 . S
O84 C83 1.245 . S
O85 Mg78 2.141 1_545 S
O85 C83 1.289 . S
O86 Mg78 2.048 1_545 S
O86 C79 1.195 . S
O87 Mg78 2.048 . S
O87 C88 1.195 . S
C88 O87 1.195 . S
C88 O89 1.313 1_565 S
O89 C88 1.313 1_545 S
O90 Mg78 2.141 . S
O90 C81 1.289 . S
Mg91 O98 2.141 1_655 S
Mg91 O99 2.048 1_655 S
Mg91 O100 2.048 1_565 S
Mg91 O103 2.141 1_565 S
C92 O93 1.313 . S
C92 O99 1.195 . S
O93 C92 1.313 . S
C94 O95 1.245 . S
C94 O103 1.289 . S
O95 C94 1.245 . S
C96 O97 1.245 . S
C96 O98 1.289 . S
O97 C96 1.245 . S
O98 Mg91 2.141 1_455 S
O98 C96 1.289 . S
O99 Mg91 2.048 1_455 S
O99 C92 1.195 . S
O100 Mg91 2.048 1_545 S
O100 C101 1.195 . S
C101 O100 1.195 . S
C101 O102 1.313 1_655 S
O102 C101 1.313 1_455 S
O103 Mg91 2.141 1_545 S
O103 C94 1.289 . S
In104 O105 2.294 . S
In104 O106 2.326 . S
In104 O110 2.266 1_554 S
In104 O111 2.326 1_554 S
In104 O112 2.266 1_554 S
In104 O113 2.326 1_554 S
In104 O115 2.294 . S
In104 O116 2.326 . S
O105 In104 2.294 . S
O105 C114 1.240 . S
O106 In104 2.326 . S
O106 C114 1.252 . S
C107 O110 1.252 . S
C107 O111 1.260 . S
C108 O115 1.240 . S
C108 O116 1.252 . S
C109 O112 1.252 . S
C109 O113 1.260 . S
O110 In104 2.266 1_556 S
O110 C107 1.252 . S
O111 In104 2.326 1_556 S
O111 C107 1.260 . S
O112 In104 2.266 1_556 S
O112 C109 1.252 . S
O113 In104 2.326 1_556 S
O113 C109 1.260 . S
C114 O105 1.240 . S
C114 O106 1.252 . S
O115 In104 2.294 . S
O115 C108 1.240 . S
O116 In104 2.326 . S
O116 C108 1.252 . S
In117 O118 2.294 . S
In117 O119 2.326 . S
In117 O123 2.266 . S
In117 O124 2.326 . S
In117 O125 2.266 . S
In117 O126 2.326 . S
In117 O128 2.294 . S
In117 O129 2.326 . S
O118 In117 2.294 . S
O118 C127 1.240 . S
O119 In117 2.326 . S
O119 C127 1.252 . S
C120 O123 1.252 . S
C120 O124 1.260 . S
C121 O128 1.240 . S
C121 O129 1.252 . S
C122 O125 1.252 . S
C122 O126 1.260 . S
O123 In117 2.266 . S
O123 C120 1.252 . S
O124 In117 2.326 . S
O124 C120 1.260 . S
O125 In117 2.266 . S
O125 C122 1.252 . S
O126 In117 2.326 . S
O126 C122 1.260 . S
C127 O118 1.240 . S
C127 O119 1.252 . S
O128 In117 2.294 . S
O128 C121 1.240 . S
O129 In117 2.326 . S
O129 C121 1.252 . S
In130 O131 2.294 . S
In130 O132 2.326 . S
In130 O136 2.266 . S
In130 O137 2.326 . S
In130 O138 2.266 . S
In130 O139 2.326 . S
In130 O141 2.294 . S
In130 O142 2.326 . S
O131 In130 2.294 . S
O131 C140 1.240 . S
O132 In130 2.326 . S
O132 C140 1.252 . S
C133 O136 1.252 . S
C133 O137 1.260 . S
C134 O141 1.240 . S
C134 O142 1.252 . S
C135 O138 1.252 . S
C135 O139 1.260 . S
O136 In130 2.266 . S
O136 C133 1.252 . S
O137 In130 2.326 . S
O137 C133 1.260 . S
O138 In130 2.266 . S
O138 C135 1.252 . S
O139 In130 2.326 . S
O139 C135 1.260 . S
C140 O131 1.240 . S
C140 O132 1.252 . S
O141 In130 2.294 . S
O141 C134 1.240 . S
O142 In130 2.326 . S
O142 C134 1.252 . S
In143 O144 2.294 . S
In143 O145 2.326 . S
In143 O149 2.266 . S
In143 O150 2.326 . S
In143 O151 2.266 . S
In143 O152 2.326 . S
In143 O154 2.294 . S
In143 O155 2.326 . S
O144 In143 2.294 . S
O144 C153 1.240 . S
O145 In143 2.326 . S
O145 C153 1.252 . S
C146 O149 1.252 . S
C146 O150 1.260 . S
C147 O154 1.240 . S
C147 O155 1.252 . S
C148 O151 1.252 . S
C148 O152 1.260 . S
O149 In143 2.266 . S
O149 C146 1.252 . S
O150 In143 2.326 . S
O150 C146 1.260 . S
O151 In143 2.266 . S
O151 C148 1.252 . S
O152 In143 2.326 . S
O152 C148 1.260 . S
C153 O144 1.240 . S
C153 O145 1.252 . S
O154 In143 2.294 . S
O154 C147 1.240 . S
O155 In143 2.326 . S
O155 C147 1.252 . S
In156 O157 2.294 . S
In156 O158 2.326 . S
In156 O162 2.266 . S
In156 O163 2.326 . S
In156 O164 2.266 . S
In156 O165 2.326 . S
In156 O167 2.294 . S
In156 O168 2.326 . S
O157 In156 2.294 . S
O157 C166 1.240 . S
O158 In156 2.326 . S
O158 C166 1.252 . S
C159 O162 1.252 . S
C159 O163 1.260 . S
C160 O167 1.240 . S
C160 O168 1.252 . S
C161 O164 1.252 . S
C161 O165 1.260 . S
O162 In156 2.266 . S
O162 C159 1.252 . S
O163 In156 2.326 . S
O163 C159 1.260 . S
O164 In156 2.266 . S
O164 C161 1.252 . S
O165 In156 2.326 . S
O165 C161 1.260 . S
C166 O157 1.240 . S
C166 O158 1.252 . S
O167 In156 2.294 . S
O167 C160 1.240 . S
O168 In156 2.326 . S
O168 C160 1.252 . S
In169 O170 2.294 . S
In169 O171 2.326 . S
In169 O175 2.266 . S
In169 O176 2.326 . S
In169 O177 2.266 . S
In169 O178 2.326 . S
In169 O180 2.294 . S
In169 O181 2.326 . S
O170 In169 2.294 . S
O170 C179 1.240 . S
O171 In169 2.326 . S
O171 C179 1.252 . S
C172 O175 1.252 . S
C172 O176 1.260 . S
C173 O180 1.240 . S
C173 O181 1.252 . S
C174 O177 1.252 . S
C174 O178 1.260 . S
O175 In169 2.266 . S
O175 C172 1.252 . S
O176 In169 2.326 . S
O176 C172 1.260 . S
O177 In169 2.266 . S
O177 C174 1.252 . S
O178 In169 2.326 . S
O178 C174 1.260 . S
C179 O170 1.240 . S
C179 O171 1.252 . S
O180 In169 2.294 . S
O180 C173 1.240 . S
O181 In169 2.326 . S
O181 C173 1.252 . S
In182 O183 2.294 . S
In182 O184 2.326 . S
In182 O188 2.266 1_554 S
In182 O189 2.326 1_554 S
In182 O190 2.266 1_554 S
In182 O191 2.326 1_554 S
In182 O193 2.294 . S
In182 O194 2.326 . S
O183 In182 2.294 . S
O183 C192 1.240 . S
O184 In182 2.326 . S
O184 C192 1.252 . S
C185 O188 1.252 . S
C185 O189 1.260 . S
C186 O193 1.240 . S
C186 O194 1.252 . S
C187 O190 1.252 . S
C187 O191 1.260 . S
O188 In182 2.266 1_556 S
O188 C185 1.252 . S
O189 In182 2.326 1_556 S
O189 C185 1.260 . S
O190 In182 2.266 1_556 S
O190 C187 1.252 . S
O191 In182 2.326 1_556 S
O191 C187 1.260 . S
C192 O183 1.240 . S
C192 O184 1.252 . S
O193 In182 2.294 . S
O193 C186 1.240 . S
O194 In182 2.326 . S
O194 C186 1.252 . S
In195 O196 2.294 . S
In195 O197 2.326 . S
In195 O201 2.266 . S
In195 O202 2.326 . S
In195 O203 2.266 . S
In195 O204 2.326 . S
In195 O206 2.294 . S
In195 O207 2.326 . S
O196 In195 2.294 . S
O196 C205 1.240 . S
O197 In195 2.326 . S
O197 C205 1.252 . S
C198 O201 1.252 . S
C198 O202 1.260 . S
C199 O206 1.240 . S
C199 O207 1.252 . S
C200 O203 1.252 . S
C200 O204 1.260 . S
O201 In195 2.266 . S
O201 C198 1.252 . S
O202 In195 2.326 . S
O202 C198 1.260 . S
O203 In195 2.266 . S
O203 C200 1.252 . S
O204 In195 2.326 . S
O204 C200 1.260 . S
C205 O196 1.240 . S
C205 O197 1.252 . S
O206 In195 2.294 . S
O206 C199 1.240 . S
O207 In195 2.326 . S
O207 C199 1.252 . S
C208 C209 1.170 . S
C208 C210 1.380 . S
C209 C208 1.170 . S
C210 C208 1.380 . S
C210 C211 1.170 . S
C211 C210 1.170 . S
C212 C213 1.170 . S
C212 C214 1.380 . S
C213 C212 1.170 . S
C214 C212 1.380 . S
C214 C215 1.170 . S
C215 C214 1.170 . S
C216 C217 1.170 . S
C216 C218 1.380 . S
C217 C216 1.170 . S
C218 C216 1.380 . S
C218 C219 1.170 . S
C219 C218 1.170 . S
C220 C221 1.170 . S
C220 C222 1.380 . S
C221 C220 1.170 . S
C222 C220 1.380 . S
C222 C223 1.170 . S
C223 C222 1.170 . S
C224 C225 1.170 . S
C224 C226 1.380 . S
C225 C224 1.170 . S
C226 C224 1.380 . S
C226 C227 1.170 . S
C227 C226 1.170 . S
C228 C229 1.170 . S
C228 C230 1.380 . S
C229 C228 1.170 . S
C230 C228 1.380 . S
C230 C231 1.170 . S
C231 C230 1.170 . S
C232 C233 1.170 . S
C232 C234 1.380 . S
C233 C232 1.170 . S
C234 C232 1.380 . S
C234 C235 1.170 . S
C235 C234 1.170 . S
C236 C237 1.170 . S
C236 C238 1.380 . S
C237 C236 1.170 . S
C238 C236 1.380 . S
C238 C239 1.170 . S
C239 C238 1.170 . S
C240 C241 1.170 . S
C240 C242 1.380 . S
C241 C240 1.170 . S
C242 C240 1.380 . S
C242 C243 1.170 . S
C243 C242 1.170 . S
C244 C245 1.170 . S
C244 C246 1.380 . S
C245 C244 1.170 . S
C246 C244 1.380 . S
C246 C247 1.170 . S
C247 C246 1.170 . S
C248 C249 1.170 . S
C248 C250 1.380 . S
C249 C248 1.170 . S
C250 C248 1.380 . S
C250 C251 1.170 . S
C251 C250 1.170 . S
C252 C253 1.170 . S
C252 C254 1.380 . S
C253 C252 1.170 . S
C254 C252 1.380 . S
C254 C255 1.170 . S
C255 C254 1.170 . S
C256 C257 1.170 . S
C256 C258 1.380 . S
C257 C256 1.170 . S
C258 C256 1.380 . S
C258 C259 1.170 . S
C259 C258 1.170 . S
C260 C261 1.170 . S
C260 C262 1.380 . S
C261 C260 1.170 . S
C262 C260 1.380 . S
C262 C263 1.170 . S
C263 C262 1.170 . S
C264 C265 1.170 . S
C264 C266 1.380 . S
C265 C264 1.170 . S
C266 C264 1.380 . S
C266 C267 1.170 . S
C267 C266 1.170 . S
C268 C269 1.170 . S
C268 C270 1.380 . S
C269 C268 1.170 . S
C270 C268 1.380 . S
C270 C271 1.170 . S
C271 C270 1.170 . S
C272 C273 1.170 . S
C272 C274 1.380 . S
C273 C272 1.170 . S
C274 C272 1.380 . S
C274 C275 1.170 . S
C275 C274 1.170 . S
C276 C277 1.170 . S
C276 C278 1.380 . S
C277 C276 1.170 . S
C278 C276 1.380 . S
C278 C279 1.170 . S
C279 C278 1.170 . S
C280 C281 1.170 . S
C280 C282 1.380 . S
C281 C280 1.170 . S
C282 C280 1.380 . S
C282 C283 1.170 . S
C283 C282 1.170 . S
C284 C285 1.170 . S
C284 C286 1.380 . S
C285 C284 1.170 . S
C286 C284 1.380 . S
C286 C287 1.170 . S
C287 C286 1.170 . S
C288 C289 1.170 . S
C288 C290 1.380 . S
C289 C288 1.170 . S
C290 C288 1.380 . S
C290 C291 1.170 . S
C291 C290 1.170 . S
C292 C293 1.170 . S
C292 C294 1.380 . S
C293 C292 1.170 . S
C294 C292 1.380 . S
C294 C295 1.170 . S
C295 C294 1.170 . S
C296 C297 1.170 . S
C296 C298 1.380 . S
C297 C296 1.170 . S
C298 C296 1.380 . S
C298 C299 1.170 . S
C299 C298 1.170 . S
C300 C301 1.170 . S
C300 C302 1.380 . S
C301 C300 1.170 . S
C302 C300 1.380 . S
C302 C303 1.170 . S
C303 C302 1.170 . S
C304 C305 1.170 . S
C304 C306 1.380 . S
C305 C304 1.170 . S
C306 C304 1.380 . S
C306 C307 1.170 . S
C307 C306 1.170 . S
C308 C309 1.170 . S
C308 C310 1.380 . S
C309 C308 1.170 . S
C310 C308 1.380 . S
C310 C311 1.170 . S
C311 C310 1.170 . S
C312 C313 1.170 . S
C312 C314 1.380 . S
C313 C312 1.170 . S
C314 C312 1.380 . S
C314 C315 1.170 . S
C315 C314 1.170 . S
C316 C317 1.170 . S
C316 C318 1.380 . S
C317 C316 1.170 . S
C318 C316 1.380 . S
C318 C319 1.170 . S
C319 C318 1.170 . S
C320 C321 1.170 . S
C320 C322 1.380 . S
C321 C320 1.170 . S
C322 C320 1.380 . S
C322 C323 1.170 . S
C323 C322 1.170 . S
C324 C325 1.170 . S
C324 C326 1.380 . S
C325 C324 1.170 . S
C326 C324 1.380 . S
C326 C327 1.170 . S
C327 C326 1.170 . S
C328 C329 1.170 . S
C328 C330 1.380 . S
C329 C328 1.170 . S
C330 C328 1.380 . S
C330 C331 1.170 . S
C331 C330 1.170 . S
C332 C333 1.170 . S
C332 C334 1.380 . S
C333 C332 1.170 . S
C334 C332 1.380 . S
C334 C335 1.170 . S
C335 C334 1.170 . S
C211 C120 1.321 . S
C209 C5 1.329 . S
C215 C134 1.340 . S
C213 C18 1.338 . S
C219 C147 1.318 . S
C217 C31 1.334 . S
C221 C42 1.332 . S
C223 C114 1.344 . S
C225 C57 1.355 . S
C227 C107 1.342 . S
C229 C70 1.349 . S
C231 C127 1.330 . S
C235 C135 1.337 . S
C233 C81 1.345 . S
C239 C148 1.321 . S
C237 C96 1.337 . S
C241 C29 1.331 . S
C243 C174 1.341 . S
C247 C192 1.330 . S
C245 C44 1.329 . S
C249 C3 1.345 . S
C251 C199 1.335 . S
C255 C166 1.320 . S
C253 C16 1.327 . S
C257 C83 1.353 . S
C259 C159 1.350 . S
C261 C94 1.322 . S
C263 C173 1.323 . S
C267 C185 1.341 . S
C265 C55 1.346 . S
C269 C68 1.333 . S
C271 C200 1.344 . S
C275 C133 1.564 . S
C273 C1 1.536 . S
C279 C146 1.539 . S
C277 C14 1.554 . S
C281 C27 1.561 . S
C283 C109 1.556 . S
C285 C49 1.586 . S
C287 C121 1.539 . S
C289 C53 1.555 . S
C291 C153 1.544 . S
C295 C108 1.544 . S
C293 C66 1.556 . S
C299 C122 1.537 . S
C297 C88 1.583 . S
C303 C140 1.544 . S
C301 C92 1.561 . S
C307 C187 1.545 . S
C305 C36 1.589 . S
C311 C198 1.562 . S
C309 C40 1.564 . S
C313 C10 1.579 . S
C315 C161 1.554 . S
C319 C179 1.556 . S
C317 C23 1.587 . S
C323 C205 1.535 . S
C321 C79 1.558 . S
C325 C101 1.584 . S
C327 C160 1.552 . S
C331 C172 1.545 . S
C329 C62 1.587 . S
C335 C186 1.524 . S
C333 C75 1.578 . S
