# Generated by pormake.
# Topology gar, (4,6)-cn, num edge types: 1
# Building blocks:
#     Node 0, Type 0, BuildingBlock: UXUYUI_clean_sbu_0, # of connection points: 4
#     Node 1, Type 0, BuildingBlock: UXUYUI_clean_sbu_0, # of connection points: 4
#     Node 2, Type 0, BuildingBlock: UXUYUI_clean_sbu_0, # of connection points: 4
#     Node 3, Type 0, BuildingBlock: UXUYUI_clean_sbu_0, # of connection points: 4
#     Node 4, Type 0, BuildingBlock: UXUYUI_clean_sbu_0, # of connection points: 4
#     Node 5, Type 0, BuildingBlock: UXUYUI_clean_sbu_0, # of connection points: 4
#     Node 6, Type 0, BuildingBlock: UXUYUI_clean_sbu_0, # of connection points: 4
#     Node 7, Type 0, BuildingBlock: UXUYUI_clean_sbu_0, # of connection points: 4
#     Node 8, Type 0, BuildingBlock: UXUYUI_clean_sbu_0, # of connection points: 4
#     Node 9, Type 0, BuildingBlock: UXUYUI_clean_sbu_0, # of connection points: 4
#     Node 10, Type 0, BuildingBlock: UXUYUI_clean_sbu_0, # of connection points: 4
#     Node 11, Type 0, BuildingBlock: UXUYUI_clean_sbu_0, # of connection points: 4
#     Node 12, Type 0, BuildingBlock: UXUYUI_clean_sbu_0, # of connection points: 4
#     Node 13, Type 0, BuildingBlock: UXUYUI_clean_sbu_0, # of connection points: 4
#     Node 14, Type 0, BuildingBlock: UXUYUI_clean_sbu_0, # of connection points: 4
#     Node 15, Type 0, BuildingBlock: UXUYUI_clean_sbu_0, # of connection points: 4
#     Node 16, Type 0, BuildingBlock: UXUYUI_clean_sbu_0, # of connection points: 4
#     Node 17, Type 0, BuildingBlock: UXUYUI_clean_sbu_0, # of connection points: 4
#     Node 18, Type 0, BuildingBlock: UXUYUI_clean_sbu_0, # of connection points: 4
#     Node 19, Type 0, BuildingBlock: UXUYUI_clean_sbu_0, # of connection points: 4
#     Node 20, Type 0, BuildingBlock: UXUYUI_clean_sbu_0, # of connection points: 4
#     Node 21, Type 0, BuildingBlock: UXUYUI_clean_sbu_0, # of connection points: 4
#     Node 22, Type 0, BuildingBlock: UXUYUI_clean_sbu_0, # of connection points: 4
#     Node 23, Type 0, BuildingBlock: UXUYUI_clean_sbu_0, # of connection points: 4
#     Node 24, Type 1, BuildingBlock: KUMJIN_clean_sbu_0, # of connection points: 6
#     Node 25, Type 1, BuildingBlock: KUMJIN_clean_sbu_0, # of connection points: 6
#     Node 26, Type 1, BuildingBlock: KUMJIN_clean_sbu_0, # of connection points: 6
#     Node 27, Type 1, BuildingBlock: KUMJIN_clean_sbu_0, # of connection points: 6
#     Node 28, Type 1, BuildingBlock: KUMJIN_clean_sbu_0, # of connection points: 6
#     Node 29, Type 1, BuildingBlock: KUMJIN_clean_sbu_0, # of connection points: 6
#     Node 30, Type 1, BuildingBlock: KUMJIN_clean_sbu_0, # of connection points: 6
#     Node 31, Type 1, BuildingBlock: KUMJIN_clean_sbu_0, # of connection points: 6
#     Node 32, Type 1, BuildingBlock: KUMJIN_clean_sbu_0, # of connection points: 6
#     Node 33, Type 1, BuildingBlock: KUMJIN_clean_sbu_0, # of connection points: 6
#     Node 34, Type 1, BuildingBlock: KUMJIN_clean_sbu_0, # of connection points: 6
#     Node 35, Type 1, BuildingBlock: KUMJIN_clean_sbu_0, # of connection points: 6
#     Node 36, Type 1, BuildingBlock: KUMJIN_clean_sbu_0, # of connection points: 6
#     Node 37, Type 1, BuildingBlock: KUMJIN_clean_sbu_0, # of connection points: 6
#     Node 38, Type 1, BuildingBlock: KUMJIN_clean_sbu_0, # of connection points: 6
#     Node 39, Type 1, BuildingBlock: KUMJIN_clean_sbu_0, # of connection points: 6
#     Edge 40, Type (0, 1), BuildingBlock: UVAHIK_clean_linker_0, # of connection points: 2
#     Edge 41, Type (0, 1), BuildingBlock: UVAHIK_clean_linker_0, # of connection points: 2
#     Edge 42, Type (0, 1), BuildingBlock: UVAHIK_clean_linker_0, # of connection points: 2
#     Edge 43, Type (0, 1), BuildingBlock: UVAHIK_clean_linker_0, # of connection points: 2
#     Edge 44, Type (0, 1), BuildingBlock: UVAHIK_clean_linker_0, # of connection points: 2
#     Edge 45, Type (0, 1), BuildingBlock: UVAHIK_clean_linker_0, # of connection points: 2
#     Edge 46, Type (0, 1), BuildingBlock: UVAHIK_clean_linker_0, # of connection points: 2
#     Edge 47, Type (0, 1), BuildingBlock: UVAHIK_clean_linker_0, # of connection points: 2
#     Edge 48, Type (0, 1), BuildingBlock: UVAHIK_clean_linker_0, # of connection points: 2
#     Edge 49, Type (0, 1), BuildingBlock: UVAHIK_clean_linker_0, # of connection points: 2
#     Edge 50, Type (0, 1), BuildingBlock: UVAHIK_clean_linker_0, # of connection points: 2
#     Edge 51, Type (0, 1), BuildingBlock: UVAHIK_clean_linker_0, # of connection points: 2
#     Edge 52, Type (0, 1), BuildingBlock: UVAHIK_clean_linker_0, # of connection points: 2
#     Edge 53, Type (0, 1), BuildingBlock: UVAHIK_clean_linker_0, # of connection points: 2
#     Edge 54, Type (0, 1), BuildingBlock: UVAHIK_clean_linker_0, # of connection points: 2
#     Edge 55, Type (0, 1), BuildingBlock: UVAHIK_clean_linker_0, # of connection points: 2
#     Edge 56, Type (0, 1), BuildingBlock: UVAHIK_clean_linker_0, # of connection points: 2
#     Edge 57, Type (0, 1), BuildingBlock: UVAHIK_clean_linker_0, # of connection points: 2
#     Edge 58, Type (0, 1), BuildingBlock: UVAHIK_clean_linker_0, # of connection points: 2
#     Edge 59, Type (0, 1), BuildingBlock: UVAHIK_clean_linker_0, # of connection points: 2
#     Edge 60, Type (0, 1), BuildingBlock: UVAHIK_clean_linker_0, # of connection points: 2
#     Edge 61, Type (0, 1), BuildingBlock: UVAHIK_clean_linker_0, # of connection points: 2
#     Edge 62, Type (0, 1), BuildingBlock: UVAHIK_clean_linker_0, # of connection points: 2
#     Edge 63, Type (0, 1), BuildingBlock: UVAHIK_clean_linker_0, # of connection points: 2
#     Edge 64, Type (0, 1), BuildingBlock: UVAHIK_clean_linker_0, # of connection points: 2
#     Edge 65, Type (0, 1), BuildingBlock: UVAHIK_clean_linker_0, # of connection points: 2
#     Edge 66, Type (0, 1), BuildingBlock: UVAHIK_clean_linker_0, # of connection points: 2
#     Edge 67, Type (0, 1), BuildingBlock: UVAHIK_clean_linker_0, # of connection points: 2
#     Edge 68, Type (0, 1), BuildingBlock: UVAHIK_clean_linker_0, # of connection points: 2
#     Edge 69, Type (0, 1), BuildingBlock: UVAHIK_clean_linker_0, # of connection points: 2
#     Edge 70, Type (0, 1), BuildingBlock: UVAHIK_clean_linker_0, # of connection points: 2
#     Edge 71, Type (0, 1), BuildingBlock: UVAHIK_clean_linker_0, # of connection points: 2
#     Edge 72, Type (0, 1), BuildingBlock: UVAHIK_clean_linker_0, # of connection points: 2
#     Edge 73, Type (0, 1), BuildingBlock: UVAHIK_clean_linker_0, # of connection points: 2
#     Edge 74, Type (0, 1), BuildingBlock: UVAHIK_clean_linker_0, # of connection points: 2
#     Edge 75, Type (0, 1), BuildingBlock: UVAHIK_clean_linker_0, # of connection points: 2
#     Edge 76, Type (0, 1), BuildingBlock: UVAHIK_clean_linker_0, # of connection points: 2
#     Edge 77, Type (0, 1), BuildingBlock: UVAHIK_clean_linker_0, # of connection points: 2
#     Edge 78, Type (0, 1), BuildingBlock: UVAHIK_clean_linker_0, # of connection points: 2
#     Edge 79, Type (0, 1), BuildingBlock: UVAHIK_clean_linker_0, # of connection points: 2
#     Edge 80, Type (0, 1), BuildingBlock: UVAHIK_clean_linker_0, # of connection points: 2
#     Edge 81, Type (0, 1), BuildingBlock: UVAHIK_clean_linker_0, # of connection points: 2
#     Edge 82, Type (0, 1), BuildingBlock: UVAHIK_clean_linker_0, # of connection points: 2
#     Edge 83, Type (0, 1), BuildingBlock: UVAHIK_clean_linker_0, # of connection points: 2
#     Edge 84, Type (0, 1), BuildingBlock: UVAHIK_clean_linker_0, # of connection points: 2
#     Edge 85, Type (0, 1), BuildingBlock: UVAHIK_clean_linker_0, # of connection points: 2
#     Edge 86, Type (0, 1), BuildingBlock: UVAHIK_clean_linker_0, # of connection points: 2
#     Edge 87, Type (0, 1), BuildingBlock: UVAHIK_clean_linker_0, # of connection points: 2
#     Edge 88, Type (0, 1), BuildingBlock: UVAHIK_clean_linker_0, # of connection points: 2
#     Edge 89, Type (0, 1), BuildingBlock: UVAHIK_clean_linker_0, # of connection points: 2
#     Edge 90, Type (0, 1), BuildingBlock: UVAHIK_clean_linker_0, # of connection points: 2
#     Edge 91, Type (0, 1), BuildingBlock: UVAHIK_clean_linker_0, # of connection points: 2
#     Edge 92, Type (0, 1), BuildingBlock: UVAHIK_clean_linker_0, # of connection points: 2
#     Edge 93, Type (0, 1), BuildingBlock: UVAHIK_clean_linker_0, # of connection points: 2
#     Edge 94, Type (0, 1), BuildingBlock: UVAHIK_clean_linker_0, # of connection points: 2
#     Edge 95, Type (0, 1), BuildingBlock: UVAHIK_clean_linker_0, # of connection points: 2
#     Edge 96, Type (0, 1), BuildingBlock: UVAHIK_clean_linker_0, # of connection points: 2
#     Edge 97, Type (0, 1), BuildingBlock: UVAHIK_clean_linker_0, # of connection points: 2
#     Edge 98, Type (0, 1), BuildingBlock: UVAHIK_clean_linker_0, # of connection points: 2
#     Edge 99, Type (0, 1), BuildingBlock: UVAHIK_clean_linker_0, # of connection points: 2
#     Edge 100, Type (0, 1), BuildingBlock: UVAHIK_clean_linker_0, # of connection points: 2
#     Edge 101, Type (0, 1), BuildingBlock: UVAHIK_clean_linker_0, # of connection points: 2
#     Edge 102, Type (0, 1), BuildingBlock: UVAHIK_clean_linker_0, # of connection points: 2
#     Edge 103, Type (0, 1), BuildingBlock: UVAHIK_clean_linker_0, # of connection points: 2
#     Edge 104, Type (0, 1), BuildingBlock: UVAHIK_clean_linker_0, # of connection points: 2
#     Edge 105, Type (0, 1), BuildingBlock: UVAHIK_clean_linker_0, # of connection points: 2
#     Edge 106, Type (0, 1), BuildingBlock: UVAHIK_clean_linker_0, # of connection points: 2
#     Edge 107, Type (0, 1), BuildingBlock: UVAHIK_clean_linker_0, # of connection points: 2
#     Edge 108, Type (0, 1), BuildingBlock: UVAHIK_clean_linker_0, # of connection points: 2
#     Edge 109, Type (0, 1), BuildingBlock: UVAHIK_clean_linker_0, # of connection points: 2
#     Edge 110, Type (0, 1), BuildingBlock: UVAHIK_clean_linker_0, # of connection points: 2
#     Edge 111, Type (0, 1), BuildingBlock: UVAHIK_clean_linker_0, # of connection points: 2
#     Edge 112, Type (0, 1), BuildingBlock: UVAHIK_clean_linker_0, # of connection points: 2
#     Edge 113, Type (0, 1), BuildingBlock: UVAHIK_clean_linker_0, # of connection points: 2
#     Edge 114, Type (0, 1), BuildingBlock: UVAHIK_clean_linker_0, # of connection points: 2
#     Edge 115, Type (0, 1), BuildingBlock: UVAHIK_clean_linker_0, # of connection points: 2
#     Edge 116, Type (0, 1), BuildingBlock: UVAHIK_clean_linker_0, # of connection points: 2
#     Edge 117, Type (0, 1), BuildingBlock: UVAHIK_clean_linker_0, # of connection points: 2
#     Edge 118, Type (0, 1), BuildingBlock: UVAHIK_clean_linker_0, # of connection points: 2
#     Edge 119, Type (0, 1), BuildingBlock: UVAHIK_clean_linker_0, # of connection points: 2
#     Edge 120, Type (0, 1), BuildingBlock: UVAHIK_clean_linker_0, # of connection points: 2
#     Edge 121, Type (0, 1), BuildingBlock: UVAHIK_clean_linker_0, # of connection points: 2
#     Edge 122, Type (0, 1), BuildingBlock: UVAHIK_clean_linker_0, # of connection points: 2
#     Edge 123, Type (0, 1), BuildingBlock: UVAHIK_clean_linker_0, # of connection points: 2
#     Edge 124, Type (0, 1), BuildingBlock: UVAHIK_clean_linker_0, # of connection points: 2
#     Edge 125, Type (0, 1), BuildingBlock: UVAHIK_clean_linker_0, # of connection points: 2
#     Edge 126, Type (0, 1), BuildingBlock: UVAHIK_clean_linker_0, # of connection points: 2
#     Edge 127, Type (0, 1), BuildingBlock: UVAHIK_clean_linker_0, # of connection points: 2
#     Edge 128, Type (0, 1), BuildingBlock: UVAHIK_clean_linker_0, # of connection points: 2
#     Edge 129, Type (0, 1), BuildingBlock: UVAHIK_clean_linker_0, # of connection points: 2
#     Edge 130, Type (0, 1), BuildingBlock: UVAHIK_clean_linker_0, # of connection points: 2
#     Edge 131, Type (0, 1), BuildingBlock: UVAHIK_clean_linker_0, # of connection points: 2
#     Edge 132, Type (0, 1), BuildingBlock: UVAHIK_clean_linker_0, # of connection points: 2
#     Edge 133, Type (0, 1), BuildingBlock: UVAHIK_clean_linker_0, # of connection points: 2
#     Edge 134, Type (0, 1), BuildingBlock: UVAHIK_clean_linker_0, # of connection points: 2
#     Edge 135, Type (0, 1), BuildingBlock: UVAHIK_clean_linker_0, # of connection points: 2
# Relax obj value: 0.137
# Max RMSD: 0.299
# Mean RMSD: 0.194
data_MOF--net-gar--node1-UXUYUI_clean_sbu_0--node2-KUMJIN_clean_sbu_0--edge1-UVAHIK_clean_linker_0
_symmetry_space_group_name_H-M    P1
_symmetry_Int_Tables_number       1
_symmetry_cell_setting            triclinic
loop_
_symmetry_equiv_pos_as_xyz
'x, y, z'
_cell_length_a     88.719417
_cell_length_b     84.757387
_cell_length_c     84.814815
_cell_angle_alpha  99.926161
_cell_angle_beta   92.748075
_cell_angle_gamma 102.16809
loop_
_atom_site_label
_atom_site_type_symbol
_atom_site_fract_x
_atom_site_fract_y
_atom_site_fract_z
_atom_type_partial_charge
Li0 Li 0.07412 0.31407 0.3735 0.0
Li1 Li 0.09246 0.32895 0.39626 0.0
Li2 Li 0.10173 0.31391 0.3736 0.0
Li3 Li 0.08592 0.29977 0.39322 0.0
C4 C 0.09279 0.345 0.36622 0.0
N5 N 0.09474 0.37096 0.35017 0.0
C6 C 0.08943 0.3597 0.37378 0.0
C7 C 0.09692 0.3434 0.35042 0.0
C8 C 0.09055 0.37271 0.36549 0.0
C9 C 0.09789 0.35669 0.34253 0.0
C10 C 0.06189 0.32003 0.40715 0.0
C11 C 0.05111 0.32107 0.43276 0.0
N12 N 0.04113 0.3298 0.42786 0.0
C13 C 0.05154 0.329 0.40235 0.0
C14 C 0.06164 0.31592 0.42241 0.0
C15 C 0.0411 0.3338 0.413 0.0
C16 C 0.04478 0.29923 0.35917 0.0
N17 N 0.05634 0.31279 0.36013 0.0
C18 C 0.04125 0.32417 0.34302 0.0
C19 C 0.05497 0.32501 0.35206 0.0
C20 C 0.0288 0.31073 0.3425 0.0
C21 C 0.03078 0.29792 0.35034 0.0
H22 H 0.0463 0.28971 0.3657 0.0
H23 H 0.06427 0.33563 0.35294 0.0
C24 C 0.11229 0.35834 0.40653 0.0
N25 N 0.09924 0.34886 0.41058 0.0
C26 C 0.11819 0.37403 0.41529 0.0
C27 C 0.09756 0.3695 0.43282 0.0
C28 C 0.09203 0.35388 0.42366 0.0
C29 C 0.11053 0.37985 0.42833 0.0
H30 H 0.11777 0.35387 0.39609 0.0
H31 H 0.08179 0.34607 0.42672 0.0
C32 C 0.08208 0.28284 0.35601 0.0
N33 N 0.07891 0.25828 0.3293 0.0
C34 C 0.08409 0.2673 0.35768 0.0
C35 C 0.07844 0.28595 0.34079 0.0
C36 C 0.08246 0.25504 0.34402 0.0
C37 C 0.07687 0.27333 0.32742 0.0
C38 C 0.11789 0.32169 0.40874 0.0
C39 C 0.13315 0.32751 0.40553 0.0
C40 C 0.11387 0.32394 0.42457 0.0
C41 C 0.14413 0.33578 0.41821 0.0
C42 C 0.12517 0.3324 0.43692 0.0
N43 N 0.13994 0.33808 0.43351 0.0
C44 C 0.12773 0.33031 0.36252 0.0
C45 C 0.12029 0.30209 0.35035 0.0
C46 C 0.14037 0.33264 0.35344 0.0
N47 N 0.11811 0.31523 0.36084 0.0
C48 C 0.13273 0.30385 0.34099 0.0
C49 C 0.14302 0.31924 0.34266 0.0
H50 H 0.12561 0.3405 0.37102 0.0
H51 H 0.11249 0.29026 0.34934 0.0
C52 C 0.06797 0.27388 0.40515 0.0
N53 N 0.08261 0.28217 0.40397 0.0
C54 C 0.06551 0.26109 0.41374 0.0
C55 C 0.09325 0.26575 0.41964 0.0
C56 C 0.09516 0.27844 0.41096 0.0
C57 C 0.07827 0.2569 0.4211 0.0
H58 H 0.05825 0.27735 0.39956 0.0
H59 H 0.10664 0.28535 0.40979 0.0
O60 O 0.09196 0.33221 0.37423 0.0
O61 O 0.07169 0.31459 0.39667 0.0
O62 O 0.08348 0.29484 0.36931 0.0
O63 O 0.10697 0.31371 0.39643 0.0
H64 H 0.08593 0.36104 0.3859 0.0
H65 H 0.09928 0.33199 0.3443 0.0
H66 H 0.08805 0.38419 0.37121 0.0
H67 H 0.10113 0.35566 0.33032 0.0
H68 H 0.05083 0.31808 0.44465 0.0
H69 H 0.05149 0.3321 0.3905 0.0
H70 H 0.06954 0.30888 0.42623 0.0
H71 H 0.03297 0.34069 0.40945 0.0
H72 H 0.0402 0.33421 0.33698 0.0
H73 H 0.02138 0.28745 0.35039 0.0
H74 H 0.12814 0.38181 0.41148 0.0
H75 H 0.0912 0.37379 0.44265 0.0
H76 H 0.08688 0.26476 0.36943 0.0
H77 H 0.07686 0.29796 0.33933 0.0
H78 H 0.08401 0.24294 0.34513 0.0
H79 H 0.07405 0.27551 0.31555 0.0
H80 H 0.13651 0.32562 0.39338 0.0
H81 H 0.1021 0.31944 0.42724 0.0
H82 H 0.15599 0.34037 0.41589 0.0
H83 H 0.12219 0.33445 0.44921 0.0
H84 H 0.14814 0.34462 0.35509 0.0
H85 H 0.13435 0.29329 0.3326 0.0
H86 H 0.05377 0.25471 0.41479 0.0
H87 H 0.10339 0.26279 0.42497 0.0
Li88 Li 0.0032 0.77684 0.64287 0.0
Li89 Li 0.01606 0.76399 0.66262 0.0
Li90 Li 0.99831 0.74717 0.63953 0.0
Li91 Li 0.98843 0.76177 0.66254 0.0
C92 C 0.02871 0.76092 0.62844 0.0
N93 N 0.04971 0.75555 0.60622 0.0
C94 C 0.04415 0.76193 0.63355 0.0
C95 C 0.02397 0.75741 0.61202 0.0
C96 C 0.0546 0.7592 0.62213 0.0
C97 C 0.03475 0.7546 0.60097 0.0
C98 C 0.0068 0.79371 0.6804 0.0
C99 C 0.00618 0.80129 0.70903 0.0
N100 N 0.01009 0.81742 0.70784 0.0
C101 C 0.01079 0.81033 0.67943 0.0
C102 C 0.00448 0.78911 0.69529 0.0
C103 C 0.01242 0.82215 0.69345 0.0
C104 C 0.99315 0.79898 0.62622 0.0
N105 N 0.00575 0.79421 0.6318 0.0
C106 C 0.02275 0.81419 0.62057 0.0
C107 C 0.02035 0.80142 0.62915 0.0
C108 C 0.00997 0.81946 0.61469 0.0
C109 C 0.99501 0.81167 0.61751 0.0
H110 H 0.9817 0.79293 0.62855 0.0
H111 H 0.03009 0.7972 0.6337 0.0
C112 C 0.03945 0.75157 0.67453 0.0
N113 N 0.03407 0.76551 0.67547 0.0
C114 C 0.05325 0.75182 0.68309 0.0
C115 C 0.05557 0.78076 0.69361 0.0
C116 C 0.04169 0.77994 0.6848 0.0
C117 C 0.06157 0.76661 0.69262 0.0
H118 H 0.03319 0.74038 0.66676 0.0
H119 H 0.03721 0.79087 0.68511 0.0
C120 C 0.9711 0.75613 0.62785 0.0
N121 N 0.94711 0.74497 0.60392 0.0
C122 C 0.95605 0.75035 0.63174 0.0
C123 C 0.97395 0.75641 0.61183 0.0
C124 C 0.94408 0.74472 0.61946 0.0
C125 C 0.96166 0.75066 0.59989 0.0
C126 C 1.00024 0.7329 0.67124 0.0
C127 C 0.99613 0.71616 0.66458 0.0
C128 C 0.00464 0.73795 0.68768 0.0
C129 C 0.99644 0.7047 0.67454 0.0
C130 C 0.00486 0.72611 0.69722 0.0
N131 N 1.00077 0.70987 0.69051 0.0
C132 C 0.00614 0.72159 0.61907 0.0
C133 C 0.97913 0.71977 0.61964 0.0
C134 C 0.00351 0.70738 0.60749 0.0
N135 N 0.99403 0.72771 0.6245 0.0
C136 C 0.97593 0.70557 0.60797 0.0
C137 C 0.98825 0.69936 0.60171 0.0
H138 H 0.01782 0.72757 0.62393 0.0
H139 H 0.96971 0.72421 0.62501 0.0
C140 C 0.96675 0.77339 0.6814 0.0
N141 N 0.97231 0.76001 0.67562 0.0
C142 C 0.95528 0.77214 0.69202 0.0
C143 C 0.95538 0.74331 0.69014 0.0
C144 C 0.96667 0.74509 0.67942 0.0
C145 C 0.94968 0.75699 0.69668 0.0
H146 H 0.97133 0.78501 0.67785 0.0
H147 H 0.97094 0.73455 0.67417 0.0
O148 O 0.01827 0.76292 0.63954 0.0
O149 O 0.00508 0.7821 0.66672 0.0
O150 O 0.98296 0.76134 0.63971 0.0
O151 O 0.99973 0.74422 0.66165 0.0
H152 H 0.04805 0.76478 0.6462 0.0
H153 H 0.01205 0.75651 0.60788 0.0
H154 H 0.06658 0.75991 0.62593 0.0
H155 H 0.03121 0.75163 0.58823 0.0
H156 H 0.00436 0.79793 0.72065 0.0
H157 H 0.01261 0.81405 0.66795 0.0
H158 H 1.00125 0.7763 0.69621 0.0
H159 H 0.01552 0.83507 0.69289 0.0
H160 H 0.03444 0.81979 0.61844 0.0
H161 H 0.9849 0.81551 0.61325 0.0
H162 H 0.05766 0.74072 0.68173 0.0
H163 H 0.06167 0.79235 0.70088 0.0
H164 H 0.95369 0.75007 0.64411 0.0
H165 H 0.98553 0.7609 0.60866 0.0
H166 H 0.93239 0.74011 0.62227 0.0
H167 H 0.96368 0.7507 0.58742 0.0
H168 H 0.99263 0.71206 0.65188 0.0
H169 H 0.00793 0.75085 0.693 0.0
H170 H 0.99323 0.69169 0.66956 0.0
H171 H 0.00828 0.72983 0.70996 0.0
H172 H 0.01329 0.70245 0.60351 0.0
H173 H 0.96402 0.69938 0.60411 0.0
H174 H 0.95079 0.78285 0.69645 0.0
H175 H 0.95127 0.73143 0.69338 0.0
Li176 Li 0.57386 0.81353 0.87477 0.0
Li177 Li 0.59232 0.82873 0.89709 0.0
Li178 Li 0.6013 0.81438 0.87403 0.0
Li179 Li 0.5867 0.79949 0.89374 0.0
C180 C 0.58981 0.84371 0.86588 0.0
N181 N 0.58824 0.86708 0.84724 0.0
C182 C 0.58735 0.85904 0.87286 0.0
C183 C 0.59136 0.84021 0.84941 0.0
C184 C 0.58661 0.8707 0.86323 0.0
C185 C 0.59057 0.85221 0.84019 0.0
C186 C 0.56243 0.81952 0.90854 0.0
C187 C 0.55127 0.82031 0.93394 0.0
N188 N 0.54199 0.82989 0.92934 0.0
C189 C 0.55285 0.82943 0.90408 0.0
C190 C 0.56163 0.81485 0.92355 0.0
C191 C 0.54254 0.8345 0.91475 0.0
C192 C 0.54672 0.79636 0.85671 0.0
N193 N 0.55564 0.81168 0.862 0.0
C194 C 0.53746 0.82379 0.84969 0.0
C195 C 0.5514 0.82527 0.85858 0.0
C196 C 0.5278 0.80816 0.8444 0.0
C197 C 0.53262 0.79429 0.8478 0.0
H198 H 0.55044 0.7858 0.8597 0.0
H199 H 0.55851 0.83731 0.86324 0.0
C200 C 0.61098 0.85885 0.90643 0.0
N201 N 0.5989 0.84867 0.91135 0.0
C202 C 0.61633 0.87478 0.91485 0.0
C203 C 0.59741 0.86897 0.93395 0.0
C204 C 0.59239 0.85314 0.92509 0.0
C205 C 0.60915 0.88007 0.92847 0.0
H206 H 0.616 0.85477 0.89552 0.0
H207 H 0.58302 0.8447 0.92889 0.0
C208 C 0.58397 0.78358 0.85624 0.0
N209 N 0.58441 0.76079 0.82888 0.0
C210 C 0.58679 0.76823 0.8575 0.0
C211 C 0.58129 0.78736 0.8411 0.0
C212 C 0.58698 0.75687 0.84351 0.0
C213 C 0.5816 0.77567 0.82739 0.0
C214 C 0.61863 0.8227 0.90841 0.0
C215 C 0.63341 0.82939 0.90439 0.0
C216 C 0.61542 0.82475 0.92452 0.0
C217 C 0.64471 0.83822 0.91657 0.0
C218 C 0.627 0.83378 0.93633 0.0
N219 N 0.64129 0.84025 0.93215 0.0
C220 C 0.62531 0.83209 0.86094 0.0
C221 C 0.62176 0.80318 0.85282 0.0
C222 C 0.63811 0.83485 0.85213 0.0
N223 N 0.61749 0.81648 0.86106 0.0
C224 C 0.63448 0.80536 0.84389 0.0
C225 C 0.64276 0.82132 0.84366 0.0
H226 H 0.62181 0.84238 0.86799 0.0
H227 H 0.61557 0.79094 0.8535 0.0
C228 C 0.56985 0.77116 0.9024 0.0
N229 N 0.58392 0.78168 0.90415 0.0
C230 C 0.56738 0.75816 0.91071 0.0
C231 C 0.59391 0.76726 0.92242 0.0
C232 C 0.59589 0.78 0.91382 0.0
C233 C 0.5795 0.75618 0.92092 0.0
H234 H 0.56056 0.77302 0.89469 0.0
H235 H 0.60693 0.78861 0.91491 0.0
O236 O 0.59099 0.83236 0.87525 0.0
O237 O 0.57203 0.81374 0.898 0.0
O238 O 0.58362 0.7947 0.86984 0.0
O239 O 0.60743 0.81405 0.89663 0.0
H240 H 0.58594 0.86188 0.88556 0.0
H241 H 0.59329 0.8284 0.84383 0.0
H242 H 0.58474 0.88263 0.86848 0.0
H243 H 0.59183 0.84972 0.82743 0.0
H244 H 0.55056 0.81686 0.94562 0.0
H245 H 0.55331 0.8331 0.8925 0.0
H246 H 0.56894 0.8071 0.92711 0.0
H247 H 0.53497 0.84209 0.91143 0.0
H248 H 0.53398 0.83481 0.8476 0.0
H249 H 0.52546 0.78205 0.84385 0.0
H250 H 0.62534 0.88314 0.9103 0.0
H251 H 0.59146 0.87282 0.9443 0.0
H252 H 0.58881 0.76514 0.86917 0.0
H253 H 0.57899 0.79917 0.83997 0.0
H254 H 0.58916 0.74493 0.84429 0.0
H255 H 0.57958 0.7784 0.81558 0.0
H256 H 0.63614 0.82773 0.89201 0.0
H257 H 0.60402 0.81963 0.9278 0.0
H258 H 0.6562 0.84346 0.91363 0.0
H259 H 0.62463 0.83564 0.94883 0.0
H260 H 0.64453 0.84727 0.85227 0.0
H261 H 0.63806 0.79473 0.8375 0.0
H262 H 0.55605 0.74995 0.90942 0.0
H263 H 0.60356 0.76601 0.93007 0.0
Li264 Li 0.50412 0.27533 0.14224 0.0
Li265 Li 0.51679 0.26267 0.16211 0.0
Li266 Li 0.49801 0.24564 0.13974 0.0
Li267 Li 0.48944 0.26138 0.16264 0.0
C268 C 0.52924 0.25994 0.1279 0.0
N269 N 0.5513 0.2581 0.10616 0.0
C270 C 0.54471 0.26148 0.13331 0.0
C271 C 0.52502 0.25771 0.11145 0.0
C272 C 0.55569 0.26053 0.12214 0.0
C273 C 0.53633 0.25668 0.10064 0.0
C274 C 0.50852 0.29344 0.17938 0.0
C275 C 0.50876 0.30222 0.208 0.0
N276 N 0.51225 0.31815 0.20608 0.0
C277 C 0.51209 0.30988 0.17768 0.0
C278 C 0.50686 0.28955 0.19464 0.0
C279 C 0.51395 0.3222 0.19133 0.0
C280 C 0.49418 0.29796 0.12625 0.0
N281 N 0.50677 0.29257 0.13084 0.0
C282 C 0.52345 0.31218 0.11887 0.0
C283 C 0.52121 0.29933 0.12737 0.0
C284 C 0.5107 0.31817 0.11407 0.0
C285 C 0.49589 0.31085 0.11778 0.0
H286 H 0.48285 0.29231 0.12927 0.0
H287 H 0.53099 0.29475 0.13124 0.0
C288 C 0.53975 0.25045 0.17568 0.0
N289 N 0.53494 0.26446 0.17477 0.0
C290 C 0.5537 0.25121 0.18424 0.0
C291 C 0.55737 0.28081 0.19089 0.0
C292 C 0.5433 0.27947 0.18219 0.0
C293 C 0.56276 0.26656 0.19178 0.0
H294 H 0.53294 0.23876 0.16935 0.0
H295 H 0.53926 0.2904 0.18102 0.0
C296 C 0.47183 0.25418 0.12784 0.0
N297 N 0.44831 0.24111 0.10365 0.0
C298 C 0.45676 0.24831 0.13163 0.0
C299 C 0.47493 0.25357 0.11179 0.0
C300 C 0.44503 0.24172 0.11922 0.0
C301 C 0.46288 0.24684 0.09972 0.0
C302 C 0.50032 0.23254 0.17221 0.0
C303 C 0.49718 0.2157 0.16599 0.0
C304 C 0.50372 0.23811 0.18874 0.0
C305 C 0.49736 0.20469 0.17645 0.0
C306 C 0.50382 0.22672 0.19881 0.0
N307 N 0.50065 0.21037 0.19251 0.0
C308 C 0.50155 0.2202 0.11541 0.0
C309 C 0.47698 0.21695 0.12592 0.0
C310 C 0.49655 0.20558 0.10452 0.0
N311 N 0.49166 0.22571 0.12555 0.0
C312 C 0.4715 0.20214 0.11529 0.0
C313 C 0.48133 0.19652 0.10433 0.0
H314 H 0.51336 0.22696 0.11597 0.0
H315 H 0.46964 0.22138 0.13465 0.0
C316 C 0.46907 0.27355 0.18309 0.0
N317 N 0.47345 0.25996 0.17565 0.0
C318 C 0.45687 0.27188 0.19277 0.0
C319 C 0.45385 0.24229 0.18657 0.0
C320 C 0.46611 0.24453 0.17704 0.0
C321 C 0.44927 0.25611 0.1945 0.0
H322 H 0.47492 0.28558 0.18134 0.0
H323 H 0.4696 0.23398 0.17048 0.0
O324 O 0.51831 0.26024 0.13871 0.0
O325 O 0.50654 0.28131 0.16606 0.0
O326 O 0.48343 0.26066 0.13985 0.0
O327 O 0.50005 0.24342 0.16207 0.0
H328 H 0.5482 0.26331 0.146 0.0
H329 H 0.51311 0.25646 0.10706 0.0
H330 H 0.56769 0.26164 0.12617 0.0
H331 H 0.53321 0.25473 0.08785 0.0
H332 H 0.50741 0.29938 0.21988 0.0
H333 H 0.5134 0.31306 0.16592 0.0
H334 H 0.50388 0.27694 0.19616 0.0
H335 H 0.51673 0.33498 0.1902 0.0
H336 H 0.53503 0.31731 0.11604 0.0
H337 H 0.48578 0.31523 0.11447 0.0
H338 H 0.55764 0.23997 0.18438 0.0
H339 H 0.56406 0.29284 0.19659 0.0
H340 H 0.45418 0.2488 0.14402 0.0
H341 H 0.4865 0.2582 0.1087 0.0
H342 H 0.43332 0.23709 0.12196 0.0
H343 H 0.46512 0.24621 0.08722 0.0
H344 H 0.49461 0.21117 0.15321 0.0
H345 H 0.50639 0.25106 0.19375 0.0
H346 H 0.49491 0.19162 0.17179 0.0
H347 H 0.50645 0.23087 0.21164 0.0
H348 H 0.50463 0.2011 0.09666 0.0
H349 H 0.45989 0.19507 0.11573 0.0
H350 H 0.45317 0.28268 0.19858 0.0
H351 H 0.44784 0.23 0.18752 0.0
Li352 Li 0.07475 0.8225 0.09783 0.0
Li353 Li 0.08922 0.81092 0.11874 0.0
Li354 Li 0.0711 0.79213 0.09466 0.0
Li355 Li 0.05915 0.80752 0.11784 0.0
C356 C 0.10056 0.81099 0.08317 0.0
N357 N 0.12061 0.81467 0.05948 0.0
C358 C 0.11618 0.81846 0.0873 0.0
C359 C 0.09514 0.80528 0.06702 0.0
C360 C 0.12614 0.82022 0.07514 0.0
C361 C 0.10545 0.80732 0.05521 0.0
C362 C 0.07881 0.8422 0.13288 0.0
C363 C 0.07618 0.85712 0.15909 0.0
N364 N 0.08299 0.87139 0.15455 0.0
C365 C 0.08586 0.85697 0.12848 0.0
C366 C 0.07394 0.84222 0.14829 0.0
C367 C 0.08783 0.87161 0.1396 0.0
C368 C 0.06056 0.84363 0.08301 0.0
N369 N 0.07469 0.84047 0.0863 0.0
C370 C 0.08686 0.86297 0.07419 0.0
C371 C 0.08775 0.84976 0.08193 0.0
C372 C 0.07236 0.86636 0.07061 0.0
C373 C 0.05911 0.85637 0.07496 0.0
H374 H 0.05035 0.83633 0.08682 0.0
H375 H 0.09889 0.84714 0.08471 0.0
C376 C 0.11458 0.7985 0.12968 0.0
N377 N 0.10846 0.81208 0.1323 0.0
C378 C 0.12818 0.79788 0.13855 0.0
C379 C 0.12917 0.82523 0.15289 0.0
C380 C 0.11551 0.82535 0.14369 0.0
C381 C 0.13581 0.81135 0.15042 0.0
H382 H 0.10884 0.78803 0.12065 0.0
H383 H 0.11059 0.8361 0.14566 0.0
C384 C 0.04387 0.80143 0.0817 0.0
N385 N 0.0211 0.79379 0.0565 0.0
C386 C 0.02842 0.79578 0.08437 0.0
C387 C 0.04776 0.80324 0.06623 0.0
C388 C 0.01707 0.79196 0.07147 0.0
C389 C 0.03607 0.7993 0.05365 0.0
C390 C 0.06991 0.77918 0.12713 0.0
C391 C 0.06232 0.7631 0.12028 0.0
C392 C 0.07513 0.78315 0.14341 0.0
C393 C 0.0601 0.75116 0.12991 0.0
C394 C 0.07267 0.77085 0.15265 0.0
N395 N 0.06528 0.75524 0.14576 0.0
C396 C 0.08086 0.76421 0.07901 0.0
C397 C 0.05438 0.76317 0.07259 0.0
C398 C 0.0793 0.74822 0.07037 0.0
N399 N 0.06843 0.77124 0.08022 0.0
C400 C 0.05235 0.74725 0.06365 0.0
C401 C 0.0648 0.73931 0.06276 0.0
H402 H 0.09188 0.7708 0.08531 0.0
H403 H 0.04457 0.7688 0.07382 0.0
C404 C 0.03316 0.81918 0.13101 0.0
N405 N 0.04074 0.80667 0.13011 0.0
C406 C 0.01956 0.81868 0.13901 0.0
C407 C 0.02173 0.79249 0.14512 0.0
C408 C 0.03517 0.79342 0.13691 0.0
C409 C 0.01365 0.80523 0.14632 0.0
H410 H 0.03762 0.82956 0.12541 0.0
H411 H 0.04103 0.7834 0.13586 0.0
O412 O 0.09078 0.80879 0.09495 0.0
O413 O 0.07621 0.82786 0.12195 0.0
O414 O 0.05507 0.80543 0.09426 0.0
O415 O 0.07231 0.79097 0.11788 0.0
H416 H 0.12056 0.82279 0.09978 0.0
H417 H 0.08315 0.79916 0.06366 0.0
H418 H 0.13827 0.82596 0.07815 0.0
H419 H 0.10142 0.80298 0.04265 0.0
H420 H 0.07244 0.85735 0.17107 0.0
H421 H 0.0897 0.85714 0.11659 0.0
H422 H 0.06841 0.83085 0.15182 0.0
H423 H 0.0932 0.88316 0.13634 0.0
H424 H 0.09735 0.87045 0.07105 0.0
H425 H 0.04775 0.85873 0.07262 0.0
H426 H 0.13252 0.78676 0.13624 0.0
H427 H 0.13457 0.83603 0.1617 0.0
H428 H 0.02524 0.79436 0.0963 0.0
H429 H 0.05964 0.80782 0.06401 0.0
H430 H 0.00505 0.78758 0.07335 0.0
H431 H 0.0389 0.80067 0.04162 0.0
H432 H 0.05817 0.75989 0.10769 0.0
H433 H 0.08102 0.79558 0.14883 0.0
H434 H 0.05426 0.73864 0.12479 0.0
H435 H 0.07663 0.7737 0.16528 0.0
H436 H 0.08925 0.7427 0.07033 0.0
H437 H 0.041 0.74114 0.0578 0.0
H438 H 0.01387 0.82886 0.13964 0.0
H439 H 0.01756 0.78172 0.15028 0.0
Li440 Li 0.51803 0.78536 0.44147 0.0
Li441 Li 0.50035 0.76702 0.41734 0.0
Li442 Li 0.51514 0.75485 0.43856 0.0
Li443 Li 0.53036 0.76955 0.41848 0.0
C444 C 0.48911 0.76859 0.45322 0.0
N445 N 0.4698 0.77016 0.47775 0.0
C446 C 0.47416 0.77089 0.45028 0.0
C447 C 0.49422 0.76697 0.46858 0.0
C448 C 0.46458 0.77166 0.46285 0.0
C449 C 0.48429 0.76785 0.48084 0.0
C450 C 0.51906 0.79836 0.4091 0.0
C451 C 0.52406 0.80741 0.38409 0.0
N452 N 0.52187 0.82248 0.39069 0.0
C453 C 0.51683 0.8139 0.41565 0.0
C454 C 0.52268 0.79502 0.39321 0.0
C455 C 0.5183 0.82594 0.40615 0.0
C456 C 0.53446 0.81753 0.45705 0.0
N457 N 0.5207 0.80645 0.45587 0.0
C458 C 0.50965 0.82653 0.47193 0.0
C459 C 0.50849 0.81061 0.46335 0.0
C460 C 0.5234 0.83857 0.4726 0.0
C461 C 0.53606 0.8337 0.46535 0.0
H462 H 0.54399 0.81403 0.4509 0.0
H463 H 0.49761 0.80179 0.46221 0.0
C464 C 0.47073 0.75174 0.39726 0.0
N465 N 0.48109 0.76604 0.40361 0.0
C466 C 0.45708 0.75183 0.388 0.0
C467 C 0.46489 0.78128 0.39187 0.0
C468 C 0.47828 0.78064 0.40107 0.0
C469 C 0.45389 0.76678 0.38515 0.0
H470 H 0.47295 0.7402 0.39947 0.0
H471 H 0.48641 0.79194 0.40629 0.0
C472 C 0.54589 0.77609 0.45437 0.0
N473 N 0.569 0.78204 0.47904 0.0
C474 C 0.56078 0.77436 0.45102 0.0
C475 C 0.54274 0.78094 0.47024 0.0
C476 C 0.57231 0.77739 0.46367 0.0
C477 C 0.55459 0.78388 0.48256 0.0
C478 C 0.51353 0.73564 0.40365 0.0
C479 C 0.5198 0.72345 0.40889 0.0
C480 C 0.50784 0.73353 0.3876 0.0
C481 C 0.52025 0.70926 0.39795 0.0
C482 C 0.50855 0.71918 0.37701 0.0
N483 N 0.51466 0.70743 0.38237 0.0
C484 C 0.50205 0.72461 0.44987 0.0
C485 C 0.52864 0.7358 0.45774 0.0
C486 C 0.50264 0.71096 0.45706 0.0
N487 N 0.51502 0.73664 0.45014 0.0
C488 C 0.52965 0.72262 0.46534 0.0
C489 C 0.51662 0.70987 0.46486 0.0
H490 H 0.49134 0.72538 0.4437 0.0
H491 H 0.53894 0.74508 0.45753 0.0
C492 C 0.55864 0.78557 0.40689 0.0
N493 N 0.54893 0.77065 0.4063 0.0
C494 C 0.5724 0.78692 0.39913 0.0
C495 C 0.56611 0.75758 0.3902 0.0
C496 C 0.5525 0.75677 0.39817 0.0
C497 C 0.57639 0.77281 0.39058 0.0
H498 H 0.55576 0.79648 0.41352 0.0
H499 H 0.54493 0.74497 0.398 0.0
O500 O 0.49861 0.76786 0.44105 0.0
O501 O 0.51788 0.78653 0.41829 0.0
O502 O 0.53441 0.77267 0.44215 0.0
O503 O 0.51263 0.74939 0.41427 0.0
H504 H 0.47005 0.77211 0.43842 0.0
H505 H 0.5057 0.76502 0.47098 0.0
H506 H 0.45299 0.77347 0.46077 0.0
H507 H 0.48809 0.76667 0.4928 0.0
H508 H 0.52688 0.80505 0.37176 0.0
H509 H 0.51388 0.81661 0.4279 0.0
H510 H 0.52444 0.78302 0.38801 0.0
H511 H 0.5166 0.83803 0.41105 0.0
H512 H 0.49964 0.82943 0.4776 0.0
H513 H 0.54688 0.84244 0.46532 0.0
H514 H 0.449 0.74028 0.38337 0.0
H515 H 0.4633 0.79315 0.38996 0.0
H516 H 0.56336 0.77053 0.43879 0.0
H517 H 0.53129 0.7824 0.47302 0.0
H518 H 0.58387 0.77602 0.46126 0.0
H519 H 0.55233 0.7876 0.49491 0.0
H520 H 0.52431 0.72494 0.42125 0.0
H521 H 0.50291 0.74287 0.38341 0.0
H522 H 0.52504 0.6997 0.40184 0.0
H523 H 0.5042 0.71735 0.36454 0.0
H524 H 0.49235 0.70128 0.4564 0.0
H525 H 0.54069 0.72209 0.471 0.0
H526 H 0.57976 0.79898 0.39972 0.0
H527 H 0.56867 0.74627 0.38405 0.0
Li528 Li 0.57515 0.32261 0.59807 0.0
Li529 Li 0.58969 0.31102 0.61905 0.0
Li530 Li 0.57152 0.29223 0.59491 0.0
Li531 Li 0.55955 0.30762 0.61806 0.0
C532 C 0.60089 0.31103 0.58332 0.0
N533 N 0.62069 0.3146 0.5594 0.0
C534 C 0.61652 0.31852 0.58729 0.0
C535 C 0.59532 0.30525 0.56722 0.0
C536 C 0.62636 0.32022 0.57501 0.0
C537 C 0.60551 0.30723 0.55529 0.0
C538 C 0.57902 0.34233 0.63305 0.0
C539 C 0.57621 0.35726 0.6592 0.0
N540 N 0.58277 0.37156 0.65456 0.0
C541 C 0.58581 0.35713 0.62855 0.0
C542 C 0.5742 0.34233 0.64848 0.0
C543 C 0.58758 0.37179 0.63959 0.0
C544 C 0.56082 0.34383 0.58352 0.0
N545 N 0.57497 0.3406 0.58651 0.0
C546 C 0.5869 0.36295 0.57408 0.0
C547 C 0.58793 0.34978 0.58184 0.0
C548 C 0.57238 0.36642 0.57079 0.0
C549 C 0.55923 0.35654 0.57547 0.0
H550 H 0.5507 0.33661 0.58755 0.0
H551 H 0.59909 0.3471 0.58438 0.0
C552 C 0.61443 0.29825 0.63136 0.0
N553 N 0.60893 0.31223 0.6328 0.0
C554 C 0.62791 0.29773 0.64054 0.0
C555 C 0.63013 0.32606 0.65264 0.0
C556 C 0.61655 0.32604 0.64322 0.0
C557 C 0.63611 0.31176 0.65147 0.0
H558 H 0.60827 0.28736 0.62309 0.0
H559 H 0.61214 0.33711 0.64424 0.0
C560 C 0.54425 0.30162 0.58197 0.0
N561 N 0.5214 0.29414 0.55686 0.0
C562 C 0.52881 0.29597 0.58469 0.0
C563 C 0.54809 0.30352 0.56651 0.0
C564 C 0.51742 0.29224 0.57183 0.0
C565 C 0.53636 0.29965 0.55397 0.0
C566 C 0.57002 0.27925 0.62734 0.0
C567 C 0.5623 0.26324 0.6204 0.0
C568 C 0.5751 0.2831 0.64366 0.0
C569 C 0.55981 0.25126 0.62998 0.0
C570 C 0.57236 0.27077 0.65284 0.0
N571 N 0.56485 0.25524 0.64586 0.0
C572 C 0.58116 0.26409 0.57965 0.0
C573 C 0.55492 0.26343 0.5724 0.0
C574 C 0.57961 0.24812 0.57099 0.0
N575 N 0.56885 0.27132 0.58046 0.0
C576 C 0.55291 0.24753 0.56342 0.0
C577 C 0.56523 0.2394 0.56292 0.0
H578 H 0.59207 0.27052 0.58628 0.0
H579 H 0.54519 0.26921 0.5733 0.0
C580 C 0.5341 0.31975 0.63218 0.0
N581 N 0.54109 0.30675 0.6303 0.0
C582 C 0.5205 0.31924 0.64017 0.0
C583 C 0.52139 0.292 0.64419 0.0
C584 C 0.53488 0.29298 0.63604 0.0
C585 C 0.51393 0.30523 0.64643 0.0
H586 H 0.53905 0.33054 0.62739 0.0
H587 H 0.54025 0.28258 0.63417 0.0
O588 O 0.59123 0.30891 0.59522 0.0
O589 O 0.57664 0.32795 0.6222 0.0
O590 O 0.55549 0.30551 0.59448 0.0
O591 O 0.57273 0.29107 0.61814 0.0
H592 H 0.62101 0.32291 0.59973 0.0
H593 H 0.58332 0.29912 0.56398 0.0
H594 H 0.6385 0.32597 0.5779 0.0
H595 H 0.60137 0.30283 0.54277 0.0
H596 H 0.5725 0.35748 0.67118 0.0
H597 H 0.58963 0.35731 0.61666 0.0
H598 H 0.56887 0.33094 0.65208 0.0
H599 H 0.59275 0.38336 0.63626 0.0
H600 H 0.59733 0.37031 0.57066 0.0
H601 H 0.54786 0.35895 0.57337 0.0
H602 H 0.63166 0.28627 0.63922 0.0
H603 H 0.63597 0.33732 0.66061 0.0
H604 H 0.52567 0.29449 0.59661 0.0
H605 H 0.55995 0.3081 0.56426 0.0
H606 H 0.50541 0.28785 0.57375 0.0
H607 H 0.53915 0.30108 0.54194 0.0
H608 H 0.55826 0.26012 0.60778 0.0
H609 H 0.58109 0.29548 0.64916 0.0
H610 H 0.55386 0.2388 0.62479 0.0
H611 H 0.57622 0.27353 0.6655 0.0
H612 H 0.58944 0.24245 0.57129 0.0
H613 H 0.54167 0.2416 0.5572 0.0
H614 H 0.5153 0.32981 0.64161 0.0
H615 H 0.51671 0.2808 0.64847 0.0
Li616 Li 0.01859 0.28552 0.94208 0.0
Li617 Li 1.00097 0.26719 0.91801 0.0
Li618 Li 0.01563 0.255 0.93921 0.0
Li619 Li 0.03085 0.26962 0.91908 0.0
C620 C 0.98959 0.26869 0.95379 0.0
N621 N 0.97013 0.27001 0.97819 0.0
C622 C 0.97463 0.27092 0.95079 0.0
C623 C 0.99465 0.26702 0.96915 0.0
C624 C 0.96497 0.27157 0.9633 0.0
C625 C 0.98463 0.26777 0.98135 0.0
C626 C 0.019 0.29815 0.90941 0.0
C627 C 0.02334 0.30671 0.88407 0.0
N628 N 0.02101 0.32178 0.89049 0.0
C629 C 0.01659 0.31366 0.91576 0.0
C630 C 0.02236 0.29458 0.89345 0.0
C631 C 0.01768 0.32546 0.90601 0.0
C632 C 0.03487 0.31787 0.95709 0.0
N633 N 0.02129 0.30662 0.95641 0.0
C634 C 0.01045 0.32652 0.973 0.0
C635 C 0.00928 0.31061 0.9644 0.0
C636 C 0.02399 0.33873 0.97318 0.0
C637 C 0.03647 0.33403 0.96539 0.0
H638 H 0.04424 0.31449 0.95055 0.0
H639 H 0.99854 0.30166 0.96367 0.0
C640 C 0.9732 0.25231 0.89503 0.0
N641 N 0.98182 0.26635 0.90433 0.0
C642 C 0.95979 0.25257 0.8855 0.0
C643 C 0.96397 0.2816 0.89558 0.0
C644 C 0.97734 0.28081 0.90472 0.0
C645 C 0.95485 0.2674 0.88553 0.0
H646 H 0.97674 0.24083 0.89488 0.0
H647 H 0.98412 0.29184 0.91233 0.0
C648 C 0.04647 0.27632 0.95494 0.0
N649 N 0.06964 0.28244 0.97958 0.0
C650 C 0.06133 0.27448 0.95158 0.0
C651 C 0.04338 0.28137 0.9708 0.0
C652 C 0.07289 0.27761 0.96421 0.0
C653 C 0.05526 0.28439 0.9831 0.0
C654 C 0.01405 0.2358 0.9042 0.0
C655 C 0.01992 0.22335 0.90943 0.0
C656 C 0.00872 0.234 0.88809 0.0
C657 C 0.02028 0.20919 0.89841 0.0
C658 C 0.00929 0.21964 0.87743 0.0
N659 N 0.01499 0.20763 0.88277 0.0
C660 C 0.00258 0.22432 0.94957 0.0
C661 C 0.02861 0.2364 0.95934 0.0
C662 C 0.00306 0.21064 0.95674 0.0
N663 N 0.01534 0.23681 0.95079 0.0
C664 C 0.02949 0.22319 0.96692 0.0
C665 C 0.01671 0.20994 0.96548 0.0
H666 H 0.99216 0.22476 0.94266 0.0
H667 H 0.03877 0.24606 0.95994 0.0
C668 C 0.05878 0.28562 0.90696 0.0
N669 N 0.04933 0.27066 0.90684 0.0
C670 C 0.07248 0.28697 0.89911 0.0
C671 C 0.06667 0.25752 0.89107 0.0
C672 C 0.05312 0.25673 0.89912 0.0
C673 C 0.07668 0.2728 0.89096 0.0
H674 H 0.05573 0.29658 0.91327 0.0
H675 H 0.04575 0.2449 0.89935 0.0
O676 O 0.99917 0.26808 0.94168 0.0
O677 O 0.01848 0.28666 0.91892 0.0
O678 O 0.03493 0.27276 0.94276 0.0
O679 O 0.01313 0.24948 0.91492 0.0
H680 H 0.97057 0.27218 0.93893 0.0
H681 H 0.00615 0.26515 0.97162 0.0
H682 H 0.95336 0.27332 0.96116 0.0
H683 H 0.98838 0.26655 0.99332 0.0
H684 H 0.02598 0.30418 0.87169 0.0
H685 H 0.0139 0.31656 0.92809 0.0
H686 H 0.02429 0.2826 0.88841 0.0
H687 H 0.01588 0.33754 0.91077 0.0
H688 H 1.00061 0.32927 0.9791 0.0
H689 H 0.04711 0.3429 0.96495 0.0
H690 H 0.95358 0.24119 0.87802 0.0
H691 H 0.96079 0.29334 0.89672 0.0
H692 H 0.06386 0.27051 0.93936 0.0
H693 H 0.03194 0.28286 0.97359 0.0
H694 H 0.08443 0.27616 0.9618 0.0
H695 H 0.05305 0.28824 0.99544 0.0
H696 H 0.02418 0.22461 0.92184 0.0
H697 H 0.00416 0.24356 0.88388 0.0
H698 H 0.02475 0.19943 0.90229 0.0
H699 H 0.00518 0.21803 0.86491 0.0
H700 H 0.99294 0.20063 0.95533 0.0
H701 H 0.04031 0.22302 0.97332 0.0
H702 H 0.07962 0.29906 0.89931 0.0
H703 H 0.06941 0.24619 0.88525 0.0
Li704 Li 0.4165 0.04358 0.30577 0.0
Li705 Li 0.39386 0.02755 0.28893 0.0
Li706 Li 0.416 0.04259 0.2777 0.0
Li707 Li 0.39822 0.05681 0.29298 0.0
C708 C 0.42455 0.01382 0.28967 0.0
N709 N 0.44405 0.99251 0.29059 0.0
C710 C 0.41849 0.99737 0.29034 0.0
C711 C 0.44049 0.01945 0.28941 0.0
C712 C 0.42855 0.98678 0.29081 0.0
C713 C 0.45017 0.00848 0.28991 0.0
C714 C 0.38404 0.04049 0.31984 0.0
C715 C 0.35768 0.03777 0.32664 0.0
N716 N 0.36197 0.0348 0.34127 0.0
C717 C 0.38822 0.03747 0.33494 0.0
C718 C 0.36869 0.04073 0.31564 0.0
C719 C 0.37688 0.03461 0.34561 0.0
C720 C 0.4352 0.06114 0.33147 0.0
N721 N 0.42905 0.04559 0.32365 0.0
C722 C 0.44288 0.03425 0.34167 0.0
C723 C 0.43232 0.03219 0.32855 0.0
C724 C 0.44967 0.05022 0.34975 0.0
C725 C 0.4457 0.06379 0.34475 0.0
H726 H 0.43204 0.07143 0.32726 0.0
H727 H 0.42676 0.01999 0.32227 0.0
C728 C 0.37452 1.00072 0.27046 0.0
N729 N 0.37891 0.00851 0.28585 0.0
C730 C 0.3637 0.98599 0.26734 0.0
C731 C 0.36247 0.98736 0.29604 0.0
C732 C 0.37335 1.00213 0.2986 0.0
C733 C 0.35776 0.9792 0.28026 0.0
H734 H 0.37984 0.00562 0.26064 0.0
H735 H 0.37778 0.0081 0.31069 0.0
C736 C 0.4337 0.07419 0.29345 0.0
N737 N 0.45925 0.0982 0.29059 0.0
C738 C 0.43179 0.08906 0.28961 0.0
C739 C 0.44858 0.07156 0.296 0.0
C740 C 0.44486 0.10105 0.28818 0.0
C741 C 0.46136 0.08384 0.29444 0.0
C742 C 0.38285 0.03737 0.25987 0.0
C743 C 0.38697 0.03458 0.2441 0.0
C744 C 0.36728 0.03589 0.26273 0.0
C745 C 0.3754 0.03035 0.23139 0.0
C746 C 0.35605 0.03157 0.24969 0.0
N747 N 0.3603 0.02893 0.23443 0.0
C748 C 0.42862 0.02586 0.25346 0.0
C749 C 0.43553 0.05485 0.25563 0.0
C750 C 0.43737 0.02366 0.24051 0.0
N751 N 0.42797 0.04125 0.26071 0.0
C752 C 0.4444 0.05324 0.24269 0.0
C753 C 0.44517 0.03747 0.23491 0.0
H754 H 0.42206 0.01529 0.25753 0.0
H755 H 0.43431 0.06687 0.26126 0.0
C756 C 0.38616 0.08049 0.31102 0.0
N757 N 0.38786 0.07331 0.29581 0.0
C758 C 0.37663 0.0916 0.31352 0.0
C759 C 0.371 0.08748 0.28463 0.0
C760 C 0.38075 0.07665 0.2827 0.0
C761 C 0.36881 0.09491 0.30019 0.0
H762 H 0.39197 0.07732 0.32113 0.0
H763 H 0.38251 0.07075 0.2708 0.0
O764 O 0.41476 0.02419 0.28892 0.0
O765 O 0.39498 0.04304 0.30922 0.0
O766 O 0.42099 0.06247 0.29502 0.0
O767 O 0.39409 0.04154 0.27241 0.0
H768 H 0.40615 0.99283 0.29045 0.0
H769 H 0.44532 0.03209 0.2887 0.0
H770 H 0.42403 0.97401 0.29133 0.0
H771 H 0.46254 0.01265 0.28971 0.0
H772 H 0.34573 0.03784 0.32354 0.0
H773 H 0.40008 0.03725 0.33835 0.0
H774 H 0.3653 0.04308 0.30399 0.0
H775 H 0.37993 0.0322 0.35733 0.0
H776 H 0.4456 0.02359 0.34559 0.0
H777 H 0.45081 0.07622 0.35091 0.0
H778 H 0.36047 0.97959 0.25504 0.0
H779 H 0.35844 0.98196 0.30619 0.0
H780 H 0.42032 0.09129 0.28771 0.0
H781 H 0.45025 0.06021 0.29922 0.0
H782 H 0.44357 0.11261 0.28517 0.0
H783 H 0.47295 0.08197 0.29633 0.0
H784 H 0.39898 0.0357 0.2417 0.0
H785 H 0.36392 0.03797 0.27487 0.0
H786 H 0.37841 0.02819 0.21912 0.0
H787 H 0.34394 0.03033 0.25171 0.0
H788 H 0.43765 0.01133 0.23462 0.0
H789 H 0.44994 0.06413 0.23832 0.0
H790 H 0.37524 0.09737 0.32563 0.0
H791 H 0.36539 0.0902 0.2741 0.0
Li792 Li 0.29903 0.20533 0.52212 0.0
Li793 Li 0.30968 0.18337 0.50486 0.0
Li794 Li 0.29808 0.20346 0.49277 0.0
Li795 Li 0.28047 0.18058 0.50323 0.0
C796 C 0.32907 0.22021 0.50973 0.0
N797 N 0.35463 0.24575 0.51165 0.0
C798 C 0.34395 0.2172 0.51048 0.0
C799 C 0.32717 0.23619 0.51 0.0
C800 C 0.35673 0.23028 0.51146 0.0
C801 C 0.34024 0.24894 0.51094 0.0
C802 C 0.29644 0.17082 0.53227 0.0
C803 C 0.29319 0.14333 0.53746 0.0
N804 N 0.29961 0.14955 0.55276 0.0
C805 C 0.30294 0.17698 0.54804 0.0
C806 C 0.29147 0.1539 0.52691 0.0
C807 C 0.30448 0.166 0.55821 0.0
C808 C 0.28791 0.22078 0.5497 0.0
N809 N 0.30111 0.21947 0.5426 0.0
C810 C 0.31649 0.23697 0.5655 0.0
C811 C 0.31525 0.22741 0.55009 0.0
C812 C 0.30305 0.23827 0.57336 0.0
C813 C 0.28861 0.23011 0.5651 0.0
H814 H 0.27683 0.21423 0.5435 0.0
H815 H 0.32559 0.2261 0.54422 0.0
C816 C 0.33284 0.1682 0.48999 0.0
N817 N 0.32633 0.17194 0.50399 0.0
C818 C 0.34522 0.16025 0.48959 0.0
C819 C 0.34411 0.16045 0.51801 0.0
C820 C 0.33196 0.16853 0.5179 0.0
C821 C 0.35084 0.15607 0.50371 0.0
H822 H 0.32845 0.17141 0.47914 0.0
H823 H 0.32715 0.17223 0.52901 0.0
C824 C 0.2724 0.21587 0.50539 0.0
N825 N 0.2551 0.23872 0.50185 0.0
C826 C 0.25717 0.21072 0.49843 0.0
C827 C 0.27879 0.23258 0.51074 0.0
C828 C 0.24862 0.22248 0.49672 0.0
C829 C 0.26988 0.24396 0.50877 0.0
C830 C 0.29323 0.16827 0.47166 0.0
C831 C 0.29065 0.17304 0.45697 0.0
C832 C 0.29476 0.15225 0.47192 0.0
C833 C 0.28972 0.16168 0.44272 0.0
C834 C 0.29381 0.14126 0.4574 0.0
N835 N 0.29133 0.14616 0.44322 0.0
C836 C 0.31424 0.22079 0.47081 0.0
C837 C 0.2871 0.2186 0.46859 0.0
C838 C 0.31589 0.22878 0.4577 0.0
N839 N 0.30001 0.21588 0.47597 0.0
C840 C 0.28819 0.22632 0.45531 0.0
C841 C 0.3027 0.23131 0.44964 0.0
H842 H 0.32426 0.21801 0.47652 0.0
H843 H 0.27588 0.21416 0.47256 0.0
C844 C 0.25275 0.16572 0.51511 0.0
N845 N 0.26009 0.16596 0.5014 0.0
C846 C 0.23776 0.15612 0.51483 0.0
C847 C 0.23805 0.14694 0.48632 0.0
C848 C 0.25307 0.15678 0.48715 0.0
C849 C 0.23007 0.14657 0.50028 0.0
H850 H 0.25853 0.17313 0.5263 0.0
H851 H 0.25903 0.15723 0.47635 0.0
O852 O 0.31646 0.20746 0.50844 0.0
O853 O 0.29498 0.18135 0.52214 0.0
O854 O 0.2809 0.20454 0.50716 0.0
O855 O 0.29458 0.17936 0.48568 0.0
H856 H 0.34562 0.20488 0.51025 0.0
H857 H 0.31574 0.2387 0.50925 0.0
H858 H 0.36833 0.22813 0.51203 0.0
H859 H 0.33894 0.26137 0.51106 0.0
H860 H 0.28943 0.13018 0.5335 0.0
H861 H 0.30685 0.19008 0.55232 0.0
H862 H 0.2864 0.14902 0.51471 0.0
H863 H 0.30955 0.17056 0.57044 0.0
H864 H 0.32787 0.24316 0.57121 0.0
H865 H 0.27792 0.2304 0.57066 0.0
H866 H 0.35013 0.15714 0.47833 0.0
H867 H 0.34832 0.1578 0.52925 0.0
H868 H 0.25206 0.19778 0.49434 0.0
H869 H 0.29046 0.2367 0.51643 0.0
H870 H 0.23683 0.2187 0.49129 0.0
H871 H 0.27468 0.25696 0.51279 0.0
H872 H 0.28941 0.18537 0.45654 0.0
H873 H 0.29681 0.14841 0.48321 0.0
H874 H 0.28776 0.16521 0.43126 0.0
H875 H 0.29506 0.12885 0.45739 0.0
H876 H 0.32721 0.23218 0.45342 0.0
H877 H 0.27776 0.22796 0.44923 0.0
H878 H 0.23231 0.15612 0.52597 0.0
H879 H 0.23263 0.14 0.47479 0.0
Li880 Li 0.1719 0.02542 0.76662 0.0
Li881 Li 0.14915 0.00691 0.77957 0.0
Li882 Li 0.16935 0.99204 0.76323 0.0
Li883 Li 0.14832 0.00458 0.74785 0.0
C884 C 0.18229 0.01328 0.79682 0.0
N885 N 0.20145 0.0178 0.82458 0.0
C886 C 0.17764 0.01982 0.81158 0.0
C887 C 0.19669 0.00912 0.79612 0.0
C888 C 0.18749 0.02199 0.8255 0.0
C889 C 0.20622 0.01149 0.81031 0.0
C890 C 0.13793 0.0331 0.76723 0.0
C891 C 0.11127 0.03507 0.76459 0.0
N892 N 0.11562 0.0514 0.7709 0.0
C893 C 0.14217 0.04988 0.77363 0.0
C894 C 0.12239 0.0256 0.76261 0.0
C895 C 0.1307 0.05893 0.77541 0.0
C896 C 0.18628 0.05552 0.75451 0.0
N897 N 0.18522 0.04896 0.76817 0.0
C898 C 0.20014 0.07513 0.78319 0.0
C899 C 0.19205 0.0586 0.78239 0.0
C900 C 0.20143 0.0823 0.76927 0.0
C901 C 0.19427 0.07195 0.75478 0.0
H902 H 0.18068 0.04805 0.74327 0.0
H903 H 0.19113 0.05358 0.79328 0.0
C904 C 0.13419 0.99426 0.80752 0.0
N905 N 0.13669 0.00727 0.79968 0.0
C906 C 0.12645 0.99474 0.82182 0.0
C907 C 0.12352 0.02185 0.81997 0.0
C908 C 0.1314 0.02092 0.8058 0.0
C909 C 0.12094 0.00872 0.82849 0.0
H910 H 0.13836 0.98343 0.80279 0.0
H911 H 0.1335 0.03137 0.79987 0.0
C912 C 0.18021 0.00501 0.7341 0.0
N913 N 0.19744 0.99971 0.70827 0.0
C914 C 0.17307 0.99541 0.71953 0.0
C915 C 0.19607 0.0119 0.73559 0.0
C916 C 0.18199 0.9929 0.70658 0.0
C917 C 0.2046 0.00905 0.72238 0.0
C918 C 0.13346 0.97321 0.75931 0.0
C919 C 0.13592 0.95753 0.75376 0.0
C920 C 0.11866 0.97513 0.76285 0.0
C921 C 0.12346 0.94397 0.75177 0.0
C922 C 0.10649 0.96126 0.76067 0.0
N923 N 0.10912 0.9461 0.75523 0.0
C924 C 0.18315 0.96645 0.77653 0.0
C925 C 0.1873 0.96594 0.74936 0.0
C926 C 0.19103 0.95349 0.777 0.0
N927 N 0.18135 0.97269 0.76287 0.0
C928 C 0.19521 0.9529 0.7493 0.0
C929 C 0.19739 0.94621 0.76327 0.0
H930 H 0.17851 0.97158 0.78732 0.0
H931 H 0.18591 0.97057 0.73839 0.0
C932 C 0.13705 0.01968 0.72256 0.0
N933 N 0.13542 0.00465 0.72685 0.0
C934 C 0.12945 0.02174 0.70827 0.0
C935 C 0.1181 0.99285 0.70258 0.0
C936 C 0.12598 0.99132 0.71709 0.0
C937 C 0.11984 0.00826 0.69771 0.0
H938 H 0.14442 0.03027 0.73027 0.0
H939 H 0.12462 0.97935 0.72038 0.0
O940 O 0.17257 0.01042 0.78316 0.0
O941 O 0.14895 0.02404 0.76555 0.0
O942 O 0.17166 0.00777 0.74683 0.0
O943 O 0.1456 0.98654 0.76166 0.0
H944 H 0.16653 0.02312 0.81229 0.0
H945 H 0.2004 0.004 0.78476 0.0
H946 H 0.18403 0.02697 0.83703 0.0
H947 H 0.21738 0.00827 0.80998 0.0
H948 H 0.09918 0.02945 0.7611 0.0
H949 H 0.15418 0.05582 0.77724 0.0
H950 H 0.11898 0.01263 0.75752 0.0
H951 H 0.13379 0.07194 0.78038 0.0
H952 H 0.20544 0.08218 0.79472 0.0
H953 H 0.19448 0.07655 0.74365 0.0
H954 H 0.12474 0.9841 0.82754 0.0
H955 H 0.11986 0.03307 0.82442 0.0
H956 H 0.1608 0.98996 0.71824 0.0
H957 H 0.20171 0.01937 0.74683 0.0
H958 H 0.17664 0.98554 0.6952 0.0
H959 H 0.2169 0.01428 0.72334 0.0
H960 H 0.14736 0.95587 0.75108 0.0
H961 H 0.11662 0.98716 0.76737 0.0
H962 H 0.12519 0.93175 0.7475 0.0
H963 H 0.09496 0.96254 0.76337 0.0
H964 H 0.19224 0.94946 0.78831 0.0
H965 H 0.19938 0.94802 0.73814 0.0
H966 H 0.1311 0.03399 0.70562 0.0
H967 H 0.11099 0.98193 0.69508 0.0
Li968 Li 0.29677 0.93724 0.01777 0.0
Li969 Li 0.31251 0.92124 0.03068 0.0
Li970 Li 0.32343 0.94603 0.02238 0.0
Li971 Li 0.31428 0.92181 0.00269 0.0
C972 C 0.31575 0.95488 0.05174 0.0
N973 N 0.33099 0.97899 0.07699 0.0
C974 C 0.32324 0.95064 0.06474 0.0
C975 C 0.31573 0.97137 0.05175 0.0
C976 C 0.33088 0.963 0.07739 0.0
C977 C 0.32365 0.98339 0.06454 0.0
C978 C 0.28428 0.89991 0.01201 0.0
C979 C 0.2749 0.87055 0.00524 0.0
N980 N 0.26075 0.8723 0.00979 0.0
C981 C 0.26964 0.90145 0.01654 0.0
C982 C 0.28693 0.88437 0.00622 0.0
C983 C 0.2579 0.88733 0.01535 0.0
C984 C 0.27194 0.94468 0.00212 0.0
N985 N 0.27907 0.94474 0.01665 0.0
C986 C 0.26294 0.9605 0.03035 0.0
C987 C 0.27482 0.95224 0.03063 0.0
C988 C 0.25554 0.961 0.01551 0.0
C989 C 0.25993 0.9528 0.00126 0.0
H990 H 0.27597 0.93884 0.99127 0.0
H991 H 0.28098 0.95217 0.04192 0.0
C992 C 0.32628 0.90634 0.0526 0.0
N993 N 0.31267 0.90776 0.04555 0.0
C994 C 0.32621 0.8967 0.06429 0.0
C995 C 0.29815 0.89037 0.06117 0.0
C996 C 0.29878 0.90009 0.04957 0.0
C997 C 0.31198 0.88889 0.06877 0.0
H998 H 0.33714 0.91315 0.04958 0.0
H999 H 0.2882 0.90201 0.04422 0.0
C1000 C 0.3161 0.95224 0.99037 0.0
N1001 N 0.32567 0.96849 0.96582 0.0
C1002 C 0.32845 0.94858 0.98191 0.0
C1003 C 0.30867 0.96419 0.98641 0.0
C1004 C 0.33303 0.95686 0.96944 0.0
C1005 C 0.31374 0.97235 0.97403 0.0
C1006 C 0.341 0.91528 0.01783 0.0
C1007 C 0.35695 0.92111 0.01778 0.0
C1008 C 0.33487 0.89841 0.01593 0.0
C1009 C 0.36653 0.90991 0.01584 0.0
C1010 C 0.34484 0.88761 0.01406 0.0
N1011 N 0.36033 0.89353 0.01405 0.0
C1012 C 0.35047 0.96388 0.03788 0.0
C1013 C 0.33852 0.97818 0.02094 0.0
C1014 C 0.36369 0.9763 0.04057 0.0
N1015 N 0.33863 0.96476 0.02764 0.0
C1016 C 0.35176 0.99065 0.0228 0.0
C1017 C 0.36466 0.98922 0.03209 0.0
H1018 H 0.34996 0.95303 0.04313 0.0
H1019 H 0.32859 0.97874 0.01342 0.0
C1020 C 0.30139 0.90206 0.97471 0.0
N1021 N 0.31528 0.90842 0.98332 0.0
C1022 C 0.30018 0.88994 0.96116 0.0
C1023 C 0.32773 0.89156 0.96543 0.0
C1024 C 0.32843 0.90383 0.97878 0.0
C1025 C 0.31343 0.88441 0.95666 0.0
H1026 H 0.2912 0.9061 0.9787 0.0
H1027 H 0.33939 0.90945 0.98561 0.0
O1028 O 0.30841 0.94295 0.03911 0.0
O1029 O 0.29581 0.91364 0.01294 0.0
O1030 O 0.31083 0.94381 0.0021 0.0
O1031 O 0.33154 0.92615 0.01966 0.0
H1032 H 0.32318 0.93796 0.0651 0.0
H1033 H 0.30992 0.97486 0.04181 0.0
H1034 H 0.33675 0.95987 0.0875 0.0
H1035 H 0.32397 0.99623 0.06457 0.0
H1036 H 0.27678 0.85843 0.00081 0.0
H1037 H 0.26738 0.91339 0.02101 0.0
H1038 H 0.29811 0.88297 0.0024 0.0
H1039 H 0.24652 0.88833 0.01885 0.0
H1040 H 0.25966 0.96654 0.04157 0.0
H1041 H 0.25449 0.95311 0.98964 0.0
H1042 H 0.33704 0.89606 0.07033 0.0
H1043 H 0.28702 0.88462 0.06464 0.0
H1044 H 0.3344 0.93945 0.9849 0.0
H1045 H 0.29914 0.96719 0.99292 0.0
H1046 H 0.34247 0.95406 0.96267 0.0
H1047 H 0.30815 0.9817 0.97091 0.0
H1048 H 0.36186 0.93415 0.01918 0.0
H1049 H 0.32257 0.89374 0.01597 0.0
H1050 H 0.3789 0.91423 0.01576 0.0
H1051 H 0.34025 0.87452 0.01262 0.0
H1052 H 0.37367 0.97481 0.04758 0.0
H1053 H 0.35239 1.00046 0.01602 0.0
H1054 H 0.28902 0.8847 0.95447 0.0
H1055 H 0.3382 0.88776 0.96193 0.0
Li1056 Li 0.28037 0.39393 0.033 0.0
Li1057 Li 0.29143 0.3741 0.04515 0.0
Li1058 Li 0.30949 0.39664 0.03393 0.0
Li1059 Li 0.29084 0.3716 0.01561 0.0
C1060 C 0.29524 0.40919 0.0656 0.0
N1061 N 0.29385 0.4311 0.09336 0.0
C1062 C 0.28754 0.40368 0.07831 0.0
C1063 C 0.30226 0.4258 0.067 0.0
C1064 C 0.28699 0.41496 0.09226 0.0
C1065 C 0.30139 0.4367 0.08113 0.0
C1066 C 0.26056 0.35763 0.02945 0.0
C1067 C 0.24785 0.32895 0.02473 0.0
N1068 N 0.23486 0.33305 0.03045 0.0
C1069 C 0.24705 0.36159 0.03518 0.0
C1070 C 0.26096 0.34121 0.02406 0.0
C1071 C 0.23419 0.34898 0.03563 0.0
C1072 C 0.25432 0.40255 0.01965 0.0
N1073 N 0.26384 0.40545 0.03338 0.0
C1074 C 0.24862 0.42295 0.04685 0.0
C1075 C 0.26116 0.41536 0.04689 0.0
C1076 C 0.23862 0.42019 0.03283 0.0
C1077 C 0.24158 0.4098 0.0191 0.0
H1078 H 0.2566 0.39448 0.00912 0.0
H1079 H 0.26859 0.4173 0.05778 0.0
C1080 C 0.30309 0.36046 0.06993 0.0
N1081 N 0.28984 0.36196 0.06221 0.0
C1082 C 0.30248 0.35258 0.08311 0.0
C1083 C 0.27458 0.34784 0.08013 0.0
C1084 C 0.27574 0.35583 0.06703 0.0
C1085 C 0.28808 0.34634 0.08849 0.0
H1086 H 0.31417 0.36569 0.06605 0.0
H1087 H 0.26538 0.35765 0.06114 0.0
C1088 C 0.29353 0.40589 0.00491 0.0
N1089 N 0.29174 0.42691 0.98379 0.0
C1090 C 0.29395 0.40048 0.98846 0.0
C1091 C 0.29226 0.42197 0.01068 0.0
C1092 C 0.29304 0.41131 0.97796 0.0
C1093 C 0.29132 0.4324 0.99978 0.0
C1094 C 0.31705 0.36088 0.03169 0.0
C1095 C 0.33315 0.365 0.03182 0.0
C1096 C 0.30948 0.3447 0.03179 0.0
C1097 C 0.34146 0.35276 0.032 0.0
C1098 C 0.31821 0.33281 0.03202 0.0
N1099 N 0.33388 0.33705 0.0321 0.0
C1100 C 0.34004 0.41339 0.04867 0.0
C1101 C 0.33414 0.4184 0.02275 0.0
C1102 C 0.35508 0.42312 0.04935 0.0
N1103 N 0.32992 0.41115 0.03546 0.0
C1104 C 0.34902 0.42819 0.02291 0.0
C1105 C 0.35985 0.43059 0.03627 0.0
H1106 H 0.33652 0.40739 0.0586 0.0
H1107 H 0.32602 0.41643 0.01231 0.0
C1108 C 0.27628 0.35527 0.98444 0.0
N1109 N 0.28882 0.35729 0.99508 0.0
C1110 C 0.27588 0.34649 0.96874 0.0
C1111 C 0.30075 0.34106 0.97571 0.0
C1112 C 0.3008 0.35017 0.99106 0.0
C1113 C 0.28848 0.33962 0.96403 0.0
H1114 H 0.26689 0.3611 0.98791 0.0
H1115 H 0.31072 0.35201 0.99957 0.0
O1116 O 0.2961 0.39833 0.05195 0.0
O1117 O 0.27325 0.36982 0.02896 0.0
O1118 O 0.29444 0.39548 0.01531 0.0
O1119 O 0.30876 0.37266 0.03119 0.0
H1120 H 0.28203 0.39087 0.07741 0.0
H1121 H 0.30827 0.43021 0.05725 0.0
H1122 H 0.28109 0.41088 0.10219 0.0
H1123 H 0.30672 0.44961 0.08238 0.0
H1124 H 0.248 0.31617 0.02066 0.0
H1125 H 0.24656 0.37427 0.03936 0.0
H1126 H 0.27125 0.33797 0.01938 0.0
H1127 H 0.22368 0.35185 0.0401 0.0
H1128 H 0.24664 0.4307 0.05776 0.0
H1129 H 0.23424 0.40745 0.008 0.0
H1130 H 0.31317 0.3516 0.08918 0.0
H1131 H 0.26326 0.34353 0.08408 0.0
H1132 H 0.29508 0.3881 0.98386 0.0
H1133 H 0.29198 0.42629 0.02342 0.0
H1134 H 0.29339 0.40732 0.96519 0.0
H1135 H 0.29028 0.44488 0.00403 0.0
H1136 H 0.33913 0.3775 0.03166 0.0
H1137 H 0.29701 0.34137 0.03172 0.0
H1138 H 0.35394 0.35573 0.03204 0.0
H1139 H 0.31252 0.32022 0.03211 0.0
H1140 H 0.36301 0.42443 0.05984 0.0
H1141 H 0.35201 0.43383 0.01262 0.0
H1142 H 0.26618 0.34584 0.96023 0.0
H1143 H 0.31053 0.33563 0.97293 0.0
Li1144 Li 0.77731 0.15823 0.03213 0.0
Li1145 Li 0.79114 0.13918 0.01667 0.0
Li1146 Li 0.77839 0.15799 0.00392 0.0
Li1147 Li 0.76394 0.13415 0.01257 0.0
C1148 C 0.80751 0.17726 0.02275 0.0
N1149 N 0.83101 0.20519 0.02743 0.0
C1150 C 0.82293 0.17605 0.02466 0.0
C1151 C 0.80403 0.19265 0.02327 0.0
C1152 C 0.83465 0.19032 0.02703 0.0
C1153 C 0.81607 0.20662 0.02559 0.0
C1154 C 0.7745 0.12461 0.04333 0.0
C1155 C 0.77285 0.09763 0.0495 0.0
N1156 N 0.77025 0.10342 0.06488 0.0
C1157 C 0.7719 0.13033 0.05921 0.0
C1158 C 0.77518 0.10819 0.03845 0.0
C1159 C 0.7698 0.11943 0.06993 0.0
C1160 C 0.76326 0.17302 0.0572 0.0
N1161 N 0.77703 0.17203 0.05126 0.0
C1162 C 0.79077 0.19311 0.07226 0.0
C1163 C 0.79066 0.18149 0.05857 0.0
C1164 C 0.77671 0.19463 0.07854 0.0
C1165 C 0.76282 0.1844 0.07096 0.0
H1166 H 0.75267 0.16499 0.05124 0.0
H1167 H 0.80143 0.18006 0.05376 0.0
C1168 C 0.81295 0.12492 0.00249 0.0
N1169 N 0.80728 0.12908 0.0168 0.0
C1170 C 0.82507 0.11694 0.00171 0.0
C1171 C 0.82495 0.11745 0.0304 0.0
C1172 C 0.81285 0.12552 0.03063 0.0
C1173 C 0.83127 0.11334 0.01583 0.0
H1174 H 0.80809 0.12792 0.99175 0.0
H1175 H 0.80797 0.12908 0.04178 0.0
C1176 C 0.74945 0.16547 0.01827 0.0
N1177 N 0.72766 0.18439 0.02284 0.0
C1178 C 0.73373 0.15795 0.01727 0.0
C1179 C 0.75409 0.18258 0.02162 0.0
C1180 C 0.72289 0.16774 0.01956 0.0
C1181 C 0.74291 0.19194 0.02395 0.0
C1182 C 0.77347 0.12222 0.98342 0.0
C1183 C 0.76867 0.12526 0.96851 0.0
C1184 C 0.77268 0.10607 0.98548 0.0
C1185 C 0.76292 0.11202 0.95594 0.0
C1186 C 0.76683 0.09317 0.97261 0.0
N1187 N 0.7621 0.09639 0.95823 0.0
C1188 C 0.79126 0.17971 0.98448 0.0
C1189 C 0.76384 0.17074 0.98208 0.0
C1190 C 0.79042 0.18937 0.97297 0.0
N1191 N 0.77806 0.1708 0.98877 0.0
C1192 C 0.76245 0.18008 0.97043 0.0
C1193 C 0.77588 0.18941 0.96579 0.0
H1194 H 0.80239 0.17906 0.98977 0.0
H1195 H 0.75363 0.16315 0.98556 0.0
C1196 C 0.74048 0.10768 0.0162 0.0
N1197 N 0.74617 0.1184 0.00667 0.0
C1198 C 0.72627 0.09696 0.01172 0.0
C1199 C 0.72414 0.10862 0.98773 0.0
C1200 C 0.73846 0.11904 0.99264 0.0
C1201 C 0.71793 0.09773 0.99754 0.0
H1202 H 0.74647 0.10805 0.02764 0.0
H1203 H 0.74307 0.12831 0.98579 0.0
O1204 O 0.79595 0.16339 0.02059 0.0
O1205 O 0.77637 0.13512 0.03269 0.0
O1206 O 0.76019 0.15604 0.01587 0.0
O1207 O 0.77902 0.13503 0.99588 0.0
H1208 H 0.8258 0.16421 0.02436 0.0
H1209 H 0.79219 0.1938 0.02179 0.0
H1210 H 0.84664 0.18959 0.02856 0.0
H1211 H 0.81354 0.21861 0.02594 0.0
H1212 H 0.77313 0.08483 0.04585 0.0
H1213 H 0.77149 0.14303 0.06323 0.0
H1214 H 0.77721 0.10362 0.02621 0.0
H1215 H 0.76776 0.12367 0.08226 0.0
H1216 H 0.8017 0.2008 0.07787 0.0
H1217 H 0.75181 0.18499 0.07576 0.0
H1218 H 0.82967 0.11376 0.99027 0.0
H1219 H 0.82963 0.11494 0.04151 0.0
H1220 H 0.72992 0.14471 0.01476 0.0
H1221 H 0.76618 0.18857 0.02249 0.0
H1222 H 0.71068 0.1621 0.01876 0.0
H1223 H 0.74635 0.20521 0.02661 0.0
H1224 H 0.7693 0.13771 0.96672 0.0
H1225 H 0.77644 0.10355 0.99693 0.0
H1226 H 0.75908 0.11418 0.94435 0.0
H1227 H 0.76604 0.0806 0.97405 0.0
H1228 H 0.80098 0.19615 0.96922 0.0
H1229 H 0.75112 0.17976 0.96485 0.0
H1230 H 0.72126 0.08916 0.01987 0.0
H1231 H 0.71754 0.10984 0.9771 0.0
Li1232 Li 0.19445 0.55397 0.24798 0.0
Li1233 Li 0.17289 0.53835 0.25915 0.0
Li1234 Li 0.19115 0.52485 0.24361 0.0
Li1235 Li 0.17206 0.53666 0.23088 0.0
C1236 C 0.20569 0.54326 0.27715 0.0
N1237 N 0.22744 0.55051 0.30325 0.0
C1238 C 0.20159 0.54861 0.29255 0.0
C1239 C 0.22082 0.54157 0.275 0.0
C1240 C 0.21276 0.55222 0.30559 0.0
C1241 C 0.23166 0.54532 0.28836 0.0
C1242 C 0.1632 0.56684 0.24967 0.0
C1243 C 0.13752 0.57201 0.24879 0.0
N1244 N 0.1436 0.5882 0.25471 0.0
C1245 C 0.16922 0.58352 0.2557 0.0
C1246 C 0.14725 0.56102 0.24609 0.0
C1247 C 0.15911 0.59413 0.25815 0.0
C1248 C 0.21222 0.57985 0.2371 0.0
N1249 N 0.20934 0.5728 0.25018 0.0
C1250 C 0.22893 0.59307 0.26655 0.0
C1251 C 0.21728 0.57912 0.26472 0.0
C1252 C 0.23193 0.60079 0.25339 0.0
C1253 C 0.22368 0.59408 0.23843 0.0
H1254 H 0.20542 0.57454 0.22577 0.0
H1255 H 0.21431 0.57371 0.27503 0.0
C1256 C 0.15834 0.52198 0.28073 0.0
N1257 N 0.16086 0.53671 0.27595 0.0
C1258 C 0.14952 0.51946 0.29349 0.0
C1259 C 0.14615 0.54743 0.29606 0.0
C1260 C 0.15507 0.5494 0.28327 0.0
C1261 C 0.14346 0.53235 0.30132 0.0
H1262 H 0.16342 0.51229 0.27475 0.0
H1263 H 0.1577 0.56112 0.27949 0.0
C1264 C 0.20513 0.54001 0.21726 0.0
N1265 N 0.22781 0.54225 0.19609 0.0
C1266 C 0.20106 0.53799 0.2008 0.0
C1267 C 0.22069 0.54314 0.22299 0.0
C1268 C 0.21271 0.53914 0.19028 0.0
C1269 C 0.232 0.54427 0.21209 0.0
C1270 C 0.15597 0.50588 0.24084 0.0
C1271 C 0.15778 0.48969 0.23775 0.0
C1272 C 0.14121 0.509 0.24232 0.0
C1273 C 0.14474 0.47683 0.23614 0.0
C1274 C 0.12844 0.49579 0.24065 0.0
N1275 N 0.13046 0.48011 0.23762 0.0
C1276 C 0.20375 0.50157 0.2539 0.0
C1277 C 0.20397 0.5015 0.22583 0.0
C1278 C 0.21021 0.48795 0.25223 0.0
N1279 N 0.20079 0.5079 0.24079 0.0
C1280 C 0.21061 0.48795 0.22361 0.0
C1281 C 0.21348 0.481 0.23691 0.0
H1282 H 0.20078 0.50693 0.26553 0.0
H1283 H 0.20103 0.50667 0.21563 0.0
C1284 C 0.15604 0.54598 0.20695 0.0
N1285 N 0.15995 0.53322 0.21253 0.0
C1286 C 0.14695 0.54298 0.19256 0.0
C1287 C 0.14645 0.51388 0.19014 0.0
C1288 C 0.15569 0.51748 0.20446 0.0
C1289 C 0.14205 0.52675 0.18419 0.0
H1290 H 0.16002 0.55837 0.21365 0.0
H1291 H 0.15958 0.5078 0.2091 0.0
O1292 O 0.19494 0.53989 0.26425 0.0
O1293 O 0.17301 0.55639 0.24709 0.0
O1294 O 0.19382 0.53888 0.22763 0.0
O1295 O 0.1687 0.51852 0.24251 0.0
H1296 H 0.18993 0.55005 0.29439 0.0
H1297 H 0.22416 0.53748 0.26315 0.0
H1298 H 0.20977 0.5564 0.31758 0.0
H1299 H 0.24343 0.54411 0.2869 0.0
H1300 H 0.12514 0.56768 0.24613 0.0
H1301 H 0.18157 0.5882 0.25842 0.0
H1302 H 0.14245 0.5482 0.24121 0.0
H1303 H 0.1636 0.60708 0.2628 0.0
H1304 H 0.23505 0.59825 0.27828 0.0
H1305 H 0.22562 0.60013 0.22821 0.0
H1306 H 0.14773 0.50776 0.29743 0.0
H1307 H 0.14196 0.55776 0.3022 0.0
H1308 H 0.18904 0.53554 0.19621 0.0
H1309 H 0.22398 0.54475 0.23572 0.0
H1310 H 0.20974 0.53758 0.1775 0.0
H1311 H 0.24411 0.54675 0.21633 0.0
H1312 H 0.16916 0.48711 0.2366 0.0
H1313 H 0.13963 0.52144 0.24487 0.0
H1314 H 0.14597 0.46423 0.23374 0.0
H1315 H 0.11694 0.498 0.2418 0.0
H1316 H 0.21248 0.48277 0.26269 0.0
H1317 H 0.21303 0.48266 0.2117 0.0
H1318 H 0.14357 0.5531 0.18814 0.0
H1319 H 0.1429 0.5013 0.18374 0.0
Li1320 Li 0.78093 0.89427 0.53255 0.0
Li1321 Li 0.79188 0.87397 0.54411 0.0
Li1322 Li 0.80989 0.89666 0.5332 0.0
Li1323 Li 0.79117 0.87206 0.51458 0.0
C1324 C 0.79525 0.90915 0.56479 0.0
N1325 N 0.79282 0.93131 0.59201 0.0
C1326 C 0.78814 0.90362 0.57779 0.0
C1327 C 0.8012 0.92593 0.56564 0.0
C1328 C 0.787 0.91502 0.59144 0.0
C1329 C 0.79983 0.93695 0.57951 0.0
C1330 C 0.76084 0.85797 0.52789 0.0
C1331 C 0.74805 0.8293 0.52245 0.0
N1332 N 0.73487 0.83335 0.52772 0.0
C1333 C 0.74714 0.86188 0.53313 0.0
C1334 C 0.76129 0.84159 0.52239 0.0
C1335 C 0.73414 0.84924 0.53299 0.0
C1336 C 0.75702 0.90597 0.51893 0.0
N1337 N 0.76448 0.90588 0.53327 0.0
C1338 C 0.74701 0.92009 0.54732 0.0
C1339 C 0.75967 0.91265 0.54735 0.0
C1340 C 0.73908 0.92037 0.53266 0.0
C1341 C 0.74431 0.91322 0.51833 0.0
H1342 H 0.76087 0.90024 0.50791 0.0
H1343 H 0.76539 0.91203 0.55865 0.0
C1344 C 0.80234 0.85868 0.56881 0.0
N1345 N 0.78972 0.86153 0.56099 0.0
C1346 C 0.80072 0.85106 0.58221 0.0
C1347 C 0.77316 0.84928 0.57908 0.0
C1348 C 0.77531 0.85686 0.56579 0.0
C1349 C 0.78599 0.8466 0.58767 0.0
H1350 H 0.81373 0.86283 0.56502 0.0
H1351 H 0.76552 0.85974 0.55982 0.0
C1352 C 0.79526 0.90695 0.50471 0.0
N1353 N 0.79578 0.92886 0.48409 0.0
C1354 C 0.79616 0.90181 0.48829 0.0
C1355 C 0.79469 0.92319 0.5107 0.0
C1356 C 0.79643 0.91309 0.47805 0.0
C1357 C 0.79491 0.93409 0.50005 0.0
C1358 C 0.81748 0.86102 0.53089 0.0
C1359 C 0.83362 0.86554 0.53257 0.0
C1360 C 0.80998 0.84466 0.53019 0.0
C1361 C 0.84206 0.85352 0.53352 0.0
C1362 C 0.81882 0.83302 0.53126 0.0
N1363 N 0.83454 0.83764 0.53286 0.0
C1364 C 0.8392 0.91596 0.54903 0.0
C1365 C 0.83566 0.91594 0.5212 0.0
C1366 C 0.85416 0.92593 0.54995 0.0
N1367 N 0.83028 0.91116 0.53478 0.0
C1368 C 0.85047 0.92597 0.5216 0.0
C1369 C 0.86003 0.93112 0.5361 0.0
H1370 H 0.83475 0.91196 0.55968 0.0
H1371 H 0.82851 0.9118 0.50995 0.0
C1372 C 0.77577 0.85544 0.48385 0.0
N1373 N 0.78892 0.85819 0.49382 0.0
C1374 C 0.77493 0.84671 0.46808 0.0
C1375 C 0.80093 0.8433 0.47341 0.0
C1376 C 0.80128 0.8521 0.48898 0.0
C1377 C 0.7878 0.84084 0.46256 0.0
H1378 H 0.76613 0.86052 0.48797 0.0
H1379 H 0.81164 0.85452 0.49705 0.0
O1380 O 0.7967 0.89816 0.55145 0.0
O1381 O 0.77369 0.87019 0.52808 0.0
O1382 O 0.79478 0.89602 0.51482 0.0
O1383 O 0.80911 0.87262 0.52984 0.0
H1384 H 0.7835 0.8907 0.57736 0.0
H1385 H 0.80682 0.93037 0.5557 0.0
H1386 H 0.78149 0.91091 0.60157 0.0
H1387 H 0.80436 0.94998 0.58035 0.0
H1388 H 0.74824 0.81655 0.51829 0.0
H1389 H 0.7466 0.87452 0.53739 0.0
H1390 H 0.77173 0.8384 0.51808 0.0
H1391 H 0.72348 0.85206 0.53709 0.0
H1392 H 0.74325 0.92521 0.55866 0.0
H1393 H 0.73868 0.9133 0.50674 0.0
H1394 H 0.81094 0.84941 0.58866 0.0
H1395 H 0.76161 0.84598 0.58287 0.0
H1396 H 0.79667 0.88926 0.48352 0.0
H1397 H 0.79396 0.92729 0.5234 0.0
H1398 H 0.79713 0.90931 0.46531 0.0
H1399 H 0.79439 0.9467 0.50447 0.0
H1400 H 0.83956 0.87819 0.53308 0.0
H1401 H 0.79748 0.84104 0.52897 0.0
H1402 H 0.85458 0.85681 0.53478 0.0
H1403 H 0.81319 0.8203 0.53081 0.0
H1404 H 0.86099 0.92965 0.56143 0.0
H1405 H 0.85449 0.92937 0.51054 0.0
H1406 H 0.76462 0.8452 0.4601 0.0
H1407 H 0.81103 0.8388 0.46977 0.0
Li1408 Li 0.94184 0.07317 0.28856 0.0
Li1409 Li 0.91808 0.0529 0.2702 0.0
Li1410 Li 0.94065 0.07179 0.25698 0.0
Li1411 Li 0.92063 0.08621 0.27291 0.0
C1412 C 0.95205 0.04514 0.26956 0.0
N1413 N 0.97448 0.02695 0.26851 0.0
C1414 C 0.94809 0.02857 0.27068 0.0
C1415 C 0.96737 0.05249 0.2678 0.0
C1416 C 0.95961 0.01958 0.27017 0.0
C1417 C 0.97855 0.04307 0.2673 0.0
C1418 C 0.90916 0.07028 0.30199 0.0
C1419 C 0.88537 0.07372 0.31323 0.0
N1420 N 0.89061 0.07003 0.32719 0.0
C1421 C 0.9143 0.06648 0.31641 0.0
C1422 C 0.89459 0.07392 0.30034 0.0
C1423 C 0.90475 0.06644 0.32903 0.0
C1424 C 0.96058 0.08673 0.32126 0.0
N1425 N 0.95505 0.07318 0.30951 0.0
C1426 C 0.96582 0.05678 0.32605 0.0
C1427 C 0.95763 0.05838 0.31189 0.0
C1428 C 0.97155 0.07044 0.33852 0.0
C1429 C 0.96874 0.08563 0.33575 0.0
H1430 H 0.95853 0.09849 0.31957 0.0
H1431 H 0.95301 0.04753 0.30291 0.0
C1432 C 0.90291 0.01811 0.25454 0.0
N1433 N 0.90471 0.02935 0.26854 0.0
C1434 C 0.89493 1.00153 0.25358 0.0
C1435 C 0.89048 0.00793 0.28137 0.0
C1436 C 0.89859 0.02436 0.28183 0.0
C1437 C 0.8885 0.99595 0.26712 0.0
H1438 H 0.90788 0.0219 0.24402 0.0
H1439 H 0.90021 0.03307 0.29304 0.0
C1440 C 0.95649 0.10443 0.27421 0.0
N1441 N 0.98068 0.13026 0.27212 0.0
C1442 C 0.95356 0.11826 0.26882 0.0
C1443 C 0.97168 0.10373 0.2786 0.0
C1444 C 0.96596 0.1312 0.26786 0.0
C1445 C 0.98377 0.1169 0.27741 0.0
C1446 C 0.90778 0.06734 0.24009 0.0
C1447 C 0.91386 0.07472 0.22757 0.0
C1448 C 0.89206 0.05985 0.23903 0.0
C1449 C 0.90405 0.07447 0.21411 0.0
C1450 C 0.88263 0.05991 0.22538 0.0
N1451 N 0.88877 0.06714 0.2133 0.0
C1452 C 0.95298 0.05627 0.22769 0.0
C1453 C 0.96074 0.08508 0.23193 0.0
C1454 C 0.96051 0.05483 0.21331 0.0
N1455 N 0.95302 0.07123 0.23681 0.0
C1456 C 0.96847 0.08418 0.21761 0.0
C1457 C 0.96839 0.06887 0.20776 0.0
H1458 H 0.94695 0.04526 0.23148 0.0
H1459 H 0.96076 0.097 0.23899 0.0
C1460 C 0.90617 0.11523 0.28721 0.0
N1461 N 0.90851 0.10553 0.27325 0.0
C1462 C 0.89819 0.12823 0.28722 0.0
C1463 C 0.89501 0.12164 0.25855 0.0
C1464 C 0.90301 0.1088 0.25907 0.0
C1465 C 0.89225 0.13184 0.27274 0.0
H1466 H 0.91046 0.11294 0.29857 0.0
H1467 H 0.90489 0.1015 0.24789 0.0
O1468 O 0.94097 0.05415 0.27023 0.0
O1469 O 0.91856 0.07102 0.28974 0.0
O1470 O 0.94447 0.09183 0.27555 0.0
O1471 O 0.9172 0.06733 0.25328 0.0
H1472 H 0.93626 0.02275 0.27207 0.0
H1473 H 0.97056 0.0653 0.2668 0.0
H1474 H 0.95674 0.00674 0.27111 0.0
H1475 H 0.99047 0.04857 0.26595 0.0
H1476 H 0.87408 0.07654 0.31216 0.0
H1477 H 0.92555 0.06365 0.31787 0.0
H1478 H 0.89052 0.07697 0.28925 0.0
H1479 H 0.90859 0.06358 0.34028 0.0
H1480 H 0.9672 0.04467 0.32734 0.0
H1481 H 0.9729 0.09669 0.34467 0.0
H1482 H 0.89377 0.99318 0.24217 0.0
H1483 H 0.88614 0.0046 0.29233 0.0
H1484 H 0.94183 0.11899 0.26549 0.0
H1485 H 0.97409 0.09317 0.28299 0.0
H1486 H 0.96388 0.142 0.26374 0.0
H1487 H 0.9956 0.11655 0.28075 0.0
H1488 H 0.92599 0.08064 0.22828 0.0
H1489 H 0.88723 0.05408 0.24866 0.0
H1490 H 0.90859 0.08012 0.20431 0.0
H1491 H 0.87042 0.05418 0.22438 0.0
H1492 H 0.96018 0.04265 0.20666 0.0
H1493 H 0.97414 0.09551 0.21411 0.0
H1494 H 0.89656 0.13521 0.29869 0.0
H1495 H 0.89126 0.1236 0.24687 0.0
Li1496 Li 0.2755 0.65623 0.53373 0.0
Li1497 Li 0.29029 0.63797 0.51833 0.0
Li1498 Li 0.27697 0.65615 0.50569 0.0
Li1499 Li 0.26289 0.63191 0.51384 0.0
C1500 C 0.30609 0.67569 0.52328 0.0
N1501 N 0.32997 0.7029 0.52486 0.0
C1502 C 0.32143 0.674 0.52361 0.0
C1503 C 0.3029 0.69122 0.52385 0.0
C1504 C 0.33334 0.68791 0.52445 0.0
C1505 C 0.31512 0.70481 0.52454 0.0
C1506 C 0.27338 0.62261 0.54465 0.0
C1507 C 0.27133 0.59554 0.55068 0.0
N1508 N 0.26902 0.60138 0.56614 0.0
C1509 C 0.2711 0.62839 0.56061 0.0
C1510 C 0.27371 0.60611 0.53966 0.0
C1511 C 0.26892 0.61747 0.5713 0.0
C1512 C 0.26105 0.67005 0.5593 0.0
N1513 N 0.27476 0.66965 0.55298 0.0
C1514 C 0.28844 0.69059 0.57412 0.0
C1515 C 0.28833 0.67943 0.5601 0.0
C1516 C 0.27446 0.69144 0.58089 0.0
C1517 C 0.26061 0.68101 0.57341 0.0
H1518 H 0.2505 0.6619 0.55335 0.0
H1519 H 0.29903 0.67861 0.55482 0.0
C1520 C 0.31301 0.62549 0.50406 0.0
N1521 N 0.30683 0.62843 0.51829 0.0
C1522 C 0.32538 0.61786 0.50301 0.0
C1523 C 0.3245 0.61632 0.53127 0.0
C1524 C 0.31215 0.62404 0.53177 0.0
C1525 C 0.33128 0.61336 0.51677 0.0
H1526 H 0.30832 0.62913 0.49359 0.0
H1527 H 0.30686 0.62664 0.54287 0.0
C1528 C 0.2481 0.66343 0.51965 0.0
N1529 N 0.22703 0.68322 0.52418 0.0
C1530 C 0.23225 0.6564 0.5182 0.0
C1531 C 0.25324 0.68049 0.5234 0.0
C1532 C 0.22178 0.66663 0.52051 0.0
C1533 C 0.24242 0.69029 0.52569 0.0
C1534 C 0.27372 0.62114 0.48459 0.0
C1535 C 0.26956 0.62468 0.46969 0.0
C1536 C 0.2733 0.6049 0.48608 0.0
C1537 C 0.2648 0.61183 0.45655 0.0
C1538 C 0.26845 0.59239 0.47264 0.0
N1539 N 0.26433 0.59608 0.45828 0.0
C1540 C 0.28958 0.67682 0.48545 0.0
C1541 C 0.26212 0.66816 0.48342 0.0
C1542 C 0.2887 0.68606 0.47363 0.0
N1543 N 0.27637 0.66843 0.49021 0.0
C1544 C 0.2607 0.67707 0.4714 0.0
C1545 C 0.27413 0.68617 0.46658 0.0
H1546 H 0.30071 0.67615 0.49068 0.0
H1547 H 0.25192 0.6608 0.48715 0.0
C1548 C 0.2393 0.60504 0.51681 0.0
N1549 N 0.24543 0.61571 0.50739 0.0
C1550 C 0.22512 0.59434 0.51189 0.0
C1551 C 0.22411 0.60572 0.48761 0.0
C1552 C 0.23829 0.6162 0.49302 0.0
C1553 C 0.21726 0.59504 0.49737 0.0
H1554 H 0.24485 0.60554 0.52851 0.0
H1555 H 0.24319 0.62545 0.48626 0.0
O1556 O 0.29435 0.66219 0.52278 0.0
O1557 O 0.27529 0.63313 0.53403 0.0
O1558 O 0.25846 0.65357 0.51726 0.0
O1559 O 0.27826 0.63357 0.4976 0.0
H1560 H 0.32411 0.66208 0.52334 0.0
H1561 H 0.29115 0.69278 0.52363 0.0
H1562 H 0.34527 0.6868 0.52478 0.0
H1563 H 0.3128 0.71688 0.52485 0.0
H1564 H 0.27133 0.58267 0.54695 0.0
H1565 H 0.271 0.64116 0.56473 0.0
H1566 H 0.27552 0.6015 0.52734 0.0
H1567 H 0.26712 0.62177 0.58369 0.0
H1568 H 0.29931 0.6986 0.5795 0.0
H1569 H 0.24966 0.68124 0.57846 0.0
H1570 H 0.33031 0.61558 0.49162 0.0
H1571 H 0.32894 0.6131 0.54211 0.0
H1572 H 0.22808 0.6432 0.51529 0.0
H1573 H 0.26543 0.68608 0.52461 0.0
H1574 H 0.20947 0.66137 0.51938 0.0
H1575 H 0.24624 0.70352 0.52865 0.0
H1576 H 0.26993 0.6372 0.46832 0.0
H1577 H 0.27656 0.602 0.49752 0.0
H1578 H 0.26147 0.61437 0.44497 0.0
H1579 H 0.26796 0.57974 0.47363 0.0
H1580 H 0.29925 0.69268 0.46971 0.0
H1581 H 0.24935 0.6768 0.46589 0.0
H1582 H 0.21972 0.58671 0.52 0.0
H1583 H 0.21798 0.60687 0.47665 0.0
Li1584 Li 0.41795 0.55249 0.77018 0.0
Li1585 Li 0.44168 0.57285 0.78853 0.0
Li1586 Li 0.42045 0.58578 0.77283 0.0
Li1587 Li 0.44051 0.57142 0.75696 0.0
C1588 C 0.40903 0.57004 0.80198 0.0
N1589 N 0.39059 0.57011 0.82727 0.0
C1590 C 0.41416 0.56623 0.8164 0.0
C1591 C 0.39454 0.57385 0.80037 0.0
C1592 C 0.40467 0.56635 0.82906 0.0
C1593 C 0.38537 0.5738 0.81331 0.0
C1594 C 0.45199 0.54487 0.76952 0.0
C1595 C 0.47851 0.54293 0.76714 0.0
N1596 N 0.47452 0.52681 0.76837 0.0
C1597 C 0.44812 0.52829 0.77067 0.0
C1598 C 0.46727 0.55228 0.76769 0.0
C1599 C 0.4597 0.51937 0.77011 0.0
C1600 C 0.40228 0.51784 0.75444 0.0
N1601 N 0.40457 0.52895 0.76857 0.0
C1602 C 0.39078 0.50743 0.78156 0.0
C1603 C 0.39891 0.52385 0.782 0.0
C1604 C 0.38828 0.49558 0.76718 0.0
C1605 C 0.39425 0.50127 0.7535 0.0
H1606 H 0.40688 0.52171 0.7438 0.0
H1607 H 0.40092 0.53247 0.7933 0.0
C1608 C 0.46047 0.58651 0.82119 0.0
N1609 N 0.45488 0.57292 0.8095 0.0
C1610 C 0.46863 0.58544 0.83569 0.0
C1611 C 0.4656 0.55656 0.82612 0.0
C1612 C 0.45741 0.55812 0.81194 0.0
C1613 C 0.47138 0.57026 0.83853 0.0
H1614 H 0.45846 0.59827 0.81944 0.0
H1615 H 0.45276 0.54725 0.80299 0.0
C1616 C 0.40777 0.56697 0.73996 0.0
N1617 N 0.38905 0.56699 0.71304 0.0
C1618 C 0.41399 0.57455 0.72761 0.0
C1619 C 0.39207 0.55939 0.73866 0.0
C1620 C 0.40432 0.57441 0.71408 0.0
C1621 C 0.38277 0.55956 0.72495 0.0
C1622 C 0.45628 0.60414 0.77428 0.0
C1623 C 0.45334 0.61797 0.76893 0.0
C1624 C 0.47147 0.60349 0.77876 0.0
C1625 C 0.46572 0.63098 0.76807 0.0
C1626 C 0.48354 0.61672 0.77767 0.0
N1627 N 0.48043 0.63008 0.77241 0.0
C1628 C 0.40688 0.61535 0.7871 0.0
C1629 C 0.40183 0.60767 0.75912 0.0
C1630 C 0.39892 0.62837 0.78722 0.0
N1631 N 0.40828 0.60504 0.77317 0.0
C1632 C 0.3938 0.62051 0.75872 0.0
C1633 C 0.39202 0.63136 0.77289 0.0
H1634 H 0.41193 0.61356 0.79834 0.0
H1635 H 0.40293 0.59986 0.74795 0.0
C1636 C 0.45168 0.55605 0.72689 0.0
N1637 N 0.45287 0.57088 0.73678 0.0
C1638 C 0.45913 0.55466 0.71247 0.0
C1639 C 0.46941 0.58375 0.71831 0.0
C1640 C 0.46169 0.58462 0.73264 0.0
C1641 C 0.46816 0.56861 0.70769 0.0
H1642 H 0.44477 0.54513 0.7301 0.0
H1643 H 0.46263 0.59644 0.74031 0.0
O1644 O 0.41839 0.57063 0.78968 0.0
O1645 O 0.44085 0.5538 0.77024 0.0
O1646 O 0.41705 0.56689 0.75323 0.0
O1647 O 0.44427 0.59148 0.7755 0.0
H1648 H 0.42536 0.56327 0.81783 0.0
H1649 H 0.39048 0.57691 0.78929 0.0
H1650 H 0.4085 0.56349 0.84032 0.0
H1651 H 0.37413 0.57676 0.81227 0.0
H1652 H 0.4904 0.54848 0.76573 0.0
H1653 H 0.43631 0.52243 0.77211 0.0
H1654 H 0.47039 0.56509 0.76667 0.0
H1655 H 0.4569 0.50654 0.77106 0.0
H1656 H 0.38682 0.50402 0.79263 0.0
H1657 H 0.39269 0.49303 0.74199 0.0
H1658 H 0.47283 0.59654 0.84457 0.0
H1659 H 0.46694 0.54445 0.82747 0.0
H1660 H 0.42611 0.58056 0.72851 0.0
H1661 H 0.38713 0.55346 0.74815 0.0
H1662 H 0.40896 0.58022 0.70441 0.0
H1663 H 0.37058 0.55377 0.72376 0.0
H1664 H 0.44161 0.61866 0.76553 0.0
H1665 H 0.47389 0.59293 0.78312 0.0
H1666 H 0.46362 0.64178 0.76397 0.0
H1667 H 0.49536 0.6164 0.78107 0.0
H1668 H 0.39805 0.63586 0.79869 0.0
H1669 H 0.38924 0.62196 0.74713 0.0
H1670 H 0.45784 0.54258 0.70515 0.0
H1671 H 0.47602 0.595 0.71543 0.0
Li1672 Li 0.67377 0.03685 0.76038 0.0
Li1673 Li 0.69486 0.05375 0.74999 0.0
Li1674 Li 0.67304 0.03572 0.73201 0.0
Li1675 Li 0.69269 0.02475 0.74464 0.0
C1676 C 0.6635 0.06547 0.74965 0.0
N1677 N 0.64422 0.08726 0.75134 0.0
C1678 C 0.66964 0.08233 0.75429 0.0
C1679 C 0.64757 0.05968 0.7458 0.0
C1680 C 0.6597 0.09315 0.75508 0.0
C1681 C 0.63801 0.0709 0.74676 0.0
C1682 C 0.70727 0.0458 0.77811 0.0
C1683 C 0.73408 0.0529 0.78845 0.0
N1684 N 0.72989 0.05853 0.80324 0.0
C1685 C 0.7032 0.05158 0.7934 0.0
C1686 C 0.7228 0.04636 0.7756 0.0
C1687 C 0.71482 0.058 0.80596 0.0
C1688 C 0.65845 0.02128 0.78263 0.0
N1689 N 0.662 0.03573 0.77736 0.0
C1690 C 0.65002 0.04915 0.79848 0.0
C1691 C 0.65803 0.04954 0.78487 0.0
C1692 C 0.64633 0.03443 0.80431 0.0
C1693 C 0.65046 0.02032 0.79622 0.0
H1694 H 0.66213 0.01066 0.77647 0.0
H1695 H 0.66151 0.06095 0.78062 0.0
C1696 C 0.71168 0.0787 0.73858 0.0
N1697 N 0.70859 0.07362 0.75262 0.0
C1698 C 0.72226 0.09322 0.73861 0.0
C1699 C 0.72591 0.09726 0.76768 0.0
C1700 C 0.71512 0.08263 0.76707 0.0
C1701 C 0.72952 0.10251 0.75328 0.0
H1702 H 0.70585 0.07147 0.72737 0.0
H1703 H 0.71191 0.0786 0.77807 0.0
C1704 C 0.65735 0.0047 0.74205 0.0
N1705 N 0.63158 0.9793 0.73938 0.0
C1706 C 0.65897 0.98845 0.73955 0.0
C1707 C 0.64265 0.00807 0.74323 0.0
C1708 C 0.6458 0.97577 0.73822 0.0
C1709 C 0.62976 0.99505 0.74184 0.0
C1710 C 0.70563 0.03821 0.7182 0.0
C1711 C 0.70069 0.03374 0.70184 0.0
C1712 C 0.7214 0.04163 0.72319 0.0
C1713 C 0.71167 0.03269 0.69067 0.0
C1714 C 0.73202 0.0404 0.71165 0.0
N1715 N 0.72698 0.03601 0.69577 0.0
C1716 C 0.65814 0.04588 0.70779 0.0
C1717 C 0.65511 0.01701 0.70571 0.0
C1718 C 0.64879 0.04351 0.69364 0.0
N1719 N 0.66081 0.03267 0.71353 0.0
C1720 C 0.64557 0.01404 0.69163 0.0
C1721 C 0.64232 0.02741 0.68562 0.0
H1722 H 0.66324 0.05816 0.71425 0.0
H1723 H 0.65802 0.00685 0.71037 0.0
C1724 C 0.70883 0.00388 0.75492 0.0
N1725 N 0.70338 0.00843 0.7416 0.0
C1726 C 0.71636 0.99101 0.75332 0.0
C1727 C 0.71263 0.98803 0.72433 0.0
C1728 C 0.70501 1.00087 0.7265 0.0
C1729 C 0.71818 0.98304 0.73789 0.0
H1730 H 0.70698 0.00999 0.76671 0.0
H1731 H 0.70006 0.00451 0.71619 0.0
O1732 O 0.67313 0.05478 0.74883 0.0
O1733 O 0.69602 0.03918 0.76578 0.0
O1734 O 0.67019 0.01717 0.74326 0.0
O1735 O 0.69502 0.03962 0.72922 0.0
H1736 H 0.68195 0.087 0.75729 0.0
H1737 H 0.64265 0.04672 0.74198 0.0
H1738 H 0.66429 0.10624 0.75866 0.0
H1739 H 0.62566 0.0666 0.74381 0.0
H1740 H 0.74616 0.05347 0.78669 0.0
H1741 H 0.69121 0.05112 0.79557 0.0
H1742 H 0.72609 0.04178 0.76386 0.0
H1743 H 0.71186 0.06254 0.81786 0.0
H1744 H 0.64722 0.06032 0.80468 0.0
H1745 H 0.64771 0.0088 0.80047 0.0
H1746 H 0.72479 0.09715 0.72734 0.0
H1747 H 0.73114 0.10451 0.77918 0.0
H1748 H 0.6703 0.98568 0.73861 0.0
H1749 H 0.64122 0.02056 0.74531 0.0
H1750 H 0.64688 0.96311 0.73626 0.0
H1751 H 0.6183 0.99746 0.74275 0.0
H1752 H 0.68852 0.03117 0.6978 0.0
H1753 H 0.72538 0.04524 0.73581 0.0
H1754 H 0.70803 0.02926 0.67796 0.0
H1755 H 0.74427 0.04299 0.71531 0.0
H1756 H 0.64637 0.05404 0.68918 0.0
H1757 H 0.64085 1.00152 0.68548 0.0
H1758 H 0.72035 0.98703 0.76394 0.0
H1759 H 0.71367 0.98171 0.71233 0.0
Li1760 Li 0.7993 0.70561 0.02202 0.0
Li1761 Li 0.81005 0.68367 0.0048 0.0
Li1762 Li 0.79833 0.70362 0.99264 0.0
Li1763 Li 0.78086 0.68079 0.00312 0.0
C1764 C 0.82934 0.72054 0.00971 0.0
N1765 N 0.85492 0.7461 0.01181 0.0
C1766 C 0.84423 0.71757 0.01074 0.0
C1767 C 0.82745 0.7365 0.00977 0.0
C1768 C 0.85702 0.73066 0.01182 0.0
C1769 C 0.84053 0.74925 0.01081 0.0
C1770 C 0.79672 0.67108 0.03218 0.0
C1771 C 0.79332 0.64356 0.03732 0.0
N1772 N 0.79961 0.64974 0.05267 0.0
C1773 C 0.80308 0.6772 0.048 0.0
C1774 C 0.79175 0.65417 0.02676 0.0
C1775 C 0.80448 0.66618 0.05817 0.0
C1776 C 0.78806 0.72085 0.04965 0.0
N1777 N 0.80129 0.71973 0.04254 0.0
C1778 C 0.81655 0.73727 0.0655 0.0
C1779 C 0.81539 0.72779 0.05005 0.0
C1780 C 0.80308 0.73836 0.07338 0.0
C1781 C 0.78869 0.73009 0.06509 0.0
H1782 H 0.77702 0.71422 0.04343 0.0
H1783 H 0.82575 0.72664 0.04417 0.0
C1784 C 0.83317 0.66847 0.98997 0.0
N1785 N 0.82669 0.67227 0.00398 0.0
C1786 C 0.84552 0.66048 0.98957 0.0
C1787 C 0.84442 0.66076 0.01801 0.0
C1788 C 0.83231 0.66888 0.0179 0.0
C1789 C 0.85111 0.65631 0.00371 0.0
H1790 H 0.82877 0.67166 0.97911 0.0
H1791 H 0.8275 0.67261 0.029 0.0
C1792 C 0.77265 0.71602 0.00519 0.0
N1793 N 0.75535 0.73883 0.00153 0.0
C1794 C 0.75741 0.71084 0.99826 0.0
C1795 C 0.77906 0.73274 0.01044 0.0
C1796 C 0.74886 0.72258 0.99648 0.0
C1797 C 0.77014 0.7441 0.00841 0.0
C1798 C 0.79337 0.66831 0.97166 0.0
C1799 C 0.79057 0.67291 0.95693 0.0
C1800 C 0.7949 0.65231 0.97203 0.0
C1801 C 0.78942 0.6614 0.94275 0.0
C1802 C 0.79371 0.64117 0.95757 0.0
N1803 N 0.79102 0.6459 0.94336 0.0
C1804 C 0.81438 0.7208 0.97062 0.0
C1805 C 0.78722 0.71847 0.96834 0.0
C1806 C 0.816 0.72872 0.95748 0.0
N1807 N 0.80016 0.71588 0.97577 0.0
C1808 C 0.78828 0.72615 0.95503 0.0
C1809 C 0.80279 0.73119 0.94937 0.0
H1810 H 0.82442 0.71812 0.97639 0.0
H1811 H 0.77601 0.714 0.97231 0.0
C1812 C 0.75395 0.66458 0.01526 0.0
N1813 N 0.76056 0.66609 0.0013 0.0
C1814 C 0.73903 0.65491 0.01513 0.0
C1815 C 0.73778 0.64841 0.98622 0.0
C1816 C 0.75283 0.65815 0.98691 0.0
C1817 C 0.73051 0.64673 0.00047 0.0
H1818 H 0.76028 0.67101 0.02656 0.0
H1819 H 0.75822 0.65961 0.97592 0.0
O1820 O 0.81673 0.70778 0.00832 0.0
O1821 O 0.79536 0.68165 0.02206 0.0
O1822 O 0.78115 0.7047 0.00703 0.0
O1823 O 0.79499 0.67955 0.98561 0.0
H1824 H 0.84589 0.70527 0.01068 0.0
H1825 H 0.81602 0.73897 0.00878 0.0
H1826 H 0.86862 0.72854 0.01262 0.0
H1827 H 0.83924 0.76165 0.01077 0.0
H1828 H 0.78954 0.63042 0.03332 0.0
H1829 H 0.80699 0.69029 0.05232 0.0
H1830 H 0.78678 0.64933 0.01452 0.0
H1831 H 0.80944 0.67071 0.07043 0.0
H1832 H 0.8279 0.74355 0.07122 0.0
H1833 H 0.77798 0.73021 0.07065 0.0
H1834 H 0.85041 0.65731 0.97831 0.0
H1835 H 0.84862 0.65811 0.02926 0.0
H1836 H 0.75229 0.69789 0.99424 0.0
H1837 H 0.79073 0.73688 0.0161 0.0
H1838 H 0.73706 0.71879 0.99109 0.0
H1839 H 0.77495 0.75711 0.01236 0.0
H1840 H 0.78935 0.68523 0.95641 0.0
H1841 H 0.79713 0.6486 0.98335 0.0
H1842 H 0.78728 0.6648 0.93126 0.0
H1843 H 0.79496 0.62876 0.95765 0.0
H1844 H 0.82734 0.73217 0.95324 0.0
H1845 H 0.77784 0.72779 0.949 0.0
H1846 H 0.73431 0.65384 0.02652 0.0
H1847 H 0.73181 0.64263 0.97457 0.0
Li1848 Li 0.8939 0.52598 0.78858 0.0
Li1849 Li 0.91656 0.54125 0.80586 0.0
Li1850 Li 0.8987 0.55521 0.79379 0.0
Li1851 Li 0.91617 0.54116 0.77789 0.0
C1852 C 0.88412 0.53892 0.82001 0.0
N1853 N 0.86201 0.53479 0.84164 0.0
C1854 C 0.88815 0.5363 0.83532 0.0
C1855 C 0.86889 0.53954 0.8157 0.0
C1856 C 0.87679 0.53424 0.84609 0.0
C1857 C 0.85786 0.53737 0.8268 0.0
C1858 C 0.92474 0.51215 0.78934 0.0
C1859 C 0.95053 0.50729 0.78943 0.0
N1860 N 0.94469 0.49132 0.79035 0.0
C1861 C 0.91897 0.49571 0.79025 0.0
C1862 C 0.94063 0.51803 0.7889 0.0
C1863 C 0.92925 0.48537 0.79077 0.0
C1864 C 0.87522 0.49955 0.76912 0.0
N1865 N 0.87878 0.50712 0.78469 0.0
C1866 C 0.86111 0.48605 0.79369 0.0
C1867 C 0.87219 0.50068 0.79697 0.0
C1868 C 0.8572 0.47812 0.7777 0.0
C1869 C 0.86418 0.48499 0.76528 0.0
H1870 H 0.8813 0.50455 0.75974 0.0
H1871 H 0.87589 0.50654 0.80926 0.0
C1872 C 0.93304 0.55914 0.8321 0.0
N1873 N 0.92905 0.54349 0.82379 0.0
C1874 C 0.94361 0.56301 0.84544 0.0
C1875 C 0.94538 0.53439 0.84138 0.0
C1876 C 0.9346 0.53105 0.82823 0.0
C1877 C 0.94996 0.55054 0.84992 0.0
H1878 H 0.92814 0.56861 0.82818 0.0
H1879 H 0.93078 0.51866 0.82156 0.0
C1880 C 0.88315 0.53659 0.76017 0.0
N1881 N 0.86065 0.52828 0.73468 0.0
C1882 C 0.88732 0.53404 0.7444 0.0
C1883 C 0.86756 0.53494 0.763 0.0
C1884 C 0.87576 0.52988 0.73167 0.0
C1885 C 0.85635 0.53068 0.74994 0.0
C1886 C 0.93374 0.57256 0.79419 0.0
C1887 C 0.93131 0.5872 0.79021 0.0
C1888 C 0.94881 0.57053 0.79693 0.0
C1889 C 0.94408 0.59957 0.78883 0.0
C1890 C 0.96127 0.58319 0.79541 0.0
N1891 N 0.95867 0.59732 0.79143 0.0
C1892 C 0.8882 0.57946 0.81295 0.0
C1893 C 0.88163 0.57578 0.78481 0.0
C1894 C 0.87917 0.591 0.81606 0.0
N1895 N 0.88903 0.57212 0.79755 0.0
C1896 C 0.87236 0.58703 0.78735 0.0
C1897 C 0.87096 0.59452 0.80313 0.0
H1898 H 0.89427 0.57603 0.82274 0.0
H1899 H 0.88272 0.56974 0.77276 0.0
C1900 C 0.92878 0.52472 0.75366 0.0
N1901 N 0.92825 0.54012 0.76101 0.0
C1902 C 0.93794 0.52252 0.74107 0.0
C1903 C 0.94543 0.55212 0.74361 0.0
C1904 C 0.93622 0.55373 0.75627 0.0
C1905 C 0.94618 0.53634 0.73581 0.0
H1906 H 0.9219 0.51415 0.75744 0.0
H1907 H 0.93512 0.56577 0.76198 0.0
O1908 O 0.89507 0.54063 0.80929 0.0
O1909 O 0.91473 0.52226 0.78849 0.0
O1910 O 0.89438 0.5408 0.77272 0.0
O1911 O 0.92135 0.56044 0.79571 0.0
H1912 H 0.89991 0.53578 0.8388 0.0
H1913 H 0.86563 0.54158 0.8039 0.0
H1914 H 0.87973 0.53217 0.85798 0.0
H1915 H 0.846 0.53773 0.82362 0.0
H1916 H 0.96286 0.51164 0.78908 0.0
H1917 H 0.90667 0.491 0.79051 0.0
H1918 H 0.94523 0.5307 0.78806 0.0
H1919 H 0.92496 0.47261 0.79147 0.0
H1920 H 0.85624 0.48061 0.8035 0.0
H1921 H 0.86155 0.47884 0.75285 0.0
H1922 H 0.94699 0.57554 0.85201 0.0
H1923 H 0.95001 0.52455 0.84494 0.0
H1924 H 0.89935 0.53533 0.74201 0.0
H1925 H 0.86417 0.53686 0.77513 0.0
H1926 H 0.87882 0.52791 0.7194 0.0
H1927 H 0.84423 0.5293 0.75194 0.0
H1928 H 0.91969 0.58895 0.78815 0.0
H1929 H 0.95086 0.55934 0.80022 0.0
H1930 H 0.94239 0.61096 0.78571 0.0
H1931 H 0.97301 0.5818 0.79744 0.0
H1932 H 0.87834 0.59684 0.8283 0.0
H1933 H 0.86639 0.58991 0.77713 0.0
H1934 H 0.9382 0.51018 0.73519 0.0
H1935 H 0.95127 0.56303 0.73948 0.0
Li1936 Li 0.81218 0.42137 0.53011 0.0
Li1937 Li 0.79875 0.43914 0.51711 0.0
Li1938 Li 0.81455 0.42145 0.50218 0.0
Li1939 Li 0.82617 0.44554 0.52221 0.0
C1940 C 0.78428 0.40138 0.51307 0.0
N1941 N 0.76152 0.37391 0.51413 0.0
C1942 C 0.76989 0.40311 0.51823 0.0
C1943 C 0.78705 0.38571 0.50827 0.0
C1944 C 0.75854 0.38906 0.51873 0.0
C1945 C 0.77541 0.37197 0.50896 0.0
C1946 C 0.81559 0.45621 0.55101 0.0
C1947 C 0.82314 0.48506 0.56254 0.0
N1948 N 0.82692 0.48124 0.57693 0.0
C1949 C 0.81939 0.45255 0.56596 0.0
C1950 C 0.81728 0.47257 0.54931 0.0
C1951 C 0.82513 0.46538 0.57891 0.0
C1952 C 0.82675 0.41049 0.55333 0.0
N1953 N 0.81251 0.40927 0.54595 0.0
C1954 C 0.80035 0.393 0.56382 0.0
C1955 C 0.79939 0.40084 0.55087 0.0
C1956 C 0.81491 0.39412 0.57154 0.0
C1957 C 0.82826 0.40275 0.56622 0.0
H1958 H 0.83687 0.41791 0.54951 0.0
H1959 H 0.78822 0.40061 0.54513 0.0
C1960 C 0.7747 0.44804 0.5015 0.0
N1961 N 0.78172 0.44787 0.51601 0.0
C1962 C 0.76228 0.45559 0.50072 0.0
C1963 C 0.76482 0.4625 0.52985 0.0
C1964 C 0.77705 0.45471 0.53005 0.0
C1965 C 0.75741 0.46304 0.51505 0.0
H1966 H 0.77892 0.44253 0.49061 0.0
H1967 H 0.78294 0.45424 0.54136 0.0
C1968 C 0.84111 0.41386 0.51728 0.0
N1969 N 0.86148 0.39324 0.51371 0.0
C1970 C 0.85687 0.42032 0.51671 0.0
C1971 C 0.83569 0.39695 0.51611 0.0
C1972 C 0.867 0.40968 0.51487 0.0
C1973 C 0.84618 0.38672 0.51429 0.0
C1974 C 0.81977 0.45472 0.4917 0.0
C1975 C 0.82964 0.45 0.48033 0.0
C1976 C 0.81537 0.46967 0.49233 0.0
C1977 C 0.83496 0.4604 0.46971 0.0
C1978 C 0.82107 0.4798 0.48161 0.0
N1979 N 0.83063 0.47497 0.47059 0.0
C1980 C 0.80094 0.40111 0.47448 0.0
C1981 C 0.82812 0.40363 0.47798 0.0
C1982 C 0.79981 0.3895 0.46052 0.0
N1983 N 0.8149 0.40773 0.48288 0.0
C1984 C 0.82754 0.392 0.46415 0.0
C1985 C 0.81324 0.38483 0.45529 0.0
H1986 H 0.79067 0.40477 0.47877 0.0
H1987 H 0.83908 0.4093 0.4848 0.0
C1988 C 0.85073 0.46027 0.54345 0.0
N1989 N 0.84356 0.4621 0.52959 0.0
C1990 C 0.86424 0.47131 0.55025 0.0
C1991 C 0.86286 0.48577 0.52815 0.0
C1992 C 0.84906 0.47474 0.52209 0.0
C1993 C 0.87087 0.48377 0.54213 0.0
H1994 H 0.84611 0.44991 0.54899 0.0
H1995 H 0.84321 0.4759 0.51107 0.0
O1996 O 0.7954 0.415 0.51229 0.0
O1997 O 0.81025 0.44379 0.53813 0.0
O1998 O 0.83112 0.42417 0.51922 0.0
O1999 O 0.81386 0.44445 0.50171 0.0
H2000 H 0.76755 0.41518 0.52187 0.0
H2001 H 0.79803 0.38418 0.50398 0.0
H2002 H 0.74737 0.39019 0.52275 0.0
H2003 H 0.77739 0.35975 0.50532 0.0
H2004 H 0.82471 0.49779 0.56135 0.0
H2005 H 0.81796 0.43995 0.56755 0.0
H2006 H 0.81434 0.47557 0.53781 0.0
H2007 H 0.82819 0.46273 0.59052 0.0
H2008 H 0.7899 0.3864 0.56794 0.0
H2009 H 0.83959 0.40387 0.57225 0.0
H2010 H 0.75678 0.45594 0.48915 0.0
H2011 H 0.76115 0.46799 0.54111 0.0
H2012 H 0.86123 0.43341 0.51766 0.0
H2013 H 0.82354 0.39182 0.51669 0.0
H2014 H 0.87924 0.41449 0.51438 0.0
H2015 H 0.84216 0.3736 0.51337 0.0
H2016 H 0.8331 0.43844 0.47966 0.0
H2017 H 0.80767 0.47341 0.50105 0.0
H2018 H 0.84254 0.45689 0.46077 0.0
H2019 H 0.81784 0.49147 0.48201 0.0
H2020 H 0.78865 0.38442 0.45379 0.0
H2021 H 0.83813 0.38861 0.46046 0.0
H2022 H 0.87002 0.4694 0.56107 0.0
H2023 H 0.86773 0.49494 0.52124 0.0
Li2024 Li 0.64909 0.50677 0.27953 0.0
Li2025 Li 0.67185 0.52525 0.26666 0.0
Li2026 Li 0.6483 0.50456 0.24784 0.0
Li2027 Li 0.66928 0.49191 0.26317 0.0
C2028 C 0.63795 0.53307 0.26704 0.0
N2029 N 0.61572 0.55148 0.27033 0.0
C2030 C 0.64221 0.54985 0.27345 0.0
C2031 C 0.62244 0.52562 0.26223 0.0
C2032 C 0.63078 0.55896 0.27503 0.0
C2033 C 0.61135 0.53515 0.26402 0.0
C2034 C 0.68224 0.5131 0.29679 0.0
C2035 C 0.70619 0.51133 0.31026 0.0
N2036 N 0.70145 0.51766 0.32454 0.0
C2037 C 0.67762 0.51967 0.31156 0.0
C2038 C 0.69664 0.50894 0.29608 0.0
C2039 C 0.68749 0.52185 0.32547 0.0
C2040 C 0.63441 0.49426 0.30766 0.0
N2041 N 0.63664 0.50714 0.29964 0.0
C2042 C 0.62326 0.52162 0.31978 0.0
C2043 C 0.63112 0.52067 0.30559 0.0
C2044 C 0.62095 0.50863 0.32848 0.0
C2045 C 0.62671 0.49477 0.32198 0.0
H2046 H 0.63878 0.48352 0.30306 0.0
H2047 H 0.633 0.53103 0.29952 0.0
C2048 C 0.68565 0.55553 0.25477 0.0
N2049 N 0.68515 0.54874 0.26827 0.0
C2050 C 0.69358 0.57198 0.25507 0.0
C2051 C 0.70056 0.57469 0.28322 0.0
C2052 C 0.69252 0.55814 0.28238 0.0
C2053 C 0.70125 0.58216 0.26947 0.0
H2054 H 0.67972 0.54821 0.2436 0.0
H2055 H 0.69198 0.55294 0.29318 0.0
C2056 C 0.63335 0.47316 0.2593 0.0
N2057 N 0.60892 0.44616 0.25538 0.0
C2058 C 0.63575 0.45743 0.25389 0.0
C2059 C 0.61857 0.47519 0.26279 0.0
C2060 C 0.62324 0.44393 0.25197 0.0
C2061 C 0.60635 0.46137 0.26069 0.0
C2062 C 0.68008 0.50488 0.23404 0.0
C2063 C 0.67282 0.49529 0.21951 0.0
C2064 C 0.69595 0.51168 0.23541 0.0
C2065 C 0.68163 0.49272 0.20648 0.0
C2066 C 0.70437 0.50876 0.22212 0.0
N2067 N 0.69709 0.49944 0.20805 0.0
C2068 C 0.63985 0.51866 0.22055 0.0
C2069 C 0.62359 0.49251 0.21889 0.0
C2070 C 0.63242 0.52065 0.20612 0.0
N2071 N 0.63555 0.50472 0.22678 0.0
C2072 C 0.61576 0.49404 0.20436 0.0
C2073 C 0.62017 0.50825 0.1975 0.0
H2074 H 0.6492 0.5284 0.22682 0.0
H2075 H 0.62007 0.48144 0.22377 0.0
C2076 C 0.68312 0.46625 0.27631 0.0
N2077 N 0.68131 0.47258 0.26271 0.0
C2078 C 0.69103 0.4533 0.2767 0.0
C2079 C 0.69524 0.45292 0.24903 0.0
C2080 C 0.68729 0.46594 0.24917 0.0
C2081 C 0.69742 0.44614 0.26294 0.0
H2082 H 0.67846 0.4713 0.28713 0.0
H2083 H 0.6859 0.47065 0.23825 0.0
O2084 O 0.64894 0.52395 0.26557 0.0
O2085 O 0.6725 0.51021 0.28315 0.0
O2086 O 0.64553 0.48644 0.26156 0.0
O2087 O 0.67164 0.50769 0.24685 0.0
H2088 H 0.65421 0.55574 0.27722 0.0
H2089 H 0.61901 0.51265 0.25713 0.0
H2090 H 0.63388 0.57196 0.28001 0.0
H2091 H 0.59928 0.52957 0.26037 0.0
H2092 H 0.71735 0.50811 0.30991 0.0
H2093 H 0.66651 0.52297 0.31229 0.0
H2094 H 0.70033 0.5038 0.28471 0.0
H2095 H 0.68405 0.52685 0.33701 0.0
H2096 H 0.61939 0.53275 0.3241 0.0
H2097 H 0.62522 0.48424 0.32785 0.0
H2098 H 0.69371 0.57653 0.24392 0.0
H2099 H 0.70587 0.58163 0.29478 0.0
H2100 H 0.64718 0.45569 0.25125 0.0
H2101 H 0.61658 0.48727 0.2672 0.0
H2102 H 0.62492 0.43167 0.2478 0.0
H2103 H 0.59483 0.46273 0.26335 0.0
H2104 H 0.66053 0.4899 0.2183 0.0
H2105 H 0.70169 0.51913 0.24662 0.0
H2106 H 0.67619 0.48537 0.19513 0.0
H2107 H 0.71668 0.51393 0.22299 0.0
H2108 H 0.63626 0.53203 0.20187 0.0
H2109 H 0.60652 0.48399 0.19839 0.0
H2110 H 0.69225 0.4492 0.28797 0.0
H2111 H 0.69943 0.44813 0.23785 0.0
Eu2112 Eu 0.02538 0.03099 0.01091 0.0
C2113 C 0.07815 0.08395 0.0421 0.0
C2114 C 0.08378 0.09976 0.02102 0.0
C2115 C 0.08877 0.1135 0.04889 0.0
C2116 C 0.07846 0.08453 0.02589 0.0
C2117 C 0.08382 0.0984 0.05374 0.0
C2118 C 0.08865 0.11419 0.03257 0.0
C2119 C 0.081 0.08187 0.07427 0.0
N2120 N 0.07326 0.06922 0.04657 0.0
C2121 C 0.07539 0.06797 0.06238 0.0
C2122 C 0.08497 0.09722 0.06996 0.0
Eu2123 Eu 0.06508 0.04581 0.02555 0.0
N2124 N 0.074 0.0703 0.01489 0.0
C2125 C 0.07503 0.07074 0.99887 0.0
C2126 C 0.08435 0.1001 0.00468 0.0
C2127 C 0.08005 0.08552 0.99359 0.0
H2128 H 0.07249 0.05615 0.066 0.0
H2129 H 0.08058 0.08562 0.98088 0.0
H2130 H 0.09271 0.12592 0.02899 0.0
H2131 H 0.08229 0.0807 0.08674 0.0
H2132 H 0.07188 0.06002 0.9897 0.0
H2133 H 0.01253 0.98827 0.05323 0.0
H2134 H 0.08829 0.11154 0.00052 0.0
H2135 H 0.01817 0.02263 0.97015 0.0
H2136 H 0.02265 0.01429 0.04551 0.0
H2137 H 0.00853 0.99892 0.9485 0.0
H2138 H 0.09302 0.12468 0.05767 0.0
H2139 H 0.00184 0.96362 0.0326 0.0
H2140 H 0.99552 0.95087 0.00375 0.0
H2141 H 0.08937 0.108 0.0792 0.0
H2142 H 0.99501 0.95359 0.97542 0.0
N2143 N 0.0172 0.00563 0.02018 0.0
C2144 C 0.01753 0.00422 0.03606 0.0
C2145 C 0.00609 0.97529 0.02898 0.0
C2146 C 0.00586 0.97657 0.01279 0.0
C2147 C 0.01202 0.98917 0.04065 0.0
C2148 C 0.01164 0.99206 0.00864 0.0
H2149 H 1.00003 0.97124 0.95482 0.0
N2150 N 0.0172 0.00851 0.98883 0.0
C2151 C 0.00963 0.99714 0.9608 0.0
C2152 C 0.01172 0.99352 0.9926 0.0
C2153 C 0.01545 0.01054 0.97318 0.0
C2154 C 0.00477 0.98158 0.96443 0.0
C2155 C 0.00551 0.97964 0.98045 0.0
O2156 O 0.01086 0.04074 0.99533 0.0
O2157 O 0.0459 0.05208 0.012 0.0
O2158 O 0.04973 0.04872 0.04736 0.0
O2159 O 0.02387 0.03911 0.03769 0.0
O2160 O 0.02617 0.05751 0.02133 0.0
O2161 O 1.00122 0.02982 0.01519 0.0
O2162 O 0.07782 0.03528 0.04201 0.0
O2163 O 0.04466 0.02471 0.02439 0.0
O2164 O 0.04046 0.02996 0.989 0.0
O2165 O 0.06635 0.03587 0.9989 0.0
O2166 O 0.06433 0.01945 0.01468 0.0
O2167 O 0.08977 0.04709 0.02373 0.0
C2168 C 0.03987 0.06373 0.01809 0.0
C2169 C 0.98347 0.03304 0.99491 0.0
C2170 C 0.95799 0.03875 0.99335 0.0
C2171 C 0.97281 0.0419 0.00105 0.0
C2172 C 0.95373 0.02677 0.97936 0.0
C2173 C 0.97925 0.02093 0.98099 0.0
C2174 C 0.9644 0.01788 0.97318 0.0
C2175 C 0.03467 0.04574 0.0497 0.0
C2176 C 0.99883 0.03731 0.00341 0.0
C2177 C 0.99979 0.96432 0.9846 0.0
C2178 C 1.00001 0.96278 0.00072 0.0
C2179 C 0.0507 0.01311 0.01808 0.0
C2180 C 0.10536 0.04261 0.04551 0.0
C2181 C 0.11797 0.03781 0.03841 0.0
C2182 C 0.13173 0.03893 0.04773 0.0
C2183 C 0.133 0.04554 0.06425 0.0
C2184 C 0.10662 0.04879 0.06209 0.0
C2185 C 0.12049 0.0505 0.07134 0.0
C2186 C 0.0554 0.03096 0.98676 0.0
C2187 C 0.09077 0.03908 0.03544 0.0
H2188 H 0.97605 0.05134 0.01179 0.0
H2189 H 0.94227 0.02442 0.97321 0.0
H2190 H 0.98725 0.01386 0.97614 0.0
H2191 H 0.96116 0.00864 0.96236 0.0
H2192 H 0.11688 0.03272 0.02565 0.0
H2193 H 0.14344 0.04633 0.07178 0.0
H2194 H 0.09691 0.05186 0.06804 0.0
H2195 H 0.12141 0.05522 0.08413 0.0
Eu2196 Eu 0.3042 0.77894 0.24852 0.0
C2197 C 0.28121 0.83349 0.29937 0.0
C2198 C 0.30535 0.85002 0.31324 0.0
C2199 C 0.28179 0.8601 0.31599 0.0
C2200 C 0.29686 0.83542 0.3033 0.0
C2201 C 0.27348 0.84581 0.30572 0.0
C2202 C 0.2977 0.86223 0.3197 0.0
C2203 C 0.24968 0.82864 0.29198 0.0
N2204 N 0.27346 0.8195 0.28951 0.0
C2205 C 0.2578 0.81676 0.28613 0.0
C2206 C 0.25755 0.84326 0.30181 0.0
Eu2207 Eu 0.28676 0.79798 0.28403 0.0
N2208 N 0.30385 0.8232 0.29713 0.0
C2209 C 0.31959 0.82544 0.29972 0.0
C2210 C 0.3213 0.85198 0.31637 0.0
C2211 C 0.32847 0.83973 0.30937 0.0
H2212 H 0.25139 0.8051 0.27931 0.0
H2213 H 0.34088 0.84129 0.31138 0.0
H2214 H 0.30401 0.87341 0.32752 0.0
H2215 H 0.23729 0.82635 0.28919 0.0
H2216 H 0.32564 0.81654 0.29412 0.0
H2217 H 0.24866 0.73758 0.22255 0.0
H2218 H 0.32821 0.86301 0.32392 0.0
H2219 H 0.33871 0.76915 0.25566 0.0
H2220 H 0.26483 0.76242 0.23875 0.0
H2221 H 0.35111 0.74625 0.24734 0.0
H2222 H 0.27601 0.86961 0.32109 0.0
H2223 H 0.26009 0.71432 0.21151 0.0
H2224 H 0.28337 0.70222 0.2089 0.0
H2225 H 0.2512 0.85237 0.30653 0.0
H2226 H 0.31099 0.70442 0.21594 0.0
N2227 N 0.28592 0.75401 0.23703 0.0
C2228 C 0.27035 0.75271 0.234 0.0
C2229 C 0.2674 0.7253 0.21875 0.0
C2230 C 0.28316 0.72638 0.22225 0.0
C2231 C 0.26092 0.73842 0.2249 0.0
C2232 C 0.2922 0.74095 0.23179 0.0
H2233 H 0.33608 0.72047 0.23059 0.0
N2234 N 0.31607 0.75602 0.24549 0.0
C2235 C 0.33884 0.74477 0.2443 0.0
C2236 C 0.30769 0.74201 0.23609 0.0
C2237 C 0.33158 0.7576 0.24937 0.0
C2238 C 0.33034 0.7303 0.23477 0.0
C2239 C 0.31462 0.72878 0.2305 0.0
O2240 O 0.32483 0.78246 0.23601 0.0
O2241 O 0.29945 0.80132 0.26274 0.0
O2242 O 0.27259 0.80081 0.2618 0.0
O2243 O 0.2825 0.7872 0.23938 0.0
O2244 O 0.32133 0.8035 0.25475 0.0
O2245 O 0.30264 0.78096 0.22307 0.0
O2246 O 0.26551 0.78837 0.2946 0.0
O2247 O 0.29209 0.77573 0.27005 0.0
O2248 O 0.31911 0.77785 0.27113 0.0
O2249 O 0.30894 0.79112 0.29344 0.0
O2250 O 0.26949 0.77383 0.27598 0.0
O2251 O 0.28829 0.7941 0.30861 0.0
C2252 C 0.31201 0.81113 0.26239 0.0
C2253 C 0.32606 0.79306 0.21262 0.0
C2254 C 0.32963 0.81647 0.19949 0.0
C2255 C 0.32092 0.80654 0.20887 0.0
C2256 C 0.34355 0.813 0.19411 0.0
C2257 C 0.33992 0.78961 0.20716 0.0
C2258 C 0.34866 0.79961 0.19798 0.0
C2259 C 0.2722 0.79524 0.24607 0.0
C2260 C 0.31756 0.78228 0.22232 0.0
C2261 C 0.30579 0.71457 0.22053 0.0
C2262 C 0.29008 0.71335 0.21647 0.0
C2263 C 0.2794 0.76599 0.26989 0.0
C2264 C 0.26598 0.78325 0.32168 0.0
C2265 C 0.27346 0.77434 0.33052 0.0
C2266 C 0.26558 0.76609 0.34151 0.0
C2267 C 0.25032 0.76719 0.34419 0.0
C2268 C 0.25073 0.7845 0.32432 0.0
C2269 C 0.24298 0.77658 0.33571 0.0
C2270 C 0.31944 0.78344 0.28685 0.0
C2271 C 0.27329 0.78866 0.30806 0.0
H2272 H 0.31014 0.80913 0.21296 0.0
H2273 H 0.35017 0.82027 0.18642 0.0
H2274 H 0.34397 0.77914 0.21 0.0
H2275 H 0.35926 0.79684 0.19366 0.0
H2276 H 0.28511 0.77301 0.32824 0.0
H2277 H 0.24419 0.76088 0.35286 0.0
H2278 H 0.24474 0.79122 0.31731 0.0
H2279 H 0.23121 0.77744 0.33774 0.0
Eu2280 Eu 0.56574 0.04156 0.51136 0.0
C2281 C 0.50711 0.00878 0.54134 0.0
C2282 C 0.4948 0.98622 0.51992 0.0
C2283 C 0.49185 0.9837 0.54777 0.0
C2284 C 0.50413 1.00215 0.52509 0.0
C2285 C 0.50069 0.99978 0.55284 0.0
C2286 C 0.48896 0.97692 0.53135 0.0
C2287 C 0.51133 0.02364 0.57345 0.0
N2288 N 0.51578 0.02429 0.54589 0.0
C2289 C 0.51754 0.03205 0.5616 0.0
C2290 C 0.50306 0.00735 0.56907 0.0
Eu2291 Eu 0.52617 0.03738 0.5252 0.0
N2292 N 0.50987 0.01147 0.51433 0.0
C2293 C 0.50584 0.00605 0.49824 0.0
C2294 C 0.49135 0.98025 0.50342 0.0
C2295 C 0.49672 0.9903 0.49255 0.0
H2296 H 0.52404 0.04462 0.56496 0.0
H2297 H 0.49389 0.98592 0.47977 0.0
H2298 H 0.48188 0.96461 0.52761 0.0
H2299 H 0.51299 0.02969 0.58593 0.0
H2300 H 0.50994 0.01357 0.48963 0.0
H2301 H 0.59743 0.09487 0.55518 0.0
H2302 H 0.48428 0.96805 0.49897 0.0
H2303 H 0.56925 0.0324 0.47199 0.0
H2304 H 0.58171 0.06694 0.54625 0.0
H2305 H 0.58001 0.04636 0.4503 0.0
H2306 H 0.48696 0.97652 0.55644 0.0
H2307 H 0.6069 0.11184 0.53521 0.0
H2308 H 0.60942 0.114 0.50626 0.0
H2309 H 0.49828 1.00085 0.57827 0.0
H2310 H 0.60473 0.10082 0.47772 0.0
N2311 N 0.58175 0.06794 0.5213 0.0
C2312 C 0.58574 0.07404 0.53731 0.0
C2313 C 0.59995 0.09951 0.53117 0.0
C2314 C 0.5966 0.09286 0.51479 0.0
C2315 C 0.59467 0.08996 0.54248 0.0
C2316 C 0.58744 0.07678 0.51016 0.0
H2317 H 0.59393 0.07556 0.45675 0.0
N2318 N 0.57644 0.0537 0.49019 0.0
C2319 C 0.58133 0.05302 0.46256 0.0
C2320 C 0.58473 0.06942 0.49412 0.0
C2321 C 0.57524 0.04517 0.47481 0.0
C2322 C 0.58916 0.06951 0.46625 0.0
C2323 C 0.59119 0.07784 0.48223 0.0
O2324 O 0.57597 0.02092 0.50235 0.0
O2325 O 0.54394 0.02448 0.51491 0.0
O2326 O 0.54003 0.02712 0.54203 0.0
O2327 O 0.5648 0.04067 0.53773 0.0
O2328 O 0.55354 0.01873 0.49358 0.0
O2329 O 0.58748 0.03881 0.52293 0.0
O2330 O 0.51617 0.05772 0.53559 0.0
O2331 O 0.54784 0.05446 0.52138 0.0
O2332 O 0.55211 0.05058 0.49349 0.0
O2333 O 0.52673 0.03974 0.49911 0.0
O2334 O 0.53864 0.06005 0.54299 0.0
O2335 O 0.50421 0.04076 0.51458 0.0
C2336 C 0.54258 0.01376 0.50228 0.0
C2337 C 0.60284 0.02412 0.50651 0.0
C2338 C 0.62456 0.01068 0.50506 0.0
C2339 C 0.61128 0.01369 0.51229 0.0
C2340 C 0.6294 0.01819 0.49211 0.0
C2341 C 0.60801 0.03182 0.49377 0.0
C2342 C 0.62122 0.02881 0.48659 0.0
C2343 C 0.55505 0.0321 0.54605 0.0
C2344 C 0.58796 0.02551 0.51283 0.0
C2345 C 0.59979 0.09409 0.4867 0.0
C2346 C 0.60247 0.10159 0.50295 0.0
C2347 C 0.54927 0.06521 0.534 0.0
C2348 C 0.48925 0.05504 0.53218 0.0
C2349 C 0.47942 0.06369 0.52547 0.0
C2350 C 0.46611 0.06653 0.53297 0.0
C2351 C 0.46307 0.06082 0.5474 0.0
C2352 C 0.48562 0.0491 0.54629 0.0
C2353 C 0.47267 0.05208 0.55388 0.0
C2354 C 0.53698 0.04678 0.4902 0.0
C2355 C 0.50399 0.0537 0.52534 0.0
H2356 H 0.6073 0.00758 0.52204 0.0
H2357 H 0.63956 0.01586 0.48633 0.0
H2358 H 0.60173 0.03991 0.48919 0.0
H2359 H 0.62503 0.03461 0.47662 0.0
H2360 H 0.48219 0.06822 0.51453 0.0
H2361 H 0.45333 0.06326 0.55387 0.0
H2362 H 0.49299 0.04251 0.55167 0.0
H2363 H 0.47016 0.04775 0.56497 0.0
Eu2364 Eu 0.27526 0.29366 0.76761 0.0
C2365 C 0.32856 0.27157 0.79803 0.0
C2366 C 0.33829 0.29511 0.81933 0.0
C2367 C 0.33968 0.26786 0.82357 0.0
C2368 C 0.33111 0.28828 0.8037 0.0
C2369 C 0.3333 0.26125 0.80774 0.0
C2370 C 0.34214 0.28476 0.82937 0.0
C2371 C 0.32686 0.23898 0.78487 0.0
N2372 N 0.32256 0.26558 0.78263 0.0
C2373 C 0.32242 0.2497 0.77571 0.0
C2374 C 0.33207 0.2447 0.80104 0.0
Eu2375 Eu 0.31423 0.28431 0.76818 0.0
N2376 N 0.32745 0.29797 0.79362 0.0
C2377 C 0.33185 0.31472 0.79805 0.0
C2378 C 0.34189 0.31218 0.82422 0.0
C2379 C 0.33893 0.32202 0.81341 0.0
H2380 H 0.31855 0.24527 0.76312 0.0
H2381 H 0.342 0.33527 0.81692 0.0
H2382 H 0.34749 0.28978 0.84145 0.0
H2383 H 0.32633 0.22633 0.77942 0.0
H2384 H 0.32966 0.3227 0.79007 0.0
H2385 H 0.24752 0.24243 0.71902 0.0
H2386 H 0.34736 0.31787 0.83612 0.0
H2387 H 0.26969 0.33192 0.77301 0.0
H2388 H 0.25994 0.25515 0.74582 0.0
H2389 H 0.26141 0.35085 0.75697 0.0
H2390 H 0.34321 0.26008 0.83125 0.0
H2391 H 0.24196 0.2597 0.69977 0.0
H2392 H 0.24158 0.28778 0.6944 0.0
H2393 H 0.33563 0.2364 0.80809 0.0
H2394 H 0.24537 0.31743 0.70474 0.0
N2395 N 0.2619 0.27982 0.74222 0.0
C2396 C 0.25762 0.26307 0.73784 0.0
C2397 C 0.24745 0.26545 0.71165 0.0
C2398 C 0.25094 0.28252 0.7165 0.0
C2399 C 0.25051 0.25568 0.7225 0.0
C2400 C 0.2581 0.28941 0.73211 0.0
H2401 H 0.25243 0.341 0.72817 0.0
N2402 N 0.2662 0.31194 0.75326 0.0
C2403 C 0.26119 0.33831 0.75138 0.0
C2404 C 0.26036 0.30603 0.73783 0.0
C2405 C 0.26586 0.3276 0.7604 0.0
C2406 C 0.25618 0.33272 0.73513 0.0
C2407 C 0.25536 0.3163 0.72824 0.0
O2408 O 0.26233 0.30437 0.78647 0.0
O2409 O 0.29515 0.29035 0.78307 0.0
O2410 O 0.29745 0.26035 0.77123 0.0
O2411 O 0.27308 0.26674 0.77097 0.0
O2412 O 0.2867 0.31156 0.78948 0.0
O2413 O 0.25293 0.27994 0.77362 0.0
O2414 O 0.32637 0.27523 0.7478 0.0
O2415 O 0.29445 0.28796 0.75289 0.0
O2416 O 0.29189 0.31758 0.76411 0.0
O2417 O 0.31631 0.31129 0.76504 0.0
O2418 O 0.3027 0.26669 0.74606 0.0
O2419 O 0.33805 0.29664 0.76444 0.0
C2420 C 0.29615 0.3031 0.79376 0.0
C2421 C 0.23505 0.29507 0.78541 0.0
C2422 C 0.21036 0.29383 0.79787 0.0
C2423 C 0.22516 0.28998 0.79717 0.0
C2424 C 0.20581 0.30295 0.7869 0.0
C2425 C 0.23 0.30402 0.77458 0.0
C2426 C 0.21556 0.30802 0.77542 0.0
C2427 C 0.28217 0.25618 0.77171 0.0
C2428 C 0.25082 0.29169 0.7848 0.0
C2429 C 0.24909 0.3097 0.71237 0.0
C2430 C 0.24691 0.29282 0.70648 0.0
C2431 C 0.2933 0.27534 0.74201 0.0
C2432 C 0.35381 0.28066 0.74945 0.0
C2433 C 0.36548 0.28769 0.7401 0.0
C2434 C 0.37887 0.28107 0.73764 0.0
C2435 C 0.37988 0.26708 0.74415 0.0
C2436 C 0.35575 0.26712 0.75609 0.0
C2437 C 0.36852 0.2603 0.75331 0.0
C2438 C 0.30723 0.32182 0.76398 0.0
C2439 C 0.33911 0.28642 0.75143 0.0
H2440 H 0.22891 0.28306 0.80563 0.0
H2441 H 0.19463 0.30618 0.78723 0.0
H2442 H 0.23725 0.30801 0.76549 0.0
H2443 H 0.21186 0.31507 0.76708 0.0
H2444 H 0.36419 0.29821 0.73492 0.0
H2445 H 0.38953 0.26123 0.74211 0.0
H2446 H 0.34722 0.26158 0.76324 0.0
H2447 H 0.36962 0.24961 0.75827 0.0
Eu2448 Eu 0.04083 0.05835 0.5263 0.0
C2449 C 0.05766 1.00174 0.4774 0.0
C2450 C 0.034 0.99132 0.45984 0.0
C2451 C 0.05826 0.986 0.45065 0.0
C2452 C 0.04187 1.00007 0.47469 0.0
C2453 C 0.06601 0.99455 0.46547 0.0
C2454 C 0.04229 0.9844 0.44784 0.0
C2455 C 0.08892 0.00373 0.48409 0.0
N2456 N 0.06482 0.00986 0.49189 0.0
C2457 C 0.08013 0.01046 0.49558 0.0
C2458 C 0.08184 0.99582 0.46892 0.0
Eu2459 Eu 0.04911 0.0196 0.51137 0.0
N2460 N 0.03415 0.00686 0.48656 0.0
C2461 C 0.01842 0.00498 0.48432 0.0
C2462 C 0.01801 0.98967 0.45749 0.0
C2463 C 0.0102 0.99653 0.4698 0.0
H2464 H 0.08557 0.01628 0.50744 0.0
H2465 H 0.99781 0.99529 0.46814 0.0
H2466 H 0.03644 0.97766 0.43639 0.0
H2467 H 0.10109 0.0045 0.487 0.0
H2468 H 0.01196 0.01018 0.49347 0.0
H2469 H 0.09165 0.08349 0.57016 0.0
H2470 H 0.01158 0.98307 0.44627 0.0
H2471 H 0.00454 0.06276 0.53021 0.0
H2472 H 0.07814 0.07094 0.54397 0.0
H2473 H 0.98835 0.0715 0.55149 0.0
H2474 H 0.06448 0.98041 0.44135 0.0
H2475 H 0.07698 0.09036 0.59341 0.0
H2476 H 0.05151 0.092 0.60413 0.0
H2477 H 0.08864 0.99046 0.46008 0.0
H2478 H 0.02341 0.08873 0.5991 0.0
N2479 N 0.05539 0.07028 0.55161 0.0
C2480 C 0.07125 0.0739 0.55364 0.0
C2481 C 0.07083 0.08479 0.58178 0.0
C2482 C 0.0547 0.08184 0.57959 0.0
C2483 C 0.07913 0.08102 0.56868 0.0
C2484 C 0.04722 0.07458 0.56416 0.0
H2485 H 0.99984 0.08129 0.57954 0.0
N2486 N 0.02475 0.06672 0.54621 0.0
C2487 C 1.00042 0.0718 0.55447 0.0
C2488 C 0.03142 0.07273 0.56136 0.0
C2489 C 0.0096 0.06685 0.54248 0.0
C2490 C 0.00694 0.07728 0.57028 0.0
C2491 C 0.02267 0.07809 0.57386 0.0
O2492 O 0.02928 0.07434 0.51519 0.0
O2493 O 0.04236 0.04137 0.5029 0.0
O2494 O 0.06876 0.03764 0.50332 0.0
O2495 O 0.06549 0.06187 0.51877 0.0
O2496 O 0.02183 0.04848 0.50616 0.0
O2497 O 0.05359 0.08267 0.52331 0.0
O2498 O 0.06087 0.00425 0.52331 0.0
O2499 O 0.04777 0.03682 0.53438 0.0
O2500 O 0.02053 0.04024 0.53283 0.0
O2501 O 0.02448 0.01543 0.51912 0.0
O2502 O 0.06835 0.02948 0.53148 0.0
O2503 O 0.0366 0.99547 0.51495 0.0
C2504 C 0.02952 0.04168 0.49547 0.0
C2505 C 0.03933 0.1028 0.51998 0.0
C2506 C 0.04256 0.1295 0.51232 0.0
C2507 C 0.04552 0.11374 0.51011 0.0
C2508 C 0.03332 0.13429 0.52441 0.0
C2509 C 0.0301 0.10764 0.53207 0.0
C2510 C 0.02709 0.12336 0.53422 0.0
C2511 C 0.07375 0.05346 0.50944 0.0
C2512 C 0.04157 0.08604 0.51632 0.0
C2513 C 0.02997 0.08464 0.58935 0.0
C2514 C 0.04596 0.08651 0.59222 0.0
C2515 C 0.06076 0.03704 0.5417 0.0
C2516 C 0.05108 0.97566 0.51865 0.0
C2517 C 0.0449 0.96463 0.52846 0.0
C2518 C 0.04763 0.94874 0.52592 0.0
C2519 C 0.05671 0.94399 0.51365 0.0
C2520 C 0.06014 0.97081 0.5064 0.0
C2521 C 0.06299 0.95504 0.50398 0.0
C2522 C 0.01599 0.02426 0.52759 0.0
C2523 C 0.04866 0.9924 0.52218 0.0
H2524 H 0.05248 0.10995 0.50059 0.0
H2525 H 0.03083 0.14642 0.52613 0.0
H2526 H 0.02509 0.09926 0.53967 0.0
H2527 H 0.01984 0.12704 0.54345 0.0
H2528 H 0.03799 0.96837 0.53804 0.0
H2529 H 0.05901 0.93177 0.51164 0.0
H2530 H 0.0651 0.97918 0.49881 0.0
H2531 H 0.07009 0.95136 0.49461 0.0
Eu2532 Eu 0.31215 0.80216 0.76792 0.0
C2533 C 0.27355 0.74671 0.79109 0.0
C2534 C 0.27681 0.72228 0.77305 0.0
C2535 C 0.27121 0.72082 0.80055 0.0
C2536 C 0.27652 0.73914 0.7759 0.0
C2537 C 0.27049 0.73741 0.80337 0.0
C2538 C 0.27441 0.7133 0.78548 0.0
C2539 C 0.26449 0.761 0.82005 0.0
N2540 N 0.27276 0.7628 0.79367 0.0
C2541 C 0.26744 0.76971 0.8076 0.0
C2542 C 0.26621 0.74484 0.818 0.0
Eu2543 Eu 0.27683 0.77565 0.771 0.0
N2544 N 0.27844 0.74788 0.76377 0.0
C2545 C 0.28037 0.74036 0.74861 0.0
C2546 C 0.27908 0.7147 0.75763 0.0
C2547 C 0.28073 0.72374 0.74536 0.0
H2548 H 0.26609 0.78227 0.80935 0.0
H2549 H 0.28242 0.71794 0.73337 0.0
H2550 H 0.27463 0.70038 0.78345 0.0
H2551 H 0.2608 0.76673 0.83117 0.0
H2552 H 0.28195 0.74694 0.73885 0.0
H2553 H 0.30317 0.8627 0.79523 0.0
H2554 H 0.27937 0.7018 0.75503 0.0
H2555 H 0.32819 0.79195 0.73307 0.0
H2556 H 0.30575 0.83475 0.7949 0.0
H2557 H 0.3345 0.8034 0.70869 0.0
H2558 H 0.26897 0.71357 0.80987 0.0
H2559 H 0.30663 0.87481 0.77085 0.0
H2560 H 0.31347 0.87219 0.74254 0.0
H2561 H 0.26376 0.73805 0.82764 0.0
H2562 H 0.32182 0.85609 0.71902 0.0
N2563 N 0.30981 0.82984 0.76998 0.0
C2564 C 0.30703 0.83931 0.78389 0.0
C2565 C 0.30757 0.86221 0.77047 0.0
C2566 C 0.3112 0.85286 0.75652 0.0
C2567 C 0.30564 0.85545 0.78425 0.0
C2568 C 0.31225 0.83645 0.75657 0.0
H2569 H 0.32965 0.83059 0.70632 0.0
N2570 N 0.3185 0.81179 0.74374 0.0
C2571 C 0.32935 0.81015 0.71818 0.0
C2572 C 0.31675 0.82724 0.74315 0.0
C2573 C 0.3257 0.80368 0.73194 0.0
C2574 C 0.32658 0.82547 0.7169 0.0
C2575 C 0.32059 0.83439 0.72959 0.0
O2576 O 0.335 0.79728 0.7652 0.0
O2577 O 0.3011 0.77447 0.76432 0.0
O2578 O 0.29175 0.78196 0.79457 0.0
O2579 O 0.30511 0.80758 0.7928 0.0
O2580 O 0.32085 0.78327 0.77976 0.0
O2581 O 0.3325 0.81904 0.78177 0.0
O2582 O 0.25653 0.78243 0.78151 0.0
O2583 O 0.28784 0.80313 0.7742 0.0
O2584 O 0.30061 0.79123 0.74297 0.0
O2585 O 0.27737 0.77298 0.74453 0.0
O2586 O 0.26808 0.79442 0.75885 0.0
O2587 O 0.25406 0.7604 0.76231 0.0
C2588 C 0.31121 0.77007 0.77294 0.0
C2589 C 0.35731 0.81853 0.77231 0.0
C2590 C 0.38475 0.82597 0.78094 0.0
C2591 C 0.36936 0.82101 0.7843 0.0
C2592 C 0.38795 0.82894 0.7655 0.0
C2593 C 0.36061 0.82174 0.75702 0.0
C2594 C 0.3759 0.82694 0.75365 0.0
C2595 C 0.29972 0.79652 0.80128 0.0
C2596 C 0.34194 0.81025 0.77561 0.0
C2597 C 0.319 0.85047 0.72936 0.0
C2598 C 0.31428 0.85965 0.74276 0.0
C2599 C 0.27802 0.80756 0.76526 0.0
C2600 C 0.23067 0.76625 0.77286 0.0
C2601 C 0.22116 0.76333 0.75855 0.0
C2602 C 0.20511 0.76001 0.75896 0.0
C2603 C 0.1986 0.75955 0.77369 0.0
C2604 C 0.22416 0.76603 0.78758 0.0
C2605 C 0.20811 0.76259 0.78795 0.0
C2606 C 0.28784 0.7807 0.73646 0.0
C2607 C 0.24737 0.76966 0.77239 0.0
H2608 H 0.36676 0.81833 0.79606 0.0
H2609 H 0.39976 0.83227 0.76241 0.0
H2610 H 0.35152 0.81993 0.74761 0.0
H2611 H 0.37844 0.82904 0.74173 0.0
H2612 H 0.22621 0.76383 0.74719 0.0
H2613 H 0.18615 0.75719 0.77416 0.0
H2614 H 0.23146 0.76837 0.79872 0.0
H2615 H 0.20304 0.76238 0.79928 0.0
Eu2616 Eu 0.55104 0.03214 0.0385 0.0
C2617 C 0.50537 0.04745 0.98543 0.0
C2618 C 0.49217 0.01995 0.97238 0.0
C2619 C 0.48067 0.04297 0.96961 0.0
C2620 C 0.50504 0.03084 0.98172 0.0
C2621 C 0.49327 0.05371 0.9792 0.0
C2622 C 0.48006 0.02611 0.96633 0.0
C2623 C 0.50734 0.08097 0.99149 0.0
N2624 N 0.51768 0.05757 0.99474 0.0
C2625 C 0.51901 0.07421 0.99736 0.0
C2626 C 0.49436 0.07067 0.98243 0.0
Eu2627 Eu 0.53887 0.04598 0.00088 0.0
N2628 N 0.51721 0.0253 0.98728 0.0
C2629 C 0.51688 0.00881 0.98411 0.0
C2630 C 0.49184 0.00316 0.96932 0.0
C2631 C 0.50419 0.99757 0.97533 0.0
H2632 H 0.52939 0.08238 0.00352 0.0
H2633 H 0.504 0.98457 0.97314 0.0
H2634 H 0.4702 0.01794 0.95899 0.0
H2635 H 0.50854 0.09415 0.99366 0.0
H2636 H 0.52607 0.00391 0.98864 0.0
H2637 H 0.58919 0.08745 0.07578 0.0
H2638 H 0.4821 0.99442 0.96234 0.0
H2639 H 0.55528 0.99375 0.03428 0.0
H2640 H 0.56544 0.07147 0.06076 0.0
H2641 H 0.57546 0.97851 0.03877 0.0
H2642 H 0.47135 0.0476 0.96466 0.0
H2643 H 0.6116 0.07495 0.07907 0.0
H2644 H 0.62277 0.05 0.07438 0.0
H2645 H 0.4854 0.07595 0.97771 0.0
H2646 H 0.61914 0.02035 0.06418 0.0
N2647 N 0.57367 0.04929 0.05449 0.0
C2648 C 0.5748 0.06537 0.06162 0.0
C2649 C 0.60103 0.06764 0.07228 0.0
C2650 C 0.59969 0.05109 0.06573 0.0
C2651 C 0.58843 0.07472 0.07043 0.0
C2652 C 0.58564 0.04208 0.05702 0.0
H2653 H 0.60148 0.99357 0.05112 0.0
N2654 N 0.56991 0.0172 0.04345 0.0
C2655 C 0.578 0.99175 0.04222 0.0
C2656 C 0.58371 0.02553 0.05121 0.0
C2657 C 0.56662 1.00042 0.03971 0.0
C2658 C 0.59266 1.0003 0.04916 0.0
C2659 C 0.59559 0.01736 0.05405 0.0
O2660 O 0.53858 0.0133 0.05028 0.0
O2661 O 0.53204 0.03362 0.02131 0.0
O2662 O 0.53134 0.0618 0.02145 0.0
O2663 O 0.54487 0.05703 0.04402 0.0
O2664 O 0.53245 0.01068 0.02676 0.0
O2665 O 0.54032 0.03911 0.06035 0.0
O2666 O 0.54821 0.06669 0.98994 0.0
O2667 O 0.55712 0.04461 0.0186 0.0
O2668 O 0.55847 0.01673 0.01732 0.0
O2669 O 0.54919 0.02379 0.99359 0.0
O2670 O 0.56091 0.06603 0.0099 0.0
O2671 O 0.54523 0.04142 0.9761 0.0
C2672 C 0.52448 0.01909 0.01988 0.0
C2673 C 0.53742 0.02049 0.07798 0.0
C2674 C 0.52758 0.02226 0.10389 0.0
C2675 C 0.52801 0.0266 0.08889 0.0
C2676 C 0.53701 0.01214 0.10838 0.0
C2677 C 0.54698 0.01034 0.0822 0.0
C2678 C 0.5468 0.00625 0.09749 0.0
C2679 C 0.53692 0.06561 0.03665 0.0
C2680 C 0.53557 0.02389 0.06198 0.0
C2681 C 0.6098 0.02637 0.06207 0.0
C2682 C 0.61186 0.04323 0.0679 0.0
C2683 C 0.56643 0.05795 0.01941 0.0
C2684 C 0.55479 0.06441 0.96279 0.0
C2685 C 0.56139 0.05521 0.95096 0.0
C2686 C 0.5666 0.06185 0.93779 0.0
C2687 C 0.5652 0.07774 0.93635 0.0
C2688 C 0.5535 0.08039 0.9615 0.0
C2689 C 0.55869 0.08701 0.94826 0.0
C2690 C 0.55622 0.0148 0.0015 0.0
C2691 C 0.54921 0.05727 0.97637 0.0
H2692 H 0.52042 0.0342 0.08545 0.0
H2693 H 0.53647 0.0085 0.12 0.0
H2694 H 0.55429 0.00538 0.07368 0.0
H2695 H 0.55396 0.99824 0.10076 0.0
H2696 H 0.56254 0.04292 0.95199 0.0
H2697 H 0.56937 0.08302 0.92619 0.0
H2698 H 0.54838 0.08767 0.97063 0.0
H2699 H 0.5577 0.09931 0.94725 0.0
Eu2700 Eu 0.30312 0.3062 0.27757 0.0
C2701 C 0.24595 0.25032 0.2529 0.0
C2702 C 0.23637 0.24224 0.27724 0.0
C2703 C 0.21882 0.23684 0.25318 0.0
C2704 C 0.24872 0.24936 0.2689 0.0
C2705 C 0.231 0.24376 0.24484 0.0
C2706 C 0.2215 0.23609 0.26934 0.0
C2707 C 0.24142 0.24913 0.22015 0.0
N2708 N 0.25795 0.25668 0.24489 0.0
C2709 C 0.25598 0.25516 0.22853 0.0
C2710 C 0.2288 0.2436 0.22839 0.0
Eu2711 Eu 0.28304 0.26404 0.25881 0.0
N2712 N 0.26335 0.25511 0.27625 0.0
C2713 C 0.26575 0.25509 0.29238 0.0
C2714 C 0.23924 0.24134 0.29332 0.0
C2715 C 0.25396 0.24792 0.30094 0.0
H2716 H 0.26575 0.25817 0.22164 0.0
H2717 H 0.25618 0.24792 0.31361 0.0
H2718 H 0.212 0.23056 0.27559 0.0
H2719 H 0.24006 0.24831 0.20727 0.0
H2720 H 0.27631 0.26126 0.2994 0.0
H2721 H 0.33891 0.31941 0.22844 0.0
H2722 H 0.23009 0.23591 0.30006 0.0
H2723 H 0.31258 0.31595 0.31685 0.0
H2724 H 0.31549 0.30836 0.24043 0.0
H2725 H 0.33553 0.32903 0.33602 0.0
H2726 H 0.20734 0.23175 0.24716 0.0
H2727 H 0.36335 0.33153 0.24552 0.0
H2728 H 0.37733 0.3396 0.27305 0.0
H2729 H 0.21754 0.2386 0.22182 0.0
H2730 H 0.37653 0.34192 0.3023 0.0
N2731 N 0.32589 0.31461 0.26454 0.0
C2732 C 0.32572 0.31408 0.24831 0.0
C2733 C 0.35295 0.32682 0.25097 0.0
C2734 C 0.3531 0.32753 0.26756 0.0
C2735 C 0.33917 0.32011 0.24132 0.0
C2736 C 0.33922 0.32123 0.27407 0.0
H2737 H 0.36101 0.33806 0.32587 0.0
N2738 N 0.32517 0.31663 0.29622 0.0
C2739 C 0.33668 0.32704 0.32323 0.0
C2740 C 0.33885 0.32227 0.29043 0.0
C2741 C 0.32375 0.31957 0.31237 0.0
C2742 C 0.35104 0.33211 0.31746 0.0
C2743 C 0.35221 0.33001 0.30087 0.0
O2744 O 0.2935 0.32304 0.29426 0.0
O2745 O 0.28058 0.2883 0.2705 0.0
O2746 O 0.2791 0.28128 0.24181 0.0
O2747 O 0.29273 0.30777 0.25329 0.0
O2748 O 0.28487 0.29908 0.29434 0.0
O2749 O 0.30159 0.33018 0.27222 0.0
O2750 O 0.28893 0.25312 0.2353 0.0
O2751 O 0.30391 0.28413 0.25971 0.0
O2752 O 0.31044 0.28953 0.29329 0.0
O2753 O 0.29526 0.26292 0.2829 0.0
O2754 O 0.30749 0.2608 0.26146 0.0
O2755 O 0.27789 0.23753 0.25131 0.0
C2756 C 0.27441 0.2902 0.28344 0.0
C2757 C 0.29986 0.35134 0.29389 0.0
C2758 C 0.29508 0.37846 0.2951 0.0
C2759 C 0.29422 0.36266 0.28663 0.0
C2760 C 0.30207 0.38324 0.31085 0.0
C2761 C 0.30712 0.35608 0.3096 0.0
C2762 C 0.30833 0.3721 0.31799 0.0
C2763 C 0.28395 0.2971 0.2415 0.0
C2764 C 0.29551 0.33433 0.28554 0.0
C2765 C 0.36614 0.33598 0.29447 0.0
C2766 C 0.36659 0.3347 0.27783 0.0
C2767 C 0.31395 0.27582 0.26096 0.0
C2768 C 0.29188 0.22576 0.23133 0.0
C2769 C 0.30241 0.22128 0.24152 0.0
C2770 C 0.30891 0.20785 0.23607 0.0
C2771 C 0.30519 0.19937 0.22009 0.0
C2772 C 0.2883 0.21731 0.21544 0.0
C2773 C 0.29503 0.20421 0.20982 0.0
C2774 C 0.30519 0.2738 0.29402 0.0
C2775 C 0.28341 0.23816 0.23735 0.0
H2776 H 0.28816 0.35882 0.27468 0.0
H2777 H 0.30252 0.39544 0.31759 0.0
H2778 H 0.31132 0.34737 0.31557 0.0
H2779 H 0.3137 0.37572 0.33017 0.0
H2780 H 0.30507 0.22786 0.25382 0.0
H2781 H 0.30967 0.18865 0.21567 0.0
H2782 H 0.28003 0.22061 0.20751 0.0
H2783 H 0.29204 0.1975 0.19762 0.0
Eu2784 Eu 0.54087 0.5582 0.02634 0.0
C2785 C 0.55817 0.50221 0.97701 0.0
C2786 C 0.53524 0.49282 0.95829 0.0
C2787 C 0.55979 0.48744 0.95009 0.0
C2788 C 0.54253 0.50094 0.97358 0.0
C2789 C 0.56694 0.49526 0.96538 0.0
C2790 C 0.54398 0.48623 0.94655 0.0
C2791 C 0.58891 0.50298 0.98524 0.0
N2792 N 0.5647 0.50953 0.99197 0.0
C2793 C 0.57969 0.50944 0.99642 0.0
C2794 C 0.58253 0.49596 0.9696 0.0
Eu2795 Eu 0.54836 0.5192 0.01075 0.0
N2796 N 0.53436 0.50725 0.98527 0.0
C2797 C 0.51867 0.5053 0.98248 0.0
C2798 C 0.51932 0.49129 0.95532 0.0
C2799 C 0.51101 0.49751 0.9675 0.0
H2800 H 0.58454 0.51452 0.00863 0.0
H2801 H 0.49864 0.49625 0.96539 0.0
H2802 H 0.53856 0.47997 0.93477 0.0
H2803 H 0.60086 0.50325 0.98875 0.0
H2804 H 0.51183 0.5099 0.99157 0.0
H2805 H 0.59162 0.58232 0.07026 0.0
H2806 H 0.51331 0.48515 0.94375 0.0
H2807 H 0.50453 0.56238 0.03005 0.0
H2808 H 0.57805 0.57014 0.04389 0.0
H2809 H 0.48842 0.57164 0.05123 0.0
H2810 H 0.56634 0.48205 0.941 0.0
H2811 H 0.57698 0.58963 0.09342 0.0
H2812 H 0.55155 0.592 0.10399 0.0
H2813 H 0.58964 0.49077 0.961 0.0
H2814 H 0.52352 0.58918 0.09884 0.0
N2815 N 0.55541 0.5699 0.05159 0.0
C2816 C 0.57124 0.57319 0.05364 0.0
C2817 C 0.57082 0.58416 0.08177 0.0
C2818 C 0.55472 0.58159 0.07951 0.0
C2819 C 0.57912 0.58012 0.06872 0.0
C2820 C 0.54724 0.5744 0.06407 0.0
H2821 H 0.49997 0.5818 0.07922 0.0
N2822 N 0.52476 0.56663 0.04608 0.0
C2823 C 0.50047 0.57192 0.05423 0.0
C2824 C 0.53146 0.57276 0.06122 0.0
C2825 C 0.50961 0.56669 0.0423 0.0
C2826 C 0.50703 0.57761 0.07001 0.0
C2827 C 0.52274 0.57833 0.07364 0.0
O2828 O 0.52975 0.57418 0.01468 0.0
O2829 O 0.54177 0.54123 0.00278 0.0
O2830 O 0.56848 0.53696 0.00309 0.0
O2831 O 0.56537 0.56144 0.01834 0.0
O2832 O 0.52146 0.54876 0.00663 0.0
O2833 O 0.55368 0.58279 0.02433 0.0
O2834 O 0.55833 0.50342 0.0239 0.0
O2835 O 0.54769 0.53645 0.03398 0.0
O2836 O 0.52129 0.54017 0.03422 0.0
O2837 O 0.52343 0.51603 0.01768 0.0
O2838 O 0.56788 0.52842 0.03063 0.0
O2839 O 0.53501 0.49473 0.01256 0.0
C2840 C 0.52883 0.54179 0.99572 0.0
C2841 C 0.53938 0.60272 0.02046 0.0
C2842 C 0.5426 0.62974 0.01343 0.0
C2843 C 0.54572 0.61401 0.01098 0.0
C2844 C 0.53296 0.63401 0.02536 0.0
C2845 C 0.5298 0.6071 0.03236 0.0
C2846 C 0.52656 0.62271 0.03473 0.0
C2847 C 0.57348 0.55284 0.009 0.0
C2848 C 0.54198 0.5861 0.01669 0.0
C2849 C 0.53005 0.58492 0.08913 0.0
C2850 C 0.546 0.58653 0.09206 0.0
C2851 C 0.56073 0.53637 0.04101 0.0
C2852 C 0.54889 0.47488 0.01795 0.0
C2853 C 0.54296 0.46396 0.02796 0.0
C2854 C 0.54664 0.44852 0.0262 0.0
C2855 C 0.5563 0.44403 0.01443 0.0
C2856 C 0.55841 0.47024 0.00608 0.0
C2857 C 0.56214 0.45487 0.00439 0.0
C2858 C 0.51584 0.52459 0.02766 0.0
C2859 C 0.54611 0.49149 0.0212 0.0
H2860 H 0.55303 0.61056 0.00169 0.0
H2861 H 0.53023 0.64603 0.02728 0.0
H2862 H 0.52471 0.59846 0.03966 0.0
H2863 H 0.51904 0.62603 0.0438 0.0
H2864 H 0.53571 0.46754 0.03728 0.0
H2865 H 0.55932 0.43216 0.01304 0.0
H2866 H 0.56311 0.4785 0.99829 0.0
H2867 H 0.56962 0.45139 0.99534 0.0
Eu2868 Eu 0.81231 0.30124 0.26358 0.0
C2869 C 0.77424 0.24776 0.29234 0.0
C2870 C 0.7776 0.22303 0.2749 0.0
C2871 C 0.77181 0.22215 0.30241 0.0
C2872 C 0.77725 0.23989 0.27732 0.0
C2873 C 0.77096 0.2387 0.30478 0.0
C2874 C 0.77522 0.21439 0.28757 0.0
C2875 C 0.76427 0.26229 0.32063 0.0
N2876 N 0.77335 0.26379 0.29451 0.0
C2877 C 0.76769 0.27083 0.30814 0.0
C2878 C 0.76618 0.24625 0.31908 0.0
Eu2879 Eu 0.77746 0.27647 0.27177 0.0
N2880 N 0.77891 0.24827 0.26491 0.0
C2881 C 0.78039 0.24012 0.24977 0.0
C2882 C 0.7798 0.21505 0.25964 0.0
C2883 C 0.78105 0.22359 0.24703 0.0
H2884 H 0.76626 0.28334 0.30967 0.0
H2885 H 0.78255 0.21745 0.23511 0.0
H2886 H 0.77549 0.20149 0.28584 0.0
H2887 H 0.76019 0.26812 0.33148 0.0
H2888 H 0.7816 0.24603 0.23955 0.0
H2889 H 0.80435 0.3561 0.30344 0.0
H2890 H 0.78019 0.20217 0.2574 0.0
H2891 H 0.82202 0.29638 0.2254 0.0
H2892 H 0.8063 0.32722 0.29614 0.0
H2893 H 0.82657 0.31285 0.20403 0.0
H2894 H 0.76943 0.21511 0.31188 0.0
H2895 H 0.80686 0.37375 0.28291 0.0
H2896 H 0.81179 0.37703 0.25469 0.0
H2897 H 0.76347 0.23962 0.32879 0.0
H2898 H 0.81768 0.36527 0.22773 0.0
N2899 N 0.80938 0.32834 0.27162 0.0
C2900 C 0.80732 0.33476 0.28706 0.0
C2901 C 0.80761 0.36103 0.27961 0.0
C2902 C 0.81023 0.35451 0.26392 0.0
C2903 C 0.80621 0.35113 0.29124 0.0
C2904 C 0.81103 0.33785 0.26019 0.0
H2905 H 0.82321 0.34147 0.20879 0.0
N2906 N 0.81516 0.31517 0.24166 0.0
C2907 C 0.8229 0.31808 0.21537 0.0
C2908 C 0.81405 0.33111 0.24484 0.0
C2909 C 0.82027 0.3088 0.22745 0.0
C2910 C 0.82098 0.33422 0.21811 0.0
C2911 C 0.81675 0.34101 0.23304 0.0
O2912 O 0.83488 0.29984 0.25483 0.0
O2913 O 0.80299 0.27647 0.27047 0.0
O2914 O 0.79101 0.28817 0.29567 0.0
O2915 O 0.81557 0.30029 0.28972 0.0
O2916 O 0.81618 0.27645 0.25119 0.0
O2917 O 0.83336 0.31613 0.27763 0.0
O2918 O 0.75746 0.28397 0.28231 0.0
O2919 O 0.78879 0.30331 0.27207 0.0
O2920 O 0.79642 0.29487 0.24106 0.0
O2921 O 0.7787 0.27194 0.24516 0.0
O2922 O 0.76749 0.29434 0.2594 0.0
O2923 O 0.75446 0.26138 0.26377 0.0
C2924 C 0.80946 0.26731 0.26064 0.0
C2925 C 0.85881 0.31625 0.26884 0.0
C2926 C 0.8832 0.31908 0.28408 0.0
C2927 C 0.86708 0.31424 0.28254 0.0
C2928 C 0.891 0.32606 0.27205 0.0
C2929 C 0.86661 0.32302 0.25675 0.0
C2930 C 0.88271 0.32801 0.25843 0.0
C2931 C 0.80567 0.29542 0.29987 0.0
C2932 C 0.84208 0.31085 0.26695 0.0
C2933 C 0.81568 0.3575 0.23666 0.0
C2934 C 0.81237 0.36421 0.25203 0.0
C2935 C 0.77807 0.30747 0.26405 0.0
C2936 C 0.73137 0.26804 0.27441 0.0
C2937 C 0.7216 0.26392 0.26016 0.0
C2938 C 0.70558 0.261 0.26086 0.0
C2939 C 0.69937 0.26215 0.27584 0.0
C2940 C 0.72513 0.26942 0.28933 0.0
C2941 C 0.70913 0.26638 0.29001 0.0
C2942 C 0.78567 0.28158 0.23591 0.0
C2943 C 0.74804 0.27112 0.27365 0.0
H2944 H 0.86107 0.30866 0.29174 0.0
H2945 H 0.90353 0.32965 0.27308 0.0
H2946 H 0.86024 0.32449 0.24607 0.0
H2947 H 0.88876 0.33324 0.2491 0.0
H2948 H 0.72643 0.2632 0.24861 0.0
H2949 H 0.68696 0.26015 0.27655 0.0
H2950 H 0.73262 0.27271 0.30041 0.0
H2951 H 0.70428 0.26743 0.30151 0.0
Eu2952 Eu 0.0474 0.52743 0.53689 0.0
C2953 C 0.01003 0.55187 0.4832 0.0
C2954 C 0.99466 0.52655 0.4674 0.0
C2955 C 0.98564 0.55185 0.46881 0.0
C2956 C 0.00804 0.53525 0.47742 0.0
C2957 C 0.99906 0.56045 0.47863 0.0
C2958 C 0.9834 0.5349 0.46329 0.0
C2959 C 0.01585 0.58559 0.49302 0.0
N2960 N 0.02295 0.55978 0.4929 0.0
C2961 C 0.02633 0.57652 0.49728 0.0
C2962 C 0.00205 0.57749 0.48381 0.0
Eu2963 Eu 0.04067 0.54402 0.49921 0.0
N2964 N 0.01912 0.52755 0.48172 0.0
C2965 C 0.01781 0.51123 0.47567 0.0
C2966 C 0.993 0.50973 0.46178 0.0
C2967 C 0.00469 0.50207 0.46585 0.0
H2968 H 0.03709 0.58281 0.50429 0.0
H2969 H 0.00359 0.48908 0.46145 0.0
H2970 H 0.97303 0.52841 0.45566 0.0
H2971 H 0.01845 0.5988 0.49677 0.0
H2972 H 0.02655 0.50493 0.47872 0.0
H2973 H 0.0811 0.58525 0.57436 0.0
H2974 H 0.98285 0.5026 0.45417 0.0
H2975 H 0.05366 0.48992 0.53468 0.0
H2976 H 0.05864 0.56753 0.55817 0.0
H2977 H 0.07413 0.47631 0.54257 0.0
H2978 H 0.97701 0.55821 0.46529 0.0
H2979 H 0.10391 0.57439 0.58076 0.0
H2980 H 0.11638 0.55036 0.579 0.0
H2981 H 0.99394 0.58454 0.48049 0.0
H2982 H 0.11455 0.52074 0.57036 0.0
N2983 N 0.06798 0.54592 0.55485 0.0
C2984 C 0.0681 0.56207 0.56083 0.0
C2985 C 0.09387 0.56628 0.57369 0.0
C2986 C 0.09349 0.54968 0.56834 0.0
C2987 C 0.08102 0.57243 0.57011 0.0
C2988 C 0.08017 0.53965 0.55902 0.0
H2989 H 0.09871 0.493 0.55716 0.0
N2990 N 0.0665 0.51397 0.54483 0.0
C2991 C 0.07583 0.48953 0.5457 0.0
C2992 C 0.07937 0.52317 0.55382 0.0
C2993 C 0.06425 0.49725 0.54133 0.0
C2994 C 0.08968 0.49899 0.55392 0.0
C2995 C 0.09153 0.51601 0.55825 0.0
O2996 O 0.03553 0.50785 0.54836 0.0
O2997 O 0.03168 0.52841 0.51638 0.0
O2998 O 0.02913 0.55725 0.51851 0.0
O2999 O 0.03826 0.55038 0.54239 0.0
O3000 O 0.0292 0.50585 0.52284 0.0
O3001 O 0.03301 0.53295 0.55603 0.0
O3002 O 0.05572 0.56272 0.48919 0.0
O3003 O 0.05654 0.54249 0.51934 0.0
O3004 O 0.05863 0.51399 0.51756 0.0
O3005 O 0.04946 0.52052 0.49359 0.0
O3006 O 0.05934 0.56524 0.51298 0.0
O3007 O 0.05027 0.53727 0.47655 0.0
C3008 C 0.02355 0.51409 0.51351 0.0
C3009 C 0.03188 0.51662 0.57549 0.0
C3010 C 0.02336 0.52323 0.60181 0.0
C3011 C 0.02252 0.52402 0.58561 0.0
C3012 C 0.0338 0.5151 0.60811 0.0
C3013 C 0.04242 0.50846 0.58161 0.0
C3014 C 0.04332 0.5077 0.59796 0.0
C3015 C 0.03098 0.55887 0.53425 0.0
C3016 C 0.03015 0.51797 0.55873 0.0
C3017 C 0.10498 0.52598 0.56709 0.0
C3018 C 0.106 0.54282 0.57205 0.0
C3019 C 0.06464 0.55682 0.52234 0.0
C3020 C 0.0551 0.55792 0.46115 0.0
C3021 C 0.06557 0.55492 0.45003 0.0
C3022 C 0.06516 0.56082 0.43576 0.0
C3023 C 0.05408 0.56962 0.43236 0.0
C3024 C 0.04373 0.56647 0.45781 0.0
C3025 C 0.04324 0.57229 0.44337 0.0
C3026 C 0.05692 0.51208 0.50175 0.0
C3027 C 0.05696 0.55246 0.47627 0.0
H3028 H 0.01437 0.53031 0.58082 0.0
H3029 H 0.03431 0.51416 0.6207 0.0
H3030 H 0.04986 0.50271 0.57386 0.0
H3031 H 0.0513 0.50128 0.60273 0.0
H3032 H 0.07435 0.5483 0.45264 0.0
H3033 H 0.05378 0.57427 0.42125 0.0
H3034 H 0.03544 0.56881 0.46631 0.0
H3035 H 0.03457 0.57898 0.44081 0.0
Eu3036 Eu 0.77555 0.79411 0.26789 0.0
C3037 C 0.82946 0.77186 0.2981 0.0
C3038 C 0.8399 0.79556 0.31899 0.0
C3039 C 0.84162 0.7684 0.32323 0.0
C3040 C 0.83205 0.78859 0.30367 0.0
C3041 C 0.83468 0.76166 0.30763 0.0
C3042 C 0.84422 0.78533 0.32892 0.0
C3043 C 0.82775 0.73928 0.28488 0.0
N3044 N 0.82302 0.76575 0.28286 0.0
C3045 C 0.82282 0.7499 0.2759 0.0
C3046 C 0.83343 0.74511 0.30092 0.0
Eu3047 Eu 0.8143 0.7842 0.26847 0.0
N3048 N 0.82801 0.79817 0.29366 0.0
C3049 C 0.83254 0.81493 0.2979 0.0
C3050 C 0.84383 0.81265 0.32363 0.0
C3051 C 0.84042 0.82236 0.31288 0.0
H3052 H 0.81851 0.7454 0.26343 0.0
H3053 H 0.84373 0.83562 0.31618 0.0
H3054 H 0.85009 0.79046 0.34077 0.0
H3055 H 0.82718 0.72663 0.27942 0.0
H3056 H 0.83005 0.82288 0.29003 0.0
H3057 H 0.74762 0.74461 0.2177 0.0
H3058 H 0.84991 0.81845 0.33525 0.0
H3059 H 0.77026 0.83242 0.27486 0.0
H3060 H 0.76003 0.7562 0.24465 0.0
H3061 H 0.76201 0.85218 0.25986 0.0
H3062 H 0.84555 0.76071 0.33078 0.0
H3063 H 0.7422 0.76286 0.19941 0.0
H3064 H 0.74191 0.79136 0.19533 0.0
H3065 H 0.83735 0.73689 0.30784 0.0
H3066 H 0.74581 0.82077 0.20682 0.0
N3067 N 0.76218 0.78125 0.2422 0.0
C3068 C 0.75776 0.76457 0.23716 0.0
C3069 C 0.74771 0.76813 0.21138 0.0
C3070 C 0.75129 0.78511 0.2169 0.0
C3071 C 0.75067 0.75781 0.2217 0.0
C3072 C 0.7585 0.79136 0.2326 0.0
H3073 H 0.75298 0.8435 0.23098 0.0
N3074 N 0.76671 0.81316 0.25446 0.0
C3075 C 0.76176 0.8398 0.25378 0.0
C3076 C 0.76084 0.80787 0.23896 0.0
C3077 C 0.76641 0.82862 0.26222 0.0
C3078 C 0.75672 0.83486 0.23748 0.0
C3079 C 0.75585 0.81862 0.22995 0.0
O3080 O 0.76261 0.80425 0.28709 0.0
O3081 O 0.79518 0.79009 0.28302 0.0
O3082 O 0.79743 0.76087 0.27326 0.0
O3083 O 0.77308 0.76679 0.26974 0.0
O3084 O 0.78709 0.81112 0.29057 0.0
O3085 O 0.75313 0.78019 0.27345 0.0
O3086 O 0.8263 0.77399 0.24849 0.0
O3087 O 0.79465 0.78807 0.25312 0.0
O3088 O 0.79229 0.8179 0.26443 0.0
O3089 O 0.81656 0.81127 0.26543 0.0
O3090 O 0.8025 0.76653 0.2465 0.0
O3091 O 0.83766 0.79671 0.26356 0.0
C3092 C 0.79641 0.80229 0.29431 0.0
C3093 C 0.73528 0.7951 0.28563 0.0
C3094 C 0.7105 0.7938 0.29795 0.0
C3095 C 0.72534 0.79001 0.29736 0.0
C3096 C 0.706 0.80289 0.28692 0.0
C3097 C 0.73026 0.80403 0.27476 0.0
C3098 C 0.7158 0.80799 0.27551 0.0
C3099 C 0.78199 0.75642 0.27205 0.0
C3100 C 0.75102 0.79161 0.28497 0.0
C3101 C 0.74952 0.81265 0.214 0.0
C3102 C 0.74729 0.79591 0.20746 0.0
C3103 C 0.79335 0.77537 0.2423 0.0
C3104 C 0.85378 0.78044 0.24959 0.0
C3105 C 0.86518 0.78737 0.23991 0.0
C3106 C 0.87892 0.78133 0.23788 0.0
C3107 C 0.88058 0.76799 0.24515 0.0
C3108 C 0.85635 0.76759 0.25698 0.0
C3109 C 0.86949 0.76129 0.25462 0.0
C3110 C 0.80764 0.82196 0.26437 0.0
C3111 C 0.83878 0.78565 0.25122 0.0
H3112 H 0.72905 0.78309 0.30584 0.0
H3113 H 0.69479 0.80607 0.28716 0.0
H3114 H 0.73755 0.808 0.26569 0.0
H3115 H 0.71213 0.81501 0.26712 0.0
H3116 H 0.86342 0.79738 0.23416 0.0
H3117 H 0.89057 0.76261 0.2435 0.0
H3118 H 0.84807 0.76218 0.26446 0.0
H3119 H 0.87108 0.75112 0.26018 0.0
Eu3120 Eu 0.8017 0.28014 0.75425 0.0
C3121 C 0.78208 0.33537 0.80399 0.0
C3122 C 0.80679 0.35066 0.81758 0.0
C3123 C 0.78466 0.36326 0.81879 0.0
C3124 C 0.79745 0.336 0.80844 0.0
C3125 C 0.77553 0.34901 0.8092 0.0
C3126 C 0.80026 0.36412 0.82291 0.0
C3127 C 0.75112 0.33341 0.79557 0.0
N3128 N 0.77349 0.32152 0.79457 0.0
C3129 C 0.75805 0.32025 0.79077 0.0
C3130 C 0.75991 0.34789 0.80479 0.0
Eu3131 Eu 0.78461 0.29819 0.79012 0.0
N3132 N 0.80343 0.32268 0.80322 0.0
C3133 C 0.81917 0.32423 0.80547 0.0
C3134 C 0.82254 0.35161 0.82082 0.0
C3135 C 0.8288 0.33845 0.81443 0.0
H3136 H 0.75076 0.30889 0.78435 0.0
H3137 H 0.84114 0.33933 0.81617 0.0
H3138 H 0.80725 0.37534 0.83008 0.0
H3139 H 0.73892 0.33224 0.7924 0.0
H3140 H 0.82483 0.31503 0.7998 0.0
H3141 H 0.75043 0.23845 0.71982 0.0
H3142 H 0.83007 0.36265 0.82771 0.0
H3143 H 0.83693 0.2733 0.7619 0.0
H3144 H 0.76424 0.2628 0.73875 0.0
H3145 H 0.85108 0.25136 0.7554 0.0
H3146 H 0.77978 0.37377 0.82297 0.0
H3147 H 0.76357 0.21607 0.71032 0.0
H3148 H 0.78744 0.20485 0.71097 0.0
H3149 H 0.75448 0.35805 0.80864 0.0
H3150 H 0.81427 0.20773 0.72173 0.0
N3151 N 0.78566 0.25513 0.73985 0.0
C3152 C 0.7705 0.25357 0.73455 0.0
C3153 C 0.76984 0.22691 0.71863 0.0
C3154 C 0.78519 0.22831 0.72434 0.0
C3155 C 0.76241 0.23953 0.72392 0.0
C3156 C 0.79283 0.24266 0.73522 0.0
H3157 H 0.83786 0.22472 0.73868 0.0
N3158 N 0.81514 0.25851 0.75114 0.0
C3159 C 0.83888 0.24908 0.75154 0.0
C3160 C 0.80794 0.24431 0.74123 0.0
C3161 C 0.83069 0.26136 0.7555 0.0
C3162 C 0.8314 0.2341 0.74208 0.0
C3163 C 0.81587 0.23171 0.73644 0.0
O3164 O 0.8226 0.28925 0.74346 0.0
O3165 O 0.79695 0.30229 0.76899 0.0
O3166 O 0.77 0.30015 0.76742 0.0
O3167 O 0.78068 0.28863 0.74466 0.0
O3168 O 0.81964 0.30354 0.76351 0.0
O3169 O 0.80007 0.28352 0.72916 0.0
O3170 O 0.76083 0.28691 0.79349 0.0
O3171 O 0.78372 0.27632 0.77115 0.0
O3172 O 0.81493 0.27665 0.77702 0.0
O3173 O 0.80662 0.29141 0.79989 0.0
O3174 O 0.78407 0.27268 0.79493 0.0
O3175 O 0.77666 0.30062 0.81405 0.0
C3176 C 0.80997 0.3116 0.76981 0.0
C3177 C 0.82329 0.29323 0.71628 0.0
C3178 C 0.82396 0.30503 0.69244 0.0
C3179 C 0.81589 0.29966 0.70488 0.0
C3180 C 0.83943 0.3039 0.69126 0.0
C3181 C 0.83883 0.2922 0.71525 0.0
C3182 C 0.84685 0.29749 0.7027 0.0
C3183 C 0.76997 0.29571 0.75153 0.0
C3184 C 0.81508 0.28864 0.72978 0.0
C3185 C 0.80832 0.21746 0.72562 0.0
C3186 C 0.79308 0.21585 0.71944 0.0
C3187 C 0.78266 0.26576 0.78001 0.0
C3188 C 0.75668 0.27906 0.81829 0.0
C3189 C 0.76658 0.27145 0.82608 0.0
C3190 C 0.76041 0.25917 0.83443 0.0
C3191 C 0.74434 0.25458 0.83521 0.0
C3192 C 0.74064 0.27456 0.81914 0.0
C3193 C 0.7345 0.26235 0.82764 0.0
C3194 C 0.81631 0.28288 0.79272 0.0
C3195 C 0.76285 0.29155 0.80907 0.0
H3196 H 0.804 0.30084 0.70583 0.0
H3197 H 0.84581 0.30829 0.6817 0.0
H3198 H 0.84475 0.28738 0.72416 0.0
H3199 H 0.85884 0.29679 0.70192 0.0
H3200 H 0.77902 0.27502 0.8257 0.0
H3201 H 0.73948 0.24526 0.84197 0.0
H3202 H 0.73291 0.28048 0.81322 0.0
H3203 H 0.72213 0.25893 0.82838 0.0
Eu3204 Eu 0.80726 0.81472 0.77982 0.0
C3205 C 0.75131 0.75743 0.7489 0.0
C3206 C 0.7376 0.7515 0.77194 0.0
C3207 C 0.72379 0.74458 0.74541 0.0
C3208 C 0.75136 0.75781 0.76523 0.0
C3209 C 0.73758 0.75045 0.73874 0.0
C3210 C 0.7238 0.74512 0.76199 0.0
C3211 C 0.75247 0.75367 0.71598 0.0
N3212 N 0.76488 0.76285 0.7428 0.0
C3213 C 0.76577 0.76026 0.72653 0.0
C3214 C 0.73825 0.74894 0.72212 0.0
Eu3215 Eu 0.78744 0.77233 0.76108 0.0
N3216 N 0.76496 0.76376 0.77447 0.0
C3217 C 0.76554 0.76349 0.79057 0.0
C3218 C 0.73819 0.75137 0.78841 0.0
C3219 C 0.75224 0.75732 0.79775 0.0
H3220 H 0.77684 0.76326 0.72171 0.0
H3221 H 0.75284 0.75735 0.81053 0.0
H3222 H 0.71315 0.74025 0.76695 0.0
H3223 H 0.75324 0.75199 0.70313 0.0
H3224 H 0.77601 0.76856 0.79825 0.0
H3225 H 0.83386 0.83607 0.72648 0.0
H3226 H 0.7279 0.7466 0.79401 0.0
H3227 H 0.82434 0.82058 0.81678 0.0
H3228 H 0.81355 0.82269 0.73984 0.0
H3229 H 0.85 0.83009 0.83135 0.0
H3230 H 0.71314 0.73923 0.7378 0.0
H3231 H 0.86008 0.84659 0.73999 0.0
H3232 H 0.87811 0.85057 0.76412 0.0
H3233 H 0.72798 0.7436 0.71393 0.0
H3234 H 0.8828 0.84803 0.79214 0.0
N3235 N 0.82677 0.82532 0.76268 0.0
C3236 C 0.82429 0.82719 0.74698 0.0
C3237 C 0.85093 0.84064 0.7464 0.0
C3238 C 0.8538 0.8386 0.76213 0.0
C3239 C 0.83616 0.83483 0.7388 0.0
C3240 C 0.84146 0.83073 0.77007 0.0
H3241 H 0.87259 0.84018 0.81706 0.0
N3242 N 0.83234 0.82219 0.79366 0.0
C3243 C 0.84871 0.82947 0.81849 0.0
C3244 C 0.8443 0.82896 0.78584 0.0
C3245 C 0.83419 0.82355 0.81001 0.0
C3246 C 0.86137 0.8352 0.8104 0.0
C3247 C 0.85921 0.83549 0.79404 0.0
O3248 O 0.80032 0.8248 0.80317 0.0
O3249 O 0.78629 0.79459 0.77863 0.0
O3250 O 0.78087 0.78861 0.74496 0.0
O3251 O 0.79539 0.81545 0.75541 0.0
O3252 O 0.78291 0.81799 0.77635 0.0
O3253 O 0.81278 0.84099 0.78852 0.0
O3254 O 0.79655 0.75566 0.7438 0.0
O3255 O 0.81002 0.79046 0.76826 0.0
O3256 O 0.81139 0.79729 0.79667 0.0
O3257 O 0.79856 0.77061 0.7849 0.0
O3258 O 0.80585 0.77945 0.74452 0.0
O3259 O 0.78848 0.7479 0.76566 0.0
C3260 C 0.77636 0.80304 0.77709 0.0
C3261 C 0.79667 0.85181 0.80652 0.0
C3262 C 0.78096 0.86999 0.79949 0.0
C3263 C 0.78885 0.85762 0.79486 0.0
C3264 C 0.78059 0.87639 0.81584 0.0
C3265 C 0.79638 0.85822 0.82285 0.0
C3266 C 0.7883 0.87048 0.82749 0.0
C3267 C 0.78624 0.80415 0.74404 0.0
C3268 C 0.80603 0.83992 0.80177 0.0
C3269 C 0.87135 0.84298 0.78601 0.0
C3270 C 0.86865 0.84451 0.77009 0.0
C3271 C 0.81618 0.78875 0.7553 0.0
C3272 C 0.79052 0.72725 0.74347 0.0
C3273 C 0.79756 0.71633 0.7498 0.0
C3274 C 0.79784 0.7011 0.7406 0.0
C3275 C 0.78973 0.69622 0.72529 0.0
C3276 C 0.78254 0.72255 0.72812 0.0
C3277 C 0.78194 0.70689 0.71917 0.0
C3278 C 0.80703 0.78137 0.79682 0.0
C3279 C 0.79448 0.74409 0.75219 0.0
H3280 H 0.78915 0.8528 0.78219 0.0
H3281 H 0.77464 0.88617 0.81953 0.0
H3282 H 0.80258 0.85391 0.83196 0.0
H3283 H 0.7882 0.87556 0.84008 0.0
H3284 H 0.80358 0.72014 0.76176 0.0
H3285 H 0.78977 0.68444 0.71793 0.0
H3286 H 0.77723 0.73104 0.72289 0.0
H3287 H 0.77591 0.70325 0.70728 0.0
Eu3288 Eu 0.52538 0.53121 0.51088 0.0
C3289 C 0.57813 0.58397 0.54195 0.0
C3290 C 0.58366 0.59976 0.52084 0.0
C3291 C 0.58864 0.61354 0.54869 0.0
C3292 C 0.57839 0.58453 0.52573 0.0
C3293 C 0.58379 0.59844 0.55357 0.0
C3294 C 0.58848 0.61421 0.53236 0.0
C3295 C 0.58122 0.58191 0.57409 0.0
N3296 N 0.57335 0.56924 0.54643 0.0
C3297 C 0.57562 0.56799 0.56222 0.0
C3298 C 0.58504 0.59727 0.56979 0.0
Eu3299 Eu 0.56506 0.54581 0.52547 0.0
N3300 N 0.57401 0.57028 0.51477 0.0
C3301 C 0.57516 0.57067 0.49875 0.0
C3302 C 0.58427 0.60006 0.50449 0.0
C3303 C 0.58013 0.58544 0.49343 0.0
H3304 H 0.57287 0.55616 0.56583 0.0
H3305 H 0.58072 0.5855 0.48072 0.0
H3306 H 0.59249 0.62594 0.52876 0.0
H3307 H 0.58262 0.58075 0.58656 0.0
H3308 H 0.57217 0.55991 0.48961 0.0
H3309 H 0.51228 0.48902 0.55368 0.0
H3310 H 0.58818 0.61149 0.5003 0.0
H3311 H 0.51818 0.52242 0.47011 0.0
H3312 H 0.52228 0.51493 0.54575 0.0
H3313 H 0.5086 0.49853 0.44865 0.0
H3314 H 0.59288 0.62474 0.55745 0.0
H3315 H 0.50174 0.46418 0.53323 0.0
H3316 H 0.49551 0.45115 0.50445 0.0
H3317 H 0.58945 0.60806 0.579 0.0
H3318 H 0.49507 0.45358 0.47605 0.0
N3319 N 0.51709 0.50601 0.52042 0.0
C3320 C 0.51733 0.50476 0.53635 0.0
C3321 C 0.50599 0.4758 0.5295 0.0
C3322 C 0.50579 0.47691 0.51327 0.0
C3323 C 0.51184 0.48978 0.54107 0.0
C3324 C 0.51157 0.49233 0.50898 0.0
H3325 H 0.50011 0.47097 0.45525 0.0
N3326 N 0.5172 0.50853 0.48898 0.0
C3327 C 0.50968 0.49688 0.46099 0.0
C3328 C 0.5117 0.49361 0.4929 0.0
C3329 C 0.51547 0.51038 0.47327 0.0
C3330 C 0.50483 0.48139 0.46478 0.0
C3331 C 0.50553 0.47963 0.48085 0.0
O3332 O 0.51092 0.54082 0.49509 0.0
O3333 O 0.54594 0.55225 0.51192 0.0
O3334 O 0.54984 0.54863 0.54741 0.0
O3335 O 0.52395 0.53967 0.53761 0.0
O3336 O 0.52624 0.55773 0.52133 0.0
O3337 O 0.50122 0.53019 0.51507 0.0
O3338 O 0.5779 0.53529 0.54185 0.0
O3339 O 0.54456 0.52479 0.52436 0.0
O3340 O 0.54042 0.53016 0.48893 0.0
O3341 O 0.56627 0.53581 0.49884 0.0
O3342 O 0.56416 0.51941 0.51462 0.0
O3343 O 0.58971 0.54695 0.52341 0.0
C3344 C 0.53992 0.56392 0.51802 0.0
C3345 C 0.48351 0.53321 0.49465 0.0
C3346 C 0.45793 0.53869 0.49318 0.0
C3347 C 0.47278 0.54195 0.50083 0.0
C3348 C 0.45371 0.52671 0.47919 0.0
C3349 C 0.47934 0.52114 0.48068 0.0
C3350 C 0.46446 0.51797 0.47293 0.0
C3351 C 0.53476 0.54599 0.54969 0.0
C3352 C 0.49887 0.53753 0.50317 0.0
C3353 C 0.49982 0.46438 0.48515 0.0
C3354 C 0.5 0.46302 0.50131 0.0
C3355 C 0.55054 0.51313 0.51807 0.0
C3356 C 0.60546 0.54228 0.54496 0.0
C3357 C 0.61785 0.53715 0.5377 0.0
C3358 C 0.63175 0.53838 0.5468 0.0
C3359 C 0.63336 0.54527 0.56325 0.0
C3360 C 0.60704 0.54877 0.56149 0.0
C3361 C 0.62103 0.55046 0.57053 0.0
C3362 C 0.55533 0.53101 0.48669 0.0
C3363 C 0.59077 0.53893 0.5351 0.0
H3364 H 0.47599 0.55136 0.5116 0.0
H3365 H 0.44222 0.52427 0.47307 0.0
H3366 H 0.48741 0.5142 0.47577 0.0
H3367 H 0.46126 0.50876 0.46209 0.0
H3368 H 0.61652 0.53179 0.52499 0.0
H3369 H 0.64395 0.54615 0.57058 0.0
H3370 H 0.5975 0.55213 0.56756 0.0
H3371 H 0.6222 0.55542 0.58328 0.0
Eu3372 Eu 0.06545 0.54131 0.0109 0.0
C3373 C 0.00736 0.5086 0.04149 0.0
C3374 C 0.99499 0.48588 0.02026 0.0
C3375 C 0.99256 0.48342 0.0482 0.0
C3376 C 0.0042 0.50188 0.02528 0.0
C3377 C 1.00126 0.49959 0.05312 0.0
C3378 C 0.98947 0.47657 0.0318 0.0
C3379 C 0.01193 0.52358 0.07356 0.0
N3380 N 0.01589 0.52419 0.04589 0.0
C3381 C 0.01781 0.532 0.0616 0.0
C3382 C 0.00381 0.50722 0.06933 0.0
Eu3383 Eu 0.02596 0.53718 0.025 0.0
N3384 N 0.00965 0.5112 0.0144 0.0
C3385 C 0.0054 0.50568 0.99836 0.0
C3386 C 0.99133 0.47982 0.00379 0.0
C3387 C 0.99637 0.48987 0.99282 0.0
H3388 H 0.0242 0.54462 0.06485 0.0
H3389 H 0.99337 0.48542 0.98007 0.0
H3390 H 0.98251 0.46419 0.02817 0.0
H3391 H 0.01372 0.52967 0.08603 0.0
H3392 H 0.00925 0.51318 0.98966 0.0
H3393 H 0.09717 0.59488 0.05448 0.0
H3394 H 0.98434 0.46756 0.99946 0.0
H3395 H 0.06921 0.53187 0.9717 0.0
H3396 H 0.0815 0.56692 0.0457 0.0
H3397 H 0.08017 0.54557 0.94993 0.0
H3398 H 0.98792 0.47623 0.05696 0.0
H3399 H 0.10654 0.61175 0.0344 0.0
H3400 H 0.10903 0.61374 0.00541 0.0
H3401 H 0.99929 0.50071 0.07862 0.0
H3402 H 0.10445 0.60032 0.97693 0.0
N3403 N 0.08151 0.56775 0.02072 0.0
C3404 C 0.08552 0.57394 0.0367 0.0
C3405 C 0.09962 0.5994 0.03043 0.0
C3406 C 0.09626 0.59265 0.01407 0.0
C3407 C 0.09441 0.5899 0.04179 0.0
C3408 C 0.08713 0.57655 0.00953 0.0
H3409 H 0.09391 0.57483 0.95614 0.0
N3410 N 0.07623 0.55335 0.98972 0.0
C3411 C 0.08138 0.55236 0.96213 0.0
C3412 C 0.08446 0.56909 0.99353 0.0
C3413 C 0.0752 0.54465 0.97443 0.0
C3414 C 0.08909 0.56889 0.96567 0.0
C3415 C 0.09096 0.57739 0.98158 0.0
O3416 O 0.07573 0.52084 0.00137 0.0
O3417 O 0.04371 0.52432 0.01471 0.0
O3418 O 0.03998 0.5271 0.04173 0.0
O3419 O 0.06477 0.54058 0.03735 0.0
O3420 O 0.05311 0.51836 0.99333 0.0
O3421 O 0.08686 0.53796 0.02263 0.0
O3422 O 0.01604 0.55759 0.03537 0.0
O3423 O 0.04756 0.55426 0.02093 0.0
O3424 O 0.05159 0.55018 0.99303 0.0
O3425 O 0.02635 0.53912 0.99883 0.0
O3426 O 0.03849 0.55994 0.04263 0.0
O3427 O 0.00388 0.54044 0.01456 0.0
C3428 C 0.04226 0.5135 0.00217 0.0
C3429 C 0.10255 0.52383 0.00612 0.0
C3430 C 0.12507 0.51159 0.0057 0.0
C3431 C 0.11098 0.51338 0.01188 0.0
C3432 C 0.13049 0.52005 0.99353 0.0
C3433 C 0.10819 0.53228 0.99402 0.0
C3434 C 0.12204 0.53028 0.98768 0.0
C3435 C 0.05496 0.53227 0.04582 0.0
C3436 C 0.08748 0.52498 0.01213 0.0
C3437 C 0.0995 0.59367 0.98595 0.0
C3438 C 0.10211 0.60131 0.00217 0.0
C3439 C 0.04905 0.56503 0.03354 0.0
C3440 C 0.98911 0.55487 0.03224 0.0
C3441 C 0.97924 0.56349 0.02556 0.0
C3442 C 0.96602 0.56641 0.03317 0.0
C3443 C 0.96308 0.56079 0.04767 0.0
C3444 C 0.98562 0.54904 0.04643 0.0
C3445 C 0.97273 0.55208 0.05412 0.0
C3446 C 0.03643 0.54628 0.98984 0.0
C3447 C 0.00376 0.55347 0.02525 0.0
H3448 H 0.10666 0.50674 0.02118 0.0
H3449 H 0.14125 0.51868 0.98851 0.0
H3450 H 0.10189 0.54033 0.9894 0.0
H3451 H 0.12626 0.5367 0.97824 0.0
H3452 H 0.98191 0.56794 0.01456 0.0
H3453 H 0.9534 0.56329 0.0542 0.0
H3454 H 0.99304 0.54247 0.05179 0.0
H3455 H 0.97031 0.54783 0.06526 0.0
C3456 C 0.02411 0.19656 0.98812 0.0
C3457 C 0.01817 0.19512 0.97212 0.0
C3458 C 0.02692 0.18279 0.99386 0.0
C3459 C 0.03674 0.14319 0.97972 0.0
H3460 H 0.0238 0.1321 0.02016 0.0
C3461 C 0.04131 0.08124 0.99722 0.0
C3462 C 0.04251 0.08004 0.01349 0.0
C3463 C 0.03977 0.09599 0.99268 0.0
C3464 C 0.02784 0.13514 0.00899 0.0
H3465 H 0.01034 0.1781 0.9497 0.0
H3466 H 0.01553 0.15412 0.95961 0.0
H3467 H 0.01762 0.15618 0.01157 0.0
H3468 H 0.04335 0.09326 0.03781 0.0
H3469 H 0.04164 0.11932 0.03006 0.0
H3470 H 0.04738 0.12263 0.97721 0.0
C3471 C 0.01791 0.16587 0.96774 0.0
C3472 C 0.02415 0.14893 0.00402 0.0
C3473 C 0.01481 0.17956 0.9621 0.0
C3474 C 0.04271 0.094 0.02517 0.0
C3475 C 0.04144 0.10885 0.02067 0.0
C3476 C 0.04068 0.1296 0.9848 0.0
C3477 C 0.02418 0.16736 0.98362 0.0
C3478 C 0.02838 0.15298 0.98922 0.0
C3479 C 0.03944 0.10996 0.00433 0.0
C3480 C 0.03614 0.12519 0.99942 0.0
H3481 H 0.02679 0.20841 0.99611 0.0
H3482 H 0.03176 0.18434 0.00615 0.0
H3483 H 0.04042 0.14617 0.96839 0.0
H3484 H 0.04061 0.07049 0.98798 0.0
H3485 H 0.038 0.09608 0.97999 0.0
C3486 C 0.15364 0.81826 0.17641 0.0
C3487 C 0.15047 0.8108 0.16003 0.0
C3488 C 0.16707 0.8172 0.1854 0.0
C3489 C 0.19812 0.79286 0.18486 0.0
H3490 H 0.21889 0.82859 0.21879 0.0
C3491 C 0.25624 0.79055 0.21915 0.0
C3492 C 0.25926 0.79809 0.23548 0.0
C3493 C 0.2435 0.7926 0.20971 0.0
C3494 C 0.2132 0.81831 0.20954 0.0
H3495 H 0.1597 0.79691 0.14035 0.0
H3496 H 0.18289 0.79517 0.15582 0.0
H3497 H 0.196 0.83115 0.20339 0.0
H3498 H 0.25123 0.81437 0.25419 0.0
H3499 H 0.22898 0.81722 0.23833 0.0
H3500 H 0.21516 0.77991 0.19108 0.0
C3501 C 0.17481 0.8015 0.16193 0.0
C3502 C 0.19994 0.81982 0.2006 0.0
C3503 C 0.1614 0.80252 0.15296 0.0
C3504 C 0.24928 0.80801 0.24187 0.0
C3505 C 0.23648 0.80989 0.23254 0.0
C3506 C 0.21133 0.79131 0.19383 0.0
C3507 C 0.17788 0.80869 0.17837 0.0
C3508 C 0.19213 0.80713 0.18805 0.0
C3509 C 0.23323 0.80218 0.21627 0.0
C3510 C 0.21917 0.80399 0.20638 0.0
H3511 H 0.14554 0.82461 0.18245 0.0
H3512 H 0.16876 0.82277 0.19802 0.0
H3513 H 0.19241 0.7826 0.17558 0.0
H3514 H 0.26363 0.78289 0.21366 0.0
H3515 H 0.24177 0.78667 0.19719 0.0
C3516 C 0.53787 0.86706 0.4868 0.0
C3517 C 0.52403 0.85627 0.47948 0.0
C3518 C 0.5386 0.88393 0.49165 0.0
C3519 C 0.51805 0.91558 0.48232 0.0
H3520 H 0.54499 0.94399 0.51795 0.0
C3521 C 0.53473 0.98542 0.48638 0.0
C3522 C 0.53688 0.99587 0.50143 0.0
C3523 C 0.53186 0.9684 0.4852 0.0
C3524 C 0.53724 0.93621 0.50808 0.0
H3525 H 0.49994 0.85509 0.47214 0.0
H3526 H 0.50103 0.88394 0.48123 0.0
H3527 H 0.5426 0.91426 0.51398 0.0
H3528 H 0.53773 0.99664 0.52714 0.0
H3529 H 0.53229 0.96679 0.5251 0.0
H3530 H 0.51246 0.93731 0.47651 0.0
C3531 C 0.51149 0.87952 0.48284 0.0
C3532 C 0.53603 0.91915 0.50567 0.0
C3533 C 0.5108 0.86278 0.47786 0.0
C3534 C 0.53581 0.9889 0.51534 0.0
C3535 C 0.53292 0.97179 0.51418 0.0
C3536 C 0.51919 0.93252 0.48477 0.0
C3537 C 0.52549 0.89046 0.48937 0.0
C3538 C 0.52648 0.9086 0.49265 0.0
C3539 C 0.53111 0.96131 0.49906 0.0
C3540 C 0.52896 0.94312 0.49752 0.0
H3541 H 0.54826 0.86255 0.48856 0.0
H3542 H 0.54961 0.89192 0.49661 0.0
H3543 H 0.51079 0.90801 0.47199 0.0
H3544 H 0.53575 0.99046 0.47548 0.0
H3545 H 0.53081 0.96083 0.47336 0.0
C3546 C 0.48699 0.31061 0.65026 0.0
C3547 C 0.49955 0.30437 0.65534 0.0
C3548 C 0.47343 0.30925 0.65843 0.0
C3549 C 0.45294 0.28632 0.68859 0.0
H3550 H 0.42783 0.31885 0.69123 0.0
C3551 C 0.40739 0.2885 0.73424 0.0
C3552 C 0.39209 0.28804 0.72848 0.0
C3553 C 0.41977 0.29173 0.72476 0.0
C3554 C 0.43466 0.30959 0.69049 0.0
H3555 H 0.5077 0.29241 0.6736 0.0
H3556 H 0.48459 0.29045 0.68796 0.0
H3557 H 0.45083 0.32193 0.67608 0.0
H3558 H 0.37824 0.29202 0.70842 0.0
H3559 H 0.40015 0.29828 0.69194 0.0
H3560 H 0.4371 0.27431 0.7034 0.0
C3561 C 0.48479 0.29586 0.6773 0.0
C3562 C 0.44788 0.3113 0.68174 0.0
C3563 C 0.49822 0.29706 0.66905 0.0
C3564 C 0.3898 0.29226 0.71331 0.0
C3565 C 0.40236 0.29576 0.70382 0.0
C3566 C 0.43994 0.28477 0.69748 0.0
C3567 C 0.47202 0.30172 0.67207 0.0
C3568 C 0.45741 0.29978 0.6808 0.0
C3569 C 0.41744 0.29496 0.70924 0.0
C3570 C 0.43068 0.29644 0.69874 0.0
H3571 H 0.48748 0.31622 0.63969 0.0
H3572 H 0.46394 0.31381 0.6538 0.0
H3573 H 0.45945 0.2768 0.68784 0.0
H3574 H 0.40978 0.28575 0.74599 0.0
H3575 H 0.43122 0.29137 0.72952 0.0
C3576 C 0.02373 0.84748 0.61169 0.0
C3577 C 0.01229 0.83318 0.60586 0.0
C3578 C 0.02597 0.8605 0.60341 0.0
C3579 C 0.02063 0.86976 0.56347 0.0
H3580 H 0.02638 0.9147 0.58625 0.0
C3581 C 0.02988 0.92289 0.52909 0.0
C3582 C 0.04104 0.937 0.53598 0.0
C3583 C 0.02458 0.91091 0.53812 0.0
C3584 C 0.02495 0.90224 0.57973 0.0
H3585 H 0.99429 0.82113 0.5868 0.0
H3586 H 0.99823 0.84398 0.57224 0.0
H3587 H 0.02079 0.89214 0.60099 0.0
H3588 H 0.05521 0.95017 0.55763 0.0
H3589 H 0.04649 0.92889 0.57339 0.0
H3590 H 0.02532 0.87968 0.54233 0.0
C3591 C 0.00543 0.84508 0.58323 0.0
C3592 C 0.02171 0.88935 0.58817 0.0
C3593 C 0.00311 0.8321 0.59159 0.0
C3594 C 0.04654 0.93931 0.55217 0.0
C3595 C 0.04146 0.92717 0.56116 0.0
C3596 C 0.02403 0.88263 0.55506 0.0
C3597 C 0.01687 0.8594 0.58909 0.0
C3598 C 0.01961 0.87301 0.58011 0.0
C3599 C 0.03062 0.91268 0.55414 0.0
C3600 C 0.0263 0.89904 0.56309 0.0
H3601 H 0.03087 0.84865 0.62274 0.0
H3602 H 0.03498 0.87133 0.60806 0.0
H3603 H 0.01928 0.85728 0.55702 0.0
H3604 H 0.02543 0.92104 0.51663 0.0
H3605 H 0.01593 0.90013 0.53245 0.0
C3606 C 0.51009 0.81638 0.82532 0.0
C3607 C 0.51224 0.80669 0.8367 0.0
C3608 C 0.49524 0.81717 0.82005 0.0
C3609 C 0.45622 0.81212 0.8335 0.0
H3610 H 0.44598 0.81784 0.79019 0.0
C3611 C 0.39676 0.81307 0.80116 0.0
C3612 C 0.3975 0.82618 0.79283 0.0
C3613 C 0.40997 0.81136 0.80966 0.0
C3614 C 0.44879 0.81635 0.80235 0.0
H3615 H 0.50068 0.78948 0.85084 0.0
H3616 H 0.47461 0.79042 0.84116 0.0
H3617 H 0.47045 0.8108 0.79665 0.0
H3618 H 0.41195 0.84875 0.78843 0.0
H3619 H 0.43517 0.84546 0.80298 0.0
H3620 H 0.43416 0.81732 0.83889 0.0
C3621 C 0.48442 0.7977 0.83663 0.0
C3622 C 0.46273 0.81232 0.80604 0.0
C3623 C 0.49931 0.79698 0.84197 0.0
C3624 C 0.4112 0.83836 0.79444 0.0
C3625 C 0.42439 0.83658 0.80284 0.0
C3626 C 0.44209 0.81592 0.8297 0.0
C3627 C 0.48229 0.80815 0.82597 0.0
C3628 C 0.46674 0.81051 0.82171 0.0
C3629 C 0.42398 0.82267 0.80979 0.0
C3630 C 0.43853 0.8184 0.81419 0.0
H3631 H 0.5199 0.82383 0.82095 0.0
H3632 H 0.49397 0.82543 0.81191 0.0
H3633 H 0.4591 0.81095 0.84573 0.0
H3634 H 0.38637 0.80345 0.80006 0.0
H3635 H 0.40954 0.80051 0.81491 0.0
C3636 C 0.4743 0.16641 0.1013 0.0
C3637 C 0.47686 0.18029 0.09405 0.0
C3638 C 0.47705 0.15173 0.09312 0.0
C3639 C 0.50689 0.14503 0.06877 0.0
H3640 H 0.49153 0.09869 0.0686 0.0
C3641 C 0.53509 0.09439 0.03924 0.0
C3642 C 0.53367 0.08029 0.04603 0.0
C3643 C 0.52867 0.10717 0.04621 0.0
C3644 C 0.49601 0.11166 0.06888 0.0
H3645 H 0.48141 0.18935 0.07201 0.0
H3646 H 0.486 0.16354 0.05758 0.0
H3647 H 0.4746 0.11776 0.07533 0.0
H3648 H 0.52667 0.06906 0.06636 0.0
H3649 H 0.51559 0.09179 0.07894 0.0
H3650 H 0.52839 0.13913 0.06275 0.0
C3651 C 0.4822 0.16404 0.06958 0.0
C3652 C 0.48627 0.12243 0.07244 0.0
C3653 C 0.47954 0.17872 0.07777 0.0
C3654 C 0.52754 0.07981 0.06087 0.0
C3655 C 0.52115 0.09267 0.06793 0.0
C3656 C 0.51664 0.13432 0.06534 0.0
C3657 C 0.48231 0.15101 0.07774 0.0
C3658 C 0.49163 0.13914 0.07228 0.0
C3659 C 0.52097 0.10599 0.06016 0.0
C3660 C 0.51126 0.11756 0.06533 0.0
H3661 H 0.47223 0.16747 0.11389 0.0
H3662 H 0.47702 0.14175 0.09959 0.0
H3663 H 0.51143 0.15801 0.06912 0.0
H3664 H 0.54055 0.0952 0.02819 0.0
H3665 H 0.52882 0.11739 0.04006 0.0
C3666 C 0.16536 0.30875 0.33254 0.0
C3667 C 0.15675 0.32091 0.33357 0.0
C3668 C 0.17737 0.30909 0.3227 0.0
C3669 C 0.20717 0.33178 0.3055 0.0
H3670 H 0.20242 0.29004 0.27624 0.0
C3671 C 0.2566 0.30623 0.27454 0.0
C3672 C 0.25926 0.29422 0.28324 0.0
C3673 C 0.2431 0.31205 0.27588 0.0
C3674 C 0.20374 0.30195 0.28393 0.0
H3675 H 0.15455 0.34366 0.32617 0.0
H3676 H 0.17612 0.34433 0.30887 0.0
H3677 H 0.17992 0.29739 0.28853 0.0
H3678 H 0.25038 0.27934 0.30044 0.0
H3679 H 0.22604 0.28834 0.30163 0.0
H3680 H 0.23133 0.33561 0.30189 0.0
C3681 C 0.1732 0.33446 0.31554 0.0
C3682 C 0.19097 0.30615 0.29093 0.0
C3683 C 0.161 0.33408 0.32541 0.0
C3684 C 0.24823 0.2879 0.29303 0.0
C3685 C 0.23446 0.29322 0.29385 0.0
C3686 C 0.21998 0.32763 0.29834 0.0
C3687 C 0.18103 0.32163 0.31379 0.0
C3688 C 0.19284 0.32056 0.30248 0.0
C3689 C 0.232 0.3055 0.28551 0.0
C3690 C 0.21838 0.31228 0.28828 0.0
H3691 H 0.1626 0.29878 0.33911 0.0
H3692 H 0.18364 0.29934 0.32178 0.0
H3693 H 0.20877 0.34287 0.31451 0.0
H3694 H 0.26526 0.31164 0.26729 0.0
H3695 H 0.24142 0.32177 0.26965 0.0
C3696 C 0.97003 0.05444 0.17878 0.0
C3697 C 0.97609 0.06742 0.19184 0.0
C3698 C 0.97702 0.05282 0.1641 0.0
C3699 C 0.00724 0.07518 0.13981 0.0
H3700 H 1.00089 0.03167 0.11377 0.0
C3701 C 0.03807 0.06047 0.07956 0.0
C3702 C 0.02919 0.04904 0.06657 0.0
C3703 C 0.03242 0.06337 0.09499 0.0
C3704 C 0.00274 0.044 0.12071 0.0
H3705 H 0.99481 0.08899 0.19888 0.0
H3706 H 0.00702 0.08609 0.17363 0.0
H3707 H 0.99008 0.0353 0.13954 0.0
H3708 H 0.00694 0.03196 0.06029 0.0
H3709 H 0.99745 0.03663 0.08673 0.0
H3710 H 0.02033 0.08367 0.12087 0.0
C3711 C 0.9966 0.07715 0.17461 0.0
C3712 C 0.99638 0.04616 0.13571 0.0
C3713 C 0.98951 0.07883 0.18933 0.0
C3714 C 0.0144 0.04074 0.06975 0.0
C3715 C 0.00889 0.04339 0.08514 0.0
C3716 C 0.01379 0.07297 0.12481 0.0
C3717 C 0.99059 0.06401 0.16159 0.0
C3718 C 0.9982 0.06182 0.14561 0.0
C3719 C 0.01773 0.05475 0.09818 0.0
C3720 C 0.01149 0.05733 0.11479 0.0
H3721 H 0.95958 0.04552 0.17972 0.0
H3722 H 0.97147 0.04277 0.15458 0.0
H3723 H 0.00903 0.08753 0.14666 0.0
H3724 H 0.0493 0.06747 0.07781 0.0
H3725 H 0.03972 0.07224 0.10451 0.0
C3726 C 0.28085 0.71148 0.45556 0.0
C3727 C 0.27323 0.69495 0.45346 0.0
C3728 C 0.28245 0.71916 0.4424 0.0
C3729 C 0.28443 0.70943 0.3993 0.0
H3730 H 0.27792 0.75342 0.4006 0.0
C3731 C 0.26737 0.73951 0.34857 0.0
C3732 C 0.27338 0.75639 0.35023 0.0
C3733 C 0.27286 0.7309 0.35925 0.0
C3734 C 0.2802 0.7413 0.40027 0.0
H3735 H 0.26053 0.67352 0.43662 0.0
H3736 H 0.26311 0.68714 0.41338 0.0
H3737 H 0.27353 0.74068 0.42399 0.0
H3738 H 0.29088 0.77735 0.36245 0.0
H3739 H 0.30015 0.76235 0.38169 0.0
H3740 H 0.29019 0.70984 0.37509 0.0
C3741 C 0.26806 0.69402 0.42513 0.0
C3742 C 0.27754 0.734 0.41354 0.0
C3743 C 0.2664 0.68635 0.43833 0.0
C3744 C 0.28606 0.7643 0.36129 0.0
C3745 C 0.29143 0.75575 0.37208 0.0
C3746 C 0.28695 0.71672 0.3859 0.0
C3747 C 0.27647 0.71031 0.42706 0.0
C3748 C 0.27948 0.71798 0.41307 0.0
C3749 C 0.28415 0.73931 0.37171 0.0
C3750 C 0.28471 0.73263 0.38634 0.0
H3751 H 0.28609 0.71821 0.46726 0.0
H3752 H 0.28896 0.73176 0.44411 0.0
H3753 H 0.2862 0.6971 0.39887 0.0
H3754 H 0.25776 0.73329 0.33978 0.0
H3755 H 0.26709 0.71821 0.35887 0.0
C3756 C 0.61693 0.01455 0.67056 0.0
C3757 C 0.63177 0.02462 0.67127 0.0
C3758 C 0.60622 0.0134 0.65769 0.0
C3759 C 0.59739 0.03818 0.62984 0.0
H3760 H 0.57439 0.99788 0.60256 0.0
C3761 C 0.5769 0.03627 0.56648 0.0
C3762 C 0.56135 0.02912 0.56116 0.0
C3763 C 0.5829 0.03445 0.58119 0.0
C3764 C 0.58046 0.00915 0.61039 0.0
H3765 H 0.64767 0.04047 0.65905 0.0
H3766 H 0.62892 0.03837 0.63633 0.0
H3767 H 0.59082 0.99646 0.62616 0.0
H3768 H 0.54022 0.01336 0.56636 0.0
H3769 H 0.55086 0.01048 0.59262 0.0
H3770 H 0.58766 0.0509 0.61382 0.0
C3771 C 0.62549 0.03166 0.64584 0.0
C3772 C 0.58985 0.00835 0.62371 0.0
C3773 C 0.63615 0.03285 0.65871 0.0
C3774 C 0.55209 0.01945 0.57047 0.0
C3775 C 0.55814 0.01766 0.58533 0.0
C3776 C 0.58803 0.03898 0.61664 0.0
C3777 C 0.61038 0.02232 0.64555 0.0
C3778 C 0.59881 0.02288 0.63304 0.0
C3779 C 0.57347 0.02549 0.59082 0.0
C3780 C 0.58006 0.02447 0.60652 0.0
H3781 H 0.61343 0.00818 0.68027 0.0
H3782 H 0.59457 0.00618 0.65756 0.0
H3783 H 0.604 0.04951 0.6372 0.0
H3784 H 0.58448 0.04349 0.55946 0.0
H3785 H 0.59492 0.04015 0.58511 0.0
C3786 C 0.27661 0.32397 0.93636 0.0
C3787 C 0.28971 0.33249 0.94684 0.0
C3788 C 0.27805 0.3185 0.91999 0.0
C3789 C 0.30535 0.32785 0.88914 0.0
H3790 H 0.27963 0.28895 0.86226 0.0
C3791 C 0.30197 0.31997 0.8209 0.0
C3792 C 0.2996 0.30435 0.8112 0.0
C3793 C 0.30177 0.32179 0.8375 0.0
C3794 C 0.28709 0.29971 0.86966 0.0
H3795 H 0.31462 0.34164 0.94804 0.0
H3796 H 0.31717 0.33138 0.92029 0.0
H3797 H 0.27673 0.2946 0.89115 0.0
H3798 H 0.29536 0.27826 0.81127 0.0
H3799 H 0.29559 0.28143 0.8407 0.0
H3800 H 0.3161 0.33279 0.86807 0.0
C3801 C 0.30569 0.32927 0.92444 0.0
C3802 C 0.28525 0.30309 0.8862 0.0
C3803 C 0.30424 0.3349 0.94059 0.0
C3804 C 0.29755 0.29048 0.81853 0.0
C3805 C 0.29742 0.2923 0.83533 0.0
C3806 C 0.30734 0.32436 0.87282 0.0
C3807 C 0.29261 0.3214 0.91375 0.0
C3808 C 0.29435 0.31728 0.89615 0.0
C3809 C 0.29926 0.30802 0.845 0.0
C3810 C 0.29809 0.31042 0.86274 0.0
H3811 H 0.26523 0.32167 0.94073 0.0
H3812 H 0.26769 0.31251 0.91215 0.0
H3813 H 0.31236 0.33909 0.8962 0.0
H3814 H 0.30331 0.33085 0.81554 0.0
H3815 H 0.30289 0.33406 0.84435 0.0
C3816 C 0.98889 0.05666 0.35446 0.0
C3817 C 0.97995 0.06863 0.35419 0.0
C3818 C 0.99602 0.05435 0.36896 0.0
C3819 C 0.00674 0.07375 0.4133 0.0
H3820 H 0.01025 0.02986 0.41762 0.0
C3821 C 0.01929 0.05773 0.47628 0.0
C3822 C 0.0273 0.04535 0.47848 0.0
C3823 C 0.01557 0.061 0.46101 0.0
C3824 C 0.00961 0.04229 0.4167 0.0
H3825 H 0.97208 0.08774 0.36986 0.0
H3826 H 0.98429 0.08375 0.39482 0.0
H3827 H 0.99994 0.03475 0.39211 0.0
H3828 H 0.03838 0.0275 0.46515 0.0
H3829 H 0.03102 0.03236 0.43838 0.0
H3830 H 0.01634 0.0813 0.43787 0.0
C3831 C 0.98598 0.07614 0.38371 0.0
C3832 C 0.00361 0.04515 0.40187 0.0
C3833 C 0.97886 0.07846 0.36919 0.0
C3834 C 0.0318 0.03669 0.46435 0.0
C3835 C 0.0276 0.03963 0.44882 0.0
C3836 C 0.01272 0.0709 0.42809 0.0
C3837 C 0.99462 0.06389 0.38402 0.0
C3838 C 0.00181 0.06092 0.39984 0.0
C3839 C 0.01928 0.05186 0.4468 0.0
C3840 C 0.01409 0.05504 0.43029 0.0
H3841 H 0.99054 0.049 0.34336 0.0
H3842 H 0.00278 0.04506 0.36826 0.0
H3843 H 0.00608 0.08619 0.41248 0.0
H3844 H 0.01553 0.06498 0.48648 0.0
H3845 H 0.00915 0.07044 0.46042 0.0
C3846 C 0.28595 0.70517 0.6083 0.0
C3847 C 0.27448 0.70322 0.59573 0.0
C3848 C 0.28662 0.71694 0.62203 0.0
C3849 C 0.26379 0.73867 0.6471 0.0
H3850 H 0.30346 0.76762 0.66353 0.0
C3851 C 0.27274 0.77749 0.71042 0.0
C3852 C 0.28606 0.77618 0.71913 0.0
C3853 C 0.27097 0.77245 0.69379 0.0
C3854 C 0.2923 0.75966 0.65905 0.0
H3855 H 0.25454 0.71168 0.58758 0.0
H3856 H 0.25552 0.73218 0.61204 0.0
H3857 H 0.30068 0.75047 0.63688 0.0
H3858 H 0.30785 0.76862 0.718 0.0
H3859 H 0.30462 0.75922 0.68907 0.0
H3860 H 0.25567 0.74687 0.66965 0.0
C3861 C 0.26402 0.72465 0.61106 0.0
C3862 C 0.29072 0.74995 0.64385 0.0
C3863 C 0.26342 0.71292 0.59722 0.0
C3864 C 0.29766 0.76999 0.71128 0.0
C3865 C 0.29582 0.76473 0.69476 0.0
C3866 C 0.26541 0.74825 0.6624 0.0
C3867 C 0.27576 0.72683 0.6234 0.0
C3868 C 0.2766 0.73904 0.63804 0.0
C3869 C 0.28241 0.76579 0.68587 0.0
C3870 C 0.27984 0.75838 0.6687 0.0
H3871 H 0.29441 0.69759 0.60753 0.0
H3872 H 0.29554 0.71822 0.63165 0.0
H3873 H 0.25284 0.7302 0.64278 0.0
H3874 H 0.26375 0.78235 0.71648 0.0
H3875 H 0.26058 0.77347 0.68717 0.0
C3876 C 0.64491 0.02724 0.83141 0.0
C3877 C 0.63888 0.03409 0.81925 0.0
C3878 C 0.63832 0.02772 0.84598 0.0
C3879 C 0.61633 0.05141 0.87124 0.0
H3880 H 0.60101 0.01204 0.88854 0.0
C3881 C 0.56825 0.04874 0.90981 0.0
C3882 C 0.57415 0.05241 0.92591 0.0
C3883 C 0.5767 0.04196 0.89818 0.0
C3884 C 0.6055 0.02306 0.88388 0.0
H3885 H 0.62121 0.04638 0.81234 0.0
H3886 H 0.60964 0.04722 0.83789 0.0
H3887 H 0.61613 0.01044 0.86493 0.0
H3888 H 0.59248 0.05082 0.94301 0.0
H3889 H 0.60775 0.03953 0.92233 0.0
H3890 H 0.60526 0.06391 0.88968 0.0
C3891 C 0.61954 0.04169 0.83621 0.0
C3892 C 0.61408 0.0222 0.87054 0.0
C3893 C 0.62609 0.04119 0.82167 0.0
C3894 C 0.58788 0.04806 0.93053 0.0
C3895 C 0.59647 0.04147 0.91885 0.0
C3896 C 0.60784 0.05226 0.88449 0.0
C3897 C 0.62574 0.03512 0.84847 0.0
C3898 C 0.61902 0.03628 0.86387 0.0
C3899 C 0.59115 0.03907 0.90264 0.0
C3900 C 0.60201 0.03802 0.89048 0.0
H3901 H 0.65493 0.02191 0.82978 0.0
H3902 H 0.64325 0.02269 0.8554 0.0
H3903 H 0.62029 0.06243 0.86638 0.0
H3904 H 0.55753 0.05187 0.90619 0.0
H3905 H 0.57263 0.04028 0.88562 0.0
C3906 C 0.29742 0.34733 0.11696 0.0
C3907 C 0.28717 0.33946 0.10343 0.0
C3908 C 0.29609 0.34165 0.1314 0.0
C3909 C 0.26835 0.31739 0.15385 0.0
H3910 H 0.30556 0.31979 0.1809 0.0
C3911 C 0.26999 0.29331 0.2141 0.0
C3912 C 0.2809 0.30296 0.22645 0.0
C3913 C 0.26933 0.29748 0.19889 0.0
C3914 C 0.29506 0.31921 0.17354 0.0
H3915 H 0.26766 0.3192 0.09431 0.0
H3916 H 0.26542 0.3091 0.11963 0.0
H3917 H 0.30773 0.32624 0.15417 0.0
H3918 H 0.29837 0.32575 0.23298 0.0
H3919 H 0.29714 0.33301 0.20658 0.0
H3920 H 0.25573 0.31016 0.17336 0.0
C3921 C 0.27435 0.31985 0.11909 0.0
C3922 C 0.2963 0.32288 0.15822 0.0
C3923 C 0.27565 0.3256 0.1046 0.0
C3924 C 0.2901 0.31772 0.22368 0.0
C3925 C 0.28947 0.32187 0.20851 0.0
C3926 C 0.26711 0.31358 0.16921 0.0
C3927 C 0.28451 0.32789 0.13267 0.0
C3928 C 0.28298 0.32236 0.14831 0.0
C3929 C 0.2795 0.31148 0.19582 0.0
C3930 C 0.28049 0.3148 0.1793 0.0
H3931 H 0.3062 0.35825 0.11656 0.0
H3932 H 0.3039 0.34836 0.14171 0.0
H3933 H 0.25786 0.31698 0.14655 0.0
H3934 H 0.26218 0.28237 0.216 0.0
H3935 H 0.26135 0.28937 0.18938 0.0
C3936 C 0.22921 0.963 0.00595 0.0
C3937 C 0.24334 0.97018 0.01509 0.0
C3938 C 0.21703 0.97103 0.00709 0.0
C3939 C 0.20355 1.0009 0.03595 0.0
H3940 H 0.1748 1.00228 0.00052 0.0
C3941 C 0.15976 0.0406 0.04471 0.0
C3942 C 0.14433 0.03218 0.04049 0.0
C3943 C 0.17172 0.0334 0.03934 0.0
C3944 C 0.18276 1.00188 0.01046 0.0
H3945 H 0.25645 0.99175 0.0315 0.0
H3946 H 0.23525 0.00588 0.03336 0.0
H3947 H 0.19656 0.98902 0.99521 0.0
H3948 H 0.12922 0.00998 0.02676 0.0
H3949 H 0.15031 0.99744 0.01726 0.0
H3950 H 0.18993 0.0138 0.05117 0.0
C3951 C 0.2334 0.9939 0.0257 0.0
C3952 C 0.19512 0.99431 0.00746 0.0
C3953 C 0.2455 0.98585 0.02463 0.0
C3954 C 0.14104 0.0168 0.03008 0.0
C3955 C 0.15304 0.00962 0.02465 0.0
C3956 C 0.19135 0.00854 0.0389 0.0
C3957 C 0.21894 0.98634 0.01732 0.0
C3958 C 0.2057 0.99398 0.02019 0.0
C3959 C 0.16842 0.01771 0.02965 0.0
C3960 C 0.18101 0.00926 0.02618 0.0
H3961 H 0.22735 0.95087 0.99855 0.0
H3962 H 0.20596 0.96494 0.00057 0.0
H3963 H 0.21127 1.00035 0.04604 0.0
H3964 H 0.16257 0.05258 0.05245 0.0
H3965 H 0.18357 0.03988 0.04314 0.0
C3966 C 0.70802 0.62299 0.98809 0.0
C3967 C 0.71417 0.63686 1.00016 0.0
C3968 C 0.69277 0.61388 0.98797 0.0
C3969 C 0.6555 0.61546 0.00801 0.0
H3970 H 0.64408 0.56988 0.98684 0.0
C3971 C 0.59236 0.57896 0.00713 0.0
C3972 C 0.58907 0.56177 0.00563 0.0
C3973 C 0.6072 0.58778 0.0052 0.0
C3974 C 0.64696 0.5825 0.99312 0.0
H3975 H 0.70848 0.65194 0.02145 0.0
H3976 H 0.68288 0.63566 0.02202 0.0
H3977 H 0.67028 0.58523 0.98679 0.0
H3978 H 0.5991 0.54047 0.00083 0.0
H3979 H 0.62503 0.55567 0.99833 0.0
H3980 H 0.63275 0.61247 0.0156 0.0
C3981 C 0.68944 0.63194 0.01218 0.0
C3982 C 0.66216 0.59156 0.99277 0.0
C3983 C 0.7045 0.64122 0.01209 0.0
C3984 C 0.60108 0.55364 0.00194 0.0
C3985 C 0.61609 0.56251 0.00042 0.0
C3986 C 0.64051 0.60629 0.0088 0.0
C3987 C 0.68315 0.6181 1.00008 0.0
C3988 C 0.66677 0.60827 1.00021 0.0
C3989 C 0.61954 0.57984 0.00218 0.0
C3990 C 0.63582 0.58962 0.00128 0.0
H3991 H 0.715 0.61899 0.97874 0.0
H3992 H 0.68858 0.6036 0.9782 0.0
H3993 H 0.65809 0.6283 0.01358 0.0
H3994 H 0.58341 0.5857 0.00978 0.0
H3995 H 0.60881 0.60091 0.00608 0.0
C3996 C 0.70438 0.4219 0.27493 0.0
C3997 C 0.70619 0.43202 0.26314 0.0
C3998 C 0.71256 0.40916 0.27529 0.0
C3999 C 0.74507 0.39028 0.25525 0.0
H4000 H 0.73234 0.35758 0.28148 0.0
C4001 C 0.77248 0.3315 0.25191 0.0
C4002 C 0.77358 0.32413 0.26552 0.0
C4003 C 0.76519 0.34496 0.25195 0.0
C4004 C 0.73633 0.36662 0.27416 0.0
H4005 H 0.71885 0.43553 0.24226 0.0
H4006 H 0.73223 0.41352 0.24243 0.0
H4007 H 0.71812 0.37894 0.28063 0.0
H4008 H 0.7668 0.3252 0.28975 0.0
H4009 H 0.75427 0.34845 0.28998 0.0
H4010 H 0.76312 0.37756 0.24857 0.0
C4011 C 0.72471 0.41551 0.25187 0.0
C4012 C 0.728 0.37922 0.27365 0.0
C4013 C 0.71663 0.42835 0.2516 0.0
C4014 C 0.76682 0.33076 0.27917 0.0
C4015 C 0.75929 0.34406 0.27916 0.0
C4016 C 0.75328 0.37757 0.25563 0.0
C4017 C 0.72306 0.40549 0.26378 0.0
C4018 C 0.73209 0.39157 0.26422 0.0
C4019 C 0.75809 0.35145 0.26548 0.0
C4020 C 0.74921 0.36537 0.26514 0.0
H4021 H 0.69646 0.42361 0.28404 0.0
H4022 H 0.71061 0.40235 0.28493 0.0
H4023 H 0.74926 0.39925 0.24794 0.0
H4024 H 0.77694 0.32651 0.24092 0.0
H4025 H 0.76458 0.34979 0.241 0.0
C4026 C 0.89789 0.48197 0.54817 0.0
C4027 C 0.88738 0.49178 0.54566 0.0
C4028 C 0.91314 0.48671 0.54486 0.0
C4029 C 0.9436 0.51774 0.53523 0.0
H4030 H 0.94879 0.48259 0.50125 0.0
C4031 C 0.99983 0.52418 0.50912 0.0
C4032 C 0.00684 0.51088 0.50942 0.0
C4033 C 0.98398 0.52211 0.50861 0.0
C4034 C 0.94746 0.49247 0.51068 0.0
H4035 H 0.88511 0.51552 0.54079 0.0
H4036 H 0.91201 0.52373 0.53479 0.0
H4037 H 0.92473 0.48004 0.5144 0.0
H4038 H 0.00271 0.48473 0.50908 0.0
H4039 H 0.97475 0.4813 0.5102 0.0
H4040 H 0.96649 0.52988 0.53228 0.0
C4041 C 0.90826 0.51229 0.539 0.0
C4042 C 0.93382 0.49101 0.51821 0.0
C4043 C 0.89294 0.50758 0.54239 0.0
C4044 C 0.99754 0.49516 0.50867 0.0
C4045 C 0.98157 0.4932 0.5091 0.0
C4046 C 0.95731 0.51914 0.52786 0.0
C4047 C 0.91799 0.50127 0.5391 0.0
C4048 C 0.93204 0.50347 0.53076 0.0
C4049 C 0.97485 0.50693 0.50996 0.0
C4050 C 0.95946 0.50637 0.51571 0.0
H4051 H 0.89408 0.46974 0.55073 0.0
H4052 H 0.92073 0.47828 0.54532 0.0
H4053 H 0.94228 0.52746 0.54484 0.0
H4054 H 0.00653 0.53646 0.51013 0.0
H4055 H 0.97906 0.53281 0.50881 0.0
C4056 C 0.34465 0.1034 0.29378 0.0
C4057 C 0.35935 0.10711 0.30211 0.0
C4058 C 0.33763 0.11602 0.2913 0.0
C4059 C 0.34139 0.16097 0.29892 0.0
H4060 H 0.33224 0.15273 0.25264 0.0
C4061 C 0.31331 0.2005 0.26288 0.0
C4062 C 0.31808 0.20149 0.24743 0.0
C4063 C 0.31996 0.19159 0.27246 0.0
C4064 C 0.33496 0.15527 0.26555 0.0
H4065 H 0.37752 0.1263 0.31604 0.0
H4066 H 0.3654 0.14852 0.3114 0.0
H4067 H 0.33777 0.13098 0.26548 0.0
H4068 H 0.33465 0.1956 0.23064 0.0
H4069 H 0.3461 0.17974 0.24733 0.0
H4070 H 0.33883 0.18551 0.29873 0.0
C4071 C 0.35919 0.13596 0.30696 0.0
C4072 C 0.33776 0.14272 0.27295 0.0
C4073 C 0.36614 0.12329 0.30959 0.0
C4074 C 0.33051 0.19467 0.24232 0.0
C4075 C 0.3371 0.18569 0.25187 0.0
C4076 C 0.33853 0.17359 0.29147 0.0
C4077 C 0.3454 0.13242 0.29693 0.0
C4078 C 0.34096 0.14544 0.28968 0.0
C4079 C 0.33136 0.18349 0.26666 0.0
C4080 C 0.3354 0.17081 0.27472 0.0
H4081 H 0.33922 0.09089 0.2881 0.0
H4082 H 0.3268 0.11305 0.28381 0.0
H4083 H 0.34397 0.16331 0.31184 0.0
H4084 H 0.30368 0.20553 0.26713 0.0
H4085 H 0.31531 0.18996 0.2838 0.0
C4086 C 0.37711 0.15157 0.49645 0.0
C4087 C 0.36338 0.14689 0.50377 0.0
C4088 C 0.38932 0.14358 0.49792 0.0
C4089 C 0.40365 0.11847 0.52452 0.0
H4090 H 0.42934 0.10726 0.49045 0.0
C4091 C 0.4394 0.07087 0.52771 0.0
C4092 C 0.45538 0.07558 0.52625 0.0
C4093 C 0.42935 0.08033 0.52351 0.0
C4094 C 0.42233 0.1105 0.50009 0.0
H4095 H 0.35126 0.12948 0.51732 0.0
H4096 H 0.37219 0.11542 0.51959 0.0
H4097 H 0.40923 0.12235 0.48575 0.0
H4098 H 0.47308 0.0935 0.5181 0.0
H4099 H 0.4552 0.10989 0.51024 0.0
H4100 H 0.41631 0.10627 0.53868 0.0
C4101 C 0.37389 0.12561 0.51324 0.0
C4102 C 0.41085 0.11914 0.49743 0.0
C4103 C 0.36183 0.13362 0.51189 0.0
C4104 C 0.46086 0.08948 0.51938 0.0
C4105 C 0.45066 0.09891 0.51493 0.0
C4106 C 0.41493 0.10978 0.52709 0.0
C4107 C 0.38795 0.13072 0.50666 0.0
C4108 C 0.40111 0.12286 0.50953 0.0
C4109 C 0.43489 0.09465 0.51744 0.0
C4110 C 0.42416 0.10538 0.51483 0.0
H4111 H 0.37862 0.16177 0.49011 0.0
H4112 H 0.39999 0.14784 0.4927 0.0
H4113 H 0.39676 0.1216 0.5343 0.0
H4114 H 0.43464 0.05997 0.53244 0.0
H4115 H 0.41718 0.07659 0.52525 0.0
C4116 C 0.72182 0.60856 0.28196 0.0
C4117 C 0.70966 0.60021 0.27009 0.0
C4118 C 0.72949 0.62517 0.28251 0.0
C4119 C 0.72798 0.66295 0.26278 0.0
H4120 H 0.76678 0.68126 0.28878 0.0
C4121 C 0.75768 0.73321 0.2697 0.0
C4122 C 0.77393 0.73872 0.27274 0.0
C4123 C 0.75007 0.71672 0.26966 0.0
C4124 C 0.75605 0.67649 0.28123 0.0
H4125 H 0.69632 0.60407 0.24953 0.0
H4126 H 0.70984 0.63192 0.24986 0.0
H4127 H 0.75402 0.65288 0.28774 0.0
H4128 H 0.79455 0.73033 0.27852 0.0
H4129 H 0.78162 0.70191 0.27823 0.0
H4130 H 0.73047 0.68643 0.25572 0.0
C4131 C 0.71347 0.62598 0.2592 0.0
C4132 C 0.74839 0.65989 0.28081 0.0
C4133 C 0.70567 0.60947 0.2588 0.0
C4134 C 0.78214 0.72689 0.27599 0.0
C4135 C 0.77454 0.71036 0.27596 0.0
C4136 C 0.73573 0.67946 0.26305 0.0
C4137 C 0.72562 0.63444 0.2711 0.0
C4138 C 0.73406 0.65255 0.27158 0.0
C4139 C 0.75828 0.70476 0.27268 0.0
C4140 C 0.74997 0.68675 0.27233 0.0
H4141 H 0.72566 0.60226 0.29091 0.0
H4142 H 0.73843 0.63064 0.29216 0.0
H4143 H 0.71703 0.65858 0.25561 0.0
H4144 H 0.75067 0.74167 0.26724 0.0
H4145 H 0.7376 0.71348 0.26742 0.0
C4146 C 0.85379 0.44911 0.76553 0.0
C4147 C 0.84765 0.46158 0.77406 0.0
C4148 C 0.84541 0.43307 0.76278 0.0
C4149 C 0.81743 0.40651 0.78082 0.0
H4150 H 0.82199 0.37557 0.74282 0.0
C4151 C 0.79867 0.33571 0.76983 0.0
C4152 C 0.81185 0.32907 0.77024 0.0
C4153 C 0.80009 0.35212 0.76929 0.0
C4154 C 0.82051 0.38419 0.75335 0.0
H4155 H 0.8282 0.46761 0.78636 0.0
H4156 H 0.81314 0.43913 0.78126 0.0
H4157 H 0.82787 0.40496 0.74236 0.0
H4158 H 0.83677 0.33384 0.76947 0.0
H4159 H 0.83923 0.36287 0.76771 0.0
H4160 H 0.81031 0.38555 0.79181 0.0
C4161 C 0.82443 0.44186 0.77675 0.0
C4162 C 0.82379 0.40084 0.75312 0.0
C4163 C 0.83296 0.45799 0.77967 0.0
C4164 C 0.82651 0.33888 0.76949 0.0
C4165 C 0.8279 0.35527 0.76843 0.0
C4166 C 0.81385 0.38982 0.78093 0.0
C4167 C 0.8307 0.42932 0.76839 0.0
C4168 C 0.82303 0.41211 0.76712 0.0
C4169 C 0.81466 0.3618 0.7684 0.0
C4170 C 0.81605 0.37881 0.76743 0.0
H4171 H 0.86531 0.4517 0.7615 0.0
H4172 H 0.85075 0.42354 0.75684 0.0
H4173 H 0.81693 0.415 0.7918 0.0
H4174 H 0.7872 0.32824 0.76959 0.0
H4175 H 0.78983 0.35715 0.76914 0.0
C4176 C 0.07904 0.89658 0.07041 0.0
C4177 C 0.07095 0.88071 0.06318 0.0
C4178 C 0.07642 0.91032 0.06454 0.0
C4179 C 0.04802 0.9229 0.03721 0.0
H4180 H 0.07878 0.96395 0.04634 0.0
C4181 C 0.046 0.98254 0.01136 0.0
C4182 C 0.04856 0.99699 0.02301 0.0
C4183 C 0.04738 0.96764 0.01571 0.0
C4184 C 0.07006 0.95257 0.04377 0.0
H4185 H 0.05438 0.86667 0.04362 0.0
H4186 H 0.05054 0.89039 0.03263 0.0
H4187 H 0.08504 0.93949 0.05369 0.0
H4188 H 0.0548 0.00737 0.0482 0.0
H4189 H 0.05768 0.98145 0.05575 0.0
H4190 H 0.03342 0.93619 0.0265 0.0
C4191 C 0.05835 0.89251 0.04335 0.0
C4192 C 0.07357 0.93847 0.0481 0.0
C4193 C 0.06068 0.8788 0.04951 0.0
C4194 C 0.05238 0.99629 0.03909 0.0
C4195 C 0.05417 0.98153 0.04336 0.0
C4196 C 0.04469 0.93695 0.03248 0.0
C4197 C 0.06591 0.90858 0.05097 0.0
C4198 C 0.06252 0.92342 0.04521 0.0
C4199 C 0.05198 0.96713 0.03167 0.0
C4200 C 0.05557 0.95198 0.036 0.0
H4201 H 0.0869 0.89841 0.08107 0.0
H4202 H 0.08231 0.92231 0.0711 0.0
H4203 H 0.039 0.9118 0.03491 0.0
H4204 H 0.04344 0.9829 0.99882 0.0
H4205 H 0.0457 0.95673 0.00646 0.0
C4206 C 0.93862 0.28297 0.87084 0.0
C4207 C 0.94047 0.26815 0.87531 0.0
C4208 C 0.92521 0.28392 0.86184 0.0
C4209 C 0.88439 0.25943 0.84569 0.0
H4210 H 0.88551 0.296 0.82361 0.0
C4211 C 0.83624 0.26637 0.79796 0.0
C4212 C 0.82966 0.28005 0.80273 0.0
C4213 C 0.84932 0.26419 0.80669 0.0
C4214 C 0.885 0.28572 0.82974 0.0
H4215 H 0.92886 0.24245 0.873 0.0
H4216 H 0.90643 0.24378 0.85645 0.0
H4217 H 0.90901 0.29324 0.83773 0.0
H4218 H 0.83201 0.30205 0.82087 0.0
H4219 H 0.85536 0.29877 0.83539 0.0
H4220 H 0.86036 0.25158 0.8366 0.0
C4221 C 0.91506 0.25503 0.86048 0.0
C4222 C 0.89854 0.28416 0.83811 0.0
C4223 C 0.92833 0.25418 0.86989 0.0
C4224 C 0.83665 0.29143 0.81662 0.0
C4225 C 0.85009 0.28956 0.825 0.0
C4226 C 0.87095 0.26077 0.8369 0.0
C4227 C 0.91308 0.26998 0.85634 0.0
C4228 C 0.89855 0.27113 0.84657 0.0
C4229 C 0.85659 0.27591 0.82017 0.0
C4230 C 0.87102 0.27407 0.82902 0.0
H4231 H 0.94757 0.29407 0.87418 0.0
H4232 H 0.92445 0.29586 0.85945 0.0
H4233 H 0.88341 0.2493 0.85204 0.0
H4234 H 0.83128 0.25723 0.78746 0.0
H4235 H 0.854 0.25352 0.80264 0.0
C4236 C 0.57503 0.21524 0.54853 0.0
C4237 C 0.56283 0.22165 0.55519 0.0
C4238 C 0.57333 0.19829 0.5433 0.0
C4239 C 0.54918 0.15917 0.55051 0.0
H4240 H 0.5728 0.13937 0.5185 0.0
C4241 C 0.55604 0.09376 0.5494 0.0
C4242 C 0.55432 0.08309 0.53452 0.0
C4243 C 0.5578 0.11063 0.5502 0.0
C4244 C 0.56602 0.1447 0.52738 0.0
H4245 H 0.53882 0.21491 0.56044 0.0
H4246 H 0.53561 0.18582 0.55048 0.0
H4247 H 0.57311 0.16868 0.52163 0.0
H4248 H 0.55363 0.08179 0.50874 0.0
H4249 H 0.55671 0.1114 0.5101 0.0
H4250 H 0.54177 0.13528 0.55603 0.0
C4251 C 0.54677 0.19379 0.54991 0.0
C4252 C 0.56632 0.16155 0.5293 0.0
C4253 C 0.54855 0.21066 0.55539 0.0
C4254 C 0.55512 0.08974 0.5204 0.0
C4255 C 0.55684 0.10671 0.52119 0.0
C4256 C 0.5488 0.14242 0.54852 0.0
C4257 C 0.55929 0.18726 0.54436 0.0
C4258 C 0.55807 0.16909 0.54109 0.0
C4259 C 0.55767 0.11729 0.53612 0.0
C4260 C 0.55749 0.135 0.53721 0.0
H4261 H 0.58609 0.22325 0.54771 0.0
H4262 H 0.58327 0.19384 0.5391 0.0
H4263 H 0.54282 0.16439 0.55988 0.0
H4264 H 0.55547 0.08897 0.56046 0.0
H4265 H 0.55885 0.11844 0.56192 0.0
C4266 C 0.59155 0.76374 0.36726 0.0
C4267 C 0.59111 0.77395 0.38216 0.0
C4268 C 0.60518 0.76497 0.35928 0.0
C4269 C 0.64407 0.79319 0.35838 0.0
H4270 H 0.65237 0.75486 0.33117 0.0
C4271 C 0.70085 0.79653 0.32568 0.0
C4272 C 0.69918 0.7884 0.30956 0.0
C4273 C 0.68858 0.79386 0.33559 0.0
C4274 C 0.65024 0.76575 0.33863 0.0
H4275 H 0.60518 0.79318 0.40042 0.0
H4276 H 0.62883 0.79518 0.38673 0.0
H4277 H 0.62951 0.75213 0.34614 0.0
H4278 H 0.68339 0.77093 0.29134 0.0
H4279 H 0.66223 0.76598 0.30852 0.0
H4280 H 0.66486 0.80677 0.35085 0.0
C4281 C 0.61853 0.78645 0.38093 0.0
C4282 C 0.63699 0.7642 0.34724 0.0
C4283 C 0.60486 0.78529 0.38886 0.0
C4284 C 0.68516 0.77713 0.30379 0.0
C4285 C 0.67298 0.77433 0.31369 0.0
C4286 C 0.65737 0.79471 0.34984 0.0
C4287 C 0.61896 0.77639 0.36592 0.0
C4288 C 0.63353 0.77792 0.35716 0.0
C4289 C 0.67431 0.78293 0.32966 0.0
C4290 C 0.66062 0.78106 0.33967 0.0
H4291 H 0.58123 0.755 0.36152 0.0
H4292 H 0.60476 0.75715 0.34767 0.0
H4293 H 0.64187 0.80417 0.3656 0.0
H4294 H 0.71138 0.80553 0.3304 0.0
H4295 H 0.6902 0.80061 0.34783 0.0
C4296 C 0.06494 0.22871 0.42435 0.0
C4297 C 0.07601 0.24332 0.43018 0.0
C4298 C 0.06291 0.21584 0.43283 0.0
C4299 C 0.06944 0.2072 0.47323 0.0
H4300 H 0.06178 0.16202 0.45062 0.0
C4301 C 0.06114 0.1543 0.50791 0.0
C4302 C 0.04888 0.14092 0.50188 0.0
C4303 C 0.06634 0.16598 0.49851 0.0
C4304 C 0.06381 0.17457 0.45709 0.0
H4305 H 0.09352 0.25599 0.44956 0.0
H4306 H 0.09022 0.23334 0.46418 0.0
H4307 H 0.06708 0.18434 0.43555 0.0
H4308 H 0.03269 0.12864 0.48137 0.0
H4309 H 0.04138 0.14938 0.46499 0.0
H4310 H 0.06589 0.19755 0.4947 0.0
C4311 C 0.08302 0.23191 0.45313 0.0
C4312 C 0.06683 0.18733 0.44846 0.0
C4313 C 0.08502 0.2448 0.44467 0.0
C4314 C 0.04219 0.13896 0.48616 0.0
C4315 C 0.04724 0.15075 0.47681 0.0
C4316 C 0.06641 0.19446 0.48183 0.0
C4317 C 0.07194 0.2173 0.44729 0.0
C4318 C 0.06952 0.20377 0.45644 0.0
C4319 C 0.05918 0.16457 0.48302 0.0
C4320 C 0.06342 0.178 0.47385 0.0
H4321 H 0.05795 0.22716 0.41313 0.0
H4322 H 0.05412 0.20482 0.42815 0.0
H4323 H 0.07124 0.21973 0.47969 0.0
H4324 H 0.0665 0.15584 0.51999 0.0
H4325 H 0.07578 0.17627 0.50351 0.0
C4326 C 0.58075 0.25607 0.20859 0.0
C4327 C 0.57832 0.26763 0.19931 0.0
C4328 C 0.5957 0.25543 0.21364 0.0
C4329 C 0.63565 0.26627 0.2028 0.0
H4330 H 0.64496 0.2552 0.24411 0.0
C4331 C 0.69499 0.2707 0.23765 0.0
C4332 C 0.69512 0.25797 0.24623 0.0
C4333 C 0.68193 0.27028 0.2276 0.0
C4334 C 0.64242 0.25807 0.23243 0.0
H4335 H 0.58946 0.28817 0.18874 0.0
H4336 H 0.61568 0.28742 0.19811 0.0
H4337 H 0.61956 0.25996 0.23764 0.0
H4338 H 0.68318 0.23387 0.24945 0.0
H4339 H 0.66041 0.23299 0.23169 0.0
H4340 H 0.65896 0.26492 0.19802 0.0
C4341 C 0.60602 0.27859 0.20109 0.0
C4342 C 0.62792 0.26084 0.22876 0.0
C4343 C 0.59104 0.27917 0.19596 0.0
C4344 C 0.68315 0.24384 0.243 0.0
C4345 C 0.6702 0.24335 0.23288 0.0
C4346 C 0.65032 0.2637 0.20661 0.0
C4347 C 0.60849 0.26644 0.20962 0.0
C4348 C 0.6243 0.26474 0.21384 0.0
C4349 C 0.66907 0.25709 0.22613 0.0
C4350 C 0.65366 0.25932 0.22135 0.0
H4351 H 0.5711 0.24718 0.2115 0.0
H4352 H 0.59723 0.24586 0.22014 0.0
H4353 H 0.63309 0.26912 0.19114 0.0
H4354 H 0.70419 0.2817 0.24005 0.0
H4355 H 0.68123 0.28099 0.22247 0.0
C4356 C 0.61306 0.90339 0.95155 0.0
C4357 C 0.61139 0.89763 0.9349 0.0
C4358 C 0.61051 0.91884 0.95763 0.0
C4359 C 0.58285 0.93945 0.95113 0.0
H4360 H 0.60799 0.98036 0.97514 0.0
C4361 C 0.5574 0.99483 0.97653 0.0
C4362 C 0.56323 0.00249 0.99228 0.0
C4363 C 0.56428 0.98296 0.96816 0.0
C4364 C 0.60084 0.96895 0.96851 0.0
H4365 H 0.60701 0.90364 0.91149 0.0
H4366 H 0.60224 0.93056 0.92225 0.0
H4367 H 0.62048 0.95849 0.96346 0.0
H4368 H 0.58098 0.00425 0.01146 0.0
H4369 H 0.59242 0.98325 0.99726 0.0
H4370 H 0.56313 0.94936 0.95686 0.0
C4371 C 0.60577 0.92327 0.93046 0.0
C4372 C 0.608 0.95661 0.96182 0.0
C4373 C 0.60856 0.90798 0.92438 0.0
C4374 C 0.576 0.99828 0.99947 0.0
C4375 C 0.58276 0.98645 0.99122 0.0
C4376 C 0.57566 0.95167 0.95803 0.0
C4377 C 0.6061 0.92838 0.94706 0.0
C4378 C 0.59899 0.94186 0.9532 0.0
C4379 C 0.57709 0.9788 0.97546 0.0
C4380 C 0.58461 0.96644 0.96692 0.0
H4381 H 0.61519 0.89549 0.95979 0.0
H4382 H 0.61065 0.92272 0.97051 0.0
H4383 H 0.57581 0.92791 0.94461 0.0
H4384 H 0.54753 0.99791 0.97076 0.0
H4385 H 0.55974 0.9772 0.95596 0.0
C4386 C 0.92483 0.74186 0.70464 0.0
C4387 C 0.93754 0.75537 0.70786 0.0
C4388 C 0.91221 0.74161 0.7138 0.0
C4389 C 0.88906 0.76499 0.72234 0.0
H4390 H 0.87698 0.75817 0.76446 0.0
C4391 C 0.84312 0.79471 0.74794 0.0
C4392 C 0.8316 0.78544 0.75525 0.0
C4393 C 0.85699 0.78996 0.74576 0.0
C4394 C 0.88018 0.75997 0.75263 0.0
H4395 H 0.94779 0.77834 0.72401 0.0
H4396 H 0.92543 0.77804 0.73975 0.0
H4397 H 0.89986 0.74903 0.75425 0.0
H4398 H 0.82514 0.76382 0.76599 0.0
H4399 H 0.84882 0.75426 0.76036 0.0
H4400 H 0.8698 0.77591 0.72039 0.0
C4401 C 0.92543 0.76762 0.73034 0.0
C4402 C 0.89315 0.75475 0.74686 0.0
C4403 C 0.93801 0.76793 0.72116 0.0
C4404 C 0.83409 0.77128 0.7605 0.0
C4405 C 0.84764 0.7659 0.75742 0.0
C4406 C 0.87623 0.77015 0.72802 0.0
C4407 C 0.91231 0.75475 0.72632 0.0
C4408 C 0.8977 0.75758 0.73184 0.0
C4409 C 0.85898 0.77499 0.74953 0.0
C4410 C 0.87195 0.76819 0.74341 0.0
H4411 H 0.92414 0.73208 0.69438 0.0
H4412 H 0.90194 0.73184 0.71036 0.0
H4413 H 0.89256 0.76727 0.71072 0.0
H4414 H 0.84121 0.80505 0.74306 0.0
H4415 H 0.86573 0.79744 0.74005 0.0
C4416 C 0.11701 1.00221 0.85686 0.0
C4417 C 0.1129 0.0098 0.84419 0.0
C4418 C 0.11 0.00372 0.87158 0.0
C4419 C 0.08414 0.02818 0.89602 0.0
H4420 H 0.08476 0.99631 0.92357 0.0
C4421 C 0.05242 0.03005 0.95621 0.0
C4422 C 0.06048 0.02719 0.96984 0.0
C4423 C 0.05796 0.02746 0.94073 0.0
C4424 C 0.08451 0.00545 0.91614 0.0
H4425 H 0.09725 0.02453 0.8376 0.0
H4426 H 0.08494 0.02683 0.86265 0.0
H4427 H 0.09539 0.99252 0.89759 0.0
H4428 H 0.08068 0.01887 0.97729 0.0
H4429 H 0.08993 0.01389 0.95056 0.0
H4430 H 0.07285 0.04083 0.91459 0.0
C4431 C 0.09403 0.02008 0.86158 0.0
C4432 C 0.09078 0.00333 0.90104 0.0
C4433 C 0.10116 0.0187 0.84693 0.0
C4434 C 0.07406 0.02128 0.96725 0.0
C4435 C 0.07938 0.01832 0.95176 0.0
C4436 C 0.07766 0.03015 0.91103 0.0
C4437 C 0.09834 0.01278 0.87443 0.0
C4438 C 0.09097 0.01474 0.89059 0.0
C4439 C 0.07159 0.02152 0.93814 0.0
C4440 C 0.07785 0.01895 0.92155 0.0
H4441 H 0.12605 0.99538 0.85562 0.0
H4442 H 0.11412 0.99801 0.88088 0.0
H4443 H 0.08405 0.03756 0.88887 0.0
H4444 H 0.04202 0.03474 0.95755 0.0
H4445 H 0.05145 0.03003 0.93071 0.0
C4446 C 0.81094 0.3938 0.59993 0.0
C4447 C 0.81604 0.38679 0.58558 0.0
C4448 C 0.81089 0.3861 0.6131 0.0
C4449 C 0.8264 0.35482 0.62904 0.0
H4450 H 0.7885 0.34839 0.65061 0.0
C4451 C 0.81486 0.30589 0.66485 0.0
C4452 C 0.81657 0.31276 0.6812 0.0
C4453 C 0.81097 0.31492 0.65377 0.0
C4454 C 0.79909 0.35023 0.64464 0.0
H4455 H 0.82541 0.36695 0.57328 0.0
H4456 H 0.82494 0.35304 0.59623 0.0
H4457 H 0.79153 0.36593 0.63026 0.0
H4458 H 0.81417 0.33331 0.69929 0.0
H4459 H 0.8078 0.34952 0.67962 0.0
H4460 H 0.83374 0.33875 0.64298 0.0
C4461 C 0.8213 0.36459 0.59751 0.0
C4462 C 0.80092 0.36028 0.6332 0.0
C4463 C 0.82151 0.3724 0.58443 0.0
C4464 C 0.8129 0.32798 0.6866 0.0
C4465 C 0.80915 0.33711 0.67547 0.0
C4466 C 0.8245 0.34469 0.64026 0.0
C4467 C 0.81579 0.3713 0.61185 0.0
C4468 C 0.81448 0.36234 0.62513 0.0
C4469 C 0.80903 0.3309 0.65906 0.0
C4470 C 0.81073 0.3421 0.64781 0.0
H4471 H 0.80681 0.40505 0.60082 0.0
H4472 H 0.80684 0.39157 0.62414 0.0
H4473 H 0.83708 0.35655 0.6232 0.0
H4474 H 0.81751 0.29404 0.66066 0.0
H4475 H 0.81084 0.31005 0.64106 0.0
C4476 C 0.47337 0.04528 0.36238 0.0
C4477 C 0.46067 0.05265 0.3636 0.0
C4478 C 0.48332 0.04671 0.37588 0.0
C4479 C 0.49552 0.07019 0.41624 0.0
H4480 H 0.50456 0.02922 0.42409 0.0
C4481 C 0.51855 0.05867 0.4765 0.0
C4482 C 0.53084 0.05067 0.47574 0.0
C4483 C 0.51142 0.06095 0.46245 0.0
C4484 C 0.50226 0.04074 0.42186 0.0
H4485 H 0.44825 0.06744 0.37925 0.0
H4486 H 0.46561 0.0697 0.40315 0.0
H4487 H 0.48896 0.02931 0.39972 0.0
H4488 H 0.54554 0.03877 0.46037 0.0
H4489 H 0.53306 0.04282 0.43556 0.0
H4490 H 0.50849 0.08146 0.43873 0.0
C4491 C 0.46803 0.06314 0.39176 0.0
C4492 C 0.49341 0.0408 0.40801 0.0
C4493 C 0.45814 0.06181 0.37822 0.0
C4494 C 0.53631 0.04533 0.46105 0.0
C4495 C 0.52911 0.04747 0.44698 0.0
C4496 C 0.50432 0.0701 0.43016 0.0
C4497 C 0.48052 0.0554 0.39066 0.0
C4498 C 0.49008 0.05554 0.40511 0.0
C4499 C 0.51649 0.05502 0.44766 0.0
C4500 C 0.50775 0.05538 0.43292 0.0
H4501 H 0.47547 0.03832 0.35105 0.0
H4502 H 0.49305 0.04084 0.37484 0.0
H4503 H 0.49303 0.08166 0.41412 0.0
H4504 H 0.51426 0.06278 0.4879 0.0
H4505 H 0.50157 0.06664 0.46307 0.0
C4506 C 0.81605 0.74676 0.10165 0.0
C4507 C 0.80396 0.74711 0.09043 0.0
C4508 C 0.81588 0.7532 0.11797 0.0
C4509 C 0.79499 0.77721 0.14772 0.0
H4510 H 0.80794 0.74996 0.17562 0.0
C4511 C 0.79359 0.78888 0.21804 0.0
C4512 C 0.7903 0.77469 0.22488 0.0
C4513 C 0.79486 0.78751 0.20142 0.0
C4514 C 0.80412 0.75765 0.16801 0.0
H4515 H 0.78287 0.75587 0.08765 0.0
H4516 H 0.78214 0.76624 0.11607 0.0
H4517 H 0.81196 0.74461 0.14741 0.0
H4518 H 0.78463 0.74812 0.21974 0.0
H4519 H 0.78608 0.7457 0.19093 0.0
H4520 H 0.78648 0.78972 0.1685 0.0
C4521 C 0.79189 0.76117 0.11229 0.0
C4522 C 0.80672 0.75477 0.15178 0.0
C4523 C 0.79217 0.75493 0.09593 0.0
C4524 C 0.78719 0.75924 0.21475 0.0
C4525 C 0.78825 0.75788 0.19827 0.0
C4526 C 0.79228 0.78002 0.16404 0.0
C4527 C 0.8035 0.75997 0.12363 0.0
C4528 C 0.802 0.76432 0.14128 0.0
C4529 C 0.79284 0.77194 0.19145 0.0
C4530 C 0.79651 0.77001 0.17431 0.0
H4531 H 0.82534 0.74086 0.098 0.0
H4532 H 0.82528 0.75243 0.12621 0.0
H4533 H 0.79142 0.78502 0.14011 0.0
H4534 H 0.79624 0.80095 0.22564 0.0
H4535 H 0.79834 0.7986 0.19656 0.0
C4536 C 0.09756 1.00084 0.67481 0.0
C4537 C 0.11217 0.01045 0.6818 0.0
C4538 C 0.09053 0.00351 0.66033 0.0
C4539 C 0.09409 0.03517 0.63261 0.0
H4540 H 0.06581 1.00069 0.60273 0.0
C4541 C 0.0792 0.04172 0.56652 0.0
C4542 C 0.0639 0.03632 0.55931 0.0
C4543 C 0.08342 0.03888 0.58187 0.0
C4544 C 0.07358 0.01056 0.61098 0.0
H4545 H 0.13089 0.02994 0.67775 0.0
H4546 H 0.1191 0.03435 0.65307 0.0
H4547 H 0.07637 0.99479 0.62783 0.0
H4548 H 0.04116 0.02269 0.56279 0.0
H4549 H 0.04861 0.0172 0.58945 0.0
H4550 H 0.09165 0.05079 0.61563 0.0
C4551 C 0.11258 0.0251 0.65895 0.0
C4552 C 0.07971 0.00717 0.62555 0.0
C4553 C 0.1195 0.0225 0.67336 0.0
C4554 C 0.05294 0.0276 0.56806 0.0
C4555 C 0.0573 0.02424 0.58333 0.0
C4556 C 0.08816 0.03847 0.61805 0.0
C4557 C 0.09781 0.01587 0.6521 0.0
C4558 C 0.09035 0.01937 0.63665 0.0
C4559 C 0.07269 0.02983 0.59055 0.0
C4560 C 0.07792 0.02624 0.60679 0.0
H4561 H 0.09131 0.99143 0.6807 0.0
H4562 H 0.0792 0.99604 0.65581 0.0
H4563 H 0.10167 0.04526 0.64075 0.0
H4564 H 0.08814 0.04794 0.56005 0.0
H4565 H 0.09539 0.04326 0.58667 0.0
C4566 C 0.82361 0.37659 0.42934 0.0
C4567 C 0.81252 0.37315 0.44021 0.0
C4568 C 0.82291 0.36593 0.41486 0.0
C4569 C 0.81016 0.32433 0.39404 0.0
H4570 H 0.81299 0.34474 0.3564 0.0
C4571 C 0.80315 0.29082 0.32783 0.0
C4572 C 0.81087 0.2997 0.31699 0.0
C4573 C 0.80484 0.29752 0.34414 0.0
C4574 C 0.81249 0.33892 0.36683 0.0
H4575 H 0.79211 0.35587 0.44474 0.0
H4576 H 0.79084 0.33706 0.41896 0.0
H4577 H 0.81094 0.36106 0.38232 0.0
H4578 H 0.82882 0.32077 0.31472 0.0
H4579 H 0.83246 0.33209 0.34335 0.0
H4580 H 0.8119 0.30216 0.37843 0.0
C4581 C 0.80006 0.34801 0.42186 0.0
C4582 C 0.81111 0.3482 0.38157 0.0
C4583 C 0.80073 0.35878 0.43643 0.0
C4584 C 0.82231 0.31394 0.32282 0.0
C4585 C 0.8243 0.32046 0.33916 0.0
C4586 C 0.81162 0.31498 0.37919 0.0
C4587 C 0.81109 0.35168 0.41098 0.0
C4588 C 0.81032 0.34108 0.3953 0.0
C4589 C 0.8147 0.31294 0.34972 0.0
C4590 C 0.8132 0.32237 0.36557 0.0
H4591 H 0.83267 0.3877 0.43188 0.0
H4592 H 0.83159 0.36885 0.40661 0.0
H4593 H 0.80953 0.31869 0.40459 0.0
H4594 H 0.79526 0.27914 0.32364 0.0
H4595 H 0.79756 0.29125 0.35208 0.0
C4596 C 0.44372 0.02477 0.20628 0.0
C4597 C 0.45221 0.03551 0.21971 0.0
C4598 C 0.44902 0.02482 0.19119 0.0
C4599 C 0.47466 0.05101 0.16901 0.0
H4600 H 0.4751 0.00975 0.14119 0.0
C4601 C 0.52015 0.03907 0.12772 0.0
C4602 C 0.51589 0.02706 0.11384 0.0
C4603 C 0.50877 0.04356 0.13706 0.0
C4604 C 0.47458 0.02138 0.14856 0.0
H4605 H 0.47322 0.05393 0.22837 0.0
H4606 H 0.48281 0.05371 0.20183 0.0
H4607 H 0.46294 0.00944 0.16609 0.0
H4608 H 0.49691 0.01147 0.09757 0.0
H4609 H 0.47687 0.01889 0.11431 0.0
H4610 H 0.48744 0.06284 0.15189 0.0
C4611 C 0.47182 0.04569 0.20295 0.0
C4612 C 0.46773 0.02118 0.16286 0.0
C4613 C 0.46647 0.04569 0.21806 0.0
C4614 C 0.50026 0.02043 0.10861 0.0
C4615 C 0.48889 0.02485 0.11795 0.0
C4616 C 0.48165 0.05121 0.15471 0.0
C4617 C 0.46291 0.03556 0.1894 0.0
C4618 C 0.46824 0.03596 0.17342 0.0
C4619 C 0.49313 0.03591 0.13255 0.0
C4620 C 0.48213 0.03635 0.14475 0.0
H4621 H 0.43257 0.01698 0.20729 0.0
H4622 H 0.442 0.0169 0.18087 0.0
H4623 H 0.47483 0.06256 0.1769 0.0
H4624 H 0.53223 0.04463 0.13148 0.0
H4625 H 0.51227 0.05203 0.14838 0.0
C4626 C 0.79443 0.72881 0.9205 0.0
C4627 C 0.80395 0.73756 0.93424 0.0
C4628 C 0.79589 0.73413 0.9059 0.0
C4629 C 0.82281 0.7605 0.88416 0.0
H4630 H 0.78584 0.75397 0.85535 0.0
C4631 C 0.82036 0.78541 0.82459 0.0
C4632 C 0.81037 0.77533 0.81171 0.0
C4633 C 0.82111 0.78076 0.83957 0.0
C4634 C 0.7963 0.75569 0.86319 0.0
H4635 H 0.82234 0.75883 0.94366 0.0
H4636 H 0.82458 0.76858 0.91813 0.0
H4637 H 0.78354 0.74719 0.8819 0.0
H4638 H 0.79471 0.75142 0.80406 0.0
H4639 H 0.79614 0.74331 0.83005 0.0
H4640 H 0.83548 0.76934 0.86534 0.0
C4641 C 0.81622 0.75737 0.91856 0.0
C4642 C 0.79499 0.75181 0.87842 0.0
C4643 C 0.81489 0.75187 0.93318 0.0
C4644 C 0.80226 0.75977 0.81376 0.0
C4645 C 0.80299 0.75512 0.8287 0.0
C4646 C 0.8241 0.76454 0.8689 0.0
C4647 C 0.80676 0.7485 0.90473 0.0
C4648 C 0.80823 0.75389 0.88901 0.0
C4649 C 0.81196 0.76584 0.8419 0.0
C4650 C 0.81086 0.7619 0.85819 0.0
H4651 H 0.78611 0.71755 0.92095 0.0
H4652 H 0.78868 0.72675 0.89545 0.0
H4653 H 0.83326 0.76213 0.89196 0.0
H4654 H 0.82734 0.79704 0.82333 0.0
H4655 H 0.82829 0.7892 0.84948 0.0
C4656 C 0.84568 0.093 0.02297 0.0
C4657 C 0.84499 0.10638 0.01549 0.0
C4658 C 0.85891 0.08662 0.0226 0.0
C4659 C 0.89222 0.08498 0.9992 0.0
H4660 H 0.90984 0.07181 0.03629 0.0
C4661 C 0.94865 0.06441 0.99661 0.0
C4662 C 0.9472 0.04849 0.99968 0.0
C4663 C 0.9376 0.07325 0.00141 0.0
C4664 C 0.905 0.07552 0.02592 0.0
H4665 H 0.85741 0.12399 0.00228 0.0
H4666 H 0.88057 0.11301 0.00179 0.0
H4667 H 0.88672 0.08332 0.03853 0.0
H4668 H 0.93433 0.02961 0.0111 0.0
H4669 H 0.91473 0.04511 0.01949 0.0
H4670 H 0.91034 0.07721 0.98657 0.0
C4671 C 0.87085 0.10719 0.00759 0.0
C4672 C 0.89179 0.08195 0.02714 0.0
C4673 C 0.85765 0.11345 0.00785 0.0
C4674 C 0.93533 0.04184 0.00849 0.0
C4675 C 0.92433 0.05073 0.01341 0.0
C4676 C 0.90542 0.07874 0.99804 0.0
C4677 C 0.87155 0.09365 0.01482 0.0
C4678 C 0.88534 0.08671 0.01376 0.0
C4679 C 0.92512 0.06624 0.00938 0.0
C4680 C 0.91189 0.07397 0.01136 0.0
H4681 H 0.83593 0.08738 0.02886 0.0
H4682 H 0.85915 0.07604 0.0281 0.0
H4683 H 0.88726 0.08822 0.98861 0.0
H4684 H 0.95797 0.06971 0.99 0.0
H4685 H 0.93844 0.08528 0.99833 0.0
C4686 C 0.38375 0.45134 0.05015 0.0
C4687 C 0.37604 0.44048 0.03628 0.0
C4688 C 0.39877 0.46085 0.0499 0.0
C4689 C 0.42744 0.47511 0.02103 0.0
H4690 H 0.45612 0.48782 0.05927 0.0
C4691 C 0.48718 0.51932 0.02164 0.0
C4692 C 0.4999 0.51656 0.03037 0.0
C4693 C 0.47209 0.51067 0.023 0.0
C4694 C 0.44836 0.48428 0.04839 0.0
H4695 H 0.37854 0.43072 0.01144 0.0
H4696 H 0.40459 0.44676 0.01106 0.0
H4697 H 0.4304 0.47109 0.06025 0.0
H4698 H 0.50693 0.50272 0.04742 0.0
H4699 H 0.48066 0.48761 0.04995 0.0
H4700 H 0.44559 0.48762 0.00898 0.0
C4701 C 0.39895 0.44852 0.02206 0.0
C4702 C 0.4334 0.47482 0.04902 0.0
C4703 C 0.38392 0.43919 0.02227 0.0
C4704 C 0.49727 0.50516 0.04068 0.0
C4705 C 0.48216 0.49656 0.04214 0.0
C4706 C 0.44242 0.48439 0.02037 0.0
C4707 C 0.40663 0.45968 0.03581 0.0
C4708 C 0.42266 0.47 0.03532 0.0
C4709 C 0.4693 0.499 0.03316 0.0
C4710 C 0.45317 0.48917 0.03403 0.0
H4711 H 0.37805 0.4528 0.06114 0.0
H4712 H 0.40403 0.46938 0.06072 0.0
H4713 H 0.41959 0.47206 0.01024 0.0
H4714 H 0.48894 0.52795 0.01349 0.0
H4715 H 0.46261 0.5132 0.01606 0.0
C4716 C 0.38556 0.6594 0.78515 0.0
C4717 C 0.38319 0.64541 0.77265 0.0
C4718 C 0.3774 0.67218 0.78493 0.0
C4719 C 0.34387 0.68407 0.76136 0.0
H4720 H 0.35846 0.72591 0.79003 0.0
C4721 C 0.31684 0.74272 0.75771 0.0
C4722 C 0.316 0.75359 0.77215 0.0
C4723 C 0.32417 0.72919 0.75749 0.0
C4724 C 0.35398 0.7143 0.78196 0.0
H4725 H 0.36943 0.63484 0.74995 0.0
H4726 H 0.35607 0.65678 0.74922 0.0
H4727 H 0.37257 0.70436 0.79018 0.0
H4728 H 0.32324 0.75859 0.79756 0.0
H4729 H 0.33588 0.73563 0.79723 0.0
H4730 H 0.32546 0.69449 0.75292 0.0
C4731 C 0.36407 0.65797 0.75959 0.0
C4732 C 0.36222 0.7016 0.78206 0.0
C4733 C 0.37214 0.64514 0.75988 0.0
C4734 C 0.32311 0.75041 0.7862 0.0
C4735 C 0.33065 0.73718 0.78597 0.0
C4736 C 0.33576 0.6969 0.76112 0.0
C4737 C 0.36636 0.67195 0.77212 0.0
C4738 C 0.35742 0.68596 0.77184 0.0
C4739 C 0.33157 0.72625 0.77161 0.0
C4740 C 0.3405 0.71235 0.7715 0.0
H4741 H 0.39393 0.66072 0.79526 0.0
H4742 H 0.37981 0.6822 0.79512 0.0
H4743 H 0.33917 0.67253 0.75333 0.0
H4744 H 0.31245 0.74507 0.74642 0.0
H4745 H 0.32463 0.72144 0.74604 0.0
C4746 C 0.19106 0.59966 0.49671 0.0
C4747 C 0.20067 0.5884 0.49515 0.0
C4748 C 0.17612 0.59492 0.50088 0.0
C4749 C 0.14438 0.56227 0.50278 0.0
H4750 H 0.13948 0.58784 0.54422 0.0
C4751 C 0.08852 0.54719 0.52664 0.0
C4752 C 0.08107 0.5603 0.5276 0.0
C4753 C 0.10442 0.55006 0.52859 0.0
C4754 C 0.14084 0.5806 0.53275 0.0
H4755 H 0.20216 0.56321 0.49493 0.0
H4756 H 0.17542 0.55459 0.50156 0.0
H4757 H 0.16421 0.59355 0.53214 0.0
H4758 H 0.0842 0.58676 0.53193 0.0
H4759 H 0.11254 0.59188 0.53365 0.0
H4760 H 0.12099 0.54977 0.50284 0.0
C4761 C 0.17964 0.56709 0.49986 0.0
C4762 C 0.15478 0.58388 0.52585 0.0
C4763 C 0.19474 0.57192 0.49596 0.0
C4764 C 0.08979 0.57649 0.53124 0.0
C4765 C 0.1059 0.5794 0.53251 0.0
C4766 C 0.13048 0.55905 0.5096 0.0
C4767 C 0.1707 0.57885 0.50322 0.0
C4768 C 0.15642 0.57487 0.51074 0.0
C4769 C 0.11316 0.56607 0.53014 0.0
C4770 C 0.12859 0.56828 0.52454 0.0
H4771 H 0.19559 0.61251 0.49638 0.0
H4772 H 0.16916 0.604 0.50329 0.0
H4773 H 0.14556 0.55534 0.49109 0.0
H4774 H 0.08222 0.53462 0.52357 0.0
H4775 H 0.10987 0.53965 0.5269 0.0
C4776 C 0.71472 0.95395 0.73911 0.0
C4777 C 0.72426 0.96833 0.7362 0.0
C4778 C 0.72104 0.94074 0.74103 0.0
C4779 C 0.75265 0.92058 0.73754 0.0
H4780 H 0.74556 0.91592 0.78148 0.0
C4781 C 0.78305 0.88449 0.77644 0.0
C4782 C 0.77386 0.8769 0.78723 0.0
C4783 C 0.77678 0.89333 0.76646 0.0
C4784 C 0.74741 0.91686 0.76911 0.0
H4785 H 0.74734 0.98033 0.73193 0.0
H4786 H 0.75866 0.95691 0.73552 0.0
H4787 H 0.73528 0.93609 0.76995 0.0
H4788 H 0.75088 0.87082 0.7951 0.0
H4789 H 0.7397 0.88588 0.77728 0.0
H4790 H 0.76484 0.90116 0.73682 0.0
C4791 C 0.74631 0.95584 0.736 0.0
C4792 C 0.74164 0.92844 0.76259 0.0
C4793 C 0.73993 0.96912 0.73404 0.0
C4794 C 0.75812 0.87692 0.78702 0.0
C4795 C 0.7518 0.88548 0.77687 0.0
C4796 C 0.75841 0.90878 0.74408 0.0
C4797 C 0.73696 0.94192 0.74016 0.0
C4798 C 0.74397 0.93014 0.74672 0.0
C4799 C 0.76128 0.89443 0.76715 0.0
C4800 C 0.75552 0.90668 0.75982 0.0
H4801 H 0.7026 0.95335 0.74089 0.0
H4802 H 0.71375 0.93005 0.74432 0.0
H4803 H 0.75463 0.92199 0.7253 0.0
H4804 H 0.79525 0.88443 0.77647 0.0
H4805 H 0.78429 0.90018 0.75908 0.0
C4806 C 0.7253 0.94283 0.54254 0.0
C4807 C 0.72544 0.92798 0.53221 0.0
C4808 C 0.71289 0.9505 0.54125 0.0
C4809 C 0.68234 0.95262 0.51134 0.0
H4810 H 0.66571 0.9756 0.54763 0.0
C4811 C 0.63249 0.98395 0.50106 0.0
C4812 C 0.63331 0.9994 0.51057 0.0
C4813 C 0.64222 0.97402 0.50508 0.0
C4814 C 0.67032 0.96936 0.53736 0.0
H4815 H 0.71212 0.909 0.5132 0.0
H4816 H 0.69058 0.92234 0.51094 0.0
H4817 H 0.68571 0.96062 0.55229 0.0
H4818 H 0.6445 0.01663 0.53179 0.0
H4819 H 0.66196 0.99954 0.53866 0.0
H4820 H 0.66746 0.96163 0.49636 0.0
C4821 C 0.70022 0.92828 0.51978 0.0
C4822 C 0.68176 0.96075 0.54004 0.0
C4823 C 0.71259 0.92064 0.52105 0.0
C4824 C 0.64364 0.00464 0.52442 0.0
C4825 C 0.65357 0.9948 0.52834 0.0
C4826 C 0.67103 0.96127 0.50865 0.0
C4827 C 0.70036 0.94346 0.52962 0.0
C4828 C 0.6879 0.95229 0.52704 0.0
C4829 C 0.65321 0.9795 0.51851 0.0
C4830 C 0.66485 0.96978 0.5216 0.0
H4831 H 0.73503 0.94886 0.55122 0.0
H4832 H 0.7134 0.96224 0.54895 0.0
H4833 H 0.68705 0.94654 0.50104 0.0
H4834 H 0.62454 0.97974 0.49032 0.0
H4835 H 0.64132 0.96216 0.49744 0.0
C4836 C 0.38323 0.46441 0.75579 0.0
C4837 C 0.37973 0.47763 0.76652 0.0
C4838 C 0.37546 0.44784 0.75532 0.0
C4839 C 0.34673 0.42048 0.7778 0.0
H4840 H 0.34774 0.38711 0.74067 0.0
C4841 C 0.30834 0.35283 0.76956 0.0
C4842 C 0.31497 0.33956 0.76332 0.0
C4843 C 0.31604 0.36939 0.76988 0.0
C4844 C 0.34735 0.39617 0.75125 0.0
H4845 H 0.36448 0.48287 0.78499 0.0
H4846 H 0.35092 0.4547 0.78397 0.0
H4847 H 0.36081 0.41546 0.74115 0.0
H4848 H 0.33521 0.3339 0.75233 0.0
H4849 H 0.34824 0.36245 0.75232 0.0
H4850 H 0.33277 0.40102 0.78757 0.0
C4851 C 0.36005 0.45682 0.77609 0.0
C4852 C 0.35505 0.41274 0.75161 0.0
C4853 C 0.36794 0.47335 0.77668 0.0
C4854 C 0.32955 0.34359 0.75719 0.0
C4855 C 0.33707 0.36012 0.75714 0.0
C4856 C 0.3388 0.40397 0.77729 0.0
C4857 C 0.36358 0.4435 0.76545 0.0
C4858 C 0.35505 0.42544 0.76494 0.0
C4859 C 0.33059 0.37346 0.76364 0.0
C4860 C 0.33896 0.39137 0.76405 0.0
H4861 H 0.39231 0.46675 0.74786 0.0
H4862 H 0.37913 0.43845 0.74707 0.0
H4863 H 0.34641 0.42925 0.78858 0.0
H4864 H 0.29729 0.35047 0.77461 0.0
H4865 H 0.31044 0.37905 0.77492 0.0
C4866 C 0.23844 0.629 0.26819 0.0
C4867 C 0.24189 0.61708 0.25621 0.0
C4868 C 0.24786 0.64451 0.27164 0.0
C4869 C 0.27174 0.67317 0.25263 0.0
H4870 H 0.27671 0.6986 0.29607 0.0
C4871 C 0.2921 0.74305 0.27119 0.0
C4872 C 0.27845 0.74888 0.27073 0.0
C4873 C 0.29153 0.72682 0.27181 0.0
C4874 C 0.27562 0.6915 0.28398 0.0
H4875 H 0.25736 0.61158 0.23809 0.0
H4876 H 0.27419 0.63933 0.24413 0.0
H4877 H 0.27077 0.66856 0.29189 0.0
H4878 H 0.25367 0.74305 0.27254 0.0
H4879 H 0.25268 0.71417 0.27409 0.0
H4880 H 0.27605 0.69622 0.2448 0.0
C4881 C 0.26429 0.63644 0.25096 0.0
C4882 C 0.27233 0.67451 0.28157 0.0
C4883 C 0.25472 0.62078 0.24744 0.0
C4884 C 0.26426 0.7386 0.27234 0.0
C4885 C 0.26372 0.72233 0.2734 0.0
C4886 C 0.27528 0.69014 0.25508 0.0
C4887 C 0.26091 0.64831 0.26316 0.0
C4888 C 0.26949 0.66531 0.26585 0.0
C4889 C 0.27735 0.71648 0.27271 0.0
C4890 C 0.27648 0.69916 0.27068 0.0
H4891 H 0.22832 0.62633 0.27478 0.0
H4892 H 0.24463 0.65368 0.2806 0.0
H4893 H 0.26943 0.66631 0.24043 0.0
H4894 H 0.30325 0.75088 0.27097 0.0
H4895 H 0.30207 0.72226 0.27125 0.0
C4896 C 0.52267 0.69624 0.48778 0.0
C4897 C 0.51812 0.69505 0.47142 0.0
C4898 C 0.52556 0.68252 0.49358 0.0
C4899 C 0.53779 0.64388 0.47999 0.0
H4900 H 0.52244 0.63139 0.51908 0.0
C4901 C 0.54181 0.58161 0.49723 0.0
C4902 C 0.54256 0.58028 0.51349 0.0
C4903 C 0.54032 0.59638 0.49268 0.0
C4904 C 0.52712 0.63483 0.5083 0.0
H4905 H 0.51298 0.67865 0.44836 0.0
H4906 H 0.51832 0.65477 0.45837 0.0
H4907 H 0.51625 0.65537 0.51027 0.0
H4908 H 0.54254 0.59327 0.53776 0.0
H4909 H 0.54072 0.61932 0.52999 0.0
H4910 H 0.54894 0.62368 0.47807 0.0
C4911 C 0.51953 0.66624 0.46676 0.0
C4912 C 0.52345 0.64857 0.5032 0.0
C4913 C 0.51633 0.67985 0.46104 0.0
C4914 C 0.54228 0.59411 0.52515 0.0
C4915 C 0.54097 0.60895 0.52063 0.0
C4916 C 0.54164 0.63029 0.48518 0.0
C4917 C 0.52435 0.66744 0.48306 0.0
C4918 C 0.52858 0.65314 0.48887 0.0
C4919 C 0.53949 0.61019 0.50429 0.0
C4920 C 0.53622 0.6254 0.49932 0.0
H4921 H 0.52419 0.70786 0.49601 0.0
H4922 H 0.52928 0.68388 0.50619 0.0
H4923 H 0.54218 0.64724 0.46905 0.0
H4924 H 0.54147 0.57095 0.48799 0.0
H4925 H 0.53897 0.59661 0.47998 0.0
C4926 C 0.66072 0.30127 0.65566 0.0
C4927 C 0.65063 0.31134 0.66151 0.0
C4928 C 0.67395 0.30047 0.6651 0.0
C4929 C 0.69164 0.30984 0.70794 0.0
H4930 H 0.72851 0.30235 0.68797 0.0
C4931 C 0.74776 0.30951 0.7467 0.0
C4932 C 0.75721 0.29878 0.74082 0.0
C4933 C 0.73535 0.31176 0.73699 0.0
C4934 C 0.71829 0.30422 0.69384 0.0
H4935 H 0.64715 0.32863 0.68233 0.0
H4936 H 0.67024 0.32758 0.69848 0.0
H4937 H 0.70626 0.30496 0.67152 0.0
H4938 H 0.761 0.28241 0.71949 0.0
H4939 H 0.73938 0.28606 0.7027 0.0
H4940 H 0.70359 0.30898 0.73024 0.0
C4941 C 0.66778 0.32 0.68661 0.0
C4942 C 0.7054 0.30575 0.6843 0.0
C4943 C 0.65452 0.32079 0.67716 0.0
C4944 C 0.75404 0.29073 0.72463 0.0
C4945 C 0.74157 0.29293 0.71489 0.0
C4946 C 0.70452 0.30828 0.71748 0.0
C4947 C 0.67772 0.30974 0.68082 0.0
C4948 C 0.69176 0.30851 0.69113 0.0
C4949 C 0.73185 0.30337 0.72092 0.0
C4950 C 0.71811 0.30537 0.71064 0.0
H4951 H 0.65849 0.29398 0.64365 0.0
H4952 H 0.68107 0.29227 0.66009 0.0
H4953 H 0.68141 0.31168 0.7138 0.0
H4954 H 0.75002 0.31642 0.75881 0.0
H4955 H 0.72859 0.32029 0.74213 0.0
C4956 C 0.01111 0.36266 0.97923 0.0
C4957 C 0.02455 0.35638 0.98015 0.0
C4958 C 0.01169 0.37937 0.9843 0.0
C4959 C 0.03662 0.4193 0.00605 0.0
H4960 H 0.01129 0.43697 0.97812 0.0
C4961 C 0.03602 0.4889 0.01562 0.0
C4962 C 0.03661 0.49566 0.00157 0.0
C4963 C 0.03318 0.47182 0.01465 0.0
C4964 C 0.01849 0.43229 0.98604 0.0
H4965 H 0.04907 0.36303 0.9881 0.0
H4966 H 0.05019 0.39232 0.99624 0.0
H4967 H 0.00976 0.40768 0.97368 0.0
H4968 H 0.03462 0.48993 0.97561 0.0
H4969 H 0.02965 0.46031 0.97384 0.0
H4970 H 0.04589 0.44425 0.01785 0.0
C4971 C 0.03912 0.38419 0.99178 0.0
C4972 C 0.01745 0.41538 0.98364 0.0
C4973 C 0.03851 0.36736 0.98687 0.0
C4974 C 0.03399 0.48504 0.98661 0.0
C4975 C 0.0311 0.46805 0.98563 0.0
C4976 C 0.03772 0.43633 0.0084 0.0
C4977 C 0.02576 0.39049 0.99019 0.0
C4978 C 0.02655 0.40859 0.99351 0.0
C4979 C 0.03087 0.46118 0.99961 0.0
C4980 C 0.0288 0.44305 0.99826 0.0
H4981 H 1.00014 0.35482 0.97399 0.0
H4982 H 1.00106 0.38361 0.98324 0.0
H4983 H 0.04371 0.41456 0.014 0.0
H4984 H 0.03832 0.49677 0.02734 0.0
H4985 H 0.03296 0.46698 0.02567 0.0
C4986 C 0.98621 0.80932 0.14939 0.0
C4987 C 0.9993 0.80441 0.15526 0.0
C4988 C 0.97268 0.80796 0.1576 0.0
C4989 C 0.95364 0.7873 0.18996 0.0
H4990 H 0.92617 0.81721 0.18894 0.0
C4991 C 0.90734 0.7901 0.23468 0.0
C4992 C 0.89191 0.78831 0.2285 0.0
C4993 C 0.91971 0.7933 0.22519 0.0
C4994 C 0.93367 0.80869 0.18925 0.0
H4995 H 0.00842 0.7949 0.1749 0.0
H4996 H 0.98537 0.79303 0.18935 0.0
H4997 H 0.94916 0.8203 0.17381 0.0
H4998 H 0.87771 0.78984 0.20756 0.0
H4999 H 0.89956 0.796 0.19098 0.0
H5000 H 0.93846 0.77605 0.20576 0.0
C5001 C 0.98514 0.79732 0.17806 0.0
C5002 C 0.9469 0.8104 0.18051 0.0
C5003 C 0.99853 0.79848 0.16977 0.0
C5004 C 0.88939 0.79115 0.21278 0.0
C5005 C 0.90192 0.79459 0.20325 0.0
C5006 C 0.94064 0.78578 0.19884 0.0
C5007 C 0.97183 0.8018 0.17207 0.0
C5008 C 0.95726 0.79983 0.18086 0.0
C5009 C 0.9172 0.79512 0.20918 0.0
C5010 C 0.93053 0.79653 0.19878 0.0
H5011 H 0.98627 0.81384 0.1382 0.0
H5012 H 0.96278 0.81141 0.15237 0.0
H5013 H 0.96081 0.77848 0.19025 0.0
H5014 H 0.90986 0.78838 0.24681 0.0
H5015 H 0.9313 0.79399 0.23032 0.0
C5016 C 0.52562 0.34552 0.11016 0.0
C5017 C 0.51291 0.33217 0.1055 0.0
C5018 C 0.52777 0.35873 0.10214 0.0
C5019 C 0.51775 0.36993 0.06378 0.0
H5020 H 0.53176 0.41445 0.08772 0.0
C5021 C 0.52703 0.42497 0.03161 0.0
C5022 C 0.54058 0.43705 0.03669 0.0
C5023 C 0.52206 0.41299 0.04077 0.0
C5024 C 0.52796 0.40209 0.08085 0.0
H5025 H 0.49253 0.32214 0.0887 0.0
H5026 H 0.49616 0.34543 0.07484 0.0
H5027 H 0.52619 0.39164 0.1021 0.0
H5028 H 0.55942 0.44667 0.05527 0.0
H5029 H 0.55097 0.42554 0.07128 0.0
H5030 H 0.51984 0.38024 0.04253 0.0
C5031 C 0.50451 0.34557 0.08464 0.0
C5032 C 0.52476 0.38903 0.08909 0.0
C5033 C 0.50236 0.33233 0.09267 0.0
C5034 C 0.54889 0.43741 0.05125 0.0
C5035 C 0.54398 0.42538 0.06041 0.0
C5036 C 0.52099 0.38296 0.05554 0.0
C5037 C 0.51724 0.3589 0.0893 0.0
C5038 C 0.51978 0.37281 0.08062 0.0
C5039 C 0.53066 0.41285 0.0551 0.0
C5040 C 0.52627 0.39918 0.06398 0.0
H5041 H 0.53385 0.34584 0.12013 0.0
H5042 H 0.53781 0.36873 0.10586 0.0
H5043 H 0.51413 0.35754 0.05692 0.0
H5044 H 0.5205 0.42461 0.02037 0.0
H5045 H 0.5116 0.4037 0.03651 0.0
C5046 C 0.00333 0.29672 0.32708 0.0
C5047 C 0.01332 0.31108 0.33566 0.0
C5048 C 0.98799 0.29677 0.32269 0.0
C5049 C 0.96194 0.32433 0.31784 0.0
H5050 H 0.92998 0.28887 0.3269 0.0
C5051 C 0.90071 0.32904 0.30884 0.0
C5052 C 0.89233 0.31581 0.29741 0.0
C5053 C 0.91369 0.32726 0.31763 0.0
C5054 C 0.93882 0.29886 0.32441 0.0
H5055 H 0.01527 0.33678 0.34601 0.0
H5056 H 0.98867 0.33687 0.33828 0.0
H5057 H 0.95727 0.28808 0.33134 0.0
H5058 H 0.88934 0.28999 0.28736 0.0
H5059 H 0.91233 0.2869 0.30246 0.0
H5060 H 0.9437 0.33506 0.31074 0.0
C5061 C 0.99267 0.32565 0.33478 0.0
C5062 C 0.95437 0.29833 0.32676 0.0
C5063 C 0.00793 0.32561 0.33915 0.0
C5064 C 0.89575 0.30028 0.29624 0.0
C5065 C 0.90887 0.29854 0.30488 0.0
C5066 C 0.94649 0.3249 0.31557 0.0
C5067 C 0.98248 0.31116 0.32683 0.0
C5068 C 0.96603 0.31111 0.32352 0.0
C5069 C 0.91852 0.31235 0.31473 0.0
C5070 C 0.93478 0.31221 0.31888 0.0
H5071 H 0.00729 0.28541 0.32409 0.0
H5072 H 0.98038 0.28552 0.31629 0.0
H5073 H 0.97069 0.33419 0.315 0.0
H5074 H 0.89812 0.34109 0.30983 0.0
H5075 H 0.9208 0.33798 0.32546 0.0
C5076 C 0.99501 0.6813 0.57821 0.0
C5077 C 0.98541 0.68351 0.59069 0.0
C5078 C 0.99592 0.66556 0.57113 0.0
C5079 C 0.9835 0.62307 0.56277 0.0
H5080 H 0.02348 0.62219 0.5831 0.0
C5081 C 0.00997 0.56709 0.54892 0.0
C5082 C 0.02465 0.5713 0.54355 0.0
C5083 C 0.00345 0.57932 0.55701 0.0
C5084 C 0.01226 0.62226 0.57749 0.0
H5085 H 0.96772 0.67131 0.6041 0.0
H5086 H 0.96929 0.64363 0.59144 0.0
H5087 H 0.0129 0.64665 0.5897 0.0
H5088 H 0.04462 0.5907 0.54264 0.0
H5089 H 0.03318 0.61236 0.55673 0.0
H5090 H 0.9832 0.599 0.54992 0.0
C5091 C 0.97605 0.6541 0.58729 0.0
C5092 C 0.00627 0.63614 0.58121 0.0
C5093 C 0.97519 0.66987 0.59447 0.0
C5094 C 0.03318 0.5875 0.54677 0.0
C5095 C 0.02673 0.59973 0.55491 0.0
C5096 C 0.98953 0.60915 0.55898 0.0
C5097 C 0.98709 0.65203 0.57636 0.0
C5098 C 0.99212 0.63669 0.57351 0.0
C5099 C 0.01169 0.59572 0.55975 0.0
C5100 C 0.00413 0.60891 0.56599 0.0
H5101 H 0.00278 0.69171 0.57496 0.0
H5102 H 0.00451 0.66399 0.56267 0.0
H5103 H 0.97253 0.62349 0.55686 0.0
H5104 H 0.00344 0.55445 0.54647 0.0
H5105 H 0.99187 0.57607 0.56074 0.0
C5106 C 0.65649 0.82662 0.81977 0.0
C5107 C 0.65683 0.82342 0.83542 0.0
C5108 C 0.66846 0.82399 0.8103 0.0
C5109 C 0.69377 0.79584 0.80629 0.0
H5110 H 0.71814 0.82364 0.78068 0.0
C5111 C 0.75496 0.79576 0.79334 0.0
C5112 C 0.75991 0.79805 0.77836 0.0
C5113 C 0.73956 0.79477 0.79611 0.0
C5114 C 0.71104 0.81556 0.78736 0.0
H5115 H 0.67008 0.81669 0.85426 0.0
H5116 H 0.69119 0.81229 0.8378 0.0
H5117 H 0.69773 0.83333 0.79535 0.0
H5118 H 0.75322 0.80153 0.75455 0.0
H5119 H 0.726 0.80043 0.75961 0.0
H5120 H 0.70759 0.77847 0.79908 0.0
C5121 C 0.68166 0.81651 0.83272 0.0
C5122 C 0.69955 0.82118 0.79585 0.0
C5123 C 0.66975 0.81913 0.84213 0.0
C5124 C 0.74935 0.79922 0.76603 0.0
C5125 C 0.73392 0.79859 0.7689 0.0
C5126 C 0.7052 0.79023 0.79783 0.0
C5127 C 0.68065 0.81805 0.81652 0.0
C5128 C 0.69134 0.8116 0.80588 0.0
C5129 C 0.72908 0.79683 0.78413 0.0
C5130 C 0.7143 0.80033 0.78883 0.0
H5131 H 0.64647 0.8299 0.81452 0.0
H5132 H 0.6676 0.82534 0.79784 0.0
H5133 H 0.68723 0.78811 0.81368 0.0
H5134 H 0.76318 0.79571 0.8032 0.0
H5135 H 0.73616 0.79384 0.80808 0.0
C5136 C 0.49017 0.57756 0.68987 0.0
C5137 C 0.47584 0.56725 0.69177 0.0
C5138 C 0.49724 0.57589 0.67514 0.0
C5139 C 0.49448 0.54645 0.63465 0.0
H5140 H 0.5228 0.58286 0.62242 0.0
C5141 C 0.51383 0.54224 0.56925 0.0
C5142 C 0.5292 0.54927 0.56654 0.0
C5143 C 0.50821 0.54485 0.58459 0.0
C5144 C 0.51502 0.57245 0.62561 0.0
H5145 H 0.45768 0.54747 0.6786 0.0
H5146 H 0.46951 0.54483 0.65342 0.0
H5147 H 0.51149 0.58668 0.6482 0.0
H5148 H 0.55034 0.56525 0.57873 0.0
H5149 H 0.5406 0.56992 0.60532 0.0
H5150 H 0.49781 0.53232 0.61202 0.0
C5151 C 0.4758 0.55389 0.66341 0.0
C5152 C 0.50845 0.57464 0.64061 0.0
C5153 C 0.46884 0.55546 0.67811 0.0
C5154 C 0.53859 0.55933 0.58002 0.0
C5155 C 0.53287 0.56216 0.59542 0.0
C5156 C 0.50089 0.54434 0.61967 0.0
C5157 C 0.49028 0.56391 0.6615 0.0
C5158 C 0.49786 0.56171 0.64549 0.0
C5159 C 0.51755 0.55483 0.5981 0.0
C5160 C 0.51121 0.55728 0.61468 0.0
H5161 H 0.49619 0.58677 0.69991 0.0
H5162 H 0.50839 0.58389 0.67463 0.0
H5163 H 0.48693 0.53585 0.63772 0.0
H5164 H 0.50598 0.53449 0.55944 0.0
H5165 H 0.4963 0.53911 0.58577 0.0
C5166 C 0.76788 0.18802 0.93737 0.0
C5167 C 0.77497 0.19744 0.95206 0.0
C5168 C 0.7689 0.19477 0.92361 0.0
C5169 C 0.79263 0.22778 0.90695 0.0
H5170 H 0.75773 0.21635 0.8747 0.0
C5171 C 0.78004 0.26157 0.85684 0.0
C5172 C 0.77068 0.25187 0.84339 0.0
C5173 C 0.78579 0.25404 0.8684 0.0
C5174 C 0.76772 0.21931 0.88342 0.0
H5175 H 0.78798 0.22128 0.96444 0.0
H5176 H 0.78923 0.23351 0.94026 0.0
H5177 H 0.75499 0.20636 0.89963 0.0
H5178 H 0.76202 0.22729 0.8298 0.0
H5179 H 0.77236 0.21403 0.84991 0.0
H5180 H 0.80501 0.24154 0.89079 0.0
C5181 C 0.78333 0.22078 0.93931 0.0
C5182 C 0.76609 0.2137 0.89774 0.0
C5183 C 0.7825 0.2139 0.95308 0.0
C5184 C 0.76904 0.23483 0.84031 0.0
C5185 C 0.77498 0.22733 0.85173 0.0
C5186 C 0.79419 0.23361 0.89259 0.0
C5187 C 0.77682 0.21113 0.92442 0.0
C5188 C 0.77853 0.2178 0.9096 0.0
C5189 C 0.78218 0.23685 0.86642 0.0
C5190 C 0.78175 0.22929 0.88071 0.0
H5191 H 0.76223 0.1752 0.93639 0.0
H5192 H 0.76398 0.18698 0.91225 0.0
H5193 H 0.80245 0.23095 0.91588 0.0
H5194 H 0.78146 0.2748 0.85923 0.0
H5195 H 0.79135 0.26161 0.87964 0.0
C5196 C 0.13601 0.53213 0.1573 0.0
C5197 C 0.13193 0.52328 0.1695 0.0
C5198 C 0.12538 0.53067 0.14437 0.0
C5199 C 0.09064 0.50694 0.12129 0.0
H5200 H 0.08538 0.54999 0.11555 0.0
C5201 C 0.05206 0.51893 0.0697 0.0
C5202 C 0.06107 0.52963 0.06111 0.0
C5203 C 0.05794 0.51696 0.08454 0.0
C5204 C 0.08658 0.53791 0.11724 0.0
H5205 H 0.11437 0.50528 0.17768 0.0
H5206 H 0.09553 0.50279 0.15481 0.0
H5207 H 0.10226 0.5477 0.13814 0.0
H5208 H 0.08345 0.54612 0.06084 0.0
H5209 H 0.09363 0.54255 0.08654 0.0
H5210 H 0.07555 0.4973 0.09979 0.0
C5211 C 0.10692 0.51071 0.15529 0.0
C5212 C 0.09626 0.53662 0.12997 0.0
C5213 C 0.1176 0.51214 0.16824 0.0
C5214 C 0.07611 0.53799 0.06728 0.0
C5215 C 0.08192 0.53606 0.08202 0.0
C5216 C 0.08095 0.50824 0.10845 0.0
C5217 C 0.11063 0.52043 0.14367 0.0
C5218 C 0.09879 0.52121 0.13163 0.0
C5219 C 0.0728 0.52573 0.09078 0.0
C5220 C 0.07943 0.52381 0.10609 0.0
H5221 H 0.14716 0.54057 0.15809 0.0
H5222 H 0.12842 0.53803 0.13525 0.0
H5223 H 0.09249 0.49498 0.12259 0.0
H5224 H 0.04057 0.51201 0.06495 0.0
H5225 H 0.05092 0.50875 0.09117 0.0
C5226 C 0.77543 0.82192 0.4366 0.0
C5227 C 0.78817 0.83339 0.44535 0.0
C5228 C 0.77616 0.8151 0.4204 0.0
C5229 C 0.80495 0.81072 0.38972 0.0
H5230 H 0.76949 0.80376 0.35877 0.0
C5231 C 0.80466 0.81617 0.32252 0.0
C5232 C 0.79877 0.80153 0.31149 0.0
C5233 C 0.80381 0.81667 0.33899 0.0
C5234 C 0.7794 0.8054 0.36736 0.0
H5235 H 0.81137 0.8472 0.44366 0.0
H5236 H 0.81255 0.83581 0.41571 0.0
H5237 H 0.7666 0.81143 0.38748 0.0
H5238 H 0.78677 0.77605 0.30893 0.0
H5239 H 0.78457 0.77716 0.33793 0.0
H5240 H 0.81791 0.80583 0.3694 0.0
C5241 C 0.80218 0.83143 0.42134 0.0
C5242 C 0.77777 0.80976 0.38381 0.0
C5243 C 0.80149 0.83807 0.43745 0.0
C5244 C 0.79193 0.78733 0.31724 0.0
C5245 C 0.79051 0.788 0.33375 0.0
C5246 C 0.8066 0.80665 0.3733 0.0
C5247 C 0.78962 0.81973 0.41256 0.0
C5248 C 0.79065 0.81295 0.39522 0.0
C5249 C 0.79632 0.80275 0.3447 0.0
C5250 C 0.79393 0.80425 0.36199 0.0
H5251 H 0.76499 0.81803 0.44235 0.0
H5252 H 0.76626 0.80608 0.41411 0.0
H5253 H 0.81504 0.81256 0.39808 0.0
H5254 H 0.80941 0.82742 0.31835 0.0
H5255 H 0.80826 0.8282 0.34723 0.0
C5256 C 0.47871 0.5784 0.86919 0.0
C5257 C 0.47977 0.5685 0.85422 0.0
C5258 C 0.48578 0.57609 0.88375 0.0
C5259 C 0.50374 0.54518 0.9019 0.0
H5260 H 0.51474 0.58088 0.93852 0.0
C5261 C 0.5324 0.53801 0.96487 0.0
C5262 C 0.52612 0.54507 0.97868 0.0
C5263 C 0.52829 0.54089 0.94928 0.0
C5264 C 0.51168 0.57065 0.9285 0.0
H5265 H 0.49029 0.54879 0.84348 0.0
H5266 H 0.50253 0.54493 0.8684 0.0
H5267 H 0.50493 0.58595 0.91298 0.0
H5268 H 0.51126 0.56188 0.98621 0.0
H5269 H 0.50512 0.56744 0.96003 0.0
H5270 H 0.51069 0.52996 0.91759 0.0
C5271 C 0.49579 0.55424 0.86908 0.0
C5272 C 0.5059 0.57356 0.91366 0.0
C5273 C 0.48867 0.5565 0.85456 0.0
C5274 C 0.51635 0.55584 0.9762 0.0
C5275 C 0.51279 0.55918 0.96093 0.0
C5276 C 0.50966 0.5423 0.91675 0.0
C5277 C 0.49438 0.56382 0.88413 0.0
C5278 C 0.5015 0.56086 0.9 0.0
C5279 C 0.51838 0.55161 0.94701 0.0
C5280 C 0.5135 0.5549 0.9305 0.0
H5281 H 0.47197 0.58771 0.86981 0.0
H5282 H 0.48406 0.58375 0.8948 0.0
H5283 H 0.50048 0.53485 0.89202 0.0
H5284 H 0.54037 0.53018 0.96598 0.0
H5285 H 0.53311 0.5349 0.93903 0.0
C5286 C 0.78739 0.20697 0.10646 0.0
C5287 C 0.77664 0.20613 0.09352 0.0
C5288 C 0.78664 0.21678 0.12112 0.0
C5289 C 0.7732 0.25142 0.14149 0.0
H5290 H 0.77502 0.22908 0.1776 0.0
C5291 C 0.77058 0.27773 0.20974 0.0
C5292 C 0.78338 0.27571 0.21883 0.0
C5293 C 0.76812 0.27074 0.19344 0.0
C5294 C 0.77438 0.23538 0.16758 0.0
H5295 H 0.75721 0.21534 0.0853 0.0
H5296 H 0.75578 0.23252 0.11134 0.0
H5297 H 0.77363 0.21367 0.15036 0.0
H5298 H 0.80391 0.26573 0.21875 0.0
H5299 H 0.79956 0.25332 0.19029 0.0
H5300 H 0.77442 0.2733 0.159 0.0
C5301 C 0.76473 0.22556 0.11 0.0
C5302 C 0.77364 0.22664 0.1521 0.0
C5303 C 0.76548 0.2157 0.09525 0.0
C5304 C 0.79398 0.26728 0.21172 0.0
C5305 C 0.79148 0.26023 0.19559 0.0
C5306 C 0.77391 0.26022 0.15709 0.0
C5307 C 0.77509 0.2258 0.12306 0.0
C5308 C 0.77358 0.23472 0.13903 0.0
C5309 C 0.77837 0.2616 0.18649 0.0
C5310 C 0.77502 0.25228 0.17014 0.0
H5311 H 0.79603 0.19961 0.10545 0.0
H5312 H 0.79488 0.21704 0.13107 0.0
H5313 H 0.77314 0.25779 0.13146 0.0
H5314 H 0.76241 0.28434 0.2153 0.0
H5315 H 0.75797 0.27184 0.18647 0.0
C5316 C 0.14349 0.52587 0.32864 0.0
C5317 C 0.13595 0.53091 0.31611 0.0
C5318 C 0.1383 0.52793 0.3439 0.0
C5319 C 0.11873 0.5557 0.36766 0.0
H5320 H 0.11267 0.52454 0.39655 0.0
C5321 C 0.08942 0.57042 0.42385 0.0
C5322 C 0.07672 0.55779 0.42479 0.0
C5323 C 0.10112 0.56714 0.41433 0.0
C5324 C 0.11452 0.53341 0.38865 0.0
H5325 H 0.1164 0.54044 0.30893 0.0
H5326 H 0.10707 0.54377 0.33563 0.0
H5327 H 0.12269 0.51708 0.37059 0.0
H5328 H 0.06638 0.53183 0.41787 0.0
H5329 H 0.08624 0.52618 0.40025 0.0
H5330 H 0.1096 0.57158 0.38489 0.0
C5331 C 0.11722 0.53868 0.33377 0.0
C5332 C 0.12024 0.52915 0.37388 0.0
C5333 C 0.12245 0.53671 0.31857 0.0
C5334 C 0.076 0.54175 0.41679 0.0
C5335 C 0.08754 0.53849 0.40709 0.0
C5336 C 0.11295 0.5599 0.38228 0.0
C5337 C 0.12555 0.53504 0.34665 0.0
C5338 C 0.12165 0.54002 0.36304 0.0
C5339 C 0.10003 0.55125 0.40549 0.0
C5340 C 0.11012 0.5485 0.39257 0.0
H5341 H 0.15401 0.52146 0.32694 0.0
H5342 H 0.14482 0.525 0.3537 0.0
H5343 H 0.12025 0.56446 0.35962 0.0
H5344 H 0.0903 0.58273 0.43054 0.0
H5345 H 0.11076 0.57711 0.41347 0.0
C5346 C 0.79178 0.82865 0.60687 0.0
C5347 C 0.78412 0.8406 0.60303 0.0
C5348 C 0.79043 0.82372 0.62177 0.0
C5349 C 0.78381 0.83927 0.66299 0.0
H5350 H 0.77416 0.7937 0.6678 0.0
C5351 C 0.77819 0.82183 0.72573 0.0
C5352 C 0.78379 0.80809 0.72807 0.0
C5353 C 0.77656 0.82521 0.7102 0.0
C5354 C 0.77707 0.8065 0.66672 0.0
H5355 H 0.76904 0.85669 0.61172 0.0
H5356 H 0.76679 0.84814 0.63764 0.0
H5357 H 0.77525 0.80037 0.64097 0.0
H5358 H 0.79281 0.78761 0.71649 0.0
H5359 H 0.79053 0.7937 0.6898 0.0
H5360 H 0.7863 0.84554 0.68859 0.0
C5361 C 0.77377 0.84257 0.62915 0.0
C5362 C 0.77764 0.81028 0.65133 0.0
C5363 C 0.77496 0.84734 0.61426 0.0
C5364 C 0.78794 0.79797 0.71486 0.0
C5365 C 0.7866 0.80147 0.69951 0.0
C5366 C 0.78351 0.83552 0.67837 0.0
C5367 C 0.78161 0.83086 0.63312 0.0
C5368 C 0.78102 0.8267 0.64934 0.0
C5369 C 0.78087 0.81512 0.6969 0.0
C5370 C 0.7802 0.81909 0.68048 0.0
H5371 H 0.79883 0.82319 0.59839 0.0
H5372 H 0.79662 0.81468 0.62459 0.0
H5373 H 0.78659 0.85205 0.66176 0.0
H5374 H 0.775 0.8298 0.73582 0.0
H5375 H 0.77193 0.83574 0.70865 0.0
C5376 C 0.74651 0.48732 0.52381 0.0
C5377 C 0.74467 0.47148 0.51475 0.0
C5378 C 0.73407 0.49486 0.52484 0.0
C5379 C 0.69486 0.49292 0.50706 0.0
H5380 H 0.69101 0.51567 0.54996 0.0
C5381 C 0.64094 0.51579 0.52975 0.0
C5382 C 0.64423 0.53159 0.53937 0.0
C5383 C 0.65296 0.50863 0.5243 0.0
C5384 C 0.69204 0.50949 0.5379 0.0
H5385 H 0.72884 0.45117 0.49923 0.0
H5386 H 0.70676 0.46425 0.50134 0.0
H5387 H 0.71254 0.50248 0.54526 0.0
H5388 H 0.66237 0.55276 0.54982 0.0
H5389 H 0.68341 0.54019 0.54037 0.0
H5390 H 0.67393 0.49969 0.49996 0.0
C5391 C 0.71787 0.47094 0.5074 0.0
C5392 C 0.70437 0.502 0.53519 0.0
C5393 C 0.73042 0.46346 0.50622 0.0
C5394 C 0.6596 0.54046 0.54269 0.0
C5395 C 0.67157 0.53332 0.53725 0.0
C5396 C 0.68237 0.50033 0.50984 0.0
C5397 C 0.71954 0.48656 0.51701 0.0
C5398 C 0.70606 0.4939 0.51971 0.0
C5399 C 0.66835 0.5172 0.52846 0.0
C5400 C 0.68109 0.5089 0.52523 0.0
H5401 H 0.75754 0.49377 0.53026 0.0
H5402 H 0.73577 0.50708 0.532 0.0
H5403 H 0.69593 0.48674 0.49502 0.0
H5404 H 0.62914 0.50868 0.52712 0.0
H5405 H 0.65027 0.49614 0.51761 0.0
C5406 C 0.20297 0.14254 0.50937 0.0
C5407 C 0.21381 0.13658 0.49974 0.0
C5408 C 0.18784 0.13324 0.50911 0.0
C5409 C 0.16374 0.0906 0.49856 0.0
H5410 H 0.12975 0.11282 0.50117 0.0
C5411 C 0.09936 0.05477 0.49681 0.0
C5412 C 0.0895 0.06246 0.50646 0.0
C5413 C 0.11435 0.06338 0.4948 0.0
C5414 C 0.13906 0.10635 0.50067 0.0
H5415 H 0.21691 0.11588 0.48223 0.0
H5416 H 0.19049 0.09975 0.48164 0.0
H5417 H 0.15589 0.12843 0.50014 0.0
H5418 H 0.08796 0.08552 0.5214 0.0
H5419 H 0.11377 0.10014 0.51825 0.0
H5420 H 0.14694 0.06855 0.49939 0.0
C5421 C 0.19378 0.11164 0.48953 0.0
C5422 C 0.15415 0.11538 0.50003 0.0
C5423 C 0.20894 0.121 0.48974 0.0
C5424 C 0.09506 0.07904 0.51385 0.0
C5425 C 0.10998 0.08757 0.51191 0.0
C5426 C 0.14863 0.08156 0.49932 0.0
C5427 C 0.18299 0.11762 0.49922 0.0
C5428 C 0.16677 0.10771 0.49914 0.0
C5429 C 0.11994 0.07995 0.50236 0.0
C5430 C 0.13603 0.08932 0.50058 0.0
H5431 H 0.2061 0.15454 0.51707 0.0
H5432 H 0.17998 0.13825 0.51687 0.0
H5433 H 0.17314 0.08424 0.49801 0.0
H5434 H 0.09553 0.0421 0.4908 0.0
H5435 H 0.1215 0.05705 0.48717 0.0
C5436 C 0.21653 0.92828 0.75206 0.0
C5437 C 0.20611 0.93206 0.76358 0.0
C5438 C 0.22459 0.91543 0.75243 0.0
C5439 C 0.22799 0.87948 0.77474 0.0
H5440 H 0.26266 0.87712 0.74915 0.0
C5441 C 0.2669 0.83103 0.78047 0.0
C5442 C 0.27329 0.82409 0.7667 0.0
C5443 C 0.25936 0.84433 0.78041 0.0
C5444 C 0.25294 0.87733 0.75636 0.0
H5445 H 0.19635 0.92384 0.78454 0.0
H5446 H 0.21045 0.90257 0.78561 0.0
H5447 H 0.24885 0.8988 0.74832 0.0
H5448 H 0.27614 0.82602 0.7419 0.0
H5449 H 0.26376 0.84925 0.74188 0.0
H5450 H 0.23243 0.85803 0.78293 0.0
C5451 C 0.21243 0.9093 0.77592 0.0
C5452 C 0.24476 0.89005 0.75587 0.0
C5453 C 0.20427 0.92204 0.77545 0.0
C5454 C 0.27189 0.83119 0.75295 0.0
C5455 C 0.26461 0.84464 0.75294 0.0
C5456 C 0.2363 0.86688 0.77536 0.0
C5457 C 0.22292 0.90551 0.76444 0.0
C5458 C 0.23193 0.89158 0.76501 0.0
C5459 C 0.25784 0.85143 0.76657 0.0
C5460 C 0.24901 0.86538 0.76616 0.0
H5461 H 0.21877 0.93538 0.74266 0.0
H5462 H 0.2321 0.91336 0.74301 0.0
H5463 H 0.21824 0.87938 0.78189 0.0
H5464 H 0.26718 0.82573 0.79119 0.0
H5465 H 0.25459 0.84897 0.79131 0.0
C5466 C 0.38506 0.99166 0.01399 0.0
C5467 C 0.38 0.99721 0.02894 0.0
C5468 C 0.40074 0.9934 0.01235 0.0
C5469 C 0.43655 0.99793 0.03716 0.0
H5470 H 0.4561 0.01178 0.00038 0.0
C5471 C 0.50044 1.00098 0.02537 0.0
C5472 C 0.50782 0.0155 0.02055 0.0
C5473 C 0.48474 0.99807 0.02729 0.0
C5474 C 0.45071 0.00795 0.01072 0.0
H5475 H 0.38679 0.00987 0.05344 0.0
H5476 H 0.4145 0.0141 0.05027 0.0
H5477 H 0.42825 0.00838 0.00104 0.0
H5478 H 0.50515 0.0392 0.01604 0.0
H5479 H 0.47741 0.0335 0.01788 0.0
H5480 H 0.45923 0.99818 0.04708 0.0
C5481 C 0.40634 0.00785 0.04007 0.0
C5482 C 0.43486 0.00584 0.01101 0.0
C5483 C 0.39064 0.00585 0.04179 0.0
C5484 C 0.49951 0.02744 0.01856 0.0
C5485 C 0.48377 0.02433 0.01995 0.0
C5486 C 0.45247 1.00017 0.03692 0.0
C5487 C 0.41141 1.00098 0.02558 0.0
C5488 C 0.42779 1.00135 0.02446 0.0
C5489 C 0.4763 0.00948 0.024 0.0
C5490 C 0.45958 0.00565 0.02388 0.0
H5491 H 0.37689 0.98451 0.00411 0.0
H5492 H 0.40444 0.98795 0.0011 0.0
H5493 H 0.43115 0.99397 0.04743 0.0
H5494 H 0.5068 0.99192 0.02776 0.0
H5495 H 0.47912 0.98668 0.03073 0.0
C5496 C 0.84621 0.60218 0.79853 0.0
C5497 C 0.86146 0.60661 0.80555 0.0
C5498 C 0.83891 0.61426 0.79511 0.0
C5499 C 0.8396 0.65735 0.79771 0.0
H5500 H 0.8315 0.64434 0.7513 0.0
C5501 C 0.82135 0.69827 0.75612 0.0
C5502 C 0.80707 0.69085 0.74714 0.0
C5503 C 0.82914 0.6891 0.76424 0.0
C5504 C 0.83373 0.64806 0.76423 0.0
H5505 H 0.88043 0.62666 0.81656 0.0
H5506 H 0.86756 0.64803 0.81041 0.0
H5507 H 0.84153 0.62644 0.76665 0.0
H5508 H 0.79024 0.66796 0.73883 0.0
H5509 H 0.80432 0.65168 0.75251 0.0
H5510 H 0.83162 0.679 0.79515 0.0
C5511 C 0.8613 0.63531 0.80765 0.0
C5512 C 0.83934 0.63788 0.77298 0.0
C5513 C 0.8686 0.62316 0.81116 0.0
C5514 C 0.80123 0.67392 0.74557 0.0
C5515 C 0.8092 0.66468 0.75345 0.0
C5516 C 0.83396 0.66762 0.7889 0.0
C5517 C 0.84691 0.63074 0.79861 0.0
C5518 C 0.84184 0.64224 0.78978 0.0
C5519 C 0.82298 0.67233 0.76308 0.0
C5520 C 0.83065 0.66274 0.77218 0.0
H5521 H 0.84059 0.58939 0.79422 0.0
H5522 H 0.8277 0.61064 0.78828 0.0
H5523 H 0.84173 0.66091 0.81065 0.0
H5524 H 0.82635 0.71126 0.75716 0.0
H5525 H 0.8399 0.69507 0.77144 0.0
C5526 C 0.86196 0.63378 0.01189 0.0
C5527 C 0.86359 0.64705 0.00377 0.0
C5528 C 0.87396 0.62569 0.01325 0.0
C5529 C 0.91088 0.61903 0.9975 0.0
H5530 H 0.91624 0.60625 0.03881 0.0
C5531 C 0.96075 0.5893 0.01952 0.0
C5532 C 0.95527 0.57546 0.02649 0.0
C5533 C 0.95057 0.59872 0.01504 0.0
C5534 C 0.91488 0.60972 0.0272 0.0
H5535 H 0.87891 0.66186 0.99012 0.0
H5536 H 0.90018 0.6478 0.99273 0.0
H5537 H 0.89676 0.62163 0.03436 0.0
H5538 H 0.93456 0.55997 0.03286 0.0
H5539 H 0.91711 0.57658 0.0256 0.0
H5540 H 0.92932 0.60707 0.99057 0.0
C5541 C 0.8895 0.6436 0.99794 0.0
C5542 C 0.90364 0.61846 0.0246 0.0
C5543 C 0.87734 0.65166 0.99646 0.0
C5544 C 0.93931 0.57082 0.02804 0.0
C5545 C 0.92927 0.58028 0.0238 0.0
C5546 C 0.92232 0.61036 1.0002 0.0
C5547 C 0.88805 0.63074 0.00668 0.0
C5548 C 0.90115 0.62282 0.00958 0.0
C5549 C 0.93481 0.59452 0.01762 0.0
C5550 C 0.9241 0.60526 0.01496 0.0
H5551 H 0.85137 0.62969 0.01732 0.0
H5552 H 0.87221 0.6155 0.01961 0.0
H5553 H 0.90929 0.62223 0.98581 0.0
H5554 H 0.97297 0.59327 0.01816 0.0
H5555 H 0.95511 0.60966 0.01027 0.0
C5556 C 0.21755 0.1053 0.75664 0.0
C5557 C 0.21 0.10025 0.76983 0.0
C5558 C 0.22544 0.12181 0.75708 0.0
C5559 C 0.23777 0.16455 0.7855 0.0
H5560 H 0.25136 0.17832 0.74633 0.0
C5561 C 0.26171 0.23447 0.78129 0.0
C5562 C 0.27454 0.23843 0.77233 0.0
C5563 C 0.25429 0.21792 0.78141 0.0
C5564 C 0.24778 0.17478 0.75748 0.0
H5565 H 0.20501 0.10975 0.79394 0.0
H5566 H 0.21809 0.13796 0.79469 0.0
H5567 H 0.23778 0.15022 0.74552 0.0
H5568 H 0.28917 0.2275 0.75608 0.0
H5569 H 0.276 0.19888 0.75578 0.0
H5570 H 0.24744 0.18962 0.79718 0.0
C5571 C 0.21846 0.12926 0.78389 0.0
C5572 C 0.23987 0.15829 0.7571 0.0
C5573 C 0.21073 0.11269 0.78349 0.0
C5574 C 0.2795 0.22512 0.76332 0.0
C5575 C 0.2718 0.20858 0.76304 0.0
C5576 C 0.2454 0.18113 0.78579 0.0
C5577 C 0.22613 0.13442 0.7707 0.0
C5578 C 0.23464 0.15254 0.77111 0.0
C5579 C 0.25903 0.20455 0.77213 0.0
C5580 C 0.25068 0.18665 0.77181 0.0
H5581 H 0.21768 0.09638 0.74588 0.0
H5582 H 0.23116 0.12438 0.74657 0.0
H5583 H 0.23452 0.16135 0.79683 0.0
H5584 H 0.25742 0.24423 0.78835 0.0
H5585 H 0.24453 0.21561 0.78852 0.0
C5586 C 0.33387 0.95868 0.28243 0.0
C5587 C 0.34871 0.96248 0.2772 0.0
C5588 C 0.32547 0.94247 0.27919 0.0
C5589 C 0.32483 0.90283 0.25343 0.0
H5590 H 0.31073 0.88389 0.2901 0.0
C5591 C 0.32787 0.83889 0.26283 0.0
C5592 C 0.31351 0.82872 0.26406 0.0
C5593 C 0.32893 0.85552 0.26323 0.0
C5594 C 0.3144 0.88917 0.27977 0.0
H5595 H 0.36693 0.95298 0.2654 0.0
H5596 H 0.35253 0.92467 0.26011 0.0
H5597 H 0.31751 0.91377 0.29258 0.0
H5598 H 0.28904 0.82768 0.26583 0.0
H5599 H 0.29113 0.85684 0.26778 0.0
H5600 H 0.32301 0.8782 0.24112 0.0
C5601 C 0.34703 0.93409 0.26601 0.0
C5602 C 0.3181 0.90611 0.2811 0.0
C5603 C 0.35529 0.95017 0.26911 0.0
C5604 C 0.30029 0.83529 0.26552 0.0
C5605 C 0.30141 0.8519 0.26644 0.0
C5606 C 0.32139 0.88596 0.2522 0.0
C5607 C 0.33202 0.93017 0.27084 0.0
C5608 C 0.32401 0.91296 0.26815 0.0
C5609 C 0.31568 0.86195 0.2651 0.0
C5610 C 0.31677 0.87923 0.26556 0.0
H5611 H 0.32881 0.96821 0.28884 0.0
H5612 H 0.31396 0.93954 0.28318 0.0
H5613 H 0.32917 0.90798 0.24325 0.0
H5614 H 0.33814 0.83396 0.26138 0.0
H5615 H 0.34003 0.86338 0.26217 0.0
C5616 C 0.57955 0.39652 0.56987 0.0
C5617 C 0.57084 0.38072 0.56327 0.0
C5618 C 0.57691 0.41025 0.56397 0.0
C5619 C 0.5475 0.42319 0.53816 0.0
H5620 H 0.57915 0.46351 0.54492 0.0
C5621 C 0.54553 0.48252 0.51156 0.0
C5622 C 0.5484 0.49705 0.52312 0.0
C5623 C 0.5469 0.46763 0.51594 0.0
C5624 C 0.57019 0.45232 0.54301 0.0
H5625 H 0.55311 0.36677 0.54474 0.0
H5626 H 0.54914 0.39042 0.53372 0.0
H5627 H 0.58533 0.43896 0.5522 0.0
H5628 H 0.55528 0.50759 0.54819 0.0
H5629 H 0.55825 0.48169 0.55575 0.0
H5630 H 0.53269 0.43673 0.52816 0.0
C5631 C 0.55751 0.39253 0.54399 0.0
C5632 C 0.57366 0.43819 0.54732 0.0
C5633 C 0.55989 0.37885 0.55018 0.0
C5634 C 0.55259 0.49645 0.53915 0.0
C5635 C 0.55443 0.4817 0.54343 0.0
C5636 C 0.54418 0.43726 0.53345 0.0
C5637 C 0.56572 0.40855 0.55101 0.0
C5638 C 0.5623 0.4234 0.54528 0.0
C5639 C 0.55186 0.4672 0.53182 0.0
C5640 C 0.55541 0.45203 0.53611 0.0
H5641 H 0.58796 0.39835 0.58008 0.0
H5642 H 0.58334 0.42222 0.57006 0.0
H5643 H 0.53825 0.41232 0.53656 0.0
H5644 H 0.54271 0.48279 0.49905 0.0
H5645 H 0.54493 0.45663 0.50675 0.0
C5646 C 0.4325 0.75501 0.3622 0.0
C5647 C 0.43927 0.76743 0.37546 0.0
C5648 C 0.41922 0.75608 0.35292 0.0
C5649 C 0.39566 0.78666 0.34464 0.0
H5650 H 0.36574 0.74775 0.32322 0.0
C5651 C 0.33737 0.79109 0.31261 0.0
C5652 C 0.33221 0.78067 0.29767 0.0
C5653 C 0.34995 0.78899 0.32224 0.0
C5654 C 0.37402 0.75879 0.329 0.0
H5655 H 0.43645 0.79036 0.38957 0.0
H5656 H 0.41357 0.79212 0.37377 0.0
H5657 H 0.38816 0.74494 0.33946 0.0
H5658 H 0.33578 0.75903 0.2819 0.0
H5659 H 0.35762 0.75547 0.29843 0.0
H5660 H 0.38144 0.80048 0.33432 0.0
C5661 C 0.41873 0.78174 0.37008 0.0
C5662 C 0.38701 0.75718 0.33836 0.0
C5663 C 0.432 0.78072 0.37927 0.0
C5664 C 0.33965 0.76766 0.29302 0.0
C5665 C 0.35212 0.76546 0.30269 0.0
C5666 C 0.38263 0.78825 0.33543 0.0
C5667 C 0.41213 0.76956 0.35659 0.0
C5668 C 0.39811 0.7711 0.34642 0.0
C5669 C 0.35767 0.77623 0.31738 0.0
C5670 C 0.37155 0.77437 0.32742 0.0
H5671 H 0.43768 0.74461 0.35866 0.0
H5672 H 0.41477 0.74645 0.34261 0.0
H5673 H 0.40397 0.79776 0.35017 0.0
H5674 H 0.33189 0.80113 0.31678 0.0
H5675 H 0.35358 0.79738 0.33357 0.0
C5676 C 0.07445 0.71521 0.04799 0.0
C5677 C 0.06243 0.72152 0.05518 0.0
C5678 C 0.07282 0.69826 0.04284 0.0
C5679 C 0.04979 0.65916 0.05129 0.0
H5680 H 0.07173 0.63919 0.01769 0.0
C5681 C 0.05642 0.59353 0.04903 0.0
C5682 C 0.05419 0.58291 0.03409 0.0
C5683 C 0.0583 0.61043 0.04998 0.0
C5684 C 0.06543 0.64456 0.02702 0.0
H5685 H 0.03881 0.71461 0.06155 0.0
H5686 H 0.0357 0.6855 0.0518 0.0
H5687 H 0.07192 0.66849 0.02099 0.0
H5688 H 0.0527 0.5817 0.00831 0.0
H5689 H 0.05583 0.61135 0.00991 0.0
H5690 H 0.04291 0.63535 0.05709 0.0
C5691 C 0.04667 0.69355 0.05069 0.0
C5692 C 0.06566 0.66141 0.02904 0.0
C5693 C 0.04837 0.71043 0.05606 0.0
C5694 C 0.05458 0.58962 0.02002 0.0
C5695 C 0.05634 0.60662 0.02095 0.0
C5696 C 0.04946 0.64241 0.04921 0.0
C5697 C 0.05905 0.68714 0.04457 0.0
C5698 C 0.05799 0.669 0.04136 0.0
C5699 C 0.0577 0.61716 0.03597 0.0
C5700 C 0.05753 0.63492 0.0373 0.0
H5701 H 0.08532 0.72332 0.04668 0.0
H5702 H 0.08264 0.69388 0.03819 0.0
H5703 H 0.04392 0.66444 0.06107 0.0
H5704 H 0.0562 0.58867 0.06005 0.0
H5705 H 0.0598 0.61819 0.06176 0.0
C5706 C 0.10497 0.28566 0.88886 0.0
C5707 C 0.09135 0.27394 0.88247 0.0
C5708 C 0.11858 0.28685 0.88085 0.0
C5709 C 0.1374 0.2642 0.84783 0.0
H5710 H 0.16416 0.30714 0.84987 0.0
C5711 C 0.18545 0.27667 0.8041 0.0
C5712 C 0.19916 0.28852 0.8096 0.0
C5713 C 0.17328 0.27389 0.81401 0.0
C5714 C 0.15699 0.29499 0.84931 0.0
H5715 H 0.08165 0.25431 0.86233 0.0
H5716 H 0.10512 0.2565 0.84835 0.0
H5717 H 0.14122 0.30446 0.86468 0.0
H5718 H 0.21086 0.30674 0.82994 0.0
H5719 H 0.18974 0.30183 0.84742 0.0
H5720 H 0.15307 0.25481 0.83217 0.0
C5721 C 0.10547 0.26462 0.85977 0.0
C5722 C 0.14372 0.29342 0.85788 0.0
C5723 C 0.09188 0.26337 0.86782 0.0
C5724 C 0.20057 0.29728 0.82546 0.0
C5725 C 0.18833 0.29462 0.83538 0.0
C5726 C 0.15063 0.26578 0.83919 0.0
C5727 C 0.11909 0.27643 0.86609 0.0
C5728 C 0.1336 0.27801 0.85724 0.0
C5729 C 0.17433 0.28309 0.82972 0.0
C5730 C 0.16063 0.28122 0.83969 0.0
H5731 H 0.10522 0.29383 0.90024 0.0
H5732 H 0.12879 0.29589 0.88641 0.0
H5733 H 0.13022 0.25204 0.84719 0.0
H5734 H 0.18388 0.26998 0.79182 0.0
H5735 H 0.16273 0.26507 0.80904 0.0
C5736 C 0.56938 0.72679 0.9227 0.0
C5737 C 0.57711 0.74275 0.93012 0.0
C5738 C 0.56709 0.71412 0.93145 0.0
C5739 C 0.56404 0.70709 0.97252 0.0
H5740 H 0.57069 0.66391 0.95514 0.0
C5741 C 0.55703 0.65757 0.01092 0.0
C5742 C 0.54921 0.64169 0.0035 0.0
C5743 C 0.5622 0.6694 0.00171 0.0
C5744 C 0.56865 0.67586 0.96009 0.0
H5745 H 0.58843 0.75809 0.95245 0.0
H5746 H 0.5845 0.73591 0.96775 0.0
H5747 H 0.576 0.68574 0.9394 0.0
H5748 H 0.54112 0.62538 0.98069 0.0
H5749 H 0.54967 0.64629 0.96448 0.0
H5750 H 0.55629 0.69731 0.99295 0.0
C5751 C 0.5802 0.73321 0.95518 0.0
C5752 C 0.5717 0.68833 0.9511 0.0
C5753 C 0.58255 0.74584 0.94642 0.0
C5754 C 0.54715 0.6376 0.98665 0.0
C5755 C 0.55212 0.64954 0.97741 0.0
C5756 C 0.56088 0.69464 0.98143 0.0
C5757 C 0.57241 0.71725 0.94779 0.0
C5758 C 0.56943 0.70405 0.95726 0.0
C5759 C 0.55939 0.66568 0.98488 0.0
C5760 C 0.56317 0.67889 0.97536 0.0
H5761 H 0.56519 0.72409 0.9101 0.0
H5762 H 0.56091 0.70195 0.92552 0.0
H5763 H 0.56192 0.71902 0.97743 0.0
H5764 H 0.55899 0.66087 0.02389 0.0
H5765 H 0.56816 0.68158 0.00783 0.0
C5766 C 0.07972 0.75429 0.7073 0.0
C5767 C 0.07702 0.76738 0.7003 0.0
C5768 C 0.09473 0.75363 0.71212 0.0
C5769 C 0.13495 0.76905 0.70388 0.0
H5770 H 0.14385 0.75056 0.74107 0.0
C5771 C 0.19408 0.77207 0.73777 0.0
C5772 C 0.19491 0.75817 0.74437 0.0
C5773 C 0.18098 0.77203 0.72797 0.0
C5774 C 0.14145 0.75549 0.73048 0.0
H5775 H 0.08772 0.79058 0.69378 0.0
H5776 H 0.11396 0.78977 0.7029 0.0
H5777 H 0.11808 0.75478 0.73559 0.0
H5778 H 0.18429 0.73274 0.74431 0.0
H5779 H 0.16149 0.73252 0.7269 0.0
H5780 H 0.15874 0.77032 0.69932 0.0
C5781 C 0.10451 0.77977 0.70416 0.0
C5782 C 0.12672 0.75797 0.72739 0.0
C5783 C 0.08947 0.78036 0.69919 0.0
C5784 C 0.1837 0.74358 0.73937 0.0
C5785 C 0.17073 0.74348 0.72947 0.0
C5786 C 0.14984 0.76677 0.70713 0.0
C5787 C 0.1073 0.76617 0.71023 0.0
C5788 C 0.12325 0.7646 0.71398 0.0
C5789 C 0.16877 0.75806 0.72477 0.0
C5790 C 0.15308 0.75976 0.72034 0.0
H5791 H 0.07027 0.74426 0.70852 0.0
H5792 H 0.09649 0.74294 0.71671 0.0
H5793 H 0.13254 0.77402 0.69334 0.0
H5794 H 0.20269 0.78343 0.74157 0.0
H5795 H 0.17967 0.7834 0.72445 0.0
C5796 C 0.11457 0.40262 0.45191 0.0
C5797 C 0.11399 0.39739 0.43524 0.0
C5798 C 0.11296 0.41843 0.45806 0.0
C5799 C 0.08828 0.4419 0.44777 0.0
H5800 H 0.11003 0.47713 0.48172 0.0
C5801 C 0.06124 0.49502 0.476 0.0
C5802 C 0.06434 0.49996 0.49272 0.0
C5803 C 0.06891 0.48391 0.46763 0.0
C5804 C 0.1038 0.4673 0.4723 0.0
H5805 H 0.11279 0.40468 0.41199 0.0
H5806 H 0.10962 0.43224 0.42283 0.0
H5807 H 0.12323 0.45603 0.46983 0.0
H5808 H 0.07801 0.49736 0.51367 0.0
H5809 H 0.09035 0.47729 0.49942 0.0
H5810 H 0.06846 0.45225 0.45097 0.0
C5811 C 0.11156 0.42424 0.43104 0.0
C5812 C 0.11142 0.45544 0.46544 0.0
C5813 C 0.11342 0.40857 0.42491 0.0
C5814 C 0.07502 0.49351 0.5009 0.0
C5815 C 0.08241 0.48226 0.49265 0.0
C5816 C 0.08055 0.45355 0.45483 0.0
C5817 C 0.11055 0.42888 0.44753 0.0
C5818 C 0.10363 0.44266 0.45326 0.0
C5819 C 0.07969 0.47761 0.47592 0.0
C5820 C 0.08818 0.46619 0.46734 0.0
H5821 H 0.11501 0.39411 0.46001 0.0
H5822 H 0.11205 0.42188 0.47084 0.0
H5823 H 0.08205 0.43181 0.43856 0.0
H5824 H 0.05305 0.49983 0.46938 0.0
H5825 H 0.06665 0.48053 0.45469 0.0
C5826 C 0.42121 0.25242 0.19522 0.0
C5827 C 0.43567 0.2542 0.20342 0.0
C5828 C 0.40847 0.25361 0.20383 0.0
C5829 C 0.39996 0.27469 0.24192 0.0
H5830 H 0.35811 0.25097 0.22646 0.0
C5831 C 0.34177 0.28072 0.26917 0.0
C5832 C 0.3299 0.28029 0.25753 0.0
C5833 C 0.35648 0.27986 0.26453 0.0
C5834 C 0.36978 0.25771 0.23083 0.0
H5835 H 0.44851 0.25759 0.22652 0.0
H5836 H 0.42595 0.25941 0.24183 0.0
H5837 H 0.37983 0.24109 0.21516 0.0
H5838 H 0.32367 0.27937 0.23236 0.0
H5839 H 0.34947 0.27831 0.22426 0.0
H5840 H 0.38967 0.29139 0.25754 0.0
C5841 C 0.42449 0.25731 0.22882 0.0
C5842 C 0.38213 0.25202 0.22446 0.0
C5843 C 0.43728 0.25619 0.22017 0.0
C5844 C 0.3329 0.2801 0.24149 0.0
C5845 C 0.34754 0.27941 0.23689 0.0
C5846 C 0.38752 0.28033 0.24841 0.0
C5847 C 0.41013 0.25657 0.22071 0.0
C5848 C 0.3973 0.26073 0.2296 0.0
C5849 C 0.35909 0.27826 0.24822 0.0
C5850 C 0.37241 0.27214 0.24248 0.0
H5851 H 0.41997 0.25102 0.18225 0.0
H5852 H 0.39757 0.25325 0.19729 0.0
H5853 H 0.4116 0.28171 0.24594 0.0
H5854 H 0.3394 0.28052 0.28156 0.0
H5855 H 0.3653 0.2789 0.27338 0.0
C5856 C 0.6173 0.50246 0.357 0.0
C5857 C 0.61293 0.50973 0.3442 0.0
C5858 C 0.61029 0.50398 0.37172 0.0
C5859 C 0.58383 0.52791 0.39582 0.0
H5860 H 0.58536 0.49665 0.42387 0.0
C5861 C 0.55223 0.52976 0.45608 0.0
C5862 C 0.56043 0.52722 0.46979 0.0
C5863 C 0.55778 0.52714 0.44061 0.0
C5864 C 0.58486 0.50563 0.41631 0.0
H5865 H 0.59687 0.52392 0.33736 0.0
H5866 H 0.58457 0.52622 0.36241 0.0
H5867 H 0.59602 0.49285 0.39791 0.0
H5868 H 0.58091 0.51945 0.47735 0.0
H5869 H 0.59021 0.51445 0.45066 0.0
H5870 H 0.57227 0.5404 0.41423 0.0
C5871 C 0.59384 0.51972 0.36145 0.0
C5872 C 0.59114 0.5035 0.40121 0.0
C5873 C 0.60097 0.51834 0.34679 0.0
C5874 C 0.57418 0.5216 0.46727 0.0
C5875 C 0.57952 0.51863 0.4518 0.0
C5876 C 0.57734 0.52989 0.41082 0.0
C5877 C 0.59839 0.51273 0.37443 0.0
C5878 C 0.591 0.51469 0.39059 0.0
C5879 C 0.57158 0.52151 0.4381 0.0
C5880 C 0.57786 0.51891 0.42152 0.0
H5881 H 0.62652 0.49587 0.35586 0.0
H5882 H 0.6146 0.49852 0.38112 0.0
H5883 H 0.58348 0.53712 0.38853 0.0
H5884 H 0.54171 0.53422 0.45736 0.0
H5885 H 0.55115 0.52945 0.43054 0.0
C5886 C 0.31928 0.86869 0.08397 0.0
C5887 C 0.31147 0.88124 0.08287 0.0
C5888 C 0.31921 0.86216 0.09793 0.0
C5889 C 0.29943 0.86031 0.13511 0.0
H5890 H 0.33868 0.85388 0.15175 0.0
C5891 C 0.3088 0.82441 0.18448 0.0
C5892 C 0.32336 0.829 0.19324 0.0
C5893 C 0.30511 0.83374 0.17353 0.0
C5894 C 0.32772 0.85597 0.14739 0.0
H5895 H 0.29777 0.89713 0.09509 0.0
H5896 H 0.29803 0.88611 0.11966 0.0
H5897 H 0.3368 0.86225 0.12593 0.0
H5898 H 0.34433 0.84798 0.1997 0.0
H5899 H 0.33775 0.86452 0.18067 0.0
H5900 H 0.29047 0.85422 0.15679 0.0
C5901 C 0.30369 0.88085 0.10967 0.0
C5902 C 0.32657 0.86037 0.13246 0.0
C5903 C 0.3036 0.8872 0.0957 0.0
C5904 C 0.33315 0.84418 0.19279 0.0
C5905 C 0.32943 0.85354 0.18191 0.0
C5906 C 0.30062 0.85599 0.15013 0.0
C5907 C 0.31154 0.86834 0.11094 0.0
C5908 C 0.31243 0.86261 0.12622 0.0
C5909 C 0.31595 0.84769 0.17139 0.0
C5910 C 0.3148 0.85388 0.15639 0.0
H5911 H 0.3254 0.86404 0.07408 0.0
H5912 H 0.32525 0.8524 0.09862 0.0
H5913 H 0.28835 0.86181 0.13042 0.0
H5914 H 0.30107 0.81271 0.18471 0.0
H5915 H 0.29461 0.82902 0.16556 0.0
C5916 C 0.95695 0.56071 0.87879 0.0
C5917 C 0.96113 0.55428 0.86374 0.0
C5918 C 0.96707 0.56276 0.89231 0.0
C5919 C 0.99703 0.54459 0.90609 0.0
H5920 H 0.00404 0.58137 0.9419 0.0
C5921 C 0.03702 0.54799 0.96121 0.0
C5922 C 0.03 0.55036 0.97556 0.0
C5923 C 0.0301 0.55081 0.94731 0.0
C5924 C 0.00214 0.5711 0.93192 0.0
H5925 H 0.979 0.54582 0.85035 0.0
H5926 H 0.99702 0.54972 0.87412 0.0
H5927 H 0.98918 0.58255 0.91726 0.0
H5928 H 0.01073 0.55789 0.98721 0.0
H5929 H 0.99841 0.56263 0.96268 0.0
H5930 H 0.00966 0.53297 0.92081 0.0
C5931 C 0.98588 0.55286 0.87551 0.0
C5932 C 0.99371 0.57176 0.91795 0.0
C5933 C 0.97569 0.55065 0.86203 0.0
C5934 C 0.01624 0.55596 0.97611 0.0
C5935 C 0.00932 0.55881 0.96223 0.0
C5936 C 0.00547 0.54396 0.92 0.0
C5937 C 0.98144 0.55852 0.89072 0.0
C5938 C 0.99112 0.55848 0.90502 0.0
C5939 C 0.01613 0.55599 0.94777 0.0
C5940 C 0.00801 0.55719 0.93294 0.0
H5941 H 0.94564 0.56346 0.88014 0.0
H5942 H 0.96339 0.56691 0.90401 0.0
H5943 H 0.99475 0.53404 0.89637 0.0
H5944 H 0.04739 0.54328 0.96054 0.0
H5945 H 0.03542 0.54857 0.93614 0.0
C5946 C 0.31596 0.24658 0.60163 0.0
C5947 C 0.30399 0.24712 0.59037 0.0
C5948 C 0.31577 0.25305 0.61794 0.0
C5949 C 0.29509 0.27738 0.64758 0.0
H5950 H 0.30715 0.24957 0.67537 0.0
C5951 C 0.29344 0.28887 0.71782 0.0
C5952 C 0.29004 0.27469 0.72464 0.0
C5953 C 0.29466 0.2875 0.70119 0.0
C5954 C 0.30357 0.25741 0.66779 0.0
H5955 H 0.28313 0.25626 0.58746 0.0
H5956 H 0.28237 0.2667 0.61587 0.0
H5957 H 0.31134 0.24427 0.64721 0.0
H5958 H 0.28412 0.24812 0.71949 0.0
H5959 H 0.28537 0.24569 0.69066 0.0
H5960 H 0.28664 0.29001 0.66834 0.0
C5961 C 0.29203 0.26145 0.61214 0.0
C5962 C 0.30627 0.25456 0.65159 0.0
C5963 C 0.29233 0.25518 0.59579 0.0
C5964 C 0.28674 0.25924 0.71451 0.0
C5965 C 0.2877 0.25787 0.69801 0.0
C5966 C 0.29226 0.28017 0.66387 0.0
C5967 C 0.3035 0.26003 0.62353 0.0
C5968 C 0.30189 0.26433 0.64115 0.0
C5969 C 0.29245 0.27191 0.69121 0.0
C5970 C 0.29617 0.26995 0.67409 0.0
H5971 H 0.32515 0.24049 0.59803 0.0
H5972 H 0.32507 0.25211 0.62623 0.0
H5973 H 0.29178 0.28536 0.64 0.0
H5974 H 0.29626 0.30094 0.72543 0.0
H5975 H 0.29827 0.29858 0.69635 0.0
C5976 C 0.62117 0.51898 0.17095 0.0
C5977 C 0.61251 0.51023 0.18151 0.0
C5978 C 0.61438 0.52126 0.15634 0.0
C5979 C 0.57626 0.52014 0.13327 0.0
H5980 H 0.60177 0.52131 0.09758 0.0
C5981 C 0.55339 0.52915 0.06848 0.0
C5982 C 0.5644 0.53605 0.05864 0.0
C5983 C 0.55804 0.52578 0.08367 0.0
C5984 C 0.59441 0.52144 0.10738 0.0
H5985 H 0.5893 0.49698 0.18415 0.0
H5986 H 0.57749 0.50093 0.15871 0.0
H5987 H 0.61175 0.51573 0.12257 0.0
H5988 H 0.58891 0.54516 0.05768 0.0
H5989 H 0.59682 0.54054 0.08394 0.0
H5990 H 0.55889 0.52594 0.1179 0.0
C5991 C 0.5897 0.50617 0.16189 0.0
C5992 C 0.60023 0.5181 0.12195 0.0
C5993 C 0.59658 0.50374 0.17656 0.0
C5994 C 0.58002 0.53998 0.06483 0.0
C5995 C 0.58462 0.53695 0.07997 0.0
C5996 C 0.57042 0.52364 0.11862 0.0
C5997 C 0.59848 0.51497 0.15139 0.0
C5998 C 0.59146 0.51762 0.13539 0.0
C5999 C 0.57387 0.52927 0.08962 0.0
C6000 C 0.5795 0.52469 0.10536 0.0
H6001 H 0.63344 0.52404 0.17387 0.0
H6002 H 0.62171 0.52828 0.14897 0.0
H6003 H 0.56895 0.51991 0.14313 0.0
H6004 H 0.54127 0.52553 0.06408 0.0
H6005 H 0.54921 0.51984 0.09041 0.0
C6006 C 0.30598 0.87387 0.92776 0.0
C6007 C 0.31247 0.87173 0.94239 0.0
C6008 C 0.30619 0.86263 0.91387 0.0
C6009 C 0.30645 0.8218 0.89629 0.0
H6010 H 0.32538 0.84256 0.86254 0.0
C6011 C 0.30632 0.7916 0.82847 0.0
C6012 C 0.30104 0.80132 0.81859 0.0
C6013 C 0.30924 0.79749 0.84499 0.0
C6014 C 0.32026 0.83657 0.87193 0.0
H6015 H 0.3235 0.85602 0.95445 0.0
H6016 H 0.32368 0.83597 0.92979 0.0
H6017 H 0.32782 0.85827 0.88978 0.0
H6018 H 0.29318 0.82368 0.81772 0.0
H6019 H 0.29793 0.83383 0.84654 0.0
H6020 H 0.29801 0.80038 0.87801 0.0
C6021 C 0.31862 0.84645 0.9292 0.0
C6022 C 0.32166 0.8455 0.88741 0.0
C6023 C 0.31858 0.85786 0.94315 0.0
C6024 C 0.29767 0.8163 0.82523 0.0
C6025 C 0.30036 0.82204 0.84161 0.0
C6026 C 0.30498 0.81281 0.88066 0.0
C6027 C 0.31278 0.84908 0.91449 0.0
C6028 C 0.31418 0.8384 0.89946 0.0
C6029 C 0.30671 0.81298 0.85149 0.0
C6030 C 0.31126 0.82048 0.86833 0.0
H6031 H 0.30125 0.88454 0.927 0.0
H6032 H 0.3015 0.86468 0.90255 0.0
H6033 H 0.30065 0.81622 0.90558 0.0
H6034 H 0.30883 0.77991 0.82334 0.0
H6035 H 0.31401 0.79033 0.85253 0.0
C6036 C 0.9454 0.52354 0.70729 0.0
C6037 C 0.9536 0.5344 0.72082 0.0
C6038 C 0.95078 0.52388 0.69227 0.0
C6039 C 0.97464 0.55185 0.67061 0.0
H6040 H 0.97519 0.51195 0.64064 0.0
C6041 C 0.01738 0.54168 0.62548 0.0
C6042 C 0.01229 0.52983 0.61159 0.0
C6043 C 0.00663 0.54651 0.63555 0.0
C6044 C 0.97461 0.52319 0.64867 0.0
H6045 H 0.97434 0.55313 0.72973 0.0
H6046 H 0.98399 0.55354 0.70326 0.0
H6047 H 0.96497 0.51 0.66636 0.0
H6048 H 0.99236 0.51494 0.59611 0.0
H6049 H 0.97353 0.52294 0.61413 0.0
H6050 H 0.98545 0.56497 0.65321 0.0
C6051 C 0.97318 0.54516 0.70429 0.0
C6052 C 0.96893 0.52206 0.66343 0.0
C6053 C 0.96777 0.54483 0.71934 0.0
C6054 C 0.99642 0.52396 0.607 0.0
C6055 C 0.98569 0.52868 0.6171 0.0
C6056 C 0.98051 0.55299 0.65585 0.0
C6057 C 0.96442 0.53506 0.69064 0.0
C6058 C 0.96931 0.53636 0.67464 0.0
C6059 C 0.99083 0.53921 0.63186 0.0
C6060 C 0.98091 0.53864 0.64503 0.0
H6061 H 0.93432 0.51552 0.70812 0.0
H6062 H 0.94386 0.51599 0.68187 0.0
H6063 H 0.97469 0.56303 0.67905 0.0
H6064 H 0.02962 0.54659 0.62886 0.0
H6065 H 0.01079 0.5546 0.64697 0.0
C6066 C 0.2951 0.22769 0.4205 0.0
C6067 C 0.30381 0.23735 0.43434 0.0
C6068 C 0.29649 0.23268 0.40574 0.0
C6069 C 0.32227 0.25993 0.38388 0.0
H6070 H 0.28575 0.24903 0.35368 0.0
C6071 C 0.31941 0.27953 0.32146 0.0
C6072 C 0.30959 0.26843 0.30901 0.0
C6073 C 0.32038 0.2761 0.33695 0.0
C6074 C 0.2961 0.25197 0.3619 0.0
H6075 H 0.32073 0.25985 0.44383 0.0
H6076 H 0.32281 0.26903 0.41794 0.0
H6077 H 0.28337 0.24383 0.38078 0.0
H6078 H 0.29504 0.24384 0.3026 0.0
H6079 H 0.29694 0.23774 0.32949 0.0
H6080 H 0.33491 0.26832 0.36484 0.0
C6081 C 0.31513 0.25739 0.41844 0.0
C6082 C 0.29474 0.24902 0.37747 0.0
C6083 C 0.3139 0.25222 0.43324 0.0
C6084 C 0.3023 0.25296 0.31197 0.0
C6085 C 0.30329 0.24949 0.32743 0.0
C6086 C 0.32361 0.26302 0.36825 0.0
C6087 C 0.30645 0.24762 0.4045 0.0
C6088 C 0.30785 0.25256 0.38855 0.0
C6089 C 0.31175 0.26133 0.34023 0.0
C6090 C 0.31058 0.25868 0.357 0.0
H6091 H 0.28747 0.21601 0.42102 0.0
H6092 H 0.28995 0.22461 0.39523 0.0
H6093 H 0.33262 0.26277 0.39209 0.0
H6094 H 0.32586 0.29118 0.31948 0.0
H6095 H 0.32721 0.28538 0.34649 0.0
C6096 C 0.34557 0.59254 0.52288 0.0
C6097 C 0.34504 0.60644 0.51617 0.0
C6098 C 0.35882 0.58619 0.52234 0.0
C6099 C 0.39283 0.58599 0.49974 0.0
H6100 H 0.40915 0.57053 0.53605 0.0
C6101 C 0.44897 0.56461 0.4974 0.0
C6102 C 0.44707 0.54833 0.49956 0.0
C6103 C 0.43794 0.57344 0.50226 0.0
C6104 C 0.40469 0.57489 0.5259 0.0
H6105 H 0.35775 0.62493 0.50406 0.0
H6106 H 0.38095 0.61398 0.50327 0.0
H6107 H 0.38615 0.58219 0.53839 0.0
H6108 H 0.43333 0.52873 0.50946 0.0
H6109 H 0.4138 0.54425 0.51804 0.0
H6110 H 0.41122 0.57869 0.48722 0.0
C6111 C 0.3711 0.60776 0.50862 0.0
C6112 C 0.39154 0.5814 0.52718 0.0
C6113 C 0.35787 0.61401 0.50906 0.0
C6114 C 0.4347 0.54125 0.50754 0.0
C6115 C 0.42373 0.55015 0.51258 0.0
C6116 C 0.40599 0.57966 0.49854 0.0
C6117 C 0.37165 0.59376 0.51516 0.0
C6118 C 0.38551 0.58694 0.51406 0.0
C6119 C 0.42504 0.56608 0.50945 0.0
C6120 C 0.41196 0.57403 0.51156 0.0
H6121 H 0.33569 0.5865 0.52831 0.0
H6122 H 0.35892 0.57524 0.52726 0.0
H6123 H 0.38821 0.58985 0.48935 0.0
H6124 H 0.45866 0.57022 0.49142 0.0
H6125 H 0.43916 0.58578 0.49987 0.0
C6126 C 0.88859 0.93892 0.54576 0.0
C6127 C 0.87603 0.94163 0.53662 0.0
C6128 C 0.90366 0.94831 0.54561 0.0
C6129 C 0.92745 0.97623 0.52166 0.0
H6130 H 0.95727 0.98581 0.55886 0.0
C6131 C 0.98726 0.02168 0.52575 0.0
C6132 C 1.00016 0.01583 0.53038 0.0
C6133 C 0.97218 0.01297 0.52703 0.0
C6134 C 0.94909 0.98317 0.54834 0.0
H6135 H 0.86956 0.957 0.5207 0.0
H6136 H 0.89554 0.9735 0.52068 0.0
H6137 H 0.93093 0.97043 0.56032 0.0
H6138 H 0.00745 0.99649 0.54026 0.0
H6139 H 0.98109 0.98165 0.54325 0.0
H6140 H 0.94558 0.98936 0.50987 0.0
C6141 C 0.89396 0.96376 0.5276 0.0
C6142 C 0.93395 0.97425 0.54913 0.0
C6143 C 0.87895 0.95429 0.52764 0.0
C6144 C 0.9977 1.00131 0.53668 0.0
C6145 C 0.98262 0.99284 0.53841 0.0
C6146 C 0.94249 0.98535 0.52098 0.0
C6147 C 0.90664 0.96083 0.53642 0.0
C6148 C 0.92285 0.97057 0.53577 0.0
C6149 C 0.96964 0.99842 0.53336 0.0
C6150 C 0.95354 0.9889 0.53428 0.0
H6151 H 0.88688 0.92919 0.5527 0.0
H6152 H 0.91302 0.94541 0.55242 0.0
H6153 H 0.9195 0.97342 0.51095 0.0
H6154 H 0.98882 0.03272 0.52063 0.0
H6155 H 0.96247 0.01764 0.52307 0.0
C6156 C 0.88471 0.15932 0.28521 0.0
C6157 C 0.88333 0.14581 0.27232 0.0
C6158 C 0.87645 0.17202 0.28472 0.0
C6159 C 0.84477 0.18428 0.2587 0.0
H6160 H 0.8556 0.2251 0.28955 0.0
C6161 C 0.81944 0.24172 0.25009 0.0
C6162 C 0.8157 0.25229 0.26339 0.0
C6163 C 0.82685 0.22876 0.25188 0.0
C6164 C 0.85222 0.21377 0.28083 0.0
H6165 H 0.87123 0.13599 0.24866 0.0
H6166 H 0.85785 0.15771 0.24748 0.0
H6167 H 0.86992 0.20374 0.29101 0.0
H6168 H 0.81759 0.25719 0.28939 0.0
H6169 H 0.83087 0.23492 0.29259 0.0
H6170 H 0.82733 0.19463 0.24833 0.0
C6171 C 0.86505 0.15864 0.25837 0.0
C6172 C 0.86057 0.2012 0.28166 0.0
C6173 C 0.87318 0.14592 0.25893 0.0
C6174 C 0.8199 0.2493 0.27874 0.0
C6175 C 0.82775 0.2365 0.28057 0.0
C6176 C 0.83663 0.19691 0.25773 0.0
C6177 C 0.86629 0.17215 0.27126 0.0
C6178 C 0.85717 0.18598 0.27057 0.0
C6179 C 0.83145 0.22587 0.26714 0.0
C6180 C 0.84011 0.21205 0.26873 0.0
H6181 H 0.89235 0.16033 0.29583 0.0
H6182 H 0.87808 0.18169 0.29517 0.0
H6183 H 0.84099 0.17305 0.24998 0.0
H6184 H 0.8167 0.24358 0.23805 0.0
H6185 H 0.82943 0.22127 0.24111 0.0
C6186 C 0.69614 0.07373 0.99392 0.0
C6187 C 0.7015 0.09075 0.99589 0.0
C6188 C 0.68154 0.06744 0.99835 0.0
C6189 C 0.65692 0.07874 0.02828 0.0
H6190 H 0.62275 0.04942 0.0007 0.0
C6191 C 0.59238 0.07561 0.02974 0.0
C6192 C 0.5828 0.0601 0.02408 0.0
C6193 C 0.60832 0.07706 0.03221 0.0
C6194 C 0.63234 0.05721 0.00872 0.0
H6195 H 0.69609 0.11464 0.00278 0.0
H6196 H 0.67048 0.10359 0.01058 0.0
H6197 H 0.6478 0.05604 0.99028 0.0
H6198 H 0.58232 0.03422 0.0168 0.0
H6199 H 0.60927 0.03649 0.02228 0.0
H6200 H 0.64108 0.08058 0.04647 0.0
C6201 C 0.67748 0.09519 0.00567 0.0
C6202 C 0.64655 0.06101 0.00269 0.0
C6203 C 0.69188 0.10142 0.00095 0.0
C6204 C 0.58912 0.04616 0.02179 0.0
C6205 C 0.60469 0.04746 0.02492 0.0
C6206 C 0.64263 0.07491 0.03438 0.0
C6207 C 0.67266 0.07829 0.00509 0.0
C6208 C 0.65866 0.07221 0.01226 0.0
C6209 C 0.61448 0.06296 0.02893 0.0
C6210 C 0.63022 0.06451 0.02442 0.0
H6211 H 0.70367 0.06549 0.99022 0.0
H6212 H 0.67769 0.05431 0.99767 0.0
H6213 H 0.66642 0.08733 0.03578 0.0
H6214 H 0.58766 0.08652 0.03152 0.0
H6215 H 0.61586 0.0892 0.03516 0.0
C6216 C 0.23449 0.46666 0.23022 0.0
C6217 C 0.21956 0.46625 0.23504 0.0
C6218 C 0.24171 0.45403 0.23238 0.0
C6219 C 0.24537 0.435 0.26358 0.0
H6220 H 0.2614 0.40047 0.23843 0.0
C6221 C 0.27357 0.3925 0.29385 0.0
C6222 C 0.28707 0.38898 0.28769 0.0
C6223 C 0.26447 0.40026 0.28541 0.0
C6224 C 0.25708 0.41019 0.24553 0.0
H6225 H 0.1997 0.45216 0.24414 0.0
H6226 H 0.21244 0.43008 0.24807 0.0
H6227 H 0.24663 0.41645 0.22475 0.0
H6228 H 0.30169 0.39013 0.26802 0.0
H6229 H 0.28623 0.40467 0.25358 0.0
H6230 H 0.25609 0.42948 0.28428 0.0
C6231 C 0.21845 0.43996 0.24256 0.0
C6232 C 0.24865 0.41916 0.23774 0.0
C6233 C 0.21128 0.45254 0.24045 0.0
C6234 C 0.29145 0.39321 0.27305 0.0
C6235 C 0.28249 0.40118 0.26471 0.0
C6236 C 0.25389 0.42625 0.27132 0.0
C6237 C 0.23389 0.4411 0.23926 0.0
C6238 C 0.24273 0.43146 0.24682 0.0
C6239 C 0.26893 0.40475 0.27083 0.0
C6240 C 0.25975 0.41372 0.2624 0.0
H6241 H 0.24097 0.47731 0.22613 0.0
H6242 H 0.25377 0.45509 0.2301 0.0
H6243 H 0.24097 0.4447 0.27065 0.0
H6244 H 0.26979 0.38871 0.30485 0.0
H6245 H 0.25387 0.40256 0.29018 0.0
C6246 C 0.21078 0.41948 0.02493 0.0
C6247 C 0.2253 0.42827 0.03245 0.0
C6248 C 0.19843 0.42726 0.02404 0.0
C6249 C 0.18563 0.46572 0.04047 0.0
H6250 H 0.15897 0.45402 0.00072 0.0
C6251 C 0.14928 0.50815 0.01933 0.0
C6252 C 0.13437 0.50109 0.01185 0.0
C6253 C 0.15887 0.49824 0.02369 0.0
C6254 C 0.16615 0.45725 0.012 0.0
H6255 H 0.23821 0.45209 0.04505 0.0
H6256 H 0.21689 0.4658 0.04314 0.0
H6257 H 0.1787 0.43871 0.00473 0.0
H6258 H 0.11758 0.47831 0.0032 0.0
H6259 H 0.13451 0.46078 0.01065 0.0
H6260 H 0.17341 0.48474 0.04737 0.0
C6261 C 0.21484 0.45278 0.03827 0.0
C6262 C 0.17748 0.44846 0.01434 0.0
C6263 C 0.22712 0.44494 0.03931 0.0
C6264 C 0.12902 0.48397 0.00909 0.0
C6265 C 0.13873 0.47399 0.01324 0.0
C6266 C 0.17441 0.47462 0.03805 0.0
C6267 C 0.20034 0.44409 0.03048 0.0
C6268 C 0.18753 0.45271 0.02852 0.0
C6269 C 0.15382 0.48104 0.02044 0.0
C6270 C 0.16469 0.47062 0.0237 0.0
H6271 H 0.20893 0.40654 0.01978 0.0
H6272 H 0.18737 0.42006 0.01828 0.0
H6273 H 0.19288 0.46914 0.0517 0.0
H6274 H 0.15361 0.52135 0.02147 0.0
H6275 H 0.17049 0.50402 0.02904 0.0
C6276 C 0.88392 0.96473 0.25615 0.0
C6277 C 0.88 0.97797 0.26645 0.0
C6278 C 0.87621 0.94815 0.25571 0.0
C6279 C 0.8454 0.92099 0.27671 0.0
H6280 H 0.85137 0.88661 0.24274 0.0
C6281 C 0.80829 0.85287 0.26833 0.0
C6282 C 0.81553 0.83967 0.26367 0.0
C6283 C 0.81594 0.86941 0.26851 0.0
C6284 C 0.84956 0.89595 0.25245 0.0
H6285 H 0.86405 0.98325 0.28415 0.0
H6286 H 0.8506 0.95516 0.28318 0.0
H6287 H 0.86436 0.91485 0.24308 0.0
H6288 H 0.83693 0.83419 0.25542 0.0
H6289 H 0.85001 0.86268 0.25535 0.0
H6290 H 0.83018 0.90182 0.28567 0.0
C6291 C 0.85999 0.95717 0.2756 0.0
C6292 C 0.8572 0.91253 0.25274 0.0
C6293 C 0.86784 0.97372 0.27618 0.0
C6294 C 0.83076 0.84379 0.25903 0.0
C6295 C 0.83832 0.8603 0.25893 0.0
C6296 C 0.83756 0.90446 0.27622 0.0
C6297 C 0.86394 0.94377 0.26541 0.0
C6298 C 0.85546 0.92564 0.26494 0.0
C6299 C 0.83115 0.87356 0.2638 0.0
C6300 C 0.83949 0.89149 0.26414 0.0
H6301 H 0.89328 0.96707 0.24855 0.0
H6302 H 0.88026 0.93883 0.24778 0.0
H6303 H 0.84356 0.92999 0.28665 0.0
H6304 H 0.79672 0.85051 0.27221 0.0
H6305 H 0.80978 0.87898 0.27224 0.0
C6306 C 0.75531 0.12117 0.76102 0.0
C6307 C 0.74034 0.11803 0.75341 0.0
C6308 C 0.76563 0.13592 0.7607 0.0
C6309 C 0.77047 0.17254 0.74151 0.0
H6310 H 0.7878 0.19577 0.7841 0.0
C6311 C 0.76974 0.23844 0.76521 0.0
C6312 C 0.78259 0.24862 0.77466 0.0
C6313 C 0.76968 0.22204 0.7597 0.0
C6314 C 0.78346 0.18937 0.77202 0.0
H6315 H 0.72404 0.1274 0.73984 0.0
H6316 H 0.74173 0.15344 0.73983 0.0
H6317 H 0.77844 0.16625 0.77946 0.0
H6318 H 0.80432 0.24964 0.78785 0.0
H6319 H 0.80462 0.22098 0.77778 0.0
H6320 H 0.77344 0.19595 0.73475 0.0
C6321 C 0.74587 0.14438 0.74539 0.0
C6322 C 0.77815 0.17245 0.76935 0.0
C6323 C 0.73568 0.12963 0.74556 0.0
C6324 C 0.79487 0.24215 0.77961 0.0
C6325 C 0.79494 0.2258 0.774 0.0
C6326 C 0.77541 0.18949 0.74431 0.0
C6327 C 0.76093 0.14765 0.75294 0.0
C6328 C 0.77081 0.16409 0.75431 0.0
C6329 C 0.78237 0.21569 0.76393 0.0
C6330 C 0.78128 0.19803 0.75976 0.0
H6331 H 0.75902 0.11219 0.76705 0.0
H6332 H 0.77717 0.13824 0.76665 0.0
H6333 H 0.76511 0.16624 0.72972 0.0
H6334 H 0.75978 0.24317 0.76213 0.0
H6335 H 0.75954 0.21425 0.75252 0.0
loop_
_geom_bond_atom_site_label_1
_geom_bond_atom_site_label_2
_geom_bond_distance
_geom_bond_site_symmetry_2
_ccdc_geom_bond_type
Li0 N17 1.990 . S
Li0 O60 1.956 . S
Li0 O61 1.970 . S
Li0 O62 1.961 . S
Li1 N25 1.990 . S
Li1 O60 1.970 . S
Li1 O61 1.956 . S
Li1 O63 1.961 . S
Li2 N47 1.990 . S
Li2 O60 1.961 . S
Li2 O62 1.956 . S
Li2 O63 1.970 . S
Li3 N53 1.990 . S
Li3 O61 1.961 . S
Li3 O62 1.970 . S
Li3 O63 1.956 . S
C4 C6 1.348 . S
C4 C7 1.356 . S
C4 O60 1.325 . S
N5 C8 1.314 . S
N5 C9 1.279 . S
C6 C4 1.348 . S
C6 C8 1.353 . S
C6 H64 0.929 . S
C7 C4 1.356 . S
C7 C9 1.358 . S
C7 H65 0.930 . S
C8 N5 1.314 . S
C8 C6 1.353 . S
C8 H66 0.930 . S
C9 N5 1.279 . S
C9 C7 1.358 . S
C9 H67 0.930 . S
C10 C13 1.348 . S
C10 C14 1.356 . S
C10 O61 1.325 . S
C11 N12 1.279 . S
C11 C14 1.358 . S
C11 H68 0.930 . S
N12 C11 1.279 . S
N12 C15 1.314 . S
C13 C10 1.348 . S
C13 C15 1.353 . S
C13 H69 0.929 . S
C14 C10 1.356 . S
C14 C11 1.358 . S
C14 H70 0.930 . S
C15 N12 1.314 . S
C15 C13 1.353 . S
C15 H71 0.930 . S
C16 N17 1.314 . S
C16 C21 1.353 . S
C16 H22 0.930 . S
N17 Li0 1.990 . S
N17 C16 1.314 . S
N17 C19 1.279 . S
C18 C19 1.358 . S
C18 C20 1.356 . S
C18 H72 0.930 . S
C19 N17 1.279 . S
C19 C18 1.358 . S
C19 H23 0.930 . S
C20 C18 1.356 . S
C20 C21 1.348 . S
C21 C16 1.353 . S
C21 C20 1.348 . S
C21 H73 0.929 . S
H22 C16 0.930 . S
H23 C19 0.930 . S
C24 N25 1.314 . S
C24 C26 1.353 . S
C24 H30 0.930 . S
N25 Li1 1.990 . S
N25 C24 1.314 . S
N25 C28 1.279 . S
C26 C24 1.353 . S
C26 C29 1.348 . S
C26 H74 0.929 . S
C27 C28 1.358 . S
C27 C29 1.356 . S
C27 H75 0.930 . S
C28 N25 1.279 . S
C28 C27 1.358 . S
C28 H31 0.930 . S
C29 C26 1.348 . S
C29 C27 1.356 . S
H30 C24 0.930 . S
H31 C28 0.930 . S
C32 C34 1.348 . S
C32 C35 1.356 . S
C32 O62 1.325 . S
N33 C36 1.314 . S
N33 C37 1.279 . S
C34 C32 1.348 . S
C34 C36 1.353 . S
C34 H76 0.929 . S
C35 C32 1.356 . S
C35 C37 1.358 . S
C35 H77 0.930 . S
C36 N33 1.314 . S
C36 C34 1.353 . S
C36 H78 0.930 . S
C37 N33 1.279 . S
C37 C35 1.358 . S
C37 H79 0.930 . S
C38 C39 1.348 . S
C38 C40 1.356 . S
C38 O63 1.325 . S
C39 C38 1.348 . S
C39 C41 1.353 . S
C39 H80 0.929 . S
C40 C38 1.356 . S
C40 C42 1.358 . S
C40 H81 0.930 . S
C41 C39 1.353 . S
C41 N43 1.314 . S
C41 H82 0.930 . S
C42 C40 1.358 . S
C42 N43 1.279 . S
C42 H83 0.930 . S
N43 C41 1.314 . S
N43 C42 1.279 . S
C44 C46 1.353 . S
C44 N47 1.314 . S
C44 H50 0.930 . S
C45 N47 1.279 . S
C45 C48 1.358 . S
C45 H51 0.930 . S
C46 C44 1.353 . S
C46 C49 1.348 . S
C46 H84 0.929 . S
N47 Li2 1.990 . S
N47 C44 1.314 . S
N47 C45 1.279 . S
C48 C45 1.358 . S
C48 C49 1.356 . S
C48 H85 0.930 . S
C49 C46 1.348 . S
C49 C48 1.356 . S
H50 C44 0.930 . S
H51 C45 0.930 . S
C52 N53 1.314 . S
C52 C54 1.353 . S
C52 H58 0.930 . S
N53 Li3 1.990 . S
N53 C52 1.314 . S
N53 C56 1.279 . S
C54 C52 1.353 . S
C54 C57 1.348 . S
C54 H86 0.929 . S
C55 C56 1.358 . S
C55 C57 1.356 . S
C55 H87 0.930 . S
C56 N53 1.279 . S
C56 C55 1.358 . S
C56 H59 0.930 . S
C57 C54 1.348 . S
C57 C55 1.356 . S
H58 C52 0.930 . S
H59 C56 0.930 . S
O60 Li0 1.956 . S
O60 Li1 1.970 . S
O60 Li2 1.961 . S
O60 C4 1.325 . S
O61 Li0 1.970 . S
O61 Li1 1.956 . S
O61 Li3 1.961 . S
O61 C10 1.325 . S
O62 Li0 1.961 . S
O62 Li2 1.956 . S
O62 Li3 1.970 . S
O62 C32 1.325 . S
O63 Li1 1.961 . S
O63 Li2 1.970 . S
O63 Li3 1.956 . S
O63 C38 1.325 . S
H64 C6 0.929 . S
H65 C7 0.930 . S
H66 C8 0.930 . S
H67 C9 0.930 . S
H68 C11 0.930 . S
H69 C13 0.929 . S
H70 C14 0.930 . S
H71 C15 0.930 . S
H72 C18 0.930 . S
H73 C21 0.929 . S
H74 C26 0.929 . S
H75 C27 0.930 . S
H76 C34 0.929 . S
H77 C35 0.930 . S
H78 C36 0.930 . S
H79 C37 0.930 . S
H80 C39 0.929 . S
H81 C40 0.930 . S
H82 C41 0.930 . S
H83 C42 0.930 . S
H84 C46 0.929 . S
H85 C48 0.930 . S
H86 C54 0.929 . S
H87 C55 0.930 . S
Li88 N105 1.990 . S
Li88 O148 1.956 . S
Li88 O149 1.970 . S
Li88 O150 1.961 1_455 S
Li89 N113 1.990 . S
Li89 O148 1.970 . S
Li89 O149 1.956 . S
Li89 O151 1.929 1_455 S
Li90 N135 1.990 . S
Li90 O148 1.961 1_655 S
Li90 O150 1.956 . S
Li90 O151 1.973 . S
Li91 N141 1.990 . S
Li91 O149 1.961 1_655 S
Li91 O150 1.970 . S
Li91 O151 2.001 . S
C92 C94 1.348 . S
C92 C95 1.356 . S
C92 O148 1.325 . S
N93 C96 1.314 . S
N93 C97 1.279 . S
C94 C92 1.348 . S
C94 C96 1.353 . S
C94 H152 0.929 . S
C95 C92 1.356 . S
C95 C97 1.358 . S
C95 H153 0.930 . S
C96 N93 1.314 . S
C96 C94 1.353 . S
C96 H154 0.930 . S
C97 N93 1.279 . S
C97 C95 1.358 . S
C97 H155 0.930 . S
C98 C101 1.348 . S
C98 C102 1.356 . S
C98 O149 1.325 . S
C99 N100 1.279 . S
C99 C102 1.358 . S
C99 H156 0.930 . S
N100 C99 1.279 . S
N100 C103 1.314 . S
C101 C98 1.348 . S
C101 C103 1.353 . S
C101 H157 0.929 . S
C102 C98 1.356 . S
C102 C99 1.358 . S
C102 H158 0.924 1_455 S
C103 N100 1.314 . S
C103 C101 1.353 . S
C103 H159 0.930 . S
C104 N105 1.314 1_655 S
C104 C109 1.353 . S
C104 H110 0.930 . S
N105 Li88 1.990 . S
N105 C104 1.314 1_455 S
N105 C107 1.279 . S
C106 C107 1.358 . S
C106 C108 1.356 . S
C106 H160 0.930 . S
C107 N105 1.279 . S
C107 C106 1.358 . S
C107 H111 0.930 . S
C108 C106 1.356 . S
C108 C109 1.348 1_455 S
C109 C104 1.353 . S
C109 C108 1.348 1_655 S
C109 H161 0.929 . S
H110 C104 0.930 . S
H111 C107 0.930 . S
C112 N113 1.314 . S
C112 C114 1.353 . S
C112 H118 0.930 . S
N113 Li89 1.990 . S
N113 C112 1.314 . S
N113 C116 1.279 . S
C114 C112 1.353 . S
C114 C117 1.348 . S
C114 H162 0.929 . S
C115 C116 1.358 . S
C115 C117 1.356 . S
C115 H163 0.930 . S
C116 N113 1.279 . S
C116 C115 1.358 . S
C116 H119 0.930 . S
C117 C114 1.348 . S
C117 C115 1.356 . S
H118 C112 0.930 . S
H119 C116 0.930 . S
C120 C122 1.348 . S
C120 C123 1.356 . S
C120 O150 1.325 . S
N121 C124 1.314 . S
N121 C125 1.279 . S
C122 C120 1.348 . S
C122 C124 1.353 . S
C122 H164 0.929 . S
C123 C120 1.356 . S
C123 C125 1.358 . S
C123 H165 0.930 . S
C124 N121 1.314 . S
C124 C122 1.353 . S
C124 H166 0.930 . S
C125 N121 1.279 . S
C125 C123 1.358 . S
C125 H167 0.930 . S
C126 C127 1.348 . S
C126 C128 1.356 1_655 S
C126 O151 1.323 . S
C127 C126 1.348 . S
C127 C129 1.353 . S
C127 H168 0.929 . S
C128 C126 1.356 1_455 S
C128 C130 1.359 . S
C128 H169 0.930 . S
C129 C127 1.353 . S
C129 N131 1.314 . S
C129 H170 0.930 . S
C130 C128 1.359 . S
C130 N131 1.280 1_455 S
C130 H171 0.929 . S
N131 C129 1.314 . S
N131 C130 1.280 1_655 S
C132 C134 1.353 . S
C132 N135 1.314 1_455 S
C132 H138 0.930 . S
C133 N135 1.279 . S
C133 C136 1.358 . S
C133 H139 0.930 . S
C134 C132 1.353 . S
C134 C137 1.348 1_455 S
C134 H172 0.929 . S
N135 Li90 1.990 . S
N135 C132 1.314 1_655 S
N135 C133 1.279 . S
C136 C133 1.358 . S
C136 C137 1.356 . S
C136 H173 0.930 . S
C137 C134 1.348 1_655 S
C137 C136 1.356 . S
H138 C132 0.930 . S
H139 C133 0.930 . S
C140 N141 1.314 . S
C140 C142 1.353 . S
C140 H146 0.930 . S
N141 Li91 1.990 . S
N141 C140 1.314 . S
N141 C144 1.279 . S
C142 C140 1.353 . S
C142 C145 1.348 . S
C142 H174 0.929 . S
C143 C144 1.358 . S
C143 C145 1.356 . S
C143 H175 0.930 . S
C144 N141 1.279 . S
C144 C143 1.358 . S
C144 H147 0.930 . S
C145 C142 1.348 . S
C145 C143 1.356 . S
H146 C140 0.930 . S
H147 C144 0.930 . S
O148 Li88 1.956 . S
O148 Li89 1.970 . S
O148 Li90 1.961 1_455 S
O148 C92 1.325 . S
O149 Li88 1.970 . S
O149 Li89 1.956 . S
O149 Li91 1.961 1_455 S
O149 C98 1.325 . S
O150 Li88 1.961 1_655 S
O150 Li90 1.956 . S
O150 Li91 1.970 . S
O150 C120 1.325 . S
O151 Li89 1.929 1_655 S
O151 Li90 1.973 . S
O151 Li91 2.001 . S
O151 C126 1.323 . S
H152 C94 0.929 . S
H153 C95 0.930 . S
H154 C96 0.930 . S
H155 C97 0.930 . S
H156 C99 0.930 . S
H157 C101 0.929 . S
H158 C102 0.924 1_655 S
H159 C103 0.930 . S
H160 C106 0.930 . S
H161 C109 0.929 . S
H162 C114 0.929 . S
H163 C115 0.930 . S
H164 C122 0.929 . S
H165 C123 0.930 . S
H166 C124 0.930 . S
H167 C125 0.930 . S
H168 C127 0.929 . S
H169 C128 0.930 . S
H170 C129 0.930 . S
H171 C130 0.929 . S
H172 C134 0.929 . S
H173 C136 0.930 . S
H174 C142 0.929 . S
H175 C143 0.930 . S
Li176 N193 1.990 . S
Li176 O236 1.956 . S
Li176 O237 1.970 . S
Li176 O238 1.961 . S
Li177 N201 1.990 . S
Li177 O236 1.970 . S
Li177 O237 1.956 . S
Li177 O239 1.961 . S
Li178 N223 1.990 . S
Li178 O236 1.961 . S
Li178 O238 1.956 . S
Li178 O239 1.970 . S
Li179 N229 1.990 . S
Li179 O237 1.961 . S
Li179 O238 1.970 . S
Li179 O239 1.956 . S
C180 C182 1.348 . S
C180 C183 1.356 . S
C180 O236 1.325 . S
N181 C184 1.314 . S
N181 C185 1.279 . S
C182 C180 1.348 . S
C182 C184 1.353 . S
C182 H240 0.929 . S
C183 C180 1.356 . S
C183 C185 1.358 . S
C183 H241 0.930 . S
C184 N181 1.314 . S
C184 C182 1.353 . S
C184 H242 0.930 . S
C185 N181 1.279 . S
C185 C183 1.358 . S
C185 H243 0.930 . S
C186 C189 1.348 . S
C186 C190 1.356 . S
C186 O237 1.325 . S
C187 N188 1.279 . S
C187 C190 1.358 . S
C187 H244 0.930 . S
N188 C187 1.279 . S
N188 C191 1.314 . S
C189 C186 1.348 . S
C189 C191 1.353 . S
C189 H245 0.929 . S
C190 C186 1.356 . S
C190 C187 1.358 . S
C190 H246 0.930 . S
C191 N188 1.314 . S
C191 C189 1.353 . S
C191 H247 0.930 . S
C192 N193 1.314 . S
C192 C197 1.353 . S
C192 H198 0.930 . S
N193 Li176 1.990 . S
N193 C192 1.314 . S
N193 C195 1.279 . S
C194 C195 1.358 . S
C194 C196 1.356 . S
C194 H248 0.930 . S
C195 N193 1.279 . S
C195 C194 1.358 . S
C195 H199 0.930 . S
C196 C194 1.356 . S
C196 C197 1.348 . S
C197 C192 1.353 . S
C197 C196 1.348 . S
C197 H249 0.929 . S
H198 C192 0.930 . S
H199 C195 0.930 . S
C200 N201 1.314 . S
C200 C202 1.353 . S
C200 H206 0.930 . S
N201 Li177 1.990 . S
N201 C200 1.314 . S
N201 C204 1.279 . S
C202 C200 1.353 . S
C202 C205 1.348 . S
C202 H250 0.929 . S
C203 C204 1.358 . S
C203 C205 1.356 . S
C203 H251 0.930 . S
C204 N201 1.279 . S
C204 C203 1.358 . S
C204 H207 0.930 . S
C205 C202 1.348 . S
C205 C203 1.356 . S
H206 C200 0.930 . S
H207 C204 0.930 . S
C208 C210 1.348 . S
C208 C211 1.356 . S
C208 O238 1.325 . S
N209 C212 1.314 . S
N209 C213 1.279 . S
C210 C208 1.348 . S
C210 C212 1.353 . S
C210 H252 0.929 . S
C211 C208 1.356 . S
C211 C213 1.358 . S
C211 H253 0.930 . S
C212 N209 1.314 . S
C212 C210 1.353 . S
C212 H254 0.930 . S
C213 N209 1.279 . S
C213 C211 1.358 . S
C213 H255 0.930 . S
C214 C215 1.348 . S
C214 C216 1.356 . S
C214 O239 1.325 . S
C215 C214 1.348 . S
C215 C217 1.353 . S
C215 H256 0.929 . S
C216 C214 1.356 . S
C216 C218 1.358 . S
C216 H257 0.930 . S
C217 C215 1.353 . S
C217 N219 1.314 . S
C217 H258 0.930 . S
C218 C216 1.358 . S
C218 N219 1.279 . S
C218 H259 0.930 . S
N219 C217 1.314 . S
N219 C218 1.279 . S
C220 C222 1.353 . S
C220 N223 1.314 . S
C220 H226 0.930 . S
C221 N223 1.279 . S
C221 C224 1.358 . S
C221 H227 0.930 . S
C222 C220 1.353 . S
C222 C225 1.348 . S
C222 H260 0.929 . S
N223 Li178 1.990 . S
N223 C220 1.314 . S
N223 C221 1.279 . S
C224 C221 1.358 . S
C224 C225 1.356 . S
C224 H261 0.930 . S
C225 C222 1.348 . S
C225 C224 1.356 . S
H226 C220 0.930 . S
H227 C221 0.930 . S
C228 N229 1.314 . S
C228 C230 1.353 . S
C228 H234 0.930 . S
N229 Li179 1.990 . S
N229 C228 1.314 . S
N229 C232 1.279 . S
C230 C228 1.353 . S
C230 C233 1.348 . S
C230 H262 0.929 . S
C231 C232 1.358 . S
C231 C233 1.356 . S
C231 H263 0.930 . S
C232 N229 1.279 . S
C232 C231 1.358 . S
C232 H235 0.930 . S
C233 C230 1.348 . S
C233 C231 1.356 . S
H234 C228 0.930 . S
H235 C232 0.930 . S
O236 Li176 1.956 . S
O236 Li177 1.970 . S
O236 Li178 1.961 . S
O236 C180 1.325 . S
O237 Li176 1.970 . S
O237 Li177 1.956 . S
O237 Li179 1.961 . S
O237 C186 1.325 . S
O238 Li176 1.961 . S
O238 Li178 1.956 . S
O238 Li179 1.970 . S
O238 C208 1.325 . S
O239 Li177 1.961 . S
O239 Li178 1.970 . S
O239 Li179 1.956 . S
O239 C214 1.325 . S
H240 C182 0.929 . S
H241 C183 0.930 . S
H242 C184 0.930 . S
H243 C185 0.930 . S
H244 C187 0.930 . S
H245 C189 0.929 . S
H246 C190 0.930 . S
H247 C191 0.930 . S
H248 C194 0.930 . S
H249 C197 0.929 . S
H250 C202 0.929 . S
H251 C203 0.930 . S
H252 C210 0.929 . S
H253 C211 0.930 . S
H254 C212 0.930 . S
H255 C213 0.930 . S
H256 C215 0.929 . S
H257 C216 0.930 . S
H258 C217 0.930 . S
H259 C218 0.930 . S
H260 C222 0.929 . S
H261 C224 0.930 . S
H262 C230 0.929 . S
H263 C231 0.930 . S
Li264 N281 1.990 . S
Li264 O324 1.956 . S
Li264 O325 1.970 . S
Li264 O326 1.961 . S
Li265 N289 1.990 . S
Li265 O324 1.970 . S
Li265 O325 1.956 . S
Li265 O327 1.961 . S
Li266 N311 1.990 . S
Li266 O324 1.961 . S
Li266 O326 1.956 . S
Li266 O327 1.970 . S
Li267 N317 1.990 . S
Li267 O325 1.961 . S
Li267 O326 1.970 . S
Li267 O327 1.956 . S
C268 C270 1.348 . S
C268 C271 1.356 . S
C268 O324 1.325 . S
N269 C272 1.314 . S
N269 C273 1.279 . S
C270 C268 1.348 . S
C270 C272 1.353 . S
C270 H328 0.929 . S
C271 C268 1.356 . S
C271 C273 1.358 . S
C271 H329 0.930 . S
C272 N269 1.314 . S
C272 C270 1.353 . S
C272 H330 0.930 . S
C273 N269 1.279 . S
C273 C271 1.358 . S
C273 H331 0.930 . S
C274 C277 1.348 . S
C274 C278 1.356 . S
C274 O325 1.325 . S
C275 N276 1.279 . S
C275 C278 1.358 . S
C275 H332 0.930 . S
N276 C275 1.279 . S
N276 C279 1.314 . S
C277 C274 1.348 . S
C277 C279 1.353 . S
C277 H333 0.929 . S
C278 C274 1.356 . S
C278 C275 1.358 . S
C278 H334 0.930 . S
C279 N276 1.314 . S
C279 C277 1.353 . S
C279 H335 0.930 . S
C280 N281 1.314 . S
C280 C285 1.353 . S
C280 H286 0.930 . S
N281 Li264 1.990 . S
N281 C280 1.314 . S
N281 C283 1.279 . S
C282 C283 1.358 . S
C282 C284 1.356 . S
C282 H336 0.930 . S
C283 N281 1.279 . S
C283 C282 1.358 . S
C283 H287 0.930 . S
C284 C282 1.356 . S
C284 C285 1.348 . S
C285 C280 1.353 . S
C285 C284 1.348 . S
C285 H337 0.929 . S
H286 C280 0.930 . S
H287 C283 0.930 . S
C288 N289 1.314 . S
C288 C290 1.353 . S
C288 H294 0.930 . S
N289 Li265 1.990 . S
N289 C288 1.314 . S
N289 C292 1.279 . S
C290 C288 1.353 . S
C290 C293 1.348 . S
C290 H338 0.929 . S
C291 C292 1.358 . S
C291 C293 1.356 . S
C291 H339 0.930 . S
C292 N289 1.279 . S
C292 C291 1.358 . S
C292 H295 0.930 . S
C293 C290 1.348 . S
C293 C291 1.356 . S
H294 C288 0.930 . S
H295 C292 0.930 . S
C296 C298 1.348 . S
C296 C299 1.356 . S
C296 O326 1.325 . S
N297 C300 1.314 . S
N297 C301 1.279 . S
C298 C296 1.348 . S
C298 C300 1.353 . S
C298 H340 0.929 . S
C299 C296 1.356 . S
C299 C301 1.358 . S
C299 H341 0.930 . S
C300 N297 1.314 . S
C300 C298 1.353 . S
C300 H342 0.930 . S
C301 N297 1.279 . S
C301 C299 1.358 . S
C301 H343 0.930 . S
C302 C303 1.348 . S
C302 C304 1.356 . S
C302 O327 1.325 . S
C303 C302 1.348 . S
C303 C305 1.353 . S
C303 H344 0.929 . S
C304 C302 1.356 . S
C304 C306 1.358 . S
C304 H345 0.930 . S
C305 C303 1.353 . S
C305 N307 1.314 . S
C305 H346 0.930 . S
C306 C304 1.358 . S
C306 N307 1.279 . S
C306 H347 0.930 . S
N307 C305 1.314 . S
N307 C306 1.279 . S
C308 C310 1.353 . S
C308 N311 1.314 . S
C308 H314 0.930 . S
C309 N311 1.279 . S
C309 C312 1.358 . S
C309 H315 0.930 . S
C310 C308 1.353 . S
C310 C313 1.348 . S
C310 H348 0.929 . S
N311 Li266 1.990 . S
N311 C308 1.314 . S
N311 C309 1.279 . S
C312 C309 1.358 . S
C312 C313 1.356 . S
C312 H349 0.930 . S
C313 C310 1.348 . S
C313 C312 1.356 . S
H314 C308 0.930 . S
H315 C309 0.930 . S
C316 N317 1.314 . S
C316 C318 1.353 . S
C316 H322 0.930 . S
N317 Li267 1.990 . S
N317 C316 1.314 . S
N317 C320 1.279 . S
C318 C316 1.353 . S
C318 C321 1.348 . S
C318 H350 0.929 . S
C319 C320 1.358 . S
C319 C321 1.356 . S
C319 H351 0.930 . S
C320 N317 1.279 . S
C320 C319 1.358 . S
C320 H323 0.930 . S
C321 C318 1.348 . S
C321 C319 1.356 . S
H322 C316 0.930 . S
H323 C320 0.930 . S
O324 Li264 1.956 . S
O324 Li265 1.970 . S
O324 Li266 1.961 . S
O324 C268 1.325 . S
O325 Li264 1.970 . S
O325 Li265 1.956 . S
O325 Li267 1.961 . S
O325 C274 1.325 . S
O326 Li264 1.961 . S
O326 Li266 1.956 . S
O326 Li267 1.970 . S
O326 C296 1.325 . S
O327 Li265 1.961 . S
O327 Li266 1.970 . S
O327 Li267 1.956 . S
O327 C302 1.325 . S
H328 C270 0.929 . S
H329 C271 0.930 . S
H330 C272 0.930 . S
H331 C273 0.930 . S
H332 C275 0.930 . S
H333 C277 0.929 . S
H334 C278 0.930 . S
H335 C279 0.930 . S
H336 C282 0.930 . S
H337 C285 0.929 . S
H338 C290 0.929 . S
H339 C291 0.930 . S
H340 C298 0.929 . S
H341 C299 0.930 . S
H342 C300 0.930 . S
H343 C301 0.930 . S
H344 C303 0.929 . S
H345 C304 0.930 . S
H346 C305 0.930 . S
H347 C306 0.930 . S
H348 C310 0.929 . S
H349 C312 0.930 . S
H350 C318 0.929 . S
H351 C319 0.930 . S
Li352 N369 1.990 . S
Li352 O412 1.956 . S
Li352 O413 1.970 . S
Li352 O414 1.961 . S
Li353 N377 1.990 . S
Li353 O412 1.970 . S
Li353 O413 1.956 . S
Li353 O415 1.961 . S
Li354 N399 1.990 . S
Li354 O412 1.961 . S
Li354 O414 1.956 . S
Li354 O415 1.970 . S
Li355 N405 1.990 . S
Li355 O413 1.961 . S
Li355 O414 1.970 . S
Li355 O415 1.956 . S
C356 C358 1.348 . S
C356 C359 1.356 . S
C356 O412 1.325 . S
N357 C360 1.314 . S
N357 C361 1.279 . S
C358 C356 1.348 . S
C358 C360 1.353 . S
C358 H416 0.929 . S
C359 C356 1.356 . S
C359 C361 1.358 . S
C359 H417 0.930 . S
C360 N357 1.314 . S
C360 C358 1.353 . S
C360 H418 0.930 . S
C361 N357 1.279 . S
C361 C359 1.358 . S
C361 H419 0.930 . S
C362 C365 1.348 . S
C362 C366 1.356 . S
C362 O413 1.325 . S
C363 N364 1.279 . S
C363 C366 1.358 . S
C363 H420 0.930 . S
N364 C363 1.279 . S
N364 C367 1.314 . S
C365 C362 1.348 . S
C365 C367 1.353 . S
C365 H421 0.929 . S
C366 C362 1.356 . S
C366 C363 1.358 . S
C366 H422 0.930 . S
C367 N364 1.314 . S
C367 C365 1.353 . S
C367 H423 0.930 . S
C368 N369 1.314 . S
C368 C373 1.353 . S
C368 H374 0.930 . S
N369 Li352 1.990 . S
N369 C368 1.314 . S
N369 C371 1.279 . S
C370 C371 1.358 . S
C370 C372 1.356 . S
C370 H424 0.930 . S
C371 N369 1.279 . S
C371 C370 1.358 . S
C371 H375 0.930 . S
C372 C370 1.356 . S
C372 C373 1.348 . S
C373 C368 1.353 . S
C373 C372 1.348 . S
C373 H425 0.929 . S
H374 C368 0.930 . S
H375 C371 0.930 . S
C376 N377 1.314 . S
C376 C378 1.353 . S
C376 H382 0.930 . S
N377 Li353 1.990 . S
N377 C376 1.314 . S
N377 C380 1.279 . S
C378 C376 1.353 . S
C378 C381 1.348 . S
C378 H426 0.929 . S
C379 C380 1.358 . S
C379 C381 1.356 . S
C379 H427 0.930 . S
C380 N377 1.279 . S
C380 C379 1.358 . S
C380 H383 0.930 . S
C381 C378 1.348 . S
C381 C379 1.356 . S
H382 C376 0.930 . S
H383 C380 0.930 . S
C384 C386 1.348 . S
C384 C387 1.356 . S
C384 O414 1.325 . S
N385 C388 1.314 . S
N385 C389 1.279 . S
C386 C384 1.348 . S
C386 C388 1.353 . S
C386 H428 0.929 . S
C387 C384 1.356 . S
C387 C389 1.358 . S
C387 H429 0.930 . S
C388 N385 1.314 . S
C388 C386 1.353 . S
C388 H430 0.930 . S
C389 N385 1.279 . S
C389 C387 1.358 . S
C389 H431 0.930 . S
C390 C391 1.348 . S
C390 C392 1.356 . S
C390 O415 1.325 . S
C391 C390 1.348 . S
C391 C393 1.353 . S
C391 H432 0.929 . S
C392 C390 1.356 . S
C392 C394 1.358 . S
C392 H433 0.930 . S
C393 C391 1.353 . S
C393 N395 1.314 . S
C393 H434 0.930 . S
C394 C392 1.358 . S
C394 N395 1.279 . S
C394 H435 0.930 . S
N395 C393 1.314 . S
N395 C394 1.279 . S
C396 C398 1.353 . S
C396 N399 1.314 . S
C396 H402 0.930 . S
C397 N399 1.279 . S
C397 C400 1.358 . S
C397 H403 0.930 . S
C398 C396 1.353 . S
C398 C401 1.348 . S
C398 H436 0.929 . S
N399 Li354 1.990 . S
N399 C396 1.314 . S
N399 C397 1.279 . S
C400 C397 1.358 . S
C400 C401 1.356 . S
C400 H437 0.930 . S
C401 C398 1.348 . S
C401 C400 1.356 . S
H402 C396 0.930 . S
H403 C397 0.930 . S
C404 N405 1.314 . S
C404 C406 1.353 . S
C404 H410 0.930 . S
N405 Li355 1.990 . S
N405 C404 1.314 . S
N405 C408 1.279 . S
C406 C404 1.353 . S
C406 C409 1.348 . S
C406 H438 0.929 . S
C407 C408 1.358 . S
C407 C409 1.356 . S
C407 H439 0.930 . S
C408 N405 1.279 . S
C408 C407 1.358 . S
C408 H411 0.930 . S
C409 C406 1.348 . S
C409 C407 1.356 . S
H410 C404 0.930 . S
H411 C408 0.930 . S
O412 Li352 1.956 . S
O412 Li353 1.970 . S
O412 Li354 1.961 . S
O412 C356 1.325 . S
O413 Li352 1.970 . S
O413 Li353 1.956 . S
O413 Li355 1.961 . S
O413 C362 1.325 . S
O414 Li352 1.961 . S
O414 Li354 1.956 . S
O414 Li355 1.970 . S
O414 C384 1.325 . S
O415 Li353 1.961 . S
O415 Li354 1.970 . S
O415 Li355 1.956 . S
O415 C390 1.325 . S
H416 C358 0.929 . S
H417 C359 0.930 . S
H418 C360 0.930 . S
H419 C361 0.930 . S
H420 C363 0.930 . S
H421 C365 0.929 . S
H422 C366 0.930 . S
H423 C367 0.930 . S
H424 C370 0.930 . S
H425 C373 0.929 . S
H426 C378 0.929 . S
H427 C379 0.930 . S
H428 C386 0.929 . S
H429 C387 0.930 . S
H430 C388 0.930 . S
H431 C389 0.930 . S
H432 C391 0.929 . S
H433 C392 0.930 . S
H434 C393 0.930 . S
H435 C394 0.930 . S
H436 C398 0.929 . S
H437 C400 0.930 . S
H438 C406 0.929 . S
H439 C407 0.930 . S
Li440 N457 1.990 . S
Li440 O500 1.956 . S
Li440 O501 1.970 . S
Li440 O502 1.961 . S
Li441 N465 1.990 . S
Li441 O500 1.970 . S
Li441 O501 1.956 . S
Li441 O503 1.961 . S
Li442 N487 1.990 . S
Li442 O500 1.961 . S
Li442 O502 1.956 . S
Li442 O503 1.970 . S
Li443 N493 1.990 . S
Li443 O501 1.961 . S
Li443 O502 1.970 . S
Li443 O503 1.956 . S
C444 C446 1.348 . S
C444 C447 1.356 . S
C444 O500 1.325 . S
N445 C448 1.314 . S
N445 C449 1.279 . S
C446 C444 1.348 . S
C446 C448 1.353 . S
C446 H504 0.929 . S
C447 C444 1.356 . S
C447 C449 1.358 . S
C447 H505 0.930 . S
C448 N445 1.314 . S
C448 C446 1.353 . S
C448 H506 0.930 . S
C449 N445 1.279 . S
C449 C447 1.358 . S
C449 H507 0.930 . S
C450 C453 1.348 . S
C450 C454 1.356 . S
C450 O501 1.325 . S
C451 N452 1.279 . S
C451 C454 1.358 . S
C451 H508 0.930 . S
N452 C451 1.279 . S
N452 C455 1.314 . S
C453 C450 1.348 . S
C453 C455 1.353 . S
C453 H509 0.929 . S
C454 C450 1.356 . S
C454 C451 1.358 . S
C454 H510 0.930 . S
C455 N452 1.314 . S
C455 C453 1.353 . S
C455 H511 0.930 . S
C456 N457 1.314 . S
C456 C461 1.353 . S
C456 H462 0.930 . S
N457 Li440 1.990 . S
N457 C456 1.314 . S
N457 C459 1.279 . S
C458 C459 1.358 . S
C458 C460 1.356 . S
C458 H512 0.930 . S
C459 N457 1.279 . S
C459 C458 1.358 . S
C459 H463 0.930 . S
C460 C458 1.356 . S
C460 C461 1.348 . S
C461 C456 1.353 . S
C461 C460 1.348 . S
C461 H513 0.929 . S
H462 C456 0.930 . S
H463 C459 0.930 . S
C464 N465 1.314 . S
C464 C466 1.353 . S
C464 H470 0.930 . S
N465 Li441 1.990 . S
N465 C464 1.314 . S
N465 C468 1.279 . S
C466 C464 1.353 . S
C466 C469 1.348 . S
C466 H514 0.929 . S
C467 C468 1.358 . S
C467 C469 1.356 . S
C467 H515 0.930 . S
C468 N465 1.279 . S
C468 C467 1.358 . S
C468 H471 0.930 . S
C469 C466 1.348 . S
C469 C467 1.356 . S
H470 C464 0.930 . S
H471 C468 0.930 . S
C472 C474 1.348 . S
C472 C475 1.356 . S
C472 O502 1.325 . S
N473 C476 1.314 . S
N473 C477 1.279 . S
C474 C472 1.348 . S
C474 C476 1.353 . S
C474 H516 0.929 . S
C475 C472 1.356 . S
C475 C477 1.358 . S
C475 H517 0.930 . S
C476 N473 1.314 . S
C476 C474 1.353 . S
C476 H518 0.930 . S
C477 N473 1.279 . S
C477 C475 1.358 . S
C477 H519 0.930 . S
C478 C479 1.348 . S
C478 C480 1.356 . S
C478 O503 1.325 . S
C479 C478 1.348 . S
C479 C481 1.353 . S
C479 H520 0.929 . S
C480 C478 1.356 . S
C480 C482 1.358 . S
C480 H521 0.930 . S
C481 C479 1.353 . S
C481 N483 1.314 . S
C481 H522 0.930 . S
C482 C480 1.358 . S
C482 N483 1.279 . S
C482 H523 0.930 . S
N483 C481 1.314 . S
N483 C482 1.279 . S
C484 C486 1.353 . S
C484 N487 1.314 . S
C484 H490 0.930 . S
C485 N487 1.279 . S
C485 C488 1.358 . S
C485 H491 0.930 . S
C486 C484 1.353 . S
C486 C489 1.348 . S
C486 H524 0.929 . S
N487 Li442 1.990 . S
N487 C484 1.314 . S
N487 C485 1.279 . S
C488 C485 1.358 . S
C488 C489 1.356 . S
C488 H525 0.930 . S
C489 C486 1.348 . S
C489 C488 1.356 . S
H490 C484 0.930 . S
H491 C485 0.930 . S
C492 N493 1.314 . S
C492 C494 1.353 . S
C492 H498 0.930 . S
N493 Li443 1.990 . S
N493 C492 1.314 . S
N493 C496 1.279 . S
C494 C492 1.353 . S
C494 C497 1.348 . S
C494 H526 0.929 . S
C495 C496 1.358 . S
C495 C497 1.356 . S
C495 H527 0.930 . S
C496 N493 1.279 . S
C496 C495 1.358 . S
C496 H499 0.930 . S
C497 C494 1.348 . S
C497 C495 1.356 . S
H498 C492 0.930 . S
H499 C496 0.930 . S
O500 Li440 1.956 . S
O500 Li441 1.970 . S
O500 Li442 1.961 . S
O500 C444 1.325 . S
O501 Li440 1.970 . S
O501 Li441 1.956 . S
O501 Li443 1.961 . S
O501 C450 1.325 . S
O502 Li440 1.961 . S
O502 Li442 1.956 . S
O502 Li443 1.970 . S
O502 C472 1.325 . S
O503 Li441 1.961 . S
O503 Li442 1.970 . S
O503 Li443 1.956 . S
O503 C478 1.325 . S
H504 C446 0.929 . S
H505 C447 0.930 . S
H506 C448 0.930 . S
H507 C449 0.930 . S
H508 C451 0.930 . S
H509 C453 0.929 . S
H510 C454 0.930 . S
H511 C455 0.930 . S
H512 C458 0.930 . S
H513 C461 0.929 . S
H514 C466 0.929 . S
H515 C467 0.930 . S
H516 C474 0.929 . S
H517 C475 0.930 . S
H518 C476 0.930 . S
H519 C477 0.930 . S
H520 C479 0.929 . S
H521 C480 0.930 . S
H522 C481 0.930 . S
H523 C482 0.930 . S
H524 C486 0.929 . S
H525 C488 0.930 . S
H526 C494 0.929 . S
H527 C495 0.930 . S
Li528 N545 1.990 . S
Li528 O588 1.956 . S
Li528 O589 1.970 . S
Li528 O590 1.961 . S
Li529 N553 1.990 . S
Li529 O588 1.970 . S
Li529 O589 1.956 . S
Li529 O591 1.961 . S
Li530 N575 1.990 . S
Li530 O588 1.961 . S
Li530 O590 1.956 . S
Li530 O591 1.970 . S
Li531 N581 1.990 . S
Li531 O589 1.961 . S
Li531 O590 1.970 . S
Li531 O591 1.956 . S
C532 C534 1.348 . S
C532 C535 1.356 . S
C532 O588 1.325 . S
N533 C536 1.314 . S
N533 C537 1.279 . S
C534 C532 1.348 . S
C534 C536 1.353 . S
C534 H592 0.929 . S
C535 C532 1.356 . S
C535 C537 1.358 . S
C535 H593 0.930 . S
C536 N533 1.314 . S
C536 C534 1.353 . S
C536 H594 0.930 . S
C537 N533 1.279 . S
C537 C535 1.358 . S
C537 H595 0.930 . S
C538 C541 1.348 . S
C538 C542 1.356 . S
C538 O589 1.325 . S
C539 N540 1.279 . S
C539 C542 1.358 . S
C539 H596 0.930 . S
N540 C539 1.279 . S
N540 C543 1.314 . S
C541 C538 1.348 . S
C541 C543 1.353 . S
C541 H597 0.929 . S
C542 C538 1.356 . S
C542 C539 1.358 . S
C542 H598 0.930 . S
C543 N540 1.314 . S
C543 C541 1.353 . S
C543 H599 0.930 . S
C544 N545 1.314 . S
C544 C549 1.353 . S
C544 H550 0.930 . S
N545 Li528 1.990 . S
N545 C544 1.314 . S
N545 C547 1.279 . S
C546 C547 1.358 . S
C546 C548 1.356 . S
C546 H600 0.930 . S
C547 N545 1.279 . S
C547 C546 1.358 . S
C547 H551 0.930 . S
C548 C546 1.356 . S
C548 C549 1.348 . S
C549 C544 1.353 . S
C549 C548 1.348 . S
C549 H601 0.929 . S
H550 C544 0.930 . S
H551 C547 0.930 . S
C552 N553 1.314 . S
C552 C554 1.353 . S
C552 H558 0.930 . S
N553 Li529 1.990 . S
N553 C552 1.314 . S
N553 C556 1.279 . S
C554 C552 1.353 . S
C554 C557 1.348 . S
C554 H602 0.929 . S
C555 C556 1.358 . S
C555 C557 1.356 . S
C555 H603 0.930 . S
C556 N553 1.279 . S
C556 C555 1.358 . S
C556 H559 0.930 . S
C557 C554 1.348 . S
C557 C555 1.356 . S
H558 C552 0.930 . S
H559 C556 0.930 . S
C560 C562 1.348 . S
C560 C563 1.356 . S
C560 O590 1.325 . S
N561 C564 1.314 . S
N561 C565 1.279 . S
C562 C560 1.348 . S
C562 C564 1.353 . S
C562 H604 0.929 . S
C563 C560 1.356 . S
C563 C565 1.358 . S
C563 H605 0.930 . S
C564 N561 1.314 . S
C564 C562 1.353 . S
C564 H606 0.930 . S
C565 N561 1.279 . S
C565 C563 1.358 . S
C565 H607 0.930 . S
C566 C567 1.348 . S
C566 C568 1.356 . S
C566 O591 1.325 . S
C567 C566 1.348 . S
C567 C569 1.353 . S
C567 H608 0.929 . S
C568 C566 1.356 . S
C568 C570 1.358 . S
C568 H609 0.930 . S
C569 C567 1.353 . S
C569 N571 1.314 . S
C569 H610 0.930 . S
C570 C568 1.358 . S
C570 N571 1.279 . S
C570 H611 0.930 . S
N571 C569 1.314 . S
N571 C570 1.279 . S
C572 C574 1.353 . S
C572 N575 1.314 . S
C572 H578 0.930 . S
C573 N575 1.279 . S
C573 C576 1.358 . S
C573 H579 0.930 . S
C574 C572 1.353 . S
C574 C577 1.348 . S
C574 H612 0.929 . S
N575 Li530 1.990 . S
N575 C572 1.314 . S
N575 C573 1.279 . S
C576 C573 1.358 . S
C576 C577 1.356 . S
C576 H613 0.930 . S
C577 C574 1.348 . S
C577 C576 1.356 . S
H578 C572 0.930 . S
H579 C573 0.930 . S
C580 N581 1.314 . S
C580 C582 1.353 . S
C580 H586 0.930 . S
N581 Li531 1.990 . S
N581 C580 1.314 . S
N581 C584 1.279 . S
C582 C580 1.353 . S
C582 C585 1.348 . S
C582 H614 0.929 . S
C583 C584 1.358 . S
C583 C585 1.356 . S
C583 H615 0.930 . S
C584 N581 1.279 . S
C584 C583 1.358 . S
C584 H587 0.930 . S
C585 C582 1.348 . S
C585 C583 1.356 . S
H586 C580 0.930 . S
H587 C584 0.930 . S
O588 Li528 1.956 . S
O588 Li529 1.970 . S
O588 Li530 1.961 . S
O588 C532 1.325 . S
O589 Li528 1.970 . S
O589 Li529 1.956 . S
O589 Li531 1.961 . S
O589 C538 1.325 . S
O590 Li528 1.961 . S
O590 Li530 1.956 . S
O590 Li531 1.970 . S
O590 C560 1.325 . S
O591 Li529 1.961 . S
O591 Li530 1.970 . S
O591 Li531 1.956 . S
O591 C566 1.325 . S
H592 C534 0.929 . S
H593 C535 0.930 . S
H594 C536 0.930 . S
H595 C537 0.930 . S
H596 C539 0.930 . S
H597 C541 0.929 . S
H598 C542 0.930 . S
H599 C543 0.930 . S
H600 C546 0.930 . S
H601 C549 0.929 . S
H602 C554 0.929 . S
H603 C555 0.930 . S
H604 C562 0.929 . S
H605 C563 0.930 . S
H606 C564 0.930 . S
H607 C565 0.930 . S
H608 C567 0.929 . S
H609 C568 0.930 . S
H610 C569 0.930 . S
H611 C570 0.930 . S
H612 C574 0.929 . S
H613 C576 0.930 . S
H614 C582 0.929 . S
H615 C583 0.930 . S
Li616 N633 1.990 . S
Li616 O676 1.971 . S
Li616 O677 1.970 . S
Li616 O678 1.961 . S
Li617 N641 1.990 1_455 S
Li617 O676 1.973 . S
Li617 O677 1.956 . S
Li617 O679 1.961 . S
Li618 N663 1.990 . S
Li618 O676 1.980 . S
Li618 O678 1.956 . S
Li618 O679 1.970 . S
Li619 N669 1.990 . S
Li619 O677 1.961 . S
Li619 O678 1.970 . S
Li619 O679 1.956 . S
C620 C622 1.348 . S
C620 C623 1.356 . S
C620 O676 1.307 1_655 S
N621 C624 1.314 . S
N621 C625 1.279 . S
C622 C620 1.348 . S
C622 C624 1.353 . S
C622 H680 0.929 . S
C623 C620 1.356 . S
C623 C625 1.358 . S
C623 H681 0.974 . S
C624 N621 1.314 . S
C624 C622 1.353 . S
C624 H682 0.930 . S
C625 N621 1.279 . S
C625 C623 1.358 . S
C625 H683 0.930 . S
C626 C629 1.348 . S
C626 C630 1.356 . S
C626 O677 1.325 . S
C627 N628 1.279 . S
C627 C630 1.358 . S
C627 H684 0.930 . S
N628 C627 1.279 . S
N628 C631 1.314 . S
C629 C626 1.348 . S
C629 C631 1.353 . S
C629 H685 0.929 . S
C630 C626 1.356 . S
C630 C627 1.358 . S
C630 H686 0.930 . S
C631 N628 1.314 . S
C631 C629 1.353 . S
C631 H687 0.930 . S
C632 N633 1.314 . S
C632 C637 1.353 . S
C632 H638 0.930 . S
N633 Li616 1.990 . S
N633 C632 1.314 . S
N633 C635 1.279 . S
C634 C635 1.358 . S
C634 C636 1.356 . S
C634 H688 0.930 . S
C635 N633 1.279 . S
C635 C634 1.358 . S
C635 H639 0.951 . S
C636 C634 1.356 . S
C636 C637 1.348 . S
C637 C632 1.353 . S
C637 C636 1.348 . S
C637 H689 0.929 . S
H638 C632 0.930 . S
H639 C635 0.951 . S
C640 N641 1.314 . S
C640 C642 1.353 . S
C640 H646 0.930 . S
N641 Li617 1.990 1_655 S
N641 C640 1.314 . S
N641 C644 1.279 . S
C642 C640 1.353 . S
C642 C645 1.348 . S
C642 H690 0.929 . S
C643 C644 1.358 . S
C643 C645 1.356 . S
C643 H691 0.930 . S
C644 N641 1.279 . S
C644 C643 1.358 . S
C644 H647 0.930 . S
C645 C642 1.348 . S
C645 C643 1.356 . S
H646 C640 0.930 . S
H647 C644 0.930 . S
C648 C650 1.348 . S
C648 C651 1.356 . S
C648 O678 1.325 . S
N649 C652 1.314 . S
N649 C653 1.279 . S
C650 C648 1.348 . S
C650 C652 1.353 . S
C650 H692 0.929 . S
C651 C648 1.356 . S
C651 C653 1.358 . S
C651 H693 0.930 . S
C652 N649 1.314 . S
C652 C650 1.353 . S
C652 H694 0.930 . S
C653 N649 1.279 . S
C653 C651 1.358 . S
C653 H695 0.930 . S
C654 C655 1.348 . S
C654 C656 1.356 . S
C654 O679 1.325 . S
C655 C654 1.348 . S
C655 C657 1.353 . S
C655 H696 0.929 . S
C656 C654 1.356 . S
C656 C658 1.358 . S
C656 H697 0.930 . S
C657 C655 1.353 . S
C657 N659 1.314 . S
C657 H698 0.930 . S
C658 C656 1.358 . S
C658 N659 1.279 . S
C658 H699 0.930 . S
N659 C657 1.314 . S
N659 C658 1.279 . S
C660 C662 1.354 1_455 S
C660 N663 1.314 . S
C660 H666 0.930 1_455 S
C661 N663 1.279 . S
C661 C664 1.358 . S
C661 H667 0.930 . S
C662 C660 1.354 1_655 S
C662 C665 1.322 1_655 S
C662 H700 0.955 . S
N663 Li618 1.990 . S
N663 C660 1.314 . S
N663 C661 1.279 . S
C664 C661 1.358 . S
C664 C665 1.356 . S
C664 H701 0.930 . S
C665 C662 1.322 1_455 S
C665 C664 1.356 . S
H666 C660 0.930 1_655 S
H667 C661 0.930 . S
C668 N669 1.314 . S
C668 C670 1.353 . S
C668 H674 0.930 . S
N669 Li619 1.990 . S
N669 C668 1.314 . S
N669 C672 1.279 . S
C670 C668 1.353 . S
C670 C673 1.348 . S
C670 H702 0.929 . S
C671 C672 1.358 . S
C671 C673 1.356 . S
C671 H703 0.930 . S
C672 N669 1.279 . S
C672 C671 1.358 . S
C672 H675 0.930 . S
C673 C670 1.348 . S
C673 C671 1.356 . S
H674 C668 0.930 . S
H675 C672 0.930 . S
O676 Li616 1.971 . S
O676 Li617 1.973 . S
O676 Li618 1.980 . S
O676 C620 1.307 1_455 S
O677 Li616 1.970 . S
O677 Li617 1.956 . S
O677 Li619 1.961 . S
O677 C626 1.325 . S
O678 Li616 1.961 . S
O678 Li618 1.956 . S
O678 Li619 1.970 . S
O678 C648 1.325 . S
O679 Li617 1.961 . S
O679 Li618 1.970 . S
O679 Li619 1.956 . S
O679 C654 1.325 . S
H680 C622 0.929 . S
H681 C623 0.974 . S
H682 C624 0.930 . S
H683 C625 0.930 . S
H684 C627 0.930 . S
H685 C629 0.929 . S
H686 C630 0.930 . S
H687 C631 0.930 . S
H688 C634 0.930 . S
H689 C637 0.929 . S
H690 C642 0.929 . S
H691 C643 0.930 . S
H692 C650 0.929 . S
H693 C651 0.930 . S
H694 C652 0.930 . S
H695 C653 0.930 . S
H696 C655 0.929 . S
H697 C656 0.930 . S
H698 C657 0.930 . S
H699 C658 0.930 . S
H700 C662 0.955 . S
H701 C664 0.930 . S
H702 C670 0.929 . S
H703 C671 0.930 . S
Li704 N721 1.990 . S
Li704 O764 1.956 . S
Li704 O765 1.970 . S
Li704 O766 1.961 . S
Li705 N729 1.990 1_545 S
Li705 O764 1.970 . S
Li705 O765 1.956 . S
Li705 O767 1.961 . S
Li706 N751 1.990 . S
Li706 O764 1.961 . S
Li706 O766 1.956 . S
Li706 O767 1.970 . S
Li707 N757 1.990 . S
Li707 O765 1.961 . S
Li707 O766 1.970 . S
Li707 O767 1.956 . S
C708 C710 1.348 1_545 S
C708 C711 1.356 . S
C708 O764 1.325 . S
N709 C712 1.314 . S
N709 C713 1.279 . S
C710 C708 1.348 1_565 S
C710 C712 1.353 . S
C710 H768 0.929 . S
C711 C708 1.356 . S
C711 C713 1.358 1_545 S
C711 H769 0.930 . S
C712 N709 1.314 . S
C712 C710 1.353 . S
C712 H770 0.930 . S
C713 N709 1.279 . S
C713 C711 1.358 1_565 S
C713 H771 0.934 . S
C714 C717 1.348 . S
C714 C718 1.356 . S
C714 O765 1.325 . S
C715 N716 1.279 . S
C715 C718 1.358 . S
C715 H772 0.930 . S
N716 C715 1.279 . S
N716 C719 1.314 . S
C717 C714 1.348 . S
C717 C719 1.353 . S
C717 H773 0.929 . S
C718 C714 1.356 . S
C718 C715 1.358 . S
C718 H774 0.930 . S
C719 N716 1.314 . S
C719 C717 1.353 . S
C719 H775 0.930 . S
C720 N721 1.314 . S
C720 C725 1.353 . S
C720 H726 0.930 . S
N721 Li704 1.990 . S
N721 C720 1.314 . S
N721 C723 1.279 . S
C722 C723 1.358 . S
C722 C724 1.356 . S
C722 H776 0.930 . S
C723 N721 1.279 . S
C723 C722 1.358 . S
C723 H727 0.930 . S
C724 C722 1.356 . S
C724 C725 1.348 . S
C725 C720 1.353 . S
C725 C724 1.348 . S
C725 H777 0.929 . S
H726 C720 0.930 . S
H727 C723 0.930 . S
C728 N729 1.314 . S
C728 C730 1.353 . S
C728 H734 0.930 . S
N729 Li705 1.990 1_565 S
N729 C728 1.314 . S
N729 C732 1.279 . S
C730 C728 1.353 . S
C730 C733 1.348 . S
C730 H778 0.929 . S
C731 C732 1.358 . S
C731 C733 1.356 . S
C731 H779 0.930 . S
C732 N729 1.279 . S
C732 C731 1.358 . S
C732 H735 0.930 . S
C733 C730 1.348 . S
C733 C731 1.356 . S
H734 C728 0.930 . S
H735 C732 0.930 . S
C736 C738 1.348 . S
C736 C739 1.356 . S
C736 O766 1.325 . S
N737 C740 1.314 . S
N737 C741 1.279 . S
C738 C736 1.348 . S
C738 C740 1.353 . S
C738 H780 0.929 . S
C739 C736 1.356 . S
C739 C741 1.358 . S
C739 H781 0.930 . S
C740 N737 1.314 . S
C740 C738 1.353 . S
C740 H782 0.930 . S
C741 N737 1.279 . S
C741 C739 1.358 . S
C741 H783 0.930 . S
C742 C743 1.348 . S
C742 C744 1.356 . S
C742 O767 1.325 . S
C743 C742 1.348 . S
C743 C745 1.353 . S
C743 H784 0.929 . S
C744 C742 1.356 . S
C744 C746 1.358 . S
C744 H785 0.930 . S
C745 C743 1.353 . S
C745 N747 1.314 . S
C745 H786 0.930 . S
C746 C744 1.358 . S
C746 N747 1.279 . S
C746 H787 0.930 . S
N747 C745 1.314 . S
N747 C746 1.279 . S
C748 C750 1.353 . S
C748 N751 1.314 . S
C748 H754 0.930 . S
C749 N751 1.279 . S
C749 C752 1.358 . S
C749 H755 0.930 . S
C750 C748 1.353 . S
C750 C753 1.348 . S
C750 H788 0.929 . S
N751 Li706 1.990 . S
N751 C748 1.314 . S
N751 C749 1.279 . S
C752 C749 1.358 . S
C752 C753 1.356 . S
C752 H789 0.930 . S
C753 C750 1.348 . S
C753 C752 1.356 . S
H754 C748 0.930 . S
H755 C749 0.930 . S
C756 N757 1.314 . S
C756 C758 1.353 . S
C756 H762 0.930 . S
N757 Li707 1.990 . S
N757 C756 1.314 . S
N757 C760 1.279 . S
C758 C756 1.353 . S
C758 C761 1.348 . S
C758 H790 0.929 . S
C759 C760 1.358 . S
C759 C761 1.356 . S
C759 H791 0.930 . S
C760 N757 1.279 . S
C760 C759 1.358 . S
C760 H763 0.930 . S
C761 C758 1.348 . S
C761 C759 1.356 . S
H762 C756 0.930 . S
H763 C760 0.930 . S
O764 Li704 1.956 . S
O764 Li705 1.970 . S
O764 Li706 1.961 . S
O764 C708 1.325 . S
O765 Li704 1.970 . S
O765 Li705 1.956 . S
O765 Li707 1.961 . S
O765 C714 1.325 . S
O766 Li704 1.961 . S
O766 Li706 1.956 . S
O766 Li707 1.970 . S
O766 C736 1.325 . S
O767 Li705 1.961 . S
O767 Li706 1.970 . S
O767 Li707 1.956 . S
O767 C742 1.325 . S
H768 C710 0.929 . S
H769 C711 0.930 . S
H770 C712 0.930 . S
H771 C713 0.934 . S
H772 C715 0.930 . S
H773 C717 0.929 . S
H774 C718 0.930 . S
H775 C719 0.930 . S
H776 C722 0.930 . S
H777 C725 0.929 . S
H778 C730 0.929 . S
H779 C731 0.930 . S
H780 C738 0.929 . S
H781 C739 0.930 . S
H782 C740 0.930 . S
H783 C741 0.930 . S
H784 C743 0.929 . S
H785 C744 0.930 . S
H786 C745 0.930 . S
H787 C746 0.930 . S
H788 C750 0.929 . S
H789 C752 0.930 . S
H790 C758 0.929 . S
H791 C759 0.930 . S
Li792 N809 1.990 . S
Li792 O852 1.956 . S
Li792 O853 1.970 . S
Li792 O854 1.961 . S
Li793 N817 1.990 . S
Li793 O852 1.970 . S
Li793 O853 1.956 . S
Li793 O855 1.961 . S
Li794 N839 1.990 . S
Li794 O852 1.961 . S
Li794 O854 1.956 . S
Li794 O855 1.970 . S
Li795 N845 1.990 . S
Li795 O853 1.961 . S
Li795 O854 1.970 . S
Li795 O855 1.956 . S
C796 C798 1.348 . S
C796 C799 1.356 . S
C796 O852 1.325 . S
N797 C800 1.314 . S
N797 C801 1.279 . S
C798 C796 1.348 . S
C798 C800 1.353 . S
C798 H856 0.929 . S
C799 C796 1.356 . S
C799 C801 1.358 . S
C799 H857 0.930 . S
C800 N797 1.314 . S
C800 C798 1.353 . S
C800 H858 0.930 . S
C801 N797 1.279 . S
C801 C799 1.358 . S
C801 H859 0.930 . S
C802 C805 1.348 . S
C802 C806 1.356 . S
C802 O853 1.325 . S
C803 N804 1.279 . S
C803 C806 1.358 . S
C803 H860 0.930 . S
N804 C803 1.279 . S
N804 C807 1.314 . S
C805 C802 1.348 . S
C805 C807 1.353 . S
C805 H861 0.929 . S
C806 C802 1.356 . S
C806 C803 1.358 . S
C806 H862 0.930 . S
C807 N804 1.314 . S
C807 C805 1.353 . S
C807 H863 0.930 . S
C808 N809 1.314 . S
C808 C813 1.353 . S
C808 H814 0.930 . S
N809 Li792 1.990 . S
N809 C808 1.314 . S
N809 C811 1.279 . S
C810 C811 1.358 . S
C810 C812 1.356 . S
C810 H864 0.930 . S
C811 N809 1.279 . S
C811 C810 1.358 . S
C811 H815 0.930 . S
C812 C810 1.356 . S
C812 C813 1.348 . S
C813 C808 1.353 . S
C813 C812 1.348 . S
C813 H865 0.929 . S
H814 C808 0.930 . S
H815 C811 0.930 . S
C816 N817 1.314 . S
C816 C818 1.353 . S
C816 H822 0.930 . S
N817 Li793 1.990 . S
N817 C816 1.314 . S
N817 C820 1.279 . S
C818 C816 1.353 . S
C818 C821 1.348 . S
C818 H866 0.929 . S
C819 C820 1.358 . S
C819 C821 1.356 . S
C819 H867 0.930 . S
C820 N817 1.279 . S
C820 C819 1.358 . S
C820 H823 0.930 . S
C821 C818 1.348 . S
C821 C819 1.356 . S
H822 C816 0.930 . S
H823 C820 0.930 . S
C824 C826 1.348 . S
C824 C827 1.356 . S
C824 O854 1.325 . S
N825 C828 1.314 . S
N825 C829 1.279 . S
C826 C824 1.348 . S
C826 C828 1.353 . S
C826 H868 0.929 . S
C827 C824 1.356 . S
C827 C829 1.358 . S
C827 H869 0.930 . S
C828 N825 1.314 . S
C828 C826 1.353 . S
C828 H870 0.930 . S
C829 N825 1.279 . S
C829 C827 1.358 . S
C829 H871 0.930 . S
C830 C831 1.348 . S
C830 C832 1.356 . S
C830 O855 1.325 . S
C831 C830 1.348 . S
C831 C833 1.353 . S
C831 H872 0.929 . S
C832 C830 1.356 . S
C832 C834 1.358 . S
C832 H873 0.930 . S
C833 C831 1.353 . S
C833 N835 1.314 . S
C833 H874 0.930 . S
C834 C832 1.358 . S
C834 N835 1.279 . S
C834 H875 0.930 . S
N835 C833 1.314 . S
N835 C834 1.279 . S
C836 C838 1.353 . S
C836 N839 1.314 . S
C836 H842 0.930 . S
C837 N839 1.279 . S
C837 C840 1.358 . S
C837 H843 0.930 . S
C838 C836 1.353 . S
C838 C841 1.348 . S
C838 H876 0.929 . S
N839 Li794 1.990 . S
N839 C836 1.314 . S
N839 C837 1.279 . S
C840 C837 1.358 . S
C840 C841 1.356 . S
C840 H877 0.930 . S
C841 C838 1.348 . S
C841 C840 1.356 . S
H842 C836 0.930 . S
H843 C837 0.930 . S
C844 N845 1.314 . S
C844 C846 1.353 . S
C844 H850 0.930 . S
N845 Li795 1.990 . S
N845 C844 1.314 . S
N845 C848 1.279 . S
C846 C844 1.353 . S
C846 C849 1.348 . S
C846 H878 0.929 . S
C847 C848 1.358 . S
C847 C849 1.356 . S
C847 H879 0.930 . S
C848 N845 1.279 . S
C848 C847 1.358 . S
C848 H851 0.930 . S
C849 C846 1.348 . S
C849 C847 1.356 . S
H850 C844 0.930 . S
H851 C848 0.930 . S
O852 Li792 1.956 . S
O852 Li793 1.970 . S
O852 Li794 1.961 . S
O852 C796 1.325 . S
O853 Li792 1.970 . S
O853 Li793 1.956 . S
O853 Li795 1.961 . S
O853 C802 1.325 . S
O854 Li792 1.961 . S
O854 Li794 1.956 . S
O854 Li795 1.970 . S
O854 C824 1.325 . S
O855 Li793 1.961 . S
O855 Li794 1.970 . S
O855 Li795 1.956 . S
O855 C830 1.325 . S
H856 C798 0.929 . S
H857 C799 0.930 . S
H858 C800 0.930 . S
H859 C801 0.930 . S
H860 C803 0.930 . S
H861 C805 0.929 . S
H862 C806 0.930 . S
H863 C807 0.930 . S
H864 C810 0.930 . S
H865 C813 0.929 . S
H866 C818 0.929 . S
H867 C819 0.930 . S
H868 C826 0.929 . S
H869 C827 0.930 . S
H870 C828 0.930 . S
H871 C829 0.930 . S
H872 C831 0.929 . S
H873 C832 0.930 . S
H874 C833 0.930 . S
H875 C834 0.930 . S
H876 C838 0.929 . S
H877 C840 0.930 . S
H878 C846 0.929 . S
H879 C847 0.930 . S
Li880 N897 1.990 . S
Li880 O940 1.956 . S
Li880 O941 1.970 . S
Li880 O942 1.983 . S
Li881 N905 1.990 . S
Li881 O940 1.967 . S
Li881 O941 1.975 . S
Li881 O943 1.944 1_545 S
Li882 N927 1.990 . S
Li882 O940 1.961 1_565 S
Li882 O942 1.927 1_565 S
Li882 O943 1.970 . S
Li883 N933 1.990 . S
Li883 O941 1.961 1_565 S
Li883 O942 1.972 1_565 S
Li883 O943 1.956 . S
C884 C886 1.348 . S
C884 C887 1.356 . S
C884 O940 1.325 . S
N885 C888 1.314 . S
N885 C889 1.279 . S
C886 C884 1.348 . S
C886 C888 1.353 . S
C886 H944 0.929 . S
C887 C884 1.356 . S
C887 C889 1.358 . S
C887 H945 0.930 . S
C888 N885 1.314 . S
C888 C886 1.353 . S
C888 H946 0.930 . S
C889 N885 1.279 . S
C889 C887 1.358 . S
C889 H947 0.930 . S
C890 C893 1.348 . S
C890 C894 1.356 . S
C890 O941 1.325 . S
C891 N892 1.279 . S
C891 C894 1.358 . S
C891 H948 0.930 . S
N892 C891 1.279 . S
N892 C895 1.314 . S
C893 C890 1.348 . S
C893 C895 1.353 . S
C893 H949 0.929 . S
C894 C890 1.356 . S
C894 C891 1.358 . S
C894 H950 0.930 . S
C895 N892 1.314 . S
C895 C893 1.353 . S
C895 H951 0.930 . S
C896 N897 1.314 . S
C896 C901 1.353 . S
C896 H902 0.930 . S
N897 Li880 1.990 . S
N897 C896 1.314 . S
N897 C899 1.279 . S
C898 C899 1.358 . S
C898 C900 1.356 . S
C898 H952 0.930 . S
C899 N897 1.279 . S
C899 C898 1.358 . S
C899 H903 0.930 . S
C900 C898 1.356 . S
C900 C901 1.348 . S
C901 C896 1.353 . S
C901 C900 1.348 . S
C901 H953 0.929 . S
H902 C896 0.930 . S
H903 C899 0.930 . S
C904 N905 1.296 1_565 S
C904 C906 1.353 . S
C904 H910 0.930 . S
N905 Li881 1.990 . S
N905 C904 1.296 1_545 S
N905 C908 1.297 . S
C906 C904 1.353 . S
C906 C909 1.350 . S
C906 H954 0.929 . S
C907 C908 1.358 . S
C907 C909 1.354 1_545 S
C907 H955 0.930 . S
C908 N905 1.297 . S
C908 C907 1.358 . S
C908 H911 0.930 . S
C909 C906 1.350 . S
C909 C907 1.354 1_565 S
H910 C904 0.930 . S
H911 C908 0.930 . S
C912 C914 1.345 1_545 S
C912 C915 1.357 . S
C912 O942 1.325 . S
N913 C916 1.320 . S
N913 C917 1.275 1_565 S
C914 C912 1.345 1_565 S
C914 C916 1.353 . S
C914 H956 0.929 . S
C915 C912 1.357 . S
C915 C917 1.358 . S
C915 H957 0.930 . S
C916 N913 1.320 . S
C916 C914 1.353 . S
C916 H958 0.930 . S
C917 N913 1.275 1_545 S
C917 C915 1.358 . S
C917 H959 0.930 . S
C918 C919 1.348 . S
C918 C920 1.356 . S
C918 O943 1.325 . S
C919 C918 1.348 . S
C919 C921 1.353 . S
C919 H960 0.929 . S
C920 C918 1.356 . S
C920 C922 1.358 . S
C920 H961 0.930 . S
C921 C919 1.353 . S
C921 N923 1.314 . S
C921 H962 0.930 . S
C922 C920 1.358 . S
C922 N923 1.279 . S
C922 H963 0.930 . S
N923 C921 1.314 . S
N923 C922 1.279 . S
C924 C926 1.353 . S
C924 N927 1.314 . S
C924 H930 0.930 . S
C925 N927 1.279 . S
C925 C928 1.358 . S
C925 H931 0.930 . S
C926 C924 1.353 . S
C926 C929 1.348 . S
C926 H964 0.929 . S
N927 Li882 1.990 . S
N927 C924 1.314 . S
N927 C925 1.279 . S
C928 C925 1.358 . S
C928 C929 1.356 . S
C928 H965 0.930 . S
C929 C926 1.348 . S
C929 C928 1.356 . S
H930 C924 0.930 . S
H931 C925 0.930 . S
C932 N933 1.314 1_545 S
C932 C934 1.353 . S
C932 H938 0.930 . S
N933 Li883 1.990 . S
N933 C932 1.314 1_565 S
N933 C936 1.279 . S
C934 C932 1.353 . S
C934 C937 1.348 1_545 S
C934 H966 0.929 . S
C935 C936 1.358 . S
C935 C937 1.356 . S
C935 H967 0.930 . S
C936 N933 1.279 . S
C936 C935 1.358 . S
C936 H939 0.930 . S
C937 C934 1.348 1_565 S
C937 C935 1.356 . S
H938 C932 0.930 . S
H939 C936 0.930 . S
O940 Li880 1.956 . S
O940 Li881 1.967 . S
O940 Li882 1.961 1_545 S
O940 C884 1.325 . S
O941 Li880 1.970 . S
O941 Li881 1.975 . S
O941 Li883 1.961 1_545 S
O941 C890 1.325 . S
O942 Li880 1.983 . S
O942 Li882 1.927 1_545 S
O942 Li883 1.972 1_545 S
O942 C912 1.325 . S
O943 Li881 1.944 1_565 S
O943 Li882 1.970 . S
O943 Li883 1.956 . S
O943 C918 1.325 . S
H944 C886 0.929 . S
H945 C887 0.930 . S
H946 C888 0.930 . S
H947 C889 0.930 . S
H948 C891 0.930 . S
H949 C893 0.929 . S
H950 C894 0.930 . S
H951 C895 0.930 . S
H952 C898 0.930 . S
H953 C901 0.929 . S
H954 C906 0.929 . S
H955 C907 0.930 . S
H956 C914 0.929 . S
H957 C915 0.930 . S
H958 C916 0.930 . S
H959 C917 0.930 . S
H960 C919 0.929 . S
H961 C920 0.930 . S
H962 C921 0.930 . S
H963 C922 0.930 . S
H964 C926 0.929 . S
H965 C928 0.930 . S
H966 C934 0.929 . S
H967 C935 0.930 . S
Li968 N985 1.990 . S
Li968 O1028 1.956 . S
Li968 O1029 1.970 . S
Li968 O1030 1.961 . S
Li969 N993 1.990 . S
Li969 O1028 1.970 . S
Li969 O1029 1.956 . S
Li969 O1031 1.961 . S
Li970 N1015 1.990 . S
Li970 O1028 1.961 . S
Li970 O1030 1.956 . S
Li970 O1031 1.970 . S
Li971 N1021 1.936 1_554 S
Li971 O1029 2.011 . S
Li971 O1030 1.961 . S
Li971 O1031 2.006 . S
C972 C974 1.348 . S
C972 C975 1.356 . S
C972 O1028 1.325 . S
N973 C976 1.314 . S
N973 C977 1.279 . S
C974 C972 1.348 . S
C974 C976 1.353 . S
C974 H1032 0.929 . S
C975 C972 1.356 . S
C975 C977 1.358 . S
C975 H1033 0.930 . S
C976 N973 1.314 . S
C976 C974 1.353 . S
C976 H1034 0.930 . S
C977 N973 1.279 . S
C977 C975 1.358 . S
C977 H1035 0.930 . S
C978 C981 1.348 . S
C978 C982 1.356 . S
C978 O1029 1.325 . S
C979 N980 1.279 . S
C979 C982 1.358 . S
C979 H1036 0.930 . S
N980 C979 1.279 . S
N980 C983 1.314 . S
C981 C978 1.348 . S
C981 C983 1.353 . S
C981 H1037 0.929 . S
C982 C978 1.356 . S
C982 C979 1.358 . S
C982 H1038 0.930 . S
C983 N980 1.314 . S
C983 C981 1.353 . S
C983 H1039 0.930 . S
C984 N985 1.314 . S
C984 C989 1.353 . S
C984 H990 0.930 1_554 S
N985 Li968 1.990 . S
N985 C984 1.314 . S
N985 C987 1.279 . S
C986 C987 1.358 . S
C986 C988 1.356 . S
C986 H1040 0.930 . S
C987 N985 1.279 . S
C987 C986 1.358 . S
C987 H991 0.930 . S
C988 C986 1.356 . S
C988 C989 1.348 . S
C989 C984 1.353 . S
C989 C988 1.348 . S
C989 H1041 0.929 1_554 S
H990 C984 0.930 1_556 S
H991 C987 0.930 . S
C992 N993 1.314 . S
C992 C994 1.353 . S
C992 H998 0.930 . S
N993 Li969 1.990 . S
N993 C992 1.314 . S
N993 C996 1.279 . S
C994 C992 1.353 . S
C994 C997 1.348 . S
C994 H1042 0.929 . S
C995 C996 1.358 . S
C995 C997 1.356 . S
C995 H1043 0.930 . S
C996 N993 1.279 . S
C996 C995 1.358 . S
C996 H999 0.930 . S
C997 C994 1.348 . S
C997 C995 1.356 . S
H998 C992 0.930 . S
H999 C996 0.930 . S
C1000 C1002 1.348 . S
C1000 C1003 1.356 . S
C1000 O1030 1.325 1_556 S
N1001 C1004 1.314 . S
N1001 C1005 1.279 . S
C1002 C1000 1.348 . S
C1002 C1004 1.353 . S
C1002 H1044 0.929 . S
C1003 C1000 1.356 . S
C1003 C1005 1.358 . S
C1003 H1045 0.930 1_556 S
C1004 N1001 1.314 . S
C1004 C1002 1.353 . S
C1004 H1046 0.930 . S
C1005 N1001 1.279 . S
C1005 C1003 1.358 . S
C1005 H1047 0.930 . S
C1006 C1007 1.348 . S
C1006 C1008 1.356 . S
C1006 O1031 1.325 . S
C1007 C1006 1.348 . S
C1007 C1009 1.353 . S
C1007 H1048 0.929 . S
C1008 C1006 1.356 . S
C1008 C1010 1.358 . S
C1008 H1049 0.930 . S
C1009 C1007 1.353 . S
C1009 N1011 1.314 . S
C1009 H1050 0.930 . S
C1010 C1008 1.358 . S
C1010 N1011 1.279 . S
C1010 H1051 0.930 . S
N1011 C1009 1.314 . S
N1011 C1010 1.279 . S
C1012 C1014 1.353 . S
C1012 N1015 1.314 . S
C1012 H1018 0.930 . S
C1013 N1015 1.279 . S
C1013 C1016 1.358 . S
C1013 H1019 0.988 . S
C1014 C1012 1.353 . S
C1014 C1017 1.348 . S
C1014 H1052 0.929 . S
N1015 Li970 1.990 . S
N1015 C1012 1.314 . S
N1015 C1013 1.279 . S
C1016 C1013 1.358 . S
C1016 C1017 1.356 . S
C1016 H1053 0.930 . S
C1017 C1014 1.348 . S
C1017 C1016 1.356 . S
H1018 C1012 0.930 . S
H1019 C1013 0.988 . S
C1020 N1021 1.314 . S
C1020 C1022 1.353 . S
C1020 H1026 0.930 . S
N1021 Li971 1.936 1_556 S
N1021 C1020 1.314 . S
N1021 C1024 1.279 . S
C1022 C1020 1.353 . S
C1022 C1025 1.348 . S
C1022 H1054 0.929 . S
C1023 C1024 1.358 . S
C1023 C1025 1.356 . S
C1023 H1055 0.930 . S
C1024 N1021 1.279 . S
C1024 C1023 1.358 . S
C1024 H1027 0.930 . S
C1025 C1022 1.348 . S
C1025 C1023 1.356 . S
H1026 C1020 0.930 . S
H1027 C1024 0.930 . S
O1028 Li968 1.956 . S
O1028 Li969 1.970 . S
O1028 Li970 1.961 . S
O1028 C972 1.325 . S
O1029 Li968 1.970 . S
O1029 Li969 1.956 . S
O1029 Li971 2.011 . S
O1029 C978 1.325 . S
O1030 Li968 1.961 . S
O1030 Li970 1.956 . S
O1030 Li971 1.961 . S
O1030 C1000 1.325 1_554 S
O1031 Li969 1.961 . S
O1031 Li970 1.970 . S
O1031 Li971 2.006 . S
O1031 C1006 1.325 . S
H1032 C974 0.929 . S
H1033 C975 0.930 . S
H1034 C976 0.930 . S
H1035 C977 0.930 . S
H1036 C979 0.930 . S
H1037 C981 0.929 . S
H1038 C982 0.930 . S
H1039 C983 0.930 . S
H1040 C986 0.930 . S
H1041 C989 0.929 1_556 S
H1042 C994 0.929 . S
H1043 C995 0.930 . S
H1044 C1002 0.929 . S
H1045 C1003 0.930 1_554 S
H1046 C1004 0.930 . S
H1047 C1005 0.930 . S
H1048 C1007 0.929 . S
H1049 C1008 0.930 . S
H1050 C1009 0.930 . S
H1051 C1010 0.930 . S
H1052 C1014 0.929 . S
H1053 C1016 0.930 . S
H1054 C1022 0.929 . S
H1055 C1023 0.930 . S
Li1056 N1073 1.990 . S
Li1056 O1116 1.956 . S
Li1056 O1117 1.970 . S
Li1056 O1118 1.961 . S
Li1057 N1081 1.990 . S
Li1057 O1116 1.970 . S
Li1057 O1117 1.956 . S
Li1057 O1119 1.961 . S
Li1058 N1103 1.990 . S
Li1058 O1116 1.961 . S
Li1058 O1118 1.956 . S
Li1058 O1119 1.970 . S
Li1059 N1109 1.990 1_554 S
Li1059 O1117 1.961 . S
Li1059 O1118 1.970 . S
Li1059 O1119 1.956 . S
C1060 C1062 1.348 . S
C1060 C1063 1.356 . S
C1060 O1116 1.325 . S
N1061 C1064 1.314 . S
N1061 C1065 1.279 . S
C1062 C1060 1.348 . S
C1062 C1064 1.353 . S
C1062 H1120 0.929 . S
C1063 C1060 1.356 . S
C1063 C1065 1.358 . S
C1063 H1121 0.930 . S
C1064 N1061 1.314 . S
C1064 C1062 1.353 . S
C1064 H1122 0.930 . S
C1065 N1061 1.279 . S
C1065 C1063 1.358 . S
C1065 H1123 0.930 . S
C1066 C1069 1.348 . S
C1066 C1070 1.356 . S
C1066 O1117 1.325 . S
C1067 N1068 1.279 . S
C1067 C1070 1.358 . S
C1067 H1124 0.930 . S
N1068 C1067 1.279 . S
N1068 C1071 1.314 . S
C1069 C1066 1.348 . S
C1069 C1071 1.353 . S
C1069 H1125 0.929 . S
C1070 C1066 1.356 . S
C1070 C1067 1.358 . S
C1070 H1126 0.930 . S
C1071 N1068 1.314 . S
C1071 C1069 1.353 . S
C1071 H1127 0.930 . S
C1072 N1073 1.314 . S
C1072 C1077 1.353 . S
C1072 H1078 0.930 . S
N1073 Li1056 1.990 . S
N1073 C1072 1.314 . S
N1073 C1075 1.279 . S
C1074 C1075 1.358 . S
C1074 C1076 1.356 . S
C1074 H1128 0.930 . S
C1075 N1073 1.279 . S
C1075 C1074 1.358 . S
C1075 H1079 0.930 . S
C1076 C1074 1.356 . S
C1076 C1077 1.348 . S
C1077 C1072 1.353 . S
C1077 C1076 1.348 . S
C1077 H1129 0.929 . S
H1078 C1072 0.930 . S
H1079 C1075 0.930 . S
C1080 N1081 1.314 . S
C1080 C1082 1.353 . S
C1080 H1086 0.930 . S
N1081 Li1057 1.990 . S
N1081 C1080 1.314 . S
N1081 C1084 1.279 . S
C1082 C1080 1.353 . S
C1082 C1085 1.348 . S
C1082 H1130 0.929 . S
C1083 C1084 1.358 . S
C1083 C1085 1.356 . S
C1083 H1131 0.930 . S
C1084 N1081 1.279 . S
C1084 C1083 1.358 . S
C1084 H1087 0.930 . S
C1085 C1082 1.348 . S
C1085 C1083 1.356 . S
H1086 C1080 0.930 . S
H1087 C1084 0.930 . S
C1088 C1090 1.348 1_554 S
C1088 C1091 1.356 . S
C1088 O1118 1.325 . S
N1089 C1092 1.314 . S
N1089 C1093 1.347 . S
C1090 C1088 1.348 1_556 S
C1090 C1092 1.353 . S
C1090 H1132 0.929 . S
C1091 C1088 1.356 . S
C1091 C1093 1.296 1_554 S
C1091 H1133 0.930 . S
C1092 N1089 1.314 . S
C1092 C1090 1.353 . S
C1092 H1134 0.930 . S
C1093 N1089 1.347 . S
C1093 C1091 1.296 1_556 S
C1093 H1135 0.929 1_556 S
C1094 C1095 1.348 . S
C1094 C1096 1.356 . S
C1094 O1119 1.325 . S
C1095 C1094 1.348 . S
C1095 C1097 1.353 . S
C1095 H1136 0.929 . S
C1096 C1094 1.356 . S
C1096 C1098 1.358 . S
C1096 H1137 0.930 . S
C1097 C1095 1.353 . S
C1097 N1099 1.314 . S
C1097 H1138 0.930 . S
C1098 C1096 1.358 . S
C1098 N1099 1.279 . S
C1098 H1139 0.930 . S
N1099 C1097 1.314 . S
N1099 C1098 1.279 . S
C1100 C1102 1.353 . S
C1100 N1103 1.314 . S
C1100 H1106 0.930 . S
C1101 N1103 1.279 . S
C1101 C1104 1.358 . S
C1101 H1107 0.930 . S
C1102 C1100 1.353 . S
C1102 C1105 1.348 . S
C1102 H1140 0.929 . S
N1103 Li1058 1.990 . S
N1103 C1100 1.314 . S
N1103 C1101 1.279 . S
C1104 C1101 1.358 . S
C1104 C1105 1.356 . S
C1104 H1141 0.930 . S
C1105 C1102 1.348 . S
C1105 C1104 1.356 . S
H1106 C1100 0.930 . S
H1107 C1101 0.930 . S
C1108 N1109 1.314 . S
C1108 C1110 1.353 . S
C1108 H1114 0.930 . S
N1109 Li1059 1.990 1_556 S
N1109 C1108 1.314 . S
N1109 C1112 1.279 . S
C1110 C1108 1.353 . S
C1110 C1113 1.348 . S
C1110 H1142 0.929 . S
C1111 C1112 1.358 . S
C1111 C1113 1.356 . S
C1111 H1143 0.930 . S
C1112 N1109 1.279 . S
C1112 C1111 1.358 . S
C1112 H1115 0.930 . S
C1113 C1110 1.348 . S
C1113 C1111 1.356 . S
H1114 C1108 0.930 . S
H1115 C1112 0.930 . S
O1116 Li1056 1.956 . S
O1116 Li1057 1.970 . S
O1116 Li1058 1.961 . S
O1116 C1060 1.325 . S
O1117 Li1056 1.970 . S
O1117 Li1057 1.956 . S
O1117 Li1059 1.961 . S
O1117 C1066 1.325 . S
O1118 Li1056 1.961 . S
O1118 Li1058 1.956 . S
O1118 Li1059 1.970 . S
O1118 C1088 1.325 . S
O1119 Li1057 1.961 . S
O1119 Li1058 1.970 . S
O1119 Li1059 1.956 . S
O1119 C1094 1.325 . S
H1120 C1062 0.929 . S
H1121 C1063 0.930 . S
H1122 C1064 0.930 . S
H1123 C1065 0.930 . S
H1124 C1067 0.930 . S
H1125 C1069 0.929 . S
H1126 C1070 0.930 . S
H1127 C1071 0.930 . S
H1128 C1074 0.930 . S
H1129 C1077 0.929 . S
H1130 C1082 0.929 . S
H1131 C1083 0.930 . S
H1132 C1090 0.929 . S
H1133 C1091 0.930 . S
H1134 C1092 0.930 . S
H1135 C1093 0.929 1_554 S
H1136 C1095 0.929 . S
H1137 C1096 0.930 . S
H1138 C1097 0.930 . S
H1139 C1098 0.930 . S
H1140 C1102 0.929 . S
H1141 C1104 0.930 . S
H1142 C1110 0.929 . S
H1143 C1111 0.930 . S
Li1144 N1161 1.990 . S
Li1144 O1204 1.956 . S
Li1144 O1205 1.970 . S
Li1144 O1206 1.961 . S
Li1145 N1169 1.990 . S
Li1145 O1204 1.970 . S
Li1145 O1205 1.956 . S
Li1145 O1207 1.912 1_554 S
Li1146 N1191 1.990 1_554 S
Li1146 O1204 1.961 . S
Li1146 O1206 1.956 . S
Li1146 O1207 1.971 1_554 S
Li1147 N1197 1.990 . S
Li1147 O1205 1.961 . S
Li1147 O1206 1.970 . S
Li1147 O1207 1.907 1_554 S
C1148 C1150 1.348 . S
C1148 C1151 1.356 . S
C1148 O1204 1.325 . S
N1149 C1152 1.314 . S
N1149 C1153 1.279 . S
C1150 C1148 1.348 . S
C1150 C1152 1.353 . S
C1150 H1208 0.929 . S
C1151 C1148 1.356 . S
C1151 C1153 1.358 . S
C1151 H1209 0.930 . S
C1152 N1149 1.314 . S
C1152 C1150 1.353 . S
C1152 H1210 0.930 . S
C1153 N1149 1.279 . S
C1153 C1151 1.358 . S
C1153 H1211 0.930 . S
C1154 C1157 1.348 . S
C1154 C1158 1.356 . S
C1154 O1205 1.325 . S
C1155 N1156 1.279 . S
C1155 C1158 1.358 . S
C1155 H1212 0.930 . S
N1156 C1155 1.279 . S
N1156 C1159 1.314 . S
C1157 C1154 1.348 . S
C1157 C1159 1.353 . S
C1157 H1213 0.929 . S
C1158 C1154 1.356 . S
C1158 C1155 1.358 . S
C1158 H1214 0.930 . S
C1159 N1156 1.314 . S
C1159 C1157 1.353 . S
C1159 H1215 0.930 . S
C1160 N1161 1.314 . S
C1160 C1165 1.353 . S
C1160 H1166 0.930 . S
N1161 Li1144 1.990 . S
N1161 C1160 1.314 . S
N1161 C1163 1.279 . S
C1162 C1163 1.358 . S
C1162 C1164 1.356 . S
C1162 H1216 0.930 . S
C1163 N1161 1.279 . S
C1163 C1162 1.358 . S
C1163 H1167 0.930 . S
C1164 C1162 1.356 . S
C1164 C1165 1.348 . S
C1165 C1160 1.353 . S
C1165 C1164 1.348 . S
C1165 H1217 0.929 . S
H1166 C1160 0.930 . S
H1167 C1163 0.930 . S
C1168 N1169 1.314 . S
C1168 C1170 1.353 . S
C1168 H1174 0.930 1_554 S
N1169 Li1145 1.990 . S
N1169 C1168 1.314 . S
N1169 C1172 1.279 . S
C1170 C1168 1.353 . S
C1170 C1173 1.348 . S
C1170 H1218 0.929 1_554 S
C1171 C1172 1.358 . S
C1171 C1173 1.356 . S
C1171 H1219 0.930 . S
C1172 N1169 1.279 . S
C1172 C1171 1.358 . S
C1172 H1175 0.930 . S
C1173 C1170 1.348 . S
C1173 C1171 1.356 . S
H1174 C1168 0.930 1_556 S
H1175 C1172 0.930 . S
C1176 C1178 1.348 . S
C1176 C1179 1.356 . S
C1176 O1206 1.325 . S
N1177 C1180 1.314 . S
N1177 C1181 1.279 . S
C1178 C1176 1.348 . S
C1178 C1180 1.353 . S
C1178 H1220 0.929 . S
C1179 C1176 1.356 . S
C1179 C1181 1.358 . S
C1179 H1221 0.930 . S
C1180 N1177 1.314 . S
C1180 C1178 1.353 . S
C1180 H1222 0.930 . S
C1181 N1177 1.279 . S
C1181 C1179 1.358 . S
C1181 H1223 0.930 . S
C1182 C1183 1.348 . S
C1182 C1184 1.356 . S
C1182 O1207 1.376 . S
C1183 C1182 1.348 . S
C1183 C1185 1.353 . S
C1183 H1224 0.929 . S
C1184 C1182 1.356 . S
C1184 C1186 1.358 . S
C1184 H1225 0.930 . S
C1185 C1183 1.353 . S
C1185 N1187 1.314 . S
C1185 H1226 0.930 . S
C1186 C1184 1.358 . S
C1186 N1187 1.279 . S
C1186 H1227 0.930 . S
N1187 C1185 1.314 . S
N1187 C1186 1.279 . S
C1188 C1190 1.353 . S
C1188 N1191 1.314 . S
C1188 H1194 0.930 . S
C1189 N1191 1.279 . S
C1189 C1192 1.358 . S
C1189 H1195 0.930 . S
C1190 C1188 1.353 . S
C1190 C1193 1.348 . S
C1190 H1228 0.929 . S
N1191 Li1146 1.990 1_556 S
N1191 C1188 1.314 . S
N1191 C1189 1.279 . S
C1192 C1189 1.358 . S
C1192 C1193 1.356 . S
C1192 H1229 0.930 . S
C1193 C1190 1.348 . S
C1193 C1192 1.356 . S
H1194 C1188 0.930 . S
H1195 C1189 0.930 . S
C1196 N1197 1.314 . S
C1196 C1198 1.353 . S
C1196 H1202 0.930 . S
N1197 Li1147 1.990 . S
N1197 C1196 1.314 . S
N1197 C1200 1.260 1_554 S
C1198 C1196 1.353 . S
C1198 C1201 1.348 . S
C1198 H1230 0.929 . S
C1199 C1200 1.358 . S
C1199 C1201 1.356 1_556 S
C1199 H1231 0.930 . S
C1200 N1197 1.260 1_556 S
C1200 C1199 1.358 . S
C1200 H1203 0.953 . S
C1201 C1198 1.348 . S
C1201 C1199 1.356 1_554 S
H1202 C1196 0.930 . S
H1203 C1200 0.953 . S
O1204 Li1144 1.956 . S
O1204 Li1145 1.970 . S
O1204 Li1146 1.961 . S
O1204 C1148 1.325 . S
O1205 Li1144 1.970 . S
O1205 Li1145 1.956 . S
O1205 Li1147 1.961 . S
O1205 C1154 1.325 . S
O1206 Li1144 1.961 . S
O1206 Li1146 1.956 . S
O1206 Li1147 1.970 . S
O1206 C1176 1.325 . S
O1207 Li1145 1.912 1_556 S
O1207 Li1146 1.971 1_556 S
O1207 Li1147 1.907 1_556 S
O1207 C1182 1.376 . S
H1208 C1150 0.929 . S
H1209 C1151 0.930 . S
H1210 C1152 0.930 . S
H1211 C1153 0.930 . S
H1212 C1155 0.930 . S
H1213 C1157 0.929 . S
H1214 C1158 0.930 . S
H1215 C1159 0.930 . S
H1216 C1162 0.930 . S
H1217 C1165 0.929 . S
H1218 C1170 0.929 1_556 S
H1219 C1171 0.930 . S
H1220 C1178 0.929 . S
H1221 C1179 0.930 . S
H1222 C1180 0.930 . S
H1223 C1181 0.930 . S
H1224 C1183 0.929 . S
H1225 C1184 0.930 . S
H1226 C1185 0.930 . S
H1227 C1186 0.930 . S
H1228 C1190 0.929 . S
H1229 C1192 0.930 . S
H1230 C1198 0.929 . S
H1231 C1199 0.930 . S
Li1232 N1249 1.990 . S
Li1232 O1292 1.956 . S
Li1232 O1293 1.970 . S
Li1232 O1294 1.961 . S
Li1233 N1257 1.990 . S
Li1233 O1292 1.970 . S
Li1233 O1293 1.956 . S
Li1233 O1295 1.961 . S
Li1234 N1279 1.990 . S
Li1234 O1292 1.961 . S
Li1234 O1294 1.956 . S
Li1234 O1295 1.970 . S
Li1235 N1285 1.990 . S
Li1235 O1293 1.961 . S
Li1235 O1294 1.970 . S
Li1235 O1295 1.956 . S
C1236 C1238 1.348 . S
C1236 C1239 1.356 . S
C1236 O1292 1.325 . S
N1237 C1240 1.314 . S
N1237 C1241 1.279 . S
C1238 C1236 1.348 . S
C1238 C1240 1.353 . S
C1238 H1296 0.929 . S
C1239 C1236 1.356 . S
C1239 C1241 1.358 . S
C1239 H1297 0.930 . S
C1240 N1237 1.314 . S
C1240 C1238 1.353 . S
C1240 H1298 0.930 . S
C1241 N1237 1.279 . S
C1241 C1239 1.358 . S
C1241 H1299 0.930 . S
C1242 C1245 1.348 . S
C1242 C1246 1.356 . S
C1242 O1293 1.325 . S
C1243 N1244 1.279 . S
C1243 C1246 1.358 . S
C1243 H1300 0.930 . S
N1244 C1243 1.279 . S
N1244 C1247 1.314 . S
C1245 C1242 1.348 . S
C1245 C1247 1.353 . S
C1245 H1301 0.929 . S
C1246 C1242 1.356 . S
C1246 C1243 1.358 . S
C1246 H1302 0.930 . S
C1247 N1244 1.314 . S
C1247 C1245 1.353 . S
C1247 H1303 0.930 . S
C1248 N1249 1.314 . S
C1248 C1253 1.353 . S
C1248 H1254 0.930 . S
N1249 Li1232 1.990 . S
N1249 C1248 1.314 . S
N1249 C1251 1.279 . S
C1250 C1251 1.358 . S
C1250 C1252 1.356 . S
C1250 H1304 0.930 . S
C1251 N1249 1.279 . S
C1251 C1250 1.358 . S
C1251 H1255 0.930 . S
C1252 C1250 1.356 . S
C1252 C1253 1.348 . S
C1253 C1248 1.353 . S
C1253 C1252 1.348 . S
C1253 H1305 0.929 . S
H1254 C1248 0.930 . S
H1255 C1251 0.930 . S
C1256 N1257 1.314 . S
C1256 C1258 1.353 . S
C1256 H1262 0.930 . S
N1257 Li1233 1.990 . S
N1257 C1256 1.314 . S
N1257 C1260 1.279 . S
C1258 C1256 1.353 . S
C1258 C1261 1.348 . S
C1258 H1306 0.929 . S
C1259 C1260 1.358 . S
C1259 C1261 1.356 . S
C1259 H1307 0.930 . S
C1260 N1257 1.279 . S
C1260 C1259 1.358 . S
C1260 H1263 0.930 . S
C1261 C1258 1.348 . S
C1261 C1259 1.356 . S
H1262 C1256 0.930 . S
H1263 C1260 0.930 . S
C1264 C1266 1.348 . S
C1264 C1267 1.356 . S
C1264 O1294 1.325 . S
N1265 C1268 1.314 . S
N1265 C1269 1.279 . S
C1266 C1264 1.348 . S
C1266 C1268 1.353 . S
C1266 H1308 0.929 . S
C1267 C1264 1.356 . S
C1267 C1269 1.358 . S
C1267 H1309 0.930 . S
C1268 N1265 1.314 . S
C1268 C1266 1.353 . S
C1268 H1310 0.930 . S
C1269 N1265 1.279 . S
C1269 C1267 1.358 . S
C1269 H1311 0.930 . S
C1270 C1271 1.348 . S
C1270 C1272 1.356 . S
C1270 O1295 1.325 . S
C1271 C1270 1.348 . S
C1271 C1273 1.353 . S
C1271 H1312 0.929 . S
C1272 C1270 1.356 . S
C1272 C1274 1.358 . S
C1272 H1313 0.930 . S
C1273 C1271 1.353 . S
C1273 N1275 1.314 . S
C1273 H1314 0.930 . S
C1274 C1272 1.358 . S
C1274 N1275 1.279 . S
C1274 H1315 0.930 . S
N1275 C1273 1.314 . S
N1275 C1274 1.279 . S
C1276 C1278 1.353 . S
C1276 N1279 1.314 . S
C1276 H1282 0.930 . S
C1277 N1279 1.279 . S
C1277 C1280 1.358 . S
C1277 H1283 0.930 . S
C1278 C1276 1.353 . S
C1278 C1281 1.348 . S
C1278 H1316 0.929 . S
N1279 Li1234 1.990 . S
N1279 C1276 1.314 . S
N1279 C1277 1.279 . S
C1280 C1277 1.358 . S
C1280 C1281 1.356 . S
C1280 H1317 0.930 . S
C1281 C1278 1.348 . S
C1281 C1280 1.356 . S
H1282 C1276 0.930 . S
H1283 C1277 0.930 . S
C1284 N1285 1.314 . S
C1284 C1286 1.353 . S
C1284 H1290 0.930 . S
N1285 Li1235 1.990 . S
N1285 C1284 1.314 . S
N1285 C1288 1.279 . S
C1286 C1284 1.353 . S
C1286 C1289 1.348 . S
C1286 H1318 0.929 . S
C1287 C1288 1.358 . S
C1287 C1289 1.356 . S
C1287 H1319 0.930 . S
C1288 N1285 1.279 . S
C1288 C1287 1.358 . S
C1288 H1291 0.930 . S
C1289 C1286 1.348 . S
C1289 C1287 1.356 . S
H1290 C1284 0.930 . S
H1291 C1288 0.930 . S
O1292 Li1232 1.956 . S
O1292 Li1233 1.970 . S
O1292 Li1234 1.961 . S
O1292 C1236 1.325 . S
O1293 Li1232 1.970 . S
O1293 Li1233 1.956 . S
O1293 Li1235 1.961 . S
O1293 C1242 1.325 . S
O1294 Li1232 1.961 . S
O1294 Li1234 1.956 . S
O1294 Li1235 1.970 . S
O1294 C1264 1.325 . S
O1295 Li1233 1.961 . S
O1295 Li1234 1.970 . S
O1295 Li1235 1.956 . S
O1295 C1270 1.325 . S
H1296 C1238 0.929 . S
H1297 C1239 0.930 . S
H1298 C1240 0.930 . S
H1299 C1241 0.930 . S
H1300 C1243 0.930 . S
H1301 C1245 0.929 . S
H1302 C1246 0.930 . S
H1303 C1247 0.930 . S
H1304 C1250 0.930 . S
H1305 C1253 0.929 . S
H1306 C1258 0.929 . S
H1307 C1259 0.930 . S
H1308 C1266 0.929 . S
H1309 C1267 0.930 . S
H1310 C1268 0.930 . S
H1311 C1269 0.930 . S
H1312 C1271 0.929 . S
H1313 C1272 0.930 . S
H1314 C1273 0.930 . S
H1315 C1274 0.930 . S
H1316 C1278 0.929 . S
H1317 C1280 0.930 . S
H1318 C1286 0.929 . S
H1319 C1287 0.930 . S
Li1320 N1337 1.990 . S
Li1320 O1380 1.956 . S
Li1320 O1381 1.970 . S
Li1320 O1382 1.961 . S
Li1321 N1345 1.990 . S
Li1321 O1380 1.970 . S
Li1321 O1381 1.956 . S
Li1321 O1383 1.961 . S
Li1322 N1367 1.990 . S
Li1322 O1380 1.961 . S
Li1322 O1382 1.956 . S
Li1322 O1383 1.970 . S
Li1323 N1373 1.990 . S
Li1323 O1381 1.961 . S
Li1323 O1382 1.970 . S
Li1323 O1383 1.956 . S
C1324 C1326 1.348 . S
C1324 C1327 1.356 . S
C1324 O1380 1.325 . S
N1325 C1328 1.314 . S
N1325 C1329 1.279 . S
C1326 C1324 1.348 . S
C1326 C1328 1.353 . S
C1326 H1384 0.929 . S
C1327 C1324 1.356 . S
C1327 C1329 1.358 . S
C1327 H1385 0.930 . S
C1328 N1325 1.314 . S
C1328 C1326 1.353 . S
C1328 H1386 0.930 . S
C1329 N1325 1.279 . S
C1329 C1327 1.358 . S
C1329 H1387 0.930 . S
C1330 C1333 1.348 . S
C1330 C1334 1.356 . S
C1330 O1381 1.325 . S
C1331 N1332 1.279 . S
C1331 C1334 1.358 . S
C1331 H1388 0.930 . S
N1332 C1331 1.279 . S
N1332 C1335 1.314 . S
C1333 C1330 1.348 . S
C1333 C1335 1.353 . S
C1333 H1389 0.929 . S
C1334 C1330 1.356 . S
C1334 C1331 1.358 . S
C1334 H1390 0.930 . S
C1335 N1332 1.314 . S
C1335 C1333 1.353 . S
C1335 H1391 0.930 . S
C1336 N1337 1.314 . S
C1336 C1341 1.353 . S
C1336 H1342 0.930 . S
N1337 Li1320 1.990 . S
N1337 C1336 1.314 . S
N1337 C1339 1.279 . S
C1338 C1339 1.358 . S
C1338 C1340 1.356 . S
C1338 H1392 0.930 . S
C1339 N1337 1.279 . S
C1339 C1338 1.358 . S
C1339 H1343 0.930 . S
C1340 C1338 1.356 . S
C1340 C1341 1.348 . S
C1341 C1336 1.353 . S
C1341 C1340 1.348 . S
C1341 H1393 0.929 . S
H1342 C1336 0.930 . S
H1343 C1339 0.930 . S
C1344 N1345 1.314 . S
C1344 C1346 1.353 . S
C1344 H1350 0.930 . S
N1345 Li1321 1.990 . S
N1345 C1344 1.314 . S
N1345 C1348 1.279 . S
C1346 C1344 1.353 . S
C1346 C1349 1.348 . S
C1346 H1394 0.929 . S
C1347 C1348 1.358 . S
C1347 C1349 1.356 . S
C1347 H1395 0.930 . S
C1348 N1345 1.279 . S
C1348 C1347 1.358 . S
C1348 H1351 0.930 . S
C1349 C1346 1.348 . S
C1349 C1347 1.356 . S
H1350 C1344 0.930 . S
H1351 C1348 0.930 . S
C1352 C1354 1.348 . S
C1352 C1355 1.356 . S
C1352 O1382 1.325 . S
N1353 C1356 1.314 . S
N1353 C1357 1.279 . S
C1354 C1352 1.348 . S
C1354 C1356 1.353 . S
C1354 H1396 0.929 . S
C1355 C1352 1.356 . S
C1355 C1357 1.358 . S
C1355 H1397 0.930 . S
C1356 N1353 1.314 . S
C1356 C1354 1.353 . S
C1356 H1398 0.930 . S
C1357 N1353 1.279 . S
C1357 C1355 1.358 . S
C1357 H1399 0.930 . S
C1358 C1359 1.348 . S
C1358 C1360 1.356 . S
C1358 O1383 1.325 . S
C1359 C1358 1.348 . S
C1359 C1361 1.353 . S
C1359 H1400 0.929 . S
C1360 C1358 1.356 . S
C1360 C1362 1.358 . S
C1360 H1401 0.930 . S
C1361 C1359 1.353 . S
C1361 N1363 1.314 . S
C1361 H1402 0.930 . S
C1362 C1360 1.358 . S
C1362 N1363 1.279 . S
C1362 H1403 0.930 . S
N1363 C1361 1.314 . S
N1363 C1362 1.279 . S
C1364 C1366 1.353 . S
C1364 N1367 1.314 . S
C1364 H1370 0.930 . S
C1365 N1367 1.279 . S
C1365 C1368 1.358 . S
C1365 H1371 0.930 . S
C1366 C1364 1.353 . S
C1366 C1369 1.348 . S
C1366 H1404 0.929 . S
N1367 Li1322 1.990 . S
N1367 C1364 1.314 . S
N1367 C1365 1.279 . S
C1368 C1365 1.358 . S
C1368 C1369 1.356 . S
C1368 H1405 0.930 . S
C1369 C1366 1.348 . S
C1369 C1368 1.356 . S
H1370 C1364 0.930 . S
H1371 C1365 0.930 . S
C1372 N1373 1.314 . S
C1372 C1374 1.353 . S
C1372 H1378 0.930 . S
N1373 Li1323 1.990 . S
N1373 C1372 1.314 . S
N1373 C1376 1.279 . S
C1374 C1372 1.353 . S
C1374 C1377 1.348 . S
C1374 H1406 0.929 . S
C1375 C1376 1.358 . S
C1375 C1377 1.356 . S
C1375 H1407 0.930 . S
C1376 N1373 1.279 . S
C1376 C1375 1.358 . S
C1376 H1379 0.930 . S
C1377 C1374 1.348 . S
C1377 C1375 1.356 . S
H1378 C1372 0.930 . S
H1379 C1376 0.930 . S
O1380 Li1320 1.956 . S
O1380 Li1321 1.970 . S
O1380 Li1322 1.961 . S
O1380 C1324 1.325 . S
O1381 Li1320 1.970 . S
O1381 Li1321 1.956 . S
O1381 Li1323 1.961 . S
O1381 C1330 1.325 . S
O1382 Li1320 1.961 . S
O1382 Li1322 1.956 . S
O1382 Li1323 1.970 . S
O1382 C1352 1.325 . S
O1383 Li1321 1.961 . S
O1383 Li1322 1.970 . S
O1383 Li1323 1.956 . S
O1383 C1358 1.325 . S
H1384 C1326 0.929 . S
H1385 C1327 0.930 . S
H1386 C1328 0.930 . S
H1387 C1329 0.930 . S
H1388 C1331 0.930 . S
H1389 C1333 0.929 . S
H1390 C1334 0.930 . S
H1391 C1335 0.930 . S
H1392 C1338 0.930 . S
H1393 C1341 0.929 . S
H1394 C1346 0.929 . S
H1395 C1347 0.930 . S
H1396 C1354 0.929 . S
H1397 C1355 0.930 . S
H1398 C1356 0.930 . S
H1399 C1357 0.930 . S
H1400 C1359 0.929 . S
H1401 C1360 0.930 . S
H1402 C1361 0.930 . S
H1403 C1362 0.930 . S
H1404 C1366 0.929 . S
H1405 C1368 0.930 . S
H1406 C1374 0.929 . S
H1407 C1375 0.930 . S
Li1408 N1425 1.990 . S
Li1408 O1468 1.956 . S
Li1408 O1469 1.970 . S
Li1408 O1470 1.961 . S
Li1409 N1433 1.990 . S
Li1409 O1468 1.970 . S
Li1409 O1469 1.956 . S
Li1409 O1471 1.961 . S
Li1410 N1455 1.990 . S
Li1410 O1468 1.961 . S
Li1410 O1470 1.956 . S
Li1410 O1471 1.970 . S
Li1411 N1461 1.990 . S
Li1411 O1469 1.961 . S
Li1411 O1470 1.970 . S
Li1411 O1471 1.956 . S
C1412 C1414 1.348 . S
C1412 C1415 1.356 . S
C1412 O1468 1.325 . S
N1413 C1416 1.314 . S
N1413 C1417 1.279 . S
C1414 C1412 1.348 . S
C1414 C1416 1.353 . S
C1414 H1472 0.929 . S
C1415 C1412 1.356 . S
C1415 C1417 1.358 . S
C1415 H1473 0.930 . S
C1416 N1413 1.314 . S
C1416 C1414 1.353 . S
C1416 H1474 0.930 . S
C1417 N1413 1.279 . S
C1417 C1415 1.358 . S
C1417 H1475 0.930 . S
C1418 C1421 1.348 . S
C1418 C1422 1.356 . S
C1418 O1469 1.325 . S
C1419 N1420 1.279 . S
C1419 C1422 1.358 . S
C1419 H1476 0.930 . S
N1420 C1419 1.279 . S
N1420 C1423 1.314 . S
C1421 C1418 1.348 . S
C1421 C1423 1.353 . S
C1421 H1477 0.929 . S
C1422 C1418 1.356 . S
C1422 C1419 1.358 . S
C1422 H1478 0.930 . S
C1423 N1420 1.314 . S
C1423 C1421 1.353 . S
C1423 H1479 0.930 . S
C1424 N1425 1.314 . S
C1424 C1429 1.353 . S
C1424 H1430 0.930 . S
N1425 Li1408 1.990 . S
N1425 C1424 1.314 . S
N1425 C1427 1.279 . S
C1426 C1427 1.358 . S
C1426 C1428 1.356 . S
C1426 H1480 0.930 . S
C1427 N1425 1.279 . S
C1427 C1426 1.358 . S
C1427 H1431 0.930 . S
C1428 C1426 1.356 . S
C1428 C1429 1.348 . S
C1429 C1424 1.353 . S
C1429 C1428 1.348 . S
C1429 H1481 0.929 . S
H1430 C1424 0.930 . S
H1431 C1427 0.930 . S
C1432 N1433 1.314 . S
C1432 C1434 1.353 . S
C1432 H1438 0.930 . S
N1433 Li1409 1.990 . S
N1433 C1432 1.314 . S
N1433 C1436 1.279 . S
C1434 C1432 1.353 . S
C1434 C1437 1.348 . S
C1434 H1482 0.929 . S
C1435 C1436 1.358 . S
C1435 C1437 1.356 . S
C1435 H1483 0.930 . S
C1436 N1433 1.279 . S
C1436 C1435 1.358 . S
C1436 H1439 0.930 . S
C1437 C1434 1.348 . S
C1437 C1435 1.356 . S
H1438 C1432 0.930 . S
H1439 C1436 0.930 . S
C1440 C1442 1.348 . S
C1440 C1443 1.356 . S
C1440 O1470 1.325 . S
N1441 C1444 1.314 . S
N1441 C1445 1.279 . S
C1442 C1440 1.348 . S
C1442 C1444 1.353 . S
C1442 H1484 0.929 . S
C1443 C1440 1.356 . S
C1443 C1445 1.358 . S
C1443 H1485 0.930 . S
C1444 N1441 1.314 . S
C1444 C1442 1.353 . S
C1444 H1486 0.930 . S
C1445 N1441 1.279 . S
C1445 C1443 1.358 . S
C1445 H1487 0.930 . S
C1446 C1447 1.348 . S
C1446 C1448 1.356 . S
C1446 O1471 1.325 . S
C1447 C1446 1.348 . S
C1447 C1449 1.353 . S
C1447 H1488 0.929 . S
C1448 C1446 1.356 . S
C1448 C1450 1.358 . S
C1448 H1489 0.930 . S
C1449 C1447 1.353 . S
C1449 N1451 1.314 . S
C1449 H1490 0.930 . S
C1450 C1448 1.358 . S
C1450 N1451 1.279 . S
C1450 H1491 0.930 . S
N1451 C1449 1.314 . S
N1451 C1450 1.279 . S
C1452 C1454 1.353 . S
C1452 N1455 1.314 . S
C1452 H1458 0.930 . S
C1453 N1455 1.279 . S
C1453 C1456 1.358 . S
C1453 H1459 0.930 . S
C1454 C1452 1.353 . S
C1454 C1457 1.348 . S
C1454 H1492 0.929 . S
N1455 Li1410 1.990 . S
N1455 C1452 1.314 . S
N1455 C1453 1.279 . S
C1456 C1453 1.358 . S
C1456 C1457 1.356 . S
C1456 H1493 0.930 . S
C1457 C1454 1.348 . S
C1457 C1456 1.356 . S
H1458 C1452 0.930 . S
H1459 C1453 0.930 . S
C1460 N1461 1.314 . S
C1460 C1462 1.353 . S
C1460 H1466 0.930 . S
N1461 Li1411 1.990 . S
N1461 C1460 1.314 . S
N1461 C1464 1.279 . S
C1462 C1460 1.353 . S
C1462 C1465 1.348 . S
C1462 H1494 0.929 . S
C1463 C1464 1.358 . S
C1463 C1465 1.356 . S
C1463 H1495 0.930 . S
C1464 N1461 1.279 . S
C1464 C1463 1.358 . S
C1464 H1467 0.930 . S
C1465 C1462 1.348 . S
C1465 C1463 1.356 . S
H1466 C1460 0.930 . S
H1467 C1464 0.930 . S
O1468 Li1408 1.956 . S
O1468 Li1409 1.970 . S
O1468 Li1410 1.961 . S
O1468 C1412 1.325 . S
O1469 Li1408 1.970 . S
O1469 Li1409 1.956 . S
O1469 Li1411 1.961 . S
O1469 C1418 1.325 . S
O1470 Li1408 1.961 . S
O1470 Li1410 1.956 . S
O1470 Li1411 1.970 . S
O1470 C1440 1.325 . S
O1471 Li1409 1.961 . S
O1471 Li1410 1.970 . S
O1471 Li1411 1.956 . S
O1471 C1446 1.325 . S
H1472 C1414 0.929 . S
H1473 C1415 0.930 . S
H1474 C1416 0.930 . S
H1475 C1417 0.930 . S
H1476 C1419 0.930 . S
H1477 C1421 0.929 . S
H1478 C1422 0.930 . S
H1479 C1423 0.930 . S
H1480 C1426 0.930 . S
H1481 C1429 0.929 . S
H1482 C1434 0.929 . S
H1483 C1435 0.930 . S
H1484 C1442 0.929 . S
H1485 C1443 0.930 . S
H1486 C1444 0.930 . S
H1487 C1445 0.930 . S
H1488 C1447 0.929 . S
H1489 C1448 0.930 . S
H1490 C1449 0.930 . S
H1491 C1450 0.930 . S
H1492 C1454 0.929 . S
H1493 C1456 0.930 . S
H1494 C1462 0.929 . S
H1495 C1463 0.930 . S
Li1496 N1513 1.990 . S
Li1496 O1556 1.956 . S
Li1496 O1557 1.970 . S
Li1496 O1558 1.961 . S
Li1497 N1521 1.990 . S
Li1497 O1556 1.970 . S
Li1497 O1557 1.956 . S
Li1497 O1559 1.961 . S
Li1498 N1543 1.990 . S
Li1498 O1556 1.961 . S
Li1498 O1558 1.956 . S
Li1498 O1559 1.970 . S
Li1499 N1549 1.990 . S
Li1499 O1557 1.961 . S
Li1499 O1558 1.970 . S
Li1499 O1559 1.956 . S
C1500 C1502 1.348 . S
C1500 C1503 1.356 . S
C1500 O1556 1.325 . S
N1501 C1504 1.314 . S
N1501 C1505 1.279 . S
C1502 C1500 1.348 . S
C1502 C1504 1.353 . S
C1502 H1560 0.929 . S
C1503 C1500 1.356 . S
C1503 C1505 1.358 . S
C1503 H1561 0.930 . S
C1504 N1501 1.314 . S
C1504 C1502 1.353 . S
C1504 H1562 0.930 . S
C1505 N1501 1.279 . S
C1505 C1503 1.358 . S
C1505 H1563 0.930 . S
C1506 C1509 1.348 . S
C1506 C1510 1.356 . S
C1506 O1557 1.325 . S
C1507 N1508 1.279 . S
C1507 C1510 1.358 . S
C1507 H1564 0.930 . S
N1508 C1507 1.279 . S
N1508 C1511 1.314 . S
C1509 C1506 1.348 . S
C1509 C1511 1.353 . S
C1509 H1565 0.929 . S
C1510 C1506 1.356 . S
C1510 C1507 1.358 . S
C1510 H1566 0.930 . S
C1511 N1508 1.314 . S
C1511 C1509 1.353 . S
C1511 H1567 0.930 . S
C1512 N1513 1.314 . S
C1512 C1517 1.353 . S
C1512 H1518 0.930 . S
N1513 Li1496 1.990 . S
N1513 C1512 1.314 . S
N1513 C1515 1.279 . S
C1514 C1515 1.358 . S
C1514 C1516 1.356 . S
C1514 H1568 0.930 . S
C1515 N1513 1.279 . S
C1515 C1514 1.358 . S
C1515 H1519 0.930 . S
C1516 C1514 1.356 . S
C1516 C1517 1.348 . S
C1517 C1512 1.353 . S
C1517 C1516 1.348 . S
C1517 H1569 0.929 . S
H1518 C1512 0.930 . S
H1519 C1515 0.930 . S
C1520 N1521 1.314 . S
C1520 C1522 1.353 . S
C1520 H1526 0.930 . S
N1521 Li1497 1.990 . S
N1521 C1520 1.314 . S
N1521 C1524 1.279 . S
C1522 C1520 1.353 . S
C1522 C1525 1.348 . S
C1522 H1570 0.929 . S
C1523 C1524 1.358 . S
C1523 C1525 1.356 . S
C1523 H1571 0.930 . S
C1524 N1521 1.279 . S
C1524 C1523 1.358 . S
C1524 H1527 0.930 . S
C1525 C1522 1.348 . S
C1525 C1523 1.356 . S
H1526 C1520 0.930 . S
H1527 C1524 0.930 . S
C1528 C1530 1.348 . S
C1528 C1531 1.356 . S
C1528 O1558 1.325 . S
N1529 C1532 1.314 . S
N1529 C1533 1.279 . S
C1530 C1528 1.348 . S
C1530 C1532 1.353 . S
C1530 H1572 0.929 . S
C1531 C1528 1.356 . S
C1531 C1533 1.358 . S
C1531 H1573 0.930 . S
C1532 N1529 1.314 . S
C1532 C1530 1.353 . S
C1532 H1574 0.930 . S
C1533 N1529 1.279 . S
C1533 C1531 1.358 . S
C1533 H1575 0.930 . S
C1534 C1535 1.348 . S
C1534 C1536 1.356 . S
C1534 O1559 1.325 . S
C1535 C1534 1.348 . S
C1535 C1537 1.353 . S
C1535 H1576 0.929 . S
C1536 C1534 1.356 . S
C1536 C1538 1.358 . S
C1536 H1577 0.930 . S
C1537 C1535 1.353 . S
C1537 N1539 1.314 . S
C1537 H1578 0.930 . S
C1538 C1536 1.358 . S
C1538 N1539 1.279 . S
C1538 H1579 0.930 . S
N1539 C1537 1.314 . S
N1539 C1538 1.279 . S
C1540 C1542 1.353 . S
C1540 N1543 1.314 . S
C1540 H1546 0.930 . S
C1541 N1543 1.279 . S
C1541 C1544 1.358 . S
C1541 H1547 0.930 . S
C1542 C1540 1.353 . S
C1542 C1545 1.348 . S
C1542 H1580 0.929 . S
N1543 Li1498 1.990 . S
N1543 C1540 1.314 . S
N1543 C1541 1.279 . S
C1544 C1541 1.358 . S
C1544 C1545 1.356 . S
C1544 H1581 0.930 . S
C1545 C1542 1.348 . S
C1545 C1544 1.356 . S
H1546 C1540 0.930 . S
H1547 C1541 0.930 . S
C1548 N1549 1.314 . S
C1548 C1550 1.353 . S
C1548 H1554 0.930 . S
N1549 Li1499 1.990 . S
N1549 C1548 1.314 . S
N1549 C1552 1.279 . S
C1550 C1548 1.353 . S
C1550 C1553 1.348 . S
C1550 H1582 0.929 . S
C1551 C1552 1.358 . S
C1551 C1553 1.356 . S
C1551 H1583 0.930 . S
C1552 N1549 1.279 . S
C1552 C1551 1.358 . S
C1552 H1555 0.930 . S
C1553 C1550 1.348 . S
C1553 C1551 1.356 . S
H1554 C1548 0.930 . S
H1555 C1552 0.930 . S
O1556 Li1496 1.956 . S
O1556 Li1497 1.970 . S
O1556 Li1498 1.961 . S
O1556 C1500 1.325 . S
O1557 Li1496 1.970 . S
O1557 Li1497 1.956 . S
O1557 Li1499 1.961 . S
O1557 C1506 1.325 . S
O1558 Li1496 1.961 . S
O1558 Li1498 1.956 . S
O1558 Li1499 1.970 . S
O1558 C1528 1.325 . S
O1559 Li1497 1.961 . S
O1559 Li1498 1.970 . S
O1559 Li1499 1.956 . S
O1559 C1534 1.325 . S
H1560 C1502 0.929 . S
H1561 C1503 0.930 . S
H1562 C1504 0.930 . S
H1563 C1505 0.930 . S
H1564 C1507 0.930 . S
H1565 C1509 0.929 . S
H1566 C1510 0.930 . S
H1567 C1511 0.930 . S
H1568 C1514 0.930 . S
H1569 C1517 0.929 . S
H1570 C1522 0.929 . S
H1571 C1523 0.930 . S
H1572 C1530 0.929 . S
H1573 C1531 0.930 . S
H1574 C1532 0.930 . S
H1575 C1533 0.930 . S
H1576 C1535 0.929 . S
H1577 C1536 0.930 . S
H1578 C1537 0.930 . S
H1579 C1538 0.930 . S
H1580 C1542 0.929 . S
H1581 C1544 0.930 . S
H1582 C1550 0.929 . S
H1583 C1551 0.930 . S
Li1584 N1601 1.990 . S
Li1584 O1644 1.956 . S
Li1584 O1645 1.970 . S
Li1584 O1646 1.961 . S
Li1585 N1609 1.990 . S
Li1585 O1644 1.970 . S
Li1585 O1645 1.956 . S
Li1585 O1647 1.961 . S
Li1586 N1631 1.990 . S
Li1586 O1644 1.961 . S
Li1586 O1646 1.956 . S
Li1586 O1647 1.970 . S
Li1587 N1637 1.990 . S
Li1587 O1645 1.961 . S
Li1587 O1646 1.970 . S
Li1587 O1647 1.956 . S
C1588 C1590 1.348 . S
C1588 C1591 1.356 . S
C1588 O1644 1.325 . S
N1589 C1592 1.314 . S
N1589 C1593 1.279 . S
C1590 C1588 1.348 . S
C1590 C1592 1.353 . S
C1590 H1648 0.929 . S
C1591 C1588 1.356 . S
C1591 C1593 1.358 . S
C1591 H1649 0.930 . S
C1592 N1589 1.314 . S
C1592 C1590 1.353 . S
C1592 H1650 0.930 . S
C1593 N1589 1.279 . S
C1593 C1591 1.358 . S
C1593 H1651 0.930 . S
C1594 C1597 1.348 . S
C1594 C1598 1.356 . S
C1594 O1645 1.325 . S
C1595 N1596 1.279 . S
C1595 C1598 1.358 . S
C1595 H1652 0.930 . S
N1596 C1595 1.279 . S
N1596 C1599 1.314 . S
C1597 C1594 1.348 . S
C1597 C1599 1.353 . S
C1597 H1653 0.929 . S
C1598 C1594 1.356 . S
C1598 C1595 1.358 . S
C1598 H1654 0.930 . S
C1599 N1596 1.314 . S
C1599 C1597 1.353 . S
C1599 H1655 0.930 . S
C1600 N1601 1.314 . S
C1600 C1605 1.353 . S
C1600 H1606 0.930 . S
N1601 Li1584 1.990 . S
N1601 C1600 1.314 . S
N1601 C1603 1.279 . S
C1602 C1603 1.358 . S
C1602 C1604 1.356 . S
C1602 H1656 0.930 . S
C1603 N1601 1.279 . S
C1603 C1602 1.358 . S
C1603 H1607 0.930 . S
C1604 C1602 1.356 . S
C1604 C1605 1.348 . S
C1605 C1600 1.353 . S
C1605 C1604 1.348 . S
C1605 H1657 0.929 . S
H1606 C1600 0.930 . S
H1607 C1603 0.930 . S
C1608 N1609 1.314 . S
C1608 C1610 1.353 . S
C1608 H1614 0.930 . S
N1609 Li1585 1.990 . S
N1609 C1608 1.314 . S
N1609 C1612 1.279 . S
C1610 C1608 1.353 . S
C1610 C1613 1.348 . S
C1610 H1658 0.929 . S
C1611 C1612 1.358 . S
C1611 C1613 1.356 . S
C1611 H1659 0.930 . S
C1612 N1609 1.279 . S
C1612 C1611 1.358 . S
C1612 H1615 0.930 . S
C1613 C1610 1.348 . S
C1613 C1611 1.356 . S
H1614 C1608 0.930 . S
H1615 C1612 0.930 . S
C1616 C1618 1.348 . S
C1616 C1619 1.356 . S
C1616 O1646 1.325 . S
N1617 C1620 1.314 . S
N1617 C1621 1.279 . S
C1618 C1616 1.348 . S
C1618 C1620 1.353 . S
C1618 H1660 0.929 . S
C1619 C1616 1.356 . S
C1619 C1621 1.358 . S
C1619 H1661 0.930 . S
C1620 N1617 1.314 . S
C1620 C1618 1.353 . S
C1620 H1662 0.930 . S
C1621 N1617 1.279 . S
C1621 C1619 1.358 . S
C1621 H1663 0.930 . S
C1622 C1623 1.348 . S
C1622 C1624 1.356 . S
C1622 O1647 1.325 . S
C1623 C1622 1.348 . S
C1623 C1625 1.353 . S
C1623 H1664 0.929 . S
C1624 C1622 1.356 . S
C1624 C1626 1.358 . S
C1624 H1665 0.930 . S
C1625 C1623 1.353 . S
C1625 N1627 1.314 . S
C1625 H1666 0.930 . S
C1626 C1624 1.358 . S
C1626 N1627 1.279 . S
C1626 H1667 0.930 . S
N1627 C1625 1.314 . S
N1627 C1626 1.279 . S
C1628 C1630 1.353 . S
C1628 N1631 1.314 . S
C1628 H1634 0.930 . S
C1629 N1631 1.279 . S
C1629 C1632 1.358 . S
C1629 H1635 0.930 . S
C1630 C1628 1.353 . S
C1630 C1633 1.348 . S
C1630 H1668 0.929 . S
N1631 Li1586 1.990 . S
N1631 C1628 1.314 . S
N1631 C1629 1.279 . S
C1632 C1629 1.358 . S
C1632 C1633 1.356 . S
C1632 H1669 0.930 . S
C1633 C1630 1.348 . S
C1633 C1632 1.356 . S
H1634 C1628 0.930 . S
H1635 C1629 0.930 . S
C1636 N1637 1.314 . S
C1636 C1638 1.353 . S
C1636 H1642 0.930 . S
N1637 Li1587 1.990 . S
N1637 C1636 1.314 . S
N1637 C1640 1.279 . S
C1638 C1636 1.353 . S
C1638 C1641 1.348 . S
C1638 H1670 0.929 . S
C1639 C1640 1.358 . S
C1639 C1641 1.356 . S
C1639 H1671 0.930 . S
C1640 N1637 1.279 . S
C1640 C1639 1.358 . S
C1640 H1643 0.930 . S
C1641 C1638 1.348 . S
C1641 C1639 1.356 . S
H1642 C1636 0.930 . S
H1643 C1640 0.930 . S
O1644 Li1584 1.956 . S
O1644 Li1585 1.970 . S
O1644 Li1586 1.961 . S
O1644 C1588 1.325 . S
O1645 Li1584 1.970 . S
O1645 Li1585 1.956 . S
O1645 Li1587 1.961 . S
O1645 C1594 1.325 . S
O1646 Li1584 1.961 . S
O1646 Li1586 1.956 . S
O1646 Li1587 1.970 . S
O1646 C1616 1.325 . S
O1647 Li1585 1.961 . S
O1647 Li1586 1.970 . S
O1647 Li1587 1.956 . S
O1647 C1622 1.325 . S
H1648 C1590 0.929 . S
H1649 C1591 0.930 . S
H1650 C1592 0.930 . S
H1651 C1593 0.930 . S
H1652 C1595 0.930 . S
H1653 C1597 0.929 . S
H1654 C1598 0.930 . S
H1655 C1599 0.930 . S
H1656 C1602 0.930 . S
H1657 C1605 0.929 . S
H1658 C1610 0.929 . S
H1659 C1611 0.930 . S
H1660 C1618 0.929 . S
H1661 C1619 0.930 . S
H1662 C1620 0.930 . S
H1663 C1621 0.930 . S
H1664 C1623 0.929 . S
H1665 C1624 0.930 . S
H1666 C1625 0.930 . S
H1667 C1626 0.930 . S
H1668 C1630 0.929 . S
H1669 C1632 0.930 . S
H1670 C1638 0.929 . S
H1671 C1639 0.930 . S
Li1672 N1689 1.990 . S
Li1672 O1732 1.956 . S
Li1672 O1733 1.970 . S
Li1672 O1734 1.961 . S
Li1673 N1697 1.990 . S
Li1673 O1732 1.970 . S
Li1673 O1733 1.956 . S
Li1673 O1735 1.961 . S
Li1674 N1719 1.990 . S
Li1674 O1732 1.961 . S
Li1674 O1734 1.956 . S
Li1674 O1735 1.970 . S
Li1675 N1725 1.990 . S
Li1675 O1733 1.961 . S
Li1675 O1734 1.970 . S
Li1675 O1735 1.956 . S
C1676 C1678 1.348 . S
C1676 C1679 1.356 . S
C1676 O1732 1.325 . S
N1677 C1680 1.314 . S
N1677 C1681 1.279 . S
C1678 C1676 1.348 . S
C1678 C1680 1.353 . S
C1678 H1736 0.929 . S
C1679 C1676 1.356 . S
C1679 C1681 1.358 . S
C1679 H1737 0.930 . S
C1680 N1677 1.314 . S
C1680 C1678 1.353 . S
C1680 H1738 0.930 . S
C1681 N1677 1.279 . S
C1681 C1679 1.358 . S
C1681 H1739 0.930 . S
C1682 C1685 1.348 . S
C1682 C1686 1.356 . S
C1682 O1733 1.325 . S
C1683 N1684 1.279 . S
C1683 C1686 1.358 . S
C1683 H1740 0.930 . S
N1684 C1683 1.279 . S
N1684 C1687 1.314 . S
C1685 C1682 1.348 . S
C1685 C1687 1.353 . S
C1685 H1741 0.929 . S
C1686 C1682 1.356 . S
C1686 C1683 1.358 . S
C1686 H1742 0.930 . S
C1687 N1684 1.314 . S
C1687 C1685 1.353 . S
C1687 H1743 0.930 . S
C1688 N1689 1.314 . S
C1688 C1693 1.353 . S
C1688 H1694 0.930 . S
N1689 Li1672 1.990 . S
N1689 C1688 1.314 . S
N1689 C1691 1.279 . S
C1690 C1691 1.358 . S
C1690 C1692 1.356 . S
C1690 H1744 0.930 . S
C1691 N1689 1.279 . S
C1691 C1690 1.358 . S
C1691 H1695 0.930 . S
C1692 C1690 1.356 . S
C1692 C1693 1.348 . S
C1693 C1688 1.353 . S
C1693 C1692 1.348 . S
C1693 H1745 0.929 . S
H1694 C1688 0.930 . S
H1695 C1691 0.930 . S
C1696 N1697 1.314 . S
C1696 C1698 1.353 . S
C1696 H1702 0.930 . S
N1697 Li1673 1.990 . S
N1697 C1696 1.314 . S
N1697 C1700 1.279 . S
C1698 C1696 1.353 . S
C1698 C1701 1.348 . S
C1698 H1746 0.929 . S
C1699 C1700 1.358 . S
C1699 C1701 1.356 . S
C1699 H1747 0.930 . S
C1700 N1697 1.279 . S
C1700 C1699 1.358 . S
C1700 H1703 0.930 . S
C1701 C1698 1.348 . S
C1701 C1699 1.356 . S
H1702 C1696 0.930 . S
H1703 C1700 0.930 . S
C1704 C1706 1.348 1_545 S
C1704 C1707 1.356 . S
C1704 O1734 1.325 . S
N1705 C1708 1.314 . S
N1705 C1709 1.279 . S
C1706 C1704 1.348 1_565 S
C1706 C1708 1.353 . S
C1706 H1748 0.929 . S
C1707 C1704 1.356 . S
C1707 C1709 1.358 1_545 S
C1707 H1749 0.930 . S
C1708 N1705 1.314 . S
C1708 C1706 1.353 . S
C1708 H1750 0.930 . S
C1709 N1705 1.279 . S
C1709 C1707 1.358 1_565 S
C1709 H1751 0.930 . S
C1710 C1711 1.348 . S
C1710 C1712 1.356 . S
C1710 O1735 1.325 . S
C1711 C1710 1.348 . S
C1711 C1713 1.353 . S
C1711 H1752 0.929 . S
C1712 C1710 1.356 . S
C1712 C1714 1.358 . S
C1712 H1753 0.930 . S
C1713 C1711 1.353 . S
C1713 N1715 1.314 . S
C1713 H1754 0.930 . S
C1714 C1712 1.358 . S
C1714 N1715 1.279 . S
C1714 H1755 0.930 . S
N1715 C1713 1.314 . S
N1715 C1714 1.279 . S
C1716 C1718 1.353 . S
C1716 N1719 1.314 . S
C1716 H1722 0.930 . S
C1717 N1719 1.279 . S
C1717 C1720 1.358 . S
C1717 H1723 0.930 . S
C1718 C1716 1.353 . S
C1718 C1721 1.348 . S
C1718 H1756 0.929 . S
N1719 Li1674 1.990 . S
N1719 C1716 1.314 . S
N1719 C1717 1.279 . S
C1720 C1717 1.358 . S
C1720 C1721 1.356 . S
C1720 H1757 0.930 . S
C1721 C1718 1.348 . S
C1721 C1720 1.356 . S
H1722 C1716 0.930 . S
H1723 C1717 0.930 . S
C1724 N1725 1.314 . S
C1724 C1726 1.353 1_545 S
C1724 H1730 0.930 . S
N1725 Li1675 1.990 . S
N1725 C1724 1.314 . S
N1725 C1728 1.279 . S
C1726 C1724 1.353 1_565 S
C1726 C1729 1.348 . S
C1726 H1758 0.929 . S
C1727 C1728 1.358 1_565 S
C1727 C1729 1.356 . S
C1727 H1759 0.930 . S
C1728 N1725 1.279 . S
C1728 C1727 1.358 1_545 S
C1728 H1731 0.930 . S
C1729 C1726 1.348 . S
C1729 C1727 1.356 . S
H1730 C1724 0.930 . S
H1731 C1728 0.930 . S
O1732 Li1672 1.956 . S
O1732 Li1673 1.970 . S
O1732 Li1674 1.961 . S
O1732 C1676 1.325 . S
O1733 Li1672 1.970 . S
O1733 Li1673 1.956 . S
O1733 Li1675 1.961 . S
O1733 C1682 1.325 . S
O1734 Li1672 1.961 . S
O1734 Li1674 1.956 . S
O1734 Li1675 1.970 . S
O1734 C1704 1.325 . S
O1735 Li1673 1.961 . S
O1735 Li1674 1.970 . S
O1735 Li1675 1.956 . S
O1735 C1710 1.325 . S
H1736 C1678 0.929 . S
H1737 C1679 0.930 . S
H1738 C1680 0.930 . S
H1739 C1681 0.930 . S
H1740 C1683 0.930 . S
H1741 C1685 0.929 . S
H1742 C1686 0.930 . S
H1743 C1687 0.930 . S
H1744 C1690 0.930 . S
H1745 C1693 0.929 . S
H1746 C1698 0.929 . S
H1747 C1699 0.930 . S
H1748 C1706 0.929 . S
H1749 C1707 0.930 . S
H1750 C1708 0.930 . S
H1751 C1709 0.930 . S
H1752 C1711 0.929 . S
H1753 C1712 0.930 . S
H1754 C1713 0.930 . S
H1755 C1714 0.930 . S
H1756 C1718 0.929 . S
H1757 C1720 0.930 . S
H1758 C1726 0.929 . S
H1759 C1727 0.930 . S
Li1760 N1777 1.990 . S
Li1760 O1820 1.956 . S
Li1760 O1821 1.970 . S
Li1760 O1822 1.961 . S
Li1761 N1785 1.990 . S
Li1761 O1820 1.972 1_556 S
Li1761 O1821 1.942 1_556 S
Li1761 O1823 1.975 . S
Li1762 N1807 1.990 . S
Li1762 O1820 1.961 1_556 S
Li1762 O1822 1.956 1_556 S
Li1762 O1823 1.970 . S
Li1763 N1813 1.990 . S
Li1763 O1821 1.961 1_556 S
Li1763 O1822 1.970 1_556 S
Li1763 O1823 1.956 . S
C1764 C1766 1.348 . S
C1764 C1767 1.356 . S
C1764 O1820 1.325 . S
N1765 C1768 1.314 . S
N1765 C1769 1.279 . S
C1766 C1764 1.348 . S
C1766 C1768 1.353 . S
C1766 H1824 0.929 . S
C1767 C1764 1.356 . S
C1767 C1769 1.358 . S
C1767 H1825 0.942 . S
C1768 N1765 1.314 . S
C1768 C1766 1.353 . S
C1768 H1826 0.930 . S
C1769 N1765 1.279 . S
C1769 C1767 1.358 . S
C1769 H1827 0.930 . S
C1770 C1773 1.348 . S
C1770 C1774 1.356 . S
C1770 O1821 1.325 . S
C1771 N1772 1.279 . S
C1771 C1774 1.358 . S
C1771 H1828 0.930 . S
N1772 C1771 1.279 . S
N1772 C1775 1.314 . S
C1773 C1770 1.348 . S
C1773 C1775 1.353 . S
C1773 H1829 0.929 . S
C1774 C1770 1.356 . S
C1774 C1771 1.358 . S
C1774 H1830 0.930 . S
C1775 N1772 1.314 . S
C1775 C1773 1.353 . S
C1775 H1831 0.930 . S
C1776 N1777 1.314 . S
C1776 C1781 1.353 . S
C1776 H1782 0.930 . S
N1777 Li1760 1.990 . S
N1777 C1776 1.314 . S
N1777 C1779 1.279 . S
C1778 C1779 1.358 . S
C1778 C1780 1.356 . S
C1778 H1832 0.930 . S
C1779 N1777 1.279 . S
C1779 C1778 1.358 . S
C1779 H1783 0.930 . S
C1780 C1778 1.356 . S
C1780 C1781 1.348 . S
C1781 C1776 1.353 . S
C1781 C1780 1.348 . S
C1781 H1833 0.929 . S
H1782 C1776 0.930 . S
H1783 C1779 0.930 . S
C1784 N1785 1.314 . S
C1784 C1786 1.353 . S
C1784 H1790 0.930 . S
N1785 Li1761 1.990 . S
N1785 C1784 1.314 . S
N1785 C1788 1.279 1_556 S
C1786 C1784 1.353 . S
C1786 C1789 1.348 . S
C1786 H1834 0.929 . S
C1787 C1788 1.358 . S
C1787 C1789 1.356 1_554 S
C1787 H1835 0.930 . S
C1788 N1785 1.279 1_554 S
C1788 C1787 1.358 . S
C1788 H1791 0.930 . S
C1789 C1786 1.348 . S
C1789 C1787 1.356 1_556 S
H1790 C1784 0.930 . S
H1791 C1788 0.930 . S
C1792 C1794 1.348 1_554 S
C1792 C1795 1.356 . S
C1792 O1822 1.325 . S
N1793 C1796 1.314 1_554 S
N1793 C1797 1.279 . S
C1794 C1792 1.348 1_556 S
C1794 C1796 1.353 . S
C1794 H1836 0.929 . S
C1795 C1792 1.356 . S
C1795 C1797 1.358 . S
C1795 H1837 0.930 . S
C1796 N1793 1.314 1_556 S
C1796 C1794 1.353 . S
C1796 H1838 0.930 . S
C1797 N1793 1.279 . S
C1797 C1795 1.358 . S
C1797 H1839 0.930 . S
C1798 C1799 1.348 . S
C1798 C1800 1.356 . S
C1798 O1823 1.325 . S
C1799 C1798 1.348 . S
C1799 C1801 1.353 . S
C1799 H1840 0.929 . S
C1800 C1798 1.356 . S
C1800 C1802 1.358 . S
C1800 H1841 0.930 . S
C1801 C1799 1.353 . S
C1801 N1803 1.314 . S
C1801 H1842 0.930 . S
C1802 C1800 1.358 . S
C1802 N1803 1.279 . S
C1802 H1843 0.930 . S
N1803 C1801 1.314 . S
N1803 C1802 1.279 . S
C1804 C1806 1.353 . S
C1804 N1807 1.314 . S
C1804 H1810 0.930 . S
C1805 N1807 1.279 . S
C1805 C1808 1.358 . S
C1805 H1811 0.930 . S
C1806 C1804 1.353 . S
C1806 C1809 1.348 . S
C1806 H1844 0.929 . S
N1807 Li1762 1.990 . S
N1807 C1804 1.314 . S
N1807 C1805 1.279 . S
C1808 C1805 1.358 . S
C1808 C1809 1.356 . S
C1808 H1845 0.930 . S
C1809 C1806 1.348 . S
C1809 C1808 1.356 . S
H1810 C1804 0.930 . S
H1811 C1805 0.930 . S
C1812 N1813 1.314 1_554 S
C1812 C1814 1.353 . S
C1812 H1818 0.930 . S
N1813 Li1763 1.990 . S
N1813 C1812 1.314 1_556 S
N1813 C1816 1.279 . S
C1814 C1812 1.353 . S
C1814 C1817 1.348 1_554 S
C1814 H1846 0.929 . S
C1815 C1816 1.358 . S
C1815 C1817 1.356 . S
C1815 H1847 0.930 . S
C1816 N1813 1.279 . S
C1816 C1815 1.358 . S
C1816 H1819 0.930 . S
C1817 C1814 1.348 1_556 S
C1817 C1815 1.356 . S
H1818 C1812 0.930 . S
H1819 C1816 0.930 . S
O1820 Li1760 1.956 . S
O1820 Li1761 1.972 1_554 S
O1820 Li1762 1.961 1_554 S
O1820 C1764 1.325 . S
O1821 Li1760 1.970 . S
O1821 Li1761 1.942 1_554 S
O1821 Li1763 1.961 1_554 S
O1821 C1770 1.325 . S
O1822 Li1760 1.961 . S
O1822 Li1762 1.956 1_554 S
O1822 Li1763 1.970 1_554 S
O1822 C1792 1.325 . S
O1823 Li1761 1.975 . S
O1823 Li1762 1.970 . S
O1823 Li1763 1.956 . S
O1823 C1798 1.325 . S
H1824 C1766 0.929 . S
H1825 C1767 0.942 . S
H1826 C1768 0.930 . S
H1827 C1769 0.930 . S
H1828 C1771 0.930 . S
H1829 C1773 0.929 . S
H1830 C1774 0.930 . S
H1831 C1775 0.930 . S
H1832 C1778 0.930 . S
H1833 C1781 0.929 . S
H1834 C1786 0.929 . S
H1835 C1787 0.930 . S
H1836 C1794 0.929 . S
H1837 C1795 0.930 . S
H1838 C1796 0.930 . S
H1839 C1797 0.930 . S
H1840 C1799 0.929 . S
H1841 C1800 0.930 . S
H1842 C1801 0.930 . S
H1843 C1802 0.930 . S
H1844 C1806 0.929 . S
H1845 C1808 0.930 . S
H1846 C1814 0.929 . S
H1847 C1815 0.930 . S
Li1848 N1865 1.990 . S
Li1848 O1908 1.956 . S
Li1848 O1909 1.970 . S
Li1848 O1910 1.961 . S
Li1849 N1873 1.990 . S
Li1849 O1908 1.970 . S
Li1849 O1909 1.956 . S
Li1849 O1911 1.961 . S
Li1850 N1895 1.990 . S
Li1850 O1908 1.961 . S
Li1850 O1910 1.956 . S
Li1850 O1911 1.970 . S
Li1851 N1901 1.990 . S
Li1851 O1909 1.961 . S
Li1851 O1910 1.970 . S
Li1851 O1911 1.956 . S
C1852 C1854 1.348 . S
C1852 C1855 1.356 . S
C1852 O1908 1.325 . S
N1853 C1856 1.314 . S
N1853 C1857 1.279 . S
C1854 C1852 1.348 . S
C1854 C1856 1.353 . S
C1854 H1912 0.929 . S
C1855 C1852 1.356 . S
C1855 C1857 1.358 . S
C1855 H1913 0.930 . S
C1856 N1853 1.314 . S
C1856 C1854 1.353 . S
C1856 H1914 0.930 . S
C1857 N1853 1.279 . S
C1857 C1855 1.358 . S
C1857 H1915 0.930 . S
C1858 C1861 1.348 . S
C1858 C1862 1.356 . S
C1858 O1909 1.325 . S
C1859 N1860 1.279 . S
C1859 C1862 1.358 . S
C1859 H1916 0.930 . S
N1860 C1859 1.279 . S
N1860 C1863 1.314 . S
C1861 C1858 1.348 . S
C1861 C1863 1.353 . S
C1861 H1917 0.929 . S
C1862 C1858 1.356 . S
C1862 C1859 1.358 . S
C1862 H1918 0.930 . S
C1863 N1860 1.314 . S
C1863 C1861 1.353 . S
C1863 H1919 0.930 . S
C1864 N1865 1.314 . S
C1864 C1869 1.353 . S
C1864 H1870 0.930 . S
N1865 Li1848 1.990 . S
N1865 C1864 1.314 . S
N1865 C1867 1.279 . S
C1866 C1867 1.358 . S
C1866 C1868 1.356 . S
C1866 H1920 0.930 . S
C1867 N1865 1.279 . S
C1867 C1866 1.358 . S
C1867 H1871 0.930 . S
C1868 C1866 1.356 . S
C1868 C1869 1.348 . S
C1869 C1864 1.353 . S
C1869 C1868 1.348 . S
C1869 H1921 0.929 . S
H1870 C1864 0.930 . S
H1871 C1867 0.930 . S
C1872 N1873 1.314 . S
C1872 C1874 1.353 . S
C1872 H1878 0.930 . S
N1873 Li1849 1.990 . S
N1873 C1872 1.314 . S
N1873 C1876 1.279 . S
C1874 C1872 1.353 . S
C1874 C1877 1.348 . S
C1874 H1922 0.929 . S
C1875 C1876 1.358 . S
C1875 C1877 1.356 . S
C1875 H1923 0.930 . S
C1876 N1873 1.279 . S
C1876 C1875 1.358 . S
C1876 H1879 0.930 . S
C1877 C1874 1.348 . S
C1877 C1875 1.356 . S
H1878 C1872 0.930 . S
H1879 C1876 0.930 . S
C1880 C1882 1.348 . S
C1880 C1883 1.356 . S
C1880 O1910 1.325 . S
N1881 C1884 1.314 . S
N1881 C1885 1.279 . S
C1882 C1880 1.348 . S
C1882 C1884 1.353 . S
C1882 H1924 0.929 . S
C1883 C1880 1.356 . S
C1883 C1885 1.358 . S
C1883 H1925 0.930 . S
C1884 N1881 1.314 . S
C1884 C1882 1.353 . S
C1884 H1926 0.930 . S
C1885 N1881 1.279 . S
C1885 C1883 1.358 . S
C1885 H1927 0.930 . S
C1886 C1887 1.348 . S
C1886 C1888 1.356 . S
C1886 O1911 1.325 . S
C1887 C1886 1.348 . S
C1887 C1889 1.353 . S
C1887 H1928 0.929 . S
C1888 C1886 1.356 . S
C1888 C1890 1.358 . S
C1888 H1929 0.930 . S
C1889 C1887 1.353 . S
C1889 N1891 1.314 . S
C1889 H1930 0.930 . S
C1890 C1888 1.358 . S
C1890 N1891 1.279 . S
C1890 H1931 0.930 . S
N1891 C1889 1.314 . S
N1891 C1890 1.279 . S
C1892 C1894 1.353 . S
C1892 N1895 1.314 . S
C1892 H1898 0.930 . S
C1893 N1895 1.279 . S
C1893 C1896 1.358 . S
C1893 H1899 0.930 . S
C1894 C1892 1.353 . S
C1894 C1897 1.348 . S
C1894 H1932 0.929 . S
N1895 Li1850 1.990 . S
N1895 C1892 1.314 . S
N1895 C1893 1.279 . S
C1896 C1893 1.358 . S
C1896 C1897 1.356 . S
C1896 H1933 0.930 . S
C1897 C1894 1.348 . S
C1897 C1896 1.356 . S
H1898 C1892 0.930 . S
H1899 C1893 0.930 . S
C1900 N1901 1.314 . S
C1900 C1902 1.353 . S
C1900 H1906 0.930 . S
N1901 Li1851 1.990 . S
N1901 C1900 1.314 . S
N1901 C1904 1.279 . S
C1902 C1900 1.353 . S
C1902 C1905 1.348 . S
C1902 H1934 0.929 . S
C1903 C1904 1.358 . S
C1903 C1905 1.356 . S
C1903 H1935 0.930 . S
C1904 N1901 1.279 . S
C1904 C1903 1.358 . S
C1904 H1907 0.930 . S
C1905 C1902 1.348 . S
C1905 C1903 1.356 . S
H1906 C1900 0.930 . S
H1907 C1904 0.930 . S
O1908 Li1848 1.956 . S
O1908 Li1849 1.970 . S
O1908 Li1850 1.961 . S
O1908 C1852 1.325 . S
O1909 Li1848 1.970 . S
O1909 Li1849 1.956 . S
O1909 Li1851 1.961 . S
O1909 C1858 1.325 . S
O1910 Li1848 1.961 . S
O1910 Li1850 1.956 . S
O1910 Li1851 1.970 . S
O1910 C1880 1.325 . S
O1911 Li1849 1.961 . S
O1911 Li1850 1.970 . S
O1911 Li1851 1.956 . S
O1911 C1886 1.325 . S
H1912 C1854 0.929 . S
H1913 C1855 0.930 . S
H1914 C1856 0.930 . S
H1915 C1857 0.930 . S
H1916 C1859 0.930 . S
H1917 C1861 0.929 . S
H1918 C1862 0.930 . S
H1919 C1863 0.930 . S
H1920 C1866 0.930 . S
H1921 C1869 0.929 . S
H1922 C1874 0.929 . S
H1923 C1875 0.930 . S
H1924 C1882 0.929 . S
H1925 C1883 0.930 . S
H1926 C1884 0.930 . S
H1927 C1885 0.930 . S
H1928 C1887 0.929 . S
H1929 C1888 0.930 . S
H1930 C1889 0.930 . S
H1931 C1890 0.930 . S
H1932 C1894 0.929 . S
H1933 C1896 0.930 . S
H1934 C1902 0.929 . S
H1935 C1903 0.930 . S
Li1936 N1953 1.990 . S
Li1936 O1996 1.956 . S
Li1936 O1997 1.970 . S
Li1936 O1998 1.961 . S
Li1937 N1961 1.990 . S
Li1937 O1996 1.970 . S
Li1937 O1997 1.956 . S
Li1937 O1999 1.961 . S
Li1938 N1983 1.990 . S
Li1938 O1996 1.961 . S
Li1938 O1998 1.956 . S
Li1938 O1999 1.970 . S
Li1939 N1989 1.990 . S
Li1939 O1997 1.961 . S
Li1939 O1998 1.970 . S
Li1939 O1999 1.956 . S
C1940 C1942 1.348 . S
C1940 C1943 1.356 . S
C1940 O1996 1.325 . S
N1941 C1944 1.314 . S
N1941 C1945 1.279 . S
C1942 C1940 1.348 . S
C1942 C1944 1.353 . S
C1942 H2000 0.929 . S
C1943 C1940 1.356 . S
C1943 C1945 1.358 . S
C1943 H2001 0.930 . S
C1944 N1941 1.314 . S
C1944 C1942 1.353 . S
C1944 H2002 0.930 . S
C1945 N1941 1.279 . S
C1945 C1943 1.358 . S
C1945 H2003 0.930 . S
C1946 C1949 1.348 . S
C1946 C1950 1.356 . S
C1946 O1997 1.325 . S
C1947 N1948 1.279 . S
C1947 C1950 1.358 . S
C1947 H2004 0.930 . S
N1948 C1947 1.279 . S
N1948 C1951 1.314 . S
C1949 C1946 1.348 . S
C1949 C1951 1.353 . S
C1949 H2005 0.929 . S
C1950 C1946 1.356 . S
C1950 C1947 1.358 . S
C1950 H2006 0.930 . S
C1951 N1948 1.314 . S
C1951 C1949 1.353 . S
C1951 H2007 0.930 . S
C1952 N1953 1.314 . S
C1952 C1957 1.353 . S
C1952 H1958 0.930 . S
N1953 Li1936 1.990 . S
N1953 C1952 1.314 . S
N1953 C1955 1.279 . S
C1954 C1955 1.358 . S
C1954 C1956 1.356 . S
C1954 H2008 0.930 . S
C1955 N1953 1.279 . S
C1955 C1954 1.358 . S
C1955 H1959 0.930 . S
C1956 C1954 1.356 . S
C1956 C1957 1.348 . S
C1957 C1952 1.353 . S
C1957 C1956 1.348 . S
C1957 H2009 0.929 . S
H1958 C1952 0.930 . S
H1959 C1955 0.930 . S
C1960 N1961 1.314 . S
C1960 C1962 1.353 . S
C1960 H1966 0.930 . S
N1961 Li1937 1.990 . S
N1961 C1960 1.314 . S
N1961 C1964 1.279 . S
C1962 C1960 1.353 . S
C1962 C1965 1.348 . S
C1962 H2010 0.929 . S
C1963 C1964 1.358 . S
C1963 C1965 1.356 . S
C1963 H2011 0.930 . S
C1964 N1961 1.279 . S
C1964 C1963 1.358 . S
C1964 H1967 0.930 . S
C1965 C1962 1.348 . S
C1965 C1963 1.356 . S
H1966 C1960 0.930 . S
H1967 C1964 0.930 . S
C1968 C1970 1.348 . S
C1968 C1971 1.356 . S
C1968 O1998 1.325 . S
N1969 C1972 1.314 . S
N1969 C1973 1.279 . S
C1970 C1968 1.348 . S
C1970 C1972 1.353 . S
C1970 H2012 0.929 . S
C1971 C1968 1.356 . S
C1971 C1973 1.358 . S
C1971 H2013 0.930 . S
C1972 N1969 1.314 . S
C1972 C1970 1.353 . S
C1972 H2014 0.930 . S
C1973 N1969 1.279 . S
C1973 C1971 1.358 . S
C1973 H2015 0.930 . S
C1974 C1975 1.348 . S
C1974 C1976 1.356 . S
C1974 O1999 1.325 . S
C1975 C1974 1.348 . S
C1975 C1977 1.353 . S
C1975 H2016 0.929 . S
C1976 C1974 1.356 . S
C1976 C1978 1.358 . S
C1976 H2017 0.930 . S
C1977 C1975 1.353 . S
C1977 N1979 1.314 . S
C1977 H2018 0.930 . S
C1978 C1976 1.358 . S
C1978 N1979 1.279 . S
C1978 H2019 0.930 . S
N1979 C1977 1.314 . S
N1979 C1978 1.279 . S
C1980 C1982 1.353 . S
C1980 N1983 1.314 . S
C1980 H1986 0.930 . S
C1981 N1983 1.279 . S
C1981 C1984 1.358 . S
C1981 H1987 0.930 . S
C1982 C1980 1.353 . S
C1982 C1985 1.348 . S
C1982 H2020 0.929 . S
N1983 Li1938 1.990 . S
N1983 C1980 1.314 . S
N1983 C1981 1.279 . S
C1984 C1981 1.358 . S
C1984 C1985 1.356 . S
C1984 H2021 0.930 . S
C1985 C1982 1.348 . S
C1985 C1984 1.356 . S
H1986 C1980 0.930 . S
H1987 C1981 0.930 . S
C1988 N1989 1.314 . S
C1988 C1990 1.353 . S
C1988 H1994 0.930 . S
N1989 Li1939 1.990 . S
N1989 C1988 1.314 . S
N1989 C1992 1.279 . S
C1990 C1988 1.353 . S
C1990 C1993 1.348 . S
C1990 H2022 0.929 . S
C1991 C1992 1.358 . S
C1991 C1993 1.356 . S
C1991 H2023 0.930 . S
C1992 N1989 1.279 . S
C1992 C1991 1.358 . S
C1992 H1995 0.930 . S
C1993 C1990 1.348 . S
C1993 C1991 1.356 . S
H1994 C1988 0.930 . S
H1995 C1992 0.930 . S
O1996 Li1936 1.956 . S
O1996 Li1937 1.970 . S
O1996 Li1938 1.961 . S
O1996 C1940 1.325 . S
O1997 Li1936 1.970 . S
O1997 Li1937 1.956 . S
O1997 Li1939 1.961 . S
O1997 C1946 1.325 . S
O1998 Li1936 1.961 . S
O1998 Li1938 1.956 . S
O1998 Li1939 1.970 . S
O1998 C1968 1.325 . S
O1999 Li1937 1.961 . S
O1999 Li1938 1.970 . S
O1999 Li1939 1.956 . S
O1999 C1974 1.325 . S
H2000 C1942 0.929 . S
H2001 C1943 0.930 . S
H2002 C1944 0.930 . S
H2003 C1945 0.930 . S
H2004 C1947 0.930 . S
H2005 C1949 0.929 . S
H2006 C1950 0.930 . S
H2007 C1951 0.930 . S
H2008 C1954 0.930 . S
H2009 C1957 0.929 . S
H2010 C1962 0.929 . S
H2011 C1963 0.930 . S
H2012 C1970 0.929 . S
H2013 C1971 0.930 . S
H2014 C1972 0.930 . S
H2015 C1973 0.930 . S
H2016 C1975 0.929 . S
H2017 C1976 0.930 . S
H2018 C1977 0.930 . S
H2019 C1978 0.930 . S
H2020 C1982 0.929 . S
H2021 C1984 0.930 . S
H2022 C1990 0.929 . S
H2023 C1991 0.930 . S
Li2024 N2041 1.990 . S
Li2024 O2084 1.956 . S
Li2024 O2085 1.970 . S
Li2024 O2086 1.961 . S
Li2025 N2049 1.990 . S
Li2025 O2084 1.970 . S
Li2025 O2085 1.956 . S
Li2025 O2087 1.961 . S
Li2026 N2071 1.990 . S
Li2026 O2084 1.961 . S
Li2026 O2086 1.956 . S
Li2026 O2087 1.970 . S
Li2027 N2077 1.990 . S
Li2027 O2085 1.961 . S
Li2027 O2086 1.970 . S
Li2027 O2087 1.956 . S
C2028 C2030 1.348 . S
C2028 C2031 1.356 . S
C2028 O2084 1.325 . S
N2029 C2032 1.314 . S
N2029 C2033 1.279 . S
C2030 C2028 1.348 . S
C2030 C2032 1.353 . S
C2030 H2088 0.929 . S
C2031 C2028 1.356 . S
C2031 C2033 1.358 . S
C2031 H2089 0.930 . S
C2032 N2029 1.314 . S
C2032 C2030 1.353 . S
C2032 H2090 0.930 . S
C2033 N2029 1.279 . S
C2033 C2031 1.358 . S
C2033 H2091 0.930 . S
C2034 C2037 1.348 . S
C2034 C2038 1.356 . S
C2034 O2085 1.325 . S
C2035 N2036 1.279 . S
C2035 C2038 1.358 . S
C2035 H2092 0.930 . S
N2036 C2035 1.279 . S
N2036 C2039 1.314 . S
C2037 C2034 1.348 . S
C2037 C2039 1.353 . S
C2037 H2093 0.929 . S
C2038 C2034 1.356 . S
C2038 C2035 1.358 . S
C2038 H2094 0.930 . S
C2039 N2036 1.314 . S
C2039 C2037 1.353 . S
C2039 H2095 0.930 . S
C2040 N2041 1.314 . S
C2040 C2045 1.353 . S
C2040 H2046 0.930 . S
N2041 Li2024 1.990 . S
N2041 C2040 1.314 . S
N2041 C2043 1.279 . S
C2042 C2043 1.358 . S
C2042 C2044 1.356 . S
C2042 H2096 0.930 . S
C2043 N2041 1.279 . S
C2043 C2042 1.358 . S
C2043 H2047 0.930 . S
C2044 C2042 1.356 . S
C2044 C2045 1.348 . S
C2045 C2040 1.353 . S
C2045 C2044 1.348 . S
C2045 H2097 0.929 . S
H2046 C2040 0.930 . S
H2047 C2043 0.930 . S
C2048 N2049 1.314 . S
C2048 C2050 1.353 . S
C2048 H2054 0.930 . S
N2049 Li2025 1.990 . S
N2049 C2048 1.314 . S
N2049 C2052 1.279 . S
C2050 C2048 1.353 . S
C2050 C2053 1.348 . S
C2050 H2098 0.929 . S
C2051 C2052 1.358 . S
C2051 C2053 1.356 . S
C2051 H2099 0.930 . S
C2052 N2049 1.279 . S
C2052 C2051 1.358 . S
C2052 H2055 0.930 . S
C2053 C2050 1.348 . S
C2053 C2051 1.356 . S
H2054 C2048 0.930 . S
H2055 C2052 0.930 . S
C2056 C2058 1.348 . S
C2056 C2059 1.356 . S
C2056 O2086 1.325 . S
N2057 C2060 1.314 . S
N2057 C2061 1.279 . S
C2058 C2056 1.348 . S
C2058 C2060 1.353 . S
C2058 H2100 0.929 . S
C2059 C2056 1.356 . S
C2059 C2061 1.358 . S
C2059 H2101 0.930 . S
C2060 N2057 1.314 . S
C2060 C2058 1.353 . S
C2060 H2102 0.930 . S
C2061 N2057 1.279 . S
C2061 C2059 1.358 . S
C2061 H2103 0.930 . S
C2062 C2063 1.348 . S
C2062 C2064 1.356 . S
C2062 O2087 1.325 . S
C2063 C2062 1.348 . S
C2063 C2065 1.353 . S
C2063 H2104 0.929 . S
C2064 C2062 1.356 . S
C2064 C2066 1.358 . S
C2064 H2105 0.930 . S
C2065 C2063 1.353 . S
C2065 N2067 1.314 . S
C2065 H2106 0.930 . S
C2066 C2064 1.358 . S
C2066 N2067 1.279 . S
C2066 H2107 0.930 . S
N2067 C2065 1.314 . S
N2067 C2066 1.279 . S
C2068 C2070 1.353 . S
C2068 N2071 1.314 . S
C2068 H2074 0.930 . S
C2069 N2071 1.279 . S
C2069 C2072 1.358 . S
C2069 H2075 0.930 . S
C2070 C2068 1.353 . S
C2070 C2073 1.348 . S
C2070 H2108 0.929 . S
N2071 Li2026 1.990 . S
N2071 C2068 1.314 . S
N2071 C2069 1.279 . S
C2072 C2069 1.358 . S
C2072 C2073 1.356 . S
C2072 H2109 0.930 . S
C2073 C2070 1.348 . S
C2073 C2072 1.356 . S
H2074 C2068 0.930 . S
H2075 C2069 0.930 . S
C2076 N2077 1.314 . S
C2076 C2078 1.353 . S
C2076 H2082 0.930 . S
N2077 Li2027 1.990 . S
N2077 C2076 1.314 . S
N2077 C2080 1.279 . S
C2078 C2076 1.353 . S
C2078 C2081 1.348 . S
C2078 H2110 0.929 . S
C2079 C2080 1.358 . S
C2079 C2081 1.356 . S
C2079 H2111 0.930 . S
C2080 N2077 1.279 . S
C2080 C2079 1.358 . S
C2080 H2083 0.930 . S
C2081 C2078 1.348 . S
C2081 C2079 1.356 . S
H2082 C2076 0.930 . S
H2083 C2080 0.930 . S
O2084 Li2024 1.956 . S
O2084 Li2025 1.970 . S
O2084 Li2026 1.961 . S
O2084 C2028 1.325 . S
O2085 Li2024 1.970 . S
O2085 Li2025 1.956 . S
O2085 Li2027 1.961 . S
O2085 C2034 1.325 . S
O2086 Li2024 1.961 . S
O2086 Li2026 1.956 . S
O2086 Li2027 1.970 . S
O2086 C2056 1.325 . S
O2087 Li2025 1.961 . S
O2087 Li2026 1.970 . S
O2087 Li2027 1.956 . S
O2087 C2062 1.325 . S
H2088 C2030 0.929 . S
H2089 C2031 0.930 . S
H2090 C2032 0.930 . S
H2091 C2033 0.930 . S
H2092 C2035 0.930 . S
H2093 C2037 0.929 . S
H2094 C2038 0.930 . S
H2095 C2039 0.930 . S
H2096 C2042 0.930 . S
H2097 C2045 0.929 . S
H2098 C2050 0.929 . S
H2099 C2051 0.930 . S
H2100 C2058 0.929 . S
H2101 C2059 0.930 . S
H2102 C2060 0.930 . S
H2103 C2061 0.930 . S
H2104 C2063 0.929 . S
H2105 C2064 0.930 . S
H2106 C2065 0.930 . S
H2107 C2066 0.930 . S
H2108 C2070 0.929 . S
H2109 C2072 0.930 . S
H2110 C2078 0.929 . S
H2111 C2079 0.930 . S
Eu2112 N2143 2.657 . S
Eu2112 N2150 2.609 1_554 S
Eu2112 O2156 2.557 1_454 S
Eu2112 O2157 2.612 . S
Eu2112 O2159 2.339 . S
Eu2112 O2160 2.563 . S
Eu2112 O2161 2.419 1_455 S
Eu2112 O2163 2.380 . S
Eu2112 O2164 2.432 1_554 S
Eu2112 C2176 2.832 1_454 S
C2113 C2116 1.429 . S
C2113 C2117 1.411 . S
C2113 N2120 1.377 . S
C2114 C2116 1.420 . S
C2114 C2118 1.423 . S
C2114 C2126 1.392 . S
C2115 C2117 1.420 . S
C2115 C2118 1.351 . S
C2115 H2138 0.931 . S
C2116 C2113 1.429 . S
C2116 C2114 1.420 . S
C2116 N2124 1.362 . S
C2117 C2113 1.411 . S
C2117 C2115 1.420 . S
C2117 C2122 1.395 . S
C2118 C2114 1.423 . S
C2118 C2115 1.351 . S
C2118 H2130 0.930 . S
C2119 C2121 1.400 . S
C2119 C2122 1.386 . S
C2119 H2131 0.930 . S
N2120 C2113 1.377 . S
N2120 C2121 1.321 . S
N2120 Eu2123 2.609 . S
C2121 C2119 1.400 . S
C2121 N2120 1.321 . S
C2121 H2128 0.930 . S
C2122 C2117 1.395 . S
C2122 C2119 1.386 . S
C2122 H2141 0.930 . S
Eu2123 N2120 2.609 . S
Eu2123 N2124 2.657 . S
Eu2123 O2157 2.380 . S
Eu2123 O2158 2.432 . S
Eu2123 O2162 2.558 . S
Eu2123 O2163 2.612 . S
Eu2123 O2165 2.343 1_554 S
Eu2123 O2166 2.563 . S
Eu2123 O2167 2.419 . S
Eu2123 C2187 2.848 . S
N2124 C2116 1.362 . S
N2124 Eu2123 2.657 . S
N2124 C2125 1.338 1_554 S
C2125 N2124 1.338 1_556 S
C2125 C2127 1.411 . S
C2125 H2132 0.927 . S
C2126 C2114 1.392 . S
C2126 C2127 1.367 1_554 S
C2126 H2134 0.906 1_554 S
C2127 C2125 1.411 . S
C2127 C2126 1.367 1_556 S
C2127 H2129 0.930 . S
H2128 C2121 0.930 . S
H2129 C2127 0.930 . S
H2130 C2118 0.930 . S
H2131 C2119 0.930 . S
H2132 C2125 0.927 . S
H2133 C2147 0.930 . S
H2134 C2126 0.906 1_556 S
H2135 C2153 0.964 . S
H2136 C2144 0.929 . S
H2137 C2151 0.930 . S
H2138 C2115 0.931 . S
H2139 C2145 0.930 . S
H2140 C2178 0.930 . S
H2141 C2122 0.930 . S
H2142 C2177 0.931 . S
N2143 Eu2112 2.657 . S
N2143 C2144 1.334 . S
N2143 C2148 1.362 1_545 S
C2144 H2136 0.929 . S
C2144 N2143 1.334 . S
C2144 C2147 1.413 1_545 S
C2145 H2139 0.930 . S
C2145 C2146 1.392 . S
C2145 C2147 1.367 1_655 S
C2146 C2145 1.392 . S
C2146 C2148 1.420 1_655 S
C2146 C2178 1.423 . S
C2147 H2133 0.930 . S
C2147 C2144 1.413 1_565 S
C2147 C2145 1.367 1_455 S
C2148 N2143 1.362 1_565 S
C2148 C2146 1.420 1_455 S
C2148 C2152 1.429 1_554 S
H2149 C2154 0.930 . S
N2150 Eu2112 2.609 1_556 S
N2150 C2152 1.377 1_545 S
N2150 C2153 1.316 . S
C2151 H2137 0.930 . S
C2151 C2153 1.375 1_565 S
C2151 C2154 1.386 1_455 S
C2152 C2148 1.429 1_556 S
C2152 N2150 1.377 1_565 S
C2152 C2155 1.411 1_455 S
C2153 H2135 0.964 . S
C2153 N2150 1.316 . S
C2153 C2151 1.375 1_545 S
C2154 H2149 0.930 . S
C2154 C2151 1.386 1_655 S
C2154 C2155 1.395 . S
C2155 C2152 1.411 1_655 S
C2155 C2154 1.395 . S
C2155 C2177 1.420 . S
O2156 Eu2112 2.557 1_656 S
O2156 C2176 1.311 . S
O2157 Eu2112 2.612 . S
O2157 Eu2123 2.380 . S
O2157 C2168 1.276 . S
O2158 Eu2123 2.432 . S
O2158 C2175 1.264 . S
O2159 Eu2112 2.339 . S
O2159 C2175 1.254 . S
O2160 Eu2112 2.563 . S
O2160 C2168 1.235 . S
O2161 Eu2112 2.419 1_655 S
O2161 C2176 1.184 1_554 S
O2162 Eu2123 2.558 . S
O2162 C2187 1.257 . S
O2163 Eu2112 2.380 . S
O2163 Eu2123 2.612 . S
O2163 C2179 1.276 . S
O2164 Eu2112 2.432 1_556 S
O2164 C2186 1.264 . S
O2165 Eu2123 2.343 1_556 S
O2165 C2186 1.250 . S
O2166 Eu2123 2.563 . S
O2166 C2179 1.235 . S
O2167 Eu2123 2.419 . S
O2167 C2187 1.249 . S
C2168 O2157 1.276 . S
C2168 O2160 1.235 . S
C2169 C2171 1.393 1_556 S
C2169 C2173 1.395 . S
C2169 C2176 1.507 . S
C2170 C2171 1.392 . S
C2170 C2172 1.386 1_554 S
C2171 C2169 1.393 1_554 S
C2171 C2170 1.392 . S
C2171 H2188 0.930 . S
C2172 C2170 1.386 1_556 S
C2172 C2174 1.395 . S
C2172 H2189 0.930 . S
C2173 C2169 1.395 . S
C2173 C2174 1.379 . S
C2173 H2190 0.930 . S
C2174 C2172 1.395 . S
C2174 C2173 1.379 . S
C2174 H2191 0.930 . S
C2175 O2158 1.264 . S
C2175 O2159 1.254 . S
C2176 Eu2112 2.832 1_656 S
C2176 O2156 1.311 . S
C2176 O2161 1.184 1_556 S
C2176 C2169 1.507 . S
C2177 H2142 0.931 . S
C2177 C2155 1.420 . S
C2177 C2178 1.351 1_556 S
C2178 H2140 0.930 . S
C2178 C2146 1.423 . S
C2178 C2177 1.351 1_554 S
C2179 O2163 1.276 . S
C2179 O2166 1.235 . S
C2180 C2181 1.393 . S
C2180 C2184 1.395 . S
C2180 C2187 1.492 . S
C2181 C2180 1.393 . S
C2181 C2182 1.392 . S
C2181 H2192 0.930 . S
C2182 C2181 1.392 . S
C2182 C2183 1.386 . S
C2183 C2182 1.386 . S
C2183 C2185 1.395 . S
C2183 H2193 0.930 . S
C2184 C2180 1.395 . S
C2184 C2185 1.379 . S
C2184 H2194 0.930 . S
C2185 C2183 1.395 . S
C2185 C2184 1.379 . S
C2185 H2195 0.930 . S
C2186 O2164 1.264 . S
C2186 O2165 1.250 . S
C2187 Eu2123 2.848 . S
C2187 O2162 1.257 . S
C2187 O2167 1.249 . S
C2187 C2180 1.492 . S
H2188 C2171 0.930 . S
H2189 C2172 0.930 . S
H2190 C2173 0.930 . S
H2191 C2174 0.930 . S
H2192 C2181 0.930 . S
H2193 C2183 0.930 . S
H2194 C2184 0.930 . S
H2195 C2185 0.930 . S
Eu2196 N2227 2.657 . S
Eu2196 N2234 2.609 . S
Eu2196 O2240 2.558 . S
Eu2196 O2241 2.612 . S
Eu2196 O2243 2.339 . S
Eu2196 O2244 2.563 . S
Eu2196 O2245 2.419 . S
Eu2196 O2247 2.380 . S
Eu2196 O2248 2.432 . S
Eu2196 C2260 2.848 . S
C2197 C2200 1.429 . S
C2197 C2201 1.411 . S
C2197 N2204 1.377 . S
C2198 C2200 1.420 . S
C2198 C2202 1.423 . S
C2198 C2210 1.392 . S
C2199 C2201 1.420 . S
C2199 C2202 1.351 . S
C2199 H2222 0.931 . S
C2200 C2197 1.429 . S
C2200 C2198 1.420 . S
C2200 N2208 1.362 . S
C2201 C2197 1.411 . S
C2201 C2199 1.420 . S
C2201 C2206 1.395 . S
C2202 C2198 1.423 . S
C2202 C2199 1.351 . S
C2202 H2214 0.930 . S
C2203 C2205 1.400 . S
C2203 C2206 1.386 . S
C2203 H2215 0.930 . S
N2204 C2197 1.377 . S
N2204 C2205 1.321 . S
N2204 Eu2207 2.609 . S
C2205 C2203 1.400 . S
C2205 N2204 1.321 . S
C2205 H2212 0.930 . S
C2206 C2201 1.395 . S
C2206 C2203 1.386 . S
C2206 H2225 0.930 . S
Eu2207 N2204 2.609 . S
Eu2207 N2208 2.657 . S
Eu2207 O2241 2.380 . S
Eu2207 O2242 2.432 . S
Eu2207 O2246 2.558 . S
Eu2207 O2247 2.612 . S
Eu2207 O2249 2.339 . S
Eu2207 O2250 2.563 . S
Eu2207 O2251 2.419 . S
Eu2207 C2271 2.848 . S
N2208 C2200 1.362 . S
N2208 Eu2207 2.657 . S
N2208 C2209 1.334 . S
C2209 N2208 1.334 . S
C2209 C2211 1.413 . S
C2209 H2216 0.929 . S
C2210 C2198 1.392 . S
C2210 C2211 1.367 . S
C2210 H2218 0.930 . S
C2211 C2209 1.413 . S
C2211 C2210 1.367 . S
C2211 H2213 0.930 . S
H2212 C2205 0.930 . S
H2213 C2211 0.930 . S
H2214 C2202 0.930 . S
H2215 C2203 0.930 . S
H2216 C2209 0.929 . S
H2217 C2231 0.930 . S
H2218 C2210 0.930 . S
H2219 C2237 0.930 . S
H2220 C2228 0.929 . S
H2221 C2235 0.930 . S
H2222 C2199 0.931 . S
H2223 C2229 0.930 . S
H2224 C2262 0.930 . S
H2225 C2206 0.930 . S
H2226 C2261 0.931 . S
N2227 Eu2196 2.657 . S
N2227 C2228 1.334 . S
N2227 C2232 1.362 . S
C2228 H2220 0.929 . S
C2228 N2227 1.334 . S
C2228 C2231 1.413 . S
C2229 H2223 0.930 . S
C2229 C2230 1.392 . S
C2229 C2231 1.367 . S
C2230 C2229 1.392 . S
C2230 C2232 1.420 . S
C2230 C2262 1.423 . S
C2231 H2217 0.930 . S
C2231 C2228 1.413 . S
C2231 C2229 1.367 . S
C2232 N2227 1.362 . S
C2232 C2230 1.420 . S
C2232 C2236 1.429 . S
H2233 C2238 0.930 . S
N2234 Eu2196 2.609 . S
N2234 C2236 1.377 . S
N2234 C2237 1.321 . S
C2235 H2221 0.930 . S
C2235 C2237 1.400 . S
C2235 C2238 1.386 . S
C2236 C2232 1.429 . S
C2236 N2234 1.377 . S
C2236 C2239 1.411 . S
C2237 H2219 0.930 . S
C2237 N2234 1.321 . S
C2237 C2235 1.400 . S
C2238 H2233 0.930 . S
C2238 C2235 1.386 . S
C2238 C2239 1.395 . S
C2239 C2236 1.411 . S
C2239 C2238 1.395 . S
C2239 C2261 1.420 . S
O2240 Eu2196 2.558 . S
O2240 C2260 1.257 . S
O2241 Eu2196 2.612 . S
O2241 Eu2207 2.380 . S
O2241 C2252 1.276 . S
O2242 Eu2207 2.432 . S
O2242 C2259 1.264 . S
O2243 Eu2196 2.339 . S
O2243 C2259 1.254 . S
O2244 Eu2196 2.563 . S
O2244 C2252 1.235 . S
O2245 Eu2196 2.419 . S
O2245 C2260 1.249 . S
O2246 Eu2207 2.558 . S
O2246 C2271 1.257 . S
O2247 Eu2196 2.380 . S
O2247 Eu2207 2.612 . S
O2247 C2263 1.276 . S
O2248 Eu2196 2.432 . S
O2248 C2270 1.264 . S
O2249 Eu2207 2.339 . S
O2249 C2270 1.254 . S
O2250 Eu2207 2.563 . S
O2250 C2263 1.235 . S
O2251 Eu2207 2.419 . S
O2251 C2271 1.249 . S
C2252 O2241 1.276 . S
C2252 O2244 1.235 . S
C2253 C2255 1.393 . S
C2253 C2257 1.395 . S
C2253 C2260 1.492 . S
C2254 C2255 1.392 . S
C2254 C2256 1.386 . S
C2255 C2253 1.393 . S
C2255 C2254 1.392 . S
C2255 H2272 0.930 . S
C2256 C2254 1.386 . S
C2256 C2258 1.395 . S
C2256 H2273 0.930 . S
C2257 C2253 1.395 . S
C2257 C2258 1.379 . S
C2257 H2274 0.930 . S
C2258 C2256 1.395 . S
C2258 C2257 1.379 . S
C2258 H2275 0.930 . S
C2259 O2242 1.264 . S
C2259 O2243 1.254 . S
C2260 Eu2196 2.848 . S
C2260 O2240 1.257 . S
C2260 O2245 1.249 . S
C2260 C2253 1.492 . S
C2261 H2226 0.931 . S
C2261 C2239 1.420 . S
C2261 C2262 1.351 . S
C2262 H2224 0.930 . S
C2262 C2230 1.423 . S
C2262 C2261 1.351 . S
C2263 O2247 1.276 . S
C2263 O2250 1.235 . S
C2264 C2265 1.393 . S
C2264 C2268 1.395 . S
C2264 C2271 1.492 . S
C2265 C2264 1.393 . S
C2265 C2266 1.392 . S
C2265 H2276 0.930 . S
C2266 C2265 1.392 . S
C2266 C2267 1.386 . S
C2267 C2266 1.386 . S
C2267 C2269 1.395 . S
C2267 H2277 0.930 . S
C2268 C2264 1.395 . S
C2268 C2269 1.379 . S
C2268 H2278 0.930 . S
C2269 C2267 1.395 . S
C2269 C2268 1.379 . S
C2269 H2279 0.930 . S
C2270 O2248 1.264 . S
C2270 O2249 1.254 . S
C2271 Eu2207 2.848 . S
C2271 O2246 1.257 . S
C2271 O2251 1.249 . S
C2271 C2264 1.492 . S
H2272 C2255 0.930 . S
H2273 C2256 0.930 . S
H2274 C2257 0.930 . S
H2275 C2258 0.930 . S
H2276 C2265 0.930 . S
H2277 C2267 0.930 . S
H2278 C2268 0.930 . S
H2279 C2269 0.930 . S
Eu2280 N2311 2.657 . S
Eu2280 N2318 2.609 . S
Eu2280 O2324 2.558 . S
Eu2280 O2325 2.612 . S
Eu2280 O2327 2.339 . S
Eu2280 O2328 2.563 . S
Eu2280 O2329 2.419 . S
Eu2280 O2331 2.380 . S
Eu2280 O2332 2.432 . S
Eu2280 C2344 2.848 . S
C2281 C2284 1.429 1_545 S
C2281 C2285 1.411 1_545 S
C2281 N2288 1.377 . S
C2282 C2284 1.420 . S
C2282 C2286 1.423 . S
C2282 C2294 1.392 . S
C2283 C2285 1.420 . S
C2283 C2286 1.351 . S
C2283 H2306 0.931 . S
C2284 C2281 1.429 1_565 S
C2284 C2282 1.420 . S
C2284 N2292 1.362 1_565 S
C2285 C2281 1.411 1_565 S
C2285 C2283 1.420 . S
C2285 C2290 1.395 . S
C2286 C2282 1.423 . S
C2286 C2283 1.351 . S
C2286 H2298 0.930 . S
C2287 C2289 1.400 . S
C2287 C2290 1.386 1_545 S
C2287 H2299 0.930 . S
N2288 C2281 1.377 . S
N2288 C2289 1.321 . S
N2288 Eu2291 2.609 . S
C2289 C2287 1.400 . S
C2289 N2288 1.321 . S
C2289 H2296 0.930 . S
C2290 C2285 1.395 . S
C2290 C2287 1.386 1_565 S
C2290 H2309 0.930 . S
Eu2291 N2288 2.609 . S
Eu2291 N2292 2.657 . S
Eu2291 O2325 2.380 . S
Eu2291 O2326 2.432 . S
Eu2291 O2330 2.558 . S
Eu2291 O2331 2.612 . S
Eu2291 O2333 2.339 . S
Eu2291 O2334 2.563 . S
Eu2291 O2335 2.419 . S
Eu2291 C2355 2.848 . S
N2292 C2284 1.362 1_545 S
N2292 Eu2291 2.657 . S
N2292 C2293 1.334 . S
C2293 N2292 1.334 . S
C2293 C2295 1.413 1_545 S
C2293 H2300 0.929 . S
C2294 C2282 1.392 . S
C2294 C2295 1.367 . S
C2294 H2302 0.930 . S
C2295 C2293 1.413 1_565 S
C2295 C2294 1.367 . S
C2295 H2297 0.930 . S
H2296 C2289 0.930 . S
H2297 C2295 0.930 . S
H2298 C2286 0.930 . S
H2299 C2287 0.930 . S
H2300 C2293 0.929 . S
H2301 C2315 0.930 . S
H2302 C2294 0.930 . S
H2303 C2321 0.930 . S
H2304 C2312 0.929 . S
H2305 C2319 0.930 . S
H2306 C2283 0.931 . S
H2307 C2313 0.930 . S
H2308 C2346 0.930 . S
H2309 C2290 0.930 . S
H2310 C2345 0.931 . S
N2311 Eu2280 2.657 . S
N2311 C2312 1.334 . S
N2311 C2316 1.362 . S
C2312 H2304 0.929 . S
C2312 N2311 1.334 . S
C2312 C2315 1.413 . S
C2313 H2307 0.930 . S
C2313 C2314 1.392 . S
C2313 C2315 1.367 . S
C2314 C2313 1.392 . S
C2314 C2316 1.420 . S
C2314 C2346 1.423 . S
C2315 H2301 0.930 . S
C2315 C2312 1.413 . S
C2315 C2313 1.367 . S
C2316 N2311 1.362 . S
C2316 C2314 1.420 . S
C2316 C2320 1.429 . S
H2317 C2322 0.930 . S
N2318 Eu2280 2.609 . S
N2318 C2320 1.377 . S
N2318 C2321 1.321 . S
C2319 H2305 0.930 . S
C2319 C2321 1.400 . S
C2319 C2322 1.386 . S
C2320 C2316 1.429 . S
C2320 N2318 1.377 . S
C2320 C2323 1.411 . S
C2321 H2303 0.930 . S
C2321 N2318 1.321 . S
C2321 C2319 1.400 . S
C2322 H2317 0.930 . S
C2322 C2319 1.386 . S
C2322 C2323 1.395 . S
C2323 C2320 1.411 . S
C2323 C2322 1.395 . S
C2323 C2345 1.420 . S
O2324 Eu2280 2.558 . S
O2324 C2344 1.257 . S
O2325 Eu2280 2.612 . S
O2325 Eu2291 2.380 . S
O2325 C2336 1.276 . S
O2326 Eu2291 2.432 . S
O2326 C2343 1.264 . S
O2327 Eu2280 2.339 . S
O2327 C2343 1.254 . S
O2328 Eu2280 2.563 . S
O2328 C2336 1.235 . S
O2329 Eu2280 2.419 . S
O2329 C2344 1.249 . S
O2330 Eu2291 2.558 . S
O2330 C2355 1.257 . S
O2331 Eu2280 2.380 . S
O2331 Eu2291 2.612 . S
O2331 C2347 1.276 . S
O2332 Eu2280 2.432 . S
O2332 C2354 1.264 . S
O2333 Eu2291 2.339 . S
O2333 C2354 1.254 . S
O2334 Eu2291 2.563 . S
O2334 C2347 1.235 . S
O2335 Eu2291 2.419 . S
O2335 C2355 1.249 . S
C2336 O2325 1.276 . S
C2336 O2328 1.235 . S
C2337 C2339 1.393 . S
C2337 C2341 1.395 . S
C2337 C2344 1.492 . S
C2338 C2339 1.432 . S
C2338 C2340 1.393 . S
C2339 C2337 1.393 . S
C2339 C2338 1.432 . S
C2339 H2356 0.930 . S
C2340 C2338 1.393 . S
C2340 C2342 1.395 . S
C2340 H2357 0.930 1_545 S
C2341 C2337 1.395 . S
C2341 C2342 1.379 . S
C2341 H2358 0.930 . S
C2342 C2340 1.395 . S
C2342 C2341 1.379 . S
C2342 H2359 0.930 . S
C2343 O2326 1.264 . S
C2343 O2327 1.254 . S
C2344 Eu2280 2.848 . S
C2344 O2324 1.257 . S
C2344 O2329 1.249 . S
C2344 C2337 1.492 . S
C2345 H2310 0.931 . S
C2345 C2323 1.420 . S
C2345 C2346 1.351 . S
C2346 H2308 0.930 . S
C2346 C2314 1.423 . S
C2346 C2345 1.351 . S
C2347 O2331 1.276 . S
C2347 O2334 1.235 . S
C2348 C2349 1.393 . S
C2348 C2352 1.395 . S
C2348 C2355 1.492 . S
C2349 C2348 1.393 . S
C2349 C2350 1.392 . S
C2349 H2360 0.930 . S
C2350 C2349 1.392 . S
C2350 C2351 1.386 . S
C2351 C2350 1.386 . S
C2351 C2353 1.395 . S
C2351 H2361 0.930 . S
C2352 C2348 1.395 . S
C2352 C2353 1.379 . S
C2352 H2362 0.930 . S
C2353 C2351 1.395 . S
C2353 C2352 1.379 . S
C2353 H2363 0.930 . S
C2354 O2332 1.264 . S
C2354 O2333 1.254 . S
C2355 Eu2291 2.848 . S
C2355 O2330 1.257 . S
C2355 O2335 1.249 . S
C2355 C2348 1.492 . S
H2356 C2339 0.930 . S
H2357 C2340 0.930 1_565 S
H2358 C2341 0.930 . S
H2359 C2342 0.930 . S
H2360 C2349 0.930 . S
H2361 C2351 0.930 . S
H2362 C2352 0.930 . S
H2363 C2353 0.930 . S
Eu2364 N2395 2.657 . S
Eu2364 N2402 2.609 . S
Eu2364 O2408 2.558 . S
Eu2364 O2409 2.612 . S
Eu2364 O2411 2.339 . S
Eu2364 O2412 2.563 . S
Eu2364 O2413 2.419 . S
Eu2364 O2415 2.380 . S
Eu2364 O2416 2.432 . S
Eu2364 C2428 2.848 . S
C2365 C2368 1.429 . S
C2365 C2369 1.411 . S
C2365 N2372 1.377 . S
C2366 C2368 1.420 . S
C2366 C2370 1.423 . S
C2366 C2378 1.392 . S
C2367 C2369 1.420 . S
C2367 C2370 1.351 . S
C2367 H2390 0.931 . S
C2368 C2365 1.429 . S
C2368 C2366 1.420 . S
C2368 N2376 1.362 . S
C2369 C2365 1.411 . S
C2369 C2367 1.420 . S
C2369 C2374 1.395 . S
C2370 C2366 1.423 . S
C2370 C2367 1.351 . S
C2370 H2382 0.930 . S
C2371 C2373 1.400 . S
C2371 C2374 1.386 . S
C2371 H2383 0.930 . S
N2372 C2365 1.377 . S
N2372 C2373 1.321 . S
N2372 Eu2375 2.609 . S
C2373 C2371 1.400 . S
C2373 N2372 1.321 . S
C2373 H2380 0.930 . S
C2374 C2369 1.395 . S
C2374 C2371 1.386 . S
C2374 H2393 0.930 . S
Eu2375 N2372 2.609 . S
Eu2375 N2376 2.657 . S
Eu2375 O2409 2.380 . S
Eu2375 O2410 2.432 . S
Eu2375 O2414 2.558 . S
Eu2375 O2415 2.612 . S
Eu2375 O2417 2.339 . S
Eu2375 O2418 2.563 . S
Eu2375 O2419 2.419 . S
Eu2375 C2439 2.848 . S
N2376 C2368 1.362 . S
N2376 Eu2375 2.657 . S
N2376 C2377 1.334 . S
C2377 N2376 1.334 . S
C2377 C2379 1.413 . S
C2377 H2384 0.929 . S
C2378 C2366 1.392 . S
C2378 C2379 1.367 . S
C2378 H2386 0.930 . S
C2379 C2377 1.413 . S
C2379 C2378 1.367 . S
C2379 H2381 0.930 . S
H2380 C2373 0.930 . S
H2381 C2379 0.930 . S
H2382 C2370 0.930 . S
H2383 C2371 0.930 . S
H2384 C2377 0.929 . S
H2385 C2399 0.930 . S
H2386 C2378 0.930 . S
H2387 C2405 0.930 . S
H2388 C2396 0.929 . S
H2389 C2403 0.930 . S
H2390 C2367 0.931 . S
H2391 C2397 0.930 . S
H2392 C2430 0.930 . S
H2393 C2374 0.930 . S
H2394 C2429 0.931 . S
N2395 Eu2364 2.657 . S
N2395 C2396 1.334 . S
N2395 C2400 1.362 . S
C2396 H2388 0.929 . S
C2396 N2395 1.334 . S
C2396 C2399 1.413 . S
C2397 H2391 0.930 . S
C2397 C2398 1.392 . S
C2397 C2399 1.367 . S
C2398 C2397 1.392 . S
C2398 C2400 1.420 . S
C2398 C2430 1.423 . S
C2399 H2385 0.930 . S
C2399 C2396 1.413 . S
C2399 C2397 1.367 . S
C2400 N2395 1.362 . S
C2400 C2398 1.420 . S
C2400 C2404 1.429 . S
H2401 C2406 0.930 . S
N2402 Eu2364 2.609 . S
N2402 C2404 1.377 . S
N2402 C2405 1.321 . S
C2403 H2389 0.930 . S
C2403 C2405 1.400 . S
C2403 C2406 1.386 . S
C2404 C2400 1.429 . S
C2404 N2402 1.377 . S
C2404 C2407 1.411 . S
C2405 H2387 0.930 . S
C2405 N2402 1.321 . S
C2405 C2403 1.400 . S
C2406 H2401 0.930 . S
C2406 C2403 1.386 . S
C2406 C2407 1.395 . S
C2407 C2404 1.411 . S
C2407 C2406 1.395 . S
C2407 C2429 1.420 . S
O2408 Eu2364 2.558 . S
O2408 C2428 1.257 . S
O2409 Eu2364 2.612 . S
O2409 Eu2375 2.380 . S
O2409 C2420 1.276 . S
O2410 Eu2375 2.432 . S
O2410 C2427 1.264 . S
O2411 Eu2364 2.339 . S
O2411 C2427 1.254 . S
O2412 Eu2364 2.563 . S
O2412 C2420 1.235 . S
O2413 Eu2364 2.419 . S
O2413 C2428 1.249 . S
O2414 Eu2375 2.558 . S
O2414 C2439 1.257 . S
O2415 Eu2364 2.380 . S
O2415 Eu2375 2.612 . S
O2415 C2431 1.276 . S
O2416 Eu2364 2.432 . S
O2416 C2438 1.264 . S
O2417 Eu2375 2.339 . S
O2417 C2438 1.254 . S
O2418 Eu2375 2.563 . S
O2418 C2431 1.235 . S
O2419 Eu2375 2.419 . S
O2419 C2439 1.249 . S
C2420 O2409 1.276 . S
C2420 O2412 1.235 . S
C2421 C2423 1.393 . S
C2421 C2425 1.395 . S
C2421 C2428 1.492 . S
C2422 C2423 1.392 . S
C2422 C2424 1.386 . S
C2423 C2421 1.393 . S
C2423 C2422 1.392 . S
C2423 H2440 0.930 . S
C2424 C2422 1.386 . S
C2424 C2426 1.395 . S
C2424 H2441 0.930 . S
C2425 C2421 1.395 . S
C2425 C2426 1.379 . S
C2425 H2442 0.930 . S
C2426 C2424 1.395 . S
C2426 C2425 1.379 . S
C2426 H2443 0.930 . S
C2427 O2410 1.264 . S
C2427 O2411 1.254 . S
C2428 Eu2364 2.848 . S
C2428 O2408 1.257 . S
C2428 O2413 1.249 . S
C2428 C2421 1.492 . S
C2429 H2394 0.931 . S
C2429 C2407 1.420 . S
C2429 C2430 1.351 . S
C2430 H2392 0.930 . S
C2430 C2398 1.423 . S
C2430 C2429 1.351 . S
C2431 O2415 1.276 . S
C2431 O2418 1.235 . S
C2432 C2433 1.393 . S
C2432 C2436 1.395 . S
C2432 C2439 1.492 . S
C2433 C2432 1.393 . S
C2433 C2434 1.392 . S
C2433 H2444 0.930 . S
C2434 C2433 1.392 . S
C2434 C2435 1.386 . S
C2435 C2434 1.386 . S
C2435 C2437 1.395 . S
C2435 H2445 0.930 . S
C2436 C2432 1.395 . S
C2436 C2437 1.379 . S
C2436 H2446 0.930 . S
C2437 C2435 1.395 . S
C2437 C2436 1.379 . S
C2437 H2447 0.930 . S
C2438 O2416 1.264 . S
C2438 O2417 1.254 . S
C2439 Eu2375 2.848 . S
C2439 O2414 1.257 . S
C2439 O2419 1.249 . S
C2439 C2432 1.492 . S
H2440 C2423 0.930 . S
H2441 C2424 0.930 . S
H2442 C2425 0.930 . S
H2443 C2426 0.930 . S
H2444 C2433 0.930 . S
H2445 C2435 0.930 . S
H2446 C2436 0.930 . S
H2447 C2437 0.930 . S
Eu2448 N2479 2.657 . S
Eu2448 N2486 2.609 . S
Eu2448 O2492 2.558 . S
Eu2448 O2493 2.612 . S
Eu2448 O2495 2.339 . S
Eu2448 O2496 2.563 . S
Eu2448 O2497 2.419 . S
Eu2448 O2499 2.380 . S
Eu2448 O2500 2.432 . S
Eu2448 C2512 2.848 . S
C2449 C2452 1.429 . S
C2449 C2453 1.411 . S
C2449 N2456 1.377 1_565 S
C2450 C2452 1.420 . S
C2450 C2454 1.423 . S
C2450 C2462 1.392 . S
C2451 C2453 1.420 . S
C2451 C2454 1.351 . S
C2451 H2474 0.931 . S
C2452 C2449 1.429 . S
C2452 C2450 1.420 . S
C2452 N2460 1.361 1_565 S
C2453 C2449 1.411 . S
C2453 C2451 1.420 . S
C2453 C2458 1.395 . S
C2454 C2450 1.423 . S
C2454 C2451 1.351 . S
C2454 H2466 0.930 . S
C2455 C2457 1.399 1_565 S
C2455 C2458 1.386 . S
C2455 H2467 0.930 1_565 S
N2456 C2449 1.377 1_545 S
N2456 C2457 1.321 . S
N2456 Eu2459 2.609 . S
C2457 C2455 1.399 1_545 S
C2457 N2456 1.321 . S
C2457 H2464 0.930 . S
C2458 C2453 1.395 . S
C2458 C2455 1.386 . S
C2458 H2477 0.930 . S
Eu2459 N2456 2.609 . S
Eu2459 N2460 2.657 . S
Eu2459 O2493 2.380 . S
Eu2459 O2494 2.432 . S
Eu2459 O2498 2.558 1_545 S
Eu2459 O2499 2.612 . S
Eu2459 O2501 2.339 . S
Eu2459 O2502 2.563 . S
Eu2459 O2503 2.419 1_545 S
Eu2459 C2523 2.848 1_545 S
N2460 C2452 1.361 1_545 S
N2460 Eu2459 2.657 . S
N2460 C2461 1.334 1_545 S
C2461 N2460 1.334 1_565 S
C2461 C2463 1.413 . S
C2461 H2468 0.929 1_565 S
C2462 C2450 1.392 . S
C2462 C2463 1.367 . S
C2462 H2470 0.930 . S
C2463 C2461 1.413 . S
C2463 C2462 1.367 . S
C2463 H2465 0.930 1_455 S
H2464 C2457 0.930 . S
H2465 C2463 0.930 1_655 S
H2466 C2454 0.930 . S
H2467 C2455 0.930 1_545 S
H2468 C2461 0.929 1_545 S
H2469 C2483 0.930 . S
H2470 C2462 0.930 . S
H2471 C2489 0.930 . S
H2472 C2480 0.929 . S
H2473 C2487 0.930 1_655 S
H2474 C2451 0.931 . S
H2475 C2481 0.930 . S
H2476 C2514 0.930 . S
H2477 C2458 0.930 . S
H2478 C2513 0.931 . S
N2479 Eu2448 2.657 . S
N2479 C2480 1.334 . S
N2479 C2484 1.362 . S
C2480 H2472 0.929 . S
C2480 N2479 1.334 . S
C2480 C2483 1.413 . S
C2481 H2475 0.930 . S
C2481 C2482 1.392 . S
C2481 C2483 1.367 . S
C2482 C2481 1.392 . S
C2482 C2484 1.420 . S
C2482 C2514 1.423 . S
C2483 H2469 0.930 . S
C2483 C2480 1.413 . S
C2483 C2481 1.367 . S
C2484 N2479 1.362 . S
C2484 C2482 1.420 . S
C2484 C2488 1.429 . S
H2485 C2490 0.930 . S
N2486 Eu2448 2.609 . S
N2486 C2488 1.377 . S
N2486 C2489 1.321 . S
C2487 H2473 0.930 1_455 S
C2487 C2489 1.400 . S
C2487 C2490 1.386 . S
C2488 C2484 1.429 . S
C2488 N2486 1.377 . S
C2488 C2491 1.411 . S
C2489 H2471 0.930 . S
C2489 N2486 1.321 . S
C2489 C2487 1.400 . S
C2490 H2485 0.930 . S
C2490 C2487 1.386 . S
C2490 C2491 1.395 . S
C2491 C2488 1.411 . S
C2491 C2490 1.395 . S
C2491 C2513 1.420 . S
O2492 Eu2448 2.558 . S
O2492 C2512 1.257 . S
O2493 Eu2448 2.612 . S
O2493 Eu2459 2.380 . S
O2493 C2504 1.276 . S
O2494 Eu2459 2.432 . S
O2494 C2511 1.264 . S
O2495 Eu2448 2.339 . S
O2495 C2511 1.254 . S
O2496 Eu2448 2.563 . S
O2496 C2504 1.235 . S
O2497 Eu2448 2.419 . S
O2497 C2512 1.249 . S
O2498 Eu2459 2.558 1_565 S
O2498 C2523 1.257 . S
O2499 Eu2448 2.380 . S
O2499 Eu2459 2.612 . S
O2499 C2515 1.276 . S
O2500 Eu2448 2.432 . S
O2500 C2522 1.264 . S
O2501 Eu2459 2.339 . S
O2501 C2522 1.254 . S
O2502 Eu2459 2.563 . S
O2502 C2515 1.235 . S
O2503 Eu2459 2.419 1_565 S
O2503 C2523 1.249 . S
C2504 O2493 1.276 . S
C2504 O2496 1.235 . S
C2505 C2507 1.393 . S
C2505 C2509 1.395 . S
C2505 C2512 1.492 . S
C2506 C2507 1.392 . S
C2506 C2508 1.386 . S
C2507 C2505 1.393 . S
C2507 C2506 1.392 . S
C2507 H2524 0.930 . S
C2508 C2506 1.386 . S
C2508 C2510 1.395 . S
C2508 H2525 0.930 . S
C2509 C2505 1.395 . S
C2509 C2510 1.379 . S
C2509 H2526 0.930 . S
C2510 C2508 1.395 . S
C2510 C2509 1.379 . S
C2510 H2527 0.930 . S
C2511 O2494 1.264 . S
C2511 O2495 1.254 . S
C2512 Eu2448 2.848 . S
C2512 O2492 1.257 . S
C2512 O2497 1.249 . S
C2512 C2505 1.492 . S
C2513 H2478 0.931 . S
C2513 C2491 1.420 . S
C2513 C2514 1.351 . S
C2514 H2476 0.930 . S
C2514 C2482 1.423 . S
C2514 C2513 1.351 . S
C2515 O2499 1.276 . S
C2515 O2502 1.235 . S
C2516 C2517 1.393 . S
C2516 C2520 1.395 . S
C2516 C2523 1.492 . S
C2517 C2516 1.393 . S
C2517 C2518 1.392 . S
C2517 H2528 0.930 . S
C2518 C2517 1.392 . S
C2518 C2519 1.386 . S
C2519 C2518 1.386 . S
C2519 C2521 1.395 . S
C2519 H2529 0.930 . S
C2520 C2516 1.395 . S
C2520 C2521 1.379 . S
C2520 H2530 0.930 . S
C2521 C2519 1.395 . S
C2521 C2520 1.379 . S
C2521 H2531 0.930 . S
C2522 O2500 1.264 . S
C2522 O2501 1.254 . S
C2523 Eu2459 2.848 1_565 S
C2523 O2498 1.257 . S
C2523 O2503 1.249 . S
C2523 C2516 1.492 . S
H2524 C2507 0.930 . S
H2525 C2508 0.930 . S
H2526 C2509 0.930 . S
H2527 C2510 0.930 . S
H2528 C2517 0.930 . S
H2529 C2519 0.930 . S
H2530 C2520 0.930 . S
H2531 C2521 0.930 . S
Eu2532 N2563 2.657 . S
Eu2532 N2570 2.609 . S
Eu2532 O2576 2.558 . S
Eu2532 O2577 2.612 . S
Eu2532 O2579 2.339 . S
Eu2532 O2580 2.563 . S
Eu2532 O2581 2.419 . S
Eu2532 O2583 2.380 . S
Eu2532 O2584 2.432 . S
Eu2532 C2596 2.848 . S
C2533 C2536 1.429 . S
C2533 C2537 1.411 . S
C2533 N2540 1.377 . S
C2534 C2536 1.420 . S
C2534 C2538 1.423 . S
C2534 C2546 1.392 . S
C2535 C2537 1.420 . S
C2535 C2538 1.351 . S
C2535 H2558 0.931 . S
C2536 C2533 1.429 . S
C2536 C2534 1.420 . S
C2536 N2544 1.362 . S
C2537 C2533 1.411 . S
C2537 C2535 1.420 . S
C2537 C2542 1.395 . S
C2538 C2534 1.423 . S
C2538 C2535 1.351 . S
C2538 H2550 0.930 . S
C2539 C2541 1.400 . S
C2539 C2542 1.386 . S
C2539 H2551 0.930 . S
N2540 C2533 1.377 . S
N2540 C2541 1.321 . S
N2540 Eu2543 2.609 . S
C2541 C2539 1.400 . S
C2541 N2540 1.321 . S
C2541 H2548 0.930 . S
C2542 C2537 1.395 . S
C2542 C2539 1.386 . S
C2542 H2561 0.930 . S
Eu2543 N2540 2.609 . S
Eu2543 N2544 2.657 . S
Eu2543 O2577 2.380 . S
Eu2543 O2578 2.432 . S
Eu2543 O2582 2.558 . S
Eu2543 O2583 2.612 . S
Eu2543 O2585 2.339 . S
Eu2543 O2586 2.563 . S
Eu2543 O2587 2.419 . S
Eu2543 C2607 2.848 . S
N2544 C2536 1.362 . S
N2544 Eu2543 2.657 . S
N2544 C2545 1.334 . S
C2545 N2544 1.334 . S
C2545 C2547 1.413 . S
C2545 H2552 0.929 . S
C2546 C2534 1.392 . S
C2546 C2547 1.367 . S
C2546 H2554 0.930 . S
C2547 C2545 1.413 . S
C2547 C2546 1.367 . S
C2547 H2549 0.930 . S
H2548 C2541 0.930 . S
H2549 C2547 0.930 . S
H2550 C2538 0.930 . S
H2551 C2539 0.930 . S
H2552 C2545 0.929 . S
H2553 C2567 0.930 . S
H2554 C2546 0.930 . S
H2555 C2573 0.930 . S
H2556 C2564 0.929 . S
H2557 C2571 0.930 . S
H2558 C2535 0.931 . S
H2559 C2565 0.930 . S
H2560 C2598 0.930 . S
H2561 C2542 0.930 . S
H2562 C2597 0.931 . S
N2563 Eu2532 2.657 . S
N2563 C2564 1.334 . S
N2563 C2568 1.362 . S
C2564 H2556 0.929 . S
C2564 N2563 1.334 . S
C2564 C2567 1.413 . S
C2565 H2559 0.930 . S
C2565 C2566 1.392 . S
C2565 C2567 1.367 . S
C2566 C2565 1.392 . S
C2566 C2568 1.420 . S
C2566 C2598 1.423 . S
C2567 H2553 0.930 . S
C2567 C2564 1.413 . S
C2567 C2565 1.367 . S
C2568 N2563 1.362 . S
C2568 C2566 1.420 . S
C2568 C2572 1.429 . S
H2569 C2574 0.930 . S
N2570 Eu2532 2.609 . S
N2570 C2572 1.377 . S
N2570 C2573 1.321 . S
C2571 H2557 0.930 . S
C2571 C2573 1.400 . S
C2571 C2574 1.386 . S
C2572 C2568 1.429 . S
C2572 N2570 1.377 . S
C2572 C2575 1.411 . S
C2573 H2555 0.930 . S
C2573 N2570 1.321 . S
C2573 C2571 1.400 . S
C2574 H2569 0.930 . S
C2574 C2571 1.386 . S
C2574 C2575 1.395 . S
C2575 C2572 1.411 . S
C2575 C2574 1.395 . S
C2575 C2597 1.420 . S
O2576 Eu2532 2.558 . S
O2576 C2596 1.257 . S
O2577 Eu2532 2.612 . S
O2577 Eu2543 2.380 . S
O2577 C2588 1.276 . S
O2578 Eu2543 2.432 . S
O2578 C2595 1.264 . S
O2579 Eu2532 2.339 . S
O2579 C2595 1.254 . S
O2580 Eu2532 2.563 . S
O2580 C2588 1.235 . S
O2581 Eu2532 2.419 . S
O2581 C2596 1.249 . S
O2582 Eu2543 2.558 . S
O2582 C2607 1.257 . S
O2583 Eu2532 2.380 . S
O2583 Eu2543 2.612 . S
O2583 C2599 1.276 . S
O2584 Eu2532 2.432 . S
O2584 C2606 1.264 . S
O2585 Eu2543 2.339 . S
O2585 C2606 1.254 . S
O2586 Eu2543 2.563 . S
O2586 C2599 1.235 . S
O2587 Eu2543 2.419 . S
O2587 C2607 1.249 . S
C2588 O2577 1.276 . S
C2588 O2580 1.235 . S
C2589 C2591 1.393 . S
C2589 C2593 1.395 . S
C2589 C2596 1.492 . S
C2590 C2591 1.392 . S
C2590 C2592 1.386 . S
C2591 C2589 1.393 . S
C2591 C2590 1.392 . S
C2591 H2608 0.930 . S
C2592 C2590 1.386 . S
C2592 C2594 1.395 . S
C2592 H2609 0.930 . S
C2593 C2589 1.395 . S
C2593 C2594 1.379 . S
C2593 H2610 0.930 . S
C2594 C2592 1.395 . S
C2594 C2593 1.379 . S
C2594 H2611 0.930 . S
C2595 O2578 1.264 . S
C2595 O2579 1.254 . S
C2596 Eu2532 2.848 . S
C2596 O2576 1.257 . S
C2596 O2581 1.249 . S
C2596 C2589 1.492 . S
C2597 H2562 0.931 . S
C2597 C2575 1.420 . S
C2597 C2598 1.351 . S
C2598 H2560 0.930 . S
C2598 C2566 1.423 . S
C2598 C2597 1.351 . S
C2599 O2583 1.276 . S
C2599 O2586 1.235 . S
C2600 C2601 1.393 . S
C2600 C2604 1.395 . S
C2600 C2607 1.492 . S
C2601 C2600 1.393 . S
C2601 C2602 1.392 . S
C2601 H2612 0.930 . S
C2602 C2601 1.392 . S
C2602 C2603 1.386 . S
C2603 C2602 1.386 . S
C2603 C2605 1.395 . S
C2603 H2613 0.930 . S
C2604 C2600 1.395 . S
C2604 C2605 1.379 . S
C2604 H2614 0.930 . S
C2605 C2603 1.395 . S
C2605 C2604 1.379 . S
C2605 H2615 0.930 . S
C2606 O2584 1.264 . S
C2606 O2585 1.254 . S
C2607 Eu2543 2.848 . S
C2607 O2582 1.257 . S
C2607 O2587 1.249 . S
C2607 C2600 1.492 . S
H2608 C2591 0.930 . S
H2609 C2592 0.930 . S
H2610 C2593 0.930 . S
H2611 C2594 0.930 . S
H2612 C2601 0.930 . S
H2613 C2603 0.930 . S
H2614 C2604 0.930 . S
H2615 C2605 0.930 . S
Eu2616 N2647 2.657 . S
Eu2616 N2654 2.609 . S
Eu2616 O2660 2.558 . S
Eu2616 O2661 2.612 . S
Eu2616 O2663 2.339 . S
Eu2616 O2664 2.563 . S
Eu2616 O2665 2.419 . S
Eu2616 O2667 2.380 . S
Eu2616 O2668 2.432 . S
Eu2616 C2680 2.848 . S
C2617 C2620 1.429 . S
C2617 C2621 1.411 . S
C2617 N2624 1.377 . S
C2618 C2620 1.420 . S
C2618 C2622 1.423 . S
C2618 C2630 1.392 . S
C2619 C2621 1.420 . S
C2619 C2622 1.351 . S
C2619 H2642 0.931 . S
C2620 C2617 1.429 . S
C2620 C2618 1.420 . S
C2620 N2628 1.362 . S
C2621 C2617 1.411 . S
C2621 C2619 1.420 . S
C2621 C2626 1.395 . S
C2622 C2618 1.423 . S
C2622 C2619 1.351 . S
C2622 H2634 0.930 . S
C2623 C2625 1.400 . S
C2623 C2626 1.386 . S
C2623 H2635 0.930 . S
N2624 C2617 1.377 . S
N2624 C2625 1.321 . S
N2624 Eu2627 2.609 . S
C2625 C2623 1.400 . S
C2625 N2624 1.321 . S
C2625 H2632 0.930 . S
C2626 C2621 1.395 . S
C2626 C2623 1.386 . S
C2626 H2645 0.930 . S
Eu2627 N2624 2.609 . S
Eu2627 N2628 2.657 . S
Eu2627 O2661 2.380 1_556 S
Eu2627 O2662 2.432 1_556 S
Eu2627 O2666 2.558 . S
Eu2627 O2667 2.612 1_556 S
Eu2627 O2669 2.339 . S
Eu2627 O2670 2.563 1_556 S
Eu2627 O2671 2.419 . S
Eu2627 C2691 2.848 . S
N2628 C2620 1.362 . S
N2628 Eu2627 2.657 . S
N2628 C2629 1.334 . S
C2629 N2628 1.334 . S
C2629 C2631 1.413 1_545 S
C2629 H2636 0.929 . S
C2630 C2618 1.392 . S
C2630 C2631 1.367 1_545 S
C2630 H2638 0.930 1_545 S
C2631 C2629 1.413 1_565 S
C2631 C2630 1.367 1_565 S
C2631 H2633 0.930 . S
H2632 C2625 0.930 . S
H2633 C2631 0.930 . S
H2634 C2622 0.930 . S
H2635 C2623 0.930 . S
H2636 C2629 0.929 . S
H2637 C2651 0.930 . S
H2638 C2630 0.930 1_565 S
H2639 C2657 0.930 1_565 S
H2640 C2648 0.929 . S
H2641 C2655 0.930 . S
H2642 C2619 0.931 . S
H2643 C2649 0.930 . S
H2644 C2682 0.930 . S
H2645 C2626 0.930 . S
H2646 C2681 0.931 . S
N2647 Eu2616 2.657 . S
N2647 C2648 1.334 . S
N2647 C2652 1.362 . S
C2648 H2640 0.929 . S
C2648 N2647 1.334 . S
C2648 C2651 1.413 . S
C2649 H2643 0.930 . S
C2649 C2650 1.392 . S
C2649 C2651 1.367 . S
C2650 C2649 1.392 . S
C2650 C2652 1.420 . S
C2650 C2682 1.423 . S
C2651 H2637 0.930 . S
C2651 C2648 1.413 . S
C2651 C2649 1.367 . S
C2652 N2647 1.362 . S
C2652 C2650 1.420 . S
C2652 C2656 1.429 . S
H2653 C2658 0.930 1_565 S
N2654 Eu2616 2.609 . S
N2654 C2656 1.377 . S
N2654 C2657 1.321 . S
C2655 H2641 0.930 . S
C2655 C2657 1.400 1_565 S
C2655 C2658 1.386 1_565 S
C2656 C2652 1.429 . S
C2656 N2654 1.377 . S
C2656 C2659 1.411 . S
C2657 H2639 0.930 1_545 S
C2657 N2654 1.321 . S
C2657 C2655 1.400 1_545 S
C2658 H2653 0.930 1_545 S
C2658 C2655 1.386 1_545 S
C2658 C2659 1.395 . S
C2659 C2656 1.411 . S
C2659 C2658 1.395 . S
C2659 C2681 1.420 . S
O2660 Eu2616 2.558 . S
O2660 C2680 1.257 . S
O2661 Eu2616 2.612 . S
O2661 Eu2627 2.380 1_554 S
O2661 C2672 1.276 . S
O2662 Eu2627 2.432 1_554 S
O2662 C2679 1.264 . S
O2663 Eu2616 2.339 . S
O2663 C2679 1.254 . S
O2664 Eu2616 2.563 . S
O2664 C2672 1.235 . S
O2665 Eu2616 2.419 . S
O2665 C2680 1.249 . S
O2666 Eu2627 2.558 . S
O2666 C2691 1.257 . S
O2667 Eu2616 2.380 . S
O2667 Eu2627 2.612 1_554 S
O2667 C2683 1.276 . S
O2668 Eu2616 2.432 . S
O2668 C2690 1.264 . S
O2669 Eu2627 2.339 . S
O2669 C2690 1.254 1_556 S
O2670 Eu2627 2.563 1_554 S
O2670 C2683 1.235 . S
O2671 Eu2627 2.419 . S
O2671 C2691 1.249 . S
C2672 O2661 1.276 . S
C2672 O2664 1.235 . S
C2673 C2675 1.393 . S
C2673 C2677 1.395 . S
C2673 C2680 1.492 . S
C2674 C2675 1.392 . S
C2674 C2676 1.386 . S
C2675 C2673 1.393 . S
C2675 C2674 1.392 . S
C2675 H2692 0.930 . S
C2676 C2674 1.386 . S
C2676 C2678 1.427 . S
C2676 H2693 0.930 . S
C2677 C2673 1.395 . S
C2677 C2678 1.392 . S
C2677 H2694 0.930 1_545 S
C2678 C2676 1.427 . S
C2678 C2677 1.392 . S
C2678 H2695 0.885 1_545 S
C2679 O2662 1.264 . S
C2679 O2663 1.254 . S
C2680 Eu2616 2.848 . S
C2680 O2660 1.257 . S
C2680 O2665 1.249 . S
C2680 C2673 1.492 . S
C2681 H2646 0.931 . S
C2681 C2659 1.420 . S
C2681 C2682 1.351 . S
C2682 H2644 0.930 . S
C2682 C2650 1.423 . S
C2682 C2681 1.351 . S
C2683 O2667 1.276 . S
C2683 O2670 1.235 . S
C2684 C2685 1.393 . S
C2684 C2688 1.395 . S
C2684 C2691 1.492 . S
C2685 C2684 1.393 . S
C2685 C2686 1.392 . S
C2685 H2696 0.930 . S
C2686 C2685 1.392 . S
C2686 C2687 1.386 . S
C2687 C2686 1.386 . S
C2687 C2689 1.395 . S
C2687 H2697 0.930 . S
C2688 C2684 1.395 . S
C2688 C2689 1.379 . S
C2688 H2698 0.930 . S
C2689 C2687 1.395 . S
C2689 C2688 1.379 . S
C2689 H2699 0.930 . S
C2690 O2668 1.264 . S
C2690 O2669 1.254 1_554 S
C2691 Eu2627 2.848 . S
C2691 O2666 1.257 . S
C2691 O2671 1.249 . S
C2691 C2684 1.492 . S
H2692 C2675 0.930 . S
H2693 C2676 0.930 . S
H2694 C2677 0.930 1_565 S
H2695 C2678 0.885 1_565 S
H2696 C2685 0.930 . S
H2697 C2687 0.930 . S
H2698 C2688 0.930 . S
H2699 C2689 0.930 . S
Eu2700 N2731 2.657 . S
Eu2700 N2738 2.609 . S
Eu2700 O2744 2.558 . S
Eu2700 O2745 2.612 . S
Eu2700 O2747 2.339 . S
Eu2700 O2748 2.563 . S
Eu2700 O2749 2.419 . S
Eu2700 O2751 2.380 . S
Eu2700 O2752 2.432 . S
Eu2700 C2764 2.848 . S
C2701 C2704 1.429 . S
C2701 C2705 1.411 . S
C2701 N2708 1.377 . S
C2702 C2704 1.420 . S
C2702 C2706 1.423 . S
C2702 C2714 1.392 . S
C2703 C2705 1.420 . S
C2703 C2706 1.351 . S
C2703 H2726 0.931 . S
C2704 C2701 1.429 . S
C2704 C2702 1.420 . S
C2704 N2712 1.362 . S
C2705 C2701 1.411 . S
C2705 C2703 1.420 . S
C2705 C2710 1.395 . S
C2706 C2702 1.423 . S
C2706 C2703 1.351 . S
C2706 H2718 0.930 . S
C2707 C2709 1.400 . S
C2707 C2710 1.386 . S
C2707 H2719 0.930 . S
N2708 C2701 1.377 . S
N2708 C2709 1.321 . S
N2708 Eu2711 2.609 . S
C2709 C2707 1.400 . S
C2709 N2708 1.321 . S
C2709 H2716 0.930 . S
C2710 C2705 1.395 . S
C2710 C2707 1.386 . S
C2710 H2729 0.930 . S
Eu2711 N2708 2.609 . S
Eu2711 N2712 2.657 . S
Eu2711 O2745 2.380 . S
Eu2711 O2746 2.432 . S
Eu2711 O2750 2.558 . S
Eu2711 O2751 2.612 . S
Eu2711 O2753 2.339 . S
Eu2711 O2754 2.563 . S
Eu2711 O2755 2.419 . S
Eu2711 C2775 2.848 . S
N2712 C2704 1.362 . S
N2712 Eu2711 2.657 . S
N2712 C2713 1.334 . S
C2713 N2712 1.334 . S
C2713 C2715 1.413 . S
C2713 H2720 0.929 . S
C2714 C2702 1.392 . S
C2714 C2715 1.367 . S
C2714 H2722 0.930 . S
C2715 C2713 1.413 . S
C2715 C2714 1.367 . S
C2715 H2717 0.930 . S
H2716 C2709 0.930 . S
H2717 C2715 0.930 . S
H2718 C2706 0.930 . S
H2719 C2707 0.930 . S
H2720 C2713 0.929 . S
H2721 C2735 0.930 . S
H2722 C2714 0.930 . S
H2723 C2741 0.930 . S
H2724 C2732 0.929 . S
H2725 C2739 0.930 . S
H2726 C2703 0.931 . S
H2727 C2733 0.930 . S
H2728 C2766 0.930 . S
H2729 C2710 0.930 . S
H2730 C2765 0.931 . S
N2731 Eu2700 2.657 . S
N2731 C2732 1.334 . S
N2731 C2736 1.362 . S
C2732 H2724 0.929 . S
C2732 N2731 1.334 . S
C2732 C2735 1.413 . S
C2733 H2727 0.930 . S
C2733 C2734 1.392 . S
C2733 C2735 1.367 . S
C2734 C2733 1.392 . S
C2734 C2736 1.420 . S
C2734 C2766 1.423 . S
C2735 H2721 0.930 . S
C2735 C2732 1.413 . S
C2735 C2733 1.367 . S
C2736 N2731 1.362 . S
C2736 C2734 1.420 . S
C2736 C2740 1.429 . S
H2737 C2742 0.930 . S
N2738 Eu2700 2.609 . S
N2738 C2740 1.377 . S
N2738 C2741 1.321 . S
C2739 H2725 0.930 . S
C2739 C2741 1.400 . S
C2739 C2742 1.386 . S
C2740 C2736 1.429 . S
C2740 N2738 1.377 . S
C2740 C2743 1.411 . S
C2741 H2723 0.930 . S
C2741 N2738 1.321 . S
C2741 C2739 1.400 . S
C2742 H2737 0.930 . S
C2742 C2739 1.386 . S
C2742 C2743 1.395 . S
C2743 C2740 1.411 . S
C2743 C2742 1.395 . S
C2743 C2765 1.420 . S
O2744 Eu2700 2.558 . S
O2744 C2764 1.257 . S
O2745 Eu2700 2.612 . S
O2745 Eu2711 2.380 . S
O2745 C2756 1.276 . S
O2746 Eu2711 2.432 . S
O2746 C2763 1.264 . S
O2747 Eu2700 2.339 . S
O2747 C2763 1.254 . S
O2748 Eu2700 2.563 . S
O2748 C2756 1.235 . S
O2749 Eu2700 2.419 . S
O2749 C2764 1.249 . S
O2750 Eu2711 2.558 . S
O2750 C2775 1.257 . S
O2751 Eu2700 2.380 . S
O2751 Eu2711 2.612 . S
O2751 C2767 1.276 . S
O2752 Eu2700 2.432 . S
O2752 C2774 1.264 . S
O2753 Eu2711 2.339 . S
O2753 C2774 1.254 . S
O2754 Eu2711 2.563 . S
O2754 C2767 1.235 . S
O2755 Eu2711 2.419 . S
O2755 C2775 1.249 . S
C2756 O2745 1.276 . S
C2756 O2748 1.235 . S
C2757 C2759 1.393 . S
C2757 C2761 1.395 . S
C2757 C2764 1.492 . S
C2758 C2759 1.392 . S
C2758 C2760 1.386 . S
C2759 C2757 1.393 . S
C2759 C2758 1.392 . S
C2759 H2776 0.930 . S
C2760 C2758 1.386 . S
C2760 C2762 1.395 . S
C2760 H2777 0.930 . S
C2761 C2757 1.395 . S
C2761 C2762 1.379 . S
C2761 H2778 0.930 . S
C2762 C2760 1.395 . S
C2762 C2761 1.379 . S
C2762 H2779 0.930 . S
C2763 O2746 1.264 . S
C2763 O2747 1.254 . S
C2764 Eu2700 2.848 . S
C2764 O2744 1.257 . S
C2764 O2749 1.249 . S
C2764 C2757 1.492 . S
C2765 H2730 0.931 . S
C2765 C2743 1.420 . S
C2765 C2766 1.351 . S
C2766 H2728 0.930 . S
C2766 C2734 1.423 . S
C2766 C2765 1.351 . S
C2767 O2751 1.276 . S
C2767 O2754 1.235 . S
C2768 C2769 1.393 . S
C2768 C2772 1.395 . S
C2768 C2775 1.492 . S
C2769 C2768 1.393 . S
C2769 C2770 1.392 . S
C2769 H2780 0.930 . S
C2770 C2769 1.392 . S
C2770 C2771 1.386 . S
C2771 C2770 1.386 . S
C2771 C2773 1.395 . S
C2771 H2781 0.930 . S
C2772 C2768 1.395 . S
C2772 C2773 1.379 . S
C2772 H2782 0.930 . S
C2773 C2771 1.395 . S
C2773 C2772 1.379 . S
C2773 H2783 0.930 . S
C2774 O2752 1.264 . S
C2774 O2753 1.254 . S
C2775 Eu2711 2.848 . S
C2775 O2750 1.257 . S
C2775 O2755 1.249 . S
C2775 C2768 1.492 . S
H2776 C2759 0.930 . S
H2777 C2760 0.930 . S
H2778 C2761 0.930 . S
H2779 C2762 0.930 . S
H2780 C2769 0.930 . S
H2781 C2771 0.930 . S
H2782 C2772 0.930 . S
H2783 C2773 0.930 . S
Eu2784 N2815 2.657 . S
Eu2784 N2822 2.609 . S
Eu2784 O2828 2.558 . S
Eu2784 O2829 2.629 . S
Eu2784 O2831 2.339 . S
Eu2784 O2832 2.563 1_554 S
Eu2784 O2833 2.419 . S
Eu2784 O2835 2.380 . S
Eu2784 O2836 2.432 . S
Eu2784 C2848 2.848 . S
C2785 C2788 1.429 . S
C2785 C2789 1.411 . S
C2785 N2792 1.377 . S
C2786 C2788 1.420 . S
C2786 C2790 1.423 . S
C2786 C2798 1.392 . S
C2787 C2789 1.420 . S
C2787 C2790 1.351 . S
C2787 H2810 0.931 . S
C2788 C2785 1.429 . S
C2788 C2786 1.420 . S
C2788 N2796 1.362 . S
C2789 C2785 1.411 . S
C2789 C2787 1.420 . S
C2789 C2794 1.395 . S
C2790 C2786 1.423 . S
C2790 C2787 1.351 . S
C2790 H2802 0.930 . S
C2791 C2793 1.400 . S
C2791 C2794 1.386 . S
C2791 H2803 0.930 . S
N2792 C2785 1.377 . S
N2792 C2793 1.321 . S
N2792 Eu2795 2.609 1_556 S
C2793 C2791 1.400 . S
C2793 N2792 1.321 . S
C2793 H2800 0.930 . S
C2794 C2789 1.395 . S
C2794 C2791 1.386 . S
C2794 H2813 0.930 . S
Eu2795 N2792 2.609 1_554 S
Eu2795 N2796 2.657 1_554 S
Eu2795 O2829 2.394 . S
Eu2795 O2830 2.432 . S
Eu2795 O2834 2.558 . S
Eu2795 O2835 2.612 . S
Eu2795 O2837 2.339 . S
Eu2795 O2838 2.563 . S
Eu2795 O2839 2.419 . S
Eu2795 C2859 2.848 . S
N2796 C2788 1.362 . S
N2796 Eu2795 2.657 1_556 S
N2796 C2797 1.334 . S
C2797 N2796 1.334 . S
C2797 C2799 1.413 . S
C2797 H2804 0.929 . S
C2798 C2786 1.392 . S
C2798 C2799 1.367 . S
C2798 H2806 0.930 . S
C2799 C2797 1.413 . S
C2799 C2798 1.367 . S
C2799 H2801 0.930 . S
H2800 C2793 0.930 . S
H2801 C2799 0.930 . S
H2802 C2790 0.930 . S
H2803 C2791 0.930 . S
H2804 C2797 0.929 . S
H2805 C2819 0.930 . S
H2806 C2798 0.930 . S
H2807 C2825 0.930 . S
H2808 C2816 0.929 . S
H2809 C2823 0.930 . S
H2810 C2787 0.931 . S
H2811 C2817 0.930 . S
H2812 C2850 0.930 . S
H2813 C2794 0.930 . S
H2814 C2849 0.931 . S
N2815 Eu2784 2.657 . S
N2815 C2816 1.334 . S
N2815 C2820 1.362 . S
C2816 H2808 0.929 . S
C2816 N2815 1.334 . S
C2816 C2819 1.413 . S
C2817 H2811 0.930 . S
C2817 C2818 1.392 . S
C2817 C2819 1.367 . S
C2818 C2817 1.392 . S
C2818 C2820 1.420 . S
C2818 C2850 1.423 . S
C2819 H2805 0.930 . S
C2819 C2816 1.413 . S
C2819 C2817 1.367 . S
C2820 N2815 1.362 . S
C2820 C2818 1.420 . S
C2820 C2824 1.429 . S
H2821 C2826 0.930 . S
N2822 Eu2784 2.609 . S
N2822 C2824 1.377 . S
N2822 C2825 1.321 . S
C2823 H2809 0.930 . S
C2823 C2825 1.400 . S
C2823 C2826 1.386 . S
C2824 C2820 1.429 . S
C2824 N2822 1.377 . S
C2824 C2827 1.411 . S
C2825 H2807 0.930 . S
C2825 N2822 1.321 . S
C2825 C2823 1.400 . S
C2826 H2821 0.930 . S
C2826 C2823 1.386 . S
C2826 C2827 1.395 . S
C2827 C2824 1.411 . S
C2827 C2826 1.395 . S
C2827 C2849 1.420 . S
O2828 Eu2784 2.558 . S
O2828 C2848 1.257 . S
O2829 Eu2784 2.629 . S
O2829 Eu2795 2.394 . S
O2829 C2840 1.256 1_554 S
O2830 Eu2795 2.432 . S
O2830 C2847 1.264 . S
O2831 Eu2784 2.339 . S
O2831 C2847 1.254 . S
O2832 Eu2784 2.563 1_556 S
O2832 C2840 1.235 . S
O2833 Eu2784 2.419 . S
O2833 C2848 1.249 . S
O2834 Eu2795 2.558 . S
O2834 C2859 1.257 . S
O2835 Eu2784 2.380 . S
O2835 Eu2795 2.612 . S
O2835 C2851 1.276 . S
O2836 Eu2784 2.432 . S
O2836 C2858 1.264 . S
O2837 Eu2795 2.339 . S
O2837 C2858 1.254 . S
O2838 Eu2795 2.563 . S
O2838 C2851 1.235 . S
O2839 Eu2795 2.419 . S
O2839 C2859 1.249 . S
C2840 O2829 1.256 1_556 S
C2840 O2832 1.235 . S
C2841 C2843 1.393 . S
C2841 C2845 1.395 . S
C2841 C2848 1.492 . S
C2842 C2843 1.415 . S
C2842 C2844 1.400 . S
C2843 C2841 1.393 . S
C2843 C2842 1.415 . S
C2843 H2860 0.930 . S
C2844 C2842 1.400 . S
C2844 C2846 1.395 . S
C2844 H2861 0.930 . S
C2845 C2841 1.395 . S
C2845 C2846 1.379 . S
C2845 H2862 0.930 . S
C2846 C2844 1.395 . S
C2846 C2845 1.379 . S
C2846 H2863 0.930 . S
C2847 O2830 1.264 . S
C2847 O2831 1.254 . S
C2848 Eu2784 2.848 . S
C2848 O2828 1.257 . S
C2848 O2833 1.249 . S
C2848 C2841 1.492 . S
C2849 H2814 0.931 . S
C2849 C2827 1.420 . S
C2849 C2850 1.351 . S
C2850 H2812 0.930 . S
C2850 C2818 1.423 . S
C2850 C2849 1.351 . S
C2851 O2835 1.276 . S
C2851 O2838 1.235 . S
C2852 C2853 1.393 . S
C2852 C2856 1.395 . S
C2852 C2859 1.492 . S
C2853 C2852 1.393 . S
C2853 C2854 1.392 . S
C2853 H2864 0.930 . S
C2854 C2853 1.392 . S
C2854 C2855 1.386 . S
C2855 C2854 1.386 . S
C2855 C2857 1.395 . S
C2855 H2865 0.930 . S
C2856 C2852 1.395 . S
C2856 C2857 1.379 . S
C2856 H2866 0.930 . S
C2857 C2855 1.395 . S
C2857 C2856 1.379 . S
C2857 H2867 0.930 . S
C2858 O2836 1.264 . S
C2858 O2837 1.254 . S
C2859 Eu2795 2.848 . S
C2859 O2834 1.257 . S
C2859 O2839 1.249 . S
C2859 C2852 1.492 . S
H2860 C2843 0.930 . S
H2861 C2844 0.930 . S
H2862 C2845 0.930 . S
H2863 C2846 0.930 . S
H2864 C2853 0.930 . S
H2865 C2855 0.930 . S
H2866 C2856 0.930 . S
H2867 C2857 0.930 . S
Eu2868 N2899 2.657 . S
Eu2868 N2906 2.609 . S
Eu2868 O2912 2.558 . S
Eu2868 O2913 2.612 . S
Eu2868 O2915 2.339 . S
Eu2868 O2916 2.563 . S
Eu2868 O2917 2.419 . S
Eu2868 O2919 2.380 . S
Eu2868 O2920 2.432 . S
Eu2868 C2932 2.848 . S
C2869 C2872 1.429 . S
C2869 C2873 1.411 . S
C2869 N2876 1.377 . S
C2870 C2872 1.420 . S
C2870 C2874 1.423 . S
C2870 C2882 1.392 . S
C2871 C2873 1.420 . S
C2871 C2874 1.351 . S
C2871 H2894 0.931 . S
C2872 C2869 1.429 . S
C2872 C2870 1.420 . S
C2872 N2880 1.362 . S
C2873 C2869 1.411 . S
C2873 C2871 1.420 . S
C2873 C2878 1.395 . S
C2874 C2870 1.423 . S
C2874 C2871 1.351 . S
C2874 H2886 0.930 . S
C2875 C2877 1.400 . S
C2875 C2878 1.386 . S
C2875 H2887 0.930 . S
N2876 C2869 1.377 . S
N2876 C2877 1.321 . S
N2876 Eu2879 2.609 . S
C2877 C2875 1.400 . S
C2877 N2876 1.321 . S
C2877 H2884 0.930 . S
C2878 C2873 1.395 . S
C2878 C2875 1.386 . S
C2878 H2897 0.930 . S
Eu2879 N2876 2.609 . S
Eu2879 N2880 2.657 . S
Eu2879 O2913 2.380 . S
Eu2879 O2914 2.432 . S
Eu2879 O2918 2.558 . S
Eu2879 O2919 2.612 . S
Eu2879 O2921 2.339 . S
Eu2879 O2922 2.563 . S
Eu2879 O2923 2.419 . S
Eu2879 C2943 2.848 . S
N2880 C2872 1.362 . S
N2880 Eu2879 2.657 . S
N2880 C2881 1.334 . S
C2881 N2880 1.334 . S
C2881 C2883 1.413 . S
C2881 H2888 0.929 . S
C2882 C2870 1.392 . S
C2882 C2883 1.367 . S
C2882 H2890 0.930 . S
C2883 C2881 1.413 . S
C2883 C2882 1.367 . S
C2883 H2885 0.930 . S
H2884 C2877 0.930 . S
H2885 C2883 0.930 . S
H2886 C2874 0.930 . S
H2887 C2875 0.930 . S
H2888 C2881 0.929 . S
H2889 C2903 0.930 . S
H2890 C2882 0.930 . S
H2891 C2909 0.930 . S
H2892 C2900 0.929 . S
H2893 C2907 0.930 . S
H2894 C2871 0.931 . S
H2895 C2901 0.930 . S
H2896 C2934 0.930 . S
H2897 C2878 0.930 . S
H2898 C2933 0.931 . S
N2899 Eu2868 2.657 . S
N2899 C2900 1.334 . S
N2899 C2904 1.362 . S
C2900 H2892 0.929 . S
C2900 N2899 1.334 . S
C2900 C2903 1.413 . S
C2901 H2895 0.930 . S
C2901 C2902 1.392 . S
C2901 C2903 1.367 . S
C2902 C2901 1.392 . S
C2902 C2904 1.420 . S
C2902 C2934 1.423 . S
C2903 H2889 0.930 . S
C2903 C2900 1.413 . S
C2903 C2901 1.367 . S
C2904 N2899 1.362 . S
C2904 C2902 1.420 . S
C2904 C2908 1.429 . S
H2905 C2910 0.930 . S
N2906 Eu2868 2.609 . S
N2906 C2908 1.377 . S
N2906 C2909 1.321 . S
C2907 H2893 0.930 . S
C2907 C2909 1.400 . S
C2907 C2910 1.386 . S
C2908 C2904 1.429 . S
C2908 N2906 1.377 . S
C2908 C2911 1.411 . S
C2909 H2891 0.930 . S
C2909 N2906 1.321 . S
C2909 C2907 1.400 . S
C2910 H2905 0.930 . S
C2910 C2907 1.386 . S
C2910 C2911 1.395 . S
C2911 C2908 1.411 . S
C2911 C2910 1.395 . S
C2911 C2933 1.420 . S
O2912 Eu2868 2.558 . S
O2912 C2932 1.257 . S
O2913 Eu2868 2.612 . S
O2913 Eu2879 2.380 . S
O2913 C2924 1.276 . S
O2914 Eu2879 2.432 . S
O2914 C2931 1.264 . S
O2915 Eu2868 2.339 . S
O2915 C2931 1.254 . S
O2916 Eu2868 2.563 . S
O2916 C2924 1.235 . S
O2917 Eu2868 2.419 . S
O2917 C2932 1.249 . S
O2918 Eu2879 2.558 . S
O2918 C2943 1.257 . S
O2919 Eu2868 2.380 . S
O2919 Eu2879 2.612 . S
O2919 C2935 1.276 . S
O2920 Eu2868 2.432 . S
O2920 C2942 1.264 . S
O2921 Eu2879 2.339 . S
O2921 C2942 1.254 . S
O2922 Eu2879 2.563 . S
O2922 C2935 1.235 . S
O2923 Eu2879 2.419 . S
O2923 C2943 1.249 . S
C2924 O2913 1.276 . S
C2924 O2916 1.235 . S
C2925 C2927 1.393 . S
C2925 C2929 1.395 . S
C2925 C2932 1.492 . S
C2926 C2927 1.392 . S
C2926 C2928 1.386 . S
C2927 C2925 1.393 . S
C2927 C2926 1.392 . S
C2927 H2944 0.930 . S
C2928 C2926 1.386 . S
C2928 C2930 1.395 . S
C2928 H2945 0.930 . S
C2929 C2925 1.395 . S
C2929 C2930 1.379 . S
C2929 H2946 0.930 . S
C2930 C2928 1.395 . S
C2930 C2929 1.379 . S
C2930 H2947 0.930 . S
C2931 O2914 1.264 . S
C2931 O2915 1.254 . S
C2932 Eu2868 2.848 . S
C2932 O2912 1.257 . S
C2932 O2917 1.249 . S
C2932 C2925 1.492 . S
C2933 H2898 0.931 . S
C2933 C2911 1.420 . S
C2933 C2934 1.351 . S
C2934 H2896 0.930 . S
C2934 C2902 1.423 . S
C2934 C2933 1.351 . S
C2935 O2919 1.276 . S
C2935 O2922 1.235 . S
C2936 C2937 1.393 . S
C2936 C2940 1.395 . S
C2936 C2943 1.492 . S
C2937 C2936 1.393 . S
C2937 C2938 1.392 . S
C2937 H2948 0.930 . S
C2938 C2937 1.392 . S
C2938 C2939 1.386 . S
C2939 C2938 1.386 . S
C2939 C2941 1.395 . S
C2939 H2949 0.930 . S
C2940 C2936 1.395 . S
C2940 C2941 1.379 . S
C2940 H2950 0.930 . S
C2941 C2939 1.395 . S
C2941 C2940 1.379 . S
C2941 H2951 0.930 . S
C2942 O2920 1.264 . S
C2942 O2921 1.254 . S
C2943 Eu2879 2.848 . S
C2943 O2918 1.257 . S
C2943 O2923 1.249 . S
C2943 C2936 1.492 . S
H2944 C2927 0.930 . S
H2945 C2928 0.930 . S
H2946 C2929 0.930 . S
H2947 C2930 0.930 . S
H2948 C2937 0.930 . S
H2949 C2939 0.930 . S
H2950 C2940 0.930 . S
H2951 C2941 0.930 . S
Eu2952 N2983 2.657 . S
Eu2952 N2990 2.609 . S
Eu2952 O2996 2.558 . S
Eu2952 O2997 2.612 . S
Eu2952 O2999 2.339 . S
Eu2952 O3000 2.563 . S
Eu2952 O3001 2.419 . S
Eu2952 O3003 2.380 . S
Eu2952 O3004 2.432 . S
Eu2952 C3016 2.848 . S
C2953 C2956 1.429 . S
C2953 C2957 1.411 1_455 S
C2953 N2960 1.377 . S
C2954 C2956 1.420 1_655 S
C2954 C2958 1.423 . S
C2954 C2966 1.392 . S
C2955 C2957 1.420 . S
C2955 C2958 1.351 . S
C2955 H2978 0.931 . S
C2956 C2953 1.429 . S
C2956 C2954 1.420 1_455 S
C2956 N2964 1.362 . S
C2957 C2953 1.411 1_655 S
C2957 C2955 1.420 . S
C2957 C2962 1.395 . S
C2958 C2954 1.423 . S
C2958 C2955 1.351 . S
C2958 H2970 0.930 . S
C2959 C2961 1.400 . S
C2959 C2962 1.386 1_455 S
C2959 H2971 0.930 . S
N2960 C2953 1.377 . S
N2960 C2961 1.321 . S
N2960 Eu2963 2.609 . S
C2961 C2959 1.400 . S
C2961 N2960 1.321 . S
C2961 H2968 0.930 . S
C2962 C2957 1.395 . S
C2962 C2959 1.386 1_655 S
C2962 H2981 0.930 . S
Eu2963 N2960 2.609 . S
Eu2963 N2964 2.657 . S
Eu2963 O2997 2.380 . S
Eu2963 O2998 2.432 . S
Eu2963 O3002 2.558 . S
Eu2963 O3003 2.612 . S
Eu2963 O3005 2.339 . S
Eu2963 O3006 2.563 . S
Eu2963 O3007 2.419 . S
Eu2963 C3027 2.848 . S
N2964 C2956 1.362 . S
N2964 Eu2963 2.657 . S
N2964 C2965 1.334 . S
C2965 N2964 1.334 . S
C2965 C2967 1.464 . S
C2965 H2972 0.929 . S
C2966 C2954 1.392 . S
C2966 C2967 1.309 1_655 S
C2966 H2974 0.930 . S
C2967 C2965 1.464 . S
C2967 C2966 1.309 1_455 S
C2967 H2969 0.943 1_455 S
H2968 C2961 0.930 . S
H2969 C2967 0.943 1_655 S
H2970 C2958 0.930 . S
H2971 C2959 0.930 . S
H2972 C2965 0.929 . S
H2973 C2987 0.930 . S
H2974 C2966 0.930 . S
H2975 C2993 0.930 . S
H2976 C2984 0.929 . S
H2977 C2991 0.930 . S
H2978 C2955 0.931 . S
H2979 C2985 0.930 . S
H2980 C3018 0.930 . S
H2981 C2962 0.930 . S
H2982 C3017 0.931 . S
N2983 Eu2952 2.657 . S
N2983 C2984 1.334 . S
N2983 C2988 1.362 . S
C2984 H2976 0.929 . S
C2984 N2983 1.334 . S
C2984 C2987 1.413 . S
C2985 H2979 0.930 . S
C2985 C2986 1.392 . S
C2985 C2987 1.367 . S
C2986 C2985 1.392 . S
C2986 C2988 1.420 . S
C2986 C3018 1.423 . S
C2987 H2973 0.930 . S
C2987 C2984 1.413 . S
C2987 C2985 1.367 . S
C2988 N2983 1.362 . S
C2988 C2986 1.420 . S
C2988 C2992 1.429 . S
H2989 C2994 0.930 . S
N2990 Eu2952 2.609 . S
N2990 C2992 1.377 . S
N2990 C2993 1.321 . S
C2991 H2977 0.930 . S
C2991 C2993 1.400 . S
C2991 C2994 1.386 . S
C2992 C2988 1.429 . S
C2992 N2990 1.377 . S
C2992 C2995 1.411 . S
C2993 H2975 0.930 . S
C2993 N2990 1.321 . S
C2993 C2991 1.400 . S
C2994 H2989 0.930 . S
C2994 C2991 1.386 . S
C2994 C2995 1.395 . S
C2995 C2992 1.411 . S
C2995 C2994 1.395 . S
C2995 C3017 1.420 . S
O2996 Eu2952 2.558 . S
O2996 C3016 1.257 . S
O2997 Eu2952 2.612 . S
O2997 Eu2963 2.380 . S
O2997 C3008 1.276 . S
O2998 Eu2963 2.432 . S
O2998 C3015 1.264 . S
O2999 Eu2952 2.339 . S
O2999 C3015 1.254 . S
O3000 Eu2952 2.563 . S
O3000 C3008 1.235 . S
O3001 Eu2952 2.419 . S
O3001 C3016 1.249 . S
O3002 Eu2963 2.558 . S
O3002 C3027 1.257 . S
O3003 Eu2952 2.380 . S
O3003 Eu2963 2.612 . S
O3003 C3019 1.276 . S
O3004 Eu2952 2.432 . S
O3004 C3026 1.264 . S
O3005 Eu2963 2.339 . S
O3005 C3026 1.254 . S
O3006 Eu2963 2.563 . S
O3006 C3019 1.235 . S
O3007 Eu2963 2.419 . S
O3007 C3027 1.249 . S
C3008 O2997 1.276 . S
C3008 O3000 1.235 . S
C3009 C3011 1.393 . S
C3009 C3013 1.395 . S
C3009 C3016 1.492 . S
C3010 C3011 1.392 . S
C3010 C3012 1.386 . S
C3011 C3009 1.393 . S
C3011 C3010 1.392 . S
C3011 H3028 0.930 . S
C3012 C3010 1.386 . S
C3012 C3014 1.395 . S
C3012 H3029 0.930 . S
C3013 C3009 1.395 . S
C3013 C3014 1.379 . S
C3013 H3030 0.930 . S
C3014 C3012 1.395 . S
C3014 C3013 1.379 . S
C3014 H3031 0.930 . S
C3015 O2998 1.264 . S
C3015 O2999 1.254 . S
C3016 Eu2952 2.848 . S
C3016 O2996 1.257 . S
C3016 O3001 1.249 . S
C3016 C3009 1.492 . S
C3017 H2982 0.931 . S
C3017 C2995 1.420 . S
C3017 C3018 1.351 . S
C3018 H2980 0.930 . S
C3018 C2986 1.423 . S
C3018 C3017 1.351 . S
C3019 O3003 1.276 . S
C3019 O3006 1.235 . S
C3020 C3021 1.393 . S
C3020 C3024 1.395 . S
C3020 C3027 1.492 . S
C3021 C3020 1.393 . S
C3021 C3022 1.392 . S
C3021 H3032 0.930 . S
C3022 C3021 1.392 . S
C3022 C3023 1.386 . S
C3023 C3022 1.386 . S
C3023 C3025 1.395 . S
C3023 H3033 0.930 . S
C3024 C3020 1.395 . S
C3024 C3025 1.379 . S
C3024 H3034 0.930 . S
C3025 C3023 1.395 . S
C3025 C3024 1.379 . S
C3025 H3035 0.930 . S
C3026 O3004 1.264 . S
C3026 O3005 1.254 . S
C3027 Eu2963 2.848 . S
C3027 O3002 1.257 . S
C3027 O3007 1.249 . S
C3027 C3020 1.492 . S
H3028 C3011 0.930 . S
H3029 C3012 0.930 . S
H3030 C3013 0.930 . S
H3031 C3014 0.930 . S
H3032 C3021 0.930 . S
H3033 C3023 0.930 . S
H3034 C3024 0.930 . S
H3035 C3025 0.930 . S
Eu3036 N3067 2.657 . S
Eu3036 N3074 2.609 . S
Eu3036 O3080 2.558 . S
Eu3036 O3081 2.612 . S
Eu3036 O3083 2.339 . S
Eu3036 O3084 2.563 . S
Eu3036 O3085 2.419 . S
Eu3036 O3087 2.380 . S
Eu3036 O3088 2.432 . S
Eu3036 C3100 2.848 . S
C3037 C3040 1.429 . S
C3037 C3041 1.411 . S
C3037 N3044 1.377 . S
C3038 C3040 1.420 . S
C3038 C3042 1.423 . S
C3038 C3050 1.392 . S
C3039 C3041 1.420 . S
C3039 C3042 1.351 . S
C3039 H3062 0.931 . S
C3040 C3037 1.429 . S
C3040 C3038 1.420 . S
C3040 N3048 1.362 . S
C3041 C3037 1.411 . S
C3041 C3039 1.420 . S
C3041 C3046 1.395 . S
C3042 C3038 1.423 . S
C3042 C3039 1.351 . S
C3042 H3054 0.930 . S
C3043 C3045 1.400 . S
C3043 C3046 1.386 . S
C3043 H3055 0.930 . S
N3044 C3037 1.377 . S
N3044 C3045 1.321 . S
N3044 Eu3047 2.609 . S
C3045 C3043 1.400 . S
C3045 N3044 1.321 . S
C3045 H3052 0.930 . S
C3046 C3041 1.395 . S
C3046 C3043 1.386 . S
C3046 H3065 0.930 . S
Eu3047 N3044 2.609 . S
Eu3047 N3048 2.657 . S
Eu3047 O3081 2.380 . S
Eu3047 O3082 2.432 . S
Eu3047 O3086 2.558 . S
Eu3047 O3087 2.612 . S
Eu3047 O3089 2.339 . S
Eu3047 O3090 2.563 . S
Eu3047 O3091 2.419 . S
Eu3047 C3111 2.848 . S
N3048 C3040 1.362 . S
N3048 Eu3047 2.657 . S
N3048 C3049 1.334 . S
C3049 N3048 1.334 . S
C3049 C3051 1.413 . S
C3049 H3056 0.929 . S
C3050 C3038 1.392 . S
C3050 C3051 1.367 . S
C3050 H3058 0.930 . S
C3051 C3049 1.413 . S
C3051 C3050 1.367 . S
C3051 H3053 0.930 . S
H3052 C3045 0.930 . S
H3053 C3051 0.930 . S
H3054 C3042 0.930 . S
H3055 C3043 0.930 . S
H3056 C3049 0.929 . S
H3057 C3071 0.930 . S
H3058 C3050 0.930 . S
H3059 C3077 0.930 . S
H3060 C3068 0.929 . S
H3061 C3075 0.930 . S
H3062 C3039 0.931 . S
H3063 C3069 0.930 . S
H3064 C3102 0.930 . S
H3065 C3046 0.930 . S
H3066 C3101 0.931 . S
N3067 Eu3036 2.657 . S
N3067 C3068 1.334 . S
N3067 C3072 1.362 . S
C3068 H3060 0.929 . S
C3068 N3067 1.334 . S
C3068 C3071 1.413 . S
C3069 H3063 0.930 . S
C3069 C3070 1.392 . S
C3069 C3071 1.367 . S
C3070 C3069 1.392 . S
C3070 C3072 1.420 . S
C3070 C3102 1.423 . S
C3071 H3057 0.930 . S
C3071 C3068 1.413 . S
C3071 C3069 1.367 . S
C3072 N3067 1.362 . S
C3072 C3070 1.420 . S
C3072 C3076 1.429 . S
H3073 C3078 0.930 . S
N3074 Eu3036 2.609 . S
N3074 C3076 1.377 . S
N3074 C3077 1.321 . S
C3075 H3061 0.930 . S
C3075 C3077 1.400 . S
C3075 C3078 1.386 . S
C3076 C3072 1.429 . S
C3076 N3074 1.377 . S
C3076 C3079 1.411 . S
C3077 H3059 0.930 . S
C3077 N3074 1.321 . S
C3077 C3075 1.400 . S
C3078 H3073 0.930 . S
C3078 C3075 1.386 . S
C3078 C3079 1.395 . S
C3079 C3076 1.411 . S
C3079 C3078 1.395 . S
C3079 C3101 1.420 . S
O3080 Eu3036 2.558 . S
O3080 C3100 1.257 . S
O3081 Eu3036 2.612 . S
O3081 Eu3047 2.380 . S
O3081 C3092 1.276 . S
O3082 Eu3047 2.432 . S
O3082 C3099 1.264 . S
O3083 Eu3036 2.339 . S
O3083 C3099 1.254 . S
O3084 Eu3036 2.563 . S
O3084 C3092 1.235 . S
O3085 Eu3036 2.419 . S
O3085 C3100 1.249 . S
O3086 Eu3047 2.558 . S
O3086 C3111 1.257 . S
O3087 Eu3036 2.380 . S
O3087 Eu3047 2.612 . S
O3087 C3103 1.276 . S
O3088 Eu3036 2.432 . S
O3088 C3110 1.264 . S
O3089 Eu3047 2.339 . S
O3089 C3110 1.254 . S
O3090 Eu3047 2.563 . S
O3090 C3103 1.235 . S
O3091 Eu3047 2.419 . S
O3091 C3111 1.249 . S
C3092 O3081 1.276 . S
C3092 O3084 1.235 . S
C3093 C3095 1.393 . S
C3093 C3097 1.395 . S
C3093 C3100 1.492 . S
C3094 C3095 1.392 . S
C3094 C3096 1.386 . S
C3095 C3093 1.393 . S
C3095 C3094 1.392 . S
C3095 H3112 0.930 . S
C3096 C3094 1.386 . S
C3096 C3098 1.395 . S
C3096 H3113 0.930 . S
C3097 C3093 1.395 . S
C3097 C3098 1.379 . S
C3097 H3114 0.930 . S
C3098 C3096 1.395 . S
C3098 C3097 1.379 . S
C3098 H3115 0.930 . S
C3099 O3082 1.264 . S
C3099 O3083 1.254 . S
C3100 Eu3036 2.848 . S
C3100 O3080 1.257 . S
C3100 O3085 1.249 . S
C3100 C3093 1.492 . S
C3101 H3066 0.931 . S
C3101 C3079 1.420 . S
C3101 C3102 1.351 . S
C3102 H3064 0.930 . S
C3102 C3070 1.423 . S
C3102 C3101 1.351 . S
C3103 O3087 1.276 . S
C3103 O3090 1.235 . S
C3104 C3105 1.393 . S
C3104 C3108 1.395 . S
C3104 C3111 1.492 . S
C3105 C3104 1.393 . S
C3105 C3106 1.392 . S
C3105 H3116 0.930 . S
C3106 C3105 1.392 . S
C3106 C3107 1.386 . S
C3107 C3106 1.386 . S
C3107 C3109 1.395 . S
C3107 H3117 0.930 . S
C3108 C3104 1.395 . S
C3108 C3109 1.379 . S
C3108 H3118 0.930 . S
C3109 C3107 1.395 . S
C3109 C3108 1.379 . S
C3109 H3119 0.930 . S
C3110 O3088 1.264 . S
C3110 O3089 1.254 . S
C3111 Eu3047 2.848 . S
C3111 O3086 1.257 . S
C3111 O3091 1.249 . S
C3111 C3104 1.492 . S
H3112 C3095 0.930 . S
H3113 C3096 0.930 . S
H3114 C3097 0.930 . S
H3115 C3098 0.930 . S
H3116 C3105 0.930 . S
H3117 C3107 0.930 . S
H3118 C3108 0.930 . S
H3119 C3109 0.930 . S
Eu3120 N3151 2.657 . S
Eu3120 N3158 2.609 . S
Eu3120 O3164 2.558 . S
Eu3120 O3165 2.612 . S
Eu3120 O3167 2.339 . S
Eu3120 O3168 2.563 . S
Eu3120 O3169 2.419 . S
Eu3120 O3171 2.380 . S
Eu3120 O3172 2.432 . S
Eu3120 C3184 2.848 . S
C3121 C3124 1.429 . S
C3121 C3125 1.411 . S
C3121 N3128 1.377 . S
C3122 C3124 1.420 . S
C3122 C3126 1.423 . S
C3122 C3134 1.392 . S
C3123 C3125 1.420 . S
C3123 C3126 1.351 . S
C3123 H3146 0.931 . S
C3124 C3121 1.429 . S
C3124 C3122 1.420 . S
C3124 N3132 1.362 . S
C3125 C3121 1.411 . S
C3125 C3123 1.420 . S
C3125 C3130 1.395 . S
C3126 C3122 1.423 . S
C3126 C3123 1.351 . S
C3126 H3138 0.930 . S
C3127 C3129 1.400 . S
C3127 C3130 1.386 . S
C3127 H3139 0.930 . S
N3128 C3121 1.377 . S
N3128 C3129 1.321 . S
N3128 Eu3131 2.609 . S
C3129 C3127 1.400 . S
C3129 N3128 1.321 . S
C3129 H3136 0.930 . S
C3130 C3125 1.395 . S
C3130 C3127 1.386 . S
C3130 H3149 0.930 . S
Eu3131 N3128 2.609 . S
Eu3131 N3132 2.657 . S
Eu3131 O3165 2.380 . S
Eu3131 O3166 2.432 . S
Eu3131 O3170 2.558 . S
Eu3131 O3171 2.612 . S
Eu3131 O3173 2.339 . S
Eu3131 O3174 2.563 . S
Eu3131 O3175 2.419 . S
Eu3131 C3195 2.848 . S
N3132 C3124 1.362 . S
N3132 Eu3131 2.657 . S
N3132 C3133 1.334 . S
C3133 N3132 1.334 . S
C3133 C3135 1.413 . S
C3133 H3140 0.929 . S
C3134 C3122 1.392 . S
C3134 C3135 1.367 . S
C3134 H3142 0.930 . S
C3135 C3133 1.413 . S
C3135 C3134 1.367 . S
C3135 H3137 0.930 . S
H3136 C3129 0.930 . S
H3137 C3135 0.930 . S
H3138 C3126 0.930 . S
H3139 C3127 0.930 . S
H3140 C3133 0.929 . S
H3141 C3155 0.930 . S
H3142 C3134 0.930 . S
H3143 C3161 0.930 . S
H3144 C3152 0.929 . S
H3145 C3159 0.930 . S
H3146 C3123 0.931 . S
H3147 C3153 0.930 . S
H3148 C3186 0.930 . S
H3149 C3130 0.930 . S
H3150 C3185 0.931 . S
N3151 Eu3120 2.657 . S
N3151 C3152 1.334 . S
N3151 C3156 1.362 . S
C3152 H3144 0.929 . S
C3152 N3151 1.334 . S
C3152 C3155 1.413 . S
C3153 H3147 0.930 . S
C3153 C3154 1.392 . S
C3153 C3155 1.367 . S
C3154 C3153 1.392 . S
C3154 C3156 1.420 . S
C3154 C3186 1.423 . S
C3155 H3141 0.930 . S
C3155 C3152 1.413 . S
C3155 C3153 1.367 . S
C3156 N3151 1.362 . S
C3156 C3154 1.420 . S
C3156 C3160 1.429 . S
H3157 C3162 0.930 . S
N3158 Eu3120 2.609 . S
N3158 C3160 1.377 . S
N3158 C3161 1.321 . S
C3159 H3145 0.930 . S
C3159 C3161 1.400 . S
C3159 C3162 1.386 . S
C3160 C3156 1.429 . S
C3160 N3158 1.377 . S
C3160 C3163 1.411 . S
C3161 H3143 0.930 . S
C3161 N3158 1.321 . S
C3161 C3159 1.400 . S
C3162 H3157 0.930 . S
C3162 C3159 1.386 . S
C3162 C3163 1.395 . S
C3163 C3160 1.411 . S
C3163 C3162 1.395 . S
C3163 C3185 1.420 . S
O3164 Eu3120 2.558 . S
O3164 C3184 1.257 . S
O3165 Eu3120 2.612 . S
O3165 Eu3131 2.380 . S
O3165 C3176 1.276 . S
O3166 Eu3131 2.432 . S
O3166 C3183 1.264 . S
O3167 Eu3120 2.339 . S
O3167 C3183 1.254 . S
O3168 Eu3120 2.563 . S
O3168 C3176 1.235 . S
O3169 Eu3120 2.419 . S
O3169 C3184 1.249 . S
O3170 Eu3131 2.558 . S
O3170 C3195 1.257 . S
O3171 Eu3120 2.380 . S
O3171 Eu3131 2.612 . S
O3171 C3187 1.276 . S
O3172 Eu3120 2.432 . S
O3172 C3194 1.264 . S
O3173 Eu3131 2.339 . S
O3173 C3194 1.254 . S
O3174 Eu3131 2.563 . S
O3174 C3187 1.235 . S
O3175 Eu3131 2.419 . S
O3175 C3195 1.249 . S
C3176 O3165 1.276 . S
C3176 O3168 1.235 . S
C3177 C3179 1.393 . S
C3177 C3181 1.395 . S
C3177 C3184 1.492 . S
C3178 C3179 1.392 . S
C3178 C3180 1.386 . S
C3179 C3177 1.393 . S
C3179 C3178 1.392 . S
C3179 H3196 0.930 . S
C3180 C3178 1.386 . S
C3180 C3182 1.395 . S
C3180 H3197 0.930 . S
C3181 C3177 1.395 . S
C3181 C3182 1.379 . S
C3181 H3198 0.930 . S
C3182 C3180 1.395 . S
C3182 C3181 1.379 . S
C3182 H3199 0.930 . S
C3183 O3166 1.264 . S
C3183 O3167 1.254 . S
C3184 Eu3120 2.848 . S
C3184 O3164 1.257 . S
C3184 O3169 1.249 . S
C3184 C3177 1.492 . S
C3185 H3150 0.931 . S
C3185 C3163 1.420 . S
C3185 C3186 1.351 . S
C3186 H3148 0.930 . S
C3186 C3154 1.423 . S
C3186 C3185 1.351 . S
C3187 O3171 1.276 . S
C3187 O3174 1.235 . S
C3188 C3189 1.393 . S
C3188 C3192 1.395 . S
C3188 C3195 1.492 . S
C3189 C3188 1.393 . S
C3189 C3190 1.392 . S
C3189 H3200 0.930 . S
C3190 C3189 1.392 . S
C3190 C3191 1.386 . S
C3191 C3190 1.386 . S
C3191 C3193 1.395 . S
C3191 H3201 0.930 . S
C3192 C3188 1.395 . S
C3192 C3193 1.379 . S
C3192 H3202 0.930 . S
C3193 C3191 1.395 . S
C3193 C3192 1.379 . S
C3193 H3203 0.930 . S
C3194 O3172 1.264 . S
C3194 O3173 1.254 . S
C3195 Eu3131 2.848 . S
C3195 O3170 1.257 . S
C3195 O3175 1.249 . S
C3195 C3188 1.492 . S
H3196 C3179 0.930 . S
H3197 C3180 0.930 . S
H3198 C3181 0.930 . S
H3199 C3182 0.930 . S
H3200 C3189 0.930 . S
H3201 C3191 0.930 . S
H3202 C3192 0.930 . S
H3203 C3193 0.930 . S
Eu3204 N3235 2.657 . S
Eu3204 N3242 2.609 . S
Eu3204 O3248 2.558 . S
Eu3204 O3249 2.612 . S
Eu3204 O3251 2.339 . S
Eu3204 O3252 2.563 . S
Eu3204 O3253 2.419 . S
Eu3204 O3255 2.380 . S
Eu3204 O3256 2.432 . S
Eu3204 C3268 2.848 . S
C3205 C3208 1.429 . S
C3205 C3209 1.411 . S
C3205 N3212 1.377 . S
C3206 C3208 1.420 . S
C3206 C3210 1.423 . S
C3206 C3218 1.392 . S
C3207 C3209 1.420 . S
C3207 C3210 1.351 . S
C3207 H3230 0.931 . S
C3208 C3205 1.429 . S
C3208 C3206 1.420 . S
C3208 N3216 1.362 . S
C3209 C3205 1.411 . S
C3209 C3207 1.420 . S
C3209 C3214 1.395 . S
C3210 C3206 1.423 . S
C3210 C3207 1.351 . S
C3210 H3222 0.930 . S
C3211 C3213 1.400 . S
C3211 C3214 1.386 . S
C3211 H3223 0.930 . S
N3212 C3205 1.377 . S
N3212 C3213 1.321 . S
N3212 Eu3215 2.609 . S
C3213 C3211 1.400 . S
C3213 N3212 1.321 . S
C3213 H3220 0.930 . S
C3214 C3209 1.395 . S
C3214 C3211 1.386 . S
C3214 H3233 0.930 . S
Eu3215 N3212 2.609 . S
Eu3215 N3216 2.657 . S
Eu3215 O3249 2.380 . S
Eu3215 O3250 2.432 . S
Eu3215 O3254 2.558 . S
Eu3215 O3255 2.612 . S
Eu3215 O3257 2.339 . S
Eu3215 O3258 2.563 . S
Eu3215 O3259 2.419 . S
Eu3215 C3279 2.848 . S
N3216 C3208 1.362 . S
N3216 Eu3215 2.657 . S
N3216 C3217 1.334 . S
C3217 N3216 1.334 . S
C3217 C3219 1.413 . S
C3217 H3224 0.929 . S
C3218 C3206 1.392 . S
C3218 C3219 1.367 . S
C3218 H3226 0.930 . S
C3219 C3217 1.413 . S
C3219 C3218 1.367 . S
C3219 H3221 0.930 . S
H3220 C3213 0.930 . S
H3221 C3219 0.930 . S
H3222 C3210 0.930 . S
H3223 C3211 0.930 . S
H3224 C3217 0.929 . S
H3225 C3239 0.930 . S
H3226 C3218 0.930 . S
H3227 C3245 0.930 . S
H3228 C3236 0.929 . S
H3229 C3243 0.930 . S
H3230 C3207 0.931 . S
H3231 C3237 0.930 . S
H3232 C3270 0.930 . S
H3233 C3214 0.930 . S
H3234 C3269 0.931 . S
N3235 Eu3204 2.657 . S
N3235 C3236 1.334 . S
N3235 C3240 1.362 . S
C3236 H3228 0.929 . S
C3236 N3235 1.334 . S
C3236 C3239 1.413 . S
C3237 H3231 0.930 . S
C3237 C3238 1.392 . S
C3237 C3239 1.367 . S
C3238 C3237 1.392 . S
C3238 C3240 1.420 . S
C3238 C3270 1.423 . S
C3239 H3225 0.930 . S
C3239 C3236 1.413 . S
C3239 C3237 1.367 . S
C3240 N3235 1.362 . S
C3240 C3238 1.420 . S
C3240 C3244 1.429 . S
H3241 C3246 0.930 . S
N3242 Eu3204 2.609 . S
N3242 C3244 1.377 . S
N3242 C3245 1.321 . S
C3243 H3229 0.930 . S
C3243 C3245 1.400 . S
C3243 C3246 1.386 . S
C3244 C3240 1.429 . S
C3244 N3242 1.377 . S
C3244 C3247 1.411 . S
C3245 H3227 0.930 . S
C3245 N3242 1.321 . S
C3245 C3243 1.400 . S
C3246 H3241 0.930 . S
C3246 C3243 1.386 . S
C3246 C3247 1.395 . S
C3247 C3244 1.411 . S
C3247 C3246 1.395 . S
C3247 C3269 1.420 . S
O3248 Eu3204 2.558 . S
O3248 C3268 1.257 . S
O3249 Eu3204 2.612 . S
O3249 Eu3215 2.380 . S
O3249 C3260 1.276 . S
O3250 Eu3215 2.432 . S
O3250 C3267 1.264 . S
O3251 Eu3204 2.339 . S
O3251 C3267 1.254 . S
O3252 Eu3204 2.563 . S
O3252 C3260 1.235 . S
O3253 Eu3204 2.419 . S
O3253 C3268 1.249 . S
O3254 Eu3215 2.558 . S
O3254 C3279 1.257 . S
O3255 Eu3204 2.380 . S
O3255 Eu3215 2.612 . S
O3255 C3271 1.276 . S
O3256 Eu3204 2.432 . S
O3256 C3278 1.264 . S
O3257 Eu3215 2.339 . S
O3257 C3278 1.254 . S
O3258 Eu3215 2.563 . S
O3258 C3271 1.235 . S
O3259 Eu3215 2.419 . S
O3259 C3279 1.249 . S
C3260 O3249 1.276 . S
C3260 O3252 1.235 . S
C3261 C3263 1.393 . S
C3261 C3265 1.395 . S
C3261 C3268 1.492 . S
C3262 C3263 1.392 . S
C3262 C3264 1.386 . S
C3263 C3261 1.393 . S
C3263 C3262 1.392 . S
C3263 H3280 0.930 . S
C3264 C3262 1.386 . S
C3264 C3266 1.395 . S
C3264 H3281 0.930 . S
C3265 C3261 1.395 . S
C3265 C3266 1.379 . S
C3265 H3282 0.930 . S
C3266 C3264 1.395 . S
C3266 C3265 1.379 . S
C3266 H3283 0.930 . S
C3267 O3250 1.264 . S
C3267 O3251 1.254 . S
C3268 Eu3204 2.848 . S
C3268 O3248 1.257 . S
C3268 O3253 1.249 . S
C3268 C3261 1.492 . S
C3269 H3234 0.931 . S
C3269 C3247 1.420 . S
C3269 C3270 1.351 . S
C3270 H3232 0.930 . S
C3270 C3238 1.423 . S
C3270 C3269 1.351 . S
C3271 O3255 1.276 . S
C3271 O3258 1.235 . S
C3272 C3273 1.393 . S
C3272 C3276 1.395 . S
C3272 C3279 1.492 . S
C3273 C3272 1.393 . S
C3273 C3274 1.392 . S
C3273 H3284 0.930 . S
C3274 C3273 1.392 . S
C3274 C3275 1.386 . S
C3275 C3274 1.386 . S
C3275 C3277 1.395 . S
C3275 H3285 0.930 . S
C3276 C3272 1.395 . S
C3276 C3277 1.379 . S
C3276 H3286 0.930 . S
C3277 C3275 1.395 . S
C3277 C3276 1.379 . S
C3277 H3287 0.930 . S
C3278 O3256 1.264 . S
C3278 O3257 1.254 . S
C3279 Eu3215 2.848 . S
C3279 O3254 1.257 . S
C3279 O3259 1.249 . S
C3279 C3272 1.492 . S
H3280 C3263 0.930 . S
H3281 C3264 0.930 . S
H3282 C3265 0.930 . S
H3283 C3266 0.930 . S
H3284 C3273 0.930 . S
H3285 C3275 0.930 . S
H3286 C3276 0.930 . S
H3287 C3277 0.930 . S
Eu3288 N3319 2.657 . S
Eu3288 N3326 2.609 . S
Eu3288 O3332 2.558 . S
Eu3288 O3333 2.612 . S
Eu3288 O3335 2.339 . S
Eu3288 O3336 2.563 . S
Eu3288 O3337 2.419 . S
Eu3288 O3339 2.380 . S
Eu3288 O3340 2.432 . S
Eu3288 C3352 2.848 . S
C3289 C3292 1.429 . S
C3289 C3293 1.411 . S
C3289 N3296 1.377 . S
C3290 C3292 1.420 . S
C3290 C3294 1.423 . S
C3290 C3302 1.392 . S
C3291 C3293 1.420 . S
C3291 C3294 1.351 . S
C3291 H3314 0.931 . S
C3292 C3289 1.429 . S
C3292 C3290 1.420 . S
C3292 N3300 1.362 . S
C3293 C3289 1.411 . S
C3293 C3291 1.420 . S
C3293 C3298 1.395 . S
C3294 C3290 1.423 . S
C3294 C3291 1.351 . S
C3294 H3306 0.930 . S
C3295 C3297 1.400 . S
C3295 C3298 1.386 . S
C3295 H3307 0.930 . S
N3296 C3289 1.377 . S
N3296 C3297 1.321 . S
N3296 Eu3299 2.609 . S
C3297 C3295 1.400 . S
C3297 N3296 1.321 . S
C3297 H3304 0.930 . S
C3298 C3293 1.395 . S
C3298 C3295 1.386 . S
C3298 H3317 0.930 . S
Eu3299 N3296 2.609 . S
Eu3299 N3300 2.657 . S
Eu3299 O3333 2.380 . S
Eu3299 O3334 2.432 . S
Eu3299 O3338 2.558 . S
Eu3299 O3339 2.612 . S
Eu3299 O3341 2.339 . S
Eu3299 O3342 2.563 . S
Eu3299 O3343 2.419 . S
Eu3299 C3363 2.848 . S
N3300 C3292 1.362 . S
N3300 Eu3299 2.657 . S
N3300 C3301 1.334 . S
C3301 N3300 1.334 . S
C3301 C3303 1.413 . S
C3301 H3308 0.929 . S
C3302 C3290 1.392 . S
C3302 C3303 1.367 . S
C3302 H3310 0.930 . S
C3303 C3301 1.413 . S
C3303 C3302 1.367 . S
C3303 H3305 0.930 . S
H3304 C3297 0.930 . S
H3305 C3303 0.930 . S
H3306 C3294 0.930 . S
H3307 C3295 0.930 . S
H3308 C3301 0.929 . S
H3309 C3323 0.930 . S
H3310 C3302 0.930 . S
H3311 C3329 0.930 . S
H3312 C3320 0.929 . S
H3313 C3327 0.930 . S
H3314 C3291 0.931 . S
H3315 C3321 0.930 . S
H3316 C3354 0.930 . S
H3317 C3298 0.930 . S
H3318 C3353 0.931 . S
N3319 Eu3288 2.657 . S
N3319 C3320 1.334 . S
N3319 C3324 1.362 . S
C3320 H3312 0.929 . S
C3320 N3319 1.334 . S
C3320 C3323 1.413 . S
C3321 H3315 0.930 . S
C3321 C3322 1.392 . S
C3321 C3323 1.367 . S
C3322 C3321 1.392 . S
C3322 C3324 1.420 . S
C3322 C3354 1.423 . S
C3323 H3309 0.930 . S
C3323 C3320 1.413 . S
C3323 C3321 1.367 . S
C3324 N3319 1.362 . S
C3324 C3322 1.420 . S
C3324 C3328 1.429 . S
H3325 C3330 0.930 . S
N3326 Eu3288 2.609 . S
N3326 C3328 1.377 . S
N3326 C3329 1.321 . S
C3327 H3313 0.930 . S
C3327 C3329 1.400 . S
C3327 C3330 1.386 . S
C3328 C3324 1.429 . S
C3328 N3326 1.377 . S
C3328 C3331 1.411 . S
C3329 H3311 0.930 . S
C3329 N3326 1.321 . S
C3329 C3327 1.400 . S
C3330 H3325 0.930 . S
C3330 C3327 1.386 . S
C3330 C3331 1.395 . S
C3331 C3328 1.411 . S
C3331 C3330 1.395 . S
C3331 C3353 1.420 . S
O3332 Eu3288 2.558 . S
O3332 C3352 1.257 . S
O3333 Eu3288 2.612 . S
O3333 Eu3299 2.380 . S
O3333 C3344 1.276 . S
O3334 Eu3299 2.432 . S
O3334 C3351 1.264 . S
O3335 Eu3288 2.339 . S
O3335 C3351 1.254 . S
O3336 Eu3288 2.563 . S
O3336 C3344 1.235 . S
O3337 Eu3288 2.419 . S
O3337 C3352 1.249 . S
O3338 Eu3299 2.558 . S
O3338 C3363 1.257 . S
O3339 Eu3288 2.380 . S
O3339 Eu3299 2.612 . S
O3339 C3355 1.276 . S
O3340 Eu3288 2.432 . S
O3340 C3362 1.264 . S
O3341 Eu3299 2.339 . S
O3341 C3362 1.254 . S
O3342 Eu3299 2.563 . S
O3342 C3355 1.235 . S
O3343 Eu3299 2.419 . S
O3343 C3363 1.249 . S
C3344 O3333 1.276 . S
C3344 O3336 1.235 . S
C3345 C3347 1.393 . S
C3345 C3349 1.395 . S
C3345 C3352 1.492 . S
C3346 C3347 1.392 . S
C3346 C3348 1.386 . S
C3347 C3345 1.393 . S
C3347 C3346 1.392 . S
C3347 H3364 0.930 . S
C3348 C3346 1.386 . S
C3348 C3350 1.395 . S
C3348 H3365 0.930 . S
C3349 C3345 1.395 . S
C3349 C3350 1.379 . S
C3349 H3366 0.930 . S
C3350 C3348 1.395 . S
C3350 C3349 1.379 . S
C3350 H3367 0.930 . S
C3351 O3334 1.264 . S
C3351 O3335 1.254 . S
C3352 Eu3288 2.848 . S
C3352 O3332 1.257 . S
C3352 O3337 1.249 . S
C3352 C3345 1.492 . S
C3353 H3318 0.931 . S
C3353 C3331 1.420 . S
C3353 C3354 1.351 . S
C3354 H3316 0.930 . S
C3354 C3322 1.423 . S
C3354 C3353 1.351 . S
C3355 O3339 1.276 . S
C3355 O3342 1.235 . S
C3356 C3357 1.393 . S
C3356 C3360 1.395 . S
C3356 C3363 1.492 . S
C3357 C3356 1.393 . S
C3357 C3358 1.392 . S
C3357 H3368 0.930 . S
C3358 C3357 1.392 . S
C3358 C3359 1.386 . S
C3359 C3358 1.386 . S
C3359 C3361 1.395 . S
C3359 H3369 0.930 . S
C3360 C3356 1.395 . S
C3360 C3361 1.379 . S
C3360 H3370 0.930 . S
C3361 C3359 1.395 . S
C3361 C3360 1.379 . S
C3361 H3371 0.930 . S
C3362 O3340 1.264 . S
C3362 O3341 1.254 . S
C3363 Eu3299 2.848 . S
C3363 O3338 1.257 . S
C3363 O3343 1.249 . S
C3363 C3356 1.492 . S
H3364 C3347 0.930 . S
H3365 C3348 0.930 . S
H3366 C3349 0.930 . S
H3367 C3350 0.930 . S
H3368 C3357 0.930 . S
H3369 C3359 0.930 . S
H3370 C3360 0.930 . S
H3371 C3361 0.930 . S
Eu3372 N3403 2.657 . S
Eu3372 N3410 2.609 1_554 S
Eu3372 O3416 2.558 1_554 S
Eu3372 O3417 2.612 . S
Eu3372 O3419 2.339 . S
Eu3372 O3420 2.563 . S
Eu3372 O3421 2.419 . S
Eu3372 O3423 2.380 . S
Eu3372 O3424 2.432 1_554 S
Eu3372 C3436 2.848 1_554 S
C3373 C3376 1.428 . S
C3373 C3377 1.408 . S
C3373 N3380 1.381 1_655 S
C3374 C3376 1.420 . S
C3374 C3378 1.423 . S
C3374 C3386 1.333 1_554 S
C3375 C3377 1.420 . S
C3375 C3378 1.351 . S
C3375 H3398 0.931 . S
C3376 C3373 1.428 . S
C3376 C3374 1.420 . S
C3376 N3384 1.362 1_655 S
C3377 C3373 1.408 . S
C3377 C3375 1.420 . S
C3377 C3382 1.395 . S
C3378 C3374 1.423 . S
C3378 C3375 1.351 . S
C3378 H3390 0.930 . S
C3379 C3381 1.400 . S
C3379 C3382 1.386 1_455 S
C3379 H3391 0.930 . S
N3380 C3373 1.381 1_455 S
N3380 C3381 1.321 . S
N3380 Eu3383 2.609 . S
C3381 C3379 1.400 . S
C3381 N3380 1.321 . S
C3381 H3388 0.930 . S
C3382 C3377 1.395 . S
C3382 C3379 1.386 1_655 S
C3382 H3401 0.930 . S
Eu3383 N3380 2.609 . S
Eu3383 N3384 2.657 . S
Eu3383 O3417 2.380 . S
Eu3383 O3418 2.432 . S
Eu3383 O3422 2.558 . S
Eu3383 O3423 2.612 . S
Eu3383 O3425 2.309 1_554 S
Eu3383 O3426 2.563 . S
Eu3383 O3427 2.348 1_455 S
Eu3383 C3447 2.848 1_455 S
N3384 C3376 1.362 1_455 S
N3384 Eu3383 2.657 . S
N3384 C3385 1.334 1_554 S
C3385 N3384 1.334 1_556 S
C3385 C3387 1.413 1_455 S
C3385 H3392 0.929 . S
C3386 C3374 1.333 1_556 S
C3386 C3387 1.411 . S
C3386 H3394 0.947 . S
C3387 C3385 1.413 1_655 S
C3387 C3386 1.411 . S
C3387 H3389 0.930 . S
H3388 C3381 0.930 . S
H3389 C3387 0.930 . S
H3390 C3378 0.930 . S
H3391 C3379 0.930 . S
H3392 C3385 0.929 . S
H3393 C3407 0.930 . S
H3394 C3386 0.947 . S
H3395 C3413 0.930 . S
H3396 C3404 0.929 . S
H3397 C3411 0.930 . S
H3398 C3375 0.931 . S
H3399 C3405 0.930 . S
H3400 C3438 0.930 . S
H3401 C3382 0.930 . S
H3402 C3437 0.931 . S
N3403 Eu3372 2.657 . S
N3403 C3404 1.334 . S
N3403 C3408 1.362 . S
C3404 H3396 0.929 . S
C3404 N3403 1.334 . S
C3404 C3407 1.413 . S
C3405 H3399 0.930 . S
C3405 C3406 1.392 . S
C3405 C3407 1.367 . S
C3406 C3405 1.392 . S
C3406 C3408 1.420 . S
C3406 C3438 1.423 . S
C3407 H3393 0.930 . S
C3407 C3404 1.413 . S
C3407 C3405 1.367 . S
C3408 N3403 1.362 . S
C3408 C3406 1.420 . S
C3408 C3412 1.429 1_554 S
H3409 C3414 0.930 . S
N3410 Eu3372 2.609 1_556 S
N3410 C3412 1.377 . S
N3410 C3413 1.321 . S
C3411 H3397 0.930 . S
C3411 C3413 1.400 . S
C3411 C3414 1.386 . S
C3412 C3408 1.429 1_556 S
C3412 N3410 1.377 . S
C3412 C3415 1.411 . S
C3413 H3395 0.930 . S
C3413 N3410 1.321 . S
C3413 C3411 1.400 . S
C3414 H3409 0.930 . S
C3414 C3411 1.386 . S
C3414 C3415 1.395 . S
C3415 C3412 1.411 . S
C3415 C3414 1.395 . S
C3415 C3437 1.420 . S
O3416 Eu3372 2.558 1_556 S
O3416 C3436 1.255 . S
O3417 Eu3372 2.612 . S
O3417 Eu3383 2.380 . S
O3417 C3428 1.276 . S
O3418 Eu3383 2.432 . S
O3418 C3435 1.264 . S
O3419 Eu3372 2.339 . S
O3419 C3435 1.254 . S
O3420 Eu3372 2.563 . S
O3420 C3428 1.235 . S
O3421 Eu3372 2.419 . S
O3421 C3436 1.251 1_554 S
O3422 Eu3383 2.558 . S
O3422 C3447 1.257 1_455 S
O3423 Eu3372 2.380 . S
O3423 Eu3383 2.612 . S
O3423 C3439 1.276 . S
O3424 Eu3372 2.432 1_556 S
O3424 C3446 1.264 . S
O3425 Eu3383 2.309 1_556 S
O3425 C3446 1.277 . S
O3426 Eu3383 2.563 . S
O3426 C3439 1.235 . S
O3427 Eu3383 2.348 1_655 S
O3427 C3447 1.271 . S
C3428 O3417 1.276 . S
C3428 O3420 1.235 . S
C3429 C3431 1.393 1_556 S
C3429 C3433 1.395 . S
C3429 C3436 1.491 . S
C3430 C3431 1.392 . S
C3430 C3432 1.386 1_554 S
C3431 C3429 1.393 1_554 S
C3431 C3430 1.392 . S
C3431 H3448 0.930 . S
C3432 C3430 1.386 1_556 S
C3432 C3434 1.395 . S
C3432 H3449 0.930 . S
C3433 C3429 1.395 . S
C3433 C3434 1.379 . S
C3433 H3450 0.930 . S
C3434 C3432 1.395 . S
C3434 C3433 1.379 . S
C3434 H3451 0.930 . S
C3435 O3418 1.264 . S
C3435 O3419 1.254 . S
C3436 Eu3372 2.848 1_556 S
C3436 O3416 1.255 . S
C3436 O3421 1.251 1_556 S
C3436 C3429 1.491 . S
C3437 H3402 0.931 . S
C3437 C3415 1.420 . S
C3437 C3438 1.351 1_556 S
C3438 H3400 0.930 . S
C3438 C3406 1.423 . S
C3438 C3437 1.351 1_554 S
C3439 O3423 1.276 . S
C3439 O3426 1.235 . S
C3440 C3441 1.393 . S
C3440 C3444 1.395 . S
C3440 C3447 1.492 . S
C3441 C3440 1.393 . S
C3441 C3442 1.392 . S
C3441 H3452 0.930 . S
C3442 C3441 1.392 . S
C3442 C3443 1.386 . S
C3443 C3442 1.386 . S
C3443 C3445 1.395 . S
C3443 H3453 0.930 . S
C3444 C3440 1.395 . S
C3444 C3445 1.379 . S
C3444 H3454 0.930 . S
C3445 C3443 1.395 . S
C3445 C3444 1.379 . S
C3445 H3455 0.930 . S
C3446 O3424 1.264 . S
C3446 O3425 1.277 . S
C3447 Eu3383 2.848 1_655 S
C3447 O3422 1.257 1_655 S
C3447 O3427 1.271 . S
C3447 C3440 1.492 . S
H3448 C3431 0.930 . S
H3449 C3432 0.930 . S
H3450 C3433 0.930 . S
H3451 C3434 0.930 . S
H3452 C3441 0.930 . S
H3453 C3443 0.930 . S
H3454 C3444 0.930 . S
H3455 C3445 0.930 . S
C3456 C3457 1.349 . S
C3456 C3458 1.327 1_556 S
C3456 H3481 0.950 1_556 S
C3457 C3456 1.349 . S
C3457 C3473 1.349 . S
C3458 C3456 1.327 1_554 S
C3458 C3477 1.429 1_554 S
C3458 H3482 0.950 . S
C3459 C3476 1.574 . S
C3459 C3478 1.368 . S
C3459 H3483 0.949 . S
H3460 C3464 0.949 . S
C3461 C3462 1.349 1_556 S
C3461 C3463 1.327 . S
C3461 H3484 0.950 . S
C3462 C3461 1.349 1_554 S
C3462 C3474 1.349 . S
C3463 C3461 1.327 . S
C3463 C3479 1.429 1_556 S
C3463 H3485 0.950 . S
C3464 H3460 0.949 . S
C3464 C3472 1.574 . S
C3464 C3480 1.368 . S
H3465 C3473 0.950 . S
H3466 C3471 0.950 . S
H3467 C3472 0.949 . S
H3468 C3474 0.950 . S
H3469 C3475 0.950 . S
H3470 C3476 0.949 . S
C3471 H3466 0.950 . S
C3471 C3473 1.327 . S
C3471 C3477 1.429 . S
C3472 C3464 1.574 . S
C3472 H3467 0.949 . S
C3472 C3478 1.368 1_554 S
C3473 C3457 1.349 . S
C3473 H3465 0.950 . S
C3473 C3471 1.327 . S
C3474 C3462 1.349 . S
C3474 H3468 0.950 . S
C3474 C3475 1.327 . S
C3475 H3469 0.950 . S
C3475 C3474 1.327 . S
C3475 C3479 1.429 . S
C3476 C3459 1.574 . S
C3476 H3470 0.949 . S
C3476 C3480 1.368 1_556 S
C3477 C3458 1.429 1_556 S
C3477 C3471 1.429 . S
C3477 C3478 1.523 . S
C3478 C3459 1.368 . S
C3478 C3472 1.368 1_556 S
C3478 C3477 1.523 . S
C3479 C3463 1.429 1_554 S
C3479 C3475 1.429 . S
C3479 C3480 1.523 . S
C3480 C3464 1.368 . S
C3480 C3476 1.368 1_554 S
C3480 C3479 1.523 . S
H3481 C3456 0.950 1_554 S
H3482 C3458 0.950 . S
H3483 C3459 0.949 . S
H3484 C3461 0.950 . S
H3485 C3463 0.950 . S
C3486 C3487 1.349 . S
C3486 C3488 1.327 . S
C3486 H3511 0.950 . S
C3487 C3486 1.349 . S
C3487 C3503 1.349 . S
C3488 C3486 1.327 . S
C3488 C3507 1.429 . S
C3488 H3512 0.950 . S
C3489 C3506 1.574 . S
C3489 C3508 1.368 . S
C3489 H3513 0.949 . S
H3490 C3494 0.949 . S
C3491 C3492 1.349 . S
C3491 C3493 1.327 . S
C3491 H3514 0.950 . S
C3492 C3491 1.349 . S
C3492 C3504 1.349 . S
C3493 C3491 1.327 . S
C3493 C3509 1.429 . S
C3493 H3515 0.950 . S
C3494 H3490 0.949 . S
C3494 C3502 1.574 . S
C3494 C3510 1.368 . S
H3495 C3503 0.950 . S
H3496 C3501 0.950 . S
H3497 C3502 0.949 . S
H3498 C3504 0.950 . S
H3499 C3505 0.950 . S
H3500 C3506 0.949 . S
C3501 H3496 0.950 . S
C3501 C3503 1.327 . S
C3501 C3507 1.429 . S
C3502 C3494 1.574 . S
C3502 H3497 0.949 . S
C3502 C3508 1.368 . S
C3503 C3487 1.349 . S
C3503 H3495 0.950 . S
C3503 C3501 1.327 . S
C3504 C3492 1.349 . S
C3504 H3498 0.950 . S
C3504 C3505 1.327 . S
C3505 H3499 0.950 . S
C3505 C3504 1.327 . S
C3505 C3509 1.429 . S
C3506 C3489 1.574 . S
C3506 H3500 0.949 . S
C3506 C3510 1.368 . S
C3507 C3488 1.429 . S
C3507 C3501 1.429 . S
C3507 C3508 1.523 . S
C3508 C3489 1.368 . S
C3508 C3502 1.368 . S
C3508 C3507 1.523 . S
C3509 C3493 1.429 . S
C3509 C3505 1.429 . S
C3509 C3510 1.523 . S
C3510 C3494 1.368 . S
C3510 C3506 1.368 . S
C3510 C3509 1.523 . S
H3511 C3486 0.950 . S
H3512 C3488 0.950 . S
H3513 C3489 0.949 . S
H3514 C3491 0.950 . S
H3515 C3493 0.950 . S
C3516 C3517 1.349 . S
C3516 C3518 1.327 . S
C3516 H3541 0.950 . S
C3517 C3516 1.349 . S
C3517 C3533 1.349 . S
C3518 C3516 1.327 . S
C3518 C3537 1.429 . S
C3518 H3542 0.950 . S
C3519 C3536 1.574 . S
C3519 C3538 1.368 . S
C3519 H3543 0.949 . S
H3520 C3524 0.949 . S
C3521 C3522 1.349 . S
C3521 C3523 1.327 . S
C3521 H3544 0.950 . S
C3522 C3521 1.349 . S
C3522 C3534 1.349 . S
C3523 C3521 1.327 . S
C3523 C3539 1.429 . S
C3523 H3545 0.950 . S
C3524 H3520 0.949 . S
C3524 C3532 1.574 . S
C3524 C3540 1.368 . S
H3525 C3533 0.950 . S
H3526 C3531 0.950 . S
H3527 C3532 0.949 . S
H3528 C3534 0.950 . S
H3529 C3535 0.950 . S
H3530 C3536 0.949 . S
C3531 H3526 0.950 . S
C3531 C3533 1.327 . S
C3531 C3537 1.429 . S
C3532 C3524 1.574 . S
C3532 H3527 0.949 . S
C3532 C3538 1.368 . S
C3533 C3517 1.349 . S
C3533 H3525 0.950 . S
C3533 C3531 1.327 . S
C3534 C3522 1.349 . S
C3534 H3528 0.950 . S
C3534 C3535 1.327 . S
C3535 H3529 0.950 . S
C3535 C3534 1.327 . S
C3535 C3539 1.429 . S
C3536 C3519 1.574 . S
C3536 H3530 0.949 . S
C3536 C3540 1.368 . S
C3537 C3518 1.429 . S
C3537 C3531 1.429 . S
C3537 C3538 1.523 . S
C3538 C3519 1.368 . S
C3538 C3532 1.368 . S
C3538 C3537 1.523 . S
C3539 C3523 1.429 . S
C3539 C3535 1.429 . S
C3539 C3540 1.523 . S
C3540 C3524 1.368 . S
C3540 C3536 1.368 . S
C3540 C3539 1.523 . S
H3541 C3516 0.950 . S
H3542 C3518 0.950 . S
H3543 C3519 0.949 . S
H3544 C3521 0.950 . S
H3545 C3523 0.950 . S
C3546 C3547 1.349 . S
C3546 C3548 1.327 . S
C3546 H3571 0.950 . S
C3547 C3546 1.349 . S
C3547 C3563 1.349 . S
C3548 C3546 1.327 . S
C3548 C3567 1.429 . S
C3548 H3572 0.950 . S
C3549 C3566 1.574 . S
C3549 C3568 1.368 . S
C3549 H3573 0.949 . S
H3550 C3554 0.949 . S
C3551 C3552 1.349 . S
C3551 C3553 1.327 . S
C3551 H3574 0.950 . S
C3552 C3551 1.349 . S
C3552 C3564 1.349 . S
C3553 C3551 1.327 . S
C3553 C3569 1.429 . S
C3553 H3575 0.950 . S
C3554 H3550 0.949 . S
C3554 C3562 1.574 . S
C3554 C3570 1.368 . S
H3555 C3563 0.950 . S
H3556 C3561 0.950 . S
H3557 C3562 0.949 . S
H3558 C3564 0.950 . S
H3559 C3565 0.950 . S
H3560 C3566 0.949 . S
C3561 H3556 0.950 . S
C3561 C3563 1.327 . S
C3561 C3567 1.429 . S
C3562 C3554 1.574 . S
C3562 H3557 0.949 . S
C3562 C3568 1.368 . S
C3563 C3547 1.349 . S
C3563 H3555 0.950 . S
C3563 C3561 1.327 . S
C3564 C3552 1.349 . S
C3564 H3558 0.950 . S
C3564 C3565 1.327 . S
C3565 H3559 0.950 . S
C3565 C3564 1.327 . S
C3565 C3569 1.429 . S
C3566 C3549 1.574 . S
C3566 H3560 0.949 . S
C3566 C3570 1.368 . S
C3567 C3548 1.429 . S
C3567 C3561 1.429 . S
C3567 C3568 1.523 . S
C3568 C3549 1.368 . S
C3568 C3562 1.368 . S
C3568 C3567 1.523 . S
C3569 C3553 1.429 . S
C3569 C3565 1.429 . S
C3569 C3570 1.523 . S
C3570 C3554 1.368 . S
C3570 C3566 1.368 . S
C3570 C3569 1.523 . S
H3571 C3546 0.950 . S
H3572 C3548 0.950 . S
H3573 C3549 0.949 . S
H3574 C3551 0.950 . S
H3575 C3553 0.950 . S
C3576 C3577 1.349 . S
C3576 C3578 1.327 . S
C3576 H3601 0.950 . S
C3577 C3576 1.349 . S
C3577 C3593 1.349 . S
C3578 C3576 1.327 . S
C3578 C3597 1.429 . S
C3578 H3602 0.950 . S
C3579 C3596 1.574 . S
C3579 C3598 1.368 . S
C3579 H3603 0.949 . S
H3580 C3584 0.949 . S
C3581 C3582 1.349 . S
C3581 C3583 1.327 . S
C3581 H3604 0.950 . S
C3582 C3581 1.349 . S
C3582 C3594 1.349 . S
C3583 C3581 1.327 . S
C3583 C3599 1.429 . S
C3583 H3605 0.950 . S
C3584 H3580 0.949 . S
C3584 C3592 1.574 . S
C3584 C3600 1.368 . S
H3585 C3593 0.950 1_655 S
H3586 C3591 0.950 . S
H3587 C3592 0.949 . S
H3588 C3594 0.950 . S
H3589 C3595 0.950 . S
H3590 C3596 0.949 . S
C3591 H3586 0.950 . S
C3591 C3593 1.327 . S
C3591 C3597 1.429 . S
C3592 C3584 1.574 . S
C3592 H3587 0.949 . S
C3592 C3598 1.368 . S
C3593 C3577 1.349 . S
C3593 H3585 0.950 1_455 S
C3593 C3591 1.327 . S
C3594 C3582 1.349 . S
C3594 H3588 0.950 . S
C3594 C3595 1.327 . S
C3595 H3589 0.950 . S
C3595 C3594 1.327 . S
C3595 C3599 1.429 . S
C3596 C3579 1.574 . S
C3596 H3590 0.949 . S
C3596 C3600 1.368 . S
C3597 C3578 1.429 . S
C3597 C3591 1.429 . S
C3597 C3598 1.523 . S
C3598 C3579 1.368 . S
C3598 C3592 1.368 . S
C3598 C3597 1.523 . S
C3599 C3583 1.429 . S
C3599 C3595 1.429 . S
C3599 C3600 1.523 . S
C3600 C3584 1.368 . S
C3600 C3596 1.368 . S
C3600 C3599 1.523 . S
H3601 C3576 0.950 . S
H3602 C3578 0.950 . S
H3603 C3579 0.949 . S
H3604 C3581 0.950 . S
H3605 C3583 0.950 . S
C3606 C3607 1.349 . S
C3606 C3608 1.327 . S
C3606 H3631 0.950 . S
C3607 C3606 1.349 . S
C3607 C3623 1.349 . S
C3608 C3606 1.327 . S
C3608 C3627 1.429 . S
C3608 H3632 0.950 . S
C3609 C3626 1.574 . S
C3609 C3628 1.368 . S
C3609 H3633 0.949 . S
H3610 C3614 0.949 . S
C3611 C3612 1.349 . S
C3611 C3613 1.327 . S
C3611 H3634 0.950 . S
C3612 C3611 1.349 . S
C3612 C3624 1.349 . S
C3613 C3611 1.327 . S
C3613 C3629 1.429 . S
C3613 H3635 0.950 . S
C3614 H3610 0.949 . S
C3614 C3622 1.574 . S
C3614 C3630 1.368 . S
H3615 C3623 0.950 . S
H3616 C3621 0.950 . S
H3617 C3622 0.949 . S
H3618 C3624 0.950 . S
H3619 C3625 0.950 . S
H3620 C3626 0.949 . S
C3621 H3616 0.950 . S
C3621 C3623 1.327 . S
C3621 C3627 1.429 . S
C3622 C3614 1.574 . S
C3622 H3617 0.949 . S
C3622 C3628 1.368 . S
C3623 C3607 1.349 . S
C3623 H3615 0.950 . S
C3623 C3621 1.327 . S
C3624 C3612 1.349 . S
C3624 H3618 0.950 . S
C3624 C3625 1.327 . S
C3625 H3619 0.950 . S
C3625 C3624 1.327 . S
C3625 C3629 1.429 . S
C3626 C3609 1.574 . S
C3626 H3620 0.949 . S
C3626 C3630 1.368 . S
C3627 C3608 1.429 . S
C3627 C3621 1.429 . S
C3627 C3628 1.523 . S
C3628 C3609 1.368 . S
C3628 C3622 1.368 . S
C3628 C3627 1.523 . S
C3629 C3613 1.429 . S
C3629 C3625 1.429 . S
C3629 C3630 1.523 . S
C3630 C3614 1.368 . S
C3630 C3626 1.368 . S
C3630 C3629 1.523 . S
H3631 C3606 0.950 . S
H3632 C3608 0.950 . S
H3633 C3609 0.949 . S
H3634 C3611 0.950 . S
H3635 C3613 0.950 . S
C3636 C3637 1.349 . S
C3636 C3638 1.327 . S
C3636 H3661 0.950 . S
C3637 C3636 1.349 . S
C3637 C3653 1.349 . S
C3638 C3636 1.327 . S
C3638 C3657 1.429 . S
C3638 H3662 0.950 . S
C3639 C3656 1.574 . S
C3639 C3658 1.368 . S
C3639 H3663 0.949 . S
H3640 C3644 0.949 . S
C3641 C3642 1.349 . S
C3641 C3643 1.327 . S
C3641 H3664 0.950 . S
C3642 C3641 1.349 . S
C3642 C3654 1.349 . S
C3643 C3641 1.327 . S
C3643 C3659 1.429 . S
C3643 H3665 0.950 . S
C3644 H3640 0.949 . S
C3644 C3652 1.574 . S
C3644 C3660 1.368 . S
H3645 C3653 0.950 . S
H3646 C3651 0.950 . S
H3647 C3652 0.949 . S
H3648 C3654 0.950 . S
H3649 C3655 0.950 . S
H3650 C3656 0.949 . S
C3651 H3646 0.950 . S
C3651 C3653 1.327 . S
C3651 C3657 1.429 . S
C3652 C3644 1.574 . S
C3652 H3647 0.949 . S
C3652 C3658 1.368 . S
C3653 C3637 1.349 . S
C3653 H3645 0.950 . S
C3653 C3651 1.327 . S
C3654 C3642 1.349 . S
C3654 H3648 0.950 . S
C3654 C3655 1.327 . S
C3655 H3649 0.950 . S
C3655 C3654 1.327 . S
C3655 C3659 1.429 . S
C3656 C3639 1.574 . S
C3656 H3650 0.949 . S
C3656 C3660 1.368 . S
C3657 C3638 1.429 . S
C3657 C3651 1.429 . S
C3657 C3658 1.523 . S
C3658 C3639 1.368 . S
C3658 C3652 1.368 . S
C3658 C3657 1.523 . S
C3659 C3643 1.429 . S
C3659 C3655 1.429 . S
C3659 C3660 1.523 . S
C3660 C3644 1.368 . S
C3660 C3656 1.368 . S
C3660 C3659 1.523 . S
H3661 C3636 0.950 . S
H3662 C3638 0.950 . S
H3663 C3639 0.949 . S
H3664 C3641 0.950 . S
H3665 C3643 0.950 . S
C3666 C3667 1.349 . S
C3666 C3668 1.327 . S
C3666 H3691 0.950 . S
C3667 C3666 1.349 . S
C3667 C3683 1.349 . S
C3668 C3666 1.327 . S
C3668 C3687 1.429 . S
C3668 H3692 0.950 . S
C3669 C3686 1.574 . S
C3669 C3688 1.368 . S
C3669 H3693 0.949 . S
H3670 C3674 0.949 . S
C3671 C3672 1.349 . S
C3671 C3673 1.327 . S
C3671 H3694 0.950 . S
C3672 C3671 1.349 . S
C3672 C3684 1.349 . S
C3673 C3671 1.327 . S
C3673 C3689 1.429 . S
C3673 H3695 0.950 . S
C3674 H3670 0.949 . S
C3674 C3682 1.574 . S
C3674 C3690 1.368 . S
H3675 C3683 0.950 . S
H3676 C3681 0.950 . S
H3677 C3682 0.949 . S
H3678 C3684 0.950 . S
H3679 C3685 0.950 . S
H3680 C3686 0.949 . S
C3681 H3676 0.950 . S
C3681 C3683 1.327 . S
C3681 C3687 1.429 . S
C3682 C3674 1.574 . S
C3682 H3677 0.949 . S
C3682 C3688 1.368 . S
C3683 C3667 1.349 . S
C3683 H3675 0.950 . S
C3683 C3681 1.327 . S
C3684 C3672 1.349 . S
C3684 H3678 0.950 . S
C3684 C3685 1.327 . S
C3685 H3679 0.950 . S
C3685 C3684 1.327 . S
C3685 C3689 1.429 . S
C3686 C3669 1.574 . S
C3686 H3680 0.949 . S
C3686 C3690 1.368 . S
C3687 C3668 1.429 . S
C3687 C3681 1.429 . S
C3687 C3688 1.523 . S
C3688 C3669 1.368 . S
C3688 C3682 1.368 . S
C3688 C3687 1.523 . S
C3689 C3673 1.429 . S
C3689 C3685 1.429 . S
C3689 C3690 1.523 . S
C3690 C3674 1.368 . S
C3690 C3686 1.368 . S
C3690 C3689 1.523 . S
H3691 C3666 0.950 . S
H3692 C3668 0.950 . S
H3693 C3669 0.949 . S
H3694 C3671 0.950 . S
H3695 C3673 0.950 . S
C3696 C3697 1.349 . S
C3696 C3698 1.327 . S
C3696 H3721 0.950 . S
C3697 C3696 1.349 . S
C3697 C3713 1.349 . S
C3698 C3696 1.327 . S
C3698 C3717 1.429 . S
C3698 H3722 0.950 . S
C3699 C3716 1.574 . S
C3699 C3718 1.398 . S
C3699 H3723 0.949 . S
H3700 C3704 0.949 1_655 S
C3701 C3702 1.349 . S
C3701 C3703 1.327 . S
C3701 H3724 0.950 . S
C3702 C3701 1.349 . S
C3702 C3714 1.349 . S
C3703 C3701 1.327 . S
C3703 C3719 1.429 . S
C3703 H3725 0.950 . S
C3704 H3700 0.949 1_455 S
C3704 C3712 1.574 1_455 S
C3704 C3720 1.368 . S
H3705 C3713 0.950 . S
H3706 C3711 0.959 . S
H3707 C3712 0.949 . S
H3708 C3714 0.950 . S
H3709 C3715 0.950 . S
H3710 C3716 0.949 . S
C3711 H3706 0.959 . S
C3711 C3713 1.320 1_455 S
C3711 C3717 1.427 1_455 S
C3712 C3704 1.574 1_655 S
C3712 H3707 0.949 . S
C3712 C3718 1.359 1_655 S
C3713 C3697 1.349 . S
C3713 H3705 0.950 . S
C3713 C3711 1.320 1_655 S
C3714 C3702 1.349 . S
C3714 H3708 0.950 . S
C3714 C3715 1.327 . S
C3715 H3709 0.950 . S
C3715 C3714 1.327 . S
C3715 C3719 1.429 . S
C3716 C3699 1.574 . S
C3716 H3710 0.949 . S
C3716 C3720 1.368 . S
C3717 C3698 1.429 . S
C3717 C3711 1.427 1_655 S
C3717 C3718 1.501 1_655 S
C3718 C3699 1.398 . S
C3718 C3712 1.359 1_455 S
C3718 C3717 1.501 1_455 S
C3719 C3703 1.429 . S
C3719 C3715 1.429 . S
C3719 C3720 1.523 . S
C3720 C3704 1.368 . S
C3720 C3716 1.368 . S
C3720 C3719 1.523 . S
H3721 C3696 0.950 . S
H3722 C3698 0.950 . S
H3723 C3699 0.949 . S
H3724 C3701 0.950 . S
H3725 C3703 0.950 . S
C3726 C3727 1.349 . S
C3726 C3728 1.327 . S
C3726 H3751 0.950 . S
C3727 C3726 1.349 . S
C3727 C3743 1.349 . S
C3728 C3726 1.327 . S
C3728 C3747 1.429 . S
C3728 H3752 0.950 . S
C3729 C3746 1.574 . S
C3729 C3748 1.368 . S
C3729 H3753 0.949 . S
H3730 C3734 0.949 . S
C3731 C3732 1.349 . S
C3731 C3733 1.327 . S
C3731 H3754 0.950 . S
C3732 C3731 1.349 . S
C3732 C3744 1.349 . S
C3733 C3731 1.327 . S
C3733 C3749 1.429 . S
C3733 H3755 0.950 . S
C3734 H3730 0.949 . S
C3734 C3742 1.574 . S
C3734 C3750 1.368 . S
H3735 C3743 0.950 . S
H3736 C3741 0.950 . S
H3737 C3742 0.949 . S
H3738 C3744 0.950 . S
H3739 C3745 0.950 . S
H3740 C3746 0.949 . S
C3741 H3736 0.950 . S
C3741 C3743 1.327 . S
C3741 C3747 1.429 . S
C3742 C3734 1.574 . S
C3742 H3737 0.949 . S
C3742 C3748 1.368 . S
C3743 C3727 1.349 . S
C3743 H3735 0.950 . S
C3743 C3741 1.327 . S
C3744 C3732 1.349 . S
C3744 H3738 0.950 . S
C3744 C3745 1.327 . S
C3745 H3739 0.950 . S
C3745 C3744 1.327 . S
C3745 C3749 1.429 . S
C3746 C3729 1.574 . S
C3746 H3740 0.949 . S
C3746 C3750 1.368 . S
C3747 C3728 1.429 . S
C3747 C3741 1.429 . S
C3747 C3748 1.523 . S
C3748 C3729 1.368 . S
C3748 C3742 1.368 . S
C3748 C3747 1.523 . S
C3749 C3733 1.429 . S
C3749 C3745 1.429 . S
C3749 C3750 1.523 . S
C3750 C3734 1.368 . S
C3750 C3746 1.368 . S
C3750 C3749 1.523 . S
H3751 C3726 0.950 . S
H3752 C3728 0.950 . S
H3753 C3729 0.949 . S
H3754 C3731 0.950 . S
H3755 C3733 0.950 . S
C3756 C3757 1.349 . S
C3756 C3758 1.327 . S
C3756 H3781 0.950 . S
C3757 C3756 1.349 . S
C3757 C3773 1.349 . S
C3758 C3756 1.327 . S
C3758 C3777 1.429 . S
C3758 H3782 0.950 . S
C3759 C3776 1.574 . S
C3759 C3778 1.368 . S
C3759 H3783 0.949 . S
H3760 C3764 0.949 . S
C3761 C3762 1.349 . S
C3761 C3763 1.327 . S
C3761 H3784 0.950 . S
C3762 C3761 1.349 . S
C3762 C3774 1.349 . S
C3763 C3761 1.327 . S
C3763 C3779 1.429 . S
C3763 H3785 0.950 . S
C3764 H3760 0.949 . S
C3764 C3772 1.574 . S
C3764 C3780 1.368 . S
H3765 C3773 0.950 . S
H3766 C3771 0.950 . S
H3767 C3772 0.949 . S
H3768 C3774 0.950 . S
H3769 C3775 0.950 . S
H3770 C3776 0.949 . S
C3771 H3766 0.950 . S
C3771 C3773 1.327 . S
C3771 C3777 1.429 . S
C3772 C3764 1.574 . S
C3772 H3767 0.949 . S
C3772 C3778 1.368 . S
C3773 C3757 1.349 . S
C3773 H3765 0.950 . S
C3773 C3771 1.327 . S
C3774 C3762 1.349 . S
C3774 H3768 0.950 . S
C3774 C3775 1.327 . S
C3775 H3769 0.950 . S
C3775 C3774 1.327 . S
C3775 C3779 1.429 . S
C3776 C3759 1.574 . S
C3776 H3770 0.949 . S
C3776 C3780 1.368 . S
C3777 C3758 1.429 . S
C3777 C3771 1.429 . S
C3777 C3778 1.523 . S
C3778 C3759 1.368 . S
C3778 C3772 1.368 . S
C3778 C3777 1.523 . S
C3779 C3763 1.429 . S
C3779 C3775 1.429 . S
C3779 C3780 1.523 . S
C3780 C3764 1.368 . S
C3780 C3776 1.368 . S
C3780 C3779 1.523 . S
H3781 C3756 0.950 . S
H3782 C3758 0.950 . S
H3783 C3759 0.949 . S
H3784 C3761 0.950 . S
H3785 C3763 0.950 . S
C3786 C3787 1.349 . S
C3786 C3788 1.327 . S
C3786 H3811 0.950 . S
C3787 C3786 1.349 . S
C3787 C3803 1.349 . S
C3788 C3786 1.327 . S
C3788 C3807 1.429 . S
C3788 H3812 0.950 . S
C3789 C3806 1.574 . S
C3789 C3808 1.368 . S
C3789 H3813 0.949 . S
H3790 C3794 0.949 . S
C3791 C3792 1.349 . S
C3791 C3793 1.327 . S
C3791 H3814 0.950 . S
C3792 C3791 1.349 . S
C3792 C3804 1.349 . S
C3793 C3791 1.327 . S
C3793 C3809 1.429 . S
C3793 H3815 0.950 . S
C3794 H3790 0.949 . S
C3794 C3802 1.574 . S
C3794 C3810 1.368 . S
H3795 C3803 0.950 . S
H3796 C3801 0.950 . S
H3797 C3802 0.949 . S
H3798 C3804 0.950 . S
H3799 C3805 0.950 . S
H3800 C3806 0.949 . S
C3801 H3796 0.950 . S
C3801 C3803 1.327 . S
C3801 C3807 1.429 . S
C3802 C3794 1.574 . S
C3802 H3797 0.949 . S
C3802 C3808 1.368 . S
C3803 C3787 1.349 . S
C3803 H3795 0.950 . S
C3803 C3801 1.327 . S
C3804 C3792 1.349 . S
C3804 H3798 0.950 . S
C3804 C3805 1.327 . S
C3805 H3799 0.950 . S
C3805 C3804 1.327 . S
C3805 C3809 1.429 . S
C3806 C3789 1.574 . S
C3806 H3800 0.949 . S
C3806 C3810 1.368 . S
C3807 C3788 1.429 . S
C3807 C3801 1.429 . S
C3807 C3808 1.523 . S
C3808 C3789 1.368 . S
C3808 C3802 1.368 . S
C3808 C3807 1.523 . S
C3809 C3793 1.429 . S
C3809 C3805 1.429 . S
C3809 C3810 1.523 . S
C3810 C3794 1.368 . S
C3810 C3806 1.368 . S
C3810 C3809 1.523 . S
H3811 C3786 0.950 . S
H3812 C3788 0.950 . S
H3813 C3789 0.949 . S
H3814 C3791 0.950 . S
H3815 C3793 0.950 . S
C3816 C3817 1.349 . S
C3816 C3818 1.327 . S
C3816 H3841 0.950 . S
C3817 C3816 1.349 . S
C3817 C3833 1.349 . S
C3818 C3816 1.327 . S
C3818 C3837 1.431 1_655 S
C3818 H3842 0.943 1_655 S
C3819 C3836 1.574 . S
C3819 C3838 1.368 . S
C3819 H3843 0.949 . S
H3820 C3824 0.949 . S
C3821 C3822 1.349 . S
C3821 C3823 1.327 . S
C3821 H3844 0.950 . S
C3822 C3821 1.349 . S
C3822 C3834 1.349 . S
C3823 C3821 1.327 . S
C3823 C3839 1.429 . S
C3823 H3845 0.950 . S
C3824 H3820 0.949 . S
C3824 C3832 1.574 . S
C3824 C3840 1.368 . S
H3825 C3833 0.950 . S
H3826 C3831 0.950 . S
H3827 C3832 0.949 . S
H3828 C3834 0.950 . S
H3829 C3835 0.950 . S
H3830 C3836 0.949 . S
C3831 H3826 0.950 . S
C3831 C3833 1.327 . S
C3831 C3837 1.408 1_655 S
C3832 C3824 1.574 . S
C3832 H3827 0.949 . S
C3832 C3838 1.368 . S
C3833 C3817 1.349 . S
C3833 H3825 0.950 . S
C3833 C3831 1.327 . S
C3834 C3822 1.349 . S
C3834 H3828 0.950 . S
C3834 C3835 1.327 . S
C3835 H3829 0.950 . S
C3835 C3834 1.327 . S
C3835 C3839 1.429 . S
C3836 C3819 1.574 . S
C3836 H3830 0.949 . S
C3836 C3840 1.368 . S
C3837 C3818 1.431 1_455 S
C3837 C3831 1.408 1_455 S
C3837 C3838 1.542 . S
C3838 C3819 1.368 . S
C3838 C3832 1.368 . S
C3838 C3837 1.542 . S
C3839 C3823 1.429 . S
C3839 C3835 1.429 . S
C3839 C3840 1.523 . S
C3840 C3824 1.368 . S
C3840 C3836 1.368 . S
C3840 C3839 1.523 . S
H3841 C3816 0.950 . S
H3842 C3818 0.943 1_455 S
H3843 C3819 0.949 . S
H3844 C3821 0.950 . S
H3845 C3823 0.950 . S
C3846 C3847 1.349 . S
C3846 C3848 1.327 . S
C3846 H3871 0.950 . S
C3847 C3846 1.349 . S
C3847 C3863 1.349 . S
C3848 C3846 1.327 . S
C3848 C3867 1.429 . S
C3848 H3872 0.950 . S
C3849 C3866 1.574 . S
C3849 C3868 1.368 . S
C3849 H3873 0.949 . S
H3850 C3854 0.949 . S
C3851 C3852 1.349 . S
C3851 C3853 1.327 . S
C3851 H3874 0.950 . S
C3852 C3851 1.349 . S
C3852 C3864 1.349 . S
C3853 C3851 1.327 . S
C3853 C3869 1.429 . S
C3853 H3875 0.950 . S
C3854 H3850 0.949 . S
C3854 C3862 1.574 . S
C3854 C3870 1.368 . S
H3855 C3863 0.950 . S
H3856 C3861 0.950 . S
H3857 C3862 0.949 . S
H3858 C3864 0.950 . S
H3859 C3865 0.950 . S
H3860 C3866 0.949 . S
C3861 H3856 0.950 . S
C3861 C3863 1.327 . S
C3861 C3867 1.429 . S
C3862 C3854 1.574 . S
C3862 H3857 0.949 . S
C3862 C3868 1.368 . S
C3863 C3847 1.349 . S
C3863 H3855 0.950 . S
C3863 C3861 1.327 . S
C3864 C3852 1.349 . S
C3864 H3858 0.950 . S
C3864 C3865 1.327 . S
C3865 H3859 0.950 . S
C3865 C3864 1.327 . S
C3865 C3869 1.429 . S
C3866 C3849 1.574 . S
C3866 H3860 0.949 . S
C3866 C3870 1.368 . S
C3867 C3848 1.429 . S
C3867 C3861 1.429 . S
C3867 C3868 1.523 . S
C3868 C3849 1.368 . S
C3868 C3862 1.368 . S
C3868 C3867 1.523 . S
C3869 C3853 1.429 . S
C3869 C3865 1.429 . S
C3869 C3870 1.523 . S
C3870 C3854 1.368 . S
C3870 C3866 1.368 . S
C3870 C3869 1.523 . S
H3871 C3846 0.950 . S
H3872 C3848 0.950 . S
H3873 C3849 0.949 . S
H3874 C3851 0.950 . S
H3875 C3853 0.950 . S
C3876 C3877 1.349 . S
C3876 C3878 1.327 . S
C3876 H3901 0.950 . S
C3877 C3876 1.349 . S
C3877 C3893 1.349 . S
C3878 C3876 1.327 . S
C3878 C3897 1.429 . S
C3878 H3902 0.950 . S
C3879 C3896 1.574 . S
C3879 C3898 1.368 . S
C3879 H3903 0.949 . S
H3880 C3884 0.949 . S
C3881 C3882 1.349 . S
C3881 C3883 1.327 . S
C3881 H3904 0.950 . S
C3882 C3881 1.349 . S
C3882 C3894 1.349 . S
C3883 C3881 1.327 . S
C3883 C3899 1.429 . S
C3883 H3905 0.950 . S
C3884 H3880 0.949 . S
C3884 C3892 1.574 . S
C3884 C3900 1.368 . S
H3885 C3893 0.950 . S
H3886 C3891 0.950 . S
H3887 C3892 0.949 . S
H3888 C3894 0.950 . S
H3889 C3895 0.950 . S
H3890 C3896 0.949 . S
C3891 H3886 0.950 . S
C3891 C3893 1.327 . S
C3891 C3897 1.429 . S
C3892 C3884 1.574 . S
C3892 H3887 0.949 . S
C3892 C3898 1.368 . S
C3893 C3877 1.349 . S
C3893 H3885 0.950 . S
C3893 C3891 1.327 . S
C3894 C3882 1.349 . S
C3894 H3888 0.950 . S
C3894 C3895 1.327 . S
C3895 H3889 0.950 . S
C3895 C3894 1.327 . S
C3895 C3899 1.429 . S
C3896 C3879 1.574 . S
C3896 H3890 0.949 . S
C3896 C3900 1.368 . S
C3897 C3878 1.429 . S
C3897 C3891 1.429 . S
C3897 C3898 1.523 . S
C3898 C3879 1.368 . S
C3898 C3892 1.368 . S
C3898 C3897 1.523 . S
C3899 C3883 1.429 . S
C3899 C3895 1.429 . S
C3899 C3900 1.523 . S
C3900 C3884 1.368 . S
C3900 C3896 1.368 . S
C3900 C3899 1.523 . S
H3901 C3876 0.950 . S
H3902 C3878 0.950 . S
H3903 C3879 0.949 . S
H3904 C3881 0.950 . S
H3905 C3883 0.950 . S
C3906 C3907 1.349 . S
C3906 C3908 1.327 . S
C3906 H3931 0.950 . S
C3907 C3906 1.349 . S
C3907 C3923 1.349 . S
C3908 C3906 1.327 . S
C3908 C3927 1.429 . S
C3908 H3932 0.950 . S
C3909 C3926 1.574 . S
C3909 C3928 1.368 . S
C3909 H3933 0.949 . S
H3910 C3914 0.949 . S
C3911 C3912 1.349 . S
C3911 C3913 1.327 . S
C3911 H3934 0.950 . S
C3912 C3911 1.349 . S
C3912 C3924 1.349 . S
C3913 C3911 1.327 . S
C3913 C3929 1.429 . S
C3913 H3935 0.950 . S
C3914 H3910 0.949 . S
C3914 C3922 1.574 . S
C3914 C3930 1.368 . S
H3915 C3923 0.950 . S
H3916 C3921 0.950 . S
H3917 C3922 0.949 . S
H3918 C3924 0.950 . S
H3919 C3925 0.950 . S
H3920 C3926 0.949 . S
C3921 H3916 0.950 . S
C3921 C3923 1.327 . S
C3921 C3927 1.429 . S
C3922 C3914 1.574 . S
C3922 H3917 0.949 . S
C3922 C3928 1.368 . S
C3923 C3907 1.349 . S
C3923 H3915 0.950 . S
C3923 C3921 1.327 . S
C3924 C3912 1.349 . S
C3924 H3918 0.950 . S
C3924 C3925 1.327 . S
C3925 H3919 0.950 . S
C3925 C3924 1.327 . S
C3925 C3929 1.429 . S
C3926 C3909 1.574 . S
C3926 H3920 0.949 . S
C3926 C3930 1.368 . S
C3927 C3908 1.429 . S
C3927 C3921 1.429 . S
C3927 C3928 1.523 . S
C3928 C3909 1.368 . S
C3928 C3922 1.368 . S
C3928 C3927 1.523 . S
C3929 C3913 1.429 . S
C3929 C3925 1.429 . S
C3929 C3930 1.523 . S
C3930 C3914 1.368 . S
C3930 C3926 1.368 . S
C3930 C3929 1.523 . S
H3931 C3906 0.950 . S
H3932 C3908 0.950 . S
H3933 C3909 0.949 . S
H3934 C3911 0.950 . S
H3935 C3913 0.950 . S
C3936 C3937 1.349 . S
C3936 C3938 1.327 . S
C3936 H3961 0.937 1_554 S
C3937 C3936 1.349 . S
C3937 C3953 1.349 . S
C3938 C3936 1.327 . S
C3938 C3957 1.429 . S
C3938 H3962 0.947 1_554 S
C3939 C3956 1.574 1_565 S
C3939 C3958 1.368 . S
C3939 H3963 0.949 1_565 S
H3940 C3944 0.949 . S
C3941 C3942 1.349 . S
C3941 C3943 1.327 . S
C3941 H3964 0.950 . S
C3942 C3941 1.349 . S
C3942 C3954 1.349 . S
C3943 C3941 1.327 . S
C3943 C3959 1.429 . S
C3943 H3965 0.950 . S
C3944 H3940 0.949 . S
C3944 C3952 1.574 . S
C3944 C3960 1.368 . S
H3945 C3953 0.950 . S
H3946 C3951 0.950 . S
H3947 C3952 0.962 . S
H3948 C3954 0.950 1_565 S
H3949 C3955 0.950 . S
H3950 C3956 0.949 . S
C3951 H3946 0.950 . S
C3951 C3953 1.327 . S
C3951 C3957 1.429 . S
C3952 C3944 1.574 . S
C3952 H3947 0.962 . S
C3952 C3958 1.368 . S
C3953 C3937 1.349 . S
C3953 H3945 0.950 . S
C3953 C3951 1.327 . S
C3954 C3942 1.349 . S
C3954 H3948 0.950 1_545 S
C3954 C3955 1.327 1_545 S
C3955 H3949 0.950 . S
C3955 C3954 1.327 1_565 S
C3955 C3959 1.429 1_565 S
C3956 C3939 1.574 1_545 S
C3956 H3950 0.949 . S
C3956 C3960 1.368 1_545 S
C3957 C3938 1.429 . S
C3957 C3951 1.429 . S
C3957 C3958 1.523 . S
C3958 C3939 1.368 . S
C3958 C3952 1.368 . S
C3958 C3957 1.523 . S
C3959 C3943 1.429 . S
C3959 C3955 1.429 1_545 S
C3959 C3960 1.523 1_545 S
C3960 C3944 1.368 . S
C3960 C3956 1.368 1_565 S
C3960 C3959 1.523 1_565 S
H3961 C3936 0.937 1_556 S
H3962 C3938 0.947 1_556 S
H3963 C3939 0.949 1_545 S
H3964 C3941 0.950 . S
H3965 C3943 0.950 . S
C3966 C3967 1.349 . S
C3966 C3968 1.327 . S
C3966 H3991 0.950 . S
C3967 C3966 1.349 . S
C3967 C3983 1.349 1_556 S
C3968 C3966 1.327 . S
C3968 C3987 1.429 . S
C3968 H3992 0.950 . S
C3969 C3986 1.574 . S
C3969 C3988 1.368 1_554 S
C3969 H3993 0.949 . S
H3970 C3974 0.949 . S
C3971 C3972 1.349 . S
C3971 C3973 1.327 . S
C3971 H3994 0.950 . S
C3972 C3971 1.349 . S
C3972 C3984 1.349 1_554 S
C3973 C3971 1.327 . S
C3973 C3989 1.429 . S
C3973 H3995 0.950 . S
C3974 H3970 0.949 . S
C3974 C3982 1.574 . S
C3974 C3990 1.359 1_556 S
H3975 C3983 0.950 . S
H3976 C3981 0.950 . S
H3977 C3982 0.949 . S
H3978 C3984 0.950 . S
H3979 C3985 0.950 . S
H3980 C3986 0.949 . S
C3981 H3976 0.950 . S
C3981 C3983 1.327 . S
C3981 C3987 1.429 1_554 S
C3982 C3974 1.574 . S
C3982 H3977 0.949 . S
C3982 C3988 1.368 . S
C3983 C3967 1.349 1_554 S
C3983 H3975 0.950 . S
C3983 C3981 1.327 . S
C3984 C3972 1.349 1_556 S
C3984 H3978 0.950 . S
C3984 C3985 1.327 . S
C3985 H3979 0.950 . S
C3985 C3984 1.327 . S
C3985 C3989 1.429 1_556 S
C3986 C3969 1.574 . S
C3986 H3980 0.949 . S
C3986 C3990 1.374 . S
C3987 C3968 1.429 . S
C3987 C3981 1.429 1_556 S
C3987 C3988 1.523 . S
C3988 C3969 1.368 1_556 S
C3988 C3982 1.368 . S
C3988 C3987 1.523 . S
C3989 C3973 1.429 . S
C3989 C3985 1.429 1_554 S
C3989 C3990 1.527 . S
C3990 C3974 1.359 1_554 S
C3990 C3986 1.374 . S
C3990 C3989 1.527 . S
H3991 C3966 0.950 . S
H3992 C3968 0.950 . S
H3993 C3969 0.949 . S
H3994 C3971 0.950 . S
H3995 C3973 0.950 . S
C3996 C3997 1.349 . S
C3996 C3998 1.327 . S
C3996 H4021 0.950 . S
C3997 C3996 1.349 . S
C3997 C4013 1.349 . S
C3998 C3996 1.327 . S
C3998 C4017 1.429 . S
C3998 H4022 0.950 . S
C3999 C4016 1.574 . S
C3999 C4018 1.368 . S
C3999 H4023 0.949 . S
H4000 C4004 0.949 . S
C4001 C4002 1.349 . S
C4001 C4003 1.327 . S
C4001 H4024 0.950 . S
C4002 C4001 1.349 . S
C4002 C4014 1.349 . S
C4003 C4001 1.327 . S
C4003 C4019 1.429 . S
C4003 H4025 0.950 . S
C4004 H4000 0.949 . S
C4004 C4012 1.574 . S
C4004 C4020 1.368 . S
H4005 C4013 0.950 . S
H4006 C4011 0.950 . S
H4007 C4012 0.949 . S
H4008 C4014 0.950 . S
H4009 C4015 0.950 . S
H4010 C4016 0.949 . S
C4011 H4006 0.950 . S
C4011 C4013 1.327 . S
C4011 C4017 1.429 . S
C4012 C4004 1.574 . S
C4012 H4007 0.949 . S
C4012 C4018 1.368 . S
C4013 C3997 1.349 . S
C4013 H4005 0.950 . S
C4013 C4011 1.327 . S
C4014 C4002 1.349 . S
C4014 H4008 0.950 . S
C4014 C4015 1.327 . S
C4015 H4009 0.950 . S
C4015 C4014 1.327 . S
C4015 C4019 1.429 . S
C4016 C3999 1.574 . S
C4016 H4010 0.949 . S
C4016 C4020 1.368 . S
C4017 C3998 1.429 . S
C4017 C4011 1.429 . S
C4017 C4018 1.523 . S
C4018 C3999 1.368 . S
C4018 C4012 1.368 . S
C4018 C4017 1.523 . S
C4019 C4003 1.429 . S
C4019 C4015 1.429 . S
C4019 C4020 1.523 . S
C4020 C4004 1.368 . S
C4020 C4016 1.368 . S
C4020 C4019 1.523 . S
H4021 C3996 0.950 . S
H4022 C3998 0.950 . S
H4023 C3999 0.949 . S
H4024 C4001 0.950 . S
H4025 C4003 0.950 . S
C4026 C4027 1.349 . S
C4026 C4028 1.327 . S
C4026 H4051 0.950 . S
C4027 C4026 1.349 . S
C4027 C4043 1.349 . S
C4028 C4026 1.327 . S
C4028 C4047 1.429 . S
C4028 H4052 0.950 . S
C4029 C4046 1.574 . S
C4029 C4048 1.368 . S
C4029 H4053 0.949 . S
H4030 C4034 0.949 . S
C4031 C4032 1.349 . S
C4031 C4033 1.327 1_455 S
C4031 H4054 0.950 . S
C4032 C4031 1.349 . S
C4032 C4044 1.349 . S
C4033 C4031 1.327 1_655 S
C4033 C4049 1.429 . S
C4033 H4055 0.950 . S
C4034 H4030 0.949 . S
C4034 C4042 1.574 . S
C4034 C4050 1.368 . S
H4035 C4043 0.950 . S
H4036 C4041 0.950 . S
H4037 C4042 0.949 . S
H4038 C4044 0.950 . S
H4039 C4045 0.950 . S
H4040 C4046 0.949 . S
C4041 H4036 0.950 . S
C4041 C4043 1.327 . S
C4041 C4047 1.429 . S
C4042 C4034 1.574 . S
C4042 H4037 0.949 . S
C4042 C4048 1.368 . S
C4043 C4027 1.349 . S
C4043 H4035 0.950 . S
C4043 C4041 1.327 . S
C4044 C4032 1.349 . S
C4044 H4038 0.950 . S
C4044 C4045 1.327 1_455 S
C4045 H4039 0.950 . S
C4045 C4044 1.327 1_655 S
C4045 C4049 1.429 . S
C4046 C4029 1.574 . S
C4046 H4040 0.949 . S
C4046 C4050 1.368 . S
C4047 C4028 1.429 . S
C4047 C4041 1.429 . S
C4047 C4048 1.523 . S
C4048 C4029 1.368 . S
C4048 C4042 1.368 . S
C4048 C4047 1.523 . S
C4049 C4033 1.429 . S
C4049 C4045 1.429 . S
C4049 C4050 1.523 . S
C4050 C4034 1.368 . S
C4050 C4046 1.368 . S
C4050 C4049 1.523 . S
H4051 C4026 0.950 . S
H4052 C4028 0.950 . S
H4053 C4029 0.949 . S
H4054 C4031 0.950 . S
H4055 C4033 0.950 . S
C4056 C4057 1.349 . S
C4056 C4058 1.327 . S
C4056 H4081 0.950 . S
C4057 C4056 1.349 . S
C4057 C4073 1.349 . S
C4058 C4056 1.327 . S
C4058 C4077 1.429 . S
C4058 H4082 0.950 . S
C4059 C4076 1.574 . S
C4059 C4078 1.368 . S
C4059 H4083 0.949 . S
H4060 C4064 0.949 . S
C4061 C4062 1.349 . S
C4061 C4063 1.327 . S
C4061 H4084 0.950 . S
C4062 C4061 1.349 . S
C4062 C4074 1.349 . S
C4063 C4061 1.327 . S
C4063 C4079 1.429 . S
C4063 H4085 0.950 . S
C4064 H4060 0.949 . S
C4064 C4072 1.574 . S
C4064 C4080 1.368 . S
H4065 C4073 0.950 . S
H4066 C4071 0.950 . S
H4067 C4072 0.949 . S
H4068 C4074 0.950 . S
H4069 C4075 0.950 . S
H4070 C4076 0.949 . S
C4071 H4066 0.950 . S
C4071 C4073 1.327 . S
C4071 C4077 1.429 . S
C4072 C4064 1.574 . S
C4072 H4067 0.949 . S
C4072 C4078 1.368 . S
C4073 C4057 1.349 . S
C4073 H4065 0.950 . S
C4073 C4071 1.327 . S
C4074 C4062 1.349 . S
C4074 H4068 0.950 . S
C4074 C4075 1.327 . S
C4075 H4069 0.950 . S
C4075 C4074 1.327 . S
C4075 C4079 1.429 . S
C4076 C4059 1.574 . S
C4076 H4070 0.949 . S
C4076 C4080 1.368 . S
C4077 C4058 1.429 . S
C4077 C4071 1.429 . S
C4077 C4078 1.523 . S
C4078 C4059 1.368 . S
C4078 C4072 1.368 . S
C4078 C4077 1.523 . S
C4079 C4063 1.429 . S
C4079 C4075 1.429 . S
C4079 C4080 1.523 . S
C4080 C4064 1.368 . S
C4080 C4076 1.368 . S
C4080 C4079 1.523 . S
H4081 C4056 0.950 . S
H4082 C4058 0.950 . S
H4083 C4059 0.949 . S
H4084 C4061 0.950 . S
H4085 C4063 0.950 . S
C4086 C4087 1.349 . S
C4086 C4088 1.327 . S
C4086 H4111 0.950 . S
C4087 C4086 1.349 . S
C4087 C4103 1.349 . S
C4088 C4086 1.327 . S
C4088 C4107 1.429 . S
C4088 H4112 0.950 . S
C4089 C4106 1.574 . S
C4089 C4108 1.368 . S
C4089 H4113 0.949 . S
H4090 C4094 0.949 . S
C4091 C4092 1.349 . S
C4091 C4093 1.327 . S
C4091 H4114 0.950 . S
C4092 C4091 1.349 . S
C4092 C4104 1.349 . S
C4093 C4091 1.327 . S
C4093 C4109 1.429 . S
C4093 H4115 0.950 . S
C4094 H4090 0.949 . S
C4094 C4102 1.574 . S
C4094 C4110 1.368 . S
H4095 C4103 0.950 . S
H4096 C4101 0.950 . S
H4097 C4102 0.949 . S
H4098 C4104 0.950 . S
H4099 C4105 0.950 . S
H4100 C4106 0.949 . S
C4101 H4096 0.950 . S
C4101 C4103 1.327 . S
C4101 C4107 1.429 . S
C4102 C4094 1.574 . S
C4102 H4097 0.949 . S
C4102 C4108 1.368 . S
C4103 C4087 1.349 . S
C4103 H4095 0.950 . S
C4103 C4101 1.327 . S
C4104 C4092 1.349 . S
C4104 H4098 0.950 . S
C4104 C4105 1.327 . S
C4105 H4099 0.950 . S
C4105 C4104 1.327 . S
C4105 C4109 1.429 . S
C4106 C4089 1.574 . S
C4106 H4100 0.949 . S
C4106 C4110 1.368 . S
C4107 C4088 1.429 . S
C4107 C4101 1.429 . S
C4107 C4108 1.523 . S
C4108 C4089 1.368 . S
C4108 C4102 1.368 . S
C4108 C4107 1.523 . S
C4109 C4093 1.429 . S
C4109 C4105 1.429 . S
C4109 C4110 1.523 . S
C4110 C4094 1.368 . S
C4110 C4106 1.368 . S
C4110 C4109 1.523 . S
H4111 C4086 0.950 . S
H4112 C4088 0.950 . S
H4113 C4089 0.949 . S
H4114 C4091 0.950 . S
H4115 C4093 0.950 . S
C4116 C4117 1.349 . S
C4116 C4118 1.327 . S
C4116 H4141 0.950 . S
C4117 C4116 1.349 . S
C4117 C4133 1.349 . S
C4118 C4116 1.327 . S
C4118 C4137 1.429 . S
C4118 H4142 0.950 . S
C4119 C4136 1.574 . S
C4119 C4138 1.368 . S
C4119 H4143 0.949 . S
H4120 C4124 0.949 . S
C4121 C4122 1.349 . S
C4121 C4123 1.327 . S
C4121 H4144 0.950 . S
C4122 C4121 1.349 . S
C4122 C4134 1.349 . S
C4123 C4121 1.327 . S
C4123 C4139 1.429 . S
C4123 H4145 0.950 . S
C4124 H4120 0.949 . S
C4124 C4132 1.574 . S
C4124 C4140 1.368 . S
H4125 C4133 0.950 . S
H4126 C4131 0.950 . S
H4127 C4132 0.949 . S
H4128 C4134 0.950 . S
H4129 C4135 0.950 . S
H4130 C4136 0.949 . S
C4131 H4126 0.950 . S
C4131 C4133 1.327 . S
C4131 C4137 1.429 . S
C4132 C4124 1.574 . S
C4132 H4127 0.949 . S
C4132 C4138 1.368 . S
C4133 C4117 1.349 . S
C4133 H4125 0.950 . S
C4133 C4131 1.327 . S
C4134 C4122 1.349 . S
C4134 H4128 0.950 . S
C4134 C4135 1.327 . S
C4135 H4129 0.950 . S
C4135 C4134 1.327 . S
C4135 C4139 1.429 . S
C4136 C4119 1.574 . S
C4136 H4130 0.949 . S
C4136 C4140 1.368 . S
C4137 C4118 1.429 . S
C4137 C4131 1.429 . S
C4137 C4138 1.523 . S
C4138 C4119 1.368 . S
C4138 C4132 1.368 . S
C4138 C4137 1.523 . S
C4139 C4123 1.429 . S
C4139 C4135 1.429 . S
C4139 C4140 1.523 . S
C4140 C4124 1.368 . S
C4140 C4136 1.368 . S
C4140 C4139 1.523 . S
H4141 C4116 0.950 . S
H4142 C4118 0.950 . S
H4143 C4119 0.949 . S
H4144 C4121 0.950 . S
H4145 C4123 0.950 . S
C4146 C4147 1.349 . S
C4146 C4148 1.327 . S
C4146 H4171 0.950 . S
C4147 C4146 1.349 . S
C4147 C4163 1.349 . S
C4148 C4146 1.327 . S
C4148 C4167 1.429 . S
C4148 H4172 0.950 . S
C4149 C4166 1.574 . S
C4149 C4168 1.368 . S
C4149 H4173 0.949 . S
H4150 C4154 0.949 . S
C4151 C4152 1.349 . S
C4151 C4153 1.327 . S
C4151 H4174 0.950 . S
C4152 C4151 1.349 . S
C4152 C4164 1.349 . S
C4153 C4151 1.327 . S
C4153 C4169 1.429 . S
C4153 H4175 0.950 . S
C4154 H4150 0.949 . S
C4154 C4162 1.574 . S
C4154 C4170 1.368 . S
H4155 C4163 0.950 . S
H4156 C4161 0.950 . S
H4157 C4162 0.949 . S
H4158 C4164 0.950 . S
H4159 C4165 0.950 . S
H4160 C4166 0.949 . S
C4161 H4156 0.950 . S
C4161 C4163 1.327 . S
C4161 C4167 1.429 . S
C4162 C4154 1.574 . S
C4162 H4157 0.949 . S
C4162 C4168 1.368 . S
C4163 C4147 1.349 . S
C4163 H4155 0.950 . S
C4163 C4161 1.327 . S
C4164 C4152 1.349 . S
C4164 H4158 0.950 . S
C4164 C4165 1.327 . S
C4165 H4159 0.950 . S
C4165 C4164 1.327 . S
C4165 C4169 1.429 . S
C4166 C4149 1.574 . S
C4166 H4160 0.949 . S
C4166 C4170 1.368 . S
C4167 C4148 1.429 . S
C4167 C4161 1.429 . S
C4167 C4168 1.523 . S
C4168 C4149 1.368 . S
C4168 C4162 1.368 . S
C4168 C4167 1.523 . S
C4169 C4153 1.429 . S
C4169 C4165 1.429 . S
C4169 C4170 1.523 . S
C4170 C4154 1.368 . S
C4170 C4166 1.368 . S
C4170 C4169 1.523 . S
H4171 C4146 0.950 . S
H4172 C4148 0.950 . S
H4173 C4149 0.949 . S
H4174 C4151 0.950 . S
H4175 C4153 0.950 . S
C4176 C4177 1.349 . S
C4176 C4178 1.327 . S
C4176 H4201 0.950 . S
C4177 C4176 1.349 . S
C4177 C4193 1.349 . S
C4178 C4176 1.327 . S
C4178 C4197 1.429 . S
C4178 H4202 0.950 . S
C4179 C4196 1.574 . S
C4179 C4198 1.368 . S
C4179 H4203 0.949 . S
H4180 C4184 0.949 . S
C4181 C4182 1.349 . S
C4181 C4183 1.327 . S
C4181 H4204 0.950 . S
C4182 C4181 1.349 . S
C4182 C4194 1.349 . S
C4183 C4181 1.327 . S
C4183 C4199 1.429 . S
C4183 H4205 0.950 . S
C4184 H4180 0.949 . S
C4184 C4192 1.574 . S
C4184 C4200 1.368 . S
H4185 C4193 0.950 . S
H4186 C4191 0.950 . S
H4187 C4192 0.949 . S
H4188 C4194 0.950 1_545 S
H4189 C4195 0.950 . S
H4190 C4196 0.949 . S
C4191 H4186 0.950 . S
C4191 C4193 1.327 . S
C4191 C4197 1.429 . S
C4192 C4184 1.574 . S
C4192 H4187 0.949 . S
C4192 C4198 1.368 . S
C4193 C4177 1.349 . S
C4193 H4185 0.950 . S
C4193 C4191 1.327 . S
C4194 C4182 1.349 . S
C4194 H4188 0.950 1_565 S
C4194 C4195 1.327 . S
C4195 H4189 0.950 . S
C4195 C4194 1.327 . S
C4195 C4199 1.429 . S
C4196 C4179 1.574 . S
C4196 H4190 0.949 . S
C4196 C4200 1.368 . S
C4197 C4178 1.429 . S
C4197 C4191 1.429 . S
C4197 C4198 1.523 . S
C4198 C4179 1.368 . S
C4198 C4192 1.368 . S
C4198 C4197 1.523 . S
C4199 C4183 1.429 . S
C4199 C4195 1.429 . S
C4199 C4200 1.523 . S
C4200 C4184 1.368 . S
C4200 C4196 1.368 . S
C4200 C4199 1.523 . S
H4201 C4176 0.950 . S
H4202 C4178 0.950 . S
H4203 C4179 0.949 . S
H4204 C4181 0.950 . S
H4205 C4183 0.950 . S
C4206 C4207 1.349 . S
C4206 C4208 1.327 . S
C4206 H4231 0.950 . S
C4207 C4206 1.349 . S
C4207 C4223 1.349 . S
C4208 C4206 1.327 . S
C4208 C4227 1.429 . S
C4208 H4232 0.950 . S
C4209 C4226 1.574 . S
C4209 C4228 1.368 . S
C4209 H4233 0.949 . S
H4210 C4214 0.949 . S
C4211 C4212 1.349 . S
C4211 C4213 1.327 . S
C4211 H4234 0.950 . S
C4212 C4211 1.349 . S
C4212 C4224 1.349 . S
C4213 C4211 1.327 . S
C4213 C4229 1.429 . S
C4213 H4235 0.950 . S
C4214 H4210 0.949 . S
C4214 C4222 1.574 . S
C4214 C4230 1.368 . S
H4215 C4223 0.950 . S
H4216 C4221 0.950 . S
H4217 C4222 0.949 . S
H4218 C4224 0.950 . S
H4219 C4225 0.950 . S
H4220 C4226 0.949 . S
C4221 H4216 0.950 . S
C4221 C4223 1.327 . S
C4221 C4227 1.429 . S
C4222 C4214 1.574 . S
C4222 H4217 0.949 . S
C4222 C4228 1.368 . S
C4223 C4207 1.349 . S
C4223 H4215 0.950 . S
C4223 C4221 1.327 . S
C4224 C4212 1.349 . S
C4224 H4218 0.950 . S
C4224 C4225 1.327 . S
C4225 H4219 0.950 . S
C4225 C4224 1.327 . S
C4225 C4229 1.429 . S
C4226 C4209 1.574 . S
C4226 H4220 0.949 . S
C4226 C4230 1.368 . S
C4227 C4208 1.429 . S
C4227 C4221 1.429 . S
C4227 C4228 1.523 . S
C4228 C4209 1.368 . S
C4228 C4222 1.368 . S
C4228 C4227 1.523 . S
C4229 C4213 1.429 . S
C4229 C4225 1.429 . S
C4229 C4230 1.523 . S
C4230 C4214 1.368 . S
C4230 C4226 1.368 . S
C4230 C4229 1.523 . S
H4231 C4206 0.950 . S
H4232 C4208 0.950 . S
H4233 C4209 0.949 . S
H4234 C4211 0.950 . S
H4235 C4213 0.950 . S
C4236 C4237 1.349 . S
C4236 C4238 1.327 . S
C4236 H4261 0.950 . S
C4237 C4236 1.349 . S
C4237 C4253 1.349 . S
C4238 C4236 1.327 . S
C4238 C4257 1.429 . S
C4238 H4262 0.950 . S
C4239 C4256 1.574 . S
C4239 C4258 1.368 . S
C4239 H4263 0.949 . S
H4240 C4244 0.949 . S
C4241 C4242 1.349 . S
C4241 C4243 1.327 . S
C4241 H4264 0.950 . S
C4242 C4241 1.349 . S
C4242 C4254 1.349 . S
C4243 C4241 1.327 . S
C4243 C4259 1.429 . S
C4243 H4265 0.950 . S
C4244 H4240 0.949 . S
C4244 C4252 1.574 . S
C4244 C4260 1.368 . S
H4245 C4253 0.950 . S
H4246 C4251 0.950 . S
H4247 C4252 0.949 . S
H4248 C4254 0.950 . S
H4249 C4255 0.950 . S
H4250 C4256 0.949 . S
C4251 H4246 0.950 . S
C4251 C4253 1.327 . S
C4251 C4257 1.429 . S
C4252 C4244 1.574 . S
C4252 H4247 0.949 . S
C4252 C4258 1.368 . S
C4253 C4237 1.349 . S
C4253 H4245 0.950 . S
C4253 C4251 1.327 . S
C4254 C4242 1.349 . S
C4254 H4248 0.950 . S
C4254 C4255 1.327 . S
C4255 H4249 0.950 . S
C4255 C4254 1.327 . S
C4255 C4259 1.429 . S
C4256 C4239 1.574 . S
C4256 H4250 0.949 . S
C4256 C4260 1.368 . S
C4257 C4238 1.429 . S
C4257 C4251 1.429 . S
C4257 C4258 1.523 . S
C4258 C4239 1.368 . S
C4258 C4252 1.368 . S
C4258 C4257 1.523 . S
C4259 C4243 1.429 . S
C4259 C4255 1.429 . S
C4259 C4260 1.523 . S
C4260 C4244 1.368 . S
C4260 C4256 1.368 . S
C4260 C4259 1.523 . S
H4261 C4236 0.950 . S
H4262 C4238 0.950 . S
H4263 C4239 0.949 . S
H4264 C4241 0.950 . S
H4265 C4243 0.950 . S
C4266 C4267 1.349 . S
C4266 C4268 1.327 . S
C4266 H4291 0.950 . S
C4267 C4266 1.349 . S
C4267 C4283 1.349 . S
C4268 C4266 1.327 . S
C4268 C4287 1.429 . S
C4268 H4292 0.950 . S
C4269 C4286 1.574 . S
C4269 C4288 1.368 . S
C4269 H4293 0.949 . S
H4270 C4274 0.949 . S
C4271 C4272 1.349 . S
C4271 C4273 1.327 . S
C4271 H4294 0.950 . S
C4272 C4271 1.349 . S
C4272 C4284 1.349 . S
C4273 C4271 1.327 . S
C4273 C4289 1.429 . S
C4273 H4295 0.950 . S
C4274 H4270 0.949 . S
C4274 C4282 1.574 . S
C4274 C4290 1.368 . S
H4275 C4283 0.950 . S
H4276 C4281 0.950 . S
H4277 C4282 0.949 . S
H4278 C4284 0.950 . S
H4279 C4285 0.950 . S
H4280 C4286 0.949 . S
C4281 H4276 0.950 . S
C4281 C4283 1.327 . S
C4281 C4287 1.429 . S
C4282 C4274 1.574 . S
C4282 H4277 0.949 . S
C4282 C4288 1.368 . S
C4283 C4267 1.349 . S
C4283 H4275 0.950 . S
C4283 C4281 1.327 . S
C4284 C4272 1.349 . S
C4284 H4278 0.950 . S
C4284 C4285 1.327 . S
C4285 H4279 0.950 . S
C4285 C4284 1.327 . S
C4285 C4289 1.429 . S
C4286 C4269 1.574 . S
C4286 H4280 0.949 . S
C4286 C4290 1.368 . S
C4287 C4268 1.429 . S
C4287 C4281 1.429 . S
C4287 C4288 1.523 . S
C4288 C4269 1.368 . S
C4288 C4282 1.368 . S
C4288 C4287 1.523 . S
C4289 C4273 1.429 . S
C4289 C4285 1.429 . S
C4289 C4290 1.523 . S
C4290 C4274 1.368 . S
C4290 C4286 1.368 . S
C4290 C4289 1.523 . S
H4291 C4266 0.950 . S
H4292 C4268 0.950 . S
H4293 C4269 0.949 . S
H4294 C4271 0.950 . S
H4295 C4273 0.950 . S
C4296 C4297 1.349 . S
C4296 C4298 1.327 . S
C4296 H4321 0.950 . S
C4297 C4296 1.349 . S
C4297 C4313 1.349 . S
C4298 C4296 1.327 . S
C4298 C4317 1.429 . S
C4298 H4322 0.950 . S
C4299 C4316 1.574 . S
C4299 C4318 1.368 . S
C4299 H4323 0.949 . S
H4300 C4304 0.949 . S
C4301 C4302 1.349 . S
C4301 C4303 1.327 . S
C4301 H4324 0.950 . S
C4302 C4301 1.349 . S
C4302 C4314 1.349 . S
C4303 C4301 1.327 . S
C4303 C4319 1.429 . S
C4303 H4325 0.950 . S
C4304 H4300 0.949 . S
C4304 C4312 1.574 . S
C4304 C4320 1.368 . S
H4305 C4313 0.950 . S
H4306 C4311 0.950 . S
H4307 C4312 0.949 . S
H4308 C4314 0.950 . S
H4309 C4315 0.950 . S
H4310 C4316 0.949 . S
C4311 H4306 0.950 . S
C4311 C4313 1.327 . S
C4311 C4317 1.429 . S
C4312 C4304 1.574 . S
C4312 H4307 0.949 . S
C4312 C4318 1.368 . S
C4313 C4297 1.349 . S
C4313 H4305 0.950 . S
C4313 C4311 1.327 . S
C4314 C4302 1.349 . S
C4314 H4308 0.950 . S
C4314 C4315 1.327 . S
C4315 H4309 0.950 . S
C4315 C4314 1.327 . S
C4315 C4319 1.429 . S
C4316 C4299 1.574 . S
C4316 H4310 0.949 . S
C4316 C4320 1.368 . S
C4317 C4298 1.429 . S
C4317 C4311 1.429 . S
C4317 C4318 1.523 . S
C4318 C4299 1.368 . S
C4318 C4312 1.368 . S
C4318 C4317 1.523 . S
C4319 C4303 1.429 . S
C4319 C4315 1.429 . S
C4319 C4320 1.523 . S
C4320 C4304 1.368 . S
C4320 C4316 1.368 . S
C4320 C4319 1.523 . S
H4321 C4296 0.950 . S
H4322 C4298 0.950 . S
H4323 C4299 0.949 . S
H4324 C4301 0.950 . S
H4325 C4303 0.950 . S
C4326 C4327 1.349 . S
C4326 C4328 1.327 . S
C4326 H4351 0.950 . S
C4327 C4326 1.349 . S
C4327 C4343 1.349 . S
C4328 C4326 1.327 . S
C4328 C4347 1.429 . S
C4328 H4352 0.950 . S
C4329 C4346 1.574 . S
C4329 C4348 1.368 . S
C4329 H4353 0.949 . S
H4330 C4334 0.949 . S
C4331 C4332 1.349 . S
C4331 C4333 1.327 . S
C4331 H4354 0.950 . S
C4332 C4331 1.349 . S
C4332 C4344 1.349 . S
C4333 C4331 1.327 . S
C4333 C4349 1.429 . S
C4333 H4355 0.950 . S
C4334 H4330 0.949 . S
C4334 C4342 1.574 . S
C4334 C4350 1.368 . S
H4335 C4343 0.950 . S
H4336 C4341 0.950 . S
H4337 C4342 0.949 . S
H4338 C4344 0.950 . S
H4339 C4345 0.950 . S
H4340 C4346 0.949 . S
C4341 H4336 0.950 . S
C4341 C4343 1.327 . S
C4341 C4347 1.429 . S
C4342 C4334 1.574 . S
C4342 H4337 0.949 . S
C4342 C4348 1.368 . S
C4343 C4327 1.349 . S
C4343 H4335 0.950 . S
C4343 C4341 1.327 . S
C4344 C4332 1.349 . S
C4344 H4338 0.950 . S
C4344 C4345 1.327 . S
C4345 H4339 0.950 . S
C4345 C4344 1.327 . S
C4345 C4349 1.429 . S
C4346 C4329 1.574 . S
C4346 H4340 0.949 . S
C4346 C4350 1.368 . S
C4347 C4328 1.429 . S
C4347 C4341 1.429 . S
C4347 C4348 1.523 . S
C4348 C4329 1.368 . S
C4348 C4342 1.368 . S
C4348 C4347 1.523 . S
C4349 C4333 1.429 . S
C4349 C4345 1.429 . S
C4349 C4350 1.523 . S
C4350 C4334 1.368 . S
C4350 C4346 1.368 . S
C4350 C4349 1.523 . S
H4351 C4326 0.950 . S
H4352 C4328 0.950 . S
H4353 C4329 0.949 . S
H4354 C4331 0.950 . S
H4355 C4333 0.950 . S
C4356 C4357 1.349 . S
C4356 C4358 1.327 . S
C4356 H4381 0.950 . S
C4357 C4356 1.349 . S
C4357 C4373 1.349 . S
C4358 C4356 1.327 . S
C4358 C4377 1.429 . S
C4358 H4382 0.950 . S
C4359 C4376 1.574 . S
C4359 C4378 1.368 . S
C4359 H4383 0.949 . S
H4360 C4364 0.949 . S
C4361 C4362 1.349 1_566 S
C4361 C4363 1.327 . S
C4361 H4384 0.950 . S
C4362 C4361 1.349 1_544 S
C4362 C4374 1.349 . S
C4363 C4361 1.327 . S
C4363 C4379 1.429 . S
C4363 H4385 0.950 . S
C4364 H4360 0.949 . S
C4364 C4372 1.574 . S
C4364 C4380 1.368 . S
H4365 C4373 0.950 . S
H4366 C4371 0.950 . S
H4367 C4372 0.949 . S
H4368 C4374 0.950 . S
H4369 C4375 0.934 1_554 S
H4370 C4376 0.949 . S
C4371 H4366 0.950 . S
C4371 C4373 1.327 . S
C4371 C4377 1.429 . S
C4372 C4364 1.574 . S
C4372 H4367 0.949 . S
C4372 C4378 1.368 . S
C4373 C4357 1.349 . S
C4373 H4365 0.950 . S
C4373 C4371 1.327 . S
C4374 C4362 1.349 . S
C4374 H4368 0.950 . S
C4374 C4375 1.312 1_544 S
C4375 H4369 0.934 1_556 S
C4375 C4374 1.312 1_566 S
C4375 C4379 1.461 . S
C4376 C4359 1.574 . S
C4376 H4370 0.949 . S
C4376 C4380 1.368 . S
C4377 C4358 1.429 . S
C4377 C4371 1.429 . S
C4377 C4378 1.523 . S
C4378 C4359 1.368 . S
C4378 C4372 1.368 . S
C4378 C4377 1.523 . S
C4379 C4363 1.429 . S
C4379 C4375 1.461 . S
C4379 C4380 1.523 . S
C4380 C4364 1.368 . S
C4380 C4376 1.368 . S
C4380 C4379 1.523 . S
H4381 C4356 0.950 . S
H4382 C4358 0.950 . S
H4383 C4359 0.949 . S
H4384 C4361 0.950 . S
H4385 C4363 0.950 . S
C4386 C4387 1.349 . S
C4386 C4388 1.327 . S
C4386 H4411 0.950 . S
C4387 C4386 1.349 . S
C4387 C4403 1.349 . S
C4388 C4386 1.327 . S
C4388 C4407 1.429 . S
C4388 H4412 0.950 . S
C4389 C4406 1.574 . S
C4389 C4408 1.368 . S
C4389 H4413 0.949 . S
H4390 C4394 0.949 . S
C4391 C4392 1.349 . S
C4391 C4393 1.327 . S
C4391 H4414 0.950 . S
C4392 C4391 1.349 . S
C4392 C4404 1.349 . S
C4393 C4391 1.327 . S
C4393 C4409 1.429 . S
C4393 H4415 0.950 . S
C4394 H4390 0.949 . S
C4394 C4402 1.574 . S
C4394 C4410 1.368 . S
H4395 C4403 0.950 . S
H4396 C4401 0.950 . S
H4397 C4402 0.949 . S
H4398 C4404 0.950 . S
H4399 C4405 0.950 . S
H4400 C4406 0.949 . S
C4401 H4396 0.950 . S
C4401 C4403 1.327 . S
C4401 C4407 1.429 . S
C4402 C4394 1.574 . S
C4402 H4397 0.949 . S
C4402 C4408 1.368 . S
C4403 C4387 1.349 . S
C4403 H4395 0.950 . S
C4403 C4401 1.327 . S
C4404 C4392 1.349 . S
C4404 H4398 0.950 . S
C4404 C4405 1.327 . S
C4405 H4399 0.950 . S
C4405 C4404 1.327 . S
C4405 C4409 1.429 . S
C4406 C4389 1.574 . S
C4406 H4400 0.949 . S
C4406 C4410 1.368 . S
C4407 C4388 1.429 . S
C4407 C4401 1.429 . S
C4407 C4408 1.523 . S
C4408 C4389 1.368 . S
C4408 C4402 1.368 . S
C4408 C4407 1.523 . S
C4409 C4393 1.429 . S
C4409 C4405 1.429 . S
C4409 C4410 1.523 . S
C4410 C4394 1.368 . S
C4410 C4406 1.368 . S
C4410 C4409 1.523 . S
H4411 C4386 0.950 . S
H4412 C4388 0.950 . S
H4413 C4389 0.949 . S
H4414 C4391 0.950 . S
H4415 C4393 0.950 . S
C4416 C4417 1.349 1_565 S
C4416 C4418 1.327 . S
C4416 H4441 0.950 . S
C4417 C4416 1.349 1_545 S
C4417 C4433 1.349 . S
C4418 C4416 1.327 . S
C4418 C4437 1.429 1_565 S
C4418 H4442 0.950 . S
C4419 C4436 1.574 . S
C4419 C4438 1.368 . S
C4419 H4443 0.949 . S
H4420 C4424 0.932 1_565 S
C4421 C4422 1.349 . S
C4421 C4423 1.327 . S
C4421 H4444 0.950 . S
C4422 C4421 1.349 . S
C4422 C4434 1.349 . S
C4423 C4421 1.327 . S
C4423 C4439 1.429 . S
C4423 H4445 0.950 . S
C4424 H4420 0.932 1_545 S
C4424 C4432 1.573 1_545 S
C4424 C4440 1.388 . S
H4425 C4433 0.950 . S
H4426 C4431 0.950 . S
H4427 C4432 0.949 . S
H4428 C4434 0.950 . S
H4429 C4435 0.950 1_565 S
H4430 C4436 0.949 . S
C4431 H4426 0.950 . S
C4431 C4433 1.327 . S
C4431 C4437 1.429 . S
C4432 C4424 1.573 1_565 S
C4432 H4427 0.949 . S
C4432 C4438 1.368 1_565 S
C4433 C4417 1.349 . S
C4433 H4425 0.950 . S
C4433 C4431 1.327 . S
C4434 C4422 1.349 . S
C4434 H4428 0.950 . S
C4434 C4435 1.327 . S
C4435 H4429 0.950 1_545 S
C4435 C4434 1.327 . S
C4435 C4439 1.429 . S
C4436 C4419 1.574 . S
C4436 H4430 0.949 . S
C4436 C4440 1.368 . S
C4437 C4418 1.429 1_545 S
C4437 C4431 1.429 . S
C4437 C4438 1.523 . S
C4438 C4419 1.368 . S
C4438 C4432 1.368 1_545 S
C4438 C4437 1.523 . S
C4439 C4423 1.429 . S
C4439 C4435 1.429 . S
C4439 C4440 1.523 . S
C4440 C4424 1.388 . S
C4440 C4436 1.368 . S
C4440 C4439 1.523 . S
H4441 C4416 0.950 . S
H4442 C4418 0.950 . S
H4443 C4419 0.949 . S
H4444 C4421 0.950 . S
H4445 C4423 0.950 . S
C4446 C4447 1.349 . S
C4446 C4448 1.327 . S
C4446 H4471 0.950 . S
C4447 C4446 1.349 . S
C4447 C4463 1.349 . S
C4448 C4446 1.327 . S
C4448 C4467 1.429 . S
C4448 H4472 0.950 . S
C4449 C4466 1.574 . S
C4449 C4468 1.368 . S
C4449 H4473 0.949 . S
H4450 C4454 0.949 . S
C4451 C4452 1.349 . S
C4451 C4453 1.327 . S
C4451 H4474 0.950 . S
C4452 C4451 1.349 . S
C4452 C4464 1.349 . S
C4453 C4451 1.327 . S
C4453 C4469 1.429 . S
C4453 H4475 0.950 . S
C4454 H4450 0.949 . S
C4454 C4462 1.574 . S
C4454 C4470 1.368 . S
H4455 C4463 0.950 . S
H4456 C4461 0.950 . S
H4457 C4462 0.949 . S
H4458 C4464 0.950 . S
H4459 C4465 0.950 . S
H4460 C4466 0.949 . S
C4461 H4456 0.950 . S
C4461 C4463 1.327 . S
C4461 C4467 1.429 . S
C4462 C4454 1.574 . S
C4462 H4457 0.949 . S
C4462 C4468 1.368 . S
C4463 C4447 1.349 . S
C4463 H4455 0.950 . S
C4463 C4461 1.327 . S
C4464 C4452 1.349 . S
C4464 H4458 0.950 . S
C4464 C4465 1.327 . S
C4465 H4459 0.950 . S
C4465 C4464 1.327 . S
C4465 C4469 1.429 . S
C4466 C4449 1.574 . S
C4466 H4460 0.949 . S
C4466 C4470 1.368 . S
C4467 C4448 1.429 . S
C4467 C4461 1.429 . S
C4467 C4468 1.523 . S
C4468 C4449 1.368 . S
C4468 C4462 1.368 . S
C4468 C4467 1.523 . S
C4469 C4453 1.429 . S
C4469 C4465 1.429 . S
C4469 C4470 1.523 . S
C4470 C4454 1.368 . S
C4470 C4466 1.368 . S
C4470 C4469 1.523 . S
H4471 C4446 0.950 . S
H4472 C4448 0.950 . S
H4473 C4449 0.949 . S
H4474 C4451 0.950 . S
H4475 C4453 0.950 . S
C4476 C4477 1.349 . S
C4476 C4478 1.327 . S
C4476 H4501 0.950 . S
C4477 C4476 1.349 . S
C4477 C4493 1.349 . S
C4478 C4476 1.327 . S
C4478 C4497 1.429 . S
C4478 H4502 0.950 . S
C4479 C4496 1.574 . S
C4479 C4498 1.368 . S
C4479 H4503 0.949 . S
H4480 C4484 0.949 . S
C4481 C4482 1.349 . S
C4481 C4483 1.327 . S
C4481 H4504 0.950 . S
C4482 C4481 1.349 . S
C4482 C4494 1.349 . S
C4483 C4481 1.327 . S
C4483 C4499 1.429 . S
C4483 H4505 0.950 . S
C4484 H4480 0.949 . S
C4484 C4492 1.574 . S
C4484 C4500 1.368 . S
H4485 C4493 0.950 . S
H4486 C4491 0.950 . S
H4487 C4492 0.949 . S
H4488 C4494 0.950 . S
H4489 C4495 0.950 . S
H4490 C4496 0.949 . S
C4491 H4486 0.950 . S
C4491 C4493 1.327 . S
C4491 C4497 1.429 . S
C4492 C4484 1.574 . S
C4492 H4487 0.949 . S
C4492 C4498 1.368 . S
C4493 C4477 1.349 . S
C4493 H4485 0.950 . S
C4493 C4491 1.327 . S
C4494 C4482 1.349 . S
C4494 H4488 0.950 . S
C4494 C4495 1.327 . S
C4495 H4489 0.950 . S
C4495 C4494 1.327 . S
C4495 C4499 1.429 . S
C4496 C4479 1.574 . S
C4496 H4490 0.949 . S
C4496 C4500 1.368 . S
C4497 C4478 1.429 . S
C4497 C4491 1.429 . S
C4497 C4498 1.523 . S
C4498 C4479 1.368 . S
C4498 C4492 1.368 . S
C4498 C4497 1.523 . S
C4499 C4483 1.429 . S
C4499 C4495 1.429 . S
C4499 C4500 1.523 . S
C4500 C4484 1.368 . S
C4500 C4496 1.368 . S
C4500 C4499 1.523 . S
H4501 C4476 0.950 . S
H4502 C4478 0.950 . S
H4503 C4479 0.949 . S
H4504 C4481 0.950 . S
H4505 C4483 0.950 . S
C4506 C4507 1.349 . S
C4506 C4508 1.327 . S
C4506 H4531 0.950 . S
C4507 C4506 1.349 . S
C4507 C4523 1.349 . S
C4508 C4506 1.327 . S
C4508 C4527 1.429 . S
C4508 H4532 0.950 . S
C4509 C4526 1.574 . S
C4509 C4528 1.368 . S
C4509 H4533 0.949 . S
H4510 C4514 0.949 . S
C4511 C4512 1.349 . S
C4511 C4513 1.327 . S
C4511 H4534 0.950 . S
C4512 C4511 1.349 . S
C4512 C4524 1.349 . S
C4513 C4511 1.327 . S
C4513 C4529 1.429 . S
C4513 H4535 0.950 . S
C4514 H4510 0.949 . S
C4514 C4522 1.574 . S
C4514 C4530 1.368 . S
H4515 C4523 0.950 . S
H4516 C4521 0.950 . S
H4517 C4522 0.949 . S
H4518 C4524 0.950 . S
H4519 C4525 0.950 . S
H4520 C4526 0.949 . S
C4521 H4516 0.950 . S
C4521 C4523 1.327 . S
C4521 C4527 1.429 . S
C4522 C4514 1.574 . S
C4522 H4517 0.949 . S
C4522 C4528 1.368 . S
C4523 C4507 1.349 . S
C4523 H4515 0.950 . S
C4523 C4521 1.327 . S
C4524 C4512 1.349 . S
C4524 H4518 0.950 . S
C4524 C4525 1.327 . S
C4525 H4519 0.950 . S
C4525 C4524 1.327 . S
C4525 C4529 1.429 . S
C4526 C4509 1.574 . S
C4526 H4520 0.949 . S
C4526 C4530 1.368 . S
C4527 C4508 1.429 . S
C4527 C4521 1.429 . S
C4527 C4528 1.523 . S
C4528 C4509 1.368 . S
C4528 C4522 1.368 . S
C4528 C4527 1.523 . S
C4529 C4513 1.429 . S
C4529 C4525 1.429 . S
C4529 C4530 1.523 . S
C4530 C4514 1.368 . S
C4530 C4526 1.368 . S
C4530 C4529 1.523 . S
H4531 C4506 0.950 . S
H4532 C4508 0.950 . S
H4533 C4509 0.949 . S
H4534 C4511 0.950 . S
H4535 C4513 0.950 . S
C4536 C4537 1.349 . S
C4536 C4538 1.327 . S
C4536 H4561 0.950 . S
C4537 C4536 1.349 . S
C4537 C4553 1.349 1_565 S
C4538 C4536 1.327 . S
C4538 C4557 1.413 1_565 S
C4538 H4562 0.950 . S
C4539 C4556 1.574 . S
C4539 C4558 1.368 . S
C4539 H4563 0.949 . S
H4540 C4544 0.960 . S
C4541 C4542 1.349 . S
C4541 C4543 1.327 . S
C4541 H4564 0.950 . S
C4542 C4541 1.349 . S
C4542 C4554 1.349 . S
C4543 C4541 1.327 . S
C4543 C4559 1.429 . S
C4543 H4565 0.950 . S
C4544 H4540 0.960 . S
C4544 C4552 1.592 . S
C4544 C4560 1.339 1_565 S
H4545 C4553 0.950 . S
H4546 C4551 0.950 . S
H4547 C4552 0.949 . S
H4548 C4554 0.950 . S
H4549 C4555 0.919 1_565 S
H4550 C4556 0.949 . S
C4551 H4546 0.950 . S
C4551 C4553 1.327 . S
C4551 C4557 1.434 . S
C4552 C4544 1.592 . S
C4552 H4547 0.949 . S
C4552 C4558 1.368 1_565 S
C4553 C4537 1.349 1_545 S
C4553 H4545 0.950 . S
C4553 C4551 1.327 . S
C4554 C4542 1.349 . S
C4554 H4548 0.950 . S
C4554 C4555 1.327 . S
C4555 H4549 0.919 1_545 S
C4555 C4554 1.327 . S
C4555 C4559 1.429 . S
C4556 C4539 1.574 . S
C4556 H4550 0.949 . S
C4556 C4560 1.368 . S
C4557 C4538 1.413 1_545 S
C4557 C4551 1.434 . S
C4557 C4558 1.532 . S
C4558 C4539 1.368 . S
C4558 C4552 1.368 1_545 S
C4558 C4557 1.532 . S
C4559 C4543 1.429 . S
C4559 C4555 1.429 . S
C4559 C4560 1.523 . S
C4560 C4544 1.339 1_545 S
C4560 C4556 1.368 . S
C4560 C4559 1.523 . S
H4561 C4536 0.950 . S
H4562 C4538 0.950 . S
H4563 C4539 0.949 . S
H4564 C4541 0.950 . S
H4565 C4543 0.950 . S
C4566 C4567 1.349 . S
C4566 C4568 1.327 . S
C4566 H4591 0.950 . S
C4567 C4566 1.349 . S
C4567 C4583 1.349 . S
C4568 C4566 1.327 . S
C4568 C4587 1.429 . S
C4568 H4592 0.950 . S
C4569 C4586 1.574 . S
C4569 C4588 1.368 . S
C4569 H4593 0.949 . S
H4570 C4574 0.949 . S
C4571 C4572 1.349 . S
C4571 C4573 1.327 . S
C4571 H4594 0.950 . S
C4572 C4571 1.349 . S
C4572 C4584 1.349 . S
C4573 C4571 1.327 . S
C4573 C4589 1.429 . S
C4573 H4595 0.950 . S
C4574 H4570 0.949 . S
C4574 C4582 1.574 . S
C4574 C4590 1.368 . S
H4575 C4583 0.950 . S
H4576 C4581 0.950 . S
H4577 C4582 0.949 . S
H4578 C4584 0.950 . S
H4579 C4585 0.950 . S
H4580 C4586 0.949 . S
C4581 H4576 0.950 . S
C4581 C4583 1.327 . S
C4581 C4587 1.429 . S
C4582 C4574 1.574 . S
C4582 H4577 0.949 . S
C4582 C4588 1.368 . S
C4583 C4567 1.349 . S
C4583 H4575 0.950 . S
C4583 C4581 1.327 . S
C4584 C4572 1.349 . S
C4584 H4578 0.950 . S
C4584 C4585 1.327 . S
C4585 H4579 0.950 . S
C4585 C4584 1.327 . S
C4585 C4589 1.429 . S
C4586 C4569 1.574 . S
C4586 H4580 0.949 . S
C4586 C4590 1.368 . S
C4587 C4568 1.429 . S
C4587 C4581 1.429 . S
C4587 C4588 1.523 . S
C4588 C4569 1.368 . S
C4588 C4582 1.368 . S
C4588 C4587 1.523 . S
C4589 C4573 1.429 . S
C4589 C4585 1.429 . S
C4589 C4590 1.523 . S
C4590 C4574 1.368 . S
C4590 C4586 1.368 . S
C4590 C4589 1.523 . S
H4591 C4566 0.950 . S
H4592 C4568 0.950 . S
H4593 C4569 0.949 . S
H4594 C4571 0.950 . S
H4595 C4573 0.950 . S
C4596 C4597 1.349 . S
C4596 C4598 1.327 . S
C4596 H4621 0.950 . S
C4597 C4596 1.349 . S
C4597 C4613 1.349 . S
C4598 C4596 1.327 . S
C4598 C4617 1.429 . S
C4598 H4622 0.950 . S
C4599 C4616 1.574 . S
C4599 C4618 1.368 . S
C4599 H4623 0.949 . S
H4600 C4604 0.949 . S
C4601 C4602 1.349 . S
C4601 C4603 1.327 . S
C4601 H4624 0.950 . S
C4602 C4601 1.349 . S
C4602 C4614 1.349 . S
C4603 C4601 1.327 . S
C4603 C4619 1.429 . S
C4603 H4625 0.950 . S
C4604 H4600 0.949 . S
C4604 C4612 1.574 . S
C4604 C4620 1.368 . S
H4605 C4613 0.950 . S
H4606 C4611 0.950 . S
H4607 C4612 0.949 . S
H4608 C4614 0.950 . S
H4609 C4615 0.950 . S
H4610 C4616 0.949 . S
C4611 H4606 0.950 . S
C4611 C4613 1.327 . S
C4611 C4617 1.429 . S
C4612 C4604 1.574 . S
C4612 H4607 0.949 . S
C4612 C4618 1.368 . S
C4613 C4597 1.349 . S
C4613 H4605 0.950 . S
C4613 C4611 1.327 . S
C4614 C4602 1.349 . S
C4614 H4608 0.950 . S
C4614 C4615 1.327 . S
C4615 H4609 0.950 . S
C4615 C4614 1.327 . S
C4615 C4619 1.429 . S
C4616 C4599 1.574 . S
C4616 H4610 0.949 . S
C4616 C4620 1.368 . S
C4617 C4598 1.429 . S
C4617 C4611 1.429 . S
C4617 C4618 1.523 . S
C4618 C4599 1.368 . S
C4618 C4612 1.368 . S
C4618 C4617 1.523 . S
C4619 C4603 1.429 . S
C4619 C4615 1.429 . S
C4619 C4620 1.523 . S
C4620 C4604 1.368 . S
C4620 C4616 1.368 . S
C4620 C4619 1.523 . S
H4621 C4596 0.950 . S
H4622 C4598 0.950 . S
H4623 C4599 0.949 . S
H4624 C4601 0.950 . S
H4625 C4603 0.950 . S
C4626 C4627 1.349 . S
C4626 C4628 1.327 . S
C4626 H4651 0.950 . S
C4627 C4626 1.349 . S
C4627 C4643 1.349 . S
C4628 C4626 1.327 . S
C4628 C4647 1.429 . S
C4628 H4652 0.950 . S
C4629 C4646 1.574 . S
C4629 C4648 1.368 . S
C4629 H4653 0.949 . S
H4630 C4634 0.949 . S
C4631 C4632 1.349 . S
C4631 C4633 1.327 . S
C4631 H4654 0.950 . S
C4632 C4631 1.349 . S
C4632 C4644 1.349 . S
C4633 C4631 1.327 . S
C4633 C4649 1.429 . S
C4633 H4655 0.950 . S
C4634 H4630 0.949 . S
C4634 C4642 1.574 . S
C4634 C4650 1.368 . S
H4635 C4643 0.950 . S
H4636 C4641 0.950 . S
H4637 C4642 0.949 . S
H4638 C4644 0.950 . S
H4639 C4645 0.950 . S
H4640 C4646 0.949 . S
C4641 H4636 0.950 . S
C4641 C4643 1.327 . S
C4641 C4647 1.429 . S
C4642 C4634 1.574 . S
C4642 H4637 0.949 . S
C4642 C4648 1.368 . S
C4643 C4627 1.349 . S
C4643 H4635 0.950 . S
C4643 C4641 1.327 . S
C4644 C4632 1.349 . S
C4644 H4638 0.950 . S
C4644 C4645 1.327 . S
C4645 H4639 0.950 . S
C4645 C4644 1.327 . S
C4645 C4649 1.429 . S
C4646 C4629 1.574 . S
C4646 H4640 0.949 . S
C4646 C4650 1.368 . S
C4647 C4628 1.429 . S
C4647 C4641 1.429 . S
C4647 C4648 1.523 . S
C4648 C4629 1.368 . S
C4648 C4642 1.368 . S
C4648 C4647 1.523 . S
C4649 C4633 1.429 . S
C4649 C4645 1.429 . S
C4649 C4650 1.523 . S
C4650 C4634 1.368 . S
C4650 C4646 1.368 . S
C4650 C4649 1.523 . S
H4651 C4626 0.950 . S
H4652 C4628 0.950 . S
H4653 C4629 0.949 . S
H4654 C4631 0.950 . S
H4655 C4633 0.950 . S
C4656 C4657 1.349 . S
C4656 C4658 1.327 . S
C4656 H4681 0.950 . S
C4657 C4656 1.349 . S
C4657 C4673 1.349 . S
C4658 C4656 1.327 . S
C4658 C4677 1.429 . S
C4658 H4682 0.950 . S
C4659 C4676 1.575 . S
C4659 C4678 1.368 . S
C4659 H4683 0.949 1_554 S
H4660 C4664 0.949 . S
C4661 C4662 1.352 1_556 S
C4661 C4663 1.327 1_556 S
C4661 H4684 0.947 . S
C4662 C4661 1.352 1_554 S
C4662 C4674 1.349 . S
C4663 C4661 1.327 1_554 S
C4663 C4679 1.430 . S
C4663 H4685 0.948 1_554 S
C4664 H4660 0.949 . S
C4664 C4672 1.574 . S
C4664 C4680 1.368 . S
H4665 C4673 0.950 1_556 S
H4666 C4671 0.950 1_556 S
H4667 C4672 0.949 . S
H4668 C4674 0.950 . S
H4669 C4675 0.950 . S
H4670 C4676 0.924 1_556 S
C4671 H4666 0.950 1_554 S
C4671 C4673 1.327 . S
C4671 C4677 1.429 . S
C4672 C4664 1.574 . S
C4672 H4667 0.949 . S
C4672 C4678 1.368 . S
C4673 C4657 1.349 . S
C4673 H4665 0.950 1_554 S
C4673 C4671 1.327 . S
C4674 C4662 1.349 . S
C4674 H4668 0.950 . S
C4674 C4675 1.327 . S
C4675 H4669 0.950 . S
C4675 C4674 1.327 . S
C4675 C4679 1.429 . S
C4676 C4659 1.575 . S
C4676 H4670 0.924 1_554 S
C4676 C4680 1.396 . S
C4677 C4658 1.429 . S
C4677 C4671 1.429 . S
C4677 C4678 1.523 . S
C4678 C4659 1.368 . S
C4678 C4672 1.368 . S
C4678 C4677 1.523 . S
C4679 C4663 1.430 . S
C4679 C4675 1.429 . S
C4679 C4680 1.523 . S
C4680 C4664 1.368 . S
C4680 C4676 1.396 . S
C4680 C4679 1.523 . S
H4681 C4656 0.950 . S
H4682 C4658 0.950 . S
H4683 C4659 0.949 1_556 S
H4684 C4661 0.947 . S
H4685 C4663 0.948 1_556 S
C4686 C4687 1.349 . S
C4686 C4688 1.327 . S
C4686 H4711 0.950 . S
C4687 C4686 1.349 . S
C4687 C4703 1.349 . S
C4688 C4686 1.327 . S
C4688 C4707 1.429 . S
C4688 H4712 0.950 . S
C4689 C4706 1.574 . S
C4689 C4708 1.368 . S
C4689 H4713 0.949 . S
H4690 C4694 0.949 . S
C4691 C4692 1.349 . S
C4691 C4693 1.327 . S
C4691 H4714 0.950 . S
C4692 C4691 1.349 . S
C4692 C4704 1.349 . S
C4693 C4691 1.327 . S
C4693 C4709 1.429 . S
C4693 H4715 0.950 . S
C4694 H4690 0.949 . S
C4694 C4702 1.574 . S
C4694 C4710 1.368 . S
H4695 C4703 0.950 . S
H4696 C4701 0.950 . S
H4697 C4702 0.949 . S
H4698 C4704 0.950 . S
H4699 C4705 0.950 . S
H4700 C4706 0.949 . S
C4701 H4696 0.950 . S
C4701 C4703 1.327 . S
C4701 C4707 1.429 . S
C4702 C4694 1.574 . S
C4702 H4697 0.949 . S
C4702 C4708 1.368 . S
C4703 C4687 1.349 . S
C4703 H4695 0.950 . S
C4703 C4701 1.327 . S
C4704 C4692 1.349 . S
C4704 H4698 0.950 . S
C4704 C4705 1.327 . S
C4705 H4699 0.950 . S
C4705 C4704 1.327 . S
C4705 C4709 1.429 . S
C4706 C4689 1.574 . S
C4706 H4700 0.949 . S
C4706 C4710 1.368 . S
C4707 C4688 1.429 . S
C4707 C4701 1.429 . S
C4707 C4708 1.523 . S
C4708 C4689 1.368 . S
C4708 C4702 1.368 . S
C4708 C4707 1.523 . S
C4709 C4693 1.429 . S
C4709 C4705 1.429 . S
C4709 C4710 1.523 . S
C4710 C4694 1.368 . S
C4710 C4706 1.368 . S
C4710 C4709 1.523 . S
H4711 C4686 0.950 . S
H4712 C4688 0.950 . S
H4713 C4689 0.949 . S
H4714 C4691 0.950 . S
H4715 C4693 0.950 . S
C4716 C4717 1.349 . S
C4716 C4718 1.327 . S
C4716 H4741 0.950 . S
C4717 C4716 1.349 . S
C4717 C4733 1.349 . S
C4718 C4716 1.327 . S
C4718 C4737 1.429 . S
C4718 H4742 0.950 . S
C4719 C4736 1.574 . S
C4719 C4738 1.368 . S
C4719 H4743 0.949 . S
H4720 C4724 0.949 . S
C4721 C4722 1.349 . S
C4721 C4723 1.327 . S
C4721 H4744 0.950 . S
C4722 C4721 1.349 . S
C4722 C4734 1.349 . S
C4723 C4721 1.327 . S
C4723 C4739 1.429 . S
C4723 H4745 0.950 . S
C4724 H4720 0.949 . S
C4724 C4732 1.574 . S
C4724 C4740 1.368 . S
H4725 C4733 0.950 . S
H4726 C4731 0.950 . S
H4727 C4732 0.949 . S
H4728 C4734 0.950 . S
H4729 C4735 0.950 . S
H4730 C4736 0.949 . S
C4731 H4726 0.950 . S
C4731 C4733 1.327 . S
C4731 C4737 1.429 . S
C4732 C4724 1.574 . S
C4732 H4727 0.949 . S
C4732 C4738 1.368 . S
C4733 C4717 1.349 . S
C4733 H4725 0.950 . S
C4733 C4731 1.327 . S
C4734 C4722 1.349 . S
C4734 H4728 0.950 . S
C4734 C4735 1.327 . S
C4735 H4729 0.950 . S
C4735 C4734 1.327 . S
C4735 C4739 1.429 . S
C4736 C4719 1.574 . S
C4736 H4730 0.949 . S
C4736 C4740 1.368 . S
C4737 C4718 1.429 . S
C4737 C4731 1.429 . S
C4737 C4738 1.523 . S
C4738 C4719 1.368 . S
C4738 C4732 1.368 . S
C4738 C4737 1.523 . S
C4739 C4723 1.429 . S
C4739 C4735 1.429 . S
C4739 C4740 1.523 . S
C4740 C4724 1.368 . S
C4740 C4736 1.368 . S
C4740 C4739 1.523 . S
H4741 C4716 0.950 . S
H4742 C4718 0.950 . S
H4743 C4719 0.949 . S
H4744 C4721 0.950 . S
H4745 C4723 0.950 . S
C4746 C4747 1.349 . S
C4746 C4748 1.327 . S
C4746 H4771 0.950 . S
C4747 C4746 1.349 . S
C4747 C4763 1.349 . S
C4748 C4746 1.327 . S
C4748 C4767 1.429 . S
C4748 H4772 0.950 . S
C4749 C4766 1.574 . S
C4749 C4768 1.368 . S
C4749 H4773 0.949 . S
H4750 C4754 0.949 . S
C4751 C4752 1.349 . S
C4751 C4753 1.327 . S
C4751 H4774 0.950 . S
C4752 C4751 1.349 . S
C4752 C4764 1.349 . S
C4753 C4751 1.327 . S
C4753 C4769 1.429 . S
C4753 H4775 0.950 . S
C4754 H4750 0.949 . S
C4754 C4762 1.574 . S
C4754 C4770 1.368 . S
H4755 C4763 0.950 . S
H4756 C4761 0.950 . S
H4757 C4762 0.949 . S
H4758 C4764 0.950 . S
H4759 C4765 0.950 . S
H4760 C4766 0.949 . S
C4761 H4756 0.950 . S
C4761 C4763 1.327 . S
C4761 C4767 1.429 . S
C4762 C4754 1.574 . S
C4762 H4757 0.949 . S
C4762 C4768 1.368 . S
C4763 C4747 1.349 . S
C4763 H4755 0.950 . S
C4763 C4761 1.327 . S
C4764 C4752 1.349 . S
C4764 H4758 0.950 . S
C4764 C4765 1.327 . S
C4765 H4759 0.950 . S
C4765 C4764 1.327 . S
C4765 C4769 1.429 . S
C4766 C4749 1.574 . S
C4766 H4760 0.949 . S
C4766 C4770 1.368 . S
C4767 C4748 1.429 . S
C4767 C4761 1.429 . S
C4767 C4768 1.523 . S
C4768 C4749 1.368 . S
C4768 C4762 1.368 . S
C4768 C4767 1.523 . S
C4769 C4753 1.429 . S
C4769 C4765 1.429 . S
C4769 C4770 1.523 . S
C4770 C4754 1.368 . S
C4770 C4766 1.368 . S
C4770 C4769 1.523 . S
H4771 C4746 0.950 . S
H4772 C4748 0.950 . S
H4773 C4749 0.949 . S
H4774 C4751 0.950 . S
H4775 C4753 0.950 . S
C4776 C4777 1.349 . S
C4776 C4778 1.327 . S
C4776 H4801 0.950 . S
C4777 C4776 1.349 . S
C4777 C4793 1.349 . S
C4778 C4776 1.327 . S
C4778 C4797 1.429 . S
C4778 H4802 0.950 . S
C4779 C4796 1.574 . S
C4779 C4798 1.368 . S
C4779 H4803 0.949 . S
H4780 C4784 0.949 . S
C4781 C4782 1.349 . S
C4781 C4783 1.327 . S
C4781 H4804 0.950 . S
C4782 C4781 1.349 . S
C4782 C4794 1.349 . S
C4783 C4781 1.327 . S
C4783 C4799 1.429 . S
C4783 H4805 0.950 . S
C4784 H4780 0.949 . S
C4784 C4792 1.574 . S
C4784 C4800 1.368 . S
H4785 C4793 0.950 . S
H4786 C4791 0.950 . S
H4787 C4792 0.949 . S
H4788 C4794 0.950 . S
H4789 C4795 0.950 . S
H4790 C4796 0.949 . S
C4791 H4786 0.950 . S
C4791 C4793 1.327 . S
C4791 C4797 1.429 . S
C4792 C4784 1.574 . S
C4792 H4787 0.949 . S
C4792 C4798 1.368 . S
C4793 C4777 1.349 . S
C4793 H4785 0.950 . S
C4793 C4791 1.327 . S
C4794 C4782 1.349 . S
C4794 H4788 0.950 . S
C4794 C4795 1.327 . S
C4795 H4789 0.950 . S
C4795 C4794 1.327 . S
C4795 C4799 1.429 . S
C4796 C4779 1.574 . S
C4796 H4790 0.949 . S
C4796 C4800 1.368 . S
C4797 C4778 1.429 . S
C4797 C4791 1.429 . S
C4797 C4798 1.523 . S
C4798 C4779 1.368 . S
C4798 C4792 1.368 . S
C4798 C4797 1.523 . S
C4799 C4783 1.429 . S
C4799 C4795 1.429 . S
C4799 C4800 1.523 . S
C4800 C4784 1.368 . S
C4800 C4796 1.368 . S
C4800 C4799 1.523 . S
H4801 C4776 0.950 . S
H4802 C4778 0.950 . S
H4803 C4779 0.949 . S
H4804 C4781 0.950 . S
H4805 C4783 0.950 . S
C4806 C4807 1.349 . S
C4806 C4808 1.327 . S
C4806 H4831 0.950 . S
C4807 C4806 1.349 . S
C4807 C4823 1.349 . S
C4808 C4806 1.327 . S
C4808 C4827 1.429 . S
C4808 H4832 0.950 . S
C4809 C4826 1.574 . S
C4809 C4828 1.368 . S
C4809 H4833 0.949 . S
H4810 C4814 0.949 . S
C4811 C4812 1.349 . S
C4811 C4813 1.327 . S
C4811 H4834 0.950 . S
C4812 C4811 1.349 . S
C4812 C4824 1.349 . S
C4813 C4811 1.327 . S
C4813 C4829 1.429 . S
C4813 H4835 0.950 . S
C4814 H4810 0.949 . S
C4814 C4822 1.574 . S
C4814 C4830 1.368 . S
H4815 C4823 0.950 . S
H4816 C4821 0.950 . S
H4817 C4822 0.949 . S
H4818 C4824 0.950 1_545 S
H4819 C4825 0.950 . S
H4820 C4826 0.949 . S
C4821 H4816 0.950 . S
C4821 C4823 1.327 . S
C4821 C4827 1.429 . S
C4822 C4814 1.574 . S
C4822 H4817 0.949 . S
C4822 C4828 1.368 . S
C4823 C4807 1.349 . S
C4823 H4815 0.950 . S
C4823 C4821 1.327 . S
C4824 C4812 1.349 . S
C4824 H4818 0.950 1_565 S
C4824 C4825 1.327 . S
C4825 H4819 0.950 . S
C4825 C4824 1.327 . S
C4825 C4829 1.429 . S
C4826 C4809 1.574 . S
C4826 H4820 0.949 . S
C4826 C4830 1.368 . S
C4827 C4808 1.429 . S
C4827 C4821 1.429 . S
C4827 C4828 1.523 . S
C4828 C4809 1.368 . S
C4828 C4822 1.368 . S
C4828 C4827 1.523 . S
C4829 C4813 1.429 . S
C4829 C4825 1.429 . S
C4829 C4830 1.523 . S
C4830 C4814 1.368 . S
C4830 C4826 1.368 . S
C4830 C4829 1.523 . S
H4831 C4806 0.950 . S
H4832 C4808 0.950 . S
H4833 C4809 0.949 . S
H4834 C4811 0.950 . S
H4835 C4813 0.950 . S
C4836 C4837 1.349 . S
C4836 C4838 1.327 . S
C4836 H4861 0.950 . S
C4837 C4836 1.349 . S
C4837 C4853 1.349 . S
C4838 C4836 1.327 . S
C4838 C4857 1.429 . S
C4838 H4862 0.950 . S
C4839 C4856 1.574 . S
C4839 C4858 1.368 . S
C4839 H4863 0.949 . S
H4840 C4844 0.949 . S
C4841 C4842 1.349 . S
C4841 C4843 1.327 . S
C4841 H4864 0.950 . S
C4842 C4841 1.349 . S
C4842 C4854 1.349 . S
C4843 C4841 1.327 . S
C4843 C4859 1.429 . S
C4843 H4865 0.950 . S
C4844 H4840 0.949 . S
C4844 C4852 1.574 . S
C4844 C4860 1.368 . S
H4845 C4853 0.950 . S
H4846 C4851 0.950 . S
H4847 C4852 0.949 . S
H4848 C4854 0.950 . S
H4849 C4855 0.950 . S
H4850 C4856 0.949 . S
C4851 H4846 0.950 . S
C4851 C4853 1.327 . S
C4851 C4857 1.429 . S
C4852 C4844 1.574 . S
C4852 H4847 0.949 . S
C4852 C4858 1.368 . S
C4853 C4837 1.349 . S
C4853 H4845 0.950 . S
C4853 C4851 1.327 . S
C4854 C4842 1.349 . S
C4854 H4848 0.950 . S
C4854 C4855 1.327 . S
C4855 H4849 0.950 . S
C4855 C4854 1.327 . S
C4855 C4859 1.429 . S
C4856 C4839 1.574 . S
C4856 H4850 0.949 . S
C4856 C4860 1.368 . S
C4857 C4838 1.429 . S
C4857 C4851 1.429 . S
C4857 C4858 1.523 . S
C4858 C4839 1.368 . S
C4858 C4852 1.368 . S
C4858 C4857 1.523 . S
C4859 C4843 1.429 . S
C4859 C4855 1.429 . S
C4859 C4860 1.523 . S
C4860 C4844 1.368 . S
C4860 C4856 1.368 . S
C4860 C4859 1.523 . S
H4861 C4836 0.950 . S
H4862 C4838 0.950 . S
H4863 C4839 0.949 . S
H4864 C4841 0.950 . S
H4865 C4843 0.950 . S
C4866 C4867 1.349 . S
C4866 C4868 1.327 . S
C4866 H4891 0.950 . S
C4867 C4866 1.349 . S
C4867 C4883 1.349 . S
C4868 C4866 1.327 . S
C4868 C4887 1.429 . S
C4868 H4892 0.950 . S
C4869 C4886 1.574 . S
C4869 C4888 1.368 . S
C4869 H4893 0.949 . S
H4870 C4874 0.949 . S
C4871 C4872 1.349 . S
C4871 C4873 1.327 . S
C4871 H4894 0.950 . S
C4872 C4871 1.349 . S
C4872 C4884 1.349 . S
C4873 C4871 1.327 . S
C4873 C4889 1.429 . S
C4873 H4895 0.950 . S
C4874 H4870 0.949 . S
C4874 C4882 1.574 . S
C4874 C4890 1.368 . S
H4875 C4883 0.950 . S
H4876 C4881 0.950 . S
H4877 C4882 0.949 . S
H4878 C4884 0.950 . S
H4879 C4885 0.950 . S
H4880 C4886 0.949 . S
C4881 H4876 0.950 . S
C4881 C4883 1.327 . S
C4881 C4887 1.429 . S
C4882 C4874 1.574 . S
C4882 H4877 0.949 . S
C4882 C4888 1.368 . S
C4883 C4867 1.349 . S
C4883 H4875 0.950 . S
C4883 C4881 1.327 . S
C4884 C4872 1.349 . S
C4884 H4878 0.950 . S
C4884 C4885 1.327 . S
C4885 H4879 0.950 . S
C4885 C4884 1.327 . S
C4885 C4889 1.429 . S
C4886 C4869 1.574 . S
C4886 H4880 0.949 . S
C4886 C4890 1.368 . S
C4887 C4868 1.429 . S
C4887 C4881 1.429 . S
C4887 C4888 1.523 . S
C4888 C4869 1.368 . S
C4888 C4882 1.368 . S
C4888 C4887 1.523 . S
C4889 C4873 1.429 . S
C4889 C4885 1.429 . S
C4889 C4890 1.523 . S
C4890 C4874 1.368 . S
C4890 C4886 1.368 . S
C4890 C4889 1.523 . S
H4891 C4866 0.950 . S
H4892 C4868 0.950 . S
H4893 C4869 0.949 . S
H4894 C4871 0.950 . S
H4895 C4873 0.950 . S
C4896 C4897 1.349 . S
C4896 C4898 1.327 . S
C4896 H4921 0.950 . S
C4897 C4896 1.349 . S
C4897 C4913 1.349 . S
C4898 C4896 1.327 . S
C4898 C4917 1.429 . S
C4898 H4922 0.950 . S
C4899 C4916 1.574 . S
C4899 C4918 1.368 . S
C4899 H4923 0.949 . S
H4900 C4904 0.949 . S
C4901 C4902 1.349 . S
C4901 C4903 1.327 . S
C4901 H4924 0.950 . S
C4902 C4901 1.349 . S
C4902 C4914 1.349 . S
C4903 C4901 1.327 . S
C4903 C4919 1.429 . S
C4903 H4925 0.950 . S
C4904 H4900 0.949 . S
C4904 C4912 1.574 . S
C4904 C4920 1.368 . S
H4905 C4913 0.950 . S
H4906 C4911 0.950 . S
H4907 C4912 0.949 . S
H4908 C4914 0.950 . S
H4909 C4915 0.950 . S
H4910 C4916 0.949 . S
C4911 H4906 0.950 . S
C4911 C4913 1.327 . S
C4911 C4917 1.429 . S
C4912 C4904 1.574 . S
C4912 H4907 0.949 . S
C4912 C4918 1.368 . S
C4913 C4897 1.349 . S
C4913 H4905 0.950 . S
C4913 C4911 1.327 . S
C4914 C4902 1.349 . S
C4914 H4908 0.950 . S
C4914 C4915 1.327 . S
C4915 H4909 0.950 . S
C4915 C4914 1.327 . S
C4915 C4919 1.429 . S
C4916 C4899 1.574 . S
C4916 H4910 0.949 . S
C4916 C4920 1.368 . S
C4917 C4898 1.429 . S
C4917 C4911 1.429 . S
C4917 C4918 1.523 . S
C4918 C4899 1.368 . S
C4918 C4912 1.368 . S
C4918 C4917 1.523 . S
C4919 C4903 1.429 . S
C4919 C4915 1.429 . S
C4919 C4920 1.523 . S
C4920 C4904 1.368 . S
C4920 C4916 1.368 . S
C4920 C4919 1.523 . S
H4921 C4896 0.950 . S
H4922 C4898 0.950 . S
H4923 C4899 0.949 . S
H4924 C4901 0.950 . S
H4925 C4903 0.950 . S
C4926 C4927 1.349 . S
C4926 C4928 1.327 . S
C4926 H4951 0.950 . S
C4927 C4926 1.349 . S
C4927 C4943 1.349 . S
C4928 C4926 1.327 . S
C4928 C4947 1.429 . S
C4928 H4952 0.950 . S
C4929 C4946 1.574 . S
C4929 C4948 1.368 . S
C4929 H4953 0.949 . S
H4930 C4934 0.949 . S
C4931 C4932 1.349 . S
C4931 C4933 1.327 . S
C4931 H4954 0.950 . S
C4932 C4931 1.349 . S
C4932 C4944 1.349 . S
C4933 C4931 1.327 . S
C4933 C4949 1.429 . S
C4933 H4955 0.950 . S
C4934 H4930 0.949 . S
C4934 C4942 1.574 . S
C4934 C4950 1.368 . S
H4935 C4943 0.950 . S
H4936 C4941 0.950 . S
H4937 C4942 0.949 . S
H4938 C4944 0.950 . S
H4939 C4945 0.950 . S
H4940 C4946 0.949 . S
C4941 H4936 0.950 . S
C4941 C4943 1.327 . S
C4941 C4947 1.429 . S
C4942 C4934 1.574 . S
C4942 H4937 0.949 . S
C4942 C4948 1.368 . S
C4943 C4927 1.349 . S
C4943 H4935 0.950 . S
C4943 C4941 1.327 . S
C4944 C4932 1.349 . S
C4944 H4938 0.950 . S
C4944 C4945 1.327 . S
C4945 H4939 0.950 . S
C4945 C4944 1.327 . S
C4945 C4949 1.429 . S
C4946 C4929 1.574 . S
C4946 H4940 0.949 . S
C4946 C4950 1.368 . S
C4947 C4928 1.429 . S
C4947 C4941 1.429 . S
C4947 C4948 1.523 . S
C4948 C4929 1.368 . S
C4948 C4942 1.368 . S
C4948 C4947 1.523 . S
C4949 C4933 1.429 . S
C4949 C4945 1.429 . S
C4949 C4950 1.523 . S
C4950 C4934 1.368 . S
C4950 C4946 1.368 . S
C4950 C4949 1.523 . S
H4951 C4926 0.950 . S
H4952 C4928 0.950 . S
H4953 C4929 0.949 . S
H4954 C4931 0.950 . S
H4955 C4933 0.950 . S
C4956 C4957 1.349 . S
C4956 C4958 1.327 . S
C4956 H4981 0.950 . S
C4957 C4956 1.349 . S
C4957 C4973 1.349 1_556 S
C4958 C4956 1.327 . S
C4958 C4977 1.429 . S
C4958 H4982 0.950 . S
C4959 C4976 1.574 . S
C4959 C4978 1.340 1_554 S
C4959 H4983 0.949 . S
H4960 C4964 0.949 . S
C4961 C4962 1.349 . S
C4961 C4963 1.327 . S
C4961 H4984 0.950 . S
C4962 C4961 1.349 . S
C4962 C4974 1.353 . S
C4963 C4961 1.327 . S
C4963 C4979 1.429 . S
C4963 H4985 0.950 . S
C4964 H4960 0.949 . S
C4964 C4972 1.574 . S
C4964 C4980 1.368 1_556 S
H4965 C4973 0.950 . S
H4966 C4971 0.950 . S
H4967 C4972 0.949 . S
H4968 C4974 0.946 1_556 S
H4969 C4975 0.950 . S
H4970 C4976 0.949 . S
C4971 H4966 0.950 . S
C4971 C4973 1.327 . S
C4971 C4977 1.429 1_554 S
C4972 C4964 1.574 . S
C4972 H4967 0.949 . S
C4972 C4978 1.399 . S
C4973 C4957 1.349 1_554 S
C4973 H4965 0.950 . S
C4973 C4971 1.327 . S
C4974 C4962 1.353 . S
C4974 H4968 0.946 1_554 S
C4974 C4975 1.327 1_554 S
C4975 H4969 0.950 . S
C4975 C4974 1.327 1_556 S
C4975 C4979 1.429 1_556 S
C4976 C4959 1.574 . S
C4976 H4970 0.949 . S
C4976 C4980 1.368 . S
C4977 C4958 1.429 . S
C4977 C4971 1.429 1_556 S
C4977 C4978 1.522 . S
C4978 C4959 1.340 1_556 S
C4978 C4972 1.399 . S
C4978 C4977 1.522 . S
C4979 C4963 1.429 . S
C4979 C4975 1.429 1_554 S
C4979 C4980 1.523 . S
C4980 C4964 1.368 1_554 S
C4980 C4976 1.368 . S
C4980 C4979 1.523 . S
H4981 C4956 0.950 . S
H4982 C4958 0.950 . S
H4983 C4959 0.949 . S
H4984 C4961 0.950 . S
H4985 C4963 0.950 . S
C4986 C4987 1.349 . S
C4986 C4988 1.327 . S
C4986 H5011 0.950 . S
C4987 C4986 1.349 . S
C4987 C5003 1.349 . S
C4988 C4986 1.327 . S
C4988 C5007 1.429 . S
C4988 H5012 0.950 . S
C4989 C5006 1.574 . S
C4989 C5008 1.368 . S
C4989 H5013 0.949 . S
H4990 C4994 0.949 . S
C4991 C4992 1.349 . S
C4991 C4993 1.327 . S
C4991 H5014 0.950 . S
C4992 C4991 1.349 . S
C4992 C5004 1.349 . S
C4993 C4991 1.327 . S
C4993 C5009 1.429 . S
C4993 H5015 0.950 . S
C4994 H4990 0.949 . S
C4994 C5002 1.574 . S
C4994 C5010 1.368 . S
H4995 C5003 0.950 1_455 S
H4996 C5001 0.950 . S
H4997 C5002 0.949 . S
H4998 C5004 0.950 . S
H4999 C5005 0.950 . S
H5000 C5006 0.949 . S
C5001 H4996 0.950 . S
C5001 C5003 1.327 . S
C5001 C5007 1.429 . S
C5002 C4994 1.574 . S
C5002 H4997 0.949 . S
C5002 C5008 1.368 . S
C5003 C4987 1.349 . S
C5003 H4995 0.950 1_655 S
C5003 C5001 1.327 . S
C5004 C4992 1.349 . S
C5004 H4998 0.950 . S
C5004 C5005 1.327 . S
C5005 H4999 0.950 . S
C5005 C5004 1.327 . S
C5005 C5009 1.429 . S
C5006 C4989 1.574 . S
C5006 H5000 0.949 . S
C5006 C5010 1.368 . S
C5007 C4988 1.429 . S
C5007 C5001 1.429 . S
C5007 C5008 1.523 . S
C5008 C4989 1.368 . S
C5008 C5002 1.368 . S
C5008 C5007 1.523 . S
C5009 C4993 1.429 . S
C5009 C5005 1.429 . S
C5009 C5010 1.523 . S
C5010 C4994 1.368 . S
C5010 C5006 1.368 . S
C5010 C5009 1.523 . S
H5011 C4986 0.950 . S
H5012 C4988 0.950 . S
H5013 C4989 0.949 . S
H5014 C4991 0.950 . S
H5015 C4993 0.950 . S
C5016 C5017 1.349 . S
C5016 C5018 1.327 . S
C5016 H5041 0.950 . S
C5017 C5016 1.349 . S
C5017 C5033 1.349 . S
C5018 C5016 1.327 . S
C5018 C5037 1.429 . S
C5018 H5042 0.950 . S
C5019 C5036 1.574 . S
C5019 C5038 1.368 . S
C5019 H5043 0.949 . S
H5020 C5024 0.949 . S
C5021 C5022 1.349 . S
C5021 C5023 1.327 . S
C5021 H5044 0.950 . S
C5022 C5021 1.349 . S
C5022 C5034 1.349 . S
C5023 C5021 1.327 . S
C5023 C5039 1.429 . S
C5023 H5045 0.950 . S
C5024 H5020 0.949 . S
C5024 C5032 1.574 . S
C5024 C5040 1.368 . S
H5025 C5033 0.950 . S
H5026 C5031 0.950 . S
H5027 C5032 0.949 . S
H5028 C5034 0.950 . S
H5029 C5035 0.950 . S
H5030 C5036 0.949 . S
C5031 H5026 0.950 . S
C5031 C5033 1.327 . S
C5031 C5037 1.429 . S
C5032 C5024 1.574 . S
C5032 H5027 0.949 . S
C5032 C5038 1.368 . S
C5033 C5017 1.349 . S
C5033 H5025 0.950 . S
C5033 C5031 1.327 . S
C5034 C5022 1.349 . S
C5034 H5028 0.950 . S
C5034 C5035 1.327 . S
C5035 H5029 0.950 . S
C5035 C5034 1.327 . S
C5035 C5039 1.429 . S
C5036 C5019 1.574 . S
C5036 H5030 0.949 . S
C5036 C5040 1.368 . S
C5037 C5018 1.429 . S
C5037 C5031 1.429 . S
C5037 C5038 1.523 . S
C5038 C5019 1.368 . S
C5038 C5032 1.368 . S
C5038 C5037 1.523 . S
C5039 C5023 1.429 . S
C5039 C5035 1.429 . S
C5039 C5040 1.523 . S
C5040 C5024 1.368 . S
C5040 C5036 1.368 . S
C5040 C5039 1.523 . S
H5041 C5016 0.950 . S
H5042 C5018 0.950 . S
H5043 C5019 0.949 . S
H5044 C5021 0.950 . S
H5045 C5023 0.950 . S
C5046 C5047 1.349 . S
C5046 C5048 1.327 1_455 S
C5046 H5071 0.950 . S
C5047 C5046 1.349 . S
C5047 C5063 1.349 . S
C5048 C5046 1.327 1_655 S
C5048 C5067 1.429 . S
C5048 H5072 0.950 . S
C5049 C5066 1.574 . S
C5049 C5068 1.368 . S
C5049 H5073 0.949 . S
H5050 C5054 0.949 . S
C5051 C5052 1.349 . S
C5051 C5053 1.327 . S
C5051 H5074 0.950 . S
C5052 C5051 1.349 . S
C5052 C5064 1.349 . S
C5053 C5051 1.327 . S
C5053 C5069 1.429 . S
C5053 H5075 0.950 . S
C5054 H5050 0.949 . S
C5054 C5062 1.574 . S
C5054 C5070 1.368 . S
H5055 C5063 0.950 . S
H5056 C5061 0.950 . S
H5057 C5062 0.949 . S
H5058 C5064 0.950 . S
H5059 C5065 0.950 . S
H5060 C5066 0.949 . S
C5061 H5056 0.950 . S
C5061 C5063 1.327 1_655 S
C5061 C5067 1.429 . S
C5062 C5054 1.574 . S
C5062 H5057 0.949 . S
C5062 C5068 1.368 . S
C5063 C5047 1.349 . S
C5063 H5055 0.950 . S
C5063 C5061 1.327 1_455 S
C5064 C5052 1.349 . S
C5064 H5058 0.950 . S
C5064 C5065 1.327 . S
C5065 H5059 0.950 . S
C5065 C5064 1.327 . S
C5065 C5069 1.429 . S
C5066 C5049 1.574 . S
C5066 H5060 0.949 . S
C5066 C5070 1.368 . S
C5067 C5048 1.429 . S
C5067 C5061 1.429 . S
C5067 C5068 1.523 . S
C5068 C5049 1.368 . S
C5068 C5062 1.368 . S
C5068 C5067 1.523 . S
C5069 C5053 1.429 . S
C5069 C5065 1.429 . S
C5069 C5070 1.523 . S
C5070 C5054 1.368 . S
C5070 C5066 1.368 . S
C5070 C5069 1.523 . S
H5071 C5046 0.950 . S
H5072 C5048 0.950 . S
H5073 C5049 0.949 . S
H5074 C5051 0.950 . S
H5075 C5053 0.950 . S
C5076 C5077 1.349 1_455 S
C5076 C5078 1.327 . S
C5076 H5101 0.950 . S
C5077 C5076 1.349 1_655 S
C5077 C5093 1.349 . S
C5078 C5076 1.327 . S
C5078 C5097 1.429 1_455 S
C5078 H5102 0.950 . S
C5079 C5096 1.575 . S
C5079 C5098 1.368 1_655 S
C5079 H5103 0.949 . S
H5080 C5084 0.949 . S
C5081 C5082 1.349 . S
C5081 C5083 1.327 . S
C5081 H5104 0.950 . S
C5082 C5081 1.349 . S
C5082 C5094 1.349 . S
C5083 C5081 1.327 . S
C5083 C5099 1.429 . S
C5083 H5105 0.977 . S
C5084 H5080 0.949 . S
C5084 C5092 1.574 . S
C5084 C5100 1.368 . S
H5085 C5093 0.950 . S
H5086 C5091 0.950 . S
H5087 C5092 0.949 . S
H5088 C5094 0.950 . S
H5089 C5095 0.950 . S
H5090 C5096 0.950 . S
C5091 H5086 0.950 . S
C5091 C5093 1.327 . S
C5091 C5097 1.426 . S
C5092 C5084 1.574 . S
C5092 H5087 0.949 . S
C5092 C5098 1.368 . S
C5093 C5077 1.349 . S
C5093 H5085 0.950 . S
C5093 C5091 1.327 . S
C5094 C5082 1.349 . S
C5094 H5088 0.950 . S
C5094 C5095 1.327 . S
C5095 H5089 0.950 . S
C5095 C5094 1.327 . S
C5095 C5099 1.429 . S
C5096 C5079 1.575 . S
C5096 H5090 0.950 . S
C5096 C5100 1.366 1_655 S
C5097 C5078 1.429 1_655 S
C5097 C5091 1.426 . S
C5097 C5098 1.524 1_655 S
C5098 C5079 1.368 1_455 S
C5098 C5092 1.368 . S
C5098 C5097 1.524 1_455 S
C5099 C5083 1.429 . S
C5099 C5095 1.429 . S
C5099 C5100 1.523 . S
C5100 C5084 1.368 . S
C5100 C5096 1.366 1_455 S
C5100 C5099 1.523 . S
H5101 C5076 0.950 . S
H5102 C5078 0.950 . S
H5103 C5079 0.949 . S
H5104 C5081 0.950 . S
H5105 C5083 0.977 . S
C5106 C5107 1.349 . S
C5106 C5108 1.327 . S
C5106 H5131 0.950 . S
C5107 C5106 1.349 . S
C5107 C5123 1.349 . S
C5108 C5106 1.327 . S
C5108 C5127 1.429 . S
C5108 H5132 0.950 . S
C5109 C5126 1.574 . S
C5109 C5128 1.368 . S
C5109 H5133 0.949 . S
H5110 C5114 0.949 . S
C5111 C5112 1.349 . S
C5111 C5113 1.327 . S
C5111 H5134 0.950 . S
C5112 C5111 1.349 . S
C5112 C5124 1.349 . S
C5113 C5111 1.327 . S
C5113 C5129 1.429 . S
C5113 H5135 0.950 . S
C5114 H5110 0.949 . S
C5114 C5122 1.574 . S
C5114 C5130 1.368 . S
H5115 C5123 0.950 . S
H5116 C5121 0.950 . S
H5117 C5122 0.949 . S
H5118 C5124 0.950 . S
H5119 C5125 0.950 . S
H5120 C5126 0.949 . S
C5121 H5116 0.950 . S
C5121 C5123 1.327 . S
C5121 C5127 1.429 . S
C5122 C5114 1.574 . S
C5122 H5117 0.949 . S
C5122 C5128 1.368 . S
C5123 C5107 1.349 . S
C5123 H5115 0.950 . S
C5123 C5121 1.327 . S
C5124 C5112 1.349 . S
C5124 H5118 0.950 . S
C5124 C5125 1.327 . S
C5125 H5119 0.950 . S
C5125 C5124 1.327 . S
C5125 C5129 1.429 . S
C5126 C5109 1.574 . S
C5126 H5120 0.949 . S
C5126 C5130 1.368 . S
C5127 C5108 1.429 . S
C5127 C5121 1.429 . S
C5127 C5128 1.523 . S
C5128 C5109 1.368 . S
C5128 C5122 1.368 . S
C5128 C5127 1.523 . S
C5129 C5113 1.429 . S
C5129 C5125 1.429 . S
C5129 C5130 1.523 . S
C5130 C5114 1.368 . S
C5130 C5126 1.368 . S
C5130 C5129 1.523 . S
H5131 C5106 0.950 . S
H5132 C5108 0.950 . S
H5133 C5109 0.949 . S
H5134 C5111 0.950 . S
H5135 C5113 0.950 . S
C5136 C5137 1.349 . S
C5136 C5138 1.327 . S
C5136 H5161 0.950 . S
C5137 C5136 1.349 . S
C5137 C5153 1.349 . S
C5138 C5136 1.327 . S
C5138 C5157 1.429 . S
C5138 H5162 0.950 . S
C5139 C5156 1.574 . S
C5139 C5158 1.368 . S
C5139 H5163 0.949 . S
H5140 C5144 0.949 . S
C5141 C5142 1.349 . S
C5141 C5143 1.327 . S
C5141 H5164 0.950 . S
C5142 C5141 1.349 . S
C5142 C5154 1.349 . S
C5143 C5141 1.327 . S
C5143 C5159 1.429 . S
C5143 H5165 0.950 . S
C5144 H5140 0.949 . S
C5144 C5152 1.574 . S
C5144 C5160 1.368 . S
H5145 C5153 0.950 . S
H5146 C5151 0.950 . S
H5147 C5152 0.949 . S
H5148 C5154 0.950 . S
H5149 C5155 0.950 . S
H5150 C5156 0.949 . S
C5151 H5146 0.950 . S
C5151 C5153 1.327 . S
C5151 C5157 1.429 . S
C5152 C5144 1.574 . S
C5152 H5147 0.949 . S
C5152 C5158 1.368 . S
C5153 C5137 1.349 . S
C5153 H5145 0.950 . S
C5153 C5151 1.327 . S
C5154 C5142 1.349 . S
C5154 H5148 0.950 . S
C5154 C5155 1.327 . S
C5155 H5149 0.950 . S
C5155 C5154 1.327 . S
C5155 C5159 1.429 . S
C5156 C5139 1.574 . S
C5156 H5150 0.949 . S
C5156 C5160 1.368 . S
C5157 C5138 1.429 . S
C5157 C5151 1.429 . S
C5157 C5158 1.523 . S
C5158 C5139 1.368 . S
C5158 C5152 1.368 . S
C5158 C5157 1.523 . S
C5159 C5143 1.429 . S
C5159 C5155 1.429 . S
C5159 C5160 1.523 . S
C5160 C5144 1.368 . S
C5160 C5156 1.368 . S
C5160 C5159 1.523 . S
H5161 C5136 0.950 . S
H5162 C5138 0.950 . S
H5163 C5139 0.949 . S
H5164 C5141 0.950 . S
H5165 C5143 0.950 . S
C5166 C5167 1.349 . S
C5166 C5168 1.327 . S
C5166 H5191 0.950 . S
C5167 C5166 1.349 . S
C5167 C5183 1.349 . S
C5168 C5166 1.327 . S
C5168 C5187 1.429 . S
C5168 H5192 0.950 . S
C5169 C5186 1.574 . S
C5169 C5188 1.368 . S
C5169 H5193 0.949 . S
H5170 C5174 0.949 . S
C5171 C5172 1.349 . S
C5171 C5173 1.327 . S
C5171 H5194 0.950 . S
C5172 C5171 1.349 . S
C5172 C5184 1.349 . S
C5173 C5171 1.327 . S
C5173 C5189 1.429 . S
C5173 H5195 0.950 . S
C5174 H5170 0.949 . S
C5174 C5182 1.574 . S
C5174 C5190 1.368 . S
H5175 C5183 0.950 . S
H5176 C5181 0.950 . S
H5177 C5182 0.949 . S
H5178 C5184 0.950 . S
H5179 C5185 0.950 . S
H5180 C5186 0.949 . S
C5181 H5176 0.950 . S
C5181 C5183 1.327 . S
C5181 C5187 1.429 . S
C5182 C5174 1.574 . S
C5182 H5177 0.949 . S
C5182 C5188 1.368 . S
C5183 C5167 1.349 . S
C5183 H5175 0.950 . S
C5183 C5181 1.327 . S
C5184 C5172 1.349 . S
C5184 H5178 0.950 . S
C5184 C5185 1.327 . S
C5185 H5179 0.950 . S
C5185 C5184 1.327 . S
C5185 C5189 1.429 . S
C5186 C5169 1.574 . S
C5186 H5180 0.949 . S
C5186 C5190 1.368 . S
C5187 C5168 1.429 . S
C5187 C5181 1.429 . S
C5187 C5188 1.523 . S
C5188 C5169 1.368 . S
C5188 C5182 1.368 . S
C5188 C5187 1.523 . S
C5189 C5173 1.429 . S
C5189 C5185 1.429 . S
C5189 C5190 1.523 . S
C5190 C5174 1.368 . S
C5190 C5186 1.368 . S
C5190 C5189 1.523 . S
H5191 C5166 0.950 . S
H5192 C5168 0.950 . S
H5193 C5169 0.949 . S
H5194 C5171 0.950 . S
H5195 C5173 0.950 . S
C5196 C5197 1.349 . S
C5196 C5198 1.327 . S
C5196 H5221 0.950 . S
C5197 C5196 1.349 . S
C5197 C5213 1.349 . S
C5198 C5196 1.327 . S
C5198 C5217 1.429 . S
C5198 H5222 0.950 . S
C5199 C5216 1.574 . S
C5199 C5218 1.368 . S
C5199 H5223 0.949 . S
H5200 C5204 0.949 . S
C5201 C5202 1.349 . S
C5201 C5203 1.327 . S
C5201 H5224 0.950 . S
C5202 C5201 1.349 . S
C5202 C5214 1.349 . S
C5203 C5201 1.327 . S
C5203 C5219 1.429 . S
C5203 H5225 0.950 . S
C5204 H5200 0.949 . S
C5204 C5212 1.574 . S
C5204 C5220 1.368 . S
H5205 C5213 0.950 . S
H5206 C5211 0.950 . S
H5207 C5212 0.949 . S
H5208 C5214 0.950 . S
H5209 C5215 0.950 . S
H5210 C5216 0.949 . S
C5211 H5206 0.950 . S
C5211 C5213 1.327 . S
C5211 C5217 1.429 . S
C5212 C5204 1.574 . S
C5212 H5207 0.949 . S
C5212 C5218 1.368 . S
C5213 C5197 1.349 . S
C5213 H5205 0.950 . S
C5213 C5211 1.327 . S
C5214 C5202 1.349 . S
C5214 H5208 0.950 . S
C5214 C5215 1.327 . S
C5215 H5209 0.950 . S
C5215 C5214 1.327 . S
C5215 C5219 1.429 . S
C5216 C5199 1.574 . S
C5216 H5210 0.949 . S
C5216 C5220 1.368 . S
C5217 C5198 1.429 . S
C5217 C5211 1.429 . S
C5217 C5218 1.523 . S
C5218 C5199 1.368 . S
C5218 C5212 1.368 . S
C5218 C5217 1.523 . S
C5219 C5203 1.429 . S
C5219 C5215 1.429 . S
C5219 C5220 1.523 . S
C5220 C5204 1.368 . S
C5220 C5216 1.368 . S
C5220 C5219 1.523 . S
H5221 C5196 0.950 . S
H5222 C5198 0.950 . S
H5223 C5199 0.949 . S
H5224 C5201 0.950 . S
H5225 C5203 0.950 . S
C5226 C5227 1.349 . S
C5226 C5228 1.327 . S
C5226 H5251 0.950 . S
C5227 C5226 1.349 . S
C5227 C5243 1.349 . S
C5228 C5226 1.327 . S
C5228 C5247 1.429 . S
C5228 H5252 0.950 . S
C5229 C5246 1.574 . S
C5229 C5248 1.368 . S
C5229 H5253 0.949 . S
H5230 C5234 0.949 . S
C5231 C5232 1.349 . S
C5231 C5233 1.327 . S
C5231 H5254 0.950 . S
C5232 C5231 1.349 . S
C5232 C5244 1.349 . S
C5233 C5231 1.327 . S
C5233 C5249 1.429 . S
C5233 H5255 0.950 . S
C5234 H5230 0.949 . S
C5234 C5242 1.574 . S
C5234 C5250 1.368 . S
H5235 C5243 0.950 . S
H5236 C5241 0.950 . S
H5237 C5242 0.949 . S
H5238 C5244 0.950 . S
H5239 C5245 0.950 . S
H5240 C5246 0.949 . S
C5241 H5236 0.950 . S
C5241 C5243 1.327 . S
C5241 C5247 1.429 . S
C5242 C5234 1.574 . S
C5242 H5237 0.949 . S
C5242 C5248 1.368 . S
C5243 C5227 1.349 . S
C5243 H5235 0.950 . S
C5243 C5241 1.327 . S
C5244 C5232 1.349 . S
C5244 H5238 0.950 . S
C5244 C5245 1.327 . S
C5245 H5239 0.950 . S
C5245 C5244 1.327 . S
C5245 C5249 1.429 . S
C5246 C5229 1.574 . S
C5246 H5240 0.949 . S
C5246 C5250 1.368 . S
C5247 C5228 1.429 . S
C5247 C5241 1.429 . S
C5247 C5248 1.523 . S
C5248 C5229 1.368 . S
C5248 C5242 1.368 . S
C5248 C5247 1.523 . S
C5249 C5233 1.429 . S
C5249 C5245 1.429 . S
C5249 C5250 1.523 . S
C5250 C5234 1.368 . S
C5250 C5246 1.368 . S
C5250 C5249 1.523 . S
H5251 C5226 0.950 . S
H5252 C5228 0.950 . S
H5253 C5229 0.949 . S
H5254 C5231 0.950 . S
H5255 C5233 0.950 . S
C5256 C5257 1.349 . S
C5256 C5258 1.327 . S
C5256 H5281 0.950 . S
C5257 C5256 1.349 . S
C5257 C5273 1.349 . S
C5258 C5256 1.327 . S
C5258 C5277 1.429 . S
C5258 H5282 0.950 . S
C5259 C5276 1.574 . S
C5259 C5278 1.368 . S
C5259 H5283 0.949 . S
H5260 C5264 0.949 . S
C5261 C5262 1.349 . S
C5261 C5263 1.327 . S
C5261 H5284 0.950 . S
C5262 C5261 1.349 . S
C5262 C5274 1.349 . S
C5263 C5261 1.327 . S
C5263 C5279 1.429 . S
C5263 H5285 0.950 . S
C5264 H5260 0.949 . S
C5264 C5272 1.574 . S
C5264 C5280 1.368 . S
H5265 C5273 0.950 . S
H5266 C5271 0.950 . S
H5267 C5272 0.949 . S
H5268 C5274 0.950 . S
H5269 C5275 0.950 . S
H5270 C5276 0.949 . S
C5271 H5266 0.950 . S
C5271 C5273 1.327 . S
C5271 C5277 1.429 . S
C5272 C5264 1.574 . S
C5272 H5267 0.949 . S
C5272 C5278 1.368 . S
C5273 C5257 1.349 . S
C5273 H5265 0.950 . S
C5273 C5271 1.327 . S
C5274 C5262 1.349 . S
C5274 H5268 0.950 . S
C5274 C5275 1.327 . S
C5275 H5269 0.950 . S
C5275 C5274 1.327 . S
C5275 C5279 1.429 . S
C5276 C5259 1.574 . S
C5276 H5270 0.949 . S
C5276 C5280 1.368 . S
C5277 C5258 1.429 . S
C5277 C5271 1.429 . S
C5277 C5278 1.523 . S
C5278 C5259 1.368 . S
C5278 C5272 1.368 . S
C5278 C5277 1.523 . S
C5279 C5263 1.429 . S
C5279 C5275 1.429 . S
C5279 C5280 1.523 . S
C5280 C5264 1.368 . S
C5280 C5276 1.368 . S
C5280 C5279 1.523 . S
H5281 C5256 0.950 . S
H5282 C5258 0.950 . S
H5283 C5259 0.949 . S
H5284 C5261 0.950 . S
H5285 C5263 0.950 . S
C5286 C5287 1.349 . S
C5286 C5288 1.327 . S
C5286 H5311 0.950 . S
C5287 C5286 1.349 . S
C5287 C5303 1.349 . S
C5288 C5286 1.327 . S
C5288 C5307 1.429 . S
C5288 H5312 0.950 . S
C5289 C5306 1.574 . S
C5289 C5308 1.368 . S
C5289 H5313 0.949 . S
H5290 C5294 0.949 . S
C5291 C5292 1.349 . S
C5291 C5293 1.327 . S
C5291 H5314 0.950 . S
C5292 C5291 1.349 . S
C5292 C5304 1.349 . S
C5293 C5291 1.327 . S
C5293 C5309 1.429 . S
C5293 H5315 0.950 . S
C5294 H5290 0.949 . S
C5294 C5302 1.574 . S
C5294 C5310 1.368 . S
H5295 C5303 0.950 . S
H5296 C5301 0.950 . S
H5297 C5302 0.949 . S
H5298 C5304 0.950 . S
H5299 C5305 0.950 . S
H5300 C5306 0.949 . S
C5301 H5296 0.950 . S
C5301 C5303 1.327 . S
C5301 C5307 1.429 . S
C5302 C5294 1.574 . S
C5302 H5297 0.949 . S
C5302 C5308 1.368 . S
C5303 C5287 1.349 . S
C5303 H5295 0.950 . S
C5303 C5301 1.327 . S
C5304 C5292 1.349 . S
C5304 H5298 0.950 . S
C5304 C5305 1.327 . S
C5305 H5299 0.950 . S
C5305 C5304 1.327 . S
C5305 C5309 1.429 . S
C5306 C5289 1.574 . S
C5306 H5300 0.949 . S
C5306 C5310 1.368 . S
C5307 C5288 1.429 . S
C5307 C5301 1.429 . S
C5307 C5308 1.523 . S
C5308 C5289 1.368 . S
C5308 C5302 1.368 . S
C5308 C5307 1.523 . S
C5309 C5293 1.429 . S
C5309 C5305 1.429 . S
C5309 C5310 1.523 . S
C5310 C5294 1.368 . S
C5310 C5306 1.368 . S
C5310 C5309 1.523 . S
H5311 C5286 0.950 . S
H5312 C5288 0.950 . S
H5313 C5289 0.949 . S
H5314 C5291 0.950 . S
H5315 C5293 0.950 . S
C5316 C5317 1.349 . S
C5316 C5318 1.327 . S
C5316 H5341 0.950 . S
C5317 C5316 1.349 . S
C5317 C5333 1.349 . S
C5318 C5316 1.327 . S
C5318 C5337 1.429 . S
C5318 H5342 0.950 . S
C5319 C5336 1.574 . S
C5319 C5338 1.368 . S
C5319 H5343 0.949 . S
H5320 C5324 0.949 . S
C5321 C5322 1.349 . S
C5321 C5323 1.327 . S
C5321 H5344 0.950 . S
C5322 C5321 1.349 . S
C5322 C5334 1.349 . S
C5323 C5321 1.327 . S
C5323 C5339 1.429 . S
C5323 H5345 0.950 . S
C5324 H5320 0.949 . S
C5324 C5332 1.574 . S
C5324 C5340 1.368 . S
H5325 C5333 0.950 . S
H5326 C5331 0.950 . S
H5327 C5332 0.949 . S
H5328 C5334 0.950 . S
H5329 C5335 0.950 . S
H5330 C5336 0.949 . S
C5331 H5326 0.950 . S
C5331 C5333 1.327 . S
C5331 C5337 1.429 . S
C5332 C5324 1.574 . S
C5332 H5327 0.949 . S
C5332 C5338 1.368 . S
C5333 C5317 1.349 . S
C5333 H5325 0.950 . S
C5333 C5331 1.327 . S
C5334 C5322 1.349 . S
C5334 H5328 0.950 . S
C5334 C5335 1.327 . S
C5335 H5329 0.950 . S
C5335 C5334 1.327 . S
C5335 C5339 1.429 . S
C5336 C5319 1.574 . S
C5336 H5330 0.949 . S
C5336 C5340 1.368 . S
C5337 C5318 1.429 . S
C5337 C5331 1.429 . S
C5337 C5338 1.523 . S
C5338 C5319 1.368 . S
C5338 C5332 1.368 . S
C5338 C5337 1.523 . S
C5339 C5323 1.429 . S
C5339 C5335 1.429 . S
C5339 C5340 1.523 . S
C5340 C5324 1.368 . S
C5340 C5336 1.368 . S
C5340 C5339 1.523 . S
H5341 C5316 0.950 . S
H5342 C5318 0.950 . S
H5343 C5319 0.949 . S
H5344 C5321 0.950 . S
H5345 C5323 0.950 . S
C5346 C5347 1.349 . S
C5346 C5348 1.327 . S
C5346 H5371 0.950 . S
C5347 C5346 1.349 . S
C5347 C5363 1.349 . S
C5348 C5346 1.327 . S
C5348 C5367 1.429 . S
C5348 H5372 0.950 . S
C5349 C5366 1.574 . S
C5349 C5368 1.368 . S
C5349 H5373 0.949 . S
H5350 C5354 0.949 . S
C5351 C5352 1.349 . S
C5351 C5353 1.327 . S
C5351 H5374 0.950 . S
C5352 C5351 1.349 . S
C5352 C5364 1.349 . S
C5353 C5351 1.327 . S
C5353 C5369 1.429 . S
C5353 H5375 0.950 . S
C5354 H5350 0.949 . S
C5354 C5362 1.574 . S
C5354 C5370 1.368 . S
H5355 C5363 0.950 . S
H5356 C5361 0.950 . S
H5357 C5362 0.949 . S
H5358 C5364 0.950 . S
H5359 C5365 0.950 . S
H5360 C5366 0.949 . S
C5361 H5356 0.950 . S
C5361 C5363 1.327 . S
C5361 C5367 1.429 . S
C5362 C5354 1.574 . S
C5362 H5357 0.949 . S
C5362 C5368 1.368 . S
C5363 C5347 1.349 . S
C5363 H5355 0.950 . S
C5363 C5361 1.327 . S
C5364 C5352 1.349 . S
C5364 H5358 0.950 . S
C5364 C5365 1.327 . S
C5365 H5359 0.950 . S
C5365 C5364 1.327 . S
C5365 C5369 1.429 . S
C5366 C5349 1.574 . S
C5366 H5360 0.949 . S
C5366 C5370 1.368 . S
C5367 C5348 1.429 . S
C5367 C5361 1.429 . S
C5367 C5368 1.523 . S
C5368 C5349 1.368 . S
C5368 C5362 1.368 . S
C5368 C5367 1.523 . S
C5369 C5353 1.429 . S
C5369 C5365 1.429 . S
C5369 C5370 1.523 . S
C5370 C5354 1.368 . S
C5370 C5366 1.368 . S
C5370 C5369 1.523 . S
H5371 C5346 0.950 . S
H5372 C5348 0.950 . S
H5373 C5349 0.949 . S
H5374 C5351 0.950 . S
H5375 C5353 0.950 . S
C5376 C5377 1.349 . S
C5376 C5378 1.327 . S
C5376 H5401 0.950 . S
C5377 C5376 1.349 . S
C5377 C5393 1.349 . S
C5378 C5376 1.327 . S
C5378 C5397 1.429 . S
C5378 H5402 0.950 . S
C5379 C5396 1.574 . S
C5379 C5398 1.368 . S
C5379 H5403 0.949 . S
H5380 C5384 0.949 . S
C5381 C5382 1.349 . S
C5381 C5383 1.327 . S
C5381 H5404 0.950 . S
C5382 C5381 1.349 . S
C5382 C5394 1.349 . S
C5383 C5381 1.327 . S
C5383 C5399 1.429 . S
C5383 H5405 0.950 . S
C5384 H5380 0.949 . S
C5384 C5392 1.574 . S
C5384 C5400 1.368 . S
H5385 C5393 0.950 . S
H5386 C5391 0.950 . S
H5387 C5392 0.949 . S
H5388 C5394 0.950 . S
H5389 C5395 0.950 . S
H5390 C5396 0.949 . S
C5391 H5386 0.950 . S
C5391 C5393 1.327 . S
C5391 C5397 1.429 . S
C5392 C5384 1.574 . S
C5392 H5387 0.949 . S
C5392 C5398 1.368 . S
C5393 C5377 1.349 . S
C5393 H5385 0.950 . S
C5393 C5391 1.327 . S
C5394 C5382 1.349 . S
C5394 H5388 0.950 . S
C5394 C5395 1.327 . S
C5395 H5389 0.950 . S
C5395 C5394 1.327 . S
C5395 C5399 1.429 . S
C5396 C5379 1.574 . S
C5396 H5390 0.949 . S
C5396 C5400 1.368 . S
C5397 C5378 1.429 . S
C5397 C5391 1.429 . S
C5397 C5398 1.523 . S
C5398 C5379 1.368 . S
C5398 C5392 1.368 . S
C5398 C5397 1.523 . S
C5399 C5383 1.429 . S
C5399 C5395 1.429 . S
C5399 C5400 1.523 . S
C5400 C5384 1.368 . S
C5400 C5396 1.368 . S
C5400 C5399 1.523 . S
H5401 C5376 0.950 . S
H5402 C5378 0.950 . S
H5403 C5379 0.949 . S
H5404 C5381 0.950 . S
H5405 C5383 0.950 . S
C5406 C5407 1.349 . S
C5406 C5408 1.327 . S
C5406 H5431 0.950 . S
C5407 C5406 1.349 . S
C5407 C5423 1.349 . S
C5408 C5406 1.327 . S
C5408 C5427 1.429 . S
C5408 H5432 0.950 . S
C5409 C5426 1.574 . S
C5409 C5428 1.368 . S
C5409 H5433 0.949 . S
H5410 C5414 0.949 . S
C5411 C5412 1.349 . S
C5411 C5413 1.327 . S
C5411 H5434 0.950 . S
C5412 C5411 1.349 . S
C5412 C5424 1.349 . S
C5413 C5411 1.327 . S
C5413 C5429 1.429 . S
C5413 H5435 0.950 . S
C5414 H5410 0.949 . S
C5414 C5422 1.574 . S
C5414 C5430 1.368 . S
H5415 C5423 0.950 . S
H5416 C5421 0.950 . S
H5417 C5422 0.949 . S
H5418 C5424 0.950 . S
H5419 C5425 0.950 . S
H5420 C5426 0.949 . S
C5421 H5416 0.950 . S
C5421 C5423 1.327 . S
C5421 C5427 1.429 . S
C5422 C5414 1.574 . S
C5422 H5417 0.949 . S
C5422 C5428 1.368 . S
C5423 C5407 1.349 . S
C5423 H5415 0.950 . S
C5423 C5421 1.327 . S
C5424 C5412 1.349 . S
C5424 H5418 0.950 . S
C5424 C5425 1.327 . S
C5425 H5419 0.950 . S
C5425 C5424 1.327 . S
C5425 C5429 1.429 . S
C5426 C5409 1.574 . S
C5426 H5420 0.949 . S
C5426 C5430 1.368 . S
C5427 C5408 1.429 . S
C5427 C5421 1.429 . S
C5427 C5428 1.523 . S
C5428 C5409 1.368 . S
C5428 C5422 1.368 . S
C5428 C5427 1.523 . S
C5429 C5413 1.429 . S
C5429 C5425 1.429 . S
C5429 C5430 1.523 . S
C5430 C5414 1.368 . S
C5430 C5426 1.368 . S
C5430 C5429 1.523 . S
H5431 C5406 0.950 . S
H5432 C5408 0.950 . S
H5433 C5409 0.949 . S
H5434 C5411 0.950 . S
H5435 C5413 0.950 . S
C5436 C5437 1.349 . S
C5436 C5438 1.327 . S
C5436 H5461 0.950 . S
C5437 C5436 1.349 . S
C5437 C5453 1.349 . S
C5438 C5436 1.327 . S
C5438 C5457 1.429 . S
C5438 H5462 0.950 . S
C5439 C5456 1.574 . S
C5439 C5458 1.368 . S
C5439 H5463 0.949 . S
H5440 C5444 0.949 . S
C5441 C5442 1.349 . S
C5441 C5443 1.327 . S
C5441 H5464 0.950 . S
C5442 C5441 1.349 . S
C5442 C5454 1.349 . S
C5443 C5441 1.327 . S
C5443 C5459 1.429 . S
C5443 H5465 0.950 . S
C5444 H5440 0.949 . S
C5444 C5452 1.574 . S
C5444 C5460 1.368 . S
H5445 C5453 0.950 . S
H5446 C5451 0.950 . S
H5447 C5452 0.949 . S
H5448 C5454 0.950 . S
H5449 C5455 0.950 . S
H5450 C5456 0.949 . S
C5451 H5446 0.950 . S
C5451 C5453 1.327 . S
C5451 C5457 1.429 . S
C5452 C5444 1.574 . S
C5452 H5447 0.949 . S
C5452 C5458 1.368 . S
C5453 C5437 1.349 . S
C5453 H5445 0.950 . S
C5453 C5451 1.327 . S
C5454 C5442 1.349 . S
C5454 H5448 0.950 . S
C5454 C5455 1.327 . S
C5455 H5449 0.950 . S
C5455 C5454 1.327 . S
C5455 C5459 1.429 . S
C5456 C5439 1.574 . S
C5456 H5450 0.949 . S
C5456 C5460 1.368 . S
C5457 C5438 1.429 . S
C5457 C5451 1.429 . S
C5457 C5458 1.523 . S
C5458 C5439 1.368 . S
C5458 C5452 1.368 . S
C5458 C5457 1.523 . S
C5459 C5443 1.429 . S
C5459 C5455 1.429 . S
C5459 C5460 1.523 . S
C5460 C5444 1.368 . S
C5460 C5456 1.368 . S
C5460 C5459 1.523 . S
H5461 C5436 0.950 . S
H5462 C5438 0.950 . S
H5463 C5439 0.949 . S
H5464 C5441 0.950 . S
H5465 C5443 0.950 . S
C5466 C5467 1.349 . S
C5466 C5468 1.327 . S
C5466 H5491 0.950 . S
C5467 C5466 1.349 . S
C5467 C5483 1.349 . S
C5468 C5466 1.327 . S
C5468 C5487 1.429 . S
C5468 H5492 0.950 . S
C5469 C5486 1.571 1_565 S
C5469 C5488 1.366 . S
C5469 H5493 0.954 . S
H5470 C5474 0.949 1_556 S
C5471 C5472 1.349 . S
C5471 C5473 1.327 . S
C5471 H5494 0.950 . S
C5472 C5471 1.349 . S
C5472 C5484 1.349 . S
C5473 C5471 1.327 . S
C5473 C5489 1.429 . S
C5473 H5495 0.950 . S
C5474 H5470 0.949 1_554 S
C5474 C5482 1.567 1_545 S
C5474 C5490 1.368 . S
H5475 C5483 0.950 . S
H5476 C5481 0.950 . S
H5477 C5482 0.938 1_556 S
H5478 C5484 0.950 1_556 S
H5479 C5485 0.950 1_556 S
H5480 C5486 0.949 . S
C5481 H5476 0.950 . S
C5481 C5483 1.327 . S
C5481 C5487 1.429 . S
C5482 C5474 1.567 1_565 S
C5482 H5477 0.938 1_554 S
C5482 C5488 1.380 . S
C5483 C5467 1.349 . S
C5483 H5475 0.950 . S
C5483 C5481 1.327 . S
C5484 C5472 1.349 . S
C5484 H5478 0.950 1_554 S
C5484 C5485 1.327 . S
C5485 H5479 0.950 1_554 S
C5485 C5484 1.327 . S
C5485 C5489 1.429 . S
C5486 C5469 1.571 1_545 S
C5486 H5480 0.949 . S
C5486 C5490 1.368 . S
C5487 C5468 1.429 . S
C5487 C5481 1.429 . S
C5487 C5488 1.523 . S
C5488 C5469 1.366 . S
C5488 C5482 1.380 . S
C5488 C5487 1.523 . S
C5489 C5473 1.429 . S
C5489 C5485 1.429 . S
C5489 C5490 1.523 . S
C5490 C5474 1.368 . S
C5490 C5486 1.368 . S
C5490 C5489 1.523 . S
H5491 C5466 0.950 . S
H5492 C5468 0.950 . S
H5493 C5469 0.954 . S
H5494 C5471 0.950 . S
H5495 C5473 0.950 . S
C5496 C5497 1.349 . S
C5496 C5498 1.327 . S
C5496 H5521 0.950 . S
C5497 C5496 1.349 . S
C5497 C5513 1.349 . S
C5498 C5496 1.327 . S
C5498 C5517 1.429 . S
C5498 H5522 0.950 . S
C5499 C5516 1.574 . S
C5499 C5518 1.368 . S
C5499 H5523 0.949 . S
H5500 C5504 0.949 . S
C5501 C5502 1.349 . S
C5501 C5503 1.327 . S
C5501 H5524 0.950 . S
C5502 C5501 1.349 . S
C5502 C5514 1.349 . S
C5503 C5501 1.327 . S
C5503 C5519 1.429 . S
C5503 H5525 0.950 . S
C5504 H5500 0.949 . S
C5504 C5512 1.574 . S
C5504 C5520 1.368 . S
H5505 C5513 0.950 . S
H5506 C5511 0.950 . S
H5507 C5512 0.949 . S
H5508 C5514 0.950 . S
H5509 C5515 0.950 . S
H5510 C5516 0.949 . S
C5511 H5506 0.950 . S
C5511 C5513 1.327 . S
C5511 C5517 1.429 . S
C5512 C5504 1.574 . S
C5512 H5507 0.949 . S
C5512 C5518 1.368 . S
C5513 C5497 1.349 . S
C5513 H5505 0.950 . S
C5513 C5511 1.327 . S
C5514 C5502 1.349 . S
C5514 H5508 0.950 . S
C5514 C5515 1.327 . S
C5515 H5509 0.950 . S
C5515 C5514 1.327 . S
C5515 C5519 1.429 . S
C5516 C5499 1.574 . S
C5516 H5510 0.949 . S
C5516 C5520 1.368 . S
C5517 C5498 1.429 . S
C5517 C5511 1.429 . S
C5517 C5518 1.523 . S
C5518 C5499 1.368 . S
C5518 C5512 1.368 . S
C5518 C5517 1.523 . S
C5519 C5503 1.429 . S
C5519 C5515 1.429 . S
C5519 C5520 1.523 . S
C5520 C5504 1.368 . S
C5520 C5516 1.368 . S
C5520 C5519 1.523 . S
H5521 C5496 0.950 . S
H5522 C5498 0.950 . S
H5523 C5499 0.949 . S
H5524 C5501 0.950 . S
H5525 C5503 0.950 . S
C5526 C5527 1.349 1_554 S
C5526 C5528 1.327 . S
C5526 H5551 0.950 . S
C5527 C5526 1.349 1_556 S
C5527 C5543 1.349 . S
C5528 C5526 1.327 . S
C5528 C5547 1.429 . S
C5528 H5552 0.950 . S
C5529 C5546 1.574 1_556 S
C5529 C5548 1.368 1_556 S
C5529 H5553 0.949 . S
H5530 C5534 0.949 . S
C5531 C5532 1.349 . S
C5531 C5533 1.327 . S
C5531 H5554 0.950 . S
C5532 C5531 1.349 . S
C5532 C5544 1.349 . S
C5533 C5531 1.327 . S
C5533 C5549 1.429 . S
C5533 H5555 0.927 1_554 S
C5534 H5530 0.949 . S
C5534 C5542 1.574 . S
C5534 C5550 1.368 . S
H5535 C5543 0.950 . S
H5536 C5541 0.950 . S
H5537 C5542 0.949 . S
H5538 C5544 0.950 . S
H5539 C5545 0.950 . S
H5540 C5546 0.949 1_556 S
C5541 H5536 0.950 . S
C5541 C5543 1.327 . S
C5541 C5547 1.429 1_556 S
C5542 C5534 1.574 . S
C5542 H5537 0.949 . S
C5542 C5548 1.368 . S
C5543 C5527 1.349 . S
C5543 H5535 0.950 . S
C5543 C5541 1.327 . S
C5544 C5532 1.349 . S
C5544 H5538 0.950 . S
C5544 C5545 1.327 . S
C5545 H5539 0.950 . S
C5545 C5544 1.327 . S
C5545 C5549 1.429 . S
C5546 C5529 1.574 1_554 S
C5546 H5540 0.949 1_554 S
C5546 C5550 1.368 . S
C5547 C5528 1.429 . S
C5547 C5541 1.429 1_554 S
C5547 C5548 1.523 . S
C5548 C5529 1.368 1_554 S
C5548 C5542 1.368 . S
C5548 C5547 1.523 . S
C5549 C5533 1.429 . S
C5549 C5545 1.429 . S
C5549 C5550 1.523 . S
C5550 C5534 1.368 . S
C5550 C5546 1.368 . S
C5550 C5549 1.523 . S
H5551 C5526 0.950 . S
H5552 C5528 0.950 . S
H5553 C5529 0.949 . S
H5554 C5531 0.950 . S
H5555 C5533 0.927 1_556 S
C5556 C5557 1.349 . S
C5556 C5558 1.327 . S
C5556 H5581 0.950 . S
C5557 C5556 1.349 . S
C5557 C5573 1.349 . S
C5558 C5556 1.327 . S
C5558 C5577 1.429 . S
C5558 H5582 0.950 . S
C5559 C5576 1.574 . S
C5559 C5578 1.368 . S
C5559 H5583 0.949 . S
H5560 C5564 0.949 . S
C5561 C5562 1.349 . S
C5561 C5563 1.327 . S
C5561 H5584 0.950 . S
C5562 C5561 1.349 . S
C5562 C5574 1.349 . S
C5563 C5561 1.327 . S
C5563 C5579 1.429 . S
C5563 H5585 0.950 . S
C5564 H5560 0.949 . S
C5564 C5572 1.574 . S
C5564 C5580 1.368 . S
H5565 C5573 0.950 . S
H5566 C5571 0.950 . S
H5567 C5572 0.949 . S
H5568 C5574 0.950 . S
H5569 C5575 0.950 . S
H5570 C5576 0.949 . S
C5571 H5566 0.950 . S
C5571 C5573 1.327 . S
C5571 C5577 1.429 . S
C5572 C5564 1.574 . S
C5572 H5567 0.949 . S
C5572 C5578 1.368 . S
C5573 C5557 1.349 . S
C5573 H5565 0.950 . S
C5573 C5571 1.327 . S
C5574 C5562 1.349 . S
C5574 H5568 0.950 . S
C5574 C5575 1.327 . S
C5575 H5569 0.950 . S
C5575 C5574 1.327 . S
C5575 C5579 1.429 . S
C5576 C5559 1.574 . S
C5576 H5570 0.949 . S
C5576 C5580 1.368 . S
C5577 C5558 1.429 . S
C5577 C5571 1.429 . S
C5577 C5578 1.523 . S
C5578 C5559 1.368 . S
C5578 C5572 1.368 . S
C5578 C5577 1.523 . S
C5579 C5563 1.429 . S
C5579 C5575 1.429 . S
C5579 C5580 1.523 . S
C5580 C5564 1.368 . S
C5580 C5576 1.368 . S
C5580 C5579 1.523 . S
H5581 C5556 0.950 . S
H5582 C5558 0.950 . S
H5583 C5559 0.949 . S
H5584 C5561 0.950 . S
H5585 C5563 0.950 . S
C5586 C5587 1.349 . S
C5586 C5588 1.327 . S
C5586 H5611 0.950 . S
C5587 C5586 1.349 . S
C5587 C5603 1.349 . S
C5588 C5586 1.327 . S
C5588 C5607 1.429 . S
C5588 H5612 0.950 . S
C5589 C5606 1.574 . S
C5589 C5608 1.368 . S
C5589 H5613 0.949 . S
H5590 C5594 0.949 . S
C5591 C5592 1.349 . S
C5591 C5593 1.327 . S
C5591 H5614 0.950 . S
C5592 C5591 1.349 . S
C5592 C5604 1.349 . S
C5593 C5591 1.327 . S
C5593 C5609 1.429 . S
C5593 H5615 0.950 . S
C5594 H5590 0.949 . S
C5594 C5602 1.574 . S
C5594 C5610 1.368 . S
H5595 C5603 0.950 . S
H5596 C5601 0.950 . S
H5597 C5602 0.949 . S
H5598 C5604 0.950 . S
H5599 C5605 0.950 . S
H5600 C5606 0.949 . S
C5601 H5596 0.950 . S
C5601 C5603 1.327 . S
C5601 C5607 1.429 . S
C5602 C5594 1.574 . S
C5602 H5597 0.949 . S
C5602 C5608 1.368 . S
C5603 C5587 1.349 . S
C5603 H5595 0.950 . S
C5603 C5601 1.327 . S
C5604 C5592 1.349 . S
C5604 H5598 0.950 . S
C5604 C5605 1.327 . S
C5605 H5599 0.950 . S
C5605 C5604 1.327 . S
C5605 C5609 1.429 . S
C5606 C5589 1.574 . S
C5606 H5600 0.949 . S
C5606 C5610 1.368 . S
C5607 C5588 1.429 . S
C5607 C5601 1.429 . S
C5607 C5608 1.523 . S
C5608 C5589 1.368 . S
C5608 C5602 1.368 . S
C5608 C5607 1.523 . S
C5609 C5593 1.429 . S
C5609 C5605 1.429 . S
C5609 C5610 1.523 . S
C5610 C5594 1.368 . S
C5610 C5606 1.368 . S
C5610 C5609 1.523 . S
H5611 C5586 0.950 . S
H5612 C5588 0.950 . S
H5613 C5589 0.949 . S
H5614 C5591 0.950 . S
H5615 C5593 0.950 . S
C5616 C5617 1.349 . S
C5616 C5618 1.327 . S
C5616 H5641 0.950 . S
C5617 C5616 1.349 . S
C5617 C5633 1.349 . S
C5618 C5616 1.327 . S
C5618 C5637 1.429 . S
C5618 H5642 0.950 . S
C5619 C5636 1.574 . S
C5619 C5638 1.368 . S
C5619 H5643 0.949 . S
H5620 C5624 0.949 . S
C5621 C5622 1.349 . S
C5621 C5623 1.327 . S
C5621 H5644 0.950 . S
C5622 C5621 1.349 . S
C5622 C5634 1.349 . S
C5623 C5621 1.327 . S
C5623 C5639 1.429 . S
C5623 H5645 0.950 . S
C5624 H5620 0.949 . S
C5624 C5632 1.574 . S
C5624 C5640 1.368 . S
H5625 C5633 0.950 . S
H5626 C5631 0.950 . S
H5627 C5632 0.949 . S
H5628 C5634 0.950 . S
H5629 C5635 0.950 . S
H5630 C5636 0.949 . S
C5631 H5626 0.950 . S
C5631 C5633 1.327 . S
C5631 C5637 1.429 . S
C5632 C5624 1.574 . S
C5632 H5627 0.949 . S
C5632 C5638 1.368 . S
C5633 C5617 1.349 . S
C5633 H5625 0.950 . S
C5633 C5631 1.327 . S
C5634 C5622 1.349 . S
C5634 H5628 0.950 . S
C5634 C5635 1.327 . S
C5635 H5629 0.950 . S
C5635 C5634 1.327 . S
C5635 C5639 1.429 . S
C5636 C5619 1.574 . S
C5636 H5630 0.949 . S
C5636 C5640 1.368 . S
C5637 C5618 1.429 . S
C5637 C5631 1.429 . S
C5637 C5638 1.523 . S
C5638 C5619 1.368 . S
C5638 C5632 1.368 . S
C5638 C5637 1.523 . S
C5639 C5623 1.429 . S
C5639 C5635 1.429 . S
C5639 C5640 1.523 . S
C5640 C5624 1.368 . S
C5640 C5636 1.368 . S
C5640 C5639 1.523 . S
H5641 C5616 0.950 . S
H5642 C5618 0.950 . S
H5643 C5619 0.949 . S
H5644 C5621 0.950 . S
H5645 C5623 0.950 . S
C5646 C5647 1.349 . S
C5646 C5648 1.327 . S
C5646 H5671 0.950 . S
C5647 C5646 1.349 . S
C5647 C5663 1.349 . S
C5648 C5646 1.327 . S
C5648 C5667 1.429 . S
C5648 H5672 0.950 . S
C5649 C5666 1.574 . S
C5649 C5668 1.368 . S
C5649 H5673 0.949 . S
H5650 C5654 0.949 . S
C5651 C5652 1.349 . S
C5651 C5653 1.327 . S
C5651 H5674 0.950 . S
C5652 C5651 1.349 . S
C5652 C5664 1.349 . S
C5653 C5651 1.327 . S
C5653 C5669 1.429 . S
C5653 H5675 0.950 . S
C5654 H5650 0.949 . S
C5654 C5662 1.574 . S
C5654 C5670 1.368 . S
H5655 C5663 0.950 . S
H5656 C5661 0.950 . S
H5657 C5662 0.949 . S
H5658 C5664 0.950 . S
H5659 C5665 0.950 . S
H5660 C5666 0.949 . S
C5661 H5656 0.950 . S
C5661 C5663 1.327 . S
C5661 C5667 1.429 . S
C5662 C5654 1.574 . S
C5662 H5657 0.949 . S
C5662 C5668 1.368 . S
C5663 C5647 1.349 . S
C5663 H5655 0.950 . S
C5663 C5661 1.327 . S
C5664 C5652 1.349 . S
C5664 H5658 0.950 . S
C5664 C5665 1.327 . S
C5665 H5659 0.950 . S
C5665 C5664 1.327 . S
C5665 C5669 1.429 . S
C5666 C5649 1.574 . S
C5666 H5660 0.949 . S
C5666 C5670 1.368 . S
C5667 C5648 1.429 . S
C5667 C5661 1.429 . S
C5667 C5668 1.523 . S
C5668 C5649 1.368 . S
C5668 C5662 1.368 . S
C5668 C5667 1.523 . S
C5669 C5653 1.429 . S
C5669 C5665 1.429 . S
C5669 C5670 1.523 . S
C5670 C5654 1.368 . S
C5670 C5666 1.368 . S
C5670 C5669 1.523 . S
H5671 C5646 0.950 . S
H5672 C5648 0.950 . S
H5673 C5649 0.949 . S
H5674 C5651 0.950 . S
H5675 C5653 0.950 . S
C5676 C5677 1.349 . S
C5676 C5678 1.327 . S
C5676 H5701 0.950 . S
C5677 C5676 1.349 . S
C5677 C5693 1.349 . S
C5678 C5676 1.327 . S
C5678 C5697 1.429 . S
C5678 H5702 0.950 . S
C5679 C5696 1.574 . S
C5679 C5698 1.368 . S
C5679 H5703 0.949 . S
H5680 C5684 0.949 . S
C5681 C5682 1.349 . S
C5681 C5683 1.327 . S
C5681 H5704 0.950 . S
C5682 C5681 1.349 . S
C5682 C5694 1.349 . S
C5683 C5681 1.327 . S
C5683 C5699 1.429 . S
C5683 H5705 0.950 . S
C5684 H5680 0.949 . S
C5684 C5692 1.574 . S
C5684 C5700 1.368 . S
H5685 C5693 0.950 . S
H5686 C5691 0.950 . S
H5687 C5692 0.949 . S
H5688 C5694 0.950 . S
H5689 C5695 0.950 . S
H5690 C5696 0.949 . S
C5691 H5686 0.950 . S
C5691 C5693 1.327 . S
C5691 C5697 1.429 . S
C5692 C5684 1.574 . S
C5692 H5687 0.949 . S
C5692 C5698 1.368 . S
C5693 C5677 1.349 . S
C5693 H5685 0.950 . S
C5693 C5691 1.327 . S
C5694 C5682 1.349 . S
C5694 H5688 0.950 . S
C5694 C5695 1.327 . S
C5695 H5689 0.950 . S
C5695 C5694 1.327 . S
C5695 C5699 1.429 . S
C5696 C5679 1.574 . S
C5696 H5690 0.949 . S
C5696 C5700 1.368 . S
C5697 C5678 1.429 . S
C5697 C5691 1.429 . S
C5697 C5698 1.523 . S
C5698 C5679 1.368 . S
C5698 C5692 1.368 . S
C5698 C5697 1.523 . S
C5699 C5683 1.429 . S
C5699 C5695 1.429 . S
C5699 C5700 1.523 . S
C5700 C5684 1.368 . S
C5700 C5696 1.368 . S
C5700 C5699 1.523 . S
H5701 C5676 0.950 . S
H5702 C5678 0.950 . S
H5703 C5679 0.949 . S
H5704 C5681 0.950 . S
H5705 C5683 0.950 . S
C5706 C5707 1.349 . S
C5706 C5708 1.327 . S
C5706 H5731 0.950 . S
C5707 C5706 1.349 . S
C5707 C5723 1.349 . S
C5708 C5706 1.327 . S
C5708 C5727 1.429 . S
C5708 H5732 0.950 . S
C5709 C5726 1.574 . S
C5709 C5728 1.368 . S
C5709 H5733 0.949 . S
H5710 C5714 0.949 . S
C5711 C5712 1.349 . S
C5711 C5713 1.327 . S
C5711 H5734 0.950 . S
C5712 C5711 1.349 . S
C5712 C5724 1.349 . S
C5713 C5711 1.327 . S
C5713 C5729 1.429 . S
C5713 H5735 0.950 . S
C5714 H5710 0.949 . S
C5714 C5722 1.574 . S
C5714 C5730 1.368 . S
H5715 C5723 0.950 . S
H5716 C5721 0.950 . S
H5717 C5722 0.949 . S
H5718 C5724 0.950 . S
H5719 C5725 0.950 . S
H5720 C5726 0.949 . S
C5721 H5716 0.950 . S
C5721 C5723 1.327 . S
C5721 C5727 1.429 . S
C5722 C5714 1.574 . S
C5722 H5717 0.949 . S
C5722 C5728 1.368 . S
C5723 C5707 1.349 . S
C5723 H5715 0.950 . S
C5723 C5721 1.327 . S
C5724 C5712 1.349 . S
C5724 H5718 0.950 . S
C5724 C5725 1.327 . S
C5725 H5719 0.950 . S
C5725 C5724 1.327 . S
C5725 C5729 1.429 . S
C5726 C5709 1.574 . S
C5726 H5720 0.949 . S
C5726 C5730 1.368 . S
C5727 C5708 1.429 . S
C5727 C5721 1.429 . S
C5727 C5728 1.523 . S
C5728 C5709 1.368 . S
C5728 C5722 1.368 . S
C5728 C5727 1.523 . S
C5729 C5713 1.429 . S
C5729 C5725 1.429 . S
C5729 C5730 1.523 . S
C5730 C5714 1.368 . S
C5730 C5726 1.368 . S
C5730 C5729 1.523 . S
H5731 C5706 0.950 . S
H5732 C5708 0.950 . S
H5733 C5709 0.949 . S
H5734 C5711 0.950 . S
H5735 C5713 0.950 . S
C5736 C5737 1.349 . S
C5736 C5738 1.327 . S
C5736 H5761 0.950 . S
C5737 C5736 1.349 . S
C5737 C5753 1.349 . S
C5738 C5736 1.327 . S
C5738 C5757 1.429 . S
C5738 H5762 0.950 . S
C5739 C5756 1.574 . S
C5739 C5758 1.368 . S
C5739 H5763 0.949 . S
H5740 C5744 0.949 . S
C5741 C5742 1.349 . S
C5741 C5743 1.327 . S
C5741 H5764 0.951 1_556 S
C5742 C5741 1.349 . S
C5742 C5754 1.349 . S
C5743 C5741 1.327 . S
C5743 C5759 1.429 . S
C5743 H5765 0.948 1_556 S
C5744 H5740 0.949 . S
C5744 C5752 1.574 . S
C5744 C5760 1.368 . S
H5745 C5753 0.950 . S
H5746 C5751 0.950 . S
H5747 C5752 0.949 . S
H5748 C5754 0.950 . S
H5749 C5755 0.950 . S
H5750 C5756 0.949 . S
C5751 H5746 0.950 . S
C5751 C5753 1.327 . S
C5751 C5757 1.429 . S
C5752 C5744 1.574 . S
C5752 H5747 0.949 . S
C5752 C5758 1.368 . S
C5753 C5737 1.349 . S
C5753 H5745 0.950 . S
C5753 C5751 1.327 . S
C5754 C5742 1.349 . S
C5754 H5748 0.950 . S
C5754 C5755 1.327 . S
C5755 H5749 0.950 . S
C5755 C5754 1.327 . S
C5755 C5759 1.429 . S
C5756 C5739 1.574 . S
C5756 H5750 0.949 . S
C5756 C5760 1.368 . S
C5757 C5738 1.429 . S
C5757 C5751 1.429 . S
C5757 C5758 1.523 . S
C5758 C5739 1.368 . S
C5758 C5752 1.368 . S
C5758 C5757 1.523 . S
C5759 C5743 1.429 . S
C5759 C5755 1.429 . S
C5759 C5760 1.523 . S
C5760 C5744 1.368 . S
C5760 C5756 1.368 . S
C5760 C5759 1.523 . S
H5761 C5736 0.950 . S
H5762 C5738 0.950 . S
H5763 C5739 0.949 . S
H5764 C5741 0.951 1_554 S
H5765 C5743 0.948 1_554 S
C5766 C5767 1.349 . S
C5766 C5768 1.327 . S
C5766 H5791 0.950 . S
C5767 C5766 1.349 . S
C5767 C5783 1.349 . S
C5768 C5766 1.327 . S
C5768 C5787 1.429 . S
C5768 H5792 0.950 . S
C5769 C5786 1.574 . S
C5769 C5788 1.368 . S
C5769 H5793 0.949 . S
H5770 C5774 0.949 . S
C5771 C5772 1.349 . S
C5771 C5773 1.327 . S
C5771 H5794 0.950 . S
C5772 C5771 1.349 . S
C5772 C5784 1.349 . S
C5773 C5771 1.327 . S
C5773 C5789 1.429 . S
C5773 H5795 0.950 . S
C5774 H5770 0.949 . S
C5774 C5782 1.574 . S
C5774 C5790 1.368 . S
H5775 C5783 0.950 . S
H5776 C5781 0.950 . S
H5777 C5782 0.949 . S
H5778 C5784 0.950 . S
H5779 C5785 0.950 . S
H5780 C5786 0.949 . S
C5781 H5776 0.950 . S
C5781 C5783 1.327 . S
C5781 C5787 1.429 . S
C5782 C5774 1.574 . S
C5782 H5777 0.949 . S
C5782 C5788 1.368 . S
C5783 C5767 1.349 . S
C5783 H5775 0.950 . S
C5783 C5781 1.327 . S
C5784 C5772 1.349 . S
C5784 H5778 0.950 . S
C5784 C5785 1.327 . S
C5785 H5779 0.950 . S
C5785 C5784 1.327 . S
C5785 C5789 1.429 . S
C5786 C5769 1.574 . S
C5786 H5780 0.949 . S
C5786 C5790 1.368 . S
C5787 C5768 1.429 . S
C5787 C5781 1.429 . S
C5787 C5788 1.523 . S
C5788 C5769 1.368 . S
C5788 C5782 1.368 . S
C5788 C5787 1.523 . S
C5789 C5773 1.429 . S
C5789 C5785 1.429 . S
C5789 C5790 1.523 . S
C5790 C5774 1.368 . S
C5790 C5786 1.368 . S
C5790 C5789 1.523 . S
H5791 C5766 0.950 . S
H5792 C5768 0.950 . S
H5793 C5769 0.949 . S
H5794 C5771 0.950 . S
H5795 C5773 0.950 . S
C5796 C5797 1.349 . S
C5796 C5798 1.327 . S
C5796 H5821 0.950 . S
C5797 C5796 1.349 . S
C5797 C5813 1.349 . S
C5798 C5796 1.327 . S
C5798 C5817 1.429 . S
C5798 H5822 0.950 . S
C5799 C5816 1.574 . S
C5799 C5818 1.368 . S
C5799 H5823 0.949 . S
H5800 C5804 0.949 . S
C5801 C5802 1.349 . S
C5801 C5803 1.327 . S
C5801 H5824 0.950 . S
C5802 C5801 1.349 . S
C5802 C5814 1.349 . S
C5803 C5801 1.327 . S
C5803 C5819 1.429 . S
C5803 H5825 0.950 . S
C5804 H5800 0.949 . S
C5804 C5812 1.574 . S
C5804 C5820 1.368 . S
H5805 C5813 0.950 . S
H5806 C5811 0.950 . S
H5807 C5812 0.949 . S
H5808 C5814 0.950 . S
H5809 C5815 0.950 . S
H5810 C5816 0.949 . S
C5811 H5806 0.950 . S
C5811 C5813 1.327 . S
C5811 C5817 1.429 . S
C5812 C5804 1.574 . S
C5812 H5807 0.949 . S
C5812 C5818 1.368 . S
C5813 C5797 1.349 . S
C5813 H5805 0.950 . S
C5813 C5811 1.327 . S
C5814 C5802 1.349 . S
C5814 H5808 0.950 . S
C5814 C5815 1.327 . S
C5815 H5809 0.950 . S
C5815 C5814 1.327 . S
C5815 C5819 1.429 . S
C5816 C5799 1.574 . S
C5816 H5810 0.949 . S
C5816 C5820 1.368 . S
C5817 C5798 1.429 . S
C5817 C5811 1.429 . S
C5817 C5818 1.523 . S
C5818 C5799 1.368 . S
C5818 C5812 1.368 . S
C5818 C5817 1.523 . S
C5819 C5803 1.429 . S
C5819 C5815 1.429 . S
C5819 C5820 1.523 . S
C5820 C5804 1.368 . S
C5820 C5816 1.368 . S
C5820 C5819 1.523 . S
H5821 C5796 0.950 . S
H5822 C5798 0.950 . S
H5823 C5799 0.949 . S
H5824 C5801 0.950 . S
H5825 C5803 0.950 . S
C5826 C5827 1.349 . S
C5826 C5828 1.327 . S
C5826 H5851 0.950 . S
C5827 C5826 1.349 . S
C5827 C5843 1.349 . S
C5828 C5826 1.327 . S
C5828 C5847 1.429 . S
C5828 H5852 0.950 . S
C5829 C5846 1.574 . S
C5829 C5848 1.368 . S
C5829 H5853 0.949 . S
H5830 C5834 0.949 . S
C5831 C5832 1.349 . S
C5831 C5833 1.327 . S
C5831 H5854 0.950 . S
C5832 C5831 1.349 . S
C5832 C5844 1.349 . S
C5833 C5831 1.327 . S
C5833 C5849 1.429 . S
C5833 H5855 0.950 . S
C5834 H5830 0.949 . S
C5834 C5842 1.574 . S
C5834 C5850 1.368 . S
H5835 C5843 0.950 . S
H5836 C5841 0.950 . S
H5837 C5842 0.949 . S
H5838 C5844 0.950 . S
H5839 C5845 0.950 . S
H5840 C5846 0.949 . S
C5841 H5836 0.950 . S
C5841 C5843 1.327 . S
C5841 C5847 1.429 . S
C5842 C5834 1.574 . S
C5842 H5837 0.949 . S
C5842 C5848 1.368 . S
C5843 C5827 1.349 . S
C5843 H5835 0.950 . S
C5843 C5841 1.327 . S
C5844 C5832 1.349 . S
C5844 H5838 0.950 . S
C5844 C5845 1.327 . S
C5845 H5839 0.950 . S
C5845 C5844 1.327 . S
C5845 C5849 1.429 . S
C5846 C5829 1.574 . S
C5846 H5840 0.949 . S
C5846 C5850 1.368 . S
C5847 C5828 1.429 . S
C5847 C5841 1.429 . S
C5847 C5848 1.523 . S
C5848 C5829 1.368 . S
C5848 C5842 1.368 . S
C5848 C5847 1.523 . S
C5849 C5833 1.429 . S
C5849 C5845 1.429 . S
C5849 C5850 1.523 . S
C5850 C5834 1.368 . S
C5850 C5846 1.368 . S
C5850 C5849 1.523 . S
H5851 C5826 0.950 . S
H5852 C5828 0.950 . S
H5853 C5829 0.949 . S
H5854 C5831 0.950 . S
H5855 C5833 0.950 . S
C5856 C5857 1.349 . S
C5856 C5858 1.327 . S
C5856 H5881 0.950 . S
C5857 C5856 1.349 . S
C5857 C5873 1.349 . S
C5858 C5856 1.327 . S
C5858 C5877 1.429 . S
C5858 H5882 0.950 . S
C5859 C5876 1.574 . S
C5859 C5878 1.368 . S
C5859 H5883 0.949 . S
H5860 C5864 0.949 . S
C5861 C5862 1.349 . S
C5861 C5863 1.327 . S
C5861 H5884 0.950 . S
C5862 C5861 1.349 . S
C5862 C5874 1.349 . S
C5863 C5861 1.327 . S
C5863 C5879 1.429 . S
C5863 H5885 0.950 . S
C5864 H5860 0.949 . S
C5864 C5872 1.574 . S
C5864 C5880 1.368 . S
H5865 C5873 0.950 . S
H5866 C5871 0.950 . S
H5867 C5872 0.949 . S
H5868 C5874 0.950 . S
H5869 C5875 0.950 . S
H5870 C5876 0.949 . S
C5871 H5866 0.950 . S
C5871 C5873 1.327 . S
C5871 C5877 1.429 . S
C5872 C5864 1.574 . S
C5872 H5867 0.949 . S
C5872 C5878 1.368 . S
C5873 C5857 1.349 . S
C5873 H5865 0.950 . S
C5873 C5871 1.327 . S
C5874 C5862 1.349 . S
C5874 H5868 0.950 . S
C5874 C5875 1.327 . S
C5875 H5869 0.950 . S
C5875 C5874 1.327 . S
C5875 C5879 1.429 . S
C5876 C5859 1.574 . S
C5876 H5870 0.949 . S
C5876 C5880 1.368 . S
C5877 C5858 1.429 . S
C5877 C5871 1.429 . S
C5877 C5878 1.523 . S
C5878 C5859 1.368 . S
C5878 C5872 1.368 . S
C5878 C5877 1.523 . S
C5879 C5863 1.429 . S
C5879 C5875 1.429 . S
C5879 C5880 1.523 . S
C5880 C5864 1.368 . S
C5880 C5876 1.368 . S
C5880 C5879 1.523 . S
H5881 C5856 0.950 . S
H5882 C5858 0.950 . S
H5883 C5859 0.949 . S
H5884 C5861 0.950 . S
H5885 C5863 0.950 . S
C5886 C5887 1.349 . S
C5886 C5888 1.327 . S
C5886 H5911 0.950 . S
C5887 C5886 1.349 . S
C5887 C5903 1.349 . S
C5888 C5886 1.327 . S
C5888 C5907 1.429 . S
C5888 H5912 0.950 . S
C5889 C5906 1.574 . S
C5889 C5908 1.368 . S
C5889 H5913 0.949 . S
H5890 C5894 0.949 . S
C5891 C5892 1.349 . S
C5891 C5893 1.327 . S
C5891 H5914 0.950 . S
C5892 C5891 1.349 . S
C5892 C5904 1.349 . S
C5893 C5891 1.327 . S
C5893 C5909 1.429 . S
C5893 H5915 0.950 . S
C5894 H5890 0.949 . S
C5894 C5902 1.574 . S
C5894 C5910 1.368 . S
H5895 C5903 0.950 . S
H5896 C5901 0.950 . S
H5897 C5902 0.949 . S
H5898 C5904 0.950 . S
H5899 C5905 0.950 . S
H5900 C5906 0.949 . S
C5901 H5896 0.950 . S
C5901 C5903 1.327 . S
C5901 C5907 1.429 . S
C5902 C5894 1.574 . S
C5902 H5897 0.949 . S
C5902 C5908 1.368 . S
C5903 C5887 1.349 . S
C5903 H5895 0.950 . S
C5903 C5901 1.327 . S
C5904 C5892 1.349 . S
C5904 H5898 0.950 . S
C5904 C5905 1.327 . S
C5905 H5899 0.950 . S
C5905 C5904 1.327 . S
C5905 C5909 1.429 . S
C5906 C5889 1.574 . S
C5906 H5900 0.949 . S
C5906 C5910 1.368 . S
C5907 C5888 1.429 . S
C5907 C5901 1.429 . S
C5907 C5908 1.523 . S
C5908 C5889 1.368 . S
C5908 C5902 1.368 . S
C5908 C5907 1.523 . S
C5909 C5893 1.429 . S
C5909 C5905 1.429 . S
C5909 C5910 1.523 . S
C5910 C5894 1.368 . S
C5910 C5906 1.368 . S
C5910 C5909 1.523 . S
H5911 C5886 0.950 . S
H5912 C5888 0.950 . S
H5913 C5889 0.949 . S
H5914 C5891 0.950 . S
H5915 C5893 0.950 . S
C5916 C5917 1.349 . S
C5916 C5918 1.327 . S
C5916 H5941 0.950 . S
C5917 C5916 1.349 . S
C5917 C5933 1.349 . S
C5918 C5916 1.327 . S
C5918 C5937 1.429 . S
C5918 H5942 0.950 . S
C5919 C5936 1.574 1_655 S
C5919 C5938 1.368 . S
C5919 H5943 0.949 . S
H5920 C5924 0.949 . S
C5921 C5922 1.349 . S
C5921 C5923 1.327 . S
C5921 H5944 0.950 . S
C5922 C5921 1.349 . S
C5922 C5934 1.349 . S
C5923 C5921 1.327 . S
C5923 C5939 1.429 . S
C5923 H5945 0.950 . S
C5924 H5920 0.949 . S
C5924 C5932 1.574 . S
C5924 C5940 1.390 . S
H5925 C5933 0.950 . S
H5926 C5931 0.950 . S
H5927 C5932 0.949 . S
H5928 C5934 0.950 . S
H5929 C5935 0.950 1_655 S
H5930 C5936 0.949 . S
C5931 H5926 0.950 . S
C5931 C5933 1.327 . S
C5931 C5937 1.429 . S
C5932 C5924 1.574 . S
C5932 H5927 0.949 . S
C5932 C5938 1.368 . S
C5933 C5917 1.349 . S
C5933 H5925 0.950 . S
C5933 C5931 1.327 . S
C5934 C5922 1.349 . S
C5934 H5928 0.950 . S
C5934 C5935 1.327 . S
C5935 H5929 0.950 1_455 S
C5935 C5934 1.327 . S
C5935 C5939 1.429 . S
C5936 C5919 1.574 1_455 S
C5936 H5930 0.949 . S
C5936 C5940 1.356 1_455 S
C5937 C5918 1.429 . S
C5937 C5931 1.429 . S
C5937 C5938 1.523 . S
C5938 C5919 1.368 . S
C5938 C5932 1.368 . S
C5938 C5937 1.523 . S
C5939 C5923 1.429 . S
C5939 C5935 1.429 . S
C5939 C5940 1.511 1_455 S
C5940 C5924 1.390 . S
C5940 C5936 1.356 1_655 S
C5940 C5939 1.511 1_655 S
H5941 C5916 0.950 . S
H5942 C5918 0.950 . S
H5943 C5919 0.949 . S
H5944 C5921 0.950 . S
H5945 C5923 0.950 . S
C5946 C5947 1.349 . S
C5946 C5948 1.327 . S
C5946 H5971 0.950 . S
C5947 C5946 1.349 . S
C5947 C5963 1.349 . S
C5948 C5946 1.327 . S
C5948 C5967 1.429 . S
C5948 H5972 0.950 . S
C5949 C5966 1.574 . S
C5949 C5968 1.368 . S
C5949 H5973 0.949 . S
H5950 C5954 0.949 . S
C5951 C5952 1.349 . S
C5951 C5953 1.327 . S
C5951 H5974 0.950 . S
C5952 C5951 1.349 . S
C5952 C5964 1.349 . S
C5953 C5951 1.327 . S
C5953 C5969 1.429 . S
C5953 H5975 0.950 . S
C5954 H5950 0.949 . S
C5954 C5962 1.574 . S
C5954 C5970 1.368 . S
H5955 C5963 0.950 . S
H5956 C5961 0.950 . S
H5957 C5962 0.949 . S
H5958 C5964 0.950 . S
H5959 C5965 0.950 . S
H5960 C5966 0.949 . S
C5961 H5956 0.950 . S
C5961 C5963 1.327 . S
C5961 C5967 1.429 . S
C5962 C5954 1.574 . S
C5962 H5957 0.949 . S
C5962 C5968 1.368 . S
C5963 C5947 1.349 . S
C5963 H5955 0.950 . S
C5963 C5961 1.327 . S
C5964 C5952 1.349 . S
C5964 H5958 0.950 . S
C5964 C5965 1.327 . S
C5965 H5959 0.950 . S
C5965 C5964 1.327 . S
C5965 C5969 1.429 . S
C5966 C5949 1.574 . S
C5966 H5960 0.949 . S
C5966 C5970 1.368 . S
C5967 C5948 1.429 . S
C5967 C5961 1.429 . S
C5967 C5968 1.523 . S
C5968 C5949 1.368 . S
C5968 C5962 1.368 . S
C5968 C5967 1.523 . S
C5969 C5953 1.429 . S
C5969 C5965 1.429 . S
C5969 C5970 1.523 . S
C5970 C5954 1.368 . S
C5970 C5966 1.368 . S
C5970 C5969 1.523 . S
H5971 C5946 0.950 . S
H5972 C5948 0.950 . S
H5973 C5949 0.949 . S
H5974 C5951 0.950 . S
H5975 C5953 0.950 . S
C5976 C5977 1.349 . S
C5976 C5978 1.327 . S
C5976 H6001 0.950 . S
C5977 C5976 1.349 . S
C5977 C5993 1.349 . S
C5978 C5976 1.327 . S
C5978 C5997 1.429 . S
C5978 H6002 0.950 . S
C5979 C5996 1.574 . S
C5979 C5998 1.368 . S
C5979 H6003 0.949 . S
H5980 C5984 0.949 . S
C5981 C5982 1.349 . S
C5981 C5983 1.327 . S
C5981 H6004 0.950 . S
C5982 C5981 1.349 . S
C5982 C5994 1.349 . S
C5983 C5981 1.327 . S
C5983 C5999 1.429 . S
C5983 H6005 0.950 . S
C5984 H5980 0.949 . S
C5984 C5992 1.574 . S
C5984 C6000 1.368 . S
H5985 C5993 0.950 . S
H5986 C5991 0.950 . S
H5987 C5992 0.949 . S
H5988 C5994 0.950 . S
H5989 C5995 0.950 . S
H5990 C5996 0.949 . S
C5991 H5986 0.950 . S
C5991 C5993 1.327 . S
C5991 C5997 1.429 . S
C5992 C5984 1.574 . S
C5992 H5987 0.949 . S
C5992 C5998 1.368 . S
C5993 C5977 1.349 . S
C5993 H5985 0.950 . S
C5993 C5991 1.327 . S
C5994 C5982 1.349 . S
C5994 H5988 0.950 . S
C5994 C5995 1.327 . S
C5995 H5989 0.950 . S
C5995 C5994 1.327 . S
C5995 C5999 1.429 . S
C5996 C5979 1.574 . S
C5996 H5990 0.949 . S
C5996 C6000 1.368 . S
C5997 C5978 1.429 . S
C5997 C5991 1.429 . S
C5997 C5998 1.523 . S
C5998 C5979 1.368 . S
C5998 C5992 1.368 . S
C5998 C5997 1.523 . S
C5999 C5983 1.429 . S
C5999 C5995 1.429 . S
C5999 C6000 1.523 . S
C6000 C5984 1.368 . S
C6000 C5996 1.368 . S
C6000 C5999 1.523 . S
H6001 C5976 0.950 . S
H6002 C5978 0.950 . S
H6003 C5979 0.949 . S
H6004 C5981 0.950 . S
H6005 C5983 0.950 . S
C6006 C6007 1.349 . S
C6006 C6008 1.327 . S
C6006 H6031 0.950 . S
C6007 C6006 1.349 . S
C6007 C6023 1.349 . S
C6008 C6006 1.327 . S
C6008 C6027 1.429 . S
C6008 H6032 0.950 . S
C6009 C6026 1.574 . S
C6009 C6028 1.368 . S
C6009 H6033 0.949 . S
H6010 C6014 0.949 . S
C6011 C6012 1.349 . S
C6011 C6013 1.327 . S
C6011 H6034 0.950 . S
C6012 C6011 1.349 . S
C6012 C6024 1.349 . S
C6013 C6011 1.327 . S
C6013 C6029 1.429 . S
C6013 H6035 0.950 . S
C6014 H6010 0.949 . S
C6014 C6022 1.574 . S
C6014 C6030 1.368 . S
H6015 C6023 0.950 . S
H6016 C6021 0.950 . S
H6017 C6022 0.949 . S
H6018 C6024 0.950 . S
H6019 C6025 0.950 . S
H6020 C6026 0.949 . S
C6021 H6016 0.950 . S
C6021 C6023 1.327 . S
C6021 C6027 1.429 . S
C6022 C6014 1.574 . S
C6022 H6017 0.949 . S
C6022 C6028 1.368 . S
C6023 C6007 1.349 . S
C6023 H6015 0.950 . S
C6023 C6021 1.327 . S
C6024 C6012 1.349 . S
C6024 H6018 0.950 . S
C6024 C6025 1.327 . S
C6025 H6019 0.950 . S
C6025 C6024 1.327 . S
C6025 C6029 1.429 . S
C6026 C6009 1.574 . S
C6026 H6020 0.949 . S
C6026 C6030 1.368 . S
C6027 C6008 1.429 . S
C6027 C6021 1.429 . S
C6027 C6028 1.523 . S
C6028 C6009 1.368 . S
C6028 C6022 1.368 . S
C6028 C6027 1.523 . S
C6029 C6013 1.429 . S
C6029 C6025 1.429 . S
C6029 C6030 1.523 . S
C6030 C6014 1.368 . S
C6030 C6026 1.368 . S
C6030 C6029 1.523 . S
H6031 C6006 0.950 . S
H6032 C6008 0.950 . S
H6033 C6009 0.949 . S
H6034 C6011 0.950 . S
H6035 C6013 0.950 . S
C6036 C6037 1.349 . S
C6036 C6038 1.327 . S
C6036 H6061 0.950 . S
C6037 C6036 1.349 . S
C6037 C6053 1.349 . S
C6038 C6036 1.327 . S
C6038 C6057 1.429 . S
C6038 H6062 0.950 . S
C6039 C6056 1.574 . S
C6039 C6058 1.368 . S
C6039 H6063 0.949 . S
H6040 C6044 0.949 . S
C6041 C6042 1.349 . S
C6041 C6043 1.327 . S
C6041 H6064 0.950 . S
C6042 C6041 1.349 . S
C6042 C6054 1.349 1_455 S
C6043 C6041 1.327 . S
C6043 C6059 1.429 1_455 S
C6043 H6065 0.950 . S
C6044 H6040 0.949 . S
C6044 C6052 1.574 . S
C6044 C6060 1.368 . S
H6045 C6053 0.950 . S
H6046 C6051 0.950 . S
H6047 C6052 0.949 . S
H6048 C6054 0.950 . S
H6049 C6055 0.950 . S
H6050 C6056 0.982 . S
C6051 H6046 0.950 . S
C6051 C6053 1.327 . S
C6051 C6057 1.429 . S
C6052 C6044 1.574 . S
C6052 H6047 0.949 . S
C6052 C6058 1.368 . S
C6053 C6037 1.349 . S
C6053 H6045 0.950 . S
C6053 C6051 1.327 . S
C6054 C6042 1.349 1_655 S
C6054 H6048 0.950 . S
C6054 C6055 1.327 . S
C6055 H6049 0.950 . S
C6055 C6054 1.327 . S
C6055 C6059 1.429 . S
C6056 C6039 1.574 . S
C6056 H6050 0.982 . S
C6056 C6060 1.368 . S
C6057 C6038 1.429 . S
C6057 C6051 1.429 . S
C6057 C6058 1.523 . S
C6058 C6039 1.368 . S
C6058 C6052 1.368 . S
C6058 C6057 1.523 . S
C6059 C6043 1.429 1_655 S
C6059 C6055 1.429 . S
C6059 C6060 1.523 . S
C6060 C6044 1.368 . S
C6060 C6056 1.368 . S
C6060 C6059 1.523 . S
H6061 C6036 0.950 . S
H6062 C6038 0.950 . S
H6063 C6039 0.949 . S
H6064 C6041 0.950 . S
H6065 C6043 0.950 . S
C6066 C6067 1.349 . S
C6066 C6068 1.327 . S
C6066 H6091 0.950 . S
C6067 C6066 1.349 . S
C6067 C6083 1.349 . S
C6068 C6066 1.327 . S
C6068 C6087 1.429 . S
C6068 H6092 0.950 . S
C6069 C6086 1.574 . S
C6069 C6088 1.368 . S
C6069 H6093 0.949 . S
H6070 C6074 0.949 . S
C6071 C6072 1.349 . S
C6071 C6073 1.327 . S
C6071 H6094 0.950 . S
C6072 C6071 1.349 . S
C6072 C6084 1.349 . S
C6073 C6071 1.327 . S
C6073 C6089 1.429 . S
C6073 H6095 0.950 . S
C6074 H6070 0.949 . S
C6074 C6082 1.574 . S
C6074 C6090 1.368 . S
H6075 C6083 0.950 . S
H6076 C6081 0.950 . S
H6077 C6082 0.949 . S
H6078 C6084 0.950 . S
H6079 C6085 0.950 . S
H6080 C6086 0.949 . S
C6081 H6076 0.950 . S
C6081 C6083 1.327 . S
C6081 C6087 1.429 . S
C6082 C6074 1.574 . S
C6082 H6077 0.949 . S
C6082 C6088 1.368 . S
C6083 C6067 1.349 . S
C6083 H6075 0.950 . S
C6083 C6081 1.327 . S
C6084 C6072 1.349 . S
C6084 H6078 0.950 . S
C6084 C6085 1.327 . S
C6085 H6079 0.950 . S
C6085 C6084 1.327 . S
C6085 C6089 1.429 . S
C6086 C6069 1.574 . S
C6086 H6080 0.949 . S
C6086 C6090 1.368 . S
C6087 C6068 1.429 . S
C6087 C6081 1.429 . S
C6087 C6088 1.523 . S
C6088 C6069 1.368 . S
C6088 C6082 1.368 . S
C6088 C6087 1.523 . S
C6089 C6073 1.429 . S
C6089 C6085 1.429 . S
C6089 C6090 1.523 . S
C6090 C6074 1.368 . S
C6090 C6086 1.368 . S
C6090 C6089 1.523 . S
H6091 C6066 0.950 . S
H6092 C6068 0.950 . S
H6093 C6069 0.949 . S
H6094 C6071 0.950 . S
H6095 C6073 0.950 . S
C6096 C6097 1.349 . S
C6096 C6098 1.327 . S
C6096 H6121 0.950 . S
C6097 C6096 1.349 . S
C6097 C6113 1.349 . S
C6098 C6096 1.327 . S
C6098 C6117 1.429 . S
C6098 H6122 0.950 . S
C6099 C6116 1.574 . S
C6099 C6118 1.368 . S
C6099 H6123 0.949 . S
H6100 C6104 0.949 . S
C6101 C6102 1.349 . S
C6101 C6103 1.327 . S
C6101 H6124 0.950 . S
C6102 C6101 1.349 . S
C6102 C6114 1.349 . S
C6103 C6101 1.327 . S
C6103 C6119 1.429 . S
C6103 H6125 0.950 . S
C6104 H6100 0.949 . S
C6104 C6112 1.574 . S
C6104 C6120 1.368 . S
H6105 C6113 0.950 . S
H6106 C6111 0.950 . S
H6107 C6112 0.949 . S
H6108 C6114 0.950 . S
H6109 C6115 0.950 . S
H6110 C6116 0.949 . S
C6111 H6106 0.950 . S
C6111 C6113 1.327 . S
C6111 C6117 1.429 . S
C6112 C6104 1.574 . S
C6112 H6107 0.949 . S
C6112 C6118 1.368 . S
C6113 C6097 1.349 . S
C6113 H6105 0.950 . S
C6113 C6111 1.327 . S
C6114 C6102 1.349 . S
C6114 H6108 0.950 . S
C6114 C6115 1.327 . S
C6115 H6109 0.950 . S
C6115 C6114 1.327 . S
C6115 C6119 1.429 . S
C6116 C6099 1.574 . S
C6116 H6110 0.949 . S
C6116 C6120 1.368 . S
C6117 C6098 1.429 . S
C6117 C6111 1.429 . S
C6117 C6118 1.523 . S
C6118 C6099 1.368 . S
C6118 C6112 1.368 . S
C6118 C6117 1.523 . S
C6119 C6103 1.429 . S
C6119 C6115 1.429 . S
C6119 C6120 1.523 . S
C6120 C6104 1.368 . S
C6120 C6116 1.368 . S
C6120 C6119 1.523 . S
H6121 C6096 0.950 . S
H6122 C6098 0.950 . S
H6123 C6099 0.949 . S
H6124 C6101 0.950 . S
H6125 C6103 0.950 . S
C6126 C6127 1.349 . S
C6126 C6128 1.327 . S
C6126 H6151 0.950 . S
C6127 C6126 1.349 . S
C6127 C6143 1.349 . S
C6128 C6126 1.327 . S
C6128 C6147 1.429 . S
C6128 H6152 0.950 . S
C6129 C6146 1.574 . S
C6129 C6148 1.368 . S
C6129 H6153 0.949 . S
H6130 C6134 0.949 . S
C6131 C6132 1.349 . S
C6131 C6133 1.327 . S
C6131 H6154 0.950 . S
C6132 C6131 1.349 . S
C6132 C6144 1.349 . S
C6133 C6131 1.327 . S
C6133 C6149 1.429 1_545 S
C6133 H6155 0.950 . S
C6134 H6130 0.949 . S
C6134 C6142 1.574 . S
C6134 C6150 1.368 . S
H6135 C6143 0.950 . S
H6136 C6141 0.950 . S
H6137 C6142 0.949 . S
H6138 C6144 0.932 1_455 S
H6139 C6145 0.950 . S
H6140 C6146 0.949 . S
C6141 H6136 0.950 . S
C6141 C6143 1.327 . S
C6141 C6147 1.429 . S
C6142 C6134 1.574 . S
C6142 H6137 0.949 . S
C6142 C6148 1.368 . S
C6143 C6127 1.349 . S
C6143 H6135 0.950 . S
C6143 C6141 1.327 . S
C6144 C6132 1.349 . S
C6144 H6138 0.932 1_655 S
C6144 C6145 1.327 1_545 S
C6145 H6139 0.950 . S
C6145 C6144 1.327 1_565 S
C6145 C6149 1.429 . S
C6146 C6129 1.574 . S
C6146 H6140 0.949 . S
C6146 C6150 1.368 . S
C6147 C6128 1.429 . S
C6147 C6141 1.429 . S
C6147 C6148 1.523 . S
C6148 C6129 1.368 . S
C6148 C6142 1.368 . S
C6148 C6147 1.523 . S
C6149 C6133 1.429 1_565 S
C6149 C6145 1.429 . S
C6149 C6150 1.523 . S
C6150 C6134 1.368 . S
C6150 C6146 1.368 . S
C6150 C6149 1.523 . S
H6151 C6126 0.950 . S
H6152 C6128 0.950 . S
H6153 C6129 0.949 . S
H6154 C6131 0.950 . S
H6155 C6133 0.950 . S
C6156 C6157 1.349 . S
C6156 C6158 1.327 . S
C6156 H6181 0.950 . S
C6157 C6156 1.349 . S
C6157 C6173 1.349 . S
C6158 C6156 1.327 . S
C6158 C6177 1.429 . S
C6158 H6182 0.950 . S
C6159 C6176 1.574 . S
C6159 C6178 1.368 . S
C6159 H6183 0.949 . S
H6160 C6164 0.949 . S
C6161 C6162 1.349 . S
C6161 C6163 1.327 . S
C6161 H6184 0.950 . S
C6162 C6161 1.349 . S
C6162 C6174 1.349 . S
C6163 C6161 1.327 . S
C6163 C6179 1.429 . S
C6163 H6185 0.950 . S
C6164 H6160 0.949 . S
C6164 C6172 1.574 . S
C6164 C6180 1.368 . S
H6165 C6173 0.950 . S
H6166 C6171 0.950 . S
H6167 C6172 0.949 . S
H6168 C6174 0.950 . S
H6169 C6175 0.950 . S
H6170 C6176 0.949 . S
C6171 H6166 0.950 . S
C6171 C6173 1.327 . S
C6171 C6177 1.429 . S
C6172 C6164 1.574 . S
C6172 H6167 0.949 . S
C6172 C6178 1.368 . S
C6173 C6157 1.349 . S
C6173 H6165 0.950 . S
C6173 C6171 1.327 . S
C6174 C6162 1.349 . S
C6174 H6168 0.950 . S
C6174 C6175 1.327 . S
C6175 H6169 0.950 . S
C6175 C6174 1.327 . S
C6175 C6179 1.429 . S
C6176 C6159 1.574 . S
C6176 H6170 0.949 . S
C6176 C6180 1.368 . S
C6177 C6158 1.429 . S
C6177 C6171 1.429 . S
C6177 C6178 1.523 . S
C6178 C6159 1.368 . S
C6178 C6172 1.368 . S
C6178 C6177 1.523 . S
C6179 C6163 1.429 . S
C6179 C6175 1.429 . S
C6179 C6180 1.523 . S
C6180 C6164 1.368 . S
C6180 C6176 1.368 . S
C6180 C6179 1.523 . S
H6181 C6156 0.950 . S
H6182 C6158 0.950 . S
H6183 C6159 0.949 . S
H6184 C6161 0.950 . S
H6185 C6163 0.950 . S
C6186 C6187 1.349 1_556 S
C6186 C6188 1.327 . S
C6186 H6211 0.950 . S
C6187 C6186 1.349 1_554 S
C6187 C6203 1.349 . S
C6188 C6186 1.327 . S
C6188 C6207 1.429 1_556 S
C6188 H6212 0.950 . S
C6189 C6206 1.574 . S
C6189 C6208 1.368 . S
C6189 H6213 0.949 . S
H6190 C6194 0.912 1_556 S
C6191 C6192 1.349 . S
C6191 C6193 1.327 . S
C6191 H6214 0.950 . S
C6192 C6191 1.349 . S
C6192 C6204 1.349 . S
C6193 C6191 1.327 . S
C6193 C6209 1.429 . S
C6193 H6215 0.950 . S
C6194 H6190 0.912 1_554 S
C6194 C6202 1.560 1_554 S
C6194 C6210 1.426 . S
H6195 C6203 0.950 . S
H6196 C6201 0.950 . S
H6197 C6202 0.957 . S
H6198 C6204 0.950 1_556 S
H6199 C6205 0.950 1_556 S
H6200 C6206 0.949 . S
C6201 H6196 0.950 . S
C6201 C6203 1.327 . S
C6201 C6207 1.429 . S
C6202 C6194 1.560 1_556 S
C6202 H6197 0.957 . S
C6202 C6208 1.362 1_556 S
C6203 C6187 1.349 . S
C6203 H6195 0.950 . S
C6203 C6201 1.327 . S
C6204 C6192 1.349 . S
C6204 H6198 0.950 1_554 S
C6204 C6205 1.327 . S
C6205 H6199 0.950 1_554 S
C6205 C6204 1.327 . S
C6205 C6209 1.429 . S
C6206 C6189 1.574 . S
C6206 H6200 0.949 . S
C6206 C6210 1.368 . S
C6207 C6188 1.429 1_554 S
C6207 C6201 1.429 . S
C6207 C6208 1.523 . S
C6208 C6189 1.368 . S
C6208 C6202 1.362 1_554 S
C6208 C6207 1.523 . S
C6209 C6193 1.429 . S
C6209 C6205 1.429 . S
C6209 C6210 1.523 . S
C6210 C6194 1.426 . S
C6210 C6206 1.368 . S
C6210 C6209 1.523 . S
H6211 C6186 0.950 . S
H6212 C6188 0.950 . S
H6213 C6189 0.949 . S
H6214 C6191 0.950 . S
H6215 C6193 0.950 . S
C6216 C6217 1.349 . S
C6216 C6218 1.327 . S
C6216 H6241 0.950 . S
C6217 C6216 1.349 . S
C6217 C6233 1.349 . S
C6218 C6216 1.327 . S
C6218 C6237 1.429 . S
C6218 H6242 0.950 . S
C6219 C6236 1.574 . S
C6219 C6238 1.368 . S
C6219 H6243 0.949 . S
H6220 C6224 0.949 . S
C6221 C6222 1.349 . S
C6221 C6223 1.327 . S
C6221 H6244 0.950 . S
C6222 C6221 1.349 . S
C6222 C6234 1.349 . S
C6223 C6221 1.327 . S
C6223 C6239 1.429 . S
C6223 H6245 0.950 . S
C6224 H6220 0.949 . S
C6224 C6232 1.574 . S
C6224 C6240 1.368 . S
H6225 C6233 0.950 . S
H6226 C6231 0.950 . S
H6227 C6232 0.949 . S
H6228 C6234 0.950 . S
H6229 C6235 0.950 . S
H6230 C6236 0.949 . S
C6231 H6226 0.950 . S
C6231 C6233 1.327 . S
C6231 C6237 1.429 . S
C6232 C6224 1.574 . S
C6232 H6227 0.949 . S
C6232 C6238 1.368 . S
C6233 C6217 1.349 . S
C6233 H6225 0.950 . S
C6233 C6231 1.327 . S
C6234 C6222 1.349 . S
C6234 H6228 0.950 . S
C6234 C6235 1.327 . S
C6235 H6229 0.950 . S
C6235 C6234 1.327 . S
C6235 C6239 1.429 . S
C6236 C6219 1.574 . S
C6236 H6230 0.949 . S
C6236 C6240 1.368 . S
C6237 C6218 1.429 . S
C6237 C6231 1.429 . S
C6237 C6238 1.523 . S
C6238 C6219 1.368 . S
C6238 C6232 1.368 . S
C6238 C6237 1.523 . S
C6239 C6223 1.429 . S
C6239 C6235 1.429 . S
C6239 C6240 1.523 . S
C6240 C6224 1.368 . S
C6240 C6236 1.368 . S
C6240 C6239 1.523 . S
H6241 C6216 0.950 . S
H6242 C6218 0.950 . S
H6243 C6219 0.949 . S
H6244 C6221 0.950 . S
H6245 C6223 0.950 . S
C6246 C6247 1.349 . S
C6246 C6248 1.327 . S
C6246 H6271 0.950 . S
C6247 C6246 1.349 . S
C6247 C6263 1.349 . S
C6248 C6246 1.327 . S
C6248 C6267 1.429 . S
C6248 H6272 0.950 . S
C6249 C6266 1.574 . S
C6249 C6268 1.368 . S
C6249 H6273 0.949 . S
H6250 C6254 0.949 . S
C6251 C6252 1.349 . S
C6251 C6253 1.327 . S
C6251 H6274 0.950 . S
C6252 C6251 1.349 . S
C6252 C6264 1.349 . S
C6253 C6251 1.327 . S
C6253 C6269 1.429 . S
C6253 H6275 0.950 . S
C6254 H6250 0.949 . S
C6254 C6262 1.574 . S
C6254 C6270 1.368 . S
H6255 C6263 0.950 . S
H6256 C6261 0.950 . S
H6257 C6262 0.949 . S
H6258 C6264 0.950 1_556 S
H6259 C6265 0.950 . S
H6260 C6266 0.949 . S
C6261 H6256 0.950 . S
C6261 C6263 1.327 . S
C6261 C6267 1.429 . S
C6262 C6254 1.574 . S
C6262 H6257 0.949 . S
C6262 C6268 1.368 . S
C6263 C6247 1.349 . S
C6263 H6255 0.950 . S
C6263 C6261 1.327 . S
C6264 C6252 1.349 . S
C6264 H6258 0.950 1_554 S
C6264 C6265 1.327 . S
C6265 H6259 0.950 . S
C6265 C6264 1.327 . S
C6265 C6269 1.429 . S
C6266 C6249 1.574 . S
C6266 H6260 0.949 . S
C6266 C6270 1.368 . S
C6267 C6248 1.429 . S
C6267 C6261 1.429 . S
C6267 C6268 1.523 . S
C6268 C6249 1.368 . S
C6268 C6262 1.368 . S
C6268 C6267 1.523 . S
C6269 C6253 1.429 . S
C6269 C6265 1.429 . S
C6269 C6270 1.523 . S
C6270 C6254 1.368 . S
C6270 C6266 1.368 . S
C6270 C6269 1.523 . S
H6271 C6246 0.950 . S
H6272 C6248 0.950 . S
H6273 C6249 0.949 . S
H6274 C6251 0.950 . S
H6275 C6253 0.950 . S
C6276 C6277 1.349 . S
C6276 C6278 1.327 . S
C6276 H6301 0.950 . S
C6277 C6276 1.349 . S
C6277 C6293 1.349 . S
C6278 C6276 1.327 . S
C6278 C6297 1.429 . S
C6278 H6302 0.950 . S
C6279 C6296 1.574 . S
C6279 C6298 1.368 . S
C6279 H6303 0.949 . S
H6280 C6284 0.949 . S
C6281 C6282 1.349 . S
C6281 C6283 1.327 . S
C6281 H6304 0.950 . S
C6282 C6281 1.349 . S
C6282 C6294 1.349 . S
C6283 C6281 1.327 . S
C6283 C6299 1.429 . S
C6283 H6305 0.950 . S
C6284 H6280 0.949 . S
C6284 C6292 1.574 . S
C6284 C6300 1.368 . S
H6285 C6293 0.950 . S
H6286 C6291 0.950 . S
H6287 C6292 0.949 . S
H6288 C6294 0.950 . S
H6289 C6295 0.950 . S
H6290 C6296 0.949 . S
C6291 H6286 0.950 . S
C6291 C6293 1.327 . S
C6291 C6297 1.429 . S
C6292 C6284 1.574 . S
C6292 H6287 0.949 . S
C6292 C6298 1.368 . S
C6293 C6277 1.349 . S
C6293 H6285 0.950 . S
C6293 C6291 1.327 . S
C6294 C6282 1.349 . S
C6294 H6288 0.950 . S
C6294 C6295 1.327 . S
C6295 H6289 0.950 . S
C6295 C6294 1.327 . S
C6295 C6299 1.429 . S
C6296 C6279 1.574 . S
C6296 H6290 0.949 . S
C6296 C6300 1.368 . S
C6297 C6278 1.429 . S
C6297 C6291 1.429 . S
C6297 C6298 1.523 . S
C6298 C6279 1.368 . S
C6298 C6292 1.368 . S
C6298 C6297 1.523 . S
C6299 C6283 1.429 . S
C6299 C6295 1.429 . S
C6299 C6300 1.523 . S
C6300 C6284 1.368 . S
C6300 C6296 1.368 . S
C6300 C6299 1.523 . S
H6301 C6276 0.950 . S
H6302 C6278 0.950 . S
H6303 C6279 0.949 . S
H6304 C6281 0.950 . S
H6305 C6283 0.950 . S
C6306 C6307 1.349 . S
C6306 C6308 1.327 . S
C6306 H6331 0.950 . S
C6307 C6306 1.349 . S
C6307 C6323 1.349 . S
C6308 C6306 1.327 . S
C6308 C6327 1.429 . S
C6308 H6332 0.950 . S
C6309 C6326 1.574 . S
C6309 C6328 1.368 . S
C6309 H6333 0.949 . S
H6310 C6314 0.949 . S
C6311 C6312 1.349 . S
C6311 C6313 1.327 . S
C6311 H6334 0.950 . S
C6312 C6311 1.349 . S
C6312 C6324 1.349 . S
C6313 C6311 1.327 . S
C6313 C6329 1.429 . S
C6313 H6335 0.950 . S
C6314 H6310 0.949 . S
C6314 C6322 1.574 . S
C6314 C6330 1.368 . S
H6315 C6323 0.950 . S
H6316 C6321 0.950 . S
H6317 C6322 0.949 . S
H6318 C6324 0.950 . S
H6319 C6325 0.950 . S
H6320 C6326 0.949 . S
C6321 H6316 0.950 . S
C6321 C6323 1.327 . S
C6321 C6327 1.429 . S
C6322 C6314 1.574 . S
C6322 H6317 0.949 . S
C6322 C6328 1.368 . S
C6323 C6307 1.349 . S
C6323 H6315 0.950 . S
C6323 C6321 1.327 . S
C6324 C6312 1.349 . S
C6324 H6318 0.950 . S
C6324 C6325 1.327 . S
C6325 H6319 0.950 . S
C6325 C6324 1.327 . S
C6325 C6329 1.429 . S
C6326 C6309 1.574 . S
C6326 H6320 0.949 . S
C6326 C6330 1.368 . S
C6327 C6308 1.429 . S
C6327 C6321 1.429 . S
C6327 C6328 1.523 . S
C6328 C6309 1.368 . S
C6328 C6322 1.368 . S
C6328 C6327 1.523 . S
C6329 C6313 1.429 . S
C6329 C6325 1.429 . S
C6329 C6330 1.523 . S
C6330 C6314 1.368 . S
C6330 C6326 1.368 . S
C6330 C6329 1.523 . S
H6331 C6306 0.950 . S
H6332 C6308 0.950 . S
H6333 C6309 0.949 . S
H6334 C6311 0.950 . S
H6335 C6313 0.950 . S
C3457 C665 1.437 . S
C3462 C2168 1.360 . S
C3487 C381 2.160 . S
C3492 C2259 2.122 . S
C3517 C460 1.427 . S
C3522 C2336 1.401 1_565 S
C3552 C2434 1.614 . S
C3547 C585 1.766 . S
C3577 C108 1.613 . S
C3582 C2518 1.527 . S
C3612 C2590 0.857 . S
C3607 C196 0.912 . S
C3642 C2679 0.545 . S
C3637 C313 0.554 . S
C3667 C49 1.056 . S
C3672 C2756 0.982 . S
C3702 C2175 1.861 . S
C3697 C1457 1.947 . S
C3727 C1545 0.372 . S
C3732 C2266 0.548 . S
C3762 C2343 1.140 . S
C3757 C1721 1.171 . S
C3792 C2420 1.564 . S
C3787 C1113 1.616 . S
C3817 C1428 2.018 . S
C3822 C2504 1.898 . S
C3852 C2606 0.993 . S
C3847 C1516 1.042 . S
C3882 C2686 0.656 . S
C3877 C1692 0.598 . S
C3912 C2763 1.193 . S
C3907 C1085 1.269 . S
C3942 C2182 1.413 . S
C3937 C988 1.543 . S
C3967 C1817 2.039 . S
C3972 C2847 1.967 . S
C4002 C2935 2.010 . S
C3997 C2081 2.174 . S
C4032 C3008 0.464 . S
C4027 C1993 0.233 . S
C4057 C761 0.501 . S
C4062 C2770 0.548 . S
C4087 C821 1.389 . S
C4092 C2350 1.325 . S
C4117 C2053 2.423 . S
C4122 C3099 2.342 . S
C4152 C3176 0.624 . S
C4147 C1868 0.589 . S
C4182 C2179 1.355 1_565 S
C4177 C372 1.435 . S
C4212 C3194 2.120 . S
C4207 C645 2.154 . S
C4237 C577 1.422 . S
C4242 C2347 1.396 . S
C4267 C497 1.763 . S
C4272 C3094 1.610 . S
C4302 C2506 1.524 . S
C4297 C57 1.612 . S
C4327 C293 0.907 . S
C4332 C2938 0.853 . S
C4362 C2690 0.540 . S
C4357 C205 0.553 . S
C4392 C3271 0.977 . S
C4387 C145 1.052 . S
C4422 C2186 1.857 . S
C4417 C909 1.941 1_545 S
C4452 C3178 0.546 . S
C4447 C1956 0.368 . S
C4477 C724 1.167 . S
C4482 C2354 1.138 . S
C4507 C1780 1.611 . S
C4512 C3103 1.549 . S
C4537 C937 2.019 . S
C4542 C2515 1.890 . S
C4572 C2931 0.989 . S
C4567 C1985 1.038 . S
C4597 C753 0.593 . S
C4602 C2674 0.653 . S
C4627 C1809 1.263 . S
C4632 C3278 1.194 . S
C4657 C1173 1.540 . S
C4662 C2170 1.411 . S
C4687 C1105 2.033 . S
C4692 C2858 1.967 . S
C4717 C1633 2.170 . S
C4722 C2588 2.006 . S
C4747 C1553 0.223 . S
C4752 C3019 0.467 . S
C4782 C3262 0.545 . S
C4777 C1729 0.494 . S
C4807 C1340 1.389 . S
C4812 C2338 1.277 1_565 S
C4842 C2438 2.338 . S
C4837 C1604 2.417 . S
C4872 C2263 0.619 . S
C4867 C1252 0.582 . S
C4897 C489 1.437 . S
C4902 C3344 1.360 . S
C4932 C3183 2.122 . S
C4927 C557 2.161 . S
C4957 C636 1.427 . S
C4962 C3428 1.402 . S
C4987 C409 1.766 1_655 S
C4992 C3106 1.614 . S
C5017 C284 1.613 . S
C5022 C2854 1.527 . S
C5052 C2926 0.857 . S
C5047 C20 0.912 . S
C5082 C3015 0.545 . S
C5077 C137 0.554 . S
C5112 C3260 0.982 . S
C5107 C225 1.056 . S
C5142 C3351 1.861 . S
C5137 C1641 1.947 . S
C5167 C1193 0.373 . S
C5172 C3190 0.548 . S
C5202 C3435 1.140 . S
C5197 C1289 1.171 . S
C5232 C3092 1.564 . S
C5227 C1377 1.616 . S
C5262 C2840 1.898 . S
C5257 C1613 2.018 . S
C5287 C1164 1.042 . S
C5292 C2942 0.993 . S
C5322 C3022 0.656 . S
C5317 C1261 0.598 . S
C5347 C1349 1.269 . S
C5352 C3267 1.193 . S
C5382 C3358 1.413 . S
C5377 C1965 1.543 . S
C5407 C849 2.038 . S
C5412 C2511 1.970 . S
C5442 C2599 2.011 . S
C5437 C929 2.182 . S
C5472 C2672 0.464 . S
C5467 C1017 0.233 . S
C5502 C3274 0.547 . S
C5497 C1897 0.501 . S
C5527 C1789 1.389 . S
C5532 C3442 1.321 . S
C5562 C2427 2.341 . S
C5557 C900 2.414 . S
C5592 C2252 0.623 . S
C5587 C733 0.588 . S
C5617 C548 1.435 . S
C5622 C3355 1.355 . S
C5652 C2270 2.120 . S
C5647 C469 2.154 . S
C5677 C401 1.422 . S
C5682 C3439 1.396 . S
C5707 C673 1.763 . S
C5712 C2422 1.611 . S
C5737 C233 1.612 . S
C5742 C2842 1.491 1_556 S
C5772 C2602 0.853 . S
C5767 C117 0.907 . S
C5797 C29 0.553 . S
C5802 C3026 0.540 . S
C5827 C321 1.052 . S
C5832 C2767 0.977 . S
C5862 C3362 1.857 . S
C5857 C2044 1.941 . S
C5887 C997 0.368 . S
C5892 C2254 0.546 . S
C5922 C3446 1.138 . S
C5917 C1877 1.167 . S
C5947 C812 1.612 . S
C5952 C2431 1.558 . S
C5977 C2073 2.019 . S
C5982 C2851 1.893 . S
C6012 C2595 0.989 . S
C6007 C1025 1.038 . S
C6037 C1905 0.593 . S
C6042 C3010 0.653 . S
C6072 C2774 1.187 . S
C6067 C841 1.263 . S
C6102 C3346 1.411 . S
C6097 C1525 1.540 . S
C6132 C2522 1.967 1_655 S
C6127 C1369 2.033 . S
C6157 C1465 2.170 . S
C6162 C2924 2.006 . S
C6192 C2683 0.467 . S
C6187 C1201 0.223 . S
C6217 C1281 0.495 . S
C6222 C2758 0.545 . S
C6247 C1076 1.389 . S
C6252 C3430 1.323 . S
C6282 C3110 2.338 . S
C6277 C1437 2.418 1_565 S
C6312 C3187 0.619 . S
C6307 C1701 0.582 . S
