# Generated by pormake.
# Topology iac, (4,6)-cn, num edge types: 1
# Building blocks:
#     Node 0, Type 0, BuildingBlock: UXUYUI_clean_sbu_0, # of connection points: 4
#     Node 1, Type 0, BuildingBlock: UXUYUI_clean_sbu_0, # of connection points: 4
#     Node 2, Type 0, BuildingBlock: UXUYUI_clean_sbu_0, # of connection points: 4
#     Node 3, Type 0, BuildingBlock: UXUYUI_clean_sbu_0, # of connection points: 4
#     Node 4, Type 0, BuildingBlock: UXUYUI_clean_sbu_0, # of connection points: 4
#     Node 5, Type 0, BuildingBlock: UXUYUI_clean_sbu_0, # of connection points: 4
#     Node 6, Type 0, BuildingBlock: UXUYUI_clean_sbu_0, # of connection points: 4
#     Node 7, Type 0, BuildingBlock: UXUYUI_clean_sbu_0, # of connection points: 4
#     Node 8, Type 0, BuildingBlock: UXUYUI_clean_sbu_0, # of connection points: 4
#     Node 9, Type 0, BuildingBlock: UXUYUI_clean_sbu_0, # of connection points: 4
#     Node 10, Type 0, BuildingBlock: UXUYUI_clean_sbu_0, # of connection points: 4
#     Node 11, Type 0, BuildingBlock: UXUYUI_clean_sbu_0, # of connection points: 4
#     Node 12, Type 0, BuildingBlock: UXUYUI_clean_sbu_0, # of connection points: 4
#     Node 13, Type 0, BuildingBlock: UXUYUI_clean_sbu_0, # of connection points: 4
#     Node 14, Type 0, BuildingBlock: UXUYUI_clean_sbu_0, # of connection points: 4
#     Node 15, Type 0, BuildingBlock: UXUYUI_clean_sbu_0, # of connection points: 4
#     Node 16, Type 0, BuildingBlock: UXUYUI_clean_sbu_0, # of connection points: 4
#     Node 17, Type 0, BuildingBlock: UXUYUI_clean_sbu_0, # of connection points: 4
#     Node 18, Type 0, BuildingBlock: UXUYUI_clean_sbu_0, # of connection points: 4
#     Node 19, Type 0, BuildingBlock: UXUYUI_clean_sbu_0, # of connection points: 4
#     Node 20, Type 0, BuildingBlock: UXUYUI_clean_sbu_0, # of connection points: 4
#     Node 21, Type 0, BuildingBlock: UXUYUI_clean_sbu_0, # of connection points: 4
#     Node 22, Type 0, BuildingBlock: UXUYUI_clean_sbu_0, # of connection points: 4
#     Node 23, Type 0, BuildingBlock: UXUYUI_clean_sbu_0, # of connection points: 4
#     Node 24, Type 1, BuildingBlock: JUFBIX_clean_sbu_0, # of connection points: 6
#     Node 25, Type 1, BuildingBlock: JUFBIX_clean_sbu_0, # of connection points: 6
#     Node 26, Type 1, BuildingBlock: JUFBIX_clean_sbu_0, # of connection points: 6
#     Node 27, Type 1, BuildingBlock: JUFBIX_clean_sbu_0, # of connection points: 6
#     Node 28, Type 1, BuildingBlock: JUFBIX_clean_sbu_0, # of connection points: 6
#     Node 29, Type 1, BuildingBlock: JUFBIX_clean_sbu_0, # of connection points: 6
#     Node 30, Type 1, BuildingBlock: JUFBIX_clean_sbu_0, # of connection points: 6
#     Node 31, Type 1, BuildingBlock: JUFBIX_clean_sbu_0, # of connection points: 6
#     Node 32, Type 1, BuildingBlock: JUFBIX_clean_sbu_0, # of connection points: 6
#     Node 33, Type 1, BuildingBlock: JUFBIX_clean_sbu_0, # of connection points: 6
#     Node 34, Type 1, BuildingBlock: JUFBIX_clean_sbu_0, # of connection points: 6
#     Node 35, Type 1, BuildingBlock: JUFBIX_clean_sbu_0, # of connection points: 6
#     Node 36, Type 1, BuildingBlock: JUFBIX_clean_sbu_0, # of connection points: 6
#     Node 37, Type 1, BuildingBlock: JUFBIX_clean_sbu_0, # of connection points: 6
#     Node 38, Type 1, BuildingBlock: JUFBIX_clean_sbu_0, # of connection points: 6
#     Node 39, Type 1, BuildingBlock: JUFBIX_clean_sbu_0, # of connection points: 6
#     Edge 40, Type (0, 1), BuildingBlock: EZIPEK_clean_linker_0, # of connection points: 2
#     Edge 41, Type (0, 1), BuildingBlock: EZIPEK_clean_linker_0, # of connection points: 2
#     Edge 42, Type (0, 1), BuildingBlock: EZIPEK_clean_linker_0, # of connection points: 2
#     Edge 43, Type (0, 1), BuildingBlock: EZIPEK_clean_linker_0, # of connection points: 2
#     Edge 44, Type (0, 1), BuildingBlock: EZIPEK_clean_linker_0, # of connection points: 2
#     Edge 45, Type (0, 1), BuildingBlock: EZIPEK_clean_linker_0, # of connection points: 2
#     Edge 46, Type (0, 1), BuildingBlock: EZIPEK_clean_linker_0, # of connection points: 2
#     Edge 47, Type (0, 1), BuildingBlock: EZIPEK_clean_linker_0, # of connection points: 2
#     Edge 48, Type (0, 1), BuildingBlock: EZIPEK_clean_linker_0, # of connection points: 2
#     Edge 49, Type (0, 1), BuildingBlock: EZIPEK_clean_linker_0, # of connection points: 2
#     Edge 50, Type (0, 1), BuildingBlock: EZIPEK_clean_linker_0, # of connection points: 2
#     Edge 51, Type (0, 1), BuildingBlock: EZIPEK_clean_linker_0, # of connection points: 2
#     Edge 52, Type (0, 1), BuildingBlock: EZIPEK_clean_linker_0, # of connection points: 2
#     Edge 53, Type (0, 1), BuildingBlock: EZIPEK_clean_linker_0, # of connection points: 2
#     Edge 54, Type (0, 1), BuildingBlock: EZIPEK_clean_linker_0, # of connection points: 2
#     Edge 55, Type (0, 1), BuildingBlock: EZIPEK_clean_linker_0, # of connection points: 2
#     Edge 56, Type (0, 1), BuildingBlock: EZIPEK_clean_linker_0, # of connection points: 2
#     Edge 57, Type (0, 1), BuildingBlock: EZIPEK_clean_linker_0, # of connection points: 2
#     Edge 58, Type (0, 1), BuildingBlock: EZIPEK_clean_linker_0, # of connection points: 2
#     Edge 59, Type (0, 1), BuildingBlock: EZIPEK_clean_linker_0, # of connection points: 2
#     Edge 60, Type (0, 1), BuildingBlock: EZIPEK_clean_linker_0, # of connection points: 2
#     Edge 61, Type (0, 1), BuildingBlock: EZIPEK_clean_linker_0, # of connection points: 2
#     Edge 62, Type (0, 1), BuildingBlock: EZIPEK_clean_linker_0, # of connection points: 2
#     Edge 63, Type (0, 1), BuildingBlock: EZIPEK_clean_linker_0, # of connection points: 2
#     Edge 64, Type (0, 1), BuildingBlock: EZIPEK_clean_linker_0, # of connection points: 2
#     Edge 65, Type (0, 1), BuildingBlock: EZIPEK_clean_linker_0, # of connection points: 2
#     Edge 66, Type (0, 1), BuildingBlock: EZIPEK_clean_linker_0, # of connection points: 2
#     Edge 67, Type (0, 1), BuildingBlock: EZIPEK_clean_linker_0, # of connection points: 2
#     Edge 68, Type (0, 1), BuildingBlock: EZIPEK_clean_linker_0, # of connection points: 2
#     Edge 69, Type (0, 1), BuildingBlock: EZIPEK_clean_linker_0, # of connection points: 2
#     Edge 70, Type (0, 1), BuildingBlock: EZIPEK_clean_linker_0, # of connection points: 2
#     Edge 71, Type (0, 1), BuildingBlock: EZIPEK_clean_linker_0, # of connection points: 2
#     Edge 72, Type (0, 1), BuildingBlock: EZIPEK_clean_linker_0, # of connection points: 2
#     Edge 73, Type (0, 1), BuildingBlock: EZIPEK_clean_linker_0, # of connection points: 2
#     Edge 74, Type (0, 1), BuildingBlock: EZIPEK_clean_linker_0, # of connection points: 2
#     Edge 75, Type (0, 1), BuildingBlock: EZIPEK_clean_linker_0, # of connection points: 2
#     Edge 76, Type (0, 1), BuildingBlock: EZIPEK_clean_linker_0, # of connection points: 2
#     Edge 77, Type (0, 1), BuildingBlock: EZIPEK_clean_linker_0, # of connection points: 2
#     Edge 78, Type (0, 1), BuildingBlock: EZIPEK_clean_linker_0, # of connection points: 2
#     Edge 79, Type (0, 1), BuildingBlock: EZIPEK_clean_linker_0, # of connection points: 2
#     Edge 80, Type (0, 1), BuildingBlock: EZIPEK_clean_linker_0, # of connection points: 2
#     Edge 81, Type (0, 1), BuildingBlock: EZIPEK_clean_linker_0, # of connection points: 2
#     Edge 82, Type (0, 1), BuildingBlock: EZIPEK_clean_linker_0, # of connection points: 2
#     Edge 83, Type (0, 1), BuildingBlock: EZIPEK_clean_linker_0, # of connection points: 2
#     Edge 84, Type (0, 1), BuildingBlock: EZIPEK_clean_linker_0, # of connection points: 2
#     Edge 85, Type (0, 1), BuildingBlock: EZIPEK_clean_linker_0, # of connection points: 2
#     Edge 86, Type (0, 1), BuildingBlock: EZIPEK_clean_linker_0, # of connection points: 2
#     Edge 87, Type (0, 1), BuildingBlock: EZIPEK_clean_linker_0, # of connection points: 2
#     Edge 88, Type (0, 1), BuildingBlock: EZIPEK_clean_linker_0, # of connection points: 2
#     Edge 89, Type (0, 1), BuildingBlock: EZIPEK_clean_linker_0, # of connection points: 2
#     Edge 90, Type (0, 1), BuildingBlock: EZIPEK_clean_linker_0, # of connection points: 2
#     Edge 91, Type (0, 1), BuildingBlock: EZIPEK_clean_linker_0, # of connection points: 2
#     Edge 92, Type (0, 1), BuildingBlock: EZIPEK_clean_linker_0, # of connection points: 2
#     Edge 93, Type (0, 1), BuildingBlock: EZIPEK_clean_linker_0, # of connection points: 2
#     Edge 94, Type (0, 1), BuildingBlock: EZIPEK_clean_linker_0, # of connection points: 2
#     Edge 95, Type (0, 1), BuildingBlock: EZIPEK_clean_linker_0, # of connection points: 2
#     Edge 96, Type (0, 1), BuildingBlock: EZIPEK_clean_linker_0, # of connection points: 2
#     Edge 97, Type (0, 1), BuildingBlock: EZIPEK_clean_linker_0, # of connection points: 2
#     Edge 98, Type (0, 1), BuildingBlock: EZIPEK_clean_linker_0, # of connection points: 2
#     Edge 99, Type (0, 1), BuildingBlock: EZIPEK_clean_linker_0, # of connection points: 2
#     Edge 100, Type (0, 1), BuildingBlock: EZIPEK_clean_linker_0, # of connection points: 2
#     Edge 101, Type (0, 1), BuildingBlock: EZIPEK_clean_linker_0, # of connection points: 2
#     Edge 102, Type (0, 1), BuildingBlock: EZIPEK_clean_linker_0, # of connection points: 2
#     Edge 103, Type (0, 1), BuildingBlock: EZIPEK_clean_linker_0, # of connection points: 2
#     Edge 104, Type (0, 1), BuildingBlock: EZIPEK_clean_linker_0, # of connection points: 2
#     Edge 105, Type (0, 1), BuildingBlock: EZIPEK_clean_linker_0, # of connection points: 2
#     Edge 106, Type (0, 1), BuildingBlock: EZIPEK_clean_linker_0, # of connection points: 2
#     Edge 107, Type (0, 1), BuildingBlock: EZIPEK_clean_linker_0, # of connection points: 2
#     Edge 108, Type (0, 1), BuildingBlock: EZIPEK_clean_linker_0, # of connection points: 2
#     Edge 109, Type (0, 1), BuildingBlock: EZIPEK_clean_linker_0, # of connection points: 2
#     Edge 110, Type (0, 1), BuildingBlock: EZIPEK_clean_linker_0, # of connection points: 2
#     Edge 111, Type (0, 1), BuildingBlock: EZIPEK_clean_linker_0, # of connection points: 2
#     Edge 112, Type (0, 1), BuildingBlock: EZIPEK_clean_linker_0, # of connection points: 2
#     Edge 113, Type (0, 1), BuildingBlock: EZIPEK_clean_linker_0, # of connection points: 2
#     Edge 114, Type (0, 1), BuildingBlock: EZIPEK_clean_linker_0, # of connection points: 2
#     Edge 115, Type (0, 1), BuildingBlock: EZIPEK_clean_linker_0, # of connection points: 2
#     Edge 116, Type (0, 1), BuildingBlock: EZIPEK_clean_linker_0, # of connection points: 2
#     Edge 117, Type (0, 1), BuildingBlock: EZIPEK_clean_linker_0, # of connection points: 2
#     Edge 118, Type (0, 1), BuildingBlock: EZIPEK_clean_linker_0, # of connection points: 2
#     Edge 119, Type (0, 1), BuildingBlock: EZIPEK_clean_linker_0, # of connection points: 2
#     Edge 120, Type (0, 1), BuildingBlock: EZIPEK_clean_linker_0, # of connection points: 2
#     Edge 121, Type (0, 1), BuildingBlock: EZIPEK_clean_linker_0, # of connection points: 2
#     Edge 122, Type (0, 1), BuildingBlock: EZIPEK_clean_linker_0, # of connection points: 2
#     Edge 123, Type (0, 1), BuildingBlock: EZIPEK_clean_linker_0, # of connection points: 2
#     Edge 124, Type (0, 1), BuildingBlock: EZIPEK_clean_linker_0, # of connection points: 2
#     Edge 125, Type (0, 1), BuildingBlock: EZIPEK_clean_linker_0, # of connection points: 2
#     Edge 126, Type (0, 1), BuildingBlock: EZIPEK_clean_linker_0, # of connection points: 2
#     Edge 127, Type (0, 1), BuildingBlock: EZIPEK_clean_linker_0, # of connection points: 2
#     Edge 128, Type (0, 1), BuildingBlock: EZIPEK_clean_linker_0, # of connection points: 2
#     Edge 129, Type (0, 1), BuildingBlock: EZIPEK_clean_linker_0, # of connection points: 2
#     Edge 130, Type (0, 1), BuildingBlock: EZIPEK_clean_linker_0, # of connection points: 2
#     Edge 131, Type (0, 1), BuildingBlock: EZIPEK_clean_linker_0, # of connection points: 2
#     Edge 132, Type (0, 1), BuildingBlock: EZIPEK_clean_linker_0, # of connection points: 2
#     Edge 133, Type (0, 1), BuildingBlock: EZIPEK_clean_linker_0, # of connection points: 2
#     Edge 134, Type (0, 1), BuildingBlock: EZIPEK_clean_linker_0, # of connection points: 2
#     Edge 135, Type (0, 1), BuildingBlock: EZIPEK_clean_linker_0, # of connection points: 2
# Relax obj value: 0.272
# Max RMSD: 0.234
# Mean RMSD: 0.175
data_MOF--net-iac--node1-UXUYUI_clean_sbu_0--node2-JUFBIX_clean_sbu_0--edge1-EZIPEK_clean_linker_0
_symmetry_space_group_name_H-M    P1
_symmetry_Int_Tables_number       1
_symmetry_cell_setting            triclinic
loop_
_symmetry_equiv_pos_as_xyz
'x, y, z'
_cell_length_a     53.022694
_cell_length_b     54.072009
_cell_length_c     53.55396
_cell_angle_alpha  89.024924
_cell_angle_beta   87.836147
_cell_angle_gamma 88.306662
loop_
_atom_site_label
_atom_site_type_symbol
_atom_site_fract_x
_atom_site_fract_y
_atom_site_fract_z
_atom_type_partial_charge
Li0 Li 0.03169 0.30322 0.13251 0.0
Li1 Li 0.05525 0.27922 0.16775 0.0
Li2 Li 0.03044 0.25422 0.13369 0.0
Li3 Li 0.00611 0.27961 0.1676 0.0
C4 C 0.07738 0.28462 0.11151 0.0
N5 N 0.11095 0.3005 0.07441 0.0
C6 C 0.09833 0.29803 0.11766 0.0
C7 C 0.07356 0.27909 0.08658 0.0
C8 C 0.11507 0.30595 0.09861 0.0
C9 C 0.09073 0.28735 0.06807 0.0
C10 C 0.02803 0.32423 0.18871 0.0
C11 C 0.01774 0.33351 0.23183 0.0
N12 N 0.02353 0.35754 0.22724 0.0
C13 C 0.03378 0.34902 0.18437 0.0
C14 C 0.01986 0.31638 0.21258 0.0
C15 C 0.03143 0.36558 0.20412 0.0
C16 C 0.0101 0.34453 0.10168 0.0
N17 N 0.03168 0.33575 0.11236 0.0
C18 C 0.05235 0.37351 0.09924 0.0
C19 C 0.05261 0.34996 0.11121 0.0
C20 C 0.03031 0.38307 0.08824 0.0
C21 C 0.00904 0.36799 0.08954 0.0
H22 H 0.99335 0.33357 0.10298 0.0
H23 H 0.06951 0.34337 0.12017 0.0
C24 C 0.10593 0.26266 0.18305 0.0
N25 N 0.08649 0.27905 0.18855 0.0
C26 C 0.12843 0.2625 0.19639 0.0
C27 C 0.11093 0.29586 0.22126 0.0
C28 C 0.08876 0.29543 0.20745 0.0
C29 C 0.13133 0.27935 0.21579 0.0
H30 H 0.10415 0.2498 0.16801 0.0
H31 H 0.07351 0.3085 0.21176 0.0
C32 C 0.98593 0.27711 0.1121 0.0
N33 N 0.9526 0.27043 0.07461 0.0
C34 C 0.96108 0.27066 0.11809 0.0
C35 C 0.99385 0.28027 0.08711 0.0
C36 C 0.94451 0.26734 0.09884 0.0
C37 C 0.9767 0.27678 0.0684 0.0
C38 C 0.02667 0.23479 0.19072 0.0
C39 C 0.01654 0.21175 0.1864 0.0
C40 C 0.03253 0.24116 0.21496 0.0
C41 C 0.01209 0.19553 0.20657 0.0
C42 C 0.0278 0.22443 0.23462 0.0
N43 N 0.01775 0.20216 0.23006 0.0
C44 C 0.04973 0.20676 0.11119 0.0
C45 C 0.00556 0.21251 0.10982 0.0
C46 C 0.04833 0.18307 0.10051 0.0
N47 N 0.02852 0.22121 0.11573 0.0
C48 C 0.00336 0.18903 0.09896 0.0
C49 C 0.02488 0.17368 0.09419 0.0
H50 H 0.06788 0.21343 0.11617 0.0
H51 H 0.98868 0.22361 0.11387 0.0
C52 C 0.96033 0.30278 0.18948 0.0
N53 N 0.97339 0.28074 0.18738 0.0
C54 C 0.93628 0.30415 0.2016 0.0
C55 C 0.93929 0.26023 0.20959 0.0
C56 C 0.9632 0.25966 0.19721 0.0
C57 C 0.92537 0.28265 0.21178 0.0
H58 H 0.96838 0.31935 0.18132 0.0
H59 H 0.97331 0.24218 0.19503 0.0
O60 O 0.06071 0.27688 0.12986 0.0
O61 O 0.03001 0.30783 0.16957 0.0
O62 O 0.0024 0.28036 0.13065 0.0
O63 O 0.03118 0.25087 0.17124 0.0
H64 H 0.10152 0.30239 0.13692 0.0
H65 H 0.05751 0.26853 0.0816 0.0
H66 H 0.13133 0.31643 0.10305 0.0
H67 H 0.088 0.28328 0.04866 0.0
H68 H 0.01146 0.3277 0.25041 0.0
H69 H 0.04001 0.35539 0.16595 0.0
H70 H 0.01514 0.29729 0.21617 0.0
H71 H 0.03586 0.38482 0.20106 0.0
H72 H 0.0692 0.38437 0.09892 0.0
H73 H 0.99157 0.37447 0.08148 0.0
H74 H 0.14365 0.24953 0.19133 0.0
H75 H 0.1123 0.30932 0.23587 0.0
H76 H 0.95471 0.26818 0.13739 0.0
H77 H 0.01301 0.28541 0.08225 0.0
H78 H 0.92523 0.26229 0.10317 0.0
H79 H 0.98254 0.27915 0.04896 0.0
H80 H 0.01203 0.20652 0.1677 0.0
H81 H 0.04071 0.2588 0.21852 0.0
H82 H 0.00414 0.17768 0.20355 0.0
H83 H 0.03217 0.22912 0.2535 0.0
H84 H 0.06551 0.17208 0.09726 0.0
H85 H 0.98486 0.18282 0.09447 0.0
H86 H 0.92613 0.32179 0.20274 0.0
H87 H 0.93149 0.2432 0.21698 0.0
Li88 Li 0.02497 0.76035 0.39958 0.0
Li89 Li 0.04443 0.78613 0.42947 0.0
Li90 Li 0.06925 0.76451 0.39755 0.0
Li91 Li 0.05126 0.74306 0.43245 0.0
C92 C 0.05508 0.80536 0.37555 0.0
N93 N 0.08069 0.83389 0.34025 0.0
C94 C 0.06638 0.82707 0.38258 0.0
C95 C 0.05659 0.79826 0.35054 0.0
C96 C 0.07927 0.84123 0.36444 0.0
C97 C 0.06972 0.81289 0.33299 0.0
C98 C 1.00133 0.77237 0.45169 0.0
C99 C 0.9895 0.78948 0.4919 0.0
N100 N 0.96714 0.79771 0.48275 0.0
C101 C 0.97816 0.78085 0.44273 0.0
C102 C 0.00701 0.77657 0.47652 0.0
C103 C 0.96115 0.79368 0.45871 0.0
C104 C 0.98016 0.73961 0.38113 0.0
N105 N 0.99617 0.75884 0.38036 0.0
C106 C 0.97059 0.78133 0.35176 0.0
C107 C 0.99172 0.77945 0.36618 0.0
C108 C 0.95393 0.76182 0.35207 0.0
C109 C 0.95878 0.74058 0.36666 0.0
H110 H 0.98378 0.72377 0.39318 0.0
H111 H 0.00423 0.79478 0.36646 0.0
C112 C 0.05326 0.82252 0.46537 0.0
N113 N 0.03861 0.81564 0.44657 0.0
C114 C 0.0469 0.84389 0.47867 0.0
C115 C 0.01073 0.85047 0.45275 0.0
C116 C 0.01803 0.82929 0.43973 0.0
C117 C 0.02523 0.85781 0.47248 0.0
H118 H 0.06965 0.81133 0.47014 0.0
H119 H 0.00699 0.82332 0.42447 0.0
C120 C 0.03932 0.71587 0.38447 0.0
N121 N 0.01465 0.68001 0.35941 0.0
C122 C 0.03006 0.69519 0.39742 0.0
C123 C 0.03596 0.71834 0.35875 0.0
C124 C 0.0177 0.67724 0.38442 0.0
C125 C 0.02342 0.70003 0.34644 0.0
C126 C 0.09397 0.75828 0.44854 0.0
C127 C 0.11595 0.74655 0.43881 0.0
C128 C 0.08914 0.75841 0.47438 0.0
C129 C 0.13268 0.73496 0.45513 0.0
C130 C 0.10631 0.74656 0.49007 0.0
N131 N 0.12754 0.73518 0.48021 0.0
C132 C 0.11481 0.78248 0.37898 0.0
C133 C 0.10057 0.74687 0.35887 0.0
C134 C 0.13667 0.78231 0.36387 0.0
N135 N 0.09742 0.76493 0.37612 0.0
C136 C 0.1221 0.74603 0.3433 0.0
C137 C 0.14034 0.7638 0.34604 0.0
H138 H 0.11179 0.79627 0.39325 0.0
H139 H 0.08664 0.73289 0.3575 0.0
C140 C 0.04187 0.71207 0.4741 0.0
N141 N 0.05712 0.71594 0.45358 0.0
C142 C 0.044 0.68991 0.4875 0.0
C143 C 0.07853 0.67704 0.45925 0.0
C144 C 0.07567 0.69941 0.44634 0.0
C145 C 0.06185 0.67189 0.47938 0.0
H146 H 0.02713 0.72547 0.4791 0.0
H147 H 0.08716 0.70302 0.42963 0.0
O148 O 0.04274 0.79101 0.39309 0.0
O149 O 0.01836 0.76005 0.43624 0.0
O150 O 0.05174 0.73352 0.39682 0.0
O151 O 0.07716 0.76942 0.43286 0.0
H152 H 0.0654 0.8328 0.40187 0.0
H153 H 0.04799 0.78146 0.34482 0.0
H154 H 0.08821 0.85803 0.36962 0.0
H155 H 0.07124 0.80752 0.31361 0.0
H156 H 0.99373 0.79301 0.5111 0.0
H157 H 0.97341 0.77774 0.4236 0.0
H158 H 0.02492 0.77028 0.48373 0.0
H159 H 0.94321 0.80046 0.45199 0.0
H160 H 0.96699 0.79803 0.34083 0.0
H161 H 0.94586 0.72542 0.36735 0.0
H162 H 0.0585 0.84939 0.49373 0.0
H163 H 0.99402 0.86105 0.44753 0.0
H164 H 0.03217 0.69309 0.41732 0.0
H165 H 0.04266 0.73439 0.34846 0.0
H166 H 0.01044 0.66114 0.39423 0.0
H167 H 0.02059 0.70177 0.32658 0.0
H168 H 0.11993 0.74609 0.41887 0.0
H169 H 0.07212 0.76723 0.4822 0.0
H170 H 0.1497 0.7257 0.44786 0.0
H171 H 0.10273 0.74635 0.51009 0.0
H172 H 0.15068 0.79618 0.36622 0.0
H173 H 0.12473 0.73156 0.32962 0.0
H174 H 0.03058 0.68603 0.50273 0.0
H175 H 0.09204 0.66312 0.45234 0.0
Li176 Li 0.55404 0.78048 0.66777 0.0
Li177 Li 0.53054 0.80419 0.6327 0.0
Li178 Li 0.50493 0.78048 0.66834 0.0
Li179 Li 0.52911 0.75547 0.63447 0.0
C180 C 0.53257 0.82607 0.68749 0.0
N181 N 0.54065 0.86103 0.72307 0.0
C182 C 0.54559 0.84745 0.68091 0.0
C183 C 0.52341 0.82257 0.71206 0.0
C184 C 0.54956 0.86488 0.69921 0.0
C185 C 0.52776 0.84043 0.72981 0.0
C186 C 0.5756 0.7843 0.6107 0.0
C187 C 0.58605 0.78672 0.56656 0.0
N188 N 0.60824 0.79727 0.5716 0.0
C189 C 0.59853 0.79505 0.61549 0.0
C190 C 0.5693 0.77998 0.5861 0.0
C191 C 0.61477 0.80152 0.59544 0.0
C192 C 0.59423 0.76038 0.70076 0.0
N193 N 0.58541 0.78116 0.68861 0.0
C194 C 0.62054 0.80368 0.70354 0.0
C195 C 0.59828 0.80259 0.68994 0.0
C196 C 0.63008 0.78254 0.71614 0.0
C197 C 0.61643 0.76069 0.71461 0.0
H198 H 0.58424 0.74333 0.69949 0.0
H199 H 0.59158 0.81892 0.68004 0.0
C200 C 0.507 0.84801 0.60815 0.0
N201 N 0.52979 0.83659 0.61255 0.0
C202 C 0.50546 0.87165 0.59643 0.0
C203 C 0.55077 0.8717 0.5933 0.0
C204 C 0.55148 0.84815 0.60521 0.0
C205 C 0.52754 0.88409 0.58889 0.0
H206 H 0.48983 0.83903 0.61427 0.0
H207 H 0.56953 0.83947 0.60914 0.0
C208 C 0.52606 0.73814 0.69342 0.0
N209 N 0.5178 0.71052 0.73664 0.0
C210 C 0.51811 0.71381 0.69209 0.0
C211 C 0.52998 0.74839 0.71668 0.0
C212 C 0.51397 0.70016 0.71418 0.0
C213 C 0.52567 0.73413 0.73833 0.0
C214 C 0.48539 0.7748 0.61305 0.0
C215 C 0.46347 0.76208 0.61942 0.0
C216 C 0.49128 0.78063 0.58804 0.0
C217 C 0.44783 0.75512 0.6005 0.0
C218 C 0.47515 0.77335 0.56967 0.0
N219 N 0.45395 0.76084 0.57622 0.0
C220 C 0.45891 0.80374 0.68924 0.0
C221 C 0.46227 0.76093 0.69862 0.0
C222 C 0.4347 0.80522 0.70103 0.0
N223 N 0.47225 0.7818 0.68807 0.0
C224 C 0.43826 0.76165 0.7108 0.0
C225 C 0.42397 0.78395 0.71194 0.0
H226 H 0.46684 0.82011 0.68053 0.0
H227 H 0.47261 0.7435 0.69713 0.0
C228 C 0.54554 0.71322 0.60095 0.0
N229 N 0.52654 0.72269 0.61623 0.0
C230 C 0.54363 0.6898 0.58977 0.0
C231 C 0.50264 0.68587 0.60984 0.0
C232 C 0.5053 0.7093 0.62063 0.0
C233 C 0.52198 0.67555 0.59418 0.0
H234 H 0.56248 0.72363 0.59762 0.0
H235 H 0.49041 0.71658 0.63301 0.0
O236 O 0.52838 0.80889 0.66983 0.0
O237 O 0.55942 0.77798 0.63006 0.0
O238 O 0.53008 0.75183 0.67203 0.0
O239 O 0.50101 0.7816 0.63125 0.0
H240 H 0.55266 0.85046 0.66192 0.0
H241 H 0.51291 0.8063 0.71732 0.0
H242 H 0.5597 0.88147 0.69443 0.0
H243 H 0.52083 0.83795 0.74892 0.0
H244 H 0.58143 0.78355 0.5474 0.0
H245 H 0.60366 0.79846 0.63446 0.0
H246 H 0.55168 0.77151 0.58214 0.0
H247 H 0.63255 0.80994 0.59884 0.0
H248 H 0.63048 0.82087 0.70388 0.0
H249 H 0.62313 0.74384 0.72371 0.0
H250 H 0.4871 0.88037 0.59369 0.0
H251 H 0.56834 0.88046 0.58806 0.0
H252 H 0.5151 0.70558 0.67422 0.0
H253 H 0.53642 0.7671 0.71797 0.0
H254 H 0.50773 0.68133 0.71345 0.0
H255 H 0.52862 0.74182 0.75647 0.0
H256 H 0.45868 0.75753 0.63875 0.0
H257 H 0.5081 0.79068 0.5829 0.0
H258 H 0.43083 0.74516 0.60511 0.0
H259 H 0.47947 0.77766 0.55021 0.0
H260 H 0.4243 0.82275 0.70135 0.0
H261 H 0.43062 0.74478 0.71875 0.0
H262 H 0.55913 0.68271 0.57796 0.0
H263 H 0.48566 0.67569 0.61401 0.0
Li264 Li 0.52605 0.26167 0.89695 0.0
Li265 Li 0.54853 0.2875 0.92486 0.0
Li266 Li 0.5704 0.26559 0.89099 0.0
Li267 Li 0.55481 0.24445 0.92774 0.0
C268 C 0.55338 0.30645 0.86989 0.0
N269 N 0.57354 0.33516 0.83141 0.0
C270 C 0.56553 0.32823 0.87514 0.0
C271 C 0.55127 0.29935 0.8451 0.0
C272 C 0.57563 0.34249 0.8554 0.0
C273 C 0.56167 0.31408 0.8259 0.0
C274 C 0.50657 0.2746 0.9502 0.0
C275 C 0.49789 0.29289 0.99051 0.0
N276 N 0.47457 0.30032 0.98311 0.0
C277 C 0.48245 0.28226 0.94306 0.0
C278 C 0.51431 0.2798 0.97419 0.0
C279 C 0.46657 0.29529 0.95994 0.0
C280 C 0.48118 0.24044 0.87861 0.0
N281 N 0.49577 0.26061 0.88001 0.0
C282 C 0.46774 0.28477 0.85519 0.0
C283 C 0.48921 0.2826 0.86906 0.0
C284 C 0.45291 0.26413 0.8527 0.0
C285 C 0.45953 0.2417 0.86453 0.0
H286 H 0.48634 0.22344 0.88825 0.0
H287 H 0.50056 0.29859 0.87122 0.0
C288 C 0.56209 0.32385 0.95879 0.0
N289 N 0.54499 0.31709 0.94212 0.0
C290 C 0.5577 0.34527 0.97261 0.0
C291 C 0.51829 0.35204 0.95165 0.0
C292 C 0.52371 0.33088 0.9379 0.0
C293 C 0.5354 0.3593 0.96922 0.0
H294 H 0.57893 0.31252 0.96149 0.0
H295 H 0.5107 0.32501 0.92425 0.0
C296 C 0.54009 0.21664 0.88052 0.0
N297 N 0.51574 0.17986 0.8565 0.0
C298 C 0.53275 0.19531 0.89365 0.0
C299 C 0.53496 0.21929 0.85517 0.0
C300 C 0.52051 0.17691 0.88117 0.0
C301 C 0.52262 0.20049 0.84337 0.0
C302 C 0.5993 0.25883 0.93959 0.0
C303 C 0.6201 0.2467 0.92796 0.0
C304 C 0.59685 0.25897 0.96566 0.0
C305 C 0.63807 0.23473 0.94268 0.0
C306 C 0.61519 0.24672 0.97971 0.0
N307 N 0.63525 0.23496 0.96803 0.0
C308 C 0.6139 0.28437 0.86852 0.0
C309 C 0.59831 0.2491 0.84892 0.0
C310 C 0.63459 0.28469 0.85183 0.0
N311 N 0.59651 0.26661 0.86684 0.0
C312 C 0.61863 0.24879 0.83173 0.0
C313 C 0.63716 0.26646 0.83359 0.0
H314 H 0.61197 0.2978 0.88326 0.0
H315 H 0.58448 0.23493 0.84845 0.0
C316 C 0.54578 0.21555 0.97043 0.0
N317 N 0.56093 0.21782 0.94957 0.0
C318 C 0.54723 0.19415 0.98508 0.0
C319 C 0.581 0.1786 0.95732 0.0
C320 C 0.57883 0.20032 0.94313 0.0
C321 C 0.56431 0.17515 0.97788 0.0
H322 H 0.53153 0.22961 0.9748 0.0
H323 H 0.59026 0.20259 0.92615 0.0
O324 O 0.54365 0.29207 0.88895 0.0
O325 O 0.52247 0.26201 0.93383 0.0
O326 O 0.55258 0.23462 0.89232 0.0
O327 O 0.58132 0.27035 0.92552 0.0
H328 H 0.56731 0.33396 0.89424 0.0
H329 H 0.54189 0.28252 0.84077 0.0
H330 H 0.58519 0.35936 0.85916 0.0
H331 H 0.56034 0.30874 0.80663 0.0
H332 H 0.50371 0.29721 0.00904 0.0
H333 H 0.47605 0.27829 0.92466 0.0
H334 H 0.53297 0.27415 0.97998 0.0
H335 H 0.4479 0.30143 0.95462 0.0
H336 H 0.46269 0.30238 0.84647 0.0
H337 H 0.448 0.22562 0.86308 0.0
H338 H 0.57129 0.35071 0.98592 0.0
H339 H 0.50104 0.36272 0.94858 0.0
H340 H 0.53635 0.19301 0.91327 0.0
H341 H 0.54012 0.23582 0.84478 0.0
H342 H 0.51475 0.16031 0.89111 0.0
H343 H 0.51845 0.20236 0.8238 0.0
H344 H 0.62223 0.24629 0.90781 0.0
H345 H 0.58075 0.26811 0.97494 0.0
H346 H 0.65422 0.22518 0.93395 0.0
H347 H 0.61344 0.2465 0.99991 0.0
H348 H 0.64889 0.29838 0.85365 0.0
H349 H 0.62048 0.23441 0.8179 0.0
H350 H 0.53381 0.19158 1.0006 0.0
H351 H 0.59391 0.16387 0.95112 0.0
Li352 Li 0.13919 0.00678 0.31736 0.0
Li353 Li 0.16823 0.03551 0.29778 0.0
Li354 Li 0.14075 0.00905 0.27278 0.0
Li355 Li 0.17649 0.99194 0.29515 0.0
C356 C 0.11032 0.04655 0.30822 0.0
N357 N 0.06899 0.06668 0.33439 0.0
C358 C 0.11291 0.06743 0.32285 0.0
C359 C 0.08666 0.03612 0.30661 0.0
C360 C 0.0918 0.07728 0.336 0.0
C361 C 0.06601 0.0465 0.32009 0.0
C362 C 0.1928 0.01206 0.34189 0.0
C363 C 0.2342 0.0236 0.35381 0.0
N364 N 0.23017 0.0123 0.37644 0.0
C365 C 0.18907 1.00055 0.36524 0.0
C366 C 0.21553 0.0237 0.33611 0.0
C367 C 0.20819 0.00089 0.38247 0.0
C368 C 0.1008 0.98694 0.35127 0.0
N369 N 0.1191 0.00372 0.34673 0.0
C370 C 0.11121 0.02175 0.38658 0.0
C371 C 0.12453 0.02086 0.36382 0.0
C372 C 0.09233 0.00471 0.39165 0.0
C373 C 0.08705 0.98707 0.37394 0.0
H374 H 0.09665 0.9736 0.33747 0.0
H375 H 0.13914 0.03399 0.35957 0.0
C376 C 0.19247 0.07676 0.27925 0.0
N377 N 0.18273 0.06561 0.3002 0.0
C378 C 0.20499 0.09882 0.28111 0.0
C379 C 0.19699 0.09716 0.32604 0.0
C380 C 0.18439 0.07533 0.32326 0.0
C381 C 0.20743 0.10889 0.30477 0.0
H382 H 0.19077 0.0683 0.26125 0.0
H383 H 0.17633 0.0658 0.33945 0.0
C384 C 0.12623 0.96039 0.2974 0.0
N385 N 0.09403 0.92143 0.30425 0.0
C386 C 0.13452 0.93857 0.30925 0.0
C387 C 0.10162 0.96237 0.28892 0.0
C388 C 0.11793 0.91908 0.31256 0.0
C389 C 0.08562 0.94247 0.2926 0.0
C390 C 0.19721 0.00879 0.2524 0.0
C391 C 0.19336 0.99509 0.23104 0.0
C392 C 0.22175 0.01432 0.2586 0.0
C393 C 0.2142 0.98683 0.21642 0.0
C394 C 0.24211 0.00572 0.2435 0.0
N395 N 0.23794 0.99225 0.22291 0.0
C396 C 0.11128 0.02806 0.2352 0.0
C397 C 0.12173 0.98502 0.23311 0.0
C398 C 0.09779 0.02695 0.21352 0.0
N399 N 0.1228 0.00725 0.24434 0.0
C400 C 0.10819 0.98298 0.21163 0.0
C401 C 0.09624 0.00417 0.20172 0.0
H402 H 0.11274 0.04541 0.24472 0.0
H403 H 0.13145 0.96897 0.24089 0.0
C404 C 0.22014 0.96299 0.30888 0.0
N405 N 0.20074 0.96622 0.29314 0.0
C406 C 0.23518 0.94149 0.30785 0.0
C407 C 0.21071 0.92777 0.27365 0.0
C408 C 0.19604 0.94939 0.27548 0.0
C409 C 0.23002 0.92357 0.2904 0.0
H410 H 0.22346 0.97643 0.32284 0.0
H411 H 0.18025 0.95242 0.26349 0.0
O412 O 0.13086 0.03638 0.29555 0.0
O413 O 0.17403 0.01233 0.32508 0.0
O414 O 0.14242 0.97938 0.2935 0.0
O415 O 0.17705 0.01692 0.26702 0.0
H416 H 0.13102 0.07587 0.32413 0.0
H417 H 0.08432 0.02008 0.29524 0.0
H418 H 0.09356 0.09335 0.34751 0.0
H419 H 0.04761 0.0385 0.31918 0.0
H420 H 0.25189 0.03249 0.34956 0.0
H421 H 0.17159 0.99144 0.37001 0.0
H422 H 0.21881 0.0326 0.31811 0.0
H423 H 0.20555 0.99208 0.40063 0.0
H424 H 0.11548 0.03561 0.40006 0.0
H425 H 0.07238 0.97381 0.37756 0.0
H426 H 0.21296 0.10775 0.26448 0.0
H427 H 0.1987 0.10477 0.34446 0.0
H428 H 0.15358 0.93671 0.31576 0.0
H429 H 0.09485 0.97913 0.27981 0.0
H430 H 0.12406 0.90207 0.3217 0.0
H431 H 0.0665 0.94379 0.28623 0.0
H432 H 0.1745 0.99079 0.22586 0.0
H433 H 0.22505 0.02512 0.27489 0.0
H434 H 0.2115 0.97612 0.19991 0.0
H435 H 0.26121 0.00978 0.24814 0.0
H436 H 0.08874 0.04353 0.20599 0.0
H437 H 0.10727 0.96525 0.20263 0.0
H438 H 0.24991 0.93837 0.32112 0.0
H439 H 0.2063 0.91395 0.26019 0.0
Li440 Li 0.23185 0.91771 0.54723 0.0
Li441 Li 0.24693 0.88005 0.56587 0.0
Li442 Li 0.27747 0.91137 0.55116 0.0
Li443 Li 0.25484 0.88538 0.52307 0.0
C444 C 0.25451 0.93261 0.59429 0.0
N445 N 0.26193 0.96993 0.62758 0.0
C446 C 0.25958 0.92683 0.61916 0.0
C447 C 0.25311 0.95736 0.58635 0.0
C448 C 0.26332 0.94597 0.63571 0.0
C449 C 0.25693 0.97597 0.60347 0.0
C450 C 0.20294 0.86869 0.54934 0.0
C451 C 0.18727 0.82789 0.55808 0.0
N452 N 0.16639 0.83818 0.56976 0.0
C453 C 0.18117 0.87885 0.56117 0.0
C454 C 0.20587 0.84301 0.54751 0.0
C455 C 0.16296 0.86313 0.57145 0.0
C456 C 0.19431 0.95126 0.52915 0.0
N457 N 0.20516 0.94084 0.54951 0.0
C458 C 0.17345 0.95857 0.57689 0.0
C459 C 0.19532 0.94427 0.57305 0.0
C460 C 0.16152 0.96886 0.55622 0.0
C461 C 0.17216 0.9656 0.53213 0.0
H462 H 0.20212 0.94752 0.51065 0.0
H463 H 0.20364 0.93477 0.58874 0.0
C464 C 0.25297 0.83679 0.59453 0.0
N465 N 0.23941 0.8583 0.59201 0.0
C466 C 0.25099 0.82322 0.61671 0.0
C467 C 0.21964 0.85327 0.6323 0.0
C468 C 0.22228 0.86631 0.6098 0.0
C469 C 0.2351 0.83225 0.63615 0.0
H470 H 0.26663 0.83117 0.58016 0.0
H471 H 0.21208 0.88372 0.60717 0.0
C472 C 0.25786 0.94144 0.50599 0.0
N473 N 0.25555 0.98208 0.47412 0.0
C474 C 0.24726 0.93951 0.48263 0.0
C475 C 0.26759 0.96392 0.51302 0.0
C476 C 0.24615 0.96031 0.46683 0.0
C477 C 0.26618 0.98428 0.49667 0.0
C478 C 0.29534 0.85665 0.5386 0.0
C479 C 0.32138 0.85993 0.5362 0.0
C480 C 0.28543 0.83429 0.53145 0.0
C481 C 0.33697 0.84102 0.52621 0.0
C482 C 0.30165 0.81573 0.52175 0.0
N483 N 0.32687 0.81947 0.51927 0.0
C484 C 0.31531 0.94246 0.57068 0.0
C485 C 0.3214 0.92556 0.5302 0.0
C486 C 0.3364 0.95702 0.56671 0.0
N487 N 0.30799 0.92764 0.5522 0.0
C488 C 0.34302 0.93902 0.52579 0.0
C489 C 0.35016 0.95551 0.54387 0.0
H490 H 0.30446 0.9437 0.58807 0.0
H491 H 0.31478 0.91394 0.51577 0.0
C492 C 0.2434 0.85442 0.48348 0.0
N493 N 0.26011 0.87023 0.49255 0.0
C494 C 0.25001 0.84082 0.46225 0.0
C495 C 0.29055 0.86054 0.46023 0.0
C496 C 0.28301 0.87398 0.48116 0.0
C497 C 0.27404 0.84357 0.45089 0.0
H498 H 0.22537 0.85187 0.49316 0.0
H499 H 0.29578 0.88665 0.48905 0.0
O500 O 0.25055 0.91403 0.57801 0.0
O501 O 0.22115 0.8838 0.53942 0.0
O502 O 0.25946 0.92115 0.52148 0.0
O503 O 0.27986 0.87492 0.54871 0.0
H504 H 0.26061 0.90775 0.6256 0.0
H505 H 0.24902 0.96215 0.56722 0.0
H506 H 0.2673 0.94178 0.65501 0.0
H507 H 0.2559 0.9952 0.59759 0.0
H508 H 0.18942 0.80798 0.55698 0.0
H509 H 0.17828 0.89863 0.5624 0.0
H510 H 0.22237 0.8348 0.53817 0.0
H511 H 0.1461 0.87077 0.58076 0.0
H512 H 0.16522 0.96056 0.5956 0.0
H513 H 0.1629 0.9732 0.5159 0.0
H514 H 0.26341 0.80723 0.61956 0.0
H515 H 0.20762 0.86077 0.64731 0.0
H516 H 0.23989 0.92214 0.47683 0.0
H517 H 0.27634 0.96562 0.53081 0.0
H518 H 0.23788 0.95915 0.44874 0.0
H519 H 0.27363 0.0018 0.50188 0.0
H520 H 0.32958 0.87673 0.54234 0.0
H521 H 0.26542 0.83127 0.53337 0.0
H522 H 0.35714 0.84338 0.52419 0.0
H523 H 0.2942 0.7983 0.51631 0.0
H524 H 0.34164 0.96964 0.581 0.0
H525 H 0.35337 0.9375 0.50802 0.0
H526 H 0.23696 0.82782 0.4552 0.0
H527 H 0.30918 0.86297 0.45167 0.0
Li528 Li 0.38625 0.03307 0.75492 0.0
Li529 Li 0.41469 0.05727 0.77901 0.0
Li530 Li 0.3814 0.07573 0.75495 0.0
Li531 Li 0.41695 0.05893 0.73253 0.0
C532 C 0.35731 0.06377 0.79622 0.0
N533 N 0.31519 0.08674 0.81845 0.0
C534 C 0.35972 0.07844 0.81717 0.0
C535 C 0.33343 0.06044 0.78682 0.0
C536 C 0.33821 0.08997 0.8281 0.0
C537 C 0.31239 0.07232 0.79824 0.0
C538 C 0.42809 0.00567 0.75118 0.0
C539 C 0.43932 0.97167 0.72398 0.0
N540 N 0.43494 0.9555 0.74328 0.0
C541 C 0.42382 0.98871 0.77079 0.0
C542 C 0.43598 0.9971 0.7276 0.0
C543 C 0.42734 0.96343 0.7664 0.0
C544 C 0.36878 0.98837 0.73564 0.0
N545 N 0.36957 0.00327 0.75577 0.0
C546 C 0.34512 0.97569 0.78097 0.0
C547 C 0.35826 0.99736 0.77815 0.0
C548 C 0.34391 0.96005 0.76059 0.0
C549 C 0.35588 0.96628 0.73768 0.0
H550 H 0.37814 0.99368 0.71815 0.0
H551 H 0.35959 0.00944 0.79386 0.0
C552 C 0.43348 0.07629 0.82311 0.0
N553 N 0.4349 0.05762 0.8064 0.0
C554 C 0.44793 0.07473 0.84432 0.0
C555 C 0.46582 0.03559 0.82961 0.0
C556 C 0.45109 0.0379 0.80884 0.0
C557 C 0.46383 0.05389 0.84771 0.0
H558 H 0.42087 0.09206 0.82016 0.0
H559 H 0.45229 0.02376 0.79488 0.0
C560 C 0.36301 0.05624 0.70881 0.0
N561 N 0.32546 0.06008 0.67442 0.0
C562 C 0.36617 0.07117 0.68741 0.0
C563 C 0.34079 0.04316 0.71263 0.0
C564 C 0.34694 0.07291 0.67028 0.0
C565 C 0.32203 0.04537 0.69505 0.0
C566 C 0.42222 0.10907 0.74769 0.0
C567 C 0.41225 0.11787 0.72535 0.0
C568 C 0.43797 0.12396 0.76092 0.0
C569 C 0.41822 0.14154 0.71658 0.0
C570 C 0.44355 0.1475 0.75151 0.0
N571 N 0.43363 0.15573 0.72973 0.0
C572 C 0.36476 0.1217 0.7701 0.0
C573 C 0.33808 0.1047 0.74059 0.0
C574 C 0.35043 0.14358 0.77038 0.0
N575 N 0.35869 0.10306 0.75495 0.0
C576 C 0.32332 0.12633 0.74012 0.0
C577 C 0.3298 0.14595 0.75495 0.0
H578 H 0.38094 0.11962 0.78174 0.0
H579 H 0.33292 0.08945 0.7295 0.0
C580 C 0.43226 0.05383 0.68337 0.0
N581 N 0.43883 0.06319 0.70544 0.0
C582 C 0.44827 0.05621 0.66249 0.0
C583 C 0.47727 0.07826 0.68743 0.0
C584 C 0.46067 0.07532 0.70796 0.0
C585 C 0.47107 0.06826 0.66464 0.0
H586 H 0.41487 0.04403 0.68224 0.0
H587 H 0.4653 0.08233 0.72596 0.0
O588 O 0.37823 0.05286 0.78482 0.0
O589 O 0.42451 0.03051 0.75504 0.0
O590 O 0.38181 0.05401 0.72559 0.0
O591 O 0.41654 0.08606 0.75681 0.0
H592 H 0.37798 0.08102 0.82485 0.0
H593 H 0.33124 0.04908 0.77067 0.0
H594 H 0.33982 0.10151 0.84423 0.0
H595 H 0.29383 0.07013 0.79099 0.0
H596 H 0.44539 0.96479 0.70581 0.0
H597 H 0.4175 0.995 0.78913 0.0
H598 H 0.43949 0.00992 0.71225 0.0
H599 H 0.42396 0.95011 0.78137 0.0
H600 H 0.33615 0.97102 0.79888 0.0
H601 H 0.35527 0.95423 0.72178 0.0
H602 H 0.44625 0.08908 0.8582 0.0
H603 H 0.47809 0.01939 0.83193 0.0
H604 H 0.38326 0.08131 0.684 0.0
H605 H 0.33784 0.03167 0.7291 0.0
H606 H 0.34912 0.08443 0.65367 0.0
H607 H 0.30472 0.03543 0.69783 0.0
H608 H 0.39992 0.1066 0.71501 0.0
H609 H 0.44579 0.11736 0.77828 0.0
H610 H 0.41059 0.14864 0.69935 0.0
H611 H 0.45574 0.15922 0.76154 0.0
H612 H 0.35552 0.15858 0.78218 0.0
H613 H 0.30715 0.12782 0.72834 0.0
H614 H 0.44334 0.04812 0.64502 0.0
H615 H 0.49499 0.08737 0.68944 0.0
Li616 Li 0.27454 0.17561 0.05631 0.0
Li617 Li 0.29854 0.14186 0.03093 0.0
Li618 Li 0.27291 0.17703 0.00747 0.0
Li619 Li 0.24941 0.14262 0.03105 0.0
C620 C 0.31921 0.19575 0.03706 0.0
N621 N 0.35255 0.23029 0.05211 0.0
C622 C 0.34104 0.18809 0.04917 0.0
C623 C 0.31439 0.22091 0.03241 0.0
C624 C 0.35765 0.20586 0.05669 0.0
C625 C 0.33147 0.23811 0.04022 0.0
C626 C 0.27772 0.11785 0.07458 0.0
C627 C 0.2794 0.07353 0.08037 0.0
N628 N 0.28734 0.07642 0.10398 0.0
C629 C 0.28576 0.12042 0.09893 0.0
C630 C 0.2744 0.09425 0.06523 0.0
C631 C 0.29058 0.09923 0.11348 0.0
C632 C 0.2579 0.20909 0.09858 0.0
N633 N 0.27714 0.19422 0.08913 0.0
C634 C 0.30102 0.2021 0.12583 0.0
C635 C 0.2985 0.19077 0.10246 0.0
C636 C 0.28143 0.21734 0.13612 0.0
C637 C 0.25968 0.22079 0.12191 0.0
H638 H 0.24088 0.21169 0.08822 0.0
H639 H 0.31358 0.17873 0.09524 0.0
C640 C 0.34491 0.12167 0.00731 0.0
N641 N 0.3312 0.12219 0.0294 0.0
C642 C 0.36897 0.10985 0.0056 0.0
C643 C 0.36457 0.0987 0.04922 0.0
C644 C 0.34072 0.11093 0.05017 0.0
C645 C 0.37921 0.09822 0.02678 0.0
H646 H 0.33738 0.13089 0.991 0.0
H647 H 0.33016 0.11185 0.06776 0.0
C648 C 0.22993 0.20009 0.02668 0.0
N649 N 0.20162 0.24086 0.01131 0.0
C650 C 0.20763 0.19696 0.01416 0.0
C651 C 0.23775 0.22391 0.03158 0.0
C652 C 0.19361 0.21782 0.00648 0.0
C653 C 0.2232 0.2443 0.02361 0.0
C654 C 0.27002 0.12129 0.98689 0.0
C655 C 0.25526 0.12564 0.96612 0.0
C656 C 0.27983 0.0975 0.99173 0.0
C657 C 0.25015 0.10594 0.95073 0.0
C658 C 0.27432 0.07829 0.97588 0.0
N659 N 0.25969 0.08287 0.95589 0.0
C660 C 0.29458 0.20808 0.96635 0.0
C661 C 0.25193 0.19869 0.96119 0.0
C662 C 0.29562 0.2205 0.94289 0.0
N663 N 0.27295 0.19733 0.97521 0.0
C664 C 0.25217 0.21092 0.93765 0.0
C665 C 0.27428 0.22195 0.92798 0.0
H666 H 0.31133 0.20665 0.97725 0.0
H667 H 0.23497 0.18975 0.96793 0.0
C668 C 0.21026 0.10751 0.04989 0.0
N669 N 0.21776 0.12214 0.03008 0.0
C670 C 0.18808 0.09365 0.04926 0.0
C671 C 0.18107 0.11006 0.00805 0.0
C672 C 0.20344 0.12349 0.00937 0.0
C673 C 0.17293 0.09481 0.02817 0.0
H674 H 0.22131 0.10668 0.06645 0.0
H675 H 0.20914 0.1353 0.99382 0.0
O676 O 0.30266 0.17866 0.02974 0.0
O677 O 0.27316 0.13836 0.05999 0.0
O678 O 0.2441 0.17993 0.03402 0.0
O679 O 0.27517 0.14031 0.00221 0.0
H680 H 0.34502 0.16865 0.05285 0.0
H681 H 0.29768 0.22707 0.02283 0.0
H682 H 0.37459 0.20023 0.06618 0.0
H683 H 0.32797 0.25766 0.0368 0.0
H684 H 0.27692 0.05514 0.07337 0.0
H685 H 0.2883 0.13855 0.10649 0.0
H686 H 0.26788 0.09198 0.04655 0.0
H687 H 0.29689 0.10093 0.13234 0.0
H688 H 0.31807 0.19863 0.136 0.0
H689 H 0.24397 0.23221 0.12899 0.0
H690 H 0.37966 0.11008 0.98797 0.0
H691 H 0.37181 0.0902 0.06605 0.0
H692 H 0.2013 0.17863 0.01029 0.0
H693 H 0.25487 0.22661 0.04144 0.0
H694 H 0.17636 0.21568 0.99667 0.0
H695 H 0.22905 0.26287 0.02721 0.0
H696 H 0.24768 0.14399 0.96204 0.0
H697 H 0.29168 0.09392 0.00747 0.0
H698 H 0.23861 0.109 0.93467 0.0
H699 H 0.28172 0.05976 0.97943 0.0
H700 H 0.31312 0.22861 0.93627 0.0
H701 H 0.23529 0.21141 0.92687 0.0
H702 H 0.18259 0.08234 0.06533 0.0
H703 H 0.17004 0.11178 0.99146 0.0
Li704 Li 0.73132 0.42273 0.0537 0.0
Li705 Li 0.74855 0.38768 0.07227 0.0
Li706 Li 0.77545 0.42098 0.05232 0.0
Li707 Li 0.75003 0.39297 0.02712 0.0
C708 C 0.74167 0.43468 0.10151 0.0
N709 N 0.71754 0.4605 0.13997 0.0
C710 C 0.71924 0.42605 0.11255 0.0
C711 C 0.75196 0.4563 0.11012 0.0
C712 C 0.70728 0.43942 0.13194 0.0
C713 C 0.73944 0.46912 0.12957 0.0
C714 C 0.71101 0.36526 0.04669 0.0
C715 C 0.71894 0.32172 0.03964 0.0
N716 N 0.6937 0.31792 0.0417 0.0
C717 C 0.68514 0.36091 0.04868 0.0
C718 C 0.72802 0.34549 0.04214 0.0
C719 C 0.67677 0.33686 0.04613 0.0
C720 C 0.68162 0.438 0.05163 0.0
N721 N 0.70481 0.44583 0.05704 0.0
C722 C 0.6887 0.48661 0.06503 0.0
C723 C 0.70879 0.46949 0.06378 0.0
C724 C 0.66478 0.47902 0.05881 0.0
C725 C 0.6611 0.45448 0.05239 0.0
H726 H 0.67926 0.41918 0.04598 0.0
H727 H 0.72764 0.4752 0.06742 0.0
C728 C 0.76813 0.36107 0.11163 0.0
N729 N 0.74674 0.36555 0.09898 0.0
C730 C 0.7676 0.34558 0.13259 0.0
C731 C 0.72307 0.33956 0.1268 0.0
C732 C 0.72439 0.35549 0.10622 0.0
C733 C 0.7448 0.33491 0.1403 0.0
H734 H 0.78544 0.36984 0.10557 0.0
H735 H 0.70745 0.36027 0.09648 0.0
C736 C 0.74134 0.44697 0.01148 0.0
N737 N 0.71607 0.48396 0.98549 0.0
C738 C 0.72178 0.44111 0.99605 0.0
C739 C 0.74805 0.47161 0.01375 0.0
C740 C 0.7092 0.4601 0.98308 0.0
C741 C 0.73501 0.49006 1.00047 0.0
C742 C 0.79879 0.3686 0.04623 0.0
C743 C 0.82103 0.37688 0.03442 0.0
C744 C 0.79794 0.34423 0.05538 0.0
C745 C 0.84182 0.36059 0.03154 0.0
C746 C 0.81915 0.3285 0.05216 0.0
N747 N 0.84046 0.33692 0.04039 0.0
C748 C 0.81866 0.44275 0.07135 0.0
C749 C 0.8117 0.4467 0.02783 0.0
C750 C 0.8407 0.45613 0.06843 0.0
N751 N 0.8049 0.43835 0.05109 0.0
C752 C 0.8334 0.46009 0.02408 0.0
C753 C 0.84805 0.46477 0.04451 0.0
H754 H 0.81257 0.43578 0.08958 0.0
H755 H 0.80036 0.44264 0.01213 0.0
C756 C 0.73182 0.36725 0.98561 0.0
N757 N 0.75206 0.37687 0.99646 0.0
C758 C 0.73538 0.35326 0.96406 0.0
C759 C 0.7802 0.36068 0.9648 0.0
C760 C 0.77573 0.3746 0.9861 0.0
C761 C 0.75993 0.34951 0.95395 0.0
H762 H 0.71308 0.36995 0.99396 0.0
H763 H 0.79117 0.38338 0.9946 0.0
O764 O 0.75369 0.42192 0.0825 0.0
O765 O 0.71936 0.38875 0.04955 0.0
O766 O 0.75408 0.42861 0.02406 0.0
O767 O 0.77833 0.3845 0.04956 0.0
H768 H 0.711 0.40939 0.106 0.0
H769 H 0.76935 0.46316 0.10175 0.0
H770 H 0.68982 0.43306 0.14058 0.0
H771 H 0.74713 0.48594 0.13638 0.0
H772 H 0.73195 0.3063 0.03599 0.0
H773 H 0.67164 0.37592 0.05238 0.0
H774 H 0.74796 0.34851 0.0401 0.0
H775 H 0.65681 0.33326 0.04771 0.0
H776 H 0.69191 0.50567 0.06958 0.0
H777 H 0.64275 0.44844 0.04715 0.0
H778 H 0.78459 0.34225 0.1429 0.0
H779 H 0.70524 0.33163 0.13265 0.0
H780 H 0.71634 0.42212 0.99418 0.0
H781 H 0.76309 0.47643 0.02572 0.0
H782 H 0.69398 0.45588 0.9711 0.0
H783 H 0.73995 0.50922 0.00207 0.0
H784 H 0.82219 0.39563 0.02729 0.0
H785 H 0.78118 0.33745 0.06502 0.0
H786 H 0.85906 0.36676 0.02229 0.0
H787 H 0.81868 0.30961 0.0591 0.0
H788 H 0.85198 0.45951 0.08441 0.0
H789 H 0.83892 0.4665 0.00543 0.0
H790 H 0.7194 0.34507 0.95568 0.0
H791 H 0.79927 0.35837 0.957 0.0
Li792 Li 0.91574 0.5547 0.27879 0.0
Li793 Li 0.88559 0.53269 0.25266 0.0
Li794 Li 0.91907 0.55648 0.23381 0.0
Li795 Li 0.88275 0.57611 0.25526 0.0
C796 C 0.94212 0.51305 0.24556 0.0
N797 N 0.9821 0.48604 0.22406 0.0
C798 C 0.93786 0.49092 0.23349 0.0
C799 C 0.96678 0.52117 0.24711 0.0
C800 C 0.9583 0.47759 0.22265 0.0
C801 C 0.98672 0.50736 0.23599 0.0
C802 C 0.86055 0.56401 0.29845 0.0
C803 C 0.81722 0.57666 0.3077 0.0
N804 N 0.82462 0.58904 0.32794 0.0
C805 C 0.86766 0.57659 0.31954 0.0
C806 C 0.83507 0.56376 0.29268 0.0
C807 C 0.84924 0.58921 0.33415 0.0
C808 C 0.93898 0.57186 0.32184 0.0
N809 N 0.93441 0.55218 0.30738 0.0
C810 C 0.9571 0.5247 0.33404 0.0
C811 C 0.94317 0.52898 0.31293 0.0
C812 C 0.96172 0.54453 0.34946 0.0
C813 C 0.95274 0.56839 0.34333 0.0
H814 H 0.93165 0.59009 0.31684 0.0
H815 H 0.93903 0.51375 0.30108 0.0
C816 C 0.86631 0.48942 0.23165 0.0
N817 N 0.8669 0.50407 0.25201 0.0
C818 C 0.85247 0.46789 0.23288 0.0
C819 C 0.84025 0.47726 0.27584 0.0
C820 C 0.85424 0.4985 0.27379 0.0
C821 C 0.83953 0.46177 0.2553 0.0
H822 H 0.87677 0.49433 0.21465 0.0
H823 H 0.85536 0.51034 0.28971 0.0
C824 C 0.93566 0.60208 0.26027 0.0
N825 N 0.97012 0.63871 0.26609 0.0
C826 C 0.929 0.6268 0.25514 0.0
C827 C 0.95993 0.59599 0.26816 0.0
C828 C 0.94667 0.64505 0.25825 0.0
C829 C 0.97705 0.61477 0.27105 0.0
C830 C 0.86671 0.54769 0.20832 0.0
C831 C 0.87407 0.54372 0.18334 0.0
C832 C 0.84194 0.54295 0.21647 0.0
C833 C 0.85674 0.53444 0.16712 0.0
C834 C 0.82518 0.53364 0.19972 0.0
N835 N 0.83287 0.52958 0.1756 0.0
C836 C 0.94123 0.53965 0.19025 0.0
C837 C 0.95701 0.57812 0.20244 0.0
C838 C 0.95632 0.54 0.16857 0.0
N839 N 0.94174 0.55857 0.20651 0.0
C840 C 0.97264 0.57916 0.18101 0.0
C841 C 0.97194 0.56005 0.16382 0.0
H842 H 0.9286 0.52457 0.19389 0.0
H843 H 0.95679 0.59311 0.21542 0.0
C844 C 0.86358 0.62088 0.27268 0.0
N845 N 0.86136 0.60375 0.25474 0.0
C846 C 0.84877 0.64245 0.27218 0.0
C847 C 0.82972 0.62819 0.23476 0.0
C848 C 0.84497 0.60691 0.23596 0.0
C849 C 0.83189 0.64615 0.25292 0.0
H850 H 0.87724 0.61795 0.28701 0.0
H851 H 0.84405 0.59321 0.22168 0.0
O852 O 0.92225 0.52663 0.25582 0.0
O853 O 0.87842 0.55193 0.28364 0.0
O854 O 0.91843 0.58405 0.25759 0.0
O855 O 0.88344 0.55689 0.22445 0.0
H856 H 0.91898 0.48415 0.23238 0.0
H857 H 0.97047 0.53808 0.25657 0.0
H858 H 0.95524 0.46053 0.2131 0.0
H859 H 0.00586 0.51359 0.23683 0.0
H860 H 0.79747 0.57679 0.30329 0.0
H861 H 0.88718 0.57679 0.3245 0.0
H862 H 0.82909 0.55377 0.27678 0.0
H863 H 0.85454 0.59918 0.3504 0.0
H864 H 0.96378 0.5061 0.33862 0.0
H865 H 0.95602 0.58391 0.35519 0.0
H866 H 0.85227 0.45593 0.21687 0.0
H867 H 0.83054 0.47266 0.2934 0.0
H868 H 0.91044 0.63184 0.24866 0.0
H869 H 0.96546 0.57702 0.2722 0.0
H870 H 0.94174 0.66426 0.25439 0.0
H871 H 0.99585 0.6103 0.27726 0.0
H872 H 0.8928 0.5481 0.17636 0.0
H873 H 0.83578 0.54625 0.23558 0.0
H874 H 0.86224 0.53124 0.14776 0.0
H875 H 0.80605 0.52965 0.20591 0.0
H876 H 0.95557 0.52503 0.15545 0.0
H877 H 0.98467 0.5948 0.17758 0.0
H878 H 0.85069 0.65626 0.28636 0.0
H879 H 0.81677 0.63086 0.21971 0.0
Li880 Li 0.77195 0.67564 0.55621 0.0
Li881 Li 0.79568 0.64194 0.53129 0.0
Li882 Li 0.77058 0.67679 0.5075 0.0
Li883 Li 0.74653 0.64211 0.53174 0.0
C884 C 0.81603 0.69617 0.5373 0.0
N885 N 0.84797 0.73174 0.55287 0.0
C886 C 0.83799 0.68917 0.54953 0.0
C887 C 0.81033 0.72121 0.53287 0.0
C888 C 0.85389 0.70745 0.55729 0.0
C889 C 0.82672 0.73893 0.54092 0.0
C890 C 0.7742 0.61784 0.57516 0.0
C891 C 0.76882 0.57431 0.5835 0.0
N892 N 0.78145 0.57625 0.60499 0.0
C893 C 0.787 0.61944 0.59738 0.0
C894 C 0.76491 0.59514 0.56819 0.0
C895 C 0.79052 0.59819 0.61219 0.0
C896 C 0.75543 0.7099 0.59775 0.0
N897 N 0.77446 0.69457 0.5887 0.0
C898 C 0.79817 0.70244 0.62547 0.0
C899 C 0.79565 0.69092 0.60223 0.0
C900 C 0.77877 0.71813 0.63537 0.0
C901 C 0.75722 0.72183 0.62094 0.0
H902 H 0.73857 0.71271 0.58716 0.0
H903 H 0.81063 0.67864 0.59522 0.0
C904 C 0.84637 0.63067 0.5127 0.0
N905 N 0.82834 0.62247 0.52944 0.0
C906 C 0.87061 0.6193 0.51118 0.0
C907 C 0.85759 0.59079 0.54387 0.0
C908 C 0.83357 0.60267 0.54473 0.0
C909 C 0.87663 0.59918 0.52708 0.0
H910 H 0.8421 0.64645 0.50074 0.0
H911 H 0.81932 0.59613 0.55792 0.0
C912 C 0.72577 0.698 0.52535 0.0
N913 N 0.69418 0.73515 0.50745 0.0
C914 C 0.70399 0.69207 0.51313 0.0
C915 C 0.73145 0.72277 0.52864 0.0
C916 C 0.68826 0.71114 0.50417 0.0
C917 C 0.71525 0.7413 0.5194 0.0
C918 C 0.77267 0.62079 0.48673 0.0
C919 C 0.76674 0.62484 0.46176 0.0
C920 C 0.77945 0.59699 0.49508 0.0
C921 C 0.76751 0.60486 0.44553 0.0
C922 C 0.78001 0.57749 0.47826 0.0
N923 N 0.77406 0.58179 0.45405 0.0
C924 C 0.79263 0.7074 0.46628 0.0
C925 C 0.75014 0.69776 0.46056 0.0
C926 C 0.79401 0.71956 0.4427 0.0
N927 N 0.77091 0.69666 0.47494 0.0
C928 C 0.75071 0.70979 0.4369 0.0
C929 C 0.77291 0.72082 0.42746 0.0
H930 H 0.8092 0.70615 0.47747 0.0
H931 H 0.73315 0.68876 0.46711 0.0
C932 C 0.69939 0.62012 0.55237 0.0
N933 N 0.71504 0.62144 0.53155 0.0
C934 C 0.67695 0.60658 0.55244 0.0
C935 C 0.68687 0.59539 0.50988 0.0
C936 C 0.70903 0.60924 0.51054 0.0
C937 C 0.6703 0.59397 0.53097 0.0
H938 H 0.70411 0.62984 0.56897 0.0
H939 H 0.7212 0.61045 0.49396 0.0
O940 O 0.80015 0.67858 0.52975 0.0
O941 O 0.77043 0.63844 0.56048 0.0
O942 O 0.74151 0.67961 0.534 0.0
O943 O 0.77197 0.64011 0.50286 0.0
H944 H 0.8426 0.66983 0.55314 0.0
H945 H 0.79344 0.72687 0.5233 0.0
H946 H 0.87092 0.70232 0.56686 0.0
H947 H 0.82255 0.7584 0.53766 0.0
H948 H 0.7618 0.5566 0.5783 0.0
H949 H 0.79419 0.63688 0.60311 0.0
H950 H 0.75482 0.5936 0.55113 0.0
H951 H 0.80046 0.59914 0.6294 0.0
H952 H 0.81508 0.69882 0.63581 0.0
H953 H 0.74168 0.73365 0.62773 0.0
H954 H 0.88469 0.6264 0.49798 0.0
H955 H 0.8614 0.57537 0.55647 0.0
H956 H 0.69939 0.67294 0.51047 0.0
H957 H 0.7482 0.7276 0.53819 0.0
H958 H 0.67137 0.70686 0.49459 0.0
H959 H 0.71942 0.76057 0.52173 0.0
H960 H 0.76153 0.6432 0.45503 0.0
H961 H 0.78431 0.59362 0.51429 0.0
H962 H 0.7629 0.60768 0.42617 0.0
H963 H 0.7852 0.55895 0.48445 0.0
H964 H 0.81157 0.72767 0.43626 0.0
H965 H 0.73401 0.71012 0.42587 0.0
H966 H 0.66468 0.60627 0.56907 0.0
H967 H 0.68244 0.58627 0.49281 0.0
Li968 Li 0.67395 0.53215 0.79131 0.0
Li969 Li 0.64233 0.50853 0.81371 0.0
Li970 Li 0.68193 0.49021 0.79673 0.0
Li971 Li 0.64879 0.50547 0.76866 0.0
C972 C 0.69549 0.51116 0.84084 0.0
N973 N 0.73243 0.50454 0.87569 0.0
C974 C 0.68935 0.51326 0.86637 0.0
C975 C 0.72067 0.50673 0.8331 0.0
C976 C 0.70821 0.50958 0.88368 0.0
C977 C 0.739 0.50313 0.85096 0.0
C978 C 0.6271 0.55604 0.79809 0.0
C979 C 0.60143 0.5935 0.79531 0.0
N980 N 0.6085 0.59986 0.81844 0.0
C981 C 0.63413 0.56297 0.82184 0.0
C982 C 0.61063 0.57144 0.78471 0.0
C983 C 0.6245 0.58517 0.8318 0.0
C984 C 0.68316 0.57939 0.77152 0.0
N985 N 0.68857 0.56292 0.79016 0.0
C986 C 0.71502 0.59119 0.80917 0.0
C987 C 0.70406 0.56835 0.80878 0.0
C988 C 0.70977 0.60843 0.79028 0.0
C989 C 0.69384 0.60262 0.77113 0.0
H990 H 0.67049 0.57448 0.75716 0.0
H991 H 0.70769 0.55517 0.82351 0.0
C992 C 0.62691 0.49512 0.86066 0.0
N993 N 0.61847 0.50602 0.8395 0.0
C994 C 0.61246 0.49684 0.88268 0.0
C995 C 0.57896 0.51681 0.85944 0.0
C996 C 0.59472 0.5159 0.83806 0.0
C997 C 0.58853 0.50853 0.88229 0.0
H998 H 0.64541 0.48622 0.8606 0.0
H999 H 0.58844 0.52387 0.82062 0.0
C1000 C 0.70044 0.52346 0.74944 0.0
N1001 N 0.72981 0.55363 0.71878 0.0
C1002 C 0.69193 0.53136 0.72616 0.0
C1003 C 0.72414 0.53054 0.75689 0.0
C1004 C 0.707 0.54667 0.71097 0.0
C1005 C 0.73861 0.54594 0.74122 0.0
C1006 C 0.63481 0.45748 0.79246 0.0
C1007 C 0.64779 0.43614 0.78415 0.0
C1008 C 0.60914 0.45653 0.79921 0.0
C1009 C 0.63491 0.41407 0.78289 0.0
C1010 C 0.59692 0.43409 0.79772 0.0
N1011 N 0.60995 0.4135 0.78968 0.0
C1012 C 0.7003 0.44682 0.81906 0.0
C1013 C 0.7247 0.46289 0.78461 0.0
C1014 C 0.71503 0.42509 0.81906 0.0
N1015 N 0.70491 0.46455 0.80134 0.0
C1016 C 0.74008 0.44176 0.78417 0.0
C1017 C 0.73443 0.4223 0.80078 0.0
H1018 H 0.68417 0.44888 0.83191 0.0
H1019 H 0.72758 0.47735 0.77072 0.0
C1020 C 0.62271 0.52197 0.72842 0.0
N1021 N 0.63108 0.50092 0.73998 0.0
C1022 C 0.60818 0.52061 0.70748 0.0
C1023 C 0.61092 0.47585 0.71105 0.0
C1024 C 0.62583 0.4781 0.73167 0.0
C1025 C 0.60203 0.49733 0.6989 0.0
H1026 H 0.62745 0.53978 0.7355 0.0
H1027 H 0.63301 0.46173 0.74107 0.0
O1028 O 0.67714 0.51473 0.82361 0.0
O1029 O 0.63679 0.53474 0.78752 0.0
O1030 O 0.68587 0.50846 0.76457 0.0
O1031 O 0.64735 0.47904 0.79447 0.0
H1032 H 0.67035 0.51821 0.87282 0.0
H1033 H 0.72608 0.50622 0.81351 0.0
H1034 H 0.70362 0.51095 0.90347 0.0
H1035 H 0.75847 0.49937 0.84515 0.0
H1036 H 0.5887 0.6056 0.78513 0.0
H1037 H 0.64693 0.55145 0.83251 0.0
H1038 H 0.60504 0.56645 0.76628 0.0
H1039 H 0.62979 0.59074 0.85014 0.0
H1040 H 0.72719 0.59554 0.82421 0.0
H1041 H 0.68952 0.61593 0.75646 0.0
H1042 H 0.62021 0.4899 0.89996 0.0
H1043 H 0.56033 0.52549 0.85858 0.0
H1044 H 0.67397 0.52566 0.71977 0.0
H1045 H 0.73119 0.52451 0.7747 0.0
H1046 H 0.70058 0.55298 0.69295 0.0
H1047 H 0.75683 0.55178 0.74691 0.0
H1048 H 0.66755 0.43671 0.77851 0.0
H1049 H 0.59877 0.47291 0.80553 0.0
H1050 H 0.64474 0.3974 0.77649 0.0
H1051 H 0.57707 0.43305 0.80298 0.0
H1052 H 0.71021 0.41002 0.83178 0.0
H1053 H 0.75482 0.43973 0.76972 0.0
H1054 H 0.60155 0.53743 0.69825 0.0
H1055 H 0.60639 0.45769 0.7046 0.0
Li1056 Li 0.9977 0.78456 0.8882 0.0
Li1057 Li 0.02193 0.80804 0.92131 0.0
Li1058 Li 0.04687 0.78198 0.887 0.0
Li1059 Li 0.02275 0.75887 0.92253 0.0
C1060 C 0.0166 0.82919 0.86662 0.0
N1061 N 0.0033 0.86505 0.83186 0.0
C1062 C 0.99936 0.84818 0.87331 0.0
C1063 C 0.02714 0.82841 0.84233 0.0
C1064 C 0.99287 0.86616 0.85544 0.0
C1065 C 0.02014 0.84671 0.825 0.0
C1066 C 0.97671 0.79167 0.94488 0.0
C1067 C 0.96415 0.79287 0.98857 0.0
N1068 N 0.94394 0.80773 0.9829 0.0
C1069 C 0.95586 0.80697 0.93944 0.0
C1070 C 0.98094 0.78453 0.9696 0.0
C1071 C 0.93949 0.81488 0.95895 0.0
C1072 C 0.94406 0.77629 0.87916 0.0
N1073 N 0.96578 0.78489 0.86802 0.0
C1074 C 0.94321 0.79317 0.83009 0.0
C1075 C 0.96553 0.79321 0.84377 0.0
C1076 C 0.92058 0.78456 0.84124 0.0
C1077 C 0.92133 0.77606 0.86619 0.0
H1078 H 0.94427 0.76955 0.89829 0.0
H1079 H 0.98266 0.79992 0.83484 0.0
C1080 C 0.04512 0.85497 0.9328 0.0
N1081 N 0.0245 0.84125 0.93908 0.0
C1082 C 0.04815 0.87872 0.94281 0.0
C1083 C 0.00882 0.87446 0.96595 0.0
C1084 C 0.00654 0.85073 0.95555 0.0
C1085 C 0.02982 0.88903 0.95961 0.0
H1086 H 0.05927 0.8476 0.91963 0.0
H1087 H 0.99014 0.84013 0.96057 0.0
C1088 C 0.02676 0.74034 0.86485 0.0
N1089 N 0.03771 0.71157 0.82353 0.0
C1090 C 0.03405 0.71546 0.86789 0.0
C1091 C 0.025 0.75061 0.84085 0.0
C1092 C 0.03952 0.70122 0.84674 0.0
C1093 C 0.03062 0.73575 0.82018 0.0
C1094 C 0.06666 0.77691 0.9429 0.0
C1095 C 0.08959 0.7643 0.93777 0.0
C1096 C 0.05963 0.78305 0.96746 0.0
C1097 C 0.10517 0.7579 0.95747 0.0
C1098 C 0.07573 0.77633 0.98664 0.0
N1099 N 0.09797 0.764 0.98129 0.0
C1100 C 0.09141 0.80315 0.86307 0.0
C1101 C 0.09041 0.75978 0.85868 0.0
C1102 C 0.11535 0.8037 0.85077 0.0
N1103 N 0.07933 0.7814 0.86691 0.0
C1104 C 0.11424 0.75954 0.84611 0.0
C1105 C 0.12723 0.78167 0.84216 0.0
H1106 H 0.08263 0.82014 0.86998 0.0
H1107 H 0.08104 0.74254 0.86227 0.0
C1108 C 0.00368 0.71678 0.95466 0.0
N1109 N 0.02434 0.72591 0.94197 0.0
C1110 C 0.00444 0.69294 0.96611 0.0
C1111 C 0.04766 0.68783 0.95158 0.0
C1112 C 0.04613 0.71174 0.94047 0.0
C1113 C 0.0266 0.67789 0.96457 0.0
H1114 H 0.98629 0.72775 0.95553 0.0
H1115 H 0.06235 0.7187 0.93002 0.0
O1116 O 0.0233 0.81151 0.88382 0.0
O1117 O 0.99289 0.78365 0.92608 0.0
O1118 O 0.02171 0.75466 0.88529 0.0
O1119 O 0.05116 0.78327 0.92392 0.0
H1120 H 0.99111 0.84901 0.89209 0.0
H1121 H 0.04053 0.81379 0.83691 0.0
H1122 H 0.97956 0.881 0.86031 0.0
H1123 H 0.02809 0.84634 0.8061 0.0
H1124 H 0.96718 0.78752 0.00781 0.0
H1125 H 0.95246 0.81278 0.92039 0.0
H1126 H 0.99704 0.77271 0.97406 0.0
H1127 H 0.92327 0.82675 0.95507 0.0
H1128 H 0.94361 0.79995 0.81094 0.0
H1129 H 0.90443 0.76926 0.87562 0.0
H1130 H 0.06462 0.88912 0.93719 0.0
H1131 H 0.99411 0.88149 0.97873 0.0
H1132 H 0.03555 0.70727 0.88638 0.0
H1133 H 0.01957 0.7699 0.83825 0.0
H1134 H 0.04524 0.68194 0.84879 0.0
H1135 H 0.02939 0.74346 0.80147 0.0
H1136 H 0.09524 0.75947 0.9188 0.0
H1137 H 0.04194 0.79291 0.97163 0.0
H1138 H 0.12297 0.7481 0.95383 0.0
H1139 H 0.07056 0.78092 0.00577 0.0
H1140 H 0.12467 0.82117 0.84824 0.0
H1141 H 0.1227 0.74212 0.83992 0.0
H1142 H 0.98764 0.68613 0.97572 0.0
H1143 H 0.06511 0.677 0.9497 0.0
Li1144 Li 0.00799 0.32481 0.6246 0.0
Li1145 Li 0.03089 0.30565 0.65836 0.0
Li1146 Li 0.01022 0.28018 0.62749 0.0
Li1147 Li 0.98667 0.30322 0.65928 0.0
C1148 C 0.05513 0.30746 0.60279 0.0
N1149 N 0.08956 0.31561 0.56367 0.0
C1150 C 0.07714 0.32024 0.60671 0.0
C1151 C 0.05089 0.29842 0.57905 0.0
C1152 C 0.09423 0.3243 0.58668 0.0
C1153 C 0.06845 0.30284 0.5595 0.0
C1154 C 0.01761 0.35029 0.67466 0.0
C1155 C 0.0326 0.36271 0.71442 0.0
N1156 N 0.04107 0.38398 0.70358 0.0
C1157 C 0.0263 0.37236 0.66397 0.0
C1158 C 0.0206 0.34549 0.70014 0.0
C1159 C 0.03816 0.38913 0.67889 0.0
C1160 C 0.98029 0.36049 0.60111 0.0
N1161 N 0.0045 0.35213 0.60349 0.0
C1162 C 0.02036 0.38702 0.58106 0.0
C1163 C 0.02445 0.36457 0.5935 0.0
C1164 C 0.9956 0.39633 0.57916 0.0
C1165 C 0.97532 0.38272 0.58868 0.0
H1166 H 0.96494 0.35036 0.60983 0.0
H1167 H 0.04348 0.3579 0.5964 0.0
C1168 C 0.06297 0.28472 0.69171 0.0
N1169 N 0.05916 0.30577 0.67802 0.0
C1170 C 0.08341 0.28239 0.707 0.0
C1171 C 0.09585 0.32349 0.69375 0.0
C1172 C 0.07511 0.32499 0.67854 0.0
C1173 C 0.09998 0.30189 0.70795 0.0
H1174 H 0.05035 0.26954 0.69052 0.0
H1175 H 0.07176 0.34136 0.66717 0.0
C1176 C 0.96755 0.29659 0.60207 0.0
N1177 N 0.94285 0.28657 0.55904 0.0
C1178 C 0.94365 0.28632 0.60361 0.0
C1179 C 0.97874 0.30205 0.57867 0.0
C1180 C 0.9315 0.28131 0.58163 0.0
C1181 C 0.966 0.29677 0.55713 0.0
C1182 C 0.99841 0.26107 0.68111 0.0
C1183 C 0.98641 0.23999 0.67342 0.0
C1184 C 0.99702 0.2675 0.70631 0.0
C1185 C 0.97285 0.22585 0.69109 0.0
C1186 C 0.98325 0.2529 0.72338 0.0
N1187 N 0.97153 0.23257 0.71548 0.0
C1188 C 0.04015 0.24334 0.60897 0.0
C1189 C 0.99758 0.23894 0.59778 0.0
C1190 C 0.04768 0.22239 0.59573 0.0
N1191 N 0.01559 0.25126 0.60949 0.0
C1192 C 0.00428 0.21772 0.58436 0.0
C1193 C 0.0296 0.2095 0.58331 0.0
H1194 H 0.05388 0.25346 0.6188 0.0
H1195 H 0.97812 0.24539 0.59898 0.0
C1196 C 0.95591 0.32222 0.69776 0.0
N1197 N 0.95817 0.30397 0.68063 0.0
C1198 C 0.93581 0.3226 0.71514 0.0
C1199 C 0.92041 0.28575 0.69633 0.0
C1200 C 0.94084 0.2861 0.67931 0.0
C1201 C 0.91802 0.30412 0.71443 0.0
H1202 H 0.96971 0.33644 0.698 0.0
H1203 H 0.94316 0.27196 0.66532 0.0
O1204 O 0.03838 0.30308 0.62234 0.0
O1205 O 0.00584 0.3337 0.66035 0.0
O1206 O 0.97964 0.30151 0.62347 0.0
O1207 O 0.01142 0.27539 0.66402 0.0
H1208 H 0.0809 0.32713 0.62497 0.0
H1209 H 0.03442 0.28783 0.57576 0.0
H1210 H 0.11123 0.33434 0.58942 0.0
H1211 H 0.06535 0.29599 0.54103 0.0
H1212 H 0.03523 0.35912 0.7341 0.0
H1213 H 0.0239 0.37656 0.6444 0.0
H1214 H 0.01403 0.3285 0.70874 0.0
H1215 H 0.04505 0.40624 0.67083 0.0
H1216 H 0.03627 0.39755 0.57406 0.0
H1217 H 0.95607 0.38985 0.58761 0.0
H1218 H 0.08654 0.26543 0.71766 0.0
H1219 H 0.10874 0.33864 0.6941 0.0
H1220 H 0.93461 0.28218 0.62157 0.0
H1221 H 0.99693 0.3105 0.57713 0.0
H1222 H 0.91306 0.27324 0.58254 0.0
H1223 H 0.97447 0.30087 0.5389 0.0
H1224 H 0.98734 0.23475 0.654 0.0
H1225 H 0.00625 0.28374 0.71256 0.0
H1226 H 0.96332 0.20958 0.68539 0.0
H1227 H 0.98184 0.25776 0.74291 0.0
H1228 H 0.0673 0.21617 0.59532 0.0
H1229 H 0.98998 0.20775 0.5751 0.0
H1230 H 0.93405 0.33709 0.72887 0.0
H1231 H 0.90664 0.2714 0.69545 0.0
Li1232 Li 0.49843 0.28644 0.38806 0.0
Li1233 Li 0.5229 0.30967 0.42076 0.0
Li1234 Li 0.54746 0.28301 0.38701 0.0
Li1235 Li 0.52317 0.26083 0.42244 0.0
C1236 C 0.52026 0.32538 0.36087 0.0
N1237 N 0.51217 0.34977 0.31599 0.0
C1238 C 0.50749 0.34837 0.36053 0.0
C1239 C 0.52898 0.31485 0.3384 0.0
C1240 C 0.50356 0.36039 0.33764 0.0
C1241 C 0.52469 0.32744 0.3159 0.0
C1242 C 0.47844 0.29592 0.44448 0.0
C1243 C 0.46601 0.2992 0.48808 0.0
N1244 N 0.44788 0.31637 0.48206 0.0
C1245 C 0.45973 0.31361 0.43869 0.0
C1246 C 0.48166 0.28863 0.46934 0.0
C1247 C 0.44444 0.32372 0.45797 0.0
C1248 C 0.45625 0.26513 0.3619 0.0
N1249 N 0.46642 0.287 0.36822 0.0
C1250 C 0.43194 0.30911 0.34842 0.0
C1251 C 0.45443 0.30878 0.36178 0.0
C1252 C 0.42115 0.28683 0.34169 0.0
C1253 C 0.43372 0.26464 0.34867 0.0
H1254 H 0.46552 0.24789 0.36733 0.0
H1255 H 0.46199 0.32607 0.36737 0.0
C1256 C 0.53136 0.363 0.42427 0.0
N1257 N 0.52483 0.34288 0.43864 0.0
C1258 C 0.53302 0.38676 0.43465 0.0
C1259 C 0.52239 0.36916 0.47499 0.0
C1260 C 0.52042 0.34578 0.46375 0.0
C1261 C 0.52862 0.39034 0.46047 0.0
H1262 H 0.53546 0.36073 0.40452 0.0
H1263 H 0.5154 0.32996 0.4753 0.0
C1264 C 0.52737 0.24108 0.36543 0.0
N1265 N 0.5385 0.21059 0.32537 0.0
C1266 C 0.5423 0.2196 0.36856 0.0
C1267 C 0.51806 0.24703 0.34193 0.0
C1268 C 0.54774 0.20444 0.34807 0.0
C1269 C 0.52389 0.23138 0.32192 0.0
C1270 C 0.56656 0.27638 0.44291 0.0
C1271 C 0.58869 0.26248 0.43759 0.0
C1272 C 0.55935 0.28145 0.46768 0.0
C1273 C 0.60329 0.25384 0.45727 0.0
C1274 C 0.57446 0.27249 0.48684 0.0
N1275 N 0.59594 0.25899 0.48127 0.0
C1276 C 0.59944 0.29468 0.37736 0.0
C1277 C 0.58525 0.26814 0.34658 0.0
C1278 C 0.62384 0.29439 0.36606 0.0
N1279 N 0.58057 0.28159 0.3677 0.0
C1280 C 0.60941 0.26739 0.33465 0.0
C1281 C 0.62916 0.28055 0.34444 0.0
H1282 H 0.59559 0.30529 0.39409 0.0
H1283 H 0.57033 0.25796 0.33878 0.0
C1284 C 0.50354 0.22004 0.45594 0.0
N1285 N 0.52408 0.22816 0.44231 0.0
C1286 C 0.5038 0.1964 0.46778 0.0
C1287 C 0.54621 0.18937 0.45157 0.0
C1288 C 0.54526 0.21318 0.44027 0.0
C1289 C 0.52527 0.18044 0.46552 0.0
H1290 H 0.48661 0.23167 0.45729 0.0
H1291 H 0.56144 0.21939 0.42928 0.0
O1292 O 0.52431 0.31329 0.38307 0.0
O1293 O 0.49356 0.2858 0.4259 0.0
O1294 O 0.52179 0.25615 0.38526 0.0
O1295 O 0.55187 0.28476 0.42396 0.0
H1296 H 0.50033 0.35667 0.37771 0.0
H1297 H 0.53896 0.29714 0.33833 0.0
H1298 H 0.49359 0.37813 0.33709 0.0
H1299 H 0.53132 0.31947 0.29838 0.0
H1300 H 0.46831 0.29378 0.50742 0.0
H1301 H 0.45706 0.31944 0.4195 0.0
H1302 H 0.49617 0.27504 0.47409 0.0
H1303 H 0.42984 0.33741 0.4538 0.0
H1304 H 0.42276 0.32666 0.34382 0.0
H1305 H 0.42599 0.24701 0.34418 0.0
H1306 H 0.53785 0.40227 0.42252 0.0
H1307 H 0.51883 0.37074 0.49495 0.0
H1308 H 0.54972 0.21473 0.38655 0.0
H1309 H 0.50658 0.26363 0.33912 0.0
H1310 H 0.55933 0.18778 0.35021 0.0
H1311 H 0.51686 0.23579 0.30362 0.0
H1312 H 0.59439 0.2582 0.41849 0.0
H1313 H 0.54219 0.29206 0.47206 0.0
H1314 H 0.62043 0.24299 0.45345 0.0
H1315 H 0.56911 0.27625 0.50612 0.0
H1316 H 0.63846 0.30495 0.37412 0.0
H1317 H 0.61265 0.25667 0.31787 0.0
H1318 H 0.48712 0.1904 0.4782 0.0
H1319 H 0.56316 0.17785 0.44917 0.0
Li1320 Li 0.50385 0.8289 0.12739 0.0
Li1321 Li 0.53251 0.80774 0.15647 0.0
Li1322 Li 0.50477 0.78533 0.12863 0.0
Li1323 Li 0.48793 0.80812 0.16307 0.0
C1324 C 0.54639 0.81967 0.10142 0.0
N1325 N 0.57192 0.84685 0.06495 0.0
C1326 C 0.56755 0.83286 0.1074 0.0
C1327 C 0.53841 0.82 0.07684 0.0
C1328 C 0.58017 0.84654 0.0887 0.0
C1329 C 0.55149 0.83397 0.05869 0.0
C1330 C 0.50177 0.84979 0.18234 0.0
C1331 C 0.49911 0.856 0.22683 0.0
N1332 N 0.48263 0.87541 0.22333 0.0
C1333 C 0.48491 0.86984 0.17914 0.0
C1334 C 0.50904 0.84284 0.20632 0.0
C1335 C 0.4754 0.88254 0.20012 0.0
C1336 C 0.47951 0.85968 0.09288 0.0
N1337 N 0.49967 0.85688 0.10772 0.0
C1338 C 0.5148 0.89625 0.09546 0.0
C1339 C 0.51694 0.87468 0.10964 0.0
C1340 C 0.49447 0.89938 0.07969 0.0
C1341 C 0.47652 0.88108 0.07842 0.0
H1342 H 0.46571 0.84546 0.09242 0.0
H1343 H 0.53232 0.87201 0.1222 0.0
C1344 C 0.57312 0.78305 0.17467 0.0
N1345 N 0.56275 0.80611 0.17196 0.0
C1346 C 0.59403 0.77934 0.18919 0.0
C1347 C 0.59378 0.82348 0.19674 0.0
C1348 C 0.57263 0.8263 0.18221 0.0
C1349 C 0.60415 0.79967 0.20064 0.0
H1350 H 0.56452 0.76749 0.16625 0.0
H1351 H 0.56362 0.84434 0.1797 0.0
C1352 C 0.45778 0.79621 0.11532 0.0
N1353 N 0.42358 0.77272 0.08685 0.0
C1354 C 0.43606 0.78627 0.12664 0.0
C1355 C 0.46197 0.7944 0.08948 0.0
C1356 C 0.41904 0.77442 0.11193 0.0
C1357 C 0.4445 0.78239 0.07542 0.0
C1358 C 0.50144 0.76044 0.17878 0.0
C1359 C 0.47808 0.75089 0.17351 0.0
C1360 C 0.51442 0.75121 0.19936 0.0
C1361 C 0.46802 0.73226 0.18891 0.0
C1362 C 0.50376 0.73253 0.2143 0.0
N1363 N 0.48096 0.72353 0.20882 0.0
C1364 C 0.5287 0.75309 0.09682 0.0
C1365 C 0.4869 0.74068 0.1069 0.0
C1366 C 0.53306 0.73267 0.08181 0.0
N1367 N 0.50594 0.75679 0.10891 0.0
C1368 C 0.49044 0.71991 0.09192 0.0
C1369 C 0.51383 0.71591 0.07941 0.0
H1370 H 0.54372 0.76579 0.09914 0.0
H1371 H 0.46909 0.74375 0.11695 0.0
C1372 C 0.44204 0.82464 0.18067 0.0
N1373 N 0.46247 0.81087 0.18766 0.0
C1374 C 0.42025 0.82515 0.19579 0.0
C1375 C 0.44182 0.79891 0.2259 0.0
C1376 C 0.46339 0.79935 0.21037 0.0
C1377 C 0.41984 0.81106 0.21792 0.0
H1378 H 0.44231 0.83405 0.16269 0.0
H1379 H 0.48036 0.78955 0.21586 0.0
O1380 O 0.53361 0.8064 0.11953 0.0
O1381 O 0.51094 0.83689 0.16208 0.0
O1382 O 0.47458 0.80808 0.12939 0.0
O1383 O 0.51127 0.77924 0.16441 0.0
H1384 H 0.57404 0.8327 0.12631 0.0
H1385 H 0.52223 0.80968 0.07187 0.0
H1386 H 0.5965 0.85696 0.09308 0.0
H1387 H 0.54541 0.83457 0.03963 0.0
H1388 H 0.50443 0.85075 0.24553 0.0
H1389 H 0.47909 0.87539 0.16065 0.0
H1390 H 0.52194 0.82722 0.20909 0.0
H1391 H 0.46225 0.89803 0.19797 0.0
H1392 H 0.52877 0.91036 0.09672 0.0
H1393 H 0.46061 0.88337 0.06641 0.0
H1394 H 0.60189 0.76081 0.19196 0.0
H1395 H 0.60147 0.83941 0.20543 0.0
H1396 H 0.43242 0.78753 0.14658 0.0
H1397 H 0.47863 0.80202 0.08041 0.0
H1398 H 0.40222 0.76656 0.12048 0.0
H1399 H 0.4476 0.78072 0.05544 0.0
H1400 H 0.46761 0.75817 0.15803 0.0
H1401 H 0.5324 0.75859 0.20392 0.0
H1402 H 0.44984 0.72485 0.18512 0.0
H1403 H 0.51355 0.72526 0.23032 0.0
H1404 H 0.5514 0.72968 0.07255 0.0
H1405 H 0.47543 0.7069 0.09051 0.0
H1406 H 0.40334 0.83459 0.18934 0.0
H1407 H 0.44176 0.78798 0.24304 0.0
Li1408 Li 0.90684 0.04855 0.78283 0.0
Li1409 Li 0.88543 0.02281 0.75419 0.0
Li1410 Li 0.91359 0.05541 0.73901 0.0
Li1411 Li 0.87217 0.06576 0.75724 0.0
C1412 C 0.93999 0.0106 0.7692 0.0
N1413 N 0.97654 0.98101 0.79122 0.0
C1414 C 0.93444 0.98658 0.7773 0.0
C1415 C 0.96417 0.0195 0.77212 0.0
C1416 C 0.95317 0.97193 0.78843 0.0
C1417 C 0.98236 0.00428 0.78337 0.0
C1418 C 0.85349 0.02931 0.79959 0.0
C1419 C 0.81019 0.02154 0.81201 0.0
N1420 N 0.81826 0.00781 0.83183 0.0
C1421 C 0.86134 0.01511 0.82007 0.0
C1422 C 0.82769 0.03259 0.79552 0.0
C1423 C 0.84324 0.0044 0.83616 0.0
C1424 C 0.9246 0.07476 0.82158 0.0
N1425 N 0.92179 0.05131 0.81363 0.0
C1426 C 0.94403 0.03455 0.84808 0.0
C1427 C 0.9305 0.03128 0.82672 0.0
C1428 C 0.94816 0.05861 0.85586 0.0
C1429 C 0.93801 0.07891 0.84282 0.0
H1430 H 0.91691 0.09029 0.81113 0.0
H1431 H 0.92737 0.01284 0.8204 0.0
C1432 C 0.88797 0.98059 0.72642 0.0
N1433 N 0.87539 0.99139 0.74619 0.0
C1434 C 0.88137 0.95721 0.71877 0.0
C1435 C 0.84893 0.95699 0.75188 0.0
C1436 C 0.85622 0.98015 0.75893 0.0
C1437 C 0.86159 0.94543 0.73166 0.0
H1438 H 0.9031 0.99021 0.71668 0.0
H1439 H 0.84644 0.98905 0.7744 0.0
C1440 C 0.92063 0.09933 0.75845 0.0
N1441 N 0.95263 0.13756 0.74681 0.0
C1442 C 0.91115 0.12139 0.748 0.0
C1443 C 0.94633 0.09674 0.76311 0.0
C1444 C 0.92765 0.14051 0.74222 0.0
C1445 C 0.96222 0.11625 0.75704 0.0
C1446 C 0.86059 0.04593 0.71138 0.0
C1447 C 0.86275 0.05517 0.68689 0.0
C1448 C 0.83799 0.03571 0.72015 0.0
C1449 C 0.84209 0.05413 0.67155 0.0
C1450 C 0.81778 0.03496 0.70421 0.0
N1451 N 0.82023 0.04412 0.68046 0.0
C1452 C 0.9544 0.04504 0.70766 0.0
C1453 C 0.93261 0.08277 0.69776 0.0
C1454 C 0.96861 0.04632 0.68543 0.0
N1455 N 0.93649 0.0628 0.71304 0.0
C1456 C 0.94662 0.08494 0.67534 0.0
C1457 C 0.96404 0.06596 0.66874 0.0
H1458 H 0.9564 0.02899 0.71976 0.0
H1459 H 0.91753 0.09605 0.70215 0.0
C1460 C 0.83541 0.09455 0.7803 0.0
N1461 N 0.84568 0.08871 0.75748 0.0
C1462 C 0.82026 0.11577 0.78304 0.0
C1463 C 0.82561 0.12369 0.73846 0.0
C1464 C 0.84054 0.10218 0.73656 0.0
C1465 C 0.81648 0.13107 0.76213 0.0
H1466 H 0.84074 0.08393 0.79664 0.0
H1467 H 0.84983 0.0975 0.7189 0.0
O1468 O 0.92205 0.0251 0.75789 0.0
O1469 O 0.87092 0.04031 0.78389 0.0
O1470 O 0.90474 0.08052 0.76452 0.0
O1471 O 0.8805 0.04727 0.72669 0.0
H1472 H 0.91584 0.97938 0.77521 0.0
H1473 H 0.96885 0.03793 0.76571 0.0
H1474 H 0.94913 0.95335 0.79487 0.0
H1475 H 1.00113 0.01095 0.7858 0.0
H1476 H 0.79018 0.0239 0.80905 0.0
H1477 H 0.88117 0.01233 0.82348 0.0
H1478 H 0.82122 0.04347 0.77975 0.0
H1479 H 0.84906 0.99338 0.85209 0.0
H1480 H 0.9516 0.01862 0.85815 0.0
H1481 H 0.94088 0.09765 0.84873 0.0
H1482 H 0.89144 0.94846 0.70315 0.0
H1483 H 0.8336 0.94808 0.76214 0.0
H1484 H 0.89129 0.12366 0.7443 0.0
H1485 H 0.95388 0.07984 0.77138 0.0
H1486 H 0.9206 0.15769 0.73409 0.0
H1487 H 0.98216 0.11449 0.7605 0.0
H1488 H 0.88015 0.0632 0.6799 0.0
H1489 H 0.83605 0.02853 0.73906 0.0
H1490 H 0.84344 0.0613 0.65258 0.0
H1491 H 0.80014 0.02712 0.71074 0.0
H1492 H 0.98176 0.03131 0.6805 0.0
H1493 H 0.94259 0.10009 0.66247 0.0
H1494 H 0.81381 0.1215 0.80154 0.0
H1495 H 0.82336 0.13564 0.72221 0.0
Li1496 Li 0.80435 0.17004 0.52494 0.0
Li1497 Li 0.82234 0.14173 0.49578 0.0
Li1498 Li 0.80249 0.17901 0.48183 0.0
Li1499 Li 0.77743 0.14523 0.49975 0.0
C1500 C 0.84928 0.19031 0.51252 0.0
N1501 N 0.88219 0.21981 0.53647 0.0
C1502 C 0.87364 0.18146 0.51747 0.0
C1503 C 0.84178 0.21431 0.51945 0.0
C1504 C 0.88997 0.19661 0.52968 0.0
C1505 C 0.85865 0.2289 0.53162 0.0
C1506 C 0.81303 0.12228 0.54491 0.0
C1507 C 0.81359 0.09274 0.57917 0.0
N1508 N 0.83771 0.09881 0.58363 0.0
C1509 C 0.83781 0.12816 0.54981 0.0
C1510 C 0.8008 0.10438 0.55967 0.0
C1511 C 0.84997 0.11613 0.56946 0.0
C1512 C 0.78078 0.19359 0.56395 0.0
N1513 N 0.80403 0.18459 0.55663 0.0
C1514 C 0.82207 0.20039 0.59303 0.0
C1515 C 0.82448 0.18713 0.5709 0.0
C1516 C 0.79839 0.21059 0.60028 0.0
C1517 C 0.77752 0.20681 0.58584 0.0
H1518 H 0.76474 0.19083 0.55259 0.0
H1519 H 0.8427 0.17948 0.56487 0.0
C1520 C 0.86776 0.12904 0.47259 0.0
N1521 N 0.84907 0.11997 0.48784 0.0
C1522 C 0.8905 0.11582 0.46958 0.0
C1523 C 0.8733 0.08346 0.49654 0.0
C1524 C 0.8507 0.09705 0.4985 0.0
C1525 C 0.89372 0.09362 0.48304 0.0
H1526 H 0.86555 0.14728 0.4642 0.0
H1527 H 0.83513 0.09011 0.50989 0.0
C1528 C 0.75911 0.19941 0.49756 0.0
N1529 N 0.72944 0.23702 0.47749 0.0
C1530 C 0.73883 0.19383 0.48292 0.0
C1531 C 0.76409 0.2241 0.50229 0.0
C1532 C 0.72409 0.21312 0.47288 0.0
C1533 C 0.74895 0.24285 0.49187 0.0
C1534 C 0.80567 0.12716 0.45307 0.0
C1535 C 0.82006 0.13263 0.4314 0.0
C1536 C 0.80009 0.10261 0.45904 0.0
C1537 C 0.82877 0.11332 0.41604 0.0
C1538 C 0.80915 0.08384 0.4432 0.0
N1539 N 0.82319 0.08953 0.42221 0.0
C1540 C 0.82145 0.22027 0.45544 0.0
C1541 C 0.78634 0.20081 0.43867 0.0
C1542 C 0.82298 0.23647 0.43501 0.0
N1543 N 0.80335 0.20296 0.45674 0.0
C1544 C 0.78713 0.2166 0.41801 0.0
C1545 C 0.80583 0.23432 0.41605 0.0
H1546 H 0.83517 0.221 0.46971 0.0
H1547 H 0.77267 0.18636 0.44006 0.0
C1548 C 0.73832 0.12325 0.52381 0.0
N1549 N 0.74788 0.12838 0.50053 0.0
C1550 C 0.71672 0.10954 0.52683 0.0
C1551 C 0.71504 0.10718 0.4817 0.0
C1552 C 0.73687 0.12086 0.47957 0.0
C1553 C 0.70508 0.10136 0.5056 0.0
H1554 H 0.74768 0.12971 0.53997 0.0
H1555 H 0.74514 0.1254 0.46135 0.0
O1556 O 0.83306 0.17564 0.50061 0.0
O1557 O 0.80087 0.13342 0.52543 0.0
O1558 O 0.77403 0.18081 0.50721 0.0
O1559 O 0.79743 0.14573 0.4686 0.0
H1560 H 0.87987 0.16306 0.51199 0.0
H1561 H 0.82306 0.22148 0.51568 0.0
H1562 H 0.90882 0.18992 0.53374 0.0
H1563 H 0.85301 0.24743 0.53727 0.0
H1564 H 0.80437 0.07883 0.59072 0.0
H1565 H 0.84764 0.14163 0.53836 0.0
H1566 H 0.78168 0.09941 0.55599 0.0
H1567 H 0.86919 0.12049 0.57339 0.0
H1568 H 0.83841 0.20296 0.60415 0.0
H1569 H 0.75899 0.21434 0.5913 0.0
H1570 H 0.90617 0.12399 0.4592 0.0
H1571 H 0.8755 0.06628 0.50705 0.0
H1572 H 0.73468 0.17484 0.47911 0.0
H1573 H 0.77947 0.22873 0.51387 0.0
H1574 H 0.70844 0.20908 0.46137 0.0
H1575 H 0.75268 0.26205 0.49525 0.0
H1576 H 0.82459 0.15156 0.42662 0.0
H1577 H 0.7892 0.09809 0.47591 0.0
H1578 H 0.84001 0.11723 0.39924 0.0
H1579 H 0.80511 0.06474 0.44764 0.0
H1580 H 0.83773 0.24992 0.4336 0.0
H1581 H 0.77385 0.21457 0.40334 0.0
H1582 H 0.70915 0.10531 0.54544 0.0
H1583 H 0.70611 0.10109 0.4651 0.0
Li1584 Li 0.63178 0.00442 0.31811 0.0
Li1585 Li 0.66263 0.03356 0.30266 0.0
Li1586 Li 0.6422 0.00664 0.27472 0.0
Li1587 Li 0.67351 0.98999 0.30417 0.0
C1588 C 0.61273 0.05195 0.30697 0.0
N1589 N 0.5855 0.08966 0.33073 0.0
C1590 C 0.61861 0.05876 0.33109 0.0
C1591 C 0.59306 0.06439 0.2949 0.0
C1592 C 0.60459 0.07782 0.34281 0.0
C1593 C 0.57952 0.08341 0.30723 0.0
C1594 C 0.6779 0.01576 0.35245 0.0
C1595 C 0.71769 0.01661 0.37278 0.0
N1596 N 0.70527 0.02301 0.39451 0.0
C1597 C 0.66553 0.02224 0.37503 0.0
C1598 C 0.70419 0.0128 0.35136 0.0
C1599 C 0.6797 0.02587 0.39606 0.0
C1600 C 0.61417 0.98414 0.36264 0.0
N1601 N 0.60682 0.99831 0.3429 0.0
C1602 C 0.56716 0.00808 0.36314 0.0
C1603 C 0.58336 0.00909 0.34215 0.0
C1604 C 0.57541 0.9957 0.38462 0.0
C1605 C 0.59853 0.98251 0.38399 0.0
H1606 H 0.63287 0.97557 0.36237 0.0
H1607 H 0.5778 0.01962 0.32584 0.0
C1608 C 0.6664 0.08599 0.2981 0.0
N1609 N 0.67826 0.06416 0.30409 0.0
C1610 C 0.68025 0.10739 0.29504 0.0
C1611 C 0.71813 0.08339 0.30428 0.0
C1612 C 0.70356 0.06252 0.30726 0.0
C1613 C 0.70643 0.10592 0.29766 0.0
H1614 H 0.64656 0.08668 0.29435 0.0
H1615 H 0.71263 0.04472 0.3106 0.0
C1616 C 0.6244 0.95784 0.3023 0.0
N1617 N 0.59156 0.92081 0.31612 0.0
C1618 C 0.63372 0.93412 0.3083 0.0
C1619 C 0.59831 0.96251 0.30273 0.0
C1620 C 0.61684 0.91569 0.31538 0.0
C1621 C 0.58204 0.94363 0.30997 0.0
C1622 C 0.69191 0.00309 0.25586 0.0
C1623 C 0.6866 0.97912 0.24861 0.0
C1624 C 0.71054 0.01626 0.24269 0.0
C1625 C 0.70021 0.96867 0.22838 0.0
C1626 C 0.7237 0.00518 0.22253 0.0
N1627 N 0.71832 0.98181 0.21587 0.0
C1628 C 0.63818 0.02097 0.22473 0.0
C1629 C 0.60685 0.99378 0.24058 0.0
C1630 C 0.625 0.02508 0.20298 0.0
N1631 N 0.62863 0.00593 0.24311 0.0
C1632 C 0.59273 0.99785 0.2195 0.0
C1633 C 0.60153 0.01419 0.20083 0.0
H1634 H 0.65523 0.03088 0.22759 0.0
H1635 H 0.59968 0.98209 0.2555 0.0
C1636 C 0.69338 0.9501 0.32961 0.0
N1637 N 0.69921 0.96708 0.3115 0.0
C1638 C 0.7088 0.9291 0.33254 0.0
C1639 C 0.73773 0.9456 0.30078 0.0
C1640 C 0.72169 0.96624 0.29846 0.0
C1641 C 0.73027 0.92617 0.31676 0.0
H1642 H 0.67569 0.95191 0.34025 0.0
H1643 H 0.72641 0.98066 0.28507 0.0
O1644 O 0.62591 0.03315 0.29511 0.0
O1645 O 0.66417 0.01121 0.33195 0.0
O1646 O 0.64074 0.9761 0.29532 0.0
O1647 O 0.67888 0.0139 0.27555 0.0
H1648 H 0.63386 0.04954 0.34062 0.0
H1649 H 0.58829 0.05934 0.27622 0.0
H1650 H 0.60891 0.08322 0.3615 0.0
H1651 H 0.56423 0.09318 0.29811 0.0
H1652 H 0.73805 0.01439 0.37216 0.0
H1653 H 0.64518 0.02434 0.3764 0.0
H1654 H 0.71413 0.00753 0.33419 0.0
H1655 H 0.67034 0.03088 0.41363 0.0
H1656 H 0.54942 0.01855 0.36336 0.0
H1657 H 0.60535 0.97308 0.40053 0.0
H1658 H 0.67093 0.1246 0.28945 0.0
H1659 H 0.73842 0.08177 0.30594 0.0
H1660 H 0.65374 0.92979 0.30711 0.0
H1661 H 0.59068 0.98065 0.29789 0.0
H1662 H 0.62384 0.89728 0.32014 0.0
H1663 H 0.56183 0.94714 0.31068 0.0
H1664 H 0.67225 0.96861 0.2585 0.0
H1665 H 0.71479 0.03487 0.24803 0.0
H1666 H 0.69639 0.95012 0.22263 0.0
H1667 H 0.73819 0.01515 0.21219 0.0
H1668 H 0.63213 0.03784 0.18877 0.0
H1669 H 0.57464 0.98922 0.21824 0.0
H1670 H 0.70267 0.91424 0.34495 0.0
H1671 H 0.7543 0.94365 0.28842 0.0
Li1672 Li 0.7554 0.92579 0.02879 0.0
Li1673 Li 0.77966 0.89099 0.05148 0.0
Li1674 Li 0.80429 0.92531 0.02533 0.0
Li1675 Li 0.78021 0.89206 0.00242 0.0
C1676 C 0.7749 0.94832 0.07012 0.0
N1677 N 0.76316 0.9895 0.09858 0.0
C1678 C 0.76359 0.94563 0.09397 0.0
C1679 C 0.78044 0.97192 0.06083 0.0
C1680 C 0.75774 0.96669 0.10805 0.0
C1681 C 0.77432 0.99252 0.07548 0.0
C1682 C 0.73615 0.87025 0.03602 0.0
C1683 C 0.72742 0.82679 0.03888 0.0
N1684 N 0.70646 0.83211 0.05347 0.0
C1685 C 0.7145 0.87533 0.05093 0.0
C1686 C 0.74267 0.84583 0.02985 0.0
C1687 C 0.69975 0.85577 0.05962 0.0
C1688 C 0.71336 0.95404 0.00779 0.0
N1689 N 0.72304 0.94568 0.02975 0.0
C1690 C 0.68589 0.96174 0.05215 0.0
C1691 C 0.70969 0.94938 0.05172 0.0
C1692 C 0.67542 0.97035 0.02975 0.0
C1693 C 0.68964 0.96646 0.00739 0.0
H1694 H 0.72386 0.95065 0.99042 0.0
H1695 H 0.71717 0.94223 0.06898 0.0
C1696 C 0.79897 0.85648 0.09136 0.0
N1697 N 0.77887 0.87106 0.08431 0.0
C1698 C 0.79893 0.84431 0.11501 0.0
C1699 C 0.75758 0.86196 0.12416 0.0
C1700 C 0.75832 0.8737 0.10035 0.0
C1701 C 0.77811 0.84707 0.13201 0.0
H1702 H 0.81537 0.85458 0.07883 0.0
H1703 H 0.74252 0.88542 0.09494 0.0
C1704 C 0.78425 0.94809 0.98207 0.0
N1705 N 0.79551 0.98641 0.94913 0.0
C1706 C 0.79737 0.94326 0.95948 0.0
C1707 C 0.77664 0.97236 0.98782 0.0
C1708 C 0.80295 0.9629 0.9431 0.0
C1709 C 0.78256 0.99149 0.97094 0.0
C1710 C 0.82517 0.86979 0.01633 0.0
C1711 C 0.84643 0.87613 0.00166 0.0
C1712 C 0.8199 0.8449 0.0207 0.0
C1713 C 0.86204 0.85736 0.9914 0.0
C1714 C 0.83596 0.82667 0.01009 0.0
N1715 N 0.85651 0.83322 0.99578 0.0
C1716 C 0.84457 0.95439 0.04622 0.0
C1717 C 0.849 0.95052 0.00244 0.0
C1718 C 0.86702 0.96782 0.04657 0.0
N1719 N 0.83584 0.94586 0.02437 0.0
C1720 C 0.87152 0.96391 0.00196 0.0
C1721 C 0.88098 0.97271 0.02425 0.0
H1722 H 0.83432 0.95045 0.06361 0.0
H1723 H 0.84241 0.94341 0.98521 0.0
C1724 C 0.75548 0.86528 0.96278 0.0
N1725 N 0.77829 0.87358 0.96963 0.0
C1726 C 0.75268 0.85416 0.93935 0.0
C1727 C 0.79676 0.86006 0.92988 0.0
C1728 C 0.79876 0.87104 0.95349 0.0
C1729 C 0.77344 0.85149 0.9223 0.0
H1730 H 0.73918 0.86761 0.97537 0.0
H1731 H 0.81671 0.87801 0.95861 0.0
O1732 O 0.7807 0.92796 0.05602 0.0
O1733 O 0.75095 0.88909 0.02754 0.0
O1734 O 0.77863 0.92911 0.99833 0.0
O1735 O 0.80955 0.88789 0.02635 0.0
H1736 H 0.75931 0.9275 0.1015 0.0
H1737 H 0.78953 0.97428 0.04257 0.0
H1738 H 0.74889 0.96489 0.1265 0.0
H1739 H 0.77848 0.0109 0.06851 0.0
H1740 H 0.73224 0.80778 0.03429 0.0
H1741 H 0.70923 0.89416 0.05586 0.0
H1742 H 0.75931 0.84166 0.01818 0.0
H1743 H 0.68297 0.8594 0.07125 0.0
H1744 H 0.67555 0.96419 0.0698 0.0
H1745 H 0.68226 0.97264 0.98969 0.0
H1746 H 0.81527 0.83315 0.12017 0.0
H1747 H 0.74115 0.86478 0.13653 0.0
H1748 H 0.80335 0.92458 0.95473 0.0
H1749 H 0.76613 0.97636 0.00505 0.0
H1750 H 0.81322 0.95946 0.9256 0.0
H1751 H 0.77682 0.01037 0.97516 0.0
H1752 H 0.85073 0.89534 0.99812 0.0
H1753 H 0.80359 0.83972 0.03215 0.0
H1754 H 0.87852 0.86197 0.97993 0.0
H1755 H 0.8321 0.80731 0.01326 0.0
H1756 H 0.8737 0.97392 0.06424 0.0
H1757 H 0.88178 0.96689 0.98436 0.0
H1758 H 0.73433 0.84784 0.93451 0.0
H1759 H 0.81334 0.85846 0.91751 0.0
Li1760 Li 0.29935 0.68125 0.0269 0.0
Li1761 Li 0.32032 0.64545 0.00817 0.0
Li1762 Li 0.30216 0.67895 0.98299 0.0
Li1763 Li 0.27532 0.65008 0.00492 0.0
C1764 C 0.34652 0.6949 0.01763 0.0
N1765 N 0.37869 0.7244 0.04247 0.0
C1766 C 0.36705 0.68426 0.02992 0.0
C1767 C 0.34249 0.72056 0.01776 0.0
C1768 C 0.38308 0.69949 0.04241 0.0
C1769 C 0.35891 0.73516 0.03051 0.0
C1770 C 0.29915 0.62822 0.05365 0.0
C1771 C 0.29605 0.58621 0.06918 0.0
N1772 N 0.30799 0.59248 0.09009 0.0
C1773 C 0.31103 0.63431 0.07549 0.0
C1774 C 0.29126 0.60403 0.05064 0.0
C1775 C 0.31546 0.61597 0.09361 0.0
C1776 C 0.27343 0.71534 0.05577 0.0
N1777 N 0.296 0.70281 0.05396 0.0
C1778 C 0.30844 0.71916 0.09252 0.0
C1779 C 0.31359 0.70457 0.07163 0.0
C1780 C 0.28497 0.73162 0.09496 0.0
C1781 C 0.2675 0.73006 0.07625 0.0
H1782 H 0.25957 0.71322 0.04178 0.0
H1783 H 0.3312 0.69408 0.06997 0.0
C1784 C 0.35578 0.61651 0.98469 0.0
N1785 N 0.34701 0.6224 0.00806 0.0
C1786 C 0.37668 0.60078 0.98144 0.0
C1787 C 0.37947 0.59776 0.02648 0.0
C1788 C 0.35814 0.61327 0.02886 0.0
C1789 C 0.38896 0.59189 0.00251 0.0
H1790 H 0.34711 0.62479 0.96853 0.0
H1791 H 0.35138 0.61895 0.04714 0.0
C1792 C 0.25856 0.70331 0.98956 0.0
N1793 N 0.23315 0.73747 0.96011 0.0
C1794 C 0.23752 0.69634 0.97671 0.0
C1795 C 0.26646 0.72774 0.98776 0.0
C1796 C 0.22497 0.71387 0.96184 0.0
C1797 C 0.25343 0.7447 0.97267 0.0
C1798 C 0.2955 0.6219 0.96551 0.0
C1799 C 0.28931 0.62291 0.94036 0.0
C1800 C 0.29712 0.59899 0.97791 0.0
C1801 C 0.28427 0.60103 0.92821 0.0
C1802 C 0.29197 0.57753 0.96513 0.0
N1803 N 0.28565 0.57898 0.94076 0.0
C1804 C 0.32569 0.71281 0.95042 0.0
C1805 C 0.289 0.6942 0.93595 0.0
C1806 C 0.32779 0.72725 0.92874 0.0
N1807 N 0.30629 0.69705 0.95362 0.0
C1808 C 0.29033 0.70823 0.91409 0.0
C1809 C 0.30976 0.72501 0.9106 0.0
H1810 H 0.3393 0.71434 0.96477 0.0
H1811 H 0.27389 0.68142 0.93917 0.0
C1812 C 0.23589 0.62906 0.02966 0.0
N1813 N 0.24571 0.63298 0.00622 0.0
C1814 C 0.21506 0.6144 0.03336 0.0
C1815 C 0.21402 0.60929 0.9885 0.0
C1816 C 0.23504 0.62402 0.98568 0.0
C1817 C 0.2043 0.60419 0.01262 0.0
H1818 H 0.24462 0.63693 0.0455 0.0
H1819 H 0.24289 0.62813 0.96724 0.0
O1820 O 0.33075 0.6803 0.00516 0.0
O1821 O 0.29454 0.64604 0.03577 0.0
O1822 O 0.27126 0.68634 0.00399 0.0
O1823 O 0.30026 0.64323 0.97772 0.0
H1824 H 0.37057 0.66446 0.02982 0.0
H1825 H 0.32673 0.72909 0.00829 0.0
H1826 H 0.399 0.6915 0.05206 0.0
H1827 H 0.35592 0.75502 0.03091 0.0
H1828 H 0.29014 0.56741 0.06701 0.0
H1829 H 0.31704 0.65292 0.07831 0.0
H1830 H 0.28125 0.59906 0.03436 0.0
H1831 H 0.32487 0.62041 0.11048 0.0
H1832 H 0.32207 0.71993 0.10703 0.0
H1833 H 0.24913 0.73932 0.078 0.0
H1834 H 0.38417 0.59689 0.96277 0.0
H1835 H 0.3892 0.59149 0.04296 0.0
H1836 H 0.23107 0.67757 0.97804 0.0
H1837 H 0.28259 0.73346 0.99776 0.0
H1838 H 0.20876 0.7087 0.95165 0.0
H1839 H 0.25945 0.76361 0.97093 0.0
H1840 H 0.28836 0.64037 0.93029 0.0
H1841 H 0.30262 0.59777 0.99708 0.0
H1842 H 0.2793 0.60159 0.9088 0.0
H1843 H 0.29309 0.5597 0.97455 0.0
H1844 H 0.34292 0.74021 0.92627 0.0
H1845 H 0.27617 0.70635 0.90021 0.0
H1846 H 0.20752 0.61087 0.05213 0.0
H1847 H 0.20559 0.60181 0.97224 0.0
Li1848 Li 0.16402 0.53636 0.80304 0.0
Li1849 Li 0.13304 0.50621 0.81523 0.0
Li1850 Li 0.17467 0.49274 0.80225 0.0
Li1851 Li 0.14503 0.5113 0.7726 0.0
C1852 C 0.17901 0.51542 0.85132 0.0
N1853 N 0.20775 0.51923 0.893 0.0
C1854 C 0.16731 0.51923 0.87482 0.0
C1855 C 0.20534 0.51352 0.84904 0.0
C1856 C 0.18216 0.52112 0.89566 0.0
C1857 C 0.21953 0.51552 0.87032 0.0
C1858 C 0.11374 0.55404 0.80682 0.0
C1859 C 0.08015 0.5851 0.80807 0.0
N1860 N 0.08482 0.58937 0.8324 0.0
C1861 C 0.11824 0.55877 0.83184 0.0
C1862 C 0.09455 0.5673 0.79483 0.0
C1863 C 0.10339 0.57668 0.84445 0.0
C1864 C 0.1674 0.58904 0.80281 0.0
N1865 N 0.1796 0.5668 0.80608 0.0
C1866 C 0.21973 0.58553 0.80228 0.0
C1867 C 0.2052 0.56475 0.80624 0.0
C1868 C 0.20761 0.6084 0.79788 0.0
C1869 C 0.18121 0.61035 0.79891 0.0
H1870 H 0.14718 0.59017 0.80144 0.0
H1871 H 0.21437 0.54672 0.80748 0.0
C1872 C 0.11557 0.48288 0.85777 0.0
N1873 N 0.10774 0.49819 0.83908 0.0
C1874 C 0.10064 0.48027 0.87946 0.0
C1875 C 0.06874 0.50705 0.86091 0.0
C1876 C 0.08426 0.50898 0.83947 0.0
C1877 C 0.07775 0.49374 0.88156 0.0
H1878 H 0.1343 0.4744 0.85661 0.0
H1879 H 0.07835 0.52053 0.82398 0.0
C1880 C 0.19504 0.50905 0.75547 0.0
N1881 N 0.22259 0.49114 0.7145 0.0
C1882 C 0.1906 0.48547 0.74653 0.0
C1883 C 0.21334 0.52357 0.74347 0.0
C1884 C 0.20479 0.47673 0.72583 0.0
C1885 C 0.2271 0.51417 0.7228 0.0
C1886 C 0.12326 0.4636 0.79594 0.0
C1887 C 0.12838 0.43972 0.80515 0.0
C1888 C 0.09831 0.47124 0.79186 0.0
C1889 C 0.10839 0.42399 0.81052 0.0
C1890 C 0.07884 0.45499 0.7975 0.0
N1891 N 0.08424 0.4319 0.80665 0.0
C1892 C 0.19277 0.45181 0.82666 0.0
C1893 C 0.22262 0.46814 0.79706 0.0
C1894 C 0.2078 0.43061 0.82992 0.0
N1895 N 0.1997 0.46913 0.80929 0.0
C1896 C 0.23824 0.44722 0.79965 0.0
C1897 C 0.22992 0.4277 0.81508 0.0
H1898 H 0.17472 0.45372 0.83663 0.0
H1899 H 0.22808 0.48275 0.78417 0.0
C1900 C 0.14019 0.53378 0.72664 0.0
N1901 N 0.13385 0.51324 0.74013 0.0
C1902 C 0.12824 0.53944 0.70448 0.0
C1903 C 0.1042 0.50222 0.71035 0.0
C1904 C 0.11708 0.49696 0.73204 0.0
C1905 C 0.10922 0.5241 0.69691 0.0
H1906 H 0.15349 0.5464 0.73384 0.0
H1907 H 0.11272 0.48064 0.74304 0.0
O1908 O 0.16461 0.51245 0.83096 0.0
O1909 O 0.12757 0.53625 0.79408 0.0
O1910 O 0.18131 0.51822 0.77557 0.0
O1911 O 0.14256 0.47938 0.79081 0.0
H1912 H 0.14696 0.52058 0.87699 0.0
H1913 H 0.21476 0.51027 0.83111 0.0
H1914 H 0.17333 0.52401 0.91396 0.0
H1915 H 0.23992 0.51401 0.86881 0.0
H1916 H 0.06522 0.59549 0.79902 0.0
H1917 H 0.13298 0.54875 0.84145 0.0
H1918 H 0.09079 0.56379 0.77549 0.0
H1919 H 0.10663 0.58047 0.86382 0.0
H1920 H 0.24013 0.58356 0.80111 0.0
H1921 H 0.17151 0.62785 0.79512 0.0
H1922 H 0.10802 0.47008 0.89531 0.0
H1923 H 0.05115 0.51773 0.86228 0.0
H1924 H 0.17648 0.47397 0.75547 0.0
H1925 H 0.21686 0.54192 0.75008 0.0
H1926 H 0.20165 0.45849 0.71878 0.0
H1927 H 0.24136 0.5252 0.71335 0.0
H1928 H 0.14758 0.43329 0.80796 0.0
H1929 H 0.09401 0.48973 0.78485 0.0
H1930 H 0.11208 0.40548 0.81771 0.0
H1931 H 0.05944 0.46076 0.79466 0.0
H1932 H 0.20099 0.41566 0.84184 0.0
H1933 H 0.25528 0.44523 0.78797 0.0
H1934 H 0.13253 0.55636 0.69426 0.0
H1935 H 0.08973 0.48996 0.70471 0.0
Li1936 Li 0.25248 0.42474 0.52945 0.0
Li1937 Li 0.27743 0.39017 0.55179 0.0
Li1938 Li 0.30171 0.4249 0.52608 0.0
Li1939 Li 0.27832 0.3918 0.50269 0.0
C1940 C 0.27058 0.44566 0.57248 0.0
N1941 N 0.25601 0.48322 0.60475 0.0
C1942 C 0.25373 0.44106 0.59259 0.0
C1943 C 0.28 0.46935 0.56875 0.0
C1944 C 0.24661 0.46029 0.60872 0.0
C1945 C 0.27241 0.4881 0.58526 0.0
C1946 C 0.23565 0.36747 0.53486 0.0
C1947 C 0.23085 0.32328 0.53553 0.0
N1948 N 0.20899 0.32624 0.54944 0.0
C1949 C 0.21315 0.3701 0.54912 0.0
C1950 C 0.2446 0.34392 0.52797 0.0
C1951 C 0.19995 0.34901 0.55633 0.0
C1952 C 0.19917 0.43206 0.52156 0.0
N1953 N 0.21928 0.44363 0.53081 0.0
C1954 C 0.19203 0.47881 0.54137 0.0
C1955 C 0.21602 0.46676 0.54049 0.0
C1956 C 0.17099 0.46708 0.53223 0.0
C1957 C 0.17489 0.44338 0.52219 0.0
H1958 H 0.20192 0.41386 0.51366 0.0
H1959 H 0.23198 0.47605 0.5475 0.0
C1960 C 0.29871 0.359 0.59292 0.0
N1961 N 0.27714 0.37019 0.58446 0.0
C1962 C 0.29904 0.34701 0.61664 0.0
C1963 C 0.255 0.35783 0.6229 0.0
C1964 C 0.25548 0.36957 0.59911 0.0
C1965 C 0.277 0.34641 0.63217 0.0
H1966 H 0.31595 0.35976 0.58151 0.0
H1967 H 0.23851 0.37877 0.5927 0.0
C1968 C 0.28307 0.44789 0.4835 0.0
N1969 N 0.29792 0.48632 0.45223 0.0
C1970 C 0.30266 0.44413 0.46567 0.0
C1971 C 0.271 0.47113 0.48546 0.0
C1972 C 0.30991 0.46382 0.45003 0.0
C1973 C 0.27879 0.49034 0.46946 0.0
C1974 C 0.32317 0.36957 0.51687 0.0
C1975 C 0.34303 0.37588 0.50032 0.0
C1976 C 0.31951 0.34476 0.52334 0.0
C1977 C 0.35889 0.35714 0.49034 0.0
C1978 C 0.33576 0.32657 0.51295 0.0
N1979 N 0.35494 0.33309 0.4968 0.0
C1980 C 0.3552 0.43408 0.53369 0.0
C1981 C 0.3337 0.46947 0.51787 0.0
C1982 C 0.37793 0.44704 0.53403 0.0
N1983 N 0.33346 0.44524 0.52561 0.0
C1984 C 0.356 0.48314 0.51806 0.0
C1985 C 0.37864 0.47198 0.52618 0.0
H1986 H 0.35498 0.41497 0.53997 0.0
H1987 H 0.31653 0.47844 0.51167 0.0
C1988 C 0.25452 0.36389 0.4633 0.0
N1989 N 0.2769 0.37361 0.46955 0.0
C1990 C 0.25175 0.35277 0.43988 0.0
C1991 C 0.29496 0.3616 0.42905 0.0
C1992 C 0.29695 0.37256 0.45271 0.0
C1993 C 0.27204 0.3516 0.42216 0.0
H1994 H 0.23849 0.36511 0.47635 0.0
H1995 H 0.31453 0.38065 0.4573 0.0
O1996 O 0.27796 0.42707 0.55659 0.0
O1997 O 0.24894 0.38786 0.52775 0.0
O1998 O 0.27581 0.42894 0.4991 0.0
O1999 O 0.30739 0.38761 0.52674 0.0
H2000 H 0.24619 0.42287 0.59569 0.0
H2001 H 0.29291 0.47326 0.5532 0.0
H2002 H 0.23359 0.45699 0.62438 0.0
H2003 H 0.27952 0.50654 0.58256 0.0
H2004 H 0.23754 0.30492 0.53033 0.0
H2005 H 0.20609 0.38822 0.55479 0.0
H2006 H 0.26195 0.34161 0.51685 0.0
H2007 H 0.18254 0.35075 0.56744 0.0
H2008 H 0.18991 0.49715 0.54914 0.0
H2009 H 0.15928 0.43372 0.51479 0.0
H2010 H 0.31651 0.33865 0.62298 0.0
H2011 H 0.23761 0.35805 0.63417 0.0
H2012 H 0.31229 0.42628 0.46407 0.0
H2013 H 0.25587 0.47432 0.49926 0.0
H2014 H 0.32509 0.46123 0.43616 0.0
H2015 H 0.26966 0.50845 0.47078 0.0
H2016 H 0.34603 0.39502 0.49506 0.0
H2017 H 0.3043 0.33963 0.53627 0.0
H2018 H 0.37429 0.36172 0.47742 0.0
H2019 H 0.33314 0.30728 0.51774 0.0
H2020 H 0.39486 0.43764 0.54045 0.0
H2021 H 0.3556 0.5023 0.51182 0.0
H2022 H 0.23371 0.34536 0.43553 0.0
H2023 H 0.31115 0.36119 0.41611 0.0
Li2024 Li 0.411 0.54535 0.27938 0.0
Li2025 Li 0.38589 0.52387 0.24966 0.0
Li2026 Li 0.41484 0.55432 0.23471 0.0
Li2027 Li 0.37541 0.5648 0.25831 0.0
C2028 C 0.44599 0.51264 0.25487 0.0
N2029 N 0.49333 0.49116 0.26066 0.0
C2030 C 0.44877 0.48705 0.25829 0.0
C2031 C 0.46725 0.52732 0.25426 0.0
C2032 C 0.47287 0.47653 0.26123 0.0
C2033 C 0.49104 0.5161 0.25725 0.0
C2034 C 0.3563 0.54359 0.29995 0.0
C2035 C 0.31241 0.55214 0.31103 0.0
N2036 N 0.31895 0.55874 0.33425 0.0
C2037 C 0.36253 0.5501 0.32407 0.0
C2038 C 0.33098 0.54426 0.2935 0.0
C2039 C 0.3434 0.55783 0.34108 0.0
C2040 C 0.42934 0.56776 0.31964 0.0
N2041 N 0.42926 0.54546 0.30835 0.0
C2042 C 0.45567 0.52721 0.33902 0.0
C2043 C 0.44183 0.52523 0.31756 0.0
C2044 C 0.45615 0.55014 0.35075 0.0
C2045 C 0.44284 0.57056 0.34103 0.0
H2046 H 0.41871 0.58332 0.31206 0.0
H2047 H 0.44107 0.50767 0.30833 0.0
C2048 C 0.38652 0.48051 0.22265 0.0
N2049 N 0.37431 0.49338 0.24129 0.0
C2050 C 0.37809 0.45741 0.21621 0.0
C2051 C 0.34467 0.46182 0.24818 0.0
C2052 C 0.35375 0.48471 0.254 0.0
C2053 C 0.35707 0.448 0.22929 0.0
H2054 H 0.40286 0.48817 0.21299 0.0
H2055 H 0.34459 0.49553 0.2687 0.0
C2056 C 0.42217 0.5989 0.2589 0.0
N2057 N 0.44764 0.64242 0.25174 0.0
C2058 C 0.41009 0.61958 0.24822 0.0
C2059 C 0.44718 0.60034 0.26599 0.0
C2060 C 0.42329 0.64143 0.24477 0.0
C2061 C 0.45975 0.6225 0.26217 0.0
C2062 C 0.36548 0.53933 0.20801 0.0
C2063 C 0.37577 0.53359 0.18433 0.0
C2064 C 0.34065 0.53305 0.21436 0.0
C2065 C 0.36124 0.52113 0.16762 0.0
C2066 C 0.32675 0.52052 0.19719 0.0
N2067 N 0.33726 0.51484 0.17437 0.0
C2068 C 0.44259 0.53956 0.19504 0.0
C2069 C 0.44675 0.58275 0.20033 0.0
C2070 C 0.45698 0.54032 0.17295 0.0
N2071 N 0.43737 0.5606 0.20792 0.0
C2072 C 0.46183 0.58429 0.17847 0.0
C2073 C 0.4664 0.56292 0.16435 0.0
H2074 H 0.43467 0.5223 0.20152 0.0
H2075 H 0.44214 0.59927 0.21072 0.0
C2076 C 0.35069 0.60316 0.28307 0.0
N2077 N 0.35069 0.58966 0.26193 0.0
C2078 C 0.33624 0.62493 0.28478 0.0
C2079 C 0.32163 0.61805 0.24317 0.0
C2080 C 0.33616 0.59619 0.24239 0.0
C2081 C 0.32236 0.6329 0.26426 0.0
H2082 H 0.36316 0.59783 0.29787 0.0
H2083 H 0.3372 0.58539 0.22559 0.0
O2084 O 0.4225 0.52313 0.25197 0.0
O2085 O 0.37482 0.53608 0.28297 0.0
O2086 O 0.40941 0.57751 0.26284 0.0
O2087 O 0.37952 0.55125 0.22479 0.0
H2088 H 0.43244 0.47546 0.25876 0.0
H2089 H 0.4654 0.54712 0.25143 0.0
H2090 H 0.47532 0.45675 0.26396 0.0
H2091 H 0.50768 0.52722 0.25683 0.0
H2092 H 0.29278 0.55299 0.30616 0.0
H2093 H 0.38186 0.54911 0.32969 0.0
H2094 H 0.32571 0.53898 0.27511 0.0
H2095 H 0.348 0.56306 0.35974 0.0
H2096 H 0.46571 0.51116 0.34648 0.0
H2097 H 0.4428 0.58837 0.35001 0.0
H2098 H 0.38798 0.44685 0.20169 0.0
H2099 H 0.32845 0.4547 0.25859 0.0
H2100 H 0.39081 0.61867 0.24249 0.0
H2101 H 0.45678 0.58455 0.27442 0.0
H2102 H 0.4142 0.65759 0.23649 0.0
H2103 H 0.47912 0.62387 0.26754 0.0
H2104 H 0.39469 0.53881 0.17879 0.0
H2105 H 0.33229 0.5376 0.23245 0.0
H2106 H 0.36902 0.5165 0.14927 0.0
H2107 H 0.30762 0.51531 0.202 0.0
H2108 H 0.46032 0.52355 0.16238 0.0
H2109 H 0.46907 0.60194 0.17216 0.0
H2110 H 0.33743 0.63642 0.30105 0.0
H2111 H 0.31142 0.62417 0.22694 0.0
Co2112 Co 0.02584 0.0411 0.00721 0.0
C2113 C 0.01992 0.07441 0.04781 0.0
Co2114 Co 0.03023 0.02285 0.04317 0.0
C2115 C 0.00839 0.05095 0.95847 0.0
C2116 C 0.0328 0.07911 0.97001 0.0
N2117 N 0.02267 0.05739 0.97733 0.0
N2118 N 0.00906 0.06786 0.93987 0.0
C2119 C 0.0243 0.08569 0.94682 0.0
H2120 H 0.99707 0.0346 0.95863 0.0
H2121 H 0.04506 0.08977 0.98104 0.0
C2122 C 0.03621 0.98973 0.00228 0.0
N2123 N 0.03316 0.00657 0.07296 0.0
C2124 C 0.0456 0.01388 0.09276 0.0
C2125 C 0.02366 0.98442 0.07971 0.0
N2126 N 0.04428 0.99712 0.11147 0.0
C2127 C 0.0306 0.97848 0.10358 0.0
C2128 C 0.98044 0.02015 0.0262 0.0
O2129 O 0.03323 0.00983 0.98975 0.0
O2130 O 0.03696 0.99139 0.02596 0.0
O2131 O 0.99453 0.01539 0.04446 0.0
O2132 O 0.98976 0.03278 0.00791 0.0
O2133 O 0.02362 0.05449 0.06048 0.0
H2134 H 0.01271 0.97315 0.06794 0.0
H2135 H 0.05589 0.03085 0.09333 0.0
O2136 O 0.01838 0.0724 0.02424 0.0
O2137 O 0.06158 0.04927 0.00654 0.0
O2138 O 0.06623 0.03023 0.04237 0.0
C2139 C 0.07561 0.04356 0.02468 0.0
H2140 H 0.02836 0.1024 0.93618 0.0
H2141 H 0.02646 0.96175 0.11414 0.0
Co2142 Co 0.28673 0.77774 0.29586 0.0
C2143 C 0.28913 0.7342 0.27103 0.0
Co2144 Co 0.27143 0.78105 0.25843 0.0
C2145 C 0.28795 0.7859 0.34739 0.0
C2146 C 0.32185 0.76689 0.33452 0.0
N2147 N 0.29903 0.77532 0.32718 0.0
N2148 N 0.30314 0.78518 0.36684 0.0
C2149 C 0.32456 0.77324 0.35908 0.0
H2150 H 0.26997 0.79591 0.3473 0.0
H2151 H 0.33618 0.75828 0.32236 0.0
C2152 C 0.26906 0.82455 0.28367 0.0
N2153 N 0.25931 0.78381 0.22706 0.0
C2154 C 0.27008 0.77349 0.20654 0.0
C2155 C 0.2383 0.79588 0.21923 0.0
N2156 N 0.25665 0.77852 0.18629 0.0
C2157 C 0.23655 0.79253 0.19391 0.0
C2158 C 0.23587 0.76967 0.2943 0.0
O2159 O 0.2803 0.81193 0.30023 0.0
O2160 O 0.26313 0.81453 0.26362 0.0
O2161 O 0.23944 0.77248 0.27094 0.0
O2162 O 0.25415 0.77113 0.30874 0.0
O2163 O 0.27991 0.74713 0.25342 0.0
H2164 H 0.22496 0.80605 0.23122 0.0
H2165 H 0.28715 0.762 0.20646 0.0
O2166 O 0.29318 0.74397 0.29174 0.0
O2167 O 0.31905 0.78447 0.28287 0.0
O2168 O 0.30344 0.78985 0.24574 0.0
C2169 C 0.32204 0.78983 0.25989 0.0
H2170 H 0.34135 0.77079 0.36984 0.0
H2171 H 0.22152 0.79915 0.18218 0.0
Co2172 Co 0.50587 0.03198 0.52316 0.0
C2173 C 0.52634 0.0784 0.5094 0.0
Co2174 Co 0.54589 0.0333 0.53078 0.0
C2175 C 0.45698 0.01183 0.51736 0.0
C2176 C 0.45569 0.05131 0.52003 0.0
N2177 N 0.47182 0.03155 0.51797 0.0
N2178 N 0.43239 0.01853 0.51984 0.0
C2179 C 0.43138 0.0433 0.52126 0.0
H2180 H 0.46391 0.99282 0.51758 0.0
H2181 H 0.46116 0.07014 0.52283 0.0
C2182 C 0.52598 0.98669 0.54488 0.0
N2183 N 0.57937 0.03461 0.53672 0.0
C2184 C 0.59693 0.04499 0.52154 0.0
C2185 C 0.59137 0.02816 0.55775 0.0
N2186 N 0.61926 0.04554 0.5324 0.0
C2187 C 0.61609 0.03499 0.55514 0.0
C2188 C 0.51524 0.04873 0.56994 0.0
O2189 O 0.50572 0.99768 0.53768 0.0
O2190 O 0.54613 0.99892 0.54269 0.0
O2191 O 0.53812 0.04441 0.56348 0.0
O2192 O 0.49805 0.04454 0.55501 0.0
O2193 O 0.54601 0.06798 0.51839 0.0
H2194 H 0.58242 0.02056 0.57448 0.0
H2195 H 0.59307 0.05351 0.50358 0.0
O2196 O 0.50651 0.06571 0.50939 0.0
O2197 O 0.51349 0.01964 0.49062 0.0
O2198 O 0.55367 0.02238 0.49838 0.0
C2199 C 0.53657 0.01755 0.48345 0.0
H2200 H 0.41441 0.0545 0.52491 0.0
H2201 H 0.63016 0.03383 0.56928 0.0
Co2202 Co 0.29615 0.28982 0.78162 0.0
C2203 C 0.27673 0.30226 0.73457 0.0
Co2204 Co 0.25638 0.28112 0.78004 0.0
C2205 C 0.34665 0.28145 0.79458 0.0
C2206 C 0.34211 0.31638 0.77554 0.0
N2207 N 0.32958 0.29607 0.78315 0.0
N2208 N 0.36917 0.292 0.79489 0.0
C2209 C 0.36667 0.31396 0.78295 0.0
H2210 H 0.34235 0.26403 0.80383 0.0
H2211 H 0.33365 0.33231 0.76626 0.0
C2212 C 0.2761 0.26866 0.82696 0.0
N2213 N 0.22303 0.27463 0.77885 0.0
C2214 C 0.20572 0.28818 0.76659 0.0
C2215 C 0.21069 0.25492 0.7884 0.0
N2216 N 0.18322 0.27753 0.76779 0.0
C2217 C 0.18599 0.25661 0.78143 0.0
C2218 C 0.28731 0.24256 0.76641 0.0
O2219 O 0.29576 0.27791 0.81656 0.0
O2220 O 0.25625 0.26838 0.81434 0.0
O2221 O 0.26435 0.24942 0.76837 0.0
O2222 O 0.30442 0.25752 0.77098 0.0
O2223 O 0.25668 0.29398 0.74526 0.0
H2224 H 0.21935 0.23982 0.79881 0.0
H2225 H 0.20976 0.30485 0.75587 0.0
O2226 O 0.29676 0.30159 0.74701 0.0
O2227 O 0.28785 0.32219 0.79227 0.0
O2228 O 0.24792 0.31284 0.79169 0.0
C2229 C 0.26474 0.32835 0.79545 0.0
H2230 H 0.38115 0.32763 0.78092 0.0
H2231 H 0.17161 0.24303 0.78485 0.0
Co2232 Co 0.0181 0.01555 0.53218 0.0
C2233 C 0.00882 0.04453 0.57241 0.0
Co2234 Co 0.03719 0.05089 0.52818 0.0
C2235 C 0.01445 0.96416 0.52659 0.0
C2236 C 0.97872 0.98012 0.5387 0.0
N2237 N 0.00319 0.98545 0.53421 0.0
N2238 N 0.99791 0.94597 0.52524 0.0
C2239 C 0.97535 0.9557 0.53292 0.0
H2240 H 0.03393 0.96259 0.5198 0.0
H2241 H 0.96401 0.99354 0.54394 0.0
C2242 C 0.04613 0.02204 0.48785 0.0
N2243 N 0.0523 0.08081 0.526 0.0
C2244 C 0.04141 0.10225 0.53357 0.0
C2245 C 0.07651 0.0861 0.51992 0.0
N2246 N 0.05787 0.12059 0.53302 0.0
C2247 C 0.08007 0.11076 0.52445 0.0
C2248 C 0.06554 0.01497 0.55164 0.0
O2249 O 0.03156 0.00764 0.49996 0.0
O2250 O 0.0517 0.04249 0.49704 0.0
O2251 O 0.06529 0.03725 0.54398 0.0
O2252 O 0.04701 0.00174 0.54693 0.0
O2253 O 0.02248 0.05938 0.55976 0.0
H2254 H 0.09092 0.07261 0.51408 0.0
H2255 H 0.02225 0.10407 0.54115 0.0
O2256 O 0.00458 0.02339 0.56392 0.0
O2257 O 0.98925 0.02964 0.5177 0.0
O2258 O 0.00888 0.06465 0.51241 0.0
C2259 C 0.98938 0.052 0.51023 0.0
H2260 H 0.95758 0.94639 0.53256 0.0
H2261 H 0.09775 0.12029 0.5232 0.0
Co2262 Co 0.27603 0.80326 0.78147 0.0
C2263 C 0.22913 0.78308 0.79447 0.0
Co2264 Co 0.27395 0.76467 0.77023 0.0
C2265 C 0.28944 0.85316 0.77595 0.0
C2266 C 0.26867 0.84724 0.81053 0.0
N2267 N 0.2776 0.83571 0.78969 0.0
N2268 N 0.28848 0.87498 0.78743 0.0
C2269 C 0.2755 0.87162 0.80921 0.0
H2270 H 0.29941 0.84981 0.75826 0.0
H2271 H 0.2586 0.8383 0.82596 0.0
C2272 C 0.32098 0.78474 0.75736 0.0
N2273 N 0.27251 0.73204 0.76188 0.0
C2274 C 0.2587 0.71482 0.77396 0.0
C2275 C 0.28548 0.71979 0.7435 0.0
N2276 N 0.26257 0.69238 0.76396 0.0
C2277 C 0.27951 0.69519 0.74487 0.0
C2278 C 0.25899 0.79708 0.73411 0.0
O2279 O 0.31045 0.80397 0.76701 0.0
O2280 O 0.30844 0.7651 0.75724 0.0
O2281 O 0.2626 0.77419 0.7386 0.0
O2282 O 0.26316 0.81278 0.75062 0.0
O2283 O 0.23917 0.76438 0.78343 0.0
H2284 H 0.2985 0.72812 0.73003 0.0
H2285 H 0.24622 0.71847 0.79003 0.0
O2286 O 0.242 0.80245 0.79588 0.0
O2287 O 0.28892 0.79401 0.81224 0.0
O2288 O 0.28538 0.75517 0.80189 0.0
C2289 C 0.29102 0.7712 0.81761 0.0
H2290 H 0.27225 0.88545 0.82343 0.0
H2291 H 0.28666 0.68059 0.73271 0.0
Co2292 Co 0.52747 0.03046 0.00681 0.0
C2293 C 0.57394 0.01743 0.02769 0.0
Co2294 Co 0.52842 0.04008 0.04636 0.0
C2295 C 0.51556 0.03746 0.95613 0.0
C2296 C 0.53828 0.00447 0.96123 0.0
N2297 N 0.52742 0.02385 0.97356 0.0
N2298 N 0.51841 0.02726 0.93355 0.0
C2299 C 0.53263 0.0065 0.9364 0.0
H2300 H 0.50427 0.05406 0.95996 0.0
H2301 H 0.54896 0.98949 0.96983 0.0
C2302 C 0.48183 0.05292 0.02551 0.0
N2303 N 0.52861 0.04645 0.08025 0.0
C2304 C 0.54604 0.03808 0.09624 0.0
C2305 C 0.5106 0.05784 0.09492 0.0
N2306 N 0.53952 0.04346 0.12001 0.0
C2307 C 0.51719 0.05581 0.11949 0.0
C2308 C 0.54356 0.07765 0.0157 0.0
O2309 O 0.49298 0.04448 0.0058 0.0
O2310 O 0.4938 0.05214 0.0456 0.0
O2311 O 0.53928 0.07233 0.03862 0.0
O2312 O 0.54049 0.06158 0.99921 0.0
O2313 O 0.56339 0.02781 0.04664 0.0
H2314 H 0.49338 0.06656 0.08848 0.0
H2315 H 0.56284 0.02729 0.091 0.0
O2316 O 0.56154 0.01634 0.00792 0.0
O2317 O 0.51432 0.99965 0.01411 0.0
O2318 O 0.51736 0.00784 0.05387 0.0
C2319 C 0.51196 0.99306 0.0368 0.0
H2320 H 0.53746 0.99332 0.92187 0.0
H2321 H 0.50643 0.06254 0.13569 0.0
Co2322 Co 0.27352 0.26613 0.28838 0.0
C2323 C 0.3228 0.28419 0.29277 0.0
Co2324 Co 0.27795 0.30209 0.27102 0.0
C2325 C 0.25826 0.21672 0.29694 0.0
C2326 C 0.28021 0.22964 0.32659 0.0
N2327 N 0.27064 0.2364 0.30436 0.0
N2328 N 0.25973 0.19808 0.31368 0.0
C2329 C 0.27341 0.20588 0.33244 0.0
H2330 H 0.24792 0.21619 0.27991 0.0
H2331 H 0.29107 0.24138 0.33799 0.0
C2332 C 0.22874 0.28404 0.26647 0.0
N2333 N 0.2808 0.33227 0.25591 0.0
C2334 C 0.30094 0.34104 0.24302 0.0
C2335 C 0.26444 0.3517 0.25856 0.0
N2336 N 0.29825 0.3655 0.23864 0.0
C2337 C 0.27526 0.37229 0.24802 0.0
C2338 C 0.28558 0.26243 0.23675 0.0
O2339 O 0.23784 0.26599 0.27927 0.0
O2340 O 0.24274 0.30243 0.26216 0.0
O2341 O 0.28618 0.28593 0.23882 0.0
O2342 O 0.28216 0.24969 0.2568 0.0
O2343 O 0.31364 0.30219 0.28 0.0
H2344 H 0.24661 0.35127 0.26903 0.0
H2345 H 0.31823 0.33037 0.23924 0.0
O2346 O 0.30878 0.26588 0.29734 0.0
O2347 O 0.26462 0.28221 0.31991 0.0
O2348 O 0.26958 0.31833 0.30309 0.0
C2349 C 0.26442 0.30551 0.32273 0.0
H2350 H 0.27758 0.19534 0.34922 0.0
H2351 H 0.26776 0.39112 0.2489 0.0
Co2352 Co 0.52268 0.52017 0.02644 0.0
C2353 C 0.51269 0.54824 0.06749 0.0
Co2354 Co 0.53579 0.55803 0.02125 0.0
C2355 C 0.52585 0.46782 0.02224 0.0
C2356 C 0.48991 0.47997 0.03779 0.0
N2357 N 0.51295 0.48802 0.03052 0.0
N2358 N 0.51149 0.44775 0.02302 0.0
C2359 C 0.48889 0.45511 0.03294 0.0
H2360 H 0.54458 0.4682 0.01361 0.0
H2361 H 0.47429 0.49179 0.0443 0.0
C2362 C 0.54526 0.52979 0.98 0.0
N2363 N 0.54452 0.59027 0.017 0.0
C2364 C 0.53075 0.60955 0.02609 0.0
C2365 C 0.56602 0.59998 0.0074 0.0
N2366 N 0.54297 0.63078 0.02327 0.0
C2367 C 0.56519 0.62512 0.01147 0.0
C2368 C 0.57204 0.52803 0.04002 0.0
O2369 O 0.53434 0.51349 0.99344 0.0
O2370 O 0.54837 0.55102 0.98888 0.0
O2371 O 0.56727 0.55022 0.03364 0.0
O2372 O 0.5553 0.51177 0.03857 0.0
O2373 O 0.52324 0.56481 0.05414 0.0
H2374 H 0.58183 0.58928 0.99947 0.0
H2375 H 0.51288 0.60787 0.03635 0.0
O2376 O 0.51052 0.52678 0.05894 0.0
O2377 O 0.49091 0.52883 0.01409 0.0
O2378 O 0.50431 0.56617 0.00843 0.0
C2379 C 0.48731 0.55062 0.0057 0.0
H2380 H 0.47239 0.44379 0.03472 0.0
H2381 H 0.58032 0.63785 0.00784 0.0
Co2382 Co 0.77769 0.30211 0.28037 0.0
C2383 C 0.73101 0.28171 0.29581 0.0
Co2384 Co 0.77615 0.26246 0.27317 0.0
C2385 C 0.78834 0.35259 0.27053 0.0
C2386 C 0.76694 0.348 0.30496 0.0
N2387 N 0.77711 0.33546 0.28524 0.0
N2388 N 0.78587 0.37517 0.28048 0.0
C2389 C 0.77245 0.37259 0.3021 0.0
H2390 H 0.79926 0.34848 0.25355 0.0
H2391 H 0.75711 0.33964 0.32087 0.0
C2392 C 0.8229 0.28387 0.25812 0.0
N2393 N 0.7765 0.22878 0.26836 0.0
C2394 C 0.7608 0.21235 0.27924 0.0
C2395 C 0.79222 0.21517 0.25319 0.0
N2396 N 0.76609 0.18923 0.27148 0.0
C2397 C 0.78593 0.19071 0.25522 0.0
C2398 C 0.7603 0.28949 0.23377 0.0
O2399 O 0.81174 0.30348 0.26604 0.0
O2400 O 0.81096 0.26376 0.25956 0.0
O2401 O 0.76401 0.26748 0.24128 0.0
O2402 O 0.76453 0.30726 0.24818 0.0
O2403 O 0.74127 0.26206 0.2867 0.0
H2404 H 0.80705 0.22246 0.24104 0.0
H2405 H 0.74559 0.21704 0.2925 0.0
O2406 O 0.74399 0.30105 0.29514 0.0
O2407 O 0.79078 0.29677 0.31202 0.0
O2408 O 0.78801 0.25698 0.30543 0.0
C2409 C 0.79316 0.27455 0.3196 0.0
H2410 H 0.76825 0.38715 0.31538 0.0
H2411 H 0.79464 0.17534 0.24509 0.0
Co2412 Co 0.02308 0.52705 0.51038 0.0
C2413 C 0.06881 0.51299 0.53159 0.0
Co2414 Co 0.02448 0.53929 0.54894 0.0
C2415 C 0.01116 0.53072 0.45932 0.0
C2416 C 0.03055 0.49639 0.46757 0.0
N2417 N 0.02186 0.51775 0.47793 0.0
N2418 N 0.01274 0.51827 0.43787 0.0
C2419 C 0.02484 0.49665 0.44272 0.0
H2420 H 1.00163 0.54857 0.46156 0.0
H2421 H 0.03977 0.48137 0.47762 0.0
C2422 C 0.9788 0.55328 0.52774 0.0
N2423 N 0.02559 0.54792 0.58187 0.0
C2424 C 0.0465 0.55009 0.59503 0.0
C2425 C 0.00638 0.547 0.59912 0.0
N2426 N 0.04123 0.54912 0.61975 0.0
C2427 C 0.01604 0.54753 0.62255 0.0
C2428 C 0.04189 0.57366 0.5154 0.0
O2429 O 0.98904 0.54205 0.50903 0.0
O2430 O 0.99125 0.55447 0.54745 0.0
O2431 O 0.03846 0.56963 0.53869 0.0
O2432 O 0.03703 0.55709 0.49998 0.0
O2433 O 0.05828 0.52378 0.55036 0.0
H2434 H 0.98696 0.54375 0.59506 0.0
H2435 H 0.0655 0.54952 0.58691 0.0
O2436 O 0.05662 0.51221 0.51168 0.0
O2437 O 0.0089 0.49726 0.5205 0.0
O2438 O 0.00989 0.50916 0.55903 0.0
C2439 C 0.0031 0.49361 0.54334 0.0
H2440 H 0.02829 0.48187 0.42953 0.0
H2441 H 0.00573 0.54471 0.64016 0.0
Co2442 Co 0.79675 0.78882 0.28128 0.0
C2443 C 0.77772 0.80181 0.2341 0.0
Co2444 Co 0.75698 0.7802 0.27925 0.0
C2445 C 0.84706 0.78021 0.29495 0.0
C2446 C 0.84313 0.81483 0.2752 0.0
N2447 N 0.83022 0.79489 0.28323 0.0
N2448 N 0.86982 0.79031 0.2949 0.0
C2449 C 0.86769 0.8121 0.28256 0.0
H2450 H 0.84248 0.76297 0.30442 0.0
H2451 H 0.83497 0.83068 0.26552 0.0
C2452 C 0.77617 0.76719 0.32625 0.0
N2453 N 0.72371 0.7736 0.27758 0.0
C2454 C 0.7065 0.78703 0.26506 0.0
C2455 C 0.71173 0.75317 0.28586 0.0
N2456 N 0.68451 0.77549 0.26464 0.0
C2457 C 0.68744 0.75423 0.27771 0.0
C2458 C 0.78804 0.74183 0.26529 0.0
O2459 O 0.79596 0.77645 0.31612 0.0
O2460 O 0.75646 0.76706 0.31342 0.0
O2461 O 0.76509 0.74865 0.26723 0.0
O2462 O 0.8051 0.75671 0.27024 0.0
O2463 O 0.75761 0.79345 0.2446 0.0
H2464 H 0.72051 0.7379 0.29592 0.0
H2465 H 0.71047 0.80407 0.25495 0.0
O2466 O 0.79763 0.8011 0.24674 0.0
O2467 O 0.7884 0.82104 0.29231 0.0
O2468 O 0.74844 0.81178 0.29124 0.0
C2469 C 0.76526 0.82719 0.2954 0.0
H2470 H 0.88246 0.82542 0.28015 0.0
H2471 H 0.67356 0.73999 0.27984 0.0
Co2472 Co 0.78495 0.27892 0.79752 0.0
C2473 C 0.78981 0.23364 0.77542 0.0
Co2474 Co 0.77658 0.2799 0.75781 0.0
C2475 C 0.77737 0.29092 0.8483 0.0
C2476 C 0.81053 0.26774 0.84295 0.0
N2477 N 0.79095 0.27822 0.83086 0.0
N2478 N 0.78797 0.28932 0.87062 0.0
C2479 C 0.80882 0.27476 0.86759 0.0
H2480 H 0.7609 0.30247 0.8444 0.0
H2481 H 0.82563 0.25674 0.83417 0.0
C2482 C 0.77218 0.32532 0.7793 0.0
N2483 N 0.77054 0.2808 0.72447 0.0
C2484 C 0.78418 0.2684 0.70685 0.0
C2485 C 0.75079 0.29119 0.71256 0.0
N2486 N 0.7735 0.27017 0.68459 0.0
C2487 C 0.75251 0.2845 0.68783 0.0
C2488 C 0.73512 0.27145 0.78785 0.0
O2489 O 0.77822 0.31328 0.7988 0.0
O2490 O 0.7696 0.31371 0.75935 0.0
O2491 O 0.74235 0.27343 0.76511 0.0
O2492 O 0.75088 0.27305 0.80488 0.0
O2493 O 0.78382 0.24591 0.75611 0.0
H2494 H 0.73549 0.30178 0.72154 0.0
H2495 H 0.80072 0.25689 0.71058 0.0
O2496 O 0.79146 0.2445 0.79608 0.0
O2497 O 0.81927 0.28542 0.79023 0.0
O2498 O 0.81063 0.28652 0.75057 0.0
C2499 C 0.82639 0.28859 0.7676 0.0
H2500 H 0.82236 0.27059 0.8818 0.0
H2501 H 0.73881 0.28856 0.67374 0.0
Co2502 Co 0.77288 0.76724 0.78761 0.0
C2503 C 0.82285 0.78362 0.79079 0.0
Co2504 Co 0.7779 0.80306 0.76995 0.0
C2505 C 0.75535 0.71893 0.79342 0.0
C2506 C 0.77953 0.72749 0.82305 0.0
N2507 N 0.76895 0.73708 0.80232 0.0
N2508 N 0.75717 0.69841 0.80758 0.0
C2509 C 0.77228 0.70338 0.82632 0.0
H2510 H 0.74465 0.72046 0.77663 0.0
H2511 H 0.79195 0.73725 0.83477 0.0
C2512 C 0.72802 0.78687 0.7663 0.0
N2513 N 0.78175 0.83331 0.75541 0.0
C2514 C 0.80195 0.84102 0.74186 0.0
C2515 C 0.76702 0.85369 0.75946 0.0
N2516 N 0.80099 0.86567 0.73842 0.0
C2517 C 0.77896 0.87377 0.74907 0.0
C2518 C 0.78378 0.76399 0.73538 0.0
O2519 O 0.73697 0.76858 0.77886 0.0
O2520 O 0.74234 0.80503 0.76201 0.0
O2521 O 0.7847 0.78743 0.73739 0.0
O2522 O 0.78054 0.75131 0.75548 0.0
O2523 O 0.81383 0.80152 0.77781 0.0
H2524 H 0.74974 0.85416 0.77087 0.0
H2525 H 0.81824 0.8293 0.73698 0.0
O2526 O 0.80842 0.76573 0.7961 0.0
O2527 O 0.76524 0.78264 0.81986 0.0
O2528 O 0.77127 0.81882 0.80257 0.0
C2529 C 0.76719 0.80587 0.82238 0.0
H2530 H 0.77764 0.69052 0.84103 0.0
H2531 H 0.77301 0.893 0.75093 0.0
Co2532 Co 0.52218 0.54192 0.50954 0.0
C2533 C 0.51613 0.57548 0.55001 0.0
Co2534 Co 0.52632 0.52402 0.5458 0.0
C2535 C 0.50798 0.54848 0.4594 0.0
C2536 C 0.52643 0.58037 0.47212 0.0
N2537 N 0.51918 0.55748 0.47924 0.0
N2538 N 0.50768 0.56487 0.44034 0.0
C2539 C 0.51916 0.58506 0.44805 0.0
H2540 H 0.49937 0.5306 0.45914 0.0
H2541 H 0.53585 0.59301 0.48385 0.0
C2542 C 0.5325 0.49009 0.5059 0.0
N2543 N 0.52898 0.50799 0.57592 0.0
C2544 C 0.54382 0.51334 0.59476 0.0
C2545 C 0.51712 0.48718 0.58337 0.0
N2546 N 0.54164 0.49666 0.61351 0.0
C2547 C 0.52494 0.48013 0.60665 0.0
C2548 C 0.47658 0.52185 0.52815 0.0
O2549 O 0.52893 0.5098 0.49287 0.0
O2550 O 0.53366 0.49239 0.52944 0.0
O2551 O 0.49055 0.51626 0.54635 0.0
O2552 O 0.48619 0.53476 0.51029 0.0
O2553 O 0.51903 0.55547 0.5627 0.0
H2554 H 0.5041 0.47739 0.57233 0.0
H2555 H 0.55643 0.52873 0.59454 0.0
O2556 O 0.51544 0.57366 0.52631 0.0
O2557 O 0.55784 0.54941 0.50835 0.0
O2558 O 0.56246 0.53222 0.54511 0.0
C2559 C 0.57183 0.5448 0.52676 0.0
H2560 H 0.5215 0.60201 0.43727 0.0
H2561 H 0.51946 0.4639 0.61741 0.0
Co2562 Co 0.00914 0.52842 0.01961 0.0
C2563 C 0.02887 0.57546 0.00738 0.0
Co2564 Co 0.04846 0.53064 0.02939 0.0
C2565 C 0.95819 0.51549 0.02595 0.0
C2566 C 0.96458 0.53529 0.99138 0.0
N2567 N 0.97615 0.52671 0.01196 0.0
N2568 N 0.93597 0.51651 0.01483 0.0
C2569 C 0.93963 0.52886 0.99307 0.0
H2570 H 0.96147 0.50601 0.04355 0.0
H2571 H 0.97385 0.54497 0.97593 0.0
C2572 C 0.02844 0.4838 0.04182 0.0
N2573 N 0.0813 0.53212 0.03737 0.0
C2574 C 0.09943 0.54389 0.02421 0.0
C2575 C 0.09216 0.52379 0.05844 0.0
N2576 N 0.121 0.54371 0.03647 0.0
C2577 C 0.11677 0.53112 0.058 0.0
C2578 C 0.01584 0.54438 0.06728 0.0
O2579 O 0.009 0.49381 0.03204 0.0
O2580 O 0.04815 0.49662 0.04244 0.0
O2581 O 0.039 0.54236 0.06102 0.0
O2582 O 0.99931 0.53933 0.05183 0.0
O2583 O 0.04869 0.56519 0.01629 0.0
H2584 H 0.08246 0.51412 0.07362 0.0
H2585 H 0.09651 0.55376 0.00675 0.0
O2586 O 0.00907 0.56269 0.00735 0.0
O2587 O 0.01889 0.5176 0.98734 0.0
O2588 O 0.05845 0.51898 0.99762 0.0
C2589 C 0.04218 0.51481 0.98162 0.0
H2590 H 0.92554 0.53217 0.97919 0.0
H2591 H 0.13006 0.52868 0.07276 0.0
C2592 C 0.00982 0.12864 0.09472 0.0
C2593 C 0.023 0.14824 0.08229 0.0
C2594 C 0.03609 0.11882 0.0489 0.0
C2595 C 0.02057 0.09996 0.05976 0.0
N2596 N 0.98905 0.08931 0.09141 0.0
N2597 N 0.044 0.16268 0.04435 0.0
C2598 C 0.00648 0.10557 0.08228 0.0
C2599 C 0.03472 0.14347 0.05845 0.0
N2600 N 1.00124 0.13163 0.11887 0.0
N2601 N 0.05351 0.11301 0.03034 0.0
H2602 H 0.04304 0.18096 0.05029 0.0
H2603 H 0.05024 0.16082 0.02577 0.0
H2604 H 0.05653 0.09517 0.02373 0.0
H2605 H 0.06714 0.12522 0.02368 0.0
H2606 H 0.99395 0.11728 0.1299 0.0
H2607 H 0.00359 0.14785 0.12868 0.0
H2608 H 0.97634 0.09336 0.10618 0.0
H2609 H 0.98555 0.07275 0.08264 0.0
C2610 C 0.1667 0.78089 0.31109 0.0
C2611 C 0.16362 0.76302 0.33044 0.0
C2612 C 0.206 0.74598 0.32148 0.0
C2613 C 0.21039 0.76625 0.30495 0.0
N2614 N 0.1962 0.80538 0.28678 0.0
N2615 N 0.18063 0.72991 0.3562 0.0
C2616 C 0.19104 0.78425 0.30019 0.0
C2617 C 0.18327 0.74575 0.33615 0.0
N2618 N 0.14634 0.79456 0.30314 0.0
N2619 N 0.2233 0.72677 0.32274 0.0
H2620 H 0.16412 0.72904 0.36736 0.0
H2621 H 0.19544 0.71895 0.36293 0.0
H2622 H 0.24008 0.7262 0.31194 0.0
H2623 H 0.21995 0.71039 0.33266 0.0
H2624 H 0.14707 0.80609 0.28736 0.0
H2625 H 0.12814 0.79259 0.31091 0.0
H2626 H 0.1834 0.82028 0.28535 0.0
H2627 H 0.21398 0.80925 0.27906 0.0
C2628 C 0.53653 0.93026 0.59058 0.0
C2629 C 0.5265 0.91031 0.57763 0.0
C2630 C 0.51374 0.94047 0.54443 0.0
C2631 C 0.52623 0.96016 0.55613 0.0
N2632 N 0.55442 0.97072 0.58895 0.0
N2633 N 0.50929 0.89604 0.53976 0.0
C2634 C 0.53915 0.95409 0.57866 0.0
C2635 C 0.51599 0.91539 0.55395 0.0
N2636 N 0.54254 0.92691 0.61504 0.0
N2637 N 0.4999 0.94537 0.52385 0.0
H2638 H 0.51089 0.87765 0.54582 0.0
H2639 H 0.50439 0.89794 0.52117 0.0
H2640 H 0.49961 0.96233 0.51447 0.0
H2641 H 0.48752 0.93287 0.51678 0.0
H2642 H 0.54695 0.94141 0.62652 0.0
H2643 H 0.54046 0.91013 0.62469 0.0
H2644 H 0.56687 0.96593 0.60296 0.0
H2645 H 0.55625 0.9888 0.58269 0.0
C2646 C 0.40743 0.27541 0.85028 0.0
C2647 C 0.43011 0.26692 0.83806 0.0
C2648 C 0.41124 0.27233 0.79734 0.0
C2649 C 0.38981 0.2835 0.80942 0.0
N2650 N 0.36774 0.29828 0.84655 0.0
N2651 N 0.45475 0.25785 0.80038 0.0
C2652 C 0.38784 0.28556 0.83572 0.0
C2653 C 0.4323 0.26532 0.81166 0.0
N2654 N 0.40478 0.27383 0.87576 0.0
N2655 N 0.41105 0.26814 0.77227 0.0
H2656 H 0.47018 0.25144 0.81044 0.0
H2657 H 0.45853 0.25898 0.78119 0.0
H2658 H 0.39579 0.27347 0.76146 0.0
H2659 H 0.42507 0.25799 0.76251 0.0
H2660 H 0.38783 0.27744 0.88564 0.0
H2661 H 0.41907 0.26687 0.88701 0.0
H2662 H 0.36631 0.30263 0.86541 0.0
H2663 H 0.35328 0.30636 0.83624 0.0
C2664 C 0.01924 0.90371 0.47384 0.0
C2665 C 0.01778 0.88041 0.48628 0.0
C2666 C 0.00297 0.90062 0.52487 0.0
C2667 C 0.00258 0.92352 0.51183 0.0
N2668 N 0.00452 0.94647 0.47295 0.0
N2669 N 0.00397 0.85594 0.52213 0.0
C2670 C 0.00895 0.92493 0.48596 0.0
C2671 C 0.0084 0.8786 0.51142 0.0
N2672 N 0.03127 0.90568 0.45088 0.0
N2673 N 0.999 0.90011 0.5502 0.0
H2674 H 0.00754 0.83938 0.51276 0.0
H2675 H 0.99481 0.85361 0.53952 0.0
H2676 H 0.9948 0.91608 0.5604 0.0
H2677 H 1.00169 0.88427 0.56123 0.0
H2678 H 0.03512 0.92259 0.44215 0.0
H2679 H 0.03955 0.89056 0.44154 0.0
H2680 H 0.0067 0.94802 0.45358 0.0
H2681 H 0.99614 0.96213 0.48125 0.0
C2682 C 0.37694 0.77665 0.70972 0.0
C2683 C 0.39748 0.78475 0.72352 0.0
C2684 C 0.36812 0.79199 0.75991 0.0
C2685 C 0.34734 0.78525 0.74564 0.0
N2686 N 0.33155 0.77518 0.70549 0.0
N2687 N 0.41223 0.80314 0.7607 0.0
C2688 C 0.35169 0.77856 0.72017 0.0
C2689 C 0.39289 0.79338 0.74829 0.0
N2690 N 0.38159 0.76684 0.68658 0.0
N2691 N 0.36448 0.79583 0.78498 0.0
H2692 H 0.43073 0.80337 0.75338 0.0
H2693 H 0.40972 0.81251 0.77747 0.0
H2694 H 0.34687 0.7949 0.79423 0.0
H2695 H 0.37912 0.79794 0.79711 0.0
H2696 H 0.36818 0.75762 0.67684 0.0
H2697 H 0.39941 0.76646 0.67763 0.0
H2698 H 0.33312 0.77328 0.68619 0.0
H2699 H 0.31285 0.77642 0.71217 0.0
C2700 C 0.54087 0.13639 0.97723 0.0
C2701 C 0.5601 0.15004 0.98773 0.0
C2702 C 0.56963 0.11574 0.01652 0.0
C2703 C 0.5488 0.10312 0.00747 0.0
N2704 N 0.51062 0.10454 0.98396 0.0
N2705 N 0.59075 0.15481 0.0192 0.0
C2706 C 0.53332 0.11429 0.98913 0.0
C2707 C 0.5739 0.14037 0.00799 0.0
N2708 N 0.52997 0.14436 0.95565 0.0
N2709 N 0.58585 0.10392 0.03231 0.0
H2710 H 0.59476 0.17266 0.01282 0.0
H2711 H 0.59941 0.14978 0.03574 0.0
H2712 H 0.58342 0.08585 0.03885 0.0
H2713 H 0.60279 0.11129 0.03742 0.0
H2714 H 0.51815 0.13347 0.94563 0.0
H2715 H 0.5344 0.16089 0.94645 0.0
H2716 H 0.49743 0.11351 0.97276 0.0
H2717 H 0.50358 0.08893 0.99304 0.0
C2718 C 0.15797 0.27281 0.25467 0.0
C2719 C 0.15608 0.2806 0.22922 0.0
C2720 C 0.20196 0.28784 0.22769 0.0
C2721 C 0.20349 0.28261 0.25387 0.0
N2722 N 0.18136 0.27359 0.29293 0.0
N2723 N 0.17581 0.30034 0.19319 0.0
C2724 C 0.18103 0.27594 0.26751 0.0
C2725 C 0.17796 0.2895 0.21629 0.0
N2726 N 0.1379 0.2617 0.26646 0.0
N2727 N 0.22354 0.28985 0.21313 0.0
H2728 H 0.15874 0.30206 0.18417 0.0
H2729 H 0.19043 0.30977 0.18406 0.0
H2730 H 0.24152 0.28788 0.22008 0.0
H2731 H 0.22367 0.29067 0.19367 0.0
H2732 H 0.13882 0.25311 0.28396 0.0
H2733 H 0.12088 0.25923 0.25781 0.0
H2734 H 0.16518 0.27134 0.30427 0.0
H2735 H 0.19753 0.27616 0.30296 0.0
C2736 C 0.05592 0.00431 0.17925 0.0
C2737 C 0.08268 0.0025 0.1785 0.0
C2738 C 0.08348 0.9941 0.13394 0.0
C2739 C 0.05705 0.99812 0.13431 0.0
N2740 N 0.01817 0.01057 0.15552 0.0
N2741 N 0.12239 1.00007 0.15485 0.0
C2742 C 0.04323 0.0042 0.1565 0.0
C2743 C 0.09666 0.9986 0.15575 0.0
N2744 N 0.04273 0.00533 0.20167 0.0
N2745 N 0.09574 0.98542 0.11282 0.0
H2746 H 0.13275 0.0037 0.17049 0.0
H2747 H 0.13329 0.99985 0.13827 0.0
H2748 H 0.08636 0.98183 0.09656 0.0
H2749 H 0.11469 0.97974 0.11209 0.0
H2750 H 0.02317 0.0042 0.20341 0.0
H2751 H 0.05144 0.00533 0.21881 0.0
H2752 H 0.00754 0.01774 0.17061 0.0
H2753 H 0.00845 0.01047 0.13894 0.0
C2754 C 0.28612 0.83984 0.40569 0.0
C2755 C 0.28238 0.82834 0.42945 0.0
C2756 C 0.2939 0.78794 0.41196 0.0
C2757 C 0.29908 0.79972 0.3887 0.0
N2758 N 0.30613 0.83686 0.36445 0.0
N2759 N 0.28738 0.7925 0.4566 0.0
C2760 C 0.2971 0.82575 0.38593 0.0
C2761 C 0.28767 0.80265 0.43305 0.0
N2762 N 0.27829 0.86387 0.40179 0.0
N2763 N 0.29391 0.76271 0.41353 0.0
H2764 H 0.28279 0.80272 0.47254 0.0
H2765 H 0.29363 0.77446 0.46051 0.0
H2766 H 0.29865 0.75154 0.39827 0.0
H2767 H 0.28756 0.75296 0.42937 0.0
H2768 H 0.2782 0.87234 0.38417 0.0
H2769 H 0.26969 0.87473 0.41579 0.0
H2770 H 0.30718 0.85597 0.36208 0.0
H2771 H 0.31497 0.82686 0.34993 0.0
C2772 C 0.50366 0.04576 0.63972 0.0
C2773 C 0.48909 0.06775 0.64322 0.0
C2774 C 0.49749 0.08017 0.59975 0.0
C2775 C 0.50821 0.05621 0.59544 0.0
N2776 N 0.51672 0.0145 0.61017 0.0
N2777 N 0.47209 0.10652 0.62777 0.0
C2778 C 0.51052 0.03864 0.61518 0.0
C2779 C 0.48637 0.08543 0.62366 0.0
N2780 N 0.50986 0.03119 0.6598 0.0
N2781 N 0.49765 0.09756 0.58094 0.0
H2782 H 0.46474 0.11118 0.64548 0.0
H2783 H 0.46679 0.11889 0.61368 0.0
H2784 H 0.50467 0.09379 0.56291 0.0
H2785 H 0.49228 0.11604 0.58347 0.0
H2786 H 0.52228 0.01594 0.65843 0.0
H2787 H 0.50458 0.03586 0.67812 0.0
H2788 H 0.51632 1.00037 0.62363 0.0
H2789 H 0.5192 0.00814 0.59202 0.0
C2790 C 0.28891 0.22291 0.88183 0.0
C2791 C 0.27523 0.23435 0.90216 0.0
C2792 C 0.26147 0.26798 0.87307 0.0
C2793 C 0.27645 0.25733 0.85313 0.0
N2794 N 0.3072 0.22614 0.83958 0.0
N2795 N 0.25162 0.26985 0.91785 0.0
C2796 C 0.29109 0.23532 0.85792 0.0
C2797 C 0.2623 0.25743 0.89789 0.0
N2798 N 0.29884 0.19949 0.885 0.0
N2799 N 0.24635 0.28829 0.86829 0.0
H2800 H 0.25189 0.26283 0.9361 0.0
H2801 H 0.2443 0.28788 0.91676 0.0
H2802 H 0.2465 0.29754 0.85104 0.0
H2803 H 0.23263 0.29524 0.88092 0.0
H2804 H 0.3064 0.1888 0.87041 0.0
H2805 H 0.29759 0.18978 0.90197 0.0
H2806 H 0.32066 0.21212 0.84263 0.0
H2807 H 0.30835 0.23358 0.82152 0.0
C2808 C 0.08643 0.99219 0.43642 0.0
C2809 C 0.07786 0.00602 0.41552 0.0
C2810 C 0.04752 0.02938 0.44188 0.0
C2811 C 0.05593 0.01547 0.46284 0.0
N2812 N 0.08027 0.98133 0.48029 0.0
N2813 N 0.04741 0.03378 0.39674 0.0
C2814 C 0.07427 0.99596 0.46014 0.0
C2815 C 0.05742 0.02334 0.41776 0.0
N2816 N 0.10695 0.97639 0.43369 0.0
N2817 N 0.03057 0.04874 0.44512 0.0
H2818 H 0.05448 0.02988 0.37874 0.0
H2819 H 0.03089 0.04465 0.39684 0.0
H2820 H 0.02196 0.05313 0.46234 0.0
H2821 H 0.02601 0.06144 0.43106 0.0
H2822 H 0.11615 0.96802 0.44858 0.0
H2823 H 0.11578 0.97257 0.41639 0.0
H2824 H 0.09128 0.96512 0.47899 0.0
H2825 H 0.07306 0.98454 0.49836 0.0
C2826 C 0.26045 0.83377 0.67379 0.0
C2827 C 0.23981 0.82378 0.66174 0.0
C2828 C 0.22998 0.79782 0.69832 0.0
C2829 C 0.25231 0.80582 0.70912 0.0
N2830 N 0.29166 0.82742 0.70492 0.0
N2831 N 0.20627 0.7948 0.66066 0.0
C2832 C 0.26831 0.82278 0.69632 0.0
C2833 C 0.2249 0.80533 0.67345 0.0
N2834 N 0.27239 0.854 0.66387 0.0
N2835 N 0.21323 0.78395 0.71214 0.0
H2836 H 0.20168 0.80053 0.64264 0.0
H2837 H 0.19656 0.77939 0.6672 0.0
H2838 H 0.21618 0.77837 0.73056 0.0
H2839 H 0.19545 0.77971 0.70611 0.0
H2840 H 0.28548 0.86378 0.67351 0.0
H2841 H 0.26772 0.86246 0.64696 0.0
H2842 H 0.30516 0.83737 0.69469 0.0
H2843 H 0.29872 0.81924 0.72103 0.0
C2844 C 0.50155 0.05858 0.87344 0.0
C2845 C 0.47689 0.04968 0.8711 0.0
C2846 C 0.48017 0.0254 0.90969 0.0
C2847 C 0.50458 0.03462 0.91225 0.0
N2848 N 0.53741 0.06234 0.89989 0.0
N2849 N 0.44069 0.02839 0.88834 0.0
C2850 C 0.51494 0.052 0.89509 0.0
C2851 C 0.46554 0.03423 0.88971 0.0
N2852 N 0.5123 0.07259 0.85463 0.0
N2853 N 0.47136 0.00782 0.92619 0.0
H2854 H 0.42943 0.03445 0.87376 0.0
H2855 H 0.43058 0.01916 0.90249 0.0
H2856 H 0.48143 0.0016 0.94155 0.0
H2857 H 0.45489 0.99824 0.92397 0.0
H2858 H 0.53114 0.0775 0.85394 0.0
H2859 H 0.50258 0.0784 0.83889 0.0
H2860 H 0.54501 0.07697 0.88954 0.0
H2861 H 0.5478 0.05716 0.9154 0.0
C2862 C 0.26713 0.22055 0.18224 0.0
C2863 C 0.28316 0.22864 0.16202 0.0
C2864 C 0.30331 0.25646 0.19155 0.0
C2865 C 0.28536 0.25034 0.21105 0.0
N2866 N 0.24601 0.2304 0.22179 0.0
N2867 N 0.31419 0.25746 0.14691 0.0
C2868 C 0.26622 0.23334 0.20553 0.0
C2869 C 0.30063 0.24747 0.16659 0.0
N2870 N 0.25312 0.20002 0.17955 0.0
N2871 N 0.3236 0.2701 0.19701 0.0
H2872 H 0.31274 0.25152 0.12861 0.0
H2873 H 0.32513 0.27301 0.14837 0.0
H2874 H 0.32658 0.2764 0.21493 0.0
H2875 H 0.3387 0.2731 0.18443 0.0
H2876 H 0.24332 0.19153 0.19443 0.0
H2877 H 0.25333 0.18999 0.16308 0.0
H2878 H 0.2302 0.22053 0.21748 0.0
H2879 H 0.24349 0.24009 0.23832 0.0
C2880 C 0.14533 0.06139 0.01046 0.0
C2881 C 0.14827 0.08094 0.02757 0.0
C2882 C 0.10532 0.07297 0.04529 0.0
C2883 C 0.10133 0.05515 0.02654 0.0
N2884 N 0.11719 0.03423 0.98959 0.0
N2885 N 0.12859 0.10843 0.05791 0.0
C2886 C 0.12125 0.05003 0.00858 0.0
C2887 C 0.12761 0.08744 0.04414 0.0
N2888 N 0.16591 0.0529 0.99667 0.0
N2889 N 0.08781 0.0763 0.06439 0.0
H2890 H 0.14415 0.1198 0.05733 0.0
H2891 H 0.11309 0.11597 0.06794 0.0
H2892 H 0.07073 0.06735 0.06557 0.0
H2893 H 0.09101 0.08662 0.08014 0.0
H2894 H 0.16593 0.03709 0.98584 0.0
H2895 H 0.18371 0.06042 0.99775 0.0
H2896 H 0.12956 0.03195 0.97419 0.0
H2897 H 0.10066 0.02437 0.98852 0.0
C2898 C 0.6263 0.50152 0.07568 0.0
C2899 C 0.64399 0.49708 0.05571 0.0
C2900 C 0.61612 0.51717 0.02601 0.0
C2901 C 0.59794 0.52063 0.04582 0.0
N2902 N 0.58895 0.52494 0.08984 0.0
N2903 N 0.65944 0.50648 0.01383 0.0
C2904 C 0.60402 0.51554 0.07087 0.0
C2905 C 0.64013 0.50697 0.03149 0.0
N2906 N 0.63047 0.49172 0.09889 0.0
N2907 N 0.6101 0.52266 0.00191 0.0
H2908 H 0.67729 0.49895 0.01736 0.0
H2909 H 0.65858 0.51547 0.99652 0.0
H2910 H 0.59327 0.53163 0.99728 0.0
H2911 H 0.62123 0.51733 0.98639 0.0
H2912 H 0.61689 0.49199 0.11346 0.0
H2913 H 0.6472 0.48217 0.10316 0.0
H2914 H 0.5932 0.52322 0.10863 0.0
H2915 H 0.57376 0.53705 0.08638 0.0
C2916 C 0.80087 0.43695 0.2522 0.0
C2917 C 0.82656 0.43824 0.25835 0.0
C2918 C 0.8252 0.39781 0.27911 0.0
C2919 C 0.79973 0.39628 0.27252 0.0
N2920 N 0.76414 0.41137 0.24989 0.0
N2921 N 0.86481 0.41869 0.27308 0.0
C2922 C 0.78782 0.41497 0.25809 0.0
C2923 C 0.83928 0.4182 0.27034 0.0
N2924 N 0.78887 0.45701 0.24158 0.0
N2925 N 0.83549 0.38016 0.29456 0.0
H2926 H 0.87569 0.43354 0.26696 0.0
H2927 H 0.87559 0.40365 0.27948 0.0
H2928 H 0.82562 0.36483 0.30114 0.0
H2929 H 0.85308 0.38151 0.30233 0.0
H2930 H 0.76951 0.45825 0.23907 0.0
H2931 H 0.79819 0.47312 0.23632 0.0
H2932 H 0.75507 0.42317 0.23733 0.0
H2933 H 0.75418 0.39545 0.25447 0.0
C2934 C 0.90743 0.56312 0.51757 0.0
C2935 C 0.90293 0.58748 0.52669 0.0
C2936 C 0.94862 0.59043 0.53335 0.0
C2937 C 0.95271 0.56518 0.52669 0.0
N2938 N 0.9347 0.52623 0.51683 0.0
N2939 N 0.91885 0.62274 0.54735 0.0
C2940 C 0.93176 0.55121 0.51987 0.0
C2941 C 0.92346 0.60069 0.53568 0.0
N2942 N 0.88862 0.55153 0.50602 0.0
N2943 N 0.96882 0.60504 0.53651 0.0
H2944 H 0.90083 0.63083 0.5496 0.0
H2945 H 0.93252 0.6319 0.55682 0.0
H2946 H 0.98749 0.59854 0.53476 0.0
H2947 H 0.96719 0.62416 0.53846 0.0
H2948 H 0.89146 0.53497 0.49652 0.0
H2949 H 0.87068 0.55958 0.50397 0.0
H2950 H 0.91967 0.51462 0.51454 0.0
H2951 H 0.95185 0.51664 0.51899 0.0
C2952 C 0.24777 0.13132 0.30425 0.0
C2953 C 0.22107 0.13179 0.30738 0.0
C2954 C 0.22072 0.17538 0.31808 0.0
C2955 C 0.24696 0.1754 0.31264 0.0
N2956 N 0.28537 0.15533 0.29747 0.0
N2957 N 0.18148 0.15455 0.31349 0.0
C2958 C 0.26052 0.15387 0.3049 0.0
C2959 C 0.20729 0.15391 0.31333 0.0
N2960 N 0.26087 0.1093 0.30144 0.0
N2961 N 0.2089 0.19585 0.32822 0.0
H2962 H 0.17093 0.13913 0.30983 0.0
H2963 H 0.17053 0.17078 0.3152 0.0
H2964 H 0.21847 0.21192 0.33183 0.0
H2965 H 0.19022 0.19625 0.33496 0.0
H2966 H 0.28047 0.10764 0.30152 0.0
H2967 H 0.25211 0.0923 0.30102 0.0
H2968 H 0.29572 0.14087 0.28905 0.0
H2969 H 0.29516 0.17176 0.2981 0.0
C2970 C 0.39319 0.97044 0.55248 0.0
C2971 C 0.37127 0.97209 0.53813 0.0
C2972 C 0.39124 0.00243 0.51011 0.0
C2973 C 0.41193 0.00259 0.5259 0.0
N2974 N 0.42967 0.9918 0.56559 0.0
N2975 N 0.34706 0.99387 0.50679 0.0
C2976 C 0.41214 0.98801 0.54812 0.0
C2977 C 0.36956 0.98931 0.51789 0.0
N2978 N 0.39633 0.95171 0.56964 0.0
N2979 N 0.39263 0.0144 0.48747 0.0
H2980 H 0.33039 0.9854 0.51267 0.0
H2981 H 0.34437 0.00788 0.49348 0.0
H2982 H 0.40856 0.02393 0.48125 0.0
H2983 H 0.37904 0.01293 0.47405 0.0
H2984 H 0.41314 0.94842 0.57878 0.0
H2985 H 0.3831 0.93804 0.57299 0.0
H2986 H 0.42915 0.9832 0.58316 0.0
H2987 H 0.44303 0.00553 0.56366 0.0
C2988 C 0.79613 0.67228 0.26908 0.0
C2989 C 0.81682 0.66923 0.25192 0.0
C2990 C 0.81243 0.71231 0.23834 0.0
C2991 C 0.7951 0.71637 0.2587 0.0
N2992 N 0.77171 0.70075 0.29514 0.0
N2993 N 0.84585 0.6859 0.22061 0.0
C2994 C 0.78683 0.69646 0.2743 0.0
C2995 C 0.82512 0.68902 0.23633 0.0
N2996 N 0.78565 0.65204 0.28053 0.0
N2997 N 0.8165 0.73066 0.22089 0.0
H2998 H 0.85539 0.6689 0.21827 0.0
H2999 H 0.85456 0.70046 0.21106 0.0
H3000 H 0.80714 0.74789 0.22177 0.0
H3001 H 0.82721 0.72805 0.2044 0.0
H3002 H 0.76897 0.65293 0.29143 0.0
H3003 H 0.79233 0.63401 0.27715 0.0
H3004 H 0.76779 0.68725 0.30871 0.0
H3005 H 0.76475 0.71822 0.3002 0.0
C3006 C 0.76697 0.38873 0.8072 0.0
C3007 C 0.7452 0.39772 0.79511 0.0
C3008 C 0.74796 0.36358 0.76605 0.0
C3009 C 0.76706 0.35233 0.78056 0.0
N3010 N 0.80144 0.35816 0.80777 0.0
N3011 N 0.71233 0.3922 0.76577 0.0
C3012 C 0.77854 0.36605 0.79923 0.0
C3013 C 0.73491 0.38469 0.77535 0.0
N3014 N 0.77594 0.40153 0.82664 0.0
N3015 N 0.74366 0.35563 0.74254 0.0
H3016 H 0.7021 0.40785 0.77185 0.0
H3017 H 0.70259 0.38154 0.7535 0.0
H3018 H 0.75588 0.34349 0.73287 0.0
H3019 H 0.73079 0.36438 0.73084 0.0
H3020 H 0.7903 0.39497 0.8379 0.0
H3021 H 0.7679 0.41838 0.83253 0.0
H3022 H 0.81187 0.3679 0.82016 0.0
H3023 H 0.8114 0.34291 0.80029 0.0
C3024 C 0.01576 0.93479 0.96205 0.0
C3025 C 0.03219 0.91511 0.9699 0.0
C3026 C 0.05386 0.9453 0.9957 0.0
C3027 C 0.03566 0.96434 0.99 0.0
N3028 N 0.99583 0.97469 0.9712 0.0
N3029 N 0.06486 0.90123 0.9973 0.0
C3030 C 0.01577 0.95842 0.97397 0.0
C3031 C 0.05072 0.92033 0.98755 0.0
N3032 N 1.00043 0.93121 0.94256 0.0
N3033 N 0.07482 0.95124 0.00813 0.0
H3034 H 0.06318 0.88293 0.99188 0.0
H3035 H 0.07663 0.90317 0.01222 0.0
H3036 H 0.07813 0.9692 0.01374 0.0
H3037 H 0.09008 0.939 0.01066 0.0
H3038 H 0.9902 0.94552 0.934 0.0
H3039 H 0.9998 0.91441 0.93336 0.0
H3040 H 0.97945 0.97023 0.96234 0.0
H3041 H 0.99428 0.9917 0.97997 0.0
C3042 C 0.89682 0.28833 0.75348 0.0
C3043 C 0.89634 0.30425 0.73221 0.0
C3044 C 0.8531 0.31726 0.74291 0.0
C3045 C 0.85174 0.29745 0.7605 0.0
N3046 N 0.87295 0.26668 0.78604 0.0
N3047 N 0.87465 0.33432 0.70629 0.0
C3048 C 0.87392 0.28401 0.76724 0.0
C3049 C 0.8748 0.31921 0.72703 0.0
N3050 N 0.91922 0.27763 0.76047 0.0
N3051 N 0.83367 0.33437 0.7418 0.0
H3052 H 0.89045 0.33668 0.69439 0.0
H3053 H 0.85841 0.34331 0.69995 0.0
H3054 H 0.81797 0.33379 0.75407 0.0
H3055 H 0.83437 0.35045 0.73085 0.0
H3056 H 0.92143 0.26749 0.77696 0.0
H3057 H 0.93624 0.2805 0.75058 0.0
H3058 H 0.88728 0.25358 0.78926 0.0
H3059 H 0.85769 0.26542 0.79869 0.0
C3060 C 0.51368 0.13476 0.46487 0.0
C3061 C 0.52562 0.15431 0.47691 0.0
C3062 C 0.53713 0.12461 0.51092 0.0
C3063 C 0.52662 0.1046 0.49805 0.0
N3064 N 0.50948 0.09055 0.45974 0.0
N3065 N 0.55176 0.16694 0.50988 0.0
C3066 C 0.51601 0.10974 0.47427 0.0
C3067 C 0.5383 0.14887 0.49943 0.0
N3068 N 0.4999 0.14006 0.44429 0.0
N3069 N 0.54485 0.12089 0.53479 0.0
H3070 H 0.55192 0.1851 0.503 0.0
H3071 H 0.56414 0.16361 0.52427 0.0
H3072 H 0.54437 0.10384 0.54407 0.0
H3073 H 0.54974 0.13514 0.54634 0.0
H3074 H 0.48795 0.12756 0.43657 0.0
H3075 H 0.49897 0.15758 0.43589 0.0
H3076 H 0.50465 0.09271 0.44116 0.0
H3077 H 0.51129 0.07204 0.4652 0.0
C3078 C 0.62085 0.79618 0.24355 0.0
C3079 C 0.62529 0.79554 0.21725 0.0
C3080 C 0.66819 0.77957 0.22257 0.0
C3081 C 0.66435 0.78196 0.24871 0.0
N3082 N 0.6394 0.79601 0.28426 0.0
N3083 N 0.65407 0.79133 0.1815 0.0
C3084 C 0.64133 0.79133 0.25927 0.0
C3085 C 0.6493 0.78869 0.20666 0.0
N3086 N 0.59697 0.80035 0.25342 0.0
N3087 N 0.68949 0.76769 0.21314 0.0
H3088 H 0.64056 0.79815 0.16928 0.0
H3089 H 0.67197 0.7889 0.17305 0.0
H3090 H 0.70344 0.76019 0.22446 0.0
H3091 H 0.69228 0.76325 0.19438 0.0
H3092 H 0.59224 0.79841 0.27239 0.0
H3093 H 0.58139 0.80399 0.24249 0.0
H3094 H 0.62394 0.80524 0.29279 0.0
H3095 H 0.65424 0.79232 0.29615 0.0
C3096 C 0.0421 0.16479 0.58419 0.0
C3097 C 0.0373 0.18674 0.57007 0.0
C3098 C 0.04729 0.16499 0.53115 0.0
C3099 C 0.05352 0.1436 0.54535 0.0
N3100 N 0.06104 0.12345 0.58481 0.0
N3101 N 0.03855 0.20926 0.53076 0.0
C3102 C 0.05225 0.14366 0.57177 0.0
C3103 C 0.04083 0.18732 0.54368 0.0
N3104 N 0.03609 0.16397 0.60926 0.0
N3105 N 0.04673 0.16353 0.50575 0.0
H3106 H 0.03351 0.22595 0.53936 0.0
H3107 H 0.04332 0.21128 0.51182 0.0
H3108 H 0.05198 0.14739 0.49623 0.0
H3109 H 0.03968 0.17766 0.4943 0.0
H3110 H 0.03665 0.14778 0.62005 0.0
H3111 H 0.02851 0.17915 0.61903 0.0
H3112 H 0.06284 0.12301 0.60411 0.0
H3113 H 0.0686 0.10767 0.57605 0.0
C3114 C 0.66141 0.29992 0.31446 0.0
C3115 C 0.65511 0.28067 0.33174 0.0
C3116 C 0.69854 0.26296 0.32646 0.0
C3117 C 0.70482 0.28178 0.30842 0.0
N3118 N 0.69312 0.32134 0.28938 0.0
N3119 N 0.66627 0.24186 0.35158 0.0
C3120 C 0.68649 0.30113 0.30358 0.0
C3121 C 0.67331 0.26163 0.33694 0.0
N3122 N 0.64287 0.31648 0.30744 0.0
N3123 N 0.71728 0.24767 0.3354 0.0
H3124 H 0.64843 0.24071 0.36035 0.0
H3125 H 0.67731 0.22576 0.35354 0.0
H3126 H 0.73624 0.24909 0.32988 0.0
H3127 H 0.7147 0.23536 0.35035 0.0
H3128 H 0.64479 0.32888 0.29247 0.0
H3129 H 0.62458 0.31661 0.31533 0.0
H3130 H 0.6821 0.33754 0.28826 0.0
H3131 H 0.7104 0.3231 0.2799 0.0
C3132 C 0.50808 0.9234 0.04235 0.0
C3133 C 0.49271 0.92197 0.06438 0.0
C3134 C 0.48338 0.96625 0.06207 0.0
C3135 C 0.50306 0.96835 0.04357 0.0
N3136 N 0.53547 0.94886 0.01664 0.0
N3137 N 0.46528 0.94127 0.09572 0.0
C3138 C 0.51543 0.94691 0.03333 0.0
C3139 C 0.47984 0.94313 0.07421 0.0
N3140 N 0.5161 0.90221 0.03055 0.0
N3141 N 0.46795 0.98624 0.0677 0.0
H3142 H 0.46153 0.92435 0.10455 0.0
H3143 H 0.45803 0.95656 0.10549 0.0
H3144 H 0.46964 0.00332 0.05851 0.0
H3145 H 0.45197 0.98524 0.07955 0.0
H3146 H 0.5254 0.90212 0.01307 0.0
H3147 H 0.51119 0.88466 0.03715 0.0
H3148 H 0.54687 0.93381 0.011 0.0
H3149 H 0.54241 0.96562 0.01001 0.0
C3150 C 0.87972 0.80605 0.82734 0.0
C3151 C 0.89613 0.78476 0.8271 0.0
C3152 C 0.86645 0.76434 0.79973 0.0
C3153 C 0.84879 0.78465 0.80208 0.0
N3154 N 0.83746 0.82332 0.82226 0.0
N3155 N 0.90387 0.74251 0.81494 0.0
C3156 C 0.85524 0.80519 0.81682 0.0
C3157 C 0.88908 0.7636 0.8138 0.0
N3158 N 0.88761 0.82738 0.83749 0.0
N3159 N 0.86212 0.74614 0.78314 0.0
H3160 H 0.92087 0.74156 0.82414 0.0
H3161 H 0.89851 0.72554 0.8083 0.0
H3162 H 0.84627 0.74636 0.77217 0.0
H3163 H 0.87525 0.73213 0.77847 0.0
H3164 H 0.87809 0.84439 0.83552 0.0
H3165 H 0.90482 0.82855 0.84615 0.0
H3166 H 0.83984 0.83698 0.83536 0.0
H3167 H 0.81929 0.82353 0.8156 0.0
C3168 C 0.99061 0.06043 0.87383 0.0
C3169 C 0.96398 0.06256 0.87722 0.0
C3170 C 0.96791 0.07268 0.92104 0.0
C3171 C 0.99418 0.06782 0.91827 0.0
N3172 N 0.03075 0.05466 0.89366 0.0
N3173 N 0.92667 0.06819 0.90399 0.0
C3174 C 0.00566 0.0612 0.89504 0.0
C3175 C 0.95239 0.06813 0.9008 0.0
N3176 N 1.0014 0.05813 0.85035 0.0
N3177 N 0.95806 0.08205 0.94296 0.0
H3178 H 0.91466 0.06515 0.88943 0.0
H3179 H 0.91724 0.06949 0.92134 0.0
H3180 H 0.96924 0.08567 0.95803 0.0
H3181 H 0.93937 0.08818 0.94554 0.0
H3182 H 0.02075 0.05899 0.84648 0.0
H3183 H 0.99087 0.0573 0.83433 0.0
H3184 H 0.0398 0.04705 0.87787 0.0
H3185 H 0.04221 0.05524 0.90904 0.0
C3186 C 0.78413 0.21442 0.64477 0.0
C3187 C 0.79491 0.22552 0.6229 0.0
C3188 C 0.79344 0.26592 0.64278 0.0
C3189 C 0.78032 0.25526 0.6635 0.0
N3190 N 0.76027 0.22058 0.68376 0.0
N3191 N 0.8082 0.26179 0.59962 0.0
C3192 C 0.77495 0.22977 0.66444 0.0
C3193 C 0.79929 0.25128 0.6215 0.0
N3194 N 0.78299 0.18923 0.64673 0.0
N3195 N 0.80067 0.2899 0.64385 0.0
H3196 H 0.81339 0.25149 0.58385 0.0
H3197 H 0.80914 0.2808 0.59656 0.0
H3198 H 0.79618 0.30101 0.65923 0.0
H3199 H 0.8125 0.29824 0.63045 0.0
H3200 H 0.77759 0.17986 0.66312 0.0
H3201 H 0.78953 0.17747 0.6325 0.0
H3202 H 0.75357 0.20267 0.68443 0.0
H3203 H 0.75297 0.23154 0.69831 0.0
C3204 C 0.57114 0.02336 0.42096 0.0
C3205 C 0.56342 0.00184 0.40898 0.0
C3206 C 0.53715 0.99048 0.44562 0.0
C3207 C 0.54395 0.01266 0.45714 0.0
N3208 N 0.56245 0.05302 0.45338 0.0
N3209 N 0.53636 0.96703 0.40736 0.0
C3210 C 0.55948 0.02993 0.4441 0.0
C3211 C 0.54546 0.98607 0.4205 0.0
N3212 N 0.59023 0.03717 0.41062 0.0
N3213 N 0.52401 0.97309 0.45905 0.0
H3214 H 0.54258 0.96314 0.38909 0.0
H3215 H 0.52137 0.95634 0.41379 0.0
H3216 H 0.51782 0.97567 0.47751 0.0
H3217 H 0.52086 0.95544 0.45261 0.0
H3218 H 0.59897 0.05095 0.42022 0.0
H3219 H 0.59881 0.03379 0.39313 0.0
H3220 H 0.57097 0.06731 0.44323 0.0
H3221 H 0.55422 0.05882 0.47026 0.0
C3222 C 0.78915 0.84752 0.17818 0.0
C3223 C 0.77812 0.83525 0.15814 0.0
C3224 C 0.76846 0.80022 0.18733 0.0
C3225 C 0.77777 0.81332 0.20783 0.0
N3226 N 0.79268 0.85184 0.22301 0.0
N3227 N 0.75414 0.8012 0.14459 0.0
C3228 C 0.78708 0.83757 0.20324 0.0
C3229 C 0.76682 0.812 0.16308 0.0
N3230 N 0.80195 0.86873 0.17325 0.0
N3231 N 0.76236 0.77597 0.19065 0.0
H3232 H 0.7534 0.80865 0.12652 0.0
H3233 H 0.74286 0.78592 0.14756 0.0
H3234 H 0.76375 0.76653 0.2077 0.0
H3235 H 0.7581 0.76449 0.17608 0.0
H3236 H 0.81312 0.87697 0.18615 0.0
H3237 H 0.80297 0.87716 0.15559 0.0
H3238 H 0.79661 0.87055 0.22133 0.0
H3239 H 0.79105 0.84576 0.24155 0.0
C3240 C 0.95955 0.05536 0.6241 0.0
C3241 C 0.97474 0.06422 0.64308 0.0
C3242 C 0.01248 0.05979 0.61586 0.0
C3243 C 0.99711 0.05218 0.59643 0.0
N3244 N 0.95557 0.04803 0.58008 0.0
N3245 N 0.01422 0.0797 0.65595 0.0
C3246 C 0.97048 0.0516 0.59993 0.0
C3247 C 1.00078 0.06808 0.63854 0.0
N3248 N 0.93504 0.04927 0.62944 0.0
N3249 N 0.0382 0.05765 0.61324 0.0
H3250 H 0.00604 0.08586 0.67285 0.0
H3251 H 0.03273 0.08521 0.65273 0.0
H3252 H 0.04753 0.0508 0.59722 0.0
H3253 H 0.05028 0.06047 0.62774 0.0
H3254 H 0.92415 0.03985 0.61713 0.0
H3255 H 0.92603 0.05179 0.64689 0.0
H3256 H 0.936 0.05046 0.58105 0.0
H3257 H 0.96274 0.04487 0.56201 0.0
C3258 C 0.82329 0.24035 0.37276 0.0
C3259 C 0.808 0.24932 0.39307 0.0
C3260 C 0.7853 0.27779 0.36573 0.0
C3261 C 0.80044 0.26875 0.3452 0.0
N3262 N 0.83749 0.24608 0.32963 0.0
N3263 N 0.78 0.28068 0.41074 0.0
C3264 C 0.82076 0.2516 0.34892 0.0
C3265 C 0.79103 0.26965 0.39014 0.0
N3266 N 0.83909 0.22019 0.376 0.0
N3267 N 0.76417 0.29229 0.36189 0.0
H3268 H 0.78377 0.27472 0.4289 0.0
H3269 H 0.7692 0.29706 0.40989 0.0
H3270 H 0.75845 0.29804 0.3443 0.0
H3271 H 0.75094 0.29686 0.37605 0.0
H3272 H 0.84821 0.21077 0.36129 0.0
H3273 H 0.84208 0.21198 0.39344 0.0
H3274 H 0.85411 0.23566 0.3318 0.0
H3275 H 0.83583 0.25363 0.31171 0.0
C3276 C 0.57765 0.00381 0.16311 0.0
C3277 C 0.58501 0.02165 0.18029 0.0
C3278 C 0.56276 0.05424 0.15705 0.0
C3279 C 0.55346 0.03609 0.14141 0.0
N3280 N 0.54683 0.99318 0.13321 0.0
N3281 N 0.57897 0.06263 0.19745 0.0
C3282 C 0.55934 0.01068 0.14555 0.0
C3283 C 0.5759 0.04656 0.17845 0.0
N3284 N 0.58872 0.98066 0.163 0.0
N3285 N 0.56011 0.07875 0.15086 0.0
H3286 H 0.58767 0.05752 0.21398 0.0
H3287 H 0.57053 0.08028 0.19788 0.0
H3288 H 0.55137 0.08503 0.13474 0.0
H3289 H 0.56878 0.09262 0.16039 0.0
H3290 H 0.58571 0.96779 0.14924 0.0
H3291 H 0.60272 0.97513 0.17524 0.0
H3292 H 0.54881 0.97429 0.13709 0.0
H3293 H 0.53244 0.99773 0.12104 0.0
C3294 C 0.75679 0.85138 0.87769 0.0
C3295 C 0.77097 0.83953 0.89686 0.0
C3296 C 0.78399 0.8068 0.86678 0.0
C3297 C 0.76784 0.81725 0.84831 0.0
N3298 N 0.73542 0.84763 0.83851 0.0
N3299 N 0.79375 0.80294 0.91066 0.0
C3300 C 0.75333 0.83908 0.85445 0.0
C3301 C 0.78325 0.81636 0.89164 0.0
N3302 N 0.74732 0.87487 0.88127 0.0
N3303 N 0.80135 0.78862 0.86035 0.0
H3304 H 0.79351 0.80908 0.92903 0.0
H3305 H 0.80043 0.78474 0.90871 0.0
H3306 H 0.80358 0.78167 0.84241 0.0
H3307 H 0.8155 0.78238 0.87209 0.0
H3308 H 0.73928 0.88563 0.86717 0.0
H3309 H 0.74951 0.88447 0.89774 0.0
H3310 H 0.7224 0.86183 0.84295 0.0
H3311 H 0.73194 0.83896 0.8218 0.0
C3312 C 0.90807 0.01133 0.02176 0.0
C3313 C 0.90638 0.98515 0.02451 0.0
C3314 C 0.95296 0.98188 0.0271 0.0
C3315 C 0.95475 0.00823 0.02504 0.0
N3316 N 0.93358 0.04814 0.02319 0.0
N3317 N 0.92727 0.94518 0.02672 0.0
C3318 C 0.93215 0.02294 0.02285 0.0
C3319 C 0.92889 0.97041 0.02652 0.0
N3320 N 0.88658 0.02505 0.01737 0.0
N3321 N 0.97443 0.96764 0.02985 0.0
H3322 H 0.91015 0.93615 0.02719 0.0
H3323 H 0.94265 0.93288 0.02503 0.0
H3324 H 0.99242 0.97455 0.02746 0.0
H3325 H 0.97477 0.94906 0.03514 0.0
H3326 H 0.88632 0.04373 0.01241 0.0
H3327 H 0.8688 0.01732 0.01716 0.0
H3328 H 0.91798 0.06023 0.02428 0.0
H3329 H 0.95062 0.05716 0.0241 0.0
C3330 C 0.41704 0.55403 1.00049 0.0
C3331 C 0.41403 0.58014 0.99918 0.0
C3332 C 0.45884 0.58427 0.98947 0.0
C3333 C 0.46258 0.559 0.99601 0.0
N3334 N 0.4453 0.51843 0.99386 0.0
N3335 N 0.43187 0.62068 0.99378 0.0
C3336 C 0.44166 0.54326 0.99743 0.0
C3337 C 0.43482 0.59544 0.9937 0.0
N3338 N 0.39652 0.53977 0.00539 0.0
N3339 N 0.47782 0.59711 0.97779 0.0
H3340 H 0.41449 0.62987 0.99685 0.0
H3341 H 0.44704 0.63252 0.99292 0.0
H3342 H 0.49477 0.58852 0.97185 0.0
H3343 H 0.47549 0.6151 0.97082 0.0
H3344 H 0.39774 0.52088 0.00939 0.0
H3345 H 0.37812 0.54716 0.00684 0.0
H3346 H 0.43075 0.50599 0.99335 0.0
H3347 H 0.46275 0.51077 0.98793 0.0
C3348 C 0.22214 0.63678 0.76347 0.0
C3349 C 0.22254 0.62957 0.78905 0.0
C3350 C 0.25311 0.66119 0.79659 0.0
C3351 C 0.25013 0.67033 0.77192 0.0
N3352 N 0.22817 0.67006 0.73337 0.0
N3353 N 0.23568 0.63657 0.83092 0.0
C3354 C 0.23373 0.65896 0.75567 0.0
C3355 C 0.23731 0.64221 0.80595 0.0
N3356 N 0.21127 0.62216 0.74655 0.0
N3357 N 0.27156 0.67024 0.8107 0.0
H3358 H 0.22427 0.62268 0.83839 0.0
H3359 H 0.24402 0.64694 0.84442 0.0
H3360 H 0.28392 0.68365 0.80391 0.0
H3361 H 0.27618 0.66284 0.82807 0.0
H3362 H 0.21282 0.62535 0.72731 0.0
H3363 H 0.20277 0.60553 0.75146 0.0
H3364 H 0.21433 0.66382 0.7219 0.0
H3365 H 0.23554 0.68692 0.72747 0.0
C3366 C 0.13857 0.49731 0.51394 0.0
C3367 C 0.14504 0.47959 0.53274 0.0
C3368 C 0.10126 0.48298 0.55039 0.0
C3369 C 0.09527 0.5019 0.53257 0.0
N3370 N 0.10998 0.53049 0.50058 0.0
N3371 N 0.13373 0.45868 0.57142 0.0
C3372 C 0.11443 0.50996 0.51519 0.0
C3373 C 0.1267 0.47339 0.55173 0.0
N3374 N 0.15529 0.50162 0.49441 0.0
N3375 N 0.08239 0.47324 0.56526 0.0
H3376 H 0.15193 0.45105 0.57283 0.0
H3377 H 0.12222 0.45572 0.58731 0.0
H3378 H 0.0636 0.47941 0.56466 0.0
H3379 H 0.08489 0.45765 0.57668 0.0
H3380 H 0.15071 0.51203 0.47859 0.0
H3381 H 0.17324 0.4932 0.49308 0.0
H3382 H 0.12392 0.53896 0.48952 0.0
H3383 H 0.0929 0.54057 0.50127 0.0
C3384 C 0.83427 0.91817 0.70832 0.0
C3385 C 0.85387 0.92058 0.72522 0.0
C3386 C 0.84221 0.88287 0.74735 0.0
C3387 C 0.82156 0.8811 0.73139 0.0
N3388 N 0.80175 0.89217 0.69314 0.0
N3389 N 0.8823 0.9016 0.75411 0.0
C3390 C 0.81911 0.89705 0.71043 0.0
C3391 C 0.86005 0.90128 0.74212 0.0
N3392 N 0.82916 0.93686 0.69163 0.0
N3393 N 0.8434 0.86885 0.76877 0.0
H3394 H 0.89532 0.91547 0.75061 0.0
H3395 H 0.8888 0.88704 0.76536 0.0
H3396 H 0.8299 0.85613 0.77437 0.0
H3397 H 0.85666 0.87139 0.78229 0.0
H3398 H 0.81327 0.93763 0.68078 0.0
H3399 H 0.84062 0.95215 0.68931 0.0
H3400 H 0.80004 0.90209 0.67644 0.0
H3401 H 0.79043 0.87669 0.69477 0.0
C3402 C 0.68361 0.0609 0.50732 0.0
C3403 C 0.68209 0.08706 0.5089 0.0
C3404 C 0.63898 0.08564 0.52613 0.0
C3405 C 0.64023 0.05962 0.5238 0.0
N3406 N 0.66088 0.02256 0.50851 0.0
N3407 N 0.65739 0.12485 0.51458 0.0
C3408 C 0.66172 0.04727 0.51317 0.0
C3409 C 0.65938 0.09962 0.51661 0.0
N3410 N 0.70616 0.04914 0.50133 0.0
N3411 N 0.6187 0.09675 0.53838 0.0
H3412 H 0.67213 0.13563 0.50758 0.0
H3413 H 0.64056 0.13492 0.51771 0.0
H3414 H 0.60346 0.0869 0.54575 0.0
H3415 H 0.61781 0.11539 0.543 0.0
H3416 H 0.70906 0.03004 0.50254 0.0
H3417 H 0.72256 0.05858 0.49654 0.0
H3418 H 0.67502 0.01275 0.49856 0.0
H3419 H 0.64498 0.01223 0.51307 0.0
C3420 C 0.23075 0.39007 0.7895 0.0
C3421 C 0.23986 0.40257 0.81023 0.0
C3422 C 0.26459 0.36579 0.82239 0.0
C3423 C 0.2571 0.35413 0.80043 0.0
N3424 N 0.23779 0.35716 0.76019 0.0
N3425 N 0.26752 0.40426 0.84473 0.0
C3426 C 0.24151 0.36681 0.78316 0.0
C3427 C 0.25749 0.39102 0.8262 0.0
N3428 N 0.21122 0.40006 0.77625 0.0
N3429 N 0.27742 0.35247 0.84003 0.0
H3430 H 0.26219 0.42265 0.84819 0.0
H3431 H 0.28235 0.39766 0.85543 0.0
H3432 H 0.28265 0.33385 0.83796 0.0
H3433 H 0.28115 0.35926 0.85754 0.0
H3434 H 0.2018 0.39022 0.76308 0.0
H3435 H 0.20282 0.41738 0.77978 0.0
H3436 H 0.22916 0.36706 0.74584 0.0
H3437 H 0.24554 0.34023 0.75444 0.0
C3438 C 0.28688 0.66463 0.26617 0.0
C3439 C 0.313 0.65874 0.26313 0.0
C3440 C 0.32326 0.70221 0.26538 0.0
C3441 C 0.29709 0.70839 0.26703 0.0
N3442 N 0.2537 0.69648 0.26511 0.0
N3443 N 0.3553 0.67188 0.25275 0.0
C3444 C 0.27875 0.6899 0.266 0.0
C3445 C 0.33096 0.67755 0.2605 0.0
N3446 N 0.27008 0.64616 0.27024 0.0
N3447 N 0.34082 0.71966 0.26916 0.0
H3448 H 0.36158 0.65395 0.24849 0.0
H3449 H 0.36851 0.68522 0.24803 0.0
H3450 H 0.33621 0.73821 0.27233 0.0
H3451 H 0.35994 0.71536 0.2711 0.0
H3452 H 0.25114 0.64934 0.27534 0.0
H3453 H 0.27549 0.62745 0.27015 0.0
H3454 H 0.23967 0.68398 0.26188 0.0
H3455 H 0.24704 0.7148 0.26585 0.0
C3456 C 0.50208 0.64497 0.56474 0.0
C3457 C 0.51993 0.64974 0.58321 0.0
C3458 C 0.53616 0.60642 0.57893 0.0
C3459 C 0.51673 0.60086 0.56225 0.0
N3460 N 0.47829 0.6146 0.54307 0.0
N3461 N 0.55034 0.6328 0.61158 0.0
C3462 C 0.49892 0.62015 0.55619 0.0
C3463 C 0.53586 0.62978 0.59135 0.0
N3464 N 0.48863 0.66435 0.55462 0.0
N3465 N 0.55601 0.59008 0.58193 0.0
H3466 H 0.55062 0.64935 0.62127 0.0
H3467 H 0.56011 0.61822 0.62022 0.0
H3468 H 0.55793 0.57335 0.57268 0.0
H3469 H 0.57206 0.59434 0.59144 0.0
H3470 H 0.47743 0.66269 0.53921 0.0
H3471 H 0.49042 0.68258 0.56022 0.0
H3472 H 0.46329 0.62707 0.54022 0.0
H3473 H 0.47491 0.59676 0.53718 0.0
C3474 C 0.67968 0.24714 0.82476 0.0
C3475 C 0.66058 0.26466 0.81813 0.0
C3476 C 0.68963 0.28516 0.78869 0.0
C3477 C 0.70863 0.26733 0.79502 0.0
N3478 N 0.7202 0.22788 0.81368 0.0
N3479 N 0.64495 0.29614 0.78989 0.0
C3480 C 0.70308 0.2471 0.81126 0.0
C3481 C 0.66476 0.28223 0.79866 0.0
N3482 N 0.67604 0.23153 0.84488 0.0
N3483 N 0.69563 0.30576 0.77479 0.0
H3484 H 0.62649 0.29443 0.79707 0.0
H3485 H 0.6464 0.30761 0.77411 0.0
H3486 H 0.71372 0.309 0.76744 0.0
H3487 H 0.68309 0.32069 0.77217 0.0
H3488 H 0.69044 0.22056 0.85238 0.0
H3489 H 0.6591 0.23082 0.85537 0.0
H3490 H 0.71615 0.21148 0.82329 0.0
H3491 H 0.73769 0.22734 0.80411 0.0
C3492 C 0.04256 0.41351 0.05273 0.0
C3493 C 0.02938 0.40884 0.07596 0.0
C3494 C 0.01329 0.45256 0.07527 0.0
C3495 C 0.02812 0.45771 0.05311 0.0
N3496 N 0.05884 0.44335 0.02198 0.0
N3497 N 0.00518 0.42524 0.11117 0.0
C3498 C 0.04338 0.43823 0.04231 0.0
C3499 C 0.01543 0.42874 0.08761 0.0
N3500 N 0.05351 0.39402 0.04003 0.0
N3501 N 0.99705 0.47048 0.08468 0.0
H3502 H 0.0064 0.40836 0.12081 0.0
H3503 H 0.99734 0.43947 0.12206 0.0
H3504 H 0.99587 0.48839 0.07723 0.0
H3505 H 0.98351 0.46723 0.09884 0.0
H3506 H 0.06102 0.39539 0.02184 0.0
H3507 H 0.05328 0.37587 0.04692 0.0
H3508 H 0.07274 0.43108 0.01498 0.0
H3509 H 0.0588 0.46054 0.01286 0.0
C3510 C 0.93171 0.76085 0.31192 0.0
C3511 C 0.93073 0.76496 0.33803 0.0
C3512 C 0.88951 0.78592 0.33543 0.0
C3513 C 0.89039 0.78164 0.30943 0.0
N3514 N 0.9092 0.76206 0.27319 0.0
N3515 N 0.90752 0.77711 0.37566 0.0
C3516 C 0.9106 0.76813 0.29775 0.0
C3517 C 0.90913 0.77603 0.35015 0.0
N3518 N 0.9531 0.75071 0.30073 0.0
N3519 N 0.87036 0.80037 0.34571 0.0
H3520 H 0.92189 0.77055 0.38701 0.0
H3521 H 0.89127 0.78271 0.38578 0.0
H3522 H 0.85571 0.80791 0.33529 0.0
H3523 H 0.86979 0.80641 0.36407 0.0
H3524 H 0.95621 0.74973 0.28147 0.0
H3525 H 0.96839 0.74406 0.31085 0.0
H3526 H 0.92214 0.75029 0.26389 0.0
H3527 H 0.89397 0.76766 0.26245 0.0
C3528 C 0.52931 0.40514 0.97054 0.0
C3529 C 0.53003 0.38207 0.9835 0.0
C3530 C 0.51998 0.4028 0.02302 0.0
C3531 C 0.51698 0.42538 0.00969 0.0
N3532 N 0.51313 0.44744 0.97049 0.0
N3533 N 0.52175 0.35807 0.02124 0.0
C3534 C 0.52004 0.4264 0.98331 0.0
C3535 C 0.52422 0.3806 0.00957 0.0
N3536 N 0.53804 0.4068 0.94622 0.0
N3537 N 0.51941 0.40279 0.04852 0.0
H3538 H 0.5244 0.34135 0.01194 0.0
H3539 H 0.51502 0.35594 0.03965 0.0
H3540 H 0.51623 0.41891 0.05875 0.0
H3541 H 0.52403 0.38728 0.0594 0.0
H3542 H 0.53972 0.42348 0.93642 0.0
H3543 H 0.54577 0.39169 0.93643 0.0
H3544 H 0.51282 0.44861 0.95108 0.0
H3545 H 0.50516 0.46302 0.97928 0.0
C3546 C 0.87786 0.27926 0.20918 0.0
C3547 C 0.8991 0.28346 0.22381 0.0
C3548 C 0.87046 0.28821 0.26118 0.0
C3549 C 0.8492 0.28467 0.24632 0.0
N3550 N 0.83242 0.28326 0.20535 0.0
N3551 N 0.91562 0.29497 0.26306 0.0
C3552 C 0.85288 0.28187 0.22009 0.0
C3553 C 0.89536 0.28881 0.24966 0.0
N3554 N 0.88154 0.27246 0.18482 0.0
N3555 N 0.86687 0.29057 0.28645 0.0
H3556 H 0.93404 0.29482 0.25548 0.0
H3557 H 0.91421 0.30167 0.28117 0.0
H3558 H 0.849 0.29184 0.2952 0.0
H3559 H 0.88142 0.29015 0.29895 0.0
H3560 H 0.86718 0.26628 0.17396 0.0
H3561 H 0.89934 0.27131 0.17587 0.0
H3562 H 0.83368 0.28394 0.1859 0.0
H3563 H 0.81416 0.28649 0.21267 0.0
C3564 C 0.07366 0.6354 0.50656 0.0
C3565 C 0.05864 0.64613 0.48771 0.0
C3566 C 0.032 0.61029 0.48844 0.0
C3567 C 0.04809 0.59849 0.50592 0.0
N3568 N 0.0868 0.59771 0.52827 0.0
N3569 N 0.02774 0.64155 0.45618 0.0
C3570 C 0.06969 0.61044 0.51412 0.0
C3571 C 0.03922 0.6328 0.47716 0.0
N3572 N 0.09129 0.64917 0.51745 0.0
N3573 N 0.00901 0.60094 0.48371 0.0
H3574 H 0.03215 0.65828 0.44736 0.0
H3575 H 0.01556 0.63106 0.44613 0.0
H3576 H 0.00208 0.58507 0.49235 0.0
H3577 H 0.99551 0.61046 0.47333 0.0
H3578 H 0.10097 0.64325 0.53313 0.0
H3579 H 0.09504 0.66729 0.51173 0.0
H3580 H 0.10409 0.60472 0.5328 0.0
H3581 H 0.08472 0.57924 0.53369 0.0
C3582 C 0.65582 0.78274 0.75597 0.0
C3583 C 0.65506 0.783 0.72937 0.0
C3584 C 0.70151 0.78731 0.7271 0.0
C3585 C 0.70264 0.78568 0.75377 0.0
N3586 N 0.68063 0.77899 0.79337 0.0
N3587 N 0.67797 0.78039 0.68986 0.0
C3588 C 0.67969 0.78238 0.76808 0.0
C3589 C 0.67814 0.78396 0.71508 0.0
N3590 N 0.63359 0.78383 0.76972 0.0
N3591 N 0.72281 0.79211 0.71291 0.0
H3592 H 0.66147 0.77786 0.68033 0.0
H3593 H 0.69424 0.77758 0.67865 0.0
H3594 H 0.74071 0.79248 0.72003 0.0
H3595 H 0.7226 0.79717 0.69407 0.0
H3596 H 0.6324 0.78645 0.78894 0.0
H3597 H 0.61601 0.78391 0.7616 0.0
H3598 H 0.66534 0.77343 0.80464 0.0
H3599 H 0.6972 0.78041 0.80307 0.0
C3600 C 0.59689 0.48743 0.65407 0.0
C3601 C 0.58605 0.49563 0.67721 0.0
C3602 C 0.54585 0.50498 0.65786 0.0
C3603 C 0.55627 0.49544 0.63528 0.0
N3604 N 0.58946 0.47382 0.61215 0.0
N3605 N 0.54935 0.50793 0.70264 0.0
C3606 C 0.58115 0.48544 0.6335 0.0
C3607 C 0.56022 0.50317 0.67958 0.0
N3608 N 0.62233 0.48267 0.65148 0.0
N3609 N 0.52251 0.51637 0.65819 0.0
H3610 H 0.55929 0.50645 0.71907 0.0
H3611 H 0.53007 0.5113 0.70578 0.0
H3612 H 0.51149 0.51753 0.64245 0.0
H3613 H 0.51485 0.52615 0.67339 0.0
H3614 H 0.63163 0.47912 0.6344 0.0
H3615 H 0.6346 0.48418 0.6661 0.0
H3616 H 0.60653 0.46385 0.6105 0.0
H3617 H 0.57828 0.47247 0.59664 0.0
C3618 C 0.76438 0.30769 0.93468 0.0
C3619 C 0.76492 0.33384 0.93201 0.0
C3620 C 0.78333 0.33012 0.88982 0.0
C3621 C 0.78089 0.30418 0.89172 0.0
N3622 N 0.76545 0.26828 0.91363 0.0
N3623 N 0.76985 0.37017 0.90571 0.0
C3624 C 0.77033 0.29293 0.91352 0.0
C3625 C 0.77282 0.34515 0.90911 0.0
N3626 N 0.7592 0.29698 0.95754 0.0
N3627 N 0.79665 0.34022 0.87004 0.0
H3628 H 0.76192 0.38174 0.91949 0.0
H3629 H 0.773 0.3791 0.88853 0.0
H3630 H 0.80539 0.32951 0.85601 0.0
H3631 H 0.80118 0.35882 0.86885 0.0
H3632 H 0.7612 0.27804 0.96107 0.0
H3633 H 0.75468 0.30717 0.97354 0.0
H3634 H 0.75538 0.2594 0.92806 0.0
H3635 H 0.76979 0.2571 0.89828 0.0
C3636 C 0.97857 0.57497 0.11983 0.0
C3637 C 0.98715 0.56068 0.14041 0.0
C3638 C 0.01643 0.53707 0.11337 0.0
C3639 C 0.00809 0.55153 0.09272 0.0
N3640 N 0.98675 0.58827 0.07697 0.0
N3641 N 0.01856 0.53348 0.15837 0.0
C3642 C 0.99093 0.57185 0.09618 0.0
C3643 C 0.00772 0.54362 0.13767 0.0
N3644 N 0.95782 0.59043 0.12256 0.0
N3645 N 0.03103 0.51606 0.10976 0.0
H3646 H 0.01235 0.53798 0.1765 0.0
H3647 H 0.03513 0.52263 0.15757 0.0
H3648 H 0.03723 0.50986 0.09222 0.0
H3649 H 0.0351 0.50341 0.12404 0.0
H3650 H 0.94891 0.59895 0.10756 0.0
H3651 H 0.94844 0.59355 0.13974 0.0
H3652 H 0.97627 0.60474 0.07913 0.0
H3653 H 0.99576 0.5866 0.0594 0.0
C3654 C 0.76183 0.75642 0.39718 0.0
C3655 C 0.7742 0.73308 0.40158 0.0
C3656 C 0.79022 0.73357 0.35737 0.0
C3657 C 0.77614 0.75589 0.35245 0.0
N3658 N 0.74674 0.78756 0.3674 0.0
N3659 N 0.79721 0.69774 0.3847 0.0
C3660 C 0.76136 0.76693 0.37231 0.0
C3661 C 0.78771 0.7213 0.38134 0.0
N3662 N 0.75131 0.76908 0.41704 0.0
N3663 N 0.80615 0.72399 0.33908 0.0
H3664 H 0.79579 0.68819 0.40175 0.0
H3665 H 0.80463 0.68684 0.37021 0.0
H3666 H 0.80758 0.73145 0.32103 0.0
H3667 H 0.81921 0.70961 0.34215 0.0
H3668 H 0.74442 0.78727 0.41588 0.0
H3669 H 0.75125 0.76206 0.43531 0.0
H3670 H 0.73318 0.79489 0.37997 0.0
H3671 H 0.74715 0.79672 0.3501 0.0
C3672 C 0.57097 0.49416 0.92377 0.0
C3673 C 0.57473 0.51366 0.90618 0.0
C3674 C 0.5539 0.54242 0.93528 0.0
C3675 C 0.55476 0.52397 0.95443 0.0
N3676 N 0.57179 0.48389 0.96757 0.0
N3677 N 0.57586 0.55802 0.89849 0.0
C3678 C 0.56526 0.50012 0.94894 0.0
C3679 C 0.56789 0.53834 0.91274 0.0
N3680 N 0.57309 0.47007 0.91657 0.0
N3681 N 0.53926 0.56343 0.93808 0.0
H3682 H 0.58789 0.55623 0.88275 0.0
H3683 H 0.57289 0.57628 0.90411 0.0
H3684 H 0.52701 0.56626 0.95345 0.0
H3685 H 0.53691 0.57641 0.92366 0.0
H3686 H 0.56906 0.45535 0.92873 0.0
H3687 H 0.5763 0.46507 0.89796 0.0
H3688 H 0.58103 0.46694 0.96411 0.0
H3689 H 0.57145 0.4888 0.98629 0.0
C3690 C 0.7568 0.29631 0.16336 0.0
C3691 C 0.74375 0.31953 0.16313 0.0
C3692 C 0.73215 0.3143 0.20709 0.0
C3693 C 0.75056 0.29503 0.20878 0.0
N3694 N 0.7789 0.26524 0.18782 0.0
N3695 N 0.71968 0.35166 0.18518 0.0
C3696 C 0.7621 0.28484 0.18668 0.0
C3697 C 0.73121 0.32871 0.185 0.0
N3698 N 0.76397 0.28533 0.1413 0.0
N3699 N 0.71535 0.31836 0.22659 0.0
H3700 H 0.71894 0.36324 0.16944 0.0
H3701 H 0.71266 0.35999 0.20152 0.0
H3702 H 0.71468 0.3063 0.24199 0.0
H3703 H 0.70034 0.33121 0.22589 0.0
H3704 H 0.77141 0.26734 0.14011 0.0
H3705 H 0.76019 0.29342 0.12395 0.0
H3706 H 0.79036 0.25953 0.17267 0.0
H3707 H 0.78252 0.25519 0.20406 0.0
C3708 C 0.96104 0.52839 0.39312 0.0
C3709 C 0.97464 0.53965 0.37288 0.0
C3710 C 0.01306 0.53851 0.39664 0.0
C3711 C 1.00006 0.52514 0.4157 0.0
N3712 N 0.96299 0.50514 0.43213 0.0
N3713 N 0.01368 0.55386 0.35382 0.0
C3714 C 0.97437 0.51947 0.41397 0.0
C3715 C 1.0007 0.54445 0.37422 0.0
N3716 N 0.93536 0.52685 0.39258 0.0
N3717 N 0.03706 0.54581 0.40036 0.0
H3718 H 0.00506 0.55883 0.33721 0.0
H3719 H 0.03321 0.55541 0.35275 0.0
H3720 H 0.04661 0.54106 0.41652 0.0
H3721 H 0.04685 0.5578 0.38837 0.0
H3722 H 0.92407 0.52104 0.40775 0.0
H3723 H 0.92494 0.53335 0.37755 0.0
H3724 H 0.94507 0.49804 0.43079 0.0
H3725 H 0.97224 0.49883 0.44797 0.0
C3726 C 0.76419 0.72231 0.6813 0.0
C3727 C 0.78057 0.72974 0.66108 0.0
C3728 C 0.80137 0.75732 0.69032 0.0
C3729 C 0.78317 0.75186 0.70979 0.0
N3730 N 0.74324 0.73317 0.72066 0.0
N3731 N 0.81245 0.75757 0.64574 0.0
C3732 C 0.76356 0.73537 0.70441 0.0
C3733 C 0.79855 0.74815 0.66548 0.0
N3734 N 0.74959 0.70216 0.6788 0.0
N3735 N 0.82202 0.77048 0.69572 0.0
H3736 H 0.81088 0.75151 0.62749 0.0
H3737 H 0.82383 0.77283 0.64706 0.0
H3738 H 0.82507 0.77692 0.71356 0.0
H3739 H 0.83727 0.77293 0.68318 0.0
H3740 H 0.73946 0.69413 0.69373 0.0
H3741 H 0.74959 0.69195 0.66246 0.0
H3742 H 0.72716 0.72367 0.71648 0.0
H3743 H 0.74099 0.74319 0.73701 0.0
C3744 C 0.64324 0.55541 0.53642 0.0
C3745 C 0.64527 0.58098 0.52995 0.0
C3746 C 0.59922 0.58314 0.52386 0.0
C3747 C 0.59738 0.55702 0.52802 0.0
N3748 N 0.61896 0.51786 0.53502 0.0
N3749 N 0.62555 0.61819 0.51364 0.0
C3750 C 0.61978 0.54307 0.53357 0.0
C3751 C 0.62335 0.59445 0.52248 0.0
N3752 N 0.66371 0.54293 0.54567 0.0
N3753 N 0.57777 0.59767 0.52276 0.0
H3754 H 0.6425 0.62751 0.51318 0.0
H3755 H 0.61105 0.62795 0.50487 0.0
H3756 H 0.55976 0.5907 0.52442 0.0
H3757 H 0.5777 0.61693 0.52296 0.0
H3758 H 0.66298 0.52516 0.55341 0.0
H3759 H 0.68115 0.5511 0.54727 0.0
H3760 H 0.63492 0.50631 0.5364 0.0
H3761 H 0.60246 0.50827 0.53267 0.0
C3762 C 0.13451 0.00698 0.56209 0.0
C3763 C 0.13656 0.98093 0.55985 0.0
C3764 C 0.09095 0.97776 0.56561 0.0
C3765 C 0.08871 0.00373 0.56239 0.0
N3766 N 0.10714 0.04245 0.57197 0.0
N3767 N 0.11727 0.94097 0.5595 0.0
C3768 C 0.11018 0.01832 0.56501 0.0
C3769 C 0.11495 0.96607 0.562 0.0
N3770 N 0.1557 0.02082 0.56051 0.0
N3771 N 0.07053 0.96465 0.57379 0.0
H3772 H 0.13463 0.93155 0.55718 0.0
H3773 H 0.10187 0.92965 0.55791 0.0
H3774 H 0.0536 0.97337 0.57976 0.0
H3775 H 0.07141 0.94581 0.57812 0.0
H3776 H 0.15526 0.04004 0.55902 0.0
H3777 H 0.17391 0.01296 0.55923 0.0
H3778 H 0.122 0.05377 0.57579 0.0
H3779 H 0.08949 0.05017 0.57714 0.0
C3780 C 0.30505 0.93558 0.7574 0.0
C3781 C 0.3306 0.93675 0.7641 0.0
C3782 C 0.32797 0.89727 0.78661 0.0
C3783 C 0.30259 0.89599 0.77971 0.0
N3784 N 0.26793 0.91053 0.75541 0.0
N3785 N 0.3681 0.91731 0.7805 0.0
C3786 C 0.29143 0.91414 0.76405 0.0
C3787 C 0.34263 0.91708 0.7773 0.0
N3788 N 0.29365 0.95532 0.74561 0.0
N3789 N 0.33773 0.87974 0.80251 0.0
H3790 H 0.37934 0.93161 0.77367 0.0
H3791 H 0.37849 0.90256 0.78804 0.0
H3792 H 0.32752 0.86461 0.80909 0.0
H3793 H 0.35525 0.88086 0.81046 0.0
H3794 H 0.27438 0.95671 0.74263 0.0
H3795 H 0.30332 0.97107 0.73986 0.0
H3796 H 0.25957 0.92173 0.74186 0.0
H3797 H 0.25739 0.89518 0.76072 0.0
C3798 C 0.41017 0.06249 0.0162 0.0
C3799 C 0.40562 0.08666 0.02583 0.0
C3800 C 0.45131 0.08953 0.03288 0.0
C3801 C 0.45558 0.06462 0.02508 0.0
N3802 N 0.4383 0.0262 0.01267 0.0
N3803 N 0.42151 0.12239 0.04565 0.0
C3804 C 0.4348 0.05085 0.01745 0.0
C3805 C 0.42613 0.09989 0.03486 0.0
N3806 N 0.39091 0.05065 0.00564 0.0
N3807 N 0.47149 0.1038 0.03731 0.0
H3808 H 0.4038 0.13133 0.04609 0.0
H3809 H 0.43478 0.13158 0.05559 0.0
H3810 H 0.49013 0.09716 0.0362 0.0
H3811 H 0.47009 0.12282 0.03999 0.0
H3812 H 0.39343 0.0344 0.99558 0.0
H3813 H 0.37249 0.05797 0.00545 0.0
H3814 H 0.42361 0.01434 0.00982 0.0
H3815 H 0.4558 0.01697 0.01358 0.0
C3816 C 0.70796 0.65069 0.80724 0.0
C3817 C 0.72051 0.63292 0.79169 0.0
C3818 C 0.7568 0.65925 0.78555 0.0
C3819 C 0.74524 0.67585 0.8029 0.0
N3820 N 0.71115 0.68813 0.83115 0.0
N3821 N 0.75668 0.61885 0.7666 0.0
C3822 C 0.7211 0.67181 0.81396 0.0
C3823 C 0.74483 0.63688 0.78076 0.0
N3824 N 0.68346 0.64732 0.81526 0.0
N3825 N 0.77905 0.66526 0.77358 0.0
H3826 H 0.74792 0.60263 0.76189 0.0
H3827 H 0.77548 0.61935 0.76035 0.0
H3828 H 0.78872 0.68113 0.77768 0.0
H3829 H 0.78732 0.65537 0.75876 0.0
H3830 H 0.67245 0.66047 0.82496 0.0
H3831 H 0.67336 0.63187 0.81067 0.0
H3832 H 0.69467 0.6853 0.84185 0.0
H3833 H 0.72027 0.70416 0.8358 0.0
C3834 C 0.87193 0.50386 0.04291 0.0
C3835 C 0.87169 0.47784 0.04005 0.0
C3836 C 0.91348 0.47778 0.01944 0.0
C3837 C 0.91408 0.50357 0.02307 0.0
N3838 N 0.89684 0.54086 0.04138 0.0
N3839 N 0.89329 0.43919 0.03005 0.0
C3840 C 0.89414 0.51655 0.03579 0.0
C3841 C 0.89288 0.4645 0.02973 0.0
N3842 N 0.85068 0.5164 0.05155 0.0
N3843 N 0.93228 0.46629 0.0054 0.0
H3844 H 0.87834 0.4289 0.03743 0.0
H3845 H 0.90912 0.42833 0.02495 0.0
H3846 H 0.94764 0.4757 0.9976 0.0
H3847 H 0.93181 0.44797 0.99985 0.0
H3848 H 0.84875 0.53562 0.05146 0.0
H3849 H 0.83429 0.50755 0.05762 0.0
H3850 H 0.8841 0.55091 0.05278 0.0
H3851 H 0.91291 0.55055 0.0359 0.0
C3852 C 0.29532 0.17309 0.77228 0.0
C3853 C 0.31525 0.16935 0.75438 0.0
C3854 C 0.31117 0.2122 0.73989 0.0
C3855 C 0.29429 0.2169 0.76049 0.0
N3856 N 0.27162 0.20252 0.79788 0.0
N3857 N 0.34309 0.18455 0.72129 0.0
C3858 C 0.28627 0.19749 0.7769 0.0
C3859 C 0.32328 0.18861 0.73797 0.0
N3860 N 0.28531 0.15332 0.78503 0.0
N3861 N 0.31524 0.2302 0.72207 0.0
H3862 H 0.35178 0.16717 0.71871 0.0
H3863 H 0.35184 0.1986 0.711 0.0
H3864 H 0.3064 0.24768 0.72291 0.0
H3865 H 0.32552 0.22719 0.70539 0.0
H3866 H 0.26899 0.1546 0.79642 0.0
H3867 H 0.29202 0.13517 0.78248 0.0
H3868 H 0.26799 0.18954 0.81204 0.0
H3869 H 0.26469 0.22014 0.8024 0.0
C3870 C 0.26415 0.89411 0.27582 0.0
C3871 C 0.24259 0.89907 0.2915 0.0
C3872 C 0.24209 0.85603 0.306 0.0
C3873 C 0.2617 0.85045 0.28804 0.0
N3874 N 0.29117 0.86317 0.25517 0.0
N3875 N 0.20971 0.88545 0.32049 0.0
C3876 C 0.27282 0.86924 0.27284 0.0
C3877 C 0.23138 0.88029 0.30659 0.0
N3878 N 0.27629 0.91323 0.264 0.0
N3879 N 0.23347 0.83808 0.32222 0.0
H3880 H 0.20173 0.90324 0.3222 0.0
H3881 H 0.19866 0.87199 0.32918 0.0
H3882 H 0.23939 0.81959 0.3213 0.0
H3883 H 0.22148 0.84168 0.33765 0.0
H3884 H 0.29352 0.91123 0.25419 0.0
H3885 H 0.27006 0.93164 0.26561 0.0
H3886 H 0.298 0.87547 0.24156 0.0
H3887 H 0.29882 0.84529 0.2532 0.0
C3888 C 0.50863 0.42664 0.48534 0.0
C3889 C 0.52996 0.41605 0.47205 0.0
C3890 C 0.55244 0.45513 0.47882 0.0
C3891 C 0.53205 0.46443 0.49436 0.0
N3892 N 0.49272 0.45558 0.51656 0.0
N3893 N 0.57419 0.41909 0.46053 0.0
C3894 C 0.51085 0.44907 0.49893 0.0
C3895 C 0.5524 0.43009 0.4699 0.0
N3896 N 0.48564 0.41607 0.48396 0.0
N3897 N 0.57205 0.47014 0.47266 0.0
H3898 H 0.57526 0.40075 0.45482 0.0
H3899 H 0.59171 0.42728 0.46074 0.0
H3900 H 0.5733 0.48791 0.47973 0.0
H3901 H 0.58609 0.46565 0.45924 0.0
H3902 H 0.46891 0.42443 0.49088 0.0
H3903 H 0.48281 0.40039 0.47347 0.0
H3904 H 0.47844 0.44384 0.52267 0.0
H3905 H 0.49307 0.47181 0.52662 0.0
C3906 C 0.38561 0.81897 0.25014 0.0
C3907 C 0.39541 0.80502 0.22971 0.0
C3908 C 0.35794 0.77987 0.23036 0.0
C3909 C 0.3472 0.79514 0.24949 0.0
N3910 N 0.34873 0.83105 0.2756 0.0
N3911 N 0.39104 0.77367 0.19862 0.0
C3912 C 0.36051 0.81512 0.25901 0.0
C3913 C 0.38163 0.78586 0.21933 0.0
N3914 N 0.40041 0.83566 0.2611 0.0
N3915 N 0.34604 0.75905 0.22349 0.0
H3916 H 0.40917 0.7761 0.19091 0.0
H3917 H 0.38042 0.76212 0.18807 0.0
H3918 H 0.3284 0.75402 0.23074 0.0
H3919 H 0.35444 0.74552 0.21207 0.0
H3920 H 0.39539 0.84451 0.27774 0.0
H3921 H 0.41869 0.83939 0.25448 0.0
H3922 H 0.35644 0.84749 0.28109 0.0
H3923 H 0.33027 0.82896 0.28252 0.0
C3924 C 0.03646 0.64677 1.00001 0.0
C3925 C 0.02749 0.65157 0.97559 0.0
C3926 C 0.02162 0.60638 0.9712 0.0
C3927 C 0.02884 0.60175 0.99634 0.0
N3928 N 0.03975 0.61849 0.03577 0.0
N3929 N 0.00919 0.63601 0.93878 0.0
C3930 C 0.03552 0.62223 0.01095 0.0
C3931 C 0.01941 0.63134 0.96149 0.0
N3932 N 0.04627 0.66572 0.01274 0.0
N3933 N 0.01794 0.58679 0.95607 0.0
H3934 H 0.00831 0.65363 0.93056 0.0
H3935 H 1.00002 0.62286 0.92876 0.0
H3936 H 0.01906 0.56843 0.96222 0.0
H3937 H 0.01583 0.58847 0.93688 0.0
H3938 H 0.05587 0.66325 0.02923 0.0
H3939 H 0.04637 0.68388 0.00586 0.0
H3940 H 0.04179 0.63275 0.04827 0.0
H3941 H 0.03918 0.60112 0.04448 0.0
C3942 C 0.14395 0.2861 0.71178 0.0
C3943 C 0.12252 0.29853 0.72275 0.0
C3944 C 0.14234 0.29891 0.76311 0.0
C3945 C 0.16252 0.28439 0.75272 0.0
N3946 N 0.18242 0.26201 0.71855 0.0
N3947 N 0.09987 0.31585 0.75856 0.0
C3948 C 0.16337 0.27748 0.72736 0.0
C3949 C 0.12133 0.30486 0.74835 0.0
N3950 N 0.14571 0.28278 0.68649 0.0
N3951 N 0.14372 0.30724 0.78695 0.0
H3952 H 0.08449 0.3213 0.74797 0.0
H3953 H 0.09674 0.31854 0.77763 0.0
H3954 H 0.15886 0.30257 0.79817 0.0
H3955 H 0.13084 0.31989 0.79505 0.0
H3956 H 0.16191 0.27604 0.67702 0.0
H3957 H 0.13155 0.2886 0.67453 0.0
H3958 H 0.18287 0.25412 0.70095 0.0
H3959 H 0.19707 0.25553 0.7296 0.0
C3960 C 0.53168 0.67306 0.07718 0.0
C3961 C 0.51933 0.6933 0.06514 0.0
C3962 C 0.52206 0.67175 0.02535 0.0
C3963 C 0.53637 0.65265 0.03689 0.0
N3964 N 0.5571 0.63531 0.07261 0.0
N3965 N 0.50404 0.71343 0.02791 0.0
C3966 C 0.54182 0.65336 0.06253 0.0
C3967 C 0.51476 0.69307 0.03923 0.0
N3968 N 0.53323 0.67255 0.10263 0.0
N3969 N 0.515 0.669 0.00131 0.0
H3970 H 0.49764 0.72902 0.03777 0.0
H3971 H 0.50262 0.71547 0.00865 0.0
H3972 H 0.52075 0.65368 0.9907 0.0
H3973 H 0.50234 0.68096 0.99242 0.0
H3974 H 0.53965 0.65722 0.11282 0.0
H3975 H 0.52618 0.68687 0.11396 0.0
H3976 H 0.56398 0.63593 0.09053 0.0
H3977 H 0.56452 0.62039 0.06237 0.0
C3978 C 0.15733 0.7933 0.80578 0.0
C3979 C 0.15336 0.78173 0.82964 0.0
C3980 C 0.1985 0.76862 0.82892 0.0
C3981 C 0.2029 0.78216 0.80624 0.0
N3982 N 0.18699 0.80985 0.77443 0.0
N3983 N 0.17134 0.76208 0.86587 0.0
C3984 C 0.18244 0.7953 0.79515 0.0
C3985 C 0.17428 0.77029 0.84168 0.0
N3986 N 0.13696 0.80146 0.79272 0.0
N3987 N 0.21747 0.75397 0.83831 0.0
H3988 H 0.15418 0.76333 0.876 0.0
H3989 H 0.18632 0.75611 0.87669 0.0
H3990 H 0.23562 0.75288 0.83013 0.0
H3991 H 0.21477 0.74147 0.8531 0.0
H3992 H 0.13821 0.80762 0.77421 0.0
H3993 H 0.11841 0.80003 0.79965 0.0
H3994 H 0.17361 0.82216 0.76711 0.0
H3995 H 0.20473 0.81088 0.76545 0.0
C3996 C 0.98966 0.42613 0.54371 0.0
C3997 C 0.99114 0.42161 0.56975 0.0
C3998 C 0.98681 0.46576 0.57771 0.0
C3999 C 0.99123 0.47024 0.55188 0.0
N4000 N 0.98127 0.45642 0.51097 0.0
N4001 N 0.9906 0.4366 0.6121 0.0
C4002 C 0.98792 0.45093 0.53487 0.0
C4003 C 0.98908 0.44125 0.58701 0.0
N4004 N 0.9909 0.40681 0.52754 0.0
N4005 N 0.97878 0.48468 0.59287 0.0
H4006 H 0.99188 0.41878 0.61981 0.0
H4007 H 0.99232 0.45047 0.62513 0.0
H4008 H 0.9738 0.5021 0.5856 0.0
H4009 H 0.97358 0.48228 0.61168 0.0
H4010 H 0.99301 0.40904 0.50823 0.0
H4011 H 0.99117 0.38835 0.53357 0.0
H4012 H 0.9771 0.44313 0.49803 0.0
H4013 H 0.97637 0.47439 0.50521 0.0
C4014 C 0.39509 0.28639 0.30229 0.0
C4015 C 0.39602 0.2867 0.32885 0.0
C4016 C 0.34933 0.28513 0.33165 0.0
C4017 C 0.3482 0.28564 0.305 0.0
N4018 N 0.37004 0.28963 0.26498 0.0
N4019 N 0.37387 0.28989 0.36874 0.0
C4020 C 0.37114 0.28723 0.29036 0.0
C4021 C 0.37306 0.287 0.34344 0.0
N4022 N 0.41724 0.28462 0.28845 0.0
N4023 N 0.32758 0.28283 0.34593 0.0
H4024 H 0.3907 0.29042 0.37815 0.0
H4025 H 0.35805 0.2935 0.38033 0.0
H4026 H 0.30973 0.28401 0.33859 0.0
H4027 H 0.32709 0.27865 0.36497 0.0
H4028 H 0.41833 0.28157 0.26931 0.0
H4029 H 0.43488 0.2847 0.29644 0.0
H4030 H 0.38547 0.29374 0.25323 0.0
H4031 H 0.35322 0.28887 0.25558 0.0
C4032 C 0.45593 0.55393 0.39691 0.0
C4033 C 0.46983 0.55291 0.37382 0.0
C4034 C 0.50914 0.55883 0.39496 0.0
C4035 C 0.49494 0.56203 0.41759 0.0
N4036 N 0.45499 0.56715 0.4399 0.0
N4037 N 0.50888 0.55762 0.34977 0.0
C4038 C 0.46833 0.56083 0.41852 0.0
C4039 C 0.49627 0.55626 0.37248 0.0
N4040 N 0.43107 0.5478 0.39822 0.0
N4041 N 0.53489 0.55736 0.39524 0.0
H4042 H 0.50008 0.55536 0.33289 0.0
H4043 H 0.52762 0.56271 0.34753 0.0
H4044 H 0.54474 0.55913 0.41158 0.0
H4045 H 0.54636 0.55252 0.37978 0.0
H4046 H 0.42071 0.54572 0.41499 0.0
H4047 H 0.42132 0.54267 0.38264 0.0
H4048 H 0.43537 0.56889 0.44112 0.0
H4049 H 0.46366 0.57295 0.45587 0.0
C4050 C 0.26382 0.73073 0.13713 0.0
C4051 C 0.27738 0.74414 0.11828 0.0
C4052 C 0.27611 0.78092 0.14415 0.0
C4053 C 0.26159 0.76788 0.16236 0.0
N4054 N 0.2385 0.73225 0.17581 0.0
N4055 N 0.29399 0.78236 0.10179 0.0
C4056 C 0.25445 0.7433 0.15866 0.0
C4057 C 0.28282 0.76941 0.12115 0.0
N4058 N 0.26058 0.70587 0.1347 0.0
N4059 N 0.28413 0.80397 0.14941 0.0
H4060 H 0.29976 0.77422 0.08491 0.0
H4061 H 0.29621 0.80142 0.10178 0.0
H4062 H 0.27885 0.81292 0.16599 0.0
H4063 H 0.29702 0.81364 0.13816 0.0
H4064 H 0.25325 0.69452 0.14891 0.0
H4065 H 0.26683 0.69604 0.11895 0.0
H4066 H 0.2305 0.71517 0.17328 0.0
H4067 H 0.23168 0.74111 0.19195 0.0
C4068 C 0.07592 0.52057 0.91862 0.0
C4069 C 0.06729 0.49937 0.90666 0.0
C4070 C 0.04323 0.48728 0.94449 0.0
C4071 C 0.05048 0.5094 0.95579 0.0
N4072 N 0.06951 0.54952 0.95211 0.0
N4073 N 0.04047 0.46428 0.90616 0.0
C4074 C 0.06569 0.52672 0.94247 0.0
C4075 C 0.05018 0.48323 0.91897 0.0
N4076 N 0.09449 0.5345 0.90748 0.0
N4077 N 0.03078 0.46973 0.95843 0.0
H4078 H 0.04565 0.4607 0.88755 0.0
H4079 H 0.02598 0.45333 0.91328 0.0
H4080 H 0.02567 0.47195 0.97728 0.0
H4081 H 0.02725 0.45216 0.95197 0.0
H4082 H 0.10394 0.548 0.91679 0.0
H4083 H 0.10196 0.53149 0.88947 0.0
H4084 H 0.07764 0.56395 0.94184 0.0
H4085 H 0.06251 0.55501 0.96961 0.0
C4086 C 0.26871 0.31042 0.66294 0.0
C4087 C 0.27717 0.33492 0.65841 0.0
C4088 C 0.28451 0.33844 0.70383 0.0
C4089 C 0.27657 0.31365 0.70829 0.0
N4090 N 0.26453 0.27494 0.69134 0.0
N4091 N 0.29052 0.37332 0.67475 0.0
C4092 C 0.26935 0.29946 0.68762 0.0
C4093 C 0.28456 0.34911 0.67896 0.0
N4094 N 0.2594 0.29778 0.64357 0.0
N4095 N 0.29216 0.35185 0.72347 0.0
H4096 H 0.2911 0.38154 0.65699 0.0
H4097 H 0.29373 0.3859 0.68865 0.0
H4098 H 0.29037 0.34585 0.74202 0.0
H4099 H 0.30097 0.36873 0.72174 0.0
H4100 H 0.24996 0.28124 0.64572 0.0
H4101 H 0.25967 0.30464 0.62525 0.0
H4102 H 0.26205 0.26261 0.677 0.0
H4103 H 0.26487 0.2662 0.70882 0.0
C4104 C 0.50332 0.54955 0.13778 0.0
C4105 C 0.48046 0.56358 0.14011 0.0
C4106 C 0.48119 0.57107 0.09493 0.0
C4107 C 0.50205 0.55408 0.09247 0.0
N4108 N 0.52991 0.52338 0.11126 0.0
N4109 N 0.44552 0.58529 0.12092 0.0
C4110 C 0.51233 0.54226 0.11379 0.0
C4111 C 0.46895 0.57407 0.11875 0.0
N4112 N 0.51635 0.54322 0.1586 0.0
N4113 N 0.4725 0.58367 0.07447 0.0
H4114 H 0.43573 0.58777 0.13797 0.0
H4115 H 0.43487 0.59053 0.10567 0.0
H4116 H 0.47917 0.58028 0.05627 0.0
H4117 H 0.45954 0.5985 0.07569 0.0
H4118 H 0.53434 0.53491 0.15784 0.0
H4119 H 0.51023 0.5486 0.17651 0.0
H4120 H 0.53596 0.5125 0.12624 0.0
H4121 H 0.53678 0.51697 0.09402 0.0
C4122 C 0.32402 0.73324 0.86653 0.0
C4123 C 0.31003 0.7409 0.88818 0.0
C4124 C 0.28545 0.77083 0.86408 0.0
C4125 C 0.29935 0.76313 0.84225 0.0
N4126 N 0.336 0.74235 0.82335 0.0
N4127 N 0.28299 0.77103 0.90932 0.0
C4128 C 0.32005 0.74604 0.84369 0.0
C4129 C 0.29272 0.76125 0.88751 0.0
N4130 N 0.34013 0.71308 0.86759 0.0
N4131 N 0.26422 0.78568 0.86237 0.0
H4132 H 0.28793 0.76412 0.92683 0.0
H4133 H 0.27206 0.78735 0.91008 0.0
H4134 H 0.25759 0.79272 0.84556 0.0
H4135 H 0.25179 0.78932 0.87747 0.0
H4136 H 0.34845 0.70474 0.85182 0.0
H4137 H 0.34413 0.7038 0.88428 0.0
H4138 H 0.35273 0.73182 0.82395 0.0
H4139 H 0.33372 0.75171 0.80635 0.0
C4140 C 0.07653 0.55279 0.67863 0.0
C4141 C 0.09307 0.53171 0.67614 0.0
C4142 C 0.07343 0.52093 0.63757 0.0
C4143 C 0.059 0.5434 0.63861 0.0
N4144 N 0.04966 0.58276 0.65738 0.0
N4145 N 0.11101 0.49874 0.65068 0.0
C4146 C 0.06148 0.56001 0.65832 0.0
C4147 C 0.09273 0.51672 0.65475 0.0
N4148 N 0.07412 0.56508 0.70073 0.0
N4149 N 0.06773 0.50304 0.62116 0.0
H4150 H 0.12575 0.49542 0.66278 0.0
H4151 H 0.11292 0.48887 0.63413 0.0
H4152 H 0.05259 0.50477 0.60934 0.0
H4153 H 0.07621 0.48541 0.62126 0.0
H4154 H 0.06048 0.57899 0.70418 0.0
H4155 H 0.08404 0.5599 0.71651 0.0
H4156 H 0.05274 0.59667 0.67003 0.0
H4157 H 0.03847 0.58839 0.64258 0.0
C4158 C 0.26407 0.35478 0.37514 0.0
C4159 C 0.26907 0.3399 0.3967 0.0
C4160 C 0.26383 0.30255 0.37135 0.0
C4161 C 0.26179 0.31722 0.34891 0.0
N4162 N 0.24898 0.35733 0.33279 0.0
N4163 N 0.27778 0.2994 0.41406 0.0
C4164 C 0.25907 0.34345 0.3517 0.0
C4165 C 0.2701 0.31376 0.39436 0.0
N4166 N 0.26454 0.37995 0.37694 0.0
N4167 N 0.25718 0.27832 0.37164 0.0
H4168 H 0.28208 0.30673 0.43123 0.0
H4169 H 0.28221 0.28057 0.4126 0.0
H4170 H 0.24762 0.27048 0.35729 0.0
H4171 H 0.25678 0.26722 0.38772 0.0
H4172 H 0.26441 0.392 0.36158 0.0
H4173 H 0.26692 0.38884 0.39378 0.0
H4174 H 0.24461 0.37617 0.33393 0.0
H4175 H 0.24141 0.34942 0.31724 0.0
C4176 C 0.41889 0.48756 0.50428 0.0
C4177 C 0.40302 0.48616 0.52622 0.0
C4178 C 0.43314 0.51199 0.5478 0.0
C4179 C 0.45044 0.51099 0.52678 0.0
N4180 N 0.46089 0.49352 0.48621 0.0
N4181 N 0.39628 0.49517 0.56985 0.0
C4182 C 0.44348 0.49785 0.50523 0.0
C4183 C 0.41056 0.49784 0.54826 0.0
N4184 N 0.41045 0.47906 0.48229 0.0
N4185 N 0.43768 0.5274 0.56698 0.0
H4186 H 0.37924 0.48596 0.57068 0.0
H4187 H 0.40212 0.50054 0.58724 0.0
H4188 H 0.45335 0.53863 0.56694 0.0
H4189 H 0.42477 0.531 0.58169 0.0
H4190 H 0.41957 0.48233 0.46503 0.0
H4191 H 0.3932 0.47048 0.48098 0.0
H4192 H 0.45799 0.48163 0.47156 0.0
H4193 H 0.47935 0.49944 0.48627 0.0
C4194 C 0.92968 0.06358 0.47487 0.0
C4195 C 0.91929 0.0842 0.488 0.0
C4196 C 0.95502 0.08392 0.51539 0.0
C4197 C 0.96605 0.06391 0.50161 0.0
N4198 N 0.96636 0.03677 0.46629 0.0
N4199 N 0.92297 0.11646 0.51833 0.0
C4200 C 0.95409 0.05429 0.48075 0.0
C4201 C 0.93237 0.09524 0.50736 0.0
N4202 N 0.91591 0.05262 0.45726 0.0
N4203 N 0.96513 0.09098 0.53723 0.0
H4204 H 0.90524 0.12429 0.5149 0.0
H4205 H 0.93343 0.12732 0.52976 0.0
H4206 H 0.98155 0.08312 0.5443 0.0
H4207 H 0.95605 0.10308 0.54979 0.0
H4208 H 0.92108 0.03585 0.449 0.0
H4209 H 0.89838 0.05968 0.45185 0.0
H4210 H 0.95985 0.03082 0.44938 0.0
H4211 H 0.98416 0.02932 0.47025 0.0
C4212 C 0.7334 0.1405 0.31001 0.0
C4213 C 0.72198 0.12733 0.291 0.0
C4214 C 0.73837 0.1562 0.2593 0.0
C4215 C 0.75181 0.16785 0.27792 0.0
N4216 N 0.76584 0.16898 0.32003 0.0
N4217 N 0.71771 0.1193 0.24711 0.0
C4218 C 0.75036 0.1594 0.30307 0.0
C4219 C 0.72568 0.13417 0.26547 0.0
N4220 N 0.72753 0.13536 0.33459 0.0
N4221 N 0.73672 0.16688 0.2361 0.0
H4222 H 0.70844 0.10282 0.25083 0.0
H4223 H 0.72235 0.12215 0.22822 0.0
H4224 H 0.74496 0.18364 0.23126 0.0
H4225 H 0.72509 0.16045 0.22252 0.0
H4226 H 0.73328 0.14608 0.3492 0.0
H4227 H 0.71516 0.12154 0.34031 0.0
H4228 H 0.76737 0.16204 0.33819 0.0
H4229 H 0.77891 0.18246 0.31521 0.0
C4230 C 0.62751 0.96856 0.03492 0.0
C4231 C 0.64938 0.98267 0.02961 0.0
C4232 C 0.62166 0.01945 0.02177 0.0
C4233 C 0.60002 0.00574 0.02893 0.0
N4234 N 0.58288 0.96849 0.04704 0.0
N4235 N 0.66732 0.02266 0.02216 0.0
C4236 C 0.60315 0.98065 0.03691 0.0
C4237 C 0.64643 0.00845 0.02416 0.0
N4238 N 0.62988 0.94339 0.03712 0.0
N4239 N 0.61853 0.04291 0.01226 0.0
H4240 H 0.68561 0.01536 0.0239 0.0
H4241 H 0.66649 0.0419 0.02092 0.0
H4242 H 0.60083 0.05164 0.01077 0.0
H4243 H 0.63321 0.05304 0.0042 0.0
H4244 H 0.61452 0.9318 0.03816 0.0
H4245 H 0.64723 0.93383 0.03564 0.0
H4246 H 0.58428 0.95105 0.05551 0.0
H4247 H 0.56493 0.97678 0.04902 0.0
C4248 C 0.32936 0.41926 0.20804 0.0
C4249 C 0.34858 0.42291 0.22509 0.0
C4250 C 0.33765 0.38569 0.2485 0.0
C4251 C 0.3178 0.38226 0.23196 0.0
N4252 N 0.29848 0.39133 0.19297 0.0
N4253 N 0.37675 0.40606 0.25554 0.0
C4254 C 0.31509 0.39754 0.21051 0.0
C4255 C 0.35488 0.40459 0.24303 0.0
N4256 N 0.3239 0.43718 0.19062 0.0
N4257 N 0.33862 0.37271 0.27059 0.0
H4258 H 0.38948 0.42016 0.25192 0.0
H4259 H 0.38338 0.39207 0.26743 0.0
H4260 H 0.3254 0.3598 0.2764 0.0
H4261 H 0.3512 0.37649 0.28441 0.0
H4262 H 0.30823 0.43696 0.1795 0.0
H4263 H 0.33474 0.45288 0.188 0.0
H4264 H 0.29676 0.40069 0.17594 0.0
H4265 H 0.28788 0.37539 0.19476 0.0
C4266 C 0.18589 0.56234 0.01599 0.0
C4267 C 0.18248 0.58845 0.01657 0.0
C4268 C 0.13917 0.58465 0.03247 0.0
C4269 C 0.14201 0.5587 0.03026 0.0
N4270 N 0.16576 0.52262 0.01668 0.0
N4271 N 0.15517 0.62476 0.02059 0.0
C4272 C 0.16475 0.54744 0.02105 0.0
C4273 C 0.15884 0.59973 0.02333 0.0
N4274 N 0.2094 0.5519 0.01152 0.0
N4275 N 0.11803 0.59469 0.0442 0.0
H4276 H 0.16931 0.6364 0.01382 0.0
H4277 H 0.1376 0.63371 0.02289 0.0
H4278 H 0.10348 0.58396 0.05168 0.0
H4279 H 0.1159 0.61335 0.04856 0.0
H4280 H 0.21346 0.53303 0.01351 0.0
H4281 H 0.22533 0.56229 0.0074 0.0
H4282 H 0.181 0.51357 0.0076 0.0
H4283 H 0.15041 0.51134 0.02056 0.0
C4284 C 0.73075 0.88873 0.29088 0.0
C4285 C 0.74012 0.90104 0.31161 0.0
C4286 C 0.76527 0.86425 0.3229 0.0
C4287 C 0.75761 0.85288 0.30084 0.0
N4288 N 0.73801 0.85654 0.26079 0.0
N4289 N 0.76838 0.90245 0.34565 0.0
C4290 C 0.74176 0.86574 0.28395 0.0
C4291 C 0.75808 0.8894 0.32714 0.0
N4292 N 0.71078 0.8986 0.27821 0.0
N4293 N 0.77833 0.85075 0.34023 0.0
H4294 H 0.76301 0.92078 0.34942 0.0
H4295 H 0.78345 0.89579 0.35599 0.0
H4296 H 0.7836 0.83218 0.33788 0.0
H4297 H 0.78219 0.85733 0.3578 0.0
H4298 H 0.70135 0.88885 0.26497 0.0
H4299 H 0.70199 0.91562 0.28237 0.0
H4300 H 0.72903 0.86663 0.24677 0.0
H4301 H 0.74612 0.83993 0.25453 0.0
C4302 C 0.78383 0.16532 0.76264 0.0
C4303 C 0.80904 0.1571 0.76601 0.0
C4304 C 0.82078 0.19834 0.77832 0.0
C4305 C 0.79597 0.2071 0.77329 0.0
N4306 N 0.75431 0.20003 0.75838 0.0
N4307 N 0.85261 0.16572 0.77331 0.0
C4308 C 0.77759 0.19092 0.76473 0.0
C4309 C 0.8278 0.17355 0.77296 0.0
N4310 N 0.76586 0.14852 0.75806 0.0
N4311 N 0.83778 0.21373 0.788 0.0
H4312 H 0.85871 0.14752 0.77008 0.0
H4313 H 0.86757 0.17755 0.77492 0.0
H4314 H 0.83446 0.23263 0.78986 0.0
H4315 H 0.85473 0.20761 0.79549 0.0
H4316 H 0.74659 0.15281 0.75807 0.0
H4317 H 0.77006 0.12968 0.75591 0.0
H4318 H 0.74132 0.18984 0.74908 0.0
H4319 H 0.74824 0.21831 0.76118 0.0
loop_
_geom_bond_atom_site_label_1
_geom_bond_atom_site_label_2
_geom_bond_distance
_geom_bond_site_symmetry_2
_ccdc_geom_bond_type
Li0 N17 1.990 . S
Li0 O60 1.956 . S
Li0 O61 1.970 . S
Li0 O62 1.969 . S
Li1 N25 1.990 . S
Li1 O60 1.970 . S
Li1 O61 1.956 . S
Li1 O63 1.961 . S
Li2 N47 1.990 . S
Li2 O60 1.961 . S
Li2 O62 1.963 . S
Li2 O63 1.970 . S
Li3 N53 1.990 1_455 S
Li3 O61 1.961 . S
Li3 O62 1.971 . S
Li3 O63 1.956 . S
C4 C6 1.348 . S
C4 C7 1.356 . S
C4 O60 1.325 . S
N5 C8 1.314 . S
N5 C9 1.279 . S
C6 C4 1.348 . S
C6 C8 1.353 . S
C6 H64 0.929 . S
C7 C4 1.356 . S
C7 C9 1.358 . S
C7 H65 0.930 . S
C8 N5 1.314 . S
C8 C6 1.353 . S
C8 H66 0.930 . S
C9 N5 1.279 . S
C9 C7 1.358 . S
C9 H67 0.930 . S
C10 C13 1.348 . S
C10 C14 1.356 . S
C10 O61 1.325 . S
C11 N12 1.279 . S
C11 C14 1.358 . S
C11 H68 0.930 . S
N12 C11 1.279 . S
N12 C15 1.314 . S
C13 C10 1.348 . S
C13 C15 1.353 . S
C13 H69 0.929 . S
C14 C10 1.356 . S
C14 C11 1.358 . S
C14 H70 0.930 . S
C15 N12 1.314 . S
C15 C13 1.353 . S
C15 H71 0.930 . S
C16 N17 1.314 . S
C16 C21 1.353 . S
C16 H22 0.930 1_455 S
N17 Li0 1.990 . S
N17 C16 1.314 . S
N17 C19 1.279 . S
C18 C19 1.358 . S
C18 C20 1.356 . S
C18 H72 0.930 . S
C19 N17 1.279 . S
C19 C18 1.358 . S
C19 H23 0.930 . S
C20 C18 1.356 . S
C20 C21 1.348 . S
C21 C16 1.353 . S
C21 C20 1.348 . S
C21 H73 0.929 1_455 S
H22 C16 0.930 1_655 S
H23 C19 0.930 . S
C24 N25 1.314 . S
C24 C26 1.353 . S
C24 H30 0.930 . S
N25 Li1 1.990 . S
N25 C24 1.314 . S
N25 C28 1.279 . S
C26 C24 1.353 . S
C26 C29 1.348 . S
C26 H74 0.929 . S
C27 C28 1.358 . S
C27 C29 1.356 . S
C27 H75 0.930 . S
C28 N25 1.279 . S
C28 C27 1.358 . S
C28 H31 0.930 . S
C29 C26 1.348 . S
C29 C27 1.356 . S
H30 C24 0.930 . S
H31 C28 0.930 . S
C32 C34 1.348 . S
C32 C35 1.356 . S
C32 O62 1.317 1_655 S
N33 C36 1.314 . S
N33 C37 1.279 . S
C34 C32 1.348 . S
C34 C36 1.353 . S
C34 H76 0.929 . S
C35 C32 1.356 . S
C35 C37 1.358 . S
C35 H77 0.930 . S
C36 N33 1.314 . S
C36 C34 1.353 . S
C36 H78 0.930 . S
C37 N33 1.279 . S
C37 C35 1.358 . S
C37 H79 0.930 . S
C38 C39 1.348 . S
C38 C40 1.356 . S
C38 O63 1.325 . S
C39 C38 1.348 . S
C39 C41 1.353 . S
C39 H80 0.929 . S
C40 C38 1.356 . S
C40 C42 1.358 . S
C40 H81 0.930 . S
C41 C39 1.353 . S
C41 N43 1.314 . S
C41 H82 0.930 . S
C42 C40 1.358 . S
C42 N43 1.279 . S
C42 H83 0.930 . S
N43 C41 1.314 . S
N43 C42 1.279 . S
C44 C46 1.353 . S
C44 N47 1.314 . S
C44 H50 0.930 . S
C45 N47 1.279 . S
C45 C48 1.358 . S
C45 H51 0.930 1_455 S
C46 C44 1.353 . S
C46 C49 1.348 . S
C46 H84 0.929 . S
N47 Li2 1.990 . S
N47 C44 1.314 . S
N47 C45 1.279 . S
C48 C45 1.358 . S
C48 C49 1.356 . S
C48 H85 0.930 1_455 S
C49 C46 1.348 . S
C49 C48 1.356 . S
H50 C44 0.930 . S
H51 C45 0.930 1_655 S
C52 N53 1.314 . S
C52 C54 1.353 . S
C52 H58 0.930 . S
N53 Li3 1.990 1_655 S
N53 C52 1.314 . S
N53 C56 1.279 . S
C54 C52 1.353 . S
C54 C57 1.348 . S
C54 H86 0.929 . S
C55 C56 1.358 . S
C55 C57 1.356 . S
C55 H87 0.930 . S
C56 N53 1.279 . S
C56 C55 1.358 . S
C56 H59 0.930 . S
C57 C54 1.348 . S
C57 C55 1.356 . S
H58 C52 0.930 . S
H59 C56 0.930 . S
O60 Li0 1.956 . S
O60 Li1 1.970 . S
O60 Li2 1.961 . S
O60 C4 1.325 . S
O61 Li0 1.970 . S
O61 Li1 1.956 . S
O61 Li3 1.961 . S
O61 C10 1.325 . S
O62 Li0 1.969 . S
O62 Li2 1.963 . S
O62 Li3 1.971 . S
O62 C32 1.317 1_455 S
O63 Li1 1.961 . S
O63 Li2 1.970 . S
O63 Li3 1.956 . S
O63 C38 1.325 . S
H64 C6 0.929 . S
H65 C7 0.930 . S
H66 C8 0.930 . S
H67 C9 0.930 . S
H68 C11 0.930 . S
H69 C13 0.929 . S
H70 C14 0.930 . S
H71 C15 0.930 . S
H72 C18 0.930 . S
H73 C21 0.929 1_655 S
H74 C26 0.929 . S
H75 C27 0.930 . S
H76 C34 0.929 . S
H77 C35 0.930 . S
H78 C36 0.930 . S
H79 C37 0.930 . S
H80 C39 0.929 . S
H81 C40 0.930 . S
H82 C41 0.930 . S
H83 C42 0.930 . S
H84 C46 0.929 . S
H85 C48 0.930 1_655 S
H86 C54 0.929 . S
H87 C55 0.930 . S
Li88 N105 1.990 1_455 S
Li88 O148 1.956 . S
Li88 O149 1.970 . S
Li88 O150 1.961 . S
Li89 N113 1.990 . S
Li89 O148 1.970 . S
Li89 O149 1.956 . S
Li89 O151 1.961 . S
Li90 N135 1.990 . S
Li90 O148 1.961 . S
Li90 O150 1.956 . S
Li90 O151 1.970 . S
Li91 N141 1.990 . S
Li91 O149 1.961 . S
Li91 O150 1.970 . S
Li91 O151 1.956 . S
C92 C94 1.348 . S
C92 C95 1.356 . S
C92 O148 1.325 . S
N93 C96 1.314 . S
N93 C97 1.279 . S
C94 C92 1.348 . S
C94 C96 1.353 . S
C94 H152 0.929 . S
C95 C92 1.356 . S
C95 C97 1.358 . S
C95 H153 0.930 . S
C96 N93 1.314 . S
C96 C94 1.353 . S
C96 H154 0.930 . S
C97 N93 1.279 . S
C97 C95 1.358 . S
C97 H155 0.930 . S
C98 C101 1.348 1_455 S
C98 C102 1.356 . S
C98 O149 1.325 . S
C99 N100 1.279 . S
C99 C102 1.358 1_655 S
C99 H156 0.930 . S
N100 C99 1.279 . S
N100 C103 1.314 . S
C101 C98 1.348 1_655 S
C101 C103 1.353 . S
C101 H157 0.929 . S
C102 C98 1.356 . S
C102 C99 1.358 1_455 S
C102 H158 0.930 . S
C103 N100 1.314 . S
C103 C101 1.353 . S
C103 H159 0.930 . S
C104 N105 1.314 . S
C104 C109 1.353 . S
C104 H110 0.930 . S
N105 Li88 1.990 1_655 S
N105 C104 1.314 . S
N105 C107 1.279 . S
C106 C107 1.358 . S
C106 C108 1.356 . S
C106 H160 0.930 . S
C107 N105 1.279 . S
C107 C106 1.358 . S
C107 H111 0.930 . S
C108 C106 1.356 . S
C108 C109 1.348 . S
C109 C104 1.353 . S
C109 C108 1.348 . S
C109 H161 0.929 . S
H110 C104 0.930 . S
H111 C107 0.930 . S
C112 N113 1.314 . S
C112 C114 1.353 . S
C112 H118 0.930 . S
N113 Li89 1.990 . S
N113 C112 1.314 . S
N113 C116 1.279 . S
C114 C112 1.353 . S
C114 C117 1.348 . S
C114 H162 0.929 . S
C115 C116 1.358 . S
C115 C117 1.356 . S
C115 H163 0.930 . S
C116 N113 1.279 . S
C116 C115 1.358 . S
C116 H119 0.930 . S
C117 C114 1.348 . S
C117 C115 1.356 . S
H118 C112 0.930 . S
H119 C116 0.930 . S
C120 C122 1.348 . S
C120 C123 1.356 . S
C120 O150 1.325 . S
N121 C124 1.314 . S
N121 C125 1.279 . S
C122 C120 1.348 . S
C122 C124 1.353 . S
C122 H164 0.929 . S
C123 C120 1.356 . S
C123 C125 1.358 . S
C123 H165 0.930 . S
C124 N121 1.314 . S
C124 C122 1.353 . S
C124 H166 0.930 . S
C125 N121 1.279 . S
C125 C123 1.358 . S
C125 H167 0.930 . S
C126 C127 1.348 . S
C126 C128 1.356 . S
C126 O151 1.325 . S
C127 C126 1.348 . S
C127 C129 1.353 . S
C127 H168 0.929 . S
C128 C126 1.356 . S
C128 C130 1.358 . S
C128 H169 0.930 . S
C129 C127 1.353 . S
C129 N131 1.314 . S
C129 H170 0.930 . S
C130 C128 1.358 . S
C130 N131 1.279 . S
C130 H171 0.930 . S
N131 C129 1.314 . S
N131 C130 1.279 . S
C132 C134 1.353 . S
C132 N135 1.314 . S
C132 H138 0.930 . S
C133 N135 1.279 . S
C133 C136 1.358 . S
C133 H139 0.930 . S
C134 C132 1.353 . S
C134 C137 1.348 . S
C134 H172 0.929 . S
N135 Li90 1.990 . S
N135 C132 1.314 . S
N135 C133 1.279 . S
C136 C133 1.358 . S
C136 C137 1.356 . S
C136 H173 0.930 . S
C137 C134 1.348 . S
C137 C136 1.356 . S
H138 C132 0.930 . S
H139 C133 0.930 . S
C140 N141 1.314 . S
C140 C142 1.353 . S
C140 H146 0.930 . S
N141 Li91 1.990 . S
N141 C140 1.314 . S
N141 C144 1.279 . S
C142 C140 1.353 . S
C142 C145 1.348 . S
C142 H174 0.929 . S
C143 C144 1.358 . S
C143 C145 1.356 . S
C143 H175 0.930 . S
C144 N141 1.279 . S
C144 C143 1.358 . S
C144 H147 0.930 . S
C145 C142 1.348 . S
C145 C143 1.356 . S
H146 C140 0.930 . S
H147 C144 0.930 . S
O148 Li88 1.956 . S
O148 Li89 1.970 . S
O148 Li90 1.961 . S
O148 C92 1.325 . S
O149 Li88 1.970 . S
O149 Li89 1.956 . S
O149 Li91 1.961 . S
O149 C98 1.325 . S
O150 Li88 1.961 . S
O150 Li90 1.956 . S
O150 Li91 1.970 . S
O150 C120 1.325 . S
O151 Li89 1.961 . S
O151 Li90 1.970 . S
O151 Li91 1.956 . S
O151 C126 1.325 . S
H152 C94 0.929 . S
H153 C95 0.930 . S
H154 C96 0.930 . S
H155 C97 0.930 . S
H156 C99 0.930 . S
H157 C101 0.929 . S
H158 C102 0.930 . S
H159 C103 0.930 . S
H160 C106 0.930 . S
H161 C109 0.929 . S
H162 C114 0.929 . S
H163 C115 0.930 . S
H164 C122 0.929 . S
H165 C123 0.930 . S
H166 C124 0.930 . S
H167 C125 0.930 . S
H168 C127 0.929 . S
H169 C128 0.930 . S
H170 C129 0.930 . S
H171 C130 0.930 . S
H172 C134 0.929 . S
H173 C136 0.930 . S
H174 C142 0.929 . S
H175 C143 0.930 . S
Li176 N193 1.990 . S
Li176 O236 1.956 . S
Li176 O237 1.970 . S
Li176 O238 1.961 . S
Li177 N201 1.990 . S
Li177 O236 1.970 . S
Li177 O237 1.956 . S
Li177 O239 1.961 . S
Li178 N223 1.990 . S
Li178 O236 1.961 . S
Li178 O238 1.956 . S
Li178 O239 1.970 . S
Li179 N229 1.990 . S
Li179 O237 1.961 . S
Li179 O238 1.970 . S
Li179 O239 1.956 . S
C180 C182 1.348 . S
C180 C183 1.356 . S
C180 O236 1.325 . S
N181 C184 1.314 . S
N181 C185 1.279 . S
C182 C180 1.348 . S
C182 C184 1.353 . S
C182 H240 0.929 . S
C183 C180 1.356 . S
C183 C185 1.358 . S
C183 H241 0.930 . S
C184 N181 1.314 . S
C184 C182 1.353 . S
C184 H242 0.930 . S
C185 N181 1.279 . S
C185 C183 1.358 . S
C185 H243 0.930 . S
C186 C189 1.348 . S
C186 C190 1.356 . S
C186 O237 1.325 . S
C187 N188 1.279 . S
C187 C190 1.358 . S
C187 H244 0.930 . S
N188 C187 1.279 . S
N188 C191 1.314 . S
C189 C186 1.348 . S
C189 C191 1.353 . S
C189 H245 0.929 . S
C190 C186 1.356 . S
C190 C187 1.358 . S
C190 H246 0.930 . S
C191 N188 1.314 . S
C191 C189 1.353 . S
C191 H247 0.930 . S
C192 N193 1.314 . S
C192 C197 1.353 . S
C192 H198 0.930 . S
N193 Li176 1.990 . S
N193 C192 1.314 . S
N193 C195 1.279 . S
C194 C195 1.358 . S
C194 C196 1.356 . S
C194 H248 0.930 . S
C195 N193 1.279 . S
C195 C194 1.358 . S
C195 H199 0.930 . S
C196 C194 1.356 . S
C196 C197 1.348 . S
C197 C192 1.353 . S
C197 C196 1.348 . S
C197 H249 0.929 . S
H198 C192 0.930 . S
H199 C195 0.930 . S
C200 N201 1.314 . S
C200 C202 1.353 . S
C200 H206 0.930 . S
N201 Li177 1.990 . S
N201 C200 1.314 . S
N201 C204 1.279 . S
C202 C200 1.353 . S
C202 C205 1.348 . S
C202 H250 0.929 . S
C203 C204 1.358 . S
C203 C205 1.356 . S
C203 H251 0.930 . S
C204 N201 1.279 . S
C204 C203 1.358 . S
C204 H207 0.930 . S
C205 C202 1.348 . S
C205 C203 1.356 . S
H206 C200 0.930 . S
H207 C204 0.930 . S
C208 C210 1.348 . S
C208 C211 1.356 . S
C208 O238 1.325 . S
N209 C212 1.314 . S
N209 C213 1.279 . S
C210 C208 1.348 . S
C210 C212 1.353 . S
C210 H252 0.929 . S
C211 C208 1.356 . S
C211 C213 1.358 . S
C211 H253 0.930 . S
C212 N209 1.314 . S
C212 C210 1.353 . S
C212 H254 0.930 . S
C213 N209 1.279 . S
C213 C211 1.358 . S
C213 H255 0.930 . S
C214 C215 1.348 . S
C214 C216 1.356 . S
C214 O239 1.325 . S
C215 C214 1.348 . S
C215 C217 1.353 . S
C215 H256 0.929 . S
C216 C214 1.356 . S
C216 C218 1.358 . S
C216 H257 0.930 . S
C217 C215 1.353 . S
C217 N219 1.314 . S
C217 H258 0.930 . S
C218 C216 1.358 . S
C218 N219 1.279 . S
C218 H259 0.930 . S
N219 C217 1.314 . S
N219 C218 1.279 . S
C220 C222 1.353 . S
C220 N223 1.314 . S
C220 H226 0.930 . S
C221 N223 1.279 . S
C221 C224 1.358 . S
C221 H227 0.930 . S
C222 C220 1.353 . S
C222 C225 1.348 . S
C222 H260 0.929 . S
N223 Li178 1.990 . S
N223 C220 1.314 . S
N223 C221 1.279 . S
C224 C221 1.358 . S
C224 C225 1.356 . S
C224 H261 0.930 . S
C225 C222 1.348 . S
C225 C224 1.356 . S
H226 C220 0.930 . S
H227 C221 0.930 . S
C228 N229 1.314 . S
C228 C230 1.353 . S
C228 H234 0.930 . S
N229 Li179 1.990 . S
N229 C228 1.314 . S
N229 C232 1.279 . S
C230 C228 1.353 . S
C230 C233 1.348 . S
C230 H262 0.929 . S
C231 C232 1.358 . S
C231 C233 1.356 . S
C231 H263 0.930 . S
C232 N229 1.279 . S
C232 C231 1.358 . S
C232 H235 0.930 . S
C233 C230 1.348 . S
C233 C231 1.356 . S
H234 C228 0.930 . S
H235 C232 0.930 . S
O236 Li176 1.956 . S
O236 Li177 1.970 . S
O236 Li178 1.961 . S
O236 C180 1.325 . S
O237 Li176 1.970 . S
O237 Li177 1.956 . S
O237 Li179 1.961 . S
O237 C186 1.325 . S
O238 Li176 1.961 . S
O238 Li178 1.956 . S
O238 Li179 1.970 . S
O238 C208 1.325 . S
O239 Li177 1.961 . S
O239 Li178 1.970 . S
O239 Li179 1.956 . S
O239 C214 1.325 . S
H240 C182 0.929 . S
H241 C183 0.930 . S
H242 C184 0.930 . S
H243 C185 0.930 . S
H244 C187 0.930 . S
H245 C189 0.929 . S
H246 C190 0.930 . S
H247 C191 0.930 . S
H248 C194 0.930 . S
H249 C197 0.929 . S
H250 C202 0.929 . S
H251 C203 0.930 . S
H252 C210 0.929 . S
H253 C211 0.930 . S
H254 C212 0.930 . S
H255 C213 0.930 . S
H256 C215 0.929 . S
H257 C216 0.930 . S
H258 C217 0.930 . S
H259 C218 0.930 . S
H260 C222 0.929 . S
H261 C224 0.930 . S
H262 C230 0.929 . S
H263 C231 0.930 . S
Li264 N281 1.990 . S
Li264 O324 1.956 . S
Li264 O325 1.970 . S
Li264 O326 1.961 . S
Li265 N289 1.990 . S
Li265 O324 1.970 . S
Li265 O325 1.956 . S
Li265 O327 1.961 . S
Li266 N311 1.990 . S
Li266 O324 1.961 . S
Li266 O326 1.956 . S
Li266 O327 1.970 . S
Li267 N317 1.990 . S
Li267 O325 1.961 . S
Li267 O326 1.970 . S
Li267 O327 1.956 . S
C268 C270 1.348 . S
C268 C271 1.356 . S
C268 O324 1.325 . S
N269 C272 1.314 . S
N269 C273 1.279 . S
C270 C268 1.348 . S
C270 C272 1.353 . S
C270 H328 0.929 . S
C271 C268 1.356 . S
C271 C273 1.358 . S
C271 H329 0.930 . S
C272 N269 1.314 . S
C272 C270 1.353 . S
C272 H330 0.930 . S
C273 N269 1.279 . S
C273 C271 1.358 . S
C273 H331 0.930 . S
C274 C277 1.348 . S
C274 C278 1.356 . S
C274 O325 1.325 . S
C275 N276 1.279 . S
C275 C278 1.358 . S
C275 H332 0.930 . S
N276 C275 1.279 . S
N276 C279 1.314 . S
C277 C274 1.348 . S
C277 C279 1.353 . S
C277 H333 0.929 . S
C278 C274 1.356 . S
C278 C275 1.358 . S
C278 H334 0.930 . S
C279 N276 1.314 . S
C279 C277 1.353 . S
C279 H335 0.930 . S
C280 N281 1.314 . S
C280 C285 1.353 . S
C280 H286 0.930 . S
N281 Li264 1.990 . S
N281 C280 1.314 . S
N281 C283 1.279 . S
C282 C283 1.358 . S
C282 C284 1.356 . S
C282 H336 0.930 . S
C283 N281 1.279 . S
C283 C282 1.358 . S
C283 H287 0.930 . S
C284 C282 1.356 . S
C284 C285 1.348 . S
C285 C280 1.353 . S
C285 C284 1.348 . S
C285 H337 0.929 . S
H286 C280 0.930 . S
H287 C283 0.930 . S
C288 N289 1.314 . S
C288 C290 1.353 . S
C288 H294 0.930 . S
N289 Li265 1.990 . S
N289 C288 1.314 . S
N289 C292 1.279 . S
C290 C288 1.353 . S
C290 C293 1.348 . S
C290 H338 0.929 . S
C291 C292 1.358 . S
C291 C293 1.356 . S
C291 H339 0.930 . S
C292 N289 1.279 . S
C292 C291 1.358 . S
C292 H295 0.930 . S
C293 C290 1.348 . S
C293 C291 1.356 . S
H294 C288 0.930 . S
H295 C292 0.930 . S
C296 C298 1.348 . S
C296 C299 1.356 . S
C296 O326 1.325 . S
N297 C300 1.314 . S
N297 C301 1.279 . S
C298 C296 1.348 . S
C298 C300 1.353 . S
C298 H340 0.929 . S
C299 C296 1.356 . S
C299 C301 1.358 . S
C299 H341 0.930 . S
C300 N297 1.314 . S
C300 C298 1.353 . S
C300 H342 0.930 . S
C301 N297 1.279 . S
C301 C299 1.358 . S
C301 H343 0.930 . S
C302 C303 1.348 . S
C302 C304 1.356 . S
C302 O327 1.325 . S
C303 C302 1.348 . S
C303 C305 1.353 . S
C303 H344 0.929 . S
C304 C302 1.356 . S
C304 C306 1.358 . S
C304 H345 0.930 . S
C305 C303 1.353 . S
C305 N307 1.314 . S
C305 H346 0.930 . S
C306 C304 1.358 . S
C306 N307 1.279 . S
C306 H347 0.930 . S
N307 C305 1.314 . S
N307 C306 1.279 . S
C308 C310 1.353 . S
C308 N311 1.314 . S
C308 H314 0.930 . S
C309 N311 1.279 . S
C309 C312 1.358 . S
C309 H315 0.930 . S
C310 C308 1.353 . S
C310 C313 1.348 . S
C310 H348 0.929 . S
N311 Li266 1.990 . S
N311 C308 1.314 . S
N311 C309 1.279 . S
C312 C309 1.358 . S
C312 C313 1.356 . S
C312 H349 0.930 . S
C313 C310 1.348 . S
C313 C312 1.356 . S
H314 C308 0.930 . S
H315 C309 0.930 . S
C316 N317 1.314 . S
C316 C318 1.353 . S
C316 H322 0.930 . S
N317 Li267 1.990 . S
N317 C316 1.314 . S
N317 C320 1.279 . S
C318 C316 1.353 . S
C318 C321 1.348 . S
C318 H350 0.929 . S
C319 C320 1.358 . S
C319 C321 1.356 . S
C319 H351 0.930 . S
C320 N317 1.279 . S
C320 C319 1.358 . S
C320 H323 0.930 . S
C321 C318 1.348 . S
C321 C319 1.356 . S
H322 C316 0.930 . S
H323 C320 0.930 . S
O324 Li264 1.956 . S
O324 Li265 1.970 . S
O324 Li266 1.961 . S
O324 C268 1.325 . S
O325 Li264 1.970 . S
O325 Li265 1.956 . S
O325 Li267 1.961 . S
O325 C274 1.325 . S
O326 Li264 1.961 . S
O326 Li266 1.956 . S
O326 Li267 1.970 . S
O326 C296 1.325 . S
O327 Li265 1.961 . S
O327 Li266 1.970 . S
O327 Li267 1.956 . S
O327 C302 1.325 . S
H328 C270 0.929 . S
H329 C271 0.930 . S
H330 C272 0.930 . S
H331 C273 0.930 . S
H332 C275 0.930 . S
H333 C277 0.929 . S
H334 C278 0.930 . S
H335 C279 0.930 . S
H336 C282 0.930 . S
H337 C285 0.929 . S
H338 C290 0.929 . S
H339 C291 0.930 . S
H340 C298 0.929 . S
H341 C299 0.930 . S
H342 C300 0.930 . S
H343 C301 0.930 . S
H344 C303 0.929 . S
H345 C304 0.930 . S
H346 C305 0.930 . S
H347 C306 0.930 . S
H348 C310 0.929 . S
H349 C312 0.930 . S
H350 C318 0.929 . S
H351 C319 0.930 . S
Li352 N369 1.990 . S
Li352 O412 1.956 . S
Li352 O413 1.970 . S
Li352 O414 1.961 1_545 S
Li353 N377 1.990 . S
Li353 O412 1.970 . S
Li353 O413 1.956 . S
Li353 O415 1.961 . S
Li354 N399 1.990 . S
Li354 O412 1.961 . S
Li354 O414 1.956 1_545 S
Li354 O415 1.970 . S
Li355 N405 1.990 . S
Li355 O413 1.961 1_565 S
Li355 O414 1.970 . S
Li355 O415 1.956 1_565 S
C356 C358 1.348 . S
C356 C359 1.356 . S
C356 O412 1.325 . S
N357 C360 1.314 . S
N357 C361 1.279 . S
C358 C356 1.348 . S
C358 C360 1.353 . S
C358 H416 0.929 . S
C359 C356 1.356 . S
C359 C361 1.358 . S
C359 H417 0.930 . S
C360 N357 1.314 . S
C360 C358 1.353 . S
C360 H418 0.930 . S
C361 N357 1.279 . S
C361 C359 1.358 . S
C361 H419 0.930 . S
C362 C365 1.348 . S
C362 C366 1.356 . S
C362 O413 1.325 . S
C363 N364 1.279 . S
C363 C366 1.358 . S
C363 H420 0.930 1_545 S
N364 C363 1.279 . S
N364 C367 1.314 . S
C365 C362 1.348 . S
C365 C367 1.353 . S
C365 H421 0.929 . S
C366 C362 1.356 . S
C366 C363 1.358 . S
C366 H422 0.930 1_545 S
C367 N364 1.314 . S
C367 C365 1.353 . S
C367 H423 0.930 . S
C368 N369 1.314 1_565 S
C368 C373 1.353 . S
C368 H374 0.930 . S
N369 Li352 1.990 . S
N369 C368 1.314 1_545 S
N369 C371 1.279 . S
C370 C371 1.358 . S
C370 C372 1.356 . S
C370 H424 0.930 . S
C371 N369 1.279 . S
C371 C370 1.358 . S
C371 H375 0.930 . S
C372 C370 1.356 . S
C372 C373 1.348 1_545 S
C373 C368 1.353 . S
C373 C372 1.348 1_565 S
C373 H425 0.929 . S
H374 C368 0.930 . S
H375 C371 0.930 . S
C376 N377 1.314 . S
C376 C378 1.353 . S
C376 H382 0.930 . S
N377 Li353 1.990 . S
N377 C376 1.314 . S
N377 C380 1.279 . S
C378 C376 1.353 . S
C378 C381 1.348 . S
C378 H426 0.929 . S
C379 C380 1.358 . S
C379 C381 1.356 . S
C379 H427 0.930 . S
C380 N377 1.279 . S
C380 C379 1.358 . S
C380 H383 0.930 . S
C381 C378 1.348 . S
C381 C379 1.356 . S
H382 C376 0.930 . S
H383 C380 0.930 . S
C384 C386 1.348 . S
C384 C387 1.356 . S
C384 O414 1.325 . S
N385 C388 1.314 . S
N385 C389 1.279 . S
C386 C384 1.348 . S
C386 C388 1.353 . S
C386 H428 0.929 . S
C387 C384 1.356 . S
C387 C389 1.358 . S
C387 H429 0.930 . S
C388 N385 1.314 . S
C388 C386 1.353 . S
C388 H430 0.930 . S
C389 N385 1.279 . S
C389 C387 1.358 . S
C389 H431 0.930 . S
C390 C391 1.356 . S
C390 C392 1.356 . S
C390 O415 1.325 . S
C391 C390 1.356 . S
C391 C393 1.353 . S
C391 H432 0.922 1_545 S
C392 C390 1.356 . S
C392 C394 1.358 . S
C392 H433 0.930 . S
C393 C391 1.353 . S
C393 N395 1.318 . S
C393 H434 0.925 1_545 S
C394 C392 1.358 . S
C394 N395 1.279 . S
C394 H435 0.930 . S
N395 C393 1.318 . S
N395 C394 1.279 . S
C396 C398 1.353 . S
C396 N399 1.314 . S
C396 H402 0.930 . S
C397 N399 1.279 1_565 S
C397 C400 1.358 . S
C397 H403 0.930 . S
C398 C396 1.353 . S
C398 C401 1.348 . S
C398 H436 0.929 . S
N399 Li354 1.990 . S
N399 C396 1.314 . S
N399 C397 1.279 1_545 S
C400 C397 1.358 . S
C400 C401 1.356 1_565 S
C400 H437 0.930 . S
C401 C398 1.348 . S
C401 C400 1.356 1_545 S
H402 C396 0.930 . S
H403 C397 0.930 . S
C404 N405 1.314 . S
C404 C406 1.353 . S
C404 H410 0.930 . S
N405 Li355 1.990 . S
N405 C404 1.314 . S
N405 C408 1.279 . S
C406 C404 1.353 . S
C406 C409 1.348 . S
C406 H438 0.929 . S
C407 C408 1.358 . S
C407 C409 1.356 . S
C407 H439 0.930 . S
C408 N405 1.279 . S
C408 C407 1.358 . S
C408 H411 0.930 . S
C409 C406 1.348 . S
C409 C407 1.356 . S
H410 C404 0.930 . S
H411 C408 0.930 . S
O412 Li352 1.956 . S
O412 Li353 1.970 . S
O412 Li354 1.961 . S
O412 C356 1.325 . S
O413 Li352 1.970 . S
O413 Li353 1.956 . S
O413 Li355 1.961 1_545 S
O413 C362 1.325 . S
O414 Li352 1.961 1_565 S
O414 Li354 1.956 1_565 S
O414 Li355 1.970 . S
O414 C384 1.325 . S
O415 Li353 1.961 . S
O415 Li354 1.970 . S
O415 Li355 1.956 1_545 S
O415 C390 1.325 . S
H416 C358 0.929 . S
H417 C359 0.930 . S
H418 C360 0.930 . S
H419 C361 0.930 . S
H420 C363 0.930 1_565 S
H421 C365 0.929 . S
H422 C366 0.930 1_565 S
H423 C367 0.930 . S
H424 C370 0.930 . S
H425 C373 0.929 . S
H426 C378 0.929 . S
H427 C379 0.930 . S
H428 C386 0.929 . S
H429 C387 0.930 . S
H430 C388 0.930 . S
H431 C389 0.930 . S
H432 C391 0.922 1_565 S
H433 C392 0.930 . S
H434 C393 0.925 1_565 S
H435 C394 0.930 . S
H436 C398 0.929 . S
H437 C400 0.930 . S
H438 C406 0.929 . S
H439 C407 0.930 . S
Li440 N457 1.990 . S
Li440 O500 1.956 . S
Li440 O501 1.970 . S
Li440 O502 1.961 . S
Li441 N465 1.990 . S
Li441 O500 1.970 . S
Li441 O501 1.956 . S
Li441 O503 1.961 . S
Li442 N487 1.990 . S
Li442 O500 1.961 . S
Li442 O502 1.956 . S
Li442 O503 1.970 . S
Li443 N493 1.990 . S
Li443 O501 1.961 . S
Li443 O502 1.970 . S
Li443 O503 1.956 . S
C444 C446 1.348 . S
C444 C447 1.356 . S
C444 O500 1.325 . S
N445 C448 1.314 . S
N445 C449 1.279 . S
C446 C444 1.348 . S
C446 C448 1.353 . S
C446 H504 0.929 . S
C447 C444 1.356 . S
C447 C449 1.358 . S
C447 H505 0.930 . S
C448 N445 1.314 . S
C448 C446 1.353 . S
C448 H506 0.930 . S
C449 N445 1.279 . S
C449 C447 1.358 . S
C449 H507 0.930 . S
C450 C453 1.348 . S
C450 C454 1.356 . S
C450 O501 1.325 . S
C451 N452 1.279 . S
C451 C454 1.358 . S
C451 H508 0.930 . S
N452 C451 1.279 . S
N452 C455 1.314 . S
C453 C450 1.348 . S
C453 C455 1.353 . S
C453 H509 0.929 . S
C454 C450 1.356 . S
C454 C451 1.358 . S
C454 H510 0.930 . S
C455 N452 1.314 . S
C455 C453 1.353 . S
C455 H511 0.930 . S
C456 N457 1.314 . S
C456 C461 1.353 . S
C456 H462 0.930 . S
N457 Li440 1.990 . S
N457 C456 1.314 . S
N457 C459 1.279 . S
C458 C459 1.358 . S
C458 C460 1.356 . S
C458 H512 0.930 . S
C459 N457 1.279 . S
C459 C458 1.358 . S
C459 H463 0.930 . S
C460 C458 1.356 . S
C460 C461 1.348 . S
C461 C456 1.353 . S
C461 C460 1.348 . S
C461 H513 0.929 . S
H462 C456 0.930 . S
H463 C459 0.930 . S
C464 N465 1.314 . S
C464 C466 1.353 . S
C464 H470 0.930 . S
N465 Li441 1.990 . S
N465 C464 1.314 . S
N465 C468 1.279 . S
C466 C464 1.353 . S
C466 C469 1.348 . S
C466 H514 0.929 . S
C467 C468 1.358 . S
C467 C469 1.356 . S
C467 H515 0.930 . S
C468 N465 1.279 . S
C468 C467 1.358 . S
C468 H471 0.930 . S
C469 C466 1.348 . S
C469 C467 1.356 . S
H470 C464 0.930 . S
H471 C468 0.930 . S
C472 C474 1.348 . S
C472 C475 1.356 . S
C472 O502 1.325 . S
N473 C476 1.314 . S
N473 C477 1.279 . S
C474 C472 1.348 . S
C474 C476 1.353 . S
C474 H516 0.929 . S
C475 C472 1.356 . S
C475 C477 1.358 . S
C475 H517 0.930 . S
C476 N473 1.314 . S
C476 C474 1.353 . S
C476 H518 0.930 . S
C477 N473 1.279 . S
C477 C475 1.358 . S
C477 H519 0.930 . S
C478 C479 1.348 . S
C478 C480 1.356 . S
C478 O503 1.325 . S
C479 C478 1.348 . S
C479 C481 1.353 . S
C479 H520 0.929 . S
C480 C478 1.356 . S
C480 C482 1.358 . S
C480 H521 0.930 . S
C481 C479 1.353 . S
C481 N483 1.314 . S
C481 H522 0.930 . S
C482 C480 1.358 . S
C482 N483 1.279 . S
C482 H523 0.930 . S
N483 C481 1.314 . S
N483 C482 1.279 . S
C484 C486 1.353 . S
C484 N487 1.314 . S
C484 H490 0.930 . S
C485 N487 1.279 . S
C485 C488 1.358 . S
C485 H491 0.930 . S
C486 C484 1.353 . S
C486 C489 1.348 . S
C486 H524 0.929 . S
N487 Li442 1.990 . S
N487 C484 1.314 . S
N487 C485 1.279 . S
C488 C485 1.358 . S
C488 C489 1.356 . S
C488 H525 0.930 . S
C489 C486 1.348 . S
C489 C488 1.356 . S
H490 C484 0.930 . S
H491 C485 0.930 . S
C492 N493 1.314 . S
C492 C494 1.353 . S
C492 H498 0.930 . S
N493 Li443 1.990 . S
N493 C492 1.314 . S
N493 C496 1.279 . S
C494 C492 1.353 . S
C494 C497 1.348 . S
C494 H526 0.929 . S
C495 C496 1.358 . S
C495 C497 1.356 . S
C495 H527 0.930 . S
C496 N493 1.279 . S
C496 C495 1.358 . S
C496 H499 0.930 . S
C497 C494 1.348 . S
C497 C495 1.356 . S
H498 C492 0.930 . S
H499 C496 0.930 . S
O500 Li440 1.956 . S
O500 Li441 1.970 . S
O500 Li442 1.961 . S
O500 C444 1.325 . S
O501 Li440 1.970 . S
O501 Li441 1.956 . S
O501 Li443 1.961 . S
O501 C450 1.325 . S
O502 Li440 1.961 . S
O502 Li442 1.956 . S
O502 Li443 1.970 . S
O502 C472 1.325 . S
O503 Li441 1.961 . S
O503 Li442 1.970 . S
O503 Li443 1.956 . S
O503 C478 1.325 . S
H504 C446 0.929 . S
H505 C447 0.930 . S
H506 C448 0.930 . S
H507 C449 0.930 . S
H508 C451 0.930 . S
H509 C453 0.929 . S
H510 C454 0.930 . S
H511 C455 0.930 . S
H512 C458 0.930 . S
H513 C461 0.929 . S
H514 C466 0.929 . S
H515 C467 0.930 . S
H516 C474 0.929 . S
H517 C475 0.930 . S
H518 C476 0.930 . S
H519 C477 0.930 . S
H520 C479 0.929 . S
H521 C480 0.930 . S
H522 C481 0.930 . S
H523 C482 0.930 . S
H524 C486 0.929 . S
H525 C488 0.930 . S
H526 C494 0.929 . S
H527 C495 0.930 . S
Li528 N545 1.990 . S
Li528 O588 1.956 . S
Li528 O589 1.970 . S
Li528 O590 1.961 . S
Li529 N553 1.990 . S
Li529 O588 1.970 . S
Li529 O589 1.956 . S
Li529 O591 1.961 . S
Li530 N575 1.990 . S
Li530 O588 1.961 . S
Li530 O590 1.956 . S
Li530 O591 1.970 . S
Li531 N581 1.990 . S
Li531 O589 1.961 . S
Li531 O590 1.970 . S
Li531 O591 1.956 . S
C532 C534 1.348 . S
C532 C535 1.356 . S
C532 O588 1.325 . S
N533 C536 1.314 . S
N533 C537 1.279 . S
C534 C532 1.348 . S
C534 C536 1.353 . S
C534 H592 0.929 . S
C535 C532 1.356 . S
C535 C537 1.358 . S
C535 H593 0.930 . S
C536 N533 1.314 . S
C536 C534 1.353 . S
C536 H594 0.930 . S
C537 N533 1.279 . S
C537 C535 1.358 . S
C537 H595 0.930 . S
C538 C541 1.348 1_545 S
C538 C542 1.356 . S
C538 O589 1.325 . S
C539 N540 1.279 . S
C539 C542 1.358 1_565 S
C539 H596 0.930 . S
N540 C539 1.279 . S
N540 C543 1.314 . S
C541 C538 1.348 1_565 S
C541 C543 1.353 . S
C541 H597 0.929 . S
C542 C538 1.356 . S
C542 C539 1.358 1_545 S
C542 H598 0.930 . S
C543 N540 1.314 . S
C543 C541 1.353 . S
C543 H599 0.930 . S
C544 N545 1.314 1_565 S
C544 C549 1.353 . S
C544 H550 0.930 . S
N545 Li528 1.990 . S
N545 C544 1.314 1_545 S
N545 C547 1.279 1_545 S
C546 C547 1.358 . S
C546 C548 1.356 . S
C546 H600 0.930 . S
C547 N545 1.279 1_565 S
C547 C546 1.358 . S
C547 H551 0.930 1_565 S
C548 C546 1.356 . S
C548 C549 1.348 . S
C549 C544 1.353 . S
C549 C548 1.348 . S
C549 H601 0.929 . S
H550 C544 0.930 . S
H551 C547 0.930 1_545 S
C552 N553 1.314 . S
C552 C554 1.353 . S
C552 H558 0.930 . S
N553 Li529 1.990 . S
N553 C552 1.314 . S
N553 C556 1.279 . S
C554 C552 1.353 . S
C554 C557 1.348 . S
C554 H602 0.929 . S
C555 C556 1.358 . S
C555 C557 1.356 . S
C555 H603 0.930 . S
C556 N553 1.279 . S
C556 C555 1.358 . S
C556 H559 0.930 . S
C557 C554 1.348 . S
C557 C555 1.356 . S
H558 C552 0.930 . S
H559 C556 0.930 . S
C560 C562 1.348 . S
C560 C563 1.356 . S
C560 O590 1.325 . S
N561 C564 1.314 . S
N561 C565 1.279 . S
C562 C560 1.348 . S
C562 C564 1.353 . S
C562 H604 0.929 . S
C563 C560 1.356 . S
C563 C565 1.358 . S
C563 H605 0.930 . S
C564 N561 1.314 . S
C564 C562 1.353 . S
C564 H606 0.930 . S
C565 N561 1.279 . S
C565 C563 1.358 . S
C565 H607 0.930 . S
C566 C567 1.348 . S
C566 C568 1.356 . S
C566 O591 1.325 . S
C567 C566 1.348 . S
C567 C569 1.353 . S
C567 H608 0.929 . S
C568 C566 1.356 . S
C568 C570 1.358 . S
C568 H609 0.930 . S
C569 C567 1.353 . S
C569 N571 1.314 . S
C569 H610 0.930 . S
C570 C568 1.358 . S
C570 N571 1.279 . S
C570 H611 0.930 . S
N571 C569 1.314 . S
N571 C570 1.279 . S
C572 C574 1.353 . S
C572 N575 1.314 . S
C572 H578 0.930 . S
C573 N575 1.279 . S
C573 C576 1.358 . S
C573 H579 0.930 . S
C574 C572 1.353 . S
C574 C577 1.348 . S
C574 H612 0.929 . S
N575 Li530 1.990 . S
N575 C572 1.314 . S
N575 C573 1.279 . S
C576 C573 1.358 . S
C576 C577 1.356 . S
C576 H613 0.930 . S
C577 C574 1.348 . S
C577 C576 1.356 . S
H578 C572 0.930 . S
H579 C573 0.930 . S
C580 N581 1.314 . S
C580 C582 1.353 . S
C580 H586 0.930 . S
N581 Li531 1.990 . S
N581 C580 1.314 . S
N581 C584 1.279 . S
C582 C580 1.353 . S
C582 C585 1.348 . S
C582 H614 0.929 . S
C583 C584 1.358 . S
C583 C585 1.356 . S
C583 H615 0.930 . S
C584 N581 1.279 . S
C584 C583 1.358 . S
C584 H587 0.930 . S
C585 C582 1.348 . S
C585 C583 1.356 . S
H586 C580 0.930 . S
H587 C584 0.930 . S
O588 Li528 1.956 . S
O588 Li529 1.970 . S
O588 Li530 1.961 . S
O588 C532 1.325 . S
O589 Li528 1.970 . S
O589 Li529 1.956 . S
O589 Li531 1.961 . S
O589 C538 1.325 . S
O590 Li528 1.961 . S
O590 Li530 1.956 . S
O590 Li531 1.970 . S
O590 C560 1.325 . S
O591 Li529 1.961 . S
O591 Li530 1.970 . S
O591 Li531 1.956 . S
O591 C566 1.325 . S
H592 C534 0.929 . S
H593 C535 0.930 . S
H594 C536 0.930 . S
H595 C537 0.930 . S
H596 C539 0.930 . S
H597 C541 0.929 . S
H598 C542 0.930 . S
H599 C543 0.930 . S
H600 C546 0.930 . S
H601 C549 0.929 . S
H602 C554 0.929 . S
H603 C555 0.930 . S
H604 C562 0.929 . S
H605 C563 0.930 . S
H606 C564 0.930 . S
H607 C565 0.930 . S
H608 C567 0.929 . S
H609 C568 0.930 . S
H610 C569 0.930 . S
H611 C570 0.930 . S
H612 C574 0.929 . S
H613 C576 0.930 . S
H614 C582 0.929 . S
H615 C583 0.930 . S
Li616 N633 1.990 . S
Li616 O676 1.956 . S
Li616 O677 1.970 . S
Li616 O678 1.961 . S
Li617 N641 1.990 . S
Li617 O676 1.970 . S
Li617 O677 1.956 . S
Li617 O679 1.961 . S
Li618 N663 1.990 1_554 S
Li618 O676 1.961 . S
Li618 O678 1.956 . S
Li618 O679 1.970 . S
Li619 N669 1.990 . S
Li619 O677 1.961 . S
Li619 O678 1.970 . S
Li619 O679 1.956 . S
C620 C622 1.348 . S
C620 C623 1.356 . S
C620 O676 1.325 . S
N621 C624 1.314 . S
N621 C625 1.279 . S
C622 C620 1.348 . S
C622 C624 1.353 . S
C622 H680 0.929 . S
C623 C620 1.356 . S
C623 C625 1.358 . S
C623 H681 0.930 . S
C624 N621 1.314 . S
C624 C622 1.353 . S
C624 H682 0.930 . S
C625 N621 1.279 . S
C625 C623 1.358 . S
C625 H683 0.930 . S
C626 C629 1.348 . S
C626 C630 1.356 . S
C626 O677 1.325 . S
C627 N628 1.279 . S
C627 C630 1.358 . S
C627 H684 0.930 . S
N628 C627 1.279 . S
N628 C631 1.314 . S
C629 C626 1.348 . S
C629 C631 1.353 . S
C629 H685 0.929 . S
C630 C626 1.356 . S
C630 C627 1.358 . S
C630 H686 0.930 . S
C631 N628 1.314 . S
C631 C629 1.353 . S
C631 H687 0.930 . S
C632 N633 1.314 . S
C632 C637 1.353 . S
C632 H638 0.930 . S
N633 Li616 1.990 . S
N633 C632 1.314 . S
N633 C635 1.279 . S
C634 C635 1.358 . S
C634 C636 1.356 . S
C634 H688 0.930 . S
C635 N633 1.279 . S
C635 C634 1.358 . S
C635 H639 0.930 . S
C636 C634 1.356 . S
C636 C637 1.348 . S
C637 C632 1.353 . S
C637 C636 1.348 . S
C637 H689 0.929 . S
H638 C632 0.930 . S
H639 C635 0.930 . S
C640 N641 1.314 . S
C640 C642 1.353 . S
C640 H646 0.930 1_554 S
N641 Li617 1.990 . S
N641 C640 1.314 . S
N641 C644 1.279 . S
C642 C640 1.353 . S
C642 C645 1.348 . S
C642 H690 0.929 1_554 S
C643 C644 1.358 . S
C643 C645 1.356 . S
C643 H691 0.930 . S
C644 N641 1.279 . S
C644 C643 1.358 . S
C644 H647 0.930 . S
C645 C642 1.348 . S
C645 C643 1.356 . S
H646 C640 0.930 1_556 S
H647 C644 0.930 . S
C648 C650 1.348 . S
C648 C651 1.356 . S
C648 O678 1.325 . S
N649 C652 1.314 . S
N649 C653 1.279 . S
C650 C648 1.348 . S
C650 C652 1.353 . S
C650 H692 0.929 . S
C651 C648 1.356 . S
C651 C653 1.358 . S
C651 H693 0.930 . S
C652 N649 1.314 . S
C652 C650 1.353 . S
C652 H694 0.930 . S
C653 N649 1.279 . S
C653 C651 1.358 . S
C653 H695 0.930 . S
C654 C655 1.348 . S
C654 C656 1.356 . S
C654 O679 1.325 1_556 S
C655 C654 1.348 . S
C655 C657 1.353 . S
C655 H696 0.929 . S
C656 C654 1.356 . S
C656 C658 1.358 . S
C656 H697 0.911 1_556 S
C657 C655 1.353 . S
C657 N659 1.314 . S
C657 H698 0.930 . S
C658 C656 1.358 . S
C658 N659 1.279 . S
C658 H699 0.930 . S
N659 C657 1.314 . S
N659 C658 1.279 . S
C660 C662 1.353 . S
C660 N663 1.314 . S
C660 H666 0.930 . S
C661 N663 1.279 . S
C661 C664 1.358 . S
C661 H667 0.930 . S
C662 C660 1.353 . S
C662 C665 1.348 . S
C662 H700 0.929 . S
N663 Li618 1.990 1_556 S
N663 C660 1.314 . S
N663 C661 1.279 . S
C664 C661 1.358 . S
C664 C665 1.356 . S
C664 H701 0.930 . S
C665 C662 1.348 . S
C665 C664 1.356 . S
H666 C660 0.930 . S
H667 C661 0.930 . S
C668 N669 1.314 . S
C668 C670 1.353 . S
C668 H674 0.930 . S
N669 Li619 1.990 . S
N669 C668 1.314 . S
N669 C672 1.279 . S
C670 C668 1.353 . S
C670 C673 1.348 . S
C670 H702 0.929 . S
C671 C672 1.358 . S
C671 C673 1.356 . S
C671 H703 0.930 1_554 S
C672 N669 1.279 . S
C672 C671 1.358 . S
C672 H675 0.930 1_554 S
C673 C670 1.348 . S
C673 C671 1.356 . S
H674 C668 0.930 . S
H675 C672 0.930 1_556 S
O676 Li616 1.956 . S
O676 Li617 1.970 . S
O676 Li618 1.961 . S
O676 C620 1.325 . S
O677 Li616 1.970 . S
O677 Li617 1.956 . S
O677 Li619 1.961 . S
O677 C626 1.325 . S
O678 Li616 1.961 . S
O678 Li618 1.956 . S
O678 Li619 1.970 . S
O678 C648 1.325 . S
O679 Li617 1.961 . S
O679 Li618 1.970 . S
O679 Li619 1.956 . S
O679 C654 1.325 1_554 S
H680 C622 0.929 . S
H681 C623 0.930 . S
H682 C624 0.930 . S
H683 C625 0.930 . S
H684 C627 0.930 . S
H685 C629 0.929 . S
H686 C630 0.930 . S
H687 C631 0.930 . S
H688 C634 0.930 . S
H689 C637 0.929 . S
H690 C642 0.929 1_556 S
H691 C643 0.930 . S
H692 C650 0.929 . S
H693 C651 0.930 . S
H694 C652 0.930 . S
H695 C653 0.930 . S
H696 C655 0.929 . S
H697 C656 0.911 1_554 S
H698 C657 0.930 . S
H699 C658 0.930 . S
H700 C662 0.929 . S
H701 C664 0.930 . S
H702 C670 0.929 . S
H703 C671 0.930 1_556 S
Li704 N721 1.990 . S
Li704 O764 1.956 . S
Li704 O765 1.970 . S
Li704 O766 1.961 . S
Li705 N729 1.990 . S
Li705 O764 1.970 . S
Li705 O765 1.956 . S
Li705 O767 1.961 . S
Li706 N751 1.990 . S
Li706 O764 1.961 . S
Li706 O766 1.956 . S
Li706 O767 1.970 . S
Li707 N757 1.988 . S
Li707 O765 1.961 . S
Li707 O766 1.970 . S
Li707 O767 1.956 . S
C708 C710 1.348 . S
C708 C711 1.356 . S
C708 O764 1.325 . S
N709 C712 1.314 . S
N709 C713 1.279 . S
C710 C708 1.348 . S
C710 C712 1.353 . S
C710 H768 0.929 . S
C711 C708 1.356 . S
C711 C713 1.358 . S
C711 H769 0.930 . S
C712 N709 1.314 . S
C712 C710 1.353 . S
C712 H770 0.930 . S
C713 N709 1.279 . S
C713 C711 1.358 . S
C713 H771 0.930 . S
C714 C717 1.348 . S
C714 C718 1.356 . S
C714 O765 1.325 . S
C715 N716 1.279 . S
C715 C718 1.358 . S
C715 H772 0.930 . S
N716 C715 1.279 . S
N716 C719 1.314 . S
C717 C714 1.348 . S
C717 C719 1.353 . S
C717 H773 0.929 . S
C718 C714 1.356 . S
C718 C715 1.358 . S
C718 H774 0.930 . S
C719 N716 1.314 . S
C719 C717 1.353 . S
C719 H775 0.930 . S
C720 N721 1.314 . S
C720 C725 1.353 . S
C720 H726 0.930 . S
N721 Li704 1.990 . S
N721 C720 1.314 . S
N721 C723 1.279 . S
C722 C723 1.358 . S
C722 C724 1.356 . S
C722 H776 0.930 . S
C723 N721 1.279 . S
C723 C722 1.358 . S
C723 H727 0.930 . S
C724 C722 1.356 . S
C724 C725 1.348 . S
C725 C720 1.353 . S
C725 C724 1.348 . S
C725 H777 0.929 . S
H726 C720 0.930 . S
H727 C723 0.930 . S
C728 N729 1.314 . S
C728 C730 1.353 . S
C728 H734 0.930 . S
N729 Li705 1.990 . S
N729 C728 1.314 . S
N729 C732 1.279 . S
C730 C728 1.353 . S
C730 C733 1.348 . S
C730 H778 0.929 . S
C731 C732 1.358 . S
C731 C733 1.356 . S
C731 H779 0.930 . S
C732 N729 1.279 . S
C732 C731 1.358 . S
C732 H735 0.930 . S
C733 C730 1.348 . S
C733 C731 1.356 . S
H734 C728 0.930 . S
H735 C732 0.930 . S
C736 C738 1.348 1_554 S
C736 C739 1.356 . S
C736 O766 1.325 . S
N737 C740 1.314 . S
N737 C741 1.279 . S
C738 C736 1.348 1_556 S
C738 C740 1.353 . S
C738 H780 0.929 . S
C739 C736 1.356 . S
C739 C741 1.358 1_554 S
C739 H781 0.930 . S
C740 N737 1.314 . S
C740 C738 1.353 . S
C740 H782 0.930 . S
C741 N737 1.279 . S
C741 C739 1.358 1_556 S
C741 H783 0.930 . S
C742 C743 1.348 . S
C742 C744 1.356 . S
C742 O767 1.325 . S
C743 C742 1.348 . S
C743 C745 1.353 . S
C743 H784 0.929 . S
C744 C742 1.356 . S
C744 C746 1.358 . S
C744 H785 0.930 . S
C745 C743 1.353 . S
C745 N747 1.314 . S
C745 H786 0.930 . S
C746 C744 1.358 . S
C746 N747 1.279 . S
C746 H787 0.930 . S
N747 C745 1.314 . S
N747 C746 1.279 . S
C748 C750 1.353 . S
C748 N751 1.314 . S
C748 H754 0.930 . S
C749 N751 1.279 . S
C749 C752 1.358 . S
C749 H755 0.930 . S
C750 C748 1.353 . S
C750 C753 1.348 . S
C750 H788 0.929 . S
N751 Li706 1.990 . S
N751 C748 1.314 . S
N751 C749 1.279 . S
C752 C749 1.358 . S
C752 C753 1.356 . S
C752 H789 0.930 . S
C753 C750 1.348 . S
C753 C752 1.356 . S
H754 C748 0.930 . S
H755 C749 0.930 . S
C756 N757 1.316 1_556 S
C756 C758 1.353 . S
C756 H762 0.930 . S
N757 Li707 1.988 . S
N757 C756 1.316 1_554 S
N757 C760 1.280 1_554 S
C758 C756 1.353 . S
C758 C761 1.348 . S
C758 H790 0.929 . S
C759 C760 1.358 . S
C759 C761 1.356 . S
C759 H791 0.930 . S
C760 N757 1.280 1_556 S
C760 C759 1.358 . S
C760 H763 0.944 . S
C761 C758 1.348 . S
C761 C759 1.356 . S
H762 C756 0.930 . S
H763 C760 0.944 . S
O764 Li704 1.956 . S
O764 Li705 1.970 . S
O764 Li706 1.961 . S
O764 C708 1.325 . S
O765 Li704 1.970 . S
O765 Li705 1.956 . S
O765 Li707 1.961 . S
O765 C714 1.325 . S
O766 Li704 1.961 . S
O766 Li706 1.956 . S
O766 Li707 1.970 . S
O766 C736 1.325 . S
O767 Li705 1.961 . S
O767 Li706 1.970 . S
O767 Li707 1.956 . S
O767 C742 1.325 . S
H768 C710 0.929 . S
H769 C711 0.930 . S
H770 C712 0.930 . S
H771 C713 0.930 . S
H772 C715 0.930 . S
H773 C717 0.929 . S
H774 C718 0.930 . S
H775 C719 0.930 . S
H776 C722 0.930 . S
H777 C725 0.929 . S
H778 C730 0.929 . S
H779 C731 0.930 . S
H780 C738 0.929 . S
H781 C739 0.930 . S
H782 C740 0.930 . S
H783 C741 0.930 . S
H784 C743 0.929 . S
H785 C744 0.930 . S
H786 C745 0.930 . S
H787 C746 0.930 . S
H788 C750 0.929 . S
H789 C752 0.930 . S
H790 C758 0.929 . S
H791 C759 0.930 . S
Li792 N809 1.990 . S
Li792 O852 1.956 . S
Li792 O853 1.970 . S
Li792 O854 1.961 . S
Li793 N817 1.990 . S
Li793 O852 1.970 . S
Li793 O853 1.956 . S
Li793 O855 1.961 . S
Li794 N839 1.990 . S
Li794 O852 1.961 . S
Li794 O854 1.956 . S
Li794 O855 1.970 . S
Li795 N845 1.990 . S
Li795 O853 1.961 . S
Li795 O854 1.970 . S
Li795 O855 1.956 . S
C796 C798 1.348 . S
C796 C799 1.356 . S
C796 O852 1.325 . S
N797 C800 1.314 . S
N797 C801 1.279 . S
C798 C796 1.348 . S
C798 C800 1.353 . S
C798 H856 0.929 . S
C799 C796 1.356 . S
C799 C801 1.358 . S
C799 H857 0.930 . S
C800 N797 1.314 . S
C800 C798 1.353 . S
C800 H858 0.930 . S
C801 N797 1.279 . S
C801 C799 1.358 . S
C801 H859 0.930 . S
C802 C805 1.348 . S
C802 C806 1.356 . S
C802 O853 1.325 . S
C803 N804 1.279 . S
C803 C806 1.358 . S
C803 H860 0.930 . S
N804 C803 1.279 . S
N804 C807 1.314 . S
C805 C802 1.348 . S
C805 C807 1.353 . S
C805 H861 0.929 . S
C806 C802 1.356 . S
C806 C803 1.358 . S
C806 H862 0.930 . S
C807 N804 1.314 . S
C807 C805 1.353 . S
C807 H863 0.930 . S
C808 N809 1.314 . S
C808 C813 1.353 . S
C808 H814 0.930 . S
N809 Li792 1.990 . S
N809 C808 1.314 . S
N809 C811 1.279 . S
C810 C811 1.358 . S
C810 C812 1.356 . S
C810 H864 0.930 . S
C811 N809 1.279 . S
C811 C810 1.358 . S
C811 H815 0.930 . S
C812 C810 1.356 . S
C812 C813 1.348 . S
C813 C808 1.353 . S
C813 C812 1.348 . S
C813 H865 0.929 . S
H814 C808 0.930 . S
H815 C811 0.930 . S
C816 N817 1.314 . S
C816 C818 1.353 . S
C816 H822 0.930 . S
N817 Li793 1.990 . S
N817 C816 1.314 . S
N817 C820 1.279 . S
C818 C816 1.353 . S
C818 C821 1.348 . S
C818 H866 0.929 . S
C819 C820 1.358 . S
C819 C821 1.356 . S
C819 H867 0.930 . S
C820 N817 1.279 . S
C820 C819 1.358 . S
C820 H823 0.930 . S
C821 C818 1.348 . S
C821 C819 1.356 . S
H822 C816 0.930 . S
H823 C820 0.930 . S
C824 C826 1.348 . S
C824 C827 1.356 . S
C824 O854 1.325 . S
N825 C828 1.314 . S
N825 C829 1.279 . S
C826 C824 1.348 . S
C826 C828 1.353 . S
C826 H868 0.929 . S
C827 C824 1.356 . S
C827 C829 1.358 . S
C827 H869 0.930 . S
C828 N825 1.314 . S
C828 C826 1.353 . S
C828 H870 0.930 . S
C829 N825 1.279 . S
C829 C827 1.358 . S
C829 H871 0.930 . S
C830 C831 1.348 . S
C830 C832 1.356 . S
C830 O855 1.325 . S
C831 C830 1.348 . S
C831 C833 1.353 . S
C831 H872 0.929 . S
C832 C830 1.356 . S
C832 C834 1.358 . S
C832 H873 0.930 . S
C833 C831 1.353 . S
C833 N835 1.314 . S
C833 H874 0.930 . S
C834 C832 1.358 . S
C834 N835 1.279 . S
C834 H875 0.930 . S
N835 C833 1.314 . S
N835 C834 1.279 . S
C836 C838 1.353 . S
C836 N839 1.314 . S
C836 H842 0.930 . S
C837 N839 1.279 . S
C837 C840 1.358 . S
C837 H843 0.930 . S
C838 C836 1.353 . S
C838 C841 1.348 . S
C838 H876 0.929 . S
N839 Li794 1.990 . S
N839 C836 1.314 . S
N839 C837 1.279 . S
C840 C837 1.358 . S
C840 C841 1.356 . S
C840 H877 0.930 . S
C841 C838 1.348 . S
C841 C840 1.356 . S
H842 C836 0.930 . S
H843 C837 0.930 . S
C844 N845 1.314 . S
C844 C846 1.353 . S
C844 H850 0.930 . S
N845 Li795 1.990 . S
N845 C844 1.314 . S
N845 C848 1.279 . S
C846 C844 1.353 . S
C846 C849 1.348 . S
C846 H878 0.929 . S
C847 C848 1.358 . S
C847 C849 1.356 . S
C847 H879 0.930 . S
C848 N845 1.279 . S
C848 C847 1.358 . S
C848 H851 0.930 . S
C849 C846 1.348 . S
C849 C847 1.356 . S
H850 C844 0.930 . S
H851 C848 0.930 . S
O852 Li792 1.956 . S
O852 Li793 1.970 . S
O852 Li794 1.961 . S
O852 C796 1.325 . S
O853 Li792 1.970 . S
O853 Li793 1.956 . S
O853 Li795 1.961 . S
O853 C802 1.325 . S
O854 Li792 1.961 . S
O854 Li794 1.956 . S
O854 Li795 1.970 . S
O854 C824 1.325 . S
O855 Li793 1.961 . S
O855 Li794 1.970 . S
O855 Li795 1.956 . S
O855 C830 1.325 . S
H856 C798 0.929 . S
H857 C799 0.930 . S
H858 C800 0.930 . S
H859 C801 0.930 . S
H860 C803 0.930 . S
H861 C805 0.929 . S
H862 C806 0.930 . S
H863 C807 0.930 . S
H864 C810 0.930 . S
H865 C813 0.929 . S
H866 C818 0.929 . S
H867 C819 0.930 . S
H868 C826 0.929 . S
H869 C827 0.930 . S
H870 C828 0.930 . S
H871 C829 0.930 . S
H872 C831 0.929 . S
H873 C832 0.930 . S
H874 C833 0.930 . S
H875 C834 0.930 . S
H876 C838 0.929 . S
H877 C840 0.930 . S
H878 C846 0.929 . S
H879 C847 0.930 . S
Li880 N897 1.990 . S
Li880 O940 1.956 . S
Li880 O941 1.970 . S
Li880 O942 1.961 . S
Li881 N905 1.990 . S
Li881 O940 1.970 . S
Li881 O941 1.956 . S
Li881 O943 1.961 . S
Li882 N927 1.990 . S
Li882 O940 1.961 . S
Li882 O942 1.956 . S
Li882 O943 1.970 . S
Li883 N933 1.990 . S
Li883 O941 1.961 . S
Li883 O942 1.970 . S
Li883 O943 1.956 . S
C884 C886 1.348 . S
C884 C887 1.356 . S
C884 O940 1.325 . S
N885 C888 1.314 . S
N885 C889 1.279 . S
C886 C884 1.348 . S
C886 C888 1.353 . S
C886 H944 0.929 . S
C887 C884 1.356 . S
C887 C889 1.358 . S
C887 H945 0.930 . S
C888 N885 1.314 . S
C888 C886 1.353 . S
C888 H946 0.930 . S
C889 N885 1.279 . S
C889 C887 1.358 . S
C889 H947 0.930 . S
C890 C893 1.348 . S
C890 C894 1.356 . S
C890 O941 1.325 . S
C891 N892 1.279 . S
C891 C894 1.358 . S
C891 H948 0.930 . S
N892 C891 1.279 . S
N892 C895 1.314 . S
C893 C890 1.348 . S
C893 C895 1.353 . S
C893 H949 0.929 . S
C894 C890 1.356 . S
C894 C891 1.358 . S
C894 H950 0.930 . S
C895 N892 1.314 . S
C895 C893 1.353 . S
C895 H951 0.930 . S
C896 N897 1.314 . S
C896 C901 1.353 . S
C896 H902 0.930 . S
N897 Li880 1.990 . S
N897 C896 1.314 . S
N897 C899 1.279 . S
C898 C899 1.358 . S
C898 C900 1.356 . S
C898 H952 0.930 . S
C899 N897 1.279 . S
C899 C898 1.358 . S
C899 H903 0.930 . S
C900 C898 1.356 . S
C900 C901 1.348 . S
C901 C896 1.353 . S
C901 C900 1.348 . S
C901 H953 0.929 . S
H902 C896 0.930 . S
H903 C899 0.930 . S
C904 N905 1.314 . S
C904 C906 1.353 . S
C904 H910 0.930 . S
N905 Li881 1.990 . S
N905 C904 1.314 . S
N905 C908 1.279 . S
C906 C904 1.353 . S
C906 C909 1.348 . S
C906 H954 0.929 . S
C907 C908 1.358 . S
C907 C909 1.356 . S
C907 H955 0.930 . S
C908 N905 1.279 . S
C908 C907 1.358 . S
C908 H911 0.930 . S
C909 C906 1.348 . S
C909 C907 1.356 . S
H910 C904 0.930 . S
H911 C908 0.930 . S
C912 C914 1.348 . S
C912 C915 1.356 . S
C912 O942 1.325 . S
N913 C916 1.314 . S
N913 C917 1.279 . S
C914 C912 1.348 . S
C914 C916 1.353 . S
C914 H956 0.929 . S
C915 C912 1.356 . S
C915 C917 1.358 . S
C915 H957 0.930 . S
C916 N913 1.314 . S
C916 C914 1.353 . S
C916 H958 0.930 . S
C917 N913 1.279 . S
C917 C915 1.358 . S
C917 H959 0.930 . S
C918 C919 1.348 . S
C918 C920 1.356 . S
C918 O943 1.325 . S
C919 C918 1.348 . S
C919 C921 1.353 . S
C919 H960 0.929 . S
C920 C918 1.356 . S
C920 C922 1.358 . S
C920 H961 0.930 . S
C921 C919 1.353 . S
C921 N923 1.314 . S
C921 H962 0.930 . S
C922 C920 1.358 . S
C922 N923 1.279 . S
C922 H963 0.930 . S
N923 C921 1.314 . S
N923 C922 1.279 . S
C924 C926 1.353 . S
C924 N927 1.314 . S
C924 H930 0.930 . S
C925 N927 1.279 . S
C925 C928 1.358 . S
C925 H931 0.930 . S
C926 C924 1.353 . S
C926 C929 1.348 . S
C926 H964 0.929 . S
N927 Li882 1.990 . S
N927 C924 1.314 . S
N927 C925 1.279 . S
C928 C925 1.358 . S
C928 C929 1.356 . S
C928 H965 0.930 . S
C929 C926 1.348 . S
C929 C928 1.356 . S
H930 C924 0.930 . S
H931 C925 0.930 . S
C932 N933 1.314 . S
C932 C934 1.353 . S
C932 H938 0.930 . S
N933 Li883 1.990 . S
N933 C932 1.314 . S
N933 C936 1.279 . S
C934 C932 1.353 . S
C934 C937 1.348 . S
C934 H966 0.929 . S
C935 C936 1.358 . S
C935 C937 1.356 . S
C935 H967 0.930 . S
C936 N933 1.279 . S
C936 C935 1.358 . S
C936 H939 0.930 . S
C937 C934 1.348 . S
C937 C935 1.356 . S
H938 C932 0.930 . S
H939 C936 0.930 . S
O940 Li880 1.956 . S
O940 Li881 1.970 . S
O940 Li882 1.961 . S
O940 C884 1.325 . S
O941 Li880 1.970 . S
O941 Li881 1.956 . S
O941 Li883 1.961 . S
O941 C890 1.325 . S
O942 Li880 1.961 . S
O942 Li882 1.956 . S
O942 Li883 1.970 . S
O942 C912 1.325 . S
O943 Li881 1.961 . S
O943 Li882 1.970 . S
O943 Li883 1.956 . S
O943 C918 1.325 . S
H944 C886 0.929 . S
H945 C887 0.930 . S
H946 C888 0.930 . S
H947 C889 0.930 . S
H948 C891 0.930 . S
H949 C893 0.929 . S
H950 C894 0.930 . S
H951 C895 0.930 . S
H952 C898 0.930 . S
H953 C901 0.929 . S
H954 C906 0.929 . S
H955 C907 0.930 . S
H956 C914 0.929 . S
H957 C915 0.930 . S
H958 C916 0.930 . S
H959 C917 0.930 . S
H960 C919 0.929 . S
H961 C920 0.930 . S
H962 C921 0.930 . S
H963 C922 0.930 . S
H964 C926 0.929 . S
H965 C928 0.930 . S
H966 C934 0.929 . S
H967 C935 0.930 . S
Li968 N985 1.990 . S
Li968 O1028 1.956 . S
Li968 O1029 1.970 . S
Li968 O1030 1.961 . S
Li969 N993 1.990 . S
Li969 O1028 1.970 . S
Li969 O1029 1.956 . S
Li969 O1031 1.961 . S
Li970 N1015 1.990 . S
Li970 O1028 1.961 . S
Li970 O1030 1.956 . S
Li970 O1031 1.970 . S
Li971 N1021 1.990 . S
Li971 O1029 1.961 . S
Li971 O1030 1.970 . S
Li971 O1031 1.956 . S
C972 C974 1.348 . S
C972 C975 1.356 . S
C972 O1028 1.325 . S
N973 C976 1.314 . S
N973 C977 1.279 . S
C974 C972 1.348 . S
C974 C976 1.353 . S
C974 H1032 0.929 . S
C975 C972 1.356 . S
C975 C977 1.358 . S
C975 H1033 0.930 . S
C976 N973 1.314 . S
C976 C974 1.353 . S
C976 H1034 0.930 . S
C977 N973 1.279 . S
C977 C975 1.358 . S
C977 H1035 0.930 . S
C978 C981 1.348 . S
C978 C982 1.356 . S
C978 O1029 1.325 . S
C979 N980 1.279 . S
C979 C982 1.358 . S
C979 H1036 0.930 . S
N980 C979 1.279 . S
N980 C983 1.314 . S
C981 C978 1.348 . S
C981 C983 1.353 . S
C981 H1037 0.929 . S
C982 C978 1.356 . S
C982 C979 1.358 . S
C982 H1038 0.930 . S
C983 N980 1.314 . S
C983 C981 1.353 . S
C983 H1039 0.930 . S
C984 N985 1.314 . S
C984 C989 1.353 . S
C984 H990 0.930 . S
N985 Li968 1.990 . S
N985 C984 1.314 . S
N985 C987 1.279 . S
C986 C987 1.358 . S
C986 C988 1.356 . S
C986 H1040 0.930 . S
C987 N985 1.279 . S
C987 C986 1.358 . S
C987 H991 0.930 . S
C988 C986 1.356 . S
C988 C989 1.348 . S
C989 C984 1.353 . S
C989 C988 1.348 . S
C989 H1041 0.929 . S
H990 C984 0.930 . S
H991 C987 0.930 . S
C992 N993 1.314 . S
C992 C994 1.353 . S
C992 H998 0.930 . S
N993 Li969 1.990 . S
N993 C992 1.314 . S
N993 C996 1.279 . S
C994 C992 1.353 . S
C994 C997 1.348 . S
C994 H1042 0.929 . S
C995 C996 1.358 . S
C995 C997 1.356 . S
C995 H1043 0.930 . S
C996 N993 1.279 . S
C996 C995 1.358 . S
C996 H999 0.930 . S
C997 C994 1.348 . S
C997 C995 1.356 . S
H998 C992 0.930 . S
H999 C996 0.930 . S
C1000 C1002 1.348 . S
C1000 C1003 1.356 . S
C1000 O1030 1.325 . S
N1001 C1004 1.314 . S
N1001 C1005 1.279 . S
C1002 C1000 1.348 . S
C1002 C1004 1.353 . S
C1002 H1044 0.929 . S
C1003 C1000 1.356 . S
C1003 C1005 1.358 . S
C1003 H1045 0.930 . S
C1004 N1001 1.314 . S
C1004 C1002 1.353 . S
C1004 H1046 0.930 . S
C1005 N1001 1.279 . S
C1005 C1003 1.358 . S
C1005 H1047 0.930 . S
C1006 C1007 1.348 . S
C1006 C1008 1.356 . S
C1006 O1031 1.325 . S
C1007 C1006 1.348 . S
C1007 C1009 1.353 . S
C1007 H1048 0.929 . S
C1008 C1006 1.356 . S
C1008 C1010 1.358 . S
C1008 H1049 0.930 . S
C1009 C1007 1.353 . S
C1009 N1011 1.314 . S
C1009 H1050 0.930 . S
C1010 C1008 1.358 . S
C1010 N1011 1.279 . S
C1010 H1051 0.930 . S
N1011 C1009 1.314 . S
N1011 C1010 1.279 . S
C1012 C1014 1.353 . S
C1012 N1015 1.314 . S
C1012 H1018 0.930 . S
C1013 N1015 1.279 . S
C1013 C1016 1.358 . S
C1013 H1019 0.930 . S
C1014 C1012 1.353 . S
C1014 C1017 1.348 . S
C1014 H1052 0.929 . S
N1015 Li970 1.990 . S
N1015 C1012 1.314 . S
N1015 C1013 1.279 . S
C1016 C1013 1.358 . S
C1016 C1017 1.356 . S
C1016 H1053 0.930 . S
C1017 C1014 1.348 . S
C1017 C1016 1.356 . S
H1018 C1012 0.930 . S
H1019 C1013 0.930 . S
C1020 N1021 1.314 . S
C1020 C1022 1.353 . S
C1020 H1026 0.930 . S
N1021 Li971 1.990 . S
N1021 C1020 1.314 . S
N1021 C1024 1.279 . S
C1022 C1020 1.353 . S
C1022 C1025 1.348 . S
C1022 H1054 0.929 . S
C1023 C1024 1.358 . S
C1023 C1025 1.356 . S
C1023 H1055 0.930 . S
C1024 N1021 1.279 . S
C1024 C1023 1.358 . S
C1024 H1027 0.930 . S
C1025 C1022 1.348 . S
C1025 C1023 1.356 . S
H1026 C1020 0.930 . S
H1027 C1024 0.930 . S
O1028 Li968 1.956 . S
O1028 Li969 1.970 . S
O1028 Li970 1.961 . S
O1028 C972 1.325 . S
O1029 Li968 1.970 . S
O1029 Li969 1.956 . S
O1029 Li971 1.961 . S
O1029 C978 1.325 . S
O1030 Li968 1.961 . S
O1030 Li970 1.956 . S
O1030 Li971 1.970 . S
O1030 C1000 1.325 . S
O1031 Li969 1.961 . S
O1031 Li970 1.970 . S
O1031 Li971 1.956 . S
O1031 C1006 1.325 . S
H1032 C974 0.929 . S
H1033 C975 0.930 . S
H1034 C976 0.930 . S
H1035 C977 0.930 . S
H1036 C979 0.930 . S
H1037 C981 0.929 . S
H1038 C982 0.930 . S
H1039 C983 0.930 . S
H1040 C986 0.930 . S
H1041 C989 0.929 . S
H1042 C994 0.929 . S
H1043 C995 0.930 . S
H1044 C1002 0.929 . S
H1045 C1003 0.930 . S
H1046 C1004 0.930 . S
H1047 C1005 0.930 . S
H1048 C1007 0.929 . S
H1049 C1008 0.930 . S
H1050 C1009 0.930 . S
H1051 C1010 0.930 . S
H1052 C1014 0.929 . S
H1053 C1016 0.930 . S
H1054 C1022 0.929 . S
H1055 C1023 0.930 . S
Li1056 N1073 1.990 . S
Li1056 O1116 1.956 1_655 S
Li1056 O1117 1.970 . S
Li1056 O1118 1.961 1_655 S
Li1057 N1081 1.990 . S
Li1057 O1116 1.970 . S
Li1057 O1117 1.956 1_455 S
Li1057 O1119 1.961 . S
Li1058 N1103 1.990 . S
Li1058 O1116 1.961 . S
Li1058 O1118 1.956 . S
Li1058 O1119 1.970 . S
Li1059 N1109 1.990 . S
Li1059 O1117 1.961 1_455 S
Li1059 O1118 1.970 . S
Li1059 O1119 1.956 . S
C1060 C1062 1.348 . S
C1060 C1063 1.356 . S
C1060 O1116 1.325 . S
N1061 C1064 1.314 . S
N1061 C1065 1.279 . S
C1062 C1060 1.348 . S
C1062 C1064 1.353 . S
C1062 H1120 0.929 . S
C1063 C1060 1.356 . S
C1063 C1065 1.358 . S
C1063 H1121 0.930 . S
C1064 N1061 1.314 . S
C1064 C1062 1.353 . S
C1064 H1122 0.930 . S
C1065 N1061 1.279 . S
C1065 C1063 1.358 . S
C1065 H1123 0.930 . S
C1066 C1069 1.348 . S
C1066 C1070 1.356 . S
C1066 O1117 1.325 . S
C1067 N1068 1.279 . S
C1067 C1070 1.358 . S
C1067 H1124 0.930 . S
N1068 C1067 1.279 . S
N1068 C1071 1.314 . S
C1069 C1066 1.348 . S
C1069 C1071 1.353 . S
C1069 H1125 0.929 . S
C1070 C1066 1.356 . S
C1070 C1067 1.358 . S
C1070 H1126 0.930 . S
C1071 N1068 1.314 . S
C1071 C1069 1.353 . S
C1071 H1127 0.930 . S
C1072 N1073 1.314 . S
C1072 C1077 1.353 . S
C1072 H1078 0.930 . S
N1073 Li1056 1.990 . S
N1073 C1072 1.314 . S
N1073 C1075 1.279 . S
C1074 C1075 1.358 . S
C1074 C1076 1.356 . S
C1074 H1128 0.930 . S
C1075 N1073 1.279 . S
C1075 C1074 1.358 . S
C1075 H1079 0.930 . S
C1076 C1074 1.356 . S
C1076 C1077 1.348 . S
C1077 C1072 1.353 . S
C1077 C1076 1.348 . S
C1077 H1129 0.929 . S
H1078 C1072 0.930 . S
H1079 C1075 0.930 . S
C1080 N1081 1.314 . S
C1080 C1082 1.353 . S
C1080 H1086 0.930 . S
N1081 Li1057 1.990 . S
N1081 C1080 1.314 . S
N1081 C1084 1.276 . S
C1082 C1080 1.353 . S
C1082 C1085 1.348 . S
C1082 H1130 0.929 . S
C1083 C1084 1.358 1_655 S
C1083 C1085 1.356 1_655 S
C1083 H1131 0.930 . S
C1084 N1081 1.276 . S
C1084 C1083 1.358 1_455 S
C1084 H1087 0.933 1_455 S
C1085 C1082 1.348 . S
C1085 C1083 1.356 1_455 S
H1086 C1080 0.930 . S
H1087 C1084 0.933 1_655 S
C1088 C1090 1.348 . S
C1088 C1091 1.356 . S
C1088 O1118 1.325 . S
N1089 C1092 1.314 . S
N1089 C1093 1.279 . S
C1090 C1088 1.348 . S
C1090 C1092 1.353 . S
C1090 H1132 0.929 . S
C1091 C1088 1.356 . S
C1091 C1093 1.358 . S
C1091 H1133 0.930 . S
C1092 N1089 1.314 . S
C1092 C1090 1.353 . S
C1092 H1134 0.930 . S
C1093 N1089 1.279 . S
C1093 C1091 1.358 . S
C1093 H1135 0.930 . S
C1094 C1095 1.348 . S
C1094 C1096 1.356 . S
C1094 O1119 1.325 . S
C1095 C1094 1.348 . S
C1095 C1097 1.353 . S
C1095 H1136 0.929 . S
C1096 C1094 1.356 . S
C1096 C1098 1.358 . S
C1096 H1137 0.930 . S
C1097 C1095 1.353 . S
C1097 N1099 1.314 . S
C1097 H1138 0.930 . S
C1098 C1096 1.358 . S
C1098 N1099 1.279 . S
C1098 H1139 0.930 . S
N1099 C1097 1.314 . S
N1099 C1098 1.279 . S
C1100 C1102 1.353 . S
C1100 N1103 1.314 . S
C1100 H1106 0.930 . S
C1101 N1103 1.279 . S
C1101 C1104 1.358 . S
C1101 H1107 0.930 . S
C1102 C1100 1.353 . S
C1102 C1105 1.348 . S
C1102 H1140 0.929 . S
N1103 Li1058 1.990 . S
N1103 C1100 1.314 . S
N1103 C1101 1.279 . S
C1104 C1101 1.358 . S
C1104 C1105 1.356 . S
C1104 H1141 0.930 . S
C1105 C1102 1.348 . S
C1105 C1104 1.356 . S
H1106 C1100 0.930 . S
H1107 C1101 0.930 . S
C1108 N1109 1.314 . S
C1108 C1110 1.353 . S
C1108 H1114 0.930 1_455 S
N1109 Li1059 1.990 . S
N1109 C1108 1.314 . S
N1109 C1112 1.279 . S
C1110 C1108 1.353 . S
C1110 C1113 1.348 . S
C1110 H1142 0.929 1_455 S
C1111 C1112 1.358 . S
C1111 C1113 1.356 . S
C1111 H1143 0.930 . S
C1112 N1109 1.279 . S
C1112 C1111 1.358 . S
C1112 H1115 0.930 . S
C1113 C1110 1.348 . S
C1113 C1111 1.356 . S
H1114 C1108 0.930 1_655 S
H1115 C1112 0.930 . S
O1116 Li1056 1.956 1_455 S
O1116 Li1057 1.970 . S
O1116 Li1058 1.961 . S
O1116 C1060 1.325 . S
O1117 Li1056 1.970 . S
O1117 Li1057 1.956 1_655 S
O1117 Li1059 1.961 1_655 S
O1117 C1066 1.325 . S
O1118 Li1056 1.961 1_455 S
O1118 Li1058 1.956 . S
O1118 Li1059 1.970 . S
O1118 C1088 1.325 . S
O1119 Li1057 1.961 . S
O1119 Li1058 1.970 . S
O1119 Li1059 1.956 . S
O1119 C1094 1.325 . S
H1120 C1062 0.929 . S
H1121 C1063 0.930 . S
H1122 C1064 0.930 . S
H1123 C1065 0.930 . S
H1124 C1067 0.930 . S
H1125 C1069 0.929 . S
H1126 C1070 0.930 . S
H1127 C1071 0.930 . S
H1128 C1074 0.930 . S
H1129 C1077 0.929 . S
H1130 C1082 0.929 . S
H1131 C1083 0.930 . S
H1132 C1090 0.929 . S
H1133 C1091 0.930 . S
H1134 C1092 0.930 . S
H1135 C1093 0.930 . S
H1136 C1095 0.929 . S
H1137 C1096 0.930 . S
H1138 C1097 0.930 . S
H1139 C1098 0.930 . S
H1140 C1102 0.929 . S
H1141 C1104 0.930 . S
H1142 C1110 0.929 1_655 S
H1143 C1111 0.930 . S
Li1144 N1161 1.991 . S
Li1144 O1204 1.986 . S
Li1144 O1205 1.970 1_455 S
Li1144 O1206 1.929 1_455 S
Li1145 N1169 1.990 . S
Li1145 O1204 1.970 . S
Li1145 O1205 1.956 1_455 S
Li1145 O1207 1.985 . S
Li1146 N1191 1.992 . S
Li1146 O1204 1.968 . S
Li1146 O1206 1.949 1_455 S
Li1146 O1207 1.969 . S
Li1147 N1197 1.990 . S
Li1147 O1205 1.961 . S
Li1147 O1206 1.970 . S
Li1147 O1207 1.932 1_655 S
C1148 C1150 1.348 . S
C1148 C1151 1.356 . S
C1148 O1204 1.325 . S
N1149 C1152 1.314 . S
N1149 C1153 1.279 . S
C1150 C1148 1.348 . S
C1150 C1152 1.353 . S
C1150 H1208 0.929 . S
C1151 C1148 1.356 . S
C1151 C1153 1.358 . S
C1151 H1209 0.930 . S
C1152 N1149 1.314 . S
C1152 C1150 1.353 . S
C1152 H1210 0.930 . S
C1153 N1149 1.279 . S
C1153 C1151 1.358 . S
C1153 H1211 0.930 . S
C1154 C1157 1.348 1_655 S
C1154 C1158 1.356 . S
C1154 O1205 1.325 . S
C1155 N1156 1.279 . S
C1155 C1158 1.358 . S
C1155 H1212 0.930 . S
N1156 C1155 1.279 . S
N1156 C1159 1.314 1_655 S
C1157 C1154 1.348 1_455 S
C1157 C1159 1.353 . S
C1157 H1213 0.929 . S
C1158 C1154 1.356 . S
C1158 C1155 1.358 . S
C1158 H1214 0.930 . S
C1159 N1156 1.314 1_455 S
C1159 C1157 1.353 . S
C1159 H1215 0.930 . S
C1160 N1161 1.314 1_655 S
C1160 C1165 1.353 . S
C1160 H1166 0.930 . S
N1161 Li1144 1.991 . S
N1161 C1160 1.314 1_455 S
N1161 C1163 1.279 . S
C1162 C1163 1.358 . S
C1162 C1164 1.369 . S
C1162 H1216 0.930 . S
C1163 N1161 1.279 . S
C1163 C1162 1.358 . S
C1163 H1167 0.930 . S
C1164 C1162 1.369 . S
C1164 C1165 1.335 1_455 S
C1165 C1160 1.353 . S
C1165 C1164 1.335 1_655 S
C1165 H1217 0.929 . S
H1166 C1160 0.930 . S
H1167 C1163 0.930 . S
C1168 N1169 1.314 . S
C1168 C1170 1.353 . S
C1168 H1174 0.930 . S
N1169 Li1145 1.990 . S
N1169 C1168 1.314 . S
N1169 C1172 1.279 . S
C1170 C1168 1.353 . S
C1170 C1173 1.348 . S
C1170 H1218 0.929 . S
C1171 C1172 1.358 . S
C1171 C1173 1.356 . S
C1171 H1219 0.930 . S
C1172 N1169 1.279 . S
C1172 C1171 1.358 . S
C1172 H1175 0.930 . S
C1173 C1170 1.348 . S
C1173 C1171 1.356 . S
H1174 C1168 0.930 . S
H1175 C1172 0.930 . S
C1176 C1178 1.348 . S
C1176 C1179 1.356 . S
C1176 O1206 1.325 . S
N1177 C1180 1.314 . S
N1177 C1181 1.279 . S
C1178 C1176 1.348 . S
C1178 C1180 1.353 . S
C1178 H1220 0.929 . S
C1179 C1176 1.356 . S
C1179 C1181 1.358 . S
C1179 H1221 0.930 . S
C1180 N1177 1.314 . S
C1180 C1178 1.353 . S
C1180 H1222 0.930 . S
C1181 N1177 1.279 . S
C1181 C1179 1.358 . S
C1181 H1223 0.930 . S
C1182 C1183 1.348 1_455 S
C1182 C1184 1.356 . S
C1182 O1207 1.324 . S
C1183 C1182 1.348 1_655 S
C1183 C1185 1.353 . S
C1183 H1224 0.929 . S
C1184 C1182 1.356 . S
C1184 C1186 1.358 . S
C1184 H1225 0.930 . S
C1185 C1183 1.353 . S
C1185 N1187 1.314 . S
C1185 H1226 0.930 . S
C1186 C1184 1.358 . S
C1186 N1187 1.279 1_455 S
C1186 H1227 0.930 . S
N1187 C1185 1.314 . S
N1187 C1186 1.279 1_655 S
C1188 C1190 1.353 . S
C1188 N1191 1.351 . S
C1188 H1194 0.930 . S
C1189 N1191 1.243 1_655 S
C1189 C1192 1.358 . S
C1189 H1195 0.930 . S
C1190 C1188 1.353 . S
C1190 C1193 1.348 . S
C1190 H1228 0.929 . S
N1191 Li1146 1.992 . S
N1191 C1188 1.351 . S
N1191 C1189 1.243 1_455 S
C1192 C1189 1.358 . S
C1192 C1193 1.356 1_655 S
C1192 H1229 0.930 . S
C1193 C1190 1.348 . S
C1193 C1192 1.356 1_455 S
H1194 C1188 0.930 . S
H1195 C1189 0.930 . S
C1196 N1197 1.314 . S
C1196 C1198 1.353 . S
C1196 H1202 0.930 . S
N1197 Li1147 1.990 . S
N1197 C1196 1.314 . S
N1197 C1200 1.279 . S
C1198 C1196 1.353 . S
C1198 C1201 1.348 . S
C1198 H1230 0.929 . S
C1199 C1200 1.358 . S
C1199 C1201 1.356 . S
C1199 H1231 0.930 . S
C1200 N1197 1.279 . S
C1200 C1199 1.358 . S
C1200 H1203 0.930 . S
C1201 C1198 1.348 . S
C1201 C1199 1.356 . S
H1202 C1196 0.930 . S
H1203 C1200 0.930 . S
O1204 Li1144 1.986 . S
O1204 Li1145 1.970 . S
O1204 Li1146 1.968 . S
O1204 C1148 1.325 . S
O1205 Li1144 1.970 1_655 S
O1205 Li1145 1.956 1_655 S
O1205 Li1147 1.961 . S
O1205 C1154 1.325 . S
O1206 Li1144 1.929 1_655 S
O1206 Li1146 1.949 1_655 S
O1206 Li1147 1.970 . S
O1206 C1176 1.325 . S
O1207 Li1145 1.985 . S
O1207 Li1146 1.969 . S
O1207 Li1147 1.932 1_455 S
O1207 C1182 1.324 . S
H1208 C1150 0.929 . S
H1209 C1151 0.930 . S
H1210 C1152 0.930 . S
H1211 C1153 0.930 . S
H1212 C1155 0.930 . S
H1213 C1157 0.929 . S
H1214 C1158 0.930 . S
H1215 C1159 0.930 . S
H1216 C1162 0.930 . S
H1217 C1165 0.929 . S
H1218 C1170 0.929 . S
H1219 C1171 0.930 . S
H1220 C1178 0.929 . S
H1221 C1179 0.930 . S
H1222 C1180 0.930 . S
H1223 C1181 0.930 . S
H1224 C1183 0.929 . S
H1225 C1184 0.930 . S
H1226 C1185 0.930 . S
H1227 C1186 0.930 . S
H1228 C1190 0.929 . S
H1229 C1192 0.930 . S
H1230 C1198 0.929 . S
H1231 C1199 0.930 . S
Li1232 N1249 1.990 . S
Li1232 O1292 1.956 . S
Li1232 O1293 1.970 . S
Li1232 O1294 1.961 . S
Li1233 N1257 1.990 . S
Li1233 O1292 1.970 . S
Li1233 O1293 1.956 . S
Li1233 O1295 1.961 . S
Li1234 N1279 1.990 . S
Li1234 O1292 1.961 . S
Li1234 O1294 1.956 . S
Li1234 O1295 1.970 . S
Li1235 N1285 1.990 . S
Li1235 O1293 1.961 . S
Li1235 O1294 1.970 . S
Li1235 O1295 1.956 . S
C1236 C1238 1.348 . S
C1236 C1239 1.356 . S
C1236 O1292 1.325 . S
N1237 C1240 1.314 . S
N1237 C1241 1.279 . S
C1238 C1236 1.348 . S
C1238 C1240 1.353 . S
C1238 H1296 0.929 . S
C1239 C1236 1.356 . S
C1239 C1241 1.358 . S
C1239 H1297 0.930 . S
C1240 N1237 1.314 . S
C1240 C1238 1.353 . S
C1240 H1298 0.930 . S
C1241 N1237 1.279 . S
C1241 C1239 1.358 . S
C1241 H1299 0.930 . S
C1242 C1245 1.348 . S
C1242 C1246 1.356 . S
C1242 O1293 1.325 . S
C1243 N1244 1.279 . S
C1243 C1246 1.358 . S
C1243 H1300 0.930 . S
N1244 C1243 1.279 . S
N1244 C1247 1.314 . S
C1245 C1242 1.348 . S
C1245 C1247 1.353 . S
C1245 H1301 0.929 . S
C1246 C1242 1.356 . S
C1246 C1243 1.358 . S
C1246 H1302 0.930 . S
C1247 N1244 1.314 . S
C1247 C1245 1.353 . S
C1247 H1303 0.930 . S
C1248 N1249 1.314 . S
C1248 C1253 1.353 . S
C1248 H1254 0.930 . S
N1249 Li1232 1.990 . S
N1249 C1248 1.314 . S
N1249 C1251 1.279 . S
C1250 C1251 1.358 . S
C1250 C1252 1.356 . S
C1250 H1304 0.930 . S
C1251 N1249 1.279 . S
C1251 C1250 1.358 . S
C1251 H1255 0.930 . S
C1252 C1250 1.356 . S
C1252 C1253 1.348 . S
C1253 C1248 1.353 . S
C1253 C1252 1.348 . S
C1253 H1305 0.929 . S
H1254 C1248 0.930 . S
H1255 C1251 0.930 . S
C1256 N1257 1.314 . S
C1256 C1258 1.353 . S
C1256 H1262 0.930 . S
N1257 Li1233 1.990 . S
N1257 C1256 1.314 . S
N1257 C1260 1.279 . S
C1258 C1256 1.353 . S
C1258 C1261 1.348 . S
C1258 H1306 0.929 . S
C1259 C1260 1.358 . S
C1259 C1261 1.356 . S
C1259 H1307 0.930 . S
C1260 N1257 1.279 . S
C1260 C1259 1.358 . S
C1260 H1263 0.930 . S
C1261 C1258 1.348 . S
C1261 C1259 1.356 . S
H1262 C1256 0.930 . S
H1263 C1260 0.930 . S
C1264 C1266 1.348 . S
C1264 C1267 1.356 . S
C1264 O1294 1.325 . S
N1265 C1268 1.314 . S
N1265 C1269 1.279 . S
C1266 C1264 1.348 . S
C1266 C1268 1.353 . S
C1266 H1308 0.929 . S
C1267 C1264 1.356 . S
C1267 C1269 1.358 . S
C1267 H1309 0.930 . S
C1268 N1265 1.314 . S
C1268 C1266 1.353 . S
C1268 H1310 0.930 . S
C1269 N1265 1.279 . S
C1269 C1267 1.358 . S
C1269 H1311 0.930 . S
C1270 C1271 1.348 . S
C1270 C1272 1.356 . S
C1270 O1295 1.325 . S
C1271 C1270 1.348 . S
C1271 C1273 1.353 . S
C1271 H1312 0.929 . S
C1272 C1270 1.356 . S
C1272 C1274 1.358 . S
C1272 H1313 0.930 . S
C1273 C1271 1.353 . S
C1273 N1275 1.314 . S
C1273 H1314 0.930 . S
C1274 C1272 1.358 . S
C1274 N1275 1.279 . S
C1274 H1315 0.930 . S
N1275 C1273 1.314 . S
N1275 C1274 1.279 . S
C1276 C1278 1.353 . S
C1276 N1279 1.314 . S
C1276 H1282 0.930 . S
C1277 N1279 1.279 . S
C1277 C1280 1.358 . S
C1277 H1283 0.930 . S
C1278 C1276 1.353 . S
C1278 C1281 1.348 . S
C1278 H1316 0.929 . S
N1279 Li1234 1.990 . S
N1279 C1276 1.314 . S
N1279 C1277 1.279 . S
C1280 C1277 1.358 . S
C1280 C1281 1.356 . S
C1280 H1317 0.930 . S
C1281 C1278 1.348 . S
C1281 C1280 1.356 . S
H1282 C1276 0.930 . S
H1283 C1277 0.930 . S
C1284 N1285 1.314 . S
C1284 C1286 1.353 . S
C1284 H1290 0.930 . S
N1285 Li1235 1.990 . S
N1285 C1284 1.314 . S
N1285 C1288 1.279 . S
C1286 C1284 1.353 . S
C1286 C1289 1.348 . S
C1286 H1318 0.929 . S
C1287 C1288 1.358 . S
C1287 C1289 1.356 . S
C1287 H1319 0.930 . S
C1288 N1285 1.279 . S
C1288 C1287 1.358 . S
C1288 H1291 0.930 . S
C1289 C1286 1.348 . S
C1289 C1287 1.356 . S
H1290 C1284 0.930 . S
H1291 C1288 0.930 . S
O1292 Li1232 1.956 . S
O1292 Li1233 1.970 . S
O1292 Li1234 1.961 . S
O1292 C1236 1.325 . S
O1293 Li1232 1.970 . S
O1293 Li1233 1.956 . S
O1293 Li1235 1.961 . S
O1293 C1242 1.325 . S
O1294 Li1232 1.961 . S
O1294 Li1234 1.956 . S
O1294 Li1235 1.970 . S
O1294 C1264 1.325 . S
O1295 Li1233 1.961 . S
O1295 Li1234 1.970 . S
O1295 Li1235 1.956 . S
O1295 C1270 1.325 . S
H1296 C1238 0.929 . S
H1297 C1239 0.930 . S
H1298 C1240 0.930 . S
H1299 C1241 0.930 . S
H1300 C1243 0.930 . S
H1301 C1245 0.929 . S
H1302 C1246 0.930 . S
H1303 C1247 0.930 . S
H1304 C1250 0.930 . S
H1305 C1253 0.929 . S
H1306 C1258 0.929 . S
H1307 C1259 0.930 . S
H1308 C1266 0.929 . S
H1309 C1267 0.930 . S
H1310 C1268 0.930 . S
H1311 C1269 0.930 . S
H1312 C1271 0.929 . S
H1313 C1272 0.930 . S
H1314 C1273 0.930 . S
H1315 C1274 0.930 . S
H1316 C1278 0.929 . S
H1317 C1280 0.930 . S
H1318 C1286 0.929 . S
H1319 C1287 0.930 . S
Li1320 N1337 1.990 . S
Li1320 O1380 1.956 . S
Li1320 O1381 1.970 . S
Li1320 O1382 1.961 . S
Li1321 N1345 1.990 . S
Li1321 O1380 1.970 . S
Li1321 O1381 1.956 . S
Li1321 O1383 1.961 . S
Li1322 N1367 1.990 . S
Li1322 O1380 1.961 . S
Li1322 O1382 1.956 . S
Li1322 O1383 1.970 . S
Li1323 N1373 1.990 . S
Li1323 O1381 1.961 . S
Li1323 O1382 1.970 . S
Li1323 O1383 1.956 . S
C1324 C1326 1.348 . S
C1324 C1327 1.356 . S
C1324 O1380 1.325 . S
N1325 C1328 1.314 . S
N1325 C1329 1.279 . S
C1326 C1324 1.348 . S
C1326 C1328 1.353 . S
C1326 H1384 0.929 . S
C1327 C1324 1.356 . S
C1327 C1329 1.358 . S
C1327 H1385 0.930 . S
C1328 N1325 1.314 . S
C1328 C1326 1.353 . S
C1328 H1386 0.930 . S
C1329 N1325 1.279 . S
C1329 C1327 1.358 . S
C1329 H1387 0.930 . S
C1330 C1333 1.348 . S
C1330 C1334 1.356 . S
C1330 O1381 1.325 . S
C1331 N1332 1.279 . S
C1331 C1334 1.358 . S
C1331 H1388 0.930 . S
N1332 C1331 1.279 . S
N1332 C1335 1.314 . S
C1333 C1330 1.348 . S
C1333 C1335 1.353 . S
C1333 H1389 0.929 . S
C1334 C1330 1.356 . S
C1334 C1331 1.358 . S
C1334 H1390 0.930 . S
C1335 N1332 1.314 . S
C1335 C1333 1.353 . S
C1335 H1391 0.930 . S
C1336 N1337 1.314 . S
C1336 C1341 1.353 . S
C1336 H1342 0.930 . S
N1337 Li1320 1.990 . S
N1337 C1336 1.314 . S
N1337 C1339 1.279 . S
C1338 C1339 1.358 . S
C1338 C1340 1.356 . S
C1338 H1392 0.930 . S
C1339 N1337 1.279 . S
C1339 C1338 1.358 . S
C1339 H1343 0.930 . S
C1340 C1338 1.356 . S
C1340 C1341 1.348 . S
C1341 C1336 1.353 . S
C1341 C1340 1.348 . S
C1341 H1393 0.929 . S
H1342 C1336 0.930 . S
H1343 C1339 0.930 . S
C1344 N1345 1.314 . S
C1344 C1346 1.353 . S
C1344 H1350 0.930 . S
N1345 Li1321 1.990 . S
N1345 C1344 1.314 . S
N1345 C1348 1.279 . S
C1346 C1344 1.353 . S
C1346 C1349 1.348 . S
C1346 H1394 0.929 . S
C1347 C1348 1.358 . S
C1347 C1349 1.356 . S
C1347 H1395 0.930 . S
C1348 N1345 1.279 . S
C1348 C1347 1.358 . S
C1348 H1351 0.930 . S
C1349 C1346 1.348 . S
C1349 C1347 1.356 . S
H1350 C1344 0.930 . S
H1351 C1348 0.930 . S
C1352 C1354 1.348 . S
C1352 C1355 1.356 . S
C1352 O1382 1.325 . S
N1353 C1356 1.314 . S
N1353 C1357 1.279 . S
C1354 C1352 1.348 . S
C1354 C1356 1.353 . S
C1354 H1396 0.929 . S
C1355 C1352 1.356 . S
C1355 C1357 1.358 . S
C1355 H1397 0.930 . S
C1356 N1353 1.314 . S
C1356 C1354 1.353 . S
C1356 H1398 0.930 . S
C1357 N1353 1.279 . S
C1357 C1355 1.358 . S
C1357 H1399 0.930 . S
C1358 C1359 1.348 . S
C1358 C1360 1.356 . S
C1358 O1383 1.325 . S
C1359 C1358 1.348 . S
C1359 C1361 1.353 . S
C1359 H1400 0.929 . S
C1360 C1358 1.356 . S
C1360 C1362 1.358 . S
C1360 H1401 0.930 . S
C1361 C1359 1.353 . S
C1361 N1363 1.314 . S
C1361 H1402 0.930 . S
C1362 C1360 1.358 . S
C1362 N1363 1.279 . S
C1362 H1403 0.930 . S
N1363 C1361 1.314 . S
N1363 C1362 1.279 . S
C1364 C1366 1.353 . S
C1364 N1367 1.314 . S
C1364 H1370 0.930 . S
C1365 N1367 1.279 . S
C1365 C1368 1.358 . S
C1365 H1371 0.930 . S
C1366 C1364 1.353 . S
C1366 C1369 1.348 . S
C1366 H1404 0.929 . S
N1367 Li1322 1.990 . S
N1367 C1364 1.314 . S
N1367 C1365 1.279 . S
C1368 C1365 1.358 . S
C1368 C1369 1.356 . S
C1368 H1405 0.930 . S
C1369 C1366 1.348 . S
C1369 C1368 1.356 . S
H1370 C1364 0.930 . S
H1371 C1365 0.930 . S
C1372 N1373 1.314 . S
C1372 C1374 1.353 . S
C1372 H1378 0.930 . S
N1373 Li1323 1.990 . S
N1373 C1372 1.314 . S
N1373 C1376 1.279 . S
C1374 C1372 1.353 . S
C1374 C1377 1.348 . S
C1374 H1406 0.929 . S
C1375 C1376 1.358 . S
C1375 C1377 1.356 . S
C1375 H1407 0.930 . S
C1376 N1373 1.279 . S
C1376 C1375 1.358 . S
C1376 H1379 0.930 . S
C1377 C1374 1.348 . S
C1377 C1375 1.356 . S
H1378 C1372 0.930 . S
H1379 C1376 0.930 . S
O1380 Li1320 1.956 . S
O1380 Li1321 1.970 . S
O1380 Li1322 1.961 . S
O1380 C1324 1.325 . S
O1381 Li1320 1.970 . S
O1381 Li1321 1.956 . S
O1381 Li1323 1.961 . S
O1381 C1330 1.325 . S
O1382 Li1320 1.961 . S
O1382 Li1322 1.956 . S
O1382 Li1323 1.970 . S
O1382 C1352 1.325 . S
O1383 Li1321 1.961 . S
O1383 Li1322 1.970 . S
O1383 Li1323 1.956 . S
O1383 C1358 1.325 . S
H1384 C1326 0.929 . S
H1385 C1327 0.930 . S
H1386 C1328 0.930 . S
H1387 C1329 0.930 . S
H1388 C1331 0.930 . S
H1389 C1333 0.929 . S
H1390 C1334 0.930 . S
H1391 C1335 0.930 . S
H1392 C1338 0.930 . S
H1393 C1341 0.929 . S
H1394 C1346 0.929 . S
H1395 C1347 0.930 . S
H1396 C1354 0.929 . S
H1397 C1355 0.930 . S
H1398 C1356 0.930 . S
H1399 C1357 0.930 . S
H1400 C1359 0.929 . S
H1401 C1360 0.930 . S
H1402 C1361 0.930 . S
H1403 C1362 0.930 . S
H1404 C1366 0.929 . S
H1405 C1368 0.930 . S
H1406 C1374 0.929 . S
H1407 C1375 0.930 . S
Li1408 N1425 1.990 . S
Li1408 O1468 1.956 . S
Li1408 O1469 1.970 . S
Li1408 O1470 1.961 . S
Li1409 N1433 1.990 . S
Li1409 O1468 1.970 . S
Li1409 O1469 1.956 . S
Li1409 O1471 1.961 . S
Li1410 N1455 1.990 . S
Li1410 O1468 1.961 . S
Li1410 O1470 1.956 . S
Li1410 O1471 1.970 . S
Li1411 N1461 1.990 . S
Li1411 O1469 1.961 . S
Li1411 O1470 1.970 . S
Li1411 O1471 1.956 . S
C1412 C1414 1.348 1_545 S
C1412 C1415 1.356 . S
C1412 O1468 1.325 . S
N1413 C1416 1.314 . S
N1413 C1417 1.279 . S
C1414 C1412 1.348 1_565 S
C1414 C1416 1.353 . S
C1414 H1472 0.929 . S
C1415 C1412 1.356 . S
C1415 C1417 1.358 1_545 S
C1415 H1473 0.930 . S
C1416 N1413 1.314 . S
C1416 C1414 1.353 . S
C1416 H1474 0.930 . S
C1417 N1413 1.279 . S
C1417 C1415 1.358 1_565 S
C1417 H1475 0.930 . S
C1418 C1421 1.348 . S
C1418 C1422 1.356 . S
C1418 O1469 1.325 . S
C1419 N1420 1.279 . S
C1419 C1422 1.358 . S
C1419 H1476 0.930 . S
N1420 C1419 1.279 . S
N1420 C1423 1.314 . S
C1421 C1418 1.348 . S
C1421 C1423 1.353 . S
C1421 H1477 0.929 . S
C1422 C1418 1.356 . S
C1422 C1419 1.358 . S
C1422 H1478 0.930 . S
C1423 N1420 1.314 . S
C1423 C1421 1.353 . S
C1423 H1479 0.930 . S
C1424 N1425 1.314 . S
C1424 C1429 1.353 . S
C1424 H1430 0.930 . S
N1425 Li1408 1.990 . S
N1425 C1424 1.314 . S
N1425 C1427 1.279 . S
C1426 C1427 1.358 . S
C1426 C1428 1.356 . S
C1426 H1480 0.930 . S
C1427 N1425 1.279 . S
C1427 C1426 1.358 . S
C1427 H1431 0.930 . S
C1428 C1426 1.356 . S
C1428 C1429 1.348 . S
C1429 C1424 1.353 . S
C1429 C1428 1.348 . S
C1429 H1481 0.929 . S
H1430 C1424 0.930 . S
H1431 C1427 0.930 . S
C1432 N1433 1.314 1_565 S
C1432 C1434 1.353 . S
C1432 H1438 0.930 . S
N1433 Li1409 1.990 . S
N1433 C1432 1.314 1_545 S
N1433 C1436 1.279 1_545 S
C1434 C1432 1.353 . S
C1434 C1437 1.348 . S
C1434 H1482 0.929 . S
C1435 C1436 1.358 . S
C1435 C1437 1.356 . S
C1435 H1483 0.930 . S
C1436 N1433 1.279 1_565 S
C1436 C1435 1.358 . S
C1436 H1439 0.930 1_565 S
C1437 C1434 1.348 . S
C1437 C1435 1.356 . S
H1438 C1432 0.930 . S
H1439 C1436 0.930 1_545 S
C1440 C1442 1.348 . S
C1440 C1443 1.356 . S
C1440 O1470 1.325 . S
N1441 C1444 1.314 . S
N1441 C1445 1.279 . S
C1442 C1440 1.348 . S
C1442 C1444 1.353 . S
C1442 H1484 0.929 . S
C1443 C1440 1.356 . S
C1443 C1445 1.358 . S
C1443 H1485 0.930 . S
C1444 N1441 1.314 . S
C1444 C1442 1.353 . S
C1444 H1486 0.930 . S
C1445 N1441 1.279 . S
C1445 C1443 1.358 . S
C1445 H1487 0.930 . S
C1446 C1447 1.348 . S
C1446 C1448 1.356 . S
C1446 O1471 1.325 . S
C1447 C1446 1.348 . S
C1447 C1449 1.353 . S
C1447 H1488 0.929 . S
C1448 C1446 1.356 . S
C1448 C1450 1.358 . S
C1448 H1489 0.930 . S
C1449 C1447 1.353 . S
C1449 N1451 1.314 . S
C1449 H1490 0.930 . S
C1450 C1448 1.358 . S
C1450 N1451 1.279 . S
C1450 H1491 0.930 . S
N1451 C1449 1.314 . S
N1451 C1450 1.279 . S
C1452 C1454 1.353 . S
C1452 N1455 1.314 . S
C1452 H1458 0.930 . S
C1453 N1455 1.279 . S
C1453 C1456 1.358 . S
C1453 H1459 0.930 . S
C1454 C1452 1.353 . S
C1454 C1457 1.348 . S
C1454 H1492 0.929 . S
N1455 Li1410 1.990 . S
N1455 C1452 1.314 . S
N1455 C1453 1.279 . S
C1456 C1453 1.358 . S
C1456 C1457 1.356 . S
C1456 H1493 0.930 . S
C1457 C1454 1.348 . S
C1457 C1456 1.356 . S
H1458 C1452 0.930 . S
H1459 C1453 0.930 . S
C1460 N1461 1.314 . S
C1460 C1462 1.353 . S
C1460 H1466 0.930 . S
N1461 Li1411 1.990 . S
N1461 C1460 1.314 . S
N1461 C1464 1.279 . S
C1462 C1460 1.353 . S
C1462 C1465 1.348 . S
C1462 H1494 0.929 . S
C1463 C1464 1.358 . S
C1463 C1465 1.356 . S
C1463 H1495 0.930 . S
C1464 N1461 1.279 . S
C1464 C1463 1.358 . S
C1464 H1467 0.930 . S
C1465 C1462 1.348 . S
C1465 C1463 1.356 . S
H1466 C1460 0.930 . S
H1467 C1464 0.930 . S
O1468 Li1408 1.956 . S
O1468 Li1409 1.970 . S
O1468 Li1410 1.961 . S
O1468 C1412 1.325 . S
O1469 Li1408 1.970 . S
O1469 Li1409 1.956 . S
O1469 Li1411 1.961 . S
O1469 C1418 1.325 . S
O1470 Li1408 1.961 . S
O1470 Li1410 1.956 . S
O1470 Li1411 1.970 . S
O1470 C1440 1.325 . S
O1471 Li1409 1.961 . S
O1471 Li1410 1.970 . S
O1471 Li1411 1.956 . S
O1471 C1446 1.325 . S
H1472 C1414 0.929 . S
H1473 C1415 0.930 . S
H1474 C1416 0.930 . S
H1475 C1417 0.930 . S
H1476 C1419 0.930 . S
H1477 C1421 0.929 . S
H1478 C1422 0.930 . S
H1479 C1423 0.930 . S
H1480 C1426 0.930 . S
H1481 C1429 0.929 . S
H1482 C1434 0.929 . S
H1483 C1435 0.930 . S
H1484 C1442 0.929 . S
H1485 C1443 0.930 . S
H1486 C1444 0.930 . S
H1487 C1445 0.930 . S
H1488 C1447 0.929 . S
H1489 C1448 0.930 . S
H1490 C1449 0.930 . S
H1491 C1450 0.930 . S
H1492 C1454 0.929 . S
H1493 C1456 0.930 . S
H1494 C1462 0.929 . S
H1495 C1463 0.930 . S
Li1496 N1513 1.990 . S
Li1496 O1556 1.956 . S
Li1496 O1557 1.970 . S
Li1496 O1558 1.961 . S
Li1497 N1521 1.990 . S
Li1497 O1556 1.970 . S
Li1497 O1557 1.956 . S
Li1497 O1559 1.961 . S
Li1498 N1543 1.990 . S
Li1498 O1556 1.961 . S
Li1498 O1558 1.956 . S
Li1498 O1559 1.970 . S
Li1499 N1549 1.990 . S
Li1499 O1557 1.961 . S
Li1499 O1558 1.970 . S
Li1499 O1559 1.956 . S
C1500 C1502 1.348 . S
C1500 C1503 1.356 . S
C1500 O1556 1.325 . S
N1501 C1504 1.314 . S
N1501 C1505 1.279 . S
C1502 C1500 1.348 . S
C1502 C1504 1.353 . S
C1502 H1560 0.929 . S
C1503 C1500 1.356 . S
C1503 C1505 1.358 . S
C1503 H1561 0.930 . S
C1504 N1501 1.314 . S
C1504 C1502 1.353 . S
C1504 H1562 0.930 . S
C1505 N1501 1.279 . S
C1505 C1503 1.358 . S
C1505 H1563 0.930 . S
C1506 C1509 1.348 . S
C1506 C1510 1.356 . S
C1506 O1557 1.325 . S
C1507 N1508 1.279 . S
C1507 C1510 1.358 . S
C1507 H1564 0.930 . S
N1508 C1507 1.279 . S
N1508 C1511 1.314 . S
C1509 C1506 1.348 . S
C1509 C1511 1.353 . S
C1509 H1565 0.929 . S
C1510 C1506 1.356 . S
C1510 C1507 1.358 . S
C1510 H1566 0.930 . S
C1511 N1508 1.314 . S
C1511 C1509 1.353 . S
C1511 H1567 0.930 . S
C1512 N1513 1.314 . S
C1512 C1517 1.353 . S
C1512 H1518 0.930 . S
N1513 Li1496 1.990 . S
N1513 C1512 1.314 . S
N1513 C1515 1.279 . S
C1514 C1515 1.358 . S
C1514 C1516 1.356 . S
C1514 H1568 0.930 . S
C1515 N1513 1.279 . S
C1515 C1514 1.358 . S
C1515 H1519 0.930 . S
C1516 C1514 1.356 . S
C1516 C1517 1.348 . S
C1517 C1512 1.353 . S
C1517 C1516 1.348 . S
C1517 H1569 0.929 . S
H1518 C1512 0.930 . S
H1519 C1515 0.930 . S
C1520 N1521 1.314 . S
C1520 C1522 1.353 . S
C1520 H1526 0.930 . S
N1521 Li1497 1.990 . S
N1521 C1520 1.314 . S
N1521 C1524 1.279 . S
C1522 C1520 1.353 . S
C1522 C1525 1.348 . S
C1522 H1570 0.929 . S
C1523 C1524 1.358 . S
C1523 C1525 1.356 . S
C1523 H1571 0.930 . S
C1524 N1521 1.279 . S
C1524 C1523 1.358 . S
C1524 H1527 0.930 . S
C1525 C1522 1.348 . S
C1525 C1523 1.356 . S
H1526 C1520 0.930 . S
H1527 C1524 0.930 . S
C1528 C1530 1.348 . S
C1528 C1531 1.356 . S
C1528 O1558 1.325 . S
N1529 C1532 1.314 . S
N1529 C1533 1.279 . S
C1530 C1528 1.348 . S
C1530 C1532 1.353 . S
C1530 H1572 0.929 . S
C1531 C1528 1.356 . S
C1531 C1533 1.358 . S
C1531 H1573 0.930 . S
C1532 N1529 1.314 . S
C1532 C1530 1.353 . S
C1532 H1574 0.930 . S
C1533 N1529 1.279 . S
C1533 C1531 1.358 . S
C1533 H1575 0.930 . S
C1534 C1535 1.348 . S
C1534 C1536 1.356 . S
C1534 O1559 1.325 . S
C1535 C1534 1.348 . S
C1535 C1537 1.353 . S
C1535 H1576 0.929 . S
C1536 C1534 1.356 . S
C1536 C1538 1.358 . S
C1536 H1577 0.930 . S
C1537 C1535 1.353 . S
C1537 N1539 1.314 . S
C1537 H1578 0.930 . S
C1538 C1536 1.358 . S
C1538 N1539 1.279 . S
C1538 H1579 0.930 . S
N1539 C1537 1.314 . S
N1539 C1538 1.279 . S
C1540 C1542 1.353 . S
C1540 N1543 1.314 . S
C1540 H1546 0.930 . S
C1541 N1543 1.279 . S
C1541 C1544 1.358 . S
C1541 H1547 0.930 . S
C1542 C1540 1.353 . S
C1542 C1545 1.348 . S
C1542 H1580 0.929 . S
N1543 Li1498 1.990 . S
N1543 C1540 1.314 . S
N1543 C1541 1.279 . S
C1544 C1541 1.358 . S
C1544 C1545 1.356 . S
C1544 H1581 0.930 . S
C1545 C1542 1.348 . S
C1545 C1544 1.356 . S
H1546 C1540 0.930 . S
H1547 C1541 0.930 . S
C1548 N1549 1.314 . S
C1548 C1550 1.353 . S
C1548 H1554 0.930 . S
N1549 Li1499 1.990 . S
N1549 C1548 1.314 . S
N1549 C1552 1.279 . S
C1550 C1548 1.353 . S
C1550 C1553 1.348 . S
C1550 H1582 0.929 . S
C1551 C1552 1.358 . S
C1551 C1553 1.356 . S
C1551 H1583 0.930 . S
C1552 N1549 1.279 . S
C1552 C1551 1.358 . S
C1552 H1555 0.930 . S
C1553 C1550 1.348 . S
C1553 C1551 1.356 . S
H1554 C1548 0.930 . S
H1555 C1552 0.930 . S
O1556 Li1496 1.956 . S
O1556 Li1497 1.970 . S
O1556 Li1498 1.961 . S
O1556 C1500 1.325 . S
O1557 Li1496 1.970 . S
O1557 Li1497 1.956 . S
O1557 Li1499 1.961 . S
O1557 C1506 1.325 . S
O1558 Li1496 1.961 . S
O1558 Li1498 1.956 . S
O1558 Li1499 1.970 . S
O1558 C1528 1.325 . S
O1559 Li1497 1.961 . S
O1559 Li1498 1.970 . S
O1559 Li1499 1.956 . S
O1559 C1534 1.325 . S
H1560 C1502 0.929 . S
H1561 C1503 0.930 . S
H1562 C1504 0.930 . S
H1563 C1505 0.930 . S
H1564 C1507 0.930 . S
H1565 C1509 0.929 . S
H1566 C1510 0.930 . S
H1567 C1511 0.930 . S
H1568 C1514 0.930 . S
H1569 C1517 0.929 . S
H1570 C1522 0.929 . S
H1571 C1523 0.930 . S
H1572 C1530 0.929 . S
H1573 C1531 0.930 . S
H1574 C1532 0.930 . S
H1575 C1533 0.930 . S
H1576 C1535 0.929 . S
H1577 C1536 0.930 . S
H1578 C1537 0.930 . S
H1579 C1538 0.930 . S
H1580 C1542 0.929 . S
H1581 C1544 0.930 . S
H1582 C1550 0.929 . S
H1583 C1551 0.930 . S
Li1584 N1601 1.990 . S
Li1584 O1644 1.956 . S
Li1584 O1645 1.970 . S
Li1584 O1646 1.961 1_545 S
Li1585 N1609 1.990 . S
Li1585 O1644 1.970 . S
Li1585 O1645 1.956 . S
Li1585 O1647 1.961 . S
Li1586 N1631 1.990 . S
Li1586 O1644 1.961 . S
Li1586 O1646 1.956 1_545 S
Li1586 O1647 1.970 . S
Li1587 N1637 1.990 . S
Li1587 O1645 1.961 1_565 S
Li1587 O1646 1.970 . S
Li1587 O1647 1.956 1_565 S
C1588 C1590 1.348 . S
C1588 C1591 1.356 . S
C1588 O1644 1.325 . S
N1589 C1592 1.314 . S
N1589 C1593 1.279 . S
C1590 C1588 1.348 . S
C1590 C1592 1.353 . S
C1590 H1648 0.929 . S
C1591 C1588 1.356 . S
C1591 C1593 1.358 . S
C1591 H1649 0.930 . S
C1592 N1589 1.314 . S
C1592 C1590 1.353 . S
C1592 H1650 0.930 . S
C1593 N1589 1.279 . S
C1593 C1591 1.358 . S
C1593 H1651 0.930 . S
C1594 C1597 1.348 . S
C1594 C1598 1.356 . S
C1594 O1645 1.325 . S
C1595 N1596 1.279 . S
C1595 C1598 1.358 . S
C1595 H1652 0.930 1_545 S
N1596 C1595 1.279 . S
N1596 C1599 1.314 . S
C1597 C1594 1.348 . S
C1597 C1599 1.353 . S
C1597 H1653 0.929 . S
C1598 C1594 1.356 . S
C1598 C1595 1.358 . S
C1598 H1654 0.930 1_545 S
C1599 N1596 1.314 . S
C1599 C1597 1.353 . S
C1599 H1655 0.930 . S
C1600 N1601 1.314 1_565 S
C1600 C1605 1.353 . S
C1600 H1606 0.930 . S
N1601 Li1584 1.990 . S
N1601 C1600 1.314 1_545 S
N1601 C1603 1.279 . S
C1602 C1603 1.358 . S
C1602 C1604 1.356 . S
C1602 H1656 0.930 . S
C1603 N1601 1.279 . S
C1603 C1602 1.358 . S
C1603 H1607 0.930 . S
C1604 C1602 1.356 . S
C1604 C1605 1.348 1_545 S
C1605 C1600 1.353 . S
C1605 C1604 1.348 1_565 S
C1605 H1657 0.929 . S
H1606 C1600 0.930 . S
H1607 C1603 0.930 . S
C1608 N1609 1.314 . S
C1608 C1610 1.353 . S
C1608 H1614 0.930 . S
N1609 Li1585 1.990 . S
N1609 C1608 1.314 . S
N1609 C1612 1.279 . S
C1610 C1608 1.353 . S
C1610 C1613 1.348 . S
C1610 H1658 0.929 . S
C1611 C1612 1.358 . S
C1611 C1613 1.356 . S
C1611 H1659 0.930 . S
C1612 N1609 1.279 . S
C1612 C1611 1.358 . S
C1612 H1615 0.930 . S
C1613 C1610 1.348 . S
C1613 C1611 1.356 . S
H1614 C1608 0.930 . S
H1615 C1612 0.930 . S
C1616 C1618 1.348 . S
C1616 C1619 1.356 . S
C1616 O1646 1.325 . S
N1617 C1620 1.314 . S
N1617 C1621 1.279 . S
C1618 C1616 1.348 . S
C1618 C1620 1.353 . S
C1618 H1660 0.929 . S
C1619 C1616 1.356 . S
C1619 C1621 1.358 . S
C1619 H1661 0.930 . S
C1620 N1617 1.314 . S
C1620 C1618 1.353 . S
C1620 H1662 0.930 . S
C1621 N1617 1.279 . S
C1621 C1619 1.358 . S
C1621 H1663 0.930 . S
C1622 C1623 1.357 . S
C1622 C1624 1.356 . S
C1622 O1647 1.325 . S
C1623 C1622 1.357 . S
C1623 C1625 1.353 . S
C1623 H1664 0.921 1_545 S
C1624 C1622 1.356 . S
C1624 C1626 1.358 . S
C1624 H1665 0.930 . S
C1625 C1623 1.353 . S
C1625 N1627 1.319 . S
C1625 H1666 0.925 1_545 S
C1626 C1624 1.358 . S
C1626 N1627 1.279 . S
C1626 H1667 0.930 . S
N1627 C1625 1.319 . S
N1627 C1626 1.279 . S
C1628 C1630 1.353 . S
C1628 N1631 1.314 . S
C1628 H1634 0.930 . S
C1629 N1631 1.279 1_565 S
C1629 C1632 1.358 . S
C1629 H1635 0.930 . S
C1630 C1628 1.353 . S
C1630 C1633 1.348 . S
C1630 H1668 0.929 . S
N1631 Li1586 1.990 . S
N1631 C1628 1.314 . S
N1631 C1629 1.279 1_545 S
C1632 C1629 1.358 . S
C1632 C1633 1.356 1_565 S
C1632 H1669 0.930 . S
C1633 C1630 1.348 . S
C1633 C1632 1.356 1_545 S
H1634 C1628 0.930 . S
H1635 C1629 0.930 . S
C1636 N1637 1.314 . S
C1636 C1638 1.353 . S
C1636 H1642 0.930 . S
N1637 Li1587 1.990 . S
N1637 C1636 1.314 . S
N1637 C1640 1.279 . S
C1638 C1636 1.353 . S
C1638 C1641 1.348 . S
C1638 H1670 0.929 . S
C1639 C1640 1.358 . S
C1639 C1641 1.356 . S
C1639 H1671 0.930 . S
C1640 N1637 1.279 . S
C1640 C1639 1.358 . S
C1640 H1643 0.930 . S
C1641 C1638 1.348 . S
C1641 C1639 1.356 . S
H1642 C1636 0.930 . S
H1643 C1640 0.930 . S
O1644 Li1584 1.956 . S
O1644 Li1585 1.970 . S
O1644 Li1586 1.961 . S
O1644 C1588 1.325 . S
O1645 Li1584 1.970 . S
O1645 Li1585 1.956 . S
O1645 Li1587 1.961 1_545 S
O1645 C1594 1.325 . S
O1646 Li1584 1.961 1_565 S
O1646 Li1586 1.956 1_565 S
O1646 Li1587 1.970 . S
O1646 C1616 1.325 . S
O1647 Li1585 1.961 . S
O1647 Li1586 1.970 . S
O1647 Li1587 1.956 1_545 S
O1647 C1622 1.325 . S
H1648 C1590 0.929 . S
H1649 C1591 0.930 . S
H1650 C1592 0.930 . S
H1651 C1593 0.930 . S
H1652 C1595 0.930 1_565 S
H1653 C1597 0.929 . S
H1654 C1598 0.930 1_565 S
H1655 C1599 0.930 . S
H1656 C1602 0.930 . S
H1657 C1605 0.929 . S
H1658 C1610 0.929 . S
H1659 C1611 0.930 . S
H1660 C1618 0.929 . S
H1661 C1619 0.930 . S
H1662 C1620 0.930 . S
H1663 C1621 0.930 . S
H1664 C1623 0.921 1_565 S
H1665 C1624 0.930 . S
H1666 C1625 0.925 1_565 S
H1667 C1626 0.930 . S
H1668 C1630 0.929 . S
H1669 C1632 0.930 . S
H1670 C1638 0.929 . S
H1671 C1639 0.930 . S
Li1672 N1689 1.990 . S
Li1672 O1732 1.956 . S
Li1672 O1733 1.970 . S
Li1672 O1734 1.961 1_554 S
Li1673 N1697 1.990 . S
Li1673 O1732 1.970 . S
Li1673 O1733 1.956 . S
Li1673 O1735 1.961 . S
Li1674 N1719 1.990 . S
Li1674 O1732 1.961 . S
Li1674 O1734 1.956 1_554 S
Li1674 O1735 1.970 . S
Li1675 N1725 1.990 . S
Li1675 O1733 1.961 1_556 S
Li1675 O1734 1.970 . S
Li1675 O1735 1.956 1_556 S
C1676 C1678 1.348 . S
C1676 C1679 1.356 . S
C1676 O1732 1.325 . S
N1677 C1680 1.314 . S
N1677 C1681 1.279 . S
C1678 C1676 1.348 . S
C1678 C1680 1.353 . S
C1678 H1736 0.929 . S
C1679 C1676 1.356 . S
C1679 C1681 1.358 . S
C1679 H1737 0.930 . S
C1680 N1677 1.314 . S
C1680 C1678 1.353 . S
C1680 H1738 0.930 . S
C1681 N1677 1.279 . S
C1681 C1679 1.358 . S
C1681 H1739 0.930 . S
C1682 C1685 1.348 . S
C1682 C1686 1.356 . S
C1682 O1733 1.325 . S
C1683 N1684 1.279 . S
C1683 C1686 1.358 . S
C1683 H1740 0.930 . S
N1684 C1683 1.279 . S
N1684 C1687 1.314 . S
C1685 C1682 1.348 . S
C1685 C1687 1.353 . S
C1685 H1741 0.929 . S
C1686 C1682 1.356 . S
C1686 C1683 1.358 . S
C1686 H1742 0.930 . S
C1687 N1684 1.314 . S
C1687 C1685 1.353 . S
C1687 H1743 0.930 . S
C1688 N1689 1.314 . S
C1688 C1693 1.353 . S
C1688 H1694 0.930 1_554 S
N1689 Li1672 1.990 . S
N1689 C1688 1.314 . S
N1689 C1691 1.279 . S
C1690 C1691 1.358 . S
C1690 C1692 1.356 . S
C1690 H1744 0.930 . S
C1691 N1689 1.279 . S
C1691 C1690 1.358 . S
C1691 H1695 0.930 . S
C1692 C1690 1.356 . S
C1692 C1693 1.348 . S
C1693 C1688 1.353 . S
C1693 C1692 1.348 . S
C1693 H1745 0.929 1_554 S
H1694 C1688 0.930 1_556 S
H1695 C1691 0.930 . S
C1696 N1697 1.314 . S
C1696 C1698 1.353 . S
C1696 H1702 0.930 . S
N1697 Li1673 1.990 . S
N1697 C1696 1.314 . S
N1697 C1700 1.279 . S
C1698 C1696 1.353 . S
C1698 C1701 1.348 . S
C1698 H1746 0.929 . S
C1699 C1700 1.358 . S
C1699 C1701 1.356 . S
C1699 H1747 0.930 . S
C1700 N1697 1.279 . S
C1700 C1699 1.358 . S
C1700 H1703 0.930 . S
C1701 C1698 1.348 . S
C1701 C1699 1.356 . S
H1702 C1696 0.930 . S
H1703 C1700 0.930 . S
C1704 C1706 1.348 . S
C1704 C1707 1.356 . S
C1704 O1734 1.325 . S
N1705 C1708 1.314 . S
N1705 C1709 1.279 . S
C1706 C1704 1.348 . S
C1706 C1708 1.353 . S
C1706 H1748 0.929 . S
C1707 C1704 1.356 . S
C1707 C1709 1.358 . S
C1707 H1749 0.930 . S
C1708 N1705 1.314 . S
C1708 C1706 1.353 . S
C1708 H1750 0.930 . S
C1709 N1705 1.279 . S
C1709 C1707 1.358 . S
C1709 H1751 0.930 . S
C1710 C1711 1.348 . S
C1710 C1712 1.356 . S
C1710 O1735 1.325 . S
C1711 C1710 1.348 . S
C1711 C1713 1.353 . S
C1711 H1752 0.929 . S
C1712 C1710 1.356 . S
C1712 C1714 1.358 . S
C1712 H1753 0.930 . S
C1713 C1711 1.353 . S
C1713 N1715 1.314 . S
C1713 H1754 0.930 . S
C1714 C1712 1.358 . S
C1714 N1715 1.279 . S
C1714 H1755 0.930 . S
N1715 C1713 1.314 . S
N1715 C1714 1.279 . S
C1716 C1718 1.353 . S
C1716 N1719 1.314 . S
C1716 H1722 0.930 . S
C1717 N1719 1.279 . S
C1717 C1720 1.359 1_554 S
C1717 H1723 0.930 1_554 S
C1718 C1716 1.353 . S
C1718 C1721 1.348 . S
C1718 H1756 0.929 . S
N1719 Li1674 1.990 . S
N1719 C1716 1.314 . S
N1719 C1717 1.279 . S
C1720 C1717 1.359 1_556 S
C1720 C1721 1.359 1_556 S
C1720 H1757 0.926 . S
C1721 C1718 1.348 . S
C1721 C1720 1.359 1_554 S
H1722 C1716 0.930 . S
H1723 C1717 0.930 1_556 S
C1724 N1725 1.314 . S
C1724 C1726 1.353 . S
C1724 H1730 0.930 . S
N1725 Li1675 1.990 . S
N1725 C1724 1.314 . S
N1725 C1728 1.279 . S
C1726 C1724 1.353 . S
C1726 C1729 1.348 . S
C1726 H1758 0.929 . S
C1727 C1728 1.358 . S
C1727 C1729 1.356 . S
C1727 H1759 0.930 . S
C1728 N1725 1.279 . S
C1728 C1727 1.358 . S
C1728 H1731 0.930 . S
C1729 C1726 1.348 . S
C1729 C1727 1.356 . S
H1730 C1724 0.930 . S
H1731 C1728 0.930 . S
O1732 Li1672 1.956 . S
O1732 Li1673 1.970 . S
O1732 Li1674 1.961 . S
O1732 C1676 1.325 . S
O1733 Li1672 1.970 . S
O1733 Li1673 1.956 . S
O1733 Li1675 1.961 1_554 S
O1733 C1682 1.325 . S
O1734 Li1672 1.961 1_556 S
O1734 Li1674 1.956 1_556 S
O1734 Li1675 1.970 . S
O1734 C1704 1.325 . S
O1735 Li1673 1.961 . S
O1735 Li1674 1.970 . S
O1735 Li1675 1.956 1_554 S
O1735 C1710 1.325 . S
H1736 C1678 0.929 . S
H1737 C1679 0.930 . S
H1738 C1680 0.930 . S
H1739 C1681 0.930 . S
H1740 C1683 0.930 . S
H1741 C1685 0.929 . S
H1742 C1686 0.930 . S
H1743 C1687 0.930 . S
H1744 C1690 0.930 . S
H1745 C1693 0.929 1_556 S
H1746 C1698 0.929 . S
H1747 C1699 0.930 . S
H1748 C1706 0.929 . S
H1749 C1707 0.930 . S
H1750 C1708 0.930 . S
H1751 C1709 0.930 . S
H1752 C1711 0.929 . S
H1753 C1712 0.930 . S
H1754 C1713 0.930 . S
H1755 C1714 0.930 . S
H1756 C1718 0.929 . S
H1757 C1720 0.926 . S
H1758 C1726 0.929 . S
H1759 C1727 0.930 . S
Li1760 N1777 1.990 . S
Li1760 O1820 1.956 1_554 S
Li1760 O1821 1.970 . S
Li1760 O1822 1.961 . S
Li1761 N1785 1.990 . S
Li1761 O1820 1.970 1_554 S
Li1761 O1821 1.971 . S
Li1761 O1823 1.944 1_554 S
Li1762 N1807 1.990 . S
Li1762 O1820 1.961 . S
Li1762 O1822 1.956 1_556 S
Li1762 O1823 1.970 . S
Li1763 N1813 1.991 . S
Li1763 O1821 1.961 . S
Li1763 O1822 1.970 . S
Li1763 O1823 1.956 1_554 S
C1764 C1766 1.348 1_556 S
C1764 C1767 1.356 . S
C1764 O1820 1.325 . S
N1765 C1768 1.309 1_556 S
N1765 C1769 1.287 . S
C1766 C1764 1.348 1_554 S
C1766 C1768 1.353 . S
C1766 H1824 0.929 . S
C1767 C1764 1.356 . S
C1767 C1769 1.358 . S
C1767 H1825 0.930 . S
C1768 N1765 1.309 1_554 S
C1768 C1766 1.353 . S
C1768 H1826 0.930 . S
C1769 N1765 1.287 . S
C1769 C1767 1.358 . S
C1769 H1827 0.930 . S
C1770 C1773 1.348 . S
C1770 C1774 1.356 . S
C1770 O1821 1.325 . S
C1771 N1772 1.279 . S
C1771 C1774 1.358 . S
C1771 H1828 0.930 . S
N1772 C1771 1.279 . S
N1772 C1775 1.314 . S
C1773 C1770 1.348 . S
C1773 C1775 1.353 . S
C1773 H1829 0.929 . S
C1774 C1770 1.356 . S
C1774 C1771 1.358 . S
C1774 H1830 0.930 . S
C1775 N1772 1.314 . S
C1775 C1773 1.353 . S
C1775 H1831 0.930 . S
C1776 N1777 1.314 . S
C1776 C1781 1.353 . S
C1776 H1782 0.930 . S
N1777 Li1760 1.990 . S
N1777 C1776 1.314 . S
N1777 C1779 1.279 . S
C1778 C1779 1.358 . S
C1778 C1780 1.356 . S
C1778 H1832 0.930 . S
C1779 N1777 1.279 . S
C1779 C1778 1.358 . S
C1779 H1783 0.930 . S
C1780 C1778 1.356 . S
C1780 C1781 1.348 . S
C1781 C1776 1.353 . S
C1781 C1780 1.348 . S
C1781 H1833 0.929 . S
H1782 C1776 0.930 . S
H1783 C1779 0.930 . S
C1784 N1785 1.295 1_556 S
C1784 C1786 1.353 . S
C1784 H1790 0.930 . S
N1785 Li1761 1.990 . S
N1785 C1784 1.295 1_554 S
N1785 C1788 1.299 . S
C1786 C1784 1.353 . S
C1786 C1789 1.348 . S
C1786 H1834 0.929 . S
C1787 C1788 1.358 . S
C1787 C1789 1.356 1_554 S
C1787 H1835 0.930 . S
C1788 N1785 1.299 . S
C1788 C1787 1.358 . S
C1788 H1791 0.930 . S
C1789 C1786 1.348 . S
C1789 C1787 1.356 1_556 S
H1790 C1784 0.930 . S
H1791 C1788 0.930 . S
C1792 C1794 1.337 1_554 S
C1792 C1795 1.363 . S
C1792 O1822 1.327 . S
N1793 C1796 1.321 . S
N1793 C1797 1.272 1_556 S
C1794 C1792 1.337 1_556 S
C1794 C1796 1.353 . S
C1794 H1836 0.929 . S
C1795 C1792 1.363 . S
C1795 C1797 1.358 . S
C1795 H1837 0.930 . S
C1796 N1793 1.321 . S
C1796 C1794 1.353 . S
C1796 H1838 0.930 . S
C1797 N1793 1.272 1_554 S
C1797 C1795 1.358 . S
C1797 H1839 0.930 . S
C1798 C1799 1.348 . S
C1798 C1800 1.356 . S
C1798 O1823 1.325 . S
C1799 C1798 1.348 . S
C1799 C1801 1.353 . S
C1799 H1840 0.929 . S
C1800 C1798 1.356 . S
C1800 C1802 1.358 . S
C1800 H1841 0.930 . S
C1801 C1799 1.353 . S
C1801 N1803 1.314 . S
C1801 H1842 0.930 . S
C1802 C1800 1.358 . S
C1802 N1803 1.279 . S
C1802 H1843 0.930 . S
N1803 C1801 1.314 . S
N1803 C1802 1.279 . S
C1804 C1806 1.353 . S
C1804 N1807 1.314 . S
C1804 H1810 0.930 . S
C1805 N1807 1.279 . S
C1805 C1808 1.358 . S
C1805 H1811 0.930 . S
C1806 C1804 1.353 . S
C1806 C1809 1.348 . S
C1806 H1844 0.929 . S
N1807 Li1762 1.990 . S
N1807 C1804 1.314 . S
N1807 C1805 1.279 . S
C1808 C1805 1.358 . S
C1808 C1809 1.356 . S
C1808 H1845 0.930 . S
C1809 C1806 1.348 . S
C1809 C1808 1.356 . S
H1810 C1804 0.930 . S
H1811 C1805 0.930 . S
C1812 N1813 1.334 . S
C1812 C1814 1.353 . S
C1812 H1818 0.930 . S
N1813 Li1763 1.991 . S
N1813 C1812 1.334 . S
N1813 C1816 1.259 1_554 S
C1814 C1812 1.353 . S
C1814 C1817 1.348 . S
C1814 H1846 0.929 . S
C1815 C1816 1.358 . S
C1815 C1817 1.356 1_556 S
C1815 H1847 0.930 . S
C1816 N1813 1.259 1_556 S
C1816 C1815 1.358 . S
C1816 H1819 0.930 . S
C1817 C1814 1.348 . S
C1817 C1815 1.356 1_554 S
H1818 C1812 0.930 . S
H1819 C1816 0.930 . S
O1820 Li1760 1.956 1_556 S
O1820 Li1761 1.970 1_556 S
O1820 Li1762 1.961 . S
O1820 C1764 1.325 . S
O1821 Li1760 1.970 . S
O1821 Li1761 1.971 . S
O1821 Li1763 1.961 . S
O1821 C1770 1.325 . S
O1822 Li1760 1.961 . S
O1822 Li1762 1.956 1_554 S
O1822 Li1763 1.970 . S
O1822 C1792 1.327 . S
O1823 Li1761 1.944 1_556 S
O1823 Li1762 1.970 . S
O1823 Li1763 1.956 1_556 S
O1823 C1798 1.325 . S
H1824 C1766 0.929 . S
H1825 C1767 0.930 . S
H1826 C1768 0.930 . S
H1827 C1769 0.930 . S
H1828 C1771 0.930 . S
H1829 C1773 0.929 . S
H1830 C1774 0.930 . S
H1831 C1775 0.930 . S
H1832 C1778 0.930 . S
H1833 C1781 0.929 . S
H1834 C1786 0.929 . S
H1835 C1787 0.930 . S
H1836 C1794 0.929 . S
H1837 C1795 0.930 . S
H1838 C1796 0.930 . S
H1839 C1797 0.930 . S
H1840 C1799 0.929 . S
H1841 C1800 0.930 . S
H1842 C1801 0.930 . S
H1843 C1802 0.930 . S
H1844 C1806 0.929 . S
H1845 C1808 0.930 . S
H1846 C1814 0.929 . S
H1847 C1815 0.930 . S
Li1848 N1865 1.990 . S
Li1848 O1908 1.956 . S
Li1848 O1909 1.970 . S
Li1848 O1910 1.961 . S
Li1849 N1873 1.990 . S
Li1849 O1908 1.970 . S
Li1849 O1909 1.956 . S
Li1849 O1911 1.961 . S
Li1850 N1895 1.990 . S
Li1850 O1908 1.961 . S
Li1850 O1910 1.956 . S
Li1850 O1911 1.970 . S
Li1851 N1901 1.990 . S
Li1851 O1909 1.961 . S
Li1851 O1910 1.970 . S
Li1851 O1911 1.956 . S
C1852 C1854 1.348 . S
C1852 C1855 1.356 . S
C1852 O1908 1.325 . S
N1853 C1856 1.314 . S
N1853 C1857 1.279 . S
C1854 C1852 1.348 . S
C1854 C1856 1.353 . S
C1854 H1912 0.929 . S
C1855 C1852 1.356 . S
C1855 C1857 1.358 . S
C1855 H1913 0.930 . S
C1856 N1853 1.314 . S
C1856 C1854 1.353 . S
C1856 H1914 0.930 . S
C1857 N1853 1.279 . S
C1857 C1855 1.358 . S
C1857 H1915 0.930 . S
C1858 C1861 1.348 . S
C1858 C1862 1.356 . S
C1858 O1909 1.325 . S
C1859 N1860 1.279 . S
C1859 C1862 1.358 . S
C1859 H1916 0.930 . S
N1860 C1859 1.279 . S
N1860 C1863 1.314 . S
C1861 C1858 1.348 . S
C1861 C1863 1.353 . S
C1861 H1917 0.929 . S
C1862 C1858 1.356 . S
C1862 C1859 1.358 . S
C1862 H1918 0.930 . S
C1863 N1860 1.314 . S
C1863 C1861 1.353 . S
C1863 H1919 0.930 . S
C1864 N1865 1.314 . S
C1864 C1869 1.353 . S
C1864 H1870 0.930 . S
N1865 Li1848 1.990 . S
N1865 C1864 1.314 . S
N1865 C1867 1.279 . S
C1866 C1867 1.358 . S
C1866 C1868 1.356 . S
C1866 H1920 0.930 . S
C1867 N1865 1.279 . S
C1867 C1866 1.358 . S
C1867 H1871 0.930 . S
C1868 C1866 1.356 . S
C1868 C1869 1.348 . S
C1869 C1864 1.353 . S
C1869 C1868 1.348 . S
C1869 H1921 0.929 . S
H1870 C1864 0.930 . S
H1871 C1867 0.930 . S
C1872 N1873 1.314 . S
C1872 C1874 1.353 . S
C1872 H1878 0.930 . S
N1873 Li1849 1.990 . S
N1873 C1872 1.314 . S
N1873 C1876 1.279 . S
C1874 C1872 1.353 . S
C1874 C1877 1.348 . S
C1874 H1922 0.929 . S
C1875 C1876 1.358 . S
C1875 C1877 1.356 . S
C1875 H1923 0.930 . S
C1876 N1873 1.279 . S
C1876 C1875 1.358 . S
C1876 H1879 0.930 . S
C1877 C1874 1.348 . S
C1877 C1875 1.356 . S
H1878 C1872 0.930 . S
H1879 C1876 0.930 . S
C1880 C1882 1.348 . S
C1880 C1883 1.356 . S
C1880 O1910 1.325 . S
N1881 C1884 1.314 . S
N1881 C1885 1.279 . S
C1882 C1880 1.348 . S
C1882 C1884 1.353 . S
C1882 H1924 0.929 . S
C1883 C1880 1.356 . S
C1883 C1885 1.358 . S
C1883 H1925 0.930 . S
C1884 N1881 1.314 . S
C1884 C1882 1.353 . S
C1884 H1926 0.930 . S
C1885 N1881 1.279 . S
C1885 C1883 1.358 . S
C1885 H1927 0.930 . S
C1886 C1887 1.348 . S
C1886 C1888 1.356 . S
C1886 O1911 1.325 . S
C1887 C1886 1.348 . S
C1887 C1889 1.353 . S
C1887 H1928 0.929 . S
C1888 C1886 1.356 . S
C1888 C1890 1.358 . S
C1888 H1929 0.930 . S
C1889 C1887 1.353 . S
C1889 N1891 1.314 . S
C1889 H1930 0.930 . S
C1890 C1888 1.358 . S
C1890 N1891 1.279 . S
C1890 H1931 0.930 . S
N1891 C1889 1.314 . S
N1891 C1890 1.279 . S
C1892 C1894 1.353 . S
C1892 N1895 1.314 . S
C1892 H1898 0.930 . S
C1893 N1895 1.279 . S
C1893 C1896 1.358 . S
C1893 H1899 0.930 . S
C1894 C1892 1.353 . S
C1894 C1897 1.348 . S
C1894 H1932 0.929 . S
N1895 Li1850 1.990 . S
N1895 C1892 1.314 . S
N1895 C1893 1.279 . S
C1896 C1893 1.358 . S
C1896 C1897 1.356 . S
C1896 H1933 0.930 . S
C1897 C1894 1.348 . S
C1897 C1896 1.356 . S
H1898 C1892 0.930 . S
H1899 C1893 0.930 . S
C1900 N1901 1.314 . S
C1900 C1902 1.353 . S
C1900 H1906 0.930 . S
N1901 Li1851 1.990 . S
N1901 C1900 1.314 . S
N1901 C1904 1.279 . S
C1902 C1900 1.353 . S
C1902 C1905 1.348 . S
C1902 H1934 0.929 . S
C1903 C1904 1.358 . S
C1903 C1905 1.356 . S
C1903 H1935 0.930 . S
C1904 N1901 1.279 . S
C1904 C1903 1.358 . S
C1904 H1907 0.930 . S
C1905 C1902 1.348 . S
C1905 C1903 1.356 . S
H1906 C1900 0.930 . S
H1907 C1904 0.930 . S
O1908 Li1848 1.956 . S
O1908 Li1849 1.970 . S
O1908 Li1850 1.961 . S
O1908 C1852 1.325 . S
O1909 Li1848 1.970 . S
O1909 Li1849 1.956 . S
O1909 Li1851 1.961 . S
O1909 C1858 1.325 . S
O1910 Li1848 1.961 . S
O1910 Li1850 1.956 . S
O1910 Li1851 1.970 . S
O1910 C1880 1.325 . S
O1911 Li1849 1.961 . S
O1911 Li1850 1.970 . S
O1911 Li1851 1.956 . S
O1911 C1886 1.325 . S
H1912 C1854 0.929 . S
H1913 C1855 0.930 . S
H1914 C1856 0.930 . S
H1915 C1857 0.930 . S
H1916 C1859 0.930 . S
H1917 C1861 0.929 . S
H1918 C1862 0.930 . S
H1919 C1863 0.930 . S
H1920 C1866 0.930 . S
H1921 C1869 0.929 . S
H1922 C1874 0.929 . S
H1923 C1875 0.930 . S
H1924 C1882 0.929 . S
H1925 C1883 0.930 . S
H1926 C1884 0.930 . S
H1927 C1885 0.930 . S
H1928 C1887 0.929 . S
H1929 C1888 0.930 . S
H1930 C1889 0.930 . S
H1931 C1890 0.930 . S
H1932 C1894 0.929 . S
H1933 C1896 0.930 . S
H1934 C1902 0.929 . S
H1935 C1903 0.930 . S
Li1936 N1953 1.990 . S
Li1936 O1996 1.956 . S
Li1936 O1997 1.970 . S
Li1936 O1998 1.961 . S
Li1937 N1961 1.990 . S
Li1937 O1996 1.970 . S
Li1937 O1997 1.956 . S
Li1937 O1999 1.961 . S
Li1938 N1983 1.990 . S
Li1938 O1996 1.961 . S
Li1938 O1998 1.956 . S
Li1938 O1999 1.970 . S
Li1939 N1989 1.990 . S
Li1939 O1997 1.961 . S
Li1939 O1998 1.970 . S
Li1939 O1999 1.956 . S
C1940 C1942 1.348 . S
C1940 C1943 1.356 . S
C1940 O1996 1.325 . S
N1941 C1944 1.314 . S
N1941 C1945 1.279 . S
C1942 C1940 1.348 . S
C1942 C1944 1.353 . S
C1942 H2000 0.929 . S
C1943 C1940 1.356 . S
C1943 C1945 1.358 . S
C1943 H2001 0.930 . S
C1944 N1941 1.314 . S
C1944 C1942 1.353 . S
C1944 H2002 0.930 . S
C1945 N1941 1.279 . S
C1945 C1943 1.358 . S
C1945 H2003 0.930 . S
C1946 C1949 1.348 . S
C1946 C1950 1.356 . S
C1946 O1997 1.325 . S
C1947 N1948 1.279 . S
C1947 C1950 1.358 . S
C1947 H2004 0.930 . S
N1948 C1947 1.279 . S
N1948 C1951 1.314 . S
C1949 C1946 1.348 . S
C1949 C1951 1.353 . S
C1949 H2005 0.929 . S
C1950 C1946 1.356 . S
C1950 C1947 1.358 . S
C1950 H2006 0.930 . S
C1951 N1948 1.314 . S
C1951 C1949 1.353 . S
C1951 H2007 0.930 . S
C1952 N1953 1.314 . S
C1952 C1957 1.353 . S
C1952 H1958 0.930 . S
N1953 Li1936 1.990 . S
N1953 C1952 1.314 . S
N1953 C1955 1.279 . S
C1954 C1955 1.358 . S
C1954 C1956 1.356 . S
C1954 H2008 0.930 . S
C1955 N1953 1.279 . S
C1955 C1954 1.358 . S
C1955 H1959 0.930 . S
C1956 C1954 1.356 . S
C1956 C1957 1.348 . S
C1957 C1952 1.353 . S
C1957 C1956 1.348 . S
C1957 H2009 0.929 . S
H1958 C1952 0.930 . S
H1959 C1955 0.930 . S
C1960 N1961 1.314 . S
C1960 C1962 1.353 . S
C1960 H1966 0.930 . S
N1961 Li1937 1.990 . S
N1961 C1960 1.314 . S
N1961 C1964 1.279 . S
C1962 C1960 1.353 . S
C1962 C1965 1.348 . S
C1962 H2010 0.929 . S
C1963 C1964 1.358 . S
C1963 C1965 1.356 . S
C1963 H2011 0.930 . S
C1964 N1961 1.279 . S
C1964 C1963 1.358 . S
C1964 H1967 0.930 . S
C1965 C1962 1.348 . S
C1965 C1963 1.356 . S
H1966 C1960 0.930 . S
H1967 C1964 0.930 . S
C1968 C1970 1.348 . S
C1968 C1971 1.356 . S
C1968 O1998 1.325 . S
N1969 C1972 1.314 . S
N1969 C1973 1.279 . S
C1970 C1968 1.348 . S
C1970 C1972 1.353 . S
C1970 H2012 0.929 . S
C1971 C1968 1.356 . S
C1971 C1973 1.358 . S
C1971 H2013 0.930 . S
C1972 N1969 1.314 . S
C1972 C1970 1.353 . S
C1972 H2014 0.930 . S
C1973 N1969 1.279 . S
C1973 C1971 1.358 . S
C1973 H2015 0.930 . S
C1974 C1975 1.348 . S
C1974 C1976 1.356 . S
C1974 O1999 1.325 . S
C1975 C1974 1.348 . S
C1975 C1977 1.353 . S
C1975 H2016 0.929 . S
C1976 C1974 1.356 . S
C1976 C1978 1.358 . S
C1976 H2017 0.930 . S
C1977 C1975 1.353 . S
C1977 N1979 1.314 . S
C1977 H2018 0.930 . S
C1978 C1976 1.358 . S
C1978 N1979 1.279 . S
C1978 H2019 0.930 . S
N1979 C1977 1.314 . S
N1979 C1978 1.279 . S
C1980 C1982 1.353 . S
C1980 N1983 1.314 . S
C1980 H1986 0.930 . S
C1981 N1983 1.279 . S
C1981 C1984 1.358 . S
C1981 H1987 0.930 . S
C1982 C1980 1.353 . S
C1982 C1985 1.348 . S
C1982 H2020 0.929 . S
N1983 Li1938 1.990 . S
N1983 C1980 1.314 . S
N1983 C1981 1.279 . S
C1984 C1981 1.358 . S
C1984 C1985 1.356 . S
C1984 H2021 0.930 . S
C1985 C1982 1.348 . S
C1985 C1984 1.356 . S
H1986 C1980 0.930 . S
H1987 C1981 0.930 . S
C1988 N1989 1.314 . S
C1988 C1990 1.353 . S
C1988 H1994 0.930 . S
N1989 Li1939 1.990 . S
N1989 C1988 1.314 . S
N1989 C1992 1.279 . S
C1990 C1988 1.353 . S
C1990 C1993 1.348 . S
C1990 H2022 0.929 . S
C1991 C1992 1.358 . S
C1991 C1993 1.356 . S
C1991 H2023 0.930 . S
C1992 N1989 1.279 . S
C1992 C1991 1.358 . S
C1992 H1995 0.930 . S
C1993 C1990 1.348 . S
C1993 C1991 1.356 . S
H1994 C1988 0.930 . S
H1995 C1992 0.930 . S
O1996 Li1936 1.956 . S
O1996 Li1937 1.970 . S
O1996 Li1938 1.961 . S
O1996 C1940 1.325 . S
O1997 Li1936 1.970 . S
O1997 Li1937 1.956 . S
O1997 Li1939 1.961 . S
O1997 C1946 1.325 . S
O1998 Li1936 1.961 . S
O1998 Li1938 1.956 . S
O1998 Li1939 1.970 . S
O1998 C1968 1.325 . S
O1999 Li1937 1.961 . S
O1999 Li1938 1.970 . S
O1999 Li1939 1.956 . S
O1999 C1974 1.325 . S
H2000 C1942 0.929 . S
H2001 C1943 0.930 . S
H2002 C1944 0.930 . S
H2003 C1945 0.930 . S
H2004 C1947 0.930 . S
H2005 C1949 0.929 . S
H2006 C1950 0.930 . S
H2007 C1951 0.930 . S
H2008 C1954 0.930 . S
H2009 C1957 0.929 . S
H2010 C1962 0.929 . S
H2011 C1963 0.930 . S
H2012 C1970 0.929 . S
H2013 C1971 0.930 . S
H2014 C1972 0.930 . S
H2015 C1973 0.930 . S
H2016 C1975 0.929 . S
H2017 C1976 0.930 . S
H2018 C1977 0.930 . S
H2019 C1978 0.930 . S
H2020 C1982 0.929 . S
H2021 C1984 0.930 . S
H2022 C1990 0.929 . S
H2023 C1991 0.930 . S
Li2024 N2041 1.990 . S
Li2024 O2084 1.956 . S
Li2024 O2085 1.970 . S
Li2024 O2086 1.961 . S
Li2025 N2049 1.990 . S
Li2025 O2084 1.970 . S
Li2025 O2085 1.956 . S
Li2025 O2087 1.961 . S
Li2026 N2071 1.990 . S
Li2026 O2084 1.961 . S
Li2026 O2086 1.956 . S
Li2026 O2087 1.970 . S
Li2027 N2077 1.990 . S
Li2027 O2085 1.961 . S
Li2027 O2086 1.970 . S
Li2027 O2087 1.956 . S
C2028 C2030 1.348 . S
C2028 C2031 1.356 . S
C2028 O2084 1.325 . S
N2029 C2032 1.314 . S
N2029 C2033 1.279 . S
C2030 C2028 1.348 . S
C2030 C2032 1.353 . S
C2030 H2088 0.929 . S
C2031 C2028 1.356 . S
C2031 C2033 1.358 . S
C2031 H2089 0.930 . S
C2032 N2029 1.314 . S
C2032 C2030 1.353 . S
C2032 H2090 0.930 . S
C2033 N2029 1.279 . S
C2033 C2031 1.358 . S
C2033 H2091 0.930 . S
C2034 C2037 1.348 . S
C2034 C2038 1.356 . S
C2034 O2085 1.325 . S
C2035 N2036 1.279 . S
C2035 C2038 1.358 . S
C2035 H2092 0.930 . S
N2036 C2035 1.279 . S
N2036 C2039 1.314 . S
C2037 C2034 1.348 . S
C2037 C2039 1.353 . S
C2037 H2093 0.929 . S
C2038 C2034 1.356 . S
C2038 C2035 1.358 . S
C2038 H2094 0.930 . S
C2039 N2036 1.314 . S
C2039 C2037 1.353 . S
C2039 H2095 0.930 . S
C2040 N2041 1.314 . S
C2040 C2045 1.353 . S
C2040 H2046 0.930 . S
N2041 Li2024 1.990 . S
N2041 C2040 1.314 . S
N2041 C2043 1.279 . S
C2042 C2043 1.358 . S
C2042 C2044 1.356 . S
C2042 H2096 0.930 . S
C2043 N2041 1.279 . S
C2043 C2042 1.358 . S
C2043 H2047 0.930 . S
C2044 C2042 1.356 . S
C2044 C2045 1.348 . S
C2045 C2040 1.353 . S
C2045 C2044 1.348 . S
C2045 H2097 0.929 . S
H2046 C2040 0.930 . S
H2047 C2043 0.930 . S
C2048 N2049 1.314 . S
C2048 C2050 1.353 . S
C2048 H2054 0.930 . S
N2049 Li2025 1.990 . S
N2049 C2048 1.314 . S
N2049 C2052 1.279 . S
C2050 C2048 1.353 . S
C2050 C2053 1.348 . S
C2050 H2098 0.929 . S
C2051 C2052 1.358 . S
C2051 C2053 1.356 . S
C2051 H2099 0.930 . S
C2052 N2049 1.279 . S
C2052 C2051 1.358 . S
C2052 H2055 0.930 . S
C2053 C2050 1.348 . S
C2053 C2051 1.356 . S
H2054 C2048 0.930 . S
H2055 C2052 0.930 . S
C2056 C2058 1.348 . S
C2056 C2059 1.356 . S
C2056 O2086 1.325 . S
N2057 C2060 1.314 . S
N2057 C2061 1.279 . S
C2058 C2056 1.348 . S
C2058 C2060 1.353 . S
C2058 H2100 0.929 . S
C2059 C2056 1.356 . S
C2059 C2061 1.358 . S
C2059 H2101 0.930 . S
C2060 N2057 1.314 . S
C2060 C2058 1.353 . S
C2060 H2102 0.930 . S
C2061 N2057 1.279 . S
C2061 C2059 1.358 . S
C2061 H2103 0.930 . S
C2062 C2063 1.348 . S
C2062 C2064 1.356 . S
C2062 O2087 1.325 . S
C2063 C2062 1.348 . S
C2063 C2065 1.353 . S
C2063 H2104 0.929 . S
C2064 C2062 1.356 . S
C2064 C2066 1.358 . S
C2064 H2105 0.930 . S
C2065 C2063 1.353 . S
C2065 N2067 1.314 . S
C2065 H2106 0.930 . S
C2066 C2064 1.358 . S
C2066 N2067 1.279 . S
C2066 H2107 0.930 . S
N2067 C2065 1.314 . S
N2067 C2066 1.279 . S
C2068 C2070 1.353 . S
C2068 N2071 1.314 . S
C2068 H2074 0.930 . S
C2069 N2071 1.279 . S
C2069 C2072 1.358 . S
C2069 H2075 0.930 . S
C2070 C2068 1.353 . S
C2070 C2073 1.348 . S
C2070 H2108 0.929 . S
N2071 Li2026 1.990 . S
N2071 C2068 1.314 . S
N2071 C2069 1.279 . S
C2072 C2069 1.358 . S
C2072 C2073 1.356 . S
C2072 H2109 0.930 . S
C2073 C2070 1.348 . S
C2073 C2072 1.356 . S
H2074 C2068 0.930 . S
H2075 C2069 0.930 . S
C2076 N2077 1.314 . S
C2076 C2078 1.353 . S
C2076 H2082 0.930 . S
N2077 Li2027 1.990 . S
N2077 C2076 1.314 . S
N2077 C2080 1.279 . S
C2078 C2076 1.353 . S
C2078 C2081 1.348 . S
C2078 H2110 0.929 . S
C2079 C2080 1.358 . S
C2079 C2081 1.356 . S
C2079 H2111 0.930 . S
C2080 N2077 1.279 . S
C2080 C2079 1.358 . S
C2080 H2083 0.930 . S
C2081 C2078 1.348 . S
C2081 C2079 1.356 . S
H2082 C2076 0.930 . S
H2083 C2080 0.930 . S
O2084 Li2024 1.956 . S
O2084 Li2025 1.970 . S
O2084 Li2026 1.961 . S
O2084 C2028 1.325 . S
O2085 Li2024 1.970 . S
O2085 Li2025 1.956 . S
O2085 Li2027 1.961 . S
O2085 C2034 1.325 . S
O2086 Li2024 1.961 . S
O2086 Li2026 1.956 . S
O2086 Li2027 1.970 . S
O2086 C2056 1.325 . S
O2087 Li2025 1.961 . S
O2087 Li2026 1.970 . S
O2087 Li2027 1.956 . S
O2087 C2062 1.325 . S
H2088 C2030 0.929 . S
H2089 C2031 0.930 . S
H2090 C2032 0.930 . S
H2091 C2033 0.930 . S
H2092 C2035 0.930 . S
H2093 C2037 0.929 . S
H2094 C2038 0.930 . S
H2095 C2039 0.930 . S
H2096 C2042 0.930 . S
H2097 C2045 0.929 . S
H2098 C2050 0.929 . S
H2099 C2051 0.930 . S
H2100 C2058 0.929 . S
H2101 C2059 0.930 . S
H2102 C2060 0.930 . S
H2103 C2061 0.930 . S
H2104 C2063 0.929 . S
H2105 C2064 0.930 . S
H2106 C2065 0.930 . S
H2107 C2066 0.930 . S
H2108 C2070 0.929 . S
H2109 C2072 0.930 . S
H2110 C2078 0.929 . S
H2111 C2079 0.930 . S
Co2112 N2117 2.029 1_554 S
Co2112 O2129 2.010 1_554 S
Co2112 O2132 2.072 1_455 S
Co2112 O2136 2.138 . S
Co2112 O2137 2.020 . S
C2113 O2133 1.259 . S
C2113 O2136 1.258 . S
Co2114 N2123 2.057 . S
Co2114 O2130 2.117 1_545 S
Co2114 O2131 2.020 1_455 S
Co2114 O2133 2.021 . S
Co2114 O2138 2.062 . S
C2115 N2117 1.316 1_655 S
C2115 N2118 1.348 . S
C2115 H2120 0.930 1_655 S
C2116 N2117 1.375 1_655 S
C2116 C2119 1.350 . S
C2116 H2121 0.930 . S
N2117 Co2112 2.029 1_556 S
N2117 C2115 1.316 1_455 S
N2117 C2116 1.375 1_455 S
N2118 C2115 1.348 . S
N2118 C2119 1.373 . S
C2119 C2116 1.350 . S
C2119 N2118 1.373 . S
C2119 H2140 0.931 . S
H2120 C2115 0.930 1_455 S
H2121 C2116 0.930 . S
C2122 O2129 1.259 1_564 S
C2122 O2130 1.258 . S
N2123 Co2114 2.057 . S
N2123 C2124 1.316 . S
N2123 C2125 1.375 1_545 S
C2124 N2123 1.316 . S
C2124 N2126 1.347 . S
C2124 H2135 0.931 . S
C2125 N2123 1.375 1_565 S
C2125 C2127 1.350 . S
C2125 H2134 0.930 . S
N2126 C2124 1.347 . S
N2126 C2127 1.373 1_545 S
C2127 C2125 1.350 . S
C2127 N2126 1.373 1_565 S
C2127 H2141 0.931 . S
C2128 O2131 1.256 . S
C2128 O2132 1.255 . S
O2129 Co2112 2.010 1_556 S
O2129 C2122 1.259 1_546 S
O2130 Co2114 2.117 1_565 S
O2130 C2122 1.258 . S
O2131 Co2114 2.020 1_655 S
O2131 C2128 1.256 . S
O2132 Co2112 2.072 1_655 S
O2132 C2128 1.255 . S
O2133 C2113 1.259 . S
O2133 Co2114 2.021 . S
H2134 C2125 0.930 . S
H2135 C2124 0.931 . S
O2136 Co2112 2.138 . S
O2136 C2113 1.258 . S
O2137 Co2112 2.020 . S
O2137 C2139 1.269 . S
O2138 Co2114 2.062 . S
O2138 C2139 1.255 . S
C2139 O2137 1.269 . S
C2139 O2138 1.255 . S
H2140 C2119 0.931 . S
H2141 C2127 0.931 . S
Co2142 N2147 2.057 . S
Co2142 O2159 2.021 . S
Co2142 O2162 2.062 . S
Co2142 O2166 2.117 . S
Co2142 O2167 2.020 . S
C2143 O2163 1.259 . S
C2143 O2166 1.258 . S
Co2144 N2153 2.057 . S
Co2144 O2160 2.117 . S
Co2144 O2161 2.020 . S
Co2144 O2163 2.021 . S
Co2144 O2168 2.062 . S
C2145 N2147 1.316 . S
C2145 N2148 1.347 . S
C2145 H2150 0.931 . S
C2146 N2147 1.375 . S
C2146 C2149 1.350 . S
C2146 H2151 0.930 . S
N2147 Co2142 2.057 . S
N2147 C2145 1.316 . S
N2147 C2146 1.375 . S
N2148 C2145 1.347 . S
N2148 C2149 1.373 . S
C2149 C2146 1.350 . S
C2149 N2148 1.373 . S
C2149 H2170 0.931 . S
H2150 C2145 0.931 . S
H2151 C2146 0.930 . S
C2152 O2159 1.259 . S
C2152 O2160 1.258 . S
N2153 Co2144 2.057 . S
N2153 C2154 1.316 . S
N2153 C2155 1.375 . S
C2154 N2153 1.316 . S
C2154 N2156 1.347 . S
C2154 H2165 0.931 . S
C2155 N2153 1.375 . S
C2155 C2157 1.350 . S
C2155 H2164 0.930 . S
N2156 C2154 1.347 . S
N2156 C2157 1.373 . S
C2157 C2155 1.350 . S
C2157 N2156 1.373 . S
C2157 H2171 0.931 . S
C2158 O2161 1.256 . S
C2158 O2162 1.255 . S
O2159 Co2142 2.021 . S
O2159 C2152 1.259 . S
O2160 Co2144 2.117 . S
O2160 C2152 1.258 . S
O2161 Co2144 2.020 . S
O2161 C2158 1.256 . S
O2162 Co2142 2.062 . S
O2162 C2158 1.255 . S
O2163 C2143 1.259 . S
O2163 Co2144 2.021 . S
H2164 C2155 0.930 . S
H2165 C2154 0.931 . S
O2166 Co2142 2.117 . S
O2166 C2143 1.258 . S
O2167 Co2142 2.020 . S
O2167 C2169 1.256 . S
O2168 Co2144 2.062 . S
O2168 C2169 1.255 . S
C2169 O2167 1.256 . S
C2169 O2168 1.255 . S
H2170 C2149 0.931 . S
H2171 C2157 0.931 . S
Co2172 N2177 2.057 . S
Co2172 O2189 2.021 1_545 S
Co2172 O2192 2.062 . S
Co2172 O2196 2.117 . S
Co2172 O2197 2.020 . S
C2173 O2193 1.259 . S
C2173 O2196 1.258 . S
Co2174 N2183 2.057 . S
Co2174 O2190 2.117 . S
Co2174 O2191 2.020 . S
Co2174 O2193 2.021 . S
Co2174 O2198 2.062 . S
C2175 N2177 1.287 1_565 S
C2175 N2178 1.341 1_565 S
C2175 H2180 0.962 . S
C2176 N2177 1.375 . S
C2176 C2179 1.350 . S
C2176 H2181 0.930 . S
N2177 Co2172 2.057 . S
N2177 C2175 1.287 1_545 S
N2177 C2176 1.375 . S
N2178 C2175 1.341 1_545 S
N2178 C2179 1.373 . S
C2179 C2176 1.350 . S
C2179 N2178 1.373 . S
C2179 H2200 0.931 . S
H2180 C2175 0.962 . S
H2181 C2176 0.930 . S
C2182 O2189 1.259 . S
C2182 O2190 1.258 1_565 S
N2183 Co2174 2.057 . S
N2183 C2184 1.316 . S
N2183 C2185 1.375 . S
C2184 N2183 1.316 . S
C2184 N2186 1.347 . S
C2184 H2195 0.931 . S
C2185 N2183 1.375 . S
C2185 C2187 1.350 . S
C2185 H2194 0.930 . S
N2186 C2184 1.347 . S
N2186 C2187 1.373 . S
C2187 C2185 1.350 . S
C2187 N2186 1.373 . S
C2187 H2201 0.931 . S
C2188 O2191 1.256 . S
C2188 O2192 1.255 . S
O2189 Co2172 2.021 1_565 S
O2189 C2182 1.259 . S
O2190 Co2174 2.117 . S
O2190 C2182 1.258 1_545 S
O2191 Co2174 2.020 . S
O2191 C2188 1.256 . S
O2192 Co2172 2.062 . S
O2192 C2188 1.255 . S
O2193 C2173 1.259 . S
O2193 Co2174 2.021 . S
H2194 C2185 0.930 . S
H2195 C2184 0.931 . S
O2196 Co2172 2.117 . S
O2196 C2173 1.258 . S
O2197 Co2172 2.020 . S
O2197 C2199 1.256 . S
O2198 Co2174 2.062 . S
O2198 C2199 1.255 . S
C2199 O2197 1.256 . S
C2199 O2198 1.255 . S
H2200 C2179 0.931 . S
H2201 C2187 0.931 . S
Co2202 N2207 2.057 . S
Co2202 O2219 2.021 . S
Co2202 O2222 2.062 . S
Co2202 O2226 2.117 . S
Co2202 O2227 2.020 . S
C2203 O2223 1.259 . S
C2203 O2226 1.258 . S
Co2204 N2213 2.057 . S
Co2204 O2220 2.117 . S
Co2204 O2221 2.020 . S
Co2204 O2223 2.021 . S
Co2204 O2228 2.062 . S
C2205 N2207 1.316 . S
C2205 N2208 1.347 . S
C2205 H2210 0.931 . S
C2206 N2207 1.375 . S
C2206 C2209 1.350 . S
C2206 H2211 0.930 . S
N2207 Co2202 2.057 . S
N2207 C2205 1.316 . S
N2207 C2206 1.375 . S
N2208 C2205 1.347 . S
N2208 C2209 1.373 . S
C2209 C2206 1.350 . S
C2209 N2208 1.373 . S
C2209 H2230 0.931 . S
H2210 C2205 0.931 . S
H2211 C2206 0.930 . S
C2212 O2219 1.259 . S
C2212 O2220 1.258 . S
N2213 Co2204 2.057 . S
N2213 C2214 1.316 . S
N2213 C2215 1.375 . S
C2214 N2213 1.316 . S
C2214 N2216 1.347 . S
C2214 H2225 0.931 . S
C2215 N2213 1.375 . S
C2215 C2217 1.350 . S
C2215 H2224 0.930 . S
N2216 C2214 1.347 . S
N2216 C2217 1.373 . S
C2217 C2215 1.350 . S
C2217 N2216 1.373 . S
C2217 H2231 0.931 . S
C2218 O2221 1.256 . S
C2218 O2222 1.255 . S
O2219 Co2202 2.021 . S
O2219 C2212 1.259 . S
O2220 Co2204 2.117 . S
O2220 C2212 1.258 . S
O2221 Co2204 2.020 . S
O2221 C2218 1.256 . S
O2222 Co2202 2.062 . S
O2222 C2218 1.255 . S
O2223 C2203 1.259 . S
O2223 Co2204 2.021 . S
H2224 C2215 0.930 . S
H2225 C2214 0.931 . S
O2226 Co2202 2.117 . S
O2226 C2203 1.258 . S
O2227 Co2202 2.020 . S
O2227 C2229 1.256 . S
O2228 Co2204 2.062 . S
O2228 C2229 1.255 . S
C2229 O2227 1.256 . S
C2229 O2228 1.255 . S
H2230 C2209 0.931 . S
H2231 C2217 0.931 . S
Co2232 N2237 2.057 1_545 S
Co2232 O2249 2.021 . S
Co2232 O2252 2.058 1_545 S
Co2232 O2256 2.117 . S
Co2232 O2257 2.020 1_455 S
C2233 O2253 1.259 . S
C2233 O2256 1.258 . S
Co2234 N2243 2.057 . S
Co2234 O2250 2.117 . S
Co2234 O2251 2.020 . S
Co2234 O2253 2.021 . S
Co2234 O2258 2.062 1_455 S
C2235 N2237 1.316 . S
C2235 N2238 1.347 . S
C2235 H2240 0.931 . S
C2236 N2237 1.375 1_655 S
C2236 C2239 1.350 . S
C2236 H2241 0.930 . S
N2237 Co2232 2.057 1_565 S
N2237 C2235 1.316 . S
N2237 C2236 1.375 1_455 S
N2238 C2235 1.347 . S
N2238 C2239 1.373 1_455 S
C2239 C2236 1.350 . S
C2239 N2238 1.373 1_655 S
C2239 H2260 0.931 . S
H2240 C2235 0.931 . S
H2241 C2236 0.930 . S
C2242 O2249 1.259 . S
C2242 O2250 1.258 . S
N2243 Co2234 2.057 . S
N2243 C2244 1.316 . S
N2243 C2245 1.375 . S
C2244 N2243 1.316 . S
C2244 N2246 1.347 . S
C2244 H2255 0.931 . S
C2245 N2243 1.375 . S
C2245 C2247 1.350 . S
C2245 H2254 0.930 . S
N2246 C2244 1.347 . S
N2246 C2247 1.373 . S
C2247 C2245 1.350 . S
C2247 N2246 1.373 . S
C2247 H2261 0.931 . S
C2248 O2251 1.256 . S
C2248 O2252 1.244 1_545 S
O2249 Co2232 2.021 . S
O2249 C2242 1.259 . S
O2250 Co2234 2.117 . S
O2250 C2242 1.258 . S
O2251 Co2234 2.020 . S
O2251 C2248 1.256 . S
O2252 Co2232 2.058 1_565 S
O2252 C2248 1.244 1_565 S
O2253 C2233 1.259 . S
O2253 Co2234 2.021 . S
H2254 C2245 0.930 . S
H2255 C2244 0.931 . S
O2256 Co2232 2.117 . S
O2256 C2233 1.258 . S
O2257 Co2232 2.020 1_655 S
O2257 C2259 1.256 . S
O2258 Co2234 2.062 1_655 S
O2258 C2259 1.255 . S
C2259 O2257 1.256 . S
C2259 O2258 1.255 . S
H2260 C2239 0.931 . S
H2261 C2247 0.931 . S
Co2262 N2267 2.057 . S
Co2262 O2279 2.021 . S
Co2262 O2282 2.062 . S
Co2262 O2286 2.117 . S
Co2262 O2287 2.020 . S
C2263 O2283 1.259 . S
C2263 O2286 1.258 . S
Co2264 N2273 2.057 . S
Co2264 O2280 2.117 . S
Co2264 O2281 2.020 . S
Co2264 O2283 2.021 . S
Co2264 O2288 2.062 . S
C2265 N2267 1.316 . S
C2265 N2268 1.347 . S
C2265 H2270 0.931 . S
C2266 N2267 1.375 . S
C2266 C2269 1.350 . S
C2266 H2271 0.930 . S
N2267 Co2262 2.057 . S
N2267 C2265 1.316 . S
N2267 C2266 1.375 . S
N2268 C2265 1.347 . S
N2268 C2269 1.373 . S
C2269 C2266 1.350 . S
C2269 N2268 1.373 . S
C2269 H2290 0.931 . S
H2270 C2265 0.931 . S
H2271 C2266 0.930 . S
C2272 O2279 1.259 . S
C2272 O2280 1.258 . S
N2273 Co2264 2.057 . S
N2273 C2274 1.316 . S
N2273 C2275 1.375 . S
C2274 N2273 1.316 . S
C2274 N2276 1.347 . S
C2274 H2285 0.931 . S
C2275 N2273 1.375 . S
C2275 C2277 1.350 . S
C2275 H2284 0.930 . S
N2276 C2274 1.347 . S
N2276 C2277 1.373 . S
C2277 C2275 1.350 . S
C2277 N2276 1.373 . S
C2277 H2291 0.931 . S
C2278 O2281 1.256 . S
C2278 O2282 1.255 . S
O2279 Co2262 2.021 . S
O2279 C2272 1.259 . S
O2280 Co2264 2.117 . S
O2280 C2272 1.258 . S
O2281 Co2264 2.020 . S
O2281 C2278 1.256 . S
O2282 Co2262 2.062 . S
O2282 C2278 1.255 . S
O2283 C2263 1.259 . S
O2283 Co2264 2.021 . S
H2284 C2275 0.930 . S
H2285 C2274 0.931 . S
O2286 Co2262 2.117 . S
O2286 C2263 1.258 . S
O2287 Co2262 2.020 . S
O2287 C2289 1.256 . S
O2288 Co2264 2.062 . S
O2288 C2289 1.255 . S
C2289 O2287 1.256 . S
C2289 O2288 1.255 . S
H2290 C2269 0.931 . S
H2291 C2277 0.931 . S
Co2292 N2297 2.057 1_554 S
Co2292 O2309 2.021 . S
Co2292 O2312 2.062 1_554 S
Co2292 O2316 2.117 . S
Co2292 O2317 2.020 1_545 S
C2293 O2313 1.259 . S
C2293 O2316 1.258 . S
Co2294 N2303 2.057 . S
Co2294 O2310 2.117 . S
Co2294 O2311 2.020 . S
Co2294 O2313 2.021 . S
Co2294 O2318 2.062 . S
C2295 N2297 1.316 . S
C2295 N2298 1.347 . S
C2295 H2300 0.931 . S
C2296 N2297 1.375 . S
C2296 C2299 1.350 . S
C2296 H2301 0.930 1_545 S
N2297 Co2292 2.057 1_556 S
N2297 C2295 1.316 . S
N2297 C2296 1.375 . S
N2298 C2295 1.347 . S
N2298 C2299 1.373 . S
C2299 C2296 1.350 . S
C2299 N2298 1.373 . S
C2299 H2320 0.931 1_545 S
H2300 C2295 0.931 . S
H2301 C2296 0.930 1_565 S
C2302 O2309 1.259 . S
C2302 O2310 1.258 . S
N2303 Co2294 2.057 . S
N2303 C2304 1.316 . S
N2303 C2305 1.375 . S
C2304 N2303 1.316 . S
C2304 N2306 1.347 . S
C2304 H2315 0.931 . S
C2305 N2303 1.375 . S
C2305 C2307 1.350 . S
C2305 H2314 0.930 . S
N2306 C2304 1.347 . S
N2306 C2307 1.373 . S
C2307 C2305 1.350 . S
C2307 N2306 1.373 . S
C2307 H2321 0.931 . S
C2308 O2311 1.256 . S
C2308 O2312 1.255 1_554 S
O2309 Co2292 2.021 . S
O2309 C2302 1.259 . S
O2310 Co2294 2.117 . S
O2310 C2302 1.258 . S
O2311 Co2294 2.020 . S
O2311 C2308 1.256 . S
O2312 Co2292 2.062 1_556 S
O2312 C2308 1.255 1_556 S
O2313 C2293 1.259 . S
O2313 Co2294 2.021 . S
H2314 C2305 0.930 . S
H2315 C2304 0.931 . S
O2316 Co2292 2.117 . S
O2316 C2293 1.258 . S
O2317 Co2292 2.020 1_565 S
O2317 C2319 1.256 . S
O2318 Co2294 2.062 . S
O2318 C2319 1.255 1_545 S
C2319 O2317 1.256 . S
C2319 O2318 1.255 1_565 S
H2320 C2299 0.931 1_565 S
H2321 C2307 0.931 . S
Co2322 N2327 2.057 . S
Co2322 O2339 2.021 . S
Co2322 O2342 2.062 . S
Co2322 O2346 2.117 . S
Co2322 O2347 2.020 . S
C2323 O2343 1.259 . S
C2323 O2346 1.258 . S
Co2324 N2333 2.057 . S
Co2324 O2340 2.117 . S
Co2324 O2341 2.020 . S
Co2324 O2343 2.021 . S
Co2324 O2348 2.062 . S
C2325 N2327 1.316 . S
C2325 N2328 1.347 . S
C2325 H2330 0.931 . S
C2326 N2327 1.375 . S
C2326 C2329 1.350 . S
C2326 H2331 0.930 . S
N2327 Co2322 2.057 . S
N2327 C2325 1.316 . S
N2327 C2326 1.375 . S
N2328 C2325 1.347 . S
N2328 C2329 1.373 . S
C2329 C2326 1.350 . S
C2329 N2328 1.373 . S
C2329 H2350 0.931 . S
H2330 C2325 0.931 . S
H2331 C2326 0.930 . S
C2332 O2339 1.259 . S
C2332 O2340 1.258 . S
N2333 Co2324 2.057 . S
N2333 C2334 1.316 . S
N2333 C2335 1.375 . S
C2334 N2333 1.316 . S
C2334 N2336 1.347 . S
C2334 H2345 0.931 . S
C2335 N2333 1.375 . S
C2335 C2337 1.350 . S
C2335 H2344 0.930 . S
N2336 C2334 1.347 . S
N2336 C2337 1.373 . S
C2337 C2335 1.350 . S
C2337 N2336 1.373 . S
C2337 H2351 0.931 . S
C2338 O2341 1.256 . S
C2338 O2342 1.255 . S
O2339 Co2322 2.021 . S
O2339 C2332 1.259 . S
O2340 Co2324 2.117 . S
O2340 C2332 1.258 . S
O2341 Co2324 2.020 . S
O2341 C2338 1.256 . S
O2342 Co2322 2.062 . S
O2342 C2338 1.255 . S
O2343 C2323 1.259 . S
O2343 Co2324 2.021 . S
H2344 C2335 0.930 . S
H2345 C2334 0.931 . S
O2346 Co2322 2.117 . S
O2346 C2323 1.258 . S
O2347 Co2322 2.020 . S
O2347 C2349 1.256 . S
O2348 Co2324 2.062 . S
O2348 C2349 1.255 . S
C2349 O2347 1.256 . S
C2349 O2348 1.255 . S
H2350 C2329 0.931 . S
H2351 C2337 0.931 . S
Co2352 N2357 2.057 . S
Co2352 O2369 2.021 1_554 S
Co2352 O2372 2.062 . S
Co2352 O2376 2.117 . S
Co2352 O2377 2.020 . S
C2353 O2373 1.259 . S
C2353 O2376 1.258 . S
Co2354 N2363 2.057 . S
Co2354 O2370 2.079 1_554 S
Co2354 O2371 2.020 . S
Co2354 O2373 2.021 . S
Co2354 O2378 2.062 . S
C2355 N2357 1.316 1_556 S
C2355 N2358 1.347 1_556 S
C2355 H2360 0.931 . S
C2356 N2357 1.375 . S
C2356 C2359 1.350 . S
C2356 H2361 0.930 . S
N2357 Co2352 2.057 . S
N2357 C2355 1.316 1_554 S
N2357 C2356 1.375 . S
N2358 C2355 1.347 1_554 S
N2358 C2359 1.373 . S
C2359 C2356 1.350 . S
C2359 N2358 1.373 . S
C2359 H2380 0.931 . S
H2360 C2355 0.931 . S
H2361 C2356 0.930 . S
C2362 O2369 1.259 . S
C2362 O2370 1.288 . S
N2363 Co2354 2.057 . S
N2363 C2364 1.316 . S
N2363 C2365 1.375 . S
C2364 N2363 1.316 . S
C2364 N2366 1.347 . S
C2364 H2375 0.931 . S
C2365 N2363 1.375 . S
C2365 C2367 1.350 . S
C2365 H2374 0.930 . S
N2366 C2364 1.347 . S
N2366 C2367 1.373 . S
C2367 C2365 1.350 . S
C2367 N2366 1.373 . S
C2367 H2381 0.931 . S
C2368 O2371 1.256 . S
C2368 O2372 1.255 . S
O2369 Co2352 2.021 1_556 S
O2369 C2362 1.259 . S
O2370 Co2354 2.079 1_556 S
O2370 C2362 1.288 . S
O2371 Co2354 2.020 . S
O2371 C2368 1.256 . S
O2372 Co2352 2.062 . S
O2372 C2368 1.255 . S
O2373 C2353 1.259 . S
O2373 Co2354 2.021 . S
H2374 C2365 0.930 . S
H2375 C2364 0.931 . S
O2376 Co2352 2.117 . S
O2376 C2353 1.258 . S
O2377 Co2352 2.020 . S
O2377 C2379 1.256 . S
O2378 Co2354 2.062 . S
O2378 C2379 1.255 . S
C2379 O2377 1.256 . S
C2379 O2378 1.255 . S
H2380 C2359 0.931 . S
H2381 C2367 0.931 . S
Co2382 N2387 2.057 . S
Co2382 O2399 2.021 . S
Co2382 O2402 2.062 . S
Co2382 O2406 2.117 . S
Co2382 O2407 2.020 . S
C2383 O2403 1.259 . S
C2383 O2406 1.258 . S
Co2384 N2393 2.057 . S
Co2384 O2400 2.117 . S
Co2384 O2401 2.020 . S
Co2384 O2403 2.021 . S
Co2384 O2408 2.062 . S
C2385 N2387 1.316 . S
C2385 N2388 1.347 . S
C2385 H2390 0.931 . S
C2386 N2387 1.375 . S
C2386 C2389 1.350 . S
C2386 H2391 0.930 . S
N2387 Co2382 2.057 . S
N2387 C2385 1.316 . S
N2387 C2386 1.375 . S
N2388 C2385 1.347 . S
N2388 C2389 1.373 . S
C2389 C2386 1.350 . S
C2389 N2388 1.373 . S
C2389 H2410 0.931 . S
H2390 C2385 0.931 . S
H2391 C2386 0.930 . S
C2392 O2399 1.259 . S
C2392 O2400 1.258 . S
N2393 Co2384 2.057 . S
N2393 C2394 1.316 . S
N2393 C2395 1.375 . S
C2394 N2393 1.316 . S
C2394 N2396 1.347 . S
C2394 H2405 0.931 . S
C2395 N2393 1.375 . S
C2395 C2397 1.350 . S
C2395 H2404 0.930 . S
N2396 C2394 1.347 . S
N2396 C2397 1.373 . S
C2397 C2395 1.350 . S
C2397 N2396 1.373 . S
C2397 H2411 0.931 . S
C2398 O2401 1.256 . S
C2398 O2402 1.255 . S
O2399 Co2382 2.021 . S
O2399 C2392 1.259 . S
O2400 Co2384 2.117 . S
O2400 C2392 1.258 . S
O2401 Co2384 2.020 . S
O2401 C2398 1.256 . S
O2402 Co2382 2.062 . S
O2402 C2398 1.255 . S
O2403 C2383 1.259 . S
O2403 Co2384 2.021 . S
H2404 C2395 0.930 . S
H2405 C2394 0.931 . S
O2406 Co2382 2.117 . S
O2406 C2383 1.258 . S
O2407 Co2382 2.020 . S
O2407 C2409 1.256 . S
O2408 Co2384 2.062 . S
O2408 C2409 1.255 . S
C2409 O2407 1.256 . S
C2409 O2408 1.255 . S
H2410 C2389 0.931 . S
H2411 C2397 0.931 . S
Co2412 N2417 2.057 . S
Co2412 O2429 2.021 1_455 S
Co2412 O2432 2.062 . S
Co2412 O2436 2.117 . S
Co2412 O2437 2.020 . S
C2413 O2433 1.259 . S
C2413 O2436 1.258 . S
Co2414 N2423 2.057 . S
Co2414 O2430 2.117 1_455 S
Co2414 O2431 2.020 . S
Co2414 O2433 2.021 . S
Co2414 O2438 2.062 . S
C2415 N2417 1.316 1_655 S
C2415 N2418 1.347 . S
C2415 H2420 0.931 . S
C2416 N2417 1.375 . S
C2416 C2419 1.350 . S
C2416 H2421 0.930 . S
N2417 Co2412 2.057 . S
N2417 C2415 1.316 1_455 S
N2417 C2416 1.375 . S
N2418 C2415 1.347 . S
N2418 C2419 1.373 1_655 S
C2419 C2416 1.350 . S
C2419 N2418 1.373 1_455 S
C2419 H2440 0.931 . S
H2420 C2415 0.931 . S
H2421 C2416 0.930 . S
C2422 O2429 1.259 . S
C2422 O2430 1.258 . S
N2423 Co2414 2.057 . S
N2423 C2424 1.316 . S
N2423 C2425 1.375 . S
C2424 N2423 1.316 . S
C2424 N2426 1.347 . S
C2424 H2435 0.931 . S
C2425 N2423 1.375 . S
C2425 C2427 1.350 . S
C2425 H2434 0.930 . S
N2426 C2424 1.347 . S
N2426 C2427 1.373 . S
C2427 C2425 1.350 . S
C2427 N2426 1.373 . S
C2427 H2441 0.931 . S
C2428 O2431 1.256 . S
C2428 O2432 1.255 . S
O2429 Co2412 2.021 1_655 S
O2429 C2422 1.259 . S
O2430 Co2414 2.117 1_655 S
O2430 C2422 1.258 . S
O2431 Co2414 2.020 . S
O2431 C2428 1.256 . S
O2432 Co2412 2.062 . S
O2432 C2428 1.255 . S
O2433 C2413 1.259 . S
O2433 Co2414 2.021 . S
H2434 C2425 0.930 . S
H2435 C2424 0.931 . S
O2436 Co2412 2.117 . S
O2436 C2413 1.258 . S
O2437 Co2412 2.020 . S
O2437 C2439 1.256 . S
O2438 Co2414 2.062 . S
O2438 C2439 1.255 . S
C2439 O2437 1.256 . S
C2439 O2438 1.255 . S
H2440 C2419 0.931 . S
H2441 C2427 0.931 . S
Co2442 N2447 2.057 . S
Co2442 O2459 2.021 . S
Co2442 O2462 2.062 . S
Co2442 O2466 2.117 . S
Co2442 O2467 2.020 . S
C2443 O2463 1.259 . S
C2443 O2466 1.258 . S
Co2444 N2453 2.057 . S
Co2444 O2460 2.117 . S
Co2444 O2461 2.020 . S
Co2444 O2463 2.021 . S
Co2444 O2468 2.062 . S
C2445 N2447 1.316 . S
C2445 N2448 1.347 . S
C2445 H2450 0.931 . S
C2446 N2447 1.375 . S
C2446 C2449 1.350 . S
C2446 H2451 0.930 . S
N2447 Co2442 2.057 . S
N2447 C2445 1.316 . S
N2447 C2446 1.375 . S
N2448 C2445 1.347 . S
N2448 C2449 1.373 . S
C2449 C2446 1.350 . S
C2449 N2448 1.373 . S
C2449 H2470 0.931 . S
H2450 C2445 0.931 . S
H2451 C2446 0.930 . S
C2452 O2459 1.259 . S
C2452 O2460 1.258 . S
N2453 Co2444 2.057 . S
N2453 C2454 1.316 . S
N2453 C2455 1.375 . S
C2454 N2453 1.316 . S
C2454 N2456 1.347 . S
C2454 H2465 0.931 . S
C2455 N2453 1.375 . S
C2455 C2457 1.350 . S
C2455 H2464 0.930 . S
N2456 C2454 1.347 . S
N2456 C2457 1.373 . S
C2457 C2455 1.350 . S
C2457 N2456 1.373 . S
C2457 H2471 0.931 . S
C2458 O2461 1.256 . S
C2458 O2462 1.255 . S
O2459 Co2442 2.021 . S
O2459 C2452 1.259 . S
O2460 Co2444 2.117 . S
O2460 C2452 1.258 . S
O2461 Co2444 2.020 . S
O2461 C2458 1.256 . S
O2462 Co2442 2.062 . S
O2462 C2458 1.255 . S
O2463 C2443 1.259 . S
O2463 Co2444 2.021 . S
H2464 C2455 0.930 . S
H2465 C2454 0.931 . S
O2466 Co2442 2.117 . S
O2466 C2443 1.258 . S
O2467 Co2442 2.020 . S
O2467 C2469 1.256 . S
O2468 Co2444 2.062 . S
O2468 C2469 1.255 . S
C2469 O2467 1.256 . S
C2469 O2468 1.255 . S
H2470 C2449 0.931 . S
H2471 C2457 0.931 . S
Co2472 N2477 2.057 . S
Co2472 O2489 2.021 . S
Co2472 O2492 2.062 . S
Co2472 O2496 2.117 . S
Co2472 O2497 2.020 . S
C2473 O2493 1.259 . S
C2473 O2496 1.258 . S
Co2474 N2483 2.057 . S
Co2474 O2490 2.117 . S
Co2474 O2491 2.020 . S
Co2474 O2493 2.021 . S
Co2474 O2498 2.062 . S
C2475 N2477 1.316 . S
C2475 N2478 1.347 . S
C2475 H2480 0.931 . S
C2476 N2477 1.375 . S
C2476 C2479 1.350 . S
C2476 H2481 0.930 . S
N2477 Co2472 2.057 . S
N2477 C2475 1.316 . S
N2477 C2476 1.375 . S
N2478 C2475 1.347 . S
N2478 C2479 1.373 . S
C2479 C2476 1.350 . S
C2479 N2478 1.373 . S
C2479 H2500 0.931 . S
H2480 C2475 0.931 . S
H2481 C2476 0.930 . S
C2482 O2489 1.259 . S
C2482 O2490 1.258 . S
N2483 Co2474 2.057 . S
N2483 C2484 1.316 . S
N2483 C2485 1.375 . S
C2484 N2483 1.316 . S
C2484 N2486 1.347 . S
C2484 H2495 0.931 . S
C2485 N2483 1.375 . S
C2485 C2487 1.350 . S
C2485 H2494 0.930 . S
N2486 C2484 1.347 . S
N2486 C2487 1.373 . S
C2487 C2485 1.350 . S
C2487 N2486 1.373 . S
C2487 H2501 0.931 . S
C2488 O2491 1.256 . S
C2488 O2492 1.255 . S
O2489 Co2472 2.021 . S
O2489 C2482 1.259 . S
O2490 Co2474 2.117 . S
O2490 C2482 1.258 . S
O2491 Co2474 2.020 . S
O2491 C2488 1.256 . S
O2492 Co2472 2.062 . S
O2492 C2488 1.255 . S
O2493 C2473 1.259 . S
O2493 Co2474 2.021 . S
H2494 C2485 0.930 . S
H2495 C2484 0.931 . S
O2496 Co2472 2.117 . S
O2496 C2473 1.258 . S
O2497 Co2472 2.020 . S
O2497 C2499 1.256 . S
O2498 Co2474 2.062 . S
O2498 C2499 1.255 . S
C2499 O2497 1.256 . S
C2499 O2498 1.255 . S
H2500 C2479 0.931 . S
H2501 C2487 0.931 . S
Co2502 N2507 2.057 . S
Co2502 O2519 2.021 . S
Co2502 O2522 2.062 . S
Co2502 O2526 2.117 . S
Co2502 O2527 2.020 . S
C2503 O2523 1.259 . S
C2503 O2526 1.258 . S
Co2504 N2513 2.057 . S
Co2504 O2520 2.117 . S
Co2504 O2521 2.020 . S
Co2504 O2523 2.021 . S
Co2504 O2528 2.062 . S
C2505 N2507 1.316 . S
C2505 N2508 1.347 . S
C2505 H2510 0.931 . S
C2506 N2507 1.375 . S
C2506 C2509 1.350 . S
C2506 H2511 0.930 . S
N2507 Co2502 2.057 . S
N2507 C2505 1.316 . S
N2507 C2506 1.375 . S
N2508 C2505 1.347 . S
N2508 C2509 1.373 . S
C2509 C2506 1.350 . S
C2509 N2508 1.373 . S
C2509 H2530 0.931 . S
H2510 C2505 0.931 . S
H2511 C2506 0.930 . S
C2512 O2519 1.259 . S
C2512 O2520 1.258 . S
N2513 Co2504 2.057 . S
N2513 C2514 1.316 . S
N2513 C2515 1.375 . S
C2514 N2513 1.316 . S
C2514 N2516 1.347 . S
C2514 H2525 0.931 . S
C2515 N2513 1.375 . S
C2515 C2517 1.350 . S
C2515 H2524 0.930 . S
N2516 C2514 1.347 . S
N2516 C2517 1.373 . S
C2517 C2515 1.350 . S
C2517 N2516 1.373 . S
C2517 H2531 0.931 . S
C2518 O2521 1.256 . S
C2518 O2522 1.255 . S
O2519 Co2502 2.021 . S
O2519 C2512 1.259 . S
O2520 Co2504 2.117 . S
O2520 C2512 1.258 . S
O2521 Co2504 2.020 . S
O2521 C2518 1.256 . S
O2522 Co2502 2.062 . S
O2522 C2518 1.255 . S
O2523 C2503 1.259 . S
O2523 Co2504 2.021 . S
H2524 C2515 0.930 . S
H2525 C2514 0.931 . S
O2526 Co2502 2.117 . S
O2526 C2503 1.258 . S
O2527 Co2502 2.020 . S
O2527 C2529 1.256 . S
O2528 Co2504 2.062 . S
O2528 C2529 1.255 . S
C2529 O2527 1.256 . S
C2529 O2528 1.255 . S
H2530 C2509 0.931 . S
H2531 C2517 0.931 . S
Co2532 N2537 2.057 . S
Co2532 O2549 2.021 . S
Co2532 O2552 2.062 . S
Co2532 O2556 2.117 . S
Co2532 O2557 2.020 . S
C2533 O2553 1.259 . S
C2533 O2556 1.258 . S
Co2534 N2543 2.057 . S
Co2534 O2550 2.117 . S
Co2534 O2551 2.020 . S
Co2534 O2553 2.021 . S
Co2534 O2558 2.062 . S
C2535 N2537 1.316 . S
C2535 N2538 1.347 . S
C2535 H2540 0.931 . S
C2536 N2537 1.375 . S
C2536 C2539 1.350 . S
C2536 H2541 0.930 . S
N2537 Co2532 2.057 . S
N2537 C2535 1.316 . S
N2537 C2536 1.375 . S
N2538 C2535 1.347 . S
N2538 C2539 1.373 . S
C2539 C2536 1.350 . S
C2539 N2538 1.373 . S
C2539 H2560 0.931 . S
H2540 C2535 0.931 . S
H2541 C2536 0.930 . S
C2542 O2549 1.259 . S
C2542 O2550 1.258 . S
N2543 Co2534 2.057 . S
N2543 C2544 1.316 . S
N2543 C2545 1.375 . S
C2544 N2543 1.316 . S
C2544 N2546 1.347 . S
C2544 H2555 0.931 . S
C2545 N2543 1.375 . S
C2545 C2547 1.350 . S
C2545 H2554 0.930 . S
N2546 C2544 1.347 . S
N2546 C2547 1.373 . S
C2547 C2545 1.350 . S
C2547 N2546 1.373 . S
C2547 H2561 0.931 . S
C2548 O2551 1.256 . S
C2548 O2552 1.255 . S
O2549 Co2532 2.021 . S
O2549 C2542 1.259 . S
O2550 Co2534 2.117 . S
O2550 C2542 1.258 . S
O2551 Co2534 2.020 . S
O2551 C2548 1.256 . S
O2552 Co2532 2.062 . S
O2552 C2548 1.255 . S
O2553 C2533 1.259 . S
O2553 Co2534 2.021 . S
H2554 C2545 0.930 . S
H2555 C2544 0.931 . S
O2556 Co2532 2.117 . S
O2556 C2533 1.258 . S
O2557 Co2532 2.020 . S
O2557 C2559 1.256 . S
O2558 Co2534 2.062 . S
O2558 C2559 1.255 . S
C2559 O2557 1.256 . S
C2559 O2558 1.255 . S
H2560 C2539 0.931 . S
H2561 C2547 0.931 . S
Co2562 N2567 2.057 1_455 S
Co2562 O2579 2.021 . S
Co2562 O2582 2.062 1_455 S
Co2562 O2586 2.117 . S
Co2562 O2587 2.020 1_554 S
C2563 O2583 1.259 . S
C2563 O2586 1.258 . S
Co2564 N2573 2.057 . S
Co2564 O2580 2.117 . S
Co2564 O2581 2.020 . S
Co2564 O2583 2.021 . S
Co2564 O2588 2.062 1_554 S
C2565 N2567 1.316 . S
C2565 N2568 1.347 . S
C2565 H2570 0.931 . S
C2566 N2567 1.375 1_556 S
C2566 C2569 1.350 . S
C2566 H2571 0.930 . S
N2567 Co2562 2.057 1_655 S
N2567 C2565 1.316 . S
N2567 C2566 1.375 1_554 S
N2568 C2565 1.347 . S
N2568 C2569 1.373 1_554 S
C2569 C2566 1.350 . S
C2569 N2568 1.373 1_556 S
C2569 H2590 0.931 . S
H2570 C2565 0.931 . S
H2571 C2566 0.930 . S
C2572 O2579 1.259 . S
C2572 O2580 1.258 . S
N2573 Co2564 2.057 . S
N2573 C2574 1.316 . S
N2573 C2575 1.375 . S
C2574 N2573 1.316 . S
C2574 N2576 1.347 . S
C2574 H2585 0.931 . S
C2575 N2573 1.375 . S
C2575 C2577 1.350 . S
C2575 H2584 0.930 . S
N2576 C2574 1.347 . S
N2576 C2577 1.373 . S
C2577 C2575 1.350 . S
C2577 N2576 1.373 . S
C2577 H2591 0.931 . S
C2578 O2581 1.256 . S
C2578 O2582 1.255 1_455 S
O2579 Co2562 2.021 . S
O2579 C2572 1.259 . S
O2580 Co2564 2.117 . S
O2580 C2572 1.258 . S
O2581 Co2564 2.020 . S
O2581 C2578 1.256 . S
O2582 Co2562 2.062 1_655 S
O2582 C2578 1.255 1_655 S
O2583 C2563 1.259 . S
O2583 Co2564 2.021 . S
H2584 C2575 0.930 . S
H2585 C2574 0.931 . S
O2586 Co2562 2.117 . S
O2586 C2563 1.258 . S
O2587 Co2562 2.020 1_556 S
O2587 C2589 1.256 . S
O2588 Co2564 2.062 1_556 S
O2588 C2589 1.255 . S
C2589 O2587 1.256 . S
C2589 O2588 1.255 . S
H2590 C2569 0.931 . S
H2591 C2577 0.931 . S
C2592 C2593 1.363 . S
C2592 C2598 1.379 . S
C2592 N2600 1.356 . S
C2593 C2592 1.363 . S
C2593 C2599 1.363 . S
C2594 C2595 1.363 . S
C2594 C2599 1.379 . S
C2594 N2601 1.356 . S
C2595 C2594 1.363 . S
C2595 C2598 1.363 . S
N2596 C2598 1.356 1_655 S
N2596 H2608 0.984 . S
N2596 H2609 0.985 . S
N2597 C2599 1.356 . S
N2597 H2602 0.984 . S
N2597 H2603 0.985 . S
C2598 C2592 1.379 . S
C2598 C2595 1.363 . S
C2598 N2596 1.356 1_455 S
C2599 C2593 1.363 . S
C2599 C2594 1.379 . S
C2599 N2597 1.356 . S
N2600 C2592 1.356 . S
N2600 H2606 0.984 1_455 S
N2600 H2607 0.984 . S
N2601 C2594 1.356 . S
N2601 H2604 0.984 . S
N2601 H2605 0.985 . S
H2602 N2597 0.984 . S
H2603 N2597 0.985 . S
H2604 N2601 0.984 . S
H2605 N2601 0.985 . S
H2606 N2600 0.984 1_655 S
H2607 N2600 0.984 . S
H2608 N2596 0.984 . S
H2609 N2596 0.985 . S
C2610 C2611 1.363 . S
C2610 C2616 1.379 . S
C2610 N2618 1.356 . S
C2611 C2610 1.363 . S
C2611 C2617 1.363 . S
C2612 C2613 1.363 . S
C2612 C2617 1.379 . S
C2612 N2619 1.356 . S
C2613 C2612 1.363 . S
C2613 C2616 1.363 . S
N2614 C2616 1.356 . S
N2614 H2626 0.984 . S
N2614 H2627 0.985 . S
N2615 C2617 1.356 . S
N2615 H2620 0.984 . S
N2615 H2621 0.985 . S
C2616 C2610 1.379 . S
C2616 C2613 1.363 . S
C2616 N2614 1.356 . S
C2617 C2611 1.363 . S
C2617 C2612 1.379 . S
C2617 N2615 1.356 . S
N2618 C2610 1.356 . S
N2618 H2624 0.984 . S
N2618 H2625 0.984 . S
N2619 C2612 1.356 . S
N2619 H2622 0.984 . S
N2619 H2623 0.985 . S
H2620 N2615 0.984 . S
H2621 N2615 0.985 . S
H2622 N2619 0.984 . S
H2623 N2619 0.985 . S
H2624 N2618 0.984 . S
H2625 N2618 0.984 . S
H2626 N2614 0.984 . S
H2627 N2614 0.985 . S
C2628 C2629 1.363 . S
C2628 C2634 1.379 . S
C2628 N2636 1.356 . S
C2629 C2628 1.363 . S
C2629 C2635 1.363 . S
C2630 C2631 1.363 . S
C2630 C2635 1.379 . S
C2630 N2637 1.356 . S
C2631 C2630 1.363 . S
C2631 C2634 1.363 . S
N2632 C2634 1.356 . S
N2632 H2644 0.984 . S
N2632 H2645 0.985 . S
N2633 C2635 1.356 . S
N2633 H2638 0.984 . S
N2633 H2639 0.985 . S
C2634 C2628 1.379 . S
C2634 C2631 1.363 . S
C2634 N2632 1.356 . S
C2635 C2629 1.363 . S
C2635 C2630 1.379 . S
C2635 N2633 1.356 . S
N2636 C2628 1.356 . S
N2636 H2642 0.984 . S
N2636 H2643 0.984 . S
N2637 C2630 1.356 . S
N2637 H2640 0.984 . S
N2637 H2641 0.985 . S
H2638 N2633 0.984 . S
H2639 N2633 0.985 . S
H2640 N2637 0.984 . S
H2641 N2637 0.985 . S
H2642 N2636 0.984 . S
H2643 N2636 0.984 . S
H2644 N2632 0.984 . S
H2645 N2632 0.985 . S
C2646 C2647 1.363 . S
C2646 C2652 1.379 . S
C2646 N2654 1.356 . S
C2647 C2646 1.363 . S
C2647 C2653 1.363 . S
C2648 C2649 1.363 . S
C2648 C2653 1.379 . S
C2648 N2655 1.356 . S
C2649 C2648 1.363 . S
C2649 C2652 1.363 . S
N2650 C2652 1.356 . S
N2650 H2662 0.984 . S
N2650 H2663 0.985 . S
N2651 C2653 1.356 . S
N2651 H2656 0.984 . S
N2651 H2657 0.985 . S
C2652 C2646 1.379 . S
C2652 C2649 1.363 . S
C2652 N2650 1.356 . S
C2653 C2647 1.363 . S
C2653 C2648 1.379 . S
C2653 N2651 1.356 . S
N2654 C2646 1.356 . S
N2654 H2660 0.984 . S
N2654 H2661 0.984 . S
N2655 C2648 1.356 . S
N2655 H2658 0.984 . S
N2655 H2659 0.985 . S
H2656 N2651 0.984 . S
H2657 N2651 0.985 . S
H2658 N2655 0.984 . S
H2659 N2655 0.985 . S
H2660 N2654 0.984 . S
H2661 N2654 0.984 . S
H2662 N2650 0.984 . S
H2663 N2650 0.985 . S
C2664 C2665 1.363 . S
C2664 C2670 1.379 . S
C2664 N2672 1.356 . S
C2665 C2664 1.363 . S
C2665 C2671 1.363 . S
C2666 C2667 1.363 . S
C2666 C2671 1.379 . S
C2666 N2673 1.356 1_455 S
C2667 C2666 1.363 . S
C2667 C2670 1.363 . S
N2668 C2670 1.356 . S
N2668 H2680 0.984 . S
N2668 H2681 0.985 . S
N2669 C2671 1.356 . S
N2669 H2674 0.984 . S
N2669 H2675 0.985 . S
C2670 C2664 1.379 . S
C2670 C2667 1.363 . S
C2670 N2668 1.356 . S
C2671 C2665 1.363 . S
C2671 C2666 1.379 . S
C2671 N2669 1.356 . S
N2672 C2664 1.356 . S
N2672 H2678 0.984 . S
N2672 H2679 0.984 . S
N2673 C2666 1.356 1_655 S
N2673 H2676 0.984 . S
N2673 H2677 0.985 . S
H2674 N2669 0.984 . S
H2675 N2669 0.985 . S
H2676 N2673 0.984 . S
H2677 N2673 0.985 . S
H2678 N2672 0.984 . S
H2679 N2672 0.984 . S
H2680 N2668 0.984 . S
H2681 N2668 0.985 . S
C2682 C2683 1.363 . S
C2682 C2688 1.379 . S
C2682 N2690 1.356 . S
C2683 C2682 1.363 . S
C2683 C2689 1.363 . S
C2684 C2685 1.363 . S
C2684 C2689 1.379 . S
C2684 N2691 1.356 . S
C2685 C2684 1.363 . S
C2685 C2688 1.363 . S
N2686 C2688 1.356 . S
N2686 H2698 0.984 . S
N2686 H2699 0.985 . S
N2687 C2689 1.356 . S
N2687 H2692 0.984 . S
N2687 H2693 0.985 . S
C2688 C2682 1.379 . S
C2688 C2685 1.363 . S
C2688 N2686 1.356 . S
C2689 C2683 1.363 . S
C2689 C2684 1.379 . S
C2689 N2687 1.356 . S
N2690 C2682 1.356 . S
N2690 H2696 0.984 . S
N2690 H2697 0.984 . S
N2691 C2684 1.356 . S
N2691 H2694 0.984 . S
N2691 H2695 0.985 . S
H2692 N2687 0.984 . S
H2693 N2687 0.985 . S
H2694 N2691 0.984 . S
H2695 N2691 0.985 . S
H2696 N2690 0.984 . S
H2697 N2690 0.984 . S
H2698 N2686 0.984 . S
H2699 N2686 0.985 . S
C2700 C2701 1.363 . S
C2700 C2706 1.379 . S
C2700 N2708 1.356 . S
C2701 C2700 1.363 . S
C2701 C2707 1.363 1_556 S
C2702 C2703 1.367 . S
C2702 C2707 1.379 . S
C2702 N2709 1.356 . S
C2703 C2702 1.367 . S
C2703 C2706 1.356 1_554 S
N2704 C2706 1.356 . S
N2704 H2716 0.984 . S
N2704 H2717 0.985 . S
N2705 C2707 1.356 . S
N2705 H2710 0.984 1_554 S
N2705 H2711 0.985 . S
C2706 C2700 1.379 . S
C2706 C2703 1.356 1_556 S
C2706 N2704 1.356 . S
C2707 C2701 1.363 1_554 S
C2707 C2702 1.379 . S
C2707 N2705 1.356 . S
N2708 C2700 1.356 . S
N2708 H2714 0.984 . S
N2708 H2715 0.984 . S
N2709 C2702 1.356 . S
N2709 H2712 0.984 . S
N2709 H2713 0.985 . S
H2710 N2705 0.984 1_556 S
H2711 N2705 0.985 . S
H2712 N2709 0.984 . S
H2713 N2709 0.985 . S
H2714 N2708 0.984 . S
H2715 N2708 0.984 . S
H2716 N2704 0.984 . S
H2717 N2704 0.985 . S
C2718 C2719 1.363 . S
C2718 C2724 1.379 . S
C2718 N2726 1.356 . S
C2719 C2718 1.363 . S
C2719 C2725 1.363 . S
C2720 C2721 1.363 . S
C2720 C2725 1.379 . S
C2720 N2727 1.356 . S
C2721 C2720 1.363 . S
C2721 C2724 1.363 . S
N2722 C2724 1.356 . S
N2722 H2734 0.984 . S
N2722 H2735 0.985 . S
N2723 C2725 1.356 . S
N2723 H2728 0.984 . S
N2723 H2729 0.985 . S
C2724 C2718 1.379 . S
C2724 C2721 1.363 . S
C2724 N2722 1.356 . S
C2725 C2719 1.363 . S
C2725 C2720 1.379 . S
C2725 N2723 1.356 . S
N2726 C2718 1.356 . S
N2726 H2732 0.984 . S
N2726 H2733 0.984 . S
N2727 C2720 1.356 . S
N2727 H2730 0.984 . S
N2727 H2731 0.985 . S
H2728 N2723 0.984 . S
H2729 N2723 0.985 . S
H2730 N2727 0.984 . S
H2731 N2727 0.985 . S
H2732 N2726 0.984 . S
H2733 N2726 0.984 . S
H2734 N2722 0.984 . S
H2735 N2722 0.985 . S
C2736 C2737 1.363 . S
C2736 C2742 1.379 . S
C2736 N2744 1.356 . S
C2737 C2736 1.363 . S
C2737 C2743 1.363 1_545 S
C2738 C2739 1.363 1_565 S
C2738 C2743 1.379 . S
C2738 N2745 1.356 . S
C2739 C2738 1.363 1_545 S
C2739 C2742 1.363 . S
N2740 C2742 1.356 . S
N2740 H2752 0.984 . S
N2740 H2753 0.985 . S
N2741 C2743 1.356 . S
N2741 H2746 0.984 . S
N2741 H2747 0.985 . S
C2742 C2736 1.379 . S
C2742 C2739 1.363 . S
C2742 N2740 1.356 . S
C2743 C2737 1.363 1_565 S
C2743 C2738 1.379 . S
C2743 N2741 1.356 . S
N2744 C2736 1.356 . S
N2744 H2750 0.984 . S
N2744 H2751 0.984 . S
N2745 C2738 1.356 . S
N2745 H2748 0.984 . S
N2745 H2749 0.985 . S
H2746 N2741 0.984 . S
H2747 N2741 0.985 . S
H2748 N2745 0.984 . S
H2749 N2745 0.985 . S
H2750 N2744 0.984 . S
H2751 N2744 0.984 . S
H2752 N2740 0.984 . S
H2753 N2740 0.985 . S
C2754 C2755 1.363 . S
C2754 C2760 1.379 . S
C2754 N2762 1.356 . S
C2755 C2754 1.363 . S
C2755 C2761 1.363 . S
C2756 C2757 1.363 . S
C2756 C2761 1.379 . S
C2756 N2763 1.356 . S
C2757 C2756 1.363 . S
C2757 C2760 1.363 . S
N2758 C2760 1.356 . S
N2758 H2770 0.984 . S
N2758 H2771 0.985 . S
N2759 C2761 1.356 . S
N2759 H2764 0.984 . S
N2759 H2765 0.985 . S
C2760 C2754 1.379 . S
C2760 C2757 1.363 . S
C2760 N2758 1.356 . S
C2761 C2755 1.363 . S
C2761 C2756 1.379 . S
C2761 N2759 1.356 . S
N2762 C2754 1.356 . S
N2762 H2768 0.984 . S
N2762 H2769 0.984 . S
N2763 C2756 1.356 . S
N2763 H2766 0.984 . S
N2763 H2767 0.985 . S
H2764 N2759 0.984 . S
H2765 N2759 0.985 . S
H2766 N2763 0.984 . S
H2767 N2763 0.985 . S
H2768 N2762 0.984 . S
H2769 N2762 0.984 . S
H2770 N2758 0.984 . S
H2771 N2758 0.985 . S
C2772 C2773 1.363 . S
C2772 C2778 1.379 . S
C2772 N2780 1.356 . S
C2773 C2772 1.363 . S
C2773 C2779 1.363 . S
C2774 C2775 1.363 . S
C2774 C2779 1.379 . S
C2774 N2781 1.356 . S
C2775 C2774 1.363 . S
C2775 C2778 1.363 . S
N2776 C2778 1.356 . S
N2776 H2788 0.984 1_545 S
N2776 H2789 0.985 . S
N2777 C2779 1.356 . S
N2777 H2782 0.984 . S
N2777 H2783 0.985 . S
C2778 C2772 1.379 . S
C2778 C2775 1.363 . S
C2778 N2776 1.356 . S
C2779 C2773 1.363 . S
C2779 C2774 1.379 . S
C2779 N2777 1.356 . S
N2780 C2772 1.356 . S
N2780 H2786 0.984 . S
N2780 H2787 0.984 . S
N2781 C2774 1.356 . S
N2781 H2784 0.984 . S
N2781 H2785 0.985 . S
H2782 N2777 0.984 . S
H2783 N2777 0.985 . S
H2784 N2781 0.984 . S
H2785 N2781 0.985 . S
H2786 N2780 0.984 . S
H2787 N2780 0.984 . S
H2788 N2776 0.984 1_565 S
H2789 N2776 0.985 . S
C2790 C2791 1.363 . S
C2790 C2796 1.379 . S
C2790 N2798 1.356 . S
C2791 C2790 1.363 . S
C2791 C2797 1.363 . S
C2792 C2793 1.363 . S
C2792 C2797 1.379 . S
C2792 N2799 1.356 . S
C2793 C2792 1.363 . S
C2793 C2796 1.363 . S
N2794 C2796 1.356 . S
N2794 H2806 0.984 . S
N2794 H2807 0.985 . S
N2795 C2797 1.356 . S
N2795 H2800 0.984 . S
N2795 H2801 0.985 . S
C2796 C2790 1.379 . S
C2796 C2793 1.363 . S
C2796 N2794 1.356 . S
C2797 C2791 1.363 . S
C2797 C2792 1.379 . S
C2797 N2795 1.356 . S
N2798 C2790 1.356 . S
N2798 H2804 0.984 . S
N2798 H2805 0.984 . S
N2799 C2792 1.356 . S
N2799 H2802 0.984 . S
N2799 H2803 0.985 . S
H2800 N2795 0.984 . S
H2801 N2795 0.985 . S
H2802 N2799 0.984 . S
H2803 N2799 0.985 . S
H2804 N2798 0.984 . S
H2805 N2798 0.984 . S
H2806 N2794 0.984 . S
H2807 N2794 0.985 . S
C2808 C2809 1.366 . S
C2808 C2814 1.382 . S
C2808 N2816 1.350 1_545 S
C2809 C2808 1.366 . S
C2809 C2815 1.363 . S
C2810 C2811 1.363 . S
C2810 C2815 1.379 . S
C2810 N2817 1.356 . S
C2811 C2810 1.363 . S
C2811 C2814 1.363 . S
N2812 C2814 1.356 . S
N2812 H2824 0.984 1_545 S
N2812 H2825 0.985 . S
N2813 C2815 1.356 . S
N2813 H2818 0.984 . S
N2813 H2819 0.985 . S
C2814 C2808 1.382 . S
C2814 C2811 1.363 . S
C2814 N2812 1.356 . S
C2815 C2809 1.363 . S
C2815 C2810 1.379 . S
C2815 N2813 1.356 . S
N2816 C2808 1.350 1_565 S
N2816 H2822 0.984 . S
N2816 H2823 0.984 . S
N2817 C2810 1.356 . S
N2817 H2820 0.984 . S
N2817 H2821 0.985 . S
H2818 N2813 0.984 . S
H2819 N2813 0.985 . S
H2820 N2817 0.984 . S
H2821 N2817 0.985 . S
H2822 N2816 0.984 . S
H2823 N2816 0.984 . S
H2824 N2812 0.984 1_565 S
H2825 N2812 0.985 . S
C2826 C2827 1.363 . S
C2826 C2832 1.379 . S
C2826 N2834 1.356 . S
C2827 C2826 1.363 . S
C2827 C2833 1.363 . S
C2828 C2829 1.363 . S
C2828 C2833 1.379 . S
C2828 N2835 1.356 . S
C2829 C2828 1.363 . S
C2829 C2832 1.363 . S
N2830 C2832 1.356 . S
N2830 H2842 0.984 . S
N2830 H2843 0.985 . S
N2831 C2833 1.356 . S
N2831 H2836 0.984 . S
N2831 H2837 0.985 . S
C2832 C2826 1.379 . S
C2832 C2829 1.363 . S
C2832 N2830 1.356 . S
C2833 C2827 1.363 . S
C2833 C2828 1.379 . S
C2833 N2831 1.356 . S
N2834 C2826 1.356 . S
N2834 H2840 0.984 . S
N2834 H2841 0.984 . S
N2835 C2828 1.356 . S
N2835 H2838 0.984 . S
N2835 H2839 0.985 . S
H2836 N2831 0.984 . S
H2837 N2831 0.985 . S
H2838 N2835 0.984 . S
H2839 N2835 0.985 . S
H2840 N2834 0.984 . S
H2841 N2834 0.984 . S
H2842 N2830 0.984 . S
H2843 N2830 0.985 . S
C2844 C2845 1.363 . S
C2844 C2850 1.379 . S
C2844 N2852 1.356 . S
C2845 C2844 1.363 . S
C2845 C2851 1.363 . S
C2846 C2847 1.363 . S
C2846 C2851 1.379 . S
C2846 N2853 1.356 1_545 S
C2847 C2846 1.363 . S
C2847 C2850 1.363 . S
N2848 C2850 1.356 . S
N2848 H2860 0.984 . S
N2848 H2861 0.985 . S
N2849 C2851 1.356 . S
N2849 H2854 0.984 . S
N2849 H2855 0.985 . S
C2850 C2844 1.379 . S
C2850 C2847 1.363 . S
C2850 N2848 1.356 . S
C2851 C2845 1.363 . S
C2851 C2846 1.379 . S
C2851 N2849 1.356 . S
N2852 C2844 1.356 . S
N2852 H2858 0.984 . S
N2852 H2859 0.984 . S
N2853 C2846 1.356 1_565 S
N2853 H2856 0.984 . S
N2853 H2857 0.985 . S
H2854 N2849 0.984 . S
H2855 N2849 0.985 . S
H2856 N2853 0.984 . S
H2857 N2853 0.985 . S
H2858 N2852 0.984 . S
H2859 N2852 0.984 . S
H2860 N2848 0.984 . S
H2861 N2848 0.985 . S
C2862 C2863 1.363 . S
C2862 C2868 1.379 . S
C2862 N2870 1.356 . S
C2863 C2862 1.363 . S
C2863 C2869 1.363 . S
C2864 C2865 1.363 . S
C2864 C2869 1.379 . S
C2864 N2871 1.356 . S
C2865 C2864 1.363 . S
C2865 C2868 1.363 . S
N2866 C2868 1.356 . S
N2866 H2878 0.984 . S
N2866 H2879 0.985 . S
N2867 C2869 1.356 . S
N2867 H2872 0.984 . S
N2867 H2873 0.985 . S
C2868 C2862 1.379 . S
C2868 C2865 1.363 . S
C2868 N2866 1.356 . S
C2869 C2863 1.363 . S
C2869 C2864 1.379 . S
C2869 N2867 1.356 . S
N2870 C2862 1.356 . S
N2870 H2876 0.984 . S
N2870 H2877 0.984 . S
N2871 C2864 1.356 . S
N2871 H2874 0.984 . S
N2871 H2875 0.985 . S
H2872 N2867 0.984 . S
H2873 N2867 0.985 . S
H2874 N2871 0.984 . S
H2875 N2871 0.985 . S
H2876 N2870 0.984 . S
H2877 N2870 0.984 . S
H2878 N2866 0.984 . S
H2879 N2866 0.985 . S
C2880 C2881 1.363 . S
C2880 C2886 1.379 . S
C2880 N2888 1.356 . S
C2881 C2880 1.363 . S
C2881 C2887 1.363 . S
C2882 C2883 1.363 . S
C2882 C2887 1.379 . S
C2882 N2889 1.356 . S
C2883 C2882 1.363 . S
C2883 C2886 1.363 . S
N2884 C2886 1.356 . S
N2884 H2896 0.984 . S
N2884 H2897 0.985 . S
N2885 C2887 1.356 . S
N2885 H2890 0.984 . S
N2885 H2891 0.985 . S
C2886 C2880 1.379 . S
C2886 C2883 1.363 . S
C2886 N2884 1.356 . S
C2887 C2881 1.363 . S
C2887 C2882 1.379 . S
C2887 N2885 1.356 . S
N2888 C2880 1.356 . S
N2888 H2894 0.984 . S
N2888 H2895 0.984 . S
N2889 C2882 1.356 . S
N2889 H2892 0.984 . S
N2889 H2893 0.985 . S
H2890 N2885 0.984 . S
H2891 N2885 0.985 . S
H2892 N2889 0.984 . S
H2893 N2889 0.985 . S
H2894 N2888 0.984 . S
H2895 N2888 0.984 . S
H2896 N2884 0.984 . S
H2897 N2884 0.985 . S
C2898 C2899 1.363 . S
C2898 C2904 1.379 . S
C2898 N2906 1.356 . S
C2899 C2898 1.363 . S
C2899 C2905 1.363 . S
C2900 C2901 1.363 . S
C2900 C2905 1.379 . S
C2900 N2907 1.356 . S
C2901 C2900 1.363 . S
C2901 C2904 1.363 . S
N2902 C2904 1.356 . S
N2902 H2914 0.984 . S
N2902 H2915 0.985 . S
N2903 C2905 1.356 . S
N2903 H2908 0.984 . S
N2903 H2909 0.985 1_554 S
C2904 C2898 1.379 . S
C2904 C2901 1.363 . S
C2904 N2902 1.356 . S
C2905 C2899 1.363 . S
C2905 C2900 1.379 . S
C2905 N2903 1.356 . S
N2906 C2898 1.356 . S
N2906 H2912 0.984 . S
N2906 H2913 0.984 . S
N2907 C2900 1.356 . S
N2907 H2910 0.984 . S
N2907 H2911 0.985 1_554 S
H2908 N2903 0.984 . S
H2909 N2903 0.985 1_556 S
H2910 N2907 0.984 . S
H2911 N2907 0.985 1_556 S
H2912 N2906 0.984 . S
H2913 N2906 0.984 . S
H2914 N2902 0.984 . S
H2915 N2902 0.985 . S
C2916 C2917 1.363 . S
C2916 C2922 1.379 . S
C2916 N2924 1.356 . S
C2917 C2916 1.363 . S
C2917 C2923 1.363 . S
C2918 C2919 1.363 . S
C2918 C2923 1.379 . S
C2918 N2925 1.356 . S
C2919 C2918 1.363 . S
C2919 C2922 1.363 . S
N2920 C2922 1.356 . S
N2920 H2932 0.984 . S
N2920 H2933 0.985 . S
N2921 C2923 1.356 . S
N2921 H2926 0.984 . S
N2921 H2927 0.985 . S
C2922 C2916 1.379 . S
C2922 C2919 1.363 . S
C2922 N2920 1.356 . S
C2923 C2917 1.363 . S
C2923 C2918 1.379 . S
C2923 N2921 1.356 . S
N2924 C2916 1.356 . S
N2924 H2930 0.984 . S
N2924 H2931 0.984 . S
N2925 C2918 1.356 . S
N2925 H2928 0.984 . S
N2925 H2929 0.985 . S
H2926 N2921 0.984 . S
H2927 N2921 0.985 . S
H2928 N2925 0.984 . S
H2929 N2925 0.985 . S
H2930 N2924 0.984 . S
H2931 N2924 0.984 . S
H2932 N2920 0.984 . S
H2933 N2920 0.985 . S
C2934 C2935 1.363 . S
C2934 C2940 1.379 . S
C2934 N2942 1.356 . S
C2935 C2934 1.363 . S
C2935 C2941 1.363 . S
C2936 C2937 1.363 . S
C2936 C2941 1.379 . S
C2936 N2943 1.356 . S
C2937 C2936 1.363 . S
C2937 C2940 1.363 . S
N2938 C2940 1.356 . S
N2938 H2950 0.984 . S
N2938 H2951 0.985 . S
N2939 C2941 1.356 . S
N2939 H2944 0.984 . S
N2939 H2945 0.985 . S
C2940 C2934 1.379 . S
C2940 C2937 1.363 . S
C2940 N2938 1.356 . S
C2941 C2935 1.363 . S
C2941 C2936 1.379 . S
C2941 N2939 1.356 . S
N2942 C2934 1.356 . S
N2942 H2948 0.984 . S
N2942 H2949 0.984 . S
N2943 C2936 1.356 . S
N2943 H2946 0.984 . S
N2943 H2947 0.985 . S
H2944 N2939 0.984 . S
H2945 N2939 0.985 . S
H2946 N2943 0.984 . S
H2947 N2943 0.985 . S
H2948 N2942 0.984 . S
H2949 N2942 0.984 . S
H2950 N2938 0.984 . S
H2951 N2938 0.985 . S
C2952 C2953 1.363 . S
C2952 C2958 1.379 . S
C2952 N2960 1.356 . S
C2953 C2952 1.363 . S
C2953 C2959 1.363 . S
C2954 C2955 1.363 . S
C2954 C2959 1.379 . S
C2954 N2961 1.356 . S
C2955 C2954 1.363 . S
C2955 C2958 1.363 . S
N2956 C2958 1.356 . S
N2956 H2968 0.984 . S
N2956 H2969 0.985 . S
N2957 C2959 1.356 . S
N2957 H2962 0.984 . S
N2957 H2963 0.985 . S
C2958 C2952 1.379 . S
C2958 C2955 1.363 . S
C2958 N2956 1.356 . S
C2959 C2953 1.363 . S
C2959 C2954 1.379 . S
C2959 N2957 1.356 . S
N2960 C2952 1.356 . S
N2960 H2966 0.984 . S
N2960 H2967 0.984 . S
N2961 C2954 1.356 . S
N2961 H2964 0.984 . S
N2961 H2965 0.985 . S
H2962 N2957 0.984 . S
H2963 N2957 0.985 . S
H2964 N2961 0.984 . S
H2965 N2961 0.985 . S
H2966 N2960 0.984 . S
H2967 N2960 0.984 . S
H2968 N2956 0.984 . S
H2969 N2956 0.985 . S
C2970 C2971 1.363 . S
C2970 C2976 1.379 . S
C2970 N2978 1.356 . S
C2971 C2970 1.363 . S
C2971 C2977 1.363 . S
C2972 C2973 1.363 . S
C2972 C2977 1.379 . S
C2972 N2979 1.356 1_565 S
C2973 C2972 1.363 . S
C2973 C2976 1.363 . S
N2974 C2976 1.356 . S
N2974 H2986 0.984 . S
N2974 H2987 0.985 . S
N2975 C2977 1.356 . S
N2975 H2980 0.984 . S
N2975 H2981 0.985 . S
C2976 C2970 1.379 . S
C2976 C2973 1.363 . S
C2976 N2974 1.356 . S
C2977 C2971 1.363 . S
C2977 C2972 1.379 . S
C2977 N2975 1.356 . S
N2978 C2970 1.356 . S
N2978 H2984 0.984 . S
N2978 H2985 0.984 . S
N2979 C2972 1.356 1_545 S
N2979 H2982 0.984 . S
N2979 H2983 0.985 . S
H2980 N2975 0.984 . S
H2981 N2975 0.985 . S
H2982 N2979 0.984 . S
H2983 N2979 0.985 . S
H2984 N2978 0.984 . S
H2985 N2978 0.984 . S
H2986 N2974 0.984 . S
H2987 N2974 0.985 . S
C2988 C2989 1.363 . S
C2988 C2994 1.379 . S
C2988 N2996 1.356 . S
C2989 C2988 1.363 . S
C2989 C2995 1.363 . S
C2990 C2991 1.363 . S
C2990 C2995 1.379 . S
C2990 N2997 1.356 . S
C2991 C2990 1.363 . S
C2991 C2994 1.363 . S
N2992 C2994 1.356 . S
N2992 H3004 0.984 . S
N2992 H3005 0.985 . S
N2993 C2995 1.356 . S
N2993 H2998 0.984 . S
N2993 H2999 0.985 . S
C2994 C2988 1.379 . S
C2994 C2991 1.363 . S
C2994 N2992 1.356 . S
C2995 C2989 1.363 . S
C2995 C2990 1.379 . S
C2995 N2993 1.356 . S
N2996 C2988 1.356 . S
N2996 H3002 0.984 . S
N2996 H3003 0.984 . S
N2997 C2990 1.356 . S
N2997 H3000 0.984 . S
N2997 H3001 0.985 . S
H2998 N2993 0.984 . S
H2999 N2993 0.985 . S
H3000 N2997 0.984 . S
H3001 N2997 0.985 . S
H3002 N2996 0.984 . S
H3003 N2996 0.984 . S
H3004 N2992 0.984 . S
H3005 N2992 0.985 . S
C3006 C3007 1.363 . S
C3006 C3012 1.379 . S
C3006 N3014 1.356 . S
C3007 C3006 1.363 . S
C3007 C3013 1.363 . S
C3008 C3009 1.363 . S
C3008 C3013 1.379 . S
C3008 N3015 1.356 . S
C3009 C3008 1.363 . S
C3009 C3012 1.363 . S
N3010 C3012 1.356 . S
N3010 H3022 0.984 . S
N3010 H3023 0.985 . S
N3011 C3013 1.356 . S
N3011 H3016 0.984 . S
N3011 H3017 0.985 . S
C3012 C3006 1.379 . S
C3012 C3009 1.363 . S
C3012 N3010 1.356 . S
C3013 C3007 1.363 . S
C3013 C3008 1.379 . S
C3013 N3011 1.356 . S
N3014 C3006 1.356 . S
N3014 H3020 0.984 . S
N3014 H3021 0.984 . S
N3015 C3008 1.356 . S
N3015 H3018 0.984 . S
N3015 H3019 0.985 . S
H3016 N3011 0.984 . S
H3017 N3011 0.985 . S
H3018 N3015 0.984 . S
H3019 N3015 0.985 . S
H3020 N3014 0.984 . S
H3021 N3014 0.984 . S
H3022 N3010 0.984 . S
H3023 N3010 0.985 . S
C3024 C3025 1.363 . S
C3024 C3030 1.379 . S
C3024 N3032 1.356 1_455 S
C3025 C3024 1.363 . S
C3025 C3031 1.363 . S
C3026 C3027 1.362 1_554 S
C3026 C3031 1.375 1_554 S
C3026 N3033 1.362 . S
C3027 C3026 1.362 1_556 S
C3027 C3030 1.363 . S
N3028 C3030 1.358 . S
N3028 H3040 0.981 1_455 S
N3028 H3041 0.986 . S
N3029 C3031 1.356 . S
N3029 H3034 0.984 . S
N3029 H3035 0.985 . S
C3030 C3024 1.379 . S
C3030 C3027 1.363 . S
C3030 N3028 1.358 . S
C3031 C3025 1.363 . S
C3031 C3026 1.375 1_556 S
C3031 N3029 1.356 . S
N3032 C3024 1.356 1_655 S
N3032 H3038 0.984 . S
N3032 H3039 0.984 . S
N3033 C3026 1.362 . S
N3033 H3036 0.984 . S
N3033 H3037 0.985 . S
H3034 N3029 0.984 . S
H3035 N3029 0.985 . S
H3036 N3033 0.984 . S
H3037 N3033 0.985 . S
H3038 N3032 0.984 . S
H3039 N3032 0.984 . S
H3040 N3028 0.981 1_655 S
H3041 N3028 0.986 . S
C3042 C3043 1.363 . S
C3042 C3048 1.379 . S
C3042 N3050 1.356 . S
C3043 C3042 1.363 . S
C3043 C3049 1.363 . S
C3044 C3045 1.363 . S
C3044 C3049 1.379 . S
C3044 N3051 1.356 . S
C3045 C3044 1.363 . S
C3045 C3048 1.363 . S
N3046 C3048 1.356 . S
N3046 H3058 0.984 . S
N3046 H3059 0.985 . S
N3047 C3049 1.356 . S
N3047 H3052 0.984 . S
N3047 H3053 0.985 . S
C3048 C3042 1.379 . S
C3048 C3045 1.363 . S
C3048 N3046 1.356 . S
C3049 C3043 1.363 . S
C3049 C3044 1.379 . S
C3049 N3047 1.356 . S
N3050 C3042 1.356 . S
N3050 H3056 0.984 . S
N3050 H3057 0.984 . S
N3051 C3044 1.356 . S
N3051 H3054 0.984 . S
N3051 H3055 0.985 . S
H3052 N3047 0.984 . S
H3053 N3047 0.985 . S
H3054 N3051 0.984 . S
H3055 N3051 0.985 . S
H3056 N3050 0.984 . S
H3057 N3050 0.984 . S
H3058 N3046 0.984 . S
H3059 N3046 0.985 . S
C3060 C3061 1.363 . S
C3060 C3066 1.379 . S
C3060 N3068 1.356 . S
C3061 C3060 1.363 . S
C3061 C3067 1.363 . S
C3062 C3063 1.363 . S
C3062 C3067 1.379 . S
C3062 N3069 1.356 . S
C3063 C3062 1.363 . S
C3063 C3066 1.363 . S
N3064 C3066 1.356 . S
N3064 H3076 0.984 . S
N3064 H3077 0.985 . S
N3065 C3067 1.356 . S
N3065 H3070 0.984 . S
N3065 H3071 0.985 . S
C3066 C3060 1.379 . S
C3066 C3063 1.363 . S
C3066 N3064 1.356 . S
C3067 C3061 1.363 . S
C3067 C3062 1.379 . S
C3067 N3065 1.356 . S
N3068 C3060 1.356 . S
N3068 H3074 0.984 . S
N3068 H3075 0.984 . S
N3069 C3062 1.356 . S
N3069 H3072 0.984 . S
N3069 H3073 0.985 . S
H3070 N3065 0.984 . S
H3071 N3065 0.985 . S
H3072 N3069 0.984 . S
H3073 N3069 0.985 . S
H3074 N3068 0.984 . S
H3075 N3068 0.984 . S
H3076 N3064 0.984 . S
H3077 N3064 0.985 . S
C3078 C3079 1.363 . S
C3078 C3084 1.379 . S
C3078 N3086 1.356 . S
C3079 C3078 1.363 . S
C3079 C3085 1.363 . S
C3080 C3081 1.363 . S
C3080 C3085 1.379 . S
C3080 N3087 1.356 . S
C3081 C3080 1.363 . S
C3081 C3084 1.363 . S
N3082 C3084 1.356 . S
N3082 H3094 0.984 . S
N3082 H3095 0.985 . S
N3083 C3085 1.356 . S
N3083 H3088 0.984 . S
N3083 H3089 0.985 . S
C3084 C3078 1.379 . S
C3084 C3081 1.363 . S
C3084 N3082 1.356 . S
C3085 C3079 1.363 . S
C3085 C3080 1.379 . S
C3085 N3083 1.356 . S
N3086 C3078 1.356 . S
N3086 H3092 0.984 . S
N3086 H3093 0.984 . S
N3087 C3080 1.356 . S
N3087 H3090 0.984 . S
N3087 H3091 0.985 . S
H3088 N3083 0.984 . S
H3089 N3083 0.985 . S
H3090 N3087 0.984 . S
H3091 N3087 0.985 . S
H3092 N3086 0.984 . S
H3093 N3086 0.984 . S
H3094 N3082 0.984 . S
H3095 N3082 0.985 . S
C3096 C3097 1.363 . S
C3096 C3102 1.379 . S
C3096 N3104 1.356 . S
C3097 C3096 1.363 . S
C3097 C3103 1.363 . S
C3098 C3099 1.363 . S
C3098 C3103 1.379 . S
C3098 N3105 1.356 . S
C3099 C3098 1.363 . S
C3099 C3102 1.363 . S
N3100 C3102 1.356 . S
N3100 H3112 0.984 . S
N3100 H3113 0.985 . S
N3101 C3103 1.356 1_655 S
N3101 H3106 0.984 . S
N3101 H3107 0.985 . S
C3102 C3096 1.379 . S
C3102 C3099 1.363 . S
C3102 N3100 1.356 . S
C3103 C3097 1.363 . S
C3103 C3098 1.379 . S
C3103 N3101 1.356 1_455 S
N3104 C3096 1.356 . S
N3104 H3110 0.984 . S
N3104 H3111 0.984 . S
N3105 C3098 1.356 . S
N3105 H3108 0.984 . S
N3105 H3109 0.985 . S
H3106 N3101 0.984 . S
H3107 N3101 0.985 . S
H3108 N3105 0.984 . S
H3109 N3105 0.985 . S
H3110 N3104 0.984 . S
H3111 N3104 0.984 . S
H3112 N3100 0.984 . S
H3113 N3100 0.985 . S
C3114 C3115 1.363 . S
C3114 C3120 1.379 . S
C3114 N3122 1.356 . S
C3115 C3114 1.363 . S
C3115 C3121 1.363 . S
C3116 C3117 1.363 . S
C3116 C3121 1.379 . S
C3116 N3123 1.356 . S
C3117 C3116 1.363 . S
C3117 C3120 1.363 . S
N3118 C3120 1.356 . S
N3118 H3130 0.984 . S
N3118 H3131 0.985 . S
N3119 C3121 1.356 . S
N3119 H3124 0.984 . S
N3119 H3125 0.985 . S
C3120 C3114 1.379 . S
C3120 C3117 1.363 . S
C3120 N3118 1.356 . S
C3121 C3115 1.363 . S
C3121 C3116 1.379 . S
C3121 N3119 1.356 . S
N3122 C3114 1.356 . S
N3122 H3128 0.984 . S
N3122 H3129 0.984 . S
N3123 C3116 1.356 . S
N3123 H3126 0.984 . S
N3123 H3127 0.985 . S
H3124 N3119 0.984 . S
H3125 N3119 0.985 . S
H3126 N3123 0.984 . S
H3127 N3123 0.985 . S
H3128 N3122 0.984 . S
H3129 N3122 0.984 . S
H3130 N3118 0.984 . S
H3131 N3118 0.985 . S
C3132 C3133 1.363 . S
C3132 C3138 1.379 . S
C3132 N3140 1.356 . S
C3133 C3132 1.363 . S
C3133 C3139 1.363 . S
C3134 C3135 1.363 . S
C3134 C3139 1.379 . S
C3134 N3141 1.356 . S
C3135 C3134 1.363 . S
C3135 C3138 1.363 . S
N3136 C3138 1.356 . S
N3136 H3148 0.984 . S
N3136 H3149 0.985 . S
N3137 C3139 1.356 . S
N3137 H3142 0.984 . S
N3137 H3143 0.985 . S
C3138 C3132 1.379 . S
C3138 C3135 1.363 . S
C3138 N3136 1.356 . S
C3139 C3133 1.363 . S
C3139 C3134 1.379 . S
C3139 N3137 1.356 . S
N3140 C3132 1.356 . S
N3140 H3146 0.984 . S
N3140 H3147 0.984 . S
N3141 C3134 1.356 . S
N3141 H3144 0.984 1_565 S
N3141 H3145 0.985 . S
H3142 N3137 0.984 . S
H3143 N3137 0.985 . S
H3144 N3141 0.984 1_545 S
H3145 N3141 0.985 . S
H3146 N3140 0.984 . S
H3147 N3140 0.984 . S
H3148 N3136 0.984 . S
H3149 N3136 0.985 . S
C3150 C3151 1.363 . S
C3150 C3156 1.379 . S
C3150 N3158 1.356 . S
C3151 C3150 1.363 . S
C3151 C3157 1.363 . S
C3152 C3153 1.363 . S
C3152 C3157 1.379 . S
C3152 N3159 1.356 . S
C3153 C3152 1.363 . S
C3153 C3156 1.363 . S
N3154 C3156 1.356 . S
N3154 H3166 0.984 . S
N3154 H3167 0.985 . S
N3155 C3157 1.356 . S
N3155 H3160 0.984 . S
N3155 H3161 0.985 . S
C3156 C3150 1.379 . S
C3156 C3153 1.363 . S
C3156 N3154 1.356 . S
C3157 C3151 1.363 . S
C3157 C3152 1.379 . S
C3157 N3155 1.356 . S
N3158 C3150 1.356 . S
N3158 H3164 0.984 . S
N3158 H3165 0.984 . S
N3159 C3152 1.356 . S
N3159 H3162 0.984 . S
N3159 H3163 0.985 . S
H3160 N3155 0.984 . S
H3161 N3155 0.985 . S
H3162 N3159 0.984 . S
H3163 N3159 0.985 . S
H3164 N3158 0.984 . S
H3165 N3158 0.984 . S
H3166 N3154 0.984 . S
H3167 N3154 0.985 . S
C3168 C3169 1.363 . S
C3168 C3174 1.380 . S
C3168 N3176 1.356 1_655 S
C3169 C3168 1.363 . S
C3169 C3175 1.363 . S
C3170 C3171 1.363 . S
C3170 C3175 1.379 . S
C3170 N3177 1.356 . S
C3171 C3170 1.363 . S
C3171 C3174 1.367 . S
N3172 C3174 1.351 1_455 S
N3172 H3184 0.984 . S
N3172 H3185 0.985 . S
N3173 C3175 1.356 . S
N3173 H3178 0.984 . S
N3173 H3179 0.985 . S
C3174 C3168 1.380 . S
C3174 C3171 1.367 . S
C3174 N3172 1.351 1_655 S
C3175 C3169 1.363 . S
C3175 C3170 1.379 . S
C3175 N3173 1.356 . S
N3176 C3168 1.356 1_455 S
N3176 H3182 0.984 . S
N3176 H3183 0.961 1_455 S
N3177 C3170 1.356 . S
N3177 H3180 0.984 . S
N3177 H3181 0.985 . S
H3178 N3173 0.984 . S
H3179 N3173 0.985 . S
H3180 N3177 0.984 . S
H3181 N3177 0.985 . S
H3182 N3176 0.984 . S
H3183 N3176 0.961 1_655 S
H3184 N3172 0.984 . S
H3185 N3172 0.985 . S
C3186 C3187 1.363 . S
C3186 C3192 1.379 . S
C3186 N3194 1.356 . S
C3187 C3186 1.363 . S
C3187 C3193 1.363 . S
C3188 C3189 1.363 . S
C3188 C3193 1.379 . S
C3188 N3195 1.356 . S
C3189 C3188 1.363 . S
C3189 C3192 1.363 . S
N3190 C3192 1.356 . S
N3190 H3202 0.984 . S
N3190 H3203 0.985 . S
N3191 C3193 1.356 . S
N3191 H3196 0.984 . S
N3191 H3197 0.985 . S
C3192 C3186 1.379 . S
C3192 C3189 1.363 . S
C3192 N3190 1.356 . S
C3193 C3187 1.363 . S
C3193 C3188 1.379 . S
C3193 N3191 1.356 . S
N3194 C3186 1.356 . S
N3194 H3200 0.984 . S
N3194 H3201 0.984 . S
N3195 C3188 1.356 . S
N3195 H3198 0.984 . S
N3195 H3199 0.985 . S
H3196 N3191 0.984 . S
H3197 N3191 0.985 . S
H3198 N3195 0.984 . S
H3199 N3195 0.985 . S
H3200 N3194 0.984 . S
H3201 N3194 0.984 . S
H3202 N3190 0.984 . S
H3203 N3190 0.985 . S
C3204 C3205 1.363 . S
C3204 C3210 1.379 . S
C3204 N3212 1.356 . S
C3205 C3204 1.363 . S
C3205 C3211 1.363 1_545 S
C3206 C3207 1.363 1_565 S
C3206 C3211 1.379 . S
C3206 N3213 1.356 . S
C3207 C3206 1.363 1_545 S
C3207 C3210 1.363 . S
N3208 C3210 1.356 . S
N3208 H3220 0.984 . S
N3208 H3221 0.985 . S
N3209 C3211 1.356 . S
N3209 H3214 0.984 . S
N3209 H3215 0.985 . S
C3210 C3204 1.379 . S
C3210 C3207 1.363 . S
C3210 N3208 1.356 . S
C3211 C3205 1.363 1_565 S
C3211 C3206 1.379 . S
C3211 N3209 1.356 . S
N3212 C3204 1.356 . S
N3212 H3218 0.984 . S
N3212 H3219 0.984 . S
N3213 C3206 1.356 . S
N3213 H3216 0.984 . S
N3213 H3217 0.985 . S
H3214 N3209 0.984 . S
H3215 N3209 0.985 . S
H3216 N3213 0.984 . S
H3217 N3213 0.985 . S
H3218 N3212 0.984 . S
H3219 N3212 0.984 . S
H3220 N3208 0.984 . S
H3221 N3208 0.985 . S
C3222 C3223 1.363 . S
C3222 C3228 1.379 . S
C3222 N3230 1.356 . S
C3223 C3222 1.363 . S
C3223 C3229 1.363 . S
C3224 C3225 1.363 . S
C3224 C3229 1.379 . S
C3224 N3231 1.356 . S
C3225 C3224 1.363 . S
C3225 C3228 1.363 . S
N3226 C3228 1.356 . S
N3226 H3238 0.984 . S
N3226 H3239 0.985 . S
N3227 C3229 1.356 . S
N3227 H3232 0.984 . S
N3227 H3233 0.985 . S
C3228 C3222 1.379 . S
C3228 C3225 1.363 . S
C3228 N3226 1.356 . S
C3229 C3223 1.363 . S
C3229 C3224 1.379 . S
C3229 N3227 1.356 . S
N3230 C3222 1.356 . S
N3230 H3236 0.984 . S
N3230 H3237 0.984 . S
N3231 C3224 1.356 . S
N3231 H3234 0.984 . S
N3231 H3235 0.985 . S
H3232 N3227 0.984 . S
H3233 N3227 0.985 . S
H3234 N3231 0.984 . S
H3235 N3231 0.985 . S
H3236 N3230 0.984 . S
H3237 N3230 0.984 . S
H3238 N3226 0.984 . S
H3239 N3226 0.985 . S
C3240 C3241 1.363 . S
C3240 C3246 1.379 . S
C3240 N3248 1.356 . S
C3241 C3240 1.363 . S
C3241 C3247 1.398 . S
C3242 C3243 1.363 1_455 S
C3242 C3247 1.368 1_455 S
C3242 N3249 1.356 . S
C3243 C3242 1.363 1_655 S
C3243 C3246 1.363 . S
N3244 C3246 1.356 . S
N3244 H3256 0.984 . S
N3244 H3257 0.985 . S
N3245 C3247 1.342 1_455 S
N3245 H3250 0.984 1_455 S
N3245 H3251 0.985 . S
C3246 C3240 1.379 . S
C3246 C3243 1.363 . S
C3246 N3244 1.356 . S
C3247 C3241 1.398 . S
C3247 C3242 1.368 1_655 S
C3247 N3245 1.342 1_655 S
N3248 C3240 1.356 . S
N3248 H3254 0.984 . S
N3248 H3255 0.984 . S
N3249 C3242 1.356 . S
N3249 H3252 0.984 . S
N3249 H3253 0.985 . S
H3250 N3245 0.984 1_655 S
H3251 N3245 0.985 . S
H3252 N3249 0.984 . S
H3253 N3249 0.985 . S
H3254 N3248 0.984 . S
H3255 N3248 0.984 . S
H3256 N3244 0.984 . S
H3257 N3244 0.985 . S
C3258 C3259 1.363 . S
C3258 C3264 1.379 . S
C3258 N3266 1.356 . S
C3259 C3258 1.363 . S
C3259 C3265 1.363 . S
C3260 C3261 1.363 . S
C3260 C3265 1.379 . S
C3260 N3267 1.356 . S
C3261 C3260 1.363 . S
C3261 C3264 1.363 . S
N3262 C3264 1.356 . S
N3262 H3274 0.984 . S
N3262 H3275 0.985 . S
N3263 C3265 1.356 . S
N3263 H3268 0.984 . S
N3263 H3269 0.985 . S
C3264 C3258 1.379 . S
C3264 C3261 1.363 . S
C3264 N3262 1.356 . S
C3265 C3259 1.363 . S
C3265 C3260 1.379 . S
C3265 N3263 1.356 . S
N3266 C3258 1.356 . S
N3266 H3272 0.984 . S
N3266 H3273 0.984 . S
N3267 C3260 1.356 . S
N3267 H3270 0.984 . S
N3267 H3271 0.985 . S
H3268 N3263 0.984 . S
H3269 N3263 0.985 . S
H3270 N3267 0.984 . S
H3271 N3267 0.985 . S
H3272 N3266 0.984 . S
H3273 N3266 0.984 . S
H3274 N3262 0.984 . S
H3275 N3262 0.985 . S
C3276 C3277 1.363 . S
C3276 C3282 1.379 . S
C3276 N3284 1.356 1_545 S
C3277 C3276 1.363 . S
C3277 C3283 1.363 . S
C3278 C3279 1.363 . S
C3278 C3283 1.379 . S
C3278 N3285 1.356 . S
C3279 C3278 1.363 . S
C3279 C3282 1.363 . S
N3280 C3282 1.356 . S
N3280 H3292 0.984 1_545 S
N3280 H3293 0.985 . S
N3281 C3283 1.356 . S
N3281 H3286 0.984 . S
N3281 H3287 0.985 . S
C3282 C3276 1.379 . S
C3282 C3279 1.363 . S
C3282 N3280 1.356 . S
C3283 C3277 1.363 . S
C3283 C3278 1.379 . S
C3283 N3281 1.356 . S
N3284 C3276 1.356 1_565 S
N3284 H3290 0.984 . S
N3284 H3291 0.984 . S
N3285 C3278 1.356 . S
N3285 H3288 0.984 . S
N3285 H3289 0.985 . S
H3286 N3281 0.984 . S
H3287 N3281 0.985 . S
H3288 N3285 0.984 . S
H3289 N3285 0.985 . S
H3290 N3284 0.984 . S
H3291 N3284 0.984 . S
H3292 N3280 0.984 1_565 S
H3293 N3280 0.985 . S
C3294 C3295 1.363 . S
C3294 C3300 1.379 . S
C3294 N3302 1.356 . S
C3295 C3294 1.363 . S
C3295 C3301 1.363 . S
C3296 C3297 1.363 . S
C3296 C3301 1.379 . S
C3296 N3303 1.356 . S
C3297 C3296 1.363 . S
C3297 C3300 1.363 . S
N3298 C3300 1.356 . S
N3298 H3310 0.984 . S
N3298 H3311 0.985 . S
N3299 C3301 1.356 . S
N3299 H3304 0.984 . S
N3299 H3305 0.985 . S
C3300 C3294 1.379 . S
C3300 C3297 1.363 . S
C3300 N3298 1.356 . S
C3301 C3295 1.363 . S
C3301 C3296 1.379 . S
C3301 N3299 1.356 . S
N3302 C3294 1.356 . S
N3302 H3308 0.984 . S
N3302 H3309 0.984 . S
N3303 C3296 1.356 . S
N3303 H3306 0.984 . S
N3303 H3307 0.985 . S
H3304 N3299 0.984 . S
H3305 N3299 0.985 . S
H3306 N3303 0.984 . S
H3307 N3303 0.985 . S
H3308 N3302 0.984 . S
H3309 N3302 0.984 . S
H3310 N3298 0.984 . S
H3311 N3298 0.985 . S
C3312 C3313 1.363 1_545 S
C3312 C3318 1.379 . S
C3312 N3320 1.356 . S
C3313 C3312 1.363 1_565 S
C3313 C3319 1.363 . S
C3314 C3315 1.363 1_565 S
C3314 C3319 1.379 . S
C3314 N3321 1.356 . S
C3315 C3314 1.363 1_545 S
C3315 C3318 1.363 . S
N3316 C3318 1.356 . S
N3316 H3328 0.984 . S
N3316 H3329 0.985 . S
N3317 C3319 1.356 . S
N3317 H3322 0.984 . S
N3317 H3323 0.985 . S
C3318 C3312 1.379 . S
C3318 C3315 1.363 . S
C3318 N3316 1.356 . S
C3319 C3313 1.363 . S
C3319 C3314 1.379 . S
C3319 N3317 1.356 . S
N3320 C3312 1.356 . S
N3320 H3326 0.984 . S
N3320 H3327 0.984 . S
N3321 C3314 1.356 . S
N3321 H3324 0.984 . S
N3321 H3325 0.985 . S
H3322 N3317 0.984 . S
H3323 N3317 0.985 . S
H3324 N3321 0.984 . S
H3325 N3321 0.985 . S
H3326 N3320 0.984 . S
H3327 N3320 0.984 . S
H3328 N3316 0.984 . S
H3329 N3316 0.985 . S
C3330 C3331 1.363 . S
C3330 C3336 1.374 1_556 S
C3330 N3338 1.362 . S
C3331 C3330 1.363 . S
C3331 C3337 1.356 1_556 S
C3332 C3333 1.363 . S
C3332 C3337 1.379 . S
C3332 N3339 1.356 . S
C3333 C3332 1.363 . S
C3333 C3336 1.363 . S
N3334 C3336 1.356 . S
N3334 H3346 0.984 . S
N3334 H3347 0.985 . S
N3335 C3337 1.356 . S
N3335 H3340 0.984 1_554 S
N3335 H3341 0.985 . S
C3336 C3330 1.374 1_554 S
C3336 C3333 1.363 . S
C3336 N3334 1.356 . S
C3337 C3331 1.356 1_554 S
C3337 C3332 1.379 . S
C3337 N3335 1.356 . S
N3338 C3330 1.362 . S
N3338 H3344 0.984 . S
N3338 H3345 0.984 . S
N3339 C3332 1.356 . S
N3339 H3342 0.984 . S
N3339 H3343 0.985 . S
H3340 N3335 0.984 1_556 S
H3341 N3335 0.985 . S
H3342 N3339 0.984 . S
H3343 N3339 0.985 . S
H3344 N3338 0.984 . S
H3345 N3338 0.984 . S
H3346 N3334 0.984 . S
H3347 N3334 0.985 . S
C3348 C3349 1.363 . S
C3348 C3354 1.379 . S
C3348 N3356 1.356 . S
C3349 C3348 1.363 . S
C3349 C3355 1.363 . S
C3350 C3351 1.363 . S
C3350 C3355 1.379 . S
C3350 N3357 1.356 . S
C3351 C3350 1.363 . S
C3351 C3354 1.363 . S
N3352 C3354 1.356 . S
N3352 H3364 0.984 . S
N3352 H3365 0.985 . S
N3353 C3355 1.356 . S
N3353 H3358 0.984 . S
N3353 H3359 0.985 . S
C3354 C3348 1.379 . S
C3354 C3351 1.363 . S
C3354 N3352 1.356 . S
C3355 C3349 1.363 . S
C3355 C3350 1.379 . S
C3355 N3353 1.356 . S
N3356 C3348 1.356 . S
N3356 H3362 0.984 . S
N3356 H3363 0.984 . S
N3357 C3350 1.356 . S
N3357 H3360 0.984 . S
N3357 H3361 0.985 . S
H3358 N3353 0.984 . S
H3359 N3353 0.985 . S
H3360 N3357 0.984 . S
H3361 N3357 0.985 . S
H3362 N3356 0.984 . S
H3363 N3356 0.984 . S
H3364 N3352 0.984 . S
H3365 N3352 0.985 . S
C3366 C3367 1.363 . S
C3366 C3372 1.379 . S
C3366 N3374 1.356 . S
C3367 C3366 1.363 . S
C3367 C3373 1.363 . S
C3368 C3369 1.363 . S
C3368 C3373 1.379 . S
C3368 N3375 1.356 . S
C3369 C3368 1.363 . S
C3369 C3372 1.363 . S
N3370 C3372 1.356 . S
N3370 H3382 0.984 . S
N3370 H3383 0.985 . S
N3371 C3373 1.356 . S
N3371 H3376 0.984 . S
N3371 H3377 0.985 . S
C3372 C3366 1.379 . S
C3372 C3369 1.363 . S
C3372 N3370 1.356 . S
C3373 C3367 1.363 . S
C3373 C3368 1.379 . S
C3373 N3371 1.356 . S
N3374 C3366 1.356 . S
N3374 H3380 0.984 . S
N3374 H3381 0.984 . S
N3375 C3368 1.356 . S
N3375 H3378 0.984 . S
N3375 H3379 0.985 . S
H3376 N3371 0.984 . S
H3377 N3371 0.985 . S
H3378 N3375 0.984 . S
H3379 N3375 0.985 . S
H3380 N3374 0.984 . S
H3381 N3374 0.984 . S
H3382 N3370 0.984 . S
H3383 N3370 0.985 . S
C3384 C3385 1.363 . S
C3384 C3390 1.379 . S
C3384 N3392 1.356 . S
C3385 C3384 1.363 . S
C3385 C3391 1.363 . S
C3386 C3387 1.363 . S
C3386 C3391 1.379 . S
C3386 N3393 1.356 . S
C3387 C3386 1.363 . S
C3387 C3390 1.363 . S
N3388 C3390 1.356 . S
N3388 H3400 0.984 . S
N3388 H3401 0.985 . S
N3389 C3391 1.356 . S
N3389 H3394 0.984 . S
N3389 H3395 0.985 . S
C3390 C3384 1.379 . S
C3390 C3387 1.363 . S
C3390 N3388 1.356 . S
C3391 C3385 1.363 . S
C3391 C3386 1.379 . S
C3391 N3389 1.356 . S
N3392 C3384 1.356 . S
N3392 H3398 0.984 . S
N3392 H3399 0.984 . S
N3393 C3386 1.356 . S
N3393 H3396 0.984 . S
N3393 H3397 0.985 . S
H3394 N3389 0.984 . S
H3395 N3389 0.985 . S
H3396 N3393 0.984 . S
H3397 N3393 0.985 . S
H3398 N3392 0.984 . S
H3399 N3392 0.984 . S
H3400 N3388 0.984 . S
H3401 N3388 0.985 . S
C3402 C3403 1.363 . S
C3402 C3408 1.379 . S
C3402 N3410 1.356 . S
C3403 C3402 1.363 . S
C3403 C3409 1.363 . S
C3404 C3405 1.363 . S
C3404 C3409 1.379 . S
C3404 N3411 1.356 . S
C3405 C3404 1.363 . S
C3405 C3408 1.363 . S
N3406 C3408 1.356 . S
N3406 H3418 0.984 . S
N3406 H3419 0.985 . S
N3407 C3409 1.356 . S
N3407 H3412 0.984 . S
N3407 H3413 0.985 . S
C3408 C3402 1.379 . S
C3408 C3405 1.363 . S
C3408 N3406 1.356 . S
C3409 C3403 1.363 . S
C3409 C3404 1.379 . S
C3409 N3407 1.356 . S
N3410 C3402 1.356 . S
N3410 H3416 0.984 . S
N3410 H3417 0.984 . S
N3411 C3404 1.356 . S
N3411 H3414 0.984 . S
N3411 H3415 0.985 . S
H3412 N3407 0.984 . S
H3413 N3407 0.985 . S
H3414 N3411 0.984 . S
H3415 N3411 0.985 . S
H3416 N3410 0.984 . S
H3417 N3410 0.984 . S
H3418 N3406 0.984 . S
H3419 N3406 0.985 . S
C3420 C3421 1.363 . S
C3420 C3426 1.379 . S
C3420 N3428 1.356 . S
C3421 C3420 1.363 . S
C3421 C3427 1.363 . S
C3422 C3423 1.363 . S
C3422 C3427 1.379 . S
C3422 N3429 1.356 . S
C3423 C3422 1.363 . S
C3423 C3426 1.363 . S
N3424 C3426 1.356 . S
N3424 H3436 0.984 . S
N3424 H3437 0.985 . S
N3425 C3427 1.356 . S
N3425 H3430 0.984 . S
N3425 H3431 0.985 . S
C3426 C3420 1.379 . S
C3426 C3423 1.363 . S
C3426 N3424 1.356 . S
C3427 C3421 1.363 . S
C3427 C3422 1.379 . S
C3427 N3425 1.356 . S
N3428 C3420 1.356 . S
N3428 H3434 0.984 . S
N3428 H3435 0.984 . S
N3429 C3422 1.356 . S
N3429 H3432 0.984 . S
N3429 H3433 0.985 . S
H3430 N3425 0.984 . S
H3431 N3425 0.985 . S
H3432 N3429 0.984 . S
H3433 N3429 0.985 . S
H3434 N3428 0.984 . S
H3435 N3428 0.984 . S
H3436 N3424 0.984 . S
H3437 N3424 0.985 . S
C3438 C3439 1.363 . S
C3438 C3444 1.379 . S
C3438 N3446 1.356 . S
C3439 C3438 1.363 . S
C3439 C3445 1.363 . S
C3440 C3441 1.363 . S
C3440 C3445 1.379 . S
C3440 N3447 1.356 . S
C3441 C3440 1.363 . S
C3441 C3444 1.363 . S
N3442 C3444 1.356 . S
N3442 H3454 0.984 . S
N3442 H3455 0.985 . S
N3443 C3445 1.356 . S
N3443 H3448 0.984 . S
N3443 H3449 0.985 . S
C3444 C3438 1.379 . S
C3444 C3441 1.363 . S
C3444 N3442 1.356 . S
C3445 C3439 1.363 . S
C3445 C3440 1.379 . S
C3445 N3443 1.356 . S
N3446 C3438 1.356 . S
N3446 H3452 0.984 . S
N3446 H3453 0.984 . S
N3447 C3440 1.356 . S
N3447 H3450 0.984 . S
N3447 H3451 0.985 . S
H3448 N3443 0.984 . S
H3449 N3443 0.985 . S
H3450 N3447 0.984 . S
H3451 N3447 0.985 . S
H3452 N3446 0.984 . S
H3453 N3446 0.984 . S
H3454 N3442 0.984 . S
H3455 N3442 0.985 . S
C3456 C3457 1.363 . S
C3456 C3462 1.379 . S
C3456 N3464 1.356 . S
C3457 C3456 1.363 . S
C3457 C3463 1.363 . S
C3458 C3459 1.363 . S
C3458 C3463 1.379 . S
C3458 N3465 1.356 . S
C3459 C3458 1.363 . S
C3459 C3462 1.363 . S
N3460 C3462 1.356 . S
N3460 H3472 0.984 . S
N3460 H3473 0.985 . S
N3461 C3463 1.356 . S
N3461 H3466 0.984 . S
N3461 H3467 0.985 . S
C3462 C3456 1.379 . S
C3462 C3459 1.363 . S
C3462 N3460 1.356 . S
C3463 C3457 1.363 . S
C3463 C3458 1.379 . S
C3463 N3461 1.356 . S
N3464 C3456 1.356 . S
N3464 H3470 0.984 . S
N3464 H3471 0.984 . S
N3465 C3458 1.356 . S
N3465 H3468 0.984 . S
N3465 H3469 0.985 . S
H3466 N3461 0.984 . S
H3467 N3461 0.985 . S
H3468 N3465 0.984 . S
H3469 N3465 0.985 . S
H3470 N3464 0.984 . S
H3471 N3464 0.984 . S
H3472 N3460 0.984 . S
H3473 N3460 0.985 . S
C3474 C3475 1.363 . S
C3474 C3480 1.379 . S
C3474 N3482 1.356 . S
C3475 C3474 1.363 . S
C3475 C3481 1.363 . S
C3476 C3477 1.363 . S
C3476 C3481 1.379 . S
C3476 N3483 1.356 . S
C3477 C3476 1.363 . S
C3477 C3480 1.363 . S
N3478 C3480 1.356 . S
N3478 H3490 0.984 . S
N3478 H3491 0.985 . S
N3479 C3481 1.356 . S
N3479 H3484 0.984 . S
N3479 H3485 0.985 . S
C3480 C3474 1.379 . S
C3480 C3477 1.363 . S
C3480 N3478 1.356 . S
C3481 C3475 1.363 . S
C3481 C3476 1.379 . S
C3481 N3479 1.356 . S
N3482 C3474 1.356 . S
N3482 H3488 0.984 . S
N3482 H3489 0.984 . S
N3483 C3476 1.356 . S
N3483 H3486 0.984 . S
N3483 H3487 0.985 . S
H3484 N3479 0.984 . S
H3485 N3479 0.985 . S
H3486 N3483 0.984 . S
H3487 N3483 0.985 . S
H3488 N3482 0.984 . S
H3489 N3482 0.984 . S
H3490 N3478 0.984 . S
H3491 N3478 0.985 . S
C3492 C3493 1.363 . S
C3492 C3498 1.379 . S
C3492 N3500 1.356 . S
C3493 C3492 1.363 . S
C3493 C3499 1.363 . S
C3494 C3495 1.363 . S
C3494 C3499 1.379 . S
C3494 N3501 1.356 . S
C3495 C3494 1.363 . S
C3495 C3498 1.363 . S
N3496 C3498 1.356 . S
N3496 H3508 0.984 . S
N3496 H3509 0.985 . S
N3497 C3499 1.356 . S
N3497 H3502 0.984 . S
N3497 H3503 0.979 1_455 S
C3498 C3492 1.379 . S
C3498 C3495 1.363 . S
C3498 N3496 1.356 . S
C3499 C3493 1.363 . S
C3499 C3494 1.379 . S
C3499 N3497 1.356 . S
N3500 C3492 1.356 . S
N3500 H3506 0.984 . S
N3500 H3507 0.984 . S
N3501 C3494 1.356 . S
N3501 H3504 0.984 . S
N3501 H3505 0.985 . S
H3502 N3497 0.984 . S
H3503 N3497 0.979 1_655 S
H3504 N3501 0.984 . S
H3505 N3501 0.985 . S
H3506 N3500 0.984 . S
H3507 N3500 0.984 . S
H3508 N3496 0.984 . S
H3509 N3496 0.985 . S
C3510 C3511 1.363 . S
C3510 C3516 1.379 . S
C3510 N3518 1.356 . S
C3511 C3510 1.363 . S
C3511 C3517 1.363 . S
C3512 C3513 1.363 . S
C3512 C3517 1.379 . S
C3512 N3519 1.356 . S
C3513 C3512 1.363 . S
C3513 C3516 1.363 . S
N3514 C3516 1.356 . S
N3514 H3526 0.984 . S
N3514 H3527 0.985 . S
N3515 C3517 1.356 . S
N3515 H3520 0.984 . S
N3515 H3521 0.985 . S
C3516 C3510 1.379 . S
C3516 C3513 1.363 . S
C3516 N3514 1.356 . S
C3517 C3511 1.363 . S
C3517 C3512 1.379 . S
C3517 N3515 1.356 . S
N3518 C3510 1.356 . S
N3518 H3524 0.984 . S
N3518 H3525 0.984 . S
N3519 C3512 1.356 . S
N3519 H3522 0.984 . S
N3519 H3523 0.985 . S
H3520 N3515 0.984 . S
H3521 N3515 0.985 . S
H3522 N3519 0.984 . S
H3523 N3519 0.985 . S
H3524 N3518 0.984 . S
H3525 N3518 0.984 . S
H3526 N3514 0.984 . S
H3527 N3514 0.985 . S
C3528 C3529 1.363 . S
C3528 C3534 1.379 . S
C3528 N3536 1.356 . S
C3529 C3528 1.363 . S
C3529 C3535 1.363 1_556 S
C3530 C3531 1.363 1_554 S
C3530 C3535 1.379 . S
C3530 N3537 1.356 . S
C3531 C3530 1.363 1_556 S
C3531 C3534 1.363 . S
N3532 C3534 1.356 . S
N3532 H3544 0.984 . S
N3532 H3545 0.985 . S
N3533 C3535 1.356 . S
N3533 H3538 0.984 . S
N3533 H3539 0.985 . S
C3534 C3528 1.379 . S
C3534 C3531 1.363 . S
C3534 N3532 1.356 . S
C3535 C3529 1.363 1_554 S
C3535 C3530 1.379 . S
C3535 N3533 1.356 . S
N3536 C3528 1.356 . S
N3536 H3542 0.984 . S
N3536 H3543 0.984 . S
N3537 C3530 1.356 . S
N3537 H3540 0.984 . S
N3537 H3541 0.985 . S
H3538 N3533 0.984 . S
H3539 N3533 0.985 . S
H3540 N3537 0.984 . S
H3541 N3537 0.985 . S
H3542 N3536 0.984 . S
H3543 N3536 0.984 . S
H3544 N3532 0.984 . S
H3545 N3532 0.985 . S
C3546 C3547 1.363 . S
C3546 C3552 1.379 . S
C3546 N3554 1.356 . S
C3547 C3546 1.363 . S
C3547 C3553 1.363 . S
C3548 C3549 1.363 . S
C3548 C3553 1.379 . S
C3548 N3555 1.356 . S
C3549 C3548 1.363 . S
C3549 C3552 1.363 . S
N3550 C3552 1.356 . S
N3550 H3562 0.984 . S
N3550 H3563 0.985 . S
N3551 C3553 1.356 . S
N3551 H3556 0.984 . S
N3551 H3557 0.985 . S
C3552 C3546 1.379 . S
C3552 C3549 1.363 . S
C3552 N3550 1.356 . S
C3553 C3547 1.363 . S
C3553 C3548 1.379 . S
C3553 N3551 1.356 . S
N3554 C3546 1.356 . S
N3554 H3560 0.984 . S
N3554 H3561 0.984 . S
N3555 C3548 1.356 . S
N3555 H3558 0.984 . S
N3555 H3559 0.985 . S
H3556 N3551 0.984 . S
H3557 N3551 0.985 . S
H3558 N3555 0.984 . S
H3559 N3555 0.985 . S
H3560 N3554 0.984 . S
H3561 N3554 0.984 . S
H3562 N3550 0.984 . S
H3563 N3550 0.985 . S
C3564 C3565 1.363 . S
C3564 C3570 1.379 . S
C3564 N3572 1.356 . S
C3565 C3564 1.363 . S
C3565 C3571 1.363 . S
C3566 C3567 1.363 . S
C3566 C3571 1.379 . S
C3566 N3573 1.356 . S
C3567 C3566 1.363 . S
C3567 C3570 1.363 . S
N3568 C3570 1.356 . S
N3568 H3580 0.984 . S
N3568 H3581 0.985 . S
N3569 C3571 1.356 . S
N3569 H3574 0.984 . S
N3569 H3575 0.985 . S
C3570 C3564 1.379 . S
C3570 C3567 1.363 . S
C3570 N3568 1.356 . S
C3571 C3565 1.363 . S
C3571 C3566 1.379 . S
C3571 N3569 1.356 . S
N3572 C3564 1.356 . S
N3572 H3578 0.984 . S
N3572 H3579 0.984 . S
N3573 C3566 1.356 . S
N3573 H3576 0.984 . S
N3573 H3577 1.007 . S
H3574 N3569 0.984 . S
H3575 N3569 0.985 . S
H3576 N3573 0.984 . S
H3577 N3573 1.007 . S
H3578 N3572 0.984 . S
H3579 N3572 0.984 . S
H3580 N3568 0.984 . S
H3581 N3568 0.985 . S
C3582 C3583 1.363 . S
C3582 C3588 1.379 . S
C3582 N3590 1.356 . S
C3583 C3582 1.363 . S
C3583 C3589 1.363 . S
C3584 C3585 1.363 . S
C3584 C3589 1.379 . S
C3584 N3591 1.356 . S
C3585 C3584 1.363 . S
C3585 C3588 1.363 . S
N3586 C3588 1.356 . S
N3586 H3598 0.984 . S
N3586 H3599 0.985 . S
N3587 C3589 1.356 . S
N3587 H3592 0.984 . S
N3587 H3593 0.985 . S
C3588 C3582 1.379 . S
C3588 C3585 1.363 . S
C3588 N3586 1.356 . S
C3589 C3583 1.363 . S
C3589 C3584 1.379 . S
C3589 N3587 1.356 . S
N3590 C3582 1.356 . S
N3590 H3596 0.984 . S
N3590 H3597 0.984 . S
N3591 C3584 1.356 . S
N3591 H3594 0.984 . S
N3591 H3595 0.985 . S
H3592 N3587 0.984 . S
H3593 N3587 0.985 . S
H3594 N3591 0.984 . S
H3595 N3591 0.985 . S
H3596 N3590 0.984 . S
H3597 N3590 0.984 . S
H3598 N3586 0.984 . S
H3599 N3586 0.985 . S
C3600 C3601 1.363 . S
C3600 C3606 1.379 . S
C3600 N3608 1.356 . S
C3601 C3600 1.363 . S
C3601 C3607 1.363 . S
C3602 C3603 1.363 . S
C3602 C3607 1.379 . S
C3602 N3609 1.356 . S
C3603 C3602 1.363 . S
C3603 C3606 1.363 . S
N3604 C3606 1.356 . S
N3604 H3616 0.984 . S
N3604 H3617 0.985 . S
N3605 C3607 1.356 . S
N3605 H3610 0.984 . S
N3605 H3611 0.985 . S
C3606 C3600 1.379 . S
C3606 C3603 1.363 . S
C3606 N3604 1.356 . S
C3607 C3601 1.363 . S
C3607 C3602 1.379 . S
C3607 N3605 1.356 . S
N3608 C3600 1.356 . S
N3608 H3614 0.984 . S
N3608 H3615 0.984 . S
N3609 C3602 1.356 . S
N3609 H3612 0.984 . S
N3609 H3613 0.985 . S
H3610 N3605 0.984 . S
H3611 N3605 0.985 . S
H3612 N3609 0.984 . S
H3613 N3609 0.985 . S
H3614 N3608 0.984 . S
H3615 N3608 0.984 . S
H3616 N3604 0.984 . S
H3617 N3604 0.985 . S
C3618 C3619 1.363 . S
C3618 C3624 1.379 . S
C3618 N3626 1.356 . S
C3619 C3618 1.363 . S
C3619 C3625 1.363 . S
C3620 C3621 1.363 . S
C3620 C3625 1.379 . S
C3620 N3627 1.356 . S
C3621 C3620 1.363 . S
C3621 C3624 1.363 . S
N3622 C3624 1.356 . S
N3622 H3634 0.984 . S
N3622 H3635 0.985 . S
N3623 C3625 1.356 . S
N3623 H3628 0.984 . S
N3623 H3629 0.985 . S
C3624 C3618 1.379 . S
C3624 C3621 1.363 . S
C3624 N3622 1.356 . S
C3625 C3619 1.363 . S
C3625 C3620 1.379 . S
C3625 N3623 1.356 . S
N3626 C3618 1.356 . S
N3626 H3632 0.984 . S
N3626 H3633 0.984 . S
N3627 C3620 1.356 . S
N3627 H3630 0.984 . S
N3627 H3631 0.985 . S
H3628 N3623 0.984 . S
H3629 N3623 0.985 . S
H3630 N3627 0.984 . S
H3631 N3627 0.985 . S
H3632 N3626 0.984 . S
H3633 N3626 0.984 . S
H3634 N3622 0.984 . S
H3635 N3622 0.985 . S
C3636 C3637 1.363 . S
C3636 C3642 1.379 . S
C3636 N3644 1.356 . S
C3637 C3636 1.363 . S
C3637 C3643 1.363 . S
C3638 C3639 1.363 1_455 S
C3638 C3643 1.379 1_455 S
C3638 N3645 1.356 . S
C3639 C3638 1.363 1_655 S
C3639 C3642 1.363 . S
N3640 C3642 1.356 . S
N3640 H3652 0.984 . S
N3640 H3653 0.985 . S
N3641 C3643 1.356 . S
N3641 H3646 0.984 . S
N3641 H3647 0.985 1_655 S
C3642 C3636 1.379 . S
C3642 C3639 1.363 . S
C3642 N3640 1.356 . S
C3643 C3637 1.363 . S
C3643 C3638 1.379 1_655 S
C3643 N3641 1.356 . S
N3644 C3636 1.356 . S
N3644 H3650 0.984 . S
N3644 H3651 0.984 . S
N3645 C3638 1.356 . S
N3645 H3648 0.984 . S
N3645 H3649 0.985 . S
H3646 N3641 0.984 . S
H3647 N3641 0.985 1_455 S
H3648 N3645 0.984 . S
H3649 N3645 0.985 . S
H3650 N3644 0.984 . S
H3651 N3644 0.984 . S
H3652 N3640 0.984 . S
H3653 N3640 0.985 . S
C3654 C3655 1.363 . S
C3654 C3660 1.379 . S
C3654 N3662 1.356 . S
C3655 C3654 1.363 . S
C3655 C3661 1.363 . S
C3656 C3657 1.363 . S
C3656 C3661 1.379 . S
C3656 N3663 1.356 . S
C3657 C3656 1.363 . S
C3657 C3660 1.363 . S
N3658 C3660 1.356 . S
N3658 H3670 0.984 . S
N3658 H3671 0.985 . S
N3659 C3661 1.356 . S
N3659 H3664 0.984 . S
N3659 H3665 0.985 . S
C3660 C3654 1.379 . S
C3660 C3657 1.363 . S
C3660 N3658 1.356 . S
C3661 C3655 1.363 . S
C3661 C3656 1.379 . S
C3661 N3659 1.356 . S
N3662 C3654 1.356 . S
N3662 H3668 0.984 . S
N3662 H3669 0.984 . S
N3663 C3656 1.356 . S
N3663 H3666 0.984 . S
N3663 H3667 0.985 . S
H3664 N3659 0.984 . S
H3665 N3659 0.985 . S
H3666 N3663 0.984 . S
H3667 N3663 0.985 . S
H3668 N3662 0.984 . S
H3669 N3662 0.984 . S
H3670 N3658 0.984 . S
H3671 N3658 0.985 . S
C3672 C3673 1.363 . S
C3672 C3678 1.379 . S
C3672 N3680 1.356 . S
C3673 C3672 1.363 . S
C3673 C3679 1.363 . S
C3674 C3675 1.363 . S
C3674 C3679 1.379 . S
C3674 N3681 1.356 . S
C3675 C3674 1.363 . S
C3675 C3678 1.363 . S
N3676 C3678 1.356 . S
N3676 H3688 0.984 . S
N3676 H3689 0.985 . S
N3677 C3679 1.356 . S
N3677 H3682 0.984 . S
N3677 H3683 0.985 . S
C3678 C3672 1.379 . S
C3678 C3675 1.363 . S
C3678 N3676 1.356 . S
C3679 C3673 1.363 . S
C3679 C3674 1.379 . S
C3679 N3677 1.356 . S
N3680 C3672 1.356 . S
N3680 H3686 0.984 . S
N3680 H3687 0.984 . S
N3681 C3674 1.356 . S
N3681 H3684 0.984 . S
N3681 H3685 0.985 . S
H3682 N3677 0.984 . S
H3683 N3677 0.985 . S
H3684 N3681 0.984 . S
H3685 N3681 0.985 . S
H3686 N3680 0.984 . S
H3687 N3680 0.984 . S
H3688 N3676 0.984 . S
H3689 N3676 0.985 . S
C3690 C3691 1.363 . S
C3690 C3696 1.379 . S
C3690 N3698 1.356 . S
C3691 C3690 1.363 . S
C3691 C3697 1.363 . S
C3692 C3693 1.363 . S
C3692 C3697 1.379 . S
C3692 N3699 1.356 . S
C3693 C3692 1.363 . S
C3693 C3696 1.363 . S
N3694 C3696 1.356 . S
N3694 H3706 0.984 . S
N3694 H3707 0.985 . S
N3695 C3697 1.356 . S
N3695 H3700 0.984 . S
N3695 H3701 0.985 . S
C3696 C3690 1.379 . S
C3696 C3693 1.363 . S
C3696 N3694 1.356 . S
C3697 C3691 1.363 . S
C3697 C3692 1.379 . S
C3697 N3695 1.356 . S
N3698 C3690 1.356 . S
N3698 H3704 0.984 . S
N3698 H3705 0.984 . S
N3699 C3692 1.356 . S
N3699 H3702 0.984 . S
N3699 H3703 0.985 . S
H3700 N3695 0.984 . S
H3701 N3695 0.985 . S
H3702 N3699 0.984 . S
H3703 N3699 0.985 . S
H3704 N3698 0.984 . S
H3705 N3698 0.984 . S
H3706 N3694 0.984 . S
H3707 N3694 0.985 . S
C3708 C3709 1.363 . S
C3708 C3714 1.379 . S
C3708 N3716 1.356 . S
C3709 C3708 1.363 . S
C3709 C3715 1.363 . S
C3710 C3711 1.366 . S
C3710 C3715 1.380 . S
C3710 N3717 1.352 1_655 S
C3711 C3710 1.366 . S
C3711 C3714 1.363 . S
N3712 C3714 1.356 . S
N3712 H3724 0.984 . S
N3712 H3725 0.985 . S
N3713 C3715 1.356 1_455 S
N3713 H3718 0.984 1_455 S
N3713 H3719 0.985 . S
C3714 C3708 1.379 . S
C3714 C3711 1.363 . S
C3714 N3712 1.356 . S
C3715 C3709 1.363 . S
C3715 C3710 1.380 . S
C3715 N3713 1.356 1_655 S
N3716 C3708 1.356 . S
N3716 H3722 0.984 . S
N3716 H3723 0.984 . S
N3717 C3710 1.352 1_455 S
N3717 H3720 0.984 . S
N3717 H3721 0.985 . S
H3718 N3713 0.984 1_655 S
H3719 N3713 0.985 . S
H3720 N3717 0.984 . S
H3721 N3717 0.985 . S
H3722 N3716 0.984 . S
H3723 N3716 0.984 . S
H3724 N3712 0.984 . S
H3725 N3712 0.985 . S
C3726 C3727 1.363 . S
C3726 C3732 1.379 . S
C3726 N3734 1.356 . S
C3727 C3726 1.363 . S
C3727 C3733 1.363 . S
C3728 C3729 1.363 . S
C3728 C3733 1.379 . S
C3728 N3735 1.356 . S
C3729 C3728 1.363 . S
C3729 C3732 1.363 . S
N3730 C3732 1.356 . S
N3730 H3742 0.984 . S
N3730 H3743 0.985 . S
N3731 C3733 1.356 . S
N3731 H3736 0.984 . S
N3731 H3737 0.985 . S
C3732 C3726 1.379 . S
C3732 C3729 1.363 . S
C3732 N3730 1.356 . S
C3733 C3727 1.363 . S
C3733 C3728 1.379 . S
C3733 N3731 1.356 . S
N3734 C3726 1.356 . S
N3734 H3740 0.984 . S
N3734 H3741 0.984 . S
N3735 C3728 1.356 . S
N3735 H3738 0.984 . S
N3735 H3739 0.985 . S
H3736 N3731 0.984 . S
H3737 N3731 0.985 . S
H3738 N3735 0.984 . S
H3739 N3735 0.985 . S
H3740 N3734 0.984 . S
H3741 N3734 0.984 . S
H3742 N3730 0.984 . S
H3743 N3730 0.985 . S
C3744 C3745 1.363 . S
C3744 C3750 1.379 . S
C3744 N3752 1.356 . S
C3745 C3744 1.363 . S
C3745 C3751 1.363 . S
C3746 C3747 1.363 . S
C3746 C3751 1.379 . S
C3746 N3753 1.356 . S
C3747 C3746 1.363 . S
C3747 C3750 1.363 . S
N3748 C3750 1.356 . S
N3748 H3760 0.984 . S
N3748 H3761 0.985 . S
N3749 C3751 1.356 . S
N3749 H3754 0.984 . S
N3749 H3755 0.985 . S
C3750 C3744 1.379 . S
C3750 C3747 1.363 . S
C3750 N3748 1.356 . S
C3751 C3745 1.363 . S
C3751 C3746 1.379 . S
C3751 N3749 1.356 . S
N3752 C3744 1.356 . S
N3752 H3758 0.984 . S
N3752 H3759 0.984 . S
N3753 C3746 1.356 . S
N3753 H3756 0.984 . S
N3753 H3757 0.985 . S
H3754 N3749 0.984 . S
H3755 N3749 0.985 . S
H3756 N3753 0.984 . S
H3757 N3753 0.985 . S
H3758 N3752 0.984 . S
H3759 N3752 0.984 . S
H3760 N3748 0.984 . S
H3761 N3748 0.985 . S
C3762 C3763 1.363 1_545 S
C3762 C3768 1.379 . S
C3762 N3770 1.356 . S
C3763 C3762 1.363 1_565 S
C3763 C3769 1.363 . S
C3764 C3765 1.363 1_565 S
C3764 C3769 1.379 . S
C3764 N3771 1.356 . S
C3765 C3764 1.363 1_545 S
C3765 C3768 1.363 . S
N3766 C3768 1.356 . S
N3766 H3778 0.984 . S
N3766 H3779 0.985 . S
N3767 C3769 1.356 . S
N3767 H3772 0.984 . S
N3767 H3773 0.985 . S
C3768 C3762 1.379 . S
C3768 C3765 1.363 . S
C3768 N3766 1.356 . S
C3769 C3763 1.363 . S
C3769 C3764 1.379 . S
C3769 N3767 1.356 . S
N3770 C3762 1.356 . S
N3770 H3776 0.984 . S
N3770 H3777 0.984 . S
N3771 C3764 1.356 . S
N3771 H3774 0.984 . S
N3771 H3775 0.985 . S
H3772 N3767 0.984 . S
H3773 N3767 0.985 . S
H3774 N3771 0.984 . S
H3775 N3771 0.985 . S
H3776 N3770 0.984 . S
H3777 N3770 0.984 . S
H3778 N3766 0.984 . S
H3779 N3766 0.985 . S
C3780 C3781 1.363 . S
C3780 C3786 1.379 . S
C3780 N3788 1.356 . S
C3781 C3780 1.363 . S
C3781 C3787 1.363 . S
C3782 C3783 1.363 . S
C3782 C3787 1.379 . S
C3782 N3789 1.356 . S
C3783 C3782 1.363 . S
C3783 C3786 1.363 . S
N3784 C3786 1.356 . S
N3784 H3796 0.984 . S
N3784 H3797 0.985 . S
N3785 C3787 1.356 . S
N3785 H3790 0.984 . S
N3785 H3791 0.985 . S
C3786 C3780 1.379 . S
C3786 C3783 1.363 . S
C3786 N3784 1.356 . S
C3787 C3781 1.363 . S
C3787 C3782 1.379 . S
C3787 N3785 1.356 . S
N3788 C3780 1.356 . S
N3788 H3794 0.984 . S
N3788 H3795 0.984 . S
N3789 C3782 1.356 . S
N3789 H3792 0.984 . S
N3789 H3793 0.985 . S
H3790 N3785 0.984 . S
H3791 N3785 0.985 . S
H3792 N3789 0.984 . S
H3793 N3789 0.985 . S
H3794 N3788 0.984 . S
H3795 N3788 0.984 . S
H3796 N3784 0.984 . S
H3797 N3784 0.985 . S
C3798 C3799 1.363 . S
C3798 C3804 1.379 . S
C3798 N3806 1.356 . S
C3799 C3798 1.363 . S
C3799 C3805 1.363 . S
C3800 C3801 1.363 . S
C3800 C3805 1.379 . S
C3800 N3807 1.356 . S
C3801 C3800 1.363 . S
C3801 C3804 1.363 . S
N3802 C3804 1.356 . S
N3802 H3814 0.984 . S
N3802 H3815 0.985 . S
N3803 C3805 1.356 . S
N3803 H3808 0.984 . S
N3803 H3809 0.985 . S
C3804 C3798 1.379 . S
C3804 C3801 1.363 . S
C3804 N3802 1.356 . S
C3805 C3799 1.363 . S
C3805 C3800 1.379 . S
C3805 N3803 1.356 . S
N3806 C3798 1.356 . S
N3806 H3812 0.984 . S
N3806 H3813 0.984 . S
N3807 C3800 1.356 . S
N3807 H3810 0.984 . S
N3807 H3811 0.985 . S
H3808 N3803 0.984 . S
H3809 N3803 0.985 . S
H3810 N3807 0.984 . S
H3811 N3807 0.985 . S
H3812 N3806 0.984 . S
H3813 N3806 0.984 . S
H3814 N3802 0.984 . S
H3815 N3802 0.985 . S
C3816 C3817 1.363 . S
C3816 C3822 1.379 . S
C3816 N3824 1.356 . S
C3817 C3816 1.363 . S
C3817 C3823 1.363 . S
C3818 C3819 1.363 . S
C3818 C3823 1.379 . S
C3818 N3825 1.356 . S
C3819 C3818 1.363 . S
C3819 C3822 1.363 . S
N3820 C3822 1.356 . S
N3820 H3832 0.984 . S
N3820 H3833 0.985 . S
N3821 C3823 1.356 . S
N3821 H3826 0.984 . S
N3821 H3827 0.985 . S
C3822 C3816 1.379 . S
C3822 C3819 1.363 . S
C3822 N3820 1.356 . S
C3823 C3817 1.363 . S
C3823 C3818 1.379 . S
C3823 N3821 1.356 . S
N3824 C3816 1.356 . S
N3824 H3830 0.984 . S
N3824 H3831 0.984 . S
N3825 C3818 1.356 . S
N3825 H3828 0.984 . S
N3825 H3829 0.985 . S
H3826 N3821 0.984 . S
H3827 N3821 0.985 . S
H3828 N3825 0.984 . S
H3829 N3825 0.985 . S
H3830 N3824 0.984 . S
H3831 N3824 0.984 . S
H3832 N3820 0.984 . S
H3833 N3820 0.985 . S
C3834 C3835 1.363 . S
C3834 C3840 1.379 . S
C3834 N3842 1.356 . S
C3835 C3834 1.363 . S
C3835 C3841 1.363 . S
C3836 C3837 1.363 . S
C3836 C3841 1.379 . S
C3836 N3843 1.356 . S
C3837 C3836 1.363 . S
C3837 C3840 1.363 . S
N3838 C3840 1.356 . S
N3838 H3850 0.984 . S
N3838 H3851 0.985 . S
N3839 C3841 1.356 . S
N3839 H3844 0.984 . S
N3839 H3845 0.985 . S
C3840 C3834 1.379 . S
C3840 C3837 1.363 . S
C3840 N3838 1.356 . S
C3841 C3835 1.363 . S
C3841 C3836 1.379 . S
C3841 N3839 1.356 . S
N3842 C3834 1.356 . S
N3842 H3848 0.984 . S
N3842 H3849 0.984 . S
N3843 C3836 1.356 . S
N3843 H3846 1.002 . S
N3843 H3847 0.985 . S
H3844 N3839 0.984 . S
H3845 N3839 0.985 . S
H3846 N3843 1.002 . S
H3847 N3843 0.985 . S
H3848 N3842 0.984 . S
H3849 N3842 0.984 . S
H3850 N3838 0.984 . S
H3851 N3838 0.985 . S
C3852 C3853 1.363 . S
C3852 C3858 1.379 . S
C3852 N3860 1.356 . S
C3853 C3852 1.363 . S
C3853 C3859 1.363 . S
C3854 C3855 1.363 . S
C3854 C3859 1.379 . S
C3854 N3861 1.356 . S
C3855 C3854 1.363 . S
C3855 C3858 1.363 . S
N3856 C3858 1.356 . S
N3856 H3868 0.984 . S
N3856 H3869 0.985 . S
N3857 C3859 1.356 . S
N3857 H3862 0.984 . S
N3857 H3863 0.985 . S
C3858 C3852 1.379 . S
C3858 C3855 1.363 . S
C3858 N3856 1.356 . S
C3859 C3853 1.363 . S
C3859 C3854 1.379 . S
C3859 N3857 1.356 . S
N3860 C3852 1.356 . S
N3860 H3866 0.984 . S
N3860 H3867 0.984 . S
N3861 C3854 1.356 . S
N3861 H3864 0.984 . S
N3861 H3865 0.985 . S
H3862 N3857 0.984 . S
H3863 N3857 0.985 . S
H3864 N3861 0.984 . S
H3865 N3861 0.985 . S
H3866 N3860 0.984 . S
H3867 N3860 0.984 . S
H3868 N3856 0.984 . S
H3869 N3856 0.985 . S
C3870 C3871 1.363 . S
C3870 C3876 1.379 . S
C3870 N3878 1.356 . S
C3871 C3870 1.363 . S
C3871 C3877 1.363 . S
C3872 C3873 1.363 . S
C3872 C3877 1.379 . S
C3872 N3879 1.356 . S
C3873 C3872 1.363 . S
C3873 C3876 1.363 . S
N3874 C3876 1.356 . S
N3874 H3886 0.984 . S
N3874 H3887 0.985 . S
N3875 C3877 1.356 . S
N3875 H3880 0.984 . S
N3875 H3881 0.985 . S
C3876 C3870 1.379 . S
C3876 C3873 1.363 . S
C3876 N3874 1.356 . S
C3877 C3871 1.363 . S
C3877 C3872 1.379 . S
C3877 N3875 1.356 . S
N3878 C3870 1.356 . S
N3878 H3884 0.984 . S
N3878 H3885 0.984 . S
N3879 C3872 1.356 . S
N3879 H3882 0.984 . S
N3879 H3883 0.985 . S
H3880 N3875 0.984 . S
H3881 N3875 0.985 . S
H3882 N3879 0.984 . S
H3883 N3879 0.985 . S
H3884 N3878 0.984 . S
H3885 N3878 0.984 . S
H3886 N3874 0.984 . S
H3887 N3874 0.985 . S
C3888 C3889 1.363 . S
C3888 C3894 1.379 . S
C3888 N3896 1.356 . S
C3889 C3888 1.363 . S
C3889 C3895 1.363 . S
C3890 C3891 1.363 . S
C3890 C3895 1.379 . S
C3890 N3897 1.356 . S
C3891 C3890 1.363 . S
C3891 C3894 1.363 . S
N3892 C3894 1.356 . S
N3892 H3904 0.984 . S
N3892 H3905 0.985 . S
N3893 C3895 1.356 . S
N3893 H3898 0.984 . S
N3893 H3899 0.985 . S
C3894 C3888 1.379 . S
C3894 C3891 1.363 . S
C3894 N3892 1.356 . S
C3895 C3889 1.363 . S
C3895 C3890 1.379 . S
C3895 N3893 1.356 . S
N3896 C3888 1.356 . S
N3896 H3902 0.984 . S
N3896 H3903 0.984 . S
N3897 C3890 1.356 . S
N3897 H3900 0.984 . S
N3897 H3901 0.985 . S
H3898 N3893 0.984 . S
H3899 N3893 0.985 . S
H3900 N3897 0.984 . S
H3901 N3897 0.985 . S
H3902 N3896 0.984 . S
H3903 N3896 0.984 . S
H3904 N3892 0.984 . S
H3905 N3892 0.985 . S
C3906 C3907 1.363 . S
C3906 C3912 1.379 . S
C3906 N3914 1.356 . S
C3907 C3906 1.363 . S
C3907 C3913 1.363 . S
C3908 C3909 1.363 . S
C3908 C3913 1.379 . S
C3908 N3915 1.356 . S
C3909 C3908 1.363 . S
C3909 C3912 1.363 . S
N3910 C3912 1.356 . S
N3910 H3922 0.984 . S
N3910 H3923 0.985 . S
N3911 C3913 1.356 . S
N3911 H3916 0.984 . S
N3911 H3917 0.985 . S
C3912 C3906 1.379 . S
C3912 C3909 1.363 . S
C3912 N3910 1.356 . S
C3913 C3907 1.363 . S
C3913 C3908 1.379 . S
C3913 N3911 1.356 . S
N3914 C3906 1.356 . S
N3914 H3920 0.984 . S
N3914 H3921 0.984 . S
N3915 C3908 1.356 . S
N3915 H3918 0.984 . S
N3915 H3919 0.985 . S
H3916 N3911 0.984 . S
H3917 N3911 0.985 . S
H3918 N3915 0.984 . S
H3919 N3915 0.985 . S
H3920 N3914 0.984 . S
H3921 N3914 0.984 . S
H3922 N3910 0.984 . S
H3923 N3910 0.985 . S
C3924 C3925 1.363 1_554 S
C3924 C3930 1.379 . S
C3924 N3932 1.356 . S
C3925 C3924 1.363 1_556 S
C3925 C3931 1.363 . S
C3926 C3927 1.363 . S
C3926 C3931 1.379 . S
C3926 N3933 1.356 1_455 S
C3927 C3926 1.363 . S
C3927 C3930 1.363 1_556 S
N3928 C3930 1.356 . S
N3928 H3940 0.984 . S
N3928 H3941 0.985 . S
N3929 C3931 1.356 . S
N3929 H3934 0.984 . S
N3929 H3935 0.985 1_455 S
C3930 C3924 1.379 . S
C3930 C3927 1.363 1_554 S
C3930 N3928 1.356 . S
C3931 C3925 1.363 . S
C3931 C3926 1.379 . S
C3931 N3929 1.356 . S
N3932 C3924 1.356 . S
N3932 H3938 0.984 . S
N3932 H3939 0.984 . S
N3933 C3926 1.356 1_655 S
N3933 H3936 0.984 . S
N3933 H3937 0.985 . S
H3934 N3929 0.984 . S
H3935 N3929 0.985 1_655 S
H3936 N3933 0.984 . S
H3937 N3933 0.985 . S
H3938 N3932 0.984 . S
H3939 N3932 0.984 . S
H3940 N3928 0.984 . S
H3941 N3928 0.985 . S
C3942 C3943 1.363 . S
C3942 C3948 1.379 . S
C3942 N3950 1.356 . S
C3943 C3942 1.363 . S
C3943 C3949 1.363 . S
C3944 C3945 1.363 . S
C3944 C3949 1.379 . S
C3944 N3951 1.356 . S
C3945 C3944 1.363 . S
C3945 C3948 1.363 . S
N3946 C3948 1.356 . S
N3946 H3958 0.984 . S
N3946 H3959 0.985 . S
N3947 C3949 1.356 . S
N3947 H3952 0.984 . S
N3947 H3953 0.985 . S
C3948 C3942 1.379 . S
C3948 C3945 1.363 . S
C3948 N3946 1.356 . S
C3949 C3943 1.363 . S
C3949 C3944 1.379 . S
C3949 N3947 1.356 . S
N3950 C3942 1.356 . S
N3950 H3956 0.984 . S
N3950 H3957 0.984 . S
N3951 C3944 1.356 . S
N3951 H3954 0.984 . S
N3951 H3955 0.985 . S
H3952 N3947 0.984 . S
H3953 N3947 0.985 . S
H3954 N3951 0.984 . S
H3955 N3951 0.985 . S
H3956 N3950 0.984 . S
H3957 N3950 0.984 . S
H3958 N3946 0.984 . S
H3959 N3946 0.985 . S
C3960 C3961 1.363 . S
C3960 C3966 1.379 . S
C3960 N3968 1.356 . S
C3961 C3960 1.363 . S
C3961 C3967 1.363 . S
C3962 C3963 1.363 . S
C3962 C3967 1.379 . S
C3962 N3969 1.356 . S
C3963 C3962 1.363 . S
C3963 C3966 1.363 . S
N3964 C3966 1.356 . S
N3964 H3976 0.984 . S
N3964 H3977 0.985 . S
N3965 C3967 1.356 . S
N3965 H3970 0.984 . S
N3965 H3971 0.985 . S
C3966 C3960 1.379 . S
C3966 C3963 1.363 . S
C3966 N3964 1.356 . S
C3967 C3961 1.363 . S
C3967 C3962 1.379 . S
C3967 N3965 1.356 . S
N3968 C3960 1.356 . S
N3968 H3974 0.984 . S
N3968 H3975 0.984 . S
N3969 C3962 1.356 . S
N3969 H3972 0.984 . S
N3969 H3973 0.985 . S
H3970 N3965 0.984 . S
H3971 N3965 0.985 . S
H3972 N3969 0.984 . S
H3973 N3969 0.985 . S
H3974 N3968 0.984 . S
H3975 N3968 0.984 . S
H3976 N3964 0.984 . S
H3977 N3964 0.985 . S
C3978 C3979 1.363 . S
C3978 C3984 1.379 . S
C3978 N3986 1.356 . S
C3979 C3978 1.363 . S
C3979 C3985 1.363 . S
C3980 C3981 1.363 . S
C3980 C3985 1.379 . S
C3980 N3987 1.356 . S
C3981 C3980 1.363 . S
C3981 C3984 1.363 . S
N3982 C3984 1.356 . S
N3982 H3994 0.984 . S
N3982 H3995 0.985 . S
N3983 C3985 1.356 . S
N3983 H3988 0.984 . S
N3983 H3989 0.985 . S
C3984 C3978 1.379 . S
C3984 C3981 1.363 . S
C3984 N3982 1.356 . S
C3985 C3979 1.363 . S
C3985 C3980 1.379 . S
C3985 N3983 1.356 . S
N3986 C3978 1.356 . S
N3986 H3992 0.984 . S
N3986 H3993 0.984 . S
N3987 C3980 1.356 . S
N3987 H3990 0.984 . S
N3987 H3991 0.985 . S
H3988 N3983 0.984 . S
H3989 N3983 0.985 . S
H3990 N3987 0.984 . S
H3991 N3987 0.985 . S
H3992 N3986 0.984 . S
H3993 N3986 0.984 . S
H3994 N3982 0.984 . S
H3995 N3982 0.985 . S
C3996 C3997 1.363 1_655 S
C3996 C4002 1.379 . S
C3996 N4004 1.356 . S
C3997 C3996 1.363 1_455 S
C3997 C4003 1.363 . S
C3998 C3999 1.363 . S
C3998 C4003 1.379 . S
C3998 N4005 1.356 . S
C3999 C3998 1.363 . S
C3999 C4002 1.363 1_455 S
N4000 C4002 1.356 . S
N4000 H4012 0.984 . S
N4000 H4013 0.983 . S
N4001 C4003 1.356 . S
N4001 H4006 0.984 . S
N4001 H4007 0.985 . S
C4002 C3996 1.379 . S
C4002 C3999 1.363 1_655 S
C4002 N4000 1.356 . S
C4003 C3997 1.363 . S
C4003 C3998 1.379 . S
C4003 N4001 1.356 . S
N4004 C3996 1.356 . S
N4004 H4010 0.984 . S
N4004 H4011 0.984 . S
N4005 C3998 1.356 . S
N4005 H4008 0.984 . S
N4005 H4009 0.985 . S
H4006 N4001 0.984 . S
H4007 N4001 0.985 . S
H4008 N4005 0.984 . S
H4009 N4005 0.985 . S
H4010 N4004 0.984 . S
H4011 N4004 0.984 . S
H4012 N4000 0.984 . S
H4013 N4000 0.983 . S
C4014 C4015 1.363 . S
C4014 C4020 1.379 . S
C4014 N4022 1.356 . S
C4015 C4014 1.363 . S
C4015 C4021 1.363 . S
C4016 C4017 1.363 . S
C4016 C4021 1.379 . S
C4016 N4023 1.356 . S
C4017 C4016 1.363 . S
C4017 C4020 1.363 . S
N4018 C4020 1.356 . S
N4018 H4030 0.984 . S
N4018 H4031 0.985 . S
N4019 C4021 1.356 . S
N4019 H4024 0.984 . S
N4019 H4025 0.985 . S
C4020 C4014 1.379 . S
C4020 C4017 1.363 . S
C4020 N4018 1.356 . S
C4021 C4015 1.363 . S
C4021 C4016 1.379 . S
C4021 N4019 1.356 . S
N4022 C4014 1.356 . S
N4022 H4028 0.984 . S
N4022 H4029 0.984 . S
N4023 C4016 1.356 . S
N4023 H4026 0.984 . S
N4023 H4027 0.985 . S
H4024 N4019 0.984 . S
H4025 N4019 0.985 . S
H4026 N4023 0.984 . S
H4027 N4023 0.985 . S
H4028 N4022 0.984 . S
H4029 N4022 0.984 . S
H4030 N4018 0.984 . S
H4031 N4018 0.985 . S
C4032 C4033 1.363 . S
C4032 C4038 1.379 . S
C4032 N4040 1.356 . S
C4033 C4032 1.363 . S
C4033 C4039 1.363 . S
C4034 C4035 1.363 . S
C4034 C4039 1.379 . S
C4034 N4041 1.356 . S
C4035 C4034 1.363 . S
C4035 C4038 1.363 . S
N4036 C4038 1.356 . S
N4036 H4048 0.984 . S
N4036 H4049 0.985 . S
N4037 C4039 1.356 . S
N4037 H4042 0.984 . S
N4037 H4043 0.985 . S
C4038 C4032 1.379 . S
C4038 C4035 1.363 . S
C4038 N4036 1.356 . S
C4039 C4033 1.363 . S
C4039 C4034 1.379 . S
C4039 N4037 1.356 . S
N4040 C4032 1.356 . S
N4040 H4046 0.984 . S
N4040 H4047 0.984 . S
N4041 C4034 1.356 . S
N4041 H4044 0.984 . S
N4041 H4045 0.985 . S
H4042 N4037 0.984 . S
H4043 N4037 0.985 . S
H4044 N4041 0.984 . S
H4045 N4041 0.985 . S
H4046 N4040 0.984 . S
H4047 N4040 0.984 . S
H4048 N4036 0.984 . S
H4049 N4036 0.985 . S
C4050 C4051 1.363 . S
C4050 C4056 1.379 . S
C4050 N4058 1.356 . S
C4051 C4050 1.363 . S
C4051 C4057 1.363 . S
C4052 C4053 1.363 . S
C4052 C4057 1.379 . S
C4052 N4059 1.356 . S
C4053 C4052 1.363 . S
C4053 C4056 1.363 . S
N4054 C4056 1.356 . S
N4054 H4066 0.984 . S
N4054 H4067 0.985 . S
N4055 C4057 1.356 . S
N4055 H4060 0.984 . S
N4055 H4061 0.985 . S
C4056 C4050 1.379 . S
C4056 C4053 1.363 . S
C4056 N4054 1.356 . S
C4057 C4051 1.363 . S
C4057 C4052 1.379 . S
C4057 N4055 1.356 . S
N4058 C4050 1.356 . S
N4058 H4064 0.984 . S
N4058 H4065 0.984 . S
N4059 C4052 1.356 . S
N4059 H4062 0.984 . S
N4059 H4063 0.985 . S
H4060 N4055 0.984 . S
H4061 N4055 0.985 . S
H4062 N4059 0.984 . S
H4063 N4059 0.985 . S
H4064 N4058 0.984 . S
H4065 N4058 0.984 . S
H4066 N4054 0.984 . S
H4067 N4054 0.985 . S
C4068 C4069 1.363 . S
C4068 C4074 1.379 . S
C4068 N4076 1.356 . S
C4069 C4068 1.363 . S
C4069 C4075 1.363 . S
C4070 C4071 1.363 . S
C4070 C4075 1.379 . S
C4070 N4077 1.356 . S
C4071 C4070 1.363 . S
C4071 C4074 1.363 . S
N4072 C4074 1.356 . S
N4072 H4084 0.984 . S
N4072 H4085 0.985 . S
N4073 C4075 1.356 . S
N4073 H4078 0.984 . S
N4073 H4079 0.985 . S
C4074 C4068 1.379 . S
C4074 C4071 1.363 . S
C4074 N4072 1.356 . S
C4075 C4069 1.363 . S
C4075 C4070 1.379 . S
C4075 N4073 1.356 . S
N4076 C4068 1.356 . S
N4076 H4082 0.984 . S
N4076 H4083 0.984 . S
N4077 C4070 1.356 . S
N4077 H4080 0.984 . S
N4077 H4081 0.985 . S
H4078 N4073 0.984 . S
H4079 N4073 0.985 . S
H4080 N4077 0.984 . S
H4081 N4077 0.985 . S
H4082 N4076 0.984 . S
H4083 N4076 0.984 . S
H4084 N4072 0.984 . S
H4085 N4072 0.985 . S
C4086 C4087 1.363 . S
C4086 C4092 1.379 . S
C4086 N4094 1.356 . S
C4087 C4086 1.363 . S
C4087 C4093 1.363 . S
C4088 C4089 1.363 . S
C4088 C4093 1.379 . S
C4088 N4095 1.356 . S
C4089 C4088 1.363 . S
C4089 C4092 1.363 . S
N4090 C4092 1.356 . S
N4090 H4102 0.984 . S
N4090 H4103 0.985 . S
N4091 C4093 1.356 . S
N4091 H4096 0.984 . S
N4091 H4097 0.985 . S
C4092 C4086 1.379 . S
C4092 C4089 1.363 . S
C4092 N4090 1.356 . S
C4093 C4087 1.363 . S
C4093 C4088 1.379 . S
C4093 N4091 1.356 . S
N4094 C4086 1.356 . S
N4094 H4100 0.984 . S
N4094 H4101 0.984 . S
N4095 C4088 1.356 . S
N4095 H4098 0.984 . S
N4095 H4099 0.985 . S
H4096 N4091 0.984 . S
H4097 N4091 0.985 . S
H4098 N4095 0.984 . S
H4099 N4095 0.985 . S
H4100 N4094 0.984 . S
H4101 N4094 0.984 . S
H4102 N4090 0.984 . S
H4103 N4090 0.985 . S
C4104 C4105 1.363 . S
C4104 C4110 1.379 . S
C4104 N4112 1.356 . S
C4105 C4104 1.363 . S
C4105 C4111 1.363 . S
C4106 C4107 1.363 . S
C4106 C4111 1.379 . S
C4106 N4113 1.356 . S
C4107 C4106 1.363 . S
C4107 C4110 1.363 . S
N4108 C4110 1.356 . S
N4108 H4120 0.984 . S
N4108 H4121 0.985 . S
N4109 C4111 1.356 . S
N4109 H4114 0.984 . S
N4109 H4115 0.985 . S
C4110 C4104 1.379 . S
C4110 C4107 1.363 . S
C4110 N4108 1.356 . S
C4111 C4105 1.363 . S
C4111 C4106 1.379 . S
C4111 N4109 1.356 . S
N4112 C4104 1.356 . S
N4112 H4118 0.984 . S
N4112 H4119 0.984 . S
N4113 C4106 1.356 . S
N4113 H4116 0.984 . S
N4113 H4117 0.985 . S
H4114 N4109 0.984 . S
H4115 N4109 0.985 . S
H4116 N4113 0.984 . S
H4117 N4113 0.985 . S
H4118 N4112 0.984 . S
H4119 N4112 0.984 . S
H4120 N4108 0.984 . S
H4121 N4108 0.985 . S
C4122 C4123 1.363 . S
C4122 C4128 1.379 . S
C4122 N4130 1.356 . S
C4123 C4122 1.363 . S
C4123 C4129 1.363 . S
C4124 C4125 1.363 . S
C4124 C4129 1.379 . S
C4124 N4131 1.356 . S
C4125 C4124 1.363 . S
C4125 C4128 1.363 . S
N4126 C4128 1.356 . S
N4126 H4138 0.984 . S
N4126 H4139 0.985 . S
N4127 C4129 1.356 . S
N4127 H4132 0.984 . S
N4127 H4133 0.985 . S
C4128 C4122 1.379 . S
C4128 C4125 1.363 . S
C4128 N4126 1.356 . S
C4129 C4123 1.363 . S
C4129 C4124 1.379 . S
C4129 N4127 1.356 . S
N4130 C4122 1.356 . S
N4130 H4136 0.984 . S
N4130 H4137 0.984 . S
N4131 C4124 1.356 . S
N4131 H4134 0.984 . S
N4131 H4135 0.985 . S
H4132 N4127 0.984 . S
H4133 N4127 0.985 . S
H4134 N4131 0.984 . S
H4135 N4131 0.985 . S
H4136 N4130 0.984 . S
H4137 N4130 0.984 . S
H4138 N4126 0.984 . S
H4139 N4126 0.985 . S
C4140 C4141 1.363 . S
C4140 C4146 1.379 . S
C4140 N4148 1.356 . S
C4141 C4140 1.363 . S
C4141 C4147 1.363 . S
C4142 C4143 1.363 . S
C4142 C4147 1.379 . S
C4142 N4149 1.356 . S
C4143 C4142 1.363 . S
C4143 C4146 1.363 . S
N4144 C4146 1.356 . S
N4144 H4156 0.984 . S
N4144 H4157 0.985 . S
N4145 C4147 1.356 . S
N4145 H4150 0.984 . S
N4145 H4151 0.985 . S
C4146 C4140 1.379 . S
C4146 C4143 1.363 . S
C4146 N4144 1.356 . S
C4147 C4141 1.363 . S
C4147 C4142 1.379 . S
C4147 N4145 1.356 . S
N4148 C4140 1.356 . S
N4148 H4154 0.984 . S
N4148 H4155 0.984 . S
N4149 C4142 1.356 . S
N4149 H4152 0.984 . S
N4149 H4153 0.985 . S
H4150 N4145 0.984 . S
H4151 N4145 0.985 . S
H4152 N4149 0.984 . S
H4153 N4149 0.985 . S
H4154 N4148 0.984 . S
H4155 N4148 0.984 . S
H4156 N4144 0.984 . S
H4157 N4144 0.985 . S
C4158 C4159 1.363 . S
C4158 C4164 1.379 . S
C4158 N4166 1.356 . S
C4159 C4158 1.363 . S
C4159 C4165 1.363 . S
C4160 C4161 1.363 . S
C4160 C4165 1.379 . S
C4160 N4167 1.356 . S
C4161 C4160 1.363 . S
C4161 C4164 1.363 . S
N4162 C4164 1.356 . S
N4162 H4174 0.984 . S
N4162 H4175 0.985 . S
N4163 C4165 1.356 . S
N4163 H4168 0.984 . S
N4163 H4169 0.985 . S
C4164 C4158 1.379 . S
C4164 C4161 1.363 . S
C4164 N4162 1.356 . S
C4165 C4159 1.363 . S
C4165 C4160 1.379 . S
C4165 N4163 1.356 . S
N4166 C4158 1.356 . S
N4166 H4172 0.984 . S
N4166 H4173 0.984 . S
N4167 C4160 1.356 . S
N4167 H4170 0.984 . S
N4167 H4171 0.985 . S
H4168 N4163 0.984 . S
H4169 N4163 0.985 . S
H4170 N4167 0.984 . S
H4171 N4167 0.985 . S
H4172 N4166 0.984 . S
H4173 N4166 0.984 . S
H4174 N4162 0.984 . S
H4175 N4162 0.985 . S
C4176 C4177 1.363 . S
C4176 C4182 1.379 . S
C4176 N4184 1.356 . S
C4177 C4176 1.363 . S
C4177 C4183 1.363 . S
C4178 C4179 1.363 . S
C4178 C4183 1.379 . S
C4178 N4185 1.356 . S
C4179 C4178 1.363 . S
C4179 C4182 1.363 . S
N4180 C4182 1.356 . S
N4180 H4192 0.984 . S
N4180 H4193 0.985 . S
N4181 C4183 1.356 . S
N4181 H4186 0.984 . S
N4181 H4187 0.985 . S
C4182 C4176 1.379 . S
C4182 C4179 1.363 . S
C4182 N4180 1.356 . S
C4183 C4177 1.363 . S
C4183 C4178 1.379 . S
C4183 N4181 1.356 . S
N4184 C4176 1.356 . S
N4184 H4190 0.984 . S
N4184 H4191 0.984 . S
N4185 C4178 1.356 . S
N4185 H4188 0.984 . S
N4185 H4189 0.985 . S
H4186 N4181 0.984 . S
H4187 N4181 0.985 . S
H4188 N4185 0.984 . S
H4189 N4185 0.985 . S
H4190 N4184 0.984 . S
H4191 N4184 0.984 . S
H4192 N4180 0.984 . S
H4193 N4180 0.985 . S
C4194 C4195 1.363 . S
C4194 C4200 1.379 . S
C4194 N4202 1.356 . S
C4195 C4194 1.363 . S
C4195 C4201 1.363 . S
C4196 C4197 1.363 . S
C4196 C4201 1.379 . S
C4196 N4203 1.356 . S
C4197 C4196 1.363 . S
C4197 C4200 1.363 . S
N4198 C4200 1.356 . S
N4198 H4210 0.984 . S
N4198 H4211 0.985 . S
N4199 C4201 1.356 . S
N4199 H4204 0.984 . S
N4199 H4205 0.985 . S
C4200 C4194 1.379 . S
C4200 C4197 1.363 . S
C4200 N4198 1.356 . S
C4201 C4195 1.363 . S
C4201 C4196 1.379 . S
C4201 N4199 1.356 . S
N4202 C4194 1.356 . S
N4202 H4208 0.984 . S
N4202 H4209 0.984 . S
N4203 C4196 1.356 . S
N4203 H4206 0.984 . S
N4203 H4207 0.985 . S
H4204 N4199 0.984 . S
H4205 N4199 0.985 . S
H4206 N4203 0.984 . S
H4207 N4203 0.985 . S
H4208 N4202 0.984 . S
H4209 N4202 0.984 . S
H4210 N4198 0.984 . S
H4211 N4198 0.985 . S
C4212 C4213 1.363 . S
C4212 C4218 1.379 . S
C4212 N4220 1.356 . S
C4213 C4212 1.363 . S
C4213 C4219 1.363 . S
C4214 C4215 1.363 . S
C4214 C4219 1.379 . S
C4214 N4221 1.356 . S
C4215 C4214 1.363 . S
C4215 C4218 1.363 . S
N4216 C4218 1.356 . S
N4216 H4228 0.984 . S
N4216 H4229 0.985 . S
N4217 C4219 1.356 . S
N4217 H4222 0.984 . S
N4217 H4223 0.985 . S
C4218 C4212 1.379 . S
C4218 C4215 1.363 . S
C4218 N4216 1.356 . S
C4219 C4213 1.363 . S
C4219 C4214 1.379 . S
C4219 N4217 1.356 . S
N4220 C4212 1.356 . S
N4220 H4226 0.984 . S
N4220 H4227 0.984 . S
N4221 C4214 1.356 . S
N4221 H4224 0.984 . S
N4221 H4225 0.985 . S
H4222 N4217 0.984 . S
H4223 N4217 0.985 . S
H4224 N4221 0.984 . S
H4225 N4221 0.985 . S
H4226 N4220 0.984 . S
H4227 N4220 0.984 . S
H4228 N4216 0.984 . S
H4229 N4216 0.985 . S
C4230 C4231 1.363 . S
C4230 C4236 1.379 . S
C4230 N4238 1.356 . S
C4231 C4230 1.363 . S
C4231 C4237 1.363 1_565 S
C4232 C4233 1.363 . S
C4232 C4237 1.379 . S
C4232 N4239 1.356 . S
C4233 C4232 1.363 . S
C4233 C4236 1.363 1_545 S
N4234 C4236 1.356 . S
N4234 H4246 0.984 . S
N4234 H4247 0.985 . S
N4235 C4237 1.356 . S
N4235 H4240 0.984 . S
N4235 H4241 0.985 . S
C4236 C4230 1.379 . S
C4236 C4233 1.363 1_565 S
C4236 N4234 1.356 . S
C4237 C4231 1.363 1_545 S
C4237 C4232 1.379 . S
C4237 N4235 1.356 . S
N4238 C4230 1.356 . S
N4238 H4244 0.984 . S
N4238 H4245 0.984 . S
N4239 C4232 1.356 . S
N4239 H4242 0.984 . S
N4239 H4243 0.985 . S
H4240 N4235 0.984 . S
H4241 N4235 0.985 . S
H4242 N4239 0.984 . S
H4243 N4239 0.985 . S
H4244 N4238 0.984 . S
H4245 N4238 0.984 . S
H4246 N4234 0.984 . S
H4247 N4234 0.985 . S
C4248 C4249 1.363 . S
C4248 C4254 1.379 . S
C4248 N4256 1.356 . S
C4249 C4248 1.363 . S
C4249 C4255 1.363 . S
C4250 C4251 1.363 . S
C4250 C4255 1.379 . S
C4250 N4257 1.356 . S
C4251 C4250 1.363 . S
C4251 C4254 1.363 . S
N4252 C4254 1.356 . S
N4252 H4264 0.984 . S
N4252 H4265 0.985 . S
N4253 C4255 1.356 . S
N4253 H4258 0.984 . S
N4253 H4259 0.985 . S
C4254 C4248 1.379 . S
C4254 C4251 1.363 . S
C4254 N4252 1.356 . S
C4255 C4249 1.363 . S
C4255 C4250 1.379 . S
C4255 N4253 1.356 . S
N4256 C4248 1.356 . S
N4256 H4262 0.984 . S
N4256 H4263 0.984 . S
N4257 C4250 1.356 . S
N4257 H4260 0.984 . S
N4257 H4261 0.985 . S
H4258 N4253 0.984 . S
H4259 N4253 0.985 . S
H4260 N4257 0.984 . S
H4261 N4257 0.985 . S
H4262 N4256 0.984 . S
H4263 N4256 0.984 . S
H4264 N4252 0.984 . S
H4265 N4252 0.985 . S
C4266 C4267 1.363 . S
C4266 C4272 1.379 . S
C4266 N4274 1.356 . S
C4267 C4266 1.363 . S
C4267 C4273 1.363 . S
C4268 C4269 1.363 . S
C4268 C4273 1.379 . S
C4268 N4275 1.356 . S
C4269 C4268 1.363 . S
C4269 C4272 1.363 . S
N4270 C4272 1.356 . S
N4270 H4282 0.984 . S
N4270 H4283 0.985 . S
N4271 C4273 1.356 . S
N4271 H4276 0.984 1_554 S
N4271 H4277 0.985 . S
C4272 C4266 1.379 . S
C4272 C4269 1.363 . S
C4272 N4270 1.356 . S
C4273 C4267 1.363 . S
C4273 C4268 1.379 . S
C4273 N4271 1.356 . S
N4274 C4266 1.356 . S
N4274 H4280 0.984 . S
N4274 H4281 0.984 1_554 S
N4275 C4268 1.356 . S
N4275 H4278 0.984 . S
N4275 H4279 0.985 . S
H4276 N4271 0.984 1_556 S
H4277 N4271 0.985 . S
H4278 N4275 0.984 . S
H4279 N4275 0.985 . S
H4280 N4274 0.984 . S
H4281 N4274 0.984 1_556 S
H4282 N4270 0.984 . S
H4283 N4270 0.985 . S
C4284 C4285 1.363 . S
C4284 C4290 1.379 . S
C4284 N4292 1.356 . S
C4285 C4284 1.363 . S
C4285 C4291 1.363 . S
C4286 C4287 1.363 . S
C4286 C4291 1.379 . S
C4286 N4293 1.356 . S
C4287 C4286 1.363 . S
C4287 C4290 1.363 . S
N4288 C4290 1.356 . S
N4288 H4300 0.984 . S
N4288 H4301 0.985 . S
N4289 C4291 1.356 . S
N4289 H4294 0.984 . S
N4289 H4295 0.985 . S
C4290 C4284 1.379 . S
C4290 C4287 1.363 . S
C4290 N4288 1.356 . S
C4291 C4285 1.363 . S
C4291 C4286 1.379 . S
C4291 N4289 1.356 . S
N4292 C4284 1.356 . S
N4292 H4298 0.984 . S
N4292 H4299 0.984 . S
N4293 C4286 1.356 . S
N4293 H4296 0.984 . S
N4293 H4297 0.985 . S
H4294 N4289 0.984 . S
H4295 N4289 0.985 . S
H4296 N4293 0.984 . S
H4297 N4293 0.985 . S
H4298 N4292 0.984 . S
H4299 N4292 0.984 . S
H4300 N4288 0.984 . S
H4301 N4288 0.985 . S
C4302 C4303 1.363 . S
C4302 C4308 1.379 . S
C4302 N4310 1.356 . S
C4303 C4302 1.363 . S
C4303 C4309 1.363 . S
C4304 C4305 1.363 . S
C4304 C4309 1.379 . S
C4304 N4311 1.356 . S
C4305 C4304 1.363 . S
C4305 C4308 1.363 . S
N4306 C4308 1.356 . S
N4306 H4318 0.984 . S
N4306 H4319 0.985 . S
N4307 C4309 1.356 . S
N4307 H4312 0.984 . S
N4307 H4313 0.985 . S
C4308 C4302 1.379 . S
C4308 C4305 1.363 . S
C4308 N4306 1.356 . S
C4309 C4303 1.363 . S
C4309 C4304 1.379 . S
C4309 N4307 1.356 . S
N4310 C4302 1.356 . S
N4310 H4316 0.984 . S
N4310 H4317 0.984 . S
N4311 C4304 1.356 . S
N4311 H4314 0.984 . S
N4311 H4315 0.985 . S
H4312 N4307 0.984 . S
H4313 N4307 0.985 . S
H4314 N4311 0.984 . S
H4315 N4311 0.985 . S
H4316 N4310 0.984 . S
H4317 N4310 0.984 . S
H4318 N4306 0.984 . S
H4319 N4306 0.985 . S
C2595 C2113 1.796 . S
C2593 C49 1.803 . S
C2611 C137 0.960 . S
C2613 C2158 0.965 . S
C2629 C205 1.686 . S
C2631 C2182 1.657 . S
C2649 N2208 1.131 . S
C2647 C284 1.106 . S
C2665 C117 1.148 . S
C2667 N2238 1.178 . S
C2685 C2272 1.577 . S
C2683 C225 1.609 . S
C2703 C2308 1.109 . S
C2701 C321 1.099 . S
C2719 C29 1.742 . S
C2721 C2332 1.708 . S
C2737 C401 0.986 . S
C2739 N2126 0.993 . S
C2755 C497 1.157 . S
C2757 N2148 1.187 . S
C2775 C2188 0.985 . S
C2773 C585 0.980 . S
C2793 C2212 1.730 . S
C2791 C665 1.764 . S
C2809 C372 1.232 . S
C2811 C2242 1.186 . S
C2829 C2278 1.049 . S
C2827 C469 1.042 . S
C2847 N2298 1.179 . S
C2845 C557 1.152 . S
C2865 C2338 1.710 . S
C2863 C636 1.730 . S
C2883 C2139 1.660 . S
C2881 C673 1.666 . S
C2901 C2368 0.962 . S
C2899 C724 0.957 . S
C2917 C821 1.175 . S
C2919 N2388 1.204 . S
C2937 C2422 1.575 . S
C2935 C909 1.605 . S
C2953 C381 0.984 . S
C2955 N2328 0.984 . S
C2973 N2178 1.163 1_565 S
C2971 C489 1.136 . S
C2989 C849 1.041 . S
C2991 C2458 1.047 . S
C3009 C2482 1.087 . S
C3007 C1017 1.125 . S
C3025 C1085 1.807 . S
C3027 C2122 1.798 1_556 S
C3045 C2499 0.969 . S
C3043 C1201 0.968 . S
C3061 C1289 1.689 . S
C3063 C2173 1.660 . S
C3079 C1349 1.110 . S
C3081 N2456 1.131 . S
C3099 N2246 1.178 . S
C3097 C1193 1.152 . S
C3117 C2383 1.579 . S
C3115 C1281 1.612 . S
C3135 C2319 1.109 . S
C3133 C1340 1.101 . S
C3153 C2503 1.710 . S
C3151 C1076 1.747 . S
C3171 N2118 0.994 . S
C3169 C1428 0.987 . S
C3187 C1516 1.162 . S
C3189 N2486 1.187 . S
C3207 C2199 0.989 . S
C3205 C1604 0.983 . S
C3223 C1701 1.768 . S
C3225 C2443 1.733 . S
C3241 C1457 1.237 . S
C3243 C2233 1.187 1_655 S
C3259 C1545 1.045 . S
C3261 C2409 1.054 . S
C3279 N2306 1.179 . S
C3277 C1633 1.156 . S
C3295 C1729 1.735 . S
C3297 C2529 1.712 . S
C3313 C1721 1.670 . S
C3315 C2128 1.662 . S
C3331 C1789 0.962 . S
C3333 C2379 0.964 . S
C3349 C1868 1.180 . S
C3351 N2276 1.204 . S
C3367 C1956 1.609 . S
C3369 C2413 1.578 . S
C3387 N2516 0.985 . S
C3385 C1437 0.985 . S
C3405 N2186 1.163 . S
C3403 C1553 1.140 . S
C3423 C2229 1.051 . S
C3421 C1897 1.044 . S
C3441 C2143 1.088 . S
C3439 C2081 1.130 . S
C3457 C233 1.803 . S
C3459 C2533 1.796 . S
C3477 C2488 0.965 . S
C3475 C313 0.960 . S
C3495 C2572 1.657 . S
C3493 C20 1.686 . S
C3511 C108 1.106 . S
C3513 N2448 1.131 . S
C3529 C293 1.148 . S
C3531 N2358 1.178 1_556 S
C3549 C2392 1.577 . S
C3547 C57 1.609 . S
C3567 C2428 1.105 . S
C3565 C145 1.099 . S
C3585 C2512 1.708 . S
C3583 C196 1.742 . S
C3603 N2546 0.993 . S
C3601 C1025 0.986 . S
C3619 C761 1.157 . S
C3621 N2478 1.187 . S
C3637 C841 0.980 . S
C3639 C2578 0.985 1_655 S
C3657 C2452 1.730 . S
C3655 C929 1.764 . S
C3675 C2362 1.186 . S
C3673 C997 1.232 . S
C3691 C733 1.042 . S
C3693 C2398 1.049 . S
C3711 N2418 1.179 . S
C3709 C812 1.152 . S
C3727 C900 1.730 . S
C3729 C2518 1.711 . S
C3747 C2559 1.660 . S
C3745 C937 1.666 . S
C3765 C2248 0.962 . S
C3763 C460 0.957 . S
C3783 N2268 1.204 . S
C3781 C548 1.175 . S
C3799 C645 1.605 . S
C3801 C2302 1.575 . S
C3819 N2508 0.984 . S
C3817 C988 0.984 . S
C3835 C753 1.136 . S
C3837 N2568 1.163 . S
C3855 C2218 1.047 . S
C3853 C577 1.041 . S
C3873 C2152 1.088 . S
C3871 C409 1.125 . S
C3889 C1261 1.808 . S
C3891 C2542 1.798 . S
C3909 C2169 0.969 . S
C3907 C1377 0.963 . S
C3927 C2563 1.660 1_556 S
C3925 C1113 1.689 . S
C3943 C1173 1.110 . S
C3945 N2216 1.127 . S
C3961 C1369 1.153 . S
C3963 N2366 1.178 . S
C3979 C1105 1.612 . S
C3981 C2263 1.579 . S
C3997 C1164 1.102 . S
C3999 C2439 1.108 . S
C4015 C1252 1.747 . S
C4017 C2323 1.710 . S
C4035 N2538 0.994 . S
C4033 C2044 0.987 . S
C4051 C1780 1.162 . S
C4053 N2156 1.183 . S
C4071 C2589 0.989 . S
C4069 C1877 0.983 . S
C4087 C1965 1.768 . S
C4089 C2203 1.733 . S
C4105 C2073 1.237 . S
C4107 C2353 1.187 . S
C4125 C2289 1.054 . S
C4123 C1809 1.050 . S
C4141 C1905 1.156 . S
C4143 N2426 1.179 . S
C4161 C2349 1.713 . S
C4159 C1993 1.735 . S
C4179 C2548 1.662 . S
C4177 C1985 1.670 . S
C4197 C2259 0.966 . S
C4195 C1525 0.960 . S
C4213 C1613 1.180 . S
C4215 N2396 1.204 . S
C4233 C2293 1.578 . S
C4231 C1692 1.609 . S
C4251 N2336 0.985 . S
C4249 C2053 0.985 . S
C4267 C1817 1.140 . S
C4269 N2576 1.161 . S
C4287 C2469 1.051 . S
C4285 C1641 1.044 . S
C4305 C2473 1.089 . S
C4303 C1465 1.130 . S
