# Generated by pormake.
# Topology gar, (4,6)-cn, num edge types: 1
# Building blocks:
#     Node 0, Type 0, BuildingBlock: QUQFOY_clean_sbu_3, # of connection points: 4
#     Node 1, Type 0, BuildingBlock: QUQFOY_clean_sbu_3, # of connection points: 4
#     Node 2, Type 0, BuildingBlock: QUQFOY_clean_sbu_3, # of connection points: 4
#     Node 3, Type 0, BuildingBlock: QUQFOY_clean_sbu_3, # of connection points: 4
#     Node 4, Type 0, BuildingBlock: QUQFOY_clean_sbu_3, # of connection points: 4
#     Node 5, Type 0, BuildingBlock: QUQFOY_clean_sbu_3, # of connection points: 4
#     Node 6, Type 0, BuildingBlock: QUQFOY_clean_sbu_3, # of connection points: 4
#     Node 7, Type 0, BuildingBlock: QUQFOY_clean_sbu_3, # of connection points: 4
#     Node 8, Type 0, BuildingBlock: QUQFOY_clean_sbu_3, # of connection points: 4
#     Node 9, Type 0, BuildingBlock: QUQFOY_clean_sbu_3, # of connection points: 4
#     Node 10, Type 0, BuildingBlock: QUQFOY_clean_sbu_3, # of connection points: 4
#     Node 11, Type 0, BuildingBlock: QUQFOY_clean_sbu_3, # of connection points: 4
#     Node 12, Type 0, BuildingBlock: QUQFOY_clean_sbu_3, # of connection points: 4
#     Node 13, Type 0, BuildingBlock: QUQFOY_clean_sbu_3, # of connection points: 4
#     Node 14, Type 0, BuildingBlock: QUQFOY_clean_sbu_3, # of connection points: 4
#     Node 15, Type 0, BuildingBlock: QUQFOY_clean_sbu_3, # of connection points: 4
#     Node 16, Type 0, BuildingBlock: QUQFOY_clean_sbu_3, # of connection points: 4
#     Node 17, Type 0, BuildingBlock: QUQFOY_clean_sbu_3, # of connection points: 4
#     Node 18, Type 0, BuildingBlock: QUQFOY_clean_sbu_3, # of connection points: 4
#     Node 19, Type 0, BuildingBlock: QUQFOY_clean_sbu_3, # of connection points: 4
#     Node 20, Type 0, BuildingBlock: QUQFOY_clean_sbu_3, # of connection points: 4
#     Node 21, Type 0, BuildingBlock: QUQFOY_clean_sbu_3, # of connection points: 4
#     Node 22, Type 0, BuildingBlock: QUQFOY_clean_sbu_3, # of connection points: 4
#     Node 23, Type 0, BuildingBlock: QUQFOY_clean_sbu_3, # of connection points: 4
#     Node 24, Type 1, BuildingBlock: BETFAJ_clean_sbu_0, # of connection points: 6
#     Node 25, Type 1, BuildingBlock: BETFAJ_clean_sbu_0, # of connection points: 6
#     Node 26, Type 1, BuildingBlock: BETFAJ_clean_sbu_0, # of connection points: 6
#     Node 27, Type 1, BuildingBlock: BETFAJ_clean_sbu_0, # of connection points: 6
#     Node 28, Type 1, BuildingBlock: BETFAJ_clean_sbu_0, # of connection points: 6
#     Node 29, Type 1, BuildingBlock: BETFAJ_clean_sbu_0, # of connection points: 6
#     Node 30, Type 1, BuildingBlock: BETFAJ_clean_sbu_0, # of connection points: 6
#     Node 31, Type 1, BuildingBlock: BETFAJ_clean_sbu_0, # of connection points: 6
#     Node 32, Type 1, BuildingBlock: BETFAJ_clean_sbu_0, # of connection points: 6
#     Node 33, Type 1, BuildingBlock: BETFAJ_clean_sbu_0, # of connection points: 6
#     Node 34, Type 1, BuildingBlock: BETFAJ_clean_sbu_0, # of connection points: 6
#     Node 35, Type 1, BuildingBlock: BETFAJ_clean_sbu_0, # of connection points: 6
#     Node 36, Type 1, BuildingBlock: BETFAJ_clean_sbu_0, # of connection points: 6
#     Node 37, Type 1, BuildingBlock: BETFAJ_clean_sbu_0, # of connection points: 6
#     Node 38, Type 1, BuildingBlock: BETFAJ_clean_sbu_0, # of connection points: 6
#     Node 39, Type 1, BuildingBlock: BETFAJ_clean_sbu_0, # of connection points: 6
#     Edge 40, Type (0, 1), BuildingBlock: UVAHIK_clean_linker_0, # of connection points: 2
#     Edge 41, Type (0, 1), BuildingBlock: UVAHIK_clean_linker_0, # of connection points: 2
#     Edge 42, Type (0, 1), BuildingBlock: UVAHIK_clean_linker_0, # of connection points: 2
#     Edge 43, Type (0, 1), BuildingBlock: UVAHIK_clean_linker_0, # of connection points: 2
#     Edge 44, Type (0, 1), BuildingBlock: UVAHIK_clean_linker_0, # of connection points: 2
#     Edge 45, Type (0, 1), BuildingBlock: UVAHIK_clean_linker_0, # of connection points: 2
#     Edge 46, Type (0, 1), BuildingBlock: UVAHIK_clean_linker_0, # of connection points: 2
#     Edge 47, Type (0, 1), BuildingBlock: UVAHIK_clean_linker_0, # of connection points: 2
#     Edge 48, Type (0, 1), BuildingBlock: UVAHIK_clean_linker_0, # of connection points: 2
#     Edge 49, Type (0, 1), BuildingBlock: UVAHIK_clean_linker_0, # of connection points: 2
#     Edge 50, Type (0, 1), BuildingBlock: UVAHIK_clean_linker_0, # of connection points: 2
#     Edge 51, Type (0, 1), BuildingBlock: UVAHIK_clean_linker_0, # of connection points: 2
#     Edge 52, Type (0, 1), BuildingBlock: UVAHIK_clean_linker_0, # of connection points: 2
#     Edge 53, Type (0, 1), BuildingBlock: UVAHIK_clean_linker_0, # of connection points: 2
#     Edge 54, Type (0, 1), BuildingBlock: UVAHIK_clean_linker_0, # of connection points: 2
#     Edge 55, Type (0, 1), BuildingBlock: UVAHIK_clean_linker_0, # of connection points: 2
#     Edge 56, Type (0, 1), BuildingBlock: UVAHIK_clean_linker_0, # of connection points: 2
#     Edge 57, Type (0, 1), BuildingBlock: UVAHIK_clean_linker_0, # of connection points: 2
#     Edge 58, Type (0, 1), BuildingBlock: UVAHIK_clean_linker_0, # of connection points: 2
#     Edge 59, Type (0, 1), BuildingBlock: UVAHIK_clean_linker_0, # of connection points: 2
#     Edge 60, Type (0, 1), BuildingBlock: UVAHIK_clean_linker_0, # of connection points: 2
#     Edge 61, Type (0, 1), BuildingBlock: UVAHIK_clean_linker_0, # of connection points: 2
#     Edge 62, Type (0, 1), BuildingBlock: UVAHIK_clean_linker_0, # of connection points: 2
#     Edge 63, Type (0, 1), BuildingBlock: UVAHIK_clean_linker_0, # of connection points: 2
#     Edge 64, Type (0, 1), BuildingBlock: UVAHIK_clean_linker_0, # of connection points: 2
#     Edge 65, Type (0, 1), BuildingBlock: UVAHIK_clean_linker_0, # of connection points: 2
#     Edge 66, Type (0, 1), BuildingBlock: UVAHIK_clean_linker_0, # of connection points: 2
#     Edge 67, Type (0, 1), BuildingBlock: UVAHIK_clean_linker_0, # of connection points: 2
#     Edge 68, Type (0, 1), BuildingBlock: UVAHIK_clean_linker_0, # of connection points: 2
#     Edge 69, Type (0, 1), BuildingBlock: UVAHIK_clean_linker_0, # of connection points: 2
#     Edge 70, Type (0, 1), BuildingBlock: UVAHIK_clean_linker_0, # of connection points: 2
#     Edge 71, Type (0, 1), BuildingBlock: UVAHIK_clean_linker_0, # of connection points: 2
#     Edge 72, Type (0, 1), BuildingBlock: UVAHIK_clean_linker_0, # of connection points: 2
#     Edge 73, Type (0, 1), BuildingBlock: UVAHIK_clean_linker_0, # of connection points: 2
#     Edge 74, Type (0, 1), BuildingBlock: UVAHIK_clean_linker_0, # of connection points: 2
#     Edge 75, Type (0, 1), BuildingBlock: UVAHIK_clean_linker_0, # of connection points: 2
#     Edge 76, Type (0, 1), BuildingBlock: UVAHIK_clean_linker_0, # of connection points: 2
#     Edge 77, Type (0, 1), BuildingBlock: UVAHIK_clean_linker_0, # of connection points: 2
#     Edge 78, Type (0, 1), BuildingBlock: UVAHIK_clean_linker_0, # of connection points: 2
#     Edge 79, Type (0, 1), BuildingBlock: UVAHIK_clean_linker_0, # of connection points: 2
#     Edge 80, Type (0, 1), BuildingBlock: UVAHIK_clean_linker_0, # of connection points: 2
#     Edge 81, Type (0, 1), BuildingBlock: UVAHIK_clean_linker_0, # of connection points: 2
#     Edge 82, Type (0, 1), BuildingBlock: UVAHIK_clean_linker_0, # of connection points: 2
#     Edge 83, Type (0, 1), BuildingBlock: UVAHIK_clean_linker_0, # of connection points: 2
#     Edge 84, Type (0, 1), BuildingBlock: UVAHIK_clean_linker_0, # of connection points: 2
#     Edge 85, Type (0, 1), BuildingBlock: UVAHIK_clean_linker_0, # of connection points: 2
#     Edge 86, Type (0, 1), BuildingBlock: UVAHIK_clean_linker_0, # of connection points: 2
#     Edge 87, Type (0, 1), BuildingBlock: UVAHIK_clean_linker_0, # of connection points: 2
#     Edge 88, Type (0, 1), BuildingBlock: UVAHIK_clean_linker_0, # of connection points: 2
#     Edge 89, Type (0, 1), BuildingBlock: UVAHIK_clean_linker_0, # of connection points: 2
#     Edge 90, Type (0, 1), BuildingBlock: UVAHIK_clean_linker_0, # of connection points: 2
#     Edge 91, Type (0, 1), BuildingBlock: UVAHIK_clean_linker_0, # of connection points: 2
#     Edge 92, Type (0, 1), BuildingBlock: UVAHIK_clean_linker_0, # of connection points: 2
#     Edge 93, Type (0, 1), BuildingBlock: UVAHIK_clean_linker_0, # of connection points: 2
#     Edge 94, Type (0, 1), BuildingBlock: UVAHIK_clean_linker_0, # of connection points: 2
#     Edge 95, Type (0, 1), BuildingBlock: UVAHIK_clean_linker_0, # of connection points: 2
#     Edge 96, Type (0, 1), BuildingBlock: UVAHIK_clean_linker_0, # of connection points: 2
#     Edge 97, Type (0, 1), BuildingBlock: UVAHIK_clean_linker_0, # of connection points: 2
#     Edge 98, Type (0, 1), BuildingBlock: UVAHIK_clean_linker_0, # of connection points: 2
#     Edge 99, Type (0, 1), BuildingBlock: UVAHIK_clean_linker_0, # of connection points: 2
#     Edge 100, Type (0, 1), BuildingBlock: UVAHIK_clean_linker_0, # of connection points: 2
#     Edge 101, Type (0, 1), BuildingBlock: UVAHIK_clean_linker_0, # of connection points: 2
#     Edge 102, Type (0, 1), BuildingBlock: UVAHIK_clean_linker_0, # of connection points: 2
#     Edge 103, Type (0, 1), BuildingBlock: UVAHIK_clean_linker_0, # of connection points: 2
#     Edge 104, Type (0, 1), BuildingBlock: UVAHIK_clean_linker_0, # of connection points: 2
#     Edge 105, Type (0, 1), BuildingBlock: UVAHIK_clean_linker_0, # of connection points: 2
#     Edge 106, Type (0, 1), BuildingBlock: UVAHIK_clean_linker_0, # of connection points: 2
#     Edge 107, Type (0, 1), BuildingBlock: UVAHIK_clean_linker_0, # of connection points: 2
#     Edge 108, Type (0, 1), BuildingBlock: UVAHIK_clean_linker_0, # of connection points: 2
#     Edge 109, Type (0, 1), BuildingBlock: UVAHIK_clean_linker_0, # of connection points: 2
#     Edge 110, Type (0, 1), BuildingBlock: UVAHIK_clean_linker_0, # of connection points: 2
#     Edge 111, Type (0, 1), BuildingBlock: UVAHIK_clean_linker_0, # of connection points: 2
#     Edge 112, Type (0, 1), BuildingBlock: UVAHIK_clean_linker_0, # of connection points: 2
#     Edge 113, Type (0, 1), BuildingBlock: UVAHIK_clean_linker_0, # of connection points: 2
#     Edge 114, Type (0, 1), BuildingBlock: UVAHIK_clean_linker_0, # of connection points: 2
#     Edge 115, Type (0, 1), BuildingBlock: UVAHIK_clean_linker_0, # of connection points: 2
#     Edge 116, Type (0, 1), BuildingBlock: UVAHIK_clean_linker_0, # of connection points: 2
#     Edge 117, Type (0, 1), BuildingBlock: UVAHIK_clean_linker_0, # of connection points: 2
#     Edge 118, Type (0, 1), BuildingBlock: UVAHIK_clean_linker_0, # of connection points: 2
#     Edge 119, Type (0, 1), BuildingBlock: UVAHIK_clean_linker_0, # of connection points: 2
#     Edge 120, Type (0, 1), BuildingBlock: UVAHIK_clean_linker_0, # of connection points: 2
#     Edge 121, Type (0, 1), BuildingBlock: UVAHIK_clean_linker_0, # of connection points: 2
#     Edge 122, Type (0, 1), BuildingBlock: UVAHIK_clean_linker_0, # of connection points: 2
#     Edge 123, Type (0, 1), BuildingBlock: UVAHIK_clean_linker_0, # of connection points: 2
#     Edge 124, Type (0, 1), BuildingBlock: UVAHIK_clean_linker_0, # of connection points: 2
#     Edge 125, Type (0, 1), BuildingBlock: UVAHIK_clean_linker_0, # of connection points: 2
#     Edge 126, Type (0, 1), BuildingBlock: UVAHIK_clean_linker_0, # of connection points: 2
#     Edge 127, Type (0, 1), BuildingBlock: UVAHIK_clean_linker_0, # of connection points: 2
#     Edge 128, Type (0, 1), BuildingBlock: UVAHIK_clean_linker_0, # of connection points: 2
#     Edge 129, Type (0, 1), BuildingBlock: UVAHIK_clean_linker_0, # of connection points: 2
#     Edge 130, Type (0, 1), BuildingBlock: UVAHIK_clean_linker_0, # of connection points: 2
#     Edge 131, Type (0, 1), BuildingBlock: UVAHIK_clean_linker_0, # of connection points: 2
#     Edge 132, Type (0, 1), BuildingBlock: UVAHIK_clean_linker_0, # of connection points: 2
#     Edge 133, Type (0, 1), BuildingBlock: UVAHIK_clean_linker_0, # of connection points: 2
#     Edge 134, Type (0, 1), BuildingBlock: UVAHIK_clean_linker_0, # of connection points: 2
#     Edge 135, Type (0, 1), BuildingBlock: UVAHIK_clean_linker_0, # of connection points: 2
# Relax obj value: 0.163
# Max RMSD: 0.291
# Mean RMSD: 0.148
data_MOF--net-gar--node1-QUQFOY_clean_sbu_3--node2-BETFAJ_clean_sbu_0--edge1-UVAHIK_clean_linker_0
_symmetry_space_group_name_H-M    P1
_symmetry_Int_Tables_number       1
_symmetry_cell_setting            triclinic
loop_
_symmetry_equiv_pos_as_xyz
'x, y, z'
_cell_length_a     78.750455
_cell_length_b     73.948791
_cell_length_c     73.857245
_cell_angle_alpha  98.818236
_cell_angle_beta   94.723443
_cell_angle_gamma 102.47394
loop_
_atom_site_label
_atom_site_type_symbol
_atom_site_fract_x
_atom_site_fract_y
_atom_site_fract_z
_atom_type_partial_charge
C0 C 0.05104 0.31389 0.35457 0.0
O1 O 0.06018 0.32219 0.34358 0.0
Cd2 Cd 0.09102 0.33296 0.3488 0.0
O3 O 0.05795 0.30984 0.36913 0.0
Cd4 Cd 0.08668 0.3117 0.38576 0.0
C5 C 0.09006 0.35854 0.39171 0.0
O6 O 0.09887 0.30677 0.3588 0.0
O7 O 0.11833 0.31458 0.38281 0.0
O8 O 0.07446 0.27928 0.38432 0.0
C9 C 0.11462 0.3092 0.36547 0.0
O10 O 0.09192 0.35784 0.37467 0.0
C11 C 0.0762 0.27941 0.40154 0.0
O12 O 0.08797 0.34388 0.39914 0.0
O13 O 0.08335 0.29503 0.41205 0.0
C14 C 0.96128 0.74318 0.66893 0.0
O15 O 0.97278 0.73856 0.67915 0.0
Cd16 Cd 0.00189 0.73957 0.67334 0.0
O17 O 0.96496 0.75003 0.65458 0.0
Cd18 Cd 0.99023 0.75759 0.63829 0.0
C19 C 0.98975 0.71228 0.63009 0.0
O20 O 0.01287 0.7684 0.66365 0.0
O21 O 0.02098 0.75803 0.63759 0.0
O22 O 0.98781 0.78893 0.63735 0.0
C23 C 0.02521 0.76632 0.65421 0.0
O24 O 0.99691 0.71497 0.64668 0.0
C25 C 0.98863 0.78787 0.62016 0.0
O26 O 0.98469 0.72534 0.62333 0.0
O27 O 0.98801 0.77176 0.61075 0.0
C28 C 0.55086 0.81673 0.85382 0.0
O29 O 0.56124 0.82536 0.84401 0.0
Cd30 Cd 0.59206 0.8331 0.85048 0.0
O31 O 0.5565 0.81056 0.86772 0.0
Cd32 Cd 0.58425 0.8098 0.88464 0.0
C33 C 0.58878 0.85621 0.89351 0.0
O34 O 0.59792 0.80512 0.85836 0.0
O35 O 0.6162 0.81438 0.88329 0.0
O36 O 0.57271 0.77722 0.88344 0.0
C37 C 0.61341 0.80815 0.86603 0.0
O38 O 0.5931 0.85667 0.87732 0.0
C39 C 0.57394 0.77784 0.90075 0.0
O40 O 0.58476 0.84083 0.89952 0.0
O41 O 0.58028 0.79373 0.91107 0.0
C42 C 0.45927 0.24428 0.16674 0.0
O43 O 0.46979 0.23851 0.17717 0.0
Cd44 Cd 0.49996 0.24 0.17467 0.0
O45 O 0.46423 0.25195 0.15326 0.0
Cd46 Cd 0.49094 0.25826 0.13932 0.0
C47 C 0.4925 0.21359 0.13142 0.0
O48 O 0.51286 0.26858 0.16553 0.0
O49 O 0.52128 0.25782 0.13963 0.0
O50 O 0.49061 0.28999 0.13821 0.0
C51 C 0.52528 0.26608 0.15627 0.0
O52 O 0.49901 0.21629 0.14823 0.0
C53 C 0.491 0.28849 0.12094 0.0
O54 O 0.48637 0.226 0.12461 0.0
O55 O 0.48958 0.27214 0.11164 0.0
C56 C 0.03409 0.78969 0.13981 0.0
O57 O 0.04346 0.78124 0.1487 0.0
Cd58 Cd 0.07284 0.77972 0.14482 0.0
O59 O 0.0404 0.79942 0.12802 0.0
Cd60 Cd 0.0692 0.80696 0.11452 0.0
C61 C 0.06286 0.76065 0.0986 0.0
O62 O 0.08978 0.80975 0.14194 0.0
O63 O 0.10083 0.80558 0.11643 0.0
O64 O 0.07034 0.84014 0.11228 0.0
C65 C 0.10315 0.80812 0.13394 0.0
O66 O 0.06684 0.75887 0.11518 0.0
C67 C 0.0666 0.8371 0.09484 0.0
O68 O 0.06229 0.77651 0.09428 0.0
O69 O 0.06465 0.8203 0.08657 0.0
C70 C 0.47229 0.76729 0.37425 0.0
O71 O 0.4841 0.77571 0.36578 0.0
Cd72 Cd 0.51486 0.78324 0.37353 0.0
O73 O 0.47639 0.75989 0.3881 0.0
Cd74 Cd 0.50604 0.75824 0.40475 0.0
C75 C 0.5135 0.80443 0.41834 0.0
O76 O 0.52541 0.75734 0.38046 0.0
O77 O 0.53818 0.76969 0.4078 0.0
O78 O 0.50099 0.72477 0.40678 0.0
C79 C 0.53965 0.76421 0.391 0.0
O80 O 0.51699 0.80528 0.40192 0.0
C81 C 0.50372 0.72726 0.42429 0.0
O82 O 0.50829 0.78877 0.42361 0.0
O83 O 0.50635 0.74408 0.4328 0.0
C84 C 0.53462 0.28907 0.64038 0.0
O85 O 0.54401 0.28102 0.64978 0.0
Cd86 Cd 0.57375 0.2795 0.64749 0.0
O87 O 0.541 0.2986 0.62845 0.0
Cd88 Cd 0.56992 0.30675 0.61521 0.0
C89 C 0.56447 0.25968 0.6011 0.0
O90 O 0.58939 0.30923 0.64318 0.0
O91 O 0.60255 0.30979 0.61891 0.0
O92 O 0.56771 0.33906 0.61341 0.0
C93 C 0.6036 0.30975 0.63615 0.0
O94 O 0.56835 0.25874 0.61797 0.0
C95 C 0.56622 0.33685 0.59589 0.0
O96 O 0.56381 0.27527 0.59603 0.0
O97 O 0.56688 0.3208 0.58731 0.0
C98 C 0.97172 0.26621 0.87493 0.0
O99 O 0.98294 0.27413 0.86554 0.0
Cd100 Cd 0.01383 0.28203 0.87286 0.0
O101 O 0.97655 0.25979 0.88918 0.0
Cd102 Cd 0.00658 0.25853 0.90508 0.0
C103 C 0.01301 0.30456 0.91736 0.0
O104 O 0.02545 0.25674 0.88013 0.0
O105 O 0.03832 0.27067 0.90703 0.0
O106 O -0.00161 0.22548 0.90992 0.0
C107 C 0.03972 0.26436 0.89043 0.0
O108 O 0.0164 0.3049 0.90083 0.0
C109 C 0.00567 0.22915 0.92649 0.0
O110 O 0.00793 0.28914 0.92309 0.0
O111 O 0.01232 0.24628 0.93326 0.0
C112 C 0.44588 0.02621 0.30553 0.0
O113 O 0.45452 0.01983 0.29328 0.0
Cd114 Cd 0.44769 0.0142 0.26056 0.0
O115 O 0.43147 0.03053 0.30155 0.0
Cd116 Cd 0.41204 0.02876 0.27434 0.0
C117 C 0.41168 0.98239 0.26657 0.0
O118 O 0.4325 0.03702 0.25394 0.0
O119 O 0.4061 0.02462 0.24117 0.0
O120 O 0.40637 0.05796 0.28673 0.0
C121 C 0.422 0.03101 0.23925 0.0
O122 O 0.42547 0.98531 0.25853 0.0
C123 C 0.38985 0.05255 0.28267 0.0
O124 O 0.40529 0.99568 0.27414 0.0
O125 O 0.38348 0.03516 0.27639 0.0
C126 C 0.30439 0.15484 0.504 0.0
O127 O 0.29279 0.1445 0.51122 0.0
Cd128 Cd 0.26393 0.14832 0.51351 0.0
O129 O 0.30072 0.16766 0.49564 0.0
Cd130 Cd 0.27364 0.17983 0.48844 0.0
C131 C 0.27745 0.19515 0.534 0.0
O132 O 0.25025 0.15113 0.48447 0.0
O133 O 0.24198 0.1769 0.4914 0.0
O134 O 0.27945 0.18083 0.45637 0.0
C135 C 0.23773 0.15911 0.4871 0.0
O136 O 0.27116 0.17799 0.53491 0.0
C137 C 0.27906 0.19799 0.45695 0.0
O138 O 0.2803 0.20036 0.51866 0.0
O139 O 0.2763 0.20676 0.4722 0.0
C140 C 0.12621 0.0154 0.80135 0.0
O141 O 0.11914 0.02402 0.79037 0.0
Cd142 Cd 0.12623 0.02839 0.75992 0.0
O143 O 0.13875 0.00775 0.79598 0.0
Cd144 Cd 0.15486 0.00496 0.76373 0.0
C145 C 0.16871 0.05513 0.76428 0.0
O146 O 0.12714 0.99969 0.74028 0.0
O147 O 0.15134 0.00845 0.72972 0.0
O148 O 0.15762 0.9702 0.76473 0.0
C149 C 0.13479 1.00335 0.72633 0.0
O150 O 0.15235 0.05364 0.76033 0.0
C151 C 0.17362 0.97174 0.76212 0.0
O152 O 0.17405 0.04059 0.76801 0.0
O153 O 0.18131 0.98837 0.76056 0.0
C154 C 0.33403 0.93818 0.00974 0.0
O155 O 0.32781 0.95159 0.01677 0.0
Cd156 Cd 0.30547 0.94954 0.99188 0.0
O157 O 0.32455 0.92596 0.99701 0.0
Cd158 Cd 0.29362 0.92184 0.0023 0.0
C159 C 0.29814 0.90781 0.96192 0.0
O160 O 0.2806 0.94915 0.00735 0.0
O161 O 0.26409 0.92279 0.992 0.0
O162 O 0.30106 0.9242 0.03457 0.0
C163 C 0.26548 0.9393 0.00081 0.0
O164 O 0.30465 0.92544 0.96395 0.0
C165 C 0.29526 0.90681 0.03459 0.0
O166 O 0.2911 0.90096 0.9749 0.0
O167 O 0.28772 0.89639 0.01952 0.0
C168 C 0.32888 0.41601 0.02005 0.0
O169 O 0.31895 0.42146 0.00866 0.0
Cd170 Cd 0.28756 0.41403 0.00329 0.0
O171 O 0.32241 0.40447 0.0303 0.0
Cd172 Cd 0.29136 0.3858 0.03114 0.0
C173 C 0.28459 0.36861 0.98524 0.0
O174 O 0.27522 0.41042 0.03098 0.0
O175 O 0.25932 0.38227 0.02337 0.0
O176 O 0.2926 0.38476 0.06424 0.0
C177 C 0.26003 0.39978 0.0267 0.0
O178 O 0.28038 0.38385 0.983 0.0
C179 C 0.29086 0.36709 0.06258 0.0
O180 O 0.29097 0.36633 0.00093 0.0
O181 O 0.28991 0.35803 0.04633 0.0
C182 C 0.79915 0.11791 0.01997 0.0
O183 O 0.78766 0.10718 0.02704 0.0
Cd184 Cd 0.75897 0.11233 0.03005 0.0
O185 O 0.79585 0.13195 0.01364 0.0
Cd186 Cd 0.77388 0.14873 0.00778 0.0
C187 C 0.76939 0.1587 0.05263 0.0
O188 O 0.75169 0.12161 0.00191 0.0
O189 O 0.74277 0.14737 0.00251 0.0
O190 O 0.77987 0.14661 0.97665 0.0
C191 C 0.73909 0.12959 0.00069 0.0
O192 O 0.76335 0.14119 0.05224 0.0
C193 C 0.78189 0.16407 0.97653 0.0
O194 O 0.77493 0.16514 0.03862 0.0
O195 O 0.78208 0.17479 0.99182 0.0
C196 C 0.12852 0.53611 0.27053 0.0
O197 O 0.11535 0.53253 0.25834 0.0
Cd198 Cd 0.12009 0.54447 0.23091 0.0
O199 O 0.14403 0.5397 0.26621 0.0
Cd200 Cd 0.16128 0.53981 0.24037 0.0
C201 C 0.15365 0.58158 0.25448 0.0
O202 O 0.13931 0.52821 0.21714 0.0
O203 O 0.16177 0.54629 0.20892 0.0
O204 O 0.16355 0.51092 0.24657 0.0
C205 C 0.14614 0.53648 0.20486 0.0
O206 O 0.13819 0.57553 0.24593 0.0
C207 C 0.18012 0.51432 0.24753 0.0
O208 O 0.16469 0.57129 0.2547 0.0
O209 O 0.18853 0.53014 0.24449 0.0
C210 C 0.82828 0.91804 0.52097 0.0
O211 O 0.81792 0.92512 0.5117 0.0
Cd212 Cd 0.78685 0.91619 0.50511 0.0
O213 O 0.82225 0.9046 0.52946 0.0
Cd214 Cd 0.79124 0.88571 0.53176 0.0
C215 C 0.78607 0.87064 0.48568 0.0
O216 O 0.77438 0.90975 0.53201 0.0
O217 O 0.75913 0.88134 0.52434 0.0
O218 O 0.79367 0.88471 0.56494 0.0
C219 C 0.75937 0.89875 0.52753 0.0
O220 O 0.78373 0.88685 0.48411 0.0
C221 C 0.79149 0.86696 0.56313 0.0
O222 O 0.79002 0.86643 0.50134 0.0
O223 O 0.78988 0.85793 0.54676 0.0
C224 C 0.94511 0.05081 0.2883 0.0
O225 O 0.95061 0.04035 0.27594 0.0
Cd226 Cd 0.94106 0.03215 0.24363 0.0
O227 O 0.93316 0.05931 0.28346 0.0
Cd228 Cd 0.91477 0.05958 0.25042 0.0
C229 C 0.89895 0.00862 0.2468 0.0
O230 O 0.94127 0.06054 0.23154 0.0
O231 O 0.9169 0.05517 0.21481 0.0
O232 O 0.91237 0.09456 0.2618 0.0
C233 C 0.93345 0.058 0.21531 0.0
O234 O 0.91392 0.00796 0.24177 0.0
C235 C 0.8967 0.09332 0.25486 0.0
O236 O 0.89543 0.02487 0.25156 0.0
O237 O 0.88913 0.07683 0.24635 0.0
C238 C 0.30027 0.61714 0.52111 0.0
O239 O 0.28685 0.60643 0.52536 0.0
Cd240 Cd 0.25919 0.61506 0.52628 0.0
O241 O 0.29935 0.63244 0.51579 0.0
Cd242 Cd 0.27856 0.65017 0.50835 0.0
C243 C 0.27145 0.65995 0.55203 0.0
O244 O 0.25308 0.62504 0.49786 0.0
O245 O 0.24897 0.65324 0.50408 0.0
O246 O 0.2874 0.64848 0.4784 0.0
C247 C 0.24262 0.63591 0.49799 0.0
O248 O 0.26332 0.64277 0.55014 0.0
C249 C 0.28876 0.66578 0.4779 0.0
O250 O 0.27949 0.66635 0.53924 0.0
O251 O 0.28824 0.67656 0.49294 0.0
C252 C 0.44529 0.55129 0.78896 0.0
O253 O 0.45134 0.54142 0.7766 0.0
Cd254 Cd 0.44138 0.53365 0.74444 0.0
O255 O 0.43298 0.5593 0.78404 0.0
Cd256 Cd 0.41488 0.55953 0.7508 0.0
C257 C 0.39963 0.50895 0.74746 0.0
O258 O 0.44123 0.56175 0.73168 0.0
O259 O 0.41661 0.55229 0.71517 0.0
O260 O 0.41259 0.5947 0.76101 0.0
C261 C 0.43314 0.55732 0.71547 0.0
O262 O 0.41468 0.50867 0.74245 0.0
C263 C 0.39669 0.59321 0.75471 0.0
O264 O 0.39579 0.52502 0.75222 0.0
O265 O 0.38893 0.5765 0.74699 0.0
C266 C 0.63258 0.03681 0.7724 0.0
O267 O 0.61842 0.03087 0.76159 0.0
Cd268 Cd 0.61922 0.04379 0.73391 0.0
O269 O 0.64712 0.04182 0.76624 0.0
Cd270 Cd 0.66088 0.03969 0.73814 0.0
C271 C 0.65379 0.08151 0.75352 0.0
O272 O 0.63762 0.02974 0.7162 0.0
O273 O 0.66024 0.04722 0.70736 0.0
O274 O 0.66099 0.00966 0.74216 0.0
C275 C 0.64411 0.0388 0.70421 0.0
O276 O 0.63773 0.07521 0.74684 0.0
C277 C 0.67748 0.01177 0.74274 0.0
O278 O 0.66497 0.07135 0.75252 0.0
O279 O 0.68677 0.02755 0.74048 0.0
C280 C 0.80453 0.65562 0.0041 0.0
O281 O 0.79318 0.64567 0.01194 0.0
Cd282 Cd 0.76423 0.64895 0.0147 0.0
O283 O 0.80063 0.66811 0.99538 0.0
Cd284 Cd 0.77345 0.68035 0.98885 0.0
C285 C 0.7773 0.69598 0.03453 0.0
O286 O 0.75042 0.65165 0.98575 0.0
O287 O 0.74174 0.6773 0.99179 0.0
O288 O 0.77624 0.68037 0.95607 0.0
C289 C 0.73776 0.65946 0.98811 0.0
O290 O 0.77136 0.67881 0.03569 0.0
C291 C 0.77795 0.69797 0.95694 0.0
O292 O 0.77984 0.70104 0.01906 0.0
O293 O 0.77779 0.70753 0.97274 0.0
C294 C 0.94312 0.52486 0.80555 0.0
O295 O 0.95212 0.51946 0.79317 0.0
Cd296 Cd 0.94661 0.51566 0.76048 0.0
O297 O 0.92886 0.52957 0.80173 0.0
Cd298 Cd 0.91034 0.52952 0.77425 0.0
C299 C 0.9104 0.48311 0.76442 0.0
O300 O 0.93148 0.53873 0.75487 0.0
O301 O 0.90533 0.52711 0.74114 0.0
O302 O 0.90478 0.5586 0.78729 0.0
C303 C 0.92141 0.53336 0.73984 0.0
O304 O 0.92446 0.48653 0.75689 0.0
C305 C 0.88831 0.55347 0.7827 0.0
O306 O 0.90371 0.49604 0.77227 0.0
O307 O 0.88184 0.53616 0.77606 0.0
C308 C 0.83507 0.43424 0.5101 0.0
O309 O 0.82971 0.44784 0.51824 0.0
Cd310 Cd 0.80789 0.44847 0.49338 0.0
O311 O 0.82513 0.42354 0.49664 0.0
Cd312 Cd 0.79439 0.42253 0.50195 0.0
C313 C 0.79831 0.4081 0.4618 0.0
O314 O 0.78221 0.45058 0.50694 0.0
O315 O 0.76533 0.42446 0.49147 0.0
O316 O 0.80087 0.42467 0.53425 0.0
C317 C 0.76699 0.44103 0.50025 0.0
O318 O 0.8061 0.42544 0.46435 0.0
C319 C 0.79463 0.40733 0.53411 0.0
O320 O 0.79054 0.40151 0.4745 0.0
O321 O 0.78725 0.39706 0.5189 0.0
C322 C 0.62618 0.51563 0.30169 0.0
O323 O 0.61948 0.5247 0.29088 0.0
Cd324 Cd 0.6264 0.52918 0.26033 0.0
O325 O 0.63845 0.50759 0.29619 0.0
Cd326 Cd 0.65471 0.50475 0.26405 0.0
C327 C 0.66914 0.55498 0.26453 0.0
O328 O 0.627 0.50034 0.24083 0.0
O329 O 0.65121 0.50725 0.22977 0.0
O330 O 0.65735 0.46995 0.2651 0.0
C331 C 0.63463 0.50322 0.22668 0.0
O332 O 0.65287 0.55388 0.26046 0.0
C333 C 0.67335 0.47146 0.26249 0.0
O334 O 0.67414 0.54029 0.26838 0.0
O335 O 0.68108 0.48808 0.26095 0.0
Sm336 Sm 0.01787 0.02459 0.0016 0.0
Sm337 Sm 0.05266 0.04288 0.02328 0.0
C338 C 0.98385 0.01391 0.99035 0.0
C339 C 0.97093 0.02496 0.98693 0.0
C340 C 0.97252 0.04273 0.99777 0.0
C341 C 0.96035 0.05333 0.99448 0.0
C342 C 0.94642 0.04625 0.98035 0.0
C343 C 0.94522 0.02888 0.96899 0.0
C344 C 0.9575 0.01831 0.97221 0.0
C345 C 0.04206 0.02372 0.97541 0.0
C346 C 0.03167 0.0701 0.00537 0.0
C347 C 0.08658 0.05336 0.03451 0.0
C348 C 0.09994 0.04253 0.03386 0.0
C349 C 0.09652 0.02517 0.02192 0.0
C350 C 0.10813 0.01355 0.0227 0.0
C351 C 0.12343 0.01923 0.0353 0.0
C352 C 0.12681 0.03663 0.04729 0.0
C353 C 0.11507 0.04824 0.04658 0.0
C354 C 0.02657 0.04449 0.04689 0.0
C355 C 0.03886 0.99682 0.0182 0.0
O356 O 0.9904 0.01553 0.00751 0.0
O357 O 0.9957 0.0145 0.97904 0.0
O358 O 0.04586 0.03062 0.99265 0.0
O359 O 0.02541 0.01658 0.97219 0.0
O360 O 0.01807 0.0557 0.00216 0.0
O361 O 0.04706 0.06858 0.0124 0.0
O362 O 0.07976 0.05569 0.01853 0.0
O363 O 0.07486 0.04837 0.04538 0.0
O364 O 0.02614 0.03102 0.03339 0.0
O365 O 0.04165 0.05633 0.04865 0.0
O366 O 0.05218 0.01162 0.02258 0.0
O367 O 0.02354 0.99798 0.01048 0.0
H368 H 0.98299 0.04827 0.00901 0.0
H369 H 0.96129 0.06658 0.00357 0.0
H370 H 0.93444 0.02323 0.95809 0.0
H371 H 0.95631 0.00482 0.96346 0.0
H372 H 0.08471 0.02044 0.01223 0.0
H373 H 0.1051 1.00007 0.01351 0.0
H374 H 0.13862 0.04136 0.057 0.0
H375 H 0.11765 0.0615 0.05607 0.0
Sm376 Sm 0.29 0.77893 0.24139 0.0
Sm377 Sm 0.27827 0.78615 0.27642 0.0
C378 C 0.30121 0.77878 0.20869 0.0
C379 C 0.3102 0.79377 0.19962 0.0
C380 C 0.30317 0.80937 0.19781 0.0
C381 C 0.31208 0.82371 0.18958 0.0
C382 C 0.32819 0.82271 0.18309 0.0
C383 C 0.33549 0.8074 0.18543 0.0
C384 C 0.32654 0.79302 0.19367 0.0
C385 C 0.31477 0.77967 0.2704 0.0
C386 C 0.29004 0.82168 0.25918 0.0
C387 C 0.27113 0.78745 0.31081 0.0
C388 C 0.26078 0.77413 0.32073 0.0
C389 C 0.26491 0.75682 0.32195 0.0
C390 C 0.25486 0.74426 0.33124 0.0
C391 C 0.24032 0.74863 0.3393 0.0
C392 C 0.23593 0.76577 0.33762 0.0
C393 C 0.24615 0.77846 0.32848 0.0
C394 C 0.25228 0.78539 0.24869 0.0
C395 C 0.27364 0.74272 0.25586 0.0
O396 O 0.28494 0.77842 0.2113 0.0
O397 O 0.31037 0.77579 0.22295 0.0
O398 O 0.30598 0.79199 0.26948 0.0
O399 O 0.30987 0.76601 0.2565 0.0
O400 O 0.28768 0.80948 0.24377 0.0
O401 O 0.29099 0.81617 0.27516 0.0
O402 O 0.28556 0.78361 0.30539 0.0
O403 O 0.26213 0.79347 0.29837 0.0
O404 O 0.26196 0.77369 0.24814 0.0
O405 O 0.25592 0.79725 0.26406 0.0
O406 O 0.2764 0.7542 0.27186 0.0
O407 O 0.27515 0.7492 0.24042 0.0
H408 H 0.29069 0.81043 0.20251 0.0
H409 H 0.30597 0.83516 0.18759 0.0
H410 H 0.34788 0.80636 0.1805 0.0
H411 H 0.3323 0.78122 0.19527 0.0
H412 H 0.27603 0.75301 0.31595 0.0
H413 H 0.25896 0.73144 0.33269 0.0
H414 H 0.22479 0.76949 0.34362 0.0
H415 H 0.24267 0.7917 0.32749 0.0
Sm416 Sm 0.55463 0.03308 0.50939 0.0
Sm417 Sm 0.51412 0.02935 0.51156 0.0
C418 C 0.58732 0.02894 0.5117 0.0
C419 C 0.59712 0.01421 0.5066 0.0
C420 C 0.59719 0.99965 0.51683 0.0
C421 C 0.60771 0.98685 0.51283 0.0
C422 C 0.61849 0.9884 0.49861 0.0
C423 C 0.61795 1.00253 0.48798 0.0
C424 C 0.60739 0.01528 0.49193 0.0
C425 C 0.53407 0.03053 0.47726 0.0
C426 C 0.52708 0.99129 0.50587 0.0
C427 C 0.48158 0.03354 0.50865 0.0
C428 C 0.47245 0.04888 0.5135 0.0
C429 C 0.47147 0.06209 0.50186 0.0
C430 C 0.46173 0.07564 0.50582 0.0
C431 C 0.45268 0.07622 0.52145 0.0
C432 C 0.45424 0.06351 0.53348 0.0
C433 C 0.46397 0.04997 0.52953 0.0
C434 C 0.53412 0.03072 0.54352 0.0
C435 C 0.54154 0.07131 0.51559 0.0
O436 O 0.5775 0.02714 0.52511 0.0
O437 O 0.58022 0.03548 0.49819 0.0
O438 O 0.53037 0.02124 0.48973 0.0
O439 O 0.54963 0.04154 0.48091 0.0
O440 O 0.54313 1.00182 0.51121 0.0
O441 O 0.51361 0.99857 0.5019 0.0
O442 O 0.49139 0.03472 0.49516 0.0
O443 O 0.48844 0.02711 0.5224 0.0
O444 O 0.53832 0.0405 0.53146 0.0
O445 O 0.51818 0.02062 0.53981 0.0
O446 O 0.52558 0.06058 0.51035 0.0
O447 O 0.55522 0.06414 0.51906 0.0
H448 H 0.58948 0.9984 0.52825 0.0
H449 H 0.60798 0.97625 0.5214 0.0
H450 H 0.62598 1.00396 0.47682 0.0
H451 H 0.60763 0.02631 0.48378 0.0
H452 H 0.47782 0.06168 0.48939 0.0
H453 H 0.46064 0.08509 0.49617 0.0
H454 H 0.44758 0.06376 0.54575 0.0
H455 H 0.46451 0.04006 0.53883 0.0
Sm456 Sm 0.26611 0.28804 0.7584 0.0
Sm457 Sm 0.30435 0.27763 0.761 0.0
C458 C 0.23273 0.28791 0.76134 0.0
C459 C 0.22123 0.29004 0.77612 0.0
C460 C 0.21538 0.27526 0.78567 0.0
C461 C 0.20309 0.27666 0.79812 0.0
C462 C 0.19643 0.29287 0.80141 0.0
C463 C 0.20294 0.30808 0.7927 0.0
C464 C 0.21514 0.30662 0.78006 0.0
C465 C 0.29288 0.32061 0.75911 0.0
C466 C 0.28882 0.29073 0.79893 0.0
C467 C 0.33791 0.27934 0.75753 0.0
C468 C 0.3489 0.27581 0.74258 0.0
C469 C 0.34871 0.28489 0.72719 0.0
C470 C 0.36031 0.2827 0.71407 0.0
C471 C 0.37232 0.27132 0.71596 0.0
C472 C 0.3719 0.26153 0.7309 0.0
C473 C 0.36036 0.26381 0.74408 0.0
C474 C 0.27797 0.2453 0.76201 0.0
C475 C 0.28075 0.27283 0.72036 0.0
O476 O 0.23858 0.27254 0.75859 0.0
O477 O 0.24441 0.30288 0.75972 0.0
O478 O 0.29447 0.30388 0.75951 0.0
O479 O 0.27628 0.32014 0.75833 0.0
O480 O 0.27351 0.28898 0.78919 0.0
O481 O 0.30324 0.28907 0.79142 0.0
O482 O 0.33082 0.29383 0.75787 0.0
O483 O 0.32746 0.2647 0.76178 0.0
O484 O 0.27602 0.26174 0.7605 0.0
O485 O 0.2947 0.24617 0.7636 0.0
O486 O 0.29567 0.27286 0.73001 0.0
O487 O 0.26721 0.2775 0.72775 0.0
H488 H 0.21984 0.26234 0.7831 0.0
H489 H 0.19833 0.26478 0.80477 0.0
H490 H 0.19791 0.32067 0.79491 0.0
H491 H 0.21939 0.31825 0.77292 0.0
H492 H 0.33987 0.29404 0.72547 0.0
H493 H 0.36007 0.29018 0.70258 0.0
H494 H 0.38102 0.25274 0.73286 0.0
H495 H 0.36072 0.25659 0.75576 0.0
Sm496 Sm 0.03378 0.0501 0.51877 0.0
Sm497 Sm 0.03954 0.0144 0.50224 0.0
C498 C 0.03196 0.08562 0.52494 0.0
C499 C 0.02975 0.09826 0.51187 0.0
C500 C 0.0393 0.09871 0.49661 0.0
C501 C 0.03683 0.11036 0.48398 0.0
C502 C 0.02466 0.12165 0.48627 0.0
C503 C 0.01473 0.12072 0.50122 0.0
C504 C 0.01729 0.10913 0.51394 0.0
C505 C 0.00638 0.02044 0.52066 0.0
C506 C 0.02332 0.03612 0.4729 0.0
C507 C 0.0414 0.9789 0.49536 0.0
C508 C 0.04375 0.96577 0.50784 0.0
C509 C 0.03335 0.96368 0.52226 0.0
C510 C 0.03602 0.95172 0.53446 0.0
C511 C 0.04941 0.94189 0.53279 0.0
C512 C 0.06011 0.94441 0.51861 0.0
C513 C 0.05723 0.95619 0.50618 0.0
C514 C 0.06694 0.04361 0.4996 0.0
C515 C 0.04979 0.02843 0.54821 0.0
O516 O 0.04681 0.08041 0.52576 0.0
O517 O 0.01844 0.0718 0.52487 0.0
O518 O 0.0142 0.0228 0.50667 0.0
O519 O 0.01301 0.03397 0.53449 0.0
O520 O 0.0274 0.05031 0.48706 0.0
O521 O 0.02554 0.0194 0.47526 0.0
O522 O 0.02653 0.98411 0.49491 0.0
O523 O 0.05489 0.99283 0.49575 0.0
O524 O 0.05921 0.04194 0.51383 0.0
O525 O 0.06026 0.02959 0.4863 0.0
O526 O 0.04545 0.01415 0.53409 0.0
O527 O 0.0479 0.04523 0.54571 0.0
H528 H 0.04878 0.09016 0.49447 0.0
H529 H 0.04485 0.11094 0.47275 0.0
H530 H 0.0051 0.12909 0.50318 0.0
H531 H 0.00954 0.10864 0.52539 0.0
H532 H 0.02305 0.97118 0.52411 0.0
H533 H 0.02721 0.94987 0.54488 0.0
H534 H 0.0707 0.9373 0.51707 0.0
H535 H 0.0656 0.95794 0.49535 0.0
Sm536 Sm 0.30258 0.79816 0.75864 0.0
Sm537 Sm 0.26959 0.76853 0.75716 0.0
C538 C 0.33406 0.81986 0.76852 0.0
C539 C 0.35108 0.81483 0.77085 0.0
C540 C 0.35633 0.80875 0.78709 0.0
C541 C 0.3713 0.80176 0.78845 0.0
C542 C 0.38141 0.80088 0.77371 0.0
C543 C 0.37643 0.80727 0.75761 0.0
C544 C 0.36137 0.81421 0.75619 0.0
C545 C 0.28849 0.78014 0.72406 0.0
C546 C 0.30565 0.75288 0.76033 0.0
C547 C 0.23809 0.74699 0.74719 0.0
C548 C 0.22083 0.75156 0.74592 0.0
C549 C 0.21623 0.76208 0.73274 0.0
C550 C 0.20016 0.76701 0.73213 0.0
C551 C 0.1884 0.76142 0.74456 0.0
C552 C 0.19303 0.75121 0.75792 0.0
C553 C 0.20917 0.74634 0.75861 0.0
C554 C 0.2839 0.78627 0.79175 0.0
C555 C 0.26645 0.81377 0.75532 0.0
O556 O 0.32331 0.81492 0.78046 0.0
O557 O 0.32631 0.81662 0.75158 0.0
O558 O 0.28988 0.7726 0.73803 0.0
O559 O 0.29546 0.79811 0.72771 0.0
O560 O 0.31372 0.77119 0.76358 0.0
O561 O 0.28838 0.74796 0.75597 0.0
O562 O 0.24845 0.75296 0.73526 0.0
O563 O 0.24616 0.7493 0.7639 0.0
O564 O 0.28237 0.79398 0.77789 0.0
O565 O 0.27684 0.76831 0.788 0.0
O566 O 0.25835 0.79558 0.7534 0.0
O567 O 0.28382 0.81875 0.75843 0.0
H568 H 0.34877 0.80913 0.79869 0.0
H569 H 0.3752 0.79743 0.80123 0.0
H570 H 0.38419 0.80688 0.74617 0.0
H571 H 0.35762 0.8188 0.74352 0.0
H572 H 0.22495 0.76645 0.72282 0.0
H573 H 0.19664 0.77458 0.72148 0.0
H574 H 0.18401 0.74672 0.76754 0.0
H575 H 0.21252 0.73841 0.76901 0.0
Sm576 Sm 0.53624 0.03343 0.02942 0.0
Sm577 Sm 0.52834 0.03056 0.98577 0.0
C578 C 0.53494 0.03905 0.06497 0.0
C579 C 0.52508 0.02583 0.07552 0.0
C580 C 0.50899 0.02849 0.0809 0.0
C581 C 0.49827 0.01487 0.08856 0.0
C582 C 0.50351 0.99838 0.09123 0.0
C583 C 0.51963 0.9957 0.08601 0.0
C584 C 0.53029 0.00926 0.0781 0.0
C585 C 0.54948 0.00784 0.00844 0.0
C586 C 0.50313 1.00274 0.00662 0.0
C587 C 0.52782 0.02671 0.95011 0.0
C588 C 0.54002 0.03944 0.941 0.0
C589 C 0.55406 0.03333 0.93359 0.0
C590 C 0.5675 0.04608 0.92803 0.0
C591 C 0.56705 0.06512 0.92955 0.0
C592 C 0.55293 0.07128 0.93661 0.0
C593 C 0.53959 0.05858 0.94248 0.0
C594 C 0.51575 0.05682 0.00697 0.0
C595 C 0.56283 0.06048 0.00832 0.0
O596 O 0.52511 0.04561 0.0536 0.0
O597 O 0.54846 0.03439 0.05781 0.0
O598 O 0.54861 0.02373 0.00499 0.0
O599 O 0.54459 0.00541 0.02446 0.0
O600 O 0.51321 0.00834 0.02246 0.0
O601 O 0.50906 0.00459 0.99067 0.0
O602 O 0.53513 0.01628 0.95967 0.0
O603 O 0.51627 0.034 0.95867 0.0
O604 O 0.51621 0.04083 0.01041 0.0
O605 O 0.52095 0.05916 0.99113 0.0
O606 O 0.55501 0.05052 0.99232 0.0
O607 O 0.55689 0.05834 0.02424 0.0
H608 H 0.50455 0.04102 0.07893 0.0
H609 H 0.48613 0.01755 0.09298 0.0
H610 H 0.52402 0.98321 0.08821 0.0
H611 H 0.5425 0.00663 0.07384 0.0
H612 H 0.55489 0.01877 0.93256 0.0
H613 H 0.57809 0.04096 0.92212 0.0
H614 H 0.55226 0.08587 0.9376 0.0
H615 H 0.52914 0.06387 0.94848 0.0
Sm616 Sm 0.2897 0.30162 0.26442 0.0
Sm617 Sm 0.27807 0.25786 0.25092 0.0
C618 C 0.29536 0.33795 0.26612 0.0
C619 C 0.28458 0.35052 0.27324 0.0
C620 C 0.26628 0.34518 0.26877 0.0
C621 C 0.256 0.35732 0.2749 0.0
C622 C 0.26387 0.37489 0.28557 0.0
C623 C 0.28196 0.37985 0.29105 0.0
C624 C 0.29231 0.36758 0.28499 0.0
C625 C 0.2846 0.28396 0.29465 0.0
C626 C 0.24846 0.27999 0.25955 0.0
C627 C 0.27287 0.22102 0.2439 0.0
C628 C 0.2845 0.20829 0.24015 0.0
C629 C 0.29935 0.20946 0.25254 0.0
C630 C 0.31107 0.19838 0.248 0.0
C631 C 0.30824 0.18611 0.23094 0.0
C632 C 0.29337 0.18492 0.21859 0.0
C633 C 0.28155 0.19593 0.2232 0.0
C634 C 0.27802 0.27974 0.22413 0.0
C635 C 0.32009 0.27903 0.25929 0.0
O636 O 0.28834 0.32597 0.25099 0.0
O637 O 0.30301 0.33051 0.27855 0.0
O638 O 0.28269 0.27651 0.27797 0.0
O639 O 0.28909 0.30206 0.29598 0.0
O640 O 0.25974 0.29551 0.25784 0.0
O641 O 0.25311 0.26406 0.26039 0.0
O642 O 0.2747 0.2306 0.26069 0.0
O643 O 0.27089 0.23105 0.23111 0.0
O644 O 0.28984 0.2824 0.23753 0.0
O645 O 0.26563 0.2651 0.22453 0.0
O646 O 0.30803 0.26301 0.25637 0.0
O647 O 0.31634 0.29566 0.26143 0.0
H648 H 0.25995 0.33193 0.25998 0.0
H649 H 0.24207 0.35359 0.27021 0.0
H650 H 0.28814 0.39362 0.29901 0.0
H651 H 0.30636 0.37167 0.28889 0.0
H652 H 0.30203 0.21901 0.26565 0.0
H653 H 0.3222 0.19918 0.258 0.0
H654 H 0.2909 0.17553 0.2054 0.0
H655 H 0.27024 0.19503 0.21341 0.0
Sm656 Sm 0.5334 0.55047 0.01961 0.0
Sm657 Sm 0.53957 0.51505 0.0032 0.0
C658 C 0.53099 0.58576 0.02585 0.0
C659 C 0.52935 0.59844 0.01264 0.0
C660 C 0.54162 0.60154 1.0 0.0
C661 C 0.53933 0.61245 0.98665 0.0
C662 C 0.52465 0.62033 0.98552 0.0
C663 C 0.51226 0.61703 0.998 0.0
C664 C 0.51462 0.60618 0.01148 0.0
C665 C 0.50623 0.52067 0.02176 0.0
C666 C 0.52317 0.53652 0.97378 0.0
C667 C 0.54213 0.47981 0.99606 0.0
C668 C 0.54529 0.46683 0.00831 0.0
C669 C 0.53859 0.4676 0.02538 0.0
C670 C 0.54141 0.45505 0.0369 0.0
C671 C 0.55087 0.44154 0.03142 0.0
C672 C 0.55821 0.4413 0.01473 0.0
C673 C 0.5555 0.45399 0.00326 0.0
C674 C 0.56669 0.54452 0.00044 0.0
C675 C 0.54985 0.52914 0.04908 0.0
O676 O 0.54593 0.58084 0.02769 0.0
O677 O 0.5175 0.57171 0.02497 0.0
O678 O 0.51402 0.5229 0.00771 0.0
O679 O 0.51279 0.53439 0.03542 0.0
O680 O 0.52745 0.55081 0.98785 0.0
O681 O 0.52521 0.51978 0.9763 0.0
O682 O 0.5271 0.48461 0.99639 0.0
O683 O 0.55529 0.49398 0.99612 0.0
O684 O 0.55903 0.54279 0.01469 0.0
O685 O 0.56007 0.53046 0.98717 0.0
O686 O 0.54558 0.51485 0.03501 0.0
O687 O 0.54781 0.54587 0.04654 0.0
H688 H 0.55298 0.5955 0.00032 0.0
H689 H 0.54928 0.61504 0.97746 0.0
H690 H 0.50076 0.62281 0.99733 0.0
H691 H 0.50485 0.60365 0.02087 0.0
H692 H 0.53081 0.47757 0.02963 0.0
H693 H 0.53539 0.45524 0.04958 0.0
H694 H 0.5655 0.43089 0.01031 0.0
H695 H 0.56102 0.4535 0.99028 0.0
Sm696 Sm 0.80242 0.29809 0.25906 0.0
Sm697 Sm 0.76961 0.26837 0.25751 0.0
C698 C 0.83407 0.31956 0.268 0.0
C699 C 0.85098 0.31432 0.26997 0.0
C700 C 0.85459 0.30357 0.28332 0.0
C701 C 0.87018 0.29767 0.28438 0.0
C702 C 0.88244 0.30246 0.27218 0.0
C703 C 0.87871 0.3128 0.25855 0.0
C704 C 0.86307 0.3187 0.25746 0.0
C705 C 0.7883 0.28008 0.22451 0.0
C706 C 0.80567 0.25287 0.26067 0.0
C707 C 0.73819 0.24667 0.24744 0.0
C708 C 0.72092 0.25123 0.24623 0.0
C709 C 0.71594 0.26083 0.23241 0.0
C710 C 0.70007 0.26619 0.23202 0.0
C711 C 0.68885 0.26193 0.24534 0.0
C712 C 0.6938 0.25246 0.25922 0.0
C713 C 0.70975 0.24715 0.25967 0.0
C714 C 0.7839 0.28587 0.29216 0.0
C715 C 0.7663 0.31361 0.25586 0.0
O716 O 0.82356 0.31517 0.28032 0.0
O717 O 0.82606 0.316 0.25116 0.0
O718 O 0.78992 0.27257 0.23845 0.0
O719 O 0.79479 0.29813 0.22821 0.0
O720 O 0.81361 0.27121 0.26428 0.0
O721 O 0.78845 0.24787 0.25597 0.0
O722 O 0.74854 0.25277 0.23555 0.0
O723 O 0.74628 0.24891 0.26414 0.0
O724 O 0.78234 0.29373 0.27841 0.0
O725 O 0.77686 0.26792 0.28827 0.0
O726 O 0.75826 0.29538 0.25377 0.0
O727 O 0.78366 0.31867 0.25912 0.0
H728 H 0.84543 0.29972 0.29302 0.0
H729 H 0.87295 0.29001 0.29523 0.0
H730 H 0.88808 0.31666 0.24905 0.0
H731 H 0.86041 0.3267 0.24686 0.0
H732 H 0.72425 0.26426 0.22185 0.0
H733 H 0.69631 0.2731 0.22093 0.0
H734 H 0.68522 0.24897 0.26954 0.0
H735 H 0.71336 0.23989 0.27054 0.0
Sm736 Sm 0.03335 0.53265 0.52883 0.0
Sm737 Sm 0.02995 0.53128 0.48791 0.0
C738 C 0.02969 0.53394 0.56392 0.0
C739 C 0.01908 0.51974 0.57292 0.0
C740 C 0.00281 0.52208 0.57797 0.0
C741 C 0.99228 0.50847 0.58581 0.0
C742 C 0.99788 0.49229 0.58894 0.0
C743 C 0.0139 0.48961 0.5834 0.0
C744 C 0.02441 0.5032 0.57539 0.0
C745 C 0.03183 0.49781 0.50837 0.0
C746 C 0.9954 0.5289 0.50629 0.0
C747 C 0.03238 0.52682 0.45244 0.0
C748 C 0.04379 0.53938 0.44259 0.0
C749 C 0.0577 0.5334 0.43486 0.0
C750 C 0.07033 0.54603 0.42812 0.0
C751 C 0.06914 0.5648 0.42883 0.0
C752 C 0.05495 0.57072 0.43598 0.0
C753 C 0.04242 0.55814 0.44301 0.0
C754 C 0.0315 0.56627 0.5076 0.0
C755 C 0.06875 0.54249 0.51176 0.0
O756 O 0.02081 0.54204 0.55318 0.0
O757 O 0.04331 0.52961 0.5569 0.0
O758 O 0.02243 0.50876 0.50462 0.0
O759 O 0.04172 0.50464 0.52378 0.0
O760 O 0.0058 0.5367 0.52159 0.0
O761 O 0.00146 0.52102 0.49177 0.0
O762 O 0.04053 0.51838 0.46352 0.0
O763 O 0.01984 0.53336 0.45965 0.0
O764 O 0.04043 0.55513 0.51184 0.0
O765 O 0.02249 0.55993 0.49158 0.0
O766 O 0.05935 0.53297 0.49624 0.0
O767 O 0.06113 0.54763 0.52628 0.0
H768 H -0.0017 0.53458 0.57606 0.0
H769 H 0.9802 0.51118 0.59037 0.0
H770 H 0.01854 0.47733 0.58582 0.0
H771 H 0.03677 0.50081 0.57136 0.0
H772 H 0.05907 0.51908 0.43449 0.0
H773 H 0.08095 0.54107 0.42214 0.0
H774 H 0.05371 0.58508 0.43632 0.0
H775 H 0.03192 0.56325 0.4491 0.0
Sm776 Sm 0.76607 0.78785 0.25915 0.0
Sm777 Sm 0.80429 0.77707 0.26132 0.0
C778 C 0.73271 0.78779 0.26218 0.0
C779 C 0.72124 0.79016 0.27695 0.0
C780 C 0.71449 0.77514 0.28588 0.0
C781 C 0.70218 0.77681 0.29826 0.0
C782 C 0.69642 0.79354 0.3021 0.0
C783 C 0.70375 0.8089 0.29397 0.0
C784 C 0.71597 0.80719 0.28141 0.0
C785 C 0.79304 0.8203 0.25999 0.0
C786 C 0.78889 0.78976 0.29937 0.0
C787 C 0.83777 0.77829 0.25788 0.0
C788 C 0.84878 0.77506 0.24289 0.0
C789 C 0.84923 0.78512 0.22818 0.0
C790 C 0.86086 0.78312 0.21506 0.0
C791 C 0.87226 0.77097 0.21628 0.0
C792 C 0.87117 0.76023 0.23049 0.0
C793 C 0.8596 0.76232 0.24368 0.0
C794 C 0.77753 0.74501 0.26222 0.0
C795 C 0.78063 0.77292 0.22088 0.0
O796 O 0.73857 0.77242 0.25967 0.0
O797 O 0.74437 0.80268 0.26027 0.0
O798 O 0.79451 0.8035 0.26019 0.0
O799 O 0.77649 0.82 0.25952 0.0
O800 O 0.77347 0.78803 0.28985 0.0
O801 O 0.80331 0.78847 0.29173 0.0
O802 O 0.83103 0.79306 0.25881 0.0
O803 O 0.827 0.76353 0.26151 0.0
O804 O 0.77596 0.76156 0.26078 0.0
O805 O 0.7942 0.74556 0.26395 0.0
O806 O 0.79562 0.77295 0.2304 0.0
O807 O 0.76708 0.7774 0.22843 0.0
H808 H 0.71824 0.76185 0.28285 0.0
H809 H 0.69665 0.76477 0.30437 0.0
H810 H 0.69934 0.82186 0.29658 0.0
H811 H 0.72086 0.819 0.27472 0.0
H812 H 0.84089 0.79486 0.227 0.0
H813 H 0.86113 0.79135 0.20411 0.0
H814 H 0.87981 0.75082 0.23191 0.0
H815 H 0.85946 0.75433 0.25483 0.0
Sm816 Sm 0.79301 0.27945 0.7408 0.0
Sm817 Sm 0.77765 0.28544 0.77684 0.0
C818 C 0.80717 0.27982 0.70972 0.0
C819 C 0.81434 0.29452 0.69955 0.0
C820 C 0.80602 0.3092 0.69772 0.0
C821 C 0.81378 0.32383 0.68915 0.0
C822 C 0.83003 0.32404 0.68246 0.0
C823 C 0.83851 0.30958 0.68476 0.0
C824 C 0.8307 0.29489 0.69325 0.0
C825 C 0.8144 0.27839 0.77176 0.0
C826 C 0.78867 0.32143 0.75827 0.0
C827 C 0.77304 0.28733 0.81178 0.0
C828 C 0.76088 0.27514 0.82127 0.0
C829 C 0.7612 0.2561 0.82032 0.0
C830 C 0.74992 0.24474 0.82967 0.0
C831 C 0.7381 0.25217 0.8401 0.0
C832 C 0.73719 0.27095 0.84034 0.0
C833 C 0.74851 0.28237 0.83095 0.0
C834 C 0.75002 0.27944 0.74912 0.0
C835 C 0.77422 0.24311 0.75442 0.0
O836 O 0.79019 0.27574 0.71019 0.0
O837 O 0.81612 0.28101 0.72567 0.0
O838 O 0.8057 0.29077 0.7704 0.0
O839 O 0.81109 0.2656 0.75705 0.0
O840 O 0.79053 0.30995 0.74345 0.0
O841 O 0.78633 0.31587 0.7741 0.0
O842 O 0.78529 0.2801 0.8046 0.0
O843 O 0.76592 0.29693 0.80107 0.0
O844 O 0.76572 0.2795 0.74678 0.0
O845 O 0.74831 0.28149 0.76654 0.0
O846 O 0.77658 0.25388 0.77081 0.0
O847 O 0.77675 0.25006 0.73928 0.0
H848 H 0.79355 0.30935 0.70286 0.0
H849 H 0.80679 0.33463 0.68722 0.0
H850 H 0.85105 0.3095 0.67974 0.0
H851 H 0.83745 0.28385 0.69501 0.0
H852 H 0.77042 0.25002 0.81274 0.0
H853 H 0.75119 0.23042 0.82962 0.0
H854 H 0.72824 0.27695 0.84843 0.0
H855 H 0.74789 0.29694 0.83159 0.0
Sm856 Sm 0.78952 0.80228 0.76561 0.0
Sm857 Sm 0.77687 0.75839 0.75268 0.0
C858 C 0.79452 0.83895 0.77352 0.0
C859 C 0.783 0.85113 0.77936 0.0
C860 C 0.76622 0.84848 0.76987 0.0
C861 C 0.75541 0.86023 0.77564 0.0
C862 C 0.76136 0.87479 0.79083 0.0
C863 C 0.77774 0.87685 0.80087 0.0
C864 C 0.7885 0.86498 0.79519 0.0
C865 C 0.79071 0.78084 0.79264 0.0
C866 C 0.74725 0.78205 0.75943 0.0
C867 C 0.77379 0.72235 0.75279 0.0
C868 C 0.7845 0.70931 0.74576 0.0
C869 C 0.79935 0.70802 0.75695 0.0
C870 C 0.81036 0.69693 0.75018 0.0
C871 C 0.80668 0.68666 0.73214 0.0
C872 C 0.79167 0.6875 0.72099 0.0
C873 C 0.78069 0.69888 0.72771 0.0
C874 C 0.78053 0.77551 0.722 0.0
C875 C 0.81806 0.78072 0.75412 0.0
O876 O 0.79105 0.82966 0.75655 0.0
O877 O 0.79837 0.82885 0.78561 0.0
O878 O 0.77839 0.77797 0.7797 0.0
O879 O 0.80293 0.79538 0.79157 0.0
O880 O 0.75976 0.79757 0.76133 0.0
O881 O 0.75038 0.76502 0.75743 0.0
O882 O 0.78158 0.73551 0.76674 0.0
O883 O 0.76446 0.7285 0.74055 0.0
O884 O 0.78334 0.78318 0.73866 0.0
O885 O 0.77553 0.75744 0.72088 0.0
O886 O 0.80713 0.76536 0.75687 0.0
O887 O 0.81336 0.79659 0.75354 0.0
H888 H 0.76165 0.83771 0.75772 0.0
H889 H 0.74292 0.85875 0.76751 0.0
H890 H 0.78252 0.88823 0.81248 0.0
H891 H 0.80129 0.8669 0.80285 0.0
H892 H 0.8026 0.71567 0.77098 0.0
H893 H 0.82156 0.69603 0.75927 0.0
H894 H 0.78848 0.67941 0.70713 0.0
H895 H 0.7693 0.69955 0.71879 0.0
Sm896 Sm 0.51778 0.52431 0.50165 0.0
Sm897 Sm 0.55311 0.54307 0.52379 0.0
C898 C 0.48373 0.51451 0.49126 0.0
C899 C 0.47109 0.5257 0.4872 0.0
C900 C 0.47108 0.54255 0.49893 0.0
C901 C 0.45916 0.55318 0.49469 0.0
C902 C 0.44719 0.54721 0.47856 0.0
C903 C 0.44789 0.53088 0.46638 0.0
C904 C 0.4597 0.52017 0.47072 0.0
C905 C 0.54218 0.52339 0.4759 0.0
C906 C 0.53277 0.56998 0.50487 0.0
C907 C 0.58707 0.5533 0.53489 0.0
C908 C 0.60029 0.54221 0.53455 0.0
C909 C 0.59704 0.52496 0.52244 0.0
C910 C 0.60872 0.51338 0.52317 0.0
C911 C 0.62384 0.51888 0.53603 0.0
C912 C 0.62692 0.53601 0.5484 0.0
C913 C 0.61516 0.54762 0.54766 0.0
C914 C 0.5287 0.54526 0.54927 0.0
C915 C 0.53854 0.49713 0.51978 0.0
O916 O 0.49047 0.51671 0.50846 0.0
O917 O 0.49529 0.51391 0.47969 0.0
O918 O 0.54587 0.53038 0.49317 0.0
O919 O 0.52547 0.51658 0.47242 0.0
O920 O 0.51908 0.5556 0.50083 0.0
O921 O 0.54796 0.56872 0.5127 0.0
O922 O 0.58028 0.55561 0.51886 0.0
O923 O 0.57532 0.54867 0.54583 0.0
O924 O 0.52497 0.5378 0.53213 0.0
O925 O 0.54526 0.55296 0.55235 0.0
O926 O 0.55193 0.51182 0.52393 0.0
O927 O 0.52332 0.49817 0.51175 0.0
H928 H 0.48009 0.54738 0.51151 0.0
H929 H 0.45881 0.56557 0.50447 0.0
H930 H 0.43897 0.52612 0.45374 0.0
H931 H 0.45986 0.50748 0.46128 0.0
H932 H 0.58535 0.52035 0.51255 0.0
H933 H 0.60593 0.50009 0.51369 0.0
H934 H 0.63856 0.54056 0.55836 0.0
H935 H 0.61757 0.56071 0.55738 0.0
Sm936 Sm 0.05398 0.53313 0.00945 0.0
Sm937 Sm 0.01382 0.52919 0.01255 0.0
C938 C 0.08664 0.52901 0.01095 0.0
C939 C 0.09628 0.51417 0.00574 0.0
C940 C 0.09664 0.49979 0.01615 0.0
C941 C 0.10722 0.48707 0.0121 0.0
C942 C 0.11776 0.48856 0.99769 0.0
C943 C 0.11683 0.50238 0.9868 0.0
C944 C 0.10619 0.51503 0.99077 0.0
C945 C 0.03323 0.53169 0.97788 0.0
C946 C 0.0266 0.49122 0.00554 0.0
C947 C 0.98115 0.53303 0.01107 0.0
C948 C 0.97209 0.54848 0.01508 0.0
C949 C 0.976 0.56459 0.00688 0.0
C950 C 0.96628 0.5783 0.00962 0.0
C951 C 0.95252 0.57626 0.02069 0.0
C952 C 0.9493 0.56067 0.02974 0.0
C953 C 0.95896 0.54688 0.0269 0.0
C954 C 0.03448 0.53014 0.04401 0.0
C955 C 0.04092 0.5712 0.01657 0.0
O956 O 0.0773 0.52763 0.0248 0.0
O957 O 0.07913 0.5352 0.99745 0.0
O958 O 0.02955 0.52174 0.98988 0.0
O959 O 0.04879 0.54267 0.98165 0.0
O960 O 0.04268 0.50171 0.01074 0.0
O961 O 0.01305 0.49852 0.00216 0.0
O962 O 0.98997 0.53283 0.99675 0.0
O963 O 0.98911 0.52835 0.02529 0.0
O964 O 0.03826 0.54029 0.03215 0.0
O965 O 0.0188 0.51941 0.04013 0.0
O966 O 0.02492 0.56051 0.01157 0.0
O967 O 0.05474 0.56409 0.01937 0.0
H968 H 0.08919 0.4987 0.02778 0.0
H969 H 0.10785 0.47667 0.02084 0.0
H970 H 0.12477 0.50378 0.97557 0.0
H971 H 0.10617 0.5259 0.98247 0.0
H972 H 0.9863 0.56641 0.998 0.0
H973 H 0.96929 0.59033 0.00274 0.0
H974 H 0.93875 0.55866 0.0383 0.0
H975 H 0.95583 0.53468 0.03353 0.0
C976 C 0.02528 0.21417 0.94414 0.0
C977 C 0.00829 0.21416 0.93671 0.0
C978 C 0.02829 0.19958 0.95301 0.0
C979 C 0.00686 0.16237 0.97694 0.0
H980 H 0.04444 0.13869 0.96317 0.0
C981 C 0.01282 0.09081 0.99526 0.0
C982 C 0.02961 0.08813 0.00018 0.0
C983 C 0.01078 0.10726 0.98916 0.0
C984 C 0.03408 0.14534 0.9674 0.0
H985 H 0.98105 0.19934 0.93299 0.0
H986 H 0.98615 0.174 0.94919 0.0
H987 H 0.03966 0.16538 0.94936 0.0
H988 H 0.05745 0.10077 0.00274 0.0
H989 H 0.05386 0.12956 0.99211 0.0
H990 H 0.00123 0.1423 0.99493 0.0
C991 C 0.99719 0.18518 0.94794 0.0
C992 C 0.03132 0.16059 0.95945 0.0
C993 C 0.99425 0.19956 0.93862 0.0
C994 C 0.04432 0.10243 0.99914 0.0
C995 C 0.04228 0.11886 0.99291 0.0
C996 C 0.00967 0.14716 0.98495 0.0
C997 C 0.01428 0.18491 0.95501 0.0
C998 C 0.01757 0.16916 0.964 0.0
C999 C 0.02547 0.1214 0.98771 0.0
C1000 C 0.0232 0.13834 0.98013 0.0
H1001 H 0.03633 0.22526 0.94268 0.0
H1002 H 0.04157 0.19982 0.9584 0.0
H1003 H 0.99634 0.16888 0.98091 0.0
H1004 H 0.00119 0.08009 0.99587 0.0
H1005 H 0.99766 0.10865 0.98506 0.0
C1006 C 0.12181 0.80982 0.16366 0.0
C1007 C 0.11923 0.80544 0.14429 0.0
C1008 C 0.13648 0.80667 0.17364 0.0
C1009 C 0.17049 0.77912 0.17171 0.0
H1010 H 0.19457 0.81817 0.21242 0.0
C1011 C 0.23475 0.77595 0.21693 0.0
C1012 C 0.23649 0.78418 0.23566 0.0
C1013 C 0.22054 0.77728 0.20466 0.0
C1014 C 0.1879 0.80693 0.20129 0.0
H1015 H 0.13008 0.79401 0.12023 0.0
H1016 H 0.15573 0.7884 0.13774 0.0
H1017 H 0.16995 0.82308 0.19336 0.0
H1018 H 0.2241 0.79904 0.2564 0.0
H1019 H 0.19937 0.80068 0.23551 0.0
H1020 H 0.1884 0.76284 0.17996 0.0
C1021 C 0.14634 0.79432 0.14518 0.0
C1022 C 0.17377 0.80982 0.19028 0.0
C1023 C 0.13172 0.7977 0.13514 0.0
C1024 C 0.22334 0.79281 0.242 0.0
C1025 C 0.20917 0.7939 0.22992 0.0
C1026 C 0.18464 0.77613 0.18289 0.0
C1027 C 0.14896 0.79888 0.16458 0.0
C1028 C 0.16468 0.7959 0.1755 0.0
C1029 C 0.20777 0.78672 0.21095 0.0
C1030 C 0.19336 0.78991 0.19807 0.0
H1031 H 0.11243 0.81567 0.17118 0.0
H1032 H 0.13792 0.81013 0.18856 0.0
H1033 H 0.16376 0.76806 0.16045 0.0
H1034 H 0.2447 0.76922 0.21166 0.0
H1035 H 0.21993 0.77153 0.19016 0.0
C1036 C 0.50794 0.83614 0.42379 0.0
C1037 C 0.51449 0.82212 0.43077 0.0
C1038 C 0.51011 0.85376 0.43455 0.0
C1039 C 0.52064 0.88071 0.48171 0.0
H1040 H 0.53048 0.92217 0.45474 0.0
C1041 C 0.53663 0.96214 0.51024 0.0
C1042 C 0.52485 0.97087 0.5016 0.0
C1043 C 0.53602 0.94317 0.50422 0.0
C1044 C 0.52781 0.91069 0.46241 0.0
H1045 H 0.52795 0.81499 0.45448 0.0
H1046 H 0.53237 0.84643 0.4734 0.0
H1047 H 0.52917 0.89037 0.43914 0.0
H1048 H 0.50286 0.96672 0.48044 0.0
H1049 H 0.50212 0.93366 0.46967 0.0
H1050 H 0.5195 0.90149 0.50508 0.0
C1051 C 0.52528 0.84361 0.45968 0.0
C1052 C 0.52695 0.89252 0.45351 0.0
C1053 C 0.52278 0.82571 0.44893 0.0
C1054 C 0.51199 0.96026 0.48742 0.0
C1055 C 0.51161 0.94145 0.4812 0.0
C1056 C 0.52177 0.89906 0.49073 0.0
C1057 C 0.51927 0.85789 0.45238 0.0
C1058 C 0.52269 0.87726 0.46285 0.0
C1059 C 0.52385 0.93294 0.48931 0.0
C1060 C 0.52479 0.91399 0.4809 0.0
H1061 H 0.50124 0.8335 0.40989 0.0
H1062 H 0.50478 0.86425 0.42876 0.0
H1063 H 0.51738 0.86921 0.48924 0.0
H1064 H 0.54662 0.97012 0.52124 0.0
H1065 H 0.54557 0.93675 0.51055 0.0
C1066 C 0.50669 0.26754 0.64424 0.0
C1067 C 0.5157 0.28564 0.64245 0.0
C1068 C 0.48927 0.26409 0.64785 0.0
C1069 C 0.45016 0.28521 0.65144 0.0
H1070 H 0.44028 0.25224 0.68724 0.0
C1071 C 0.39503 0.28749 0.69811 0.0
C1072 C 0.38608 0.27079 0.70327 0.0
C1073 C 0.40895 0.28752 0.68751 0.0
C1074 C 0.44263 0.26121 0.67699 0.0
H1075 H 0.51333 0.31418 0.64215 0.0
H1076 H 0.48301 0.30849 0.64945 0.0
H1077 H 0.46793 0.25582 0.67445 0.0
H1078 H 0.38437 0.24083 0.70057 0.0
H1079 H 0.40869 0.24085 0.68197 0.0
H1080 H 0.42495 0.29106 0.65463 0.0
C1081 C 0.48926 0.29676 0.64761 0.0
C1082 C 0.45857 0.26328 0.66957 0.0
C1083 C 0.50668 0.30011 0.64355 0.0
C1084 C 0.39112 0.25398 0.69706 0.0
C1085 C 0.40506 0.25401 0.68639 0.0
C1086 C 0.43421 0.2832 0.65896 0.0
C1087 C 0.48045 0.27877 0.65028 0.0
C1088 C 0.46273 0.27553 0.65689 0.0
C1089 C 0.41435 0.27085 0.68173 0.0
C1090 C 0.43037 0.27143 0.67209 0.0
H1091 H 0.51323 0.256 0.64302 0.0
H1092 H 0.48284 0.24992 0.64913 0.0
H1093 H 0.45268 0.29447 0.64146 0.0
H1094 H 0.39173 0.30075 0.70288 0.0
H1095 H 0.41596 0.30081 0.6845 0.0
C1096 C 0.99089 0.80557 0.59392 0.0
C1097 C 0.99462 0.80504 0.61265 0.0
C1098 C -0.00073 0.82097 0.58656 0.0
C1099 C 0.02943 0.86918 0.60068 0.0
H1100 H 0.03372 0.86146 0.54843 0.0
C1101 C 0.04671 0.93094 0.56305 0.0
C1102 C 0.05108 0.92803 0.54496 0.0
C1103 C 0.04406 0.91624 0.57297 0.0
C1104 C 0.03322 0.86389 0.56317 0.0
H1105 H 0.01005 0.81984 0.63841 0.0
H1106 H 0.02558 0.8456 0.62558 0.0
H1107 H 0.02018 0.83533 0.562 0.0
H1108 H 0.0586 0.90809 0.52413 0.0
H1109 H 0.05582 0.88317 0.54213 0.0
H1110 H 0.04404 0.89725 0.60222 0.0
C1111 C 0.01553 0.83505 0.61652 0.0
C1112 C 0.02483 0.84886 0.57092 0.0
C1113 C 0.00661 0.82013 0.62396 0.0
C1114 C 0.05502 0.91085 0.53796 0.0
C1115 C 0.05303 0.89633 0.54818 0.0
C1116 C 0.03856 0.88396 0.59311 0.0
C1117 C 0.01214 0.83569 0.59766 0.0
C1118 C 0.02223 0.85142 0.58966 0.0
C1119 C 0.04641 0.89843 0.56533 0.0
C1120 C 0.03994 0.8818 0.57409 0.0
H1121 H 0.98173 0.79398 0.58495 0.0
H1122 H 0.99575 0.8211 0.57212 0.0
H1123 H 0.02771 0.87206 0.61512 0.0
H1124 H 0.0443 0.94428 0.56921 0.0
H1125 H 0.03902 0.91873 0.58607 0.0
C1126 C 0.52049 0.79721 0.85158 0.0
C1127 C 0.532 0.81364 0.84876 0.0
C1128 C 0.50298 0.79299 0.84398 0.0
C1129 C 0.47932 0.80019 0.80334 0.0
H1130 H 0.43648 0.78527 0.82511 0.0
C1131 C 0.41347 0.80743 0.77296 0.0
C1132 C 0.39814 0.79535 0.77623 0.0
C1133 C 0.42972 0.80507 0.7796 0.0
C1134 C 0.44838 0.78891 0.81875 0.0
H1135 H 0.5341 0.83963 0.83806 0.0
H1136 H 0.50346 0.83234 0.82496 0.0
H1137 H 0.46476 0.79207 0.84427 0.0
H1138 H 0.38752 0.77016 0.78702 0.0
H1139 H 0.41617 0.76587 0.79858 0.0
H1140 H 0.46319 0.79731 0.77793 0.0
C1141 C 0.50806 0.8225 0.83249 0.0
C1142 C 0.46446 0.79298 0.82975 0.0
C1143 C 0.52552 0.82662 0.83989 0.0
C1144 C 0.39927 0.77979 0.78464 0.0
C1145 C 0.41557 0.77739 0.79127 0.0
C1146 C 0.46334 0.79595 0.79234 0.0
C1147 C 0.49694 0.80526 0.83369 0.0
C1148 C 0.47995 0.79926 0.8222 0.0
C1149 C 0.43087 0.79052 0.78953 0.0
C1150 C 0.44769 0.7909 0.80006 0.0
H1151 H 0.52526 0.78711 0.85859 0.0
H1152 H 0.49451 0.77965 0.84509 0.0
H1153 H 0.49122 0.80457 0.79718 0.0
H1154 H 0.41291 0.81962 0.76666 0.0
H1155 H 0.44126 0.81555 0.77823 0.0
C1156 C 0.5072 0.18768 0.1233 0.0
C1157 C 0.49352 0.19639 0.11936 0.0
C1158 C 0.50915 0.17211 0.11125 0.0
C1159 C 0.49717 0.14839 0.06321 0.0
H1160 H 0.51049 0.10669 0.08215 0.0
C1161 C 0.4977 0.07907 0.01658 0.0
C1162 C 0.51238 0.07184 0.02014 0.0
C1163 C 0.4949 0.09406 0.02892 0.0
C1164 C 0.50689 0.11832 0.07672 0.0
H1165 H 0.47083 0.19561 0.10028 0.0
H1166 H 0.47381 0.16775 0.07944 0.0
H1167 H 0.50633 0.13337 0.10363 0.0
H1168 H 0.53596 0.07457 0.03855 0.0
H1169 H 0.53127 0.10081 0.06007 0.0
H1170 H 0.49772 0.13327 0.03628 0.0
C1171 C 0.48331 0.17332 0.09155 0.0
C1172 C 0.50454 0.13356 0.08897 0.0
C1173 C 0.48154 0.18911 0.10347 0.0
C1174 C 0.52434 0.07969 0.03587 0.0
C1175 C 0.52165 0.09469 0.04814 0.0
C1176 C 0.49945 0.13311 0.05096 0.0
C1177 C 0.49727 0.16486 0.09525 0.0
C1178 C 0.49963 0.14869 0.0823 0.0
C1179 C 0.50692 0.10198 0.04475 0.0
C1180 C 0.50429 0.11798 0.05764 0.0
H1181 H 0.51675 0.19325 0.13538 0.0
H1182 H 0.52019 0.16605 0.11426 0.0
H1183 H 0.49373 0.16009 0.05775 0.0
H1184 H 0.48843 0.07311 0.00434 0.0
H1185 H 0.48336 0.0994 0.02615 0.0
C1186 C 0.14496 0.31642 0.35646 0.0
C1187 C 0.12753 0.3061 0.35303 0.0
C1188 C 0.1564 0.3139 0.34328 0.0
C1189 C 0.1609 0.27931 0.30336 0.0
H1190 H 0.19658 0.32066 0.29389 0.0
C1191 C 0.22093 0.26738 0.2717 0.0
C1192 C 0.23064 0.28102 0.26299 0.0
C1193 C 0.20565 0.27004 0.27857 0.0
C1194 C 0.18637 0.30903 0.29597 0.0
H1195 H 0.10828 0.28501 0.33369 0.0
H1196 H 0.12787 0.28093 0.3108 0.0
H1197 H 0.17592 0.32691 0.31543 0.0
H1198 H 0.23111 0.30701 0.25266 0.0
H1199 H 0.20377 0.31133 0.26408 0.0
H1200 H 0.17064 0.26151 0.28342 0.0
C1201 C 0.13298 0.29072 0.32353 0.0
C1202 C 0.17482 0.31257 0.30865 0.0
C1203 C 0.12171 0.29317 0.33659 0.0
C1204 C 0.22398 0.29649 0.25967 0.0
C1205 C 0.20841 0.29898 0.26627 0.0
C1206 C 0.17205 0.27586 0.29035 0.0
C1207 C 0.15044 0.30099 0.3267 0.0
C1208 C 0.16227 0.29766 0.31277 0.0
C1209 C 0.19952 0.28618 0.2765 0.0
C1210 C 0.18535 0.29054 0.28703 0.0
H1211 H 0.14959 0.32661 0.36903 0.0
H1212 H 0.16987 0.32188 0.34613 0.0
H1213 H 0.15149 0.26745 0.30635 0.0
H1214 H 0.22573 0.25528 0.27445 0.0
H1215 H 0.19941 0.26001 0.28663 0.0
C1216 C 0.93419 0.05581 0.18019 0.0
C1217 C 0.94291 0.05669 0.19793 0.0
C1218 C 0.94286 0.05433 0.16405 0.0
C1219 C 0.98392 0.04201 0.14575 0.0
H1220 H 0.9697 0.06299 0.10363 0.0
C1221 C 0.02463 0.04474 0.08163 0.0
C1222 C 0.01613 0.04321 0.06358 0.0
C1223 C 0.01553 0.04568 0.0975 0.0
C1224 C 0.97385 0.05677 0.11507 0.0
H1225 H 0.96817 0.05669 0.21193 0.0
H1226 H 0.98313 0.05407 0.18421 0.0
H1227 H 0.95498 0.06634 0.1314 0.0
H1228 H 0.99099 0.04219 0.04891 0.0
H1229 H 0.9752 0.04406 0.07628 0.0
H1230 H 0.00283 0.03251 0.12948 0.0
C1231 C 0.96942 0.05439 0.18257 0.0
C1232 C 0.96527 0.05871 0.13127 0.0
C1233 C 0.96078 0.05605 0.19873 0.0
C1234 C 0.99807 0.0429 0.0623 0.0
C1235 C 0.989 0.04424 0.07824 0.0
C1236 C 0.99252 0.04011 0.12958 0.0
C1237 C 0.96072 0.05344 0.16473 0.0
C1238 C 0.97006 0.05141 0.14711 0.0
C1239 C 0.99747 0.04569 0.09633 0.0
C1240 C 0.98779 0.04746 0.11376 0.0
H1241 H 0.9205 0.05625 0.17871 0.0
H1242 H 0.93532 0.05349 0.1509 0.0
H1243 H 0.98807 0.03574 0.15714 0.0
H1244 H 0.03855 0.04539 0.08356 0.0
H1245 H 0.02291 0.04701 0.11086 0.0
C1246 C 0.28953 0.68927 0.457 0.0
C1247 C 0.28346 0.67107 0.46044 0.0
C1248 C 0.28058 0.69558 0.44303 0.0
C1249 C 0.24241 0.67978 0.40544 0.0
H1250 H 0.24623 0.73348 0.41302 0.0
C1251 C 0.23009 0.7169 0.34732 0.0
C1252 C 0.23148 0.73636 0.35136 0.0
C1253 C 0.22867 0.70635 0.36138 0.0
C1254 C 0.24437 0.71835 0.41089 0.0
H1255 H 0.26372 0.64495 0.45194 0.0
H1256 H 0.24745 0.65622 0.42906 0.0
H1257 H 0.26151 0.72049 0.43527 0.0
H1258 H 0.22831 0.75917 0.37217 0.0
H1259 H 0.22406 0.74036 0.39621 0.0
H1260 H 0.22405 0.6775 0.3819 0.0
C1261 C 0.25952 0.66551 0.43602 0.0
C1262 C 0.25378 0.71092 0.42345 0.0
C1263 C 0.26893 0.65897 0.44925 0.0
C1264 C 0.22777 0.74428 0.36869 0.0
C1265 C 0.22566 0.73353 0.38262 0.0
C1266 C 0.23235 0.68711 0.39334 0.0
C1267 C 0.26488 0.68409 0.43305 0.0
C1268 C 0.25363 0.69167 0.42042 0.0
C1269 C 0.22802 0.71503 0.37959 0.0
C1270 C 0.23398 0.70662 0.39527 0.0
H1271 H 0.30068 0.69881 0.46558 0.0
H1272 H 0.28563 0.70971 0.44064 0.0
H1273 H 0.24176 0.66485 0.40246 0.0
H1274 H 0.23208 0.71024 0.33378 0.0
H1275 H 0.23014 0.69205 0.35814 0.0
C1276 C 0.61425 0.03685 0.68996 0.0
C1277 C 0.63241 0.04303 0.68997 0.0
C1278 C 0.60285 0.03954 0.67594 0.0
C1279 C 0.59664 0.06028 0.63558 0.0
H1280 H 0.57377 0.00886 0.61272 0.0
C1281 C 0.56279 0.04273 0.56225 0.0
C1282 C 0.5459 0.03105 0.55975 0.0
C1283 C 0.57366 0.04442 0.57842 0.0
C1284 C 0.57988 0.02326 0.61906 0.0
H1285 H 0.65294 0.05851 0.6766 0.0
H1286 H 0.63271 0.06237 0.65121 0.0
H1287 H 0.59122 0.01488 0.64265 0.0
H1288 H 0.52725 0.01116 0.57124 0.0
H1289 H 0.54616 0.01458 0.60002 0.0
H1290 H 0.58516 0.06866 0.61198 0.0
C1291 C 0.62748 0.05576 0.66232 0.0
C1292 C 0.58978 0.02671 0.6361 0.0
C1293 C 0.63898 0.05326 0.67657 0.0
C1294 C 0.54021 0.02038 0.5731 0.0
C1295 C 0.55104 0.02224 0.58942 0.0
C1296 C 0.58655 0.05684 0.61855 0.0
C1297 C 0.60949 0.04808 0.6616 0.0
C1298 C 0.5982 0.04519 0.64437 0.0
C1299 C 0.56762 0.03468 0.59232 0.0
C1300 C 0.57824 0.03829 0.61018 0.0
H1301 H 0.60877 0.02926 0.70035 0.0
H1302 H 0.58893 0.03371 0.67555 0.0
H1303 H 0.60316 0.07458 0.64188 0.0
H1304 H 0.56745 0.05096 0.55197 0.0
H1305 H 0.58659 0.05371 0.58026 0.0
C1306 C 0.26929 0.34904 0.95566 0.0
C1307 C 0.28423 0.35471 0.96873 0.0
C1308 C 0.27003 0.33881 0.93832 0.0
C1309 C 0.29954 0.33666 0.90473 0.0
H1310 H 0.26895 0.28894 0.88122 0.0
C1311 C 0.30535 0.30281 0.83053 0.0
C1312 C 0.28946 0.29499 0.81917 0.0
C1313 C 0.30543 0.30817 0.84954 0.0
C1314 C 0.27749 0.30236 0.88753 0.0
H1315 H 0.3115 0.3541 0.97436 0.0
H1316 H 0.31298 0.33672 0.94368 0.0
H1317 H 0.26698 0.30156 0.91337 0.0
H1318 H 0.26127 0.28592 0.81887 0.0
H1319 H 0.2614 0.2955 0.8517 0.0
H1320 H 0.30948 0.33812 0.87881 0.0
C1321 C 0.30064 0.33978 0.94704 0.0
C1322 C 0.27639 0.30947 0.90592 0.0
C1323 C 0.29976 0.34953 0.96454 0.0
C1324 C 0.27375 0.29205 0.82722 0.0
C1325 C 0.27383 0.29738 0.84613 0.0
C1326 C 0.30045 0.32973 0.88627 0.0
C1327 C 0.28588 0.33468 0.93373 0.0
C1328 C 0.28742 0.32665 0.91461 0.0
C1329 C 0.28962 0.30572 0.8575 0.0
C1330 C 0.28939 0.31252 0.87742 0.0
H1331 H 0.25726 0.35312 0.95863 0.0
H1332 H 0.25854 0.33507 0.92817 0.0
H1333 H 0.30797 0.35012 0.91116 0.0
H1334 H 0.31765 0.30525 0.8247 0.0
H1335 H 0.31784 0.31434 0.85798 0.0
C1336 C 0.95069 0.06456 0.32353 0.0
C1337 C 0.9526 0.05147 0.30821 0.0
C1338 C 0.95847 0.06437 0.34163 0.0
C1339 C 0.99223 0.04317 0.36641 0.0
H1340 H 0.97188 0.05899 0.41036 0.0
C1341 C 0.01417 0.02538 0.4382 0.0
C1342 C 0.01579 0.03903 0.45424 0.0
C1343 C 0.0069 0.02797 0.42088 0.0
C1344 C 0.97788 0.0546 0.39827 0.0
H1345 H 0.96405 0.02751 0.30079 0.0
H1346 H 0.97663 0.02685 0.33132 0.0
H1347 H 0.95853 0.06179 0.38008 0.0
H1348 H 0.01067 0.06626 0.46414 0.0
H1349 H 0.99779 0.07059 0.4342 0.0
H1350 H 0.01131 0.03561 0.38452 0.0
C1351 C 0.96983 0.03784 0.3297 0.0
C1352 C 0.97018 0.05628 0.38072 0.0
C1353 C 0.9623 0.03814 0.31186 0.0
C1354 C 0.00975 0.05536 0.45225 0.0
C1355 C 0.0022 0.05781 0.43498 0.0
C1356 C -0.00026 0.04127 0.38385 0.0
C1357 C 0.96836 0.05102 0.34509 0.0
C1358 C 0.97705 0.05039 0.3643 0.0
C1359 C 0.00065 0.04419 0.41889 0.0
C1360 C 0.99268 0.04679 0.40018 0.0
H1361 H 0.94339 0.07509 0.32155 0.0
H1362 H 0.95692 0.07492 0.35286 0.0
H1363 H -0.00143 0.03899 0.35453 0.0
H1364 H 0.01859 0.0126 0.43897 0.0
H1365 H 0.00589 0.017 0.40905 0.0
C1366 C 0.27286 0.69221 0.5686 0.0
C1367 C 0.27056 0.67291 0.56888 0.0
C1368 C 0.27159 0.70452 0.58441 0.0
C1369 C 0.25646 0.70674 0.63053 0.0
H1370 H 0.29323 0.75253 0.64213 0.0
C1371 C 0.27756 0.7494 0.70338 0.0
C1372 C 0.28258 0.76908 0.70556 0.0
C1373 C 0.27316 0.7385 0.68586 0.0
C1374 C 0.28266 0.74001 0.63892 0.0
H1375 H 0.2648 0.6512 0.58566 0.0
H1376 H 0.26329 0.67289 0.61358 0.0
H1377 H 0.29114 0.73154 0.61294 0.0
H1378 H 0.28634 0.79297 0.69142 0.0
H1379 H 0.27847 0.77381 0.66051 0.0
H1380 H 0.2484 0.71502 0.65691 0.0
C1381 C 0.26566 0.67843 0.60104 0.0
C1382 C 0.28147 0.72797 0.62221 0.0
C1383 C 0.26671 0.66606 0.58514 0.0
C1384 C 0.28258 0.77779 0.69001 0.0
C1385 C 0.27813 0.76686 0.67241 0.0
C1386 C 0.25768 0.7188 0.6473 0.0
C1387 C 0.26825 0.6978 0.60084 0.0
C1388 C 0.26851 0.71111 0.61797 0.0
C1389 C 0.27365 0.74712 0.67021 0.0
C1390 C 0.27096 0.7354 0.65172 0.0
H1391 H 0.27545 0.69778 0.55612 0.0
H1392 H 0.2733 0.71934 0.58378 0.0
H1393 H 0.2462 0.69394 0.62748 0.0
H1394 H 0.27748 0.74233 0.7152 0.0
H1395 H 0.27005 0.72332 0.68457 0.0
C1396 C 0.62456 0.03246 0.80355 0.0
C1397 C 0.63158 0.04418 0.79157 0.0
C1398 C 0.62238 0.04033 0.82137 0.0
C1399 C 0.6165 0.08473 0.84743 0.0
H1400 H 0.62114 0.05877 0.88862 0.0
C1401 C 0.5745 0.08422 0.90553 0.0
C1402 C 0.58012 0.07753 0.92118 0.0
C1403 C 0.58602 0.08846 0.89264 0.0
C1404 C 0.62025 0.06662 0.87749 0.0
H1405 H 0.64203 0.07294 0.78829 0.0
H1406 H 0.63824 0.08672 0.81932 0.0
H1407 H 0.63105 0.04757 0.85977 0.0
H1408 H 0.60258 0.07358 0.93773 0.0
H1409 H 0.62301 0.08188 0.91557 0.0
H1410 H 0.60551 0.10368 0.86518 0.0
C1411 C 0.63438 0.07158 0.81517 0.0
C1412 C 0.6256 0.05989 0.8608 0.0
C1413 C 0.63671 0.0637 0.79752 0.0
C1414 C 0.59798 0.0784 0.9255 0.0
C1415 C 0.60959 0.08301 0.91277 0.0
C1416 C 0.61131 0.0916 0.86423 0.0
C1417 C 0.62698 0.06001 0.82721 0.0
C1418 C 0.62327 0.06851 0.84545 0.0
C1419 C 0.60327 0.08622 0.89546 0.0
C1420 C 0.61263 0.08226 0.87928 0.0
H1421 H 0.62055 0.01736 0.79904 0.0
H1422 H 0.61648 0.03106 0.8303 0.0
H1423 H 0.61441 0.09161 0.83579 0.0
H1424 H 0.56075 0.08375 0.90206 0.0
H1425 H 0.58071 0.09107 0.87955 0.0
C1426 C 0.29368 0.34002 0.07854 0.0
C1427 C 0.28941 0.35755 0.0788 0.0
C1428 C 0.29232 0.3312 0.09403 0.0
C1429 C 0.2706 0.33058 0.13666 0.0
H1430 H 0.30767 0.30781 0.1533 0.0
C1431 C 0.26444 0.28764 0.19566 0.0
C1432 C 0.27936 0.28963 0.20823 0.0
C1433 C 0.26562 0.29585 0.17987 0.0
C1434 C 0.29727 0.31424 0.14893 0.0
H1435 H 0.27989 0.37931 0.09522 0.0
H1436 H 0.27733 0.3639 0.12209 0.0
H1437 H 0.30956 0.32186 0.12547 0.0
H1438 H 0.30723 0.30184 0.21431 0.0
H1439 H 0.30936 0.31631 0.18663 0.0
H1440 H 0.25849 0.32341 0.16026 0.0
C1441 C 0.28182 0.35697 0.11002 0.0
C1442 C 0.29824 0.32206 0.13283 0.0
C1443 C 0.28345 0.3659 0.09469 0.0
C1444 C 0.2955 0.30018 0.20485 0.0
C1445 C 0.29673 0.30829 0.18892 0.0
C1446 C 0.26962 0.32276 0.15271 0.0
C1447 C 0.28633 0.33957 0.10995 0.0
C1448 C 0.28497 0.33044 0.12657 0.0
C1449 C 0.28179 0.30616 0.17619 0.0
C1450 C 0.28297 0.31455 0.15911 0.0
H1451 H 0.29828 0.33325 0.06645 0.0
H1452 H 0.29576 0.31773 0.09347 0.0
H1453 H 0.26005 0.33672 0.13213 0.0
H1454 H 0.25183 0.27955 0.19795 0.0
H1455 H 0.25388 0.29372 0.17031 0.0
C1456 C 0.2356 0.94386 0.99382 0.0
C1457 C 0.25015 0.94535 0.00658 0.0
C1458 C 0.22088 0.94936 0.99978 0.0
C1459 C 0.20692 0.97812 0.03835 0.0
H1460 H 0.16087 0.95231 0.01328 0.0
C1461 C 0.14458 0.00453 0.05163 0.0
C1462 C 0.13622 0.00741 0.03511 0.0
C1463 C 0.15725 0.99394 0.0511 0.0
C1464 C 0.17365 0.95946 0.02054 0.0
H1465 H 0.26105 0.95302 0.03535 0.0
H1466 H 0.235 0.9618 0.04598 0.0
H1467 H 0.18609 0.93946 0.0065 0.0
H1468 H 0.1345 1.00171 0.00522 0.0
H1469 H 0.15641 0.98315 0.00433 0.0
H1470 H 0.19441 0.99835 0.05206 0.0
C1471 C 0.23505 0.95711 0.03136 0.0
C1472 C 0.18807 0.95226 0.01655 0.0
C1473 C 0.24991 0.95209 0.02532 0.0
C1474 C 0.14048 0.99935 0.01814 0.0
C1475 C 0.15298 0.98872 0.01762 0.0
C1476 C 0.19244 0.98522 0.04248 0.0
C1477 C 0.22042 0.95586 0.01865 0.0
C1478 C 0.20492 0.96192 0.02488 0.0
C1479 C 0.16152 0.98604 0.03406 0.0
C1480 C 0.17585 0.97632 0.03304 0.0
H1481 H 0.23574 0.93873 0.97929 0.0
H1482 H 0.20996 0.94871 0.9896 0.0
H1483 H 0.21976 0.98594 0.04493 0.0
H1484 H 0.14137 0.01051 0.06488 0.0
H1485 H 0.16379 0.99203 0.06392 0.0
C1486 C 0.71572 0.6287 0.98434 0.0
C1487 C 0.72006 0.64833 0.98998 0.0
C1488 C 0.69924 0.61803 0.98643 0.0
C1489 C 0.66148 0.61711 0.01265 0.0
H1490 H 0.63623 0.58146 0.96994 0.0
C1491 C 0.58953 0.57462 0.01194 0.0
C1492 C 0.58432 0.55678 0.0007 0.0
C1493 C 0.60615 0.58621 0.01152 0.0
C1494 C 0.64314 0.59101 0.98219 0.0
H1495 H 0.71056 0.67211 0.00262 0.0
H1496 H 0.68176 0.65336 0.00646 0.0
H1497 H 0.66499 0.60048 0.96783 0.0
H1498 H 0.59274 0.53662 0.98106 0.0
H1499 H 0.62177 0.55608 0.98107 0.0
H1500 H 0.63986 0.60727 0.02723 0.0
C1501 C 0.69115 0.64629 0.00034 0.0
C1502 C 0.65965 0.60206 0.98089 0.0
C1503 C 0.70758 0.65703 0.998 0.0
C1504 C 0.59623 0.55047 0.98959 0.0
C1505 C 0.61291 0.56178 0.98951 0.0
C1506 C 0.64501 0.60578 0.01408 0.0
C1507 C 0.68675 0.62667 0.99445 0.0
C1508 C 0.66905 0.61521 0.99607 0.0
C1509 C 0.61807 0.58002 0.00014 0.0
C1510 C 0.63559 0.59246 0.99887 0.0
H1511 H 0.72505 0.62154 0.97822 0.0
H1512 H 0.6963 0.60293 0.9819 0.0
H1513 H 0.66847 0.62707 0.02463 0.0
H1514 H 0.58061 0.5798 0.02069 0.0
H1515 H 0.60944 0.60016 0.01981 0.0
C1516 C 0.67459 0.43742 0.26621 0.0
C1517 C 0.6824 0.45478 0.26118 0.0
C1518 C 0.68298 0.42205 0.2651 0.0
C1519 C 0.72135 0.40386 0.24514 0.0
H1520 H 0.71131 0.36767 0.2778 0.0
C1521 C 0.76361 0.34693 0.25159 0.0
C1522 C 0.7558 0.32893 0.25523 0.0
C1523 C 0.75431 0.36145 0.25154 0.0
C1524 C 0.71428 0.37741 0.26833 0.0
H1525 H 0.70565 0.46867 0.25064 0.0
H1526 H 0.72007 0.4424 0.24866 0.0
H1527 H 0.69652 0.39356 0.27924 0.0
H1528 H 0.73139 0.31281 0.26176 0.0
H1529 H 0.71544 0.33799 0.26213 0.0
H1530 H 0.7393 0.38779 0.23443 0.0
C1531 C 0.70732 0.44041 0.25349 0.0
C1532 C 0.70562 0.39255 0.26915 0.0
C1533 C 0.69899 0.45582 0.25478 0.0
C1534 C 0.73811 0.32625 0.25883 0.0
C1535 C 0.7289 0.34094 0.25917 0.0
C1536 C 0.73009 0.38881 0.24442 0.0
C1537 C 0.69964 0.42303 0.25871 0.0
C1538 C 0.7089 0.40633 0.25762 0.0
C1539 C 0.73673 0.35901 0.25552 0.0
C1540 C 0.72689 0.37515 0.25604 0.0
H1541 H 0.66187 0.43566 0.27116 0.0
H1542 H 0.67612 0.40922 0.26909 0.0
H1543 H 0.72432 0.4135 0.23559 0.0
H1544 H 0.77709 0.34988 0.24871 0.0
H1545 H 0.7612 0.37488 0.24876 0.0
C1546 C 0.86296 0.44276 0.53062 0.0
C1547 C 0.85344 0.43371 0.51357 0.0
C1548 C 0.88094 0.4497 0.5317 0.0
C1549 C 0.89995 0.47504 0.50068 0.0
H1550 H 0.94241 0.48984 0.53501 0.0
C1551 C 0.96505 0.51835 0.49049 0.0
C1552 C 0.97657 0.52708 0.50642 0.0
C1553 C 0.94754 0.51104 0.49199 0.0
C1554 C 0.93037 0.4861 0.52565 0.0
H1555 H 0.85518 0.42093 0.48553 0.0
H1556 H 0.88659 0.43377 0.48728 0.0
H1557 H 0.92082 0.46112 0.53663 0.0
H1558 H 0.97841 0.53885 0.53557 0.0
H1559 H 0.94786 0.52558 0.53819 0.0
H1560 H 0.90932 0.50004 0.48979 0.0
C1561 C 0.88027 0.43551 0.49972 0.0
C1562 C 0.91834 0.46947 0.5263 0.0
C1563 C 0.86231 0.42831 0.4987 0.0
C1564 C 0.96987 0.53148 0.52318 0.0
C1565 C 0.95238 0.52407 0.52469 0.0
C1566 C 0.91189 0.4917 0.5001 0.0
C1567 C 0.88915 0.44794 0.51562 0.0
C1568 C 0.90322 0.46372 0.51362 0.0
C1569 C 0.94165 0.51229 0.50946 0.0
C1570 C 0.92727 0.49724 0.51245 0.0
H1571 H 0.8563 0.4465 0.54241 0.0
H1572 H 0.8877 0.45901 0.5442 0.0
H1573 H 0.88795 0.4712 0.49125 0.0
H1574 H 0.96983 0.51546 0.47726 0.0
H1575 H 0.93937 0.50226 0.47996 0.0
C1576 C 0.38762 0.08565 0.28645 0.0
C1577 C 0.3795 0.06653 0.28076 0.0
C1578 C 0.381 0.09922 0.27904 0.0
C1579 C 0.35456 0.1035 0.2373 0.0
H1580 H 0.35647 0.15311 0.26473 0.0
C1581 C 0.31291 0.15412 0.22087 0.0
C1582 C 0.32001 0.17341 0.22703 0.0
C1583 C 0.32337 0.14134 0.22224 0.0
C1584 C 0.3563 0.13947 0.25676 0.0
H1585 H 0.35693 0.04668 0.26469 0.0
H1586 H 0.34484 0.07061 0.25241 0.0
H1587 H 0.36587 0.12996 0.28053 0.0
H1588 H 0.34395 0.1948 0.23661 0.0
H1589 H 0.36221 0.17234 0.23929 0.0
H1590 H 0.34397 0.11294 0.21373 0.0
C1591 C 0.35677 0.07498 0.26194 0.0
C1592 C 0.36154 0.12617 0.26586 0.0
C1593 C 0.3635 0.06134 0.26926 0.0
C1594 C 0.33813 0.17992 0.23225 0.0
C1595 C 0.34857 0.16714 0.23365 0.0
C1596 C 0.34909 0.11681 0.22821 0.0
C1597 C 0.36596 0.09391 0.26609 0.0
C1598 C 0.36049 0.10799 0.2563 0.0
C1599 C 0.34097 0.14777 0.22986 0.0
C1600 C 0.34973 0.1348 0.23797 0.0
H1601 H 0.39995 0.09004 0.29537 0.0
H1602 H 0.38837 0.11371 0.28254 0.0
H1603 H 0.35402 0.0897 0.22949 0.0
H1604 H 0.29898 0.14874 0.21676 0.0
H1605 H 0.31722 0.12644 0.21927 0.0
C1606 C 0.32927 0.15269 0.52565 0.0
C1607 C 0.32263 0.15313 0.50756 0.0
C1608 C 0.3457 0.14898 0.52939 0.0
C1609 C 0.38595 0.1413 0.50815 0.0
H1610 H 0.38758 0.11044 0.54591 0.0
C1611 C 0.44459 0.10733 0.52088 0.0
C1612 C 0.4403 0.08873 0.52413 0.0
C1613 C 0.43209 0.11825 0.52148 0.0
C1614 C 0.38737 0.11892 0.53521 0.0
H1615 H 0.32813 0.1509 0.47922 0.0
H1616 H 0.35655 0.14323 0.48543 0.0
H1617 H 0.36244 0.12352 0.54082 0.0
H1618 H 0.41962 0.06716 0.53087 0.0
H1619 H 0.39787 0.0858 0.53148 0.0
H1620 H 0.41034 0.13528 0.5016 0.0
C1621 C 0.34936 0.14632 0.49694 0.0
C1622 C 0.37299 0.1268 0.53249 0.0
C1623 C 0.33302 0.1506 0.49328 0.0
C1624 C 0.42346 0.08153 0.52858 0.0
C1625 C 0.41095 0.09232 0.52897 0.0
C1626 C 0.40022 0.13307 0.51064 0.0
C1627 C 0.35572 0.14495 0.51501 0.0
C1628 C 0.3719 0.13792 0.51875 0.0
C1629 C 0.41496 0.11075 0.52516 0.0
C1630 C 0.40095 0.12143 0.52396 0.0
H1631 H 0.32159 0.15496 0.53695 0.0
H1632 H 0.35031 0.14884 0.54357 0.0
H1633 H 0.38583 0.15005 0.49768 0.0
H1634 H 0.45755 0.11334 0.51763 0.0
H1635 H 0.43582 0.13249 0.51883 0.0
C1636 C 0.67692 0.58507 0.25141 0.0
C1637 C 0.68163 0.57373 0.26386 0.0
C1638 C 0.68702 0.60331 0.25122 0.0
C1639 C 0.72119 0.64363 0.28032 0.0
H1640 H 0.72369 0.66326 0.23464 0.0
C1641 C 0.76811 0.7162 0.27665 0.0
C1642 C 0.7639 0.72754 0.26402 0.0
C1643 C 0.75753 0.69822 0.27695 0.0
C1644 C 0.72301 0.65828 0.24765 0.0
H1645 H 0.70131 0.57345 0.28597 0.0
H1646 H 0.71892 0.60533 0.28583 0.0
H1647 H 0.70778 0.63097 0.23435 0.0
H1648 H 0.74478 0.72812 0.24148 0.0
H1649 H 0.72623 0.69671 0.24188 0.0
H1650 H 0.73637 0.67091 0.29364 0.0
C1651 C 0.70722 0.59999 0.27606 0.0
C1652 C 0.7138 0.63948 0.2475 0.0
C1653 C 0.69718 0.58146 0.27604 0.0
C1654 C 0.74838 0.72015 0.25172 0.0
C1655 C 0.73784 0.70187 0.2518 0.0
C1656 C 0.73038 0.66242 0.28049 0.0
C1657 C 0.70231 0.61142 0.26368 0.0
C1658 C 0.71266 0.63164 0.26383 0.0
C1659 C 0.74228 0.69036 0.26434 0.0
C1660 C 0.73161 0.67024 0.26415 0.0
H1661 H 0.66512 0.57987 0.24174 0.0
H1662 H 0.6824 0.6113 0.24154 0.0
H1663 H 0.72053 0.63863 0.29333 0.0
H1664 H 0.78003 0.72111 0.28618 0.0
H1665 H 0.76184 0.69016 0.28672 0.0
C1666 C 0.89572 0.45146 0.74733 0.0
C1667 C 0.90131 0.46378 0.76414 0.0
C1668 C 0.8829 0.43504 0.74665 0.0
C1669 C 0.84561 0.42193 0.77116 0.0
H1670 H 0.83779 0.37388 0.73856 0.0
C1671 C 0.79624 0.35465 0.77407 0.0
C1672 C 0.79176 0.34149 0.75761 0.0
C1673 C 0.8055 0.37283 0.77372 0.0
C1674 C 0.83967 0.38747 0.74737 0.0
H1675 H 0.90029 0.46798 0.79365 0.0
H1676 H 0.8783 0.43887 0.7926 0.0
H1677 H 0.86624 0.39577 0.74202 0.0
H1678 H 0.78945 0.3378 0.7277 0.0
H1679 H 0.8057 0.36961 0.72715 0.0
H1680 H 0.81912 0.41339 0.77683 0.0
C1681 C 0.88321 0.44211 0.77991 0.0
C1682 C 0.85601 0.39981 0.74954 0.0
C1683 C 0.89576 0.45863 0.78053 0.0
C1684 C 0.79349 0.34757 0.74063 0.0
C1685 C 0.80265 0.36576 0.74029 0.0
C1686 C 0.82927 0.40955 0.76904 0.0
C1687 C 0.87584 0.43091 0.76282 0.0
C1688 C 0.85912 0.4171 0.7615 0.0
C1689 C 0.81017 0.37778 0.75691 0.0
C1690 C 0.8262 0.39225 0.75712 0.0
H1691 H 0.89999 0.45534 0.7346 0.0
H1692 H 0.87744 0.42656 0.73331 0.0
H1693 H 0.84758 0.43542 0.78015 0.0
H1694 H 0.79453 0.35042 0.78734 0.0
H1695 H 0.81094 0.38201 0.78673 0.0
C1696 C 0.05157 0.84811 0.06889 0.0
C1697 C 0.0639 0.85219 0.08471 0.0
C1698 C 0.04832 0.86251 0.05981 0.0
C1699 C 0.06827 0.90878 0.05093 0.0
H1700 H 0.0214 0.91735 0.04527 0.0
C1701 C 0.05691 0.97829 0.03344 0.0
C1702 C 0.04125 0.97879 0.02317 0.0
C1703 C 0.05918 0.96177 0.03913 0.0
C1704 C 0.03451 0.91499 0.04634 0.0
H1705 H 0.0828 0.87436 0.10317 0.0
H1706 H 0.07767 0.89947 0.08678 0.0
H1707 H 0.02642 0.89022 0.05824 0.0
H1708 H 0.01564 0.96214 0.0107 0.0
H1709 H 0.01983 0.93297 0.02008 0.0
H1710 H 0.07646 0.93303 0.03867 0.0
C1711 C 0.07032 0.88517 0.08165 0.0
C1712 C 0.03737 0.89949 0.05389 0.0
C1713 C 0.07321 0.87086 0.09104 0.0
C1714 C 0.0279 0.96222 0.01855 0.0
C1715 C 0.03027 0.94553 0.02408 0.0
C1716 C 0.06538 0.92401 0.04305 0.0
C1717 C 0.05772 0.88116 0.06608 0.0
C1718 C 0.05435 0.89652 0.05661 0.0
C1719 C 0.04595 0.9451 0.03452 0.0
C1720 C 0.04855 0.92765 0.04109 0.0
H1721 H 0.04413 0.83383 0.06381 0.0
H1722 H 0.03858 0.85908 0.04781 0.0
H1723 H 0.08144 0.9066 0.05264 0.0
H1724 H 0.06743 0.99079 0.03747 0.0
H1725 H 0.07125 0.96228 0.04755 0.0
C1726 C 0.93965 0.25167 0.86423 0.0
C1727 C 0.95338 0.26758 0.87049 0.0
C1728 C 0.92328 0.25368 0.85665 0.0
C1729 C 0.90415 0.28807 0.83438 0.0
H1730 H 0.85991 0.25386 0.83678 0.0
C1731 C 0.83822 0.29549 0.79756 0.0
C1732 C 0.82797 0.27864 0.78702 0.0
C1733 C 0.85259 0.2952 0.8101 0.0
C1734 C 0.87217 0.26353 0.83595 0.0
H1735 H 0.96058 0.29799 0.87479 0.0
H1736 H 0.93212 0.30158 0.86242 0.0
H1737 H 0.88648 0.25098 0.85452 0.0
H1738 H 0.8242 0.24835 0.78187 0.0
H1739 H 0.84878 0.24777 0.80384 0.0
H1740 H 0.88984 0.30049 0.81568 0.0
C1741 C 0.93391 0.28751 0.86268 0.0
C1742 C 0.88746 0.26183 0.84608 0.0
C1743 C 0.95019 0.28547 0.87 0.0
C1744 C 0.83187 0.26155 0.78982 0.0
C1745 C 0.84594 0.26122 0.8025 0.0
C1746 C 0.88886 0.28983 0.82435 0.0
C1747 C 0.92035 0.27165 0.8553 0.0
C1748 C 0.90374 0.27394 0.84531 0.0
C1749 C 0.85673 0.27802 0.81258 0.0
C1750 C 0.87269 0.27741 0.82478 0.0
H1751 H 0.94184 0.23771 0.86424 0.0
H1752 H 0.91325 0.2411 0.85103 0.0
H1753 H 0.91641 0.29747 0.83306 0.0
H1754 H 0.8356 0.30889 0.79556 0.0
H1755 H 0.86057 0.3084 0.81772 0.0
C1756 C 0.56223 0.24107 0.56913 0.0
C1757 C 0.55941 0.24193 0.58774 0.0
C1758 C 0.55836 0.22365 0.5572 0.0
C1759 C 0.53368 0.17418 0.55283 0.0
H1760 H 0.57131 0.16176 0.5263 0.0
C1761 C 0.52868 0.09924 0.51569 0.0
C1762 C 0.54345 0.09187 0.51898 0.0
C1763 C 0.52978 0.11844 0.52033 0.0
C1764 C 0.56069 0.16505 0.53363 0.0
H1765 H 0.54937 0.22564 0.60822 0.0
H1766 H 0.54264 0.19559 0.58761 0.0
H1767 H 0.57356 0.19424 0.54113 0.0
H1768 H 0.57114 0.09898 0.52912 0.0
H1769 H 0.573 0.13267 0.53752 0.0
H1770 H 0.52126 0.14497 0.54638 0.0
C1771 C 0.54786 0.20815 0.58212 0.0
C1772 C 0.56186 0.18367 0.54187 0.0
C1773 C 0.55193 0.22536 0.59399 0.0
C1774 C 0.55953 0.10423 0.52642 0.0
C1775 C 0.56062 0.12353 0.53111 0.0
C1776 C 0.53253 0.15563 0.54466 0.0
C1777 C 0.55129 0.20703 0.56369 0.0
C1778 C 0.54859 0.18828 0.55201 0.0
C1779 C 0.54565 0.13076 0.52844 0.0
C1780 C 0.5462 0.15079 0.53533 0.0
H1781 H 0.56791 0.2537 0.56398 0.0
H1782 H 0.56104 0.22315 0.543 0.0
H1783 H 0.52318 0.17738 0.56042 0.0
H1784 H 0.51608 0.09015 0.50986 0.0
H1785 H 0.51808 0.1236 0.51783 0.0
C1786 C 0.55786 0.76265 0.36487 0.0
C1787 C 0.55662 0.76916 0.38347 0.0
C1788 C 0.57373 0.7673 0.35759 0.0
C1789 C 0.61642 0.80061 0.36279 0.0
H1790 H 0.62998 0.75822 0.33496 0.0
C1791 C 0.68235 0.8057 0.32953 0.0
C1792 C 0.68114 0.79381 0.31246 0.0
C1793 C 0.66781 0.80449 0.33954 0.0
C1794 C 0.62634 0.77031 0.34246 0.0
H1795 H 0.571 0.78623 0.40893 0.0
H1796 H 0.59884 0.79441 0.39606 0.0
H1797 H 0.60339 0.75299 0.34971 0.0
H1798 H 0.66379 0.77241 0.29187 0.0
H1799 H 0.63846 0.77074 0.30874 0.0
H1800 H 0.63932 0.81799 0.35502 0.0
C1801 C 0.58746 0.78566 0.38719 0.0
C1802 C 0.6111 0.76726 0.35099 0.0
C1803 C 0.57157 0.78083 0.39456 0.0
C1804 C 0.6651 0.78144 0.30517 0.0
C1805 C 0.65064 0.78043 0.31494 0.0
C1806 C 0.63171 0.80373 0.354 0.0
C1807 C 0.58874 0.77871 0.36868 0.0
C1808 C 0.60575 0.78235 0.36094 0.0
C1809 C 0.65187 0.79149 0.3325 0.0
C1810 C 0.63662 0.7886 0.34335 0.0
H1811 H 0.54659 0.7538 0.35592 0.0
H1812 H 0.57428 0.76191 0.34321 0.0
H1813 H 0.61262 0.81251 0.37045 0.0
H1814 H 0.69462 0.81544 0.33535 0.0
H1815 H 0.66924 0.81326 0.35299 0.0
C1816 C 0.06534 0.24473 0.39651 0.0
C1817 C 0.06938 0.2621 0.40862 0.0
C1818 C 0.05761 0.2283 0.40253 0.0
C1819 C 0.03128 0.21107 0.43745 0.0
H1820 H 0.05168 0.16774 0.42838 0.0
C1821 C 0.02307 0.15395 0.48174 0.0
C1822 C 0.02356 0.13553 0.47406 0.0
C1823 C 0.02477 0.16793 0.47094 0.0
C1824 C 0.04551 0.17951 0.43063 0.0
H1825 H 0.06865 0.27599 0.4365 0.0
H1826 H 0.05507 0.24707 0.44713 0.0
H1827 H 0.06318 0.19554 0.41534 0.0
H1828 H 0.02481 0.11691 0.44871 0.0
H1829 H 0.0278 0.14147 0.42973 0.0
H1830 H 0.01376 0.19518 0.45295 0.0
C1831 C 0.05782 0.24629 0.43293 0.0
C1832 C 0.05219 0.19547 0.42328 0.0
C1833 C 0.06575 0.26275 0.42695 0.0
C1834 C 0.02471 0.13109 0.45506 0.0
C1835 C 0.0264 0.14512 0.44422 0.0
C1836 C 0.02448 0.19505 0.44467 0.0
C1837 C 0.05363 0.22897 0.42073 0.0
C1838 C 0.04545 0.21155 0.42706 0.0
C1839 C 0.02698 0.16379 0.4522 0.0
C1840 C 0.03188 0.17932 0.4418 0.0
H1841 H 0.06801 0.24383 0.38228 0.0
H1842 H 0.05446 0.21512 0.39286 0.0
H1843 H 0.02564 0.2232 0.44021 0.0
H1844 H 0.02244 0.15787 0.49637 0.0
H1845 H 0.02545 0.18222 0.4776 0.0
C1846 C 0.54978 0.25159 0.16358 0.0
C1847 C 0.5425 0.26734 0.16574 0.0
C1848 C 0.56549 0.25207 0.17392 0.0
C1849 C 0.59472 0.27901 0.21571 0.0
H1850 H 0.62689 0.25063 0.19538 0.0
C1851 C 0.66866 0.28259 0.23935 0.0
C1852 C 0.67116 0.26524 0.24312 0.0
C1853 C 0.65202 0.28424 0.23293 0.0
C1854 C 0.61792 0.25854 0.20115 0.0
H1855 H 0.54566 0.29602 0.17959 0.0
H1856 H 0.5739 0.29748 0.19681 0.0
H1857 H 0.60038 0.25115 0.17627 0.0
H1858 H 0.6584 0.23647 0.24441 0.0
H1859 H 0.62931 0.23935 0.23287 0.0
H1860 H 0.61303 0.28701 0.24036 0.0
C1861 C 0.56721 0.28447 0.18782 0.0
C1862 C 0.60272 0.25877 0.19032 0.0
C1863 C 0.55121 0.28376 0.17787 0.0
C1864 C 0.6567 0.25002 0.24176 0.0
C1865 C 0.64015 0.25161 0.23512 0.0
C1866 C 0.61018 0.27911 0.22641 0.0
C1867 C 0.57437 0.26852 0.1862 0.0
C1868 C 0.59085 0.26886 0.19752 0.0
C1869 C 0.63791 0.26851 0.2301 0.0
C1870 C 0.62169 0.26872 0.21918 0.0
H1871 H 0.54297 0.23868 0.15445 0.0
H1872 H 0.57038 0.23939 0.17261 0.0
H1873 H 0.58573 0.28665 0.22182 0.0
H1874 H 0.67971 0.29448 0.24036 0.0
H1875 H 0.6504 0.29733 0.22894 0.0
C1876 C 0.58616 0.88936 0.89591 0.0
C1877 C 0.58505 0.87315 0.90393 0.0
C1878 C 0.57982 0.90429 0.90426 0.0
C1879 C 0.55038 0.91675 0.93716 0.0
H1880 H 0.58348 0.96525 0.94781 0.0
C1881 C 0.54658 0.9741 0.99658 0.0
C1882 C 0.55219 0.9929 0.99461 0.0
C1883 C 0.54812 0.95983 0.98264 0.0
C1884 C 0.57385 0.95198 0.94455 0.0
H1885 H 0.57678 0.86003 0.92715 0.0
H1886 H 0.56614 0.88647 0.94195 0.0
H1887 H 0.59057 0.93932 0.92806 0.0
H1888 H 0.56407 0.01191 0.97717 0.0
H1889 H 0.566 0.987 0.95236 0.0
H1890 H 0.53373 0.92939 0.95391 0.0
C1891 C 0.57154 0.8873 0.92899 0.0
C1892 C 0.57797 0.93714 0.93331 0.0
C1893 C 0.57791 0.87236 0.92069 0.0
C1894 C 0.55946 0.99739 0.97875 0.0
C1895 C 0.56066 0.98317 0.96466 0.0
C1896 C 0.54613 0.93171 0.94824 0.0
C1897 C 0.57233 0.90325 0.92072 0.0
C1898 C 0.56654 0.91933 0.93006 0.0
C1899 C 0.55514 0.96426 0.96654 0.0
C1900 C 0.55812 0.94927 0.95253 0.0
H1901 H 0.5914 0.89031 0.8829 0.0
H1902 H 0.58057 0.91657 0.89775 0.0
H1903 H 0.54131 0.90309 0.93454 0.0
H1904 H 0.54091 0.97043 0.00877 0.0
H1905 H 0.54415 0.9454 0.98467 0.0
C1906 C 0.93298 0.75272 0.66751 0.0
C1907 C 0.94384 0.74212 0.67467 0.0
C1908 C 0.91814 0.75493 0.6757 0.0
C1909 C 0.90512 0.75682 0.72157 0.0
H1910 H 0.86187 0.76424 0.69812 0.0
C1911 C 0.84288 0.76512 0.7546 0.0
C1912 C 0.83552 0.7796 0.74973 0.0
C1913 C 0.85793 0.76197 0.74739 0.0
C1914 C 0.87403 0.76238 0.70472 0.0
H1915 H 0.94665 0.72343 0.69413 0.0
H1916 H 0.92041 0.72701 0.7082 0.0
H1917 H 0.88197 0.7516 0.67909 0.0
H1918 H 0.83866 0.80317 0.73497 0.0
H1919 H 0.86477 0.79721 0.72196 0.0
H1920 H 0.89686 0.76725 0.74724 0.0
C1921 C 0.92374 0.73413 0.69675 0.0
C1922 C 0.8854 0.75507 0.69392 0.0
C1923 C 0.93868 0.73209 0.68871 0.0
C1924 C 0.8441 0.79185 0.73885 0.0
C1925 C 0.85896 0.7885 0.73141 0.0
C1926 C 0.89363 0.76391 0.73237 0.0
C1927 C 0.91395 0.74638 0.69095 0.0
C1928 C 0.90105 0.75231 0.70227 0.0
C1929 C 0.86546 0.77311 0.7351 0.0
C1930 C 0.87815 0.76683 0.72395 0.0
H1931 H 0.93658 0.76041 0.65652 0.0
H1932 H 0.91078 0.76446 0.67097 0.0
H1933 H 0.91735 0.75527 0.72829 0.0
H1934 H 0.83655 0.7557 0.76318 0.0
H1935 H 0.86289 0.75001 0.75027 0.0
C1936 C 0.10513 0.02377 0.82399 0.0
C1937 C 0.11907 0.01497 0.82018 0.0
C1938 C 0.09798 0.02431 0.84094 0.0
C1939 C 0.09655 1.00432 0.88603 0.0
H1940 H 0.07499 0.0458 0.90073 0.0
C1941 C 0.06928 0.01821 0.95938 0.0
C1942 C 0.05364 0.02471 0.95972 0.0
C1943 C 0.07795 0.01671 0.9431 0.0
C1944 C 0.08074 0.03392 0.89696 0.0
H1945 H 0.13589 0.99936 0.83238 0.0
H1946 H 0.12361 1.00046 0.86212 0.0
H1947 H 0.08836 0.0437 0.87233 0.0
H1948 H 0.03522 0.03452 0.94257 0.0
H1949 H 0.05032 0.03272 0.91509 0.0
H1950 H 0.0891 0.99493 0.91122 0.0
C1951 C 0.11809 0.00699 0.85166 0.0
C1952 C 0.08851 0.03261 0.88028 0.0
C1953 C 0.12532 0.00641 0.83443 0.0
C1954 C 0.04732 0.02981 0.94323 0.0
C1955 C 0.0561 0.02873 0.92724 0.0
C1956 C 0.08888 0.00576 0.90292 0.0
C1957 C 0.1043 0.01619 0.85547 0.0
C1958 C 0.09649 0.01767 0.87413 0.0
C1959 C 0.07157 0.02197 0.92658 0.0
C1960 C 0.08062 0.02053 0.90876 0.0
H1961 H 0.0995 0.03045 0.8137 0.0
H1962 H 0.08715 0.03105 0.84242 0.0
H1963 H 0.10225 0.99243 0.8822 0.0
H1964 H 0.07449 0.01362 0.97147 0.0
H1965 H 0.08976 0.01145 0.94352 0.0
C1966 C 0.80243 0.38173 0.54855 0.0
C1967 C 0.79809 0.39929 0.55045 0.0
C1968 C 0.80911 0.37569 0.564 0.0
C1969 C 0.81011 0.38137 0.61354 0.0
H1970 H 0.85381 0.36518 0.61273 0.0
C1971 C 0.83537 0.3566 0.67567 0.0
C1972 C 0.83668 0.33789 0.67094 0.0
C1973 C 0.83625 0.36804 0.66232 0.0
C1974 C 0.84168 0.3698 0.61313 0.0
H1975 H 0.79654 0.42402 0.56961 0.0
H1976 H 0.80756 0.41307 0.59681 0.0
H1977 H 0.84157 0.37544 0.58552 0.0
H1978 H 0.84233 0.3172 0.64952 0.0
H1979 H 0.84366 0.33703 0.62622 0.0
H1980 H 0.80963 0.37507 0.64066 0.0
C1981 C 0.80604 0.40415 0.58342 0.0
C1982 C 0.83464 0.37548 0.5976 0.0
C1983 C 0.7997 0.41035 0.56796 0.0
C1984 C 0.84124 0.33158 0.6535 0.0
C1985 C 0.84203 0.34298 0.64014 0.0
C1986 C 0.81705 0.37562 0.62896 0.0
C1987 C 0.81115 0.38701 0.58147 0.0
C1988 C 0.81874 0.38113 0.59772 0.0
C1989 C 0.83831 0.36078 0.64413 0.0
C1990 C 0.83282 0.36966 0.62886 0.0
H1991 H 0.80156 0.37318 0.53506 0.0
H1992 H 0.81286 0.36232 0.56231 0.0
H1993 H 0.79773 0.38552 0.61378 0.0
H1994 H 0.83225 0.36186 0.68922 0.0
H1995 H 0.83376 0.38193 0.66579 0.0
C1996 C 0.45391 0.04152 0.33812 0.0
C1997 C 0.45084 0.02539 0.3246 0.0
C1998 C 0.45843 0.04038 0.35644 0.0
C1999 C 0.4784 0.01055 0.38246 0.0
H2000 H 0.47136 0.04576 0.42429 0.0
C2001 C 0.50817 0.01317 0.45595 0.0
C2002 C 0.52145 0.0296 0.46153 0.0
C2003 C 0.49584 0.01186 0.44102 0.0
C2004 C 0.47321 0.03579 0.41267 0.0
H2005 H 0.44811 0.99523 0.3191 0.0
H2006 H 0.4552 0.99295 0.35128 0.0
H2007 H 0.45464 0.04329 0.39419 0.0
H2008 H 0.53206 0.05785 0.45692 0.0
H2009 H 0.51011 0.05556 0.43046 0.0
H2010 H 0.49687 1.00305 0.40101 0.0
C2011 C 0.45509 0.00663 0.34782 0.0
C2012 C 0.46379 0.03441 0.39552 0.0
C2013 C 0.45113 0.00791 0.32947 0.0
C2014 C 0.522 0.045 0.45251 0.0
C2015 C 0.50941 0.04379 0.43771 0.0
C2016 C 0.48746 0.01165 0.39962 0.0
C2017 C 0.45936 0.02296 0.3614 0.0
C2018 C 0.46674 0.0222 0.38014 0.0
C2019 C 0.49651 0.0271 0.43181 0.0
C2020 C 0.48524 0.02462 0.4146 0.0
H2021 H 0.45331 0.05501 0.33443 0.0
H2022 H 0.46187 0.05325 0.36652 0.0
H2023 H 0.4813 1.0013 0.37089 0.0
H2024 H 0.50754 1.00118 0.46287 0.0
H2025 H 0.48602 0.99885 0.43639 0.0
C2026 C 0.77665 0.72701 0.05322 0.0
C2027 C 0.78168 0.7098 0.05173 0.0
C2028 C 0.77842 0.73853 0.07051 0.0
C2029 C 0.80021 0.74789 0.11801 0.0
H2030 H 0.75539 0.75354 0.1333 0.0
C2031 C 0.78959 0.75521 0.19352 0.0
C2032 C 0.7795 0.76745 0.20073 0.0
C2033 C 0.79028 0.75121 0.17463 0.0
C2034 C 0.76808 0.75248 0.1292 0.0
H2035 H 0.79369 0.69174 0.06651 0.0
H2036 H 0.79727 0.71205 0.09649 0.0
H2037 H 0.75762 0.74289 0.10078 0.0
H2038 H 0.76169 0.78465 0.19389 0.0
H2039 H 0.76313 0.77791 0.16053 0.0
H2040 H 0.8107 0.75712 0.14632 0.0
C2041 C 0.79176 0.71657 0.0845 0.0
C2042 C 0.76935 0.74643 0.11059 0.0
C2043 C 0.78961 0.7049 0.0674 0.0
C2044 C 0.76955 0.77514 0.18862 0.0
C2045 C 0.77041 0.77129 0.16958 0.0
C2046 C 0.79901 0.75416 0.13653 0.0
C2047 C 0.78569 0.73318 0.08631 0.0
C2048 C 0.78529 0.74347 0.10498 0.0
C2049 C 0.7811 0.75958 0.16245 0.0
C2050 C 0.78278 0.7558 0.14245 0.0
H2051 H 0.77048 0.73099 0.04127 0.0
H2052 H 0.77368 0.75131 0.07165 0.0
H2053 H 0.81267 0.74583 0.11395 0.0
H2054 H 0.79714 0.74879 0.20252 0.0
H2055 H 0.79812 0.74159 0.16959 0.0
C2056 C 0.10772 0.99525 0.70202 0.0
C2057 C 0.12514 0.00525 0.70826 0.0
C2058 C 0.09894 0.99736 0.68515 0.0
C2059 C 0.10087 0.03013 0.65006 0.0
H2060 H 0.06824 0.98799 0.61891 0.0
C2061 C 0.06279 0.04064 0.58194 0.0
C2062 C 0.05711 0.02552 0.56699 0.0
C2063 C 0.07012 0.03807 0.59925 0.0
C2064 C 0.07742 1.00002 0.62717 0.0
H2065 H 0.14665 0.02564 0.70129 0.0
H2066 H 0.13152 0.02954 0.67248 0.0
H2067 H 0.08274 0.9837 0.64783 0.0
H2068 H 0.05476 0.99556 0.55921 0.0
H2069 H 0.06772 0.9911 0.58881 0.0
H2070 H 0.09613 0.04638 0.62935 0.0
C2071 C 0.12448 0.01993 0.68046 0.0
C2072 C 0.08565 0.99756 0.64414 0.0
C2073 C 0.13333 0.01755 0.69707 0.0
C2074 C 0.05891 0.00766 0.57019 0.0
C2075 C 0.06633 0.00508 0.58748 0.0
C2076 C 0.0927 0.03259 0.6331 0.0
C2077 C 0.10709 0.00987 0.67403 0.0
C2078 C 0.09769 0.01253 0.65595 0.0
C2079 C 0.07226 0.02024 0.60248 0.0
C2080 C 0.0808 0.0176 0.6211 0.0
H2081 H 0.10086 0.98563 0.71011 0.0
H2082 H 0.08558 0.98938 0.68103 0.0
H2083 H 0.10973 0.04223 0.65862 0.0
H2084 H 0.06166 0.05465 0.58028 0.0
H2085 H 0.07396 0.05023 0.61015 0.0
C2086 C 0.79442 0.37569 0.44481 0.0
C2087 C 0.79948 0.39514 0.44507 0.0
C2088 C 0.79572 0.36304 0.42937 0.0
C2089 C 0.81572 0.35802 0.38632 0.0
H2090 H 0.77465 0.31698 0.37072 0.0
C2091 C 0.79693 0.31605 0.31301 0.0
C2092 C 0.78985 0.29661 0.31075 0.0
C2093 C 0.80117 0.32687 0.33056 0.0
C2094 C 0.78635 0.32812 0.37512 0.0
H2095 H 0.81037 0.4167 0.42963 0.0
H2096 H 0.81208 0.39435 0.40209 0.0
H2097 H 0.77589 0.33906 0.39902 0.0
H2098 H 0.78213 0.27302 0.32481 0.0
H2099 H 0.78933 0.29216 0.3558 0.0
H2100 H 0.8258 0.34734 0.36187 0.0
C2101 C 0.80736 0.38901 0.41405 0.0
C2102 C 0.78705 0.3408 0.39126 0.0
C2103 C 0.80622 0.40176 0.42968 0.0
C2104 C 0.7876 0.288 0.32629 0.0
C2105 C 0.79168 0.2989 0.34391 0.0
C2106 C 0.81497 0.34535 0.37006 0.0
C2107 C 0.80189 0.36955 0.41375 0.0
C2108 C 0.80166 0.35593 0.39693 0.0
C2109 C 0.79823 0.31845 0.34611 0.0
C2110 C 0.80019 0.33044 0.36429 0.0
H2111 H 0.78952 0.37013 0.45661 0.0
H2112 H 0.79178 0.34812 0.42963 0.0
H2113 H 0.82721 0.36946 0.39055 0.0
H2114 H 0.79865 0.32304 0.30121 0.0
H2115 H 0.80592 0.34196 0.3319 0.0
C2116 C 0.41799 0.01119 0.2081 0.0
C2117 C 0.42875 0.02495 0.22203 0.0
C2118 C 0.42519 1.003 0.19326 0.0
C2119 C 0.4627 0.01169 0.16761 0.0
H2120 H 0.45096 0.95754 0.15084 0.0
C2121 C 0.50173 0.98286 0.11858 0.0
C2122 C 0.49335 0.98583 0.10215 0.0
C2123 C 0.492 0.97866 0.13292 0.0
C2124 C 0.4543 0.97262 0.15555 0.0
H2125 H 0.45523 0.0414 0.23117 0.0
H2126 H 0.46777 0.02726 0.20513 0.0
H2127 H 0.43776 0.9712 0.17721 0.0
H2128 H 0.46825 0.98316 0.0863 0.0
H2129 H 0.45126 0.97602 0.11158 0.0
H2130 H 0.47918 0.01321 0.14614 0.0
C2131 C 0.45381 0.02278 0.20571 0.0
C2132 C 0.44674 0.98043 0.17041 0.0
C2133 C 0.44665 0.03091 0.22055 0.0
C2134 C 0.47496 0.9812 0.09901 0.0
C2135 C 0.46523 0.9769 0.11335 0.0
C2136 C 0.47025 1.00393 0.15296 0.0
C2137 C 0.44319 0.00859 0.19209 0.0
C2138 C 0.45093 1.00004 0.1765 0.0
C2139 C 0.4739 0.97734 0.1308 0.0
C2140 C 0.46612 0.98442 0.14689 0.0
H2141 H 0.40415 0.00624 0.20899 0.0
H2142 H 0.41672 0.99229 0.18274 0.0
H2143 H 0.46589 0.02684 0.17182 0.0
H2144 H 0.51589 0.98633 0.12131 0.0
H2145 H 0.49887 0.97921 0.1464 0.0
C2146 C 0.78516 0.7264 0.94178 0.0
C2147 C 0.77967 0.70677 0.94027 0.0
C2148 C 0.78661 0.7346 0.92593 0.0
C2149 C 0.76915 0.72751 0.87765 0.0
H2150 H 0.81261 0.76089 0.87128 0.0
C2151 C 0.77787 0.75478 0.80904 0.0
C2152 C 0.78952 0.7721 0.80929 0.0
C2153 C 0.77695 0.74667 0.82495 0.0
C2154 C 0.80019 0.75196 0.87288 0.0
H2155 H 0.77128 0.68039 0.92099 0.0
H2156 H 0.77342 0.6948 0.89337 0.0
H2157 H 0.81017 0.74784 0.89947 0.0
H2158 H 0.8087 0.79502 0.82654 0.0
H2159 H 0.8061 0.78185 0.85451 0.0
H2160 H 0.75869 0.73216 0.85169 0.0
C2161 C 0.77671 0.70377 0.90681 0.0
C2162 C 0.79891 0.74436 0.88905 0.0
C2163 C 0.77558 0.69554 0.92261 0.0
C2164 C 0.79983 0.78145 0.82585 0.0
C2165 C 0.79843 0.77373 0.84192 0.0
C2166 C 0.77024 0.73548 0.86169 0.0
C2167 C 0.78226 0.72335 0.90832 0.0
C2168 C 0.78343 0.73194 0.8915 0.0
C2169 C 0.78711 0.75609 0.84173 0.0
C2170 C 0.78584 0.74773 0.85894 0.0
H2171 H 0.78842 0.73541 0.95519 0.0
H2172 H 0.79085 0.74975 0.92743 0.0
H2173 H 0.757 0.71808 0.87932 0.0
H2174 H 0.76955 0.74743 0.79653 0.0
H2175 H 0.7683 0.73294 0.82393 0.0
C2176 C 0.81984 0.09692 0.02217 0.0
C2177 C 0.81601 0.11325 0.01713 0.0
C2178 C 0.83516 0.09175 0.01767 0.0
C2179 C 0.86692 0.09716 0.98455 0.0
H2180 H 0.89475 0.07814 0.0197 0.0
C2181 C 0.93378 0.07413 0.97786 0.0
C2182 C 0.93158 0.05522 0.97985 0.0
C2183 C 0.92008 0.08315 0.98053 0.0
C2184 C 0.88712 0.08358 0.00986 0.0
H2185 H 0.82536 0.13726 0.00386 0.0
H2186 H 0.85205 0.1282 0.99618 0.0
H2187 H 0.87001 0.09058 0.0294 0.0
H2188 H 0.91371 0.03072 0.98573 0.0
H2189 H 0.88997 0.04659 0.99081 0.0
H2190 H 0.88405 0.08979 0.96495 0.0
C2191 C 0.84315 0.11935 0.0034 0.0
C2192 C 0.87297 0.09053 0.01533 0.0
C2193 C 0.82793 0.12455 0.00794 0.0
C2194 C 0.9155 0.04524 0.98386 0.0
C2195 C 0.90203 0.05428 0.98685 0.0
C2196 C 0.88118 0.09027 0.97909 0.0
C2197 C 0.84679 0.10284 0.00807 0.0
C2198 C 0.86255 0.09697 0.00262 0.0
C2199 C 0.90441 0.07335 0.98565 0.0
C2200 C 0.89105 0.08309 0.99165 0.0
H2201 H 0.81085 0.08791 0.02916 0.0
H2202 H 0.83768 0.07883 0.02126 0.0
H2203 H 0.85894 0.10197 0.97449 0.0
H2204 H 0.9462 0.08201 0.97488 0.0
H2205 H 0.92202 0.09793 0.97962 0.0
C2206 C 0.35953 0.42803 0.03683 0.0
C2207 C 0.34811 0.42268 0.02032 0.0
C2208 C 0.37735 0.43639 0.0367 0.0
C2209 C 0.40707 0.4612 0.00642 0.0
H2210 H 0.44368 0.45837 0.04355 0.0
C2211 C 0.48031 0.49612 0.00463 0.0
C2212 C 0.48922 0.50707 0.02135 0.0
C2213 C 0.46372 0.48422 0.00415 0.0
C2214 C 0.43358 0.45933 0.03311 0.0
H2215 H 0.3466 0.4205 0.99063 0.0
H2216 H 0.37752 0.43396 0.99022 0.0
H2217 H 0.41388 0.43994 0.04331 0.0
H2218 H 0.48792 0.5137 0.05072 0.0
H2219 H 0.45911 0.49276 0.04994 0.0
H2220 H 0.42686 0.48041 0.99613 0.0
C2221 C 0.37281 0.43274 0.00344 0.0
C2222 C 0.41642 0.44881 0.033 0.0
C2223 C 0.35503 0.42483 0.00364 0.0
C2224 C 0.48139 0.50546 0.03763 0.0
C2225 C 0.46491 0.49338 0.03719 0.0
C2226 C 0.42424 0.47148 0.00639 0.0
C2227 C 0.38421 0.43924 0.01999 0.0
C2228 C 0.40282 0.44971 0.01975 0.0
C2229 C 0.45575 0.48277 0.02042 0.0
C2230 C 0.43769 0.47086 0.01985 0.0
H2231 H 0.35455 0.42656 0.0499 0.0
H2232 H 0.38556 0.44127 0.04978 0.0
H2233 H 0.39705 0.46275 0.99622 0.0
H2234 H 0.486 0.49703 0.99184 0.0
H2235 H 0.4571 0.47614 0.99102 0.0
C2236 C 0.39595 0.62807 0.76626 0.0
C2237 C 0.38775 0.61 0.75602 0.0
C2238 C 0.38769 0.64356 0.76722 0.0
C2239 C 0.34875 0.65966 0.74438 0.0
H2240 H 0.361 0.70117 0.78559 0.0
C2241 C 0.3079 0.71836 0.75254 0.0
C2242 C 0.31591 0.73726 0.76057 0.0
C2243 C 0.31694 0.70363 0.75228 0.0
C2244 C 0.35739 0.68987 0.77379 0.0
H2245 H 0.36382 0.5949 0.73879 0.0
H2246 H 0.3496 0.62124 0.74045 0.0
H2247 H 0.37545 0.67496 0.78475 0.0
H2248 H 0.34046 0.75472 0.77492 0.0
H2249 H 0.35606 0.7292 0.7748 0.0
H2250 H 0.33064 0.67447 0.73347 0.0
C2251 C 0.36262 0.62379 0.7477 0.0
C2252 C 0.36584 0.67455 0.77327 0.0
C2253 C 0.37084 0.60833 0.74684 0.0
C2254 C 0.33356 0.74057 0.76853 0.0
C2255 C 0.34258 0.7257 0.76853 0.0
C2256 C 0.34026 0.67487 0.74496 0.0
C2257 C 0.37077 0.64197 0.75788 0.0
C2258 C 0.36175 0.65887 0.75856 0.0
C2259 C 0.33456 0.70677 0.76025 0.0
C2260 C 0.34422 0.69045 0.75969 0.0
H2261 H 0.40891 0.63033 0.77362 0.0
H2262 H 0.39488 0.65696 0.77514 0.0
H2263 H 0.34515 0.64856 0.73244 0.0
H2264 H 0.29444 0.71482 0.74618 0.0
H2265 H 0.30984 0.68956 0.74595 0.0
C2266 C 0.21665 0.60977 0.48624 0.0
C2267 C 0.22368 0.62832 0.49533 0.0
C2268 C 0.19894 0.60168 0.48607 0.0
C2269 C 0.16575 0.60296 0.5157 0.0
H2270 H 0.13327 0.57419 0.47361 0.0
C2271 C 0.09449 0.56895 0.52218 0.0
C2272 C 0.08713 0.55127 0.51127 0.0
C2273 C 0.11098 0.5789 0.51972 0.0
C2274 C 0.1423 0.58198 0.4855 0.0
H2275 H 0.21779 0.65336 0.51047 0.0
H2276 H 0.18685 0.63897 0.51049 0.0
H2277 H 0.16218 0.59159 0.46876 0.0
H2278 H 0.09122 0.52968 0.48983 0.0
H2279 H 0.12059 0.54673 0.48613 0.0
H2280 H 0.14636 0.59287 0.53257 0.0
C2281 C 0.19503 0.63082 0.50345 0.0
C2282 C 0.15869 0.59202 0.48269 0.0
C2283 C 0.21265 0.63901 0.50338 0.0
C2284 C 0.09672 0.54332 0.49839 0.0
C2285 C 0.11337 0.55315 0.49614 0.0
C2286 C 0.14949 0.59274 0.51855 0.0
C2287 C 0.18821 0.61199 0.49519 0.0
C2288 C 0.17048 0.6025 0.49779 0.0
C2289 C 0.12049 0.57118 0.50654 0.0
C2290 C 0.13766 0.58209 0.50348 0.0
H2291 H 0.22494 0.60134 0.47986 0.0
H2292 H 0.19386 0.58707 0.47972 0.0
H2293 H 0.17485 0.61075 0.52755 0.0
H2294 H 0.08718 0.57555 0.53198 0.0
H2295 H 0.11602 0.59289 0.52772 0.0
C2296 C 0.67587 0.98402 0.75747 0.0
C2297 C 0.68525 0.99679 0.74758 0.0
C2298 C 0.6832 0.97024 0.76332 0.0
C2299 C 0.71517 0.94302 0.75429 0.0
H2300 H 0.71675 0.93999 0.80649 0.0
C2301 C 0.76119 0.9075 0.78935 0.0
C2302 C 0.75244 0.89014 0.79314 0.0
C2303 C 0.75189 0.92082 0.78625 0.0
C2304 C 0.71612 0.94064 0.7919 0.0
H2305 H 0.70925 0.00508 0.73547 0.0
H2306 H 0.72219 0.98039 0.74559 0.0
H2307 H 0.70256 0.96284 0.7944 0.0
H2308 H 0.72767 0.87324 0.79797 0.0
H2309 H 0.71125 0.89725 0.79311 0.0
H2310 H 0.7291 0.92114 0.75192 0.0
C2311 C 0.70919 0.98129 0.74883 0.0
C2312 C 0.70813 0.95359 0.78502 0.0
C2313 C 0.70191 0.99536 0.74316 0.0
C2314 C 0.73456 0.88673 0.79527 0.0
C2315 C 0.72526 0.90029 0.79248 0.0
C2316 C 0.72317 0.93014 0.76118 0.0
C2317 C 0.69993 0.96892 0.75918 0.0
C2318 C 0.70783 0.95495 0.76623 0.0
C2319 C 0.73384 0.91695 0.78719 0.0
C2320 C 0.72386 0.92915 0.78002 0.0
H2321 H 0.663 0.98496 0.76114 0.0
H2322 H 0.67586 0.96068 0.77117 0.0
H2323 H 0.71478 0.94376 0.73973 0.0
H2324 H 0.77492 0.91014 0.78726 0.0
H2325 H 0.75854 0.93366 0.78204 0.0
C2326 C 0.72751 0.89337 0.51552 0.0
C2327 C 0.74379 0.90585 0.52213 0.0
C2328 C 0.71305 0.90016 0.50973 0.0
C2329 C 0.70089 0.94079 0.49337 0.0
H2330 H 0.65747 0.9253 0.51394 0.0
C2331 C 0.64888 0.98469 0.49449 0.0
C2332 C 0.63136 0.97643 0.496 0.0
C2333 C 0.66157 0.97406 0.49424 0.0
C2334 C 0.66927 0.92953 0.50762 0.0
H2335 H 0.75762 0.93523 0.52774 0.0
H2336 H 0.73243 0.94701 0.51765 0.0
H2337 H 0.6815 0.91041 0.51995 0.0
H2338 H 0.61317 0.95023 0.49718 0.0
H2339 H 0.63509 0.9314 0.4959 0.0
H2340 H 0.68876 0.95966 0.48074 0.0
C2341 C 0.73089 0.93198 0.51683 0.0
C2342 C 0.68313 0.92101 0.51121 0.0
C2343 C 0.74528 0.92523 0.52277 0.0
C2344 C 0.62663 0.95704 0.49628 0.0
C2345 C 0.63928 0.94629 0.49568 0.0
C2346 C 0.68693 0.94906 0.48946 0.0
C2347 C 0.71461 0.91954 0.51026 0.0
C2348 C 0.69926 0.92694 0.50459 0.0
C2349 C 0.65707 0.95475 0.49517 0.0
C2350 C 0.67106 0.94401 0.49702 0.0
H2351 H 0.72595 0.87835 0.51472 0.0
H2352 H 0.70069 0.89024 0.50465 0.0
H2353 H 0.71307 0.94538 0.48777 0.0
H2354 H 0.653 0.99963 0.49445 0.0
H2355 H 0.67504 0.98134 0.49419 0.0
C2356 C 0.37356 0.48782 0.75933 0.0
C2357 C 0.38751 0.48999 0.74837 0.0
C2358 C 0.36387 0.46965 0.76112 0.0
C2359 C 0.35519 0.41743 0.73935 0.0
H2360 H 0.3362 0.40907 0.78482 0.0
C2361 C 0.32149 0.34074 0.75087 0.0
C2362 C 0.30657 0.33891 0.76041 0.0
C2363 C 0.33207 0.35881 0.75003 0.0
C2364 C 0.34123 0.411 0.77187 0.0
H2365 H 0.40165 0.47395 0.73059 0.0
H2366 H 0.38519 0.44311 0.73363 0.0
H2367 H 0.35185 0.44058 0.78185 0.0
H2368 H 0.2917 0.35508 0.77691 0.0
H2369 H 0.30997 0.38586 0.77591 0.0
H2370 H 0.34459 0.38785 0.7294 0.0
C2371 C 0.38139 0.45524 0.7408 0.0
C2372 C 0.35029 0.42934 0.77014 0.0
C2373 C 0.39106 0.47324 0.73912 0.0
C2374 C 0.30309 0.35571 0.76954 0.0
C2375 C 0.31373 0.37359 0.76898 0.0
C2376 C 0.34619 0.39909 0.74111 0.0
C2377 C 0.36759 0.45287 0.7519 0.0
C2378 C 0.35749 0.43308 0.75381 0.0
C2379 C 0.32831 0.37571 0.75894 0.0
C2380 C 0.33888 0.39538 0.75738 0.0
H2381 H 0.37038 0.50015 0.7669 0.0
H2382 H 0.35335 0.46882 0.76973 0.0
H2383 H 0.36008 0.41931 0.72634 0.0
H2384 H 0.32457 0.32831 0.74337 0.0
H2385 H 0.34318 0.3595 0.74224 0.0
C2386 C 0.17324 0.6065 0.27764 0.0
C2387 C 0.15984 0.60137 0.26278 0.0
C2388 C 0.18396 0.62452 0.28114 0.0
C2389 C 0.20302 0.64946 0.24967 0.0
H2390 H 0.2286 0.68753 0.29042 0.0
C2391 C 0.25367 0.71316 0.24014 0.0
C2392 C 0.26585 0.72291 0.25522 0.0
C2393 C 0.2422 0.69653 0.24167 0.0
C2394 C 0.22184 0.67667 0.27901 0.0
H2395 H 0.14495 0.61145 0.24212 0.0
H2396 H 0.1641 0.64298 0.24793 0.0
H2397 H 0.20178 0.66599 0.29516 0.0
H2398 H 0.27776 0.72193 0.28244 0.0
H2399 H 0.25822 0.69211 0.28479 0.0
H2400 H 0.22331 0.65915 0.2337 0.0
C2401 C 0.16627 0.63313 0.25684 0.0
C2402 C 0.20632 0.66472 0.28168 0.0
C2403 C 0.15538 0.61514 0.25349 0.0
C2404 C 0.26812 0.71469 0.27083 0.0
C2405 C 0.25688 0.69778 0.2722 0.0
C2406 C 0.21868 0.66104 0.24711 0.0
C2407 C 0.1814 0.63728 0.2696 0.0
C2408 C 0.19668 0.65135 0.26689 0.0
C2409 C 0.24307 0.68928 0.25815 0.0
C2410 C 0.22809 0.67501 0.26164 0.0
H2411 H 0.1766 0.59605 0.28521 0.0
H2412 H 0.19555 0.62755 0.2911 0.0
H2413 H 0.19607 0.63864 0.23828 0.0
H2414 H 0.25176 0.71928 0.22792 0.0
H2415 H 0.2317 0.69043 0.23058 0.0
C2416 C 0.50661 0.69421 0.42411 0.0
C2417 C 0.50548 0.7116 0.43411 0.0
C2418 C 0.51026 0.68006 0.43328 0.0
C2419 C 0.50687 0.66106 0.47541 0.0
H2420 H 0.54625 0.6404 0.46219 0.0
C2421 C 0.52278 0.59993 0.50883 0.0
C2422 C 0.53138 0.58768 0.49896 0.0
C2423 C 0.52101 0.61647 0.50263 0.0
C2424 C 0.53492 0.64552 0.46586 0.0
H2425 H 0.50682 0.72757 0.46162 0.0
H2426 H 0.51267 0.70246 0.47765 0.0
H2427 H 0.53935 0.66551 0.44759 0.0
H2428 H 0.54478 0.58258 0.47501 0.0
H2429 H 0.54063 0.61033 0.46327 0.0
H2430 H 0.5014 0.64046 0.49259 0.0
C2431 C 0.5109 0.69998 0.4627 0.0
C2432 C 0.53114 0.66018 0.45757 0.0
C2433 C 0.50753 0.7143 0.45352 0.0
C2434 C 0.53819 0.59203 0.48286 0.0
C2435 C 0.53595 0.60819 0.4763 0.0
C2436 C 0.51025 0.64596 0.48327 0.0
C2437 C 0.51259 0.68287 0.45264 0.0
C2438 C 0.51702 0.66798 0.46216 0.0
C2439 C 0.52727 0.62077 0.48603 0.0
C2440 C 0.52425 0.63774 0.4785 0.0
H2441 H 0.50518 0.6917 0.40917 0.0
H2442 H 0.51133 0.6669 0.42523 0.0
H2443 H 0.49586 0.66685 0.47914 0.0
H2444 H 0.5175 0.59675 0.52137 0.0
H2445 H 0.51471 0.62578 0.51098 0.0
C2446 C 0.63598 0.31076 0.64041 0.0
C2447 C 0.61937 0.30646 0.64655 0.0
C2448 C 0.65065 0.30705 0.65005 0.0
C2449 C 0.66295 0.27724 0.6827 0.0
H2450 H 0.70706 0.31451 0.69348 0.0
C2451 C 0.71818 0.27387 0.73798 0.0
C2452 C 0.73571 0.27934 0.73466 0.0
C2453 C 0.70449 0.2758 0.7256 0.0
C2454 C 0.69493 0.30381 0.69035 0.0
H2455 H 0.60519 0.29464 0.66756 0.0
H2456 H 0.63055 0.28788 0.68409 0.0
H2457 H 0.68236 0.32084 0.67518 0.0
H2458 H 0.75266 0.29101 0.71565 0.0
H2459 H 0.72872 0.29466 0.69401 0.0
H2460 H 0.6754 0.26028 0.698 0.0
C2461 C 0.63233 0.29422 0.67189 0.0
C2462 C 0.68074 0.30746 0.67987 0.0
C2463 C 0.61778 0.29825 0.66248 0.0
C2464 C 0.73926 0.28648 0.71845 0.0
C2465 C 0.72554 0.28874 0.70618 0.0
C2466 C 0.67712 0.27358 0.69314 0.0
C2467 C 0.64898 0.29858 0.66585 0.0
C2468 C 0.66447 0.29433 0.67611 0.0
C2469 C 0.70796 0.28357 0.70968 0.0
C2470 C 0.69327 0.2869 0.69732 0.0
H2471 H 0.63766 0.31705 0.62817 0.0
H2472 H 0.66324 0.3105 0.64493 0.0
H2473 H 0.65074 0.26665 0.67979 0.0
H2474 H 0.71504 0.26842 0.75041 0.0
H2475 H 0.6912 0.27184 0.7289 0.0
C2476 C 0.01003 0.33739 0.92197 0.0
C2477 C 0.01443 0.32255 0.92955 0.0
C2478 C 0.01238 0.355 0.9328 0.0
C2479 C 0.01864 0.38056 0.9804 0.0
H2480 H 0.03406 0.42285 0.95567 0.0
C2481 C 0.0352 0.46179 0.01049 0.0
C2482 C 0.02437 0.47086 0.00093 0.0
C2483 C 0.03465 0.44283 0.00445 0.0
C2484 C 0.02986 0.41113 0.96273 0.0
H2485 H 0.02433 0.31409 0.9544 0.0
H2486 H 0.02905 0.34544 0.97348 0.0
H2487 H 0.03303 0.39112 0.94001 0.0
H2488 H 0.00424 0.4675 0.97799 0.0
H2489 H 0.00367 0.43445 0.9671 0.0
H2490 H 0.01565 0.40101 0.00321 0.0
C2491 C 0.0235 0.34327 0.95918 0.0
C2492 C 0.02915 0.39301 0.95379 0.0
C2493 C 0.02083 0.32542 0.94833 0.0
C2494 C 0.01256 0.4607 0.98568 0.0
C2495 C 0.01229 0.44192 0.97942 0.0
C2496 C 0.01962 0.39884 0.98949 0.0
C2497 C 0.01956 0.35829 0.95138 0.0
C2498 C 0.02288 0.37748 0.96222 0.0
C2499 C 0.02355 0.43302 0.98857 0.0
C2500 C 0.02468 0.41408 0.9804 0.0
H2501 H 0.00476 0.33537 0.90758 0.0
H2502 H 0.00864 0.3661 0.92653 0.0
H2503 H 0.01378 0.36885 0.98723 0.0
H2504 H 0.04438 0.46947 0.02231 0.0
H2505 H 0.04343 0.4361 0.01158 0.0
C2506 C 0.00651 0.80102 0.14434 0.0
C2507 C 0.01525 0.78633 0.14212 0.0
C2508 C 0.98914 0.7976 0.14851 0.0
C2509 C 0.95787 0.76272 0.16846 0.0
H2510 H 0.92525 0.79268 0.15628 0.0
C2511 C 0.89048 0.75376 0.19641 0.0
C2512 C 0.88613 0.77067 0.20372 0.0
C2513 C 0.90439 0.75391 0.18568 0.0
C2514 C 0.93423 0.7842 0.15982 0.0
H2515 H 0.01235 0.75636 0.14085 0.0
H2516 H 0.98199 0.75019 0.14712 0.0
H2517 H 0.95284 0.79627 0.14288 0.0
H2518 H 0.89305 0.80094 0.20543 0.0
H2519 H 0.9172 0.80121 0.18694 0.0
H2520 H 0.93939 0.75084 0.18557 0.0
C2521 C 0.98862 0.76452 0.14664 0.0
C2522 C 0.9501 0.78631 0.15218 0.0
C2523 C 0.00602 0.76802 0.14293 0.0
C2524 C 0.89579 0.78763 0.19974 0.0
C2525 C 0.90967 0.78778 0.18908 0.0
C2526 C 0.94198 0.76054 0.17599 0.0
C2527 C 0.98007 0.77933 0.15013 0.0
C2528 C 0.96235 0.77589 0.1567 0.0
C2529 C 0.9143 0.77097 0.18207 0.0
C2530 C 0.93012 0.77157 0.17213 0.0
H2531 H 0.01336 0.81525 0.14373 0.0
H2532 H 0.98312 0.80943 0.15122 0.0
H2533 H 0.96697 0.75461 0.17258 0.0
H2534 H 0.88318 0.74043 0.19906 0.0
H2535 H 0.90747 0.74067 0.18033 0.0
C2536 C 0.49223 0.30481 0.09382 0.0
C2537 C 0.49606 0.30537 0.11278 0.0
C2538 C 0.4992 0.32034 0.08596 0.0
C2539 C 0.53651 0.36044 0.09238 0.0
H2540 H 0.50748 0.37925 0.05819 0.0
C2541 C 0.55443 0.42918 0.06078 0.0
C2542 C 0.55033 0.42587 0.04152 0.0
C2543 C 0.55023 0.4144 0.07055 0.0
C2544 C 0.5157 0.37403 0.06768 0.0
H2545 H 0.51011 0.32234 0.13847 0.0
H2546 H 0.52241 0.34935 0.12463 0.0
H2547 H 0.49406 0.35364 0.07344 0.0
H2548 H 0.53944 0.40479 0.01722 0.0
H2549 H 0.53189 0.37909 0.03432 0.0
H2550 H 0.55817 0.381 0.08651 0.0
C2551 C 0.51394 0.33704 0.11593 0.0
C2552 C 0.50806 0.35944 0.07632 0.0
C2553 C 0.50672 0.3217 0.12383 0.0
C2554 C 0.54294 0.40756 0.03205 0.0
C2555 C 0.53852 0.39294 0.04178 0.0
C2556 C 0.54417 0.37515 0.08375 0.0
C2557 C 0.51036 0.3364 0.09694 0.0
C2558 C 0.51843 0.35238 0.08852 0.0
C2559 C 0.54159 0.39642 0.06108 0.0
C2560 C 0.5338 0.38176 0.07115 0.0
H2561 H 0.48415 0.29228 0.08508 0.0
H2562 H 0.49633 0.31959 0.07123 0.0
H2563 H 0.54475 0.35508 0.10171 0.0
H2564 H 0.56008 0.44328 0.06828 0.0
H2565 H 0.55264 0.41725 0.08549 0.0
C2566 C 0.02379 0.32448 0.35006 0.0
C2567 C 0.03208 0.30963 0.35067 0.0
C2568 C 0.00627 0.32078 0.34294 0.0
C2569 C 0.96512 0.28725 0.32721 0.0
H2570 H 0.96588 0.31295 0.28511 0.0
C2571 C 0.9023 0.28167 0.2792 0.0
C2572 C 0.90003 0.29917 0.27567 0.0
C2573 C 0.91869 0.27991 0.28642 0.0
C2574 C 0.96539 0.30575 0.29684 0.0
H2575 H 0.0288 0.27939 0.34601 0.0
H2576 H 0.99789 0.27283 0.33289 0.0
H2577 H 0.99273 0.31656 0.30536 0.0
H2578 H 0.91292 0.32825 0.27604 0.0
H2579 H 0.94123 0.32542 0.28893 0.0
H2580 H 0.93753 0.2772 0.31921 0.0
C2581 C 0.00487 0.28723 0.33821 0.0
C2582 C 0.98073 0.30784 0.30841 0.0
C2583 C 0.02244 0.29096 0.34556 0.0
C2584 C 0.91445 0.31454 0.27836 0.0
C2585 C 0.9307 0.31287 0.28576 0.0
C2586 C 0.94958 0.28542 0.31577 0.0
C2587 C 0.997 0.3022 0.3361 0.0
C2588 C 0.98063 0.29895 0.32385 0.0
C2589 C 0.9329 0.29569 0.29035 0.0
C2590 C 0.94954 0.29503 0.30071 0.0
H2591 H 0.03111 0.33895 0.3542 0.0
H2592 H 0.0003 0.33247 0.34156 0.0
H2593 H 0.96491 0.28016 0.33901 0.0
H2594 H 0.89126 0.26963 0.27712 0.0
H2595 H 0.92009 0.26643 0.28953 0.0
C2596 C 0.98405 0.69188 0.59907 0.0
C2597 C 0.9891 0.69432 0.61812 0.0
C2598 C 0.98682 0.67645 0.58735 0.0
C2599 C -0.0007 0.63091 0.58551 0.0
H2600 H 0.02224 0.64621 0.54393 0.0
C2601 C 0.03491 0.58468 0.5393 0.0
C2602 C 0.0285 0.58193 0.52053 0.0
C2603 C 0.03033 0.59836 0.55187 0.0
C2604 C 0.01583 0.64182 0.55549 0.0
H2605 H -0.00077 0.6816 0.64007 0.0
H2606 H 0.00441 0.65497 0.61955 0.0
H2607 H 0.01133 0.66898 0.56444 0.0
H2608 H 0.01287 0.59135 0.49996 0.0
H2609 H 0.00517 0.61554 0.52192 0.0
H2610 H 0.0042 0.60375 0.57656 0.0
C2611 C -0.00168 0.6649 0.61367 0.0
C2612 C 0.00943 0.65471 0.56708 0.0
C2613 C 0.99547 0.68025 0.6254 0.0
C2614 C 0.018 0.59333 0.51437 0.0
C2615 C 0.01362 0.60712 0.52687 0.0
C2616 C 0.00587 0.61802 0.57396 0.0
C2617 C 0.99472 0.66333 0.59451 0.0
C2618 C 0.00092 0.64932 0.58205 0.0
C2619 C 0.01956 0.60953 0.5457 0.0
C2620 C 0.01398 0.62339 0.55879 0.0
H2621 H 0.97886 0.70236 0.59311 0.0
H2622 H 0.98353 0.67524 0.57261 0.0
H2623 H 0.9928 0.62643 0.59697 0.0
H2624 H 0.04301 0.57595 0.54431 0.0
H2625 H 0.03508 0.60015 0.56638 0.0
C2626 C 0.62377 0.7925 0.83894 0.0
C2627 C 0.62732 0.80679 0.85447 0.0
C2628 C 0.63581 0.79178 0.82638 0.0
C2629 C 0.68222 0.80794 0.82167 0.0
H2630 H 0.66549 0.78824 0.7699 0.0
C2631 C 0.72673 0.80285 0.76495 0.0
C2632 C 0.72966 0.78458 0.7626 0.0
C2633 C 0.71231 0.80665 0.77304 0.0
C2634 C 0.67021 0.7938 0.78431 0.0
H2635 H 0.64586 0.83179 0.86917 0.0
H2636 H 0.66711 0.83087 0.84674 0.0
H2637 H 0.64473 0.79517 0.79134 0.0
H2638 H 0.71863 0.7555 0.76466 0.0
H2639 H 0.69292 0.76223 0.77848 0.0
H2640 H 0.70776 0.80683 0.81437 0.0
C2641 C 0.65515 0.81993 0.84455 0.0
C2642 C 0.65844 0.7977 0.79658 0.0
C2643 C 0.64312 0.82044 0.8574 0.0
C2644 C 0.71679 0.76973 0.76643 0.0
C2645 C 0.70214 0.77354 0.77431 0.0
C2646 C 0.69399 0.80436 0.80933 0.0
C2647 C 0.65152 0.8056 0.82888 0.0
C2648 C 0.66427 0.80427 0.81548 0.0
C2649 C 0.70038 0.79214 0.77837 0.0
C2650 C 0.68793 0.79689 0.79075 0.0
H2651 H 0.61158 0.78185 0.83649 0.0
H2652 H 0.63282 0.78024 0.81478 0.0
H2653 H 0.6871 0.8128 0.83613 0.0
H2654 H 0.73619 0.81455 0.7618 0.0
H2655 H 0.71103 0.82107 0.77613 0.0
C2656 C 0.4338 0.5456 0.68086 0.0
C2657 C 0.44252 0.5559 0.69808 0.0
C2658 C 0.44257 0.54398 0.66481 0.0
C2659 C 0.48311 0.56647 0.64431 0.0
H2660 H 0.47095 0.52089 0.6076 0.0
C2661 C 0.5243 0.55757 0.58208 0.0
C2662 C 0.51703 0.5461 0.56487 0.0
C2663 C 0.51495 0.55839 0.5976 0.0
C2664 C 0.47449 0.53391 0.61745 0.0
H2665 H 0.46781 0.5726 0.71122 0.0
H2666 H 0.48287 0.57016 0.6835 0.0
H2667 H 0.45594 0.52297 0.63529 0.0
H2668 H 0.4935 0.52618 0.55121 0.0
H2669 H 0.47696 0.52772 0.57818 0.0
H2670 H 0.50138 0.57763 0.62653 0.0
C2671 C 0.46914 0.56322 0.68229 0.0
C2672 C 0.46577 0.53511 0.6336 0.0
C2673 C 0.46044 0.56457 0.69841 0.0
C2674 C 0.49969 0.53537 0.56397 0.0
C2675 C 0.49022 0.53617 0.5797 0.0
C2676 C 0.49171 0.56534 0.62815 0.0
C2677 C 0.46046 0.55283 0.66503 0.0
C2678 C 0.46988 0.55141 0.64751 0.0
C2679 C 0.49762 0.54778 0.59697 0.0
C2680 C 0.48775 0.549 0.61425 0.0
H2681 H 0.42009 0.53859 0.67978 0.0
H2682 H 0.43511 0.53597 0.65205 0.0
H2683 H 0.48668 0.57948 0.65419 0.0
H2684 H 0.53759 0.566 0.58375 0.0
H2685 H 0.52169 0.56722 0.61031 0.0
C2686 C 0.76929 0.15784 0.94383 0.0
C2687 C 0.77917 0.17065 0.95907 0.0
C2688 C 0.76106 0.16437 0.92961 0.0
C2689 C 0.74269 0.20431 0.92433 0.0
H2690 H 0.74034 0.18723 0.87175 0.0
C2691 C 0.73342 0.24955 0.87221 0.0
C2692 C 0.72977 0.24147 0.85348 0.0
C2693 C 0.73226 0.23811 0.88553 0.0
C2694 C 0.74029 0.19175 0.88639 0.0
H2695 H 0.79016 0.20007 0.97034 0.0
H2696 H 0.77629 0.21153 0.94499 0.0
H2697 H 0.7562 0.17306 0.89306 0.0
H2698 H 0.71916 0.21568 0.83392 0.0
H2699 H 0.71629 0.1956 0.85735 0.0
H2700 H 0.72689 0.22303 0.91783 0.0
C2701 C 0.77436 0.1965 0.94448 0.0
C2702 C 0.74964 0.18379 0.89856 0.0
C2703 C 0.78246 0.18998 0.95881 0.0
C2704 C 0.72229 0.22213 0.84835 0.0
C2705 C 0.72082 0.21067 0.86174 0.0
C2706 C 0.73309 0.21204 0.91221 0.0
C2707 C 0.76283 0.18373 0.93038 0.0
C2708 C 0.75156 0.19064 0.91754 0.0
C2709 C 0.72721 0.21843 0.88028 0.0
C2710 C 0.73251 0.20653 0.89306 0.0
H2711 H 0.76647 0.14282 0.94371 0.0
H2712 H 0.75228 0.15429 0.9188 0.0
H2713 H 0.74351 0.20932 0.93903 0.0
H2714 H 0.73927 0.26444 0.87651 0.0
H2715 H 0.73733 0.2447 0.89962 0.0
C2716 C 0.11717 0.5284 0.18665 0.0
C2717 C 0.13461 0.53882 0.18937 0.0
C2718 C 0.10572 0.53042 0.17234 0.0
C2719 C 0.09574 0.55702 0.1381 0.0
H2720 H 0.08024 0.50786 0.10668 0.0
C2721 C 0.06166 0.54546 0.06452 0.0
C2722 C 0.0462 0.53125 0.06052 0.0
C2723 C 0.0725 0.54734 0.08076 0.0
C2724 C 0.08434 0.52158 0.11542 0.0
H2725 H 0.15351 0.56052 0.18022 0.0
H2726 H 0.13327 0.56348 0.15427 0.0
H2727 H 0.0989 0.51134 0.13554 0.0
H2728 H 0.0301 0.50739 0.06952 0.0
H2729 H 0.04926 0.51064 0.09817 0.0
H2730 H 0.08101 0.56719 0.11788 0.0
C2731 C 0.12866 0.55395 0.16353 0.0
C2732 C 0.09497 0.52358 0.13179 0.0
C2733 C 0.14023 0.55201 0.17805 0.0
C2734 C 0.04192 0.51854 0.07255 0.0
C2735 C 0.05284 0.52036 0.08878 0.0
C2736 C 0.08499 0.555 0.12165 0.0
C2737 C 0.11157 0.54269 0.16039 0.0
C2738 C 0.10063 0.54125 0.14319 0.0
C2739 C 0.06802 0.53496 0.09305 0.0
C2740 C 0.07925 0.53724 0.11031 0.0
H2741 H 0.11237 0.51839 0.19539 0.0
H2742 H 0.09247 0.52176 0.17008 0.0
H2743 H 0.10002 0.5707 0.1469 0.0
H2744 H 0.06523 0.55532 0.05527 0.0
H2745 H 0.08436 0.55845 0.08374 0.0
C2746 C 0.77334 0.8425 0.46126 0.0
C2747 C 0.78707 0.85804 0.46874 0.0
C2748 C 0.77336 0.83271 0.44344 0.0
C2749 C 0.79156 0.84133 0.40049 0.0
H2750 H 0.7788 0.78711 0.38535 0.0
C2751 C 0.80447 0.80631 0.33015 0.0
C2752 C 0.78977 0.79392 0.31955 0.0
C2753 C 0.8041 0.81235 0.34894 0.0
C2754 C 0.78232 0.80227 0.38945 0.0
H2755 H 0.81178 0.87526 0.46433 0.0
H2756 H 0.81216 0.85796 0.4336 0.0
H2757 H 0.77772 0.80098 0.41751 0.0
H2758 H 0.76368 0.77712 0.32024 0.0
H2759 H 0.76322 0.78739 0.35322 0.0
H2760 H 0.79632 0.8427 0.37261 0.0
C2761 C 0.80121 0.85346 0.4411 0.0
C2762 C 0.78163 0.81018 0.40777 0.0
C2763 C 0.80111 0.86323 0.45872 0.0
C2764 C 0.77513 0.7868 0.32817 0.0
C2765 C 0.77488 0.79258 0.347 0.0
C2766 C 0.79237 0.83345 0.38232 0.0
C2767 C 0.7871 0.83848 0.43304 0.0
C2768 C 0.78656 0.82979 0.4135 0.0
C2769 C 0.78917 0.80581 0.35742 0.0
C2770 C 0.78801 0.81387 0.3767 0.0
H2771 H 0.7623 0.83851 0.46881 0.0
H2772 H 0.7623 0.82125 0.43752 0.0
H2773 H 0.79494 0.85651 0.40437 0.0
H2774 H 0.81586 0.81204 0.32376 0.0
H2775 H 0.81533 0.82247 0.35677 0.0
C2776 C 0.46144 0.53777 0.81261 0.0
C2777 C 0.45246 0.55167 0.8089 0.0
C2778 C 0.46893 0.53736 0.83045 0.0
C2779 C 0.47054 0.55701 0.88143 0.0
H2780 H 0.51035 0.5342 0.88501 0.0
C2781 C 0.51018 0.55591 0.95283 0.0
C2782 C 0.5157 0.53935 0.95505 0.0
C2783 C 0.50267 0.55829 0.9355 0.0
C2784 C 0.49914 0.54047 0.88441 0.0
H2785 H 0.44441 0.57613 0.82211 0.0
H2786 H 0.45788 0.57577 0.85339 0.0
H2787 H 0.49753 0.53746 0.85501 0.0
H2788 H 0.5176 0.51239 0.94012 0.0
H2789 H 0.50494 0.51663 0.91013 0.0
H2790 H 0.47267 0.56042 0.91112 0.0
C2791 C 0.4589 0.56487 0.84224 0.0
C2792 C 0.49159 0.54231 0.86696 0.0
C2793 C 0.45114 0.56516 0.82415 0.0
C2794 C 0.5136 0.52537 0.93917 0.0
C2795 C 0.50635 0.52787 0.92181 0.0
C2796 C 0.47828 0.55538 0.89898 0.0
C2797 C 0.46814 0.55099 0.84575 0.0
C2798 C 0.47688 0.55031 0.86493 0.0
C2799 C 0.50061 0.54433 0.91959 0.0
C2800 C 0.49261 0.54683 0.90083 0.0
H2801 H 0.46267 0.52682 0.80158 0.0
H2802 H 0.47519 0.52596 0.83213 0.0
H2803 H 0.45926 0.56315 0.88086 0.0
H2804 H 0.5115 0.56708 0.96457 0.0
H2805 H 0.49869 0.57127 0.93456 0.0
C2806 C 0.76703 0.18993 0.06869 0.0
C2807 C 0.76945 0.17181 0.06956 0.0
C2808 C 0.76717 0.20244 0.08487 0.0
C2809 C 0.78724 0.2135 0.13166 0.0
H2810 H 0.75139 0.24089 0.14266 0.0
C2811 C 0.78365 0.24966 0.20368 0.0
C2812 C 0.78389 0.26891 0.20598 0.0
C2813 C 0.78077 0.23888 0.18618 0.0
C2814 C 0.76155 0.23349 0.13953 0.0
H2815 H 0.77342 0.15222 0.08765 0.0
H2816 H 0.77423 0.17439 0.11603 0.0
H2817 H 0.74786 0.21901 0.11322 0.0
H2818 H 0.78055 0.29192 0.19215 0.0
H2819 H 0.77508 0.27264 0.16103 0.0
H2820 H 0.80086 0.22767 0.15789 0.0
C2821 C 0.7721 0.17879 0.10286 0.0
C2822 C 0.75952 0.22102 0.12287 0.0
C2823 C 0.77164 0.16619 0.08671 0.0
C2824 C 0.78052 0.27711 0.19057 0.0
C2825 C 0.77734 0.26615 0.17292 0.0
C2826 C 0.78927 0.22591 0.14819 0.0
C2827 C 0.77007 0.19704 0.10201 0.0
C2828 C 0.77224 0.21075 0.11905 0.0
C2829 C 0.77786 0.2471 0.1707 0.0
C2830 C 0.77631 0.23571 0.15236 0.0
H2831 H 0.76501 0.19438 0.05553 0.0
H2832 H 0.7656 0.2165 0.08401 0.0
H2833 H 0.79734 0.20594 0.12875 0.0
H2834 H 0.78619 0.24298 0.21537 0.0
H2835 H 0.78104 0.22414 0.1847 0.0
C2836 C 0.11278 0.55117 0.29365 0.0
C2837 C 0.12613 0.54182 0.2898 0.0
C2838 C 0.11238 0.56036 0.31139 0.0
C2839 C 0.12453 0.55891 0.35895 0.0
H2840 H 0.11097 0.60674 0.3669 0.0
C2841 C 0.09987 0.57848 0.42477 0.0
C2842 C 0.08196 0.57726 0.42029 0.0
C2843 C 0.11152 0.58333 0.41218 0.0
C2844 C 0.11512 0.59359 0.36494 0.0
H2845 H 0.14945 0.53452 0.30132 0.0
H2846 H 0.14819 0.54991 0.3329 0.0
H2847 H 0.11948 0.59507 0.33692 0.0
H2848 H 0.06245 0.58306 0.40101 0.0
H2849 H 0.08271 0.59122 0.3788 0.0
H2850 H 0.11914 0.55671 0.38638 0.0
C2851 C 0.13825 0.55032 0.32201 0.0
C2852 C 0.11985 0.58687 0.34785 0.0
C2853 C 0.13885 0.54137 0.3041 0.0
C2854 C 0.07625 0.58386 0.40462 0.0
C2855 C 0.08788 0.58859 0.39195 0.0
C2856 C 0.1199 0.56565 0.376 0.0
C2857 C 0.12517 0.56016 0.32568 0.0
C2858 C 0.12391 0.56913 0.34455 0.0
C2859 C 0.10524 0.58674 0.395 0.0
C2860 C 0.11457 0.58272 0.37894 0.0
H2861 H 0.1031 0.55218 0.28277 0.0
H2862 H 0.10196 0.56754 0.31395 0.0
H2863 H 0.12735 0.54509 0.35666 0.0
H2864 H 0.1045 0.57366 0.43699 0.0
H2865 H 0.12493 0.58215 0.4149 0.0
C2866 C 0.78643 0.86635 0.59608 0.0
C2867 C 0.79021 0.85726 0.57926 0.0
C2868 C 0.78475 0.8571 0.61123 0.0
C2869 C 0.79808 0.81871 0.63076 0.0
H2870 H 0.76143 0.82333 0.66201 0.0
C2871 C 0.78459 0.77544 0.68896 0.0
C2872 C 0.78199 0.78518 0.70598 0.0
C2873 C 0.78545 0.78416 0.67346 0.0
C2874 C 0.77183 0.82207 0.6535 0.0
H2875 H 0.79511 0.83131 0.5651 0.0
H2876 H 0.79249 0.81525 0.59168 0.0
H2877 H 0.76281 0.83826 0.63466 0.0
H2878 H 0.77792 0.81147 0.7202 0.0
H2879 H 0.77913 0.82673 0.69293 0.0
H2880 H 0.80709 0.80252 0.64958 0.0
C2881 C 0.79082 0.82954 0.59314 0.0
C2882 C 0.77262 0.8306 0.63784 0.0
C2883 C 0.79226 0.8387 0.5779 0.0
C2884 C 0.78014 0.80377 0.70725 0.0
C2885 C 0.78067 0.8124 0.69163 0.0
C2886 C 0.79727 0.81016 0.64639 0.0
C2887 C 0.78703 0.83863 0.60998 0.0
C2888 C 0.7858 0.82908 0.62632 0.0
C2889 C 0.7834 0.80269 0.67458 0.0
C2890 C 0.78418 0.8118 0.65797 0.0
H2891 H 0.78461 0.88058 0.59752 0.0
H2892 H 0.78197 0.86456 0.62404 0.0
H2893 H 0.80855 0.81751 0.62235 0.0
H2894 H 0.78601 0.76107 0.68764 0.0
H2895 H 0.78741 0.77626 0.6605 0.0
C2896 C 0.75089 0.4524 0.52497 0.0
C2897 C 0.75172 0.44721 0.50608 0.0
C2898 C 0.73585 0.45695 0.53103 0.0
C2899 C 0.68922 0.45313 0.51532 0.0
H2900 H 0.69468 0.49701 0.5535 0.0
C2901 C 0.64175 0.50032 0.51857 0.0
C2902 C 0.63684 0.50728 0.5356 0.0
C2903 C 0.65434 0.48979 0.51781 0.0
C2904 C 0.69294 0.48447 0.54315 0.0
H2905 H 0.73812 0.44275 0.47856 0.0
H2906 H 0.71205 0.45198 0.48899 0.0
H2907 H 0.72022 0.48497 0.54625 0.0
H2908 H 0.64102 0.50866 0.56523 0.0
H2909 H 0.66352 0.49023 0.56387 0.0
H2910 H 0.66209 0.45343 0.51149 0.0
C2911 C 0.72266 0.45181 0.49922 0.0
C2912 C 0.70753 0.47758 0.53895 0.0
C2913 C 0.73756 0.44678 0.4932 0.0
C2914 C 0.6447 0.50348 0.55194 0.0
C2915 C 0.65743 0.49294 0.55118 0.0
C2916 C 0.67469 0.46011 0.51941 0.0
C2917 C 0.7216 0.45674 0.51822 0.0
C2918 C 0.70588 0.46228 0.52452 0.0
C2919 C 0.6623 0.48605 0.53407 0.0
C2920 C 0.67659 0.47623 0.53286 0.0
H2921 H 0.76169 0.4524 0.53507 0.0
H2922 H 0.73532 0.46042 0.54573 0.0
H2923 H 0.68749 0.44098 0.5045 0.0
H2924 H 0.63617 0.50342 0.50582 0.0
H2925 H 0.65824 0.48506 0.5045 0.0
C2926 C 0.20827 0.15652 0.49876 0.0
C2927 C 0.21995 0.14813 0.48886 0.0
C2928 C 0.19181 0.14583 0.5011 0.0
C2929 C 0.15838 0.10397 0.47927 0.0
H2930 H 0.14144 0.10405 0.5271 0.0
C2931 C 0.09566 0.05092 0.4871 0.0
C2932 C 0.08447 0.05611 0.49976 0.0
C2933 C 0.11223 0.06241 0.48692 0.0
C2934 C 0.14579 0.10404 0.51357 0.0
H2935 H 0.22345 0.12198 0.47366 0.0
H2936 H 0.19456 0.10351 0.47724 0.0
H2937 H 0.17003 0.12397 0.52451 0.0
H2938 H 0.08199 0.07734 0.5224 0.0
H2939 H 0.11066 0.09806 0.52152 0.0
H2940 H 0.1342 0.08474 0.46806 0.0
C2941 C 0.19819 0.11831 0.48331 0.0
C2942 C 0.16224 0.11542 0.51213 0.0
C2943 C 0.21474 0.12888 0.48127 0.0
C2944 C 0.09032 0.07303 0.51242 0.0
C2945 C 0.10684 0.08482 0.51199 0.0
C2946 C 0.1419 0.09289 0.48063 0.0
C2947 C 0.18654 0.12663 0.49327 0.0
C2948 C 0.1688 0.1153 0.49497 0.0
C2949 C 0.118 0.07975 0.49908 0.0
C2950 C 0.1354 0.09245 0.49783 0.0
H2951 H 0.21194 0.17129 0.50493 0.0
H2952 H 0.18308 0.15266 0.50876 0.0
H2953 H 0.16292 0.10382 0.46581 0.0
H2954 H 0.0917 0.03778 0.47739 0.0
H2955 H 0.12052 0.05756 0.47719 0.0
C2956 C 0.17493 0.93775 0.76593 0.0
C2957 C 0.18271 0.95509 0.76085 0.0
C2958 C 0.18334 0.9224 0.76485 0.0
C2959 C 0.22165 0.90417 0.74482 0.0
H2960 H 0.21173 0.86806 0.77758 0.0
C2961 C 0.26383 0.84712 0.75107 0.0
C2962 C 0.256 0.82915 0.75476 0.0
C2963 C 0.25457 0.86169 0.75108 0.0
C2964 C 0.21467 0.87779 0.76809 0.0
H2965 H 0.20592 0.96897 0.75024 0.0
H2966 H 0.22038 0.94271 0.7483 0.0
H2967 H 0.19695 0.89397 0.77905 0.0
H2968 H 0.23163 0.81312 0.76145 0.0
H2969 H 0.21576 0.83836 0.76192 0.0
H2970 H 0.23955 0.88806 0.73405 0.0
C2971 C 0.20763 0.94073 0.75316 0.0
C2972 C 0.20601 0.89293 0.76891 0.0
C2973 C 0.19929 0.95613 0.75442 0.0
C2974 C 0.23835 0.82654 0.75847 0.0
C2975 C 0.22919 0.84127 0.75887 0.0
C2976 C 0.23038 0.88911 0.74408 0.0
C2977 C 0.19998 0.92337 0.75843 0.0
C2978 C 0.20925 0.90667 0.75734 0.0
C2979 C 0.23703 0.85931 0.75517 0.0
C2980 C 0.22721 0.87547 0.75573 0.0
H2981 H 0.16223 0.93599 0.77091 0.0
H2982 H 0.1765 0.90958 0.76889 0.0
H2983 H 0.22459 0.91378 0.73524 0.0
H2984 H 0.27729 0.85002 0.74811 0.0
H2985 H 0.26147 0.8751 0.74826 0.0
C2986 C 0.36214 0.93625 0.99834 0.0
C2987 C 0.3527 0.93956 0.01328 0.0
C2988 C 0.37983 0.9449 0.99999 0.0
C2989 C 0.41791 0.97387 0.03002 0.0
H2990 H 0.41913 0.00527 0.99222 0.0
C2991 C 0.48093 0.01434 0.02395 0.0
C2992 C 0.48513 1.00435 0.00773 0.0
C2993 C 0.46393 0.01595 0.02538 0.0
C2994 C 0.41872 0.99692 0.00309 0.0
H2995 H 0.35432 0.9508 0.04239 0.0
H2996 H 0.38546 0.96559 0.0454 0.0
H2997 H 0.39244 0.98167 0.99364 0.0
H2998 H 0.47578 0.99151 0.97926 0.0
H2999 H 0.44552 0.99282 0.9823 0.0
H3000 H 0.44429 0.98833 0.03905 0.0
C3001 C 0.37922 0.9569 0.03239 0.0
C3002 C 0.40375 0.9832 0.00364 0.0
C3003 C 0.36149 0.94852 0.03067 0.0
C3004 C 0.47259 0.99825 0.99221 0.0
C3005 C 0.45545 0.99962 0.99378 0.0
C3006 C 0.43284 0.98757 0.0295 0.0
C3007 C 0.38796 0.95649 0.01665 0.0
C3008 C 0.40361 0.97111 0.0166 0.0
C3009 C 0.45086 0.00693 0.01092 0.0
C3010 C 0.4336 0.99856 0.01548 0.0
H3011 H 0.35552 0.92914 0.98487 0.0
H3012 H 0.38665 0.9442 0.98783 0.0
H3013 H 0.4178 0.96488 0.04032 0.0
H3014 H 0.49057 0.02043 0.03586 0.0
H3015 H 0.46064 0.02203 0.03856 0.0
C3016 C 0.8619 0.56253 0.76964 0.0
C3017 C 0.8783 0.56772 0.78042 0.0
C3018 C 0.85521 0.57598 0.7619 0.0
C3019 C 0.86132 0.62721 0.76346 0.0
H3020 H 0.8394 0.61157 0.71278 0.0
C3021 C 0.83604 0.67982 0.72982 0.0
C3022 C 0.81774 0.6737 0.72617 0.0
C3023 C 0.84631 0.66676 0.73061 0.0
C3024 C 0.84572 0.61612 0.72684 0.0
H3025 H 0.89962 0.59123 0.79327 0.0
H3026 H 0.88819 0.61448 0.77961 0.0
H3027 H 0.85022 0.58896 0.72882 0.0
H3028 H 0.796 0.64943 0.71785 0.0
H3029 H 0.81392 0.62656 0.7194 0.0
H3030 H 0.85672 0.65422 0.76165 0.0
C3031 C 0.88042 0.60015 0.77704 0.0
C3032 C 0.85166 0.60317 0.73612 0.0
C3033 C 0.88697 0.5868 0.78494 0.0
C3034 C 0.8101 0.65444 0.72073 0.0
C3035 C 0.82037 0.64136 0.72159 0.0
C3036 C 0.85562 0.64015 0.75414 0.0
C3037 C 0.86486 0.59474 0.76483 0.0
C3038 C 0.85914 0.60852 0.75467 0.0
C3039 C 0.83834 0.6475 0.72788 0.0
C3040 C 0.84743 0.63463 0.7359 0.0
H3041 H 0.85487 0.54793 0.766 0.0
H3042 H 0.84287 0.57153 0.75303 0.0
H3043 H 0.86683 0.63174 0.77779 0.0
H3044 H 0.8422 0.69466 0.73378 0.0
H3045 H 0.86021 0.67177 0.73517 0.0
C3046 C 0.83292 0.65147 0.99263 0.0
C3047 C 0.82277 0.65376 0.00718 0.0
C3048 C 0.84926 0.64706 0.9958 0.0
C3049 C 0.87261 0.62531 0.02904 0.0
H3050 H 0.91164 0.63911 0.00132 0.0
C3051 C 0.9344 0.59578 0.03791 0.0
C3052 C 0.94057 0.58933 0.02135 0.0
C3053 C 0.92204 0.60687 0.03795 0.0
C3054 C 0.90082 0.63509 0.00915 0.0
H3055 H 0.82219 0.65495 0.03659 0.0
H3056 H 0.85083 0.64816 0.04229 0.0
H3057 H 0.88643 0.65308 0.99781 0.0
H3058 H 0.93859 0.58944 0.99192 0.0
H3059 H 0.91705 0.60848 0.99194 0.0
H3060 H 0.88674 0.60702 0.04006 0.0
C3061 C 0.84604 0.64887 0.02831 0.0
C3062 C 0.88635 0.64308 0.0071 0.0
C3063 C 0.82967 0.65288 0.02508 0.0
C3064 C 0.93438 0.5945 0.00497 0.0
C3065 C 0.92202 0.60546 0.00499 0.0
C3066 C 0.88705 0.61736 0.0311 0.0
C3067 C 0.85579 0.6452 0.01364 0.0
C3068 C 0.87192 0.63805 0.0168 0.0
C3069 C 0.91553 0.61163 0.02142 0.0
C3070 C 0.90119 0.62185 0.0209 0.0
H3071 H 0.82784 0.65209 0.97871 0.0
H3072 H 0.85635 0.64424 0.98414 0.0
H3073 H 0.86164 0.62081 0.03653 0.0
H3074 H 0.93903 0.59215 0.05079 0.0
H3075 H 0.91747 0.61157 0.05089 0.0
C3076 C 0.19792 0.08061 0.77338 0.0
C3077 C 0.18087 0.07419 0.76379 0.0
C3078 C 0.20808 0.09909 0.77335 0.0
C3079 C 0.21068 0.14121 0.74829 0.0
H3080 H 0.24164 0.16857 0.79182 0.0
C3081 C 0.24753 0.22171 0.75423 0.0
C3082 C 0.26469 0.22743 0.76365 0.0
C3083 C 0.23681 0.20349 0.75434 0.0
C3084 C 0.23325 0.16123 0.77936 0.0
H3085 H 0.16175 0.08277 0.74615 0.0
H3086 H 0.17905 0.11411 0.74602 0.0
H3087 H 0.22539 0.13646 0.79144 0.0
H3088 H 0.28348 0.21806 0.78083 0.0
H3089 H 0.26521 0.18727 0.78131 0.0
H3090 H 0.21857 0.16603 0.73622 0.0
C3091 C 0.18482 0.1051 0.75365 0.0
C3092 C 0.22382 0.14252 0.77914 0.0
C3093 C 0.1747 0.08688 0.75386 0.0
C3094 C 0.27039 0.21447 0.77349 0.0
C3095 C 0.25972 0.19657 0.77382 0.0
C3096 C 0.22013 0.15994 0.7485 0.0
C3097 C 0.20172 0.11183 0.7635 0.0
C3098 C 0.21229 0.13198 0.7636 0.0
C3099 C 0.24273 0.19041 0.7641 0.0
C3100 C 0.23175 0.17044 0.76402 0.0
H3101 H 0.20332 0.07152 0.78125 0.0
H3102 H 0.22102 0.10332 0.78102 0.0
H3103 H 0.20228 0.13386 0.73583 0.0
H3104 H 0.2426 0.231 0.74624 0.0
H3105 H 0.22384 0.19966 0.74672 0.0
C3106 C 0.39486 0.95889 0.28238 0.0
C3107 C 0.40203 0.96327 0.26643 0.0
C3108 C 0.38163 0.94284 0.28126 0.0
C3109 C 0.35554 0.90023 0.25053 0.0
H3110 H 0.3173 0.91473 0.27477 0.0
C3111 C 0.29385 0.84757 0.24121 0.0
C3112 C 0.29303 0.84167 0.25835 0.0
C3113 C 0.30212 0.86597 0.24048 0.0
C3114 C 0.32782 0.91071 0.26774 0.0
H3115 H 0.40283 0.95379 0.23736 0.0
H3116 H 0.37919 0.92581 0.23518 0.0
H3117 H 0.3458 0.93686 0.27863 0.0
H3118 H 0.29633 0.85088 0.28805 0.0
H3119 H 0.31114 0.88294 0.28675 0.0
H3120 H 0.33764 0.87402 0.23981 0.0
C3121 C 0.38385 0.93458 0.24857 0.0
C3122 C 0.34416 0.92312 0.27021 0.0
C3123 C 0.39733 0.95053 0.24977 0.0
C3124 C 0.29748 0.85501 0.27467 0.0
C3125 C 0.3057 0.87344 0.27392 0.0
C3126 C 0.33917 0.88791 0.24793 0.0
C3127 C 0.37523 0.93131 0.26409 0.0
C3128 C 0.3582 0.91784 0.26184 0.0
C3129 C 0.30955 0.87839 0.25688 0.0
C3130 C 0.32528 0.89301 0.25667 0.0
H3131 H 0.39865 0.96854 0.29541 0.0
H3132 H 0.37553 0.94022 0.29353 0.0
H3133 H 0.36617 0.89584 0.24401 0.0
H3134 H 0.28982 0.83764 0.22839 0.0
H3135 H 0.30469 0.86977 0.22719 0.0
C3136 C 0.55601 0.34812 0.5674 0.0
C3137 C 0.56346 0.35214 0.58598 0.0
C3138 C 0.55285 0.36258 0.55832 0.0
C3139 C 0.56847 0.41235 0.55817 0.0
H3140 H 0.52183 0.4123 0.5367 0.0
C3141 C 0.55339 0.47994 0.54009 0.0
C3142 C 0.54077 0.47931 0.52532 0.0
C3143 C 0.55571 0.46349 0.54587 0.0
C3144 C 0.53502 0.41243 0.54227 0.0
H3145 H 0.57361 0.37445 0.60948 0.0
H3146 H 0.56864 0.39973 0.59342 0.0
H3147 H 0.52696 0.38497 0.54935 0.0
H3148 H 0.52056 0.46086 0.50496 0.0
H3149 H 0.52518 0.4318 0.51446 0.0
H3150 H 0.57687 0.4393 0.55076 0.0
C3151 C 0.56506 0.38537 0.586 0.0
C3152 C 0.5379 0.39679 0.5496 0.0
C3153 C 0.56787 0.37091 0.59519 0.0
C3154 C 0.53042 0.46176 0.5164 0.0
C3155 C 0.53301 0.44512 0.52195 0.0
C3156 C 0.56572 0.42774 0.55053 0.0
C3157 C 0.55745 0.38134 0.56753 0.0
C3158 C 0.55457 0.39686 0.55803 0.0
C3159 C 0.54578 0.44578 0.53675 0.0
C3160 C 0.54885 0.42831 0.54298 0.0
H3161 H 0.55239 0.33377 0.55998 0.0
H3162 H 0.54702 0.35916 0.54404 0.0
H3163 H 0.58152 0.41259 0.56432 0.0
H3164 H 0.56135 0.49327 0.54751 0.0
H3165 H 0.56521 0.46479 0.55773 0.0
C3166 C 0.43953 0.75362 0.36604 0.0
C3167 C 0.45413 0.76896 0.36907 0.0
C3168 C 0.42318 0.75548 0.35817 0.0
C3169 C 0.40569 0.78551 0.3287 0.0
H3170 H 0.36014 0.76012 0.33929 0.0
C3171 C 0.3414 0.79676 0.29268 0.0
C3172 C 0.32882 0.78014 0.2852 0.0
C3173 C 0.35587 0.79627 0.30494 0.0
C3174 C 0.37279 0.76727 0.33615 0.0
H3175 H 0.4627 0.79858 0.36788 0.0
H3176 H 0.43448 0.80197 0.35492 0.0
H3177 H 0.38669 0.75712 0.35724 0.0
H3178 H 0.32099 0.75026 0.28526 0.0
H3179 H 0.34579 0.74946 0.30702 0.0
H3180 H 0.39191 0.79555 0.30758 0.0
C3181 C 0.43557 0.7883 0.35777 0.0
C3182 C 0.38801 0.76549 0.3464 0.0
C3183 C 0.45177 0.78639 0.36535 0.0
C3184 C 0.33053 0.76326 0.29082 0.0
C3185 C 0.34471 0.76283 0.30336 0.0
C3186 C 0.39053 0.78736 0.31856 0.0
C3187 C 0.42117 0.77276 0.35338 0.0
C3188 C 0.4047 0.77458 0.3428 0.0
C3189 C 0.3578 0.77923 0.31028 0.0
C3190 C 0.37386 0.7782 0.32206 0.0
H3191 H 0.44096 0.74002 0.36879 0.0
H3192 H 0.41237 0.7432 0.35503 0.0
H3193 H 0.41826 0.79237 0.32515 0.0
H3194 H 0.34045 0.80994 0.28845 0.0
H3195 H 0.36565 0.80918 0.3101 0.0
C3196 C 0.06786 0.74005 0.0706 0.0
C3197 C 0.05751 0.74361 0.08467 0.0
C3198 C 0.06459 0.72211 0.05983 0.0
C3199 C 0.0454 0.67375 0.06532 0.0
H3200 H 0.05442 0.6604 0.01472 0.0
C3201 C 0.02826 0.59836 0.02661 0.0
C3202 C 0.04271 0.59158 0.02109 0.0
C3203 C 0.02987 0.61751 0.0322 0.0
C3204 C 0.05198 0.66409 0.02889 0.0
H3205 H 0.0348 0.73243 0.09758 0.0
H3206 H 0.02844 0.70143 0.07821 0.0
H3207 H 0.05583 0.69343 0.02758 0.0
H3208 H 0.06996 0.59936 0.01649 0.0
H3209 H 0.07263 0.63334 0.02599 0.0
H3210 H 0.04122 0.64446 0.0665 0.0
C3211 C 0.03951 0.71203 0.07589 0.0
C3212 C 0.05276 0.68288 0.03623 0.0
C3213 C 0.04301 0.72975 0.08687 0.0
C3214 C 0.05868 0.60432 0.02072 0.0
C3215 C 0.06017 0.62363 0.02601 0.0
C3216 C 0.0444 0.65508 0.05792 0.0
C3217 C 0.05081 0.70771 0.06295 0.0
C3218 C 0.04939 0.68787 0.05453 0.0
C3219 C 0.04583 0.63022 0.03207 0.0
C3220 C 0.04764 0.65013 0.0397 0.0
H3221 H 0.07912 0.7507 0.06881 0.0
H3222 H 0.07353 0.71923 0.04999 0.0
H3223 H 0.04331 0.67712 0.07963 0.0
H3224 H 0.01583 0.58885 0.0272 0.0
H3225 H 0.01869 0.62239 0.03691 0.0
C3226 C 0.05852 0.26067 0.865 0.0
C3227 C 0.05663 0.26917 0.88282 0.0
C3228 C 0.07449 0.26516 0.85784 0.0
C3229 C 0.11525 0.30053 0.86008 0.0
H3230 H 0.1331 0.25771 0.84005 0.0
C3231 C 0.18148 0.30668 0.82741 0.0
C3232 C 0.18125 0.29274 0.81206 0.0
C3233 C 0.16708 0.30552 0.83762 0.0
C3234 C 0.12825 0.26987 0.84535 0.0
H3235 H 0.0699 0.28955 0.9069 0.0
H3236 H 0.09778 0.29754 0.89417 0.0
H3237 H 0.10626 0.25267 0.85445 0.0
H3238 H 0.16551 0.26753 0.79459 0.0
H3239 H 0.14041 0.26581 0.81171 0.0
H3240 H 0.13705 0.3177 0.8503 0.0
C3241 C 0.0869 0.28732 0.88586 0.0
C3242 C 0.11288 0.26694 0.85369 0.0
C3243 C 0.07097 0.28261 0.89317 0.0
C3244 C 0.16619 0.27819 0.80664 0.0
C3245 C 0.15184 0.27717 0.81656 0.0
C3246 C 0.13062 0.30348 0.85142 0.0
C3247 C 0.08886 0.27843 0.86821 0.0
C3248 C 0.10599 0.28215 0.86078 0.0
C3249 C 0.15219 0.29049 0.83247 0.0
C3250 C 0.13704 0.28809 0.84351 0.0
H3251 H 0.04771 0.25038 0.85666 0.0
H3252 H 0.07562 0.2582 0.84412 0.0
H3253 H 0.11024 0.31252 0.86555 0.0
H3254 H 0.19294 0.31814 0.83177 0.0
H3255 H 0.16781 0.31605 0.84976 0.0
C3256 C 0.56824 0.74327 0.89783 0.0
C3257 C 0.56776 0.76069 0.90816 0.0
C3258 C 0.56119 0.72667 0.90389 0.0
C3259 C 0.52908 0.70647 0.93232 0.0
H3260 H 0.55734 0.66981 0.93499 0.0
C3261 C 0.51861 0.65026 0.9781 0.0
C3262 C 0.52317 0.63314 0.97229 0.0
C3263 C 0.52046 0.66399 0.96699 0.0
C3264 C 0.5491 0.67967 0.9339 0.0
H3265 H 0.5596 0.77468 0.93278 0.0
H3266 H 0.547 0.74538 0.94342 0.0
H3267 H 0.56868 0.69819 0.92281 0.0
H3268 H 0.5314 0.61611 0.94956 0.0
H3269 H 0.53479 0.64027 0.93017 0.0
H3270 H 0.50961 0.68807 0.94377 0.0
C3271 C 0.55288 0.74467 0.93066 0.0
C3272 C 0.55566 0.69596 0.92706 0.0
C3273 C 0.56024 0.76135 0.92473 0.0
C3274 C 0.52821 0.62939 0.95455 0.0
C3275 C 0.5301 0.64315 0.94345 0.0
C3276 C 0.52246 0.6901 0.93909 0.0
C3277 C 0.55329 0.72723 0.92023 0.0
C3278 C 0.54583 0.70961 0.92653 0.0
C3279 C 0.52692 0.66084 0.94992 0.0
C3280 C 0.53255 0.67673 0.94024 0.0
H3281 H 0.574 0.74248 0.88498 0.0
H3282 H 0.56162 0.71337 0.89563 0.0
H3283 H 0.52119 0.71674 0.93175 0.0
H3284 H 0.5148 0.65361 0.99175 0.0
H3285 H 0.51804 0.67756 0.97239 0.0
C3286 C 0.05045 0.75247 0.66032 0.0
C3287 C 0.04254 0.76769 0.66356 0.0
C3288 C 0.066 0.75271 0.67082 0.0
C3289 C 0.09368 0.77697 0.71448 0.0
H3290 H 0.12766 0.75245 0.69233 0.0
C3291 C 0.16752 0.78171 0.73986 0.0
C3292 C 0.1705 0.76401 0.74174 0.0
C3293 C 0.1509 0.78323 0.7332 0.0
C3294 C 0.1182 0.75929 0.69861 0.0
H3295 H 0.04441 0.7952 0.67968 0.0
H3296 H 0.07241 0.79635 0.69725 0.0
H3297 H 0.10126 0.75358 0.67339 0.0
H3298 H 0.15866 0.73427 0.73912 0.0
H3299 H 0.12963 0.73693 0.72706 0.0
H3300 H 0.11134 0.78329 0.73956 0.0
C3301 C 0.06633 0.78389 0.68718 0.0
C3302 C 0.10305 0.75984 0.68787 0.0
C3303 C 0.05049 0.78338 0.67702 0.0
C3304 C 0.15653 0.74807 0.738 0.0
C3305 C 0.14004 0.74955 0.73106 0.0
C3306 C 0.10907 0.77675 0.72514 0.0
C3307 C 0.07413 0.76843 0.68439 0.0
C3308 C 0.09052 0.76851 0.69572 0.0
C3309 C 0.13732 0.76702 0.72814 0.0
C3310 C 0.12124 0.76773 0.71724 0.0
H3311 H 0.04421 0.74004 0.65023 0.0
H3312 H 0.07138 0.74037 0.66859 0.0
H3313 H 0.08417 0.78349 0.72104 0.0
H3314 H 0.17823 0.79412 0.74265 0.0
H3315 H 0.14893 0.79677 0.73083 0.0
C3316 C 0.09084 0.37967 0.42146 0.0
C3317 C 0.08713 0.37584 0.40221 0.0
C3318 C 0.08473 0.39381 0.43174 0.0
C3319 C 0.06421 0.43407 0.42912 0.0
H3320 H 0.04576 0.41951 0.47322 0.0
C3321 C 0.02728 0.47836 0.47675 0.0
C3322 C 0.03497 0.48228 0.49519 0.0
C3323 C 0.03204 0.46487 0.46399 0.0
C3324 C 0.05081 0.4237 0.46091 0.0
H3325 H 0.07491 0.38421 0.37841 0.0
H3326 H 0.06374 0.40857 0.39643 0.0
H3327 H 0.05874 0.39803 0.4536 0.0
H3328 H 0.05314 0.47496 0.51495 0.0
H3329 H 0.0612 0.45133 0.49284 0.0
H3330 H 0.05611 0.45982 0.43663 0.0
C3331 C 0.07168 0.40098 0.40359 0.0
C3332 C 0.05841 0.41153 0.44978 0.0
C3333 C 0.0781 0.38706 0.39328 0.0
C3334 C 0.04697 0.47215 0.50083 0.0
C3335 C 0.05156 0.45862 0.4882 0.0
C3336 C 0.05645 0.44624 0.44024 0.0
C3337 C 0.07443 0.40404 0.42295 0.0
C3338 C 0.06561 0.41678 0.43405 0.0
C3339 C 0.04429 0.455 0.46967 0.0
C3340 C 0.05009 0.44128 0.45644 0.0
H3341 H 0.09789 0.37126 0.42859 0.0
H3342 H 0.08751 0.39627 0.44663 0.0
H3343 H 0.06962 0.43847 0.41706 0.0
H3344 H 0.01798 0.48604 0.47212 0.0
H3345 H 0.02624 0.4622 0.44973 0.0
C3346 C 0.43369 0.25858 0.16829 0.0
C3347 C 0.44167 0.244 0.17163 0.0
C3348 C 0.41914 0.26113 0.17692 0.0
C3349 C 0.40318 0.25252 0.22017 0.0
H3350 H 0.36596 0.27521 0.20388 0.0
C3351 C 0.34337 0.26131 0.25691 0.0
C3352 C 0.33803 0.27814 0.25641 0.0
C3353 C 0.35804 0.25837 0.24875 0.0
C3354 C 0.3765 0.26912 0.20858 0.0
H3355 H 0.43954 0.21907 0.18414 0.0
H3356 H 0.41356 0.22304 0.19864 0.0
H3357 H 0.38431 0.26415 0.18156 0.0
H3358 H 0.34486 0.30599 0.2491 0.0
H3359 H 0.37038 0.30061 0.23456 0.0
H3360 H 0.39504 0.25712 0.24709 0.0
C3361 C 0.419 0.23298 0.1901 0.0
C3362 C 0.38685 0.26267 0.19584 0.0
C3363 C 0.43377 0.23067 0.18179 0.0
C3364 C 0.34864 0.29281 0.24958 0.0
C3365 C 0.36315 0.28976 0.24117 0.0
C3366 C 0.39272 0.25877 0.23283 0.0
C3367 C 0.41231 0.2489 0.18869 0.0
C3368 C 0.40027 0.25431 0.20155 0.0
C3369 C 0.36733 0.27218 0.23991 0.0
C3370 C 0.37939 0.26714 0.2271 0.0
H3371 H 0.43956 0.26896 0.16037 0.0
H3372 H 0.41424 0.27352 0.17558 0.0
H3373 H 0.41378 0.24663 0.22507 0.0
H3374 H 0.33547 0.2499 0.2623 0.0
H3375 H 0.36117 0.24472 0.2479 0.0
C3376 C 0.62492 0.50625 0.3346 0.0
C3377 C 0.61894 0.51513 0.32047 0.0
C3378 C 0.61763 0.50679 0.3518 0.0
C3379 C 0.5883 0.5327 0.38062 0.0
H3380 H 0.58862 0.49477 0.41131 0.0
C3381 C 0.54744 0.5301 0.4439 0.0
C3382 C 0.55374 0.52468 0.46023 0.0
C3383 C 0.5561 0.52903 0.42782 0.0
C3384 C 0.58848 0.50567 0.40308 0.0
H3385 H 0.59976 0.53114 0.31418 0.0
H3386 H 0.5873 0.53166 0.34284 0.0
H3387 H 0.60172 0.4923 0.38228 0.0
H3388 H 0.57436 0.51308 0.47161 0.0
H3389 H 0.58945 0.51099 0.44356 0.0
H3390 H 0.57491 0.54593 0.40116 0.0
C3391 C 0.59797 0.5247 0.3413 0.0
C3392 C 0.59612 0.50425 0.38618 0.0
C3393 C 0.60519 0.52421 0.32438 0.0
C3394 C 0.56921 0.51792 0.45966 0.0
C3395 C 0.57776 0.51646 0.44331 0.0
C3396 C 0.58055 0.53399 0.39731 0.0
C3397 C 0.60404 0.51627 0.35571 0.0
C3398 C 0.59618 0.5177 0.37436 0.0
C3399 C 0.5714 0.52198 0.42693 0.0
C3400 C 0.58034 0.52053 0.40904 0.0
H3401 H 0.63533 0.49898 0.33248 0.0
H3402 H 0.62296 0.50001 0.36216 0.0
H3403 H 0.58824 0.54387 0.37275 0.0
H3404 H 0.53543 0.53501 0.44342 0.0
H3405 H 0.55034 0.53323 0.41579 0.0
C3406 C 0.30168 0.9104 0.06845 0.0
C3407 C 0.29908 0.89897 0.05101 0.0
C3408 C 0.30795 0.90407 0.08387 0.0
C3409 C 0.33451 0.87306 0.09757 0.0
H3410 H 0.31103 0.87575 0.14169 0.0
C3411 C 0.33948 0.82914 0.15384 0.0
C3412 C 0.33569 0.8361 0.17144 0.0
C3413 C 0.34063 0.84039 0.14032 0.0
C3414 C 0.31806 0.87541 0.12968 0.0
H3415 H 0.30073 0.87203 0.03576 0.0
H3416 H 0.31189 0.86093 0.06292 0.0
H3417 H 0.29959 0.88686 0.11501 0.0
H3418 H 0.33303 0.86092 0.18976 0.0
H3419 H 0.33529 0.88075 0.16612 0.0
H3420 H 0.35281 0.86122 0.11218 0.0
C3421 C 0.309 0.87473 0.06459 0.0
C3422 C 0.31137 0.88156 0.11437 0.0
C3423 C 0.30242 0.88094 0.04918 0.0
C3424 C 0.33559 0.85519 0.17612 0.0
C3425 C 0.33684 0.86647 0.16263 0.0
C3426 C 0.3413 0.86698 0.11298 0.0
C3427 C 0.31199 0.88637 0.08197 0.0
C3428 C 0.31941 0.88021 0.09817 0.0
C3429 C 0.33807 0.85871 0.14433 0.0
C3430 C 0.333 0.86791 0.12909 0.0
H3431 H 0.29926 0.92441 0.07009 0.0
H3432 H 0.3102 0.91326 0.09718 0.0
H3433 H 0.34101 0.87214 0.0852 0.0
H3434 H 0.33962 0.81445 0.14989 0.0
H3435 H 0.34161 0.83403 0.12634 0.0
C3436 C 0.94684 0.53713 0.83908 0.0
C3437 C 0.94801 0.52316 0.82446 0.0
C3438 C 0.95219 0.53557 0.85708 0.0
C3439 C 0.98263 0.5133 0.88006 0.0
H3440 H 0.96661 0.53593 0.92446 0.0
C3441 C 0.01205 0.51196 0.95272 0.0
C3442 C 0.02142 0.52995 0.96137 0.0
C3443 C 0.00028 0.50989 0.93713 0.0
C3444 C 0.97105 0.52955 0.91207 0.0
H3445 H 0.95341 0.49568 0.81676 0.0
H3446 H 0.96203 0.49248 0.84829 0.0
H3447 H 0.94918 0.53245 0.89449 0.0
H3448 H 0.02562 0.5599 0.96165 0.0
H3449 H 0.00444 0.55625 0.93412 0.0
H3450 H 0.00435 0.51027 0.89765 0.0
C3451 C 0.95794 0.50508 0.84593 0.0
C3452 C 0.96119 0.52756 0.89504 0.0
C3453 C 0.95313 0.50693 0.82795 0.0
C3454 C 0.01862 0.54595 0.95478 0.0
C3455 C 0.00646 0.54388 0.93938 0.0
C3456 C 0.99223 0.51497 0.89703 0.0
C3457 C 0.95827 0.51976 0.86057 0.0
C3458 C 0.9671 0.51971 0.87886 0.0
C3459 C 0.99747 0.52582 0.93044 0.0
C3460 C 0.98662 0.52336 0.91299 0.0
H3461 H 0.94253 0.54956 0.83651 0.0
H3462 H 0.95239 0.54716 0.86808 0.0
H3463 H 0.98781 0.50766 0.86784 0.0
H3464 H 0.01408 0.49952 0.95783 0.0
H3465 H 0.9935 0.49588 0.93015 0.0
C3466 C 0.27726 0.22627 0.55282 0.0
C3467 C 0.28182 0.20882 0.55131 0.0
C3468 C 0.27907 0.23775 0.57013 0.0
C3469 C 0.30045 0.24655 0.61771 0.0
H3470 H 0.25583 0.25332 0.63273 0.0
C3471 C 0.28955 0.25466 0.69318 0.0
C3472 C 0.27966 0.26719 0.70024 0.0
C3473 C 0.29027 0.25047 0.67431 0.0
C3474 C 0.26847 0.25195 0.62871 0.0
H3475 H 0.29306 0.19024 0.56611 0.0
H3476 H 0.29674 0.21049 0.59616 0.0
H3477 H 0.25809 0.24251 0.60025 0.0
H3478 H 0.26226 0.28472 0.69316 0.0
H3479 H 0.26379 0.27767 0.65985 0.0
H3480 H 0.31087 0.25566 0.64605 0.0
C3481 C 0.29154 0.21522 0.58415 0.0
C3482 C 0.26976 0.2458 0.61012 0.0
C3483 C 0.28933 0.2036 0.56701 0.0
C3484 C 0.26995 0.27498 0.688 0.0
C3485 C 0.27086 0.27096 0.66899 0.0
C3486 C 0.29924 0.25292 0.6362 0.0
C3487 C 0.28594 0.2321 0.58595 0.0
C3488 C 0.28561 0.24244 0.60461 0.0
C3489 C 0.28134 0.25894 0.66201 0.0
C3490 C 0.28308 0.25498 0.64203 0.0
H3491 H 0.27142 0.23051 0.54084 0.0
H3492 H 0.27469 0.25075 0.57126 0.0
H3493 H 0.31283 0.24417 0.61372 0.0
H3494 H 0.29691 0.24816 0.7023 0.0
H3495 H 0.29794 0.24062 0.66939 0.0
C3496 C 0.63436 0.51338 0.19518 0.0
C3497 C 0.62508 0.50502 0.20848 0.0
C3498 C 0.62569 0.51584 0.1785 0.0
C3499 C 0.58301 0.49967 0.14655 0.0
H3500 H 0.60168 0.54382 0.12579 0.0
C3501 C 0.55739 0.50818 0.07162 0.0
C3502 C 0.55727 0.5263 0.06784 0.0
C3503 C 0.56479 0.50555 0.08888 0.0
C3504 C 0.59607 0.53142 0.13131 0.0
H3505 H 0.59895 0.4925 0.21401 0.0
H3506 H 0.58388 0.4965 0.18496 0.0
H3507 H 0.61561 0.53946 0.15496 0.0
H3508 H 0.56495 0.55589 0.07998 0.0
H3509 H 0.57773 0.5514 0.10977 0.0
H3510 H 0.56333 0.49176 0.12293 0.0
C3511 C 0.598 0.50123 0.18741 0.0
C3512 C 0.6043 0.52876 0.14814 0.0
C3513 C 0.60669 0.49898 0.20426 0.0
C3514 C 0.56472 0.54168 0.08213 0.0
C3515 C 0.57225 0.53907 0.09934 0.0
C3516 C 0.57482 0.50227 0.12962 0.0
C3517 C 0.6073 0.50987 0.17419 0.0
C3518 C 0.59805 0.51279 0.15615 0.0
C3519 C 0.57257 0.52095 0.10312 0.0
C3520 C 0.58118 0.5182 0.12155 0.0
H3521 H 0.64847 0.5183 0.19773 0.0
H3522 H 0.63357 0.52229 0.16884 0.0
H3523 H 0.57765 0.4871 0.15193 0.0
H3524 H 0.55182 0.4959 0.06116 0.0
H3525 H 0.56476 0.49134 0.09085 0.0
C3526 C 0.30534 0.90177 0.92949 0.0
C3527 C 0.29975 0.89498 0.94525 0.0
C3528 C 0.30665 0.88918 0.91381 0.0
C3529 C 0.28825 0.84032 0.89185 0.0
H3530 H 0.32519 0.84928 0.86045 0.0
C3531 C 0.28837 0.78851 0.82589 0.0
C3532 C 0.28986 0.79716 0.81031 0.0
C3533 C 0.29258 0.79945 0.84351 0.0
C3534 C 0.31486 0.84662 0.86918 0.0
H3535 H 0.29207 0.86989 0.9574 0.0
H3536 H 0.29458 0.84815 0.93028 0.0
H3537 H 0.32675 0.87113 0.88932 0.0
H3538 H 0.2974 0.82373 0.80067 0.0
H3539 H 0.30472 0.84272 0.83132 0.0
H3540 H 0.27613 0.81612 0.87162 0.0
C3541 C 0.29751 0.86306 0.9298 0.0
C3542 C 0.3157 0.85912 0.88557 0.0
C3543 C 0.29606 0.87555 0.94532 0.0
C3544 C 0.29624 0.81671 0.8125 0.0
C3545 C 0.30054 0.82758 0.83003 0.0
C3546 C 0.28744 0.82782 0.87554 0.0
C3547 C 0.30248 0.8697 0.91381 0.0
C3548 C 0.30228 0.85617 0.89691 0.0
C3549 C 0.29842 0.81909 0.84566 0.0
C3550 C 0.3006 0.83101 0.86396 0.0
H3551 H 0.30841 0.91671 0.92917 0.0
H3552 H 0.31041 0.89462 0.90156 0.0
H3553 H 0.27756 0.83788 0.90019 0.0
H3554 H 0.28349 0.77344 0.82448 0.0
H3555 H 0.29091 0.79262 0.85543 0.0
C3556 C 0.91772 0.51486 0.7081 0.0
C3557 C 0.92861 0.5273 0.72289 0.0
C3558 C 0.925 0.50613 0.69363 0.0
C3559 C 0.96528 0.51049 0.67151 0.0
H3560 H 0.9458 0.45784 0.65044 0.0
C3561 C -0.00164 0.4787 0.61744 0.0
C3562 C 0.98872 0.48071 0.60132 0.0
C3563 C 0.99005 0.47607 0.63306 0.0
C3564 C 0.95141 0.47244 0.65645 0.0
H3565 H 0.9555 0.54108 0.73383 0.0
H3566 H 0.9682 0.52581 0.70865 0.0
H3567 H 0.93346 0.47279 0.6767 0.0
H3568 H 0.96263 0.47775 0.58755 0.0
H3569 H 0.9481 0.47327 0.61503 0.0
H3570 H 0.98313 0.51023 0.65136 0.0
C3571 C 0.95407 0.52281 0.70816 0.0
C3572 C 0.9443 0.48106 0.67122 0.0
C3573 C 0.9468 0.53159 0.72255 0.0
C3574 C 0.97033 0.47655 0.59997 0.0
C3575 C 0.96201 0.47383 0.61561 0.0
C3576 C 0.9725 0.50185 0.65705 0.0
C3577 C 0.94326 0.50976 0.69373 0.0
C3578 C 0.95107 0.50023 0.67869 0.0
C3579 C 0.97209 0.4753 0.63255 0.0
C3580 C 0.96555 0.48286 0.64936 0.0
H3581 H 0.90363 0.51125 0.70803 0.0
H3582 H 0.91636 0.49644 0.68246 0.0
H3583 H 0.97052 0.52535 0.67669 0.0
H3584 H 0.01254 0.4818 0.61886 0.0
H3585 H 0.99799 0.47727 0.64608 0.0
C3586 C 0.28503 0.19743 0.42402 0.0
C3587 C 0.28115 0.20715 0.44049 0.0
C3588 C 0.28605 0.2057 0.4082 0.0
C3589 C 0.27039 0.24215 0.38717 0.0
H3590 H 0.30506 0.2362 0.35374 0.0
C3591 C 0.28056 0.28378 0.32761 0.0
C3592 C 0.28307 0.27411 0.31053 0.0
C3593 C 0.28017 0.27514 0.34315 0.0
C3594 C 0.29518 0.23779 0.36284 0.0
H3595 H 0.27582 0.23339 0.45341 0.0
H3596 H 0.27769 0.24784 0.42588 0.0
H3597 H 0.30553 0.22261 0.38189 0.0
H3598 H 0.28736 0.24797 0.29621 0.0
H3599 H 0.28679 0.23276 0.32352 0.0
H3600 H 0.26008 0.25738 0.36822 0.0
C3601 C 0.2797 0.23372 0.4251 0.0
C3602 C 0.29545 0.23003 0.37898 0.0
C3603 C 0.27874 0.22548 0.44092 0.0
C3604 C 0.28516 0.2556 0.3092 0.0
C3605 C 0.28503 0.24701 0.32485 0.0
C3606 C 0.27014 0.24992 0.3711 0.0
C3607 C 0.28315 0.22384 0.40848 0.0
C3608 C 0.28308 0.23218 0.39137 0.0
C3609 C 0.28254 0.25672 0.34201 0.0
C3610 C 0.28255 0.24788 0.35877 0.0
H3611 H 0.28701 0.1833 0.42325 0.0
H3612 H 0.28861 0.19765 0.39561 0.0
H3613 H 0.26045 0.24374 0.3962 0.0
H3614 H 0.27899 0.29811 0.329 0.0
H3615 H 0.27842 0.28308 0.35618 0.0
C3616 C 0.31634 0.59164 0.51653 0.0
C3617 C 0.31658 0.61087 0.51944 0.0
C3618 C 0.33096 0.58557 0.51096 0.0
C3619 C 0.36962 0.60073 0.48756 0.0
H3620 H 0.38436 0.55934 0.50561 0.0
C3621 C 0.43487 0.57595 0.48088 0.0
C3622 C 0.43246 0.55634 0.47599 0.0
C3623 C 0.42041 0.58387 0.48278 0.0
C3624 C 0.38023 0.57082 0.50036 0.0
H3625 H 0.33252 0.63895 0.52022 0.0
H3626 H 0.35819 0.62833 0.51102 0.0
H3627 H 0.36022 0.57072 0.51815 0.0
H3628 H 0.41308 0.52989 0.46763 0.0
H3629 H 0.38801 0.54378 0.47086 0.0
H3630 H 0.39015 0.60098 0.4701 0.0
C3631 C 0.34659 0.61795 0.51244 0.0
C3632 C 0.36645 0.57729 0.5075 0.0
C3633 C 0.33198 0.624 0.5179 0.0
C3634 C 0.4154 0.54505 0.4713 0.0
C3635 C 0.40103 0.55293 0.47324 0.0
C3636 C 0.3836 0.59435 0.48054 0.0
C3637 C 0.34603 0.59867 0.50841 0.0
C3638 C 0.36095 0.59222 0.50111 0.0
C3639 C 0.40349 0.5722 0.47986 0.0
C3640 C 0.38882 0.57924 0.48681 0.0
H3641 H 0.30457 0.58124 0.51745 0.0
H3642 H 0.33017 0.57059 0.50785 0.0
H3643 H 0.36545 0.61213 0.48223 0.0
H3644 H 0.44791 0.58499 0.48431 0.0
H3645 H 0.42249 0.59881 0.48791 0.0
C3646 C 0.86024 0.92382 0.53441 0.0
C3647 C 0.84746 0.92509 0.52048 0.0
C3648 C 0.87808 0.93209 0.53397 0.0
C3649 C 0.90553 0.96946 0.51314 0.0
H3650 H 0.9445 0.94995 0.53072 0.0
C3651 C 0.97707 1.00296 0.50388 0.0
C3652 C 0.98912 0.0073 0.51993 0.0
C3653 C 0.96028 0.99158 0.50359 0.0
C3654 C 0.93372 0.95559 0.52583 0.0
H3655 H 0.84367 0.9346 0.49438 0.0
H3656 H 0.8743 0.94831 0.49338 0.0
H3657 H 0.91436 0.93211 0.53083 0.0
H3658 H 0.99336 1.00259 0.54796 0.0
H3659 H 0.96418 0.98207 0.54725 0.0
H3660 H 0.92478 0.99278 0.50795 0.0
C3661 C 0.8707 0.94177 0.5051 0.0
C3662 C 0.91644 0.9454 0.52595 0.0
C3663 C 0.85304 0.93379 0.50565 0.0
C3664 C 0.98427 0.99951 0.53546 0.0
C3665 C 0.96762 0.9877 0.535 0.0
C3666 C 0.92271 0.97948 0.51284 0.0
C3667 C 0.88348 0.94161 0.51949 0.0
C3668 C 0.90207 0.95219 0.51957 0.0
C3669 C 0.9553 0.98387 0.51917 0.0
C3670 C 0.93705 0.97273 0.51919 0.0
H3671 H 0.85641 0.91705 0.54593 0.0
H3672 H 0.88752 0.93161 0.54529 0.0
H3673 H 0.89491 0.97548 0.50855 0.0
H3674 H 0.98044 0.00884 0.49173 0.0
H3675 H 0.95114 0.98885 0.49115 0.0
C3676 C 0.89515 0.12758 0.26809 0.0
C3677 C 0.88782 0.11015 0.25623 0.0
C3678 C 0.88691 0.14309 0.2691 0.0
C3679 C 0.85081 0.16122 0.24361 0.0
H3680 H 0.85795 0.199 0.28778 0.0
C3681 C 0.80881 0.21891 0.25088 0.0
C3682 C 0.81602 0.23733 0.26079 0.0
C3683 C 0.81792 0.20424 0.2506 0.0
C3684 C 0.85581 0.18878 0.27516 0.0
H3685 H 0.86549 0.09622 0.2361 0.0
H3686 H 0.85137 0.12264 0.23774 0.0
H3687 H 0.87241 0.17276 0.28693 0.0
H3688 H 0.83915 0.254 0.27847 0.0
H3689 H 0.8548 0.22851 0.27839 0.0
H3690 H 0.83416 0.17711 0.23188 0.0
C3691 C 0.86366 0.12465 0.24632 0.0
C3692 C 0.86427 0.17345 0.27464 0.0
C3693 C 0.87181 0.10913 0.24546 0.0
C3694 C 0.83291 0.24023 0.27059 0.0
C3695 C 0.84194 0.22537 0.27061 0.0
C3696 C 0.84231 0.17643 0.24417 0.0
C3697 C 0.87093 0.14217 0.25814 0.0
C3698 C 0.86197 0.1591 0.25885 0.0
C3699 C 0.83474 0.20693 0.26048 0.0
C3700 C 0.84446 0.19066 0.25997 0.0
H3701 H 0.90739 0.1293 0.27672 0.0
H3702 H 0.89338 0.15599 0.27836 0.0
H3703 H 0.8487 0.15119 0.23087 0.0
H3704 H 0.79597 0.21575 0.24304 0.0
H3705 H 0.81147 0.19054 0.24274 0.0
C3706 C 0.71825 0.10115 0.00529 0.0
C3707 C 0.72121 0.11888 0.99999 0.0
C3708 C 0.70132 0.09058 0.00446 0.0
C3709 C 0.65794 0.08195 0.9815 0.0
H3710 H 0.64218 0.07295 0.02836 0.0
C3711 C 0.58797 0.07673 0.99501 0.0
C3712 C 0.58143 0.06693 0.00863 0.0
C3713 C 0.60511 0.07762 0.99138 0.0
C3714 C 0.64638 0.07465 0.01501 0.0
H3715 H 0.70917 0.13983 0.99004 0.0
H3716 H 0.67918 0.12094 0.98833 0.0
H3717 H 0.67286 0.08581 0.027 0.0
H3718 H 0.5867 0.04911 0.02817 0.0
H3719 H 0.61642 0.05015 0.02148 0.0
H3720 H 0.6314 0.07097 0.96947 0.0
C3721 C 0.69009 0.11532 0.99291 0.0
C3722 C 0.66392 0.08222 0.01434 0.0
C3723 C 0.70708 0.12609 0.99404 0.0
C3724 C 0.59194 0.05772 0.01837 0.0
C3725 C 0.60878 0.05796 0.01425 0.0
C3726 C 0.64038 0.07396 0.98206 0.0
C3727 C 0.68726 0.09752 0.99801 0.0
C3728 C 0.66955 0.08667 0.99779 0.0
C3729 C 0.61564 0.0682 0.00098 0.0
C3730 C 0.63434 0.07128 0.99905 0.0
H3731 H 0.72898 0.09546 0.01018 0.0
H3732 H 0.69918 0.07696 0.00871 0.0
H3733 H 0.66235 0.08509 0.96857 0.0
H3734 H 0.57964 0.08311 0.98681 0.0
H3735 H 0.6101 0.08587 0.98124 0.0
C3736 C 0.18423 0.49489 0.27045 0.0
C3737 C 0.18881 0.50088 0.25407 0.0
C3738 C 0.18996 0.47992 0.27586 0.0
C3739 C 0.20324 0.4379 0.25759 0.0
H3740 H 0.22892 0.44362 0.30613 0.0
C3741 C 0.25504 0.39963 0.2717 0.0
C3742 C 0.25407 0.38941 0.28615 0.0
C3743 C 0.24385 0.41141 0.26972 0.0
C3744 C 0.2213 0.4417 0.29279 0.0
H3745 H 0.20275 0.49653 0.23031 0.0
H3746 H 0.21305 0.46992 0.2399 0.0
H3747 H 0.21599 0.46903 0.29816 0.0
H3748 H 0.24125 0.38322 0.31004 0.0
H3749 H 0.2218 0.405 0.30705 0.0
H3750 H 0.20932 0.41097 0.2519 0.0
C3751 C 0.20503 0.4769 0.24849 0.0
C3752 C 0.21409 0.45618 0.28818 0.0
C3753 C 0.19945 0.49214 0.24318 0.0
C3754 C 0.24219 0.39136 0.29901 0.0
C3755 C 0.23109 0.40353 0.29721 0.0
C3756 C 0.21039 0.42341 0.26221 0.0
C3757 C 0.20012 0.47067 0.26477 0.0
C3758 C 0.20567 0.45459 0.27033 0.0
C3759 C 0.23166 0.41317 0.28225 0.0
C3760 C 0.22007 0.42564 0.27954 0.0
H3761 H 0.17582 0.50152 0.27882 0.0
H3762 H 0.18604 0.47522 0.28841 0.0
H3763 H 0.19641 0.43636 0.24389 0.0
H3764 H 0.26403 0.39794 0.26155 0.0
H3765 H 0.24463 0.41908 0.25831 0.0
C3766 C 0.24672 0.427 0.0232 0.0
C3767 C 0.24468 0.40749 0.02191 0.0
C3768 C 0.23255 0.43449 0.01828 0.0
C3769 C 0.18746 0.42272 0.99319 0.0
H3770 H 0.18489 0.46911 0.02427 0.0
C3771 C 0.12713 0.45782 0.9951 0.0
C3772 C 0.13126 0.47738 0.99557 0.0
C3773 C 0.14045 0.44793 0.99548 0.0
C3774 C 0.1855 0.45624 0.01536 0.0
H3775 H 0.22612 0.38048 0.01408 0.0
H3776 H 0.20114 0.39366 0.00594 0.0
H3777 H 0.20884 0.45441 0.03103 0.0
H3778 H 0.1524 0.50177 0.99614 0.0
H3779 H 0.17557 0.48464 0.99716 0.0
H3780 H 0.16358 0.42455 0.97789 0.0
C3781 C 0.21382 0.40314 0.01053 0.0
C3782 C 0.19928 0.44782 0.01917 0.0
C3783 C 0.22809 0.3956 0.01538 0.0
C3784 C 0.14881 0.4867 0.99565 0.0
C3785 C 0.16208 0.47692 0.99634 0.0
C3786 C 0.17345 0.43111 0.98949 0.0
C3787 C 0.21584 0.42272 0.01211 0.0
C3788 C 0.20063 0.43109 0.00804 0.0
C3789 C 0.1581 0.45755 0.99674 0.0
C3790 C 0.1725 0.44808 0.00044 0.0
H3791 H 0.25935 0.43655 0.02792 0.0
H3792 H 0.23475 0.4496 0.01928 0.0
H3793 H 0.18812 0.40991 0.98425 0.0
H3794 H 0.11367 0.45031 0.99494 0.0
H3795 H 0.13704 0.43299 0.9958 0.0
C3796 C 0.88929 0.97304 0.23756 0.0
C3797 C 0.88658 0.98981 0.24773 0.0
C3798 C 0.87967 0.95506 0.23936 0.0
C3799 C 0.85073 0.92895 0.27042 0.0
H3800 H 0.84236 0.88796 0.22878 0.0
C3801 C 0.80397 0.85526 0.27118 0.0
C3802 C 0.80683 0.83853 0.26117 0.0
C3803 C 0.81447 0.87316 0.27043 0.0
C3804 C 0.84472 0.89904 0.24074 0.0
H3805 H 0.871 0.99999 0.26805 0.0
H3806 H 0.85403 0.96869 0.27112 0.0
H3807 H 0.85751 0.91945 0.22548 0.0
H3808 H 0.82352 0.8281 0.24229 0.0
H3809 H 0.84187 0.85931 0.24081 0.0
H3810 H 0.83772 0.90848 0.28559 0.0
C3811 C 0.86385 0.9695 0.26166 0.0
C3812 C 0.85354 0.91741 0.23884 0.0
C3813 C 0.87348 0.98766 0.25973 0.0
C3814 C 0.82098 0.84046 0.25051 0.0
C3815 C 0.8314 0.85856 0.24947 0.0
C3816 C 0.84185 0.91057 0.2723 0.0
C3817 C 0.86677 0.9527 0.25154 0.0
C3818 C 0.85681 0.93289 0.25362 0.0
C3819 C 0.82824 0.87539 0.25927 0.0
C3820 C 0.83857 0.89512 0.25749 0.0
H3821 H 0.89923 0.97374 0.22822 0.0
H3822 H 0.88285 0.94292 0.23145 0.0
H3823 H 0.85307 0.94003 0.28237 0.0
H3824 H 0.79314 0.85456 0.27939 0.0
H3825 H 0.8112 0.88538 0.27809 0.0
C3826 C 0.65601 0.11482 0.75131 0.0
C3827 C 0.66028 0.10138 0.76119 0.0
C3828 C 0.66711 0.13266 0.75405 0.0
C3829 C 0.70689 0.16471 0.77885 0.0
H3830 H 0.72414 0.15931 0.73098 0.0
C3831 C 0.76881 0.21453 0.76841 0.0
C3832 C 0.76646 0.22321 0.75312 0.0
C3833 C 0.75753 0.19759 0.76952 0.0
C3834 C 0.71943 0.16109 0.74436 0.0
H3835 H 0.67708 0.09647 0.78377 0.0
H3836 H 0.69636 0.1278 0.78874 0.0
H3837 H 0.69706 0.13838 0.73555 0.0
H3838 H 0.75219 0.22038 0.72608 0.0
H3839 H 0.73208 0.19122 0.72822 0.0
H3840 H 0.72898 0.18776 0.7876 0.0
C3841 C 0.68475 0.12462 0.77879 0.0
C3842 C 0.70388 0.1493 0.74691 0.0
C3843 C 0.67383 0.10671 0.77587 0.0
C3844 C 0.75416 0.21386 0.73802 0.0
C3845 C 0.74267 0.19711 0.73926 0.0
C3846 C 0.72233 0.1768 0.77621 0.0
C3847 C 0.68225 0.13702 0.76683 0.0
C3848 C 0.69745 0.15116 0.76409 0.0
C3849 C 0.74363 0.18946 0.7555 0.0
C3850 C 0.72867 0.17515 0.7589 0.0
H3851 H 0.64552 0.11089 0.73999 0.0
H3852 H 0.66501 0.14222 0.7448 0.0
H3853 H 0.70226 0.166 0.79229 0.0
H3854 H 0.77854 0.22148 0.78005 0.0
H3855 H 0.75888 0.19162 0.78193 0.0
loop_
_geom_bond_atom_site_label_1
_geom_bond_atom_site_label_2
_geom_bond_distance
_geom_bond_site_symmetry_2
_ccdc_geom_bond_type
C0 O1 1.306 . S
C0 O3 1.160 . S
O1 C0 1.306 . S
O1 Cd2 2.228 . S
Cd2 O1 2.228 . S
Cd2 O6 2.273 . S
Cd2 O10 2.277 . S
O3 C0 1.160 . S
O3 Cd4 2.203 . S
Cd4 O3 2.203 . S
Cd4 O6 2.411 . S
Cd4 O7 2.333 . S
Cd4 O8 2.352 . S
Cd4 O12 2.277 . S
Cd4 O13 2.356 . S
C5 O10 1.209 . S
C5 O12 1.226 . S
O6 Cd2 2.273 . S
O6 Cd4 2.411 . S
O6 C9 1.320 . S
O7 Cd4 2.333 . S
O7 C9 1.214 . S
O8 Cd4 2.352 . S
O8 C11 1.258 . S
C9 O6 1.320 . S
C9 O7 1.214 . S
O10 Cd2 2.277 . S
O10 C5 1.209 . S
C11 O8 1.258 . S
C11 O13 1.282 . S
O12 Cd4 2.277 . S
O12 C5 1.226 . S
O13 Cd4 2.356 . S
O13 C11 1.282 . S
C14 O15 1.306 . S
C14 O17 1.160 . S
O15 C14 1.306 . S
O15 Cd16 2.228 1_655 S
Cd16 O15 2.228 1_455 S
Cd16 O20 2.273 . S
Cd16 O24 2.277 1_455 S
O17 C14 1.160 . S
O17 Cd18 2.149 1_655 S
Cd18 O17 2.149 1_455 S
Cd18 O20 2.438 . S
Cd18 O21 2.389 . S
Cd18 O22 2.343 . S
Cd18 O26 2.281 1_455 S
Cd18 O27 2.360 . S
C19 O24 1.209 . S
C19 O26 1.226 . S
O20 Cd16 2.273 . S
O20 Cd18 2.438 . S
O20 C23 1.320 . S
O21 Cd18 2.389 . S
O21 C23 1.214 . S
O22 Cd18 2.343 . S
O22 C25 1.258 . S
C23 O20 1.320 . S
C23 O21 1.214 . S
O24 Cd16 2.277 1_655 S
O24 C19 1.209 . S
C25 O22 1.258 . S
C25 O27 1.282 . S
O26 Cd18 2.281 1_655 S
O26 C19 1.226 . S
O27 Cd18 2.360 . S
O27 C25 1.282 . S
C28 O29 1.306 . S
C28 O31 1.160 . S
O29 C28 1.306 . S
O29 Cd30 2.228 . S
Cd30 O29 2.228 . S
Cd30 O34 2.273 . S
Cd30 O38 2.277 . S
O31 C28 1.160 . S
O31 Cd32 2.203 . S
Cd32 O31 2.203 . S
Cd32 O34 2.411 . S
Cd32 O35 2.333 . S
Cd32 O36 2.352 . S
Cd32 O40 2.277 . S
Cd32 O41 2.356 . S
C33 O38 1.209 . S
C33 O40 1.226 . S
O34 Cd30 2.273 . S
O34 Cd32 2.411 . S
O34 C37 1.320 . S
O35 Cd32 2.333 . S
O35 C37 1.214 . S
O36 Cd32 2.352 . S
O36 C39 1.258 . S
C37 O34 1.320 . S
C37 O35 1.214 . S
O38 Cd30 2.277 . S
O38 C33 1.209 . S
C39 O36 1.258 . S
C39 O41 1.282 . S
O40 Cd32 2.277 . S
O40 C33 1.226 . S
O41 Cd32 2.356 . S
O41 C39 1.282 . S
C42 O43 1.306 . S
C42 O45 1.160 . S
O43 C42 1.306 . S
O43 Cd44 2.228 . S
Cd44 O43 2.228 . S
Cd44 O48 2.273 . S
Cd44 O52 2.277 . S
O45 C42 1.160 . S
O45 Cd46 2.203 . S
Cd46 O45 2.203 . S
Cd46 O48 2.411 . S
Cd46 O49 2.333 . S
Cd46 O50 2.352 . S
Cd46 O54 2.277 . S
Cd46 O55 2.356 . S
C47 O52 1.209 . S
C47 O54 1.226 . S
O48 Cd44 2.273 . S
O48 Cd46 2.411 . S
O48 C51 1.320 . S
O49 Cd46 2.333 . S
O49 C51 1.214 . S
O50 Cd46 2.352 . S
O50 C53 1.258 . S
C51 O48 1.320 . S
C51 O49 1.214 . S
O52 Cd44 2.277 . S
O52 C47 1.209 . S
C53 O50 1.258 . S
C53 O55 1.282 . S
O54 Cd46 2.277 . S
O54 C47 1.226 . S
O55 Cd46 2.356 . S
O55 C53 1.282 . S
C56 O57 1.306 . S
C56 O59 1.160 . S
O57 C56 1.306 . S
O57 Cd58 2.228 . S
Cd58 O57 2.228 . S
Cd58 O62 2.273 . S
Cd58 O66 2.277 . S
O59 C56 1.160 . S
O59 Cd60 2.203 . S
Cd60 O59 2.203 . S
Cd60 O62 2.411 . S
Cd60 O63 2.333 . S
Cd60 O64 2.352 . S
Cd60 O68 2.277 . S
Cd60 O69 2.356 . S
C61 O66 1.209 . S
C61 O68 1.226 . S
O62 Cd58 2.273 . S
O62 Cd60 2.411 . S
O62 C65 1.320 . S
O63 Cd60 2.333 . S
O63 C65 1.214 . S
O64 Cd60 2.352 . S
O64 C67 1.258 . S
C65 O62 1.320 . S
C65 O63 1.214 . S
O66 Cd58 2.277 . S
O66 C61 1.209 . S
C67 O64 1.258 . S
C67 O69 1.282 . S
O68 Cd60 2.277 . S
O68 C61 1.226 . S
O69 Cd60 2.356 . S
O69 C67 1.282 . S
C70 O71 1.306 . S
C70 O73 1.160 . S
O71 C70 1.306 . S
O71 Cd72 2.228 . S
Cd72 O71 2.228 . S
Cd72 O76 2.273 . S
Cd72 O80 2.277 . S
O73 C70 1.160 . S
O73 Cd74 2.203 . S
Cd74 O73 2.203 . S
Cd74 O76 2.411 . S
Cd74 O77 2.333 . S
Cd74 O78 2.352 . S
Cd74 O82 2.277 . S
Cd74 O83 2.356 . S
C75 O80 1.209 . S
C75 O82 1.226 . S
O76 Cd72 2.273 . S
O76 Cd74 2.411 . S
O76 C79 1.320 . S
O77 Cd74 2.333 . S
O77 C79 1.214 . S
O78 Cd74 2.352 . S
O78 C81 1.258 . S
C79 O76 1.320 . S
C79 O77 1.214 . S
O80 Cd72 2.277 . S
O80 C75 1.209 . S
C81 O78 1.258 . S
C81 O83 1.282 . S
O82 Cd74 2.277 . S
O82 C75 1.226 . S
O83 Cd74 2.356 . S
O83 C81 1.282 . S
C84 O85 1.306 . S
C84 O87 1.160 . S
O85 C84 1.306 . S
O85 Cd86 2.228 . S
Cd86 O85 2.228 . S
Cd86 O90 2.273 . S
Cd86 O94 2.277 . S
O87 C84 1.160 . S
O87 Cd88 2.203 . S
Cd88 O87 2.203 . S
Cd88 O90 2.411 . S
Cd88 O91 2.333 . S
Cd88 O92 2.352 . S
Cd88 O96 2.277 . S
Cd88 O97 2.356 . S
C89 O94 1.209 . S
C89 O96 1.226 . S
O90 Cd86 2.273 . S
O90 Cd88 2.411 . S
O90 C93 1.320 . S
O91 Cd88 2.333 . S
O91 C93 1.214 . S
O92 Cd88 2.352 . S
O92 C95 1.258 . S
C93 O90 1.320 . S
C93 O91 1.214 . S
O94 Cd86 2.277 . S
O94 C89 1.209 . S
C95 O92 1.258 . S
C95 O97 1.282 . S
O96 Cd88 2.277 . S
O96 C89 1.226 . S
O97 Cd88 2.356 . S
O97 C95 1.282 . S
C98 O99 1.306 . S
C98 O101 1.160 . S
O99 C98 1.306 . S
O99 Cd100 2.228 1_655 S
Cd100 O99 2.228 1_455 S
Cd100 O104 2.273 . S
Cd100 O108 2.277 . S
O101 C98 1.160 . S
O101 Cd102 2.203 1_655 S
Cd102 O101 2.203 1_455 S
Cd102 O104 2.411 . S
Cd102 O105 2.333 . S
Cd102 O106 2.352 . S
Cd102 O110 2.277 . S
Cd102 O111 2.356 . S
C103 O108 1.209 . S
C103 O110 1.226 . S
O104 Cd100 2.273 . S
O104 Cd102 2.411 . S
O104 C107 1.320 . S
O105 Cd102 2.333 . S
O105 C107 1.214 . S
O106 Cd102 2.352 . S
O106 C109 1.258 . S
C107 O104 1.320 . S
C107 O105 1.214 . S
O108 Cd100 2.277 . S
O108 C103 1.209 . S
C109 O106 1.258 . S
C109 O111 1.282 . S
O110 Cd102 2.277 . S
O110 C103 1.226 . S
O111 Cd102 2.356 . S
O111 C109 1.282 . S
C112 O113 1.332 . S
C112 O115 1.160 . S
O113 C112 1.332 . S
O113 Cd114 2.201 1_545 S
Cd114 O113 2.201 1_565 S
Cd114 O118 2.273 1_565 S
Cd114 O122 2.277 . S
O115 C112 1.160 . S
O115 Cd116 2.203 . S
Cd116 O115 2.203 . S
Cd116 O118 2.411 . S
Cd116 O119 2.333 . S
Cd116 O120 2.352 . S
Cd116 O124 2.277 1_545 S
Cd116 O125 2.356 . S
C117 O122 1.209 . S
C117 O124 1.226 . S
O118 Cd114 2.273 1_545 S
O118 Cd116 2.411 . S
O118 C121 1.320 . S
O119 Cd116 2.333 . S
O119 C121 1.214 . S
O120 Cd116 2.352 . S
O120 C123 1.258 . S
C121 O118 1.320 . S
C121 O119 1.214 . S
O122 Cd114 2.277 . S
O122 C117 1.209 . S
C123 O120 1.258 . S
C123 O125 1.282 . S
O124 Cd116 2.277 1_565 S
O124 C117 1.226 . S
O125 Cd116 2.356 . S
O125 C123 1.282 . S
C126 O127 1.306 . S
C126 O129 1.160 . S
O127 C126 1.306 . S
O127 Cd128 2.228 . S
Cd128 O127 2.228 . S
Cd128 O132 2.273 . S
Cd128 O136 2.277 . S
O129 C126 1.160 . S
O129 Cd130 2.203 . S
Cd130 O129 2.203 . S
Cd130 O132 2.411 . S
Cd130 O133 2.333 . S
Cd130 O134 2.352 . S
Cd130 O138 2.277 . S
Cd130 O139 2.356 . S
C131 O136 1.209 . S
C131 O138 1.226 . S
O132 Cd128 2.273 . S
O132 Cd130 2.411 . S
O132 C135 1.320 . S
O133 Cd130 2.333 . S
O133 C135 1.214 . S
O134 Cd130 2.352 . S
O134 C137 1.258 . S
C135 O132 1.320 . S
C135 O133 1.214 . S
O136 Cd128 2.277 . S
O136 C131 1.209 . S
C137 O134 1.258 . S
C137 O139 1.282 . S
O138 Cd130 2.277 . S
O138 C131 1.226 . S
O139 Cd130 2.356 . S
O139 C137 1.282 . S
C140 O141 1.306 . S
C140 O143 1.160 . S
O141 C140 1.306 . S
O141 Cd142 2.228 . S
Cd142 O141 2.228 . S
Cd142 O146 2.273 1_545 S
Cd142 O150 2.277 . S
O143 C140 1.160 . S
O143 Cd144 2.203 1_545 S
Cd144 O143 2.203 1_565 S
Cd144 O146 2.411 . S
Cd144 O147 2.333 . S
Cd144 O148 2.352 . S
Cd144 O152 2.277 1_565 S
Cd144 O153 2.356 . S
C145 O150 1.209 . S
C145 O152 1.226 . S
O146 Cd142 2.273 1_565 S
O146 Cd144 2.411 . S
O146 C149 1.320 . S
O147 Cd144 2.333 . S
O147 C149 1.214 . S
O148 Cd144 2.352 . S
O148 C151 1.258 . S
C149 O146 1.320 . S
C149 O147 1.214 . S
O150 Cd142 2.277 . S
O150 C145 1.209 . S
C151 O148 1.258 . S
C151 O153 1.282 . S
O152 Cd144 2.277 1_545 S
O152 C145 1.226 . S
O153 Cd144 2.356 . S
O153 C151 1.282 . S
C154 O155 1.306 . S
C154 O157 1.160 . S
O155 C154 1.306 . S
O155 Cd156 2.228 1_554 S
Cd156 O155 2.228 1_556 S
Cd156 O160 2.273 1_556 S
Cd156 O164 2.277 . S
O157 C154 1.160 . S
O157 Cd158 2.203 . S
Cd158 O157 2.203 . S
Cd158 O160 2.411 . S
Cd158 O161 2.333 . S
Cd158 O162 2.352 . S
Cd158 O166 2.277 1_554 S
Cd158 O167 2.356 . S
C159 O164 1.209 . S
C159 O166 1.226 . S
O160 Cd156 2.273 1_554 S
O160 Cd158 2.411 . S
O160 C163 1.320 . S
O161 Cd158 2.333 . S
O161 C163 1.214 . S
O162 Cd158 2.352 . S
O162 C165 1.258 . S
C163 O160 1.320 . S
C163 O161 1.214 . S
O164 Cd156 2.277 . S
O164 C159 1.209 . S
C165 O162 1.258 . S
C165 O167 1.282 . S
O166 Cd158 2.277 1_556 S
O166 C159 1.226 . S
O167 Cd158 2.356 . S
O167 C165 1.282 . S
C168 O169 1.306 . S
C168 O171 1.160 . S
O169 C168 1.306 . S
O169 Cd170 2.228 1_554 S
Cd170 O169 2.228 1_556 S
Cd170 O174 2.273 1_556 S
Cd170 O178 2.277 . S
O171 C168 1.160 . S
O171 Cd172 2.203 . S
Cd172 O171 2.203 . S
Cd172 O174 2.411 . S
Cd172 O175 2.333 . S
Cd172 O176 2.352 . S
Cd172 O180 2.277 1_554 S
Cd172 O181 2.356 . S
C173 O178 1.209 . S
C173 O180 1.226 . S
O174 Cd170 2.273 1_554 S
O174 Cd172 2.411 . S
O174 C177 1.320 . S
O175 Cd172 2.333 . S
O175 C177 1.214 . S
O176 Cd172 2.352 . S
O176 C179 1.258 . S
C177 O174 1.320 . S
C177 O175 1.214 . S
O178 Cd170 2.277 . S
O178 C173 1.209 . S
C179 O176 1.258 . S
C179 O181 1.282 . S
O180 Cd172 2.277 1_556 S
O180 C173 1.226 . S
O181 Cd172 2.356 . S
O181 C179 1.282 . S
C182 O183 1.306 . S
C182 O185 1.160 . S
O183 C182 1.306 . S
O183 Cd184 2.228 . S
Cd184 O183 2.228 . S
Cd184 O188 2.273 . S
Cd184 O192 2.277 . S
O185 C182 1.160 . S
O185 Cd186 2.203 . S
Cd186 O185 2.203 . S
Cd186 O188 2.411 . S
Cd186 O189 2.333 . S
Cd186 O190 2.352 1_554 S
Cd186 O194 2.277 . S
Cd186 O195 2.356 1_554 S
C187 O192 1.209 . S
C187 O194 1.226 . S
O188 Cd184 2.273 . S
O188 Cd186 2.411 . S
O188 C191 1.320 . S
O189 Cd186 2.333 . S
O189 C191 1.214 . S
O190 Cd186 2.352 1_556 S
O190 C193 1.258 . S
C191 O188 1.320 . S
C191 O189 1.214 . S
O192 Cd184 2.277 . S
O192 C187 1.209 . S
C193 O190 1.258 . S
C193 O195 1.282 . S
O194 Cd186 2.277 . S
O194 C187 1.226 . S
O195 Cd186 2.356 1_556 S
O195 C193 1.282 . S
C196 O197 1.306 . S
C196 O199 1.160 . S
O197 C196 1.306 . S
O197 Cd198 2.228 . S
Cd198 O197 2.228 . S
Cd198 O202 2.273 . S
Cd198 O206 2.277 . S
O199 C196 1.160 . S
O199 Cd200 2.203 . S
Cd200 O199 2.203 . S
Cd200 O202 2.411 . S
Cd200 O203 2.333 . S
Cd200 O204 2.352 . S
Cd200 O208 2.277 . S
Cd200 O209 2.356 . S
C201 O206 1.209 . S
C201 O208 1.226 . S
O202 Cd198 2.273 . S
O202 Cd200 2.411 . S
O202 C205 1.320 . S
O203 Cd200 2.333 . S
O203 C205 1.214 . S
O204 Cd200 2.352 . S
O204 C207 1.258 . S
C205 O202 1.320 . S
C205 O203 1.214 . S
O206 Cd198 2.277 . S
O206 C201 1.209 . S
C207 O204 1.258 . S
C207 O209 1.282 . S
O208 Cd200 2.277 . S
O208 C201 1.226 . S
O209 Cd200 2.356 . S
O209 C207 1.282 . S
C210 O211 1.306 . S
C210 O213 1.160 . S
O211 C210 1.306 . S
O211 Cd212 2.228 . S
Cd212 O211 2.228 . S
Cd212 O216 2.273 . S
Cd212 O220 2.277 . S
O213 C210 1.160 . S
O213 Cd214 2.203 . S
Cd214 O213 2.203 . S
Cd214 O216 2.411 . S
Cd214 O217 2.333 . S
Cd214 O218 2.352 . S
Cd214 O222 2.277 . S
Cd214 O223 2.356 . S
C215 O220 1.209 . S
C215 O222 1.226 . S
O216 Cd212 2.273 . S
O216 Cd214 2.411 . S
O216 C219 1.320 . S
O217 Cd214 2.333 . S
O217 C219 1.214 . S
O218 Cd214 2.352 . S
O218 C221 1.258 . S
C219 O216 1.320 . S
C219 O217 1.214 . S
O220 Cd212 2.277 . S
O220 C215 1.209 . S
C221 O218 1.258 . S
C221 O223 1.282 . S
O222 Cd214 2.277 . S
O222 C215 1.226 . S
O223 Cd214 2.356 . S
O223 C221 1.282 . S
C224 O225 1.306 . S
C224 O227 1.160 . S
O225 C224 1.306 . S
O225 Cd226 2.228 . S
Cd226 O225 2.228 . S
Cd226 O230 2.273 . S
Cd226 O234 2.277 . S
O227 C224 1.160 . S
O227 Cd228 2.203 . S
Cd228 O227 2.203 . S
Cd228 O230 2.411 . S
Cd228 O231 2.333 . S
Cd228 O232 2.352 . S
Cd228 O236 2.277 . S
Cd228 O237 2.356 . S
C229 O234 1.209 . S
C229 O236 1.226 . S
O230 Cd226 2.273 . S
O230 Cd228 2.411 . S
O230 C233 1.320 . S
O231 Cd228 2.333 . S
O231 C233 1.214 . S
O232 Cd228 2.352 . S
O232 C235 1.258 . S
C233 O230 1.320 . S
C233 O231 1.214 . S
O234 Cd226 2.277 . S
O234 C229 1.209 . S
C235 O232 1.258 . S
C235 O237 1.282 . S
O236 Cd228 2.277 . S
O236 C229 1.226 . S
O237 Cd228 2.356 . S
O237 C235 1.282 . S
C238 O239 1.306 . S
C238 O241 1.160 . S
O239 C238 1.306 . S
O239 Cd240 2.228 . S
Cd240 O239 2.228 . S
Cd240 O244 2.273 . S
Cd240 O248 2.277 . S
O241 C238 1.160 . S
O241 Cd242 2.203 . S
Cd242 O241 2.203 . S
Cd242 O244 2.411 . S
Cd242 O245 2.333 . S
Cd242 O246 2.352 . S
Cd242 O250 2.277 . S
Cd242 O251 2.356 . S
C243 O248 1.209 . S
C243 O250 1.226 . S
O244 Cd240 2.273 . S
O244 Cd242 2.411 . S
O244 C247 1.320 . S
O245 Cd242 2.333 . S
O245 C247 1.214 . S
O246 Cd242 2.352 . S
O246 C249 1.258 . S
C247 O244 1.320 . S
C247 O245 1.214 . S
O248 Cd240 2.277 . S
O248 C243 1.209 . S
C249 O246 1.258 . S
C249 O251 1.282 . S
O250 Cd242 2.277 . S
O250 C243 1.226 . S
O251 Cd242 2.356 . S
O251 C249 1.282 . S
C252 O253 1.306 . S
C252 O255 1.160 . S
O253 C252 1.306 . S
O253 Cd254 2.228 . S
Cd254 O253 2.228 . S
Cd254 O258 2.273 . S
Cd254 O262 2.277 . S
O255 C252 1.160 . S
O255 Cd256 2.203 . S
Cd256 O255 2.203 . S
Cd256 O258 2.411 . S
Cd256 O259 2.333 . S
Cd256 O260 2.352 . S
Cd256 O264 2.277 . S
Cd256 O265 2.356 . S
C257 O262 1.209 . S
C257 O264 1.226 . S
O258 Cd254 2.273 . S
O258 Cd256 2.411 . S
O258 C261 1.320 . S
O259 Cd256 2.333 . S
O259 C261 1.214 . S
O260 Cd256 2.352 . S
O260 C263 1.258 . S
C261 O258 1.320 . S
C261 O259 1.214 . S
O262 Cd254 2.277 . S
O262 C257 1.209 . S
C263 O260 1.258 . S
C263 O265 1.282 . S
O264 Cd256 2.277 . S
O264 C257 1.226 . S
O265 Cd256 2.356 . S
O265 C263 1.282 . S
C266 O267 1.306 . S
C266 O269 1.160 . S
O267 C266 1.306 . S
O267 Cd268 2.228 . S
Cd268 O267 2.228 . S
Cd268 O272 2.273 . S
Cd268 O276 2.277 . S
O269 C266 1.160 . S
O269 Cd270 2.203 . S
Cd270 O269 2.203 . S
Cd270 O272 2.411 . S
Cd270 O273 2.333 . S
Cd270 O274 2.352 . S
Cd270 O278 2.277 . S
Cd270 O279 2.356 . S
C271 O276 1.209 . S
C271 O278 1.226 . S
O272 Cd268 2.273 . S
O272 Cd270 2.411 . S
O272 C275 1.320 . S
O273 Cd270 2.333 . S
O273 C275 1.214 . S
O274 Cd270 2.352 . S
O274 C277 1.258 . S
C275 O272 1.320 . S
C275 O273 1.214 . S
O276 Cd268 2.277 . S
O276 C271 1.209 . S
C277 O274 1.258 . S
C277 O279 1.282 . S
O278 Cd270 2.277 . S
O278 C271 1.226 . S
O279 Cd270 2.356 . S
O279 C277 1.282 . S
C280 O281 1.306 . S
C280 O283 1.160 . S
O281 C280 1.306 . S
O281 Cd282 2.228 . S
Cd282 O281 2.228 . S
Cd282 O286 2.273 . S
Cd282 O290 2.277 . S
O283 C280 1.160 . S
O283 Cd284 2.203 . S
Cd284 O283 2.203 . S
Cd284 O286 2.411 . S
Cd284 O287 2.333 1_554 S
Cd284 O288 2.352 1_554 S
Cd284 O292 2.277 . S
Cd284 O293 2.356 1_554 S
C285 O290 1.209 . S
C285 O292 1.226 . S
O286 Cd282 2.273 . S
O286 Cd284 2.411 . S
O286 C289 1.322 . S
O287 Cd284 2.333 1_556 S
O287 C289 1.209 1_556 S
O288 Cd284 2.352 1_556 S
O288 C291 1.258 . S
C289 O286 1.322 . S
C289 O287 1.209 1_554 S
O290 Cd282 2.277 . S
O290 C285 1.209 . S
C291 O288 1.258 . S
C291 O293 1.282 . S
O292 Cd284 2.277 . S
O292 C285 1.226 . S
O293 Cd284 2.356 1_556 S
O293 C291 1.282 . S
C294 O295 1.306 . S
C294 O297 1.160 . S
O295 C294 1.306 . S
O295 Cd296 2.228 . S
Cd296 O295 2.228 . S
Cd296 O300 2.273 . S
Cd296 O304 2.277 . S
O297 C294 1.160 . S
O297 Cd298 2.203 . S
Cd298 O297 2.203 . S
Cd298 O300 2.411 . S
Cd298 O301 2.333 . S
Cd298 O302 2.352 . S
Cd298 O306 2.277 . S
Cd298 O307 2.356 . S
C299 O304 1.209 . S
C299 O306 1.226 . S
O300 Cd296 2.273 . S
O300 Cd298 2.411 . S
O300 C303 1.320 . S
O301 Cd298 2.333 . S
O301 C303 1.214 . S
O302 Cd298 2.352 . S
O302 C305 1.258 . S
C303 O300 1.320 . S
C303 O301 1.214 . S
O304 Cd296 2.277 . S
O304 C299 1.209 . S
C305 O302 1.258 . S
C305 O307 1.282 . S
O306 Cd298 2.277 . S
O306 C299 1.226 . S
O307 Cd298 2.356 . S
O307 C305 1.282 . S
C308 O309 1.306 . S
C308 O311 1.160 . S
O309 C308 1.306 . S
O309 Cd310 2.228 . S
Cd310 O309 2.228 . S
Cd310 O314 2.273 . S
Cd310 O318 2.277 . S
O311 C308 1.160 . S
O311 Cd312 2.203 . S
Cd312 O311 2.203 . S
Cd312 O314 2.411 . S
Cd312 O315 2.333 . S
Cd312 O316 2.352 . S
Cd312 O320 2.277 . S
Cd312 O321 2.356 . S
C313 O318 1.209 . S
C313 O320 1.226 . S
O314 Cd310 2.273 . S
O314 Cd312 2.411 . S
O314 C317 1.320 . S
O315 Cd312 2.333 . S
O315 C317 1.214 . S
O316 Cd312 2.352 . S
O316 C319 1.258 . S
C317 O314 1.320 . S
C317 O315 1.214 . S
O318 Cd310 2.277 . S
O318 C313 1.209 . S
C319 O316 1.258 . S
C319 O321 1.282 . S
O320 Cd312 2.277 . S
O320 C313 1.226 . S
O321 Cd312 2.356 . S
O321 C319 1.282 . S
C322 O323 1.306 . S
C322 O325 1.160 . S
O323 C322 1.306 . S
O323 Cd324 2.228 . S
Cd324 O323 2.228 . S
Cd324 O328 2.273 . S
Cd324 O332 2.277 . S
O325 C322 1.160 . S
O325 Cd326 2.203 . S
Cd326 O325 2.203 . S
Cd326 O328 2.411 . S
Cd326 O329 2.333 . S
Cd326 O330 2.352 . S
Cd326 O334 2.277 . S
Cd326 O335 2.356 . S
C327 O332 1.209 . S
C327 O334 1.226 . S
O328 Cd324 2.273 . S
O328 Cd326 2.411 . S
O328 C331 1.320 . S
O329 Cd326 2.333 . S
O329 C331 1.214 . S
O330 Cd326 2.352 . S
O330 C333 1.258 . S
C331 O328 1.320 . S
C331 O329 1.214 . S
O332 Cd324 2.277 . S
O332 C327 1.209 . S
C333 O330 1.258 . S
C333 O335 1.282 . S
O334 Cd326 2.277 . S
O334 C327 1.226 . S
O335 Cd326 2.356 . S
O335 C333 1.282 . S
Sm336 C338 2.846 1_454 S
Sm336 O356 2.542 1_455 S
Sm336 O357 2.451 1_454 S
Sm336 O358 2.682 1_554 S
Sm336 O359 2.465 1_554 S
Sm336 O360 2.396 1_554 S
Sm336 O364 2.385 . S
Sm336 O367 2.407 1_545 S
Sm337 C347 2.846 . S
Sm337 O358 2.386 1_554 S
Sm337 O361 2.408 . S
Sm337 O362 2.543 . S
Sm337 O363 2.450 . S
Sm337 O364 2.681 . S
Sm337 O365 2.464 . S
Sm337 O366 2.396 . S
C338 Sm336 2.846 1_656 S
C338 C339 1.506 . S
C338 O356 1.261 1_556 S
C338 O357 1.242 . S
C339 C338 1.506 . S
C339 C340 1.358 1_556 S
C339 C344 1.382 . S
C340 C339 1.358 1_554 S
C340 C341 1.385 1_554 S
C340 H368 0.930 . S
C341 C340 1.385 1_556 S
C341 C342 1.395 . S
C341 H369 0.929 1_556 S
C342 C341 1.395 . S
C342 C343 1.335 . S
C343 C342 1.335 . S
C343 C344 1.398 . S
C343 H370 0.930 . S
C344 C339 1.382 . S
C344 C343 1.398 . S
C344 H371 0.929 . S
C345 O358 1.271 . S
C345 O359 1.251 . S
C346 O360 1.252 1_554 S
C346 O361 1.272 . S
C347 Sm337 2.846 . S
C347 C348 1.506 . S
C347 O362 1.261 . S
C347 O363 1.242 . S
C348 C347 1.506 . S
C348 C349 1.358 . S
C348 C353 1.382 . S
C349 C348 1.358 . S
C349 C350 1.385 1_545 S
C349 H372 0.930 1_545 S
C350 C349 1.385 1_565 S
C350 C351 1.395 1_565 S
C350 H373 0.929 . S
C351 C350 1.395 1_545 S
C351 C352 1.338 . S
C352 C351 1.338 . S
C352 C353 1.398 . S
C352 H374 0.930 . S
C353 C348 1.382 . S
C353 C352 1.398 . S
C353 H375 0.929 . S
C354 O364 1.271 . S
C354 O365 1.251 . S
C355 O366 1.252 1_565 S
C355 O367 1.272 . S
O356 Sm336 2.542 1_655 S
O356 C338 1.261 1_554 S
O357 Sm336 2.451 1_656 S
O357 C338 1.242 . S
O358 Sm336 2.682 1_556 S
O358 Sm337 2.386 1_556 S
O358 C345 1.271 . S
O359 Sm336 2.465 1_556 S
O359 C345 1.251 . S
O360 Sm336 2.396 1_556 S
O360 C346 1.252 1_556 S
O361 Sm337 2.408 . S
O361 C346 1.272 . S
O362 Sm337 2.543 . S
O362 C347 1.261 . S
O363 Sm337 2.450 . S
O363 C347 1.242 . S
O364 Sm336 2.385 . S
O364 Sm337 2.681 . S
O364 C354 1.271 . S
O365 Sm337 2.464 . S
O365 C354 1.251 . S
O366 Sm337 2.396 . S
O366 C355 1.252 1_545 S
O367 Sm336 2.407 1_565 S
O367 C355 1.272 . S
H368 C340 0.930 . S
H369 C341 0.929 1_554 S
H370 C343 0.930 . S
H371 C344 0.929 . S
H372 C349 0.930 1_565 S
H373 C350 0.929 . S
H374 C352 0.930 . S
H375 C353 0.929 . S
Sm376 C378 2.846 . S
Sm376 O396 2.543 . S
Sm376 O397 2.450 . S
Sm376 O398 2.681 . S
Sm376 O399 2.464 . S
Sm376 O400 2.396 . S
Sm376 O404 2.386 . S
Sm376 O407 2.408 . S
Sm377 C387 2.846 . S
Sm377 O398 2.386 . S
Sm377 O401 2.408 . S
Sm377 O402 2.543 . S
Sm377 O403 2.450 . S
Sm377 O404 2.681 . S
Sm377 O405 2.464 . S
Sm377 O406 2.396 . S
C378 Sm376 2.846 . S
C378 C379 1.506 . S
C378 O396 1.261 . S
C378 O397 1.242 . S
C379 C378 1.506 . S
C379 C380 1.358 . S
C379 C384 1.382 . S
C380 C379 1.358 . S
C380 C381 1.385 . S
C380 H408 0.930 . S
C381 C380 1.385 . S
C381 C382 1.395 . S
C381 H409 0.929 . S
C382 C381 1.395 . S
C382 C383 1.335 . S
C383 C382 1.335 . S
C383 C384 1.398 . S
C383 H410 0.930 . S
C384 C379 1.382 . S
C384 C383 1.398 . S
C384 H411 0.929 . S
C385 O398 1.271 . S
C385 O399 1.251 . S
C386 O400 1.252 . S
C386 O401 1.272 . S
C387 Sm377 2.846 . S
C387 C388 1.506 . S
C387 O402 1.261 . S
C387 O403 1.242 . S
C388 C387 1.506 . S
C388 C389 1.358 . S
C388 C393 1.382 . S
C389 C388 1.358 . S
C389 C390 1.385 . S
C389 H412 0.930 . S
C390 C389 1.385 . S
C390 C391 1.395 . S
C390 H413 0.929 . S
C391 C390 1.395 . S
C391 C392 1.335 . S
C392 C391 1.335 . S
C392 C393 1.398 . S
C392 H414 0.930 . S
C393 C388 1.382 . S
C393 C392 1.398 . S
C393 H415 0.929 . S
C394 O404 1.271 . S
C394 O405 1.251 . S
C395 O406 1.252 . S
C395 O407 1.272 . S
O396 Sm376 2.543 . S
O396 C378 1.261 . S
O397 Sm376 2.450 . S
O397 C378 1.242 . S
O398 Sm376 2.681 . S
O398 Sm377 2.386 . S
O398 C385 1.271 . S
O399 Sm376 2.464 . S
O399 C385 1.251 . S
O400 Sm376 2.396 . S
O400 C386 1.252 . S
O401 Sm377 2.408 . S
O401 C386 1.272 . S
O402 Sm377 2.543 . S
O402 C387 1.261 . S
O403 Sm377 2.450 . S
O403 C387 1.242 . S
O404 Sm376 2.386 . S
O404 Sm377 2.681 . S
O404 C394 1.271 . S
O405 Sm377 2.464 . S
O405 C394 1.251 . S
O406 Sm377 2.396 . S
O406 C395 1.252 . S
O407 Sm376 2.408 . S
O407 C395 1.272 . S
H408 C380 0.930 . S
H409 C381 0.929 . S
H410 C383 0.930 . S
H411 C384 0.929 . S
H412 C389 0.930 . S
H413 C390 0.929 . S
H414 C392 0.930 . S
H415 C393 0.929 . S
Sm416 C418 2.846 . S
Sm416 O436 2.543 . S
Sm416 O437 2.450 . S
Sm416 O438 2.681 . S
Sm416 O439 2.464 . S
Sm416 O440 2.349 1_545 S
Sm416 O444 2.386 . S
Sm416 O447 2.408 . S
Sm417 C427 2.846 . S
Sm417 O438 2.386 . S
Sm417 O441 2.408 1_545 S
Sm417 O442 2.543 . S
Sm417 O443 2.450 . S
Sm417 O444 2.681 . S
Sm417 O445 2.464 . S
Sm417 O446 2.396 . S
C418 Sm416 2.846 . S
C418 C419 1.506 1_545 S
C418 O436 1.261 . S
C418 O437 1.242 . S
C419 C418 1.506 1_565 S
C419 C420 1.358 . S
C419 C424 1.382 . S
C420 C419 1.358 . S
C420 C421 1.385 . S
C420 H448 0.930 . S
C421 C420 1.385 . S
C421 C422 1.395 . S
C421 H449 0.929 . S
C422 C421 1.395 . S
C422 C423 1.335 . S
C423 C422 1.335 . S
C423 C424 1.398 . S
C423 H450 0.930 . S
C424 C419 1.382 . S
C424 C423 1.398 . S
C424 H451 0.929 1_565 S
C425 O438 1.271 . S
C425 O439 1.251 . S
C426 O440 1.282 . S
C426 O441 1.272 . S
C427 Sm417 2.846 . S
C427 C428 1.506 . S
C427 O442 1.261 . S
C427 O443 1.242 . S
C428 C427 1.506 . S
C428 C429 1.358 . S
C428 C433 1.382 . S
C429 C428 1.358 . S
C429 C430 1.385 . S
C429 H452 0.930 . S
C430 C429 1.385 . S
C430 C431 1.395 . S
C430 H453 0.929 . S
C431 C430 1.395 . S
C431 C432 1.335 . S
C432 C431 1.335 . S
C432 C433 1.398 . S
C432 H454 0.930 . S
C433 C428 1.382 . S
C433 C432 1.398 . S
C433 H455 0.929 . S
C434 O444 1.271 . S
C434 O445 1.251 . S
C435 O446 1.252 . S
C435 O447 1.272 . S
O436 Sm416 2.543 . S
O436 C418 1.261 . S
O437 Sm416 2.450 . S
O437 C418 1.242 . S
O438 Sm416 2.681 . S
O438 Sm417 2.386 . S
O438 C425 1.271 . S
O439 Sm416 2.464 . S
O439 C425 1.251 . S
O440 Sm416 2.349 1_565 S
O440 C426 1.282 . S
O441 Sm417 2.408 1_565 S
O441 C426 1.272 . S
O442 Sm417 2.543 . S
O442 C427 1.261 . S
O443 Sm417 2.450 . S
O443 C427 1.242 . S
O444 Sm416 2.386 . S
O444 Sm417 2.681 . S
O444 C434 1.271 . S
O445 Sm417 2.464 . S
O445 C434 1.251 . S
O446 Sm417 2.396 . S
O446 C435 1.252 . S
O447 Sm416 2.408 . S
O447 C435 1.272 . S
H448 C420 0.930 . S
H449 C421 0.929 . S
H450 C423 0.930 . S
H451 C424 0.929 1_545 S
H452 C429 0.930 . S
H453 C430 0.929 . S
H454 C432 0.930 . S
H455 C433 0.929 . S
Sm456 C458 2.846 . S
Sm456 O476 2.543 . S
Sm456 O477 2.450 . S
Sm456 O478 2.681 . S
Sm456 O479 2.464 . S
Sm456 O480 2.396 . S
Sm456 O484 2.386 . S
Sm456 O487 2.408 . S
Sm457 C467 2.846 . S
Sm457 O478 2.386 . S
Sm457 O481 2.408 . S
Sm457 O482 2.543 . S
Sm457 O483 2.450 . S
Sm457 O484 2.681 . S
Sm457 O485 2.464 . S
Sm457 O486 2.396 . S
C458 Sm456 2.846 . S
C458 C459 1.506 . S
C458 O476 1.261 . S
C458 O477 1.242 . S
C459 C458 1.506 . S
C459 C460 1.358 . S
C459 C464 1.382 . S
C460 C459 1.358 . S
C460 C461 1.385 . S
C460 H488 0.930 . S
C461 C460 1.385 . S
C461 C462 1.395 . S
C461 H489 0.929 . S
C462 C461 1.395 . S
C462 C463 1.335 . S
C463 C462 1.335 . S
C463 C464 1.398 . S
C463 H490 0.930 . S
C464 C459 1.382 . S
C464 C463 1.398 . S
C464 H491 0.929 . S
C465 O478 1.271 . S
C465 O479 1.251 . S
C466 O480 1.252 . S
C466 O481 1.272 . S
C467 Sm457 2.846 . S
C467 C468 1.506 . S
C467 O482 1.261 . S
C467 O483 1.242 . S
C468 C467 1.506 . S
C468 C469 1.358 . S
C468 C473 1.382 . S
C469 C468 1.358 . S
C469 C470 1.385 . S
C469 H492 0.930 . S
C470 C469 1.385 . S
C470 C471 1.395 . S
C470 H493 0.929 . S
C471 C470 1.395 . S
C471 C472 1.335 . S
C472 C471 1.335 . S
C472 C473 1.398 . S
C472 H494 0.930 . S
C473 C468 1.382 . S
C473 C472 1.398 . S
C473 H495 0.929 . S
C474 O484 1.271 . S
C474 O485 1.251 . S
C475 O486 1.252 . S
C475 O487 1.272 . S
O476 Sm456 2.543 . S
O476 C458 1.261 . S
O477 Sm456 2.450 . S
O477 C458 1.242 . S
O478 Sm456 2.681 . S
O478 Sm457 2.386 . S
O478 C465 1.271 . S
O479 Sm456 2.464 . S
O479 C465 1.251 . S
O480 Sm456 2.396 . S
O480 C466 1.252 . S
O481 Sm457 2.408 . S
O481 C466 1.272 . S
O482 Sm457 2.543 . S
O482 C467 1.261 . S
O483 Sm457 2.450 . S
O483 C467 1.242 . S
O484 Sm456 2.386 . S
O484 Sm457 2.681 . S
O484 C474 1.271 . S
O485 Sm457 2.464 . S
O485 C474 1.251 . S
O486 Sm457 2.396 . S
O486 C475 1.252 . S
O487 Sm456 2.408 . S
O487 C475 1.272 . S
H488 C460 0.930 . S
H489 C461 0.929 . S
H490 C463 0.930 . S
H491 C464 0.929 . S
H492 C469 0.930 . S
H493 C470 0.929 . S
H494 C472 0.930 . S
H495 C473 0.929 . S
Sm496 C498 2.846 . S
Sm496 O516 2.543 . S
Sm496 O517 2.450 . S
Sm496 O518 2.681 . S
Sm496 O519 2.464 . S
Sm496 O520 2.396 . S
Sm496 O524 2.386 . S
Sm496 O527 2.408 . S
Sm497 C507 2.846 1_545 S
Sm497 O518 2.386 . S
Sm497 O521 2.408 . S
Sm497 O522 2.543 1_545 S
Sm497 O523 2.450 1_545 S
Sm497 O524 2.681 . S
Sm497 O525 2.464 . S
Sm497 O526 2.396 . S
C498 Sm496 2.846 . S
C498 C499 1.506 . S
C498 O516 1.261 . S
C498 O517 1.242 . S
C499 C498 1.506 . S
C499 C500 1.358 . S
C499 C504 1.382 . S
C500 C499 1.358 . S
C500 C501 1.385 . S
C500 H528 0.930 . S
C501 C500 1.385 . S
C501 C502 1.395 . S
C501 H529 0.929 . S
C502 C501 1.395 . S
C502 C503 1.335 . S
C503 C502 1.335 . S
C503 C504 1.398 . S
C503 H530 0.944 . S
C504 C499 1.382 . S
C504 C503 1.398 . S
C504 H531 0.929 . S
C505 O518 1.271 . S
C505 O519 1.251 . S
C506 O520 1.252 . S
C506 O521 1.272 . S
C507 Sm497 2.846 1_565 S
C507 C508 1.506 . S
C507 O522 1.261 . S
C507 O523 1.242 . S
C508 C507 1.506 . S
C508 C509 1.358 . S
C508 C513 1.382 . S
C509 C508 1.358 . S
C509 C510 1.385 . S
C509 H532 0.930 . S
C510 C509 1.385 . S
C510 C511 1.395 . S
C510 H533 0.929 . S
C511 C510 1.395 . S
C511 C512 1.335 . S
C512 C511 1.335 . S
C512 C513 1.398 . S
C512 H534 0.930 . S
C513 C508 1.382 . S
C513 C512 1.398 . S
C513 H535 0.929 . S
C514 O524 1.271 . S
C514 O525 1.251 . S
C515 O526 1.252 . S
C515 O527 1.272 . S
O516 Sm496 2.543 . S
O516 C498 1.261 . S
O517 Sm496 2.450 . S
O517 C498 1.242 . S
O518 Sm496 2.681 . S
O518 Sm497 2.386 . S
O518 C505 1.271 . S
O519 Sm496 2.464 . S
O519 C505 1.251 . S
O520 Sm496 2.396 . S
O520 C506 1.252 . S
O521 Sm497 2.408 . S
O521 C506 1.272 . S
O522 Sm497 2.543 1_565 S
O522 C507 1.261 . S
O523 Sm497 2.450 1_565 S
O523 C507 1.242 . S
O524 Sm496 2.386 . S
O524 Sm497 2.681 . S
O524 C514 1.271 . S
O525 Sm497 2.464 . S
O525 C514 1.251 . S
O526 Sm497 2.396 . S
O526 C515 1.252 . S
O527 Sm496 2.408 . S
O527 C515 1.272 . S
H528 C500 0.930 . S
H529 C501 0.929 . S
H530 C503 0.944 . S
H531 C504 0.929 . S
H532 C509 0.930 . S
H533 C510 0.929 . S
H534 C512 0.930 . S
H535 C513 0.929 . S
Sm536 C538 2.846 . S
Sm536 O556 2.543 . S
Sm536 O557 2.450 . S
Sm536 O558 2.681 . S
Sm536 O559 2.464 . S
Sm536 O560 2.396 . S
Sm536 O564 2.386 . S
Sm536 O567 2.408 . S
Sm537 C547 2.846 . S
Sm537 O558 2.386 . S
Sm537 O561 2.408 . S
Sm537 O562 2.543 . S
Sm537 O563 2.450 . S
Sm537 O564 2.681 . S
Sm537 O565 2.464 . S
Sm537 O566 2.396 . S
C538 Sm536 2.846 . S
C538 C539 1.506 . S
C538 O556 1.261 . S
C538 O557 1.242 . S
C539 C538 1.506 . S
C539 C540 1.358 . S
C539 C544 1.382 . S
C540 C539 1.358 . S
C540 C541 1.385 . S
C540 H568 0.930 . S
C541 C540 1.385 . S
C541 C542 1.395 . S
C541 H569 0.929 . S
C542 C541 1.395 . S
C542 C543 1.335 . S
C543 C542 1.335 . S
C543 C544 1.398 . S
C543 H570 0.930 . S
C544 C539 1.382 . S
C544 C543 1.398 . S
C544 H571 0.929 . S
C545 O558 1.271 . S
C545 O559 1.251 . S
C546 O560 1.252 . S
C546 O561 1.272 . S
C547 Sm537 2.846 . S
C547 C548 1.506 . S
C547 O562 1.261 . S
C547 O563 1.242 . S
C548 C547 1.506 . S
C548 C549 1.358 . S
C548 C553 1.382 . S
C549 C548 1.358 . S
C549 C550 1.385 . S
C549 H572 0.930 . S
C550 C549 1.385 . S
C550 C551 1.395 . S
C550 H573 0.929 . S
C551 C550 1.395 . S
C551 C552 1.335 . S
C552 C551 1.335 . S
C552 C553 1.398 . S
C552 H574 0.930 . S
C553 C548 1.382 . S
C553 C552 1.398 . S
C553 H575 0.929 . S
C554 O564 1.271 . S
C554 O565 1.251 . S
C555 O566 1.252 . S
C555 O567 1.272 . S
O556 Sm536 2.543 . S
O556 C538 1.261 . S
O557 Sm536 2.450 . S
O557 C538 1.242 . S
O558 Sm536 2.681 . S
O558 Sm537 2.386 . S
O558 C545 1.271 . S
O559 Sm536 2.464 . S
O559 C545 1.251 . S
O560 Sm536 2.396 . S
O560 C546 1.252 . S
O561 Sm537 2.408 . S
O561 C546 1.272 . S
O562 Sm537 2.543 . S
O562 C547 1.261 . S
O563 Sm537 2.450 . S
O563 C547 1.242 . S
O564 Sm536 2.386 . S
O564 Sm537 2.681 . S
O564 C554 1.271 . S
O565 Sm537 2.464 . S
O565 C554 1.251 . S
O566 Sm537 2.396 . S
O566 C555 1.252 . S
O567 Sm536 2.408 . S
O567 C555 1.272 . S
H568 C540 0.930 . S
H569 C541 0.929 . S
H570 C543 0.930 . S
H571 C544 0.929 . S
H572 C549 0.930 . S
H573 C550 0.929 . S
H574 C552 0.930 . S
H575 C553 0.929 . S
Sm576 C578 2.846 . S
Sm576 O596 2.543 . S
Sm576 O597 2.450 . S
Sm576 O598 2.681 1_554 S
Sm576 O599 2.464 1_545 S
Sm576 O600 2.396 . S
Sm576 O604 2.386 . S
Sm576 O607 2.408 . S
Sm577 C587 2.846 . S
Sm577 O598 2.386 . S
Sm577 O601 2.408 . S
Sm577 O602 2.543 . S
Sm577 O603 2.450 . S
Sm577 O604 2.681 1_556 S
Sm577 O605 2.464 1_556 S
Sm577 O606 2.396 . S
C578 Sm576 2.846 . S
C578 C579 1.506 . S
C578 O596 1.261 . S
C578 O597 1.242 . S
C579 C578 1.506 . S
C579 C580 1.358 . S
C579 C584 1.382 1_545 S
C580 C579 1.358 . S
C580 C581 1.385 . S
C580 H608 0.930 . S
C581 C580 1.385 . S
C581 C582 1.395 1_545 S
C581 H609 0.929 . S
C582 C581 1.395 1_565 S
C582 C583 1.335 . S
C583 C582 1.335 . S
C583 C584 1.398 . S
C583 H610 0.930 . S
C584 C579 1.382 1_565 S
C584 C583 1.398 . S
C584 H611 0.929 . S
C585 O598 1.274 1_564 S
C585 O599 1.244 . S
C586 O600 1.252 . S
C586 O601 1.272 1_554 S
C587 Sm577 2.846 . S
C587 C588 1.506 . S
C587 O602 1.261 . S
C587 O603 1.242 . S
C588 C587 1.506 . S
C588 C589 1.358 . S
C588 C593 1.382 . S
C589 C588 1.358 . S
C589 C590 1.385 . S
C589 H612 0.930 . S
C590 C589 1.385 . S
C590 C591 1.395 . S
C590 H613 0.929 . S
C591 C590 1.395 . S
C591 C592 1.335 . S
C592 C591 1.335 . S
C592 C593 1.398 . S
C592 H614 0.930 . S
C593 C588 1.382 . S
C593 C592 1.398 . S
C593 H615 0.929 . S
C594 O604 1.271 . S
C594 O605 1.251 . S
C595 O606 1.252 1_554 S
C595 O607 1.272 . S
O596 Sm576 2.543 . S
O596 C578 1.261 . S
O597 Sm576 2.450 . S
O597 C578 1.242 . S
O598 Sm576 2.681 1_556 S
O598 Sm577 2.386 . S
O598 C585 1.274 1_546 S
O599 Sm576 2.464 1_565 S
O599 C585 1.244 . S
O600 Sm576 2.396 . S
O600 C586 1.252 . S
O601 Sm577 2.408 . S
O601 C586 1.272 1_556 S
O602 Sm577 2.543 . S
O602 C587 1.261 . S
O603 Sm577 2.450 . S
O603 C587 1.242 . S
O604 Sm576 2.386 . S
O604 Sm577 2.681 1_554 S
O604 C594 1.271 . S
O605 Sm577 2.464 1_554 S
O605 C594 1.251 . S
O606 Sm577 2.396 . S
O606 C595 1.252 1_556 S
O607 Sm576 2.408 . S
O607 C595 1.272 . S
H608 C580 0.930 . S
H609 C581 0.929 . S
H610 C583 0.930 . S
H611 C584 0.929 . S
H612 C589 0.930 . S
H613 C590 0.929 . S
H614 C592 0.930 . S
H615 C593 0.929 . S
Sm616 C618 2.846 . S
Sm616 O636 2.543 . S
Sm616 O637 2.450 . S
Sm616 O638 2.681 . S
Sm616 O639 2.464 . S
Sm616 O640 2.396 . S
Sm616 O644 2.386 . S
Sm616 O647 2.408 . S
Sm617 C627 2.846 . S
Sm617 O638 2.386 . S
Sm617 O641 2.408 . S
Sm617 O642 2.543 . S
Sm617 O643 2.450 . S
Sm617 O644 2.681 . S
Sm617 O645 2.464 . S
Sm617 O646 2.396 . S
C618 Sm616 2.846 . S
C618 C619 1.506 . S
C618 O636 1.261 . S
C618 O637 1.242 . S
C619 C618 1.506 . S
C619 C620 1.358 . S
C619 C624 1.382 . S
C620 C619 1.358 . S
C620 C621 1.385 . S
C620 H648 0.930 . S
C621 C620 1.385 . S
C621 C622 1.395 . S
C621 H649 0.929 . S
C622 C621 1.395 . S
C622 C623 1.335 . S
C623 C622 1.335 . S
C623 C624 1.398 . S
C623 H650 0.930 . S
C624 C619 1.382 . S
C624 C623 1.398 . S
C624 H651 0.929 . S
C625 O638 1.271 . S
C625 O639 1.251 . S
C626 O640 1.252 . S
C626 O641 1.272 . S
C627 Sm617 2.846 . S
C627 C628 1.506 . S
C627 O642 1.261 . S
C627 O643 1.242 . S
C628 C627 1.506 . S
C628 C629 1.358 . S
C628 C633 1.382 . S
C629 C628 1.358 . S
C629 C630 1.385 . S
C629 H652 0.930 . S
C630 C629 1.385 . S
C630 C631 1.395 . S
C630 H653 0.929 . S
C631 C630 1.395 . S
C631 C632 1.335 . S
C632 C631 1.335 . S
C632 C633 1.398 . S
C632 H654 0.930 . S
C633 C628 1.382 . S
C633 C632 1.398 . S
C633 H655 0.929 . S
C634 O644 1.271 . S
C634 O645 1.251 . S
C635 O646 1.252 . S
C635 O647 1.272 . S
O636 Sm616 2.543 . S
O636 C618 1.261 . S
O637 Sm616 2.450 . S
O637 C618 1.242 . S
O638 Sm616 2.681 . S
O638 Sm617 2.386 . S
O638 C625 1.271 . S
O639 Sm616 2.464 . S
O639 C625 1.251 . S
O640 Sm616 2.396 . S
O640 C626 1.252 . S
O641 Sm617 2.408 . S
O641 C626 1.272 . S
O642 Sm617 2.543 . S
O642 C627 1.261 . S
O643 Sm617 2.450 . S
O643 C627 1.242 . S
O644 Sm616 2.386 . S
O644 Sm617 2.681 . S
O644 C634 1.271 . S
O645 Sm617 2.464 . S
O645 C634 1.251 . S
O646 Sm617 2.396 . S
O646 C635 1.252 . S
O647 Sm616 2.408 . S
O647 C635 1.272 . S
H648 C620 0.930 . S
H649 C621 0.929 . S
H650 C623 0.930 . S
H651 C624 0.929 . S
H652 C629 0.930 . S
H653 C630 0.929 . S
H654 C632 0.930 . S
H655 C633 0.929 . S
Sm656 C658 2.846 1_554 S
Sm656 O676 2.543 1_554 S
Sm656 O677 2.450 . S
Sm656 O678 2.681 . S
Sm656 O679 2.464 . S
Sm656 O680 2.396 1_554 S
Sm656 O684 2.386 . S
Sm656 O687 2.408 . S
Sm657 C667 2.858 . S
Sm657 O678 2.394 . S
Sm657 O681 2.391 1_554 S
Sm657 O682 2.558 . S
Sm657 O683 2.457 . S
Sm657 O684 2.679 . S
Sm657 O685 2.462 . S
Sm657 O686 2.414 . S
C658 Sm656 2.846 1_556 S
C658 C659 1.506 . S
C658 O676 1.261 . S
C658 O677 1.242 1_556 S
C659 C658 1.506 . S
C659 C660 1.358 . S
C659 C664 1.382 . S
C660 C659 1.358 . S
C660 C661 1.385 . S
C660 H688 0.930 . S
C661 C660 1.385 . S
C661 C662 1.395 . S
C661 H689 0.929 . S
C662 C661 1.395 . S
C662 C663 1.335 . S
C663 C662 1.335 . S
C663 C664 1.398 . S
C663 H690 0.930 . S
C664 C659 1.382 . S
C664 C663 1.398 . S
C664 H691 0.929 . S
C665 O678 1.271 . S
C665 O679 1.251 . S
C666 O680 1.252 . S
C666 O681 1.272 . S
C667 Sm657 2.858 . S
C667 C668 1.506 . S
C667 O682 1.261 . S
C667 O683 1.242 . S
C668 C667 1.506 . S
C668 C669 1.358 . S
C668 C673 1.382 . S
C669 C668 1.358 . S
C669 C670 1.385 . S
C669 H692 0.930 . S
C670 C669 1.385 . S
C670 C671 1.395 . S
C670 H693 0.929 . S
C671 C670 1.395 . S
C671 C672 1.335 . S
C672 C671 1.335 . S
C672 C673 1.398 . S
C672 H694 0.930 . S
C673 C668 1.382 . S
C673 C672 1.398 . S
C673 H695 0.929 . S
C674 O684 1.271 . S
C674 O685 1.251 . S
C675 O686 1.252 . S
C675 O687 1.272 . S
O676 Sm656 2.543 1_556 S
O676 C658 1.261 . S
O677 Sm656 2.450 . S
O677 C658 1.242 1_554 S
O678 Sm656 2.681 . S
O678 Sm657 2.394 . S
O678 C665 1.271 . S
O679 Sm656 2.464 . S
O679 C665 1.251 . S
O680 Sm656 2.396 1_556 S
O680 C666 1.252 . S
O681 Sm657 2.391 1_556 S
O681 C666 1.272 . S
O682 Sm657 2.558 . S
O682 C667 1.261 . S
O683 Sm657 2.457 . S
O683 C667 1.242 . S
O684 Sm656 2.386 . S
O684 Sm657 2.679 . S
O684 C674 1.271 . S
O685 Sm657 2.462 . S
O685 C674 1.251 . S
O686 Sm657 2.414 . S
O686 C675 1.252 . S
O687 Sm656 2.408 . S
O687 C675 1.272 . S
H688 C660 0.930 . S
H689 C661 0.929 . S
H690 C663 0.930 . S
H691 C664 0.929 . S
H692 C669 0.930 . S
H693 C670 0.929 . S
H694 C672 0.930 . S
H695 C673 0.929 . S
Sm696 C698 2.846 . S
Sm696 O716 2.543 . S
Sm696 O717 2.450 . S
Sm696 O718 2.681 . S
Sm696 O719 2.464 . S
Sm696 O720 2.396 . S
Sm696 O724 2.386 . S
Sm696 O727 2.408 . S
Sm697 C707 2.846 . S
Sm697 O718 2.386 . S
Sm697 O721 2.408 . S
Sm697 O722 2.543 . S
Sm697 O723 2.450 . S
Sm697 O724 2.681 . S
Sm697 O725 2.464 . S
Sm697 O726 2.396 . S
C698 Sm696 2.846 . S
C698 C699 1.506 . S
C698 O716 1.261 . S
C698 O717 1.242 . S
C699 C698 1.506 . S
C699 C700 1.358 . S
C699 C704 1.382 . S
C700 C699 1.358 . S
C700 C701 1.385 . S
C700 H728 0.930 . S
C701 C700 1.385 . S
C701 C702 1.395 . S
C701 H729 0.929 . S
C702 C701 1.395 . S
C702 C703 1.335 . S
C703 C702 1.335 . S
C703 C704 1.398 . S
C703 H730 0.930 . S
C704 C699 1.382 . S
C704 C703 1.398 . S
C704 H731 0.929 . S
C705 O718 1.271 . S
C705 O719 1.251 . S
C706 O720 1.252 . S
C706 O721 1.272 . S
C707 Sm697 2.846 . S
C707 C708 1.506 . S
C707 O722 1.261 . S
C707 O723 1.242 . S
C708 C707 1.506 . S
C708 C709 1.358 . S
C708 C713 1.382 . S
C709 C708 1.358 . S
C709 C710 1.385 . S
C709 H732 0.930 . S
C710 C709 1.385 . S
C710 C711 1.395 . S
C710 H733 0.929 . S
C711 C710 1.395 . S
C711 C712 1.335 . S
C712 C711 1.335 . S
C712 C713 1.398 . S
C712 H734 0.930 . S
C713 C708 1.382 . S
C713 C712 1.398 . S
C713 H735 0.929 . S
C714 O724 1.271 . S
C714 O725 1.251 . S
C715 O726 1.252 . S
C715 O727 1.272 . S
O716 Sm696 2.543 . S
O716 C698 1.261 . S
O717 Sm696 2.450 . S
O717 C698 1.242 . S
O718 Sm696 2.681 . S
O718 Sm697 2.386 . S
O718 C705 1.271 . S
O719 Sm696 2.464 . S
O719 C705 1.251 . S
O720 Sm696 2.396 . S
O720 C706 1.252 . S
O721 Sm697 2.408 . S
O721 C706 1.272 . S
O722 Sm697 2.543 . S
O722 C707 1.261 . S
O723 Sm697 2.450 . S
O723 C707 1.242 . S
O724 Sm696 2.386 . S
O724 Sm697 2.681 . S
O724 C714 1.271 . S
O725 Sm697 2.464 . S
O725 C714 1.251 . S
O726 Sm697 2.396 . S
O726 C715 1.252 . S
O727 Sm696 2.408 . S
O727 C715 1.272 . S
H728 C700 0.930 . S
H729 C701 0.929 . S
H730 C703 0.930 . S
H731 C704 0.929 . S
H732 C709 0.930 . S
H733 C710 0.929 . S
H734 C712 0.930 . S
H735 C713 0.929 . S
Sm736 C738 2.846 . S
Sm736 O756 2.543 . S
Sm736 O757 2.450 . S
Sm736 O758 2.681 . S
Sm736 O759 2.464 . S
Sm736 O760 2.396 . S
Sm736 O764 2.386 . S
Sm736 O767 2.408 . S
Sm737 C747 2.846 . S
Sm737 O758 2.386 . S
Sm737 O761 2.408 . S
Sm737 O762 2.543 . S
Sm737 O763 2.450 . S
Sm737 O764 2.681 . S
Sm737 O765 2.464 . S
Sm737 O766 2.396 . S
C738 Sm736 2.846 . S
C738 C739 1.506 . S
C738 O756 1.261 . S
C738 O757 1.242 . S
C739 C738 1.506 . S
C739 C740 1.358 1_455 S
C739 C744 1.382 . S
C740 C739 1.358 1_655 S
C740 C741 1.385 . S
C740 H768 0.930 . S
C741 C740 1.385 . S
C741 C742 1.395 . S
C741 H769 0.929 . S
C742 C741 1.395 . S
C742 C743 1.335 1_655 S
C743 C742 1.335 1_455 S
C743 C744 1.398 . S
C743 H770 0.930 . S
C744 C739 1.382 . S
C744 C743 1.398 . S
C744 H771 0.929 . S
C745 O758 1.271 . S
C745 O759 1.251 . S
C746 O760 1.260 . S
C746 O761 1.274 . S
C747 Sm737 2.846 . S
C747 C748 1.506 . S
C747 O762 1.261 . S
C747 O763 1.242 . S
C748 C747 1.506 . S
C748 C749 1.358 . S
C748 C753 1.382 . S
C749 C748 1.358 . S
C749 C750 1.385 . S
C749 H772 0.930 . S
C750 C749 1.385 . S
C750 C751 1.395 . S
C750 H773 0.929 . S
C751 C750 1.395 . S
C751 C752 1.335 . S
C752 C751 1.335 . S
C752 C753 1.398 . S
C752 H774 0.930 . S
C753 C748 1.382 . S
C753 C752 1.398 . S
C753 H775 0.929 . S
C754 O764 1.271 . S
C754 O765 1.251 . S
C755 O766 1.252 . S
C755 O767 1.272 . S
O756 Sm736 2.543 . S
O756 C738 1.261 . S
O757 Sm736 2.450 . S
O757 C738 1.242 . S
O758 Sm736 2.681 . S
O758 Sm737 2.386 . S
O758 C745 1.271 . S
O759 Sm736 2.464 . S
O759 C745 1.251 . S
O760 Sm736 2.396 . S
O760 C746 1.260 . S
O761 Sm737 2.408 . S
O761 C746 1.274 . S
O762 Sm737 2.543 . S
O762 C747 1.261 . S
O763 Sm737 2.450 . S
O763 C747 1.242 . S
O764 Sm736 2.386 . S
O764 Sm737 2.681 . S
O764 C754 1.271 . S
O765 Sm737 2.464 . S
O765 C754 1.251 . S
O766 Sm737 2.396 . S
O766 C755 1.252 . S
O767 Sm736 2.408 . S
O767 C755 1.272 . S
H768 C740 0.930 . S
H769 C741 0.929 . S
H770 C743 0.930 . S
H771 C744 0.929 . S
H772 C749 0.930 . S
H773 C750 0.929 . S
H774 C752 0.930 . S
H775 C753 0.929 . S
Sm776 C778 2.846 . S
Sm776 O796 2.543 . S
Sm776 O797 2.450 . S
Sm776 O798 2.681 . S
Sm776 O799 2.464 . S
Sm776 O800 2.396 . S
Sm776 O804 2.386 . S
Sm776 O807 2.408 . S
Sm777 C787 2.846 . S
Sm777 O798 2.386 . S
Sm777 O801 2.408 . S
Sm777 O802 2.543 . S
Sm777 O803 2.450 . S
Sm777 O804 2.681 . S
Sm777 O805 2.464 . S
Sm777 O806 2.396 . S
C778 Sm776 2.846 . S
C778 C779 1.506 . S
C778 O796 1.261 . S
C778 O797 1.242 . S
C779 C778 1.506 . S
C779 C780 1.358 . S
C779 C784 1.382 . S
C780 C779 1.358 . S
C780 C781 1.385 . S
C780 H808 0.930 . S
C781 C780 1.385 . S
C781 C782 1.395 . S
C781 H809 0.929 . S
C782 C781 1.395 . S
C782 C783 1.335 . S
C783 C782 1.335 . S
C783 C784 1.398 . S
C783 H810 0.930 . S
C784 C779 1.382 . S
C784 C783 1.398 . S
C784 H811 0.929 . S
C785 O798 1.271 . S
C785 O799 1.251 . S
C786 O800 1.252 . S
C786 O801 1.272 . S
C787 Sm777 2.846 . S
C787 C788 1.506 . S
C787 O802 1.261 . S
C787 O803 1.242 . S
C788 C787 1.506 . S
C788 C789 1.358 . S
C788 C793 1.382 . S
C789 C788 1.358 . S
C789 C790 1.385 . S
C789 H812 0.930 . S
C790 C789 1.385 . S
C790 C791 1.395 . S
C790 H813 0.929 . S
C791 C790 1.395 . S
C791 C792 1.335 . S
C792 C791 1.335 . S
C792 C793 1.398 . S
C792 H814 0.930 . S
C793 C788 1.382 . S
C793 C792 1.398 . S
C793 H815 0.929 . S
C794 O804 1.271 . S
C794 O805 1.251 . S
C795 O806 1.252 . S
C795 O807 1.272 . S
O796 Sm776 2.543 . S
O796 C778 1.261 . S
O797 Sm776 2.450 . S
O797 C778 1.242 . S
O798 Sm776 2.681 . S
O798 Sm777 2.386 . S
O798 C785 1.271 . S
O799 Sm776 2.464 . S
O799 C785 1.251 . S
O800 Sm776 2.396 . S
O800 C786 1.252 . S
O801 Sm777 2.408 . S
O801 C786 1.272 . S
O802 Sm777 2.543 . S
O802 C787 1.261 . S
O803 Sm777 2.450 . S
O803 C787 1.242 . S
O804 Sm776 2.386 . S
O804 Sm777 2.681 . S
O804 C794 1.271 . S
O805 Sm777 2.464 . S
O805 C794 1.251 . S
O806 Sm777 2.396 . S
O806 C795 1.252 . S
O807 Sm776 2.408 . S
O807 C795 1.272 . S
H808 C780 0.930 . S
H809 C781 0.929 . S
H810 C783 0.930 . S
H811 C784 0.929 . S
H812 C789 0.930 . S
H813 C790 0.929 . S
H814 C792 0.930 . S
H815 C793 0.929 . S
Sm816 C818 2.846 . S
Sm816 O836 2.543 . S
Sm816 O837 2.450 . S
Sm816 O838 2.681 . S
Sm816 O839 2.464 . S
Sm816 O840 2.396 . S
Sm816 O844 2.386 . S
Sm816 O847 2.408 . S
Sm817 C827 2.846 . S
Sm817 O838 2.386 . S
Sm817 O841 2.408 . S
Sm817 O842 2.543 . S
Sm817 O843 2.450 . S
Sm817 O844 2.681 . S
Sm817 O845 2.464 . S
Sm817 O846 2.396 . S
C818 Sm816 2.846 . S
C818 C819 1.506 . S
C818 O836 1.261 . S
C818 O837 1.242 . S
C819 C818 1.506 . S
C819 C820 1.358 . S
C819 C824 1.382 . S
C820 C819 1.358 . S
C820 C821 1.385 . S
C820 H848 0.930 . S
C821 C820 1.385 . S
C821 C822 1.395 . S
C821 H849 0.929 . S
C822 C821 1.395 . S
C822 C823 1.335 . S
C823 C822 1.335 . S
C823 C824 1.398 . S
C823 H850 0.930 . S
C824 C819 1.382 . S
C824 C823 1.398 . S
C824 H851 0.929 . S
C825 O838 1.271 . S
C825 O839 1.251 . S
C826 O840 1.252 . S
C826 O841 1.272 . S
C827 Sm817 2.846 . S
C827 C828 1.506 . S
C827 O842 1.261 . S
C827 O843 1.242 . S
C828 C827 1.506 . S
C828 C829 1.358 . S
C828 C833 1.382 . S
C829 C828 1.358 . S
C829 C830 1.385 . S
C829 H852 0.930 . S
C830 C829 1.385 . S
C830 C831 1.395 . S
C830 H853 0.929 . S
C831 C830 1.395 . S
C831 C832 1.335 . S
C832 C831 1.335 . S
C832 C833 1.398 . S
C832 H854 0.930 . S
C833 C828 1.382 . S
C833 C832 1.398 . S
C833 H855 0.929 . S
C834 O844 1.271 . S
C834 O845 1.251 . S
C835 O846 1.252 . S
C835 O847 1.272 . S
O836 Sm816 2.543 . S
O836 C818 1.261 . S
O837 Sm816 2.450 . S
O837 C818 1.242 . S
O838 Sm816 2.681 . S
O838 Sm817 2.386 . S
O838 C825 1.271 . S
O839 Sm816 2.464 . S
O839 C825 1.251 . S
O840 Sm816 2.396 . S
O840 C826 1.252 . S
O841 Sm817 2.408 . S
O841 C826 1.272 . S
O842 Sm817 2.543 . S
O842 C827 1.261 . S
O843 Sm817 2.450 . S
O843 C827 1.242 . S
O844 Sm816 2.386 . S
O844 Sm817 2.681 . S
O844 C834 1.271 . S
O845 Sm817 2.464 . S
O845 C834 1.251 . S
O846 Sm817 2.396 . S
O846 C835 1.252 . S
O847 Sm816 2.408 . S
O847 C835 1.272 . S
H848 C820 0.930 . S
H849 C821 0.929 . S
H850 C823 0.930 . S
H851 C824 0.929 . S
H852 C829 0.930 . S
H853 C830 0.929 . S
H854 C832 0.930 . S
H855 C833 0.929 . S
Sm856 C858 2.846 . S
Sm856 O876 2.543 . S
Sm856 O877 2.450 . S
Sm856 O878 2.681 . S
Sm856 O879 2.464 . S
Sm856 O880 2.396 . S
Sm856 O884 2.386 . S
Sm856 O887 2.408 . S
Sm857 C867 2.846 . S
Sm857 O878 2.386 . S
Sm857 O881 2.408 . S
Sm857 O882 2.543 . S
Sm857 O883 2.450 . S
Sm857 O884 2.681 . S
Sm857 O885 2.464 . S
Sm857 O886 2.396 . S
C858 Sm856 2.846 . S
C858 C859 1.506 . S
C858 O876 1.261 . S
C858 O877 1.242 . S
C859 C858 1.506 . S
C859 C860 1.358 . S
C859 C864 1.382 . S
C860 C859 1.358 . S
C860 C861 1.385 . S
C860 H888 0.930 . S
C861 C860 1.385 . S
C861 C862 1.395 . S
C861 H889 0.929 . S
C862 C861 1.395 . S
C862 C863 1.335 . S
C863 C862 1.335 . S
C863 C864 1.398 . S
C863 H890 0.930 . S
C864 C859 1.382 . S
C864 C863 1.398 . S
C864 H891 0.929 . S
C865 O878 1.271 . S
C865 O879 1.251 . S
C866 O880 1.252 . S
C866 O881 1.272 . S
C867 Sm857 2.846 . S
C867 C868 1.506 . S
C867 O882 1.261 . S
C867 O883 1.242 . S
C868 C867 1.506 . S
C868 C869 1.358 . S
C868 C873 1.382 . S
C869 C868 1.358 . S
C869 C870 1.385 . S
C869 H892 0.930 . S
C870 C869 1.385 . S
C870 C871 1.395 . S
C870 H893 0.929 . S
C871 C870 1.395 . S
C871 C872 1.335 . S
C872 C871 1.335 . S
C872 C873 1.398 . S
C872 H894 0.930 . S
C873 C868 1.382 . S
C873 C872 1.398 . S
C873 H895 0.929 . S
C874 O884 1.271 . S
C874 O885 1.251 . S
C875 O886 1.252 . S
C875 O887 1.272 . S
O876 Sm856 2.543 . S
O876 C858 1.261 . S
O877 Sm856 2.450 . S
O877 C858 1.242 . S
O878 Sm856 2.681 . S
O878 Sm857 2.386 . S
O878 C865 1.271 . S
O879 Sm856 2.464 . S
O879 C865 1.251 . S
O880 Sm856 2.396 . S
O880 C866 1.252 . S
O881 Sm857 2.408 . S
O881 C866 1.272 . S
O882 Sm857 2.543 . S
O882 C867 1.261 . S
O883 Sm857 2.450 . S
O883 C867 1.242 . S
O884 Sm856 2.386 . S
O884 Sm857 2.681 . S
O884 C874 1.271 . S
O885 Sm857 2.464 . S
O885 C874 1.251 . S
O886 Sm857 2.396 . S
O886 C875 1.252 . S
O887 Sm856 2.408 . S
O887 C875 1.272 . S
H888 C860 0.930 . S
H889 C861 0.929 . S
H890 C863 0.930 . S
H891 C864 0.929 . S
H892 C869 0.930 . S
H893 C870 0.929 . S
H894 C872 0.930 . S
H895 C873 0.929 . S
Sm896 C898 2.846 . S
Sm896 O916 2.543 . S
Sm896 O917 2.450 . S
Sm896 O918 2.681 . S
Sm896 O919 2.464 . S
Sm896 O920 2.396 . S
Sm896 O924 2.386 . S
Sm896 O927 2.408 . S
Sm897 C907 2.846 . S
Sm897 O918 2.386 . S
Sm897 O921 2.408 . S
Sm897 O922 2.543 . S
Sm897 O923 2.450 . S
Sm897 O924 2.681 . S
Sm897 O925 2.464 . S
Sm897 O926 2.396 . S
C898 Sm896 2.846 . S
C898 C899 1.506 . S
C898 O916 1.261 . S
C898 O917 1.242 . S
C899 C898 1.506 . S
C899 C900 1.358 . S
C899 C904 1.382 . S
C900 C899 1.358 . S
C900 C901 1.385 . S
C900 H928 0.930 . S
C901 C900 1.385 . S
C901 C902 1.395 . S
C901 H929 0.929 . S
C902 C901 1.395 . S
C902 C903 1.335 . S
C903 C902 1.335 . S
C903 C904 1.398 . S
C903 H930 0.930 . S
C904 C899 1.382 . S
C904 C903 1.398 . S
C904 H931 0.929 . S
C905 O918 1.271 . S
C905 O919 1.251 . S
C906 O920 1.252 . S
C906 O921 1.272 . S
C907 Sm897 2.846 . S
C907 C908 1.506 . S
C907 O922 1.261 . S
C907 O923 1.242 . S
C908 C907 1.506 . S
C908 C909 1.358 . S
C908 C913 1.382 . S
C909 C908 1.358 . S
C909 C910 1.385 . S
C909 H932 0.930 . S
C910 C909 1.385 . S
C910 C911 1.395 . S
C910 H933 0.929 . S
C911 C910 1.395 . S
C911 C912 1.335 . S
C912 C911 1.335 . S
C912 C913 1.398 . S
C912 H934 0.930 . S
C913 C908 1.382 . S
C913 C912 1.398 . S
C913 H935 0.929 . S
C914 O924 1.271 . S
C914 O925 1.251 . S
C915 O926 1.252 . S
C915 O927 1.272 . S
O916 Sm896 2.543 . S
O916 C898 1.261 . S
O917 Sm896 2.450 . S
O917 C898 1.242 . S
O918 Sm896 2.681 . S
O918 Sm897 2.386 . S
O918 C905 1.271 . S
O919 Sm896 2.464 . S
O919 C905 1.251 . S
O920 Sm896 2.396 . S
O920 C906 1.252 . S
O921 Sm897 2.408 . S
O921 C906 1.272 . S
O922 Sm897 2.543 . S
O922 C907 1.261 . S
O923 Sm897 2.450 . S
O923 C907 1.242 . S
O924 Sm896 2.386 . S
O924 Sm897 2.681 . S
O924 C914 1.271 . S
O925 Sm897 2.464 . S
O925 C914 1.251 . S
O926 Sm897 2.396 . S
O926 C915 1.252 . S
O927 Sm896 2.408 . S
O927 C915 1.272 . S
H928 C900 0.930 . S
H929 C901 0.929 . S
H930 C903 0.930 . S
H931 C904 0.929 . S
H932 C909 0.930 . S
H933 C910 0.929 . S
H934 C912 0.930 . S
H935 C913 0.929 . S
Sm936 C938 2.846 1_554 S
Sm936 O956 2.543 . S
Sm936 O957 2.450 1_554 S
Sm936 O958 2.681 1_554 S
Sm936 O959 2.464 1_554 S
Sm936 O960 2.396 1_554 S
Sm936 O964 2.386 . S
Sm936 O967 2.408 . S
Sm937 C947 2.846 1_455 S
Sm937 O958 2.386 1_554 S
Sm937 O961 2.408 . S
Sm937 O962 2.543 1_455 S
Sm937 O963 2.450 1_455 S
Sm937 O964 2.681 . S
Sm937 O965 2.464 . S
Sm937 O966 2.396 . S
C938 Sm936 2.846 1_556 S
C938 C939 1.506 . S
C938 O956 1.261 1_556 S
C938 O957 1.242 . S
C939 C938 1.506 . S
C939 C940 1.358 1_556 S
C939 C944 1.382 . S
C940 C939 1.358 1_554 S
C940 C941 1.385 . S
C940 H968 0.930 . S
C941 C940 1.385 . S
C941 C942 1.395 1_554 S
C941 H969 0.929 . S
C942 C941 1.395 1_556 S
C942 C943 1.335 . S
C943 C942 1.335 . S
C943 C944 1.398 . S
C943 H970 0.930 . S
C944 C939 1.382 . S
C944 C943 1.398 . S
C944 H971 0.929 . S
C945 O958 1.271 . S
C945 O959 1.251 . S
C946 O960 1.252 1_554 S
C946 O961 1.272 . S
C947 Sm937 2.846 1_655 S
C947 C948 1.506 . S
C947 O962 1.261 . S
C947 O963 1.242 . S
C948 C947 1.506 . S
C948 C949 1.358 . S
C948 C953 1.382 . S
C949 C948 1.358 . S
C949 C950 1.385 . S
C949 H972 0.930 . S
C950 C949 1.385 . S
C950 C951 1.395 . S
C950 H973 0.929 . S
C951 C950 1.395 . S
C951 C952 1.335 . S
C952 C951 1.335 . S
C952 C953 1.398 . S
C952 H974 0.930 . S
C953 C948 1.382 . S
C953 C952 1.398 . S
C953 H975 0.929 . S
C954 O964 1.271 . S
C954 O965 1.251 . S
C955 O966 1.252 . S
C955 O967 1.272 . S
O956 Sm936 2.543 . S
O956 C938 1.261 1_554 S
O957 Sm936 2.450 1_556 S
O957 C938 1.242 . S
O958 Sm936 2.681 1_556 S
O958 Sm937 2.386 1_556 S
O958 C945 1.271 . S
O959 Sm936 2.464 1_556 S
O959 C945 1.251 . S
O960 Sm936 2.396 1_556 S
O960 C946 1.252 1_556 S
O961 Sm937 2.408 . S
O961 C946 1.272 . S
O962 Sm937 2.543 1_655 S
O962 C947 1.261 . S
O963 Sm937 2.450 1_655 S
O963 C947 1.242 . S
O964 Sm936 2.386 . S
O964 Sm937 2.681 . S
O964 C954 1.271 . S
O965 Sm937 2.464 . S
O965 C954 1.251 . S
O966 Sm937 2.396 . S
O966 C955 1.252 . S
O967 Sm936 2.408 . S
O967 C955 1.272 . S
H968 C940 0.930 . S
H969 C941 0.929 . S
H970 C943 0.930 . S
H971 C944 0.929 . S
H972 C949 0.930 . S
H973 C950 0.929 . S
H974 C952 0.930 . S
H975 C953 0.929 . S
C976 C977 1.349 . S
C976 C978 1.327 . S
C976 H1001 0.950 . S
C977 C976 1.349 . S
C977 C993 1.349 1_455 S
C978 C976 1.327 . S
C978 C997 1.429 . S
C978 H1002 0.950 . S
C979 C996 1.574 . S
C979 C998 1.368 . S
C979 H1003 0.949 1_455 S
H980 C984 0.949 . S
C981 C982 1.349 . S
C981 C983 1.327 . S
C981 H1004 0.950 1_556 S
C982 C981 1.349 . S
C982 C994 1.349 . S
C983 C981 1.327 . S
C983 C999 1.429 . S
C983 H1005 0.950 . S
C984 H980 0.949 . S
C984 C992 1.574 . S
C984 C1000 1.368 . S
H985 C993 0.950 . S
H986 C991 0.930 1_655 S
H987 C992 0.949 . S
H988 C994 0.950 . S
H989 C995 0.950 . S
H990 C996 0.949 1_655 S
C991 H986 0.930 1_455 S
C991 C993 1.320 1_455 S
C991 C997 1.455 . S
C992 C984 1.574 . S
C992 H987 0.949 . S
C992 C998 1.368 . S
C993 C977 1.349 1_655 S
C993 H985 0.950 . S
C993 C991 1.320 1_655 S
C994 C982 1.349 . S
C994 H988 0.950 . S
C994 C995 1.327 . S
C995 H989 0.950 . S
C995 C994 1.327 . S
C995 C999 1.429 . S
C996 C979 1.574 . S
C996 H990 0.949 1_455 S
C996 C1000 1.368 . S
C997 C978 1.429 . S
C997 C991 1.455 . S
C997 C998 1.523 . S
C998 C979 1.368 . S
C998 C992 1.368 . S
C998 C997 1.523 . S
C999 C983 1.429 . S
C999 C995 1.429 . S
C999 C1000 1.523 . S
C1000 C984 1.368 . S
C1000 C996 1.368 . S
C1000 C999 1.523 . S
H1001 C976 0.950 . S
H1002 C978 0.950 . S
H1003 C979 0.949 1_655 S
H1004 C981 0.950 1_554 S
H1005 C983 0.950 . S
C1006 C1007 1.349 . S
C1006 C1008 1.327 . S
C1006 H1031 0.950 . S
C1007 C1006 1.349 . S
C1007 C1023 1.349 . S
C1008 C1006 1.327 . S
C1008 C1027 1.429 . S
C1008 H1032 0.950 . S
C1009 C1026 1.574 . S
C1009 C1028 1.368 . S
C1009 H1033 0.949 . S
H1010 C1014 0.949 . S
C1011 C1012 1.349 . S
C1011 C1013 1.327 . S
C1011 H1034 0.950 . S
C1012 C1011 1.349 . S
C1012 C1024 1.349 . S
C1013 C1011 1.327 . S
C1013 C1029 1.429 . S
C1013 H1035 0.950 . S
C1014 H1010 0.949 . S
C1014 C1022 1.574 . S
C1014 C1030 1.368 . S
H1015 C1023 0.950 . S
H1016 C1021 0.950 . S
H1017 C1022 0.949 . S
H1018 C1024 0.950 . S
H1019 C1025 0.950 . S
H1020 C1026 0.949 . S
C1021 H1016 0.950 . S
C1021 C1023 1.327 . S
C1021 C1027 1.429 . S
C1022 C1014 1.574 . S
C1022 H1017 0.949 . S
C1022 C1028 1.368 . S
C1023 C1007 1.349 . S
C1023 H1015 0.950 . S
C1023 C1021 1.327 . S
C1024 C1012 1.349 . S
C1024 H1018 0.950 . S
C1024 C1025 1.327 . S
C1025 H1019 0.950 . S
C1025 C1024 1.327 . S
C1025 C1029 1.429 . S
C1026 C1009 1.574 . S
C1026 H1020 0.949 . S
C1026 C1030 1.368 . S
C1027 C1008 1.429 . S
C1027 C1021 1.429 . S
C1027 C1028 1.523 . S
C1028 C1009 1.368 . S
C1028 C1022 1.368 . S
C1028 C1027 1.523 . S
C1029 C1013 1.429 . S
C1029 C1025 1.429 . S
C1029 C1030 1.523 . S
C1030 C1014 1.368 . S
C1030 C1026 1.368 . S
C1030 C1029 1.523 . S
H1031 C1006 0.950 . S
H1032 C1008 0.950 . S
H1033 C1009 0.949 . S
H1034 C1011 0.950 . S
H1035 C1013 0.950 . S
C1036 C1037 1.349 . S
C1036 C1038 1.327 . S
C1036 H1061 0.950 . S
C1037 C1036 1.349 . S
C1037 C1053 1.349 . S
C1038 C1036 1.327 . S
C1038 C1057 1.429 . S
C1038 H1062 0.950 . S
C1039 C1056 1.574 . S
C1039 C1058 1.368 . S
C1039 H1063 0.949 . S
H1040 C1044 0.949 . S
C1041 C1042 1.349 . S
C1041 C1043 1.327 . S
C1041 H1064 0.950 . S
C1042 C1041 1.349 . S
C1042 C1054 1.349 . S
C1043 C1041 1.327 . S
C1043 C1059 1.429 . S
C1043 H1065 0.950 . S
C1044 H1040 0.949 . S
C1044 C1052 1.574 . S
C1044 C1060 1.368 . S
H1045 C1053 0.950 . S
H1046 C1051 0.950 . S
H1047 C1052 0.949 . S
H1048 C1054 0.950 . S
H1049 C1055 0.950 . S
H1050 C1056 0.949 . S
C1051 H1046 0.950 . S
C1051 C1053 1.327 . S
C1051 C1057 1.429 . S
C1052 C1044 1.574 . S
C1052 H1047 0.949 . S
C1052 C1058 1.368 . S
C1053 C1037 1.349 . S
C1053 H1045 0.950 . S
C1053 C1051 1.327 . S
C1054 C1042 1.349 . S
C1054 H1048 0.950 . S
C1054 C1055 1.327 . S
C1055 H1049 0.950 . S
C1055 C1054 1.327 . S
C1055 C1059 1.429 . S
C1056 C1039 1.574 . S
C1056 H1050 0.949 . S
C1056 C1060 1.368 . S
C1057 C1038 1.429 . S
C1057 C1051 1.429 . S
C1057 C1058 1.523 . S
C1058 C1039 1.368 . S
C1058 C1052 1.368 . S
C1058 C1057 1.523 . S
C1059 C1043 1.429 . S
C1059 C1055 1.429 . S
C1059 C1060 1.523 . S
C1060 C1044 1.368 . S
C1060 C1056 1.368 . S
C1060 C1059 1.523 . S
H1061 C1036 0.950 . S
H1062 C1038 0.950 . S
H1063 C1039 0.949 . S
H1064 C1041 0.950 . S
H1065 C1043 0.950 . S
C1066 C1067 1.349 . S
C1066 C1068 1.327 . S
C1066 H1091 0.950 . S
C1067 C1066 1.349 . S
C1067 C1083 1.349 . S
C1068 C1066 1.327 . S
C1068 C1087 1.429 . S
C1068 H1092 0.950 . S
C1069 C1086 1.574 . S
C1069 C1088 1.368 . S
C1069 H1093 0.949 . S
H1070 C1074 0.949 . S
C1071 C1072 1.349 . S
C1071 C1073 1.327 . S
C1071 H1094 0.950 . S
C1072 C1071 1.349 . S
C1072 C1084 1.349 . S
C1073 C1071 1.327 . S
C1073 C1089 1.429 . S
C1073 H1095 0.950 . S
C1074 H1070 0.949 . S
C1074 C1082 1.574 . S
C1074 C1090 1.368 . S
H1075 C1083 0.950 . S
H1076 C1081 0.950 . S
H1077 C1082 0.949 . S
H1078 C1084 0.950 . S
H1079 C1085 0.950 . S
H1080 C1086 0.949 . S
C1081 H1076 0.950 . S
C1081 C1083 1.327 . S
C1081 C1087 1.429 . S
C1082 C1074 1.574 . S
C1082 H1077 0.949 . S
C1082 C1088 1.368 . S
C1083 C1067 1.349 . S
C1083 H1075 0.950 . S
C1083 C1081 1.327 . S
C1084 C1072 1.349 . S
C1084 H1078 0.950 . S
C1084 C1085 1.327 . S
C1085 H1079 0.950 . S
C1085 C1084 1.327 . S
C1085 C1089 1.429 . S
C1086 C1069 1.574 . S
C1086 H1080 0.949 . S
C1086 C1090 1.368 . S
C1087 C1068 1.429 . S
C1087 C1081 1.429 . S
C1087 C1088 1.523 . S
C1088 C1069 1.368 . S
C1088 C1082 1.368 . S
C1088 C1087 1.523 . S
C1089 C1073 1.429 . S
C1089 C1085 1.429 . S
C1089 C1090 1.523 . S
C1090 C1074 1.368 . S
C1090 C1086 1.368 . S
C1090 C1089 1.523 . S
H1091 C1066 0.950 . S
H1092 C1068 0.950 . S
H1093 C1069 0.949 . S
H1094 C1071 0.950 . S
H1095 C1073 0.950 . S
C1096 C1097 1.349 . S
C1096 C1098 1.327 . S
C1096 H1121 0.950 1_455 S
C1097 C1096 1.349 . S
C1097 C1113 1.349 . S
C1098 C1096 1.327 . S
C1098 C1117 1.429 . S
C1098 H1122 0.950 . S
C1099 C1116 1.574 . S
C1099 C1118 1.368 . S
C1099 H1123 0.949 . S
H1100 C1104 0.949 . S
C1101 C1102 1.349 . S
C1101 C1103 1.327 . S
C1101 H1124 0.950 . S
C1102 C1101 1.349 . S
C1102 C1114 1.349 . S
C1103 C1101 1.327 . S
C1103 C1119 1.429 . S
C1103 H1125 0.950 . S
C1104 H1100 0.949 . S
C1104 C1112 1.574 . S
C1104 C1120 1.368 . S
H1105 C1113 0.950 . S
H1106 C1111 0.950 . S
H1107 C1112 0.949 . S
H1108 C1114 0.950 . S
H1109 C1115 0.950 . S
H1110 C1116 0.949 . S
C1111 H1106 0.950 . S
C1111 C1113 1.327 . S
C1111 C1117 1.429 . S
C1112 C1104 1.574 . S
C1112 H1107 0.949 . S
C1112 C1118 1.368 . S
C1113 C1097 1.349 . S
C1113 H1105 0.950 . S
C1113 C1111 1.327 . S
C1114 C1102 1.349 . S
C1114 H1108 0.950 . S
C1114 C1115 1.327 . S
C1115 H1109 0.950 . S
C1115 C1114 1.327 . S
C1115 C1119 1.429 . S
C1116 C1099 1.574 . S
C1116 H1110 0.949 . S
C1116 C1120 1.368 . S
C1117 C1098 1.429 . S
C1117 C1111 1.429 . S
C1117 C1118 1.523 . S
C1118 C1099 1.368 . S
C1118 C1112 1.368 . S
C1118 C1117 1.523 . S
C1119 C1103 1.429 . S
C1119 C1115 1.429 . S
C1119 C1120 1.523 . S
C1120 C1104 1.368 . S
C1120 C1116 1.368 . S
C1120 C1119 1.523 . S
H1121 C1096 0.950 1_655 S
H1122 C1098 0.950 . S
H1123 C1099 0.949 . S
H1124 C1101 0.950 . S
H1125 C1103 0.950 . S
C1126 C1127 1.349 . S
C1126 C1128 1.327 . S
C1126 H1151 0.950 . S
C1127 C1126 1.349 . S
C1127 C1143 1.349 . S
C1128 C1126 1.327 . S
C1128 C1147 1.429 . S
C1128 H1152 0.950 . S
C1129 C1146 1.574 . S
C1129 C1148 1.368 . S
C1129 H1153 0.949 . S
H1130 C1134 0.949 . S
C1131 C1132 1.349 . S
C1131 C1133 1.327 . S
C1131 H1154 0.950 . S
C1132 C1131 1.349 . S
C1132 C1144 1.349 . S
C1133 C1131 1.327 . S
C1133 C1149 1.429 . S
C1133 H1155 0.950 . S
C1134 H1130 0.949 . S
C1134 C1142 1.574 . S
C1134 C1150 1.368 . S
H1135 C1143 0.950 . S
H1136 C1141 0.950 . S
H1137 C1142 0.949 . S
H1138 C1144 0.950 . S
H1139 C1145 0.950 . S
H1140 C1146 0.949 . S
C1141 H1136 0.950 . S
C1141 C1143 1.327 . S
C1141 C1147 1.429 . S
C1142 C1134 1.574 . S
C1142 H1137 0.949 . S
C1142 C1148 1.368 . S
C1143 C1127 1.349 . S
C1143 H1135 0.950 . S
C1143 C1141 1.327 . S
C1144 C1132 1.349 . S
C1144 H1138 0.950 . S
C1144 C1145 1.327 . S
C1145 H1139 0.950 . S
C1145 C1144 1.327 . S
C1145 C1149 1.429 . S
C1146 C1129 1.574 . S
C1146 H1140 0.949 . S
C1146 C1150 1.368 . S
C1147 C1128 1.429 . S
C1147 C1141 1.429 . S
C1147 C1148 1.523 . S
C1148 C1129 1.368 . S
C1148 C1142 1.368 . S
C1148 C1147 1.523 . S
C1149 C1133 1.429 . S
C1149 C1145 1.429 . S
C1149 C1150 1.523 . S
C1150 C1134 1.368 . S
C1150 C1146 1.368 . S
C1150 C1149 1.523 . S
H1151 C1126 0.950 . S
H1152 C1128 0.950 . S
H1153 C1129 0.949 . S
H1154 C1131 0.950 . S
H1155 C1133 0.950 . S
C1156 C1157 1.349 . S
C1156 C1158 1.327 . S
C1156 H1181 0.950 . S
C1157 C1156 1.349 . S
C1157 C1173 1.349 . S
C1158 C1156 1.327 . S
C1158 C1177 1.429 . S
C1158 H1182 0.950 . S
C1159 C1176 1.574 . S
C1159 C1178 1.368 . S
C1159 H1183 0.949 . S
H1160 C1164 0.949 . S
C1161 C1162 1.349 . S
C1161 C1163 1.327 . S
C1161 H1184 0.950 . S
C1162 C1161 1.349 . S
C1162 C1174 1.349 . S
C1163 C1161 1.327 . S
C1163 C1179 1.429 . S
C1163 H1185 0.950 . S
C1164 H1160 0.949 . S
C1164 C1172 1.574 . S
C1164 C1180 1.368 . S
H1165 C1173 0.950 . S
H1166 C1171 0.950 . S
H1167 C1172 0.949 . S
H1168 C1174 0.950 . S
H1169 C1175 0.950 . S
H1170 C1176 0.949 . S
C1171 H1166 0.950 . S
C1171 C1173 1.327 . S
C1171 C1177 1.429 . S
C1172 C1164 1.574 . S
C1172 H1167 0.949 . S
C1172 C1178 1.368 . S
C1173 C1157 1.349 . S
C1173 H1165 0.950 . S
C1173 C1171 1.327 . S
C1174 C1162 1.349 . S
C1174 H1168 0.950 . S
C1174 C1175 1.327 . S
C1175 H1169 0.950 . S
C1175 C1174 1.327 . S
C1175 C1179 1.429 . S
C1176 C1159 1.574 . S
C1176 H1170 0.949 . S
C1176 C1180 1.368 . S
C1177 C1158 1.429 . S
C1177 C1171 1.429 . S
C1177 C1178 1.523 . S
C1178 C1159 1.368 . S
C1178 C1172 1.368 . S
C1178 C1177 1.523 . S
C1179 C1163 1.429 . S
C1179 C1175 1.429 . S
C1179 C1180 1.523 . S
C1180 C1164 1.368 . S
C1180 C1176 1.368 . S
C1180 C1179 1.523 . S
H1181 C1156 0.950 . S
H1182 C1158 0.950 . S
H1183 C1159 0.949 . S
H1184 C1161 0.950 . S
H1185 C1163 0.950 . S
C1186 C1187 1.349 . S
C1186 C1188 1.327 . S
C1186 H1211 0.950 . S
C1187 C1186 1.349 . S
C1187 C1203 1.349 . S
C1188 C1186 1.327 . S
C1188 C1207 1.429 . S
C1188 H1212 0.950 . S
C1189 C1206 1.574 . S
C1189 C1208 1.368 . S
C1189 H1213 0.949 . S
H1190 C1194 0.949 . S
C1191 C1192 1.349 . S
C1191 C1193 1.327 . S
C1191 H1214 0.950 . S
C1192 C1191 1.349 . S
C1192 C1204 1.349 . S
C1193 C1191 1.327 . S
C1193 C1209 1.429 . S
C1193 H1215 0.950 . S
C1194 H1190 0.949 . S
C1194 C1202 1.574 . S
C1194 C1210 1.368 . S
H1195 C1203 0.950 . S
H1196 C1201 0.950 . S
H1197 C1202 0.949 . S
H1198 C1204 0.950 . S
H1199 C1205 0.950 . S
H1200 C1206 0.949 . S
C1201 H1196 0.950 . S
C1201 C1203 1.327 . S
C1201 C1207 1.429 . S
C1202 C1194 1.574 . S
C1202 H1197 0.949 . S
C1202 C1208 1.368 . S
C1203 C1187 1.349 . S
C1203 H1195 0.950 . S
C1203 C1201 1.327 . S
C1204 C1192 1.349 . S
C1204 H1198 0.950 . S
C1204 C1205 1.327 . S
C1205 H1199 0.950 . S
C1205 C1204 1.327 . S
C1205 C1209 1.429 . S
C1206 C1189 1.574 . S
C1206 H1200 0.949 . S
C1206 C1210 1.368 . S
C1207 C1188 1.429 . S
C1207 C1201 1.429 . S
C1207 C1208 1.523 . S
C1208 C1189 1.368 . S
C1208 C1202 1.368 . S
C1208 C1207 1.523 . S
C1209 C1193 1.429 . S
C1209 C1205 1.429 . S
C1209 C1210 1.523 . S
C1210 C1194 1.368 . S
C1210 C1206 1.368 . S
C1210 C1209 1.523 . S
H1211 C1186 0.950 . S
H1212 C1188 0.950 . S
H1213 C1189 0.949 . S
H1214 C1191 0.950 . S
H1215 C1193 0.950 . S
C1216 C1217 1.349 . S
C1216 C1218 1.327 . S
C1216 H1241 0.950 . S
C1217 C1216 1.349 . S
C1217 C1233 1.349 . S
C1218 C1216 1.327 . S
C1218 C1237 1.429 . S
C1218 H1242 0.950 . S
C1219 C1236 1.574 1_655 S
C1219 C1238 1.368 . S
C1219 H1243 0.949 . S
H1220 C1224 0.949 . S
C1221 C1222 1.349 . S
C1221 C1223 1.327 . S
C1221 H1244 0.950 . S
C1222 C1221 1.349 . S
C1222 C1234 1.349 . S
C1223 C1221 1.327 . S
C1223 C1239 1.429 . S
C1223 H1245 0.950 . S
C1224 H1220 0.949 . S
C1224 C1232 1.574 . S
C1224 C1240 1.368 . S
H1225 C1233 0.950 . S
H1226 C1231 0.950 . S
H1227 C1232 0.949 . S
H1228 C1234 0.963 . S
H1229 C1235 0.950 . S
H1230 C1236 0.949 . S
C1231 H1226 0.950 . S
C1231 C1233 1.327 . S
C1231 C1237 1.429 . S
C1232 C1224 1.574 . S
C1232 H1227 0.949 . S
C1232 C1238 1.368 . S
C1233 C1217 1.349 . S
C1233 H1225 0.950 . S
C1233 C1231 1.327 . S
C1234 C1222 1.349 . S
C1234 H1228 0.963 . S
C1234 C1235 1.327 1_455 S
C1235 H1229 0.950 . S
C1235 C1234 1.327 1_655 S
C1235 C1239 1.429 1_655 S
C1236 C1219 1.574 1_455 S
C1236 H1230 0.949 . S
C1236 C1240 1.368 1_455 S
C1237 C1218 1.429 . S
C1237 C1231 1.429 . S
C1237 C1238 1.523 . S
C1238 C1219 1.368 . S
C1238 C1232 1.368 . S
C1238 C1237 1.523 . S
C1239 C1223 1.429 . S
C1239 C1235 1.429 1_455 S
C1239 C1240 1.523 1_455 S
C1240 C1224 1.368 . S
C1240 C1236 1.368 1_655 S
C1240 C1239 1.523 1_655 S
H1241 C1216 0.950 . S
H1242 C1218 0.950 . S
H1243 C1219 0.949 . S
H1244 C1221 0.950 . S
H1245 C1223 0.950 . S
C1246 C1247 1.349 . S
C1246 C1248 1.327 . S
C1246 H1271 0.950 . S
C1247 C1246 1.349 . S
C1247 C1263 1.349 . S
C1248 C1246 1.327 . S
C1248 C1267 1.429 . S
C1248 H1272 0.950 . S
C1249 C1266 1.574 . S
C1249 C1268 1.368 . S
C1249 H1273 0.949 . S
H1250 C1254 0.949 . S
C1251 C1252 1.349 . S
C1251 C1253 1.327 . S
C1251 H1274 0.950 . S
C1252 C1251 1.349 . S
C1252 C1264 1.349 . S
C1253 C1251 1.327 . S
C1253 C1269 1.429 . S
C1253 H1275 0.950 . S
C1254 H1250 0.949 . S
C1254 C1262 1.574 . S
C1254 C1270 1.368 . S
H1255 C1263 0.950 . S
H1256 C1261 0.950 . S
H1257 C1262 0.949 . S
H1258 C1264 0.950 . S
H1259 C1265 0.950 . S
H1260 C1266 0.949 . S
C1261 H1256 0.950 . S
C1261 C1263 1.327 . S
C1261 C1267 1.429 . S
C1262 C1254 1.574 . S
C1262 H1257 0.949 . S
C1262 C1268 1.368 . S
C1263 C1247 1.349 . S
C1263 H1255 0.950 . S
C1263 C1261 1.327 . S
C1264 C1252 1.349 . S
C1264 H1258 0.950 . S
C1264 C1265 1.327 . S
C1265 H1259 0.950 . S
C1265 C1264 1.327 . S
C1265 C1269 1.429 . S
C1266 C1249 1.574 . S
C1266 H1260 0.949 . S
C1266 C1270 1.368 . S
C1267 C1248 1.429 . S
C1267 C1261 1.429 . S
C1267 C1268 1.523 . S
C1268 C1249 1.368 . S
C1268 C1262 1.368 . S
C1268 C1267 1.523 . S
C1269 C1253 1.429 . S
C1269 C1265 1.429 . S
C1269 C1270 1.523 . S
C1270 C1254 1.368 . S
C1270 C1266 1.368 . S
C1270 C1269 1.523 . S
H1271 C1246 0.950 . S
H1272 C1248 0.950 . S
H1273 C1249 0.949 . S
H1274 C1251 0.950 . S
H1275 C1253 0.950 . S
C1276 C1277 1.349 . S
C1276 C1278 1.327 . S
C1276 H1301 0.950 . S
C1277 C1276 1.349 . S
C1277 C1293 1.349 . S
C1278 C1276 1.327 . S
C1278 C1297 1.429 . S
C1278 H1302 0.950 . S
C1279 C1296 1.574 . S
C1279 C1298 1.368 . S
C1279 H1303 0.949 . S
H1280 C1284 0.949 . S
C1281 C1282 1.349 . S
C1281 C1283 1.327 . S
C1281 H1304 0.950 . S
C1282 C1281 1.349 . S
C1282 C1294 1.349 . S
C1283 C1281 1.327 . S
C1283 C1299 1.429 . S
C1283 H1305 0.950 . S
C1284 H1280 0.949 . S
C1284 C1292 1.574 . S
C1284 C1300 1.368 . S
H1285 C1293 0.950 . S
H1286 C1291 0.950 . S
H1287 C1292 0.949 . S
H1288 C1294 0.950 . S
H1289 C1295 0.950 . S
H1290 C1296 0.949 . S
C1291 H1286 0.950 . S
C1291 C1293 1.327 . S
C1291 C1297 1.429 . S
C1292 C1284 1.574 . S
C1292 H1287 0.949 . S
C1292 C1298 1.368 . S
C1293 C1277 1.349 . S
C1293 H1285 0.950 . S
C1293 C1291 1.327 . S
C1294 C1282 1.349 . S
C1294 H1288 0.950 . S
C1294 C1295 1.327 . S
C1295 H1289 0.950 . S
C1295 C1294 1.327 . S
C1295 C1299 1.429 . S
C1296 C1279 1.574 . S
C1296 H1290 0.949 . S
C1296 C1300 1.368 . S
C1297 C1278 1.429 . S
C1297 C1291 1.429 . S
C1297 C1298 1.523 . S
C1298 C1279 1.368 . S
C1298 C1292 1.368 . S
C1298 C1297 1.523 . S
C1299 C1283 1.429 . S
C1299 C1295 1.429 . S
C1299 C1300 1.523 . S
C1300 C1284 1.368 . S
C1300 C1296 1.368 . S
C1300 C1299 1.523 . S
H1301 C1276 0.950 . S
H1302 C1278 0.950 . S
H1303 C1279 0.949 . S
H1304 C1281 0.950 . S
H1305 C1283 0.950 . S
C1306 C1307 1.349 . S
C1306 C1308 1.327 . S
C1306 H1331 0.950 . S
C1307 C1306 1.349 . S
C1307 C1323 1.349 . S
C1308 C1306 1.327 . S
C1308 C1327 1.429 . S
C1308 H1332 0.950 . S
C1309 C1326 1.574 . S
C1309 C1328 1.368 . S
C1309 H1333 0.949 . S
H1310 C1314 0.949 . S
C1311 C1312 1.349 . S
C1311 C1313 1.327 . S
C1311 H1334 0.950 . S
C1312 C1311 1.349 . S
C1312 C1324 1.349 . S
C1313 C1311 1.327 . S
C1313 C1329 1.429 . S
C1313 H1335 0.950 . S
C1314 H1310 0.949 . S
C1314 C1322 1.574 . S
C1314 C1330 1.368 . S
H1315 C1323 0.950 . S
H1316 C1321 0.950 . S
H1317 C1322 0.949 . S
H1318 C1324 0.950 . S
H1319 C1325 0.950 . S
H1320 C1326 0.949 . S
C1321 H1316 0.950 . S
C1321 C1323 1.327 . S
C1321 C1327 1.429 . S
C1322 C1314 1.574 . S
C1322 H1317 0.949 . S
C1322 C1328 1.368 . S
C1323 C1307 1.349 . S
C1323 H1315 0.950 . S
C1323 C1321 1.327 . S
C1324 C1312 1.349 . S
C1324 H1318 0.950 . S
C1324 C1325 1.327 . S
C1325 H1319 0.950 . S
C1325 C1324 1.327 . S
C1325 C1329 1.429 . S
C1326 C1309 1.574 . S
C1326 H1320 0.949 . S
C1326 C1330 1.368 . S
C1327 C1308 1.429 . S
C1327 C1321 1.429 . S
C1327 C1328 1.523 . S
C1328 C1309 1.368 . S
C1328 C1322 1.368 . S
C1328 C1327 1.523 . S
C1329 C1313 1.429 . S
C1329 C1325 1.429 . S
C1329 C1330 1.523 . S
C1330 C1314 1.368 . S
C1330 C1326 1.368 . S
C1330 C1329 1.523 . S
H1331 C1306 0.950 . S
H1332 C1308 0.950 . S
H1333 C1309 0.949 . S
H1334 C1311 0.950 . S
H1335 C1313 0.950 . S
C1336 C1337 1.349 . S
C1336 C1338 1.327 . S
C1336 H1361 0.950 . S
C1337 C1336 1.349 . S
C1337 C1353 1.349 . S
C1338 C1336 1.327 . S
C1338 C1357 1.429 . S
C1338 H1362 0.950 . S
C1339 C1356 1.566 1_655 S
C1339 C1358 1.368 . S
C1339 H1363 0.949 . S
H1340 C1344 0.949 . S
C1341 C1342 1.349 . S
C1341 C1343 1.327 . S
C1341 H1364 0.950 . S
C1342 C1341 1.349 . S
C1342 C1354 1.349 . S
C1343 C1341 1.327 . S
C1343 C1359 1.429 . S
C1343 H1365 0.950 . S
C1344 H1340 0.949 . S
C1344 C1352 1.574 . S
C1344 C1360 1.368 . S
H1345 C1353 0.950 . S
H1346 C1351 0.950 . S
H1347 C1352 0.949 . S
H1348 C1354 0.950 . S
H1349 C1355 0.950 1_655 S
H1350 C1356 0.964 . S
C1351 H1346 0.950 . S
C1351 C1353 1.327 . S
C1351 C1357 1.429 . S
C1352 C1344 1.574 . S
C1352 H1347 0.949 . S
C1352 C1358 1.368 . S
C1353 C1337 1.349 . S
C1353 H1345 0.950 . S
C1353 C1351 1.327 . S
C1354 C1342 1.349 . S
C1354 H1348 0.950 . S
C1354 C1355 1.327 . S
C1355 H1349 0.950 1_455 S
C1355 C1354 1.327 . S
C1355 C1359 1.429 . S
C1356 C1339 1.566 1_455 S
C1356 H1350 0.964 . S
C1356 C1360 1.361 1_455 S
C1357 C1338 1.429 . S
C1357 C1351 1.429 . S
C1357 C1358 1.523 . S
C1358 C1339 1.368 . S
C1358 C1352 1.368 . S
C1358 C1357 1.523 . S
C1359 C1343 1.429 . S
C1359 C1355 1.429 . S
C1359 C1360 1.523 1_455 S
C1360 C1344 1.368 . S
C1360 C1356 1.361 1_655 S
C1360 C1359 1.523 1_655 S
H1361 C1336 0.950 . S
H1362 C1338 0.950 . S
H1363 C1339 0.949 . S
H1364 C1341 0.950 . S
H1365 C1343 0.950 . S
C1366 C1367 1.349 . S
C1366 C1368 1.327 . S
C1366 H1391 0.950 . S
C1367 C1366 1.349 . S
C1367 C1383 1.349 . S
C1368 C1366 1.327 . S
C1368 C1387 1.429 . S
C1368 H1392 0.950 . S
C1369 C1386 1.574 . S
C1369 C1388 1.368 . S
C1369 H1393 0.949 . S
H1370 C1374 0.949 . S
C1371 C1372 1.349 . S
C1371 C1373 1.327 . S
C1371 H1394 0.950 . S
C1372 C1371 1.349 . S
C1372 C1384 1.349 . S
C1373 C1371 1.327 . S
C1373 C1389 1.429 . S
C1373 H1395 0.950 . S
C1374 H1370 0.949 . S
C1374 C1382 1.574 . S
C1374 C1390 1.368 . S
H1375 C1383 0.950 . S
H1376 C1381 0.950 . S
H1377 C1382 0.949 . S
H1378 C1384 0.950 . S
H1379 C1385 0.950 . S
H1380 C1386 0.949 . S
C1381 H1376 0.950 . S
C1381 C1383 1.327 . S
C1381 C1387 1.429 . S
C1382 C1374 1.574 . S
C1382 H1377 0.949 . S
C1382 C1388 1.368 . S
C1383 C1367 1.349 . S
C1383 H1375 0.950 . S
C1383 C1381 1.327 . S
C1384 C1372 1.349 . S
C1384 H1378 0.950 . S
C1384 C1385 1.327 . S
C1385 H1379 0.950 . S
C1385 C1384 1.327 . S
C1385 C1389 1.429 . S
C1386 C1369 1.574 . S
C1386 H1380 0.949 . S
C1386 C1390 1.368 . S
C1387 C1368 1.429 . S
C1387 C1381 1.429 . S
C1387 C1388 1.523 . S
C1388 C1369 1.368 . S
C1388 C1382 1.368 . S
C1388 C1387 1.523 . S
C1389 C1373 1.429 . S
C1389 C1385 1.429 . S
C1389 C1390 1.523 . S
C1390 C1374 1.368 . S
C1390 C1386 1.368 . S
C1390 C1389 1.523 . S
H1391 C1366 0.950 . S
H1392 C1368 0.950 . S
H1393 C1369 0.949 . S
H1394 C1371 0.950 . S
H1395 C1373 0.950 . S
C1396 C1397 1.349 . S
C1396 C1398 1.327 . S
C1396 H1421 0.950 . S
C1397 C1396 1.349 . S
C1397 C1413 1.349 . S
C1398 C1396 1.327 . S
C1398 C1417 1.429 . S
C1398 H1422 0.950 . S
C1399 C1416 1.574 . S
C1399 C1418 1.368 . S
C1399 H1423 0.949 . S
H1400 C1404 0.949 . S
C1401 C1402 1.349 . S
C1401 C1403 1.327 . S
C1401 H1424 0.950 . S
C1402 C1401 1.349 . S
C1402 C1414 1.349 . S
C1403 C1401 1.327 . S
C1403 C1419 1.429 . S
C1403 H1425 0.950 . S
C1404 H1400 0.949 . S
C1404 C1412 1.574 . S
C1404 C1420 1.368 . S
H1405 C1413 0.950 . S
H1406 C1411 0.950 . S
H1407 C1412 0.949 . S
H1408 C1414 0.950 . S
H1409 C1415 0.950 . S
H1410 C1416 0.949 . S
C1411 H1406 0.950 . S
C1411 C1413 1.327 . S
C1411 C1417 1.429 . S
C1412 C1404 1.574 . S
C1412 H1407 0.949 . S
C1412 C1418 1.368 . S
C1413 C1397 1.349 . S
C1413 H1405 0.950 . S
C1413 C1411 1.327 . S
C1414 C1402 1.349 . S
C1414 H1408 0.950 . S
C1414 C1415 1.327 . S
C1415 H1409 0.950 . S
C1415 C1414 1.327 . S
C1415 C1419 1.429 . S
C1416 C1399 1.574 . S
C1416 H1410 0.949 . S
C1416 C1420 1.368 . S
C1417 C1398 1.429 . S
C1417 C1411 1.429 . S
C1417 C1418 1.523 . S
C1418 C1399 1.368 . S
C1418 C1412 1.368 . S
C1418 C1417 1.523 . S
C1419 C1403 1.429 . S
C1419 C1415 1.429 . S
C1419 C1420 1.523 . S
C1420 C1404 1.368 . S
C1420 C1416 1.368 . S
C1420 C1419 1.523 . S
H1421 C1396 0.950 . S
H1422 C1398 0.950 . S
H1423 C1399 0.949 . S
H1424 C1401 0.950 . S
H1425 C1403 0.950 . S
C1426 C1427 1.349 . S
C1426 C1428 1.327 . S
C1426 H1451 0.950 . S
C1427 C1426 1.349 . S
C1427 C1443 1.349 . S
C1428 C1426 1.327 . S
C1428 C1447 1.429 . S
C1428 H1452 0.950 . S
C1429 C1446 1.574 . S
C1429 C1448 1.368 . S
C1429 H1453 0.949 . S
H1430 C1434 0.949 . S
C1431 C1432 1.349 . S
C1431 C1433 1.327 . S
C1431 H1454 0.950 . S
C1432 C1431 1.349 . S
C1432 C1444 1.349 . S
C1433 C1431 1.327 . S
C1433 C1449 1.429 . S
C1433 H1455 0.950 . S
C1434 H1430 0.949 . S
C1434 C1442 1.574 . S
C1434 C1450 1.368 . S
H1435 C1443 0.950 . S
H1436 C1441 0.950 . S
H1437 C1442 0.949 . S
H1438 C1444 0.950 . S
H1439 C1445 0.950 . S
H1440 C1446 0.949 . S
C1441 H1436 0.950 . S
C1441 C1443 1.327 . S
C1441 C1447 1.429 . S
C1442 C1434 1.574 . S
C1442 H1437 0.949 . S
C1442 C1448 1.368 . S
C1443 C1427 1.349 . S
C1443 H1435 0.950 . S
C1443 C1441 1.327 . S
C1444 C1432 1.349 . S
C1444 H1438 0.950 . S
C1444 C1445 1.327 . S
C1445 H1439 0.950 . S
C1445 C1444 1.327 . S
C1445 C1449 1.429 . S
C1446 C1429 1.574 . S
C1446 H1440 0.949 . S
C1446 C1450 1.368 . S
C1447 C1428 1.429 . S
C1447 C1441 1.429 . S
C1447 C1448 1.523 . S
C1448 C1429 1.368 . S
C1448 C1442 1.368 . S
C1448 C1447 1.523 . S
C1449 C1433 1.429 . S
C1449 C1445 1.429 . S
C1449 C1450 1.523 . S
C1450 C1434 1.368 . S
C1450 C1446 1.368 . S
C1450 C1449 1.523 . S
H1451 C1426 0.950 . S
H1452 C1428 0.950 . S
H1453 C1429 0.949 . S
H1454 C1431 0.950 . S
H1455 C1433 0.950 . S
C1456 C1457 1.349 1_556 S
C1456 C1458 1.322 1_556 S
C1456 H1481 0.950 . S
C1457 C1456 1.349 1_554 S
C1457 C1473 1.349 . S
C1458 C1456 1.322 1_554 S
C1458 C1477 1.456 . S
C1458 H1482 0.928 1_554 S
C1459 C1476 1.574 . S
C1459 C1478 1.368 . S
C1459 H1483 0.949 . S
H1460 C1464 0.949 . S
C1461 C1462 1.349 . S
C1461 C1463 1.327 . S
C1461 H1484 0.950 . S
C1462 C1461 1.349 . S
C1462 C1474 1.349 . S
C1463 C1461 1.327 . S
C1463 C1479 1.429 . S
C1463 H1485 0.950 . S
C1464 H1460 0.949 . S
C1464 C1472 1.574 . S
C1464 C1480 1.368 . S
H1465 C1473 0.950 . S
H1466 C1471 0.950 . S
H1467 C1472 0.949 1_556 S
H1468 C1474 0.950 . S
H1469 C1475 0.950 . S
H1470 C1476 0.949 . S
C1471 H1466 0.950 . S
C1471 C1473 1.327 . S
C1471 C1477 1.429 . S
C1472 C1464 1.574 . S
C1472 H1467 0.949 1_554 S
C1472 C1478 1.368 . S
C1473 C1457 1.349 . S
C1473 H1465 0.950 . S
C1473 C1471 1.327 . S
C1474 C1462 1.349 . S
C1474 H1468 0.950 . S
C1474 C1475 1.327 . S
C1475 H1469 0.950 . S
C1475 C1474 1.327 . S
C1475 C1479 1.429 . S
C1476 C1459 1.574 . S
C1476 H1470 0.949 . S
C1476 C1480 1.368 . S
C1477 C1458 1.456 . S
C1477 C1471 1.429 . S
C1477 C1478 1.523 . S
C1478 C1459 1.368 . S
C1478 C1472 1.368 . S
C1478 C1477 1.523 . S
C1479 C1463 1.429 . S
C1479 C1475 1.429 . S
C1479 C1480 1.523 . S
C1480 C1464 1.368 . S
C1480 C1476 1.368 . S
C1480 C1479 1.523 . S
H1481 C1456 0.950 . S
H1482 C1458 0.928 1_556 S
H1483 C1459 0.949 . S
H1484 C1461 0.950 . S
H1485 C1463 0.950 . S
C1486 C1487 1.336 1_556 S
C1486 C1488 1.327 . S
C1486 H1511 0.950 . S
C1487 C1486 1.336 1_554 S
C1487 C1503 1.369 . S
C1488 C1486 1.327 . S
C1488 C1507 1.429 1_556 S
C1488 H1512 0.950 . S
C1489 C1506 1.574 . S
C1489 C1508 1.368 . S
C1489 H1513 0.949 . S
H1490 C1494 0.949 . S
C1491 C1492 1.349 . S
C1491 C1493 1.327 . S
C1491 H1514 0.950 . S
C1492 C1491 1.349 . S
C1492 C1504 1.349 1_554 S
C1493 C1491 1.327 . S
C1493 C1509 1.429 . S
C1493 H1515 0.950 . S
C1494 H1490 0.949 . S
C1494 C1502 1.574 . S
C1494 C1510 1.368 1_556 S
H1495 C1503 0.950 . S
H1496 C1501 0.950 . S
H1497 C1502 0.949 . S
H1498 C1504 0.950 . S
H1499 C1505 0.950 . S
H1500 C1506 0.949 . S
C1501 H1496 0.950 . S
C1501 C1503 1.327 . S
C1501 C1507 1.429 . S
C1502 C1494 1.574 . S
C1502 H1497 0.949 . S
C1502 C1508 1.368 1_556 S
C1503 C1487 1.369 . S
C1503 H1495 0.950 . S
C1503 C1501 1.327 . S
C1504 C1492 1.349 1_556 S
C1504 H1498 0.950 . S
C1504 C1505 1.327 . S
C1505 H1499 0.950 . S
C1505 C1504 1.327 . S
C1505 C1509 1.429 1_556 S
C1506 C1489 1.574 . S
C1506 H1500 0.949 . S
C1506 C1510 1.368 . S
C1507 C1488 1.429 1_554 S
C1507 C1501 1.429 . S
C1507 C1508 1.523 . S
C1508 C1489 1.368 . S
C1508 C1502 1.368 1_554 S
C1508 C1507 1.523 . S
C1509 C1493 1.429 . S
C1509 C1505 1.429 1_554 S
C1509 C1510 1.523 . S
C1510 C1494 1.368 1_554 S
C1510 C1506 1.368 . S
C1510 C1509 1.523 . S
H1511 C1486 0.950 . S
H1512 C1488 0.950 . S
H1513 C1489 0.949 . S
H1514 C1491 0.950 . S
H1515 C1493 0.950 . S
C1516 C1517 1.349 . S
C1516 C1518 1.327 . S
C1516 H1541 0.950 . S
C1517 C1516 1.349 . S
C1517 C1533 1.349 . S
C1518 C1516 1.327 . S
C1518 C1537 1.429 . S
C1518 H1542 0.950 . S
C1519 C1536 1.574 . S
C1519 C1538 1.368 . S
C1519 H1543 0.949 . S
H1520 C1524 0.949 . S
C1521 C1522 1.349 . S
C1521 C1523 1.327 . S
C1521 H1544 0.950 . S
C1522 C1521 1.349 . S
C1522 C1534 1.349 . S
C1523 C1521 1.327 . S
C1523 C1539 1.429 . S
C1523 H1545 0.950 . S
C1524 H1520 0.949 . S
C1524 C1532 1.574 . S
C1524 C1540 1.368 . S
H1525 C1533 0.950 . S
H1526 C1531 0.950 . S
H1527 C1532 0.949 . S
H1528 C1534 0.950 . S
H1529 C1535 0.950 . S
H1530 C1536 0.949 . S
C1531 H1526 0.950 . S
C1531 C1533 1.327 . S
C1531 C1537 1.429 . S
C1532 C1524 1.574 . S
C1532 H1527 0.949 . S
C1532 C1538 1.368 . S
C1533 C1517 1.349 . S
C1533 H1525 0.950 . S
C1533 C1531 1.327 . S
C1534 C1522 1.349 . S
C1534 H1528 0.950 . S
C1534 C1535 1.327 . S
C1535 H1529 0.950 . S
C1535 C1534 1.327 . S
C1535 C1539 1.429 . S
C1536 C1519 1.574 . S
C1536 H1530 0.949 . S
C1536 C1540 1.368 . S
C1537 C1518 1.429 . S
C1537 C1531 1.429 . S
C1537 C1538 1.523 . S
C1538 C1519 1.368 . S
C1538 C1532 1.368 . S
C1538 C1537 1.523 . S
C1539 C1523 1.429 . S
C1539 C1535 1.429 . S
C1539 C1540 1.523 . S
C1540 C1524 1.368 . S
C1540 C1536 1.368 . S
C1540 C1539 1.523 . S
H1541 C1516 0.950 . S
H1542 C1518 0.950 . S
H1543 C1519 0.949 . S
H1544 C1521 0.950 . S
H1545 C1523 0.950 . S
C1546 C1547 1.349 . S
C1546 C1548 1.327 . S
C1546 H1571 0.950 . S
C1547 C1546 1.349 . S
C1547 C1563 1.349 . S
C1548 C1546 1.327 . S
C1548 C1567 1.429 . S
C1548 H1572 0.950 . S
C1549 C1566 1.574 . S
C1549 C1568 1.368 . S
C1549 H1573 0.949 . S
H1550 C1554 0.949 . S
C1551 C1552 1.349 . S
C1551 C1553 1.327 . S
C1551 H1574 0.950 . S
C1552 C1551 1.349 . S
C1552 C1564 1.349 . S
C1553 C1551 1.327 . S
C1553 C1569 1.429 . S
C1553 H1575 0.950 . S
C1554 H1550 0.949 . S
C1554 C1562 1.574 . S
C1554 C1570 1.368 . S
H1555 C1563 0.950 . S
H1556 C1561 0.950 . S
H1557 C1562 0.949 . S
H1558 C1564 0.950 . S
H1559 C1565 0.950 . S
H1560 C1566 0.949 . S
C1561 H1556 0.950 . S
C1561 C1563 1.327 . S
C1561 C1567 1.429 . S
C1562 C1554 1.574 . S
C1562 H1557 0.949 . S
C1562 C1568 1.368 . S
C1563 C1547 1.349 . S
C1563 H1555 0.950 . S
C1563 C1561 1.327 . S
C1564 C1552 1.349 . S
C1564 H1558 0.950 . S
C1564 C1565 1.327 . S
C1565 H1559 0.950 . S
C1565 C1564 1.327 . S
C1565 C1569 1.429 . S
C1566 C1549 1.574 . S
C1566 H1560 0.949 . S
C1566 C1570 1.368 . S
C1567 C1548 1.429 . S
C1567 C1561 1.429 . S
C1567 C1568 1.523 . S
C1568 C1549 1.368 . S
C1568 C1562 1.368 . S
C1568 C1567 1.523 . S
C1569 C1553 1.429 . S
C1569 C1565 1.429 . S
C1569 C1570 1.523 . S
C1570 C1554 1.368 . S
C1570 C1566 1.368 . S
C1570 C1569 1.523 . S
H1571 C1546 0.950 . S
H1572 C1548 0.950 . S
H1573 C1549 0.949 . S
H1574 C1551 0.950 . S
H1575 C1553 0.950 . S
C1576 C1577 1.349 . S
C1576 C1578 1.327 . S
C1576 H1601 0.950 . S
C1577 C1576 1.349 . S
C1577 C1593 1.349 . S
C1578 C1576 1.327 . S
C1578 C1597 1.429 . S
C1578 H1602 0.950 . S
C1579 C1596 1.574 . S
C1579 C1598 1.368 . S
C1579 H1603 0.949 . S
H1580 C1584 0.949 . S
C1581 C1582 1.349 . S
C1581 C1583 1.327 . S
C1581 H1604 0.950 . S
C1582 C1581 1.349 . S
C1582 C1594 1.349 . S
C1583 C1581 1.327 . S
C1583 C1599 1.429 . S
C1583 H1605 0.950 . S
C1584 H1580 0.949 . S
C1584 C1592 1.574 . S
C1584 C1600 1.368 . S
H1585 C1593 0.950 . S
H1586 C1591 0.950 . S
H1587 C1592 0.949 . S
H1588 C1594 0.950 . S
H1589 C1595 0.950 . S
H1590 C1596 0.949 . S
C1591 H1586 0.950 . S
C1591 C1593 1.327 . S
C1591 C1597 1.429 . S
C1592 C1584 1.574 . S
C1592 H1587 0.949 . S
C1592 C1598 1.368 . S
C1593 C1577 1.349 . S
C1593 H1585 0.950 . S
C1593 C1591 1.327 . S
C1594 C1582 1.349 . S
C1594 H1588 0.950 . S
C1594 C1595 1.327 . S
C1595 H1589 0.950 . S
C1595 C1594 1.327 . S
C1595 C1599 1.429 . S
C1596 C1579 1.574 . S
C1596 H1590 0.949 . S
C1596 C1600 1.368 . S
C1597 C1578 1.429 . S
C1597 C1591 1.429 . S
C1597 C1598 1.523 . S
C1598 C1579 1.368 . S
C1598 C1592 1.368 . S
C1598 C1597 1.523 . S
C1599 C1583 1.429 . S
C1599 C1595 1.429 . S
C1599 C1600 1.523 . S
C1600 C1584 1.368 . S
C1600 C1596 1.368 . S
C1600 C1599 1.523 . S
H1601 C1576 0.950 . S
H1602 C1578 0.950 . S
H1603 C1579 0.949 . S
H1604 C1581 0.950 . S
H1605 C1583 0.950 . S
C1606 C1607 1.349 . S
C1606 C1608 1.327 . S
C1606 H1631 0.950 . S
C1607 C1606 1.349 . S
C1607 C1623 1.349 . S
C1608 C1606 1.327 . S
C1608 C1627 1.429 . S
C1608 H1632 0.950 . S
C1609 C1626 1.574 . S
C1609 C1628 1.368 . S
C1609 H1633 0.949 . S
H1610 C1614 0.949 . S
C1611 C1612 1.349 . S
C1611 C1613 1.327 . S
C1611 H1634 0.950 . S
C1612 C1611 1.349 . S
C1612 C1624 1.349 . S
C1613 C1611 1.327 . S
C1613 C1629 1.429 . S
C1613 H1635 0.950 . S
C1614 H1610 0.949 . S
C1614 C1622 1.574 . S
C1614 C1630 1.368 . S
H1615 C1623 0.950 . S
H1616 C1621 0.950 . S
H1617 C1622 0.949 . S
H1618 C1624 0.950 . S
H1619 C1625 0.950 . S
H1620 C1626 0.949 . S
C1621 H1616 0.950 . S
C1621 C1623 1.327 . S
C1621 C1627 1.429 . S
C1622 C1614 1.574 . S
C1622 H1617 0.949 . S
C1622 C1628 1.368 . S
C1623 C1607 1.349 . S
C1623 H1615 0.950 . S
C1623 C1621 1.327 . S
C1624 C1612 1.349 . S
C1624 H1618 0.950 . S
C1624 C1625 1.327 . S
C1625 H1619 0.950 . S
C1625 C1624 1.327 . S
C1625 C1629 1.429 . S
C1626 C1609 1.574 . S
C1626 H1620 0.949 . S
C1626 C1630 1.368 . S
C1627 C1608 1.429 . S
C1627 C1621 1.429 . S
C1627 C1628 1.523 . S
C1628 C1609 1.368 . S
C1628 C1622 1.368 . S
C1628 C1627 1.523 . S
C1629 C1613 1.429 . S
C1629 C1625 1.429 . S
C1629 C1630 1.523 . S
C1630 C1614 1.368 . S
C1630 C1626 1.368 . S
C1630 C1629 1.523 . S
H1631 C1606 0.950 . S
H1632 C1608 0.950 . S
H1633 C1609 0.949 . S
H1634 C1611 0.950 . S
H1635 C1613 0.950 . S
C1636 C1637 1.349 . S
C1636 C1638 1.327 . S
C1636 H1661 0.950 . S
C1637 C1636 1.349 . S
C1637 C1653 1.349 . S
C1638 C1636 1.327 . S
C1638 C1657 1.429 . S
C1638 H1662 0.950 . S
C1639 C1656 1.574 . S
C1639 C1658 1.368 . S
C1639 H1663 0.949 . S
H1640 C1644 0.949 . S
C1641 C1642 1.349 . S
C1641 C1643 1.327 . S
C1641 H1664 0.950 . S
C1642 C1641 1.349 . S
C1642 C1654 1.349 . S
C1643 C1641 1.327 . S
C1643 C1659 1.429 . S
C1643 H1665 0.950 . S
C1644 H1640 0.949 . S
C1644 C1652 1.574 . S
C1644 C1660 1.368 . S
H1645 C1653 0.950 . S
H1646 C1651 0.950 . S
H1647 C1652 0.949 . S
H1648 C1654 0.950 . S
H1649 C1655 0.950 . S
H1650 C1656 0.949 . S
C1651 H1646 0.950 . S
C1651 C1653 1.327 . S
C1651 C1657 1.429 . S
C1652 C1644 1.574 . S
C1652 H1647 0.949 . S
C1652 C1658 1.368 . S
C1653 C1637 1.349 . S
C1653 H1645 0.950 . S
C1653 C1651 1.327 . S
C1654 C1642 1.349 . S
C1654 H1648 0.950 . S
C1654 C1655 1.327 . S
C1655 H1649 0.950 . S
C1655 C1654 1.327 . S
C1655 C1659 1.429 . S
C1656 C1639 1.574 . S
C1656 H1650 0.949 . S
C1656 C1660 1.368 . S
C1657 C1638 1.429 . S
C1657 C1651 1.429 . S
C1657 C1658 1.523 . S
C1658 C1639 1.368 . S
C1658 C1652 1.368 . S
C1658 C1657 1.523 . S
C1659 C1643 1.429 . S
C1659 C1655 1.429 . S
C1659 C1660 1.523 . S
C1660 C1644 1.368 . S
C1660 C1656 1.368 . S
C1660 C1659 1.523 . S
H1661 C1636 0.950 . S
H1662 C1638 0.950 . S
H1663 C1639 0.949 . S
H1664 C1641 0.950 . S
H1665 C1643 0.950 . S
C1666 C1667 1.349 . S
C1666 C1668 1.327 . S
C1666 H1691 0.950 . S
C1667 C1666 1.349 . S
C1667 C1683 1.349 . S
C1668 C1666 1.327 . S
C1668 C1687 1.429 . S
C1668 H1692 0.950 . S
C1669 C1686 1.574 . S
C1669 C1688 1.368 . S
C1669 H1693 0.949 . S
H1670 C1674 0.949 . S
C1671 C1672 1.349 . S
C1671 C1673 1.327 . S
C1671 H1694 0.950 . S
C1672 C1671 1.349 . S
C1672 C1684 1.349 . S
C1673 C1671 1.327 . S
C1673 C1689 1.429 . S
C1673 H1695 0.950 . S
C1674 H1670 0.949 . S
C1674 C1682 1.574 . S
C1674 C1690 1.368 . S
H1675 C1683 0.950 . S
H1676 C1681 0.950 . S
H1677 C1682 0.949 . S
H1678 C1684 0.950 . S
H1679 C1685 0.950 . S
H1680 C1686 0.949 . S
C1681 H1676 0.950 . S
C1681 C1683 1.327 . S
C1681 C1687 1.429 . S
C1682 C1674 1.574 . S
C1682 H1677 0.949 . S
C1682 C1688 1.368 . S
C1683 C1667 1.349 . S
C1683 H1675 0.950 . S
C1683 C1681 1.327 . S
C1684 C1672 1.349 . S
C1684 H1678 0.950 . S
C1684 C1685 1.327 . S
C1685 H1679 0.950 . S
C1685 C1684 1.327 . S
C1685 C1689 1.429 . S
C1686 C1669 1.574 . S
C1686 H1680 0.949 . S
C1686 C1690 1.368 . S
C1687 C1668 1.429 . S
C1687 C1681 1.429 . S
C1687 C1688 1.523 . S
C1688 C1669 1.368 . S
C1688 C1682 1.368 . S
C1688 C1687 1.523 . S
C1689 C1673 1.429 . S
C1689 C1685 1.429 . S
C1689 C1690 1.523 . S
C1690 C1674 1.368 . S
C1690 C1686 1.368 . S
C1690 C1689 1.523 . S
H1691 C1666 0.950 . S
H1692 C1668 0.950 . S
H1693 C1669 0.949 . S
H1694 C1671 0.950 . S
H1695 C1673 0.950 . S
C1696 C1697 1.349 . S
C1696 C1698 1.327 . S
C1696 H1721 0.950 . S
C1697 C1696 1.349 . S
C1697 C1713 1.349 . S
C1698 C1696 1.327 . S
C1698 C1717 1.429 . S
C1698 H1722 0.950 . S
C1699 C1716 1.574 . S
C1699 C1718 1.368 . S
C1699 H1723 0.949 . S
H1700 C1704 0.949 . S
C1701 C1702 1.349 . S
C1701 C1703 1.327 . S
C1701 H1724 0.950 . S
C1702 C1701 1.349 . S
C1702 C1714 1.349 . S
C1703 C1701 1.327 . S
C1703 C1719 1.429 . S
C1703 H1725 0.950 . S
C1704 H1700 0.949 . S
C1704 C1712 1.574 . S
C1704 C1720 1.368 . S
H1705 C1713 0.950 . S
H1706 C1711 0.950 . S
H1707 C1712 0.949 . S
H1708 C1714 0.950 . S
H1709 C1715 0.950 . S
H1710 C1716 0.949 . S
C1711 H1706 0.950 . S
C1711 C1713 1.327 . S
C1711 C1717 1.429 . S
C1712 C1704 1.574 . S
C1712 H1707 0.949 . S
C1712 C1718 1.368 . S
C1713 C1697 1.349 . S
C1713 H1705 0.950 . S
C1713 C1711 1.327 . S
C1714 C1702 1.349 . S
C1714 H1708 0.950 . S
C1714 C1715 1.327 . S
C1715 H1709 0.950 . S
C1715 C1714 1.327 . S
C1715 C1719 1.429 . S
C1716 C1699 1.574 . S
C1716 H1710 0.949 . S
C1716 C1720 1.368 . S
C1717 C1698 1.429 . S
C1717 C1711 1.429 . S
C1717 C1718 1.523 . S
C1718 C1699 1.368 . S
C1718 C1712 1.368 . S
C1718 C1717 1.523 . S
C1719 C1703 1.429 . S
C1719 C1715 1.429 . S
C1719 C1720 1.523 . S
C1720 C1704 1.368 . S
C1720 C1716 1.368 . S
C1720 C1719 1.523 . S
H1721 C1696 0.950 . S
H1722 C1698 0.950 . S
H1723 C1699 0.949 . S
H1724 C1701 0.950 . S
H1725 C1703 0.950 . S
C1726 C1727 1.349 . S
C1726 C1728 1.327 . S
C1726 H1751 0.950 . S
C1727 C1726 1.349 . S
C1727 C1743 1.349 . S
C1728 C1726 1.327 . S
C1728 C1747 1.429 . S
C1728 H1752 0.950 . S
C1729 C1746 1.574 . S
C1729 C1748 1.368 . S
C1729 H1753 0.949 . S
H1730 C1734 0.949 . S
C1731 C1732 1.349 . S
C1731 C1733 1.327 . S
C1731 H1754 0.950 . S
C1732 C1731 1.349 . S
C1732 C1744 1.349 . S
C1733 C1731 1.327 . S
C1733 C1749 1.429 . S
C1733 H1755 0.950 . S
C1734 H1730 0.949 . S
C1734 C1742 1.574 . S
C1734 C1750 1.368 . S
H1735 C1743 0.950 . S
H1736 C1741 0.950 . S
H1737 C1742 0.949 . S
H1738 C1744 0.950 . S
H1739 C1745 0.950 . S
H1740 C1746 0.949 . S
C1741 H1736 0.950 . S
C1741 C1743 1.327 . S
C1741 C1747 1.429 . S
C1742 C1734 1.574 . S
C1742 H1737 0.949 . S
C1742 C1748 1.368 . S
C1743 C1727 1.349 . S
C1743 H1735 0.950 . S
C1743 C1741 1.327 . S
C1744 C1732 1.349 . S
C1744 H1738 0.950 . S
C1744 C1745 1.327 . S
C1745 H1739 0.950 . S
C1745 C1744 1.327 . S
C1745 C1749 1.429 . S
C1746 C1729 1.574 . S
C1746 H1740 0.949 . S
C1746 C1750 1.368 . S
C1747 C1728 1.429 . S
C1747 C1741 1.429 . S
C1747 C1748 1.523 . S
C1748 C1729 1.368 . S
C1748 C1742 1.368 . S
C1748 C1747 1.523 . S
C1749 C1733 1.429 . S
C1749 C1745 1.429 . S
C1749 C1750 1.523 . S
C1750 C1734 1.368 . S
C1750 C1746 1.368 . S
C1750 C1749 1.523 . S
H1751 C1726 0.950 . S
H1752 C1728 0.950 . S
H1753 C1729 0.949 . S
H1754 C1731 0.950 . S
H1755 C1733 0.950 . S
C1756 C1757 1.349 . S
C1756 C1758 1.327 . S
C1756 H1781 0.950 . S
C1757 C1756 1.349 . S
C1757 C1773 1.349 . S
C1758 C1756 1.327 . S
C1758 C1777 1.429 . S
C1758 H1782 0.950 . S
C1759 C1776 1.574 . S
C1759 C1778 1.368 . S
C1759 H1783 0.949 . S
H1760 C1764 0.949 . S
C1761 C1762 1.349 . S
C1761 C1763 1.327 . S
C1761 H1784 0.950 . S
C1762 C1761 1.349 . S
C1762 C1774 1.349 . S
C1763 C1761 1.327 . S
C1763 C1779 1.429 . S
C1763 H1785 0.950 . S
C1764 H1760 0.949 . S
C1764 C1772 1.574 . S
C1764 C1780 1.368 . S
H1765 C1773 0.950 . S
H1766 C1771 0.950 . S
H1767 C1772 0.949 . S
H1768 C1774 0.950 . S
H1769 C1775 0.950 . S
H1770 C1776 0.949 . S
C1771 H1766 0.950 . S
C1771 C1773 1.327 . S
C1771 C1777 1.429 . S
C1772 C1764 1.574 . S
C1772 H1767 0.949 . S
C1772 C1778 1.368 . S
C1773 C1757 1.349 . S
C1773 H1765 0.950 . S
C1773 C1771 1.327 . S
C1774 C1762 1.349 . S
C1774 H1768 0.950 . S
C1774 C1775 1.327 . S
C1775 H1769 0.950 . S
C1775 C1774 1.327 . S
C1775 C1779 1.429 . S
C1776 C1759 1.574 . S
C1776 H1770 0.949 . S
C1776 C1780 1.368 . S
C1777 C1758 1.429 . S
C1777 C1771 1.429 . S
C1777 C1778 1.523 . S
C1778 C1759 1.368 . S
C1778 C1772 1.368 . S
C1778 C1777 1.523 . S
C1779 C1763 1.429 . S
C1779 C1775 1.429 . S
C1779 C1780 1.523 . S
C1780 C1764 1.368 . S
C1780 C1776 1.368 . S
C1780 C1779 1.523 . S
H1781 C1756 0.950 . S
H1782 C1758 0.950 . S
H1783 C1759 0.949 . S
H1784 C1761 0.950 . S
H1785 C1763 0.950 . S
C1786 C1787 1.349 . S
C1786 C1788 1.327 . S
C1786 H1811 0.950 . S
C1787 C1786 1.349 . S
C1787 C1803 1.349 . S
C1788 C1786 1.327 . S
C1788 C1807 1.429 . S
C1788 H1812 0.950 . S
C1789 C1806 1.574 . S
C1789 C1808 1.368 . S
C1789 H1813 0.949 . S
H1790 C1794 0.949 . S
C1791 C1792 1.349 . S
C1791 C1793 1.327 . S
C1791 H1814 0.950 . S
C1792 C1791 1.349 . S
C1792 C1804 1.349 . S
C1793 C1791 1.327 . S
C1793 C1809 1.429 . S
C1793 H1815 0.950 . S
C1794 H1790 0.949 . S
C1794 C1802 1.574 . S
C1794 C1810 1.368 . S
H1795 C1803 0.950 . S
H1796 C1801 0.950 . S
H1797 C1802 0.949 . S
H1798 C1804 0.950 . S
H1799 C1805 0.950 . S
H1800 C1806 0.949 . S
C1801 H1796 0.950 . S
C1801 C1803 1.327 . S
C1801 C1807 1.429 . S
C1802 C1794 1.574 . S
C1802 H1797 0.949 . S
C1802 C1808 1.368 . S
C1803 C1787 1.349 . S
C1803 H1795 0.950 . S
C1803 C1801 1.327 . S
C1804 C1792 1.349 . S
C1804 H1798 0.950 . S
C1804 C1805 1.327 . S
C1805 H1799 0.950 . S
C1805 C1804 1.327 . S
C1805 C1809 1.429 . S
C1806 C1789 1.574 . S
C1806 H1800 0.949 . S
C1806 C1810 1.368 . S
C1807 C1788 1.429 . S
C1807 C1801 1.429 . S
C1807 C1808 1.523 . S
C1808 C1789 1.368 . S
C1808 C1802 1.368 . S
C1808 C1807 1.523 . S
C1809 C1793 1.429 . S
C1809 C1805 1.429 . S
C1809 C1810 1.523 . S
C1810 C1794 1.368 . S
C1810 C1806 1.368 . S
C1810 C1809 1.523 . S
H1811 C1786 0.950 . S
H1812 C1788 0.950 . S
H1813 C1789 0.949 . S
H1814 C1791 0.950 . S
H1815 C1793 0.950 . S
C1816 C1817 1.349 . S
C1816 C1818 1.327 . S
C1816 H1841 0.950 . S
C1817 C1816 1.349 . S
C1817 C1833 1.349 . S
C1818 C1816 1.327 . S
C1818 C1837 1.429 . S
C1818 H1842 0.950 . S
C1819 C1836 1.574 . S
C1819 C1838 1.368 . S
C1819 H1843 0.949 . S
H1820 C1824 0.949 . S
C1821 C1822 1.349 . S
C1821 C1823 1.327 . S
C1821 H1844 0.950 . S
C1822 C1821 1.349 . S
C1822 C1834 1.349 . S
C1823 C1821 1.327 . S
C1823 C1839 1.429 . S
C1823 H1845 0.950 . S
C1824 H1820 0.949 . S
C1824 C1832 1.574 . S
C1824 C1840 1.368 . S
H1825 C1833 0.950 . S
H1826 C1831 0.950 . S
H1827 C1832 0.949 . S
H1828 C1834 0.950 . S
H1829 C1835 0.950 . S
H1830 C1836 0.949 . S
C1831 H1826 0.950 . S
C1831 C1833 1.327 . S
C1831 C1837 1.429 . S
C1832 C1824 1.574 . S
C1832 H1827 0.949 . S
C1832 C1838 1.368 . S
C1833 C1817 1.349 . S
C1833 H1825 0.950 . S
C1833 C1831 1.327 . S
C1834 C1822 1.349 . S
C1834 H1828 0.950 . S
C1834 C1835 1.327 . S
C1835 H1829 0.950 . S
C1835 C1834 1.327 . S
C1835 C1839 1.429 . S
C1836 C1819 1.574 . S
C1836 H1830 0.949 . S
C1836 C1840 1.368 . S
C1837 C1818 1.429 . S
C1837 C1831 1.429 . S
C1837 C1838 1.523 . S
C1838 C1819 1.368 . S
C1838 C1832 1.368 . S
C1838 C1837 1.523 . S
C1839 C1823 1.429 . S
C1839 C1835 1.429 . S
C1839 C1840 1.523 . S
C1840 C1824 1.368 . S
C1840 C1836 1.368 . S
C1840 C1839 1.523 . S
H1841 C1816 0.950 . S
H1842 C1818 0.950 . S
H1843 C1819 0.949 . S
H1844 C1821 0.950 . S
H1845 C1823 0.950 . S
C1846 C1847 1.349 . S
C1846 C1848 1.327 . S
C1846 H1871 0.950 . S
C1847 C1846 1.349 . S
C1847 C1863 1.349 . S
C1848 C1846 1.327 . S
C1848 C1867 1.429 . S
C1848 H1872 0.950 . S
C1849 C1866 1.574 . S
C1849 C1868 1.368 . S
C1849 H1873 0.949 . S
H1850 C1854 0.949 . S
C1851 C1852 1.349 . S
C1851 C1853 1.327 . S
C1851 H1874 0.950 . S
C1852 C1851 1.349 . S
C1852 C1864 1.349 . S
C1853 C1851 1.327 . S
C1853 C1869 1.429 . S
C1853 H1875 0.950 . S
C1854 H1850 0.949 . S
C1854 C1862 1.574 . S
C1854 C1870 1.368 . S
H1855 C1863 0.950 . S
H1856 C1861 0.950 . S
H1857 C1862 0.949 . S
H1858 C1864 0.950 . S
H1859 C1865 0.950 . S
H1860 C1866 0.949 . S
C1861 H1856 0.950 . S
C1861 C1863 1.327 . S
C1861 C1867 1.429 . S
C1862 C1854 1.574 . S
C1862 H1857 0.949 . S
C1862 C1868 1.368 . S
C1863 C1847 1.349 . S
C1863 H1855 0.950 . S
C1863 C1861 1.327 . S
C1864 C1852 1.349 . S
C1864 H1858 0.950 . S
C1864 C1865 1.327 . S
C1865 H1859 0.950 . S
C1865 C1864 1.327 . S
C1865 C1869 1.429 . S
C1866 C1849 1.574 . S
C1866 H1860 0.949 . S
C1866 C1870 1.368 . S
C1867 C1848 1.429 . S
C1867 C1861 1.429 . S
C1867 C1868 1.523 . S
C1868 C1849 1.368 . S
C1868 C1862 1.368 . S
C1868 C1867 1.523 . S
C1869 C1853 1.429 . S
C1869 C1865 1.429 . S
C1869 C1870 1.523 . S
C1870 C1854 1.368 . S
C1870 C1866 1.368 . S
C1870 C1869 1.523 . S
H1871 C1846 0.950 . S
H1872 C1848 0.950 . S
H1873 C1849 0.949 . S
H1874 C1851 0.950 . S
H1875 C1853 0.950 . S
C1876 C1877 1.349 . S
C1876 C1878 1.327 . S
C1876 H1901 0.950 . S
C1877 C1876 1.349 . S
C1877 C1893 1.349 . S
C1878 C1876 1.327 . S
C1878 C1897 1.429 . S
C1878 H1902 0.950 . S
C1879 C1896 1.574 . S
C1879 C1898 1.368 . S
C1879 H1903 0.949 . S
H1880 C1884 0.949 . S
C1881 C1882 1.349 . S
C1881 C1883 1.327 . S
C1881 H1904 0.946 . S
C1882 C1881 1.349 . S
C1882 C1894 1.349 . S
C1883 C1881 1.327 . S
C1883 C1899 1.429 . S
C1883 H1905 0.950 . S
C1884 H1880 0.949 . S
C1884 C1892 1.574 . S
C1884 C1900 1.368 . S
H1885 C1893 0.950 . S
H1886 C1891 0.950 . S
H1887 C1892 0.949 . S
H1888 C1894 0.950 . S
H1889 C1895 0.950 . S
H1890 C1896 0.949 . S
C1891 H1886 0.950 . S
C1891 C1893 1.327 . S
C1891 C1897 1.429 . S
C1892 C1884 1.574 . S
C1892 H1887 0.949 . S
C1892 C1898 1.368 . S
C1893 C1877 1.349 . S
C1893 H1885 0.950 . S
C1893 C1891 1.327 . S
C1894 C1882 1.349 . S
C1894 H1888 0.950 . S
C1894 C1895 1.327 . S
C1895 H1889 0.950 . S
C1895 C1894 1.327 . S
C1895 C1899 1.429 . S
C1896 C1879 1.574 . S
C1896 H1890 0.949 . S
C1896 C1900 1.368 . S
C1897 C1878 1.429 . S
C1897 C1891 1.429 . S
C1897 C1898 1.523 . S
C1898 C1879 1.368 . S
C1898 C1892 1.368 . S
C1898 C1897 1.523 . S
C1899 C1883 1.429 . S
C1899 C1895 1.429 . S
C1899 C1900 1.523 . S
C1900 C1884 1.368 . S
C1900 C1896 1.368 . S
C1900 C1899 1.523 . S
H1901 C1876 0.950 . S
H1902 C1878 0.950 . S
H1903 C1879 0.949 . S
H1904 C1881 0.946 . S
H1905 C1883 0.950 . S
C1906 C1907 1.349 . S
C1906 C1908 1.327 . S
C1906 H1931 0.950 . S
C1907 C1906 1.349 . S
C1907 C1923 1.349 . S
C1908 C1906 1.327 . S
C1908 C1927 1.429 . S
C1908 H1932 0.950 . S
C1909 C1926 1.574 . S
C1909 C1928 1.368 . S
C1909 H1933 0.949 . S
H1910 C1914 0.949 . S
C1911 C1912 1.349 . S
C1911 C1913 1.327 . S
C1911 H1934 0.950 . S
C1912 C1911 1.349 . S
C1912 C1924 1.349 . S
C1913 C1911 1.327 . S
C1913 C1929 1.429 . S
C1913 H1935 0.950 . S
C1914 H1910 0.949 . S
C1914 C1922 1.574 . S
C1914 C1930 1.368 . S
H1915 C1923 0.950 . S
H1916 C1921 0.950 . S
H1917 C1922 0.949 . S
H1918 C1924 0.950 . S
H1919 C1925 0.950 . S
H1920 C1926 0.949 . S
C1921 H1916 0.950 . S
C1921 C1923 1.327 . S
C1921 C1927 1.429 . S
C1922 C1914 1.574 . S
C1922 H1917 0.949 . S
C1922 C1928 1.368 . S
C1923 C1907 1.349 . S
C1923 H1915 0.950 . S
C1923 C1921 1.327 . S
C1924 C1912 1.349 . S
C1924 H1918 0.950 . S
C1924 C1925 1.327 . S
C1925 H1919 0.950 . S
C1925 C1924 1.327 . S
C1925 C1929 1.429 . S
C1926 C1909 1.574 . S
C1926 H1920 0.949 . S
C1926 C1930 1.368 . S
C1927 C1908 1.429 . S
C1927 C1921 1.429 . S
C1927 C1928 1.523 . S
C1928 C1909 1.368 . S
C1928 C1922 1.368 . S
C1928 C1927 1.523 . S
C1929 C1913 1.429 . S
C1929 C1925 1.429 . S
C1929 C1930 1.523 . S
C1930 C1914 1.368 . S
C1930 C1926 1.368 . S
C1930 C1929 1.523 . S
H1931 C1906 0.950 . S
H1932 C1908 0.950 . S
H1933 C1909 0.949 . S
H1934 C1911 0.950 . S
H1935 C1913 0.950 . S
C1936 C1937 1.349 . S
C1936 C1938 1.327 . S
C1936 H1961 0.950 . S
C1937 C1936 1.349 . S
C1937 C1953 1.349 1_545 S
C1938 C1936 1.327 . S
C1938 C1957 1.429 . S
C1938 H1962 0.950 . S
C1939 C1956 1.574 . S
C1939 C1958 1.368 1_565 S
C1939 H1963 0.949 . S
H1940 C1944 0.949 . S
C1941 C1942 1.349 . S
C1941 C1943 1.327 . S
C1941 H1964 0.950 1_545 S
C1942 C1941 1.349 . S
C1942 C1954 1.349 . S
C1943 C1941 1.327 . S
C1943 C1959 1.429 . S
C1943 H1965 0.950 1_545 S
C1944 H1940 0.949 . S
C1944 C1952 1.574 . S
C1944 C1960 1.368 . S
H1945 C1953 0.950 . S
H1946 C1951 0.950 . S
H1947 C1952 0.949 . S
H1948 C1954 0.950 . S
H1949 C1955 0.950 . S
H1950 C1956 0.949 . S
C1951 H1946 0.950 . S
C1951 C1953 1.327 . S
C1951 C1957 1.429 1_565 S
C1952 C1944 1.574 . S
C1952 H1947 0.949 . S
C1952 C1958 1.368 . S
C1953 C1937 1.349 1_565 S
C1953 H1945 0.950 . S
C1953 C1951 1.327 . S
C1954 C1942 1.349 . S
C1954 H1948 0.950 . S
C1954 C1955 1.327 . S
C1955 H1949 0.950 . S
C1955 C1954 1.327 . S
C1955 C1959 1.429 . S
C1956 C1939 1.574 . S
C1956 H1950 0.949 . S
C1956 C1960 1.368 1_565 S
C1957 C1938 1.429 . S
C1957 C1951 1.429 1_545 S
C1957 C1958 1.523 . S
C1958 C1939 1.368 1_545 S
C1958 C1952 1.368 . S
C1958 C1957 1.523 . S
C1959 C1943 1.429 . S
C1959 C1955 1.429 . S
C1959 C1960 1.523 . S
C1960 C1944 1.368 . S
C1960 C1956 1.368 1_545 S
C1960 C1959 1.523 . S
H1961 C1936 0.950 . S
H1962 C1938 0.950 . S
H1963 C1939 0.949 . S
H1964 C1941 0.950 1_565 S
H1965 C1943 0.950 1_565 S
C1966 C1967 1.349 . S
C1966 C1968 1.327 . S
C1966 H1991 0.950 . S
C1967 C1966 1.349 . S
C1967 C1983 1.349 . S
C1968 C1966 1.327 . S
C1968 C1987 1.429 . S
C1968 H1992 0.950 . S
C1969 C1986 1.574 . S
C1969 C1988 1.368 . S
C1969 H1993 0.949 . S
H1970 C1974 0.949 . S
C1971 C1972 1.349 . S
C1971 C1973 1.327 . S
C1971 H1994 0.950 . S
C1972 C1971 1.349 . S
C1972 C1984 1.349 . S
C1973 C1971 1.327 . S
C1973 C1989 1.429 . S
C1973 H1995 0.950 . S
C1974 H1970 0.949 . S
C1974 C1982 1.574 . S
C1974 C1990 1.368 . S
H1975 C1983 0.950 . S
H1976 C1981 0.950 . S
H1977 C1982 0.949 . S
H1978 C1984 0.950 . S
H1979 C1985 0.950 . S
H1980 C1986 0.949 . S
C1981 H1976 0.950 . S
C1981 C1983 1.327 . S
C1981 C1987 1.429 . S
C1982 C1974 1.574 . S
C1982 H1977 0.949 . S
C1982 C1988 1.368 . S
C1983 C1967 1.349 . S
C1983 H1975 0.950 . S
C1983 C1981 1.327 . S
C1984 C1972 1.349 . S
C1984 H1978 0.950 . S
C1984 C1985 1.327 . S
C1985 H1979 0.950 . S
C1985 C1984 1.327 . S
C1985 C1989 1.429 . S
C1986 C1969 1.574 . S
C1986 H1980 0.949 . S
C1986 C1990 1.368 . S
C1987 C1968 1.429 . S
C1987 C1981 1.429 . S
C1987 C1988 1.523 . S
C1988 C1969 1.368 . S
C1988 C1982 1.368 . S
C1988 C1987 1.523 . S
C1989 C1973 1.429 . S
C1989 C1985 1.429 . S
C1989 C1990 1.523 . S
C1990 C1974 1.368 . S
C1990 C1986 1.368 . S
C1990 C1989 1.523 . S
H1991 C1966 0.950 . S
H1992 C1968 0.950 . S
H1993 C1969 0.949 . S
H1994 C1971 0.950 . S
H1995 C1973 0.950 . S
C1996 C1997 1.349 . S
C1996 C1998 1.327 . S
C1996 H2021 0.950 . S
C1997 C1996 1.349 . S
C1997 C2013 1.349 1_545 S
C1998 C1996 1.327 . S
C1998 C2017 1.429 . S
C1998 H2022 0.950 . S
C1999 C2016 1.567 . S
C1999 C2018 1.407 . S
C1999 H2023 0.921 1_545 S
H2000 C2004 0.949 . S
C2001 C2002 1.349 . S
C2001 C2003 1.327 . S
C2001 H2024 0.902 1_545 S
C2002 C2001 1.349 . S
C2002 C2014 1.349 . S
C2003 C2001 1.327 . S
C2003 C2019 1.429 . S
C2003 H2025 0.950 1_545 S
C2004 H2000 0.949 . S
C2004 C2012 1.574 . S
C2004 C2020 1.368 . S
H2005 C2013 0.950 . S
H2006 C2011 0.950 . S
H2007 C2012 0.949 . S
H2008 C2014 0.950 . S
H2009 C2015 0.950 . S
H2010 C2016 0.949 1_565 S
C2011 H2006 0.950 . S
C2011 C2013 1.327 . S
C2011 C2017 1.429 1_565 S
C2012 C2004 1.574 . S
C2012 H2007 0.949 . S
C2012 C2018 1.368 . S
C2013 C1997 1.349 1_565 S
C2013 H2005 0.950 . S
C2013 C2011 1.327 . S
C2014 C2002 1.349 . S
C2014 H2008 0.950 . S
C2014 C2015 1.327 . S
C2015 H2009 0.950 . S
C2015 C2014 1.327 . S
C2015 C2019 1.429 . S
C2016 C1999 1.567 . S
C2016 H2010 0.949 1_545 S
C2016 C2020 1.368 . S
C2017 C1998 1.429 . S
C2017 C2011 1.429 1_545 S
C2017 C2018 1.523 . S
C2018 C1999 1.407 . S
C2018 C2012 1.368 . S
C2018 C2017 1.523 . S
C2019 C2003 1.429 . S
C2019 C2015 1.429 . S
C2019 C2020 1.523 . S
C2020 C2004 1.368 . S
C2020 C2016 1.368 . S
C2020 C2019 1.523 . S
H2021 C1996 0.950 . S
H2022 C1998 0.950 . S
H2023 C1999 0.921 1_565 S
H2024 C2001 0.902 1_565 S
H2025 C2003 0.950 1_565 S
C2026 C2027 1.349 . S
C2026 C2028 1.327 . S
C2026 H2051 0.950 . S
C2027 C2026 1.349 . S
C2027 C2043 1.349 . S
C2028 C2026 1.327 . S
C2028 C2047 1.429 . S
C2028 H2052 0.950 . S
C2029 C2046 1.574 . S
C2029 C2048 1.368 . S
C2029 H2053 0.949 . S
H2030 C2034 0.949 . S
C2031 C2032 1.349 . S
C2031 C2033 1.327 . S
C2031 H2054 0.950 . S
C2032 C2031 1.349 . S
C2032 C2044 1.349 . S
C2033 C2031 1.327 . S
C2033 C2049 1.429 . S
C2033 H2055 0.950 . S
C2034 H2030 0.949 . S
C2034 C2042 1.574 . S
C2034 C2050 1.368 . S
H2035 C2043 0.950 . S
H2036 C2041 0.950 . S
H2037 C2042 0.949 . S
H2038 C2044 0.950 . S
H2039 C2045 0.950 . S
H2040 C2046 0.949 . S
C2041 H2036 0.950 . S
C2041 C2043 1.327 . S
C2041 C2047 1.429 . S
C2042 C2034 1.574 . S
C2042 H2037 0.949 . S
C2042 C2048 1.368 . S
C2043 C2027 1.349 . S
C2043 H2035 0.950 . S
C2043 C2041 1.327 . S
C2044 C2032 1.349 . S
C2044 H2038 0.950 . S
C2044 C2045 1.327 . S
C2045 H2039 0.950 . S
C2045 C2044 1.327 . S
C2045 C2049 1.429 . S
C2046 C2029 1.574 . S
C2046 H2040 0.949 . S
C2046 C2050 1.368 . S
C2047 C2028 1.429 . S
C2047 C2041 1.429 . S
C2047 C2048 1.523 . S
C2048 C2029 1.368 . S
C2048 C2042 1.368 . S
C2048 C2047 1.523 . S
C2049 C2033 1.429 . S
C2049 C2045 1.429 . S
C2049 C2050 1.523 . S
C2050 C2034 1.368 . S
C2050 C2046 1.368 . S
C2050 C2049 1.523 . S
H2051 C2026 0.950 . S
H2052 C2028 0.950 . S
H2053 C2029 0.949 . S
H2054 C2031 0.950 . S
H2055 C2033 0.950 . S
C2056 C2057 1.349 . S
C2056 C2058 1.327 . S
C2056 H2081 0.950 . S
C2057 C2056 1.349 . S
C2057 C2073 1.349 1_565 S
C2058 C2056 1.327 . S
C2058 C2077 1.429 1_565 S
C2058 H2082 0.950 . S
C2059 C2076 1.574 . S
C2059 C2078 1.368 . S
C2059 H2083 0.949 . S
H2060 C2064 0.949 . S
C2061 C2062 1.349 . S
C2061 C2063 1.327 . S
C2061 H2084 0.950 . S
C2062 C2061 1.349 . S
C2062 C2074 1.349 . S
C2063 C2061 1.327 . S
C2063 C2079 1.429 . S
C2063 H2085 0.950 . S
C2064 H2060 0.949 . S
C2064 C2072 1.574 . S
C2064 C2080 1.368 1_565 S
H2065 C2073 0.950 . S
H2066 C2071 0.950 . S
H2067 C2072 0.949 . S
H2068 C2074 0.950 1_565 S
H2069 C2075 0.948 1_565 S
H2070 C2076 0.949 . S
C2071 H2066 0.950 . S
C2071 C2073 1.327 . S
C2071 C2077 1.429 . S
C2072 C2064 1.574 . S
C2072 H2067 0.949 . S
C2072 C2078 1.368 1_565 S
C2073 C2057 1.349 1_545 S
C2073 H2065 0.950 . S
C2073 C2071 1.327 . S
C2074 C2062 1.349 . S
C2074 H2068 0.950 1_545 S
C2074 C2075 1.328 . S
C2075 H2069 0.948 1_545 S
C2075 C2074 1.328 . S
C2075 C2079 1.429 . S
C2076 C2059 1.574 . S
C2076 H2070 0.949 . S
C2076 C2080 1.368 . S
C2077 C2058 1.429 1_545 S
C2077 C2071 1.429 . S
C2077 C2078 1.523 . S
C2078 C2059 1.368 . S
C2078 C2072 1.368 1_545 S
C2078 C2077 1.523 . S
C2079 C2063 1.429 . S
C2079 C2075 1.429 . S
C2079 C2080 1.523 . S
C2080 C2064 1.368 1_545 S
C2080 C2076 1.368 . S
C2080 C2079 1.523 . S
H2081 C2056 0.950 . S
H2082 C2058 0.950 . S
H2083 C2059 0.949 . S
H2084 C2061 0.950 . S
H2085 C2063 0.950 . S
C2086 C2087 1.349 . S
C2086 C2088 1.327 . S
C2086 H2111 0.950 . S
C2087 C2086 1.349 . S
C2087 C2103 1.349 . S
C2088 C2086 1.327 . S
C2088 C2107 1.429 . S
C2088 H2112 0.950 . S
C2089 C2106 1.574 . S
C2089 C2108 1.368 . S
C2089 H2113 0.949 . S
H2090 C2094 0.949 . S
C2091 C2092 1.349 . S
C2091 C2093 1.327 . S
C2091 H2114 0.950 . S
C2092 C2091 1.349 . S
C2092 C2104 1.349 . S
C2093 C2091 1.327 . S
C2093 C2109 1.429 . S
C2093 H2115 0.950 . S
C2094 H2090 0.949 . S
C2094 C2102 1.574 . S
C2094 C2110 1.368 . S
H2095 C2103 0.950 . S
H2096 C2101 0.950 . S
H2097 C2102 0.949 . S
H2098 C2104 0.950 . S
H2099 C2105 0.950 . S
H2100 C2106 0.949 . S
C2101 H2096 0.950 . S
C2101 C2103 1.327 . S
C2101 C2107 1.429 . S
C2102 C2094 1.574 . S
C2102 H2097 0.949 . S
C2102 C2108 1.368 . S
C2103 C2087 1.349 . S
C2103 H2095 0.950 . S
C2103 C2101 1.327 . S
C2104 C2092 1.349 . S
C2104 H2098 0.950 . S
C2104 C2105 1.327 . S
C2105 H2099 0.950 . S
C2105 C2104 1.327 . S
C2105 C2109 1.429 . S
C2106 C2089 1.574 . S
C2106 H2100 0.949 . S
C2106 C2110 1.368 . S
C2107 C2088 1.429 . S
C2107 C2101 1.429 . S
C2107 C2108 1.523 . S
C2108 C2089 1.368 . S
C2108 C2102 1.368 . S
C2108 C2107 1.523 . S
C2109 C2093 1.429 . S
C2109 C2105 1.429 . S
C2109 C2110 1.523 . S
C2110 C2094 1.368 . S
C2110 C2106 1.368 . S
C2110 C2109 1.523 . S
H2111 C2086 0.950 . S
H2112 C2088 0.950 . S
H2113 C2089 0.949 . S
H2114 C2091 0.950 . S
H2115 C2093 0.950 . S
C2116 C2117 1.349 1_565 S
C2116 C2118 1.327 . S
C2116 H2141 0.950 . S
C2117 C2116 1.349 1_545 S
C2117 C2133 1.349 . S
C2118 C2116 1.327 . S
C2118 C2137 1.392 1_565 S
C2118 H2142 0.950 . S
C2119 C2136 1.574 . S
C2119 C2138 1.335 1_545 S
C2119 H2143 0.949 . S
H2120 C2124 0.949 . S
C2121 C2122 1.349 1_545 S
C2121 C2123 1.327 . S
C2121 H2144 0.950 . S
C2122 C2121 1.349 1_565 S
C2122 C2134 1.349 . S
C2123 C2121 1.327 . S
C2123 C2139 1.429 1_545 S
C2123 H2145 0.950 . S
C2124 H2120 0.949 . S
C2124 C2132 1.574 . S
C2124 C2140 1.368 . S
H2125 C2133 0.950 . S
H2126 C2131 0.950 . S
H2127 C2132 0.949 . S
H2128 C2134 0.950 . S
H2129 C2135 0.950 . S
H2130 C2136 0.949 . S
C2131 H2126 0.950 . S
C2131 C2133 1.327 . S
C2131 C2137 1.469 . S
C2132 C2124 1.574 . S
C2132 H2127 0.949 . S
C2132 C2138 1.404 . S
C2133 C2117 1.349 . S
C2133 H2125 0.950 . S
C2133 C2131 1.327 . S
C2134 C2122 1.349 . S
C2134 H2128 0.950 . S
C2134 C2135 1.327 . S
C2135 H2129 0.950 . S
C2135 C2134 1.327 . S
C2135 C2139 1.429 . S
C2136 C2119 1.574 . S
C2136 H2130 0.949 . S
C2136 C2140 1.368 1_545 S
C2137 C2118 1.392 1_545 S
C2137 C2131 1.469 . S
C2137 C2138 1.523 1_545 S
C2138 C2119 1.335 1_565 S
C2138 C2132 1.404 . S
C2138 C2137 1.523 1_565 S
C2139 C2123 1.429 1_565 S
C2139 C2135 1.429 . S
C2139 C2140 1.523 . S
C2140 C2124 1.368 . S
C2140 C2136 1.368 1_565 S
C2140 C2139 1.523 . S
H2141 C2116 0.950 . S
H2142 C2118 0.950 . S
H2143 C2119 0.949 . S
H2144 C2121 0.950 . S
H2145 C2123 0.950 . S
C2146 C2147 1.349 . S
C2146 C2148 1.327 . S
C2146 H2171 0.950 . S
C2147 C2146 1.349 . S
C2147 C2163 1.349 . S
C2148 C2146 1.327 . S
C2148 C2167 1.429 . S
C2148 H2172 0.950 . S
C2149 C2166 1.574 . S
C2149 C2168 1.368 . S
C2149 H2173 0.949 . S
H2150 C2154 0.949 . S
C2151 C2152 1.349 . S
C2151 C2153 1.327 . S
C2151 H2174 0.950 . S
C2152 C2151 1.349 . S
C2152 C2164 1.349 . S
C2153 C2151 1.327 . S
C2153 C2169 1.429 . S
C2153 H2175 0.950 . S
C2154 H2150 0.949 . S
C2154 C2162 1.574 . S
C2154 C2170 1.368 . S
H2155 C2163 0.950 . S
H2156 C2161 0.950 . S
H2157 C2162 0.949 . S
H2158 C2164 0.950 . S
H2159 C2165 0.950 . S
H2160 C2166 0.949 . S
C2161 H2156 0.950 . S
C2161 C2163 1.327 . S
C2161 C2167 1.429 . S
C2162 C2154 1.574 . S
C2162 H2157 0.949 . S
C2162 C2168 1.368 . S
C2163 C2147 1.349 . S
C2163 H2155 0.950 . S
C2163 C2161 1.327 . S
C2164 C2152 1.349 . S
C2164 H2158 0.950 . S
C2164 C2165 1.327 . S
C2165 H2159 0.950 . S
C2165 C2164 1.327 . S
C2165 C2169 1.429 . S
C2166 C2149 1.574 . S
C2166 H2160 0.949 . S
C2166 C2170 1.368 . S
C2167 C2148 1.429 . S
C2167 C2161 1.429 . S
C2167 C2168 1.523 . S
C2168 C2149 1.368 . S
C2168 C2162 1.368 . S
C2168 C2167 1.523 . S
C2169 C2153 1.429 . S
C2169 C2165 1.429 . S
C2169 C2170 1.523 . S
C2170 C2154 1.368 . S
C2170 C2166 1.368 . S
C2170 C2169 1.523 . S
H2171 C2146 0.950 . S
H2172 C2148 0.950 . S
H2173 C2149 0.949 . S
H2174 C2151 0.950 . S
H2175 C2153 0.950 . S
C2176 C2177 1.349 . S
C2176 C2178 1.327 . S
C2176 H2201 0.950 . S
C2177 C2176 1.349 . S
C2177 C2193 1.349 1_554 S
C2178 C2176 1.327 . S
C2178 C2197 1.471 . S
C2178 H2202 0.950 . S
C2179 C2196 1.574 . S
C2179 C2198 1.368 . S
C2179 H2203 0.949 . S
H2180 C2184 0.949 . S
C2181 C2182 1.349 . S
C2181 C2183 1.327 . S
C2181 H2204 0.950 . S
C2182 C2181 1.349 . S
C2182 C2194 1.349 . S
C2183 C2181 1.327 . S
C2183 C2199 1.429 . S
C2183 H2205 0.950 . S
C2184 H2180 0.949 . S
C2184 C2192 1.574 . S
C2184 C2200 1.368 1_554 S
H2185 C2193 0.950 . S
H2186 C2191 0.950 . S
H2187 C2192 0.949 . S
H2188 C2194 0.964 . S
H2189 C2195 0.950 1_554 S
H2190 C2196 0.949 . S
C2191 H2186 0.950 . S
C2191 C2193 1.327 . S
C2191 C2197 1.398 1_556 S
C2192 C2184 1.574 . S
C2192 H2187 0.949 . S
C2192 C2198 1.368 1_554 S
C2193 C2177 1.349 1_556 S
C2193 H2185 0.950 . S
C2193 C2191 1.327 . S
C2194 C2182 1.349 . S
C2194 H2188 0.964 . S
C2194 C2195 1.327 . S
C2195 H2189 0.950 1_556 S
C2195 C2194 1.327 . S
C2195 C2199 1.429 . S
C2196 C2179 1.574 . S
C2196 H2190 0.949 . S
C2196 C2200 1.368 . S
C2197 C2178 1.471 . S
C2197 C2191 1.398 1_554 S
C2197 C2198 1.513 1_554 S
C2198 C2179 1.368 . S
C2198 C2192 1.368 1_556 S
C2198 C2197 1.513 1_556 S
C2199 C2183 1.429 . S
C2199 C2195 1.429 . S
C2199 C2200 1.523 . S
C2200 C2184 1.368 1_556 S
C2200 C2196 1.368 . S
C2200 C2199 1.523 . S
H2201 C2176 0.950 . S
H2202 C2178 0.950 . S
H2203 C2179 0.949 . S
H2204 C2181 0.950 . S
H2205 C2183 0.950 . S
C2206 C2207 1.349 . S
C2206 C2208 1.327 . S
C2206 H2231 0.950 . S
C2207 C2206 1.349 . S
C2207 C2223 1.349 . S
C2208 C2206 1.327 . S
C2208 C2227 1.429 . S
C2208 H2232 0.950 . S
C2209 C2226 1.586 . S
C2209 C2228 1.315 1_556 S
C2209 H2233 0.988 . S
H2210 C2214 0.949 . S
C2211 C2212 1.349 1_556 S
C2211 C2213 1.327 . S
C2211 H2234 0.950 . S
C2212 C2211 1.349 1_554 S
C2212 C2224 1.349 . S
C2213 C2211 1.327 . S
C2213 C2229 1.429 1_556 S
C2213 H2235 0.950 . S
C2214 H2210 0.949 . S
C2214 C2222 1.574 . S
C2214 C2230 1.368 . S
H2215 C2223 0.950 1_556 S
H2216 C2221 0.899 1_556 S
H2217 C2222 0.949 . S
H2218 C2224 0.950 . S
H2219 C2225 0.950 . S
H2220 C2226 0.949 . S
C2221 H2216 0.899 1_554 S
C2221 C2223 1.340 . S
C2221 C2227 1.466 . S
C2222 C2214 1.574 . S
C2222 H2217 0.949 . S
C2222 C2228 1.368 . S
C2223 C2207 1.349 . S
C2223 H2215 0.950 1_554 S
C2223 C2221 1.340 . S
C2224 C2212 1.349 . S
C2224 H2218 0.950 . S
C2224 C2225 1.327 . S
C2225 H2219 0.950 . S
C2225 C2224 1.327 . S
C2225 C2229 1.429 . S
C2226 C2209 1.586 . S
C2226 H2220 0.949 . S
C2226 C2230 1.368 1_556 S
C2227 C2208 1.429 . S
C2227 C2221 1.466 . S
C2227 C2228 1.523 . S
C2228 C2209 1.315 1_554 S
C2228 C2222 1.368 . S
C2228 C2227 1.523 . S
C2229 C2213 1.429 1_554 S
C2229 C2225 1.429 . S
C2229 C2230 1.523 . S
C2230 C2214 1.368 . S
C2230 C2226 1.368 1_554 S
C2230 C2229 1.523 . S
H2231 C2206 0.950 . S
H2232 C2208 0.950 . S
H2233 C2209 0.988 . S
H2234 C2211 0.950 . S
H2235 C2213 0.950 . S
C2236 C2237 1.349 . S
C2236 C2238 1.327 . S
C2236 H2261 0.950 . S
C2237 C2236 1.349 . S
C2237 C2253 1.349 . S
C2238 C2236 1.327 . S
C2238 C2257 1.429 . S
C2238 H2262 0.950 . S
C2239 C2256 1.574 . S
C2239 C2258 1.368 . S
C2239 H2263 0.949 . S
H2240 C2244 0.949 . S
C2241 C2242 1.349 . S
C2241 C2243 1.327 . S
C2241 H2264 0.950 . S
C2242 C2241 1.349 . S
C2242 C2254 1.349 . S
C2243 C2241 1.327 . S
C2243 C2259 1.429 . S
C2243 H2265 0.950 . S
C2244 H2240 0.949 . S
C2244 C2252 1.574 . S
C2244 C2260 1.368 . S
H2245 C2253 0.950 . S
H2246 C2251 0.950 . S
H2247 C2252 0.949 . S
H2248 C2254 0.950 . S
H2249 C2255 0.950 . S
H2250 C2256 0.949 . S
C2251 H2246 0.950 . S
C2251 C2253 1.327 . S
C2251 C2257 1.429 . S
C2252 C2244 1.574 . S
C2252 H2247 0.949 . S
C2252 C2258 1.368 . S
C2253 C2237 1.349 . S
C2253 H2245 0.950 . S
C2253 C2251 1.327 . S
C2254 C2242 1.349 . S
C2254 H2248 0.950 . S
C2254 C2255 1.327 . S
C2255 H2249 0.950 . S
C2255 C2254 1.327 . S
C2255 C2259 1.429 . S
C2256 C2239 1.574 . S
C2256 H2250 0.949 . S
C2256 C2260 1.368 . S
C2257 C2238 1.429 . S
C2257 C2251 1.429 . S
C2257 C2258 1.523 . S
C2258 C2239 1.368 . S
C2258 C2252 1.368 . S
C2258 C2257 1.523 . S
C2259 C2243 1.429 . S
C2259 C2255 1.429 . S
C2259 C2260 1.523 . S
C2260 C2244 1.368 . S
C2260 C2256 1.368 . S
C2260 C2259 1.523 . S
H2261 C2236 0.950 . S
H2262 C2238 0.950 . S
H2263 C2239 0.949 . S
H2264 C2241 0.950 . S
H2265 C2243 0.950 . S
C2266 C2267 1.349 . S
C2266 C2268 1.327 . S
C2266 H2291 0.950 . S
C2267 C2266 1.349 . S
C2267 C2283 1.349 . S
C2268 C2266 1.327 . S
C2268 C2287 1.429 . S
C2268 H2292 0.950 . S
C2269 C2286 1.574 . S
C2269 C2288 1.368 . S
C2269 H2293 0.949 . S
H2270 C2274 0.949 . S
C2271 C2272 1.349 . S
C2271 C2273 1.327 . S
C2271 H2294 0.950 . S
C2272 C2271 1.349 . S
C2272 C2284 1.349 . S
C2273 C2271 1.327 . S
C2273 C2289 1.429 . S
C2273 H2295 0.950 . S
C2274 H2270 0.949 . S
C2274 C2282 1.574 . S
C2274 C2290 1.368 . S
H2275 C2283 0.950 . S
H2276 C2281 0.950 . S
H2277 C2282 0.949 . S
H2278 C2284 0.950 . S
H2279 C2285 0.950 . S
H2280 C2286 0.949 . S
C2281 H2276 0.950 . S
C2281 C2283 1.327 . S
C2281 C2287 1.429 . S
C2282 C2274 1.574 . S
C2282 H2277 0.949 . S
C2282 C2288 1.368 . S
C2283 C2267 1.349 . S
C2283 H2275 0.950 . S
C2283 C2281 1.327 . S
C2284 C2272 1.349 . S
C2284 H2278 0.950 . S
C2284 C2285 1.327 . S
C2285 H2279 0.950 . S
C2285 C2284 1.327 . S
C2285 C2289 1.429 . S
C2286 C2269 1.574 . S
C2286 H2280 0.949 . S
C2286 C2290 1.368 . S
C2287 C2268 1.429 . S
C2287 C2281 1.429 . S
C2287 C2288 1.523 . S
C2288 C2269 1.368 . S
C2288 C2282 1.368 . S
C2288 C2287 1.523 . S
C2289 C2273 1.429 . S
C2289 C2285 1.429 . S
C2289 C2290 1.523 . S
C2290 C2274 1.368 . S
C2290 C2286 1.368 . S
C2290 C2289 1.523 . S
H2291 C2266 0.950 . S
H2292 C2268 0.950 . S
H2293 C2269 0.949 . S
H2294 C2271 0.950 . S
H2295 C2273 0.950 . S
C2296 C2297 1.349 1_565 S
C2296 C2298 1.327 . S
C2296 H2321 0.958 . S
C2297 C2296 1.349 1_545 S
C2297 C2313 1.349 1_545 S
C2298 C2296 1.327 . S
C2298 C2317 1.429 . S
C2298 H2322 0.950 . S
C2299 C2316 1.574 . S
C2299 C2318 1.368 . S
C2299 H2323 0.949 . S
H2300 C2304 0.949 . S
C2301 C2302 1.349 . S
C2301 C2303 1.327 . S
C2301 H2324 0.950 . S
C2302 C2301 1.349 . S
C2302 C2314 1.349 . S
C2303 C2301 1.327 . S
C2303 C2319 1.429 . S
C2303 H2325 0.950 . S
C2304 H2300 0.949 . S
C2304 C2312 1.574 . S
C2304 C2320 1.368 . S
H2305 C2313 0.942 1_545 S
H2306 C2311 0.950 . S
H2307 C2312 0.949 . S
H2308 C2314 0.950 . S
H2309 C2315 0.950 . S
H2310 C2316 0.949 . S
C2311 H2306 0.950 . S
C2311 C2313 1.327 . S
C2311 C2317 1.429 . S
C2312 C2304 1.574 . S
C2312 H2307 0.949 . S
C2312 C2318 1.368 . S
C2313 C2297 1.349 1_565 S
C2313 H2305 0.942 1_565 S
C2313 C2311 1.327 . S
C2314 C2302 1.349 . S
C2314 H2308 0.950 . S
C2314 C2315 1.327 . S
C2315 H2309 0.950 . S
C2315 C2314 1.327 . S
C2315 C2319 1.429 . S
C2316 C2299 1.574 . S
C2316 H2310 0.949 . S
C2316 C2320 1.368 . S
C2317 C2298 1.429 . S
C2317 C2311 1.429 . S
C2317 C2318 1.523 . S
C2318 C2299 1.368 . S
C2318 C2312 1.368 . S
C2318 C2317 1.523 . S
C2319 C2303 1.429 . S
C2319 C2315 1.429 . S
C2319 C2320 1.523 . S
C2320 C2304 1.368 . S
C2320 C2316 1.368 . S
C2320 C2319 1.523 . S
H2321 C2296 0.958 . S
H2322 C2298 0.950 . S
H2323 C2299 0.949 . S
H2324 C2301 0.950 . S
H2325 C2303 0.950 . S
C2326 C2327 1.349 . S
C2326 C2328 1.327 . S
C2326 H2351 0.950 . S
C2327 C2326 1.349 . S
C2327 C2343 1.349 . S
C2328 C2326 1.327 . S
C2328 C2347 1.429 . S
C2328 H2352 0.950 . S
C2329 C2346 1.574 . S
C2329 C2348 1.368 . S
C2329 H2353 0.949 . S
H2330 C2334 0.949 . S
C2331 C2332 1.349 . S
C2331 C2333 1.327 . S
C2331 H2354 0.950 . S
C2332 C2331 1.349 . S
C2332 C2344 1.349 . S
C2333 C2331 1.327 . S
C2333 C2349 1.429 . S
C2333 H2355 0.950 . S
C2334 H2330 0.949 . S
C2334 C2342 1.574 . S
C2334 C2350 1.368 . S
H2335 C2343 0.950 . S
H2336 C2341 0.950 . S
H2337 C2342 0.949 . S
H2338 C2344 0.950 . S
H2339 C2345 0.950 . S
H2340 C2346 0.949 . S
C2341 H2336 0.950 . S
C2341 C2343 1.327 . S
C2341 C2347 1.429 . S
C2342 C2334 1.574 . S
C2342 H2337 0.949 . S
C2342 C2348 1.368 . S
C2343 C2327 1.349 . S
C2343 H2335 0.950 . S
C2343 C2341 1.327 . S
C2344 C2332 1.349 . S
C2344 H2338 0.950 . S
C2344 C2345 1.327 . S
C2345 H2339 0.950 . S
C2345 C2344 1.327 . S
C2345 C2349 1.429 . S
C2346 C2329 1.574 . S
C2346 H2340 0.949 . S
C2346 C2350 1.368 . S
C2347 C2328 1.429 . S
C2347 C2341 1.429 . S
C2347 C2348 1.523 . S
C2348 C2329 1.368 . S
C2348 C2342 1.368 . S
C2348 C2347 1.523 . S
C2349 C2333 1.429 . S
C2349 C2345 1.429 . S
C2349 C2350 1.523 . S
C2350 C2334 1.368 . S
C2350 C2346 1.368 . S
C2350 C2349 1.523 . S
H2351 C2326 0.950 . S
H2352 C2328 0.950 . S
H2353 C2329 0.949 . S
H2354 C2331 0.950 . S
H2355 C2333 0.950 . S
C2356 C2357 1.349 . S
C2356 C2358 1.327 . S
C2356 H2381 0.950 . S
C2357 C2356 1.349 . S
C2357 C2373 1.349 . S
C2358 C2356 1.327 . S
C2358 C2377 1.429 . S
C2358 H2382 0.950 . S
C2359 C2376 1.574 . S
C2359 C2378 1.368 . S
C2359 H2383 0.949 . S
H2360 C2364 0.949 . S
C2361 C2362 1.349 . S
C2361 C2363 1.327 . S
C2361 H2384 0.950 . S
C2362 C2361 1.349 . S
C2362 C2374 1.349 . S
C2363 C2361 1.327 . S
C2363 C2379 1.429 . S
C2363 H2385 0.950 . S
C2364 H2360 0.949 . S
C2364 C2372 1.574 . S
C2364 C2380 1.368 . S
H2365 C2373 0.950 . S
H2366 C2371 0.950 . S
H2367 C2372 0.949 . S
H2368 C2374 0.950 . S
H2369 C2375 0.950 . S
H2370 C2376 0.949 . S
C2371 H2366 0.950 . S
C2371 C2373 1.327 . S
C2371 C2377 1.429 . S
C2372 C2364 1.574 . S
C2372 H2367 0.949 . S
C2372 C2378 1.368 . S
C2373 C2357 1.349 . S
C2373 H2365 0.950 . S
C2373 C2371 1.327 . S
C2374 C2362 1.349 . S
C2374 H2368 0.950 . S
C2374 C2375 1.327 . S
C2375 H2369 0.950 . S
C2375 C2374 1.327 . S
C2375 C2379 1.429 . S
C2376 C2359 1.574 . S
C2376 H2370 0.949 . S
C2376 C2380 1.368 . S
C2377 C2358 1.429 . S
C2377 C2371 1.429 . S
C2377 C2378 1.523 . S
C2378 C2359 1.368 . S
C2378 C2372 1.368 . S
C2378 C2377 1.523 . S
C2379 C2363 1.429 . S
C2379 C2375 1.429 . S
C2379 C2380 1.523 . S
C2380 C2364 1.368 . S
C2380 C2376 1.368 . S
C2380 C2379 1.523 . S
H2381 C2356 0.950 . S
H2382 C2358 0.950 . S
H2383 C2359 0.949 . S
H2384 C2361 0.950 . S
H2385 C2363 0.950 . S
C2386 C2387 1.349 . S
C2386 C2388 1.327 . S
C2386 H2411 0.950 . S
C2387 C2386 1.349 . S
C2387 C2403 1.349 . S
C2388 C2386 1.327 . S
C2388 C2407 1.429 . S
C2388 H2412 0.950 . S
C2389 C2406 1.574 . S
C2389 C2408 1.368 . S
C2389 H2413 0.949 . S
H2390 C2394 0.949 . S
C2391 C2392 1.349 . S
C2391 C2393 1.327 . S
C2391 H2414 0.950 . S
C2392 C2391 1.349 . S
C2392 C2404 1.349 . S
C2393 C2391 1.327 . S
C2393 C2409 1.429 . S
C2393 H2415 0.950 . S
C2394 H2390 0.949 . S
C2394 C2402 1.574 . S
C2394 C2410 1.368 . S
H2395 C2403 0.950 . S
H2396 C2401 0.950 . S
H2397 C2402 0.949 . S
H2398 C2404 0.950 . S
H2399 C2405 0.950 . S
H2400 C2406 0.949 . S
C2401 H2396 0.950 . S
C2401 C2403 1.327 . S
C2401 C2407 1.429 . S
C2402 C2394 1.574 . S
C2402 H2397 0.949 . S
C2402 C2408 1.368 . S
C2403 C2387 1.349 . S
C2403 H2395 0.950 . S
C2403 C2401 1.327 . S
C2404 C2392 1.349 . S
C2404 H2398 0.950 . S
C2404 C2405 1.327 . S
C2405 H2399 0.950 . S
C2405 C2404 1.327 . S
C2405 C2409 1.429 . S
C2406 C2389 1.574 . S
C2406 H2400 0.949 . S
C2406 C2410 1.368 . S
C2407 C2388 1.429 . S
C2407 C2401 1.429 . S
C2407 C2408 1.523 . S
C2408 C2389 1.368 . S
C2408 C2402 1.368 . S
C2408 C2407 1.523 . S
C2409 C2393 1.429 . S
C2409 C2405 1.429 . S
C2409 C2410 1.523 . S
C2410 C2394 1.368 . S
C2410 C2406 1.368 . S
C2410 C2409 1.523 . S
H2411 C2386 0.950 . S
H2412 C2388 0.950 . S
H2413 C2389 0.949 . S
H2414 C2391 0.950 . S
H2415 C2393 0.950 . S
C2416 C2417 1.349 . S
C2416 C2418 1.327 . S
C2416 H2441 0.950 . S
C2417 C2416 1.349 . S
C2417 C2433 1.349 . S
C2418 C2416 1.327 . S
C2418 C2437 1.429 . S
C2418 H2442 0.950 . S
C2419 C2436 1.574 . S
C2419 C2438 1.368 . S
C2419 H2443 0.949 . S
H2420 C2424 0.949 . S
C2421 C2422 1.349 . S
C2421 C2423 1.327 . S
C2421 H2444 0.950 . S
C2422 C2421 1.349 . S
C2422 C2434 1.349 . S
C2423 C2421 1.327 . S
C2423 C2439 1.429 . S
C2423 H2445 0.950 . S
C2424 H2420 0.949 . S
C2424 C2432 1.574 . S
C2424 C2440 1.368 . S
H2425 C2433 0.950 . S
H2426 C2431 0.950 . S
H2427 C2432 0.949 . S
H2428 C2434 0.950 . S
H2429 C2435 0.950 . S
H2430 C2436 0.949 . S
C2431 H2426 0.950 . S
C2431 C2433 1.327 . S
C2431 C2437 1.429 . S
C2432 C2424 1.574 . S
C2432 H2427 0.949 . S
C2432 C2438 1.368 . S
C2433 C2417 1.349 . S
C2433 H2425 0.950 . S
C2433 C2431 1.327 . S
C2434 C2422 1.349 . S
C2434 H2428 0.950 . S
C2434 C2435 1.327 . S
C2435 H2429 0.950 . S
C2435 C2434 1.327 . S
C2435 C2439 1.429 . S
C2436 C2419 1.574 . S
C2436 H2430 0.949 . S
C2436 C2440 1.368 . S
C2437 C2418 1.429 . S
C2437 C2431 1.429 . S
C2437 C2438 1.523 . S
C2438 C2419 1.368 . S
C2438 C2432 1.368 . S
C2438 C2437 1.523 . S
C2439 C2423 1.429 . S
C2439 C2435 1.429 . S
C2439 C2440 1.523 . S
C2440 C2424 1.368 . S
C2440 C2436 1.368 . S
C2440 C2439 1.523 . S
H2441 C2416 0.950 . S
H2442 C2418 0.950 . S
H2443 C2419 0.949 . S
H2444 C2421 0.950 . S
H2445 C2423 0.950 . S
C2446 C2447 1.349 . S
C2446 C2448 1.327 . S
C2446 H2471 0.950 . S
C2447 C2446 1.349 . S
C2447 C2463 1.349 . S
C2448 C2446 1.327 . S
C2448 C2467 1.429 . S
C2448 H2472 0.950 . S
C2449 C2466 1.574 . S
C2449 C2468 1.368 . S
C2449 H2473 0.949 . S
H2450 C2454 0.949 . S
C2451 C2452 1.349 . S
C2451 C2453 1.327 . S
C2451 H2474 0.950 . S
C2452 C2451 1.349 . S
C2452 C2464 1.349 . S
C2453 C2451 1.327 . S
C2453 C2469 1.429 . S
C2453 H2475 0.950 . S
C2454 H2450 0.949 . S
C2454 C2462 1.574 . S
C2454 C2470 1.368 . S
H2455 C2463 0.950 . S
H2456 C2461 0.950 . S
H2457 C2462 0.949 . S
H2458 C2464 0.950 . S
H2459 C2465 0.950 . S
H2460 C2466 0.949 . S
C2461 H2456 0.950 . S
C2461 C2463 1.327 . S
C2461 C2467 1.429 . S
C2462 C2454 1.574 . S
C2462 H2457 0.949 . S
C2462 C2468 1.368 . S
C2463 C2447 1.349 . S
C2463 H2455 0.950 . S
C2463 C2461 1.327 . S
C2464 C2452 1.349 . S
C2464 H2458 0.950 . S
C2464 C2465 1.327 . S
C2465 H2459 0.950 . S
C2465 C2464 1.327 . S
C2465 C2469 1.429 . S
C2466 C2449 1.574 . S
C2466 H2460 0.949 . S
C2466 C2470 1.368 . S
C2467 C2448 1.429 . S
C2467 C2461 1.429 . S
C2467 C2468 1.523 . S
C2468 C2449 1.368 . S
C2468 C2462 1.368 . S
C2468 C2467 1.523 . S
C2469 C2453 1.429 . S
C2469 C2465 1.429 . S
C2469 C2470 1.523 . S
C2470 C2454 1.368 . S
C2470 C2466 1.368 . S
C2470 C2469 1.523 . S
H2471 C2446 0.950 . S
H2472 C2448 0.950 . S
H2473 C2449 0.949 . S
H2474 C2451 0.950 . S
H2475 C2453 0.950 . S
C2476 C2477 1.349 . S
C2476 C2478 1.327 . S
C2476 H2501 0.950 . S
C2477 C2476 1.349 . S
C2477 C2493 1.349 . S
C2478 C2476 1.327 . S
C2478 C2497 1.429 . S
C2478 H2502 0.950 . S
C2479 C2496 1.574 . S
C2479 C2498 1.368 . S
C2479 H2503 0.949 . S
H2480 C2484 0.949 . S
C2481 C2482 1.375 . S
C2481 C2483 1.327 . S
C2481 H2504 0.950 . S
C2482 C2481 1.375 . S
C2482 C2494 1.315 1_554 S
C2483 C2481 1.327 . S
C2483 C2499 1.429 1_554 S
C2483 H2505 0.950 . S
C2484 H2480 0.949 . S
C2484 C2492 1.574 . S
C2484 C2500 1.368 . S
H2485 C2493 0.950 . S
H2486 C2491 0.950 . S
H2487 C2492 0.949 . S
H2488 C2494 0.950 . S
H2489 C2495 0.950 . S
H2490 C2496 0.949 1_554 S
C2491 H2486 0.950 . S
C2491 C2493 1.327 . S
C2491 C2497 1.429 . S
C2492 C2484 1.574 . S
C2492 H2487 0.949 . S
C2492 C2498 1.368 . S
C2493 C2477 1.349 . S
C2493 H2485 0.950 . S
C2493 C2491 1.327 . S
C2494 C2482 1.315 1_556 S
C2494 H2488 0.950 . S
C2494 C2495 1.327 . S
C2495 H2489 0.950 . S
C2495 C2494 1.327 . S
C2495 C2499 1.429 . S
C2496 C2479 1.574 . S
C2496 H2490 0.949 1_556 S
C2496 C2500 1.368 . S
C2497 C2478 1.429 . S
C2497 C2491 1.429 . S
C2497 C2498 1.523 . S
C2498 C2479 1.368 . S
C2498 C2492 1.368 . S
C2498 C2497 1.523 . S
C2499 C2483 1.429 1_556 S
C2499 C2495 1.429 . S
C2499 C2500 1.523 . S
C2500 C2484 1.368 . S
C2500 C2496 1.368 . S
C2500 C2499 1.523 . S
H2501 C2476 0.950 . S
H2502 C2478 0.950 . S
H2503 C2479 0.949 . S
H2504 C2481 0.950 . S
H2505 C2483 0.950 . S
C2506 C2507 1.349 . S
C2506 C2508 1.327 1_455 S
C2506 H2531 0.950 . S
C2507 C2506 1.349 . S
C2507 C2523 1.349 . S
C2508 C2506 1.327 1_655 S
C2508 C2527 1.429 . S
C2508 H2532 0.950 . S
C2509 C2526 1.574 . S
C2509 C2528 1.368 . S
C2509 H2533 0.949 . S
H2510 C2514 0.949 . S
C2511 C2512 1.349 . S
C2511 C2513 1.327 . S
C2511 H2534 0.950 . S
C2512 C2511 1.349 . S
C2512 C2524 1.349 . S
C2513 C2511 1.327 . S
C2513 C2529 1.429 . S
C2513 H2535 0.950 . S
C2514 H2510 0.949 . S
C2514 C2522 1.574 . S
C2514 C2530 1.368 . S
H2515 C2523 0.950 . S
H2516 C2521 0.950 . S
H2517 C2522 0.949 . S
H2518 C2524 0.950 . S
H2519 C2525 0.950 . S
H2520 C2526 0.949 . S
C2521 H2516 0.950 . S
C2521 C2523 1.327 1_655 S
C2521 C2527 1.429 . S
C2522 C2514 1.574 . S
C2522 H2517 0.949 . S
C2522 C2528 1.368 . S
C2523 C2507 1.349 . S
C2523 H2515 0.950 . S
C2523 C2521 1.327 1_455 S
C2524 C2512 1.349 . S
C2524 H2518 0.950 . S
C2524 C2525 1.327 . S
C2525 H2519 0.950 . S
C2525 C2524 1.327 . S
C2525 C2529 1.429 . S
C2526 C2509 1.574 . S
C2526 H2520 0.949 . S
C2526 C2530 1.368 . S
C2527 C2508 1.429 . S
C2527 C2521 1.429 . S
C2527 C2528 1.523 . S
C2528 C2509 1.368 . S
C2528 C2522 1.368 . S
C2528 C2527 1.523 . S
C2529 C2513 1.429 . S
C2529 C2525 1.429 . S
C2529 C2530 1.523 . S
C2530 C2514 1.368 . S
C2530 C2526 1.368 . S
C2530 C2529 1.523 . S
H2531 C2506 0.950 . S
H2532 C2508 0.950 . S
H2533 C2509 0.949 . S
H2534 C2511 0.950 . S
H2535 C2513 0.950 . S
C2536 C2537 1.349 . S
C2536 C2538 1.327 . S
C2536 H2561 0.950 . S
C2537 C2536 1.349 . S
C2537 C2553 1.349 . S
C2538 C2536 1.327 . S
C2538 C2557 1.429 . S
C2538 H2562 0.950 . S
C2539 C2556 1.574 . S
C2539 C2558 1.368 . S
C2539 H2563 0.949 . S
H2540 C2544 0.949 . S
C2541 C2542 1.349 . S
C2541 C2543 1.327 . S
C2541 H2564 0.950 . S
C2542 C2541 1.349 . S
C2542 C2554 1.349 . S
C2543 C2541 1.327 . S
C2543 C2559 1.429 . S
C2543 H2565 0.950 . S
C2544 H2540 0.949 . S
C2544 C2552 1.574 . S
C2544 C2560 1.368 . S
H2545 C2553 0.950 . S
H2546 C2551 0.950 . S
H2547 C2552 0.949 . S
H2548 C2554 0.950 . S
H2549 C2555 0.950 . S
H2550 C2556 0.949 . S
C2551 H2546 0.950 . S
C2551 C2553 1.327 . S
C2551 C2557 1.429 . S
C2552 C2544 1.574 . S
C2552 H2547 0.949 . S
C2552 C2558 1.368 . S
C2553 C2537 1.349 . S
C2553 H2545 0.950 . S
C2553 C2551 1.327 . S
C2554 C2542 1.349 . S
C2554 H2548 0.950 . S
C2554 C2555 1.327 . S
C2555 H2549 0.950 . S
C2555 C2554 1.327 . S
C2555 C2559 1.429 . S
C2556 C2539 1.574 . S
C2556 H2550 0.949 . S
C2556 C2560 1.368 . S
C2557 C2538 1.429 . S
C2557 C2551 1.429 . S
C2557 C2558 1.523 . S
C2558 C2539 1.368 . S
C2558 C2552 1.368 . S
C2558 C2557 1.523 . S
C2559 C2543 1.429 . S
C2559 C2555 1.429 . S
C2559 C2560 1.523 . S
C2560 C2544 1.368 . S
C2560 C2556 1.368 . S
C2560 C2559 1.523 . S
H2561 C2536 0.950 . S
H2562 C2538 0.950 . S
H2563 C2539 0.949 . S
H2564 C2541 0.950 . S
H2565 C2543 0.950 . S
C2566 C2567 1.349 . S
C2566 C2568 1.327 . S
C2566 H2591 0.950 . S
C2567 C2566 1.349 . S
C2567 C2583 1.349 . S
C2568 C2566 1.327 . S
C2568 C2587 1.429 . S
C2568 H2592 0.950 . S
C2569 C2586 1.574 . S
C2569 C2588 1.368 . S
C2569 H2593 0.949 . S
H2570 C2574 0.949 . S
C2571 C2572 1.349 . S
C2571 C2573 1.327 . S
C2571 H2594 0.950 . S
C2572 C2571 1.349 . S
C2572 C2584 1.349 . S
C2573 C2571 1.327 . S
C2573 C2589 1.429 . S
C2573 H2595 0.950 . S
C2574 H2570 0.949 . S
C2574 C2582 1.574 . S
C2574 C2590 1.368 . S
H2575 C2583 0.950 . S
H2576 C2581 0.950 . S
H2577 C2582 0.949 . S
H2578 C2584 0.950 . S
H2579 C2585 0.950 . S
H2580 C2586 0.949 . S
C2581 H2576 0.950 . S
C2581 C2583 1.327 . S
C2581 C2587 1.429 . S
C2582 C2574 1.574 . S
C2582 H2577 0.949 . S
C2582 C2588 1.368 . S
C2583 C2567 1.349 . S
C2583 H2575 0.950 . S
C2583 C2581 1.327 . S
C2584 C2572 1.349 . S
C2584 H2578 0.950 . S
C2584 C2585 1.327 . S
C2585 H2579 0.950 . S
C2585 C2584 1.327 . S
C2585 C2589 1.429 . S
C2586 C2569 1.574 . S
C2586 H2580 0.949 . S
C2586 C2590 1.368 . S
C2587 C2568 1.429 . S
C2587 C2581 1.429 . S
C2587 C2588 1.523 1_455 S
C2588 C2569 1.368 . S
C2588 C2582 1.368 . S
C2588 C2587 1.523 1_655 S
C2589 C2573 1.429 . S
C2589 C2585 1.429 . S
C2589 C2590 1.523 . S
C2590 C2574 1.368 . S
C2590 C2586 1.368 . S
C2590 C2589 1.523 . S
H2591 C2566 0.950 . S
H2592 C2568 0.950 . S
H2593 C2569 0.949 . S
H2594 C2571 0.950 . S
H2595 C2573 0.950 . S
C2596 C2597 1.349 . S
C2596 C2598 1.319 1_655 S
C2596 H2621 0.950 . S
C2597 C2596 1.349 . S
C2597 C2613 1.349 . S
C2598 C2596 1.319 1_455 S
C2598 C2617 1.434 . S
C2598 H2622 0.953 . S
C2599 C2616 1.574 . S
C2599 C2618 1.368 . S
C2599 H2623 0.949 . S
H2600 C2604 0.949 . S
C2601 C2602 1.349 . S
C2601 C2603 1.327 . S
C2601 H2624 0.950 . S
C2602 C2601 1.349 . S
C2602 C2614 1.349 . S
C2603 C2601 1.327 . S
C2603 C2619 1.429 . S
C2603 H2625 0.950 . S
C2604 H2600 0.949 . S
C2604 C2612 1.574 . S
C2604 C2620 1.368 . S
H2605 C2613 0.950 . S
H2606 C2611 0.966 . S
H2607 C2612 0.949 . S
H2608 C2614 0.950 . S
H2609 C2615 0.950 . S
H2610 C2616 0.949 . S
C2611 H2606 0.966 . S
C2611 C2613 1.302 1_455 S
C2611 C2617 1.441 . S
C2612 C2604 1.574 . S
C2612 H2607 0.949 . S
C2612 C2618 1.368 . S
C2613 C2597 1.349 . S
C2613 H2605 0.950 . S
C2613 C2611 1.302 1_655 S
C2614 C2602 1.349 . S
C2614 H2608 0.950 . S
C2614 C2615 1.327 . S
C2615 H2609 0.950 . S
C2615 C2614 1.327 . S
C2615 C2619 1.429 . S
C2616 C2599 1.574 . S
C2616 H2610 0.949 . S
C2616 C2620 1.368 . S
C2617 C2598 1.434 . S
C2617 C2611 1.441 . S
C2617 C2618 1.523 . S
C2618 C2599 1.368 . S
C2618 C2612 1.368 . S
C2618 C2617 1.523 . S
C2619 C2603 1.429 . S
C2619 C2615 1.429 . S
C2619 C2620 1.523 . S
C2620 C2604 1.368 . S
C2620 C2616 1.368 . S
C2620 C2619 1.523 . S
H2621 C2596 0.950 . S
H2622 C2598 0.953 . S
H2623 C2599 0.949 . S
H2624 C2601 0.950 . S
H2625 C2603 0.950 . S
C2626 C2627 1.349 . S
C2626 C2628 1.327 . S
C2626 H2651 0.950 . S
C2627 C2626 1.349 . S
C2627 C2643 1.349 . S
C2628 C2626 1.327 . S
C2628 C2647 1.429 . S
C2628 H2652 0.950 . S
C2629 C2646 1.574 . S
C2629 C2648 1.368 . S
C2629 H2653 0.949 . S
H2630 C2634 0.949 . S
C2631 C2632 1.349 . S
C2631 C2633 1.327 . S
C2631 H2654 0.950 . S
C2632 C2631 1.349 . S
C2632 C2644 1.349 . S
C2633 C2631 1.327 . S
C2633 C2649 1.429 . S
C2633 H2655 0.950 . S
C2634 H2630 0.949 . S
C2634 C2642 1.574 . S
C2634 C2650 1.368 . S
H2635 C2643 0.950 . S
H2636 C2641 0.950 . S
H2637 C2642 0.949 . S
H2638 C2644 0.950 . S
H2639 C2645 0.950 . S
H2640 C2646 0.949 . S
C2641 H2636 0.950 . S
C2641 C2643 1.327 . S
C2641 C2647 1.429 . S
C2642 C2634 1.574 . S
C2642 H2637 0.949 . S
C2642 C2648 1.368 . S
C2643 C2627 1.349 . S
C2643 H2635 0.950 . S
C2643 C2641 1.327 . S
C2644 C2632 1.349 . S
C2644 H2638 0.950 . S
C2644 C2645 1.327 . S
C2645 H2639 0.950 . S
C2645 C2644 1.327 . S
C2645 C2649 1.429 . S
C2646 C2629 1.574 . S
C2646 H2640 0.949 . S
C2646 C2650 1.368 . S
C2647 C2628 1.429 . S
C2647 C2641 1.429 . S
C2647 C2648 1.523 . S
C2648 C2629 1.368 . S
C2648 C2642 1.368 . S
C2648 C2647 1.523 . S
C2649 C2633 1.429 . S
C2649 C2645 1.429 . S
C2649 C2650 1.523 . S
C2650 C2634 1.368 . S
C2650 C2646 1.368 . S
C2650 C2649 1.523 . S
H2651 C2626 0.950 . S
H2652 C2628 0.950 . S
H2653 C2629 0.949 . S
H2654 C2631 0.950 . S
H2655 C2633 0.950 . S
C2656 C2657 1.349 . S
C2656 C2658 1.327 . S
C2656 H2681 0.950 . S
C2657 C2656 1.349 . S
C2657 C2673 1.349 . S
C2658 C2656 1.327 . S
C2658 C2677 1.429 . S
C2658 H2682 0.950 . S
C2659 C2676 1.574 . S
C2659 C2678 1.368 . S
C2659 H2683 0.949 . S
H2660 C2664 0.949 . S
C2661 C2662 1.349 . S
C2661 C2663 1.327 . S
C2661 H2684 0.950 . S
C2662 C2661 1.349 . S
C2662 C2674 1.349 . S
C2663 C2661 1.327 . S
C2663 C2679 1.429 . S
C2663 H2685 0.950 . S
C2664 H2660 0.949 . S
C2664 C2672 1.574 . S
C2664 C2680 1.368 . S
H2665 C2673 0.950 . S
H2666 C2671 0.950 . S
H2667 C2672 0.949 . S
H2668 C2674 0.950 . S
H2669 C2675 0.950 . S
H2670 C2676 0.949 . S
C2671 H2666 0.950 . S
C2671 C2673 1.327 . S
C2671 C2677 1.429 . S
C2672 C2664 1.574 . S
C2672 H2667 0.949 . S
C2672 C2678 1.368 . S
C2673 C2657 1.349 . S
C2673 H2665 0.950 . S
C2673 C2671 1.327 . S
C2674 C2662 1.349 . S
C2674 H2668 0.950 . S
C2674 C2675 1.327 . S
C2675 H2669 0.950 . S
C2675 C2674 1.327 . S
C2675 C2679 1.429 . S
C2676 C2659 1.574 . S
C2676 H2670 0.949 . S
C2676 C2680 1.368 . S
C2677 C2658 1.429 . S
C2677 C2671 1.429 . S
C2677 C2678 1.523 . S
C2678 C2659 1.368 . S
C2678 C2672 1.368 . S
C2678 C2677 1.523 . S
C2679 C2663 1.429 . S
C2679 C2675 1.429 . S
C2679 C2680 1.523 . S
C2680 C2664 1.368 . S
C2680 C2676 1.368 . S
C2680 C2679 1.523 . S
H2681 C2656 0.950 . S
H2682 C2658 0.950 . S
H2683 C2659 0.949 . S
H2684 C2661 0.950 . S
H2685 C2663 0.950 . S
C2686 C2687 1.349 . S
C2686 C2688 1.327 . S
C2686 H2711 0.950 . S
C2687 C2686 1.349 . S
C2687 C2703 1.349 . S
C2688 C2686 1.327 . S
C2688 C2707 1.429 . S
C2688 H2712 0.950 . S
C2689 C2706 1.574 . S
C2689 C2708 1.368 . S
C2689 H2713 0.949 . S
H2690 C2694 0.949 . S
C2691 C2692 1.349 . S
C2691 C2693 1.327 . S
C2691 H2714 0.950 . S
C2692 C2691 1.349 . S
C2692 C2704 1.349 . S
C2693 C2691 1.327 . S
C2693 C2709 1.429 . S
C2693 H2715 0.950 . S
C2694 H2690 0.949 . S
C2694 C2702 1.574 . S
C2694 C2710 1.368 . S
H2695 C2703 0.950 . S
H2696 C2701 0.950 . S
H2697 C2702 0.949 . S
H2698 C2704 0.950 . S
H2699 C2705 0.950 . S
H2700 C2706 0.949 . S
C2701 H2696 0.950 . S
C2701 C2703 1.327 . S
C2701 C2707 1.429 . S
C2702 C2694 1.574 . S
C2702 H2697 0.949 . S
C2702 C2708 1.368 . S
C2703 C2687 1.349 . S
C2703 H2695 0.950 . S
C2703 C2701 1.327 . S
C2704 C2692 1.349 . S
C2704 H2698 0.950 . S
C2704 C2705 1.327 . S
C2705 H2699 0.950 . S
C2705 C2704 1.327 . S
C2705 C2709 1.429 . S
C2706 C2689 1.574 . S
C2706 H2700 0.949 . S
C2706 C2710 1.368 . S
C2707 C2688 1.429 . S
C2707 C2701 1.429 . S
C2707 C2708 1.523 . S
C2708 C2689 1.368 . S
C2708 C2702 1.368 . S
C2708 C2707 1.523 . S
C2709 C2693 1.429 . S
C2709 C2705 1.429 . S
C2709 C2710 1.523 . S
C2710 C2694 1.368 . S
C2710 C2706 1.368 . S
C2710 C2709 1.523 . S
H2711 C2686 0.950 . S
H2712 C2688 0.950 . S
H2713 C2689 0.949 . S
H2714 C2691 0.950 . S
H2715 C2693 0.950 . S
C2716 C2717 1.349 . S
C2716 C2718 1.327 . S
C2716 H2741 0.950 . S
C2717 C2716 1.349 . S
C2717 C2733 1.349 . S
C2718 C2716 1.327 . S
C2718 C2737 1.429 . S
C2718 H2742 0.950 . S
C2719 C2736 1.574 . S
C2719 C2738 1.368 . S
C2719 H2743 0.949 . S
H2720 C2724 0.949 . S
C2721 C2722 1.349 . S
C2721 C2723 1.327 . S
C2721 H2744 0.950 . S
C2722 C2721 1.349 . S
C2722 C2734 1.349 . S
C2723 C2721 1.327 . S
C2723 C2739 1.429 . S
C2723 H2745 0.950 . S
C2724 H2720 0.949 . S
C2724 C2732 1.574 . S
C2724 C2740 1.368 . S
H2725 C2733 0.950 . S
H2726 C2731 0.950 . S
H2727 C2732 0.949 . S
H2728 C2734 0.950 . S
H2729 C2735 0.950 . S
H2730 C2736 0.949 . S
C2731 H2726 0.950 . S
C2731 C2733 1.327 . S
C2731 C2737 1.429 . S
C2732 C2724 1.574 . S
C2732 H2727 0.949 . S
C2732 C2738 1.368 . S
C2733 C2717 1.349 . S
C2733 H2725 0.950 . S
C2733 C2731 1.327 . S
C2734 C2722 1.349 . S
C2734 H2728 0.950 . S
C2734 C2735 1.327 . S
C2735 H2729 0.950 . S
C2735 C2734 1.327 . S
C2735 C2739 1.429 . S
C2736 C2719 1.574 . S
C2736 H2730 0.949 . S
C2736 C2740 1.368 . S
C2737 C2718 1.429 . S
C2737 C2731 1.429 . S
C2737 C2738 1.523 . S
C2738 C2719 1.368 . S
C2738 C2732 1.368 . S
C2738 C2737 1.523 . S
C2739 C2723 1.429 . S
C2739 C2735 1.429 . S
C2739 C2740 1.523 . S
C2740 C2724 1.368 . S
C2740 C2736 1.368 . S
C2740 C2739 1.523 . S
H2741 C2716 0.950 . S
H2742 C2718 0.950 . S
H2743 C2719 0.949 . S
H2744 C2721 0.950 . S
H2745 C2723 0.950 . S
C2746 C2747 1.349 . S
C2746 C2748 1.327 . S
C2746 H2771 0.950 . S
C2747 C2746 1.349 . S
C2747 C2763 1.349 . S
C2748 C2746 1.327 . S
C2748 C2767 1.429 . S
C2748 H2772 0.950 . S
C2749 C2766 1.574 . S
C2749 C2768 1.368 . S
C2749 H2773 0.949 . S
H2750 C2754 0.949 . S
C2751 C2752 1.349 . S
C2751 C2753 1.327 . S
C2751 H2774 0.950 . S
C2752 C2751 1.349 . S
C2752 C2764 1.349 . S
C2753 C2751 1.327 . S
C2753 C2769 1.429 . S
C2753 H2775 0.950 . S
C2754 H2750 0.949 . S
C2754 C2762 1.574 . S
C2754 C2770 1.368 . S
H2755 C2763 0.950 . S
H2756 C2761 0.950 . S
H2757 C2762 0.949 . S
H2758 C2764 0.950 . S
H2759 C2765 0.950 . S
H2760 C2766 0.949 . S
C2761 H2756 0.950 . S
C2761 C2763 1.327 . S
C2761 C2767 1.429 . S
C2762 C2754 1.574 . S
C2762 H2757 0.949 . S
C2762 C2768 1.368 . S
C2763 C2747 1.349 . S
C2763 H2755 0.950 . S
C2763 C2761 1.327 . S
C2764 C2752 1.349 . S
C2764 H2758 0.950 . S
C2764 C2765 1.327 . S
C2765 H2759 0.950 . S
C2765 C2764 1.327 . S
C2765 C2769 1.429 . S
C2766 C2749 1.574 . S
C2766 H2760 0.949 . S
C2766 C2770 1.368 . S
C2767 C2748 1.429 . S
C2767 C2761 1.429 . S
C2767 C2768 1.523 . S
C2768 C2749 1.368 . S
C2768 C2762 1.368 . S
C2768 C2767 1.523 . S
C2769 C2753 1.429 . S
C2769 C2765 1.429 . S
C2769 C2770 1.523 . S
C2770 C2754 1.368 . S
C2770 C2766 1.368 . S
C2770 C2769 1.523 . S
H2771 C2746 0.950 . S
H2772 C2748 0.950 . S
H2773 C2749 0.949 . S
H2774 C2751 0.950 . S
H2775 C2753 0.950 . S
C2776 C2777 1.349 . S
C2776 C2778 1.327 . S
C2776 H2801 0.950 . S
C2777 C2776 1.349 . S
C2777 C2793 1.349 . S
C2778 C2776 1.327 . S
C2778 C2797 1.429 . S
C2778 H2802 0.950 . S
C2779 C2796 1.574 . S
C2779 C2798 1.368 . S
C2779 H2803 0.949 . S
H2780 C2784 0.949 . S
C2781 C2782 1.349 . S
C2781 C2783 1.327 . S
C2781 H2804 0.950 . S
C2782 C2781 1.349 . S
C2782 C2794 1.349 . S
C2783 C2781 1.327 . S
C2783 C2799 1.429 . S
C2783 H2805 0.950 . S
C2784 H2780 0.949 . S
C2784 C2792 1.574 . S
C2784 C2800 1.368 . S
H2785 C2793 0.950 . S
H2786 C2791 0.950 . S
H2787 C2792 0.949 . S
H2788 C2794 0.950 . S
H2789 C2795 0.950 . S
H2790 C2796 0.949 . S
C2791 H2786 0.950 . S
C2791 C2793 1.327 . S
C2791 C2797 1.429 . S
C2792 C2784 1.574 . S
C2792 H2787 0.949 . S
C2792 C2798 1.368 . S
C2793 C2777 1.349 . S
C2793 H2785 0.950 . S
C2793 C2791 1.327 . S
C2794 C2782 1.349 . S
C2794 H2788 0.950 . S
C2794 C2795 1.327 . S
C2795 H2789 0.950 . S
C2795 C2794 1.327 . S
C2795 C2799 1.429 . S
C2796 C2779 1.574 . S
C2796 H2790 0.949 . S
C2796 C2800 1.368 . S
C2797 C2778 1.429 . S
C2797 C2791 1.429 . S
C2797 C2798 1.523 . S
C2798 C2779 1.368 . S
C2798 C2792 1.368 . S
C2798 C2797 1.523 . S
C2799 C2783 1.429 . S
C2799 C2795 1.429 . S
C2799 C2800 1.523 . S
C2800 C2784 1.368 . S
C2800 C2796 1.368 . S
C2800 C2799 1.523 . S
H2801 C2776 0.950 . S
H2802 C2778 0.950 . S
H2803 C2779 0.949 . S
H2804 C2781 0.950 . S
H2805 C2783 0.950 . S
C2806 C2807 1.349 . S
C2806 C2808 1.327 . S
C2806 H2831 0.950 . S
C2807 C2806 1.349 . S
C2807 C2823 1.349 . S
C2808 C2806 1.327 . S
C2808 C2827 1.429 . S
C2808 H2832 0.950 . S
C2809 C2826 1.574 . S
C2809 C2828 1.368 . S
C2809 H2833 0.949 . S
H2810 C2814 0.949 . S
C2811 C2812 1.349 . S
C2811 C2813 1.327 . S
C2811 H2834 0.950 . S
C2812 C2811 1.349 . S
C2812 C2824 1.349 . S
C2813 C2811 1.327 . S
C2813 C2829 1.429 . S
C2813 H2835 0.950 . S
C2814 H2810 0.949 . S
C2814 C2822 1.574 . S
C2814 C2830 1.368 . S
H2815 C2823 0.950 . S
H2816 C2821 0.950 . S
H2817 C2822 0.949 . S
H2818 C2824 0.950 . S
H2819 C2825 0.950 . S
H2820 C2826 0.949 . S
C2821 H2816 0.950 . S
C2821 C2823 1.327 . S
C2821 C2827 1.429 . S
C2822 C2814 1.574 . S
C2822 H2817 0.949 . S
C2822 C2828 1.368 . S
C2823 C2807 1.349 . S
C2823 H2815 0.950 . S
C2823 C2821 1.327 . S
C2824 C2812 1.349 . S
C2824 H2818 0.950 . S
C2824 C2825 1.327 . S
C2825 H2819 0.950 . S
C2825 C2824 1.327 . S
C2825 C2829 1.429 . S
C2826 C2809 1.574 . S
C2826 H2820 0.949 . S
C2826 C2830 1.368 . S
C2827 C2808 1.429 . S
C2827 C2821 1.429 . S
C2827 C2828 1.523 . S
C2828 C2809 1.368 . S
C2828 C2822 1.368 . S
C2828 C2827 1.523 . S
C2829 C2813 1.429 . S
C2829 C2825 1.429 . S
C2829 C2830 1.523 . S
C2830 C2814 1.368 . S
C2830 C2826 1.368 . S
C2830 C2829 1.523 . S
H2831 C2806 0.950 . S
H2832 C2808 0.950 . S
H2833 C2809 0.949 . S
H2834 C2811 0.950 . S
H2835 C2813 0.950 . S
C2836 C2837 1.349 . S
C2836 C2838 1.327 . S
C2836 H2861 0.950 . S
C2837 C2836 1.349 . S
C2837 C2853 1.349 . S
C2838 C2836 1.327 . S
C2838 C2857 1.429 . S
C2838 H2862 0.950 . S
C2839 C2856 1.574 . S
C2839 C2858 1.368 . S
C2839 H2863 0.949 . S
H2840 C2844 0.949 . S
C2841 C2842 1.349 . S
C2841 C2843 1.327 . S
C2841 H2864 0.950 . S
C2842 C2841 1.349 . S
C2842 C2854 1.349 . S
C2843 C2841 1.327 . S
C2843 C2859 1.429 . S
C2843 H2865 0.950 . S
C2844 H2840 0.949 . S
C2844 C2852 1.574 . S
C2844 C2860 1.368 . S
H2845 C2853 0.950 . S
H2846 C2851 0.950 . S
H2847 C2852 0.949 . S
H2848 C2854 0.950 . S
H2849 C2855 0.950 . S
H2850 C2856 0.949 . S
C2851 H2846 0.950 . S
C2851 C2853 1.327 . S
C2851 C2857 1.429 . S
C2852 C2844 1.574 . S
C2852 H2847 0.949 . S
C2852 C2858 1.368 . S
C2853 C2837 1.349 . S
C2853 H2845 0.950 . S
C2853 C2851 1.327 . S
C2854 C2842 1.349 . S
C2854 H2848 0.950 . S
C2854 C2855 1.327 . S
C2855 H2849 0.950 . S
C2855 C2854 1.327 . S
C2855 C2859 1.429 . S
C2856 C2839 1.574 . S
C2856 H2850 0.949 . S
C2856 C2860 1.368 . S
C2857 C2838 1.429 . S
C2857 C2851 1.429 . S
C2857 C2858 1.523 . S
C2858 C2839 1.368 . S
C2858 C2852 1.368 . S
C2858 C2857 1.523 . S
C2859 C2843 1.429 . S
C2859 C2855 1.429 . S
C2859 C2860 1.523 . S
C2860 C2844 1.368 . S
C2860 C2856 1.368 . S
C2860 C2859 1.523 . S
H2861 C2836 0.950 . S
H2862 C2838 0.950 . S
H2863 C2839 0.949 . S
H2864 C2841 0.950 . S
H2865 C2843 0.950 . S
C2866 C2867 1.349 . S
C2866 C2868 1.327 . S
C2866 H2891 0.950 . S
C2867 C2866 1.349 . S
C2867 C2883 1.349 . S
C2868 C2866 1.327 . S
C2868 C2887 1.429 . S
C2868 H2892 0.950 . S
C2869 C2886 1.574 . S
C2869 C2888 1.368 . S
C2869 H2893 0.949 . S
H2870 C2874 0.949 . S
C2871 C2872 1.349 . S
C2871 C2873 1.327 . S
C2871 H2894 0.950 . S
C2872 C2871 1.349 . S
C2872 C2884 1.349 . S
C2873 C2871 1.327 . S
C2873 C2889 1.429 . S
C2873 H2895 0.950 . S
C2874 H2870 0.949 . S
C2874 C2882 1.574 . S
C2874 C2890 1.368 . S
H2875 C2883 0.950 . S
H2876 C2881 0.950 . S
H2877 C2882 0.949 . S
H2878 C2884 0.950 . S
H2879 C2885 0.950 . S
H2880 C2886 0.949 . S
C2881 H2876 0.950 . S
C2881 C2883 1.327 . S
C2881 C2887 1.429 . S
C2882 C2874 1.574 . S
C2882 H2877 0.949 . S
C2882 C2888 1.368 . S
C2883 C2867 1.349 . S
C2883 H2875 0.950 . S
C2883 C2881 1.327 . S
C2884 C2872 1.349 . S
C2884 H2878 0.950 . S
C2884 C2885 1.327 . S
C2885 H2879 0.950 . S
C2885 C2884 1.327 . S
C2885 C2889 1.429 . S
C2886 C2869 1.574 . S
C2886 H2880 0.949 . S
C2886 C2890 1.368 . S
C2887 C2868 1.429 . S
C2887 C2881 1.429 . S
C2887 C2888 1.523 . S
C2888 C2869 1.368 . S
C2888 C2882 1.368 . S
C2888 C2887 1.523 . S
C2889 C2873 1.429 . S
C2889 C2885 1.429 . S
C2889 C2890 1.523 . S
C2890 C2874 1.368 . S
C2890 C2886 1.368 . S
C2890 C2889 1.523 . S
H2891 C2866 0.950 . S
H2892 C2868 0.950 . S
H2893 C2869 0.949 . S
H2894 C2871 0.950 . S
H2895 C2873 0.950 . S
C2896 C2897 1.349 . S
C2896 C2898 1.327 . S
C2896 H2921 0.950 . S
C2897 C2896 1.349 . S
C2897 C2913 1.349 . S
C2898 C2896 1.327 . S
C2898 C2917 1.429 . S
C2898 H2922 0.950 . S
C2899 C2916 1.574 . S
C2899 C2918 1.368 . S
C2899 H2923 0.949 . S
H2900 C2904 0.949 . S
C2901 C2902 1.349 . S
C2901 C2903 1.327 . S
C2901 H2924 0.950 . S
C2902 C2901 1.349 . S
C2902 C2914 1.349 . S
C2903 C2901 1.327 . S
C2903 C2919 1.429 . S
C2903 H2925 0.950 . S
C2904 H2900 0.949 . S
C2904 C2912 1.574 . S
C2904 C2920 1.368 . S
H2905 C2913 0.950 . S
H2906 C2911 0.950 . S
H2907 C2912 0.949 . S
H2908 C2914 0.950 . S
H2909 C2915 0.950 . S
H2910 C2916 0.949 . S
C2911 H2906 0.950 . S
C2911 C2913 1.327 . S
C2911 C2917 1.429 . S
C2912 C2904 1.574 . S
C2912 H2907 0.949 . S
C2912 C2918 1.368 . S
C2913 C2897 1.349 . S
C2913 H2905 0.950 . S
C2913 C2911 1.327 . S
C2914 C2902 1.349 . S
C2914 H2908 0.950 . S
C2914 C2915 1.327 . S
C2915 H2909 0.950 . S
C2915 C2914 1.327 . S
C2915 C2919 1.429 . S
C2916 C2899 1.574 . S
C2916 H2910 0.949 . S
C2916 C2920 1.368 . S
C2917 C2898 1.429 . S
C2917 C2911 1.429 . S
C2917 C2918 1.523 . S
C2918 C2899 1.368 . S
C2918 C2912 1.368 . S
C2918 C2917 1.523 . S
C2919 C2903 1.429 . S
C2919 C2915 1.429 . S
C2919 C2920 1.523 . S
C2920 C2904 1.368 . S
C2920 C2916 1.368 . S
C2920 C2919 1.523 . S
H2921 C2896 0.950 . S
H2922 C2898 0.950 . S
H2923 C2899 0.949 . S
H2924 C2901 0.950 . S
H2925 C2903 0.950 . S
C2926 C2927 1.349 . S
C2926 C2928 1.327 . S
C2926 H2951 0.950 . S
C2927 C2926 1.349 . S
C2927 C2943 1.349 . S
C2928 C2926 1.327 . S
C2928 C2947 1.429 . S
C2928 H2952 0.950 . S
C2929 C2946 1.574 . S
C2929 C2948 1.368 . S
C2929 H2953 0.949 . S
H2930 C2934 0.949 . S
C2931 C2932 1.349 . S
C2931 C2933 1.327 . S
C2931 H2954 0.950 . S
C2932 C2931 1.349 . S
C2932 C2944 1.349 . S
C2933 C2931 1.327 . S
C2933 C2949 1.429 . S
C2933 H2955 0.950 . S
C2934 H2930 0.949 . S
C2934 C2942 1.574 . S
C2934 C2950 1.368 . S
H2935 C2943 0.950 . S
H2936 C2941 0.950 . S
H2937 C2942 0.949 . S
H2938 C2944 0.950 . S
H2939 C2945 0.950 . S
H2940 C2946 0.949 . S
C2941 H2936 0.950 . S
C2941 C2943 1.327 . S
C2941 C2947 1.429 . S
C2942 C2934 1.574 . S
C2942 H2937 0.949 . S
C2942 C2948 1.368 . S
C2943 C2927 1.349 . S
C2943 H2935 0.950 . S
C2943 C2941 1.327 . S
C2944 C2932 1.349 . S
C2944 H2938 0.950 . S
C2944 C2945 1.327 . S
C2945 H2939 0.950 . S
C2945 C2944 1.327 . S
C2945 C2949 1.429 . S
C2946 C2929 1.574 . S
C2946 H2940 0.949 . S
C2946 C2950 1.368 . S
C2947 C2928 1.429 . S
C2947 C2941 1.429 . S
C2947 C2948 1.523 . S
C2948 C2929 1.368 . S
C2948 C2942 1.368 . S
C2948 C2947 1.523 . S
C2949 C2933 1.429 . S
C2949 C2945 1.429 . S
C2949 C2950 1.523 . S
C2950 C2934 1.368 . S
C2950 C2946 1.368 . S
C2950 C2949 1.523 . S
H2951 C2926 0.950 . S
H2952 C2928 0.950 . S
H2953 C2929 0.949 . S
H2954 C2931 0.950 . S
H2955 C2933 0.950 . S
C2956 C2957 1.349 . S
C2956 C2958 1.327 . S
C2956 H2981 0.950 . S
C2957 C2956 1.349 . S
C2957 C2973 1.349 . S
C2958 C2956 1.327 . S
C2958 C2977 1.429 . S
C2958 H2982 0.950 . S
C2959 C2976 1.574 . S
C2959 C2978 1.368 . S
C2959 H2983 0.949 . S
H2960 C2964 0.949 . S
C2961 C2962 1.349 . S
C2961 C2963 1.327 . S
C2961 H2984 0.950 . S
C2962 C2961 1.349 . S
C2962 C2974 1.349 . S
C2963 C2961 1.327 . S
C2963 C2979 1.429 . S
C2963 H2985 0.950 . S
C2964 H2960 0.949 . S
C2964 C2972 1.574 . S
C2964 C2980 1.368 . S
H2965 C2973 0.950 . S
H2966 C2971 0.950 . S
H2967 C2972 0.949 . S
H2968 C2974 0.950 . S
H2969 C2975 0.950 . S
H2970 C2976 0.949 . S
C2971 H2966 0.950 . S
C2971 C2973 1.327 . S
C2971 C2977 1.429 . S
C2972 C2964 1.574 . S
C2972 H2967 0.949 . S
C2972 C2978 1.368 . S
C2973 C2957 1.349 . S
C2973 H2965 0.950 . S
C2973 C2971 1.327 . S
C2974 C2962 1.349 . S
C2974 H2968 0.950 . S
C2974 C2975 1.327 . S
C2975 H2969 0.950 . S
C2975 C2974 1.327 . S
C2975 C2979 1.429 . S
C2976 C2959 1.574 . S
C2976 H2970 0.949 . S
C2976 C2980 1.368 . S
C2977 C2958 1.429 . S
C2977 C2971 1.429 . S
C2977 C2978 1.523 . S
C2978 C2959 1.368 . S
C2978 C2972 1.368 . S
C2978 C2977 1.523 . S
C2979 C2963 1.429 . S
C2979 C2975 1.429 . S
C2979 C2980 1.523 . S
C2980 C2964 1.368 . S
C2980 C2976 1.368 . S
C2980 C2979 1.523 . S
H2981 C2956 0.950 . S
H2982 C2958 0.950 . S
H2983 C2959 0.949 . S
H2984 C2961 0.950 . S
H2985 C2963 0.950 . S
C2986 C2987 1.349 1_556 S
C2986 C2988 1.327 . S
C2986 H3011 0.950 . S
C2987 C2986 1.349 1_554 S
C2987 C3003 1.349 . S
C2988 C2986 1.327 . S
C2988 C3007 1.429 1_556 S
C2988 H3012 0.950 . S
C2989 C3006 1.574 . S
C2989 C3008 1.368 . S
C2989 H3013 0.949 . S
H2990 C2994 0.949 . S
C2991 C2992 1.349 . S
C2991 C2993 1.327 1_545 S
C2991 H3014 0.950 . S
C2992 C2991 1.349 . S
C2992 C3004 1.349 1_554 S
C2993 C2991 1.327 1_565 S
C2993 C3009 1.429 . S
C2993 H3015 0.950 . S
C2994 H2990 0.949 . S
C2994 C3002 1.574 . S
C2994 C3010 1.368 1_556 S
H2995 C3003 0.950 . S
H2996 C3001 0.950 . S
H2997 C3002 0.949 . S
H2998 C3004 0.950 . S
H2999 C3005 0.950 . S
H3000 C3006 0.949 . S
C3001 H2996 0.950 . S
C3001 C3003 1.327 . S
C3001 C3007 1.429 . S
C3002 C2994 1.574 . S
C3002 H2997 0.949 . S
C3002 C3008 1.368 1_556 S
C3003 C2987 1.349 . S
C3003 H2995 0.950 . S
C3003 C3001 1.327 . S
C3004 C2992 1.349 1_556 S
C3004 H2998 0.950 . S
C3004 C3005 1.327 . S
C3005 H2999 0.950 . S
C3005 C3004 1.327 . S
C3005 C3009 1.429 1_546 S
C3006 C2989 1.574 . S
C3006 H3000 0.949 . S
C3006 C3010 1.368 . S
C3007 C2988 1.429 1_554 S
C3007 C3001 1.429 . S
C3007 C3008 1.523 . S
C3008 C2989 1.368 . S
C3008 C3002 1.368 1_554 S
C3008 C3007 1.523 . S
C3009 C2993 1.429 . S
C3009 C3005 1.429 1_564 S
C3009 C3010 1.523 . S
C3010 C2994 1.368 1_554 S
C3010 C3006 1.368 . S
C3010 C3009 1.523 . S
H3011 C2986 0.950 . S
H3012 C2988 0.950 . S
H3013 C2989 0.949 . S
H3014 C2991 0.950 . S
H3015 C2993 0.950 . S
C3016 C3017 1.349 . S
C3016 C3018 1.327 . S
C3016 H3041 0.950 . S
C3017 C3016 1.349 . S
C3017 C3033 1.349 . S
C3018 C3016 1.327 . S
C3018 C3037 1.429 . S
C3018 H3042 0.950 . S
C3019 C3036 1.574 . S
C3019 C3038 1.368 . S
C3019 H3043 0.949 . S
H3020 C3024 0.949 . S
C3021 C3022 1.349 . S
C3021 C3023 1.327 . S
C3021 H3044 0.950 . S
C3022 C3021 1.349 . S
C3022 C3034 1.349 . S
C3023 C3021 1.327 . S
C3023 C3039 1.429 . S
C3023 H3045 0.950 . S
C3024 H3020 0.949 . S
C3024 C3032 1.574 . S
C3024 C3040 1.368 . S
H3025 C3033 0.950 . S
H3026 C3031 0.950 . S
H3027 C3032 0.949 . S
H3028 C3034 0.950 . S
H3029 C3035 0.950 . S
H3030 C3036 0.949 . S
C3031 H3026 0.950 . S
C3031 C3033 1.327 . S
C3031 C3037 1.429 . S
C3032 C3024 1.574 . S
C3032 H3027 0.949 . S
C3032 C3038 1.368 . S
C3033 C3017 1.349 . S
C3033 H3025 0.950 . S
C3033 C3031 1.327 . S
C3034 C3022 1.349 . S
C3034 H3028 0.950 . S
C3034 C3035 1.327 . S
C3035 H3029 0.950 . S
C3035 C3034 1.327 . S
C3035 C3039 1.429 . S
C3036 C3019 1.574 . S
C3036 H3030 0.949 . S
C3036 C3040 1.368 . S
C3037 C3018 1.429 . S
C3037 C3031 1.429 . S
C3037 C3038 1.523 . S
C3038 C3019 1.368 . S
C3038 C3032 1.368 . S
C3038 C3037 1.523 . S
C3039 C3023 1.429 . S
C3039 C3035 1.429 . S
C3039 C3040 1.523 . S
C3040 C3024 1.368 . S
C3040 C3036 1.368 . S
C3040 C3039 1.523 . S
H3041 C3016 0.950 . S
H3042 C3018 0.950 . S
H3043 C3019 0.949 . S
H3044 C3021 0.950 . S
H3045 C3023 0.950 . S
C3046 C3047 1.349 1_556 S
C3046 C3048 1.327 . S
C3046 H3071 0.950 . S
C3047 C3046 1.349 1_554 S
C3047 C3063 1.349 . S
C3048 C3046 1.327 . S
C3048 C3067 1.429 1_556 S
C3048 H3072 0.950 . S
C3049 C3066 1.574 . S
C3049 C3068 1.368 . S
C3049 H3073 0.949 . S
H3050 C3054 0.949 1_556 S
C3051 C3052 1.349 . S
C3051 C3053 1.327 . S
C3051 H3074 0.950 . S
C3052 C3051 1.349 . S
C3052 C3064 1.349 . S
C3053 C3051 1.327 . S
C3053 C3069 1.429 . S
C3053 H3075 0.950 . S
C3054 H3050 0.949 1_554 S
C3054 C3062 1.574 . S
C3054 C3070 1.368 . S
H3055 C3063 0.950 . S
H3056 C3061 0.950 . S
H3057 C3062 0.949 1_556 S
H3058 C3064 0.950 . S
H3059 C3065 0.950 . S
H3060 C3066 0.949 . S
C3061 H3056 0.950 . S
C3061 C3063 1.327 . S
C3061 C3067 1.429 . S
C3062 C3054 1.574 . S
C3062 H3057 0.949 1_554 S
C3062 C3068 1.368 . S
C3063 C3047 1.349 . S
C3063 H3055 0.950 . S
C3063 C3061 1.327 . S
C3064 C3052 1.349 . S
C3064 H3058 0.950 . S
C3064 C3065 1.327 . S
C3065 H3059 0.950 . S
C3065 C3064 1.327 . S
C3065 C3069 1.429 . S
C3066 C3049 1.574 . S
C3066 H3060 0.949 . S
C3066 C3070 1.368 . S
C3067 C3048 1.429 1_554 S
C3067 C3061 1.429 . S
C3067 C3068 1.523 . S
C3068 C3049 1.368 . S
C3068 C3062 1.368 . S
C3068 C3067 1.523 . S
C3069 C3053 1.429 . S
C3069 C3065 1.429 . S
C3069 C3070 1.523 . S
C3070 C3054 1.368 . S
C3070 C3066 1.368 . S
C3070 C3069 1.523 . S
H3071 C3046 0.950 . S
H3072 C3048 0.950 . S
H3073 C3049 0.949 . S
H3074 C3051 0.950 . S
H3075 C3053 0.950 . S
C3076 C3077 1.349 . S
C3076 C3078 1.327 . S
C3076 H3101 0.950 . S
C3077 C3076 1.349 . S
C3077 C3093 1.349 . S
C3078 C3076 1.327 . S
C3078 C3097 1.429 . S
C3078 H3102 0.950 . S
C3079 C3096 1.574 . S
C3079 C3098 1.368 . S
C3079 H3103 0.949 . S
H3080 C3084 0.949 . S
C3081 C3082 1.349 . S
C3081 C3083 1.327 . S
C3081 H3104 0.950 . S
C3082 C3081 1.349 . S
C3082 C3094 1.349 . S
C3083 C3081 1.327 . S
C3083 C3099 1.429 . S
C3083 H3105 0.950 . S
C3084 H3080 0.949 . S
C3084 C3092 1.574 . S
C3084 C3100 1.368 . S
H3085 C3093 0.950 . S
H3086 C3091 0.950 . S
H3087 C3092 0.949 . S
H3088 C3094 0.950 . S
H3089 C3095 0.950 . S
H3090 C3096 0.949 . S
C3091 H3086 0.950 . S
C3091 C3093 1.327 . S
C3091 C3097 1.429 . S
C3092 C3084 1.574 . S
C3092 H3087 0.949 . S
C3092 C3098 1.368 . S
C3093 C3077 1.349 . S
C3093 H3085 0.950 . S
C3093 C3091 1.327 . S
C3094 C3082 1.349 . S
C3094 H3088 0.950 . S
C3094 C3095 1.327 . S
C3095 H3089 0.950 . S
C3095 C3094 1.327 . S
C3095 C3099 1.429 . S
C3096 C3079 1.574 . S
C3096 H3090 0.949 . S
C3096 C3100 1.368 . S
C3097 C3078 1.429 . S
C3097 C3091 1.429 . S
C3097 C3098 1.523 . S
C3098 C3079 1.368 . S
C3098 C3092 1.368 . S
C3098 C3097 1.523 . S
C3099 C3083 1.429 . S
C3099 C3095 1.429 . S
C3099 C3100 1.523 . S
C3100 C3084 1.368 . S
C3100 C3096 1.368 . S
C3100 C3099 1.523 . S
H3101 C3076 0.950 . S
H3102 C3078 0.950 . S
H3103 C3079 0.949 . S
H3104 C3081 0.950 . S
H3105 C3083 0.950 . S
C3106 C3107 1.349 . S
C3106 C3108 1.327 . S
C3106 H3131 0.950 . S
C3107 C3106 1.349 . S
C3107 C3123 1.349 . S
C3108 C3106 1.327 . S
C3108 C3127 1.429 . S
C3108 H3132 0.950 . S
C3109 C3126 1.574 . S
C3109 C3128 1.368 . S
C3109 H3133 0.949 . S
H3110 C3114 0.949 . S
C3111 C3112 1.349 . S
C3111 C3113 1.327 . S
C3111 H3134 0.950 . S
C3112 C3111 1.349 . S
C3112 C3124 1.349 . S
C3113 C3111 1.327 . S
C3113 C3129 1.429 . S
C3113 H3135 0.950 . S
C3114 H3110 0.949 . S
C3114 C3122 1.574 . S
C3114 C3130 1.368 . S
H3115 C3123 0.950 . S
H3116 C3121 0.950 . S
H3117 C3122 0.949 . S
H3118 C3124 0.950 . S
H3119 C3125 0.950 . S
H3120 C3126 0.949 . S
C3121 H3116 0.950 . S
C3121 C3123 1.327 . S
C3121 C3127 1.429 . S
C3122 C3114 1.574 . S
C3122 H3117 0.949 . S
C3122 C3128 1.368 . S
C3123 C3107 1.349 . S
C3123 H3115 0.950 . S
C3123 C3121 1.327 . S
C3124 C3112 1.349 . S
C3124 H3118 0.950 . S
C3124 C3125 1.327 . S
C3125 H3119 0.950 . S
C3125 C3124 1.327 . S
C3125 C3129 1.429 . S
C3126 C3109 1.574 . S
C3126 H3120 0.949 . S
C3126 C3130 1.368 . S
C3127 C3108 1.429 . S
C3127 C3121 1.429 . S
C3127 C3128 1.523 . S
C3128 C3109 1.368 . S
C3128 C3122 1.368 . S
C3128 C3127 1.523 . S
C3129 C3113 1.429 . S
C3129 C3125 1.429 . S
C3129 C3130 1.523 . S
C3130 C3114 1.368 . S
C3130 C3126 1.368 . S
C3130 C3129 1.523 . S
H3131 C3106 0.950 . S
H3132 C3108 0.950 . S
H3133 C3109 0.949 . S
H3134 C3111 0.950 . S
H3135 C3113 0.950 . S
C3136 C3137 1.349 . S
C3136 C3138 1.327 . S
C3136 H3161 0.950 . S
C3137 C3136 1.349 . S
C3137 C3153 1.349 . S
C3138 C3136 1.327 . S
C3138 C3157 1.429 . S
C3138 H3162 0.950 . S
C3139 C3156 1.574 . S
C3139 C3158 1.368 . S
C3139 H3163 0.949 . S
H3140 C3144 0.949 . S
C3141 C3142 1.349 . S
C3141 C3143 1.327 . S
C3141 H3164 0.950 . S
C3142 C3141 1.349 . S
C3142 C3154 1.349 . S
C3143 C3141 1.327 . S
C3143 C3159 1.429 . S
C3143 H3165 0.950 . S
C3144 H3140 0.949 . S
C3144 C3152 1.574 . S
C3144 C3160 1.368 . S
H3145 C3153 0.950 . S
H3146 C3151 0.950 . S
H3147 C3152 0.949 . S
H3148 C3154 0.950 . S
H3149 C3155 0.950 . S
H3150 C3156 0.949 . S
C3151 H3146 0.950 . S
C3151 C3153 1.327 . S
C3151 C3157 1.429 . S
C3152 C3144 1.574 . S
C3152 H3147 0.949 . S
C3152 C3158 1.368 . S
C3153 C3137 1.349 . S
C3153 H3145 0.950 . S
C3153 C3151 1.327 . S
C3154 C3142 1.349 . S
C3154 H3148 0.950 . S
C3154 C3155 1.327 . S
C3155 H3149 0.950 . S
C3155 C3154 1.327 . S
C3155 C3159 1.429 . S
C3156 C3139 1.574 . S
C3156 H3150 0.949 . S
C3156 C3160 1.368 . S
C3157 C3138 1.429 . S
C3157 C3151 1.429 . S
C3157 C3158 1.523 . S
C3158 C3139 1.368 . S
C3158 C3152 1.368 . S
C3158 C3157 1.523 . S
C3159 C3143 1.429 . S
C3159 C3155 1.429 . S
C3159 C3160 1.523 . S
C3160 C3144 1.368 . S
C3160 C3156 1.368 . S
C3160 C3159 1.523 . S
H3161 C3136 0.950 . S
H3162 C3138 0.950 . S
H3163 C3139 0.949 . S
H3164 C3141 0.950 . S
H3165 C3143 0.950 . S
C3166 C3167 1.349 . S
C3166 C3168 1.327 . S
C3166 H3191 0.950 . S
C3167 C3166 1.349 . S
C3167 C3183 1.349 . S
C3168 C3166 1.327 . S
C3168 C3187 1.429 . S
C3168 H3192 0.950 . S
C3169 C3186 1.574 . S
C3169 C3188 1.368 . S
C3169 H3193 0.949 . S
H3170 C3174 0.949 . S
C3171 C3172 1.349 . S
C3171 C3173 1.327 . S
C3171 H3194 0.950 . S
C3172 C3171 1.349 . S
C3172 C3184 1.349 . S
C3173 C3171 1.327 . S
C3173 C3189 1.429 . S
C3173 H3195 0.950 . S
C3174 H3170 0.949 . S
C3174 C3182 1.574 . S
C3174 C3190 1.368 . S
H3175 C3183 0.950 . S
H3176 C3181 0.950 . S
H3177 C3182 0.949 . S
H3178 C3184 0.950 . S
H3179 C3185 0.950 . S
H3180 C3186 0.949 . S
C3181 H3176 0.950 . S
C3181 C3183 1.327 . S
C3181 C3187 1.429 . S
C3182 C3174 1.574 . S
C3182 H3177 0.949 . S
C3182 C3188 1.368 . S
C3183 C3167 1.349 . S
C3183 H3175 0.950 . S
C3183 C3181 1.327 . S
C3184 C3172 1.349 . S
C3184 H3178 0.950 . S
C3184 C3185 1.327 . S
C3185 H3179 0.950 . S
C3185 C3184 1.327 . S
C3185 C3189 1.429 . S
C3186 C3169 1.574 . S
C3186 H3180 0.949 . S
C3186 C3190 1.368 . S
C3187 C3168 1.429 . S
C3187 C3181 1.429 . S
C3187 C3188 1.523 . S
C3188 C3169 1.368 . S
C3188 C3182 1.368 . S
C3188 C3187 1.523 . S
C3189 C3173 1.429 . S
C3189 C3185 1.429 . S
C3189 C3190 1.523 . S
C3190 C3174 1.368 . S
C3190 C3186 1.368 . S
C3190 C3189 1.523 . S
H3191 C3166 0.950 . S
H3192 C3168 0.950 . S
H3193 C3169 0.949 . S
H3194 C3171 0.950 . S
H3195 C3173 0.950 . S
C3196 C3197 1.349 . S
C3196 C3198 1.327 . S
C3196 H3221 0.950 . S
C3197 C3196 1.349 . S
C3197 C3213 1.349 . S
C3198 C3196 1.327 . S
C3198 C3217 1.429 . S
C3198 H3222 0.950 . S
C3199 C3216 1.574 . S
C3199 C3218 1.368 . S
C3199 H3223 0.949 . S
H3200 C3204 0.949 . S
C3201 C3202 1.349 . S
C3201 C3203 1.327 . S
C3201 H3224 0.950 . S
C3202 C3201 1.349 . S
C3202 C3214 1.349 . S
C3203 C3201 1.327 . S
C3203 C3219 1.429 . S
C3203 H3225 0.950 . S
C3204 H3200 0.949 . S
C3204 C3212 1.574 . S
C3204 C3220 1.368 . S
H3205 C3213 0.950 . S
H3206 C3211 0.950 . S
H3207 C3212 0.949 . S
H3208 C3214 0.950 . S
H3209 C3215 0.950 . S
H3210 C3216 0.949 . S
C3211 H3206 0.950 . S
C3211 C3213 1.327 . S
C3211 C3217 1.429 . S
C3212 C3204 1.574 . S
C3212 H3207 0.949 . S
C3212 C3218 1.368 . S
C3213 C3197 1.349 . S
C3213 H3205 0.950 . S
C3213 C3211 1.327 . S
C3214 C3202 1.349 . S
C3214 H3208 0.950 . S
C3214 C3215 1.327 . S
C3215 H3209 0.950 . S
C3215 C3214 1.327 . S
C3215 C3219 1.429 . S
C3216 C3199 1.574 . S
C3216 H3210 0.949 . S
C3216 C3220 1.368 . S
C3217 C3198 1.429 . S
C3217 C3211 1.429 . S
C3217 C3218 1.523 . S
C3218 C3199 1.368 . S
C3218 C3212 1.368 . S
C3218 C3217 1.523 . S
C3219 C3203 1.429 . S
C3219 C3215 1.429 . S
C3219 C3220 1.523 . S
C3220 C3204 1.368 . S
C3220 C3216 1.368 . S
C3220 C3219 1.523 . S
H3221 C3196 0.950 . S
H3222 C3198 0.950 . S
H3223 C3199 0.949 . S
H3224 C3201 0.950 . S
H3225 C3203 0.950 . S
C3226 C3227 1.349 . S
C3226 C3228 1.327 . S
C3226 H3251 0.950 . S
C3227 C3226 1.349 . S
C3227 C3243 1.349 . S
C3228 C3226 1.327 . S
C3228 C3247 1.429 . S
C3228 H3252 0.950 . S
C3229 C3246 1.574 . S
C3229 C3248 1.368 . S
C3229 H3253 0.949 . S
H3230 C3234 0.949 . S
C3231 C3232 1.349 . S
C3231 C3233 1.327 . S
C3231 H3254 0.950 . S
C3232 C3231 1.349 . S
C3232 C3244 1.349 . S
C3233 C3231 1.327 . S
C3233 C3249 1.429 . S
C3233 H3255 0.950 . S
C3234 H3230 0.949 . S
C3234 C3242 1.574 . S
C3234 C3250 1.368 . S
H3235 C3243 0.950 . S
H3236 C3241 0.950 . S
H3237 C3242 0.949 . S
H3238 C3244 0.950 . S
H3239 C3245 0.950 . S
H3240 C3246 0.949 . S
C3241 H3236 0.950 . S
C3241 C3243 1.327 . S
C3241 C3247 1.429 . S
C3242 C3234 1.574 . S
C3242 H3237 0.949 . S
C3242 C3248 1.368 . S
C3243 C3227 1.349 . S
C3243 H3235 0.950 . S
C3243 C3241 1.327 . S
C3244 C3232 1.349 . S
C3244 H3238 0.950 . S
C3244 C3245 1.327 . S
C3245 H3239 0.950 . S
C3245 C3244 1.327 . S
C3245 C3249 1.429 . S
C3246 C3229 1.574 . S
C3246 H3240 0.949 . S
C3246 C3250 1.368 . S
C3247 C3228 1.429 . S
C3247 C3241 1.429 . S
C3247 C3248 1.523 . S
C3248 C3229 1.368 . S
C3248 C3242 1.368 . S
C3248 C3247 1.523 . S
C3249 C3233 1.429 . S
C3249 C3245 1.429 . S
C3249 C3250 1.523 . S
C3250 C3234 1.368 . S
C3250 C3246 1.368 . S
C3250 C3249 1.523 . S
H3251 C3226 0.950 . S
H3252 C3228 0.950 . S
H3253 C3229 0.949 . S
H3254 C3231 0.950 . S
H3255 C3233 0.950 . S
C3256 C3257 1.349 . S
C3256 C3258 1.327 . S
C3256 H3281 0.950 . S
C3257 C3256 1.349 . S
C3257 C3273 1.349 . S
C3258 C3256 1.327 . S
C3258 C3277 1.429 . S
C3258 H3282 0.950 . S
C3259 C3276 1.574 . S
C3259 C3278 1.368 . S
C3259 H3283 0.949 . S
H3260 C3264 0.949 . S
C3261 C3262 1.349 . S
C3261 C3263 1.327 . S
C3261 H3284 0.950 . S
C3262 C3261 1.349 . S
C3262 C3274 1.349 . S
C3263 C3261 1.327 . S
C3263 C3279 1.429 . S
C3263 H3285 0.950 . S
C3264 H3260 0.949 . S
C3264 C3272 1.574 . S
C3264 C3280 1.368 . S
H3265 C3273 0.950 . S
H3266 C3271 0.950 . S
H3267 C3272 0.949 . S
H3268 C3274 0.950 . S
H3269 C3275 0.950 . S
H3270 C3276 0.949 . S
C3271 H3266 0.950 . S
C3271 C3273 1.327 . S
C3271 C3277 1.429 . S
C3272 C3264 1.574 . S
C3272 H3267 0.949 . S
C3272 C3278 1.368 . S
C3273 C3257 1.349 . S
C3273 H3265 0.950 . S
C3273 C3271 1.327 . S
C3274 C3262 1.349 . S
C3274 H3268 0.950 . S
C3274 C3275 1.327 . S
C3275 H3269 0.950 . S
C3275 C3274 1.327 . S
C3275 C3279 1.429 . S
C3276 C3259 1.574 . S
C3276 H3270 0.949 . S
C3276 C3280 1.368 . S
C3277 C3258 1.429 . S
C3277 C3271 1.429 . S
C3277 C3278 1.523 . S
C3278 C3259 1.368 . S
C3278 C3272 1.368 . S
C3278 C3277 1.523 . S
C3279 C3263 1.429 . S
C3279 C3275 1.429 . S
C3279 C3280 1.523 . S
C3280 C3264 1.368 . S
C3280 C3276 1.368 . S
C3280 C3279 1.523 . S
H3281 C3256 0.950 . S
H3282 C3258 0.950 . S
H3283 C3259 0.949 . S
H3284 C3261 0.950 . S
H3285 C3263 0.950 . S
C3286 C3287 1.349 . S
C3286 C3288 1.327 . S
C3286 H3311 0.950 . S
C3287 C3286 1.349 . S
C3287 C3303 1.349 . S
C3288 C3286 1.327 . S
C3288 C3307 1.429 . S
C3288 H3312 0.950 . S
C3289 C3306 1.574 . S
C3289 C3308 1.368 . S
C3289 H3313 0.949 . S
H3290 C3294 0.949 . S
C3291 C3292 1.349 . S
C3291 C3293 1.327 . S
C3291 H3314 0.950 . S
C3292 C3291 1.349 . S
C3292 C3304 1.349 . S
C3293 C3291 1.327 . S
C3293 C3309 1.429 . S
C3293 H3315 0.950 . S
C3294 H3290 0.949 . S
C3294 C3302 1.574 . S
C3294 C3310 1.368 . S
H3295 C3303 0.950 . S
H3296 C3301 0.950 . S
H3297 C3302 0.949 . S
H3298 C3304 0.950 . S
H3299 C3305 0.950 . S
H3300 C3306 0.949 . S
C3301 H3296 0.950 . S
C3301 C3303 1.327 . S
C3301 C3307 1.429 . S
C3302 C3294 1.574 . S
C3302 H3297 0.949 . S
C3302 C3308 1.368 . S
C3303 C3287 1.349 . S
C3303 H3295 0.950 . S
C3303 C3301 1.327 . S
C3304 C3292 1.349 . S
C3304 H3298 0.950 . S
C3304 C3305 1.327 . S
C3305 H3299 0.950 . S
C3305 C3304 1.327 . S
C3305 C3309 1.429 . S
C3306 C3289 1.574 . S
C3306 H3300 0.949 . S
C3306 C3310 1.368 . S
C3307 C3288 1.429 . S
C3307 C3301 1.429 . S
C3307 C3308 1.523 . S
C3308 C3289 1.368 . S
C3308 C3302 1.368 . S
C3308 C3307 1.523 . S
C3309 C3293 1.429 . S
C3309 C3305 1.429 . S
C3309 C3310 1.523 . S
C3310 C3294 1.368 . S
C3310 C3306 1.368 . S
C3310 C3309 1.523 . S
H3311 C3286 0.950 . S
H3312 C3288 0.950 . S
H3313 C3289 0.949 . S
H3314 C3291 0.950 . S
H3315 C3293 0.950 . S
C3316 C3317 1.349 . S
C3316 C3318 1.327 . S
C3316 H3341 0.950 . S
C3317 C3316 1.349 . S
C3317 C3333 1.349 . S
C3318 C3316 1.327 . S
C3318 C3337 1.429 . S
C3318 H3342 0.950 . S
C3319 C3336 1.574 . S
C3319 C3338 1.368 . S
C3319 H3343 0.949 . S
H3320 C3324 0.949 . S
C3321 C3322 1.349 . S
C3321 C3323 1.327 . S
C3321 H3344 0.950 . S
C3322 C3321 1.349 . S
C3322 C3334 1.349 . S
C3323 C3321 1.327 . S
C3323 C3339 1.429 . S
C3323 H3345 0.950 . S
C3324 H3320 0.949 . S
C3324 C3332 1.574 . S
C3324 C3340 1.368 . S
H3325 C3333 0.950 . S
H3326 C3331 0.950 . S
H3327 C3332 0.949 . S
H3328 C3334 0.950 . S
H3329 C3335 0.950 . S
H3330 C3336 0.949 . S
C3331 H3326 0.950 . S
C3331 C3333 1.327 . S
C3331 C3337 1.429 . S
C3332 C3324 1.574 . S
C3332 H3327 0.949 . S
C3332 C3338 1.368 . S
C3333 C3317 1.349 . S
C3333 H3325 0.950 . S
C3333 C3331 1.327 . S
C3334 C3322 1.349 . S
C3334 H3328 0.950 . S
C3334 C3335 1.327 . S
C3335 H3329 0.950 . S
C3335 C3334 1.327 . S
C3335 C3339 1.429 . S
C3336 C3319 1.574 . S
C3336 H3330 0.949 . S
C3336 C3340 1.368 . S
C3337 C3318 1.429 . S
C3337 C3331 1.429 . S
C3337 C3338 1.523 . S
C3338 C3319 1.368 . S
C3338 C3332 1.368 . S
C3338 C3337 1.523 . S
C3339 C3323 1.429 . S
C3339 C3335 1.429 . S
C3339 C3340 1.523 . S
C3340 C3324 1.368 . S
C3340 C3336 1.368 . S
C3340 C3339 1.523 . S
H3341 C3316 0.950 . S
H3342 C3318 0.950 . S
H3343 C3319 0.949 . S
H3344 C3321 0.950 . S
H3345 C3323 0.950 . S
C3346 C3347 1.349 . S
C3346 C3348 1.327 . S
C3346 H3371 0.950 . S
C3347 C3346 1.349 . S
C3347 C3363 1.349 . S
C3348 C3346 1.327 . S
C3348 C3367 1.429 . S
C3348 H3372 0.950 . S
C3349 C3366 1.574 . S
C3349 C3368 1.368 . S
C3349 H3373 0.949 . S
H3350 C3354 0.949 . S
C3351 C3352 1.349 . S
C3351 C3353 1.327 . S
C3351 H3374 0.950 . S
C3352 C3351 1.349 . S
C3352 C3364 1.349 . S
C3353 C3351 1.327 . S
C3353 C3369 1.429 . S
C3353 H3375 0.950 . S
C3354 H3350 0.949 . S
C3354 C3362 1.574 . S
C3354 C3370 1.368 . S
H3355 C3363 0.950 . S
H3356 C3361 0.950 . S
H3357 C3362 0.949 . S
H3358 C3364 0.950 . S
H3359 C3365 0.950 . S
H3360 C3366 0.949 . S
C3361 H3356 0.950 . S
C3361 C3363 1.327 . S
C3361 C3367 1.429 . S
C3362 C3354 1.574 . S
C3362 H3357 0.949 . S
C3362 C3368 1.368 . S
C3363 C3347 1.349 . S
C3363 H3355 0.950 . S
C3363 C3361 1.327 . S
C3364 C3352 1.349 . S
C3364 H3358 0.950 . S
C3364 C3365 1.327 . S
C3365 H3359 0.950 . S
C3365 C3364 1.327 . S
C3365 C3369 1.429 . S
C3366 C3349 1.574 . S
C3366 H3360 0.949 . S
C3366 C3370 1.368 . S
C3367 C3348 1.429 . S
C3367 C3361 1.429 . S
C3367 C3368 1.523 . S
C3368 C3349 1.368 . S
C3368 C3362 1.368 . S
C3368 C3367 1.523 . S
C3369 C3353 1.429 . S
C3369 C3365 1.429 . S
C3369 C3370 1.523 . S
C3370 C3354 1.368 . S
C3370 C3366 1.368 . S
C3370 C3369 1.523 . S
H3371 C3346 0.950 . S
H3372 C3348 0.950 . S
H3373 C3349 0.949 . S
H3374 C3351 0.950 . S
H3375 C3353 0.950 . S
C3376 C3377 1.349 . S
C3376 C3378 1.327 . S
C3376 H3401 0.950 . S
C3377 C3376 1.349 . S
C3377 C3393 1.349 . S
C3378 C3376 1.327 . S
C3378 C3397 1.429 . S
C3378 H3402 0.950 . S
C3379 C3396 1.574 . S
C3379 C3398 1.368 . S
C3379 H3403 0.949 . S
H3380 C3384 0.949 . S
C3381 C3382 1.349 . S
C3381 C3383 1.327 . S
C3381 H3404 0.950 . S
C3382 C3381 1.349 . S
C3382 C3394 1.349 . S
C3383 C3381 1.327 . S
C3383 C3399 1.429 . S
C3383 H3405 0.950 . S
C3384 H3380 0.949 . S
C3384 C3392 1.574 . S
C3384 C3400 1.368 . S
H3385 C3393 0.950 . S
H3386 C3391 0.950 . S
H3387 C3392 0.949 . S
H3388 C3394 0.950 . S
H3389 C3395 0.950 . S
H3390 C3396 0.949 . S
C3391 H3386 0.950 . S
C3391 C3393 1.327 . S
C3391 C3397 1.429 . S
C3392 C3384 1.574 . S
C3392 H3387 0.949 . S
C3392 C3398 1.368 . S
C3393 C3377 1.349 . S
C3393 H3385 0.950 . S
C3393 C3391 1.327 . S
C3394 C3382 1.349 . S
C3394 H3388 0.950 . S
C3394 C3395 1.327 . S
C3395 H3389 0.950 . S
C3395 C3394 1.327 . S
C3395 C3399 1.429 . S
C3396 C3379 1.574 . S
C3396 H3390 0.949 . S
C3396 C3400 1.368 . S
C3397 C3378 1.429 . S
C3397 C3391 1.429 . S
C3397 C3398 1.523 . S
C3398 C3379 1.368 . S
C3398 C3392 1.368 . S
C3398 C3397 1.523 . S
C3399 C3383 1.429 . S
C3399 C3395 1.429 . S
C3399 C3400 1.523 . S
C3400 C3384 1.368 . S
C3400 C3396 1.368 . S
C3400 C3399 1.523 . S
H3401 C3376 0.950 . S
H3402 C3378 0.950 . S
H3403 C3379 0.949 . S
H3404 C3381 0.950 . S
H3405 C3383 0.950 . S
C3406 C3407 1.349 . S
C3406 C3408 1.327 . S
C3406 H3431 0.950 . S
C3407 C3406 1.349 . S
C3407 C3423 1.349 . S
C3408 C3406 1.327 . S
C3408 C3427 1.429 . S
C3408 H3432 0.950 . S
C3409 C3426 1.574 . S
C3409 C3428 1.368 . S
C3409 H3433 0.949 . S
H3410 C3414 0.949 . S
C3411 C3412 1.349 . S
C3411 C3413 1.327 . S
C3411 H3434 0.950 . S
C3412 C3411 1.349 . S
C3412 C3424 1.349 . S
C3413 C3411 1.327 . S
C3413 C3429 1.429 . S
C3413 H3435 0.950 . S
C3414 H3410 0.949 . S
C3414 C3422 1.574 . S
C3414 C3430 1.368 . S
H3415 C3423 0.950 . S
H3416 C3421 0.950 . S
H3417 C3422 0.949 . S
H3418 C3424 0.950 . S
H3419 C3425 0.950 . S
H3420 C3426 0.949 . S
C3421 H3416 0.950 . S
C3421 C3423 1.327 . S
C3421 C3427 1.429 . S
C3422 C3414 1.574 . S
C3422 H3417 0.949 . S
C3422 C3428 1.368 . S
C3423 C3407 1.349 . S
C3423 H3415 0.950 . S
C3423 C3421 1.327 . S
C3424 C3412 1.349 . S
C3424 H3418 0.950 . S
C3424 C3425 1.327 . S
C3425 H3419 0.950 . S
C3425 C3424 1.327 . S
C3425 C3429 1.429 . S
C3426 C3409 1.574 . S
C3426 H3420 0.949 . S
C3426 C3430 1.368 . S
C3427 C3408 1.429 . S
C3427 C3421 1.429 . S
C3427 C3428 1.523 . S
C3428 C3409 1.368 . S
C3428 C3422 1.368 . S
C3428 C3427 1.523 . S
C3429 C3413 1.429 . S
C3429 C3425 1.429 . S
C3429 C3430 1.523 . S
C3430 C3414 1.368 . S
C3430 C3426 1.368 . S
C3430 C3429 1.523 . S
H3431 C3406 0.950 . S
H3432 C3408 0.950 . S
H3433 C3409 0.949 . S
H3434 C3411 0.950 . S
H3435 C3413 0.950 . S
C3436 C3437 1.349 . S
C3436 C3438 1.327 . S
C3436 H3461 0.950 . S
C3437 C3436 1.349 . S
C3437 C3453 1.349 . S
C3438 C3436 1.327 . S
C3438 C3457 1.429 . S
C3438 H3462 0.950 . S
C3439 C3456 1.574 . S
C3439 C3458 1.368 . S
C3439 H3463 0.949 . S
H3440 C3444 0.949 . S
C3441 C3442 1.349 . S
C3441 C3443 1.327 . S
C3441 H3464 0.950 . S
C3442 C3441 1.349 . S
C3442 C3454 1.349 . S
C3443 C3441 1.327 . S
C3443 C3459 1.420 1_455 S
C3443 H3465 0.950 . S
C3444 H3440 0.949 . S
C3444 C3452 1.574 . S
C3444 C3460 1.368 . S
H3445 C3453 0.950 . S
H3446 C3451 0.950 . S
H3447 C3452 0.949 . S
H3448 C3454 0.950 . S
H3449 C3455 0.935 1_655 S
H3450 C3456 0.949 . S
C3451 H3446 0.950 . S
C3451 C3453 1.327 . S
C3451 C3457 1.429 . S
C3452 C3444 1.574 . S
C3452 H3447 0.949 . S
C3452 C3458 1.368 . S
C3453 C3437 1.349 . S
C3453 H3445 0.950 . S
C3453 C3451 1.327 . S
C3454 C3442 1.349 . S
C3454 H3448 0.950 . S
C3454 C3455 1.337 . S
C3455 H3449 0.935 1_455 S
C3455 C3454 1.337 . S
C3455 C3459 1.436 1_455 S
C3456 C3439 1.574 . S
C3456 H3450 0.949 . S
C3456 C3460 1.368 . S
C3457 C3438 1.429 . S
C3457 C3451 1.429 . S
C3457 C3458 1.523 . S
C3458 C3439 1.368 . S
C3458 C3452 1.368 . S
C3458 C3457 1.523 . S
C3459 C3443 1.420 1_655 S
C3459 C3455 1.436 1_655 S
C3459 C3460 1.529 . S
C3460 C3444 1.368 . S
C3460 C3456 1.368 . S
C3460 C3459 1.529 . S
H3461 C3436 0.950 . S
H3462 C3438 0.950 . S
H3463 C3439 0.949 . S
H3464 C3441 0.950 . S
H3465 C3443 0.950 . S
C3466 C3467 1.349 . S
C3466 C3468 1.327 . S
C3466 H3491 0.950 . S
C3467 C3466 1.349 . S
C3467 C3483 1.349 . S
C3468 C3466 1.327 . S
C3468 C3487 1.429 . S
C3468 H3492 0.950 . S
C3469 C3486 1.574 . S
C3469 C3488 1.368 . S
C3469 H3493 0.949 . S
H3470 C3474 0.949 . S
C3471 C3472 1.349 . S
C3471 C3473 1.327 . S
C3471 H3494 0.950 . S
C3472 C3471 1.349 . S
C3472 C3484 1.349 . S
C3473 C3471 1.327 . S
C3473 C3489 1.429 . S
C3473 H3495 0.950 . S
C3474 H3470 0.949 . S
C3474 C3482 1.574 . S
C3474 C3490 1.368 . S
H3475 C3483 0.950 . S
H3476 C3481 0.950 . S
H3477 C3482 0.949 . S
H3478 C3484 0.950 . S
H3479 C3485 0.950 . S
H3480 C3486 0.949 . S
C3481 H3476 0.950 . S
C3481 C3483 1.327 . S
C3481 C3487 1.429 . S
C3482 C3474 1.574 . S
C3482 H3477 0.949 . S
C3482 C3488 1.368 . S
C3483 C3467 1.349 . S
C3483 H3475 0.950 . S
C3483 C3481 1.327 . S
C3484 C3472 1.349 . S
C3484 H3478 0.950 . S
C3484 C3485 1.327 . S
C3485 H3479 0.950 . S
C3485 C3484 1.327 . S
C3485 C3489 1.429 . S
C3486 C3469 1.574 . S
C3486 H3480 0.949 . S
C3486 C3490 1.368 . S
C3487 C3468 1.429 . S
C3487 C3481 1.429 . S
C3487 C3488 1.523 . S
C3488 C3469 1.368 . S
C3488 C3482 1.368 . S
C3488 C3487 1.523 . S
C3489 C3473 1.429 . S
C3489 C3485 1.429 . S
C3489 C3490 1.523 . S
C3490 C3474 1.368 . S
C3490 C3486 1.368 . S
C3490 C3489 1.523 . S
H3491 C3466 0.950 . S
H3492 C3468 0.950 . S
H3493 C3469 0.949 . S
H3494 C3471 0.950 . S
H3495 C3473 0.950 . S
C3496 C3497 1.349 . S
C3496 C3498 1.327 . S
C3496 H3521 0.950 . S
C3497 C3496 1.349 . S
C3497 C3513 1.349 . S
C3498 C3496 1.327 . S
C3498 C3517 1.429 . S
C3498 H3522 0.950 . S
C3499 C3516 1.574 . S
C3499 C3518 1.368 . S
C3499 H3523 0.949 . S
H3500 C3504 0.949 . S
C3501 C3502 1.349 . S
C3501 C3503 1.327 . S
C3501 H3524 0.950 . S
C3502 C3501 1.349 . S
C3502 C3514 1.349 . S
C3503 C3501 1.327 . S
C3503 C3519 1.429 . S
C3503 H3525 0.950 . S
C3504 H3500 0.949 . S
C3504 C3512 1.574 . S
C3504 C3520 1.368 . S
H3505 C3513 0.950 . S
H3506 C3511 0.950 . S
H3507 C3512 0.949 . S
H3508 C3514 0.950 . S
H3509 C3515 0.950 . S
H3510 C3516 0.949 . S
C3511 H3506 0.950 . S
C3511 C3513 1.327 . S
C3511 C3517 1.429 . S
C3512 C3504 1.574 . S
C3512 H3507 0.949 . S
C3512 C3518 1.368 . S
C3513 C3497 1.349 . S
C3513 H3505 0.950 . S
C3513 C3511 1.327 . S
C3514 C3502 1.349 . S
C3514 H3508 0.950 . S
C3514 C3515 1.327 . S
C3515 H3509 0.950 . S
C3515 C3514 1.327 . S
C3515 C3519 1.429 . S
C3516 C3499 1.574 . S
C3516 H3510 0.949 . S
C3516 C3520 1.368 . S
C3517 C3498 1.429 . S
C3517 C3511 1.429 . S
C3517 C3518 1.523 . S
C3518 C3499 1.368 . S
C3518 C3512 1.368 . S
C3518 C3517 1.523 . S
C3519 C3503 1.429 . S
C3519 C3515 1.429 . S
C3519 C3520 1.523 . S
C3520 C3504 1.368 . S
C3520 C3516 1.368 . S
C3520 C3519 1.523 . S
H3521 C3496 0.950 . S
H3522 C3498 0.950 . S
H3523 C3499 0.949 . S
H3524 C3501 0.950 . S
H3525 C3503 0.950 . S
C3526 C3527 1.349 . S
C3526 C3528 1.327 . S
C3526 H3551 0.950 . S
C3527 C3526 1.349 . S
C3527 C3543 1.349 . S
C3528 C3526 1.327 . S
C3528 C3547 1.429 . S
C3528 H3552 0.950 . S
C3529 C3546 1.574 . S
C3529 C3548 1.368 . S
C3529 H3553 0.949 . S
H3530 C3534 0.949 . S
C3531 C3532 1.349 . S
C3531 C3533 1.327 . S
C3531 H3554 0.950 . S
C3532 C3531 1.349 . S
C3532 C3544 1.349 . S
C3533 C3531 1.327 . S
C3533 C3549 1.429 . S
C3533 H3555 0.950 . S
C3534 H3530 0.949 . S
C3534 C3542 1.574 . S
C3534 C3550 1.368 . S
H3535 C3543 0.950 . S
H3536 C3541 0.950 . S
H3537 C3542 0.949 . S
H3538 C3544 0.950 . S
H3539 C3545 0.950 . S
H3540 C3546 0.949 . S
C3541 H3536 0.950 . S
C3541 C3543 1.327 . S
C3541 C3547 1.429 . S
C3542 C3534 1.574 . S
C3542 H3537 0.949 . S
C3542 C3548 1.368 . S
C3543 C3527 1.349 . S
C3543 H3535 0.950 . S
C3543 C3541 1.327 . S
C3544 C3532 1.349 . S
C3544 H3538 0.950 . S
C3544 C3545 1.327 . S
C3545 H3539 0.950 . S
C3545 C3544 1.327 . S
C3545 C3549 1.429 . S
C3546 C3529 1.574 . S
C3546 H3540 0.949 . S
C3546 C3550 1.368 . S
C3547 C3528 1.429 . S
C3547 C3541 1.429 . S
C3547 C3548 1.523 . S
C3548 C3529 1.368 . S
C3548 C3542 1.368 . S
C3548 C3547 1.523 . S
C3549 C3533 1.429 . S
C3549 C3545 1.429 . S
C3549 C3550 1.523 . S
C3550 C3534 1.368 . S
C3550 C3546 1.368 . S
C3550 C3549 1.523 . S
H3551 C3526 0.950 . S
H3552 C3528 0.950 . S
H3553 C3529 0.949 . S
H3554 C3531 0.950 . S
H3555 C3533 0.950 . S
C3556 C3557 1.349 . S
C3556 C3558 1.327 . S
C3556 H3581 0.950 . S
C3557 C3556 1.349 . S
C3557 C3573 1.349 . S
C3558 C3556 1.327 . S
C3558 C3577 1.429 . S
C3558 H3582 0.950 . S
C3559 C3576 1.574 . S
C3559 C3578 1.368 . S
C3559 H3583 0.949 . S
H3560 C3564 0.949 . S
C3561 C3562 1.349 . S
C3561 C3563 1.327 . S
C3561 H3584 0.950 1_655 S
C3562 C3561 1.349 . S
C3562 C3574 1.349 . S
C3563 C3561 1.327 . S
C3563 C3579 1.429 . S
C3563 H3585 0.950 . S
C3564 H3560 0.949 . S
C3564 C3572 1.574 . S
C3564 C3580 1.368 . S
H3565 C3573 0.950 . S
H3566 C3571 0.950 . S
H3567 C3572 0.949 . S
H3568 C3574 0.950 . S
H3569 C3575 0.950 . S
H3570 C3576 0.949 . S
C3571 H3566 0.950 . S
C3571 C3573 1.327 . S
C3571 C3577 1.429 . S
C3572 C3564 1.574 . S
C3572 H3567 0.949 . S
C3572 C3578 1.368 . S
C3573 C3557 1.349 . S
C3573 H3565 0.950 . S
C3573 C3571 1.327 . S
C3574 C3562 1.349 . S
C3574 H3568 0.950 . S
C3574 C3575 1.327 . S
C3575 H3569 0.950 . S
C3575 C3574 1.327 . S
C3575 C3579 1.429 . S
C3576 C3559 1.574 . S
C3576 H3570 0.949 . S
C3576 C3580 1.368 . S
C3577 C3558 1.429 . S
C3577 C3571 1.429 . S
C3577 C3578 1.523 . S
C3578 C3559 1.368 . S
C3578 C3572 1.368 . S
C3578 C3577 1.523 . S
C3579 C3563 1.429 . S
C3579 C3575 1.429 . S
C3579 C3580 1.523 . S
C3580 C3564 1.368 . S
C3580 C3576 1.368 . S
C3580 C3579 1.523 . S
H3581 C3556 0.950 . S
H3582 C3558 0.950 . S
H3583 C3559 0.949 . S
H3584 C3561 0.950 1_455 S
H3585 C3563 0.950 . S
C3586 C3587 1.349 . S
C3586 C3588 1.327 . S
C3586 H3611 0.950 . S
C3587 C3586 1.349 . S
C3587 C3603 1.349 . S
C3588 C3586 1.327 . S
C3588 C3607 1.429 . S
C3588 H3612 0.950 . S
C3589 C3606 1.574 . S
C3589 C3608 1.368 . S
C3589 H3613 0.949 . S
H3590 C3594 0.949 . S
C3591 C3592 1.349 . S
C3591 C3593 1.327 . S
C3591 H3614 0.950 . S
C3592 C3591 1.349 . S
C3592 C3604 1.349 . S
C3593 C3591 1.327 . S
C3593 C3609 1.429 . S
C3593 H3615 0.950 . S
C3594 H3590 0.949 . S
C3594 C3602 1.574 . S
C3594 C3610 1.368 . S
H3595 C3603 0.950 . S
H3596 C3601 0.950 . S
H3597 C3602 0.949 . S
H3598 C3604 0.950 . S
H3599 C3605 0.950 . S
H3600 C3606 0.949 . S
C3601 H3596 0.950 . S
C3601 C3603 1.327 . S
C3601 C3607 1.429 . S
C3602 C3594 1.574 . S
C3602 H3597 0.949 . S
C3602 C3608 1.368 . S
C3603 C3587 1.349 . S
C3603 H3595 0.950 . S
C3603 C3601 1.327 . S
C3604 C3592 1.349 . S
C3604 H3598 0.950 . S
C3604 C3605 1.327 . S
C3605 H3599 0.950 . S
C3605 C3604 1.327 . S
C3605 C3609 1.429 . S
C3606 C3589 1.574 . S
C3606 H3600 0.949 . S
C3606 C3610 1.368 . S
C3607 C3588 1.429 . S
C3607 C3601 1.429 . S
C3607 C3608 1.523 . S
C3608 C3589 1.368 . S
C3608 C3602 1.368 . S
C3608 C3607 1.523 . S
C3609 C3593 1.429 . S
C3609 C3605 1.429 . S
C3609 C3610 1.523 . S
C3610 C3594 1.368 . S
C3610 C3606 1.368 . S
C3610 C3609 1.523 . S
H3611 C3586 0.950 . S
H3612 C3588 0.950 . S
H3613 C3589 0.949 . S
H3614 C3591 0.950 . S
H3615 C3593 0.950 . S
C3616 C3617 1.349 . S
C3616 C3618 1.327 . S
C3616 H3641 0.950 . S
C3617 C3616 1.349 . S
C3617 C3633 1.349 . S
C3618 C3616 1.327 . S
C3618 C3637 1.429 . S
C3618 H3642 0.950 . S
C3619 C3636 1.574 . S
C3619 C3638 1.368 . S
C3619 H3643 0.949 . S
H3620 C3624 0.949 . S
C3621 C3622 1.349 . S
C3621 C3623 1.327 . S
C3621 H3644 0.950 . S
C3622 C3621 1.349 . S
C3622 C3634 1.349 . S
C3623 C3621 1.327 . S
C3623 C3639 1.429 . S
C3623 H3645 0.950 . S
C3624 H3620 0.949 . S
C3624 C3632 1.574 . S
C3624 C3640 1.368 . S
H3625 C3633 0.950 . S
H3626 C3631 0.950 . S
H3627 C3632 0.949 . S
H3628 C3634 0.950 . S
H3629 C3635 0.950 . S
H3630 C3636 0.949 . S
C3631 H3626 0.950 . S
C3631 C3633 1.327 . S
C3631 C3637 1.429 . S
C3632 C3624 1.574 . S
C3632 H3627 0.949 . S
C3632 C3638 1.368 . S
C3633 C3617 1.349 . S
C3633 H3625 0.950 . S
C3633 C3631 1.327 . S
C3634 C3622 1.349 . S
C3634 H3628 0.950 . S
C3634 C3635 1.327 . S
C3635 H3629 0.950 . S
C3635 C3634 1.327 . S
C3635 C3639 1.429 . S
C3636 C3619 1.574 . S
C3636 H3630 0.949 . S
C3636 C3640 1.368 . S
C3637 C3618 1.429 . S
C3637 C3631 1.429 . S
C3637 C3638 1.523 . S
C3638 C3619 1.368 . S
C3638 C3632 1.368 . S
C3638 C3637 1.523 . S
C3639 C3623 1.429 . S
C3639 C3635 1.429 . S
C3639 C3640 1.523 . S
C3640 C3624 1.368 . S
C3640 C3636 1.368 . S
C3640 C3639 1.523 . S
H3641 C3616 0.950 . S
H3642 C3618 0.950 . S
H3643 C3619 0.949 . S
H3644 C3621 0.950 . S
H3645 C3623 0.950 . S
C3646 C3647 1.349 . S
C3646 C3648 1.327 . S
C3646 H3671 0.950 . S
C3647 C3646 1.349 . S
C3647 C3663 1.349 . S
C3648 C3646 1.327 . S
C3648 C3667 1.429 . S
C3648 H3672 0.950 . S
C3649 C3666 1.574 . S
C3649 C3668 1.368 . S
C3649 H3673 0.949 . S
H3650 C3654 0.949 . S
C3651 C3652 1.358 . S
C3651 C3653 1.327 1_545 S
C3651 H3674 0.950 . S
C3652 C3651 1.358 . S
C3652 C3664 1.331 1_545 S
C3653 C3651 1.327 1_565 S
C3653 C3669 1.429 . S
C3653 H3675 0.950 . S
C3654 H3650 0.949 . S
C3654 C3662 1.574 . S
C3654 C3670 1.368 . S
H3655 C3663 0.950 . S
H3656 C3661 0.950 . S
H3657 C3662 0.949 . S
H3658 C3664 0.950 . S
H3659 C3665 0.950 . S
H3660 C3666 0.949 . S
C3661 H3656 0.950 . S
C3661 C3663 1.327 . S
C3661 C3667 1.429 . S
C3662 C3654 1.574 . S
C3662 H3657 0.949 . S
C3662 C3668 1.368 . S
C3663 C3647 1.349 . S
C3663 H3655 0.950 . S
C3663 C3661 1.327 . S
C3664 C3652 1.331 1_565 S
C3664 H3658 0.950 . S
C3664 C3665 1.327 . S
C3665 H3659 0.950 . S
C3665 C3664 1.327 . S
C3665 C3669 1.429 . S
C3666 C3649 1.574 . S
C3666 H3660 0.949 . S
C3666 C3670 1.368 . S
C3667 C3648 1.429 . S
C3667 C3661 1.429 . S
C3667 C3668 1.523 . S
C3668 C3649 1.368 . S
C3668 C3662 1.368 . S
C3668 C3667 1.523 . S
C3669 C3653 1.429 . S
C3669 C3665 1.429 . S
C3669 C3670 1.523 . S
C3670 C3654 1.368 . S
C3670 C3666 1.368 . S
C3670 C3669 1.523 . S
H3671 C3646 0.950 . S
H3672 C3648 0.950 . S
H3673 C3649 0.949 . S
H3674 C3651 0.950 . S
H3675 C3653 0.950 . S
C3676 C3677 1.349 . S
C3676 C3678 1.327 . S
C3676 H3701 0.950 . S
C3677 C3676 1.349 . S
C3677 C3693 1.349 . S
C3678 C3676 1.327 . S
C3678 C3697 1.429 . S
C3678 H3702 0.950 . S
C3679 C3696 1.574 . S
C3679 C3698 1.368 . S
C3679 H3703 0.949 . S
H3680 C3684 0.949 . S
C3681 C3682 1.349 . S
C3681 C3683 1.327 . S
C3681 H3704 0.950 . S
C3682 C3681 1.349 . S
C3682 C3694 1.349 . S
C3683 C3681 1.327 . S
C3683 C3699 1.429 . S
C3683 H3705 0.950 . S
C3684 H3680 0.949 . S
C3684 C3692 1.574 . S
C3684 C3700 1.368 . S
H3685 C3693 0.950 . S
H3686 C3691 0.950 . S
H3687 C3692 0.949 . S
H3688 C3694 0.950 . S
H3689 C3695 0.950 . S
H3690 C3696 0.949 . S
C3691 H3686 0.950 . S
C3691 C3693 1.327 . S
C3691 C3697 1.429 . S
C3692 C3684 1.574 . S
C3692 H3687 0.949 . S
C3692 C3698 1.368 . S
C3693 C3677 1.349 . S
C3693 H3685 0.950 . S
C3693 C3691 1.327 . S
C3694 C3682 1.349 . S
C3694 H3688 0.950 . S
C3694 C3695 1.327 . S
C3695 H3689 0.950 . S
C3695 C3694 1.327 . S
C3695 C3699 1.429 . S
C3696 C3679 1.574 . S
C3696 H3690 0.949 . S
C3696 C3700 1.368 . S
C3697 C3678 1.429 . S
C3697 C3691 1.429 . S
C3697 C3698 1.523 . S
C3698 C3679 1.368 . S
C3698 C3692 1.368 . S
C3698 C3697 1.523 . S
C3699 C3683 1.429 . S
C3699 C3695 1.429 . S
C3699 C3700 1.523 . S
C3700 C3684 1.368 . S
C3700 C3696 1.368 . S
C3700 C3699 1.523 . S
H3701 C3676 0.950 . S
H3702 C3678 0.950 . S
H3703 C3679 0.949 . S
H3704 C3681 0.950 . S
H3705 C3683 0.950 . S
C3706 C3707 1.349 . S
C3706 C3708 1.327 . S
C3706 H3731 0.950 . S
C3707 C3706 1.349 . S
C3707 C3723 1.349 1_554 S
C3708 C3706 1.327 . S
C3708 C3727 1.429 . S
C3708 H3732 0.950 . S
C3709 C3726 1.574 . S
C3709 C3728 1.368 1_556 S
C3709 H3733 0.949 . S
H3710 C3714 0.949 . S
C3711 C3712 1.349 1_556 S
C3711 C3713 1.327 . S
C3711 H3734 0.950 . S
C3712 C3711 1.349 1_554 S
C3712 C3724 1.349 . S
C3713 C3711 1.327 . S
C3713 C3729 1.429 1_556 S
C3713 H3735 0.950 . S
C3714 H3710 0.949 . S
C3714 C3722 1.574 . S
C3714 C3730 1.368 . S
H3715 C3723 0.950 . S
H3716 C3721 0.950 . S
H3717 C3722 0.949 . S
H3718 C3724 0.950 . S
H3719 C3725 0.950 . S
H3720 C3726 0.949 . S
C3721 H3716 0.950 . S
C3721 C3723 1.327 . S
C3721 C3727 1.429 1_556 S
C3722 C3714 1.574 . S
C3722 H3717 0.949 . S
C3722 C3728 1.368 . S
C3723 C3707 1.349 1_556 S
C3723 H3715 0.950 . S
C3723 C3721 1.327 . S
C3724 C3712 1.349 . S
C3724 H3718 0.950 . S
C3724 C3725 1.327 . S
C3725 H3719 0.950 . S
C3725 C3724 1.327 . S
C3725 C3729 1.429 . S
C3726 C3709 1.574 . S
C3726 H3720 0.949 . S
C3726 C3730 1.368 1_556 S
C3727 C3708 1.429 . S
C3727 C3721 1.429 1_554 S
C3727 C3728 1.523 . S
C3728 C3709 1.368 1_554 S
C3728 C3722 1.368 . S
C3728 C3727 1.523 . S
C3729 C3713 1.429 1_554 S
C3729 C3725 1.429 . S
C3729 C3730 1.523 . S
C3730 C3714 1.368 . S
C3730 C3726 1.368 1_554 S
C3730 C3729 1.523 . S
H3731 C3706 0.950 . S
H3732 C3708 0.950 . S
H3733 C3709 0.949 . S
H3734 C3711 0.950 . S
H3735 C3713 0.950 . S
C3736 C3737 1.349 . S
C3736 C3738 1.327 . S
C3736 H3761 0.950 . S
C3737 C3736 1.349 . S
C3737 C3753 1.349 . S
C3738 C3736 1.327 . S
C3738 C3757 1.429 . S
C3738 H3762 0.950 . S
C3739 C3756 1.574 . S
C3739 C3758 1.368 . S
C3739 H3763 0.949 . S
H3740 C3744 0.949 . S
C3741 C3742 1.349 . S
C3741 C3743 1.327 . S
C3741 H3764 0.950 . S
C3742 C3741 1.349 . S
C3742 C3754 1.349 . S
C3743 C3741 1.327 . S
C3743 C3759 1.429 . S
C3743 H3765 0.950 . S
C3744 H3740 0.949 . S
C3744 C3752 1.574 . S
C3744 C3760 1.368 . S
H3745 C3753 0.950 . S
H3746 C3751 0.950 . S
H3747 C3752 0.949 . S
H3748 C3754 0.950 . S
H3749 C3755 0.950 . S
H3750 C3756 0.949 . S
C3751 H3746 0.950 . S
C3751 C3753 1.327 . S
C3751 C3757 1.429 . S
C3752 C3744 1.574 . S
C3752 H3747 0.949 . S
C3752 C3758 1.368 . S
C3753 C3737 1.349 . S
C3753 H3745 0.950 . S
C3753 C3751 1.327 . S
C3754 C3742 1.349 . S
C3754 H3748 0.950 . S
C3754 C3755 1.327 . S
C3755 H3749 0.950 . S
C3755 C3754 1.327 . S
C3755 C3759 1.429 . S
C3756 C3739 1.574 . S
C3756 H3750 0.949 . S
C3756 C3760 1.368 . S
C3757 C3738 1.429 . S
C3757 C3751 1.429 . S
C3757 C3758 1.523 . S
C3758 C3739 1.368 . S
C3758 C3752 1.368 . S
C3758 C3757 1.523 . S
C3759 C3743 1.429 . S
C3759 C3755 1.429 . S
C3759 C3760 1.523 . S
C3760 C3744 1.368 . S
C3760 C3756 1.368 . S
C3760 C3759 1.523 . S
H3761 C3736 0.950 . S
H3762 C3738 0.950 . S
H3763 C3739 0.949 . S
H3764 C3741 0.950 . S
H3765 C3743 0.950 . S
C3766 C3767 1.349 . S
C3766 C3768 1.327 . S
C3766 H3791 0.950 . S
C3767 C3766 1.349 . S
C3767 C3783 1.349 . S
C3768 C3766 1.327 . S
C3768 C3787 1.429 . S
C3768 H3792 0.950 . S
C3769 C3786 1.574 . S
C3769 C3788 1.368 1_556 S
C3769 H3793 0.949 . S
H3770 C3774 0.949 . S
C3771 C3772 1.349 . S
C3771 C3773 1.327 . S
C3771 H3794 0.950 . S
C3772 C3771 1.349 . S
C3772 C3784 1.349 . S
C3773 C3771 1.327 . S
C3773 C3789 1.429 . S
C3773 H3795 0.950 . S
C3774 H3770 0.949 . S
C3774 C3782 1.574 . S
C3774 C3790 1.368 1_554 S
H3775 C3783 0.950 1_556 S
H3776 C3781 0.950 . S
H3777 C3782 0.949 . S
H3778 C3784 0.950 1_554 S
H3779 C3785 0.948 1_554 S
H3780 C3786 0.949 . S
C3781 H3776 0.950 . S
C3781 C3783 1.327 1_556 S
C3781 C3787 1.429 1_556 S
C3782 C3774 1.574 . S
C3782 H3777 0.949 . S
C3782 C3788 1.368 . S
C3783 C3767 1.349 . S
C3783 H3775 0.950 1_554 S
C3783 C3781 1.327 1_554 S
C3784 C3772 1.349 . S
C3784 H3778 0.950 1_556 S
C3784 C3785 1.328 . S
C3785 H3779 0.948 1_556 S
C3785 C3784 1.328 . S
C3785 C3789 1.429 . S
C3786 C3769 1.574 . S
C3786 H3780 0.949 . S
C3786 C3790 1.368 . S
C3787 C3768 1.429 . S
C3787 C3781 1.429 1_554 S
C3787 C3788 1.523 . S
C3788 C3769 1.368 1_554 S
C3788 C3782 1.368 . S
C3788 C3787 1.523 . S
C3789 C3773 1.429 . S
C3789 C3785 1.429 . S
C3789 C3790 1.523 . S
C3790 C3774 1.368 1_556 S
C3790 C3786 1.368 . S
C3790 C3789 1.523 . S
H3791 C3766 0.950 . S
H3792 C3768 0.950 . S
H3793 C3769 0.949 . S
H3794 C3771 0.950 . S
H3795 C3773 0.950 . S
C3796 C3797 1.349 . S
C3796 C3798 1.327 . S
C3796 H3821 0.950 . S
C3797 C3796 1.349 . S
C3797 C3813 1.349 . S
C3798 C3796 1.327 . S
C3798 C3817 1.429 . S
C3798 H3822 0.950 . S
C3799 C3816 1.574 . S
C3799 C3818 1.368 . S
C3799 H3823 0.949 . S
H3800 C3804 0.949 . S
C3801 C3802 1.349 . S
C3801 C3803 1.327 . S
C3801 H3824 0.950 . S
C3802 C3801 1.349 . S
C3802 C3814 1.349 . S
C3803 C3801 1.327 . S
C3803 C3819 1.429 . S
C3803 H3825 0.950 . S
C3804 H3800 0.949 . S
C3804 C3812 1.574 . S
C3804 C3820 1.368 . S
H3805 C3813 0.950 . S
H3806 C3811 0.950 . S
H3807 C3812 0.949 . S
H3808 C3814 0.950 . S
H3809 C3815 0.950 . S
H3810 C3816 0.949 . S
C3811 H3806 0.950 . S
C3811 C3813 1.327 . S
C3811 C3817 1.429 . S
C3812 C3804 1.574 . S
C3812 H3807 0.949 . S
C3812 C3818 1.368 . S
C3813 C3797 1.349 . S
C3813 H3805 0.950 . S
C3813 C3811 1.327 . S
C3814 C3802 1.349 . S
C3814 H3808 0.950 . S
C3814 C3815 1.327 . S
C3815 H3809 0.950 . S
C3815 C3814 1.327 . S
C3815 C3819 1.429 . S
C3816 C3799 1.574 . S
C3816 H3810 0.949 . S
C3816 C3820 1.368 . S
C3817 C3798 1.429 . S
C3817 C3811 1.429 . S
C3817 C3818 1.523 . S
C3818 C3799 1.368 . S
C3818 C3812 1.368 . S
C3818 C3817 1.523 . S
C3819 C3803 1.429 . S
C3819 C3815 1.429 . S
C3819 C3820 1.523 . S
C3820 C3804 1.368 . S
C3820 C3816 1.368 . S
C3820 C3819 1.523 . S
H3821 C3796 0.950 . S
H3822 C3798 0.950 . S
H3823 C3799 0.949 . S
H3824 C3801 0.950 . S
H3825 C3803 0.950 . S
C3826 C3827 1.349 . S
C3826 C3828 1.327 . S
C3826 H3851 0.950 . S
C3827 C3826 1.349 . S
C3827 C3843 1.349 . S
C3828 C3826 1.327 . S
C3828 C3847 1.429 . S
C3828 H3852 0.950 . S
C3829 C3846 1.574 . S
C3829 C3848 1.368 . S
C3829 H3853 0.949 . S
H3830 C3834 0.949 . S
C3831 C3832 1.349 . S
C3831 C3833 1.327 . S
C3831 H3854 0.950 . S
C3832 C3831 1.349 . S
C3832 C3844 1.349 . S
C3833 C3831 1.327 . S
C3833 C3849 1.429 . S
C3833 H3855 0.950 . S
C3834 H3830 0.949 . S
C3834 C3842 1.574 . S
C3834 C3850 1.368 . S
H3835 C3843 0.950 . S
H3836 C3841 0.950 . S
H3837 C3842 0.949 . S
H3838 C3844 0.950 . S
H3839 C3845 0.950 . S
H3840 C3846 0.949 . S
C3841 H3836 0.950 . S
C3841 C3843 1.327 . S
C3841 C3847 1.429 . S
C3842 C3834 1.574 . S
C3842 H3837 0.949 . S
C3842 C3848 1.368 . S
C3843 C3827 1.349 . S
C3843 H3835 0.950 . S
C3843 C3841 1.327 . S
C3844 C3832 1.349 . S
C3844 H3838 0.950 . S
C3844 C3845 1.327 . S
C3845 H3839 0.950 . S
C3845 C3844 1.327 . S
C3845 C3849 1.429 . S
C3846 C3829 1.574 . S
C3846 H3840 0.949 . S
C3846 C3850 1.368 . S
C3847 C3828 1.429 . S
C3847 C3841 1.429 . S
C3847 C3848 1.523 . S
C3848 C3829 1.368 . S
C3848 C3842 1.368 . S
C3848 C3847 1.523 . S
C3849 C3833 1.429 . S
C3849 C3845 1.429 . S
C3849 C3850 1.523 . S
C3850 C3834 1.368 . S
C3850 C3846 1.368 . S
C3850 C3849 1.523 . S
H3851 C3826 0.950 . S
H3852 C3828 0.950 . S
H3853 C3829 0.949 . S
H3854 C3831 0.950 . S
H3855 C3833 0.950 . S
C977 C109 2.176 . S
C982 C346 2.138 1_556 S
C1007 C65 2.065 . S
C1012 C394 2.058 . S
C1037 C75 1.036 . S
C1042 C426 1.016 . S
C1072 C471 1.424 . S
C1067 C84 1.424 . S
C1097 C25 1.193 . S
C1102 C511 1.181 . S
C1132 C542 0.276 . S
C1127 C28 0.267 . S
C1162 C594 1.205 . S
C1157 C47 1.191 . S
C1187 C9 1.747 . S
C1192 C626 1.691 . S
C1222 C354 2.508 . S
C1217 C233 2.524 . S
C1247 C249 0.299 . S
C1252 C391 0.364 . S
C1282 C434 1.388 . S
C1277 C275 1.400 . S
C1312 C466 1.156 . S
C1307 C173 1.173 . S
C1337 C224 1.786 . S
C1342 C506 1.786 . S
C1372 C545 1.468 . S
C1367 C243 1.493 . S
C1402 C591 0.270 . S
C1397 C266 0.186 . S
C1432 C634 1.930 . S
C1427 C179 1.945 . S
C1462 C351 1.474 1_565 S
C1457 C163 1.489 . S
C1487 C289 1.986 . S
C1492 C674 1.979 . S
C1522 C715 2.538 . S
C1517 C333 2.579 . S
C1552 C746 0.485 1_655 S
C1547 C308 0.486 . S
C1577 C123 1.347 . S
C1582 C631 1.337 . S
C1607 C126 1.551 . S
C1612 C431 1.556 . S
C1637 C327 2.334 . S
C1642 C794 2.313 . S
C1672 C826 0.555 . S
C1667 C299 0.513 . S
C1702 C355 2.151 . S
C1697 C67 2.196 . S
C1732 C825 2.097 . S
C1727 C98 2.066 . S
C1757 C89 1.075 . S
C1762 C435 1.055 . S
C1787 C79 1.485 . S
C1792 C782 1.472 . S
C1822 C502 1.182 . S
C1817 C11 1.200 . S
C1847 C51 0.269 . S
C1852 C711 0.295 . S
C1882 C585 1.283 1_556 S
C1877 C33 1.267 . S
C1912 C875 1.682 . S
C1907 C14 1.753 . S
C1942 C345 2.494 . S
C1937 C140 2.501 . S
C1972 C822 0.353 . S
C1967 C319 0.266 . S
C1997 C112 1.416 . S
C2002 C425 1.412 . S
C2027 C285 1.204 . S
C2032 C795 1.188 . S
C2057 C149 1.843 . S
C2062 C515 1.815 . S
C2092 C714 1.507 . S
C2087 C313 1.535 . S
C2117 C121 0.137 . S
C2122 C582 0.265 . S
C2147 C291 1.985 . S
C2152 C865 1.965 . S
C2177 C182 1.497 . S
C2182 C342 1.466 . S
C2207 C168 1.990 . S
C2212 C665 2.006 . S
C2237 C263 2.632 . S
C2242 C546 2.592 . S
C2267 C247 0.561 . S
C2272 C755 0.570 . S
C2302 C862 1.321 . S
C2297 C277 1.340 . S
C2327 C219 1.599 . S
C2332 C422 1.576 . S
C2362 C465 2.362 . S
C2357 C257 2.385 . S
C2392 C395 0.558 . S
C2387 C201 0.523 . S
C2417 C81 2.176 . S
C2422 C906 2.138 . S
C2452 C834 2.058 . S
C2447 C93 2.065 . S
C2477 C103 1.036 . S
C2482 C946 1.014 . S
C2507 C56 1.424 . S
C2512 C791 1.424 . S
C2537 C53 1.193 . S
C2542 C671 1.181 . S
C2572 C702 0.276 . S
C2567 C0 0.267 . S
C2602 C754 1.205 . S
C2597 C19 1.189 . S
C2632 C866 1.691 . S
C2627 C37 1.747 . S
C2662 C914 2.508 . S
C2657 C261 2.524 . S
C2687 C193 0.299 . S
C2692 C831 0.364 . S
C2722 C954 1.388 . S
C2717 C205 1.401 . S
C2752 C786 1.157 . S
C2747 C215 1.174 . S
C2782 C666 1.786 . S
C2777 C252 1.786 . S
C2807 C187 1.493 . S
C2812 C705 1.468 . S
C2842 C751 0.270 . S
C2837 C196 0.186 . S
C2867 C221 1.945 . S
C2872 C874 1.930 . S
C2902 C911 1.476 . S
C2897 C317 1.489 . S
C2927 C135 1.989 . S
C2932 C514 1.980 . S
C2962 C555 2.538 . S
C2957 C151 2.578 . S
C2992 C586 0.496 . S
C2987 C154 0.486 . S
C3022 C871 1.336 . S
C3017 C305 1.346 . S
C3047 C280 1.552 . S
C3052 C951 1.556 . S
C3082 C474 2.313 . S
C3077 C145 2.334 . S
C3112 C386 0.555 . S
C3107 C117 0.513 . S
C3137 C95 2.196 . S
C3142 C915 2.151 . S
C3172 C385 2.097 . S
C3167 C70 2.066 . S
C3197 C61 1.075 . S
C3202 C955 1.055 . S
C3227 C107 1.484 . S
C3232 C462 1.472 . S
C3257 C39 1.200 . S
C3262 C662 1.182 . S
C3292 C551 0.294 . S
C3287 C23 0.263 . S
C3317 C5 1.267 . S
C3322 C745 1.279 . S
C3347 C42 1.746 . S
C3352 C635 1.682 . S
C3382 C905 2.494 . S
C3377 C322 2.500 . S
C3407 C165 0.266 . S
C3412 C382 0.353 . S
C3442 C945 1.412 . S
C3437 C294 1.416 . S
C3467 C131 1.204 . S
C3472 C475 1.188 . S
C3497 C331 1.844 . S
C3502 C675 1.816 . S
C3532 C554 1.507 . S
C3527 C159 1.534 . S
C3557 C303 0.137 . S
C3562 C742 0.265 . S
C3592 C625 1.966 . S
C3587 C137 1.986 . S
C3622 C902 1.467 . S
C3617 C238 1.497 . S
C3652 C505 2.017 1_655 S
C3647 C210 1.990 . S
C3677 C235 2.632 . S
C3682 C706 2.592 . S
C3712 C595 0.570 . S
C3707 C191 0.561 . S
C3737 C207 1.340 . S
C3742 C622 1.320 . S
C3767 C177 1.599 . S
C3772 C942 1.576 . S
C3802 C785 2.363 . S
C3797 C229 2.385 1_565 S
C3832 C835 0.558 . S
C3827 C271 0.523 . S
