# Generated by pormake.
# Topology nia, (6,6)-cn, num edge types: 1
# Building blocks:
#     Node 0, Type 0, BuildingBlock: GEDQOX_clean_sbu_0, # of connection points: 6
#     Node 1, Type 0, BuildingBlock: GEDQOX_clean_sbu_0, # of connection points: 6
#     Node 2, Type 1, BuildingBlock: MIDCAF_clean_sbu_0, # of connection points: 6
#     Node 3, Type 1, BuildingBlock: MIDCAF_clean_sbu_0, # of connection points: 6
#     Edge 4, Type (0, 1), BuildingBlock: EZIPEK_clean_linker_0, # of connection points: 2
#     Edge 5, Type (0, 1), BuildingBlock: EZIPEK_clean_linker_0, # of connection points: 2
#     Edge 6, Type (0, 1), BuildingBlock: EZIPEK_clean_linker_0, # of connection points: 2
#     Edge 7, Type (0, 1), BuildingBlock: EZIPEK_clean_linker_0, # of connection points: 2
#     Edge 8, Type (0, 1), BuildingBlock: EZIPEK_clean_linker_0, # of connection points: 2
#     Edge 9, Type (0, 1), BuildingBlock: EZIPEK_clean_linker_0, # of connection points: 2
#     Edge 10, Type (0, 1), BuildingBlock: EZIPEK_clean_linker_0, # of connection points: 2
#     Edge 11, Type (0, 1), BuildingBlock: EZIPEK_clean_linker_0, # of connection points: 2
#     Edge 12, Type (0, 1), BuildingBlock: EZIPEK_clean_linker_0, # of connection points: 2
#     Edge 13, Type (0, 1), BuildingBlock: EZIPEK_clean_linker_0, # of connection points: 2
#     Edge 14, Type (0, 1), BuildingBlock: EZIPEK_clean_linker_0, # of connection points: 2
#     Edge 15, Type (0, 1), BuildingBlock: EZIPEK_clean_linker_0, # of connection points: 2
# Relax obj value: 0.348
# Max RMSD: 0.282
# Mean RMSD: 0.256
data_MOF--net-nia--node1-GEDQOX_clean_sbu_0--node2-MIDCAF_clean_sbu_0--edge1-EZIPEK_clean_linker_0
_symmetry_space_group_name_H-M    P1
_symmetry_Int_Tables_number       1
_symmetry_cell_setting            triclinic
loop_
_symmetry_equiv_pos_as_xyz
'x, y, z'
_cell_length_a     22.420636
_cell_length_b     19.508831
_cell_length_c     25.917436
_cell_angle_alpha  105.37599
_cell_angle_beta   60.982232
_cell_angle_gamma 127.86971
loop_
_atom_site_label
_atom_site_type_symbol
_atom_site_fract_x
_atom_site_fract_y
_atom_site_fract_z
_atom_type_partial_charge
Nd0 Nd -0.00083 0.08504 1.03436 0.0
Nd1 Nd -0.00717 0.961 0.0964 0.0
C2 C 0.03218 0.20458 0.97541 0.0
C3 C -0.01029 0.21476 0.95237 0.0
C4 C 0.03622 0.26461 0.89981 0.0
C5 C -0.00233 0.27874 0.87874 0.0
C6 C 0.91226 0.24316 0.91023 0.0
C7 C 0.86495 0.1898 0.96118 0.0
C8 C 0.9034 0.17535 0.98209 0.0
C9 C 0.84521 0.97201 0.12108 0.0
C10 C 0.09019 0.16555 0.12541 0.0
C11 C 0.94904 0.85325 0.17172 0.0
C12 C -0.00535 0.84204 0.19083 0.0
C13 C -0.03422 0.75866 0.20305 0.0
C14 C 0.01505 0.74622 0.21224 0.0
C15 C 0.09686 0.81626 0.20607 0.0
C16 C 0.11848 0.90083 0.20339 0.0
C17 C 0.06949 0.91339 0.19379 0.0
C18 C 0.14554 0.04368 0.99872 0.0
C19 C 0.92938 0.89223 0.99083 0.0
O20 O 0.00501 0.20203 1.03291 0.0
O21 O 0.04898 0.14755 0.94979 0.0
O22 O 0.85612 0.99969 0.07496 0.0
O23 O 0.91416 0.01074 0.12326 0.0
O24 O 0.06943 0.17758 0.0905 0.0
O25 O 0.06912 0.0888 0.13487 0.0
O26 O 0.95931 0.83511 0.11683 0.0
O27 O 0.9505 0.92372 0.18763 0.0
O28 O 0.1219 0.98772 1.03454 0.0
O29 O 0.08747 0.0526 1.01585 0.0
O30 O 0.91812 0.87123 1.04087 0.0
O31 O -0.02657 0.9733 0.97255 0.0
H32 H 0.10268 0.29431 0.87592 0.0
H33 H 0.03488 0.32033 0.83946 0.0
H34 H 0.799 0.16226 0.98598 0.0
H35 H 0.86624 0.13537 1.02217 0.0
H36 H 0.90615 0.70272 0.20373 0.0
H37 H -0.01054 0.6804 0.2221 0.0
H38 H 0.17216 0.95884 0.20842 0.0
H39 H 0.0911 0.97908 0.18755 0.0
Nd40 Nd 0.92938 0.96758 0.55159 0.0
Nd41 Nd 0.05219 0.08568 0.59289 0.0
C42 C 0.81549 0.8822 0.51018 0.0
C43 C 0.76965 0.89113 0.49003 0.0
C44 C 0.68243 0.83647 0.5169 0.0
C45 C 0.63656 0.83245 0.49318 0.0
C46 C 0.67732 0.88303 0.44231 0.0
C47 C 0.76433 0.94198 0.41726 0.0
C48 C 0.81056 0.94566 0.44085 0.0
C49 C 0.912 0.88709 0.63643 0.0
C50 C 0.90732 0.1071 0.64614 0.0
C51 C 0.16036 0.17224 0.63984 0.0
C52 C 0.19243 0.15793 0.67057 0.0
C53 C 0.23874 0.12239 0.642 0.0
C54 C 0.28553 0.12929 0.6664 0.0
C55 C 0.286 0.17152 0.71933 0.0
C56 C 0.23141 0.19659 0.75158 0.0
C57 C 0.18507 0.19024 0.72705 0.0
C58 C 0.06923 0.16548 0.5077 0.0
C59 C 0.0739 0.94013 0.50222 0.0
O60 O 0.89493 0.91794 0.47661 0.0
O61 O 0.79698 0.8878 0.56671 0.0
O62 O 0.9014 0.85229 0.58915 0.0
O63 O 0.92722 0.96186 0.64009 0.0
O64 O 0.89742 0.06743 0.59828 0.0
O65 O 0.95163 0.10374 0.66308 0.0
O66 O 0.08355 0.14842 0.66892 0.0
O67 O 0.18085 0.15682 0.5837 0.0
O68 O 0.08056 0.20092 0.55462 0.0
O69 O 0.05435 0.09088 0.50414 0.0
O70 O 0.09633 0.99718 0.54154 0.0
O71 O 0.01416 0.92332 0.49215 0.0
H72 H 0.64982 0.79375 0.55461 0.0
H73 H 0.56925 0.78673 0.51288 0.0
H74 H 0.79631 0.98123 0.37786 0.0
H75 H 0.87797 0.98818 0.41915 0.0
H76 H 0.244 0.09547 0.59892 0.0
H77 H 0.32773 0.10991 0.64111 0.0
H78 H 0.23164 0.22963 0.79241 0.0
H79 H 0.14881 0.21702 0.75008 0.0
Zn80 Zn 0.37449 0.66755 0.20846 0.0
Zn81 Zn 0.2282 0.62208 0.43443 0.0
Zn82 Zn 0.29496 0.63744 0.3185 0.0
C83 C 0.40165 0.72848 0.39376 0.0
C84 C 0.18137 0.45569 0.39465 0.0
O85 O 0.249 0.69378 0.29695 0.0
O86 O 0.31339 0.7019 0.19938 0.0
C87 C 0.50127 0.76337 0.23456 0.0
O88 O 0.39649 0.70936 0.34402 0.0
O89 O 0.33683 0.70108 0.44188 0.0
O90 O 0.17217 0.49576 0.44174 0.0
O91 O 0.2225 0.49622 0.34411 0.0
O92 O 0.49248 0.75601 0.1886 0.0
O93 O 0.43666 0.72269 0.28339 0.0
O94 O 0.24551 0.50731 0.28028 0.0
O95 O 0.34265 0.54832 0.18855 0.0
C96 C 0.27624 0.48875 0.22633 0.0
O97 O 0.22749 0.70233 0.35855 0.0
O98 O 0.16395 0.67002 0.45441 0.0
C99 C 0.26276 0.71112 0.24613 0.0
C100 C 0.18137 0.70852 0.41185 0.0
Zn101 Zn 0.62637 0.39513 0.93645 0.0
Zn102 Zn 0.76432 0.43025 0.69584 0.0
Zn103 Zn 0.69269 0.41131 0.81589 0.0
C104 C 0.80695 0.59507 0.73969 0.0
C105 C 0.58562 0.32685 0.74382 0.0
O106 O 0.74102 0.35755 0.83532 0.0
O107 O 0.68117 0.34213 0.9331 0.0
C108 C 0.74068 0.57296 0.89908 0.0
O109 O 0.76201 0.55028 0.78886 0.0
O110 O 0.82369 0.55979 0.69111 0.0
O111 O 0.65113 0.35745 0.69598 0.0
O112 O 0.58918 0.34058 0.79376 0.0
O113 O 0.68907 0.52344 0.94515 0.0
O114 O 0.74743 0.54216 0.84765 0.0
O115 O 0.55378 0.32523 0.85469 0.0
O116 O 0.50609 0.31927 0.95204 0.0
C117 C 0.49256 0.29696 0.90639 0.0
O118 O 0.7595 0.34825 0.77435 0.0
O119 O 0.81953 0.37079 0.67726 0.0
C120 C 0.72983 0.33515 0.88332 0.0
C121 C 0.80276 0.33698 0.72194 0.0
C122 C 0.13838 0.71376 0.18952 0.0
C123 C 0.15413 0.79719 0.20496 0.0
C124 C 0.24447 0.82563 0.24682 0.0
C125 C 0.21763 0.7379 0.23983 0.0
N126 N 0.13194 0.5948 0.20979 0.0
N127 N 0.27484 0.94181 0.20145 0.0
C128 C 0.16268 0.68096 0.2125 0.0
C129 C 0.22105 0.85734 0.22189 0.0
N130 N 0.10986 0.67084 0.14693 0.0
N131 N 0.29456 0.87973 0.27542 0.0
H132 H 0.27817 0.95976 0.16514 0.0
H133 H 0.32705 0.98769 0.2102 0.0
H134 H 0.31492 0.85937 0.29286 0.0
H135 H 0.3092 0.94219 0.28617 0.0
H136 H 0.10446 0.61352 0.12971 0.0
H137 H 0.1025 0.69913 0.12344 0.0
H138 H 0.08525 0.54878 0.19546 0.0
H139 H 0.14718 0.56814 0.22737 0.0
C140 C 0.42698 0.29875 0.70996 0.0
C141 C 0.35896 0.21161 0.73106 0.0
C142 C 0.43966 0.19853 0.76092 0.0
C143 C 0.50569 0.28698 0.74253 0.0
N144 N 0.55415 0.4272 0.71444 0.0
N145 N 0.29309 0.08339 0.78618 0.0
C146 C 0.49685 0.33893 0.72162 0.0
C147 C 0.36284 0.16286 0.75974 0.0
N148 N 0.4266 0.34221 0.67654 0.0
N149 N 0.45168 0.14802 0.77695 0.0
H150 H 0.2363 0.05582 0.7854 0.0
H151 H 0.28966 0.04827 0.81276 0.0
H152 H 0.50732 0.17234 0.77826 0.0
H153 H 0.40871 0.08106 0.78526 0.0
H154 H 0.47893 0.40166 0.65409 0.0
H155 H 0.37663 0.3162 0.66677 0.0
H156 H 0.54553 0.46913 0.70596 0.0
H157 H 0.60665 0.45958 0.72257 0.0
C158 C 0.13738 0.2441 0.20887 0.0
C159 C 0.14305 0.24447 0.15163 0.0
C160 C 0.22274 0.40204 0.15045 0.0
C161 C 0.22778 0.4031 0.20318 0.0
N162 N 0.21277 0.323 0.27009 0.0
N163 N 0.22571 0.3293 0.05973 0.0
C164 C 0.19171 0.32346 0.22909 0.0
C165 C 0.19669 0.32513 0.11968 0.0
N166 N 0.07896 0.17092 0.24521 0.0
N167 N 0.23982 0.47287 0.13034 0.0
H168 H 0.21593 0.27503 1.03432 0.0
H169 H 0.26884 0.38829 1.03519 0.0
H170 H 0.25167 0.52874 0.15419 0.0
H171 H 0.23142 0.47108 0.09364 0.0
H172 H 0.0702 0.17151 0.28867 0.0
H173 H 0.0335 0.11278 0.23487 0.0
H174 H 0.19253 0.26578 0.287 0.0
H175 H 0.25848 0.38012 0.28112 0.0
C176 C 0.92825 0.25001 0.69026 0.0
C177 C 0.87557 0.16235 0.67656 0.0
C178 C 0.77087 0.18778 0.6995 0.0
C179 C 0.82353 0.27457 0.7129 0.0
N180 N 0.93913 0.38006 0.73818 0.0
N181 N 0.73721 0.04194 0.68646 0.0
C182 C 0.89773 0.30276 0.71414 0.0
C183 C 0.79385 0.12948 0.68678 0.0
N184 N 0.00936 0.28588 0.67672 0.0
N185 N 0.69941 0.16138 0.69802 0.0
H186 H 0.75092 0.99713 0.67998 0.0
H187 H 0.67444 0.01301 0.69891 0.0
H188 H 0.67802 0.20057 0.71027 0.0
H189 H 0.66384 0.10253 0.68148 0.0
H190 H 0.05241 0.35206 0.67879 0.0
H191 H 0.03685 0.25249 0.65884 0.0
H192 H -0.01204 0.39932 0.74703 0.0
H193 H 0.91911 0.42085 0.75483 0.0
C194 C 0.72078 0.83463 0.1822 0.0
C195 C 0.76188 0.92401 0.17155 0.0
C196 C 0.62902 0.90787 0.23235 0.0
C197 C 0.58712 0.8167 0.22975 0.0
N198 N 0.59036 0.69094 0.2069 0.0
N199 N 0.75906 0.04995 0.19304 0.0
C200 C 0.63223 0.77931 0.20741 0.0
C201 C 0.71721 0.96227 0.19975 0.0
N202 N 0.76663 0.80305 0.16745 0.0
N203 N 0.58375 0.94144 0.26501 0.0
H204 H 0.82406 0.09125 0.17221 0.0
H205 H 0.72991 0.08144 0.20673 0.0
H206 H 0.51913 0.90156 0.28921 0.0
H207 H 0.61016 0.0073 0.27228 0.0
H208 H 0.74103 0.73971 0.17779 0.0
H209 H 0.8313 0.84392 0.15044 0.0
H210 H 0.61953 0.65921 0.18499 0.0
H211 H 0.52535 0.64914 0.22682 0.0
C212 C 0.79228 0.76 0.7089 0.0
C213 C 0.87744 0.83128 0.68679 0.0
C214 C 0.90968 0.75831 0.72242 0.0
C215 C 0.82682 0.68297 0.73791 0.0
N216 N 0.68331 0.62359 0.76736 0.0
N217 N 0.00655 0.91339 0.69541 0.0
C218 C 0.76591 0.68807 0.73874 0.0
C219 C 0.93269 0.83561 0.70152 0.0
N220 N 0.73771 0.75993 0.69899 0.0
N221 N -0.03324 0.75458 0.72536 0.0
H222 H 0.02296 0.96993 0.68052 0.0
H223 H 0.0476 0.92294 0.70923 0.0
H224 H 0.94999 0.69971 0.74284 0.0
H225 H 0.0303 0.80419 0.70881 0.0
H226 H 0.67709 0.70592 0.70712 0.0
H227 H 0.75466 0.81436 0.6808 0.0
H228 H 0.63526 0.62594 0.77324 0.0
H229 H 0.6628 0.57119 0.79023 0.0
C230 C 0.1046 0.84321 0.4208 0.0
C231 C 0.1097 0.88739 0.47385 0.0
C232 C 0.18654 0.83455 0.47006 0.0
C233 C 0.16339 0.77505 0.4269 0.0
N234 N 0.08511 0.71266 0.36877 0.0
N235 N 0.13457 0.89613 0.55805 0.0
C236 C 0.11812 0.77638 0.40412 0.0
C237 C 0.14564 0.87605 0.50094 0.0
N238 N 0.0908 0.86684 0.38481 0.0
N239 N 0.24648 0.85057 0.48265 0.0
H240 H 0.09232 0.9107 0.58714 0.0
H241 H 0.15631 0.88333 0.57936 0.0
H242 H 0.27994 0.82334 0.45963 0.0
H243 H 0.26901 0.89851 0.5111 0.0
H244 H 0.0911 0.83888 0.34444 0.0
H245 H 0.09097 0.92194 0.39099 0.0
H246 H 0.04576 0.70732 0.35504 0.0
H247 H 0.0916 0.66142 0.35753 0.0
C248 C 0.26786 0.18015 0.93163 0.0
C249 C 0.23382 0.09851 0.95328 0.0
C250 C 0.37447 0.13975 0.92175 0.0
C251 C 0.40644 0.22699 0.91274 0.0
N252 N 0.38724 0.33046 0.90243 0.0
N253 N 0.25643 0.98806 0.93833 0.0
C254 C 0.35445 0.24712 0.91467 0.0
C255 C 0.28786 0.07423 0.93885 0.0
N256 N 0.21866 0.19059 0.923 0.0
N257 N 0.42649 0.12034 0.91601 0.0
H258 H 0.19449 0.93948 0.94539 0.0
H259 H 0.29288 0.96482 0.92403 0.0
H260 H 0.49102 0.16571 0.90016 0.0
H261 H 0.40569 0.06047 0.92904 0.0
H262 H 0.23968 0.24674 0.90429 0.0
H263 H 0.1599 0.13704 0.92642 0.0
H264 H 0.35113 0.35148 0.90934 0.0
H265 H 0.45097 0.37965 0.88755 0.0
C266 C 0.04368 0.22171 0.44896 0.0
C267 C 0.10045 0.21984 0.45773 0.0
C268 C 0.21605 0.3603 0.40286 0.0
C269 C 0.15793 0.3672 0.40039 0.0
N270 N 0.02233 0.29802 0.40584 0.0
N271 N 0.24147 0.27157 0.42829 0.0
C272 C 0.07345 0.29508 0.41815 0.0
C273 C 0.18721 0.28398 0.42927 0.0
N274 N 0.96107 0.15494 0.47246 0.0
N275 N 0.29815 0.42907 0.38276 0.0
H276 H 0.22095 0.2156 0.44712 0.0
H277 H 0.30591 0.31216 0.40492 0.0
H278 H 0.32145 0.48333 0.36022 0.0
H279 H 0.34272 0.43376 0.38937 0.0
H280 H 0.91403 0.15477 0.47349 0.0
H281 H 0.93974 0.09863 0.49131 0.0
H282 H 0.96079 0.24659 0.41438 0.0
H283 H 0.04437 0.35113 0.3827 0.0
C284 C 0.82163 0.21423 0.86565 0.0
C285 C 0.87421 0.27094 0.89496 0.0
C286 C 0.84632 0.37695 0.9022 0.0
C287 C 0.78403 0.31476 0.8816 0.0
N288 N 0.70844 0.17296 0.84569 0.0
N289 N 0.93181 0.40323 0.94615 0.0
C290 C 0.77107 0.23321 0.86318 0.0
C291 C 0.886 0.35197 0.91407 0.0
N292 N 0.82104 0.14312 0.83977 0.0
N293 N 0.86844 0.46046 0.90949 0.0
H294 H -0.03698 0.38822 0.95548 0.0
H295 H 0.93385 0.45756 0.96744 0.0
H296 H 0.84025 0.48109 0.90152 0.0
H297 H 0.91975 0.51111 0.91805 0.0
H298 H 0.79034 0.10377 0.81283 0.0
H299 H 0.85741 0.12782 0.8412 0.0
H300 H 0.69019 0.10909 0.83739 0.0
H301 H 0.6714 0.18569 0.8425 0.0
C302 C 0.60981 0.79572 0.37464 0.0
C303 C 0.62705 0.86522 0.41315 0.0
C304 C 0.512 0.86167 0.42146 0.0
C305 C 0.4841 0.78057 0.39438 0.0
N306 N 0.5037 0.66672 0.34755 0.0
N307 N 0.59964 0.96925 0.47124 0.0
C308 C 0.53313 0.74735 0.3703 0.0
C309 C 0.58043 0.90074 0.43522 0.0
N310 N 0.66581 0.77478 0.34359 0.0
N311 N 0.47374 0.90135 0.43315 0.0
H312 H 0.65217 1.00146 0.47943 0.0
H313 H 0.56215 0.99176 0.49459 0.0
H314 H 0.42471 0.87472 0.42203 0.0
H315 H 0.49542 0.96386 0.44849 0.0
H316 H 0.66028 0.73012 0.31046 0.0
H317 H 0.72222 0.80869 0.34672 0.0
H318 H 0.53255 0.63528 0.33586 0.0
H319 H 0.44706 0.62799 0.34427 0.0
C320 C 0.81984 0.80083 0.95201 0.0
C321 C 0.89157 0.8217 0.95396 0.0
C322 C 0.87977 0.69561 0.8964 0.0
C323 C 0.79959 0.66592 0.90531 0.0
N324 N 0.69389 0.68981 0.93726 0.0
N325 N -0.00571 0.79402 0.92535 0.0
C326 C 0.77032 0.71913 0.93111 0.0
C327 C 0.92352 0.7711 0.92462 0.0
N328 N 0.79925 0.85888 0.97003 0.0
N329 N 0.91352 0.65122 0.86131 0.0
H330 H 0.0306 0.85184 0.94247 0.0
H331 H 0.01539 0.75449 0.91135 0.0
H332 H 0.88296 0.59577 0.83997 0.0
H333 H -0.02553 0.67319 0.84892 0.0
H334 H 0.75177 0.85065 0.96524 0.0
H335 H 0.83468 0.91956 0.9849 0.0
H336 H 0.66363 0.71985 0.96216 0.0
H337 H 0.65911 0.6327 0.91882 0.0
loop_
_geom_bond_atom_site_label_1
_geom_bond_atom_site_label_2
_geom_bond_distance
_geom_bond_site_symmetry_2
_ccdc_geom_bond_type
Nd0 C2 2.836 . S
Nd0 O20 2.500 1_655 S
Nd0 O21 2.492 . S
Nd0 O22 2.487 1_546 S
Nd0 O23 2.682 1_546 S
Nd0 O24 2.410 1_656 S
Nd0 O29 2.414 1_655 S
Nd0 O31 2.424 1_545 S
Nd1 C11 2.836 1_545 S
Nd1 O23 2.414 1_445 S
Nd1 O25 2.424 . S
Nd1 O26 2.500 1_545 S
Nd1 O27 2.492 1_545 S
Nd1 O28 2.487 1_554 S
Nd1 O29 2.682 1_554 S
Nd1 O30 2.410 1_544 S
C2 Nd0 2.836 . S
C2 C3 1.498 . S
C2 O20 1.258 1_655 S
C2 O21 1.239 . S
C3 C2 1.498 . S
C3 C4 1.366 1_655 S
C3 C8 1.407 . S
C4 C3 1.366 1_455 S
C4 C5 1.392 . S
C4 H32 0.930 . S
C5 C4 1.392 . S
C5 C6 1.398 . S
C5 H33 0.929 . S
C6 C5 1.398 . S
C6 C7 1.352 1_455 S
C7 C6 1.352 1_655 S
C7 C8 1.384 . S
C7 H34 0.930 . S
C8 C3 1.407 . S
C8 C7 1.384 . S
C8 H35 0.929 . S
C9 O22 1.241 . S
C9 O23 1.273 . S
C10 O24 1.251 . S
C10 O25 1.268 . S
C11 Nd1 2.836 1_565 S
C11 C12 1.498 . S
C11 O26 1.258 . S
C11 O27 1.239 . S
C12 C11 1.498 . S
C12 C13 1.366 1_455 S
C12 C17 1.407 . S
C13 C12 1.366 1_655 S
C13 C14 1.392 . S
C13 H36 0.930 . S
C14 C13 1.392 . S
C14 C15 1.398 1_655 S
C14 H37 0.929 . S
C15 C14 1.398 1_455 S
C15 C16 1.352 . S
C16 C15 1.352 . S
C16 C17 1.384 . S
C16 H38 0.930 . S
C17 C12 1.407 . S
C17 C16 1.384 . S
C17 H39 0.929 . S
C18 O28 1.241 . S
C18 O29 1.273 . S
C19 O30 1.251 1_655 S
C19 O31 1.268 . S
O20 Nd0 2.500 1_455 S
O20 C2 1.258 1_455 S
O21 Nd0 2.492 . S
O21 C2 1.239 . S
O22 Nd0 2.487 1_564 S
O22 C9 1.241 . S
O23 Nd0 2.682 1_564 S
O23 Nd1 2.414 1_665 S
O23 C9 1.273 . S
O24 Nd0 2.410 1_454 S
O24 C10 1.251 . S
O25 Nd1 2.424 . S
O25 C10 1.268 . S
O26 Nd1 2.500 1_565 S
O26 C11 1.258 . S
O27 Nd1 2.492 1_565 S
O27 C11 1.239 . S
O28 Nd1 2.487 1_556 S
O28 C18 1.241 . S
O29 Nd0 2.414 1_455 S
O29 Nd1 2.682 1_556 S
O29 C18 1.273 . S
O30 Nd1 2.410 1_566 S
O30 C19 1.251 1_455 S
O31 Nd0 2.424 1_565 S
O31 C19 1.268 . S
H32 C4 0.930 . S
H33 C5 0.929 . S
H34 C7 0.930 . S
H35 C8 0.929 . S
H36 C13 0.930 . S
H37 C14 0.929 . S
H38 C16 0.930 . S
H39 C17 0.929 . S
Nd40 C42 2.836 . S
Nd40 O60 2.500 . S
Nd40 O61 2.492 . S
Nd40 O62 2.487 . S
Nd40 O63 2.682 1_655 S
Nd40 O64 2.410 . S
Nd40 O69 2.414 1_665 S
Nd40 O71 2.424 1_655 S
Nd41 C51 2.836 . S
Nd41 O63 2.414 1_545 S
Nd41 O65 2.424 . S
Nd41 O66 2.500 . S
Nd41 O67 2.492 . S
Nd41 O68 2.487 . S
Nd41 O69 2.682 . S
Nd41 O70 2.410 . S
C42 Nd40 2.836 . S
C42 C43 1.498 . S
C42 O60 1.258 . S
C42 O61 1.239 . S
C43 C42 1.498 . S
C43 C44 1.366 . S
C43 C48 1.407 . S
C44 C43 1.366 . S
C44 C45 1.392 . S
C44 H72 0.930 1_565 S
C45 C44 1.392 . S
C45 C46 1.398 . S
C45 H73 0.929 . S
C46 C45 1.398 . S
C46 C47 1.352 . S
C47 C46 1.352 . S
C47 C48 1.384 . S
C47 H74 0.930 . S
C48 C43 1.407 . S
C48 C47 1.384 . S
C48 H75 0.929 . S
C49 O62 1.241 . S
C49 O63 1.273 1_655 S
C50 O64 1.250 1_545 S
C50 O65 1.268 1_655 S
C51 Nd41 2.836 . S
C51 C52 1.498 . S
C51 O66 1.258 . S
C51 O67 1.239 . S
C52 C51 1.498 . S
C52 C53 1.366 . S
C52 C57 1.407 . S
C53 C52 1.366 . S
C53 C54 1.392 . S
C53 H76 0.930 . S
C54 C53 1.392 . S
C54 C55 1.398 . S
C54 H77 0.929 . S
C55 C54 1.398 . S
C55 C56 1.352 . S
C56 C55 1.352 . S
C56 C57 1.384 . S
C56 H78 0.930 . S
C57 C52 1.407 . S
C57 C56 1.384 . S
C57 H79 0.929 . S
C58 O68 1.241 . S
C58 O69 1.273 . S
C59 O70 1.251 1_565 S
C59 O71 1.268 . S
O60 Nd40 2.500 . S
O60 C42 1.258 . S
O61 Nd40 2.492 . S
O61 C42 1.239 . S
O62 Nd40 2.487 . S
O62 C49 1.241 . S
O63 Nd40 2.682 1_455 S
O63 Nd41 2.414 1_565 S
O63 C49 1.273 1_455 S
O64 Nd40 2.410 . S
O64 C50 1.250 1_565 S
O65 Nd41 2.424 . S
O65 C50 1.268 1_455 S
O66 Nd41 2.500 . S
O66 C51 1.258 . S
O67 Nd41 2.492 . S
O67 C51 1.239 . S
O68 Nd41 2.487 . S
O68 C58 1.241 . S
O69 Nd40 2.414 1_445 S
O69 Nd41 2.682 . S
O69 C58 1.273 . S
O70 Nd41 2.410 . S
O70 C59 1.251 1_545 S
O71 Nd40 2.424 1_455 S
O71 C59 1.268 . S
H72 C44 0.930 1_545 S
H73 C45 0.929 . S
H74 C47 0.930 . S
H75 C48 0.929 . S
H76 C53 0.930 . S
H77 C54 0.929 . S
H78 C56 0.930 . S
H79 C57 0.929 . S
Zn80 O86 1.920 . S
Zn80 O92 1.898 . S
Zn80 O95 1.905 . S
Zn81 O89 1.905 . S
Zn81 O90 1.898 . S
Zn81 O98 1.920 . S
Zn82 O85 2.080 . S
Zn82 O88 2.114 . S
Zn82 O91 2.120 . S
Zn82 O93 2.120 . S
Zn82 O94 2.114 . S
Zn82 O97 2.080 . S
C83 O88 1.166 . S
C83 O89 1.182 . S
C84 O90 1.167 . S
C84 O91 1.299 . S
O85 Zn82 2.080 . S
O85 C99 1.305 . S
O86 Zn80 1.920 . S
O86 C99 1.234 . S
C87 O92 1.167 . S
C87 O93 1.299 . S
O88 Zn82 2.114 . S
O88 C83 1.166 . S
O89 Zn81 1.905 . S
O89 C83 1.182 . S
O90 Zn81 1.898 . S
O90 C84 1.167 . S
O91 Zn82 2.120 . S
O91 C84 1.299 . S
O92 Zn80 1.898 . S
O92 C87 1.167 . S
O93 Zn82 2.120 . S
O93 C87 1.299 . S
O94 Zn82 2.114 . S
O94 C96 1.166 . S
O95 Zn80 1.905 . S
O95 C96 1.182 . S
C96 O94 1.166 . S
C96 O95 1.182 . S
O97 Zn82 2.080 . S
O97 C100 1.305 . S
O98 Zn81 1.920 . S
O98 C100 1.234 . S
C99 O85 1.305 . S
C99 O86 1.234 . S
C100 O97 1.305 . S
C100 O98 1.234 . S
Zn101 O107 1.920 . S
Zn101 O113 1.898 . S
Zn101 O116 1.905 . S
Zn102 O110 1.905 . S
Zn102 O111 1.898 . S
Zn102 O119 1.920 . S
Zn103 O106 2.080 . S
Zn103 O109 2.114 . S
Zn103 O112 2.120 . S
Zn103 O114 2.120 . S
Zn103 O115 2.114 . S
Zn103 O118 2.080 . S
C104 O109 1.166 . S
C104 O110 1.182 . S
C105 O111 1.167 . S
C105 O112 1.299 . S
O106 Zn103 2.080 . S
O106 C120 1.305 . S
O107 Zn101 1.920 . S
O107 C120 1.234 . S
C108 O113 1.167 . S
C108 O114 1.299 . S
O109 Zn103 2.114 . S
O109 C104 1.166 . S
O110 Zn102 1.905 . S
O110 C104 1.182 . S
O111 Zn102 1.898 . S
O111 C105 1.167 . S
O112 Zn103 2.120 . S
O112 C105 1.299 . S
O113 Zn101 1.898 . S
O113 C108 1.167 . S
O114 Zn103 2.120 . S
O114 C108 1.299 . S
O115 Zn103 2.114 . S
O115 C117 1.166 . S
O116 Zn101 1.905 . S
O116 C117 1.182 . S
C117 O115 1.166 . S
C117 O116 1.182 . S
O118 Zn103 2.080 . S
O118 C121 1.305 . S
O119 Zn102 1.920 . S
O119 C121 1.234 . S
C120 O106 1.305 . S
C120 O107 1.234 . S
C121 O118 1.305 . S
C121 O119 1.234 . S
C122 C123 1.363 . S
C122 C128 1.379 . S
C122 N130 1.356 1_455 S
C123 C122 1.363 . S
C123 C129 1.363 . S
C124 C125 1.363 . S
C124 C129 1.379 . S
C124 N131 1.356 . S
C125 C124 1.363 . S
C125 C128 1.363 . S
N126 C128 1.356 . S
N126 H138 0.984 . S
N126 H139 0.985 . S
N127 C129 1.356 . S
N127 H132 0.984 . S
N127 H133 0.985 . S
C128 C122 1.379 . S
C128 C125 1.363 . S
C128 N126 1.356 . S
C129 C123 1.363 . S
C129 C124 1.379 . S
C129 N127 1.356 . S
N130 C122 1.356 1_655 S
N130 H136 0.984 . S
N130 H137 0.984 . S
N131 C124 1.356 . S
N131 H134 0.984 . S
N131 H135 0.985 . S
H132 N127 0.984 . S
H133 N127 0.985 . S
H134 N131 0.984 . S
H135 N131 0.985 . S
H136 N130 0.984 . S
H137 N130 0.984 . S
H138 N126 0.984 . S
H139 N126 0.985 . S
C140 C141 1.363 . S
C140 C146 1.379 . S
C140 N148 1.356 . S
C141 C140 1.363 . S
C141 C147 1.363 . S
C142 C143 1.363 . S
C142 C147 1.379 . S
C142 N149 1.356 . S
C143 C142 1.363 . S
C143 C146 1.363 . S
N144 C146 1.356 . S
N144 H156 0.984 . S
N144 H157 0.985 . S
N145 C147 1.356 . S
N145 H150 0.984 . S
N145 H151 0.985 . S
C146 C140 1.379 . S
C146 C143 1.363 . S
C146 N144 1.356 . S
C147 C141 1.363 . S
C147 C142 1.379 . S
C147 N145 1.356 . S
N148 C140 1.356 . S
N148 H154 0.984 . S
N148 H155 0.984 . S
N149 C142 1.356 . S
N149 H152 0.984 . S
N149 H153 0.985 . S
H150 N145 0.984 . S
H151 N145 0.985 . S
H152 N149 0.984 . S
H153 N149 0.985 . S
H154 N148 0.984 . S
H155 N148 0.984 . S
H156 N144 0.984 . S
H157 N144 0.985 . S
C158 C159 1.363 . S
C158 C164 1.379 . S
C158 N166 1.356 . S
C159 C158 1.363 . S
C159 C165 1.363 . S
C160 C161 1.363 . S
C160 C165 1.379 . S
C160 N167 1.356 . S
C161 C160 1.363 . S
C161 C164 1.363 . S
N162 C164 1.356 . S
N162 H174 0.984 . S
N162 H175 0.985 . S
N163 C165 1.356 . S
N163 H168 0.984 . S
N163 H169 0.985 . S
C164 C158 1.379 . S
C164 C161 1.363 . S
C164 N162 1.356 . S
C165 C159 1.363 . S
C165 C160 1.379 . S
C165 N163 1.356 . S
N166 C158 1.356 . S
N166 H172 0.984 . S
N166 H173 0.984 . S
N167 C160 1.356 . S
N167 H170 0.984 . S
N167 H171 0.985 . S
H168 N163 0.984 . S
H169 N163 0.985 . S
H170 N167 0.984 . S
H171 N167 0.985 . S
H172 N166 0.984 . S
H173 N166 0.984 . S
H174 N162 0.984 . S
H175 N162 0.985 . S
C176 C177 1.363 . S
C176 C182 1.379 . S
C176 N184 1.356 1_655 S
C177 C176 1.363 . S
C177 C183 1.363 . S
C178 C179 1.363 . S
C178 C183 1.379 . S
C178 N185 1.356 . S
C179 C178 1.363 . S
C179 C182 1.363 . S
N180 C182 1.356 1_455 S
N180 H192 0.984 . S
N180 H193 0.985 1_455 S
N181 C183 1.356 . S
N181 H186 0.984 . S
N181 H187 0.985 . S
C182 C176 1.379 . S
C182 C179 1.363 . S
C182 N180 1.356 1_655 S
C183 C177 1.363 . S
C183 C178 1.379 . S
C183 N181 1.356 . S
N184 C176 1.356 1_455 S
N184 H190 0.984 . S
N184 H191 0.984 1_455 S
N185 C178 1.356 . S
N185 H188 0.984 . S
N185 H189 0.985 . S
H186 N181 0.984 . S
H187 N181 0.985 . S
H188 N185 0.984 . S
H189 N185 0.985 . S
H190 N184 0.984 . S
H191 N184 0.984 1_655 S
H192 N180 0.984 . S
H193 N180 0.985 1_655 S
C194 C195 1.363 . S
C194 C200 1.379 . S
C194 N202 1.356 . S
C195 C194 1.363 . S
C195 C201 1.363 . S
C196 C197 1.363 . S
C196 C201 1.379 . S
C196 N203 1.356 . S
C197 C196 1.363 . S
C197 C200 1.363 . S
N198 C200 1.356 . S
N198 H210 0.984 . S
N198 H211 0.985 . S
N199 C201 1.356 . S
N199 H204 0.984 . S
N199 H205 0.985 . S
C200 C194 1.379 . S
C200 C197 1.363 . S
C200 N198 1.356 . S
C201 C195 1.363 . S
C201 C196 1.379 . S
C201 N199 1.356 . S
N202 C194 1.356 . S
N202 H208 0.984 . S
N202 H209 0.984 . S
N203 C196 1.356 . S
N203 H206 0.984 . S
N203 H207 0.985 . S
H204 N199 0.984 . S
H205 N199 0.985 . S
H206 N203 0.984 . S
H207 N203 0.985 . S
H208 N202 0.984 . S
H209 N202 0.984 . S
H210 N198 0.984 . S
H211 N198 0.985 . S
C212 C213 1.363 . S
C212 C218 1.379 . S
C212 N220 1.356 . S
C213 C212 1.363 . S
C213 C219 1.363 . S
C214 C215 1.363 . S
C214 C219 1.379 . S
C214 N221 1.356 . S
C215 C214 1.363 . S
C215 C218 1.363 . S
N216 C218 1.356 . S
N216 H228 0.984 . S
N216 H229 0.985 . S
N217 C219 1.356 1_455 S
N217 H222 0.984 . S
N217 H223 0.985 . S
C218 C212 1.379 . S
C218 C215 1.363 . S
C218 N216 1.356 . S
C219 C213 1.363 . S
C219 C214 1.379 . S
C219 N217 1.356 1_655 S
N220 C212 1.356 . S
N220 H226 0.984 . S
N220 H227 0.984 . S
N221 C214 1.356 . S
N221 H224 0.984 . S
N221 H225 0.985 1_655 S
H222 N217 0.984 . S
H223 N217 0.985 . S
H224 N221 0.984 . S
H225 N221 0.985 1_455 S
H226 N220 0.984 . S
H227 N220 0.984 . S
H228 N216 0.984 . S
H229 N216 0.985 . S
C230 C231 1.363 . S
C230 C236 1.379 . S
C230 N238 1.356 . S
C231 C230 1.363 . S
C231 C237 1.363 . S
C232 C233 1.363 . S
C232 C237 1.379 . S
C232 N239 1.356 . S
C233 C232 1.363 . S
C233 C236 1.363 . S
N234 C236 1.356 . S
N234 H246 0.984 . S
N234 H247 0.985 . S
N235 C237 1.356 . S
N235 H240 0.984 . S
N235 H241 0.985 . S
C236 C230 1.379 . S
C236 C233 1.363 . S
C236 N234 1.356 . S
C237 C231 1.363 . S
C237 C232 1.379 . S
C237 N235 1.356 . S
N238 C230 1.356 . S
N238 H244 0.984 . S
N238 H245 0.984 . S
N239 C232 1.356 . S
N239 H242 0.984 . S
N239 H243 0.985 . S
H240 N235 0.984 . S
H241 N235 0.985 . S
H242 N239 0.984 . S
H243 N239 0.985 . S
H244 N238 0.984 . S
H245 N238 0.984 . S
H246 N234 0.984 . S
H247 N234 0.985 . S
C248 C249 1.363 . S
C248 C254 1.379 . S
C248 N256 1.356 . S
C249 C248 1.363 . S
C249 C255 1.363 . S
C250 C251 1.363 . S
C250 C255 1.379 . S
C250 N257 1.356 . S
C251 C250 1.363 . S
C251 C254 1.363 . S
N252 C254 1.356 . S
N252 H264 0.984 . S
N252 H265 0.985 . S
N253 C255 1.356 . S
N253 H258 0.984 . S
N253 H259 0.985 . S
C254 C248 1.379 . S
C254 C251 1.363 . S
C254 N252 1.356 . S
C255 C249 1.363 . S
C255 C250 1.379 . S
C255 N253 1.356 . S
N256 C248 1.356 . S
N256 H262 0.984 1_556 S
N256 H263 0.984 . S
N257 C250 1.356 . S
N257 H260 0.984 . S
N257 H261 0.985 . S
H258 N253 0.984 . S
H259 N253 0.985 . S
H260 N257 0.984 . S
H261 N257 0.985 . S
H262 N256 0.984 1_554 S
H263 N256 0.984 . S
H264 N252 0.984 . S
H265 N252 0.985 . S
C266 C267 1.363 . S
C266 C272 1.379 . S
C266 N274 1.356 . S
C267 C266 1.363 . S
C267 C273 1.363 . S
C268 C269 1.363 . S
C268 C273 1.379 . S
C268 N275 1.356 . S
C269 C268 1.363 . S
C269 C272 1.363 . S
N270 C272 1.356 . S
N270 H282 0.984 1_455 S
N270 H283 0.985 . S
N271 C273 1.356 . S
N271 H276 0.984 . S
N271 H277 0.985 . S
C272 C266 1.379 . S
C272 C269 1.363 . S
C272 N270 1.356 . S
C273 C267 1.363 . S
C273 C268 1.379 . S
C273 N271 1.356 . S
N274 C266 1.356 . S
N274 H280 0.984 1_455 S
N274 H281 0.984 . S
N275 C268 1.356 . S
N275 H278 0.984 . S
N275 H279 0.985 . S
H276 N271 0.984 . S
H277 N271 0.985 . S
H278 N275 0.984 . S
H279 N275 0.985 . S
H280 N274 0.984 1_655 S
H281 N274 0.984 . S
H282 N270 0.984 1_655 S
H283 N270 0.985 . S
C284 C285 1.363 . S
C284 C290 1.379 . S
C284 N292 1.356 . S
C285 C284 1.363 . S
C285 C291 1.363 . S
C286 C287 1.363 . S
C286 C291 1.379 . S
C286 N293 1.356 . S
C287 C286 1.363 . S
C287 C290 1.363 . S
N288 C290 1.356 . S
N288 H300 0.984 . S
N288 H301 0.985 . S
N289 C291 1.356 1_455 S
N289 H294 0.984 . S
N289 H295 0.985 . S
C290 C284 1.379 . S
C290 C287 1.363 . S
C290 N288 1.356 . S
C291 C285 1.363 . S
C291 C286 1.379 . S
C291 N289 1.356 1_655 S
N292 C284 1.356 . S
N292 H298 0.984 . S
N292 H299 0.984 . S
N293 C286 1.356 . S
N293 H296 0.984 . S
N293 H297 0.985 . S
H294 N289 0.984 . S
H295 N289 0.985 . S
H296 N293 0.984 . S
H297 N293 0.985 . S
H298 N292 0.984 . S
H299 N292 0.984 . S
H300 N288 0.984 . S
H301 N288 0.985 . S
C302 C303 1.363 . S
C302 C308 1.379 . S
C302 N310 1.356 . S
C303 C302 1.363 . S
C303 C309 1.363 . S
C304 C305 1.363 . S
C304 C309 1.379 . S
C304 N311 1.356 . S
C305 C304 1.363 . S
C305 C308 1.363 . S
N306 C308 1.356 . S
N306 H318 0.984 . S
N306 H319 0.985 . S
N307 C309 1.356 . S
N307 H312 0.984 . S
N307 H313 0.985 . S
C308 C302 1.379 . S
C308 C305 1.363 . S
C308 N306 1.356 . S
C309 C303 1.363 . S
C309 C304 1.379 . S
C309 N307 1.356 . S
N310 C302 1.356 . S
N310 H316 0.984 . S
N310 H317 0.984 . S
N311 C304 1.356 . S
N311 H314 0.984 . S
N311 H315 0.985 . S
H312 N307 0.984 . S
H313 N307 0.985 . S
H314 N311 0.984 . S
H315 N311 0.985 . S
H316 N310 0.984 . S
H317 N310 0.984 . S
H318 N306 0.984 . S
H319 N306 0.985 . S
C320 C321 1.363 . S
C320 C326 1.379 . S
C320 N328 1.356 . S
C321 C320 1.363 . S
C321 C327 1.363 . S
C322 C323 1.363 . S
C322 C327 1.379 . S
C322 N329 1.356 . S
C323 C322 1.363 . S
C323 C326 1.363 . S
N324 C326 1.356 . S
N324 H336 0.984 . S
N324 H337 0.985 . S
N325 C327 1.356 1_455 S
N325 H330 0.984 . S
N325 H331 0.985 . S
C326 C320 1.379 . S
C326 C323 1.363 . S
C326 N324 1.356 . S
C327 C321 1.363 . S
C327 C322 1.379 . S
C327 N325 1.356 1_655 S
N328 C320 1.356 . S
N328 H334 0.984 . S
N328 H335 0.984 . S
N329 C322 1.356 . S
N329 H332 0.984 . S
N329 H333 0.985 . S
H330 N325 0.984 . S
H331 N325 0.985 . S
H332 N329 0.984 . S
H333 N329 0.985 . S
H334 N328 0.984 . S
H335 N328 0.984 . S
H336 N324 0.984 . S
H337 N324 0.985 . S
C123 C15 1.540 . S
C125 C99 1.489 . S
C141 C55 1.071 . S
C143 C105 0.969 . S
C159 C10 1.560 . S
C161 C96 1.402 . S
C177 C50 2.153 . S
C179 C121 2.046 . S
C195 C9 1.973 . S
C197 C87 2.036 . S
C215 C104 1.813 . S
C213 C49 1.921 . S
C231 C59 1.773 . S
C233 C100 1.729 . S
C251 C117 2.244 . S
C249 C18 2.253 . S
C269 C84 2.125 . S
C267 C58 2.375 . S
C287 C120 1.642 . S
C285 C6 1.752 1_655 S
C305 C83 1.049 . S
C303 C46 1.168 . S
C323 C108 1.103 . S
C321 C19 1.210 . S
