# Generated by pormake.
# Topology gar, (4,6)-cn, num edge types: 1
# Building blocks:
#     Node 0, Type 0, BuildingBlock: GALJAG_clean_sbu_0, # of connection points: 4
#     Node 1, Type 0, BuildingBlock: GALJAG_clean_sbu_0, # of connection points: 4
#     Node 2, Type 0, BuildingBlock: GALJAG_clean_sbu_0, # of connection points: 4
#     Node 3, Type 0, BuildingBlock: GALJAG_clean_sbu_0, # of connection points: 4
#     Node 4, Type 0, BuildingBlock: GALJAG_clean_sbu_0, # of connection points: 4
#     Node 5, Type 0, BuildingBlock: GALJAG_clean_sbu_0, # of connection points: 4
#     Node 6, Type 0, BuildingBlock: GALJAG_clean_sbu_0, # of connection points: 4
#     Node 7, Type 0, BuildingBlock: GALJAG_clean_sbu_0, # of connection points: 4
#     Node 8, Type 0, BuildingBlock: GALJAG_clean_sbu_0, # of connection points: 4
#     Node 9, Type 0, BuildingBlock: GALJAG_clean_sbu_0, # of connection points: 4
#     Node 10, Type 0, BuildingBlock: GALJAG_clean_sbu_0, # of connection points: 4
#     Node 11, Type 0, BuildingBlock: GALJAG_clean_sbu_0, # of connection points: 4
#     Node 12, Type 0, BuildingBlock: GALJAG_clean_sbu_0, # of connection points: 4
#     Node 13, Type 0, BuildingBlock: GALJAG_clean_sbu_0, # of connection points: 4
#     Node 14, Type 0, BuildingBlock: GALJAG_clean_sbu_0, # of connection points: 4
#     Node 15, Type 0, BuildingBlock: GALJAG_clean_sbu_0, # of connection points: 4
#     Node 16, Type 0, BuildingBlock: GALJAG_clean_sbu_0, # of connection points: 4
#     Node 17, Type 0, BuildingBlock: GALJAG_clean_sbu_0, # of connection points: 4
#     Node 18, Type 0, BuildingBlock: GALJAG_clean_sbu_0, # of connection points: 4
#     Node 19, Type 0, BuildingBlock: GALJAG_clean_sbu_0, # of connection points: 4
#     Node 20, Type 0, BuildingBlock: GALJAG_clean_sbu_0, # of connection points: 4
#     Node 21, Type 0, BuildingBlock: GALJAG_clean_sbu_0, # of connection points: 4
#     Node 22, Type 0, BuildingBlock: GALJAG_clean_sbu_0, # of connection points: 4
#     Node 23, Type 0, BuildingBlock: GALJAG_clean_sbu_0, # of connection points: 4
#     Node 24, Type 1, BuildingBlock: CUKXOW_clean_sbu_0, # of connection points: 6
#     Node 25, Type 1, BuildingBlock: CUKXOW_clean_sbu_0, # of connection points: 6
#     Node 26, Type 1, BuildingBlock: CUKXOW_clean_sbu_0, # of connection points: 6
#     Node 27, Type 1, BuildingBlock: CUKXOW_clean_sbu_0, # of connection points: 6
#     Node 28, Type 1, BuildingBlock: CUKXOW_clean_sbu_0, # of connection points: 6
#     Node 29, Type 1, BuildingBlock: CUKXOW_clean_sbu_0, # of connection points: 6
#     Node 30, Type 1, BuildingBlock: CUKXOW_clean_sbu_0, # of connection points: 6
#     Node 31, Type 1, BuildingBlock: CUKXOW_clean_sbu_0, # of connection points: 6
#     Node 32, Type 1, BuildingBlock: CUKXOW_clean_sbu_0, # of connection points: 6
#     Node 33, Type 1, BuildingBlock: CUKXOW_clean_sbu_0, # of connection points: 6
#     Node 34, Type 1, BuildingBlock: CUKXOW_clean_sbu_0, # of connection points: 6
#     Node 35, Type 1, BuildingBlock: CUKXOW_clean_sbu_0, # of connection points: 6
#     Node 36, Type 1, BuildingBlock: CUKXOW_clean_sbu_0, # of connection points: 6
#     Node 37, Type 1, BuildingBlock: CUKXOW_clean_sbu_0, # of connection points: 6
#     Node 38, Type 1, BuildingBlock: CUKXOW_clean_sbu_0, # of connection points: 6
#     Node 39, Type 1, BuildingBlock: CUKXOW_clean_sbu_0, # of connection points: 6
#     Edge 40, Type (0, 1), BuildingBlock: TEMPAE_clean_linker_10, # of connection points: 2
#     Edge 41, Type (0, 1), BuildingBlock: TEMPAE_clean_linker_10, # of connection points: 2
#     Edge 42, Type (0, 1), BuildingBlock: TEMPAE_clean_linker_10, # of connection points: 2
#     Edge 43, Type (0, 1), BuildingBlock: TEMPAE_clean_linker_10, # of connection points: 2
#     Edge 44, Type (0, 1), BuildingBlock: TEMPAE_clean_linker_10, # of connection points: 2
#     Edge 45, Type (0, 1), BuildingBlock: TEMPAE_clean_linker_10, # of connection points: 2
#     Edge 46, Type (0, 1), BuildingBlock: TEMPAE_clean_linker_10, # of connection points: 2
#     Edge 47, Type (0, 1), BuildingBlock: TEMPAE_clean_linker_10, # of connection points: 2
#     Edge 48, Type (0, 1), BuildingBlock: TEMPAE_clean_linker_10, # of connection points: 2
#     Edge 49, Type (0, 1), BuildingBlock: TEMPAE_clean_linker_10, # of connection points: 2
#     Edge 50, Type (0, 1), BuildingBlock: TEMPAE_clean_linker_10, # of connection points: 2
#     Edge 51, Type (0, 1), BuildingBlock: TEMPAE_clean_linker_10, # of connection points: 2
#     Edge 52, Type (0, 1), BuildingBlock: TEMPAE_clean_linker_10, # of connection points: 2
#     Edge 53, Type (0, 1), BuildingBlock: TEMPAE_clean_linker_10, # of connection points: 2
#     Edge 54, Type (0, 1), BuildingBlock: TEMPAE_clean_linker_10, # of connection points: 2
#     Edge 55, Type (0, 1), BuildingBlock: TEMPAE_clean_linker_10, # of connection points: 2
#     Edge 56, Type (0, 1), BuildingBlock: TEMPAE_clean_linker_10, # of connection points: 2
#     Edge 57, Type (0, 1), BuildingBlock: TEMPAE_clean_linker_10, # of connection points: 2
#     Edge 58, Type (0, 1), BuildingBlock: TEMPAE_clean_linker_10, # of connection points: 2
#     Edge 59, Type (0, 1), BuildingBlock: TEMPAE_clean_linker_10, # of connection points: 2
#     Edge 60, Type (0, 1), BuildingBlock: TEMPAE_clean_linker_10, # of connection points: 2
#     Edge 61, Type (0, 1), BuildingBlock: TEMPAE_clean_linker_10, # of connection points: 2
#     Edge 62, Type (0, 1), BuildingBlock: TEMPAE_clean_linker_10, # of connection points: 2
#     Edge 63, Type (0, 1), BuildingBlock: TEMPAE_clean_linker_10, # of connection points: 2
#     Edge 64, Type (0, 1), BuildingBlock: TEMPAE_clean_linker_10, # of connection points: 2
#     Edge 65, Type (0, 1), BuildingBlock: TEMPAE_clean_linker_10, # of connection points: 2
#     Edge 66, Type (0, 1), BuildingBlock: TEMPAE_clean_linker_10, # of connection points: 2
#     Edge 67, Type (0, 1), BuildingBlock: TEMPAE_clean_linker_10, # of connection points: 2
#     Edge 68, Type (0, 1), BuildingBlock: TEMPAE_clean_linker_10, # of connection points: 2
#     Edge 69, Type (0, 1), BuildingBlock: TEMPAE_clean_linker_10, # of connection points: 2
#     Edge 70, Type (0, 1), BuildingBlock: TEMPAE_clean_linker_10, # of connection points: 2
#     Edge 71, Type (0, 1), BuildingBlock: TEMPAE_clean_linker_10, # of connection points: 2
#     Edge 72, Type (0, 1), BuildingBlock: TEMPAE_clean_linker_10, # of connection points: 2
#     Edge 73, Type (0, 1), BuildingBlock: TEMPAE_clean_linker_10, # of connection points: 2
#     Edge 74, Type (0, 1), BuildingBlock: TEMPAE_clean_linker_10, # of connection points: 2
#     Edge 75, Type (0, 1), BuildingBlock: TEMPAE_clean_linker_10, # of connection points: 2
#     Edge 76, Type (0, 1), BuildingBlock: TEMPAE_clean_linker_10, # of connection points: 2
#     Edge 77, Type (0, 1), BuildingBlock: TEMPAE_clean_linker_10, # of connection points: 2
#     Edge 78, Type (0, 1), BuildingBlock: TEMPAE_clean_linker_10, # of connection points: 2
#     Edge 79, Type (0, 1), BuildingBlock: TEMPAE_clean_linker_10, # of connection points: 2
#     Edge 80, Type (0, 1), BuildingBlock: TEMPAE_clean_linker_10, # of connection points: 2
#     Edge 81, Type (0, 1), BuildingBlock: TEMPAE_clean_linker_10, # of connection points: 2
#     Edge 82, Type (0, 1), BuildingBlock: TEMPAE_clean_linker_10, # of connection points: 2
#     Edge 83, Type (0, 1), BuildingBlock: TEMPAE_clean_linker_10, # of connection points: 2
#     Edge 84, Type (0, 1), BuildingBlock: TEMPAE_clean_linker_10, # of connection points: 2
#     Edge 85, Type (0, 1), BuildingBlock: TEMPAE_clean_linker_10, # of connection points: 2
#     Edge 86, Type (0, 1), BuildingBlock: TEMPAE_clean_linker_10, # of connection points: 2
#     Edge 87, Type (0, 1), BuildingBlock: TEMPAE_clean_linker_10, # of connection points: 2
#     Edge 88, Type (0, 1), BuildingBlock: TEMPAE_clean_linker_10, # of connection points: 2
#     Edge 89, Type (0, 1), BuildingBlock: TEMPAE_clean_linker_10, # of connection points: 2
#     Edge 90, Type (0, 1), BuildingBlock: TEMPAE_clean_linker_10, # of connection points: 2
#     Edge 91, Type (0, 1), BuildingBlock: TEMPAE_clean_linker_10, # of connection points: 2
#     Edge 92, Type (0, 1), BuildingBlock: TEMPAE_clean_linker_10, # of connection points: 2
#     Edge 93, Type (0, 1), BuildingBlock: TEMPAE_clean_linker_10, # of connection points: 2
#     Edge 94, Type (0, 1), BuildingBlock: TEMPAE_clean_linker_10, # of connection points: 2
#     Edge 95, Type (0, 1), BuildingBlock: TEMPAE_clean_linker_10, # of connection points: 2
#     Edge 96, Type (0, 1), BuildingBlock: TEMPAE_clean_linker_10, # of connection points: 2
#     Edge 97, Type (0, 1), BuildingBlock: TEMPAE_clean_linker_10, # of connection points: 2
#     Edge 98, Type (0, 1), BuildingBlock: TEMPAE_clean_linker_10, # of connection points: 2
#     Edge 99, Type (0, 1), BuildingBlock: TEMPAE_clean_linker_10, # of connection points: 2
#     Edge 100, Type (0, 1), BuildingBlock: TEMPAE_clean_linker_10, # of connection points: 2
#     Edge 101, Type (0, 1), BuildingBlock: TEMPAE_clean_linker_10, # of connection points: 2
#     Edge 102, Type (0, 1), BuildingBlock: TEMPAE_clean_linker_10, # of connection points: 2
#     Edge 103, Type (0, 1), BuildingBlock: TEMPAE_clean_linker_10, # of connection points: 2
#     Edge 104, Type (0, 1), BuildingBlock: TEMPAE_clean_linker_10, # of connection points: 2
#     Edge 105, Type (0, 1), BuildingBlock: TEMPAE_clean_linker_10, # of connection points: 2
#     Edge 106, Type (0, 1), BuildingBlock: TEMPAE_clean_linker_10, # of connection points: 2
#     Edge 107, Type (0, 1), BuildingBlock: TEMPAE_clean_linker_10, # of connection points: 2
#     Edge 108, Type (0, 1), BuildingBlock: TEMPAE_clean_linker_10, # of connection points: 2
#     Edge 109, Type (0, 1), BuildingBlock: TEMPAE_clean_linker_10, # of connection points: 2
#     Edge 110, Type (0, 1), BuildingBlock: TEMPAE_clean_linker_10, # of connection points: 2
#     Edge 111, Type (0, 1), BuildingBlock: TEMPAE_clean_linker_10, # of connection points: 2
#     Edge 112, Type (0, 1), BuildingBlock: TEMPAE_clean_linker_10, # of connection points: 2
#     Edge 113, Type (0, 1), BuildingBlock: TEMPAE_clean_linker_10, # of connection points: 2
#     Edge 114, Type (0, 1), BuildingBlock: TEMPAE_clean_linker_10, # of connection points: 2
#     Edge 115, Type (0, 1), BuildingBlock: TEMPAE_clean_linker_10, # of connection points: 2
#     Edge 116, Type (0, 1), BuildingBlock: TEMPAE_clean_linker_10, # of connection points: 2
#     Edge 117, Type (0, 1), BuildingBlock: TEMPAE_clean_linker_10, # of connection points: 2
#     Edge 118, Type (0, 1), BuildingBlock: TEMPAE_clean_linker_10, # of connection points: 2
#     Edge 119, Type (0, 1), BuildingBlock: TEMPAE_clean_linker_10, # of connection points: 2
#     Edge 120, Type (0, 1), BuildingBlock: TEMPAE_clean_linker_10, # of connection points: 2
#     Edge 121, Type (0, 1), BuildingBlock: TEMPAE_clean_linker_10, # of connection points: 2
#     Edge 122, Type (0, 1), BuildingBlock: TEMPAE_clean_linker_10, # of connection points: 2
#     Edge 123, Type (0, 1), BuildingBlock: TEMPAE_clean_linker_10, # of connection points: 2
#     Edge 124, Type (0, 1), BuildingBlock: TEMPAE_clean_linker_10, # of connection points: 2
#     Edge 125, Type (0, 1), BuildingBlock: TEMPAE_clean_linker_10, # of connection points: 2
#     Edge 126, Type (0, 1), BuildingBlock: TEMPAE_clean_linker_10, # of connection points: 2
#     Edge 127, Type (0, 1), BuildingBlock: TEMPAE_clean_linker_10, # of connection points: 2
#     Edge 128, Type (0, 1), BuildingBlock: TEMPAE_clean_linker_10, # of connection points: 2
#     Edge 129, Type (0, 1), BuildingBlock: TEMPAE_clean_linker_10, # of connection points: 2
#     Edge 130, Type (0, 1), BuildingBlock: TEMPAE_clean_linker_10, # of connection points: 2
#     Edge 131, Type (0, 1), BuildingBlock: TEMPAE_clean_linker_10, # of connection points: 2
#     Edge 132, Type (0, 1), BuildingBlock: TEMPAE_clean_linker_10, # of connection points: 2
#     Edge 133, Type (0, 1), BuildingBlock: TEMPAE_clean_linker_10, # of connection points: 2
#     Edge 134, Type (0, 1), BuildingBlock: TEMPAE_clean_linker_10, # of connection points: 2
#     Edge 135, Type (0, 1), BuildingBlock: TEMPAE_clean_linker_10, # of connection points: 2
# Relax obj value: 0.127
# Max RMSD: 0.222
# Mean RMSD: 0.145
data_MOF--net-gar--node1-GALJAG_clean_sbu_0--node2-CUKXOW_clean_sbu_0--edge1-TEMPAE_clean_linker_10
_symmetry_space_group_name_H-M    P1
_symmetry_Int_Tables_number       1
_symmetry_cell_setting            triclinic
loop_
_symmetry_equiv_pos_as_xyz
'x, y, z'
_cell_length_a     56.112925
_cell_length_b     54.474477
_cell_length_c     54.724615
_cell_angle_alpha  93.75218
_cell_angle_beta   95.291742
_cell_angle_gamma 98.901734
loop_
_atom_site_label
_atom_site_type_symbol
_atom_site_fract_x
_atom_site_fract_y
_atom_site_fract_z
_atom_type_partial_charge
In0 In 0.03092 0.27023 0.42641 0.0
O1 O 0.03875 0.27305 0.38679 0.0
O2 O 0.06879 0.27433 0.4138 0.0
C3 C 0.98454 0.25819 0.40666 0.0
C4 C 0.0349 0.23172 0.45386 0.0
C5 C 0.04114 0.31578 0.45072 0.0
O6 O 0.99135 0.27572 0.42325 0.0
O7 O 1.001 0.24642 0.40059 0.0
O8 O 0.04694 0.29668 0.46002 0.0
O9 O 0.03054 0.31187 0.42916 0.0
C10 C 0.06135 0.27451 0.39134 0.0
O11 O 0.02381 0.24916 0.46018 0.0
O12 O 0.04426 0.2339 0.43389 0.0
In13 In 0.00648 0.79155 0.61148 0.0
O14 O 0.98695 0.81662 0.58828 0.0
O15 O 0.02501 0.81891 0.58672 0.0
C16 C 0.99658 0.7452 0.58813 0.0
C17 C 0.05035 0.80475 0.63703 0.0
C18 C 0.97348 0.79364 0.64395 0.0
O19 O 0.99263 0.76423 0.57759 0.0
O20 O 0.00533 0.74958 0.61025 0.0
O21 O 0.98968 0.78008 0.64626 0.0
O22 O 0.97385 0.80591 0.62524 0.0
C23 C 0.00575 0.82688 0.57965 0.0
O24 O 0.03204 0.81382 0.64268 0.0
O25 O 0.04663 0.78965 0.61807 0.0
In26 In 0.53295 0.77149 0.93202 0.0
O27 O 0.54209 0.77104 0.89263 0.0
O28 O 0.57137 0.77493 0.92098 0.0
C29 C 0.48732 0.7623 0.90984 0.0
C30 C 0.53485 0.7327 0.95951 0.0
C31 C 0.54382 0.81666 0.95699 0.0
O32 O 0.5025 0.74793 0.90656 0.0
O33 O 0.495 0.78109 0.92477 0.0
O34 O 0.54416 0.79677 0.96749 0.0
O35 O 0.53834 0.81366 0.93402 0.0
C36 C 0.56465 0.77328 0.89817 0.0
O37 O 0.54796 0.73682 0.94226 0.0
O38 O 0.52109 0.74848 0.96328 0.0
In39 In 0.50255 0.29251 0.1124 0.0
O40 O 0.48804 0.26566 0.07861 0.0
O41 O 0.50349 0.25101 0.11032 0.0
C42 C 0.50423 0.3316 0.08478 0.0
C43 C 0.46725 0.28827 0.14246 0.0
C44 C 0.54687 0.3034 0.1373 0.0
O45 O 0.51449 0.31317 0.07969 0.0
O46 O 0.49274 0.33005 0.10349 0.0
O47 O 0.52953 0.31426 0.14255 0.0
O48 O 0.54195 0.28729 0.11917 0.0
C49 C 0.49363 0.24675 0.08849 0.0
O50 O 0.48922 0.28868 0.14996 0.0
O51 O 0.46295 0.28979 0.1196 0.0
In52 In 0.99773 0.76409 0.16639 0.0
O53 O 0.9841 0.73444 0.13458 0.0
O54 O 0.01002 0.72608 0.16232 0.0
C55 C 0.99552 0.80168 0.1363 0.0
C56 C 0.95765 0.76058 0.19151 0.0
C57 C 0.04243 0.77374 0.19232 0.0
O58 O 1.0007 0.78086 0.12925 0.0
O59 O 0.99127 0.80357 0.1585 0.0
O60 O 0.0236 0.76499 0.20187 0.0
O61 O 0.03862 0.77784 0.17001 0.0
C62 C 0.99729 0.7191 0.1421 0.0
O63 O 0.976 0.77722 0.19696 0.0
O64 O 0.95962 0.7454 0.1737 0.0
In65 In 0.53115 0.78883 0.37522 0.0
O66 O 0.55363 0.77054 0.34825 0.0
O67 O 0.56639 0.808 0.3612 0.0
C68 C 0.48553 0.78213 0.35163 0.0
C69 C 0.53292 0.75099 0.40498 0.0
C70 C 0.53241 0.83346 0.40068 0.0
O71 O 0.50423 0.78689 0.34042 0.0
O72 O 0.48993 0.78069 0.37447 0.0
O73 O 0.5441 0.81703 0.40852 0.0
O74 O 0.52061 0.82763 0.37979 0.0
C75 C 0.56991 0.78922 0.3482 0.0
O76 O 0.54136 0.77337 0.41213 0.0
O77 O 0.52367 0.74771 0.38292 0.0
In78 In 0.49778 0.26572 0.66369 0.0
O79 O 0.4822 0.23609 0.63203 0.0
O80 O 0.50597 0.22576 0.6604 0.0
C81 C 0.50007 0.30425 0.63469 0.0
C82 C 0.45668 0.26468 0.68731 0.0
C83 C 0.54346 0.27642 0.68782 0.0
O84 O 0.50019 0.28209 0.62648 0.0
O85 O 0.49912 0.3071 0.65767 0.0
O86 O 0.5247 0.27709 0.69885 0.0
O87 O 0.53906 0.27088 0.66496 0.0
C88 C 0.49345 0.21947 0.64001 0.0
O89 O 0.47486 0.25575 0.69597 0.0
O90 O 0.45929 0.27388 0.66704 0.0
In91 In 0.03199 0.28975 0.87847 0.0
O92 O 0.02984 0.27361 0.91575 0.0
O93 O 0.02956 0.24824 0.88451 0.0
C94 C 0.0367 0.33651 0.90084 0.0
C95 C 0.07291 0.29033 0.85474 0.0
C96 C 0.98594 0.27987 0.85548 0.0
O97 O 0.04708 0.31974 0.90986 0.0
O98 O 0.02489 0.33006 0.88011 0.0
O99 O 0.00427 0.2779 0.84408 0.0
O100 O 0.99096 0.28632 0.87813 0.0
C101 C 0.029 0.25128 0.90753 0.0
O102 O 0.05401 0.29734 0.84516 0.0
O103 O 0.07111 0.28317 0.87599 0.0
In104 In 0.40355 0.06893 0.2569 0.0
O105 O 0.42229 0.08593 0.22407 0.0
O106 O 0.42505 0.04875 0.23024 0.0
C107 C 0.42565 0.07103 0.30407 0.0
C108 C 0.37581 0.10579 0.25391 0.0
C109 C 0.37355 0.02457 0.25321 0.0
O110 O 0.43619 0.08157 0.28718 0.0
O111 O 0.40426 0.06059 0.29734 0.0
O112 O 0.36578 0.0449 0.25067 0.0
O113 O 0.39632 0.02667 0.25709 0.0
C114 C 0.42988 0.06637 0.21688 0.0
O115 O 0.36979 0.08447 0.24257 0.0
O116 O 0.39619 0.10887 0.26665 0.0
In117 In 0.27615 0.14796 0.49067 0.0
O118 O 0.27807 0.18493 0.51322 0.0
O119 O 0.28486 0.15349 0.53219 0.0
C120 C 0.28796 0.17287 0.4517 0.0
C121 C 0.30505 0.11334 0.4967 0.0
C122 C 0.22815 0.13098 0.48355 0.0
O123 O 0.2979 0.17959 0.4732 0.0
O124 O 0.2724 0.15328 0.44981 0.0
O125 O 0.24347 0.1195 0.47431 0.0
O126 O 0.23704 0.15119 0.49586 0.0
C127 C 0.2831 0.17632 0.53356 0.0
O128 O 0.28426 0.11119 0.50403 0.0
O129 O 0.31114 0.13283 0.48603 0.0
In130 In 0.16036 0.00173 0.80285 0.0
O131 O 0.12787 0.98824 0.77433 0.0
O132 O 0.16069 0.00455 0.76142 0.0
C133 C 0.13321 0.99955 0.84149 0.0
C134 C 0.1871 0.96401 0.80304 0.0
C135 C 0.17952 0.0509 0.80571 0.0
O136 O 0.12444 0.99404 0.81944 0.0
O137 O 0.15595 0.00616 0.8443 0.0
O138 O 0.19149 0.03452 0.81319 0.0
O139 O 0.1578 0.04256 0.79759 0.0
C140 C 0.13878 0.99481 0.75612 0.0
O141 O 0.19622 0.98646 0.80176 0.0
O142 O 0.16467 0.96063 0.80495 0.0
In143 In 0.22243 0.89136 0.03577 0.0
O144 O 0.22376 0.85537 0.05609 0.0
O145 O 0.22277 0.88848 0.07787 0.0
C146 C 0.22069 0.87034 0.98844 0.0
C147 C 0.18408 0.91743 0.03622 0.0
C148 C 0.2689 0.91576 0.03953 0.0
O149 O 0.21126 0.85862 0.0053 0.0
O150 O 0.22972 0.89269 0.99517 0.0
O151 O 0.25088 0.92704 0.03966 0.0
O152 O 0.26351 0.89233 0.03798 0.0
C153 C 0.22418 0.86561 0.07751 0.0
O154 O 0.20582 0.92684 0.04305 0.0
O155 O 0.18132 0.89453 0.02901 0.0
In156 In 0.26548 0.42024 0.04961 0.0
O157 O 0.23649 0.39126 0.06196 0.0
O158 O 0.2661 0.40743 0.08821 0.0
C159 C 0.26397 0.3908 0.0079 0.0
C160 C 0.23686 0.45478 0.04061 0.0
C161 C 0.31275 0.43817 0.06283 0.0
O162 O 0.25762 0.3824 0.02765 0.0
O163 O 0.27109 0.41402 0.00925 0.0
O164 O 0.29637 0.45137 0.06499 0.0
O165 O 0.30516 0.4159 0.05473 0.0
C166 C 0.24668 0.39197 0.08359 0.0
O167 O 0.23923 0.44584 0.06118 0.0
O168 O 0.24918 0.44659 0.02479 0.0
In169 In 0.80614 0.16841 0.01319 0.0
O170 O 0.82196 0.13229 0.00724 0.0
O171 O 0.84721 0.16477 0.01912 0.0
C172 C 0.75957 0.14433 0.00795 0.0
C173 C 0.80784 0.1889 0.06078 0.0
C174 C 0.80469 0.19425 0.97146 0.0
O175 O 0.77749 0.13293 0.00761 0.0
O176 O 0.76513 0.16773 0.0106 0.0
O177 O 0.80395 0.20424 0.99278 0.0
O178 O 0.80729 0.17169 0.97126 0.0
C179 C 0.84391 0.14158 0.01305 0.0
O180 O 0.81785 0.20061 0.04423 0.0
O181 O 0.79819 0.16684 0.05361 0.0
In182 In 0.12357 0.4872 0.28505 0.0
O183 O 0.15741 0.46893 0.29174 0.0
O184 O 0.12567 0.4456 0.27498 0.0
C185 C 0.15274 0.53212 0.2906 0.0
C186 C 0.10211 0.48818 0.23813 0.0
C187 C 0.09873 0.48797 0.32616 0.0
O188 O 0.16076 0.51185 0.28755 0.0
O189 O 0.13005 0.52973 0.29114 0.0
O190 O 0.11994 0.48305 0.3264 0.0
O191 O 0.08954 0.49151 0.30504 0.0
C192 C 0.14786 0.44743 0.28265 0.0
O193 O 0.09417 0.47221 0.2524 0.0
O194 O 0.1206 0.5031 0.2474 0.0
In195 In 0.75886 0.91933 0.55082 0.0
O196 O 0.73141 0.88841 0.56286 0.0
O197 O 0.75894 0.90759 0.5898 0.0
C198 C 0.7566 0.89076 0.50838 0.0
C199 C 0.7307 0.95439 0.54342 0.0
C200 C 0.80594 0.93898 0.56321 0.0
O201 O 0.7628 0.8834 0.52903 0.0
O202 O 0.75117 0.91239 0.50918 0.0
O203 O 0.78895 0.94997 0.56935 0.0
O204 O 0.7991 0.91815 0.55133 0.0
C205 C 0.74078 0.89057 0.58491 0.0
O206 O 0.72772 0.93926 0.55979 0.0
O207 O 0.74815 0.95206 0.53097 0.0
In208 In 0.8704 0.05695 0.24998 0.0
O209 O 0.90604 0.06264 0.23264 0.0
O210 O 0.87383 0.05278 0.2083 0.0
C211 C 0.89343 0.06529 0.29616 0.0
C212 C 0.84363 0.09464 0.24975 0.0
C213 C 0.8503 0.00804 0.24753 0.0
O214 O 0.90333 0.07225 0.27749 0.0
O215 O 0.87182 0.05437 0.29162 0.0
O216 O 0.83861 0.02475 0.24038 0.0
O217 O 0.87224 0.0159 0.25519 0.0
C218 C 0.8967 0.05806 0.21068 0.0
O219 O 0.83489 0.07246 0.25276 0.0
O220 O 0.86572 0.09778 0.24624 0.0
In221 In 0.3073 0.66988 0.51457 0.0
O222 O 0.32531 0.63602 0.50439 0.0
O223 O 0.34819 0.66711 0.52361 0.0
C224 C 0.26143 0.64402 0.51044 0.0
C225 C 0.30853 0.69022 0.56201 0.0
C226 C 0.30539 0.69592 0.47307 0.0
O227 O 0.27997 0.63354 0.51276 0.0
O228 O 0.26605 0.66736 0.50986 0.0
O229 O 0.30809 0.67338 0.47274 0.0
O230 O 0.3047 0.70583 0.49445 0.0
C231 C 0.34644 0.64515 0.51378 0.0
O232 O 0.31781 0.70239 0.54533 0.0
O233 O 0.29967 0.66791 0.55496 0.0
In234 In 0.3695 0.55389 0.74241 0.0
O235 O 0.36127 0.59284 0.73416 0.0
O236 O 0.33549 0.56977 0.75181 0.0
C237 C 0.34842 0.50526 0.73677 0.0
C238 C 0.39826 0.55544 0.70508 0.0
C239 C 0.3932 0.56067 0.78838 0.0
O240 O 0.33677 0.5227 0.7317 0.0
O241 O 0.37062 0.51237 0.74378 0.0
O242 O 0.39955 0.57397 0.77139 0.0
O243 O 0.37473 0.54439 0.78232 0.0
C244 C 0.34154 0.59069 0.74369 0.0
O245 O 0.40632 0.55988 0.72745 0.0
O246 O 0.3754 0.55035 0.70126 0.0
In247 In 0.62194 0.98664 0.78319 0.0
O248 O 0.65772 0.97131 0.78882 0.0
O249 O 0.62582 0.94493 0.7788 0.0
C250 C 0.65419 0.02889 0.78099 0.0
C251 C 0.59353 0.98345 0.73916 0.0
C252 C 0.59777 0.991 0.82461 0.0
O253 O 0.65611 0.01456 0.79804 0.0
O254 O 0.63643 0.02164 0.76498 0.0
O255 O 0.59977 0.97014 0.81424 0.0
O256 O 0.60742 0.00916 0.81398 0.0
C257 C 0.64863 0.94868 0.78363 0.0
O258 O 0.58938 0.9957 0.75825 0.0
O259 O 0.61118 0.97188 0.74253 0.0
In260 In 0.77803 0.64832 0.98777 0.0
O261 O 0.79074 0.61898 0.01141 0.0
O262 O 0.808 0.62623 0.97922 0.0
C263 C 0.73158 0.62846 0.97408 0.0
C264 C 0.779 0.6765 0.03017 0.0
C265 C 0.79064 0.67629 0.9509 0.0
O266 O 0.74857 0.61576 0.97339 0.0
O267 O 0.7382 0.65126 0.981 0.0
O268 O 0.79876 0.68266 0.97303 0.0
O269 O 0.7764 0.6558 0.94746 0.0
C270 C 0.80661 0.61401 0.99793 0.0
O271 O 0.79613 0.67945 0.01668 0.0
O272 O 0.76161 0.65953 0.02217 0.0
In273 In 0.90675 0.57078 0.75788 0.0
O274 O 0.87068 0.58491 0.74946 0.0
O275 O 0.90133 0.61206 0.76226 0.0
C276 C 0.87339 0.52952 0.76076 0.0
C277 C 0.93297 0.56759 0.71787 0.0
C278 C 0.93604 0.57319 0.80129 0.0
O279 O 0.87609 0.53964 0.74087 0.0
O280 O 0.88699 0.54053 0.7791 0.0
O281 O 0.93616 0.55733 0.78348 0.0
O282 O 0.92212 0.58882 0.79684 0.0
C283 C 0.87884 0.60765 0.75531 0.0
O284 O 0.92716 0.58777 0.72608 0.0
O285 O 0.92609 0.54946 0.72999 0.0
In286 In 0.72601 0.39143 0.53451 0.0
O287 O 0.71221 0.36128 0.56055 0.0
O288 O 0.74638 0.38361 0.57091 0.0
C289 C 0.72011 0.3673 0.48796 0.0
C290 C 0.6905 0.42071 0.53899 0.0
C291 C 0.77189 0.41605 0.5353 0.0
O292 O 0.72037 0.35573 0.50722 0.0
O293 O 0.72127 0.39046 0.4922 0.0
O294 O 0.75547 0.42579 0.54475 0.0
O295 O 0.76521 0.39394 0.52602 0.0
C296 C 0.73068 0.36618 0.57619 0.0
O297 O 0.71068 0.42823 0.53142 0.0
O298 O 0.68799 0.39832 0.54432 0.0
In299 In 0.65473 0.50139 0.29563 0.0
O300 O 0.69076 0.48682 0.29378 0.0
O301 O 0.66037 0.46115 0.30116 0.0
C302 C 0.67594 0.54993 0.29514 0.0
C303 C 0.63076 0.49184 0.24994 0.0
C304 C 0.62728 0.49849 0.33417 0.0
O305 O 0.68617 0.53418 0.30628 0.0
O306 O 0.6551 0.54132 0.2847 0.0
O307 O 0.61977 0.48876 0.31281 0.0
O308 O 0.64904 0.50932 0.33646 0.0
C309 C 0.6825 0.46468 0.29761 0.0
O310 O 0.62167 0.50094 0.268 0.0
O311 O 0.65207 0.4876 0.25485 0.0
Tb312 Tb 0.02051 0.05574 0.01997 0.0
C313 C 0.02733 0.01494 0.97924 0.0
Tb314 Tb 0.00509 1.00051 0.02884 0.0
O315 O 0.05845 0.05034 0.01999 0.0
O316 O 0.03515 0.02854 0.04031 0.0
O317 O 0.02365 0.03822 0.98384 0.0
C318 C 0.00475 0.95371 0.04084 0.0
O319 O 0.02259 0.99741 0.99475 0.0
C320 C 0.9696 0.0252 0.01563 0.0
C321 C 0.99873 0.04134 0.06986 0.0
O322 O 0.98849 0.96092 0.02563 0.0
O323 O 0.02108 0.97272 0.04882 0.0
O324 O 0.9672 0.00622 0.02891 0.0
O325 O 0.99055 0.02766 0.00846 0.0
O326 O 0.00186 0.01792 0.06497 0.0
O327 O 0.00374 0.05898 0.05451 0.0
C328 C 0.02031 0.10239 0.00764 0.0
O329 O 0.00329 0.08356 1.00122 0.0
O330 O 0.03756 0.09509 0.0215 0.0
C331 C 0.05612 0.03124 0.03312 0.0
Tb332 Tb 0.26966 0.80764 0.27743 0.0
C333 C 0.3122 0.77632 0.27973 0.0
Tb334 Tb 0.2566 0.75091 0.27187 0.0
O335 O 0.28601 0.80676 0.31519 0.0
O336 O 0.25731 0.7792 0.30043 0.0
O337 O 0.30564 0.7981 0.27513 0.0
C338 C 0.24713 0.70255 0.27946 0.0
O339 O 0.29613 0.75576 0.28063 0.0
C340 C 0.25352 0.77325 0.23063 0.0
C341 C 0.21408 0.78209 0.26958 0.0
O342 O 0.25316 0.71137 0.259 0.0
O343 O 0.24689 0.72096 0.29563 0.0
O344 O 0.24024 0.75228 0.23408 0.0
O345 O 0.26913 0.77934 0.24905 0.0
O346 O 0.22068 0.76041 0.27444 0.0
O347 O 0.23011 0.80265 0.26858 0.0
C348 C 0.27869 0.85571 0.26871 0.0
O349 O 0.27962 0.83699 0.25317 0.0
O350 O 0.27237 0.84738 0.28929 0.0
C351 C 0.27304 0.78565 0.31876 0.0
Tb352 Tb 0.53904 0.03313 0.51431 0.0
C353 C 0.52715 0.01137 0.56613 0.0
Tb354 Tb 0.48719 0.02063 0.52539 0.0
O355 O 0.53784 0.07314 0.51822 0.0
O356 O 0.51694 0.04846 0.53849 0.0
O357 O 0.54333 0.01702 0.55016 0.0
C358 C 0.44143 0.02343 0.53298 0.0
O359 O 0.50382 0.01284 0.56107 0.0
C360 C 0.50539 0.9831 0.50652 0.0
C361 C 0.49926 0.04374 0.47468 0.0
O362 O 0.46047 0.03752 0.5443 0.0
O363 O 0.44819 0.00748 0.51751 0.0
O364 O 0.48888 0.98075 0.52178 0.0
O365 O 0.50923 0.0054 0.50112 0.0
O366 O 0.48412 0.04132 0.49206 0.0
O367 O 0.52156 0.03842 0.47824 0.0
C368 C 0.5838 0.02726 0.5056 0.0
O369 O 0.57747 0.0482 0.51309 0.0
O370 O 0.56498 0.00991 0.50307 0.0
C371 C 0.5211 0.07081 0.53325 0.0
Tb372 Tb 0.26962 0.28586 0.79821 0.0
C373 C 0.27751 0.32761 0.76152 0.0
Tb374 Tb 0.26006 0.2698 0.74411 0.0
O375 O 0.30851 0.29507 0.79509 0.0
O376 O 0.28714 0.26603 0.77236 0.0
O377 O 0.27441 0.32281 0.7846 0.0
C378 C 0.26674 0.25984 0.69723 0.0
O379 O 0.27385 0.30973 0.74318 0.0
C380 C 0.22152 0.27697 0.76554 0.0
C381 C 0.25141 0.22852 0.78074 0.0
O382 O 0.24583 0.25796 0.70588 0.0
O383 O 0.28376 0.26742 0.71491 0.0
O384 O 0.22096 0.26118 0.74658 0.0
O385 O 0.24254 0.2895 0.76987 0.0
O386 O 0.25717 0.23313 0.7583 0.0
O387 O 0.25297 0.24666 0.79856 0.0
C388 C 0.26469 0.29661 0.84543 0.0
O389 O 0.24851 0.29737 0.82717 0.0
O390 O 0.28379 0.28978 0.83715 0.0
C391 C 0.30808 0.27881 0.77653 0.0
Tb392 Tb 0.00459 0.03746 0.50082 0.0
C393 C 0.97288 0.02031 0.54243 0.0
Tb394 Tb 0.03051 0.03065 0.55212 0.0
O395 O 0.99144 0.99742 0.49391 0.0
O396 O 0.02311 0.01066 0.51717 0.0
O397 O 0.97369 0.03209 0.52195 0.0
C398 C 0.04921 0.01563 0.59406 0.0
O399 O 0.9926 0.01537 0.55538 0.0
C400 C 0.02685 0.07652 0.54322 0.0
C401 C 0.06188 0.04934 0.51058 0.0
O402 O 0.03468 0.03192 0.59228 0.0
O403 O 0.05324 0.00767 0.57218 0.0
O404 O 0.04389 0.07065 0.55832 0.0
O405 O 0.01187 0.05721 0.53596 0.0
O406 O 0.06137 0.03712 0.53081 0.0
O407 O 0.04201 0.05385 0.49773 0.0
C408 C 0.98697 0.05216 0.45823 0.0
O409 O 0.9999 0.03453 0.46063 0.0
O410 O 0.98403 0.06173 0.47989 0.0
C411 C 0.00799 0.99152 0.50955 0.0
Tb412 Tb 0.29047 0.77644 0.78832 0.0
C413 C 0.25183 0.79145 0.82247 0.0
Tb414 Tb 0.23955 0.77927 0.76414 0.0
O415 O 0.29709 0.81644 0.79937 0.0
O416 O 0.27374 0.80223 0.76836 0.0
O417 O 0.27225 0.78197 0.82152 0.0
C418 C 0.19919 0.79433 0.74593 0.0
O419 O 0.23739 0.79362 0.80227 0.0
C420 C 0.24882 0.73393 0.76935 0.0
C421 C 0.2781 0.76434 0.73001 0.0
O422 O 0.22105 0.80447 0.74282 0.0
O423 O 0.2 0.77552 0.75923 0.0
O424 O 0.23284 0.73936 0.75271 0.0
O425 O 0.25638 0.75321 0.78374 0.0
O426 O 0.25788 0.77417 0.73101 0.0
O427 O 0.29231 0.76159 0.75022 0.0
C428 C 0.33151 0.76297 0.80681 0.0
O429 O 0.32993 0.77943 0.79086 0.0
O430 O 0.31003 0.75417 0.81228 0.0
C431 C 0.2813 0.82166 0.78246 0.0
Tb432 Tb 0.48494 0.018 0.01589 0.0
C433 C 0.52554 0.98411 0.0245 0.0
Tb434 Tb 0.54221 0.04284 0.02492 0.0
O435 O 0.4855 0.0073 0.97596 0.0
O436 O 0.5156 0.02565 0.99699 0.0
O437 O 0.50237 0.98647 0.02562 0.0
C438 C 0.58787 0.06021 0.01758 0.0
O439 O 0.54313 0.00294 0.02195 0.0
C440 C 0.51882 0.04481 0.0652 0.0
C441 C 0.50172 0.07687 0.01708 0.0
O442 O 0.58123 0.04761 0.03587 0.0
O443 O 0.56875 0.06304 0.00336 0.0
O444 O 0.54163 0.0539 0.06471 0.0
O445 O 0.5116 0.03509 0.04385 0.0
O446 O 0.52479 0.07439 0.01531 0.0
O447 O 0.48416 0.058 0.01969 0.0
C448 C 0.43951 1.00004 0.02372 0.0
O449 O 0.44573 0.01329 0.0057 0.0
O450 O 0.45891 0.99688 0.0373 0.0
C451 C 0.50839 0.01614 0.97558 0.0
Tb452 Tb 0.2309 0.26312 0.26539 0.0
C453 C 0.27388 0.26902 0.30656 0.0
Tb454 Tb 0.28143 0.28103 0.2517 0.0
O455 O 0.23974 0.22606 0.27115 0.0
O456 O 0.25641 0.24756 0.24539 0.0
O457 O 0.25042 0.26991 0.3019 0.0
C458 C 0.3274 0.28407 0.24224 0.0
O459 O 0.28904 0.27131 0.28934 0.0
C460 C 0.25547 0.31604 0.26112 0.0
C461 C 0.23858 0.27519 0.2104 0.0
O462 O 0.31247 0.26367 0.24332 0.0
O463 O 0.31648 0.30299 0.24651 0.0
O464 O 0.27168 0.31775 0.24558 0.0
O465 O 0.25607 0.2964 0.272 0.0
O466 O 0.26214 0.2749 0.21512 0.0
O467 O 0.22326 0.27209 0.22744 0.0
C468 C 0.18523 0.26212 0.27532 0.0
O469 O 0.19974 0.28157 0.27036 0.0
O470 O 0.19637 0.24295 0.27448 0.0
C471 C 0.25654 0.22781 0.25625 0.0
Tb472 Tb 0.50969 0.53314 0.99007 0.0
C473 C 0.47887 0.51332 0.03204 0.0
Tb474 Tb 0.53659 0.52465 0.03999 0.0
O475 O 0.49832 0.49302 0.98218 0.0
O476 O 0.5306 0.50692 0.00399 0.0
O477 O 0.47883 0.52419 0.01095 0.0
C478 C 0.5577 0.50827 0.08014 0.0
O479 O 0.49906 0.51044 0.04555 0.0
C480 C 0.52886 0.57041 0.0355 0.0
C481 C 0.56639 0.54497 0.99859 0.0
O482 O 0.56432 0.52939 0.07123 0.0
O483 O 0.53899 0.49603 0.06637 0.0
O484 O 0.54585 0.56466 0.05062 0.0
O485 O 0.5156 0.55069 0.02624 0.0
O486 O 0.56565 0.52931 0.01622 0.0
O487 O 0.54655 0.5521 0.98823 0.0
C488 C 0.49122 0.54891 0.94832 0.0
O489 O 0.5064 0.53325 0.94995 0.0
O490 O 0.48649 0.5558 0.97025 0.0
C491 C 0.51629 0.48732 0.99614 0.0
Tb492 Tb 0.78971 0.27921 0.28589 0.0
C493 C 0.75106 0.29318 0.32039 0.0
Tb494 Tb 0.73855 0.28128 0.26196 0.0
O495 O 0.79566 0.31921 0.29697 0.0
O496 O 0.77248 0.30466 0.26589 0.0
O497 O 0.77182 0.28441 0.31922 0.0
C498 C 0.69791 0.29585 0.24405 0.0
O499 O 0.73631 0.29514 0.30033 0.0
C500 C 0.74838 0.23639 0.26799 0.0
C501 C 0.77706 0.26634 0.22761 0.0
O502 O 0.69901 0.27728 0.25762 0.0
O503 O 0.71963 0.30601 0.24049 0.0
O504 O 0.73243 0.24127 0.251 0.0
O505 O 0.75572 0.25594 0.28199 0.0
O506 O 0.7565 0.27558 0.22861 0.0
O507 O 0.79168 0.26444 0.24779 0.0
C508 C 0.83039 0.26505 0.30436 0.0
O509 O 0.82927 0.28308 0.29009 0.0
O510 O 0.80867 0.25513 0.30818 0.0
C511 C 0.77974 0.32415 0.28 0.0
Tb512 Tb 0.99052 0.51593 0.51969 0.0
C513 C 0.03089 0.4828 0.52679 0.0
Tb514 Tb 0.04366 0.54145 0.52559 0.0
O515 O 0.99494 0.49601 0.48478 0.0
O516 O 0.01625 0.53043 0.49575 0.0
O517 O 0.00813 0.48485 0.53005 0.0
C518 C 0.09025 0.55812 0.52039 0.0
O519 O 0.04717 0.5021 0.52274 0.0
C520 C 0.0208 0.54584 0.56527 0.0
C521 C 0.00356 0.57462 0.51879 0.0
O522 O 0.07231 0.55624 0.50328 0.0
O523 O 0.08197 0.55052 0.54043 0.0
O524 O 0.03957 0.56135 0.56074 0.0
O525 O 0.01771 0.5273 0.54946 0.0
O526 O 0.02613 0.57238 0.51488 0.0
O527 O 0.98745 0.55547 0.52364 0.0
C528 C 0.94397 0.49892 0.5247 0.0
O529 O 0.95169 0.51165 0.50692 0.0
O530 O 0.96245 0.49572 0.5395 0.0
C531 C 0.0133 0.51191 0.47998 0.0
Tb532 Tb 0.77112 0.78403 0.29921 0.0
C533 C 0.77755 0.82842 0.26356 0.0
Tb534 Tb 0.76033 0.77258 0.24153 0.0
O535 O 0.80327 0.76541 0.29849 0.0
O536 O 0.79065 0.78253 0.26813 0.0
O537 O 0.77394 0.82161 0.28609 0.0
C538 C 0.7696 0.75873 0.19657 0.0
O539 O 0.77557 0.8121 0.24399 0.0
C540 C 0.72082 0.77913 0.26238 0.0
C541 C 0.75046 0.72893 0.27764 0.0
O542 O 0.75677 0.77596 0.20186 0.0
O543 O 0.77674 0.7491 0.21651 0.0
O544 O 0.72093 0.77472 0.2387 0.0
O545 O 0.74219 0.77977 0.27173 0.0
O546 O 0.75466 0.73522 0.25509 0.0
O547 O 0.75356 0.74534 0.29722 0.0
C548 C 0.76972 0.80056 0.34575 0.0
O549 O 0.75155 0.78828 0.33139 0.0
O550 O 0.7889 0.80347 0.33397 0.0
C551 C 0.8058 0.76923 0.27555 0.0
Tb552 Tb 0.77158 0.30787 0.7768 0.0
C553 C 0.81283 0.27465 0.78216 0.0
Tb554 Tb 0.75723 0.25048 0.77053 0.0
O555 O 0.78526 0.30714 0.81554 0.0
O556 O 0.75814 0.2791 0.79894 0.0
O557 O 0.80721 0.2966 0.77667 0.0
C558 C 0.74547 0.20236 0.77827 0.0
O559 O 0.79609 0.25459 0.78279 0.0
C560 C 0.75667 0.27275 0.72909 0.0
C561 C 0.71585 0.28334 0.76459 0.0
O562 O 0.73941 0.22097 0.79093 0.0
O563 O 0.7585 0.21085 0.76125 0.0
O564 O 0.74479 0.25068 0.73116 0.0
O565 O 0.77057 0.27932 0.74867 0.0
O566 O 0.72144 0.26134 0.76993 0.0
O567 O 0.7326 0.30353 0.76441 0.0
C568 C 0.78452 0.35585 0.76904 0.0
O569 O 0.76945 0.34763 0.78449 0.0
O570 O 0.79192 0.33708 0.75799 0.0
C571 C 0.77272 0.28552 0.81814 0.0
Tb572 Tb 0.73635 0.76765 0.77024 0.0
C573 C 0.78173 0.77458 0.80824 0.0
Tb574 Tb 0.78544 0.78491 0.75248 0.0
O575 O 0.74654 0.73146 0.77786 0.0
O576 O 0.76085 0.7511 0.74967 0.0
O577 O 0.75841 0.7766 0.8052 0.0
C578 C 0.82969 0.78645 0.73849 0.0
O579 O 0.79523 0.77459 0.78957 0.0
C580 C 0.7597 0.82021 0.76182 0.0
C581 C 0.73967 0.77817 0.71417 0.0
O582 O 0.81144 0.76892 0.73201 0.0
O583 O 0.82308 0.80355 0.75286 0.0
O584 O 0.77508 0.82129 0.74539 0.0
O585 O 0.76122 0.8012 0.77347 0.0
O586 O 0.76353 0.77927 0.71731 0.0
O587 O 0.72569 0.77488 0.73233 0.0
C588 C 0.69193 0.7662 0.78392 0.0
O589 O 0.70638 0.78608 0.77992 0.0
O590 O 0.70242 0.74687 0.7801 0.0
C591 C 0.76214 0.73224 0.76169 0.0
Tb592 Tb 0.52714 0.55638 0.51981 0.0
C593 C 0.52469 0.51613 0.47383 0.0
Tb594 Tb 0.50567 0.50078 0.52435 0.0
O595 O 0.55989 0.55187 0.5444 0.0
O596 O 0.5397 0.52234 0.5228 0.0
O597 O 0.52744 0.54011 0.48212 0.0
C598 C 0.50586 0.45439 0.53659 0.0
O599 O 0.5167 0.49744 0.48712 0.0
C600 C 0.47337 0.53079 0.51771 0.0
C601 C 0.50572 0.54103 0.56845 0.0
O602 O 0.48975 0.46103 0.52061 0.0
O603 O 0.52162 0.47374 0.54516 0.0
O604 O 0.46918 0.50974 0.52772 0.0
O605 O 0.49378 0.53233 0.5094 0.0
O606 O 0.50849 0.51779 0.56205 0.0
O607 O 0.51022 0.55928 0.55383 0.0
C608 C 0.53368 0.60274 0.50555 0.0
O609 O 0.54922 0.58741 0.50455 0.0
O610 O 0.51481 0.59212 0.51509 0.0
C611 C 0.55728 0.52785 0.53901 0.0
Tb612 Tb 0.04384 0.53416 0.0137 0.0
C613 C 0.0317 0.51252 0.06549 0.0
Tb614 Tb 0.99182 0.524 0.02582 0.0
O615 O 0.04482 0.57449 0.0196 0.0
O616 O 0.02309 0.54971 0.03897 0.0
O617 O 0.04742 0.51614 0.0487 0.0
C618 C 0.94828 0.53272 0.03584 0.0
O619 O 0.00907 0.51689 0.06146 0.0
C620 C 0.00763 0.48586 0.00519 0.0
C621 C 0.00383 0.54553 0.97394 0.0
O622 O 0.95306 0.51123 0.02781 0.0
O623 O 0.96791 0.549 0.03809 0.0
O624 O 0.99106 0.4837 0.02042 0.0
O625 O 0.0126 0.50834 1.00065 0.0
O626 O 0.98804 0.54146 0.99061 0.0
O627 O 0.02665 0.54169 0.97809 0.0
C628 C 0.08782 0.52599 0.00453 0.0
O629 O 0.08244 0.54754 0.01144 0.0
O630 O 0.06849 0.50933 0.00273 0.0
C631 C 0.02819 0.57224 0.03474 0.0
C632 C 0.02412 0.23454 0.9486 0.0
C633 C 0.02767 0.23045 0.92371 0.0
C634 C 0.02281 0.21499 0.9642 0.0
C635 C 0.02536 0.19083 0.95472 0.0
C636 C 0.02911 0.18665 0.92963 0.0
C637 C 0.03009 0.20648 0.9144 0.0
C638 C 0.0185 0.22012 0.99074 0.0
C639 C 0.03208 0.16119 0.91886 0.0
C640 C 0.04334 0.14275 0.99729 0.0
C641 C 0.02124 0.12677 0.99723 0.0
C642 C 0.04486 0.16414 0.98409 0.0
C643 C 0.0237 0.16974 0.97084 0.0
C644 C 1.00112 0.1543 0.97187 0.0
C645 C 1.00021 0.1329 0.98491 0.0
C646 C 0.06928 0.18007 0.98336 0.0
C647 C 0.97807 0.1598 0.95839 0.0
H648 H 0.02218 0.25303 0.95589 0.0
H649 H 0.03293 0.20324 0.89521 0.0
H650 H 0.00157 0.20828 0.99468 0.0
H651 H 0.03354 0.21523 0.00312 0.0
H652 H 0.01698 0.23996 0.99528 0.0
H653 H 0.03547 0.16117 0.89918 0.0
H654 H 0.04742 0.15461 0.92937 0.0
H655 H 0.01551 0.14759 0.92043 0.0
H656 H 0.05963 0.13794 0.00672 0.0
H657 H 0.98308 0.12059 0.98497 0.0
H658 H 0.06832 0.1999 0.98847 0.0
H659 H 0.0746 0.17889 0.96433 0.0
H660 H 0.08365 0.17417 0.99593 0.0
H661 H 0.97595 0.17946 0.96282 0.0
H662 H 0.96173 0.14744 0.96305 0.0
H663 H 0.979 0.15725 0.93824 0.0
C664 C 0.08754 0.78072 0.19237 0.0
C665 C 0.06717 0.77761 0.20561 0.0
C666 C 0.11111 0.78282 0.20433 0.0
C667 C 0.1145 0.7823 0.23025 0.0
C668 C 0.09404 0.78004 0.24382 0.0
C669 C 0.0706 0.77743 0.2313 0.0
C670 C 0.13234 0.78471 0.18908 0.0
C671 C 0.0969 0.77992 0.2715 0.0
C672 C 0.17199 0.75999 0.25589 0.0
C673 C 0.18792 0.78249 0.26238 0.0
C674 C 0.14796 0.75972 0.24598 0.0
C675 C 0.13934 0.78251 0.24283 0.0
C676 C 0.15496 0.80532 0.25033 0.0
C677 C 0.17914 0.80505 0.25977 0.0
C678 C 0.13212 0.73497 0.23785 0.0
C679 C 0.14636 0.83001 0.2477 0.0
H680 H 0.08503 0.78078 0.1725 0.0
H681 H 0.05493 0.77519 0.24164 0.0
H682 H 0.14583 0.80149 0.19565 0.0
H683 H 0.14158 0.76826 0.19118 0.0
H684 H 0.12674 0.78568 0.1692 0.0
H685 H 0.07943 0.78012 0.2795 0.0
H686 H 0.10426 0.76304 0.27682 0.0
H687 H 0.11006 0.79635 0.27975 0.0
H688 H 0.17855 0.74242 0.25758 0.0
H689 H 0.19125 0.82254 0.26473 0.0
H690 H 0.12721 0.73368 0.21764 0.0
H691 H 0.11499 0.73344 0.24667 0.0
H692 H 0.14123 0.7189 0.24243 0.0
H693 H 0.14295 0.83297 0.22791 0.0
H694 H 0.15981 0.84589 0.25669 0.0
H695 H 0.12897 0.83004 0.25586 0.0
C696 C 0.54776 0.86494 0.43636 0.0
C697 C 0.53126 0.85694 0.41548 0.0
C698 C 0.54583 0.88638 0.45134 0.0
C699 C 0.5266 0.89979 0.44561 0.0
C700 C 0.51015 0.892 0.4243 0.0
C701 C 0.51283 0.87083 0.40938 0.0
C702 C 0.56408 0.89444 0.47355 0.0
C703 C 0.48921 0.90556 0.41768 0.0
C704 C 0.5035 0.93738 0.49681 0.0
C705 C 0.5124 0.9619 0.49208 0.0
C706 C 0.50835 0.917 0.48208 0.0
C707 C 0.52286 0.92122 0.46243 0.0
C708 C 0.53262 0.94595 0.45815 0.0
C709 C 0.52695 0.96601 0.47278 0.0
C710 C 0.49729 0.89096 0.48707 0.0
C711 C 0.54859 0.95128 0.43776 0.0
H712 H 0.56213 0.85434 0.44107 0.0
H713 H 0.49996 0.86468 0.39332 0.0
H714 H 0.57212 0.91434 0.47319 0.0
H715 H 0.55491 0.89273 0.49061 0.0
H716 H 0.57893 0.8831 0.47447 0.0
H717 H 0.47834 0.89745 0.40022 0.0
H718 H 0.47712 0.90478 0.43265 0.0
H719 H 0.49601 0.9255 0.41581 0.0
H720 H 0.49218 0.93411 0.51167 0.0
H721 H 0.53356 0.98492 0.46877 0.0
H722 H 0.51167 0.87929 0.49007 0.0
H723 H 0.48488 0.88214 0.47083 0.0
H724 H 0.48693 0.8908 0.50342 0.0
H725 H 0.56342 0.93995 0.43888 0.0
H726 H 0.55673 0.97128 0.43847 0.0
H727 H 0.53779 0.94598 0.41965 0.0
C728 C 0.43133 0.25363 0.72193 0.0
C729 C 0.43423 0.26494 0.69985 0.0
C730 C 0.41036 0.25448 0.73411 0.0
C731 C 0.39185 0.26706 0.72409 0.0
C732 C 0.39453 0.27814 0.70159 0.0
C733 C 0.41561 0.27693 0.68978 0.0
C734 C 0.40815 0.24221 0.75792 0.0
C735 C 0.37548 0.29198 0.69031 0.0
C736 C 0.32857 0.25492 0.74599 0.0
C737 C 0.32937 0.2754 0.76316 0.0
C738 C 0.3487 0.25193 0.73312 0.0
C739 C 0.37027 0.2697 0.7377 0.0
C740 C 0.37112 0.29033 0.75512 0.0
C741 C 0.35072 0.29289 0.76762 0.0
C742 C 0.34683 0.22988 0.71446 0.0
C743 C 0.39356 0.30987 0.76044 0.0
H744 H 0.44555 0.24425 0.7298 0.0
H745 H 0.41765 0.28576 0.67274 0.0
H746 H 0.40749 0.25649 0.77315 0.0
H747 H 0.39098 0.22878 0.75657 0.0
H748 H 0.42353 0.2322 0.76272 0.0
H749 H 0.3785 0.29636 0.67118 0.0
H750 H 0.35709 0.28099 0.69015 0.0
H751 H 0.37586 0.30974 0.70159 0.0
H752 H 0.31219 0.24122 0.74262 0.0
H753 H 0.35145 0.30879 0.78082 0.0
H754 H 0.36131 0.21877 0.71932 0.0
H755 H 0.34957 0.23645 0.696 0.0
H756 H 0.32896 0.21756 0.71325 0.0
H757 H 0.40931 0.30106 0.76688 0.0
H758 H 0.3914 0.32469 0.77461 0.0
H759 H 0.39788 0.31867 0.74332 0.0
C760 C 0.98429 0.8586 0.56051 0.0
C761 C 0.00552 0.84819 0.56446 0.0
C762 C 0.98449 0.88087 0.54908 0.0
C763 C 0.00639 0.89279 0.54126 0.0
C764 C 0.02752 0.8816 0.54391 0.0
C765 C 0.02686 0.85941 0.55561 0.0
C766 C 0.96162 0.89236 0.54672 0.0
C767 C 0.05112 0.89373 0.53554 0.0
C768 C 0.00219 0.94567 0.50014 0.0
C769 C 0.00843 0.96637 0.51733 0.0
C770 C 0.00199 0.92146 0.50752 0.0
C771 C 0.00772 0.91812 0.53269 0.0
C772 C 0.01384 0.93908 0.55008 0.0
C773 C 0.01403 0.96295 0.54211 0.0
C774 C 0.9955 0.8995 0.4885 0.0
C775 C 0.01965 0.9363 0.57719 0.0
H776 H 0.96773 0.84992 0.56728 0.0
H777 H 0.04326 0.8513 0.55852 0.0
H778 H 0.96418 0.90983 0.55897 0.0
H779 H 0.95765 0.89737 0.52762 0.0
H780 H 0.94565 0.87968 0.55173 0.0
H781 H 0.06505 0.88129 0.53632 0.0
H782 H 0.04816 0.89912 0.51643 0.0
H783 H 0.05829 0.91103 0.54749 0.0
H784 H 0.99762 0.94845 0.48094 0.0
H785 H 0.01753 0.97887 0.55544 0.0
H786 H 0.97874 0.88752 0.49262 0.0
H787 H 0.01014 0.88793 0.48917 0.0
H788 H 0.99256 0.90537 0.46954 0.0
H789 H 0.00386 0.92532 0.58442 0.0
H790 H 0.02433 0.95458 0.58819 0.0
H791 H 0.03511 0.92597 0.57996 0.0
C792 C 0.45679 0.73896 0.8772 0.0
C793 C 0.46324 0.75852 0.89572 0.0
C794 C 0.43496 0.73664 0.86194 0.0
C795 C 0.41931 0.75427 0.86543 0.0
C796 C 0.42533 0.77352 0.8847 0.0
C797 C 0.44729 0.77543 0.89962 0.0
C798 C 0.42906 0.7159 0.84156 0.0
C799 C 0.40895 0.79257 0.88906 0.0
C800 C 0.37649 0.76971 0.81334 0.0
C801 C 0.35418 0.75781 0.81949 0.0
C802 C 0.39809 0.76767 0.82751 0.0
C803 C 0.39715 0.75351 0.84829 0.0
C804 C 0.37475 0.74038 0.85376 0.0
C805 C 0.35345 0.74264 0.83919 0.0
C806 C 0.42173 0.7817 0.82098 0.0
C807 C 0.37309 0.72509 0.87576 0.0
H808 H 0.46912 0.72584 0.87415 0.0
H809 H 0.45222 0.79053 0.91397 0.0
H810 H 0.41064 0.70536 0.84247 0.0
H811 H 0.42908 0.72393 0.82345 0.0
H812 H 0.44229 0.70269 0.84244 0.0
H813 H 0.41569 0.80555 0.90562 0.0
H814 H 0.40753 0.80367 0.87284 0.0
H815 H 0.3904 0.78311 0.89133 0.0
H816 H 0.377 0.78132 0.79799 0.0
H817 H 0.33614 0.73337 0.84386 0.0
H818 H 0.43549 0.76915 0.82019 0.0
H819 H 0.42886 0.79696 0.83545 0.0
H820 H 0.41961 0.78993 0.80301 0.0
H821 H 0.38664 0.71225 0.876 0.0
H822 H 0.35477 0.71396 0.87593 0.0
H823 H 0.37728 0.73765 0.89292 0.0
C824 C 0.49667 0.20168 0.08759 0.0
C825 C 0.49016 0.22178 0.07528 0.0
C826 C 0.4955 0.17824 0.07504 0.0
C827 C 0.48762 0.17484 0.04953 0.0
C828 C 0.48006 0.19478 0.03719 0.0
C829 C 0.48146 0.21812 0.05024 0.0
C830 C 0.50355 0.15734 0.08893 0.0
C831 C 0.47128 0.19169 0.01008 0.0
C832 C 0.51433 0.12302 0.01869 0.0
C833 C 0.49609 0.10251 0.01988 0.0
C834 C 0.51109 0.14714 0.02662 0.0
C835 C 0.48903 0.15082 0.03579 0.0
C836 C 0.46975 0.1306 0.03491 0.0
C837 C 0.47352 0.10663 0.02697 0.0
C838 C 0.53205 0.16829 0.02714 0.0
C839 C 0.44584 0.13386 0.04421 0.0
H840 H 0.50324 0.20439 0.10699 0.0
H841 H 0.4763 0.23362 0.0407 0.0
H842 H 0.48902 0.14081 0.08665 0.0
H843 H 0.51971 0.15164 0.08132 0.0
H844 H 0.5082 0.16279 0.10892 0.0
H845 H 0.46365 0.20814 0.00385 0.0
H846 H 0.48658 0.18899 0.99926 0.0
H847 H 0.45722 0.17486 0.00589 0.0
H848 H 0.53172 0.12014 0.01291 0.0
H849 H 0.45918 0.09097 0.02774 0.0
H850 H 0.53971 0.17383 0.04649 0.0
H851 H 0.52583 0.18483 0.01947 0.0
H852 H 0.54674 0.16302 0.0166 0.0
H853 H 0.44805 0.13566 0.06464 0.0
H854 H 0.43142 0.11772 0.03796 0.0
H855 H 0.43981 0.15109 0.03798 0.0
C856 C 0.06777 0.27031 0.34696 0.0
C857 C 0.07754 0.27469 0.37167 0.0
C858 C 0.08283 0.26841 0.32811 0.0
C859 C 0.10817 0.27116 0.33424 0.0
C860 C 0.11817 0.2764 0.35909 0.0
C861 C 0.10268 0.27798 0.37757 0.0
C862 C 0.07165 0.26297 0.30177 0.0
C863 C 0.14521 0.27985 0.36622 0.0
C864 C 0.15013 0.24209 0.29533 0.0
C865 C 0.16224 0.26314 0.28576 0.0
C866 C 0.13118 0.24413 0.30991 0.0
C867 C 0.1244 0.26779 0.31491 0.0
C868 C 0.13529 0.28869 0.30359 0.0
C869 C 0.15418 0.2861 0.28911 0.0
C870 C 0.11966 0.22136 0.32139 0.0
C871 C 0.1285 0.3142 0.30833 0.0
H872 H 0.04828 0.26776 0.34236 0.0
H873 H 0.11025 0.2815 0.39666 0.0
H874 H 0.07974 0.2774 0.29022 0.0
H875 H 0.07561 0.24479 0.29425 0.0
H876 H 0.05167 0.26232 0.30002 0.0
H877 H 0.15008 0.2847 0.38628 0.0
H878 H 0.15217 0.26245 0.36101 0.0
H879 H 0.1546 0.29484 0.35609 0.0
H880 H 0.15633 0.22432 0.29259 0.0
H881 H 0.16351 0.30238 0.28156 0.0
H882 H 0.09961 0.21968 0.31911 0.0
H883 H 0.12552 0.22321 0.34145 0.0
H884 H 0.1248 0.20394 0.31327 0.0
H885 H 0.13368 0.32651 0.29365 0.0
H886 H 0.13818 0.323 0.3261 0.0
H887 H 0.10876 0.31309 0.30964 0.0
C888 C 0.90145 0.04821 0.16616 0.0
C889 C 0.91162 0.05836 0.18969 0.0
C890 C 0.9159 0.04694 0.14657 0.0
C891 C 0.94104 0.05668 0.15047 0.0
C892 C 0.95116 0.0678 0.17401 0.0
C893 C 0.9364 0.06829 0.19336 0.0
C894 C 0.90396 0.03524 0.12181 0.0
C895 C 0.97774 0.07873 0.1789 0.0
C896 C 0.98304 0.0293 0.10945 0.0
C897 C 0.98644 0.04696 0.092 0.0
C898 C 0.9685 0.0324 0.1286 0.0
C899 C 0.95711 0.05379 0.13055 0.0
C900 C 0.96083 0.07198 0.11335 0.0
C901 C 0.97551 0.06841 0.09432 0.0
C902 C 0.96453 0.01225 0.14617 0.0
C903 C 0.94879 0.09488 0.11468 0.0
H904 H 0.88227 0.04069 0.16315 0.0
H905 H 0.94435 0.07638 0.21146 0.0
H906 H 0.89797 0.05006 0.11092 0.0
H907 H 0.91643 0.02587 0.11126 0.0
H908 H 0.88762 0.02141 0.1238 0.0
H909 H 0.98244 0.08826 0.19769 0.0
H910 H 0.98888 0.06373 0.1768 0.0
H911 H 0.98276 0.09231 0.16524 0.0
H912 H 0.99125 0.0126 0.10781 0.0
H913 H 0.97765 0.08198 0.08073 0.0
H914 H 0.94496 0.00429 0.14474 0.0
H915 H 0.96992 0.02024 0.16541 0.0
H916 H 0.97495 0.99691 0.14238 0.0
H917 H 0.9288 0.08927 0.11288 0.0
H918 H 0.9536 0.10736 0.1 0.0
H919 H 0.95412 0.10549 0.13288 0.0
C920 C 0.30512 0.69783 0.42711 0.0
C921 C 0.30163 0.70897 0.45013 0.0
C922 C 0.30059 0.70935 0.40516 0.0
C923 C 0.29196 0.7325 0.40603 0.0
C924 C 0.28836 0.7438 0.42923 0.0
C925 C 0.29338 0.73204 0.45092 0.0
C926 C 0.30508 0.69675 0.381 0.0
C927 C 0.27898 0.7683 0.43113 0.0
C928 C 0.30061 0.77564 0.354 0.0
C929 C 0.27774 0.77105 0.34031 0.0
C930 C 0.30562 0.76283 0.37493 0.0
C931 C 0.28718 0.74519 0.38284 0.0
C932 C 0.26407 0.74024 0.36886 0.0
C933 C 0.25968 0.75312 0.34772 0.0
C934 C 0.3307 0.76832 0.38868 0.0
C935 C 0.24383 0.72166 0.37649 0.0
H936 H 0.31145 0.68 0.42623 0.0
H937 H 0.29042 0.74074 0.46853 0.0
H938 H 0.28801 0.69271 0.36847 0.0
H939 H 0.3183 0.70937 0.37182 0.0
H940 H 0.31218 0.67903 0.38341 0.0
H941 H 0.27657 0.7744 0.45039 0.0
H942 H 0.29175 0.78299 0.42383 0.0
H943 H 0.26131 0.76665 0.41974 0.0
H944 H 0.31476 0.78929 0.34824 0.0
H945 H 0.24192 0.74962 0.33735 0.0
H946 H 0.3384 0.75084 0.3901 0.0
H947 H 0.32968 0.77616 0.40771 0.0
H948 H 0.34332 0.78173 0.3796 0.0
H949 H 0.2496 0.70316 0.37757 0.0
H950 H 0.22708 0.71958 0.3635 0.0
H951 H 0.23952 0.72767 0.39513 0.0
C952 C 0.58262 0.96761 0.6947 0.0
C953 C 0.58082 0.98496 0.71429 0.0
C954 C 0.57263 0.97019 0.67058 0.0
C955 C 0.5611 0.99102 0.66571 0.0
C956 C 0.5589 0.00837 0.68553 0.0
C957 C 0.5685 0.00497 0.70956 0.0
C958 C 0.5749 0.95089 0.65021 0.0
C959 C 0.54724 0.03112 0.6812 0.0
C960 C 0.56019 0.01297 0.60075 0.0
C961 C 0.53592 0.00507 0.59118 0.0
C962 C 0.56855 0.00855 0.62488 0.0
C963 C 0.55244 0.99535 0.63978 0.0
C964 C 0.52805 0.98676 0.63 0.0
C965 C 0.52002 0.992 0.60599 0.0
C966 C 0.59454 0.01853 0.63461 0.0
C967 C 0.51041 0.97207 0.64493 0.0
H968 H 0.59207 0.95208 0.69819 0.0
H969 H 0.56723 0.01861 0.72453 0.0
H970 H 0.55691 0.94406 0.6398 0.0
H971 H 0.58697 0.95941 0.63704 0.0
H972 H 0.5824 0.93471 0.65731 0.0
H973 H 0.54633 0.04249 0.6986 0.0
H974 H 0.55774 0.04295 0.66885 0.0
H975 H 0.52861 0.02552 0.67188 0.0
H976 H 0.5726 0.02328 0.58959 0.0
H977 H 0.50128 0.9857 0.59874 0.0
H978 H 0.604 0.00303 0.64016 0.0
H979 H 0.59505 0.03145 0.65127 0.0
H980 H 0.60472 0.02862 0.62082 0.0
H981 H 0.51784 0.95559 0.6513 0.0
H982 H 0.49245 0.96561 0.63428 0.0
H983 H 0.50779 0.9837 0.66157 0.0
C984 C 0.27031 0.38529 0.96364 0.0
C985 C 0.26314 0.37478 0.98501 0.0
C986 C 0.26968 0.3704 0.94168 0.0
C987 C 0.26168 0.3444 0.94116 0.0
C988 C 0.25438 0.33366 0.96266 0.0
C989 C 0.2552 0.34903 0.98441 0.0
C990 C 0.2776 0.38251 0.91906 0.0
C991 C 0.24576 0.306 0.96268 0.0
C992 C 0.24151 0.31368 0.87713 0.0
C993 C 0.26276 0.3054 0.87097 0.0
C994 C 0.24042 0.32527 0.90051 0.0
C995 C 0.26114 0.32864 0.91796 0.0
C996 C 0.28218 0.31902 0.91224 0.0
C997 C 0.28273 0.30746 0.88871 0.0
C998 C 0.21761 0.33515 0.906 0.0
C999 C 0.30456 0.32219 0.93045 0.0
H1000 H 0.27645 0.4052 0.96405 0.0
H1001 H 0.24963 0.34087 1.00093 0.0
H1002 H 0.293 0.37433 0.91247 0.0
H1003 H 0.26255 0.37886 0.90398 0.0
H1004 H 0.28327 0.40299 0.92258 0.0
H1005 H 0.24064 0.30061 0.98095 0.0
H1006 H 0.22984 0.30014 0.94881 0.0
H1007 H 0.26021 0.29554 0.95739 0.0
H1008 H 0.226 0.31192 0.86338 0.0
H1009 H 0.29913 0.30094 0.8839 0.0
H1010 H 0.22111 0.35583 0.90715 0.0
H1011 H 0.21212 0.32953 0.92404 0.0
H1012 H 0.20228 0.32844 0.89159 0.0
H1013 H 0.31274 0.34219 0.93323 0.0
H1014 H 0.31842 0.31142 0.92411 0.0
H1015 H 0.29976 0.31617 0.9486 0.0
C1016 C 0.89641 0.05575 0.34021 0.0
C1017 C 0.90668 0.06806 0.32106 0.0
C1018 C 0.90975 0.05594 0.36321 0.0
C1019 C 0.93383 0.06897 0.3672 0.0
C1020 C 0.94384 0.08251 0.34834 0.0
C1021 C 0.93018 0.08176 0.3254 0.0
C1022 C 0.89849 0.04113 0.38281 0.0
C1023 C 0.96931 0.09692 0.35203 0.0
C1024 C 0.9623 0.07816 0.43364 0.0
C1025 C 0.9752 0.05814 0.43467 0.0
C1026 C 0.94943 0.08259 0.41152 0.0
C1027 C 0.94921 0.06632 0.39019 0.0
C1028 C 0.96279 0.04648 0.39108 0.0
C1029 C 0.97577 0.04276 0.41328 0.0
C1030 C 0.93555 0.10421 0.41116 0.0
C1031 C 0.9629 0.0286 0.3688 0.0
H1032 H 0.87824 0.04517 0.33695 0.0
H1033 H 0.93812 0.09147 0.31069 0.0
H1034 H 0.90839 0.02537 0.38634 0.0
H1035 H 0.90005 0.05294 0.40036 0.0
H1036 H 0.87905 0.03349 0.37742 0.0
H1037 H 0.97335 0.10878 0.33669 0.0
H1038 H 0.97216 0.10894 0.36956 0.0
H1039 H 0.98251 0.08373 0.35331 0.0
H1040 H 0.96195 0.0901 0.45019 0.0
H1041 H 0.98575 0.02726 0.41407 0.0
H1042 H 0.9158 0.09707 0.40842 0.0
H1043 H 0.93999 0.11549 0.39554 0.0
H1044 H 0.93955 0.11652 0.42853 0.0
H1045 H 0.94424 0.01857 0.36313 0.0
H1046 H 0.975 0.01461 0.37238 0.0
H1047 H 0.9689 0.03898 0.35309 0.0
C1048 C 0.31648 0.72624 0.5949 0.0
C1049 C 0.30657 0.70132 0.58736 0.0
C1050 C 0.31335 0.73707 0.61833 0.0
C1051 C 0.29978 0.72279 0.63466 0.0
C1052 C 0.2901 0.69751 0.62726 0.0
C1053 C 0.29367 0.68712 0.60386 0.0
C1054 C 0.32429 0.76394 0.6255 0.0
C1055 C 0.27551 0.68152 0.64391 0.0
C1056 C 0.30498 0.74327 0.70362 0.0
C1057 C 0.28436 0.75476 0.70548 0.0
C1058 C 0.31049 0.73326 0.68075 0.0
C1059 C 0.29491 0.73441 0.65906 0.0
C1060 C 0.27413 0.74605 0.66081 0.0
C1061 C 0.26918 0.7561 0.68386 0.0
C1062 C 0.33281 0.72105 0.67992 0.0
C1063 C 0.25681 0.74749 0.63834 0.0
H1064 H 0.32649 0.73739 0.58237 0.0
H1065 H 0.28589 0.66787 0.59831 0.0
H1066 H 0.30968 0.77511 0.62833 0.0
H1067 H 0.33598 0.76543 0.6432 0.0
H1068 H 0.33528 0.77221 0.61132 0.0
H1069 H 0.26931 0.66217 0.63558 0.0
H1070 H 0.28653 0.68076 0.66166 0.0
H1071 H 0.25938 0.68986 0.64812 0.0
H1072 H 0.31681 0.74186 0.7201 0.0
H1073 H 0.25311 0.76473 0.68492 0.0
H1074 H 0.34365 0.72828 0.66521 0.0
H1075 H 0.32734 0.70067 0.67553 0.0
H1076 H 0.34452 0.72417 0.69772 0.0
H1077 H 0.26664 0.75716 0.62412 0.0
H1078 H 0.24169 0.75748 0.64263 0.0
H1079 H 0.24903 0.7284 0.63024 0.0
C1080 C 0.5783 0.9742 0.86134 0.0
C1081 C 0.58554 0.99434 0.84748 0.0
C1082 C 0.56705 0.97758 0.88311 0.0
C1083 C 0.56258 0.00162 0.89112 0.0
C1084 C 0.56997 0.02199 0.87722 0.0
C1085 C 0.58143 0.01814 0.85576 0.0
C1086 C 0.55977 0.95537 0.89747 0.0
C1087 C 0.56538 0.04787 0.88476 0.0
C1088 C 0.51055 0.0062 0.93073 0.0
C1089 C 0.52272 0.01314 0.9543 0.0
C1090 C 0.52328 0.00241 0.91017 0.0
C1091 C 0.54895 0.0053 0.91315 0.0
C1092 C 0.56138 0.01219 0.93702 0.0
C1093 C 0.54812 0.01605 0.95728 0.0
C1094 C 0.50918 0.99545 0.88517 0.0
C1095 C 0.58867 0.01529 0.9412 0.0
H1096 H 0.58154 0.95578 0.85524 0.0
H1097 H 0.58696 0.03386 0.84526 0.0
H1098 H 0.56772 0.95928 0.91693 0.0
H1099 H 0.53977 0.95178 0.89754 0.0
H1100 H 0.56568 0.93822 0.88966 0.0
H1101 H 0.57276 0.06186 0.87237 0.0
H1102 H 0.54559 0.04784 0.8846 0.0
H1103 H 0.5737 0.05376 0.90383 0.0
H1104 H 0.49091 0.00381 0.9283 0.0
H1105 H 0.5576 0.02083 0.97551 0.0
H1106 H 0.51299 0.97728 0.87746 0.0
H1107 H 0.51502 0.00955 0.87227 0.0
H1108 H 0.4893 0.99408 0.88589 0.0
H1109 H 0.59477 0.99753 0.93555 0.0
H1110 H 0.59563 0.02085 0.96077 0.0
H1111 H 0.59692 0.02963 0.92965 0.0
C1112 C 0.24934 0.37675 0.1254 0.0
C1113 C 0.23806 0.37426 0.10128 0.0
C1114 C 0.24395 0.35819 0.14145 0.0
C1115 C 0.22698 0.33656 0.13303 0.0
C1116 C 0.21443 0.33463 0.1092 0.0
C1117 C 0.22011 0.3536 0.09355 0.0
C1118 C 0.25749 0.3611 0.16693 0.0
C1119 C 0.19608 0.31195 0.09975 0.0
C1120 C 0.24423 0.28322 0.16702 0.0
C1121 C 0.23024 0.28417 0.18684 0.0
C1122 C 0.24149 0.29849 0.1477 0.0
C1123 C 0.22455 0.31521 0.14853 0.0
C1124 C 0.20852 0.31418 0.16706 0.0
C1125 C 0.21146 0.29846 0.186 0.0
C1126 C 0.25861 0.2987 0.12795 0.0
C1127 C 0.1902 0.33166 0.16857 0.0
H1128 H 0.26306 0.39283 0.13149 0.0
H1129 H 0.21129 0.35167 0.07489 0.0
H1130 H 0.24469 0.35728 0.18101 0.0
H1131 H 0.27016 0.34737 0.16819 0.0
H1132 H 0.26811 0.38008 0.17146 0.0
H1133 H 0.18521 0.31507 0.08254 0.0
H1134 H 0.20564 0.29598 0.09589 0.0
H1135 H 0.1836 0.30664 0.11379 0.0
H1136 H 0.25856 0.27194 0.16752 0.0
H1137 H 0.20059 0.29931 0.20133 0.0
H1138 H 0.27264 0.31564 0.13135 0.0
H1139 H 0.24877 0.29933 0.10953 0.0
H1140 H 0.26788 0.28209 0.1277 0.0
H1141 H 0.19955 0.35025 0.1767 0.0
H1142 H 0.17586 0.32489 0.18035 0.0
H1143 H 0.18155 0.33409 0.15002 0.0
C1144 C 0.16836 0.95709 0.04719 0.0
C1145 C 0.16383 0.9324 0.0366 0.0
C1146 C 0.14991 0.97196 0.04732 0.0
C1147 C 0.12616 0.96215 0.0364 0.0
C1148 C 0.12135 0.93713 0.02588 0.0
C1149 C 0.14016 0.92255 0.0262 0.0
C1150 C 0.156 0.9984 0.05888 0.0
C1151 C 0.09642 0.92592 0.01384 0.0
C1152 C 0.07484 0.99728 0.0533 0.0
C1153 C 0.07311 0.0127 0.03388 0.0
C1154 C 0.09157 0.98033 0.05415 0.0
C1155 C 0.10686 0.97858 0.03501 0.0
C1156 C 0.10465 0.99375 0.01509 0.0
C1157 C 0.08809 0.01073 0.01493 0.0
C1158 C 0.09328 0.9647 0.07581 0.0
C1159 C 0.12011 0.99241 0.99406 0.0
H1160 H 0.18649 0.96494 0.05538 0.0
H1161 H 0.13641 0.90354 0.01795 0.0
H1162 H 0.15347 0.01162 0.04463 0.0
H1163 H 0.14352 0.00149 0.07296 0.0
H1164 H 0.17495 0.00289 0.0677 0.0
H1165 H 0.09535 0.90605 0.0071 0.0
H1166 H 0.08273 0.92725 0.02705 0.0
H1167 H 0.09147 0.93656 0.99804 0.0
H1168 H 0.06357 0.99895 0.06818 0.0
H1169 H 0.08678 0.02245 0.99975 0.0
H1170 H 0.11166 0.96937 0.08593 0.0
H1171 H 0.09056 0.94466 0.0693 0.0
H1172 H 0.07968 0.96761 0.08879 0.0
H1173 H 0.13938 0.99944 1.00078 0.0
H1174 H 0.11454 0.00362 0.97896 0.0
H1175 H 0.11896 0.97281 0.98652 0.0
C1176 C 0.69915 0.59207 0.96097 0.0
C1177 C 0.70587 0.61695 0.97045 0.0
C1178 C 0.67538 0.57969 0.96142 0.0
C1179 C 0.65825 0.59243 0.97207 0.0
C1180 C 0.66456 0.61801 0.9802 0.0
C1181 C 0.6883 0.63005 0.97907 0.0
C1182 C 0.66904 0.55258 0.95195 0.0
C1183 C 0.64683 0.63217 0.99189 0.0
C1184 C 0.59134 0.56595 0.96815 0.0
C1185 C 0.59001 0.55532 0.99074 0.0
C1186 C 0.61364 0.57726 0.96125 0.0
C1187 C 0.63486 0.57842 0.97764 0.0
C1188 C 0.63365 0.56732 1.00028 0.0
C1189 C 0.61124 0.55568 0.00644 0.0
C1190 C 0.61438 0.58846 0.93676 0.0
C1191 C 0.65588 0.56855 0.01843 0.0
H1192 H 0.71268 0.582 0.95406 0.0
H1193 H 0.69345 0.64932 0.98638 0.0
H1194 H 0.66748 0.54084 0.96772 0.0
H1195 H 0.65126 0.54905 0.94055 0.0
H1196 H 0.68302 0.5466 0.9408 0.0
H1197 H 0.65383 0.65246 0.99509 0.0
H1198 H 0.62928 0.62953 0.98016 0.0
H1199 H 0.64316 0.62482 0.00985 0.0
H1200 H 0.57494 0.56554 0.95588 0.0
H1201 H 0.61025 0.54763 0.02399 0.0
H1202 H 0.62886 0.58208 0.92667 0.0
H1203 H 0.61875 0.60906 0.93979 0.0
H1204 H 0.59682 0.58351 0.92503 0.0
H1205 H 0.6701 0.56024 0.00958 0.0
H1206 H 0.65187 0.55862 0.03504 0.0
H1207 H 0.66349 0.5883 0.02435 0.0
C1208 C 0.72169 0.44935 0.29226 0.0
C1209 C 0.69717 0.44425 0.29638 0.0
C1210 C 0.73553 0.4301 0.28971 0.0
C1211 C 0.72461 0.40508 0.29125 0.0
C1212 C 0.69992 0.39981 0.29566 0.0
C1213 C 0.68651 0.41946 0.29821 0.0
C1214 C 0.7618 0.43652 0.28511 0.0
C1215 C 0.68761 0.37338 0.29742 0.0
C1216 C 0.75378 0.35326 0.26198 0.0
C1217 C 0.76652 0.34549 0.2825 0.0
C1218 C 0.74002 0.37261 0.26454 0.0
C1219 C 0.73905 0.38446 0.28821 0.0
C1220 C 0.75211 0.37675 0.30896 0.0
C1221 C 0.76582 0.3575 0.30582 0.0
C1222 C 0.72637 0.38024 0.24195 0.0
C1223 C 0.7514 0.38865 0.33453 0.0
H1224 H 0.73005 0.46844 0.29079 0.0
H1225 H 0.66755 0.41535 0.3013 0.0
H1226 H 0.77355 0.42968 0.29973 0.0
H1227 H 0.76477 0.42707 0.26732 0.0
H1228 H 0.76766 0.4569 0.28463 0.0
H1229 H 0.66841 0.37243 0.30128 0.0
H1230 H 0.68812 0.36205 0.27993 0.0
H1231 H 0.69744 0.36472 0.31223 0.0
H1232 H 0.75467 0.34425 0.24392 0.0
H1233 H 0.77555 0.35142 0.32177 0.0
H1234 H 0.73151 0.40053 0.24035 0.0
H1235 H 0.7066 0.37662 0.24361 0.0
H1236 H 0.72992 0.37 0.22477 0.0
H1237 H 0.75826 0.40893 0.33525 0.0
H1238 H 0.7624 0.38035 0.34874 0.0
H1239 H 0.73241 0.38648 0.33923 0.0
C1240 C 0.80386 0.45402 0.54492 0.0
C1241 C 0.79697 0.42932 0.53483 0.0
C1242 C 0.82755 0.46675 0.54407 0.0
C1243 C 0.84472 0.45447 0.53284 0.0
C1244 C 0.83785 0.4295 0.52272 0.0
C1245 C 0.8141 0.41726 0.52383 0.0
C1246 C 0.8342 0.49334 0.55509 0.0
C1247 C 0.85558 0.41571 0.51061 0.0
C1248 C 0.89996 0.49128 0.50904 0.0
C1249 C 0.91841 0.48894 0.52739 0.0
C1250 C 0.87576 0.4807 0.51088 0.0
C1251 C 0.86992 0.46756 0.53161 0.0
C1252 C 0.88845 0.46579 0.55051 0.0
C1253 C 0.91248 0.47646 0.54815 0.0
C1254 C 0.85655 0.48302 0.49033 0.0
C1255 C 0.88299 0.45206 0.57296 0.0
H1256 H 0.7907 0.46346 0.55342 0.0
H1257 H 0.80892 0.39818 0.51597 0.0
H1258 H 0.84967 0.4949 0.56958 0.0
H1259 H 0.84013 0.50572 0.54073 0.0
H1260 H 0.81882 0.50019 0.5633 0.0
H1261 H 0.84739 0.39634 0.50365 0.0
H1262 H 0.86226 0.42577 0.49496 0.0
H1263 H 0.87156 0.41498 0.52393 0.0
H1264 H 0.90451 0.50099 0.493 0.0
H1265 H 0.92671 0.47478 0.56245 0.0
H1266 H 0.84145 0.491 0.49783 0.0
H1267 H 0.84885 0.46427 0.48133 0.0
H1268 H 0.86382 0.49495 0.47613 0.0
H1269 H 0.86829 0.45939 0.58191 0.0
H1270 H 0.89914 0.4537 0.58669 0.0
H1271 H 0.8765 0.43202 0.56737 0.0
C1272 C 0.33584 0.11887 0.24139 0.0
C1273 C 0.35961 0.12504 0.25297 0.0
C1274 C 0.31973 0.13625 0.24121 0.0
C1275 C 0.32753 0.1606 0.25268 0.0
C1276 C 0.35171 0.16719 0.26387 0.0
C1277 C 0.36741 0.1493 0.26402 0.0
C1278 C 0.2941 0.12831 0.22925 0.0
C1279 C 0.36092 0.19308 0.27587 0.0
C1280 C 0.28903 0.21021 0.23536 0.0
C1281 C 0.27493 0.21099 0.25516 0.0
C1282 C 0.30669 0.19445 0.23458 0.0
C1283 C 0.31 0.1787 0.25385 0.0
C1284 C 0.29573 0.17947 0.27388 0.0
C1285 C 0.27845 0.1956 0.2743 0.0
C1286 C 0.32145 0.19433 0.21289 0.0
C1287 C 0.29862 0.16316 0.29488 0.0
H1288 H 0.3296 0.10019 0.23282 0.0
H1289 H 0.38577 0.15428 0.2729 0.0
H1290 H 0.28112 0.12961 0.24322 0.0
H1291 H 0.28997 0.141 0.21495 0.0
H1292 H 0.291 0.10891 0.22058 0.0
H1293 H 0.38046 0.19565 0.28276 0.0
H1294 H 0.35819 0.20715 0.26253 0.0
H1295 H 0.35044 0.19686 0.29155 0.0
H1296 H 0.28614 0.22183 0.22036 0.0
H1297 H 0.26771 0.19624 0.28975 0.0
H1298 H 0.31534 0.17681 0.20097 0.0
H1299 H 0.34092 0.19495 0.21916 0.0
H1300 H 0.31958 0.21032 0.20165 0.0
H1301 H 0.29645 0.14332 0.28771 0.0
H1302 H 0.28524 0.16496 0.30836 0.0
H1303 H 0.31713 0.16825 0.30465 0.0
C1304 C 0.34406 0.09819 0.49215 0.0
C1305 C 0.32162 0.09542 0.50175 0.0
C1306 C 0.36099 0.08274 0.49852 0.0
C1307 C 0.35531 0.0642 0.51498 0.0
C1308 C 0.33235 0.06071 0.52406 0.0
C1309 C 0.31569 0.07639 0.51727 0.0
C1310 C 0.38528 0.08687 0.48827 0.0
C1311 C 0.32575 0.0411 0.54162 0.0
C1312 C 0.39871 0.01789 0.51438 0.0
C1313 C 0.41682 0.02941 0.53266 0.0
C1314 C 0.37733 0.02784 0.50966 0.0
C1315 C 0.3742 0.04969 0.52364 0.0
C1316 C 0.39141 0.05984 0.54371 0.0
C1317 C 0.4126 0.04954 0.54798 0.0
C1318 C 0.35927 0.01639 0.48824 0.0
C1319 C 0.3886 0.08301 0.55919 0.0
H1320 H 0.34862 0.11279 0.48004 0.0
H1321 H 0.2983 0.07422 0.52471 0.0
H1322 H 0.39992 0.09295 0.50348 0.0
H1323 H 0.3889 0.06919 0.4792 0.0
H1324 H 0.3863 0.10119 0.47469 0.0
H1325 H 0.30635 0.03913 0.54501 0.0
H1326 H 0.32954 0.02277 0.53434 0.0
H1327 H 0.33706 0.04616 0.55948 0.0
H1328 H 0.40197 0.00221 0.50261 0.0
H1329 H 0.42659 0.05832 0.56225 0.0
H1330 H 0.36134 0.02809 0.47248 0.0
H1331 H 0.34041 0.01567 0.49306 0.0
H1332 H 0.36203 0.99725 0.48221 0.0
H1333 H 0.39188 0.09943 0.54826 0.0
H1334 H 0.4016 0.08632 0.57611 0.0
H1335 H 0.3699 0.08166 0.56459 0.0
C1336 C 0.67411 0.59323 0.28312 0.0
C1337 C 0.68751 0.57619 0.29372 0.0
C1338 C 0.68479 0.61799 0.28096 0.0
C1339 C 0.7096 0.62596 0.28938 0.0
C1340 C 0.72323 0.60885 0.30016 0.0
C1341 C 0.712 0.58422 0.30231 0.0
C1342 C 0.66951 0.63563 0.26959 0.0
C1343 C 0.74975 0.61652 0.30921 0.0
C1344 C 0.74124 0.68354 0.26228 0.0
C1345 C 0.74103 0.70238 0.28101 0.0
C1346 C 0.73158 0.65855 0.26498 0.0
C1347 C 0.72119 0.65218 0.28682 0.0
C1348 C 0.72113 0.67106 0.30588 0.0
C1349 C 0.73112 0.69584 0.3028 0.0
C1350 C 0.7322 0.63899 0.24429 0.0
C1351 C 0.71004 0.66517 0.32935 0.0
H1352 H 0.65517 0.5872 0.27647 0.0
H1353 H 0.72249 0.57114 0.31044 0.0
H1354 H 0.66971 0.6521 0.2827 0.0
H1355 H 0.67722 0.64254 0.2529 0.0
H1356 H 0.65039 0.62668 0.26436 0.0
H1357 H 0.75782 0.60104 0.31713 0.0
H1358 H 0.76 0.62297 0.2938 0.0
H1359 H 0.75208 0.63239 0.32346 0.0
H1360 H 0.74893 0.6883 0.24542 0.0
H1361 H 0.7307 0.7102 0.31736 0.0
H1362 H 0.71343 0.63059 0.2369 0.0
H1363 H 0.74128 0.62376 0.25129 0.0
H1364 H 0.74186 0.64674 0.22897 0.0
H1365 H 0.69046 0.65764 0.32506 0.0
H1366 H 0.712 0.68182 0.34268 0.0
H1367 H 0.71868 0.65059 0.33827 0.0
C1368 C 0.86034 0.49162 0.78244 0.0
C1369 C 0.85693 0.50577 0.76229 0.0
C1370 C 0.84649 0.46798 0.78332 0.0
C1371 C 0.82837 0.45845 0.76382 0.0
C1372 C 0.82408 0.47316 0.74395 0.0
C1373 C 0.83863 0.49654 0.74326 0.0
C1374 C 0.85204 0.45274 0.8046 0.0
C1375 C 0.80456 0.46392 0.7231 0.0
C1376 C 0.8143 0.38792 0.75309 0.0
C1377 C 0.79407 0.38222 0.76613 0.0
C1378 C 0.82527 0.41268 0.75177 0.0
C1379 C 0.81547 0.43231 0.76335 0.0
C1380 C 0.79437 0.4267 0.77566 0.0
C1381 C 0.78405 0.40164 0.77714 0.0
C1382 C 0.84796 0.41773 0.73881 0.0
C1383 C 0.78305 0.44713 0.78771 0.0
H1384 H 0.87452 0.49863 0.79717 0.0
H1385 H 0.83582 0.5075 0.72772 0.0
H1386 H 0.83536 0.44668 0.81346 0.0
H1387 H 0.85865 0.43566 0.79771 0.0
H1388 H 0.86601 0.46324 0.81877 0.0
H1389 H 0.80171 0.47863 0.71051 0.0
H1390 H 0.80961 0.44793 0.71227 0.0
H1391 H 0.78716 0.45718 0.73046 0.0
H1392 H 0.8221 0.37293 0.74455 0.0
H1393 H 0.76832 0.39726 0.78712 0.0
H1394 H 0.86335 0.42691 0.75216 0.0
H1395 H 0.84549 0.43065 0.72429 0.0
H1396 H 0.8529 0.40042 0.73022 0.0
H1397 H 0.79549 0.45672 0.80357 0.0
H1398 H 0.76542 0.43985 0.7944 0.0
H1399 H 0.78014 0.4613 0.77455 0.0
C1400 C 0.00213 0.81987 0.09615 0.0
C1401 C 0.99529 0.8224 0.1201 0.0
C1402 C 0.00315 0.8398 0.08101 0.0
C1403 C 0.99712 0.86276 0.09002 0.0
C1404 C 0.98966 0.86522 0.11398 0.0
C1405 C 0.98889 0.84503 0.12874 0.0
C1406 C 0.01126 0.83647 0.05562 0.0
C1407 C 0.98301 0.88937 0.12425 0.0
C1408 C 0.0234 0.92361 0.06551 0.0
C1409 C 0.0035 0.92897 0.05058 0.0
C1410 C 0.02184 0.90164 0.07767 0.0
C1411 C 0.99975 0.88469 0.07499 0.0
C1412 C 0.97988 0.88954 0.05912 0.0
C1413 C 0.98203 0.91165 0.04699 0.0
C1414 C 0.04356 0.89709 0.09417 0.0
C1415 C 0.95604 0.87192 0.05578 0.0
H1416 H 0.00708 0.80241 0.08935 0.0
H1417 H 0.98353 0.84708 0.1472 0.0
H1418 H 0.9976 0.84141 0.0416 0.0
H1419 H 0.02848 0.84925 0.05452 0.0
H1420 H 0.01411 0.81707 0.05088 0.0
H1421 H 0.97647 0.88788 0.14273 0.0
H1422 H 0.99903 0.90435 0.12571 0.0
H1423 H 0.96864 0.89516 0.11162 0.0
H1424 H 0.04006 0.93696 0.0682 0.0
H1425 H 0.96661 0.91582 0.0355 0.0
H1426 H 0.04791 0.87831 0.08934 0.0
H1427 H 0.03932 0.89765 0.11359 0.0
H1428 H 0.05987 0.91118 0.09285 0.0
H1429 H 0.95901 0.85265 0.05075 0.0
H1430 H 0.94303 0.87735 0.04136 0.0
H1431 H 0.94772 0.87168 0.07341 0.0
C1432 C 0.95535 0.26951 0.81808 0.0
C1433 C 0.96063 0.27619 0.84342 0.0
C1434 C 0.93151 0.26736 0.80654 0.0
C1435 C 0.91251 0.27216 0.82065 0.0
C1436 C 0.9177 0.2784 0.84632 0.0
C1437 C 0.94161 0.28028 0.85736 0.0
C1438 C 0.92671 0.26042 0.77919 0.0
C1439 C 0.89807 0.28371 0.8621 0.0
C1440 C 0.85658 0.29447 0.79067 0.0
C1441 C 0.83876 0.27315 0.78973 0.0
C1442 C 0.88072 0.29415 0.8 0.0
C1443 C 0.88742 0.27195 0.80856 0.0
C1444 C 0.86975 0.25013 0.80694 0.0
C1445 C 0.84566 0.251 0.79764 0.0
C1446 C 0.89887 0.31791 0.80154 0.0
C1447 C 0.87611 0.22604 0.81576 0.0
H1448 H 0.96991 0.26626 0.80718 0.0
H1449 H 0.94546 0.28542 0.87696 0.0
H1450 H 0.91193 0.24417 0.77534 0.0
H1451 H 0.92056 0.27613 0.7698 0.0
H1452 H 0.94306 0.2558 0.77109 0.0
H1453 H 0.90492 0.28765 0.88189 0.0
H1454 H 0.89027 0.30001 0.85579 0.0
H1455 H 0.8831 0.2676 0.8602 0.0
H1456 H 0.85159 0.31172 0.78467 0.0
H1457 H 0.83212 0.23441 0.7971 0.0
H1458 H 0.91501 0.31462 0.7923 0.0
H1459 H 0.90519 0.32403 0.82112 0.0
H1460 H 0.89113 0.33326 0.79297 0.0
H1461 H 0.89236 0.22141 0.80751 0.0
H1462 H 0.86098 0.2102 0.81112 0.0
H1463 H 0.88062 0.22818 0.83603 0.0
C1464 C 0.51254 0.18176 0.6314 0.0
C1465 C 0.49416 0.19575 0.6254 0.0
C1466 C 0.51535 0.16083 0.6162 0.0
C1467 C 0.49909 0.15339 0.59468 0.0
C1468 C 0.47984 0.16681 0.5891 0.0
C1469 C 0.47776 0.18801 0.60439 0.0
C1470 C 0.53628 0.14724 0.62269 0.0
C1471 C 0.46177 0.15908 0.5667 0.0
C1472 C 0.5228 0.11654 0.54328 0.0
C1473 C 0.51393 0.09192 0.5477 0.0
C1474 C 0.51772 0.13674 0.55814 0.0
C1475 C 0.50299 0.13222 0.57759 0.0
C1476 C 0.49325 0.1074 0.58153 0.0
C1477 C 0.49918 0.08756 0.56682 0.0
C1478 C 0.52876 0.16289 0.55352 0.0
C1479 C 0.47706 0.10173 0.60169 0.0
H1480 H 0.52535 0.18772 0.64753 0.0
H1481 H 0.46347 0.19871 0.59971 0.0
H1482 H 0.52951 0.12721 0.62415 0.0
H1483 H 0.54853 0.14838 0.60786 0.0
H1484 H 0.54699 0.15505 0.64033 0.0
H1485 H 0.44683 0.17032 0.56594 0.0
H1486 H 0.47107 0.16127 0.54976 0.0
H1487 H 0.45383 0.13911 0.56661 0.0
H1488 H 0.53429 0.12002 0.52859 0.0
H1489 H 0.4927 0.0686 0.5707 0.0
H1490 H 0.54108 0.17152 0.5699 0.0
H1491 H 0.51437 0.17456 0.55063 0.0
H1492 H 0.53922 0.16331 0.53724 0.0
H1493 H 0.48773 0.10667 0.61991 0.0
H1494 H 0.46884 0.08173 0.60058 0.0
H1495 H 0.46229 0.11313 0.60068 0.0
C1496 C 0.61028 0.80951 0.33688 0.0
C1497 C 0.59185 0.78868 0.33502 0.0
C1498 C 0.6316 0.80881 0.32534 0.0
C1499 C 0.63459 0.78675 0.31155 0.0
C1500 C 0.61595 0.76573 0.30948 0.0
C1501 C 0.59486 0.76694 0.32122 0.0
C1502 C 0.65101 0.83161 0.32805 0.0
C1503 C 0.61838 0.74184 0.29498 0.0
C1504 C 0.6793 0.79004 0.263 0.0
C1505 C 0.69926 0.78189 0.27535 0.0
C1506 C 0.6583 0.79209 0.27468 0.0
C1507 C 0.65715 0.7856 0.29925 0.0
C1508 C 0.67731 0.77727 0.31176 0.0
C1509 C 0.69803 0.77537 0.29957 0.0
C1510 C 0.63725 0.80099 0.26063 0.0
C1511 C 0.67687 0.77001 0.33789 0.0
H1512 H 0.60814 0.82635 0.34758 0.0
H1513 H 0.58075 0.75074 0.31973 0.0
H1514 H 0.66815 0.82704 0.33703 0.0
H1515 H 0.65475 0.83769 0.30963 0.0
H1516 H 0.64582 0.8474 0.33912 0.0
H1517 H 0.60223 0.72721 0.29504 0.0
H1518 H 0.62102 0.74549 0.27562 0.0
H1519 H 0.63461 0.73456 0.30278 0.0
H1520 H 0.68012 0.79487 0.24416 0.0
H1521 H 0.71291 0.7679 0.30869 0.0
H1522 H 0.63258 0.81757 0.27083 0.0
H1523 H 0.62102 0.78625 0.25891 0.0
H1524 H 0.64124 0.80591 0.24188 0.0
H1525 H 0.67397 0.78609 0.35015 0.0
H1526 H 0.69396 0.76378 0.34496 0.0
H1527 H 0.66153 0.75474 0.33898 0.0
C1528 C 0.04202 0.18804 0.45714 0.0
C1529 C 0.0358 0.20984 0.46807 0.0
C1530 C 0.04126 0.16648 0.46984 0.0
C1531 C 0.03453 0.16702 0.49413 0.0
C1532 C 0.029 0.18923 0.50553 0.0
C1533 C 0.02949 0.21037 0.49224 0.0
C1534 C 0.04697 0.14296 0.45706 0.0
C1535 C 0.02219 0.19051 0.53159 0.0
C1536 C 0.00814 0.10626 0.51822 0.0
C1537 C 0.02844 0.10022 0.53181 0.0
C1538 C 0.0099 0.12795 0.5057 0.0
C1539 C 0.03243 0.14409 0.50734 0.0
C1540 C 0.0529 0.13832 0.52156 0.0
C1541 C 0.05064 0.11634 0.53364 0.0
C1542 C 0.98779 0.13337 0.4904 0.0
C1543 C 0.07719 0.15516 0.52375 0.0
H1544 H 0.0468 0.18762 0.43839 0.0
H1545 H 0.02482 0.22729 0.50073 0.0
H1546 H 0.06169 0.13594 0.46812 0.0
H1547 H 0.03076 0.12818 0.45533 0.0
H1548 H 0.05258 0.1459 0.43838 0.0
H1549 H 0.01966 0.20957 0.53818 0.0
H1550 H 0.00509 0.17753 0.53271 0.0
H1551 H 0.03645 0.18453 0.54421 0.0
H1552 H 0.9909 0.09397 0.51737 0.0
H1553 H 0.06638 0.11154 0.54413 0.0
H1554 H 0.9914 0.13387 0.47082 0.0
H1555 H 0.98369 0.15194 0.4965 0.0
H1556 H 0.97152 0.11917 0.49157 0.0
H1557 H 0.08391 0.15641 0.50536 0.0
H1558 H 0.09103 0.14839 0.53631 0.0
H1559 H 0.07528 0.17429 0.53067 0.0
C1560 C 0.58853 0.29395 0.14664 0.0
C1561 C 0.57036 0.30758 0.15255 0.0
C1562 C 0.60983 0.29543 0.1625 0.0
C1563 C 0.61293 0.31093 0.18473 0.0
C1564 C 0.59519 0.32568 0.19021 0.0
C1565 C 0.57403 0.32382 0.174 0.0
C1566 C 0.62849 0.27953 0.15598 0.0
C1567 C 0.59805 0.34254 0.21368 0.0
C1568 C 0.6532 0.28798 0.23439 0.0
C1569 C 0.67561 0.30233 0.23186 0.0
C1570 C 0.63224 0.29159 0.22004 0.0
C1571 C 0.63392 0.31004 0.20293 0.0
C1572 C 0.65627 0.32569 0.20155 0.0
C1573 C 0.67695 0.32157 0.21604 0.0
C1574 C 0.60864 0.27466 0.22214 0.0
C1575 C 0.65867 0.34573 0.18373 0.0
H1576 H 0.58578 0.28149 0.13 0.0
H1577 H 0.56002 0.33447 0.17856 0.0
H1578 H 0.64665 0.29119 0.15685 0.0
H1579 H 0.62971 0.26538 0.16954 0.0
H1580 H 0.62401 0.26973 0.13729 0.0
H1581 H 0.584 0.35484 0.21385 0.0
H1582 H 0.59664 0.33106 0.22966 0.0
H1583 H 0.61622 0.35433 0.21624 0.0
H1584 H 0.6522 0.27321 0.24678 0.0
H1585 H 0.69434 0.33275 0.21423 0.0
H1586 H 0.60347 0.26219 0.20499 0.0
H1587 H 0.59387 0.28576 0.22432 0.0
H1588 H 0.60991 0.26294 0.23792 0.0
H1589 H 0.65753 0.33694 0.1647 0.0
H1590 H 0.67621 0.35863 0.18759 0.0
H1591 H 0.64365 0.35674 0.18443 0.0
C1592 C 0.55007 0.84382 0.9964 0.0
C1593 C 0.54722 0.84141 0.97059 0.0
C1594 C 0.54994 0.86688 0.00939 0.0
C1595 C 0.54672 0.88778 0.99614 0.0
C1596 C 0.54534 0.88573 0.9701 0.0
C1597 C 0.54566 0.86255 0.95765 0.0
C1598 C 0.55194 0.86854 0.03716 0.0
C1599 C 0.54208 0.90767 0.95529 0.0
C1600 C 0.51296 0.93798 0.01872 0.0
C1601 C 0.53158 0.95862 0.02271 0.0
C1602 C 0.51792 0.91427 0.01172 0.0
C1603 C 0.54212 0.91112 0.00896 0.0
C1604 C 0.56124 0.93134 0.01521 0.0
C1605 C 0.55573 0.95495 0.0219 0.0
C1606 C 0.49701 0.89311 0.00525 0.0
C1607 C 0.58732 0.92853 0.01306 0.0
H1608 H 0.55147 0.82752 0.00647 0.0
H1609 H 0.5437 0.8608 0.93769 0.0
H1610 H 0.56455 0.88554 0.045 0.0
H1611 H 0.53392 0.86989 0.04344 0.0
H1612 H 0.55834 0.85197 0.04467 0.0
H1613 H 0.54299 0.90336 0.9353 0.0
H1614 H 0.52421 0.91327 0.95781 0.0
H1615 H 0.55622 0.92392 0.96185 0.0
H1616 H 0.49426 0.94052 0.01951 0.0
H1617 H 0.57031 0.97071 0.02534 0.0
H1618 H 0.50073 0.87621 0.01417 0.0
H1619 H 0.49474 0.88835 0.98504 0.0
H1620 H 0.47967 0.89793 0.01087 0.0
H1621 H 0.59129 0.91084 0.02021 0.0
H1622 H 0.60013 0.94431 0.02317 0.0
H1623 H 0.59067 0.92794 0.99338 0.0
C1624 C 0.95661 0.78255 0.68313 0.0
C1625 C 0.95507 0.79459 0.66131 0.0
C1626 C 0.93833 0.78215 0.69899 0.0
C1627 C 0.91801 0.79376 0.69258 0.0
C1628 C 0.91681 0.80664 0.67098 0.0
C1629 C 0.93546 0.80702 0.65567 0.0
C1630 C 0.94031 0.76858 0.7221 0.0
C1631 C 0.89527 0.81904 0.66342 0.0
C1632 C 0.8567 0.76845 0.71167 0.0
C1633 C 0.85342 0.78727 0.72911 0.0
C1634 C 0.87815 0.76986 0.70037 0.0
C1635 C 0.89682 0.79046 0.70696 0.0
C1636 C 0.89415 0.80883 0.7256 0.0
C1637 C 0.87227 0.80711 0.73639 0.0
C1638 C 0.88023 0.74997 0.68045 0.0
C1639 C 0.91396 0.83074 0.7334 0.0
H1640 H 0.97191 0.77313 0.68764 0.0
H1641 H 0.9343 0.81643 0.63885 0.0
H1642 H 0.93669 0.78041 0.73819 0.0
H1643 H 0.92647 0.75148 0.72021 0.0
H1644 H 0.95849 0.76313 0.7259 0.0
H1645 H 0.89782 0.82948 0.64683 0.0
H1646 H 0.87877 0.8047 0.65941 0.0
H1647 H 0.89196 0.83212 0.67866 0.0
H1648 H 0.84213 0.75301 0.70618 0.0
H1649 H 0.86973 0.82153 0.75007 0.0
H1650 H 0.89724 0.74227 0.68427 0.0
H1651 H 0.88097 0.75829 0.6625 0.0
H1652 H 0.86471 0.73438 0.67871 0.0
H1653 H 0.93168 0.82432 0.73702 0.0
H1654 H 0.91029 0.84157 0.75018 0.0
H1655 H 0.91559 0.84335 0.71832 0.0
C1656 C 0.09322 0.98819 0.85797 0.0
C1657 C 0.11775 0.99904 0.86205 0.0
C1658 C 0.0779 0.98862 0.87685 0.0
C1659 C 0.08719 1.00057 0.9003 0.0
C1660 C 0.11209 0.01124 0.90462 0.0
C1661 C 0.1271 0.01005 0.88552 0.0
C1662 C 0.05161 0.97672 0.87153 0.0
C1663 C 0.12327 0.02388 0.92929 0.0
C1664 C 0.0432 0.02683 0.93967 0.0
C1665 C 0.04014 0.00945 0.95743 0.0
C1666 C 0.05824 0.02396 0.92091 0.0
C1667 C 0.0705 0.00314 0.9197 0.0
C1668 C 0.06713 0.98524 0.93723 0.0
C1669 C 0.05191 0.98854 0.95582 0.0
C1670 C 0.06183 0.04381 0.90298 0.0
C1671 C 0.08017 0.96301 0.93675 0.0
H1672 H 0.0859 0.97946 0.83991 0.0
H1673 H 0.14609 0.01831 0.88885 0.0
H1674 H 0.04676 0.96328 0.88535 0.0
H1675 H 0.03983 0.99123 0.87299 0.0
H1676 H 0.04758 0.96679 0.85286 0.0
H1677 H 0.13815 0.03931 0.92702 0.0
H1678 H 0.10992 0.03148 0.94012 0.0
H1679 H 0.13133 0.01006 0.94002 0.0
H1680 H 0.03435 0.04313 0.94079 0.0
H1681 H 0.05004 0.97521 0.96967 0.0
H1682 H 0.05716 0.03536 0.8838 0.0
H1683 H 0.08121 0.05256 0.90479 0.0
H1684 H 0.05063 0.05863 0.90608 0.0
H1685 H 0.07533 0.95184 0.91878 0.0
H1686 H 0.07572 0.9508 0.95173 0.0
H1687 H 0.10005 0.96941 0.93863 0.0
C1688 C 0.75767 0.35229 0.60993 0.0
C1689 C 0.73417 0.35259 0.59875 0.0
C1690 C 0.76163 0.33953 0.63114 0.0
C1691 C 0.7416 0.32731 0.64209 0.0
C1692 C 0.71777 0.32796 0.63114 0.0
C1693 C 0.71436 0.34022 0.60941 0.0
C1694 C 0.78734 0.33885 0.64165 0.0
C1695 C 0.69584 0.31585 0.6425 0.0
C1696 C 0.75047 0.27471 0.68344 0.0
C1697 C 0.75391 0.28714 0.70707 0.0
C1698 C 0.74682 0.28757 0.66223 0.0
C1699 C 0.74567 0.31344 0.66462 0.0
C1700 C 0.74874 0.326 0.68854 0.0
C1701 C 0.75305 0.31275 0.7094 0.0
C1702 C 0.74437 0.27347 0.63721 0.0
C1703 C 0.74694 0.35333 0.69218 0.0
H1704 H 0.7731 0.36169 0.60177 0.0
H1705 H 0.69615 0.34054 0.60103 0.0
H1706 H 0.7905 0.34746 0.66084 0.0
H1707 H 0.79034 0.31922 0.64225 0.0
H1708 H 0.80095 0.3488 0.63072 0.0
H1709 H 0.67857 0.31905 0.63254 0.0
H1710 H 0.69573 0.29547 0.64246 0.0
H1711 H 0.69665 0.32325 0.662 0.0
H1712 H 0.75093 0.25486 0.68153 0.0
H1713 H 0.75478 0.32228 0.72756 0.0
H1714 H 0.75818 0.28243 0.62591 0.0
H1715 H 0.72631 0.27407 0.62738 0.0
H1716 H 0.74659 0.25365 0.63841 0.0
H1717 H 0.76063 0.36447 0.68224 0.0
H1718 H 0.74974 0.36037 0.71192 0.0
H1719 H 0.72882 0.35648 0.68432 0.0
C1720 C 0.45766 0.0864 0.33971 0.0
C1721 C 0.43744 0.06923 0.3293 0.0
C1722 C 0.4685 0.08437 0.3637 0.0
C1723 C 0.45942 0.06427 0.37731 0.0
C1724 C 0.43919 0.04677 0.36666 0.0
C1725 C 0.4283 0.04968 0.34305 0.0
C1726 C 0.48958 0.10383 0.37457 0.0
C1727 C 0.42923 0.02465 0.38003 0.0
C1728 C 0.50012 0.04265 0.4288 0.0
C1729 C 0.49031 0.05079 0.45001 0.0
C1730 C 0.49058 0.04731 0.40513 0.0
C1731 C 0.47113 0.06107 0.40248 0.0
C1732 C 0.4618 0.07017 0.42392 0.0
C1733 C 0.47123 0.06461 0.44734 0.0
C1734 C 0.50066 0.03655 0.3829 0.0
C1735 C 0.44151 0.08542 0.42211 0.0
H1736 H 0.46475 0.10161 0.32925 0.0
H1737 H 0.41281 0.03618 0.33509 0.0
H1738 H 0.48547 0.11228 0.39239 0.0
H1739 H 0.50595 0.09504 0.3784 0.0
H1740 H 0.49385 0.11888 0.36214 0.0
H1741 H 0.41386 0.01233 0.36894 0.0
H1742 H 0.44374 0.0135 0.38469 0.0
H1743 H 0.42292 0.03111 0.39759 0.0
H1744 H 0.5147 0.03175 0.43063 0.0
H1745 H 0.46363 0.07111 0.46361 0.0
H1746 H 0.50656 0.05148 0.37089 0.0
H1747 H 0.48627 0.02294 0.37189 0.0
H1748 H 0.51628 0.02699 0.38804 0.0
H1749 H 0.44601 0.10107 0.41045 0.0
H1750 H 0.43786 0.09312 0.44044 0.0
H1751 H 0.42464 0.07368 0.41317 0.0
C1752 C 0.76078 0.68491 0.06888 0.0
C1753 C 0.77928 0.69119 0.05379 0.0
C1754 C 0.76092 0.69797 0.09176 0.0
C1755 C 0.77992 0.71794 0.09964 0.0
C1756 C 0.79847 0.7247 0.08433 0.0
C1757 C 0.79799 0.71111 0.06154 0.0
C1758 C 0.74089 0.69011 0.10767 0.0
C1759 C 0.81886 0.74606 0.09214 0.0
C1760 C 0.76448 0.76057 0.15111 0.0
C1761 C 0.77457 0.7505 0.17175 0.0
C1762 C 0.76732 0.75112 0.12729 0.0
C1763 C 0.78046 0.73113 0.12427 0.0
C1764 C 0.7918 0.72186 0.14513 0.0
C1765 C 0.78873 0.73172 0.16868 0.0
C1766 C 0.75524 0.76165 0.10544 0.0
C1767 C 0.80599 0.70058 0.14265 0.0
H1768 H 0.74629 0.66951 0.06295 0.0
H1769 H 0.81227 0.71604 0.04983 0.0
H1770 H 0.74871 0.68444 0.12539 0.0
H1771 H 0.7314 0.70602 0.11202 0.0
H1772 H 0.72732 0.67434 0.09867 0.0
H1773 H 0.83135 0.74954 0.07767 0.0
H1774 H 0.81139 0.76334 0.09654 0.0
H1775 H 0.82947 0.74204 0.10912 0.0
H1776 H 0.75374 0.7753 0.15355 0.0
H1777 H 0.7968 0.72417 0.18472 0.0
H1778 H 0.73975 0.74775 0.09668 0.0
H1779 H 0.76809 0.76555 0.09141 0.0
H1780 H 0.74835 0.77909 0.11076 0.0
H1781 H 0.79339 0.68319 0.13591 0.0
H1782 H 0.81589 0.6975 0.16043 0.0
H1783 H 0.81924 0.70412 0.12895 0.0
C1784 C 0.1374 0.00633 0.71274 0.0
C1785 C 0.12634 0.99318 0.73097 0.0
C1786 C 0.12474 0.00745 0.68963 0.0
C1787 C 0.10057 0.99483 0.68456 0.0
C1788 C 0.08979 0.98039 0.70243 0.0
C1789 C 0.10276 0.97991 0.72554 0.0
C1790 C 0.13678 0.02324 0.67113 0.0
C1791 C 0.06423 0.96632 0.69753 0.0
C1792 C 0.05993 0.02341 0.63921 0.0
C1793 C 0.06087 0.00894 0.61734 0.0
C1794 C 0.07248 0.01871 0.66129 0.0
C1795 C 0.08593 0.99875 0.66154 0.0
C1796 C 0.08615 0.98345 0.63964 0.0
C1797 C 0.07377 0.9889 0.61767 0.0
C1798 C 0.07198 0.03562 0.68419 0.0
C1799 C 0.09986 0.96169 0.63933 0.0
H1800 H 0.15563 0.01662 0.71687 0.0
H1801 H 0.09422 0.96956 0.73954 0.0
H1802 H 0.13559 0.01231 0.65311 0.0
H1803 H 0.12719 0.03932 0.66817 0.0
H1804 H 0.15617 0.03047 0.67726 0.0
H1805 H 0.05957 0.95367 0.7121 0.0
H1806 H 0.05123 0.97973 0.6966 0.0
H1807 H 0.06175 0.95517 0.67951 0.0
H1808 H 0.04996 0.03894 0.63892 0.0
H1809 H 0.07432 0.9776 0.60073 0.0
H1810 H 0.09063 0.04516 0.69073 0.0
H1811 H 0.06528 0.02451 0.69917 0.0
H1812 H 0.06025 0.05 0.68098 0.0
H1813 H 0.1196 0.96861 0.6431 0.0
H1814 H 0.09648 0.95036 0.62136 0.0
H1815 H 0.09464 0.94948 0.65406 0.0
C1816 C 0.71785 0.32944 0.45797 0.0
C1817 C 0.72135 0.35545 0.46277 0.0
C1818 C 0.72098 0.31836 0.43465 0.0
C1819 C 0.72832 0.33359 0.41571 0.0
C1820 C 0.73152 0.35986 0.4204 0.0
C1821 C 0.72779 0.3704 0.44368 0.0
C1822 C 0.71685 0.29031 0.43039 0.0
C1823 C 0.7397 0.37692 0.40107 0.0
C1824 C 0.76243 0.3069 0.36541 0.0
C1825 C 0.74478 0.30243 0.34499 0.0
C1826 C 0.75727 0.31686 0.38841 0.0
C1827 C 0.73372 0.3222 0.39142 0.0
C1828 C 0.7157 0.31739 0.37098 0.0
C1829 C 0.72148 0.30784 0.34804 0.0
C1830 C 0.77727 0.3222 0.40939 0.0
C1831 C 0.69029 0.32249 0.37329 0.0
H1832 H 0.71288 0.3177 0.47255 0.0
H1833 H 0.73072 0.39051 0.44717 0.0
H1834 H 0.70403 0.28421 0.41365 0.0
H1835 H 0.73418 0.28384 0.42719 0.0
H1836 H 0.7095 0.28109 0.44624 0.0
H1837 H 0.74093 0.39692 0.40736 0.0
H1838 H 0.75777 0.37365 0.39617 0.0
H1839 H 0.72696 0.37278 0.38405 0.0
H1840 H 0.78057 0.30314 0.36333 0.0
H1841 H 0.70767 0.30456 0.33246 0.0
H1842 H 0.77183 0.31189 0.42533 0.0
H1843 H 0.78047 0.34236 0.41555 0.0
H1844 H 0.79458 0.31692 0.40417 0.0
H1845 H 0.68274 0.31288 0.38882 0.0
H1846 H 0.67794 0.31626 0.35622 0.0
H1847 H 0.69062 0.34275 0.37743 0.0
C1848 C 0.44917 0.04071 0.18693 0.0
C1849 C 0.44233 0.06364 0.19411 0.0
C1850 C 0.46044 0.03737 0.16528 0.0
C1851 C 0.46512 0.05744 0.15025 0.0
C1852 C 0.45809 0.0806 0.15728 0.0
C1853 C 0.44679 0.08342 0.17907 0.0
C1854 C 0.4676 0.01237 0.15862 0.0
C1855 C 0.46273 0.10251 0.14186 0.0
C1856 C 0.51688 0.05638 0.10975 0.0
C1857 C 0.50461 0.04773 0.08656 0.0
C1858 C 0.50426 0.0598 0.13043 0.0
C1859 C 0.47858 0.05451 0.12801 0.0
C1860 C 0.46603 0.04595 0.10452 0.0
C1861 C 0.4792 0.04278 0.08408 0.0
C1862 C 0.51848 0.06895 0.15498 0.0
C1863 C 0.4387 0.04006 0.101 0.0
H1864 H 0.4457 0.02524 0.19829 0.0
H1865 H 0.44146 0.10115 0.18435 0.0
H1866 H 0.45931 0.00511 0.13984 0.0
H1867 H 0.48757 0.01447 0.15842 0.0
H1868 H 0.46196 0.99839 0.17172 0.0
H1869 H 0.45538 0.11895 0.14926 0.0
H1870 H 0.48252 0.10794 0.14109 0.0
H1871 H 0.4544 0.09724 0.12268 0.0
H1872 H 0.53653 0.06043 0.11179 0.0
H1873 H 0.4696 0.03678 0.06611 0.0
H1874 H 0.51467 0.05492 0.16851 0.0
H1875 H 0.51278 0.08639 0.16224 0.0
H1876 H 0.53835 0.07259 0.15374 0.0
H1877 H 0.43229 0.02482 0.11248 0.0
H1878 H 0.43163 0.03429 0.08149 0.0
H1879 H 0.43084 0.0566 0.10717 0.0
C1880 C 0.78317 0.68587 0.90744 0.0
C1881 C 0.7959 0.69229 0.93078 0.0
C1882 C 0.78575 0.70204 0.88872 0.0
C1883 C 0.80166 0.72507 0.89341 0.0
C1884 C 0.81559 0.73107 0.9165 0.0
C1885 C 0.8124 0.71462 0.93506 0.0
C1886 C 0.7703 0.69506 0.8644 0.0
C1887 C 0.83299 0.75528 0.92196 0.0
C1888 C 0.81093 0.7545 0.83394 0.0
C1889 C 0.79158 0.76801 0.83237 0.0
C1890 C 0.81613 0.74212 0.85497 0.0
C1891 C 0.80166 0.7435 0.8747 0.0
C1892 C 0.78388 0.75932 0.87421 0.0
C1893 C 0.77904 0.77141 0.85297 0.0
C1894 C 0.83533 0.72554 0.85494 0.0
C1895 C 0.76817 0.76142 0.89499 0.0
H1896 H 0.77043 0.6686 0.90406 0.0
H1897 H 0.8224 0.71952 0.95308 0.0
H1898 H 0.75617 0.7072 0.86263 0.0
H1899 H 0.78141 0.69804 0.84881 0.0
H1900 H 0.76116 0.67533 0.8627 0.0
H1901 H 0.84512 0.75536 0.9392 0.0
H1902 H 0.84426 0.75882 0.90655 0.0
H1903 H 0.8226 0.77092 0.92394 0.0
H1904 H 0.82073 0.75184 0.81805 0.0
H1905 H 0.76431 0.78217 0.85193 0.0
H1906 H 0.82649 0.70577 0.85169 0.0
H1907 H 0.84641 0.72767 0.87305 0.0
H1908 H 0.84752 0.72965 0.84032 0.0
H1909 H 0.75507 0.74389 0.89476 0.0
H1910 H 0.75779 0.77713 0.89337 0.0
H1911 H 0.77933 0.76406 0.91305 0.0
C1912 C 0.88785 0.13596 0.02191 0.0
C1913 C 0.86381 0.12614 0.01274 0.0
C1914 C 0.90635 0.12098 0.02219 0.0
C1915 C 0.90081 0.09557 0.0129 0.0
C1916 C 0.87665 0.08576 0.00322 0.0
C1917 C 0.85855 0.10104 0.00336 0.0
C1918 C 0.93177 0.13224 0.03279 0.0
C1919 C 0.8698 0.05893 0.99293 0.0
C1920 C 0.95056 0.05869 0.99503 0.0
C1921 C 0.95295 0.04406 0.015 0.0
C1922 C 0.93414 0.07595 0.9943 0.0
C1923 C 0.91986 0.07883 0.01411 0.0
C1924 C 0.92276 0.06449 0.03457 0.0
C1925 C 0.93895 0.04713 0.0346 0.0
C1926 C 0.93156 0.09053 0.97197 0.0
C1927 C 0.90847 0.06714 0.05636 0.0
H1928 H 0.89217 0.15529 0.0292 0.0
H1929 H 0.84012 0.0932 0.99612 0.0
H1930 H 0.93741 0.12216 0.04877 0.0
H1931 H 0.94467 0.13015 0.01888 0.0
H1932 H 0.93332 0.15233 0.03888 0.0
H1933 H 0.85052 0.0544 0.98506 0.0
H1934 H 0.88146 0.05491 0.97835 0.0
H1935 H 0.87287 0.04638 0.00767 0.0
H1936 H 0.96108 0.05618 0.97968 0.0
H1937 H 0.94078 0.036 0.05018 0.0
H1938 H 0.93256 0.11062 0.97758 0.0
H1939 H 0.91351 0.08401 0.96158 0.0
H1940 H 0.94575 0.08835 0.95948 0.0
H1941 H 0.91058 0.08701 0.0634 0.0
H1942 H 0.91432 0.0562 0.07158 0.0
H1943 H 0.8889 0.06066 0.05065 0.0
C1944 C 0.34646 0.47391 0.07375 0.0
C1945 C 0.33878 0.44864 0.06611 0.0
C1946 C 0.37051 0.48509 0.07245 0.0
C1947 C 0.38701 0.47065 0.06302 0.0
C1948 C 0.37979 0.44473 0.05707 0.0
C1949 C 0.35574 0.434 0.05881 0.0
C1950 C 0.37774 0.51269 0.07946 0.0
C1951 C 0.39687 0.42872 0.04688 0.0
C1952 C 0.43391 0.50194 0.02488 0.0
C1953 C 0.45531 0.50375 0.04073 0.0
C1954 C 0.41154 0.49158 0.03218 0.0
C1955 C 0.4105 0.48307 0.05601 0.0
C1956 C 0.4319 0.48543 0.07237 0.0
C1957 C 0.45414 0.49561 0.06446 0.0
C1958 C 0.3891 0.48912 0.01408 0.0
C1959 C 0.43137 0.47679 0.098 0.0
H1960 H 0.33343 0.48523 0.07964 0.0
H1961 H 0.3499 0.4144 0.05304 0.0
H1962 H 0.39569 0.5166 0.09053 0.0
H1963 H 0.37934 0.52272 0.06253 0.0
H1964 H 0.36423 0.52031 0.09011 0.0
H1965 H 0.38941 0.40852 0.046 0.0
H1966 H 0.40021 0.43369 0.02801 0.0
H1967 H 0.41464 0.4321 0.05826 0.0
H1968 H 0.43465 0.50806 0.00648 0.0
H1969 H 0.4706 0.49703 0.07686 0.0
H1970 H 0.37525 0.49874 0.02212 0.0
H1971 H 0.38107 0.46916 0.01012 0.0
H1972 H 0.39299 0.49706 0.99641 0.0
H1973 H 0.41751 0.4849 0.10766 0.0
H1974 H 0.44922 0.48199 0.10918 0.0
H1975 H 0.42619 0.45623 0.09691 0.0
C1976 C 0.33688 0.63553 0.74085 0.0
C1977 C 0.32739 0.61142 0.74647 0.0
C1978 C 0.32423 0.6556 0.74472 0.0
C1979 C 0.30144 0.65142 0.75425 0.0
C1980 C 0.29161 0.62704 0.75958 0.0
C1981 C 0.30475 0.60738 0.75575 0.0
C1982 C 0.33539 0.68133 0.73892 0.0
C1983 C 0.26721 0.62171 0.76938 0.0
C1984 C 0.27706 0.70579 0.78531 0.0
C1985 C 0.26148 0.71218 0.76616 0.0
C1986 C 0.29049 0.68632 0.78163 0.0
C1987 C 0.28771 0.67247 0.75839 0.0
C1988 C 0.27154 0.67856 0.73914 0.0
C1989 C 0.25868 0.69834 0.74325 0.0
C1990 C 0.30787 0.68078 0.80252 0.0
C1991 C 0.2679 0.66425 0.71413 0.0
H1992 H 0.35442 0.63883 0.7338 0.0
H1993 H 0.29729 0.58881 0.76012 0.0
H1994 H 0.32276 0.68902 0.7258 0.0
H1995 H 0.33861 0.69409 0.75597 0.0
H1996 H 0.35286 0.68136 0.73088 0.0
H1997 H 0.26192 0.60167 0.77222 0.0
H1998 H 0.26753 0.6328 0.78718 0.0
H1999 H 0.25307 0.62739 0.75639 0.0
H2000 H 0.27864 0.71595 0.8032 0.0
H2001 H 0.24667 0.70322 0.72832 0.0
H2002 H 0.32655 0.68313 0.79693 0.0
H2003 H 0.30309 0.66114 0.80689 0.0
H2004 H 0.30784 0.69318 0.81946 0.0
H2005 H 0.28546 0.66513 0.70618 0.0
H2006 H 0.25493 0.67157 0.70102 0.0
H2007 H 0.261 0.64431 0.71599 0.0
C2008 C 0.23179 0.60423 0.5082 0.0
C2009 C 0.23636 0.63036 0.50984 0.0
C2010 C 0.20817 0.5912 0.50872 0.0
C2011 C 0.18873 0.60465 0.51125 0.0
C2012 C 0.19324 0.63104 0.51263 0.0
C2013 C 0.21695 0.64355 0.51175 0.0
C2014 C 0.20406 0.56306 0.50687 0.0
C2015 C 0.17309 0.6461 0.51559 0.0
C2016 C 0.12303 0.57376 0.49464 0.0
C2017 C 0.11572 0.56865 0.51783 0.0
C2018 C 0.14693 0.58483 0.4921 0.0
C2019 C 0.16379 0.59126 0.51333 0.0
C2020 C 0.15652 0.58578 0.53677 0.0
C2021 C 0.1326 0.57438 0.5387 0.0
C2022 C 0.15403 0.59001 0.46677 0.0
C2023 C 0.17382 0.59255 0.55988 0.0
H2024 H 0.24671 0.59393 0.50665 0.0
H2025 H 0.22036 0.66376 0.5131 0.0
H2026 H 0.19746 0.55625 0.5241 0.0
H2027 H 0.18984 0.55561 0.49161 0.0
H2028 H 0.22083 0.55537 0.5037 0.0
H2029 H 0.17952 0.66647 0.51595 0.0
H2030 H 0.15845 0.64066 0.50028 0.0
H2031 H 0.16503 0.64216 0.53297 0.0
H2032 H 0.11 0.56922 0.47845 0.0
H2033 H 0.12696 0.57048 0.55666 0.0
H2034 H 0.17039 0.58173 0.4633 0.0
H2035 H 0.15872 0.61041 0.4656 0.0
H2036 H 0.13927 0.58245 0.45202 0.0
H2037 H 0.19032 0.58389 0.55833 0.0
H2038 H 0.16553 0.58647 0.5766 0.0
H2039 H 0.17972 0.61304 0.56227 0.0
C2040 C 0.68887 0.93396 0.78928 0.0
C2041 C 0.66382 0.92855 0.78209 0.0
C2042 C 0.70387 0.91569 0.78668 0.0
C2043 C 0.69373 0.89133 0.77644 0.0
C2044 C 0.66837 0.88561 0.76954 0.0
C2045 C 0.65373 0.90424 0.77249 0.0
C2046 C 0.73072 0.92263 0.79448 0.0
C2047 C 0.65677 0.85995 0.75847 0.0
C2048 C 0.73706 0.85348 0.74698 0.0
C2049 C 0.7425 0.83798 0.76549 0.0
C2050 C 0.72087 0.87051 0.7501 0.0
C2051 C 0.70986 0.87221 0.77234 0.0
C2052 C 0.7151 0.85634 0.79097 0.0
C2053 C 0.73144 0.83954 0.78737 0.0
C2054 C 0.71561 0.88675 0.7296 0.0
C2055 C 0.70381 0.8574 0.81492 0.0
H2056 H 0.69686 0.95264 0.79676 0.0
H2057 H 0.63443 0.89988 0.76679 0.0
H2058 H 0.73656 0.9098 0.80793 0.0
H2059 H 0.741 0.92062 0.77828 0.0
H2060 H 0.73569 0.94207 0.80294 0.0
H2061 H 0.63665 0.85763 0.75659 0.0
H2062 H 0.66281 0.85666 0.73996 0.0
H2063 H 0.66258 0.84543 0.7699 0.0
H2064 H 0.74541 0.8522 0.72995 0.0
H2065 H 0.73576 0.82777 0.80183 0.0
H2066 H 0.7198 0.9067 0.73654 0.0
H2067 H 0.69603 0.8827 0.72288 0.0
H2068 H 0.72624 0.88382 0.71383 0.0
H2069 H 0.71122 0.87535 0.82571 0.0
H2070 H 0.70741 0.84192 0.82625 0.0
H2071 H 0.68391 0.8566 0.81141 0.0
C2072 C 0.69488 0.97367 0.55261 0.0
C2073 C 0.71359 0.97167 0.53774 0.0
C2074 C 0.67631 0.987 0.54562 0.0
C2075 C 0.6765 0.99854 0.52317 0.0
C2076 C 0.6962 0.99801 0.5089 0.0
C2077 C 0.7146 0.98452 0.51637 0.0
C2078 C 0.65569 0.98734 0.56149 0.0
C2079 C 0.6971 0.01029 0.48499 0.0
C2080 C 0.61249 0.99881 0.49603 0.0
C2081 C 0.60873 0.02239 0.50497 0.0
C2082 C 0.63524 0.9915 0.50011 0.0
C2083 C 0.65456 0.00825 0.5135 0.0
C2084 C 0.65137 0.03289 0.52061 0.0
C2085 C 0.62834 0.03972 0.51623 0.0
C2086 C 0.63795 0.96512 0.49196 0.0
C2087 C 0.67166 0.05133 0.53462 0.0
H2088 H 0.6942 0.96396 0.56928 0.0
H2089 H 0.72915 0.98312 0.50489 0.0
H2090 H 0.65221 0.00667 0.56514 0.0
H2091 H 0.63887 0.97627 0.55165 0.0
H2092 H 0.65939 0.97944 0.5794 0.0
H2093 H 0.71539 0.01196 0.47841 0.0
H2094 H 0.68387 0.99902 0.47067 0.0
H2095 H 0.69195 0.02912 0.48704 0.0
H2096 H 0.5973 0.98552 0.48706 0.0
H2097 H 0.62538 0.05803 0.52304 0.0
H2098 H 0.63971 0.95429 0.50833 0.0
H2099 H 0.65461 0.96497 0.48255 0.0
H2100 H 0.62214 0.95551 0.47932 0.0
H2101 H 0.674 0.04662 0.55403 0.0
H2102 H 0.6678 0.07072 0.53454 0.0
H2103 H 0.68906 0.05046 0.52676 0.0
C2104 C 0.31153 0.47202 0.73325 0.0
C2105 C 0.33685 0.47881 0.73667 0.0
C2106 C 0.30045 0.44739 0.73566 0.0
C2107 C 0.31503 0.42912 0.74154 0.0
C2108 C 0.34061 0.43572 0.74415 0.0
C2109 C 0.35118 0.46045 0.74175 0.0
C2110 C 0.27313 0.44112 0.7327 0.0
C2111 C 0.35686 0.41682 0.75025 0.0
C2112 C 0.29003 0.37313 0.77501 0.0
C2113 C 0.28556 0.35385 0.75604 0.0
C2114 C 0.29902 0.39776 0.7704 0.0
C2115 C 0.30369 0.40339 0.74621 0.0
C2116 C 0.29867 0.38417 0.72685 0.0
C2117 C 0.2897 0.35967 0.73199 0.0
C2118 C 0.30409 0.41768 0.79158 0.0
C2119 C 0.30334 0.38937 0.70081 0.0
H2120 H 0.30033 0.48611 0.72938 0.0
H2121 H 0.37075 0.46551 0.74436 0.0
H2122 H 0.26708 0.42479 0.71915 0.0
H2123 H 0.26663 0.43596 0.75051 0.0
H2124 H 0.26442 0.45696 0.72656 0.0
H2125 H 0.37638 0.42458 0.75035 0.0
H2126 H 0.35378 0.41027 0.76865 0.0
H2127 H 0.3524 0.4003 0.7367 0.0
H2128 H 0.28689 0.36896 0.79365 0.0
H2129 H 0.28632 0.345 0.71714 0.0
H2130 H 0.29449 0.43347 0.78733 0.0
H2131 H 0.32379 0.42513 0.79438 0.0
H2132 H 0.29841 0.41055 0.80907 0.0
H2133 H 0.294 0.40481 0.69484 0.0
H2134 H 0.29713 0.37275 0.68759 0.0
H2135 H 0.32304 0.3954 0.69998 0.0
C2136 C 0.15804 0.57837 0.28932 0.0
C2137 C 0.16843 0.55673 0.29165 0.0
C2138 C 0.17257 0.60165 0.28843 0.0
C2139 C 0.19814 0.60339 0.29026 0.0
C2140 C 0.20876 0.58171 0.29337 0.0
C2141 C 0.19376 0.55858 0.29383 0.0
C2142 C 0.16051 0.62428 0.28486 0.0
C2143 C 0.23594 0.58288 0.2958 0.0
C2144 C 0.23155 0.65895 0.26213 0.0
C2145 C 0.2378 0.67625 0.28267 0.0
C2146 C 0.21931 0.63484 0.26447 0.0
C2147 C 0.21356 0.62781 0.28798 0.0
C2148 C 0.22106 0.64483 0.30897 0.0
C2149 C 0.23294 0.66895 0.30602 0.0
C2150 C 0.21146 0.61734 0.24162 0.0
C2151 C 0.21569 0.63794 0.3344 0.0
H2152 H 0.13847 0.57704 0.28754 0.0
H2153 H 0.20187 0.54191 0.29573 0.0
H2154 H 0.16723 0.63888 0.30007 0.0
H2155 H 0.16523 0.63227 0.26745 0.0
H2156 H 0.14045 0.61985 0.28415 0.0
H2157 H 0.24137 0.56463 0.29964 0.0
H2158 H 0.24321 0.58877 0.27855 0.0
H2159 H 0.24454 0.597 0.31084 0.0
H2160 H 0.23523 0.66462 0.24405 0.0
H2161 H 0.23786 0.68232 0.32195 0.0
H2162 H 0.19136 0.61361 0.23848 0.0
H2163 H 0.21766 0.5992 0.244 0.0
H2164 H 0.21862 0.62507 0.22497 0.0
H2165 H 0.19587 0.63579 0.33565 0.0
H2166 H 0.22497 0.65227 0.349 0.0
H2167 H 0.2214 0.61979 0.33802 0.0
C2168 C 0.52435 0.7057 0.41184 0.0
C2169 C 0.53372 0.73025 0.42109 0.0
C2170 C 0.52493 0.68578 0.42679 0.0
C2171 C 0.53511 0.6905 0.45163 0.0
C2172 C 0.54457 0.71526 0.4611 0.0
C2173 C 0.54379 0.73485 0.4457 0.0
C2174 C 0.51467 0.65965 0.41597 0.0
C2175 C 0.55551 0.72103 0.48749 0.0
C2176 C 0.51598 0.64011 0.49401 0.0
C2177 C 0.53535 0.62667 0.49413 0.0
C2178 C 0.51598 0.6614 0.48088 0.0
C2179 C 0.53587 0.66941 0.46756 0.0
C2180 C 0.55586 0.65636 0.46835 0.0
C2181 C 0.55535 0.63511 0.48164 0.0
C2182 C 0.4943 0.67475 0.48051 0.0
C2183 C 0.57739 0.6643 0.45442 0.0
H2184 H 0.51654 0.70202 0.39284 0.0
H2185 H 0.55104 0.75379 0.45296 0.0
H2186 H 0.52895 0.64767 0.41735 0.0
H2187 H 0.49991 0.65141 0.42657 0.0
H2188 H 0.50735 0.65913 0.39634 0.0
H2189 H 0.56202 0.74127 0.49206 0.0
H2190 H 0.54189 0.71456 0.50012 0.0
H2191 H 0.57098 0.71085 0.49103 0.0
H2192 H 0.50046 0.63357 0.50364 0.0
H2193 H 0.57032 0.62469 0.48166 0.0
H2194 H 0.48471 0.6726 0.46166 0.0
H2195 H 0.50023 0.69499 0.48544 0.0
H2196 H 0.48127 0.6674 0.49341 0.0
H2197 H 0.57161 0.66215 0.43435 0.0
H2198 H 0.59212 0.65316 0.45819 0.0
H2199 H 0.58477 0.68429 0.45935 0.0
C2200 C 0.58813 0.27727 0.68691 0.0
C2201 C 0.5686 0.28049 0.70045 0.0
C2202 C 0.6119 0.27948 0.69846 0.0
C2203 C 0.61646 0.28522 0.72426 0.0
C2204 C 0.59694 0.28921 0.73796 0.0
C2205 C 0.57324 0.2867 0.72592 0.0
C2206 C 0.63205 0.27495 0.68308 0.0
C2207 C 0.60102 0.29564 0.76542 0.0
C2208 C 0.67226 0.26319 0.755 0.0
C2209 C 0.68992 0.28472 0.75662 0.0
C2210 C 0.64822 0.26334 0.74518 0.0
C2211 C 0.64141 0.2856 0.73688 0.0
C2212 C 0.65888 0.30763 0.73925 0.0
C2213 C 0.68291 0.30691 0.74898 0.0
C2214 C 0.63032 0.23935 0.74285 0.0
C2215 C 0.6524 0.3318 0.73081 0.0
H2216 H 0.58479 0.2725 0.66722 0.0
H2217 H 0.5583 0.28929 0.73652 0.0
H2218 H 0.64688 0.29121 0.68569 0.0
H2219 H 0.63987 0.25857 0.68914 0.0
H2220 H 0.6257 0.27151 0.66314 0.0
H2221 H 0.58435 0.29985 0.77317 0.0
H2222 H 0.60712 0.27984 0.77467 0.0
H2223 H 0.61559 0.31201 0.76985 0.0
H2224 H 0.67731 0.24589 0.76078 0.0
H2225 H 0.69631 0.32367 0.75006 0.0
H2226 H 0.62445 0.2336 0.72311 0.0
H2227 H 0.61389 0.24214 0.7518 0.0
H2228 H 0.63809 0.22393 0.75126 0.0
H2229 H 0.64833 0.3301 0.71048 0.0
H2230 H 0.66729 0.34776 0.73604 0.0
H2231 H 0.63584 0.33595 0.73877 0.0
C2232 C 0.05197 0.36866 0.93591 0.0
C2233 C 0.03594 0.36057 0.91472 0.0
C2234 C 0.04963 0.39012 0.95065 0.0
C2235 C 0.03043 0.40339 0.94435 0.0
C2236 C 0.01461 0.39564 0.9226 0.0
C2237 C 0.01772 0.37449 0.90792 0.0
C2238 C 0.06729 0.39821 0.97331 0.0
C2239 C 0.99373 0.40907 0.91538 0.0
C2240 C 0.00563 0.44019 0.99491 0.0
C2241 C 0.01463 0.46479 0.99059 0.0
C2242 C 0.01093 0.42001 0.98021 0.0
C2243 C 0.02602 0.42457 0.96106 0.0
C2244 C 0.03575 0.44939 0.95712 0.0
C2245 C 0.02957 0.46921 0.97164 0.0
C2246 C 0.99985 0.39385 0.98475 0.0
C2247 C 0.05232 0.45505 0.93729 0.0
H2248 H 0.06614 0.358 0.94118 0.0
H2249 H 0.00518 0.36824 0.89164 0.0
H2250 H 0.07493 0.41827 0.97344 0.0
H2251 H 0.0577 0.39586 0.99005 0.0
H2252 H 0.08246 0.38729 0.97442 0.0
H2253 H 0.9835 0.40114 0.89753 0.0
H2254 H 0.98103 0.40788 0.92981 0.0
H2255 H 1.00045 0.42911 0.91396 0.0
H2256 H 0.99397 0.43671 0.00946 0.0
H2257 H 0.03618 0.4882 0.96788 0.0
H2258 H 0.01429 0.38235 0.98828 0.0
H2259 H 0.98806 0.38501 0.96811 0.0
H2260 H 0.98885 0.39345 1.00063 0.0
H2261 H 0.0673 0.44394 0.93887 0.0
H2262 H 0.06027 0.47512 0.93824 0.0
H2263 H 0.04207 0.44972 0.91891 0.0
C2264 C 0.93339 0.77838 0.22246 0.0
C2265 C 0.93529 0.75962 0.20427 0.0
C2266 C 0.91198 0.77846 0.23392 0.0
C2267 C 0.89193 0.7592 0.22719 0.0
C2268 C 0.89386 0.73997 0.2091 0.0
C2269 C 0.91547 0.74045 0.19782 0.0
C2270 C 0.91065 0.79945 0.25293 0.0
C2271 C 0.87296 0.71908 0.20142 0.0
C2272 C 0.84418 0.75138 0.27266 0.0
C2273 C 0.82681 0.76468 0.26234 0.0
C2274 C 0.86512 0.74874 0.26103 0.0
C2275 C 0.86879 0.75975 0.23861 0.0
C2276 C 0.85088 0.77253 0.22778 0.0
C2277 C 0.83019 0.77488 0.2398 0.0
C2278 C 0.88361 0.73471 0.27304 0.0
C2279 C 0.85392 0.78448 0.20389 0.0
H2280 H 0.94857 0.7933 0.22752 0.0
H2281 H 0.91678 0.72587 0.18377 0.0
H2282 H 0.89597 0.80981 0.24667 0.0
H2283 H 0.90613 0.79183 0.27055 0.0
H2284 H 0.92794 0.81277 0.25644 0.0
H2285 H 0.86719 0.70966 0.21777 0.0
H2286 H 0.85716 0.72673 0.1931 0.0
H2287 H 0.87767 0.70497 0.18788 0.0
H2288 H 0.84163 0.74343 0.29006 0.0
H2289 H 0.8169 0.78532 0.23178 0.0
H2290 H 0.9008 0.74767 0.27873 0.0
H2291 H 0.8877 0.72008 0.25972 0.0
H2292 H 0.87733 0.72581 0.28951 0.0
H2293 H 0.86982 0.79965 0.20649 0.0
H2294 H 0.83767 0.79241 0.19715 0.0
H2295 H 0.85749 0.77063 0.18946 0.0
C2296 C 0.49833 0.37535 0.07955 0.0
C2297 C 0.50627 0.35368 0.07053 0.0
C2298 C 0.50087 0.3968 0.06664 0.0
C2299 C 0.51131 0.39635 0.04408 0.0
C2300 C 0.51922 0.37448 0.03481 0.0
C2301 C 0.51671 0.35337 0.04825 0.0
C2302 C 0.49248 0.41996 0.07718 0.0
C2303 C 0.53018 0.37334 0.01065 0.0
C2304 C 0.49557 0.44472 1.00157 0.0
C2305 C 0.51619 0.46308 0.00634 0.0
C2306 C 0.49406 0.42249 0.0132 0.0
C2307 C 0.51359 0.41876 0.03007 0.0
C2308 C 0.53478 0.43695 0.03436 0.0
C2309 C 0.53594 0.45882 0.02211 0.0
C2310 C 0.47123 0.40342 0.0081 0.0
C2311 C 0.55587 0.43364 0.05239 0.0
H2312 H 0.49038 0.37566 0.09686 0.0
H2313 H 0.52285 0.3366 0.04127 0.0
H2314 H 0.50762 0.43591 0.07921 0.0
H2315 H 0.47779 0.42498 0.06441 0.0
H2316 H 0.48563 0.4175 0.09542 0.0
H2317 H 0.53532 0.35484 0.00598 0.0
H2318 H 0.51707 0.37739 0.99558 0.0
H2319 H 0.54655 0.38779 0.01143 0.0
H2320 H 0.48031 0.44801 0.98926 0.0
H2321 H 0.55203 0.47294 0.02543 0.0
H2322 H 0.46172 0.40195 0.02497 0.0
H2323 H 0.4758 0.38477 0.00304 0.0
H2324 H 0.45856 0.4083 0.99304 0.0
H2325 H 0.54959 0.43011 0.07067 0.0
H2326 H 0.5704 0.45022 0.05465 0.0
H2327 H 0.5637 0.41716 0.04602 0.0
C2328 C 0.94283 0.26834 0.39978 0.0
C2329 C 0.96007 0.25372 0.39332 0.0
C2330 C 0.92081 0.26691 0.38506 0.0
C2331 C 0.91605 0.25051 0.3634 0.0
C2332 C 0.93278 0.23467 0.35754 0.0
C2333 C 0.95465 0.23645 0.37263 0.0
C2334 C 0.90322 0.28391 0.39201 0.0
C2335 C 0.92821 0.21687 0.33465 0.0
C2336 C 0.85129 0.24061 0.33381 0.0
C2337 C 0.85268 0.25891 0.31693 0.0
C2338 C 0.87205 0.23677 0.34837 0.0
C2339 C 0.89456 0.25166 0.34591 0.0
C2340 C 0.89622 0.26921 0.32791 0.0
C2341 C 0.87517 0.27263 0.31359 0.0
C2342 C 0.86965 0.21776 0.36724 0.0
C2343 C 0.92001 0.28525 0.3246 0.0
H2344 H 0.94693 0.28161 0.41584 0.0
H2345 H 0.96793 0.22504 0.36763 0.0
H2346 H 0.9021 0.29783 0.37819 0.0
H2347 H 0.88479 0.27306 0.392 0.0
H2348 H 0.90873 0.29404 0.41045 0.0
H2349 H 0.94156 0.2038 0.33432 0.0
H2350 H 0.90969 0.20588 0.33322 0.0
H2351 H 0.92939 0.22761 0.31814 0.0
H2352 H 0.83384 0.22992 0.33629 0.0
H2353 H 0.8762 0.28669 0.30042 0.0
H2354 H 0.87206 0.22749 0.38597 0.0
H2355 H 0.88396 0.20588 0.36635 0.0
H2356 H 0.85164 0.20559 0.36465 0.0
H2357 H 0.92616 0.29805 0.34137 0.0
H2358 H 0.91854 0.29658 0.30854 0.0
H2359 H 0.9342 0.27347 0.32211 0.0
C2360 C 1.00007 0.70029 0.58777 0.0
C2361 C 0.99265 0.71998 0.57544 0.0
C2362 C 0.99848 0.67661 0.57559 0.0
C2363 C 0.98904 0.67252 0.5505 0.0
C2364 C 0.98045 0.69201 0.53824 0.0
C2365 C 0.9825 0.71565 0.55085 0.0
C2366 C 0.00782 0.65626 0.58933 0.0
C2367 C 0.96983 0.6881 0.51165 0.0
C2368 C 0.01475 0.62071 0.51849 0.0
C2369 C 0.99733 0.59999 0.52144 0.0
C2370 C 0.01142 0.64483 0.52623 0.0
C2371 C 0.99005 0.6483 0.53694 0.0
C2372 C 0.97141 0.62777 0.53781 0.0
C2373 C 0.9753 0.60378 0.5301 0.0
C2374 C 0.03174 0.66628 0.52495 0.0
C2375 C 0.94819 0.6308 0.54872 0.0
H2376 H 0.00781 0.70353 0.60682 0.0
H2377 H 0.97657 0.73083 0.54134 0.0
H2378 H 0.9935 0.63962 0.58841 0.0
H2379 H 0.02337 0.65046 0.5806 0.0
H2380 H 0.01386 0.6623 0.60901 0.0
H2381 H 0.96147 0.70422 0.50568 0.0
H2382 H 0.98427 0.68531 0.4997 0.0
H2383 H 0.95589 0.67106 0.50871 0.0
H2384 H 0.0317 0.61803 0.51151 0.0
H2385 H 0.9616 0.58793 0.53223 0.0
H2386 H 0.04053 0.67252 0.54381 0.0
H2387 H 0.02459 0.68237 0.51732 0.0
H2388 H 0.04578 0.66101 0.51348 0.0
H2389 H 0.95169 0.63295 0.5691 0.0
H2390 H 0.93379 0.61439 0.54349 0.0
H2391 H 0.9414 0.64777 0.54275 0.0
C2392 C 0.57292 0.76898 0.85431 0.0
C2393 C 0.5817 0.77303 0.87932 0.0
C2394 C 0.58884 0.76767 0.83618 0.0
C2395 C 0.61403 0.77057 0.84333 0.0
C2396 C 0.62301 0.77505 0.86853 0.0
C2397 C 0.60668 0.77617 0.88627 0.0
C2398 C 0.57874 0.76298 0.80944 0.0
C2399 C 0.64984 0.77841 0.87676 0.0
C2400 C 0.65749 0.74457 0.80385 0.0
C2401 C 0.66934 0.76637 0.79532 0.0
C2402 C 0.63842 0.74545 0.81852 0.0
C2403 C 0.63119 0.76867 0.82461 0.0
C2404 C 0.64205 0.79045 0.8146 0.0
C2405 C 0.66111 0.78903 0.80008 0.0
C2406 C 0.62706 0.72183 0.82872 0.0
C2407 C 0.63473 0.81553 0.82054 0.0
H2408 H 0.55357 0.76653 0.8489 0.0
H2409 H 0.61348 0.77935 0.90559 0.0
H2410 H 0.58679 0.77827 0.79882 0.0
H2411 H 0.5837 0.74545 0.80145 0.0
H2412 H 0.55868 0.76153 0.80695 0.0
H2413 H 0.65384 0.78209 0.89705 0.0
H2414 H 0.65719 0.76143 0.87093 0.0
H2415 H 0.6596 0.79417 0.86789 0.0
H2416 H 0.66388 0.72706 0.80006 0.0
H2417 H 0.67027 0.80589 0.79335 0.0
H2418 H 0.60699 0.71963 0.8258 0.0
H2419 H 0.63224 0.72291 0.84888 0.0
H2420 H 0.63291 0.70499 0.82015 0.0
H2421 H 0.64145 0.82939 0.80773 0.0
H2422 H 0.64244 0.82269 0.83954 0.0
H2423 H 0.61473 0.81399 0.81978 0.0
C2424 C 0.43945 0.56455 0.69056 0.0
C2425 C 0.41456 0.55554 0.68522 0.0
C2426 C 0.45546 0.56385 0.67234 0.0
C2427 C 0.44645 0.55364 0.64821 0.0
C2428 C 0.42127 0.54484 0.6426 0.0
C2429 C 0.40561 0.546 0.66115 0.0
C2430 C 0.48208 0.57376 0.679 0.0
C2431 C 0.41097 0.5337 0.61713 0.0
C2432 C 0.4834 0.56762 0.5943 0.0
C2433 C 0.49347 0.54575 0.59085 0.0
C2434 C 0.46844 0.57067 0.61314 0.0
C2435 C 0.46344 0.55142 0.62902 0.0
C2436 C 0.4742 0.52967 0.62617 0.0
C2437 C 0.48906 0.5271 0.60715 0.0
C2438 C 0.45725 0.5941 0.61544 0.0
C2439 C 0.46934 0.5087 0.64268 0.0
H2440 H 0.44649 0.57207 0.70911 0.0
H2441 H 0.38642 0.53896 0.65691 0.0
H2442 H 0.49284 0.55849 0.67649 0.0
H2443 H 0.4883 0.58817 0.66654 0.0
H2444 H 0.48605 0.58203 0.69832 0.0
H2445 H 0.39086 0.52919 0.61529 0.0
H2446 H 0.41649 0.5468 0.60325 0.0
H2447 H 0.4184 0.51638 0.6128 0.0
H2448 H 0.48637 0.58203 0.58165 0.0
H2449 H 0.49665 0.5101 0.60463 0.0
H2450 H 0.46062 0.60262 0.63467 0.0
H2451 H 0.43732 0.58941 0.61087 0.0
H2452 H 0.46446 0.60811 0.60299 0.0
H2453 H 0.47407 0.51583 0.66226 0.0
H2454 H 0.47978 0.49343 0.63864 0.0
H2455 H 0.44973 0.50086 0.64035 0.0
C2456 C 0.79226 0.23008 0.94919 0.0
C2457 C 0.801 0.20727 0.94848 0.0
C2458 C 0.78727 0.24184 0.92749 0.0
C2459 C 0.79145 0.23084 0.90437 0.0
C2460 C 0.80061 0.20797 0.90358 0.0
C2461 C 0.80504 0.1964 0.92554 0.0
C2462 C 0.77734 0.26604 0.92931 0.0
C2463 C 0.8058 0.19575 0.87952 0.0
C2464 C 0.75959 0.25169 0.84589 0.0
C2465 C 0.77745 0.27026 0.83917 0.0
C2466 C 0.76394 0.23846 0.86681 0.0
C2467 C 0.78683 0.24366 0.8812 0.0
C2468 C 0.80514 0.26184 0.87388 0.0
C2469 C 0.80015 0.27502 0.8532 0.0
C2470 C 0.74381 0.21939 0.87388 0.0
C2471 C 0.83002 0.2676 0.88803 0.0
H2472 H 0.78886 0.23857 0.96673 0.0
H2473 H 0.81176 0.17878 0.92473 0.0
H2474 H 0.79005 0.28106 0.9224 0.0
H2475 H 0.75984 0.26414 0.91755 0.0
H2476 H 0.77439 0.27185 0.94849 0.0
H2477 H 0.81309 0.17813 0.88197 0.0
H2478 H 0.78898 0.1916 0.86661 0.0
H2479 H 0.81912 0.20866 0.87074 0.0
H2480 H 0.74197 0.24806 0.83525 0.0
H2481 H 0.81417 0.28914 0.84795 0.0
H2482 H 0.73854 0.22546 0.8921 0.0
H2483 H 0.75013 0.20122 0.87567 0.0
H2484 H 0.72751 0.21662 0.86022 0.0
H2485 H 0.82858 0.27492 0.90714 0.0
H2486 H 0.84255 0.28152 0.8794 0.0
H2487 H 0.83809 0.25031 0.88919 0.0
C2488 C 0.09706 0.51164 0.20066 0.0
C2489 C 0.09077 0.48995 0.21271 0.0
C2490 C 0.08676 0.51406 0.1767 0.0
C2491 C 0.07 0.49411 0.16408 0.0
C2492 C 0.0637 0.47204 0.17606 0.0
C2493 C 0.07396 0.47031 0.20031 0.0
C2494 C 0.09371 0.53812 0.16495 0.0
C2495 C 0.04624 0.45018 0.16317 0.0
C2496 C 0.02801 0.51067 0.11081 0.0
C2497 C 0.04048 0.50583 0.09037 0.0
C2498 C 0.0371 0.50644 0.13476 0.0
C2499 C 0.05903 0.49666 0.13848 0.0
C2500 C 0.07125 0.49088 0.11781 0.0
C2501 C 0.06198 0.49575 0.0941 0.0
C2502 C 0.02369 0.51335 0.15622 0.0
C2503 C 0.09444 0.48006 0.12079 0.0
H2504 H 0.10993 0.52697 0.21012 0.0
H2505 H 0.06909 0.45345 0.20944 0.0
H2506 H 0.10219 0.53441 0.14785 0.0
H2507 H 0.07726 0.54634 0.1597 0.0
H2508 H 0.10659 0.55205 0.17739 0.0
H2509 H 0.04359 0.43415 0.17473 0.0
H2510 H 0.02839 0.45584 0.15819 0.0
H2511 H 0.05306 0.44396 0.14577 0.0
H2512 H 0.01149 0.51863 0.10824 0.0
H2513 H 0.0717 0.49179 0.07846 0.0
H2514 H 0.03525 0.52851 0.16843 0.0
H2515 H 0.01971 0.49719 0.16733 0.0
H2516 H 0.00636 0.51972 0.15021 0.0
H2517 H 0.10895 0.49389 0.13132 0.0
H2518 H 0.10068 0.47472 0.1028 0.0
H2519 H 0.09185 0.46337 0.13144 0.0
C2520 C 0.76354 0.85201 0.48515 0.0
C2521 C 0.75698 0.87581 0.48503 0.0
C2522 C 0.76536 0.83821 0.46306 0.0
C2523 C 0.76059 0.84857 0.44043 0.0
C2524 C 0.75353 0.87241 0.4402 0.0
C2525 C 0.75178 0.88574 0.46255 0.0
C2526 C 0.77279 0.81277 0.46394 0.0
C2527 C 0.74829 0.88401 0.41637 0.0
C2528 C 0.78807 0.82653 0.38392 0.0
C2529 C 0.76803 0.8113 0.37072 0.0
C2530 C 0.78603 0.83838 0.40697 0.0
C2531 C 0.76344 0.83477 0.41692 0.0
C2532 C 0.74334 0.81883 0.40391 0.0
C2533 C 0.74588 0.80729 0.38088 0.0
C2534 C 0.80783 0.85531 0.42036 0.0
C2535 C 0.719 0.81448 0.41399 0.0
H2536 H 0.76755 0.84428 0.50253 0.0
H2537 H 0.74671 0.90415 0.4624 0.0
H2538 H 0.75903 0.79862 0.45277 0.0
H2539 H 0.79018 0.81277 0.45582 0.0
H2540 H 0.77501 0.80704 0.48302 0.0
H2541 H 0.74249 0.90248 0.41938 0.0
H2542 H 0.76474 0.8864 0.4064 0.0
H2543 H 0.73383 0.87154 0.40426 0.0
H2544 H 0.80518 0.82962 0.37598 0.0
H2545 H 0.73038 0.79547 0.37062 0.0
H2546 H 0.81166 0.84952 0.43919 0.0
H2547 H 0.80401 0.87469 0.4223 0.0
H2548 H 0.82433 0.85526 0.41059 0.0
H2549 H 0.721 0.80788 0.43271 0.0
H2550 H 0.70554 0.80059 0.40209 0.0
H2551 H 0.71173 0.83227 0.41566 0.0
C2552 C 0.42725 0.58152 0.81919 0.0
C2553 C 0.40718 0.56267 0.81286 0.0
C2554 C 0.44168 0.58234 0.8417 0.0
C2555 C 0.43599 0.56373 0.85807 0.0
C2556 C 0.41537 0.54504 0.85201 0.0
C2557 C 0.40116 0.54481 0.82953 0.0
C2558 C 0.46338 0.60268 0.84767 0.0
C2559 C 0.40877 0.52476 0.86891 0.0
C2560 C 0.48446 0.54493 0.90259 0.0
C2561 C 0.47912 0.55534 0.92512 0.0
C2562 C 0.47121 0.54845 0.88046 0.0
C2563 C 0.4522 0.56276 0.88093 0.0
C2564 C 0.44753 0.57432 0.90354 0.0
C2565 C 0.46106 0.57043 0.92544 0.0
C2566 C 0.47681 0.53587 0.85672 0.0
C2567 C 0.42753 0.58984 0.90475 0.0
H2568 H 0.43191 0.59541 0.80637 0.0
H2569 H 0.38568 0.53018 0.82471 0.0
H2570 H 0.46289 0.61218 0.86614 0.0
H2571 H 0.48028 0.59441 0.84824 0.0
H2572 H 0.46425 0.61682 0.83391 0.0
H2573 H 0.39162 0.5122 0.86194 0.0
H2574 H 0.42352 0.51339 0.87095 0.0
H2575 H 0.4068 0.5331 0.88751 0.0
H2576 H 0.49852 0.53334 0.90233 0.0
H2577 H 0.45698 0.57855 0.94287 0.0
H2578 H 0.47941 0.54954 0.84266 0.0
H2579 H 0.46128 0.52129 0.84936 0.0
H2580 H 0.49333 0.52701 0.85925 0.0
H2581 H 0.42897 0.60382 0.89089 0.0
H2582 H 0.42792 0.59968 0.92326 0.0
H2583 H 0.40968 0.57765 0.90034 0.0
C2584 C 0.79182 0.18681 0.10221 0.0
C2585 C 0.80572 0.20036 0.08598 0.0
C2586 C 0.78799 0.19765 0.12535 0.0
C2587 C 0.79849 0.2227 0.13284 0.0
C2588 C 0.81303 0.23631 0.11679 0.0
C2589 C 0.81636 0.22507 0.09358 0.0
C2590 C 0.77246 0.18227 0.14171 0.0
C2591 C 0.82486 0.26291 0.12403 0.0
C2592 C 0.76857 0.25803 0.18135 0.0
C2593 C 0.78325 0.25626 0.2032 0.0
C2594 C 0.77348 0.24748 0.15846 0.0
C2595 C 0.79364 0.23479 0.1571 0.0
C2596 C 0.80865 0.2331 0.17906 0.0
C2597 C 0.80326 0.24372 0.20172 0.0
C2598 C 0.75673 0.24949 0.13571 0.0
C2599 C 0.83024 0.21969 0.17873 0.0
H2600 H 0.78347 0.16773 0.09663 0.0
H2601 H 0.82712 0.23574 0.08126 0.0
H2602 H 0.78371 0.17928 0.15865 0.0
H2603 H 0.75785 0.19228 0.14744 0.0
H2604 H 0.76404 0.16377 0.1325 0.0
H2605 H 0.8364 0.27068 0.11004 0.0
H2606 H 0.81073 0.27477 0.12654 0.0
H2607 H 0.8362 0.26403 0.14191 0.0
H2608 H 0.75298 0.26745 0.1821 0.0
H2609 H 0.81465 0.24187 0.21839 0.0
H2610 H 0.7483 0.23057 0.12765 0.0
H2611 H 0.76717 0.2586 0.12159 0.0
H2612 H 0.74209 0.2603 0.13967 0.0
H2613 H 0.82391 0.19945 0.17416 0.0
H2614 H 0.84155 0.22223 0.19675 0.0
H2615 H 0.84173 0.22643 0.16431 0.0
C2616 C 0.06367 0.49875 0.348 0.0
C2617 C 0.08639 0.49091 0.34897 0.0
C2618 C 0.05233 0.5027 0.36955 0.0
C2619 C 0.06389 0.49866 0.39277 0.0
C2620 C 0.08679 0.49061 0.39385 0.0
C2621 C 0.09775 0.48689 0.37201 0.0
C2622 C 0.02789 0.51114 0.36746 0.0
C2623 C 0.09974 0.48593 0.41811 0.0
C2624 C 0.04291 0.52869 0.45068 0.0
C2625 C 0.0271 0.50881 0.45832 0.0
C2626 C 0.05533 0.5256 0.42967 0.0
C2627 C 0.05166 0.50213 0.41578 0.0
C2628 C 0.03583 0.48198 0.42362 0.0
C2629 C 0.02387 0.48554 0.44476 0.0
C2630 C 0.07213 0.54756 0.42215 0.0
C2631 C 0.03143 0.45658 0.40967 0.0
H2632 H 0.05477 0.50203 0.33035 0.0
H2633 H 0.11534 0.48092 0.37302 0.0
H2634 H 0.01429 0.49715 0.37463 0.0
H2635 H 0.02884 0.52894 0.37886 0.0
H2636 H 0.02144 0.51385 0.34817 0.0
H2637 H 0.11759 0.48008 0.41593 0.0
H2638 H 0.10265 0.50306 0.43086 0.0
H2639 H 0.0884 0.47119 0.4269 0.0
H2640 H 0.04523 0.54678 0.46084 0.0
H2641 H 0.01182 0.47001 0.45065 0.0
H2642 H 0.06542 0.55233 0.40362 0.0
H2643 H 0.09048 0.5427 0.42088 0.0
H2644 H 0.07369 0.56429 0.43531 0.0
H2645 H 0.02607 0.45812 0.38987 0.0
H2646 H 0.01706 0.44349 0.41691 0.0
H2647 H 0.04843 0.44849 0.41095 0.0
C2648 C 0.71446 0.85244 0.59603 0.0
C2649 C 0.73266 0.87307 0.60302 0.0
C2650 C 0.70912 0.83383 0.61218 0.0
C2651 C 0.72245 0.83598 0.63565 0.0
C2652 C 0.73977 0.85756 0.64328 0.0
C2653 C 0.74463 0.87586 0.62686 0.0
C2654 C 0.6903 0.81129 0.60356 0.0
C2655 C 0.75439 0.86063 0.66823 0.0
C2656 C 0.71038 0.79975 0.69057 0.0
C2657 C 0.7293 0.78568 0.69068 0.0
C2658 C 0.70593 0.81451 0.67113 0.0
C2659 C 0.72064 0.81485 0.65147 0.0
C2660 C 0.7375 0.79811 0.65002 0.0
C2661 C 0.74171 0.78375 0.66977 0.0
C2662 C 0.6876 0.83191 0.67317 0.0
C2663 C 0.75323 0.79756 0.62911 0.0
H2664 H 0.70505 0.85031 0.57762 0.0
H2665 H 0.75857 0.89188 0.63239 0.0
H2666 H 0.69951 0.79546 0.59814 0.0
H2667 H 0.67911 0.80552 0.61852 0.0
H2668 H 0.67816 0.81483 0.5874 0.0
H2669 H 0.7649 0.8797 0.67241 0.0
H2670 H 0.74238 0.85664 0.68295 0.0
H2671 H 0.76729 0.8471 0.66876 0.0
H2672 H 0.70071 0.80129 0.70673 0.0
H2673 H 0.75611 0.77257 0.66971 0.0
H2674 H 0.67743 0.83298 0.65501 0.0
H2675 H 0.69719 0.85094 0.67955 0.0
H2676 H 0.67452 0.82598 0.68654 0.0
H2677 H 0.74234 0.79769 0.61116 0.0
H2678 H 0.76241 0.78089 0.62864 0.0
H2679 H 0.76735 0.81446 0.63132 0.0
C2680 C 0.65164 0.43006 0.55463 0.0
C2681 C 0.6714 0.43683 0.54111 0.0
C2682 C 0.63347 0.44516 0.55651 0.0
C2683 C 0.63471 0.46737 0.54417 0.0
C2684 C 0.65467 0.47428 0.53055 0.0
C2685 C 0.67283 0.45913 0.52942 0.0
C2686 C 0.61275 0.43718 0.57148 0.0
C2687 C 0.6565 0.49733 0.5165 0.0
C2688 C 0.57559 0.49093 0.52538 0.0
C2689 C 0.5767 0.51205 0.54192 0.0
C2690 C 0.5942 0.47637 0.52599 0.0
C2691 C 0.61439 0.48248 0.54406 0.0
C2692 C 0.61533 0.50336 0.56133 0.0
C2693 C 0.59664 0.5181 0.55986 0.0
C2694 C 0.59249 0.45478 0.50677 0.0
C2695 C 0.63619 0.51023 0.58125 0.0
H2696 H 0.65043 0.41297 0.56386 0.0
H2697 H 0.68794 0.4645 0.51886 0.0
H2698 H 0.61098 0.45256 0.58519 0.0
H2699 H 0.59548 0.43301 0.55926 0.0
H2700 H 0.61517 0.42038 0.5813 0.0
H2701 H 0.6734 0.5005 0.50726 0.0
H2702 H 0.64073 0.4956 0.50232 0.0
H2703 H 0.65594 0.51398 0.52911 0.0
H2704 H 0.56035 0.48608 0.51133 0.0
H2705 H 0.59763 0.53432 0.57271 0.0
H2706 H 0.59265 0.43714 0.51578 0.0
H2707 H 0.60846 0.45742 0.49612 0.0
H2708 H 0.5758 0.45274 0.4937 0.0
H2709 H 0.63836 0.4939 0.59187 0.0
H2710 H 0.6336 0.52597 0.59416 0.0
H2711 H 0.65331 0.51554 0.57285 0.0
C2712 C 0.18679 0.13249 0.49586 0.0
C2713 C 0.20221 0.12045 0.48225 0.0
C2714 C 0.16296 0.12109 0.49774 0.0
C2715 C 0.15442 0.0972 0.48558 0.0
C2716 C 0.16941 0.08565 0.47056 0.0
C2717 C 0.19324 0.09741 0.46915 0.0
C2718 C 0.14745 0.13398 0.51392 0.0
C2719 C 0.16069 0.06035 0.45701 0.0
C2720 C 0.10713 0.05666 0.51655 0.0
C2721 C 0.08562 0.05987 0.50287 0.0
C2722 C 0.12969 0.06828 0.51069 0.0
C2723 C 0.13074 0.08337 0.49059 0.0
C2724 C 0.10919 0.08613 0.47624 0.0
C2725 C 0.08685 0.07439 0.4826 0.0
C2726 C 0.15234 0.06506 0.52652 0.0
C2727 C 0.10966 0.10203 0.45465 0.0
H2728 H 0.19363 0.15038 0.50592 0.0
H2729 H 0.20509 0.08815 0.45846 0.0
H2730 H 0.12945 0.13448 0.5039 0.0
H2731 H 0.1443 0.12336 0.53027 0.0
H2732 H 0.15603 0.15336 0.52037 0.0
H2733 H 0.17348 0.05527 0.44393 0.0
H2734 H 0.15865 0.04597 0.47046 0.0
H2735 H 0.14263 0.05988 0.44669 0.0
H2736 H 0.10638 0.04549 0.53222 0.0
H2737 H 0.07032 0.07705 0.47193 0.0
H2738 H 0.16136 0.08339 0.53559 0.0
H2739 H 0.16537 0.05787 0.51495 0.0
H2740 H 0.14844 0.05206 0.54099 0.0
H2741 H 0.11573 0.12189 0.46133 0.0
H2742 H 0.09156 0.10033 0.44399 0.0
H2743 H 0.12282 0.09676 0.44211 0.0
C2744 C 0.22586 0.94805 0.79725 0.0
C2745 C 0.20126 0.94325 0.80105 0.0
C2746 C 0.23924 0.9285 0.7941 0.0
C2747 C 0.22776 0.90354 0.79482 0.0
C2748 C 0.20298 0.89858 0.79894 0.0
C2749 C 0.19001 0.9185 0.80196 0.0
C2750 C 0.26564 0.93455 0.78984 0.0
C2751 C 0.19014 0.87222 0.79995 0.0
C2752 C 0.25599 0.85149 0.76478 0.0
C2753 C 0.26841 0.84318 0.78518 0.0
C2754 C 0.24269 0.87117 0.76761 0.0
C2755 C 0.24177 0.88266 0.79144 0.0
C2756 C 0.25443 0.87433 0.81207 0.0
C2757 C 0.26777 0.85485 0.80865 0.0
C2758 C 0.22956 0.87961 0.74514 0.0
C2759 C 0.25357 0.88568 0.83783 0.0
H2760 H 0.23465 0.96711 0.79647 0.0
H2761 H 0.17099 0.91465 0.80484 0.0
H2762 H 0.27704 0.9273 0.80447 0.0
H2763 H 0.26866 0.92525 0.772 0.0
H2764 H 0.27186 0.95492 0.78969 0.0
H2765 H 0.17103 0.87154 0.80402 0.0
H2766 H 0.1903 0.86138 0.7821 0.0
H2767 H 0.19981 0.86283 0.81429 0.0
H2768 H 0.25682 0.84267 0.74661 0.0
H2769 H 0.27723 0.84831 0.82451 0.0
H2770 H 0.23543 0.89985 0.74387 0.0
H2771 H 0.20976 0.87671 0.7467 0.0
H2772 H 0.23284 0.8694 0.72784 0.0
H2773 H 0.2594 0.90616 0.83883 0.0
H2774 H 0.26532 0.87779 0.85171 0.0
H2775 H 0.23467 0.88229 0.84277 0.0
C2776 C 0.30002 0.95463 0.04526 0.0
C2777 C 0.29416 0.92878 0.0396 0.0
C2778 C 0.32373 0.96723 0.04424 0.0
C2779 C 0.34189 0.95372 0.03693 0.0
C2780 C 0.33609 0.92758 0.03144 0.0
C2781 C 0.31237 0.91542 0.03305 0.0
C2782 C 0.32928 0.99503 0.05069 0.0
C2783 C 0.35478 0.91251 0.02322 0.0
C2784 C 0.39571 0.98772 0.00843 0.0
C2785 C 0.4144 0.98936 0.02757 0.0
C2786 C 0.37199 0.97638 0.01132 0.0
C2787 C 0.36674 0.96695 0.0341 0.0
C2788 C 0.38546 0.96932 0.05376 0.0
C2789 C 0.40915 0.98025 0.05016 0.0
C2790 C 0.35268 0.9739 0.98977 0.0
C2791 C 0.38055 0.96003 0.07848 0.0
H2792 H 0.28603 0.96504 0.05043 0.0
H2793 H 0.30795 0.89545 0.02854 0.0
H2794 H 0.34497 0.9996 0.06502 0.0
H2795 H 0.3344 0.00465 0.03424 0.0
H2796 H 0.31359 0.00254 0.05751 0.0
H2797 H 0.34745 0.8923 0.01993 0.0
H2798 H 0.36137 0.91925 0.00596 0.0
H2799 H 0.37067 0.91501 0.03731 0.0
H2800 H 0.39976 0.99472 0.99093 0.0
H2801 H 0.42357 0.98171 0.06506 0.0
H2802 H 0.33719 0.9828 0.99499 0.0
H2803 H 0.34561 0.9539 0.98453 0.0
H2804 H 0.35961 0.98254 0.97344 0.0
H2805 H 0.36516 0.96796 0.08544 0.0
H2806 H 0.39661 0.96497 0.09238 0.0
H2807 H 0.37528 0.93946 0.07656 0.0
C2808 C 0.83824 0.62086 0.74632 0.0
C2809 C 0.86297 0.62724 0.75476 0.0
C2810 C 0.82261 0.63871 0.74658 0.0
C2811 C 0.83179 0.6637 0.75557 0.0
C2812 C 0.85684 0.6704 0.76372 0.0
C2813 C 0.87212 0.65212 0.7632 0.0
C2814 C 0.79609 0.63068 0.73769 0.0
C2815 C 0.8674 0.69679 0.77344 0.0
C2816 C 0.79251 0.71293 0.73896 0.0
C2817 C 0.78045 0.71535 0.76009 0.0
C2818 C 0.80971 0.6967 0.73742 0.0
C2819 C 0.81485 0.68239 0.75743 0.0
C2820 C 0.80283 0.68502 0.77891 0.0
C2821 C 0.78581 0.70141 0.77996 0.0
C2822 C 0.82216 0.69464 0.71424 0.0
C2823 C 0.80783 0.67035 0.80076 0.0
H2824 H 0.83097 0.60173 0.73971 0.0
H2825 H 0.89118 0.65726 0.76975 0.0
H2826 H 0.78493 0.63336 0.75307 0.0
H2827 H 0.79052 0.64241 0.72304 0.0
H2828 H 0.79195 0.61082 0.73034 0.0
H2829 H 0.88737 0.69929 0.77806 0.0
H2830 H 0.86325 0.70996 0.75963 0.0
H2831 H 0.85899 0.70191 0.79023 0.0
H2832 H 0.78814 0.72335 0.72342 0.0
H2833 H 0.77671 0.70337 0.79645 0.0
H2834 H 0.81856 0.67509 0.70605 0.0
H2835 H 0.84207 0.69981 0.7187 0.0
H2836 H 0.81605 0.70687 0.70027 0.0
H2837 H 0.80447 0.6501 0.79503 0.0
H2838 H 0.7964 0.67384 0.81572 0.0
H2839 H 0.82717 0.67537 0.80822 0.0
C2840 C 0.84174 0.59321 0.98958 0.0
C2841 C 0.82337 0.59665 0.00448 0.0
C2842 C 0.85957 0.57912 0.99693 0.0
C2843 C 0.85889 0.56819 0.01969 0.0
C2844 C 0.83959 0.57039 0.03414 0.0
C2845 C 0.82202 0.58471 0.02637 0.0
C2846 C 0.87988 0.57711 0.98096 0.0
C2847 C 0.83818 0.55874 0.05835 0.0
C2848 C 0.90344 0.52316 0.02629 0.0
C2849 C 0.92407 0.53934 0.03714 0.0
C2850 C 0.88118 0.53171 0.02226 0.0
C2851 C 0.87986 0.55691 0.02926 0.0
C2852 C 0.90016 0.57252 0.04234 0.0
C2853 C 0.92208 0.56349 0.04614 0.0
C2854 C 0.85976 0.51444 0.00866 0.0
C2855 C 0.89945 0.59946 0.05031 0.0
H2856 H 0.84271 0.60227 0.97256 0.0
H2857 H 0.80769 0.58721 0.03785 0.0
H2858 H 0.89725 0.58708 0.99071 0.0
H2859 H 0.88194 0.55732 0.97733 0.0
H2860 H 0.87679 0.58519 0.96304 0.0
H2861 H 0.82024 0.55887 0.06539 0.0
H2862 H 0.84165 0.53924 0.05647 0.0
H2863 H 0.85237 0.56926 0.07225 0.0
H2864 H 0.90503 0.50441 0.01946 0.0
H2865 H 0.93806 0.57588 0.05481 0.0
H2866 H 0.85753 0.5191 0.98922 0.0
H2867 H 0.84279 0.51674 0.01682 0.0
H2868 H 0.86223 0.4946 0.00879 0.0
H2869 H 0.89877 0.61031 0.03385 0.0
H2870 H 0.91563 0.608 0.06301 0.0
H2871 H 0.88295 0.60116 0.05957 0.0
C2872 C 0.21529 0.08545 0.81159 0.0
C2873 C 0.19044 0.07742 0.80478 0.0
C2874 C 0.22612 0.11009 0.80895 0.0
C2875 C 0.21176 0.12714 0.79929 0.0
C2876 C 0.18655 0.11927 0.79295 0.0
C2877 C 0.17622 0.09454 0.79574 0.0
C2878 C 0.25303 0.11772 0.81596 0.0
C2879 C 0.17055 0.13685 0.7827 0.0
C2880 C 0.23441 0.19711 0.80889 0.0
C2881 C 0.24253 0.20238 0.78598 0.0
C2882 C 0.22473 0.17269 0.81363 0.0
C2883 C 0.22313 0.15297 0.79505 0.0
C2884 C 0.2317 0.15808 0.77206 0.0
C2885 C 0.24125 0.18267 0.7678 0.0
C2886 C 0.21578 0.16808 0.83837 0.0
C2887 C 0.23038 0.1376 0.75176 0.0
H2888 H 0.2264 0.07232 0.81855 0.0
H2889 H 0.15701 0.0885 0.79043 0.0
H2890 H 0.26209 0.12293 0.79942 0.0
H2891 H 0.2565 0.13438 0.82935 0.0
H2892 H 0.26148 0.1026 0.82415 0.0
H2893 H 0.15115 0.12814 0.77958 0.0
H2894 H 0.17222 0.15383 0.79549 0.0
H2895 H 0.1765 0.14289 0.76495 0.0
H2896 H 0.23523 0.21214 0.82308 0.0
H2897 H 0.24746 0.18645 0.75004 0.0
H2898 H 0.22479 0.15356 0.84696 0.0
H2899 H 0.19601 0.161 0.83594 0.0
H2900 H 0.21917 0.18521 0.85119 0.0
H2901 H 0.23986 0.12253 0.75847 0.0
H2902 H 0.23858 0.14446 0.73526 0.0
H2903 H 0.21117 0.12925 0.74619 0.0
C2904 C 0.33213 0.99863 0.24883 0.0
C2905 C 0.35739 1.00035 0.25313 0.0
C2906 C 0.31671 0.97588 0.25003 0.0
C2907 C 0.32684 0.95445 0.25582 0.0
C2908 C 0.35235 0.95606 0.25982 0.0
C2909 C 0.36729 0.97895 0.25836 0.0
C2910 C 0.28962 0.97483 0.24544 0.0
C2911 C 0.36389 0.93367 0.26609 0.0
C2912 C 0.29194 0.90021 0.28451 0.0
C2913 C 0.28741 0.88195 0.2647 0.0
C2914 C 0.30375 0.92437 0.28159 0.0
C2915 C 0.31097 0.93035 0.25826 0.0
C2916 C 0.30506 0.91233 0.23788 0.0
C2917 C 0.29343 0.88829 0.24138 0.0
C2918 C 0.30974 0.94303 0.3038 0.0
C2919 C 0.31215 0.918 0.21265 0.0
H2920 H 0.32439 0.01513 0.24476 0.0
H2921 H 0.38679 0.98015 0.26174 0.0
H2922 H 0.28191 0.96011 0.23061 0.0
H2923 H 0.28102 0.96982 0.26228 0.0
H2924 H 0.28467 0.99286 0.24014 0.0
H2925 H 0.38401 0.93797 0.26837 0.0
H2926 H 0.35766 0.92676 0.28344 0.0
H2927 H 0.3582 0.91831 0.2514 0.0
H2928 H 0.28728 0.89532 0.30256 0.0
H2929 H 0.28979 0.87418 0.22598 0.0
H2930 H 0.30401 0.96101 0.29954 0.0
H2931 H 0.32966 0.94673 0.3088 0.0
H2932 H 0.30089 0.93631 0.32 0.0
H2933 H 0.30687 0.93595 0.20758 0.0
H2934 H 0.30366 0.9031 0.19824 0.0
H2935 H 0.33214 0.91992 0.21281 0.0
C2936 C 0.49575 0.34831 0.62756 0.0
C2937 C 0.50052 0.32508 0.61856 0.0
C2938 C 0.49587 0.36815 0.61239 0.0
C2939 C 0.50124 0.36478 0.5877 0.0
C2940 C 0.50602 0.34133 0.5785 0.0
C2941 C 0.50545 0.32171 0.59399 0.0
C2942 C 0.49049 0.39281 0.62286 0.0
C2943 C 0.51213 0.33709 0.55242 0.0
C2944 C 0.4836 0.41264 0.54455 0.0
C2945 C 0.50518 0.42975 0.54645 0.0
C2946 C 0.48218 0.39093 0.55732 0.0
C2947 C 0.50291 0.38621 0.572 0.0
C2948 C 0.52504 0.40288 0.57288 0.0
C2949 C 0.52586 0.42449 0.56019 0.0
C2950 C 0.45821 0.37371 0.55609 0.0
C2951 C 0.54767 0.39835 0.58793 0.0
H2952 H 0.49177 0.35097 0.64647 0.0
H2953 H 0.50916 0.30377 0.58694 0.0
H2954 H 0.5066 0.40745 0.62277 0.0
H2955 H 0.47538 0.39856 0.61123 0.0
H2956 H 0.48554 0.39203 0.64202 0.0
H2957 H 0.51472 0.31757 0.54786 0.0
H2958 H 0.49748 0.34156 0.53924 0.0
H2959 H 0.529 0.34975 0.5497 0.0
H2960 H 0.46757 0.41678 0.53405 0.0
H2961 H 0.54263 0.43766 0.56154 0.0
H2962 H 0.45134 0.37421 0.57446 0.0
H2963 H 0.46054 0.35421 0.55116 0.0
H2964 H 0.44433 0.37898 0.54247 0.0
H2965 H 0.54455 0.39812 0.60765 0.0
H2966 H 0.56354 0.41284 0.58623 0.0
H2967 H 0.55211 0.37987 0.58201 0.0
C2968 C 0.44079 0.77882 0.35357 0.0
C2969 C 0.46042 0.77932 0.33936 0.0
C2970 C 0.41693 0.77719 0.34247 0.0
C2971 C 0.41248 0.77567 0.31646 0.0
C2972 C 0.43216 0.77555 0.30199 0.0
C2973 C 0.45592 0.77758 0.31362 0.0
C2974 C 0.39655 0.7777 0.35862 0.0
C2975 C 0.42813 0.77358 0.27423 0.0
C2976 C 0.34675 0.75308 0.29033 0.0
C2977 C 0.33842 0.77566 0.28639 0.0
C2978 C 0.37105 0.75269 0.2992 0.0
C2979 C 0.38735 0.77542 0.30461 0.0
C2980 C 0.3792 0.79819 0.30005 0.0
C2981 C 0.35495 0.79801 0.29087 0.0
C2982 C 0.37908 0.72799 0.3035 0.0
C2983 C 0.39584 0.82288 0.30583 0.0
H2984 H 0.44411 0.78021 0.37348 0.0
H2985 H 0.47098 0.77783 0.30253 0.0
H2986 H 0.38768 0.79421 0.35535 0.0
H2987 H 0.38252 0.76093 0.3539 0.0
H2988 H 0.40296 0.77844 0.37852 0.0
H2989 H 0.4451 0.77223 0.26562 0.0
H2990 H 0.41447 0.75696 0.26754 0.0
H2991 H 0.42084 0.79016 0.26793 0.0
H2992 H 0.33419 0.73569 0.28694 0.0
H2993 H 0.34879 0.81561 0.28806 0.0
H2994 H 0.38334 0.72669 0.32353 0.0
H2995 H 0.39589 0.72652 0.29467 0.0
H2996 H 0.36496 0.71194 0.29621 0.0
H2997 H 0.4015 0.82575 0.32592 0.0
H2998 H 0.38705 0.83884 0.30018 0.0
H2999 H 0.41251 0.82291 0.29642 0.0
C3000 C 0.01855 0.683 0.13318 0.0
C3001 C 0.99923 0.69584 0.12737 0.0
C3002 C 0.0221 0.66232 0.11806 0.0
C3003 C 0.00572 0.65402 0.09682 0.0
C3004 C 0.98564 0.66633 0.09137 0.0
C3005 C 0.98276 0.68725 0.1066 0.0
C3006 C 0.04384 0.64982 0.12443 0.0
C3007 C 0.9675 0.65771 0.06919 0.0
C3008 C 0.02969 0.61784 0.04516 0.0
C3009 C 0.02135 0.59315 0.0497 0.0
C3010 C 0.02442 0.63785 0.06014 0.0
C3011 C 0.01019 0.63301 0.07991 0.0
C3012 C 1.0012 0.60808 0.08415 0.0
C3013 C 0.0072 0.58846 0.06923 0.0
C3014 C 0.03457 0.66416 0.05517 0.0
C3015 C 0.98561 0.6021 0.10472 0.0
H3016 H 0.03139 0.6896 0.14915 0.0
H3017 H 0.96775 0.69707 0.10207 0.0
H3018 H 0.03792 0.62968 0.12618 0.0
H3019 H 0.05584 0.65135 0.1094 0.0
H3020 H 0.05455 0.65819 0.14189 0.0
H3021 H 0.97645 0.66051 0.05211 0.0
H3022 H 0.96062 0.63748 0.06914 0.0
H3023 H 0.95183 0.66795 0.06866 0.0
H3024 H 0.04072 0.62153 0.03015 0.0
H3025 H 1.00108 0.5694 0.07313 0.0
H3026 H 0.04682 0.67333 0.07138 0.0
H3027 H 0.01968 0.67521 0.05226 0.0
H3028 H 0.04487 0.66479 0.03877 0.0
H3029 H 0.99628 0.60831 0.12275 0.0
H3030 H 0.97863 0.58184 0.10443 0.0
H3031 H 0.96997 0.61233 0.10337 0.0
C3032 C 0.11488 0.28011 0.85331 0.0
C3033 C 0.09533 0.29007 0.84217 0.0
C3034 C 0.13598 0.27897 0.84152 0.0
C3035 C 0.13775 0.28814 0.81801 0.0
C3036 C 0.11828 0.2987 0.80689 0.0
C3037 C 0.09729 0.29944 0.81904 0.0
C3038 C 0.1562 0.26747 0.85404 0.0
C3039 C 0.1195 0.30892 0.78198 0.0
C3040 C 0.2004 0.30148 0.7949 0.0
C3041 C 0.20033 0.28014 0.77908 0.0
C3042 C 0.18021 0.3044 0.80771 0.0
C3043 C 0.15943 0.28554 0.80457 0.0
C3044 C 0.15937 0.26396 0.78861 0.0
C3045 C 0.17974 0.26159 0.77601 0.0
C3046 C 0.18107 0.3277 0.8245 0.0
C3047 C 0.13783 0.24322 0.78496 0.0
H3048 H 0.11358 0.27286 0.8712 0.0
H3049 H 0.08235 0.30727 0.81035 0.0
H3050 H 0.15909 0.25084 0.84257 0.0
H3051 H 0.17342 0.28088 0.856 0.0
H3052 H 0.1523 0.26176 0.87257 0.0
H3053 H 0.10344 0.31768 0.77639 0.0
H3054 H 0.1361 0.32299 0.78216 0.0
H3055 H 0.12065 0.29369 0.76787 0.0
H3056 H 0.21615 0.31602 0.79707 0.0
H3057 H 0.17962 0.24503 0.76387 0.0
H3058 H 0.1783 0.32272 0.84348 0.0
H3059 H 0.16616 0.33774 0.81823 0.0
H3060 H 0.1986 0.34051 0.82507 0.0
H3061 H 0.1341 0.23588 0.8029 0.0
H3062 H 0.14071 0.22757 0.7721 0.0
H3063 H 0.12143 0.25051 0.77761 0.0
C3064 C 0.5224 0.70803 0.99429 0.0
C3065 C 0.53451 0.71026 0.97308 0.0
C3066 C 0.52089 0.68614 0.00656 0.0
C3067 C 0.53139 0.66602 0.99704 0.0
C3068 C 0.54384 0.66829 0.97576 0.0
C3069 C 0.54543 0.69052 0.96414 0.0
C3070 C 0.50794 0.68445 0.02953 0.0
C3071 C 0.55506 0.64706 0.96499 0.0
C3072 C 0.54735 0.61476 0.03563 0.0
C3073 C 0.52799 0.59557 0.02784 0.0
C3074 C 0.5481 0.6383 0.02664 0.0
C3075 C 0.52927 0.6424 0.00912 0.0
C3076 C 0.50918 0.62334 1.00198 0.0
C3077 C 0.50858 0.60023 0.01191 0.0
C3078 C 0.56947 0.65843 0.03517 0.0
C3079 C 0.48896 0.62689 0.983 0.0
H3080 H 0.51403 0.72335 1.00125 0.0
H3081 H 0.55472 0.6922 0.94767 0.0
H3082 H 0.49198 0.66938 0.02646 0.0
H3083 H 0.52014 0.67959 0.04497 0.0
H3084 H 0.50167 0.70217 0.03509 0.0
H3085 H 0.56387 0.6518 0.94816 0.0
H3086 H 0.56886 0.64195 0.97875 0.0
H3087 H 0.54094 0.63035 0.96027 0.0
H3088 H 0.56224 0.61123 0.04828 0.0
H3089 H 0.49316 0.58568 0.00691 0.0
H3090 H 0.56317 0.67611 0.04069 0.0
H3091 H 0.5808 0.66207 0.01982 0.0
H3092 H 0.58102 0.65317 0.05095 0.0
H3093 H 0.48182 0.64425 0.98788 0.0
H3094 H 0.47374 0.61098 0.98107 0.0
H3095 H 0.49611 0.62879 0.96486 0.0
C3096 C 0.0761 0.82391 0.67522 0.0
C3097 C 0.07362 0.80934 0.65276 0.0
C3098 C 0.09694 0.82546 0.69188 0.0
C3099 C 0.11553 0.81202 0.68586 0.0
C3100 C 0.11365 0.79841 0.66264 0.0
C3101 C 0.09271 0.79727 0.64634 0.0
C3102 C 0.09851 0.84042 0.71635 0.0
C3103 C 0.1332 0.78393 0.65552 0.0
C3104 C 0.17866 0.82174 0.71943 0.0
C3105 C 0.17709 0.80119 0.73364 0.0
C3106 C 0.15827 0.82658 0.70491 0.0
C3107 C 0.13601 0.81023 0.70444 0.0
C3108 C 0.13406 0.79029 0.71989 0.0
C3109 C 0.15468 0.78607 0.73443 0.0
C3110 C 0.16094 0.84827 0.68902 0.0
C3111 C 0.11059 0.77247 0.71991 0.0
H3112 H 0.06139 0.83337 0.6802 0.0
H3113 H 0.09091 0.7861 0.62893 0.0
H3114 H 0.09651 0.82758 0.73122 0.0
H3115 H 0.1165 0.85242 0.72043 0.0
H3116 H 0.08417 0.85236 0.71687 0.0
H3117 H 0.12967 0.77565 0.63617 0.0
H3118 H 0.15111 0.7962 0.65783 0.0
H3119 H 0.13437 0.76865 0.66782 0.0
H3120 H 0.19602 0.8335 0.71895 0.0
H3121 H 0.15349 0.77025 0.74554 0.0
H3122 H 0.14549 0.85866 0.69005 0.0
H3123 H 0.16084 0.8412 0.66953 0.0
H3124 H 0.17812 0.86139 0.69448 0.0
H3125 H 0.09543 0.7829 0.72261 0.0
H3126 H 0.11156 0.75932 0.73453 0.0
H3127 H 0.10624 0.76147 0.70181 0.0
C3128 C 0.05409 0.34359 0.48937 0.0
C3129 C 0.04485 0.3405 0.46447 0.0
C3130 C 0.05535 0.36652 0.50313 0.0
C3131 C 0.04711 0.38662 0.49165 0.0
C3132 C 0.03878 0.38386 0.46624 0.0
C3133 C 0.03776 0.36082 0.45297 0.0
C3134 C 0.06465 0.36895 0.5301 0.0
C3135 C 0.03003 0.40497 0.45326 0.0
C3136 C 0.01959 0.43652 0.52467 0.0
C3137 C 0.03728 0.45753 0.52365 0.0
C3138 C 0.02334 0.4128 0.51599 0.0
C3139 C 0.04536 0.41006 0.50624 0.0
C3140 C 0.06417 0.43076 0.50735 0.0
C3141 C 0.0599 0.45431 0.51604 0.0
C3142 C 0.00287 0.39111 0.51524 0.0
C3143 C 0.08804 0.42852 0.49744 0.0
H3144 H 0.05969 0.32792 0.49829 0.0
H3145 H 0.03079 0.35855 0.43367 0.0
H3146 H 0.07832 0.38606 0.53456 0.0
H3147 H 0.04947 0.37072 0.54138 0.0
H3148 H 0.07292 0.35261 0.53554 0.0
H3149 H 0.02517 0.40008 0.4332 0.0
H3150 H 0.01383 0.40998 0.46136 0.0
H3151 H 0.04423 0.42179 0.45581 0.0
H3152 H 0.00216 0.43873 0.53078 0.0
H3153 H 0.07383 0.47037 0.51542 0.0
H3154 H 0.00966 0.37454 0.5222 0.0
H3155 H 0.99494 0.38601 0.4959 0.0
H3156 H 0.98823 0.39559 0.5263 0.0
H3157 H 0.09454 0.4112 0.50276 0.0
H3158 H 0.10224 0.44474 0.5041 0.0
H3159 H 0.08556 0.42759 0.47703 0.0
C3160 C 0.42381 0.28404 0.15 0.0
C3161 C 0.44823 0.28685 0.15933 0.0
C3162 C 0.40559 0.28333 0.1659 0.0
C3163 C 0.41207 0.28572 0.19167 0.0
C3164 C 0.43669 0.28834 0.2012 0.0
C3165 C 0.45453 0.28878 0.18486 0.0
C3166 C 0.37942 0.2802 0.15512 0.0
C3167 C 0.44415 0.29088 0.22859 0.0
C3168 C 0.36402 0.30786 0.22756 0.0
C3169 C 0.35136 0.28516 0.23336 0.0
C3170 C 0.38481 0.30847 0.21513 0.0
C3171 C 0.39291 0.28583 0.20849 0.0
C3172 C 0.38111 0.26307 0.2159 0.0
C3173 C 0.36037 0.26302 0.22826 0.0
C3174 C 0.39717 0.33312 0.20778 0.0
C3175 C 0.38927 0.23854 0.20933 0.0
H3176 H 0.41892 0.28244 0.13026 0.0
H3177 H 0.47345 0.29097 0.19211 0.0
H3178 H 0.36885 0.26355 0.1619 0.0
H3179 H 0.37131 0.29661 0.16119 0.0
H3180 H 0.37745 0.2781 0.13467 0.0
H3181 H 0.46408 0.29243 0.23299 0.0
H3182 H 0.43823 0.30767 0.23711 0.0
H3183 H 0.4351 0.27455 0.23719 0.0
H3184 H 0.35704 0.32498 0.23166 0.0
H3185 H 0.35062 0.24548 0.23299 0.0
H3186 H 0.39402 0.33366 0.18752 0.0
H3187 H 0.41705 0.33533 0.21271 0.0
H3188 H 0.39031 0.34918 0.21669 0.0
H3189 H 0.38295 0.23244 0.18975 0.0
H3190 H 0.38173 0.22375 0.22083 0.0
H3191 H 0.40933 0.24041 0.21153 0.0
C3192 C 0.58651 0.48854 0.34951 0.0
C3193 C 0.61129 0.49831 0.35432 0.0
C3194 C 0.57068 0.48959 0.36788 0.0
C3195 C 0.57985 0.50052 0.39173 0.0
C3196 C 0.60497 0.50985 0.39688 0.0
C3197 C 0.62037 0.50872 0.37809 0.0
C3198 C 0.54404 0.47952 0.36159 0.0
C3199 C 0.61552 0.52144 0.42215 0.0
C3200 C 0.53897 0.52853 0.43373 0.0
C3201 C 0.53491 0.51028 0.45048 0.0
C3202 C 0.55278 0.52516 0.41399 0.0
C3203 C 0.56309 0.50312 0.41107 0.0
C3204 C 0.55823 0.48418 0.42731 0.0
C3205 C 0.54407 0.48791 0.44672 0.0
C3206 C 0.5572 0.54567 0.39689 0.0
C3207 C 0.56904 0.46053 0.42501 0.0
H3208 H 0.57933 0.48047 0.33117 0.0
H3209 H 0.63949 0.51626 0.38195 0.0
H3210 H 0.53794 0.4655 0.37446 0.0
H3211 H 0.5333 0.49485 0.36376 0.0
H3212 H 0.53993 0.47076 0.34245 0.0
H3213 H 0.63556 0.52674 0.42349 0.0
H3214 H 0.60752 0.53836 0.42665 0.0
H3215 H 0.61091 0.50825 0.43626 0.0
H3216 H 0.53197 0.54586 0.43651 0.0
H3217 H 0.54138 0.47385 0.45977 0.0
H3218 H 0.55253 0.53802 0.37745 0.0
H3219 H 0.57673 0.55387 0.39908 0.0
H3220 H 0.54648 0.56079 0.40054 0.0
H3221 H 0.56204 0.44684 0.43787 0.0
H3222 H 0.58905 0.46503 0.42901 0.0
H3223 H 0.56511 0.45168 0.40592 0.0
C3224 C 0.22479 0.86369 0.12352 0.0
C3225 C 0.2276 0.85236 0.10037 0.0
C3226 C 0.22884 0.85176 0.14533 0.0
C3227 C 0.23632 0.82804 0.14416 0.0
C3228 C 0.23928 0.81658 0.12083 0.0
C3229 C 0.23471 0.82874 0.09929 0.0
C3230 C 0.22506 0.86456 0.16965 0.0
C3231 C 0.2475 0.7915 0.11861 0.0
C3232 C 0.26782 0.80552 0.20185 0.0
C3233 C 0.24924 0.78819 0.20926 0.0
C3234 C 0.26385 0.81884 0.18094 0.0
C3235 C 0.24065 0.81494 0.16718 0.0
C3236 C 0.2217 0.79786 0.17505 0.0
C3237 C 0.22628 0.7846 0.19578 0.0
C3238 C 0.28464 0.83671 0.17328 0.0
C3239 C 0.19653 0.79352 0.16153 0.0
H3240 H 0.21934 0.88193 0.12461 0.0
H3241 H 0.23714 0.81988 0.08158 0.0
H3242 H 0.2115 0.8524 0.17889 0.0
H3243 H 0.24224 0.86786 0.18203 0.0
H3244 H 0.21872 0.8827 0.16746 0.0
H3245 H 0.24957 0.78534 0.09927 0.0
H3246 H 0.26513 0.79229 0.12988 0.0
H3247 H 0.23422 0.77726 0.12586 0.0
H3248 H 0.28564 0.80822 0.21205 0.0
H3249 H 0.21175 0.77141 0.20155 0.0
H3250 H 0.27964 0.85557 0.17237 0.0
H3251 H 0.28862 0.83053 0.15458 0.0
H3252 H 0.30138 0.83808 0.18617 0.0
H3253 H 0.18934 0.81137 0.16116 0.0
H3254 H 0.18371 0.7799 0.17016 0.0
H3255 H 0.19715 0.7865 0.14215 0.0
C3256 C 0.95749 0.54962 0.83191 0.0
C3257 C 0.9488 0.57159 0.82613 0.0
C3258 C 0.96724 0.54654 0.85595 0.0
C3259 C 0.96887 0.5661 0.87475 0.0
C3260 C 0.96094 0.58869 0.86881 0.0
C3261 C 0.95076 0.59106 0.84469 0.0
C3262 C 0.97502 0.52198 0.86142 0.0
C3263 C 0.96279 0.61021 0.88808 0.0
C3264 C 0.97 0.54826 0.9412 0.0
C3265 C 0.99493 0.55234 0.94911 0.0
C3266 C 0.96132 0.55291 0.91725 0.0
C3267 C 0.97787 0.56238 0.90075 0.0
C3268 C 0.00301 0.56729 0.90887 0.0
C3269 C 0.01124 0.56197 0.93279 0.0
C3270 C 0.93441 0.54697 0.90936 0.0
C3271 C 0.02127 0.57788 0.89216 0.0
H3272 H 0.95588 0.53438 0.81777 0.0
H3273 H 0.94411 0.60809 0.84042 0.0
H3274 H 0.99421 0.52505 0.86949 0.0
H3275 H 0.96391 0.51314 0.87522 0.0
H3276 H 0.97307 0.50881 0.84471 0.0
H3277 H 0.95766 0.62716 0.88015 0.0
H3278 H 0.95071 0.6049 0.90246 0.0
H3279 H 0.98157 0.61483 0.89729 0.0
H3280 H 0.95719 0.54069 0.95352 0.0
H3281 H 0.03052 0.56535 0.93871 0.0
H3282 H 0.93086 0.53249 0.89366 0.0
H3283 H 0.92766 0.56377 0.90293 0.0
H3284 H 0.92387 0.54016 0.92447 0.0
H3285 H 0.02128 0.56435 0.87612 0.0
H3286 H 0.03994 0.58228 0.90173 0.0
H3287 H 0.0162 0.59513 0.88491 0.0
C3288 C 0.28363 0.21676 0.55789 0.0
C3289 C 0.28483 0.19122 0.55725 0.0
C3290 C 0.28281 0.23055 0.58025 0.0
C3291 C 0.28291 0.21836 0.60229 0.0
C3292 C 0.28509 0.19281 0.60183 0.0
C3293 C 0.28615 0.17955 0.57928 0.0
C3294 C 0.28089 0.25789 0.58018 0.0
C3295 C 0.28515 0.17917 0.625 0.0
C3296 C 0.29446 0.25324 0.66544 0.0
C3297 C 0.27079 0.25185 0.67206 0.0
C3298 C 0.29872 0.24334 0.64227 0.0
C3299 C 0.27881 0.23166 0.6256 0.0
C3300 C 0.25483 0.23107 0.63192 0.0
C3301 C 0.25111 0.24127 0.65513 0.0
C3302 C 0.32451 0.24444 0.63606 0.0
C3303 C 0.23315 0.21866 0.61461 0.0
H3304 H 0.28278 0.22585 0.54086 0.0
H3305 H 0.28713 0.15981 0.57884 0.0
H3306 H 0.26277 0.26086 0.58516 0.0
H3307 H 0.2946 0.269 0.59417 0.0
H3308 H 0.28345 0.26509 0.56191 0.0
H3309 H 0.2884 0.15968 0.62167 0.0
H3310 H 0.29932 0.18907 0.63926 0.0
H3311 H 0.26742 0.17875 0.63257 0.0
H3312 H 0.30969 0.26146 0.67861 0.0
H3313 H 0.23281 0.24025 0.66032 0.0
H3314 H 0.32637 0.25103 0.61747 0.0
H3315 H 0.32944 0.22548 0.63579 0.0
H3316 H 0.33764 0.25691 0.64962 0.0
H3317 H 0.23362 0.22644 0.5964 0.0
H3318 H 0.21569 0.22102 0.62181 0.0
H3319 H 0.23374 0.19842 0.61166 0.0
C3320 C 0.62828 0.47684 0.20544 0.0
C3321 C 0.61801 0.48807 0.2248 0.0
C3322 C 0.61754 0.47559 0.18108 0.0
C3323 C 0.59626 0.48614 0.17602 0.0
C3324 C 0.58511 0.49624 0.19569 0.0
C3325 C 0.59608 0.49697 0.21986 0.0
C3326 C 0.62973 0.4643 0.16064 0.0
C3327 C 0.5625 0.50781 0.19108 0.0
C3328 C 0.58774 0.51741 0.11689 0.0
C3329 C 0.56869 0.50095 0.10348 0.0
C3330 C 0.59729 0.51235 0.1402 0.0
C3331 C 0.5877 0.4901 0.15027 0.0
C3332 C 0.56911 0.47282 0.13635 0.0
C3333 C 0.55967 0.47855 0.11307 0.0
C3334 C 0.61704 0.53135 0.15443 0.0
C3335 C 0.5587 0.44873 0.14632 0.0
H3336 H 0.6451 0.46966 0.20922 0.0
H3337 H 0.58797 0.50552 0.23479 0.0
H3338 H 0.61617 0.45187 0.14749 0.0
H3339 H 0.6386 0.47934 0.15024 0.0
H3340 H 0.64373 0.45348 0.1678 0.0
H3341 H 0.55471 0.51247 0.20842 0.0
H3342 H 0.56688 0.52519 0.18175 0.0
H3343 H 0.5485 0.49503 0.17873 0.0
H3344 H 0.5948 0.53472 0.10945 0.0
H3345 H 0.54493 0.46581 0.10265 0.0
H3346 H 0.63298 0.5225 0.16006 0.0
H3347 H 0.61038 0.5387 0.17148 0.0
H3348 H 0.62306 0.54729 0.14358 0.0
H3349 H 0.57347 0.439 0.15365 0.0
H3350 H 0.54661 0.43601 0.13207 0.0
H3351 H 0.5481 0.45279 0.16181 0.0
C3352 C 0.23671 0.87205 0.94704 0.0
C3353 C 0.22295 0.8586 0.96342 0.0
C3354 C 0.24075 0.86096 0.9241 0.0
C3355 C 0.23048 0.83578 0.91692 0.0
C3356 C 0.21609 0.82225 0.93314 0.0
C3357 C 0.21263 0.83373 0.95618 0.0
C3358 C 0.25609 0.87633 0.90758 0.0
C3359 C 0.20453 0.79551 0.92623 0.0
C3360 C 0.22555 0.81404 0.84824 0.0
C3361 C 0.24564 0.8016 0.84684 0.0
C3362 C 0.22021 0.82488 0.87082 0.0
C3363 C 0.23533 0.82349 0.89277 0.0
C3364 C 0.25558 0.81092 0.8915 0.0
C3365 C 0.26044 0.80015 0.86869 0.0
C3366 C 0.19855 0.83818 0.87107 0.0
C3367 C 0.27252 0.80936 0.91423 0.0
H3368 H 0.24481 0.89126 0.95236 0.0
H3369 H 0.20198 0.82313 0.96864 0.0
H3370 H 0.26978 0.86584 0.90045 0.0
H3371 H 0.24431 0.88058 0.89153 0.0
H3372 H 0.26561 0.89424 0.91719 0.0
H3373 H 0.19311 0.7878 0.94034 0.0
H3374 H 0.19311 0.79407 0.90836 0.0
H3375 H 0.2188 0.78381 0.92383 0.0
H3376 H 0.21407 0.81566 0.83157 0.0
H3377 H 0.27612 0.79084 0.86798 0.0
H3378 H 0.20476 0.8584 0.87582 0.0
H3379 H 0.18697 0.83125 0.88536 0.0
H3380 H 0.18735 0.83572 0.85299 0.0
H3381 H 0.28088 0.82842 0.92196 0.0
H3382 H 0.28721 0.79859 0.91036 0.0
H3383 H 0.26224 0.80044 0.92857 0.0
C3384 C 0.94892 0.58393 0.67937 0.0
C3385 C 0.94606 0.56494 0.69553 0.0
C3386 C 0.96049 0.58103 0.65776 0.0
C3387 C 0.96982 0.55875 0.65228 0.0
C3388 C 0.96717 0.53965 0.66868 0.0
C3389 C 0.95521 0.54289 0.68991 0.0
C3390 C 0.96258 0.60174 0.64067 0.0
C3391 C 0.97711 0.51577 0.66388 0.0
C3392 C 0.9826 0.54048 0.58652 0.0
C3393 C 0.00762 0.54853 0.58743 0.0
C3394 C 0.96999 0.54388 0.60731 0.0
C3395 C 0.98277 0.55553 0.62971 0.0
C3396 C 0.00809 0.56382 0.63063 0.0
C3397 C 0.02011 0.56048 0.60945 0.0
C3398 C 0.94295 0.53521 0.60519 0.0
C3399 C 0.02258 0.57603 0.65408 0.0
H3400 H 0.94178 0.60096 0.68343 0.0
H3401 H 0.95314 0.52811 0.70225 0.0
H3402 H 0.95401 0.59455 0.62196 0.0
H3403 H 0.95386 0.61761 0.64714 0.0
H3404 H 0.98195 0.60876 0.639 0.0
H3405 H 0.97382 0.50282 0.67852 0.0
H3406 H 0.96865 0.50613 0.64598 0.0
H3407 H 0.99693 0.52002 0.66263 0.0
H3408 H 0.97272 0.53232 0.56932 0.0
H3409 H 0.03945 0.56698 0.61021 0.0
H3410 H 0.93358 0.55118 0.6097 0.0
H3411 H 0.93851 0.52126 0.61864 0.0
H3412 H 0.93564 0.52675 0.58644 0.0
H3413 H 0.01552 0.59312 0.66008 0.0
H3414 H 0.04217 0.58115 0.65188 0.0
H3415 H 0.02063 0.56324 0.669 0.0
C3416 C 0.30661 0.21178 0.4346 0.0
C3417 C 0.29242 0.18802 0.4308 0.0
C3418 C 0.30816 0.22775 0.41553 0.0
C3419 C 0.29523 0.21963 0.39228 0.0
C3420 C 0.28212 0.1951 0.38796 0.0
C3421 C 0.28084 0.17959 0.40733 0.0
C3422 C 0.32253 0.25368 0.42062 0.0
C3423 C 0.26829 0.1857 0.36327 0.0
C3424 C 0.2682 0.26245 0.35033 0.0
C3425 C 0.28266 0.26185 0.33084 0.0
C3426 C 0.27331 0.25034 0.3715 0.0
C3427 C 0.29326 0.23726 0.37303 0.0
C3428 C 0.30909 0.23838 0.35433 0.0
C3429 C 0.30363 0.25079 0.33342 0.0
C3430 C 0.25615 0.24976 0.39123 0.0
C3431 C 0.33051 0.22464 0.35528 0.0
H3432 H 0.3157 0.2183 0.45273 0.0
H3433 H 0.27003 0.16115 0.4043 0.0
H3434 H 0.33434 0.25809 0.40579 0.0
H3435 H 0.30992 0.26748 0.42092 0.0
H3436 H 0.33398 0.25599 0.43855 0.0
H3437 H 0.26121 0.16541 0.3622 0.0
H3438 H 0.25274 0.19582 0.35993 0.0
H3439 H 0.28004 0.18934 0.34826 0.0
H3440 H 0.25212 0.27122 0.3485 0.0
H3441 H 0.31488 0.25021 0.31838 0.0
H3442 H 0.26639 0.25395 0.40974 0.0
H3443 H 0.2454 0.2308 0.39073 0.0
H3444 H 0.24338 0.2633 0.38873 0.0
H3445 H 0.34009 0.22647 0.37413 0.0
H3446 H 0.34362 0.23151 0.34227 0.0
H3447 H 0.32399 0.20451 0.35017 0.0
C3448 C 0.38887 0.63859 0.52879 0.0
C3449 C 0.36708 0.63077 0.51357 0.0
C3450 C 0.40772 0.62408 0.52962 0.0
C3451 C 0.40494 0.60135 0.51461 0.0
C3452 C 0.38324 0.59381 0.49872 0.0
C3453 C 0.36462 0.60844 0.49853 0.0
C3454 C 0.43034 0.63271 0.54707 0.0
C3455 C 0.37937 0.56981 0.48238 0.0
C3456 C 0.45913 0.56907 0.50157 0.0
C3457 C 0.457 0.5499 0.51753 0.0
C3458 C 0.44285 0.58644 0.50091 0.0
C3459 C 0.42386 0.58455 0.5165 0.0
C3460 C 0.42204 0.56547 0.53299 0.0
C3461 C 0.4386 0.54851 0.53332 0.0
C3462 C 0.44558 0.60642 0.48307 0.0
C3463 C 0.4025 0.56281 0.55029 0.0
H3464 H 0.39095 0.65574 0.54055 0.0
H3465 H 0.34794 0.60223 0.48663 0.0
H3466 H 0.43177 0.61924 0.56129 0.0
H3467 H 0.44668 0.6333 0.53701 0.0
H3468 H 0.43042 0.65144 0.55643 0.0
H3469 H 0.36219 0.56728 0.46998 0.0
H3470 H 0.39468 0.5694 0.47097 0.0
H3471 H 0.3789 0.55376 0.49392 0.0
H3472 H 0.47318 0.57013 0.48917 0.0
H3473 H 0.43703 0.53397 0.54597 0.0
H3474 H 0.44668 0.62507 0.49295 0.0
H3475 H 0.42939 0.60368 0.46931 0.0
H3476 H 0.46199 0.60628 0.47318 0.0
H3477 H 0.40629 0.57861 0.5647 0.0
H3478 H 0.40148 0.54512 0.55943 0.0
H3479 H 0.38448 0.56338 0.54032 0.0
C3480 C 0.84916 0.93812 0.55733 0.0
C3481 C 0.83167 0.95052 0.56715 0.0
C3482 C 0.87305 0.95015 0.55723 0.0
C3483 C 0.87958 0.97511 0.5674 0.0
C3484 C 0.86248 0.9871 0.57901 0.0
C3485 C 0.83858 0.97466 0.57863 0.0
C3486 C 0.89078 0.93674 0.54465 0.0
C3487 C 0.86899 0.01354 0.59047 0.0
C3488 C 0.94695 0.99974 0.57256 0.0
C3489 C 0.94888 0.01114 0.55039 0.0
C3490 C 0.92429 0.989 0.5791 0.0
C3491 C 0.90323 0.98943 0.56291 0.0
C3492 C 0.90498 0.00175 0.54102 0.0
C3493 C 0.92777 0.01256 0.53509 0.0
C3494 C 0.92301 0.97634 0.60278 0.0
C3495 C 0.8829 0.00246 0.52319 0.0
H3496 H 0.84392 0.91936 0.54861 0.0
H3497 H 0.82513 0.98421 0.58644 0.0
H3498 H 0.89504 0.94561 0.52755 0.0
H3499 H 0.90806 0.93818 0.55666 0.0
H3500 H 0.8835 0.9167 0.53972 0.0
H3501 H 0.85501 0.01869 0.60207 0.0
H3502 H 0.88672 0.01618 0.60191 0.0
H3503 H 0.87076 0.02655 0.57572 0.0
H3504 H 0.96316 0.99873 0.5846 0.0
H3505 H 0.92904 0.02138 0.51797 0.0
H3506 H 0.91876 0.95585 0.59854 0.0
H3507 H 0.90829 0.98199 0.61299 0.0
H3508 H 0.94037 0.98073 0.61491 0.0
H3509 H 0.87505 0.98324 0.51552 0.0
H3510 H 0.88721 0.01396 0.50766 0.0
H3511 H 0.86877 0.01006 0.53284 0.0
C3512 C 0.80509 0.11074 0.25614 0.0
C3513 C 0.82945 0.11539 0.25143 0.0
C3514 C 0.79166 0.13029 0.25885 0.0
C3515 C 0.80284 0.15512 0.25681 0.0
C3516 C 0.82737 0.15993 0.2518 0.0
C3517 C 0.8404 0.14 0.24918 0.0
C3518 C 0.76551 0.12439 0.26406 0.0
C3519 C 0.83991 0.18615 0.24943 0.0
C3520 C 0.7618 0.20273 0.24229 0.0
C3521 C 0.76152 0.21504 0.26554 0.0
C3522 C 0.77539 0.1834 0.23914 0.0
C3523 C 0.78877 0.17599 0.25982 0.0
C3524 C 0.78831 0.18821 0.28342 0.0
C3525 C 0.77462 0.2076 0.28599 0.0
C3526 C 0.77567 0.17119 0.21361 0.0
C3527 C 0.80241 0.18095 0.30592 0.0
H3528 H 0.79653 0.09179 0.25792 0.0
H3529 H 0.85924 0.14373 0.2456 0.0
H3530 H 0.76301 0.13432 0.28177 0.0
H3531 H 0.75361 0.13106 0.24946 0.0
H3532 H 0.75947 0.10411 0.26505 0.0
H3533 H 0.8588 0.18668 0.24469 0.0
H3534 H 0.82966 0.19492 0.23503 0.0
H3535 H 0.84034 0.19766 0.26701 0.0
H3536 H 0.75182 0.20861 0.22639 0.0
H3537 H 0.77404 0.21687 0.30401 0.0
H3538 H 0.76998 0.15074 0.21341 0.0
H3539 H 0.79437 0.17441 0.20812 0.0
H3540 H 0.76352 0.17852 0.19966 0.0
H3541 H 0.79742 0.16071 0.30785 0.0
H3542 H 0.79917 0.19142 0.32308 0.0
H3543 H 0.8221 0.1846 0.30385 0.0
C3544 C 0.72836 0.10563 1.00047 0.0
C3545 C 0.73418 0.13139 0.00674 0.0
C3546 C 0.70448 0.09307 1.00041 0.0
C3547 C 0.6861 0.10652 0.0072 0.0
C3548 C 0.69185 0.13259 0.01321 0.0
C3549 C 0.71576 0.14472 0.01272 0.0
C3550 C 0.699 0.06535 0.9935 0.0
C3551 C 0.67289 0.14758 0.02086 0.0
C3552 C 0.61902 0.08007 0.99197 0.0
C3553 C 0.61313 0.07082 0.01432 0.0
C3554 C 0.64288 0.09107 0.9891 0.0
C3555 C 0.6611 0.09326 0.00921 0.0
C3556 C 0.65522 0.08362 0.03172 0.0
C3557 C 0.63135 0.0723 0.03391 0.0
C3558 C 0.64851 0.10065 0.96466 0.0
C3559 C 0.67399 0.08586 0.05372 0.0
H3560 H 0.7425 0.09526 0.99571 0.0
H3561 H 0.72016 0.16461 0.01766 0.0
H3562 H 0.6934 0.05544 0.00963 0.0
H3563 H 0.68366 0.061 0.97876 0.0
H3564 H 0.71489 0.05793 0.98703 0.0
H3565 H 0.68016 0.16779 0.0244 0.0
H3566 H 0.65736 0.14516 0.00635 0.0
H3567 H 0.66577 0.14072 0.03785 0.0
H3568 H 0.60497 0.07874 0.97674 0.0
H3569 H 0.62681 0.06518 0.05123 0.0
H3570 H 0.66407 0.09275 0.95808 0.0
H3571 H 0.65384 0.12121 0.96688 0.0
H3572 H 0.63278 0.0959 0.95036 0.0
H3573 H 0.68964 0.07703 0.04887 0.0
H3574 H 0.66659 0.07701 0.06975 0.0
H3575 H 0.68096 0.10582 0.0593 0.0
C3576 C 0.15167 0.40336 0.26829 0.0
C3577 C 0.16206 0.42657 0.28045 0.0
C3578 C 0.16552 0.38407 0.26524 0.0
C3579 C 0.1904 0.38808 0.27447 0.0
C3580 C 0.2008 0.41133 0.28714 0.0
C3581 C 0.18656 0.43021 0.28995 0.0
C3582 C 0.15365 0.35964 0.25156 0.0
C3583 C 0.22718 0.41646 0.29736 0.0
C3584 C 0.22516 0.33402 0.28496 0.0
C3585 C 0.23818 0.33377 0.26431 0.0
C3586 C 0.20891 0.35099 0.28811 0.0
C3587 C 0.20589 0.36841 0.27037 0.0
C3588 C 0.21877 0.36792 0.24928 0.0
C3589 C 0.23474 0.35064 0.24654 0.0
C3590 C 0.19542 0.3506 0.31074 0.0
C3591 C 0.21592 0.38587 0.22975 0.0
H3592 H 0.13278 0.40037 0.26082 0.0
H3593 H 0.19478 0.44804 0.29941 0.0
H3594 H 0.1596 0.35861 0.23279 0.0
H3595 H 0.15918 0.34364 0.26091 0.0
H3596 H 0.13355 0.35766 0.24981 0.0
H3597 H 0.23241 0.43528 0.30722 0.0
H3598 H 0.23101 0.40233 0.31026 0.0
H3599 H 0.23881 0.41494 0.28217 0.0
H3600 H 0.22785 0.32109 0.29882 0.0
H3601 H 0.2446 0.35036 0.23041 0.0
H3602 H 0.1761 0.3521 0.30586 0.0
H3603 H 0.20346 0.36688 0.32374 0.0
H3604 H 0.19632 0.33334 0.32031 0.0
H3605 H 0.19666 0.38353 0.22198 0.0
H3606 H 0.22721 0.3831 0.21447 0.0
H3607 H 0.22108 0.40534 0.238 0.0
C3608 C 0.21739 0.4808 0.01139 0.0
C3609 C 0.21923 0.47145 0.03465 0.0
C3610 C 0.19841 0.49359 0.00416 0.0
C3611 C 0.18083 0.49676 0.02051 0.0
C3612 C 0.18348 0.48869 0.04456 0.0
C3613 C 0.20276 0.47621 0.05138 0.0
C3614 C 0.19636 0.50232 0.97854 0.0
C3615 C 0.16505 0.49173 0.06252 0.0
C3616 C 0.13271 0.53792 0.01205 0.0
C3617 C 0.11236 0.52004 0.0038 0.0
C3618 C 0.15573 0.53096 0.01602 0.0
C3619 C 0.15812 0.50559 0.01176 0.0
C3620 C 0.13785 0.48788 1.00166 0.0
C3621 C 0.11519 0.49538 0.99771 0.0
C3622 C 0.17706 0.55039 0.02634 0.0
C3623 C 0.13967 0.46064 0.99675 0.0
H3624 H 0.23027 0.47733 0.99848 0.0
H3625 H 0.20423 0.46911 0.06941 0.0
H3626 H 0.18148 0.48988 0.96693 0.0
H3627 H 0.19182 0.52144 0.97897 0.0
H3628 H 0.21339 0.50216 0.9697 0.0
H3629 H 0.17083 0.48634 0.08112 0.0
H3630 H 0.16186 0.51133 0.06423 0.0
H3631 H 0.14748 0.47992 0.05559 0.0
H3632 H 0.13048 0.55703 0.01664 0.0
H3633 H 0.09942 0.48161 0.9911 0.0
H3634 H 0.19333 0.54812 0.01687 0.0
H3635 H 0.18152 0.54804 0.04614 0.0
H3636 H 0.17317 0.56962 0.02459 0.0
H3637 H 0.15491 0.45851 0.98568 0.0
H3638 H 0.12273 0.44977 0.98688 0.0
H3639 H 0.14342 0.45247 0.01449 0.0
C3640 C 0.85299 0.96384 0.25593 0.0
C3641 C 0.83891 0.98164 0.24831 0.0
C3642 C 0.84234 0.93904 0.25798 0.0
C3643 C 0.81696 0.93182 0.2524 0.0
C3644 C 0.80268 0.94967 0.24448 0.0
C3645 C 0.81383 0.97434 0.24246 0.0
C3646 C 0.85827 0.92058 0.26631 0.0
C3647 C 0.77557 0.94278 0.23841 0.0
C3648 C 0.79333 0.86253 0.23767 0.0
C3649 C 0.78603 0.85521 0.26036 0.0
C3650 C 0.80303 0.88742 0.23473 0.0
C3651 C 0.80543 0.90559 0.2549 0.0
C3652 C 0.79756 0.89849 0.27767 0.0
C3653 C 0.78803 0.87342 0.28014 0.0
C3654 C 0.81127 0.89414 0.21017 0.0
C3655 C 0.79965 0.91731 0.29958 0.0
H3656 H 0.87238 0.96932 0.2605 0.0
H3657 H 0.80281 0.98801 0.23665 0.0
H3658 H 0.85254 0.91311 0.2836 0.0
H3659 H 0.85625 0.90456 0.25227 0.0
H3660 H 0.87774 0.92903 0.26955 0.0
H3661 H 0.76705 0.95876 0.23231 0.0
H3662 H 0.77136 0.92735 0.22364 0.0
H3663 H 0.76718 0.936 0.25481 0.0
H3664 H 0.79196 0.84872 0.22222 0.0
H3665 H 0.78243 0.86807 0.29773 0.0
H3666 H 0.83108 0.90102 0.21233 0.0
H3667 H 0.8022 0.90943 0.20333 0.0
H3668 H 0.80737 0.87804 0.19606 0.0
H3669 H 0.81901 0.92505 0.30512 0.0
H3670 H 0.79173 0.90908 0.31565 0.0
H3671 H 0.79034 0.93312 0.29464 0.0
C3672 C 0.66402 0.07034 0.76424 0.0
C3673 C 0.67045 0.05296 0.7804 0.0
C3674 C 0.67819 0.09396 0.76444 0.0
C3675 C 0.69958 0.10027 0.78094 0.0
C3676 C 0.70661 0.0825 0.79677 0.0
C3677 C 0.69183 0.0591 0.79647 0.0
C3678 C 0.66984 0.11244 0.74749 0.0
C3679 C 0.7295 0.08837 0.8143 0.0
C3680 C 0.74262 0.15693 0.76551 0.0
C3681 C 0.73614 0.17587 0.78087 0.0
C3682 C 0.73174 0.13195 0.76616 0.0
C3683 C 0.71376 0.12593 0.78233 0.0
C3684 C 0.70789 0.14494 0.79854 0.0
C3685 C 0.71926 0.16965 0.7977 0.0
C3686 C 0.73879 0.11217 0.7489 0.0
C3687 C 0.68871 0.1394 0.81593 0.0
H3688 H 0.64748 0.06573 0.75183 0.0
H3689 H 0.69694 0.04568 0.80892 0.0
H3690 H 0.66628 0.12907 0.75853 0.0
H3691 H 0.68426 0.11891 0.73573 0.0
H3692 H 0.65307 0.10444 0.73539 0.0
H3693 H 0.73336 0.07195 0.82407 0.0
H3694 H 0.7452 0.09502 0.80418 0.0
H3695 H 0.72785 0.10362 0.8282 0.0
H3696 H 0.75576 0.1617 0.75254 0.0
H3697 H 0.71427 0.18426 0.80967 0.0
H3698 H 0.72342 0.10511 0.73471 0.0
H3699 H 0.74286 0.09612 0.7591 0.0
H3700 H 0.75484 0.11938 0.73947 0.0
H3701 H 0.6708 0.13311 0.80519 0.0
H3702 H 0.6874 0.15594 0.82844 0.0
H3703 H 0.69263 0.12407 0.82726 0.0
loop_
_geom_bond_atom_site_label_1
_geom_bond_atom_site_label_2
_geom_bond_distance
_geom_bond_site_symmetry_2
_ccdc_geom_bond_type
In0 O1 2.294 . S
In0 O2 2.326 . S
In0 O6 2.266 1_455 S
In0 O7 2.326 1_455 S
In0 O8 2.266 . S
In0 O9 2.326 . S
In0 O11 2.294 . S
In0 O12 2.326 . S
O1 In0 2.294 . S
O1 C10 1.240 . S
O2 In0 2.326 . S
O2 C10 1.252 . S
C3 O6 1.252 . S
C3 O7 1.260 . S
C4 O11 1.240 . S
C4 O12 1.252 . S
C5 O8 1.252 . S
C5 O9 1.260 . S
O6 In0 2.266 1_655 S
O6 C3 1.252 . S
O7 In0 2.326 1_655 S
O7 C3 1.260 . S
O8 In0 2.266 . S
O8 C5 1.252 . S
O9 In0 2.326 . S
O9 C5 1.260 . S
C10 O1 1.240 . S
C10 O2 1.252 . S
O11 In0 2.294 . S
O11 C4 1.240 . S
O12 In0 2.326 . S
O12 C4 1.252 . S
In13 O14 2.294 . S
In13 O15 2.326 . S
In13 O19 2.266 1_455 S
In13 O20 2.325 . S
In13 O21 2.266 1_455 S
In13 O22 2.326 1_455 S
In13 O24 2.294 . S
In13 O25 2.326 . S
O14 In13 2.294 . S
O14 C23 1.240 . S
O15 In13 2.326 . S
O15 C23 1.252 . S
C16 O19 1.252 . S
C16 O20 1.259 1_655 S
C17 O24 1.240 . S
C17 O25 1.252 . S
C18 O21 1.252 . S
C18 O22 1.260 . S
O19 In13 2.266 1_655 S
O19 C16 1.252 . S
O20 In13 2.325 . S
O20 C16 1.259 1_455 S
O21 In13 2.266 1_655 S
O21 C18 1.252 . S
O22 In13 2.326 1_655 S
O22 C18 1.260 . S
C23 O14 1.240 . S
C23 O15 1.252 . S
O24 In13 2.294 . S
O24 C17 1.240 . S
O25 In13 2.326 . S
O25 C17 1.252 . S
In26 O27 2.294 . S
In26 O28 2.326 . S
In26 O32 2.266 . S
In26 O33 2.326 . S
In26 O34 2.266 . S
In26 O35 2.326 . S
In26 O37 2.294 . S
In26 O38 2.326 . S
O27 In26 2.294 . S
O27 C36 1.240 . S
O28 In26 2.326 . S
O28 C36 1.252 . S
C29 O32 1.252 . S
C29 O33 1.260 . S
C30 O37 1.240 . S
C30 O38 1.252 . S
C31 O34 1.252 . S
C31 O35 1.260 . S
O32 In26 2.266 . S
O32 C29 1.252 . S
O33 In26 2.326 . S
O33 C29 1.260 . S
O34 In26 2.266 . S
O34 C31 1.252 . S
O35 In26 2.326 . S
O35 C31 1.260 . S
C36 O27 1.240 . S
C36 O28 1.252 . S
O37 In26 2.294 . S
O37 C30 1.240 . S
O38 In26 2.326 . S
O38 C30 1.252 . S
In39 O40 2.294 . S
In39 O41 2.326 . S
In39 O45 2.266 . S
In39 O46 2.326 . S
In39 O47 2.266 . S
In39 O48 2.326 . S
In39 O50 2.294 . S
In39 O51 2.326 . S
O40 In39 2.294 . S
O40 C49 1.240 . S
O41 In39 2.326 . S
O41 C49 1.252 . S
C42 O45 1.252 . S
C42 O46 1.260 . S
C43 O50 1.240 . S
C43 O51 1.252 . S
C44 O47 1.252 . S
C44 O48 1.260 . S
O45 In39 2.266 . S
O45 C42 1.252 . S
O46 In39 2.326 . S
O46 C42 1.260 . S
O47 In39 2.266 . S
O47 C44 1.252 . S
O48 In39 2.326 . S
O48 C44 1.260 . S
C49 O40 1.240 . S
C49 O41 1.252 . S
O50 In39 2.294 . S
O50 C43 1.240 . S
O51 In39 2.326 . S
O51 C43 1.252 . S
In52 O53 2.294 . S
In52 O54 2.326 . S
In52 O58 2.266 . S
In52 O59 2.326 . S
In52 O60 2.266 . S
In52 O61 2.326 . S
In52 O63 2.294 1_455 S
In52 O64 2.326 1_455 S
O53 In52 2.294 . S
O53 C62 1.240 . S
O54 In52 2.326 . S
O54 C62 1.252 . S
C55 O58 1.252 . S
C55 O59 1.260 . S
C56 O63 1.240 . S
C56 O64 1.252 . S
C57 O60 1.252 . S
C57 O61 1.260 . S
O58 In52 2.266 . S
O58 C55 1.252 . S
O59 In52 2.326 . S
O59 C55 1.260 . S
O60 In52 2.266 . S
O60 C57 1.252 . S
O61 In52 2.326 . S
O61 C57 1.260 . S
C62 O53 1.240 . S
C62 O54 1.252 . S
O63 In52 2.294 1_655 S
O63 C56 1.240 . S
O64 In52 2.326 1_655 S
O64 C56 1.252 . S
In65 O66 2.294 . S
In65 O67 2.326 . S
In65 O71 2.266 . S
In65 O72 2.326 . S
In65 O73 2.266 . S
In65 O74 2.326 . S
In65 O76 2.294 . S
In65 O77 2.326 . S
O66 In65 2.294 . S
O66 C75 1.240 . S
O67 In65 2.326 . S
O67 C75 1.252 . S
C68 O71 1.252 . S
C68 O72 1.260 . S
C69 O76 1.240 . S
C69 O77 1.252 . S
C70 O73 1.252 . S
C70 O74 1.260 . S
O71 In65 2.266 . S
O71 C68 1.252 . S
O72 In65 2.326 . S
O72 C68 1.260 . S
O73 In65 2.266 . S
O73 C70 1.252 . S
O74 In65 2.326 . S
O74 C70 1.260 . S
C75 O66 1.240 . S
C75 O67 1.252 . S
O76 In65 2.294 . S
O76 C69 1.240 . S
O77 In65 2.326 . S
O77 C69 1.252 . S
In78 O79 2.294 . S
In78 O80 2.326 . S
In78 O84 2.266 . S
In78 O85 2.326 . S
In78 O86 2.266 . S
In78 O87 2.326 . S
In78 O89 2.294 . S
In78 O90 2.326 . S
O79 In78 2.294 . S
O79 C88 1.240 . S
O80 In78 2.326 . S
O80 C88 1.252 . S
C81 O84 1.252 . S
C81 O85 1.260 . S
C82 O89 1.240 . S
C82 O90 1.252 . S
C83 O86 1.252 . S
C83 O87 1.260 . S
O84 In78 2.266 . S
O84 C81 1.252 . S
O85 In78 2.326 . S
O85 C81 1.260 . S
O86 In78 2.266 . S
O86 C83 1.252 . S
O87 In78 2.326 . S
O87 C83 1.260 . S
C88 O79 1.240 . S
C88 O80 1.252 . S
O89 In78 2.294 . S
O89 C82 1.240 . S
O90 In78 2.326 . S
O90 C82 1.252 . S
In91 O92 2.294 . S
In91 O93 2.326 . S
In91 O97 2.266 . S
In91 O98 2.326 . S
In91 O99 2.266 1_455 S
In91 O100 2.326 1_455 S
In91 O102 2.294 . S
In91 O103 2.326 . S
O92 In91 2.294 . S
O92 C101 1.240 . S
O93 In91 2.326 . S
O93 C101 1.252 . S
C94 O97 1.252 . S
C94 O98 1.260 . S
C95 O102 1.240 . S
C95 O103 1.252 . S
C96 O99 1.252 . S
C96 O100 1.260 . S
O97 In91 2.266 . S
O97 C94 1.252 . S
O98 In91 2.326 . S
O98 C94 1.260 . S
O99 In91 2.266 1_655 S
O99 C96 1.252 . S
O100 In91 2.326 1_655 S
O100 C96 1.260 . S
C101 O92 1.240 . S
C101 O93 1.252 . S
O102 In91 2.294 . S
O102 C95 1.240 . S
O103 In91 2.326 . S
O103 C95 1.252 . S
In104 O105 2.294 . S
In104 O106 2.326 . S
In104 O110 2.266 . S
In104 O111 2.326 . S
In104 O112 2.266 . S
In104 O113 2.326 . S
In104 O115 2.294 . S
In104 O116 2.326 . S
O105 In104 2.294 . S
O105 C114 1.240 . S
O106 In104 2.326 . S
O106 C114 1.252 . S
C107 O110 1.252 . S
C107 O111 1.260 . S
C108 O115 1.240 . S
C108 O116 1.252 . S
C109 O112 1.252 1_565 S
C109 O113 1.260 1_565 S
O110 In104 2.266 . S
O110 C107 1.252 . S
O111 In104 2.326 . S
O111 C107 1.260 . S
O112 In104 2.266 . S
O112 C109 1.252 1_545 S
O113 In104 2.326 . S
O113 C109 1.260 1_545 S
C114 O105 1.240 . S
C114 O106 1.252 . S
O115 In104 2.294 . S
O115 C108 1.240 . S
O116 In104 2.326 . S
O116 C108 1.252 . S
In117 O118 2.294 . S
In117 O119 2.326 . S
In117 O123 2.266 . S
In117 O124 2.326 . S
In117 O125 2.266 . S
In117 O126 2.326 . S
In117 O128 2.294 . S
In117 O129 2.326 . S
O118 In117 2.294 . S
O118 C127 1.240 . S
O119 In117 2.326 . S
O119 C127 1.252 . S
C120 O123 1.252 . S
C120 O124 1.260 . S
C121 O128 1.240 . S
C121 O129 1.252 . S
C122 O125 1.252 . S
C122 O126 1.260 . S
O123 In117 2.266 . S
O123 C120 1.252 . S
O124 In117 2.326 . S
O124 C120 1.260 . S
O125 In117 2.266 . S
O125 C122 1.252 . S
O126 In117 2.326 . S
O126 C122 1.260 . S
C127 O118 1.240 . S
C127 O119 1.252 . S
O128 In117 2.294 . S
O128 C121 1.240 . S
O129 In117 2.326 . S
O129 C121 1.252 . S
In130 O131 2.294 1_545 S
In130 O132 2.326 1_545 S
In130 O136 2.266 . S
In130 O137 2.325 . S
In130 O138 2.264 . S
In130 O139 2.322 . S
In130 O141 2.296 1_545 S
In130 O142 2.330 1_545 S
O131 In130 2.294 1_565 S
O131 C140 1.240 . S
O132 In130 2.326 1_565 S
O132 C140 1.252 . S
C133 O136 1.252 . S
C133 O137 1.260 . S
C134 O141 1.240 . S
C134 O142 1.252 . S
C135 O138 1.252 . S
C135 O139 1.260 . S
O136 In130 2.266 . S
O136 C133 1.252 . S
O137 In130 2.325 . S
O137 C133 1.260 . S
O138 In130 2.264 . S
O138 C135 1.252 . S
O139 In130 2.322 . S
O139 C135 1.260 . S
C140 O131 1.240 . S
C140 O132 1.252 . S
O141 In130 2.296 1_565 S
O141 C134 1.240 . S
O142 In130 2.330 1_565 S
O142 C134 1.252 . S
In143 O144 2.294 . S
In143 O145 2.326 . S
In143 O149 2.266 . S
In143 O150 2.326 1_554 S
In143 O151 2.266 . S
In143 O152 2.326 . S
In143 O154 2.294 . S
In143 O155 2.326 . S
O144 In143 2.294 . S
O144 C153 1.240 . S
O145 In143 2.326 . S
O145 C153 1.252 . S
C146 O149 1.252 1_556 S
C146 O150 1.260 . S
C147 O154 1.240 . S
C147 O155 1.252 . S
C148 O151 1.252 . S
C148 O152 1.260 . S
O149 In143 2.266 . S
O149 C146 1.252 1_554 S
O150 In143 2.326 1_556 S
O150 C146 1.260 . S
O151 In143 2.266 . S
O151 C148 1.252 . S
O152 In143 2.326 . S
O152 C148 1.260 . S
C153 O144 1.240 . S
C153 O145 1.252 . S
O154 In143 2.294 . S
O154 C147 1.240 . S
O155 In143 2.326 . S
O155 C147 1.252 . S
In156 O157 2.294 . S
In156 O158 2.326 . S
In156 O162 2.266 . S
In156 O163 2.326 1_554 S
In156 O164 2.266 . S
In156 O165 2.326 . S
In156 O167 2.294 . S
In156 O168 2.326 . S
O157 In156 2.294 . S
O157 C166 1.240 . S
O158 In156 2.326 . S
O158 C166 1.252 . S
C159 O162 1.252 1_556 S
C159 O163 1.260 . S
C160 O167 1.240 . S
C160 O168 1.252 . S
C161 O164 1.252 . S
C161 O165 1.260 . S
O162 In156 2.266 . S
O162 C159 1.252 1_554 S
O163 In156 2.326 1_556 S
O163 C159 1.260 . S
O164 In156 2.266 . S
O164 C161 1.252 . S
O165 In156 2.326 . S
O165 C161 1.260 . S
C166 O157 1.240 . S
C166 O158 1.252 . S
O167 In156 2.294 . S
O167 C160 1.240 . S
O168 In156 2.326 . S
O168 C160 1.252 . S
In169 O170 2.294 . S
In169 O171 2.326 . S
In169 O175 2.266 1_554 S
In169 O176 2.326 . S
In169 O177 2.266 1_554 S
In169 O178 2.326 1_554 S
In169 O180 2.294 . S
In169 O181 2.326 . S
O170 In169 2.294 . S
O170 C179 1.240 . S
O171 In169 2.326 . S
O171 C179 1.252 . S
C172 O175 1.252 . S
C172 O176 1.258 1_556 S
C173 O180 1.240 . S
C173 O181 1.252 . S
C174 O177 1.252 . S
C174 O178 1.260 . S
O175 In169 2.266 1_556 S
O175 C172 1.252 . S
O176 In169 2.326 . S
O176 C172 1.258 1_554 S
O177 In169 2.266 1_556 S
O177 C174 1.252 . S
O178 In169 2.326 1_556 S
O178 C174 1.260 . S
C179 O170 1.240 . S
C179 O171 1.252 . S
O180 In169 2.294 . S
O180 C173 1.240 . S
O181 In169 2.326 . S
O181 C173 1.252 . S
In182 O183 2.294 . S
In182 O184 2.326 . S
In182 O188 2.266 . S
In182 O189 2.326 . S
In182 O190 2.266 . S
In182 O191 2.326 . S
In182 O193 2.294 . S
In182 O194 2.326 . S
O183 In182 2.294 . S
O183 C192 1.240 . S
O184 In182 2.326 . S
O184 C192 1.252 . S
C185 O188 1.252 . S
C185 O189 1.260 . S
C186 O193 1.240 . S
C186 O194 1.252 . S
C187 O190 1.252 . S
C187 O191 1.260 . S
O188 In182 2.266 . S
O188 C185 1.252 . S
O189 In182 2.326 . S
O189 C185 1.260 . S
O190 In182 2.266 . S
O190 C187 1.252 . S
O191 In182 2.326 . S
O191 C187 1.260 . S
C192 O183 1.240 . S
C192 O184 1.252 . S
O193 In182 2.294 . S
O193 C186 1.240 . S
O194 In182 2.326 . S
O194 C186 1.252 . S
In195 O196 2.294 . S
In195 O197 2.326 . S
In195 O201 2.266 . S
In195 O202 2.326 . S
In195 O203 2.266 . S
In195 O204 2.326 . S
In195 O206 2.294 . S
In195 O207 2.326 . S
O196 In195 2.294 . S
O196 C205 1.240 . S
O197 In195 2.326 . S
O197 C205 1.252 . S
C198 O201 1.252 . S
C198 O202 1.260 . S
C199 O206 1.240 . S
C199 O207 1.252 . S
C200 O203 1.252 . S
C200 O204 1.260 . S
O201 In195 2.266 . S
O201 C198 1.252 . S
O202 In195 2.326 . S
O202 C198 1.260 . S
O203 In195 2.266 . S
O203 C200 1.252 . S
O204 In195 2.326 . S
O204 C200 1.260 . S
C205 O196 1.240 . S
C205 O197 1.252 . S
O206 In195 2.294 . S
O206 C199 1.240 . S
O207 In195 2.326 . S
O207 C199 1.252 . S
In208 O209 2.294 . S
In208 O210 2.326 . S
In208 O214 2.266 . S
In208 O215 2.326 . S
In208 O216 2.266 . S
In208 O217 2.326 . S
In208 O219 2.294 . S
In208 O220 2.326 . S
O209 In208 2.294 . S
O209 C218 1.240 . S
O210 In208 2.326 . S
O210 C218 1.252 . S
C211 O214 1.252 . S
C211 O215 1.260 . S
C212 O219 1.240 . S
C212 O220 1.252 . S
C213 O216 1.252 . S
C213 O217 1.260 . S
O214 In208 2.266 . S
O214 C211 1.252 . S
O215 In208 2.326 . S
O215 C211 1.260 . S
O216 In208 2.266 . S
O216 C213 1.252 . S
O217 In208 2.326 . S
O217 C213 1.260 . S
C218 O209 1.240 . S
C218 O210 1.252 . S
O219 In208 2.294 . S
O219 C212 1.240 . S
O220 In208 2.326 . S
O220 C212 1.252 . S
In221 O222 2.294 . S
In221 O223 2.326 . S
In221 O227 2.266 . S
In221 O228 2.326 . S
In221 O229 2.266 . S
In221 O230 2.326 . S
In221 O232 2.294 . S
In221 O233 2.326 . S
O222 In221 2.294 . S
O222 C231 1.240 . S
O223 In221 2.326 . S
O223 C231 1.252 . S
C224 O227 1.252 . S
C224 O228 1.260 . S
C225 O232 1.240 . S
C225 O233 1.252 . S
C226 O229 1.252 . S
C226 O230 1.260 . S
O227 In221 2.266 . S
O227 C224 1.252 . S
O228 In221 2.326 . S
O228 C224 1.260 . S
O229 In221 2.266 . S
O229 C226 1.252 . S
O230 In221 2.326 . S
O230 C226 1.260 . S
C231 O222 1.240 . S
C231 O223 1.252 . S
O232 In221 2.294 . S
O232 C225 1.240 . S
O233 In221 2.326 . S
O233 C225 1.252 . S
In234 O235 2.294 . S
In234 O236 2.326 . S
In234 O240 2.266 . S
In234 O241 2.326 . S
In234 O242 2.266 . S
In234 O243 2.326 . S
In234 O245 2.294 . S
In234 O246 2.326 . S
O235 In234 2.294 . S
O235 C244 1.240 . S
O236 In234 2.326 . S
O236 C244 1.252 . S
C237 O240 1.252 . S
C237 O241 1.260 . S
C238 O245 1.240 . S
C238 O246 1.252 . S
C239 O242 1.252 . S
C239 O243 1.260 . S
O240 In234 2.266 . S
O240 C237 1.252 . S
O241 In234 2.326 . S
O241 C237 1.260 . S
O242 In234 2.266 . S
O242 C239 1.252 . S
O243 In234 2.326 . S
O243 C239 1.260 . S
C244 O235 1.240 . S
C244 O236 1.252 . S
O245 In234 2.294 . S
O245 C238 1.240 . S
O246 In234 2.326 . S
O246 C238 1.252 . S
In247 O248 2.294 1_545 S
In247 O249 2.326 1_545 S
In247 O253 2.266 . S
In247 O254 2.326 . S
In247 O255 2.266 . S
In247 O256 2.326 . S
In247 O258 2.294 . S
In247 O259 2.326 . S
O248 In247 2.294 1_565 S
O248 C257 1.240 . S
O249 In247 2.326 1_565 S
O249 C257 1.252 . S
C250 O253 1.252 . S
C250 O254 1.260 . S
C251 O258 1.241 . S
C251 O259 1.253 . S
C252 O255 1.252 . S
C252 O256 1.260 . S
O253 In247 2.266 . S
O253 C250 1.252 . S
O254 In247 2.326 . S
O254 C250 1.260 . S
O255 In247 2.266 . S
O255 C252 1.252 . S
O256 In247 2.326 . S
O256 C252 1.260 . S
C257 O248 1.240 . S
C257 O249 1.252 . S
O258 In247 2.294 . S
O258 C251 1.241 . S
O259 In247 2.326 . S
O259 C251 1.253 . S
In260 O261 2.294 . S
In260 O262 2.326 . S
In260 O266 2.266 1_554 S
In260 O267 2.326 . S
In260 O268 2.266 1_554 S
In260 O269 2.326 1_554 S
In260 O271 2.294 . S
In260 O272 2.326 . S
O261 In260 2.294 . S
O261 C270 1.240 . S
O262 In260 2.326 . S
O262 C270 1.252 . S
C263 O266 1.252 . S
C263 O267 1.260 1_556 S
C264 O271 1.240 . S
C264 O272 1.252 . S
C265 O268 1.252 . S
C265 O269 1.260 . S
O266 In260 2.266 1_556 S
O266 C263 1.252 . S
O267 In260 2.326 . S
O267 C263 1.260 1_554 S
O268 In260 2.266 1_556 S
O268 C265 1.252 . S
O269 In260 2.326 1_556 S
O269 C265 1.260 . S
C270 O261 1.240 . S
C270 O262 1.252 . S
O271 In260 2.294 . S
O271 C264 1.240 . S
O272 In260 2.326 . S
O272 C264 1.252 . S
In273 O274 2.294 . S
In273 O275 2.326 . S
In273 O279 2.266 . S
In273 O280 2.326 . S
In273 O281 2.266 . S
In273 O282 2.326 . S
In273 O284 2.294 . S
In273 O285 2.326 . S
O274 In273 2.294 . S
O274 C283 1.240 . S
O275 In273 2.326 . S
O275 C283 1.252 . S
C276 O279 1.252 . S
C276 O280 1.260 . S
C277 O284 1.240 . S
C277 O285 1.252 . S
C278 O281 1.252 . S
C278 O282 1.260 . S
O279 In273 2.266 . S
O279 C276 1.252 . S
O280 In273 2.326 . S
O280 C276 1.260 . S
O281 In273 2.266 . S
O281 C278 1.252 . S
O282 In273 2.326 . S
O282 C278 1.260 . S
C283 O274 1.240 . S
C283 O275 1.252 . S
O284 In273 2.294 . S
O284 C277 1.240 . S
O285 In273 2.326 . S
O285 C277 1.252 . S
In286 O287 2.294 . S
In286 O288 2.326 . S
In286 O292 2.266 . S
In286 O293 2.326 . S
In286 O294 2.266 . S
In286 O295 2.326 . S
In286 O297 2.294 . S
In286 O298 2.326 . S
O287 In286 2.294 . S
O287 C296 1.240 . S
O288 In286 2.326 . S
O288 C296 1.252 . S
C289 O292 1.252 . S
C289 O293 1.260 . S
C290 O297 1.240 . S
C290 O298 1.252 . S
C291 O294 1.252 . S
C291 O295 1.260 . S
O292 In286 2.266 . S
O292 C289 1.252 . S
O293 In286 2.326 . S
O293 C289 1.260 . S
O294 In286 2.266 . S
O294 C291 1.252 . S
O295 In286 2.326 . S
O295 C291 1.260 . S
C296 O287 1.240 . S
C296 O288 1.252 . S
O297 In286 2.294 . S
O297 C290 1.240 . S
O298 In286 2.326 . S
O298 C290 1.252 . S
In299 O300 2.294 . S
In299 O301 2.326 . S
In299 O305 2.266 . S
In299 O306 2.326 . S
In299 O307 2.266 . S
In299 O308 2.326 . S
In299 O310 2.294 . S
In299 O311 2.326 . S
O300 In299 2.294 . S
O300 C309 1.240 . S
O301 In299 2.326 . S
O301 C309 1.252 . S
C302 O305 1.252 . S
C302 O306 1.260 . S
C303 O310 1.240 . S
C303 O311 1.252 . S
C304 O307 1.252 . S
C304 O308 1.260 . S
O305 In299 2.266 . S
O305 C302 1.252 . S
O306 In299 2.326 . S
O306 C302 1.260 . S
O307 In299 2.266 . S
O307 C304 1.252 . S
O308 In299 2.326 . S
O308 C304 1.260 . S
C309 O300 1.240 . S
C309 O301 1.252 . S
O310 In299 2.294 . S
O310 C303 1.240 . S
O311 In299 2.326 . S
O311 C303 1.252 . S
Tb312 O315 2.453 . S
Tb312 O316 2.596 . S
Tb312 O317 2.374 1_554 S
Tb312 O325 2.343 . S
Tb312 O327 2.353 . S
Tb312 O329 2.427 . S
Tb312 O330 2.513 . S
C313 O317 1.251 . S
C313 O319 1.263 . S
Tb314 O316 2.343 . S
Tb314 O319 2.353 1_554 S
Tb314 O322 2.427 1_545 S
Tb314 O323 2.513 1_545 S
Tb314 O324 2.453 1_455 S
Tb314 O325 2.596 . S
Tb314 O326 2.374 . S
O315 Tb312 2.453 . S
O315 C331 1.245 . S
O316 Tb312 2.596 . S
O316 Tb314 2.343 . S
O316 C331 1.259 . S
O317 Tb312 2.374 1_556 S
O317 C313 1.251 . S
C318 O322 1.275 . S
C318 O323 1.246 . S
O319 C313 1.263 . S
O319 Tb314 2.353 1_556 S
C320 O324 1.245 . S
C320 O325 1.259 1_655 S
C321 O326 1.250 . S
C321 O327 1.263 . S
O322 Tb314 2.427 1_565 S
O322 C318 1.275 . S
O323 Tb314 2.513 1_565 S
O323 C318 1.246 . S
O324 Tb314 2.453 1_655 S
O324 C320 1.245 . S
O325 Tb312 2.343 . S
O325 Tb314 2.596 . S
O325 C320 1.259 1_455 S
O326 Tb314 2.374 . S
O326 C321 1.250 . S
O327 Tb312 2.353 . S
O327 C321 1.263 . S
C328 O329 1.275 . S
C328 O330 1.246 . S
O329 Tb312 2.427 . S
O329 C328 1.275 . S
O330 Tb312 2.513 . S
O330 C328 1.246 . S
C331 O315 1.245 . S
C331 O316 1.259 . S
Tb332 O335 2.453 . S
Tb332 O336 2.596 . S
Tb332 O337 2.374 . S
Tb332 O345 2.343 . S
Tb332 O347 2.353 . S
Tb332 O349 2.427 . S
Tb332 O350 2.513 . S
C333 O337 1.251 . S
C333 O339 1.263 . S
Tb334 O336 2.343 . S
Tb334 O339 2.353 . S
Tb334 O342 2.427 . S
Tb334 O343 2.513 . S
Tb334 O344 2.453 . S
Tb334 O345 2.596 . S
Tb334 O346 2.374 . S
O335 Tb332 2.453 . S
O335 C351 1.245 . S
O336 Tb332 2.596 . S
O336 Tb334 2.343 . S
O336 C351 1.259 . S
O337 Tb332 2.374 . S
O337 C333 1.251 . S
C338 O342 1.275 . S
C338 O343 1.246 . S
O339 C333 1.263 . S
O339 Tb334 2.353 . S
C340 O344 1.245 . S
C340 O345 1.259 . S
C341 O346 1.250 . S
C341 O347 1.263 . S
O342 Tb334 2.427 . S
O342 C338 1.275 . S
O343 Tb334 2.513 . S
O343 C338 1.246 . S
O344 Tb334 2.453 . S
O344 C340 1.245 . S
O345 Tb332 2.343 . S
O345 Tb334 2.596 . S
O345 C340 1.259 . S
O346 Tb334 2.374 . S
O346 C341 1.250 . S
O347 Tb332 2.353 . S
O347 C341 1.263 . S
C348 O349 1.275 . S
C348 O350 1.246 . S
O349 Tb332 2.427 . S
O349 C348 1.275 . S
O350 Tb332 2.513 . S
O350 C348 1.246 . S
C351 O335 1.245 . S
C351 O336 1.259 . S
Tb352 O355 2.453 . S
Tb352 O356 2.596 . S
Tb352 O357 2.374 . S
Tb352 O365 2.343 1_545 S
Tb352 O367 2.353 . S
Tb352 O369 2.427 . S
Tb352 O370 2.513 1_545 S
C353 O357 1.251 . S
C353 O359 1.263 . S
Tb354 O356 2.343 . S
Tb354 O359 2.353 . S
Tb354 O362 2.427 . S
Tb354 O363 2.513 . S
Tb354 O364 2.453 1_545 S
Tb354 O365 2.596 1_545 S
Tb354 O366 2.374 . S
O355 Tb352 2.453 . S
O355 C371 1.245 . S
O356 Tb352 2.596 . S
O356 Tb354 2.343 . S
O356 C371 1.259 . S
O357 Tb352 2.374 . S
O357 C353 1.251 . S
C358 O362 1.275 . S
C358 O363 1.246 . S
O359 C353 1.263 . S
O359 Tb354 2.353 . S
C360 O364 1.245 . S
C360 O365 1.259 . S
C361 O366 1.250 . S
C361 O367 1.263 . S
O362 Tb354 2.427 . S
O362 C358 1.275 . S
O363 Tb354 2.513 . S
O363 C358 1.246 . S
O364 Tb354 2.453 1_565 S
O364 C360 1.245 . S
O365 Tb352 2.343 1_565 S
O365 Tb354 2.596 1_565 S
O365 C360 1.259 . S
O366 Tb354 2.374 . S
O366 C361 1.250 . S
O367 Tb352 2.353 . S
O367 C361 1.263 . S
C368 O369 1.275 1_565 S
C368 O370 1.246 . S
O369 Tb352 2.427 . S
O369 C368 1.275 1_545 S
O370 Tb352 2.513 1_565 S
O370 C368 1.246 . S
C371 O355 1.245 . S
C371 O356 1.259 . S
Tb372 O375 2.453 . S
Tb372 O376 2.596 . S
Tb372 O377 2.374 . S
Tb372 O385 2.343 . S
Tb372 O387 2.353 . S
Tb372 O389 2.427 . S
Tb372 O390 2.513 . S
C373 O377 1.251 . S
C373 O379 1.263 . S
Tb374 O376 2.343 . S
Tb374 O379 2.353 . S
Tb374 O382 2.427 . S
Tb374 O383 2.513 . S
Tb374 O384 2.453 . S
Tb374 O385 2.596 . S
Tb374 O386 2.374 . S
O375 Tb372 2.453 . S
O375 C391 1.245 . S
O376 Tb372 2.596 . S
O376 Tb374 2.343 . S
O376 C391 1.259 . S
O377 Tb372 2.374 . S
O377 C373 1.251 . S
C378 O382 1.275 . S
C378 O383 1.246 . S
O379 C373 1.263 . S
O379 Tb374 2.353 . S
C380 O384 1.245 . S
C380 O385 1.259 . S
C381 O386 1.250 . S
C381 O387 1.263 . S
O382 Tb374 2.427 . S
O382 C378 1.275 . S
O383 Tb374 2.513 . S
O383 C378 1.246 . S
O384 Tb374 2.453 . S
O384 C380 1.245 . S
O385 Tb372 2.343 . S
O385 Tb374 2.596 . S
O385 C380 1.259 . S
O386 Tb374 2.374 . S
O386 C381 1.250 . S
O387 Tb372 2.353 . S
O387 C381 1.263 . S
C388 O389 1.275 . S
C388 O390 1.246 . S
O389 Tb372 2.427 . S
O389 C388 1.275 . S
O390 Tb372 2.513 . S
O390 C388 1.246 . S
C391 O375 1.245 . S
C391 O376 1.259 . S
Tb392 O395 2.453 . S
Tb392 O396 2.596 . S
Tb392 O397 2.374 1_455 S
Tb392 O405 2.343 1_565 S
Tb392 O407 2.353 1_565 S
Tb392 O409 2.427 1_565 S
Tb392 O410 2.513 1_465 S
C393 O397 1.247 1_545 S
C393 O399 1.272 . S
Tb394 O396 2.343 1_545 S
Tb394 O399 2.353 1_455 S
Tb394 O402 2.427 . S
Tb394 O403 2.513 . S
Tb394 O404 2.453 . S
Tb394 O405 2.596 . S
Tb394 O406 2.374 . S
O395 Tb392 2.453 . S
O395 C411 1.245 . S
O396 Tb392 2.596 . S
O396 Tb394 2.343 1_565 S
O396 C411 1.259 . S
O397 Tb392 2.374 1_655 S
O397 C393 1.247 1_565 S
C398 O402 1.275 . S
C398 O403 1.246 . S
O399 C393 1.272 . S
O399 Tb394 2.353 1_655 S
C400 O404 1.245 . S
C400 O405 1.259 . S
C401 O406 1.250 . S
C401 O407 1.263 . S
O402 Tb394 2.427 . S
O402 C398 1.275 . S
O403 Tb394 2.513 . S
O403 C398 1.246 . S
O404 Tb394 2.453 . S
O404 C400 1.245 . S
O405 Tb392 2.343 1_545 S
O405 Tb394 2.596 . S
O405 C400 1.259 . S
O406 Tb394 2.374 . S
O406 C401 1.250 . S
O407 Tb392 2.353 1_545 S
O407 C401 1.263 . S
C408 O409 1.275 . S
C408 O410 1.246 1_455 S
O409 Tb392 2.427 1_545 S
O409 C408 1.275 . S
O410 Tb392 2.513 1_645 S
O410 C408 1.246 1_655 S
C411 O395 1.245 . S
C411 O396 1.259 . S
Tb412 O415 2.453 . S
Tb412 O416 2.596 . S
Tb412 O417 2.374 . S
Tb412 O425 2.343 . S
Tb412 O427 2.353 . S
Tb412 O429 2.427 . S
Tb412 O430 2.513 . S
C413 O417 1.251 . S
C413 O419 1.263 . S
Tb414 O416 2.343 . S
Tb414 O419 2.353 . S
Tb414 O422 2.427 . S
Tb414 O423 2.513 . S
Tb414 O424 2.453 . S
Tb414 O425 2.596 . S
Tb414 O426 2.374 . S
O415 Tb412 2.453 . S
O415 C431 1.245 . S
O416 Tb412 2.596 . S
O416 Tb414 2.343 . S
O416 C431 1.259 . S
O417 Tb412 2.374 . S
O417 C413 1.251 . S
C418 O422 1.275 . S
C418 O423 1.246 . S
O419 C413 1.263 . S
O419 Tb414 2.353 . S
C420 O424 1.245 . S
C420 O425 1.259 . S
C421 O426 1.250 . S
C421 O427 1.263 . S
O422 Tb414 2.427 . S
O422 C418 1.275 . S
O423 Tb414 2.513 . S
O423 C418 1.246 . S
O424 Tb414 2.453 . S
O424 C420 1.245 . S
O425 Tb412 2.343 . S
O425 Tb414 2.596 . S
O425 C420 1.259 . S
O426 Tb414 2.374 . S
O426 C421 1.250 . S
O427 Tb412 2.353 . S
O427 C421 1.263 . S
C428 O429 1.275 . S
C428 O430 1.246 . S
O429 Tb412 2.427 . S
O429 C428 1.275 . S
O430 Tb412 2.513 . S
O430 C428 1.246 . S
C431 O415 1.245 . S
C431 O416 1.259 . S
Tb432 O435 2.453 . S
Tb432 O436 2.596 . S
Tb432 O437 2.374 1_545 S
Tb432 O445 2.343 1_556 S
Tb432 O447 2.353 1_556 S
Tb432 O449 2.427 1_556 S
Tb432 O450 2.513 1_546 S
C433 O437 1.251 . S
C433 O439 1.263 1_556 S
Tb434 O436 2.343 1_554 S
Tb434 O439 2.353 1_545 S
Tb434 O442 2.427 . S
Tb434 O443 2.513 . S
Tb434 O444 2.453 . S
Tb434 O445 2.596 . S
Tb434 O446 2.374 . S
O435 Tb432 2.453 . S
O435 C451 1.245 . S
O436 Tb432 2.596 . S
O436 Tb434 2.343 1_556 S
O436 C451 1.259 . S
O437 Tb432 2.374 1_565 S
O437 C433 1.251 . S
C438 O442 1.275 . S
C438 O443 1.246 . S
O439 C433 1.263 1_554 S
O439 Tb434 2.353 1_565 S
C440 O444 1.245 . S
C440 O445 1.259 . S
C441 O446 1.250 . S
C441 O447 1.263 . S
O442 Tb434 2.427 . S
O442 C438 1.275 . S
O443 Tb434 2.513 . S
O443 C438 1.246 . S
O444 Tb434 2.453 . S
O444 C440 1.245 . S
O445 Tb432 2.343 1_554 S
O445 Tb434 2.596 . S
O445 C440 1.259 . S
O446 Tb434 2.374 . S
O446 C441 1.250 . S
O447 Tb432 2.353 1_554 S
O447 C441 1.263 . S
C448 O449 1.275 . S
C448 O450 1.246 1_545 S
O449 Tb432 2.427 1_554 S
O449 C448 1.275 . S
O450 Tb432 2.513 1_564 S
O450 C448 1.246 1_565 S
C451 O435 1.245 . S
C451 O436 1.259 . S
Tb452 O455 2.453 . S
Tb452 O456 2.596 . S
Tb452 O457 2.374 . S
Tb452 O465 2.343 . S
Tb452 O467 2.353 . S
Tb452 O469 2.427 . S
Tb452 O470 2.513 . S
C453 O457 1.251 . S
C453 O459 1.263 . S
Tb454 O456 2.343 . S
Tb454 O459 2.353 . S
Tb454 O462 2.427 . S
Tb454 O463 2.513 . S
Tb454 O464 2.453 . S
Tb454 O465 2.596 . S
Tb454 O466 2.374 . S
O455 Tb452 2.453 . S
O455 C471 1.245 . S
O456 Tb452 2.596 . S
O456 Tb454 2.343 . S
O456 C471 1.259 . S
O457 Tb452 2.374 . S
O457 C453 1.251 . S
C458 O462 1.275 . S
C458 O463 1.246 . S
O459 C453 1.263 . S
O459 Tb454 2.353 . S
C460 O464 1.245 . S
C460 O465 1.259 . S
C461 O466 1.250 . S
C461 O467 1.263 . S
O462 Tb454 2.427 . S
O462 C458 1.275 . S
O463 Tb454 2.513 . S
O463 C458 1.246 . S
O464 Tb454 2.453 . S
O464 C460 1.245 . S
O465 Tb452 2.343 . S
O465 Tb454 2.596 . S
O465 C460 1.259 . S
O466 Tb454 2.374 . S
O466 C461 1.250 . S
O467 Tb452 2.353 . S
O467 C461 1.263 . S
C468 O469 1.275 . S
C468 O470 1.246 . S
O469 Tb452 2.427 . S
O469 C468 1.275 . S
O470 Tb452 2.513 . S
O470 C468 1.246 . S
C471 O455 1.245 . S
C471 O456 1.259 . S
Tb472 O475 2.455 . S
Tb472 O476 2.596 1_556 S
Tb472 O477 2.374 . S
Tb472 O485 2.343 . S
Tb472 O487 2.353 . S
Tb472 O489 2.427 . S
Tb472 O490 2.513 . S
C473 O477 1.251 1_554 S
C473 O479 1.263 . S
Tb474 O476 2.343 . S
Tb474 O479 2.353 . S
Tb474 O482 2.427 . S
Tb474 O483 2.513 . S
Tb474 O484 2.453 . S
Tb474 O485 2.596 1_554 S
Tb474 O486 2.374 . S
O475 Tb472 2.455 . S
O475 C491 1.242 1_556 S
O476 Tb472 2.596 1_554 S
O476 Tb474 2.343 . S
O476 C491 1.259 . S
O477 Tb472 2.374 . S
O477 C473 1.251 1_556 S
C478 O482 1.275 . S
C478 O483 1.246 . S
O479 C473 1.263 . S
O479 Tb474 2.353 . S
C480 O484 1.245 1_556 S
C480 O485 1.259 . S
C481 O486 1.250 . S
C481 O487 1.263 1_554 S
O482 Tb474 2.427 . S
O482 C478 1.275 . S
O483 Tb474 2.513 . S
O483 C478 1.246 . S
O484 Tb474 2.453 . S
O484 C480 1.245 1_554 S
O485 Tb472 2.343 . S
O485 Tb474 2.596 1_556 S
O485 C480 1.259 . S
O486 Tb474 2.374 . S
O486 C481 1.250 . S
O487 Tb472 2.353 . S
O487 C481 1.263 1_556 S
C488 O489 1.275 . S
C488 O490 1.246 . S
O489 Tb472 2.427 . S
O489 C488 1.275 . S
O490 Tb472 2.513 . S
O490 C488 1.246 . S
C491 O475 1.242 1_554 S
C491 O476 1.259 . S
Tb492 O495 2.453 . S
Tb492 O496 2.596 . S
Tb492 O497 2.374 . S
Tb492 O505 2.343 . S
Tb492 O507 2.353 . S
Tb492 O509 2.427 . S
Tb492 O510 2.513 . S
C493 O497 1.251 . S
C493 O499 1.263 . S
Tb494 O496 2.343 . S
Tb494 O499 2.353 . S
Tb494 O502 2.427 . S
Tb494 O503 2.513 . S
Tb494 O504 2.453 . S
Tb494 O505 2.596 . S
Tb494 O506 2.374 . S
O495 Tb492 2.453 . S
O495 C511 1.245 . S
O496 Tb492 2.596 . S
O496 Tb494 2.343 . S
O496 C511 1.259 . S
O497 Tb492 2.374 . S
O497 C493 1.251 . S
C498 O502 1.275 . S
C498 O503 1.246 . S
O499 C493 1.263 . S
O499 Tb494 2.353 . S
C500 O504 1.245 . S
C500 O505 1.259 . S
C501 O506 1.250 . S
C501 O507 1.263 . S
O502 Tb494 2.427 . S
O502 C498 1.275 . S
O503 Tb494 2.513 . S
O503 C498 1.246 . S
O504 Tb494 2.453 . S
O504 C500 1.245 . S
O505 Tb492 2.343 . S
O505 Tb494 2.596 . S
O505 C500 1.259 . S
O506 Tb494 2.374 . S
O506 C501 1.250 . S
O507 Tb492 2.353 . S
O507 C501 1.263 . S
C508 O509 1.275 . S
C508 O510 1.246 . S
O509 Tb492 2.427 . S
O509 C508 1.275 . S
O510 Tb492 2.513 . S
O510 C508 1.246 . S
C511 O495 1.245 . S
C511 O496 1.259 . S
Tb512 O515 2.453 . S
Tb512 O516 2.596 1_655 S
Tb512 O517 2.374 . S
Tb512 O525 2.343 . S
Tb512 O527 2.353 . S
Tb512 O529 2.427 . S
Tb512 O530 2.513 . S
C513 O517 1.251 1_455 S
C513 O519 1.263 . S
Tb514 O516 2.343 . S
Tb514 O519 2.353 . S
Tb514 O522 2.427 . S
Tb514 O523 2.513 . S
Tb514 O524 2.453 . S
Tb514 O525 2.596 1_455 S
Tb514 O526 2.374 . S
O515 Tb512 2.453 . S
O515 C531 1.245 1_655 S
O516 Tb512 2.596 1_455 S
O516 Tb514 2.343 . S
O516 C531 1.259 . S
O517 Tb512 2.374 . S
O517 C513 1.251 1_655 S
C518 O522 1.275 . S
C518 O523 1.246 . S
O519 C513 1.263 . S
O519 Tb514 2.353 . S
C520 O524 1.245 1_655 S
C520 O525 1.259 . S
C521 O526 1.216 1_655 S
C521 O527 1.283 . S
O522 Tb514 2.427 . S
O522 C518 1.275 . S
O523 Tb514 2.513 . S
O523 C518 1.246 . S
O524 Tb514 2.453 . S
O524 C520 1.245 1_455 S
O525 Tb512 2.343 . S
O525 Tb514 2.596 1_655 S
O525 C520 1.259 . S
O526 Tb514 2.374 . S
O526 C521 1.216 1_455 S
O527 Tb512 2.353 . S
O527 C521 1.283 . S
C528 O529 1.275 . S
C528 O530 1.246 . S
O529 Tb512 2.427 . S
O529 C528 1.275 . S
O530 Tb512 2.513 . S
O530 C528 1.246 . S
C531 O515 1.245 1_455 S
C531 O516 1.259 . S
Tb532 O535 2.453 . S
Tb532 O536 2.596 . S
Tb532 O537 2.374 . S
Tb532 O545 2.343 . S
Tb532 O547 2.353 . S
Tb532 O549 2.427 . S
Tb532 O550 2.513 . S
C533 O537 1.251 . S
C533 O539 1.263 . S
Tb534 O536 2.343 . S
Tb534 O539 2.353 . S
Tb534 O542 2.427 . S
Tb534 O543 2.513 . S
Tb534 O544 2.453 . S
Tb534 O545 2.596 . S
Tb534 O546 2.374 . S
O535 Tb532 2.453 . S
O535 C551 1.245 . S
O536 Tb532 2.596 . S
O536 Tb534 2.343 . S
O536 C551 1.259 . S
O537 Tb532 2.374 . S
O537 C533 1.251 . S
C538 O542 1.275 . S
C538 O543 1.246 . S
O539 C533 1.263 . S
O539 Tb534 2.353 . S
C540 O544 1.245 . S
C540 O545 1.259 . S
C541 O546 1.250 . S
C541 O547 1.263 . S
O542 Tb534 2.427 . S
O542 C538 1.275 . S
O543 Tb534 2.513 . S
O543 C538 1.246 . S
O544 Tb534 2.453 . S
O544 C540 1.245 . S
O545 Tb532 2.343 . S
O545 Tb534 2.596 . S
O545 C540 1.259 . S
O546 Tb534 2.374 . S
O546 C541 1.250 . S
O547 Tb532 2.353 . S
O547 C541 1.263 . S
C548 O549 1.275 . S
C548 O550 1.246 . S
O549 Tb532 2.427 . S
O549 C548 1.275 . S
O550 Tb532 2.513 . S
O550 C548 1.246 . S
C551 O535 1.245 . S
C551 O536 1.259 . S
Tb552 O555 2.453 . S
Tb552 O556 2.596 . S
Tb552 O557 2.374 . S
Tb552 O565 2.343 . S
Tb552 O567 2.353 . S
Tb552 O569 2.427 . S
Tb552 O570 2.513 . S
C553 O557 1.251 . S
C553 O559 1.263 . S
Tb554 O556 2.343 . S
Tb554 O559 2.353 . S
Tb554 O562 2.427 . S
Tb554 O563 2.513 . S
Tb554 O564 2.453 . S
Tb554 O565 2.596 . S
Tb554 O566 2.374 . S
O555 Tb552 2.453 . S
O555 C571 1.245 . S
O556 Tb552 2.596 . S
O556 Tb554 2.343 . S
O556 C571 1.259 . S
O557 Tb552 2.374 . S
O557 C553 1.251 . S
C558 O562 1.275 . S
C558 O563 1.246 . S
O559 C553 1.263 . S
O559 Tb554 2.353 . S
C560 O564 1.245 . S
C560 O565 1.259 . S
C561 O566 1.250 . S
C561 O567 1.263 . S
O562 Tb554 2.427 . S
O562 C558 1.275 . S
O563 Tb554 2.513 . S
O563 C558 1.246 . S
O564 Tb554 2.453 . S
O564 C560 1.245 . S
O565 Tb552 2.343 . S
O565 Tb554 2.596 . S
O565 C560 1.259 . S
O566 Tb554 2.374 . S
O566 C561 1.250 . S
O567 Tb552 2.353 . S
O567 C561 1.263 . S
C568 O569 1.275 . S
C568 O570 1.246 . S
O569 Tb552 2.427 . S
O569 C568 1.275 . S
O570 Tb552 2.513 . S
O570 C568 1.246 . S
C571 O555 1.245 . S
C571 O556 1.259 . S
Tb572 O575 2.453 . S
Tb572 O576 2.596 . S
Tb572 O577 2.374 . S
Tb572 O585 2.343 . S
Tb572 O587 2.353 . S
Tb572 O589 2.427 . S
Tb572 O590 2.513 . S
C573 O577 1.251 . S
C573 O579 1.263 . S
Tb574 O576 2.343 . S
Tb574 O579 2.353 . S
Tb574 O582 2.427 . S
Tb574 O583 2.513 . S
Tb574 O584 2.453 . S
Tb574 O585 2.596 . S
Tb574 O586 2.374 . S
O575 Tb572 2.453 . S
O575 C591 1.245 . S
O576 Tb572 2.596 . S
O576 Tb574 2.343 . S
O576 C591 1.259 . S
O577 Tb572 2.374 . S
O577 C573 1.251 . S
C578 O582 1.275 . S
C578 O583 1.246 . S
O579 C573 1.263 . S
O579 Tb574 2.353 . S
C580 O584 1.245 . S
C580 O585 1.259 . S
C581 O586 1.250 . S
C581 O587 1.263 . S
O582 Tb574 2.427 . S
O582 C578 1.275 . S
O583 Tb574 2.513 . S
O583 C578 1.246 . S
O584 Tb574 2.453 . S
O584 C580 1.245 . S
O585 Tb572 2.343 . S
O585 Tb574 2.596 . S
O585 C580 1.259 . S
O586 Tb574 2.374 . S
O586 C581 1.250 . S
O587 Tb572 2.353 . S
O587 C581 1.263 . S
C588 O589 1.275 . S
C588 O590 1.246 . S
O589 Tb572 2.427 . S
O589 C588 1.275 . S
O590 Tb572 2.513 . S
O590 C588 1.246 . S
C591 O575 1.245 . S
C591 O576 1.259 . S
Tb592 O595 2.453 . S
Tb592 O596 2.596 . S
Tb592 O597 2.374 . S
Tb592 O605 2.343 . S
Tb592 O607 2.353 . S
Tb592 O609 2.427 . S
Tb592 O610 2.513 . S
C593 O597 1.251 . S
C593 O599 1.263 . S
Tb594 O596 2.343 . S
Tb594 O599 2.353 . S
Tb594 O602 2.427 . S
Tb594 O603 2.513 . S
Tb594 O604 2.453 . S
Tb594 O605 2.596 . S
Tb594 O606 2.374 . S
O595 Tb592 2.453 . S
O595 C611 1.245 . S
O596 Tb592 2.596 . S
O596 Tb594 2.343 . S
O596 C611 1.259 . S
O597 Tb592 2.374 . S
O597 C593 1.251 . S
C598 O602 1.275 . S
C598 O603 1.246 . S
O599 C593 1.263 . S
O599 Tb594 2.353 . S
C600 O604 1.245 . S
C600 O605 1.259 . S
C601 O606 1.250 . S
C601 O607 1.263 . S
O602 Tb594 2.427 . S
O602 C598 1.275 . S
O603 Tb594 2.513 . S
O603 C598 1.246 . S
O604 Tb594 2.453 . S
O604 C600 1.245 . S
O605 Tb592 2.343 . S
O605 Tb594 2.596 . S
O605 C600 1.259 . S
O606 Tb594 2.374 . S
O606 C601 1.250 . S
O607 Tb592 2.353 . S
O607 C601 1.263 . S
C608 O609 1.275 . S
C608 O610 1.246 . S
O609 Tb592 2.427 . S
O609 C608 1.275 . S
O610 Tb592 2.513 . S
O610 C608 1.246 . S
C611 O595 1.245 . S
C611 O596 1.259 . S
Tb612 O615 2.453 . S
Tb612 O616 2.596 1_455 S
Tb612 O617 2.374 . S
Tb612 O625 2.343 . S
Tb612 O627 2.353 1_554 S
Tb612 O629 2.427 1_554 S
Tb612 O630 2.513 . S
C613 O617 1.251 . S
C613 O619 1.263 1_455 S
Tb614 O616 2.343 . S
Tb614 O619 2.353 . S
Tb614 O622 2.427 . S
Tb614 O623 2.513 . S
Tb614 O624 2.453 . S
Tb614 O625 2.596 1_655 S
Tb614 O626 2.374 1_554 S
O615 Tb612 2.453 . S
O615 C631 1.245 . S
O616 Tb612 2.596 1_655 S
O616 Tb614 2.343 . S
O616 C631 1.259 1_655 S
O617 Tb612 2.374 . S
O617 C613 1.251 . S
C618 O622 1.275 . S
C618 O623 1.246 . S
O619 C613 1.263 1_655 S
O619 Tb614 2.353 . S
C620 O624 1.245 . S
C620 O625 1.259 1_655 S
C621 O626 1.250 . S
C621 O627 1.263 1_655 S
O622 Tb614 2.427 . S
O622 C618 1.275 . S
O623 Tb614 2.513 . S
O623 C618 1.246 . S
O624 Tb614 2.453 . S
O624 C620 1.245 . S
O625 Tb612 2.343 . S
O625 Tb614 2.596 1_455 S
O625 C620 1.259 1_455 S
O626 Tb614 2.374 1_556 S
O626 C621 1.250 . S
O627 Tb612 2.353 1_556 S
O627 C621 1.263 1_455 S
C628 O629 1.275 1_554 S
C628 O630 1.246 . S
O629 Tb612 2.427 1_556 S
O629 C628 1.275 1_556 S
O630 Tb612 2.513 . S
O630 C628 1.246 . S
C631 O615 1.245 . S
C631 O616 1.259 1_455 S
C632 C633 1.391 . S
C632 C634 1.394 . S
C632 H648 0.931 . S
C633 C632 1.391 . S
C633 C637 1.376 1_455 S
C634 C632 1.394 . S
C634 C635 1.369 . S
C634 C638 1.531 . S
C635 C634 1.369 . S
C635 C636 1.410 1_455 S
C635 C643 1.503 . S
C636 C635 1.410 1_655 S
C636 C637 1.392 . S
C636 C639 1.510 . S
C637 C633 1.376 1_655 S
C637 C636 1.392 . S
C637 H649 0.929 . S
C638 C634 1.531 . S
C638 H650 0.960 . S
C638 H651 0.962 . S
C638 H652 0.960 . S
C639 C636 1.510 . S
C639 H653 0.961 . S
C639 H654 0.961 . S
C639 H655 0.961 . S
C640 C641 1.370 1_556 S
C640 C642 1.363 . S
C640 H656 0.931 . S
C641 C640 1.370 1_554 S
C641 C645 1.408 . S
C642 C640 1.363 . S
C642 C643 1.370 . S
C642 C646 1.524 . S
C643 C635 1.503 . S
C643 C642 1.370 . S
C643 C644 1.403 1_556 S
C644 C643 1.403 1_554 S
C644 C645 1.404 . S
C644 C647 1.539 . S
C645 C641 1.408 . S
C645 C644 1.404 . S
C645 H657 0.930 . S
C646 C642 1.524 . S
C646 H658 0.956 . S
C646 H659 0.961 . S
C646 H660 0.961 . S
C647 C644 1.539 . S
C647 H661 0.958 . S
C647 H662 0.961 . S
C647 H663 0.945 1_554 S
H648 C632 0.931 . S
H649 C637 0.929 . S
H650 C638 0.960 . S
H651 C638 0.962 . S
H652 C638 0.960 . S
H653 C639 0.961 . S
H654 C639 0.961 . S
H655 C639 0.961 . S
H656 C640 0.931 . S
H657 C645 0.930 . S
H658 C646 0.956 . S
H659 C646 0.961 . S
H660 C646 0.961 . S
H661 C647 0.958 . S
H662 C647 0.961 . S
H663 C647 0.945 1_556 S
C664 C665 1.391 . S
C664 C666 1.394 . S
C664 H680 0.931 . S
C665 C664 1.391 . S
C665 C669 1.376 . S
C666 C664 1.394 . S
C666 C667 1.369 . S
C666 C670 1.531 . S
C667 C666 1.369 . S
C667 C668 1.410 . S
C667 C675 1.503 . S
C668 C667 1.410 . S
C668 C669 1.392 . S
C668 C671 1.511 . S
C669 C665 1.376 . S
C669 C668 1.392 . S
C669 H681 0.929 . S
C670 C666 1.531 . S
C670 H682 0.960 . S
C670 H683 0.962 . S
C670 H684 0.960 . S
C671 C668 1.511 . S
C671 H685 0.961 . S
C671 H686 0.961 . S
C671 H687 0.961 . S
C672 C673 1.370 . S
C672 C674 1.363 . S
C672 H688 0.931 . S
C673 C672 1.370 . S
C673 C677 1.408 . S
C674 C672 1.363 . S
C674 C675 1.370 . S
C674 C678 1.524 . S
C675 C667 1.503 . S
C675 C674 1.370 . S
C675 C676 1.403 . S
C676 C675 1.403 . S
C676 C677 1.404 . S
C676 C679 1.539 . S
C677 C673 1.408 . S
C677 C676 1.404 . S
C677 H689 0.930 . S
C678 C674 1.524 . S
C678 H690 0.956 . S
C678 H691 0.961 . S
C678 H692 0.961 . S
C679 C676 1.539 . S
C679 H693 0.958 . S
C679 H694 0.961 . S
C679 H695 0.960 . S
H680 C664 0.931 . S
H681 C669 0.929 . S
H682 C670 0.960 . S
H683 C670 0.962 . S
H684 C670 0.960 . S
H685 C671 0.961 . S
H686 C671 0.961 . S
H687 C671 0.961 . S
H688 C672 0.931 . S
H689 C677 0.930 . S
H690 C678 0.956 . S
H691 C678 0.961 . S
H692 C678 0.961 . S
H693 C679 0.958 . S
H694 C679 0.961 . S
H695 C679 0.960 . S
C696 C697 1.391 . S
C696 C698 1.394 . S
C696 H712 0.931 . S
C697 C696 1.391 . S
C697 C701 1.376 . S
C698 C696 1.394 . S
C698 C699 1.369 . S
C698 C702 1.531 . S
C699 C698 1.369 . S
C699 C700 1.410 . S
C699 C707 1.503 . S
C700 C699 1.410 . S
C700 C701 1.392 . S
C700 C703 1.511 . S
C701 C697 1.376 . S
C701 C700 1.392 . S
C701 H713 0.929 . S
C702 C698 1.531 . S
C702 H714 0.960 . S
C702 H715 0.962 . S
C702 H716 0.960 . S
C703 C700 1.511 . S
C703 H717 0.961 . S
C703 H718 0.961 . S
C703 H719 0.961 . S
C704 C705 1.370 . S
C704 C706 1.363 . S
C704 H720 0.931 . S
C705 C704 1.370 . S
C705 C709 1.408 . S
C706 C704 1.363 . S
C706 C707 1.370 . S
C706 C710 1.524 . S
C707 C699 1.503 . S
C707 C706 1.370 . S
C707 C708 1.403 . S
C708 C707 1.403 . S
C708 C709 1.404 . S
C708 C711 1.539 . S
C709 C705 1.408 . S
C709 C708 1.404 . S
C709 H721 0.930 . S
C710 C706 1.524 . S
C710 H722 0.956 . S
C710 H723 0.961 . S
C710 H724 0.961 . S
C711 C708 1.539 . S
C711 H725 0.958 . S
C711 H726 0.961 . S
C711 H727 0.960 . S
H712 C696 0.931 . S
H713 C701 0.929 . S
H714 C702 0.960 . S
H715 C702 0.962 . S
H716 C702 0.960 . S
H717 C703 0.961 . S
H718 C703 0.961 . S
H719 C703 0.961 . S
H720 C704 0.931 . S
H721 C709 0.930 . S
H722 C710 0.956 . S
H723 C710 0.961 . S
H724 C710 0.961 . S
H725 C711 0.958 . S
H726 C711 0.961 . S
H727 C711 0.960 . S
C728 C729 1.391 . S
C728 C730 1.394 . S
C728 H744 0.931 . S
C729 C728 1.391 . S
C729 C733 1.376 . S
C730 C728 1.394 . S
C730 C731 1.369 . S
C730 C734 1.531 . S
C731 C730 1.369 . S
C731 C732 1.410 . S
C731 C739 1.503 . S
C732 C731 1.410 . S
C732 C733 1.392 . S
C732 C735 1.511 . S
C733 C729 1.376 . S
C733 C732 1.392 . S
C733 H745 0.929 . S
C734 C730 1.531 . S
C734 H746 0.960 . S
C734 H747 0.962 . S
C734 H748 0.960 . S
C735 C732 1.511 . S
C735 H749 0.961 . S
C735 H750 0.961 . S
C735 H751 0.961 . S
C736 C737 1.370 . S
C736 C738 1.363 . S
C736 H752 0.931 . S
C737 C736 1.370 . S
C737 C741 1.408 . S
C738 C736 1.363 . S
C738 C739 1.370 . S
C738 C742 1.524 . S
C739 C731 1.503 . S
C739 C738 1.370 . S
C739 C740 1.403 . S
C740 C739 1.403 . S
C740 C741 1.404 . S
C740 C743 1.539 . S
C741 C737 1.408 . S
C741 C740 1.404 . S
C741 H753 0.930 . S
C742 C738 1.524 . S
C742 H754 0.956 . S
C742 H755 0.961 . S
C742 H756 0.961 . S
C743 C740 1.539 . S
C743 H757 0.958 . S
C743 H758 0.961 . S
C743 H759 0.960 . S
H744 C728 0.931 . S
H745 C733 0.929 . S
H746 C734 0.960 . S
H747 C734 0.962 . S
H748 C734 0.960 . S
H749 C735 0.961 . S
H750 C735 0.961 . S
H751 C735 0.961 . S
H752 C736 0.931 . S
H753 C741 0.930 . S
H754 C742 0.956 . S
H755 C742 0.961 . S
H756 C742 0.961 . S
H757 C743 0.958 . S
H758 C743 0.961 . S
H759 C743 0.960 . S
C760 C761 1.391 1_655 S
C760 C762 1.394 . S
C760 H776 0.931 . S
C761 C760 1.391 1_455 S
C761 C765 1.376 . S
C762 C760 1.394 . S
C762 C763 1.369 1_655 S
C762 C766 1.531 . S
C763 C762 1.369 1_455 S
C763 C764 1.410 . S
C763 C771 1.503 . S
C764 C763 1.410 . S
C764 C765 1.392 . S
C764 C767 1.511 . S
C765 C761 1.376 . S
C765 C764 1.392 . S
C765 H777 0.929 . S
C766 C762 1.531 . S
C766 H778 0.960 . S
C766 H779 0.962 . S
C766 H780 0.960 . S
C767 C764 1.511 . S
C767 H781 0.961 . S
C767 H782 0.961 . S
C767 H783 0.961 . S
C768 C769 1.370 . S
C768 C770 1.363 . S
C768 H784 0.931 . S
C769 C768 1.370 . S
C769 C773 1.408 . S
C770 C768 1.363 . S
C770 C771 1.370 . S
C770 C774 1.524 . S
C771 C763 1.503 . S
C771 C770 1.370 . S
C771 C772 1.403 . S
C772 C771 1.403 . S
C772 C773 1.404 . S
C772 C775 1.539 1_455 S
C773 C769 1.408 . S
C773 C772 1.404 . S
C773 H785 0.930 . S
C774 C770 1.524 . S
C774 H786 0.956 . S
C774 H787 0.961 . S
C774 H788 0.961 . S
C775 C772 1.539 1_655 S
C775 H789 0.958 . S
C775 H790 0.961 . S
C775 H791 0.960 . S
H776 C760 0.931 . S
H777 C765 0.929 . S
H778 C766 0.960 . S
H779 C766 0.962 . S
H780 C766 0.960 . S
H781 C767 0.961 . S
H782 C767 0.961 . S
H783 C767 0.961 . S
H784 C768 0.931 . S
H785 C773 0.930 . S
H786 C774 0.956 . S
H787 C774 0.961 . S
H788 C774 0.961 . S
H789 C775 0.958 . S
H790 C775 0.961 . S
H791 C775 0.960 . S
C792 C793 1.391 . S
C792 C794 1.394 . S
C792 H808 0.931 . S
C793 C792 1.391 . S
C793 C797 1.376 . S
C794 C792 1.394 . S
C794 C795 1.369 . S
C794 C798 1.531 . S
C795 C794 1.369 . S
C795 C796 1.410 . S
C795 C803 1.503 . S
C796 C795 1.410 . S
C796 C797 1.392 . S
C796 C799 1.511 . S
C797 C793 1.376 . S
C797 C796 1.392 . S
C797 H809 0.929 . S
C798 C794 1.531 . S
C798 H810 0.960 . S
C798 H811 0.962 . S
C798 H812 0.960 . S
C799 C796 1.511 . S
C799 H813 0.961 . S
C799 H814 0.961 . S
C799 H815 0.961 . S
C800 C801 1.370 . S
C800 C802 1.363 . S
C800 H816 0.931 . S
C801 C800 1.370 . S
C801 C805 1.408 . S
C802 C800 1.363 . S
C802 C803 1.370 . S
C802 C806 1.524 . S
C803 C795 1.503 . S
C803 C802 1.370 . S
C803 C804 1.403 . S
C804 C803 1.403 . S
C804 C805 1.404 . S
C804 C807 1.539 . S
C805 C801 1.408 . S
C805 C804 1.404 . S
C805 H817 0.930 . S
C806 C802 1.524 . S
C806 H818 0.956 . S
C806 H819 0.961 . S
C806 H820 0.961 . S
C807 C804 1.539 . S
C807 H821 0.958 . S
C807 H822 0.961 . S
C807 H823 0.960 . S
H808 C792 0.931 . S
H809 C797 0.929 . S
H810 C798 0.960 . S
H811 C798 0.962 . S
H812 C798 0.960 . S
H813 C799 0.961 . S
H814 C799 0.961 . S
H815 C799 0.961 . S
H816 C800 0.931 . S
H817 C805 0.930 . S
H818 C806 0.956 . S
H819 C806 0.961 . S
H820 C806 0.961 . S
H821 C807 0.958 . S
H822 C807 0.961 . S
H823 C807 0.960 . S
C824 C825 1.391 . S
C824 C826 1.394 . S
C824 H840 0.931 . S
C825 C824 1.391 . S
C825 C829 1.376 . S
C826 C824 1.394 . S
C826 C827 1.369 . S
C826 C830 1.531 . S
C827 C826 1.369 . S
C827 C828 1.410 . S
C827 C835 1.503 . S
C828 C827 1.410 . S
C828 C829 1.392 . S
C828 C831 1.511 . S
C829 C825 1.376 . S
C829 C828 1.392 . S
C829 H841 0.929 . S
C830 C826 1.531 . S
C830 H842 0.960 . S
C830 H843 0.962 . S
C830 H844 0.960 . S
C831 C828 1.511 . S
C831 H845 0.961 . S
C831 H846 0.961 . S
C831 H847 0.961 . S
C832 C833 1.370 . S
C832 C834 1.363 . S
C832 H848 0.931 . S
C833 C832 1.370 . S
C833 C837 1.408 . S
C834 C832 1.363 . S
C834 C835 1.370 . S
C834 C838 1.524 . S
C835 C827 1.503 . S
C835 C834 1.370 . S
C835 C836 1.403 . S
C836 C835 1.403 . S
C836 C837 1.404 . S
C836 C839 1.539 . S
C837 C833 1.408 . S
C837 C836 1.404 . S
C837 H849 0.930 . S
C838 C834 1.524 . S
C838 H850 0.956 . S
C838 H851 0.961 . S
C838 H852 0.961 . S
C839 C836 1.539 . S
C839 H853 0.958 . S
C839 H854 0.961 . S
C839 H855 0.960 . S
H840 C824 0.931 . S
H841 C829 0.929 . S
H842 C830 0.960 . S
H843 C830 0.962 . S
H844 C830 0.960 . S
H845 C831 0.961 . S
H846 C831 0.961 . S
H847 C831 0.961 . S
H848 C832 0.931 . S
H849 C837 0.930 . S
H850 C838 0.956 . S
H851 C838 0.961 . S
H852 C838 0.961 . S
H853 C839 0.958 . S
H854 C839 0.961 . S
H855 C839 0.960 . S
C856 C857 1.391 . S
C856 C858 1.394 . S
C856 H872 0.931 . S
C857 C856 1.391 . S
C857 C861 1.376 . S
C858 C856 1.394 . S
C858 C859 1.369 . S
C858 C862 1.531 . S
C859 C858 1.369 . S
C859 C860 1.410 . S
C859 C867 1.503 . S
C860 C859 1.410 . S
C860 C861 1.392 . S
C860 C863 1.511 . S
C861 C857 1.376 . S
C861 C860 1.392 . S
C861 H873 0.929 . S
C862 C858 1.531 . S
C862 H874 0.960 . S
C862 H875 0.962 . S
C862 H876 0.960 . S
C863 C860 1.511 . S
C863 H877 0.961 . S
C863 H878 0.961 . S
C863 H879 0.961 . S
C864 C865 1.370 . S
C864 C866 1.363 . S
C864 H880 0.931 . S
C865 C864 1.370 . S
C865 C869 1.408 . S
C866 C864 1.363 . S
C866 C867 1.370 . S
C866 C870 1.524 . S
C867 C859 1.503 . S
C867 C866 1.370 . S
C867 C868 1.403 . S
C868 C867 1.403 . S
C868 C869 1.404 . S
C868 C871 1.539 . S
C869 C865 1.408 . S
C869 C868 1.404 . S
C869 H881 0.930 . S
C870 C866 1.524 . S
C870 H882 0.956 . S
C870 H883 0.961 . S
C870 H884 0.961 . S
C871 C868 1.539 . S
C871 H885 0.958 . S
C871 H886 0.961 . S
C871 H887 0.960 . S
H872 C856 0.931 . S
H873 C861 0.929 . S
H874 C862 0.960 . S
H875 C862 0.962 . S
H876 C862 0.960 . S
H877 C863 0.961 . S
H878 C863 0.961 . S
H879 C863 0.961 . S
H880 C864 0.931 . S
H881 C869 0.930 . S
H882 C870 0.956 . S
H883 C870 0.961 . S
H884 C870 0.961 . S
H885 C871 0.958 . S
H886 C871 0.961 . S
H887 C871 0.960 . S
C888 C889 1.391 . S
C888 C890 1.394 . S
C888 H904 0.931 . S
C889 C888 1.391 . S
C889 C893 1.376 . S
C890 C888 1.394 . S
C890 C891 1.369 . S
C890 C894 1.531 . S
C891 C890 1.369 . S
C891 C892 1.410 . S
C891 C899 1.503 . S
C892 C891 1.410 . S
C892 C893 1.392 . S
C892 C895 1.511 . S
C893 C889 1.376 . S
C893 C892 1.392 . S
C893 H905 0.929 . S
C894 C890 1.531 . S
C894 H906 0.960 . S
C894 H907 0.962 . S
C894 H908 0.960 . S
C895 C892 1.511 . S
C895 H909 0.961 . S
C895 H910 0.961 1_655 S
C895 H911 0.961 . S
C896 C897 1.370 . S
C896 C898 1.363 1_455 S
C896 H912 0.931 . S
C897 C896 1.370 . S
C897 C901 1.408 1_455 S
C898 C896 1.363 1_655 S
C898 C899 1.370 . S
C898 C902 1.524 . S
C899 C891 1.503 . S
C899 C898 1.370 . S
C899 C900 1.403 . S
C900 C899 1.403 . S
C900 C901 1.404 . S
C900 C903 1.539 . S
C901 C897 1.408 1_655 S
C901 C900 1.404 . S
C901 H913 0.930 . S
C902 C898 1.524 . S
C902 H914 0.956 . S
C902 H915 0.961 . S
C902 H916 0.961 . S
C903 C900 1.539 . S
C903 H917 0.958 . S
C903 H918 0.961 . S
C903 H919 0.960 . S
H904 C888 0.931 . S
H905 C893 0.929 . S
H906 C894 0.960 . S
H907 C894 0.962 . S
H908 C894 0.960 . S
H909 C895 0.961 . S
H910 C895 0.961 1_455 S
H911 C895 0.961 . S
H912 C896 0.931 . S
H913 C901 0.930 . S
H914 C902 0.956 . S
H915 C902 0.961 . S
H916 C902 0.961 . S
H917 C903 0.958 . S
H918 C903 0.961 . S
H919 C903 0.960 . S
C920 C921 1.391 . S
C920 C922 1.394 . S
C920 H936 0.931 . S
C921 C920 1.391 . S
C921 C925 1.376 . S
C922 C920 1.394 . S
C922 C923 1.369 . S
C922 C926 1.531 . S
C923 C922 1.369 . S
C923 C924 1.410 . S
C923 C931 1.503 . S
C924 C923 1.410 . S
C924 C925 1.392 . S
C924 C927 1.511 . S
C925 C921 1.376 . S
C925 C924 1.392 . S
C925 H937 0.929 . S
C926 C922 1.531 . S
C926 H938 0.960 . S
C926 H939 0.962 . S
C926 H940 0.960 . S
C927 C924 1.511 . S
C927 H941 0.961 . S
C927 H942 0.961 . S
C927 H943 0.961 . S
C928 C929 1.370 . S
C928 C930 1.363 . S
C928 H944 0.931 . S
C929 C928 1.370 . S
C929 C933 1.408 . S
C930 C928 1.363 . S
C930 C931 1.370 . S
C930 C934 1.524 . S
C931 C923 1.503 . S
C931 C930 1.370 . S
C931 C932 1.403 . S
C932 C931 1.403 . S
C932 C933 1.404 . S
C932 C935 1.539 . S
C933 C929 1.408 . S
C933 C932 1.404 . S
C933 H945 0.930 . S
C934 C930 1.524 . S
C934 H946 0.956 . S
C934 H947 0.961 . S
C934 H948 0.961 . S
C935 C932 1.539 . S
C935 H949 0.958 . S
C935 H950 0.961 . S
C935 H951 0.960 . S
H936 C920 0.931 . S
H937 C925 0.929 . S
H938 C926 0.960 . S
H939 C926 0.962 . S
H940 C926 0.960 . S
H941 C927 0.961 . S
H942 C927 0.961 . S
H943 C927 0.961 . S
H944 C928 0.931 . S
H945 C933 0.930 . S
H946 C934 0.956 . S
H947 C934 0.961 . S
H948 C934 0.961 . S
H949 C935 0.958 . S
H950 C935 0.961 . S
H951 C935 0.960 . S
C952 C953 1.391 . S
C952 C954 1.394 . S
C952 H968 0.931 . S
C953 C952 1.391 . S
C953 C957 1.377 . S
C954 C952 1.394 . S
C954 C955 1.379 . S
C954 C958 1.531 . S
C955 C954 1.379 . S
C955 C956 1.408 1_565 S
C955 C963 1.493 1_565 S
C956 C955 1.408 1_545 S
C956 C957 1.392 1_545 S
C956 C959 1.511 . S
C957 C953 1.377 . S
C957 C956 1.392 1_565 S
C957 H969 0.928 1_565 S
C958 C954 1.531 . S
C958 H970 0.960 . S
C958 H971 0.962 1_565 S
C958 H972 0.960 . S
C959 C956 1.511 . S
C959 H973 0.961 . S
C959 H974 0.961 . S
C959 H975 0.961 1_545 S
C960 C961 1.370 . S
C960 C962 1.363 . S
C960 H976 0.931 . S
C961 C960 1.370 . S
C961 C965 1.408 1_545 S
C962 C960 1.363 . S
C962 C963 1.370 . S
C962 C966 1.524 . S
C963 C955 1.493 1_545 S
C963 C962 1.370 . S
C963 C964 1.403 1_545 S
C964 C963 1.403 1_565 S
C964 C965 1.404 . S
C964 C967 1.539 . S
C965 C961 1.408 1_565 S
C965 C964 1.404 . S
C965 H977 0.930 . S
C966 C962 1.524 . S
C966 H978 0.956 . S
C966 H979 0.961 . S
C966 H980 0.961 . S
C967 C964 1.539 . S
C967 H981 0.958 . S
C967 H982 0.961 . S
C967 H983 0.960 . S
H968 C952 0.931 . S
H969 C957 0.928 1_545 S
H970 C958 0.960 . S
H971 C958 0.962 1_545 S
H972 C958 0.960 . S
H973 C959 0.961 . S
H974 C959 0.961 . S
H975 C959 0.961 1_565 S
H976 C960 0.931 . S
H977 C965 0.930 . S
H978 C966 0.956 . S
H979 C966 0.961 . S
H980 C966 0.961 . S
H981 C967 0.958 . S
H982 C967 0.961 . S
H983 C967 0.960 . S
C984 C985 1.391 . S
C984 C986 1.394 . S
C984 H1000 0.931 . S
C985 C984 1.391 . S
C985 C989 1.376 . S
C986 C984 1.394 . S
C986 C987 1.369 . S
C986 C990 1.531 . S
C987 C986 1.369 . S
C987 C988 1.410 . S
C987 C995 1.503 . S
C988 C987 1.410 . S
C988 C989 1.392 . S
C988 C991 1.511 . S
C989 C985 1.376 . S
C989 C988 1.392 . S
C989 H1001 0.929 . S
C990 C986 1.531 . S
C990 H1002 0.960 . S
C990 H1003 0.962 . S
C990 H1004 0.960 . S
C991 C988 1.511 . S
C991 H1005 0.961 . S
C991 H1006 0.961 . S
C991 H1007 0.961 . S
C992 C993 1.370 . S
C992 C994 1.363 . S
C992 H1008 0.931 . S
C993 C992 1.370 . S
C993 C997 1.408 . S
C994 C992 1.363 . S
C994 C995 1.370 . S
C994 C998 1.524 . S
C995 C987 1.503 . S
C995 C994 1.370 . S
C995 C996 1.403 . S
C996 C995 1.403 . S
C996 C997 1.404 . S
C996 C999 1.539 . S
C997 C993 1.408 . S
C997 C996 1.404 . S
C997 H1009 0.930 . S
C998 C994 1.524 . S
C998 H1010 0.956 . S
C998 H1011 0.961 . S
C998 H1012 0.961 . S
C999 C996 1.539 . S
C999 H1013 0.958 . S
C999 H1014 0.961 . S
C999 H1015 0.960 . S
H1000 C984 0.931 . S
H1001 C989 0.929 . S
H1002 C990 0.960 . S
H1003 C990 0.962 . S
H1004 C990 0.960 . S
H1005 C991 0.961 . S
H1006 C991 0.961 . S
H1007 C991 0.961 . S
H1008 C992 0.931 . S
H1009 C997 0.930 . S
H1010 C998 0.956 . S
H1011 C998 0.961 . S
H1012 C998 0.961 . S
H1013 C999 0.958 . S
H1014 C999 0.961 . S
H1015 C999 0.960 . S
C1016 C1017 1.391 . S
C1016 C1018 1.394 . S
C1016 H1032 0.931 . S
C1017 C1016 1.391 . S
C1017 C1021 1.376 . S
C1018 C1016 1.394 . S
C1018 C1019 1.369 . S
C1018 C1022 1.502 1_545 S
C1019 C1018 1.369 . S
C1019 C1020 1.410 . S
C1019 C1027 1.503 . S
C1020 C1019 1.410 . S
C1020 C1021 1.392 . S
C1020 C1023 1.511 . S
C1021 C1017 1.376 . S
C1021 C1020 1.392 . S
C1021 H1033 0.929 . S
C1022 C1018 1.502 1_565 S
C1022 H1034 0.975 . S
C1022 H1035 0.955 1_565 S
C1022 H1036 0.980 . S
C1023 C1020 1.511 . S
C1023 H1037 0.961 . S
C1023 H1038 0.961 . S
C1023 H1039 0.951 1_655 S
C1024 C1025 1.370 . S
C1024 C1026 1.363 . S
C1024 H1040 0.931 . S
C1025 C1024 1.370 . S
C1025 C1029 1.408 1_655 S
C1026 C1024 1.363 . S
C1026 C1027 1.370 . S
C1026 C1030 1.524 . S
C1027 C1019 1.503 . S
C1027 C1026 1.370 . S
C1027 C1028 1.403 . S
C1028 C1027 1.403 . S
C1028 C1029 1.404 1_655 S
C1028 C1031 1.539 1_655 S
C1029 C1025 1.408 1_455 S
C1029 C1028 1.404 1_455 S
C1029 H1041 0.930 . S
C1030 C1026 1.524 . S
C1030 H1042 0.956 . S
C1030 H1043 0.961 . S
C1030 H1044 0.961 . S
C1031 C1028 1.539 1_455 S
C1031 H1045 0.961 1_455 S
C1031 H1046 0.961 . S
C1031 H1047 0.960 1_455 S
H1032 C1016 0.931 . S
H1033 C1021 0.929 . S
H1034 C1022 0.975 . S
H1035 C1022 0.955 1_545 S
H1036 C1022 0.980 . S
H1037 C1023 0.961 . S
H1038 C1023 0.961 . S
H1039 C1023 0.951 1_455 S
H1040 C1024 0.931 . S
H1041 C1029 0.930 . S
H1042 C1030 0.956 . S
H1043 C1030 0.961 . S
H1044 C1030 0.961 . S
H1045 C1031 0.961 1_655 S
H1046 C1031 0.961 . S
H1047 C1031 0.960 1_655 S
C1048 C1049 1.391 . S
C1048 C1050 1.394 . S
C1048 H1064 0.931 . S
C1049 C1048 1.391 . S
C1049 C1053 1.376 . S
C1050 C1048 1.394 . S
C1050 C1051 1.369 . S
C1050 C1054 1.531 . S
C1051 C1050 1.369 . S
C1051 C1052 1.410 . S
C1051 C1059 1.503 . S
C1052 C1051 1.410 . S
C1052 C1053 1.392 . S
C1052 C1055 1.511 . S
C1053 C1049 1.376 . S
C1053 C1052 1.392 . S
C1053 H1065 0.929 . S
C1054 C1050 1.531 . S
C1054 H1066 0.960 . S
C1054 H1067 0.962 . S
C1054 H1068 0.960 . S
C1055 C1052 1.511 . S
C1055 H1069 0.961 . S
C1055 H1070 0.961 . S
C1055 H1071 0.961 . S
C1056 C1057 1.370 . S
C1056 C1058 1.363 . S
C1056 H1072 0.931 . S
C1057 C1056 1.370 . S
C1057 C1061 1.408 . S
C1058 C1056 1.363 . S
C1058 C1059 1.370 . S
C1058 C1062 1.524 . S
C1059 C1051 1.503 . S
C1059 C1058 1.370 . S
C1059 C1060 1.403 . S
C1060 C1059 1.403 . S
C1060 C1061 1.404 . S
C1060 C1063 1.539 . S
C1061 C1057 1.408 . S
C1061 C1060 1.404 . S
C1061 H1073 0.930 . S
C1062 C1058 1.524 . S
C1062 H1074 0.956 . S
C1062 H1075 0.961 . S
C1062 H1076 0.961 . S
C1063 C1060 1.539 . S
C1063 H1077 0.958 . S
C1063 H1078 0.961 . S
C1063 H1079 0.960 . S
H1064 C1048 0.931 . S
H1065 C1053 0.929 . S
H1066 C1054 0.960 . S
H1067 C1054 0.962 . S
H1068 C1054 0.960 . S
H1069 C1055 0.961 . S
H1070 C1055 0.961 . S
H1071 C1055 0.961 . S
H1072 C1056 0.931 . S
H1073 C1061 0.930 . S
H1074 C1062 0.956 . S
H1075 C1062 0.961 . S
H1076 C1062 0.961 . S
H1077 C1063 0.958 . S
H1078 C1063 0.961 . S
H1079 C1063 0.960 . S
C1080 C1081 1.373 1_565 S
C1080 C1082 1.388 1_565 S
C1080 H1096 0.955 . S
C1081 C1080 1.373 1_545 S
C1081 C1085 1.376 . S
C1082 C1080 1.388 1_545 S
C1082 C1083 1.369 . S
C1082 C1086 1.531 1_545 S
C1083 C1082 1.369 . S
C1083 C1084 1.410 . S
C1083 C1091 1.503 . S
C1084 C1083 1.410 . S
C1084 C1085 1.392 . S
C1084 C1087 1.511 . S
C1085 C1081 1.376 . S
C1085 C1084 1.392 . S
C1085 H1097 0.929 . S
C1086 C1082 1.531 1_565 S
C1086 H1098 0.960 . S
C1086 H1099 0.962 . S
C1086 H1100 0.960 . S
C1087 C1084 1.511 . S
C1087 H1101 0.961 . S
C1087 H1102 0.961 . S
C1087 H1103 0.961 . S
C1088 C1089 1.370 . S
C1088 C1090 1.363 . S
C1088 H1104 0.931 . S
C1089 C1088 1.370 . S
C1089 C1093 1.408 . S
C1090 C1088 1.363 . S
C1090 C1091 1.370 . S
C1090 C1094 1.524 . S
C1091 C1083 1.503 . S
C1091 C1090 1.370 . S
C1091 C1092 1.403 . S
C1092 C1091 1.403 . S
C1092 C1093 1.404 . S
C1092 C1095 1.560 . S
C1093 C1089 1.408 . S
C1093 C1092 1.404 . S
C1093 H1105 0.930 . S
C1094 C1090 1.524 . S
C1094 H1106 0.956 . S
C1094 H1107 0.961 . S
C1094 H1108 0.961 . S
C1095 C1092 1.560 . S
C1095 H1109 0.932 1_545 S
C1095 H1110 0.962 . S
C1095 H1111 0.964 . S
H1096 C1080 0.955 . S
H1097 C1085 0.929 . S
H1098 C1086 0.960 . S
H1099 C1086 0.962 . S
H1100 C1086 0.960 . S
H1101 C1087 0.961 . S
H1102 C1087 0.961 . S
H1103 C1087 0.961 . S
H1104 C1088 0.931 . S
H1105 C1093 0.930 . S
H1106 C1094 0.956 . S
H1107 C1094 0.961 . S
H1108 C1094 0.961 . S
H1109 C1095 0.932 1_565 S
H1110 C1095 0.962 . S
H1111 C1095 0.964 . S
C1112 C1113 1.391 . S
C1112 C1114 1.394 . S
C1112 H1128 0.931 . S
C1113 C1112 1.391 . S
C1113 C1117 1.376 . S
C1114 C1112 1.394 . S
C1114 C1115 1.369 . S
C1114 C1118 1.531 . S
C1115 C1114 1.369 . S
C1115 C1116 1.410 . S
C1115 C1123 1.503 . S
C1116 C1115 1.410 . S
C1116 C1117 1.392 . S
C1116 C1119 1.511 . S
C1117 C1113 1.376 . S
C1117 C1116 1.392 . S
C1117 H1129 0.929 . S
C1118 C1114 1.531 . S
C1118 H1130 0.960 . S
C1118 H1131 0.962 . S
C1118 H1132 0.960 . S
C1119 C1116 1.511 . S
C1119 H1133 0.961 . S
C1119 H1134 0.961 . S
C1119 H1135 0.961 . S
C1120 C1121 1.370 . S
C1120 C1122 1.363 . S
C1120 H1136 0.931 . S
C1121 C1120 1.370 . S
C1121 C1125 1.408 . S
C1122 C1120 1.363 . S
C1122 C1123 1.370 . S
C1122 C1126 1.524 . S
C1123 C1115 1.503 . S
C1123 C1122 1.370 . S
C1123 C1124 1.403 . S
C1124 C1123 1.403 . S
C1124 C1125 1.404 . S
C1124 C1127 1.539 . S
C1125 C1121 1.408 . S
C1125 C1124 1.404 . S
C1125 H1137 0.930 . S
C1126 C1122 1.524 . S
C1126 H1138 0.956 . S
C1126 H1139 0.961 . S
C1126 H1140 0.961 . S
C1127 C1124 1.539 . S
C1127 H1141 0.958 . S
C1127 H1142 0.961 . S
C1127 H1143 0.960 . S
H1128 C1112 0.931 . S
H1129 C1117 0.929 . S
H1130 C1118 0.960 . S
H1131 C1118 0.962 . S
H1132 C1118 0.960 . S
H1133 C1119 0.961 . S
H1134 C1119 0.961 . S
H1135 C1119 0.961 . S
H1136 C1120 0.931 . S
H1137 C1125 0.930 . S
H1138 C1126 0.956 . S
H1139 C1126 0.961 . S
H1140 C1126 0.961 . S
H1141 C1127 0.958 . S
H1142 C1127 0.961 . S
H1143 C1127 0.960 . S
C1144 C1145 1.391 . S
C1144 C1146 1.394 . S
C1144 H1160 0.931 . S
C1145 C1144 1.391 . S
C1145 C1149 1.376 . S
C1146 C1144 1.394 . S
C1146 C1147 1.369 . S
C1146 C1150 1.531 . S
C1147 C1146 1.369 . S
C1147 C1148 1.410 . S
C1147 C1155 1.503 . S
C1148 C1147 1.410 . S
C1148 C1149 1.392 . S
C1148 C1151 1.511 . S
C1149 C1145 1.376 . S
C1149 C1148 1.392 . S
C1149 H1161 0.929 . S
C1150 C1146 1.531 . S
C1150 H1162 0.960 . S
C1150 H1163 0.962 1_565 S
C1150 H1164 0.939 1_554 S
C1151 C1148 1.511 . S
C1151 H1165 0.961 . S
C1151 H1166 0.961 . S
C1151 H1167 0.961 . S
C1152 C1153 1.370 . S
C1152 C1154 1.363 1_545 S
C1152 H1168 0.931 . S
C1153 C1152 1.370 . S
C1153 C1157 1.408 1_545 S
C1154 C1152 1.363 1_565 S
C1154 C1155 1.370 . S
C1154 C1158 1.524 . S
C1155 C1147 1.503 . S
C1155 C1154 1.370 . S
C1155 C1156 1.403 . S
C1156 C1155 1.403 . S
C1156 C1157 1.404 . S
C1156 C1159 1.539 1_554 S
C1157 C1153 1.408 1_565 S
C1157 C1156 1.404 . S
C1157 H1169 0.930 . S
C1158 C1154 1.524 . S
C1158 H1170 0.956 1_565 S
C1158 H1171 0.961 . S
C1158 H1172 0.961 1_565 S
C1159 C1156 1.539 1_556 S
C1159 H1173 0.958 . S
C1159 H1174 0.961 . S
C1159 H1175 0.960 1_556 S
H1160 C1144 0.931 . S
H1161 C1149 0.929 . S
H1162 C1150 0.960 . S
H1163 C1150 0.962 1_545 S
H1164 C1150 0.939 1_556 S
H1165 C1151 0.961 . S
H1166 C1151 0.961 . S
H1167 C1151 0.961 . S
H1168 C1152 0.931 . S
H1169 C1157 0.930 . S
H1170 C1158 0.956 1_545 S
H1171 C1158 0.961 . S
H1172 C1158 0.961 1_545 S
H1173 C1159 0.958 . S
H1174 C1159 0.961 . S
H1175 C1159 0.960 1_554 S
C1176 C1177 1.391 1_554 S
C1176 C1178 1.394 . S
C1176 H1192 0.931 . S
C1177 C1176 1.391 1_556 S
C1177 C1181 1.376 . S
C1178 C1176 1.394 . S
C1178 C1179 1.369 . S
C1178 C1182 1.531 . S
C1179 C1178 1.369 . S
C1179 C1180 1.410 1_554 S
C1179 C1187 1.502 . S
C1180 C1179 1.410 1_556 S
C1180 C1181 1.392 . S
C1180 C1183 1.511 . S
C1181 C1177 1.376 . S
C1181 C1180 1.392 . S
C1181 H1193 0.929 . S
C1182 C1178 1.531 . S
C1182 H1194 0.960 . S
C1182 H1195 0.962 1_554 S
C1182 H1196 0.960 . S
C1183 C1180 1.511 . S
C1183 H1197 0.961 . S
C1183 H1198 0.961 . S
C1183 H1199 0.961 1_556 S
C1184 C1185 1.370 . S
C1184 C1186 1.363 . S
C1184 H1200 0.931 . S
C1185 C1184 1.370 . S
C1185 C1189 1.408 1_556 S
C1186 C1184 1.363 . S
C1186 C1187 1.352 1_556 S
C1186 C1190 1.524 . S
C1187 C1179 1.502 . S
C1187 C1186 1.352 1_554 S
C1187 C1188 1.423 . S
C1188 C1187 1.423 . S
C1188 C1189 1.404 . S
C1188 C1191 1.539 . S
C1189 C1185 1.408 1_554 S
C1189 C1188 1.404 . S
C1189 H1201 0.930 . S
C1190 C1186 1.524 . S
C1190 H1202 0.956 . S
C1190 H1203 0.961 . S
C1190 H1204 0.961 . S
C1191 C1188 1.539 . S
C1191 H1205 0.958 . S
C1191 H1206 0.961 . S
C1191 H1207 0.960 . S
H1192 C1176 0.931 . S
H1193 C1181 0.929 . S
H1194 C1182 0.960 . S
H1195 C1182 0.962 1_556 S
H1196 C1182 0.960 . S
H1197 C1183 0.961 . S
H1198 C1183 0.961 . S
H1199 C1183 0.961 1_554 S
H1200 C1184 0.931 . S
H1201 C1189 0.930 . S
H1202 C1190 0.956 . S
H1203 C1190 0.961 . S
H1204 C1190 0.961 . S
H1205 C1191 0.958 . S
H1206 C1191 0.961 . S
H1207 C1191 0.960 . S
C1208 C1209 1.391 . S
C1208 C1210 1.394 . S
C1208 H1224 0.931 . S
C1209 C1208 1.391 . S
C1209 C1213 1.376 . S
C1210 C1208 1.394 . S
C1210 C1211 1.369 . S
C1210 C1214 1.531 . S
C1211 C1210 1.369 . S
C1211 C1212 1.410 . S
C1211 C1219 1.503 . S
C1212 C1211 1.410 . S
C1212 C1213 1.392 . S
C1212 C1215 1.511 . S
C1213 C1209 1.376 . S
C1213 C1212 1.392 . S
C1213 H1225 0.929 . S
C1214 C1210 1.531 . S
C1214 H1226 0.960 . S
C1214 H1227 0.962 . S
C1214 H1228 0.960 . S
C1215 C1212 1.511 . S
C1215 H1229 0.961 . S
C1215 H1230 0.961 . S
C1215 H1231 0.961 . S
C1216 C1217 1.370 . S
C1216 C1218 1.363 . S
C1216 H1232 0.931 . S
C1217 C1216 1.370 . S
C1217 C1221 1.408 . S
C1218 C1216 1.363 . S
C1218 C1219 1.370 . S
C1218 C1222 1.524 . S
C1219 C1211 1.503 . S
C1219 C1218 1.370 . S
C1219 C1220 1.403 . S
C1220 C1219 1.403 . S
C1220 C1221 1.404 . S
C1220 C1223 1.539 . S
C1221 C1217 1.408 . S
C1221 C1220 1.404 . S
C1221 H1233 0.930 . S
C1222 C1218 1.524 . S
C1222 H1234 0.956 . S
C1222 H1235 0.961 . S
C1222 H1236 0.961 . S
C1223 C1220 1.539 . S
C1223 H1237 0.958 . S
C1223 H1238 0.961 . S
C1223 H1239 0.960 . S
H1224 C1208 0.931 . S
H1225 C1213 0.929 . S
H1226 C1214 0.960 . S
H1227 C1214 0.962 . S
H1228 C1214 0.960 . S
H1229 C1215 0.961 . S
H1230 C1215 0.961 . S
H1231 C1215 0.961 . S
H1232 C1216 0.931 . S
H1233 C1221 0.930 . S
H1234 C1222 0.956 . S
H1235 C1222 0.961 . S
H1236 C1222 0.961 . S
H1237 C1223 0.958 . S
H1238 C1223 0.961 . S
H1239 C1223 0.960 . S
C1240 C1241 1.391 . S
C1240 C1242 1.394 . S
C1240 H1256 0.931 . S
C1241 C1240 1.391 . S
C1241 C1245 1.376 . S
C1242 C1240 1.394 . S
C1242 C1243 1.369 . S
C1242 C1246 1.531 . S
C1243 C1242 1.369 . S
C1243 C1244 1.410 . S
C1243 C1251 1.503 . S
C1244 C1243 1.410 . S
C1244 C1245 1.392 . S
C1244 C1247 1.511 . S
C1245 C1241 1.376 . S
C1245 C1244 1.392 . S
C1245 H1257 0.929 . S
C1246 C1242 1.531 . S
C1246 H1258 0.960 . S
C1246 H1259 0.962 . S
C1246 H1260 0.960 . S
C1247 C1244 1.511 . S
C1247 H1261 0.961 . S
C1247 H1262 0.961 . S
C1247 H1263 0.961 . S
C1248 C1249 1.370 . S
C1248 C1250 1.363 . S
C1248 H1264 0.931 . S
C1249 C1248 1.370 . S
C1249 C1253 1.408 . S
C1250 C1248 1.363 . S
C1250 C1251 1.370 . S
C1250 C1254 1.524 . S
C1251 C1243 1.503 . S
C1251 C1250 1.370 . S
C1251 C1252 1.403 . S
C1252 C1251 1.403 . S
C1252 C1253 1.404 . S
C1252 C1255 1.539 . S
C1253 C1249 1.408 . S
C1253 C1252 1.404 . S
C1253 H1265 0.930 . S
C1254 C1250 1.524 . S
C1254 H1266 0.956 . S
C1254 H1267 0.961 . S
C1254 H1268 0.961 . S
C1255 C1252 1.539 . S
C1255 H1269 0.958 . S
C1255 H1270 0.961 . S
C1255 H1271 0.960 . S
H1256 C1240 0.931 . S
H1257 C1245 0.929 . S
H1258 C1246 0.960 . S
H1259 C1246 0.962 . S
H1260 C1246 0.960 . S
H1261 C1247 0.961 . S
H1262 C1247 0.961 . S
H1263 C1247 0.961 . S
H1264 C1248 0.931 . S
H1265 C1253 0.930 . S
H1266 C1254 0.956 . S
H1267 C1254 0.961 . S
H1268 C1254 0.961 . S
H1269 C1255 0.958 . S
H1270 C1255 0.961 . S
H1271 C1255 0.960 . S
C1272 C1273 1.391 . S
C1272 C1274 1.394 . S
C1272 H1288 0.931 . S
C1273 C1272 1.391 . S
C1273 C1277 1.376 . S
C1274 C1272 1.394 . S
C1274 C1275 1.369 . S
C1274 C1278 1.531 . S
C1275 C1274 1.369 . S
C1275 C1276 1.410 . S
C1275 C1283 1.503 . S
C1276 C1275 1.410 . S
C1276 C1277 1.392 . S
C1276 C1279 1.511 . S
C1277 C1273 1.376 . S
C1277 C1276 1.392 . S
C1277 H1289 0.929 . S
C1278 C1274 1.531 . S
C1278 H1290 0.960 . S
C1278 H1291 0.962 . S
C1278 H1292 0.960 . S
C1279 C1276 1.511 . S
C1279 H1293 0.961 . S
C1279 H1294 0.961 . S
C1279 H1295 0.961 . S
C1280 C1281 1.370 . S
C1280 C1282 1.363 . S
C1280 H1296 0.931 . S
C1281 C1280 1.370 . S
C1281 C1285 1.408 . S
C1282 C1280 1.363 . S
C1282 C1283 1.370 . S
C1282 C1286 1.524 . S
C1283 C1275 1.503 . S
C1283 C1282 1.370 . S
C1283 C1284 1.403 . S
C1284 C1283 1.403 . S
C1284 C1285 1.404 . S
C1284 C1287 1.539 . S
C1285 C1281 1.408 . S
C1285 C1284 1.404 . S
C1285 H1297 0.930 . S
C1286 C1282 1.524 . S
C1286 H1298 0.956 . S
C1286 H1299 0.961 . S
C1286 H1300 0.961 . S
C1287 C1284 1.539 . S
C1287 H1301 0.958 . S
C1287 H1302 0.961 . S
C1287 H1303 0.960 . S
H1288 C1272 0.931 . S
H1289 C1277 0.929 . S
H1290 C1278 0.960 . S
H1291 C1278 0.962 . S
H1292 C1278 0.960 . S
H1293 C1279 0.961 . S
H1294 C1279 0.961 . S
H1295 C1279 0.961 . S
H1296 C1280 0.931 . S
H1297 C1285 0.930 . S
H1298 C1286 0.956 . S
H1299 C1286 0.961 . S
H1300 C1286 0.961 . S
H1301 C1287 0.958 . S
H1302 C1287 0.961 . S
H1303 C1287 0.960 . S
C1304 C1305 1.391 . S
C1304 C1306 1.394 . S
C1304 H1320 0.931 . S
C1305 C1304 1.391 . S
C1305 C1309 1.376 . S
C1306 C1304 1.394 . S
C1306 C1307 1.369 . S
C1306 C1310 1.531 . S
C1307 C1306 1.369 . S
C1307 C1308 1.410 . S
C1307 C1315 1.503 . S
C1308 C1307 1.410 . S
C1308 C1309 1.392 . S
C1308 C1311 1.511 . S
C1309 C1305 1.376 . S
C1309 C1308 1.392 . S
C1309 H1321 0.929 . S
C1310 C1306 1.531 . S
C1310 H1322 0.960 . S
C1310 H1323 0.962 . S
C1310 H1324 0.960 . S
C1311 C1308 1.511 . S
C1311 H1325 0.961 . S
C1311 H1326 0.961 . S
C1311 H1327 0.961 . S
C1312 C1313 1.370 . S
C1312 C1314 1.363 . S
C1312 H1328 0.931 . S
C1313 C1312 1.370 . S
C1313 C1317 1.408 . S
C1314 C1312 1.363 . S
C1314 C1315 1.370 . S
C1314 C1318 1.524 . S
C1315 C1307 1.503 . S
C1315 C1314 1.370 . S
C1315 C1316 1.403 . S
C1316 C1315 1.403 . S
C1316 C1317 1.404 . S
C1316 C1319 1.539 . S
C1317 C1313 1.408 . S
C1317 C1316 1.404 . S
C1317 H1329 0.930 . S
C1318 C1314 1.524 . S
C1318 H1330 0.956 . S
C1318 H1331 0.961 . S
C1318 H1332 0.961 . S
C1319 C1316 1.539 . S
C1319 H1333 0.958 . S
C1319 H1334 0.961 . S
C1319 H1335 0.960 . S
H1320 C1304 0.931 . S
H1321 C1309 0.929 . S
H1322 C1310 0.960 . S
H1323 C1310 0.962 . S
H1324 C1310 0.960 . S
H1325 C1311 0.961 . S
H1326 C1311 0.961 . S
H1327 C1311 0.961 . S
H1328 C1312 0.931 . S
H1329 C1317 0.930 . S
H1330 C1318 0.956 . S
H1331 C1318 0.961 . S
H1332 C1318 0.961 . S
H1333 C1319 0.958 . S
H1334 C1319 0.961 . S
H1335 C1319 0.960 . S
C1336 C1337 1.391 . S
C1336 C1338 1.394 . S
C1336 H1352 0.931 . S
C1337 C1336 1.391 . S
C1337 C1341 1.376 . S
C1338 C1336 1.394 . S
C1338 C1339 1.369 . S
C1338 C1342 1.531 . S
C1339 C1338 1.369 . S
C1339 C1340 1.410 . S
C1339 C1347 1.503 . S
C1340 C1339 1.410 . S
C1340 C1341 1.392 . S
C1340 C1343 1.511 . S
C1341 C1337 1.376 . S
C1341 C1340 1.392 . S
C1341 H1353 0.929 . S
C1342 C1338 1.531 . S
C1342 H1354 0.960 . S
C1342 H1355 0.962 . S
C1342 H1356 0.960 . S
C1343 C1340 1.511 . S
C1343 H1357 0.961 . S
C1343 H1358 0.961 . S
C1343 H1359 0.961 . S
C1344 C1345 1.370 . S
C1344 C1346 1.363 . S
C1344 H1360 0.931 . S
C1345 C1344 1.370 . S
C1345 C1349 1.408 . S
C1346 C1344 1.363 . S
C1346 C1347 1.370 . S
C1346 C1350 1.524 . S
C1347 C1339 1.503 . S
C1347 C1346 1.370 . S
C1347 C1348 1.403 . S
C1348 C1347 1.403 . S
C1348 C1349 1.404 . S
C1348 C1351 1.539 . S
C1349 C1345 1.408 . S
C1349 C1348 1.404 . S
C1349 H1361 0.930 . S
C1350 C1346 1.524 . S
C1350 H1362 0.956 . S
C1350 H1363 0.961 . S
C1350 H1364 0.961 . S
C1351 C1348 1.539 . S
C1351 H1365 0.958 . S
C1351 H1366 0.961 . S
C1351 H1367 0.960 . S
H1352 C1336 0.931 . S
H1353 C1341 0.929 . S
H1354 C1342 0.960 . S
H1355 C1342 0.962 . S
H1356 C1342 0.960 . S
H1357 C1343 0.961 . S
H1358 C1343 0.961 . S
H1359 C1343 0.961 . S
H1360 C1344 0.931 . S
H1361 C1349 0.930 . S
H1362 C1350 0.956 . S
H1363 C1350 0.961 . S
H1364 C1350 0.961 . S
H1365 C1351 0.958 . S
H1366 C1351 0.961 . S
H1367 C1351 0.960 . S
C1368 C1369 1.391 . S
C1368 C1370 1.394 . S
C1368 H1384 0.931 . S
C1369 C1368 1.391 . S
C1369 C1373 1.376 . S
C1370 C1368 1.394 . S
C1370 C1371 1.369 . S
C1370 C1374 1.531 . S
C1371 C1370 1.369 . S
C1371 C1372 1.410 . S
C1371 C1379 1.503 . S
C1372 C1371 1.410 . S
C1372 C1373 1.392 . S
C1372 C1375 1.511 . S
C1373 C1369 1.376 . S
C1373 C1372 1.392 . S
C1373 H1385 0.929 . S
C1374 C1370 1.531 . S
C1374 H1386 0.960 . S
C1374 H1387 0.962 . S
C1374 H1388 0.960 . S
C1375 C1372 1.511 . S
C1375 H1389 0.961 . S
C1375 H1390 0.961 . S
C1375 H1391 0.961 . S
C1376 C1377 1.370 . S
C1376 C1378 1.363 . S
C1376 H1392 0.931 . S
C1377 C1376 1.370 . S
C1377 C1381 1.408 . S
C1378 C1376 1.363 . S
C1378 C1379 1.370 . S
C1378 C1382 1.524 . S
C1379 C1371 1.503 . S
C1379 C1378 1.370 . S
C1379 C1380 1.403 . S
C1380 C1379 1.403 . S
C1380 C1381 1.404 . S
C1380 C1383 1.539 . S
C1381 C1377 1.408 . S
C1381 C1380 1.404 . S
C1381 H1393 0.930 . S
C1382 C1378 1.524 . S
C1382 H1394 0.956 . S
C1382 H1395 0.961 . S
C1382 H1396 0.961 . S
C1383 C1380 1.539 . S
C1383 H1397 0.958 . S
C1383 H1398 0.961 . S
C1383 H1399 0.960 . S
H1384 C1368 0.931 . S
H1385 C1373 0.929 . S
H1386 C1374 0.960 . S
H1387 C1374 0.962 . S
H1388 C1374 0.960 . S
H1389 C1375 0.961 . S
H1390 C1375 0.961 . S
H1391 C1375 0.961 . S
H1392 C1376 0.931 . S
H1393 C1381 0.930 . S
H1394 C1382 0.956 . S
H1395 C1382 0.961 . S
H1396 C1382 0.961 . S
H1397 C1383 0.958 . S
H1398 C1383 0.961 . S
H1399 C1383 0.960 . S
C1400 C1401 1.391 . S
C1400 C1402 1.394 . S
C1400 H1416 0.931 . S
C1401 C1400 1.391 . S
C1401 C1405 1.376 . S
C1402 C1400 1.394 . S
C1402 C1403 1.369 . S
C1402 C1406 1.531 . S
C1403 C1402 1.369 . S
C1403 C1404 1.410 . S
C1403 C1411 1.503 . S
C1404 C1403 1.410 . S
C1404 C1405 1.392 . S
C1404 C1407 1.511 1_455 S
C1405 C1401 1.376 . S
C1405 C1404 1.392 . S
C1405 H1417 0.929 1_455 S
C1406 C1402 1.531 . S
C1406 H1418 0.960 . S
C1406 H1419 0.962 . S
C1406 H1420 0.960 . S
C1407 C1404 1.511 1_655 S
C1407 H1421 0.961 . S
C1407 H1422 0.961 . S
C1407 H1423 0.961 . S
C1408 C1409 1.370 . S
C1408 C1410 1.363 . S
C1408 H1424 0.931 . S
C1409 C1408 1.370 . S
C1409 C1413 1.408 . S
C1410 C1408 1.363 . S
C1410 C1411 1.370 . S
C1410 C1414 1.524 . S
C1411 C1403 1.503 . S
C1411 C1410 1.370 . S
C1411 C1412 1.403 . S
C1412 C1411 1.403 . S
C1412 C1413 1.404 . S
C1412 C1415 1.539 1_455 S
C1413 C1409 1.408 . S
C1413 C1412 1.404 . S
C1413 H1425 0.930 . S
C1414 C1410 1.524 . S
C1414 H1426 0.956 . S
C1414 H1427 0.961 . S
C1414 H1428 0.961 . S
C1415 C1412 1.539 1_655 S
C1415 H1429 0.958 1_655 S
C1415 H1430 0.961 . S
C1415 H1431 0.960 . S
H1416 C1400 0.931 . S
H1417 C1405 0.929 1_655 S
H1418 C1406 0.960 . S
H1419 C1406 0.962 . S
H1420 C1406 0.960 . S
H1421 C1407 0.961 . S
H1422 C1407 0.961 . S
H1423 C1407 0.961 . S
H1424 C1408 0.931 . S
H1425 C1413 0.930 . S
H1426 C1414 0.956 . S
H1427 C1414 0.961 . S
H1428 C1414 0.961 . S
H1429 C1415 0.958 1_455 S
H1430 C1415 0.961 . S
H1431 C1415 0.960 . S
C1432 C1433 1.391 . S
C1432 C1434 1.394 . S
C1432 H1448 0.931 . S
C1433 C1432 1.391 . S
C1433 C1437 1.376 . S
C1434 C1432 1.394 . S
C1434 C1435 1.369 . S
C1434 C1438 1.531 . S
C1435 C1434 1.369 . S
C1435 C1436 1.410 . S
C1435 C1443 1.503 . S
C1436 C1435 1.410 . S
C1436 C1437 1.392 . S
C1436 C1439 1.511 . S
C1437 C1433 1.376 . S
C1437 C1436 1.392 . S
C1437 H1449 0.929 . S
C1438 C1434 1.531 . S
C1438 H1450 0.960 . S
C1438 H1451 0.962 . S
C1438 H1452 0.960 . S
C1439 C1436 1.511 . S
C1439 H1453 0.961 . S
C1439 H1454 0.961 . S
C1439 H1455 0.961 . S
C1440 C1441 1.370 . S
C1440 C1442 1.363 . S
C1440 H1456 0.931 . S
C1441 C1440 1.370 . S
C1441 C1445 1.408 . S
C1442 C1440 1.363 . S
C1442 C1443 1.370 . S
C1442 C1446 1.524 . S
C1443 C1435 1.503 . S
C1443 C1442 1.370 . S
C1443 C1444 1.403 . S
C1444 C1443 1.403 . S
C1444 C1445 1.404 . S
C1444 C1447 1.539 . S
C1445 C1441 1.408 . S
C1445 C1444 1.404 . S
C1445 H1457 0.930 . S
C1446 C1442 1.524 . S
C1446 H1458 0.956 . S
C1446 H1459 0.961 . S
C1446 H1460 0.961 . S
C1447 C1444 1.539 . S
C1447 H1461 0.958 . S
C1447 H1462 0.961 . S
C1447 H1463 0.960 . S
H1448 C1432 0.931 . S
H1449 C1437 0.929 . S
H1450 C1438 0.960 . S
H1451 C1438 0.962 . S
H1452 C1438 0.960 . S
H1453 C1439 0.961 . S
H1454 C1439 0.961 . S
H1455 C1439 0.961 . S
H1456 C1440 0.931 . S
H1457 C1445 0.930 . S
H1458 C1446 0.956 . S
H1459 C1446 0.961 . S
H1460 C1446 0.961 . S
H1461 C1447 0.958 . S
H1462 C1447 0.961 . S
H1463 C1447 0.960 . S
C1464 C1465 1.391 . S
C1464 C1466 1.394 . S
C1464 H1480 0.931 . S
C1465 C1464 1.391 . S
C1465 C1469 1.376 . S
C1466 C1464 1.394 . S
C1466 C1467 1.369 . S
C1466 C1470 1.531 . S
C1467 C1466 1.369 . S
C1467 C1468 1.410 . S
C1467 C1475 1.503 . S
C1468 C1467 1.410 . S
C1468 C1469 1.392 . S
C1468 C1471 1.511 . S
C1469 C1465 1.376 . S
C1469 C1468 1.392 . S
C1469 H1481 0.929 . S
C1470 C1466 1.531 . S
C1470 H1482 0.960 . S
C1470 H1483 0.962 . S
C1470 H1484 0.960 . S
C1471 C1468 1.511 . S
C1471 H1485 0.961 . S
C1471 H1486 0.961 . S
C1471 H1487 0.961 . S
C1472 C1473 1.370 . S
C1472 C1474 1.363 . S
C1472 H1488 0.931 . S
C1473 C1472 1.370 . S
C1473 C1477 1.408 . S
C1474 C1472 1.363 . S
C1474 C1475 1.370 . S
C1474 C1478 1.524 . S
C1475 C1467 1.503 . S
C1475 C1474 1.370 . S
C1475 C1476 1.403 . S
C1476 C1475 1.403 . S
C1476 C1477 1.404 . S
C1476 C1479 1.539 . S
C1477 C1473 1.408 . S
C1477 C1476 1.404 . S
C1477 H1489 0.930 . S
C1478 C1474 1.524 . S
C1478 H1490 0.956 . S
C1478 H1491 0.961 . S
C1478 H1492 0.961 . S
C1479 C1476 1.539 . S
C1479 H1493 0.958 . S
C1479 H1494 0.961 . S
C1479 H1495 0.960 . S
H1480 C1464 0.931 . S
H1481 C1469 0.929 . S
H1482 C1470 0.960 . S
H1483 C1470 0.962 . S
H1484 C1470 0.960 . S
H1485 C1471 0.961 . S
H1486 C1471 0.961 . S
H1487 C1471 0.961 . S
H1488 C1472 0.931 . S
H1489 C1477 0.930 . S
H1490 C1478 0.956 . S
H1491 C1478 0.961 . S
H1492 C1478 0.961 . S
H1493 C1479 0.958 . S
H1494 C1479 0.961 . S
H1495 C1479 0.960 . S
C1496 C1497 1.391 . S
C1496 C1498 1.394 . S
C1496 H1512 0.931 . S
C1497 C1496 1.391 . S
C1497 C1501 1.376 . S
C1498 C1496 1.394 . S
C1498 C1499 1.369 . S
C1498 C1502 1.531 . S
C1499 C1498 1.369 . S
C1499 C1500 1.410 . S
C1499 C1507 1.503 . S
C1500 C1499 1.410 . S
C1500 C1501 1.392 . S
C1500 C1503 1.511 . S
C1501 C1497 1.376 . S
C1501 C1500 1.392 . S
C1501 H1513 0.929 . S
C1502 C1498 1.531 . S
C1502 H1514 0.960 . S
C1502 H1515 0.962 . S
C1502 H1516 0.960 . S
C1503 C1500 1.511 . S
C1503 H1517 0.961 . S
C1503 H1518 0.961 . S
C1503 H1519 0.961 . S
C1504 C1505 1.370 . S
C1504 C1506 1.363 . S
C1504 H1520 0.931 . S
C1505 C1504 1.370 . S
C1505 C1509 1.408 . S
C1506 C1504 1.363 . S
C1506 C1507 1.370 . S
C1506 C1510 1.524 . S
C1507 C1499 1.503 . S
C1507 C1506 1.370 . S
C1507 C1508 1.403 . S
C1508 C1507 1.403 . S
C1508 C1509 1.404 . S
C1508 C1511 1.539 . S
C1509 C1505 1.408 . S
C1509 C1508 1.404 . S
C1509 H1521 0.930 . S
C1510 C1506 1.524 . S
C1510 H1522 0.956 . S
C1510 H1523 0.961 . S
C1510 H1524 0.961 . S
C1511 C1508 1.539 . S
C1511 H1525 0.958 . S
C1511 H1526 0.961 . S
C1511 H1527 0.960 . S
H1512 C1496 0.931 . S
H1513 C1501 0.929 . S
H1514 C1502 0.960 . S
H1515 C1502 0.962 . S
H1516 C1502 0.960 . S
H1517 C1503 0.961 . S
H1518 C1503 0.961 . S
H1519 C1503 0.961 . S
H1520 C1504 0.931 . S
H1521 C1509 0.930 . S
H1522 C1510 0.956 . S
H1523 C1510 0.961 . S
H1524 C1510 0.961 . S
H1525 C1511 0.958 . S
H1526 C1511 0.961 . S
H1527 C1511 0.960 . S
C1528 C1529 1.391 . S
C1528 C1530 1.394 . S
C1528 H1544 0.931 . S
C1529 C1528 1.391 . S
C1529 C1533 1.376 . S
C1530 C1528 1.394 . S
C1530 C1531 1.369 . S
C1530 C1534 1.531 . S
C1531 C1530 1.369 . S
C1531 C1532 1.410 . S
C1531 C1539 1.503 . S
C1532 C1531 1.410 . S
C1532 C1533 1.392 . S
C1532 C1535 1.511 . S
C1533 C1529 1.376 . S
C1533 C1532 1.392 . S
C1533 H1545 0.929 . S
C1534 C1530 1.531 . S
C1534 H1546 0.960 . S
C1534 H1547 0.962 1_455 S
C1534 H1548 0.960 . S
C1535 C1532 1.511 . S
C1535 H1549 0.961 . S
C1535 H1550 0.961 . S
C1535 H1551 0.961 . S
C1536 C1537 1.370 1_655 S
C1536 C1538 1.363 1_655 S
C1536 H1552 0.931 . S
C1537 C1536 1.370 1_455 S
C1537 C1541 1.408 . S
C1538 C1536 1.363 1_455 S
C1538 C1539 1.370 . S
C1538 C1542 1.524 1_455 S
C1539 C1531 1.503 . S
C1539 C1538 1.370 . S
C1539 C1540 1.403 . S
C1540 C1539 1.403 . S
C1540 C1541 1.404 . S
C1540 C1543 1.539 . S
C1541 C1537 1.408 . S
C1541 C1540 1.404 . S
C1541 H1553 0.930 . S
C1542 C1538 1.524 1_655 S
C1542 H1554 0.956 . S
C1542 H1555 0.961 . S
C1542 H1556 0.961 . S
C1543 C1540 1.539 . S
C1543 H1557 0.958 . S
C1543 H1558 0.961 . S
C1543 H1559 0.960 . S
H1544 C1528 0.931 . S
H1545 C1533 0.929 . S
H1546 C1534 0.960 . S
H1547 C1534 0.962 1_655 S
H1548 C1534 0.960 . S
H1549 C1535 0.961 . S
H1550 C1535 0.961 . S
H1551 C1535 0.961 . S
H1552 C1536 0.931 . S
H1553 C1541 0.930 . S
H1554 C1542 0.956 . S
H1555 C1542 0.961 . S
H1556 C1542 0.961 . S
H1557 C1543 0.958 . S
H1558 C1543 0.961 . S
H1559 C1543 0.960 . S
C1560 C1561 1.391 . S
C1560 C1562 1.394 . S
C1560 H1576 0.931 . S
C1561 C1560 1.391 . S
C1561 C1565 1.376 . S
C1562 C1560 1.394 . S
C1562 C1563 1.369 . S
C1562 C1566 1.531 . S
C1563 C1562 1.369 . S
C1563 C1564 1.410 . S
C1563 C1571 1.503 . S
C1564 C1563 1.410 . S
C1564 C1565 1.392 . S
C1564 C1567 1.511 . S
C1565 C1561 1.376 . S
C1565 C1564 1.392 . S
C1565 H1577 0.929 . S
C1566 C1562 1.531 . S
C1566 H1578 0.960 . S
C1566 H1579 0.962 . S
C1566 H1580 0.960 . S
C1567 C1564 1.511 . S
C1567 H1581 0.961 . S
C1567 H1582 0.961 . S
C1567 H1583 0.961 . S
C1568 C1569 1.370 . S
C1568 C1570 1.363 . S
C1568 H1584 0.931 . S
C1569 C1568 1.370 . S
C1569 C1573 1.408 . S
C1570 C1568 1.363 . S
C1570 C1571 1.370 . S
C1570 C1574 1.524 . S
C1571 C1563 1.503 . S
C1571 C1570 1.370 . S
C1571 C1572 1.403 . S
C1572 C1571 1.403 . S
C1572 C1573 1.404 . S
C1572 C1575 1.539 . S
C1573 C1569 1.408 . S
C1573 C1572 1.404 . S
C1573 H1585 0.930 . S
C1574 C1570 1.524 . S
C1574 H1586 0.956 . S
C1574 H1587 0.961 . S
C1574 H1588 0.961 . S
C1575 C1572 1.539 . S
C1575 H1589 0.958 . S
C1575 H1590 0.961 . S
C1575 H1591 0.960 . S
H1576 C1560 0.931 . S
H1577 C1565 0.929 . S
H1578 C1566 0.960 . S
H1579 C1566 0.962 . S
H1580 C1566 0.960 . S
H1581 C1567 0.961 . S
H1582 C1567 0.961 . S
H1583 C1567 0.961 . S
H1584 C1568 0.931 . S
H1585 C1573 0.930 . S
H1586 C1574 0.956 . S
H1587 C1574 0.961 . S
H1588 C1574 0.961 . S
H1589 C1575 0.958 . S
H1590 C1575 0.961 . S
H1591 C1575 0.960 . S
C1592 C1593 1.391 . S
C1592 C1594 1.394 . S
C1592 H1608 0.931 . S
C1593 C1592 1.391 . S
C1593 C1597 1.376 . S
C1594 C1592 1.394 . S
C1594 C1595 1.369 . S
C1594 C1598 1.531 . S
C1595 C1594 1.369 . S
C1595 C1596 1.410 . S
C1595 C1603 1.503 . S
C1596 C1595 1.410 . S
C1596 C1597 1.392 . S
C1596 C1599 1.511 . S
C1597 C1593 1.376 . S
C1597 C1596 1.392 . S
C1597 H1609 0.929 . S
C1598 C1594 1.531 . S
C1598 H1610 0.960 . S
C1598 H1611 0.962 . S
C1598 H1612 0.960 . S
C1599 C1596 1.511 . S
C1599 H1613 0.961 . S
C1599 H1614 0.961 . S
C1599 H1615 0.961 . S
C1600 C1601 1.370 . S
C1600 C1602 1.363 . S
C1600 H1616 0.931 . S
C1601 C1600 1.370 . S
C1601 C1605 1.408 . S
C1602 C1600 1.363 . S
C1602 C1603 1.370 . S
C1602 C1606 1.524 . S
C1603 C1595 1.503 . S
C1603 C1602 1.370 . S
C1603 C1604 1.403 . S
C1604 C1603 1.403 . S
C1604 C1605 1.404 . S
C1604 C1607 1.539 1_556 S
C1605 C1601 1.408 . S
C1605 C1604 1.404 . S
C1605 H1617 0.930 1_556 S
C1606 C1602 1.524 . S
C1606 H1618 0.956 . S
C1606 H1619 0.961 . S
C1606 H1620 0.961 . S
C1607 C1604 1.539 1_554 S
C1607 H1621 0.959 . S
C1607 H1622 0.962 . S
C1607 H1623 0.959 1_554 S
H1608 C1592 0.931 . S
H1609 C1597 0.929 . S
H1610 C1598 0.960 . S
H1611 C1598 0.962 . S
H1612 C1598 0.960 . S
H1613 C1599 0.961 . S
H1614 C1599 0.961 . S
H1615 C1599 0.961 . S
H1616 C1600 0.931 . S
H1617 C1605 0.930 1_554 S
H1618 C1606 0.956 . S
H1619 C1606 0.961 . S
H1620 C1606 0.961 . S
H1621 C1607 0.959 . S
H1622 C1607 0.962 . S
H1623 C1607 0.959 1_556 S
C1624 C1625 1.391 . S
C1624 C1626 1.394 . S
C1624 H1640 0.931 . S
C1625 C1624 1.391 . S
C1625 C1629 1.376 . S
C1626 C1624 1.394 . S
C1626 C1627 1.369 . S
C1626 C1630 1.531 . S
C1627 C1626 1.369 . S
C1627 C1628 1.410 . S
C1627 C1635 1.503 . S
C1628 C1627 1.410 . S
C1628 C1629 1.392 . S
C1628 C1631 1.511 . S
C1629 C1625 1.376 . S
C1629 C1628 1.392 . S
C1629 H1641 0.929 . S
C1630 C1626 1.531 . S
C1630 H1642 0.960 . S
C1630 H1643 0.962 . S
C1630 H1644 0.960 . S
C1631 C1628 1.511 . S
C1631 H1645 0.961 . S
C1631 H1646 0.961 . S
C1631 H1647 0.961 . S
C1632 C1633 1.370 . S
C1632 C1634 1.363 . S
C1632 H1648 0.931 . S
C1633 C1632 1.370 . S
C1633 C1637 1.408 . S
C1634 C1632 1.363 . S
C1634 C1635 1.370 . S
C1634 C1638 1.524 . S
C1635 C1627 1.503 . S
C1635 C1634 1.370 . S
C1635 C1636 1.403 . S
C1636 C1635 1.403 . S
C1636 C1637 1.404 . S
C1636 C1639 1.539 . S
C1637 C1633 1.408 . S
C1637 C1636 1.404 . S
C1637 H1649 0.930 . S
C1638 C1634 1.524 . S
C1638 H1650 0.956 . S
C1638 H1651 0.961 . S
C1638 H1652 0.961 . S
C1639 C1636 1.539 . S
C1639 H1653 0.958 . S
C1639 H1654 0.961 . S
C1639 H1655 0.960 . S
H1640 C1624 0.931 . S
H1641 C1629 0.929 . S
H1642 C1630 0.960 . S
H1643 C1630 0.962 . S
H1644 C1630 0.960 . S
H1645 C1631 0.961 . S
H1646 C1631 0.961 . S
H1647 C1631 0.961 . S
H1648 C1632 0.931 . S
H1649 C1637 0.930 . S
H1650 C1638 0.956 . S
H1651 C1638 0.961 . S
H1652 C1638 0.961 . S
H1653 C1639 0.958 . S
H1654 C1639 0.961 . S
H1655 C1639 0.960 . S
C1656 C1657 1.391 . S
C1656 C1658 1.394 . S
C1656 H1672 0.931 . S
C1657 C1656 1.391 . S
C1657 C1661 1.376 1_545 S
C1658 C1656 1.394 . S
C1658 C1659 1.369 . S
C1658 C1662 1.531 . S
C1659 C1658 1.369 . S
C1659 C1660 1.410 1_545 S
C1659 C1667 1.503 . S
C1660 C1659 1.410 1_565 S
C1660 C1661 1.392 . S
C1660 C1663 1.511 . S
C1661 C1657 1.376 1_565 S
C1661 C1660 1.392 . S
C1661 H1673 0.929 . S
C1662 C1658 1.531 . S
C1662 H1674 0.960 . S
C1662 H1675 0.962 . S
C1662 H1676 0.960 . S
C1663 C1660 1.511 . S
C1663 H1677 0.961 . S
C1663 H1678 0.961 . S
C1663 H1679 0.961 . S
C1664 C1665 1.370 . S
C1664 C1666 1.363 . S
C1664 H1680 0.931 . S
C1665 C1664 1.370 . S
C1665 C1669 1.408 . S
C1666 C1664 1.363 . S
C1666 C1667 1.370 . S
C1666 C1670 1.524 . S
C1667 C1659 1.503 . S
C1667 C1666 1.370 . S
C1667 C1668 1.403 . S
C1668 C1667 1.403 . S
C1668 C1669 1.404 . S
C1668 C1671 1.539 . S
C1669 C1665 1.408 . S
C1669 C1668 1.404 . S
C1669 H1681 0.930 . S
C1670 C1666 1.524 . S
C1670 H1682 0.956 . S
C1670 H1683 0.961 . S
C1670 H1684 0.961 . S
C1671 C1668 1.539 . S
C1671 H1685 0.958 . S
C1671 H1686 0.961 1_545 S
C1671 H1687 0.960 1_545 S
H1672 C1656 0.931 . S
H1673 C1661 0.929 . S
H1674 C1662 0.960 . S
H1675 C1662 0.962 . S
H1676 C1662 0.960 . S
H1677 C1663 0.961 . S
H1678 C1663 0.961 . S
H1679 C1663 0.961 . S
H1680 C1664 0.931 . S
H1681 C1669 0.930 . S
H1682 C1670 0.956 . S
H1683 C1670 0.961 . S
H1684 C1670 0.961 . S
H1685 C1671 0.958 . S
H1686 C1671 0.961 1_565 S
H1687 C1671 0.960 1_565 S
C1688 C1689 1.391 . S
C1688 C1690 1.394 . S
C1688 H1704 0.931 . S
C1689 C1688 1.391 . S
C1689 C1693 1.376 . S
C1690 C1688 1.394 . S
C1690 C1691 1.369 . S
C1690 C1694 1.531 . S
C1691 C1690 1.369 . S
C1691 C1692 1.410 . S
C1691 C1699 1.503 . S
C1692 C1691 1.410 . S
C1692 C1693 1.392 . S
C1692 C1695 1.511 . S
C1693 C1689 1.376 . S
C1693 C1692 1.392 . S
C1693 H1705 0.929 . S
C1694 C1690 1.531 . S
C1694 H1706 0.960 . S
C1694 H1707 0.962 . S
C1694 H1708 0.960 . S
C1695 C1692 1.511 . S
C1695 H1709 0.961 . S
C1695 H1710 0.961 . S
C1695 H1711 0.961 . S
C1696 C1697 1.370 . S
C1696 C1698 1.363 . S
C1696 H1712 0.931 . S
C1697 C1696 1.370 . S
C1697 C1701 1.408 . S
C1698 C1696 1.363 . S
C1698 C1699 1.370 . S
C1698 C1702 1.524 . S
C1699 C1691 1.503 . S
C1699 C1698 1.370 . S
C1699 C1700 1.403 . S
C1700 C1699 1.403 . S
C1700 C1701 1.404 . S
C1700 C1703 1.539 . S
C1701 C1697 1.408 . S
C1701 C1700 1.404 . S
C1701 H1713 0.930 . S
C1702 C1698 1.524 . S
C1702 H1714 0.956 . S
C1702 H1715 0.961 . S
C1702 H1716 0.961 . S
C1703 C1700 1.539 . S
C1703 H1717 0.958 . S
C1703 H1718 0.961 . S
C1703 H1719 0.960 . S
H1704 C1688 0.931 . S
H1705 C1693 0.929 . S
H1706 C1694 0.960 . S
H1707 C1694 0.962 . S
H1708 C1694 0.960 . S
H1709 C1695 0.961 . S
H1710 C1695 0.961 . S
H1711 C1695 0.961 . S
H1712 C1696 0.931 . S
H1713 C1701 0.930 . S
H1714 C1702 0.956 . S
H1715 C1702 0.961 . S
H1716 C1702 0.961 . S
H1717 C1703 0.958 . S
H1718 C1703 0.961 . S
H1719 C1703 0.960 . S
C1720 C1721 1.391 . S
C1720 C1722 1.394 . S
C1720 H1736 0.931 . S
C1721 C1720 1.391 . S
C1721 C1725 1.376 . S
C1722 C1720 1.394 . S
C1722 C1723 1.369 . S
C1722 C1726 1.531 . S
C1723 C1722 1.369 . S
C1723 C1724 1.410 . S
C1723 C1731 1.503 . S
C1724 C1723 1.410 . S
C1724 C1725 1.392 . S
C1724 C1727 1.511 . S
C1725 C1721 1.376 . S
C1725 C1724 1.392 . S
C1725 H1737 0.929 . S
C1726 C1722 1.531 . S
C1726 H1738 0.960 . S
C1726 H1739 0.962 . S
C1726 H1740 0.960 . S
C1727 C1724 1.511 . S
C1727 H1741 0.961 . S
C1727 H1742 0.961 . S
C1727 H1743 0.961 . S
C1728 C1729 1.370 . S
C1728 C1730 1.363 . S
C1728 H1744 0.931 1_545 S
C1729 C1728 1.370 . S
C1729 C1733 1.408 . S
C1730 C1728 1.363 . S
C1730 C1731 1.370 . S
C1730 C1734 1.524 1_545 S
C1731 C1723 1.503 . S
C1731 C1730 1.370 . S
C1731 C1732 1.403 . S
C1732 C1731 1.403 . S
C1732 C1733 1.404 . S
C1732 C1735 1.539 . S
C1733 C1729 1.408 . S
C1733 C1732 1.404 . S
C1733 H1745 0.930 . S
C1734 C1730 1.524 1_565 S
C1734 H1746 0.956 . S
C1734 H1747 0.961 . S
C1734 H1748 0.961 . S
C1735 C1732 1.539 . S
C1735 H1749 0.958 . S
C1735 H1750 0.961 . S
C1735 H1751 0.960 . S
H1736 C1720 0.931 . S
H1737 C1725 0.929 . S
H1738 C1726 0.960 . S
H1739 C1726 0.962 . S
H1740 C1726 0.960 . S
H1741 C1727 0.961 . S
H1742 C1727 0.961 . S
H1743 C1727 0.961 . S
H1744 C1728 0.931 1_565 S
H1745 C1733 0.930 . S
H1746 C1734 0.956 . S
H1747 C1734 0.961 . S
H1748 C1734 0.961 . S
H1749 C1735 0.958 . S
H1750 C1735 0.961 . S
H1751 C1735 0.960 . S
C1752 C1753 1.391 . S
C1752 C1754 1.394 . S
C1752 H1768 0.931 . S
C1753 C1752 1.391 . S
C1753 C1757 1.376 . S
C1754 C1752 1.394 . S
C1754 C1755 1.369 . S
C1754 C1758 1.531 . S
C1755 C1754 1.369 . S
C1755 C1756 1.410 . S
C1755 C1763 1.503 . S
C1756 C1755 1.410 . S
C1756 C1757 1.392 . S
C1756 C1759 1.511 . S
C1757 C1753 1.376 . S
C1757 C1756 1.392 . S
C1757 H1769 0.929 . S
C1758 C1754 1.531 . S
C1758 H1770 0.960 . S
C1758 H1771 0.962 . S
C1758 H1772 0.960 . S
C1759 C1756 1.511 . S
C1759 H1773 0.961 . S
C1759 H1774 0.961 . S
C1759 H1775 0.961 . S
C1760 C1761 1.370 . S
C1760 C1762 1.363 . S
C1760 H1776 0.931 . S
C1761 C1760 1.370 . S
C1761 C1765 1.408 . S
C1762 C1760 1.363 . S
C1762 C1763 1.370 . S
C1762 C1766 1.524 . S
C1763 C1755 1.503 . S
C1763 C1762 1.370 . S
C1763 C1764 1.403 . S
C1764 C1763 1.403 . S
C1764 C1765 1.404 . S
C1764 C1767 1.539 . S
C1765 C1761 1.408 . S
C1765 C1764 1.404 . S
C1765 H1777 0.930 . S
C1766 C1762 1.524 . S
C1766 H1778 0.956 . S
C1766 H1779 0.961 . S
C1766 H1780 0.961 . S
C1767 C1764 1.539 . S
C1767 H1781 0.958 . S
C1767 H1782 0.961 . S
C1767 H1783 0.960 . S
H1768 C1752 0.931 . S
H1769 C1757 0.929 . S
H1770 C1758 0.960 . S
H1771 C1758 0.962 . S
H1772 C1758 0.960 . S
H1773 C1759 0.961 . S
H1774 C1759 0.961 . S
H1775 C1759 0.961 . S
H1776 C1760 0.931 . S
H1777 C1765 0.930 . S
H1778 C1766 0.956 . S
H1779 C1766 0.961 . S
H1780 C1766 0.961 . S
H1781 C1767 0.958 . S
H1782 C1767 0.961 . S
H1783 C1767 0.960 . S
C1784 C1785 1.391 . S
C1784 C1786 1.390 1_565 S
C1784 H1800 0.931 1_565 S
C1785 C1784 1.391 . S
C1785 C1789 1.376 . S
C1786 C1784 1.390 1_545 S
C1786 C1787 1.366 1_545 S
C1786 C1790 1.538 . S
C1787 C1786 1.366 1_565 S
C1787 C1788 1.410 . S
C1787 C1795 1.503 . S
C1788 C1787 1.410 . S
C1788 C1789 1.392 . S
C1788 C1791 1.511 . S
C1789 C1785 1.376 . S
C1789 C1788 1.392 . S
C1789 H1801 0.929 . S
C1790 C1786 1.538 . S
C1790 H1802 0.960 . S
C1790 H1803 0.962 . S
C1790 H1804 0.960 . S
C1791 C1788 1.511 . S
C1791 H1805 0.961 . S
C1791 H1806 0.961 . S
C1791 H1807 0.961 . S
C1792 C1793 1.370 . S
C1792 C1794 1.363 . S
C1792 H1808 0.931 . S
C1793 C1792 1.370 . S
C1793 C1797 1.408 1_545 S
C1794 C1792 1.363 . S
C1794 C1795 1.370 1_545 S
C1794 C1798 1.524 . S
C1795 C1787 1.503 . S
C1795 C1794 1.370 1_565 S
C1795 C1796 1.403 . S
C1796 C1795 1.403 . S
C1796 C1797 1.404 . S
C1796 C1799 1.539 . S
C1797 C1793 1.408 1_565 S
C1797 C1796 1.404 . S
C1797 H1809 0.930 . S
C1798 C1794 1.524 . S
C1798 H1810 0.956 . S
C1798 H1811 0.961 . S
C1798 H1812 0.961 . S
C1799 C1796 1.539 . S
C1799 H1813 0.958 . S
C1799 H1814 0.961 . S
C1799 H1815 0.960 . S
H1800 C1784 0.931 1_545 S
H1801 C1789 0.929 . S
H1802 C1790 0.960 . S
H1803 C1790 0.962 . S
H1804 C1790 0.960 . S
H1805 C1791 0.961 . S
H1806 C1791 0.961 . S
H1807 C1791 0.961 . S
H1808 C1792 0.931 . S
H1809 C1797 0.930 . S
H1810 C1798 0.956 . S
H1811 C1798 0.961 . S
H1812 C1798 0.961 . S
H1813 C1799 0.958 . S
H1814 C1799 0.961 . S
H1815 C1799 0.960 . S
C1816 C1817 1.391 . S
C1816 C1818 1.394 . S
C1816 H1832 0.931 . S
C1817 C1816 1.391 . S
C1817 C1821 1.376 . S
C1818 C1816 1.394 . S
C1818 C1819 1.369 . S
C1818 C1822 1.531 . S
C1819 C1818 1.369 . S
C1819 C1820 1.410 . S
C1819 C1827 1.503 . S
C1820 C1819 1.410 . S
C1820 C1821 1.392 . S
C1820 C1823 1.511 . S
C1821 C1817 1.376 . S
C1821 C1820 1.392 . S
C1821 H1833 0.929 . S
C1822 C1818 1.531 . S
C1822 H1834 0.960 . S
C1822 H1835 0.962 . S
C1822 H1836 0.960 . S
C1823 C1820 1.511 . S
C1823 H1837 0.961 . S
C1823 H1838 0.961 . S
C1823 H1839 0.961 . S
C1824 C1825 1.370 . S
C1824 C1826 1.363 . S
C1824 H1840 0.931 . S
C1825 C1824 1.370 . S
C1825 C1829 1.408 . S
C1826 C1824 1.363 . S
C1826 C1827 1.370 . S
C1826 C1830 1.524 . S
C1827 C1819 1.503 . S
C1827 C1826 1.370 . S
C1827 C1828 1.403 . S
C1828 C1827 1.403 . S
C1828 C1829 1.404 . S
C1828 C1831 1.539 . S
C1829 C1825 1.408 . S
C1829 C1828 1.404 . S
C1829 H1841 0.930 . S
C1830 C1826 1.524 . S
C1830 H1842 0.956 . S
C1830 H1843 0.961 . S
C1830 H1844 0.961 . S
C1831 C1828 1.539 . S
C1831 H1845 0.958 . S
C1831 H1846 0.961 . S
C1831 H1847 0.960 . S
H1832 C1816 0.931 . S
H1833 C1821 0.929 . S
H1834 C1822 0.960 . S
H1835 C1822 0.962 . S
H1836 C1822 0.960 . S
H1837 C1823 0.961 . S
H1838 C1823 0.961 . S
H1839 C1823 0.961 . S
H1840 C1824 0.931 . S
H1841 C1829 0.930 . S
H1842 C1830 0.956 . S
H1843 C1830 0.961 . S
H1844 C1830 0.961 . S
H1845 C1831 0.958 . S
H1846 C1831 0.961 . S
H1847 C1831 0.960 . S
C1848 C1849 1.391 . S
C1848 C1850 1.394 . S
C1848 H1864 0.931 . S
C1849 C1848 1.391 . S
C1849 C1853 1.376 . S
C1850 C1848 1.394 . S
C1850 C1851 1.369 . S
C1850 C1854 1.531 . S
C1851 C1850 1.369 . S
C1851 C1852 1.410 . S
C1851 C1859 1.503 . S
C1852 C1851 1.410 . S
C1852 C1853 1.392 . S
C1852 C1855 1.511 . S
C1853 C1849 1.376 . S
C1853 C1852 1.392 . S
C1853 H1865 0.929 . S
C1854 C1850 1.531 . S
C1854 H1866 0.960 . S
C1854 H1867 0.962 1_545 S
C1854 H1868 0.960 . S
C1855 C1852 1.511 . S
C1855 H1869 0.961 . S
C1855 H1870 0.961 . S
C1855 H1871 0.961 . S
C1856 C1857 1.370 . S
C1856 C1858 1.363 . S
C1856 H1872 0.931 . S
C1857 C1856 1.370 . S
C1857 C1861 1.408 . S
C1858 C1856 1.363 . S
C1858 C1859 1.370 . S
C1858 C1862 1.524 . S
C1859 C1851 1.503 . S
C1859 C1858 1.370 . S
C1859 C1860 1.403 . S
C1860 C1859 1.403 . S
C1860 C1861 1.404 . S
C1860 C1863 1.539 . S
C1861 C1857 1.408 . S
C1861 C1860 1.404 . S
C1861 H1873 0.930 . S
C1862 C1858 1.524 . S
C1862 H1874 0.973 . S
C1862 H1875 0.961 . S
C1862 H1876 0.961 . S
C1863 C1860 1.539 . S
C1863 H1877 0.958 . S
C1863 H1878 0.961 . S
C1863 H1879 0.960 . S
H1864 C1848 0.931 . S
H1865 C1853 0.929 . S
H1866 C1854 0.960 . S
H1867 C1854 0.962 1_565 S
H1868 C1854 0.960 . S
H1869 C1855 0.961 . S
H1870 C1855 0.961 . S
H1871 C1855 0.961 . S
H1872 C1856 0.931 . S
H1873 C1861 0.930 . S
H1874 C1862 0.973 . S
H1875 C1862 0.961 . S
H1876 C1862 0.961 . S
H1877 C1863 0.958 . S
H1878 C1863 0.961 . S
H1879 C1863 0.960 . S
C1880 C1881 1.391 . S
C1880 C1882 1.394 . S
C1880 H1896 0.931 . S
C1881 C1880 1.391 . S
C1881 C1885 1.376 . S
C1882 C1880 1.394 . S
C1882 C1883 1.369 . S
C1882 C1886 1.531 . S
C1883 C1882 1.369 . S
C1883 C1884 1.410 . S
C1883 C1891 1.503 . S
C1884 C1883 1.410 . S
C1884 C1885 1.392 . S
C1884 C1887 1.511 . S
C1885 C1881 1.376 . S
C1885 C1884 1.392 . S
C1885 H1897 0.929 . S
C1886 C1882 1.531 . S
C1886 H1898 0.960 . S
C1886 H1899 0.962 . S
C1886 H1900 0.960 . S
C1887 C1884 1.511 . S
C1887 H1901 0.961 . S
C1887 H1902 0.961 . S
C1887 H1903 0.961 . S
C1888 C1889 1.370 . S
C1888 C1890 1.363 . S
C1888 H1904 0.931 . S
C1889 C1888 1.370 . S
C1889 C1893 1.408 . S
C1890 C1888 1.363 . S
C1890 C1891 1.370 . S
C1890 C1894 1.524 . S
C1891 C1883 1.503 . S
C1891 C1890 1.370 . S
C1891 C1892 1.403 . S
C1892 C1891 1.403 . S
C1892 C1893 1.404 . S
C1892 C1895 1.539 . S
C1893 C1889 1.408 . S
C1893 C1892 1.404 . S
C1893 H1905 0.930 . S
C1894 C1890 1.524 . S
C1894 H1906 0.956 . S
C1894 H1907 0.961 . S
C1894 H1908 0.961 . S
C1895 C1892 1.539 . S
C1895 H1909 0.958 . S
C1895 H1910 0.961 . S
C1895 H1911 0.960 . S
H1896 C1880 0.931 . S
H1897 C1885 0.929 . S
H1898 C1886 0.960 . S
H1899 C1886 0.962 . S
H1900 C1886 0.960 . S
H1901 C1887 0.961 . S
H1902 C1887 0.961 . S
H1903 C1887 0.961 . S
H1904 C1888 0.931 . S
H1905 C1893 0.930 . S
H1906 C1894 0.956 . S
H1907 C1894 0.961 . S
H1908 C1894 0.961 . S
H1909 C1895 0.958 . S
H1910 C1895 0.961 . S
H1911 C1895 0.960 . S
C1912 C1913 1.391 . S
C1912 C1914 1.394 . S
C1912 H1928 0.931 . S
C1913 C1912 1.391 . S
C1913 C1917 1.376 . S
C1914 C1912 1.394 . S
C1914 C1915 1.369 . S
C1914 C1918 1.531 . S
C1915 C1914 1.369 . S
C1915 C1916 1.410 . S
C1915 C1923 1.503 . S
C1916 C1915 1.410 . S
C1916 C1917 1.392 . S
C1916 C1919 1.511 1_554 S
C1917 C1913 1.376 . S
C1917 C1916 1.392 . S
C1917 H1929 0.929 1_554 S
C1918 C1914 1.531 . S
C1918 H1930 0.960 . S
C1918 H1931 0.962 . S
C1918 H1932 0.960 . S
C1919 C1916 1.511 1_556 S
C1919 H1933 0.961 . S
C1919 H1934 0.961 . S
C1919 H1935 0.961 1_556 S
C1920 C1921 1.370 . S
C1920 C1922 1.363 . S
C1920 H1936 0.931 1_554 S
C1921 C1920 1.370 . S
C1921 C1925 1.408 . S
C1922 C1920 1.363 . S
C1922 C1923 1.370 . S
C1922 C1926 1.524 1_554 S
C1923 C1915 1.503 . S
C1923 C1922 1.370 . S
C1923 C1924 1.403 . S
C1924 C1923 1.403 . S
C1924 C1925 1.404 . S
C1924 C1927 1.539 . S
C1925 C1921 1.408 . S
C1925 C1924 1.404 . S
C1925 H1937 0.930 . S
C1926 C1922 1.524 1_556 S
C1926 H1938 0.956 . S
C1926 H1939 0.961 . S
C1926 H1940 0.961 . S
C1927 C1924 1.539 . S
C1927 H1941 0.958 . S
C1927 H1942 0.961 . S
C1927 H1943 0.960 . S
H1928 C1912 0.931 . S
H1929 C1917 0.929 1_556 S
H1930 C1918 0.960 . S
H1931 C1918 0.962 . S
H1932 C1918 0.960 . S
H1933 C1919 0.961 . S
H1934 C1919 0.961 . S
H1935 C1919 0.961 1_554 S
H1936 C1920 0.931 1_556 S
H1937 C1925 0.930 . S
H1938 C1926 0.956 . S
H1939 C1926 0.961 . S
H1940 C1926 0.961 . S
H1941 C1927 0.958 . S
H1942 C1927 0.961 . S
H1943 C1927 0.960 . S
C1944 C1945 1.391 . S
C1944 C1946 1.394 . S
C1944 H1960 0.931 . S
C1945 C1944 1.391 . S
C1945 C1949 1.376 . S
C1946 C1944 1.394 . S
C1946 C1947 1.369 . S
C1946 C1950 1.531 . S
C1947 C1946 1.369 . S
C1947 C1948 1.410 . S
C1947 C1955 1.503 . S
C1948 C1947 1.410 . S
C1948 C1949 1.392 . S
C1948 C1951 1.511 . S
C1949 C1945 1.376 . S
C1949 C1948 1.392 . S
C1949 H1961 0.929 . S
C1950 C1946 1.531 . S
C1950 H1962 0.960 . S
C1950 H1963 0.962 1_554 S
C1950 H1964 0.960 . S
C1951 C1948 1.511 . S
C1951 H1965 0.961 . S
C1951 H1966 0.961 . S
C1951 H1967 0.961 . S
C1952 C1953 1.370 . S
C1952 C1954 1.363 . S
C1952 H1968 0.931 1_554 S
C1953 C1952 1.370 . S
C1953 C1957 1.408 . S
C1954 C1952 1.363 . S
C1954 C1955 1.370 . S
C1954 C1958 1.524 1_554 S
C1955 C1947 1.503 . S
C1955 C1954 1.370 . S
C1955 C1956 1.403 . S
C1956 C1955 1.403 . S
C1956 C1957 1.404 . S
C1956 C1959 1.539 . S
C1957 C1953 1.408 . S
C1957 C1956 1.404 . S
C1957 H1969 0.930 . S
C1958 C1954 1.524 1_556 S
C1958 H1970 0.956 . S
C1958 H1971 0.961 . S
C1958 H1972 0.961 . S
C1959 C1956 1.539 . S
C1959 H1973 0.958 . S
C1959 H1974 0.961 . S
C1959 H1975 0.960 . S
H1960 C1944 0.931 . S
H1961 C1949 0.929 . S
H1962 C1950 0.960 . S
H1963 C1950 0.962 1_556 S
H1964 C1950 0.960 . S
H1965 C1951 0.961 . S
H1966 C1951 0.961 . S
H1967 C1951 0.961 . S
H1968 C1952 0.931 1_556 S
H1969 C1957 0.930 . S
H1970 C1958 0.956 . S
H1971 C1958 0.961 . S
H1972 C1958 0.961 . S
H1973 C1959 0.958 . S
H1974 C1959 0.961 . S
H1975 C1959 0.960 . S
C1976 C1977 1.391 . S
C1976 C1978 1.394 . S
C1976 H1992 0.931 . S
C1977 C1976 1.391 . S
C1977 C1981 1.376 . S
C1978 C1976 1.394 . S
C1978 C1979 1.369 . S
C1978 C1982 1.531 . S
C1979 C1978 1.369 . S
C1979 C1980 1.410 . S
C1979 C1987 1.503 . S
C1980 C1979 1.410 . S
C1980 C1981 1.392 . S
C1980 C1983 1.511 . S
C1981 C1977 1.376 . S
C1981 C1980 1.392 . S
C1981 H1993 0.929 . S
C1982 C1978 1.531 . S
C1982 H1994 0.960 . S
C1982 H1995 0.962 . S
C1982 H1996 0.960 . S
C1983 C1980 1.511 . S
C1983 H1997 0.961 . S
C1983 H1998 0.961 . S
C1983 H1999 0.961 . S
C1984 C1985 1.370 . S
C1984 C1986 1.363 . S
C1984 H2000 0.931 . S
C1985 C1984 1.370 . S
C1985 C1989 1.408 . S
C1986 C1984 1.363 . S
C1986 C1987 1.370 . S
C1986 C1990 1.524 . S
C1987 C1979 1.503 . S
C1987 C1986 1.370 . S
C1987 C1988 1.403 . S
C1988 C1987 1.403 . S
C1988 C1989 1.404 . S
C1988 C1991 1.539 . S
C1989 C1985 1.408 . S
C1989 C1988 1.404 . S
C1989 H2001 0.930 . S
C1990 C1986 1.524 . S
C1990 H2002 0.956 . S
C1990 H2003 0.961 . S
C1990 H2004 0.961 . S
C1991 C1988 1.539 . S
C1991 H2005 0.958 . S
C1991 H2006 0.961 . S
C1991 H2007 0.960 . S
H1992 C1976 0.931 . S
H1993 C1981 0.929 . S
H1994 C1982 0.960 . S
H1995 C1982 0.962 . S
H1996 C1982 0.960 . S
H1997 C1983 0.961 . S
H1998 C1983 0.961 . S
H1999 C1983 0.961 . S
H2000 C1984 0.931 . S
H2001 C1989 0.930 . S
H2002 C1990 0.956 . S
H2003 C1990 0.961 . S
H2004 C1990 0.961 . S
H2005 C1991 0.958 . S
H2006 C1991 0.961 . S
H2007 C1991 0.960 . S
C2008 C2009 1.391 . S
C2008 C2010 1.394 . S
C2008 H2024 0.931 . S
C2009 C2008 1.391 . S
C2009 C2013 1.376 . S
C2010 C2008 1.394 . S
C2010 C2011 1.369 . S
C2010 C2014 1.531 . S
C2011 C2010 1.369 . S
C2011 C2012 1.410 . S
C2011 C2019 1.503 . S
C2012 C2011 1.410 . S
C2012 C2013 1.392 . S
C2012 C2015 1.511 . S
C2013 C2009 1.376 . S
C2013 C2012 1.392 . S
C2013 H2025 0.929 . S
C2014 C2010 1.531 . S
C2014 H2026 0.960 . S
C2014 H2027 0.962 . S
C2014 H2028 0.960 . S
C2015 C2012 1.511 . S
C2015 H2029 0.961 . S
C2015 H2030 0.961 . S
C2015 H2031 0.961 . S
C2016 C2017 1.370 . S
C2016 C2018 1.363 . S
C2016 H2032 0.931 . S
C2017 C2016 1.370 . S
C2017 C2021 1.408 . S
C2018 C2016 1.363 . S
C2018 C2019 1.370 . S
C2018 C2022 1.524 . S
C2019 C2011 1.503 . S
C2019 C2018 1.370 . S
C2019 C2020 1.403 . S
C2020 C2019 1.403 . S
C2020 C2021 1.404 . S
C2020 C2023 1.539 . S
C2021 C2017 1.408 . S
C2021 C2020 1.404 . S
C2021 H2033 0.930 . S
C2022 C2018 1.524 . S
C2022 H2034 0.956 . S
C2022 H2035 0.961 . S
C2022 H2036 0.961 . S
C2023 C2020 1.539 . S
C2023 H2037 0.958 . S
C2023 H2038 0.961 . S
C2023 H2039 0.960 . S
H2024 C2008 0.931 . S
H2025 C2013 0.929 . S
H2026 C2014 0.960 . S
H2027 C2014 0.962 . S
H2028 C2014 0.960 . S
H2029 C2015 0.961 . S
H2030 C2015 0.961 . S
H2031 C2015 0.961 . S
H2032 C2016 0.931 . S
H2033 C2021 0.930 . S
H2034 C2022 0.956 . S
H2035 C2022 0.961 . S
H2036 C2022 0.961 . S
H2037 C2023 0.958 . S
H2038 C2023 0.961 . S
H2039 C2023 0.960 . S
C2040 C2041 1.391 . S
C2040 C2042 1.394 . S
C2040 H2056 0.931 . S
C2041 C2040 1.391 . S
C2041 C2045 1.376 . S
C2042 C2040 1.394 . S
C2042 C2043 1.369 . S
C2042 C2046 1.531 . S
C2043 C2042 1.369 . S
C2043 C2044 1.410 . S
C2043 C2051 1.503 . S
C2044 C2043 1.410 . S
C2044 C2045 1.392 . S
C2044 C2047 1.511 . S
C2045 C2041 1.376 . S
C2045 C2044 1.392 . S
C2045 H2057 0.929 . S
C2046 C2042 1.531 . S
C2046 H2058 0.960 . S
C2046 H2059 0.962 . S
C2046 H2060 0.960 . S
C2047 C2044 1.511 . S
C2047 H2061 0.961 . S
C2047 H2062 0.961 . S
C2047 H2063 0.961 . S
C2048 C2049 1.370 . S
C2048 C2050 1.363 . S
C2048 H2064 0.931 . S
C2049 C2048 1.370 . S
C2049 C2053 1.408 . S
C2050 C2048 1.363 . S
C2050 C2051 1.370 . S
C2050 C2054 1.524 . S
C2051 C2043 1.503 . S
C2051 C2050 1.370 . S
C2051 C2052 1.403 . S
C2052 C2051 1.403 . S
C2052 C2053 1.404 . S
C2052 C2055 1.539 . S
C2053 C2049 1.408 . S
C2053 C2052 1.404 . S
C2053 H2065 0.930 . S
C2054 C2050 1.524 . S
C2054 H2066 0.956 . S
C2054 H2067 0.961 . S
C2054 H2068 0.961 . S
C2055 C2052 1.539 . S
C2055 H2069 0.958 . S
C2055 H2070 0.961 . S
C2055 H2071 0.960 . S
H2056 C2040 0.931 . S
H2057 C2045 0.929 . S
H2058 C2046 0.960 . S
H2059 C2046 0.962 . S
H2060 C2046 0.960 . S
H2061 C2047 0.961 . S
H2062 C2047 0.961 . S
H2063 C2047 0.961 . S
H2064 C2048 0.931 . S
H2065 C2053 0.930 . S
H2066 C2054 0.956 . S
H2067 C2054 0.961 . S
H2068 C2054 0.961 . S
H2069 C2055 0.958 . S
H2070 C2055 0.961 . S
H2071 C2055 0.960 . S
C2072 C2073 1.391 . S
C2072 C2074 1.394 . S
C2072 H2088 0.931 . S
C2073 C2072 1.391 . S
C2073 C2077 1.376 . S
C2074 C2072 1.394 . S
C2074 C2075 1.369 . S
C2074 C2078 1.531 . S
C2075 C2074 1.369 . S
C2075 C2076 1.410 . S
C2075 C2083 1.503 . S
C2076 C2075 1.410 . S
C2076 C2077 1.392 . S
C2076 C2079 1.511 . S
C2077 C2073 1.376 . S
C2077 C2076 1.392 . S
C2077 H2089 0.929 . S
C2078 C2074 1.531 . S
C2078 H2090 0.960 . S
C2078 H2091 0.962 . S
C2078 H2092 0.960 . S
C2079 C2076 1.511 . S
C2079 H2093 0.961 . S
C2079 H2094 0.961 . S
C2079 H2095 0.961 . S
C2080 C2081 1.370 . S
C2080 C2082 1.363 . S
C2080 H2096 0.931 . S
C2081 C2080 1.370 . S
C2081 C2085 1.408 . S
C2082 C2080 1.363 . S
C2082 C2083 1.370 . S
C2082 C2086 1.524 . S
C2083 C2075 1.503 . S
C2083 C2082 1.370 . S
C2083 C2084 1.403 . S
C2084 C2083 1.403 . S
C2084 C2085 1.404 . S
C2084 C2087 1.539 . S
C2085 C2081 1.408 . S
C2085 C2084 1.404 . S
C2085 H2097 0.930 1_565 S
C2086 C2082 1.524 . S
C2086 H2098 0.956 . S
C2086 H2099 0.961 . S
C2086 H2100 0.961 . S
C2087 C2084 1.539 . S
C2087 H2101 0.958 1_565 S
C2087 H2102 0.961 1_565 S
C2087 H2103 0.960 . S
H2088 C2072 0.931 . S
H2089 C2077 0.929 . S
H2090 C2078 0.960 . S
H2091 C2078 0.962 . S
H2092 C2078 0.960 . S
H2093 C2079 0.961 . S
H2094 C2079 0.961 . S
H2095 C2079 0.961 . S
H2096 C2080 0.931 . S
H2097 C2085 0.930 1_545 S
H2098 C2086 0.956 . S
H2099 C2086 0.961 . S
H2100 C2086 0.961 . S
H2101 C2087 0.958 1_545 S
H2102 C2087 0.961 1_545 S
H2103 C2087 0.960 . S
C2104 C2105 1.391 . S
C2104 C2106 1.394 . S
C2104 H2120 0.931 . S
C2105 C2104 1.391 . S
C2105 C2109 1.376 . S
C2106 C2104 1.394 . S
C2106 C2107 1.369 . S
C2106 C2110 1.531 . S
C2107 C2106 1.369 . S
C2107 C2108 1.410 . S
C2107 C2115 1.503 . S
C2108 C2107 1.410 . S
C2108 C2109 1.392 . S
C2108 C2111 1.511 . S
C2109 C2105 1.376 . S
C2109 C2108 1.392 . S
C2109 H2121 0.929 . S
C2110 C2106 1.531 . S
C2110 H2122 0.960 . S
C2110 H2123 0.962 . S
C2110 H2124 0.960 . S
C2111 C2108 1.511 . S
C2111 H2125 0.961 . S
C2111 H2126 0.961 . S
C2111 H2127 0.961 . S
C2112 C2113 1.370 . S
C2112 C2114 1.363 . S
C2112 H2128 0.931 . S
C2113 C2112 1.370 . S
C2113 C2117 1.408 . S
C2114 C2112 1.363 . S
C2114 C2115 1.370 . S
C2114 C2118 1.524 . S
C2115 C2107 1.503 . S
C2115 C2114 1.370 . S
C2115 C2116 1.403 . S
C2116 C2115 1.403 . S
C2116 C2117 1.404 . S
C2116 C2119 1.539 . S
C2117 C2113 1.408 . S
C2117 C2116 1.404 . S
C2117 H2129 0.930 . S
C2118 C2114 1.524 . S
C2118 H2130 0.956 . S
C2118 H2131 0.961 . S
C2118 H2132 0.961 . S
C2119 C2116 1.539 . S
C2119 H2133 0.958 . S
C2119 H2134 0.961 . S
C2119 H2135 0.960 . S
H2120 C2104 0.931 . S
H2121 C2109 0.929 . S
H2122 C2110 0.960 . S
H2123 C2110 0.962 . S
H2124 C2110 0.960 . S
H2125 C2111 0.961 . S
H2126 C2111 0.961 . S
H2127 C2111 0.961 . S
H2128 C2112 0.931 . S
H2129 C2117 0.930 . S
H2130 C2118 0.956 . S
H2131 C2118 0.961 . S
H2132 C2118 0.961 . S
H2133 C2119 0.958 . S
H2134 C2119 0.961 . S
H2135 C2119 0.960 . S
C2136 C2137 1.391 . S
C2136 C2138 1.394 . S
C2136 H2152 0.931 . S
C2137 C2136 1.391 . S
C2137 C2141 1.376 . S
C2138 C2136 1.394 . S
C2138 C2139 1.369 . S
C2138 C2142 1.531 . S
C2139 C2138 1.369 . S
C2139 C2140 1.410 . S
C2139 C2147 1.503 . S
C2140 C2139 1.410 . S
C2140 C2141 1.392 . S
C2140 C2143 1.511 . S
C2141 C2137 1.376 . S
C2141 C2140 1.392 . S
C2141 H2153 0.929 . S
C2142 C2138 1.531 . S
C2142 H2154 0.960 . S
C2142 H2155 0.962 . S
C2142 H2156 0.960 . S
C2143 C2140 1.511 . S
C2143 H2157 0.961 . S
C2143 H2158 0.961 . S
C2143 H2159 0.961 . S
C2144 C2145 1.370 . S
C2144 C2146 1.363 . S
C2144 H2160 0.931 . S
C2145 C2144 1.370 . S
C2145 C2149 1.408 . S
C2146 C2144 1.363 . S
C2146 C2147 1.370 . S
C2146 C2150 1.524 . S
C2147 C2139 1.503 . S
C2147 C2146 1.370 . S
C2147 C2148 1.403 . S
C2148 C2147 1.403 . S
C2148 C2149 1.404 . S
C2148 C2151 1.539 . S
C2149 C2145 1.408 . S
C2149 C2148 1.404 . S
C2149 H2161 0.930 . S
C2150 C2146 1.524 . S
C2150 H2162 0.956 . S
C2150 H2163 0.961 . S
C2150 H2164 0.961 . S
C2151 C2148 1.539 . S
C2151 H2165 0.958 . S
C2151 H2166 0.961 . S
C2151 H2167 0.960 . S
H2152 C2136 0.931 . S
H2153 C2141 0.929 . S
H2154 C2142 0.960 . S
H2155 C2142 0.962 . S
H2156 C2142 0.960 . S
H2157 C2143 0.961 . S
H2158 C2143 0.961 . S
H2159 C2143 0.961 . S
H2160 C2144 0.931 . S
H2161 C2149 0.930 . S
H2162 C2150 0.956 . S
H2163 C2150 0.961 . S
H2164 C2150 0.961 . S
H2165 C2151 0.958 . S
H2166 C2151 0.961 . S
H2167 C2151 0.960 . S
C2168 C2169 1.391 . S
C2168 C2170 1.394 . S
C2168 H2184 0.931 . S
C2169 C2168 1.391 . S
C2169 C2173 1.376 . S
C2170 C2168 1.394 . S
C2170 C2171 1.369 . S
C2170 C2174 1.531 . S
C2171 C2170 1.369 . S
C2171 C2172 1.410 . S
C2171 C2179 1.503 . S
C2172 C2171 1.410 . S
C2172 C2173 1.392 . S
C2172 C2175 1.511 . S
C2173 C2169 1.376 . S
C2173 C2172 1.392 . S
C2173 H2185 0.929 . S
C2174 C2170 1.531 . S
C2174 H2186 0.960 . S
C2174 H2187 0.962 . S
C2174 H2188 0.960 . S
C2175 C2172 1.511 . S
C2175 H2189 0.961 . S
C2175 H2190 0.961 . S
C2175 H2191 0.961 . S
C2176 C2177 1.370 . S
C2176 C2178 1.363 . S
C2176 H2192 0.931 . S
C2177 C2176 1.370 . S
C2177 C2181 1.408 . S
C2178 C2176 1.363 . S
C2178 C2179 1.370 . S
C2178 C2182 1.524 . S
C2179 C2171 1.503 . S
C2179 C2178 1.370 . S
C2179 C2180 1.403 . S
C2180 C2179 1.403 . S
C2180 C2181 1.404 . S
C2180 C2183 1.539 . S
C2181 C2177 1.408 . S
C2181 C2180 1.404 . S
C2181 H2193 0.930 . S
C2182 C2178 1.524 . S
C2182 H2194 0.956 . S
C2182 H2195 0.961 . S
C2182 H2196 0.961 . S
C2183 C2180 1.539 . S
C2183 H2197 0.958 . S
C2183 H2198 0.961 . S
C2183 H2199 0.960 . S
H2184 C2168 0.931 . S
H2185 C2173 0.929 . S
H2186 C2174 0.960 . S
H2187 C2174 0.962 . S
H2188 C2174 0.960 . S
H2189 C2175 0.961 . S
H2190 C2175 0.961 . S
H2191 C2175 0.961 . S
H2192 C2176 0.931 . S
H2193 C2181 0.930 . S
H2194 C2182 0.956 . S
H2195 C2182 0.961 . S
H2196 C2182 0.961 . S
H2197 C2183 0.958 . S
H2198 C2183 0.961 . S
H2199 C2183 0.960 . S
C2200 C2201 1.391 . S
C2200 C2202 1.394 . S
C2200 H2216 0.931 . S
C2201 C2200 1.391 . S
C2201 C2205 1.376 . S
C2202 C2200 1.394 . S
C2202 C2203 1.369 . S
C2202 C2206 1.531 . S
C2203 C2202 1.369 . S
C2203 C2204 1.410 . S
C2203 C2211 1.503 . S
C2204 C2203 1.410 . S
C2204 C2205 1.392 . S
C2204 C2207 1.511 . S
C2205 C2201 1.376 . S
C2205 C2204 1.392 . S
C2205 H2217 0.929 . S
C2206 C2202 1.531 . S
C2206 H2218 0.960 . S
C2206 H2219 0.962 . S
C2206 H2220 0.960 . S
C2207 C2204 1.511 . S
C2207 H2221 0.961 . S
C2207 H2222 0.961 . S
C2207 H2223 0.961 . S
C2208 C2209 1.370 . S
C2208 C2210 1.363 . S
C2208 H2224 0.931 . S
C2209 C2208 1.370 . S
C2209 C2213 1.408 . S
C2210 C2208 1.363 . S
C2210 C2211 1.370 . S
C2210 C2214 1.524 . S
C2211 C2203 1.503 . S
C2211 C2210 1.370 . S
C2211 C2212 1.403 . S
C2212 C2211 1.403 . S
C2212 C2213 1.404 . S
C2212 C2215 1.539 . S
C2213 C2209 1.408 . S
C2213 C2212 1.404 . S
C2213 H2225 0.930 . S
C2214 C2210 1.524 . S
C2214 H2226 0.956 . S
C2214 H2227 0.961 . S
C2214 H2228 0.961 . S
C2215 C2212 1.539 . S
C2215 H2229 0.958 . S
C2215 H2230 0.961 . S
C2215 H2231 0.960 . S
H2216 C2200 0.931 . S
H2217 C2205 0.929 . S
H2218 C2206 0.960 . S
H2219 C2206 0.962 . S
H2220 C2206 0.960 . S
H2221 C2207 0.961 . S
H2222 C2207 0.961 . S
H2223 C2207 0.961 . S
H2224 C2208 0.931 . S
H2225 C2213 0.930 . S
H2226 C2214 0.956 . S
H2227 C2214 0.961 . S
H2228 C2214 0.961 . S
H2229 C2215 0.958 . S
H2230 C2215 0.961 . S
H2231 C2215 0.960 . S
C2232 C2233 1.391 . S
C2232 C2234 1.394 . S
C2232 H2248 0.931 . S
C2233 C2232 1.391 . S
C2233 C2237 1.376 . S
C2234 C2232 1.394 . S
C2234 C2235 1.369 . S
C2234 C2238 1.531 . S
C2235 C2234 1.369 . S
C2235 C2236 1.410 . S
C2235 C2243 1.503 . S
C2236 C2235 1.410 . S
C2236 C2237 1.392 . S
C2236 C2239 1.511 . S
C2237 C2233 1.376 . S
C2237 C2236 1.392 . S
C2237 H2249 0.929 . S
C2238 C2234 1.531 . S
C2238 H2250 0.960 . S
C2238 H2251 0.962 1_455 S
C2238 H2252 0.960 . S
C2239 C2236 1.511 . S
C2239 H2253 0.961 . S
C2239 H2254 0.961 . S
C2239 H2255 0.961 . S
C2240 C2241 1.359 1_655 S
C2240 C2242 1.363 . S
C2240 H2256 0.931 . S
C2241 C2240 1.359 1_455 S
C2241 C2245 1.427 . S
C2242 C2240 1.363 . S
C2242 C2243 1.370 1_655 S
C2242 C2246 1.524 . S
C2243 C2235 1.503 . S
C2243 C2242 1.370 1_455 S
C2243 C2244 1.403 . S
C2244 C2243 1.403 . S
C2244 C2245 1.409 . S
C2244 C2247 1.539 . S
C2245 C2241 1.427 . S
C2245 C2244 1.409 . S
C2245 H2257 0.925 1_556 S
C2246 C2242 1.524 . S
C2246 H2258 0.956 . S
C2246 H2259 0.961 . S
C2246 H2260 0.961 . S
C2247 C2244 1.539 . S
C2247 H2261 0.958 . S
C2247 H2262 0.961 . S
C2247 H2263 0.960 . S
H2248 C2232 0.931 . S
H2249 C2237 0.929 . S
H2250 C2238 0.960 . S
H2251 C2238 0.962 1_655 S
H2252 C2238 0.960 . S
H2253 C2239 0.961 . S
H2254 C2239 0.961 . S
H2255 C2239 0.961 . S
H2256 C2240 0.931 . S
H2257 C2245 0.925 1_554 S
H2258 C2246 0.956 . S
H2259 C2246 0.961 . S
H2260 C2246 0.961 . S
H2261 C2247 0.958 . S
H2262 C2247 0.961 . S
H2263 C2247 0.960 . S
C2264 C2265 1.391 . S
C2264 C2266 1.394 . S
C2264 H2280 0.931 . S
C2265 C2264 1.391 . S
C2265 C2269 1.376 . S
C2266 C2264 1.394 . S
C2266 C2267 1.369 . S
C2266 C2270 1.531 . S
C2267 C2266 1.369 . S
C2267 C2268 1.410 . S
C2267 C2275 1.503 . S
C2268 C2267 1.410 . S
C2268 C2269 1.392 . S
C2268 C2271 1.511 . S
C2269 C2265 1.376 . S
C2269 C2268 1.392 . S
C2269 H2281 0.929 . S
C2270 C2266 1.531 . S
C2270 H2282 0.960 . S
C2270 H2283 0.962 . S
C2270 H2284 0.960 . S
C2271 C2268 1.511 . S
C2271 H2285 0.961 . S
C2271 H2286 0.961 . S
C2271 H2287 0.961 . S
C2272 C2273 1.370 . S
C2272 C2274 1.363 . S
C2272 H2288 0.931 . S
C2273 C2272 1.370 . S
C2273 C2277 1.408 . S
C2274 C2272 1.363 . S
C2274 C2275 1.370 . S
C2274 C2278 1.524 . S
C2275 C2267 1.503 . S
C2275 C2274 1.370 . S
C2275 C2276 1.403 . S
C2276 C2275 1.403 . S
C2276 C2277 1.404 . S
C2276 C2279 1.539 . S
C2277 C2273 1.408 . S
C2277 C2276 1.404 . S
C2277 H2289 0.930 . S
C2278 C2274 1.524 . S
C2278 H2290 0.956 . S
C2278 H2291 0.961 . S
C2278 H2292 0.961 . S
C2279 C2276 1.539 . S
C2279 H2293 0.958 . S
C2279 H2294 0.961 . S
C2279 H2295 0.960 . S
H2280 C2264 0.931 . S
H2281 C2269 0.929 . S
H2282 C2270 0.960 . S
H2283 C2270 0.962 . S
H2284 C2270 0.960 . S
H2285 C2271 0.961 . S
H2286 C2271 0.961 . S
H2287 C2271 0.961 . S
H2288 C2272 0.931 . S
H2289 C2277 0.930 . S
H2290 C2278 0.956 . S
H2291 C2278 0.961 . S
H2292 C2278 0.961 . S
H2293 C2279 0.958 . S
H2294 C2279 0.961 . S
H2295 C2279 0.960 . S
C2296 C2297 1.391 . S
C2296 C2298 1.394 . S
C2296 H2312 0.931 . S
C2297 C2296 1.391 . S
C2297 C2301 1.376 . S
C2298 C2296 1.394 . S
C2298 C2299 1.369 . S
C2298 C2302 1.531 . S
C2299 C2298 1.369 . S
C2299 C2300 1.410 . S
C2299 C2307 1.503 . S
C2300 C2299 1.410 . S
C2300 C2301 1.392 . S
C2300 C2303 1.511 . S
C2301 C2297 1.376 . S
C2301 C2300 1.392 . S
C2301 H2313 0.929 . S
C2302 C2298 1.531 . S
C2302 H2314 0.960 . S
C2302 H2315 0.962 . S
C2302 H2316 0.960 . S
C2303 C2300 1.511 . S
C2303 H2317 0.961 . S
C2303 H2318 0.961 . S
C2303 H2319 0.961 . S
C2304 C2305 1.370 . S
C2304 C2306 1.363 . S
C2304 H2320 0.931 . S
C2305 C2304 1.370 . S
C2305 C2309 1.408 . S
C2306 C2304 1.363 . S
C2306 C2307 1.370 . S
C2306 C2310 1.524 . S
C2307 C2299 1.503 . S
C2307 C2306 1.370 . S
C2307 C2308 1.403 . S
C2308 C2307 1.403 . S
C2308 C2309 1.404 . S
C2308 C2311 1.539 . S
C2309 C2305 1.408 . S
C2309 C2308 1.404 . S
C2309 H2321 0.930 . S
C2310 C2306 1.524 . S
C2310 H2322 0.956 . S
C2310 H2323 0.961 . S
C2310 H2324 0.961 . S
C2311 C2308 1.539 . S
C2311 H2325 0.958 . S
C2311 H2326 0.961 . S
C2311 H2327 0.960 . S
H2312 C2296 0.931 . S
H2313 C2301 0.929 . S
H2314 C2302 0.960 . S
H2315 C2302 0.962 . S
H2316 C2302 0.960 . S
H2317 C2303 0.961 . S
H2318 C2303 0.961 . S
H2319 C2303 0.961 . S
H2320 C2304 0.931 . S
H2321 C2309 0.930 . S
H2322 C2310 0.956 . S
H2323 C2310 0.961 . S
H2324 C2310 0.961 . S
H2325 C2311 0.958 . S
H2326 C2311 0.961 . S
H2327 C2311 0.960 . S
C2328 C2329 1.391 . S
C2328 C2330 1.394 . S
C2328 H2344 0.931 . S
C2329 C2328 1.391 . S
C2329 C2333 1.376 . S
C2330 C2328 1.394 . S
C2330 C2331 1.369 . S
C2330 C2334 1.531 . S
C2331 C2330 1.369 . S
C2331 C2332 1.410 . S
C2331 C2339 1.503 . S
C2332 C2331 1.410 . S
C2332 C2333 1.392 . S
C2332 C2335 1.511 . S
C2333 C2329 1.376 . S
C2333 C2332 1.392 . S
C2333 H2345 0.929 . S
C2334 C2330 1.531 . S
C2334 H2346 0.960 . S
C2334 H2347 0.962 . S
C2334 H2348 0.960 . S
C2335 C2332 1.511 . S
C2335 H2349 0.961 . S
C2335 H2350 0.961 . S
C2335 H2351 0.961 . S
C2336 C2337 1.370 . S
C2336 C2338 1.363 . S
C2336 H2352 0.931 . S
C2337 C2336 1.370 . S
C2337 C2341 1.408 . S
C2338 C2336 1.363 . S
C2338 C2339 1.370 . S
C2338 C2342 1.524 . S
C2339 C2331 1.503 . S
C2339 C2338 1.370 . S
C2339 C2340 1.403 . S
C2340 C2339 1.403 . S
C2340 C2341 1.404 . S
C2340 C2343 1.539 . S
C2341 C2337 1.408 . S
C2341 C2340 1.404 . S
C2341 H2353 0.930 . S
C2342 C2338 1.524 . S
C2342 H2354 0.956 . S
C2342 H2355 0.961 . S
C2342 H2356 0.961 . S
C2343 C2340 1.539 . S
C2343 H2357 0.958 . S
C2343 H2358 0.961 . S
C2343 H2359 0.960 . S
H2344 C2328 0.931 . S
H2345 C2333 0.929 . S
H2346 C2334 0.960 . S
H2347 C2334 0.962 . S
H2348 C2334 0.960 . S
H2349 C2335 0.961 . S
H2350 C2335 0.961 . S
H2351 C2335 0.961 . S
H2352 C2336 0.931 . S
H2353 C2341 0.930 . S
H2354 C2342 0.956 . S
H2355 C2342 0.961 . S
H2356 C2342 0.961 . S
H2357 C2343 0.958 . S
H2358 C2343 0.961 . S
H2359 C2343 0.960 . S
C2360 C2361 1.391 1_455 S
C2360 C2362 1.394 . S
C2360 H2376 0.931 . S
C2361 C2360 1.391 1_655 S
C2361 C2365 1.376 . S
C2362 C2360 1.394 . S
C2362 C2363 1.369 1_455 S
C2362 C2366 1.531 . S
C2363 C2362 1.369 1_655 S
C2363 C2364 1.410 . S
C2363 C2371 1.503 . S
C2364 C2363 1.410 . S
C2364 C2365 1.392 . S
C2364 C2367 1.511 . S
C2365 C2361 1.376 . S
C2365 C2364 1.392 . S
C2365 H2377 0.929 . S
C2366 C2362 1.531 . S
C2366 H2378 0.960 . S
C2366 H2379 0.962 . S
C2366 H2380 0.960 . S
C2367 C2364 1.511 . S
C2367 H2381 0.961 . S
C2367 H2382 0.961 . S
C2367 H2383 0.961 . S
C2368 C2369 1.370 1_455 S
C2368 C2370 1.363 . S
C2368 H2384 0.931 . S
C2369 C2368 1.370 1_655 S
C2369 C2373 1.408 . S
C2370 C2368 1.363 . S
C2370 C2371 1.370 1_455 S
C2370 C2374 1.524 . S
C2371 C2363 1.503 . S
C2371 C2370 1.370 1_655 S
C2371 C2372 1.403 . S
C2372 C2371 1.403 . S
C2372 C2373 1.404 . S
C2372 C2375 1.539 . S
C2373 C2369 1.408 . S
C2373 C2372 1.404 . S
C2373 H2385 0.930 . S
C2374 C2370 1.524 . S
C2374 H2386 0.956 . S
C2374 H2387 0.961 . S
C2374 H2388 0.961 . S
C2375 C2372 1.539 . S
C2375 H2389 0.958 . S
C2375 H2390 0.961 . S
C2375 H2391 0.960 . S
H2376 C2360 0.931 . S
H2377 C2365 0.929 . S
H2378 C2366 0.960 . S
H2379 C2366 0.962 . S
H2380 C2366 0.960 . S
H2381 C2367 0.961 . S
H2382 C2367 0.961 . S
H2383 C2367 0.961 . S
H2384 C2368 0.931 . S
H2385 C2373 0.930 . S
H2386 C2374 0.956 . S
H2387 C2374 0.961 . S
H2388 C2374 0.961 . S
H2389 C2375 0.958 . S
H2390 C2375 0.961 . S
H2391 C2375 0.960 . S
C2392 C2393 1.391 . S
C2392 C2394 1.394 . S
C2392 H2408 0.931 . S
C2393 C2392 1.391 . S
C2393 C2397 1.376 . S
C2394 C2392 1.394 . S
C2394 C2395 1.369 . S
C2394 C2398 1.531 . S
C2395 C2394 1.369 . S
C2395 C2396 1.410 . S
C2395 C2403 1.503 . S
C2396 C2395 1.410 . S
C2396 C2397 1.392 . S
C2396 C2399 1.511 . S
C2397 C2393 1.376 . S
C2397 C2396 1.392 . S
C2397 H2409 0.929 . S
C2398 C2394 1.531 . S
C2398 H2410 0.960 . S
C2398 H2411 0.962 . S
C2398 H2412 0.960 . S
C2399 C2396 1.511 . S
C2399 H2413 0.961 . S
C2399 H2414 0.961 . S
C2399 H2415 0.961 . S
C2400 C2401 1.370 . S
C2400 C2402 1.363 . S
C2400 H2416 0.931 . S
C2401 C2400 1.370 . S
C2401 C2405 1.408 . S
C2402 C2400 1.363 . S
C2402 C2403 1.370 . S
C2402 C2406 1.524 . S
C2403 C2395 1.503 . S
C2403 C2402 1.370 . S
C2403 C2404 1.403 . S
C2404 C2403 1.403 . S
C2404 C2405 1.404 . S
C2404 C2407 1.539 . S
C2405 C2401 1.408 . S
C2405 C2404 1.404 . S
C2405 H2417 0.930 . S
C2406 C2402 1.524 . S
C2406 H2418 0.956 . S
C2406 H2419 0.961 . S
C2406 H2420 0.961 . S
C2407 C2404 1.539 . S
C2407 H2421 0.958 . S
C2407 H2422 0.961 . S
C2407 H2423 0.960 . S
H2408 C2392 0.931 . S
H2409 C2397 0.929 . S
H2410 C2398 0.960 . S
H2411 C2398 0.962 . S
H2412 C2398 0.960 . S
H2413 C2399 0.961 . S
H2414 C2399 0.961 . S
H2415 C2399 0.961 . S
H2416 C2400 0.931 . S
H2417 C2405 0.930 . S
H2418 C2406 0.956 . S
H2419 C2406 0.961 . S
H2420 C2406 0.961 . S
H2421 C2407 0.958 . S
H2422 C2407 0.961 . S
H2423 C2407 0.960 . S
C2424 C2425 1.391 . S
C2424 C2426 1.394 . S
C2424 H2440 0.931 . S
C2425 C2424 1.391 . S
C2425 C2429 1.376 . S
C2426 C2424 1.394 . S
C2426 C2427 1.369 . S
C2426 C2430 1.531 . S
C2427 C2426 1.369 . S
C2427 C2428 1.410 . S
C2427 C2435 1.503 . S
C2428 C2427 1.410 . S
C2428 C2429 1.392 . S
C2428 C2431 1.511 . S
C2429 C2425 1.376 . S
C2429 C2428 1.392 . S
C2429 H2441 0.929 . S
C2430 C2426 1.531 . S
C2430 H2442 0.960 . S
C2430 H2443 0.962 . S
C2430 H2444 0.960 . S
C2431 C2428 1.511 . S
C2431 H2445 0.961 . S
C2431 H2446 0.961 . S
C2431 H2447 0.961 . S
C2432 C2433 1.370 . S
C2432 C2434 1.363 . S
C2432 H2448 0.931 . S
C2433 C2432 1.370 . S
C2433 C2437 1.408 . S
C2434 C2432 1.363 . S
C2434 C2435 1.370 . S
C2434 C2438 1.524 . S
C2435 C2427 1.503 . S
C2435 C2434 1.370 . S
C2435 C2436 1.403 . S
C2436 C2435 1.403 . S
C2436 C2437 1.404 . S
C2436 C2439 1.539 . S
C2437 C2433 1.408 . S
C2437 C2436 1.404 . S
C2437 H2449 0.930 . S
C2438 C2434 1.524 . S
C2438 H2450 0.956 . S
C2438 H2451 0.961 . S
C2438 H2452 0.961 . S
C2439 C2436 1.539 . S
C2439 H2453 0.958 . S
C2439 H2454 0.961 . S
C2439 H2455 0.960 . S
H2440 C2424 0.931 . S
H2441 C2429 0.929 . S
H2442 C2430 0.960 . S
H2443 C2430 0.962 . S
H2444 C2430 0.960 . S
H2445 C2431 0.961 . S
H2446 C2431 0.961 . S
H2447 C2431 0.961 . S
H2448 C2432 0.931 . S
H2449 C2437 0.930 . S
H2450 C2438 0.956 . S
H2451 C2438 0.961 . S
H2452 C2438 0.961 . S
H2453 C2439 0.958 . S
H2454 C2439 0.961 . S
H2455 C2439 0.960 . S
C2456 C2457 1.391 . S
C2456 C2458 1.394 . S
C2456 H2472 0.931 . S
C2457 C2456 1.391 . S
C2457 C2461 1.376 . S
C2458 C2456 1.394 . S
C2458 C2459 1.369 . S
C2458 C2462 1.531 . S
C2459 C2458 1.369 . S
C2459 C2460 1.410 . S
C2459 C2467 1.503 . S
C2460 C2459 1.410 . S
C2460 C2461 1.392 . S
C2460 C2463 1.511 . S
C2461 C2457 1.376 . S
C2461 C2460 1.392 . S
C2461 H2473 0.929 . S
C2462 C2458 1.531 . S
C2462 H2474 0.960 . S
C2462 H2475 0.962 . S
C2462 H2476 0.960 . S
C2463 C2460 1.511 . S
C2463 H2477 0.961 . S
C2463 H2478 0.961 . S
C2463 H2479 0.961 . S
C2464 C2465 1.370 . S
C2464 C2466 1.363 . S
C2464 H2480 0.931 . S
C2465 C2464 1.370 . S
C2465 C2469 1.408 . S
C2466 C2464 1.363 . S
C2466 C2467 1.370 . S
C2466 C2470 1.524 . S
C2467 C2459 1.503 . S
C2467 C2466 1.370 . S
C2467 C2468 1.403 . S
C2468 C2467 1.403 . S
C2468 C2469 1.404 . S
C2468 C2471 1.539 . S
C2469 C2465 1.408 . S
C2469 C2468 1.404 . S
C2469 H2481 0.930 . S
C2470 C2466 1.524 . S
C2470 H2482 0.956 . S
C2470 H2483 0.961 . S
C2470 H2484 0.961 . S
C2471 C2468 1.539 . S
C2471 H2485 0.958 . S
C2471 H2486 0.961 . S
C2471 H2487 0.960 . S
H2472 C2456 0.931 . S
H2473 C2461 0.929 . S
H2474 C2462 0.960 . S
H2475 C2462 0.962 . S
H2476 C2462 0.960 . S
H2477 C2463 0.961 . S
H2478 C2463 0.961 . S
H2479 C2463 0.961 . S
H2480 C2464 0.931 . S
H2481 C2469 0.930 . S
H2482 C2470 0.956 . S
H2483 C2470 0.961 . S
H2484 C2470 0.961 . S
H2485 C2471 0.958 . S
H2486 C2471 0.961 . S
H2487 C2471 0.960 . S
C2488 C2489 1.391 . S
C2488 C2490 1.394 . S
C2488 H2504 0.931 . S
C2489 C2488 1.391 . S
C2489 C2493 1.376 . S
C2490 C2488 1.394 . S
C2490 C2491 1.369 . S
C2490 C2494 1.531 . S
C2491 C2490 1.369 . S
C2491 C2492 1.410 . S
C2491 C2499 1.503 . S
C2492 C2491 1.410 . S
C2492 C2493 1.392 . S
C2492 C2495 1.511 . S
C2493 C2489 1.376 . S
C2493 C2492 1.392 . S
C2493 H2505 0.929 . S
C2494 C2490 1.531 . S
C2494 H2506 0.960 . S
C2494 H2507 0.962 . S
C2494 H2508 0.960 . S
C2495 C2492 1.511 . S
C2495 H2509 0.961 . S
C2495 H2510 0.961 . S
C2495 H2511 0.961 . S
C2496 C2497 1.370 . S
C2496 C2498 1.363 . S
C2496 H2512 0.931 . S
C2497 C2496 1.370 . S
C2497 C2501 1.408 . S
C2498 C2496 1.363 . S
C2498 C2499 1.370 . S
C2498 C2502 1.524 . S
C2499 C2491 1.503 . S
C2499 C2498 1.370 . S
C2499 C2500 1.403 . S
C2500 C2499 1.403 . S
C2500 C2501 1.404 . S
C2500 C2503 1.539 . S
C2501 C2497 1.408 . S
C2501 C2500 1.404 . S
C2501 H2513 0.930 . S
C2502 C2498 1.524 . S
C2502 H2514 0.956 . S
C2502 H2515 0.961 . S
C2502 H2516 0.961 . S
C2503 C2500 1.539 . S
C2503 H2517 0.958 . S
C2503 H2518 0.961 . S
C2503 H2519 0.960 . S
H2504 C2488 0.931 . S
H2505 C2493 0.929 . S
H2506 C2494 0.960 . S
H2507 C2494 0.962 . S
H2508 C2494 0.960 . S
H2509 C2495 0.961 . S
H2510 C2495 0.961 . S
H2511 C2495 0.961 . S
H2512 C2496 0.931 . S
H2513 C2501 0.930 . S
H2514 C2502 0.956 . S
H2515 C2502 0.961 . S
H2516 C2502 0.961 . S
H2517 C2503 0.958 . S
H2518 C2503 0.961 . S
H2519 C2503 0.960 . S
C2520 C2521 1.391 . S
C2520 C2522 1.394 . S
C2520 H2536 0.931 . S
C2521 C2520 1.391 . S
C2521 C2525 1.376 . S
C2522 C2520 1.394 . S
C2522 C2523 1.369 . S
C2522 C2526 1.531 . S
C2523 C2522 1.369 . S
C2523 C2524 1.410 . S
C2523 C2531 1.503 . S
C2524 C2523 1.410 . S
C2524 C2525 1.392 . S
C2524 C2527 1.511 . S
C2525 C2521 1.376 . S
C2525 C2524 1.392 . S
C2525 H2537 0.929 . S
C2526 C2522 1.531 . S
C2526 H2538 0.960 . S
C2526 H2539 0.962 . S
C2526 H2540 0.960 . S
C2527 C2524 1.511 . S
C2527 H2541 0.961 . S
C2527 H2542 0.961 . S
C2527 H2543 0.961 . S
C2528 C2529 1.370 . S
C2528 C2530 1.363 . S
C2528 H2544 0.931 . S
C2529 C2528 1.370 . S
C2529 C2533 1.408 . S
C2530 C2528 1.363 . S
C2530 C2531 1.370 . S
C2530 C2534 1.524 . S
C2531 C2523 1.503 . S
C2531 C2530 1.370 . S
C2531 C2532 1.403 . S
C2532 C2531 1.403 . S
C2532 C2533 1.404 . S
C2532 C2535 1.539 . S
C2533 C2529 1.408 . S
C2533 C2532 1.404 . S
C2533 H2545 0.930 . S
C2534 C2530 1.524 . S
C2534 H2546 0.956 . S
C2534 H2547 0.961 . S
C2534 H2548 0.961 . S
C2535 C2532 1.539 . S
C2535 H2549 0.958 . S
C2535 H2550 0.961 . S
C2535 H2551 0.960 . S
H2536 C2520 0.931 . S
H2537 C2525 0.929 . S
H2538 C2526 0.960 . S
H2539 C2526 0.962 . S
H2540 C2526 0.960 . S
H2541 C2527 0.961 . S
H2542 C2527 0.961 . S
H2543 C2527 0.961 . S
H2544 C2528 0.931 . S
H2545 C2533 0.930 . S
H2546 C2534 0.956 . S
H2547 C2534 0.961 . S
H2548 C2534 0.961 . S
H2549 C2535 0.958 . S
H2550 C2535 0.961 . S
H2551 C2535 0.960 . S
C2552 C2553 1.391 . S
C2552 C2554 1.394 . S
C2552 H2568 0.931 . S
C2553 C2552 1.391 . S
C2553 C2557 1.376 . S
C2554 C2552 1.394 . S
C2554 C2555 1.369 . S
C2554 C2558 1.531 . S
C2555 C2554 1.369 . S
C2555 C2556 1.410 . S
C2555 C2563 1.503 . S
C2556 C2555 1.410 . S
C2556 C2557 1.392 . S
C2556 C2559 1.511 . S
C2557 C2553 1.376 . S
C2557 C2556 1.392 . S
C2557 H2569 0.929 . S
C2558 C2554 1.531 . S
C2558 H2570 0.960 . S
C2558 H2571 0.962 . S
C2558 H2572 0.960 . S
C2559 C2556 1.511 . S
C2559 H2573 0.961 . S
C2559 H2574 0.961 . S
C2559 H2575 0.961 . S
C2560 C2561 1.370 . S
C2560 C2562 1.363 . S
C2560 H2576 0.931 . S
C2561 C2560 1.370 . S
C2561 C2565 1.408 . S
C2562 C2560 1.363 . S
C2562 C2563 1.370 . S
C2562 C2566 1.524 . S
C2563 C2555 1.503 . S
C2563 C2562 1.370 . S
C2563 C2564 1.403 . S
C2564 C2563 1.403 . S
C2564 C2565 1.404 . S
C2564 C2567 1.539 . S
C2565 C2561 1.408 . S
C2565 C2564 1.404 . S
C2565 H2577 0.930 . S
C2566 C2562 1.524 . S
C2566 H2578 0.956 . S
C2566 H2579 0.961 . S
C2566 H2580 0.961 . S
C2567 C2564 1.539 . S
C2567 H2581 0.958 . S
C2567 H2582 0.961 . S
C2567 H2583 0.960 . S
H2568 C2552 0.931 . S
H2569 C2557 0.929 . S
H2570 C2558 0.960 . S
H2571 C2558 0.962 . S
H2572 C2558 0.960 . S
H2573 C2559 0.961 . S
H2574 C2559 0.961 . S
H2575 C2559 0.961 . S
H2576 C2560 0.931 . S
H2577 C2565 0.930 . S
H2578 C2566 0.956 . S
H2579 C2566 0.961 . S
H2580 C2566 0.961 . S
H2581 C2567 0.958 . S
H2582 C2567 0.961 . S
H2583 C2567 0.960 . S
C2584 C2585 1.391 . S
C2584 C2586 1.394 . S
C2584 H2600 0.931 . S
C2585 C2584 1.391 . S
C2585 C2589 1.376 . S
C2586 C2584 1.394 . S
C2586 C2587 1.369 . S
C2586 C2590 1.531 . S
C2587 C2586 1.369 . S
C2587 C2588 1.410 . S
C2587 C2595 1.503 . S
C2588 C2587 1.410 . S
C2588 C2589 1.392 . S
C2588 C2591 1.511 . S
C2589 C2585 1.376 . S
C2589 C2588 1.392 . S
C2589 H2601 0.929 . S
C2590 C2586 1.531 . S
C2590 H2602 0.960 . S
C2590 H2603 0.962 . S
C2590 H2604 0.960 . S
C2591 C2588 1.511 . S
C2591 H2605 0.961 . S
C2591 H2606 0.961 . S
C2591 H2607 0.961 . S
C2592 C2593 1.370 . S
C2592 C2594 1.363 . S
C2592 H2608 0.931 . S
C2593 C2592 1.370 . S
C2593 C2597 1.408 . S
C2594 C2592 1.363 . S
C2594 C2595 1.370 . S
C2594 C2598 1.524 . S
C2595 C2587 1.503 . S
C2595 C2594 1.370 . S
C2595 C2596 1.403 . S
C2596 C2595 1.403 . S
C2596 C2597 1.404 . S
C2596 C2599 1.539 . S
C2597 C2593 1.408 . S
C2597 C2596 1.404 . S
C2597 H2609 0.930 . S
C2598 C2594 1.524 . S
C2598 H2610 0.956 . S
C2598 H2611 0.961 . S
C2598 H2612 0.961 . S
C2599 C2596 1.539 . S
C2599 H2613 0.958 . S
C2599 H2614 0.961 . S
C2599 H2615 0.960 . S
H2600 C2584 0.931 . S
H2601 C2589 0.929 . S
H2602 C2590 0.960 . S
H2603 C2590 0.962 . S
H2604 C2590 0.960 . S
H2605 C2591 0.961 . S
H2606 C2591 0.961 . S
H2607 C2591 0.961 . S
H2608 C2592 0.931 . S
H2609 C2597 0.930 . S
H2610 C2598 0.956 . S
H2611 C2598 0.961 . S
H2612 C2598 0.961 . S
H2613 C2599 0.958 . S
H2614 C2599 0.961 . S
H2615 C2599 0.960 . S
C2616 C2617 1.391 . S
C2616 C2618 1.394 . S
C2616 H2632 0.931 . S
C2617 C2616 1.391 . S
C2617 C2621 1.376 . S
C2618 C2616 1.394 . S
C2618 C2619 1.369 . S
C2618 C2622 1.531 . S
C2619 C2618 1.369 . S
C2619 C2620 1.410 . S
C2619 C2627 1.503 . S
C2620 C2619 1.410 . S
C2620 C2621 1.392 . S
C2620 C2623 1.511 . S
C2621 C2617 1.376 . S
C2621 C2620 1.392 . S
C2621 H2633 0.929 . S
C2622 C2618 1.531 . S
C2622 H2634 0.960 . S
C2622 H2635 0.962 . S
C2622 H2636 0.960 . S
C2623 C2620 1.511 . S
C2623 H2637 0.961 . S
C2623 H2638 0.961 . S
C2623 H2639 0.961 . S
C2624 C2625 1.370 . S
C2624 C2626 1.363 . S
C2624 H2640 0.931 . S
C2625 C2624 1.370 . S
C2625 C2629 1.408 . S
C2626 C2624 1.363 . S
C2626 C2627 1.370 . S
C2626 C2630 1.524 . S
C2627 C2619 1.503 . S
C2627 C2626 1.370 . S
C2627 C2628 1.403 . S
C2628 C2627 1.403 . S
C2628 C2629 1.404 . S
C2628 C2631 1.539 . S
C2629 C2625 1.408 . S
C2629 C2628 1.404 . S
C2629 H2641 0.930 . S
C2630 C2626 1.524 . S
C2630 H2642 0.956 . S
C2630 H2643 0.961 . S
C2630 H2644 0.961 . S
C2631 C2628 1.539 . S
C2631 H2645 0.958 . S
C2631 H2646 0.961 . S
C2631 H2647 0.960 . S
H2632 C2616 0.931 . S
H2633 C2621 0.929 . S
H2634 C2622 0.960 . S
H2635 C2622 0.962 . S
H2636 C2622 0.960 . S
H2637 C2623 0.961 . S
H2638 C2623 0.961 . S
H2639 C2623 0.961 . S
H2640 C2624 0.931 . S
H2641 C2629 0.930 . S
H2642 C2630 0.956 . S
H2643 C2630 0.961 . S
H2644 C2630 0.961 . S
H2645 C2631 0.958 . S
H2646 C2631 0.961 . S
H2647 C2631 0.960 . S
C2648 C2649 1.391 . S
C2648 C2650 1.394 . S
C2648 H2664 0.931 . S
C2649 C2648 1.391 . S
C2649 C2653 1.376 . S
C2650 C2648 1.394 . S
C2650 C2651 1.369 . S
C2650 C2654 1.531 . S
C2651 C2650 1.369 . S
C2651 C2652 1.410 . S
C2651 C2659 1.503 . S
C2652 C2651 1.410 . S
C2652 C2653 1.392 . S
C2652 C2655 1.511 . S
C2653 C2649 1.376 . S
C2653 C2652 1.392 . S
C2653 H2665 0.929 . S
C2654 C2650 1.531 . S
C2654 H2666 0.960 . S
C2654 H2667 0.962 . S
C2654 H2668 0.960 . S
C2655 C2652 1.511 . S
C2655 H2669 0.961 . S
C2655 H2670 0.961 . S
C2655 H2671 0.961 . S
C2656 C2657 1.370 . S
C2656 C2658 1.363 . S
C2656 H2672 0.931 . S
C2657 C2656 1.370 . S
C2657 C2661 1.408 . S
C2658 C2656 1.363 . S
C2658 C2659 1.370 . S
C2658 C2662 1.524 . S
C2659 C2651 1.503 . S
C2659 C2658 1.370 . S
C2659 C2660 1.403 . S
C2660 C2659 1.403 . S
C2660 C2661 1.404 . S
C2660 C2663 1.539 . S
C2661 C2657 1.408 . S
C2661 C2660 1.404 . S
C2661 H2673 0.930 . S
C2662 C2658 1.524 . S
C2662 H2674 0.956 . S
C2662 H2675 0.961 . S
C2662 H2676 0.961 . S
C2663 C2660 1.539 . S
C2663 H2677 0.958 . S
C2663 H2678 0.961 . S
C2663 H2679 0.960 . S
H2664 C2648 0.931 . S
H2665 C2653 0.929 . S
H2666 C2654 0.960 . S
H2667 C2654 0.962 . S
H2668 C2654 0.960 . S
H2669 C2655 0.961 . S
H2670 C2655 0.961 . S
H2671 C2655 0.961 . S
H2672 C2656 0.931 . S
H2673 C2661 0.930 . S
H2674 C2662 0.956 . S
H2675 C2662 0.961 . S
H2676 C2662 0.961 . S
H2677 C2663 0.958 . S
H2678 C2663 0.961 . S
H2679 C2663 0.960 . S
C2680 C2681 1.391 . S
C2680 C2682 1.394 . S
C2680 H2696 0.931 . S
C2681 C2680 1.391 . S
C2681 C2685 1.376 . S
C2682 C2680 1.394 . S
C2682 C2683 1.369 . S
C2682 C2686 1.531 . S
C2683 C2682 1.369 . S
C2683 C2684 1.410 . S
C2683 C2691 1.503 . S
C2684 C2683 1.410 . S
C2684 C2685 1.392 . S
C2684 C2687 1.511 . S
C2685 C2681 1.376 . S
C2685 C2684 1.392 . S
C2685 H2697 0.929 . S
C2686 C2682 1.531 . S
C2686 H2698 0.960 . S
C2686 H2699 0.962 . S
C2686 H2700 0.960 . S
C2687 C2684 1.511 . S
C2687 H2701 0.961 . S
C2687 H2702 0.961 . S
C2687 H2703 0.961 . S
C2688 C2689 1.370 . S
C2688 C2690 1.363 . S
C2688 H2704 0.931 . S
C2689 C2688 1.370 . S
C2689 C2693 1.408 . S
C2690 C2688 1.363 . S
C2690 C2691 1.370 . S
C2690 C2694 1.524 . S
C2691 C2683 1.503 . S
C2691 C2690 1.370 . S
C2691 C2692 1.403 . S
C2692 C2691 1.403 . S
C2692 C2693 1.404 . S
C2692 C2695 1.539 . S
C2693 C2689 1.408 . S
C2693 C2692 1.404 . S
C2693 H2705 0.930 . S
C2694 C2690 1.524 . S
C2694 H2706 0.956 . S
C2694 H2707 0.961 . S
C2694 H2708 0.961 . S
C2695 C2692 1.539 . S
C2695 H2709 0.958 . S
C2695 H2710 0.961 . S
C2695 H2711 0.960 . S
H2696 C2680 0.931 . S
H2697 C2685 0.929 . S
H2698 C2686 0.960 . S
H2699 C2686 0.962 . S
H2700 C2686 0.960 . S
H2701 C2687 0.961 . S
H2702 C2687 0.961 . S
H2703 C2687 0.961 . S
H2704 C2688 0.931 . S
H2705 C2693 0.930 . S
H2706 C2694 0.956 . S
H2707 C2694 0.961 . S
H2708 C2694 0.961 . S
H2709 C2695 0.958 . S
H2710 C2695 0.961 . S
H2711 C2695 0.960 . S
C2712 C2713 1.391 . S
C2712 C2714 1.394 . S
C2712 H2728 0.931 . S
C2713 C2712 1.391 . S
C2713 C2717 1.376 . S
C2714 C2712 1.394 . S
C2714 C2715 1.369 . S
C2714 C2718 1.531 . S
C2715 C2714 1.369 . S
C2715 C2716 1.410 . S
C2715 C2723 1.503 . S
C2716 C2715 1.410 . S
C2716 C2717 1.392 . S
C2716 C2719 1.511 . S
C2717 C2713 1.376 . S
C2717 C2716 1.392 . S
C2717 H2729 0.929 . S
C2718 C2714 1.531 . S
C2718 H2730 0.960 . S
C2718 H2731 0.962 . S
C2718 H2732 0.960 . S
C2719 C2716 1.511 . S
C2719 H2733 0.961 . S
C2719 H2734 0.961 . S
C2719 H2735 0.961 . S
C2720 C2721 1.370 . S
C2720 C2722 1.363 . S
C2720 H2736 0.931 . S
C2721 C2720 1.370 . S
C2721 C2725 1.408 . S
C2722 C2720 1.363 . S
C2722 C2723 1.370 . S
C2722 C2726 1.524 . S
C2723 C2715 1.503 . S
C2723 C2722 1.370 . S
C2723 C2724 1.403 . S
C2724 C2723 1.403 . S
C2724 C2725 1.404 . S
C2724 C2727 1.539 . S
C2725 C2721 1.408 . S
C2725 C2724 1.404 . S
C2725 H2737 0.930 . S
C2726 C2722 1.524 . S
C2726 H2738 0.956 . S
C2726 H2739 0.961 . S
C2726 H2740 0.961 . S
C2727 C2724 1.539 . S
C2727 H2741 0.958 . S
C2727 H2742 0.961 . S
C2727 H2743 0.960 . S
H2728 C2712 0.931 . S
H2729 C2717 0.929 . S
H2730 C2718 0.960 . S
H2731 C2718 0.962 . S
H2732 C2718 0.960 . S
H2733 C2719 0.961 . S
H2734 C2719 0.961 . S
H2735 C2719 0.961 . S
H2736 C2720 0.931 . S
H2737 C2725 0.930 . S
H2738 C2726 0.956 . S
H2739 C2726 0.961 . S
H2740 C2726 0.961 . S
H2741 C2727 0.958 . S
H2742 C2727 0.961 . S
H2743 C2727 0.960 . S
C2744 C2745 1.391 . S
C2744 C2746 1.394 . S
C2744 H2760 0.931 . S
C2745 C2744 1.391 . S
C2745 C2749 1.376 . S
C2746 C2744 1.394 . S
C2746 C2747 1.369 . S
C2746 C2750 1.531 . S
C2747 C2746 1.369 . S
C2747 C2748 1.410 . S
C2747 C2755 1.503 . S
C2748 C2747 1.410 . S
C2748 C2749 1.392 . S
C2748 C2751 1.511 . S
C2749 C2745 1.376 . S
C2749 C2748 1.392 . S
C2749 H2761 0.929 . S
C2750 C2746 1.531 . S
C2750 H2762 0.960 . S
C2750 H2763 0.962 . S
C2750 H2764 0.960 . S
C2751 C2748 1.511 . S
C2751 H2765 0.961 . S
C2751 H2766 0.961 . S
C2751 H2767 0.961 . S
C2752 C2753 1.370 . S
C2752 C2754 1.363 . S
C2752 H2768 0.931 . S
C2753 C2752 1.370 . S
C2753 C2757 1.408 . S
C2754 C2752 1.363 . S
C2754 C2755 1.370 . S
C2754 C2758 1.524 . S
C2755 C2747 1.503 . S
C2755 C2754 1.370 . S
C2755 C2756 1.403 . S
C2756 C2755 1.403 . S
C2756 C2757 1.404 . S
C2756 C2759 1.539 . S
C2757 C2753 1.408 . S
C2757 C2756 1.404 . S
C2757 H2769 0.930 . S
C2758 C2754 1.524 . S
C2758 H2770 0.956 . S
C2758 H2771 0.961 . S
C2758 H2772 0.961 . S
C2759 C2756 1.539 . S
C2759 H2773 0.958 . S
C2759 H2774 0.961 . S
C2759 H2775 0.960 . S
H2760 C2744 0.931 . S
H2761 C2749 0.929 . S
H2762 C2750 0.960 . S
H2763 C2750 0.962 . S
H2764 C2750 0.960 . S
H2765 C2751 0.961 . S
H2766 C2751 0.961 . S
H2767 C2751 0.961 . S
H2768 C2752 0.931 . S
H2769 C2757 0.930 . S
H2770 C2758 0.956 . S
H2771 C2758 0.961 . S
H2772 C2758 0.961 . S
H2773 C2759 0.958 . S
H2774 C2759 0.961 . S
H2775 C2759 0.960 . S
C2776 C2777 1.391 . S
C2776 C2778 1.394 . S
C2776 H2792 0.931 . S
C2777 C2776 1.391 . S
C2777 C2781 1.376 . S
C2778 C2776 1.394 . S
C2778 C2779 1.369 . S
C2778 C2782 1.531 . S
C2779 C2778 1.369 . S
C2779 C2780 1.410 . S
C2779 C2787 1.503 . S
C2780 C2779 1.410 . S
C2780 C2781 1.392 . S
C2780 C2783 1.511 1_554 S
C2781 C2777 1.376 . S
C2781 C2780 1.392 . S
C2781 H2793 0.929 1_554 S
C2782 C2778 1.531 . S
C2782 H2794 0.960 . S
C2782 H2795 0.962 . S
C2782 H2796 0.960 . S
C2783 C2780 1.511 1_556 S
C2783 H2797 0.961 . S
C2783 H2798 0.961 . S
C2783 H2799 0.961 . S
C2784 C2785 1.370 . S
C2784 C2786 1.363 1_545 S
C2784 H2800 0.931 . S
C2785 C2784 1.370 . S
C2785 C2789 1.408 1_545 S
C2786 C2784 1.363 1_565 S
C2786 C2787 1.370 . S
C2786 C2790 1.524 1_565 S
C2787 C2779 1.503 . S
C2787 C2786 1.370 . S
C2787 C2788 1.403 . S
C2788 C2787 1.403 . S
C2788 C2789 1.404 . S
C2788 C2791 1.539 . S
C2789 C2785 1.408 1_565 S
C2789 C2788 1.404 . S
C2789 H2801 0.930 . S
C2790 C2786 1.524 1_545 S
C2790 H2802 0.956 . S
C2790 H2803 0.986 1_545 S
C2790 H2804 0.961 . S
C2791 C2788 1.539 . S
C2791 H2805 0.958 . S
C2791 H2806 0.961 . S
C2791 H2807 0.960 . S
H2792 C2776 0.931 . S
H2793 C2781 0.929 1_556 S
H2794 C2782 0.960 . S
H2795 C2782 0.962 . S
H2796 C2782 0.960 . S
H2797 C2783 0.961 . S
H2798 C2783 0.961 . S
H2799 C2783 0.961 . S
H2800 C2784 0.931 . S
H2801 C2789 0.930 . S
H2802 C2790 0.956 . S
H2803 C2790 0.986 1_565 S
H2804 C2790 0.961 . S
H2805 C2791 0.958 . S
H2806 C2791 0.961 . S
H2807 C2791 0.960 . S
C2808 C2809 1.391 . S
C2808 C2810 1.394 . S
C2808 H2824 0.931 . S
C2809 C2808 1.391 . S
C2809 C2813 1.376 . S
C2810 C2808 1.394 . S
C2810 C2811 1.369 . S
C2810 C2814 1.531 . S
C2811 C2810 1.369 . S
C2811 C2812 1.410 . S
C2811 C2819 1.503 . S
C2812 C2811 1.410 . S
C2812 C2813 1.392 . S
C2812 C2815 1.511 . S
C2813 C2809 1.376 . S
C2813 C2812 1.392 . S
C2813 H2825 0.929 . S
C2814 C2810 1.531 . S
C2814 H2826 0.960 . S
C2814 H2827 0.962 . S
C2814 H2828 0.960 . S
C2815 C2812 1.511 . S
C2815 H2829 0.961 . S
C2815 H2830 0.961 . S
C2815 H2831 0.961 . S
C2816 C2817 1.370 . S
C2816 C2818 1.363 . S
C2816 H2832 0.931 . S
C2817 C2816 1.370 . S
C2817 C2821 1.408 . S
C2818 C2816 1.363 . S
C2818 C2819 1.370 . S
C2818 C2822 1.524 . S
C2819 C2811 1.503 . S
C2819 C2818 1.370 . S
C2819 C2820 1.403 . S
C2820 C2819 1.403 . S
C2820 C2821 1.404 . S
C2820 C2823 1.539 . S
C2821 C2817 1.408 . S
C2821 C2820 1.404 . S
C2821 H2833 0.930 . S
C2822 C2818 1.524 . S
C2822 H2834 0.956 . S
C2822 H2835 0.961 . S
C2822 H2836 0.961 . S
C2823 C2820 1.539 . S
C2823 H2837 0.958 . S
C2823 H2838 0.961 . S
C2823 H2839 0.960 . S
H2824 C2808 0.931 . S
H2825 C2813 0.929 . S
H2826 C2814 0.960 . S
H2827 C2814 0.962 . S
H2828 C2814 0.960 . S
H2829 C2815 0.961 . S
H2830 C2815 0.961 . S
H2831 C2815 0.961 . S
H2832 C2816 0.931 . S
H2833 C2821 0.930 . S
H2834 C2822 0.956 . S
H2835 C2822 0.961 . S
H2836 C2822 0.961 . S
H2837 C2823 0.958 . S
H2838 C2823 0.961 . S
H2839 C2823 0.960 . S
C2840 C2841 1.391 . S
C2840 C2842 1.394 . S
C2840 H2856 0.931 1_554 S
C2841 C2840 1.391 . S
C2841 C2845 1.376 . S
C2842 C2840 1.394 . S
C2842 C2843 1.369 . S
C2842 C2846 1.531 1_554 S
C2843 C2842 1.369 . S
C2843 C2844 1.410 . S
C2843 C2851 1.503 . S
C2844 C2843 1.410 . S
C2844 C2845 1.392 . S
C2844 C2847 1.511 . S
C2845 C2841 1.376 . S
C2845 C2844 1.392 . S
C2845 H2857 0.929 . S
C2846 C2842 1.531 1_556 S
C2846 H2858 0.960 1_556 S
C2846 H2859 0.962 . S
C2846 H2860 0.960 . S
C2847 C2844 1.511 . S
C2847 H2861 0.961 . S
C2847 H2862 0.961 . S
C2847 H2863 0.961 . S
C2848 C2849 1.370 . S
C2848 C2850 1.363 . S
C2848 H2864 0.931 . S
C2849 C2848 1.370 . S
C2849 C2853 1.408 . S
C2850 C2848 1.363 . S
C2850 C2851 1.370 . S
C2850 C2854 1.524 . S
C2851 C2843 1.503 . S
C2851 C2850 1.370 . S
C2851 C2852 1.403 . S
C2852 C2851 1.403 . S
C2852 C2853 1.404 . S
C2852 C2855 1.539 . S
C2853 C2849 1.408 . S
C2853 C2852 1.404 . S
C2853 H2865 0.930 . S
C2854 C2850 1.524 . S
C2854 H2866 0.956 1_554 S
C2854 H2867 0.961 . S
C2854 H2868 0.964 . S
C2855 C2852 1.539 . S
C2855 H2869 0.958 . S
C2855 H2870 0.961 . S
C2855 H2871 0.960 . S
H2856 C2840 0.931 1_556 S
H2857 C2845 0.929 . S
H2858 C2846 0.960 1_554 S
H2859 C2846 0.962 . S
H2860 C2846 0.960 . S
H2861 C2847 0.961 . S
H2862 C2847 0.961 . S
H2863 C2847 0.961 . S
H2864 C2848 0.931 . S
H2865 C2853 0.930 . S
H2866 C2854 0.956 1_556 S
H2867 C2854 0.961 . S
H2868 C2854 0.964 . S
H2869 C2855 0.958 . S
H2870 C2855 0.961 . S
H2871 C2855 0.960 . S
C2872 C2873 1.391 . S
C2872 C2874 1.394 . S
C2872 H2888 0.931 . S
C2873 C2872 1.391 . S
C2873 C2877 1.376 . S
C2874 C2872 1.394 . S
C2874 C2875 1.369 . S
C2874 C2878 1.531 . S
C2875 C2874 1.369 . S
C2875 C2876 1.410 . S
C2875 C2883 1.503 . S
C2876 C2875 1.410 . S
C2876 C2877 1.392 . S
C2876 C2879 1.511 . S
C2877 C2873 1.376 . S
C2877 C2876 1.392 . S
C2877 H2889 0.929 . S
C2878 C2874 1.531 . S
C2878 H2890 0.960 . S
C2878 H2891 0.962 . S
C2878 H2892 0.960 . S
C2879 C2876 1.511 . S
C2879 H2893 0.961 . S
C2879 H2894 0.961 . S
C2879 H2895 0.961 . S
C2880 C2881 1.370 . S
C2880 C2882 1.363 . S
C2880 H2896 0.931 . S
C2881 C2880 1.370 . S
C2881 C2885 1.408 . S
C2882 C2880 1.363 . S
C2882 C2883 1.370 . S
C2882 C2886 1.524 . S
C2883 C2875 1.503 . S
C2883 C2882 1.370 . S
C2883 C2884 1.403 . S
C2884 C2883 1.403 . S
C2884 C2885 1.404 . S
C2884 C2887 1.539 . S
C2885 C2881 1.408 . S
C2885 C2884 1.404 . S
C2885 H2897 0.930 . S
C2886 C2882 1.524 . S
C2886 H2898 0.956 . S
C2886 H2899 0.961 . S
C2886 H2900 0.961 . S
C2887 C2884 1.539 . S
C2887 H2901 0.958 . S
C2887 H2902 0.961 . S
C2887 H2903 0.960 . S
H2888 C2872 0.931 . S
H2889 C2877 0.929 . S
H2890 C2878 0.960 . S
H2891 C2878 0.962 . S
H2892 C2878 0.960 . S
H2893 C2879 0.961 . S
H2894 C2879 0.961 . S
H2895 C2879 0.961 . S
H2896 C2880 0.931 . S
H2897 C2885 0.930 . S
H2898 C2886 0.956 . S
H2899 C2886 0.961 . S
H2900 C2886 0.961 . S
H2901 C2887 0.958 . S
H2902 C2887 0.961 . S
H2903 C2887 0.960 . S
C2904 C2905 1.391 . S
C2904 C2906 1.394 . S
C2904 H2920 0.931 . S
C2905 C2904 1.391 . S
C2905 C2909 1.376 . S
C2906 C2904 1.394 . S
C2906 C2907 1.369 . S
C2906 C2910 1.531 . S
C2907 C2906 1.369 . S
C2907 C2908 1.410 . S
C2907 C2915 1.503 . S
C2908 C2907 1.410 . S
C2908 C2909 1.392 . S
C2908 C2911 1.511 . S
C2909 C2905 1.376 . S
C2909 C2908 1.392 . S
C2909 H2921 0.929 . S
C2910 C2906 1.531 . S
C2910 H2922 0.960 . S
C2910 H2923 0.962 . S
C2910 H2924 0.960 . S
C2911 C2908 1.511 . S
C2911 H2925 0.961 . S
C2911 H2926 0.961 . S
C2911 H2927 0.961 . S
C2912 C2913 1.370 . S
C2912 C2914 1.363 . S
C2912 H2928 0.931 . S
C2913 C2912 1.370 . S
C2913 C2917 1.408 . S
C2914 C2912 1.363 . S
C2914 C2915 1.370 . S
C2914 C2918 1.524 . S
C2915 C2907 1.503 . S
C2915 C2914 1.370 . S
C2915 C2916 1.403 . S
C2916 C2915 1.403 . S
C2916 C2917 1.404 . S
C2916 C2919 1.539 . S
C2917 C2913 1.408 . S
C2917 C2916 1.404 . S
C2917 H2929 0.930 . S
C2918 C2914 1.524 . S
C2918 H2930 0.956 . S
C2918 H2931 0.961 . S
C2918 H2932 0.961 . S
C2919 C2916 1.539 . S
C2919 H2933 0.958 . S
C2919 H2934 0.961 . S
C2919 H2935 0.960 . S
H2920 C2904 0.931 . S
H2921 C2909 0.929 . S
H2922 C2910 0.960 . S
H2923 C2910 0.962 . S
H2924 C2910 0.960 . S
H2925 C2911 0.961 . S
H2926 C2911 0.961 . S
H2927 C2911 0.961 . S
H2928 C2912 0.931 . S
H2929 C2917 0.930 . S
H2930 C2918 0.956 . S
H2931 C2918 0.961 . S
H2932 C2918 0.961 . S
H2933 C2919 0.958 . S
H2934 C2919 0.961 . S
H2935 C2919 0.960 . S
C2936 C2937 1.391 . S
C2936 C2938 1.394 . S
C2936 H2952 0.931 . S
C2937 C2936 1.391 . S
C2937 C2941 1.376 . S
C2938 C2936 1.394 . S
C2938 C2939 1.369 . S
C2938 C2942 1.531 . S
C2939 C2938 1.369 . S
C2939 C2940 1.410 . S
C2939 C2947 1.503 . S
C2940 C2939 1.410 . S
C2940 C2941 1.392 . S
C2940 C2943 1.511 . S
C2941 C2937 1.376 . S
C2941 C2940 1.392 . S
C2941 H2953 0.929 . S
C2942 C2938 1.531 . S
C2942 H2954 0.960 . S
C2942 H2955 0.962 . S
C2942 H2956 0.960 . S
C2943 C2940 1.511 . S
C2943 H2957 0.961 . S
C2943 H2958 0.961 . S
C2943 H2959 0.961 . S
C2944 C2945 1.370 . S
C2944 C2946 1.363 . S
C2944 H2960 0.931 . S
C2945 C2944 1.370 . S
C2945 C2949 1.408 . S
C2946 C2944 1.363 . S
C2946 C2947 1.370 . S
C2946 C2950 1.524 . S
C2947 C2939 1.503 . S
C2947 C2946 1.370 . S
C2947 C2948 1.403 . S
C2948 C2947 1.403 . S
C2948 C2949 1.404 . S
C2948 C2951 1.539 . S
C2949 C2945 1.408 . S
C2949 C2948 1.404 . S
C2949 H2961 0.930 . S
C2950 C2946 1.524 . S
C2950 H2962 0.956 . S
C2950 H2963 0.961 . S
C2950 H2964 0.961 . S
C2951 C2948 1.539 . S
C2951 H2965 0.958 . S
C2951 H2966 0.961 . S
C2951 H2967 0.960 . S
H2952 C2936 0.931 . S
H2953 C2941 0.929 . S
H2954 C2942 0.960 . S
H2955 C2942 0.962 . S
H2956 C2942 0.960 . S
H2957 C2943 0.961 . S
H2958 C2943 0.961 . S
H2959 C2943 0.961 . S
H2960 C2944 0.931 . S
H2961 C2949 0.930 . S
H2962 C2950 0.956 . S
H2963 C2950 0.961 . S
H2964 C2950 0.961 . S
H2965 C2951 0.958 . S
H2966 C2951 0.961 . S
H2967 C2951 0.960 . S
C2968 C2969 1.391 . S
C2968 C2970 1.394 . S
C2968 H2984 0.931 . S
C2969 C2968 1.391 . S
C2969 C2973 1.376 . S
C2970 C2968 1.394 . S
C2970 C2971 1.369 . S
C2970 C2974 1.531 . S
C2971 C2970 1.369 . S
C2971 C2972 1.410 . S
C2971 C2979 1.503 . S
C2972 C2971 1.410 . S
C2972 C2973 1.392 . S
C2972 C2975 1.511 . S
C2973 C2969 1.376 . S
C2973 C2972 1.392 . S
C2973 H2985 0.929 . S
C2974 C2970 1.531 . S
C2974 H2986 0.960 . S
C2974 H2987 0.962 . S
C2974 H2988 0.960 . S
C2975 C2972 1.511 . S
C2975 H2989 0.961 . S
C2975 H2990 0.961 . S
C2975 H2991 0.961 . S
C2976 C2977 1.370 . S
C2976 C2978 1.363 . S
C2976 H2992 0.931 . S
C2977 C2976 1.370 . S
C2977 C2981 1.408 . S
C2978 C2976 1.363 . S
C2978 C2979 1.370 . S
C2978 C2982 1.524 . S
C2979 C2971 1.503 . S
C2979 C2978 1.370 . S
C2979 C2980 1.403 . S
C2980 C2979 1.403 . S
C2980 C2981 1.404 . S
C2980 C2983 1.539 . S
C2981 C2977 1.408 . S
C2981 C2980 1.404 . S
C2981 H2993 0.930 . S
C2982 C2978 1.524 . S
C2982 H2994 0.956 . S
C2982 H2995 0.961 . S
C2982 H2996 0.961 . S
C2983 C2980 1.539 . S
C2983 H2997 0.958 . S
C2983 H2998 0.961 . S
C2983 H2999 0.960 . S
H2984 C2968 0.931 . S
H2985 C2973 0.929 . S
H2986 C2974 0.960 . S
H2987 C2974 0.962 . S
H2988 C2974 0.960 . S
H2989 C2975 0.961 . S
H2990 C2975 0.961 . S
H2991 C2975 0.961 . S
H2992 C2976 0.931 . S
H2993 C2981 0.930 . S
H2994 C2982 0.956 . S
H2995 C2982 0.961 . S
H2996 C2982 0.961 . S
H2997 C2983 0.958 . S
H2998 C2983 0.961 . S
H2999 C2983 0.960 . S
C3000 C3001 1.389 1_455 S
C3000 C3002 1.394 . S
C3000 H3016 0.931 . S
C3001 C3000 1.389 1_655 S
C3001 C3005 1.377 . S
C3002 C3000 1.394 . S
C3002 C3003 1.371 . S
C3002 C3006 1.531 . S
C3003 C3002 1.371 . S
C3003 C3004 1.407 1_455 S
C3003 C3011 1.504 . S
C3004 C3003 1.407 1_655 S
C3004 C3005 1.392 . S
C3004 C3007 1.511 . S
C3005 C3001 1.377 . S
C3005 C3004 1.392 . S
C3005 H3017 0.929 . S
C3006 C3002 1.531 . S
C3006 H3018 0.960 . S
C3006 H3019 0.962 . S
C3006 H3020 0.960 . S
C3007 C3004 1.511 . S
C3007 H3021 0.961 . S
C3007 H3022 0.961 . S
C3007 H3023 0.961 . S
C3008 C3009 1.370 . S
C3008 C3010 1.363 . S
C3008 H3024 0.931 . S
C3009 C3008 1.370 . S
C3009 C3013 1.408 1_455 S
C3010 C3008 1.363 . S
C3010 C3011 1.370 . S
C3010 C3014 1.524 . S
C3011 C3003 1.504 . S
C3011 C3010 1.370 . S
C3011 C3012 1.403 1_455 S
C3012 C3011 1.403 1_655 S
C3012 C3013 1.404 . S
C3012 C3015 1.539 . S
C3013 C3009 1.408 1_655 S
C3013 C3012 1.404 . S
C3013 H3025 0.930 . S
C3014 C3010 1.524 . S
C3014 H3026 0.956 . S
C3014 H3027 0.961 . S
C3014 H3028 0.961 . S
C3015 C3012 1.539 . S
C3015 H3029 0.958 . S
C3015 H3030 0.961 . S
C3015 H3031 0.960 . S
H3016 C3000 0.931 . S
H3017 C3005 0.929 . S
H3018 C3006 0.960 . S
H3019 C3006 0.962 . S
H3020 C3006 0.960 . S
H3021 C3007 0.961 . S
H3022 C3007 0.961 . S
H3023 C3007 0.961 . S
H3024 C3008 0.931 . S
H3025 C3013 0.930 . S
H3026 C3014 0.956 . S
H3027 C3014 0.961 . S
H3028 C3014 0.961 . S
H3029 C3015 0.958 . S
H3030 C3015 0.961 . S
H3031 C3015 0.960 . S
C3032 C3033 1.391 . S
C3032 C3034 1.394 . S
C3032 H3048 0.931 . S
C3033 C3032 1.391 . S
C3033 C3037 1.376 . S
C3034 C3032 1.394 . S
C3034 C3035 1.369 . S
C3034 C3038 1.531 . S
C3035 C3034 1.369 . S
C3035 C3036 1.410 . S
C3035 C3043 1.503 . S
C3036 C3035 1.410 . S
C3036 C3037 1.392 . S
C3036 C3039 1.511 . S
C3037 C3033 1.376 . S
C3037 C3036 1.392 . S
C3037 H3049 0.929 . S
C3038 C3034 1.531 . S
C3038 H3050 0.960 . S
C3038 H3051 0.962 . S
C3038 H3052 0.960 . S
C3039 C3036 1.511 . S
C3039 H3053 0.961 . S
C3039 H3054 0.961 . S
C3039 H3055 0.961 . S
C3040 C3041 1.370 . S
C3040 C3042 1.363 . S
C3040 H3056 0.931 . S
C3041 C3040 1.370 . S
C3041 C3045 1.408 . S
C3042 C3040 1.363 . S
C3042 C3043 1.370 . S
C3042 C3046 1.524 . S
C3043 C3035 1.503 . S
C3043 C3042 1.370 . S
C3043 C3044 1.403 . S
C3044 C3043 1.403 . S
C3044 C3045 1.404 . S
C3044 C3047 1.539 . S
C3045 C3041 1.408 . S
C3045 C3044 1.404 . S
C3045 H3057 0.930 . S
C3046 C3042 1.524 . S
C3046 H3058 0.956 . S
C3046 H3059 0.961 . S
C3046 H3060 0.961 . S
C3047 C3044 1.539 . S
C3047 H3061 0.958 . S
C3047 H3062 0.961 . S
C3047 H3063 0.960 . S
H3048 C3032 0.931 . S
H3049 C3037 0.929 . S
H3050 C3038 0.960 . S
H3051 C3038 0.962 . S
H3052 C3038 0.960 . S
H3053 C3039 0.961 . S
H3054 C3039 0.961 . S
H3055 C3039 0.961 . S
H3056 C3040 0.931 . S
H3057 C3045 0.930 . S
H3058 C3046 0.956 . S
H3059 C3046 0.961 . S
H3060 C3046 0.961 . S
H3061 C3047 0.958 . S
H3062 C3047 0.961 . S
H3063 C3047 0.960 . S
C3064 C3065 1.391 . S
C3064 C3066 1.394 . S
C3064 H3080 0.931 . S
C3065 C3064 1.391 . S
C3065 C3069 1.376 . S
C3066 C3064 1.394 . S
C3066 C3067 1.369 . S
C3066 C3070 1.531 . S
C3067 C3066 1.369 . S
C3067 C3068 1.410 . S
C3067 C3075 1.503 . S
C3068 C3067 1.410 . S
C3068 C3069 1.392 . S
C3068 C3071 1.511 . S
C3069 C3065 1.376 . S
C3069 C3068 1.392 . S
C3069 H3081 0.929 . S
C3070 C3066 1.531 . S
C3070 H3082 0.960 . S
C3070 H3083 0.962 . S
C3070 H3084 0.960 . S
C3071 C3068 1.511 . S
C3071 H3085 0.961 . S
C3071 H3086 0.961 . S
C3071 H3087 0.961 . S
C3072 C3073 1.370 . S
C3072 C3074 1.363 . S
C3072 H3088 0.931 1_556 S
C3073 C3072 1.370 . S
C3073 C3077 1.408 . S
C3074 C3072 1.363 . S
C3074 C3075 1.370 . S
C3074 C3078 1.524 . S
C3075 C3067 1.503 . S
C3075 C3074 1.370 . S
C3075 C3076 1.403 . S
C3076 C3075 1.403 . S
C3076 C3077 1.404 . S
C3076 C3079 1.539 . S
C3077 C3073 1.408 . S
C3077 C3076 1.404 . S
C3077 H3089 0.930 . S
C3078 C3074 1.524 . S
C3078 H3090 0.956 . S
C3078 H3091 0.961 . S
C3078 H3092 0.961 1_556 S
C3079 C3076 1.539 . S
C3079 H3093 0.958 . S
C3079 H3094 0.961 . S
C3079 H3095 0.960 . S
H3080 C3064 0.931 . S
H3081 C3069 0.929 . S
H3082 C3070 0.960 . S
H3083 C3070 0.962 . S
H3084 C3070 0.960 . S
H3085 C3071 0.961 . S
H3086 C3071 0.961 . S
H3087 C3071 0.961 . S
H3088 C3072 0.931 1_554 S
H3089 C3077 0.930 . S
H3090 C3078 0.956 . S
H3091 C3078 0.961 . S
H3092 C3078 0.961 1_554 S
H3093 C3079 0.958 . S
H3094 C3079 0.961 . S
H3095 C3079 0.960 . S
C3096 C3097 1.391 . S
C3096 C3098 1.394 . S
C3096 H3112 0.931 . S
C3097 C3096 1.391 . S
C3097 C3101 1.376 . S
C3098 C3096 1.394 . S
C3098 C3099 1.369 . S
C3098 C3102 1.531 . S
C3099 C3098 1.369 . S
C3099 C3100 1.410 . S
C3099 C3107 1.503 . S
C3100 C3099 1.410 . S
C3100 C3101 1.392 . S
C3100 C3103 1.511 . S
C3101 C3097 1.376 . S
C3101 C3100 1.392 . S
C3101 H3113 0.929 . S
C3102 C3098 1.531 . S
C3102 H3114 0.960 . S
C3102 H3115 0.962 . S
C3102 H3116 0.960 . S
C3103 C3100 1.511 . S
C3103 H3117 0.961 . S
C3103 H3118 0.961 . S
C3103 H3119 0.961 . S
C3104 C3105 1.370 . S
C3104 C3106 1.363 . S
C3104 H3120 0.931 . S
C3105 C3104 1.370 . S
C3105 C3109 1.408 . S
C3106 C3104 1.363 . S
C3106 C3107 1.370 . S
C3106 C3110 1.524 . S
C3107 C3099 1.503 . S
C3107 C3106 1.370 . S
C3107 C3108 1.403 . S
C3108 C3107 1.403 . S
C3108 C3109 1.404 . S
C3108 C3111 1.539 . S
C3109 C3105 1.408 . S
C3109 C3108 1.404 . S
C3109 H3121 0.930 . S
C3110 C3106 1.524 . S
C3110 H3122 0.956 . S
C3110 H3123 0.961 . S
C3110 H3124 0.961 . S
C3111 C3108 1.539 . S
C3111 H3125 0.958 . S
C3111 H3126 0.961 . S
C3111 H3127 0.960 . S
H3112 C3096 0.931 . S
H3113 C3101 0.929 . S
H3114 C3102 0.960 . S
H3115 C3102 0.962 . S
H3116 C3102 0.960 . S
H3117 C3103 0.961 . S
H3118 C3103 0.961 . S
H3119 C3103 0.961 . S
H3120 C3104 0.931 . S
H3121 C3109 0.930 . S
H3122 C3110 0.956 . S
H3123 C3110 0.961 . S
H3124 C3110 0.961 . S
H3125 C3111 0.958 . S
H3126 C3111 0.961 . S
H3127 C3111 0.960 . S
C3128 C3129 1.391 . S
C3128 C3130 1.394 . S
C3128 H3144 0.931 . S
C3129 C3128 1.391 . S
C3129 C3133 1.376 . S
C3130 C3128 1.394 . S
C3130 C3131 1.369 . S
C3130 C3134 1.531 1_455 S
C3131 C3130 1.369 . S
C3131 C3132 1.410 . S
C3131 C3139 1.503 . S
C3132 C3131 1.410 . S
C3132 C3133 1.392 . S
C3132 C3135 1.511 . S
C3133 C3129 1.376 . S
C3133 C3132 1.392 . S
C3133 H3145 0.929 . S
C3134 C3130 1.531 1_655 S
C3134 H3146 0.960 1_655 S
C3134 H3147 0.962 . S
C3134 H3148 0.960 . S
C3135 C3132 1.511 . S
C3135 H3149 0.961 . S
C3135 H3150 0.961 . S
C3135 H3151 0.961 . S
C3136 C3137 1.370 1_655 S
C3136 C3138 1.363 1_655 S
C3136 H3152 0.931 . S
C3137 C3136 1.370 1_455 S
C3137 C3141 1.408 . S
C3138 C3136 1.363 1_455 S
C3138 C3139 1.370 . S
C3138 C3142 1.524 1_455 S
C3139 C3131 1.503 . S
C3139 C3138 1.370 . S
C3139 C3140 1.403 . S
C3140 C3139 1.403 . S
C3140 C3141 1.404 . S
C3140 C3143 1.539 . S
C3141 C3137 1.408 . S
C3141 C3140 1.404 . S
C3141 H3153 0.930 . S
C3142 C3138 1.524 1_655 S
C3142 H3154 0.956 . S
C3142 H3155 0.961 . S
C3142 H3156 0.961 . S
C3143 C3140 1.539 . S
C3143 H3157 0.958 . S
C3143 H3158 0.961 . S
C3143 H3159 0.960 . S
H3144 C3128 0.931 . S
H3145 C3133 0.929 . S
H3146 C3134 0.960 1_455 S
H3147 C3134 0.962 . S
H3148 C3134 0.960 . S
H3149 C3135 0.961 . S
H3150 C3135 0.961 . S
H3151 C3135 0.961 . S
H3152 C3136 0.931 . S
H3153 C3141 0.930 . S
H3154 C3142 0.956 . S
H3155 C3142 0.961 . S
H3156 C3142 0.961 . S
H3157 C3143 0.958 . S
H3158 C3143 0.961 . S
H3159 C3143 0.960 . S
C3160 C3161 1.391 . S
C3160 C3162 1.394 . S
C3160 H3176 0.931 . S
C3161 C3160 1.391 . S
C3161 C3165 1.376 . S
C3162 C3160 1.394 . S
C3162 C3163 1.369 . S
C3162 C3166 1.531 . S
C3163 C3162 1.369 . S
C3163 C3164 1.410 . S
C3163 C3171 1.503 . S
C3164 C3163 1.410 . S
C3164 C3165 1.392 . S
C3164 C3167 1.511 . S
C3165 C3161 1.376 . S
C3165 C3164 1.392 . S
C3165 H3177 0.929 . S
C3166 C3162 1.531 . S
C3166 H3178 0.960 . S
C3166 H3179 0.962 . S
C3166 H3180 0.960 . S
C3167 C3164 1.511 . S
C3167 H3181 0.961 . S
C3167 H3182 0.961 . S
C3167 H3183 0.961 . S
C3168 C3169 1.370 . S
C3168 C3170 1.363 . S
C3168 H3184 0.931 . S
C3169 C3168 1.370 . S
C3169 C3173 1.408 . S
C3170 C3168 1.363 . S
C3170 C3171 1.370 . S
C3170 C3174 1.524 . S
C3171 C3163 1.503 . S
C3171 C3170 1.370 . S
C3171 C3172 1.403 . S
C3172 C3171 1.403 . S
C3172 C3173 1.404 . S
C3172 C3175 1.539 . S
C3173 C3169 1.408 . S
C3173 C3172 1.404 . S
C3173 H3185 0.930 . S
C3174 C3170 1.524 . S
C3174 H3186 0.956 . S
C3174 H3187 0.961 . S
C3174 H3188 0.961 . S
C3175 C3172 1.539 . S
C3175 H3189 0.958 . S
C3175 H3190 0.961 . S
C3175 H3191 0.960 . S
H3176 C3160 0.931 . S
H3177 C3165 0.929 . S
H3178 C3166 0.960 . S
H3179 C3166 0.962 . S
H3180 C3166 0.960 . S
H3181 C3167 0.961 . S
H3182 C3167 0.961 . S
H3183 C3167 0.961 . S
H3184 C3168 0.931 . S
H3185 C3173 0.930 . S
H3186 C3174 0.956 . S
H3187 C3174 0.961 . S
H3188 C3174 0.961 . S
H3189 C3175 0.958 . S
H3190 C3175 0.961 . S
H3191 C3175 0.960 . S
C3192 C3193 1.391 . S
C3192 C3194 1.394 . S
C3192 H3208 0.931 . S
C3193 C3192 1.391 . S
C3193 C3197 1.376 . S
C3194 C3192 1.394 . S
C3194 C3195 1.369 . S
C3194 C3198 1.531 . S
C3195 C3194 1.369 . S
C3195 C3196 1.410 . S
C3195 C3203 1.503 . S
C3196 C3195 1.410 . S
C3196 C3197 1.392 . S
C3196 C3199 1.511 . S
C3197 C3193 1.376 . S
C3197 C3196 1.392 . S
C3197 H3209 0.929 . S
C3198 C3194 1.531 . S
C3198 H3210 0.960 . S
C3198 H3211 0.962 . S
C3198 H3212 0.960 . S
C3199 C3196 1.511 . S
C3199 H3213 0.961 . S
C3199 H3214 0.961 . S
C3199 H3215 0.961 . S
C3200 C3201 1.370 . S
C3200 C3202 1.363 . S
C3200 H3216 0.931 . S
C3201 C3200 1.370 . S
C3201 C3205 1.408 . S
C3202 C3200 1.363 . S
C3202 C3203 1.370 . S
C3202 C3206 1.524 . S
C3203 C3195 1.503 . S
C3203 C3202 1.370 . S
C3203 C3204 1.403 . S
C3204 C3203 1.403 . S
C3204 C3205 1.404 . S
C3204 C3207 1.539 . S
C3205 C3201 1.408 . S
C3205 C3204 1.404 . S
C3205 H3217 0.930 . S
C3206 C3202 1.524 . S
C3206 H3218 0.956 . S
C3206 H3219 0.961 . S
C3206 H3220 0.961 . S
C3207 C3204 1.539 . S
C3207 H3221 0.958 . S
C3207 H3222 0.961 . S
C3207 H3223 0.960 . S
H3208 C3192 0.931 . S
H3209 C3197 0.929 . S
H3210 C3198 0.960 . S
H3211 C3198 0.962 . S
H3212 C3198 0.960 . S
H3213 C3199 0.961 . S
H3214 C3199 0.961 . S
H3215 C3199 0.961 . S
H3216 C3200 0.931 . S
H3217 C3205 0.930 . S
H3218 C3206 0.956 . S
H3219 C3206 0.961 . S
H3220 C3206 0.961 . S
H3221 C3207 0.958 . S
H3222 C3207 0.961 . S
H3223 C3207 0.960 . S
C3224 C3225 1.391 . S
C3224 C3226 1.394 . S
C3224 H3240 0.931 . S
C3225 C3224 1.391 . S
C3225 C3229 1.376 . S
C3226 C3224 1.394 . S
C3226 C3227 1.369 . S
C3226 C3230 1.531 . S
C3227 C3226 1.369 . S
C3227 C3228 1.410 . S
C3227 C3235 1.503 . S
C3228 C3227 1.410 . S
C3228 C3229 1.392 . S
C3228 C3231 1.511 . S
C3229 C3225 1.376 . S
C3229 C3228 1.392 . S
C3229 H3241 0.929 . S
C3230 C3226 1.531 . S
C3230 H3242 0.960 . S
C3230 H3243 0.962 . S
C3230 H3244 0.960 . S
C3231 C3228 1.511 . S
C3231 H3245 0.961 . S
C3231 H3246 0.961 . S
C3231 H3247 0.961 . S
C3232 C3233 1.370 . S
C3232 C3234 1.363 . S
C3232 H3248 0.931 . S
C3233 C3232 1.370 . S
C3233 C3237 1.408 . S
C3234 C3232 1.363 . S
C3234 C3235 1.370 . S
C3234 C3238 1.524 . S
C3235 C3227 1.503 . S
C3235 C3234 1.370 . S
C3235 C3236 1.403 . S
C3236 C3235 1.403 . S
C3236 C3237 1.404 . S
C3236 C3239 1.539 . S
C3237 C3233 1.408 . S
C3237 C3236 1.404 . S
C3237 H3249 0.930 . S
C3238 C3234 1.524 . S
C3238 H3250 0.956 . S
C3238 H3251 0.961 . S
C3238 H3252 0.961 . S
C3239 C3236 1.539 . S
C3239 H3253 0.958 . S
C3239 H3254 0.961 . S
C3239 H3255 0.960 . S
H3240 C3224 0.931 . S
H3241 C3229 0.929 . S
H3242 C3230 0.960 . S
H3243 C3230 0.962 . S
H3244 C3230 0.960 . S
H3245 C3231 0.961 . S
H3246 C3231 0.961 . S
H3247 C3231 0.961 . S
H3248 C3232 0.931 . S
H3249 C3237 0.930 . S
H3250 C3238 0.956 . S
H3251 C3238 0.961 . S
H3252 C3238 0.961 . S
H3253 C3239 0.958 . S
H3254 C3239 0.961 . S
H3255 C3239 0.960 . S
C3256 C3257 1.391 . S
C3256 C3258 1.394 . S
C3256 H3272 0.931 . S
C3257 C3256 1.391 . S
C3257 C3261 1.376 . S
C3258 C3256 1.394 . S
C3258 C3259 1.369 . S
C3258 C3262 1.531 . S
C3259 C3258 1.369 . S
C3259 C3260 1.410 . S
C3259 C3267 1.503 . S
C3260 C3259 1.410 . S
C3260 C3261 1.392 . S
C3260 C3263 1.511 . S
C3261 C3257 1.376 . S
C3261 C3260 1.392 . S
C3261 H3273 0.929 . S
C3262 C3258 1.531 . S
C3262 H3274 0.960 . S
C3262 H3275 0.962 . S
C3262 H3276 0.960 . S
C3263 C3260 1.511 . S
C3263 H3277 0.961 . S
C3263 H3278 0.961 . S
C3263 H3279 0.961 . S
C3264 C3265 1.370 . S
C3264 C3266 1.363 . S
C3264 H3280 0.931 . S
C3265 C3264 1.370 . S
C3265 C3269 1.408 . S
C3266 C3264 1.363 . S
C3266 C3267 1.370 . S
C3266 C3270 1.524 . S
C3267 C3259 1.503 . S
C3267 C3266 1.370 . S
C3267 C3268 1.403 . S
C3268 C3267 1.403 . S
C3268 C3269 1.404 . S
C3268 C3271 1.539 1_655 S
C3269 C3265 1.408 . S
C3269 C3268 1.404 . S
C3269 H3281 0.930 1_655 S
C3270 C3266 1.524 . S
C3270 H3282 0.956 . S
C3270 H3283 0.961 . S
C3270 H3284 0.961 . S
C3271 C3268 1.539 1_455 S
C3271 H3285 0.958 . S
C3271 H3286 0.961 . S
C3271 H3287 0.960 1_455 S
H3272 C3256 0.931 . S
H3273 C3261 0.929 . S
H3274 C3262 0.960 . S
H3275 C3262 0.962 . S
H3276 C3262 0.960 . S
H3277 C3263 0.961 . S
H3278 C3263 0.961 . S
H3279 C3263 0.961 . S
H3280 C3264 0.931 . S
H3281 C3269 0.930 1_455 S
H3282 C3270 0.956 . S
H3283 C3270 0.961 . S
H3284 C3270 0.961 . S
H3285 C3271 0.958 . S
H3286 C3271 0.961 . S
H3287 C3271 0.960 1_655 S
C3288 C3289 1.391 . S
C3288 C3290 1.394 . S
C3288 H3304 0.931 . S
C3289 C3288 1.391 . S
C3289 C3293 1.376 . S
C3290 C3288 1.394 . S
C3290 C3291 1.369 . S
C3290 C3294 1.531 . S
C3291 C3290 1.369 . S
C3291 C3292 1.410 . S
C3291 C3299 1.503 . S
C3292 C3291 1.410 . S
C3292 C3293 1.392 . S
C3292 C3295 1.511 . S
C3293 C3289 1.376 . S
C3293 C3292 1.392 . S
C3293 H3305 0.929 . S
C3294 C3290 1.531 . S
C3294 H3306 0.960 . S
C3294 H3307 0.962 . S
C3294 H3308 0.960 . S
C3295 C3292 1.511 . S
C3295 H3309 0.961 . S
C3295 H3310 0.961 . S
C3295 H3311 0.961 . S
C3296 C3297 1.370 . S
C3296 C3298 1.363 . S
C3296 H3312 0.931 . S
C3297 C3296 1.370 . S
C3297 C3301 1.408 . S
C3298 C3296 1.363 . S
C3298 C3299 1.370 . S
C3298 C3302 1.524 . S
C3299 C3291 1.503 . S
C3299 C3298 1.370 . S
C3299 C3300 1.403 . S
C3300 C3299 1.403 . S
C3300 C3301 1.404 . S
C3300 C3303 1.539 . S
C3301 C3297 1.408 . S
C3301 C3300 1.404 . S
C3301 H3313 0.930 . S
C3302 C3298 1.524 . S
C3302 H3314 0.956 . S
C3302 H3315 0.961 . S
C3302 H3316 0.961 . S
C3303 C3300 1.539 . S
C3303 H3317 0.958 . S
C3303 H3318 0.961 . S
C3303 H3319 0.960 . S
H3304 C3288 0.931 . S
H3305 C3293 0.929 . S
H3306 C3294 0.960 . S
H3307 C3294 0.962 . S
H3308 C3294 0.960 . S
H3309 C3295 0.961 . S
H3310 C3295 0.961 . S
H3311 C3295 0.961 . S
H3312 C3296 0.931 . S
H3313 C3301 0.930 . S
H3314 C3302 0.956 . S
H3315 C3302 0.961 . S
H3316 C3302 0.961 . S
H3317 C3303 0.958 . S
H3318 C3303 0.961 . S
H3319 C3303 0.960 . S
C3320 C3321 1.391 . S
C3320 C3322 1.394 . S
C3320 H3336 0.931 . S
C3321 C3320 1.391 . S
C3321 C3325 1.376 . S
C3322 C3320 1.394 . S
C3322 C3323 1.369 . S
C3322 C3326 1.531 . S
C3323 C3322 1.369 . S
C3323 C3324 1.410 . S
C3323 C3331 1.503 . S
C3324 C3323 1.410 . S
C3324 C3325 1.392 . S
C3324 C3327 1.511 . S
C3325 C3321 1.376 . S
C3325 C3324 1.392 . S
C3325 H3337 0.929 . S
C3326 C3322 1.531 . S
C3326 H3338 0.960 . S
C3326 H3339 0.962 . S
C3326 H3340 0.960 . S
C3327 C3324 1.511 . S
C3327 H3341 0.961 . S
C3327 H3342 0.961 . S
C3327 H3343 0.961 . S
C3328 C3329 1.370 . S
C3328 C3330 1.363 . S
C3328 H3344 0.931 . S
C3329 C3328 1.370 . S
C3329 C3333 1.408 . S
C3330 C3328 1.363 . S
C3330 C3331 1.370 . S
C3330 C3334 1.524 . S
C3331 C3323 1.503 . S
C3331 C3330 1.370 . S
C3331 C3332 1.403 . S
C3332 C3331 1.403 . S
C3332 C3333 1.404 . S
C3332 C3335 1.539 . S
C3333 C3329 1.408 . S
C3333 C3332 1.404 . S
C3333 H3345 0.930 . S
C3334 C3330 1.524 . S
C3334 H3346 0.956 . S
C3334 H3347 0.961 . S
C3334 H3348 0.961 . S
C3335 C3332 1.539 . S
C3335 H3349 0.958 . S
C3335 H3350 0.961 . S
C3335 H3351 0.960 . S
H3336 C3320 0.931 . S
H3337 C3325 0.929 . S
H3338 C3326 0.960 . S
H3339 C3326 0.962 . S
H3340 C3326 0.960 . S
H3341 C3327 0.961 . S
H3342 C3327 0.961 . S
H3343 C3327 0.961 . S
H3344 C3328 0.931 . S
H3345 C3333 0.930 . S
H3346 C3334 0.956 . S
H3347 C3334 0.961 . S
H3348 C3334 0.961 . S
H3349 C3335 0.958 . S
H3350 C3335 0.961 . S
H3351 C3335 0.960 . S
C3352 C3353 1.391 . S
C3352 C3354 1.394 . S
C3352 H3368 0.931 . S
C3353 C3352 1.391 . S
C3353 C3357 1.376 . S
C3354 C3352 1.394 . S
C3354 C3355 1.369 . S
C3354 C3358 1.531 . S
C3355 C3354 1.369 . S
C3355 C3356 1.410 . S
C3355 C3363 1.503 . S
C3356 C3355 1.410 . S
C3356 C3357 1.392 . S
C3356 C3359 1.511 . S
C3357 C3353 1.376 . S
C3357 C3356 1.392 . S
C3357 H3369 0.929 . S
C3358 C3354 1.531 . S
C3358 H3370 0.960 . S
C3358 H3371 0.962 . S
C3358 H3372 0.960 . S
C3359 C3356 1.511 . S
C3359 H3373 0.961 . S
C3359 H3374 0.961 . S
C3359 H3375 0.961 . S
C3360 C3361 1.370 . S
C3360 C3362 1.363 . S
C3360 H3376 0.931 . S
C3361 C3360 1.370 . S
C3361 C3365 1.408 . S
C3362 C3360 1.363 . S
C3362 C3363 1.370 . S
C3362 C3366 1.524 . S
C3363 C3355 1.503 . S
C3363 C3362 1.370 . S
C3363 C3364 1.403 . S
C3364 C3363 1.403 . S
C3364 C3365 1.404 . S
C3364 C3367 1.539 . S
C3365 C3361 1.408 . S
C3365 C3364 1.404 . S
C3365 H3377 0.930 . S
C3366 C3362 1.524 . S
C3366 H3378 0.956 . S
C3366 H3379 0.961 . S
C3366 H3380 0.961 . S
C3367 C3364 1.539 . S
C3367 H3381 0.958 . S
C3367 H3382 0.961 . S
C3367 H3383 0.960 . S
H3368 C3352 0.931 . S
H3369 C3357 0.929 . S
H3370 C3358 0.960 . S
H3371 C3358 0.962 . S
H3372 C3358 0.960 . S
H3373 C3359 0.961 . S
H3374 C3359 0.961 . S
H3375 C3359 0.961 . S
H3376 C3360 0.931 . S
H3377 C3365 0.930 . S
H3378 C3366 0.956 . S
H3379 C3366 0.961 . S
H3380 C3366 0.961 . S
H3381 C3367 0.958 . S
H3382 C3367 0.961 . S
H3383 C3367 0.960 . S
C3384 C3385 1.391 . S
C3384 C3386 1.394 . S
C3384 H3400 0.931 . S
C3385 C3384 1.391 . S
C3385 C3389 1.376 . S
C3386 C3384 1.394 . S
C3386 C3387 1.369 . S
C3386 C3390 1.531 . S
C3387 C3386 1.369 . S
C3387 C3388 1.410 . S
C3387 C3395 1.503 . S
C3388 C3387 1.410 . S
C3388 C3389 1.392 . S
C3388 C3391 1.511 . S
C3389 C3385 1.376 . S
C3389 C3388 1.392 . S
C3389 H3401 0.929 . S
C3390 C3386 1.531 . S
C3390 H3402 0.960 . S
C3390 H3403 0.962 . S
C3390 H3404 0.960 . S
C3391 C3388 1.511 . S
C3391 H3405 0.961 . S
C3391 H3406 0.961 . S
C3391 H3407 0.961 . S
C3392 C3393 1.370 . S
C3392 C3394 1.363 . S
C3392 H3408 0.931 . S
C3393 C3392 1.370 . S
C3393 C3397 1.408 . S
C3394 C3392 1.363 . S
C3394 C3395 1.370 . S
C3394 C3398 1.524 . S
C3395 C3387 1.503 . S
C3395 C3394 1.370 . S
C3395 C3396 1.403 . S
C3396 C3395 1.403 . S
C3396 C3397 1.404 . S
C3396 C3399 1.539 . S
C3397 C3393 1.408 . S
C3397 C3396 1.404 . S
C3397 H3409 0.930 1_655 S
C3398 C3394 1.524 . S
C3398 H3410 0.956 . S
C3398 H3411 0.961 . S
C3398 H3412 0.961 . S
C3399 C3396 1.539 . S
C3399 H3413 0.958 1_655 S
C3399 H3414 0.961 1_655 S
C3399 H3415 0.960 . S
H3400 C3384 0.931 . S
H3401 C3389 0.929 . S
H3402 C3390 0.960 . S
H3403 C3390 0.962 . S
H3404 C3390 0.960 . S
H3405 C3391 0.961 . S
H3406 C3391 0.961 . S
H3407 C3391 0.961 . S
H3408 C3392 0.931 . S
H3409 C3397 0.930 1_455 S
H3410 C3398 0.956 . S
H3411 C3398 0.961 . S
H3412 C3398 0.961 . S
H3413 C3399 0.958 1_455 S
H3414 C3399 0.961 1_455 S
H3415 C3399 0.960 . S
C3416 C3417 1.391 . S
C3416 C3418 1.394 . S
C3416 H3432 0.931 . S
C3417 C3416 1.391 . S
C3417 C3421 1.376 . S
C3418 C3416 1.394 . S
C3418 C3419 1.369 . S
C3418 C3422 1.531 . S
C3419 C3418 1.369 . S
C3419 C3420 1.410 . S
C3419 C3427 1.503 . S
C3420 C3419 1.410 . S
C3420 C3421 1.392 . S
C3420 C3423 1.511 . S
C3421 C3417 1.376 . S
C3421 C3420 1.392 . S
C3421 H3433 0.929 . S
C3422 C3418 1.531 . S
C3422 H3434 0.960 . S
C3422 H3435 0.962 . S
C3422 H3436 0.960 . S
C3423 C3420 1.511 . S
C3423 H3437 0.961 . S
C3423 H3438 0.961 . S
C3423 H3439 0.961 . S
C3424 C3425 1.370 . S
C3424 C3426 1.363 . S
C3424 H3440 0.931 . S
C3425 C3424 1.370 . S
C3425 C3429 1.408 . S
C3426 C3424 1.363 . S
C3426 C3427 1.370 . S
C3426 C3430 1.524 . S
C3427 C3419 1.503 . S
C3427 C3426 1.370 . S
C3427 C3428 1.403 . S
C3428 C3427 1.403 . S
C3428 C3429 1.404 . S
C3428 C3431 1.539 . S
C3429 C3425 1.408 . S
C3429 C3428 1.404 . S
C3429 H3441 0.930 . S
C3430 C3426 1.524 . S
C3430 H3442 0.956 . S
C3430 H3443 0.961 . S
C3430 H3444 0.961 . S
C3431 C3428 1.539 . S
C3431 H3445 0.958 . S
C3431 H3446 0.961 . S
C3431 H3447 0.960 . S
H3432 C3416 0.931 . S
H3433 C3421 0.929 . S
H3434 C3422 0.960 . S
H3435 C3422 0.962 . S
H3436 C3422 0.960 . S
H3437 C3423 0.961 . S
H3438 C3423 0.961 . S
H3439 C3423 0.961 . S
H3440 C3424 0.931 . S
H3441 C3429 0.930 . S
H3442 C3430 0.956 . S
H3443 C3430 0.961 . S
H3444 C3430 0.961 . S
H3445 C3431 0.958 . S
H3446 C3431 0.961 . S
H3447 C3431 0.960 . S
C3448 C3449 1.391 . S
C3448 C3450 1.394 . S
C3448 H3464 0.931 . S
C3449 C3448 1.391 . S
C3449 C3453 1.376 . S
C3450 C3448 1.394 . S
C3450 C3451 1.369 . S
C3450 C3454 1.531 . S
C3451 C3450 1.369 . S
C3451 C3452 1.410 . S
C3451 C3459 1.503 . S
C3452 C3451 1.410 . S
C3452 C3453 1.392 . S
C3452 C3455 1.511 . S
C3453 C3449 1.376 . S
C3453 C3452 1.392 . S
C3453 H3465 0.929 . S
C3454 C3450 1.531 . S
C3454 H3466 0.960 . S
C3454 H3467 0.962 . S
C3454 H3468 0.960 . S
C3455 C3452 1.511 . S
C3455 H3469 0.961 . S
C3455 H3470 0.961 . S
C3455 H3471 0.961 . S
C3456 C3457 1.370 . S
C3456 C3458 1.363 . S
C3456 H3472 0.931 . S
C3457 C3456 1.370 . S
C3457 C3461 1.408 . S
C3458 C3456 1.363 . S
C3458 C3459 1.370 . S
C3458 C3462 1.524 . S
C3459 C3451 1.503 . S
C3459 C3458 1.370 . S
C3459 C3460 1.403 . S
C3460 C3459 1.403 . S
C3460 C3461 1.404 . S
C3460 C3463 1.539 . S
C3461 C3457 1.408 . S
C3461 C3460 1.404 . S
C3461 H3473 0.930 . S
C3462 C3458 1.524 . S
C3462 H3474 0.956 . S
C3462 H3475 0.961 . S
C3462 H3476 0.961 . S
C3463 C3460 1.539 . S
C3463 H3477 0.958 . S
C3463 H3478 0.961 . S
C3463 H3479 0.960 . S
H3464 C3448 0.931 . S
H3465 C3453 0.929 . S
H3466 C3454 0.960 . S
H3467 C3454 0.962 . S
H3468 C3454 0.960 . S
H3469 C3455 0.961 . S
H3470 C3455 0.961 . S
H3471 C3455 0.961 . S
H3472 C3456 0.931 . S
H3473 C3461 0.930 . S
H3474 C3462 0.956 . S
H3475 C3462 0.961 . S
H3476 C3462 0.961 . S
H3477 C3463 0.958 . S
H3478 C3463 0.961 . S
H3479 C3463 0.960 . S
C3480 C3481 1.391 . S
C3480 C3482 1.394 . S
C3480 H3496 0.931 . S
C3481 C3480 1.391 . S
C3481 C3485 1.376 . S
C3482 C3480 1.394 . S
C3482 C3483 1.369 . S
C3482 C3486 1.531 . S
C3483 C3482 1.369 . S
C3483 C3484 1.410 . S
C3483 C3491 1.503 . S
C3484 C3483 1.410 . S
C3484 C3485 1.392 . S
C3484 C3487 1.511 . S
C3485 C3481 1.376 . S
C3485 C3484 1.392 . S
C3485 H3497 0.929 . S
C3486 C3482 1.531 . S
C3486 H3498 0.960 . S
C3486 H3499 0.962 . S
C3486 H3500 0.960 . S
C3487 C3484 1.511 . S
C3487 H3501 0.961 . S
C3487 H3502 0.961 . S
C3487 H3503 0.961 . S
C3488 C3489 1.370 . S
C3488 C3490 1.363 . S
C3488 H3504 0.931 . S
C3489 C3488 1.370 . S
C3489 C3493 1.408 . S
C3490 C3488 1.363 . S
C3490 C3491 1.370 . S
C3490 C3494 1.524 . S
C3491 C3483 1.503 . S
C3491 C3490 1.370 . S
C3491 C3492 1.403 . S
C3492 C3491 1.403 . S
C3492 C3493 1.404 . S
C3492 C3495 1.514 1_565 S
C3493 C3489 1.408 . S
C3493 C3492 1.404 . S
C3493 H3505 0.930 1_565 S
C3494 C3490 1.524 . S
C3494 H3506 0.956 . S
C3494 H3507 0.961 . S
C3494 H3508 0.961 . S
C3495 C3492 1.514 1_545 S
C3495 H3509 0.955 1_545 S
C3495 H3510 0.996 . S
C3495 H3511 0.954 1_545 S
H3496 C3480 0.931 . S
H3497 C3485 0.929 . S
H3498 C3486 0.960 . S
H3499 C3486 0.962 . S
H3500 C3486 0.960 . S
H3501 C3487 0.961 . S
H3502 C3487 0.961 . S
H3503 C3487 0.961 . S
H3504 C3488 0.931 . S
H3505 C3493 0.930 1_545 S
H3506 C3494 0.956 . S
H3507 C3494 0.961 . S
H3508 C3494 0.961 . S
H3509 C3495 0.955 1_565 S
H3510 C3495 0.996 . S
H3511 C3495 0.954 1_565 S
C3512 C3513 1.391 . S
C3512 C3514 1.394 . S
C3512 H3528 0.931 . S
C3513 C3512 1.391 . S
C3513 C3517 1.376 . S
C3514 C3512 1.394 . S
C3514 C3515 1.369 . S
C3514 C3518 1.531 . S
C3515 C3514 1.369 . S
C3515 C3516 1.410 . S
C3515 C3523 1.503 . S
C3516 C3515 1.410 . S
C3516 C3517 1.392 . S
C3516 C3519 1.511 . S
C3517 C3513 1.376 . S
C3517 C3516 1.392 . S
C3517 H3529 0.929 . S
C3518 C3514 1.531 . S
C3518 H3530 0.960 . S
C3518 H3531 0.962 . S
C3518 H3532 0.960 . S
C3519 C3516 1.511 . S
C3519 H3533 0.961 . S
C3519 H3534 0.961 . S
C3519 H3535 0.961 . S
C3520 C3521 1.370 . S
C3520 C3522 1.363 . S
C3520 H3536 0.931 . S
C3521 C3520 1.370 . S
C3521 C3525 1.408 . S
C3522 C3520 1.363 . S
C3522 C3523 1.370 . S
C3522 C3526 1.524 . S
C3523 C3515 1.503 . S
C3523 C3522 1.370 . S
C3523 C3524 1.403 . S
C3524 C3523 1.403 . S
C3524 C3525 1.404 . S
C3524 C3527 1.539 . S
C3525 C3521 1.408 . S
C3525 C3524 1.404 . S
C3525 H3537 0.930 . S
C3526 C3522 1.524 . S
C3526 H3538 0.956 . S
C3526 H3539 0.961 . S
C3526 H3540 0.961 . S
C3527 C3524 1.539 . S
C3527 H3541 0.958 . S
C3527 H3542 0.961 . S
C3527 H3543 0.960 . S
H3528 C3512 0.931 . S
H3529 C3517 0.929 . S
H3530 C3518 0.960 . S
H3531 C3518 0.962 . S
H3532 C3518 0.960 . S
H3533 C3519 0.961 . S
H3534 C3519 0.961 . S
H3535 C3519 0.961 . S
H3536 C3520 0.931 . S
H3537 C3525 0.930 . S
H3538 C3526 0.956 . S
H3539 C3526 0.961 . S
H3540 C3526 0.961 . S
H3541 C3527 0.958 . S
H3542 C3527 0.961 . S
H3543 C3527 0.960 . S
C3544 C3545 1.391 1_554 S
C3544 C3546 1.394 . S
C3544 H3560 0.931 . S
C3545 C3544 1.391 1_556 S
C3545 C3549 1.376 . S
C3546 C3544 1.394 . S
C3546 C3547 1.369 . S
C3546 C3550 1.531 . S
C3547 C3546 1.369 . S
C3547 C3548 1.410 1_554 S
C3547 C3555 1.503 . S
C3548 C3547 1.410 1_556 S
C3548 C3549 1.392 . S
C3548 C3551 1.511 . S
C3549 C3545 1.376 . S
C3549 C3548 1.392 . S
C3549 H3561 0.929 . S
C3550 C3546 1.531 . S
C3550 H3562 0.960 . S
C3550 H3563 0.962 1_554 S
C3550 H3564 0.960 . S
C3551 C3548 1.511 . S
C3551 H3565 0.961 . S
C3551 H3566 0.961 . S
C3551 H3567 0.961 1_556 S
C3552 C3553 1.376 . S
C3552 C3554 1.363 . S
C3552 H3568 0.931 . S
C3553 C3552 1.376 . S
C3553 C3557 1.403 1_556 S
C3554 C3552 1.363 . S
C3554 C3555 1.370 1_556 S
C3554 C3558 1.524 . S
C3555 C3547 1.503 . S
C3555 C3554 1.370 1_554 S
C3555 C3556 1.403 . S
C3556 C3555 1.403 . S
C3556 C3557 1.404 . S
C3556 C3559 1.539 . S
C3557 C3553 1.403 1_554 S
C3557 C3556 1.404 . S
C3557 H3569 0.930 . S
C3558 C3554 1.524 . S
C3558 H3570 0.956 . S
C3558 H3571 0.961 . S
C3558 H3572 0.961 . S
C3559 C3556 1.539 . S
C3559 H3573 0.958 . S
C3559 H3574 0.961 . S
C3559 H3575 0.960 . S
H3560 C3544 0.931 . S
H3561 C3549 0.929 . S
H3562 C3550 0.960 . S
H3563 C3550 0.962 1_556 S
H3564 C3550 0.960 . S
H3565 C3551 0.961 . S
H3566 C3551 0.961 . S
H3567 C3551 0.961 1_554 S
H3568 C3552 0.931 . S
H3569 C3557 0.930 . S
H3570 C3558 0.956 . S
H3571 C3558 0.961 . S
H3572 C3558 0.961 . S
H3573 C3559 0.958 . S
H3574 C3559 0.961 . S
H3575 C3559 0.960 . S
C3576 C3577 1.391 . S
C3576 C3578 1.394 . S
C3576 H3592 0.931 . S
C3577 C3576 1.391 . S
C3577 C3581 1.376 . S
C3578 C3576 1.394 . S
C3578 C3579 1.369 . S
C3578 C3582 1.531 . S
C3579 C3578 1.369 . S
C3579 C3580 1.410 . S
C3579 C3587 1.503 . S
C3580 C3579 1.410 . S
C3580 C3581 1.392 . S
C3580 C3583 1.511 . S
C3581 C3577 1.376 . S
C3581 C3580 1.392 . S
C3581 H3593 0.929 . S
C3582 C3578 1.531 . S
C3582 H3594 0.960 . S
C3582 H3595 0.962 . S
C3582 H3596 0.960 . S
C3583 C3580 1.511 . S
C3583 H3597 0.961 . S
C3583 H3598 0.961 . S
C3583 H3599 0.961 . S
C3584 C3585 1.370 . S
C3584 C3586 1.363 . S
C3584 H3600 0.931 . S
C3585 C3584 1.370 . S
C3585 C3589 1.408 . S
C3586 C3584 1.363 . S
C3586 C3587 1.370 . S
C3586 C3590 1.524 . S
C3587 C3579 1.503 . S
C3587 C3586 1.370 . S
C3587 C3588 1.403 . S
C3588 C3587 1.403 . S
C3588 C3589 1.404 . S
C3588 C3591 1.539 . S
C3589 C3585 1.408 . S
C3589 C3588 1.404 . S
C3589 H3601 0.930 . S
C3590 C3586 1.524 . S
C3590 H3602 0.956 . S
C3590 H3603 0.961 . S
C3590 H3604 0.961 . S
C3591 C3588 1.539 . S
C3591 H3605 0.958 . S
C3591 H3606 0.961 . S
C3591 H3607 0.960 . S
H3592 C3576 0.931 . S
H3593 C3581 0.929 . S
H3594 C3582 0.960 . S
H3595 C3582 0.962 . S
H3596 C3582 0.960 . S
H3597 C3583 0.961 . S
H3598 C3583 0.961 . S
H3599 C3583 0.961 . S
H3600 C3584 0.931 . S
H3601 C3589 0.930 . S
H3602 C3590 0.956 . S
H3603 C3590 0.961 . S
H3604 C3590 0.961 . S
H3605 C3591 0.958 . S
H3606 C3591 0.961 . S
H3607 C3591 0.960 . S
C3608 C3609 1.391 . S
C3608 C3610 1.394 . S
C3608 H3624 0.931 . S
C3609 C3608 1.391 . S
C3609 C3613 1.376 . S
C3610 C3608 1.394 . S
C3610 C3611 1.369 . S
C3610 C3614 1.531 1_554 S
C3611 C3610 1.369 . S
C3611 C3612 1.410 . S
C3611 C3619 1.503 . S
C3612 C3611 1.410 . S
C3612 C3613 1.392 . S
C3612 C3615 1.511 . S
C3613 C3609 1.376 . S
C3613 C3612 1.392 . S
C3613 H3625 0.929 . S
C3614 C3610 1.531 1_556 S
C3614 H3626 0.975 . S
C3614 H3627 0.962 . S
C3614 H3628 0.960 . S
C3615 C3612 1.511 . S
C3615 H3629 0.961 . S
C3615 H3630 0.961 . S
C3615 H3631 0.961 . S
C3616 C3617 1.370 1_556 S
C3616 C3618 1.363 1_556 S
C3616 H3632 0.931 . S
C3617 C3616 1.370 1_554 S
C3617 C3621 1.408 . S
C3618 C3616 1.363 1_554 S
C3618 C3619 1.370 . S
C3618 C3622 1.524 1_554 S
C3619 C3611 1.503 . S
C3619 C3618 1.370 . S
C3619 C3620 1.403 . S
C3620 C3619 1.403 . S
C3620 C3621 1.404 . S
C3620 C3623 1.539 . S
C3621 C3617 1.408 . S
C3621 C3620 1.404 . S
C3621 H3633 0.930 . S
C3622 C3618 1.524 1_556 S
C3622 H3634 0.956 . S
C3622 H3635 0.956 1_556 S
C3622 H3636 0.961 . S
C3623 C3620 1.539 . S
C3623 H3637 0.958 . S
C3623 H3638 0.961 . S
C3623 H3639 0.960 . S
H3624 C3608 0.931 . S
H3625 C3613 0.929 . S
H3626 C3614 0.975 . S
H3627 C3614 0.962 . S
H3628 C3614 0.960 . S
H3629 C3615 0.961 . S
H3630 C3615 0.961 . S
H3631 C3615 0.961 . S
H3632 C3616 0.931 . S
H3633 C3621 0.930 . S
H3634 C3622 0.956 . S
H3635 C3622 0.956 1_554 S
H3636 C3622 0.961 . S
H3637 C3623 0.958 . S
H3638 C3623 0.961 . S
H3639 C3623 0.960 . S
C3640 C3641 1.391 . S
C3640 C3642 1.394 . S
C3640 H3656 0.931 . S
C3641 C3640 1.391 . S
C3641 C3645 1.376 . S
C3642 C3640 1.394 . S
C3642 C3643 1.369 . S
C3642 C3646 1.531 . S
C3643 C3642 1.369 . S
C3643 C3644 1.410 . S
C3643 C3651 1.503 . S
C3644 C3643 1.410 . S
C3644 C3645 1.392 . S
C3644 C3647 1.511 . S
C3645 C3641 1.376 . S
C3645 C3644 1.392 . S
C3645 H3657 0.929 . S
C3646 C3642 1.531 . S
C3646 H3658 0.960 . S
C3646 H3659 0.962 . S
C3646 H3660 0.960 . S
C3647 C3644 1.511 . S
C3647 H3661 0.961 . S
C3647 H3662 0.961 . S
C3647 H3663 0.961 . S
C3648 C3649 1.370 . S
C3648 C3650 1.363 . S
C3648 H3664 0.931 . S
C3649 C3648 1.370 . S
C3649 C3653 1.408 . S
C3650 C3648 1.363 . S
C3650 C3651 1.370 . S
C3650 C3654 1.524 . S
C3651 C3643 1.503 . S
C3651 C3650 1.370 . S
C3651 C3652 1.403 . S
C3652 C3651 1.403 . S
C3652 C3653 1.404 . S
C3652 C3655 1.539 . S
C3653 C3649 1.408 . S
C3653 C3652 1.404 . S
C3653 H3665 0.930 . S
C3654 C3650 1.524 . S
C3654 H3666 0.956 . S
C3654 H3667 0.961 . S
C3654 H3668 0.961 . S
C3655 C3652 1.539 . S
C3655 H3669 0.958 . S
C3655 H3670 0.961 . S
C3655 H3671 0.960 . S
H3656 C3640 0.931 . S
H3657 C3645 0.929 . S
H3658 C3646 0.960 . S
H3659 C3646 0.962 . S
H3660 C3646 0.960 . S
H3661 C3647 0.961 . S
H3662 C3647 0.961 . S
H3663 C3647 0.961 . S
H3664 C3648 0.931 . S
H3665 C3653 0.930 . S
H3666 C3654 0.956 . S
H3667 C3654 0.961 . S
H3668 C3654 0.961 . S
H3669 C3655 0.958 . S
H3670 C3655 0.961 . S
H3671 C3655 0.960 . S
C3672 C3673 1.391 . S
C3672 C3674 1.394 . S
C3672 H3688 0.931 . S
C3673 C3672 1.391 . S
C3673 C3677 1.376 . S
C3674 C3672 1.394 . S
C3674 C3675 1.369 . S
C3674 C3678 1.531 . S
C3675 C3674 1.369 . S
C3675 C3676 1.410 . S
C3675 C3683 1.503 . S
C3676 C3675 1.410 . S
C3676 C3677 1.392 . S
C3676 C3679 1.511 . S
C3677 C3673 1.376 . S
C3677 C3676 1.392 . S
C3677 H3689 0.929 . S
C3678 C3674 1.531 . S
C3678 H3690 0.960 . S
C3678 H3691 0.962 . S
C3678 H3692 0.960 . S
C3679 C3676 1.511 . S
C3679 H3693 0.961 . S
C3679 H3694 0.961 . S
C3679 H3695 0.961 . S
C3680 C3681 1.370 . S
C3680 C3682 1.363 . S
C3680 H3696 0.931 . S
C3681 C3680 1.370 . S
C3681 C3685 1.408 . S
C3682 C3680 1.363 . S
C3682 C3683 1.370 . S
C3682 C3686 1.524 . S
C3683 C3675 1.503 . S
C3683 C3682 1.370 . S
C3683 C3684 1.403 . S
C3684 C3683 1.403 . S
C3684 C3685 1.404 . S
C3684 C3687 1.539 . S
C3685 C3681 1.408 . S
C3685 C3684 1.404 . S
C3685 H3697 0.930 . S
C3686 C3682 1.524 . S
C3686 H3698 0.956 . S
C3686 H3699 0.961 . S
C3686 H3700 0.961 . S
C3687 C3684 1.539 . S
C3687 H3701 0.958 . S
C3687 H3702 0.961 . S
C3687 H3703 0.960 . S
H3688 C3672 0.931 . S
H3689 C3677 0.929 . S
H3690 C3678 0.960 . S
H3691 C3678 0.962 . S
H3692 C3678 0.960 . S
H3693 C3679 0.961 . S
H3694 C3679 0.961 . S
H3695 C3679 0.961 . S
H3696 C3680 0.931 . S
H3697 C3685 0.930 . S
H3698 C3686 0.956 . S
H3699 C3686 0.961 . S
H3700 C3686 0.961 . S
H3701 C3687 0.958 . S
H3702 C3687 0.961 . S
H3703 C3687 0.960 . S
C633 C101 1.186 . S
C641 C328 1.198 . S
C665 C57 1.298 . S
C673 C341 1.295 . S
C697 C70 1.239 . S
C705 C360 1.221 . S
C737 C391 1.879 . S
C729 C82 1.891 . S
C761 C23 1.721 . S
C769 C411 1.716 . S
C801 C428 0.770 . S
C793 C29 0.812 . S
C833 C441 1.480 . S
C825 C49 1.484 . S
C857 C10 1.040 . S
C865 C468 0.982 . S
C897 C321 1.205 . S
C889 C218 1.217 . S
C921 C226 1.429 . S
C929 C351 1.414 . S
C961 C353 1.617 . S
C953 C251 1.686 1_565 S
C993 C388 0.745 . S
C985 C159 0.775 . S
C1017 C211 1.038 . S
C1025 C408 1.058 1_655 S
C1057 C421 1.754 . S
C1049 C225 1.737 . S
C1089 C451 1.243 . S
C1081 C252 1.262 . S
C1121 C461 1.172 . S
C1113 C166 1.189 . S
C1153 C331 1.574 . S
C1145 C147 1.576 . S
C1177 C263 1.731 . S
C1185 C481 1.729 1_556 S
C1217 C511 1.611 . S
C1209 C309 1.583 . S
C1249 C528 1.096 . S
C1241 C291 1.124 . S
C1273 C108 1.908 . S
C1281 C471 1.925 . S
C1305 C121 1.250 . S
C1313 C358 1.260 . S
C1337 C302 1.806 . S
C1345 C541 1.801 . S
C1377 C568 0.916 . S
C1369 C276 0.907 . S
C1409 C318 1.360 . S
C1401 C55 1.398 . S
C1441 C553 1.452 . S
C1433 C96 1.465 . S
C1465 C88 1.523 . S
C1473 C371 1.497 . S
C1497 C75 2.133 . S
C1505 C540 2.081 . S
C1537 C400 1.874 . S
C1529 C4 1.915 . S
C1561 C44 1.046 . S
C1569 C498 1.027 . S
C1601 C433 1.597 . S
C1593 C31 1.598 . S
C1633 C578 1.155 . S
C1625 C18 1.179 . S
C1665 C313 1.381 . S
C1657 C133 1.392 . S
C1697 C560 1.637 . S
C1689 C296 1.675 . S
C1721 C107 1.887 . S
C1729 C361 1.827 . S
C1753 C264 1.104 . S
C1761 C538 1.090 . S
C1785 C140 1.348 . S
C1793 C398 1.329 . S
C1825 C493 1.900 . S
C1817 C289 1.903 . S
C1849 C114 1.511 . S
C1857 C440 1.470 . S
C1881 C265 1.382 . S
C1889 C573 1.352 . S
C1913 C179 1.813 . S
C1921 C320 1.762 . S
C1945 C161 1.916 . S
C1953 C473 1.902 . S
C1977 C244 1.815 . S
C1985 C420 1.802 . S
C2009 C224 1.387 . S
C2017 C518 1.359 . S
C2049 C580 2.059 . S
C2041 C257 2.101 . S
C2073 C199 1.392 . S
C2081 C368 1.362 . S
C2113 C373 1.976 . S
C2105 C237 1.987 . S
C2145 C338 1.138 . S
C2137 C185 1.181 . S
C2169 C69 1.230 . S
C2177 C608 1.165 . S
C2209 C561 1.298 . S
C2201 C83 1.304 . S
C2233 C94 1.228 . S
C2241 C620 1.222 1_456 S
C2265 C56 1.905 . S
C2273 C551 1.887 . S
C2297 C42 1.731 . S
C2305 C491 1.723 . S
C2337 C508 0.803 . S
C2329 C3 0.770 . S
C2369 C521 1.502 . S
C2361 C16 1.497 . S
C2401 C588 0.978 . S
C2393 C36 1.044 . S
C2433 C601 1.182 . S
C2425 C238 1.190 . S
C2457 C174 1.412 . S
C2465 C571 1.400 . S
C2497 C613 1.609 . S
C2489 C186 1.687 . S
C2529 C548 0.781 . S
C2521 C198 0.758 . S
C2561 C488 1.048 . S
C2553 C239 1.081 . S
C2585 C173 1.764 . S
C2593 C501 1.760 . S
C2625 C531 1.231 . S
C2617 C187 1.230 . S
C2649 C205 1.173 . S
C2657 C581 1.147 . S
C2689 C611 1.569 . S
C2681 C290 1.559 . S
C2713 C122 1.745 . S
C2721 C401 1.741 . S
C2753 C431 1.622 . S
C2745 C134 1.623 . S
C2785 C448 1.083 . S
C2777 C148 1.127 . S
C2817 C591 1.916 . S
C2809 C283 1.891 . S
C2841 C270 1.280 . S
C2849 C618 1.259 . S
C2881 C381 1.790 . S
C2873 C135 1.779 . S
C2913 C348 0.911 . S
C2905 C109 0.960 . S
C2937 C81 1.404 . S
C2945 C598 1.376 . S
C2977 C333 1.438 . S
C2969 C68 1.464 . S
C3001 C62 1.521 1_655 S
C3009 C631 1.496 . S
C3033 C95 2.132 . S
C3041 C380 2.072 . S
C3065 C30 1.917 . S
C3073 C480 1.880 . S
C3105 C418 1.014 . S
C3097 C17 1.034 . S
C3129 C5 1.603 . S
C3137 C513 1.600 . S
C3161 C43 1.178 . S
C3169 C458 1.164 . S
C3201 C593 1.390 . S
C3193 C304 1.401 . S
C3225 C153 1.676 . S
C3233 C340 1.623 . S
C3265 C621 1.835 . S
C3257 C278 1.886 . S
C3289 C127 1.076 . S
C3297 C378 1.074 . S
C3321 C303 1.344 . S
C3329 C478 1.329 . S
C3361 C413 1.897 . S
C3353 C146 1.892 . S
C3385 C277 1.490 . S
C3393 C520 1.450 . S
C3425 C453 1.365 . S
C3417 C120 1.378 . S
C3457 C600 1.762 . S
C3449 C231 1.813 . S
C3489 C393 1.889 1_565 S
C3481 C200 1.912 . S
C3513 C212 1.824 . S
C3521 C500 1.810 . S
C3553 C438 1.353 1_556 S
C3545 C172 1.381 . S
C3577 C192 2.094 . S
C3585 C460 2.057 . S
C3609 C160 1.420 . S
C3617 C628 1.355 . S
C3649 C533 1.966 . S
C3641 C213 1.984 1_565 S
C3681 C558 1.161 . S
C3673 C250 1.176 . S
