# Generated by pormake.
# Topology scu, (8,4)-cn, num edge types: 1
# Building blocks:
#     Node 0, Type 0, BuildingBlock: TAGTUT_clean_sbu_3, # of connection points: 8
#     Node 1, Type 1, BuildingBlock: MUDLON_clean_sbu_0, # of connection points: 4
#     Node 2, Type 1, BuildingBlock: MUDLON_clean_sbu_0, # of connection points: 4
#     Edge 3, Type (0, 1), BuildingBlock: TEMPAE_clean_linker_10, # of connection points: 2
#     Edge 4, Type (0, 1), BuildingBlock: TEMPAE_clean_linker_10, # of connection points: 2
#     Edge 5, Type (0, 1), BuildingBlock: TEMPAE_clean_linker_10, # of connection points: 2
#     Edge 6, Type (0, 1), BuildingBlock: TEMPAE_clean_linker_10, # of connection points: 2
#     Edge 7, Type (0, 1), BuildingBlock: TEMPAE_clean_linker_10, # of connection points: 2
#     Edge 8, Type (0, 1), BuildingBlock: TEMPAE_clean_linker_10, # of connection points: 2
#     Edge 9, Type (0, 1), BuildingBlock: TEMPAE_clean_linker_10, # of connection points: 2
#     Edge 10, Type (0, 1), BuildingBlock: TEMPAE_clean_linker_10, # of connection points: 2
# Relax obj value: 0.056
# Max RMSD: 0.124
# Mean RMSD: 0.086
data_MOF--net-scu--node1-TAGTUT_clean_sbu_3--node2-MUDLON_clean_sbu_0--edge1-TEMPAE_clean_linker_10
_symmetry_space_group_name_H-M    P1
_symmetry_Int_Tables_number       1
_symmetry_cell_setting            triclinic
loop_
_symmetry_equiv_pos_as_xyz
'x, y, z'
_cell_length_a     27.282982
_cell_length_b     22.693322
_cell_length_c     20.989686
_cell_angle_alpha  90.010222
_cell_angle_beta   91.057087
_cell_angle_gamma 90.11661
loop_
_atom_site_label
_atom_site_type_symbol
_atom_site_fract_x
_atom_site_fract_y
_atom_site_fract_z
_atom_type_partial_charge
C0 C 1.00103 0.88207 0.08369 0.0
C1 C 0.82389 0.96628 0.08759 0.0
C2 C 0.8545 0.03116 0.89806 0.0
Mg3 Mg 0.09688 0.92251 0.00835 0.0
Mg4 Mg 0.11846 0.0606 0.97375 0.0
O5 O 0.07433 0.99799 0.96661 0.0
Mg6 Mg 1.0054 0.00275 0.99899 0.0
O7 O 0.93656 0.99784 0.03125 0.0
Mg8 Mg 0.9122 0.92466 0.98672 0.0
Mg9 Mg 0.89352 0.06168 0.03071 0.0
C10 C 0.02302 0.12603 0.91902 0.0
O11 O 0.0193 0.07618 0.07443 0.0
O12 O 0.16574 0.92693 0.9445 0.0
O13 O 0.94499 0.12115 0.0775 0.0
O14 O 0.1413 0.97117 0.08888 0.0
O15 O 0.1766 0.02214 0.91866 0.0
O16 O 0.14387 0.06767 0.07031 0.0
O17 O 0.98313 0.93161 0.92697 0.0
O18 O 0.05106 0.87697 0.92827 0.0
C19 C 0.00765 0.88766 0.90658 0.0
C20 C 0.18913 0.96775 0.91525 0.0
O21 O 0.9934 0.08283 0.93001 0.0
O22 O 0.84518 0.92649 0.05437 0.0
O23 O 0.0685 0.12614 0.93605 0.0
O24 O 0.86736 0.97834 0.91163 0.0
O25 O 0.83706 0.02053 0.086 0.0
O26 O 0.86542 0.07402 0.93511 0.0
O27 O 0.0257 0.92697 0.06605 0.0
O28 O 0.95747 0.87321 0.06192 0.0
C29 C 0.15389 0.02346 0.10554 0.0
C30 C 0.99066 0.11762 0.09321 0.0
Mg31 Mg 0.99837 0.53541 0.50269 0.0
C32 C 0.01748 0.43232 0.42387 0.0
O33 O 0.05171 0.43145 0.46862 0.0
C34 C 0.93991 0.64546 0.52306 0.0
O35 O 0.96647 0.66434 0.47563 0.0
C36 C 0.04565 0.45737 0.61356 0.0
O37 O 0.0894 0.46541 0.58986 0.0
O38 O 0.00867 0.48211 0.58771 0.0
O39 O 0.98544 0.47304 0.42515 0.0
O40 O 0.05347 0.59856 0.47136 0.0
C41 C 0.0775 0.58957 0.42088 0.0
O42 O 0.08025 0.53563 0.39873 0.0
O43 O 0.93823 0.59034 0.53368 0.0
Mg44 Mg 0.50611 0.97493 0.50063 0.0
C45 C 0.45105 0.02542 0.38728 0.0
O46 O 0.48712 -0.00046 0.35764 0.0
C47 C 0.56016 0.04248 0.60887 0.0
O48 O 0.51756 0.04018 0.63695 0.0
C49 C 0.47027 0.91021 0.62187 0.0
O50 O 0.51601 0.91347 0.64227 0.0
O51 O 0.45941 0.92712 0.56563 0.0
O52 O 0.4525 0.02763 0.44783 0.0
O53 O 0.54446 0.92191 0.43119 0.0
C54 C 0.5895 0.90991 0.4408 0.0
O55 O 0.60918 0.92097 0.49716 0.0
O56 O 0.56354 0.02335 0.5522 0.0
C57 C 0.98915 0.1542 0.20303 0.0
C58 C 0.00782 0.15946 0.14172 0.0
C59 C 0.99514 0.19956 0.24761 0.0
C60 C 0.02005 0.25166 0.22999 0.0
C61 C 0.04096 0.25607 0.16879 0.0
C62 C 0.03445 0.20963 0.12502 0.0
C63 C 0.97261 0.19284 0.31244 0.0
C64 C 0.06798 0.31083 0.14856 0.0
C65 C 0.98212 0.38629 0.32437 0.0
C66 C 0.01897 0.38851 0.37167 0.0
C67 C 0.98315 0.34339 0.27612 0.0
C68 C 0.02201 0.30202 0.27521 0.0
C69 C 0.06013 0.30538 0.32155 0.0
C70 C 0.05808 0.34843 0.36927 0.0
C71 C 0.94177 0.34103 0.22742 0.0
C72 C 0.1022 0.26217 0.3221 0.0
H73 H 0.96792 0.11543 0.21512 0.0
H74 H 0.04796 0.21375 0.07696 0.0
H75 H 1.0005 0.20116 0.3505 0.0
H76 H 0.94307 0.22587 0.31809 0.0
H77 H 0.95679 0.14824 0.31966 0.0
H78 H 0.08569 0.3052 0.10171 0.0
H79 H 0.04197 0.34826 0.14506 0.0
H80 H 0.09646 0.32283 0.18471 0.0
H81 H 0.95203 0.41735 0.32566 0.0
H82 H 0.08706 0.35011 0.40524 0.0
H83 H 0.92052 0.29974 0.23359 0.0
H84 H 0.95656 0.3405 0.17855 0.0
H85 H 0.91638 0.37899 0.23168 0.0
H86 H 0.08842 0.21747 0.33363 0.0
H87 H 0.13123 0.27417 0.35761 0.0
H88 H 0.1188 0.25975 0.27433 0.0
C89 C 0.77388 0.88938 0.14379 0.0
C90 C 0.78486 0.94894 0.13245 0.0
C91 C 0.74013 0.87298 0.19056 0.0
C92 C 0.71697 0.91716 0.22685 0.0
C93 C 0.7267 0.97728 0.21414 0.0
C94 C 0.76035 0.99237 0.16718 0.0
C95 C 0.73043 0.80846 0.20246 0.0
C96 C 0.70271 0.02588 0.25159 0.0
C97 C 0.60208 0.89724 0.32351 0.0
C98 C 0.62154 0.89794 0.38591 0.0
C99 C 0.63292 0.89892 0.27065 0.0
C100 C 0.68436 0.90149 0.28046 0.0
C101 C 0.70421 0.89722 0.34311 0.0
C102 C 0.67257 0.89532 0.39504 0.0
C103 C 0.61028 0.90252 0.2046 0.0
C104 C 0.75886 0.8995 0.35574 0.0
H105 H 0.79254 0.85541 0.11729 0.0
H106 H 0.76819 0.03852 0.15871 0.0
H107 H 0.7451 0.79605 0.25023 0.0
H108 H 0.69041 0.79966 0.20228 0.0
H109 H 0.74767 0.77981 0.16631 0.0
H110 H 0.71286 0.07044 0.23427 0.0
H111 H 0.66224 0.02135 0.2486 0.0
H112 H 0.71369 0.0224 0.30262 0.0
H113 H 0.5627 0.89872 0.31584 0.0
H114 H 0.68803 0.89528 0.44299 0.0
H115 H 0.62977 0.87322 0.17123 0.0
H116 H 0.6137 0.94824 0.18645 0.0
H117 H 0.57081 0.89037 0.20418 0.0
H118 H 0.7782 0.86886 0.32366 0.0
H119 H 0.76858 0.88815 0.40588 0.0
H120 H 0.77255 0.94461 0.34588 0.0
C121 C 0.99353 0.79414 0.15475 0.0
C122 C 0.02214 0.84061 0.13163 0.0
C123 C 0.01129 0.75672 0.20301 0.0
C124 C 0.05912 0.76544 0.22879 0.0
C125 C 0.0888 0.81126 0.20462 0.0
C126 C 0.06979 0.84854 0.15671 0.0
C127 C 0.9784 0.70825 0.22712 0.0
C128 C 0.14011 0.82266 0.22982 0.0
C129 C 0.07087 0.69664 0.39256 0.0
C130 C 0.08666 0.63963 0.37707 0.0
C131 C 0.06568 0.74019 0.34536 0.0
C132 C 0.07681 0.72644 0.28147 0.0
C133 C 0.09838 0.6715 0.26718 0.0
C134 C 0.10303 0.62866 0.31514 0.0
C135 C 0.04465 0.79932 0.3629 0.0
C136 C 0.11297 0.65636 0.20015 0.0
H137 H 0.95667 0.78748 0.13594 0.0
H138 H 0.09226 0.8843 0.13952 0.0
H139 H 0.99646 0.66485 0.22138 0.0
H140 H 0.97192 0.71455 0.27872 0.0
H141 H 0.94235 0.70699 0.20164 0.0
H142 H 0.16447 0.83557 0.19035 0.0
H143 H 0.13922 0.85999 0.26396 0.0
H144 H 0.15643 0.784 0.2545 0.0
H145 H 0.05925 0.70615 0.44057 0.0
H146 H 0.11638 0.58524 0.30287 0.0
H147 H 0.007 0.8033 0.34243 0.0
H148 H 0.06706 0.83528 0.34245 0.0
H149 H 0.04294 0.80549 0.41533 0.0
H150 H 0.07955 0.6506 0.16982 0.0
H151 H 0.13481 0.61515 0.19829 0.0
H152 H 0.1347 0.69285 0.17951 0.0
C153 C 0.20463 0.98298 0.19606 0.0
C154 C 0.18737 0.03186 0.16151 0.0
C155 C 0.24404 0.98829 0.23965 0.0
C156 C 0.26679 0.04387 0.24904 0.0
C157 C 0.24693 0.09424 0.21843 0.0
C158 C 0.20743 0.08767 0.17509 0.0
C159 C 0.26356 0.93353 0.27204 0.0
C160 C 0.26959 0.15443 0.22776 0.0
C161 C 0.3618 0.05278 0.38392 0.0
C162 C 0.40517 0.04007 0.3516 0.0
C163 C 0.31654 0.05664 0.35098 0.0
C164 C 0.31465 0.04759 0.28424 0.0
C165 C 0.35867 0.03808 0.25103 0.0
C166 C 0.40331 0.03451 0.28505 0.0
C167 C 0.27051 0.06743 0.38802 0.0
C168 C 0.35841 0.02875 0.17975 0.0
H169 H 0.18918 0.93983 0.18648 0.0
H170 H 0.19413 0.12597 0.14926 0.0
H171 H 0.29966 0.92203 0.25198 0.0
H172 H 0.26928 0.94142 0.3238 0.0
H173 H 0.23854 0.89522 0.26556 0.0
H174 H 0.24535 0.19006 0.20927 0.0
H175 H 0.27783 0.1628 0.27891 0.0
H176 H 0.30477 0.15655 0.20215 0.0
H177 H 0.3628 0.05719 0.43535 0.0
H178 H 0.43658 0.02507 0.25956 0.0
H179 H 0.24827 0.02646 0.38898 0.0
H180 H 0.24775 0.10192 0.36461 0.0
H181 H 0.27873 0.08107 0.43792 0.0
H182 H 0.33822 0.98761 0.16773 0.0
H183 H 0.396 0.02543 0.16062 0.0
H184 H 0.3391 0.06557 0.15531 0.0
C185 C 0.01624 0.80806 0.82504 0.0
C186 C 0.98696 0.85066 0.85413 0.0
C187 C 0.9992 0.77646 0.77162 0.0
C188 C 0.95138 0.78709 0.74673 0.0
C189 C 0.92079 0.82826 0.77737 0.0
C190 C 0.9391 0.85987 0.83035 0.0
C191 C 0.03309 0.73284 0.7406 0.0
C192 C 0.86936 0.84107 0.75364 0.0
C193 C 0.94341 0.74583 0.57226 0.0
C194 C 0.92877 0.68659 0.57593 0.0
C195 C 0.94685 0.78104 0.62719 0.0
C196 C 0.93525 0.75651 0.68705 0.0
C197 C 0.91491 0.69919 0.68987 0.0
C198 C 0.91195 0.66479 0.63427 0.0
C199 C 0.96674 0.84291 0.62192 0.0
C200 C 0.89981 0.67266 0.75244 0.0
H201 H 0.05322 0.80043 0.84287 0.0
H202 H 0.916 0.89249 0.8524 0.0
H203 H 0.01549 0.68877 0.73813 0.0
H204 H 0.0404 0.74689 0.69102 0.0
H205 H 0.0687 0.72863 0.76671 0.0
H206 H 0.84481 0.84904 0.79435 0.0
H207 H 0.86976 0.88183 0.72442 0.0
H208 H 0.85361 0.80486 0.72422 0.0
H209 H 0.9556 0.76359 0.52729 0.0
H210 H 0.89961 0.61948 0.63754 0.0
H211 H 1.00393 0.84495 0.6442 0.0
H212 H 0.94311 0.87411 0.648 0.0
H213 H 0.9692 0.85763 0.5716 0.0
H214 H 0.93299 0.66272 0.78186 0.0
H215 H 0.87855 0.63126 0.74563 0.0
H216 H 0.87736 0.70448 0.77944 0.0
C217 C 0.24408 0.89231 0.86549 0.0
C218 C 0.23174 0.95162 0.8757 0.0
C219 C 0.28358 0.87686 0.82676 0.0
C220 C 0.31146 0.92174 0.79764 0.0
C221 C 0.29968 0.9816 0.80854 0.0
C222 C 0.26004 0.99577 0.84727 0.0
C223 C 0.295 0.81258 0.81616 0.0
C224 C 0.32853 0.03087 0.77846 0.0
C225 C 0.43942 0.90025 0.73326 0.0
C226 C 0.42997 0.9005 0.66731 0.0
C227 C 0.4009 0.90341 0.77672 0.0
C228 C 0.35186 0.90685 0.75363 0.0
C229 C 0.342 0.90265 0.68735 0.0
C230 C 0.38112 0.89943 0.64505 0.0
C231 C 0.41292 0.90716 0.84709 0.0
C232 C 0.29027 0.90576 0.66068 0.0
H233 H 0.22254 0.85778 0.88717 0.0
H234 H 0.25111 0.04171 0.85496 0.0
H235 H 0.28981 0.80153 0.76499 0.0
H236 H 0.3339 0.80354 0.82891 0.0
H237 H 0.27132 0.78306 0.84457 0.0
H238 H 0.31557 0.07512 0.79318 0.0
H239 H 0.36794 0.02685 0.7917 0.0
H240 H 0.3255 0.02769 0.72578 0.0
H241 H 0.47698 0.90088 0.75101 0.0
H242 H 0.37336 0.89904 0.59422 0.0
H243 H 0.38889 0.87728 0.87441 0.0
H244 H 0.40618 0.95268 0.86407 0.0
H245 H 0.45178 0.89577 0.85787 0.0
H246 H 0.26598 0.87502 0.68645 0.0
H247 H 0.28837 0.89504 0.60904 0.0
H248 H 0.27569 0.95091 0.6674 0.0
C249 C 0.02037 0.23376 0.90475 0.0
C250 C 1.00671 0.17781 0.88239 0.0
C251 C 0.02027 0.28262 0.86402 0.0
C252 C 0.00688 0.27497 0.79911 0.0
C253 C 0.989 0.21952 0.77765 0.0
C254 C 0.98889 0.17137 0.81988 0.0
C255 C 0.03855 0.34111 0.88933 0.0
C256 C 0.97412 0.20969 0.70887 0.0
C257 C 0.99136 0.41001 0.69363 0.0
C258 C 0.03729 0.41346 0.66456 0.0
C259 C 0.98087 0.36538 0.73765 0.0
C260 C 0.01706 0.3229 0.75274 0.0
C261 C 0.06378 0.32667 0.72444 0.0
C262 C 0.07341 0.37208 0.68092 0.0
C263 C 0.93096 0.36335 0.7675 0.0
C264 C 0.10341 0.28215 0.73944 0.0
H265 H 0.03428 0.23847 0.95324 0.0
H266 H 0.97897 0.12786 0.80251 0.0
H267 H 0.07576 0.34987 0.87102 0.0
H268 H 0.01442 0.37749 0.87272 0.0
H269 H 0.04057 0.34185 0.94225 0.0
H270 H 0.9548 0.16697 0.70182 0.0
H271 H 0.94997 0.24574 0.69149 0.0
H272 H 0.00732 0.20985 0.67911 0.0
H273 H 0.96322 0.44195 0.68147 0.0
H274 H 0.10882 0.37419 0.65844 0.0
H275 H 0.93484 0.36482 0.82019 0.0
H276 H 0.91232 0.3213 0.75506 0.0
H277 H 0.90719 0.40046 0.75167 0.0
H278 H 0.11238 0.28272 0.79121 0.0
H279 H 0.13752 0.29083 0.71287 0.0
H280 H 0.09017 0.23717 0.7274 0.0
C281 C 0.80022 0.99252 0.81014 0.0
C282 C 0.82009 0.04101 0.84327 0.0
C283 C 0.76077 -0.0008 0.76696 0.0
C284 C 0.74089 0.05594 0.75577 0.0
C285 C 0.76309 0.10566 0.78527 0.0
C286 C 0.80227 0.09761 0.82895 0.0
C287 C 0.73838 0.94489 0.73653 0.0
C288 C 0.74383 0.16704 0.77334 0.0
C289 C 0.65055 0.063 0.61573 0.0
C290 C 0.60556 0.0558 0.6463 0.0
C291 C 0.69484 0.06666 0.65088 0.0
C292 C 0.69423 0.06192 0.71811 0.0
C293 C 0.64874 0.05744 0.74931 0.0
C294 C 0.60499 0.05496 0.71309 0.0
C295 C 0.7424 0.0728 0.61585 0.0
C296 C 0.6464 0.05176 0.82089 0.0
H297 H 0.8137 0.94864 0.82048 0.0
H298 H 0.81754 0.1355 0.85377 0.0
H299 H 0.7009 0.93806 0.75487 0.0
H300 H 0.73496 0.95061 0.68418 0.0
H301 H 0.76029 0.90461 0.74649 0.0
H302 H 0.76938 0.20141 0.79196 0.0
H303 H 0.73747 0.1745 0.72161 0.0
H304 H 0.70811 0.17233 0.79706 0.0
H305 H 0.65133 0.06405 0.56412 0.0
H306 H 0.5705 0.04923 0.73717 0.0
H307 H 0.7628 0.0306 0.61826 0.0
H308 H 0.76596 0.10706 0.63854 0.0
H309 H 0.73629 0.0844 0.5649 0.0
H310 H 0.66395 0.00986 0.83616 0.0
H311 H 0.60814 0.05214 0.8381 0.0
H312 H 0.66697 0.08822 0.84433 0.0
loop_
_geom_bond_atom_site_label_1
_geom_bond_atom_site_label_2
_geom_bond_distance
_geom_bond_site_symmetry_2
_ccdc_geom_bond_type
C0 O27 1.312 1_655 S
C0 O28 1.208 . S
C1 O22 1.331 . S
C1 O25 1.244 1_565 S
C2 O24 1.264 1_545 S
C2 O26 1.273 . S
Mg3 O5 1.936 1_565 S
Mg3 O12 2.081 . S
Mg3 O14 2.023 1_556 S
Mg3 O18 2.031 . S
Mg3 O27 2.291 1_556 S
Mg4 O5 1.963 . S
Mg4 O15 1.942 . S
Mg4 O16 1.955 1_556 S
Mg4 O23 1.986 . S
O5 Mg3 1.936 1_545 S
O5 Mg4 1.963 . S
O5 Mg6 1.914 1_556 S
Mg6 O5 1.914 1_554 S
Mg6 O7 1.916 1_455 S
Mg6 O11 2.015 . S
Mg6 O17 2.112 1_444 S
Mg6 O21 2.010 1_454 S
Mg6 O27 2.116 1_545 S
O7 Mg6 1.916 1_655 S
O7 Mg8 1.936 1_545 S
O7 Mg9 1.963 . S
Mg8 O7 1.936 1_565 S
Mg8 O17 2.291 1_554 S
Mg8 O22 2.081 . S
Mg8 O24 2.023 1_554 S
Mg8 O28 2.031 . S
Mg9 O7 1.963 . S
Mg9 O13 1.986 . S
Mg9 O25 1.942 . S
Mg9 O26 1.955 1_554 S
C10 O21 1.191 1_455 S
C10 O23 1.307 . S
O11 Mg6 2.015 . S
O11 C30 1.191 1_455 S
O12 Mg3 2.081 . S
O12 C20 1.331 . S
O13 Mg9 1.986 . S
O13 C30 1.307 . S
O14 Mg3 2.023 1_554 S
O14 C29 1.264 1_565 S
O15 Mg4 1.942 . S
O15 C20 1.244 1_545 S
O16 Mg4 1.955 1_554 S
O16 C29 1.273 . S
O17 Mg6 2.112 1_666 S
O17 Mg8 2.291 1_556 S
O17 C19 1.312 1_655 S
O18 Mg3 2.031 . S
O18 C19 1.208 . S
C19 O17 1.312 1_455 S
C19 O18 1.208 . S
C20 O12 1.331 . S
C20 O15 1.244 1_565 S
O21 Mg6 2.010 1_656 S
O21 C10 1.191 1_655 S
O22 C1 1.331 . S
O22 Mg8 2.081 . S
O23 Mg4 1.986 . S
O23 C10 1.307 . S
O24 C2 1.264 1_565 S
O24 Mg8 2.023 1_556 S
O25 C1 1.244 1_545 S
O25 Mg9 1.942 . S
O26 C2 1.273 . S
O26 Mg9 1.955 1_556 S
O27 C0 1.312 1_455 S
O27 Mg3 2.291 1_554 S
O27 Mg6 2.116 1_565 S
O28 C0 1.208 . S
O28 Mg8 2.031 . S
C29 O14 1.264 1_545 S
C29 O16 1.273 . S
C30 O11 1.191 1_655 S
C30 O13 1.307 . S
Mg31 O38 2.141 . S
Mg31 O39 2.048 . S
Mg31 O40 2.048 . S
Mg31 O43 2.141 . S
C32 O33 1.313 . S
C32 O39 1.195 1_455 S
O33 C32 1.313 . S
C34 O35 1.245 . S
C34 O43 1.289 1_455 S
O35 C34 1.245 . S
C36 O37 1.245 . S
C36 O38 1.289 1_455 S
O37 C36 1.245 . S
O38 Mg31 2.141 . S
O38 C36 1.289 1_655 S
O39 Mg31 2.048 . S
O39 C32 1.195 1_655 S
O40 Mg31 2.048 . S
O40 C41 1.195 1_655 S
C41 O40 1.195 1_455 S
C41 O42 1.313 . S
O42 C41 1.313 . S
O43 Mg31 2.141 . S
O43 C34 1.289 1_655 S
Mg44 O51 2.141 . S
Mg44 O52 2.048 . S
Mg44 O53 2.048 . S
Mg44 O56 2.141 . S
C45 O46 1.313 . S
C45 O52 1.195 1_565 S
O46 C45 1.313 . S
C47 O48 1.245 . S
C47 O56 1.289 1_565 S
O48 C47 1.245 . S
C49 O50 1.245 . S
C49 O51 1.289 1_565 S
O50 C49 1.245 . S
O51 Mg44 2.141 . S
O51 C49 1.289 1_545 S
O52 Mg44 2.048 . S
O52 C45 1.195 1_545 S
O53 Mg44 2.048 . S
O53 C54 1.195 1_545 S
C54 O53 1.195 1_565 S
C54 O55 1.313 . S
O55 C54 1.313 . S
O56 Mg44 2.141 . S
O56 C47 1.289 1_545 S
C57 C58 1.391 1_655 S
C57 C59 1.394 . S
C57 H73 0.931 . S
C58 C57 1.391 1_455 S
C58 C62 1.376 . S
C59 C57 1.394 . S
C59 C60 1.369 1_655 S
C59 C63 1.531 . S
C60 C59 1.369 1_455 S
C60 C61 1.410 . S
C60 C68 1.503 . S
C61 C60 1.410 . S
C61 C62 1.392 . S
C61 C64 1.511 . S
C62 C58 1.376 . S
C62 C61 1.392 . S
C62 H74 0.929 . S
C63 C59 1.531 . S
C63 H75 0.960 . S
C63 H76 0.962 . S
C63 H77 0.960 . S
C64 C61 1.511 . S
C64 H78 0.961 . S
C64 H79 0.961 . S
C64 H80 0.961 . S
C65 C66 1.370 1_655 S
C65 C67 1.363 . S
C65 H81 0.931 . S
C66 C65 1.370 1_455 S
C66 C70 1.408 . S
C67 C65 1.363 . S
C67 C68 1.370 1_655 S
C67 C71 1.524 . S
C68 C60 1.503 . S
C68 C67 1.370 1_455 S
C68 C69 1.403 . S
C69 C68 1.403 . S
C69 C70 1.404 . S
C69 C72 1.539 . S
C70 C66 1.408 . S
C70 C69 1.404 . S
C70 H82 0.930 . S
C71 C67 1.524 . S
C71 H83 0.956 . S
C71 H84 0.961 . S
C71 H85 0.961 . S
C72 C69 1.539 . S
C72 H86 0.958 . S
C72 H87 0.961 . S
C72 H88 0.960 . S
H73 C57 0.931 . S
H74 C62 0.929 . S
H75 C63 0.960 . S
H76 C63 0.962 . S
H77 C63 0.960 . S
H78 C64 0.961 . S
H79 C64 0.961 . S
H80 C64 0.961 . S
H81 C65 0.931 . S
H82 C70 0.930 . S
H83 C71 0.956 . S
H84 C71 0.961 . S
H85 C71 0.961 . S
H86 C72 0.958 . S
H87 C72 0.961 . S
H88 C72 0.960 . S
C89 C90 1.391 . S
C89 C91 1.394 . S
C89 H105 0.931 . S
C90 C89 1.391 . S
C90 C94 1.376 1_565 S
C91 C89 1.394 . S
C91 C92 1.369 . S
C91 C95 1.531 . S
C92 C91 1.369 . S
C92 C93 1.410 1_565 S
C92 C100 1.503 . S
C93 C92 1.410 1_545 S
C93 C94 1.392 . S
C93 C96 1.511 . S
C94 C90 1.376 1_545 S
C94 C93 1.392 . S
C94 H106 0.929 . S
C95 C91 1.531 . S
C95 H107 0.960 . S
C95 H108 0.962 . S
C95 H109 0.960 . S
C96 C93 1.511 . S
C96 H110 0.961 . S
C96 H111 0.961 . S
C96 H112 0.961 . S
C97 C98 1.370 . S
C97 C99 1.363 . S
C97 H113 0.931 . S
C98 C97 1.370 . S
C98 C102 1.408 1_545 S
C99 C97 1.363 . S
C99 C100 1.370 1_545 S
C99 C103 1.524 . S
C100 C92 1.503 . S
C100 C99 1.370 1_565 S
C100 C101 1.403 . S
C101 C100 1.403 . S
C101 C102 1.404 . S
C101 C104 1.539 . S
C102 C98 1.408 1_565 S
C102 C101 1.404 . S
C102 H114 0.930 . S
C103 C99 1.524 . S
C103 H115 0.956 . S
C103 H116 0.961 . S
C103 H117 0.961 . S
C104 C101 1.539 . S
C104 H118 0.958 . S
C104 H119 0.961 . S
C104 H120 0.960 . S
H105 C89 0.931 . S
H106 C94 0.929 . S
H107 C95 0.960 . S
H108 C95 0.962 . S
H109 C95 0.960 . S
H110 C96 0.961 . S
H111 C96 0.961 . S
H112 C96 0.961 . S
H113 C97 0.931 . S
H114 C102 0.930 . S
H115 C103 0.956 . S
H116 C103 0.961 . S
H117 C103 0.961 . S
H118 C104 0.958 . S
H119 C104 0.961 . S
H120 C104 0.960 . S
C121 C122 1.391 1_655 S
C121 C123 1.394 . S
C121 H137 0.931 . S
C122 C121 1.391 1_455 S
C122 C126 1.376 . S
C123 C121 1.394 . S
C123 C124 1.369 1_655 S
C123 C127 1.531 . S
C124 C123 1.369 1_455 S
C124 C125 1.410 . S
C124 C132 1.503 . S
C125 C124 1.410 . S
C125 C126 1.392 . S
C125 C128 1.511 . S
C126 C122 1.376 . S
C126 C125 1.392 . S
C126 H138 0.929 . S
C127 C123 1.531 . S
C127 H139 0.960 . S
C127 H140 0.962 . S
C127 H141 0.960 . S
C128 C125 1.511 . S
C128 H142 0.961 . S
C128 H143 0.961 . S
C128 H144 0.961 . S
C129 C130 1.370 1_655 S
C129 C131 1.363 . S
C129 H145 0.931 . S
C130 C129 1.370 1_455 S
C130 C134 1.408 . S
C131 C129 1.363 . S
C131 C132 1.370 1_655 S
C131 C135 1.524 . S
C132 C124 1.503 . S
C132 C131 1.370 1_455 S
C132 C133 1.403 . S
C133 C132 1.403 . S
C133 C134 1.404 . S
C133 C136 1.539 . S
C134 C130 1.408 . S
C134 C133 1.404 . S
C134 H146 0.930 . S
C135 C131 1.524 . S
C135 H147 0.956 . S
C135 H148 0.961 . S
C135 H149 0.961 . S
C136 C133 1.539 . S
C136 H150 0.958 . S
C136 H151 0.961 . S
C136 H152 0.960 . S
H137 C121 0.931 . S
H138 C126 0.929 . S
H139 C127 0.960 . S
H140 C127 0.962 . S
H141 C127 0.960 . S
H142 C128 0.961 . S
H143 C128 0.961 . S
H144 C128 0.961 . S
H145 C129 0.931 . S
H146 C134 0.930 . S
H147 C135 0.956 . S
H148 C135 0.961 . S
H149 C135 0.961 . S
H150 C136 0.958 . S
H151 C136 0.961 . S
H152 C136 0.960 . S
C153 C154 1.391 1_565 S
C153 C155 1.394 . S
C153 H169 0.931 . S
C154 C153 1.391 1_545 S
C154 C158 1.376 . S
C155 C153 1.394 . S
C155 C156 1.369 1_565 S
C155 C159 1.531 . S
C156 C155 1.369 1_545 S
C156 C157 1.409 . S
C156 C164 1.503 . S
C157 C156 1.409 . S
C157 C158 1.392 . S
C157 C160 1.511 . S
C158 C154 1.376 . S
C158 C157 1.392 . S
C158 H170 0.929 . S
C159 C155 1.531 . S
C159 H171 0.960 . S
C159 H172 0.962 . S
C159 H173 0.960 . S
C160 C157 1.511 . S
C160 H174 0.961 . S
C160 H175 0.961 . S
C160 H176 0.961 . S
C161 C162 1.370 . S
C161 C163 1.363 . S
C161 H177 0.931 . S
C162 C161 1.370 . S
C162 C166 1.408 1_545 S
C163 C161 1.363 . S
C163 C164 1.384 . S
C163 C167 1.524 . S
C164 C156 1.503 . S
C164 C163 1.384 . S
C164 C165 1.389 1_545 S
C165 C164 1.389 1_565 S
C165 C166 1.404 . S
C165 C168 1.539 . S
C166 C162 1.408 1_565 S
C166 C165 1.404 . S
C166 H178 0.930 . S
C167 C163 1.524 . S
C167 H179 0.956 . S
C167 H180 0.961 . S
C167 H181 0.961 . S
C168 C165 1.539 . S
C168 H182 0.958 . S
C168 H183 0.961 . S
C168 H184 0.960 . S
H169 C153 0.931 . S
H170 C158 0.929 . S
H171 C159 0.960 . S
H172 C159 0.962 . S
H173 C159 0.960 . S
H174 C160 0.961 . S
H175 C160 0.961 . S
H176 C160 0.961 . S
H177 C161 0.931 . S
H178 C166 0.930 . S
H179 C167 0.956 . S
H180 C167 0.961 . S
H181 C167 0.961 . S
H182 C168 0.958 . S
H183 C168 0.961 . S
H184 C168 0.960 . S
C185 C186 1.391 1_455 S
C185 C187 1.394 . S
C185 H201 0.931 . S
C186 C185 1.391 1_655 S
C186 C190 1.376 . S
C187 C185 1.394 . S
C187 C188 1.369 1_455 S
C187 C191 1.531 . S
C188 C187 1.369 1_655 S
C188 C189 1.410 . S
C188 C196 1.503 . S
C189 C188 1.410 . S
C189 C190 1.392 . S
C189 C192 1.511 . S
C190 C186 1.376 . S
C190 C189 1.392 . S
C190 H202 0.929 . S
C191 C187 1.531 . S
C191 H203 0.960 . S
C191 H204 0.962 . S
C191 H205 0.960 . S
C192 C189 1.511 . S
C192 H206 0.961 . S
C192 H207 0.961 . S
C192 H208 0.961 . S
C193 C194 1.370 . S
C193 C195 1.363 . S
C193 H209 0.931 . S
C194 C193 1.370 . S
C194 C198 1.408 1_455 S
C195 C193 1.363 . S
C195 C196 1.370 1_455 S
C195 C199 1.524 . S
C196 C188 1.503 . S
C196 C195 1.370 1_655 S
C196 C197 1.403 . S
C197 C196 1.403 . S
C197 C198 1.404 . S
C197 C200 1.539 . S
C198 C194 1.408 1_655 S
C198 C197 1.404 . S
C198 H210 0.930 . S
C199 C195 1.524 . S
C199 H211 0.956 . S
C199 H212 0.961 . S
C199 H213 0.961 . S
C200 C197 1.539 . S
C200 H214 0.958 . S
C200 H215 0.961 . S
C200 H216 0.960 . S
H201 C185 0.931 . S
H202 C190 0.929 . S
H203 C191 0.960 . S
H204 C191 0.962 . S
H205 C191 0.960 . S
H206 C192 0.961 . S
H207 C192 0.961 . S
H208 C192 0.961 . S
H209 C193 0.931 . S
H210 C198 0.930 . S
H211 C199 0.956 . S
H212 C199 0.961 . S
H213 C199 0.961 . S
H214 C200 0.958 . S
H215 C200 0.961 . S
H216 C200 0.960 . S
C217 C218 1.391 . S
C217 C219 1.394 . S
C217 H233 0.931 . S
C218 C217 1.391 . S
C218 C222 1.376 1_565 S
C219 C217 1.394 . S
C219 C220 1.369 1_565 S
C219 C223 1.531 . S
C220 C219 1.369 1_545 S
C220 C221 1.410 . S
C220 C228 1.503 . S
C221 C220 1.410 . S
C221 C222 1.392 . S
C221 C224 1.511 . S
C222 C218 1.376 1_545 S
C222 C221 1.392 . S
C222 H234 0.929 . S
C223 C219 1.531 . S
C223 H235 0.960 1_565 S
C223 H236 0.962 . S
C223 H237 0.960 . S
C224 C221 1.511 . S
C224 H238 0.961 . S
C224 H239 0.961 . S
C224 H240 0.961 . S
C225 C226 1.370 1_565 S
C225 C227 1.363 . S
C225 H241 0.931 . S
C226 C225 1.370 1_545 S
C226 C230 1.408 . S
C227 C225 1.363 . S
C227 C228 1.370 1_565 S
C227 C231 1.524 . S
C228 C220 1.503 . S
C228 C227 1.370 1_545 S
C228 C229 1.403 . S
C229 C228 1.403 . S
C229 C230 1.404 . S
C229 C232 1.539 . S
C230 C226 1.408 . S
C230 C229 1.404 . S
C230 H242 0.930 . S
C231 C227 1.524 . S
C231 H243 0.956 . S
C231 H244 0.961 . S
C231 H245 0.961 . S
C232 C229 1.539 . S
C232 H246 0.958 . S
C232 H247 0.961 . S
C232 H248 0.960 . S
H233 C217 0.931 . S
H234 C222 0.929 . S
H235 C223 0.960 1_545 S
H236 C223 0.962 . S
H237 C223 0.960 . S
H238 C224 0.961 . S
H239 C224 0.961 . S
H240 C224 0.961 . S
H241 C225 0.931 . S
H242 C230 0.930 . S
H243 C231 0.956 . S
H244 C231 0.961 . S
H245 C231 0.961 . S
H246 C232 0.958 . S
H247 C232 0.961 . S
H248 C232 0.960 . S
C249 C250 1.391 . S
C249 C251 1.394 . S
C249 H265 0.931 . S
C250 C249 1.391 . S
C250 C254 1.376 1_455 S
C251 C249 1.394 . S
C251 C252 1.369 . S
C251 C255 1.531 . S
C252 C251 1.369 . S
C252 C253 1.410 1_455 S
C252 C260 1.503 . S
C253 C252 1.410 1_655 S
C253 C254 1.392 . S
C253 C256 1.511 . S
C254 C250 1.376 1_655 S
C254 C253 1.392 . S
C254 H266 0.929 . S
C255 C251 1.531 . S
C255 H267 0.960 . S
C255 H268 0.962 . S
C255 H269 0.960 . S
C256 C253 1.511 . S
C256 H270 0.961 . S
C256 H271 0.961 . S
C256 H272 0.961 . S
C257 C258 1.370 1_655 S
C257 C259 1.363 . S
C257 H273 0.931 . S
C258 C257 1.370 1_455 S
C258 C262 1.408 . S
C259 C257 1.363 . S
C259 C260 1.370 1_655 S
C259 C263 1.524 . S
C260 C252 1.503 . S
C260 C259 1.370 1_455 S
C260 C261 1.403 . S
C261 C260 1.403 . S
C261 C262 1.404 . S
C261 C264 1.539 . S
C262 C258 1.408 . S
C262 C261 1.404 . S
C262 H274 0.930 . S
C263 C259 1.524 . S
C263 H275 0.956 1_655 S
C263 H276 0.961 . S
C263 H277 0.961 . S
C264 C261 1.539 . S
C264 H278 0.958 . S
C264 H279 0.961 . S
C264 H280 0.960 . S
H265 C249 0.931 . S
H266 C254 0.929 . S
H267 C255 0.960 . S
H268 C255 0.962 . S
H269 C255 0.960 . S
H270 C256 0.961 . S
H271 C256 0.961 . S
H272 C256 0.961 . S
H273 C257 0.931 . S
H274 C262 0.930 . S
H275 C263 0.956 1_455 S
H276 C263 0.961 . S
H277 C263 0.961 . S
H278 C264 0.958 . S
H279 C264 0.961 . S
H280 C264 0.960 . S
C281 C282 1.391 1_565 S
C281 C283 1.394 . S
C281 H297 0.931 . S
C282 C281 1.391 1_545 S
C282 C286 1.376 . S
C283 C281 1.394 . S
C283 C284 1.370 . S
C283 C287 1.531 . S
C284 C283 1.370 . S
C284 C285 1.407 1_565 S
C284 C292 1.503 1_565 S
C285 C284 1.407 1_545 S
C285 C286 1.392 . S
C285 C288 1.511 . S
C286 C282 1.376 . S
C286 C285 1.392 . S
C286 H298 0.929 . S
C287 C283 1.531 . S
C287 H299 0.960 . S
C287 H300 0.962 1_565 S
C287 H301 0.960 . S
C288 C285 1.511 . S
C288 H302 0.961 . S
C288 H303 0.961 . S
C288 H304 0.961 1_545 S
C289 C290 1.370 . S
C289 C291 1.363 . S
C289 H305 0.931 . S
C290 C289 1.370 . S
C290 C294 1.408 1_545 S
C291 C289 1.363 . S
C291 C292 1.375 . S
C291 C295 1.524 . S
C292 C284 1.503 1_545 S
C292 C291 1.375 . S
C292 C293 1.398 1_545 S
C293 C292 1.398 1_565 S
C293 C294 1.404 . S
C293 C296 1.539 . S
C294 C290 1.408 1_565 S
C294 C293 1.404 . S
C294 H306 0.930 . S
C295 C291 1.524 . S
C295 H307 0.956 . S
C295 H308 0.961 . S
C295 H309 0.961 . S
C296 C293 1.539 . S
C296 H310 0.958 . S
C296 H311 0.961 . S
C296 H312 0.960 . S
H297 C281 0.931 . S
H298 C286 0.929 . S
H299 C287 0.960 . S
H300 C287 0.962 1_545 S
H301 C287 0.960 . S
H302 C288 0.961 . S
H303 C288 0.961 . S
H304 C288 0.961 1_565 S
H305 C289 0.931 . S
H306 C294 0.930 . S
H307 C295 0.956 . S
H308 C295 0.961 . S
H309 C295 0.961 . S
H310 C296 0.958 . S
H311 C296 0.961 . S
H312 C296 0.960 . S
C58 C30 1.367 1_455 S
C66 C32 1.371 . S
C90 C1 1.540 . S
C98 C54 1.538 1_545 S
C122 C0 1.331 1_455 S
C130 C41 1.383 . S
C154 C29 1.542 . S
C162 C45 1.584 1_545 S
C186 C19 1.273 1_655 S
C194 C34 1.327 . S
C218 C20 1.442 . S
C226 C49 1.469 1_545 S
C258 C36 1.304 . S
C250 C10 1.292 . S
C282 C2 1.472 . S
C290 C47 1.502 1_545 S
