# Generated by pormake.
# Topology gar, (4,6)-cn, num edge types: 1
# Building blocks:
#     Node 0, Type 0, BuildingBlock: NAHDIM_clean_sbu_0, # of connection points: 4
#     Node 1, Type 0, BuildingBlock: NAHDIM_clean_sbu_0, # of connection points: 4
#     Node 2, Type 0, BuildingBlock: NAHDIM_clean_sbu_0, # of connection points: 4
#     Node 3, Type 0, BuildingBlock: NAHDIM_clean_sbu_0, # of connection points: 4
#     Node 4, Type 0, BuildingBlock: NAHDIM_clean_sbu_0, # of connection points: 4
#     Node 5, Type 0, BuildingBlock: NAHDIM_clean_sbu_0, # of connection points: 4
#     Node 6, Type 0, BuildingBlock: NAHDIM_clean_sbu_0, # of connection points: 4
#     Node 7, Type 0, BuildingBlock: NAHDIM_clean_sbu_0, # of connection points: 4
#     Node 8, Type 0, BuildingBlock: NAHDIM_clean_sbu_0, # of connection points: 4
#     Node 9, Type 0, BuildingBlock: NAHDIM_clean_sbu_0, # of connection points: 4
#     Node 10, Type 0, BuildingBlock: NAHDIM_clean_sbu_0, # of connection points: 4
#     Node 11, Type 0, BuildingBlock: NAHDIM_clean_sbu_0, # of connection points: 4
#     Node 12, Type 0, BuildingBlock: NAHDIM_clean_sbu_0, # of connection points: 4
#     Node 13, Type 0, BuildingBlock: NAHDIM_clean_sbu_0, # of connection points: 4
#     Node 14, Type 0, BuildingBlock: NAHDIM_clean_sbu_0, # of connection points: 4
#     Node 15, Type 0, BuildingBlock: NAHDIM_clean_sbu_0, # of connection points: 4
#     Node 16, Type 0, BuildingBlock: NAHDIM_clean_sbu_0, # of connection points: 4
#     Node 17, Type 0, BuildingBlock: NAHDIM_clean_sbu_0, # of connection points: 4
#     Node 18, Type 0, BuildingBlock: NAHDIM_clean_sbu_0, # of connection points: 4
#     Node 19, Type 0, BuildingBlock: NAHDIM_clean_sbu_0, # of connection points: 4
#     Node 20, Type 0, BuildingBlock: NAHDIM_clean_sbu_0, # of connection points: 4
#     Node 21, Type 0, BuildingBlock: NAHDIM_clean_sbu_0, # of connection points: 4
#     Node 22, Type 0, BuildingBlock: NAHDIM_clean_sbu_0, # of connection points: 4
#     Node 23, Type 0, BuildingBlock: NAHDIM_clean_sbu_0, # of connection points: 4
#     Node 24, Type 1, BuildingBlock: KUMBUR_clean_sbu_1, # of connection points: 6
#     Node 25, Type 1, BuildingBlock: KUMBUR_clean_sbu_1, # of connection points: 6
#     Node 26, Type 1, BuildingBlock: KUMBUR_clean_sbu_1, # of connection points: 6
#     Node 27, Type 1, BuildingBlock: KUMBUR_clean_sbu_1, # of connection points: 6
#     Node 28, Type 1, BuildingBlock: KUMBUR_clean_sbu_1, # of connection points: 6
#     Node 29, Type 1, BuildingBlock: KUMBUR_clean_sbu_1, # of connection points: 6
#     Node 30, Type 1, BuildingBlock: KUMBUR_clean_sbu_1, # of connection points: 6
#     Node 31, Type 1, BuildingBlock: KUMBUR_clean_sbu_1, # of connection points: 6
#     Node 32, Type 1, BuildingBlock: KUMBUR_clean_sbu_1, # of connection points: 6
#     Node 33, Type 1, BuildingBlock: KUMBUR_clean_sbu_1, # of connection points: 6
#     Node 34, Type 1, BuildingBlock: KUMBUR_clean_sbu_1, # of connection points: 6
#     Node 35, Type 1, BuildingBlock: KUMBUR_clean_sbu_1, # of connection points: 6
#     Node 36, Type 1, BuildingBlock: KUMBUR_clean_sbu_1, # of connection points: 6
#     Node 37, Type 1, BuildingBlock: KUMBUR_clean_sbu_1, # of connection points: 6
#     Node 38, Type 1, BuildingBlock: KUMBUR_clean_sbu_1, # of connection points: 6
#     Node 39, Type 1, BuildingBlock: KUMBUR_clean_sbu_1, # of connection points: 6
#     Edge 40, Type (0, 1), BuildingBlock: AJUNOK_clean_linker_0, # of connection points: 2
#     Edge 41, Type (0, 1), BuildingBlock: AJUNOK_clean_linker_0, # of connection points: 2
#     Edge 42, Type (0, 1), BuildingBlock: AJUNOK_clean_linker_0, # of connection points: 2
#     Edge 43, Type (0, 1), BuildingBlock: AJUNOK_clean_linker_0, # of connection points: 2
#     Edge 44, Type (0, 1), BuildingBlock: AJUNOK_clean_linker_0, # of connection points: 2
#     Edge 45, Type (0, 1), BuildingBlock: AJUNOK_clean_linker_0, # of connection points: 2
#     Edge 46, Type (0, 1), BuildingBlock: AJUNOK_clean_linker_0, # of connection points: 2
#     Edge 47, Type (0, 1), BuildingBlock: AJUNOK_clean_linker_0, # of connection points: 2
#     Edge 48, Type (0, 1), BuildingBlock: AJUNOK_clean_linker_0, # of connection points: 2
#     Edge 49, Type (0, 1), BuildingBlock: AJUNOK_clean_linker_0, # of connection points: 2
#     Edge 50, Type (0, 1), BuildingBlock: AJUNOK_clean_linker_0, # of connection points: 2
#     Edge 51, Type (0, 1), BuildingBlock: AJUNOK_clean_linker_0, # of connection points: 2
#     Edge 52, Type (0, 1), BuildingBlock: AJUNOK_clean_linker_0, # of connection points: 2
#     Edge 53, Type (0, 1), BuildingBlock: AJUNOK_clean_linker_0, # of connection points: 2
#     Edge 54, Type (0, 1), BuildingBlock: AJUNOK_clean_linker_0, # of connection points: 2
#     Edge 55, Type (0, 1), BuildingBlock: AJUNOK_clean_linker_0, # of connection points: 2
#     Edge 56, Type (0, 1), BuildingBlock: AJUNOK_clean_linker_0, # of connection points: 2
#     Edge 57, Type (0, 1), BuildingBlock: AJUNOK_clean_linker_0, # of connection points: 2
#     Edge 58, Type (0, 1), BuildingBlock: AJUNOK_clean_linker_0, # of connection points: 2
#     Edge 59, Type (0, 1), BuildingBlock: AJUNOK_clean_linker_0, # of connection points: 2
#     Edge 60, Type (0, 1), BuildingBlock: AJUNOK_clean_linker_0, # of connection points: 2
#     Edge 61, Type (0, 1), BuildingBlock: AJUNOK_clean_linker_0, # of connection points: 2
#     Edge 62, Type (0, 1), BuildingBlock: AJUNOK_clean_linker_0, # of connection points: 2
#     Edge 63, Type (0, 1), BuildingBlock: AJUNOK_clean_linker_0, # of connection points: 2
#     Edge 64, Type (0, 1), BuildingBlock: AJUNOK_clean_linker_0, # of connection points: 2
#     Edge 65, Type (0, 1), BuildingBlock: AJUNOK_clean_linker_0, # of connection points: 2
#     Edge 66, Type (0, 1), BuildingBlock: AJUNOK_clean_linker_0, # of connection points: 2
#     Edge 67, Type (0, 1), BuildingBlock: AJUNOK_clean_linker_0, # of connection points: 2
#     Edge 68, Type (0, 1), BuildingBlock: AJUNOK_clean_linker_0, # of connection points: 2
#     Edge 69, Type (0, 1), BuildingBlock: AJUNOK_clean_linker_0, # of connection points: 2
#     Edge 70, Type (0, 1), BuildingBlock: AJUNOK_clean_linker_0, # of connection points: 2
#     Edge 71, Type (0, 1), BuildingBlock: AJUNOK_clean_linker_0, # of connection points: 2
#     Edge 72, Type (0, 1), BuildingBlock: AJUNOK_clean_linker_0, # of connection points: 2
#     Edge 73, Type (0, 1), BuildingBlock: AJUNOK_clean_linker_0, # of connection points: 2
#     Edge 74, Type (0, 1), BuildingBlock: AJUNOK_clean_linker_0, # of connection points: 2
#     Edge 75, Type (0, 1), BuildingBlock: AJUNOK_clean_linker_0, # of connection points: 2
#     Edge 76, Type (0, 1), BuildingBlock: AJUNOK_clean_linker_0, # of connection points: 2
#     Edge 77, Type (0, 1), BuildingBlock: AJUNOK_clean_linker_0, # of connection points: 2
#     Edge 78, Type (0, 1), BuildingBlock: AJUNOK_clean_linker_0, # of connection points: 2
#     Edge 79, Type (0, 1), BuildingBlock: AJUNOK_clean_linker_0, # of connection points: 2
#     Edge 80, Type (0, 1), BuildingBlock: AJUNOK_clean_linker_0, # of connection points: 2
#     Edge 81, Type (0, 1), BuildingBlock: AJUNOK_clean_linker_0, # of connection points: 2
#     Edge 82, Type (0, 1), BuildingBlock: AJUNOK_clean_linker_0, # of connection points: 2
#     Edge 83, Type (0, 1), BuildingBlock: AJUNOK_clean_linker_0, # of connection points: 2
#     Edge 84, Type (0, 1), BuildingBlock: AJUNOK_clean_linker_0, # of connection points: 2
#     Edge 85, Type (0, 1), BuildingBlock: AJUNOK_clean_linker_0, # of connection points: 2
#     Edge 86, Type (0, 1), BuildingBlock: AJUNOK_clean_linker_0, # of connection points: 2
#     Edge 87, Type (0, 1), BuildingBlock: AJUNOK_clean_linker_0, # of connection points: 2
#     Edge 88, Type (0, 1), BuildingBlock: AJUNOK_clean_linker_0, # of connection points: 2
#     Edge 89, Type (0, 1), BuildingBlock: AJUNOK_clean_linker_0, # of connection points: 2
#     Edge 90, Type (0, 1), BuildingBlock: AJUNOK_clean_linker_0, # of connection points: 2
#     Edge 91, Type (0, 1), BuildingBlock: AJUNOK_clean_linker_0, # of connection points: 2
#     Edge 92, Type (0, 1), BuildingBlock: AJUNOK_clean_linker_0, # of connection points: 2
#     Edge 93, Type (0, 1), BuildingBlock: AJUNOK_clean_linker_0, # of connection points: 2
#     Edge 94, Type (0, 1), BuildingBlock: AJUNOK_clean_linker_0, # of connection points: 2
#     Edge 95, Type (0, 1), BuildingBlock: AJUNOK_clean_linker_0, # of connection points: 2
#     Edge 96, Type (0, 1), BuildingBlock: AJUNOK_clean_linker_0, # of connection points: 2
#     Edge 97, Type (0, 1), BuildingBlock: AJUNOK_clean_linker_0, # of connection points: 2
#     Edge 98, Type (0, 1), BuildingBlock: AJUNOK_clean_linker_0, # of connection points: 2
#     Edge 99, Type (0, 1), BuildingBlock: AJUNOK_clean_linker_0, # of connection points: 2
#     Edge 100, Type (0, 1), BuildingBlock: AJUNOK_clean_linker_0, # of connection points: 2
#     Edge 101, Type (0, 1), BuildingBlock: AJUNOK_clean_linker_0, # of connection points: 2
#     Edge 102, Type (0, 1), BuildingBlock: AJUNOK_clean_linker_0, # of connection points: 2
#     Edge 103, Type (0, 1), BuildingBlock: AJUNOK_clean_linker_0, # of connection points: 2
#     Edge 104, Type (0, 1), BuildingBlock: AJUNOK_clean_linker_0, # of connection points: 2
#     Edge 105, Type (0, 1), BuildingBlock: AJUNOK_clean_linker_0, # of connection points: 2
#     Edge 106, Type (0, 1), BuildingBlock: AJUNOK_clean_linker_0, # of connection points: 2
#     Edge 107, Type (0, 1), BuildingBlock: AJUNOK_clean_linker_0, # of connection points: 2
#     Edge 108, Type (0, 1), BuildingBlock: AJUNOK_clean_linker_0, # of connection points: 2
#     Edge 109, Type (0, 1), BuildingBlock: AJUNOK_clean_linker_0, # of connection points: 2
#     Edge 110, Type (0, 1), BuildingBlock: AJUNOK_clean_linker_0, # of connection points: 2
#     Edge 111, Type (0, 1), BuildingBlock: AJUNOK_clean_linker_0, # of connection points: 2
#     Edge 112, Type (0, 1), BuildingBlock: AJUNOK_clean_linker_0, # of connection points: 2
#     Edge 113, Type (0, 1), BuildingBlock: AJUNOK_clean_linker_0, # of connection points: 2
#     Edge 114, Type (0, 1), BuildingBlock: AJUNOK_clean_linker_0, # of connection points: 2
#     Edge 115, Type (0, 1), BuildingBlock: AJUNOK_clean_linker_0, # of connection points: 2
#     Edge 116, Type (0, 1), BuildingBlock: AJUNOK_clean_linker_0, # of connection points: 2
#     Edge 117, Type (0, 1), BuildingBlock: AJUNOK_clean_linker_0, # of connection points: 2
#     Edge 118, Type (0, 1), BuildingBlock: AJUNOK_clean_linker_0, # of connection points: 2
#     Edge 119, Type (0, 1), BuildingBlock: AJUNOK_clean_linker_0, # of connection points: 2
#     Edge 120, Type (0, 1), BuildingBlock: AJUNOK_clean_linker_0, # of connection points: 2
#     Edge 121, Type (0, 1), BuildingBlock: AJUNOK_clean_linker_0, # of connection points: 2
#     Edge 122, Type (0, 1), BuildingBlock: AJUNOK_clean_linker_0, # of connection points: 2
#     Edge 123, Type (0, 1), BuildingBlock: AJUNOK_clean_linker_0, # of connection points: 2
#     Edge 124, Type (0, 1), BuildingBlock: AJUNOK_clean_linker_0, # of connection points: 2
#     Edge 125, Type (0, 1), BuildingBlock: AJUNOK_clean_linker_0, # of connection points: 2
#     Edge 126, Type (0, 1), BuildingBlock: AJUNOK_clean_linker_0, # of connection points: 2
#     Edge 127, Type (0, 1), BuildingBlock: AJUNOK_clean_linker_0, # of connection points: 2
#     Edge 128, Type (0, 1), BuildingBlock: AJUNOK_clean_linker_0, # of connection points: 2
#     Edge 129, Type (0, 1), BuildingBlock: AJUNOK_clean_linker_0, # of connection points: 2
#     Edge 130, Type (0, 1), BuildingBlock: AJUNOK_clean_linker_0, # of connection points: 2
#     Edge 131, Type (0, 1), BuildingBlock: AJUNOK_clean_linker_0, # of connection points: 2
#     Edge 132, Type (0, 1), BuildingBlock: AJUNOK_clean_linker_0, # of connection points: 2
#     Edge 133, Type (0, 1), BuildingBlock: AJUNOK_clean_linker_0, # of connection points: 2
#     Edge 134, Type (0, 1), BuildingBlock: AJUNOK_clean_linker_0, # of connection points: 2
#     Edge 135, Type (0, 1), BuildingBlock: AJUNOK_clean_linker_0, # of connection points: 2
# Relax obj value: 0.111
# Max RMSD: 0.216
# Mean RMSD: 0.140
data_MOF--net-gar--node1-NAHDIM_clean_sbu_0--node2-KUMBUR_clean_sbu_1--edge1-AJUNOK_clean_linker_0
_symmetry_space_group_name_H-M    P1
_symmetry_Int_Tables_number       1
_symmetry_cell_setting            triclinic
loop_
_symmetry_equiv_pos_as_xyz
'x, y, z'
_cell_length_a     46.480296
_cell_length_b     45.766262
_cell_length_c     41.219233
_cell_angle_alpha  97.529624
_cell_angle_beta   97.523994
_cell_angle_gamma 103.00251
loop_
_atom_site_label
_atom_site_type_symbol
_atom_site_fract_x
_atom_site_fract_y
_atom_site_fract_z
_atom_type_partial_charge
C0 C 0.13841 0.33274 0.35639 0.0
O1 O 0.13821 0.32844 0.38725 0.0
O2 O 0.06764 0.30721 0.39186 0.0
Zn3 Zn 0.07255 0.34329 0.36639 0.0
O4 O 0.08034 0.38512 0.40118 0.0
C5 C 1.00108 0.32486 0.35235 0.0
O6 O 1.00645 0.31237 0.37872 0.0
O7 O 0.11463 0.3398 0.34183 0.0
C8 C 0.06036 0.39003 0.41867 0.0
O9 O 0.0364 0.36792 0.41681 0.0
C10 C 0.07565 0.30694 0.42258 0.0
O11 O 0.08945 0.33261 0.44226 0.0
O12 O 0.02445 0.33755 0.34009 0.0
C13 C 0.97764 0.77371 0.738 0.0
O14 O 0.97635 0.7737 0.70597 0.0
O15 O 0.03645 0.71711 0.69959 0.0
Zn16 Zn 0.04373 0.76202 0.72906 0.0
O17 O 0.04645 0.79249 0.69598 0.0
C18 C 0.11305 0.76149 0.74471 0.0
O19 O 0.10477 0.73997 0.71859 0.0
O20 O 1.00241 0.76925 0.75359 0.0
C21 C 0.06045 0.82027 0.70603 0.0
O22 O 0.07246 0.82858 0.7375 0.0
C23 C 0.04587 0.71309 0.67167 0.0
O24 O 0.05936 0.73729 0.66054 0.0
O25 O 0.09219 0.77312 0.75556 0.0
C26 C 0.63545 0.82235 0.85064 0.0
O27 O 0.63038 0.80751 0.87529 0.0
O28 O 0.56539 0.80463 0.89 0.0
Zn29 Zn 0.57259 0.84008 0.86373 0.0
O30 O 0.58054 0.88336 0.89628 0.0
C31 C 0.50171 0.82104 0.84922 0.0
O32 O 0.50637 0.80997 0.87666 0.0
O33 O 0.61508 0.83628 0.84025 0.0
C34 C 0.56434 0.88832 0.91847 0.0
O35 O 0.54314 0.86546 0.9227 0.0
C36 C 0.57932 0.80005 0.91683 0.0
O37 O 0.60313 0.82082 0.93256 0.0
O38 O 0.5252 0.83388 0.8373 0.0
C39 C 0.4745 0.26456 0.23603 0.0
O40 O 0.46825 0.25284 0.20435 0.0
O41 O 0.54011 0.21797 0.19674 0.0
Zn42 Zn 0.54387 0.26209 0.22609 0.0
O43 O 0.54649 0.29262 0.1936 0.0
C44 C 0.61394 0.27223 0.23817 0.0
O45 O 0.60742 0.26567 0.20565 0.0
O46 O 0.50245 0.26909 0.25036 0.0
C47 C 0.55753 0.32087 0.20453 0.0
O48 O 0.56734 0.32951 0.23651 0.0
C49 C 0.53449 0.21 0.16492 0.0
O50 O 0.52662 0.22932 0.14674 0.0
O51 O 0.5915 0.27267 0.25407 0.0
C52 C 0.03875 0.81162 0.14195 0.0
O53 O 0.03069 0.80983 0.10985 0.0
O54 O 0.09322 0.76977 0.10171 0.0
Zn55 Zn 0.09908 0.81881 0.12383 0.0
O56 O 0.09191 0.85886 0.09749 0.0
C57 C 0.16331 0.81891 0.15491 0.0
O58 O 0.16545 0.80733 0.1247 0.0
O59 O 0.06644 0.81553 0.15341 0.0
C60 C 0.09912 0.8876 0.11094 0.0
O61 O 0.11471 0.89441 0.14106 0.0
C62 C 0.08316 0.7504 0.07446 0.0
O63 O 0.07248 0.76056 0.04825 0.0
O64 O 0.13933 0.82726 0.15959 0.0
C65 C 0.57965 0.79294 0.44846 0.0
O66 O 0.58712 0.79115 0.47985 0.0
O67 O 0.52322 0.74101 0.48338 0.0
Zn68 Zn 0.5197 0.78643 0.46576 0.0
O69 O 0.53065 0.83431 0.49443 0.0
C70 C 0.45321 0.77686 0.43153 0.0
O71 O 0.44569 0.77169 0.46026 0.0
O72 O 0.55236 0.79115 0.43721 0.0
C73 C 0.51906 0.85555 0.48411 0.0
O74 O 0.49794 0.84729 0.45786 0.0
C75 C 0.52421 0.72903 0.51045 0.0
O76 O 0.52254 0.74634 0.53783 0.0
O77 O 0.48105 0.78234 0.429 0.0
C78 C 0.53981 0.31445 0.6473 0.0
O79 O 0.53136 0.31669 0.61623 0.0
O80 O 0.58492 0.2678 0.60131 0.0
Zn81 Zn 0.59719 0.31691 0.62493 0.0
O82 O 0.58739 0.35848 0.60331 0.0
C83 C 0.65966 0.31008 0.65702 0.0
O84 O 0.6579 0.29108 0.62969 0.0
O85 O 0.56696 0.31416 0.65679 0.0
C86 C 0.60222 0.38042 0.59027 0.0
O87 O 0.62892 0.37869 0.58438 0.0
C88 C 0.59643 0.25058 0.58197 0.0
O89 O 0.61909 0.26385 0.56873 0.0
O90 O 0.63881 0.32427 0.65937 0.0
C91 C 0.07768 0.29063 0.94807 0.0
O92 O 0.08569 0.28962 0.97958 0.0
O93 O 0.02708 0.24348 0.99011 0.0
Zn94 Zn 1.02009 0.28691 0.9693 0.0
O95 O 0.03476 0.33557 0.99548 0.0
C96 C 0.95447 0.26551 0.9251 0.0
O97 O 0.95053 0.23879 0.93455 0.0
O98 O 0.05028 0.28916 0.93746 0.0
C99 C 1.01932 0.35587 0.99273 0.0
O100 O 0.99145 0.34632 0.97751 0.0
C101 C 1.01022 0.21876 0.99691 0.0
O102 O 0.98144 0.21722 0.99444 0.0
O103 O 0.97912 0.28542 0.93685 0.0
C104 C 0.38224 0.08829 0.35404 0.0
O105 O 0.41106 0.09314 0.36472 0.0
O106 O 0.40735 0.0394 0.29108 0.0
Zn107 Zn 0.39051 0.03247 0.33208 0.0
O108 O 0.42381 0.03719 0.36787 0.0
C109 C 0.37879 0.97223 0.30842 0.0
O110 O 0.40663 0.98125 0.30393 0.0
O111 O 0.3672 0.06125 0.34328 0.0
C112 C 0.42917 0.0168 0.38386 0.0
O113 O 0.41066 0.98978 0.37818 0.0
C114 C 0.43511 0.0506 0.29228 0.0
O115 O 0.45167 0.06411 0.32092 0.0
O116 O 0.36603 0.99087 0.32245 0.0
C117 C 0.33304 0.1786 0.52184 0.0
O118 O 0.34095 0.2065 0.51578 0.0
O119 O 0.2894 0.22152 0.57324 0.0
Zn120 Zn 0.27811 0.1963 0.52492 0.0
O121 O 0.28672 0.21856 0.48418 0.0
C122 C 0.22138 0.16671 0.54343 0.0
O123 O 0.23428 0.18452 0.57155 0.0
O124 O 0.30619 0.16832 0.52596 0.0
C125 C 0.27718 0.24059 0.47454 0.0
O126 O 0.25929 0.25212 0.4917 0.0
C127 C 0.27983 0.24375 0.5859 0.0
O128 O 0.262 0.25504 0.56644 0.0
O129 O 0.23491 0.16851 0.51845 0.0
C130 C 0.18717 0.02771 0.82401 0.0
O131 O 0.17636 0.02726 0.85187 0.0
O132 O 0.12891 0.06862 0.76842 0.0
Zn133 Zn 0.15846 0.07832 0.81307 0.0
O134 O 0.13945 0.07155 0.85635 0.0
C135 C 0.18879 0.14607 0.82387 0.0
O136 O 0.16527 0.15105 0.83605 0.0
O137 O 0.18226 0.047 0.8058 0.0
C138 C 0.12167 0.08499 0.87 0.0
O139 O 0.1134 0.10684 0.8564 0.0
C140 C 0.12457 0.08875 0.75093 0.0
O141 O 0.13587 0.11752 0.76383 0.0
O142 O 0.18988 0.11875 0.81457 0.0
C143 C 0.27835 0.99005 0.98497 0.0
O144 O 0.26866 0.96129 0.97118 0.0
O145 O 0.32242 0.95321 0.04353 0.0
Zn146 Zn 0.33049 0.97233 0.00393 0.0
O147 O 0.32379 0.94083 0.96524 0.0
C148 C 0.39069 0.98531 0.03143 0.0
O149 O 0.38231 0.95846 0.04009 0.0
O150 O 0.3058 1.00022 0.9968 0.0
C151 C 0.34488 0.93235 0.9534 0.0
O152 O 0.37277 0.94666 0.96553 0.0
C153 C 0.31134 0.92491 0.04144 0.0
O154 O 0.2996 0.90855 0.01213 0.0
O155 O 0.37195 0.99564 0.01412 0.0
C156 C 0.27567 0.42089 0.0592 0.0
O157 O 0.26786 0.39455 0.06915 0.0
O158 O 0.32789 0.38808 0.10609 0.0
Zn159 Zn 0.33383 0.40617 0.06173 0.0
O160 O 0.32799 0.37589 0.01643 0.0
C161 C 0.39966 0.43548 0.07602 0.0
O162 O 0.40231 0.40971 0.08531 0.0
O163 O 0.30252 0.43034 0.05474 0.0
C164 C 0.34329 0.38493 0.99429 0.0
O165 O 0.36413 0.41048 1.00264 0.0
C166 C 0.33224 0.36293 0.11342 0.0
O167 O 0.34152 0.3454 0.09136 0.0
O168 O 0.37357 0.43874 0.0665 0.0
C169 C 0.84535 0.12041 0.09801 0.0
O170 O 0.85418 0.14914 0.11208 0.0
O171 O 0.79896 0.16249 0.13188 0.0
Zn172 Zn 0.79356 0.13793 0.08894 0.0
O173 O 0.80587 0.16658 0.0589 0.0
C174 C 0.73561 0.11049 0.09569 0.0
O175 O 0.74837 0.11247 0.12653 0.0
O176 O 0.81762 0.10859 0.08919 0.0
C177 C 0.79766 0.15763 0.02807 0.0
O178 O 0.78598 0.12849 0.01715 0.0
C179 C 0.78577 0.1838 0.13145 0.0
O180 O 0.76868 0.18548 0.10405 0.0
O181 O 0.75107 0.11898 0.07409 0.0
C182 C 0.23553 0.51641 0.2381 0.0
O183 O 0.20664 0.51086 0.22731 0.0
O184 O 0.19781 0.56708 0.21031 0.0
Zn185 Zn 0.22572 0.57218 0.25104 0.0
O186 O 0.20301 0.56419 0.28771 0.0
C187 C 0.23488 0.63365 0.27052 0.0
O188 O 0.20585 0.62523 0.26974 0.0
O189 O 0.25049 0.5438 0.24596 0.0
C190 C 0.21395 0.57711 0.31725 0.0
O191 O 0.24222 0.59223 0.32413 0.0
C192 C 0.17123 0.56868 0.21193 0.0
O193 O 0.16272 0.57448 0.2407 0.0
O194 O 0.24906 0.61413 0.26179 0.0
C195 C 0.77479 0.93169 0.56631 0.0
O196 O 0.76601 0.90735 0.57967 0.0
O197 O 0.82494 0.89461 0.60834 0.0
Zn198 Zn 0.82878 0.91044 0.56245 0.0
O199 O 0.81737 0.87992 0.51719 0.0
C200 C 0.89461 0.93613 0.57222 0.0
O201 O 0.89565 0.91192 0.58585 0.0
O202 O 0.80046 0.93712 0.5578 0.0
C203 C 0.83762 0.87077 0.50357 0.0
O204 O 0.86431 0.87594 0.5215 0.0
C205 C 0.82487 0.868 0.61471 0.0
O206 O 0.82824 0.84765 0.59082 0.0
O207 O 0.86908 0.94021 0.56184 0.0
C208 C 0.93294 0.0862 0.27541 0.0
O209 O 0.95763 0.09811 0.26468 0.0
O210 O 0.97291 0.02794 0.23611 0.0
Zn211 Zn 0.95445 0.02936 0.28079 0.0
O212 O 0.98277 0.04125 0.32649 0.0
C213 C 0.92315 0.96414 0.26699 0.0
O214 O 0.94193 0.96269 0.24599 0.0
O215 O 0.92865 0.05933 0.28192 0.0
C216 C 0.99237 0.02207 0.34207 0.0
O217 O 0.98749 0.99385 0.32707 0.0
C218 C 0.99457 0.04847 0.23051 0.0
O219 O 1.00831 0.07062 0.25499 0.0
O220 O 0.92435 0.98985 0.28368 0.0
C221 C 0.34684 0.62276 0.59956 0.0
O222 O 0.35338 0.65216 0.61048 0.0
O223 O 0.29852 0.66188 0.63011 0.0
Zn224 Zn 0.29139 0.63339 0.58842 0.0
O225 O 0.29787 0.65751 0.55121 0.0
C226 C 0.23016 0.61775 0.59109 0.0
O227 O 0.23682 0.6452 0.60844 0.0
O228 O 0.31967 0.6085 0.59113 0.0
C229 C 0.27468 0.66084 0.53368 0.0
O230 O 0.24809 0.6471 0.53857 0.0
C231 C 0.29368 0.68789 0.62899 0.0
O232 O 0.28354 0.69495 0.6006 0.0
O233 O 0.2506 0.60685 0.58062 0.0
C234 C 0.43108 0.57935 0.77246 0.0
O235 O 0.44246 0.58247 0.74521 0.0
O236 O 0.47369 0.53109 0.73265 0.0
Zn237 Zn 0.45796 0.52603 0.77796 0.0
O238 O 0.48855 0.52942 0.82197 0.0
C239 C 0.42618 0.45981 0.76505 0.0
O240 O 0.45136 0.45488 0.75716 0.0
O241 O 0.43598 0.55864 0.78863 0.0
C242 C 0.47782 0.51559 0.8445 0.0
O243 O 0.45059 0.49801 0.83668 0.0
C244 C 0.50022 0.53283 0.72652 0.0
O245 O 0.52094 0.53117 0.75067 0.0
O246 O 0.4244 0.4871 0.77278 0.0
C247 C 0.73615 0.01807 0.73785 0.0
O248 O 0.70725 1.01149 0.72673 0.0
O249 O 0.69583 0.06608 0.7112 0.0
Zn250 Zn 0.72343 0.07188 0.75222 0.0
O251 O 0.70049 0.06155 0.78808 0.0
C252 C 0.72654 0.13299 0.76322 0.0
O253 O 0.69764 0.12274 0.75297 0.0
O254 O 0.75031 0.04566 0.74646 0.0
C255 C 0.70971 0.07615 0.81727 0.0
O256 O 0.737 0.09375 0.82455 0.0
C257 C 0.66813 0.06273 0.71151 0.0
O258 O 0.65785 0.0635 0.7397 0.0
O259 O 0.74352 0.11484 0.76365 0.0
C260 C 0.83607 0.68276 0.03253 0.0
O261 O 0.84478 0.7126 0.03839 0.0
O262 O 0.78912 0.72008 0.07781 0.0
Zn263 Zn 0.77878 0.69728 0.02879 0.0
O264 O 0.78503 0.72504 0.99218 0.0
C265 C 0.72173 0.6671 0.04618 0.0
O266 O 0.73361 0.68569 0.0741 0.0
O267 O 0.80811 0.67032 0.02649 0.0
C268 C 0.7847 0.71335 0.96208 0.0
O269 O 0.77865 0.68357 0.95451 0.0
C270 C 0.7828 0.74458 0.08976 0.0
O271 O 0.76967 0.75918 0.06933 0.0
O272 O 0.73596 0.66863 0.02171 0.0
C273 C 0.88481 0.58765 0.85409 0.0
O274 O 0.91394 0.5928 0.86296 0.0
O275 O 0.90651 0.53453 0.7895 0.0
Zn276 Zn 0.89157 0.53071 0.83231 0.0
O277 O 0.92488 0.53549 0.86843 0.0
C278 C 0.87638 0.47099 0.80987 0.0
O279 O 0.90406 0.47913 0.80451 0.0
O280 O 0.86971 0.56072 0.84301 0.0
C281 C 0.93341 0.5148 0.88164 0.0
O282 O 0.91957 0.48609 0.87156 0.0
C283 C 0.93417 0.54443 0.78923 0.0
O284 O 0.95172 0.55912 0.81688 0.0
O285 O 0.8652 0.49038 0.8251 0.0
C286 C 0.78278 0.48724 0.49695 0.0
O287 O 0.77742 0.45851 0.48341 0.0
O288 O 0.82559 0.44978 0.54849 0.0
Zn289 Zn 0.83709 0.47587 0.51519 0.0
O290 O 0.83503 0.45124 0.47205 0.0
C291 C 0.89584 0.48891 0.54933 0.0
O292 O 0.88638 0.46199 0.55737 0.0
O293 O 0.80934 0.50128 0.51001 0.0
C294 C 0.85082 0.43236 0.46766 0.0
O295 O 0.87015 0.42951 0.49256 0.0
C296 C 0.8137 0.42145 0.54184 0.0
O297 O 0.8049 0.4082 0.51076 0.0
O298 O 0.87814 0.50008 0.53147 0.0
C299 C 0.67674 0.52134 0.30895 0.0
O300 O 0.64848 0.51267 0.31219 0.0
O301 O 0.63394 0.56845 0.26581 0.0
Zn302 Zn 0.66031 0.57812 0.31269 0.0
O303 O 0.6369 0.56693 0.35138 0.0
C304 C 0.69904 0.6321 0.29713 0.0
O305 O 0.69318 0.61381 0.26844 0.0
O306 O 0.68791 0.54948 0.30928 0.0
C307 C 0.62764 0.58494 0.37155 0.0
O308 O 0.63184 0.61354 0.36763 0.0
C309 C 0.62202 0.58675 0.25109 0.0
O310 O 0.62393 0.6139 0.26755 0.0
O311 O 0.68699 0.62243 0.32109 0.0
Tb312 Tb 0.09228 0.07008 0.06727 0.0
C313 C 1.00604 0.9605 0.97797 0.0
N314 N 1.01778 0.98996 0.97496 0.0
C315 C 0.027 0.9731 0.92033 0.0
C316 C 1.00571 0.93626 0.95281 0.0
C317 C 0.02622 0.99638 0.94551 0.0
C318 C 1.01739 0.9429 0.92431 0.0
C319 C 0.97854 0.92453 0.00824 0.0
C320 C 0.99293 0.9546 0.00566 0.0
C321 C 0.97877 0.90042 0.98356 0.0
C322 C 0.99244 0.90625 0.95602 0.0
Tb323 Tb 1.01571 0.02545 0.01913 0.0
N324 N 0.99313 0.97836 0.0293 0.0
C325 C 0.96354 0.91957 0.03504 0.0
C326 C 0.9769 0.97363 0.05444 0.0
C327 C 0.96238 0.9443 0.05797 0.0
H328 H 0.03109 0.01915 0.94016 0.0
H329 H 0.94978 0.94087 0.07805 0.0
H330 H 0.09194 0.08325 0.14914 0.0
H331 H 0.16006 0.13626 0.99321 0.0
H332 H 0.97388 0.99235 0.07134 0.0
H333 H 0.95199 0.89686 0.03766 0.0
H334 H 0.13095 0.0893 0.00798 0.0
H335 H 0.0342 0.9785 0.89742 0.0
H336 H 0.96788 0.87722 0.98519 0.0
H337 H 0.99183 0.88743 0.93681 0.0
H338 H 0.10578 0.12794 0.19385 0.0
H339 H 1.01741 0.92492 0.90441 0.0
H340 H 0.16888 0.18523 0.03112 0.0
N341 N 0.10469 0.10899 0.11155 0.0
C342 C 0.11859 0.13647 0.10491 0.0
C343 C 0.10897 0.13074 0.16879 0.0
C344 C 0.1266 0.16257 0.12955 0.0
C345 C 0.10094 0.10556 0.14338 0.0
C346 C 0.12099 0.15951 0.16164 0.0
N347 N 0.12061 0.11174 0.05181 0.0
C348 C 0.13334 0.11063 0.02379 0.0
C349 C 0.14421 0.1652 0.06717 0.0
C350 C 0.12719 0.13783 0.07412 0.0
C351 C 0.15553 0.16471 0.03731 0.0
C352 C 0.1505 0.13715 0.01578 0.0
H353 H 0.12692 0.1789 0.18137 0.0
H354 H 0.14643 0.21098 0.13981 0.0
H355 H 0.16259 0.21329 0.08559 0.0
O356 O 0.12455 0.04742 0.05434 0.0
O357 O 0.07202 0.10175 0.03976 0.0
O358 O 0.02147 0.07724 0.02862 0.0
O359 O 0.12941 0.07359 0.10414 0.0
O360 O 0.08785 0.04763 0.01533 0.0
O361 O 0.04369 0.05313 0.99015 0.0
O362 O 0.9735 0.02802 0.02864 0.0
O363 O 0.04863 0.9971 0.03179 0.0
O364 O 0.07494 0.02445 0.08113 0.0
O365 O 0.98088 0.01784 0.97838 0.0
O366 O 1.01841 0.02919 0.07338 0.0
O367 O 0.05539 0.07196 0.09568 0.0
C368 C 0.04364 0.10257 0.03142 0.0
C369 C 0.1685 0.04875 0.0933 0.0
C370 C 0.21109 0.03345 0.07603 0.0
C371 C 0.22404 0.0359 0.10932 0.0
C372 C 0.18117 0.05124 0.12669 0.0
C373 C 0.20891 0.04462 0.13463 0.0
C374 C 0.18336 0.03957 0.06817 0.0
C375 C 0.07194 0.05396 0.98971 0.0
C376 C 0.14041 0.05666 0.08397 0.0
C377 C 0.14118 0.19049 0.12173 0.0
C378 C 0.15021 0.19181 0.09071 0.0
C379 C 0.06562 0.99802 0.06068 0.0
C380 C 0.94257 0.04287 0.98761 0.0
C381 C 0.90842 0.07288 1.00313 0.0
C382 C 0.90087 0.07619 0.97004 0.0
C383 C 0.935 0.04595 0.95428 0.0
C384 C 0.92917 0.05653 0.0118 0.0
C385 C 0.9143 0.06275 0.94563 0.0
C386 C 0.03141 0.05129 0.09807 0.0
C387 C 0.9618 0.02311 0.99737 0.0
H388 H 0.24566 0.03104 0.11558 0.0
H389 H 0.16975 0.05832 0.14647 0.0
H390 H 0.21877 0.04648 0.16033 0.0
H391 H 0.17385 0.03808 0.04232 0.0
H392 H 0.88431 0.08854 0.96313 0.0
H393 H 0.9446 0.03499 0.93498 0.0
H394 H 0.93403 0.05372 0.03754 0.0
H395 H 0.90825 0.06487 0.91994 0.0
Tb396 Tb 0.28559 0.79798 0.33301 0.0
C397 C 0.35914 0.75176 0.21125 0.0
N398 N 0.36879 0.77396 0.23836 0.0
C399 C 0.41532 0.75939 0.24779 0.0
C400 C 0.37684 0.73176 0.20203 0.0
C401 C 0.3968 0.77842 0.25621 0.0
C402 C 0.40519 0.73576 0.22078 0.0
C403 C 0.31945 0.7248 0.16596 0.0
C404 C 0.33098 0.74849 0.19329 0.0
C405 C 0.33689 0.7047 0.1568 0.0
C406 C 0.36554 0.7082 0.17476 0.0
Tb407 Tb 0.33561 0.80186 0.252 0.0
N408 N 0.31408 0.76728 0.20422 0.0
C409 C 0.29047 0.72155 0.14917 0.0
C410 C 0.28602 0.76457 0.18714 0.0
C411 C 0.27381 0.74169 0.15967 0.0
H412 H 0.40518 0.79686 0.27683 0.0
H413 H 0.25139 0.73946 0.14677 0.0
H414 H 0.21499 0.80162 0.323 0.0
H415 H 0.37903 0.85848 0.43063 0.0
H416 H 0.27243 0.77943 0.19443 0.0
H417 H 0.28074 0.70356 0.12818 0.0
H418 H 0.35159 0.81599 0.38831 0.0
H419 H 0.43738 0.76292 0.2622 0.0
H420 H 0.32833 0.68623 0.13605 0.0
H421 H 0.3787 0.69243 0.16752 0.0
H422 H 0.18575 0.83747 0.34136 0.0
H423 H 0.41946 0.72085 0.21454 0.0
H424 H 0.35551 0.89983 0.4486 0.0
N425 N 0.25572 0.82691 0.35319 0.0
C426 C 0.26916 0.8512 0.37705 0.0
C427 C 0.20929 0.84179 0.35147 0.0
C428 C 0.2535 0.87254 0.38827 0.0
C429 C 0.22598 0.82155 0.34089 0.0
C430 C 0.22322 0.86768 0.37494 0.0
N431 N 0.31248 0.83286 0.37892 0.0
C432 C 0.34073 0.83372 0.39424 0.0
C433 C 0.31365 0.87926 0.41539 0.0
C434 C 0.29866 0.8544 0.39035 0.0
C435 C 0.34316 0.8811 0.42937 0.0
C436 C 0.35653 0.85789 0.41918 0.0
H437 H 0.21034 0.88349 0.38289 0.0
H438 H 0.25701 0.91477 0.42102 0.0
H439 H 0.30985 0.92071 0.44478 0.0
O440 O 0.28665 0.76397 0.36175 0.0
O441 O 0.2996 0.84308 0.32122 0.0
O442 O 0.33674 0.82864 0.29982 0.0
O443 O 0.24534 0.76549 0.33225 0.0
O444 O 0.32881 0.78384 0.33968 0.0
O445 O 0.36115 0.79956 0.30181 0.0
O446 O 0.33224 0.83601 0.22351 0.0
O447 O 0.31342 0.75484 0.25203 0.0
O448 O 0.29908 0.78124 0.28988 0.0
O449 O 0.37523 0.83002 0.24342 0.0
O450 O 0.28987 0.81213 0.24447 0.0
O451 O 0.25808 0.79827 0.28392 0.0
C452 C 0.32101 0.84858 0.3038 0.0
C453 C 0.24262 0.74595 0.38266 0.0
C454 C 0.24397 0.7285 0.43588 0.0
C455 C 0.21319 0.72687 0.43401 0.0
C456 C 0.21185 0.74397 0.3809 0.0
C457 C 0.19733 0.7348 0.40676 0.0
C458 C 0.25861 0.73877 0.41053 0.0
C459 C 0.35529 0.78781 0.32915 0.0
C460 C 0.25786 0.75259 0.35456 0.0
C461 C 0.26852 0.89787 0.41239 0.0
C462 C 0.29859 0.90126 0.4259 0.0
C463 C 0.29737 0.7544 0.27484 0.0
C464 C 0.3711 0.8483 0.19243 0.0
C465 C 0.36456 0.86675 0.14014 0.0
C466 C 0.39171 0.8608 0.13358 0.0
C467 C 0.39828 0.8422 0.18566 0.0
C468 C 0.35434 0.86057 0.16945 0.0
C469 C 0.40844 0.84842 0.15629 0.0
C470 C 0.26322 0.80764 0.25508 0.0
C471 C 0.36101 0.84426 0.22419 0.0
H472 H 0.20116 0.71854 0.45307 0.0
H473 H 0.19896 0.749 0.35942 0.0
H474 H 0.17357 0.73305 0.40526 0.0
H475 H 0.28239 0.74033 0.41211 0.0
H476 H 0.40002 0.866 0.11111 0.0
H477 H 0.41187 0.83308 0.20318 0.0
H478 H 0.33367 0.86601 0.17463 0.0
H479 H 0.42949 0.84399 0.15131 0.0
Tb480 Tb 0.52158 0.04963 0.5584 0.0
C481 C 0.61803 0.11132 0.47986 0.0
N482 N 0.59603 0.08488 0.47304 0.0
C483 C 0.58566 0.09197 0.4163 0.0
C484 C 0.62421 0.12921 0.45502 0.0
C485 C 0.5804 0.07475 0.44145 0.0
C486 C 0.6076 0.11928 0.42307 0.0
C487 C 0.65699 0.14821 0.5197 0.0
C488 C 0.63474 0.1206 0.51192 0.0
C489 C 0.66319 0.16578 0.49482 0.0
C490 C 0.64697 0.15626 0.46261 0.0
Tb491 Tb 0.59609 0.05744 0.51554 0.0
N492 N 0.62811 0.10334 0.5358 0.0
C493 C 0.67209 0.1576 0.55241 0.0
C494 C 0.64313 0.11209 0.56755 0.0
C495 C 0.66501 0.13954 0.57645 0.0
H496 H 0.56491 0.05274 0.43454 0.0
H497 H 0.67673 0.14654 0.60174 0.0
H498 H 0.5381 0.06183 0.64089 0.0
H499 H 0.42899 0.96917 0.47953 0.0
H500 H 0.63867 0.09789 0.58589 0.0
H501 H 0.6892 0.17876 0.55938 0.0
H502 H 0.46844 0.01725 0.49585 0.0
H503 H 0.57329 0.08371 0.39141 0.0
H504 H 0.68041 0.18691 0.5003 0.0
H505 H 0.65211 0.1701 0.44372 0.0
H506 H 0.53227 0.03158 0.68604 0.0
H507 H 0.61186 0.13231 0.40331 0.0
H508 H 0.42252 0.9321 0.51836 0.0
N509 N 0.51711 0.02458 0.60261 0.0
C510 C 0.49795 0.99641 0.59548 0.0
C511 C 0.52325 0.02107 0.66056 0.0
C512 C 0.49194 0.97888 0.6206 0.0
C513 C 0.52774 0.03786 0.63487 0.0
C514 C 0.50585 0.99114 0.6533 0.0
N515 N 0.4865 1.00523 0.54061 0.0
C516 C 0.46694 1.00018 0.51162 0.0
C517 C 0.45878 0.95956 0.55619 0.0
C518 C 0.48151 0.98675 0.56366 0.0
C519 C 0.44042 0.95266 0.525 0.0
C520 C 0.44408 0.97344 0.50292 0.0
H521 H 0.50173 0.97846 0.67335 0.0
H522 H 0.46599 0.93679 0.63164 0.0
H523 H 0.43695 0.91993 0.57526 0.0
O524 O 0.49026 0.07333 0.53906 0.0
O525 O 0.52894 1.00489 0.535 0.0
O526 O 0.57624 1.00873 0.51953 0.0
O527 O 0.48853 0.05687 0.58547 0.0
O528 O 0.52986 0.06174 0.51104 0.0
O529 O 0.55537 0.03414 0.4827 0.0
O530 O 0.6396 0.05085 0.52715 0.0
O531 O 0.58125 0.10059 0.5316 0.0
O532 O 0.55182 0.09605 0.57338 0.0
O533 O 0.61698 0.0431 0.47675 0.0
O534 O 0.59301 0.04196 0.5628 0.0
O535 O 0.56384 0.06536 0.59262 0.0
C536 C 0.55023 0.99227 0.525 0.0
C537 C 0.46376 0.09559 0.57861 0.0
C538 C 0.42386 0.12204 0.57318 0.0
C539 C 0.42869 0.13076 0.60773 0.0
C540 C 0.46895 0.10545 0.61321 0.0
C541 C 0.45136 0.12279 0.62759 0.0
C542 C 0.44151 0.10459 0.55858 0.0
C543 C 0.53056 0.04174 0.48593 0.0
C544 C 0.47629 0.0709 0.56439 0.0
C545 C 0.47074 0.95067 0.6127 0.0
C546 C 0.45414 0.94108 0.58059 0.0
C547 C 0.5685 0.11299 0.55548 0.0
C548 C 0.65307 0.0153 0.4875 0.0
C549 C 0.68772 0.98431 0.50087 0.0
C550 C 0.68065 0.96871 0.46814 0.0
C551 C 0.64631 0.99945 0.45465 0.0
C552 C 0.67411 1.00769 0.51053 0.0
C553 C 0.66001 0.9763 0.44514 0.0
C554 C 0.58887 0.05706 0.59021 0.0
C555 C 0.64085 0.04184 0.49617 0.0
H556 H 0.41504 0.14404 0.61928 0.0
H557 H 0.48566 0.09862 0.62938 0.0
H558 H 0.45496 0.12958 0.65425 0.0
H559 H 0.43703 0.09693 0.53197 0.0
H560 H 0.69136 0.95086 0.46036 0.0
H561 H 0.63088 1.00534 0.43602 0.0
H562 H 0.68043 0.02027 0.53555 0.0
H563 H 0.65489 0.96446 0.41978 0.0
Tb564 Tb 0.34168 0.28685 0.79719 0.0
C565 C 0.23666 0.33536 0.72485 0.0
N566 N 0.25743 0.34971 0.75186 0.0
C567 C 0.25962 0.39756 0.73314 0.0
C568 C 0.22671 0.35162 0.70067 0.0
C569 C 0.26884 0.38046 0.75637 0.0
C570 C 0.2385 0.38308 0.70511 0.0
C571 C 0.2047 0.28829 0.69299 0.0
C572 C 0.22574 0.30412 0.72114 0.0
C573 C 0.19478 0.30436 0.66881 0.0
C574 C 0.20564 0.33596 0.67272 0.0
Tb575 Tb 0.26951 0.31972 0.78907 0.0
N576 N 0.23622 0.28925 0.74485 0.0
C577 C 0.19411 0.25679 0.69008 0.0
C578 C 0.22446 0.25881 0.74294 0.0
C579 C 0.20382 0.24206 0.71536 0.0
H580 H 0.28399 0.392 0.77863 0.0
H581 H 0.19502 0.21784 0.71393 0.0
H582 H 0.32354 0.21479 0.80872 0.0
H583 H 0.4181 0.38755 0.87197 0.0
H584 H 0.23002 0.24722 0.76271 0.0
H585 H 0.17798 0.24377 0.66883 0.0
H586 H 0.38358 0.35829 0.82246 0.0
H587 H 0.26857 0.42195 0.73708 0.0
H588 H 0.17864 0.29256 0.64704 0.0
H589 H 0.1978 0.34805 0.65384 0.0
H590 H 0.33572 0.18513 0.85198 0.0
H591 H 0.2314 0.39639 0.68713 0.0
H592 H 0.43178 0.3619 0.91877 0.0
N593 N 0.35078 0.25689 0.83558 0.0
C594 C 0.37091 0.2711 0.86322 0.0
C595 C 0.34555 0.20935 0.85562 0.0
C596 C 0.37878 0.25497 0.88849 0.0
C597 C 0.33829 0.22634 0.83133 0.0
C598 C 0.3658 0.22373 0.88438 0.0
N599 N 0.37494 0.31688 0.84154 0.0
C600 C 0.38805 0.34695 0.84288 0.0
C601 C 0.40396 0.31775 0.8949 0.0
C602 C 0.38347 0.30206 0.8663 0.0
C603 C 0.41606 0.34898 0.89715 0.0
C604 C 0.40828 0.36356 0.87087 0.0
H605 H 0.37138 0.21049 0.90315 0.0
H606 H 0.40558 0.25847 0.93665 0.0
H607 H 0.42748 0.31346 0.94235 0.0
O608 O 0.37971 0.30031 0.77356 0.0
O609 O 0.32585 0.30184 0.84402 0.0
O610 O 0.30426 0.34058 0.83231 0.0
O611 O 0.36398 0.25388 0.78218 0.0
O612 O 0.34267 0.32736 0.77347 0.0
O613 O 0.3121 0.3547 0.79653 0.0
O614 O 0.23249 0.30532 0.81414 0.0
O615 O 0.285 0.30594 0.74214 0.0
O616 O 0.30861 0.26792 0.75155 0.0
O617 O 0.24721 0.35196 0.80575 0.0
O618 O 0.26971 0.27946 0.81314 0.0
O619 O 0.2989 0.25254 0.78728 0.0
C620 C 0.31673 0.32637 0.85375 0.0
C621 C 0.40779 0.26295 0.75547 0.0
C622 C 0.45074 0.27174 0.72634 0.0
C623 C 0.45319 0.24199 0.72823 0.0
C624 C 0.41086 0.23324 0.75691 0.0
C625 C 0.43334 0.2229 0.74333 0.0
C626 C 0.42782 0.28229 0.73983 0.0
C627 C 0.33551 0.35325 0.78191 0.0
C628 C 0.38362 0.27284 0.77057 0.0
C629 C 0.39927 0.27048 0.91697 0.0
C630 C 0.41175 0.3018 0.92021 0.0
C631 C 0.29621 0.2832 0.7311 0.0
C632 C 0.20407 0.34226 0.83304 0.0
C633 C 0.16263 0.3336 0.86434 0.0
C634 C 0.15795 0.36214 0.85985 0.0
C635 C 0.19887 0.37081 0.82908 0.0
C636 C 0.1859 0.3236 0.85101 0.0
C637 C 0.17603 0.38062 0.84244 0.0
C638 C 0.27654 0.25361 0.80357 0.0
C639 C 0.22807 0.33262 0.81745 0.0
H640 H 0.47052 0.23347 0.71778 0.0
H641 H 0.39587 0.21785 0.76866 0.0
H642 H 0.43542 0.19997 0.74458 0.0
H643 H 0.42579 0.30523 0.73836 0.0
H644 H 0.14033 0.37024 0.87013 0.0
H645 H 0.21235 0.38562 0.81536 0.0
H646 H 0.18961 0.30157 0.85441 0.0
H647 H 0.17226 0.40263 0.8392 0.0
Tb648 Tb 0.07171 0.01414 0.5446 0.0
C649 C 0.02309 0.12332 0.61044 0.0
N650 N 1.0097 0.10075 0.58451 0.0
C651 C 0.96306 0.0954 0.60495 0.0
C652 C 1.00722 0.13206 0.63542 0.0
C653 C 0.97977 0.08773 0.58075 0.0
C654 C 0.97697 0.11733 0.63273 0.0
C655 C 0.06717 0.16258 0.63715 0.0
C656 C 0.05268 0.13812 0.61146 0.0
C657 C 0.05177 0.17086 0.66262 0.0
C658 C 0.02189 0.15554 0.66183 0.0
Tb659 Tb 0.03955 0.08909 0.54729 0.0
N660 N 0.06734 0.12826 0.5874 0.0
C661 C 0.09688 0.17749 0.63672 0.0
C662 C 0.0954 0.14432 0.58548 0.0
C663 C 0.11088 0.16861 0.61045 0.0
H664 H 0.96848 0.07249 0.5584 0.0
H665 H 0.13342 0.18078 0.6091 0.0
H666 H 0.14339 0.03301 0.53621 0.0
H667 H 0.97377 0.94021 0.46334 0.0
H668 H 0.10555 0.13935 0.56419 0.0
H669 H 0.10894 0.19623 0.65609 0.0
H670 H 1.00023 0.97743 0.51195 0.0
H671 H 0.93937 0.08477 0.60186 0.0
H672 H 0.06271 0.18916 0.68293 0.0
H673 H 1.01017 0.16235 0.68146 0.0
H674 H 0.17482 0.01751 0.49671 0.0
H675 H 0.96395 0.12336 0.65137 0.0
H676 H 1.00221 0.9199 0.42295 0.0
N677 N 0.10313 1.00246 0.50972 0.0
C678 C 0.09035 0.98024 0.48323 0.0
C679 C 0.15108 1.00687 0.49263 0.0
C680 C 0.1076 0.97037 0.46033 0.0
C681 C 0.1331 0.01583 0.51478 0.0
C682 C 0.13831 0.98397 0.46536 0.0
N683 N 0.04354 0.97981 0.49982 0.0
C684 C 1.01312 0.96944 0.4949 0.0
C685 C 0.04527 0.94666 0.44981 0.0
C686 C 0.05957 0.96849 0.4781 0.0
C687 C 1.01406 0.93649 0.44448 0.0
C688 C 0.99794 0.94797 0.46714 0.0
H689 H 0.1523 0.97716 0.4482 0.0
H690 H 0.10646 0.93999 0.4149 0.0
H691 H 0.05187 0.91934 0.40563 0.0
O692 O 0.05773 0.97589 0.56744 0.0
O693 O 0.06057 0.02987 0.49658 0.0
O694 O 0.022 0.0516 0.50568 0.0
O695 O 0.10433 0.99466 0.56729 0.0
O696 O 0.03154 0.01587 0.56727 0.0
O697 O 1.00505 0.04542 0.54091 0.0
O698 O 0.05198 0.12259 0.5167 0.0
O699 O 0.05534 0.07792 0.59656 0.0
O700 O 0.08955 0.04893 0.5888 0.0
O701 O 1.00727 0.11101 0.52943 0.0
O702 O 0.08201 0.08931 0.52794 0.0
O703 O 0.10526 0.05748 0.55504 0.0
C704 C 0.0381 0.04109 0.48525 0.0
C705 C 0.09122 0.94438 0.58021 0.0
C706 C 0.08783 0.90092 0.60988 0.0
C707 C 0.1097 0.89206 0.59319 0.0
C708 C 0.11294 0.93484 0.56372 0.0
C709 C 0.12213 0.9089 0.57031 0.0
C710 C 0.07867 0.92726 0.60341 0.0
C711 C 1.00596 0.02197 0.55648 0.0
C712 C 0.08488 0.97429 0.57751 0.0
C713 C 0.09356 0.9479 0.43273 0.0
C714 C 0.06247 0.93615 0.42743 0.0
C715 C 0.07569 0.06411 0.60822 0.0
C716 C 1.01556 0.14992 0.49469 0.0
C717 C 0.02508 0.19526 0.46818 0.0
C718 C 0.9941 0.191 0.4589 0.0
C719 C 0.98466 0.14641 0.48509 0.0
C720 C 0.03594 0.1746 0.48618 0.0
C721 C 0.97409 0.16679 0.46734 0.0
C722 C 0.10621 0.08105 0.53975 0.0
C723 C 0.0255 0.12796 0.51422 0.0
H724 H 0.11759 0.87233 0.59836 0.0
H725 H 0.12345 0.94791 0.54646 0.0
H726 H 0.13935 0.90208 0.55803 0.0
H727 H 0.06256 0.93488 0.61706 0.0
H728 H 0.98536 0.20671 0.44528 0.0
H729 H 0.96852 0.12781 0.49131 0.0
H730 H 0.05984 0.17785 0.49364 0.0
H731 H 0.95023 0.16385 0.46018 0.0
Tb732 Tb 0.31142 0.83827 0.77824 0.0
C733 C 0.24965 0.74101 0.85716 0.0
N734 N 0.27655 0.76213 0.86457 0.0
C735 C 0.26902 0.7731 0.92102 0.0
C736 C 0.23135 0.73558 0.88155 0.0
C737 C 0.28672 0.77747 0.89634 0.0
C738 C 0.24122 0.75218 0.91362 0.0
C739 C 0.21311 0.70193 0.81697 0.0
C740 C 0.24054 0.72412 0.82508 0.0
C741 C 0.19498 0.69664 0.84132 0.0
C742 C 0.20405 0.71339 0.87345 0.0
Tb743 Tb 0.30342 0.76261 0.82191 0.0
N744 N 0.25836 0.72992 0.8017 0.0
C745 C 0.20486 0.68545 0.78467 0.0
C746 C 0.25104 0.71309 0.77064 0.0
C747 C 0.22397 0.69096 0.76148 0.0
H748 H 0.30884 0.7923 0.9036 0.0
H749 H 0.21814 0.67774 0.73673 0.0
H750 H 0.3038 0.81042 0.69588 0.0
H751 H 0.38419 0.93824 0.85357 0.0
H752 H 0.26636 0.71597 0.7533 0.0
H753 H 0.18402 0.66808 0.77754 0.0
H754 H 0.34198 0.89264 0.84089 0.0
H755 H 0.27718 0.7854 0.94602 0.0
H756 H 0.17391 0.67953 0.83559 0.0
H757 H 0.18984 0.70884 0.89198 0.0
H758 H 0.3338 0.81793 0.65202 0.0
H759 H 0.22781 0.74858 0.93303 0.0
H760 H 0.41649 0.95025 0.81149 0.0
N761 N 0.33622 0.84167 0.73378 0.0
C762 C 0.36151 0.86483 0.73957 0.0
C763 C 0.34216 0.83087 0.6767 0.0
C764 C 0.37828 0.87146 0.71412 0.0
C765 C 0.32557 0.82594 0.70226 0.0
C766 C 0.36884 0.85344 0.68274 0.0
N767 N 0.35289 0.87677 0.79461 0.0
C768 C 0.35738 0.8964 0.82369 0.0
C769 C 0.39298 0.91007 0.77589 0.0
C770 C 0.36933 0.88363 0.77043 0.0
C771 C 0.39859 0.92966 0.80637 0.0
C772 C 0.38064 0.92281 0.83034 0.0
H773 H 0.38119 0.85774 0.6626 0.0
H774 H 0.41619 0.90205 0.70096 0.0
H775 H 0.42872 0.9361 0.75481 0.0
O776 O 0.2908 0.8716 0.79878 0.0
O777 O 0.35678 0.83013 0.79813 0.0
O778 O 0.35167 0.78645 0.82362 0.0
O779 O 0.30009 0.86884 0.74865 0.0
O780 O 0.30031 0.82876 0.8256 0.0
O781 O 0.32637 0.80346 0.85569 0.0
O782 O 0.31463 0.72149 0.80495 0.0
O783 O 0.26029 0.7769 0.80539 0.0
O784 O 0.26488 0.80872 0.76531 0.0
O785 O 0.31417 0.73587 0.85663 0.0
O786 O 0.31878 0.76937 0.77563 0.0
O787 O 0.29318 0.79556 0.74523 0.0
C788 C 0.36858 0.81029 0.81353 0.0
C789 C 0.26072 0.89099 0.75952 0.0
C790 C 0.23061 0.92809 0.76359 0.0
C791 C 0.2135 0.91389 0.73256 0.0
C792 C 0.24291 0.87658 0.72887 0.0
C793 C 0.21949 0.88812 0.71548 0.0
C794 C 0.25423 0.91652 0.77697 0.0
C795 C 0.32017 0.82895 0.85092 0.0
C796 C 0.28857 0.88272 0.77124 0.0
C797 C 0.40304 0.89672 0.72022 0.0
C798 C 0.41012 0.91619 0.75085 0.0
C799 C 0.24815 0.7908 0.78242 0.0
C800 C 0.34831 0.70643 0.84476 0.0
C801 C 0.37972 0.67097 0.83581 0.0
C802 C 0.3966 0.68282 0.86747 0.0
C803 C 0.36591 0.71828 0.87626 0.0
C804 C 0.35566 0.68292 0.82434 0.0
C805 C 0.38984 0.7065 0.88744 0.0
C806 C 0.30182 0.77076 0.74858 0.0
C807 C 0.32049 0.71597 0.835 0.0
H808 H 0.19528 0.92258 0.72171 0.0
H809 H 0.24766 0.85703 0.71478 0.0
H810 H 0.20619 0.87728 0.6916 0.0
H811 H 0.26825 0.92805 0.80031 0.0
H812 H 0.41507 0.67368 0.87673 0.0
H813 H 0.36082 0.73619 0.89275 0.0
H814 H 0.34215 0.67325 0.8002 0.0
H815 H 0.40292 0.71545 0.91188 0.0
Tb816 Tb 0.56167 0.0755 0.00844 0.0
C817 C 0.60845 1.0029 0.124 0.0
N818 N 0.58365 0.99118 0.10083 0.0
C819 C 0.59768 0.94371 0.09228 0.0
C820 C 0.62983 0.98617 0.1311 0.0
C821 C 0.57723 0.96142 0.08629 0.0
C822 C 0.62452 0.9564 0.11421 0.0
C823 C 0.63483 0.04325 0.16867 0.0
C824 C 0.61111 0.03106 0.14197 0.0
C825 C 0.65758 0.02793 0.17445 0.0
C826 C 0.6551 0.99937 0.15557 0.0
Tb827 Tb 0.55527 0.0241 0.08673 0.0
N828 N 0.58864 0.04496 0.1352 0.0
C829 C 0.63383 0.06926 0.18994 0.0
C830 C 0.58584 0.06815 0.1581 0.0
C831 C 0.60855 0.08089 0.18548 0.0
H832 H 0.55608 0.95109 0.07046 0.0
H833 H 0.60636 0.0994 0.20342 0.0
H834 H 0.55852 0.14707 0.02989 0.0
H835 H 0.48258 0.98215 0.92268 0.0
H836 H 0.56597 0.07667 0.15602 0.0
H837 H 0.65137 0.07921 0.21108 0.0
H838 H 0.52227 1.00413 0.96929 0.0
H839 H 0.59264 0.92028 0.08013 0.0
H840 H 0.67638 0.03726 0.19439 0.0
H841 H 0.67213 0.98718 0.16105 0.0
H842 H 0.53018 0.18208 0.0089 0.0
H843 H 0.64032 0.94267 0.11892 0.0
H844 H 0.45654 0.01509 0.89366 0.0
N845 N 0.53628 0.1097 0.9917 0.0
C846 C 0.51475 0.0994 0.96434 0.0
C847 C 0.52563 0.15889 0.99613 0.0
C848 C 0.49781 0.11864 0.95177 0.0
C849 C 0.5415 0.13888 0.00807 0.0
C850 C 0.50382 0.14881 0.96774 0.0
N851 N 0.52274 0.05039 0.96594 0.0
C852 C 0.51321 0.0195 0.95631 0.0
C853 C 0.48365 0.05668 0.92444 0.0
C854 C 0.50793 0.06879 0.95072 0.0
C855 C 0.47514 0.02526 0.91364 0.0
C856 C 0.48978 1.00661 0.92994 0.0
H857 H 0.4913 0.16428 0.95881 0.0
H858 H 0.46147 0.1214 0.9145 0.0
H859 H 0.44897 0.0671 0.8907 0.0
O860 O 0.59242 0.07042 0.97651 0.0
O861 O 0.51582 0.0644 0.01577 0.0
O862 O 0.53693 0.03635 0.04285 0.0
O863 O 0.58849 0.11486 0.99667 0.0
O864 O 0.5714 0.02902 0.99914 0.0
O865 O 0.55381 0.99675 0.03673 0.0
O866 O 0.51959 0.02647 0.11236 0.0
O867 O 0.5993 0.03659 0.07374 0.0
O868 O 0.59085 0.0781 0.05504 0.0
O869 O 0.52538 0.98335 0.09087 0.0
O870 O 0.5502 0.07226 0.09889 0.0
O871 O 0.56226 0.10299 0.05794 0.0
C872 C 0.51259 0.04499 0.03535 0.0
C873 C 0.59974 0.10761 0.94254 0.0
C874 C 0.62025 0.10451 0.89165 0.0
C875 C 0.60231 0.1227 0.87914 0.0
C876 C 0.58212 0.12635 0.93038 0.0
C877 C 0.58324 0.13358 0.89857 0.0
C878 C 0.61838 0.09655 0.92292 0.0
C879 C 0.56559 1.00181 0.0092 0.0
C880 C 0.60001 0.09939 0.9756 0.0
C881 C 0.47467 0.10694 0.92454 0.0
C882 C 0.46759 0.07603 0.91093 0.0
C883 C 0.60884 0.06048 0.0604 0.0
C884 C 0.50877 0.98661 0.14267 0.0
C885 C 0.49335 0.99362 0.19643 0.0
C886 C 0.50266 0.96787 0.20399 0.0
C887 C 0.51841 0.96094 0.1504 0.0
C888 C 0.49629 1.00283 0.16589 0.0
C889 C 0.51531 0.95166 0.18101 0.0
C890 C 0.55405 0.09878 0.08733 0.0
C891 C 0.51158 0.99717 0.11088 0.0
H892 H 0.60378 0.12922 0.85497 0.0
H893 H 0.5678 0.13561 0.94533 0.0
H894 H 0.56977 0.14808 0.88924 0.0
H895 H 0.63218 0.08228 0.93239 0.0
H896 H 0.50002 0.96032 0.2275 0.0
H897 H 0.52823 0.94802 0.13293 0.0
H898 H 0.48854 0.02252 0.16012 0.0
H899 H 0.52256 0.9318 0.18684 0.0
Tb900 Tb 0.28787 0.26381 0.27486 0.0
C901 C 0.39312 0.36833 0.3576 0.0
N902 N 0.36683 0.3498 0.36161 0.0
C903 C 0.38687 0.35156 0.41891 0.0
C904 C 0.417 0.3794 0.38437 0.0
C905 C 0.3635 0.34163 0.392 0.0
C906 C 0.41364 0.37069 0.41517 0.0
C907 C 0.42274 0.39668 0.32215 0.0
C908 C 0.39585 0.37731 0.32679 0.0
C909 C 0.4462 0.40804 0.349 0.0
C910 C 0.44316 0.39957 0.37995 0.0
Tb911 Tb 0.32884 0.3455 0.31853 0.0
N912 N 0.37218 0.36718 0.30151 0.0
C913 C 0.42518 0.40437 0.29073 0.0
C914 C 0.37421 0.37561 0.27114 0.0
C915 C 0.40086 0.39358 0.26506 0.0
H916 H 0.34249 0.32948 0.39691 0.0
H917 H 0.40219 0.40014 0.2409 0.0
H918 H 0.28058 0.2714 0.19374 0.0
H919 H 0.20813 0.20716 0.34367 0.0
H920 H 0.35506 0.37045 0.25215 0.0
H921 H 0.44555 0.41901 0.2862 0.0
H922 H 0.25836 0.23221 0.33393 0.0
H923 H 0.38376 0.34542 0.44293 0.0
H924 H 0.46678 0.42345 0.34613 0.0
H925 H 0.4611 0.40891 0.40043 0.0
H926 H 0.23972 0.26811 0.14868 0.0
H927 H 0.43132 0.37903 0.43639 0.0
H928 H 0.16361 0.20349 0.30176 0.0
N929 N 0.25223 0.26234 0.23003 0.0
C930 C 0.22349 0.25068 0.23416 0.0
C931 C 0.23481 0.26397 0.17287 0.0
C932 C 0.19925 0.24692 0.20828 0.0
C933 C 0.25811 0.26695 0.19911 0.0
C934 C 0.20523 0.25467 0.17769 0.0
N935 N 0.24232 0.24392 0.28795 0.0
C936 C 0.23905 0.23127 0.3159 0.0
C937 C 0.18934 0.22631 0.26813 0.0
C938 C 0.21844 0.24042 0.26368 0.0
C939 C 0.18561 0.21467 0.29751 0.0
C940 C 0.21066 0.21675 0.32126 0.0
H941 H 0.18733 0.25233 0.15719 0.0
H942 H 0.151 0.23249 0.19427 0.0
H943 H 0.14245 0.21334 0.246 0.0
O944 O 0.29279 0.2228 0.28859 0.0
O945 O 0.25756 0.28918 0.29914 0.0
O946 O 0.27879 0.34087 0.31254 0.0
O947 O 0.27889 0.22547 0.23748 0.0
O948 O 0.31027 0.26886 0.32651 0.0
O949 O 0.30558 0.31528 0.34911 0.0
O950 O 0.33352 0.39103 0.3132 0.0
O951 O 0.36183 0.31726 0.30514 0.0
O952 O 0.33621 0.27335 0.26857 0.0
O953 O 0.33036 0.37727 0.36076 0.0
O954 O 0.30728 0.34166 0.26651 0.0
O955 O 0.31099 0.29448 0.2446 0.0
C956 C 0.25505 0.31731 0.30849 0.0
C957 C 0.30787 0.19084 0.2488 0.0
C958 C 0.34052 0.15962 0.26575 0.0
C959 C 0.34731 0.15495 0.23365 0.0
C960 C 0.31435 0.18624 0.21639 0.0
C961 C 0.33413 0.16832 0.20894 0.0
C962 C 0.32092 0.17726 0.27312 0.0
C963 C 0.30553 0.28698 0.35161 0.0
C964 C 0.28689 0.20859 0.25811 0.0
C965 C 0.16999 0.2345 0.21334 0.0
C966 C 0.16507 0.22382 0.24297 0.0
C967 C 0.36192 0.29243 0.28397 0.0
C968 C 0.31238 0.41964 0.35098 0.0
C969 C 0.28105 0.45127 0.33156 0.0
C970 C 0.27751 0.46092 0.36415 0.0
C971 C 0.30909 0.42934 0.38378 0.0
C972 C 0.2982 0.43069 0.32499 0.0
C973 C 0.2915 0.44981 0.39026 0.0
C974 C 0.30981 0.3223 0.24113 0.0
C975 C 0.33206 0.39962 0.34419 0.0
H976 H 0.3621 0.14056 0.22766 0.0
H977 H 0.30411 0.19623 0.19694 0.0
H978 H 0.33896 0.16452 0.18397 0.0
H979 H 0.31547 0.17994 0.29801 0.0
H980 H 0.26456 0.47742 0.36934 0.0
H981 H 0.32035 0.42137 0.40431 0.0
H982 H 0.30101 0.42405 0.29957 0.0
H983 H 0.28915 0.45742 0.41555 0.0
Tb984 Tb 0.57171 0.51327 0.04166 0.0
C985 C 0.52252 0.62284 0.10747 0.0
N986 N 0.50954 0.59984 0.08185 0.0
C987 C 0.46309 0.59311 0.10281 0.0
C988 C 0.50655 0.63131 0.13244 0.0
C989 C 0.4799 0.58561 0.07862 0.0
C990 C 0.47656 0.61581 0.13007 0.0
C991 C 0.56633 0.66245 0.13419 0.0
C992 C 0.55195 0.63802 0.10845 0.0
C993 C 0.55079 0.6706 0.15959 0.0
C994 C 0.52097 0.655 0.15875 0.0
Tb995 Tb 0.53993 0.58781 0.04545 0.0
N996 N 0.56665 0.62839 0.0844 0.0
C997 C 0.59601 0.6775 0.13383 0.0
C998 C 0.59469 0.64451 0.08253 0.0
C999 C 0.61008 0.6688 0.10754 0.0
H1000 H 0.4689 0.5688 0.05718 0.0
H1001 H 0.63264 0.681 0.1063 0.0
H1002 H 0.64146 0.53369 0.02664 0.0
H1003 H 0.47088 0.43546 0.97119 0.0
H1004 H 0.60499 0.63938 0.06137 0.0
H1005 H 0.60799 0.69622 0.15327 0.0
H1006 H 0.50089 0.47156 0.01955 0.0
H1007 H 0.4397 0.5815 0.10029 0.0
H1008 H 0.56159 0.68894 0.1799 0.0
H1009 H 0.50918 0.66162 0.17839 0.0
H1010 H 0.66904 0.52071 0.98188 0.0
H1011 H 0.4635 0.62155 0.14878 0.0
H1012 H 0.4946 0.42087 0.92329 0.0
N1013 N 0.5998 0.50438 1.00204 0.0
C1014 C 0.58507 0.48335 0.97512 0.0
C1015 C 0.64539 0.5102 0.97959 0.0
C1016 C 0.6 0.47524 0.94902 0.0
C1017 C 0.6296 0.51775 0.00476 0.0
C1018 C 0.63055 0.48889 0.95159 0.0
N1019 N 0.54069 0.47977 0.99854 0.0
C1020 C 0.5113 0.46657 0.99853 0.0
C1021 C 0.53843 0.44948 0.94531 0.0
C1022 C 0.55458 0.47065 0.97328 0.0
C1023 C 0.50784 0.43717 0.94437 0.0
C1024 C 0.49433 0.44548 0.97128 0.0
H1025 H 0.64286 0.48317 0.93211 0.0
H1026 H 0.59506 0.44751 0.90085 0.0
H1027 H 0.54122 0.42502 0.89759 0.0
O1028 O 0.55855 0.47336 0.06318 0.0
O1029 O 0.56084 0.53118 0.99483 0.0
O1030 O 0.52105 0.54883 0.0063 0.0
O1031 O 0.60464 0.49094 0.05636 0.0
O1032 O 0.53296 0.51406 0.06657 0.0
O1033 O 0.50672 0.54401 0.04086 0.0
O1034 O 0.55184 0.61945 0.01328 0.0
O1035 O 0.55725 0.57837 0.09508 0.0
O1036 O 0.58812 0.54491 0.08861 0.0
O1037 O 0.50677 0.60626 0.0229 0.0
O1038 O 0.58277 0.58749 0.02724 0.0
O1039 O 0.606 0.55599 0.05486 0.0
C1040 C 0.53643 0.53956 0.98454 0.0
C1041 C 0.59545 0.44477 0.08026 0.0
C1042 C 0.59011 0.40447 0.11428 0.0
C1043 C 0.61614 0.39762 0.10504 0.0
C1044 C 0.62146 0.43734 0.07154 0.0
C1045 C 0.63163 0.4139 0.08379 0.0
C1046 C 0.57954 0.42809 0.10172 0.0
C1047 C 0.50806 0.52248 0.05897 0.0
C1048 C 0.58581 0.47001 0.06662 0.0
C1049 C 0.58396 0.45405 0.92117 0.0
C1050 C 0.55328 0.44126 0.91929 0.0
C1051 C 0.57625 0.5632 0.10723 0.0
C1052 C 0.52201 0.6556 0.00935 0.0
C1053 C 0.53009 0.70268 0.98594 0.0
C1054 C 0.50953 0.71228 0.00425 0.0
C1055 C 0.502 0.66614 0.02803 0.0
C1056 C 0.53639 0.67429 0.98856 0.0
C1057 C 0.49579 0.69422 0.02533 0.0
C1058 C 0.60699 0.5805 0.04118 0.0
C1059 C 0.52504 0.62398 0.00836 0.0
H1060 H 0.62457 0.3796 0.11447 0.0
H1061 H 0.63397 0.44961 0.05501 0.0
H1062 H 0.65169 0.40839 0.07685 0.0
H1063 H 0.55955 0.43366 0.10891 0.0
H1064 H 0.50423 0.73393 1.00232 0.0
H1065 H 0.49051 0.65239 0.04413 0.0
H1066 H 0.55168 0.66643 0.9738 0.0
H1067 H 0.47998 0.70187 0.03937 0.0
Tb1068 Tb 0.81226 0.34133 0.2757 0.0
C1069 C 0.75378 0.24317 0.36022 0.0
N1070 N 0.77925 0.266 0.36654 0.0
C1071 C 0.7738 0.27542 0.42383 0.0
C1072 C 0.73715 0.23579 0.38557 0.0
C1073 C 0.78966 0.28182 0.39798 0.0
C1074 C 0.7474 0.25238 0.4176 0.0
C1075 C 0.71848 0.20265 0.32088 0.0
C1076 C 0.74461 0.22664 0.32829 0.0
C1077 C 0.70182 0.19536 0.34605 0.0
C1078 C 0.71116 0.21183 0.37831 0.0
Tb1079 Tb 0.80473 0.27061 0.323 0.0
N1080 N 0.76132 0.23418 0.30449 0.0
C1081 C 0.71008 0.18648 0.28848 0.0
C1082 C 0.75407 0.21742 0.27339 0.0
C1083 C 0.72808 0.19379 0.26469 0.0
H1084 H 0.81082 0.29846 0.40375 0.0
H1085 H 0.7223 0.18079 0.23983 0.0
H1086 H 0.80666 0.31268 0.19508 0.0
H1087 H 0.90072 0.42283 0.36291 0.0
H1088 H 0.76864 0.22143 0.25553 0.0
H1089 H 0.69013 0.16793 0.28177 0.0
H1090 H 0.84989 0.37384 0.31148 0.0
H1091 H 0.78228 0.28788 0.4487 0.0
H1092 H 0.68175 0.17693 0.34086 0.0
H1093 H 0.69817 0.2058 0.3975 0.0
H1094 H 0.8371 0.32099 0.15127 0.0
H1095 H 0.73536 0.24728 0.43779 0.0
H1096 H 0.93205 0.43533 0.32079 0.0
N1097 N 0.83888 0.34375 0.23301 0.0
C1098 C 0.86539 0.36531 0.24007 0.0
C1099 C 0.84547 0.33332 0.17622 0.0
C1100 C 0.88298 0.37156 0.21528 0.0
C1101 C 0.82854 0.32811 0.20146 0.0
C1102 C 0.87279 0.35511 0.18313 0.0
N1103 N 0.85721 0.37436 0.29718 0.0
C1104 C 0.8656 0.38936 0.33021 0.0
C1105 C 0.90219 0.40338 0.28064 0.0
C1106 C 0.87504 0.3813 0.27239 0.0
C1107 C 0.91107 0.4182 0.31352 0.0
C1108 C 0.89315 0.4111 0.33763 0.0
H1109 H 0.88567 0.3593 0.1634 0.0
H1110 H 0.92383 0.39934 0.20457 0.0
H1111 H 0.94069 0.42706 0.26174 0.0
O1112 O 0.79822 0.38152 0.28957 0.0
O1113 O 0.85512 0.32507 0.28756 0.0
O1114 O 0.85067 0.30155 0.33362 0.0
O1115 O 0.80179 0.36662 0.23915 0.0
O1116 O 0.79859 0.34234 0.32438 0.0
O1117 O 0.82385 0.31443 0.35343 0.0
O1118 O 0.82157 0.23239 0.307 0.0
O1119 O 0.7603 0.28239 0.30774 0.0
O1120 O 0.76499 0.31319 0.26678 0.0
O1121 O 0.82168 0.24849 0.35932 0.0
O1122 O 0.81769 0.27135 0.27449 0.0
O1123 O 0.79125 0.29801 0.24498 0.0
C1124 C 0.86758 0.3147 0.31337 0.0
C1125 C 0.76871 0.39843 0.24693 0.0
C1126 C 0.73651 0.43335 0.25464 0.0
C1127 C 0.72497 0.42634 0.22061 0.0
C1128 C 0.75661 0.39167 0.21285 0.0
C1129 C 0.73495 0.40559 0.19989 0.0
C1130 C 0.75849 0.41948 0.26784 0.0
C1131 C 0.81493 0.33927 0.35134 0.0
C1132 C 0.79475 0.38703 0.25934 0.0
C1133 C 0.91006 0.3941 0.22332 0.0
C1134 C 0.91965 0.40992 0.2559 0.0
C1135 C 0.74817 0.29576 0.28426 0.0
C1136 C 0.84272 0.20537 0.34852 0.0
C1137 C 0.86817 0.16494 0.33757 0.0
C1138 C 0.87201 0.16296 0.37153 0.0
C1139 C 0.84664 0.20278 0.38236 0.0
C1140 C 0.8537 0.1864 0.32606 0.0
C1141 C 0.86126 0.18176 0.39372 0.0
C1142 C 0.80133 0.27387 0.24734 0.0
C1143 C 0.82873 0.22912 0.33777 0.0
H1144 H 0.70816 0.43701 0.2101 0.0
H1145 H 0.7644 0.3762 0.1959 0.0
H1146 H 0.72609 0.40049 0.1736 0.0
H1147 H 0.76785 0.42543 0.29401 0.0
H1148 H 0.88354 0.14689 0.3809 0.0
H1149 H 0.83866 0.21725 0.40025 0.0
H1150 H 0.85108 0.18828 0.29995 0.0
H1151 H 0.86439 0.18013 0.41985 0.0
Tb1152 Tb 0.05992 0.57743 0.50357 0.0
C1153 C 0.10373 0.50276 0.6248 0.0
N1154 N 0.08108 0.49312 0.59861 0.0
C1155 C 0.09083 0.44355 0.59194 0.0
C1156 C 0.12102 0.48312 0.63562 0.0
C1157 C 0.07455 0.46398 0.58192 0.0
C1158 C 0.11413 0.45312 0.61897 0.0
C1159 C 0.13564 0.54455 0.66504 0.0
C1160 C 0.1108 0.53297 0.63932 0.0
C1161 C 0.15237 0.52492 0.6767 0.0
C1162 C 0.1451 0.49426 0.66198 0.0
Tb1163 Tb 0.05545 0.52777 0.58406 0.0
N1164 N 0.09494 0.55146 0.6262 0.0
C1165 C 0.14375 0.57573 0.67726 0.0
C1166 C 0.10428 0.58223 0.63667 0.0
C1167 C 0.12822 0.59468 0.66268 0.0
H1168 H 0.05649 0.4562 0.56108 0.0
H1169 H 0.13514 0.61904 0.67091 0.0
H1170 H 0.06134 0.65109 0.51922 0.0
H1171 H 1.00581 0.4937 0.39396 0.0
H1172 H 0.09451 0.5978 0.62451 0.0
H1173 H 0.16267 0.58553 0.69697 0.0
H1174 H 0.04491 0.51659 0.44189 0.0
H1175 H 0.08544 0.42044 0.57875 0.0
H1176 H 0.17147 0.53341 0.69644 0.0
H1177 H 0.15864 0.47952 0.67066 0.0
H1178 H 0.03297 0.68581 0.49718 0.0
H1179 H 0.12691 0.43733 0.62647 0.0
H1180 H 0.96737 0.52066 0.37668 0.0
N1181 N 0.03535 0.61198 0.48548 0.0
C1182 C 1.01284 0.60121 0.45918 0.0
C1183 C 0.02659 0.66185 0.48683 0.0
C1184 C 0.9948 0.61978 0.4473 0.0
C1185 C 0.04276 0.6421 0.49904 0.0
C1186 C 1.00186 0.65045 0.46167 0.0
N1187 N 0.02782 0.55541 0.45454 0.0
C1188 C 0.02785 0.52833 0.43603 0.0
C1189 C 0.98617 0.55977 0.4153 0.0
C1190 C 1.00886 0.57185 0.44314 0.0
C1191 C 0.98439 0.53077 0.39825 0.0
C1192 C 1.00592 0.51541 0.40808 0.0
H1193 H 0.98895 0.66566 0.45286 0.0
H1194 H 0.9565 0.62111 0.41182 0.0
H1195 H 0.94869 0.56827 0.38398 0.0
O1196 O 0.09324 0.57229 0.47501 0.0
O1197 O 1.01269 0.5579 0.50476 0.0
O1198 O 0.03848 0.54277 0.54206 0.0
O1199 O 0.09101 0.61662 0.49771 0.0
O1200 O 0.06866 0.53028 0.49655 0.0
O1201 O 0.04811 0.4995 0.53393 0.0
O1202 O 0.02543 0.53139 0.61704 0.0
O1203 O 0.0989 0.53877 0.57015 0.0
O1204 O 0.08713 0.57872 0.55109 0.0
O1205 O 0.02299 0.48836 0.58689 0.0
O1206 O 0.04659 0.57411 0.59533 0.0
O1207 O 0.05385 0.60386 0.55212 0.0
C1208 C 1.01199 0.54224 0.52823 0.0
C1209 C 0.10685 0.61235 0.44565 0.0
C1210 C 0.13061 0.6114 0.39688 0.0
C1211 C 0.11458 0.63133 0.3848 0.0
C1212 C 0.09077 0.6324 0.43357 0.0
C1213 C 0.09471 0.64184 0.40322 0.0
C1214 C 0.12676 0.60199 0.42719 0.0
C1215 C 0.06032 0.5034 0.50671 0.0
C1216 C 0.10329 0.6015 0.47708 0.0
C1217 C 0.97105 0.6074 0.42079 0.0
C1218 C 0.96664 0.57735 0.40491 0.0
C1219 C 0.10611 0.56178 0.55476 0.0
C1220 C 1.01086 0.48804 0.64085 0.0
C1221 C 0.99415 0.48884 0.69398 0.0
C1222 C 1.00612 0.4641 0.69963 0.0
C1223 C 0.02313 0.46336 0.64648 0.0
C1224 C 0.99634 0.5005 0.66464 0.0
C1225 C 0.02068 0.45145 0.67585 0.0
C1226 C 0.0475 0.59989 0.58266 0.0
C1227 C 1.01341 0.50225 0.61125 0.0
H1228 H 0.11758 0.63881 0.36132 0.0
H1229 H 0.07529 0.64083 0.44738 0.0
H1230 H 0.08238 0.65733 0.39402 0.0
H1231 H 0.13924 0.58649 0.43633 0.0
H1232 H 1.00427 0.45477 0.72232 0.0
H1233 H 0.03458 0.45336 0.62844 0.0
H1234 H 0.98675 0.51951 0.66038 0.0
H1235 H 0.0301 0.43246 0.68019 0.0
Tb1236 Tb 0.8451 0.78568 0.29867 0.0
C1237 C 0.74385 0.83643 0.22836 0.0
N1238 N 0.76452 0.85028 0.25569 0.0
C1239 C 0.77071 0.89777 0.23537 0.0
C1240 C 0.73622 0.85265 0.20308 0.0
C1241 C 0.77764 0.8807 0.25972 0.0
C1242 C 0.75004 0.88367 0.20683 0.0
C1243 C 0.70912 0.79039 0.19762 0.0
C1244 C 0.73051 0.80571 0.22564 0.0
C1245 C 0.7019 0.80628 0.17203 0.0
C1246 C 0.71531 0.83736 0.17482 0.0
Tb1247 Tb 0.77333 0.82002 0.294 0.0
N1248 N 0.73842 0.79097 0.2507 0.0
C1249 C 0.69515 0.75974 0.19659 0.0
C1250 C 0.7226 0.76216 0.25126 0.0
C1251 C 0.70147 0.74576 0.22389 0.0
H1252 H 0.79267 0.89212 0.28221 0.0
H1253 H 0.68951 0.72263 0.22426 0.0
H1254 H 0.81828 0.71511 0.31387 0.0
H1255 H 0.94256 0.87411 0.35534 0.0
H1256 H 0.72505 0.7523 0.2733 0.0
H1257 H 0.67858 0.7471 0.17553 0.0
H1258 H 0.89578 0.85158 0.3162 0.0
H1259 H 0.78113 0.92186 0.23878 0.0
H1260 H 0.68565 0.79484 0.15021 0.0
H1261 H 0.70935 0.84938 0.155 0.0
H1262 H 0.82958 0.68502 0.35664 0.0
H1263 H 0.74477 0.89695 0.18798 0.0
H1264 H 0.95859 0.84624 0.39915 0.0
N1265 N 0.85177 0.7551 0.33707 0.0
C1266 C 0.87585 0.767 0.36152 0.0
C1267 C 0.84253 0.7082 0.35856 0.0
C1268 C 0.88409 0.74989 0.38562 0.0
C1269 C 0.83567 0.72574 0.3347 0.0
C1270 C 0.86671 0.72036 0.38426 0.0
N1271 N 0.88415 0.81223 0.33837 0.0
C1272 C 0.90175 0.83973 0.33575 0.0
C1273 C 0.9197 0.8081 0.38466 0.0
C1274 C 0.89306 0.79611 0.36159 0.0
C1275 C 0.93776 0.83639 0.38216 0.0
C1276 C 0.92871 0.85228 0.35759 0.0
H1277 H 0.87229 0.70648 0.40234 0.0
H1278 H 0.91647 0.74957 0.42842 0.0
H1279 H 0.94791 0.80032 0.42721 0.0
O1280 O 0.87967 0.79663 0.26997 0.0
O1281 O 0.8346 0.80429 0.34768 0.0
O1282 O 0.80466 0.83822 0.34031 0.0
O1283 O 0.86714 0.75198 0.28435 0.0
O1284 O 0.84563 0.82726 0.2777 0.0
O1285 O 0.81671 0.8545 0.30371 0.0
O1286 O 0.73553 0.80717 0.31814 0.0
O1287 O 0.78926 0.80734 0.24669 0.0
O1288 O 0.81079 0.76763 0.25421 0.0
O1289 O 0.75143 0.85339 0.30892 0.0
O1290 O 0.77234 0.77764 0.3154 0.0
O1291 O 0.80168 0.75293 0.2869 0.0
C1292 C 0.82112 0.82519 0.35939 0.0
C1293 C 0.90824 0.75969 0.25286 0.0
C1294 C 0.95009 0.76857 0.22192 0.0
C1295 C 0.9539 0.73951 0.22523 0.0
C1296 C 0.91261 0.73065 0.25558 0.0
C1297 C 0.93525 0.7207 0.24186 0.0
C1298 C 0.9271 0.77874 0.23572 0.0
C1299 C 0.84023 0.8533 0.28914 0.0
C1300 C 0.885 0.7699 0.26957 0.0
C1301 C 0.90981 0.76239 0.40968 0.0
C1302 C 0.92772 0.7913 0.40901 0.0
C1303 C 0.79871 0.78368 0.23459 0.0
C1304 C 0.70736 0.84474 0.33511 0.0
C1305 C 0.66535 0.83676 0.36563 0.0
C1306 C 0.6605 0.86495 0.35987 0.0
C1307 C 0.70206 0.87297 0.3299 0.0
C1308 C 0.68893 0.8266 0.3533 0.0
C1309 C 0.67882 0.88294 0.34223 0.0
C1310 C 0.77932 0.75245 0.30335 0.0
C1311 C 0.73157 0.83461 0.32045 0.0
H1312 H 0.9714 0.73132 0.21478 0.0
H1313 H 0.8987 0.71561 0.26871 0.0
H1314 H 0.93844 0.69833 0.24427 0.0
H1315 H 0.92418 0.80121 0.23341 0.0
H1316 H 0.64259 0.87316 0.36934 0.0
H1317 H 0.71573 0.88733 0.31594 0.0
H1318 H 0.6927 0.8048 0.35763 0.0
H1319 H 0.67495 0.90469 0.33801 0.0
Tb1320 Tb 0.7851 0.29629 0.83406 0.0
C1321 C 0.85931 0.24966 0.7117 0.0
N1322 N 0.8687 0.27138 0.73926 0.0
C1323 C 0.91547 0.25716 0.74827 0.0
C1324 C 0.8773 0.23011 0.70198 0.0
C1325 C 0.89671 0.27575 0.75717 0.0
C1326 C 0.90563 0.23406 0.72074 0.0
C1327 C 0.82003 0.22331 0.66573 0.0
C1328 C 0.83127 0.24656 0.69354 0.0
C1329 C 0.83774 0.20364 0.65612 0.0
C1330 C 0.86635 0.2071 0.67414 0.0
Tb1331 Tb 0.83541 0.29923 0.75276 0.0
N1332 N 0.81421 0.26508 0.70462 0.0
C1333 C 0.79103 0.21999 0.64892 0.0
C1334 C 0.786 0.2621 0.68776 0.0
C1335 C 0.77401 0.23955 0.65995 0.0
H1336 H 0.90497 0.29386 0.7782 0.0
H1337 H 0.75144 0.23704 0.6473 0.0
H1338 H 0.71635 0.30373 0.81481 0.0
H1339 H 0.87232 0.35331 0.9394 0.0
H1340 H 0.77195 0.27605 0.69605 0.0
H1341 H 0.7815 0.20225 0.62764 0.0
H1342 H 0.84618 0.31109 0.89583 0.0
H1343 H 0.93752 0.26067 0.76268 0.0
H1344 H 0.82943 0.18555 0.63496 0.0
H1345 H 0.87975 0.1917 0.6665 0.0
H1346 H 0.68734 0.34107 0.82936 0.0
H1347 H 0.92013 0.21952 0.71409 0.0
H1348 H 0.84968 0.39629 0.95351 0.0
N1349 N 0.75516 0.32709 0.84958 0.0
C1350 C 0.76755 0.35088 0.87438 0.0
C1351 C 0.70998 0.34425 0.8421 0.0
C1352 C 0.75206 0.37307 0.88331 0.0
C1353 C 0.72654 0.32317 0.83379 0.0
C1354 C 0.72293 0.36955 0.8667 0.0
N1355 N 0.8096 0.33055 0.88134 0.0
C1356 C 0.83615 0.32991 0.8998 0.0
C1357 C 0.80987 0.37729 0.9166 0.0
C1358 C 0.79592 0.35286 0.89069 0.0
C1359 C 0.83811 0.37788 0.93356 0.0
C1360 C 0.851 0.35375 0.92554 0.0
H1361 H 0.7102 0.38603 0.87288 0.0
H1362 H 0.75475 0.41544 0.91539 0.0
H1363 H 0.80554 0.41921 0.94454 0.0
O1364 O 0.78598 0.26133 0.86107 0.0
O1365 O 0.79997 0.34109 0.82241 0.0
O1366 O 0.83671 0.32612 0.80062 0.0
O1367 O 0.7439 0.26644 0.83707 0.0
O1368 O 0.82997 0.28515 0.84337 0.0
O1369 O 0.86045 0.2947 0.80185 0.0
O1370 O 0.83277 0.33433 0.72524 0.0
O1371 O 0.80959 0.25278 0.75052 0.0
O1372 O 0.80038 0.2785 0.79263 0.0
O1373 O 0.87531 0.32689 0.74437 0.0
O1374 O 0.79039 0.31064 0.74587 0.0
O1375 O 0.7581 0.29408 0.78376 0.0
C1376 C 0.8215 0.3465 0.80518 0.0
C1377 C 0.74624 0.24939 0.8893 0.0
C1378 C 0.75402 0.23307 0.94279 0.0
C1379 C 0.73009 0.24462 0.95182 0.0
C1380 C 0.72248 0.26107 0.89844 0.0
C1381 C 0.71445 0.25859 0.92968 0.0
C1382 C 0.7617 0.23542 0.9115 0.0
C1383 C 0.85574 0.28707 0.83142 0.0
C1384 C 0.75705 0.25261 0.85787 0.0
C1385 C 0.76612 0.39793 0.90842 0.0
C1386 C 0.79504 0.40008 0.92498 0.0
C1387 C 0.7953 0.25214 0.77493 0.0
C1388 C 0.87292 0.3489 0.69579 0.0
C1389 C 0.86621 0.36664 0.64302 0.0
C1390 C 0.8962 0.36756 0.64042 0.0
C1391 C 0.90304 0.35026 0.69316 0.0
C1392 C 0.85464 0.35717 0.67059 0.0
C1393 C 0.91452 0.35941 0.66548 0.0
C1394 C 0.7635 0.30498 0.75575 0.0
C1395 C 0.86162 0.34242 0.72637 0.0
H1396 H 0.7231 0.24231 0.9756 0.0
H1397 H 0.71035 0.27223 0.88172 0.0
H1398 H 0.69602 0.26742 0.93672 0.0
H1399 H 0.78028 0.22669 0.90451 0.0
H1400 H 0.9056 0.37535 0.61946 0.0
H1401 H 0.91788 0.34484 0.71276 0.0
H1402 H 0.83158 0.357 0.67266 0.0
H1403 H 0.9378 0.36071 0.66374 0.0
Tb1404 Tb 0.78894 0.76509 0.77237 0.0
C1405 C 0.89194 0.87324 0.86343 0.0
N1406 N 0.86581 0.8552 0.86801 0.0
C1407 C 0.88305 0.86516 0.92694 0.0
C1408 C 0.91405 0.88909 0.89058 0.0
C1409 C 0.86171 0.8501 0.89924 0.0
C1410 C 0.90905 0.8853 0.92263 0.0
C1411 C 0.92324 0.89455 0.82554 0.0
C1412 C 0.89613 0.87645 0.8314 0.0
C1413 C 0.94503 0.91094 0.85249 0.0
C1414 C 0.94007 0.90869 0.8849 0.0
Tb1415 Tb 0.82865 0.84224 0.82233 0.0
N1416 N 0.87372 0.86171 0.80604 0.0
C1417 C 0.92741 0.89614 0.79283 0.0
C1418 C 0.87794 0.86332 0.77404 0.0
C1419 C 0.90477 0.8801 0.76696 0.0
H1420 H 0.84118 0.83642 0.90327 0.0
H1421 H 0.90775 0.88099 0.74147 0.0
H1422 H 0.78348 0.76928 0.69091 0.0
H1423 H 0.70722 0.7218 0.84693 0.0
H1424 H 0.86128 0.85157 0.75361 0.0
H1425 H 0.94796 0.90963 0.7873 0.0
H1426 H 0.75617 0.7489 0.83755 0.0
H1427 H 0.87896 0.86198 0.95165 0.0
H1428 H 0.9656 0.92568 0.84856 0.0
H1429 H 0.95633 0.92233 0.9054 0.0
H1430 H 0.74458 0.75271 0.6417 0.0
H1431 H 0.92503 0.89778 0.94416 0.0
H1432 H 0.6657 0.7022 0.79962 0.0
N1433 N 0.75425 0.75632 0.72504 0.0
C1434 C 0.72615 0.74157 0.72831 0.0
C1435 C 0.73897 0.74986 0.66596 0.0
C1436 C 0.70359 0.72985 0.70032 0.0
C1437 C 0.76089 0.76033 0.69426 0.0
C1438 C 0.71021 0.73444 0.66896 0.0
N1439 N 0.7429 0.74755 0.7861 0.0
C1440 C 0.7384 0.74188 0.81698 0.0
C1441 C 0.69199 0.72002 0.76373 0.0
C1442 C 0.72041 0.73666 0.75969 0.0
C1443 C 0.68717 0.71499 0.79554 0.0
C1444 C 0.71049 0.72606 0.82229 0.0
H1445 H 0.69348 0.7256 0.64686 0.0
H1446 H 0.65827 0.70343 0.68305 0.0
H1447 H 0.64778 0.69496 0.73838 0.0
O1448 O 0.79287 0.72416 0.78788 0.0
O1449 O 0.75713 0.79485 0.78303 0.0
O1450 O 0.78138 0.82603 0.83148 0.0
O1451 O 0.78389 0.727 0.73593 0.0
O1452 O 0.81157 0.76647 0.82375 0.0
O1453 O 0.80797 0.81064 0.85328 0.0
O1454 O 0.81958 0.88178 0.80733 0.0
O1455 O 0.86114 0.8131 0.81139 0.0
O1456 O 0.83664 0.77935 0.76399 0.0
O1457 O 0.83022 0.87873 0.8599 0.0
O1458 O 0.80729 0.84193 0.77031 0.0
O1459 O 0.81118 0.79681 0.74311 0.0
C1460 C 0.7561 0.81319 0.81043 0.0
C1461 C 0.80262 0.68566 0.74915 0.0
C1462 C 0.82694 0.64808 0.76738 0.0
C1463 C 0.82215 0.63257 0.73474 0.0
C1464 C 0.79803 0.67042 0.71624 0.0
C1465 C 0.80784 0.64396 0.70911 0.0
C1466 C 0.81739 0.67447 0.77455 0.0
C1467 C 0.80884 0.78211 0.85191 0.0
C1468 C 0.7873 0.70945 0.75752 0.0
C1469 C 0.67546 0.71309 0.70432 0.0
C1470 C 0.6696 0.7082 0.73587 0.0
C1471 C 0.86194 0.79354 0.78463 0.0
C1472 C 0.82061 0.92595 0.84742 0.0
C1473 C 0.79887 0.96624 0.83221 0.0
C1474 C 0.80622 0.98135 0.86517 0.0
C1475 C 0.82836 0.94102 0.88049 0.0
C1476 C 0.80657 0.93904 0.82338 0.0
C1477 C 0.82136 0.96886 0.88923 0.0
C1478 C 0.80836 0.82457 0.7425 0.0
C1479 C 0.82356 0.89511 0.83815 0.0
H1480 H 0.8294 0.61182 0.72924 0.0
H1481 H 0.78594 0.67833 0.69626 0.0
H1482 H 0.80386 0.63201 0.68386 0.0
H1483 H 0.82071 0.68559 0.80015 0.0
H1484 H 0.80012 1.00251 0.87218 0.0
H1485 H 0.83912 0.931 0.89958 0.0
H1486 H 0.79995 0.92724 0.79793 0.0
H1487 H 0.82703 0.98036 0.91473 0.0
Tb1488 Tb 0.59718 0.57346 0.56572 0.0
C1489 C 0.50786 0.46256 0.47923 0.0
N1490 N 0.51928 0.49178 0.47509 0.0
C1491 C 0.52587 0.4737 0.41977 0.0
C1492 C 0.50667 0.43781 0.45442 0.0
C1493 C 0.52615 0.49751 0.44484 0.0
C1494 C 0.5169 0.44373 0.42492 0.0
C1495 C 0.48303 0.42764 0.51252 0.0
C1496 C 0.49657 0.45738 0.50822 0.0
C1497 C 0.4822 0.403 0.48801 0.0
C1498 C 0.49448 0.40803 0.45936 0.0
Tb1499 Tb 0.51772 0.52779 0.51873 0.0
N1500 N 0.50006 0.48149 0.5328 0.0
C1501 C 0.47181 0.42352 0.54197 0.0
C1502 C 0.48916 0.47763 0.56156 0.0
C1503 C 0.47493 0.44863 0.56659 0.0
H1504 H 0.5307 0.52019 0.43903 0.0
H1505 H 0.46625 0.4457 0.58938 0.0
H1506 H 0.58705 0.58527 0.64565 0.0
H1507 H 0.64832 0.65046 0.48961 0.0
H1508 H 0.49059 0.49695 0.58018 0.0
H1509 H 0.4611 0.40104 0.54614 0.0
H1510 H 0.62684 0.60044 0.50391 0.0
H1511 H 0.53192 0.47848 0.39619 0.0
H1512 H 0.47231 0.37993 0.49106 0.0
H1513 H 0.49359 0.38872 0.44064 0.0
H1514 H 0.589 0.6288 0.68783 0.0
H1515 H 0.51649 0.42534 0.40529 0.0
H1516 H 0.65209 0.69729 0.52918 0.0
N1517 N 0.59788 0.61173 0.60804 0.0
C1518 C 0.60915 0.64039 0.6021 0.0
C1519 C 0.59405 0.63239 0.66354 0.0
C1520 C 0.61206 0.66615 0.62628 0.0
C1521 C 0.59197 0.60753 0.63898 0.0
C1522 C 0.60349 0.66182 0.65694 0.0
N1523 N 0.61503 0.6186 0.54887 0.0
C1524 C 0.62646 0.62066 0.52018 0.0
C1525 C 0.63161 0.67301 0.56535 0.0
C1526 C 0.61873 0.64391 0.57194 0.0
C1527 C 0.6418 0.67535 0.53507 0.0
C1528 C 0.6395 0.649 0.51254 0.0
H1529 H 0.60514 0.68099 0.67612 0.0
H1530 H 0.62642 0.71537 0.63765 0.0
H1531 H 0.64407 0.72127 0.58468 0.0
O1532 O 0.63896 0.57202 0.55341 0.0
O1533 O 0.56859 0.60341 0.5465 0.0
O1534 O 0.52234 0.5775 0.51589 0.0
O1535 O 0.634 0.58338 0.60438 0.0
O1536 O 0.59263 0.54859 0.51492 0.0
O1537 O 0.54769 0.55328 0.48983 0.0
O1538 O 0.47455 0.52525 0.5289 0.0
O1539 O 0.54656 0.4976 0.53849 0.0
O1540 O 0.59042 0.52488 0.57308 0.0
O1541 O 0.48239 0.51937 0.47853 0.0
O1542 O 0.52058 0.55034 0.57026 0.0
O1543 O 0.56722 0.55019 0.59635 0.0
C1544 C 0.54271 0.60339 0.52855 0.0
C1545 C 0.67315 0.56025 0.59391 0.0
C1546 C 0.70856 0.53195 0.57823 0.0
C1547 C 0.71898 0.53194 0.61171 0.0
C1548 C 0.6832 0.5599 0.62753 0.0
C1549 C 0.706 0.54563 0.63633 0.0
C1550 C 0.68582 0.54593 0.56941 0.0
C1551 C 0.57557 0.55272 0.4888 0.0
C1552 C 0.65221 0.57835 0.58421 0.0
C1553 C 0.62416 0.6953 0.61945 0.0
C1554 C 0.6342 0.69869 0.58924 0.0
C1555 C 0.57153 0.49845 0.5591 0.0
C1556 C 0.44277 0.54132 0.48977 0.0
C1557 C 0.41041 0.57233 0.50818 0.0
C1558 C 0.40387 0.57845 0.47598 0.0
C1559 C 0.43588 0.54695 0.45728 0.0
C1560 C 0.42957 0.55381 0.51494 0.0
C1561 C 0.41649 0.56554 0.45049 0.0
C1562 C 0.53862 0.54826 0.59682 0.0
C1563 C 0.46281 0.52182 0.49779 0.0
H1564 H 0.73718 0.5216 0.61868 0.0
H1565 H 0.67396 0.57117 0.64695 0.0
H1566 H 0.7139 0.54559 0.66221 0.0
H1567 H 0.67905 0.54675 0.54339 0.0
H1568 H 0.38873 0.5927 0.47055 0.0
H1569 H 0.44539 0.53702 0.43722 0.0
H1570 H 0.43413 0.54925 0.54005 0.0
H1571 H 0.41119 0.56986 0.42549 0.0
Tb1572 Tb 0.02496 0.55205 0.06224 0.0
C1573 C 0.12054 0.61234 0.98174 0.0
N1574 N 0.10014 0.58481 0.97436 0.0
C1575 C 0.09029 0.59133 0.91746 0.0
C1576 C 0.12618 0.63054 0.9571 0.0
C1577 C 0.08563 0.57381 0.94251 0.0
C1578 C 0.11052 0.61982 0.92478 0.0
C1579 C 0.15782 0.65031 0.02228 0.0
C1580 C 0.1364 0.62218 0.0141 0.0
C1581 C 0.16332 0.66841 0.9977 0.0
C1582 C 0.14757 0.65857 0.96526 0.0
Tb1583 Tb 0.09847 0.5583 0.01754 0.0
N1584 N 0.13027 0.60439 0.03768 0.0
C1585 C 0.1733 0.65927 0.05489 0.0
C1586 C 0.14623 0.61233 0.06904 0.0
C1587 C 0.1676 0.64011 0.07829 0.0
H1588 H 0.0713 0.55114 0.93569 0.0
H1589 H 0.18006 0.64649 0.10329 0.0
H1590 H 0.05153 0.5592 0.1438 0.0
H1591 H 0.93317 0.47063 0.98181 0.0
H1592 H 0.14318 0.59704 0.08663 0.0
H1593 H 0.19004 0.68068 0.06211 0.0
H1594 H 0.97372 0.5175 0.99714 0.0
H1595 H 0.07873 0.58253 0.89233 0.0
H1596 H 0.17983 0.69004 1.00348 0.0
H1597 H 0.15226 0.67276 0.94656 0.0
H1598 H 0.04423 0.52856 0.18782 0.0
H1599 H 0.11432 0.63312 0.90515 0.0
H1600 H 0.9224 0.43682 0.02322 0.0
N1601 N 0.0214 0.526 0.10596 0.0
C1602 C 0.99929 0.49981 0.09979 0.0
C1603 C 0.03185 0.51989 0.163 0.0
C1604 C 0.99333 0.48214 0.12485 0.0
C1605 C 0.03664 0.53687 0.13753 0.0
C1606 C 1.01037 0.49221 0.15656 0.0
N1607 N 0.98818 0.50861 0.04484 0.0
C1608 C 0.97044 0.50209 0.01449 0.0
C1609 C 0.95792 0.46481 0.06151 0.0
C1610 C 0.98169 0.49125 0.06854 0.0
C1611 C 0.94072 0.45704 0.02969 0.0
C1612 C 0.94689 0.47592 0.00616 0.0
H1613 H 1.00644 0.47933 0.1765 0.0
H1614 H 0.96528 0.44156 0.13668 0.0
H1615 H 0.93443 0.42631 0.08117 0.0
O1616 O 0.98784 0.57004 0.04489 0.0
O1617 O 0.03422 0.50644 0.04353 0.0
O1618 O 0.07306 0.50957 0.01181 0.0
O1619 O 1.00188 0.56849 0.09716 0.0
O1620 O 0.03127 0.56482 0.01437 0.0
O1621 O 0.05683 0.53724 0.98508 0.0
O1622 O 0.13856 0.54588 0.03455 0.0
O1623 O 0.08395 0.60185 0.03201 0.0
O1624 O 0.05548 0.59866 0.07452 0.0
O1625 O 0.12509 0.54782 0.98314 0.0
O1626 O 0.0937 0.54275 0.06425 0.0
O1627 O 0.06774 0.56976 0.09374 0.0
C1628 C 0.05128 0.49341 0.02518 0.0
C1629 C 0.95891 0.58866 0.08641 0.0
C1630 C 0.91938 0.61541 0.07798 0.0
C1631 C 0.9151 0.61453 0.11093 0.0
C1632 C 0.95396 0.58795 0.11933 0.0
C1633 C 0.93226 0.60082 0.13142 0.0
C1634 C 0.94131 0.60237 0.06553 0.0
C1635 C 0.03238 0.54596 0.98827 0.0
C1636 C 0.98309 0.57569 0.07536 0.0
C1637 C 0.97007 0.45546 0.11776 0.0
C1638 C 0.9524 0.44684 0.08619 0.0
C1639 C 0.07199 0.61486 0.05603 0.0
C1640 C 0.1567 0.51515 0.99352 0.0
C1641 C 0.19062 0.4823 1.00317 0.0
C1642 C 0.1848 0.4705 0.96917 0.0
C1643 C 0.15109 0.50265 0.9595 0.0
C1644 C 0.17673 0.50483 0.01543 0.0
C1645 C 0.16511 0.4806 0.94752 0.0
C1646 C 0.09142 0.55945 0.0913 0.0
C1647 C 0.14487 0.54158 0.00464 0.0
H1648 H 0.89844 0.62464 0.12085 0.0
H1649 H 0.96701 0.57754 0.136 0.0
H1650 H 0.92885 0.60029 0.15684 0.0
H1651 H 0.94487 0.6033 0.04018 0.0
H1652 H 0.19552 0.45333 0.95938 0.0
H1653 H 0.13639 0.5104 0.94177 0.0
H1654 H 0.18173 0.51441 0.04161 0.0
H1655 H 0.16087 0.47147 0.92129 0.0
C1656 C 1.00074 0.16649 0.01728 0.0
C1657 C 0.02095 0.19037 0.00662 0.0
C1658 C 1.00803 0.139 0.02485 0.0
C1659 C 0.03636 0.13287 0.02275 0.0
H1660 H 0.97844 0.16884 0.01976 0.0
H1661 H 0.99102 0.12233 0.03271 0.0
S1662 S 0.09753 0.18567 0.99331 0.0
N1663 N 0.07081 0.20415 0.99282 0.0
N1664 N 0.08445 0.15357 0.00676 0.0
C1665 C 0.05686 0.15636 0.01178 0.0
C1666 C 0.04931 0.18446 0.0039 0.0
C1667 C 0.21828 0.82737 0.17843 0.0
C1668 C 0.18811 0.81953 0.18297 0.0
C1669 C 0.24198 0.82455 0.20219 0.0
C1670 C 0.23697 0.81241 0.23145 0.0
H1671 H 0.2237 0.83562 0.15596 0.0
H1672 H 0.26452 0.83135 0.19694 0.0
S1673 S 0.16154 0.78704 0.25472 0.0
N1674 N 0.15447 0.79947 0.2194 0.0
N1675 N 0.19821 0.79179 0.26247 0.0
C1676 C 0.20668 0.80442 0.23619 0.0
C1677 C 0.18259 0.80846 0.21247 0.0
C1678 C 0.50664 0.90731 0.49578 0.0
C1679 C 0.52817 0.88979 0.49927 0.0
C1680 C 0.51389 0.93958 0.50458 0.0
C1681 C 0.54336 0.95714 0.5171 0.0
H1682 H 0.48358 0.89594 0.48538 0.0
H1683 H 0.49616 0.95099 0.50022 0.0
S1684 S 0.60901 0.92374 0.53179 0.0
N1685 N 0.58096 0.89359 0.51709 0.0
N1686 N 0.59454 0.95364 0.53298 0.0
C1687 C 0.56528 0.94008 0.52108 0.0
C1688 C 0.55776 0.90689 0.51253 0.0
C1689 C 0.48638 0.3027 0.65685 0.0
C1690 C 0.51722 0.3093 0.66986 0.0
C1691 C 0.46444 0.29336 0.67635 0.0
C1692 C 0.47255 0.2906 0.70962 0.0
H1693 H 0.47903 0.30309 0.6309 0.0
H1694 H 0.44113 0.28631 0.66472 0.0
S1695 S 0.54945 0.3096 0.7573 0.0
N1696 N 0.55425 0.31575 0.71955 0.0
N1697 N 0.51291 0.29824 0.75587 0.0
C1698 C 0.503 0.29936 0.72365 0.0
C1699 C 0.52537 0.30871 0.70388 0.0
C1700 C 0.05164 0.83399 0.64871 0.0
C1701 C 0.06468 0.84269 0.6825 0.0
C1702 C 0.05763 0.85377 0.62561 0.0
C1703 C 0.07657 0.88316 0.63538 0.0
H1704 H 0.03744 0.81136 0.63974 0.0
H1705 H 0.04826 0.84561 0.59966 0.0
S1706 S 0.11511 0.91818 0.72066 0.0
N1707 N 0.09658 0.88384 0.72448 0.0
N1708 N 0.10734 0.92061 0.681 0.0
C1709 C 0.08864 0.89275 0.66912 0.0
C1710 C 0.08281 0.87264 0.69267 0.0
C1711 C 0.44649 0.79158 0.83556 0.0
C1712 C 0.46867 0.81835 0.83476 0.0
C1713 C 0.4151 0.78937 0.82825 0.0
C1714 C 0.40318 0.81399 0.8202 0.0
H1715 H 0.45349 0.77193 0.8426 0.0
H1716 H 0.39996 0.76791 0.82944 0.0
S1717 S 0.45142 0.89071 0.81843 0.0
N1718 N 0.47598 0.87066 0.82688 0.0
N1719 N 0.41796 0.86723 0.81443 0.0
C1720 C 0.42528 0.84109 0.81971 0.0
C1721 C 0.45743 0.84309 0.82664 0.0
C1722 C 0.5205 0.16557 0.11677 0.0
C1723 C 0.53874 0.18024 0.1474 0.0
C1724 C 0.52548 0.13936 0.09809 0.0
C1725 C 0.5492 0.12641 0.10869 0.0
H1726 H 0.50216 0.17459 0.10691 0.0
H1727 H 0.5107 0.12927 0.07485 0.0
S1728 S 0.60742 0.1596 0.18324 0.0
N1729 N 0.58356 0.18133 0.18538 0.0
N1730 N 0.59392 0.13372 0.14954 0.0
C1731 C 0.56846 0.14166 0.13843 0.0
C1732 C 0.56296 0.16799 0.1579 0.0
C1733 C 0.17963 0.34411 0.31698 0.0
C1734 C 0.16666 0.32789 0.34095 0.0
C1735 C 0.2078 0.34126 0.30688 0.0
C1736 C 0.22485 0.32156 0.31943 0.0
H1737 H 0.16841 0.35987 0.3065 0.0
H1738 H 0.21619 0.35462 0.28876 0.0
S1739 S 0.20209 0.27389 0.3827 0.0
N1740 N 0.17478 0.29118 0.37666 0.0
N1741 N 0.22557 0.28597 0.3578 0.0
C1742 C 0.21186 0.30512 0.3429 0.0
C1743 C 0.18374 0.30825 0.35349 0.0
C1744 C 0.99807 0.02251 0.1727 0.0
C1745 C 1.00326 0.04914 0.19642 0.0
C1746 C 1.00697 0.02335 0.14111 0.0
C1747 C 0.02085 0.05091 0.13131 0.0
H1748 H 0.98766 1.00073 0.17882 0.0
H1749 H 1.00354 1.00202 0.12457 0.0
S1750 S 0.03619 0.1275 0.18253 0.0
N1751 N 0.02199 0.10412 0.20684 0.0
N1752 N 0.03663 0.10575 0.14743 0.0
C1753 C 0.02514 0.0777 0.15441 0.0
C1754 C 1.01686 0.0768 0.18679 0.0
C1755 C 0.26252 0.70751 0.51975 0.0
C1756 C 0.2766 0.68395 0.51244 0.0
C1757 C 0.25458 0.72405 0.49542 0.0
C1758 C 0.2599 0.71696 0.46291 0.0
H1759 H 0.25558 0.71166 0.54368 0.0
H1760 H 0.24225 0.74094 0.50145 0.0
S1761 S 0.30092 0.66034 0.43347 0.0
N1762 N 0.29977 0.65719 0.47277 0.0
N1763 N 0.28385 0.68735 0.42603 0.0
C1764 C 0.27683 0.69547 0.45636 0.0
C1765 C 0.28539 0.67906 0.48149 0.0
C1766 C 0.62232 0.07129 0.68106 0.0
C1767 C 0.64832 0.06079 0.68059 0.0
C1768 C 0.60398 0.07127 0.65156 0.0
C1769 C 0.60989 0.05886 0.62083 0.0
H1770 H 0.61665 0.08061 0.70424 0.0
H1771 H 0.58549 0.08164 0.65311 0.0
S1772 S 0.67779 0.03198 0.60677 0.0
N1773 N 0.68148 0.04119 0.64735 0.0
N1774 N 0.64556 0.03849 0.59185 0.0
C1775 C 0.63642 0.04889 0.62018 0.0
C1776 C 0.65587 0.05033 0.65013 0.0
C1777 C 0.32346 0.33792 0.949 0.0
C1778 C 0.33648 0.36941 0.95857 0.0
C1779 C 0.31786 0.3238 0.91523 0.0
C1780 C 0.32417 0.34076 0.88963 0.0
H1781 H 0.31789 0.32403 0.96772 0.0
H1782 H 0.30792 0.29956 0.90906 0.0
S1783 S 0.35867 0.42352 0.90094 0.0
N1784 N 0.35607 0.41671 0.93891 0.0
N1785 N 0.34461 0.39046 0.87638 0.0
C1786 C 0.33705 0.37208 0.89887 0.0
C1787 C 0.34343 0.38628 0.933 0.0
C1788 C 0.99129 0.0431 0.40161 0.0
C1789 C 1.00606 0.0301 0.37796 0.0
C1790 C 1.00198 0.04688 0.436 0.0
C1791 C 0.02819 0.03827 0.44832 0.0
H1792 H 0.97066 0.0493 0.39356 0.0
H1793 H 0.98921 0.05623 0.45304 0.0
S1794 S 0.07761 1.00799 0.39576 0.0
N1795 N 0.04932 1.01103 0.36883 0.0
N1796 N 0.07054 0.01988 0.43279 0.0
C1797 C 0.04401 0.02695 0.42453 0.0
C1798 C 0.03264 0.02238 0.38964 0.0
C1799 C 0.27717 0.72834 0.66146 0.0
C1800 C 0.29619 0.70858 0.65966 0.0
C1801 C 0.27885 0.74807 0.69069 0.0
C1802 C 0.30009 0.74908 0.71864 0.0
H1803 H 0.26056 0.72823 0.64034 0.0
H1804 H 0.26342 0.76263 0.69136 0.0
S1805 S 0.35468 0.70121 0.72621 0.0
N1806 N 0.33613 0.69016 0.68798 0.0
N1807 N 0.3403 0.72826 0.74286 0.0
C1808 C 0.31909 0.72914 0.71718 0.0
C1809 C 0.31692 0.70863 0.68759 0.0
C1810 C 0.65662 0.06887 0.82572 0.0
C1811 C 0.68739 0.07986 0.83882 0.0
C1812 C 0.6348 0.07701 0.84281 0.0
C1813 C 0.64307 0.09581 0.8738 0.0
H1814 H 0.64921 0.05477 0.80152 0.0
H1815 H 0.61141 0.06868 0.83172 0.0
S1816 S 0.71951 0.12676 0.92141 0.0
N1817 N 0.72448 0.10816 0.88631 0.0
N1818 N 0.68313 0.12293 0.91861 0.0
C1819 C 0.67339 0.10546 0.88814 0.0
C1820 C 0.69566 0.09753 0.87065 0.0
C1821 C 0.31058 0.36716 0.16756 0.0
C1822 C 0.32688 0.35304 0.14631 0.0
C1823 C 0.30496 0.35726 0.19792 0.0
C1824 C 0.31526 0.3327 0.20849 0.0
H1825 H 0.30184 0.38588 0.16058 0.0
H1826 H 0.29228 0.36885 0.21315 0.0
S1827 S 0.36154 0.28979 0.16399 0.0
N1828 N 0.35479 0.31424 0.13972 0.0
N1829 N 0.34446 0.29604 0.1959 0.0
C1830 C 0.3321 0.31891 0.1878 0.0
C1831 C 0.33781 0.32893 0.15709 0.0
C1832 C 0.22875 0.98958 1.00083 0.0
C1833 C 0.25793 1.00603 0.99969 0.0
C1834 C 0.21317 0.99916 0.02522 0.0
C1835 C 0.22648 0.02528 0.04893 0.0
H1836 H 0.21889 0.96792 0.98481 0.0
H1837 H 0.19136 0.98522 0.02671 0.0
S1838 S 0.29836 0.0806 0.05088 0.0
N1839 N 0.29653 0.05326 0.01972 0.0
N1840 N 0.2672 0.07052 0.06619 0.0
C1841 C 0.25389 0.04375 0.04568 0.0
C1842 C 0.26954 0.03443 0.02057 0.0
C1843 C 0.67429 0.63026 0.01401 0.0
C1844 C 0.69292 0.64399 0.04454 0.0
C1845 C 0.64643 0.60957 0.0128 0.0
C1846 C 0.63675 0.60115 0.04198 0.0
H1847 H 0.68093 0.63606 0.99097 0.0
H1848 H 0.63244 0.6 0.98894 0.0
S1849 S 0.6769 0.62959 0.12798 0.0
N1850 N 0.69912 0.64718 0.10468 0.0
N1851 N 0.64782 0.60754 0.10192 0.0
C1852 C 0.65544 0.6139 0.0724 0.0
C1853 C 0.6832 0.63554 0.07381 0.0
C1854 C 0.72334 0.5075 0.29394 0.0
C1855 C 0.69403 0.49832 0.30093 0.0
C1856 C 0.73828 0.48611 0.28136 0.0
C1857 C 0.72452 0.45485 0.27564 0.0
H1858 H 0.73431 0.53143 0.29666 0.0
H1859 H 0.75999 0.49413 0.27435 0.0
S1860 S 0.64997 0.41832 0.29303 0.0
N1861 N 0.6532 0.45511 0.30379 0.0
N1862 N 0.68149 0.41539 0.28008 0.0
C1863 C 0.69627 0.44521 0.28445 0.0
C1864 C 0.68097 0.46682 0.29717 0.0
C1865 C 0.9459 0.48379 0.54063 0.0
C1866 C 0.92771 0.50215 0.55231 0.0
C1867 C 0.97422 0.49701 0.53417 0.0
C1868 C 0.98491 0.52869 0.53983 0.0
H1869 H 0.93733 0.45936 0.53397 0.0
H1870 H 0.98707 0.48253 0.52314 0.0
S1871 S 0.94759 0.58604 0.57448 0.0
N1872 N 0.92329 0.55305 0.5722 0.0
N1873 N 0.97705 0.57791 0.56047 0.0
C1874 C 0.96786 0.54708 0.55355 0.0
C1875 C 0.93903 0.53373 0.55987 0.0
C1876 C 0.34039 0.1042 0.32453 0.0
C1877 C 0.37041 0.11208 0.34056 0.0
C1878 C 0.33105 0.11978 0.30006 0.0
C1879 C 0.35122 0.14407 0.29157 0.0
H1880 H 0.32464 0.08427 0.32883 0.0
H1881 H 0.3082 0.11222 0.28693 0.0
S1882 S 0.42883 0.18001 0.33338 0.0
N1883 N 0.41823 0.15004 0.35135 0.0
N1884 N 0.39984 0.17996 0.30549 0.0
C1885 C 0.37994 0.15479 0.31019 0.0
C1886 C 0.38968 0.13877 0.33503 0.0
C1887 C 0.34824 0.13353 0.54074 0.0
C1888 C 0.35597 0.16117 0.52858 0.0
C1889 C 0.3703 0.11946 0.55301 0.0
C1890 C 0.40071 0.13226 0.55294 0.0
H1891 H 0.32518 0.12351 0.54254 0.0
H1892 H 0.36369 0.09933 0.56414 0.0
S1893 S 0.43282 0.20156 0.52001 0.0
N1894 N 0.39642 0.1989 0.51433 0.0
N1895 N 0.43749 0.17196 0.53714 0.0
C1896 C 0.40862 0.15833 0.53858 0.0
C1897 C 0.38633 0.17291 0.52639 0.0
C1898 C 0.72788 0.67386 0.2716 0.0
C1899 C 0.71941 0.66324 0.30044 0.0
C1900 C 0.74753 0.70237 0.2731 0.0
C1901 C 0.75888 0.72225 0.30337 0.0
H1902 H 0.71935 0.65999 0.24739 0.0
H1903 H 0.75335 0.70928 0.25015 0.0
S1904 S 0.74724 0.70472 0.38658 0.0
N1905 N 0.72669 0.67426 0.36078 0.0
N1906 N 0.76259 0.72853 0.36319 0.0
C1907 C 0.7512 0.71204 0.33251 0.0
C1908 C 0.73166 0.68249 0.33114 0.0
C1909 C 0.8768 0.41708 0.79773 0.0
C1910 C 0.86045 0.43909 0.80281 0.0
C1911 C 0.86342 0.38659 0.79661 0.0
C1912 C 0.83319 0.37725 0.79969 0.0
H1913 H 0.90053 0.42348 0.79673 0.0
H1914 H 0.87742 0.37064 0.79546 0.0
S1915 S 0.77951 0.42553 0.80776 0.0
N1916 N 0.81179 0.44946 0.80727 0.0
N1917 N 0.78624 0.39146 0.8039 0.0
C1918 C 0.81593 0.39868 0.80196 0.0
C1919 C 0.82969 0.42987 0.80376 0.0
C1920 C 0.09686 0.94398 0.11529 0.0
C1921 C 0.0899 0.91446 0.09563 0.0
C1922 C 0.08909 0.96984 0.10384 0.0
C1923 C 0.07368 0.96879 0.07151 0.0
H1924 H 0.10859 0.94746 0.1405 0.0
H1925 H 0.09538 0.99115 0.12097 0.0
S1926 S 0.05205 0.89825 0.00775 0.0
N1927 N 0.06731 0.88676 0.04069 0.0
N1928 N 0.05368 0.93471 0.01895 0.0
C1929 C 0.06708 0.93956 0.05107 0.0
C1930 C 0.07482 0.91291 0.063 0.0
C1931 C 0.92609 0.30109 0.89866 0.0
C1932 C 0.93042 0.27158 0.89992 0.0
C1933 C 0.90231 0.30613 0.87628 0.0
C1934 C 0.88202 0.282 0.85381 0.0
H1935 H 0.94068 0.32036 0.91563 0.0
H1936 H 0.89957 0.32907 0.87687 0.0
S1937 S 0.88614 0.20147 0.84298 0.0
N1938 N 0.91344 0.21846 0.87406 0.0
N1939 N 0.8704 0.22832 0.83174 0.0
C1940 C 0.88716 0.2529 0.8536 0.0
C1941 C 0.91081 0.24761 0.87666 0.0
C1942 C 0.5965 0.19895 0.54918 0.0
C1943 C 0.58654 0.21545 0.57521 0.0
C1944 C 0.58998 0.16664 0.54282 0.0
C1945 C 0.57387 0.14807 0.56261 0.0
H1946 H 0.60959 0.21115 0.53307 0.0
H1947 H 0.59758 0.15624 0.52166 0.0
S1948 S 0.54057 0.17881 0.63314 0.0
N1949 N 0.55773 0.20972 0.62006 0.0
N1950 N 0.54646 0.14969 0.60899 0.0
C1951 C 0.56312 0.16417 0.58845 0.0
C1952 C 0.56925 0.19733 0.59454 0.0
C1953 C 0.59405 0.79777 0.39249 0.0
C1954 C 0.60286 0.7994 0.42686 0.0
C1955 C 0.61497 0.80755 0.37211 0.0
C1956 C 0.64551 0.81907 0.38522 0.0
H1957 H 0.57064 0.79002 0.38136 0.0
H1958 H 0.607 0.80757 0.3462 0.0
S1959 S 0.68088 0.82631 0.47267 0.0
N1960 N 0.64492 0.81191 0.47254 0.0
N1961 N 0.68399 0.83013 0.43391 0.0
C1962 C 0.65498 0.81921 0.41896 0.0
C1963 C 0.63371 0.80939 0.43987 0.0
C1964 C 0.05849 0.24993 0.41418 0.0
C1965 C 0.06764 0.27794 0.43606 0.0
C1966 C 0.04728 0.22258 0.42541 0.0
C1967 C 0.04494 0.22205 0.45899 0.0
H1968 H 0.05892 0.24919 0.38788 0.0
H1969 H 0.03885 0.2019 0.40739 0.0
S1970 S 0.06715 0.28831 0.52692 0.0
N1971 N 0.07489 0.30286 0.49353 0.0
N1972 N 0.05375 0.25136 0.51429 0.0
C1973 C 0.05541 0.24944 0.48145 0.0
C1974 C 0.06681 0.27739 0.47008 0.0
C1975 C 0.66935 0.29185 0.23428 0.0
C1976 C 0.64768 0.27985 0.25351 0.0
C1977 C 0.70081 0.29692 0.2446 0.0
C1978 C 0.71352 0.28993 0.27491 0.0
H1979 H 0.6619 0.29743 0.21036 0.0
H1980 H 0.71537 0.30613 0.228 0.0
S1981 S 0.66767 0.25801 0.33575 0.0
N1982 N 0.64216 0.26118 0.30535 0.0
N1983 N 0.70059 0.27054 0.32471 0.0
C1984 C 0.6922 0.27802 0.29476 0.0
C1985 C 0.65983 0.27311 0.28424 0.0
C1986 C 0.56544 0.91878 0.97433 0.0
C1987 C 0.56892 0.91865 0.94091 0.0
C1988 C 0.56519 0.94546 0.99566 0.0
C1989 C 0.5683 0.97408 0.98537 0.0
H1990 H 0.56221 0.89766 0.98417 0.0
H1991 H 0.56172 0.94307 0.02034 0.0
S1992 S 0.57706 0.98654 0.89918 0.0
N1993 N 0.57499 0.94985 0.89783 0.0
N1994 N 0.57493 0.99998 0.93777 0.0
C1995 C 0.57237 0.97447 0.95178 0.0
C1996 C 0.57258 0.94696 0.92979 0.0
C1997 C 0.92265 0.77833 0.73072 0.0
C1998 C 0.94914 0.77867 0.75287 0.0
C1999 C 0.89562 0.78303 0.74121 0.0
C2000 C 0.89245 0.78918 0.77496 0.0
H2001 H 0.92249 0.77416 0.70423 0.0
H2002 H 0.87686 0.78216 0.7222 0.0
S2003 S 0.95386 0.79343 0.84476 0.0
N2004 N 0.96921 0.78591 0.81161 0.0
N2005 N 0.91946 0.7956 0.83104 0.0
C2006 C 0.91871 0.79018 0.79776 0.0
C2007 C 0.94638 0.78472 0.78696 0.0
C2008 C 0.08944 0.09126 0.91421 0.0
C2009 C 0.10972 0.07621 0.90075 0.0
C2010 C 0.07733 0.08371 0.94255 0.0
C2011 C 0.08521 0.06108 0.95939 0.0
H2012 H 0.08263 0.10912 0.9027 0.0
H2013 H 0.0619 0.0961 0.95165 0.0
S2014 S 0.13629 0.01365 0.93451 0.0
N2015 N 0.13624 0.03647 0.90658 0.0
N2016 N 0.11398 0.02295 0.96003 0.0
C2017 C 0.10539 0.04575 0.94644 0.0
C2018 C 0.11747 0.05312 0.91719 0.0
C2019 C 0.82938 0.37699 0.55968 0.0
C2020 C 0.81947 0.40346 0.56782 0.0
C2021 C 0.84352 0.36437 0.58441 0.0
C2022 C 0.84758 0.37749 0.61793 0.0
H2023 H 0.82836 0.36734 0.53399 0.0
H2024 H 0.85238 0.34496 0.57723 0.0
S2025 S 0.82232 0.44456 0.65236 0.0
N2026 N 0.8123 0.44078 0.61178 0.0
N2027 N 0.83829 0.41649 0.65839 0.0
C2028 C 0.83571 0.40249 0.62659 0.0
C2029 C 0.82173 0.41561 0.60144 0.0
C2030 C 0.4687 0.99997 0.41748 0.0
C2031 C 0.45656 0.02371 0.40815 0.0
C2032 C 0.49445 1.0062 0.4413 0.0
C2033 C 0.5078 0.03613 0.45695 0.0
H2034 H 0.45812 0.97651 0.40663 0.0
H2035 H 0.5028 0.98747 0.44904 0.0
S2036 S 0.48736 0.10649 0.43855 0.0
N2037 N 0.46193 0.07858 0.41397 0.0
N2038 N 0.50989 0.08987 0.45958 0.0
C2039 C 0.49701 0.06014 0.44674 0.0
C2040 C 0.47131 0.05399 0.42211 0.0
C2041 C 0.7924 0.73533 0.14917 0.0
C2042 C 0.78782 0.75519 0.12662 0.0
C2043 C 0.79584 0.74463 0.18382 0.0
C2044 C 0.795 0.77429 0.19762 0.0
H2045 H 0.79287 0.71218 0.14002 0.0
H2046 H 0.7989 0.72827 0.19989 0.0
S2047 S 0.78677 0.8361 0.14967 0.0
N2048 N 0.78425 0.80648 0.121 0.0
N2049 N 0.79166 0.82411 0.18557 0.0
C2050 C 0.79121 0.79455 0.17534 0.0
C2051 C 0.7874 0.785 0.14011 0.0
C2052 C 0.10134 0.10311 0.69873 0.0
C2053 C 0.10978 0.0805 0.71523 0.0
C2054 C 0.08999 0.09738 0.6646 0.0
C2055 C 0.08649 0.06897 0.64495 0.0
H2056 H 0.10402 0.1258 0.71215 0.0
H2057 H 0.08511 0.11583 0.65338 0.0
S2058 S 0.10468 1.00133 0.67549 0.0
N2059 N 0.11339 0.02786 0.70892 0.0
N2060 N 0.09206 0.01743 0.64483 0.0
C2061 C 0.09456 0.04592 0.66105 0.0
C2062 C 0.10601 0.05156 0.69606 0.0
C2063 C 0.85372 0.38379 0.43525 0.0
C2064 C 0.84346 0.41041 0.43667 0.0
C2065 C 0.84434 0.36104 0.40745 0.0
C2066 C 0.82394 0.36383 0.38026 0.0
H2067 H 0.86865 0.38013 0.45597 0.0
H2068 H 0.8532 0.3411 0.4075 0.0
S2069 S 0.79209 0.4303 0.37094 0.0
N2070 N 0.81369 0.43955 0.40765 0.0
N2071 N 0.79461 0.39587 0.35615 0.0
C2072 C 0.8139 0.39061 0.38115 0.0
C2073 C 0.82404 0.41414 0.40917 0.0
C2074 C 0.43377 0.01335 0.24213 0.0
C2075 C 0.44945 0.03969 0.26482 0.0
C2076 C 0.44828 0.99862 0.22001 0.0
C2077 C 0.47873 1.01002 0.21945 0.0
H2078 H 0.41043 1.00306 0.2424 0.0
H2079 H 0.43575 0.97793 0.20357 0.0
S2080 S 0.52893 0.0803 0.26967 0.0
N2081 N 0.49658 0.07798 0.28297 0.0
N2082 N 0.52358 0.05046 0.24026 0.0
C2083 C 0.49431 0.03724 0.24021 0.0
C2084 C 0.47969 0.05208 0.2632 0.0
C2085 C 0.79826 0.71876 0.90536 0.0
C2086 C 0.79187 0.7323 0.93551 0.0
C2087 C 0.80459 0.73528 0.87949 0.0
C2088 C 0.80421 0.76622 0.88175 0.0
H2089 H 0.7985 0.69496 0.90157 0.0
H2090 H 0.80928 0.7233 0.85712 0.0
S2091 S 0.78839 0.81265 0.95575 0.0
N2092 N 0.78645 0.77893 0.96662 0.0
N2093 N 0.79557 0.80936 0.91744 0.0
C2094 C 0.79748 0.78004 0.91186 0.0
C2095 C 0.79204 0.76332 0.93872 0.0
C2096 C 0.89046 0.1252 0.07131 0.0
C2097 C 0.86548 0.10638 0.08044 0.0
C2098 C 0.90423 0.11425 0.0458 0.0
C2099 C 0.89341 0.0843 0.02907 0.0
H2100 H 0.8982 0.14902 0.08227 0.0
H2101 H 0.92299 0.12937 0.03866 0.0
S2102 S 0.83282 0.02443 0.04783 0.0
N2103 N 0.83343 0.05522 0.07403 0.0
N2104 N 0.85959 0.03478 0.02594 0.0
C2105 C 0.87028 0.06457 0.03976 0.0
C2106 C 0.85631 0.07558 0.0657 0.0
C2107 C 0.42564 0.48066 0.0523 0.0
C2108 C 0.42688 0.45952 0.07418 0.0
C2109 C 0.45167 0.50172 0.04824 0.0
C2110 C 0.47997 0.50287 0.0663 0.0
H2111 H 0.40458 0.4802 0.03722 0.0
H2112 H 0.44966 0.51637 0.0299 0.0
S2113 S 0.49491 0.45436 0.12909 0.0
N2114 N 0.4586 0.44229 0.11537 0.0
N2115 N 0.507 0.48215 0.10872 0.0
C2116 C 0.48118 0.48267 0.08928 0.0
C2117 C 0.45485 0.46099 0.09297 0.0
C2118 C 0.41579 0.62879 0.77413 0.0
C2119 C 0.41398 0.60081 0.78556 0.0
C2120 C 0.40276 0.65087 0.78903 0.0
C2121 C 0.38742 0.64559 0.81568 0.0
H2122 H 0.42847 0.63428 0.75455 0.0
H2123 H 0.406 0.67274 0.78082 0.0
S2124 S 0.37184 0.57464 0.85138 0.0
N2125 N 0.3922 0.5679 0.8226 0.0
N2126 N 0.36812 0.60958 0.85053 0.0
C2127 C 0.38366 0.61712 0.82585 0.0
C2128 C 0.39683 0.59465 0.81078 0.0
C2129 C 0.17859 0.62031 0.57146 0.0
C2130 C 0.19906 0.60262 0.57794 0.0
C2131 C 0.14838 0.60663 0.56057 0.0
C2132 C 0.1379 0.57491 0.5564 0.0
H2133 H 0.18582 0.64492 0.5755 0.0
H2134 H 0.13305 0.62113 0.55762 0.0
S2135 S 0.18331 0.51858 0.5655 0.0
N2136 N 0.20768 0.552 0.57588 0.0
N2137 N 0.15044 0.52598 0.55543 0.0
C2138 C 0.15849 0.5569 0.56022 0.0
C2139 C 0.18928 0.57086 0.57113 0.0
C2140 C 0.77731 0.99482 0.7536 0.0
C2141 C 0.74815 0.9973 0.756 0.0
C2142 C 0.79365 0.98444 0.77848 0.0
C2143 C 0.78141 0.97717 0.80664 0.0
H2144 H 0.78806 1.00259 0.73341 0.0
H2145 H 0.81633 0.98311 0.77635 0.0
S2146 S 0.70511 0.97749 0.82302 0.0
N2147 N 0.70682 0.98971 0.7872 0.0
N2148 N 0.73794 0.97037 0.83433 0.0
C2149 C 0.75177 0.97802 0.80847 0.0
C2150 C 0.73494 0.98799 0.78288 0.0
C2151 C 0.72265 0.93828 0.55611 0.0
C2152 C 0.75341 0.94963 0.55595 0.0
C2153 C 0.70131 0.95125 0.54027 0.0
C2154 C 0.71008 0.97617 0.52423 0.0
H2155 H 0.71479 0.91808 0.56669 0.0
H2156 H 0.67779 0.94066 0.5389 0.0
S2157 S 0.78749 0.01776 0.5212 0.0
N2158 N 0.79151 0.98991 0.54179 0.0
N2159 N 0.75103 0.01404 0.51205 0.0
C2160 C 0.74062 0.98938 0.52618 0.0
C2161 C 0.76242 0.97619 0.54214 0.0
C2162 C 0.4012 0.40409 0.75352 0.0
C2163 C 0.4011 0.43373 0.76761 0.0
C2164 C 0.37926 0.37874 0.75729 0.0
C2165 C 0.35631 0.38156 0.77592 0.0
H2166 H 0.41862 0.40027 0.73961 0.0
H2167 H 0.38088 0.35657 0.74597 0.0
S2168 S 0.346 0.45443 0.81841 0.0
N2169 N 0.3755 0.46471 0.80034 0.0
N2170 N 0.33542 0.41698 0.80918 0.0
C2171 C 0.35579 0.41119 0.79005 0.0
C2172 C 0.37784 0.43721 0.78549 0.0
C2173 C 0.23483 0.68793 0.27384 0.0
C2174 C 0.25057 0.66565 0.27908 0.0
C2175 C 0.25025 0.71809 0.27559 0.0
C2176 C 0.28151 0.72649 0.28338 0.0
H2177 H 0.21078 0.68175 0.26593 0.0
H2178 H 0.23791 0.73435 0.26843 0.0
S2179 S 0.33255 0.67791 0.30414 0.0
N2180 N 0.29875 0.6547 0.29612 0.0
N2181 N 0.32761 0.7118 0.29941 0.0
C2182 C 0.29727 0.70509 0.29125 0.0
C2183 C 0.28175 0.67443 0.28925 0.0
C2184 C 0.54082 0.67879 0.49084 0.0
C2185 C 0.52729 0.69589 0.51292 0.0
C2186 C 0.54547 0.64938 0.49555 0.0
C2187 C 0.53658 0.63457 0.52233 0.0
H2188 H 0.54867 0.6885 0.47007 0.0
H2189 H 0.55646 0.63839 0.47794 0.0
S2190 S 0.49937 0.66798 0.58707 0.0
N2191 N 0.50464 0.69408 0.56286 0.0
N2192 N 0.51309 0.64019 0.57087 0.0
C2193 C 0.5228 0.65122 0.54417 0.0
C2194 C 0.51827 0.68112 0.53969 0.0
C2195 C 0.68227 0.30306 0.71467 0.0
C2196 C 0.68594 0.31367 0.68445 0.0
C2197 C 0.70709 0.30071 0.73757 0.0
C2198 C 0.73708 0.30955 0.73199 0.0
H2199 H 0.65989 0.29497 0.71994 0.0
H2200 H 0.70241 0.29081 0.75926 0.0
S2201 S 0.75876 0.34054 0.65687 0.0
N2202 N 0.72186 0.33313 0.65022 0.0
N2203 N 0.76812 0.33151 0.69359 0.0
C2204 C 0.74083 0.32152 0.70226 0.0
C2205 C 0.71553 0.32279 0.67856 0.0
C2206 C 1.01239 0.40693 0.01969 0.0
C2207 C 0.0311 0.39043 0.005 0.0
C2208 C 1.01942 0.43931 0.02655 0.0
C2209 C 0.0452 0.45807 0.01844 0.0
H2210 H 0.99149 0.39458 0.0256 0.0
H2211 H 1.00383 0.44964 0.03771 0.0
S2212 S 0.10221 0.42707 0.97867 0.0
N2213 N 0.0773 0.39615 0.98241 0.0
N2214 N 0.0901 0.45627 0.99444 0.0
C2215 C 0.0644 0.44185 0.00379 0.0
C2216 C 0.0575 0.40859 0.99734 0.0
C2217 C 0.98516 0.79313 0.14929 0.0
C2218 C 1.01541 0.80603 0.16372 0.0
C2219 C 0.96322 0.78365 0.16874 0.0
C2220 C 0.97053 0.78709 0.2034 0.0
H2221 H 0.97856 0.78875 0.12258 0.0
H2222 H 0.94078 0.77182 0.15642 0.0
S2223 S 0.04494 0.82352 0.25416 0.0
N2224 N 0.0505 0.82472 0.21552 0.0
N2225 N 1.0091 0.80695 0.25178 0.0
C2226 C 1.00002 0.8019 0.21839 0.0
C2227 C 0.02249 0.81138 0.19865 0.0
C2228 C 0.58111 0.37273 0.1932 0.0
C2229 C 0.56152 0.34375 0.18171 0.0
C2230 C 0.58812 0.39367 0.17164 0.0
C2231 C 0.57547 0.38672 0.13785 0.0
H2232 H 0.59239 0.37883 0.21874 0.0
H2233 H 0.6049 0.41477 0.18106 0.0
S2234 S 0.52001 0.31607 0.09581 0.0
N2235 N 0.52738 0.31062 0.13457 0.0
N2236 N 0.54059 0.35022 0.09431 0.0
C2237 C 0.5544 0.35882 0.1264 0.0
C2238 C 0.54741 0.33729 0.14825 0.0
C2239 C 0.94638 0.3162 0.36154 0.0
C2240 C 0.96768 0.32433 0.34034 0.0
C2241 C 0.91514 0.31363 0.35264 0.0
C2242 C 0.90212 0.31888 0.32161 0.0
H2243 H 0.95385 0.31155 0.38591 0.0
H2244 H 0.90094 0.30725 0.37069 0.0
S2245 S 0.94653 0.34004 0.25535 0.0
N2246 N 0.97231 0.3376 0.28586 0.0
N2247 N 0.91415 0.33211 0.26885 0.0
C2248 C 0.92298 0.32715 0.29988 0.0
C2249 C 0.95523 0.33003 0.30919 0.0
C2250 C 0.04995 0.65732 0.66271 0.0
C2251 C 0.04184 0.68225 0.6504 0.0
C2252 C 0.05058 0.63052 0.64104 0.0
C2253 C 0.0435 0.62731 0.6059 0.0
H2254 H 0.05698 0.65894 0.68912 0.0
H2255 H 0.05748 0.61251 0.65211 0.0
S2256 S 1.01324 0.68294 0.56245 0.0
N2257 N 0.02225 0.6999 0.60144 0.0
N2258 N 0.02189 0.6498 0.56165 0.0
C2259 C 0.03303 0.65122 0.594 0.0
C2260 C 0.03273 0.67847 0.61587 0.0
C2261 C 0.67095 0.81837 0.80528 0.0
C2262 C 0.66642 0.82344 0.83888 0.0
C2263 C 0.69922 0.81489 0.79614 0.0
C2264 C 0.72525 0.81687 0.81985 0.0
H2265 H 0.65221 0.816 0.78571 0.0
H2266 H 0.70063 0.8106 0.77001 0.0
S2267 S 0.72593 0.82894 0.91104 0.0
N2268 N 0.69148 0.82929 0.89561 0.0
N2269 N 0.74302 0.82379 0.87888 0.0
C2270 C 0.72084 0.82213 0.85328 0.0
C2271 C 0.69221 0.82507 0.86251 0.0
C2272 C 0.53644 0.53297 0.686 0.0
C2273 C 0.50826 0.53636 0.69262 0.0
C2274 C 0.54545 0.53632 0.65512 0.0
C2275 C 0.52717 0.54402 0.62907 0.0
H2276 H 0.5519 0.52743 0.70487 0.0
H2277 H 0.56725 0.53287 0.65183 0.0
S2278 S 0.45055 0.5546 0.63248 0.0
N2279 N 0.46139 0.54681 0.6695 0.0
N2280 N 0.4787 0.55404 0.61194 0.0
C2281 C 0.49867 0.54718 0.63504 0.0
C2282 C 0.48921 0.54324 0.66656 0.0
C2283 C 0.78624 0.17053 0.97204 0.0
C2284 C 0.79331 0.18001 0.00649 0.0
C2285 C 0.77509 0.18873 0.95147 0.0
C2286 C 0.77 0.2167 0.9647 0.0
H2287 H 0.78794 0.14828 0.96102 0.0
H2288 H 0.7689 0.18001 0.92514 0.0
S2289 S 0.79174 0.25514 0.05224 0.0
N2290 N 0.79968 0.22176 0.05235 0.0
N2291 N 0.77816 0.25565 0.01331 0.0
C2292 C 0.77969 0.22778 0.99864 0.0
C2293 C 0.79155 0.2095 0.01964 0.0
C2294 C 0.13119 0.58448 0.17913 0.0
C2295 C 0.15061 0.56525 0.18147 0.0
C2296 C 0.11241 0.58273 0.14945 0.0
C2297 C 0.11193 0.56103 0.12175 0.0
H2298 H 0.1311 0.60149 0.20004 0.0
H2299 H 0.09827 0.59855 0.14822 0.0
S2300 S 0.15866 0.50516 0.11623 0.0
N2301 N 0.16896 0.52427 0.15441 0.0
N2302 N 0.13247 0.51981 0.09864 0.0
C2303 C 0.13127 0.54154 0.12397 0.0
C2304 C 0.15089 0.54387 0.15398 0.0
C2305 C 0.80438 0.84608 0.44757 0.0
C2306 C 0.83306 0.85836 0.46694 0.0
C2307 C 0.80075 0.83521 0.41301 0.0
C2308 C 0.82556 0.83608 0.39628 0.0
H2309 H 0.78461 0.84481 0.45913 0.0
H2310 H 0.77828 0.82598 0.39925 0.0
S2311 S 0.90464 0.8719 0.43404 0.0
N2312 N 0.88627 0.87401 0.46543 0.0
N2313 N 0.8792 0.85453 0.40135 0.0
C2314 C 0.85403 0.84948 0.41514 0.0
C2315 C 0.8578 0.86032 0.45012 0.0
C2316 C 0.52451 0.53475 0.88952 0.0
C2317 C 0.49362 0.52072 0.87997 0.0
C2318 C 0.5387 0.53988 0.92316 0.0
C2319 C 0.52241 0.53196 0.94865 0.0
H2320 H 0.53781 0.54184 0.87095 0.0
H2321 H 0.56237 0.55091 0.92936 0.0
S2322 S 0.44153 0.4941 0.93752 0.0
N2323 N 0.44777 0.49812 0.89968 0.0
N2324 N 0.47405 0.50894 0.96189 0.0
C2325 C 0.49175 0.51791 0.93944 0.0
C2326 C 0.47751 0.512 0.90546 0.0
C2327 C 0.77233 0.22753 0.16239 0.0
C2328 C 0.79068 0.20703 0.16082 0.0
C2329 C 0.77639 0.24966 0.19032 0.0
C2330 C 0.79913 0.25213 0.21727 0.0
H2331 H 0.75438 0.22619 0.14221 0.0
H2332 H 0.76122 0.26449 0.19106 0.0
S2333 S 0.85458 0.20517 0.22426 0.0
N2334 N 0.83318 0.19121 0.18789 0.0
N2335 N 0.84131 0.23339 0.24007 0.0
C2336 C 0.8182 0.2323 0.21562 0.0
C2337 C 0.81384 0.20956 0.18741 0.0
C2338 C 0.20284 0.60601 0.36766 0.0
C2339 C 0.19328 0.58206 0.34046 0.0
C2340 C 0.18235 0.61511 0.38625 0.0
C2341 C 0.15181 0.60055 0.37816 0.0
H2342 H 0.22604 0.61876 0.37378 0.0
H2343 H 0.19027 0.63414 0.40649 0.0
S2344 S 0.11563 0.53445 0.31254 0.0
N2345 N 0.15135 0.54215 0.30863 0.0
N2346 N 0.113 0.55969 0.34384 0.0
C2347 C 0.14206 0.57567 0.35242 0.0
C2348 C 0.16282 0.56626 0.3335 0.0
C2349 C 0.82663 0.83138 0.65506 0.0
C2350 C 0.82107 0.85919 0.64837 0.0
C2351 C 0.82288 0.82124 0.68534 0.0
C2352 C 0.8123 0.83762 0.71075 0.0
H2353 H 0.83437 0.81712 0.63674 0.0
H2354 H 0.82878 0.80016 0.6888 0.0
S2355 S 0.79681 0.91361 0.70774 0.0
N2356 N 0.80654 0.90448 0.67129 0.0
N2357 N 0.79849 0.88487 0.72779 0.0
C2358 C 0.80741 0.86608 0.70501 0.0
C2359 C 0.81185 0.87684 0.67404 0.0
C2360 C 0.76628 0.53047 0.52357 0.0
C2361 C 0.75879 0.49982 0.50818 0.0
C2362 C 0.74924 0.54081 0.54572 0.0
C2363 C 0.72392 0.52102 0.55241 0.0
H2364 H 0.78684 0.54593 0.52072 0.0
H2365 H 0.75659 0.56404 0.5588 0.0
S2366 S 0.68997 0.44145 0.51191 0.0
N2367 N 0.7211 0.45143 0.49641 0.0
N2368 N 0.68842 0.4717 0.53766 0.0
C2369 C 0.7139 0.49159 0.5342 0.0
C2370 C 0.73145 0.4808 0.51183 0.0
C2371 C 0.17348 0.13015 0.51174 0.0
C2372 C 0.19234 0.14397 0.54212 0.0
C2373 C 0.14554 0.10966 0.51084 0.0
C2374 C 0.13603 0.10151 0.54018 0.0
H2375 H 0.18 0.13569 0.48857 0.0
H2376 H 0.13139 0.10001 0.48709 0.0
S2377 S 0.17684 0.13021 0.62593 0.0
N2378 N 0.19888 0.14756 0.60232 0.0
N2379 N 0.14761 0.10812 0.60013 0.0
C2380 C 0.155 0.11428 0.57046 0.0
C2381 C 0.18278 0.13578 0.57156 0.0
C2382 C 0.21126 1.004 0.78027 0.0
C2383 C 0.20211 1.00401 0.81157 0.0
C2384 C 0.22164 0.97993 0.76552 0.0
C2385 C 0.22363 0.95509 0.78161 0.0
H2386 H 0.20943 0.0222 0.76637 0.0
H2387 H 0.22746 0.98037 0.74094 0.0
S2388 S 0.20623 0.94543 0.86533 0.0
N2389 N 0.19843 0.978 0.85939 0.0
N2390 N 0.21822 0.93287 0.83148 0.0
C2391 C 0.21652 0.9556 0.81371 0.0
C2392 C 0.20568 0.98003 0.82874 0.0
C2393 C 0.44445 0.98564 0.04126 0.0
C2394 C 0.42216 1.00178 0.03799 0.0
C2395 C 0.47442 1.00025 0.04242 0.0
C2396 C 0.48306 0.03159 0.04234 0.0
H2397 H 0.43854 0.96124 0.04047 0.0
H2398 H 0.49048 0.98654 0.04082 0.0
S2399 S 0.43315 0.08395 0.03375 0.0
N2400 N 0.41048 0.05058 0.03389 0.0
N2401 N 0.46718 0.07833 0.03832 0.0
C2402 C 0.46106 0.04816 0.04023 0.0
C2403 C 0.43049 0.03318 0.03774 0.0
C2404 C 0.84003 0.60518 0.83686 0.0
C2405 C 0.87151 0.61136 0.84299 0.0
C2406 C 0.82545 0.61771 0.81255 0.0
C2407 C 0.84211 0.63714 0.79453 0.0
H2408 H 0.82667 0.58817 0.84841 0.0
H2409 H 0.80122 0.61105 0.80669 0.0
S2410 S 0.92417 0.66672 0.80696 0.0
N2411 N 0.91855 0.64258 0.83333 0.0
N2412 N 0.8906 0.66667 0.788 0.0
C2413 C 0.8732 0.64653 0.80322 0.0
C2414 C 0.88814 0.63373 0.82781 0.0
C2415 C 0.88846 0.67924 0.0516 0.0
C2416 C 0.85853 0.66439 0.03758 0.0
C2417 C 0.90916 0.66286 0.06182 0.0
C2418 C 0.90088 0.63103 0.05797 0.0
H2419 H 0.89563 0.70384 0.05654 0.0
H2420 H 0.93124 0.67527 0.07475 0.0
S2421 S 0.82707 0.58071 0.01897 0.0
N2422 N 0.82283 0.61543 0.01746 0.0
N2423 N 0.86205 0.58491 0.03676 0.0
C2424 C 0.8719 0.6157 0.04194 0.0
C2425 C 0.85065 0.63231 0.03167 0.0
C2426 C 0.21516 0.20152 0.83703 0.0
C2427 C 0.21309 0.17234 0.81966 0.0
C2428 C 0.23643 0.22713 0.83247 0.0
C2429 C 0.25657 0.22501 0.80999 0.0
H2430 H 0.2 0.20478 0.85426 0.0
H2431 H 0.23662 0.24896 0.84642 0.0
S2432 S 0.26016 0.15391 0.75737 0.0
N2433 N 0.23337 0.14275 0.77897 0.0
N2434 N 0.27248 0.19102 0.76943 0.0
C2435 C 0.25497 0.1959 0.79251 0.0
C2436 C 0.23349 0.16961 0.79755 0.0
C2437 C 0.37419 0.92428 0.32956 0.0
C2438 C 0.36515 0.94023 0.30494 0.0
C2439 C 0.35932 0.89426 0.32896 0.0
C2440 C 0.33535 0.87973 0.3036 0.0
H2441 H 0.39242 0.9351 0.34966 0.0
H2442 H 0.36641 0.8824 0.34847 0.0
S2443 S 0.30475 0.91122 0.23238 0.0
N2444 N 0.33203 0.93948 0.25393 0.0
N2445 N 0.30371 0.88235 0.25282 0.0
C2446 C 0.32639 0.89515 0.27853 0.0
C2447 C 0.34154 0.92578 0.27916 0.0
C2448 C 0.56337 0.41177 0.5708 0.0
C2449 C 0.59249 0.41022 0.58473 0.0
C2450 C 0.55682 0.43966 0.56282 0.0
C2451 C 0.57853 0.46814 0.56831 0.0
H2452 H 0.54551 0.39117 0.56517 0.0
H2453 H 0.53428 0.43878 0.55241 0.0
S2454 S 0.65748 0.47743 0.60777 0.0
N2455 N 0.64265 0.4409 0.60567 0.0
N2456 N 0.63055 0.49181 0.59142 0.0
C2457 C 0.60733 0.46676 0.58339 0.0
C2458 C 0.61409 0.43853 0.59118 0.0
C2459 C 0.43456 0.79583 0.37858 0.0
C2460 C 0.42906 0.77726 0.40308 0.0
C2461 C 0.41109 0.79843 0.35407 0.0
C2462 C 0.38098 0.78234 0.35259 0.0
H2463 H 0.457 0.80941 0.3791 0.0
H2464 H 0.4165 0.8141 0.33699 0.0
S2465 S 0.35506 0.72783 0.40835 0.0
N2466 N 0.39127 0.74079 0.42231 0.0
N2467 N 0.34796 0.7451 0.37662 0.0
C2468 C 0.37561 0.76268 0.37604 0.0
C2469 C 0.39931 0.76031 0.40104 0.0
C2470 C 0.0717 0.69675 0.03992 0.0
C2471 C 0.08215 0.71604 0.07123 0.0
C2472 C 0.0693 0.66481 0.03527 0.0
C2473 C 0.07655 0.6496 0.06171 0.0
H2474 H 0.06503 0.70637 0.01836 0.0
H2475 H 0.06093 0.65174 0.01063 0.0
S2476 S 0.10766 0.68839 0.14839 0.0
N2477 N 0.10197 0.71649 0.12893 0.0
N2478 N 0.09662 0.65704 0.12038 0.0
C2479 C 0.08755 0.66839 0.09307 0.0
C2480 C 0.09056 0.70118 0.09775 0.0
C2481 C 0.09142 0.29531 0.89173 0.0
C2482 C 0.10057 0.29637 0.92593 0.0
C2483 C 0.11219 0.3048 0.87108 0.0
C2484 C 0.14293 0.31546 0.88371 0.0
H2485 H 0.06789 0.28838 0.88102 0.0
H2486 H 0.104 0.30545 0.8454 0.0
S2487 S 0.17921 0.32054 0.97041 0.0
N2488 N 0.14319 0.30709 0.97081 0.0
N2489 N 0.18193 0.32483 0.93167 0.0
C2490 C 0.1527 0.31485 0.91719 0.0
C2491 C 0.1316 0.30531 0.93838 0.0
C2492 C 0.58484 0.76599 0.95933 0.0
C2493 C 0.56794 0.7721 0.93112 0.0
C2494 C 0.57334 0.74184 0.97558 0.0
C2495 C 0.54448 0.72298 0.96435 0.0
H2496 H 0.6068 0.78055 0.96965 0.0
H2497 H 0.58649 0.73888 0.99808 0.0
S2498 S 0.49216 0.72643 0.88982 0.0
N2499 N 0.52169 0.75469 0.89089 0.0
N2500 N 0.50006 0.71016 0.92221 0.0
C2501 C 0.52795 0.72761 0.93531 0.0
C2502 C 0.5397 0.75191 0.91846 0.0
C2503 C 0.16189 0.77189 0.78888 0.0
C2504 C 0.14724 0.77328 0.75682 0.0
C2505 C 0.19396 0.7773 0.79705 0.0
C2506 C 0.21352 0.78476 0.77384 0.0
H2507 H 0.14845 0.76543 0.80755 0.0
H2508 H 0.20348 0.77552 0.82191 0.0
S2509 S 0.18703 0.79009 0.6861 0.0
N2510 N 0.15579 0.78181 0.70167 0.0
N2511 N 0.21447 0.79231 0.7168 0.0
C2512 C 0.199 0.78634 0.74193 0.0
C2513 C 0.16661 0.78049 0.73358 0.0
C2514 C 0.08785 0.4383 0.46046 0.0
C2515 C 0.06168 0.42043 0.43926 0.0
C2516 C 0.08747 0.46513 0.48213 0.0
C2517 C 0.06095 0.47518 0.48357 0.0
H2518 H 0.10852 0.43108 0.46105 0.0
H2519 H 0.108 0.47782 0.49826 0.0
S2520 S 0.98691 0.43787 0.43214 0.0
N2521 N 1.00891 0.4162 0.42031 0.0
N2522 N 1.00819 0.46525 0.46126 0.0
C2523 C 0.0349 0.45767 0.46238 0.0
C2524 C 0.0353 0.43079 0.44022 0.0
C2525 C 0.41778 0.25412 0.23919 0.0
C2526 C 0.44751 0.2714 0.25253 0.0
C2527 C 0.39144 0.26077 0.24986 0.0
C2528 C 0.39206 0.2857 0.27472 0.0
H2529 H 0.41457 0.23491 0.21956 0.0
H2530 H 0.37002 0.2461 0.23775 0.0
S2531 S 0.46379 0.33916 0.31883 0.0
N2532 N 0.4753 0.31538 0.2928 0.0
N2533 N 0.42687 0.32755 0.31301 0.0
C2534 C 0.42176 0.3031 0.28877 0.0
C2535 C 0.44883 0.29616 0.27782 0.0
C2536 C 0.59894 0.5939 0.41816 0.0
C2537 C 0.61313 0.57459 0.40009 0.0
C2538 C 0.58625 0.58598 0.44591 0.0
C2539 C 0.58814 0.55909 0.45806 0.0
H2540 H 0.5976 0.61552 0.4109 0.0
H2541 H 0.57575 0.60161 0.45882 0.0
S2542 S 0.61924 0.49846 0.41812 0.0
N2543 N 0.62521 0.52523 0.39473 0.0
N2544 N 0.6028 0.51154 0.44813 0.0
C2545 C 0.60143 0.53904 0.43995 0.0
C2546 C 0.61355 0.54653 0.41079 0.0
C2547 C 0.34197 0.9271 0.09639 0.0
C2548 C 0.31997 0.91001 0.06963 0.0
C2549 C 0.35578 0.91287 0.11968 0.0
C2550 C 0.34773 0.88122 0.1173 0.0
H2551 H 0.34989 0.95152 0.09846 0.0
H2552 H 0.37351 0.92658 0.13907 0.0
S2553 S 0.28832 0.82649 0.05607 0.0
N2554 N 0.28851 0.85985 0.04475 0.0
N2555 N 0.31442 0.83332 0.08932 0.0
C2556 C 0.32436 0.864 0.09252 0.0
C2557 C 0.3104 0.87839 0.06849 0.0
C2558 C 0.9789 0.50474 0.91153 0.0
C2559 C 0.95908 0.52356 0.90821 0.0
C2560 C 1.00378 0.51308 0.9367 0.0
C2561 C 1.00909 0.54021 0.95931 0.0
H2562 H 0.97518 0.48352 0.89463 0.0
H2563 H 1.01824 0.49767 0.93923 0.0
S2564 S 0.96409 0.5977 0.96017 0.0
N2565 N 0.94648 0.57067 0.92877 0.0
N2566 N 0.99358 0.58665 0.9759 0.0
C2567 C 0.98991 0.55969 0.95556 0.0
C2568 C 0.96468 0.55121 0.93001 0.0
C2569 C 0.29398 0.23614 0.64552 0.0
C2570 C 0.28581 0.25466 0.62283 0.0
C2571 C 0.29749 0.24543 0.68028 0.0
C2572 C 0.29318 0.27377 0.69403 0.0
H2573 H 0.29704 0.21393 0.6364 0.0
H2574 H 0.30323 0.23003 0.69644 0.0
S2575 S 0.27524 0.33231 0.64548 0.0
N2576 N 0.27545 0.30351 0.61699 0.0
N2577 N 0.28311 0.32135 0.68146 0.0
C2578 C 0.28612 0.29287 0.67149 0.0
C2579 C 0.28216 0.28325 0.63626 0.0
C2580 C 0.59773 0.60072 0.19885 0.0
C2581 C 0.60874 0.57903 0.21479 0.0
C2582 C 0.58687 0.59526 0.16453 0.0
C2583 C 0.58666 0.56805 0.14413 0.0
H2584 H 0.59781 0.62248 0.21288 0.0
H2585 H 0.57924 0.61289 0.1539 0.0
S2586 S 0.61055 0.50233 0.17347 0.0
N2587 N 0.617 0.52808 0.20735 0.0
N2588 N 0.59676 0.51803 0.14312 0.0
C2589 C 0.59691 0.54574 0.15982 0.0
C2590 C 0.60783 0.55116 0.19492 0.0
C2591 C 0.36112 0.89223 0.91917 0.0
C2592 C 0.33788 0.90506 0.9281 0.0
C2593 C 0.35499 0.86614 0.89528 0.0
C2594 C 0.32561 0.85283 0.87925 0.0
H2595 H 0.3842 0.90248 0.93046 0.0
H2596 H 0.37338 0.85727 0.88807 0.0
S2597 S 0.25646 0.87503 0.89582 0.0
N2598 N 0.2839 0.90057 0.9208 0.0
N2599 N 0.2728 0.85173 0.87538 0.0
C2600 C 0.30204 0.86443 0.88871 0.0
C2601 C 0.3081 0.89066 0.91325 0.0
C2602 C 0.97731 0.54532 0.75922 0.0
C2603 C 0.9475 0.53188 0.76167 0.0
C2604 C 0.99248 0.53108 0.73733 0.0
C2605 C 0.97855 0.5026 0.718 0.0
H2606 H 0.98918 0.56673 0.77474 0.0
H2607 H 1.01535 0.54216 0.73579 0.0
S2608 S 0.90045 0.45868 0.71249 0.0
N2609 N 0.90379 0.48949 0.7399 0.0
N2610 N 0.93341 0.46211 0.70056 0.0
C2611 C 0.94869 0.48925 0.71925 0.0
C2612 C 0.93282 0.50412 0.7406 0.0
C2613 C 0.29742 0.23641 0.41979 0.0
C2614 C 0.2856 0.25299 0.44392 0.0
C2615 C 0.30397 0.2474 0.39029 0.0
C2616 C 0.29927 0.27562 0.38356 0.0
H2617 H 0.3012 0.21447 0.42341 0.0
H2618 H 0.31264 0.23352 0.37252 0.0
S2619 S 0.27092 0.32911 0.43988 0.0
N2620 N 0.27103 0.29996 0.45951 0.0
N2621 N 0.28328 0.3205 0.40504 0.0
C2622 C 0.28824 0.29272 0.40804 0.0
C2623 C 0.28142 0.28147 0.4378 0.0
C2624 C 0.39131 0.62799 0.57204 0.0
C2625 C 0.36852 0.60917 0.58453 0.0
C2626 C 0.40519 0.61578 0.5474 0.0
C2627 C 0.39691 0.58454 0.53517 0.0
H2628 H 0.39676 0.65247 0.57922 0.0
H2629 H 0.42178 0.63089 0.53711 0.0
S2630 S 0.34264 0.52513 0.56394 0.0
N2631 N 0.34128 0.55741 0.58616 0.0
N2632 N 0.36781 0.53449 0.53985 0.0
C2633 C 0.37632 0.56516 0.54959 0.0
C2634 C 0.36211 0.57751 0.57452 0.0
C2635 C 0.92227 0.9852 0.55599 0.0
C2636 C 0.9228 0.95781 0.56806 0.0
C2637 C 0.94883 1.00554 0.55183 0.0
C2638 C 0.97735 1.00022 0.56093 0.0
H2639 H 0.90112 0.99086 0.54922 0.0
H2640 H 0.94664 0.02515 0.54079 0.0
S2641 S 0.99044 0.92931 0.58908 0.0
N2642 N 0.95389 0.92454 0.58465 0.0
N2643 N 1.00327 0.96329 0.57996 0.0
C2644 C 0.97778 0.97241 0.5724 0.0
C2645 C 0.95078 0.95124 0.57527 0.0
C2646 C 0.91992 0.13678 0.28437 0.0
C2647 C 0.91243 0.10527 0.28513 0.0
C2648 C 0.90388 0.15606 0.29909 0.0
C2649 C 0.87991 0.14439 0.31501 0.0
H2650 H 0.93926 0.14693 0.27396 0.0
H2651 H 0.91148 0.18037 0.2999 0.0
S2652 S 0.84789 0.0635 0.31912 0.0
N2653 N 0.8766 0.06313 0.2995 0.0
N2654 N 0.84696 0.09953 0.32716 0.0
C2655 C 0.87066 0.11286 0.31356 0.0
C2656 C 0.88678 0.09324 0.2986 0.0
C2657 C 0.69078 0.0688 0.09037 0.0
C2658 C 0.70362 0.09831 0.08587 0.0
C2659 C 0.66024 0.05622 0.08022 0.0
C2660 C 0.64142 0.07326 0.06643 0.0
H2661 H 0.7045 0.05524 0.10141 0.0
H2662 H 0.65135 0.03317 0.084 0.0
S2663 S 0.66541 0.15213 0.04955 0.0
N2664 N 0.69659 0.14421 0.06584 0.0
N2665 N 0.63847 0.12139 0.04852 0.0
C2666 C 0.65436 0.10293 0.06156 0.0
C2667 C 0.6857 0.11533 0.071 0.0
C2668 C 0.27836 0.50242 0.26833 0.0
C2669 C 0.24791 0.49396 0.25376 0.0
C2670 C 0.28894 0.48813 0.29346 0.0
C2671 C 0.26952 0.46469 0.3042 0.0
H2672 H 0.29363 0.52175 0.26215 0.0
H2673 H 0.31214 0.49615 0.3054 0.0
S2674 S 0.19042 0.42844 0.26841 0.0
N2675 N 0.19999 0.45675 0.24775 0.0
N2676 N 0.22063 0.42948 0.29499 0.0
C2677 C 0.24012 0.45359 0.28751 0.0
C2678 C 0.22915 0.46821 0.26195 0.0
C2679 C 0.26227 0.46867 0.04562 0.0
C2680 C 0.25304 0.43818 0.05037 0.0
C2681 C 0.24151 0.48419 0.03308 0.0
C2682 C 0.21086 0.46974 0.02496 0.0
H2683 H 0.28582 0.48028 0.05041 0.0
H2684 H 0.24964 0.50692 0.02786 0.0
S2685 S 0.17457 0.39138 0.03446 0.0
N2686 N 0.21054 0.39504 0.04754 0.0
N2687 N 0.17194 0.42438 0.02399 0.0
C2688 C 0.20114 0.44008 0.03123 0.0
C2689 C 0.22212 0.42425 0.04399 0.0
C2690 C 0.87825 0.93758 0.29042 0.0
C2691 C 0.9016 0.93604 0.27197 0.0
C2692 C 0.85832 0.91103 0.29573 0.0
C2693 C 0.86049 0.88177 0.28231 0.0
H2694 H 0.87547 0.95947 0.30114 0.0
H2695 H 0.84146 0.91356 0.31093 0.0
S2696 S 0.91849 0.86547 0.23281 0.0
N2697 N 0.92645 0.90282 0.24165 0.0
N2698 N 0.88844 0.85354 0.24928 0.0
C2699 C 0.88362 0.8802 0.26335 0.0
C2700 C 0.90423 0.90708 0.2588 0.0
C2701 C 0.73067 0.18507 0.75153 0.0
C2702 C 0.73975 0.16539 0.77185 0.0
C2703 C 0.74772 0.21485 0.7548 0.0
C2704 C 0.77363 0.22543 0.77879 0.0
H2705 H 0.71185 0.17677 0.73143 0.0
H2706 H 0.74181 0.22899 0.73713 0.0
S2707 S 0.80339 0.18403 0.84129 0.0
N2708 N 0.77356 0.1593 0.81925 0.0
N2709 N 0.80586 0.21549 0.82512 0.0
C2710 C 0.78139 0.20679 0.80093 0.0
C2711 C 0.76421 0.17654 0.79756 0.0
loop_
_geom_bond_atom_site_label_1
_geom_bond_atom_site_label_2
_geom_bond_distance
_geom_bond_site_symmetry_2
_ccdc_geom_bond_type
C0 O1 1.160 . S
C0 O7 1.185 . S
O1 C0 1.160 . S
O2 Zn3 1.899 . S
O2 C10 1.284 . S
Zn3 O2 1.899 . S
Zn3 O4 2.032 . S
Zn3 O7 2.086 . S
Zn3 O12 1.977 . S
O4 Zn3 2.032 . S
O4 C8 1.278 . S
C5 O6 1.203 . S
C5 O12 1.267 1_655 S
O6 C5 1.203 . S
O7 C0 1.185 . S
O7 Zn3 2.086 . S
C8 O4 1.278 . S
C8 O9 1.211 . S
O9 C8 1.211 . S
C10 O2 1.284 . S
C10 O11 1.273 . S
O11 C10 1.273 . S
O12 Zn3 1.977 . S
O12 C5 1.267 1_455 S
C13 O14 1.160 . S
C13 O20 1.185 . S
O14 C13 1.160 . S
O15 Zn16 1.899 . S
O15 C23 1.284 . S
Zn16 O15 1.899 . S
Zn16 O17 2.032 . S
Zn16 O20 2.086 1_455 S
Zn16 O25 1.977 . S
O17 Zn16 2.032 . S
O17 C21 1.278 . S
C18 O19 1.203 . S
C18 O25 1.267 . S
O19 C18 1.203 . S
O20 C13 1.185 . S
O20 Zn16 2.086 1_655 S
C21 O17 1.278 . S
C21 O22 1.211 . S
O22 C21 1.211 . S
C23 O15 1.284 . S
C23 O24 1.273 . S
O24 C23 1.273 . S
O25 Zn16 1.977 . S
O25 C18 1.267 . S
C26 O27 1.160 . S
C26 O33 1.185 . S
O27 C26 1.160 . S
O28 Zn29 1.899 . S
O28 C36 1.284 . S
Zn29 O28 1.899 . S
Zn29 O30 2.032 . S
Zn29 O33 2.086 . S
Zn29 O38 1.977 . S
O30 Zn29 2.032 . S
O30 C34 1.278 . S
C31 O32 1.203 . S
C31 O38 1.267 . S
O32 C31 1.203 . S
O33 C26 1.185 . S
O33 Zn29 2.086 . S
C34 O30 1.278 . S
C34 O35 1.211 . S
O35 C34 1.211 . S
C36 O28 1.284 . S
C36 O37 1.273 . S
O37 C36 1.273 . S
O38 Zn29 1.977 . S
O38 C31 1.267 . S
C39 O40 1.160 . S
C39 O46 1.185 . S
O40 C39 1.160 . S
O41 Zn42 1.899 . S
O41 C49 1.284 . S
Zn42 O41 1.899 . S
Zn42 O43 2.032 . S
Zn42 O46 2.086 . S
Zn42 O51 1.977 . S
O43 Zn42 2.032 . S
O43 C47 1.278 . S
C44 O45 1.203 . S
C44 O51 1.267 . S
O45 C44 1.203 . S
O46 C39 1.185 . S
O46 Zn42 2.086 . S
C47 O43 1.278 . S
C47 O48 1.211 . S
O48 C47 1.211 . S
C49 O41 1.284 . S
C49 O50 1.273 . S
O50 C49 1.273 . S
O51 Zn42 1.977 . S
O51 C44 1.267 . S
C52 O53 1.160 . S
C52 O59 1.185 . S
O53 C52 1.160 . S
O54 Zn55 1.899 . S
O54 C62 1.284 . S
Zn55 O54 1.899 . S
Zn55 O56 2.032 . S
Zn55 O59 2.086 . S
Zn55 O64 1.977 . S
O56 Zn55 2.032 . S
O56 C60 1.278 . S
C57 O58 1.203 . S
C57 O64 1.267 . S
O58 C57 1.203 . S
O59 C52 1.185 . S
O59 Zn55 2.086 . S
C60 O56 1.278 . S
C60 O61 1.211 . S
O61 C60 1.211 . S
C62 O54 1.284 . S
C62 O63 1.273 . S
O63 C62 1.273 . S
O64 Zn55 1.977 . S
O64 C57 1.267 . S
C65 O66 1.160 . S
C65 O72 1.185 . S
O66 C65 1.160 . S
O67 Zn68 1.899 . S
O67 C75 1.284 . S
Zn68 O67 1.899 . S
Zn68 O69 2.032 . S
Zn68 O72 2.086 . S
Zn68 O77 1.977 . S
O69 Zn68 2.032 . S
O69 C73 1.278 . S
C70 O71 1.203 . S
C70 O77 1.267 . S
O71 C70 1.203 . S
O72 C65 1.185 . S
O72 Zn68 2.086 . S
C73 O69 1.278 . S
C73 O74 1.211 . S
O74 C73 1.211 . S
C75 O67 1.284 . S
C75 O76 1.273 . S
O76 C75 1.273 . S
O77 Zn68 1.977 . S
O77 C70 1.267 . S
C78 O79 1.160 . S
C78 O85 1.185 . S
O79 C78 1.160 . S
O80 Zn81 1.899 . S
O80 C88 1.284 . S
Zn81 O80 1.899 . S
Zn81 O82 2.032 . S
Zn81 O85 2.086 . S
Zn81 O90 1.977 . S
O82 Zn81 2.032 . S
O82 C86 1.278 . S
C83 O84 1.203 . S
C83 O90 1.267 . S
O84 C83 1.203 . S
O85 C78 1.185 . S
O85 Zn81 2.086 . S
C86 O82 1.278 . S
C86 O87 1.211 . S
O87 C86 1.211 . S
C88 O80 1.284 . S
C88 O89 1.273 . S
O89 C88 1.273 . S
O90 Zn81 1.977 . S
O90 C83 1.267 . S
C91 O92 1.160 . S
C91 O98 1.185 . S
O92 C91 1.160 . S
O93 Zn94 1.899 . S
O93 C101 1.284 1_456 S
Zn94 O93 1.899 . S
Zn94 O95 2.032 . S
Zn94 O98 2.086 . S
Zn94 O103 1.977 1_455 S
O95 Zn94 2.032 . S
O95 C99 1.278 1_556 S
C96 O97 1.203 . S
C96 O103 1.267 . S
O97 C96 1.203 . S
O98 C91 1.185 . S
O98 Zn94 2.086 . S
C99 O95 1.278 1_554 S
C99 O100 1.211 1_455 S
O100 C99 1.211 1_655 S
C101 O93 1.284 1_654 S
C101 O102 1.273 . S
O102 C101 1.273 . S
O103 Zn94 1.977 1_655 S
O103 C96 1.267 . S
C104 O105 1.160 . S
C104 O111 1.185 . S
O105 C104 1.160 . S
O106 Zn107 1.899 . S
O106 C114 1.284 . S
Zn107 O106 1.899 . S
Zn107 O108 2.032 . S
Zn107 O111 2.086 . S
Zn107 O116 1.977 1_545 S
O108 Zn107 2.032 . S
O108 C112 1.278 . S
C109 O110 1.203 . S
C109 O116 1.267 . S
O110 C109 1.203 . S
O111 C104 1.185 . S
O111 Zn107 2.086 . S
C112 O108 1.278 . S
C112 O113 1.211 1_545 S
O113 C112 1.211 1_565 S
C114 O106 1.284 . S
C114 O115 1.273 1_545 S
O115 C114 1.273 1_565 S
O116 Zn107 1.977 1_565 S
O116 C109 1.267 . S
C117 O118 1.160 . S
C117 O124 1.185 . S
O118 C117 1.160 . S
O119 Zn120 1.899 . S
O119 C127 1.284 . S
Zn120 O119 1.899 . S
Zn120 O121 2.032 . S
Zn120 O124 2.086 . S
Zn120 O129 1.977 . S
O121 Zn120 2.032 . S
O121 C125 1.278 . S
C122 O123 1.203 . S
C122 O129 1.267 . S
O123 C122 1.203 . S
O124 C117 1.185 . S
O124 Zn120 2.086 . S
C125 O121 1.278 . S
C125 O126 1.211 . S
O126 C125 1.211 . S
C127 O119 1.284 . S
C127 O128 1.273 . S
O128 C127 1.273 . S
O129 Zn120 1.977 . S
O129 C122 1.267 . S
C130 O131 1.163 . S
C130 O137 1.185 . S
O131 C130 1.163 . S
O132 Zn133 1.899 . S
O132 C140 1.284 . S
Zn133 O132 1.899 . S
Zn133 O134 2.032 . S
Zn133 O137 2.086 . S
Zn133 O142 1.977 . S
O134 Zn133 2.032 . S
O134 C138 1.278 . S
C135 O136 1.203 . S
C135 O142 1.267 . S
O136 C135 1.203 . S
O137 C130 1.185 . S
O137 Zn133 2.086 . S
C138 O134 1.278 . S
C138 O139 1.211 . S
O139 C138 1.211 . S
C140 O132 1.284 . S
C140 O141 1.273 . S
O141 C140 1.273 . S
O142 Zn133 1.977 . S
O142 C135 1.267 . S
C143 O144 1.160 . S
C143 O150 1.185 1_554 S
O144 C143 1.160 . S
O145 Zn146 1.899 . S
O145 C153 1.284 . S
Zn146 O145 1.899 . S
Zn146 O147 2.032 1_554 S
Zn146 O150 2.086 1_554 S
Zn146 O155 1.977 . S
O147 Zn146 2.032 1_556 S
O147 C151 1.278 . S
C148 O149 1.203 . S
C148 O155 1.267 . S
O149 C148 1.203 . S
O150 C143 1.185 1_556 S
O150 Zn146 2.086 1_556 S
C151 O147 1.278 . S
C151 O152 1.211 . S
O152 C151 1.211 . S
C153 O145 1.284 . S
C153 O154 1.273 . S
O154 C153 1.273 . S
O155 Zn146 1.977 . S
O155 C148 1.267 . S
C156 O157 1.160 . S
C156 O163 1.185 . S
O157 C156 1.160 . S
O158 Zn159 1.899 . S
O158 C166 1.284 . S
Zn159 O158 1.899 . S
Zn159 O160 2.032 . S
Zn159 O163 2.086 . S
Zn159 O168 1.977 . S
O160 Zn159 2.032 . S
O160 C164 1.278 . S
C161 O162 1.203 . S
C161 O168 1.267 . S
O162 C161 1.203 . S
O163 C156 1.185 . S
O163 Zn159 2.086 . S
C164 O160 1.278 . S
C164 O165 1.211 . S
O165 C164 1.211 . S
C166 O158 1.284 . S
C166 O167 1.273 . S
O167 C166 1.273 . S
O168 Zn159 1.977 . S
O168 C161 1.267 . S
C169 O170 1.160 . S
C169 O176 1.185 . S
O170 C169 1.160 . S
O171 Zn172 1.899 . S
O171 C179 1.284 . S
Zn172 O171 1.899 . S
Zn172 O173 2.032 . S
Zn172 O176 2.086 . S
Zn172 O181 1.977 . S
O173 Zn172 2.032 . S
O173 C177 1.278 . S
C174 O175 1.203 . S
C174 O181 1.267 . S
O175 C174 1.203 . S
O176 C169 1.185 . S
O176 Zn172 2.086 . S
C177 O173 1.278 . S
C177 O178 1.211 . S
O178 C177 1.211 . S
C179 O171 1.284 . S
C179 O180 1.273 . S
O180 C179 1.273 . S
O181 Zn172 1.977 . S
O181 C174 1.267 . S
C182 O183 1.160 . S
C182 O189 1.185 . S
O183 C182 1.160 . S
O184 Zn185 1.899 . S
O184 C192 1.284 . S
Zn185 O184 1.899 . S
Zn185 O186 2.032 . S
Zn185 O189 2.086 . S
Zn185 O194 1.977 . S
O186 Zn185 2.032 . S
O186 C190 1.278 . S
C187 O188 1.203 . S
C187 O194 1.267 . S
O188 C187 1.203 . S
O189 C182 1.185 . S
O189 Zn185 2.086 . S
C190 O186 1.278 . S
C190 O191 1.211 . S
O191 C190 1.211 . S
C192 O184 1.284 . S
C192 O193 1.273 . S
O193 C192 1.273 . S
O194 Zn185 1.977 . S
O194 C187 1.267 . S
C195 O196 1.160 . S
C195 O202 1.185 . S
O196 C195 1.160 . S
O197 Zn198 1.899 . S
O197 C205 1.284 . S
Zn198 O197 1.899 . S
Zn198 O199 2.032 . S
Zn198 O202 2.086 . S
Zn198 O207 1.977 . S
O199 Zn198 2.032 . S
O199 C203 1.278 . S
C200 O201 1.203 . S
C200 O207 1.267 . S
O201 C200 1.203 . S
O202 C195 1.185 . S
O202 Zn198 2.086 . S
C203 O199 1.278 . S
C203 O204 1.211 . S
O204 C203 1.211 . S
C205 O197 1.284 . S
C205 O206 1.273 . S
O206 C205 1.273 . S
O207 Zn198 1.977 . S
O207 C200 1.267 . S
C208 O209 1.160 . S
C208 O215 1.185 . S
O209 C208 1.160 . S
O210 Zn211 1.899 . S
O210 C218 1.284 . S
Zn211 O210 1.899 . S
Zn211 O212 2.032 . S
Zn211 O215 2.086 . S
Zn211 O220 1.977 1_545 S
O212 Zn211 2.032 . S
O212 C216 1.278 . S
C213 O214 1.203 . S
C213 O220 1.267 . S
O214 C213 1.203 . S
O215 C208 1.185 . S
O215 Zn211 2.086 . S
C216 O212 1.278 . S
C216 O217 1.211 1_545 S
O217 C216 1.211 1_565 S
C218 O210 1.284 . S
C218 O219 1.273 . S
O219 C218 1.273 . S
O220 Zn211 1.977 1_565 S
O220 C213 1.267 . S
C221 O222 1.160 . S
C221 O228 1.185 . S
O222 C221 1.160 . S
O223 Zn224 1.899 . S
O223 C231 1.284 . S
Zn224 O223 1.899 . S
Zn224 O225 2.032 . S
Zn224 O228 2.086 . S
Zn224 O233 1.977 . S
O225 Zn224 2.032 . S
O225 C229 1.278 . S
C226 O227 1.203 . S
C226 O233 1.267 . S
O227 C226 1.203 . S
O228 C221 1.185 . S
O228 Zn224 2.086 . S
C229 O225 1.278 . S
C229 O230 1.211 . S
O230 C229 1.211 . S
C231 O223 1.284 . S
C231 O232 1.273 . S
O232 C231 1.273 . S
O233 Zn224 1.977 . S
O233 C226 1.267 . S
C234 O235 1.160 . S
C234 O241 1.185 . S
O235 C234 1.160 . S
O236 Zn237 1.899 . S
O236 C244 1.284 . S
Zn237 O236 1.899 . S
Zn237 O238 2.032 . S
Zn237 O241 2.086 . S
Zn237 O246 1.977 . S
O238 Zn237 2.032 . S
O238 C242 1.278 . S
C239 O240 1.203 . S
C239 O246 1.267 . S
O240 C239 1.203 . S
O241 C234 1.185 . S
O241 Zn237 2.086 . S
C242 O238 1.278 . S
C242 O243 1.211 . S
O243 C242 1.211 . S
C244 O236 1.284 . S
C244 O245 1.273 . S
O245 C244 1.273 . S
O246 Zn237 1.977 . S
O246 C239 1.267 . S
C247 O248 1.160 . S
C247 O254 1.185 . S
O248 C247 1.160 . S
O249 Zn250 1.899 . S
O249 C257 1.284 . S
Zn250 O249 1.899 . S
Zn250 O251 2.032 . S
Zn250 O254 2.086 . S
Zn250 O259 1.977 . S
O251 Zn250 2.032 . S
O251 C255 1.278 . S
C252 O253 1.203 . S
C252 O259 1.267 . S
O253 C252 1.203 . S
O254 C247 1.185 . S
O254 Zn250 2.086 . S
C255 O251 1.278 . S
C255 O256 1.211 . S
O256 C255 1.211 . S
C257 O249 1.284 . S
C257 O258 1.273 . S
O258 C257 1.273 . S
O259 Zn250 1.977 . S
O259 C252 1.267 . S
C260 O261 1.160 . S
C260 O267 1.185 . S
O261 C260 1.160 . S
O262 Zn263 1.899 . S
O262 C270 1.284 . S
Zn263 O262 1.899 . S
Zn263 O264 2.032 1_554 S
Zn263 O267 2.086 . S
Zn263 O272 1.977 . S
O264 Zn263 2.032 1_556 S
O264 C268 1.278 . S
C265 O266 1.203 . S
C265 O272 1.267 . S
O266 C265 1.203 . S
O267 C260 1.185 . S
O267 Zn263 2.086 . S
C268 O264 1.278 . S
C268 O269 1.211 . S
O269 C268 1.211 . S
C270 O262 1.284 . S
C270 O271 1.273 . S
O271 C270 1.273 . S
O272 Zn263 1.977 . S
O272 C265 1.267 . S
C273 O274 1.160 . S
C273 O280 1.185 . S
O274 C273 1.160 . S
O275 Zn276 1.899 . S
O275 C283 1.284 . S
Zn276 O275 1.899 . S
Zn276 O277 2.032 . S
Zn276 O280 2.086 . S
Zn276 O285 1.977 . S
O277 Zn276 2.032 . S
O277 C281 1.278 . S
C278 O279 1.203 . S
C278 O285 1.267 . S
O279 C278 1.203 . S
O280 C273 1.185 . S
O280 Zn276 2.086 . S
C281 O277 1.278 . S
C281 O282 1.211 . S
O282 C281 1.211 . S
C283 O275 1.284 . S
C283 O284 1.273 . S
O284 C283 1.273 . S
O285 Zn276 1.977 . S
O285 C278 1.267 . S
C286 O287 1.160 . S
C286 O293 1.185 . S
O287 C286 1.160 . S
O288 Zn289 1.899 . S
O288 C296 1.284 . S
Zn289 O288 1.899 . S
Zn289 O290 2.032 . S
Zn289 O293 2.086 . S
Zn289 O298 1.977 . S
O290 Zn289 2.032 . S
O290 C294 1.278 . S
C291 O292 1.203 . S
C291 O298 1.267 . S
O292 C291 1.203 . S
O293 C286 1.185 . S
O293 Zn289 2.086 . S
C294 O290 1.278 . S
C294 O295 1.211 . S
O295 C294 1.211 . S
C296 O288 1.284 . S
C296 O297 1.273 . S
O297 C296 1.273 . S
O298 Zn289 1.977 . S
O298 C291 1.267 . S
C299 O300 1.160 . S
C299 O306 1.185 . S
O300 C299 1.160 . S
O301 Zn302 1.899 . S
O301 C309 1.284 . S
Zn302 O301 1.899 . S
Zn302 O303 2.032 . S
Zn302 O306 2.086 . S
Zn302 O311 1.977 . S
O303 Zn302 2.032 . S
O303 C307 1.278 . S
C304 O305 1.203 . S
C304 O311 1.267 . S
O305 C304 1.203 . S
O306 C299 1.185 . S
O306 Zn302 2.086 . S
C307 O303 1.278 . S
C307 O308 1.211 . S
O308 C307 1.211 . S
C309 O301 1.284 . S
C309 O310 1.273 . S
O310 C309 1.273 . S
O311 Zn302 1.977 . S
O311 C304 1.267 . S
Tb312 N341 2.617 . S
Tb312 N347 2.572 . S
Tb312 O356 2.465 . S
Tb312 O357 2.387 . S
Tb312 O359 2.428 . S
Tb312 O360 2.308 . S
Tb312 O364 2.349 . S
Tb312 O367 2.393 . S
Tb312 C376 2.802 . S
C313 N314 1.379 . S
C313 C316 1.416 . S
C313 C320 1.424 . S
N314 C313 1.379 . S
N314 C317 1.334 . S
N314 Tb323 2.617 1_566 S
C315 C317 1.390 . S
C315 C318 1.339 . S
C315 H335 0.930 . S
C316 C313 1.416 . S
C316 C318 1.416 . S
C316 C322 1.448 . S
C317 N314 1.334 . S
C317 C315 1.390 . S
C317 H328 0.930 . S
C318 C315 1.339 . S
C318 C316 1.416 . S
C318 H339 0.930 . S
C319 C320 1.413 1_554 S
C319 C321 1.427 1_554 S
C319 C325 1.416 . S
C320 C313 1.424 . S
C320 C319 1.413 1_556 S
C320 N324 1.361 1_556 S
C321 C319 1.427 1_556 S
C321 C322 1.328 . S
C321 H336 0.929 . S
C322 C316 1.448 . S
C322 C321 1.328 . S
C322 H337 0.930 . S
Tb323 N314 2.617 1_544 S
Tb323 N324 2.572 1_545 S
Tb323 O358 2.349 1_655 S
Tb323 O361 2.393 1_654 S
Tb323 O362 2.465 . S
Tb323 O363 2.387 1_645 S
Tb323 O365 2.428 1_554 S
Tb323 O366 2.308 1_655 S
Tb323 C387 2.802 . S
N324 C320 1.361 1_554 S
N324 Tb323 2.572 1_565 S
N324 C326 1.340 . S
C325 C319 1.416 . S
C325 C327 1.332 . S
C325 H333 0.931 . S
C326 N324 1.340 . S
C326 C327 1.407 . S
C326 H332 0.930 . S
C327 C325 1.332 . S
C327 C326 1.407 . S
C327 H329 0.929 . S
H328 C317 0.930 . S
H329 C327 0.929 . S
H330 C345 0.930 . S
H331 C352 0.929 1_556 S
H332 C326 0.930 . S
H333 C325 0.931 . S
H334 C348 0.930 . S
H335 C315 0.930 . S
H336 C321 0.929 . S
H337 C322 0.930 . S
H338 C343 0.930 . S
H339 C318 0.930 . S
H340 C351 0.931 . S
N341 Tb312 2.617 . S
N341 C342 1.379 . S
N341 C345 1.334 . S
C342 N341 1.379 . S
C342 C344 1.416 . S
C342 C350 1.424 . S
C343 H338 0.930 . S
C343 C345 1.390 . S
C343 C346 1.339 . S
C344 C342 1.416 . S
C344 C346 1.416 . S
C344 C377 1.448 . S
C345 H330 0.930 . S
C345 N341 1.334 . S
C345 C343 1.390 . S
C346 C343 1.339 . S
C346 C344 1.416 . S
C346 H353 0.930 . S
N347 Tb312 2.572 . S
N347 C348 1.340 . S
N347 C350 1.361 . S
C348 H334 0.930 . S
C348 N347 1.340 . S
C348 C352 1.407 . S
C349 C350 1.413 . S
C349 C351 1.416 . S
C349 C378 1.427 . S
C350 C342 1.424 . S
C350 N347 1.361 . S
C350 C349 1.413 . S
C351 H340 0.931 . S
C351 C349 1.416 . S
C351 C352 1.332 . S
C352 H331 0.929 1_554 S
C352 C348 1.407 . S
C352 C351 1.332 . S
H353 C346 0.930 . S
H354 C377 0.930 . S
H355 C378 0.929 . S
O356 Tb312 2.465 . S
O356 C376 1.264 . S
O357 Tb312 2.387 . S
O357 C368 1.264 . S
O358 Tb323 2.349 1_455 S
O358 C368 1.243 . S
O359 Tb312 2.428 . S
O359 C376 1.256 . S
O360 Tb312 2.308 . S
O360 C375 1.266 1_554 S
O361 Tb323 2.393 1_456 S
O361 C375 1.248 . S
O362 Tb323 2.465 . S
O362 C387 1.264 . S
O363 Tb323 2.387 1_465 S
O363 C379 1.264 . S
O364 Tb312 2.349 . S
O364 C379 1.243 1_545 S
O365 Tb323 2.428 1_556 S
O365 C387 1.256 1_556 S
O366 Tb323 2.308 1_455 S
O366 C386 1.266 . S
O367 Tb312 2.393 . S
O367 C386 1.248 . S
C368 O357 1.264 . S
C368 O358 1.243 . S
C369 C372 1.399 . S
C369 C374 1.383 . S
C369 C376 1.496 . S
C370 C371 1.399 . S
C370 C374 1.389 . S
C371 C370 1.399 . S
C371 C373 1.380 . S
C371 H388 0.929 . S
C372 C369 1.399 . S
C372 C373 1.392 . S
C372 H389 0.929 . S
C373 C371 1.380 . S
C373 C372 1.392 . S
C373 H390 0.929 . S
C374 C369 1.383 . S
C374 C370 1.389 . S
C374 H391 0.931 . S
C375 O360 1.266 1_556 S
C375 O361 1.248 . S
C376 Tb312 2.802 . S
C376 O356 1.264 . S
C376 O359 1.256 . S
C376 C369 1.496 . S
C377 C344 1.448 . S
C377 H354 0.930 . S
C377 C378 1.328 . S
C378 C349 1.427 . S
C378 H355 0.929 . S
C378 C377 1.328 . S
C379 O363 1.264 . S
C379 O364 1.243 1_565 S
C380 C383 1.399 . S
C380 C384 1.383 1_556 S
C380 C387 1.496 1_556 S
C381 C382 1.399 1_554 S
C381 C384 1.389 . S
C382 C381 1.399 1_556 S
C382 C385 1.380 . S
C382 H392 0.929 . S
C383 C380 1.399 . S
C383 C385 1.392 . S
C383 H393 0.929 . S
C384 C380 1.383 1_554 S
C384 C381 1.389 . S
C384 H394 0.931 . S
C385 C382 1.380 . S
C385 C383 1.392 . S
C385 H395 0.929 . S
C386 O366 1.266 . S
C386 O367 1.248 . S
C387 Tb323 2.802 . S
C387 O362 1.264 . S
C387 O365 1.256 1_554 S
C387 C380 1.496 1_554 S
H388 C371 0.929 . S
H389 C372 0.929 . S
H390 C373 0.929 . S
H391 C374 0.931 . S
H392 C382 0.929 . S
H393 C383 0.929 . S
H394 C384 0.931 . S
H395 C385 0.929 . S
Tb396 N425 2.617 . S
Tb396 N431 2.572 . S
Tb396 O440 2.465 . S
Tb396 O441 2.387 . S
Tb396 O443 2.428 . S
Tb396 O444 2.308 . S
Tb396 O448 2.349 . S
Tb396 O451 2.393 . S
Tb396 C460 2.802 . S
C397 N398 1.379 . S
C397 C400 1.416 . S
C397 C404 1.424 . S
N398 C397 1.379 . S
N398 C401 1.334 . S
N398 Tb407 2.617 . S
C399 C401 1.390 . S
C399 C402 1.339 . S
C399 H419 0.930 . S
C400 C397 1.416 . S
C400 C402 1.416 . S
C400 C406 1.448 . S
C401 N398 1.334 . S
C401 C399 1.390 . S
C401 H412 0.930 . S
C402 C399 1.339 . S
C402 C400 1.416 . S
C402 H423 0.930 . S
C403 C404 1.413 . S
C403 C405 1.427 . S
C403 C409 1.416 . S
C404 C397 1.424 . S
C404 C403 1.413 . S
C404 N408 1.361 . S
C405 C403 1.427 . S
C405 C406 1.328 . S
C405 H420 0.929 . S
C406 C400 1.448 . S
C406 C405 1.328 . S
C406 H421 0.930 . S
Tb407 N398 2.617 . S
Tb407 N408 2.572 . S
Tb407 O442 2.349 . S
Tb407 O445 2.393 . S
Tb407 O446 2.465 . S
Tb407 O447 2.387 . S
Tb407 O449 2.428 . S
Tb407 O450 2.308 . S
Tb407 C471 2.802 . S
N408 C404 1.361 . S
N408 Tb407 2.572 . S
N408 C410 1.340 . S
C409 C403 1.416 . S
C409 C411 1.332 . S
C409 H417 0.931 . S
C410 N408 1.340 . S
C410 C411 1.407 . S
C410 H416 0.930 . S
C411 C409 1.332 . S
C411 C410 1.407 . S
C411 H413 0.929 . S
H412 C401 0.930 . S
H413 C411 0.929 . S
H414 C429 0.930 . S
H415 C436 0.929 . S
H416 C410 0.930 . S
H417 C409 0.931 . S
H418 C432 0.930 . S
H419 C399 0.930 . S
H420 C405 0.929 . S
H421 C406 0.930 . S
H422 C427 0.930 . S
H423 C402 0.930 . S
H424 C435 0.931 . S
N425 Tb396 2.617 . S
N425 C426 1.379 . S
N425 C429 1.334 . S
C426 N425 1.379 . S
C426 C428 1.416 . S
C426 C434 1.424 . S
C427 H422 0.930 . S
C427 C429 1.390 . S
C427 C430 1.339 . S
C428 C426 1.416 . S
C428 C430 1.416 . S
C428 C461 1.448 . S
C429 H414 0.930 . S
C429 N425 1.334 . S
C429 C427 1.390 . S
C430 C427 1.339 . S
C430 C428 1.416 . S
C430 H437 0.930 . S
N431 Tb396 2.572 . S
N431 C432 1.340 . S
N431 C434 1.361 . S
C432 H418 0.930 . S
C432 N431 1.340 . S
C432 C436 1.407 . S
C433 C434 1.413 . S
C433 C435 1.416 . S
C433 C462 1.427 . S
C434 C426 1.424 . S
C434 N431 1.361 . S
C434 C433 1.413 . S
C435 H424 0.931 . S
C435 C433 1.416 . S
C435 C436 1.332 . S
C436 H415 0.929 . S
C436 C432 1.407 . S
C436 C435 1.332 . S
H437 C430 0.930 . S
H438 C461 0.930 . S
H439 C462 0.929 . S
O440 Tb396 2.465 . S
O440 C460 1.264 . S
O441 Tb396 2.387 . S
O441 C452 1.264 . S
O442 Tb407 2.349 . S
O442 C452 1.243 . S
O443 Tb396 2.428 . S
O443 C460 1.256 . S
O444 Tb396 2.308 . S
O444 C459 1.266 . S
O445 Tb407 2.393 . S
O445 C459 1.248 . S
O446 Tb407 2.465 . S
O446 C471 1.264 . S
O447 Tb407 2.387 . S
O447 C463 1.264 . S
O448 Tb396 2.349 . S
O448 C463 1.243 . S
O449 Tb407 2.428 . S
O449 C471 1.256 . S
O450 Tb407 2.308 . S
O450 C470 1.266 . S
O451 Tb396 2.393 . S
O451 C470 1.248 . S
C452 O441 1.264 . S
C452 O442 1.243 . S
C453 C456 1.399 . S
C453 C458 1.383 . S
C453 C460 1.496 . S
C454 C455 1.399 . S
C454 C458 1.389 . S
C455 C454 1.399 . S
C455 C457 1.380 . S
C455 H472 0.929 . S
C456 C453 1.399 . S
C456 C457 1.392 . S
C456 H473 0.929 . S
C457 C455 1.380 . S
C457 C456 1.392 . S
C457 H474 0.929 . S
C458 C453 1.383 . S
C458 C454 1.389 . S
C458 H475 0.931 . S
C459 O444 1.266 . S
C459 O445 1.248 . S
C460 Tb396 2.802 . S
C460 O440 1.264 . S
C460 O443 1.256 . S
C460 C453 1.496 . S
C461 C428 1.448 . S
C461 H438 0.930 . S
C461 C462 1.328 . S
C462 C433 1.427 . S
C462 H439 0.929 . S
C462 C461 1.328 . S
C463 O447 1.264 . S
C463 O448 1.243 . S
C464 C467 1.399 . S
C464 C468 1.383 . S
C464 C471 1.496 . S
C465 C466 1.399 . S
C465 C468 1.389 . S
C466 C465 1.399 . S
C466 C469 1.380 . S
C466 H476 0.929 . S
C467 C464 1.399 . S
C467 C469 1.392 . S
C467 H477 0.929 . S
C468 C464 1.383 . S
C468 C465 1.389 . S
C468 H478 0.931 . S
C469 C466 1.380 . S
C469 C467 1.392 . S
C469 H479 0.929 . S
C470 O450 1.266 . S
C470 O451 1.248 . S
C471 Tb407 2.802 . S
C471 O446 1.264 . S
C471 O449 1.256 . S
C471 C464 1.496 . S
H472 C455 0.929 . S
H473 C456 0.929 . S
H474 C457 0.929 . S
H475 C458 0.931 . S
H476 C466 0.929 . S
H477 C467 0.929 . S
H478 C468 0.931 . S
H479 C469 0.929 . S
Tb480 N509 2.617 . S
Tb480 N515 2.572 1_545 S
Tb480 O524 2.465 . S
Tb480 O525 2.387 1_545 S
Tb480 O527 2.428 . S
Tb480 O528 2.308 . S
Tb480 O532 2.349 . S
Tb480 O535 2.393 . S
Tb480 C544 2.802 . S
C481 N482 1.379 . S
C481 C484 1.416 . S
C481 C488 1.424 . S
N482 C481 1.379 . S
N482 C485 1.334 . S
N482 Tb491 2.617 . S
C483 C485 1.390 . S
C483 C486 1.339 . S
C483 H503 0.930 . S
C484 C481 1.416 . S
C484 C486 1.416 . S
C484 C490 1.448 . S
C485 N482 1.334 . S
C485 C483 1.390 . S
C485 H496 0.930 . S
C486 C483 1.339 . S
C486 C484 1.416 . S
C486 H507 0.930 . S
C487 C488 1.413 . S
C487 C489 1.427 . S
C487 C493 1.416 . S
C488 C481 1.424 . S
C488 C487 1.413 . S
C488 N492 1.361 . S
C489 C487 1.427 . S
C489 C490 1.328 . S
C489 H504 0.929 . S
C490 C484 1.448 . S
C490 C489 1.328 . S
C490 H505 0.930 . S
Tb491 N482 2.617 . S
Tb491 N492 2.572 . S
Tb491 O526 2.349 1_545 S
Tb491 O529 2.393 . S
Tb491 O530 2.465 . S
Tb491 O531 2.387 . S
Tb491 O533 2.428 . S
Tb491 O534 2.308 . S
Tb491 C555 2.802 . S
N492 C488 1.361 . S
N492 Tb491 2.572 . S
N492 C494 1.340 . S
C493 C487 1.416 . S
C493 C495 1.332 . S
C493 H501 0.931 . S
C494 N492 1.340 . S
C494 C495 1.407 . S
C494 H500 0.930 . S
C495 C493 1.332 . S
C495 C494 1.407 . S
C495 H497 0.929 . S
H496 C485 0.930 . S
H497 C495 0.929 . S
H498 C513 0.930 . S
H499 C520 0.929 . S
H500 C494 0.930 . S
H501 C493 0.931 . S
H502 C516 0.930 . S
H503 C483 0.930 . S
H504 C489 0.929 . S
H505 C490 0.930 . S
H506 C511 0.930 1_545 S
H507 C486 0.930 . S
H508 C519 0.931 . S
N509 Tb480 2.617 . S
N509 C510 1.379 1_545 S
N509 C513 1.334 . S
C510 N509 1.379 1_565 S
C510 C512 1.416 . S
C510 C518 1.424 . S
C511 H506 0.930 1_565 S
C511 C513 1.390 1_565 S
C511 C514 1.339 . S
C512 C510 1.416 . S
C512 C514 1.416 . S
C512 C545 1.448 . S
C513 H498 0.930 . S
C513 N509 1.334 . S
C513 C511 1.390 1_545 S
C514 C511 1.339 . S
C514 C512 1.416 . S
C514 H521 0.930 . S
N515 Tb480 2.572 1_565 S
N515 C516 1.340 . S
N515 C518 1.361 . S
C516 H502 0.930 . S
C516 N515 1.340 . S
C516 C520 1.407 . S
C517 C518 1.413 . S
C517 C519 1.416 . S
C517 C546 1.427 . S
C518 C510 1.424 . S
C518 N515 1.361 . S
C518 C517 1.413 . S
C519 H508 0.931 . S
C519 C517 1.416 . S
C519 C520 1.332 . S
C520 H499 0.929 . S
C520 C516 1.407 . S
C520 C519 1.332 . S
H521 C514 0.930 . S
H522 C545 0.930 . S
H523 C546 0.929 . S
O524 Tb480 2.465 . S
O524 C544 1.264 . S
O525 Tb480 2.387 1_565 S
O525 C536 1.264 . S
O526 Tb491 2.349 1_565 S
O526 C536 1.243 . S
O527 Tb480 2.428 . S
O527 C544 1.256 . S
O528 Tb480 2.308 . S
O528 C543 1.266 . S
O529 Tb491 2.393 . S
O529 C543 1.248 . S
O530 Tb491 2.465 . S
O530 C555 1.264 . S
O531 Tb491 2.387 . S
O531 C547 1.264 . S
O532 Tb480 2.349 . S
O532 C547 1.243 . S
O533 Tb491 2.428 . S
O533 C555 1.256 . S
O534 Tb491 2.308 . S
O534 C554 1.266 . S
O535 Tb480 2.393 . S
O535 C554 1.248 . S
C536 O525 1.264 . S
C536 O526 1.243 . S
C537 C540 1.399 . S
C537 C542 1.383 . S
C537 C544 1.496 . S
C538 C539 1.399 . S
C538 C542 1.389 . S
C539 C538 1.399 . S
C539 C541 1.380 . S
C539 H556 0.929 . S
C540 C537 1.399 . S
C540 C541 1.392 . S
C540 H557 0.929 . S
C541 C539 1.380 . S
C541 C540 1.392 . S
C541 H558 0.929 . S
C542 C537 1.383 . S
C542 C538 1.389 . S
C542 H559 0.931 . S
C543 O528 1.266 . S
C543 O529 1.248 . S
C544 Tb480 2.802 . S
C544 O524 1.264 . S
C544 O527 1.256 . S
C544 C537 1.496 . S
C545 C512 1.448 . S
C545 H522 0.930 . S
C545 C546 1.328 . S
C546 C517 1.427 . S
C546 H523 0.929 . S
C546 C545 1.328 . S
C547 O531 1.264 . S
C547 O532 1.243 . S
C548 C551 1.399 . S
C548 C552 1.383 . S
C548 C555 1.496 1_565 S
C549 C550 1.399 . S
C549 C552 1.389 . S
C550 C549 1.399 . S
C550 C553 1.380 . S
C550 H560 0.929 . S
C551 C548 1.399 . S
C551 C553 1.392 . S
C551 H561 0.929 . S
C552 C548 1.383 . S
C552 C549 1.389 . S
C552 H562 0.931 . S
C553 C550 1.380 . S
C553 C551 1.392 . S
C553 H563 0.929 . S
C554 O534 1.266 . S
C554 O535 1.248 . S
C555 Tb491 2.802 . S
C555 O530 1.264 . S
C555 O533 1.256 . S
C555 C548 1.496 1_545 S
H556 C539 0.929 . S
H557 C540 0.929 . S
H558 C541 0.929 . S
H559 C542 0.931 . S
H560 C550 0.929 . S
H561 C551 0.929 . S
H562 C552 0.931 . S
H563 C553 0.929 . S
Tb564 N593 2.617 . S
Tb564 N599 2.572 . S
Tb564 O608 2.465 . S
Tb564 O609 2.387 . S
Tb564 O611 2.428 . S
Tb564 O612 2.308 . S
Tb564 O616 2.349 . S
Tb564 O619 2.393 . S
Tb564 C628 2.802 . S
C565 N566 1.379 . S
C565 C568 1.416 . S
C565 C572 1.424 . S
N566 C565 1.379 . S
N566 C569 1.334 . S
N566 Tb575 2.617 . S
C567 C569 1.390 . S
C567 C570 1.339 . S
C567 H587 0.930 . S
C568 C565 1.416 . S
C568 C570 1.416 . S
C568 C574 1.448 . S
C569 N566 1.334 . S
C569 C567 1.390 . S
C569 H580 0.930 . S
C570 C567 1.339 . S
C570 C568 1.416 . S
C570 H591 0.930 . S
C571 C572 1.413 . S
C571 C573 1.427 . S
C571 C577 1.416 . S
C572 C565 1.424 . S
C572 C571 1.413 . S
C572 N576 1.361 . S
C573 C571 1.427 . S
C573 C574 1.328 . S
C573 H588 0.929 . S
C574 C568 1.448 . S
C574 C573 1.328 . S
C574 H589 0.930 . S
Tb575 N566 2.617 . S
Tb575 N576 2.572 . S
Tb575 O610 2.349 . S
Tb575 O613 2.393 . S
Tb575 O614 2.465 . S
Tb575 O615 2.387 . S
Tb575 O617 2.428 . S
Tb575 O618 2.308 . S
Tb575 C639 2.802 . S
N576 C572 1.361 . S
N576 Tb575 2.572 . S
N576 C578 1.340 . S
C577 C571 1.416 . S
C577 C579 1.332 . S
C577 H585 0.931 . S
C578 N576 1.340 . S
C578 C579 1.407 . S
C578 H584 0.930 . S
C579 C577 1.332 . S
C579 C578 1.407 . S
C579 H581 0.929 . S
H580 C569 0.930 . S
H581 C579 0.929 . S
H582 C597 0.930 . S
H583 C604 0.929 . S
H584 C578 0.930 . S
H585 C577 0.931 . S
H586 C600 0.930 . S
H587 C567 0.930 . S
H588 C573 0.929 . S
H589 C574 0.930 . S
H590 C595 0.930 . S
H591 C570 0.930 . S
H592 C603 0.931 . S
N593 Tb564 2.617 . S
N593 C594 1.379 . S
N593 C597 1.334 . S
C594 N593 1.379 . S
C594 C596 1.416 . S
C594 C602 1.424 . S
C595 H590 0.930 . S
C595 C597 1.390 . S
C595 C598 1.339 . S
C596 C594 1.416 . S
C596 C598 1.416 . S
C596 C629 1.448 . S
C597 H582 0.930 . S
C597 N593 1.334 . S
C597 C595 1.390 . S
C598 C595 1.339 . S
C598 C596 1.416 . S
C598 H605 0.930 . S
N599 Tb564 2.572 . S
N599 C600 1.340 . S
N599 C602 1.361 . S
C600 H586 0.930 . S
C600 N599 1.340 . S
C600 C604 1.407 . S
C601 C602 1.413 . S
C601 C603 1.416 . S
C601 C630 1.427 . S
C602 C594 1.424 . S
C602 N599 1.361 . S
C602 C601 1.413 . S
C603 H592 0.931 . S
C603 C601 1.416 . S
C603 C604 1.332 . S
C604 H583 0.929 . S
C604 C600 1.407 . S
C604 C603 1.332 . S
H605 C598 0.930 . S
H606 C629 0.930 . S
H607 C630 0.929 . S
O608 Tb564 2.465 . S
O608 C628 1.264 . S
O609 Tb564 2.387 . S
O609 C620 1.264 . S
O610 Tb575 2.349 . S
O610 C620 1.243 . S
O611 Tb564 2.428 . S
O611 C628 1.256 . S
O612 Tb564 2.308 . S
O612 C627 1.266 . S
O613 Tb575 2.393 . S
O613 C627 1.248 . S
O614 Tb575 2.465 . S
O614 C639 1.264 . S
O615 Tb575 2.387 . S
O615 C631 1.264 . S
O616 Tb564 2.349 . S
O616 C631 1.243 . S
O617 Tb575 2.428 . S
O617 C639 1.256 . S
O618 Tb575 2.308 . S
O618 C638 1.266 . S
O619 Tb564 2.393 . S
O619 C638 1.248 . S
C620 O609 1.264 . S
C620 O610 1.243 . S
C621 C624 1.399 . S
C621 C626 1.383 . S
C621 C628 1.496 . S
C622 C623 1.399 . S
C622 C626 1.389 . S
C623 C622 1.399 . S
C623 C625 1.380 . S
C623 H640 0.929 . S
C624 C621 1.399 . S
C624 C625 1.392 . S
C624 H641 0.929 . S
C625 C623 1.380 . S
C625 C624 1.392 . S
C625 H642 0.929 . S
C626 C621 1.383 . S
C626 C622 1.389 . S
C626 H643 0.931 . S
C627 O612 1.266 . S
C627 O613 1.248 . S
C628 Tb564 2.802 . S
C628 O608 1.264 . S
C628 O611 1.256 . S
C628 C621 1.496 . S
C629 C596 1.448 . S
C629 H606 0.930 . S
C629 C630 1.328 . S
C630 C601 1.427 . S
C630 H607 0.929 . S
C630 C629 1.328 . S
C631 O615 1.264 . S
C631 O616 1.243 . S
C632 C635 1.399 . S
C632 C636 1.383 . S
C632 C639 1.496 . S
C633 C634 1.399 . S
C633 C636 1.389 . S
C634 C633 1.399 . S
C634 C637 1.380 . S
C634 H644 0.929 . S
C635 C632 1.399 . S
C635 C637 1.392 . S
C635 H645 0.929 . S
C636 C632 1.383 . S
C636 C633 1.389 . S
C636 H646 0.931 . S
C637 C634 1.380 . S
C637 C635 1.392 . S
C637 H647 0.929 . S
C638 O618 1.266 . S
C638 O619 1.248 . S
C639 Tb575 2.802 . S
C639 O614 1.264 . S
C639 O617 1.256 . S
C639 C632 1.496 . S
H640 C623 0.929 . S
H641 C624 0.929 . S
H642 C625 0.929 . S
H643 C626 0.931 . S
H644 C634 0.929 . S
H645 C635 0.929 . S
H646 C636 0.931 . S
H647 C637 0.929 . S
Tb648 N677 2.617 1_545 S
Tb648 N683 2.572 1_545 S
Tb648 O692 2.465 1_545 S
Tb648 O693 2.387 . S
Tb648 O695 2.428 1_545 S
Tb648 O696 2.308 . S
Tb648 O700 2.349 . S
Tb648 O703 2.393 . S
Tb648 C712 2.802 1_545 S
C649 N650 1.379 1_455 S
C649 C652 1.416 1_455 S
C649 C656 1.424 . S
N650 C649 1.379 1_655 S
N650 C653 1.334 . S
N650 Tb659 2.617 1_655 S
C651 C653 1.390 . S
C651 C654 1.339 . S
C651 H671 0.930 . S
C652 C649 1.416 1_655 S
C652 C654 1.416 . S
C652 C658 1.448 1_655 S
C653 N650 1.334 . S
C653 C651 1.390 . S
C653 H664 0.930 . S
C654 C651 1.339 . S
C654 C652 1.416 . S
C654 H675 0.930 . S
C655 C656 1.413 . S
C655 C657 1.427 . S
C655 C661 1.416 . S
C656 C649 1.424 . S
C656 C655 1.413 . S
C656 N660 1.361 . S
C657 C655 1.427 . S
C657 C658 1.328 . S
C657 H672 0.929 . S
C658 C652 1.448 1_455 S
C658 C657 1.328 . S
C658 H673 0.930 1_455 S
Tb659 N650 2.617 1_455 S
Tb659 N660 2.572 . S
Tb659 O694 2.349 . S
Tb659 O697 2.393 1_455 S
Tb659 O698 2.465 . S
Tb659 O699 2.387 . S
Tb659 O701 2.428 1_455 S
Tb659 O702 2.308 . S
Tb659 C723 2.802 . S
N660 C656 1.361 . S
N660 Tb659 2.572 . S
N660 C662 1.340 . S
C661 C655 1.416 . S
C661 C663 1.332 . S
C661 H669 0.931 . S
C662 N660 1.340 . S
C662 C663 1.407 . S
C662 H668 0.930 . S
C663 C661 1.332 . S
C663 C662 1.407 . S
C663 H665 0.929 . S
H664 C653 0.930 . S
H665 C663 0.929 . S
H666 C681 0.930 1_545 S
H667 C688 0.929 . S
H668 C662 0.930 . S
H669 C661 0.931 . S
H670 C684 0.930 . S
H671 C651 0.930 . S
H672 C657 0.929 . S
H673 C658 0.930 1_655 S
H674 C679 0.927 1_545 S
H675 C654 0.930 . S
H676 C687 0.931 . S
N677 Tb648 2.617 1_565 S
N677 C678 1.379 . S
N677 C681 1.334 . S
C678 N677 1.379 . S
C678 C680 1.416 . S
C678 C686 1.424 . S
C679 H674 0.927 1_565 S
C679 C681 1.390 . S
C679 C682 1.339 . S
C680 C678 1.416 . S
C680 C682 1.416 . S
C680 C713 1.448 . S
C681 H666 0.930 1_565 S
C681 N677 1.334 . S
C681 C679 1.390 . S
C682 C679 1.339 . S
C682 C680 1.416 . S
C682 H689 0.930 . S
N683 Tb648 2.572 1_565 S
N683 C684 1.340 1_455 S
N683 C686 1.361 . S
C684 H670 0.930 . S
C684 N683 1.340 1_655 S
C684 C688 1.407 . S
C685 C686 1.413 . S
C685 C687 1.416 1_455 S
C685 C714 1.427 . S
C686 C678 1.424 . S
C686 N683 1.361 . S
C686 C685 1.413 . S
C687 H676 0.931 . S
C687 C685 1.416 1_655 S
C687 C688 1.332 . S
C688 H667 0.929 . S
C688 C684 1.407 . S
C688 C687 1.332 . S
H689 C682 0.930 . S
H690 C713 0.930 . S
H691 C714 0.929 . S
O692 Tb648 2.465 1_565 S
O692 C712 1.264 . S
O693 Tb648 2.387 . S
O693 C704 1.264 . S
O694 Tb659 2.349 . S
O694 C704 1.243 . S
O695 Tb648 2.428 1_565 S
O695 C712 1.256 . S
O696 Tb648 2.308 . S
O696 C711 1.266 1_455 S
O697 Tb659 2.393 1_655 S
O697 C711 1.248 . S
O698 Tb659 2.465 . S
O698 C723 1.264 . S
O699 Tb659 2.387 . S
O699 C715 1.264 . S
O700 Tb648 2.349 . S
O700 C715 1.243 . S
O701 Tb659 2.428 1_655 S
O701 C723 1.256 1_655 S
O702 Tb659 2.308 . S
O702 C722 1.266 . S
O703 Tb648 2.393 . S
O703 C722 1.248 . S
C704 O693 1.264 . S
C704 O694 1.243 . S
C705 C708 1.399 . S
C705 C710 1.383 . S
C705 C712 1.496 . S
C706 C707 1.399 . S
C706 C710 1.389 . S
C707 C706 1.399 . S
C707 C709 1.380 . S
C707 H724 0.929 . S
C708 C705 1.399 . S
C708 C709 1.392 . S
C708 H725 0.929 . S
C709 C707 1.380 . S
C709 C708 1.392 . S
C709 H726 0.929 . S
C710 C705 1.383 . S
C710 C706 1.389 . S
C710 H727 0.931 . S
C711 O696 1.266 1_655 S
C711 O697 1.248 . S
C712 Tb648 2.802 1_565 S
C712 O692 1.264 . S
C712 O695 1.256 . S
C712 C705 1.496 . S
C713 C680 1.448 . S
C713 H690 0.930 . S
C713 C714 1.328 . S
C714 C685 1.427 . S
C714 H691 0.929 . S
C714 C713 1.328 . S
C715 O699 1.264 . S
C715 O700 1.243 . S
C716 C719 1.399 1_455 S
C716 C720 1.383 . S
C716 C723 1.496 . S
C717 C718 1.399 1_455 S
C717 C720 1.389 . S
C718 C717 1.399 1_655 S
C718 C721 1.380 . S
C718 H728 0.929 . S
C719 C716 1.399 1_655 S
C719 C721 1.392 . S
C719 H729 0.929 . S
C720 C716 1.383 . S
C720 C717 1.389 . S
C720 H730 0.931 . S
C721 C718 1.380 . S
C721 C719 1.392 . S
C721 H731 0.929 . S
C722 O702 1.266 . S
C722 O703 1.248 . S
C723 Tb659 2.802 . S
C723 O698 1.264 . S
C723 O701 1.256 1_455 S
C723 C716 1.496 . S
H724 C707 0.929 . S
H725 C708 0.929 . S
H726 C709 0.929 . S
H727 C710 0.931 . S
H728 C718 0.929 . S
H729 C719 0.929 . S
H730 C720 0.931 . S
H731 C721 0.929 . S
Tb732 N761 2.617 . S
Tb732 N767 2.572 . S
Tb732 O776 2.465 . S
Tb732 O777 2.387 . S
Tb732 O779 2.428 . S
Tb732 O780 2.308 . S
Tb732 O784 2.349 . S
Tb732 O787 2.393 . S
Tb732 C796 2.802 . S
C733 N734 1.379 . S
C733 C736 1.416 . S
C733 C740 1.424 . S
N734 C733 1.379 . S
N734 C737 1.334 . S
N734 Tb743 2.617 . S
C735 C737 1.390 . S
C735 C738 1.339 . S
C735 H755 0.930 . S
C736 C733 1.416 . S
C736 C738 1.416 . S
C736 C742 1.448 . S
C737 N734 1.334 . S
C737 C735 1.390 . S
C737 H748 0.930 . S
C738 C735 1.339 . S
C738 C736 1.416 . S
C738 H759 0.930 . S
C739 C740 1.413 . S
C739 C741 1.427 . S
C739 C745 1.416 . S
C740 C733 1.424 . S
C740 C739 1.413 . S
C740 N744 1.361 . S
C741 C739 1.427 . S
C741 C742 1.328 . S
C741 H756 0.929 . S
C742 C736 1.448 . S
C742 C741 1.328 . S
C742 H757 0.930 . S
Tb743 N734 2.617 . S
Tb743 N744 2.572 . S
Tb743 O778 2.349 . S
Tb743 O781 2.393 . S
Tb743 O782 2.465 . S
Tb743 O783 2.387 . S
Tb743 O785 2.428 . S
Tb743 O786 2.308 . S
Tb743 C807 2.802 . S
N744 C740 1.361 . S
N744 Tb743 2.572 . S
N744 C746 1.340 . S
C745 C739 1.416 . S
C745 C747 1.332 . S
C745 H753 0.931 . S
C746 N744 1.340 . S
C746 C747 1.407 . S
C746 H752 0.930 . S
C747 C745 1.332 . S
C747 C746 1.407 . S
C747 H749 0.929 . S
H748 C737 0.930 . S
H749 C747 0.929 . S
H750 C765 0.930 . S
H751 C772 0.929 . S
H752 C746 0.930 . S
H753 C745 0.931 . S
H754 C768 0.930 . S
H755 C735 0.930 . S
H756 C741 0.929 . S
H757 C742 0.930 . S
H758 C763 0.930 . S
H759 C738 0.930 . S
H760 C771 0.931 . S
N761 Tb732 2.617 . S
N761 C762 1.379 . S
N761 C765 1.334 . S
C762 N761 1.379 . S
C762 C764 1.416 . S
C762 C770 1.424 . S
C763 H758 0.930 . S
C763 C765 1.390 . S
C763 C766 1.339 . S
C764 C762 1.416 . S
C764 C766 1.416 . S
C764 C797 1.448 . S
C765 H750 0.930 . S
C765 N761 1.334 . S
C765 C763 1.390 . S
C766 C763 1.339 . S
C766 C764 1.416 . S
C766 H773 0.930 . S
N767 Tb732 2.572 . S
N767 C768 1.340 . S
N767 C770 1.361 . S
C768 H754 0.930 . S
C768 N767 1.340 . S
C768 C772 1.407 . S
C769 C770 1.413 . S
C769 C771 1.416 . S
C769 C798 1.427 . S
C770 C762 1.424 . S
C770 N767 1.361 . S
C770 C769 1.413 . S
C771 H760 0.931 . S
C771 C769 1.416 . S
C771 C772 1.332 . S
C772 H751 0.929 . S
C772 C768 1.407 . S
C772 C771 1.332 . S
H773 C766 0.930 . S
H774 C797 0.930 . S
H775 C798 0.929 . S
O776 Tb732 2.465 . S
O776 C796 1.264 . S
O777 Tb732 2.387 . S
O777 C788 1.264 . S
O778 Tb743 2.349 . S
O778 C788 1.243 . S
O779 Tb732 2.428 . S
O779 C796 1.256 . S
O780 Tb732 2.308 . S
O780 C795 1.266 . S
O781 Tb743 2.393 . S
O781 C795 1.248 . S
O782 Tb743 2.465 . S
O782 C807 1.264 . S
O783 Tb743 2.387 . S
O783 C799 1.264 . S
O784 Tb732 2.349 . S
O784 C799 1.243 . S
O785 Tb743 2.428 . S
O785 C807 1.256 . S
O786 Tb743 2.308 . S
O786 C806 1.266 . S
O787 Tb732 2.393 . S
O787 C806 1.248 . S
C788 O777 1.264 . S
C788 O778 1.243 . S
C789 C792 1.399 . S
C789 C794 1.383 . S
C789 C796 1.496 . S
C790 C791 1.399 . S
C790 C794 1.389 . S
C791 C790 1.399 . S
C791 C793 1.380 . S
C791 H808 0.929 . S
C792 C789 1.399 . S
C792 C793 1.392 . S
C792 H809 0.929 . S
C793 C791 1.380 . S
C793 C792 1.392 . S
C793 H810 0.929 . S
C794 C789 1.383 . S
C794 C790 1.389 . S
C794 H811 0.931 . S
C795 O780 1.266 . S
C795 O781 1.248 . S
C796 Tb732 2.802 . S
C796 O776 1.264 . S
C796 O779 1.256 . S
C796 C789 1.496 . S
C797 C764 1.448 . S
C797 H774 0.930 . S
C797 C798 1.328 . S
C798 C769 1.427 . S
C798 H775 0.929 . S
C798 C797 1.328 . S
C799 O783 1.264 . S
C799 O784 1.243 . S
C800 C803 1.399 . S
C800 C804 1.383 . S
C800 C807 1.496 . S
C801 C802 1.399 . S
C801 C804 1.389 . S
C802 C801 1.399 . S
C802 C805 1.380 . S
C802 H812 0.929 . S
C803 C800 1.399 . S
C803 C805 1.392 . S
C803 H813 0.929 . S
C804 C800 1.383 . S
C804 C801 1.389 . S
C804 H814 0.931 . S
C805 C802 1.380 . S
C805 C803 1.392 . S
C805 H815 0.929 . S
C806 O786 1.266 . S
C806 O787 1.248 . S
C807 Tb743 2.802 . S
C807 O782 1.264 . S
C807 O785 1.256 . S
C807 C800 1.496 . S
H808 C791 0.929 . S
H809 C792 0.929 . S
H810 C793 0.929 . S
H811 C794 0.931 . S
H812 C802 0.929 . S
H813 C803 0.929 . S
H814 C804 0.931 . S
H815 C805 0.929 . S
Tb816 N845 2.617 1_554 S
Tb816 N851 2.572 1_554 S
Tb816 O860 2.465 1_554 S
Tb816 O861 2.387 . S
Tb816 O863 2.428 1_554 S
Tb816 O864 2.308 . S
Tb816 O868 2.349 . S
Tb816 O871 2.393 . S
Tb816 C880 2.802 1_554 S
C817 N818 1.379 . S
C817 C820 1.416 . S
C817 C824 1.424 1_565 S
N818 C817 1.379 . S
N818 C821 1.334 . S
N818 Tb827 2.617 1_565 S
C819 C821 1.390 . S
C819 C822 1.339 . S
C819 H839 0.930 . S
C820 C817 1.416 . S
C820 C822 1.416 . S
C820 C826 1.448 . S
C821 N818 1.334 . S
C821 C819 1.390 . S
C821 H832 0.930 . S
C822 C819 1.339 . S
C822 C820 1.416 . S
C822 H843 0.930 . S
C823 C824 1.413 . S
C823 C825 1.427 . S
C823 C829 1.416 . S
C824 C817 1.424 1_545 S
C824 C823 1.413 . S
C824 N828 1.361 . S
C825 C823 1.427 . S
C825 C826 1.328 1_545 S
C825 H840 0.929 . S
C826 C820 1.448 . S
C826 C825 1.328 1_565 S
C826 H841 0.930 . S
Tb827 N818 2.617 1_545 S
Tb827 N828 2.572 . S
Tb827 O862 2.349 . S
Tb827 O865 2.393 1_545 S
Tb827 O866 2.465 . S
Tb827 O867 2.387 . S
Tb827 O869 2.428 1_545 S
Tb827 O870 2.308 . S
Tb827 C891 2.802 1_545 S
N828 C824 1.361 . S
N828 Tb827 2.572 . S
N828 C830 1.340 . S
C829 C823 1.416 . S
C829 C831 1.332 . S
C829 H837 0.931 . S
C830 N828 1.340 . S
C830 C831 1.407 . S
C830 H836 0.930 . S
C831 C829 1.332 . S
C831 C830 1.407 . S
C831 H833 0.929 . S
H832 C821 0.930 . S
H833 C831 0.929 . S
H834 C849 0.923 1_554 S
H835 C856 0.929 . S
H836 C830 0.930 . S
H837 C829 0.931 . S
H838 C852 0.908 1_565 S
H839 C819 0.930 . S
H840 C825 0.929 . S
H841 C826 0.930 . S
H842 C847 0.930 1_554 S
H843 C822 0.930 . S
H844 C855 0.931 1_565 S
N845 Tb816 2.617 1_556 S
N845 C846 1.379 . S
N845 C849 1.339 . S
C846 N845 1.379 . S
C846 C848 1.416 . S
C846 C854 1.424 . S
C847 H842 0.930 1_556 S
C847 C849 1.392 . S
C847 C850 1.339 . S
C848 C846 1.416 . S
C848 C850 1.416 . S
C848 C881 1.448 . S
C849 H834 0.923 1_556 S
C849 N845 1.339 . S
C849 C847 1.392 . S
C850 C847 1.339 . S
C850 C848 1.416 . S
C850 H857 0.930 . S
N851 Tb816 2.572 1_556 S
N851 C852 1.340 . S
N851 C854 1.361 . S
C852 H838 0.908 1_545 S
C852 N851 1.340 . S
C852 C856 1.407 1_545 S
C853 C854 1.413 . S
C853 C855 1.416 . S
C853 C882 1.427 . S
C854 C846 1.424 . S
C854 N851 1.361 . S
C854 C853 1.413 . S
C855 H844 0.931 1_545 S
C855 C853 1.416 . S
C855 C856 1.332 1_545 S
C856 H835 0.929 . S
C856 C852 1.407 1_565 S
C856 C855 1.332 1_565 S
H857 C850 0.930 . S
H858 C881 0.930 . S
H859 C882 0.929 . S
O860 Tb816 2.465 1_556 S
O860 C880 1.264 . S
O861 Tb816 2.387 . S
O861 C872 1.264 . S
O862 Tb827 2.349 . S
O862 C872 1.243 . S
O863 Tb816 2.428 1_556 S
O863 C880 1.256 . S
O864 Tb816 2.308 . S
O864 C879 1.266 1_545 S
O865 Tb827 2.393 1_565 S
O865 C879 1.248 . S
O866 Tb827 2.465 . S
O866 C891 1.264 1_545 S
O867 Tb827 2.387 . S
O867 C883 1.264 . S
O868 Tb816 2.349 . S
O868 C883 1.243 . S
O869 Tb827 2.428 1_565 S
O869 C891 1.256 . S
O870 Tb827 2.308 . S
O870 C890 1.266 . S
O871 Tb816 2.393 . S
O871 C890 1.248 . S
C872 O861 1.264 . S
C872 O862 1.243 . S
C873 C876 1.399 . S
C873 C878 1.383 . S
C873 C880 1.496 . S
C874 C875 1.399 . S
C874 C878 1.389 . S
C875 C874 1.399 . S
C875 C877 1.380 . S
C875 H892 0.929 . S
C876 C873 1.399 . S
C876 C877 1.392 . S
C876 H893 0.929 . S
C877 C875 1.380 . S
C877 C876 1.392 . S
C877 H894 0.929 . S
C878 C873 1.383 . S
C878 C874 1.389 . S
C878 H895 0.931 . S
C879 O864 1.266 1_565 S
C879 O865 1.248 . S
C880 Tb816 2.802 1_556 S
C880 O860 1.264 . S
C880 O863 1.256 . S
C880 C873 1.496 . S
C881 C848 1.448 . S
C881 H858 0.930 . S
C881 C882 1.328 . S
C882 C853 1.427 . S
C882 H859 0.929 . S
C882 C881 1.328 . S
C883 O867 1.264 . S
C883 O868 1.243 . S
C884 C887 1.399 . S
C884 C888 1.383 1_565 S
C884 C891 1.496 . S
C885 C886 1.399 . S
C885 C888 1.389 1_565 S
C886 C885 1.399 . S
C886 C889 1.380 . S
C886 H896 0.929 . S
C887 C884 1.399 . S
C887 C889 1.392 . S
C887 H897 0.929 . S
C888 C884 1.383 1_545 S
C888 C885 1.389 1_545 S
C888 H898 0.931 . S
C889 C886 1.380 . S
C889 C887 1.392 . S
C889 H899 0.929 . S
C890 O870 1.266 . S
C890 O871 1.248 . S
C891 Tb827 2.802 1_565 S
C891 O866 1.264 1_565 S
C891 O869 1.256 . S
C891 C884 1.496 . S
H892 C875 0.929 . S
H893 C876 0.929 . S
H894 C877 0.929 . S
H895 C878 0.931 . S
H896 C886 0.929 . S
H897 C887 0.929 . S
H898 C888 0.931 . S
H899 C889 0.929 . S
Tb900 N929 2.617 . S
Tb900 N935 2.572 . S
Tb900 O944 2.465 . S
Tb900 O945 2.387 . S
Tb900 O947 2.428 . S
Tb900 O948 2.308 . S
Tb900 O952 2.349 . S
Tb900 O955 2.393 . S
Tb900 C964 2.802 . S
C901 N902 1.379 . S
C901 C904 1.416 . S
C901 C908 1.424 . S
N902 C901 1.379 . S
N902 C905 1.334 . S
N902 Tb911 2.617 . S
C903 C905 1.390 . S
C903 C906 1.339 . S
C903 H923 0.930 . S
C904 C901 1.416 . S
C904 C906 1.416 . S
C904 C910 1.448 . S
C905 N902 1.334 . S
C905 C903 1.390 . S
C905 H916 0.930 . S
C906 C903 1.339 . S
C906 C904 1.416 . S
C906 H927 0.930 . S
C907 C908 1.413 . S
C907 C909 1.427 . S
C907 C913 1.416 . S
C908 C901 1.424 . S
C908 C907 1.413 . S
C908 N912 1.361 . S
C909 C907 1.427 . S
C909 C910 1.328 . S
C909 H924 0.929 . S
C910 C904 1.448 . S
C910 C909 1.328 . S
C910 H925 0.930 . S
Tb911 N902 2.617 . S
Tb911 N912 2.572 . S
Tb911 O946 2.349 . S
Tb911 O949 2.393 . S
Tb911 O950 2.465 . S
Tb911 O951 2.387 . S
Tb911 O953 2.428 . S
Tb911 O954 2.308 . S
Tb911 C975 2.802 . S
N912 C908 1.361 . S
N912 Tb911 2.572 . S
N912 C914 1.340 . S
C913 C907 1.416 . S
C913 C915 1.332 . S
C913 H921 0.931 . S
C914 N912 1.340 . S
C914 C915 1.407 . S
C914 H920 0.930 . S
C915 C913 1.332 . S
C915 C914 1.407 . S
C915 H917 0.929 . S
H916 C905 0.930 . S
H917 C915 0.929 . S
H918 C933 0.930 . S
H919 C940 0.929 . S
H920 C914 0.930 . S
H921 C913 0.931 . S
H922 C936 0.930 . S
H923 C903 0.930 . S
H924 C909 0.929 . S
H925 C910 0.930 . S
H926 C931 0.930 . S
H927 C906 0.930 . S
H928 C939 0.931 . S
N929 Tb900 2.617 . S
N929 C930 1.379 . S
N929 C933 1.334 . S
C930 N929 1.379 . S
C930 C932 1.416 . S
C930 C938 1.424 . S
C931 H926 0.930 . S
C931 C933 1.390 . S
C931 C934 1.339 . S
C932 C930 1.416 . S
C932 C934 1.416 . S
C932 C965 1.448 . S
C933 H918 0.930 . S
C933 N929 1.334 . S
C933 C931 1.390 . S
C934 C931 1.339 . S
C934 C932 1.416 . S
C934 H941 0.930 . S
N935 Tb900 2.572 . S
N935 C936 1.340 . S
N935 C938 1.361 . S
C936 H922 0.930 . S
C936 N935 1.340 . S
C936 C940 1.407 . S
C937 C938 1.413 . S
C937 C939 1.416 . S
C937 C966 1.427 . S
C938 C930 1.424 . S
C938 N935 1.361 . S
C938 C937 1.413 . S
C939 H928 0.931 . S
C939 C937 1.416 . S
C939 C940 1.332 . S
C940 H919 0.929 . S
C940 C936 1.407 . S
C940 C939 1.332 . S
H941 C934 0.930 . S
H942 C965 0.930 . S
H943 C966 0.929 . S
O944 Tb900 2.465 . S
O944 C964 1.264 . S
O945 Tb900 2.387 . S
O945 C956 1.264 . S
O946 Tb911 2.349 . S
O946 C956 1.243 . S
O947 Tb900 2.428 . S
O947 C964 1.256 . S
O948 Tb900 2.308 . S
O948 C963 1.266 . S
O949 Tb911 2.393 . S
O949 C963 1.248 . S
O950 Tb911 2.465 . S
O950 C975 1.264 . S
O951 Tb911 2.387 . S
O951 C967 1.264 . S
O952 Tb900 2.349 . S
O952 C967 1.243 . S
O953 Tb911 2.428 . S
O953 C975 1.256 . S
O954 Tb911 2.308 . S
O954 C974 1.266 . S
O955 Tb900 2.393 . S
O955 C974 1.248 . S
C956 O945 1.264 . S
C956 O946 1.243 . S
C957 C960 1.399 . S
C957 C962 1.383 . S
C957 C964 1.496 . S
C958 C959 1.399 . S
C958 C962 1.389 . S
C959 C958 1.399 . S
C959 C961 1.380 . S
C959 H976 0.929 . S
C960 C957 1.399 . S
C960 C961 1.392 . S
C960 H977 0.929 . S
C961 C959 1.380 . S
C961 C960 1.392 . S
C961 H978 0.929 . S
C962 C957 1.383 . S
C962 C958 1.389 . S
C962 H979 0.931 . S
C963 O948 1.266 . S
C963 O949 1.248 . S
C964 Tb900 2.802 . S
C964 O944 1.264 . S
C964 O947 1.256 . S
C964 C957 1.496 . S
C965 C932 1.448 . S
C965 H942 0.930 . S
C965 C966 1.328 . S
C966 C937 1.427 . S
C966 H943 0.929 . S
C966 C965 1.328 . S
C967 O951 1.264 . S
C967 O952 1.243 . S
C968 C971 1.399 . S
C968 C972 1.383 . S
C968 C975 1.496 . S
C969 C970 1.399 . S
C969 C972 1.389 . S
C970 C969 1.399 . S
C970 C973 1.380 . S
C970 H980 0.929 . S
C971 C968 1.399 . S
C971 C973 1.392 . S
C971 H981 0.929 . S
C972 C968 1.383 . S
C972 C969 1.389 . S
C972 H982 0.931 . S
C973 C970 1.380 . S
C973 C971 1.392 . S
C973 H983 0.929 . S
C974 O954 1.266 . S
C974 O955 1.248 . S
C975 Tb911 2.802 . S
C975 O950 1.264 . S
C975 O953 1.256 . S
C975 C968 1.496 . S
H976 C959 0.929 . S
H977 C960 0.929 . S
H978 C961 0.929 . S
H979 C962 0.931 . S
H980 C970 0.929 . S
H981 C971 0.929 . S
H982 C972 0.931 . S
H983 C973 0.929 . S
Tb984 N1013 2.617 1_554 S
Tb984 N1019 2.572 1_554 S
Tb984 O1028 2.465 . S
Tb984 O1029 2.387 1_554 S
Tb984 O1031 2.428 . S
Tb984 O1032 2.308 . S
Tb984 O1036 2.349 . S
Tb984 O1039 2.393 . S
Tb984 C1048 2.802 . S
C985 N986 1.379 . S
C985 C988 1.416 . S
C985 C992 1.424 . S
N986 C985 1.379 . S
N986 C989 1.334 . S
N986 Tb995 2.617 . S
C987 C989 1.390 . S
C987 C990 1.339 . S
C987 H1007 0.930 . S
C988 C985 1.416 . S
C988 C990 1.416 . S
C988 C994 1.448 . S
C989 N986 1.334 . S
C989 C987 1.390 . S
C989 H1000 0.930 . S
C990 C987 1.339 . S
C990 C988 1.416 . S
C990 H1011 0.930 . S
C991 C992 1.413 . S
C991 C993 1.427 . S
C991 C997 1.416 . S
C992 C985 1.424 . S
C992 C991 1.413 . S
C992 N996 1.361 . S
C993 C991 1.427 . S
C993 C994 1.328 . S
C993 H1008 0.929 . S
C994 C988 1.448 . S
C994 C993 1.328 . S
C994 H1009 0.930 . S
Tb995 N986 2.617 . S
Tb995 N996 2.572 . S
Tb995 O1030 2.349 1_554 S
Tb995 O1033 2.393 . S
Tb995 O1034 2.465 . S
Tb995 O1035 2.387 . S
Tb995 O1037 2.428 . S
Tb995 O1038 2.308 . S
Tb995 C1059 2.802 . S
N996 C992 1.361 . S
N996 Tb995 2.572 . S
N996 C998 1.340 . S
C997 C991 1.416 . S
C997 C999 1.332 . S
C997 H1005 0.931 . S
C998 N996 1.340 . S
C998 C999 1.407 . S
C998 H1004 0.930 . S
C999 C997 1.332 . S
C999 C998 1.407 . S
C999 H1001 0.929 . S
H1000 C989 0.930 . S
H1001 C999 0.929 . S
H1002 C1017 0.930 1_554 S
H1003 C1024 0.929 . S
H1004 C998 0.930 . S
H1005 C997 0.931 . S
H1006 C1020 0.930 1_554 S
H1007 C987 0.930 . S
H1008 C993 0.929 . S
H1009 C994 0.930 . S
H1010 C1015 0.930 . S
H1011 C990 0.930 . S
H1012 C1023 0.931 . S
N1013 Tb984 2.617 1_556 S
N1013 C1014 1.379 . S
N1013 C1017 1.334 . S
C1014 N1013 1.379 . S
C1014 C1016 1.416 . S
C1014 C1022 1.424 . S
C1015 H1010 0.930 . S
C1015 C1017 1.390 . S
C1015 C1018 1.339 . S
C1016 C1014 1.416 . S
C1016 C1018 1.416 . S
C1016 C1049 1.448 . S
C1017 H1002 0.930 1_556 S
C1017 N1013 1.334 . S
C1017 C1015 1.390 . S
C1018 C1015 1.339 . S
C1018 C1016 1.416 . S
C1018 H1025 0.930 . S
N1019 Tb984 2.572 1_556 S
N1019 C1020 1.340 . S
N1019 C1022 1.361 . S
C1020 H1006 0.930 1_556 S
C1020 N1019 1.340 . S
C1020 C1024 1.407 . S
C1021 C1022 1.413 . S
C1021 C1023 1.416 . S
C1021 C1050 1.427 . S
C1022 C1014 1.424 . S
C1022 N1019 1.361 . S
C1022 C1021 1.413 . S
C1023 H1012 0.931 . S
C1023 C1021 1.416 . S
C1023 C1024 1.332 . S
C1024 H1003 0.929 . S
C1024 C1020 1.407 . S
C1024 C1023 1.332 . S
H1025 C1018 0.930 . S
H1026 C1049 0.930 . S
H1027 C1050 0.929 . S
O1028 Tb984 2.465 . S
O1028 C1048 1.264 . S
O1029 Tb984 2.387 1_556 S
O1029 C1040 1.264 . S
O1030 Tb995 2.349 1_556 S
O1030 C1040 1.243 . S
O1031 Tb984 2.428 . S
O1031 C1048 1.256 . S
O1032 Tb984 2.308 . S
O1032 C1047 1.266 . S
O1033 Tb995 2.393 . S
O1033 C1047 1.248 . S
O1034 Tb995 2.465 . S
O1034 C1059 1.264 . S
O1035 Tb995 2.387 . S
O1035 C1051 1.264 . S
O1036 Tb984 2.349 . S
O1036 C1051 1.243 . S
O1037 Tb995 2.428 . S
O1037 C1059 1.256 . S
O1038 Tb995 2.308 . S
O1038 C1058 1.266 . S
O1039 Tb984 2.393 . S
O1039 C1058 1.248 . S
C1040 O1029 1.264 . S
C1040 O1030 1.243 . S
C1041 C1044 1.399 . S
C1041 C1046 1.383 . S
C1041 C1048 1.496 . S
C1042 C1043 1.399 . S
C1042 C1046 1.389 . S
C1043 C1042 1.399 . S
C1043 C1045 1.380 . S
C1043 H1060 0.929 . S
C1044 C1041 1.399 . S
C1044 C1045 1.392 . S
C1044 H1061 0.929 . S
C1045 C1043 1.380 . S
C1045 C1044 1.392 . S
C1045 H1062 0.929 . S
C1046 C1041 1.383 . S
C1046 C1042 1.389 . S
C1046 H1063 0.931 . S
C1047 O1032 1.266 . S
C1047 O1033 1.248 . S
C1048 Tb984 2.802 . S
C1048 O1028 1.264 . S
C1048 O1031 1.256 . S
C1048 C1041 1.496 . S
C1049 C1016 1.448 . S
C1049 H1026 0.930 . S
C1049 C1050 1.328 . S
C1050 C1021 1.427 . S
C1050 H1027 0.929 . S
C1050 C1049 1.328 . S
C1051 O1035 1.264 . S
C1051 O1036 1.243 . S
C1052 C1055 1.399 . S
C1052 C1056 1.383 . S
C1052 C1059 1.496 1_556 S
C1053 C1054 1.399 . S
C1053 C1056 1.389 . S
C1054 C1053 1.399 . S
C1054 C1057 1.380 . S
C1054 H1064 0.929 . S
C1055 C1052 1.399 . S
C1055 C1057 1.392 . S
C1055 H1065 0.913 1_556 S
C1056 C1052 1.383 . S
C1056 C1053 1.389 . S
C1056 H1066 0.931 . S
C1057 C1054 1.380 . S
C1057 C1055 1.392 . S
C1057 H1067 0.929 . S
C1058 O1038 1.266 . S
C1058 O1039 1.248 . S
C1059 Tb995 2.802 . S
C1059 O1034 1.264 . S
C1059 O1037 1.256 . S
C1059 C1052 1.496 1_554 S
H1060 C1043 0.929 . S
H1061 C1044 0.929 . S
H1062 C1045 0.929 . S
H1063 C1046 0.931 . S
H1064 C1054 0.929 . S
H1065 C1055 0.913 1_554 S
H1066 C1056 0.931 . S
H1067 C1057 0.929 . S
Tb1068 N1097 2.617 . S
Tb1068 N1103 2.572 . S
Tb1068 O1112 2.465 . S
Tb1068 O1113 2.387 . S
Tb1068 O1115 2.428 . S
Tb1068 O1116 2.308 . S
Tb1068 O1120 2.349 . S
Tb1068 O1123 2.393 . S
Tb1068 C1132 2.802 . S
C1069 N1070 1.379 . S
C1069 C1072 1.416 . S
C1069 C1076 1.424 . S
N1070 C1069 1.379 . S
N1070 C1073 1.334 . S
N1070 Tb1079 2.617 . S
C1071 C1073 1.390 . S
C1071 C1074 1.339 . S
C1071 H1091 0.930 . S
C1072 C1069 1.416 . S
C1072 C1074 1.416 . S
C1072 C1078 1.448 . S
C1073 N1070 1.334 . S
C1073 C1071 1.390 . S
C1073 H1084 0.930 . S
C1074 C1071 1.339 . S
C1074 C1072 1.416 . S
C1074 H1095 0.930 . S
C1075 C1076 1.413 . S
C1075 C1077 1.427 . S
C1075 C1081 1.416 . S
C1076 C1069 1.424 . S
C1076 C1075 1.413 . S
C1076 N1080 1.361 . S
C1077 C1075 1.427 . S
C1077 C1078 1.328 . S
C1077 H1092 0.929 . S
C1078 C1072 1.448 . S
C1078 C1077 1.328 . S
C1078 H1093 0.930 . S
Tb1079 N1070 2.617 . S
Tb1079 N1080 2.572 . S
Tb1079 O1114 2.349 . S
Tb1079 O1117 2.393 . S
Tb1079 O1118 2.465 . S
Tb1079 O1119 2.387 . S
Tb1079 O1121 2.428 . S
Tb1079 O1122 2.308 . S
Tb1079 C1143 2.802 . S
N1080 C1076 1.361 . S
N1080 Tb1079 2.572 . S
N1080 C1082 1.340 . S
C1081 C1075 1.416 . S
C1081 C1083 1.332 . S
C1081 H1089 0.931 . S
C1082 N1080 1.340 . S
C1082 C1083 1.407 . S
C1082 H1088 0.930 . S
C1083 C1081 1.332 . S
C1083 C1082 1.407 . S
C1083 H1085 0.929 . S
H1084 C1073 0.930 . S
H1085 C1083 0.929 . S
H1086 C1101 0.930 . S
H1087 C1108 0.929 . S
H1088 C1082 0.930 . S
H1089 C1081 0.931 . S
H1090 C1104 0.930 . S
H1091 C1071 0.930 . S
H1092 C1077 0.929 . S
H1093 C1078 0.930 . S
H1094 C1099 0.930 . S
H1095 C1074 0.930 . S
H1096 C1107 0.931 . S
N1097 Tb1068 2.617 . S
N1097 C1098 1.379 . S
N1097 C1101 1.334 . S
C1098 N1097 1.379 . S
C1098 C1100 1.416 . S
C1098 C1106 1.424 . S
C1099 H1094 0.930 . S
C1099 C1101 1.390 . S
C1099 C1102 1.339 . S
C1100 C1098 1.416 . S
C1100 C1102 1.416 . S
C1100 C1133 1.448 . S
C1101 H1086 0.930 . S
C1101 N1097 1.334 . S
C1101 C1099 1.390 . S
C1102 C1099 1.339 . S
C1102 C1100 1.416 . S
C1102 H1109 0.930 . S
N1103 Tb1068 2.572 . S
N1103 C1104 1.340 . S
N1103 C1106 1.361 . S
C1104 H1090 0.930 . S
C1104 N1103 1.340 . S
C1104 C1108 1.407 . S
C1105 C1106 1.413 . S
C1105 C1107 1.416 . S
C1105 C1134 1.427 . S
C1106 C1098 1.424 . S
C1106 N1103 1.361 . S
C1106 C1105 1.413 . S
C1107 H1096 0.931 . S
C1107 C1105 1.416 . S
C1107 C1108 1.332 . S
C1108 H1087 0.929 . S
C1108 C1104 1.407 . S
C1108 C1107 1.332 . S
H1109 C1102 0.930 . S
H1110 C1133 0.930 . S
H1111 C1134 0.929 . S
O1112 Tb1068 2.465 . S
O1112 C1132 1.264 . S
O1113 Tb1068 2.387 . S
O1113 C1124 1.264 . S
O1114 Tb1079 2.349 . S
O1114 C1124 1.243 . S
O1115 Tb1068 2.428 . S
O1115 C1132 1.256 . S
O1116 Tb1068 2.308 . S
O1116 C1131 1.266 . S
O1117 Tb1079 2.393 . S
O1117 C1131 1.248 . S
O1118 Tb1079 2.465 . S
O1118 C1143 1.264 . S
O1119 Tb1079 2.387 . S
O1119 C1135 1.264 . S
O1120 Tb1068 2.349 . S
O1120 C1135 1.243 . S
O1121 Tb1079 2.428 . S
O1121 C1143 1.256 . S
O1122 Tb1079 2.308 . S
O1122 C1142 1.266 . S
O1123 Tb1068 2.393 . S
O1123 C1142 1.248 . S
C1124 O1113 1.264 . S
C1124 O1114 1.243 . S
C1125 C1128 1.399 . S
C1125 C1130 1.383 . S
C1125 C1132 1.496 . S
C1126 C1127 1.399 . S
C1126 C1130 1.389 . S
C1127 C1126 1.399 . S
C1127 C1129 1.380 . S
C1127 H1144 0.929 . S
C1128 C1125 1.399 . S
C1128 C1129 1.392 . S
C1128 H1145 0.929 . S
C1129 C1127 1.380 . S
C1129 C1128 1.392 . S
C1129 H1146 0.929 . S
C1130 C1125 1.383 . S
C1130 C1126 1.389 . S
C1130 H1147 0.931 . S
C1131 O1116 1.266 . S
C1131 O1117 1.248 . S
C1132 Tb1068 2.802 . S
C1132 O1112 1.264 . S
C1132 O1115 1.256 . S
C1132 C1125 1.496 . S
C1133 C1100 1.448 . S
C1133 H1110 0.930 . S
C1133 C1134 1.328 . S
C1134 C1105 1.427 . S
C1134 H1111 0.929 . S
C1134 C1133 1.328 . S
C1135 O1119 1.264 . S
C1135 O1120 1.243 . S
C1136 C1139 1.399 . S
C1136 C1140 1.383 . S
C1136 C1143 1.496 . S
C1137 C1138 1.399 . S
C1137 C1140 1.389 . S
C1138 C1137 1.399 . S
C1138 C1141 1.380 . S
C1138 H1148 0.929 . S
C1139 C1136 1.399 . S
C1139 C1141 1.392 . S
C1139 H1149 0.929 . S
C1140 C1136 1.383 . S
C1140 C1137 1.389 . S
C1140 H1150 0.931 . S
C1141 C1138 1.380 . S
C1141 C1139 1.392 . S
C1141 H1151 0.929 . S
C1142 O1122 1.266 . S
C1142 O1123 1.248 . S
C1143 Tb1079 2.802 . S
C1143 O1118 1.264 . S
C1143 O1121 1.256 . S
C1143 C1136 1.496 . S
H1144 C1127 0.929 . S
H1145 C1128 0.929 . S
H1146 C1129 0.929 . S
H1147 C1130 0.931 . S
H1148 C1138 0.929 . S
H1149 C1139 0.929 . S
H1150 C1140 0.931 . S
H1151 C1141 0.929 . S
Tb1152 N1181 2.617 . S
Tb1152 N1187 2.572 1_455 S
Tb1152 O1196 2.465 . S
Tb1152 O1197 2.387 1_455 S
Tb1152 O1199 2.428 . S
Tb1152 O1200 2.308 . S
Tb1152 O1204 2.349 . S
Tb1152 O1207 2.393 . S
Tb1152 C1216 2.802 . S
C1153 N1154 1.379 . S
C1153 C1156 1.416 . S
C1153 C1160 1.424 . S
N1154 C1153 1.379 . S
N1154 C1157 1.334 . S
N1154 Tb1163 2.617 . S
C1155 C1157 1.390 . S
C1155 C1158 1.339 . S
C1155 H1175 0.930 . S
C1156 C1153 1.416 . S
C1156 C1158 1.416 . S
C1156 C1162 1.448 . S
C1157 N1154 1.334 . S
C1157 C1155 1.390 . S
C1157 H1168 0.930 . S
C1158 C1155 1.339 . S
C1158 C1156 1.416 . S
C1158 H1179 0.930 . S
C1159 C1160 1.413 . S
C1159 C1161 1.427 . S
C1159 C1165 1.416 . S
C1160 C1153 1.424 . S
C1160 C1159 1.413 . S
C1160 N1164 1.361 . S
C1161 C1159 1.427 . S
C1161 C1162 1.328 . S
C1161 H1176 0.929 . S
C1162 C1156 1.448 . S
C1162 C1161 1.328 . S
C1162 H1177 0.930 . S
Tb1163 N1154 2.617 . S
Tb1163 N1164 2.572 . S
Tb1163 O1198 2.349 1_455 S
Tb1163 O1201 2.393 . S
Tb1163 O1202 2.465 . S
Tb1163 O1203 2.387 . S
Tb1163 O1205 2.428 . S
Tb1163 O1206 2.308 . S
Tb1163 C1227 2.802 . S
N1164 C1160 1.361 . S
N1164 Tb1163 2.572 . S
N1164 C1166 1.340 . S
C1165 C1159 1.416 . S
C1165 C1167 1.332 . S
C1165 H1173 0.931 . S
C1166 N1164 1.340 . S
C1166 C1167 1.407 . S
C1166 H1172 0.930 . S
C1167 C1165 1.332 . S
C1167 C1166 1.407 . S
C1167 H1169 0.929 . S
H1168 C1157 0.930 . S
H1169 C1167 0.929 . S
H1170 C1185 0.930 . S
H1171 C1192 0.929 . S
H1172 C1166 0.930 . S
H1173 C1165 0.931 . S
H1174 C1188 0.930 1_455 S
H1175 C1155 0.930 . S
H1176 C1161 0.929 . S
H1177 C1162 0.930 . S
H1178 C1183 0.930 . S
H1179 C1158 0.930 . S
H1180 C1191 0.931 . S
N1181 Tb1152 2.617 . S
N1181 C1182 1.379 1_455 S
N1181 C1185 1.334 . S
C1182 N1181 1.379 1_655 S
C1182 C1184 1.416 . S
C1182 C1190 1.424 . S
C1183 H1178 0.930 . S
C1183 C1185 1.390 1_655 S
C1183 C1186 1.339 . S
C1184 C1182 1.416 . S
C1184 C1186 1.416 . S
C1184 C1217 1.448 . S
C1185 H1170 0.930 . S
C1185 N1181 1.334 . S
C1185 C1183 1.390 1_455 S
C1186 C1183 1.339 . S
C1186 C1184 1.416 . S
C1186 H1193 0.930 . S
N1187 Tb1152 2.572 1_655 S
N1187 C1188 1.340 . S
N1187 C1190 1.361 . S
C1188 H1174 0.930 1_655 S
C1188 N1187 1.340 . S
C1188 C1192 1.407 . S
C1189 C1190 1.413 . S
C1189 C1191 1.416 . S
C1189 C1218 1.427 . S
C1190 C1182 1.424 . S
C1190 N1187 1.361 . S
C1190 C1189 1.413 . S
C1191 H1180 0.931 . S
C1191 C1189 1.416 . S
C1191 C1192 1.332 . S
C1192 H1171 0.929 . S
C1192 C1188 1.407 . S
C1192 C1191 1.332 . S
H1193 C1186 0.930 . S
H1194 C1217 0.930 . S
H1195 C1218 0.929 . S
O1196 Tb1152 2.465 . S
O1196 C1216 1.264 . S
O1197 Tb1152 2.387 1_655 S
O1197 C1208 1.264 . S
O1198 Tb1163 2.349 1_655 S
O1198 C1208 1.243 . S
O1199 Tb1152 2.428 . S
O1199 C1216 1.256 . S
O1200 Tb1152 2.308 . S
O1200 C1215 1.266 . S
O1201 Tb1163 2.393 . S
O1201 C1215 1.248 . S
O1202 Tb1163 2.465 . S
O1202 C1227 1.264 . S
O1203 Tb1163 2.387 . S
O1203 C1219 1.264 . S
O1204 Tb1152 2.349 . S
O1204 C1219 1.243 . S
O1205 Tb1163 2.428 . S
O1205 C1227 1.256 . S
O1206 Tb1163 2.308 . S
O1206 C1226 1.266 . S
O1207 Tb1152 2.393 . S
O1207 C1226 1.248 . S
C1208 O1197 1.264 . S
C1208 O1198 1.243 . S
C1209 C1212 1.399 . S
C1209 C1214 1.383 . S
C1209 C1216 1.496 . S
C1210 C1211 1.399 . S
C1210 C1214 1.389 . S
C1211 C1210 1.399 . S
C1211 C1213 1.380 . S
C1211 H1228 0.929 . S
C1212 C1209 1.399 . S
C1212 C1213 1.392 . S
C1212 H1229 0.929 . S
C1213 C1211 1.380 . S
C1213 C1212 1.392 . S
C1213 H1230 0.929 . S
C1214 C1209 1.383 . S
C1214 C1210 1.389 . S
C1214 H1231 0.931 . S
C1215 O1200 1.266 . S
C1215 O1201 1.248 . S
C1216 Tb1152 2.802 . S
C1216 O1196 1.264 . S
C1216 O1199 1.256 . S
C1216 C1209 1.496 . S
C1217 C1184 1.448 . S
C1217 H1194 0.930 . S
C1217 C1218 1.328 . S
C1218 C1189 1.427 . S
C1218 H1195 0.929 . S
C1218 C1217 1.328 . S
C1219 O1203 1.264 . S
C1219 O1204 1.243 . S
C1220 C1223 1.399 . S
C1220 C1224 1.383 . S
C1220 C1227 1.496 1_655 S
C1221 C1222 1.399 . S
C1221 C1224 1.389 . S
C1222 C1221 1.399 . S
C1222 C1225 1.380 . S
C1222 H1232 0.929 . S
C1223 C1220 1.399 . S
C1223 C1225 1.392 . S
C1223 H1233 0.929 . S
C1224 C1220 1.383 . S
C1224 C1221 1.389 . S
C1224 H1234 0.931 . S
C1225 C1222 1.380 . S
C1225 C1223 1.392 . S
C1225 H1235 0.929 . S
C1226 O1206 1.266 . S
C1226 O1207 1.248 . S
C1227 Tb1163 2.802 . S
C1227 O1202 1.264 . S
C1227 O1205 1.256 . S
C1227 C1220 1.496 1_455 S
H1228 C1211 0.929 . S
H1229 C1212 0.929 . S
H1230 C1213 0.929 . S
H1231 C1214 0.931 . S
H1232 C1222 0.929 . S
H1233 C1223 0.929 . S
H1234 C1224 0.931 . S
H1235 C1225 0.929 . S
Tb1236 N1265 2.617 . S
Tb1236 N1271 2.572 . S
Tb1236 O1280 2.465 . S
Tb1236 O1281 2.387 . S
Tb1236 O1283 2.428 . S
Tb1236 O1284 2.308 . S
Tb1236 O1288 2.349 . S
Tb1236 O1291 2.393 . S
Tb1236 C1300 2.802 . S
C1237 N1238 1.379 . S
C1237 C1240 1.416 . S
C1237 C1244 1.424 . S
N1238 C1237 1.379 . S
N1238 C1241 1.334 . S
N1238 Tb1247 2.617 . S
C1239 C1241 1.390 . S
C1239 C1242 1.339 . S
C1239 H1259 0.930 . S
C1240 C1237 1.416 . S
C1240 C1242 1.416 . S
C1240 C1246 1.448 . S
C1241 N1238 1.334 . S
C1241 C1239 1.390 . S
C1241 H1252 0.930 . S
C1242 C1239 1.339 . S
C1242 C1240 1.416 . S
C1242 H1263 0.930 . S
C1243 C1244 1.413 . S
C1243 C1245 1.427 . S
C1243 C1249 1.416 . S
C1244 C1237 1.424 . S
C1244 C1243 1.413 . S
C1244 N1248 1.361 . S
C1245 C1243 1.427 . S
C1245 C1246 1.328 . S
C1245 H1260 0.929 . S
C1246 C1240 1.448 . S
C1246 C1245 1.328 . S
C1246 H1261 0.930 . S
Tb1247 N1238 2.617 . S
Tb1247 N1248 2.572 . S
Tb1247 O1282 2.349 . S
Tb1247 O1285 2.393 . S
Tb1247 O1286 2.465 . S
Tb1247 O1287 2.387 . S
Tb1247 O1289 2.428 . S
Tb1247 O1290 2.308 . S
Tb1247 C1311 2.802 . S
N1248 C1244 1.361 . S
N1248 Tb1247 2.572 . S
N1248 C1250 1.340 . S
C1249 C1243 1.416 . S
C1249 C1251 1.332 . S
C1249 H1257 0.931 . S
C1250 N1248 1.340 . S
C1250 C1251 1.407 . S
C1250 H1256 0.930 . S
C1251 C1249 1.332 . S
C1251 C1250 1.407 . S
C1251 H1253 0.929 . S
H1252 C1241 0.930 . S
H1253 C1251 0.929 . S
H1254 C1269 0.930 . S
H1255 C1276 0.929 . S
H1256 C1250 0.930 . S
H1257 C1249 0.931 . S
H1258 C1272 0.930 . S
H1259 C1239 0.930 . S
H1260 C1245 0.929 . S
H1261 C1246 0.930 . S
H1262 C1267 0.930 . S
H1263 C1242 0.930 . S
H1264 C1275 0.931 . S
N1265 Tb1236 2.617 . S
N1265 C1266 1.379 . S
N1265 C1269 1.334 . S
C1266 N1265 1.379 . S
C1266 C1268 1.416 . S
C1266 C1274 1.424 . S
C1267 H1262 0.930 . S
C1267 C1269 1.390 . S
C1267 C1270 1.339 . S
C1268 C1266 1.416 . S
C1268 C1270 1.416 . S
C1268 C1301 1.448 . S
C1269 H1254 0.930 . S
C1269 N1265 1.334 . S
C1269 C1267 1.390 . S
C1270 C1267 1.339 . S
C1270 C1268 1.416 . S
C1270 H1277 0.930 . S
N1271 Tb1236 2.572 . S
N1271 C1272 1.340 . S
N1271 C1274 1.361 . S
C1272 H1258 0.930 . S
C1272 N1271 1.340 . S
C1272 C1276 1.407 . S
C1273 C1274 1.413 . S
C1273 C1275 1.416 . S
C1273 C1302 1.427 . S
C1274 C1266 1.424 . S
C1274 N1271 1.361 . S
C1274 C1273 1.413 . S
C1275 H1264 0.931 . S
C1275 C1273 1.416 . S
C1275 C1276 1.332 . S
C1276 H1255 0.929 . S
C1276 C1272 1.407 . S
C1276 C1275 1.332 . S
H1277 C1270 0.930 . S
H1278 C1301 0.930 . S
H1279 C1302 0.929 . S
O1280 Tb1236 2.465 . S
O1280 C1300 1.264 . S
O1281 Tb1236 2.387 . S
O1281 C1292 1.264 . S
O1282 Tb1247 2.349 . S
O1282 C1292 1.243 . S
O1283 Tb1236 2.428 . S
O1283 C1300 1.256 . S
O1284 Tb1236 2.308 . S
O1284 C1299 1.266 . S
O1285 Tb1247 2.393 . S
O1285 C1299 1.248 . S
O1286 Tb1247 2.465 . S
O1286 C1311 1.264 . S
O1287 Tb1247 2.387 . S
O1287 C1303 1.264 . S
O1288 Tb1236 2.349 . S
O1288 C1303 1.243 . S
O1289 Tb1247 2.428 . S
O1289 C1311 1.256 . S
O1290 Tb1247 2.308 . S
O1290 C1310 1.266 . S
O1291 Tb1236 2.393 . S
O1291 C1310 1.248 . S
C1292 O1281 1.264 . S
C1292 O1282 1.243 . S
C1293 C1296 1.399 . S
C1293 C1298 1.383 . S
C1293 C1300 1.496 . S
C1294 C1295 1.399 . S
C1294 C1298 1.389 . S
C1295 C1294 1.399 . S
C1295 C1297 1.380 . S
C1295 H1312 0.929 . S
C1296 C1293 1.399 . S
C1296 C1297 1.392 . S
C1296 H1313 0.929 . S
C1297 C1295 1.380 . S
C1297 C1296 1.392 . S
C1297 H1314 0.929 . S
C1298 C1293 1.383 . S
C1298 C1294 1.389 . S
C1298 H1315 0.931 . S
C1299 O1284 1.266 . S
C1299 O1285 1.248 . S
C1300 Tb1236 2.802 . S
C1300 O1280 1.264 . S
C1300 O1283 1.256 . S
C1300 C1293 1.496 . S
C1301 C1268 1.448 . S
C1301 H1278 0.930 . S
C1301 C1302 1.328 . S
C1302 C1273 1.427 . S
C1302 H1279 0.929 . S
C1302 C1301 1.328 . S
C1303 O1287 1.264 . S
C1303 O1288 1.243 . S
C1304 C1307 1.399 . S
C1304 C1308 1.383 . S
C1304 C1311 1.496 . S
C1305 C1306 1.399 . S
C1305 C1308 1.389 . S
C1306 C1305 1.399 . S
C1306 C1309 1.380 . S
C1306 H1316 0.929 . S
C1307 C1304 1.399 . S
C1307 C1309 1.392 . S
C1307 H1317 0.929 . S
C1308 C1304 1.383 . S
C1308 C1305 1.389 . S
C1308 H1318 0.931 . S
C1309 C1306 1.380 . S
C1309 C1307 1.392 . S
C1309 H1319 0.929 . S
C1310 O1290 1.266 . S
C1310 O1291 1.248 . S
C1311 Tb1247 2.802 . S
C1311 O1286 1.264 . S
C1311 O1289 1.256 . S
C1311 C1304 1.496 . S
H1312 C1295 0.929 . S
H1313 C1296 0.929 . S
H1314 C1297 0.929 . S
H1315 C1298 0.931 . S
H1316 C1306 0.929 . S
H1317 C1307 0.929 . S
H1318 C1308 0.931 . S
H1319 C1309 0.929 . S
Tb1320 N1349 2.617 . S
Tb1320 N1355 2.572 . S
Tb1320 O1364 2.465 . S
Tb1320 O1365 2.387 . S
Tb1320 O1367 2.428 . S
Tb1320 O1368 2.308 . S
Tb1320 O1372 2.349 . S
Tb1320 O1375 2.393 . S
Tb1320 C1384 2.802 . S
C1321 N1322 1.379 . S
C1321 C1324 1.416 . S
C1321 C1328 1.424 . S
N1322 C1321 1.379 . S
N1322 C1325 1.334 . S
N1322 Tb1331 2.617 . S
C1323 C1325 1.390 . S
C1323 C1326 1.339 . S
C1323 H1343 0.930 . S
C1324 C1321 1.416 . S
C1324 C1326 1.416 . S
C1324 C1330 1.448 . S
C1325 N1322 1.334 . S
C1325 C1323 1.390 . S
C1325 H1336 0.930 . S
C1326 C1323 1.339 . S
C1326 C1324 1.416 . S
C1326 H1347 0.930 . S
C1327 C1328 1.413 . S
C1327 C1329 1.427 . S
C1327 C1333 1.416 . S
C1328 C1321 1.424 . S
C1328 C1327 1.413 . S
C1328 N1332 1.361 . S
C1329 C1327 1.427 . S
C1329 C1330 1.328 . S
C1329 H1344 0.929 . S
C1330 C1324 1.448 . S
C1330 C1329 1.328 . S
C1330 H1345 0.930 . S
Tb1331 N1322 2.617 . S
Tb1331 N1332 2.572 . S
Tb1331 O1366 2.349 . S
Tb1331 O1369 2.393 . S
Tb1331 O1370 2.465 . S
Tb1331 O1371 2.387 . S
Tb1331 O1373 2.428 . S
Tb1331 O1374 2.308 . S
Tb1331 C1395 2.802 . S
N1332 C1328 1.361 . S
N1332 Tb1331 2.572 . S
N1332 C1334 1.340 . S
C1333 C1327 1.416 . S
C1333 C1335 1.332 . S
C1333 H1341 0.931 . S
C1334 N1332 1.340 . S
C1334 C1335 1.407 . S
C1334 H1340 0.930 . S
C1335 C1333 1.332 . S
C1335 C1334 1.407 . S
C1335 H1337 0.929 . S
H1336 C1325 0.930 . S
H1337 C1335 0.929 . S
H1338 C1353 0.930 . S
H1339 C1360 0.929 . S
H1340 C1334 0.930 . S
H1341 C1333 0.931 . S
H1342 C1356 0.930 . S
H1343 C1323 0.930 . S
H1344 C1329 0.929 . S
H1345 C1330 0.930 . S
H1346 C1351 0.930 . S
H1347 C1326 0.930 . S
H1348 C1359 0.931 . S
N1349 Tb1320 2.617 . S
N1349 C1350 1.379 . S
N1349 C1353 1.334 . S
C1350 N1349 1.379 . S
C1350 C1352 1.416 . S
C1350 C1358 1.424 . S
C1351 H1346 0.930 . S
C1351 C1353 1.390 . S
C1351 C1354 1.339 . S
C1352 C1350 1.416 . S
C1352 C1354 1.416 . S
C1352 C1385 1.448 . S
C1353 H1338 0.930 . S
C1353 N1349 1.334 . S
C1353 C1351 1.390 . S
C1354 C1351 1.339 . S
C1354 C1352 1.416 . S
C1354 H1361 0.930 . S
N1355 Tb1320 2.572 . S
N1355 C1356 1.340 . S
N1355 C1358 1.361 . S
C1356 H1342 0.930 . S
C1356 N1355 1.340 . S
C1356 C1360 1.407 . S
C1357 C1358 1.413 . S
C1357 C1359 1.416 . S
C1357 C1386 1.427 . S
C1358 C1350 1.424 . S
C1358 N1355 1.361 . S
C1358 C1357 1.413 . S
C1359 H1348 0.931 . S
C1359 C1357 1.416 . S
C1359 C1360 1.332 . S
C1360 H1339 0.929 . S
C1360 C1356 1.407 . S
C1360 C1359 1.332 . S
H1361 C1354 0.930 . S
H1362 C1385 0.930 . S
H1363 C1386 0.929 . S
O1364 Tb1320 2.465 . S
O1364 C1384 1.264 . S
O1365 Tb1320 2.387 . S
O1365 C1376 1.264 . S
O1366 Tb1331 2.349 . S
O1366 C1376 1.243 . S
O1367 Tb1320 2.428 . S
O1367 C1384 1.256 . S
O1368 Tb1320 2.308 . S
O1368 C1383 1.266 . S
O1369 Tb1331 2.393 . S
O1369 C1383 1.248 . S
O1370 Tb1331 2.465 . S
O1370 C1395 1.264 . S
O1371 Tb1331 2.387 . S
O1371 C1387 1.264 . S
O1372 Tb1320 2.349 . S
O1372 C1387 1.243 . S
O1373 Tb1331 2.428 . S
O1373 C1395 1.256 . S
O1374 Tb1331 2.308 . S
O1374 C1394 1.266 . S
O1375 Tb1320 2.393 . S
O1375 C1394 1.248 . S
C1376 O1365 1.264 . S
C1376 O1366 1.243 . S
C1377 C1380 1.399 . S
C1377 C1382 1.383 . S
C1377 C1384 1.496 . S
C1378 C1379 1.399 . S
C1378 C1382 1.389 . S
C1379 C1378 1.399 . S
C1379 C1381 1.380 . S
C1379 H1396 0.929 . S
C1380 C1377 1.399 . S
C1380 C1381 1.392 . S
C1380 H1397 0.929 . S
C1381 C1379 1.380 . S
C1381 C1380 1.392 . S
C1381 H1398 0.929 . S
C1382 C1377 1.383 . S
C1382 C1378 1.389 . S
C1382 H1399 0.931 . S
C1383 O1368 1.266 . S
C1383 O1369 1.248 . S
C1384 Tb1320 2.802 . S
C1384 O1364 1.264 . S
C1384 O1367 1.256 . S
C1384 C1377 1.496 . S
C1385 C1352 1.448 . S
C1385 H1362 0.930 . S
C1385 C1386 1.328 . S
C1386 C1357 1.427 . S
C1386 H1363 0.929 . S
C1386 C1385 1.328 . S
C1387 O1371 1.264 . S
C1387 O1372 1.243 . S
C1388 C1391 1.399 . S
C1388 C1392 1.383 . S
C1388 C1395 1.496 . S
C1389 C1390 1.399 . S
C1389 C1392 1.389 . S
C1390 C1389 1.399 . S
C1390 C1393 1.380 . S
C1390 H1400 0.929 . S
C1391 C1388 1.399 . S
C1391 C1393 1.392 . S
C1391 H1401 0.929 . S
C1392 C1388 1.383 . S
C1392 C1389 1.389 . S
C1392 H1402 0.931 . S
C1393 C1390 1.380 . S
C1393 C1391 1.392 . S
C1393 H1403 0.929 . S
C1394 O1374 1.266 . S
C1394 O1375 1.248 . S
C1395 Tb1331 2.802 . S
C1395 O1370 1.264 . S
C1395 O1373 1.256 . S
C1395 C1388 1.496 . S
H1396 C1379 0.929 . S
H1397 C1380 0.929 . S
H1398 C1381 0.929 . S
H1399 C1382 0.931 . S
H1400 C1390 0.929 . S
H1401 C1391 0.929 . S
H1402 C1392 0.931 . S
H1403 C1393 0.929 . S
Tb1404 N1433 2.617 . S
Tb1404 N1439 2.572 . S
Tb1404 O1448 2.465 . S
Tb1404 O1449 2.387 . S
Tb1404 O1451 2.428 . S
Tb1404 O1452 2.308 . S
Tb1404 O1456 2.349 . S
Tb1404 O1459 2.393 . S
Tb1404 C1468 2.802 . S
C1405 N1406 1.379 . S
C1405 C1408 1.416 . S
C1405 C1412 1.424 . S
N1406 C1405 1.379 . S
N1406 C1409 1.334 . S
N1406 Tb1415 2.617 . S
C1407 C1409 1.390 . S
C1407 C1410 1.339 . S
C1407 H1427 0.930 . S
C1408 C1405 1.416 . S
C1408 C1410 1.416 . S
C1408 C1414 1.448 . S
C1409 N1406 1.334 . S
C1409 C1407 1.390 . S
C1409 H1420 0.930 . S
C1410 C1407 1.339 . S
C1410 C1408 1.416 . S
C1410 H1431 0.930 . S
C1411 C1412 1.413 . S
C1411 C1413 1.427 . S
C1411 C1417 1.416 . S
C1412 C1405 1.424 . S
C1412 C1411 1.413 . S
C1412 N1416 1.361 . S
C1413 C1411 1.427 . S
C1413 C1414 1.328 . S
C1413 H1428 0.929 . S
C1414 C1408 1.448 . S
C1414 C1413 1.328 . S
C1414 H1429 0.930 . S
Tb1415 N1406 2.617 . S
Tb1415 N1416 2.572 . S
Tb1415 O1450 2.349 . S
Tb1415 O1453 2.393 . S
Tb1415 O1454 2.465 . S
Tb1415 O1455 2.387 . S
Tb1415 O1457 2.428 . S
Tb1415 O1458 2.308 . S
Tb1415 C1479 2.802 . S
N1416 C1412 1.361 . S
N1416 Tb1415 2.572 . S
N1416 C1418 1.340 . S
C1417 C1411 1.416 . S
C1417 C1419 1.332 . S
C1417 H1425 0.931 . S
C1418 N1416 1.340 . S
C1418 C1419 1.407 . S
C1418 H1424 0.930 . S
C1419 C1417 1.332 . S
C1419 C1418 1.407 . S
C1419 H1421 0.929 . S
H1420 C1409 0.930 . S
H1421 C1419 0.929 . S
H1422 C1437 0.930 . S
H1423 C1444 0.929 . S
H1424 C1418 0.930 . S
H1425 C1417 0.931 . S
H1426 C1440 0.930 . S
H1427 C1407 0.930 . S
H1428 C1413 0.929 . S
H1429 C1414 0.930 . S
H1430 C1435 0.930 . S
H1431 C1410 0.930 . S
H1432 C1443 0.931 . S
N1433 Tb1404 2.617 . S
N1433 C1434 1.379 . S
N1433 C1437 1.334 . S
C1434 N1433 1.379 . S
C1434 C1436 1.416 . S
C1434 C1442 1.424 . S
C1435 H1430 0.930 . S
C1435 C1437 1.390 . S
C1435 C1438 1.339 . S
C1436 C1434 1.416 . S
C1436 C1438 1.416 . S
C1436 C1469 1.448 . S
C1437 H1422 0.930 . S
C1437 N1433 1.334 . S
C1437 C1435 1.390 . S
C1438 C1435 1.339 . S
C1438 C1436 1.416 . S
C1438 H1445 0.930 . S
N1439 Tb1404 2.572 . S
N1439 C1440 1.340 . S
N1439 C1442 1.361 . S
C1440 H1426 0.930 . S
C1440 N1439 1.340 . S
C1440 C1444 1.407 . S
C1441 C1442 1.413 . S
C1441 C1443 1.416 . S
C1441 C1470 1.427 . S
C1442 C1434 1.424 . S
C1442 N1439 1.361 . S
C1442 C1441 1.413 . S
C1443 H1432 0.931 . S
C1443 C1441 1.416 . S
C1443 C1444 1.332 . S
C1444 H1423 0.929 . S
C1444 C1440 1.407 . S
C1444 C1443 1.332 . S
H1445 C1438 0.930 . S
H1446 C1469 0.930 . S
H1447 C1470 0.929 . S
O1448 Tb1404 2.465 . S
O1448 C1468 1.264 . S
O1449 Tb1404 2.387 . S
O1449 C1460 1.264 . S
O1450 Tb1415 2.349 . S
O1450 C1460 1.243 . S
O1451 Tb1404 2.428 . S
O1451 C1468 1.256 . S
O1452 Tb1404 2.308 . S
O1452 C1467 1.266 . S
O1453 Tb1415 2.393 . S
O1453 C1467 1.248 . S
O1454 Tb1415 2.465 . S
O1454 C1479 1.264 . S
O1455 Tb1415 2.387 . S
O1455 C1471 1.264 . S
O1456 Tb1404 2.349 . S
O1456 C1471 1.243 . S
O1457 Tb1415 2.428 . S
O1457 C1479 1.256 . S
O1458 Tb1415 2.308 . S
O1458 C1478 1.266 . S
O1459 Tb1404 2.393 . S
O1459 C1478 1.248 . S
C1460 O1449 1.264 . S
C1460 O1450 1.243 . S
C1461 C1464 1.399 . S
C1461 C1466 1.383 . S
C1461 C1468 1.496 . S
C1462 C1463 1.399 . S
C1462 C1466 1.389 . S
C1463 C1462 1.399 . S
C1463 C1465 1.380 . S
C1463 H1480 0.929 . S
C1464 C1461 1.399 . S
C1464 C1465 1.392 . S
C1464 H1481 0.929 . S
C1465 C1463 1.380 . S
C1465 C1464 1.392 . S
C1465 H1482 0.929 . S
C1466 C1461 1.383 . S
C1466 C1462 1.389 . S
C1466 H1483 0.931 . S
C1467 O1452 1.266 . S
C1467 O1453 1.248 . S
C1468 Tb1404 2.802 . S
C1468 O1448 1.264 . S
C1468 O1451 1.256 . S
C1468 C1461 1.496 . S
C1469 C1436 1.448 . S
C1469 H1446 0.930 . S
C1469 C1470 1.328 . S
C1470 C1441 1.427 . S
C1470 H1447 0.929 . S
C1470 C1469 1.328 . S
C1471 O1455 1.264 . S
C1471 O1456 1.243 . S
C1472 C1475 1.399 . S
C1472 C1476 1.383 . S
C1472 C1479 1.496 . S
C1473 C1474 1.399 . S
C1473 C1476 1.389 . S
C1474 C1473 1.399 . S
C1474 C1477 1.380 . S
C1474 H1484 0.929 . S
C1475 C1472 1.399 . S
C1475 C1477 1.392 . S
C1475 H1485 0.929 . S
C1476 C1472 1.383 . S
C1476 C1473 1.389 . S
C1476 H1486 0.931 . S
C1477 C1474 1.380 . S
C1477 C1475 1.392 . S
C1477 H1487 0.929 . S
C1478 O1458 1.266 . S
C1478 O1459 1.248 . S
C1479 Tb1415 2.802 . S
C1479 O1454 1.264 . S
C1479 O1457 1.256 . S
C1479 C1472 1.496 . S
H1480 C1463 0.929 . S
H1481 C1464 0.929 . S
H1482 C1465 0.929 . S
H1483 C1466 0.931 . S
H1484 C1474 0.929 . S
H1485 C1475 0.929 . S
H1486 C1476 0.931 . S
H1487 C1477 0.929 . S
Tb1488 N1517 2.617 . S
Tb1488 N1523 2.572 . S
Tb1488 O1532 2.465 . S
Tb1488 O1533 2.387 . S
Tb1488 O1535 2.428 . S
Tb1488 O1536 2.308 . S
Tb1488 O1540 2.349 . S
Tb1488 O1543 2.393 . S
Tb1488 C1552 2.802 . S
C1489 N1490 1.379 . S
C1489 C1492 1.416 . S
C1489 C1496 1.424 . S
N1490 C1489 1.379 . S
N1490 C1493 1.334 . S
N1490 Tb1499 2.617 . S
C1491 C1493 1.390 . S
C1491 C1494 1.339 . S
C1491 H1511 0.930 . S
C1492 C1489 1.416 . S
C1492 C1494 1.416 . S
C1492 C1498 1.448 . S
C1493 N1490 1.334 . S
C1493 C1491 1.390 . S
C1493 H1504 0.930 . S
C1494 C1491 1.339 . S
C1494 C1492 1.416 . S
C1494 H1515 0.930 . S
C1495 C1496 1.413 . S
C1495 C1497 1.427 . S
C1495 C1501 1.416 . S
C1496 C1489 1.424 . S
C1496 C1495 1.413 . S
C1496 N1500 1.361 . S
C1497 C1495 1.427 . S
C1497 C1498 1.328 . S
C1497 H1512 0.929 . S
C1498 C1492 1.448 . S
C1498 C1497 1.328 . S
C1498 H1513 0.930 . S
Tb1499 N1490 2.617 . S
Tb1499 N1500 2.572 . S
Tb1499 O1534 2.349 . S
Tb1499 O1537 2.393 . S
Tb1499 O1538 2.465 . S
Tb1499 O1539 2.387 . S
Tb1499 O1541 2.428 . S
Tb1499 O1542 2.308 . S
Tb1499 C1563 2.802 . S
N1500 C1496 1.361 . S
N1500 Tb1499 2.572 . S
N1500 C1502 1.340 . S
C1501 C1495 1.416 . S
C1501 C1503 1.332 . S
C1501 H1509 0.931 . S
C1502 N1500 1.340 . S
C1502 C1503 1.407 . S
C1502 H1508 0.930 . S
C1503 C1501 1.332 . S
C1503 C1502 1.407 . S
C1503 H1505 0.929 . S
H1504 C1493 0.930 . S
H1505 C1503 0.929 . S
H1506 C1521 0.930 . S
H1507 C1528 0.929 . S
H1508 C1502 0.930 . S
H1509 C1501 0.931 . S
H1510 C1524 0.930 . S
H1511 C1491 0.930 . S
H1512 C1497 0.929 . S
H1513 C1498 0.930 . S
H1514 C1519 0.930 . S
H1515 C1494 0.930 . S
H1516 C1527 0.931 . S
N1517 Tb1488 2.617 . S
N1517 C1518 1.379 . S
N1517 C1521 1.334 . S
C1518 N1517 1.379 . S
C1518 C1520 1.416 . S
C1518 C1526 1.424 . S
C1519 H1514 0.930 . S
C1519 C1521 1.390 . S
C1519 C1522 1.339 . S
C1520 C1518 1.416 . S
C1520 C1522 1.416 . S
C1520 C1553 1.448 . S
C1521 H1506 0.930 . S
C1521 N1517 1.334 . S
C1521 C1519 1.390 . S
C1522 C1519 1.339 . S
C1522 C1520 1.416 . S
C1522 H1529 0.930 . S
N1523 Tb1488 2.572 . S
N1523 C1524 1.340 . S
N1523 C1526 1.361 . S
C1524 H1510 0.930 . S
C1524 N1523 1.340 . S
C1524 C1528 1.407 . S
C1525 C1526 1.413 . S
C1525 C1527 1.416 . S
C1525 C1554 1.427 . S
C1526 C1518 1.424 . S
C1526 N1523 1.361 . S
C1526 C1525 1.413 . S
C1527 H1516 0.931 . S
C1527 C1525 1.416 . S
C1527 C1528 1.332 . S
C1528 H1507 0.929 . S
C1528 C1524 1.407 . S
C1528 C1527 1.332 . S
H1529 C1522 0.930 . S
H1530 C1553 0.930 . S
H1531 C1554 0.929 . S
O1532 Tb1488 2.465 . S
O1532 C1552 1.264 . S
O1533 Tb1488 2.387 . S
O1533 C1544 1.264 . S
O1534 Tb1499 2.349 . S
O1534 C1544 1.243 . S
O1535 Tb1488 2.428 . S
O1535 C1552 1.256 . S
O1536 Tb1488 2.308 . S
O1536 C1551 1.266 . S
O1537 Tb1499 2.393 . S
O1537 C1551 1.248 . S
O1538 Tb1499 2.465 . S
O1538 C1563 1.264 . S
O1539 Tb1499 2.387 . S
O1539 C1555 1.264 . S
O1540 Tb1488 2.349 . S
O1540 C1555 1.243 . S
O1541 Tb1499 2.428 . S
O1541 C1563 1.256 . S
O1542 Tb1499 2.308 . S
O1542 C1562 1.266 . S
O1543 Tb1488 2.393 . S
O1543 C1562 1.248 . S
C1544 O1533 1.264 . S
C1544 O1534 1.243 . S
C1545 C1548 1.399 . S
C1545 C1550 1.383 . S
C1545 C1552 1.496 . S
C1546 C1547 1.399 . S
C1546 C1550 1.389 . S
C1547 C1546 1.399 . S
C1547 C1549 1.380 . S
C1547 H1564 0.929 . S
C1548 C1545 1.399 . S
C1548 C1549 1.392 . S
C1548 H1565 0.929 . S
C1549 C1547 1.380 . S
C1549 C1548 1.392 . S
C1549 H1566 0.929 . S
C1550 C1545 1.383 . S
C1550 C1546 1.389 . S
C1550 H1567 0.931 . S
C1551 O1536 1.266 . S
C1551 O1537 1.248 . S
C1552 Tb1488 2.802 . S
C1552 O1532 1.264 . S
C1552 O1535 1.256 . S
C1552 C1545 1.496 . S
C1553 C1520 1.448 . S
C1553 H1530 0.930 . S
C1553 C1554 1.328 . S
C1554 C1525 1.427 . S
C1554 H1531 0.929 . S
C1554 C1553 1.328 . S
C1555 O1539 1.264 . S
C1555 O1540 1.243 . S
C1556 C1559 1.399 . S
C1556 C1560 1.383 . S
C1556 C1563 1.496 . S
C1557 C1558 1.399 . S
C1557 C1560 1.389 . S
C1558 C1557 1.399 . S
C1558 C1561 1.380 . S
C1558 H1568 0.929 . S
C1559 C1556 1.399 . S
C1559 C1561 1.392 . S
C1559 H1569 0.929 . S
C1560 C1556 1.383 . S
C1560 C1557 1.389 . S
C1560 H1570 0.931 . S
C1561 C1558 1.380 . S
C1561 C1559 1.392 . S
C1561 H1571 0.929 . S
C1562 O1542 1.266 . S
C1562 O1543 1.248 . S
C1563 Tb1499 2.802 . S
C1563 O1538 1.264 . S
C1563 O1541 1.256 . S
C1563 C1556 1.496 . S
H1564 C1547 0.929 . S
H1565 C1548 0.929 . S
H1566 C1549 0.929 . S
H1567 C1550 0.931 . S
H1568 C1558 0.929 . S
H1569 C1559 0.929 . S
H1570 C1560 0.931 . S
H1571 C1561 0.929 . S
Tb1572 N1601 2.617 1_455 S
Tb1572 N1607 2.572 1_455 S
Tb1572 O1616 2.465 1_455 S
Tb1572 O1617 2.387 . S
Tb1572 O1619 2.428 1_455 S
Tb1572 O1620 2.308 . S
Tb1572 O1624 2.349 . S
Tb1572 O1627 2.393 . S
Tb1572 C1636 2.802 1_455 S
C1573 N1574 1.379 . S
C1573 C1576 1.416 . S
C1573 C1580 1.424 1_556 S
N1574 C1573 1.379 . S
N1574 C1577 1.334 . S
N1574 Tb1583 2.617 1_556 S
C1575 C1577 1.390 . S
C1575 C1578 1.339 . S
C1575 H1595 0.930 . S
C1576 C1573 1.416 . S
C1576 C1578 1.416 . S
C1576 C1582 1.448 . S
C1577 N1574 1.334 . S
C1577 C1575 1.390 . S
C1577 H1588 0.930 . S
C1578 C1575 1.339 . S
C1578 C1576 1.416 . S
C1578 H1599 0.930 . S
C1579 C1580 1.413 . S
C1579 C1581 1.427 1_554 S
C1579 C1585 1.416 . S
C1580 C1573 1.424 1_554 S
C1580 C1579 1.413 . S
C1580 N1584 1.361 . S
C1581 C1579 1.427 1_556 S
C1581 C1582 1.328 . S
C1581 H1596 0.929 . S
C1582 C1576 1.448 . S
C1582 C1581 1.328 . S
C1582 H1597 0.930 . S
Tb1583 N1574 2.617 1_554 S
Tb1583 N1584 2.572 . S
Tb1583 O1618 2.349 . S
Tb1583 O1621 2.393 1_554 S
Tb1583 O1622 2.465 . S
Tb1583 O1623 2.387 . S
Tb1583 O1625 2.428 1_554 S
Tb1583 O1626 2.308 . S
Tb1583 C1647 2.802 1_554 S
N1584 C1580 1.361 . S
N1584 Tb1583 2.572 . S
N1584 C1586 1.340 . S
C1585 C1579 1.416 . S
C1585 C1587 1.332 . S
C1585 H1593 0.931 . S
C1586 N1584 1.340 . S
C1586 C1587 1.407 . S
C1586 H1592 0.930 . S
C1587 C1585 1.332 . S
C1587 C1586 1.407 . S
C1587 H1589 0.929 . S
H1588 C1577 0.930 . S
H1589 C1587 0.929 . S
H1590 C1605 0.930 . S
H1591 C1612 0.929 1_556 S
H1592 C1586 0.930 . S
H1593 C1585 0.931 . S
H1594 C1608 0.930 . S
H1595 C1575 0.930 . S
H1596 C1581 0.929 . S
H1597 C1582 0.930 . S
H1598 C1603 0.930 . S
H1599 C1578 0.930 . S
H1600 C1611 0.931 . S
N1601 Tb1572 2.617 1_655 S
N1601 C1602 1.379 . S
N1601 C1605 1.334 1_655 S
C1602 N1601 1.379 . S
C1602 C1604 1.416 . S
C1602 C1610 1.424 . S
C1603 H1598 0.930 . S
C1603 C1605 1.390 . S
C1603 C1606 1.339 1_455 S
C1604 C1602 1.416 . S
C1604 C1606 1.416 . S
C1604 C1637 1.448 . S
C1605 H1590 0.930 . S
C1605 N1601 1.334 1_455 S
C1605 C1603 1.390 . S
C1606 C1603 1.339 1_655 S
C1606 C1604 1.416 . S
C1606 H1613 0.930 . S
N1607 Tb1572 2.572 1_655 S
N1607 C1608 1.340 . S
N1607 C1610 1.361 . S
C1608 H1594 0.930 . S
C1608 N1607 1.340 . S
C1608 C1612 1.407 . S
C1609 C1610 1.413 . S
C1609 C1611 1.416 . S
C1609 C1638 1.427 . S
C1610 C1602 1.424 . S
C1610 N1607 1.361 . S
C1610 C1609 1.413 . S
C1611 H1600 0.931 . S
C1611 C1609 1.416 . S
C1611 C1612 1.332 . S
C1612 H1591 0.929 1_554 S
C1612 C1608 1.407 . S
C1612 C1611 1.332 . S
H1613 C1606 0.930 . S
H1614 C1637 0.930 . S
H1615 C1638 0.929 . S
O1616 Tb1572 2.465 1_655 S
O1616 C1636 1.264 . S
O1617 Tb1572 2.387 . S
O1617 C1628 1.264 . S
O1618 Tb1583 2.349 . S
O1618 C1628 1.243 . S
O1619 Tb1572 2.428 1_655 S
O1619 C1636 1.256 . S
O1620 Tb1572 2.308 . S
O1620 C1635 1.266 1_554 S
O1621 Tb1583 2.393 1_556 S
O1621 C1635 1.248 . S
O1622 Tb1583 2.465 . S
O1622 C1647 1.264 1_554 S
O1623 Tb1583 2.387 . S
O1623 C1639 1.264 . S
O1624 Tb1572 2.349 . S
O1624 C1639 1.243 . S
O1625 Tb1583 2.428 1_556 S
O1625 C1647 1.256 . S
O1626 Tb1583 2.308 . S
O1626 C1646 1.266 . S
O1627 Tb1572 2.393 . S
O1627 C1646 1.248 . S
C1628 O1617 1.264 . S
C1628 O1618 1.243 . S
C1629 C1632 1.399 . S
C1629 C1634 1.383 . S
C1629 C1636 1.496 . S
C1630 C1631 1.399 . S
C1630 C1634 1.389 . S
C1631 C1630 1.399 . S
C1631 C1633 1.380 . S
C1631 H1648 0.929 . S
C1632 C1629 1.399 . S
C1632 C1633 1.392 . S
C1632 H1649 0.929 . S
C1633 C1631 1.380 . S
C1633 C1632 1.392 . S
C1633 H1650 0.929 . S
C1634 C1629 1.383 . S
C1634 C1630 1.389 . S
C1634 H1651 0.931 . S
C1635 O1620 1.266 1_556 S
C1635 O1621 1.248 . S
C1636 Tb1572 2.802 1_655 S
C1636 O1616 1.264 . S
C1636 O1619 1.256 . S
C1636 C1629 1.496 . S
C1637 C1604 1.448 . S
C1637 H1614 0.930 . S
C1637 C1638 1.328 . S
C1638 C1609 1.427 . S
C1638 H1615 0.929 . S
C1638 C1637 1.328 . S
C1639 O1623 1.264 . S
C1639 O1624 1.243 . S
C1640 C1643 1.399 . S
C1640 C1644 1.383 1_556 S
C1640 C1647 1.496 . S
C1641 C1642 1.399 1_554 S
C1641 C1644 1.389 . S
C1642 C1641 1.399 1_556 S
C1642 C1645 1.380 . S
C1642 H1652 0.929 . S
C1643 C1640 1.399 . S
C1643 C1645 1.392 . S
C1643 H1653 0.929 . S
C1644 C1640 1.383 1_554 S
C1644 C1641 1.389 . S
C1644 H1654 0.931 . S
C1645 C1642 1.380 . S
C1645 C1643 1.392 . S
C1645 H1655 0.929 . S
C1646 O1626 1.266 . S
C1646 O1627 1.248 . S
C1647 Tb1583 2.802 1_556 S
C1647 O1622 1.264 1_556 S
C1647 O1625 1.256 . S
C1647 C1640 1.496 . S
H1648 C1631 0.929 . S
H1649 C1632 0.929 . S
H1650 C1633 0.929 . S
H1651 C1634 0.931 . S
H1652 C1642 0.929 . S
H1653 C1643 0.929 . S
H1654 C1644 0.931 . S
H1655 C1645 0.929 . S
C1656 C1657 1.369 1_655 S
C1656 C1658 1.419 . S
C1656 H1660 0.930 . S
C1657 C1656 1.369 1_455 S
C1657 C1666 1.429 . S
C1658 C1656 1.419 . S
C1658 C1659 1.363 1_655 S
C1658 H1661 0.929 . S
C1659 C1658 1.363 1_455 S
C1659 C1665 1.428 . S
H1660 C1656 0.930 . S
H1661 C1658 0.929 . S
S1662 N1663 1.617 . S
S1662 N1664 1.610 1_556 S
N1663 S1662 1.617 . S
N1663 C1666 1.334 1_556 S
N1664 S1662 1.610 1_554 S
N1664 C1665 1.351 . S
C1665 C1659 1.428 . S
C1665 N1664 1.351 . S
C1665 C1666 1.434 . S
C1666 C1657 1.429 . S
C1666 N1663 1.334 1_554 S
C1666 C1665 1.434 . S
C1667 C1668 1.369 . S
C1667 C1669 1.419 . S
C1667 H1671 0.930 . S
C1668 C1667 1.369 . S
C1668 C1677 1.429 . S
C1669 C1667 1.419 . S
C1669 C1670 1.363 . S
C1669 H1672 0.929 . S
C1670 C1669 1.363 . S
C1670 C1676 1.428 . S
H1671 C1667 0.930 . S
H1672 C1669 0.929 . S
S1673 N1674 1.613 . S
S1673 N1675 1.610 . S
N1674 S1673 1.613 . S
N1674 C1677 1.350 . S
N1675 S1673 1.610 . S
N1675 C1676 1.351 . S
C1676 C1670 1.428 . S
C1676 N1675 1.351 . S
C1676 C1677 1.434 . S
C1677 C1668 1.429 . S
C1677 N1674 1.350 . S
C1677 C1676 1.434 . S
C1678 C1679 1.369 . S
C1678 C1680 1.419 . S
C1678 H1682 0.930 . S
C1679 C1678 1.369 . S
C1679 C1688 1.429 . S
C1680 C1678 1.419 . S
C1680 C1681 1.363 . S
C1680 H1683 0.929 . S
C1681 C1680 1.363 . S
C1681 C1687 1.428 . S
H1682 C1678 0.930 . S
H1683 C1680 0.929 . S
S1684 N1685 1.613 . S
S1684 N1686 1.610 . S
N1685 S1684 1.613 . S
N1685 C1688 1.350 . S
N1686 S1684 1.610 . S
N1686 C1687 1.351 . S
C1687 C1681 1.428 . S
C1687 N1686 1.351 . S
C1687 C1688 1.434 . S
C1688 C1679 1.429 . S
C1688 N1685 1.350 . S
C1688 C1687 1.434 . S
C1689 C1690 1.369 . S
C1689 C1691 1.419 . S
C1689 H1693 0.930 . S
C1690 C1689 1.369 . S
C1690 C1699 1.429 . S
C1691 C1689 1.419 . S
C1691 C1692 1.363 . S
C1691 H1694 0.929 . S
C1692 C1691 1.363 . S
C1692 C1698 1.428 . S
H1693 C1689 0.930 . S
H1694 C1691 0.929 . S
S1695 N1696 1.613 . S
S1695 N1697 1.610 . S
N1696 S1695 1.613 . S
N1696 C1699 1.350 . S
N1697 S1695 1.610 . S
N1697 C1698 1.351 . S
C1698 C1692 1.428 . S
C1698 N1697 1.351 . S
C1698 C1699 1.434 . S
C1699 C1690 1.429 . S
C1699 N1696 1.350 . S
C1699 C1698 1.434 . S
C1700 C1701 1.369 . S
C1700 C1702 1.419 . S
C1700 H1704 0.930 1_455 S
C1701 C1700 1.369 . S
C1701 C1710 1.429 . S
C1702 C1700 1.419 . S
C1702 C1703 1.363 . S
C1702 H1705 0.929 1_455 S
C1703 C1702 1.363 . S
C1703 C1709 1.428 . S
H1704 C1700 0.930 1_655 S
H1705 C1702 0.929 1_655 S
S1706 N1707 1.613 . S
S1706 N1708 1.610 . S
N1707 S1706 1.613 . S
N1707 C1710 1.350 . S
N1708 S1706 1.610 . S
N1708 C1709 1.351 . S
C1709 C1703 1.428 . S
C1709 N1708 1.351 . S
C1709 C1710 1.434 . S
C1710 C1701 1.429 . S
C1710 N1707 1.350 . S
C1710 C1709 1.434 . S
C1711 C1712 1.369 . S
C1711 C1713 1.419 . S
C1711 H1715 0.930 . S
C1712 C1711 1.369 . S
C1712 C1721 1.429 . S
C1713 C1711 1.419 . S
C1713 C1714 1.363 . S
C1713 H1716 0.929 . S
C1714 C1713 1.363 . S
C1714 C1720 1.428 . S
H1715 C1711 0.930 . S
H1716 C1713 0.929 . S
S1717 N1718 1.613 . S
S1717 N1719 1.610 . S
N1718 S1717 1.613 . S
N1718 C1721 1.350 . S
N1719 S1717 1.610 . S
N1719 C1720 1.351 . S
C1720 C1714 1.428 . S
C1720 N1719 1.351 . S
C1720 C1721 1.434 . S
C1721 C1712 1.429 . S
C1721 N1718 1.350 . S
C1721 C1720 1.434 . S
C1722 C1723 1.369 . S
C1722 C1724 1.419 . S
C1722 H1726 0.930 . S
C1723 C1722 1.369 . S
C1723 C1732 1.429 . S
C1724 C1722 1.419 . S
C1724 C1725 1.363 . S
C1724 H1727 0.929 . S
C1725 C1724 1.363 . S
C1725 C1731 1.428 . S
H1726 C1722 0.930 . S
H1727 C1724 0.929 . S
S1728 N1729 1.613 . S
S1728 N1730 1.610 . S
N1729 S1728 1.613 . S
N1729 C1732 1.350 . S
N1730 S1728 1.610 . S
N1730 C1731 1.351 . S
C1731 C1725 1.428 . S
C1731 N1730 1.351 . S
C1731 C1732 1.434 . S
C1732 C1723 1.429 . S
C1732 N1729 1.350 . S
C1732 C1731 1.434 . S
C1733 C1734 1.369 . S
C1733 C1735 1.419 . S
C1733 H1737 0.930 . S
C1734 C1733 1.369 . S
C1734 C1743 1.429 . S
C1735 C1733 1.419 . S
C1735 C1736 1.363 . S
C1735 H1738 0.929 . S
C1736 C1735 1.363 . S
C1736 C1742 1.428 . S
H1737 C1733 0.930 . S
H1738 C1735 0.929 . S
S1739 N1740 1.613 . S
S1739 N1741 1.610 . S
N1740 S1739 1.613 . S
N1740 C1743 1.350 . S
N1741 S1739 1.610 . S
N1741 C1742 1.351 . S
C1742 C1736 1.428 . S
C1742 N1741 1.351 . S
C1742 C1743 1.434 . S
C1743 C1734 1.429 . S
C1743 N1740 1.350 . S
C1743 C1742 1.434 . S
C1744 C1745 1.369 . S
C1744 C1746 1.419 . S
C1744 H1748 0.930 1_545 S
C1745 C1744 1.369 . S
C1745 C1754 1.429 1_655 S
C1746 C1744 1.419 . S
C1746 C1747 1.363 1_655 S
C1746 H1749 0.929 . S
C1747 C1746 1.363 1_455 S
C1747 C1753 1.428 . S
H1748 C1744 0.930 1_565 S
H1749 C1746 0.929 . S
S1750 N1751 1.613 . S
S1750 N1752 1.610 . S
N1751 S1750 1.613 . S
N1751 C1754 1.350 . S
N1752 S1750 1.610 . S
N1752 C1753 1.351 . S
C1753 C1747 1.428 . S
C1753 N1752 1.351 . S
C1753 C1754 1.434 . S
C1754 C1745 1.429 1_455 S
C1754 N1751 1.350 . S
C1754 C1753 1.434 . S
C1755 C1756 1.369 . S
C1755 C1757 1.419 . S
C1755 H1759 0.930 . S
C1756 C1755 1.369 . S
C1756 C1765 1.429 . S
C1757 C1755 1.419 . S
C1757 C1758 1.363 . S
C1757 H1760 0.929 . S
C1758 C1757 1.363 . S
C1758 C1764 1.428 . S
H1759 C1755 0.930 . S
H1760 C1757 0.929 . S
S1761 N1762 1.613 . S
S1761 N1763 1.610 . S
N1762 S1761 1.613 . S
N1762 C1765 1.350 . S
N1763 S1761 1.610 . S
N1763 C1764 1.351 . S
C1764 C1758 1.428 . S
C1764 N1763 1.351 . S
C1764 C1765 1.434 . S
C1765 C1756 1.429 . S
C1765 N1762 1.350 . S
C1765 C1764 1.434 . S
C1766 C1767 1.369 . S
C1766 C1768 1.419 . S
C1766 H1770 0.930 . S
C1767 C1766 1.369 . S
C1767 C1776 1.429 . S
C1768 C1766 1.419 . S
C1768 C1769 1.363 . S
C1768 H1771 0.929 . S
C1769 C1768 1.363 . S
C1769 C1775 1.428 . S
H1770 C1766 0.930 . S
H1771 C1768 0.929 . S
S1772 N1773 1.613 . S
S1772 N1774 1.610 . S
N1773 S1772 1.613 . S
N1773 C1776 1.350 . S
N1774 S1772 1.610 . S
N1774 C1775 1.351 . S
C1775 C1769 1.428 . S
C1775 N1774 1.351 . S
C1775 C1776 1.434 . S
C1776 C1767 1.429 . S
C1776 N1773 1.350 . S
C1776 C1775 1.434 . S
C1777 C1778 1.369 . S
C1777 C1779 1.419 . S
C1777 H1781 0.930 . S
C1778 C1777 1.369 . S
C1778 C1787 1.429 . S
C1779 C1777 1.419 . S
C1779 C1780 1.363 . S
C1779 H1782 0.929 . S
C1780 C1779 1.363 . S
C1780 C1786 1.428 . S
H1781 C1777 0.930 . S
H1782 C1779 0.929 . S
S1783 N1784 1.613 . S
S1783 N1785 1.610 . S
N1784 S1783 1.613 . S
N1784 C1787 1.350 . S
N1785 S1783 1.610 . S
N1785 C1786 1.351 . S
C1786 C1780 1.428 . S
C1786 N1785 1.351 . S
C1786 C1787 1.434 . S
C1787 C1778 1.429 . S
C1787 N1784 1.350 . S
C1787 C1786 1.434 . S
C1788 C1789 1.369 . S
C1788 C1790 1.419 . S
C1788 H1792 0.930 . S
C1789 C1788 1.369 . S
C1789 C1798 1.429 1_655 S
C1790 C1788 1.419 . S
C1790 C1791 1.363 1_655 S
C1790 H1793 0.929 . S
C1791 C1790 1.363 1_455 S
C1791 C1797 1.428 . S
H1792 C1788 0.930 . S
H1793 C1790 0.929 . S
S1794 N1795 1.613 . S
S1794 N1796 1.610 . S
N1795 S1794 1.613 . S
N1795 C1798 1.350 1_565 S
N1796 S1794 1.610 . S
N1796 C1797 1.351 1_565 S
C1797 C1791 1.428 . S
C1797 N1796 1.351 1_545 S
C1797 C1798 1.434 . S
C1798 C1789 1.429 1_455 S
C1798 N1795 1.350 1_545 S
C1798 C1797 1.434 . S
C1799 C1800 1.369 . S
C1799 C1801 1.419 . S
C1799 H1803 0.930 . S
C1800 C1799 1.369 . S
C1800 C1809 1.429 . S
C1801 C1799 1.419 . S
C1801 C1802 1.363 . S
C1801 H1804 0.929 . S
C1802 C1801 1.363 . S
C1802 C1808 1.428 . S
H1803 C1799 0.930 . S
H1804 C1801 0.929 . S
S1805 N1806 1.613 . S
S1805 N1807 1.610 . S
N1806 S1805 1.613 . S
N1806 C1809 1.350 . S
N1807 S1805 1.610 . S
N1807 C1808 1.351 . S
C1808 C1802 1.428 . S
C1808 N1807 1.351 . S
C1808 C1809 1.434 . S
C1809 C1800 1.429 . S
C1809 N1806 1.350 . S
C1809 C1808 1.434 . S
C1810 C1811 1.369 . S
C1810 C1812 1.419 . S
C1810 H1814 0.930 . S
C1811 C1810 1.369 . S
C1811 C1820 1.429 . S
C1812 C1810 1.419 . S
C1812 C1813 1.363 . S
C1812 H1815 0.929 . S
C1813 C1812 1.363 . S
C1813 C1819 1.428 . S
H1814 C1810 0.930 . S
H1815 C1812 0.929 . S
S1816 N1817 1.613 . S
S1816 N1818 1.610 . S
N1817 S1816 1.613 . S
N1817 C1820 1.350 . S
N1818 S1816 1.610 . S
N1818 C1819 1.351 . S
C1819 C1813 1.428 . S
C1819 N1818 1.351 . S
C1819 C1820 1.434 . S
C1820 C1811 1.429 . S
C1820 N1817 1.350 . S
C1820 C1819 1.434 . S
C1821 C1822 1.369 . S
C1821 C1823 1.419 . S
C1821 H1825 0.930 . S
C1822 C1821 1.369 . S
C1822 C1831 1.429 . S
C1823 C1821 1.419 . S
C1823 C1824 1.363 . S
C1823 H1826 0.929 . S
C1824 C1823 1.363 . S
C1824 C1830 1.428 . S
H1825 C1821 0.930 . S
H1826 C1823 0.929 . S
S1827 N1828 1.613 . S
S1827 N1829 1.610 . S
N1828 S1827 1.613 . S
N1828 C1831 1.350 . S
N1829 S1827 1.610 . S
N1829 C1830 1.351 . S
C1830 C1824 1.428 . S
C1830 N1829 1.351 . S
C1830 C1831 1.434 . S
C1831 C1822 1.429 . S
C1831 N1828 1.350 . S
C1831 C1830 1.434 . S
C1832 C1833 1.369 1_556 S
C1832 C1834 1.419 1_556 S
C1832 H1836 0.930 . S
C1833 C1832 1.369 1_554 S
C1833 C1842 1.429 1_565 S
C1834 C1832 1.419 1_554 S
C1834 C1835 1.363 1_565 S
C1834 H1837 0.929 . S
C1835 C1834 1.363 1_545 S
C1835 C1841 1.428 . S
H1836 C1832 0.930 . S
H1837 C1834 0.929 . S
S1838 N1839 1.613 . S
S1838 N1840 1.610 . S
N1839 S1838 1.613 . S
N1839 C1842 1.350 . S
N1840 S1838 1.610 . S
N1840 C1841 1.351 . S
C1841 C1835 1.428 . S
C1841 N1840 1.351 . S
C1841 C1842 1.434 . S
C1842 C1833 1.429 1_545 S
C1842 N1839 1.350 . S
C1842 C1841 1.434 . S
C1843 C1844 1.369 1_556 S
C1843 C1845 1.419 1_556 S
C1843 H1847 0.930 . S
C1844 C1843 1.369 1_554 S
C1844 C1853 1.429 . S
C1845 C1843 1.419 1_554 S
C1845 C1846 1.363 . S
C1845 H1848 0.929 1_554 S
C1846 C1845 1.363 . S
C1846 C1852 1.428 . S
H1847 C1843 0.930 . S
H1848 C1845 0.929 1_556 S
S1849 N1850 1.613 . S
S1849 N1851 1.610 . S
N1850 S1849 1.613 . S
N1850 C1853 1.350 . S
N1851 S1849 1.610 . S
N1851 C1852 1.351 . S
C1852 C1846 1.428 . S
C1852 N1851 1.351 . S
C1852 C1853 1.434 . S
C1853 C1844 1.429 . S
C1853 N1850 1.350 . S
C1853 C1852 1.434 . S
C1854 C1855 1.369 . S
C1854 C1856 1.419 . S
C1854 H1858 0.930 . S
C1855 C1854 1.369 . S
C1855 C1864 1.429 . S
C1856 C1854 1.419 . S
C1856 C1857 1.363 . S
C1856 H1859 0.929 . S
C1857 C1856 1.363 . S
C1857 C1863 1.428 . S
H1858 C1854 0.930 . S
H1859 C1856 0.929 . S
S1860 N1861 1.613 . S
S1860 N1862 1.610 . S
N1861 S1860 1.613 . S
N1861 C1864 1.350 . S
N1862 S1860 1.610 . S
N1862 C1863 1.351 . S
C1863 C1857 1.428 . S
C1863 N1862 1.351 . S
C1863 C1864 1.434 . S
C1864 C1855 1.429 . S
C1864 N1861 1.350 . S
C1864 C1863 1.434 . S
C1865 C1866 1.369 . S
C1865 C1867 1.419 . S
C1865 H1869 0.930 . S
C1866 C1865 1.369 . S
C1866 C1875 1.429 . S
C1867 C1865 1.419 . S
C1867 C1868 1.363 . S
C1867 H1870 0.929 . S
C1868 C1867 1.363 . S
C1868 C1874 1.428 . S
H1869 C1865 0.930 . S
H1870 C1867 0.929 . S
S1871 N1872 1.613 . S
S1871 N1873 1.610 . S
N1872 S1871 1.613 . S
N1872 C1875 1.350 . S
N1873 S1871 1.610 . S
N1873 C1874 1.351 . S
C1874 C1868 1.428 . S
C1874 N1873 1.351 . S
C1874 C1875 1.434 . S
C1875 C1866 1.429 . S
C1875 N1872 1.350 . S
C1875 C1874 1.434 . S
C1876 C1877 1.369 . S
C1876 C1878 1.419 . S
C1876 H1880 0.930 . S
C1877 C1876 1.369 . S
C1877 C1886 1.429 . S
C1878 C1876 1.419 . S
C1878 C1879 1.363 . S
C1878 H1881 0.929 . S
C1879 C1878 1.363 . S
C1879 C1885 1.428 . S
H1880 C1876 0.930 . S
H1881 C1878 0.929 . S
S1882 N1883 1.613 . S
S1882 N1884 1.610 . S
N1883 S1882 1.613 . S
N1883 C1886 1.350 . S
N1884 S1882 1.610 . S
N1884 C1885 1.351 . S
C1885 C1879 1.428 . S
C1885 N1884 1.351 . S
C1885 C1886 1.434 . S
C1886 C1877 1.429 . S
C1886 N1883 1.350 . S
C1886 C1885 1.434 . S
C1887 C1888 1.369 . S
C1887 C1889 1.419 . S
C1887 H1891 0.930 . S
C1888 C1887 1.369 . S
C1888 C1897 1.429 . S
C1889 C1887 1.419 . S
C1889 C1890 1.363 . S
C1889 H1892 0.929 . S
C1890 C1889 1.363 . S
C1890 C1896 1.428 . S
H1891 C1887 0.930 . S
H1892 C1889 0.929 . S
S1893 N1894 1.613 . S
S1893 N1895 1.610 . S
N1894 S1893 1.613 . S
N1894 C1897 1.350 . S
N1895 S1893 1.610 . S
N1895 C1896 1.351 . S
C1896 C1890 1.428 . S
C1896 N1895 1.351 . S
C1896 C1897 1.434 . S
C1897 C1888 1.429 . S
C1897 N1894 1.350 . S
C1897 C1896 1.434 . S
C1898 C1899 1.369 . S
C1898 C1900 1.419 . S
C1898 H1902 0.930 . S
C1899 C1898 1.369 . S
C1899 C1908 1.429 . S
C1900 C1898 1.419 . S
C1900 C1901 1.363 . S
C1900 H1903 0.929 . S
C1901 C1900 1.363 . S
C1901 C1907 1.428 . S
H1902 C1898 0.930 . S
H1903 C1900 0.929 . S
S1904 N1905 1.613 . S
S1904 N1906 1.610 . S
N1905 S1904 1.613 . S
N1905 C1908 1.350 . S
N1906 S1904 1.610 . S
N1906 C1907 1.351 . S
C1907 C1901 1.428 . S
C1907 N1906 1.351 . S
C1907 C1908 1.434 . S
C1908 C1899 1.429 . S
C1908 N1905 1.350 . S
C1908 C1907 1.434 . S
C1909 C1910 1.369 . S
C1909 C1911 1.419 . S
C1909 H1913 0.930 . S
C1910 C1909 1.369 . S
C1910 C1919 1.429 . S
C1911 C1909 1.419 . S
C1911 C1912 1.363 . S
C1911 H1914 0.929 . S
C1912 C1911 1.363 . S
C1912 C1918 1.428 . S
H1913 C1909 0.930 . S
H1914 C1911 0.929 . S
S1915 N1916 1.613 . S
S1915 N1917 1.610 . S
N1916 S1915 1.613 . S
N1916 C1919 1.350 . S
N1917 S1915 1.610 . S
N1917 C1918 1.351 . S
C1918 C1912 1.428 . S
C1918 N1917 1.351 . S
C1918 C1919 1.434 . S
C1919 C1910 1.429 . S
C1919 N1916 1.350 . S
C1919 C1918 1.434 . S
C1920 C1921 1.369 . S
C1920 C1922 1.419 . S
C1920 H1924 0.930 . S
C1921 C1920 1.369 . S
C1921 C1930 1.429 . S
C1922 C1920 1.419 . S
C1922 C1923 1.363 . S
C1922 H1925 0.929 . S
C1923 C1922 1.363 . S
C1923 C1929 1.428 . S
H1924 C1920 0.930 . S
H1925 C1922 0.929 . S
S1926 N1927 1.613 1_556 S
S1926 N1928 1.611 1_556 S
N1927 S1926 1.613 1_554 S
N1927 C1930 1.350 . S
N1928 S1926 1.611 1_554 S
N1928 C1929 1.349 . S
C1929 C1923 1.428 . S
C1929 N1928 1.349 . S
C1929 C1930 1.434 . S
C1930 C1921 1.429 . S
C1930 N1927 1.350 . S
C1930 C1929 1.434 . S
C1931 C1932 1.369 . S
C1931 C1933 1.419 . S
C1931 H1935 0.930 . S
C1932 C1931 1.369 . S
C1932 C1941 1.429 . S
C1933 C1931 1.419 . S
C1933 C1934 1.363 . S
C1933 H1936 0.929 . S
C1934 C1933 1.363 . S
C1934 C1940 1.428 . S
H1935 C1931 0.930 . S
H1936 C1933 0.929 . S
S1937 N1938 1.613 . S
S1937 N1939 1.610 . S
N1938 S1937 1.613 . S
N1938 C1941 1.350 . S
N1939 S1937 1.610 . S
N1939 C1940 1.351 . S
C1940 C1934 1.428 . S
C1940 N1939 1.351 . S
C1940 C1941 1.434 . S
C1941 C1932 1.429 . S
C1941 N1938 1.350 . S
C1941 C1940 1.434 . S
C1942 C1943 1.369 . S
C1942 C1944 1.419 . S
C1942 H1946 0.930 . S
C1943 C1942 1.369 . S
C1943 C1952 1.429 . S
C1944 C1942 1.419 . S
C1944 C1945 1.363 . S
C1944 H1947 0.929 . S
C1945 C1944 1.363 . S
C1945 C1951 1.428 . S
H1946 C1942 0.930 . S
H1947 C1944 0.929 . S
S1948 N1949 1.613 . S
S1948 N1950 1.610 . S
N1949 S1948 1.613 . S
N1949 C1952 1.350 . S
N1950 S1948 1.610 . S
N1950 C1951 1.351 . S
C1951 C1945 1.428 . S
C1951 N1950 1.351 . S
C1951 C1952 1.434 . S
C1952 C1943 1.429 . S
C1952 N1949 1.350 . S
C1952 C1951 1.434 . S
C1953 C1954 1.369 . S
C1953 C1955 1.419 . S
C1953 H1957 0.930 . S
C1954 C1953 1.369 . S
C1954 C1963 1.429 . S
C1955 C1953 1.419 . S
C1955 C1956 1.363 . S
C1955 H1958 0.929 . S
C1956 C1955 1.363 . S
C1956 C1962 1.428 . S
H1957 C1953 0.930 . S
H1958 C1955 0.929 . S
S1959 N1960 1.613 . S
S1959 N1961 1.610 . S
N1960 S1959 1.613 . S
N1960 C1963 1.350 . S
N1961 S1959 1.610 . S
N1961 C1962 1.351 . S
C1962 C1956 1.428 . S
C1962 N1961 1.351 . S
C1962 C1963 1.434 . S
C1963 C1954 1.429 . S
C1963 N1960 1.350 . S
C1963 C1962 1.434 . S
C1964 C1965 1.369 . S
C1964 C1966 1.419 . S
C1964 H1968 0.930 . S
C1965 C1964 1.369 . S
C1965 C1974 1.429 . S
C1966 C1964 1.419 . S
C1966 C1967 1.363 . S
C1966 H1969 0.929 . S
C1967 C1966 1.363 . S
C1967 C1973 1.428 . S
H1968 C1964 0.930 . S
H1969 C1966 0.929 . S
S1970 N1971 1.613 . S
S1970 N1972 1.610 . S
N1971 S1970 1.613 . S
N1971 C1974 1.350 . S
N1972 S1970 1.610 . S
N1972 C1973 1.351 . S
C1973 C1967 1.428 . S
C1973 N1972 1.351 . S
C1973 C1974 1.434 . S
C1974 C1965 1.429 . S
C1974 N1971 1.350 . S
C1974 C1973 1.434 . S
C1975 C1976 1.369 . S
C1975 C1977 1.419 . S
C1975 H1979 0.930 . S
C1976 C1975 1.369 . S
C1976 C1985 1.429 . S
C1977 C1975 1.419 . S
C1977 C1978 1.363 . S
C1977 H1980 0.929 . S
C1978 C1977 1.363 . S
C1978 C1984 1.428 . S
H1979 C1975 0.930 . S
H1980 C1977 0.929 . S
S1981 N1982 1.613 . S
S1981 N1983 1.610 . S
N1982 S1981 1.613 . S
N1982 C1985 1.350 . S
N1983 S1981 1.610 . S
N1983 C1984 1.351 . S
C1984 C1978 1.428 . S
C1984 N1983 1.351 . S
C1984 C1985 1.434 . S
C1985 C1976 1.429 . S
C1985 N1982 1.350 . S
C1985 C1984 1.434 . S
C1986 C1987 1.369 . S
C1986 C1988 1.419 . S
C1986 H1990 0.930 . S
C1987 C1986 1.369 . S
C1987 C1996 1.429 . S
C1988 C1986 1.419 . S
C1988 C1989 1.363 . S
C1988 H1991 0.929 1_556 S
C1989 C1988 1.363 . S
C1989 C1995 1.428 . S
H1990 C1986 0.930 . S
H1991 C1988 0.929 1_554 S
S1992 N1993 1.613 . S
S1992 N1994 1.610 . S
N1993 S1992 1.613 . S
N1993 C1996 1.350 . S
N1994 S1992 1.610 . S
N1994 C1995 1.351 . S
C1995 C1989 1.428 . S
C1995 N1994 1.351 . S
C1995 C1996 1.434 . S
C1996 C1987 1.429 . S
C1996 N1993 1.350 . S
C1996 C1995 1.434 . S
C1997 C1998 1.369 . S
C1997 C1999 1.419 . S
C1997 H2001 0.930 . S
C1998 C1997 1.369 . S
C1998 C2007 1.429 . S
C1999 C1997 1.419 . S
C1999 C2000 1.363 . S
C1999 H2002 0.929 . S
C2000 C1999 1.363 . S
C2000 C2006 1.428 . S
H2001 C1997 0.930 . S
H2002 C1999 0.929 . S
S2003 N2004 1.613 . S
S2003 N2005 1.610 . S
N2004 S2003 1.613 . S
N2004 C2007 1.350 . S
N2005 S2003 1.610 . S
N2005 C2006 1.351 . S
C2006 C2000 1.428 . S
C2006 N2005 1.351 . S
C2006 C2007 1.434 . S
C2007 C1998 1.429 . S
C2007 N2004 1.350 . S
C2007 C2006 1.434 . S
C2008 C2009 1.369 . S
C2008 C2010 1.419 . S
C2008 H2012 0.930 . S
C2009 C2008 1.369 . S
C2009 C2018 1.429 . S
C2010 C2008 1.419 . S
C2010 C2011 1.363 . S
C2010 H2013 0.929 . S
C2011 C2010 1.363 . S
C2011 C2017 1.428 . S
H2012 C2008 0.930 . S
H2013 C2010 0.929 . S
S2014 N2015 1.613 1_565 S
S2014 N2016 1.610 . S
N2015 S2014 1.613 1_545 S
N2015 C2018 1.350 . S
N2016 S2014 1.610 . S
N2016 C2017 1.351 1_565 S
C2017 C2011 1.428 . S
C2017 N2016 1.351 1_545 S
C2017 C2018 1.434 . S
C2018 C2009 1.429 . S
C2018 N2015 1.350 . S
C2018 C2017 1.434 . S
C2019 C2020 1.369 . S
C2019 C2021 1.419 . S
C2019 H2023 0.930 . S
C2020 C2019 1.369 . S
C2020 C2029 1.429 . S
C2021 C2019 1.419 . S
C2021 C2022 1.363 . S
C2021 H2024 0.929 . S
C2022 C2021 1.363 . S
C2022 C2028 1.428 . S
H2023 C2019 0.930 . S
H2024 C2021 0.929 . S
S2025 N2026 1.613 . S
S2025 N2027 1.610 . S
N2026 S2025 1.613 . S
N2026 C2029 1.350 . S
N2027 S2025 1.610 . S
N2027 C2028 1.351 . S
C2028 C2022 1.428 . S
C2028 N2027 1.351 . S
C2028 C2029 1.434 . S
C2029 C2020 1.429 . S
C2029 N2026 1.350 . S
C2029 C2028 1.434 . S
C2030 C2031 1.369 1_565 S
C2030 C2032 1.419 1_565 S
C2030 H2034 0.930 . S
C2031 C2030 1.369 1_545 S
C2031 C2040 1.429 . S
C2032 C2030 1.419 1_545 S
C2032 C2033 1.363 . S
C2032 H2035 0.929 1_545 S
C2033 C2032 1.363 . S
C2033 C2039 1.428 . S
H2034 C2030 0.930 . S
H2035 C2032 0.929 1_565 S
S2036 N2037 1.613 . S
S2036 N2038 1.610 . S
N2037 S2036 1.613 . S
N2037 C2040 1.350 . S
N2038 S2036 1.610 . S
N2038 C2039 1.351 . S
C2039 C2033 1.428 . S
C2039 N2038 1.351 . S
C2039 C2040 1.434 . S
C2040 C2031 1.429 . S
C2040 N2037 1.350 . S
C2040 C2039 1.434 . S
C2041 C2042 1.369 . S
C2041 C2043 1.419 . S
C2041 H2045 0.930 . S
C2042 C2041 1.369 . S
C2042 C2051 1.429 . S
C2043 C2041 1.419 . S
C2043 C2044 1.363 . S
C2043 H2046 0.929 . S
C2044 C2043 1.363 . S
C2044 C2050 1.428 . S
H2045 C2041 0.930 . S
H2046 C2043 0.929 . S
S2047 N2048 1.613 . S
S2047 N2049 1.610 . S
N2048 S2047 1.613 . S
N2048 C2051 1.350 . S
N2049 S2047 1.610 . S
N2049 C2050 1.351 . S
C2050 C2044 1.428 . S
C2050 N2049 1.351 . S
C2050 C2051 1.434 . S
C2051 C2042 1.429 . S
C2051 N2048 1.350 . S
C2051 C2050 1.434 . S
C2052 C2053 1.369 . S
C2052 C2054 1.419 . S
C2052 H2056 0.930 . S
C2053 C2052 1.369 . S
C2053 C2062 1.429 . S
C2054 C2052 1.419 . S
C2054 C2055 1.363 . S
C2054 H2057 0.929 . S
C2055 C2054 1.363 . S
C2055 C2061 1.428 . S
H2056 C2052 0.930 . S
H2057 C2054 0.929 . S
S2058 N2059 1.613 1_565 S
S2058 N2060 1.610 . S
N2059 S2058 1.613 1_545 S
N2059 C2062 1.350 . S
N2060 S2058 1.610 . S
N2060 C2061 1.351 1_565 S
C2061 C2055 1.428 . S
C2061 N2060 1.351 1_545 S
C2061 C2062 1.434 . S
C2062 C2053 1.429 . S
C2062 N2059 1.350 . S
C2062 C2061 1.434 . S
C2063 C2064 1.369 . S
C2063 C2065 1.419 . S
C2063 H2067 0.930 . S
C2064 C2063 1.369 . S
C2064 C2073 1.429 . S
C2065 C2063 1.419 . S
C2065 C2066 1.363 . S
C2065 H2068 0.929 . S
C2066 C2065 1.363 . S
C2066 C2072 1.428 . S
H2067 C2063 0.930 . S
H2068 C2065 0.929 . S
S2069 N2070 1.613 . S
S2069 N2071 1.610 . S
N2070 S2069 1.613 . S
N2070 C2073 1.350 . S
N2071 S2069 1.610 . S
N2071 C2072 1.351 . S
C2072 C2066 1.428 . S
C2072 N2071 1.351 . S
C2072 C2073 1.434 . S
C2073 C2064 1.429 . S
C2073 N2070 1.350 . S
C2073 C2072 1.434 . S
C2074 C2075 1.369 1_565 S
C2074 C2076 1.419 . S
C2074 H2078 0.930 . S
C2075 C2074 1.369 1_545 S
C2075 C2084 1.429 . S
C2076 C2074 1.419 . S
C2076 C2077 1.363 1_565 S
C2076 H2079 0.929 . S
C2077 C2076 1.363 1_545 S
C2077 C2083 1.428 . S
H2078 C2074 0.930 . S
H2079 C2076 0.929 . S
S2080 N2081 1.613 . S
S2080 N2082 1.610 . S
N2081 S2080 1.613 . S
N2081 C2084 1.350 . S
N2082 S2080 1.610 . S
N2082 C2083 1.351 . S
C2083 C2077 1.428 . S
C2083 N2082 1.351 . S
C2083 C2084 1.434 . S
C2084 C2075 1.429 . S
C2084 N2081 1.350 . S
C2084 C2083 1.434 . S
C2085 C2086 1.369 . S
C2085 C2087 1.419 . S
C2085 H2089 0.930 . S
C2086 C2085 1.369 . S
C2086 C2095 1.429 . S
C2087 C2085 1.419 . S
C2087 C2088 1.363 . S
C2087 H2090 0.929 . S
C2088 C2087 1.363 . S
C2088 C2094 1.428 . S
H2089 C2085 0.930 . S
H2090 C2087 0.929 . S
S2091 N2092 1.613 . S
S2091 N2093 1.610 . S
N2092 S2091 1.613 . S
N2092 C2095 1.350 . S
N2093 S2091 1.610 . S
N2093 C2094 1.351 . S
C2094 C2088 1.428 . S
C2094 N2093 1.351 . S
C2094 C2095 1.434 . S
C2095 C2086 1.429 . S
C2095 N2092 1.350 . S
C2095 C2094 1.434 . S
C2096 C2097 1.369 . S
C2096 C2098 1.419 . S
C2096 H2100 0.930 . S
C2097 C2096 1.369 . S
C2097 C2106 1.429 . S
C2098 C2096 1.419 . S
C2098 C2099 1.363 . S
C2098 H2101 0.929 . S
C2099 C2098 1.363 . S
C2099 C2105 1.428 . S
H2100 C2096 0.930 . S
H2101 C2098 0.929 . S
S2102 N2103 1.613 . S
S2102 N2104 1.610 . S
N2103 S2102 1.613 . S
N2103 C2106 1.350 . S
N2104 S2102 1.610 . S
N2104 C2105 1.351 . S
C2105 C2099 1.428 . S
C2105 N2104 1.351 . S
C2105 C2106 1.434 . S
C2106 C2097 1.429 . S
C2106 N2103 1.350 . S
C2106 C2105 1.434 . S
C2107 C2108 1.369 . S
C2107 C2109 1.419 . S
C2107 H2111 0.930 . S
C2108 C2107 1.369 . S
C2108 C2117 1.429 . S
C2109 C2107 1.419 . S
C2109 C2110 1.363 . S
C2109 H2112 0.929 . S
C2110 C2109 1.363 . S
C2110 C2116 1.428 . S
H2111 C2107 0.930 . S
H2112 C2109 0.929 . S
S2113 N2114 1.613 . S
S2113 N2115 1.610 . S
N2114 S2113 1.613 . S
N2114 C2117 1.350 . S
N2115 S2113 1.610 . S
N2115 C2116 1.351 . S
C2116 C2110 1.428 . S
C2116 N2115 1.351 . S
C2116 C2117 1.434 . S
C2117 C2108 1.429 . S
C2117 N2114 1.350 . S
C2117 C2116 1.434 . S
C2118 C2119 1.369 . S
C2118 C2120 1.419 . S
C2118 H2122 0.930 . S
C2119 C2118 1.369 . S
C2119 C2128 1.429 . S
C2120 C2118 1.419 . S
C2120 C2121 1.363 . S
C2120 H2123 0.929 . S
C2121 C2120 1.363 . S
C2121 C2127 1.428 . S
H2122 C2118 0.930 . S
H2123 C2120 0.929 . S
S2124 N2125 1.613 . S
S2124 N2126 1.610 . S
N2125 S2124 1.613 . S
N2125 C2128 1.350 . S
N2126 S2124 1.610 . S
N2126 C2127 1.351 . S
C2127 C2121 1.428 . S
C2127 N2126 1.351 . S
C2127 C2128 1.434 . S
C2128 C2119 1.429 . S
C2128 N2125 1.350 . S
C2128 C2127 1.434 . S
C2129 C2130 1.369 . S
C2129 C2131 1.419 . S
C2129 H2133 0.930 . S
C2130 C2129 1.369 . S
C2130 C2139 1.429 . S
C2131 C2129 1.419 . S
C2131 C2132 1.363 . S
C2131 H2134 0.929 . S
C2132 C2131 1.363 . S
C2132 C2138 1.428 . S
H2133 C2129 0.930 . S
H2134 C2131 0.929 . S
S2135 N2136 1.613 . S
S2135 N2137 1.610 . S
N2136 S2135 1.613 . S
N2136 C2139 1.350 . S
N2137 S2135 1.610 . S
N2137 C2138 1.351 . S
C2138 C2132 1.428 . S
C2138 N2137 1.351 . S
C2138 C2139 1.434 . S
C2139 C2130 1.429 . S
C2139 N2136 1.350 . S
C2139 C2138 1.434 . S
C2140 C2141 1.370 1_565 S
C2140 C2142 1.418 . S
C2140 H2144 0.930 1_565 S
C2141 C2140 1.370 1_545 S
C2141 C2150 1.429 1_545 S
C2142 C2140 1.418 . S
C2142 C2143 1.363 . S
C2142 H2145 0.929 . S
C2143 C2142 1.363 . S
C2143 C2149 1.428 . S
H2144 C2140 0.930 1_545 S
H2145 C2142 0.929 . S
S2146 N2147 1.613 1_565 S
S2146 N2148 1.610 . S
N2147 S2146 1.613 1_545 S
N2147 C2150 1.350 1_545 S
N2148 S2146 1.610 . S
N2148 C2149 1.351 . S
C2149 C2143 1.428 . S
C2149 N2148 1.351 . S
C2149 C2150 1.434 . S
C2150 C2141 1.429 1_565 S
C2150 N2147 1.350 1_565 S
C2150 C2149 1.434 . S
C2151 C2152 1.369 . S
C2151 C2153 1.419 . S
C2151 H2155 0.930 . S
C2152 C2151 1.369 . S
C2152 C2161 1.429 . S
C2153 C2151 1.419 . S
C2153 C2154 1.363 . S
C2153 H2156 0.929 . S
C2154 C2153 1.363 . S
C2154 C2160 1.428 . S
H2155 C2151 0.930 . S
H2156 C2153 0.929 . S
S2157 N2158 1.613 1_545 S
S2157 N2159 1.610 . S
N2158 S2157 1.613 1_565 S
N2158 C2161 1.350 . S
N2159 S2157 1.610 . S
N2159 C2160 1.351 1_545 S
C2160 C2154 1.428 . S
C2160 N2159 1.351 1_565 S
C2160 C2161 1.434 . S
C2161 C2152 1.429 . S
C2161 N2158 1.350 . S
C2161 C2160 1.434 . S
C2162 C2163 1.369 . S
C2162 C2164 1.419 . S
C2162 H2166 0.930 . S
C2163 C2162 1.369 . S
C2163 C2172 1.429 . S
C2164 C2162 1.419 . S
C2164 C2165 1.363 . S
C2164 H2167 0.929 . S
C2165 C2164 1.363 . S
C2165 C2171 1.428 . S
H2166 C2162 0.930 . S
H2167 C2164 0.929 . S
S2168 N2169 1.613 . S
S2168 N2170 1.610 . S
N2169 S2168 1.613 . S
N2169 C2172 1.350 . S
N2170 S2168 1.610 . S
N2170 C2171 1.351 . S
C2171 C2165 1.428 . S
C2171 N2170 1.351 . S
C2171 C2172 1.434 . S
C2172 C2163 1.429 . S
C2172 N2169 1.350 . S
C2172 C2171 1.434 . S
C2173 C2174 1.369 . S
C2173 C2175 1.419 . S
C2173 H2177 0.930 . S
C2174 C2173 1.369 . S
C2174 C2183 1.429 . S
C2175 C2173 1.419 . S
C2175 C2176 1.363 . S
C2175 H2178 0.929 . S
C2176 C2175 1.363 . S
C2176 C2182 1.428 . S
H2177 C2173 0.930 . S
H2178 C2175 0.929 . S
S2179 N2180 1.613 . S
S2179 N2181 1.610 . S
N2180 S2179 1.613 . S
N2180 C2183 1.350 . S
N2181 S2179 1.610 . S
N2181 C2182 1.351 . S
C2182 C2176 1.428 . S
C2182 N2181 1.351 . S
C2182 C2183 1.434 . S
C2183 C2174 1.429 . S
C2183 N2180 1.350 . S
C2183 C2182 1.434 . S
C2184 C2185 1.369 . S
C2184 C2186 1.419 . S
C2184 H2188 0.930 . S
C2185 C2184 1.369 . S
C2185 C2194 1.429 . S
C2186 C2184 1.419 . S
C2186 C2187 1.363 . S
C2186 H2189 0.929 . S
C2187 C2186 1.363 . S
C2187 C2193 1.428 . S
H2188 C2184 0.930 . S
H2189 C2186 0.929 . S
S2190 N2191 1.613 . S
S2190 N2192 1.610 . S
N2191 S2190 1.613 . S
N2191 C2194 1.350 . S
N2192 S2190 1.610 . S
N2192 C2193 1.351 . S
C2193 C2187 1.428 . S
C2193 N2192 1.351 . S
C2193 C2194 1.434 . S
C2194 C2185 1.429 . S
C2194 N2191 1.350 . S
C2194 C2193 1.434 . S
C2195 C2196 1.369 . S
C2195 C2197 1.419 . S
C2195 H2199 0.930 . S
C2196 C2195 1.369 . S
C2196 C2205 1.429 . S
C2197 C2195 1.419 . S
C2197 C2198 1.363 . S
C2197 H2200 0.929 . S
C2198 C2197 1.363 . S
C2198 C2204 1.428 . S
H2199 C2195 0.930 . S
H2200 C2197 0.929 . S
S2201 N2202 1.613 . S
S2201 N2203 1.610 . S
N2202 S2201 1.613 . S
N2202 C2205 1.350 . S
N2203 S2201 1.610 . S
N2203 C2204 1.351 . S
C2204 C2198 1.428 . S
C2204 N2203 1.351 . S
C2204 C2205 1.434 . S
C2205 C2196 1.429 . S
C2205 N2202 1.350 . S
C2205 C2204 1.434 . S
C2206 C2207 1.369 . S
C2206 C2208 1.419 . S
C2206 H2210 0.930 1_455 S
C2207 C2206 1.369 . S
C2207 C2216 1.429 . S
C2208 C2206 1.419 . S
C2208 C2209 1.363 . S
C2208 H2211 0.929 1_455 S
C2209 C2208 1.363 . S
C2209 C2215 1.428 . S
H2210 C2206 0.930 1_655 S
H2211 C2208 0.929 1_655 S
S2212 N2213 1.613 . S
S2212 N2214 1.610 . S
N2213 S2212 1.613 . S
N2213 C2216 1.350 1_556 S
N2214 S2212 1.610 . S
N2214 C2215 1.351 1_556 S
C2215 C2209 1.428 . S
C2215 N2214 1.351 1_554 S
C2215 C2216 1.434 . S
C2216 C2207 1.429 . S
C2216 N2213 1.350 1_554 S
C2216 C2215 1.434 . S
C2217 C2218 1.380 . S
C2217 C2219 1.419 . S
C2217 H2221 0.930 . S
C2218 C2217 1.380 . S
C2218 C2227 1.430 1_655 S
C2219 C2217 1.419 . S
C2219 C2220 1.363 . S
C2219 H2222 0.929 . S
C2220 C2219 1.363 . S
C2220 C2226 1.428 . S
H2221 C2217 0.930 . S
H2222 C2219 0.929 . S
S2223 N2224 1.613 . S
S2223 N2225 1.610 1_455 S
N2224 S2223 1.613 . S
N2224 C2227 1.350 . S
N2225 S2223 1.610 1_655 S
N2225 C2226 1.351 . S
C2226 C2220 1.428 . S
C2226 N2225 1.351 . S
C2226 C2227 1.434 1_655 S
C2227 C2218 1.430 1_455 S
C2227 N2224 1.350 . S
C2227 C2226 1.434 1_455 S
C2228 C2229 1.369 . S
C2228 C2230 1.419 . S
C2228 H2232 0.930 . S
C2229 C2228 1.369 . S
C2229 C2238 1.429 . S
C2230 C2228 1.419 . S
C2230 C2231 1.363 . S
C2230 H2233 0.929 . S
C2231 C2230 1.363 . S
C2231 C2237 1.428 . S
H2232 C2228 0.930 . S
H2233 C2230 0.929 . S
S2234 N2235 1.613 . S
S2234 N2236 1.610 . S
N2235 S2234 1.613 . S
N2235 C2238 1.350 . S
N2236 S2234 1.610 . S
N2236 C2237 1.351 . S
C2237 C2231 1.428 . S
C2237 N2236 1.351 . S
C2237 C2238 1.434 . S
C2238 C2229 1.429 . S
C2238 N2235 1.350 . S
C2238 C2237 1.434 . S
C2239 C2240 1.369 . S
C2239 C2241 1.419 . S
C2239 H2243 0.930 . S
C2240 C2239 1.369 . S
C2240 C2249 1.429 . S
C2241 C2239 1.419 . S
C2241 C2242 1.363 . S
C2241 H2244 0.929 . S
C2242 C2241 1.363 . S
C2242 C2248 1.428 . S
H2243 C2239 0.930 . S
H2244 C2241 0.929 . S
S2245 N2246 1.613 . S
S2245 N2247 1.610 . S
N2246 S2245 1.613 . S
N2246 C2249 1.350 . S
N2247 S2245 1.610 . S
N2247 C2248 1.351 . S
C2248 C2242 1.428 . S
C2248 N2247 1.351 . S
C2248 C2249 1.434 . S
C2249 C2240 1.429 . S
C2249 N2246 1.350 . S
C2249 C2248 1.434 . S
C2250 C2251 1.369 . S
C2250 C2252 1.419 . S
C2250 H2254 0.930 . S
C2251 C2250 1.369 . S
C2251 C2260 1.429 . S
C2252 C2250 1.419 . S
C2252 C2253 1.363 . S
C2252 H2255 0.929 . S
C2253 C2252 1.363 . S
C2253 C2259 1.428 . S
H2254 C2250 0.930 . S
H2255 C2252 0.929 . S
S2256 N2257 1.613 . S
S2256 N2258 1.610 . S
N2257 S2256 1.613 . S
N2257 C2260 1.350 . S
N2258 S2256 1.610 . S
N2258 C2259 1.351 . S
C2259 C2253 1.428 . S
C2259 N2258 1.351 . S
C2259 C2260 1.434 . S
C2260 C2251 1.429 . S
C2260 N2257 1.350 . S
C2260 C2259 1.434 . S
C2261 C2262 1.369 . S
C2261 C2263 1.419 . S
C2261 H2265 0.930 . S
C2262 C2261 1.369 . S
C2262 C2271 1.429 . S
C2263 C2261 1.419 . S
C2263 C2264 1.363 . S
C2263 H2266 0.929 . S
C2264 C2263 1.363 . S
C2264 C2270 1.428 . S
H2265 C2261 0.930 . S
H2266 C2263 0.929 . S
S2267 N2268 1.613 . S
S2267 N2269 1.610 . S
N2268 S2267 1.613 . S
N2268 C2271 1.350 . S
N2269 S2267 1.610 . S
N2269 C2270 1.351 . S
C2270 C2264 1.428 . S
C2270 N2269 1.351 . S
C2270 C2271 1.434 . S
C2271 C2262 1.429 . S
C2271 N2268 1.350 . S
C2271 C2270 1.434 . S
C2272 C2273 1.369 . S
C2272 C2274 1.419 . S
C2272 H2276 0.930 . S
C2273 C2272 1.369 . S
C2273 C2282 1.429 . S
C2274 C2272 1.419 . S
C2274 C2275 1.363 . S
C2274 H2277 0.929 . S
C2275 C2274 1.363 . S
C2275 C2281 1.428 . S
H2276 C2272 0.930 . S
H2277 C2274 0.929 . S
S2278 N2279 1.613 . S
S2278 N2280 1.610 . S
N2279 S2278 1.613 . S
N2279 C2282 1.350 . S
N2280 S2278 1.610 . S
N2280 C2281 1.351 . S
C2281 C2275 1.428 . S
C2281 N2280 1.351 . S
C2281 C2282 1.434 . S
C2282 C2273 1.429 . S
C2282 N2279 1.350 . S
C2282 C2281 1.434 . S
C2283 C2284 1.369 1_556 S
C2283 C2285 1.419 . S
C2283 H2287 0.930 . S
C2284 C2283 1.369 1_554 S
C2284 C2293 1.429 . S
C2285 C2283 1.419 . S
C2285 C2286 1.363 . S
C2285 H2288 0.929 . S
C2286 C2285 1.363 . S
C2286 C2292 1.428 . S
H2287 C2283 0.930 . S
H2288 C2285 0.929 . S
S2289 N2290 1.613 . S
S2289 N2291 1.610 . S
N2290 S2289 1.613 . S
N2290 C2293 1.350 . S
N2291 S2289 1.610 . S
N2291 C2292 1.351 1_554 S
C2292 C2286 1.428 . S
C2292 N2291 1.351 1_556 S
C2292 C2293 1.434 1_556 S
C2293 C2284 1.429 . S
C2293 N2290 1.350 . S
C2293 C2292 1.434 1_554 S
C2294 C2295 1.369 . S
C2294 C2296 1.419 . S
C2294 H2298 0.930 . S
C2295 C2294 1.369 . S
C2295 C2304 1.429 . S
C2296 C2294 1.419 . S
C2296 C2297 1.363 . S
C2296 H2299 0.929 . S
C2297 C2296 1.363 . S
C2297 C2303 1.428 . S
H2298 C2294 0.930 . S
H2299 C2296 0.929 . S
S2300 N2301 1.613 . S
S2300 N2302 1.610 . S
N2301 S2300 1.613 . S
N2301 C2304 1.350 . S
N2302 S2300 1.610 . S
N2302 C2303 1.351 . S
C2303 C2297 1.428 . S
C2303 N2302 1.351 . S
C2303 C2304 1.434 . S
C2304 C2295 1.429 . S
C2304 N2301 1.350 . S
C2304 C2303 1.434 . S
C2305 C2306 1.369 . S
C2305 C2307 1.419 . S
C2305 H2309 0.930 . S
C2306 C2305 1.369 . S
C2306 C2315 1.429 . S
C2307 C2305 1.419 . S
C2307 C2308 1.363 . S
C2307 H2310 0.929 . S
C2308 C2307 1.363 . S
C2308 C2314 1.428 . S
H2309 C2305 0.930 . S
H2310 C2307 0.929 . S
S2311 N2312 1.613 . S
S2311 N2313 1.610 . S
N2312 S2311 1.613 . S
N2312 C2315 1.350 . S
N2313 S2311 1.610 . S
N2313 C2314 1.351 . S
C2314 C2308 1.428 . S
C2314 N2313 1.351 . S
C2314 C2315 1.434 . S
C2315 C2306 1.429 . S
C2315 N2312 1.350 . S
C2315 C2314 1.434 . S
C2316 C2317 1.369 . S
C2316 C2318 1.419 . S
C2316 H2320 0.930 . S
C2317 C2316 1.369 . S
C2317 C2326 1.429 . S
C2318 C2316 1.419 . S
C2318 C2319 1.363 . S
C2318 H2321 0.929 . S
C2319 C2318 1.363 . S
C2319 C2325 1.428 . S
H2320 C2316 0.930 . S
H2321 C2318 0.929 . S
S2322 N2323 1.613 . S
S2322 N2324 1.610 . S
N2323 S2322 1.613 . S
N2323 C2326 1.350 . S
N2324 S2322 1.610 . S
N2324 C2325 1.351 . S
C2325 C2319 1.428 . S
C2325 N2324 1.351 . S
C2325 C2326 1.434 . S
C2326 C2317 1.429 . S
C2326 N2323 1.350 . S
C2326 C2325 1.434 . S
C2327 C2328 1.369 . S
C2327 C2329 1.419 . S
C2327 H2331 0.930 . S
C2328 C2327 1.369 . S
C2328 C2337 1.429 . S
C2329 C2327 1.419 . S
C2329 C2330 1.363 . S
C2329 H2332 0.929 . S
C2330 C2329 1.363 . S
C2330 C2336 1.428 . S
H2331 C2327 0.930 . S
H2332 C2329 0.929 . S
S2333 N2334 1.613 . S
S2333 N2335 1.610 . S
N2334 S2333 1.613 . S
N2334 C2337 1.350 . S
N2335 S2333 1.610 . S
N2335 C2336 1.351 . S
C2336 C2330 1.428 . S
C2336 N2335 1.351 . S
C2336 C2337 1.434 . S
C2337 C2328 1.429 . S
C2337 N2334 1.350 . S
C2337 C2336 1.434 . S
C2338 C2339 1.369 . S
C2338 C2340 1.419 . S
C2338 H2342 0.930 . S
C2339 C2338 1.369 . S
C2339 C2348 1.429 . S
C2340 C2338 1.419 . S
C2340 C2341 1.363 . S
C2340 H2343 0.929 . S
C2341 C2340 1.363 . S
C2341 C2347 1.428 . S
H2342 C2338 0.930 . S
H2343 C2340 0.929 . S
S2344 N2345 1.613 . S
S2344 N2346 1.610 . S
N2345 S2344 1.613 . S
N2345 C2348 1.350 . S
N2346 S2344 1.610 . S
N2346 C2347 1.351 . S
C2347 C2341 1.428 . S
C2347 N2346 1.351 . S
C2347 C2348 1.434 . S
C2348 C2339 1.429 . S
C2348 N2345 1.350 . S
C2348 C2347 1.434 . S
C2349 C2350 1.369 . S
C2349 C2351 1.419 . S
C2349 H2353 0.930 . S
C2350 C2349 1.369 . S
C2350 C2359 1.429 . S
C2351 C2349 1.419 . S
C2351 C2352 1.363 . S
C2351 H2354 0.929 . S
C2352 C2351 1.363 . S
C2352 C2358 1.428 . S
H2353 C2349 0.930 . S
H2354 C2351 0.929 . S
S2355 N2356 1.613 . S
S2355 N2357 1.610 . S
N2356 S2355 1.613 . S
N2356 C2359 1.350 . S
N2357 S2355 1.610 . S
N2357 C2358 1.351 . S
C2358 C2352 1.428 . S
C2358 N2357 1.351 . S
C2358 C2359 1.434 . S
C2359 C2350 1.429 . S
C2359 N2356 1.350 . S
C2359 C2358 1.434 . S
C2360 C2361 1.369 . S
C2360 C2362 1.419 . S
C2360 H2364 0.930 . S
C2361 C2360 1.369 . S
C2361 C2370 1.429 . S
C2362 C2360 1.419 . S
C2362 C2363 1.363 . S
C2362 H2365 0.929 . S
C2363 C2362 1.363 . S
C2363 C2369 1.428 . S
H2364 C2360 0.930 . S
H2365 C2362 0.929 . S
S2366 N2367 1.613 . S
S2366 N2368 1.610 . S
N2367 S2366 1.613 . S
N2367 C2370 1.350 . S
N2368 S2366 1.610 . S
N2368 C2369 1.351 . S
C2369 C2363 1.428 . S
C2369 N2368 1.351 . S
C2369 C2370 1.434 . S
C2370 C2361 1.429 . S
C2370 N2367 1.350 . S
C2370 C2369 1.434 . S
C2371 C2372 1.369 . S
C2371 C2373 1.419 . S
C2371 H2375 0.930 . S
C2372 C2371 1.369 . S
C2372 C2381 1.429 . S
C2373 C2371 1.419 . S
C2373 C2374 1.363 . S
C2373 H2376 0.929 . S
C2374 C2373 1.363 . S
C2374 C2380 1.428 . S
H2375 C2371 0.930 . S
H2376 C2373 0.929 . S
S2377 N2378 1.613 . S
S2377 N2379 1.610 . S
N2378 S2377 1.613 . S
N2378 C2381 1.350 . S
N2379 S2377 1.610 . S
N2379 C2380 1.351 . S
C2380 C2374 1.428 . S
C2380 N2379 1.351 . S
C2380 C2381 1.434 . S
C2381 C2372 1.429 . S
C2381 N2378 1.350 . S
C2381 C2380 1.434 . S
C2382 C2383 1.369 . S
C2382 C2384 1.419 . S
C2382 H2386 0.930 . S
C2383 C2382 1.369 . S
C2383 C2392 1.429 . S
C2384 C2382 1.419 . S
C2384 C2385 1.363 . S
C2384 H2387 0.929 . S
C2385 C2384 1.363 . S
C2385 C2391 1.428 . S
H2386 C2382 0.930 . S
H2387 C2384 0.929 . S
S2388 N2389 1.613 . S
S2388 N2390 1.610 . S
N2389 S2388 1.613 . S
N2389 C2392 1.350 . S
N2390 S2388 1.610 . S
N2390 C2391 1.351 . S
C2391 C2385 1.428 . S
C2391 N2390 1.351 . S
C2391 C2392 1.434 . S
C2392 C2383 1.429 . S
C2392 N2389 1.350 . S
C2392 C2391 1.434 . S
C2393 C2394 1.369 . S
C2393 C2395 1.419 . S
C2393 H2397 0.930 . S
C2394 C2393 1.369 . S
C2394 C2403 1.429 1_565 S
C2395 C2393 1.419 . S
C2395 C2396 1.363 1_565 S
C2395 H2398 0.929 . S
C2396 C2395 1.363 1_545 S
C2396 C2402 1.428 . S
H2397 C2393 0.930 . S
H2398 C2395 0.929 . S
S2399 N2400 1.613 . S
S2399 N2401 1.610 . S
N2400 S2399 1.613 . S
N2400 C2403 1.350 1_556 S
N2401 S2399 1.610 . S
N2401 C2402 1.351 1_556 S
C2402 C2396 1.428 . S
C2402 N2401 1.351 1_554 S
C2402 C2403 1.434 . S
C2403 C2394 1.429 1_545 S
C2403 N2400 1.350 1_554 S
C2403 C2402 1.434 . S
C2404 C2405 1.369 . S
C2404 C2406 1.419 . S
C2404 H2408 0.930 . S
C2405 C2404 1.369 . S
C2405 C2414 1.429 . S
C2406 C2404 1.419 . S
C2406 C2407 1.363 . S
C2406 H2409 0.929 . S
C2407 C2406 1.363 . S
C2407 C2413 1.428 . S
H2408 C2404 0.930 . S
H2409 C2406 0.929 . S
S2410 N2411 1.613 . S
S2410 N2412 1.610 . S
N2411 S2410 1.613 . S
N2411 C2414 1.350 . S
N2412 S2410 1.610 . S
N2412 C2413 1.351 . S
C2413 C2407 1.428 . S
C2413 N2412 1.351 . S
C2413 C2414 1.434 . S
C2414 C2405 1.429 . S
C2414 N2411 1.350 . S
C2414 C2413 1.434 . S
C2415 C2416 1.369 . S
C2415 C2417 1.419 . S
C2415 H2419 0.930 . S
C2416 C2415 1.369 . S
C2416 C2425 1.429 . S
C2417 C2415 1.419 . S
C2417 C2418 1.363 . S
C2417 H2420 0.929 . S
C2418 C2417 1.363 . S
C2418 C2424 1.428 . S
H2419 C2415 0.930 . S
H2420 C2417 0.929 . S
S2421 N2422 1.613 . S
S2421 N2423 1.610 1_556 S
N2422 S2421 1.613 . S
N2422 C2425 1.350 1_556 S
N2423 S2421 1.610 1_554 S
N2423 C2424 1.351 . S
C2424 C2418 1.428 . S
C2424 N2423 1.351 . S
C2424 C2425 1.434 . S
C2425 C2416 1.429 . S
C2425 N2422 1.350 1_554 S
C2425 C2424 1.434 . S
C2426 C2427 1.369 . S
C2426 C2428 1.419 . S
C2426 H2430 0.930 . S
C2427 C2426 1.369 . S
C2427 C2436 1.429 . S
C2428 C2426 1.419 . S
C2428 C2429 1.363 . S
C2428 H2431 0.929 . S
C2429 C2428 1.363 . S
C2429 C2435 1.428 . S
H2430 C2426 0.930 . S
H2431 C2428 0.929 . S
S2432 N2433 1.613 . S
S2432 N2434 1.610 . S
N2433 S2432 1.613 . S
N2433 C2436 1.350 . S
N2434 S2432 1.610 . S
N2434 C2435 1.351 . S
C2435 C2429 1.428 . S
C2435 N2434 1.351 . S
C2435 C2436 1.434 . S
C2436 C2427 1.429 . S
C2436 N2433 1.350 . S
C2436 C2435 1.434 . S
C2437 C2438 1.369 . S
C2437 C2439 1.419 . S
C2437 H2441 0.930 . S
C2438 C2437 1.369 . S
C2438 C2447 1.429 . S
C2439 C2437 1.419 . S
C2439 C2440 1.363 . S
C2439 H2442 0.929 . S
C2440 C2439 1.363 . S
C2440 C2446 1.428 . S
H2441 C2437 0.930 . S
H2442 C2439 0.929 . S
S2443 N2444 1.613 . S
S2443 N2445 1.610 . S
N2444 S2443 1.613 . S
N2444 C2447 1.350 . S
N2445 S2443 1.610 . S
N2445 C2446 1.351 . S
C2446 C2440 1.428 . S
C2446 N2445 1.351 . S
C2446 C2447 1.434 . S
C2447 C2438 1.429 . S
C2447 N2444 1.350 . S
C2447 C2446 1.434 . S
C2448 C2449 1.369 . S
C2448 C2450 1.419 . S
C2448 H2452 0.930 . S
C2449 C2448 1.369 . S
C2449 C2458 1.429 . S
C2450 C2448 1.419 . S
C2450 C2451 1.363 . S
C2450 H2453 0.929 . S
C2451 C2450 1.363 . S
C2451 C2457 1.428 . S
H2452 C2448 0.930 . S
H2453 C2450 0.929 . S
S2454 N2455 1.613 . S
S2454 N2456 1.610 . S
N2455 S2454 1.613 . S
N2455 C2458 1.350 . S
N2456 S2454 1.610 . S
N2456 C2457 1.351 . S
C2457 C2451 1.428 . S
C2457 N2456 1.351 . S
C2457 C2458 1.434 . S
C2458 C2449 1.429 . S
C2458 N2455 1.350 . S
C2458 C2457 1.434 . S
C2459 C2460 1.369 . S
C2459 C2461 1.419 . S
C2459 H2463 0.930 . S
C2460 C2459 1.369 . S
C2460 C2469 1.429 . S
C2461 C2459 1.419 . S
C2461 C2462 1.363 . S
C2461 H2464 0.929 . S
C2462 C2461 1.363 . S
C2462 C2468 1.428 . S
H2463 C2459 0.930 . S
H2464 C2461 0.929 . S
S2465 N2466 1.613 . S
S2465 N2467 1.610 . S
N2466 S2465 1.613 . S
N2466 C2469 1.350 . S
N2467 S2465 1.610 . S
N2467 C2468 1.351 . S
C2468 C2462 1.428 . S
C2468 N2467 1.351 . S
C2468 C2469 1.434 . S
C2469 C2460 1.429 . S
C2469 N2466 1.350 . S
C2469 C2468 1.434 . S
C2470 C2471 1.369 . S
C2470 C2472 1.419 . S
C2470 H2474 0.930 . S
C2471 C2470 1.369 . S
C2471 C2480 1.429 . S
C2472 C2470 1.419 . S
C2472 C2473 1.363 . S
C2472 H2475 0.929 . S
C2473 C2472 1.363 . S
C2473 C2479 1.428 . S
H2474 C2470 0.930 . S
H2475 C2472 0.929 . S
S2476 N2477 1.613 . S
S2476 N2478 1.610 . S
N2477 S2476 1.613 . S
N2477 C2480 1.350 . S
N2478 S2476 1.610 . S
N2478 C2479 1.351 . S
C2479 C2473 1.428 . S
C2479 N2478 1.351 . S
C2479 C2480 1.434 . S
C2480 C2471 1.429 . S
C2480 N2477 1.350 . S
C2480 C2479 1.434 . S
C2481 C2482 1.369 . S
C2481 C2483 1.419 . S
C2481 H2485 0.930 . S
C2482 C2481 1.369 . S
C2482 C2491 1.429 . S
C2483 C2481 1.419 . S
C2483 C2484 1.363 . S
C2483 H2486 0.929 . S
C2484 C2483 1.363 . S
C2484 C2490 1.428 . S
H2485 C2481 0.930 . S
H2486 C2483 0.929 . S
S2487 N2488 1.613 . S
S2487 N2489 1.610 . S
N2488 S2487 1.613 . S
N2488 C2491 1.350 . S
N2489 S2487 1.610 . S
N2489 C2490 1.351 . S
C2490 C2484 1.428 . S
C2490 N2489 1.351 . S
C2490 C2491 1.434 . S
C2491 C2482 1.429 . S
C2491 N2488 1.350 . S
C2491 C2490 1.434 . S
C2492 C2493 1.369 . S
C2492 C2494 1.419 . S
C2492 H2496 0.930 . S
C2493 C2492 1.369 . S
C2493 C2502 1.429 . S
C2494 C2492 1.419 . S
C2494 C2495 1.363 . S
C2494 H2497 0.929 . S
C2495 C2494 1.363 . S
C2495 C2501 1.428 . S
H2496 C2492 0.930 . S
H2497 C2494 0.929 . S
S2498 N2499 1.613 . S
S2498 N2500 1.610 . S
N2499 S2498 1.613 . S
N2499 C2502 1.350 . S
N2500 S2498 1.610 . S
N2500 C2501 1.351 . S
C2501 C2495 1.428 . S
C2501 N2500 1.351 . S
C2501 C2502 1.434 . S
C2502 C2493 1.429 . S
C2502 N2499 1.350 . S
C2502 C2501 1.434 . S
C2503 C2504 1.369 . S
C2503 C2505 1.419 . S
C2503 H2507 0.930 . S
C2504 C2503 1.369 . S
C2504 C2513 1.429 . S
C2505 C2503 1.419 . S
C2505 C2506 1.363 . S
C2505 H2508 0.929 . S
C2506 C2505 1.363 . S
C2506 C2512 1.428 . S
H2507 C2503 0.930 . S
H2508 C2505 0.929 . S
S2509 N2510 1.613 . S
S2509 N2511 1.610 . S
N2510 S2509 1.613 . S
N2510 C2513 1.350 . S
N2511 S2509 1.610 . S
N2511 C2512 1.351 . S
C2512 C2506 1.428 . S
C2512 N2511 1.351 . S
C2512 C2513 1.434 . S
C2513 C2504 1.429 . S
C2513 N2510 1.350 . S
C2513 C2512 1.434 . S
C2514 C2515 1.369 . S
C2514 C2516 1.419 . S
C2514 H2518 0.930 . S
C2515 C2514 1.369 . S
C2515 C2524 1.429 . S
C2516 C2514 1.419 . S
C2516 C2517 1.363 . S
C2516 H2519 0.929 . S
C2517 C2516 1.363 . S
C2517 C2523 1.428 . S
H2518 C2514 0.930 . S
H2519 C2516 0.929 . S
S2520 N2521 1.613 . S
S2520 N2522 1.610 . S
N2521 S2520 1.613 . S
N2521 C2524 1.350 . S
N2522 S2520 1.610 . S
N2522 C2523 1.351 . S
C2523 C2517 1.428 . S
C2523 N2522 1.351 . S
C2523 C2524 1.434 . S
C2524 C2515 1.429 . S
C2524 N2521 1.350 . S
C2524 C2523 1.434 . S
C2525 C2526 1.369 . S
C2525 C2527 1.419 . S
C2525 H2529 0.930 . S
C2526 C2525 1.369 . S
C2526 C2535 1.429 . S
C2527 C2525 1.419 . S
C2527 C2528 1.363 . S
C2527 H2530 0.929 . S
C2528 C2527 1.363 . S
C2528 C2534 1.428 . S
H2529 C2525 0.930 . S
H2530 C2527 0.929 . S
S2531 N2532 1.613 . S
S2531 N2533 1.610 . S
N2532 S2531 1.613 . S
N2532 C2535 1.350 . S
N2533 S2531 1.610 . S
N2533 C2534 1.351 . S
C2534 C2528 1.428 . S
C2534 N2533 1.351 . S
C2534 C2535 1.434 . S
C2535 C2526 1.429 . S
C2535 N2532 1.350 . S
C2535 C2534 1.434 . S
C2536 C2537 1.369 . S
C2536 C2538 1.419 . S
C2536 H2540 0.930 . S
C2537 C2536 1.369 . S
C2537 C2546 1.429 . S
C2538 C2536 1.419 . S
C2538 C2539 1.363 . S
C2538 H2541 0.929 . S
C2539 C2538 1.363 . S
C2539 C2545 1.428 . S
H2540 C2536 0.930 . S
H2541 C2538 0.929 . S
S2542 N2543 1.613 . S
S2542 N2544 1.610 . S
N2543 S2542 1.613 . S
N2543 C2546 1.350 . S
N2544 S2542 1.610 . S
N2544 C2545 1.351 . S
C2545 C2539 1.428 . S
C2545 N2544 1.351 . S
C2545 C2546 1.434 . S
C2546 C2537 1.429 . S
C2546 N2543 1.350 . S
C2546 C2545 1.434 . S
C2547 C2548 1.369 . S
C2547 C2549 1.419 . S
C2547 H2551 0.930 . S
C2548 C2547 1.369 . S
C2548 C2557 1.429 . S
C2549 C2547 1.419 . S
C2549 C2550 1.363 . S
C2549 H2552 0.929 . S
C2550 C2549 1.363 . S
C2550 C2556 1.428 . S
H2551 C2547 0.930 . S
H2552 C2549 0.929 . S
S2553 N2554 1.613 . S
S2553 N2555 1.610 . S
N2554 S2553 1.613 . S
N2554 C2557 1.350 . S
N2555 S2553 1.610 . S
N2555 C2556 1.351 . S
C2556 C2550 1.428 . S
C2556 N2555 1.351 . S
C2556 C2557 1.434 . S
C2557 C2548 1.429 . S
C2557 N2554 1.350 . S
C2557 C2556 1.434 . S
C2558 C2559 1.369 . S
C2558 C2560 1.419 . S
C2558 H2562 0.930 . S
C2559 C2558 1.369 . S
C2559 C2568 1.429 . S
C2560 C2558 1.419 . S
C2560 C2561 1.363 . S
C2560 H2563 0.929 1_655 S
C2561 C2560 1.363 . S
C2561 C2567 1.428 . S
H2562 C2558 0.930 . S
H2563 C2560 0.929 1_455 S
S2564 N2565 1.613 . S
S2564 N2566 1.610 . S
N2565 S2564 1.613 . S
N2565 C2568 1.350 . S
N2566 S2564 1.610 . S
N2566 C2567 1.351 . S
C2567 C2561 1.428 . S
C2567 N2566 1.351 . S
C2567 C2568 1.434 . S
C2568 C2559 1.429 . S
C2568 N2565 1.350 . S
C2568 C2567 1.434 . S
C2569 C2570 1.369 . S
C2569 C2571 1.419 . S
C2569 H2573 0.930 . S
C2570 C2569 1.369 . S
C2570 C2579 1.429 . S
C2571 C2569 1.419 . S
C2571 C2572 1.363 . S
C2571 H2574 0.929 . S
C2572 C2571 1.363 . S
C2572 C2578 1.428 . S
H2573 C2569 0.930 . S
H2574 C2571 0.929 . S
S2575 N2576 1.613 . S
S2575 N2577 1.610 . S
N2576 S2575 1.613 . S
N2576 C2579 1.350 . S
N2577 S2575 1.610 . S
N2577 C2578 1.351 . S
C2578 C2572 1.428 . S
C2578 N2577 1.351 . S
C2578 C2579 1.434 . S
C2579 C2570 1.429 . S
C2579 N2576 1.350 . S
C2579 C2578 1.434 . S
C2580 C2581 1.369 . S
C2580 C2582 1.419 . S
C2580 H2584 0.930 . S
C2581 C2580 1.369 . S
C2581 C2590 1.429 . S
C2582 C2580 1.419 . S
C2582 C2583 1.363 . S
C2582 H2585 0.929 . S
C2583 C2582 1.363 . S
C2583 C2589 1.428 . S
H2584 C2580 0.930 . S
H2585 C2582 0.929 . S
S2586 N2587 1.613 . S
S2586 N2588 1.610 . S
N2587 S2586 1.613 . S
N2587 C2590 1.350 . S
N2588 S2586 1.610 . S
N2588 C2589 1.351 . S
C2589 C2583 1.428 . S
C2589 N2588 1.351 . S
C2589 C2590 1.434 . S
C2590 C2581 1.429 . S
C2590 N2587 1.350 . S
C2590 C2589 1.434 . S
C2591 C2592 1.369 . S
C2591 C2593 1.419 . S
C2591 H2595 0.930 . S
C2592 C2591 1.369 . S
C2592 C2601 1.429 . S
C2593 C2591 1.419 . S
C2593 C2594 1.363 . S
C2593 H2596 0.929 . S
C2594 C2593 1.363 . S
C2594 C2600 1.428 . S
H2595 C2591 0.930 . S
H2596 C2593 0.929 . S
S2597 N2598 1.613 . S
S2597 N2599 1.610 . S
N2598 S2597 1.613 . S
N2598 C2601 1.350 . S
N2599 S2597 1.610 . S
N2599 C2600 1.351 . S
C2600 C2594 1.428 . S
C2600 N2599 1.351 . S
C2600 C2601 1.434 . S
C2601 C2592 1.429 . S
C2601 N2598 1.350 . S
C2601 C2600 1.434 . S
C2602 C2603 1.369 . S
C2602 C2604 1.419 . S
C2602 H2606 0.930 . S
C2603 C2602 1.369 . S
C2603 C2612 1.429 . S
C2604 C2602 1.419 . S
C2604 C2605 1.363 . S
C2604 H2607 0.929 . S
C2605 C2604 1.363 . S
C2605 C2611 1.428 . S
H2606 C2602 0.930 . S
H2607 C2604 0.929 . S
S2608 N2609 1.613 . S
S2608 N2610 1.610 . S
N2609 S2608 1.613 . S
N2609 C2612 1.350 . S
N2610 S2608 1.610 . S
N2610 C2611 1.351 . S
C2611 C2605 1.428 . S
C2611 N2610 1.351 . S
C2611 C2612 1.434 . S
C2612 C2603 1.429 . S
C2612 N2609 1.350 . S
C2612 C2611 1.434 . S
C2613 C2614 1.369 . S
C2613 C2615 1.419 . S
C2613 H2617 0.930 . S
C2614 C2613 1.369 . S
C2614 C2623 1.429 . S
C2615 C2613 1.419 . S
C2615 C2616 1.363 . S
C2615 H2618 0.929 . S
C2616 C2615 1.363 . S
C2616 C2622 1.428 . S
H2617 C2613 0.930 . S
H2618 C2615 0.929 . S
S2619 N2620 1.613 . S
S2619 N2621 1.610 . S
N2620 S2619 1.613 . S
N2620 C2623 1.350 . S
N2621 S2619 1.610 . S
N2621 C2622 1.351 . S
C2622 C2616 1.428 . S
C2622 N2621 1.351 . S
C2622 C2623 1.434 . S
C2623 C2614 1.429 . S
C2623 N2620 1.350 . S
C2623 C2622 1.434 . S
C2624 C2625 1.369 . S
C2624 C2626 1.419 . S
C2624 H2628 0.930 . S
C2625 C2624 1.369 . S
C2625 C2634 1.429 . S
C2626 C2624 1.419 . S
C2626 C2627 1.363 . S
C2626 H2629 0.929 . S
C2627 C2626 1.363 . S
C2627 C2633 1.428 . S
H2628 C2624 0.930 . S
H2629 C2626 0.929 . S
S2630 N2631 1.613 . S
S2630 N2632 1.610 . S
N2631 S2630 1.613 . S
N2631 C2634 1.350 . S
N2632 S2630 1.610 . S
N2632 C2633 1.351 . S
C2633 C2627 1.428 . S
C2633 N2632 1.351 . S
C2633 C2634 1.434 . S
C2634 C2625 1.429 . S
C2634 N2631 1.350 . S
C2634 C2633 1.434 . S
C2635 C2636 1.369 . S
C2635 C2637 1.412 1_565 S
C2635 H2639 0.930 . S
C2636 C2635 1.369 . S
C2636 C2645 1.429 . S
C2637 C2635 1.412 1_545 S
C2637 C2638 1.356 1_545 S
C2637 H2640 0.944 . S
C2638 C2637 1.356 1_565 S
C2638 C2644 1.428 . S
H2639 C2635 0.930 . S
H2640 C2637 0.944 . S
S2641 N2642 1.613 . S
S2641 N2643 1.610 . S
N2642 S2641 1.613 . S
N2642 C2645 1.350 . S
N2643 S2641 1.610 . S
N2643 C2644 1.351 . S
C2644 C2638 1.428 . S
C2644 N2643 1.351 . S
C2644 C2645 1.434 . S
C2645 C2636 1.429 . S
C2645 N2642 1.350 . S
C2645 C2644 1.434 . S
C2646 C2647 1.369 . S
C2646 C2648 1.419 . S
C2646 H2650 0.930 . S
C2647 C2646 1.369 . S
C2647 C2656 1.429 . S
C2648 C2646 1.419 . S
C2648 C2649 1.363 . S
C2648 H2651 0.929 . S
C2649 C2648 1.363 . S
C2649 C2655 1.428 . S
H2650 C2646 0.930 . S
H2651 C2648 0.929 . S
S2652 N2653 1.613 . S
S2652 N2654 1.610 . S
N2653 S2652 1.613 . S
N2653 C2656 1.350 . S
N2654 S2652 1.610 . S
N2654 C2655 1.351 . S
C2655 C2649 1.428 . S
C2655 N2654 1.351 . S
C2655 C2656 1.434 . S
C2656 C2647 1.429 . S
C2656 N2653 1.350 . S
C2656 C2655 1.434 . S
C2657 C2658 1.369 . S
C2657 C2659 1.419 . S
C2657 H2661 0.930 . S
C2658 C2657 1.369 . S
C2658 C2667 1.429 . S
C2659 C2657 1.419 . S
C2659 C2660 1.363 . S
C2659 H2662 0.929 . S
C2660 C2659 1.363 . S
C2660 C2666 1.428 . S
H2661 C2657 0.930 . S
H2662 C2659 0.929 . S
S2663 N2664 1.613 . S
S2663 N2665 1.610 . S
N2664 S2663 1.613 . S
N2664 C2667 1.350 . S
N2665 S2663 1.610 . S
N2665 C2666 1.351 . S
C2666 C2660 1.428 . S
C2666 N2665 1.351 . S
C2666 C2667 1.434 . S
C2667 C2658 1.429 . S
C2667 N2664 1.350 . S
C2667 C2666 1.434 . S
C2668 C2669 1.369 . S
C2668 C2670 1.419 . S
C2668 H2672 0.930 . S
C2669 C2668 1.369 . S
C2669 C2678 1.429 . S
C2670 C2668 1.419 . S
C2670 C2671 1.363 . S
C2670 H2673 0.929 . S
C2671 C2670 1.363 . S
C2671 C2677 1.428 . S
H2672 C2668 0.930 . S
H2673 C2670 0.929 . S
S2674 N2675 1.613 . S
S2674 N2676 1.610 . S
N2675 S2674 1.613 . S
N2675 C2678 1.350 . S
N2676 S2674 1.610 . S
N2676 C2677 1.351 . S
C2677 C2671 1.428 . S
C2677 N2676 1.351 . S
C2677 C2678 1.434 . S
C2678 C2669 1.429 . S
C2678 N2675 1.350 . S
C2678 C2677 1.434 . S
C2679 C2680 1.369 . S
C2679 C2681 1.419 . S
C2679 H2683 0.930 . S
C2680 C2679 1.369 . S
C2680 C2689 1.429 . S
C2681 C2679 1.419 . S
C2681 C2682 1.363 . S
C2681 H2684 0.929 . S
C2682 C2681 1.363 . S
C2682 C2688 1.428 . S
H2683 C2679 0.930 . S
H2684 C2681 0.929 . S
S2685 N2686 1.613 1_556 S
S2685 N2687 1.612 1_556 S
N2686 S2685 1.613 1_554 S
N2686 C2689 1.350 . S
N2687 S2685 1.612 1_554 S
N2687 C2688 1.360 . S
C2688 C2682 1.428 . S
C2688 N2687 1.360 . S
C2688 C2689 1.434 . S
C2689 C2680 1.429 . S
C2689 N2686 1.350 . S
C2689 C2688 1.434 . S
C2690 C2691 1.369 . S
C2690 C2692 1.419 . S
C2690 H2694 0.930 . S
C2691 C2690 1.369 . S
C2691 C2700 1.429 . S
C2692 C2690 1.419 . S
C2692 C2693 1.363 . S
C2692 H2695 0.929 . S
C2693 C2692 1.363 . S
C2693 C2699 1.428 . S
H2694 C2690 0.930 . S
H2695 C2692 0.929 . S
S2696 N2697 1.613 . S
S2696 N2698 1.610 . S
N2697 S2696 1.613 . S
N2697 C2700 1.350 . S
N2698 S2696 1.610 . S
N2698 C2699 1.351 . S
C2699 C2693 1.428 . S
C2699 N2698 1.351 . S
C2699 C2700 1.434 . S
C2700 C2691 1.429 . S
C2700 N2697 1.350 . S
C2700 C2699 1.434 . S
C2701 C2702 1.369 . S
C2701 C2703 1.419 . S
C2701 H2705 0.930 . S
C2702 C2701 1.369 . S
C2702 C2711 1.429 . S
C2703 C2701 1.419 . S
C2703 C2704 1.363 . S
C2703 H2706 0.929 . S
C2704 C2703 1.363 . S
C2704 C2710 1.428 . S
H2705 C2701 0.930 . S
H2706 C2703 0.929 . S
S2707 N2708 1.613 . S
S2707 N2709 1.610 . S
N2708 S2707 1.613 . S
N2708 C2711 1.350 . S
N2709 S2707 1.610 . S
N2709 C2710 1.351 . S
C2710 C2704 1.428 . S
C2710 N2709 1.351 . S
C2710 C2711 1.434 . S
C2711 C2702 1.429 . S
C2711 N2708 1.350 . S
C2711 C2710 1.434 . S
C1657 C101 2.357 1_455 S
C1659 C368 2.388 . S
C1668 C57 1.914 . S
C1670 C470 1.955 . S
C1679 C73 1.981 . S
C1681 C536 2.111 . S
C1692 C622 1.309 . S
C1690 C78 1.353 . S
C1701 C21 1.434 . S
C1703 C706 1.362 . S
C1714 C788 2.037 . S
C1712 C31 1.886 . S
C1725 C890 1.970 . S
C1723 C49 1.944 . S
C1734 C0 2.101 . S
C1736 C956 2.286 . S
C1747 C386 1.832 . S
C1745 C218 1.879 . S
C1756 C229 0.982 . S
C1758 C454 0.940 . S
C1769 C554 1.182 . S
C1767 C257 1.176 . S
C1780 C620 1.684 . S
C1778 C164 1.602 1_556 S
C1789 C216 1.594 . S
C1791 C704 1.671 . S
C1802 C806 1.207 . S
C1800 C231 1.196 . S
C1813 C874 0.923 . S
C1811 C255 0.970 . S
C1824 C974 1.807 . S
C1822 C166 1.863 . S
C1835 C370 1.185 . S
C1833 C143 1.070 . S
C1844 C265 1.652 . S
C1846 C1058 1.689 . S
C1857 C1126 1.344 . S
C1855 C299 1.325 . S
C1868 C1208 0.919 . S
C1866 C291 0.894 . S
C1877 C104 1.038 . S
C1879 C958 1.129 . S
C1888 C117 1.339 . S
C1890 C538 1.355 . S
C1899 C304 1.612 . S
C1901 C1310 1.641 . S
C1912 C1376 0.804 . S
C1910 C278 0.804 . S
C1923 C379 2.340 . S
C1921 C60 2.314 . S
C1934 C1383 1.883 . S
C1932 C96 1.885 . S
C1943 C88 2.009 . S
C1945 C547 2.020 . S
C1954 C65 1.334 . S
C1956 C1305 1.268 . S
C1967 C717 1.315 . S
C1965 C10 1.395 . S
C1976 C44 1.828 . S
C1978 C1135 1.956 . S
C1989 C879 1.904 1_556 S
C1987 C34 1.812 . S
C2000 C1471 2.225 . S
C1998 C13 2.199 . S
C2011 C375 1.768 . S
C2009 C138 1.825 . S
C2022 C1389 0.894 . S
C2020 C296 0.929 . S
C2031 C112 1.142 . S
C2033 C543 1.141 . S
C2042 C270 1.616 . S
C2044 C1303 1.610 . S
C2053 C140 1.599 . S
C2055 C715 1.593 . S
C2066 C1131 1.157 . S
C2064 C294 1.161 . S
C2075 C114 0.922 . S
C2077 C885 0.898 1_545 S
C2086 C268 1.811 . S
C2088 C1467 1.748 . S
C2097 C169 1.202 . S
C2099 C381 1.199 . S
C2108 C161 1.639 . S
C2110 C1047 1.643 . S
C2119 C234 1.407 . S
C2121 C801 1.357 . S
C2130 C226 0.832 . S
C2132 C1219 0.835 . S
C2143 C1473 1.148 . S
C2141 C247 1.155 . S
C2152 C195 1.411 . S
C2154 C549 1.367 . S
C2165 C627 1.589 . S
C2163 C239 1.592 . S
C2176 C463 0.727 . S
C2174 C187 0.739 . S
C2185 C75 2.361 . S
C2187 C1544 2.387 . S
C2198 C1394 1.955 . S
C2196 C83 1.909 . S
C2207 C99 1.978 . S
C2209 C1628 2.112 . S
C2218 C52 1.344 1_655 S
C2220 C1294 1.311 . S
C2229 C47 1.440 . S
C2231 C1042 1.367 . S
C2242 C1124 2.036 . S
C2240 C5 1.892 . S
C2253 C1226 1.970 . S
C2251 C23 1.944 . S
C2264 C1460 2.286 . S
C2262 C26 2.102 . S
C2275 C1562 1.829 . S
C2273 C244 1.883 . S
C2284 C177 0.980 . S
C2286 C1378 0.932 . S
C2297 C1646 1.185 . S
C2295 C192 1.177 . S
C2308 C1292 1.684 . S
C2306 C203 1.602 . S
C2319 C1040 1.672 . S
C2317 C242 1.592 . S
C2328 C179 1.196 . S
C2330 C1142 1.206 . S
C2341 C1210 0.932 . S
C2339 C190 0.977 . S
C2350 C205 1.864 . S
C2352 C1478 1.809 . S
C2363 C1546 1.189 . S
C2361 C286 1.076 . S
C2372 C122 1.651 . S
C2374 C722 1.689 . S
C2385 C790 1.348 . S
C2383 C130 1.329 1_565 S
C2396 C872 0.921 . S
C2394 C148 0.894 . S
C2407 C1462 1.128 . S
C2405 C273 1.034 . S
C2416 C260 1.338 . S
C2418 C1630 1.356 . S
C2429 C638 1.639 . S
C2427 C135 1.609 . S
C2440 C452 0.804 . S
C2438 C109 0.798 . S
C2449 C86 2.310 . S
C2451 C1555 2.338 . S
C2462 C459 1.882 . S
C2460 C70 1.884 . S
C2471 C62 2.010 . S
C2473 C1639 2.021 . S
C2482 C91 1.335 . S
C2484 C633 1.267 . S
C2493 C36 1.396 . S
C2495 C1053 1.310 . S
C2506 C799 1.957 . S
C2504 C18 1.819 . S
C2515 C8 1.811 . S
C2517 C1215 1.904 . S
C2526 C39 2.200 . S
C2528 C967 2.226 . S
C2539 C1551 1.767 . S
C2537 C307 1.826 . S
C2548 C153 0.921 . S
C2550 C465 0.895 . S
C2561 C1635 1.139 1_655 S
C2559 C281 1.146 . S
C2570 C127 1.616 . S
C2572 C631 1.610 . S
C2581 C309 1.599 . S
C2583 C1051 1.593 . S
C2594 C795 1.162 . S
C2592 C151 1.163 . S
C2603 C283 0.923 . S
C2605 C1221 0.883 . S
C2616 C963 1.746 . S
C2614 C125 1.810 . S
C2627 C1557 1.199 . S
C2625 C221 1.202 . S
C2638 C711 1.643 1_565 S
C2636 C200 1.638 . S
C2647 C208 1.406 . S
C2649 C1137 1.358 . S
C2660 C883 0.838 . S
C2658 C174 0.815 . S
C2669 C182 1.155 . S
C2671 C969 1.149 . S
C2680 C156 1.411 . S
C2682 C1641 1.362 . S
C2693 C1299 1.590 . S
C2691 C213 1.589 . S
C2704 C1387 0.728 . S
C2702 C252 0.736 . S
