# Generated by pormake.
# Topology tph, (6,8)-cn, num edge types: 1
# Building blocks:
#     Node 0, Type 0, BuildingBlock: IZENUY_clean_sbu_0, # of connection points: 6
#     Node 1, Type 0, BuildingBlock: IZENUY_clean_sbu_0, # of connection points: 6
#     Node 2, Type 0, BuildingBlock: IZENUY_clean_sbu_0, # of connection points: 6
#     Node 3, Type 0, BuildingBlock: IZENUY_clean_sbu_0, # of connection points: 6
#     Node 4, Type 0, BuildingBlock: IZENUY_clean_sbu_0, # of connection points: 6
#     Node 5, Type 0, BuildingBlock: IZENUY_clean_sbu_0, # of connection points: 6
#     Node 6, Type 0, BuildingBlock: IZENUY_clean_sbu_0, # of connection points: 6
#     Node 7, Type 0, BuildingBlock: IZENUY_clean_sbu_0, # of connection points: 6
#     Node 8, Type 0, BuildingBlock: IZENUY_clean_sbu_0, # of connection points: 6
#     Node 9, Type 0, BuildingBlock: IZENUY_clean_sbu_0, # of connection points: 6
#     Node 10, Type 0, BuildingBlock: IZENUY_clean_sbu_0, # of connection points: 6
#     Node 11, Type 0, BuildingBlock: IZENUY_clean_sbu_0, # of connection points: 6
#     Node 12, Type 0, BuildingBlock: IZENUY_clean_sbu_0, # of connection points: 6
#     Node 13, Type 0, BuildingBlock: IZENUY_clean_sbu_0, # of connection points: 6
#     Node 14, Type 0, BuildingBlock: IZENUY_clean_sbu_0, # of connection points: 6
#     Node 15, Type 0, BuildingBlock: IZENUY_clean_sbu_0, # of connection points: 6
#     Node 16, Type 1, BuildingBlock: TAGTUT_clean_sbu_1, # of connection points: 8
#     Node 17, Type 1, BuildingBlock: TAGTUT_clean_sbu_1, # of connection points: 8
#     Node 18, Type 1, BuildingBlock: TAGTUT_clean_sbu_1, # of connection points: 8
#     Node 19, Type 1, BuildingBlock: TAGTUT_clean_sbu_1, # of connection points: 8
#     Node 20, Type 1, BuildingBlock: TAGTUT_clean_sbu_1, # of connection points: 8
#     Node 21, Type 1, BuildingBlock: TAGTUT_clean_sbu_1, # of connection points: 8
#     Node 22, Type 1, BuildingBlock: TAGTUT_clean_sbu_1, # of connection points: 8
#     Node 23, Type 1, BuildingBlock: TAGTUT_clean_sbu_1, # of connection points: 8
#     Node 24, Type 1, BuildingBlock: TAGTUT_clean_sbu_1, # of connection points: 8
#     Node 25, Type 1, BuildingBlock: TAGTUT_clean_sbu_1, # of connection points: 8
#     Node 26, Type 1, BuildingBlock: TAGTUT_clean_sbu_1, # of connection points: 8
#     Node 27, Type 1, BuildingBlock: TAGTUT_clean_sbu_1, # of connection points: 8
#     Edge 28, Type (0, 1), BuildingBlock: ZUJKAS_clean_linker_0, # of connection points: 2
#     Edge 29, Type (0, 1), BuildingBlock: ZUJKAS_clean_linker_0, # of connection points: 2
#     Edge 30, Type (0, 1), BuildingBlock: ZUJKAS_clean_linker_0, # of connection points: 2
#     Edge 31, Type (0, 1), BuildingBlock: ZUJKAS_clean_linker_0, # of connection points: 2
#     Edge 32, Type (0, 1), BuildingBlock: ZUJKAS_clean_linker_0, # of connection points: 2
#     Edge 33, Type (0, 1), BuildingBlock: ZUJKAS_clean_linker_0, # of connection points: 2
#     Edge 34, Type (0, 1), BuildingBlock: ZUJKAS_clean_linker_0, # of connection points: 2
#     Edge 35, Type (0, 1), BuildingBlock: ZUJKAS_clean_linker_0, # of connection points: 2
#     Edge 36, Type (0, 1), BuildingBlock: ZUJKAS_clean_linker_0, # of connection points: 2
#     Edge 37, Type (0, 1), BuildingBlock: ZUJKAS_clean_linker_0, # of connection points: 2
#     Edge 38, Type (0, 1), BuildingBlock: ZUJKAS_clean_linker_0, # of connection points: 2
#     Edge 39, Type (0, 1), BuildingBlock: ZUJKAS_clean_linker_0, # of connection points: 2
#     Edge 40, Type (0, 1), BuildingBlock: ZUJKAS_clean_linker_0, # of connection points: 2
#     Edge 41, Type (0, 1), BuildingBlock: ZUJKAS_clean_linker_0, # of connection points: 2
#     Edge 42, Type (0, 1), BuildingBlock: ZUJKAS_clean_linker_0, # of connection points: 2
#     Edge 43, Type (0, 1), BuildingBlock: ZUJKAS_clean_linker_0, # of connection points: 2
#     Edge 44, Type (0, 1), BuildingBlock: ZUJKAS_clean_linker_0, # of connection points: 2
#     Edge 45, Type (0, 1), BuildingBlock: ZUJKAS_clean_linker_0, # of connection points: 2
#     Edge 46, Type (0, 1), BuildingBlock: ZUJKAS_clean_linker_0, # of connection points: 2
#     Edge 47, Type (0, 1), BuildingBlock: ZUJKAS_clean_linker_0, # of connection points: 2
#     Edge 48, Type (0, 1), BuildingBlock: ZUJKAS_clean_linker_0, # of connection points: 2
#     Edge 49, Type (0, 1), BuildingBlock: ZUJKAS_clean_linker_0, # of connection points: 2
#     Edge 50, Type (0, 1), BuildingBlock: ZUJKAS_clean_linker_0, # of connection points: 2
#     Edge 51, Type (0, 1), BuildingBlock: ZUJKAS_clean_linker_0, # of connection points: 2
#     Edge 52, Type (0, 1), BuildingBlock: ZUJKAS_clean_linker_0, # of connection points: 2
#     Edge 53, Type (0, 1), BuildingBlock: ZUJKAS_clean_linker_0, # of connection points: 2
#     Edge 54, Type (0, 1), BuildingBlock: ZUJKAS_clean_linker_0, # of connection points: 2
#     Edge 55, Type (0, 1), BuildingBlock: ZUJKAS_clean_linker_0, # of connection points: 2
#     Edge 56, Type (0, 1), BuildingBlock: ZUJKAS_clean_linker_0, # of connection points: 2
#     Edge 57, Type (0, 1), BuildingBlock: ZUJKAS_clean_linker_0, # of connection points: 2
#     Edge 58, Type (0, 1), BuildingBlock: ZUJKAS_clean_linker_0, # of connection points: 2
#     Edge 59, Type (0, 1), BuildingBlock: ZUJKAS_clean_linker_0, # of connection points: 2
#     Edge 60, Type (0, 1), BuildingBlock: ZUJKAS_clean_linker_0, # of connection points: 2
#     Edge 61, Type (0, 1), BuildingBlock: ZUJKAS_clean_linker_0, # of connection points: 2
#     Edge 62, Type (0, 1), BuildingBlock: ZUJKAS_clean_linker_0, # of connection points: 2
#     Edge 63, Type (0, 1), BuildingBlock: ZUJKAS_clean_linker_0, # of connection points: 2
#     Edge 64, Type (0, 1), BuildingBlock: ZUJKAS_clean_linker_0, # of connection points: 2
#     Edge 65, Type (0, 1), BuildingBlock: ZUJKAS_clean_linker_0, # of connection points: 2
#     Edge 66, Type (0, 1), BuildingBlock: ZUJKAS_clean_linker_0, # of connection points: 2
#     Edge 67, Type (0, 1), BuildingBlock: ZUJKAS_clean_linker_0, # of connection points: 2
#     Edge 68, Type (0, 1), BuildingBlock: ZUJKAS_clean_linker_0, # of connection points: 2
#     Edge 69, Type (0, 1), BuildingBlock: ZUJKAS_clean_linker_0, # of connection points: 2
#     Edge 70, Type (0, 1), BuildingBlock: ZUJKAS_clean_linker_0, # of connection points: 2
#     Edge 71, Type (0, 1), BuildingBlock: ZUJKAS_clean_linker_0, # of connection points: 2
#     Edge 72, Type (0, 1), BuildingBlock: ZUJKAS_clean_linker_0, # of connection points: 2
#     Edge 73, Type (0, 1), BuildingBlock: ZUJKAS_clean_linker_0, # of connection points: 2
#     Edge 74, Type (0, 1), BuildingBlock: ZUJKAS_clean_linker_0, # of connection points: 2
#     Edge 75, Type (0, 1), BuildingBlock: ZUJKAS_clean_linker_0, # of connection points: 2
#     Edge 76, Type (0, 1), BuildingBlock: ZUJKAS_clean_linker_0, # of connection points: 2
#     Edge 77, Type (0, 1), BuildingBlock: ZUJKAS_clean_linker_0, # of connection points: 2
#     Edge 78, Type (0, 1), BuildingBlock: ZUJKAS_clean_linker_0, # of connection points: 2
#     Edge 79, Type (0, 1), BuildingBlock: ZUJKAS_clean_linker_0, # of connection points: 2
#     Edge 80, Type (0, 1), BuildingBlock: ZUJKAS_clean_linker_0, # of connection points: 2
#     Edge 81, Type (0, 1), BuildingBlock: ZUJKAS_clean_linker_0, # of connection points: 2
#     Edge 82, Type (0, 1), BuildingBlock: ZUJKAS_clean_linker_0, # of connection points: 2
#     Edge 83, Type (0, 1), BuildingBlock: ZUJKAS_clean_linker_0, # of connection points: 2
#     Edge 84, Type (0, 1), BuildingBlock: ZUJKAS_clean_linker_0, # of connection points: 2
#     Edge 85, Type (0, 1), BuildingBlock: ZUJKAS_clean_linker_0, # of connection points: 2
#     Edge 86, Type (0, 1), BuildingBlock: ZUJKAS_clean_linker_0, # of connection points: 2
#     Edge 87, Type (0, 1), BuildingBlock: ZUJKAS_clean_linker_0, # of connection points: 2
#     Edge 88, Type (0, 1), BuildingBlock: ZUJKAS_clean_linker_0, # of connection points: 2
#     Edge 89, Type (0, 1), BuildingBlock: ZUJKAS_clean_linker_0, # of connection points: 2
#     Edge 90, Type (0, 1), BuildingBlock: ZUJKAS_clean_linker_0, # of connection points: 2
#     Edge 91, Type (0, 1), BuildingBlock: ZUJKAS_clean_linker_0, # of connection points: 2
#     Edge 92, Type (0, 1), BuildingBlock: ZUJKAS_clean_linker_0, # of connection points: 2
#     Edge 93, Type (0, 1), BuildingBlock: ZUJKAS_clean_linker_0, # of connection points: 2
#     Edge 94, Type (0, 1), BuildingBlock: ZUJKAS_clean_linker_0, # of connection points: 2
#     Edge 95, Type (0, 1), BuildingBlock: ZUJKAS_clean_linker_0, # of connection points: 2
#     Edge 96, Type (0, 1), BuildingBlock: ZUJKAS_clean_linker_0, # of connection points: 2
#     Edge 97, Type (0, 1), BuildingBlock: ZUJKAS_clean_linker_0, # of connection points: 2
#     Edge 98, Type (0, 1), BuildingBlock: ZUJKAS_clean_linker_0, # of connection points: 2
#     Edge 99, Type (0, 1), BuildingBlock: ZUJKAS_clean_linker_0, # of connection points: 2
#     Edge 100, Type (0, 1), BuildingBlock: ZUJKAS_clean_linker_0, # of connection points: 2
#     Edge 101, Type (0, 1), BuildingBlock: ZUJKAS_clean_linker_0, # of connection points: 2
#     Edge 102, Type (0, 1), BuildingBlock: ZUJKAS_clean_linker_0, # of connection points: 2
#     Edge 103, Type (0, 1), BuildingBlock: ZUJKAS_clean_linker_0, # of connection points: 2
#     Edge 104, Type (0, 1), BuildingBlock: ZUJKAS_clean_linker_0, # of connection points: 2
#     Edge 105, Type (0, 1), BuildingBlock: ZUJKAS_clean_linker_0, # of connection points: 2
#     Edge 106, Type (0, 1), BuildingBlock: ZUJKAS_clean_linker_0, # of connection points: 2
#     Edge 107, Type (0, 1), BuildingBlock: ZUJKAS_clean_linker_0, # of connection points: 2
#     Edge 108, Type (0, 1), BuildingBlock: ZUJKAS_clean_linker_0, # of connection points: 2
#     Edge 109, Type (0, 1), BuildingBlock: ZUJKAS_clean_linker_0, # of connection points: 2
#     Edge 110, Type (0, 1), BuildingBlock: ZUJKAS_clean_linker_0, # of connection points: 2
#     Edge 111, Type (0, 1), BuildingBlock: ZUJKAS_clean_linker_0, # of connection points: 2
#     Edge 112, Type (0, 1), BuildingBlock: ZUJKAS_clean_linker_0, # of connection points: 2
#     Edge 113, Type (0, 1), BuildingBlock: ZUJKAS_clean_linker_0, # of connection points: 2
#     Edge 114, Type (0, 1), BuildingBlock: ZUJKAS_clean_linker_0, # of connection points: 2
#     Edge 115, Type (0, 1), BuildingBlock: ZUJKAS_clean_linker_0, # of connection points: 2
#     Edge 116, Type (0, 1), BuildingBlock: ZUJKAS_clean_linker_0, # of connection points: 2
#     Edge 117, Type (0, 1), BuildingBlock: ZUJKAS_clean_linker_0, # of connection points: 2
#     Edge 118, Type (0, 1), BuildingBlock: ZUJKAS_clean_linker_0, # of connection points: 2
#     Edge 119, Type (0, 1), BuildingBlock: ZUJKAS_clean_linker_0, # of connection points: 2
#     Edge 120, Type (0, 1), BuildingBlock: ZUJKAS_clean_linker_0, # of connection points: 2
#     Edge 121, Type (0, 1), BuildingBlock: ZUJKAS_clean_linker_0, # of connection points: 2
#     Edge 122, Type (0, 1), BuildingBlock: ZUJKAS_clean_linker_0, # of connection points: 2
#     Edge 123, Type (0, 1), BuildingBlock: ZUJKAS_clean_linker_0, # of connection points: 2
# Relax obj value: 0.211
# Max RMSD: 0.313
# Mean RMSD: 0.271
data_MOF--net-tph--node1-IZENUY_clean_sbu_0--node2-TAGTUT_clean_sbu_1--edge1-ZUJKAS_clean_linker_0
_symmetry_space_group_name_H-M    P1
_symmetry_Int_Tables_number       1
_symmetry_cell_setting            triclinic
loop_
_symmetry_equiv_pos_as_xyz
'x, y, z'
_cell_length_a     60.112827
_cell_length_b     59.665263
_cell_length_c     59.077461
_cell_angle_alpha  90.188252
_cell_angle_beta   92.113875
_cell_angle_gamma 90.24215
loop_
_atom_site_label
_atom_site_type_symbol
_atom_site_fract_x
_atom_site_fract_y
_atom_site_fract_z
_atom_type_partial_charge
Fe0 Fe 0.19672 0.193 0.13795 0.0
Fe1 Fe 0.16524 0.19742 0.17711 0.0
O2 O 0.18665 0.18291 0.16371 0.0
Fe3 Fe 0.19788 0.15846 0.17612 0.0
O4 O 0.18971 0.14213 0.15179 0.0
O5 O 0.20297 0.16474 0.12631 0.0
O6 O 0.16961 0.19007 0.12428 0.0
C7 C 0.1529 0.20084 0.13031 0.0
C8 C 0.23576 0.18114 0.15955 0.0
O9 O 0.15202 0.20827 0.15044 0.0
C10 C 0.19298 0.18267 0.21417 0.0
O11 O 0.19194 0.22309 0.14498 0.0
O12 O 0.18275 0.22178 0.18059 0.0
O13 O 0.22643 0.16325 0.16615 0.0
O14 O 0.22441 0.19646 0.15023 0.0
C15 C 0.15123 0.15465 0.18268 0.0
O16 O 0.17424 0.18925 0.2062 0.0
O17 O 0.20653 0.17347 0.20143 0.0
C18 C 0.18964 0.2327 0.16405 0.0
O19 O 0.14687 0.17361 0.17434 0.0
O20 O 0.1712 0.14921 0.18805 0.0
C21 C 0.19499 0.14582 0.1318 0.0
Fe22 Fe 0.44485 0.58132 0.10703 0.0
Fe23 Fe 0.43695 0.61133 0.06537 0.0
O24 O 0.43016 0.58735 0.08126 0.0
Fe25 Fe 0.40813 0.56964 0.07144 0.0
O26 O 0.39254 0.57579 0.09614 0.0
O27 O 0.41996 0.56995 0.12116 0.0
O28 O 0.43746 0.60776 0.11902 0.0
C29 C 0.44052 0.62683 0.11079 0.0
C30 C 0.43942 0.53873 0.09135 0.0
O31 O 0.44517 0.62904 0.09014 0.0
C32 C 0.42717 0.57766 0.03162 0.0
O33 O 0.47211 0.59228 0.09743 0.0
O34 O 0.46499 0.60165 0.06187 0.0
O35 O 0.41983 0.54376 0.08438 0.0
O36 O 0.45309 0.55397 0.09706 0.0
C37 C 0.39214 0.61312 0.05975 0.0
O38 O 0.42966 0.59806 0.03764 0.0
O39 O 0.42262 0.5629 0.04601 0.0
C40 C 0.47876 0.59705 0.07775 0.0
O41 O 0.40933 0.62263 0.06793 0.0
O42 O 0.39194 0.59206 0.05665 0.0
C43 C 0.39932 0.57303 0.11639 0.0
Fe44 Fe 0.82702 0.31424 0.16079 0.0
Fe45 Fe 0.86026 0.30913 0.20063 0.0
O46 O 0.83775 0.3235 0.18736 0.0
Fe47 Fe 0.82603 0.34695 0.20066 0.0
O48 O 0.83224 0.36501 0.17721 0.0
O49 O 0.81869 0.34231 0.15078 0.0
O50 O 0.85338 0.31918 0.14811 0.0
C51 C 0.87114 0.30963 0.15446 0.0
C52 C 0.78843 0.32364 0.18111 0.0
O53 O 0.87293 0.30063 0.17387 0.0
C54 C 0.83286 0.31978 0.23704 0.0
O55 O 0.83321 0.28435 0.16599 0.0
O56 O 0.84408 0.28365 0.20186 0.0
O57 O 0.7973 0.34145 0.18928 0.0
O58 O 0.80016 0.30892 0.17209 0.0
C59 C 0.87273 0.3522 0.20906 0.0
O60 O 0.85191 0.31513 0.22985 0.0
O61 O 0.81891 0.33027 0.2248 0.0
C62 C 0.83578 0.2739 0.18457 0.0
O63 O 0.87742 0.33382 0.19993 0.0
O64 O 0.85285 0.35656 0.21431 0.0
C65 C 0.82501 0.3617 0.15718 0.0
Fe66 Fe 0.56379 0.93348 0.10328 0.0
Fe67 Fe 0.57068 0.90414 0.06151 0.0
O68 O 0.57964 0.92641 0.07961 0.0
Fe69 Fe 0.60463 0.94116 0.07458 0.0
O70 O 0.61651 0.9336 0.10208 0.0
O71 O 0.58763 0.94297 0.12147 0.0
O72 O 0.56802 0.90581 0.11531 0.0
C73 C 0.56291 0.88771 0.10523 0.0
C74 C 0.57434 0.97523 0.08816 0.0
O75 O 0.55846 0.88746 0.0841 0.0
C76 C 0.58806 0.9363 0.03102 0.0
O77 O 0.53682 0.92513 0.08988 0.0
O78 O 0.54437 0.91773 0.0546 0.0
O79 O 0.59406 0.96838 0.08507 0.0
O80 O 0.55897 0.96154 0.09248 0.0
C81 C 0.61556 0.89575 0.0657 0.0
O82 O 0.58169 0.9166 0.03567 0.0
O83 O 0.59472 0.94957 0.04653 0.0
C84 C 0.53039 0.92199 0.06942 0.0
O85 O 0.59592 0.88883 0.0675 0.0
O86 O 0.61959 0.91653 0.06346 0.0
C87 C 0.60798 0.93771 0.12076 0.0
Fe88 Fe 0.18567 0.85011 0.31567 0.0
Fe89 Fe 0.19339 0.81646 0.35392 0.0
O90 O 0.17718 0.82617 0.33051 0.0
Fe91 Fe 0.15262 0.81181 0.32168 0.0
O92 O 0.13584 0.8363 0.32656 0.0
O93 O 0.15692 0.85909 0.30749 0.0
O94 O 0.18366 0.86736 0.34057 0.0
C95 C 0.1951 0.86414 0.35854 0.0
C96 C 0.17209 0.82397 0.28032 0.0
O97 O 0.2031 0.84486 0.363 0.0
C98 C 0.18 0.77653 0.33074 0.0
O99 O 0.21597 0.84551 0.32099 0.0
O100 O 0.21709 0.81225 0.33664 0.0
O101 O 0.15498 0.81864 0.29116 0.0
O102 O 0.1882 0.83397 0.29012 0.0
C103 C 0.15228 0.80971 0.37001 0.0
O104 O 0.18671 0.78638 0.34887 0.0
O105 O 0.16809 0.78671 0.31616 0.0
C106 C 0.22641 0.82759 0.32588 0.0
O107 O 0.17054 0.81999 0.37253 0.0
O108 O 0.1459 0.80229 0.3506 0.0
C109 C 0.13827 0.85433 0.31585 0.0
Fe110 Fe 0.10422 0.56755 0.93349 0.0
Fe111 Fe 0.06751 0.58136 0.89891 0.0
O112 O 0.08177 0.58525 0.92545 0.0
Fe113 Fe 0.0738 0.60699 0.9439 0.0
O114 O 0.1011 0.62 0.94334 0.0
O115 O 0.11982 0.58908 0.95 0.0
O116 O 0.11973 0.57622 0.90943 0.0
C117 C 0.11316 0.57463 0.88899 0.0
C118 C 0.0849 0.57105 0.974 0.0
O119 O 0.09255 0.57185 0.88388 0.0
C120 C 0.03268 0.59226 0.92906 0.0
O121 O 0.09287 0.54268 0.91853 0.0
O122 O 0.0596 0.55292 0.90605 0.0
O123 O 0.08141 0.59164 0.97001 0.0
O124 O 0.0902 0.55797 0.95831 0.0
C125 C 0.07038 0.62715 0.9007 0.0
O126 O 0.03995 0.59037 0.90914 0.0
O127 O 0.04604 0.59544 0.94574 0.0
C128 C 0.07314 0.53774 0.91196 0.0
O129 O 0.07462 0.60942 0.89008 0.0
O130 O 0.06494 0.62643 0.92119 0.0
C131 C 0.11883 0.61028 0.94974 0.0
Fe132 Fe 0.8116 0.65708 0.31333 0.0
Fe133 Fe 0.84726 0.69341 0.3087 0.0
O134 O 0.8257 0.68119 0.32398 0.0
Fe135 Fe 0.81842 0.6933 0.35 0.0
O136 O 0.79052 0.69868 0.33934 0.0
O137 O 0.78436 0.66507 0.32483 0.0
O138 O 0.80282 0.67126 0.28742 0.0
C139 C 0.81606 0.68036 0.27414 0.0
C140 C 0.81514 0.64666 0.35823 0.0
O141 O 0.83564 0.68544 0.28082 0.0
C142 C 0.86332 0.69671 0.35409 0.0
O143 O 0.83653 0.64491 0.30028 0.0
O144 O 0.8635 0.66833 0.3107 0.0
O145 O 0.81006 0.66667 0.36302 0.0
O146 O 0.81945 0.64123 0.33828 0.0
C147 C 0.82736 0.73116 0.3225 0.0
O148 O 0.86323 0.70358 0.33384 0.0
O149 O 0.84599 0.68848 0.36212 0.0
C150 C 0.85713 0.64941 0.30352 0.0
O151 O 0.83205 0.71921 0.30578 0.0
O152 O 0.82553 0.72233 0.34187 0.0
C153 C 0.77719 0.68377 0.33198 0.0
Fe154 Fe 0.90408 0.94413 0.92482 0.0
Fe155 Fe 0.94424 0.93504 0.8958 0.0
O156 O 0.9274 0.92738 0.91856 0.0
Fe157 Fe 0.93343 0.90288 0.9345 0.0
O158 O 0.90628 0.89098 0.92767 0.0
O159 O 0.88676 0.92087 0.93501 0.0
O160 O 0.89154 0.93877 0.89698 0.0
C161 C 0.90075 0.94278 0.87859 0.0
C162 C 0.92034 0.93512 0.96761 0.0
O163 O 0.92134 0.94727 0.87843 0.0
C164 C 0.97578 0.91848 0.92872 0.0
O165 O 0.9168 0.97076 0.91556 0.0
O166 O 0.95129 0.9617 0.9089 0.0
O167 O 0.92423 0.91507 0.96146 0.0
O168 O 0.91522 0.95 0.95317 0.0
C169 C 0.94024 0.88966 0.88904 0.0
O170 O 0.97021 0.92392 0.90861 0.0
O171 O 0.96128 0.91265 0.94246 0.0
C172 C 0.93692 0.97641 0.91278 0.0
O173 O 0.93804 0.90914 0.88121 0.0
O174 O 0.94332 0.88649 0.91018 0.0
C175 C 0.88785 0.9 0.93124 0.0
Fe176 Fe 0.40326 0.44305 0.42636 0.0
Fe177 Fe 0.44298 0.434 0.39674 0.0
O178 O 0.42659 0.42644 0.41987 0.0
Fe179 Fe 0.43312 0.40213 0.43593 0.0
O180 O 0.40596 0.38989 0.42972 0.0
O181 O 0.38626 0.41974 0.43688 0.0
O182 O 0.39035 0.43748 0.39871 0.0
C183 C 0.39926 0.44147 0.38016 0.0
C184 C 0.42019 0.43446 0.46903 0.0
O185 O 0.41981 0.4461 0.37971 0.0
C186 C 0.47523 0.41781 0.42914 0.0
O187 O 0.41573 0.46965 0.41675 0.0
O188 O 0.45018 0.46081 0.40955 0.0
O189 O 0.42425 0.41442 0.46297 0.0
O190 O 0.41472 0.44917 0.45453 0.0
C191 C 0.43885 0.38861 0.3904 0.0
O192 O 0.46919 0.4229 0.40906 0.0
O193 O 0.461 0.4123 0.4433 0.0
C194 C 0.43574 0.47545 0.4135 0.0
O195 O 0.43646 0.40803 0.38249 0.0
O196 O 0.44271 0.38563 0.41149 0.0
C197 C 0.3875 0.39884 0.43332 0.0
Fe198 Fe 0.32799 0.81369 0.65956 0.0
Fe199 Fe 0.32676 0.847 0.69886 0.0
O200 O 0.33758 0.82241 0.6868 0.0
Fe201 Fe 0.35787 0.80621 0.70168 0.0
O202 O 0.33979 0.78198 0.70109 0.0
O203 O 0.33229 0.78345 0.66464 0.0
O204 O 0.30022 0.80994 0.66915 0.0
C205 C 0.28888 0.8254 0.67752 0.0
C206 C 0.3722 0.80675 0.65645 0.0
O207 O 0.29832 0.84287 0.68594 0.0
C208 C 0.37313 0.84823 0.71181 0.0
O209 O 0.32158 0.84203 0.64899 0.0
O210 O 0.33557 0.86408 0.67555 0.0
O211 O 0.37214 0.79738 0.67576 0.0
O212 O 0.35539 0.81723 0.64889 0.0
C213 C 0.32898 0.82001 0.73618 0.0
O214 O 0.3533 0.85512 0.71386 0.0
O215 O 0.37709 0.82931 0.70346 0.0
C216 C 0.32875 0.86108 0.65538 0.0
O217 O 0.31713 0.83184 0.72296 0.0
O218 O 0.3475 0.81237 0.73008 0.0
C219 C 0.33275 0.77267 0.68309 0.0
Fe220 Fe 0.06987 0.4029 0.56393 0.0
Fe221 Fe 0.10347 0.44037 0.57622 0.0
O222 O 0.07874 0.42542 0.58175 0.0
Fe223 Fe 0.06313 0.43248 0.60561 0.0
O224 O 0.06765 0.40487 0.61768 0.0
O225 O 0.05787 0.38637 0.58668 0.0
O226 O 0.09528 0.38786 0.56996 0.0
C227 C 0.11479 0.39497 0.56767 0.0
C228 C 0.02952 0.42063 0.57201 0.0
O229 O 0.11851 0.41578 0.56503 0.0
C230 C 0.07319 0.47433 0.59021 0.0
O231 O 0.08073 0.4151 0.53791 0.0
O232 O 0.09293 0.4485 0.5483 0.0
O233 O 0.0361 0.42397 0.59242 0.0
O234 O 0.04339 0.41624 0.55709 0.0
C235 C 0.10749 0.43703 0.62242 0.0
O236 O 0.09283 0.46755 0.58663 0.0
O237 O 0.05802 0.46054 0.59492 0.0
C238 C 0.08653 0.4349 0.53302 0.0
O239 O 0.11583 0.4331 0.6036 0.0
O240 O 0.08713 0.44211 0.62346 0.0
C241 C 0.06264 0.38668 0.60773 0.0
Fe242 Fe 0.94527 0.07995 0.60541 0.0
Fe243 Fe 0.938 0.11002 0.56383 0.0
O244 O 0.93071 0.08618 0.57964 0.0
Fe245 Fe 0.90843 0.06882 0.56979 0.0
O246 O 0.89289 0.07496 0.59457 0.0
O247 O 0.92031 0.06863 0.61944 0.0
O248 O 0.93786 0.10639 0.6174 0.0
C249 C 0.94103 0.12543 0.60912 0.0
C250 C 0.93951 0.03753 0.58941 0.0
O251 O 0.94648 0.12748 0.58869 0.0
C252 C 0.92761 0.07669 0.52996 0.0
O253 O 0.97266 0.09081 0.59602 0.0
O254 O 0.96584 0.09978 0.56034 0.0
O255 O 0.9199 0.04278 0.58263 0.0
O256 O 0.95335 0.05261 0.59521 0.0
C257 C 0.89326 0.11268 0.55817 0.0
O258 O 0.93049 0.097 0.53605 0.0
O259 O 0.92279 0.06197 0.5443 0.0
C260 C 0.9795 0.09527 0.57634 0.0
O261 O 0.91063 0.1218 0.56638 0.0
O262 O 0.89256 0.09159 0.55512 0.0
C263 C 0.89966 0.07166 0.61474 0.0
Fe264 Fe 0.69587 0.69331 0.63734 0.0
Fe265 Fe 0.69758 0.65984 0.67657 0.0
O266 O 0.68631 0.68403 0.66362 0.0
Fe267 Fe 0.66524 0.6991 0.67701 0.0
O268 O 0.68305 0.72331 0.67963 0.0
O269 O 0.69163 0.72364 0.64378 0.0
O270 O 0.72388 0.69669 0.64868 0.0
C271 C 0.7353 0.68157 0.65825 0.0
C272 C 0.65205 0.70156 0.63043 0.0
O273 O 0.72602 0.66422 0.66616 0.0
C274 C 0.65097 0.65664 0.68388 0.0
O275 O 0.70155 0.66475 0.62627 0.0
O276 O 0.68911 0.64283 0.65279 0.0
O277 O 0.65171 0.70954 0.65035 0.0
O278 O 0.66844 0.69033 0.62438 0.0
C279 C 0.69322 0.68495 0.7141 0.0
O280 O 0.67096 0.65109 0.68901 0.0
O281 O 0.64663 0.67542 0.67511 0.0
C282 C 0.69387 0.64598 0.63255 0.0
O283 O 0.70661 0.67544 0.70142 0.0
O284 O 0.6745 0.69151 0.70613 0.0
C285 C 0.6899 0.73369 0.66272 0.0
Fe286 Fe 0.68696 0.34948 0.81649 0.0
Fe287 Fe 0.69359 0.31636 0.85548 0.0
O288 O 0.67788 0.32599 0.83167 0.0
Fe289 Fe 0.65312 0.31197 0.82282 0.0
O290 O 0.63678 0.33682 0.82738 0.0
O291 O 0.65837 0.35897 0.8081 0.0
O292 O 0.68523 0.36724 0.84105 0.0
C293 C 0.69623 0.36407 0.85929 0.0
C294 C 0.67292 0.32327 0.7814 0.0
O295 O 0.70362 0.34469 0.86433 0.0
C296 C 0.67984 0.27637 0.83248 0.0
O297 O 0.71718 0.34429 0.822 0.0
O298 O 0.71755 0.31156 0.83879 0.0
O299 O 0.6557 0.31846 0.79227 0.0
O300 O 0.68926 0.33289 0.79118 0.0
C301 C 0.65223 0.3103 0.8711 0.0
O302 O 0.68652 0.2863 0.8506 0.0
O303 O 0.66823 0.28658 0.81767 0.0
C304 C 0.72735 0.32648 0.82791 0.0
O305 O 0.67051 0.32051 0.87369 0.0
O306 O 0.64601 0.30276 0.85171 0.0
C307 C 0.6396 0.35469 0.81649 0.0
Fe308 Fe 0.60376 0.06666 0.43043 0.0
Fe309 Fe 0.56705 0.08029 0.39576 0.0
O310 O 0.58099 0.08396 0.42249 0.0
Fe311 Fe 0.57225 0.10506 0.44124 0.0
O312 O 0.59916 0.11887 0.44113 0.0
O313 O 0.61874 0.08836 0.44735 0.0
O314 O 0.61927 0.07596 0.40659 0.0
C315 C 0.61288 0.07435 0.3861 0.0
C316 C 0.58422 0.06903 0.47088 0.0
O317 O 0.59234 0.0714 0.38083 0.0
C318 C 0.53177 0.08954 0.42571 0.0
O319 O 0.59292 0.04177 0.41507 0.0
O320 O 0.55955 0.05161 0.40242 0.0
O321 O 0.58013 0.08955 0.46717 0.0
O322 O 0.58981 0.05637 0.45498 0.0
C323 C 0.56898 0.126 0.39846 0.0
O324 O 0.53925 0.08873 0.40582 0.0
O325 O 0.54486 0.09251 0.44263 0.0
C326 C 0.57326 0.0366 0.40841 0.0
O327 O 0.57385 0.10862 0.38754 0.0
O328 O 0.56303 0.12463 0.41876 0.0
C329 C 0.6171 0.10954 0.44752 0.0
Fe330 Fe 0.31088 0.15785 0.80773 0.0
Fe331 Fe 0.34997 0.19065 0.80689 0.0
O332 O 0.3264 0.18015 0.82031 0.0
Fe333 Fe 0.31873 0.19184 0.84634 0.0
O334 O 0.29177 0.19974 0.83469 0.0
O335 O 0.28381 0.16735 0.81839 0.0
O336 O 0.30474 0.17408 0.78244 0.0
C337 C 0.31959 0.18205 0.77026 0.0
C338 C 0.31155 0.14521 0.85209 0.0
O339 O 0.33934 0.18439 0.77809 0.0
C340 C 0.36362 0.19148 0.85296 0.0
O341 O 0.33539 0.14421 0.79525 0.0
O342 O 0.36357 0.16396 0.8095 0.0
O343 O 0.30789 0.16535 0.85776 0.0
O344 O 0.31611 0.14031 0.83206 0.0
C345 C 0.3323 0.22965 0.82064 0.0
O346 O 0.3652 0.1989 0.83307 0.0
O347 O 0.34524 0.18451 0.85969 0.0
C348 C 0.35584 0.14589 0.80143 0.0
O349 O 0.33747 0.2179 0.8039 0.0
O350 O 0.32837 0.22049 0.8395 0.0
C351 C 0.27767 0.18611 0.82628 0.0
C352 C 0.97865 0.26422 0.94943 0.0
C353 C 0.04457 0.2627 0.92722 0.0
C354 C 0.01538 0.31003 0.85561 0.0
Mg355 Mg 1.00322 0.23498 0.91474 0.0
O356 O 0.99251 0.25692 0.89497 0.0
Mg357 Mg 0.99951 0.28896 0.90338 0.0
Mg358 Mg 1.00354 0.25651 0.86354 0.0
O359 O 0.01436 0.25614 0.83237 0.0
Mg360 Mg 0.00616 0.27884 0.81231 0.0
Mg361 Mg 0.00793 0.2242 0.82346 0.0
C362 C 0.99204 0.20337 0.87206 0.0
C363 C 0.04858 0.2259 0.86141 0.0
O364 O 0.98242 0.28157 0.93725 0.0
O365 O 0.98461 0.24444 0.94369 0.0
O366 O 0.03321 0.28025 0.92224 0.0
O367 O 0.03712 0.24307 0.9228 0.0
O368 O 0.99621 0.2058 0.89342 0.0
O369 O 0.99107 0.22011 0.85829 0.0
C370 C 0.95849 0.28699 0.86523 0.0
O371 O 0.96934 0.27231 0.85411 0.0
O372 O 0.9663 0.2954 0.88395 0.0
O373 O 0.02665 0.23186 0.78994 0.0
O374 O 0.02874 0.26955 0.78711 0.0
O375 O 0.97541 0.23355 0.80372 0.0
C376 C 0.03344 0.24982 0.78022 0.0
O377 O 0.97378 0.27054 0.79806 0.0
O378 O 0.01193 0.30813 0.83408 0.0
C379 C 0.96565 0.25086 0.79534 0.0
O380 O 0.01567 0.29278 0.86864 0.0
O381 O 0.03838 0.24109 0.87253 0.0
O382 O 0.04009 0.21718 0.84321 0.0
C383 C 0.47835 0.76256 0.45017 0.0
C384 C 0.54404 0.76105 0.42691 0.0
C385 C 0.51324 0.80884 0.35601 0.0
Mg386 Mg 0.50248 0.73342 0.41499 0.0
O387 O 0.49155 0.75547 0.39547 0.0
Mg388 Mg 0.49875 0.78751 0.40388 0.0
Mg389 Mg 0.50175 0.75519 0.36374 0.0
O390 O 0.51155 0.75521 0.33218 0.0
Mg391 Mg 0.50136 0.77806 0.31308 0.0
Mg392 Mg 0.5047 0.72341 0.3231 0.0
C393 C 0.4906 0.70202 0.3722 0.0
C394 C 0.54641 0.72442 0.35995 0.0
O395 O 0.48214 0.77996 0.43804 0.0
O396 O 0.48411 0.74278 0.44422 0.0
O397 O 0.53265 0.77861 0.42208 0.0
O398 O 0.53649 0.74143 0.42265 0.0
O399 O 0.49529 0.7044 0.39348 0.0
O400 O 0.48904 0.71884 0.35855 0.0
C401 C 0.45717 0.78603 0.36643 0.0
O402 O 0.46751 0.77098 0.35534 0.0
O403 O 0.46546 0.79452 0.38492 0.0
O404 O 0.52217 0.73181 0.28887 0.0
O405 O 0.52239 0.76958 0.28629 0.0
O406 O 0.47146 0.73278 0.30471 0.0
C407 C 0.52768 0.75016 0.27901 0.0
O408 O 0.4682 0.76984 0.30081 0.0
O409 O 0.50845 0.80715 0.33469 0.0
C410 C 0.46069 0.74999 0.29755 0.0
O411 O 0.51422 0.79145 0.36886 0.0
O412 O 0.5366 0.73944 0.37166 0.0
O413 O 0.53747 0.71617 0.34173 0.0
C414 C 0.98837 0.75193 0.5506 0.0
C415 C 0.05389 0.75395 0.57642 0.0
C416 C 0.02443 0.70394 0.64582 0.0
Mg417 Mg 0.01271 0.78067 0.58764 0.0
O418 O 1.00197 0.758 0.60595 0.0
Mg419 Mg 0.00925 0.72629 0.59736 0.0
Mg420 Mg 0.01243 0.75778 0.63827 0.0
O421 O 0.02273 0.75747 0.6704 0.0
Mg422 Mg 0.01365 0.73417 0.68898 0.0
Mg423 Mg 0.01627 0.78917 0.67953 0.0
C424 C 1.00072 0.81121 0.63006 0.0
C425 C 0.05675 0.78936 0.6445 0.0
O426 O 0.99233 0.73442 0.5627 0.0
O427 O 0.99408 0.77173 0.55714 0.0
O428 O 0.04278 0.73615 0.58073 0.0
O429 O 0.04658 0.77338 0.58113 0.0
O430 O 0.00539 0.80924 0.60909 0.0
O431 O 0.99952 0.7941 0.64335 0.0
C432 C 0.96776 0.72665 0.63205 0.0
O433 O 0.97829 0.74132 0.64437 0.0
O434 O 0.97597 0.71871 0.61393 0.0
O435 O 0.03478 0.78047 0.71448 0.0
O436 O 0.03594 0.74268 0.71645 0.0
O437 O 0.98369 0.77938 0.6963 0.0
C438 C 0.04102 0.76214 0.72432 0.0
O439 O 0.98118 0.74234 0.70112 0.0
O440 O 0.02007 0.70533 0.66695 0.0
C441 C 0.97347 0.76211 0.70353 0.0
O442 O 0.02515 0.72158 0.6333 0.0
O443 O 0.04688 0.77413 0.63232 0.0
O444 O 0.04832 0.79723 0.66245 0.0
C445 C 0.95465 0.0315 0.23807 0.0
C446 C 0.93648 0.96377 0.24934 0.0
C447 C 0.86202 0.98493 0.19669 0.0
Mg448 Mg 0.9233 0.00834 0.27137 0.0
O449 O 0.90215 0.01289 0.24812 0.0
Mg450 Mg 0.90954 0.00301 0.21678 0.0
Mg451 Mg 0.87157 0.99988 0.24961 0.0
O452 O 0.84085 0.98763 0.2508 0.0
Mg453 Mg 0.82002 0.99483 0.22771 0.0
Mg454 Mg 0.83333 0.99471 0.28285 0.0
C455 C 0.88131 0.01732 0.30205 0.0
C456 C 0.87252 0.95719 0.2836 0.0
O457 O 0.94251 0.02314 0.22175 0.0
O458 O 0.94979 0.02917 0.25891 0.0
O459 O 0.92963 0.97144 0.23001 0.0
O460 O 0.93362 0.97444 0.26774 0.0
O461 O 0.90247 0.01595 0.29985 0.0
O462 O 0.86719 0.01468 0.28529 0.0
C463 C 0.87105 0.04178 0.2149 0.0
O464 O 0.86125 0.03189 0.23107 0.0
O465 O 0.88911 0.03417 0.20677 0.0
O466 O 0.80038 0.9732 0.27543 0.0
O467 O 0.79662 0.97017 0.23731 0.0
O468 O 0.81202 0.02529 0.2734 0.0
C469 C 0.79041 0.96546 0.25726 0.0
O470 O 0.80305 0.02594 0.2364 0.0
O471 O 0.84105 0.98891 0.19827 0.0
C472 C 0.80141 0.03389 0.25644 0.0
O473 O 0.87538 0.98488 0.21427 0.0
O474 O 0.88239 0.96726 0.26762 0.0
O475 O 0.85434 0.96444 0.29148 0.0
C476 C 0.2658 0.94944 0.98196 0.0
C477 C 0.22348 0.93257 0.03424 0.0
C478 C 0.20205 0.85856 0.98649 0.0
Mg479 Mg 0.27003 0.91738 0.02346 0.0
O480 O 0.25925 0.89715 0.00162 0.0
Mg481 Mg 0.23096 0.9051 0.98441 0.0
Mg482 Mg 0.25191 0.86618 0.01137 0.0
O483 O 0.24458 0.8353 0.02054 0.0
Mg484 Mg 0.23215 0.81597 0.99867 0.0
Mg485 Mg 0.2732 0.82676 0.03658 0.0
C486 C 0.30063 0.87521 0.03673 0.0
C487 C 0.24679 0.86392 0.06592 0.0
O488 O 0.24943 0.93755 0.97386 0.0
O489 O 0.27647 0.94441 0.00046 0.0
O490 O 0.21751 0.92604 0.01423 0.0
O491 O 0.24263 0.92789 0.04294 0.0
O492 O 0.29638 0.89628 0.03805 0.0
O493 O 0.28772 0.86144 0.02556 0.0
C494 C 0.25664 0.86591 0.9567 0.0
O495 O 0.26121 0.85607 0.97555 0.0
O496 O 0.24553 0.88422 0.95579 0.0
O497 O 0.25524 0.79275 0.0456 0.0
O498 O 0.22503 0.78999 0.02183 0.0
O499 O 0.28605 0.80753 0.00593 0.0
C500 C 0.23725 0.78273 0.03842 0.0
O501 O 0.25888 0.80202 0.97958 0.0
O502 O 0.20518 0.83729 0.98487 0.0
C503 C 0.27889 0.79905 0.98708 0.0
O504 O 0.21638 0.87137 0.99686 0.0
O505 O 0.24211 0.87521 0.04786 0.0
O506 O 0.2584 0.84595 0.06558 0.0
C507 C 0.05839 0.53078 0.26291 0.0
C508 C 0.0768 0.46298 0.25845 0.0
C509 C 0.15161 0.4867 0.30698 0.0
Mg510 Mg 0.08991 0.50468 0.23186 0.0
O511 O 0.11104 0.51258 0.25425 0.0
Mg512 Mg 0.10401 0.50545 0.28638 0.0
Mg513 Mg 0.14173 0.49986 0.25342 0.0
O514 O 0.17233 0.48769 0.25264 0.0
Mg515 Mg 0.19354 0.49475 0.27544 0.0
Mg516 Mg 0.17958 0.49348 0.22028 0.0
C517 C 0.13153 0.51253 0.20034 0.0
C518 C 0.14117 0.45512 0.22114 0.0
O519 O 0.07085 0.52483 0.28 0.0
O520 O 0.0631 0.52591 0.24245 0.0
O521 O 0.08384 0.47301 0.27658 0.0
O522 O 0.07987 0.47115 0.23888 0.0
O523 O 0.11048 0.51003 0.2027 0.0
O524 O 0.14572 0.51263 0.2172 0.0
C525 C 0.14238 0.54459 0.28545 0.0
O526 O 0.15225 0.53361 0.26999 0.0
O527 O 0.12435 0.53735 0.29395 0.0
O528 O 0.21208 0.47228 0.22751 0.0
O529 O 0.21636 0.46965 0.26556 0.0
O530 O 0.20084 0.52458 0.2292 0.0
C531 C 0.22207 0.46455 0.24551 0.0
O532 O 0.21012 0.52585 0.26617 0.0
O533 O 0.17275 0.48956 0.30515 0.0
C534 C 0.2115 0.53358 0.24605 0.0
O535 O 0.13809 0.48728 0.28957 0.0
O536 O 0.13125 0.46543 0.23703 0.0
O537 O 0.15891 0.46274 0.21264 0.0
C538 C 0.76425 0.5573 0.02844 0.0
C539 C 0.75696 0.57239 0.95823 0.0
C540 C 0.80588 0.64721 0.98085 0.0
Mg541 Mg 0.73195 0.58758 -2e-05 0.0
O542 O 0.75408 0.60883 0.00587 0.0
Mg543 Mg 0.78582 0.60091 -4e-05 0.0
Mg544 Mg 0.75273 0.63937 0.99243 0.0
O545 O 0.75214 0.67013 0.98005 0.0
Mg546 Mg 0.77493 0.68968 0.9902 0.0
Mg547 Mg 0.72059 0.67879 0.98561 0.0
C548 C 0.70042 0.63035 0.00685 0.0
C549 C 0.72145 0.63999 0.94664 0.0
O550 O 0.78043 0.56917 0.02135 0.0
O551 O 0.74384 0.56174 0.02316 0.0
O552 O 0.77521 0.57936 0.9679 0.0
O553 O 0.73803 0.57609 0.96659 0.0
O554 O 0.70317 0.60901 0.00557 0.0
O555 O 0.71674 0.64435 0.00478 0.0
C556 C 0.78402 0.64062 0.03808 0.0
O557 O 0.76856 0.65002 0.02608 0.0
O558 O 0.79338 0.62244 0.03173 0.0
O559 O 0.72907 0.71242 0.96557 0.0
O560 O 0.76664 0.71504 0.96636 0.0
O561 O 0.72957 0.69871 0.01794 0.0
C562 C 0.74735 0.72212 0.95997 0.0
O563 O 0.76615 0.70486 0.02222 0.0
O564 O 0.80418 0.66834 0.98497 0.0
C565 C 0.74626 0.70745 0.02876 0.0
O566 O 0.78863 0.63426 0.9803 0.0
O567 O 0.73658 0.62917 0.95793 0.0
O568 O 0.71335 0.65844 0.95377 0.0
C569 C 0.2669 0.05736 0.52784 0.0
C570 C 0.25716 0.07191 0.45764 0.0
C571 C 0.30595 0.14745 0.47793 0.0
Mg572 Mg 0.23343 0.08714 0.50019 0.0
O573 O 0.25544 0.10873 0.50513 0.0
Mg574 Mg 0.28701 0.10102 0.49822 0.0
Mg575 Mg 0.25337 0.13907 0.49118 0.0
O576 O 0.25205 0.16965 0.47828 0.0
Mg577 Mg 0.27471 0.18968 0.48757 0.0
Mg578 Mg 0.22054 0.17802 0.48433 0.0
C579 C 0.20153 0.12965 0.50697 0.0
C580 C 0.22122 0.13863 0.44591 0.0
O581 O 0.2827 0.06936 0.52012 0.0
O582 O 0.24631 0.06159 0.52321 0.0
O583 O 0.27564 0.07912 0.46663 0.0
O584 O 0.23853 0.07542 0.46669 0.0
O585 O 0.20455 0.10832 0.50616 0.0
O586 O 0.21758 0.14381 0.50416 0.0
C587 C 0.28617 0.14133 0.53573 0.0
O588 O 0.27014 0.15041 0.52423 0.0
O589 O 0.29536 0.12308 0.52935 0.0
O590 O 0.2282 0.21164 0.46381 0.0
O591 O 0.2657 0.21464 0.46358 0.0
O592 O 0.22979 0.19846 0.51624 0.0
C593 C 0.24621 0.22151 0.45768 0.0
O594 O 0.26633 0.2053 0.51955 0.0
O595 O 0.30401 0.16862 0.48172 0.0
C596 C 0.24655 0.20765 0.52653 0.0
O597 O 0.28894 0.13421 0.47819 0.0
O598 O 0.23653 0.12813 0.45728 0.0
O599 O 0.21306 0.15716 0.4528 0.0
C600 C 0.45474 0.53279 0.74041 0.0
C601 C 0.43763 0.46455 0.75066 0.0
C602 C 0.36285 0.48552 0.69812 0.0
Mg603 Mg 0.42368 0.50855 0.77327 0.0
O604 O 0.40253 0.51322 0.75003 0.0
Mg605 Mg 0.41014 0.50387 0.71858 0.0
Mg606 Mg 0.37207 0.49988 0.75125 0.0
O607 O 0.34147 0.48732 0.75218 0.0
Mg608 Mg 0.32068 0.49481 0.72915 0.0
Mg609 Mg 0.33377 0.49375 0.78433 0.0
C610 C 0.3815 0.5166 0.80399 0.0
C611 C 0.3734 0.4567 0.78468 0.0
O612 O 0.44278 0.52449 0.72392 0.0
O613 O 0.44989 0.53 0.7612 0.0
O614 O 0.43069 0.47241 0.73144 0.0
O615 O 0.43455 0.47488 0.7692 0.0
O616 O 0.40268 0.51545 0.8018 0.0
O617 O 0.36743 0.51413 0.78716 0.0
C618 C 0.37116 0.54222 0.71695 0.0
O619 O 0.36143 0.53212 0.73306 0.0
O620 O 0.3893 0.53484 0.70882 0.0
O621 O 0.3011 0.47192 0.7764 0.0
O622 O 0.29755 0.46973 0.73822 0.0
O623 O 0.31212 0.52421 0.77533 0.0
C624 C 0.29131 0.46446 0.75801 0.0
O625 O 0.30328 0.52556 0.73833 0.0
O626 O 0.34185 0.48939 0.69971 0.0
C627 C 0.30148 0.53307 0.75853 0.0
O628 O 0.37617 0.48536 0.71573 0.0
O629 O 0.38319 0.46707 0.76884 0.0
O630 O 0.35512 0.46362 0.79262 0.0
C631 C 0.76732 0.45234 0.48726 0.0
C632 C 0.72266 0.43299 0.53669 0.0
C633 C 0.70308 0.36156 0.48402 0.0
Mg634 Mg 0.76978 0.41818 0.52706 0.0
O635 O 0.75968 0.39908 0.50386 0.0
Mg636 Mg 0.73212 0.40809 0.48609 0.0
Mg637 Mg 0.75162 0.36768 0.51165 0.0
O638 O 0.74361 0.33651 0.51904 0.0
Mg639 Mg 0.73175 0.31781 0.49624 0.0
Mg640 Mg 0.77102 0.32699 0.53663 0.0
C641 C 0.79957 0.37496 0.53929 0.0
C642 C 0.74422 0.36379 0.56584 0.0
O643 O 0.75105 0.441 0.47817 0.0
O644 O 0.77745 0.44631 0.50574 0.0
O645 O 0.71736 0.42725 0.51628 0.0
O646 O 0.74159 0.42807 0.54579 0.0
O647 O 0.79541 0.39599 0.54143 0.0
O648 O 0.78687 0.36176 0.52716 0.0
C649 C 0.75906 0.37062 0.45747 0.0
O650 O 0.7622 0.35913 0.47562 0.0
O651 O 0.74839 0.38918 0.45734 0.0
O652 O 0.75127 0.29343 0.54405 0.0
O653 O 0.7221 0.29222 0.51883 0.0
O654 O 0.78529 0.30823 0.50647 0.0
C655 C 0.73311 0.28436 0.53597 0.0
O656 O 0.75923 0.30262 0.47903 0.0
O657 O 0.70616 0.34037 0.48141 0.0
C658 C 0.779 0.29982 0.48732 0.0
O659 O 0.71682 0.37373 0.49594 0.0
O660 O 0.74031 0.37558 0.54798 0.0
O661 O 0.75549 0.34564 0.56537 0.0
C662 C 0.55663 0.03074 0.75737 0.0
C663 C 0.57638 0.96307 0.75387 0.0
C664 C 0.64975 0.98933 0.80426 0.0
Mg665 Mg 0.58957 0.00492 0.72767 0.0
O666 O 0.6099 0.01342 0.7506 0.0
Mg667 Mg 0.60209 0.00618 0.78252 0.0
Mg668 Mg 0.64084 1.00127 0.7505 0.0
O669 O 0.67174 0.98971 0.75043 0.0
Mg670 Mg 0.69234 0.99755 0.77349 0.0
Mg671 Mg 0.67962 0.99531 0.71818 0.0
C672 C 0.63173 0.01331 0.69713 0.0
C673 C 0.6417 0.95635 0.7185 0.0
O674 O 0.56864 0.02528 0.775 0.0
O675 O 0.56207 0.02555 0.73722 0.0
O676 O 0.58281 0.97323 0.77217 0.0
O677 O 0.5798 0.97134 0.73443 0.0
O678 O 0.61067 0.0104 0.69903 0.0
O679 O 0.64553 0.01394 0.7143 0.0
C680 C 0.64001 0.04587 0.78265 0.0
O681 O 0.65038 0.03518 0.76734 0.0
O682 O 0.62184 0.03835 0.79065 0.0
O683 O 0.71232 0.97478 0.72639 0.0
O684 O 0.71577 0.97267 0.76453 0.0
O685 O 0.70048 0.02674 0.72696 0.0
C686 C 0.7221 0.9675 0.7447 0.0
O687 O 0.70906 0.02849 0.76405 0.0
O688 O 0.67083 0.99288 0.80276 0.0
C689 C 0.71094 0.03587 0.74387 0.0
O690 O 0.63655 0.98871 0.78658 0.0
O691 O 0.63126 0.96662 0.73405 0.0
O692 O 0.65954 0.96419 0.7104 0.0
C693 C 0.48634 0.24926 0.05215 0.0
C694 C 0.5526 0.25352 0.0766 0.0
C695 C 0.52565 0.20456 0.14769 0.0
Mg696 Mg 0.51095 0.27955 0.0876 0.0
O697 O 0.50117 0.25727 0.10687 0.0
Mg698 Mg 0.50892 0.22546 0.09902 0.0
Mg699 Mg 0.51197 0.25803 0.13907 0.0
O700 O 0.52256 0.25852 0.1711 0.0
Mg701 Mg 0.51366 0.23536 0.18991 0.0
Mg702 Mg 0.51549 0.29024 0.1796 0.0
C703 C 0.4996 0.3111 0.12951 0.0
C704 C 0.55603 0.28998 0.14458 0.0
O705 O 0.49099 0.23223 0.06468 0.0
O706 O 0.4919 0.26935 0.05775 0.0
O707 O 0.54197 0.23558 0.08149 0.0
O708 O 0.54484 0.27287 0.08081 0.0
O709 O 0.50376 0.3085 0.10848 0.0
O710 O 0.49872 0.29437 0.14333 0.0
C711 C 0.46799 0.22582 0.13432 0.0
O712 O 0.47809 0.24134 0.14588 0.0
O713 O 0.47634 0.2174 0.1165 0.0
O714 O 0.53385 0.28248 0.21487 0.0
O715 O 0.53518 0.24475 0.21768 0.0
O716 O 0.483 0.28008 0.19642 0.0
C717 C 0.54003 0.2644 0.22519 0.0
O718 O 0.48066 0.24299 0.20099 0.0
O719 O 0.52139 0.20623 0.16882 0.0
C720 C 0.47283 0.2627 0.20349 0.0
O721 O 0.52538 0.22193 0.13474 0.0
O722 O 0.54609 0.27463 0.13263 0.0
O723 O 0.54761 0.29817 0.16241 0.0
H724 H 0.04796 0.3455 0.59279 0.0
H725 H 0.04674 0.31058 0.61439 0.0
H726 H 0.07389 0.34502 0.67348 0.0
H727 H 0.0752 0.38002 0.65214 0.0
H728 H 0.09407 0.29953 0.66001 0.0
H729 H 1.00185 0.30119 0.66797 0.0
H730 H 0.01363 0.30566 0.64073 0.0
H731 H 0.01731 0.32649 0.66248 0.0
C732 C 0.05365 0.34568 0.6104 0.0
C733 C 0.06148 0.36562 0.62082 0.0
C734 C 0.05298 0.3257 0.62265 0.0
C735 C 0.06022 0.32532 0.64545 0.0
C736 C 0.0683 0.34505 0.65583 0.0
H737 H 0.07005 0.2729 0.76935 0.0
H738 H 0.08003 0.28265 0.73118 0.0
C739 C 0.06888 0.36505 0.64366 0.0
C740 C 0.05861 0.3047 0.65905 0.0
H741 H 0.022 0.27601 0.6908 0.0
C742 C 0.07828 0.29398 0.66641 0.0
C743 C 0.03797 0.29724 0.66691 0.0
C744 C 0.01639 0.30816 0.65924 0.0
C745 C 0.07798 0.277 0.68278 0.0
C746 C 0.05756 0.27115 0.69243 0.0
C747 C 0.03769 0.28048 0.68349 0.0
C748 C 0.05668 0.25959 0.71457 0.0
C749 C 0.09965 0.26621 0.69025 0.0
C750 C 0.04084 0.24266 0.71816 0.0
C751 C 0.0351 0.23705 0.74021 0.0
C752 C 0.04498 0.24854 0.75879 0.0
C753 C 0.06238 0.26369 0.75525 0.0
C754 C 0.06819 0.26918 0.73335 0.0
H755 H 0.11073 0.26444 0.67572 0.0
H756 H 0.10839 0.27712 0.70301 0.0
H757 H 0.09699 0.24944 0.69781 0.0
H758 H 0.03162 0.23518 0.70393 0.0
H759 H 0.02136 0.22558 0.74255 0.0
H760 H 0.63136 0.74233 0.62731 0.0
H761 H 0.61252 0.75802 0.59329 0.0
H762 H 0.62063 0.69514 0.5584 0.0
H763 H 0.63924 0.67946 0.59209 0.0
H764 H 0.63312 0.7614 0.55043 0.0
H765 H 0.55546 0.71123 0.54382 0.0
H766 H 0.57197 0.71374 0.56988 0.0
H767 H 0.57974 0.6942 0.54832 0.0
C768 C 0.62842 0.73168 0.6126 0.0
C769 C 0.63659 0.70964 0.61233 0.0
C770 C 0.6179 0.74072 0.59315 0.0
C771 C 0.6151 0.72769 0.5734 0.0
C772 C 0.62233 0.70538 0.57355 0.0
H773 H 0.57668 0.73013 0.43479 0.0
H774 H 0.59776 0.72591 0.47063 0.0
C775 C 0.63296 0.69644 0.5928 0.0
C776 C 0.60622 0.73751 0.55196 0.0
H777 H 0.56719 0.72846 0.50957 0.0
C778 C 0.61847 0.75453 0.54162 0.0
C779 C 0.58713 0.7285 0.54056 0.0
C780 C 0.57268 0.71106 0.55131 0.0
C781 C 0.61271 0.76192 0.51959 0.0
C782 C 0.59432 0.75202 0.50782 0.0
C783 C 0.58155 0.73572 0.51856 0.0
C784 C 0.5878 0.75787 0.48421 0.0
C785 C 0.6267 0.77956 0.50864 0.0
C786 C 0.5765 0.77792 0.47947 0.0
C787 C 0.56449 0.78045 0.4589 0.0
C788 C 0.56338 0.76276 0.44306 0.0
C789 C 0.57702 0.74394 0.44676 0.0
C790 C 0.58902 0.74146 0.46726 0.0
H791 H 0.64179 0.78396 0.51917 0.0
H792 H 0.63188 0.77362 0.4918 0.0
H793 H 0.61666 0.79494 0.50589 0.0
H794 H 0.57528 0.79071 0.49242 0.0
H795 H 0.55415 0.79515 0.4566 0.0
H796 H 0.92718 0.1252 0.6523 0.0
H797 H 0.92218 0.15661 0.67751 0.0
H798 H 0.94317 0.20223 0.62593 0.0
H799 H 0.94852 0.17033 0.60009 0.0
H800 H 0.96429 0.20925 0.668 0.0
H801 H 0.87384 0.20366 0.67881 0.0
H802 H 0.88633 0.17664 0.6825 0.0
H803 H 0.88728 0.19041 0.65543 0.0
C804 C 0.93072 0.14185 0.64607 0.0
C805 C 0.93837 0.14518 0.62409 0.0
C806 C 0.92752 0.15988 0.66052 0.0
C807 C 0.93168 0.18182 0.65343 0.0
C808 C 0.9395 0.18541 0.63158 0.0
H809 H 0.95138 0.28046 0.76257 0.0
H810 H 0.93706 0.26959 0.72488 0.0
C811 C 0.94265 0.1672 0.61691 0.0
C812 C 0.92972 0.20033 0.67004 0.0
H813 H 0.89588 0.21787 0.71171 0.0
C814 C 0.94916 0.21184 0.67709 0.0
C815 C 0.90991 0.20374 0.68181 0.0
C816 C 0.88812 0.19311 0.67405 0.0
C817 C 0.9499 0.22478 0.697 0.0
C818 C 0.93059 0.2264 0.70995 0.0
C819 C 0.91066 0.21651 0.70182 0.0
C820 C 0.93206 0.23482 0.73355 0.0
C821 C 0.97185 0.23499 0.70507 0.0
C822 C 0.93206 0.21928 0.75131 0.0
C823 C 0.94019 0.22539 0.77291 0.0
C824 C 0.94854 0.24714 0.77699 0.0
C825 C 0.94537 0.26347 0.75999 0.0
C826 C 0.93733 0.25729 0.73833 0.0
H827 H 0.9857 0.23043 0.69402 0.0
H828 H 0.97042 0.25353 0.70529 0.0
H829 H 0.9762 0.22945 0.7226 0.0
H830 H 0.92781 0.20188 0.74799 0.0
H831 H 0.94207 0.21248 0.78568 0.0
H832 H 0.3956 0.76787 0.65104 0.0
H833 H 0.4175 0.75805 0.61813 0.0
H834 H 0.40946 0.82527 0.59251 0.0
H835 H 0.38733 0.83494 0.6249 0.0
H836 H 0.39333 0.79182 0.56309 0.0
H837 H 0.4797 0.77337 0.59461 0.0
H838 H 0.45759 0.75975 0.60908 0.0
H839 H 0.46057 0.78965 0.61081 0.0
C840 C 0.39921 0.7807 0.63875 0.0
C841 C 0.38975 0.80211 0.64036 0.0
C842 C 0.41169 0.77509 0.61998 0.0
C843 C 0.41507 0.79095 0.6029 0.0
C844 C 0.40699 0.81278 0.60547 0.0
H845 H 0.46207 0.80126 0.46817 0.0
H846 H 0.44665 0.80651 0.50547 0.0
C847 C 0.3944 0.8183 0.62398 0.0
C848 C 0.42429 0.78438 0.58098 0.0
H849 H 0.47141 0.76715 0.5556 0.0
C850 C 0.41041 0.7864 0.56146 0.0
C851 C 0.44646 0.77706 0.57899 0.0
C852 C 0.46208 0.77493 0.59942 0.0
C853 C 0.4182 0.78172 0.53992 0.0
C854 C 0.44055 0.77511 0.53782 0.0
C855 C 0.4543 0.77237 0.55735 0.0
C856 C 0.45007 0.77177 0.51534 0.0
C857 C 0.40244 0.78389 0.51957 0.0
C858 C 0.45729 0.75053 0.50869 0.0
C859 C 0.46608 0.74743 0.48733 0.0
C860 C 0.46798 0.76559 0.47234 0.0
C861 C 0.46076 0.78688 0.47918 0.0
C862 C 0.45192 0.78992 0.50049 0.0
H863 H 0.38476 0.78351 0.52443 0.0
H864 H 0.40551 0.80013 0.5111 0.0
H865 H 0.40512 0.77025 0.50714 0.0
H866 H 0.45601 0.73635 0.51997 0.0
H867 H 0.4716 0.73084 0.48271 0.0
H868 H 0.0883 0.63598 0.85997 0.0
H869 H 0.08777 0.67121 0.8392 0.0
H870 H 0.05235 0.70279 0.89277 0.0
H871 H 0.05287 0.66741 0.9139 0.0
H872 H 0.03282 0.70793 0.84841 0.0
H873 H 0.12199 0.73078 0.85037 0.0
H874 H 0.11738 0.70187 0.84302 0.0
H875 H 0.11023 0.71183 0.87061 0.0
C876 C 0.08052 0.65042 0.86747 0.0
C877 C 0.07053 0.64884 0.88856 0.0
C878 C 0.08045 0.67063 0.85568 0.0
C879 C 0.07039 0.68971 0.86464 0.0
C880 C 0.06047 0.68831 0.88572 0.0
H881 H 0.03219 0.78888 0.7607 0.0
H882 H 0.042 0.77984 0.80041 0.0
C883 C 0.06073 0.66808 0.89771 0.0
C884 C 0.06851 0.71024 0.85068 0.0
H885 H 0.09976 0.74433 0.8181 0.0
C886 C 0.04735 0.71647 0.84223 0.0
C887 C 0.08752 0.72144 0.84291 0.0
C888 C 0.11056 0.7163 0.85239 0.0
C889 C 0.04481 0.73181 0.82435 0.0
C890 C 0.06404 0.74148 0.81506 0.0
C891 C 0.08505 0.7369 0.82515 0.0
C892 C 0.06305 0.7518 0.79221 0.0
C893 C 0.02174 0.7358 0.81419 0.0
C894 C 0.0732 0.74038 0.77458 0.0
C895 C 0.0679 0.74569 0.75211 0.0
C896 C 0.05241 0.76258 0.74682 0.0
C897 C 0.04427 0.77583 0.76437 0.0
C898 C 0.04962 0.77048 0.78703 0.0
H899 H 0.00899 0.72497 0.82187 0.0
H900 H 0.017 0.75353 0.81694 0.0
H901 H 0.02136 0.73258 0.79565 0.0
H902 H 0.08374 0.72602 0.77811 0.0
H903 H 0.07447 0.7353 0.73886 0.0
H904 H 0.87231 0.67923 0.39587 0.0
H905 H 0.90072 0.69191 0.4237 0.0
H906 H 0.92521 0.73948 0.37571 0.0
H907 H 0.89687 0.72683 0.34755 0.0
H908 H 0.95349 0.69951 0.41663 0.0
H909 H 0.90005 0.77275 0.43661 0.0
H910 H 0.88777 0.74733 0.42503 0.0
H911 H 0.90443 0.76472 0.40764 0.0
C912 C 0.88394 0.69215 0.39109 0.0
C913 C 0.88226 0.7022 0.36964 0.0
C914 C 0.90017 0.69928 0.40695 0.0
C915 C 0.91483 0.71662 0.40163 0.0
C916 C 0.91395 0.72604 0.37995 0.0
H917 H 0.98549 0.78259 0.51622 0.0
H918 H 0.97128 0.77622 0.47737 0.0
C919 C 0.8978 0.71877 0.36395 0.0
C920 C 0.92955 0.72596 0.41966 0.0
H921 H 0.92947 0.76437 0.46242 0.0
C922 C 0.94861 0.71398 0.42642 0.0
C923 C 0.9231 0.74495 0.43209 0.0
C924 C 0.90273 0.75831 0.42511 0.0
C925 C 0.96081 0.71984 0.44622 0.0
C926 C 0.95324 0.73766 0.45974 0.0
C927 C 0.93508 0.7506 0.45208 0.0
C928 C 0.96233 0.74156 0.48294 0.0
C929 C 0.98131 0.70651 0.45278 0.0
C930 C 0.96134 0.72436 0.49898 0.0
C931 C 0.96937 0.7279 0.52111 0.0
C932 C 0.97829 0.74884 0.52767 0.0
C933 C 0.97866 0.76628 0.51171 0.0
C934 C 0.97071 0.76266 0.48949 0.0
H935 H 0.98912 0.6994 0.4376 0.0
H936 H 0.99382 0.71698 0.46229 0.0
H937 H 0.97653 0.69231 0.46369 0.0
H938 H 0.95423 0.70819 0.49441 0.0
H939 H 0.96865 0.71418 0.53302 0.0
H940 H 0.94205 0.84417 0.89783 0.0
H941 H 0.9392 0.8134 0.87 0.0
H942 H 0.93366 0.86155 0.81584 0.0
H943 H 0.93621 0.89203 0.84309 0.0
H944 H 0.90185 0.82658 0.81218 0.0
H945 H 0.98822 0.79451 0.82671 0.0
H946 H 0.97086 0.79676 0.85076 0.0
H947 H 0.97996 0.82168 0.83688 0.0
C948 C 0.94036 0.84815 0.87997 0.0
C949 C 0.93954 0.87061 0.87275 0.0
C950 C 0.93873 0.83057 0.86411 0.0
C951 C 0.9363 0.83521 0.84083 0.0
C952 C 0.93543 0.85756 0.8337 0.0
H953 H 0.94788 0.79939 0.70823 0.0
H954 H 0.93227 0.81185 0.74351 0.0
C955 C 0.93704 0.87501 0.84939 0.0
C956 C 0.93503 0.81721 0.8234 0.0
H957 H 0.9677 0.7805 0.79543 0.0
C958 C 0.91607 0.81613 0.80877 0.0
C959 C 0.95349 0.80345 0.81907 0.0
C960 C 0.97438 0.8041 0.83404 0.0
C961 C 0.91563 0.80272 0.78917 0.0
C962 C 0.93474 0.7903 0.78391 0.0
C963 C 0.95303 0.79004 0.79945 0.0
C964 C 0.93773 0.78045 0.76108 0.0
C965 C 0.89498 0.80261 0.77388 0.0
C966 C 0.945 0.75825 0.75873 0.0
C967 C 0.95393 0.75102 0.7384 0.0
C968 C 0.95614 0.76606 0.72029 0.0
C969 C 0.94649 0.78741 0.72187 0.0
C970 C 0.93747 0.79457 0.7421 0.0
H971 H 0.87984 0.80537 0.78375 0.0
H972 H 0.89606 0.81649 0.76151 0.0
H973 H 0.89311 0.78657 0.7644 0.0
H974 H 0.94537 0.74707 0.77314 0.0
H975 H 0.96123 0.73448 0.73783 0.0
H976 H 0.15595 0.82911 0.41175 0.0
H977 H 0.14174 0.81512 0.4472 0.0
H978 H 0.10948 0.7602 0.41131 0.0
H979 H 0.12334 0.77443 0.37547 0.0
H980 H 0.08328 0.77794 0.44351 0.0
H981 H 0.16722 0.76208 0.48147 0.0
H982 H 0.16396 0.79057 0.4724 0.0
H983 H 0.16259 0.76825 0.45179 0.0
C984 C 0.14567 0.81414 0.41132 0.0
C985 C 0.14093 0.80279 0.39078 0.0
C986 C 0.13775 0.80603 0.43167 0.0
C987 C 0.12516 0.78619 0.43207 0.0
C988 C 0.11943 0.77538 0.41146 0.0
H989 H 0.06211 0.72054 0.54604 0.0
H990 H 0.08214 0.72505 0.51103 0.0
C991 C 0.12724 0.78361 0.39097 0.0
C992 C 0.11792 0.77699 0.45403 0.0
H993 H 0.13715 0.76214 0.50712 0.0
C994 C 0.09507 0.77416 0.45729 0.0
C995 C 0.13332 0.77192 0.47203 0.0
C996 C 0.15814 0.77313 0.4692 0.0
C997 C 0.08718 0.76743 0.47834 0.0
C998 C 0.10256 0.76319 0.49654 0.0
C999 C 0.12541 0.76542 0.49314 0.0
C1000 C 0.09492 0.75806 0.51958 0.0
C1001 C 0.06238 0.76575 0.48124 0.0
C1002 C 0.09683 0.77442 0.53665 0.0
C1003 C 0.08549 0.77187 0.55674 0.0
C1004 C 0.07207 0.75286 0.56012 0.0
C1005 C 0.07229 0.73537 0.54406 0.0
C1006 C 0.08353 0.73802 0.52389 0.0
H1007 H 0.05271 0.77288 0.4666 0.0
H1008 H 0.05759 0.74787 0.48295 0.0
H1009 H 0.05763 0.77463 0.49688 0.0
H1010 H 0.10573 0.78992 0.53374 0.0
H1011 H 0.08578 0.7856 0.56881 0.0
H1012 H 0.6575 0.08151 0.39266 0.0
H1013 H 0.68665 0.07887 0.36534 0.0
H1014 H 0.63766 0.06334 0.31246 0.0
H1015 H 0.60798 0.06606 0.33994 0.0
H1016 H 0.69618 0.04014 0.34017 0.0
H1017 H 0.67694 0.11258 0.28377 0.0
H1018 H 0.66602 0.11027 0.31176 0.0
H1019 H 0.65452 0.09341 0.28899 0.0
C1020 C 0.65272 0.07766 0.37522 0.0
C1021 C 0.63024 0.07387 0.36863 0.0
C1022 C 0.66952 0.0762 0.35956 0.0
C1023 C 0.66444 0.07106 0.33677 0.0
C1024 C 0.64201 0.06766 0.32988 0.0
H1025 H 0.76079 0.03687 0.23396 0.0
H1026 H 0.72607 0.04833 0.2511 0.0
C1027 C 0.62505 0.0691 0.34565 0.0
C1028 C 0.68301 0.06796 0.32094 0.0
H1029 H 0.70812 0.09054 0.27504 0.0
C1030 C 0.69868 0.05111 0.32588 0.0
C1031 C 0.68628 0.08217 0.30217 0.0
C1032 C 0.67018 0.10076 0.29631 0.0
C1033 C 0.7176 0.04831 0.3129 0.0
C1034 C 0.72132 0.063 0.29464 0.0
C1035 C 0.70536 0.07944 0.28916 0.0
C1036 C 0.74212 0.06149 0.28171 0.0
C1037 C 0.73358 0.02961 0.31888 0.0
C1038 C 0.76275 0.06642 0.29254 0.0
C1039 C 0.78262 0.06001 0.28276 0.0
C1040 C 0.78231 0.04853 0.26188 0.0
C1041 C 0.76174 0.0459 0.24991 0.0
C1042 C 0.74179 0.05225 0.2598 0.0
H1043 H 0.72602 0.01693 0.33002 0.0
H1044 H 0.73915 0.02107 0.30335 0.0
H1045 H 0.7485 0.0367 0.32796 0.0
H1046 H 0.76342 0.07375 0.30936 0.0
H1047 H 0.79811 0.06228 0.29247 0.0
H1048 H 0.31755 0.10062 0.84464 0.0
H1049 H 0.31099 0.06974 0.87032 0.0
H1050 H 0.29267 0.11649 0.92219 0.0
H1051 H 0.29883 0.1478 0.89629 0.0
H1052 H 0.33039 0.06025 0.91238 0.0
H1053 H 0.23907 0.0736 0.91695 0.0
H1054 H 0.25559 0.08716 0.89604 0.0
H1055 H 0.25646 0.09717 0.92476 0.0
C1056 C 0.3121 0.10446 0.86148 0.0
C1057 C 0.30847 0.12672 0.86832 0.0
C1058 C 0.30844 0.08674 0.87617 0.0
C1059 C 0.30108 0.09082 0.89801 0.0
C1060 C 0.29797 0.113 0.90522 0.0
H1061 H 0.29564 0.98167 0.99641 0.0
H1062 H 0.30465 0.01673 0.97759 0.0
C1063 C 0.3016 0.13085 0.89045 0.0
C1064 C 0.29645 0.07157 0.91285 0.0
H1065 H 0.25431 0.04316 0.93739 0.0
C1066 C 0.31381 0.05658 0.91805 0.0
C1067 C 0.27473 0.06677 0.91992 0.0
C1068 C 0.25531 0.08188 0.91404 0.0
C1069 C 0.30995 0.03661 0.92975 0.0
C1070 C 0.28822 0.03178 0.93678 0.0
C1071 C 0.27095 0.04699 0.93199 0.0
C1072 C 0.28283 0.01056 0.94827 0.0
C1073 C 0.32896 0.02047 0.93367 0.0
C1074 C 0.26726 0.99567 0.9382 0.0
C1075 C 0.26192 0.97566 0.94897 0.0
C1076 C 0.27205 0.9702 0.97006 0.0
C1077 C 0.28767 0.98521 0.98008 0.0
C1078 C 0.29291 0.00525 0.96934 0.0
H1079 H 0.34305 0.02414 0.92258 0.0
H1080 H 0.33522 0.02185 0.95153 0.0
H1081 H 0.3234 0.00291 0.9306 0.0
H1082 H 0.25928 0.99951 0.92194 0.0
H1083 H 0.24979 0.96454 0.94079 0.0
H1084 H 0.41187 0.45288 0.33753 0.0
H1085 H 0.38906 0.45153 0.30226 0.0
H1086 H 0.33319 0.42768 0.33917 0.0
H1087 H 0.35569 0.42893 0.37442 0.0
H1088 H 0.34411 0.40366 0.29511 0.0
H1089 H 0.33544 0.49661 0.28957 0.0
H1090 H 0.3626 0.48446 0.29434 0.0
H1091 H 0.34268 0.48316 0.31615 0.0
C1092 C 0.39471 0.44739 0.33815 0.0
C1093 C 0.38552 0.44125 0.35884 0.0
C1094 C 0.38177 0.44657 0.31798 0.0
C1095 C 0.35952 0.4395 0.3182 0.0
C1096 C 0.3504 0.43309 0.33871 0.0
H1097 H 0.23475 0.42891 0.27074 0.0
H1098 H 0.27299 0.41823 0.2795 0.0
C1099 C 0.36324 0.434 0.35886 0.0
C1100 C 0.34508 0.43969 0.29742 0.0
H1101 H 0.31144 0.4748 0.26661 0.0
C1102 C 0.3373 0.4192 0.28842 0.0
C1103 C 0.33662 0.45997 0.28847 0.0
C1104 C 0.34463 0.48239 0.29754 0.0
C1105 C 0.31998 0.41847 0.27184 0.0
C1106 C 0.30985 0.43872 0.26463 0.0
C1107 C 0.31913 0.45923 0.27211 0.0
C1108 C 0.28718 0.43922 0.2538 0.0
C1109 C 0.31204 0.39598 0.26301 0.0
C1110 C 0.28213 0.45382 0.23569 0.0
C1111 C 0.26004 0.46001 0.23069 0.0
C1112 C 0.24288 0.45185 0.24395 0.0
C1113 C 0.24772 0.43535 0.26024 0.0
C1114 C 0.26966 0.42912 0.26515 0.0
H1115 H 0.32628 0.38431 0.26157 0.0
H1116 H 0.3005 0.3885 0.27516 0.0
H1117 H 0.30328 0.39739 0.2462 0.0
H1118 H 0.29538 0.46193 0.2268 0.0
H1119 H 0.25673 0.47297 0.21822 0.0
H1120 H 0.67613 0.4047 0.86015 0.0
H1121 H 0.69096 0.4396 0.87634 0.0
H1122 H 0.74851 0.40444 0.90331 0.0
H1123 H 0.73371 0.36917 0.88702 0.0
H1124 H 0.70438 0.44993 0.92304 0.0
H1125 H 0.77366 0.45647 0.86328 0.0
H1126 H 0.74979 0.43852 0.85772 0.0
H1127 H 0.77073 0.43062 0.87856 0.0
C1128 C 0.69183 0.40429 0.86975 0.0
C1129 C 0.70378 0.38418 0.87224 0.0
C1130 C 0.7003 0.42427 0.87895 0.0
C1131 C 0.721 0.42466 0.89065 0.0
C1132 C 0.73265 0.40451 0.89401 0.0
H1133 H 0.78871 0.54053 0.95238 0.0
H1134 H 0.78225 0.5043 0.9336 0.0
C1135 C 0.72406 0.38436 0.88493 0.0
C1136 C 0.73017 0.44639 0.89903 0.0
H1137 H 0.76951 0.48639 0.88896 0.0
C1138 C 0.7187 0.45784 0.91571 0.0
C1139 C 0.74889 0.45661 0.88943 0.0
C1140 C 0.76151 0.44508 0.87115 0.0
C1141 C 0.72528 0.47937 0.92291 0.0
C1142 C 0.74347 0.49 0.91272 0.0
C1143 C 0.75541 0.4783 0.89651 0.0
C1144 C 0.75004 0.5133 0.91893 0.0
C1145 C 0.71269 0.49052 0.94148 0.0
C1146 C 0.73486 0.53086 0.91542 0.0
C1147 C 0.73848 0.55154 0.92612 0.0
C1148 C 0.75747 0.55505 0.94032 0.0
C1149 C 0.77398 0.53839 0.94145 0.0
C1150 C 0.77023 0.51758 0.93088 0.0
H1151 H 0.7032 0.47816 0.95138 0.0
H1152 H 0.72417 0.49988 0.95329 0.0
H1153 H 0.70063 0.5026 0.93383 0.0
H1154 H 0.7194 0.52803 0.90581 0.0
H1155 H 0.72554 0.56411 0.92482 0.0
H1156 H 0.59817 0.95314 0.16319 0.0
H1157 H 0.62288 0.954 0.19725 0.0
H1158 H 0.67485 0.92312 0.15983 0.0
H1159 H 0.65048 0.92219 0.12587 0.0
H1160 H 0.66651 0.90471 0.20625 0.0
H1161 H 0.67885 0.99733 0.20267 0.0
H1162 H 0.65094 0.9862 0.2011 0.0
H1163 H 0.66906 0.98152 0.17814 0.0
C1164 C 0.61483 0.94647 0.16224 0.0
C1165 C 0.62241 0.93781 0.14171 0.0
C1166 C 0.6289 0.94698 0.18171 0.0
C1167 C 0.6507 0.93871 0.181 0.0
C1168 C 0.65808 0.92956 0.16073 0.0
H1169 H 0.77774 0.92844 0.23375 0.0
H1170 H 0.73959 0.91898 0.22236 0.0
C1171 C 0.64414 0.92918 0.14129 0.0
C1172 C 0.66644 0.94038 0.20087 0.0
H1173 H 0.70191 0.97725 0.22791 0.0
C1174 C 0.67398 0.9206 0.21136 0.0
C1175 C 0.67593 0.96114 0.2077 0.0
C1176 C 0.66845 0.98284 0.19686 0.0
C1177 C 0.69161 0.92094 0.22767 0.0
C1178 C 0.70236 0.94151 0.23316 0.0
C1179 C 0.69372 0.96145 0.2238 0.0
C1180 C 0.72458 0.94256 0.24514 0.0
C1181 C 0.6989 0.89914 0.23838 0.0
C1182 C 0.72908 0.95837 0.26248 0.0
C1183 C 0.75112 0.96378 0.26908 0.0
C1184 C 0.76889 0.95363 0.25821 0.0
C1185 C 0.76433 0.93627 0.24261 0.0
C1186 C 0.74242 0.93082 0.2361 0.0
H1187 H 0.68445 0.88772 0.24028 0.0
H1188 H 0.71069 0.89063 0.2272 0.0
H1189 H 0.70723 0.90183 0.25527 0.0
H1190 H 0.71562 0.96775 0.26962 0.0
H1191 H 0.75417 0.97755 0.28081 0.0
H1192 H 0.16876 0.10936 0.13572 0.0
H1193 H 0.16968 0.0746 0.11457 0.0
H1194 H 0.21748 0.10329 0.07014 0.0
H1195 H 0.2173 0.13845 0.09216 0.0
H1196 H 0.16095 0.06118 0.07255 0.0
H1197 H 0.25099 0.04959 0.09438 0.0
H1198 H 0.23494 0.07171 0.10657 0.0
H1199 H 0.24431 0.07418 0.07812 0.0
C1200 C 0.17947 0.10845 0.12138 0.0
C1201 C 0.19339 0.12653 0.11595 0.0
C1202 C 0.17983 0.08851 0.10917 0.0
C1203 C 0.19401 0.08606 0.09107 0.0
C1204 C 0.20682 0.1046 0.08444 0.0
H1205 H 0.19383 0.96103 0.01347 0.0
H1206 H 0.1842 0.99822 0.02684 0.0
C1207 C 0.20656 0.12474 0.09687 0.0
C1208 C 0.19613 0.06349 0.08063 0.0
H1209 H 0.23265 0.02042 0.07461 0.0
C1210 C 0.17666 0.0523 0.07282 0.0
C1211 C 0.21656 0.05175 0.0814 0.0
C1212 C 0.23788 0.06228 0.09073 0.0
C1213 C 0.17694 0.0296 0.06636 0.0
C1214 C 0.19739 0.01792 0.06707 0.0
C1215 C 0.21693 0.0293 0.07424 0.0
C1216 C 0.19923 0.99395 0.0604 0.0
C1217 C 0.1552 0.0182 0.05977 0.0
C1218 C 0.2103 0.97875 0.07499 0.0
C1219 C 0.21616 0.95748 0.06726 0.0
C1220 C 0.21096 0.95096 0.04479 0.0
C1221 C 0.19795 0.96537 0.03094 0.0
C1222 C 0.19241 0.98677 0.03858 0.0
H1223 H 0.14083 0.02703 0.06698 0.0
H1224 H 0.15285 0.01839 0.04105 0.0
H1225 H 0.155 1.00051 0.06552 0.0
H1226 H 0.21558 0.98383 0.09199 0.0
H1227 H 0.22614 0.94679 0.07836 0.0
H1228 H 0.40425 0.5606 0.16156 0.0
H1229 H 0.37467 0.55761 0.18927 0.0
H1230 H 0.32656 0.58078 0.13887 0.0
H1231 H 0.35548 0.58368 0.11139 0.0
H1232 H 0.34114 0.59152 0.20457 0.0
H1233 H 0.30319 0.5184 0.15943 0.0
H1234 H 0.33149 0.52737 0.15534 0.0
H1235 H 0.30867 0.54173 0.1413 0.0
C1236 C 0.38738 0.56512 0.15645 0.0
C1237 C 0.38227 0.57202 0.13408 0.0
C1238 C 0.37052 0.56348 0.17231 0.0
C1239 C 0.34834 0.56869 0.16603 0.0
C1240 C 0.34346 0.57634 0.14402 0.0
H1241 H 0.21495 0.56057 0.20913 0.0
H1242 H 0.24975 0.57231 0.19262 0.0
C1243 C 0.36012 0.57794 0.12828 0.0
C1244 C 0.3298 0.56535 0.18173 0.0
H1245 H 0.28068 0.53694 0.18591 0.0
C1246 C 0.32804 0.5794 0.20074 0.0
C1247 C 0.31273 0.54949 0.17674 0.0
C1248 C 0.31414 0.53322 0.15722 0.0
C1249 C 0.30913 0.57863 0.21423 0.0
C1250 C 0.29168 0.5634 0.20857 0.0
C1251 C 0.29389 0.54887 0.19005 0.0
C1252 C 0.27072 0.56204 0.22123 0.0
C1253 C 0.30754 0.5946 0.23391 0.0
C1254 C 0.27075 0.55359 0.2434 0.0
C1255 C 0.25072 0.54705 0.25303 0.0
C1256 C 0.23038 0.54854 0.2405 0.0
C1257 C 0.23027 0.55917 0.21926 0.0
C1258 C 0.25021 0.56576 0.20972 0.0
H1259 H 0.32045 0.60797 0.23364 0.0
H1260 H 0.29085 0.60251 0.23382 0.0
H1261 H 0.30979 0.58516 0.24998 0.0
H1262 H 0.28634 0.55032 0.25254 0.0
H1263 H 0.25153 0.53869 0.26929 0.0
H1264 H 0.80379 0.36214 0.11533 0.0
H1265 H 0.79326 0.39493 0.09271 0.0
H1266 H 0.82519 0.4382 0.14278 0.0
H1267 H 0.83561 0.40562 0.16567 0.0
H1268 H 0.78157 0.4509 0.13025 0.0
H1269 H 0.83244 0.43601 0.05503 0.0
H1270 H 0.81518 0.41284 0.06284 0.0
H1271 H 0.83766 0.42183 0.08164 0.0
C1272 C 0.80884 0.3786 0.12142 0.0
C1273 C 0.82052 0.38124 0.14235 0.0
C1274 C 0.80284 0.39731 0.10842 0.0
C1275 C 0.80857 0.41895 0.11602 0.0
C1276 C 0.82061 0.42162 0.13665 0.0
H1277 H 0.80527 0.54406 0.04453 0.0
H1278 H 0.8147 0.51044 0.06605 0.0
C1279 C 0.82659 0.40296 0.14966 0.0
C1280 C 0.80124 0.43892 0.10302 0.0
H1281 H 0.80668 0.46591 0.05268 0.0
C1282 C 0.78704 0.45421 0.11328 0.0
C1283 C 0.80853 0.44318 0.08096 0.0
C1284 C 0.82444 0.42773 0.06948 0.0
C1285 C 0.77991 0.47374 0.10206 0.0
C1286 C 0.78698 0.47788 0.0799 0.0
C1287 C 0.80117 0.46257 0.06963 0.0
C1288 C 0.78075 0.49853 0.06745 0.0
C1289 C 0.76537 0.49007 0.11421 0.0
C1290 C 0.75847 0.503 0.06114 0.0
C1291 C 0.75295 0.52232 0.04884 0.0
C1292 C 0.76966 0.5374 0.04253 0.0
C1293 C 0.79194 0.53286 0.04906 0.0
C1294 C 0.79741 0.51361 0.06134 0.0
H1295 H 0.76544 0.48686 0.13273 0.0
H1296 H 0.77091 0.50759 0.11142 0.0
H1297 H 0.74797 0.48841 0.10743 0.0
H1298 H 0.74541 0.49137 0.06542 0.0
H1299 H 0.73566 0.52522 0.04397 0.0
H1300 H 0.37875 0.65405 0.07392 0.0
H1301 H 0.35561 0.681 0.05273 0.0
H1302 H 0.34484 0.63266 0.99903 0.0
H1303 H 0.36773 0.60532 0.02041 0.0
H1304 H 0.36413 0.67963 0.98817 0.0
H1305 H 0.28542 0.67941 0.03456 0.0
H1306 H 0.31063 0.67966 0.05199 0.0
H1307 H 0.30406 0.65571 0.03448 0.0
C1308 C 0.37097 0.64895 0.05786 0.0
C1309 C 0.37488 0.62754 0.0489 0.0
C1310 C 0.35781 0.66437 0.04577 0.0
C1311 C 0.34853 0.65879 0.02435 0.0
C1312 C 0.35178 0.6372 0.0156 0.0
H1313 H 0.26241 0.7618 0.96527 0.0
H1314 H 0.27954 0.72484 0.96744 0.0
C1315 C 0.36468 0.62157 0.0279 0.0
C1316 C 0.33694 0.6763 0.01068 0.0
H1317 H 0.292 0.71097 0.01101 0.0
C1318 C 0.34814 0.68624 0.99281 0.0
C1319 C 0.31607 0.68477 0.01668 0.0
C1320 C 0.30318 0.67428 0.03537 0.0
C1321 C 0.33955 0.70532 0.98167 0.0
C1322 C 0.31934 0.71467 0.98867 0.0
C1323 C 0.30751 0.70384 0.00561 0.0
C1324 C 0.31134 0.73696 0.98081 0.0
C1325 C 0.35247 0.71567 0.96294 0.0
C1326 C 0.32396 0.75622 0.98628 0.0
C1327 C 0.31421 0.77745 0.98506 0.0
C1328 C 0.29161 0.77977 0.97847 0.0
C1329 C 0.27988 0.76073 0.97028 0.0
C1330 C 0.28959 0.73947 0.97174 0.0
H1331 H 0.36321 0.7031 0.95481 0.0
H1332 H 0.34115 0.72318 0.94979 0.0
H1333 H 0.36342 0.72913 0.97014 0.0
H1334 H 0.34069 0.75473 0.99356 0.0
H1335 H 0.32368 0.79173 0.99153 0.0
H1336 H 0.34362 0.41163 0.43519 0.0
H1337 H 0.31067 0.38719 0.43678 0.0
H1338 H 0.35282 0.32901 0.4357 0.0
H1339 H 0.38567 0.35306 0.43391 0.0
H1340 H 0.29957 0.34603 0.40295 0.0
H1341 H 0.31104 0.32704 0.49471 0.0
H1342 H 0.32141 0.3525 0.48228 0.0
H1343 H 0.3357 0.32652 0.47831 0.0
C1344 C 0.34588 0.39364 0.43533 0.0
C1345 C 0.36736 0.38435 0.43454 0.0
C1346 C 0.32703 0.37972 0.43614 0.0
C1347 C 0.32936 0.35633 0.43642 0.0
C1348 C 0.3507 0.34704 0.43556 0.0
H1349 H 0.26627 0.2333 0.41931 0.0
H1350 H 0.2805 0.27073 0.41173 0.0
C1351 C 0.36947 0.36085 0.43455 0.0
C1352 C 0.30974 0.34129 0.43792 0.0
H1353 H 0.28642 0.30341 0.47319 0.0
C1354 C 0.29636 0.33698 0.4184 0.0
C1355 C 0.30545 0.32971 0.45812 0.0
C1356 C 0.31901 0.3342 0.47966 0.0
C1357 C 0.2796 0.3204 0.41826 0.0
C1358 C 0.2763 0.30773 0.43809 0.0
C1359 C 0.28883 0.31308 0.45796 0.0
C1360 C 0.26235 0.28701 0.43811 0.0
C1361 C 0.26594 0.31626 0.39673 0.0
C1362 C 0.2465 0.2837 0.45473 0.0
C1363 C 0.23808 0.26219 0.45888 0.0
C1364 C 0.24567 0.24366 0.44668 0.0
C1365 C 0.25976 0.24737 0.4286 0.0
C1366 C 0.26799 0.26883 0.42432 0.0
H1367 H 0.26459 0.33172 0.38634 0.0
H1368 H 0.27424 0.30332 0.38651 0.0
H1369 H 0.24894 0.31022 0.40034 0.0
H1370 H 0.242 0.29742 0.4657 0.0
H1371 H 0.22774 0.25972 0.47332 0.0
H1372 H 0.59951 0.35535 0.83664 0.0
H1373 H 0.56488 0.37249 0.82245 0.0
H1374 H 0.59903 0.39998 0.7659 0.0
H1375 H 0.63391 0.38285 0.78001 0.0
H1376 H 0.55573 0.41933 0.81207 0.0
H1377 H 0.54532 0.36319 0.73697 0.0
H1378 H 0.56355 0.35642 0.76096 0.0
H1379 H 0.57174 0.37722 0.74102 0.0
C1380 C 0.59976 0.36524 0.8213 0.0
C1381 C 0.61951 0.36771 0.80946 0.0
C1382 C 0.57991 0.37497 0.81318 0.0
C1383 C 0.57928 0.38716 0.79291 0.0
C1384 C 0.59908 0.39033 0.7814 0.0
H1385 H 0.46997 0.45507 0.72085 0.0
H1386 H 0.50415 0.43411 0.72976 0.0
C1387 C 0.61905 0.38074 0.78963 0.0
C1388 C 0.55779 0.39648 0.78403 0.0
H1389 H 0.51786 0.39086 0.74157 0.0
C1390 C 0.54745 0.41313 0.79666 0.0
C1391 C 0.54709 0.38843 0.76384 0.0
C1392 C 0.55733 0.37022 0.74989 0.0
C1393 C 0.52674 0.42204 0.78964 0.0
C1394 C 0.51567 0.41357 0.76976 0.0
C1395 C 0.52619 0.39715 0.75691 0.0
C1396 C 0.49336 0.42203 0.76208 0.0
C1397 C 0.51715 0.44081 0.80338 0.0
C1398 C 0.47531 0.42085 0.77648 0.0
C1399 C 0.45582 0.43286 0.77146 0.0
C1400 C 0.45386 0.44594 0.75174 0.0
C1401 C 0.47089 0.44498 0.73608 0.0
C1402 C 0.49055 0.43317 0.74126 0.0
H1403 H 0.53018 0.44941 0.81409 0.0
H1404 H 0.50883 0.45345 0.79226 0.0
H1405 H 0.50463 0.43383 0.81479 0.0
H1406 H 0.47682 0.41179 0.79231 0.0
H1407 H 0.44293 0.43319 0.7838 0.0
H1408 H 0.62363 0.15476 0.44478 0.0
H1409 H 0.64999 0.17774 0.46743 0.0
H1410 H 0.67578 0.11848 0.50042 0.0
H1411 H 0.64965 0.09524 0.47764 0.0
H1412 H 0.66039 0.15786 0.52967 0.0
H1413 H 0.72131 0.17924 0.46458 0.0
H1414 H 0.69246 0.18121 0.45552 0.0
H1415 H 0.70401 0.15438 0.46285 0.0
C1416 C 0.63511 0.14657 0.45662 0.0
C1417 C 0.63459 0.12319 0.45936 0.0
C1418 C 0.65015 0.15971 0.46952 0.0
C1419 C 0.66481 0.14975 0.48551 0.0
C1420 C 0.66463 0.12641 0.48809 0.0
H1421 H 0.75881 0.24738 0.54266 0.0
H1422 H 0.74502 0.20879 0.53774 0.0
C1423 C 0.64978 0.11319 0.47496 0.0
C1424 C 0.67947 0.16406 0.50016 0.0
H1425 H 0.72132 0.20251 0.49746 0.0
C1426 C 0.67404 0.16732 0.52284 0.0
C1427 C 0.69743 0.17605 0.49129 0.0
C1428 C 0.70436 0.17249 0.46727 0.0
C1429 C 0.68512 0.18358 0.53639 0.0
C1430 C 0.70192 0.19687 0.52692 0.0
C1431 C 0.70845 0.19233 0.50477 0.0
C1432 C 0.71027 0.21786 0.53781 0.0
C1433 C 0.67821 0.18696 0.56042 0.0
C1434 C 0.69529 0.23546 0.54102 0.0
C1435 C 0.7031 0.25737 0.54384 0.0
C1436 C 0.726 0.26205 0.54352 0.0
C1437 C 0.74109 0.24416 0.54323 0.0
C1438 C 0.73324 0.22217 0.54019 0.0
H1439 H 0.67165 0.17114 0.56756 0.0
H1440 H 0.69232 0.19307 0.57147 0.0
H1441 H 0.6647 0.19957 0.56064 0.0
H1442 H 0.67751 0.23268 0.5389 0.0
H1443 H 0.69114 0.27092 0.54385 0.0
H1444 H 0.89465 0.66086 0.28288 0.0
H1445 H 0.92637 0.63728 0.27502 0.0
H1446 H 0.89159 0.5797 0.30037 0.0
H1447 H 0.85916 0.60347 0.30778 0.0
H1448 H 0.95026 0.61575 0.30803 0.0
H1449 H 0.91857 0.5553 0.24249 0.0
H1450 H 0.904 0.58079 0.24904 0.0
H1451 H 0.90274 0.55714 0.26766 0.0
C1452 C 0.89357 0.64309 0.28645 0.0
C1453 C 0.87454 0.63397 0.29607 0.0
C1454 C 0.91172 0.62964 0.28195 0.0
C1455 C 0.91142 0.60675 0.28714 0.0
C1456 C 0.89208 0.59728 0.29594 0.0
H1457 H 0.03821 0.53607 0.30333 0.0
H1458 H 1.00209 0.5529 0.30993 0.0
C1459 C 0.87361 0.61082 0.3002 0.0
C1460 C 0.93219 0.5937 0.28493 0.0
H1461 H 0.95575 0.55069 0.25614 0.0
C1462 C 0.95143 0.60144 0.29675 0.0
C1463 C 0.93371 0.57518 0.2701 0.0
C1464 C 0.91374 0.56664 0.25642 0.0
C1465 C 0.97224 0.59158 0.29378 0.0
C1466 C 0.97379 0.57295 0.27905 0.0
C1467 C 0.95449 0.56492 0.26749 0.0
C1468 C 0.99545 0.56209 0.27494 0.0
C1469 C 0.99247 0.60179 0.30578 0.0
C1470 C 1.00353 0.56117 0.25296 0.0
C1471 C 0.02413 0.55135 0.24906 0.0
C1472 C 0.03709 0.54229 0.2671 0.0
C1473 C 0.02888 0.54319 0.28908 0.0
C1474 C 0.0082 0.55282 0.29292 0.0
H1475 H 0.98937 0.61928 0.31131 0.0
H1476 H 0.99682 0.5918 0.32111 0.0
H1477 H 0.00701 0.60181 0.29472 0.0
H1478 H 0.99395 0.56822 0.23883 0.0
H1479 H 0.02987 0.55085 0.2319 0.0
H1480 H 0.15867 0.40061 0.55568 0.0
H1481 H 0.18722 0.37123 0.55299 0.0
H1482 H 0.14043 0.32211 0.5759 0.0
H1483 H 0.11214 0.35084 0.57856 0.0
H1484 H 0.20392 0.33655 0.58824 0.0
H1485 H 0.16062 0.3005 0.51184 0.0
H1486 H 0.15615 0.32892 0.52123 0.0
H1487 H 0.14278 0.30593 0.53495 0.0
C1488 C 0.15455 0.38357 0.56025 0.0
C1489 C 0.13295 0.37809 0.56696 0.0
C1490 C 0.17088 0.36683 0.55878 0.0
C1491 C 0.16584 0.34445 0.56403 0.0
C1492 C 0.14461 0.33921 0.57153 0.0
H1493 H 0.21137 0.21059 0.55414 0.0
H1494 H 0.1949 0.24555 0.56693 0.0
C1495 C 0.1284 0.35574 0.57294 0.0
C1496 C 0.18193 0.326 0.56061 0.0
H1497 H 0.18757 0.27746 0.53066 0.0
C1498 C 0.20061 0.32376 0.57546 0.0
C1499 C 0.17757 0.30936 0.54391 0.0
C1500 C 0.15831 0.31131 0.52691 0.0
C1501 C 0.21444 0.30473 0.57462 0.0
C1502 C 0.20942 0.28766 0.55854 0.0
C1503 C 0.19123 0.29039 0.54322 0.0
C1504 C 0.22233 0.26651 0.55714 0.0
C1505 C 0.2338 0.30253 0.59139 0.0
C1506 C 0.24387 0.26649 0.5487 0.0
C1507 C 0.25349 0.24638 0.54158 0.0
C1508 C 0.24151 0.22607 0.54246 0.0
C1509 C 0.22103 0.22592 0.55323 0.0
C1510 C 0.21152 0.24594 0.56042 0.0
H1511 H 0.23353 0.31552 0.60489 0.0
H1512 H 0.2337 0.2857 0.59936 0.0
H1513 H 0.24959 0.30424 0.58238 0.0
H1514 H 0.25245 0.28216 0.54579 0.0
H1515 H 0.26915 0.24717 0.5331 0.0
H1516 H 0.60892 0.67039 0.69154 0.0
H1517 H 0.57732 0.64792 0.70256 0.0
H1518 H 0.618 0.5885 0.70231 0.0
H1519 H 0.65024 0.61129 0.69206 0.0
H1520 H 0.5566 0.616 0.68011 0.0
H1521 H 0.58886 0.58151 0.76194 0.0
H1522 H 0.60287 0.60372 0.7474 0.0
H1523 H 0.60593 0.57506 0.73852 0.0
C1524 C 0.61126 0.65255 0.69393 0.0
C1525 C 0.6321 0.64259 0.6909 0.0
C1526 C 0.59313 0.63971 0.70027 0.0
C1527 C 0.59526 0.61654 0.70351 0.0
C1528 C 0.61605 0.60644 0.70046 0.0
H1529 H 0.47713 0.53137 0.70113 0.0
H1530 H 0.51159 0.55065 0.69244 0.0
C1531 C 0.63442 0.61942 0.69444 0.0
C1532 C 0.57527 0.60316 0.70904 0.0
H1533 H 0.55406 0.5673 0.74781 0.0
C1534 C 0.55607 0.60538 0.69495 0.0
C1535 C 0.57445 0.58953 0.72856 0.0
C1536 C 0.59405 0.58744 0.74511 0.0
C1537 C 0.53608 0.59455 0.69986 0.0
C1538 C 0.53543 0.58035 0.71897 0.0
C1539 C 0.55462 0.57805 0.73307 0.0
C1540 C 0.51492 0.56794 0.72467 0.0
C1541 C 0.51571 0.59909 0.68488 0.0
C1542 C 0.50571 0.57052 0.74604 0.0
C1543 C 0.48614 0.55916 0.75124 0.0
C1544 C 0.47533 0.54512 0.73508 0.0
C1545 C 0.48477 0.54238 0.71382 0.0
C1546 C 0.50447 0.55346 0.70878 0.0
H1547 H 0.51719 0.61525 0.67574 0.0
H1548 H 0.51381 0.58559 0.67199 0.0
H1549 H 0.50041 0.59957 0.69484 0.0
H1550 H 0.51355 0.58153 0.75862 0.0
H1551 H 0.47936 0.56154 0.76781 0.0
H1552 H 0.40447 0.83142 0.74056 0.0
H1553 H 0.43924 0.84907 0.7539 0.0
H1554 H 0.42073 0.90965 0.71828 0.0
H1555 H 0.38521 0.89216 0.70578 0.0
H1556 H 0.47137 0.86109 0.72896 0.0
H1557 H 0.44513 0.93607 0.77617 0.0
H1558 H 0.4259 0.914 0.76783 0.0
H1559 H 0.43316 0.93541 0.74793 0.0
C1560 C 0.40762 0.84871 0.73605 0.0
C1561 C 0.39222 0.86052 0.72224 0.0
C1562 C 0.42752 0.85876 0.74361 0.0
C1563 C 0.43268 0.88076 0.73725 0.0
C1564 C 0.41697 0.89286 0.72392 0.0
H1565 H 0.56208 0.93575 0.71913 0.0
H1566 H 0.52835 0.91314 0.71763 0.0
C1567 C 0.39672 0.88288 0.7167 0.0
C1568 C 0.45529 0.89001 0.74289 0.0
H1569 H 0.48314 0.93548 0.7651 0.0
C1570 C 0.47389 0.87726 0.73713 0.0
C1571 C 0.45874 0.91091 0.75389 0.0
C1572 C 0.43966 0.92477 0.76204 0.0
C1573 C 0.4957 0.88505 0.74142 0.0
C1574 C 0.49913 0.90656 0.7511 0.0
C1575 C 0.48058 0.91903 0.75755 0.0
C1576 C 0.52156 0.91718 0.75314 0.0
C1577 C 0.51483 0.87004 0.7356 0.0
C1578 C 0.52938 0.92674 0.77373 0.0
C1579 C 0.54871 0.93998 0.77461 0.0
C1580 C 0.56044 0.94406 0.75484 0.0
C1581 C 0.55349 0.93302 0.73469 0.0
C1582 C 0.53416 0.91994 0.73381 0.0
H1583 H 0.51002 0.85208 0.73658 0.0
H1584 H 0.51955 0.8734 0.71794 0.0
H1585 H 0.5296 0.87299 0.74707 0.0
H1586 H 0.51996 0.92481 0.78889 0.0
H1587 H 0.55348 0.94829 0.79039 0.0
H1588 H 0.57868 0.87973 0.14836 0.0
H1589 H 0.57608 0.84496 0.16988 0.0
H1590 H 0.54059 0.8134 0.11351 0.0
H1591 H 0.54324 0.84813 0.09168 0.0
H1592 H 0.52041 0.81029 0.15771 0.0
H1593 H 0.60858 0.78364 0.16 0.0
H1594 H 0.60483 0.81283 0.16637 0.0
H1595 H 0.59694 0.80232 0.13866 0.0
C1596 C 0.57036 0.8654 0.14049 0.0
C1597 C 0.5611 0.86673 0.11834 0.0
C1598 C 0.56909 0.84548 0.15272 0.0
C1599 C 0.55848 0.82655 0.1431 0.0
C1600 C 0.54908 0.82778 0.12108 0.0
H1601 H 0.51663 0.7256 0.24101 0.0
H1602 H 0.52635 0.73606 0.20235 0.0
C1603 C 0.55056 0.84765 0.1087 0.0
C1604 C 0.55586 0.80617 0.15696 0.0
H1605 H 0.58596 0.76933 0.18959 0.0
C1606 C 0.53459 0.80082 0.16428 0.0
C1607 C 0.57443 0.79383 0.16522 0.0
C1608 C 0.59748 0.79827 0.15701 0.0
C1609 C 0.53163 0.78498 0.18144 0.0
C1610 C 0.5505 0.77384 0.19107 0.0
C1611 C 0.57152 0.77781 0.1822 0.0
C1612 C 0.54944 0.76228 0.21321 0.0
C1613 C 0.50864 0.78191 0.19048 0.0
C1614 C 0.56073 0.77207 0.23197 0.0
C1615 C 0.55547 0.76592 0.25384 0.0
C1616 C 0.53893 0.74979 0.25735 0.0
C1617 C 0.52958 0.73799 0.23868 0.0
C1618 C 0.53488 0.74418 0.21663 0.0
H1619 H 0.49643 0.79394 0.18295 0.0
H1620 H 0.50256 0.76471 0.18652 0.0
H1621 H 0.50907 0.7841 0.20917 0.0
H1622 H 0.57213 0.78595 0.22979 0.0
H1623 H 0.56289 0.77523 0.268 0.0
H1624 H 0.13125 0.24117 0.12787 0.0
H1625 H 0.11232 0.25719 0.09405 0.0
H1626 H 0.12256 0.19549 0.0577 0.0
H1627 H 0.14125 0.17949 0.09119 0.0
H1628 H 0.13302 0.26225 0.05128 0.0
H1629 H 0.05688 0.20986 0.04329 0.0
H1630 H 0.07323 0.21232 0.06946 0.0
H1631 H 0.08168 0.19353 0.04752 0.0
C1632 C 0.12879 0.23084 0.11287 0.0
C1633 C 0.13755 0.20904 0.11215 0.0
C1634 C 0.11821 0.24007 0.09353 0.0
C1635 C 0.11595 0.22747 0.07344 0.0
C1636 C 0.12383 0.20539 0.07311 0.0
H1637 H 0.07761 0.23216 0.93475 0.0
H1638 H 0.09852 0.22751 0.97064 0.0
C1639 C 0.13452 0.19627 0.09225 0.0
C1640 C 0.10684 0.23752 0.05219 0.0
H1641 H 0.06812 0.22832 0.00952 0.0
C1642 C 0.1186 0.25515 0.04227 0.0
C1643 C 0.08803 0.22821 0.04054 0.0
C1644 C 0.07409 0.21008 0.05084 0.0
C1645 C 0.11264 0.2629 0.02042 0.0
C1646 C 0.09455 0.25274 0.00838 0.0
C1647 C 0.08226 0.2358 0.0187 0.0
C1648 C 0.0879 0.25895 0.98488 0.0
C1649 C 0.12615 0.28121 0.00992 0.0
C1650 C 0.07624 0.27888 0.98051 0.0
C1651 C 0.06433 0.28166 0.95991 0.0
C1652 C 0.06369 0.26436 0.94363 0.0
C1653 C 0.07761 0.24569 0.94705 0.0
C1654 C 0.08951 0.24296 0.96758 0.0
H1655 H 0.14116 0.28571 0.02052 0.0
H1656 H 0.13141 0.27589 0.9929 0.0
H1657 H 0.1157 0.29639 0.00765 0.0
H1658 H 0.0747 0.29134 0.99373 0.0
H1659 H 0.05374 0.29621 0.95785 0.0
H1660 H 0.4377 0.6719 0.10001 0.0
H1661 H 0.43145 0.70319 0.1264 0.0
H1662 H 0.43264 0.65687 0.18228 0.0
H1663 H 0.43877 0.62598 0.15656 0.0
H1664 H 0.39479 0.68765 0.17982 0.0
H1665 H 0.47778 0.72933 0.17511 0.0
H1666 H 0.462 0.72285 0.14936 0.0
H1667 H 0.47373 0.70059 0.16619 0.0
C1668 C 0.43687 0.6685 0.11796 0.0
C1669 C 0.43874 0.64642 0.12613 0.0
C1670 C 0.43322 0.68635 0.13297 0.0
C1671 C 0.43145 0.68226 0.15626 0.0
C1672 C 0.43372 0.66035 0.16436 0.0
H1673 H 0.43701 0.7116 0.28854 0.0
H1674 H 0.42195 0.70091 0.25129 0.0
C1675 C 0.43734 0.64269 0.14955 0.0
C1676 C 0.42744 0.70034 0.17285 0.0
H1677 H 0.45586 0.73878 0.20556 0.0
C1678 C 0.40786 0.69934 0.18511 0.0
C1679 C 0.4444 0.71567 0.17958 0.0
C1680 C 0.46574 0.71731 0.167 0.0
C1681 C 0.4056 0.71193 0.205 0.0
C1682 C 0.42348 0.72562 0.21295 0.0
C1683 C 0.44215 0.72823 0.1995 0.0
C1684 C 0.42524 0.73394 0.23666 0.0
C1685 C 0.38456 0.70957 0.21792 0.0
C1686 C 0.43089 0.75637 0.24131 0.0
C1687 C 0.43948 0.76258 0.26278 0.0
C1688 C 0.44305 0.74628 0.27971 0.0
C1689 C 0.43467 0.72452 0.27584 0.0
C1690 C 0.42595 0.71838 0.25446 0.0
H1691 H 0.37002 0.70621 0.20622 0.0
H1692 H 0.38623 0.69513 0.22963 0.0
H1693 H 0.38124 0.72487 0.22799 0.0
H1694 H 0.43044 0.76866 0.22785 0.0
H1695 H 0.44565 0.77954 0.26516 0.0
H1696 H 0.90094 0.27511 0.15247 0.0
H1697 H 0.92452 0.26598 0.12064 0.0
H1698 H 0.90245 0.32595 0.08618 0.0
H1699 H 0.87886 0.33508 0.11765 0.0
H1700 H 0.90441 0.26071 0.0748 0.0
H1701 H 0.9714 0.32502 0.07932 0.0
H1702 H 0.95582 0.31698 0.10362 0.0
H1703 H 0.94382 0.33571 0.08283 0.0
C1704 C 0.90156 0.28659 0.13834 0.0
C1705 C 0.88801 0.30573 0.13742 0.0
C1706 C 0.91495 0.28133 0.1202 0.0
C1707 C 0.91529 0.29541 0.10123 0.0
C1708 C 0.90263 0.31507 0.10083 0.0
H1709 H 0.95801 0.30164 0.96525 0.0
H1710 H 0.94327 0.30742 0.00282 0.0
C1711 C 0.88908 0.32017 0.11875 0.0
C1712 C 0.92675 0.28857 0.08066 0.0
H1713 H 0.9657 0.30592 0.04398 0.0
C1714 C 0.91808 0.2703 0.06818 0.0
C1715 C 0.94436 0.30133 0.0721 0.0
C1716 C 0.95457 0.32076 0.08523 0.0
C1717 C 0.92588 0.26506 0.04672 0.0
C1718 C 0.94318 0.27816 0.03787 0.0
C1719 C 0.95235 0.29598 0.05076 0.0
C1720 C 0.95153 0.27418 0.01495 0.0
C1721 C 0.91478 0.24626 0.03331 0.0
C1722 C 0.96099 0.25356 0.00933 0.0
C1723 C 0.96918 0.2501 0.98779 0.0
C1724 C 0.96838 0.26735 0.97159 0.0
C1725 C 0.95886 0.288 0.9773 0.0
C1726 C 0.9505 0.29136 0.99878 0.0
H1727 H 0.89826 0.24186 0.03991 0.0
H1728 H 0.91253 0.2508 0.01516 0.0
H1729 H 0.92539 0.23112 0.03449 0.0
H1730 H 0.9624 0.24025 0.02171 0.0
H1731 H 0.97666 0.23408 0.98406 0.0
H1732 H 0.58803 0.13637 0.35867 0.0
H1733 H 0.58708 0.17208 0.3387 0.0
H1734 H 0.54888 0.20118 0.39161 0.0
H1735 H 0.54982 0.16534 0.41193 0.0
H1736 H 0.53056 0.20631 0.34661 0.0
H1737 H 0.61879 0.23277 0.35237 0.0
H1738 H 0.61543 0.20386 0.34437 0.0
H1739 H 0.60703 0.21301 0.37181 0.0
C1740 C 0.57954 0.15037 0.3662 0.0
C1741 C 0.56889 0.14796 0.38684 0.0
C1742 C 0.57924 0.17086 0.35487 0.0
C1743 C 0.56827 0.18937 0.36389 0.0
C1744 C 0.5577 0.18715 0.38455 0.0
H1745 H 0.52859 0.28955 0.26177 0.0
H1746 H 0.53772 0.27981 0.30143 0.0
C1747 C 0.5582 0.16666 0.39607 0.0
C1748 C 0.56607 0.21012 0.3503 0.0
H1749 H 0.59701 0.24658 0.32002 0.0
C1750 C 0.54495 0.21565 0.34122 0.0
C1751 C 0.58487 0.22233 0.34357 0.0
C1752 C 0.6078 0.21785 0.35372 0.0
C1753 C 0.54239 0.2314 0.32372 0.0
C1754 C 0.56151 0.24228 0.31552 0.0
C1755 C 0.58237 0.23826 0.32623 0.0
C1756 C 0.56086 0.25354 0.29312 0.0
C1757 C 0.5195 0.23467 0.31286 0.0
C1758 C 0.5724 0.24356 0.27553 0.0
C1759 C 0.56752 0.24935 0.2531 0.0
C1760 C 0.55106 0.26529 0.24782 0.0
C1761 C 0.54148 0.27731 0.26545 0.0
C1762 C 0.54643 0.2715 0.28807 0.0
H1763 H 0.50707 0.22268 0.31935 0.0
H1764 H 0.5137 0.25187 0.31653 0.0
H1765 H 0.51993 0.2326 0.2942 0.0
H1766 H 0.58372 0.22978 0.27895 0.0
H1767 H 0.57513 0.23987 0.23977 0.0
H1768 H 0.39919 0.21964 0.84946 0.0
H1769 H 0.42656 0.2297 0.8795 0.0
H1770 H 0.39701 0.18176 0.92399 0.0
H1771 H 0.36943 0.17171 0.8942 0.0
H1772 H 0.40922 0.24575 0.92358 0.0
H1773 H 0.46712 0.17361 0.93136 0.0
H1774 H 0.45179 0.18024 0.90533 0.0
H1775 H 0.43804 0.16659 0.92799 0.0
C1776 C 0.39882 0.21088 0.86547 0.0
C1777 C 0.38207 0.19505 0.86963 0.0
C1778 C 0.41445 0.21665 0.88254 0.0
C1779 C 0.41377 0.20633 0.90375 0.0
C1780 C 0.39787 0.18966 0.90755 0.0
H1781 H 0.46072 0.21343 0.03944 0.0
H1782 H 0.44476 0.20514 0.00176 0.0
C1783 C 0.38208 0.18406 0.89061 0.0
C1784 C 0.42757 0.21488 0.92291 0.0
H1785 H 0.46668 0.19892 0.96266 0.0
C1786 C 0.4221 0.23579 0.93199 0.0
C1787 C 0.44417 0.20165 0.93365 0.0
C1788 C 0.45082 0.17932 0.92405 0.0
C1789 C 0.43192 0.24329 0.95251 0.0
C1790 C 0.44801 0.22967 0.96375 0.0
C1791 C 0.45425 0.20925 0.954 0.0
C1792 C 0.45729 0.23538 0.98648 0.0
C1793 C 0.42403 0.26501 0.96257 0.0
C1794 C 0.46943 0.25524 0.99033 0.0
C1795 C 0.47822 0.26023 0.01196 0.0
C1796 C 0.47537 0.24517 0.02987 0.0
C1797 C 0.46318 0.22532 0.02593 0.0
C1798 C 0.45415 0.22053 0.00443 0.0
H1799 H 0.4081 0.27071 0.9544 0.0
H1800 H 0.42169 0.26327 0.98104 0.0
H1801 H 0.43671 0.27825 0.96008 0.0
H1802 H 0.4724 0.26669 0.97656 0.0
H1803 H 0.48785 0.27548 0.01447 0.0
H1804 H 0.42654 0.39029 0.34575 0.0
H1805 H 0.42418 0.35995 0.31843 0.0
H1806 H 0.44503 0.31293 0.37018 0.0
H1807 H 0.4477 0.34368 0.39811 0.0
H1808 H 0.46828 0.30914 0.33041 0.0
H1809 H 0.37815 0.3105 0.30933 0.0
H1810 H 0.38994 0.33808 0.30792 0.0
H1811 H 0.39011 0.32356 0.33462 0.0
C1812 C 0.4306 0.37354 0.35154 0.0
C1813 C 0.43744 0.3695 0.37422 0.0
C1814 C 0.42894 0.3561 0.33585 0.0
C1815 C 0.43388 0.33407 0.34233 0.0
C1816 C 0.44082 0.3298 0.36491 0.0
H1817 H 0.46043 0.23433 0.23719 0.0
H1818 H 0.44566 0.24648 0.2732 0.0
C1819 C 0.44242 0.34737 0.38081 0.0
C1820 C 0.43348 0.31622 0.32473 0.0
H1821 H 0.40173 0.29674 0.2796 0.0
C1822 C 0.45359 0.30583 0.31969 0.0
C1823 C 0.41427 0.31192 0.31075 0.0
C1824 C 0.39185 0.32145 0.31609 0.0
C1825 C 0.45548 0.29284 0.29998 0.0
C1826 C 0.43662 0.28991 0.28513 0.0
C1827 C 0.41615 0.29903 0.29097 0.0
C1828 C 0.4389 0.28035 0.26212 0.0
C1829 C 0.47804 0.28377 0.2943 0.0
C1830 C 0.43811 0.2948 0.24343 0.0
C1831 C 0.44641 0.2879 0.22277 0.0
C1832 C 0.4557 0.26644 0.22052 0.0
C1833 C 0.45353 0.25102 0.23833 0.0
C1834 C 0.4453 0.258 0.25906 0.0
H1835 H 0.49145 0.28971 0.30634 0.0
H1836 H 0.47761 0.26519 0.29481 0.0
H1837 H 0.48234 0.28882 0.27691 0.0
H1838 H 0.433 0.31207 0.24539 0.0
H1839 H 0.44761 0.30012 0.20934 0.0
H1840 H 0.65587 0.32952 0.91296 0.0
H1841 H 0.64145 0.31543 0.94829 0.0
H1842 H 0.60899 0.26087 0.912 0.0
H1843 H 0.62305 0.2752 0.87631 0.0
H1844 H 0.58278 0.27852 0.94413 0.0
H1845 H 0.66649 0.26212 0.98241 0.0
H1846 H 0.66336 0.29067 0.97351 0.0
H1847 H 0.66203 0.26849 0.95275 0.0
C1848 C 0.6455 0.31462 0.91242 0.0
C1849 C 0.64075 0.30339 0.89181 0.0
C1850 C 0.63746 0.30644 0.9327 0.0
C1851 C 0.62475 0.28667 0.93295 0.0
C1852 C 0.61903 0.276 0.91227 0.0
H1853 H 0.56091 0.22031 0.04607 0.0
H1854 H 0.58119 0.22502 0.01122 0.0
C1855 C 0.62695 0.28429 0.89186 0.0
C1856 C 0.61737 0.27738 0.95482 0.0
H1857 H 0.63628 0.26201 0.00787 0.0
C1858 C 0.59449 0.27459 0.95794 0.0
C1859 C 0.63267 0.27211 0.97285 0.0
C1860 C 0.65751 0.27327 0.97017 0.0
C1861 C 0.58647 0.26769 0.97888 0.0
C1862 C 0.60174 0.26325 0.99712 0.0
C1863 C 0.62463 0.26545 0.99386 0.0
C1864 C 0.59395 0.25795 0.02006 0.0
C1865 C 0.56165 0.26607 0.98164 0.0
C1866 C 0.59576 0.27422 0.03723 0.0
C1867 C 0.58428 0.27156 0.05723 0.0
C1868 C 0.57085 0.25252 0.06041 0.0
C1869 C 0.57114 0.23513 0.04425 0.0
C1870 C 0.58252 0.2379 0.02416 0.0
H1871 H 0.55207 0.2733 0.96699 0.0
H1872 H 0.5568 0.24819 0.98322 0.0
H1873 H 0.55685 0.27487 0.9973 0.0
H1874 H 0.60468 0.28973 0.03448 0.0
H1875 H 0.58449 0.28521 0.06938 0.0
H1876 H 0.10885 0.56178 0.84382 0.0
H1877 H 0.13881 0.55833 0.81664 0.0
H1878 H 0.18624 0.58311 0.86728 0.0
H1879 H 0.15686 0.58639 0.8943 0.0
H1880 H 0.17161 0.59021 0.79993 0.0
H1881 H 0.21117 0.52153 0.84956 0.0
H1882 H 0.18296 0.53046 0.85373 0.0
H1883 H 0.206 0.54602 0.86626 0.0
C1884 C 0.12564 0.56663 0.84908 0.0
C1885 C 0.13041 0.57403 0.87142 0.0
C1886 C 0.14275 0.56467 0.83352 0.0
C1887 C 0.1649 0.57007 0.84003 0.0
C1888 C 0.16942 0.5784 0.86195 0.0
H1889 H 0.2983 0.56113 0.79479 0.0
H1890 H 0.26377 0.57279 0.81182 0.0
C1891 C 0.15249 0.58027 0.87742 0.0
C1892 C 0.18368 0.56627 0.82459 0.0
H1893 H 0.2332 0.53863 0.82171 0.0
C1894 C 0.18498 0.57876 0.80453 0.0
C1895 C 0.2011 0.55124 0.83048 0.0
C1896 C 0.2002 0.53637 0.85106 0.0
C1897 C 0.20369 0.5773 0.79079 0.0
C1898 C 0.22147 0.5629 0.79723 0.0
C1899 C 0.21977 0.54995 0.81691 0.0
C1900 C 0.24222 0.56085 0.7842 0.0
C1901 C 0.20468 0.59169 0.76993 0.0
C1902 C 0.2418 0.55133 0.76238 0.0
C1903 C 0.26168 0.54486 0.75241 0.0
C1904 C 0.28233 0.54753 0.76423 0.0
C1905 C 0.28275 0.55892 0.78515 0.0
C1906 C 0.26296 0.56544 0.79502 0.0
H1907 H 0.19193 0.60512 0.76976 0.0
H1908 H 0.2214 0.59949 0.76875 0.0
H1909 H 0.20167 0.58105 0.75468 0.0
H1910 H 0.22606 0.5473 0.75378 0.0
H1911 H 0.26063 0.53577 0.7365 0.0
H1912 H 0.80162 0.65035 0.40199 0.0
H1913 H 0.79678 0.61993 0.42919 0.0
H1914 H 0.81964 0.57227 0.38026 0.0
H1915 H 0.8249 0.60236 0.35327 0.0
H1916 H 0.76879 0.58412 0.42374 0.0
H1917 H 0.85517 0.55415 0.43673 0.0
H1918 H 0.84867 0.58093 0.42402 0.0
H1919 H 0.84725 0.55568 0.40722 0.0
C1920 C 0.80591 0.63343 0.39715 0.0
C1921 C 0.81358 0.62879 0.37542 0.0
C1922 C 0.80314 0.61609 0.41271 0.0
C1923 C 0.80818 0.59391 0.40686 0.0
C1924 C 0.81617 0.58933 0.38534 0.0
H1925 H 0.75228 0.4694 0.44659 0.0
H1926 H 0.76255 0.50495 0.42945 0.0
C1927 C 0.81896 0.60657 0.36984 0.0
C1928 C 0.80341 0.57517 0.42234 0.0
H1929 H 0.82613 0.52783 0.44553 0.0
C1930 C 0.7814 0.572 0.42883 0.0
C1931 C 0.81992 0.55956 0.42926 0.0
C1932 C 0.84412 0.56287 0.42414 0.0
C1933 C 0.77523 0.55297 0.44101 0.0
C1934 C 0.79142 0.5365 0.4464 0.0
C1935 C 0.81366 0.54029 0.44103 0.0
C1936 C 0.78544 0.51488 0.45683 0.0
C1937 C 0.75138 0.5506 0.44782 0.0
C1938 C 0.79552 0.50831 0.47752 0.0
C1939 C 0.78988 0.48785 0.48729 0.0
C1940 C 0.77409 0.47355 0.47646 0.0
C1941 C 0.76436 0.48005 0.45549 0.0
C1942 C 0.77008 0.50045 0.44573 0.0
H1943 H 0.7431 0.56717 0.4488 0.0
H1944 H 0.74203 0.54037 0.43492 0.0
H1945 H 0.75034 0.54214 0.46446 0.0
H1946 H 0.80757 0.51914 0.48625 0.0
H1947 H 0.79771 0.4834 0.50344 0.0
H1948 H 0.85881 0.92613 0.87144 0.0
H1949 H 0.83659 0.92529 0.83605 0.0
H1950 H 0.88967 0.95809 0.80166 0.0
H1951 H 0.91226 0.95889 0.83714 0.0
H1952 H 0.84597 0.97795 0.79612 0.0
H1953 H 0.84438 0.88707 0.77758 0.0
H1954 H 0.83908 0.89336 0.80664 0.0
H1955 H 0.86573 0.90018 0.79555 0.0
C1956 C 0.86583 0.93315 0.85638 0.0
C1957 C 0.88725 0.94271 0.85714 0.0
C1958 C 0.85321 0.9324 0.8361 0.0
C1959 C 0.86169 0.94122 0.81619 0.0
C1960 C 0.883 0.95091 0.81682 0.0
H1961 H 0.75615 0.97477 0.71606 0.0
H1962 H 0.7952 0.96486 0.72436 0.0
C1963 C 0.89579 0.95145 0.8371 0.0
C1964 C 0.84719 0.94197 0.79543 0.0
H1965 H 0.81299 0.9085 0.76263 0.0
C1966 C 0.83918 0.96286 0.78819 0.0
C1967 C 0.83864 0.92222 0.78507 0.0
C1968 C 0.84756 0.89943 0.79144 0.0
C1969 C 0.821 0.96445 0.77268 0.0
C1970 C 0.811 0.94452 0.76385 0.0
C1971 C 0.82061 0.92374 0.76939 0.0
C1972 C 0.78808 0.94472 0.75368 0.0
C1973 C 0.81133 0.98734 0.76772 0.0
C1974 C 0.77109 0.9349 0.766 0.0
C1975 C 0.74893 0.94023 0.76111 0.0
C1976 C 0.74336 0.95544 0.74377 0.0
C1977 C 0.76003 0.96296 0.72951 0.0
C1978 C 0.78236 0.95755 0.73443 0.0
H1979 H 0.81972 1.00077 0.77798 0.0
H1980 H 0.81322 0.99139 0.74958 0.0
H1981 H 0.79331 0.98757 0.77121 0.0
H1982 H 0.77505 0.9248 0.78082 0.0
H1983 H 0.73634 0.93409 0.77223 0.0
H1984 H 0.23313 0.86966 0.38536 0.0
H1985 H 0.24755 0.90497 0.4019 0.0
H1986 H 0.18876 0.93929 0.37671 0.0
H1987 H 0.17429 0.90435 0.36035 0.0
H1988 H 0.25545 0.94597 0.37642 0.0
H1989 H 0.19502 0.95835 0.44396 0.0
H1990 H 0.19952 0.93141 0.4309 0.0
H1991 H 0.18222 0.95193 0.41675 0.0
C1992 C 0.22308 0.88464 0.38383 0.0
C1993 C 0.20253 0.88421 0.37164 0.0
C1994 C 0.23142 0.90481 0.39309 0.0
C1995 C 0.21917 0.92471 0.39059 0.0
C1996 C 0.19838 0.9241 0.37906 0.0
H1997 H 0.22461 0.06357 0.42545 0.0
H1998 H 0.21829 0.0278 0.40596 0.0
C1999 C 0.19014 0.9041 0.3697 0.0
C2000 C 0.22821 0.94646 0.3991 0.0
H2001 H 0.21613 0.99034 0.43361 0.0
C2002 C 0.24706 0.95562 0.38913 0.0
C2003 C 0.21721 0.95897 0.41563 0.0
C2004 C 0.19749 0.94961 0.42761 0.0
C2005 C 0.25463 0.9774 0.39462 0.0
C2006 C 0.24316 0.99017 0.41064 0.0
C2007 C 0.22473 0.98068 0.42106 0.0
C2008 C 0.24974 0.01339 0.41721 0.0
C2009 C 0.27433 0.98688 0.38272 0.0
C2010 C 0.27012 0.01768 0.42884 0.0
C2011 C 0.27391 0.03831 0.43977 0.0
C2012 C 0.25719 0.05475 0.43952 0.0
C2013 C 0.23777 0.0512 0.42598 0.0
C2014 C 0.23408 0.03071 0.41495 0.0
H2015 H 0.27795 0.97718 0.36721 0.0
H2016 H 0.27143 0.00466 0.37801 0.0
H2017 H 0.28925 0.98624 0.39432 0.0
H2018 H 0.28234 0.00451 0.43106 0.0
H2019 H 0.28892 0.04042 0.4503 0.0
H2020 H 0.14898 0.41906 0.62753 0.0
H2021 H 0.17363 0.41927 0.66128 0.0
H2022 H 0.12416 0.45469 0.69826 0.0
H2023 H 0.09913 0.45443 0.66443 0.0
H2024 H 0.16872 0.47395 0.69978 0.0
H2025 H 0.1693 0.38383 0.72175 0.0
H2026 H 0.1731 0.38914 0.69222 0.0
H2027 H 0.14725 0.39653 0.70461 0.0
C2028 C 0.14322 0.42681 0.64285 0.0
C2029 C 0.1221 0.43683 0.64323 0.0
C2030 C 0.15727 0.42671 0.6622 0.0
C2031 C 0.15059 0.43667 0.68237 0.0
C2032 C 0.12952 0.44668 0.68292 0.0
H2033 H 0.25546 0.47381 0.7836 0.0
H2034 H 0.21678 0.46433 0.77245 0.0
C2035 C 0.11528 0.44656 0.66357 0.0
C2036 C 0.16655 0.43809 0.7021 0.0
H2037 H 0.2006 0.40573 0.73586 0.0
C2038 C 0.17536 0.45914 0.70817 0.0
C2039 C 0.17508 0.41871 0.71297 0.0
C2040 C 0.16556 0.39577 0.70774 0.0
C2041 C 0.19379 0.4612 0.72338 0.0
C2042 C 0.20327 0.44163 0.73328 0.0
C2043 C 0.19335 0.42072 0.7284 0.0
C2044 C 0.22557 0.4422 0.74508 0.0
C2045 C 0.20404 0.48414 0.72717 0.0
C2046 C 0.24324 0.43114 0.735 0.0
C2047 C 0.2652 0.43615 0.74165 0.0
C2048 C 0.26992 0.4523 0.75852 0.0
C2049 C 0.25229 0.46117 0.77066 0.0
C2050 C 0.23018 0.45607 0.76401 0.0
H2051 H 0.19676 0.49686 0.71541 0.0
H2052 H 0.20115 0.48977 0.74473 0.0
H2053 H 0.22229 0.48362 0.72492 0.0
H2054 H 0.24017 0.4202 0.72053 0.0
H2055 H 0.27849 0.42908 0.73202 0.0
H2056 H 0.71367 0.63867 0.59156 0.0
H2057 H 0.7127 0.60359 0.56939 0.0
H2058 H 0.66905 0.57405 0.6175 0.0
H2059 H 0.66935 0.60863 0.63896 0.0
H2060 H 0.72791 0.56415 0.58365 0.0
H2061 H 0.63912 0.55284 0.56012 0.0
H2062 H 0.65026 0.57932 0.57025 0.0
H2063 H 0.64224 0.55798 0.58995 0.0
C2064 C 0.70347 0.62483 0.59702 0.0
C2065 C 0.69177 0.62639 0.61711 0.0
C2066 C 0.70295 0.60481 0.5844 0.0
C2067 C 0.69049 0.58625 0.59157 0.0
C2068 C 0.67827 0.58821 0.61119 0.0
H2069 H 0.72612 0.44803 0.58059 0.0
H2070 H 0.71551 0.48531 0.59349 0.0
C2071 C 0.67874 0.60801 0.62367 0.0
C2072 C 0.6921 0.56395 0.58049 0.0
H2073 H 0.66079 0.51846 0.56372 0.0
C2074 C 0.71323 0.55433 0.57891 0.0
C2075 C 0.673 0.55113 0.57398 0.0
C2076 C 0.64992 0.561 0.57343 0.0
C2077 C 0.71574 0.53193 0.5722 0.0
C2078 C 0.69655 0.51854 0.56766 0.0
C2079 C 0.67546 0.5285 0.56792 0.0
C2080 C 0.69831 0.49435 0.56202 0.0
C2081 C 0.73899 0.52287 0.57003 0.0
C2082 C 0.69017 0.48626 0.54098 0.0
C2083 C 0.69573 0.46473 0.53376 0.0
C2084 C 0.70978 0.45105 0.54738 0.0
C2085 C 0.71559 0.45824 0.56953 0.0
C2086 C 0.70978 0.47967 0.57682 0.0
H2087 H 0.75126 0.53655 0.56757 0.0
H2088 H 0.74402 0.51388 0.5858 0.0
H2089 H 0.73979 0.51097 0.55559 0.0
H2090 H 0.68092 0.49716 0.52945 0.0
H2091 H 0.69079 0.45974 0.51665 0.0
H2092 H 0.85453 0.07048 0.60823 0.0
H2093 H 0.82613 0.0681 0.6364 0.0
H2094 H 0.87694 0.06655 0.68975 0.0
H2095 H 0.90591 0.06891 0.66137 0.0
H2096 H 0.82259 0.03212 0.67047 0.0
H2097 H 0.83141 0.11795 0.70736 0.0
H2098 H 0.84096 0.11136 0.67947 0.0
H2099 H 0.85604 0.10128 0.70408 0.0
C2100 C 0.85986 0.06965 0.62592 0.0
C2101 C 0.88265 0.06985 0.63245 0.0
C2102 C 0.84349 0.0683 0.64204 0.0
C2103 C 0.84934 0.06731 0.66519 0.0
C2104 C 0.87203 0.06751 0.67196 0.0
H2105 H 0.75049 0.04046 0.76807 0.0
H2106 H 0.78612 0.05073 0.75207 0.0
C2107 C 0.88857 0.06873 0.65572 0.0
C2108 C 0.83135 0.06542 0.68179 0.0
H2109 H 0.80164 0.09571 0.7196 0.0
C2110 C 0.81823 0.0459 0.68147 0.0
C2111 C 0.82563 0.08343 0.69609 0.0
C2112 C 0.8391 0.1048 0.69687 0.0
C2113 C 0.79927 0.04411 0.69458 0.0
C2114 C 0.79299 0.06244 0.70814 0.0
C2115 C 0.80647 0.08172 0.70912 0.0
C2116 C 0.77164 0.06192 0.72007 0.0
C2117 C 0.78563 0.02281 0.69346 0.0
C2118 C 0.7516 0.066 0.70787 0.0
C2119 C 0.73119 0.06022 0.71697 0.0
C2120 C 0.73039 0.05016 0.73846 0.0
C2121 C 0.75037 0.04839 0.7516 0.0
C2122 C 0.77084 0.05408 0.7424 0.0
H2123 H 0.79394 0.00928 0.684 0.0
H2124 H 0.78248 0.01676 0.71082 0.0
H2125 H 0.76923 0.02624 0.68494 0.0
H2126 H 0.75186 0.07205 0.69061 0.0
H2127 H 0.71619 0.06177 0.70635 0.0
H2128 H 0.34047 0.90476 0.6641 0.0
H2129 H 0.33023 0.93774 0.64168 0.0
H2130 H 0.29796 0.89535 0.59105 0.0
H2131 H 0.30833 0.86219 0.61318 0.0
H2132 H 0.32309 0.93001 0.57284 0.0
H2133 H 0.26626 0.96178 0.63745 0.0
H2134 H 0.29414 0.95673 0.64812 0.0
H2135 H 0.27718 0.93364 0.63799 0.0
C2136 C 0.33137 0.90239 0.6481 0.0
C2137 C 0.32501 0.88082 0.64057 0.0
C2138 C 0.3254 0.92129 0.63539 0.0
C2139 C 0.31289 0.91899 0.61499 0.0
C2140 C 0.30744 0.89747 0.60687 0.0
H2141 H 0.23912 0.02517 0.54456 0.0
H2142 H 0.24982 0.99116 0.56529 0.0
C2143 C 0.31343 0.87854 0.61954 0.0
C2144 C 0.30512 0.93905 0.60234 0.0
H2145 H 0.27342 0.98613 0.60679 0.0
C2146 C 0.31219 0.94226 0.58021 0.0
C2147 C 0.29054 0.95477 0.61187 0.0
C2148 C 0.28138 0.95152 0.63508 0.0
C2149 C 0.30553 0.9611 0.56755 0.0
C2150 C 0.29172 0.9773 0.57745 0.0
C2151 C 0.28419 0.9738 0.59935 0.0
C2152 C 0.28518 0.99814 0.56543 0.0
C2153 C 0.31313 0.96338 0.54361 0.0
C2154 C 0.30147 0.01355 0.55915 0.0
C2155 C 0.29545 0.03296 0.54735 0.0
C2156 C 0.27295 0.03745 0.54169 0.0
C2157 C 0.25659 0.02225 0.54859 0.0
C2158 C 0.26266 0.00279 0.56041 0.0
H2159 H 0.31832 0.947 0.53656 0.0
H2160 H 0.29975 0.97044 0.53234 0.0
H2161 H 0.32766 0.9749 0.54348 0.0
H2162 H 0.3189 0.01054 0.56333 0.0
H2163 H 0.30852 0.04433 0.5425 0.0
H2164 H 0.86819 0.10546 0.51901 0.0
H2165 H 0.84629 0.13359 0.49758 0.0
H2166 H 0.85955 0.18189 0.55086 0.0
H2167 H 0.88146 0.15411 0.57215 0.0
H2168 H 0.81268 0.1785 0.53125 0.0
H2169 H 0.87872 0.19056 0.46855 0.0
H2170 H 0.86974 0.16252 0.47512 0.0
H2171 H 0.88482 0.17874 0.49619 0.0
C2172 C 0.86591 0.1219 0.52638 0.0
C2173 C 0.87644 0.12759 0.5473 0.0
C2174 C 0.85364 0.138 0.51401 0.0
C2175 C 0.85157 0.15987 0.52253 0.0
C2176 C 0.86105 0.16514 0.54394 0.0
H2177 H 0.82374 0.29339 0.49413 0.0
H2178 H 0.84154 0.2567 0.49594 0.0
C2179 C 0.87347 0.14923 0.55613 0.0
C2180 C 0.84026 0.17778 0.50915 0.0
H2181 H 0.84891 0.21605 0.46733 0.0
C2182 C 0.8203 0.18642 0.51694 0.0
C2183 C 0.85046 0.18821 0.49069 0.0
C2184 C 0.87217 0.17971 0.48205 0.0
C2185 C 0.81065 0.20572 0.50732 0.0
C2186 C 0.82113 0.21657 0.48924 0.0
C2187 C 0.84077 0.20753 0.48096 0.0
C2188 C 0.81325 0.23879 0.48106 0.0
C2189 C 0.79 0.21515 0.51751 0.0
C2190 C 0.79215 0.24112 0.47036 0.0
C2191 C 0.78196 0.26218 0.4691 0.0
C2192 C 0.79266 0.28113 0.47883 0.0
C2193 C 0.81497 0.27912 0.48665 0.0
C2194 C 0.82517 0.2581 0.48777 0.0
H2195 H 0.78609 0.20678 0.53366 0.0
H2196 H 0.79203 0.23339 0.52081 0.0
H2197 H 0.7756 0.21284 0.50542 0.0
H2198 H 0.78277 0.22642 0.46485 0.0
H2199 H 0.76479 0.26305 0.46295 0.0
H2200 H 0.88562 0.85432 0.92861 0.0
H2201 H 0.85284 0.83029 0.93083 0.0
H2202 H 0.81139 0.88835 0.93847 0.0
H2203 H 0.8443 0.91281 0.93639 0.0
H2204 H 0.81921 0.83473 0.97138 0.0
H2205 H 0.7853 0.84359 0.88282 0.0
H2206 H 0.81482 0.84626 0.88921 0.0
H2207 H 0.79627 0.8676 0.89832 0.0
C2208 C 0.86958 0.86211 0.93074 0.0
C2209 C 0.86768 0.88557 0.93242 0.0
C2210 C 0.85085 0.8483 0.93197 0.0
C2211 C 0.82973 0.85756 0.93472 0.0
C2212 C 0.82758 0.88092 0.93624 0.0
H2213 H 0.72756 0.76061 0.97357 0.0
H2214 H 0.74175 0.79832 0.96563 0.0
C2215 C 0.84641 0.89484 0.93513 0.0
C2216 C 0.8103 0.84239 0.93674 0.0
H2217 H 0.76936 0.81557 0.90527 0.0
C2218 C 0.80793 0.83086 0.95714 0.0
C2219 C 0.79582 0.83733 0.91802 0.0
C2220 C 0.798 0.84925 0.89575 0.0
C2221 C 0.7921 0.81365 0.95906 0.0
C2222 C 0.77805 0.80796 0.94007 0.0
C2223 C 0.77988 0.82013 0.91989 0.0
C2224 C 0.76413 0.78727 0.94002 0.0
C2225 C 0.79159 0.80068 0.98096 0.0
C2226 C 0.77052 0.76892 0.92688 0.0
C2227 C 0.76225 0.74751 0.93121 0.0
C2228 C 0.74729 0.74409 0.94861 0.0
C2229 C 0.73875 0.76282 0.95979 0.0
C2230 C 0.74714 0.78433 0.95551 0.0
H2231 H 0.8058 0.80504 0.99273 0.0
H2232 H 0.77595 0.80447 0.98959 0.0
H2233 H 0.79197 0.78237 0.97758 0.0
H2234 H 0.78353 0.77076 0.9148 0.0
H2235 H 0.7693 0.7333 0.92257 0.0
H2236 H 0.09806 0.85386 0.33582 0.0
H2237 H 0.06318 0.87065 0.32176 0.0
H2238 H 0.09711 0.89962 0.26582 0.0
H2239 H 0.13221 0.8829 0.2798 0.0
H2240 H 0.05383 0.91815 0.31165 0.0
H2241 H 0.04369 0.86183 0.23664 0.0
H2242 H 0.06168 0.855 0.2608 0.0
H2243 H 0.07013 0.87579 0.24097 0.0
C2244 C 0.09819 0.864 0.32065 0.0
C2245 C 0.11795 0.86702 0.30894 0.0
C2246 C 0.07822 0.87353 0.31261 0.0
C2247 C 0.07748 0.88605 0.29255 0.0
C2248 C 0.09726 0.88973 0.28116 0.0
H2249 H 0.96873 0.95354 0.21972 0.0
H2250 H 1.00266 0.93234 0.22899 0.0
C2251 C 0.11735 0.88037 0.28932 0.0
C2252 C 0.05593 0.89519 0.28371 0.0
H2253 H 0.0161 0.88938 0.2412 0.0
C2254 C 0.04556 0.91187 0.29626 0.0
C2255 C 0.04527 0.88704 0.26355 0.0
C2256 C 0.0556 0.86882 0.24968 0.0
C2257 C 0.02488 0.92077 0.28914 0.0
C2258 C 0.01386 0.91222 0.26928 0.0
C2259 C 0.02439 0.89572 0.25653 0.0
C2260 C 0.99164 0.92075 0.26141 0.0
C2261 C 0.01531 0.93966 0.30275 0.0
C2262 C 0.97353 0.91991 0.27574 0.0
C2263 C 0.95419 0.93207 0.27053 0.0
C2264 C 0.95243 0.94495 0.25066 0.0
C2265 C 0.9695 0.94362 0.23505 0.0
C2266 C 0.98901 0.93167 0.24045 0.0
H2267 H 0.02834 0.94828 0.31344 0.0
H2268 H 0.00706 0.95226 0.29153 0.0
H2269 H 1.00274 0.93279 0.31416 0.0
H2270 H 0.9749 0.91102 0.29168 0.0
H2271 H 0.94126 0.93271 0.28282 0.0
H2272 H 0.15469 0.59488 0.97505 0.0
H2273 H 0.18247 0.61716 0.99667 0.0
H2274 H 0.15193 0.67788 0.97162 0.0
H2275 H 0.12408 0.65585 0.94996 0.0
H2276 H 0.20153 0.67499 0.97109 0.0
H2277 H 0.16527 0.65522 0.05423 0.0
H2278 H 0.17108 0.63255 0.03516 0.0
H2279 H 0.14937 0.65201 0.02787 0.0
C2280 C 0.15402 0.61298 0.9739 0.0
C2281 C 0.13706 0.6236 0.96084 0.0
C2282 C 0.16985 0.62565 0.98638 0.0
C2283 C 0.16906 0.64911 0.98591 0.0
C2284 C 0.15273 0.65975 0.97224 0.0
H2285 H 0.19717 0.76649 0.04974 0.0
H2286 H 0.18519 0.72798 0.04259 0.0
C2287 C 0.13683 0.64714 0.95989 0.0
C2288 C 0.18471 0.66287 0.0001 0.0
H2289 H 0.1931 0.68292 0.05396 0.0
C2290 C 0.20013 0.67642 0.98929 0.0
C2291 C 0.18272 0.66458 0.02382 0.0
C2292 C 0.16619 0.65043 0.03611 0.0
C2293 C 0.21274 0.69265 0.00135 0.0
C2294 C 0.20993 0.69522 0.02496 0.0
C2295 C 0.1954 0.68074 0.03597 0.0
C2296 C 0.21834 0.71551 0.03713 0.0
C2297 C 0.2277 0.70802 0.98838 0.0
C2298 C 0.24115 0.72081 0.03856 0.0
C2299 C 0.24806 0.74293 0.04285 0.0
C2300 C 0.23216 0.75981 0.04574 0.0
C2301 C 0.20972 0.75373 0.04764 0.0
C2302 C 0.20286 0.73172 0.0434 0.0
H2303 H 0.22575 0.70553 0.96977 0.0
H2304 H 0.22411 0.72583 0.99228 0.0
H2305 H 0.24534 0.70474 0.99346 0.0
H2306 H 0.25339 0.70842 0.03417 0.0
H2307 H 0.26543 0.74723 0.04104 0.0
H2308 H 0.3572 0.1179 0.76444 0.0
H2309 H 0.38838 0.09336 0.75473 0.0
H2310 H 0.42198 0.10982 0.8184 0.0
H2311 H 0.39131 0.13436 0.82796 0.0
H2312 H 0.43441 0.11202 0.75355 0.0
H2313 H 0.42774 0.04009 0.81223 0.0
H2314 H 0.40418 0.0573 0.80385 0.0
H2315 H 0.42415 0.06716 0.82501 0.0
C2316 C 0.37099 0.11573 0.77656 0.0
C2317 C 0.37192 0.12796 0.79693 0.0
C2318 C 0.38879 0.10186 0.77097 0.0
C2319 C 0.40738 0.09969 0.78595 0.0
C2320 C 0.40768 0.11102 0.80676 0.0
H2321 H 0.5405 0.04868 0.79633 0.0
H2322 H 0.50378 0.06505 0.80152 0.0
C2323 C 0.39019 0.12508 0.81216 0.0
C2324 C 0.42763 0.0877 0.77921 0.0
H2325 H 0.46293 0.04566 0.79564 0.0
C2326 C 0.44052 0.09726 0.76241 0.0
C2327 C 0.43562 0.06868 0.79108 0.0
C2328 C 0.42215 0.05754 0.80894 0.0
C2329 C 0.46171 0.0889 0.75785 0.0
C2330 C 0.46995 0.0701 0.77006 0.0
C2331 C 0.45669 0.06013 0.78637 0.0
C2332 C 0.49247 0.0608 0.76656 0.0
C2333 C 0.47548 0.10099 0.74082 0.0
C2334 C 0.49836 0.05298 0.74518 0.0
C2335 C 0.51942 0.04388 0.74209 0.0
C2336 C 0.53497 0.04205 0.76041 0.0
C2337 C 0.52901 0.04988 0.78183 0.0
C2338 C 0.50798 0.05917 0.78485 0.0
H2339 H 0.46945 0.11833 0.73775 0.0
H2340 H 0.49327 0.10181 0.74656 0.0
H2341 H 0.47433 0.09182 0.72445 0.0
H2342 H 0.48652 0.05355 0.73093 0.0
H2343 H 0.52328 0.03777 0.72541 0.0
H2344 H 0.66006 0.90127 0.05598 0.0
H2345 H 0.68856 0.87173 0.05425 0.0
H2346 H 0.6402 0.82251 0.07352 0.0
H2347 H 0.61195 0.85137 0.07522 0.0
H2348 H 0.70298 0.83631 0.08985 0.0
H2349 H 0.66396 0.80195 0.01045 0.0
H2350 H 0.65917 0.83025 0.02003 0.0
H2351 H 0.64476 0.80716 0.03245 0.0
C2352 C 0.65557 0.88416 0.05992 0.0
C2353 C 0.63358 0.87871 0.06536 0.0
C2354 C 0.67188 0.86734 0.05902 0.0
C2355 C 0.6664 0.84491 0.06355 0.0
C2356 C 0.64473 0.83966 0.06973 0.0
H2357 H 0.71045 0.7108 0.05549 0.0
H2358 H 0.69424 0.74602 0.06792 0.0
C2359 C 0.62855 0.85627 0.07059 0.0
C2360 C 0.68257 0.82642 0.06078 0.0
H2361 H 0.68947 0.77826 0.03056 0.0
C2362 C 0.70032 0.82377 0.0767 0.0
C2363 C 0.67905 0.8101 0.0436 0.0
C2364 C 0.66083 0.81253 0.02551 0.0
C2365 C 0.71399 0.80459 0.07643 0.0
C2366 C 0.70972 0.78782 0.05986 0.0
C2367 C 0.69252 0.79099 0.04348 0.0
C2368 C 0.72236 0.76649 0.05904 0.0
C2369 C 0.73233 0.80189 0.09427 0.0
C2370 C 0.74415 0.76611 0.05128 0.0
C2371 C 0.7536 0.74586 0.04436 0.0
C2372 C 0.7412 0.72578 0.04476 0.0
C2373 C 0.72043 0.72595 0.05496 0.0
C2374 C 0.71107 0.74611 0.06195 0.0
H2375 H 0.73184 0.81507 0.10756 0.0
H2376 H 0.73111 0.78518 0.10238 0.0
H2377 H 0.74869 0.80281 0.08619 0.0
H2378 H 0.75308 0.78165 0.04868 0.0
H2379 H 0.76951 0.74641 0.03635 0.0
H2380 H 0.15165 0.10954 0.19224 0.0
H2381 H 0.11957 0.08578 0.201 0.0
H2382 H 0.07663 0.14344 0.19638 0.0
H2383 H 0.10809 0.1669 0.18699 0.0
H2384 H 0.09068 0.08654 0.23504 0.0
H2385 H 0.04425 0.10089 0.154 0.0
H2386 H 0.07303 0.109 0.15839 0.0
H2387 H 0.05112 0.12689 0.16787 0.0
C2388 C 0.13533 0.11706 0.19303 0.0
C2389 C 0.13237 0.14003 0.18862 0.0
C2390 C 0.11704 0.1035 0.19803 0.0
C2391 C 0.0956 0.11274 0.19878 0.0
C2392 C 0.09285 0.13578 0.19515 0.0
H2393 H 0.97926 0.06125 0.26431 0.0
H2394 H 0.01415 0.07972 0.25489 0.0
C2395 C 0.11094 0.14921 0.18989 0.0
C2396 C 0.07597 0.09861 0.20363 0.0
H2397 H 0.02295 0.08682 0.18448 0.0
C2398 C 0.07595 0.08635 0.22387 0.0
C2399 C 0.05689 0.09801 0.18886 0.0
C2400 C 0.05639 0.10921 0.16596 0.0
C2401 C 0.05707 0.0742 0.23013 0.0
C2402 C 0.03746 0.0749 0.21608 0.0
C2403 C 0.03781 0.08654 0.19548 0.0
C2404 C 0.01641 0.06359 0.22215 0.0
C2405 C 0.05849 0.06052 0.25157 0.0
C2406 C 0.00555 0.04906 0.20656 0.0
C2407 C 0.98533 0.03901 0.21164 0.0
C2408 C 0.97559 0.04308 0.23253 0.0
C2409 C 0.98643 0.05765 0.24814 0.0
C2410 C 0.00651 0.06803 0.24287 0.0
H2411 H 0.07597 0.05584 0.25608 0.0
H2412 H 0.05221 0.07062 0.26576 0.0
H2413 H 0.04836 0.04496 0.24991 0.0
H2414 H 0.01277 0.04542 0.19043 0.0
H2415 H 0.97753 0.02774 0.19929 0.0
H2416 H 0.91145 0.35709 0.18788 0.0
H2417 H 0.94515 0.37638 0.20171 0.0
H2418 H 0.91117 0.39903 0.26053 0.0
H2419 H 0.87699 0.37964 0.24661 0.0
H2420 H 0.95058 0.42453 0.21516 0.0
H2421 H 0.96908 0.36282 0.28392 0.0
H2422 H 0.95097 0.35592 0.25979 0.0
H2423 H 0.94158 0.37468 0.28113 0.0
C2424 C 0.91102 0.36641 0.20364 0.0
C2425 C 0.89162 0.36684 0.21621 0.0
C2426 C 0.9303 0.37738 0.21152 0.0
C2427 C 0.93072 0.38882 0.23226 0.0
C2428 C 0.91118 0.39005 0.24457 0.0
H2429 H 0.04916 0.45432 0.29316 0.0
H2430 H 0.01343 0.43456 0.28947 0.0
C2431 C 0.89166 0.3792 0.23652 0.0
C2432 C 0.95195 0.39899 0.24075 0.0
H2433 H 0.99667 0.38983 0.27697 0.0
C2434 C 0.96055 0.41715 0.22886 0.0
C2435 C 0.96487 0.38927 0.25863 0.0
C2436 C 0.95633 0.36953 0.27167 0.0
C2437 C 0.98196 0.42557 0.234 0.0
C2438 C 0.99537 0.41514 0.25111 0.0
C2439 C 0.98645 0.39756 0.26368 0.0
C2440 C 0.01878 0.4223 0.25563 0.0
C2441 C 0.99012 0.44548 0.22091 0.0
C2442 C 0.03424 0.42053 0.23849 0.0
C2443 C 0.05465 0.43177 0.24053 0.0
C2444 C 0.05999 0.44486 0.25983 0.0
C2445 C 0.04559 0.44436 0.2781 0.0
C2446 C 0.02506 0.43321 0.27596 0.0
H2447 H 0.97611 0.45498 0.21283 0.0
H2448 H 1.00005 0.45705 0.2321 0.0
H2449 H 1.00093 0.43954 0.20731 0.0
H2450 H 0.02987 0.41175 0.22286 0.0
H2451 H 0.06546 0.43166 0.22625 0.0
H2452 H 0.2417 0.15796 0.81878 0.0
H2453 H 0.20292 0.16494 0.82823 0.0
H2454 H 0.22096 0.23134 0.85156 0.0
H2455 H 0.25939 0.22479 0.8418 0.0
H2456 H 0.18685 0.17499 0.87075 0.0
H2457 H 0.16703 0.24371 0.8104 0.0
H2458 H 0.19112 0.22606 0.80787 0.0
H2459 H 0.19157 0.24888 0.82787 0.0
C2460 C 0.23733 0.17419 0.82552 0.0
C2461 C 0.25371 0.19082 0.82944 0.0
C2462 C 0.21519 0.1781 0.83106 0.0
C2463 C 0.20898 0.19874 0.84042 0.0
C2464 C 0.22522 0.21545 0.84397 0.0
H2465 H 0.08121 0.25239 0.88138 0.0
H2466 H 0.12147 0.24547 0.88086 0.0
C2467 C 0.24727 0.2116 0.83844 0.0
C2468 C 0.18576 0.2026 0.84734 0.0
H2469 H 0.14092 0.23691 0.83873 0.0
C2470 C 0.17678 0.18849 0.8637 0.0
C2471 C 0.17268 0.22035 0.8383 0.0
C2472 C 0.18098 0.2355 0.81999 0.0
C2473 C 0.15511 0.19168 0.87128 0.0
C2474 C 0.14201 0.2093 0.8621 0.0
C2475 C 0.15109 0.22359 0.84598 0.0
C2476 C 0.11811 0.21192 0.86707 0.0
C2477 C 0.14645 0.17622 0.88911 0.0
C2478 C 0.10292 0.19509 0.86028 0.0
C2479 C 0.08006 0.19902 0.8605 0.0
C2480 C 0.07189 0.21989 0.86749 0.0
C2481 C 0.08702 0.23611 0.87606 0.0
C2482 C 0.11001 0.23222 0.87561 0.0
H2483 H 0.16025 0.1683 0.89918 0.0
H2484 H 0.13558 0.18534 0.9008 0.0
H2485 H 0.13647 0.16265 0.88074 0.0
H2486 H 0.10872 0.17943 0.85334 0.0
H2487 H 0.06879 0.18619 0.85383 0.0
H2488 H 0.4067 0.51045 0.40764 0.0
H2489 H 0.41512 0.54846 0.3951 0.0
H2490 H 0.48514 0.53288 0.39682 0.0
H2491 H 0.47683 0.49464 0.40874 0.0
H2492 H 0.43887 0.58211 0.41323 0.0
H2493 H 0.47741 0.55669 0.33352 0.0
H2494 H 0.4624 0.53721 0.35066 0.0
H2495 H 0.49093 0.5443 0.35795 0.0
C2496 C 0.42393 0.51513 0.40554 0.0
C2497 C 0.44107 0.49937 0.40904 0.0
C2498 C 0.42871 0.53688 0.39825 0.0
C2499 C 0.45071 0.5434 0.39434 0.0
C2500 C 0.46796 0.52806 0.39893 0.0
H2501 H 0.51854 0.66695 0.37639 0.0
H2502 H 0.50749 0.62744 0.37731 0.0
C2503 C 0.46319 0.50625 0.40602 0.0
C2504 C 0.45563 0.56635 0.38585 0.0
H2505 H 0.48266 0.59502 0.34486 0.0
C2506 C 0.44818 0.5849 0.39811 0.0
C2507 C 0.46767 0.57008 0.366 0.0
C2508 C 0.47486 0.55101 0.35114 0.0
C2509 C 0.45316 0.60694 0.3916 0.0
C2510 C 0.46581 0.61061 0.37221 0.0
C2511 C 0.47291 0.59215 0.35966 0.0
C2512 C 0.47339 0.63346 0.36616 0.0
C2513 C 0.44557 0.62621 0.40599 0.0
C2514 C 0.45822 0.64977 0.35823 0.0
C2515 C 0.46465 0.67238 0.35728 0.0
C2516 C 0.48627 0.67888 0.36443 0.0
C2517 C 0.50188 0.66228 0.37047 0.0
C2518 C 0.49554 0.63974 0.37116 0.0
H2519 H 0.43832 0.62044 0.422 0.0
H2520 H 0.45973 0.63768 0.4102 0.0
H2521 H 0.43273 0.63594 0.39633 0.0
H2522 H 0.44105 0.64522 0.35422 0.0
H2523 H 0.45222 0.68492 0.35304 0.0
H2524 H 0.75651 0.35507 0.80698 0.0
H2525 H 0.79713 0.35111 0.8052 0.0
H2526 H 0.79373 0.28911 0.84227 0.0
H2527 H 0.75368 0.2924 0.84336 0.0
H2528 H 0.82815 0.35053 0.83798 0.0
H2529 H 0.83276 0.26983 0.79322 0.0
H2530 H 0.8071 0.28529 0.7945 0.0
H2531 H 0.8156 0.26658 0.81713 0.0
C2532 C 0.76443 0.34042 0.81438 0.0
C2533 C 0.75173 0.32403 0.82519 0.0
C2534 C 0.78765 0.33819 0.8134 0.0
C2535 C 0.79852 0.31953 0.82316 0.0
C2536 C 0.78579 0.30326 0.83392 0.0
H2537 H 0.92587 0.30689 0.88909 0.0
H2538 H 0.88836 0.3168 0.87583 0.0
C2539 C 0.76276 0.30532 0.8347 0.0
C2540 C 0.82323 0.31749 0.82378 0.0
H2541 H 0.86453 0.27893 0.81845 0.0
C2542 C 0.83617 0.33503 0.83328 0.0
C2543 C 0.83395 0.29755 0.81712 0.0
C2544 C 0.8216 0.2789 0.80468 0.0
C2545 C 0.85918 0.33258 0.83773 0.0
C2546 C 0.86941 0.31172 0.83334 0.0
C2547 C 0.85675 0.29478 0.82237 0.0
C2548 C 0.89275 0.3066 0.84105 0.0
C2549 C 0.87216 0.35241 0.84716 0.0
C2550 C 0.90766 0.29668 0.82624 0.0
C2551 C 0.92902 0.29037 0.83401 0.0
C2552 C 0.93605 0.29403 0.85669 0.0
C2553 C 0.92117 0.3041 0.87143 0.0
C2554 C 0.89971 0.31002 0.86378 0.0
H2555 H 0.86462 0.36843 0.84125 0.0
H2556 H 0.87173 0.35227 0.86592 0.0
H2557 H 0.88979 0.35204 0.84218 0.0
H2558 H 0.90273 0.29365 0.80867 0.0
H2559 H 0.94001 0.28265 0.82223 0.0
H2560 H 0.53295 0.01878 0.394 0.0
H2561 H 0.52288 0.97918 0.38984 0.0
H2562 H 0.58875 0.96031 0.41382 0.0
H2563 H 0.59908 0.99982 0.41783 0.0
H2564 H 0.57531 0.93825 0.37471 0.0
H2565 H 0.50982 0.93237 0.43809 0.0
H2566 H 0.50534 0.9546 0.41803 0.0
H2567 H 0.52918 0.95558 0.43732 0.0
C2568 C 0.54529 0.00623 0.3985 0.0
C2569 C 0.56687 0.01256 0.40619 0.0
C2570 C 0.53943 0.98357 0.3963 0.0
C2571 C 0.55494 0.96674 0.40186 0.0
C2572 C 0.57646 0.97299 0.40957 0.0
H2573 H 0.52901 0.82078 0.39896 0.0
H2574 H 0.53945 0.85858 0.41244 0.0
C2575 C 0.58234 0.99562 0.41181 0.0
C2576 C 0.5492 0.94269 0.39829 0.0
H2577 H 0.51195 0.90179 0.41186 0.0
C2578 C 0.56161 0.93024 0.38304 0.0
C2579 C 0.53148 0.93212 0.40935 0.0
C2580 C 0.51831 0.94427 0.42679 0.0
C2581 C 0.55624 0.90784 0.37786 0.0
C2582 C 0.53785 0.89763 0.38804 0.0
C2583 C 0.52595 0.90973 0.40397 0.0
C2584 C 0.52997 0.87499 0.38097 0.0
C2585 C 0.57007 0.8953 0.36122 0.0
C2586 C 0.52066 0.87187 0.35911 0.0
C2587 C 0.51462 0.85049 0.35144 0.0
C2588 C 0.51776 0.83162 0.36545 0.0
C2589 C 0.52635 0.83489 0.38773 0.0
C2590 C 0.53235 0.85645 0.39545 0.0
H2591 H 0.58645 0.90353 0.35899 0.0
H2592 H 0.5729 0.87777 0.36686 0.0
H2593 H 0.56104 0.89476 0.3445 0.0
H2594 H 0.51843 0.886 0.34779 0.0
H2595 H 0.50789 0.84876 0.33426 0.0
H2596 H 0.26451 0.7898 0.66156 0.0
H2597 H 0.22483 0.7882 0.65213 0.0
H2598 H 0.21751 0.85619 0.67552 0.0
H2599 H 0.25766 0.85811 0.68503 0.0
H2600 H 0.18536 0.82349 0.69127 0.0
H2601 H 0.193 0.82087 0.59798 0.0
H2602 H 0.2103 0.80117 0.61328 0.0
H2603 H 0.21517 0.83071 0.61703 0.0
C2604 C 0.25458 0.80451 0.66476 0.0
C2605 C 0.26437 0.8242 0.6739 0.0
C2606 C 0.23188 0.80356 0.65918 0.0
C2607 C 0.21839 0.82223 0.6626 0.0
C2608 C 0.2278 0.8417 0.67247 0.0
H2609 H 0.07411 0.83076 0.65208 0.0
H2610 H 0.11348 0.84113 0.65323 0.0
C2611 C 0.25067 0.84272 0.67801 0.0
C2612 C 0.19433 0.82084 0.65649 0.0
H2613 H 0.15757 0.81087 0.61203 0.0
C2614 C 0.1792 0.82108 0.67394 0.0
C2615 C 0.18647 0.81745 0.63385 0.0
C2616 C 0.20204 0.81771 0.6144 0.0
C2617 C 0.15643 0.81717 0.66949 0.0
C2618 C 0.14855 0.81352 0.64685 0.0
C2619 C 0.16365 0.8137 0.62933 0.0
C2620 C 0.12471 0.80891 0.64139 0.0
C2621 C 0.14116 0.81607 0.6892 0.0
C2622 C 0.11788 0.78797 0.63257 0.0
C2623 C 0.09526 0.78211 0.63148 0.0
C2624 C 0.07934 0.7971 0.63941 0.0
C2625 C 0.08611 0.81876 0.6462 0.0
C2626 C 0.10858 0.82467 0.64699 0.0
H2627 H 0.15055 0.81364 0.70555 0.0
H2628 H 0.13186 0.83204 0.6903 0.0
H2629 H 0.1289 0.8022 0.68692 0.0
H2630 H 0.1301 0.77566 0.62791 0.0
H2631 H 0.09045 0.76533 0.62614 0.0
H2632 H 0.03343 0.49487 0.59822 0.0
H2633 H 0.02622 0.53483 0.60292 0.0
H2634 H 0.09482 0.54973 0.59006 0.0
H2635 H 0.1023 0.50966 0.58559 0.0
H2636 H 0.08095 0.5714 0.62757 0.0
H2637 H 0.01938 0.58503 0.55708 0.0
H2638 H 0.01173 0.56239 0.57518 0.0
H2639 H 0.03646 0.56024 0.55906 0.0
C2640 C 0.047 0.5066 0.59615 0.0
C2641 C 0.0685 0.49889 0.59152 0.0
C2642 C 0.04277 0.52955 0.59868 0.0
C2643 C 0.05986 0.54546 0.59651 0.0
C2644 C 0.08129 0.53786 0.59168 0.0
H2645 H 0.03838 0.69235 0.6031 0.0
H2646 H 0.04776 0.6547 0.58934 0.0
C2647 C 0.08554 0.51489 0.5891 0.0
C2648 C 0.05567 0.56979 0.60083 0.0
H2649 H 0.0216 0.6136 0.58583 0.0
C2650 C 0.06813 0.58065 0.61824 0.0
C2651 C 0.03915 0.58211 0.58852 0.0
C2652 C 0.02606 0.57193 0.56876 0.0
C2653 C 0.06393 0.60303 0.62428 0.0
C2654 C 0.04658 0.61494 0.61284 0.0
C2655 C 0.03473 0.60445 0.59478 0.0
C2656 C 0.0398 0.63777 0.62037 0.0
C2657 C 0.07805 0.61372 0.64304 0.0
C2658 C 0.03162 0.64074 0.64209 0.0
C2659 C 0.02619 0.66209 0.64993 0.0
C2660 C 0.02869 0.68119 0.63624 0.0
C2661 C 0.03621 0.67812 0.61413 0.0
C2662 C 0.04163 0.65659 0.60625 0.0
H2663 H 0.09421 0.60497 0.64563 0.0
H2664 H 0.08136 0.63165 0.63938 0.0
H2665 H 0.06908 0.61278 0.6591 0.0
H2666 H 0.02962 0.62648 0.65315 0.0
H2667 H 0.02028 0.66359 0.66696 0.0
H2668 H 0.75961 0.71014 0.6331 0.0
H2669 H 0.79977 0.71462 0.63298 0.0
H2670 H 0.80751 0.66328 0.68387 0.0
H2671 H 0.7669 0.65814 0.68357 0.0
H2672 H 0.828 0.72795 0.66576 0.0
H2673 H 0.8511 0.64233 0.63814 0.0
H2674 H 0.82271 0.65204 0.63705 0.0
H2675 H 0.83559 0.64335 0.66352 0.0
C2676 C 0.76976 0.69965 0.64424 0.0
C2677 C 0.75996 0.6837 0.65832 0.0
C2678 C 0.79281 0.70228 0.64416 0.0
C2679 C 0.80679 0.68918 0.65824 0.0
C2680 C 0.79714 0.67328 0.67248 0.0
H2681 H 0.94686 0.73362 0.67206 0.0
H2682 H 0.90898 0.72296 0.68133 0.0
C2683 C 0.77392 0.67042 0.67238 0.0
C2684 C 0.83133 0.69287 0.65802 0.0
H2685 H 0.88054 0.66779 0.64592 0.0
C2686 C 0.83951 0.71475 0.66155 0.0
C2687 C 0.84635 0.6757 0.65235 0.0
C2688 C 0.83855 0.65207 0.64734 0.0
C2689 C 0.86204 0.72012 0.65888 0.0
C2690 C 0.8771 0.70295 0.65327 0.0
C2691 C 0.86905 0.68093 0.65035 0.0
C2692 C 0.90087 0.70779 0.64868 0.0
C2693 C 0.86915 0.74436 0.661 0.0
C2694 C 0.90943 0.70189 0.62769 0.0
C2695 C 0.93128 0.70753 0.62255 0.0
C2696 C 0.94509 0.71936 0.63824 0.0
C2697 C 0.93669 0.72471 0.65951 0.0
C2698 C 0.91492 0.71876 0.66477 0.0
H2699 H 0.85474 0.75592 0.65932 0.0
H2700 H 0.87728 0.7472 0.67794 0.0
H2701 H 0.8812 0.74882 0.64793 0.0
H2702 H 0.899 0.69338 0.61499 0.0
H2703 H 0.93712 0.7031 0.60601 0.0
H2704 H 0.91113 1.00143 0.59193 0.0
H2705 H 0.92019 0.96332 0.60436 0.0
H2706 H 0.98968 0.98139 0.61058 0.0
H2707 H 0.98069 0.01962 0.59885 0.0
H2708 H 0.94497 0.93101 0.58781 0.0
H2709 H 0.98174 0.95463 0.67173 0.0
H2710 H 0.96666 0.97433 0.65394 0.0
H2711 H 0.99549 0.9684 0.64921 0.0
C2712 C 0.92837 0.99729 0.59584 0.0
C2713 C 0.94515 0.01372 0.59454 0.0
C2714 C 0.93352 0.97546 0.60305 0.0
C2715 C 0.95557 0.96952 0.60909 0.0
C2716 C 0.97245 0.98566 0.60684 0.0
H2717 H 0.0273 0.84767 0.62803 0.0
H2718 H 0.01489 0.88671 0.62689 0.0
C2719 C 0.9673 0.00751 0.59986 0.0
C2720 C 0.961 0.94637 0.61716 0.0
H2721 H 0.98885 0.91711 0.65914 0.0
C2722 C 0.95428 0.928 0.60357 0.0
C2723 C 0.97306 0.94227 0.63784 0.0
C2724 C 0.97945 0.96095 0.65413 0.0
C2725 C 0.96002 0.90591 0.60958 0.0
C2726 C 0.97275 0.90194 0.62979 0.0
C2727 C 0.97908 0.92017 0.64366 0.0
C2728 C 0.98108 0.87912 0.63559 0.0
C2729 C 0.95313 0.88693 0.59386 0.0
C2730 C 0.96651 0.86201 0.64216 0.0
C2731 C 0.97375 0.83966 0.64329 0.0
C2732 C 0.99557 0.83415 0.63767 0.0
C2733 C 0.0105 0.85153 0.63283 0.0
C2734 C 1.00338 0.87382 0.63198 0.0
H2735 H 0.94546 0.89301 0.57764 0.0
H2736 H 0.96776 0.87642 0.59009 0.0
H2737 H 0.94087 0.87609 0.60223 0.0
H2738 H 0.94924 0.86576 0.64507 0.0
H2739 H 0.96177 0.82654 0.64653 0.0
H2740 H 0.82948 0.24478 0.14883 0.0
H2741 H 0.82993 0.20374 0.15033 0.0
H2742 H 0.83577 0.20654 0.22326 0.0
H2743 H 0.83556 0.24738 0.22198 0.0
H2744 H 0.86967 0.18263 0.20236 0.0
H2745 H 0.78543 0.15506 0.17124 0.0
H2746 H 0.79918 0.17545 0.1542 0.0
H2747 H 0.79099 0.18295 0.18212 0.0
C2748 C 0.83041 0.23664 0.1652 0.0
C2749 C 0.83278 0.24932 0.18528 0.0
C2750 C 0.83055 0.21321 0.16602 0.0
C2751 C 0.8328 0.20218 0.18691 0.0
C2752 C 0.83401 0.21479 0.20698 0.0
H2753 H 0.83552 0.06521 0.23031 0.0
H2754 H 0.82468 0.10345 0.22037 0.0
C2755 C 0.83395 0.23813 0.20619 0.0
C2756 C 0.83658 0.17776 0.18795 0.0
H2757 H 0.81238 0.12664 0.17779 0.0
C2758 C 0.85717 0.17038 0.19694 0.0
C2759 C 0.82017 0.16192 0.18092 0.0
C2760 C 0.7976 0.16913 0.17171 0.0
C2761 C 0.86179 0.14753 0.1993 0.0
C2762 C 0.8455 0.13164 0.19209 0.0
C2763 C 0.82488 0.13895 0.18304 0.0
C2764 C 0.84947 0.10741 0.19506 0.0
C2765 C 0.88388 0.14059 0.21005 0.0
C2766 C 0.86645 0.09679 0.18347 0.0
C2767 C 0.87281 0.075 0.18919 0.0
C2768 C 0.86222 0.06346 0.20654 0.0
C2769 C 0.84417 0.07366 0.217 0.0
C2770 C 0.83786 0.09548 0.21129 0.0
H2771 H 0.89259 0.15481 0.2188 0.0
H2772 H 0.88157 0.12694 0.2225 0.0
H2773 H 0.89477 0.13422 0.19673 0.0
H2774 H 0.8754 0.10571 0.17069 0.0
H2775 H 0.88658 0.06756 0.18059 0.0
H2776 H 0.49537 0.93132 0.09611 0.0
H2777 H 0.45666 0.91923 0.09038 0.0
H2778 H 0.47201 0.89057 0.02577 0.0
H2779 H 0.51087 0.90256 0.03133 0.0
H2780 H 0.42519 0.92873 0.05377 0.0
H2781 H 0.44388 0.83775 0.06125 0.0
H2782 H 0.46339 0.85921 0.07077 0.0
H2783 H 0.45949 0.85325 0.04109 0.0
C2784 C 0.49051 0.92268 0.08054 0.0
C2785 C 0.50632 0.91784 0.06424 0.0
C2786 C 0.46837 0.91571 0.07734 0.0
C2787 C 0.46158 0.90357 0.05789 0.0
C2788 C 0.47702 0.89952 0.04112 0.0
H2789 H 0.33129 0.8521 0.01322 0.0
H2790 H 0.37175 0.85605 0.01934 0.0
C2791 C 0.49918 0.90662 0.04423 0.0
C2792 C 0.43828 0.89527 0.0553 0.0
H2793 H 0.40629 0.84764 0.05357 0.0
C2794 C 0.42106 0.91101 0.05373 0.0
C2795 C 0.43295 0.87212 0.05513 0.0
C2796 C 0.45083 0.85452 0.0573 0.0
C2797 C 0.39866 0.90429 0.05191 0.0
C2798 C 0.39324 0.88114 0.05231 0.0
C2799 C 0.41046 0.86534 0.05349 0.0
C2800 C 0.36966 0.87342 0.05139 0.0
C2801 C 0.38099 0.9221 0.04922 0.0
C2802 C 0.35523 0.88027 0.0682 0.0
C2803 C 0.33222 0.87808 0.06471 0.0
C2804 C 0.32325 0.86862 0.04454 0.0
C2805 C 0.33777 0.85917 0.02905 0.0
C2806 C 0.36088 0.86165 0.03242 0.0
H2807 H 0.388 0.9382 0.04327 0.0
H2808 H 0.3675 0.91667 0.03704 0.0
H2809 H 0.37355 0.92521 0.06585 0.0
H2810 H 0.36168 0.88893 0.08321 0.0
H2811 H 0.32138 0.88559 0.07685 0.0
H2812 H 0.19664 0.25773 0.20201 0.0
H2813 H 0.18476 0.29634 0.20799 0.0
H2814 H 0.16656 0.30207 0.13701 0.0
H2815 H 0.17832 0.26314 0.13083 0.0
H2816 H 0.19255 0.34183 0.16521 0.0
H2817 H 0.11303 0.30949 0.19812 0.0
H2818 H 0.1384 0.2958 0.20742 0.0
H2819 H 0.12914 0.29383 0.17828 0.0
C2820 C 0.19068 0.26738 0.18753 0.0
C2821 C 0.18839 0.25739 0.16595 0.0
C2822 C 0.18377 0.28937 0.19102 0.0
C2823 C 0.17446 0.30182 0.17302 0.0
C2824 C 0.17362 0.29258 0.15111 0.0
H2825 H 0.13329 0.44136 0.178 0.0
H2826 H 0.13706 0.40286 0.16441 0.0
C2827 C 0.18057 0.27046 0.14757 0.0
C2828 C 0.16448 0.32392 0.17767 0.0
H2829 H 0.12021 0.34833 0.20265 0.0
C2830 C 0.17661 0.34335 0.17308 0.0
C2831 C 0.1438 0.32569 0.1882 0.0
C2832 C 0.13016 0.30515 0.19325 0.0
C2833 C 0.1689 0.36458 0.1794 0.0
C2834 C 0.14821 0.36641 0.19008 0.0
C2835 C 0.13593 0.34693 0.19434 0.0
C2836 C 0.13983 0.3884 0.19792 0.0
C2837 C 0.18349 0.38477 0.17549 0.0
C2838 C 0.13794 0.39272 0.22118 0.0
C2839 C 0.13511 0.41471 0.22897 0.0
C2840 C 0.13429 0.43255 0.21354 0.0
C2841 C 0.13373 0.42784 0.1902 0.0
C2842 C 0.13623 0.4059 0.18245 0.0
H2843 H 0.20091 0.37993 0.17224 0.0
H2844 H 0.17687 0.39405 0.16047 0.0
H2845 H 0.18365 0.39629 0.19029 0.0
H2846 H 0.14047 0.37939 0.23341 0.0
H2847 H 0.13594 0.41797 0.24703 0.0
H2848 H 0.49844 0.59412 0.03715 0.0
H2849 H 0.53646 0.6039 0.02803 0.0
H2850 H 0.55171 0.6186 0.09843 0.0
H2851 H 0.51354 0.60812 0.10779 0.0
H2852 H 0.55656 0.64334 0.03182 0.0
H2853 H 0.60523 0.58216 0.0838 0.0
H2854 H 0.57549 0.57975 0.07916 0.0
H2855 H 0.58695 0.59934 0.0997 0.0
C2856 C 0.50995 0.59907 0.05082 0.0
C2857 C 0.50286 0.60022 0.07326 0.0
C2858 C 0.53175 0.60478 0.04553 0.0
C2859 C 0.54721 0.61196 0.06246 0.0
C2860 C 0.54037 0.6127 0.08503 0.0
H2861 H 0.68758 0.65185 0.04506 0.0
H2862 H 0.64981 0.65126 0.05986 0.0
C2863 C 0.51848 0.60671 0.09041 0.0
C2864 C 0.56997 0.61949 0.05596 0.0
H2865 H 0.62571 0.60909 0.06392 0.0
C2866 C 0.57165 0.63586 0.03896 0.0
C2867 C 0.58983 0.60994 0.06525 0.0
C2868 C 0.58938 0.59169 0.08283 0.0
C2869 C 0.59237 0.64252 0.03075 0.0
C2870 C 0.61213 0.63259 0.03965 0.0
C2871 C 0.61059 0.61682 0.05717 0.0
C2872 C 0.63426 0.6367 0.0296 0.0
C2873 C 0.59296 0.66004 0.01245 0.0
C2874 C 0.63805 0.62943 0.00744 0.0
C2875 C 0.65954 0.62977 0.99904 0.0
C2876 C 0.67775 0.63768 0.01244 0.0
C2877 C 0.67378 0.64634 0.03408 0.0
C2878 C 0.65225 0.64568 0.04266 0.0
H2879 H 0.57755 0.67028 0.01177 0.0
H2880 H 0.60755 0.67136 0.01511 0.0
H2881 H 0.5944 0.65163 0.99579 0.0
H2882 H 0.62462 0.62211 0.99712 0.0
H2883 H 0.66221 0.6224 0.98257 0.0
H2884 H 0.82922 0.75515 0.28353 0.0
H2885 H 0.84183 0.79372 0.27955 0.0
H2886 H 0.84492 0.80144 0.35223 0.0
H2887 H 0.83286 0.76245 0.35645 0.0
H2888 H 0.82535 0.83336 0.29279 0.0
H2889 H 0.90787 0.81861 0.33549 0.0
H2890 H 0.8892 0.79604 0.32714 0.0
H2891 H 0.88452 0.81197 0.35239 0.0
C2892 C 0.83233 0.76508 0.29871 0.0
C2893 C 0.83031 0.75564 0.32032 0.0
C2894 C 0.8396 0.78711 0.29639 0.0
C2895 C 0.84494 0.80018 0.3156 0.0
C2896 C 0.84151 0.79137 0.3372 0.0
H2897 H 0.8693 0.9399 0.32566 0.0
H2898 H 0.86839 0.9 0.33469 0.0
C2899 C 0.8343 0.76921 0.33957 0.0
C2900 C 0.85416 0.82297 0.31271 0.0
H2901 H 0.89963 0.85616 0.32472 0.0
C2902 C 0.84162 0.83829 0.29969 0.0
C2903 C 0.87551 0.82925 0.32161 0.0
C2904 C 0.89019 0.81307 0.33477 0.0
C2905 C 0.84968 0.85986 0.29555 0.0
C2906 C 0.87086 0.86622 0.30463 0.0
C2907 C 0.88348 0.85102 0.31768 0.0
C2908 C 0.87899 0.88932 0.30182 0.0
C2909 C 0.83538 0.87592 0.28176 0.0
C2910 C 0.88678 0.89637 0.28088 0.0
C2911 C 0.8875 0.91921 0.27572 0.0
C2912 C 0.88005 0.935 0.29137 0.0
C2913 C 0.87489 0.92796 0.31325 0.0
C2914 C 0.87442 0.90522 0.31846 0.0
H2915 H 0.81863 0.86887 0.27737 0.0
H2916 H 0.83331 0.89183 0.29126 0.0
H2917 H 0.84369 0.88001 0.26581 0.0
H2918 H 0.89034 0.88419 0.26788 0.0
H2919 H 0.89154 0.92425 0.25875 0.0
H2920 H 0.01134 0.93571 0.90686 0.0
H2921 H 0.05091 0.92977 0.91577 0.0
H2922 H 0.03431 0.88997 0.97362 0.0
H2923 H 0.9947 0.89643 0.96525 0.0
H2924 H 0.06946 0.91663 0.98345 0.0
H2925 H 0.08282 0.87251 0.90232 0.0
H2926 H 0.07249 0.90048 0.8987 0.0
H2927 H 0.05546 0.87953 0.91155 0.0
C2928 C 0.01609 0.92578 0.92156 0.0
C2929 C 0.9998 0.91635 0.9352 0.0
C2930 C 0.03875 0.92228 0.92655 0.0
C2931 C 0.04563 0.90893 0.94503 0.0
C2932 C 0.02944 0.9002 0.95917 0.0
H2933 H 0.16702 0.83576 0.96646 0.0
H2934 H 0.13019 0.84995 0.95598 0.0
C2935 C 0.00677 0.90391 0.95435 0.0
C2936 C 0.06961 0.90364 0.94943 0.0
H2937 H 0.11475 0.87942 0.92588 0.0
C2938 C 0.07939 0.90854 0.97085 0.0
C2939 C 0.08253 0.89283 0.93307 0.0
C2940 C 0.07277 0.88582 0.91021 0.0
C2941 C 0.10158 0.90276 0.97645 0.0
C2942 C 0.1146 0.89231 0.95995 0.0
C2943 C 0.10488 0.88765 0.93845 0.0
C2944 C 0.13771 0.88438 0.96515 0.0
C2945 C 0.11052 0.90712 0.00027 0.0
C2946 C 0.15455 0.89907 0.97323 0.0
C2947 C 0.17574 0.89093 0.97949 0.0
C2948 C 0.18062 0.86796 0.97747 0.0
C2949 C 0.16398 0.85353 0.96833 0.0
C2950 C 0.14282 0.86164 0.9623 0.0
H2951 H 0.09694 0.9099 0.0122 0.0
H2952 H 0.12084 0.89289 0.00657 0.0
H2953 H 0.12111 0.9224 0.00043 0.0
H2954 H 0.15125 0.9168 0.97501 0.0
H2955 H 0.18809 0.90256 0.98635 0.0
H2956 H 0.18858 0.74422 0.36309 0.0
H2957 H 0.18765 0.70339 0.35736 0.0
H2958 H 0.17737 0.71312 0.28544 0.0
H2959 H 0.17795 0.7536 0.29101 0.0
H2960 H 0.14528 0.68669 0.30405 0.0
H2961 H 0.22993 0.65705 0.32999 0.0
H2962 H 0.21671 0.67485 0.35007 0.0
H2963 H 0.2241 0.68598 0.32315 0.0
C2964 C 0.18663 0.73761 0.34603 0.0
C2965 C 0.18311 0.75211 0.32753 0.0
C2966 C 0.18618 0.71429 0.34276 0.0
C2967 C 0.1825 0.70521 0.32094 0.0
C2968 C 0.18018 0.71974 0.30241 0.0
H2969 H 0.17701 0.56879 0.26832 0.0
H2970 H 0.18836 0.60719 0.27841 0.0
C2971 C 0.18048 0.74289 0.30565 0.0
C2972 C 0.17856 0.68083 0.31739 0.0
H2973 H 0.20246 0.62905 0.32192 0.0
C2974 C 0.15781 0.67411 0.30795 0.0
C2975 C 0.19497 0.66446 0.32234 0.0
C2976 C 0.21777 0.67086 0.33178 0.0
C2977 C 0.15297 0.65152 0.30337 0.0
C2978 C 0.16918 0.63507 0.30872 0.0
C2979 C 0.19003 0.64171 0.318 0.0
C2980 C 0.16446 0.61095 0.30462 0.0
C2981 C 0.13061 0.64546 0.2925 0.0
C2982 C 0.14774 0.60016 0.31648 0.0
C2983 C 0.14114 0.57835 0.31073 0.0
C2984 C 0.1512 0.56678 0.29301 0.0
C2985 C 0.1688 0.57723 0.28195 0.0
C2986 C 0.17537 0.59914 0.28772 0.0
H2987 H 0.12217 0.66026 0.28477 0.0
H2988 H 0.1324 0.63246 0.27919 0.0
H2989 H 0.11972 0.63856 0.30557 0.0
H2990 H 0.13931 0.60889 0.32978 0.0
H2991 H 0.12772 0.57079 0.31983 0.0
H2992 H 0.99748 0.59187 0.89748 0.0
H2993 H 0.9578 0.5972 0.90437 0.0
H2994 H 0.97284 0.60186 0.97613 0.0
H2995 H 0.01219 0.59613 0.96952 0.0
H2996 H 0.93532 0.57713 0.96754 0.0
H2997 H 0.93019 0.65699 0.91967 0.0
H2998 H 0.93912 0.63335 0.90352 0.0
H2999 H 0.95636 0.64364 0.92684 0.0
C3000 C 0.99233 0.59386 0.91474 0.0
C3001 C 0.00823 0.59375 0.93288 0.0
C3002 C 0.9696 0.59708 0.91866 0.0
C3003 C 0.96223 0.60039 0.94078 0.0
C3004 C 0.97798 0.59948 0.95891 0.0
H3005 H 0.84607 0.66858 0.98646 0.0
H3006 H 0.88273 0.6554 0.97647 0.0
C3007 C 1.0006 0.59624 0.95504 0.0
C3008 C 0.93835 0.60539 0.94529 0.0
H3009 H 0.89711 0.64389 0.93531 0.0
C3010 C 0.92692 0.59166 0.96037 0.0
C3011 C 0.92735 0.6245 0.93621 0.0
C3012 C 0.93888 0.64062 0.92082 0.0
C3013 C 0.90507 0.5966 0.96675 0.0
C3014 C 0.89406 0.61566 0.95759 0.0
C3015 C 0.90539 0.62921 0.94229 0.0
C3016 C 0.87142 0.6228 0.96464 0.0
C3017 C 0.89431 0.58183 0.98395 0.0
C3018 C 0.85257 0.60886 0.9616 0.0
C3019 C 0.83135 0.61636 0.9675 0.0
C3020 C 0.82847 0.63806 0.97639 0.0
C3021 C 0.84747 0.65178 0.97966 0.0
C3022 C 0.86857 0.64428 0.97386 0.0
H3023 H 0.90673 0.57131 0.99333 0.0
H3024 H 0.88524 0.59202 0.99635 0.0
H3025 H 0.88215 0.57049 0.97511 0.0
H3026 H 0.85413 0.59237 0.95415 0.0
H3027 H 0.81715 0.60538 0.96452 0.0
H3028 H 0.20592 0.81283 0.25386 0.0
H3029 H 0.20942 0.82205 0.21387 0.0
H3030 H 0.14184 0.84614 0.21082 0.0
H3031 H 0.13816 0.83659 0.25106 0.0
H3032 H 0.18005 0.81096 0.17181 0.0
H3033 H 0.18627 0.90108 0.19693 0.0
H3034 H 0.19148 0.87906 0.21731 0.0
H3035 H 0.16367 0.88411 0.20667 0.0
C3036 C 0.19157 0.81936 0.24445 0.0
C3037 C 0.17175 0.82386 0.2554 0.0
C3038 C 0.1936 0.82472 0.22167 0.0
C3039 C 0.17598 0.83499 0.20954 0.0
C3040 C 0.15563 0.83827 0.22 0.0
H3041 H 0.20527 0.88141 0.07142 0.0
H3042 H 0.18363 0.87815 0.10581 0.0
C3043 C 0.15347 0.83259 0.24284 0.0
C3044 C 0.18007 0.84389 0.18673 0.0
H3045 H 0.19771 0.89144 0.16052 0.0
C3046 C 0.18328 0.82863 0.16908 0.0
C3047 C 0.18443 0.86696 0.18336 0.0
C3048 C 0.18138 0.88389 0.20199 0.0
C3049 C 0.19185 0.83569 0.14851 0.0
C3050 C 0.19762 0.85849 0.14571 0.0
C3051 C 0.19319 0.874 0.1628 0.0
C3052 C 0.21114 0.86547 0.12655 0.0
C3053 C 0.19596 0.81854 0.13033 0.0
C3054 C 0.23391 0.86053 0.12733 0.0
C3055 C 0.2462 0.86231 0.10787 0.0
C3056 C 0.23594 0.86917 0.0873 0.0
C3057 C 0.21363 0.87625 0.08709 0.0
C3058 C 0.20122 0.87426 0.10664 0.0
H3059 H 0.18708 0.80252 0.13337 0.0
H3060 H 0.19057 0.82507 0.11343 0.0
H3061 H 0.21407 0.81504 0.12999 0.0
H3062 H 0.24182 0.85382 0.14262 0.0
H3063 H 0.26337 0.8568 0.10852 0.0
H3064 H 0.16339 0.18932 0.24779 0.0
H3065 H 0.16815 0.17811 0.28751 0.0
H3066 H 0.23548 0.15765 0.27571 0.0
H3067 H 0.23116 0.16931 0.23637 0.0
H3068 H 0.17702 0.13494 0.30188 0.0
H3069 H 0.24337 0.19304 0.33379 0.0
H3070 H 0.2279 0.19767 0.30748 0.0
H3071 H 0.25066 0.17816 0.30872 0.0
C3072 C 0.1794 0.18302 0.25381 0.0
C3073 C 0.19687 0.18015 0.23889 0.0
C3074 C 0.18203 0.17645 0.27645 0.0
C3075 C 0.20218 0.16711 0.28453 0.0
C3076 C 0.21991 0.16514 0.26993 0.0
H3077 H 0.24706 0.11682 0.4159 0.0
H3078 H 0.24143 0.11762 0.37462 0.0
C3079 C 0.21736 0.17176 0.24739 0.0
C3080 C 0.20429 0.15807 0.30779 0.0
H3081 H 0.23507 0.16214 0.35727 0.0
C3082 C 0.18966 0.14092 0.31404 0.0
C3083 C 0.22093 0.16577 0.3235 0.0
C3084 C 0.23647 0.18481 0.31814 0.0
C3085 C 0.19123 0.13129 0.33568 0.0
C3086 C 0.2078 0.13907 0.35136 0.0
C3087 C 0.22262 0.15596 0.345 0.0
C3088 C 0.20855 0.13215 0.37534 0.0
C3089 C 0.17519 0.11292 0.34165 0.0
C3090 C 0.19144 0.13896 0.38926 0.0
C3091 C 0.19467 0.13868 0.41273 0.0
C3092 C 0.21506 0.13159 0.42259 0.0
C3093 C 0.23118 0.12235 0.40873 0.0
C3094 C 0.22803 0.12288 0.38517 0.0
H3095 H 0.16776 0.10466 0.32626 0.0
H3096 H 0.18359 0.10005 0.35245 0.0
H3097 H 0.16148 0.12024 0.3513 0.0
H3098 H 0.1764 0.1464 0.38202 0.0
H3099 H 0.18193 0.14576 0.42308 0.0
H3100 H 0.42678 0.53616 0.01175 0.0
H3101 H 0.41512 0.52665 0.97276 0.0
H3102 H 0.40576 0.59679 0.95793 0.0
H3103 H 0.41799 0.60646 0.9966 0.0
H3104 H 0.37511 0.53396 0.95212 0.0
H3105 H 0.44015 0.57749 0.90441 0.0
H3106 H 0.44271 0.5732 0.9346 0.0
H3107 H 0.42597 0.59573 0.92322 0.0
C3108 C 0.42272 0.54959 4e-05 0.0
C3109 C 0.42352 0.57208 0.00727 0.0
C3110 C 0.41591 0.54413 0.97779 0.0
C3111 C 0.40971 0.56099 0.9623 0.0
C3112 C 0.41094 0.58349 0.96935 0.0
H3113 H 0.36419 0.55499 0.8204 0.0
H3114 H 0.36624 0.56647 0.86041 0.0
C3115 C 0.41797 0.58899 0.99152 0.0
C3116 C 0.40098 0.55494 0.93917 0.0
H3117 H 0.40923 0.56307 0.88289 0.0
C3118 C 0.3826 0.54032 0.93698 0.0
C3119 C 0.41066 0.5633 0.91939 0.0
C3120 C 0.43109 0.57812 0.92046 0.0
C3121 C 0.37373 0.53379 0.9156 0.0
C3122 C 0.38349 0.54207 0.8959 0.0
C3123 C 0.40158 0.55698 0.89805 0.0
C3124 C 0.37673 0.53397 0.87286 0.0
C3125 C 0.354 0.51809 0.91421 0.0
C3126 C 0.38102 0.5117 0.86675 0.0
C3127 C 0.37984 0.50519 0.844 0.0
C3128 C 0.37415 0.52078 0.82704 0.0
C3129 C 0.36802 0.54255 0.83326 0.0
C3130 C 0.36944 0.54915 0.85606 0.0
H3131 H 0.34489 0.51796 0.93024 0.0
H3132 H 0.34228 0.52281 0.90007 0.0
H3133 H 0.3599 0.50082 0.91098 0.0
H3134 H 0.38706 0.49982 0.87935 0.0
H3135 H 0.38518 0.48848 0.83948 0.0
H3136 H 0.79436 0.30559 0.25462 0.0
H3137 H 0.78365 0.30871 0.29407 0.0
H3138 H 0.84929 0.33363 0.31285 0.0
H3139 H 0.8604 0.32927 0.27353 0.0
H3140 H 0.83296 0.30924 0.34653 0.0
H3141 H 0.76927 0.37011 0.31628 0.0
H3142 H 0.765 0.34288 0.30395 0.0
H3143 H 0.78968 0.3587 0.29795 0.0
C3144 C 0.80663 0.31116 0.26733 0.0
C3145 C 0.82812 0.31733 0.26115 0.0
C3146 C 0.80047 0.31314 0.28979 0.0
C3147 C 0.81542 0.32216 0.30625 0.0
C3148 C 0.83741 0.32682 0.30039 0.0
H3149 H 0.77175 0.39607 0.42209 0.0
H3150 H 0.78711 0.38344 0.38662 0.0
C3151 C 0.84377 0.32428 0.27797 0.0
C3152 C 0.80759 0.32852 0.32893 0.0
H3153 H 0.76852 0.35986 0.35485 0.0
C3154 C 0.8189 0.32035 0.3484 0.0
C3155 C 0.78955 0.34344 0.33135 0.0
C3156 C 0.77783 0.35448 0.31129 0.0
C3157 C 0.81255 0.32653 0.37022 0.0
C3158 C 0.79392 0.34071 0.37259 0.0
C3159 C 0.78268 0.34886 0.35309 0.0
C3160 C 0.78607 0.34812 0.39497 0.0
C3161 C 0.82629 0.31836 0.39041 0.0
C3162 C 0.78041 0.33253 0.41161 0.0
C3163 C 0.77199 0.33981 0.43213 0.0
C3164 C 0.76852 0.36273 0.43613 0.0
C3165 C 0.77407 0.37827 0.41943 0.0
C3166 C 0.7829 0.37106 0.39916 0.0
H3167 H 0.84339 0.31375 0.38565 0.0
H3168 H 0.82753 0.33128 0.40397 0.0
H3169 H 0.81834 0.30317 0.39734 0.0
H3170 H 0.78203 0.31472 0.40857 0.0
H3171 H 0.76762 0.32748 0.44457 0.0
H3172 H 0.08418 0.47672 0.51432 0.0
H3173 H 0.09081 0.48718 0.47508 0.0
H3174 H 0.10336 0.41787 0.45895 0.0
H3175 H 0.09539 0.40727 0.49767 0.0
H3176 H 0.12569 0.48576 0.45267 0.0
H3177 H 0.06486 0.43207 0.40591 0.0
H3178 H 0.06452 0.43539 0.43622 0.0
H3179 H 0.08263 0.41513 0.42372 0.0
C3180 C 0.08793 0.4637 0.50224 0.0
C3181 C 0.08904 0.44116 0.50901 0.0
C3182 C 0.09179 0.46968 0.47981 0.0
C3183 C 0.09721 0.4533 0.46376 0.0
C3184 C 0.09841 0.43078 0.47062 0.0
H3185 H 0.17548 0.47994 0.34668 0.0
H3186 H 0.16151 0.47273 0.38412 0.0
C3187 C 0.09401 0.42474 0.49287 0.0
C3188 C 0.10312 0.45992 0.44037 0.0
H3189 H 0.0955 0.44571 0.38453 0.0
C3190 C 0.11881 0.47718 0.43778 0.0
C3191 C 0.09391 0.44916 0.42072 0.0
C3192 C 0.07537 0.43211 0.42179 0.0
C3193 C 0.12601 0.48346 0.41634 0.0
C3194 C 0.11816 0.47145 0.39688 0.0
C3195 C 0.10192 0.4547 0.39938 0.0
C3196 C 0.12669 0.47577 0.37388 0.0
C3197 C 0.14165 0.50322 0.41488 0.0
C3198 C 0.11186 0.47877 0.35519 0.0
C3199 C 0.11984 0.48216 0.33348 0.0
C3200 C 0.14285 0.48307 0.32997 0.0
C3201 C 0.15765 0.47983 0.34869 0.0
C3202 C 0.14966 0.47592 0.37027 0.0
H3203 H 0.13945 0.51513 0.42911 0.0
H3204 H 0.15909 0.4972 0.41608 0.0
H3205 H 0.13904 0.51244 0.39871 0.0
H3206 H 0.09405 0.47845 0.35736 0.0
H3207 H 0.10786 0.48393 0.31955 0.0
H3208 H 0.28068 0.17349 0.74607 0.0
H3209 H 0.27543 0.17241 0.70482 0.0
H3210 H 0.34303 0.19501 0.69766 0.0
H3211 H 0.34841 0.19648 0.73877 0.0
H3212 H 0.31135 0.21372 0.66543 0.0
H3213 H 0.307 0.12082 0.67155 0.0
H3214 H 0.28718 0.13563 0.68795 0.0
H3215 H 0.31641 0.13833 0.69497 0.0
C3216 C 0.29432 0.17859 0.73574 0.0
C3217 C 0.31511 0.18463 0.74568 0.0
C3218 C 0.29129 0.17793 0.71221 0.0
C3219 C 0.309 0.18322 0.69835 0.0
C3220 C 0.32923 0.19075 0.70816 0.0
H3221 H 0.32209 0.13034 0.56321 0.0
H3222 H 0.33012 0.14343 0.60192 0.0
C3223 C 0.33228 0.19147 0.73165 0.0
C3224 C 0.3072 0.17888 0.67378 0.0
H3225 H 0.30105 0.13651 0.63525 0.0
C3226 C 0.3091 0.19688 0.65874 0.0
C3227 C 0.30479 0.15681 0.66527 0.0
C3228 C 0.30392 0.13673 0.68072 0.0
C3229 C 0.30815 0.19337 0.63522 0.0
C3230 C 0.305 0.17135 0.62674 0.0
C3231 C 0.30348 0.15337 0.64184 0.0
C3232 C 0.30235 0.16639 0.6023 0.0
C3233 C 0.31079 0.21316 0.61971 0.0
C3234 C 0.28434 0.1753 0.58964 0.0
C3235 C 0.27974 0.16791 0.56755 0.0
C3236 C 0.29295 0.15128 0.55784 0.0
C3237 C 0.31154 0.14307 0.57025 0.0
C3238 C 0.31619 0.15056 0.59232 0.0
H3239 H 0.31954 0.22731 0.62853 0.0
H3240 H 0.32015 0.20849 0.60455 0.0
H3241 H 0.29408 0.21912 0.61391 0.0
H3242 H 0.27316 0.18712 0.5972 0.0
H3243 H 0.26517 0.17444 0.55856 0.0
H3244 H 0.41067 0.47507 0.48831 0.0
H3245 H 0.40505 0.48335 0.52818 0.0
H3246 H 0.42085 0.41498 0.54555 0.0
H3247 H 0.42624 0.40641 0.50557 0.0
H3248 H 0.38244 0.42887 0.56426 0.0
H3249 H 0.44861 0.49206 0.58173 0.0
H3250 H 0.43107 0.49887 0.5575 0.0
H3251 H 0.44818 0.47421 0.55696 0.0
C3252 C 0.41325 0.4618 0.50059 0.0
C3253 C 0.4189 0.44002 0.49359 0.0
C3254 C 0.41016 0.46664 0.52348 0.0
C3255 C 0.41279 0.44989 0.54 0.0
C3256 C 0.41882 0.42824 0.53316 0.0
H3257 H 0.40516 0.47276 0.68693 0.0
H3258 H 0.41838 0.46377 0.64919 0.0
C3259 C 0.42194 0.42337 0.51025 0.0
C3260 C 0.40767 0.45458 0.5641 0.0
H3261 H 0.42003 0.48962 0.60885 0.0
C3262 C 0.39082 0.44203 0.57404 0.0
C3263 C 0.41874 0.47156 0.57706 0.0
C3264 C 0.43782 0.48481 0.56787 0.0
C3265 C 0.38424 0.44646 0.59621 0.0
C3266 C 0.39453 0.46418 0.60876 0.0
C3267 C 0.41194 0.47623 0.59915 0.0
C3268 C 0.38698 0.47072 0.63161 0.0
C3269 C 0.36631 0.43206 0.60602 0.0
C3270 C 0.36512 0.47818 0.63426 0.0
C3271 C 0.35753 0.48339 0.65575 0.0
C3272 C 0.37165 0.4814 0.67519 0.0
C3273 C 0.3938 0.47456 0.67242 0.0
C3274 C 0.40139 0.46936 0.65083 0.0
H3275 H 0.36459 0.41572 0.59704 0.0
H3276 H 0.36985 0.42885 0.6243 0.0
H3277 H 0.35012 0.44087 0.60424 0.0
H3278 H 0.35381 0.47983 0.61966 0.0
H3279 H 0.34044 0.48875 0.65708 0.0
H3280 H 0.58461 0.09466 0.50928 0.0
H3281 H 0.59825 0.084 0.54706 0.0
H3282 H 0.60722 0.01604 0.52414 0.0
H3283 H 0.59411 0.02667 0.48599 0.0
H3284 H 0.584 0.05414 0.57711 0.0
H3285 H 0.66858 0.03077 0.55109 0.0
H3286 H 0.64907 0.04542 0.53257 0.0
H3287 H 0.6467 0.0156 0.53623 0.0
C3288 C 0.5892 0.07735 0.51227 0.0
C3289 C 0.58846 0.06156 0.49451 0.0
C3290 C 0.59713 0.07133 0.53388 0.0
C3291 C 0.60438 0.0494 0.53823 0.0
C3292 C 0.60241 0.03324 0.52094 0.0
H3293 H 0.6265 0.98305 0.66353 0.0
H3294 H 0.6253 0.9918 0.62309 0.0
C3295 C 0.59463 0.03929 0.49923 0.0
C3296 C 0.61373 0.04353 0.56099 0.0
H3297 H 0.65961 0.02211 0.58915 0.0
C3298 C 0.60059 0.04731 0.57973 0.0
C3299 C 0.6355 0.03479 0.56438 0.0
C3300 C 0.65089 0.0316 0.54503 0.0
C3301 C 0.60838 0.04211 0.6017 0.0
C3302 C 0.62985 0.03285 0.60501 0.0
C3303 C 0.64318 0.02926 0.58642 0.0
C3304 C 0.63768 0.02563 0.62776 0.0
C3305 C 0.59349 0.04615 0.62133 0.0
C3306 C 0.64638 0.04136 0.64348 0.0
C3307 C 0.64739 0.03625 0.66661 0.0
C3308 C 0.63946 0.0155 0.67403 0.0
C3309 C 0.63294 0.99906 0.65806 0.0
C3310 C 0.63218 0.00405 0.63501 0.0
H3311 H 0.57715 0.05334 0.61584 0.0
H3312 H 0.59052 0.03015 0.6303 0.0
H3313 H 0.60181 0.05784 0.63364 0.0
H3314 H 0.65051 0.05816 0.63809 0.0
H3315 H 0.65208 0.04926 0.67872 0.0
H3316 H 0.75721 0.72169 0.347 0.0
H3317 H 0.71841 0.72695 0.3559 0.0
H3318 H 0.70318 0.65971 0.33308 0.0
H3319 H 0.74241 0.65399 0.32459 0.0
H3320 H 0.68123 0.72569 0.32932 0.0
H3321 H 0.67675 0.66007 0.39536 0.0
H3322 H 0.70278 0.66947 0.38433 0.0
H3323 H 0.68548 0.64988 0.36849 0.0
C3324 C 0.74569 0.70793 0.34381 0.0
C3325 C 0.75305 0.68731 0.33521 0.0
C3326 C 0.72345 0.71101 0.34895 0.0
C3327 C 0.70794 0.6936 0.34565 0.0
C3328 C 0.71497 0.6732 0.33636 0.0
H3329 H 0.56636 0.68526 0.3493 0.0
H3330 H 0.60623 0.67777 0.3497 0.0
C3331 C 0.73736 0.67004 0.33126 0.0
C3332 C 0.68437 0.69724 0.35151 0.0
H3333 H 0.64262 0.67755 0.38396 0.0
C3334 C 0.67286 0.71527 0.34141 0.0
C3335 C 0.67348 0.6837 0.36739 0.0
C3336 C 0.68529 0.66482 0.37971 0.0
C3337 C 0.65065 0.71979 0.34628 0.0
C3338 C 0.63968 0.70609 0.36191 0.0
C3339 C 0.65117 0.68814 0.37215 0.0
C3340 C 0.61568 0.70903 0.36605 0.0
C3341 C 0.63882 0.73877 0.3341 0.0
C3342 C 0.6077 0.7286 0.37625 0.0
C3343 C 0.58478 0.73291 0.37618 0.0
C3344 C 0.56963 0.71778 0.3657 0.0
C3345 C 0.57765 0.69738 0.35725 0.0
C3346 C 0.60044 0.69303 0.35749 0.0
H3347 H 0.64848 0.74535 0.31987 0.0
H3348 H 0.62221 0.7332 0.32734 0.0
H3349 H 0.63626 0.7527 0.3462 0.0
H3350 H 0.61925 0.74102 0.38322 0.0
H3351 H 0.57909 0.74874 0.38285 0.0
H3352 H 0.97843 0.99479 0.90901 0.0
H3353 H 0.98779 0.03316 0.89842 0.0
H3354 H 0.91826 0.05062 0.89682 0.0
H3355 H 0.90865 0.01219 0.90739 0.0
H3356 H 0.94282 0.06364 0.85692 0.0
H3357 H 0.98461 0.0908 0.93794 0.0
H3358 H 0.99399 0.06455 0.9268 0.0
H3359 H 0.96598 0.06698 0.93604 0.0
C3360 C 0.9651 0.00682 0.90671 0.0
C3361 C 0.94276 1.00035 0.90913 0.0
C3362 C 0.97051 0.02878 0.90066 0.0
C3363 C 0.95373 0.04476 0.89688 0.0
C3364 C 0.93146 0.03853 0.89964 0.0
H3365 H 0.95256 0.18503 0.85791 0.0
H3366 H 0.94313 0.14513 0.86036 0.0
C3367 C 0.92602 0.01658 0.90586 0.0
C3368 C 0.95949 0.06781 0.88955 0.0
H3369 H 0.98743 0.11513 0.90674 0.0
C3370 C 0.95252 0.07497 0.8678 0.0
C3371 C 0.9722 0.0825 0.90373 0.0
C3372 C 0.97952 0.07598 0.92751 0.0
C3373 C 0.95831 0.09631 0.85969 0.0
C3374 C 0.97105 0.11103 0.8739 0.0
C3375 C 0.97786 0.10383 0.89571 0.0
C3376 C 0.97707 0.13426 0.86709 0.0
C3377 C 0.95117 0.10266 0.83583 0.0
C3378 C 0.99933 0.14149 0.86929 0.0
C3379 C 1.00465 0.16427 0.86803 0.0
C3380 C 0.98786 0.18025 0.86426 0.0
C3381 C 0.96586 0.17294 0.86011 0.0
C3382 C 0.96047 0.15011 0.86165 0.0
H3383 H 0.94786 0.0876 0.8251 0.0
H3384 H 0.93553 0.11245 0.83623 0.0
H3385 H 0.964 0.11312 0.82783 0.0
H3386 H 0.01244 0.12964 0.87352 0.0
H3387 H 0.02166 0.16958 0.8718 0.0
H3388 H 0.25091 0.78946 0.32621 0.0
H3389 H 0.29137 0.78621 0.3282 0.0
H3390 H 0.29775 0.85781 0.32133 0.0
H3391 H 0.25695 0.86132 0.31932 0.0
H3392 H 0.33026 0.82466 0.29551 0.0
H3393 H 0.32377 0.81462 0.38864 0.0
H3394 H 0.30476 0.79822 0.37105 0.0
H3395 H 0.30247 0.8282 0.37129 0.0
C3396 C 0.26086 0.80453 0.32472 0.0
C3397 C 0.2507 0.8257 0.32288 0.0
C3398 C 0.28398 0.80261 0.32581 0.0
C3399 C 0.29747 0.82177 0.32512 0.0
C3400 C 0.28754 0.84283 0.32187 0.0
H3401 H 0.43308 0.82147 0.38155 0.0
H3402 H 0.39544 0.8325 0.36952 0.0
C3403 C 0.26426 0.8448 0.3207 0.0
C3404 C 0.32167 0.81969 0.33017 0.0
H3405 H 0.35872 0.80713 0.37335 0.0
C3406 C 0.3366 0.82105 0.31253 0.0
C3407 C 0.32981 0.81515 0.35242 0.0
C3408 C 0.31446 0.81409 0.37205 0.0
C3409 C 0.35953 0.81736 0.31653 0.0
C3410 C 0.36755 0.81191 0.33868 0.0
C3411 C 0.3526 0.81121 0.35636 0.0
C3412 C 0.39127 0.8065 0.34408 0.0
C3413 C 0.37495 0.81941 0.29706 0.0
C3414 C 0.40156 0.78824 0.33372 0.0
C3415 C 0.42317 0.78188 0.34055 0.0
C3416 C 0.43483 0.79352 0.35806 0.0
C3417 C 0.42459 0.81204 0.3681 0.0
C3418 C 0.40306 0.81842 0.3612 0.0
H3419 H 0.36755 0.82986 0.28321 0.0
H3420 H 0.39119 0.82685 0.30272 0.0
H3421 H 0.37806 0.80249 0.29004 0.0
H3422 H 0.39262 0.77842 0.32086 0.0
H3423 H 0.43045 0.76743 0.33258 0.0
H3424 H 0.0987 0.50065 0.92074 0.0
H3425 H 0.08839 0.4613 0.91511 0.0
H3426 H 0.02258 0.48094 0.89174 0.0
H3427 H 0.03264 0.52043 0.89744 0.0
H3428 H 0.02395 0.44337 0.92282 0.0
H3429 H 0.08052 0.43296 0.85117 0.0
H3430 H 0.09326 0.44391 0.87691 0.0
H3431 H 0.07262 0.46014 0.86162 0.0
C3432 C 0.082 0.49667 0.91444 0.0
C3433 C 0.06659 0.51379 0.9093 0.0
C3434 C 0.07616 0.47413 0.91122 0.0
C3435 C 0.05481 0.46821 0.90276 0.0
C3436 C 0.03917 0.48516 0.89823 0.0
H3437 H 0.0092 0.34977 0.83375 0.0
H3438 H 0.0182 0.3873 0.84749 0.0
C3439 C 0.04499 0.50774 0.90142 0.0
C3440 C 0.04907 0.44442 0.8978 0.0
H3441 H 0.06142 0.40074 0.86301 0.0
C3442 C 0.03218 0.43398 0.90983 0.0
C3443 C 0.05975 0.43228 0.88072 0.0
C3444 C 0.07743 0.44287 0.86669 0.0
C3445 C 0.02565 0.4117 0.90514 0.0
C3446 C 0.03637 0.39959 0.88809 0.0
C3447 C 0.05334 0.41002 0.8762 0.0
C3448 C 0.02926 0.37668 0.88098 0.0
C3449 C 0.00692 0.40146 0.91795 0.0
C3450 C 0.03221 0.35814 0.89538 0.0
C3451 C 0.02705 0.33641 0.88754 0.0
C3452 C 0.01897 0.33292 0.86512 0.0
C3453 C 0.01551 0.35169 0.85106 0.0
C3454 C 0.02064 0.37325 0.85888 0.0
H3455 H 0.99795 0.41417 0.9279 0.0
H3456 H 0.99482 0.39296 0.9061 0.0
H3457 H 0.01377 0.38865 0.92983 0.0
H3458 H 0.03911 0.36039 0.91244 0.0
H3459 H 0.03005 0.32237 0.89877 0.0
H3460 H 0.76519 0.28644 0.16764 0.0
H3461 H 0.72563 0.2833 0.15806 0.0
H3462 H 0.71616 0.35192 0.17864 0.0
H3463 H 0.75621 0.35548 0.18779 0.0
H3464 H 0.68968 0.28795 0.18361 0.0
H3465 H 0.6879 0.3513 0.11485 0.0
H3466 H 0.71355 0.34045 0.12722 0.0
H3467 H 0.69831 0.36153 0.14186 0.0
C3468 C 0.75477 0.30093 0.17023 0.0
C3469 C 0.76394 0.32132 0.17827 0.0
C3470 C 0.73211 0.29907 0.16472 0.0
C3471 C 0.71803 0.3175 0.16713 0.0
C3472 C 0.72686 0.33765 0.17609 0.0
H3473 H 0.57639 0.32927 0.15627 0.0
H3474 H 0.61637 0.33673 0.15781 0.0
C3475 C 0.74968 0.33958 0.18158 0.0
C3476 C 0.69412 0.31521 0.1604 0.0
H3477 H 0.65317 0.33546 0.12442 0.0
C3478 C 0.68174 0.29828 0.17059 0.0
C3479 C 0.68384 0.32863 0.1433 0.0
C3480 C 0.69659 0.34638 0.13099 0.0
C3481 C 0.6593 0.29457 0.16442 0.0
C3482 C 0.649 0.30803 0.14743 0.0
C3483 C 0.66127 0.32504 0.13725 0.0
C3484 C 0.625 0.30562 0.14156 0.0
C3485 C 0.64656 0.27661 0.17647 0.0
C3486 C 0.61661 0.28619 0.13072 0.0
C3487 C 0.59367 0.2819 0.12968 0.0
C3488 C 0.57898 0.2969 0.13972 0.0
C3489 C 0.58736 0.31726 0.14866 0.0
C3490 C 0.61018 0.3216 0.14951 0.0
H3491 H 0.65604 0.27002 0.19151 0.0
H3492 H 0.6304 0.28321 0.18202 0.0
H3493 H 0.64299 0.26245 0.16464 0.0
H3494 H 0.62788 0.27376 0.12431 0.0
H3495 H 0.58768 0.26611 0.12264 0.0
H3496 H 0.53443 0.99638 0.08135 0.0
H3497 H 0.52606 0.03609 0.08649 0.0
H3498 H 0.59494 0.0489 0.10556 0.0
H3499 H 0.60355 0.00939 0.09921 0.0
H3500 H 0.52684 0.05985 0.12185 0.0
H3501 H 0.58555 0.1007 0.06523 0.0
H3502 H 0.58075 0.07085 0.06469 0.0
H3503 H 0.60017 0.08311 0.08523 0.0
C3504 C 0.54788 0.00774 0.08626 0.0
C3505 C 0.56969 0.99969 0.08975 0.0
C3506 C 0.54307 0.03051 0.08926 0.0
C3507 C 0.55987 0.04584 0.09613 0.0
C3508 C 0.58172 0.03778 0.09954 0.0
H3509 H 0.53359 0.16638 0.17186 0.0
H3510 H 0.54154 0.12899 0.1581 0.0
C3511 C 0.58663 0.01506 0.09607 0.0
C3512 C 0.55411 0.06973 0.10134 0.0
H3513 H 0.57011 0.12429 0.09376 0.0
C3514 C 0.53622 0.07388 0.11543 0.0
C3515 C 0.5659 0.08833 0.09275 0.0
C3516 C 0.58398 0.08553 0.07594 0.0
C3517 C 0.53024 0.09576 0.12164 0.0
C3518 C 0.54304 0.11424 0.11441 0.0
C3519 C 0.56047 0.11022 0.0997 0.0
C3520 C 0.539 0.13764 0.12255 0.0
C3521 C 0.50994 0.09874 0.13564 0.0
C3522 C 0.53605 0.15558 0.10731 0.0
C3523 C 0.53194 0.17739 0.11523 0.0
C3524 C 0.53051 0.18173 0.13859 0.0
C3525 C 0.53405 0.16378 0.15373 0.0
C3526 C 0.53847 0.14219 0.14586 0.0
H3527 H 0.49788 0.08477 0.13274 0.0
H3528 H 0.51506 0.09869 0.15387 0.0
H3529 H 0.50132 0.11476 0.13169 0.0
H3530 H 0.53667 0.15267 0.08924 0.0
H3531 H 0.52974 0.19072 0.10303 0.0
H3532 H 0.25983 0.21848 0.14991 0.0
H3533 H 0.30008 0.22257 0.14893 0.0
H3534 H 0.30832 0.15407 0.17049 0.0
H3535 H 0.26765 0.14974 0.17167 0.0
H3536 H 0.33897 0.18685 0.19241 0.0
H3537 H 0.33618 0.19249 0.09865 0.0
H3538 H 0.31768 0.21147 0.11214 0.0
H3539 H 0.31323 0.18175 0.11429 0.0
C3540 C 0.27009 0.2042 0.15452 0.0
C3541 C 0.26041 0.18364 0.16058 0.0
C3542 C 0.29315 0.20661 0.15393 0.0
C3543 C 0.30717 0.18854 0.15927 0.0
C3544 C 0.29775 0.1682 0.16618 0.0
H3545 H 0.44446 0.18971 0.11764 0.0
H3546 H 0.40654 0.17854 0.12587 0.0
C3547 C 0.27452 0.16574 0.16681 0.0
C3548 C 0.33156 0.19097 0.15675 0.0
H3549 H 0.37016 0.20316 0.11761 0.0
C3550 C 0.34588 0.1902 0.17606 0.0
C3551 C 0.34056 0.19509 0.13536 0.0
C3552 C 0.32617 0.19506 0.11387 0.0
C3553 C 0.3689 0.19418 0.1746 0.0
C3554 C 0.37773 0.19933 0.15332 0.0
C3555 C 0.36343 0.1994 0.13397 0.0
C3556 C 0.40165 0.20483 0.15047 0.0
C3557 C 0.38355 0.19268 0.19581 0.0
C3558 C 0.41173 0.22323 0.16175 0.0
C3559 C 0.43357 0.22965 0.15715 0.0
C3560 C 0.44565 0.21795 0.14095 0.0
C3561 C 0.43566 0.19921 0.13012 0.0
C3562 C 0.41394 0.19276 0.13482 0.0
H3563 H 0.37569 0.18236 0.20897 0.0
H3564 H 0.40001 0.18538 0.19217 0.0
H3565 H 0.38631 0.20976 0.20288 0.0
H3566 H 0.40246 0.23315 0.17352 0.0
H3567 H 0.44066 0.24424 0.1657 0.0
H3568 H 0.47772 0.52268 0.11201 0.0
H3569 H 0.48648 0.48406 0.12257 0.0
H3570 H 0.42337 0.462 0.09334 0.0
H3571 H 0.41435 0.5007 0.08269 0.0
H3572 H 0.46108 0.45379 0.15092 0.0
H3573 H 0.47077 0.42178 0.06328 0.0
H3574 H 0.47161 0.45132 0.07004 0.0
H3575 H 0.44547 0.43665 0.0684 0.0
C3576 C 0.4657 0.50966 0.10763 0.0
C3577 C 0.44532 0.51492 0.09635 0.0
C3578 C 0.47071 0.48755 0.11384 0.0
C3579 C 0.45563 0.47009 0.10874 0.0
C3580 C 0.43535 0.47517 0.09732 0.0
H3581 H 0.46318 0.32845 0.15003 0.0
H3582 H 0.45172 0.36805 0.14842 0.0
C3583 C 0.43023 0.49733 0.09121 0.0
C3584 C 0.46134 0.4466 0.11519 0.0
H3585 H 0.47462 0.39565 0.09292 0.0
C3586 C 0.46391 0.44102 0.13826 0.0
C3587 C 0.46518 0.42998 0.09867 0.0
C3588 C 0.4633 0.43513 0.07369 0.0
C3589 C 0.47026 0.41928 0.14519 0.0
C3590 C 0.47421 0.40276 0.12864 0.0
C3591 C 0.47149 0.40832 0.10561 0.0
C3592 C 0.48243 0.3799 0.13454 0.0
C3593 C 0.47332 0.4142 0.17007 0.0
C3594 C 0.50378 0.37358 0.12824 0.0
C3595 C 0.51034 0.35116 0.12934 0.0
C3596 C 0.4957 0.33449 0.13671 0.0
C3597 C 0.47498 0.341 0.14479 0.0
C3598 C 0.46836 0.36359 0.14366 0.0
H3599 H 0.47191 0.42946 0.18075 0.0
H3600 H 0.46045 0.40195 0.17504 0.0
H3601 H 0.48985 0.40646 0.17357 0.0
H3602 H 0.51492 0.38581 0.12118 0.0
H3603 H 0.52629 0.34657 0.12274 0.0
H3604 H 0.32926 0.74547 0.71976 0.0
H3605 H 0.33011 0.70458 0.72033 0.0
H3606 H 0.32988 0.70306 0.64739 0.0
H3607 H 0.32905 0.74417 0.64654 0.0
H3608 H 0.30064 0.66745 0.67734 0.0
H3609 H 0.39212 0.67615 0.69397 0.0
H3610 H 0.37417 0.69434 0.70937 0.0
H3611 H 0.3759 0.6974 0.67931 0.0
C3612 C 0.32898 0.7365 0.70378 0.0
C3613 C 0.32942 0.74809 0.6831 0.0
C3614 C 0.32937 0.71314 0.70417 0.0
C3615 C 0.33015 0.70096 0.68392 0.0
C3616 C 0.32919 0.7123 0.66316 0.0
H3617 H 0.385 0.56678 0.68105 0.0
H3618 H 0.37255 0.60404 0.66949 0.0
C3619 C 0.32876 0.73575 0.66273 0.0
C3620 C 0.33476 0.67672 0.68479 0.0
H3621 H 0.37668 0.64003 0.69725 0.0
C3622 C 0.31726 0.66133 0.68146 0.0
C3623 C 0.3565 0.66897 0.68998 0.0
C3624 C 0.37587 0.68498 0.69327 0.0
C3625 C 0.32092 0.63818 0.68384 0.0
C3626 C 0.34255 0.63047 0.68995 0.0
C3627 C 0.36011 0.64595 0.69257 0.0
C3628 C 0.34747 0.60661 0.6947 0.0
C3629 C 0.30166 0.62221 0.67979 0.0
C3630 C 0.33724 0.59553 0.7125 0.0
C3631 C 0.34429 0.57417 0.71916 0.0
C3632 C 0.3619 0.56363 0.70829 0.0
C3633 C 0.37151 0.57445 0.6899 0.0
C3634 C 0.36438 0.59574 0.68321 0.0
H3635 H 0.28831 0.62982 0.66885 0.0
H3636 H 0.30716 0.60642 0.67177 0.0
H3637 H 0.29442 0.61798 0.69626 0.0
H3638 H 0.3245 0.60379 0.72194 0.0
H3639 H 0.33653 0.56634 0.7334 0.0
H3640 H 0.0094 0.40221 0.53365 0.0
H3641 H 0.97033 0.39087 0.52812 0.0
H3642 H 0.95609 0.41756 0.59388 0.0
H3643 H 0.99492 0.42909 0.59951 0.0
H3644 H 0.94633 0.3608 0.55608 0.0
H3645 H 0.90733 0.44484 0.55216 0.0
H3646 H 0.93669 0.44065 0.54839 0.0
H3647 H 0.92585 0.44094 0.57635 0.0
C3648 C 0.99789 0.40607 0.54677 0.0
C3649 C 0.00536 0.41666 0.56702 0.0
C3650 C 0.97558 0.3994 0.54364 0.0
C3651 C 0.96026 0.40343 0.56055 0.0
C3652 C 0.96753 0.41451 0.58048 0.0
H3653 H 0.82054 0.3849 0.57941 0.0
H3654 H 0.86083 0.38757 0.58585 0.0
C3655 C 0.98979 0.4211 0.58367 0.0
C3656 C 0.93681 0.39551 0.5578 0.0
H3657 H 0.88309 0.41384 0.55672 0.0
C3658 C 0.93247 0.37237 0.55606 0.0
C3659 C 0.91875 0.4106 0.55776 0.0
C3660 C 0.92231 0.43565 0.55855 0.0
C3661 C 0.91051 0.36393 0.55501 0.0
C3662 C 0.89247 0.37904 0.5554 0.0
C3663 C 0.89689 0.40218 0.55672 0.0
C3664 C 0.86873 0.37167 0.55419 0.0
C3665 C 0.90685 0.33892 0.55411 0.0
C3666 C 0.8597 0.36048 0.53494 0.0
C3667 C 0.83654 0.35849 0.53148 0.0
C3668 C 0.82215 0.36803 0.54703 0.0
C3669 C 0.83126 0.37723 0.56726 0.0
C3670 C 0.8543 0.37897 0.57083 0.0
H3671 H 0.92193 0.32964 0.56007 0.0
H3672 H 0.89269 0.33392 0.56458 0.0
H3673 H 0.90286 0.3338 0.53635 0.0
H3674 H 0.87041 0.35497 0.52169 0.0
H3675 H 0.82999 0.35174 0.51553 0.0
H3676 H 0.67721 0.7638 0.62972 0.0
H3677 H 0.66719 0.8032 0.63585 0.0
H3678 H 0.68937 0.79796 0.7059 0.0
H3679 H 0.69975 0.75907 0.69978 0.0
H3680 H 0.63535 0.81696 0.66498 0.0
H3681 H 0.71564 0.85748 0.68931 0.0
H3682 H 0.71407 0.8304 0.67563 0.0
H3683 H 0.71099 0.83282 0.70576 0.0
C3684 C 0.6808 0.77138 0.64615 0.0
C3685 C 0.68945 0.75843 0.66423 0.0
C3686 C 0.6748 0.79378 0.64972 0.0
C3687 C 0.67764 0.80361 0.67131 0.0
C3688 C 0.6874 0.79097 0.68899 0.0
H3689 H 0.63437 0.91972 0.74463 0.0
H3690 H 0.63898 0.88074 0.73207 0.0
C3691 C 0.69333 0.76869 0.68548 0.0
C3692 C 0.66869 0.82624 0.67617 0.0
H3693 H 0.68269 0.87654 0.70065 0.0
C3694 C 0.64576 0.8301 0.6725 0.0
C3695 C 0.68224 0.84339 0.68604 0.0
C3696 C 0.70713 0.84091 0.6892 0.0
C3697 C 0.63598 0.85038 0.67908 0.0
C3698 C 0.64943 0.86706 0.68968 0.0
C3699 C 0.67237 0.86345 0.69291 0.0
C3700 C 0.6405 0.88903 0.69655 0.0
C3701 C 0.61135 0.85388 0.67507 0.0
C3702 C 0.63879 0.9063 0.68059 0.0
C3703 C 0.63628 0.92845 0.68773 0.0
C3704 C 0.63527 0.93363 0.7109 0.0
C3705 C 0.63467 0.9161 0.72666 0.0
C3706 C 0.63751 0.89389 0.71952 0.0
H3707 H 0.60287 0.83874 0.66786 0.0
H3708 H 0.60363 0.8584 0.69125 0.0
H3709 H 0.60857 0.86808 0.66322 0.0
H3710 H 0.64124 0.90288 0.66284 0.0
H3711 H 0.63709 0.94173 0.6753 0.0
H3712 H 0.99953 0.09198 0.53596 0.0
H3713 H 0.03759 0.10188 0.52707 0.0
H3714 H 0.0522 0.11726 0.59745 0.0
H3715 H 0.01399 0.10668 0.60658 0.0
H3716 H 0.05738 0.14158 0.53078 0.0
H3717 H 0.10609 0.08102 0.58349 0.0
H3718 H 0.0764 0.07837 0.57861 0.0
H3719 H 0.08755 0.09815 0.59912 0.0
C3720 C 0.01091 0.0971 0.54968 0.0
C3721 C 1.00364 0.09843 0.57203 0.0
C3722 C 0.03273 0.10288 0.54453 0.0
C3723 C 0.04802 0.11029 0.56151 0.0
C3724 C 0.041 0.11119 0.58401 0.0
H3725 H 0.18834 0.15077 0.54523 0.0
H3726 H 0.15045 0.14992 0.55973 0.0
C3727 C 0.01909 0.10513 0.58925 0.0
C3728 C 0.07077 0.11794 0.55514 0.0
H3729 H 0.12654 0.10798 0.56362 0.0
C3730 C 0.07247 0.13423 0.53808 0.0
C3731 C 0.09064 0.10858 0.56464 0.0
C3732 C 0.09018 0.09042 0.58233 0.0
C3733 C 0.09321 0.14102 0.53001 0.0
C3734 C 0.11298 0.13127 0.53911 0.0
C3735 C 0.11142 0.11557 0.5567 0.0
C3736 C 0.13518 0.13552 0.52926 0.0
C3737 C 0.0938 0.15849 0.51166 0.0
C3738 C 0.13916 0.12842 0.50708 0.0
C3739 C 0.16072 0.12892 0.49884 0.0
C3740 C 0.17879 0.13683 0.51244 0.0
C3741 C 0.17463 0.14529 0.53411 0.0
C3742 C 0.15304 0.14448 0.54252 0.0
H3743 H 0.07837 0.16869 0.51093 0.0
H3744 H 0.10836 0.16985 0.51431 0.0
H3745 H 0.09528 0.15004 0.49503 0.0
H3746 H 0.12584 0.1211 0.49662 0.0
H3747 H 0.16354 0.12168 0.48235 0.0
H3748 H 0.33459 0.26008 0.85559 0.0
H3749 H 0.34683 0.29924 0.85373 0.0
H3750 H 0.35183 0.29341 0.78134 0.0
H3751 H 0.33966 0.25442 0.78293 0.0
H3752 H 0.39113 0.31151 0.80606 0.0
H3753 H 0.3118 0.35373 0.8264 0.0
H3754 H 0.32116 0.3317 0.84511 0.0
H3755 H 0.31263 0.32512 0.81642 0.0
C3756 C 0.33788 0.26725 0.83922 0.0
C3757 C 0.33619 0.2541 0.81942 0.0
C3758 C 0.34497 0.28957 0.83822 0.0
C3759 C 0.35032 0.29908 0.81741 0.0
C3760 C 0.34792 0.28626 0.79756 0.0
H3761 H 0.38918 0.42252 0.75929 0.0
H3762 H 0.38899 0.38301 0.77023 0.0
C3763 C 0.34084 0.26403 0.79852 0.0
C3764 C 0.35879 0.32228 0.81617 0.0
H3765 H 0.34273 0.37671 0.8204 0.0
C3766 C 0.38067 0.32584 0.80936 0.0
C3767 C 0.34508 0.3408 0.82057 0.0
C3768 C 0.3213 0.33781 0.82739 0.0
C3769 C 0.38916 0.34759 0.80661 0.0
C3770 C 0.37521 0.36613 0.81037 0.0
C3771 C 0.35349 0.36248 0.81769 0.0
C3772 C 0.38181 0.38949 0.80533 0.0
C3773 C 0.41291 0.35046 0.79974 0.0
C3774 C 0.37881 0.40629 0.8216 0.0
C3775 C 0.37848 0.42875 0.81524 0.0
C3776 C 0.38142 0.43477 0.7926 0.0
C3777 C 0.38705 0.41824 0.77689 0.0
C3778 C 0.38698 0.39565 0.78317 0.0
H3779 H 0.42327 0.3359 0.80511 0.0
H3780 H 0.41325 0.35159 0.78101 0.0
H3781 H 0.4205 0.36597 0.80711 0.0
H3782 H 0.37492 0.40192 0.8388 0.0
H3783 H 0.37421 0.44129 0.82765 0.0
H3784 H 0.5103 0.4225 0.4012 0.0
H3785 H 0.54969 0.41579 0.4101 0.0
H3786 H 0.53469 0.40202 0.47951 0.0
H3787 H 0.49509 0.40818 0.47064 0.0
H3788 H 0.58036 0.43482 0.43946 0.0
H3789 H 0.56712 0.34566 0.46181 0.0
H3790 H 0.5456 0.36246 0.44834 0.0
H3791 H 0.55146 0.36484 0.47834 0.0
C3792 C 0.51532 0.41813 0.41841 0.0
C3793 C 0.4994 0.41562 0.43513 0.0
C3794 C 0.53791 0.41433 0.42347 0.0
C3795 C 0.54516 0.40795 0.44536 0.0
C3796 C 0.52946 0.40637 0.46235 0.0
H3797 H 0.68354 0.40107 0.49621 0.0
H3798 H 0.64595 0.4138 0.48578 0.0
C3799 C 0.50681 0.41003 0.45727 0.0
C3800 C 0.56902 0.40239 0.45014 0.0
H3801 H 0.60343 0.36024 0.46845 0.0
C3802 C 0.58543 0.41851 0.44579 0.0
C3803 C 0.57569 0.38097 0.45802 0.0
C3804 C 0.55909 0.3624 0.4617 0.0
C3805 C 0.60825 0.41388 0.44931 0.0
C3806 C 0.61486 0.39268 0.45783 0.0
C3807 C 0.59843 0.37654 0.46203 0.0
C3808 C 0.63864 0.38655 0.46233 0.0
C3809 C 0.62504 0.43157 0.44334 0.0
C3810 C 0.64722 0.36702 0.45264 0.0
C3811 C 0.66863 0.35957 0.45878 0.0
C3812 C 0.68203 0.3715 0.47474 0.0
C3813 C 0.67382 0.39161 0.48366 0.0
C3814 C 0.65228 0.39896 0.47767 0.0
H3815 H 0.61784 0.44385 0.43104 0.0
H3816 H 0.63036 0.44089 0.45891 0.0
H3817 H 0.64 0.42394 0.43603 0.0
H3818 H 0.63708 0.35716 0.44075 0.0
H3819 H 0.67439 0.34404 0.45153 0.0
H3820 H 0.67676 0.25286 0.7931 0.0
H3821 H 0.675 0.2123 0.78821 0.0
H3822 H 0.68659 0.20342 0.86004 0.0
H3823 H 0.68847 0.24436 0.86519 0.0
H3824 H 0.70985 0.17118 0.82709 0.0
H3825 H 0.61823 0.17973 0.81412 0.0
H3826 H 0.6347 0.19832 0.79759 0.0
H3827 H 0.63531 0.2011 0.82788 0.0
C3828 C 0.67926 0.24234 0.80789 0.0
C3829 C 0.68244 0.25184 0.8296 0.0
C3830 C 0.67829 0.21915 0.80502 0.0
C3831 C 0.68038 0.20493 0.82378 0.0
C3832 C 0.68492 0.21419 0.84536 0.0
H3833 H 0.62579 0.07019 0.81854 0.0
H3834 H 0.63785 0.10748 0.83079 0.0
C3835 C 0.68599 0.23754 0.84827 0.0
C3836 C 0.6757 0.18069 0.82078 0.0
H3837 H 0.6337 0.14451 0.80535 0.0
C3838 C 0.6932 0.16523 0.82255 0.0
C3839 C 0.65392 0.17302 0.81505 0.0
C3840 C 0.63438 0.18883 0.8137 0.0
C3841 C 0.68953 0.14228 0.81808 0.0
C3842 C 0.66787 0.13477 0.81144 0.0
C3843 C 0.65033 0.15024 0.81031 0.0
C3844 C 0.66272 0.11104 0.80548 0.0
C3845 C 0.7088 0.12628 0.82066 0.0
C3846 C 0.67286 0.10044 0.78727 0.0
C3847 C 0.66603 0.07895 0.78022 0.0
C3848 C 0.64872 0.06781 0.79106 0.0
C3849 C 0.63904 0.07829 0.80965 0.0
C3850 C 0.64596 0.09963 0.81674 0.0
H3851 H 0.72241 0.13334 0.83179 0.0
H3852 H 0.7034 0.11002 0.82776 0.0
H3853 H 0.71565 0.12305 0.80377 0.0
H3854 H 0.6855 0.10907 0.77799 0.0
H3855 H 0.67382 0.0714 0.76583 0.0
H3856 H 0.51027 0.07832 0.46391 0.0
H3857 H 0.47109 0.08355 0.47196 0.0
H3858 H 0.45894 0.10973 0.40468 0.0
H3859 H 0.49807 0.10353 0.39623 0.0
H3860 H 0.44948 0.11996 0.47534 0.0
H3861 H 0.40555 0.07082 0.40791 0.0
H3862 H 0.43518 0.06866 0.41341 0.0
H3863 H 0.42392 0.09118 0.39633 0.0
C3864 C 0.49917 0.08478 0.45065 0.0
C3865 C 0.50736 0.09042 0.42938 0.0
C3866 C 0.4767 0.08785 0.4553 0.0
C3867 C 0.46172 0.09688 0.43893 0.0
C3868 C 0.4698 0.10216 0.41749 0.0
H3869 H 0.3443 0.17148 0.47325 0.0
H3870 H 0.38102 0.15809 0.46408 0.0
C3871 C 0.49229 0.09871 0.41267 0.0
C3872 C 0.43831 0.10233 0.44509 0.0
H3873 H 0.38346 0.09731 0.42779 0.0
C3874 C 0.4351 0.11477 0.46497 0.0
C3875 C 0.41927 0.09537 0.43193 0.0
C3876 C 0.42111 0.08056 0.41135 0.0
C3877 C 0.41373 0.12083 0.47174 0.0
C3878 C 0.39479 0.11505 0.45788 0.0
C3879 C 0.39788 0.10207 0.43833 0.0
C3880 C 0.37188 0.12298 0.46308 0.0
C3881 C 0.41174 0.13309 0.49396 0.0
C3882 C 0.35395 0.10788 0.46479 0.0
C3883 C 0.33255 0.11559 0.46976 0.0
C3884 C 0.3286 0.1386 0.47317 0.0
C3885 C 0.34659 0.15361 0.47114 0.0
C3886 C 0.36779 0.14594 0.46599 0.0
H3887 H 0.42603 0.12936 0.50579 0.0
H3888 H 0.41178 0.15142 0.49081 0.0
H3889 H 0.39611 0.12858 0.50233 0.0
H3890 H 0.35653 0.09008 0.46242 0.0
H3891 H 0.31916 0.10352 0.47084 0.0
H3892 H 0.63885 0.33578 0.75227 0.0
H3893 H 0.64197 0.34432 0.71175 0.0
H3894 H 0.70957 0.32027 0.71449 0.0
H3895 H 0.70664 0.31208 0.75476 0.0
H3896 H 0.67667 0.37551 0.69659 0.0
H3897 H 0.68108 0.29214 0.65553 0.0
H3898 H 0.6683 0.29642 0.68242 0.0
H3899 H 0.69807 0.2944 0.68109 0.0
C3900 C 0.65405 0.33157 0.74395 0.0
C3901 C 0.67246 0.32305 0.75647 0.0
C3902 C 0.65588 0.33666 0.72092 0.0
C3903 C 0.67595 0.33279 0.71015 0.0
C3904 C 0.69384 0.32309 0.72241 0.0
H3905 H 0.76142 0.35786 0.60828 0.0
H3906 H 0.74037 0.3545 0.64265 0.0
C3907 C 0.69216 0.31837 0.74537 0.0
C3908 C 0.67947 0.34082 0.68686 0.0
H3909 H 0.69851 0.3228 0.63632 0.0
C3910 C 0.68081 0.36404 0.68311 0.0
C3911 C 0.68487 0.32582 0.66938 0.0
C3912 C 0.68282 0.30079 0.67218 0.0
C3913 C 0.68913 0.37256 0.6629 0.0
C3914 C 0.6961 0.35746 0.6462 0.0
C3915 C 0.69324 0.33433 0.6493 0.0
C3916 C 0.7091 0.36483 0.62679 0.0
C3917 C 0.69189 0.39749 0.66006 0.0
C3918 C 0.69865 0.3729 0.60681 0.0
C3919 C 0.71079 0.37513 0.58709 0.0
C3920 C 0.73334 0.36894 0.5872 0.0
C3921 C 0.74405 0.36271 0.60774 0.0
C3922 C 0.73204 0.3607 0.62735 0.0
H3923 H 0.68491 0.4071 0.67426 0.0
H3924 H 0.70985 0.40164 0.65905 0.0
H3925 H 0.68351 0.40289 0.64393 0.0
H3926 H 0.68091 0.37606 0.6061 0.0
H3927 H 0.7021 0.37973 0.57141 0.0
H3928 H 0.73102 0.67078 0.73666 0.0
H3929 H 0.73479 0.65958 0.77632 0.0
H3930 H 0.66787 0.68177 0.78724 0.0
H3931 H 0.66382 0.69306 0.74751 0.0
H3932 H 0.70137 0.69368 0.82209 0.0
H3933 H 0.70133 0.60304 0.79973 0.0
H3934 H 0.72101 0.62025 0.78544 0.0
H3935 H 0.69171 0.62441 0.78014 0.0
C3936 C 0.71718 0.67361 0.74754 0.0
C3937 C 0.697 0.68256 0.73884 0.0
C3938 C 0.71933 0.66702 0.77013 0.0
C3939 C 0.7014 0.66931 0.78441 0.0
C3940 C 0.68177 0.67962 0.77629 0.0
H3941 H 0.68111 0.64441 0.92522 0.0
H3942 H 0.67464 0.64716 0.88425 0.0
C3943 C 0.67956 0.68619 0.75364 0.0
C3944 C 0.70301 0.66059 0.80775 0.0
H3945 H 0.70804 0.61232 0.83846 0.0
C3946 C 0.70272 0.67591 0.82571 0.0
C3947 C 0.70485 0.63737 0.81226 0.0
C3948 C 0.70458 0.62023 0.79342 0.0
C3949 C 0.7046 0.66866 0.84821 0.0
C3950 C 0.70625 0.64542 0.85278 0.0
C3951 C 0.70661 0.63007 0.83482 0.0
C3952 C 0.708 0.63718 0.87629 0.0
C3953 C 0.70525 0.68599 0.86693 0.0
C3954 C 0.72826 0.62869 0.88508 0.0
C3955 C 0.73189 0.62672 0.90851 0.0
C3956 C 0.71533 0.6335 0.9232 0.0
C3957 C 0.6942 0.63932 0.91418 0.0
C3958 C 0.69052 0.64101 0.89084 0.0
H3959 H 0.70894 0.70303 0.86048 0.0
H3960 H 0.6888 0.68652 0.87484 0.0
H3961 H 0.71799 0.68167 0.88028 0.0
H3962 H 0.74187 0.62548 0.874 0.0
H3963 H 0.74833 0.6222 0.91509 0.0
H3964 H 0.92618 0.03524 0.50999 0.0
H3965 H 0.91448 0.02612 0.47092 0.0
H3966 H 0.9072 0.09653 0.45622 0.0
H3967 H 0.91946 0.10579 0.49498 0.0
H3968 H 0.87468 0.03479 0.45011 0.0
H3969 H 0.94146 0.07612 0.40291 0.0
H3970 H 0.9437 0.07167 0.43308 0.0
H3971 H 0.92779 0.09478 0.42171 0.0
C3972 C 0.92256 0.0488 0.4983 0.0
C3973 C 0.92394 0.07125 0.50559 0.0
C3974 C 0.91574 0.04356 0.476 0.0
C3975 C 0.91011 0.06063 0.46054 0.0
C3976 C 0.91192 0.08307 0.46764 0.0
H3977 H 0.86549 0.05636 0.31842 0.0
H3978 H 0.8677 0.0677 0.35846 0.0
C3979 C 0.91897 0.08834 0.48986 0.0
C3980 C 0.90134 0.05487 0.43736 0.0
H3981 H 0.91024 0.0627 0.38117 0.0
C3982 C 0.88248 0.04088 0.43504 0.0
C3983 C 0.91143 0.06288 0.41767 0.0
C3984 C 0.93233 0.07701 0.4189 0.0
C3985 C 0.87353 0.03467 0.4136 0.0
C3986 C 0.8837 0.0426 0.39398 0.0
C3987 C 0.90229 0.05687 0.39627 0.0
C3988 C 0.87679 0.03479 0.3709 0.0
C3989 C 0.85326 0.01968 0.41206 0.0
C3990 C 0.88023 0.01236 0.36476 0.0
C3991 C 0.87894 0.00593 0.34198 0.0
C3992 C 0.87399 0.02176 0.32504 0.0
C3993 C 0.86872 0.04376 0.33128 0.0
C3994 C 0.87023 0.05027 0.35409 0.0
H3995 H 0.84404 0.01991 0.42801 0.0
H3996 H 0.84182 0.0248 0.39783 0.0
H3997 H 0.85857 1.0022 0.40889 0.0
H3998 H 0.88571 1.00024 0.37736 0.0
H3999 H 0.88364 0.98902 0.33746 0.0
H4000 H 0.2906 0.83479 0.75419 0.0
H4001 H 0.28084 0.83511 0.79372 0.0
H4002 H 0.34148 0.80007 0.81191 0.0
H4003 H 0.35182 0.8002 0.7721 0.0
H4004 H 0.27398 0.80229 0.82466 0.0
H4005 H 0.3465 0.85565 0.85172 0.0
H4006 H 0.33884 0.85088 0.82229 0.0
H4007 H 0.35298 0.82945 0.83847 0.0
C4008 C 0.30191 0.82703 0.76649 0.0
C4009 C 0.32219 0.81774 0.75995 0.0
C4010 C 0.29623 0.82717 0.78914 0.0
C4011 C 0.3106 0.81799 0.80584 0.0
C4012 C 0.33037 0.8077 0.79935 0.0
H4013 H 0.28863 0.83378 0.95195 0.0
H4014 H 0.30246 0.81845 0.91659 0.0
C4015 C 0.33617 0.80765 0.77657 0.0
C4016 C 0.30492 0.82025 0.82998 0.0
H4017 H 0.32039 0.84747 0.87911 0.0
C4018 C 0.28428 0.8119 0.83666 0.0
C4019 C 0.31837 0.83283 0.84563 0.0
C4020 C 0.34033 0.8429 0.83923 0.0
C4021 C 0.27637 0.81653 0.85822 0.0
C4022 C 0.28939 0.82986 0.87344 0.0
C4023 C 0.3105 0.83723 0.8673 0.0
C4024 C 0.28047 0.83818 0.89488 0.0
C4025 C 0.25385 0.8077 0.8644 0.0
C4026 C 0.26365 0.85439 0.89428 0.0
C4027 C 0.25583 0.8633 0.91436 0.0
C4028 C 0.26463 0.85605 0.93546 0.0
C4029 C 0.28137 0.83959 0.93599 0.0
C4030 C 0.28934 0.83085 0.91584 0.0
H4031 H 0.24817 0.79374 0.85309 0.0
H4032 H 0.25424 0.80177 0.88221 0.0
H4033 H 0.24148 0.82142 0.86285 0.0
H4034 H 0.2568 0.86042 0.87822 0.0
H4035 H 0.24291 0.87589 0.91333 0.0
H4036 H 0.57983 0.91073 0.9929 0.0
H4037 H 0.58694 0.92055 0.95364 0.0
H4038 H 0.6089 0.98637 0.97511 0.0
H4039 H 0.60171 0.97683 0.01443 0.0
H4040 H 0.58092 0.98579 0.93445 0.0
H4041 H 0.65118 0.92572 0.93107 0.0
H4042 H 0.6252 0.91398 0.93954 0.0
H4043 H 0.6394 0.93432 0.95737 0.0
C4044 C 0.58599 0.92738 0.98931 0.0
C4045 C 0.5904 0.9429 0.00694 0.0
C4046 C 0.59013 0.93292 0.96683 0.0
C4047 C 0.59877 0.95407 0.96148 0.0
C4048 C 0.60232 0.96992 0.97886 0.0
H4049 H 0.67186 0.99378 0.84533 0.0
H4050 H 0.65804 0.98602 0.8828 0.0
C4051 C 0.59824 0.96439 0.00136 0.0
C4052 C 0.60505 0.95936 0.93797 0.0
H4053 H 0.64136 0.94485 0.8973 0.0
C4054 C 0.59407 0.97681 0.92627 0.0
C4055 C 0.6224 0.94779 0.92743 0.0
C4056 C 0.6354 0.92953 0.9395 0.0
C4057 C 0.59994 0.98292 0.90426 0.0
C4058 C 0.61712 0.97116 0.89365 0.0
C4059 C 0.62809 0.95376 0.90539 0.0
C4060 C 0.62474 0.97716 0.87076 0.0
C4061 C 0.58811 1.00225 0.89274 0.0
C4062 C 0.61058 0.97487 0.85142 0.0
C4063 C 0.61846 0.97929 0.82982 0.0
C4064 C 0.64069 0.98603 0.82714 0.0
C4065 C 0.65467 0.98861 0.84664 0.0
C4066 C 0.6468 0.98417 0.86814 0.0
H4067 H 0.57875 0.0125 0.90488 0.0
H4068 H 0.60013 0.01325 0.8842 0.0
H4069 H 0.57608 0.99563 0.87965 0.0
H4070 H 0.5936 0.96911 0.85297 0.0
H4071 H 0.60727 0.97688 0.81523 0.0
H4072 H 0.77732 0.6669 0.25186 0.0
H4073 H 0.77028 0.66493 0.21079 0.0
H4074 H 0.83468 0.69446 0.20025 0.0
H4075 H 0.84164 0.69705 0.241 0.0
H4076 H 0.80238 0.71007 0.17008 0.0
H4077 H 0.80208 0.61701 0.17469 0.0
H4078 H 0.78159 0.63045 0.19136 0.0
H4079 H 0.81068 0.63447 0.19843 0.0
C4080 C 0.78983 0.67327 0.2408 0.0
C4081 C 0.8102 0.68174 0.24969 0.0
C4082 C 0.78583 0.67204 0.21737 0.0
C4083 C 0.8022 0.67908 0.20258 0.0
C4084 C 0.82191 0.6888 0.21141 0.0
H4085 H 0.81879 0.62926 0.06699 0.0
H4086 H 0.82465 0.64116 0.10643 0.0
C4087 C 0.82588 0.69016 0.23474 0.0
C4088 C 0.7997 0.67496 0.17796 0.0
H4089 H 0.79534 0.63304 0.13871 0.0
C4090 C 0.80077 0.69325 0.16315 0.0
C4091 C 0.79812 0.65295 0.16909 0.0
C4092 C 0.79826 0.63256 0.18417 0.0
C4093 C 0.80018 0.69011 0.1396 0.0
C4094 C 0.79803 0.66812 0.13075 0.0
C4095 C 0.797 0.64987 0.14558 0.0
C4096 C 0.79633 0.66348 0.10617 0.0
C4097 C 0.80236 0.71027 0.12448 0.0
C4098 C 0.77874 0.67242 0.09292 0.0
C4099 C 0.77547 0.66581 0.07039 0.0
C4100 C 0.78956 0.64987 0.0608 0.0
C4101 C 0.80763 0.64152 0.07389 0.0
C4102 C 0.81099 0.64829 0.0964 0.0
H4103 H 0.81057 0.72453 0.13365 0.0
H4104 H 0.81205 0.70623 0.10936 0.0
H4105 H 0.78553 0.71582 0.11861 0.0
H4106 H 0.76692 0.68373 0.10024 0.0
H4107 H 0.76122 0.67239 0.06089 0.0
H4108 H 0.91073 0.97562 0.98708 0.0
H4109 H 0.90484 0.98364 0.02696 0.0
H4110 H 0.92039 0.91513 0.04396 0.0
H4111 H 0.92604 0.90682 0.00398 0.0
H4112 H 0.88191 0.92894 0.06249 0.0
H4113 H 0.9481 0.99192 0.0808 0.0
H4114 H 0.9307 0.99893 0.05654 0.0
H4115 H 0.94778 0.97425 0.05591 0.0
C4116 C 0.9132 0.96227 0.99928 0.0
C4117 C 0.91885 0.94052 0.99218 0.0
C4118 C 0.90996 0.96696 0.02217 0.0
C4119 C 0.91244 0.95009 0.03859 0.0
C4120 C 0.91848 0.92847 0.03165 0.0
H4121 H 0.90427 0.97195 0.18555 0.0
H4122 H 0.91756 0.96313 0.14781 0.0
C4123 C 0.92174 0.92375 0.00874 0.0
C4124 C 0.90719 0.95462 0.06267 0.0
H4125 H 0.91938 0.98929 0.10775 0.0
C4126 C 0.89026 0.94201 0.07242 0.0
C4127 C 0.91823 0.97149 0.07582 0.0
C4128 C 0.93737 0.98478 0.06684 0.0
C4129 C 0.88358 0.94628 0.09459 0.0
C4130 C 0.89385 0.96389 0.10732 0.0
C4131 C 0.91132 0.97599 0.09791 0.0
C4132 C 0.88621 0.97024 0.13019 0.0
C4133 C 0.86558 0.93182 0.10419 0.0
C4134 C 0.86435 0.97771 0.13282 0.0
C4135 C 0.85672 0.98282 0.15431 0.0
C4136 C 0.87081 0.98074 0.17378 0.0
C4137 C 0.89294 0.97384 0.17102 0.0
C4138 C 0.90058 0.96874 0.14943 0.0
H4139 H 0.86388 0.91555 0.09507 0.0
H4140 H 0.86904 0.92846 0.12246 0.0
H4141 H 0.84941 0.94067 0.10241 0.0
H4142 H 0.85309 0.97946 0.11821 0.0
H4143 H 0.83965 0.98824 0.15564 0.0
H4144 H 0.09028 0.52823 0.98998 0.0
H4145 H 0.10178 0.51708 0.02852 0.0
H4146 H 0.10112 0.58633 0.04969 0.0
H4147 H 0.08895 0.5975 0.01168 0.0
H4148 H 0.13959 0.52821 0.05188 0.0
H4149 H 0.06735 0.55777 0.09907 0.0
H4150 H 0.06665 0.5557 0.06859 0.0
H4151 H 0.07921 0.57969 0.08265 0.0
C4152 C 0.0921 0.54102 0.00299 0.0
C4153 C 0.08853 0.56373 0.99777 0.0
C4154 C 0.09881 0.53464 0.02495 0.0
C4155 C 0.10211 0.55084 0.04205 0.0
C4156 C 0.09817 0.57346 0.03696 0.0
H4157 H 0.15018 0.54936 0.182 0.0
H4158 H 0.14815 0.55856 0.14145 0.0
C4159 C 0.09121 0.57982 0.01513 0.0
C4160 C 0.11065 0.54432 0.06495 0.0
H4161 H 0.10005 0.54872 0.12114 0.0
C4162 C 0.13088 0.53259 0.06702 0.0
C4163 C 0.09927 0.55002 0.0847 0.0
C4164 C 0.07681 0.56128 0.08366 0.0
C4165 C 0.1401 0.52664 0.08836 0.0
C4166 C 0.12891 0.53277 0.10797 0.0
C4167 C 0.10876 0.54447 0.10596 0.0
C4168 C 0.13656 0.52566 0.13085 0.0
C4169 C 0.16169 0.5139 0.08996 0.0
C4170 C 0.13163 0.50389 0.13801 0.0
C4171 C 0.13258 0.49874 0.16103 0.0
C4172 C 0.13876 0.5152 0.17711 0.0
C4173 C 0.14584 0.53631 0.1698 0.0
C4174 C 0.14454 0.5416 0.14673 0.0
H4175 H 0.16973 0.51276 0.07336 0.0
H4176 H 0.17339 0.52209 0.10243 0.0
H4177 H 0.15845 0.49666 0.09608 0.0
H4178 H 0.12516 0.4915 0.12601 0.0
H4179 H 0.12667 0.4825 0.16642 0.0
loop_
_geom_bond_atom_site_label_1
_geom_bond_atom_site_label_2
_geom_bond_distance
_geom_bond_site_symmetry_2
_ccdc_geom_bond_type
Fe0 O2 1.918 . S
Fe0 O5 1.997 . S
Fe0 O6 2.002 . S
Fe0 O11 1.976 . S
Fe0 O14 1.996 . S
Fe1 O2 1.918 . S
Fe1 O9 1.997 . S
Fe1 O12 1.996 . S
Fe1 O16 1.976 . S
Fe1 O19 2.002 . S
O2 Fe0 1.918 . S
O2 Fe1 1.918 . S
O2 Fe3 1.918 . S
Fe3 O2 1.918 . S
Fe3 O4 2.002 . S
Fe3 O13 1.976 . S
Fe3 O17 1.996 . S
Fe3 O20 1.997 . S
O4 Fe3 2.002 . S
O4 C21 1.295 . S
O5 Fe0 1.997 . S
O5 C21 1.235 . S
O6 Fe0 2.002 . S
O6 C7 1.295 . S
C7 O6 1.295 . S
C7 O9 1.235 . S
C8 O13 1.287 . S
C8 O14 1.255 . S
O9 Fe1 1.997 . S
O9 C7 1.235 . S
C10 O16 1.287 . S
C10 O17 1.255 . S
O11 Fe0 1.976 . S
O11 C18 1.287 . S
O12 Fe1 1.996 . S
O12 C18 1.255 . S
O13 Fe3 1.976 . S
O13 C8 1.287 . S
O14 Fe0 1.996 . S
O14 C8 1.255 . S
C15 O19 1.295 . S
C15 O20 1.235 . S
O16 Fe1 1.976 . S
O16 C10 1.287 . S
O17 Fe3 1.996 . S
O17 C10 1.255 . S
C18 O11 1.287 . S
C18 O12 1.255 . S
O19 Fe1 2.002 . S
O19 C15 1.295 . S
O20 Fe3 1.997 . S
O20 C15 1.235 . S
C21 O4 1.295 . S
C21 O5 1.235 . S
Fe22 O24 1.918 . S
Fe22 O27 1.997 . S
Fe22 O28 2.002 . S
Fe22 O33 1.976 . S
Fe22 O36 1.996 . S
Fe23 O24 1.918 . S
Fe23 O31 1.997 . S
Fe23 O34 1.996 . S
Fe23 O38 1.976 . S
Fe23 O41 2.002 . S
O24 Fe22 1.918 . S
O24 Fe23 1.918 . S
O24 Fe25 1.918 . S
Fe25 O24 1.918 . S
Fe25 O26 2.002 . S
Fe25 O35 1.976 . S
Fe25 O39 1.996 . S
Fe25 O42 1.997 . S
O26 Fe25 2.002 . S
O26 C43 1.295 . S
O27 Fe22 1.997 . S
O27 C43 1.235 . S
O28 Fe22 2.002 . S
O28 C29 1.295 . S
C29 O28 1.295 . S
C29 O31 1.235 . S
C30 O35 1.287 . S
C30 O36 1.255 . S
O31 Fe23 1.997 . S
O31 C29 1.235 . S
C32 O38 1.287 . S
C32 O39 1.255 . S
O33 Fe22 1.976 . S
O33 C40 1.287 . S
O34 Fe23 1.996 . S
O34 C40 1.255 . S
O35 Fe25 1.976 . S
O35 C30 1.287 . S
O36 Fe22 1.996 . S
O36 C30 1.255 . S
C37 O41 1.295 . S
C37 O42 1.235 . S
O38 Fe23 1.976 . S
O38 C32 1.287 . S
O39 Fe25 1.996 . S
O39 C32 1.255 . S
C40 O33 1.287 . S
C40 O34 1.255 . S
O41 Fe23 2.002 . S
O41 C37 1.295 . S
O42 Fe25 1.997 . S
O42 C37 1.235 . S
C43 O26 1.295 . S
C43 O27 1.235 . S
Fe44 O46 1.918 . S
Fe44 O49 1.997 . S
Fe44 O50 2.002 . S
Fe44 O55 1.976 . S
Fe44 O58 1.996 . S
Fe45 O46 1.918 . S
Fe45 O53 1.997 . S
Fe45 O56 1.996 . S
Fe45 O60 1.976 . S
Fe45 O63 2.002 . S
O46 Fe44 1.918 . S
O46 Fe45 1.918 . S
O46 Fe47 1.918 . S
Fe47 O46 1.918 . S
Fe47 O48 2.002 . S
Fe47 O57 1.976 . S
Fe47 O61 1.996 . S
Fe47 O64 1.997 . S
O48 Fe47 2.002 . S
O48 C65 1.295 . S
O49 Fe44 1.997 . S
O49 C65 1.235 . S
O50 Fe44 2.002 . S
O50 C51 1.295 . S
C51 O50 1.295 . S
C51 O53 1.235 . S
C52 O57 1.287 . S
C52 O58 1.255 . S
O53 Fe45 1.997 . S
O53 C51 1.235 . S
C54 O60 1.287 . S
C54 O61 1.255 . S
O55 Fe44 1.976 . S
O55 C62 1.287 . S
O56 Fe45 1.996 . S
O56 C62 1.255 . S
O57 Fe47 1.976 . S
O57 C52 1.287 . S
O58 Fe44 1.996 . S
O58 C52 1.255 . S
C59 O63 1.295 . S
C59 O64 1.235 . S
O60 Fe45 1.976 . S
O60 C54 1.287 . S
O61 Fe47 1.996 . S
O61 C54 1.255 . S
C62 O55 1.287 . S
C62 O56 1.255 . S
O63 Fe45 2.002 . S
O63 C59 1.295 . S
O64 Fe47 1.997 . S
O64 C59 1.235 . S
C65 O48 1.295 . S
C65 O49 1.235 . S
Fe66 O68 1.918 . S
Fe66 O71 1.997 . S
Fe66 O72 2.002 . S
Fe66 O77 1.976 . S
Fe66 O80 1.996 . S
Fe67 O68 1.918 . S
Fe67 O75 1.997 . S
Fe67 O78 1.996 . S
Fe67 O82 1.976 . S
Fe67 O85 2.002 . S
O68 Fe66 1.918 . S
O68 Fe67 1.918 . S
O68 Fe69 1.918 . S
Fe69 O68 1.918 . S
Fe69 O70 2.002 . S
Fe69 O79 1.976 . S
Fe69 O83 1.996 . S
Fe69 O86 1.997 . S
O70 Fe69 2.002 . S
O70 C87 1.295 . S
O71 Fe66 1.997 . S
O71 C87 1.235 . S
O72 Fe66 2.002 . S
O72 C73 1.295 . S
C73 O72 1.295 . S
C73 O75 1.235 . S
C74 O79 1.287 . S
C74 O80 1.255 . S
O75 Fe67 1.997 . S
O75 C73 1.235 . S
C76 O82 1.287 . S
C76 O83 1.255 . S
O77 Fe66 1.976 . S
O77 C84 1.287 . S
O78 Fe67 1.996 . S
O78 C84 1.255 . S
O79 Fe69 1.976 . S
O79 C74 1.287 . S
O80 Fe66 1.996 . S
O80 C74 1.255 . S
C81 O85 1.295 . S
C81 O86 1.235 . S
O82 Fe67 1.976 . S
O82 C76 1.287 . S
O83 Fe69 1.996 . S
O83 C76 1.255 . S
C84 O77 1.287 . S
C84 O78 1.255 . S
O85 Fe67 2.002 . S
O85 C81 1.295 . S
O86 Fe69 1.997 . S
O86 C81 1.235 . S
C87 O70 1.295 . S
C87 O71 1.235 . S
Fe88 O90 1.918 . S
Fe88 O93 1.997 . S
Fe88 O94 2.002 . S
Fe88 O99 1.976 . S
Fe88 O102 1.996 . S
Fe89 O90 1.918 . S
Fe89 O97 1.997 . S
Fe89 O100 1.996 . S
Fe89 O104 1.976 . S
Fe89 O107 2.002 . S
O90 Fe88 1.918 . S
O90 Fe89 1.918 . S
O90 Fe91 1.918 . S
Fe91 O90 1.918 . S
Fe91 O92 2.002 . S
Fe91 O101 1.976 . S
Fe91 O105 1.996 . S
Fe91 O108 1.997 . S
O92 Fe91 2.002 . S
O92 C109 1.295 . S
O93 Fe88 1.997 . S
O93 C109 1.235 . S
O94 Fe88 2.002 . S
O94 C95 1.295 . S
C95 O94 1.295 . S
C95 O97 1.235 . S
C96 O101 1.287 . S
C96 O102 1.255 . S
O97 Fe89 1.997 . S
O97 C95 1.235 . S
C98 O104 1.287 . S
C98 O105 1.255 . S
O99 Fe88 1.976 . S
O99 C106 1.287 . S
O100 Fe89 1.996 . S
O100 C106 1.255 . S
O101 Fe91 1.976 . S
O101 C96 1.287 . S
O102 Fe88 1.996 . S
O102 C96 1.255 . S
C103 O107 1.295 . S
C103 O108 1.235 . S
O104 Fe89 1.976 . S
O104 C98 1.287 . S
O105 Fe91 1.996 . S
O105 C98 1.255 . S
C106 O99 1.287 . S
C106 O100 1.255 . S
O107 Fe89 2.002 . S
O107 C103 1.295 . S
O108 Fe91 1.997 . S
O108 C103 1.235 . S
C109 O92 1.295 . S
C109 O93 1.235 . S
Fe110 O112 1.918 . S
Fe110 O115 1.997 . S
Fe110 O116 2.002 . S
Fe110 O121 1.976 . S
Fe110 O124 1.996 . S
Fe111 O112 1.918 . S
Fe111 O119 1.997 . S
Fe111 O122 1.996 . S
Fe111 O126 1.976 . S
Fe111 O129 2.002 . S
O112 Fe110 1.918 . S
O112 Fe111 1.918 . S
O112 Fe113 1.918 . S
Fe113 O112 1.918 . S
Fe113 O114 2.002 . S
Fe113 O123 1.976 . S
Fe113 O127 1.996 . S
Fe113 O130 1.997 . S
O114 Fe113 2.002 . S
O114 C131 1.295 . S
O115 Fe110 1.997 . S
O115 C131 1.235 . S
O116 Fe110 2.002 . S
O116 C117 1.295 . S
C117 O116 1.295 . S
C117 O119 1.235 . S
C118 O123 1.287 . S
C118 O124 1.255 . S
O119 Fe111 1.997 . S
O119 C117 1.235 . S
C120 O126 1.287 . S
C120 O127 1.255 . S
O121 Fe110 1.976 . S
O121 C128 1.287 . S
O122 Fe111 1.996 . S
O122 C128 1.255 . S
O123 Fe113 1.976 . S
O123 C118 1.287 . S
O124 Fe110 1.996 . S
O124 C118 1.255 . S
C125 O129 1.295 . S
C125 O130 1.235 . S
O126 Fe111 1.976 . S
O126 C120 1.287 . S
O127 Fe113 1.996 . S
O127 C120 1.255 . S
C128 O121 1.287 . S
C128 O122 1.255 . S
O129 Fe111 2.002 . S
O129 C125 1.295 . S
O130 Fe113 1.997 . S
O130 C125 1.235 . S
C131 O114 1.295 . S
C131 O115 1.235 . S
Fe132 O134 1.918 . S
Fe132 O137 1.997 . S
Fe132 O138 2.002 . S
Fe132 O143 1.976 . S
Fe132 O146 1.996 . S
Fe133 O134 1.918 . S
Fe133 O141 1.997 . S
Fe133 O144 1.996 . S
Fe133 O148 1.976 . S
Fe133 O151 2.002 . S
O134 Fe132 1.918 . S
O134 Fe133 1.918 . S
O134 Fe135 1.918 . S
Fe135 O134 1.918 . S
Fe135 O136 2.002 . S
Fe135 O145 1.976 . S
Fe135 O149 1.996 . S
Fe135 O152 1.997 . S
O136 Fe135 2.002 . S
O136 C153 1.295 . S
O137 Fe132 1.997 . S
O137 C153 1.235 . S
O138 Fe132 2.002 . S
O138 C139 1.295 . S
C139 O138 1.295 . S
C139 O141 1.235 . S
C140 O145 1.287 . S
C140 O146 1.255 . S
O141 Fe133 1.997 . S
O141 C139 1.235 . S
C142 O148 1.287 . S
C142 O149 1.255 . S
O143 Fe132 1.976 . S
O143 C150 1.287 . S
O144 Fe133 1.996 . S
O144 C150 1.255 . S
O145 Fe135 1.976 . S
O145 C140 1.287 . S
O146 Fe132 1.996 . S
O146 C140 1.255 . S
C147 O151 1.295 . S
C147 O152 1.235 . S
O148 Fe133 1.976 . S
O148 C142 1.287 . S
O149 Fe135 1.996 . S
O149 C142 1.255 . S
C150 O143 1.287 . S
C150 O144 1.255 . S
O151 Fe133 2.002 . S
O151 C147 1.295 . S
O152 Fe135 1.997 . S
O152 C147 1.235 . S
C153 O136 1.295 . S
C153 O137 1.235 . S
Fe154 O156 1.918 . S
Fe154 O159 1.997 . S
Fe154 O160 2.002 . S
Fe154 O165 1.976 . S
Fe154 O168 1.996 . S
Fe155 O156 1.918 . S
Fe155 O163 1.997 . S
Fe155 O166 1.996 . S
Fe155 O170 1.976 . S
Fe155 O173 2.002 . S
O156 Fe154 1.918 . S
O156 Fe155 1.918 . S
O156 Fe157 1.918 . S
Fe157 O156 1.918 . S
Fe157 O158 2.002 . S
Fe157 O167 1.976 . S
Fe157 O171 1.996 . S
Fe157 O174 1.997 . S
O158 Fe157 2.002 . S
O158 C175 1.295 . S
O159 Fe154 1.997 . S
O159 C175 1.235 . S
O160 Fe154 2.002 . S
O160 C161 1.295 . S
C161 O160 1.295 . S
C161 O163 1.235 . S
C162 O167 1.287 . S
C162 O168 1.255 . S
O163 Fe155 1.997 . S
O163 C161 1.235 . S
C164 O170 1.287 . S
C164 O171 1.255 . S
O165 Fe154 1.976 . S
O165 C172 1.287 . S
O166 Fe155 1.996 . S
O166 C172 1.255 . S
O167 Fe157 1.976 . S
O167 C162 1.287 . S
O168 Fe154 1.996 . S
O168 C162 1.255 . S
C169 O173 1.295 . S
C169 O174 1.235 . S
O170 Fe155 1.976 . S
O170 C164 1.287 . S
O171 Fe157 1.996 . S
O171 C164 1.255 . S
C172 O165 1.287 . S
C172 O166 1.255 . S
O173 Fe155 2.002 . S
O173 C169 1.295 . S
O174 Fe157 1.997 . S
O174 C169 1.235 . S
C175 O158 1.295 . S
C175 O159 1.235 . S
Fe176 O178 1.918 . S
Fe176 O181 1.997 . S
Fe176 O182 2.002 . S
Fe176 O187 1.976 . S
Fe176 O190 1.996 . S
Fe177 O178 1.918 . S
Fe177 O185 1.997 . S
Fe177 O188 1.996 . S
Fe177 O192 1.976 . S
Fe177 O195 2.002 . S
O178 Fe176 1.918 . S
O178 Fe177 1.918 . S
O178 Fe179 1.918 . S
Fe179 O178 1.918 . S
Fe179 O180 2.002 . S
Fe179 O189 1.976 . S
Fe179 O193 1.996 . S
Fe179 O196 1.997 . S
O180 Fe179 2.002 . S
O180 C197 1.295 . S
O181 Fe176 1.997 . S
O181 C197 1.235 . S
O182 Fe176 2.002 . S
O182 C183 1.295 . S
C183 O182 1.295 . S
C183 O185 1.235 . S
C184 O189 1.287 . S
C184 O190 1.255 . S
O185 Fe177 1.997 . S
O185 C183 1.235 . S
C186 O192 1.287 . S
C186 O193 1.255 . S
O187 Fe176 1.976 . S
O187 C194 1.287 . S
O188 Fe177 1.996 . S
O188 C194 1.255 . S
O189 Fe179 1.976 . S
O189 C184 1.287 . S
O190 Fe176 1.996 . S
O190 C184 1.255 . S
C191 O195 1.295 . S
C191 O196 1.235 . S
O192 Fe177 1.976 . S
O192 C186 1.287 . S
O193 Fe179 1.996 . S
O193 C186 1.255 . S
C194 O187 1.287 . S
C194 O188 1.255 . S
O195 Fe177 2.002 . S
O195 C191 1.295 . S
O196 Fe179 1.997 . S
O196 C191 1.235 . S
C197 O180 1.295 . S
C197 O181 1.235 . S
Fe198 O200 1.918 . S
Fe198 O203 1.997 . S
Fe198 O204 2.002 . S
Fe198 O209 1.976 . S
Fe198 O212 1.996 . S
Fe199 O200 1.918 . S
Fe199 O207 1.997 . S
Fe199 O210 1.996 . S
Fe199 O214 1.976 . S
Fe199 O217 2.002 . S
O200 Fe198 1.918 . S
O200 Fe199 1.918 . S
O200 Fe201 1.918 . S
Fe201 O200 1.918 . S
Fe201 O202 2.002 . S
Fe201 O211 1.976 . S
Fe201 O215 1.996 . S
Fe201 O218 1.997 . S
O202 Fe201 2.002 . S
O202 C219 1.295 . S
O203 Fe198 1.997 . S
O203 C219 1.235 . S
O204 Fe198 2.002 . S
O204 C205 1.295 . S
C205 O204 1.295 . S
C205 O207 1.235 . S
C206 O211 1.287 . S
C206 O212 1.255 . S
O207 Fe199 1.997 . S
O207 C205 1.235 . S
C208 O214 1.287 . S
C208 O215 1.255 . S
O209 Fe198 1.976 . S
O209 C216 1.287 . S
O210 Fe199 1.996 . S
O210 C216 1.255 . S
O211 Fe201 1.976 . S
O211 C206 1.287 . S
O212 Fe198 1.996 . S
O212 C206 1.255 . S
C213 O217 1.295 . S
C213 O218 1.235 . S
O214 Fe199 1.976 . S
O214 C208 1.287 . S
O215 Fe201 1.996 . S
O215 C208 1.255 . S
C216 O209 1.287 . S
C216 O210 1.255 . S
O217 Fe199 2.002 . S
O217 C213 1.295 . S
O218 Fe201 1.997 . S
O218 C213 1.235 . S
C219 O202 1.295 . S
C219 O203 1.235 . S
Fe220 O222 1.918 . S
Fe220 O225 1.997 . S
Fe220 O226 2.002 . S
Fe220 O231 1.976 . S
Fe220 O234 1.996 . S
Fe221 O222 1.918 . S
Fe221 O229 1.997 . S
Fe221 O232 1.996 . S
Fe221 O236 1.976 . S
Fe221 O239 2.002 . S
O222 Fe220 1.918 . S
O222 Fe221 1.918 . S
O222 Fe223 1.918 . S
Fe223 O222 1.918 . S
Fe223 O224 2.002 . S
Fe223 O233 1.976 . S
Fe223 O237 1.996 . S
Fe223 O240 1.997 . S
O224 Fe223 2.002 . S
O224 C241 1.295 . S
O225 Fe220 1.997 . S
O225 C241 1.235 . S
O226 Fe220 2.002 . S
O226 C227 1.295 . S
C227 O226 1.295 . S
C227 O229 1.235 . S
C228 O233 1.287 . S
C228 O234 1.255 . S
O229 Fe221 1.997 . S
O229 C227 1.235 . S
C230 O236 1.287 . S
C230 O237 1.255 . S
O231 Fe220 1.976 . S
O231 C238 1.287 . S
O232 Fe221 1.996 . S
O232 C238 1.255 . S
O233 Fe223 1.976 . S
O233 C228 1.287 . S
O234 Fe220 1.996 . S
O234 C228 1.255 . S
C235 O239 1.295 . S
C235 O240 1.235 . S
O236 Fe221 1.976 . S
O236 C230 1.287 . S
O237 Fe223 1.996 . S
O237 C230 1.255 . S
C238 O231 1.287 . S
C238 O232 1.255 . S
O239 Fe221 2.002 . S
O239 C235 1.295 . S
O240 Fe223 1.997 . S
O240 C235 1.235 . S
C241 O224 1.295 . S
C241 O225 1.235 . S
Fe242 O244 1.918 . S
Fe242 O247 1.997 . S
Fe242 O248 2.002 . S
Fe242 O253 1.976 . S
Fe242 O256 1.996 . S
Fe243 O244 1.918 . S
Fe243 O251 1.997 . S
Fe243 O254 1.996 . S
Fe243 O258 1.976 . S
Fe243 O261 2.002 . S
O244 Fe242 1.918 . S
O244 Fe243 1.918 . S
O244 Fe245 1.918 . S
Fe245 O244 1.918 . S
Fe245 O246 2.002 . S
Fe245 O255 1.976 . S
Fe245 O259 1.996 . S
Fe245 O262 1.997 . S
O246 Fe245 2.002 . S
O246 C263 1.295 . S
O247 Fe242 1.997 . S
O247 C263 1.235 . S
O248 Fe242 2.002 . S
O248 C249 1.295 . S
C249 O248 1.295 . S
C249 O251 1.235 . S
C250 O255 1.287 . S
C250 O256 1.255 . S
O251 Fe243 1.997 . S
O251 C249 1.235 . S
C252 O258 1.287 . S
C252 O259 1.255 . S
O253 Fe242 1.976 . S
O253 C260 1.287 . S
O254 Fe243 1.996 . S
O254 C260 1.255 . S
O255 Fe245 1.976 . S
O255 C250 1.287 . S
O256 Fe242 1.996 . S
O256 C250 1.255 . S
C257 O261 1.295 . S
C257 O262 1.235 . S
O258 Fe243 1.976 . S
O258 C252 1.287 . S
O259 Fe245 1.996 . S
O259 C252 1.255 . S
C260 O253 1.287 . S
C260 O254 1.255 . S
O261 Fe243 2.002 . S
O261 C257 1.295 . S
O262 Fe245 1.997 . S
O262 C257 1.235 . S
C263 O246 1.295 . S
C263 O247 1.235 . S
Fe264 O266 1.918 . S
Fe264 O269 1.997 . S
Fe264 O270 2.002 . S
Fe264 O275 1.976 . S
Fe264 O278 1.996 . S
Fe265 O266 1.918 . S
Fe265 O273 1.997 . S
Fe265 O276 1.996 . S
Fe265 O280 1.976 . S
Fe265 O283 2.002 . S
O266 Fe264 1.918 . S
O266 Fe265 1.918 . S
O266 Fe267 1.918 . S
Fe267 O266 1.918 . S
Fe267 O268 2.002 . S
Fe267 O277 1.976 . S
Fe267 O281 1.996 . S
Fe267 O284 1.997 . S
O268 Fe267 2.002 . S
O268 C285 1.295 . S
O269 Fe264 1.997 . S
O269 C285 1.235 . S
O270 Fe264 2.002 . S
O270 C271 1.295 . S
C271 O270 1.295 . S
C271 O273 1.235 . S
C272 O277 1.287 . S
C272 O278 1.255 . S
O273 Fe265 1.997 . S
O273 C271 1.235 . S
C274 O280 1.287 . S
C274 O281 1.255 . S
O275 Fe264 1.976 . S
O275 C282 1.287 . S
O276 Fe265 1.996 . S
O276 C282 1.255 . S
O277 Fe267 1.976 . S
O277 C272 1.287 . S
O278 Fe264 1.996 . S
O278 C272 1.255 . S
C279 O283 1.295 . S
C279 O284 1.235 . S
O280 Fe265 1.976 . S
O280 C274 1.287 . S
O281 Fe267 1.996 . S
O281 C274 1.255 . S
C282 O275 1.287 . S
C282 O276 1.255 . S
O283 Fe265 2.002 . S
O283 C279 1.295 . S
O284 Fe267 1.997 . S
O284 C279 1.235 . S
C285 O268 1.295 . S
C285 O269 1.235 . S
Fe286 O288 1.918 . S
Fe286 O291 1.997 . S
Fe286 O292 2.002 . S
Fe286 O297 1.976 . S
Fe286 O300 1.996 . S
Fe287 O288 1.918 . S
Fe287 O295 1.997 . S
Fe287 O298 1.996 . S
Fe287 O302 1.976 . S
Fe287 O305 2.002 . S
O288 Fe286 1.918 . S
O288 Fe287 1.918 . S
O288 Fe289 1.918 . S
Fe289 O288 1.918 . S
Fe289 O290 2.002 . S
Fe289 O299 1.976 . S
Fe289 O303 1.996 . S
Fe289 O306 1.997 . S
O290 Fe289 2.002 . S
O290 C307 1.295 . S
O291 Fe286 1.997 . S
O291 C307 1.235 . S
O292 Fe286 2.002 . S
O292 C293 1.295 . S
C293 O292 1.295 . S
C293 O295 1.235 . S
C294 O299 1.287 . S
C294 O300 1.255 . S
O295 Fe287 1.997 . S
O295 C293 1.235 . S
C296 O302 1.287 . S
C296 O303 1.255 . S
O297 Fe286 1.976 . S
O297 C304 1.287 . S
O298 Fe287 1.996 . S
O298 C304 1.255 . S
O299 Fe289 1.976 . S
O299 C294 1.287 . S
O300 Fe286 1.996 . S
O300 C294 1.255 . S
C301 O305 1.295 . S
C301 O306 1.235 . S
O302 Fe287 1.976 . S
O302 C296 1.287 . S
O303 Fe289 1.996 . S
O303 C296 1.255 . S
C304 O297 1.287 . S
C304 O298 1.255 . S
O305 Fe287 2.002 . S
O305 C301 1.295 . S
O306 Fe289 1.997 . S
O306 C301 1.235 . S
C307 O290 1.295 . S
C307 O291 1.235 . S
Fe308 O310 1.918 . S
Fe308 O313 1.997 . S
Fe308 O314 2.002 . S
Fe308 O319 1.976 . S
Fe308 O322 1.996 . S
Fe309 O310 1.918 . S
Fe309 O317 1.997 . S
Fe309 O320 1.996 . S
Fe309 O324 1.976 . S
Fe309 O327 2.002 . S
O310 Fe308 1.918 . S
O310 Fe309 1.918 . S
O310 Fe311 1.918 . S
Fe311 O310 1.918 . S
Fe311 O312 2.002 . S
Fe311 O321 1.976 . S
Fe311 O325 1.996 . S
Fe311 O328 1.997 . S
O312 Fe311 2.002 . S
O312 C329 1.295 . S
O313 Fe308 1.997 . S
O313 C329 1.235 . S
O314 Fe308 2.002 . S
O314 C315 1.295 . S
C315 O314 1.295 . S
C315 O317 1.235 . S
C316 O321 1.287 . S
C316 O322 1.255 . S
O317 Fe309 1.997 . S
O317 C315 1.235 . S
C318 O324 1.287 . S
C318 O325 1.255 . S
O319 Fe308 1.976 . S
O319 C326 1.287 . S
O320 Fe309 1.996 . S
O320 C326 1.255 . S
O321 Fe311 1.976 . S
O321 C316 1.287 . S
O322 Fe308 1.996 . S
O322 C316 1.255 . S
C323 O327 1.295 . S
C323 O328 1.235 . S
O324 Fe309 1.976 . S
O324 C318 1.287 . S
O325 Fe311 1.996 . S
O325 C318 1.255 . S
C326 O319 1.287 . S
C326 O320 1.255 . S
O327 Fe309 2.002 . S
O327 C323 1.295 . S
O328 Fe311 1.997 . S
O328 C323 1.235 . S
C329 O312 1.295 . S
C329 O313 1.235 . S
Fe330 O332 1.918 . S
Fe330 O335 1.997 . S
Fe330 O336 2.002 . S
Fe330 O341 1.976 . S
Fe330 O344 1.996 . S
Fe331 O332 1.918 . S
Fe331 O339 1.997 . S
Fe331 O342 1.996 . S
Fe331 O346 1.976 . S
Fe331 O349 2.002 . S
O332 Fe330 1.918 . S
O332 Fe331 1.918 . S
O332 Fe333 1.918 . S
Fe333 O332 1.918 . S
Fe333 O334 2.002 . S
Fe333 O343 1.976 . S
Fe333 O347 1.996 . S
Fe333 O350 1.997 . S
O334 Fe333 2.002 . S
O334 C351 1.295 . S
O335 Fe330 1.997 . S
O335 C351 1.235 . S
O336 Fe330 2.002 . S
O336 C337 1.295 . S
C337 O336 1.295 . S
C337 O339 1.235 . S
C338 O343 1.287 . S
C338 O344 1.255 . S
O339 Fe331 1.997 . S
O339 C337 1.235 . S
C340 O346 1.287 . S
C340 O347 1.255 . S
O341 Fe330 1.976 . S
O341 C348 1.287 . S
O342 Fe331 1.996 . S
O342 C348 1.255 . S
O343 Fe333 1.976 . S
O343 C338 1.287 . S
O344 Fe330 1.996 . S
O344 C338 1.255 . S
C345 O349 1.295 . S
C345 O350 1.235 . S
O346 Fe331 1.976 . S
O346 C340 1.287 . S
O347 Fe333 1.996 . S
O347 C340 1.255 . S
C348 O341 1.287 . S
C348 O342 1.255 . S
O349 Fe331 2.002 . S
O349 C345 1.295 . S
O350 Fe333 1.997 . S
O350 C345 1.235 . S
C351 O334 1.295 . S
C351 O335 1.235 . S
C352 O364 1.241 . S
C352 O365 1.280 . S
C353 O366 1.277 . S
C353 O367 1.245 . S
C354 O378 1.247 . S
C354 O380 1.289 . S
Mg355 O356 1.926 1_455 S
Mg355 O365 1.984 1_455 S
Mg355 O367 1.988 . S
Mg355 O368 2.061 1_455 S
O356 Mg355 1.926 1_655 S
O356 Mg357 1.986 . S
O356 Mg358 1.915 1_655 S
Mg357 O356 1.986 . S
Mg357 O364 2.042 . S
Mg357 O366 2.041 1_655 S
Mg357 O372 2.038 . S
Mg357 O380 2.238 1_655 S
Mg358 O356 1.915 1_455 S
Mg358 O359 1.919 . S
Mg358 O369 2.106 1_455 S
Mg358 O371 2.071 1_455 S
Mg358 O380 2.107 . S
Mg358 O381 2.087 . S
O359 Mg358 1.919 . S
O359 Mg360 1.926 1_455 S
O359 Mg361 1.986 . S
Mg360 O359 1.926 1_655 S
Mg360 O374 1.984 1_655 S
Mg360 O377 1.988 . S
Mg360 O378 2.061 1_655 S
Mg361 O359 1.986 . S
Mg361 O369 2.238 1_455 S
Mg361 O373 2.042 . S
Mg361 O375 2.041 1_455 S
Mg361 O382 2.038 . S
C362 O368 1.247 . S
C362 O369 1.289 . S
C363 O381 1.245 . S
C363 O382 1.274 . S
O364 C352 1.241 . S
O364 Mg357 2.042 . S
O365 C352 1.280 . S
O365 Mg355 1.984 1_655 S
O366 C353 1.277 . S
O366 Mg357 2.041 1_455 S
O367 C353 1.245 . S
O367 Mg355 1.988 . S
O368 Mg355 2.061 1_655 S
O368 C362 1.247 . S
O369 Mg358 2.106 1_655 S
O369 Mg361 2.238 1_655 S
O369 C362 1.289 . S
C370 O371 1.245 . S
C370 O372 1.274 . S
O371 Mg358 2.071 1_655 S
O371 C370 1.245 . S
O372 Mg357 2.038 . S
O372 C370 1.274 . S
O373 Mg361 2.042 . S
O373 C376 1.241 . S
O374 Mg360 1.984 1_455 S
O374 C376 1.280 . S
O375 Mg361 2.041 1_655 S
O375 C379 1.277 . S
C376 O373 1.241 . S
C376 O374 1.280 . S
O377 Mg360 1.988 . S
O377 C379 1.245 . S
O378 C354 1.247 . S
O378 Mg360 2.061 1_455 S
C379 O375 1.277 . S
C379 O377 1.245 . S
O380 C354 1.289 . S
O380 Mg357 2.238 1_455 S
O380 Mg358 2.107 . S
O381 Mg358 2.087 . S
O381 C363 1.245 . S
O382 Mg361 2.038 . S
O382 C363 1.274 . S
C383 O395 1.241 . S
C383 O396 1.280 . S
C384 O397 1.277 . S
C384 O398 1.245 . S
C385 O409 1.247 . S
C385 O411 1.289 . S
Mg386 O387 1.926 . S
Mg386 O396 1.984 . S
Mg386 O398 1.988 . S
Mg386 O399 2.061 . S
O387 Mg386 1.926 . S
O387 Mg388 1.986 . S
O387 Mg389 1.917 . S
Mg388 O387 1.986 . S
Mg388 O395 2.042 . S
Mg388 O397 2.041 . S
Mg388 O403 2.038 . S
Mg388 O411 2.238 . S
Mg389 O387 1.917 . S
Mg389 O390 1.917 . S
Mg389 O400 2.106 . S
Mg389 O402 2.079 . S
Mg389 O411 2.106 . S
Mg389 O412 2.079 . S
O390 Mg389 1.917 . S
O390 Mg391 1.926 . S
O390 Mg392 1.986 . S
Mg391 O390 1.926 . S
Mg391 O405 1.984 . S
Mg391 O408 1.988 . S
Mg391 O409 2.061 . S
Mg392 O390 1.986 . S
Mg392 O400 2.238 . S
Mg392 O404 2.042 . S
Mg392 O406 2.041 . S
Mg392 O413 2.038 . S
C393 O399 1.247 . S
C393 O400 1.289 . S
C394 O412 1.245 . S
C394 O413 1.274 . S
O395 C383 1.241 . S
O395 Mg388 2.042 . S
O396 C383 1.280 . S
O396 Mg386 1.984 . S
O397 C384 1.277 . S
O397 Mg388 2.041 . S
O398 C384 1.245 . S
O398 Mg386 1.988 . S
O399 Mg386 2.061 . S
O399 C393 1.247 . S
O400 Mg389 2.106 . S
O400 Mg392 2.238 . S
O400 C393 1.289 . S
C401 O402 1.245 . S
C401 O403 1.274 . S
O402 Mg389 2.079 . S
O402 C401 1.245 . S
O403 Mg388 2.038 . S
O403 C401 1.274 . S
O404 Mg392 2.042 . S
O404 C407 1.241 . S
O405 Mg391 1.984 . S
O405 C407 1.280 . S
O406 Mg392 2.041 . S
O406 C410 1.277 . S
C407 O404 1.241 . S
C407 O405 1.280 . S
O408 Mg391 1.988 . S
O408 C410 1.245 . S
O409 C385 1.247 . S
O409 Mg391 2.061 . S
C410 O406 1.277 . S
C410 O408 1.245 . S
O411 C385 1.289 . S
O411 Mg388 2.238 . S
O411 Mg389 2.106 . S
O412 Mg389 2.079 . S
O412 C394 1.245 . S
O413 Mg392 2.038 . S
O413 C394 1.274 . S
C414 O426 1.241 . S
C414 O427 1.280 . S
C415 O428 1.277 . S
C415 O429 1.245 . S
C416 O440 1.247 . S
C416 O442 1.289 . S
Mg417 O418 1.926 1_455 S
Mg417 O427 1.984 1_455 S
Mg417 O429 1.988 . S
Mg417 O430 2.061 . S
O418 Mg417 1.926 1_655 S
O418 Mg419 1.986 . S
O418 Mg420 1.917 1_655 S
Mg419 O418 1.986 . S
Mg419 O426 2.042 . S
Mg419 O428 2.041 1_655 S
Mg419 O434 2.038 . S
Mg419 O442 2.238 1_655 S
Mg420 O418 1.917 1_455 S
Mg420 O421 1.917 . S
Mg420 O431 2.106 1_455 S
Mg420 O433 2.079 1_455 S
Mg420 O442 2.106 . S
Mg420 O443 2.079 . S
O421 Mg420 1.917 . S
O421 Mg422 1.926 1_455 S
O421 Mg423 1.986 . S
Mg422 O421 1.926 1_655 S
Mg422 O436 1.984 1_655 S
Mg422 O439 1.988 . S
Mg422 O440 2.061 1_655 S
Mg423 O421 1.986 . S
Mg423 O431 2.236 1_455 S
Mg423 O435 2.042 . S
Mg423 O437 2.041 1_455 S
Mg423 O444 2.038 . S
C424 O430 1.247 1_655 S
C424 O431 1.290 . S
C425 O443 1.245 . S
C425 O444 1.274 . S
O426 C414 1.241 . S
O426 Mg419 2.042 . S
O427 C414 1.280 . S
O427 Mg417 1.984 1_655 S
O428 C415 1.277 . S
O428 Mg419 2.041 1_455 S
O429 C415 1.245 . S
O429 Mg417 1.988 . S
O430 Mg417 2.061 . S
O430 C424 1.247 1_455 S
O431 Mg420 2.106 1_655 S
O431 Mg423 2.236 1_655 S
O431 C424 1.290 . S
C432 O433 1.245 . S
C432 O434 1.274 . S
O433 Mg420 2.079 1_655 S
O433 C432 1.245 . S
O434 Mg419 2.038 . S
O434 C432 1.274 . S
O435 Mg423 2.042 . S
O435 C438 1.241 . S
O436 Mg422 1.984 1_455 S
O436 C438 1.280 . S
O437 Mg423 2.041 1_655 S
O437 C441 1.277 . S
C438 O435 1.241 . S
C438 O436 1.280 . S
O439 Mg422 1.988 . S
O439 C441 1.245 . S
O440 C416 1.247 . S
O440 Mg422 2.061 1_455 S
C441 O437 1.277 . S
C441 O439 1.245 . S
O442 C416 1.289 . S
O442 Mg419 2.238 1_455 S
O442 Mg420 2.106 . S
O443 Mg420 2.079 . S
O443 C425 1.245 . S
O444 Mg423 2.038 . S
O444 C425 1.274 . S
C445 O457 1.241 . S
C445 O458 1.280 . S
C446 O459 1.277 . S
C446 O460 1.245 . S
C447 O471 1.247 . S
C447 O473 1.289 . S
Mg448 O449 1.926 1_565 S
Mg448 O458 1.984 1_565 S
Mg448 O460 1.988 . S
Mg448 O461 2.061 1_565 S
O449 Mg448 1.926 1_545 S
O449 Mg450 1.986 . S
O449 Mg451 1.922 . S
Mg450 O449 1.986 . S
Mg450 O457 2.042 . S
Mg450 O459 2.041 1_545 S
Mg450 O465 2.038 . S
Mg450 O473 2.238 1_545 S
Mg451 O449 1.922 . S
Mg451 O452 1.912 1_545 S
Mg451 O462 2.108 . S
Mg451 O464 2.100 . S
Mg451 O473 2.105 1_545 S
Mg451 O474 2.057 1_545 S
O452 Mg451 1.912 1_565 S
O452 Mg453 1.926 1_565 S
O452 Mg454 1.986 . S
Mg453 O452 1.926 1_545 S
Mg453 O467 1.984 1_545 S
Mg453 O470 1.988 . S
Mg453 O471 2.061 1_545 S
Mg454 O452 1.986 . S
Mg454 O462 2.238 1_565 S
Mg454 O466 2.042 . S
Mg454 O468 2.041 1_565 S
Mg454 O475 2.038 . S
C455 O461 1.247 . S
C455 O462 1.289 . S
C456 O474 1.245 . S
C456 O475 1.274 . S
O457 C445 1.241 . S
O457 Mg450 2.042 . S
O458 C445 1.280 . S
O458 Mg448 1.984 1_545 S
O459 C446 1.277 . S
O459 Mg450 2.041 1_565 S
O460 C446 1.245 . S
O460 Mg448 1.988 . S
O461 Mg448 2.061 1_545 S
O461 C455 1.247 . S
O462 Mg451 2.108 . S
O462 Mg454 2.238 1_545 S
O462 C455 1.289 . S
C463 O464 1.245 . S
C463 O465 1.274 . S
O464 Mg451 2.100 . S
O464 C463 1.245 . S
O465 Mg450 2.038 . S
O465 C463 1.274 . S
O466 Mg454 2.042 . S
O466 C469 1.241 . S
O467 Mg453 1.984 1_565 S
O467 C469 1.280 . S
O468 Mg454 2.041 1_545 S
O468 C472 1.277 . S
C469 O466 1.241 . S
C469 O467 1.280 . S
O470 Mg453 1.988 . S
O470 C472 1.245 . S
O471 C447 1.247 . S
O471 Mg453 2.061 1_565 S
C472 O468 1.277 . S
C472 O470 1.245 . S
O473 C447 1.289 . S
O473 Mg450 2.238 1_565 S
O473 Mg451 2.105 1_565 S
O474 Mg451 2.057 1_565 S
O474 C456 1.245 . S
O475 Mg454 2.038 . S
O475 C456 1.274 . S
C476 O488 1.241 . S
C476 O489 1.280 . S
C477 O490 1.277 . S
C477 O491 1.245 . S
C478 O502 1.247 . S
C478 O504 1.289 . S
Mg479 O480 1.923 1_554 S
Mg479 O489 1.984 1_554 S
Mg479 O491 1.988 . S
Mg479 O492 2.061 . S
O480 Mg479 1.923 1_556 S
O480 Mg481 1.990 . S
O480 Mg482 1.916 1_556 S
Mg481 O480 1.990 . S
Mg481 O488 2.042 . S
Mg481 O490 2.041 1_556 S
Mg481 O496 2.038 . S
Mg481 O504 2.238 . S
Mg482 O480 1.916 1_554 S
Mg482 O483 1.917 . S
Mg482 O493 2.106 . S
Mg482 O495 2.079 1_554 S
Mg482 O504 2.106 1_554 S
Mg482 O505 2.079 . S
O483 Mg482 1.917 . S
O483 Mg484 1.926 1_554 S
O483 Mg485 1.986 . S
Mg484 O483 1.926 1_556 S
Mg484 O498 1.984 1_556 S
Mg484 O501 1.988 . S
Mg484 O502 2.061 . S
Mg485 O483 1.986 . S
Mg485 O493 2.238 . S
Mg485 O497 2.042 . S
Mg485 O499 2.041 . S
Mg485 O506 2.038 . S
C486 O492 1.247 . S
C486 O493 1.289 . S
C487 O505 1.245 . S
C487 O506 1.274 . S
O488 C476 1.241 . S
O488 Mg481 2.042 . S
O489 C476 1.280 . S
O489 Mg479 1.984 1_556 S
O490 C477 1.277 . S
O490 Mg481 2.041 1_554 S
O491 C477 1.245 . S
O491 Mg479 1.988 . S
O492 Mg479 2.061 . S
O492 C486 1.247 . S
O493 Mg482 2.106 . S
O493 Mg485 2.238 . S
O493 C486 1.289 . S
C494 O495 1.245 . S
C494 O496 1.274 . S
O495 Mg482 2.079 1_556 S
O495 C494 1.245 . S
O496 Mg481 2.038 . S
O496 C494 1.274 . S
O497 Mg485 2.042 . S
O497 C500 1.241 . S
O498 Mg484 1.984 1_554 S
O498 C500 1.280 . S
O499 Mg485 2.041 . S
O499 C503 1.277 1_554 S
C500 O497 1.241 . S
C500 O498 1.280 . S
O501 Mg484 1.988 . S
O501 C503 1.245 . S
O502 C478 1.247 . S
O502 Mg484 2.061 . S
C503 O499 1.277 1_556 S
C503 O501 1.245 . S
O504 C478 1.289 . S
O504 Mg481 2.238 . S
O504 Mg482 2.106 1_556 S
O505 Mg482 2.079 . S
O505 C487 1.245 . S
O506 Mg485 2.038 . S
O506 C487 1.274 . S
C507 O519 1.241 . S
C507 O520 1.280 . S
C508 O521 1.277 . S
C508 O522 1.245 . S
C509 O533 1.247 . S
C509 O535 1.289 . S
Mg510 O511 1.926 . S
Mg510 O520 1.984 . S
Mg510 O522 1.988 . S
Mg510 O523 2.061 . S
O511 Mg510 1.926 . S
O511 Mg512 1.986 . S
O511 Mg513 1.917 . S
Mg512 O511 1.986 . S
Mg512 O519 2.042 . S
Mg512 O521 2.041 . S
Mg512 O527 2.038 . S
Mg512 O535 2.238 . S
Mg513 O511 1.917 . S
Mg513 O514 1.917 . S
Mg513 O524 2.106 . S
Mg513 O526 2.079 . S
Mg513 O535 2.106 . S
Mg513 O536 2.079 . S
O514 Mg513 1.917 . S
O514 Mg515 1.926 . S
O514 Mg516 1.986 . S
Mg515 O514 1.926 . S
Mg515 O529 1.984 . S
Mg515 O532 1.988 . S
Mg515 O533 2.061 . S
Mg516 O514 1.986 . S
Mg516 O524 2.238 . S
Mg516 O528 2.042 . S
Mg516 O530 2.041 . S
Mg516 O537 2.038 . S
C517 O523 1.247 . S
C517 O524 1.289 . S
C518 O536 1.245 . S
C518 O537 1.274 . S
O519 C507 1.241 . S
O519 Mg512 2.042 . S
O520 C507 1.280 . S
O520 Mg510 1.984 . S
O521 C508 1.277 . S
O521 Mg512 2.041 . S
O522 C508 1.245 . S
O522 Mg510 1.988 . S
O523 Mg510 2.061 . S
O523 C517 1.247 . S
O524 Mg513 2.106 . S
O524 Mg516 2.238 . S
O524 C517 1.289 . S
C525 O526 1.245 . S
C525 O527 1.274 . S
O526 Mg513 2.079 . S
O526 C525 1.245 . S
O527 Mg512 2.038 . S
O527 C525 1.274 . S
O528 Mg516 2.042 . S
O528 C531 1.241 . S
O529 Mg515 1.984 . S
O529 C531 1.280 . S
O530 Mg516 2.041 . S
O530 C534 1.277 . S
C531 O528 1.241 . S
C531 O529 1.280 . S
O532 Mg515 1.988 . S
O532 C534 1.245 . S
O533 C509 1.247 . S
O533 Mg515 2.061 . S
C534 O530 1.277 . S
C534 O532 1.245 . S
O535 C509 1.289 . S
O535 Mg512 2.238 . S
O535 Mg513 2.106 . S
O536 Mg513 2.079 . S
O536 C518 1.245 . S
O537 Mg516 2.038 . S
O537 C518 1.274 . S
C538 O550 1.241 . S
C538 O551 1.280 . S
C539 O552 1.277 . S
C539 O553 1.245 . S
C540 O564 1.249 . S
C540 O566 1.289 . S
Mg541 O542 1.926 1_556 S
Mg541 O551 1.984 1_556 S
Mg541 O553 1.988 . S
Mg541 O554 2.058 1_556 S
O542 Mg541 1.926 1_554 S
O542 Mg543 1.986 . S
O542 Mg544 1.917 . S
Mg543 O542 1.986 . S
Mg543 O550 2.042 . S
Mg543 O552 2.041 1_554 S
Mg543 O558 2.038 . S
Mg543 O566 2.238 1_554 S
Mg544 O542 1.917 . S
Mg544 O545 1.917 1_554 S
Mg544 O555 2.106 . S
Mg544 O557 2.079 . S
Mg544 O566 2.106 1_554 S
Mg544 O567 2.079 1_554 S
O545 Mg544 1.917 1_556 S
O545 Mg546 1.926 1_556 S
O545 Mg547 1.986 . S
Mg546 O545 1.926 1_554 S
Mg546 O560 1.984 1_554 S
Mg546 O563 1.988 . S
Mg546 O564 2.060 1_554 S
Mg547 O545 1.986 . S
Mg547 O555 2.238 1_556 S
Mg547 O559 2.042 . S
Mg547 O561 2.041 1_556 S
Mg547 O568 2.038 . S
C548 O554 1.252 . S
C548 O555 1.289 . S
C549 O567 1.245 . S
C549 O568 1.274 . S
O550 C538 1.241 . S
O550 Mg543 2.042 . S
O551 C538 1.280 . S
O551 Mg541 1.984 1_554 S
O552 C539 1.277 . S
O552 Mg543 2.041 1_556 S
O553 C539 1.245 . S
O553 Mg541 1.988 . S
O554 Mg541 2.058 1_554 S
O554 C548 1.252 . S
O555 Mg544 2.106 . S
O555 Mg547 2.238 1_554 S
O555 C548 1.289 . S
C556 O557 1.245 . S
C556 O558 1.274 . S
O557 Mg544 2.079 . S
O557 C556 1.245 . S
O558 Mg543 2.038 . S
O558 C556 1.274 . S
O559 Mg547 2.042 . S
O559 C562 1.241 . S
O560 Mg546 1.984 1_556 S
O560 C562 1.280 . S
O561 Mg547 2.041 1_554 S
O561 C565 1.277 . S
C562 O559 1.241 . S
C562 O560 1.280 . S
O563 Mg546 1.988 . S
O563 C565 1.245 . S
O564 C540 1.249 . S
O564 Mg546 2.060 1_556 S
C565 O561 1.277 . S
C565 O563 1.245 . S
O566 C540 1.289 . S
O566 Mg543 2.238 1_556 S
O566 Mg544 2.106 1_556 S
O567 Mg544 2.079 1_556 S
O567 C549 1.245 . S
O568 Mg547 2.038 . S
O568 C549 1.274 . S
C569 O581 1.241 . S
C569 O582 1.280 . S
C570 O583 1.277 . S
C570 O584 1.245 . S
C571 O595 1.247 . S
C571 O597 1.289 . S
Mg572 O573 1.926 . S
Mg572 O582 1.984 . S
Mg572 O584 1.988 . S
Mg572 O585 2.061 . S
O573 Mg572 1.926 . S
O573 Mg574 1.986 . S
O573 Mg575 1.917 . S
Mg574 O573 1.986 . S
Mg574 O581 2.042 . S
Mg574 O583 2.041 . S
Mg574 O589 2.038 . S
Mg574 O597 2.238 . S
Mg575 O573 1.917 . S
Mg575 O576 1.917 . S
Mg575 O586 2.106 . S
Mg575 O588 2.079 . S
Mg575 O597 2.106 . S
Mg575 O598 2.079 . S
O576 Mg575 1.917 . S
O576 Mg577 1.926 . S
O576 Mg578 1.986 . S
Mg577 O576 1.926 . S
Mg577 O591 1.984 . S
Mg577 O594 1.988 . S
Mg577 O595 2.061 . S
Mg578 O576 1.986 . S
Mg578 O586 2.238 . S
Mg578 O590 2.042 . S
Mg578 O592 2.041 . S
Mg578 O599 2.038 . S
C579 O585 1.247 . S
C579 O586 1.289 . S
C580 O598 1.245 . S
C580 O599 1.274 . S
O581 C569 1.241 . S
O581 Mg574 2.042 . S
O582 C569 1.280 . S
O582 Mg572 1.984 . S
O583 C570 1.277 . S
O583 Mg574 2.041 . S
O584 C570 1.245 . S
O584 Mg572 1.988 . S
O585 Mg572 2.061 . S
O585 C579 1.247 . S
O586 Mg575 2.106 . S
O586 Mg578 2.238 . S
O586 C579 1.289 . S
C587 O588 1.245 . S
C587 O589 1.274 . S
O588 Mg575 2.079 . S
O588 C587 1.245 . S
O589 Mg574 2.038 . S
O589 C587 1.274 . S
O590 Mg578 2.042 . S
O590 C593 1.241 . S
O591 Mg577 1.984 . S
O591 C593 1.280 . S
O592 Mg578 2.041 . S
O592 C596 1.277 . S
C593 O590 1.241 . S
C593 O591 1.280 . S
O594 Mg577 1.988 . S
O594 C596 1.245 . S
O595 C571 1.247 . S
O595 Mg577 2.061 . S
C596 O592 1.277 . S
C596 O594 1.245 . S
O597 C571 1.289 . S
O597 Mg574 2.238 . S
O597 Mg575 2.106 . S
O598 Mg575 2.079 . S
O598 C580 1.245 . S
O599 Mg578 2.038 . S
O599 C580 1.274 . S
C600 O612 1.241 . S
C600 O613 1.280 . S
C601 O614 1.277 . S
C601 O615 1.245 . S
C602 O626 1.247 . S
C602 O628 1.289 . S
Mg603 O604 1.926 . S
Mg603 O613 1.984 . S
Mg603 O615 1.988 . S
Mg603 O616 2.061 . S
O604 Mg603 1.926 . S
O604 Mg605 1.986 . S
O604 Mg606 1.917 . S
Mg605 O604 1.986 . S
Mg605 O612 2.042 . S
Mg605 O614 2.041 . S
Mg605 O620 2.038 . S
Mg605 O628 2.238 . S
Mg606 O604 1.917 . S
Mg606 O607 1.917 . S
Mg606 O617 2.106 . S
Mg606 O619 2.079 . S
Mg606 O628 2.106 . S
Mg606 O629 2.079 . S
O607 Mg606 1.917 . S
O607 Mg608 1.926 . S
O607 Mg609 1.986 . S
Mg608 O607 1.926 . S
Mg608 O622 1.984 . S
Mg608 O625 1.988 . S
Mg608 O626 2.061 . S
Mg609 O607 1.986 . S
Mg609 O617 2.238 . S
Mg609 O621 2.042 . S
Mg609 O623 2.041 . S
Mg609 O630 2.038 . S
C610 O616 1.247 . S
C610 O617 1.289 . S
C611 O629 1.245 . S
C611 O630 1.274 . S
O612 C600 1.241 . S
O612 Mg605 2.042 . S
O613 C600 1.280 . S
O613 Mg603 1.984 . S
O614 C601 1.277 . S
O614 Mg605 2.041 . S
O615 C601 1.245 . S
O615 Mg603 1.988 . S
O616 Mg603 2.061 . S
O616 C610 1.247 . S
O617 Mg606 2.106 . S
O617 Mg609 2.238 . S
O617 C610 1.289 . S
C618 O619 1.245 . S
C618 O620 1.274 . S
O619 Mg606 2.079 . S
O619 C618 1.245 . S
O620 Mg605 2.038 . S
O620 C618 1.274 . S
O621 Mg609 2.042 . S
O621 C624 1.241 . S
O622 Mg608 1.984 . S
O622 C624 1.280 . S
O623 Mg609 2.041 . S
O623 C627 1.277 . S
C624 O621 1.241 . S
C624 O622 1.280 . S
O625 Mg608 1.988 . S
O625 C627 1.245 . S
O626 C602 1.247 . S
O626 Mg608 2.061 . S
C627 O623 1.277 . S
C627 O625 1.245 . S
O628 C602 1.289 . S
O628 Mg605 2.238 . S
O628 Mg606 2.106 . S
O629 Mg606 2.079 . S
O629 C611 1.245 . S
O630 Mg609 2.038 . S
O630 C611 1.274 . S
C631 O643 1.241 . S
C631 O644 1.280 . S
C632 O645 1.277 . S
C632 O646 1.245 . S
C633 O657 1.247 . S
C633 O659 1.289 . S
Mg634 O635 1.926 . S
Mg634 O644 1.984 . S
Mg634 O646 1.988 . S
Mg634 O647 2.061 . S
O635 Mg634 1.926 . S
O635 Mg636 1.986 . S
O635 Mg637 1.917 . S
Mg636 O635 1.986 . S
Mg636 O643 2.042 . S
Mg636 O645 2.041 . S
Mg636 O651 2.038 . S
Mg636 O659 2.238 . S
Mg637 O635 1.917 . S
Mg637 O638 1.917 . S
Mg637 O648 2.106 . S
Mg637 O650 2.079 . S
Mg637 O659 2.106 . S
Mg637 O660 2.079 . S
O638 Mg637 1.917 . S
O638 Mg639 1.926 . S
O638 Mg640 1.986 . S
Mg639 O638 1.926 . S
Mg639 O653 1.984 . S
Mg639 O656 1.988 . S
Mg639 O657 2.061 . S
Mg640 O638 1.986 . S
Mg640 O648 2.238 . S
Mg640 O652 2.042 . S
Mg640 O654 2.041 . S
Mg640 O661 2.038 . S
C641 O647 1.247 . S
C641 O648 1.289 . S
C642 O660 1.245 . S
C642 O661 1.274 . S
O643 C631 1.241 . S
O643 Mg636 2.042 . S
O644 C631 1.280 . S
O644 Mg634 1.984 . S
O645 C632 1.277 . S
O645 Mg636 2.041 . S
O646 C632 1.245 . S
O646 Mg634 1.988 . S
O647 Mg634 2.061 . S
O647 C641 1.247 . S
O648 Mg637 2.106 . S
O648 Mg640 2.238 . S
O648 C641 1.289 . S
C649 O650 1.245 . S
C649 O651 1.274 . S
O650 Mg637 2.079 . S
O650 C649 1.245 . S
O651 Mg636 2.038 . S
O651 C649 1.274 . S
O652 Mg640 2.042 . S
O652 C655 1.241 . S
O653 Mg639 1.984 . S
O653 C655 1.280 . S
O654 Mg640 2.041 . S
O654 C658 1.277 . S
C655 O652 1.241 . S
C655 O653 1.280 . S
O656 Mg639 1.988 . S
O656 C658 1.245 . S
O657 C633 1.247 . S
O657 Mg639 2.061 . S
C658 O654 1.277 . S
C658 O656 1.245 . S
O659 C633 1.289 . S
O659 Mg636 2.238 . S
O659 Mg637 2.106 . S
O660 Mg637 2.079 . S
O660 C642 1.245 . S
O661 Mg640 2.038 . S
O661 C642 1.274 . S
C662 O674 1.241 . S
C662 O675 1.280 . S
C663 O676 1.277 . S
C663 O677 1.245 . S
C664 O688 1.247 . S
C664 O690 1.289 . S
Mg665 O666 1.926 1_565 S
Mg665 O675 1.984 1_565 S
Mg665 O677 1.988 . S
Mg665 O678 2.061 1_565 S
O666 Mg665 1.926 1_545 S
O666 Mg667 1.986 . S
O666 Mg668 1.925 . S
Mg667 O666 1.986 . S
Mg667 O674 2.042 . S
Mg667 O676 2.041 1_545 S
Mg667 O682 2.038 . S
Mg667 O690 2.238 1_545 S
Mg668 O666 1.925 . S
Mg668 O669 1.910 1_545 S
Mg668 O679 2.110 . S
Mg668 O681 2.112 . S
Mg668 O690 2.103 1_545 S
Mg668 O691 2.045 1_545 S
O669 Mg668 1.910 1_565 S
O669 Mg670 1.926 1_565 S
O669 Mg671 1.986 . S
Mg670 O669 1.926 1_545 S
Mg670 O684 1.984 1_545 S
Mg670 O687 1.988 . S
Mg670 O688 2.061 1_545 S
Mg671 O669 1.986 . S
Mg671 O679 2.238 1_565 S
Mg671 O683 2.042 . S
Mg671 O685 2.041 1_565 S
Mg671 O692 2.038 . S
C672 O678 1.247 . S
C672 O679 1.289 . S
C673 O691 1.245 . S
C673 O692 1.274 . S
O674 C662 1.241 . S
O674 Mg667 2.042 . S
O675 C662 1.280 . S
O675 Mg665 1.984 1_545 S
O676 C663 1.277 . S
O676 Mg667 2.041 1_565 S
O677 C663 1.245 . S
O677 Mg665 1.988 . S
O678 Mg665 2.061 1_545 S
O678 C672 1.247 . S
O679 Mg668 2.110 . S
O679 Mg671 2.238 1_545 S
O679 C672 1.289 . S
C680 O681 1.245 . S
C680 O682 1.274 . S
O681 Mg668 2.112 . S
O681 C680 1.245 . S
O682 Mg667 2.038 . S
O682 C680 1.274 . S
O683 Mg671 2.042 . S
O683 C686 1.241 . S
O684 Mg670 1.984 1_565 S
O684 C686 1.280 . S
O685 Mg671 2.041 1_545 S
O685 C689 1.277 . S
C686 O683 1.241 . S
C686 O684 1.280 . S
O687 Mg670 1.988 . S
O687 C689 1.245 . S
O688 C664 1.247 . S
O688 Mg670 2.061 1_565 S
C689 O685 1.277 . S
C689 O687 1.245 . S
O690 C664 1.289 . S
O690 Mg667 2.238 1_565 S
O690 Mg668 2.103 1_565 S
O691 Mg668 2.045 1_565 S
O691 C673 1.245 . S
O692 Mg671 2.038 . S
O692 C673 1.274 . S
C693 O705 1.241 . S
C693 O706 1.280 . S
C694 O707 1.277 . S
C694 O708 1.245 . S
C695 O719 1.247 . S
C695 O721 1.289 . S
Mg696 O697 1.926 . S
Mg696 O706 1.984 . S
Mg696 O708 1.988 . S
Mg696 O709 2.061 . S
O697 Mg696 1.926 . S
O697 Mg698 1.986 . S
O697 Mg699 1.917 . S
Mg698 O697 1.986 . S
Mg698 O705 2.042 . S
Mg698 O707 2.041 . S
Mg698 O713 2.038 . S
Mg698 O721 2.238 . S
Mg699 O697 1.917 . S
Mg699 O700 1.917 . S
Mg699 O710 2.106 . S
Mg699 O712 2.079 . S
Mg699 O721 2.106 . S
Mg699 O722 2.079 . S
O700 Mg699 1.917 . S
O700 Mg701 1.926 . S
O700 Mg702 1.986 . S
Mg701 O700 1.926 . S
Mg701 O715 1.984 . S
Mg701 O718 1.988 . S
Mg701 O719 2.061 . S
Mg702 O700 1.986 . S
Mg702 O710 2.238 . S
Mg702 O714 2.042 . S
Mg702 O716 2.041 . S
Mg702 O723 2.038 . S
C703 O709 1.247 . S
C703 O710 1.289 . S
C704 O722 1.245 . S
C704 O723 1.274 . S
O705 C693 1.241 . S
O705 Mg698 2.042 . S
O706 C693 1.280 . S
O706 Mg696 1.984 . S
O707 C694 1.277 . S
O707 Mg698 2.041 . S
O708 C694 1.245 . S
O708 Mg696 1.988 . S
O709 Mg696 2.061 . S
O709 C703 1.247 . S
O710 Mg699 2.106 . S
O710 Mg702 2.238 . S
O710 C703 1.289 . S
C711 O712 1.245 . S
C711 O713 1.274 . S
O712 Mg699 2.079 . S
O712 C711 1.245 . S
O713 Mg698 2.038 . S
O713 C711 1.274 . S
O714 Mg702 2.042 . S
O714 C717 1.241 . S
O715 Mg701 1.984 . S
O715 C717 1.280 . S
O716 Mg702 2.041 . S
O716 C720 1.277 . S
C717 O714 1.241 . S
C717 O715 1.280 . S
O718 Mg701 1.988 . S
O718 C720 1.245 . S
O719 C695 1.247 . S
O719 Mg701 2.061 . S
C720 O716 1.277 . S
C720 O718 1.245 . S
O721 C695 1.289 . S
O721 Mg698 2.238 . S
O721 Mg699 2.106 . S
O722 Mg699 2.079 . S
O722 C704 1.245 . S
O723 Mg702 2.038 . S
O723 C704 1.274 . S
H724 C732 0.929 . S
H725 C734 0.930 . S
H726 C736 0.930 . S
H727 C739 0.929 . S
H728 C742 0.930 . S
H729 C744 0.960 . S
H730 C744 0.960 . S
H731 C744 0.960 . S
C732 H724 0.929 . S
C732 C733 1.377 . S
C732 C734 1.384 . S
C733 C732 1.377 . S
C733 C739 1.390 . S
C734 H725 0.930 . S
C734 C732 1.384 . S
C734 C735 1.372 . S
C735 C734 1.372 . S
C735 C736 1.400 . S
C735 C740 1.490 . S
C736 H726 0.930 . S
C736 C735 1.400 . S
C736 C739 1.386 . S
H737 C753 0.930 . S
H738 C754 0.931 . S
C739 H727 0.929 . S
C739 C733 1.390 . S
C739 C736 1.386 . S
C740 C735 1.490 . S
C740 C742 1.395 . S
C740 C743 1.403 . S
H741 C747 0.930 . S
C742 H728 0.930 . S
C742 C740 1.395 . S
C742 C745 1.403 . S
C743 C740 1.403 . S
C743 C744 1.524 . S
C743 C747 1.400 . S
C744 H729 0.960 . S
C744 H730 0.960 . S
C744 H731 0.960 . S
C744 C743 1.524 . S
C745 C742 1.403 . S
C745 C746 1.392 . S
C745 C749 1.495 . S
C746 C745 1.392 . S
C746 C747 1.385 . S
C746 C748 1.478 . S
C747 H741 0.930 . S
C747 C743 1.400 . S
C747 C746 1.385 . S
C748 C746 1.478 . S
C748 C750 1.381 . S
C748 C754 1.383 . S
C749 C745 1.495 . S
C749 H755 0.959 . S
C749 H756 0.961 . S
C749 H757 0.960 . S
C750 C748 1.381 . S
C750 C751 1.394 . S
C750 H758 0.930 . S
C751 C750 1.394 . S
C751 C752 1.383 . S
C751 H759 0.929 . S
C752 C751 1.383 . S
C752 C753 1.377 . S
C753 H737 0.930 . S
C753 C752 1.377 . S
C753 C754 1.379 . S
C754 H738 0.931 . S
C754 C748 1.383 . S
C754 C753 1.379 . S
H755 C749 0.959 . S
H756 C749 0.961 . S
H757 C749 0.960 . S
H758 C750 0.930 . S
H759 C751 0.929 . S
H760 C768 0.929 . S
H761 C770 0.930 . S
H762 C772 0.930 . S
H763 C775 0.929 . S
H764 C778 0.930 . S
H765 C780 0.960 . S
H766 C780 0.960 . S
H767 C780 0.960 . S
C768 H760 0.929 . S
C768 C769 1.377 . S
C768 C770 1.384 . S
C769 C768 1.377 . S
C769 C775 1.390 . S
C770 H761 0.930 . S
C770 C768 1.384 . S
C770 C771 1.372 . S
C771 C770 1.372 . S
C771 C772 1.400 . S
C771 C776 1.490 . S
C772 H762 0.930 . S
C772 C771 1.400 . S
C772 C775 1.386 . S
H773 C789 0.930 . S
H774 C790 0.931 . S
C775 H763 0.929 . S
C775 C769 1.390 . S
C775 C772 1.386 . S
C776 C771 1.490 . S
C776 C778 1.395 . S
C776 C779 1.403 . S
H777 C783 0.930 . S
C778 H764 0.930 . S
C778 C776 1.395 . S
C778 C781 1.403 . S
C779 C776 1.403 . S
C779 C780 1.524 . S
C779 C783 1.400 . S
C780 H765 0.960 . S
C780 H766 0.960 . S
C780 H767 0.960 . S
C780 C779 1.524 . S
C781 C778 1.403 . S
C781 C782 1.392 . S
C781 C785 1.495 . S
C782 C781 1.392 . S
C782 C783 1.385 . S
C782 C784 1.478 . S
C783 H777 0.930 . S
C783 C779 1.400 . S
C783 C782 1.385 . S
C784 C782 1.478 . S
C784 C786 1.381 . S
C784 C790 1.383 . S
C785 C781 1.495 . S
C785 H791 0.959 . S
C785 H792 0.961 . S
C785 H793 0.960 . S
C786 C784 1.381 . S
C786 C787 1.394 . S
C786 H794 0.930 . S
C787 C786 1.394 . S
C787 C788 1.383 . S
C787 H795 0.929 . S
C788 C787 1.383 . S
C788 C789 1.377 . S
C789 H773 0.930 . S
C789 C788 1.377 . S
C789 C790 1.379 . S
C790 H774 0.931 . S
C790 C784 1.383 . S
C790 C789 1.379 . S
H791 C785 0.959 . S
H792 C785 0.961 . S
H793 C785 0.960 . S
H794 C786 0.930 . S
H795 C787 0.929 . S
H796 C804 0.929 . S
H797 C806 0.930 . S
H798 C808 0.930 . S
H799 C811 0.929 . S
H800 C814 0.930 . S
H801 C816 0.960 . S
H802 C816 0.960 . S
H803 C816 0.960 . S
C804 H796 0.929 . S
C804 C805 1.377 . S
C804 C806 1.384 . S
C805 C804 1.377 . S
C805 C811 1.390 . S
C806 H797 0.930 . S
C806 C804 1.384 . S
C806 C807 1.372 . S
C807 C806 1.372 . S
C807 C808 1.400 . S
C807 C812 1.490 . S
C808 H798 0.930 . S
C808 C807 1.400 . S
C808 C811 1.386 . S
H809 C825 0.930 . S
H810 C826 0.931 . S
C811 H799 0.929 . S
C811 C805 1.390 . S
C811 C808 1.386 . S
C812 C807 1.490 . S
C812 C814 1.395 . S
C812 C815 1.403 . S
H813 C819 0.930 . S
C814 H800 0.930 . S
C814 C812 1.395 . S
C814 C817 1.403 . S
C815 C812 1.403 . S
C815 C816 1.524 . S
C815 C819 1.400 . S
C816 H801 0.960 . S
C816 H802 0.960 . S
C816 H803 0.960 . S
C816 C815 1.524 . S
C817 C814 1.403 . S
C817 C818 1.392 . S
C817 C821 1.495 . S
C818 C817 1.392 . S
C818 C819 1.385 . S
C818 C820 1.478 . S
C819 H813 0.930 . S
C819 C815 1.400 . S
C819 C818 1.385 . S
C820 C818 1.478 . S
C820 C822 1.381 . S
C820 C826 1.383 . S
C821 C817 1.495 . S
C821 H827 0.959 . S
C821 H828 0.961 . S
C821 H829 0.960 . S
C822 C820 1.381 . S
C822 C823 1.394 . S
C822 H830 0.930 . S
C823 C822 1.394 . S
C823 C824 1.383 . S
C823 H831 0.929 . S
C824 C823 1.383 . S
C824 C825 1.377 . S
C825 H809 0.930 . S
C825 C824 1.377 . S
C825 C826 1.379 . S
C826 H810 0.931 . S
C826 C820 1.383 . S
C826 C825 1.379 . S
H827 C821 0.959 . S
H828 C821 0.961 . S
H829 C821 0.960 . S
H830 C822 0.930 . S
H831 C823 0.929 . S
H832 C840 0.929 . S
H833 C842 0.930 . S
H834 C844 0.930 . S
H835 C847 0.929 . S
H836 C850 0.930 . S
H837 C852 0.960 . S
H838 C852 0.960 . S
H839 C852 0.960 . S
C840 H832 0.929 . S
C840 C841 1.377 . S
C840 C842 1.384 . S
C841 C840 1.377 . S
C841 C847 1.390 . S
C842 H833 0.930 . S
C842 C840 1.384 . S
C842 C843 1.372 . S
C843 C842 1.372 . S
C843 C844 1.400 . S
C843 C848 1.490 . S
C844 H834 0.930 . S
C844 C843 1.400 . S
C844 C847 1.386 . S
H845 C861 0.930 . S
H846 C862 0.931 . S
C847 H835 0.929 . S
C847 C841 1.390 . S
C847 C844 1.386 . S
C848 C843 1.490 . S
C848 C850 1.395 . S
C848 C851 1.403 . S
H849 C855 0.930 . S
C850 H836 0.930 . S
C850 C848 1.395 . S
C850 C853 1.403 . S
C851 C848 1.403 . S
C851 C852 1.524 . S
C851 C855 1.400 . S
C852 H837 0.960 . S
C852 H838 0.960 . S
C852 H839 0.960 . S
C852 C851 1.524 . S
C853 C850 1.403 . S
C853 C854 1.392 . S
C853 C857 1.495 . S
C854 C853 1.392 . S
C854 C855 1.385 . S
C854 C856 1.478 . S
C855 H849 0.930 . S
C855 C851 1.400 . S
C855 C854 1.385 . S
C856 C854 1.478 . S
C856 C858 1.381 . S
C856 C862 1.383 . S
C857 C853 1.495 . S
C857 H863 0.959 . S
C857 H864 0.961 . S
C857 H865 0.960 . S
C858 C856 1.381 . S
C858 C859 1.394 . S
C858 H866 0.930 . S
C859 C858 1.394 . S
C859 C860 1.383 . S
C859 H867 0.929 . S
C860 C859 1.383 . S
C860 C861 1.377 . S
C861 H845 0.930 . S
C861 C860 1.377 . S
C861 C862 1.379 . S
C862 H846 0.931 . S
C862 C856 1.383 . S
C862 C861 1.379 . S
H863 C857 0.959 . S
H864 C857 0.961 . S
H865 C857 0.960 . S
H866 C858 0.930 . S
H867 C859 0.929 . S
H868 C876 0.929 . S
H869 C878 0.930 . S
H870 C880 0.930 . S
H871 C883 0.929 . S
H872 C886 0.930 . S
H873 C888 0.960 . S
H874 C888 0.960 . S
H875 C888 0.960 . S
C876 H868 0.929 . S
C876 C877 1.377 . S
C876 C878 1.384 . S
C877 C876 1.377 . S
C877 C883 1.390 . S
C878 H869 0.930 . S
C878 C876 1.384 . S
C878 C879 1.372 . S
C879 C878 1.372 . S
C879 C880 1.400 . S
C879 C884 1.490 . S
C880 H870 0.930 . S
C880 C879 1.400 . S
C880 C883 1.386 . S
H881 C897 0.930 . S
H882 C898 0.931 . S
C883 H871 0.929 . S
C883 C877 1.390 . S
C883 C880 1.386 . S
C884 C879 1.490 . S
C884 C886 1.395 . S
C884 C887 1.403 . S
H885 C891 0.930 . S
C886 H872 0.930 . S
C886 C884 1.395 . S
C886 C889 1.403 . S
C887 C884 1.403 . S
C887 C888 1.524 . S
C887 C891 1.400 . S
C888 H873 0.960 . S
C888 H874 0.960 . S
C888 H875 0.960 . S
C888 C887 1.524 . S
C889 C886 1.403 . S
C889 C890 1.392 . S
C889 C893 1.495 . S
C890 C889 1.392 . S
C890 C891 1.385 . S
C890 C892 1.478 . S
C891 H885 0.930 . S
C891 C887 1.400 . S
C891 C890 1.385 . S
C892 C890 1.478 . S
C892 C894 1.381 . S
C892 C898 1.383 . S
C893 C889 1.495 . S
C893 H899 0.959 . S
C893 H900 0.961 . S
C893 H901 0.960 . S
C894 C892 1.381 . S
C894 C895 1.394 . S
C894 H902 0.930 . S
C895 C894 1.394 . S
C895 C896 1.383 . S
C895 H903 0.929 . S
C896 C895 1.383 . S
C896 C897 1.377 . S
C897 H881 0.930 . S
C897 C896 1.377 . S
C897 C898 1.379 . S
C898 H882 0.931 . S
C898 C892 1.383 . S
C898 C897 1.379 . S
H899 C893 0.959 . S
H900 C893 0.961 . S
H901 C893 0.960 . S
H902 C894 0.930 . S
H903 C895 0.929 . S
H904 C912 0.929 . S
H905 C914 0.930 . S
H906 C916 0.930 . S
H907 C919 0.929 . S
H908 C922 0.930 . S
H909 C924 0.960 . S
H910 C924 0.960 . S
H911 C924 0.960 . S
C912 H904 0.929 . S
C912 C913 1.377 . S
C912 C914 1.384 . S
C913 C912 1.377 . S
C913 C919 1.390 . S
C914 H905 0.930 . S
C914 C912 1.384 . S
C914 C915 1.372 . S
C915 C914 1.372 . S
C915 C916 1.400 . S
C915 C920 1.490 . S
C916 H906 0.930 . S
C916 C915 1.400 . S
C916 C919 1.386 . S
H917 C933 0.930 . S
H918 C934 0.931 . S
C919 H907 0.929 . S
C919 C913 1.390 . S
C919 C916 1.386 . S
C920 C915 1.490 . S
C920 C922 1.395 . S
C920 C923 1.403 . S
H921 C927 0.930 . S
C922 H908 0.930 . S
C922 C920 1.395 . S
C922 C925 1.403 . S
C923 C920 1.403 . S
C923 C924 1.524 . S
C923 C927 1.400 . S
C924 H909 0.960 . S
C924 H910 0.960 . S
C924 H911 0.960 . S
C924 C923 1.524 . S
C925 C922 1.403 . S
C925 C926 1.392 . S
C925 C929 1.495 . S
C926 C925 1.392 . S
C926 C927 1.385 . S
C926 C928 1.478 . S
C927 H921 0.930 . S
C927 C923 1.400 . S
C927 C926 1.385 . S
C928 C926 1.478 . S
C928 C930 1.381 . S
C928 C934 1.383 . S
C929 C925 1.495 . S
C929 H935 0.959 . S
C929 H936 0.961 . S
C929 H937 0.960 . S
C930 C928 1.381 . S
C930 C931 1.394 . S
C930 H938 0.930 . S
C931 C930 1.394 . S
C931 C932 1.383 . S
C931 H939 0.929 . S
C932 C931 1.383 . S
C932 C933 1.377 . S
C933 H917 0.930 . S
C933 C932 1.377 . S
C933 C934 1.379 . S
C934 H918 0.931 . S
C934 C928 1.383 . S
C934 C933 1.379 . S
H935 C929 0.959 . S
H936 C929 0.961 . S
H937 C929 0.960 . S
H938 C930 0.930 . S
H939 C931 0.929 . S
H940 C948 0.929 . S
H941 C950 0.930 . S
H942 C952 0.930 . S
H943 C955 0.929 . S
H944 C958 0.930 . S
H945 C960 0.960 . S
H946 C960 0.960 . S
H947 C960 0.960 . S
C948 H940 0.929 . S
C948 C949 1.377 . S
C948 C950 1.384 . S
C949 C948 1.377 . S
C949 C955 1.390 . S
C950 H941 0.930 . S
C950 C948 1.384 . S
C950 C951 1.372 . S
C951 C950 1.372 . S
C951 C952 1.400 . S
C951 C956 1.490 . S
C952 H942 0.930 . S
C952 C951 1.400 . S
C952 C955 1.386 . S
H953 C969 0.930 . S
H954 C970 0.931 . S
C955 H943 0.929 . S
C955 C949 1.390 . S
C955 C952 1.386 . S
C956 C951 1.490 . S
C956 C958 1.395 . S
C956 C959 1.403 . S
H957 C963 0.930 . S
C958 H944 0.930 . S
C958 C956 1.395 . S
C958 C961 1.403 . S
C959 C956 1.403 . S
C959 C960 1.524 . S
C959 C963 1.400 . S
C960 H945 0.960 . S
C960 H946 0.960 . S
C960 H947 0.960 . S
C960 C959 1.524 . S
C961 C958 1.403 . S
C961 C962 1.392 . S
C961 C965 1.495 . S
C962 C961 1.392 . S
C962 C963 1.385 . S
C962 C964 1.478 . S
C963 H957 0.930 . S
C963 C959 1.400 . S
C963 C962 1.385 . S
C964 C962 1.478 . S
C964 C966 1.381 . S
C964 C970 1.383 . S
C965 C961 1.495 . S
C965 H971 0.959 . S
C965 H972 0.961 . S
C965 H973 0.960 . S
C966 C964 1.381 . S
C966 C967 1.394 . S
C966 H974 0.930 . S
C967 C966 1.394 . S
C967 C968 1.383 . S
C967 H975 0.929 . S
C968 C967 1.383 . S
C968 C969 1.377 . S
C969 H953 0.930 . S
C969 C968 1.377 . S
C969 C970 1.379 . S
C970 H954 0.931 . S
C970 C964 1.383 . S
C970 C969 1.379 . S
H971 C965 0.959 . S
H972 C965 0.961 . S
H973 C965 0.960 . S
H974 C966 0.930 . S
H975 C967 0.929 . S
H976 C984 0.929 . S
H977 C986 0.930 . S
H978 C988 0.930 . S
H979 C991 0.929 . S
H980 C994 0.930 . S
H981 C996 0.960 . S
H982 C996 0.960 . S
H983 C996 0.960 . S
C984 H976 0.929 . S
C984 C985 1.377 . S
C984 C986 1.384 . S
C985 C984 1.377 . S
C985 C991 1.390 . S
C986 H977 0.930 . S
C986 C984 1.384 . S
C986 C987 1.372 . S
C987 C986 1.372 . S
C987 C988 1.400 . S
C987 C992 1.490 . S
C988 H978 0.930 . S
C988 C987 1.400 . S
C988 C991 1.386 . S
H989 C1005 0.930 . S
H990 C1006 0.931 . S
C991 H979 0.929 . S
C991 C985 1.390 . S
C991 C988 1.386 . S
C992 C987 1.490 . S
C992 C994 1.395 . S
C992 C995 1.403 . S
H993 C999 0.930 . S
C994 H980 0.930 . S
C994 C992 1.395 . S
C994 C997 1.403 . S
C995 C992 1.403 . S
C995 C996 1.524 . S
C995 C999 1.400 . S
C996 H981 0.960 . S
C996 H982 0.960 . S
C996 H983 0.960 . S
C996 C995 1.524 . S
C997 C994 1.403 . S
C997 C998 1.392 . S
C997 C1001 1.495 . S
C998 C997 1.392 . S
C998 C999 1.385 . S
C998 C1000 1.478 . S
C999 H993 0.930 . S
C999 C995 1.400 . S
C999 C998 1.385 . S
C1000 C998 1.478 . S
C1000 C1002 1.381 . S
C1000 C1006 1.383 . S
C1001 C997 1.495 . S
C1001 H1007 0.959 . S
C1001 H1008 0.961 . S
C1001 H1009 0.960 . S
C1002 C1000 1.381 . S
C1002 C1003 1.394 . S
C1002 H1010 0.930 . S
C1003 C1002 1.394 . S
C1003 C1004 1.383 . S
C1003 H1011 0.929 . S
C1004 C1003 1.383 . S
C1004 C1005 1.377 . S
C1005 H989 0.930 . S
C1005 C1004 1.377 . S
C1005 C1006 1.379 . S
C1006 H990 0.931 . S
C1006 C1000 1.383 . S
C1006 C1005 1.379 . S
H1007 C1001 0.959 . S
H1008 C1001 0.961 . S
H1009 C1001 0.960 . S
H1010 C1002 0.930 . S
H1011 C1003 0.929 . S
H1012 C1020 0.929 . S
H1013 C1022 0.930 . S
H1014 C1024 0.930 . S
H1015 C1027 0.929 . S
H1016 C1030 0.930 . S
H1017 C1032 0.960 . S
H1018 C1032 0.960 . S
H1019 C1032 0.960 . S
C1020 H1012 0.929 . S
C1020 C1021 1.377 . S
C1020 C1022 1.384 . S
C1021 C1020 1.377 . S
C1021 C1027 1.390 . S
C1022 H1013 0.930 . S
C1022 C1020 1.384 . S
C1022 C1023 1.372 . S
C1023 C1022 1.372 . S
C1023 C1024 1.400 . S
C1023 C1028 1.490 . S
C1024 H1014 0.930 . S
C1024 C1023 1.400 . S
C1024 C1027 1.386 . S
H1025 C1041 0.930 . S
H1026 C1042 0.931 . S
C1027 H1015 0.929 . S
C1027 C1021 1.390 . S
C1027 C1024 1.386 . S
C1028 C1023 1.490 . S
C1028 C1030 1.395 . S
C1028 C1031 1.403 . S
H1029 C1035 0.930 . S
C1030 H1016 0.930 . S
C1030 C1028 1.395 . S
C1030 C1033 1.403 . S
C1031 C1028 1.403 . S
C1031 C1032 1.524 . S
C1031 C1035 1.400 . S
C1032 H1017 0.960 . S
C1032 H1018 0.960 . S
C1032 H1019 0.960 . S
C1032 C1031 1.524 . S
C1033 C1030 1.403 . S
C1033 C1034 1.392 . S
C1033 C1037 1.495 . S
C1034 C1033 1.392 . S
C1034 C1035 1.385 . S
C1034 C1036 1.478 . S
C1035 H1029 0.930 . S
C1035 C1031 1.400 . S
C1035 C1034 1.385 . S
C1036 C1034 1.478 . S
C1036 C1038 1.381 . S
C1036 C1042 1.383 . S
C1037 C1033 1.495 . S
C1037 H1043 0.959 . S
C1037 H1044 0.961 . S
C1037 H1045 0.960 . S
C1038 C1036 1.381 . S
C1038 C1039 1.394 . S
C1038 H1046 0.930 . S
C1039 C1038 1.394 . S
C1039 C1040 1.383 . S
C1039 H1047 0.929 . S
C1040 C1039 1.383 . S
C1040 C1041 1.377 . S
C1041 H1025 0.930 . S
C1041 C1040 1.377 . S
C1041 C1042 1.379 . S
C1042 H1026 0.931 . S
C1042 C1036 1.383 . S
C1042 C1041 1.379 . S
H1043 C1037 0.959 . S
H1044 C1037 0.961 . S
H1045 C1037 0.960 . S
H1046 C1038 0.930 . S
H1047 C1039 0.929 . S
H1048 C1056 0.929 . S
H1049 C1058 0.930 . S
H1050 C1060 0.930 . S
H1051 C1063 0.929 . S
H1052 C1066 0.930 . S
H1053 C1068 0.960 . S
H1054 C1068 0.960 . S
H1055 C1068 0.960 . S
C1056 H1048 0.929 . S
C1056 C1057 1.377 . S
C1056 C1058 1.384 . S
C1057 C1056 1.377 . S
C1057 C1063 1.390 . S
C1058 H1049 0.930 . S
C1058 C1056 1.384 . S
C1058 C1059 1.372 . S
C1059 C1058 1.372 . S
C1059 C1060 1.400 . S
C1059 C1064 1.490 . S
C1060 H1050 0.930 . S
C1060 C1059 1.400 . S
C1060 C1063 1.386 . S
H1061 C1077 0.930 . S
H1062 C1078 0.931 . S
C1063 H1051 0.929 . S
C1063 C1057 1.390 . S
C1063 C1060 1.386 . S
C1064 C1059 1.490 . S
C1064 C1066 1.395 . S
C1064 C1067 1.403 . S
H1065 C1071 0.930 . S
C1066 H1052 0.930 . S
C1066 C1064 1.395 . S
C1066 C1069 1.403 . S
C1067 C1064 1.403 . S
C1067 C1068 1.524 . S
C1067 C1071 1.400 . S
C1068 H1053 0.960 . S
C1068 H1054 0.960 . S
C1068 H1055 0.960 . S
C1068 C1067 1.524 . S
C1069 C1066 1.403 . S
C1069 C1070 1.392 . S
C1069 C1073 1.495 . S
C1070 C1069 1.392 . S
C1070 C1071 1.385 . S
C1070 C1072 1.478 . S
C1071 H1065 0.930 . S
C1071 C1067 1.400 . S
C1071 C1070 1.385 . S
C1072 C1070 1.478 . S
C1072 C1074 1.381 1_545 S
C1072 C1078 1.383 . S
C1073 C1069 1.495 . S
C1073 H1079 0.959 . S
C1073 H1080 0.961 . S
C1073 H1081 0.960 1_545 S
C1074 C1072 1.381 1_565 S
C1074 C1075 1.394 . S
C1074 H1082 0.930 . S
C1075 C1074 1.394 . S
C1075 C1076 1.383 . S
C1075 H1083 0.929 . S
C1076 C1075 1.383 . S
C1076 C1077 1.377 . S
C1077 H1061 0.930 . S
C1077 C1076 1.377 . S
C1077 C1078 1.379 1_565 S
C1078 H1062 0.931 . S
C1078 C1072 1.383 . S
C1078 C1077 1.379 1_545 S
H1079 C1073 0.959 . S
H1080 C1073 0.961 . S
H1081 C1073 0.960 1_565 S
H1082 C1074 0.930 . S
H1083 C1075 0.929 . S
H1084 C1092 0.929 . S
H1085 C1094 0.930 . S
H1086 C1096 0.930 . S
H1087 C1099 0.929 . S
H1088 C1102 0.930 . S
H1089 C1104 0.960 . S
H1090 C1104 0.960 . S
H1091 C1104 0.960 . S
C1092 H1084 0.929 . S
C1092 C1093 1.377 . S
C1092 C1094 1.384 . S
C1093 C1092 1.377 . S
C1093 C1099 1.390 . S
C1094 H1085 0.930 . S
C1094 C1092 1.384 . S
C1094 C1095 1.372 . S
C1095 C1094 1.372 . S
C1095 C1096 1.400 . S
C1095 C1100 1.490 . S
C1096 H1086 0.930 . S
C1096 C1095 1.400 . S
C1096 C1099 1.386 . S
H1097 C1113 0.930 . S
H1098 C1114 0.931 . S
C1099 H1087 0.929 . S
C1099 C1093 1.390 . S
C1099 C1096 1.386 . S
C1100 C1095 1.490 . S
C1100 C1102 1.395 . S
C1100 C1103 1.403 . S
H1101 C1107 0.930 . S
C1102 H1088 0.930 . S
C1102 C1100 1.395 . S
C1102 C1105 1.403 . S
C1103 C1100 1.403 . S
C1103 C1104 1.524 . S
C1103 C1107 1.400 . S
C1104 H1089 0.960 . S
C1104 H1090 0.960 . S
C1104 H1091 0.960 . S
C1104 C1103 1.524 . S
C1105 C1102 1.403 . S
C1105 C1106 1.392 . S
C1105 C1109 1.495 . S
C1106 C1105 1.392 . S
C1106 C1107 1.385 . S
C1106 C1108 1.478 . S
C1107 H1101 0.930 . S
C1107 C1103 1.400 . S
C1107 C1106 1.385 . S
C1108 C1106 1.478 . S
C1108 C1110 1.381 . S
C1108 C1114 1.383 . S
C1109 C1105 1.495 . S
C1109 H1115 0.959 . S
C1109 H1116 0.961 . S
C1109 H1117 0.960 . S
C1110 C1108 1.381 . S
C1110 C1111 1.394 . S
C1110 H1118 0.930 . S
C1111 C1110 1.394 . S
C1111 C1112 1.383 . S
C1111 H1119 0.929 . S
C1112 C1111 1.383 . S
C1112 C1113 1.377 . S
C1113 H1097 0.930 . S
C1113 C1112 1.377 . S
C1113 C1114 1.379 . S
C1114 H1098 0.931 . S
C1114 C1108 1.383 . S
C1114 C1113 1.379 . S
H1115 C1109 0.959 . S
H1116 C1109 0.961 . S
H1117 C1109 0.960 . S
H1118 C1110 0.930 . S
H1119 C1111 0.929 . S
H1120 C1128 0.929 . S
H1121 C1130 0.930 . S
H1122 C1132 0.930 . S
H1123 C1135 0.929 . S
H1124 C1138 0.930 . S
H1125 C1140 0.960 . S
H1126 C1140 0.960 . S
H1127 C1140 0.960 . S
C1128 H1120 0.929 . S
C1128 C1129 1.377 . S
C1128 C1130 1.384 . S
C1129 C1128 1.377 . S
C1129 C1135 1.390 . S
C1130 H1121 0.930 . S
C1130 C1128 1.384 . S
C1130 C1131 1.372 . S
C1131 C1130 1.372 . S
C1131 C1132 1.400 . S
C1131 C1136 1.490 . S
C1132 H1122 0.930 . S
C1132 C1131 1.400 . S
C1132 C1135 1.386 . S
H1133 C1149 0.930 . S
H1134 C1150 0.931 . S
C1135 H1123 0.929 . S
C1135 C1129 1.390 . S
C1135 C1132 1.386 . S
C1136 C1131 1.490 . S
C1136 C1138 1.395 . S
C1136 C1139 1.403 . S
H1137 C1143 0.930 . S
C1138 H1124 0.930 . S
C1138 C1136 1.395 . S
C1138 C1141 1.403 . S
C1139 C1136 1.403 . S
C1139 C1140 1.524 . S
C1139 C1143 1.400 . S
C1140 H1125 0.960 . S
C1140 H1126 0.960 . S
C1140 H1127 0.960 . S
C1140 C1139 1.524 . S
C1141 C1138 1.403 . S
C1141 C1142 1.392 . S
C1141 C1145 1.495 . S
C1142 C1141 1.392 . S
C1142 C1143 1.385 . S
C1142 C1144 1.478 . S
C1143 H1137 0.930 . S
C1143 C1139 1.400 . S
C1143 C1142 1.385 . S
C1144 C1142 1.478 . S
C1144 C1146 1.381 . S
C1144 C1150 1.383 . S
C1145 C1141 1.495 . S
C1145 H1151 0.959 . S
C1145 H1152 0.961 . S
C1145 H1153 0.960 . S
C1146 C1144 1.381 . S
C1146 C1147 1.394 . S
C1146 H1154 0.930 . S
C1147 C1146 1.394 . S
C1147 C1148 1.383 . S
C1147 H1155 0.929 . S
C1148 C1147 1.383 . S
C1148 C1149 1.377 . S
C1149 H1133 0.930 . S
C1149 C1148 1.377 . S
C1149 C1150 1.379 . S
C1150 H1134 0.931 . S
C1150 C1144 1.383 . S
C1150 C1149 1.379 . S
H1151 C1145 0.959 . S
H1152 C1145 0.961 . S
H1153 C1145 0.960 . S
H1154 C1146 0.930 . S
H1155 C1147 0.929 . S
H1156 C1164 0.929 . S
H1157 C1166 0.930 . S
H1158 C1168 0.930 . S
H1159 C1171 0.929 . S
H1160 C1174 0.930 . S
H1161 C1176 0.960 . S
H1162 C1176 0.960 . S
H1163 C1176 0.960 . S
C1164 H1156 0.929 . S
C1164 C1165 1.377 . S
C1164 C1166 1.384 . S
C1165 C1164 1.377 . S
C1165 C1171 1.390 . S
C1166 H1157 0.930 . S
C1166 C1164 1.384 . S
C1166 C1167 1.372 . S
C1167 C1166 1.372 . S
C1167 C1168 1.400 . S
C1167 C1172 1.490 . S
C1168 H1158 0.930 . S
C1168 C1167 1.400 . S
C1168 C1171 1.386 . S
H1169 C1185 0.930 . S
H1170 C1186 0.931 . S
C1171 H1159 0.929 . S
C1171 C1165 1.390 . S
C1171 C1168 1.386 . S
C1172 C1167 1.490 . S
C1172 C1174 1.395 . S
C1172 C1175 1.403 . S
H1173 C1179 0.930 . S
C1174 H1160 0.930 . S
C1174 C1172 1.395 . S
C1174 C1177 1.403 . S
C1175 C1172 1.403 . S
C1175 C1176 1.524 . S
C1175 C1179 1.400 . S
C1176 H1161 0.960 . S
C1176 H1162 0.960 . S
C1176 H1163 0.960 . S
C1176 C1175 1.524 . S
C1177 C1174 1.403 . S
C1177 C1178 1.392 . S
C1177 C1181 1.495 . S
C1178 C1177 1.392 . S
C1178 C1179 1.385 . S
C1178 C1180 1.478 . S
C1179 H1173 0.930 . S
C1179 C1175 1.400 . S
C1179 C1178 1.385 . S
C1180 C1178 1.478 . S
C1180 C1182 1.381 . S
C1180 C1186 1.383 . S
C1181 C1177 1.495 . S
C1181 H1187 0.959 . S
C1181 H1188 0.961 . S
C1181 H1189 0.960 . S
C1182 C1180 1.381 . S
C1182 C1183 1.394 . S
C1182 H1190 0.930 . S
C1183 C1182 1.394 . S
C1183 C1184 1.383 . S
C1183 H1191 0.929 . S
C1184 C1183 1.383 . S
C1184 C1185 1.377 . S
C1185 H1169 0.930 . S
C1185 C1184 1.377 . S
C1185 C1186 1.379 . S
C1186 H1170 0.931 . S
C1186 C1180 1.383 . S
C1186 C1185 1.379 . S
H1187 C1181 0.959 . S
H1188 C1181 0.961 . S
H1189 C1181 0.960 . S
H1190 C1182 0.930 . S
H1191 C1183 0.929 . S
H1192 C1200 0.929 . S
H1193 C1202 0.930 . S
H1194 C1204 0.930 . S
H1195 C1207 0.929 . S
H1196 C1210 0.930 . S
H1197 C1212 0.960 . S
H1198 C1212 0.960 . S
H1199 C1212 0.960 . S
C1200 H1192 0.929 . S
C1200 C1201 1.377 . S
C1200 C1202 1.384 . S
C1201 C1200 1.377 . S
C1201 C1207 1.390 . S
C1202 H1193 0.930 . S
C1202 C1200 1.384 . S
C1202 C1203 1.372 . S
C1203 C1202 1.372 . S
C1203 C1204 1.400 . S
C1203 C1208 1.490 . S
C1204 H1194 0.930 . S
C1204 C1203 1.400 . S
C1204 C1207 1.386 . S
H1205 C1221 0.930 . S
H1206 C1222 0.931 . S
C1207 H1195 0.929 . S
C1207 C1201 1.390 . S
C1207 C1204 1.386 . S
C1208 C1203 1.490 . S
C1208 C1210 1.395 . S
C1208 C1211 1.403 . S
H1209 C1215 0.930 . S
C1210 H1196 0.930 . S
C1210 C1208 1.395 . S
C1210 C1213 1.403 . S
C1211 C1208 1.403 . S
C1211 C1212 1.524 . S
C1211 C1215 1.400 . S
C1212 H1197 0.960 . S
C1212 H1198 0.960 . S
C1212 H1199 0.960 . S
C1212 C1211 1.524 . S
C1213 C1210 1.403 . S
C1213 C1214 1.392 . S
C1213 C1217 1.495 . S
C1214 C1213 1.392 . S
C1214 C1215 1.385 . S
C1214 C1216 1.478 . S
C1215 H1209 0.930 . S
C1215 C1211 1.400 . S
C1215 C1214 1.385 . S
C1216 C1214 1.478 . S
C1216 C1218 1.381 1_545 S
C1216 C1222 1.383 . S
C1217 C1213 1.495 . S
C1217 H1223 0.959 . S
C1217 H1224 0.961 . S
C1217 H1225 0.960 . S
C1218 C1216 1.381 1_565 S
C1218 C1219 1.394 . S
C1218 H1226 0.930 . S
C1219 C1218 1.394 . S
C1219 C1220 1.383 . S
C1219 H1227 0.929 . S
C1220 C1219 1.383 . S
C1220 C1221 1.377 . S
C1221 H1205 0.930 . S
C1221 C1220 1.377 . S
C1221 C1222 1.379 1_565 S
C1222 H1206 0.931 . S
C1222 C1216 1.383 . S
C1222 C1221 1.379 1_545 S
H1223 C1217 0.959 . S
H1224 C1217 0.961 . S
H1225 C1217 0.960 . S
H1226 C1218 0.930 . S
H1227 C1219 0.929 . S
H1228 C1236 0.929 . S
H1229 C1238 0.930 . S
H1230 C1240 0.930 . S
H1231 C1243 0.929 . S
H1232 C1246 0.930 . S
H1233 C1248 0.960 . S
H1234 C1248 0.960 . S
H1235 C1248 0.960 . S
C1236 H1228 0.929 . S
C1236 C1237 1.377 . S
C1236 C1238 1.384 . S
C1237 C1236 1.377 . S
C1237 C1243 1.390 . S
C1238 H1229 0.930 . S
C1238 C1236 1.384 . S
C1238 C1239 1.372 . S
C1239 C1238 1.372 . S
C1239 C1240 1.400 . S
C1239 C1244 1.490 . S
C1240 H1230 0.930 . S
C1240 C1239 1.400 . S
C1240 C1243 1.386 . S
H1241 C1257 0.930 . S
H1242 C1258 0.931 . S
C1243 H1231 0.929 . S
C1243 C1237 1.390 . S
C1243 C1240 1.386 . S
C1244 C1239 1.490 . S
C1244 C1246 1.395 . S
C1244 C1247 1.403 . S
H1245 C1251 0.930 . S
C1246 H1232 0.930 . S
C1246 C1244 1.395 . S
C1246 C1249 1.403 . S
C1247 C1244 1.403 . S
C1247 C1248 1.524 . S
C1247 C1251 1.400 . S
C1248 H1233 0.960 . S
C1248 H1234 0.960 . S
C1248 H1235 0.960 . S
C1248 C1247 1.524 . S
C1249 C1246 1.403 . S
C1249 C1250 1.392 . S
C1249 C1253 1.495 . S
C1250 C1249 1.392 . S
C1250 C1251 1.385 . S
C1250 C1252 1.478 . S
C1251 H1245 0.930 . S
C1251 C1247 1.400 . S
C1251 C1250 1.385 . S
C1252 C1250 1.478 . S
C1252 C1254 1.381 . S
C1252 C1258 1.383 . S
C1253 C1249 1.495 . S
C1253 H1259 0.959 . S
C1253 H1260 0.961 . S
C1253 H1261 0.960 . S
C1254 C1252 1.381 . S
C1254 C1255 1.394 . S
C1254 H1262 0.930 . S
C1255 C1254 1.394 . S
C1255 C1256 1.383 . S
C1255 H1263 0.929 . S
C1256 C1255 1.383 . S
C1256 C1257 1.377 . S
C1257 H1241 0.930 . S
C1257 C1256 1.377 . S
C1257 C1258 1.379 . S
C1258 H1242 0.931 . S
C1258 C1252 1.383 . S
C1258 C1257 1.379 . S
H1259 C1253 0.959 . S
H1260 C1253 0.961 . S
H1261 C1253 0.960 . S
H1262 C1254 0.930 . S
H1263 C1255 0.929 . S
H1264 C1272 0.929 . S
H1265 C1274 0.930 . S
H1266 C1276 0.930 . S
H1267 C1279 0.929 . S
H1268 C1282 0.930 . S
H1269 C1284 0.960 . S
H1270 C1284 0.960 . S
H1271 C1284 0.960 . S
C1272 H1264 0.929 . S
C1272 C1273 1.377 . S
C1272 C1274 1.384 . S
C1273 C1272 1.377 . S
C1273 C1279 1.390 . S
C1274 H1265 0.930 . S
C1274 C1272 1.384 . S
C1274 C1275 1.372 . S
C1275 C1274 1.372 . S
C1275 C1276 1.400 . S
C1275 C1280 1.490 . S
C1276 H1266 0.930 . S
C1276 C1275 1.400 . S
C1276 C1279 1.386 . S
H1277 C1293 0.930 . S
H1278 C1294 0.931 . S
C1279 H1267 0.929 . S
C1279 C1273 1.390 . S
C1279 C1276 1.386 . S
C1280 C1275 1.490 . S
C1280 C1282 1.395 . S
C1280 C1283 1.403 . S
H1281 C1287 0.930 . S
C1282 H1268 0.930 . S
C1282 C1280 1.395 . S
C1282 C1285 1.403 . S
C1283 C1280 1.403 . S
C1283 C1284 1.524 . S
C1283 C1287 1.400 . S
C1284 H1269 0.960 . S
C1284 H1270 0.960 . S
C1284 H1271 0.960 . S
C1284 C1283 1.524 . S
C1285 C1282 1.403 . S
C1285 C1286 1.392 . S
C1285 C1289 1.495 . S
C1286 C1285 1.392 . S
C1286 C1287 1.385 . S
C1286 C1288 1.478 . S
C1287 H1281 0.930 . S
C1287 C1283 1.400 . S
C1287 C1286 1.385 . S
C1288 C1286 1.478 . S
C1288 C1290 1.381 . S
C1288 C1294 1.383 . S
C1289 C1285 1.495 . S
C1289 H1295 0.959 . S
C1289 H1296 0.961 . S
C1289 H1297 0.960 . S
C1290 C1288 1.381 . S
C1290 C1291 1.394 . S
C1290 H1298 0.930 . S
C1291 C1290 1.394 . S
C1291 C1292 1.383 . S
C1291 H1299 0.929 . S
C1292 C1291 1.383 . S
C1292 C1293 1.377 . S
C1293 H1277 0.930 . S
C1293 C1292 1.377 . S
C1293 C1294 1.379 . S
C1294 H1278 0.931 . S
C1294 C1288 1.383 . S
C1294 C1293 1.379 . S
H1295 C1289 0.959 . S
H1296 C1289 0.961 . S
H1297 C1289 0.960 . S
H1298 C1290 0.930 . S
H1299 C1291 0.929 . S
H1300 C1308 0.929 . S
H1301 C1310 0.930 . S
H1302 C1312 0.930 . S
H1303 C1315 0.929 . S
H1304 C1318 0.930 . S
H1305 C1320 0.960 . S
H1306 C1320 0.960 . S
H1307 C1320 0.960 . S
C1308 H1300 0.929 . S
C1308 C1309 1.377 . S
C1308 C1310 1.384 . S
C1309 C1308 1.377 . S
C1309 C1315 1.390 . S
C1310 H1301 0.930 . S
C1310 C1308 1.384 . S
C1310 C1311 1.372 . S
C1311 C1310 1.372 . S
C1311 C1312 1.400 . S
C1311 C1316 1.490 . S
C1312 H1302 0.930 . S
C1312 C1311 1.400 . S
C1312 C1315 1.386 . S
H1313 C1329 0.930 . S
H1314 C1330 0.931 . S
C1315 H1303 0.929 . S
C1315 C1309 1.390 . S
C1315 C1312 1.386 . S
C1316 C1311 1.490 . S
C1316 C1318 1.395 . S
C1316 C1319 1.403 . S
H1317 C1323 0.930 1_556 S
C1318 H1304 0.930 . S
C1318 C1316 1.395 . S
C1318 C1321 1.403 . S
C1319 C1316 1.403 . S
C1319 C1320 1.524 . S
C1319 C1323 1.400 . S
C1320 H1305 0.960 . S
C1320 H1306 0.960 . S
C1320 H1307 0.960 . S
C1320 C1319 1.524 . S
C1321 C1318 1.403 . S
C1321 C1322 1.392 . S
C1321 C1325 1.495 . S
C1322 C1321 1.392 . S
C1322 C1323 1.385 . S
C1322 C1324 1.484 . S
C1323 H1317 0.930 1_554 S
C1323 C1319 1.400 . S
C1323 C1322 1.385 . S
C1324 C1322 1.484 . S
C1324 C1326 1.392 . S
C1324 C1330 1.365 1_554 S
C1325 C1321 1.495 . S
C1325 H1331 0.959 . S
C1325 H1332 0.961 . S
C1325 H1333 0.960 . S
C1326 C1324 1.392 . S
C1326 C1327 1.394 . S
C1326 H1334 0.930 . S
C1327 C1326 1.394 . S
C1327 C1328 1.383 1_554 S
C1327 H1335 0.929 . S
C1328 C1327 1.383 1_556 S
C1328 C1329 1.377 . S
C1329 H1313 0.930 . S
C1329 C1328 1.377 . S
C1329 C1330 1.379 . S
C1330 H1314 0.931 . S
C1330 C1324 1.365 1_556 S
C1330 C1329 1.379 . S
H1331 C1325 0.959 . S
H1332 C1325 0.961 . S
H1333 C1325 0.960 . S
H1334 C1326 0.930 . S
H1335 C1327 0.929 . S
H1336 C1344 0.929 . S
H1337 C1346 0.930 . S
H1338 C1348 0.930 . S
H1339 C1351 0.929 . S
H1340 C1354 0.930 . S
H1341 C1356 0.960 . S
H1342 C1356 0.960 . S
H1343 C1356 0.960 . S
C1344 H1336 0.929 . S
C1344 C1345 1.377 . S
C1344 C1346 1.384 . S
C1345 C1344 1.377 . S
C1345 C1351 1.390 . S
C1346 H1337 0.930 . S
C1346 C1344 1.384 . S
C1346 C1347 1.372 . S
C1347 C1346 1.372 . S
C1347 C1348 1.400 . S
C1347 C1352 1.490 . S
C1348 H1338 0.930 . S
C1348 C1347 1.400 . S
C1348 C1351 1.386 . S
H1349 C1365 0.930 . S
H1350 C1366 0.931 . S
C1351 H1339 0.929 . S
C1351 C1345 1.390 . S
C1351 C1348 1.386 . S
C1352 C1347 1.490 . S
C1352 C1354 1.395 . S
C1352 C1355 1.403 . S
H1353 C1359 0.930 . S
C1354 H1340 0.930 . S
C1354 C1352 1.395 . S
C1354 C1357 1.403 . S
C1355 C1352 1.403 . S
C1355 C1356 1.524 . S
C1355 C1359 1.400 . S
C1356 H1341 0.960 . S
C1356 H1342 0.960 . S
C1356 H1343 0.960 . S
C1356 C1355 1.524 . S
C1357 C1354 1.403 . S
C1357 C1358 1.392 . S
C1357 C1361 1.495 . S
C1358 C1357 1.392 . S
C1358 C1359 1.385 . S
C1358 C1360 1.478 . S
C1359 H1353 0.930 . S
C1359 C1355 1.400 . S
C1359 C1358 1.385 . S
C1360 C1358 1.478 . S
C1360 C1362 1.381 . S
C1360 C1366 1.383 . S
C1361 C1357 1.495 . S
C1361 H1367 0.959 . S
C1361 H1368 0.961 . S
C1361 H1369 0.960 . S
C1362 C1360 1.381 . S
C1362 C1363 1.394 . S
C1362 H1370 0.930 . S
C1363 C1362 1.394 . S
C1363 C1364 1.383 . S
C1363 H1371 0.929 . S
C1364 C1363 1.383 . S
C1364 C1365 1.377 . S
C1365 H1349 0.930 . S
C1365 C1364 1.377 . S
C1365 C1366 1.379 . S
C1366 H1350 0.931 . S
C1366 C1360 1.383 . S
C1366 C1365 1.379 . S
H1367 C1361 0.959 . S
H1368 C1361 0.961 . S
H1369 C1361 0.960 . S
H1370 C1362 0.930 . S
H1371 C1363 0.929 . S
H1372 C1380 0.929 . S
H1373 C1382 0.930 . S
H1374 C1384 0.930 . S
H1375 C1387 0.929 . S
H1376 C1390 0.930 . S
H1377 C1392 0.960 . S
H1378 C1392 0.960 . S
H1379 C1392 0.960 . S
C1380 H1372 0.929 . S
C1380 C1381 1.377 . S
C1380 C1382 1.384 . S
C1381 C1380 1.377 . S
C1381 C1387 1.390 . S
C1382 H1373 0.930 . S
C1382 C1380 1.384 . S
C1382 C1383 1.372 . S
C1383 C1382 1.372 . S
C1383 C1384 1.400 . S
C1383 C1388 1.490 . S
C1384 H1374 0.930 . S
C1384 C1383 1.400 . S
C1384 C1387 1.386 . S
H1385 C1401 0.930 . S
H1386 C1402 0.931 . S
C1387 H1375 0.929 . S
C1387 C1381 1.390 . S
C1387 C1384 1.386 . S
C1388 C1383 1.490 . S
C1388 C1390 1.395 . S
C1388 C1391 1.403 . S
H1389 C1395 0.930 . S
C1390 H1376 0.930 . S
C1390 C1388 1.395 . S
C1390 C1393 1.403 . S
C1391 C1388 1.403 . S
C1391 C1392 1.524 . S
C1391 C1395 1.400 . S
C1392 H1377 0.960 . S
C1392 H1378 0.960 . S
C1392 H1379 0.960 . S
C1392 C1391 1.524 . S
C1393 C1390 1.403 . S
C1393 C1394 1.392 . S
C1393 C1397 1.495 . S
C1394 C1393 1.392 . S
C1394 C1395 1.385 . S
C1394 C1396 1.478 . S
C1395 H1389 0.930 . S
C1395 C1391 1.400 . S
C1395 C1394 1.385 . S
C1396 C1394 1.478 . S
C1396 C1398 1.381 . S
C1396 C1402 1.383 . S
C1397 C1393 1.495 . S
C1397 H1403 0.959 . S
C1397 H1404 0.961 . S
C1397 H1405 0.960 . S
C1398 C1396 1.381 . S
C1398 C1399 1.394 . S
C1398 H1406 0.930 . S
C1399 C1398 1.394 . S
C1399 C1400 1.383 . S
C1399 H1407 0.929 . S
C1400 C1399 1.383 . S
C1400 C1401 1.377 . S
C1401 H1385 0.930 . S
C1401 C1400 1.377 . S
C1401 C1402 1.379 . S
C1402 H1386 0.931 . S
C1402 C1396 1.383 . S
C1402 C1401 1.379 . S
H1403 C1397 0.959 . S
H1404 C1397 0.961 . S
H1405 C1397 0.960 . S
H1406 C1398 0.930 . S
H1407 C1399 0.929 . S
H1408 C1416 0.929 . S
H1409 C1418 0.930 . S
H1410 C1420 0.930 . S
H1411 C1423 0.929 . S
H1412 C1426 0.930 . S
H1413 C1428 0.960 . S
H1414 C1428 0.960 . S
H1415 C1428 0.960 . S
C1416 H1408 0.929 . S
C1416 C1417 1.377 . S
C1416 C1418 1.384 . S
C1417 C1416 1.377 . S
C1417 C1423 1.390 . S
C1418 H1409 0.930 . S
C1418 C1416 1.384 . S
C1418 C1419 1.372 . S
C1419 C1418 1.372 . S
C1419 C1420 1.400 . S
C1419 C1424 1.490 . S
C1420 H1410 0.930 . S
C1420 C1419 1.400 . S
C1420 C1423 1.386 . S
H1421 C1437 0.930 . S
H1422 C1438 0.931 . S
C1423 H1411 0.929 . S
C1423 C1417 1.390 . S
C1423 C1420 1.386 . S
C1424 C1419 1.490 . S
C1424 C1426 1.395 . S
C1424 C1427 1.403 . S
H1425 C1431 0.930 . S
C1426 H1412 0.930 . S
C1426 C1424 1.395 . S
C1426 C1429 1.403 . S
C1427 C1424 1.403 . S
C1427 C1428 1.524 . S
C1427 C1431 1.400 . S
C1428 H1413 0.960 . S
C1428 H1414 0.960 . S
C1428 H1415 0.960 . S
C1428 C1427 1.524 . S
C1429 C1426 1.403 . S
C1429 C1430 1.392 . S
C1429 C1433 1.495 . S
C1430 C1429 1.392 . S
C1430 C1431 1.385 . S
C1430 C1432 1.478 . S
C1431 H1425 0.930 . S
C1431 C1427 1.400 . S
C1431 C1430 1.385 . S
C1432 C1430 1.478 . S
C1432 C1434 1.381 . S
C1432 C1438 1.383 . S
C1433 C1429 1.495 . S
C1433 H1439 0.959 . S
C1433 H1440 0.961 . S
C1433 H1441 0.960 . S
C1434 C1432 1.381 . S
C1434 C1435 1.394 . S
C1434 H1442 0.930 . S
C1435 C1434 1.394 . S
C1435 C1436 1.383 . S
C1435 H1443 0.929 . S
C1436 C1435 1.383 . S
C1436 C1437 1.377 . S
C1437 H1421 0.930 . S
C1437 C1436 1.377 . S
C1437 C1438 1.379 . S
C1438 H1422 0.931 . S
C1438 C1432 1.383 . S
C1438 C1437 1.379 . S
H1439 C1433 0.959 . S
H1440 C1433 0.961 . S
H1441 C1433 0.960 . S
H1442 C1434 0.930 . S
H1443 C1435 0.929 . S
H1444 C1452 0.929 . S
H1445 C1454 0.930 . S
H1446 C1456 0.930 . S
H1447 C1459 0.929 . S
H1448 C1462 0.930 . S
H1449 C1464 0.960 . S
H1450 C1464 0.960 . S
H1451 C1464 0.960 . S
C1452 H1444 0.929 . S
C1452 C1453 1.377 . S
C1452 C1454 1.384 . S
C1453 C1452 1.377 . S
C1453 C1459 1.390 . S
C1454 H1445 0.930 . S
C1454 C1452 1.384 . S
C1454 C1455 1.372 . S
C1455 C1454 1.372 . S
C1455 C1456 1.400 . S
C1455 C1460 1.490 . S
C1456 H1446 0.930 . S
C1456 C1455 1.400 . S
C1456 C1459 1.386 . S
H1457 C1473 0.930 . S
H1458 C1474 0.931 1_655 S
C1459 H1447 0.929 . S
C1459 C1453 1.390 . S
C1459 C1456 1.386 . S
C1460 C1455 1.490 . S
C1460 C1462 1.395 . S
C1460 C1463 1.403 . S
H1461 C1467 0.930 . S
C1462 H1448 0.930 . S
C1462 C1460 1.395 . S
C1462 C1465 1.403 . S
C1463 C1460 1.403 . S
C1463 C1464 1.524 . S
C1463 C1467 1.400 . S
C1464 H1449 0.960 . S
C1464 H1450 0.960 . S
C1464 H1451 0.960 . S
C1464 C1463 1.524 . S
C1465 C1462 1.403 . S
C1465 C1466 1.392 . S
C1465 C1469 1.512 . S
C1466 C1465 1.392 . S
C1466 C1467 1.385 . S
C1466 C1468 1.468 1_655 S
C1467 H1461 0.930 . S
C1467 C1463 1.400 . S
C1467 C1466 1.385 . S
C1468 C1466 1.468 1_455 S
C1468 C1470 1.390 . S
C1468 C1474 1.384 . S
C1469 C1465 1.512 . S
C1469 H1475 0.965 . S
C1469 H1476 0.954 1_655 S
C1469 H1477 0.944 1_655 S
C1470 C1468 1.390 . S
C1470 C1471 1.394 . S
C1470 H1478 0.930 . S
C1471 C1470 1.394 . S
C1471 C1472 1.383 . S
C1471 H1479 0.929 . S
C1472 C1471 1.383 . S
C1472 C1473 1.377 . S
C1473 H1457 0.930 . S
C1473 C1472 1.377 . S
C1473 C1474 1.379 . S
C1474 H1458 0.931 1_455 S
C1474 C1468 1.384 . S
C1474 C1473 1.379 . S
H1475 C1469 0.965 . S
H1476 C1469 0.954 1_455 S
H1477 C1469 0.944 1_455 S
H1478 C1470 0.930 . S
H1479 C1471 0.929 . S
H1480 C1488 0.929 . S
H1481 C1490 0.930 . S
H1482 C1492 0.930 . S
H1483 C1495 0.929 . S
H1484 C1498 0.930 . S
H1485 C1500 0.960 . S
H1486 C1500 0.960 . S
H1487 C1500 0.960 . S
C1488 H1480 0.929 . S
C1488 C1489 1.377 . S
C1488 C1490 1.384 . S
C1489 C1488 1.377 . S
C1489 C1495 1.390 . S
C1490 H1481 0.930 . S
C1490 C1488 1.384 . S
C1490 C1491 1.372 . S
C1491 C1490 1.372 . S
C1491 C1492 1.400 . S
C1491 C1496 1.490 . S
C1492 H1482 0.930 . S
C1492 C1491 1.400 . S
C1492 C1495 1.386 . S
H1493 C1509 0.930 . S
H1494 C1510 0.931 . S
C1495 H1483 0.929 . S
C1495 C1489 1.390 . S
C1495 C1492 1.386 . S
C1496 C1491 1.490 . S
C1496 C1498 1.395 . S
C1496 C1499 1.403 . S
H1497 C1503 0.930 . S
C1498 H1484 0.930 . S
C1498 C1496 1.395 . S
C1498 C1501 1.403 . S
C1499 C1496 1.403 . S
C1499 C1500 1.524 . S
C1499 C1503 1.400 . S
C1500 H1485 0.960 . S
C1500 H1486 0.960 . S
C1500 H1487 0.960 . S
C1500 C1499 1.524 . S
C1501 C1498 1.403 . S
C1501 C1502 1.392 . S
C1501 C1505 1.495 . S
C1502 C1501 1.392 . S
C1502 C1503 1.385 . S
C1502 C1504 1.478 . S
C1503 H1497 0.930 . S
C1503 C1499 1.400 . S
C1503 C1502 1.385 . S
C1504 C1502 1.478 . S
C1504 C1506 1.381 . S
C1504 C1510 1.383 . S
C1505 C1501 1.495 . S
C1505 H1511 0.959 . S
C1505 H1512 0.961 . S
C1505 H1513 0.960 . S
C1506 C1504 1.381 . S
C1506 C1507 1.394 . S
C1506 H1514 0.930 . S
C1507 C1506 1.394 . S
C1507 C1508 1.383 . S
C1507 H1515 0.929 . S
C1508 C1507 1.383 . S
C1508 C1509 1.377 . S
C1509 H1493 0.930 . S
C1509 C1508 1.377 . S
C1509 C1510 1.379 . S
C1510 H1494 0.931 . S
C1510 C1504 1.383 . S
C1510 C1509 1.379 . S
H1511 C1505 0.959 . S
H1512 C1505 0.961 . S
H1513 C1505 0.960 . S
H1514 C1506 0.930 . S
H1515 C1507 0.929 . S
H1516 C1524 0.929 . S
H1517 C1526 0.930 . S
H1518 C1528 0.930 . S
H1519 C1531 0.929 . S
H1520 C1534 0.930 . S
H1521 C1536 0.960 . S
H1522 C1536 0.960 . S
H1523 C1536 0.960 . S
C1524 H1516 0.929 . S
C1524 C1525 1.377 . S
C1524 C1526 1.384 . S
C1525 C1524 1.377 . S
C1525 C1531 1.390 . S
C1526 H1517 0.930 . S
C1526 C1524 1.384 . S
C1526 C1527 1.372 . S
C1527 C1526 1.372 . S
C1527 C1528 1.400 . S
C1527 C1532 1.490 . S
C1528 H1518 0.930 . S
C1528 C1527 1.400 . S
C1528 C1531 1.386 . S
H1529 C1545 0.930 . S
H1530 C1546 0.931 . S
C1531 H1519 0.929 . S
C1531 C1525 1.390 . S
C1531 C1528 1.386 . S
C1532 C1527 1.490 . S
C1532 C1534 1.395 . S
C1532 C1535 1.403 . S
H1533 C1539 0.930 . S
C1534 H1520 0.930 . S
C1534 C1532 1.395 . S
C1534 C1537 1.403 . S
C1535 C1532 1.403 . S
C1535 C1536 1.524 . S
C1535 C1539 1.400 . S
C1536 H1521 0.960 . S
C1536 H1522 0.960 . S
C1536 H1523 0.960 . S
C1536 C1535 1.524 . S
C1537 C1534 1.403 . S
C1537 C1538 1.392 . S
C1537 C1541 1.495 . S
C1538 C1537 1.392 . S
C1538 C1539 1.385 . S
C1538 C1540 1.478 . S
C1539 H1533 0.930 . S
C1539 C1535 1.400 . S
C1539 C1538 1.385 . S
C1540 C1538 1.478 . S
C1540 C1542 1.381 . S
C1540 C1546 1.383 . S
C1541 C1537 1.495 . S
C1541 H1547 0.959 . S
C1541 H1548 0.961 . S
C1541 H1549 0.960 . S
C1542 C1540 1.381 . S
C1542 C1543 1.394 . S
C1542 H1550 0.930 . S
C1543 C1542 1.394 . S
C1543 C1544 1.383 . S
C1543 H1551 0.929 . S
C1544 C1543 1.383 . S
C1544 C1545 1.377 . S
C1545 H1529 0.930 . S
C1545 C1544 1.377 . S
C1545 C1546 1.379 . S
C1546 H1530 0.931 . S
C1546 C1540 1.383 . S
C1546 C1545 1.379 . S
H1547 C1541 0.959 . S
H1548 C1541 0.961 . S
H1549 C1541 0.960 . S
H1550 C1542 0.930 . S
H1551 C1543 0.929 . S
H1552 C1560 0.929 . S
H1553 C1562 0.930 . S
H1554 C1564 0.930 . S
H1555 C1567 0.929 . S
H1556 C1570 0.930 . S
H1557 C1572 0.960 . S
H1558 C1572 0.960 . S
H1559 C1572 0.960 . S
C1560 H1552 0.929 . S
C1560 C1561 1.377 . S
C1560 C1562 1.384 . S
C1561 C1560 1.377 . S
C1561 C1567 1.390 . S
C1562 H1553 0.930 . S
C1562 C1560 1.384 . S
C1562 C1563 1.372 . S
C1563 C1562 1.372 . S
C1563 C1564 1.400 . S
C1563 C1568 1.490 . S
C1564 H1554 0.930 . S
C1564 C1563 1.400 . S
C1564 C1567 1.386 . S
H1565 C1581 0.930 . S
H1566 C1582 0.931 . S
C1567 H1555 0.929 . S
C1567 C1561 1.390 . S
C1567 C1564 1.386 . S
C1568 C1563 1.490 . S
C1568 C1570 1.395 . S
C1568 C1571 1.403 . S
H1569 C1575 0.930 . S
C1570 H1556 0.930 . S
C1570 C1568 1.395 . S
C1570 C1573 1.403 . S
C1571 C1568 1.403 . S
C1571 C1572 1.524 . S
C1571 C1575 1.400 . S
C1572 H1557 0.960 . S
C1572 H1558 0.960 . S
C1572 H1559 0.960 . S
C1572 C1571 1.524 . S
C1573 C1570 1.403 . S
C1573 C1574 1.392 . S
C1573 C1577 1.495 . S
C1574 C1573 1.392 . S
C1574 C1575 1.385 . S
C1574 C1576 1.478 . S
C1575 H1569 0.930 . S
C1575 C1571 1.400 . S
C1575 C1574 1.385 . S
C1576 C1574 1.478 . S
C1576 C1578 1.381 . S
C1576 C1582 1.383 . S
C1577 C1573 1.495 . S
C1577 H1583 0.959 . S
C1577 H1584 0.961 . S
C1577 H1585 0.960 . S
C1578 C1576 1.381 . S
C1578 C1579 1.394 . S
C1578 H1586 0.930 . S
C1579 C1578 1.394 . S
C1579 C1580 1.383 . S
C1579 H1587 0.929 . S
C1580 C1579 1.383 . S
C1580 C1581 1.377 . S
C1581 H1565 0.930 . S
C1581 C1580 1.377 . S
C1581 C1582 1.379 . S
C1582 H1566 0.931 . S
C1582 C1576 1.383 . S
C1582 C1581 1.379 . S
H1583 C1577 0.959 . S
H1584 C1577 0.961 . S
H1585 C1577 0.960 . S
H1586 C1578 0.930 . S
H1587 C1579 0.929 . S
H1588 C1596 0.929 . S
H1589 C1598 0.930 . S
H1590 C1600 0.930 . S
H1591 C1603 0.929 . S
H1592 C1606 0.930 . S
H1593 C1608 0.960 . S
H1594 C1608 0.960 . S
H1595 C1608 0.960 . S
C1596 H1588 0.929 . S
C1596 C1597 1.377 . S
C1596 C1598 1.384 . S
C1597 C1596 1.377 . S
C1597 C1603 1.390 . S
C1598 H1589 0.930 . S
C1598 C1596 1.384 . S
C1598 C1599 1.372 . S
C1599 C1598 1.372 . S
C1599 C1600 1.400 . S
C1599 C1604 1.490 . S
C1600 H1590 0.930 . S
C1600 C1599 1.400 . S
C1600 C1603 1.386 . S
H1601 C1617 0.930 . S
H1602 C1618 0.931 . S
C1603 H1591 0.929 . S
C1603 C1597 1.390 . S
C1603 C1600 1.386 . S
C1604 C1599 1.490 . S
C1604 C1606 1.395 . S
C1604 C1607 1.403 . S
H1605 C1611 0.930 . S
C1606 H1592 0.930 . S
C1606 C1604 1.395 . S
C1606 C1609 1.403 . S
C1607 C1604 1.403 . S
C1607 C1608 1.524 . S
C1607 C1611 1.400 . S
C1608 H1593 0.960 . S
C1608 H1594 0.960 . S
C1608 H1595 0.960 . S
C1608 C1607 1.524 . S
C1609 C1606 1.403 . S
C1609 C1610 1.392 . S
C1609 C1613 1.495 . S
C1610 C1609 1.392 . S
C1610 C1611 1.385 . S
C1610 C1612 1.478 . S
C1611 H1605 0.930 . S
C1611 C1607 1.400 . S
C1611 C1610 1.385 . S
C1612 C1610 1.478 . S
C1612 C1614 1.381 . S
C1612 C1618 1.383 . S
C1613 C1609 1.495 . S
C1613 H1619 0.959 . S
C1613 H1620 0.961 . S
C1613 H1621 0.960 . S
C1614 C1612 1.381 . S
C1614 C1615 1.394 . S
C1614 H1622 0.930 . S
C1615 C1614 1.394 . S
C1615 C1616 1.383 . S
C1615 H1623 0.929 . S
C1616 C1615 1.383 . S
C1616 C1617 1.377 . S
C1617 H1601 0.930 . S
C1617 C1616 1.377 . S
C1617 C1618 1.379 . S
C1618 H1602 0.931 . S
C1618 C1612 1.383 . S
C1618 C1617 1.379 . S
H1619 C1613 0.959 . S
H1620 C1613 0.961 . S
H1621 C1613 0.960 . S
H1622 C1614 0.930 . S
H1623 C1615 0.929 . S
H1624 C1632 0.929 . S
H1625 C1634 0.930 . S
H1626 C1636 0.930 . S
H1627 C1639 0.929 . S
H1628 C1642 0.930 . S
H1629 C1644 0.960 . S
H1630 C1644 0.960 . S
H1631 C1644 0.960 . S
C1632 H1624 0.929 . S
C1632 C1633 1.377 . S
C1632 C1634 1.384 . S
C1633 C1632 1.377 . S
C1633 C1639 1.390 . S
C1634 H1625 0.930 . S
C1634 C1632 1.384 . S
C1634 C1635 1.372 . S
C1635 C1634 1.372 . S
C1635 C1636 1.400 . S
C1635 C1640 1.490 . S
C1636 H1626 0.930 . S
C1636 C1635 1.400 . S
C1636 C1639 1.386 . S
H1637 C1653 0.930 . S
H1638 C1654 0.931 . S
C1639 H1627 0.929 . S
C1639 C1633 1.390 . S
C1639 C1636 1.386 . S
C1640 C1635 1.490 . S
C1640 C1642 1.395 . S
C1640 C1643 1.403 . S
H1641 C1647 0.930 . S
C1642 H1628 0.930 . S
C1642 C1640 1.395 . S
C1642 C1645 1.403 . S
C1643 C1640 1.403 . S
C1643 C1644 1.524 . S
C1643 C1647 1.400 . S
C1644 H1629 0.960 . S
C1644 H1630 0.960 . S
C1644 H1631 0.960 . S
C1644 C1643 1.524 . S
C1645 C1642 1.403 . S
C1645 C1646 1.392 . S
C1645 C1649 1.495 . S
C1646 C1645 1.392 . S
C1646 C1647 1.385 . S
C1646 C1648 1.509 . S
C1647 H1641 0.930 . S
C1647 C1643 1.400 . S
C1647 C1646 1.385 . S
C1648 C1646 1.509 . S
C1648 C1650 1.379 1_554 S
C1648 C1654 1.353 1_554 S
C1649 C1645 1.495 . S
C1649 H1655 0.959 . S
C1649 H1656 0.961 . S
C1649 H1657 0.960 . S
C1650 C1648 1.379 1_556 S
C1650 C1651 1.394 . S
C1650 H1658 0.930 1_556 S
C1651 C1650 1.394 . S
C1651 C1652 1.383 . S
C1651 H1659 0.929 . S
C1652 C1651 1.383 . S
C1652 C1653 1.377 . S
C1653 H1637 0.930 . S
C1653 C1652 1.377 . S
C1653 C1654 1.379 . S
C1654 H1638 0.931 . S
C1654 C1648 1.353 1_556 S
C1654 C1653 1.379 . S
H1655 C1649 0.959 . S
H1656 C1649 0.961 . S
H1657 C1649 0.960 . S
H1658 C1650 0.930 1_554 S
H1659 C1651 0.929 . S
H1660 C1668 0.929 . S
H1661 C1670 0.930 . S
H1662 C1672 0.930 . S
H1663 C1675 0.929 . S
H1664 C1678 0.930 . S
H1665 C1680 0.960 . S
H1666 C1680 0.960 . S
H1667 C1680 0.960 . S
C1668 H1660 0.929 . S
C1668 C1669 1.377 . S
C1668 C1670 1.384 . S
C1669 C1668 1.377 . S
C1669 C1675 1.390 . S
C1670 H1661 0.930 . S
C1670 C1668 1.384 . S
C1670 C1671 1.372 . S
C1671 C1670 1.372 . S
C1671 C1672 1.400 . S
C1671 C1676 1.490 . S
C1672 H1662 0.930 . S
C1672 C1671 1.400 . S
C1672 C1675 1.386 . S
H1673 C1689 0.930 . S
H1674 C1690 0.931 . S
C1675 H1663 0.929 . S
C1675 C1669 1.390 . S
C1675 C1672 1.386 . S
C1676 C1671 1.490 . S
C1676 C1678 1.395 . S
C1676 C1679 1.403 . S
H1677 C1683 0.930 . S
C1678 H1664 0.930 . S
C1678 C1676 1.395 . S
C1678 C1681 1.403 . S
C1679 C1676 1.403 . S
C1679 C1680 1.524 . S
C1679 C1683 1.400 . S
C1680 H1665 0.960 . S
C1680 H1666 0.960 . S
C1680 H1667 0.960 . S
C1680 C1679 1.524 . S
C1681 C1678 1.403 . S
C1681 C1682 1.392 . S
C1681 C1685 1.495 . S
C1682 C1681 1.392 . S
C1682 C1683 1.385 . S
C1682 C1684 1.478 . S
C1683 H1677 0.930 . S
C1683 C1679 1.400 . S
C1683 C1682 1.385 . S
C1684 C1682 1.478 . S
C1684 C1686 1.381 . S
C1684 C1690 1.383 . S
C1685 C1681 1.495 . S
C1685 H1691 0.959 . S
C1685 H1692 0.961 . S
C1685 H1693 0.960 . S
C1686 C1684 1.381 . S
C1686 C1687 1.394 . S
C1686 H1694 0.930 . S
C1687 C1686 1.394 . S
C1687 C1688 1.383 . S
C1687 H1695 0.929 . S
C1688 C1687 1.383 . S
C1688 C1689 1.377 . S
C1689 H1673 0.930 . S
C1689 C1688 1.377 . S
C1689 C1690 1.379 . S
C1690 H1674 0.931 . S
C1690 C1684 1.383 . S
C1690 C1689 1.379 . S
H1691 C1685 0.959 . S
H1692 C1685 0.961 . S
H1693 C1685 0.960 . S
H1694 C1686 0.930 . S
H1695 C1687 0.929 . S
H1696 C1704 0.929 . S
H1697 C1706 0.930 . S
H1698 C1708 0.930 . S
H1699 C1711 0.929 . S
H1700 C1714 0.930 . S
H1701 C1716 0.960 . S
H1702 C1716 0.960 . S
H1703 C1716 0.960 . S
C1704 H1696 0.929 . S
C1704 C1705 1.377 . S
C1704 C1706 1.384 . S
C1705 C1704 1.377 . S
C1705 C1711 1.390 . S
C1706 H1697 0.930 . S
C1706 C1704 1.384 . S
C1706 C1707 1.372 . S
C1707 C1706 1.372 . S
C1707 C1708 1.400 . S
C1707 C1712 1.490 . S
C1708 H1698 0.930 . S
C1708 C1707 1.400 . S
C1708 C1711 1.386 . S
H1709 C1725 0.930 . S
H1710 C1726 0.931 1_554 S
C1711 H1699 0.929 . S
C1711 C1705 1.390 . S
C1711 C1708 1.386 . S
C1712 C1707 1.490 . S
C1712 C1714 1.395 . S
C1712 C1715 1.403 . S
H1713 C1719 0.930 . S
C1714 H1700 0.930 . S
C1714 C1712 1.395 . S
C1714 C1717 1.403 . S
C1715 C1712 1.403 . S
C1715 C1716 1.524 . S
C1715 C1719 1.400 . S
C1716 H1701 0.960 . S
C1716 H1702 0.960 . S
C1716 H1703 0.960 . S
C1716 C1715 1.524 . S
C1717 C1714 1.403 . S
C1717 C1718 1.392 . S
C1717 C1721 1.495 . S
C1718 C1717 1.392 . S
C1718 C1719 1.385 . S
C1718 C1720 1.478 . S
C1719 H1713 0.930 . S
C1719 C1715 1.400 . S
C1719 C1718 1.385 . S
C1720 C1718 1.478 . S
C1720 C1722 1.381 . S
C1720 C1726 1.383 1_554 S
C1721 C1717 1.495 . S
C1721 H1727 0.959 . S
C1721 H1728 0.961 . S
C1721 H1729 0.960 . S
C1722 C1720 1.381 . S
C1722 C1723 1.394 1_554 S
C1722 H1730 0.930 . S
C1723 C1722 1.394 1_556 S
C1723 C1724 1.383 . S
C1723 H1731 0.929 . S
C1724 C1723 1.383 . S
C1724 C1725 1.377 . S
C1725 H1709 0.930 . S
C1725 C1724 1.377 . S
C1725 C1726 1.379 . S
C1726 H1710 0.931 1_556 S
C1726 C1720 1.383 1_556 S
C1726 C1725 1.379 . S
H1727 C1721 0.959 . S
H1728 C1721 0.961 . S
H1729 C1721 0.960 . S
H1730 C1722 0.930 . S
H1731 C1723 0.929 . S
H1732 C1740 0.929 . S
H1733 C1742 0.930 . S
H1734 C1744 0.930 . S
H1735 C1747 0.929 . S
H1736 C1750 0.930 . S
H1737 C1752 0.960 . S
H1738 C1752 0.960 . S
H1739 C1752 0.960 . S
C1740 H1732 0.929 . S
C1740 C1741 1.377 . S
C1740 C1742 1.384 . S
C1741 C1740 1.377 . S
C1741 C1747 1.390 . S
C1742 H1733 0.930 . S
C1742 C1740 1.384 . S
C1742 C1743 1.372 . S
C1743 C1742 1.372 . S
C1743 C1744 1.400 . S
C1743 C1748 1.490 . S
C1744 H1734 0.930 . S
C1744 C1743 1.400 . S
C1744 C1747 1.386 . S
H1745 C1761 0.930 . S
H1746 C1762 0.931 . S
C1747 H1735 0.929 . S
C1747 C1741 1.390 . S
C1747 C1744 1.386 . S
C1748 C1743 1.490 . S
C1748 C1750 1.395 . S
C1748 C1751 1.403 . S
H1749 C1755 0.930 . S
C1750 H1736 0.930 . S
C1750 C1748 1.395 . S
C1750 C1753 1.403 . S
C1751 C1748 1.403 . S
C1751 C1752 1.524 . S
C1751 C1755 1.400 . S
C1752 H1737 0.960 . S
C1752 H1738 0.960 . S
C1752 H1739 0.960 . S
C1752 C1751 1.524 . S
C1753 C1750 1.403 . S
C1753 C1754 1.392 . S
C1753 C1757 1.495 . S
C1754 C1753 1.392 . S
C1754 C1755 1.385 . S
C1754 C1756 1.478 . S
C1755 H1749 0.930 . S
C1755 C1751 1.400 . S
C1755 C1754 1.385 . S
C1756 C1754 1.478 . S
C1756 C1758 1.381 . S
C1756 C1762 1.383 . S
C1757 C1753 1.495 . S
C1757 H1763 0.959 . S
C1757 H1764 0.961 . S
C1757 H1765 0.960 . S
C1758 C1756 1.381 . S
C1758 C1759 1.394 . S
C1758 H1766 0.930 . S
C1759 C1758 1.394 . S
C1759 C1760 1.383 . S
C1759 H1767 0.929 . S
C1760 C1759 1.383 . S
C1760 C1761 1.377 . S
C1761 H1745 0.930 . S
C1761 C1760 1.377 . S
C1761 C1762 1.379 . S
C1762 H1746 0.931 . S
C1762 C1756 1.383 . S
C1762 C1761 1.379 . S
H1763 C1757 0.959 . S
H1764 C1757 0.961 . S
H1765 C1757 0.960 . S
H1766 C1758 0.930 . S
H1767 C1759 0.929 . S
H1768 C1776 0.929 . S
H1769 C1778 0.930 . S
H1770 C1780 0.930 . S
H1771 C1783 0.929 . S
H1772 C1786 0.930 . S
H1773 C1788 0.960 . S
H1774 C1788 0.960 . S
H1775 C1788 0.960 . S
C1776 H1768 0.929 . S
C1776 C1777 1.377 . S
C1776 C1778 1.384 . S
C1777 C1776 1.377 . S
C1777 C1783 1.390 . S
C1778 H1769 0.930 . S
C1778 C1776 1.384 . S
C1778 C1779 1.372 . S
C1779 C1778 1.372 . S
C1779 C1780 1.400 . S
C1779 C1784 1.490 . S
C1780 H1770 0.930 . S
C1780 C1779 1.400 . S
C1780 C1783 1.386 . S
H1781 C1797 0.930 . S
H1782 C1798 0.931 . S
C1783 H1771 0.929 . S
C1783 C1777 1.390 . S
C1783 C1780 1.386 . S
C1784 C1779 1.490 . S
C1784 C1786 1.395 . S
C1784 C1787 1.403 . S
H1785 C1791 0.930 . S
C1786 H1772 0.930 . S
C1786 C1784 1.395 . S
C1786 C1789 1.403 . S
C1787 C1784 1.403 . S
C1787 C1788 1.524 . S
C1787 C1791 1.400 . S
C1788 H1773 0.960 . S
C1788 H1774 0.960 . S
C1788 H1775 0.960 . S
C1788 C1787 1.524 . S
C1789 C1786 1.403 . S
C1789 C1790 1.392 . S
C1789 C1793 1.495 . S
C1790 C1789 1.392 . S
C1790 C1791 1.385 . S
C1790 C1792 1.478 . S
C1791 H1785 0.930 . S
C1791 C1787 1.400 . S
C1791 C1790 1.385 . S
C1792 C1790 1.478 . S
C1792 C1794 1.382 . S
C1792 C1798 1.383 1_556 S
C1793 C1789 1.495 . S
C1793 H1799 0.959 . S
C1793 H1800 0.961 . S
C1793 H1801 0.960 . S
C1794 C1792 1.382 . S
C1794 C1795 1.392 1_556 S
C1794 H1802 0.932 . S
C1795 C1794 1.392 1_554 S
C1795 C1796 1.383 . S
C1795 H1803 0.929 . S
C1796 C1795 1.383 . S
C1796 C1797 1.377 . S
C1797 H1781 0.930 . S
C1797 C1796 1.377 . S
C1797 C1798 1.379 . S
C1798 H1782 0.931 . S
C1798 C1792 1.383 1_554 S
C1798 C1797 1.379 . S
H1799 C1793 0.959 . S
H1800 C1793 0.961 . S
H1801 C1793 0.960 . S
H1802 C1794 0.932 . S
H1803 C1795 0.929 . S
H1804 C1812 0.929 . S
H1805 C1814 0.930 . S
H1806 C1816 0.930 . S
H1807 C1819 0.929 . S
H1808 C1822 0.930 . S
H1809 C1824 0.960 . S
H1810 C1824 0.960 . S
H1811 C1824 0.960 . S
C1812 H1804 0.929 . S
C1812 C1813 1.377 . S
C1812 C1814 1.384 . S
C1813 C1812 1.377 . S
C1813 C1819 1.390 . S
C1814 H1805 0.930 . S
C1814 C1812 1.384 . S
C1814 C1815 1.372 . S
C1815 C1814 1.372 . S
C1815 C1816 1.400 . S
C1815 C1820 1.490 . S
C1816 H1806 0.930 . S
C1816 C1815 1.400 . S
C1816 C1819 1.386 . S
H1817 C1833 0.930 . S
H1818 C1834 0.931 . S
C1819 H1807 0.929 . S
C1819 C1813 1.390 . S
C1819 C1816 1.386 . S
C1820 C1815 1.490 . S
C1820 C1822 1.395 . S
C1820 C1823 1.403 . S
H1821 C1827 0.930 . S
C1822 H1808 0.930 . S
C1822 C1820 1.395 . S
C1822 C1825 1.403 . S
C1823 C1820 1.403 . S
C1823 C1824 1.524 . S
C1823 C1827 1.400 . S
C1824 H1809 0.960 . S
C1824 H1810 0.960 . S
C1824 H1811 0.960 . S
C1824 C1823 1.524 . S
C1825 C1822 1.403 . S
C1825 C1826 1.392 . S
C1825 C1829 1.495 . S
C1826 C1825 1.392 . S
C1826 C1827 1.385 . S
C1826 C1828 1.478 . S
C1827 H1821 0.930 . S
C1827 C1823 1.400 . S
C1827 C1826 1.385 . S
C1828 C1826 1.478 . S
C1828 C1830 1.381 . S
C1828 C1834 1.383 . S
C1829 C1825 1.495 . S
C1829 H1835 0.959 . S
C1829 H1836 0.961 . S
C1829 H1837 0.960 . S
C1830 C1828 1.381 . S
C1830 C1831 1.394 . S
C1830 H1838 0.930 . S
C1831 C1830 1.394 . S
C1831 C1832 1.383 . S
C1831 H1839 0.929 . S
C1832 C1831 1.383 . S
C1832 C1833 1.377 . S
C1833 H1817 0.930 . S
C1833 C1832 1.377 . S
C1833 C1834 1.379 . S
C1834 H1818 0.931 . S
C1834 C1828 1.383 . S
C1834 C1833 1.379 . S
H1835 C1829 0.959 . S
H1836 C1829 0.961 . S
H1837 C1829 0.960 . S
H1838 C1830 0.930 . S
H1839 C1831 0.929 . S
H1840 C1848 0.929 . S
H1841 C1850 0.930 . S
H1842 C1852 0.930 . S
H1843 C1855 0.929 . S
H1844 C1858 0.930 . S
H1845 C1860 0.960 . S
H1846 C1860 0.960 . S
H1847 C1860 0.960 . S
C1848 H1840 0.929 . S
C1848 C1849 1.377 . S
C1848 C1850 1.384 . S
C1849 C1848 1.377 . S
C1849 C1855 1.390 . S
C1850 H1841 0.930 . S
C1850 C1848 1.384 . S
C1850 C1851 1.372 . S
C1851 C1850 1.372 . S
C1851 C1852 1.400 . S
C1851 C1856 1.490 . S
C1852 H1842 0.930 . S
C1852 C1851 1.400 . S
C1852 C1855 1.386 . S
H1853 C1869 0.930 . S
H1854 C1870 0.931 . S
C1855 H1843 0.929 . S
C1855 C1849 1.390 . S
C1855 C1852 1.386 . S
C1856 C1851 1.490 . S
C1856 C1858 1.395 . S
C1856 C1859 1.403 . S
H1857 C1863 0.930 . S
C1858 H1844 0.930 . S
C1858 C1856 1.395 . S
C1858 C1861 1.403 . S
C1859 C1856 1.403 . S
C1859 C1860 1.524 . S
C1859 C1863 1.400 . S
C1860 H1845 0.960 . S
C1860 H1846 0.960 . S
C1860 H1847 0.960 . S
C1860 C1859 1.524 . S
C1861 C1858 1.403 . S
C1861 C1862 1.392 . S
C1861 C1865 1.495 . S
C1862 C1861 1.392 . S
C1862 C1863 1.385 . S
C1862 C1864 1.478 . S
C1863 H1857 0.930 . S
C1863 C1859 1.400 . S
C1863 C1862 1.385 . S
C1864 C1862 1.478 . S
C1864 C1866 1.381 1_556 S
C1864 C1870 1.383 1_556 S
C1865 C1861 1.495 . S
C1865 H1871 0.959 . S
C1865 H1872 0.961 . S
C1865 H1873 0.960 . S
C1866 C1864 1.381 1_554 S
C1866 C1867 1.394 . S
C1866 H1874 0.930 1_554 S
C1867 C1866 1.394 . S
C1867 C1868 1.383 . S
C1867 H1875 0.929 . S
C1868 C1867 1.383 . S
C1868 C1869 1.377 . S
C1869 H1853 0.930 . S
C1869 C1868 1.377 . S
C1869 C1870 1.379 . S
C1870 H1854 0.931 . S
C1870 C1864 1.383 1_554 S
C1870 C1869 1.379 . S
H1871 C1865 0.959 . S
H1872 C1865 0.961 . S
H1873 C1865 0.960 . S
H1874 C1866 0.930 1_556 S
H1875 C1867 0.929 . S
H1876 C1884 0.929 . S
H1877 C1886 0.930 . S
H1878 C1888 0.930 . S
H1879 C1891 0.929 . S
H1880 C1894 0.930 . S
H1881 C1896 0.960 . S
H1882 C1896 0.960 . S
H1883 C1896 0.960 . S
C1884 H1876 0.929 . S
C1884 C1885 1.377 . S
C1884 C1886 1.384 . S
C1885 C1884 1.377 . S
C1885 C1891 1.390 . S
C1886 H1877 0.930 . S
C1886 C1884 1.384 . S
C1886 C1887 1.372 . S
C1887 C1886 1.372 . S
C1887 C1888 1.400 . S
C1887 C1892 1.490 . S
C1888 H1878 0.930 . S
C1888 C1887 1.400 . S
C1888 C1891 1.386 . S
H1889 C1905 0.930 . S
H1890 C1906 0.931 . S
C1891 H1879 0.929 . S
C1891 C1885 1.390 . S
C1891 C1888 1.386 . S
C1892 C1887 1.490 . S
C1892 C1894 1.395 . S
C1892 C1895 1.403 . S
H1893 C1899 0.930 . S
C1894 H1880 0.930 . S
C1894 C1892 1.395 . S
C1894 C1897 1.403 . S
C1895 C1892 1.403 . S
C1895 C1896 1.524 . S
C1895 C1899 1.400 . S
C1896 H1881 0.960 . S
C1896 H1882 0.960 . S
C1896 H1883 0.960 . S
C1896 C1895 1.524 . S
C1897 C1894 1.403 . S
C1897 C1898 1.392 . S
C1897 C1901 1.495 . S
C1898 C1897 1.392 . S
C1898 C1899 1.385 . S
C1898 C1900 1.478 . S
C1899 H1893 0.930 . S
C1899 C1895 1.400 . S
C1899 C1898 1.385 . S
C1900 C1898 1.478 . S
C1900 C1902 1.381 . S
C1900 C1906 1.383 . S
C1901 C1897 1.495 . S
C1901 H1907 0.959 . S
C1901 H1908 0.961 . S
C1901 H1909 0.960 . S
C1902 C1900 1.381 . S
C1902 C1903 1.394 . S
C1902 H1910 0.930 . S
C1903 C1902 1.394 . S
C1903 C1904 1.383 . S
C1903 H1911 0.929 . S
C1904 C1903 1.383 . S
C1904 C1905 1.377 . S
C1905 H1889 0.930 . S
C1905 C1904 1.377 . S
C1905 C1906 1.379 . S
C1906 H1890 0.931 . S
C1906 C1900 1.383 . S
C1906 C1905 1.379 . S
H1907 C1901 0.959 . S
H1908 C1901 0.961 . S
H1909 C1901 0.960 . S
H1910 C1902 0.930 . S
H1911 C1903 0.929 . S
H1912 C1920 0.929 . S
H1913 C1922 0.930 . S
H1914 C1924 0.930 . S
H1915 C1927 0.929 . S
H1916 C1930 0.930 . S
H1917 C1932 0.960 . S
H1918 C1932 0.960 . S
H1919 C1932 0.960 . S
C1920 H1912 0.929 . S
C1920 C1921 1.377 . S
C1920 C1922 1.384 . S
C1921 C1920 1.377 . S
C1921 C1927 1.390 . S
C1922 H1913 0.930 . S
C1922 C1920 1.384 . S
C1922 C1923 1.372 . S
C1923 C1922 1.372 . S
C1923 C1924 1.400 . S
C1923 C1928 1.490 . S
C1924 H1914 0.930 . S
C1924 C1923 1.400 . S
C1924 C1927 1.386 . S
H1925 C1941 0.930 . S
H1926 C1942 0.931 . S
C1927 H1915 0.929 . S
C1927 C1921 1.390 . S
C1927 C1924 1.386 . S
C1928 C1923 1.490 . S
C1928 C1930 1.395 . S
C1928 C1931 1.403 . S
H1929 C1935 0.930 . S
C1930 H1916 0.930 . S
C1930 C1928 1.395 . S
C1930 C1933 1.403 . S
C1931 C1928 1.403 . S
C1931 C1932 1.524 . S
C1931 C1935 1.400 . S
C1932 H1917 0.960 . S
C1932 H1918 0.960 . S
C1932 H1919 0.960 . S
C1932 C1931 1.524 . S
C1933 C1930 1.403 . S
C1933 C1934 1.392 . S
C1933 C1937 1.495 . S
C1934 C1933 1.392 . S
C1934 C1935 1.385 . S
C1934 C1936 1.478 . S
C1935 H1929 0.930 . S
C1935 C1931 1.400 . S
C1935 C1934 1.385 . S
C1936 C1934 1.478 . S
C1936 C1938 1.381 . S
C1936 C1942 1.383 . S
C1937 C1933 1.495 . S
C1937 H1943 0.959 . S
C1937 H1944 0.961 . S
C1937 H1945 0.960 . S
C1938 C1936 1.381 . S
C1938 C1939 1.394 . S
C1938 H1946 0.930 . S
C1939 C1938 1.394 . S
C1939 C1940 1.383 . S
C1939 H1947 0.929 . S
C1940 C1939 1.383 . S
C1940 C1941 1.377 . S
C1941 H1925 0.930 . S
C1941 C1940 1.377 . S
C1941 C1942 1.379 . S
C1942 H1926 0.931 . S
C1942 C1936 1.383 . S
C1942 C1941 1.379 . S
H1943 C1937 0.959 . S
H1944 C1937 0.961 . S
H1945 C1937 0.960 . S
H1946 C1938 0.930 . S
H1947 C1939 0.929 . S
H1948 C1956 0.929 . S
H1949 C1958 0.930 . S
H1950 C1960 0.930 . S
H1951 C1963 0.929 . S
H1952 C1966 0.930 . S
H1953 C1968 0.960 . S
H1954 C1968 0.960 . S
H1955 C1968 0.960 . S
C1956 H1948 0.929 . S
C1956 C1957 1.377 . S
C1956 C1958 1.384 . S
C1957 C1956 1.377 . S
C1957 C1963 1.390 . S
C1958 H1949 0.930 . S
C1958 C1956 1.384 . S
C1958 C1959 1.372 . S
C1959 C1958 1.372 . S
C1959 C1960 1.400 . S
C1959 C1964 1.490 . S
C1960 H1950 0.930 . S
C1960 C1959 1.400 . S
C1960 C1963 1.386 . S
H1961 C1977 0.930 . S
H1962 C1978 0.931 . S
C1963 H1951 0.929 . S
C1963 C1957 1.390 . S
C1963 C1960 1.386 . S
C1964 C1959 1.490 . S
C1964 C1966 1.395 . S
C1964 C1967 1.403 . S
H1965 C1971 0.930 . S
C1966 H1952 0.930 . S
C1966 C1964 1.395 . S
C1966 C1969 1.403 . S
C1967 C1964 1.403 . S
C1967 C1968 1.524 . S
C1967 C1971 1.400 . S
C1968 H1953 0.960 . S
C1968 H1954 0.960 . S
C1968 H1955 0.960 . S
C1968 C1967 1.524 . S
C1969 C1966 1.403 . S
C1969 C1970 1.392 . S
C1969 C1973 1.495 . S
C1970 C1969 1.392 . S
C1970 C1971 1.385 . S
C1970 C1972 1.478 . S
C1971 H1965 0.930 . S
C1971 C1967 1.400 . S
C1971 C1970 1.385 . S
C1972 C1970 1.478 . S
C1972 C1974 1.381 . S
C1972 C1978 1.383 . S
C1973 C1969 1.495 . S
C1973 H1979 0.961 1_565 S
C1973 H1980 0.961 . S
C1973 H1981 0.960 . S
C1974 C1972 1.381 . S
C1974 C1975 1.394 . S
C1974 H1982 0.930 . S
C1975 C1974 1.394 . S
C1975 C1976 1.383 . S
C1975 H1983 0.929 . S
C1976 C1975 1.383 . S
C1976 C1977 1.377 . S
C1977 H1961 0.930 . S
C1977 C1976 1.377 . S
C1977 C1978 1.379 . S
C1978 H1962 0.931 . S
C1978 C1972 1.383 . S
C1978 C1977 1.379 . S
H1979 C1973 0.961 1_545 S
H1980 C1973 0.961 . S
H1981 C1973 0.960 . S
H1982 C1974 0.930 . S
H1983 C1975 0.929 . S
H1984 C1992 0.929 . S
H1985 C1994 0.930 . S
H1986 C1996 0.930 . S
H1987 C1999 0.929 . S
H1988 C2002 0.930 . S
H1989 C2004 0.960 . S
H1990 C2004 0.960 . S
H1991 C2004 0.960 . S
C1992 H1984 0.929 . S
C1992 C1993 1.377 . S
C1992 C1994 1.384 . S
C1993 C1992 1.377 . S
C1993 C1999 1.390 . S
C1994 H1985 0.930 . S
C1994 C1992 1.384 . S
C1994 C1995 1.372 . S
C1995 C1994 1.372 . S
C1995 C1996 1.400 . S
C1995 C2000 1.490 . S
C1996 H1986 0.930 . S
C1996 C1995 1.400 . S
C1996 C1999 1.386 . S
H1997 C2013 0.930 . S
H1998 C2014 0.931 . S
C1999 H1987 0.929 . S
C1999 C1993 1.390 . S
C1999 C1996 1.386 . S
C2000 C1995 1.490 . S
C2000 C2002 1.395 . S
C2000 C2003 1.403 . S
H2001 C2007 0.930 . S
C2002 H1988 0.930 . S
C2002 C2000 1.395 . S
C2002 C2005 1.403 . S
C2003 C2000 1.403 . S
C2003 C2004 1.524 . S
C2003 C2007 1.400 . S
C2004 H1989 0.960 . S
C2004 H1990 0.960 . S
C2004 H1991 0.960 . S
C2004 C2003 1.524 . S
C2005 C2002 1.403 . S
C2005 C2006 1.392 . S
C2005 C2009 1.495 . S
C2006 C2005 1.392 . S
C2006 C2007 1.385 . S
C2006 C2008 1.478 . S
C2007 H2001 0.930 . S
C2007 C2003 1.400 . S
C2007 C2006 1.385 . S
C2008 C2006 1.478 . S
C2008 C2010 1.381 . S
C2008 C2014 1.383 1_565 S
C2009 C2005 1.495 . S
C2009 H2015 0.959 . S
C2009 H2016 0.961 . S
C2009 H2017 0.960 . S
C2010 C2008 1.381 . S
C2010 C2011 1.394 1_565 S
C2010 H2018 0.930 . S
C2011 C2010 1.394 1_545 S
C2011 C2012 1.383 . S
C2011 H2019 0.929 . S
C2012 C2011 1.383 . S
C2012 C2013 1.377 . S
C2013 H1997 0.930 . S
C2013 C2012 1.377 . S
C2013 C2014 1.379 . S
C2014 H1998 0.931 . S
C2014 C2008 1.383 1_545 S
C2014 C2013 1.379 . S
H2015 C2009 0.959 . S
H2016 C2009 0.961 . S
H2017 C2009 0.960 . S
H2018 C2010 0.930 . S
H2019 C2011 0.929 . S
H2020 C2028 0.929 . S
H2021 C2030 0.930 . S
H2022 C2032 0.930 . S
H2023 C2035 0.929 . S
H2024 C2038 0.930 . S
H2025 C2040 0.960 . S
H2026 C2040 0.960 . S
H2027 C2040 0.960 . S
C2028 H2020 0.929 . S
C2028 C2029 1.377 . S
C2028 C2030 1.384 . S
C2029 C2028 1.377 . S
C2029 C2035 1.390 . S
C2030 H2021 0.930 . S
C2030 C2028 1.384 . S
C2030 C2031 1.372 . S
C2031 C2030 1.372 . S
C2031 C2032 1.400 . S
C2031 C2036 1.490 . S
C2032 H2022 0.930 . S
C2032 C2031 1.400 . S
C2032 C2035 1.386 . S
H2033 C2049 0.930 . S
H2034 C2050 0.931 . S
C2035 H2023 0.929 . S
C2035 C2029 1.390 . S
C2035 C2032 1.386 . S
C2036 C2031 1.490 . S
C2036 C2038 1.395 . S
C2036 C2039 1.403 . S
H2037 C2043 0.930 . S
C2038 H2024 0.930 . S
C2038 C2036 1.395 . S
C2038 C2041 1.403 . S
C2039 C2036 1.403 . S
C2039 C2040 1.524 . S
C2039 C2043 1.400 . S
C2040 H2025 0.960 . S
C2040 H2026 0.960 . S
C2040 H2027 0.960 . S
C2040 C2039 1.524 . S
C2041 C2038 1.403 . S
C2041 C2042 1.392 . S
C2041 C2045 1.495 . S
C2042 C2041 1.392 . S
C2042 C2043 1.385 . S
C2042 C2044 1.478 . S
C2043 H2037 0.930 . S
C2043 C2039 1.400 . S
C2043 C2042 1.385 . S
C2044 C2042 1.478 . S
C2044 C2046 1.381 . S
C2044 C2050 1.383 . S
C2045 C2041 1.495 . S
C2045 H2051 0.959 . S
C2045 H2052 0.961 . S
C2045 H2053 0.960 . S
C2046 C2044 1.381 . S
C2046 C2047 1.394 . S
C2046 H2054 0.930 . S
C2047 C2046 1.394 . S
C2047 C2048 1.383 . S
C2047 H2055 0.929 . S
C2048 C2047 1.383 . S
C2048 C2049 1.377 . S
C2049 H2033 0.930 . S
C2049 C2048 1.377 . S
C2049 C2050 1.379 . S
C2050 H2034 0.931 . S
C2050 C2044 1.383 . S
C2050 C2049 1.379 . S
H2051 C2045 0.959 . S
H2052 C2045 0.961 . S
H2053 C2045 0.960 . S
H2054 C2046 0.930 . S
H2055 C2047 0.929 . S
H2056 C2064 0.929 . S
H2057 C2066 0.930 . S
H2058 C2068 0.930 . S
H2059 C2071 0.929 . S
H2060 C2074 0.930 . S
H2061 C2076 0.960 . S
H2062 C2076 0.960 . S
H2063 C2076 0.960 . S
C2064 H2056 0.929 . S
C2064 C2065 1.377 . S
C2064 C2066 1.384 . S
C2065 C2064 1.377 . S
C2065 C2071 1.390 . S
C2066 H2057 0.930 . S
C2066 C2064 1.384 . S
C2066 C2067 1.372 . S
C2067 C2066 1.372 . S
C2067 C2068 1.400 . S
C2067 C2072 1.490 . S
C2068 H2058 0.930 . S
C2068 C2067 1.400 . S
C2068 C2071 1.386 . S
H2069 C2085 0.930 . S
H2070 C2086 0.931 . S
C2071 H2059 0.929 . S
C2071 C2065 1.390 . S
C2071 C2068 1.386 . S
C2072 C2067 1.490 . S
C2072 C2074 1.395 . S
C2072 C2075 1.403 . S
H2073 C2079 0.930 . S
C2074 H2060 0.930 . S
C2074 C2072 1.395 . S
C2074 C2077 1.403 . S
C2075 C2072 1.403 . S
C2075 C2076 1.524 . S
C2075 C2079 1.400 . S
C2076 H2061 0.960 . S
C2076 H2062 0.960 . S
C2076 H2063 0.960 . S
C2076 C2075 1.524 . S
C2077 C2074 1.403 . S
C2077 C2078 1.392 . S
C2077 C2081 1.495 . S
C2078 C2077 1.392 . S
C2078 C2079 1.385 . S
C2078 C2080 1.478 . S
C2079 H2073 0.930 . S
C2079 C2075 1.400 . S
C2079 C2078 1.385 . S
C2080 C2078 1.478 . S
C2080 C2082 1.381 . S
C2080 C2086 1.383 . S
C2081 C2077 1.495 . S
C2081 H2087 0.959 . S
C2081 H2088 0.961 . S
C2081 H2089 0.960 . S
C2082 C2080 1.381 . S
C2082 C2083 1.394 . S
C2082 H2090 0.930 . S
C2083 C2082 1.394 . S
C2083 C2084 1.383 . S
C2083 H2091 0.929 . S
C2084 C2083 1.383 . S
C2084 C2085 1.377 . S
C2085 H2069 0.930 . S
C2085 C2084 1.377 . S
C2085 C2086 1.379 . S
C2086 H2070 0.931 . S
C2086 C2080 1.383 . S
C2086 C2085 1.379 . S
H2087 C2081 0.959 . S
H2088 C2081 0.961 . S
H2089 C2081 0.960 . S
H2090 C2082 0.930 . S
H2091 C2083 0.929 . S
H2092 C2100 0.929 . S
H2093 C2102 0.930 . S
H2094 C2104 0.930 . S
H2095 C2107 0.929 . S
H2096 C2110 0.930 . S
H2097 C2112 0.960 . S
H2098 C2112 0.960 . S
H2099 C2112 0.960 . S
C2100 H2092 0.929 . S
C2100 C2101 1.377 . S
C2100 C2102 1.384 . S
C2101 C2100 1.377 . S
C2101 C2107 1.390 . S
C2102 H2093 0.930 . S
C2102 C2100 1.384 . S
C2102 C2103 1.372 . S
C2103 C2102 1.372 . S
C2103 C2104 1.400 . S
C2103 C2108 1.490 . S
C2104 H2094 0.930 . S
C2104 C2103 1.400 . S
C2104 C2107 1.386 . S
H2105 C2121 0.930 . S
H2106 C2122 0.931 . S
C2107 H2095 0.929 . S
C2107 C2101 1.390 . S
C2107 C2104 1.386 . S
C2108 C2103 1.490 . S
C2108 C2110 1.395 . S
C2108 C2111 1.403 . S
H2109 C2115 0.930 . S
C2110 H2096 0.930 . S
C2110 C2108 1.395 . S
C2110 C2113 1.403 . S
C2111 C2108 1.403 . S
C2111 C2112 1.524 . S
C2111 C2115 1.400 . S
C2112 H2097 0.960 . S
C2112 H2098 0.960 . S
C2112 H2099 0.960 . S
C2112 C2111 1.524 . S
C2113 C2110 1.403 . S
C2113 C2114 1.392 . S
C2113 C2117 1.495 . S
C2114 C2113 1.392 . S
C2114 C2115 1.385 . S
C2114 C2116 1.478 . S
C2115 H2109 0.930 . S
C2115 C2111 1.400 . S
C2115 C2114 1.385 . S
C2116 C2114 1.478 . S
C2116 C2118 1.381 . S
C2116 C2122 1.383 . S
C2117 C2113 1.495 . S
C2117 H2123 0.959 . S
C2117 H2124 0.961 . S
C2117 H2125 0.960 . S
C2118 C2116 1.381 . S
C2118 C2119 1.394 . S
C2118 H2126 0.930 . S
C2119 C2118 1.394 . S
C2119 C2120 1.383 . S
C2119 H2127 0.929 . S
C2120 C2119 1.383 . S
C2120 C2121 1.377 . S
C2121 H2105 0.930 . S
C2121 C2120 1.377 . S
C2121 C2122 1.379 . S
C2122 H2106 0.931 . S
C2122 C2116 1.383 . S
C2122 C2121 1.379 . S
H2123 C2117 0.959 . S
H2124 C2117 0.961 . S
H2125 C2117 0.960 . S
H2126 C2118 0.930 . S
H2127 C2119 0.929 . S
H2128 C2136 0.929 . S
H2129 C2138 0.930 . S
H2130 C2140 0.930 . S
H2131 C2143 0.929 . S
H2132 C2146 0.930 . S
H2133 C2148 0.960 . S
H2134 C2148 0.960 . S
H2135 C2148 0.960 . S
C2136 H2128 0.929 . S
C2136 C2137 1.377 . S
C2136 C2138 1.384 . S
C2137 C2136 1.377 . S
C2137 C2143 1.390 . S
C2138 H2129 0.930 . S
C2138 C2136 1.384 . S
C2138 C2139 1.372 . S
C2139 C2138 1.372 . S
C2139 C2140 1.400 . S
C2139 C2144 1.490 . S
C2140 H2130 0.930 . S
C2140 C2139 1.400 . S
C2140 C2143 1.386 . S
H2141 C2157 0.930 . S
H2142 C2158 0.931 . S
C2143 H2131 0.929 . S
C2143 C2137 1.390 . S
C2143 C2140 1.386 . S
C2144 C2139 1.490 . S
C2144 C2146 1.395 . S
C2144 C2147 1.403 . S
H2145 C2151 0.930 . S
C2146 H2132 0.930 . S
C2146 C2144 1.395 . S
C2146 C2149 1.403 . S
C2147 C2144 1.403 . S
C2147 C2148 1.524 . S
C2147 C2151 1.400 . S
C2148 H2133 0.960 . S
C2148 H2134 0.960 . S
C2148 H2135 0.960 . S
C2148 C2147 1.524 . S
C2149 C2146 1.403 . S
C2149 C2150 1.392 . S
C2149 C2153 1.495 . S
C2150 C2149 1.392 . S
C2150 C2151 1.385 . S
C2150 C2152 1.478 . S
C2151 H2145 0.930 . S
C2151 C2147 1.400 . S
C2151 C2150 1.385 . S
C2152 C2150 1.478 . S
C2152 C2154 1.381 1_565 S
C2152 C2158 1.383 . S
C2153 C2149 1.495 . S
C2153 H2159 0.959 . S
C2153 H2160 0.961 . S
C2153 H2161 0.960 . S
C2154 C2152 1.381 1_545 S
C2154 C2155 1.394 . S
C2154 H2162 0.930 . S
C2155 C2154 1.394 . S
C2155 C2156 1.383 . S
C2155 H2163 0.929 . S
C2156 C2155 1.383 . S
C2156 C2157 1.377 . S
C2157 H2141 0.930 . S
C2157 C2156 1.377 . S
C2157 C2158 1.379 1_545 S
C2158 H2142 0.931 . S
C2158 C2152 1.383 . S
C2158 C2157 1.379 1_565 S
H2159 C2153 0.959 . S
H2160 C2153 0.961 . S
H2161 C2153 0.960 . S
H2162 C2154 0.930 . S
H2163 C2155 0.929 . S
H2164 C2172 0.929 . S
H2165 C2174 0.930 . S
H2166 C2176 0.930 . S
H2167 C2179 0.929 . S
H2168 C2182 0.930 . S
H2169 C2184 0.960 . S
H2170 C2184 0.960 . S
H2171 C2184 0.960 . S
C2172 H2164 0.929 . S
C2172 C2173 1.377 . S
C2172 C2174 1.384 . S
C2173 C2172 1.377 . S
C2173 C2179 1.390 . S
C2174 H2165 0.930 . S
C2174 C2172 1.384 . S
C2174 C2175 1.372 . S
C2175 C2174 1.372 . S
C2175 C2176 1.400 . S
C2175 C2180 1.490 . S
C2176 H2166 0.930 . S
C2176 C2175 1.400 . S
C2176 C2179 1.386 . S
H2177 C2193 0.930 . S
H2178 C2194 0.931 . S
C2179 H2167 0.929 . S
C2179 C2173 1.390 . S
C2179 C2176 1.386 . S
C2180 C2175 1.490 . S
C2180 C2182 1.395 . S
C2180 C2183 1.403 . S
H2181 C2187 0.930 . S
C2182 H2168 0.930 . S
C2182 C2180 1.395 . S
C2182 C2185 1.403 . S
C2183 C2180 1.403 . S
C2183 C2184 1.524 . S
C2183 C2187 1.400 . S
C2184 H2169 0.960 . S
C2184 H2170 0.960 . S
C2184 H2171 0.960 . S
C2184 C2183 1.524 . S
C2185 C2182 1.403 . S
C2185 C2186 1.392 . S
C2185 C2189 1.495 . S
C2186 C2185 1.392 . S
C2186 C2187 1.385 . S
C2186 C2188 1.478 . S
C2187 H2181 0.930 . S
C2187 C2183 1.400 . S
C2187 C2186 1.385 . S
C2188 C2186 1.478 . S
C2188 C2190 1.381 . S
C2188 C2194 1.383 . S
C2189 C2185 1.495 . S
C2189 H2195 0.959 . S
C2189 H2196 0.961 . S
C2189 H2197 0.960 . S
C2190 C2188 1.381 . S
C2190 C2191 1.394 . S
C2190 H2198 0.930 . S
C2191 C2190 1.394 . S
C2191 C2192 1.383 . S
C2191 H2199 0.929 . S
C2192 C2191 1.383 . S
C2192 C2193 1.377 . S
C2193 H2177 0.930 . S
C2193 C2192 1.377 . S
C2193 C2194 1.379 . S
C2194 H2178 0.931 . S
C2194 C2188 1.383 . S
C2194 C2193 1.379 . S
H2195 C2189 0.959 . S
H2196 C2189 0.961 . S
H2197 C2189 0.960 . S
H2198 C2190 0.930 . S
H2199 C2191 0.929 . S
H2200 C2208 0.929 . S
H2201 C2210 0.930 . S
H2202 C2212 0.930 . S
H2203 C2215 0.929 . S
H2204 C2218 0.930 . S
H2205 C2220 0.960 . S
H2206 C2220 0.960 . S
H2207 C2220 0.960 . S
C2208 H2200 0.929 . S
C2208 C2209 1.377 . S
C2208 C2210 1.384 . S
C2209 C2208 1.377 . S
C2209 C2215 1.390 . S
C2210 H2201 0.930 . S
C2210 C2208 1.384 . S
C2210 C2211 1.372 . S
C2211 C2210 1.372 . S
C2211 C2212 1.400 . S
C2211 C2216 1.490 . S
C2212 H2202 0.930 . S
C2212 C2211 1.400 . S
C2212 C2215 1.386 . S
H2213 C2229 0.930 . S
H2214 C2230 0.931 . S
C2215 H2203 0.929 . S
C2215 C2209 1.390 . S
C2215 C2212 1.386 . S
C2216 C2211 1.490 . S
C2216 C2218 1.395 . S
C2216 C2219 1.403 . S
H2217 C2223 0.930 . S
C2218 H2204 0.930 . S
C2218 C2216 1.395 . S
C2218 C2221 1.403 . S
C2219 C2216 1.403 . S
C2219 C2220 1.524 . S
C2219 C2223 1.400 . S
C2220 H2205 0.960 . S
C2220 H2206 0.960 . S
C2220 H2207 0.960 . S
C2220 C2219 1.524 . S
C2221 C2218 1.403 . S
C2221 C2222 1.392 . S
C2221 C2225 1.495 . S
C2222 C2221 1.392 . S
C2222 C2223 1.385 . S
C2222 C2224 1.478 . S
C2223 H2217 0.930 . S
C2223 C2219 1.400 . S
C2223 C2222 1.385 . S
C2224 C2222 1.478 . S
C2224 C2226 1.381 . S
C2224 C2230 1.383 . S
C2225 C2221 1.495 . S
C2225 H2231 0.959 . S
C2225 H2232 0.961 . S
C2225 H2233 0.960 . S
C2226 C2224 1.381 . S
C2226 C2227 1.394 . S
C2226 H2234 0.930 . S
C2227 C2226 1.394 . S
C2227 C2228 1.383 . S
C2227 H2235 0.929 . S
C2228 C2227 1.383 . S
C2228 C2229 1.377 . S
C2229 H2213 0.930 . S
C2229 C2228 1.377 . S
C2229 C2230 1.379 . S
C2230 H2214 0.931 . S
C2230 C2224 1.383 . S
C2230 C2229 1.379 . S
H2231 C2225 0.959 . S
H2232 C2225 0.961 . S
H2233 C2225 0.960 . S
H2234 C2226 0.930 . S
H2235 C2227 0.929 . S
H2236 C2244 0.929 . S
H2237 C2246 0.930 . S
H2238 C2248 0.930 . S
H2239 C2251 0.929 . S
H2240 C2254 0.930 . S
H2241 C2256 0.960 . S
H2242 C2256 0.960 . S
H2243 C2256 0.960 . S
C2244 H2236 0.929 . S
C2244 C2245 1.377 . S
C2244 C2246 1.384 . S
C2245 C2244 1.377 . S
C2245 C2251 1.390 . S
C2246 H2237 0.930 . S
C2246 C2244 1.384 . S
C2246 C2247 1.372 . S
C2247 C2246 1.372 . S
C2247 C2248 1.400 . S
C2247 C2252 1.490 . S
C2248 H2238 0.930 . S
C2248 C2247 1.400 . S
C2248 C2251 1.386 . S
H2249 C2265 0.930 . S
H2250 C2266 0.931 1_455 S
C2251 H2239 0.929 . S
C2251 C2245 1.390 . S
C2251 C2248 1.386 . S
C2252 C2247 1.490 . S
C2252 C2254 1.395 . S
C2252 C2255 1.403 . S
H2253 C2259 0.930 . S
C2254 H2240 0.930 . S
C2254 C2252 1.395 . S
C2254 C2257 1.403 . S
C2255 C2252 1.403 . S
C2255 C2256 1.524 . S
C2255 C2259 1.400 . S
C2256 H2241 0.960 . S
C2256 H2242 0.960 . S
C2256 H2243 0.960 . S
C2256 C2255 1.524 . S
C2257 C2254 1.403 . S
C2257 C2258 1.392 . S
C2257 C2261 1.495 . S
C2258 C2257 1.392 . S
C2258 C2259 1.385 . S
C2258 C2260 1.478 1_455 S
C2259 H2253 0.930 . S
C2259 C2255 1.400 . S
C2259 C2258 1.385 . S
C2260 C2258 1.478 1_655 S
C2260 C2262 1.381 . S
C2260 C2266 1.383 . S
C2261 C2257 1.495 . S
C2261 H2267 0.959 . S
C2261 H2268 0.961 . S
C2261 H2269 0.960 . S
C2262 C2260 1.381 . S
C2262 C2263 1.394 . S
C2262 H2270 0.930 . S
C2263 C2262 1.394 . S
C2263 C2264 1.383 . S
C2263 H2271 0.929 . S
C2264 C2263 1.383 . S
C2264 C2265 1.377 . S
C2265 H2249 0.930 . S
C2265 C2264 1.377 . S
C2265 C2266 1.379 . S
C2266 H2250 0.931 1_655 S
C2266 C2260 1.383 . S
C2266 C2265 1.379 . S
H2267 C2261 0.959 . S
H2268 C2261 0.961 . S
H2269 C2261 0.960 . S
H2270 C2262 0.930 . S
H2271 C2263 0.929 . S
H2272 C2280 0.929 . S
H2273 C2282 0.930 . S
H2274 C2284 0.930 . S
H2275 C2287 0.929 . S
H2276 C2290 0.930 . S
H2277 C2292 0.960 . S
H2278 C2292 0.960 . S
H2279 C2292 0.960 . S
C2280 H2272 0.929 . S
C2280 C2281 1.377 . S
C2280 C2282 1.384 . S
C2281 C2280 1.377 . S
C2281 C2287 1.390 . S
C2282 H2273 0.930 . S
C2282 C2280 1.384 . S
C2282 C2283 1.372 . S
C2283 C2282 1.372 . S
C2283 C2284 1.400 . S
C2283 C2288 1.490 . S
C2284 H2274 0.930 . S
C2284 C2283 1.400 . S
C2284 C2287 1.386 . S
H2285 C2301 0.930 . S
H2286 C2302 0.931 . S
C2287 H2275 0.929 . S
C2287 C2281 1.390 . S
C2287 C2284 1.386 . S
C2288 C2283 1.490 . S
C2288 C2290 1.395 . S
C2288 C2291 1.403 1_556 S
H2289 C2295 0.930 . S
C2290 H2276 0.930 . S
C2290 C2288 1.395 . S
C2290 C2293 1.403 . S
C2291 C2288 1.403 1_554 S
C2291 C2292 1.524 . S
C2291 C2295 1.400 . S
C2292 H2277 0.960 . S
C2292 H2278 0.960 . S
C2292 H2279 0.960 . S
C2292 C2291 1.524 . S
C2293 C2290 1.403 . S
C2293 C2294 1.392 1_556 S
C2293 C2297 1.495 . S
C2294 C2293 1.392 1_554 S
C2294 C2295 1.385 . S
C2294 C2296 1.478 . S
C2295 H2289 0.930 . S
C2295 C2291 1.400 . S
C2295 C2294 1.385 . S
C2296 C2294 1.478 . S
C2296 C2298 1.381 . S
C2296 C2302 1.383 . S
C2297 C2293 1.495 . S
C2297 H2303 0.959 . S
C2297 H2304 0.961 . S
C2297 H2305 0.960 . S
C2298 C2296 1.381 . S
C2298 C2299 1.394 . S
C2298 H2306 0.930 . S
C2299 C2298 1.394 . S
C2299 C2300 1.383 . S
C2299 H2307 0.929 . S
C2300 C2299 1.383 . S
C2300 C2301 1.377 . S
C2301 H2285 0.930 . S
C2301 C2300 1.377 . S
C2301 C2302 1.379 . S
C2302 H2286 0.931 . S
C2302 C2296 1.383 . S
C2302 C2301 1.379 . S
H2303 C2297 0.959 . S
H2304 C2297 0.961 . S
H2305 C2297 0.960 . S
H2306 C2298 0.930 . S
H2307 C2299 0.929 . S
H2308 C2316 0.929 . S
H2309 C2318 0.930 . S
H2310 C2320 0.930 . S
H2311 C2323 0.929 . S
H2312 C2326 0.930 . S
H2313 C2328 0.960 . S
H2314 C2328 0.960 . S
H2315 C2328 0.960 . S
C2316 H2308 0.929 . S
C2316 C2317 1.377 . S
C2316 C2318 1.384 . S
C2317 C2316 1.377 . S
C2317 C2323 1.390 . S
C2318 H2309 0.930 . S
C2318 C2316 1.384 . S
C2318 C2319 1.372 . S
C2319 C2318 1.372 . S
C2319 C2320 1.400 . S
C2319 C2324 1.490 . S
C2320 H2310 0.930 . S
C2320 C2319 1.400 . S
C2320 C2323 1.386 . S
H2321 C2337 0.930 . S
H2322 C2338 0.931 . S
C2323 H2311 0.929 . S
C2323 C2317 1.390 . S
C2323 C2320 1.386 . S
C2324 C2319 1.490 . S
C2324 C2326 1.395 . S
C2324 C2327 1.403 . S
H2325 C2331 0.930 . S
C2326 H2312 0.930 . S
C2326 C2324 1.395 . S
C2326 C2329 1.403 . S
C2327 C2324 1.403 . S
C2327 C2328 1.524 . S
C2327 C2331 1.400 . S
C2328 H2313 0.960 . S
C2328 H2314 0.960 . S
C2328 H2315 0.960 . S
C2328 C2327 1.524 . S
C2329 C2326 1.403 . S
C2329 C2330 1.392 . S
C2329 C2333 1.495 . S
C2330 C2329 1.392 . S
C2330 C2331 1.385 . S
C2330 C2332 1.478 . S
C2331 H2325 0.930 . S
C2331 C2327 1.400 . S
C2331 C2330 1.385 . S
C2332 C2330 1.478 . S
C2332 C2334 1.381 . S
C2332 C2338 1.383 . S
C2333 C2329 1.495 . S
C2333 H2339 0.959 . S
C2333 H2340 0.961 . S
C2333 H2341 0.960 . S
C2334 C2332 1.381 . S
C2334 C2335 1.394 . S
C2334 H2342 0.930 . S
C2335 C2334 1.394 . S
C2335 C2336 1.383 . S
C2335 H2343 0.929 . S
C2336 C2335 1.383 . S
C2336 C2337 1.377 . S
C2337 H2321 0.930 . S
C2337 C2336 1.377 . S
C2337 C2338 1.379 . S
C2338 H2322 0.931 . S
C2338 C2332 1.383 . S
C2338 C2337 1.379 . S
H2339 C2333 0.959 . S
H2340 C2333 0.961 . S
H2341 C2333 0.960 . S
H2342 C2334 0.930 . S
H2343 C2335 0.929 . S
H2344 C2352 0.929 . S
H2345 C2354 0.930 . S
H2346 C2356 0.930 . S
H2347 C2359 0.929 . S
H2348 C2362 0.930 . S
H2349 C2364 0.960 . S
H2350 C2364 0.960 . S
H2351 C2364 0.960 . S
C2352 H2344 0.929 . S
C2352 C2353 1.377 . S
C2352 C2354 1.384 . S
C2353 C2352 1.377 . S
C2353 C2359 1.390 . S
C2354 H2345 0.930 . S
C2354 C2352 1.384 . S
C2354 C2355 1.372 . S
C2355 C2354 1.372 . S
C2355 C2356 1.400 . S
C2355 C2360 1.490 . S
C2356 H2346 0.930 . S
C2356 C2355 1.400 . S
C2356 C2359 1.386 . S
H2357 C2373 0.930 . S
H2358 C2374 0.931 . S
C2359 H2347 0.929 . S
C2359 C2353 1.390 . S
C2359 C2356 1.386 . S
C2360 C2355 1.490 . S
C2360 C2362 1.395 . S
C2360 C2363 1.403 . S
H2361 C2367 0.930 . S
C2362 H2348 0.930 . S
C2362 C2360 1.395 . S
C2362 C2365 1.403 . S
C2363 C2360 1.403 . S
C2363 C2364 1.524 . S
C2363 C2367 1.400 . S
C2364 H2349 0.960 . S
C2364 H2350 0.960 . S
C2364 H2351 0.960 . S
C2364 C2363 1.524 . S
C2365 C2362 1.403 . S
C2365 C2366 1.392 . S
C2365 C2369 1.495 . S
C2366 C2365 1.392 . S
C2366 C2367 1.385 . S
C2366 C2368 1.478 . S
C2367 H2361 0.930 . S
C2367 C2363 1.400 . S
C2367 C2366 1.385 . S
C2368 C2366 1.478 . S
C2368 C2370 1.381 . S
C2368 C2374 1.383 . S
C2369 C2365 1.495 . S
C2369 H2375 0.959 . S
C2369 H2376 0.961 . S
C2369 H2377 0.960 . S
C2370 C2368 1.381 . S
C2370 C2371 1.394 . S
C2370 H2378 0.930 . S
C2371 C2370 1.394 . S
C2371 C2372 1.383 . S
C2371 H2379 0.929 . S
C2372 C2371 1.383 . S
C2372 C2373 1.377 . S
C2373 H2357 0.930 . S
C2373 C2372 1.377 . S
C2373 C2374 1.379 . S
C2374 H2358 0.931 . S
C2374 C2368 1.383 . S
C2374 C2373 1.379 . S
H2375 C2369 0.959 . S
H2376 C2369 0.961 . S
H2377 C2369 0.960 . S
H2378 C2370 0.930 . S
H2379 C2371 0.929 . S
H2380 C2388 0.929 . S
H2381 C2390 0.930 . S
H2382 C2392 0.930 . S
H2383 C2395 0.929 . S
H2384 C2398 0.930 . S
H2385 C2400 0.960 . S
H2386 C2400 0.960 . S
H2387 C2400 0.960 . S
C2388 H2380 0.929 . S
C2388 C2389 1.377 . S
C2388 C2390 1.384 . S
C2389 C2388 1.377 . S
C2389 C2395 1.390 . S
C2390 H2381 0.930 . S
C2390 C2388 1.384 . S
C2390 C2391 1.372 . S
C2391 C2390 1.372 . S
C2391 C2392 1.400 . S
C2391 C2396 1.490 . S
C2392 H2382 0.930 . S
C2392 C2391 1.400 . S
C2392 C2395 1.386 . S
H2393 C2409 0.930 . S
H2394 C2410 0.931 . S
C2395 H2383 0.929 . S
C2395 C2389 1.390 . S
C2395 C2392 1.386 . S
C2396 C2391 1.490 . S
C2396 C2398 1.395 . S
C2396 C2399 1.403 . S
H2397 C2403 0.930 . S
C2398 H2384 0.930 . S
C2398 C2396 1.395 . S
C2398 C2401 1.403 . S
C2399 C2396 1.403 . S
C2399 C2400 1.524 . S
C2399 C2403 1.400 . S
C2400 H2385 0.960 . S
C2400 H2386 0.960 . S
C2400 H2387 0.960 . S
C2400 C2399 1.524 . S
C2401 C2398 1.403 . S
C2401 C2402 1.392 . S
C2401 C2405 1.495 . S
C2402 C2401 1.392 . S
C2402 C2403 1.385 . S
C2402 C2404 1.478 . S
C2403 H2397 0.930 . S
C2403 C2399 1.400 . S
C2403 C2402 1.385 . S
C2404 C2402 1.478 . S
C2404 C2406 1.380 . S
C2404 C2410 1.383 1_455 S
C2405 C2401 1.495 . S
C2405 H2411 0.959 . S
C2405 H2412 0.961 . S
C2405 H2413 0.960 . S
C2406 C2404 1.380 . S
C2406 C2407 1.397 1_455 S
C2406 H2414 0.928 . S
C2407 C2406 1.397 1_655 S
C2407 C2408 1.383 . S
C2407 H2415 0.929 . S
C2408 C2407 1.383 . S
C2408 C2409 1.377 . S
C2409 H2393 0.930 . S
C2409 C2408 1.377 . S
C2409 C2410 1.379 . S
C2410 H2394 0.931 . S
C2410 C2404 1.383 1_655 S
C2410 C2409 1.379 . S
H2411 C2405 0.959 . S
H2412 C2405 0.961 . S
H2413 C2405 0.960 . S
H2414 C2406 0.928 . S
H2415 C2407 0.929 . S
H2416 C2424 0.929 . S
H2417 C2426 0.930 . S
H2418 C2428 0.930 . S
H2419 C2431 0.929 . S
H2420 C2434 0.930 . S
H2421 C2436 0.960 . S
H2422 C2436 0.960 . S
H2423 C2436 0.960 . S
C2424 H2416 0.929 . S
C2424 C2425 1.377 . S
C2424 C2426 1.384 . S
C2425 C2424 1.377 . S
C2425 C2431 1.390 . S
C2426 H2417 0.930 . S
C2426 C2424 1.384 . S
C2426 C2427 1.372 . S
C2427 C2426 1.372 . S
C2427 C2428 1.400 . S
C2427 C2432 1.490 . S
C2428 H2418 0.930 . S
C2428 C2427 1.400 . S
C2428 C2431 1.386 . S
H2429 C2445 0.930 . S
H2430 C2446 0.931 1_655 S
C2431 H2419 0.929 . S
C2431 C2425 1.390 . S
C2431 C2428 1.386 . S
C2432 C2427 1.490 . S
C2432 C2434 1.395 . S
C2432 C2435 1.403 . S
H2433 C2439 0.930 . S
C2434 H2420 0.930 . S
C2434 C2432 1.395 . S
C2434 C2437 1.403 . S
C2435 C2432 1.403 . S
C2435 C2436 1.524 . S
C2435 C2439 1.400 . S
C2436 H2421 0.960 . S
C2436 H2422 0.960 . S
C2436 H2423 0.960 . S
C2436 C2435 1.524 . S
C2437 C2434 1.403 . S
C2437 C2438 1.392 . S
C2437 C2441 1.495 . S
C2438 C2437 1.392 . S
C2438 C2439 1.385 . S
C2438 C2440 1.478 1_655 S
C2439 H2433 0.930 . S
C2439 C2435 1.400 . S
C2439 C2438 1.385 . S
C2440 C2438 1.478 1_455 S
C2440 C2442 1.381 . S
C2440 C2446 1.383 . S
C2441 C2437 1.495 . S
C2441 H2447 0.959 . S
C2441 H2448 0.961 . S
C2441 H2449 0.960 1_655 S
C2442 C2440 1.381 . S
C2442 C2443 1.394 . S
C2442 H2450 0.930 . S
C2443 C2442 1.394 . S
C2443 C2444 1.383 . S
C2443 H2451 0.929 . S
C2444 C2443 1.383 . S
C2444 C2445 1.377 . S
C2445 H2429 0.930 . S
C2445 C2444 1.377 . S
C2445 C2446 1.379 . S
C2446 H2430 0.931 1_455 S
C2446 C2440 1.383 . S
C2446 C2445 1.379 . S
H2447 C2441 0.959 . S
H2448 C2441 0.961 . S
H2449 C2441 0.960 1_455 S
H2450 C2442 0.930 . S
H2451 C2443 0.929 . S
H2452 C2460 0.929 . S
H2453 C2462 0.930 . S
H2454 C2464 0.930 . S
H2455 C2467 0.929 . S
H2456 C2470 0.930 . S
H2457 C2472 0.960 . S
H2458 C2472 0.960 . S
H2459 C2472 0.960 . S
C2460 H2452 0.929 . S
C2460 C2461 1.377 . S
C2460 C2462 1.384 . S
C2461 C2460 1.377 . S
C2461 C2467 1.390 . S
C2462 H2453 0.930 . S
C2462 C2460 1.384 . S
C2462 C2463 1.372 . S
C2463 C2462 1.372 . S
C2463 C2464 1.400 . S
C2463 C2468 1.490 . S
C2464 H2454 0.930 . S
C2464 C2463 1.400 . S
C2464 C2467 1.386 . S
H2465 C2481 0.930 . S
H2466 C2482 0.931 . S
C2467 H2455 0.929 . S
C2467 C2461 1.390 . S
C2467 C2464 1.386 . S
C2468 C2463 1.490 . S
C2468 C2470 1.395 . S
C2468 C2471 1.403 . S
H2469 C2475 0.930 . S
C2470 H2456 0.930 . S
C2470 C2468 1.395 . S
C2470 C2473 1.403 . S
C2471 C2468 1.403 . S
C2471 C2472 1.524 . S
C2471 C2475 1.400 . S
C2472 H2457 0.960 . S
C2472 H2458 0.960 . S
C2472 H2459 0.960 . S
C2472 C2471 1.524 . S
C2473 C2470 1.403 . S
C2473 C2474 1.392 . S
C2473 C2477 1.495 . S
C2474 C2473 1.392 . S
C2474 C2475 1.385 . S
C2474 C2476 1.478 . S
C2475 H2469 0.930 . S
C2475 C2471 1.400 . S
C2475 C2474 1.385 . S
C2476 C2474 1.478 . S
C2476 C2478 1.381 . S
C2476 C2482 1.383 . S
C2477 C2473 1.495 . S
C2477 H2483 0.959 . S
C2477 H2484 0.961 . S
C2477 H2485 0.960 . S
C2478 C2476 1.381 . S
C2478 C2479 1.394 . S
C2478 H2486 0.930 . S
C2479 C2478 1.394 . S
C2479 C2480 1.383 . S
C2479 H2487 0.929 . S
C2480 C2479 1.383 . S
C2480 C2481 1.377 . S
C2481 H2465 0.930 . S
C2481 C2480 1.377 . S
C2481 C2482 1.379 . S
C2482 H2466 0.931 . S
C2482 C2476 1.383 . S
C2482 C2481 1.379 . S
H2483 C2477 0.959 . S
H2484 C2477 0.961 . S
H2485 C2477 0.960 . S
H2486 C2478 0.930 . S
H2487 C2479 0.929 . S
H2488 C2496 0.929 . S
H2489 C2498 0.930 . S
H2490 C2500 0.930 . S
H2491 C2503 0.929 . S
H2492 C2506 0.930 . S
H2493 C2508 0.960 . S
H2494 C2508 0.960 . S
H2495 C2508 0.960 . S
C2496 H2488 0.929 . S
C2496 C2497 1.377 . S
C2496 C2498 1.384 . S
C2497 C2496 1.377 . S
C2497 C2503 1.390 . S
C2498 H2489 0.930 . S
C2498 C2496 1.384 . S
C2498 C2499 1.372 . S
C2499 C2498 1.372 . S
C2499 C2500 1.400 . S
C2499 C2504 1.490 . S
C2500 H2490 0.930 . S
C2500 C2499 1.400 . S
C2500 C2503 1.386 . S
H2501 C2517 0.930 . S
H2502 C2518 0.931 . S
C2503 H2491 0.929 . S
C2503 C2497 1.390 . S
C2503 C2500 1.386 . S
C2504 C2499 1.490 . S
C2504 C2506 1.395 . S
C2504 C2507 1.403 . S
H2505 C2511 0.930 . S
C2506 H2492 0.930 . S
C2506 C2504 1.395 . S
C2506 C2509 1.403 . S
C2507 C2504 1.403 . S
C2507 C2508 1.524 . S
C2507 C2511 1.400 . S
C2508 H2493 0.960 . S
C2508 H2494 0.960 . S
C2508 H2495 0.960 . S
C2508 C2507 1.524 . S
C2509 C2506 1.403 . S
C2509 C2510 1.392 . S
C2509 C2513 1.495 . S
C2510 C2509 1.392 . S
C2510 C2511 1.385 . S
C2510 C2512 1.478 . S
C2511 H2505 0.930 . S
C2511 C2507 1.400 . S
C2511 C2510 1.385 . S
C2512 C2510 1.478 . S
C2512 C2514 1.381 . S
C2512 C2518 1.383 . S
C2513 C2509 1.495 . S
C2513 H2519 0.959 . S
C2513 H2520 0.961 . S
C2513 H2521 0.960 . S
C2514 C2512 1.381 . S
C2514 C2515 1.394 . S
C2514 H2522 0.930 . S
C2515 C2514 1.394 . S
C2515 C2516 1.383 . S
C2515 H2523 0.929 . S
C2516 C2515 1.383 . S
C2516 C2517 1.377 . S
C2517 H2501 0.930 . S
C2517 C2516 1.377 . S
C2517 C2518 1.379 . S
C2518 H2502 0.931 . S
C2518 C2512 1.383 . S
C2518 C2517 1.379 . S
H2519 C2513 0.959 . S
H2520 C2513 0.961 . S
H2521 C2513 0.960 . S
H2522 C2514 0.930 . S
H2523 C2515 0.929 . S
H2524 C2532 0.929 . S
H2525 C2534 0.930 . S
H2526 C2536 0.930 . S
H2527 C2539 0.929 . S
H2528 C2542 0.930 . S
H2529 C2544 0.960 . S
H2530 C2544 0.960 . S
H2531 C2544 0.960 . S
C2532 H2524 0.929 . S
C2532 C2533 1.377 . S
C2532 C2534 1.384 . S
C2533 C2532 1.377 . S
C2533 C2539 1.390 . S
C2534 H2525 0.930 . S
C2534 C2532 1.384 . S
C2534 C2535 1.372 . S
C2535 C2534 1.372 . S
C2535 C2536 1.400 . S
C2535 C2540 1.490 . S
C2536 H2526 0.930 . S
C2536 C2535 1.400 . S
C2536 C2539 1.386 . S
H2537 C2553 0.930 . S
H2538 C2554 0.931 . S
C2539 H2527 0.929 . S
C2539 C2533 1.390 . S
C2539 C2536 1.386 . S
C2540 C2535 1.490 . S
C2540 C2542 1.395 . S
C2540 C2543 1.403 . S
H2541 C2547 0.930 . S
C2542 H2528 0.930 . S
C2542 C2540 1.395 . S
C2542 C2545 1.403 . S
C2543 C2540 1.403 . S
C2543 C2544 1.524 . S
C2543 C2547 1.400 . S
C2544 H2529 0.960 . S
C2544 H2530 0.960 . S
C2544 H2531 0.960 . S
C2544 C2543 1.524 . S
C2545 C2542 1.403 . S
C2545 C2546 1.392 . S
C2545 C2549 1.495 . S
C2546 C2545 1.392 . S
C2546 C2547 1.385 . S
C2546 C2548 1.478 . S
C2547 H2541 0.930 . S
C2547 C2543 1.400 . S
C2547 C2546 1.385 . S
C2548 C2546 1.478 . S
C2548 C2550 1.381 . S
C2548 C2554 1.383 . S
C2549 C2545 1.495 . S
C2549 H2555 0.959 . S
C2549 H2556 0.961 . S
C2549 H2557 0.960 . S
C2550 C2548 1.381 . S
C2550 C2551 1.394 . S
C2550 H2558 0.930 . S
C2551 C2550 1.394 . S
C2551 C2552 1.383 . S
C2551 H2559 0.929 . S
C2552 C2551 1.383 . S
C2552 C2553 1.377 . S
C2553 H2537 0.930 . S
C2553 C2552 1.377 . S
C2553 C2554 1.379 . S
C2554 H2538 0.931 . S
C2554 C2548 1.383 . S
C2554 C2553 1.379 . S
H2555 C2549 0.959 . S
H2556 C2549 0.961 . S
H2557 C2549 0.960 . S
H2558 C2550 0.930 . S
H2559 C2551 0.929 . S
H2560 C2568 0.925 . S
H2561 C2570 0.930 . S
H2562 C2572 0.930 . S
H2563 C2575 0.929 . S
H2564 C2578 0.930 . S
H2565 C2580 0.960 . S
H2566 C2580 0.960 . S
H2567 C2580 0.960 . S
C2568 H2560 0.925 . S
C2568 C2569 1.377 . S
C2568 C2570 1.389 1_545 S
C2569 C2568 1.377 . S
C2569 C2575 1.390 1_545 S
C2570 H2561 0.930 . S
C2570 C2568 1.389 1_565 S
C2570 C2571 1.372 . S
C2571 C2570 1.372 . S
C2571 C2572 1.400 . S
C2571 C2576 1.490 . S
C2572 H2562 0.930 . S
C2572 C2571 1.400 . S
C2572 C2575 1.386 . S
H2573 C2589 0.930 . S
H2574 C2590 0.931 . S
C2575 H2563 0.929 . S
C2575 C2569 1.390 1_565 S
C2575 C2572 1.386 . S
C2576 C2571 1.490 . S
C2576 C2578 1.395 . S
C2576 C2579 1.403 . S
H2577 C2583 0.930 . S
C2578 H2564 0.930 . S
C2578 C2576 1.395 . S
C2578 C2581 1.403 . S
C2579 C2576 1.403 . S
C2579 C2580 1.524 . S
C2579 C2583 1.400 . S
C2580 H2565 0.960 . S
C2580 H2566 0.960 . S
C2580 H2567 0.960 . S
C2580 C2579 1.524 . S
C2581 C2578 1.403 . S
C2581 C2582 1.392 . S
C2581 C2585 1.495 . S
C2582 C2581 1.392 . S
C2582 C2583 1.385 . S
C2582 C2584 1.478 . S
C2583 H2577 0.930 . S
C2583 C2579 1.400 . S
C2583 C2582 1.385 . S
C2584 C2582 1.478 . S
C2584 C2586 1.381 . S
C2584 C2590 1.383 . S
C2585 C2581 1.495 . S
C2585 H2591 0.959 . S
C2585 H2592 0.961 . S
C2585 H2593 0.960 . S
C2586 C2584 1.381 . S
C2586 C2587 1.394 . S
C2586 H2594 0.930 . S
C2587 C2586 1.394 . S
C2587 C2588 1.383 . S
C2587 H2595 0.929 . S
C2588 C2587 1.383 . S
C2588 C2589 1.377 . S
C2589 H2573 0.930 . S
C2589 C2588 1.377 . S
C2589 C2590 1.379 . S
C2590 H2574 0.931 . S
C2590 C2584 1.383 . S
C2590 C2589 1.379 . S
H2591 C2585 0.959 . S
H2592 C2585 0.961 . S
H2593 C2585 0.960 . S
H2594 C2586 0.930 . S
H2595 C2587 0.929 . S
H2596 C2604 0.929 . S
H2597 C2606 0.930 . S
H2598 C2608 0.930 . S
H2599 C2611 0.929 . S
H2600 C2614 0.930 . S
H2601 C2616 0.960 . S
H2602 C2616 0.960 . S
H2603 C2616 0.960 . S
C2604 H2596 0.929 . S
C2604 C2605 1.377 . S
C2604 C2606 1.384 . S
C2605 C2604 1.377 . S
C2605 C2611 1.390 . S
C2606 H2597 0.930 . S
C2606 C2604 1.384 . S
C2606 C2607 1.372 . S
C2607 C2606 1.372 . S
C2607 C2608 1.400 . S
C2607 C2612 1.490 . S
C2608 H2598 0.930 . S
C2608 C2607 1.400 . S
C2608 C2611 1.386 . S
H2609 C2625 0.930 . S
H2610 C2626 0.931 . S
C2611 H2599 0.929 . S
C2611 C2605 1.390 . S
C2611 C2608 1.386 . S
C2612 C2607 1.490 . S
C2612 C2614 1.395 . S
C2612 C2615 1.403 . S
H2613 C2619 0.930 . S
C2614 H2600 0.930 . S
C2614 C2612 1.395 . S
C2614 C2617 1.403 . S
C2615 C2612 1.403 . S
C2615 C2616 1.524 . S
C2615 C2619 1.400 . S
C2616 H2601 0.960 . S
C2616 H2602 0.960 . S
C2616 H2603 0.960 . S
C2616 C2615 1.524 . S
C2617 C2614 1.403 . S
C2617 C2618 1.392 . S
C2617 C2621 1.495 . S
C2618 C2617 1.392 . S
C2618 C2619 1.385 . S
C2618 C2620 1.478 . S
C2619 H2613 0.930 . S
C2619 C2615 1.400 . S
C2619 C2618 1.385 . S
C2620 C2618 1.478 . S
C2620 C2622 1.381 . S
C2620 C2626 1.383 . S
C2621 C2617 1.495 . S
C2621 H2627 0.959 . S
C2621 H2628 0.961 . S
C2621 H2629 0.960 . S
C2622 C2620 1.381 . S
C2622 C2623 1.394 . S
C2622 H2630 0.930 . S
C2623 C2622 1.394 . S
C2623 C2624 1.383 . S
C2623 H2631 0.929 . S
C2624 C2623 1.383 . S
C2624 C2625 1.377 . S
C2625 H2609 0.930 . S
C2625 C2624 1.377 . S
C2625 C2626 1.379 . S
C2626 H2610 0.931 . S
C2626 C2620 1.383 . S
C2626 C2625 1.379 . S
H2627 C2621 0.959 . S
H2628 C2621 0.961 . S
H2629 C2621 0.960 . S
H2630 C2622 0.930 . S
H2631 C2623 0.929 . S
H2632 C2640 0.929 . S
H2633 C2642 0.930 . S
H2634 C2644 0.930 . S
H2635 C2647 0.929 . S
H2636 C2650 0.930 . S
H2637 C2652 0.960 . S
H2638 C2652 0.960 . S
H2639 C2652 0.960 . S
C2640 H2632 0.929 . S
C2640 C2641 1.377 . S
C2640 C2642 1.384 . S
C2641 C2640 1.377 . S
C2641 C2647 1.390 . S
C2642 H2633 0.930 . S
C2642 C2640 1.384 . S
C2642 C2643 1.372 . S
C2643 C2642 1.372 . S
C2643 C2644 1.400 . S
C2643 C2648 1.490 . S
C2644 H2634 0.930 . S
C2644 C2643 1.400 . S
C2644 C2647 1.386 . S
H2645 C2661 0.930 . S
H2646 C2662 0.931 . S
C2647 H2635 0.929 . S
C2647 C2641 1.390 . S
C2647 C2644 1.386 . S
C2648 C2643 1.490 . S
C2648 C2650 1.395 . S
C2648 C2651 1.403 . S
H2649 C2655 0.930 . S
C2650 H2636 0.930 . S
C2650 C2648 1.395 . S
C2650 C2653 1.403 . S
C2651 C2648 1.403 . S
C2651 C2652 1.524 . S
C2651 C2655 1.400 . S
C2652 H2637 0.960 . S
C2652 H2638 0.960 . S
C2652 H2639 0.960 . S
C2652 C2651 1.524 . S
C2653 C2650 1.403 . S
C2653 C2654 1.392 . S
C2653 C2657 1.495 . S
C2654 C2653 1.392 . S
C2654 C2655 1.385 . S
C2654 C2656 1.478 . S
C2655 H2649 0.930 . S
C2655 C2651 1.400 . S
C2655 C2654 1.385 . S
C2656 C2654 1.478 . S
C2656 C2658 1.381 . S
C2656 C2662 1.383 . S
C2657 C2653 1.495 . S
C2657 H2663 0.959 . S
C2657 H2664 0.961 . S
C2657 H2665 0.960 . S
C2658 C2656 1.381 . S
C2658 C2659 1.394 . S
C2658 H2666 0.930 . S
C2659 C2658 1.394 . S
C2659 C2660 1.383 . S
C2659 H2667 0.929 . S
C2660 C2659 1.383 . S
C2660 C2661 1.377 . S
C2661 H2645 0.930 . S
C2661 C2660 1.377 . S
C2661 C2662 1.379 . S
C2662 H2646 0.931 . S
C2662 C2656 1.383 . S
C2662 C2661 1.379 . S
H2663 C2657 0.959 . S
H2664 C2657 0.961 . S
H2665 C2657 0.960 . S
H2666 C2658 0.930 . S
H2667 C2659 0.929 . S
H2668 C2676 0.929 . S
H2669 C2678 0.930 . S
H2670 C2680 0.930 . S
H2671 C2683 0.929 . S
H2672 C2686 0.930 . S
H2673 C2688 0.960 . S
H2674 C2688 0.960 . S
H2675 C2688 0.960 . S
C2676 H2668 0.929 . S
C2676 C2677 1.377 . S
C2676 C2678 1.384 . S
C2677 C2676 1.377 . S
C2677 C2683 1.390 . S
C2678 H2669 0.930 . S
C2678 C2676 1.384 . S
C2678 C2679 1.372 . S
C2679 C2678 1.372 . S
C2679 C2680 1.400 . S
C2679 C2684 1.490 . S
C2680 H2670 0.930 . S
C2680 C2679 1.400 . S
C2680 C2683 1.386 . S
H2681 C2697 0.930 . S
H2682 C2698 0.931 . S
C2683 H2671 0.929 . S
C2683 C2677 1.390 . S
C2683 C2680 1.386 . S
C2684 C2679 1.490 . S
C2684 C2686 1.395 . S
C2684 C2687 1.403 . S
H2685 C2691 0.930 . S
C2686 H2672 0.930 . S
C2686 C2684 1.395 . S
C2686 C2689 1.403 . S
C2687 C2684 1.403 . S
C2687 C2688 1.524 . S
C2687 C2691 1.400 . S
C2688 H2673 0.960 . S
C2688 H2674 0.960 . S
C2688 H2675 0.960 . S
C2688 C2687 1.524 . S
C2689 C2686 1.403 . S
C2689 C2690 1.392 . S
C2689 C2693 1.495 . S
C2690 C2689 1.392 . S
C2690 C2691 1.385 . S
C2690 C2692 1.478 . S
C2691 H2685 0.930 . S
C2691 C2687 1.400 . S
C2691 C2690 1.385 . S
C2692 C2690 1.478 . S
C2692 C2694 1.381 . S
C2692 C2698 1.383 . S
C2693 C2689 1.495 . S
C2693 H2699 0.959 . S
C2693 H2700 0.961 . S
C2693 H2701 0.960 . S
C2694 C2692 1.381 . S
C2694 C2695 1.394 . S
C2694 H2702 0.930 . S
C2695 C2694 1.394 . S
C2695 C2696 1.383 . S
C2695 H2703 0.929 . S
C2696 C2695 1.383 . S
C2696 C2697 1.377 . S
C2697 H2681 0.930 . S
C2697 C2696 1.377 . S
C2697 C2698 1.379 . S
C2698 H2682 0.931 . S
C2698 C2692 1.383 . S
C2698 C2697 1.379 . S
H2699 C2693 0.959 . S
H2700 C2693 0.961 . S
H2701 C2693 0.960 . S
H2702 C2694 0.930 . S
H2703 C2695 0.929 . S
H2704 C2712 0.929 . S
H2705 C2714 0.930 . S
H2706 C2716 0.930 . S
H2707 C2719 0.929 . S
H2708 C2722 0.930 . S
H2709 C2724 0.960 . S
H2710 C2724 0.960 . S
H2711 C2724 0.960 . S
C2712 H2704 0.929 . S
C2712 C2713 1.377 1_565 S
C2712 C2714 1.384 . S
C2713 C2712 1.377 1_545 S
C2713 C2719 1.390 . S
C2714 H2705 0.930 . S
C2714 C2712 1.384 . S
C2714 C2715 1.372 . S
C2715 C2714 1.372 . S
C2715 C2716 1.400 . S
C2715 C2720 1.490 . S
C2716 H2706 0.930 . S
C2716 C2715 1.400 . S
C2716 C2719 1.386 1_565 S
H2717 C2733 0.930 1_455 S
H2718 C2734 0.931 . S
C2719 H2707 0.929 . S
C2719 C2713 1.390 . S
C2719 C2716 1.386 1_545 S
C2720 C2715 1.490 . S
C2720 C2722 1.395 . S
C2720 C2723 1.403 . S
H2721 C2727 0.930 . S
C2722 H2708 0.930 . S
C2722 C2720 1.395 . S
C2722 C2725 1.403 . S
C2723 C2720 1.403 . S
C2723 C2724 1.524 . S
C2723 C2727 1.400 . S
C2724 H2709 0.960 . S
C2724 H2710 0.960 . S
C2724 H2711 0.960 . S
C2724 C2723 1.524 . S
C2725 C2722 1.403 . S
C2725 C2726 1.392 . S
C2725 C2729 1.495 . S
C2726 C2725 1.392 . S
C2726 C2727 1.385 . S
C2726 C2728 1.478 . S
C2727 H2721 0.930 . S
C2727 C2723 1.400 . S
C2727 C2726 1.385 . S
C2728 C2726 1.478 . S
C2728 C2730 1.381 . S
C2728 C2734 1.383 . S
C2729 C2725 1.495 . S
C2729 H2735 0.959 . S
C2729 H2736 0.961 . S
C2729 H2737 0.960 . S
C2730 C2728 1.381 . S
C2730 C2731 1.394 . S
C2730 H2738 0.930 . S
C2731 C2730 1.394 . S
C2731 C2732 1.383 . S
C2731 H2739 0.929 . S
C2732 C2731 1.383 . S
C2732 C2733 1.377 . S
C2733 H2717 0.930 1_655 S
C2733 C2732 1.377 . S
C2733 C2734 1.379 . S
C2734 H2718 0.931 . S
C2734 C2728 1.383 . S
C2734 C2733 1.379 . S
H2735 C2729 0.959 . S
H2736 C2729 0.961 . S
H2737 C2729 0.960 . S
H2738 C2730 0.930 . S
H2739 C2731 0.929 . S
H2740 C2748 0.929 . S
H2741 C2750 0.930 . S
H2742 C2752 0.930 . S
H2743 C2755 0.929 . S
H2744 C2758 0.930 . S
H2745 C2760 0.960 . S
H2746 C2760 0.960 . S
H2747 C2760 0.960 . S
C2748 H2740 0.929 . S
C2748 C2749 1.377 . S
C2748 C2750 1.384 . S
C2749 C2748 1.377 . S
C2749 C2755 1.390 . S
C2750 H2741 0.930 . S
C2750 C2748 1.384 . S
C2750 C2751 1.372 . S
C2751 C2750 1.372 . S
C2751 C2752 1.400 . S
C2751 C2756 1.490 . S
C2752 H2742 0.930 . S
C2752 C2751 1.400 . S
C2752 C2755 1.386 . S
H2753 C2769 0.930 . S
H2754 C2770 0.931 . S
C2755 H2743 0.929 . S
C2755 C2749 1.390 . S
C2755 C2752 1.386 . S
C2756 C2751 1.490 . S
C2756 C2758 1.395 . S
C2756 C2759 1.403 . S
H2757 C2763 0.930 . S
C2758 H2744 0.930 . S
C2758 C2756 1.395 . S
C2758 C2761 1.403 . S
C2759 C2756 1.403 . S
C2759 C2760 1.524 . S
C2759 C2763 1.400 . S
C2760 H2745 0.960 . S
C2760 H2746 0.960 . S
C2760 H2747 0.960 . S
C2760 C2759 1.524 . S
C2761 C2758 1.403 . S
C2761 C2762 1.392 . S
C2761 C2765 1.495 . S
C2762 C2761 1.392 . S
C2762 C2763 1.385 . S
C2762 C2764 1.478 . S
C2763 H2757 0.930 . S
C2763 C2759 1.400 . S
C2763 C2762 1.385 . S
C2764 C2762 1.478 . S
C2764 C2766 1.381 . S
C2764 C2770 1.383 . S
C2765 C2761 1.495 . S
C2765 H2771 0.959 . S
C2765 H2772 0.961 . S
C2765 H2773 0.960 . S
C2766 C2764 1.381 . S
C2766 C2767 1.394 . S
C2766 H2774 0.930 . S
C2767 C2766 1.394 . S
C2767 C2768 1.383 . S
C2767 H2775 0.929 . S
C2768 C2767 1.383 . S
C2768 C2769 1.377 . S
C2769 H2753 0.930 . S
C2769 C2768 1.377 . S
C2769 C2770 1.379 . S
C2770 H2754 0.931 . S
C2770 C2764 1.383 . S
C2770 C2769 1.379 . S
H2771 C2765 0.959 . S
H2772 C2765 0.961 . S
H2773 C2765 0.960 . S
H2774 C2766 0.930 . S
H2775 C2767 0.929 . S
H2776 C2784 0.929 . S
H2777 C2786 0.930 . S
H2778 C2788 0.930 . S
H2779 C2791 0.929 . S
H2780 C2794 0.930 . S
H2781 C2796 0.960 . S
H2782 C2796 0.960 . S
H2783 C2796 0.960 . S
C2784 H2776 0.929 . S
C2784 C2785 1.377 . S
C2784 C2786 1.384 . S
C2785 C2784 1.377 . S
C2785 C2791 1.390 . S
C2786 H2777 0.930 . S
C2786 C2784 1.384 . S
C2786 C2787 1.372 . S
C2787 C2786 1.372 . S
C2787 C2788 1.400 . S
C2787 C2792 1.490 . S
C2788 H2778 0.930 . S
C2788 C2787 1.400 . S
C2788 C2791 1.386 . S
H2789 C2805 0.930 . S
H2790 C2806 0.931 . S
C2791 H2779 0.929 . S
C2791 C2785 1.390 . S
C2791 C2788 1.386 . S
C2792 C2787 1.490 . S
C2792 C2794 1.395 . S
C2792 C2795 1.403 . S
H2793 C2799 0.930 . S
C2794 H2780 0.930 . S
C2794 C2792 1.395 . S
C2794 C2797 1.403 . S
C2795 C2792 1.403 . S
C2795 C2796 1.524 . S
C2795 C2799 1.400 . S
C2796 H2781 0.960 . S
C2796 H2782 0.960 . S
C2796 H2783 0.960 . S
C2796 C2795 1.524 . S
C2797 C2794 1.403 . S
C2797 C2798 1.392 . S
C2797 C2801 1.495 . S
C2798 C2797 1.392 . S
C2798 C2799 1.385 . S
C2798 C2800 1.478 . S
C2799 H2793 0.930 . S
C2799 C2795 1.400 . S
C2799 C2798 1.385 . S
C2800 C2798 1.478 . S
C2800 C2802 1.381 . S
C2800 C2806 1.383 . S
C2801 C2797 1.495 . S
C2801 H2807 0.959 . S
C2801 H2808 0.961 . S
C2801 H2809 0.960 . S
C2802 C2800 1.381 . S
C2802 C2803 1.394 . S
C2802 H2810 0.930 . S
C2803 C2802 1.394 . S
C2803 C2804 1.383 . S
C2803 H2811 0.929 . S
C2804 C2803 1.383 . S
C2804 C2805 1.377 . S
C2805 H2789 0.930 . S
C2805 C2804 1.377 . S
C2805 C2806 1.379 . S
C2806 H2790 0.931 . S
C2806 C2800 1.383 . S
C2806 C2805 1.379 . S
H2807 C2801 0.959 . S
H2808 C2801 0.961 . S
H2809 C2801 0.960 . S
H2810 C2802 0.930 . S
H2811 C2803 0.929 . S
H2812 C2820 0.929 . S
H2813 C2822 0.930 . S
H2814 C2824 0.930 . S
H2815 C2827 0.929 . S
H2816 C2830 0.930 . S
H2817 C2832 0.960 . S
H2818 C2832 0.960 . S
H2819 C2832 0.960 . S
C2820 H2812 0.929 . S
C2820 C2821 1.377 . S
C2820 C2822 1.384 . S
C2821 C2820 1.377 . S
C2821 C2827 1.390 . S
C2822 H2813 0.930 . S
C2822 C2820 1.384 . S
C2822 C2823 1.372 . S
C2823 C2822 1.372 . S
C2823 C2824 1.400 . S
C2823 C2828 1.490 . S
C2824 H2814 0.930 . S
C2824 C2823 1.400 . S
C2824 C2827 1.386 . S
H2825 C2841 0.930 . S
H2826 C2842 0.931 . S
C2827 H2815 0.929 . S
C2827 C2821 1.390 . S
C2827 C2824 1.386 . S
C2828 C2823 1.490 . S
C2828 C2830 1.395 . S
C2828 C2831 1.403 . S
H2829 C2835 0.930 . S
C2830 H2816 0.930 . S
C2830 C2828 1.395 . S
C2830 C2833 1.403 . S
C2831 C2828 1.403 . S
C2831 C2832 1.524 . S
C2831 C2835 1.400 . S
C2832 H2817 0.960 . S
C2832 H2818 0.960 . S
C2832 H2819 0.960 . S
C2832 C2831 1.524 . S
C2833 C2830 1.403 . S
C2833 C2834 1.392 . S
C2833 C2837 1.495 . S
C2834 C2833 1.392 . S
C2834 C2835 1.385 . S
C2834 C2836 1.478 . S
C2835 H2829 0.930 . S
C2835 C2831 1.400 . S
C2835 C2834 1.385 . S
C2836 C2834 1.478 . S
C2836 C2838 1.381 . S
C2836 C2842 1.383 . S
C2837 C2833 1.495 . S
C2837 H2843 0.959 . S
C2837 H2844 0.961 . S
C2837 H2845 0.960 . S
C2838 C2836 1.381 . S
C2838 C2839 1.394 . S
C2838 H2846 0.930 . S
C2839 C2838 1.394 . S
C2839 C2840 1.383 . S
C2839 H2847 0.929 . S
C2840 C2839 1.383 . S
C2840 C2841 1.377 . S
C2841 H2825 0.930 . S
C2841 C2840 1.377 . S
C2841 C2842 1.379 . S
C2842 H2826 0.931 . S
C2842 C2836 1.383 . S
C2842 C2841 1.379 . S
H2843 C2837 0.959 . S
H2844 C2837 0.961 . S
H2845 C2837 0.960 . S
H2846 C2838 0.930 . S
H2847 C2839 0.929 . S
H2848 C2856 0.929 . S
H2849 C2858 0.930 . S
H2850 C2860 0.930 . S
H2851 C2863 0.929 . S
H2852 C2866 0.930 . S
H2853 C2868 0.960 . S
H2854 C2868 0.960 . S
H2855 C2868 0.960 . S
C2856 H2848 0.929 . S
C2856 C2857 1.377 . S
C2856 C2858 1.384 . S
C2857 C2856 1.377 . S
C2857 C2863 1.390 . S
C2858 H2849 0.930 . S
C2858 C2856 1.384 . S
C2858 C2859 1.372 . S
C2859 C2858 1.372 . S
C2859 C2860 1.400 . S
C2859 C2864 1.490 . S
C2860 H2850 0.930 . S
C2860 C2859 1.400 . S
C2860 C2863 1.386 . S
H2861 C2877 0.930 . S
H2862 C2878 0.931 . S
C2863 H2851 0.929 . S
C2863 C2857 1.390 . S
C2863 C2860 1.386 . S
C2864 C2859 1.490 . S
C2864 C2866 1.395 . S
C2864 C2867 1.403 . S
H2865 C2871 0.930 . S
C2866 H2852 0.930 . S
C2866 C2864 1.395 . S
C2866 C2869 1.403 . S
C2867 C2864 1.403 . S
C2867 C2868 1.524 . S
C2867 C2871 1.400 . S
C2868 H2853 0.960 . S
C2868 H2854 0.960 . S
C2868 H2855 0.960 . S
C2868 C2867 1.524 . S
C2869 C2866 1.403 . S
C2869 C2870 1.392 . S
C2869 C2873 1.495 . S
C2870 C2869 1.392 . S
C2870 C2871 1.385 . S
C2870 C2872 1.478 . S
C2871 H2865 0.930 . S
C2871 C2867 1.400 . S
C2871 C2870 1.385 . S
C2872 C2870 1.478 . S
C2872 C2874 1.381 . S
C2872 C2878 1.383 . S
C2873 C2869 1.495 . S
C2873 H2879 0.959 1_554 S
C2873 H2880 0.961 . S
C2873 H2881 0.960 1_554 S
C2874 C2872 1.381 . S
C2874 C2875 1.394 . S
C2874 H2882 0.930 1_554 S
C2875 C2874 1.394 . S
C2875 C2876 1.383 . S
C2875 H2883 0.929 1_554 S
C2876 C2875 1.383 . S
C2876 C2877 1.377 . S
C2877 H2861 0.930 . S
C2877 C2876 1.377 . S
C2877 C2878 1.379 . S
C2878 H2862 0.931 . S
C2878 C2872 1.383 . S
C2878 C2877 1.379 . S
H2879 C2873 0.959 1_556 S
H2880 C2873 0.961 . S
H2881 C2873 0.960 1_556 S
H2882 C2874 0.930 1_556 S
H2883 C2875 0.929 1_556 S
H2884 C2892 0.929 . S
H2885 C2894 0.930 . S
H2886 C2896 0.930 . S
H2887 C2899 0.929 . S
H2888 C2902 0.930 . S
H2889 C2904 0.960 . S
H2890 C2904 0.960 . S
H2891 C2904 0.960 . S
C2892 H2884 0.929 . S
C2892 C2893 1.377 . S
C2892 C2894 1.384 . S
C2893 C2892 1.377 . S
C2893 C2899 1.390 . S
C2894 H2885 0.930 . S
C2894 C2892 1.384 . S
C2894 C2895 1.372 . S
C2895 C2894 1.372 . S
C2895 C2896 1.400 . S
C2895 C2900 1.490 . S
C2896 H2886 0.930 . S
C2896 C2895 1.400 . S
C2896 C2899 1.386 . S
H2897 C2913 0.930 . S
H2898 C2914 0.931 . S
C2899 H2887 0.929 . S
C2899 C2893 1.390 . S
C2899 C2896 1.386 . S
C2900 C2895 1.490 . S
C2900 C2902 1.395 . S
C2900 C2903 1.403 . S
H2901 C2907 0.930 . S
C2902 H2888 0.930 . S
C2902 C2900 1.395 . S
C2902 C2905 1.403 . S
C2903 C2900 1.403 . S
C2903 C2904 1.524 . S
C2903 C2907 1.400 . S
C2904 H2889 0.960 . S
C2904 H2890 0.960 . S
C2904 H2891 0.960 . S
C2904 C2903 1.524 . S
C2905 C2902 1.403 . S
C2905 C2906 1.392 . S
C2905 C2909 1.495 . S
C2906 C2905 1.392 . S
C2906 C2907 1.385 . S
C2906 C2908 1.478 . S
C2907 H2901 0.930 . S
C2907 C2903 1.400 . S
C2907 C2906 1.385 . S
C2908 C2906 1.478 . S
C2908 C2910 1.381 . S
C2908 C2914 1.383 . S
C2909 C2905 1.495 . S
C2909 H2915 0.959 . S
C2909 H2916 0.961 . S
C2909 H2917 0.960 . S
C2910 C2908 1.381 . S
C2910 C2911 1.394 . S
C2910 H2918 0.930 . S
C2911 C2910 1.394 . S
C2911 C2912 1.383 . S
C2911 H2919 0.929 . S
C2912 C2911 1.383 . S
C2912 C2913 1.377 . S
C2913 H2897 0.930 . S
C2913 C2912 1.377 . S
C2913 C2914 1.379 . S
C2914 H2898 0.931 . S
C2914 C2908 1.383 . S
C2914 C2913 1.379 . S
H2915 C2909 0.959 . S
H2916 C2909 0.961 . S
H2917 C2909 0.960 . S
H2918 C2910 0.930 . S
H2919 C2911 0.929 . S
H2920 C2928 0.929 . S
H2921 C2930 0.930 . S
H2922 C2932 0.930 . S
H2923 C2935 0.929 1_655 S
H2924 C2938 0.930 . S
H2925 C2940 0.960 . S
H2926 C2940 0.960 . S
H2927 C2940 0.960 . S
C2928 H2920 0.929 . S
C2928 C2929 1.377 1_455 S
C2928 C2930 1.384 . S
C2929 C2928 1.377 1_655 S
C2929 C2935 1.390 1_655 S
C2930 H2921 0.930 . S
C2930 C2928 1.384 . S
C2930 C2931 1.372 . S
C2931 C2930 1.372 . S
C2931 C2932 1.400 . S
C2931 C2936 1.490 . S
C2932 H2922 0.930 . S
C2932 C2931 1.400 . S
C2932 C2935 1.386 . S
H2933 C2949 0.928 . S
H2934 C2950 0.931 . S
C2935 H2923 0.929 1_455 S
C2935 C2929 1.390 1_455 S
C2935 C2932 1.386 . S
C2936 C2931 1.490 . S
C2936 C2938 1.395 . S
C2936 C2939 1.403 . S
H2937 C2943 0.930 . S
C2938 H2924 0.930 . S
C2938 C2936 1.395 . S
C2938 C2941 1.403 . S
C2939 C2936 1.403 . S
C2939 C2940 1.524 . S
C2939 C2943 1.400 . S
C2940 H2925 0.960 . S
C2940 H2926 0.960 . S
C2940 H2927 0.960 . S
C2940 C2939 1.524 . S
C2941 C2938 1.403 . S
C2941 C2942 1.392 . S
C2941 C2945 1.495 . S
C2942 C2941 1.392 . S
C2942 C2943 1.385 . S
C2942 C2944 1.478 . S
C2943 H2937 0.930 . S
C2943 C2939 1.400 . S
C2943 C2942 1.385 . S
C2944 C2942 1.478 . S
C2944 C2946 1.381 . S
C2944 C2950 1.383 . S
C2945 C2941 1.495 . S
C2945 H2951 0.959 . S
C2945 H2952 0.961 . S
C2945 H2953 0.960 . S
C2946 C2944 1.381 . S
C2946 C2947 1.394 . S
C2946 H2954 0.930 . S
C2947 C2946 1.394 . S
C2947 C2948 1.383 . S
C2947 H2955 0.929 . S
C2948 C2947 1.383 . S
C2948 C2949 1.377 . S
C2949 H2933 0.928 . S
C2949 C2948 1.377 . S
C2949 C2950 1.379 . S
C2950 H2934 0.931 . S
C2950 C2944 1.383 . S
C2950 C2949 1.379 . S
H2951 C2945 0.959 . S
H2952 C2945 0.961 . S
H2953 C2945 0.960 . S
H2954 C2946 0.930 . S
H2955 C2947 0.929 . S
H2956 C2964 0.929 . S
H2957 C2966 0.930 . S
H2958 C2968 0.930 . S
H2959 C2971 0.929 . S
H2960 C2974 0.930 . S
H2961 C2976 0.960 . S
H2962 C2976 0.960 . S
H2963 C2976 0.960 . S
C2964 H2956 0.929 . S
C2964 C2965 1.377 . S
C2964 C2966 1.384 . S
C2965 C2964 1.377 . S
C2965 C2971 1.390 . S
C2966 H2957 0.930 . S
C2966 C2964 1.384 . S
C2966 C2967 1.372 . S
C2967 C2966 1.372 . S
C2967 C2968 1.400 . S
C2967 C2972 1.490 . S
C2968 H2958 0.930 . S
C2968 C2967 1.400 . S
C2968 C2971 1.386 . S
H2969 C2985 0.930 . S
H2970 C2986 0.931 . S
C2971 H2959 0.929 . S
C2971 C2965 1.390 . S
C2971 C2968 1.386 . S
C2972 C2967 1.490 . S
C2972 C2974 1.395 . S
C2972 C2975 1.403 . S
H2973 C2979 0.930 . S
C2974 H2960 0.930 . S
C2974 C2972 1.395 . S
C2974 C2977 1.403 . S
C2975 C2972 1.403 . S
C2975 C2976 1.524 . S
C2975 C2979 1.400 . S
C2976 H2961 0.960 . S
C2976 H2962 0.960 . S
C2976 H2963 0.960 . S
C2976 C2975 1.524 . S
C2977 C2974 1.403 . S
C2977 C2978 1.392 . S
C2977 C2981 1.495 . S
C2978 C2977 1.392 . S
C2978 C2979 1.385 . S
C2978 C2980 1.478 . S
C2979 H2973 0.930 . S
C2979 C2975 1.400 . S
C2979 C2978 1.385 . S
C2980 C2978 1.478 . S
C2980 C2982 1.381 . S
C2980 C2986 1.383 . S
C2981 C2977 1.495 . S
C2981 H2987 0.959 . S
C2981 H2988 0.961 . S
C2981 H2989 0.960 . S
C2982 C2980 1.381 . S
C2982 C2983 1.394 . S
C2982 H2990 0.930 . S
C2983 C2982 1.394 . S
C2983 C2984 1.383 . S
C2983 H2991 0.929 . S
C2984 C2983 1.383 . S
C2984 C2985 1.377 . S
C2985 H2969 0.930 . S
C2985 C2984 1.377 . S
C2985 C2986 1.379 . S
C2986 H2970 0.931 . S
C2986 C2980 1.383 . S
C2986 C2985 1.379 . S
H2987 C2981 0.959 . S
H2988 C2981 0.961 . S
H2989 C2981 0.960 . S
H2990 C2982 0.930 . S
H2991 C2983 0.929 . S
H2992 C3000 0.929 . S
H2993 C3002 0.930 . S
H2994 C3004 0.930 . S
H2995 C3007 0.929 1_455 S
H2996 C3010 0.930 . S
H2997 C3012 0.960 . S
H2998 C3012 0.960 . S
H2999 C3012 0.960 . S
C3000 H2992 0.929 . S
C3000 C3001 1.377 1_655 S
C3000 C3002 1.384 . S
C3001 C3000 1.377 1_455 S
C3001 C3007 1.390 1_455 S
C3002 H2993 0.930 . S
C3002 C3000 1.384 . S
C3002 C3003 1.372 . S
C3003 C3002 1.372 . S
C3003 C3004 1.400 . S
C3003 C3008 1.490 . S
C3004 H2994 0.930 . S
C3004 C3003 1.400 . S
C3004 C3007 1.386 . S
H3005 C3021 0.930 1_554 S
H3006 C3022 0.931 1_554 S
C3007 H2995 0.929 1_655 S
C3007 C3001 1.390 1_655 S
C3007 C3004 1.386 . S
C3008 C3003 1.490 . S
C3008 C3010 1.395 . S
C3008 C3011 1.403 . S
H3009 C3015 0.930 . S
C3010 H2996 0.930 . S
C3010 C3008 1.395 . S
C3010 C3013 1.403 . S
C3011 C3008 1.403 . S
C3011 C3012 1.524 . S
C3011 C3015 1.400 . S
C3012 H2997 0.960 . S
C3012 H2998 0.960 . S
C3012 H2999 0.960 . S
C3012 C3011 1.524 . S
C3013 C3010 1.403 . S
C3013 C3014 1.392 . S
C3013 C3017 1.495 . S
C3014 C3013 1.392 . S
C3014 C3015 1.385 . S
C3014 C3016 1.478 . S
C3015 H3009 0.930 . S
C3015 C3011 1.400 . S
C3015 C3014 1.385 . S
C3016 C3014 1.478 . S
C3016 C3018 1.381 . S
C3016 C3022 1.383 . S
C3017 C3013 1.495 . S
C3017 H3023 0.959 . S
C3017 H3024 0.961 . S
C3017 H3025 0.960 . S
C3018 C3016 1.381 . S
C3018 C3019 1.394 . S
C3018 H3026 0.930 . S
C3019 C3018 1.394 . S
C3019 C3020 1.383 . S
C3019 H3027 0.929 . S
C3020 C3019 1.383 . S
C3020 C3021 1.377 . S
C3021 H3005 0.930 1_556 S
C3021 C3020 1.377 . S
C3021 C3022 1.379 . S
C3022 H3006 0.931 1_556 S
C3022 C3016 1.383 . S
C3022 C3021 1.379 . S
H3023 C3017 0.959 . S
H3024 C3017 0.961 . S
H3025 C3017 0.960 . S
H3026 C3018 0.930 . S
H3027 C3019 0.929 . S
H3028 C3036 0.929 . S
H3029 C3038 0.930 . S
H3030 C3040 0.930 . S
H3031 C3043 0.929 . S
H3032 C3046 0.930 . S
H3033 C3048 0.960 . S
H3034 C3048 0.960 . S
H3035 C3048 0.960 . S
C3036 H3028 0.929 . S
C3036 C3037 1.377 . S
C3036 C3038 1.384 . S
C3037 C3036 1.377 . S
C3037 C3043 1.390 . S
C3038 H3029 0.930 . S
C3038 C3036 1.384 . S
C3038 C3039 1.372 . S
C3039 C3038 1.372 . S
C3039 C3040 1.400 . S
C3039 C3044 1.490 . S
C3040 H3030 0.930 . S
C3040 C3039 1.400 . S
C3040 C3043 1.386 . S
H3041 C3057 0.930 . S
H3042 C3058 0.931 . S
C3043 H3031 0.929 . S
C3043 C3037 1.390 . S
C3043 C3040 1.386 . S
C3044 C3039 1.490 . S
C3044 C3046 1.395 . S
C3044 C3047 1.403 . S
H3045 C3051 0.930 . S
C3046 H3032 0.930 . S
C3046 C3044 1.395 . S
C3046 C3049 1.403 . S
C3047 C3044 1.403 . S
C3047 C3048 1.524 . S
C3047 C3051 1.400 . S
C3048 H3033 0.960 . S
C3048 H3034 0.960 . S
C3048 H3035 0.960 . S
C3048 C3047 1.524 . S
C3049 C3046 1.403 . S
C3049 C3050 1.392 . S
C3049 C3053 1.495 . S
C3050 C3049 1.392 . S
C3050 C3051 1.385 . S
C3050 C3052 1.478 . S
C3051 H3045 0.930 . S
C3051 C3047 1.400 . S
C3051 C3050 1.385 . S
C3052 C3050 1.478 . S
C3052 C3054 1.381 . S
C3052 C3058 1.383 . S
C3053 C3049 1.495 . S
C3053 H3059 0.959 . S
C3053 H3060 0.961 . S
C3053 H3061 0.960 . S
C3054 C3052 1.381 . S
C3054 C3055 1.394 . S
C3054 H3062 0.930 . S
C3055 C3054 1.394 . S
C3055 C3056 1.383 . S
C3055 H3063 0.929 . S
C3056 C3055 1.383 . S
C3056 C3057 1.377 . S
C3057 H3041 0.930 . S
C3057 C3056 1.377 . S
C3057 C3058 1.379 . S
C3058 H3042 0.931 . S
C3058 C3052 1.383 . S
C3058 C3057 1.379 . S
H3059 C3053 0.959 . S
H3060 C3053 0.961 . S
H3061 C3053 0.960 . S
H3062 C3054 0.930 . S
H3063 C3055 0.929 . S
H3064 C3072 0.929 . S
H3065 C3074 0.930 . S
H3066 C3076 0.930 . S
H3067 C3079 0.929 . S
H3068 C3082 0.930 . S
H3069 C3084 0.960 . S
H3070 C3084 0.960 . S
H3071 C3084 0.960 . S
C3072 H3064 0.929 . S
C3072 C3073 1.377 . S
C3072 C3074 1.384 . S
C3073 C3072 1.377 . S
C3073 C3079 1.390 . S
C3074 H3065 0.930 . S
C3074 C3072 1.384 . S
C3074 C3075 1.372 . S
C3075 C3074 1.372 . S
C3075 C3076 1.400 . S
C3075 C3080 1.490 . S
C3076 H3066 0.930 . S
C3076 C3075 1.400 . S
C3076 C3079 1.386 . S
H3077 C3093 0.930 . S
H3078 C3094 0.931 . S
C3079 H3067 0.929 . S
C3079 C3073 1.390 . S
C3079 C3076 1.386 . S
C3080 C3075 1.490 . S
C3080 C3082 1.395 . S
C3080 C3083 1.403 . S
H3081 C3087 0.930 . S
C3082 H3068 0.930 . S
C3082 C3080 1.395 . S
C3082 C3085 1.403 . S
C3083 C3080 1.403 . S
C3083 C3084 1.524 . S
C3083 C3087 1.400 . S
C3084 H3069 0.960 . S
C3084 H3070 0.960 . S
C3084 H3071 0.960 . S
C3084 C3083 1.524 . S
C3085 C3082 1.403 . S
C3085 C3086 1.392 . S
C3085 C3089 1.495 . S
C3086 C3085 1.392 . S
C3086 C3087 1.385 . S
C3086 C3088 1.478 . S
C3087 H3081 0.930 . S
C3087 C3083 1.400 . S
C3087 C3086 1.385 . S
C3088 C3086 1.478 . S
C3088 C3090 1.381 . S
C3088 C3094 1.383 . S
C3089 C3085 1.495 . S
C3089 H3095 0.959 . S
C3089 H3096 0.961 . S
C3089 H3097 0.960 . S
C3090 C3088 1.381 . S
C3090 C3091 1.394 . S
C3090 H3098 0.930 . S
C3091 C3090 1.394 . S
C3091 C3092 1.383 . S
C3091 H3099 0.929 . S
C3092 C3091 1.383 . S
C3092 C3093 1.377 . S
C3093 H3077 0.930 . S
C3093 C3092 1.377 . S
C3093 C3094 1.379 . S
C3094 H3078 0.931 . S
C3094 C3088 1.383 . S
C3094 C3093 1.379 . S
H3095 C3089 0.959 . S
H3096 C3089 0.961 . S
H3097 C3089 0.960 . S
H3098 C3090 0.930 . S
H3099 C3091 0.929 . S
H3100 C3108 0.929 . S
H3101 C3110 0.930 . S
H3102 C3112 0.930 . S
H3103 C3115 0.929 . S
H3104 C3118 0.930 . S
H3105 C3120 0.960 . S
H3106 C3120 0.960 . S
H3107 C3120 0.960 . S
C3108 H3100 0.929 . S
C3108 C3109 1.377 . S
C3108 C3110 1.384 . S
C3109 C3108 1.377 . S
C3109 C3115 1.390 . S
C3110 H3101 0.930 . S
C3110 C3108 1.384 . S
C3110 C3111 1.372 . S
C3111 C3110 1.372 . S
C3111 C3112 1.400 . S
C3111 C3116 1.490 . S
C3112 H3102 0.930 . S
C3112 C3111 1.400 . S
C3112 C3115 1.386 . S
H3113 C3129 0.930 . S
H3114 C3130 0.931 . S
C3115 H3103 0.929 . S
C3115 C3109 1.390 . S
C3115 C3112 1.386 . S
C3116 C3111 1.490 . S
C3116 C3118 1.395 . S
C3116 C3119 1.403 . S
H3117 C3123 0.930 . S
C3118 H3104 0.930 . S
C3118 C3116 1.395 . S
C3118 C3121 1.403 . S
C3119 C3116 1.403 . S
C3119 C3120 1.524 . S
C3119 C3123 1.400 . S
C3120 H3105 0.960 . S
C3120 H3106 0.960 . S
C3120 H3107 0.960 . S
C3120 C3119 1.524 . S
C3121 C3118 1.403 . S
C3121 C3122 1.392 . S
C3121 C3125 1.495 . S
C3122 C3121 1.392 . S
C3122 C3123 1.385 . S
C3122 C3124 1.478 . S
C3123 H3117 0.930 . S
C3123 C3119 1.400 . S
C3123 C3122 1.385 . S
C3124 C3122 1.478 . S
C3124 C3126 1.381 . S
C3124 C3130 1.383 . S
C3125 C3121 1.495 . S
C3125 H3131 0.959 . S
C3125 H3132 0.961 . S
C3125 H3133 0.960 . S
C3126 C3124 1.381 . S
C3126 C3127 1.394 . S
C3126 H3134 0.930 . S
C3127 C3126 1.394 . S
C3127 C3128 1.383 . S
C3127 H3135 0.929 . S
C3128 C3127 1.383 . S
C3128 C3129 1.377 . S
C3129 H3113 0.930 . S
C3129 C3128 1.377 . S
C3129 C3130 1.379 . S
C3130 H3114 0.931 . S
C3130 C3124 1.383 . S
C3130 C3129 1.379 . S
H3131 C3125 0.959 . S
H3132 C3125 0.961 . S
H3133 C3125 0.960 . S
H3134 C3126 0.930 . S
H3135 C3127 0.929 . S
H3136 C3144 0.929 . S
H3137 C3146 0.930 . S
H3138 C3148 0.930 . S
H3139 C3151 0.929 . S
H3140 C3154 0.930 . S
H3141 C3156 0.960 . S
H3142 C3156 0.960 . S
H3143 C3156 0.960 . S
C3144 H3136 0.929 . S
C3144 C3145 1.377 . S
C3144 C3146 1.384 . S
C3145 C3144 1.377 . S
C3145 C3151 1.390 . S
C3146 H3137 0.930 . S
C3146 C3144 1.384 . S
C3146 C3147 1.372 . S
C3147 C3146 1.372 . S
C3147 C3148 1.400 . S
C3147 C3152 1.490 . S
C3148 H3138 0.930 . S
C3148 C3147 1.400 . S
C3148 C3151 1.386 . S
H3149 C3165 0.930 . S
H3150 C3166 0.931 . S
C3151 H3139 0.929 . S
C3151 C3145 1.390 . S
C3151 C3148 1.386 . S
C3152 C3147 1.490 . S
C3152 C3154 1.395 . S
C3152 C3155 1.403 . S
H3153 C3159 0.930 . S
C3154 H3140 0.930 . S
C3154 C3152 1.395 . S
C3154 C3157 1.403 . S
C3155 C3152 1.403 . S
C3155 C3156 1.524 . S
C3155 C3159 1.400 . S
C3156 H3141 0.960 . S
C3156 H3142 0.960 . S
C3156 H3143 0.960 . S
C3156 C3155 1.524 . S
C3157 C3154 1.403 . S
C3157 C3158 1.392 . S
C3157 C3161 1.495 . S
C3158 C3157 1.392 . S
C3158 C3159 1.385 . S
C3158 C3160 1.478 . S
C3159 H3153 0.930 . S
C3159 C3155 1.400 . S
C3159 C3158 1.385 . S
C3160 C3158 1.478 . S
C3160 C3162 1.381 . S
C3160 C3166 1.383 . S
C3161 C3157 1.495 . S
C3161 H3167 0.959 . S
C3161 H3168 0.961 . S
C3161 H3169 0.960 . S
C3162 C3160 1.381 . S
C3162 C3163 1.394 . S
C3162 H3170 0.930 . S
C3163 C3162 1.394 . S
C3163 C3164 1.383 . S
C3163 H3171 0.929 . S
C3164 C3163 1.383 . S
C3164 C3165 1.377 . S
C3165 H3149 0.930 . S
C3165 C3164 1.377 . S
C3165 C3166 1.379 . S
C3166 H3150 0.931 . S
C3166 C3160 1.383 . S
C3166 C3165 1.379 . S
H3167 C3161 0.959 . S
H3168 C3161 0.961 . S
H3169 C3161 0.960 . S
H3170 C3162 0.930 . S
H3171 C3163 0.929 . S
H3172 C3180 0.929 . S
H3173 C3182 0.930 . S
H3174 C3184 0.930 . S
H3175 C3187 0.929 . S
H3176 C3190 0.930 . S
H3177 C3192 0.960 . S
H3178 C3192 0.960 . S
H3179 C3192 0.960 . S
C3180 H3172 0.929 . S
C3180 C3181 1.377 . S
C3180 C3182 1.384 . S
C3181 C3180 1.377 . S
C3181 C3187 1.390 . S
C3182 H3173 0.930 . S
C3182 C3180 1.384 . S
C3182 C3183 1.372 . S
C3183 C3182 1.372 . S
C3183 C3184 1.400 . S
C3183 C3188 1.490 . S
C3184 H3174 0.930 . S
C3184 C3183 1.400 . S
C3184 C3187 1.386 . S
H3185 C3201 0.930 . S
H3186 C3202 0.931 . S
C3187 H3175 0.929 . S
C3187 C3181 1.390 . S
C3187 C3184 1.386 . S
C3188 C3183 1.490 . S
C3188 C3190 1.395 . S
C3188 C3191 1.403 . S
H3189 C3195 0.930 . S
C3190 H3176 0.930 . S
C3190 C3188 1.395 . S
C3190 C3193 1.403 . S
C3191 C3188 1.403 . S
C3191 C3192 1.524 . S
C3191 C3195 1.400 . S
C3192 H3177 0.960 . S
C3192 H3178 0.960 . S
C3192 H3179 0.960 . S
C3192 C3191 1.524 . S
C3193 C3190 1.403 . S
C3193 C3194 1.392 . S
C3193 C3197 1.495 . S
C3194 C3193 1.392 . S
C3194 C3195 1.385 . S
C3194 C3196 1.478 . S
C3195 H3189 0.930 . S
C3195 C3191 1.400 . S
C3195 C3194 1.385 . S
C3196 C3194 1.478 . S
C3196 C3198 1.381 . S
C3196 C3202 1.383 . S
C3197 C3193 1.495 . S
C3197 H3203 0.959 . S
C3197 H3204 0.961 . S
C3197 H3205 0.960 . S
C3198 C3196 1.381 . S
C3198 C3199 1.394 . S
C3198 H3206 0.930 . S
C3199 C3198 1.394 . S
C3199 C3200 1.383 . S
C3199 H3207 0.929 . S
C3200 C3199 1.383 . S
C3200 C3201 1.377 . S
C3201 H3185 0.930 . S
C3201 C3200 1.377 . S
C3201 C3202 1.379 . S
C3202 H3186 0.931 . S
C3202 C3196 1.383 . S
C3202 C3201 1.379 . S
H3203 C3197 0.959 . S
H3204 C3197 0.961 . S
H3205 C3197 0.960 . S
H3206 C3198 0.930 . S
H3207 C3199 0.929 . S
H3208 C3216 0.929 . S
H3209 C3218 0.930 . S
H3210 C3220 0.930 . S
H3211 C3223 0.929 . S
H3212 C3226 0.930 . S
H3213 C3228 0.960 . S
H3214 C3228 0.960 . S
H3215 C3228 0.960 . S
C3216 H3208 0.929 . S
C3216 C3217 1.377 . S
C3216 C3218 1.384 . S
C3217 C3216 1.377 . S
C3217 C3223 1.390 . S
C3218 H3209 0.930 . S
C3218 C3216 1.384 . S
C3218 C3219 1.372 . S
C3219 C3218 1.372 . S
C3219 C3220 1.400 . S
C3219 C3224 1.490 . S
C3220 H3210 0.930 . S
C3220 C3219 1.400 . S
C3220 C3223 1.386 . S
H3221 C3237 0.930 . S
H3222 C3238 0.931 . S
C3223 H3211 0.929 . S
C3223 C3217 1.390 . S
C3223 C3220 1.386 . S
C3224 C3219 1.490 . S
C3224 C3226 1.395 . S
C3224 C3227 1.403 . S
H3225 C3231 0.930 . S
C3226 H3212 0.930 . S
C3226 C3224 1.395 . S
C3226 C3229 1.403 . S
C3227 C3224 1.403 . S
C3227 C3228 1.524 . S
C3227 C3231 1.400 . S
C3228 H3213 0.960 . S
C3228 H3214 0.960 . S
C3228 H3215 0.960 . S
C3228 C3227 1.524 . S
C3229 C3226 1.403 . S
C3229 C3230 1.392 . S
C3229 C3233 1.495 . S
C3230 C3229 1.392 . S
C3230 C3231 1.385 . S
C3230 C3232 1.478 . S
C3231 H3225 0.930 . S
C3231 C3227 1.400 . S
C3231 C3230 1.385 . S
C3232 C3230 1.478 . S
C3232 C3234 1.381 . S
C3232 C3238 1.383 . S
C3233 C3229 1.495 . S
C3233 H3239 0.959 . S
C3233 H3240 0.961 . S
C3233 H3241 0.960 . S
C3234 C3232 1.381 . S
C3234 C3235 1.394 . S
C3234 H3242 0.930 . S
C3235 C3234 1.394 . S
C3235 C3236 1.383 . S
C3235 H3243 0.929 . S
C3236 C3235 1.383 . S
C3236 C3237 1.377 . S
C3237 H3221 0.930 . S
C3237 C3236 1.377 . S
C3237 C3238 1.379 . S
C3238 H3222 0.931 . S
C3238 C3232 1.383 . S
C3238 C3237 1.379 . S
H3239 C3233 0.959 . S
H3240 C3233 0.961 . S
H3241 C3233 0.960 . S
H3242 C3234 0.930 . S
H3243 C3235 0.929 . S
H3244 C3252 0.929 . S
H3245 C3254 0.930 . S
H3246 C3256 0.930 . S
H3247 C3259 0.929 . S
H3248 C3262 0.930 . S
H3249 C3264 0.960 . S
H3250 C3264 0.960 . S
H3251 C3264 0.960 . S
C3252 H3244 0.929 . S
C3252 C3253 1.377 . S
C3252 C3254 1.384 . S
C3253 C3252 1.377 . S
C3253 C3259 1.390 . S
C3254 H3245 0.930 . S
C3254 C3252 1.384 . S
C3254 C3255 1.372 . S
C3255 C3254 1.372 . S
C3255 C3256 1.400 . S
C3255 C3260 1.490 . S
C3256 H3246 0.930 . S
C3256 C3255 1.400 . S
C3256 C3259 1.386 . S
H3257 C3273 0.930 . S
H3258 C3274 0.931 . S
C3259 H3247 0.929 . S
C3259 C3253 1.390 . S
C3259 C3256 1.386 . S
C3260 C3255 1.490 . S
C3260 C3262 1.395 . S
C3260 C3263 1.403 . S
H3261 C3267 0.930 . S
C3262 H3248 0.930 . S
C3262 C3260 1.395 . S
C3262 C3265 1.403 . S
C3263 C3260 1.403 . S
C3263 C3264 1.524 . S
C3263 C3267 1.400 . S
C3264 H3249 0.960 . S
C3264 H3250 0.960 . S
C3264 H3251 0.960 . S
C3264 C3263 1.524 . S
C3265 C3262 1.403 . S
C3265 C3266 1.392 . S
C3265 C3269 1.495 . S
C3266 C3265 1.392 . S
C3266 C3267 1.385 . S
C3266 C3268 1.478 . S
C3267 H3261 0.930 . S
C3267 C3263 1.400 . S
C3267 C3266 1.385 . S
C3268 C3266 1.478 . S
C3268 C3270 1.381 . S
C3268 C3274 1.383 . S
C3269 C3265 1.495 . S
C3269 H3275 0.959 . S
C3269 H3276 0.961 . S
C3269 H3277 0.960 . S
C3270 C3268 1.381 . S
C3270 C3271 1.394 . S
C3270 H3278 0.930 . S
C3271 C3270 1.394 . S
C3271 C3272 1.383 . S
C3271 H3279 0.929 . S
C3272 C3271 1.383 . S
C3272 C3273 1.377 . S
C3273 H3257 0.930 . S
C3273 C3272 1.377 . S
C3273 C3274 1.379 . S
C3274 H3258 0.931 . S
C3274 C3268 1.383 . S
C3274 C3273 1.379 . S
H3275 C3269 0.959 . S
H3276 C3269 0.961 . S
H3277 C3269 0.960 . S
H3278 C3270 0.930 . S
H3279 C3271 0.929 . S
H3280 C3288 0.929 . S
H3281 C3290 0.930 . S
H3282 C3292 0.930 . S
H3283 C3295 0.929 . S
H3284 C3298 0.930 . S
H3285 C3300 0.960 . S
H3286 C3300 0.960 . S
H3287 C3300 0.960 . S
C3288 H3280 0.929 . S
C3288 C3289 1.377 . S
C3288 C3290 1.384 . S
C3289 C3288 1.377 . S
C3289 C3295 1.390 . S
C3290 H3281 0.930 . S
C3290 C3288 1.384 . S
C3290 C3291 1.372 . S
C3291 C3290 1.372 . S
C3291 C3292 1.400 . S
C3291 C3296 1.490 . S
C3292 H3282 0.930 . S
C3292 C3291 1.400 . S
C3292 C3295 1.386 . S
H3293 C3309 0.930 1_565 S
H3294 C3310 0.931 . S
C3295 H3283 0.929 . S
C3295 C3289 1.390 . S
C3295 C3292 1.386 . S
C3296 C3291 1.490 . S
C3296 C3298 1.395 . S
C3296 C3299 1.403 . S
H3297 C3303 0.930 . S
C3298 H3284 0.930 . S
C3298 C3296 1.395 . S
C3298 C3301 1.403 . S
C3299 C3296 1.403 . S
C3299 C3300 1.524 . S
C3299 C3303 1.400 . S
C3300 H3285 0.960 . S
C3300 H3286 0.960 . S
C3300 H3287 0.960 . S
C3300 C3299 1.524 . S
C3301 C3298 1.403 . S
C3301 C3302 1.392 . S
C3301 C3305 1.495 . S
C3302 C3301 1.392 . S
C3302 C3303 1.385 . S
C3302 C3304 1.478 . S
C3303 H3297 0.930 . S
C3303 C3299 1.400 . S
C3303 C3302 1.385 . S
C3304 C3302 1.478 . S
C3304 C3306 1.381 . S
C3304 C3310 1.383 . S
C3305 C3301 1.495 . S
C3305 H3311 0.959 . S
C3305 H3312 0.961 . S
C3305 H3313 0.960 . S
C3306 C3304 1.381 . S
C3306 C3307 1.394 . S
C3306 H3314 0.930 . S
C3307 C3306 1.394 . S
C3307 C3308 1.383 . S
C3307 H3315 0.929 . S
C3308 C3307 1.383 . S
C3308 C3309 1.377 . S
C3309 H3293 0.930 1_545 S
C3309 C3308 1.377 . S
C3309 C3310 1.379 . S
C3310 H3294 0.931 . S
C3310 C3304 1.383 . S
C3310 C3309 1.379 . S
H3311 C3305 0.959 . S
H3312 C3305 0.961 . S
H3313 C3305 0.960 . S
H3314 C3306 0.930 . S
H3315 C3307 0.929 . S
H3316 C3324 0.929 . S
H3317 C3326 0.930 . S
H3318 C3328 0.930 . S
H3319 C3331 0.929 . S
H3320 C3334 0.930 . S
H3321 C3336 0.960 . S
H3322 C3336 0.960 . S
H3323 C3336 0.960 . S
C3324 H3316 0.929 . S
C3324 C3325 1.377 . S
C3324 C3326 1.384 . S
C3325 C3324 1.377 . S
C3325 C3331 1.390 . S
C3326 H3317 0.930 . S
C3326 C3324 1.384 . S
C3326 C3327 1.372 . S
C3327 C3326 1.372 . S
C3327 C3328 1.400 . S
C3327 C3332 1.490 . S
C3328 H3318 0.930 . S
C3328 C3327 1.400 . S
C3328 C3331 1.386 . S
H3329 C3345 0.930 . S
H3330 C3346 0.931 . S
C3331 H3319 0.929 . S
C3331 C3325 1.390 . S
C3331 C3328 1.386 . S
C3332 C3327 1.490 . S
C3332 C3334 1.395 . S
C3332 C3335 1.403 . S
H3333 C3339 0.930 . S
C3334 H3320 0.930 . S
C3334 C3332 1.395 . S
C3334 C3337 1.403 . S
C3335 C3332 1.403 . S
C3335 C3336 1.524 . S
C3335 C3339 1.400 . S
C3336 H3321 0.960 . S
C3336 H3322 0.960 . S
C3336 H3323 0.960 . S
C3336 C3335 1.524 . S
C3337 C3334 1.403 . S
C3337 C3338 1.392 . S
C3337 C3341 1.495 . S
C3338 C3337 1.392 . S
C3338 C3339 1.385 . S
C3338 C3340 1.478 . S
C3339 H3333 0.930 . S
C3339 C3335 1.400 . S
C3339 C3338 1.385 . S
C3340 C3338 1.478 . S
C3340 C3342 1.381 . S
C3340 C3346 1.383 . S
C3341 C3337 1.495 . S
C3341 H3347 0.959 . S
C3341 H3348 0.961 . S
C3341 H3349 0.960 . S
C3342 C3340 1.381 . S
C3342 C3343 1.394 . S
C3342 H3350 0.930 . S
C3343 C3342 1.394 . S
C3343 C3344 1.383 . S
C3343 H3351 0.929 . S
C3344 C3343 1.383 . S
C3344 C3345 1.377 . S
C3345 H3329 0.930 . S
C3345 C3344 1.377 . S
C3345 C3346 1.379 . S
C3346 H3330 0.931 . S
C3346 C3340 1.383 . S
C3346 C3345 1.379 . S
H3347 C3341 0.959 . S
H3348 C3341 0.961 . S
H3349 C3341 0.960 . S
H3350 C3342 0.930 . S
H3351 C3343 0.929 . S
H3352 C3360 0.929 1_565 S
H3353 C3362 0.930 . S
H3354 C3364 0.930 . S
H3355 C3367 0.929 . S
H3356 C3370 0.930 . S
H3357 C3372 0.960 . S
H3358 C3372 0.960 . S
H3359 C3372 0.960 . S
C3360 H3352 0.929 1_545 S
C3360 C3361 1.377 1_545 S
C3360 C3362 1.384 . S
C3361 C3360 1.377 1_565 S
C3361 C3367 1.390 1_565 S
C3362 H3353 0.930 . S
C3362 C3360 1.384 . S
C3362 C3363 1.372 . S
C3363 C3362 1.372 . S
C3363 C3364 1.400 . S
C3363 C3368 1.490 . S
C3364 H3354 0.930 . S
C3364 C3363 1.400 . S
C3364 C3367 1.386 . S
H3365 C3381 0.930 . S
H3366 C3382 0.931 . S
C3367 H3355 0.929 . S
C3367 C3361 1.390 1_545 S
C3367 C3364 1.386 . S
C3368 C3363 1.490 . S
C3368 C3370 1.395 . S
C3368 C3371 1.403 . S
H3369 C3375 0.930 . S
C3370 H3356 0.930 . S
C3370 C3368 1.395 . S
C3370 C3373 1.403 . S
C3371 C3368 1.403 . S
C3371 C3372 1.524 . S
C3371 C3375 1.400 . S
C3372 H3357 0.960 . S
C3372 H3358 0.960 . S
C3372 H3359 0.960 . S
C3372 C3371 1.524 . S
C3373 C3370 1.403 . S
C3373 C3374 1.392 . S
C3373 C3377 1.495 . S
C3374 C3373 1.392 . S
C3374 C3375 1.385 . S
C3374 C3376 1.478 . S
C3375 H3369 0.930 . S
C3375 C3371 1.400 . S
C3375 C3374 1.385 . S
C3376 C3374 1.478 . S
C3376 C3378 1.381 . S
C3376 C3382 1.383 . S
C3377 C3373 1.495 . S
C3377 H3383 0.959 . S
C3377 H3384 0.961 . S
C3377 H3385 0.960 . S
C3378 C3376 1.381 . S
C3378 C3379 1.394 . S
C3378 H3386 0.930 . S
C3379 C3378 1.394 . S
C3379 C3380 1.383 . S
C3379 H3387 0.929 . S
C3380 C3379 1.383 . S
C3380 C3381 1.377 . S
C3381 H3365 0.930 . S
C3381 C3380 1.377 . S
C3381 C3382 1.379 . S
C3382 H3366 0.931 . S
C3382 C3376 1.383 . S
C3382 C3381 1.379 . S
H3383 C3377 0.959 . S
H3384 C3377 0.961 . S
H3385 C3377 0.960 . S
H3386 C3378 0.930 . S
H3387 C3379 0.929 . S
H3388 C3396 0.929 . S
H3389 C3398 0.930 . S
H3390 C3400 0.930 . S
H3391 C3403 0.929 . S
H3392 C3406 0.930 . S
H3393 C3408 0.960 . S
H3394 C3408 0.960 . S
H3395 C3408 0.960 . S
C3396 H3388 0.929 . S
C3396 C3397 1.377 . S
C3396 C3398 1.384 . S
C3397 C3396 1.377 . S
C3397 C3403 1.390 . S
C3398 H3389 0.930 . S
C3398 C3396 1.384 . S
C3398 C3399 1.372 . S
C3399 C3398 1.372 . S
C3399 C3400 1.400 . S
C3399 C3404 1.490 . S
C3400 H3390 0.930 . S
C3400 C3399 1.400 . S
C3400 C3403 1.386 . S
H3401 C3417 0.930 . S
H3402 C3418 0.931 . S
C3403 H3391 0.929 . S
C3403 C3397 1.390 . S
C3403 C3400 1.386 . S
C3404 C3399 1.490 . S
C3404 C3406 1.395 . S
C3404 C3407 1.403 . S
H3405 C3411 0.930 . S
C3406 H3392 0.930 . S
C3406 C3404 1.395 . S
C3406 C3409 1.403 . S
C3407 C3404 1.403 . S
C3407 C3408 1.524 . S
C3407 C3411 1.400 . S
C3408 H3393 0.960 . S
C3408 H3394 0.960 . S
C3408 H3395 0.960 . S
C3408 C3407 1.524 . S
C3409 C3406 1.403 . S
C3409 C3410 1.392 . S
C3409 C3413 1.495 . S
C3410 C3409 1.392 . S
C3410 C3411 1.385 . S
C3410 C3412 1.478 . S
C3411 H3405 0.930 . S
C3411 C3407 1.400 . S
C3411 C3410 1.385 . S
C3412 C3410 1.478 . S
C3412 C3414 1.381 . S
C3412 C3418 1.383 . S
C3413 C3409 1.495 . S
C3413 H3419 0.959 . S
C3413 H3420 0.961 . S
C3413 H3421 0.960 . S
C3414 C3412 1.381 . S
C3414 C3415 1.394 . S
C3414 H3422 0.930 . S
C3415 C3414 1.394 . S
C3415 C3416 1.383 . S
C3415 H3423 0.929 . S
C3416 C3415 1.383 . S
C3416 C3417 1.377 . S
C3417 H3401 0.930 . S
C3417 C3416 1.377 . S
C3417 C3418 1.379 . S
C3418 H3402 0.931 . S
C3418 C3412 1.383 . S
C3418 C3417 1.379 . S
H3419 C3413 0.959 . S
H3420 C3413 0.961 . S
H3421 C3413 0.960 . S
H3422 C3414 0.930 . S
H3423 C3415 0.929 . S
H3424 C3432 0.929 . S
H3425 C3434 0.930 . S
H3426 C3436 0.930 . S
H3427 C3439 0.929 . S
H3428 C3442 0.930 . S
H3429 C3444 0.960 . S
H3430 C3444 0.960 . S
H3431 C3444 0.960 . S
C3432 H3424 0.929 . S
C3432 C3433 1.377 . S
C3432 C3434 1.384 . S
C3433 C3432 1.377 . S
C3433 C3439 1.390 . S
C3434 H3425 0.930 . S
C3434 C3432 1.384 . S
C3434 C3435 1.372 . S
C3435 C3434 1.372 . S
C3435 C3436 1.400 . S
C3435 C3440 1.490 . S
C3436 H3426 0.930 . S
C3436 C3435 1.400 . S
C3436 C3439 1.386 . S
H3437 C3453 0.930 1_655 S
H3438 C3454 0.931 . S
C3439 H3427 0.929 . S
C3439 C3433 1.390 . S
C3439 C3436 1.386 . S
C3440 C3435 1.490 . S
C3440 C3442 1.395 . S
C3440 C3443 1.403 . S
H3441 C3447 0.930 . S
C3442 H3428 0.930 . S
C3442 C3440 1.395 . S
C3442 C3445 1.403 . S
C3443 C3440 1.403 . S
C3443 C3444 1.524 . S
C3443 C3447 1.400 . S
C3444 H3429 0.960 . S
C3444 H3430 0.960 . S
C3444 H3431 0.960 . S
C3444 C3443 1.524 . S
C3445 C3442 1.403 . S
C3445 C3446 1.392 . S
C3445 C3449 1.495 . S
C3446 C3445 1.392 . S
C3446 C3447 1.385 . S
C3446 C3448 1.478 . S
C3447 H3441 0.930 . S
C3447 C3443 1.400 . S
C3447 C3446 1.385 . S
C3448 C3446 1.478 . S
C3448 C3450 1.381 . S
C3448 C3454 1.383 . S
C3449 C3445 1.495 . S
C3449 H3455 0.959 . S
C3449 H3456 0.961 . S
C3449 H3457 0.960 . S
C3450 C3448 1.381 . S
C3450 C3451 1.394 . S
C3450 H3458 0.930 . S
C3451 C3450 1.394 . S
C3451 C3452 1.383 . S
C3451 H3459 0.929 . S
C3452 C3451 1.383 . S
C3452 C3453 1.377 . S
C3453 H3437 0.930 1_455 S
C3453 C3452 1.377 . S
C3453 C3454 1.379 . S
C3454 H3438 0.931 . S
C3454 C3448 1.383 . S
C3454 C3453 1.379 . S
H3455 C3449 0.959 . S
H3456 C3449 0.961 . S
H3457 C3449 0.960 . S
H3458 C3450 0.930 . S
H3459 C3451 0.929 . S
H3460 C3468 0.929 . S
H3461 C3470 0.930 . S
H3462 C3472 0.930 . S
H3463 C3475 0.929 . S
H3464 C3478 0.930 . S
H3465 C3480 0.960 . S
H3466 C3480 0.960 . S
H3467 C3480 0.960 . S
C3468 H3460 0.929 . S
C3468 C3469 1.377 . S
C3468 C3470 1.384 . S
C3469 C3468 1.377 . S
C3469 C3475 1.390 . S
C3470 H3461 0.930 . S
C3470 C3468 1.384 . S
C3470 C3471 1.372 . S
C3471 C3470 1.372 . S
C3471 C3472 1.400 . S
C3471 C3476 1.490 . S
C3472 H3462 0.930 . S
C3472 C3471 1.400 . S
C3472 C3475 1.386 . S
H3473 C3489 0.930 . S
H3474 C3490 0.931 . S
C3475 H3463 0.929 . S
C3475 C3469 1.390 . S
C3475 C3472 1.386 . S
C3476 C3471 1.490 . S
C3476 C3478 1.395 . S
C3476 C3479 1.403 . S
H3477 C3483 0.930 . S
C3478 H3464 0.930 . S
C3478 C3476 1.395 . S
C3478 C3481 1.403 . S
C3479 C3476 1.403 . S
C3479 C3480 1.524 . S
C3479 C3483 1.400 . S
C3480 H3465 0.960 . S
C3480 H3466 0.960 . S
C3480 H3467 0.960 . S
C3480 C3479 1.524 . S
C3481 C3478 1.403 . S
C3481 C3482 1.392 . S
C3481 C3485 1.495 . S
C3482 C3481 1.392 . S
C3482 C3483 1.385 . S
C3482 C3484 1.478 . S
C3483 H3477 0.930 . S
C3483 C3479 1.400 . S
C3483 C3482 1.385 . S
C3484 C3482 1.478 . S
C3484 C3486 1.381 . S
C3484 C3490 1.383 . S
C3485 C3481 1.495 . S
C3485 H3491 0.959 . S
C3485 H3492 0.961 . S
C3485 H3493 0.960 . S
C3486 C3484 1.381 . S
C3486 C3487 1.394 . S
C3486 H3494 0.930 . S
C3487 C3486 1.394 . S
C3487 C3488 1.383 . S
C3487 H3495 0.929 . S
C3488 C3487 1.383 . S
C3488 C3489 1.377 . S
C3489 H3473 0.930 . S
C3489 C3488 1.377 . S
C3489 C3490 1.379 . S
C3490 H3474 0.931 . S
C3490 C3484 1.383 . S
C3490 C3489 1.379 . S
H3491 C3485 0.959 . S
H3492 C3485 0.961 . S
H3493 C3485 0.960 . S
H3494 C3486 0.930 . S
H3495 C3487 0.929 . S
H3496 C3504 0.929 1_565 S
H3497 C3506 0.930 . S
H3498 C3508 0.930 . S
H3499 C3511 0.929 . S
H3500 C3514 0.930 . S
H3501 C3516 0.960 . S
H3502 C3516 0.960 . S
H3503 C3516 0.960 . S
C3504 H3496 0.929 1_545 S
C3504 C3505 1.377 1_545 S
C3504 C3506 1.384 . S
C3505 C3504 1.377 1_565 S
C3505 C3511 1.390 1_565 S
C3506 H3497 0.930 . S
C3506 C3504 1.384 . S
C3506 C3507 1.372 . S
C3507 C3506 1.372 . S
C3507 C3508 1.400 . S
C3507 C3512 1.490 . S
C3508 H3498 0.930 . S
C3508 C3507 1.400 . S
C3508 C3511 1.386 . S
H3509 C3525 0.930 . S
H3510 C3526 0.931 . S
C3511 H3499 0.929 . S
C3511 C3505 1.390 1_545 S
C3511 C3508 1.386 . S
C3512 C3507 1.490 . S
C3512 C3514 1.395 . S
C3512 C3515 1.403 . S
H3513 C3519 0.930 . S
C3514 H3500 0.930 . S
C3514 C3512 1.395 . S
C3514 C3517 1.403 . S
C3515 C3512 1.403 . S
C3515 C3516 1.524 . S
C3515 C3519 1.400 . S
C3516 H3501 0.960 . S
C3516 H3502 0.960 . S
C3516 H3503 0.960 . S
C3516 C3515 1.524 . S
C3517 C3514 1.403 . S
C3517 C3518 1.392 . S
C3517 C3521 1.495 . S
C3518 C3517 1.392 . S
C3518 C3519 1.385 . S
C3518 C3520 1.478 . S
C3519 H3513 0.930 . S
C3519 C3515 1.400 . S
C3519 C3518 1.385 . S
C3520 C3518 1.478 . S
C3520 C3522 1.381 . S
C3520 C3526 1.383 . S
C3521 C3517 1.495 . S
C3521 H3527 0.959 . S
C3521 H3528 0.961 . S
C3521 H3529 0.960 . S
C3522 C3520 1.381 . S
C3522 C3523 1.394 . S
C3522 H3530 0.930 . S
C3523 C3522 1.394 . S
C3523 C3524 1.383 . S
C3523 H3531 0.929 . S
C3524 C3523 1.383 . S
C3524 C3525 1.377 . S
C3525 H3509 0.930 . S
C3525 C3524 1.377 . S
C3525 C3526 1.379 . S
C3526 H3510 0.931 . S
C3526 C3520 1.383 . S
C3526 C3525 1.379 . S
H3527 C3521 0.959 . S
H3528 C3521 0.961 . S
H3529 C3521 0.960 . S
H3530 C3522 0.930 . S
H3531 C3523 0.929 . S
H3532 C3540 0.929 . S
H3533 C3542 0.930 . S
H3534 C3544 0.930 . S
H3535 C3547 0.929 . S
H3536 C3550 0.930 . S
H3537 C3552 0.960 . S
H3538 C3552 0.960 . S
H3539 C3552 0.960 . S
C3540 H3532 0.929 . S
C3540 C3541 1.377 . S
C3540 C3542 1.384 . S
C3541 C3540 1.377 . S
C3541 C3547 1.390 . S
C3542 H3533 0.930 . S
C3542 C3540 1.384 . S
C3542 C3543 1.372 . S
C3543 C3542 1.372 . S
C3543 C3544 1.400 . S
C3543 C3548 1.490 . S
C3544 H3534 0.930 . S
C3544 C3543 1.400 . S
C3544 C3547 1.386 . S
H3545 C3561 0.930 . S
H3546 C3562 0.931 . S
C3547 H3535 0.929 . S
C3547 C3541 1.390 . S
C3547 C3544 1.386 . S
C3548 C3543 1.490 . S
C3548 C3550 1.395 . S
C3548 C3551 1.403 . S
H3549 C3555 0.930 . S
C3550 H3536 0.930 . S
C3550 C3548 1.395 . S
C3550 C3553 1.403 . S
C3551 C3548 1.403 . S
C3551 C3552 1.524 . S
C3551 C3555 1.400 . S
C3552 H3537 0.960 . S
C3552 H3538 0.960 . S
C3552 H3539 0.960 . S
C3552 C3551 1.524 . S
C3553 C3550 1.403 . S
C3553 C3554 1.392 . S
C3553 C3557 1.495 . S
C3554 C3553 1.392 . S
C3554 C3555 1.385 . S
C3554 C3556 1.478 . S
C3555 H3549 0.930 . S
C3555 C3551 1.400 . S
C3555 C3554 1.385 . S
C3556 C3554 1.478 . S
C3556 C3558 1.381 . S
C3556 C3562 1.383 . S
C3557 C3553 1.495 . S
C3557 H3563 0.959 . S
C3557 H3564 0.961 . S
C3557 H3565 0.960 . S
C3558 C3556 1.381 . S
C3558 C3559 1.394 . S
C3558 H3566 0.930 . S
C3559 C3558 1.394 . S
C3559 C3560 1.383 . S
C3559 H3567 0.929 . S
C3560 C3559 1.383 . S
C3560 C3561 1.377 . S
C3561 H3545 0.930 . S
C3561 C3560 1.377 . S
C3561 C3562 1.379 . S
C3562 H3546 0.931 . S
C3562 C3556 1.383 . S
C3562 C3561 1.379 . S
H3563 C3557 0.959 . S
H3564 C3557 0.961 . S
H3565 C3557 0.960 . S
H3566 C3558 0.930 . S
H3567 C3559 0.929 . S
H3568 C3576 0.929 . S
H3569 C3578 0.930 . S
H3570 C3580 0.930 . S
H3571 C3583 0.929 . S
H3572 C3586 0.930 . S
H3573 C3588 0.960 . S
H3574 C3588 0.960 . S
H3575 C3588 0.960 . S
C3576 H3568 0.929 . S
C3576 C3577 1.377 . S
C3576 C3578 1.384 . S
C3577 C3576 1.377 . S
C3577 C3583 1.390 . S
C3578 H3569 0.930 . S
C3578 C3576 1.384 . S
C3578 C3579 1.372 . S
C3579 C3578 1.372 . S
C3579 C3580 1.400 . S
C3579 C3584 1.490 . S
C3580 H3570 0.930 . S
C3580 C3579 1.400 . S
C3580 C3583 1.386 . S
H3581 C3597 0.930 . S
H3582 C3598 0.931 . S
C3583 H3571 0.929 . S
C3583 C3577 1.390 . S
C3583 C3580 1.386 . S
C3584 C3579 1.490 . S
C3584 C3586 1.395 . S
C3584 C3587 1.403 . S
H3585 C3591 0.930 . S
C3586 H3572 0.930 . S
C3586 C3584 1.395 . S
C3586 C3589 1.403 . S
C3587 C3584 1.403 . S
C3587 C3588 1.524 . S
C3587 C3591 1.400 . S
C3588 H3573 0.960 . S
C3588 H3574 0.960 . S
C3588 H3575 0.960 . S
C3588 C3587 1.524 . S
C3589 C3586 1.403 . S
C3589 C3590 1.392 . S
C3589 C3593 1.495 . S
C3590 C3589 1.392 . S
C3590 C3591 1.385 . S
C3590 C3592 1.478 . S
C3591 H3585 0.930 . S
C3591 C3587 1.400 . S
C3591 C3590 1.385 . S
C3592 C3590 1.478 . S
C3592 C3594 1.381 . S
C3592 C3598 1.383 . S
C3593 C3589 1.495 . S
C3593 H3599 0.959 . S
C3593 H3600 0.961 . S
C3593 H3601 0.960 . S
C3594 C3592 1.381 . S
C3594 C3595 1.394 . S
C3594 H3602 0.930 . S
C3595 C3594 1.394 . S
C3595 C3596 1.383 . S
C3595 H3603 0.929 . S
C3596 C3595 1.383 . S
C3596 C3597 1.377 . S
C3597 H3581 0.930 . S
C3597 C3596 1.377 . S
C3597 C3598 1.379 . S
C3598 H3582 0.931 . S
C3598 C3592 1.383 . S
C3598 C3597 1.379 . S
H3599 C3593 0.959 . S
H3600 C3593 0.961 . S
H3601 C3593 0.960 . S
H3602 C3594 0.930 . S
H3603 C3595 0.929 . S
H3604 C3612 0.929 . S
H3605 C3614 0.930 . S
H3606 C3616 0.930 . S
H3607 C3619 0.929 . S
H3608 C3622 0.930 . S
H3609 C3624 0.960 . S
H3610 C3624 0.960 . S
H3611 C3624 0.960 . S
C3612 H3604 0.929 . S
C3612 C3613 1.377 . S
C3612 C3614 1.384 . S
C3613 C3612 1.377 . S
C3613 C3619 1.390 . S
C3614 H3605 0.930 . S
C3614 C3612 1.384 . S
C3614 C3615 1.372 . S
C3615 C3614 1.372 . S
C3615 C3616 1.400 . S
C3615 C3620 1.490 . S
C3616 H3606 0.930 . S
C3616 C3615 1.400 . S
C3616 C3619 1.386 . S
H3617 C3633 0.930 . S
H3618 C3634 0.931 . S
C3619 H3607 0.929 . S
C3619 C3613 1.390 . S
C3619 C3616 1.386 . S
C3620 C3615 1.490 . S
C3620 C3622 1.395 . S
C3620 C3623 1.403 . S
H3621 C3627 0.930 . S
C3622 H3608 0.930 . S
C3622 C3620 1.395 . S
C3622 C3625 1.403 . S
C3623 C3620 1.403 . S
C3623 C3624 1.524 . S
C3623 C3627 1.400 . S
C3624 H3609 0.960 . S
C3624 H3610 0.960 . S
C3624 H3611 0.960 . S
C3624 C3623 1.524 . S
C3625 C3622 1.403 . S
C3625 C3626 1.392 . S
C3625 C3629 1.495 . S
C3626 C3625 1.392 . S
C3626 C3627 1.385 . S
C3626 C3628 1.478 . S
C3627 H3621 0.930 . S
C3627 C3623 1.400 . S
C3627 C3626 1.385 . S
C3628 C3626 1.478 . S
C3628 C3630 1.381 . S
C3628 C3634 1.383 . S
C3629 C3625 1.495 . S
C3629 H3635 0.959 . S
C3629 H3636 0.961 . S
C3629 H3637 0.960 . S
C3630 C3628 1.381 . S
C3630 C3631 1.394 . S
C3630 H3638 0.930 . S
C3631 C3630 1.394 . S
C3631 C3632 1.383 . S
C3631 H3639 0.929 . S
C3632 C3631 1.383 . S
C3632 C3633 1.377 . S
C3633 H3617 0.930 . S
C3633 C3632 1.377 . S
C3633 C3634 1.379 . S
C3634 H3618 0.931 . S
C3634 C3628 1.383 . S
C3634 C3633 1.379 . S
H3635 C3629 0.959 . S
H3636 C3629 0.961 . S
H3637 C3629 0.960 . S
H3638 C3630 0.930 . S
H3639 C3631 0.929 . S
H3640 C3648 0.935 . S
H3641 C3650 0.930 . S
H3642 C3652 0.930 . S
H3643 C3655 0.929 . S
H3644 C3658 0.930 . S
H3645 C3660 0.960 . S
H3646 C3660 0.960 . S
H3647 C3660 0.960 . S
C3648 H3640 0.935 . S
C3648 C3649 1.379 . S
C3648 C3650 1.376 1_455 S
C3649 C3648 1.379 . S
C3649 C3655 1.390 1_455 S
C3650 H3641 0.930 . S
C3650 C3648 1.376 1_655 S
C3650 C3651 1.372 . S
C3651 C3650 1.372 . S
C3651 C3652 1.400 . S
C3651 C3656 1.490 . S
C3652 H3642 0.930 . S
C3652 C3651 1.400 . S
C3652 C3655 1.386 . S
H3653 C3669 0.930 . S
H3654 C3670 0.931 . S
C3655 H3643 0.929 . S
C3655 C3649 1.390 1_655 S
C3655 C3652 1.386 . S
C3656 C3651 1.490 . S
C3656 C3658 1.395 . S
C3656 C3659 1.403 . S
H3657 C3663 0.930 . S
C3658 H3644 0.930 . S
C3658 C3656 1.395 . S
C3658 C3661 1.403 . S
C3659 C3656 1.403 . S
C3659 C3660 1.524 . S
C3659 C3663 1.400 . S
C3660 H3645 0.960 . S
C3660 H3646 0.960 . S
C3660 H3647 0.960 . S
C3660 C3659 1.524 . S
C3661 C3658 1.403 . S
C3661 C3662 1.392 . S
C3661 C3665 1.495 . S
C3662 C3661 1.392 . S
C3662 C3663 1.385 . S
C3662 C3664 1.478 . S
C3663 H3657 0.930 . S
C3663 C3659 1.400 . S
C3663 C3662 1.385 . S
C3664 C3662 1.478 . S
C3664 C3666 1.381 . S
C3664 C3670 1.383 . S
C3665 C3661 1.495 . S
C3665 H3671 0.959 . S
C3665 H3672 0.961 . S
C3665 H3673 0.960 . S
C3666 C3664 1.381 . S
C3666 C3667 1.394 . S
C3666 H3674 0.930 . S
C3667 C3666 1.394 . S
C3667 C3668 1.383 . S
C3667 H3675 0.929 . S
C3668 C3667 1.383 . S
C3668 C3669 1.377 . S
C3669 H3653 0.930 . S
C3669 C3668 1.377 . S
C3669 C3670 1.379 . S
C3670 H3654 0.931 . S
C3670 C3664 1.383 . S
C3670 C3669 1.379 . S
H3671 C3665 0.959 . S
H3672 C3665 0.961 . S
H3673 C3665 0.960 . S
H3674 C3666 0.930 . S
H3675 C3667 0.929 . S
H3676 C3684 0.929 . S
H3677 C3686 0.930 . S
H3678 C3688 0.930 . S
H3679 C3691 0.929 . S
H3680 C3694 0.930 . S
H3681 C3696 0.960 . S
H3682 C3696 0.960 . S
H3683 C3696 0.960 . S
C3684 H3676 0.929 . S
C3684 C3685 1.377 . S
C3684 C3686 1.384 . S
C3685 C3684 1.377 . S
C3685 C3691 1.390 . S
C3686 H3677 0.930 . S
C3686 C3684 1.384 . S
C3686 C3687 1.372 . S
C3687 C3686 1.372 . S
C3687 C3688 1.400 . S
C3687 C3692 1.490 . S
C3688 H3678 0.930 . S
C3688 C3687 1.400 . S
C3688 C3691 1.386 . S
H3689 C3705 0.930 . S
H3690 C3706 0.931 . S
C3691 H3679 0.929 . S
C3691 C3685 1.390 . S
C3691 C3688 1.386 . S
C3692 C3687 1.490 . S
C3692 C3694 1.395 . S
C3692 C3695 1.403 . S
H3693 C3699 0.930 . S
C3694 H3680 0.930 . S
C3694 C3692 1.395 . S
C3694 C3697 1.403 . S
C3695 C3692 1.403 . S
C3695 C3696 1.524 . S
C3695 C3699 1.400 . S
C3696 H3681 0.960 . S
C3696 H3682 0.960 . S
C3696 H3683 0.960 . S
C3696 C3695 1.524 . S
C3697 C3694 1.403 . S
C3697 C3698 1.392 . S
C3697 C3701 1.495 . S
C3698 C3697 1.392 . S
C3698 C3699 1.385 . S
C3698 C3700 1.478 . S
C3699 H3693 0.930 . S
C3699 C3695 1.400 . S
C3699 C3698 1.385 . S
C3700 C3698 1.478 . S
C3700 C3702 1.381 . S
C3700 C3706 1.383 . S
C3701 C3697 1.495 . S
C3701 H3707 0.959 . S
C3701 H3708 0.961 . S
C3701 H3709 0.960 . S
C3702 C3700 1.381 . S
C3702 C3703 1.394 . S
C3702 H3710 0.930 . S
C3703 C3702 1.394 . S
C3703 C3704 1.383 . S
C3703 H3711 0.929 . S
C3704 C3703 1.383 . S
C3704 C3705 1.377 . S
C3705 H3689 0.930 . S
C3705 C3704 1.377 . S
C3705 C3706 1.379 . S
C3706 H3690 0.931 . S
C3706 C3700 1.383 . S
C3706 C3705 1.379 . S
H3707 C3701 0.959 . S
H3708 C3701 0.961 . S
H3709 C3701 0.960 . S
H3710 C3702 0.930 . S
H3711 C3703 0.929 . S
H3712 C3720 0.929 1_655 S
H3713 C3722 0.930 . S
H3714 C3724 0.930 . S
H3715 C3727 0.929 . S
H3716 C3730 0.930 . S
H3717 C3732 0.960 . S
H3718 C3732 0.960 . S
H3719 C3732 0.960 . S
C3720 H3712 0.929 1_455 S
C3720 C3721 1.377 1_455 S
C3720 C3722 1.384 . S
C3721 C3720 1.377 1_655 S
C3721 C3727 1.390 1_655 S
C3722 H3713 0.930 . S
C3722 C3720 1.384 . S
C3722 C3723 1.372 . S
C3723 C3722 1.372 . S
C3723 C3724 1.400 . S
C3723 C3728 1.490 . S
C3724 H3714 0.930 . S
C3724 C3723 1.400 . S
C3724 C3727 1.386 . S
H3725 C3741 0.930 . S
H3726 C3742 0.931 . S
C3727 H3715 0.929 . S
C3727 C3721 1.390 1_455 S
C3727 C3724 1.386 . S
C3728 C3723 1.490 . S
C3728 C3730 1.395 . S
C3728 C3731 1.403 . S
H3729 C3735 0.930 . S
C3730 H3716 0.930 . S
C3730 C3728 1.395 . S
C3730 C3733 1.403 . S
C3731 C3728 1.403 . S
C3731 C3732 1.524 . S
C3731 C3735 1.400 . S
C3732 H3717 0.960 . S
C3732 H3718 0.960 . S
C3732 H3719 0.960 . S
C3732 C3731 1.524 . S
C3733 C3730 1.403 . S
C3733 C3734 1.392 . S
C3733 C3737 1.495 . S
C3734 C3733 1.392 . S
C3734 C3735 1.385 . S
C3734 C3736 1.478 . S
C3735 H3729 0.930 . S
C3735 C3731 1.400 . S
C3735 C3734 1.385 . S
C3736 C3734 1.478 . S
C3736 C3738 1.381 . S
C3736 C3742 1.383 . S
C3737 C3733 1.495 . S
C3737 H3743 0.959 . S
C3737 H3744 0.961 . S
C3737 H3745 0.960 . S
C3738 C3736 1.381 . S
C3738 C3739 1.394 . S
C3738 H3746 0.930 . S
C3739 C3738 1.394 . S
C3739 C3740 1.383 . S
C3739 H3747 0.929 . S
C3740 C3739 1.383 . S
C3740 C3741 1.377 . S
C3741 H3725 0.930 . S
C3741 C3740 1.377 . S
C3741 C3742 1.379 . S
C3742 H3726 0.931 . S
C3742 C3736 1.383 . S
C3742 C3741 1.379 . S
H3743 C3737 0.959 . S
H3744 C3737 0.961 . S
H3745 C3737 0.960 . S
H3746 C3738 0.930 . S
H3747 C3739 0.929 . S
H3748 C3756 0.929 . S
H3749 C3758 0.930 . S
H3750 C3760 0.930 . S
H3751 C3763 0.929 . S
H3752 C3766 0.930 . S
H3753 C3768 0.960 . S
H3754 C3768 0.960 . S
H3755 C3768 0.960 . S
C3756 H3748 0.929 . S
C3756 C3757 1.377 . S
C3756 C3758 1.384 . S
C3757 C3756 1.377 . S
C3757 C3763 1.390 . S
C3758 H3749 0.930 . S
C3758 C3756 1.384 . S
C3758 C3759 1.372 . S
C3759 C3758 1.372 . S
C3759 C3760 1.400 . S
C3759 C3764 1.490 . S
C3760 H3750 0.930 . S
C3760 C3759 1.400 . S
C3760 C3763 1.386 . S
H3761 C3777 0.930 . S
H3762 C3778 0.931 . S
C3763 H3751 0.929 . S
C3763 C3757 1.390 . S
C3763 C3760 1.386 . S
C3764 C3759 1.490 . S
C3764 C3766 1.395 . S
C3764 C3767 1.403 . S
H3765 C3771 0.930 . S
C3766 H3752 0.930 . S
C3766 C3764 1.395 . S
C3766 C3769 1.403 . S
C3767 C3764 1.403 . S
C3767 C3768 1.524 . S
C3767 C3771 1.400 . S
C3768 H3753 0.960 . S
C3768 H3754 0.960 . S
C3768 H3755 0.960 . S
C3768 C3767 1.524 . S
C3769 C3766 1.403 . S
C3769 C3770 1.392 . S
C3769 C3773 1.495 . S
C3770 C3769 1.392 . S
C3770 C3771 1.385 . S
C3770 C3772 1.478 . S
C3771 H3765 0.930 . S
C3771 C3767 1.400 . S
C3771 C3770 1.385 . S
C3772 C3770 1.478 . S
C3772 C3774 1.381 . S
C3772 C3778 1.383 . S
C3773 C3769 1.495 . S
C3773 H3779 0.959 . S
C3773 H3780 0.961 . S
C3773 H3781 0.960 . S
C3774 C3772 1.381 . S
C3774 C3775 1.394 . S
C3774 H3782 0.930 . S
C3775 C3774 1.394 . S
C3775 C3776 1.383 . S
C3775 H3783 0.929 . S
C3776 C3775 1.383 . S
C3776 C3777 1.377 . S
C3777 H3761 0.930 . S
C3777 C3776 1.377 . S
C3777 C3778 1.379 . S
C3778 H3762 0.931 . S
C3778 C3772 1.383 . S
C3778 C3777 1.379 . S
H3779 C3773 0.959 . S
H3780 C3773 0.961 . S
H3781 C3773 0.960 . S
H3782 C3774 0.930 . S
H3783 C3775 0.929 . S
H3784 C3792 0.929 . S
H3785 C3794 0.930 . S
H3786 C3796 0.930 . S
H3787 C3799 0.929 . S
H3788 C3802 0.930 . S
H3789 C3804 0.960 . S
H3790 C3804 0.960 . S
H3791 C3804 0.960 . S
C3792 H3784 0.929 . S
C3792 C3793 1.377 . S
C3792 C3794 1.384 . S
C3793 C3792 1.377 . S
C3793 C3799 1.390 . S
C3794 H3785 0.930 . S
C3794 C3792 1.384 . S
C3794 C3795 1.372 . S
C3795 C3794 1.372 . S
C3795 C3796 1.400 . S
C3795 C3800 1.490 . S
C3796 H3786 0.930 . S
C3796 C3795 1.400 . S
C3796 C3799 1.386 . S
H3797 C3813 0.930 . S
H3798 C3814 0.931 . S
C3799 H3787 0.929 . S
C3799 C3793 1.390 . S
C3799 C3796 1.386 . S
C3800 C3795 1.490 . S
C3800 C3802 1.395 . S
C3800 C3803 1.403 . S
H3801 C3807 0.930 . S
C3802 H3788 0.930 . S
C3802 C3800 1.395 . S
C3802 C3805 1.403 . S
C3803 C3800 1.403 . S
C3803 C3804 1.524 . S
C3803 C3807 1.400 . S
C3804 H3789 0.960 . S
C3804 H3790 0.960 . S
C3804 H3791 0.960 . S
C3804 C3803 1.524 . S
C3805 C3802 1.403 . S
C3805 C3806 1.392 . S
C3805 C3809 1.495 . S
C3806 C3805 1.392 . S
C3806 C3807 1.385 . S
C3806 C3808 1.478 . S
C3807 H3801 0.930 . S
C3807 C3803 1.400 . S
C3807 C3806 1.385 . S
C3808 C3806 1.478 . S
C3808 C3810 1.381 . S
C3808 C3814 1.383 . S
C3809 C3805 1.495 . S
C3809 H3815 0.959 . S
C3809 H3816 0.961 . S
C3809 H3817 0.960 . S
C3810 C3808 1.381 . S
C3810 C3811 1.394 . S
C3810 H3818 0.930 . S
C3811 C3810 1.394 . S
C3811 C3812 1.383 . S
C3811 H3819 0.929 . S
C3812 C3811 1.383 . S
C3812 C3813 1.377 . S
C3813 H3797 0.930 . S
C3813 C3812 1.377 . S
C3813 C3814 1.379 . S
C3814 H3798 0.931 . S
C3814 C3808 1.383 . S
C3814 C3813 1.379 . S
H3815 C3809 0.959 . S
H3816 C3809 0.961 . S
H3817 C3809 0.960 . S
H3818 C3810 0.930 . S
H3819 C3811 0.929 . S
H3820 C3828 0.929 . S
H3821 C3830 0.930 . S
H3822 C3832 0.930 . S
H3823 C3835 0.929 . S
H3824 C3838 0.930 . S
H3825 C3840 0.960 . S
H3826 C3840 0.960 . S
H3827 C3840 0.960 . S
C3828 H3820 0.929 . S
C3828 C3829 1.377 . S
C3828 C3830 1.384 . S
C3829 C3828 1.377 . S
C3829 C3835 1.390 . S
C3830 H3821 0.930 . S
C3830 C3828 1.384 . S
C3830 C3831 1.372 . S
C3831 C3830 1.372 . S
C3831 C3832 1.400 . S
C3831 C3836 1.490 . S
C3832 H3822 0.930 . S
C3832 C3831 1.400 . S
C3832 C3835 1.386 . S
H3833 C3849 0.930 . S
H3834 C3850 0.931 . S
C3835 H3823 0.929 . S
C3835 C3829 1.390 . S
C3835 C3832 1.386 . S
C3836 C3831 1.490 . S
C3836 C3838 1.395 . S
C3836 C3839 1.403 . S
H3837 C3843 0.930 . S
C3838 H3824 0.930 . S
C3838 C3836 1.395 . S
C3838 C3841 1.403 . S
C3839 C3836 1.403 . S
C3839 C3840 1.524 . S
C3839 C3843 1.400 . S
C3840 H3825 0.960 . S
C3840 H3826 0.960 . S
C3840 H3827 0.960 . S
C3840 C3839 1.524 . S
C3841 C3838 1.403 . S
C3841 C3842 1.392 . S
C3841 C3845 1.495 . S
C3842 C3841 1.392 . S
C3842 C3843 1.385 . S
C3842 C3844 1.478 . S
C3843 H3837 0.930 . S
C3843 C3839 1.400 . S
C3843 C3842 1.385 . S
C3844 C3842 1.478 . S
C3844 C3846 1.381 . S
C3844 C3850 1.383 . S
C3845 C3841 1.495 . S
C3845 H3851 0.959 . S
C3845 H3852 0.961 . S
C3845 H3853 0.960 . S
C3846 C3844 1.381 . S
C3846 C3847 1.394 . S
C3846 H3854 0.930 . S
C3847 C3846 1.394 . S
C3847 C3848 1.383 . S
C3847 H3855 0.929 . S
C3848 C3847 1.383 . S
C3848 C3849 1.377 . S
C3849 H3833 0.930 . S
C3849 C3848 1.377 . S
C3849 C3850 1.379 . S
C3850 H3834 0.931 . S
C3850 C3844 1.383 . S
C3850 C3849 1.379 . S
H3851 C3845 0.959 . S
H3852 C3845 0.961 . S
H3853 C3845 0.960 . S
H3854 C3846 0.930 . S
H3855 C3847 0.929 . S
H3856 C3864 0.929 . S
H3857 C3866 0.930 . S
H3858 C3868 0.930 . S
H3859 C3871 0.929 . S
H3860 C3874 0.930 . S
H3861 C3876 0.960 . S
H3862 C3876 0.960 . S
H3863 C3876 0.960 . S
C3864 H3856 0.929 . S
C3864 C3865 1.377 . S
C3864 C3866 1.384 . S
C3865 C3864 1.377 . S
C3865 C3871 1.390 . S
C3866 H3857 0.930 . S
C3866 C3864 1.384 . S
C3866 C3867 1.372 . S
C3867 C3866 1.372 . S
C3867 C3868 1.400 . S
C3867 C3872 1.490 . S
C3868 H3858 0.930 . S
C3868 C3867 1.400 . S
C3868 C3871 1.386 . S
H3869 C3885 0.930 . S
H3870 C3886 0.931 . S
C3871 H3859 0.929 . S
C3871 C3865 1.390 . S
C3871 C3868 1.386 . S
C3872 C3867 1.490 . S
C3872 C3874 1.395 . S
C3872 C3875 1.403 . S
H3873 C3879 0.930 . S
C3874 H3860 0.930 . S
C3874 C3872 1.395 . S
C3874 C3877 1.403 . S
C3875 C3872 1.403 . S
C3875 C3876 1.524 . S
C3875 C3879 1.400 . S
C3876 H3861 0.960 . S
C3876 H3862 0.960 . S
C3876 H3863 0.960 . S
C3876 C3875 1.524 . S
C3877 C3874 1.403 . S
C3877 C3878 1.392 . S
C3877 C3881 1.495 . S
C3878 C3877 1.392 . S
C3878 C3879 1.385 . S
C3878 C3880 1.478 . S
C3879 H3873 0.930 . S
C3879 C3875 1.400 . S
C3879 C3878 1.385 . S
C3880 C3878 1.478 . S
C3880 C3882 1.381 . S
C3880 C3886 1.383 . S
C3881 C3877 1.495 . S
C3881 H3887 0.959 . S
C3881 H3888 0.961 . S
C3881 H3889 0.960 . S
C3882 C3880 1.381 . S
C3882 C3883 1.394 . S
C3882 H3890 0.930 . S
C3883 C3882 1.394 . S
C3883 C3884 1.383 . S
C3883 H3891 0.929 . S
C3884 C3883 1.383 . S
C3884 C3885 1.377 . S
C3885 H3869 0.930 . S
C3885 C3884 1.377 . S
C3885 C3886 1.379 . S
C3886 H3870 0.931 . S
C3886 C3880 1.383 . S
C3886 C3885 1.379 . S
H3887 C3881 0.959 . S
H3888 C3881 0.961 . S
H3889 C3881 0.960 . S
H3890 C3882 0.930 . S
H3891 C3883 0.929 . S
H3892 C3900 0.929 . S
H3893 C3902 0.930 . S
H3894 C3904 0.930 . S
H3895 C3907 0.929 . S
H3896 C3910 0.930 . S
H3897 C3912 0.960 . S
H3898 C3912 0.960 . S
H3899 C3912 0.960 . S
C3900 H3892 0.929 . S
C3900 C3901 1.377 . S
C3900 C3902 1.384 . S
C3901 C3900 1.377 . S
C3901 C3907 1.390 . S
C3902 H3893 0.930 . S
C3902 C3900 1.384 . S
C3902 C3903 1.372 . S
C3903 C3902 1.372 . S
C3903 C3904 1.400 . S
C3903 C3908 1.490 . S
C3904 H3894 0.930 . S
C3904 C3903 1.400 . S
C3904 C3907 1.386 . S
H3905 C3921 0.930 . S
H3906 C3922 0.931 . S
C3907 H3895 0.929 . S
C3907 C3901 1.390 . S
C3907 C3904 1.386 . S
C3908 C3903 1.490 . S
C3908 C3910 1.395 . S
C3908 C3911 1.403 . S
H3909 C3915 0.930 . S
C3910 H3896 0.930 . S
C3910 C3908 1.395 . S
C3910 C3913 1.403 . S
C3911 C3908 1.403 . S
C3911 C3912 1.524 . S
C3911 C3915 1.400 . S
C3912 H3897 0.960 . S
C3912 H3898 0.960 . S
C3912 H3899 0.960 . S
C3912 C3911 1.524 . S
C3913 C3910 1.403 . S
C3913 C3914 1.392 . S
C3913 C3917 1.495 . S
C3914 C3913 1.392 . S
C3914 C3915 1.385 . S
C3914 C3916 1.478 . S
C3915 H3909 0.930 . S
C3915 C3911 1.400 . S
C3915 C3914 1.385 . S
C3916 C3914 1.478 . S
C3916 C3918 1.381 . S
C3916 C3922 1.383 . S
C3917 C3913 1.495 . S
C3917 H3923 0.959 . S
C3917 H3924 0.961 . S
C3917 H3925 0.960 . S
C3918 C3916 1.381 . S
C3918 C3919 1.394 . S
C3918 H3926 0.930 . S
C3919 C3918 1.394 . S
C3919 C3920 1.383 . S
C3919 H3927 0.929 . S
C3920 C3919 1.383 . S
C3920 C3921 1.377 . S
C3921 H3905 0.930 . S
C3921 C3920 1.377 . S
C3921 C3922 1.379 . S
C3922 H3906 0.931 . S
C3922 C3916 1.383 . S
C3922 C3921 1.379 . S
H3923 C3917 0.959 . S
H3924 C3917 0.961 . S
H3925 C3917 0.960 . S
H3926 C3918 0.930 . S
H3927 C3919 0.929 . S
H3928 C3936 0.929 . S
H3929 C3938 0.930 . S
H3930 C3940 0.930 . S
H3931 C3943 0.929 . S
H3932 C3946 0.930 . S
H3933 C3948 0.960 . S
H3934 C3948 0.960 . S
H3935 C3948 0.960 . S
C3936 H3928 0.929 . S
C3936 C3937 1.377 . S
C3936 C3938 1.384 . S
C3937 C3936 1.377 . S
C3937 C3943 1.390 . S
C3938 H3929 0.930 . S
C3938 C3936 1.384 . S
C3938 C3939 1.372 . S
C3939 C3938 1.372 . S
C3939 C3940 1.400 . S
C3939 C3944 1.490 . S
C3940 H3930 0.930 . S
C3940 C3939 1.400 . S
C3940 C3943 1.386 . S
H3941 C3957 0.930 . S
H3942 C3958 0.931 . S
C3943 H3931 0.929 . S
C3943 C3937 1.390 . S
C3943 C3940 1.386 . S
C3944 C3939 1.490 . S
C3944 C3946 1.395 . S
C3944 C3947 1.403 . S
H3945 C3951 0.930 . S
C3946 H3932 0.930 . S
C3946 C3944 1.395 . S
C3946 C3949 1.403 . S
C3947 C3944 1.403 . S
C3947 C3948 1.524 . S
C3947 C3951 1.400 . S
C3948 H3933 0.960 . S
C3948 H3934 0.960 . S
C3948 H3935 0.960 . S
C3948 C3947 1.524 . S
C3949 C3946 1.403 . S
C3949 C3950 1.392 . S
C3949 C3953 1.495 . S
C3950 C3949 1.392 . S
C3950 C3951 1.385 . S
C3950 C3952 1.478 . S
C3951 H3945 0.930 . S
C3951 C3947 1.400 . S
C3951 C3950 1.385 . S
C3952 C3950 1.478 . S
C3952 C3954 1.381 . S
C3952 C3958 1.383 . S
C3953 C3949 1.495 . S
C3953 H3959 0.959 . S
C3953 H3960 0.961 . S
C3953 H3961 0.960 . S
C3954 C3952 1.381 . S
C3954 C3955 1.394 . S
C3954 H3962 0.930 . S
C3955 C3954 1.394 . S
C3955 C3956 1.383 . S
C3955 H3963 0.929 . S
C3956 C3955 1.383 . S
C3956 C3957 1.377 . S
C3957 H3941 0.930 . S
C3957 C3956 1.377 . S
C3957 C3958 1.379 . S
C3958 H3942 0.931 . S
C3958 C3952 1.383 . S
C3958 C3957 1.379 . S
H3959 C3953 0.959 . S
H3960 C3953 0.961 . S
H3961 C3953 0.960 . S
H3962 C3954 0.930 . S
H3963 C3955 0.929 . S
H3964 C3972 0.929 . S
H3965 C3974 0.930 . S
H3966 C3976 0.930 . S
H3967 C3979 0.929 . S
H3968 C3982 0.930 . S
H3969 C3984 0.960 . S
H3970 C3984 0.960 . S
H3971 C3984 0.960 . S
C3972 H3964 0.929 . S
C3972 C3973 1.377 . S
C3972 C3974 1.384 . S
C3973 C3972 1.377 . S
C3973 C3979 1.390 . S
C3974 H3965 0.930 . S
C3974 C3972 1.384 . S
C3974 C3975 1.372 . S
C3975 C3974 1.372 . S
C3975 C3976 1.400 . S
C3975 C3980 1.490 . S
C3976 H3966 0.930 . S
C3976 C3975 1.400 . S
C3976 C3979 1.386 . S
H3977 C3993 0.930 . S
H3978 C3994 0.931 . S
C3979 H3967 0.929 . S
C3979 C3973 1.390 . S
C3979 C3976 1.386 . S
C3980 C3975 1.490 . S
C3980 C3982 1.395 . S
C3980 C3983 1.403 . S
H3981 C3987 0.930 . S
C3982 H3968 0.930 . S
C3982 C3980 1.395 . S
C3982 C3985 1.403 . S
C3983 C3980 1.403 . S
C3983 C3984 1.524 . S
C3983 C3987 1.400 . S
C3984 H3969 0.960 . S
C3984 H3970 0.960 . S
C3984 H3971 0.960 . S
C3984 C3983 1.524 . S
C3985 C3982 1.403 . S
C3985 C3986 1.392 . S
C3985 C3989 1.495 . S
C3986 C3985 1.392 . S
C3986 C3987 1.385 . S
C3986 C3988 1.478 . S
C3987 H3981 0.930 . S
C3987 C3983 1.400 . S
C3987 C3986 1.385 . S
C3988 C3986 1.478 . S
C3988 C3990 1.381 . S
C3988 C3994 1.383 . S
C3989 C3985 1.495 . S
C3989 H3995 0.959 . S
C3989 H3996 0.961 . S
C3989 H3997 0.960 . S
C3990 C3988 1.381 . S
C3990 C3991 1.394 . S
C3990 H3998 0.930 . S
C3991 C3990 1.394 . S
C3991 C3992 1.383 . S
C3991 H3999 0.929 1_545 S
C3992 C3991 1.383 . S
C3992 C3993 1.377 . S
C3993 H3977 0.930 . S
C3993 C3992 1.377 . S
C3993 C3994 1.379 . S
C3994 H3978 0.931 . S
C3994 C3988 1.383 . S
C3994 C3993 1.379 . S
H3995 C3989 0.959 . S
H3996 C3989 0.961 . S
H3997 C3989 0.960 . S
H3998 C3990 0.930 . S
H3999 C3991 0.929 1_565 S
H4000 C4008 0.929 . S
H4001 C4010 0.930 . S
H4002 C4012 0.930 . S
H4003 C4015 0.929 . S
H4004 C4018 0.930 . S
H4005 C4020 0.960 . S
H4006 C4020 0.960 . S
H4007 C4020 0.960 . S
C4008 H4000 0.929 . S
C4008 C4009 1.377 . S
C4008 C4010 1.384 . S
C4009 C4008 1.377 . S
C4009 C4015 1.390 . S
C4010 H4001 0.930 . S
C4010 C4008 1.384 . S
C4010 C4011 1.372 . S
C4011 C4010 1.372 . S
C4011 C4012 1.400 . S
C4011 C4016 1.490 . S
C4012 H4002 0.930 . S
C4012 C4011 1.400 . S
C4012 C4015 1.386 . S
H4013 C4029 0.930 . S
H4014 C4030 0.931 . S
C4015 H4003 0.929 . S
C4015 C4009 1.390 . S
C4015 C4012 1.386 . S
C4016 C4011 1.490 . S
C4016 C4018 1.395 . S
C4016 C4019 1.403 . S
H4017 C4023 0.930 . S
C4018 H4004 0.930 . S
C4018 C4016 1.395 . S
C4018 C4021 1.403 . S
C4019 C4016 1.403 . S
C4019 C4020 1.524 . S
C4019 C4023 1.400 . S
C4020 H4005 0.960 . S
C4020 H4006 0.960 . S
C4020 H4007 0.960 . S
C4020 C4019 1.524 . S
C4021 C4018 1.403 . S
C4021 C4022 1.392 . S
C4021 C4025 1.495 . S
C4022 C4021 1.392 . S
C4022 C4023 1.385 . S
C4022 C4024 1.478 . S
C4023 H4017 0.930 . S
C4023 C4019 1.400 . S
C4023 C4022 1.385 . S
C4024 C4022 1.478 . S
C4024 C4026 1.381 . S
C4024 C4030 1.383 . S
C4025 C4021 1.495 . S
C4025 H4031 0.959 . S
C4025 H4032 0.961 . S
C4025 H4033 0.960 . S
C4026 C4024 1.381 . S
C4026 C4027 1.394 . S
C4026 H4034 0.930 . S
C4027 C4026 1.394 . S
C4027 C4028 1.383 . S
C4027 H4035 0.929 . S
C4028 C4027 1.383 . S
C4028 C4029 1.377 . S
C4029 H4013 0.930 . S
C4029 C4028 1.377 . S
C4029 C4030 1.379 . S
C4030 H4014 0.931 . S
C4030 C4024 1.383 . S
C4030 C4029 1.379 . S
H4031 C4025 0.959 . S
H4032 C4025 0.961 . S
H4033 C4025 0.960 . S
H4034 C4026 0.930 . S
H4035 C4027 0.929 . S
H4036 C4044 0.929 . S
H4037 C4046 0.930 . S
H4038 C4048 0.930 . S
H4039 C4051 0.929 1_554 S
H4040 C4054 0.930 . S
H4041 C4056 0.960 . S
H4042 C4056 0.960 . S
H4043 C4056 0.960 . S
C4044 H4036 0.929 . S
C4044 C4045 1.343 1_556 S
C4044 C4046 1.384 . S
C4045 C4044 1.343 1_554 S
C4045 C4051 1.379 1_554 S
C4046 H4037 0.930 . S
C4046 C4044 1.384 . S
C4046 C4047 1.372 . S
C4047 C4046 1.372 . S
C4047 C4048 1.400 . S
C4047 C4052 1.490 . S
C4048 H4038 0.930 . S
C4048 C4047 1.400 . S
C4048 C4051 1.386 . S
H4049 C4065 0.930 . S
H4050 C4066 0.931 . S
C4051 H4039 0.929 1_556 S
C4051 C4045 1.379 1_556 S
C4051 C4048 1.386 . S
C4052 C4047 1.490 . S
C4052 C4054 1.395 . S
C4052 C4055 1.403 . S
H4053 C4059 0.930 . S
C4054 H4040 0.930 . S
C4054 C4052 1.395 . S
C4054 C4057 1.403 . S
C4055 C4052 1.403 . S
C4055 C4056 1.524 . S
C4055 C4059 1.400 . S
C4056 H4041 0.960 . S
C4056 H4042 0.960 . S
C4056 H4043 0.960 . S
C4056 C4055 1.524 . S
C4057 C4054 1.403 . S
C4057 C4058 1.392 . S
C4057 C4061 1.495 . S
C4058 C4057 1.392 . S
C4058 C4059 1.385 . S
C4058 C4060 1.478 . S
C4059 H4053 0.930 . S
C4059 C4055 1.400 . S
C4059 C4058 1.385 . S
C4060 C4058 1.478 . S
C4060 C4062 1.381 . S
C4060 C4066 1.383 . S
C4061 C4057 1.495 . S
C4061 H4067 0.959 . S
C4061 H4068 0.961 . S
C4061 H4069 0.960 . S
C4062 C4060 1.381 . S
C4062 C4063 1.394 . S
C4062 H4070 0.930 . S
C4063 C4062 1.394 . S
C4063 C4064 1.383 . S
C4063 H4071 0.929 . S
C4064 C4063 1.383 . S
C4064 C4065 1.377 . S
C4065 H4049 0.930 . S
C4065 C4064 1.377 . S
C4065 C4066 1.379 . S
C4066 H4050 0.931 . S
C4066 C4060 1.383 . S
C4066 C4065 1.379 . S
H4067 C4061 0.959 . S
H4068 C4061 0.961 . S
H4069 C4061 0.960 . S
H4070 C4062 0.930 . S
H4071 C4063 0.929 . S
H4072 C4080 0.929 . S
H4073 C4082 0.930 . S
H4074 C4084 0.930 . S
H4075 C4087 0.929 . S
H4076 C4090 0.930 . S
H4077 C4092 0.960 . S
H4078 C4092 0.960 . S
H4079 C4092 0.960 . S
C4080 H4072 0.929 . S
C4080 C4081 1.377 . S
C4080 C4082 1.384 . S
C4081 C4080 1.377 . S
C4081 C4087 1.390 . S
C4082 H4073 0.930 . S
C4082 C4080 1.384 . S
C4082 C4083 1.372 . S
C4083 C4082 1.372 . S
C4083 C4084 1.400 . S
C4083 C4088 1.490 . S
C4084 H4074 0.930 . S
C4084 C4083 1.400 . S
C4084 C4087 1.386 . S
H4085 C4101 0.930 . S
H4086 C4102 0.931 . S
C4087 H4075 0.929 . S
C4087 C4081 1.390 . S
C4087 C4084 1.386 . S
C4088 C4083 1.490 . S
C4088 C4090 1.395 . S
C4088 C4091 1.403 . S
H4089 C4095 0.930 . S
C4090 H4076 0.930 . S
C4090 C4088 1.395 . S
C4090 C4093 1.403 . S
C4091 C4088 1.403 . S
C4091 C4092 1.524 . S
C4091 C4095 1.400 . S
C4092 H4077 0.960 . S
C4092 H4078 0.960 . S
C4092 H4079 0.960 . S
C4092 C4091 1.524 . S
C4093 C4090 1.403 . S
C4093 C4094 1.392 . S
C4093 C4097 1.495 . S
C4094 C4093 1.392 . S
C4094 C4095 1.385 . S
C4094 C4096 1.478 . S
C4095 H4089 0.930 . S
C4095 C4091 1.400 . S
C4095 C4094 1.385 . S
C4096 C4094 1.478 . S
C4096 C4098 1.381 . S
C4096 C4102 1.383 . S
C4097 C4093 1.495 . S
C4097 H4103 0.959 . S
C4097 H4104 0.961 . S
C4097 H4105 0.960 . S
C4098 C4096 1.381 . S
C4098 C4099 1.394 . S
C4098 H4106 0.930 . S
C4099 C4098 1.394 . S
C4099 C4100 1.383 . S
C4099 H4107 0.929 . S
C4100 C4099 1.383 . S
C4100 C4101 1.377 . S
C4101 H4085 0.930 . S
C4101 C4100 1.377 . S
C4101 C4102 1.379 . S
C4102 H4086 0.931 . S
C4102 C4096 1.383 . S
C4102 C4101 1.379 . S
H4103 C4097 0.959 . S
H4104 C4097 0.961 . S
H4105 C4097 0.960 . S
H4106 C4098 0.930 . S
H4107 C4099 0.929 . S
H4108 C4116 0.929 1_556 S
H4109 C4118 0.930 . S
H4110 C4120 0.930 . S
H4111 C4123 0.929 . S
H4112 C4126 0.930 . S
H4113 C4128 0.960 . S
H4114 C4128 0.960 . S
H4115 C4128 0.960 . S
C4116 H4108 0.929 1_554 S
C4116 C4117 1.377 1_554 S
C4116 C4118 1.384 . S
C4117 C4116 1.377 1_556 S
C4117 C4123 1.390 1_556 S
C4118 H4109 0.930 . S
C4118 C4116 1.384 . S
C4118 C4119 1.372 . S
C4119 C4118 1.372 . S
C4119 C4120 1.400 . S
C4119 C4124 1.490 . S
C4120 H4110 0.930 . S
C4120 C4119 1.400 . S
C4120 C4123 1.386 . S
H4121 C4137 0.930 . S
H4122 C4138 0.931 . S
C4123 H4111 0.929 . S
C4123 C4117 1.390 1_554 S
C4123 C4120 1.386 . S
C4124 C4119 1.490 . S
C4124 C4126 1.395 . S
C4124 C4127 1.403 . S
H4125 C4131 0.930 . S
C4126 H4112 0.930 . S
C4126 C4124 1.395 . S
C4126 C4129 1.403 . S
C4127 C4124 1.403 . S
C4127 C4128 1.524 . S
C4127 C4131 1.400 . S
C4128 H4113 0.960 . S
C4128 H4114 0.960 . S
C4128 H4115 0.960 . S
C4128 C4127 1.524 . S
C4129 C4126 1.403 . S
C4129 C4130 1.392 . S
C4129 C4133 1.495 . S
C4130 C4129 1.392 . S
C4130 C4131 1.385 . S
C4130 C4132 1.478 . S
C4131 H4125 0.930 . S
C4131 C4127 1.400 . S
C4131 C4130 1.385 . S
C4132 C4130 1.478 . S
C4132 C4134 1.381 . S
C4132 C4138 1.383 . S
C4133 C4129 1.495 . S
C4133 H4139 0.959 . S
C4133 H4140 0.961 . S
C4133 H4141 0.960 . S
C4134 C4132 1.381 . S
C4134 C4135 1.394 . S
C4134 H4142 0.930 . S
C4135 C4134 1.394 . S
C4135 C4136 1.383 . S
C4135 H4143 0.929 . S
C4136 C4135 1.383 . S
C4136 C4137 1.377 . S
C4137 H4121 0.930 . S
C4137 C4136 1.377 . S
C4137 C4138 1.379 . S
C4138 H4122 0.931 . S
C4138 C4132 1.383 . S
C4138 C4137 1.379 . S
H4139 C4133 0.959 . S
H4140 C4133 0.961 . S
H4141 C4133 0.960 . S
H4142 C4134 0.930 . S
H4143 C4135 0.929 . S
H4144 C4152 0.929 . S
H4145 C4154 0.930 . S
H4146 C4156 0.930 . S
H4147 C4159 0.929 . S
H4148 C4162 0.930 . S
H4149 C4164 0.960 . S
H4150 C4164 0.960 . S
H4151 C4164 0.960 . S
C4152 H4144 0.929 . S
C4152 C4153 1.377 . S
C4152 C4154 1.384 . S
C4153 C4152 1.377 . S
C4153 C4159 1.390 . S
C4154 H4145 0.930 . S
C4154 C4152 1.384 . S
C4154 C4155 1.372 . S
C4155 C4154 1.372 . S
C4155 C4156 1.400 . S
C4155 C4160 1.490 . S
C4156 H4146 0.930 . S
C4156 C4155 1.400 . S
C4156 C4159 1.386 . S
H4157 C4173 0.930 . S
H4158 C4174 0.931 . S
C4159 H4147 0.929 . S
C4159 C4153 1.390 . S
C4159 C4156 1.386 . S
C4160 C4155 1.490 . S
C4160 C4162 1.395 . S
C4160 C4163 1.403 . S
H4161 C4167 0.930 . S
C4162 H4148 0.930 . S
C4162 C4160 1.395 . S
C4162 C4165 1.403 . S
C4163 C4160 1.403 . S
C4163 C4164 1.524 . S
C4163 C4167 1.400 . S
C4164 H4149 0.960 . S
C4164 H4150 0.960 . S
C4164 H4151 0.960 . S
C4164 C4163 1.524 . S
C4165 C4162 1.403 . S
C4165 C4166 1.392 . S
C4165 C4169 1.495 . S
C4166 C4165 1.392 . S
C4166 C4167 1.385 . S
C4166 C4168 1.478 . S
C4167 H4161 0.930 . S
C4167 C4163 1.400 . S
C4167 C4166 1.385 . S
C4168 C4166 1.478 . S
C4168 C4170 1.381 . S
C4168 C4174 1.383 . S
C4169 C4165 1.495 . S
C4169 H4175 0.959 . S
C4169 H4176 0.961 . S
C4169 H4177 0.960 . S
C4170 C4168 1.381 . S
C4170 C4171 1.394 . S
C4170 H4178 0.930 . S
C4171 C4170 1.394 . S
C4171 C4172 1.383 . S
C4171 H4179 0.929 . S
C4172 C4171 1.383 . S
C4172 C4173 1.377 . S
C4173 H4157 0.930 . S
C4173 C4172 1.377 . S
C4173 C4174 1.379 . S
C4174 H4158 0.931 . S
C4174 C4168 1.383 . S
C4174 C4173 1.379 . S
H4175 C4169 0.959 . S
H4176 C4169 0.961 . S
H4177 C4169 0.960 . S
H4178 C4170 0.930 . S
H4179 C4171 0.929 . S
C752 C376 0.996 . S
C733 C241 1.027 . S
C788 C384 1.051 . S
C769 C272 1.070 . S
C824 C379 1.200 . S
C805 C249 1.263 . S
C841 C206 1.674 . S
C860 C383 1.574 . S
C896 C438 1.203 . S
C877 C125 1.376 . S
C913 C142 1.080 . S
C932 C414 0.969 . S
C968 C441 1.050 . S
C949 C169 1.061 . S
C985 C103 1.751 . S
C1004 C415 1.598 . S
C1021 C315 1.755 . S
C1040 C472 1.608 . S
C1057 C338 1.395 . S
C1076 C476 1.360 . S
C1112 C531 0.796 . S
C1093 C183 0.848 . S
C1148 C539 1.630 . S
C1129 C293 1.772 . S
C1184 C469 0.898 . S
C1165 C87 0.947 . S
C1220 C477 1.608 . S
C1201 C21 1.671 . S
C1237 C43 1.701 . S
C1256 C534 1.606 . S
C1273 C65 1.609 . S
C1292 C538 1.537 . S
C1309 C37 1.257 . S
C1328 C503 1.143 . S
C1364 C593 1.061 . S
C1345 C197 1.094 . S
C1381 C307 1.628 . S
C1400 C601 1.520 . S
C1436 C655 1.037 . S
C1417 C329 1.140 . S
C1453 C150 1.423 . S
C1472 C507 1.329 . S
C1508 C596 1.042 . S
C1489 C227 1.062 . S
C1544 C600 1.393 . S
C1525 C274 1.494 . S
C1580 C663 1.309 . S
C1561 C208 1.395 . S
C1597 C73 1.025 . S
C1616 C407 0.969 . S
C1633 C7 1.108 . S
C1652 C353 1.060 . S
C1688 C410 1.212 . S
C1669 C29 1.254 . S
C1705 C51 1.711 . S
C1724 C352 1.597 . S
C1741 C323 1.394 . S
C1760 C717 1.285 . S
C1777 C340 1.076 . S
C1796 C693 1.015 . S
C1832 C720 0.969 . S
C1813 C191 1.065 . S
C1849 C301 1.740 . S
C1868 C694 1.605 . S
C1885 C117 1.741 . S
C1904 C627 1.644 . S
C1940 C631 1.307 . S
C1921 C140 1.406 . S
C1976 C686 0.734 . S
C1957 C161 0.834 . S
C2012 C570 1.683 . S
C1993 C95 1.782 . S
C2048 C624 0.821 . S
C2029 C235 0.940 . S
C2065 C282 1.617 . S
C2084 C632 1.499 . S
C2101 C263 1.698 . S
C2120 C689 1.578 . S
C2156 C569 1.407 . S
C2137 C216 1.551 . S
C2173 C257 1.246 . S
C2192 C658 1.081 . S
C2228 C562 0.979 . S
C2209 C175 1.089 . S
C2245 C109 1.608 . S
C2264 C446 1.465 . S
C2281 C131 1.127 . S
C2300 C500 0.917 . S
C2317 C348 1.447 . S
C2336 C662 1.390 . S
C2353 C81 1.060 . S
C2372 C565 0.986 . S
C2389 C15 1.539 . S
C2408 C445 1.431 . S
C2444 C508 1.313 . S
C2425 C59 1.431 . S
C2480 C363 1.646 . S
C2461 C351 1.704 . S
C2516 C393 1.827 . S
C2497 C194 1.879 . S
C2552 C370 1.513 . S
C2533 C304 1.518 . S
C2588 C385 1.973 . S
C2569 C326 1.953 . S
C2624 C425 1.493 . S
C2605 C205 1.560 . S
C2641 C230 2.113 . S
C2660 C416 2.133 . S
C2677 C271 1.731 . S
C2696 C432 1.778 . S
C2713 C250 2.039 . S
C2732 C424 1.965 . S
C2768 C463 1.157 . S
C2749 C62 1.164 . S
C2804 C486 1.750 . S
C2785 C84 1.817 . S
C2821 C18 1.063 . S
C2840 C518 0.987 . S
C2876 C548 1.801 . S
C2857 C40 1.848 . S
C2893 C147 1.158 . S
C2912 C456 1.092 . S
C2948 C478 1.882 . S
C2929 C164 1.885 . S
C2984 C525 1.068 . S
C2965 C98 1.062 . S
C3001 C120 1.899 . S
C3020 C540 1.891 . S
C3056 C487 1.183 . S
C3037 C96 1.253 . S
C3073 C10 1.357 . S
C3092 C580 1.309 . S
C3109 C32 1.290 1_556 S
C3128 C610 1.246 . S
C3145 C54 1.095 . S
C3164 C649 1.131 . S
C3200 C509 1.720 . S
C3181 C238 1.717 . S
C3236 C587 1.191 . S
C3217 C337 1.190 . S
C3253 C184 1.846 . S
C3272 C602 1.868 . S
C3308 C672 1.021 . S
C3289 C316 1.070 . S
C3344 C394 1.641 . S
C3325 C153 1.697 . S
C3361 C172 1.877 . S
C3380 C362 1.846 . S
C3397 C106 1.515 . S
C3416 C401 1.524 . S
C3433 C128 1.952 . S
C3452 C354 1.976 . S
C3488 C704 1.461 . S
C3469 C52 1.510 . S
C3524 C695 2.120 . S
C3505 C74 2.123 . S
C3541 C8 1.688 . S
C3560 C711 1.701 . S
C3577 C30 2.043 . S
C3596 C703 2.011 . S
C3613 C219 1.205 . S
C3632 C618 1.213 . S
C3668 C641 1.769 . S
C3649 C228 1.803 . S
C3704 C673 1.082 . S
C3685 C285 1.117 . S
C3721 C260 1.833 . S
C3740 C579 1.785 . S
C3776 C611 1.175 . S
C3757 C345 1.164 . S
C3793 C186 1.904 . S
C3812 C633 1.882 . S
C3848 C680 1.053 . S
C3829 C296 1.063 . S
C3865 C318 1.923 . S
C3884 C571 1.889 . S
C3901 C294 1.260 . S
C3920 C642 1.252 . S
C3937 C279 1.397 . S
C3956 C549 1.332 . S
C3992 C455 1.297 . S
C3973 C252 1.306 . S
C4009 C213 1.130 . S
C4028 C494 1.151 . S
C4045 C76 1.743 . S
C4064 C664 1.711 . S
C4081 C139 1.184 . S
C4100 C556 1.220 . S
C4136 C447 1.844 . S
C4117 C162 1.829 . S
C4153 C118 1.053 1_554 S
C4172 C517 1.049 . S
