# Generated by pormake.
# Topology myd, (4,6)-cn, num edge types: 1
# Building blocks:
#     Node 0, Type 0, BuildingBlock: KOZSID_clean_sbu_0, # of connection points: 4
#     Node 1, Type 0, BuildingBlock: KOZSID_clean_sbu_0, # of connection points: 4
#     Node 2, Type 0, BuildingBlock: KOZSID_clean_sbu_0, # of connection points: 4
#     Node 3, Type 0, BuildingBlock: KOZSID_clean_sbu_0, # of connection points: 4
#     Node 4, Type 0, BuildingBlock: KOZSID_clean_sbu_0, # of connection points: 4
#     Node 5, Type 0, BuildingBlock: KOZSID_clean_sbu_0, # of connection points: 4
#     Node 6, Type 0, BuildingBlock: KOZSID_clean_sbu_0, # of connection points: 4
#     Node 7, Type 0, BuildingBlock: KOZSID_clean_sbu_0, # of connection points: 4
#     Node 8, Type 0, BuildingBlock: KOZSID_clean_sbu_0, # of connection points: 4
#     Node 9, Type 0, BuildingBlock: KOZSID_clean_sbu_0, # of connection points: 4
#     Node 10, Type 0, BuildingBlock: KOZSID_clean_sbu_0, # of connection points: 4
#     Node 11, Type 0, BuildingBlock: KOZSID_clean_sbu_0, # of connection points: 4
#     Node 12, Type 1, BuildingBlock: MIDCAF_clean_sbu_0, # of connection points: 6
#     Node 13, Type 1, BuildingBlock: MIDCAF_clean_sbu_0, # of connection points: 6
#     Node 14, Type 1, BuildingBlock: MIDCAF_clean_sbu_0, # of connection points: 6
#     Node 15, Type 1, BuildingBlock: MIDCAF_clean_sbu_0, # of connection points: 6
#     Node 16, Type 1, BuildingBlock: MIDCAF_clean_sbu_0, # of connection points: 6
#     Node 17, Type 1, BuildingBlock: MIDCAF_clean_sbu_0, # of connection points: 6
#     Node 18, Type 1, BuildingBlock: MIDCAF_clean_sbu_0, # of connection points: 6
#     Node 19, Type 1, BuildingBlock: MIDCAF_clean_sbu_0, # of connection points: 6
#     Edge 20, Type (0, 1), BuildingBlock: KIFKEQ_clean_linker_1, # of connection points: 2
#     Edge 21, Type (0, 1), BuildingBlock: KIFKEQ_clean_linker_1, # of connection points: 2
#     Edge 22, Type (0, 1), BuildingBlock: KIFKEQ_clean_linker_1, # of connection points: 2
#     Edge 23, Type (0, 1), BuildingBlock: KIFKEQ_clean_linker_1, # of connection points: 2
#     Edge 24, Type (0, 1), BuildingBlock: KIFKEQ_clean_linker_1, # of connection points: 2
#     Edge 25, Type (0, 1), BuildingBlock: KIFKEQ_clean_linker_1, # of connection points: 2
#     Edge 26, Type (0, 1), BuildingBlock: KIFKEQ_clean_linker_1, # of connection points: 2
#     Edge 27, Type (0, 1), BuildingBlock: KIFKEQ_clean_linker_1, # of connection points: 2
#     Edge 28, Type (0, 1), BuildingBlock: KIFKEQ_clean_linker_1, # of connection points: 2
#     Edge 29, Type (0, 1), BuildingBlock: KIFKEQ_clean_linker_1, # of connection points: 2
#     Edge 30, Type (0, 1), BuildingBlock: KIFKEQ_clean_linker_1, # of connection points: 2
#     Edge 31, Type (0, 1), BuildingBlock: KIFKEQ_clean_linker_1, # of connection points: 2
#     Edge 32, Type (0, 1), BuildingBlock: KIFKEQ_clean_linker_1, # of connection points: 2
#     Edge 33, Type (0, 1), BuildingBlock: KIFKEQ_clean_linker_1, # of connection points: 2
#     Edge 34, Type (0, 1), BuildingBlock: KIFKEQ_clean_linker_1, # of connection points: 2
#     Edge 35, Type (0, 1), BuildingBlock: KIFKEQ_clean_linker_1, # of connection points: 2
#     Edge 36, Type (0, 1), BuildingBlock: KIFKEQ_clean_linker_1, # of connection points: 2
#     Edge 37, Type (0, 1), BuildingBlock: KIFKEQ_clean_linker_1, # of connection points: 2
#     Edge 38, Type (0, 1), BuildingBlock: KIFKEQ_clean_linker_1, # of connection points: 2
#     Edge 39, Type (0, 1), BuildingBlock: KIFKEQ_clean_linker_1, # of connection points: 2
#     Edge 40, Type (0, 1), BuildingBlock: KIFKEQ_clean_linker_1, # of connection points: 2
#     Edge 41, Type (0, 1), BuildingBlock: KIFKEQ_clean_linker_1, # of connection points: 2
#     Edge 42, Type (0, 1), BuildingBlock: KIFKEQ_clean_linker_1, # of connection points: 2
#     Edge 43, Type (0, 1), BuildingBlock: KIFKEQ_clean_linker_1, # of connection points: 2
#     Edge 44, Type (0, 1), BuildingBlock: KIFKEQ_clean_linker_1, # of connection points: 2
#     Edge 45, Type (0, 1), BuildingBlock: KIFKEQ_clean_linker_1, # of connection points: 2
#     Edge 46, Type (0, 1), BuildingBlock: KIFKEQ_clean_linker_1, # of connection points: 2
#     Edge 47, Type (0, 1), BuildingBlock: KIFKEQ_clean_linker_1, # of connection points: 2
#     Edge 48, Type (0, 1), BuildingBlock: KIFKEQ_clean_linker_1, # of connection points: 2
#     Edge 49, Type (0, 1), BuildingBlock: KIFKEQ_clean_linker_1, # of connection points: 2
#     Edge 50, Type (0, 1), BuildingBlock: KIFKEQ_clean_linker_1, # of connection points: 2
#     Edge 51, Type (0, 1), BuildingBlock: KIFKEQ_clean_linker_1, # of connection points: 2
#     Edge 52, Type (0, 1), BuildingBlock: KIFKEQ_clean_linker_1, # of connection points: 2
#     Edge 53, Type (0, 1), BuildingBlock: KIFKEQ_clean_linker_1, # of connection points: 2
#     Edge 54, Type (0, 1), BuildingBlock: KIFKEQ_clean_linker_1, # of connection points: 2
#     Edge 55, Type (0, 1), BuildingBlock: KIFKEQ_clean_linker_1, # of connection points: 2
#     Edge 56, Type (0, 1), BuildingBlock: KIFKEQ_clean_linker_1, # of connection points: 2
#     Edge 57, Type (0, 1), BuildingBlock: KIFKEQ_clean_linker_1, # of connection points: 2
#     Edge 58, Type (0, 1), BuildingBlock: KIFKEQ_clean_linker_1, # of connection points: 2
#     Edge 59, Type (0, 1), BuildingBlock: KIFKEQ_clean_linker_1, # of connection points: 2
#     Edge 60, Type (0, 1), BuildingBlock: KIFKEQ_clean_linker_1, # of connection points: 2
#     Edge 61, Type (0, 1), BuildingBlock: KIFKEQ_clean_linker_1, # of connection points: 2
#     Edge 62, Type (0, 1), BuildingBlock: KIFKEQ_clean_linker_1, # of connection points: 2
#     Edge 63, Type (0, 1), BuildingBlock: KIFKEQ_clean_linker_1, # of connection points: 2
#     Edge 64, Type (0, 1), BuildingBlock: KIFKEQ_clean_linker_1, # of connection points: 2
#     Edge 65, Type (0, 1), BuildingBlock: KIFKEQ_clean_linker_1, # of connection points: 2
#     Edge 66, Type (0, 1), BuildingBlock: KIFKEQ_clean_linker_1, # of connection points: 2
#     Edge 67, Type (0, 1), BuildingBlock: KIFKEQ_clean_linker_1, # of connection points: 2
# Relax obj value: 0.146
# Max RMSD: 0.124
# Mean RMSD: 0.101
data_MOF--net-myd--node1-KOZSID_clean_sbu_0--node2-MIDCAF_clean_sbu_0--edge1-KIFKEQ_clean_linker_1
_symmetry_space_group_name_H-M    P1
_symmetry_Int_Tables_number       1
_symmetry_cell_setting            triclinic
loop_
_symmetry_equiv_pos_as_xyz
'x, y, z'
_cell_length_a     50.883525
_cell_length_b     50.878621
_cell_length_c     50.764327
_cell_angle_alpha  91.743436
_cell_angle_beta   90.529969
_cell_angle_gamma 92.13209
loop_
_atom_site_label
_atom_site_type_symbol
_atom_site_fract_x
_atom_site_fract_y
_atom_site_fract_z
_atom_type_partial_charge
C0 C 0.98456 0.29745 0.32445 0.0
C1 C 0.95998 0.30395 0.33372 0.0
C2 C 0.94215 0.28683 0.32159 0.0
C3 C 0.95679 0.2708 0.30583 0.0
N4 N 0.98295 0.27634 0.30742 0.0
Co5 Co 0.01125 0.25784 0.28776 0.0
N6 N 0.98466 0.23636 0.26599 0.0
C7 C 0.95818 0.23698 0.26788 0.0
C8 C 0.94487 0.22176 0.24909 0.0
C9 C 0.96394 0.21087 0.2341 0.0
C10 C 0.98796 0.21984 0.24488 0.0
N11 N 0.0395 0.23909 0.26831 0.0
C12 C 0.03772 0.22145 0.24768 0.0
C13 C 0.06232 0.21291 0.2405 0.0
C14 C 0.08024 0.22597 0.2568 0.0
C15 C 0.06569 0.24155 0.27311 0.0
N16 N 0.03768 0.28019 0.30894 0.0
C17 C 0.06417 0.27896 0.30791 0.0
C18 C 0.07726 0.2981 0.32304 0.0
C19 C 0.05802 0.31276 0.33405 0.0
C20 C 0.03415 0.30156 0.32513 0.0
N21 N 0.01143 0.22987 0.31474 0.0
C22 C 0.01399 0.18425 0.34546 0.0
C23 C 0.03632 0.20027 0.34108 0.0
C24 C 0.03453 0.22286 0.32627 0.0
C25 C 0.98997 0.1926 0.33559 0.0
C26 C 0.98914 0.21523 0.32051 0.0
N27 N 0.01152 0.28493 0.2606 0.0
C28 C 0.03593 0.3101 0.22879 0.0
C29 C 0.01271 0.31815 0.21716 0.0
C30 C 0.98881 0.31028 0.22861 0.0
C31 C 0.98867 0.29381 0.25024 0.0
C32 C 0.03489 0.29387 0.25038 0.0
H33 H 0.96993 0.288 0.25802 0.0
H34 H 0.0533 0.28815 0.258 0.0
H35 H 0.05239 0.23385 0.324 0.0
H36 H 0.97028 0.22015 0.31339 0.0
C37 C 0.94638 0.25284 0.28689 0.0
C38 C 0.00868 0.31247 0.33173 0.0
C39 C 0.0133 0.21236 0.23421 0.0
C40 C 0.0761 0.26051 0.2913 0.0
H41 H 0.95533 0.31985 0.34733 0.0
H42 H 0.92095 0.28682 0.32319 0.0
H43 H 0.92379 0.21935 0.24624 0.0
H44 H 0.96042 0.19807 0.21693 0.0
H45 H 0.06689 0.19893 0.22487 0.0
H46 H 0.10143 0.22478 0.25632 0.0
H47 H 0.09831 0.30153 0.32513 0.0
H48 H 0.06126 0.3301 0.34669 0.0
H49 H 0.0555 0.19511 0.34824 0.0
H50 H 0.97178 0.18166 0.33922 0.0
H51 H 0.05495 0.31544 0.22074 0.0
H52 H 0.97026 0.31654 0.22081 0.0
C53 C 0.98015 0.72033 0.1709 0.0
C54 C 0.95782 0.71237 0.15637 0.0
C55 C 0.9386 0.72941 0.16322 0.0
C56 C 0.95027 0.74685 0.18132 0.0
N57 N 0.97557 0.74179 0.18623 0.0
Co58 Co 0.9999 0.76268 0.20987 0.0
N59 N 0.97026 0.77785 0.22941 0.0
C60 C 0.94508 0.77801 0.221 0.0
C61 C 0.92853 0.78781 0.23973 0.0
C62 C 0.94432 0.7945 0.26106 0.0
C63 C 0.96992 0.78897 0.25394 0.0
N64 N 0.02418 0.78386 0.23337 0.0
C65 C 0.01952 0.7959 0.25693 0.0
C66 C 0.04195 0.80977 0.26616 0.0
C67 C 0.06115 0.80606 0.24767 0.0
C68 C 0.04944 0.79032 0.22812 0.0
N69 N 0.02926 0.74718 0.19011 0.0
C70 C 0.05415 0.757 0.18959 0.0
C71 C 0.07034 0.74111 0.17522 0.0
C72 C 0.05453 0.72017 0.16611 0.0
C73 C 0.02941 0.72456 0.17526 0.0
N74 N 0.99983 0.79205 0.18565 0.0
C75 C 0.0107 0.83537 0.15401 0.0
C76 C 0.01035 0.80958 0.14327 0.0
C77 C 0.00477 0.7882 0.1594 0.0
C78 C 1.00362 0.83892 0.18043 0.0
C79 C 0.99817 0.81715 0.19578 0.0
N80 N 1.00095 0.73396 0.23457 0.0
C81 C 0.02664 0.71072 0.26567 0.0
C82 C 1.00383 0.69953 0.27654 0.0
C83 C 0.9795 0.70486 0.26484 0.0
C84 C 0.97849 0.72206 0.24378 0.0
C85 C 0.02478 0.72764 0.24477 0.0
H86 H 0.95958 0.7265 0.23558 0.0
H87 H 0.04275 0.73664 0.23778 0.0
H88 H 0.00564 0.76854 0.15092 0.0
H89 H 0.99386 0.82075 0.21628 0.0
C90 C 0.93705 0.76432 0.19781 0.0
C91 C 0.00567 0.70802 0.16871 0.0
C92 C 0.99363 0.79642 0.26975 0.0
C93 C 0.0623 0.77777 0.20707 0.0
H94 H 0.95561 0.69597 0.14235 0.0
H95 H 0.91826 0.7284 0.15672 0.0
H96 H 0.90733 0.7887 0.23856 0.0
H97 H 0.93752 0.80245 0.27966 0.0
H98 H 0.04417 0.82158 0.28419 0.0
H99 H 0.08141 0.8133 0.2488 0.0
H100 H 0.09139 0.74362 0.17284 0.0
H101 H 0.06094 0.70357 0.15436 0.0
H102 H 0.01545 0.80583 0.12287 0.0
H103 H 1.00277 0.85845 0.18943 0.0
H104 H 0.04587 0.70758 0.27403 0.0
H105 H 0.96133 0.69625 0.27219 0.0
C106 C 0.32993 0.96845 0.29325 0.0
C107 C 0.34086 0.94475 0.29942 0.0
C108 C 0.33369 0.92705 0.27951 0.0
C109 C 0.31898 0.94087 0.26229 0.0
N110 N 0.31647 0.96615 0.27013 0.0
Co111 Co 0.29769 0.99302 0.25068 0.0
N112 N 0.27691 0.96565 0.23002 0.0
C113 C 0.28262 0.94007 0.22732 0.0
C114 C 0.26404 0.92552 0.2129 0.0
C115 C 0.24569 0.94309 0.20579 0.0
C116 C 0.25435 0.96761 0.21597 0.0
N117 N 0.27918 0.01992 0.23095 0.0
C118 C 0.2571 0.01751 0.21578 0.0
C119 C 0.2518 0.04134 0.20454 0.0
C120 C 0.27129 0.05908 0.21299 0.0
C121 C 0.28746 0.0452 0.22877 0.0
N122 N 0.31845 0.02009 0.27175 0.0
C123 C 0.32224 0.04548 0.26564 0.0
C124 C 0.3364 0.05978 0.28467 0.0
C125 C 0.34194 0.04221 0.30381 0.0
C126 C 0.33105 0.01798 0.29526 0.0
N127 N 0.32494 0.99314 0.22342 0.0
C128 C 0.36212 1.00203 0.1836 0.0
C129 C 0.36994 1.00112 0.2102 0.0
C130 C 0.35108 0.99646 0.22977 0.0
C131 C 0.33552 0.9967 0.17746 0.0
C132 C 0.31741 0.99248 0.19746 0.0
N133 N 0.27013 0.99365 0.27729 0.0
C134 C 0.23851 0.01876 0.30125 0.0
C135 C 0.2252 0.99567 0.30886 0.0
C136 C 0.2359 0.97147 0.30148 0.0
C137 C 0.25836 0.97089 0.28572 0.0
C138 C 0.2609 0.01732 0.28573 0.0
H139 H 0.26568 0.95205 0.27962 0.0
H140 H 0.27006 0.03551 0.2796 0.0
H141 H 0.35752 0.99653 0.25009 0.0
H142 H 0.29705 0.98968 0.19178 0.0
C143 C 0.30312 0.92983 0.2419 0.0
C144 C 0.33402 0.99303 0.30889 0.0
C145 C 0.24239 0.99255 0.20948 0.0
C146 C 0.308 0.05591 0.24486 0.0
H147 H 0.35276 0.94066 0.31648 0.0
H148 H 0.3377 0.9063 0.2784 0.0
H149 H 0.2634 0.9045 0.2088 0.0
H150 H 0.22818 0.93837 0.19409 0.0
H151 H 0.23581 0.04543 0.19127 0.0
H152 H 0.27303 0.07976 0.20865 0.0
H153 H 0.34098 0.08073 0.28528 0.0
H154 H 0.35257 0.04688 0.32199 0.0
H155 H 0.39027 0.00494 0.21605 0.0
H156 H 0.32847 0.99621 0.15725 0.0
H157 H 0.2311 0.03795 0.30619 0.0
H158 H 0.22677 0.95304 0.3074 0.0
C159 C 0.68393 0.48252 0.22997 0.0
C160 C 0.66996 0.45983 0.22143 0.0
C161 C 0.6767 0.44038 0.23809 0.0
C162 C 0.69424 0.45226 0.25584 0.0
N163 N 0.69893 0.47791 0.25134 0.0
Co164 Co 0.72251 0.50243 0.27231 0.0
N165 N 0.74192 0.47299 0.28682 0.0
C166 C 0.73348 0.44758 0.28677 0.0
C167 C 0.75206 0.43133 0.29619 0.0
C168 C 0.77333 0.44756 0.30281 0.0
C169 C 0.76635 0.47308 0.29759 0.0
N170 N 0.74597 0.5269 0.2934 0.0
C171 C 0.76953 0.52264 0.30484 0.0
C172 C 0.7788 0.54506 0.31879 0.0
C173 C 0.76036 0.56384 0.31575 0.0
C174 C 0.74079 0.55191 0.3003 0.0
N175 N 0.70289 0.53161 0.25758 0.0
C176 C 0.70226 0.55623 0.2679 0.0
C177 C 0.68741 0.57226 0.25289 0.0
C178 C 0.6781 0.55662 0.23198 0.0
C179 C 0.68773 0.5318 0.23547 0.0
N180 N 0.6982 0.5011 0.30221 0.0
C181 C 0.66597 0.50844 0.3464 0.0
C182 C 0.65547 0.50856 0.32069 0.0
C183 C 0.67189 0.50481 0.29889 0.0
C184 C 0.69261 0.50303 0.34934 0.0
C185 C 0.70823 0.49929 0.32718 0.0
N186 N 0.74727 0.50459 0.2431 0.0
C187 C 0.77871 0.53111 0.21941 0.0
C188 C 0.78924 0.5086 0.20774 0.0
C189 C 0.77717 0.48403 0.21307 0.0
C190 C 0.75617 0.48246 0.23072 0.0
C191 C 0.75779 0.52869 0.23681 0.0
H192 H 0.74775 0.46333 0.23511 0.0
H193 H 0.75096 0.54641 0.24614 0.0
H194 H 0.66351 0.5059 0.27936 0.0
H195 H 0.72878 0.49595 0.33037 0.0
C196 C 0.71055 0.43918 0.27302 0.0
C197 C 0.68129 0.50839 0.21848 0.0
C198 C 0.78231 0.49708 0.30473 0.0
C199 C 0.71975 0.56444 0.28841 0.0
H200 H 0.65639 0.45756 0.20491 0.0
H201 H 0.67054 0.4198 0.23659 0.0
H202 H 0.75087 0.41007 0.29679 0.0
H203 H 0.79184 0.44108 0.3104 0.0
H204 H 0.79683 0.54753 0.33021 0.0
H205 H 0.76153 0.584 0.32323 0.0
H206 H 0.68469 0.59312 0.25601 0.0
H207 H 0.66578 0.56285 0.21603 0.0
H208 H 0.63495 0.51246 0.31737 0.0
H209 H 0.7015 0.50194 0.36873 0.0
H210 H 0.78732 0.55052 0.21621 0.0
H211 H 0.78419 0.46608 0.20408 0.0
C212 C 0.31062 0.3469 0.97843 0.0
C213 C 0.31853 0.36018 0.9562 0.0
C214 C 0.30086 0.35284 0.93651 0.0
C215 C 0.28316 0.33564 0.94781 0.0
N216 N 0.28863 0.33175 0.97334 0.0
Co217 Co 0.26823 0.3087 0.99704 0.0
N218 N 0.25177 0.28847 0.9668 0.0
C219 C 0.25093 0.29623 0.94168 0.0
C220 C 0.23931 0.27763 0.92479 0.0
C221 C 0.23209 0.25705 0.94029 0.0
C222 C 0.23939 0.26442 0.966 0.0
N223 N 0.24771 0.28582 0.02081 0.0
C224 C 0.23473 0.26246 0.01564 0.0
C225 C 0.22179 0.25387 0.03797 0.0
C226 C 0.22689 0.27257 0.05759 0.0
C227 C 0.2425 0.29158 0.04626 0.0
N228 N 0.28498 0.32908 0.02702 0.0
C229 C 0.27607 0.33022 0.05187 0.0
C230 C 0.29233 0.34537 0.06847 0.0
C231 C 0.31259 0.35434 0.053 0.0
C232 C 0.30748 0.34425 0.02769 0.0
N233 N 0.23899 0.33299 0.99699 0.0
C234 C 0.19592 0.36558 0.00471 0.0
C235 C 0.22194 0.37594 0.00619 0.0
C236 C 0.24313 0.35939 1.00211 0.0
C237 C 0.19216 0.33879 0.9979 0.0
C238 C 0.21374 0.32297 0.9942 0.0
N239 N 0.29687 0.28404 0.99774 0.0
C240 C 0.32247 0.25433 0.02253 0.0
C241 C 0.3334 0.24407 0.99937 0.0
C242 C 0.32647 0.25518 0.97538 0.0
C243 C 0.30822 0.27517 0.97501 0.0
C244 C 0.30437 0.27419 0.0213 0.0
H245 H 0.30273 0.28293 0.95629 0.0
H246 H 0.29593 0.28108 0.03948 0.0
H247 H 0.26289 0.36778 1.00397 0.0
H248 H 0.20982 0.30235 0.98991 0.0
C249 C 0.26499 0.31891 0.93413 0.0
C250 C 0.32341 0.35025 1.00439 0.0
C251 C 0.23199 0.24944 0.98935 0.0
C252 C 0.25566 0.31289 0.05957 0.0
H253 H 0.33532 0.37366 0.95438 0.0
H254 H 0.30163 0.35837 0.91611 0.0
H255 H 0.23722 0.27846 0.9036 0.0
H256 H 0.22234 0.23884 0.9334 0.0
H257 H 0.20953 0.2362 0.03982 0.0
H258 H 0.22047 0.27202 0.07784 0.0
H259 H 0.29044 0.34845 0.08955 0.0
H260 H 0.32923 0.36671 0.05969 0.0
H261 H 0.22603 0.39651 0.0113 0.0
H262 H 0.17259 0.32986 0.99561 0.0
H263 H 0.32766 0.24692 0.04159 0.0
H264 H 0.33436 0.24792 0.95693 0.0
C265 C 0.2131 0.67452 0.47549 0.0
C266 C 0.20567 0.66099 0.45227 0.0
C267 C 0.22377 0.66806 0.43369 0.0
C268 C 0.24122 0.68534 0.44657 0.0
N269 N 0.23519 0.68953 0.47206 0.0
Co270 Co 0.2553 0.71247 0.49781 0.0
N271 N 0.2723 0.73248 0.4693 0.0
C272 C 0.27342 0.7247 0.44374 0.0
C273 C 0.28441 0.74365 0.4282 0.0
C274 C 0.29085 0.76447 0.44506 0.0
C275 C 0.28397 0.75684 0.47023 0.0
N276 N 0.27572 0.73517 0.5235 0.0
C277 C 0.28858 0.75859 0.52008 0.0
C278 C 0.30154 0.76709 0.54318 0.0
C279 C 0.29642 0.74829 0.56152 0.0
C280 C 0.2808 0.72928 0.54867 0.0
N281 N 0.23787 0.69241 0.52604 0.0
C282 C 0.24646 0.69118 0.55108 0.0
C283 C 0.22979 0.67619 0.56621 0.0
C284 C 0.20963 0.66744 0.54952 0.0
C285 C 0.2152 0.67749 0.52501 0.0
N286 N 0.28425 0.68795 0.49752 0.0
C287 C 0.32649 0.65645 0.51054 0.0
C288 C 0.30049 0.64598 0.50948 0.0
C289 C 0.27976 0.66192 0.50258 0.0
C290 C 0.33083 0.68242 0.50267 0.0
C291 C 0.3096 0.69775 0.49636 0.0
N292 N 0.22698 0.73741 0.4992 0.0
C293 C 0.20308 0.76833 0.52551 0.0
C294 C 0.19247 0.77885 0.50286 0.0
C295 C 0.19826 0.76721 0.47826 0.0
C296 C 0.21571 0.74648 0.47685 0.0
C297 C 0.22 0.74757 0.52328 0.0
H298 H 0.2208 0.73842 0.45774 0.0
H299 H 0.22826 0.74046 0.54117 0.0
H300 H 0.25994 0.65359 0.50283 0.0
H301 H 0.31377 0.71805 0.492 0.0
C302 C 0.25961 0.70195 0.43444 0.0
C303 C 0.1997 0.67158 0.50072 0.0
C304 C 0.29069 0.77197 0.49476 0.0
C305 C 0.26717 0.70816 0.56039 0.0
H306 H 0.18891 0.64751 0.44907 0.0
H307 H 0.22343 0.66233 0.41297 0.0
H308 H 0.28625 0.74299 0.40697 0.0
H309 H 0.29954 0.78308 0.43923 0.0
H310 H 0.31366 0.78485 0.5464 0.0
H311 H 0.30268 0.74885 0.58196 0.0
H312 H 0.23139 0.673 0.58714 0.0
H313 H 0.19282 0.65517 0.55485 0.0
H314 H 0.2959 0.626 0.51511 0.0
H315 H 0.35049 0.69124 0.502 0.0
H316 H 0.1987 0.77644 0.54489 0.0
H317 H 0.19029 0.77477 0.46027 0.0
C318 C 0.78875 0.82315 0.47295 0.0
C319 C 0.79449 0.83135 0.44772 0.0
C320 C 0.7768 0.81854 0.4311 0.0
C321 C 0.76122 0.80349 0.44705 0.0
N322 N 0.76745 0.80628 0.47295 0.0
Co323 Co 0.75018 0.78746 0.50276 0.0
N324 N 0.72656 0.76598 0.47782 0.0
C325 C 0.72495 0.76813 0.45136 0.0
C326 C 0.70787 0.7501 0.43924 0.0
C327 C 0.69791 0.73548 0.4591 0.0
C328 C 0.70934 0.74568 0.48239 0.0
N329 N 0.73357 0.76799 0.53248 0.0
C330 C 0.71562 0.74754 0.53201 0.0
C331 C 0.70967 0.73968 0.5573 0.0
C332 C 0.72472 0.75534 0.57426 0.0
C333 C 0.73888 0.77191 0.5585 0.0
N334 N 0.77366 0.80939 0.52754 0.0
C335 C 0.7733 0.80944 0.5542 0.0
C336 C 0.79269 0.82528 0.56589 0.0
C337 C 0.80649 0.83577 0.54555 0.0
C338 C 0.79458 0.82583 0.52243 0.0
N339 N 0.72253 0.8145 0.5056 0.0
C340 C 0.67833 0.84668 0.51038 0.0
C341 C 0.69149 0.83816 0.53258 0.0
C342 C 0.71344 0.82261 0.52978 0.0
C343 C 0.68854 0.83997 0.48567 0.0
C344 C 0.71043 0.824 0.48374 0.0
N345 N 0.77701 0.76014 0.50041 0.0
C346 C 0.8064 0.73152 0.52256 0.0
C347 C 0.80919 0.71602 0.49963 0.0
C348 C 0.79675 0.72409 0.47661 0.0
C349 C 0.78112 0.74623 0.47737 0.0
C350 C 0.79038 0.75318 0.52253 0.0
H351 H 0.77198 0.75143 0.45929 0.0
H352 H 0.78866 0.76365 0.54087 0.0
H353 H 0.72235 0.81712 0.54763 0.0
H354 H 0.71682 0.81924 0.46434 0.0
C355 C 0.74148 0.78562 0.43817 0.0
C356 C 0.80459 0.83141 0.49611 0.0
C357 C 0.70355 0.73512 0.50823 0.0
C358 C 0.75719 0.79143 0.56748 0.0
H359 H 0.81014 0.84485 0.44184 0.0
H360 H 0.77582 0.81959 0.40985 0.0
H361 H 0.7038 0.74734 0.41835 0.0
H362 H 0.68415 0.71886 0.45653 0.0
H363 H 0.69586 0.72423 0.56297 0.0
H364 H 0.7253 0.75468 0.59555 0.0
H365 H 0.7972 0.82776 0.58672 0.0
H366 H 0.82392 0.8485 0.54763 0.0
H367 H 0.68488 0.84347 0.5522 0.0
H368 H 0.67921 0.84631 0.46781 0.0
H369 H 0.81634 0.7269 0.54071 0.0
H370 H 0.7983 0.71299 0.4582 0.0
C371 C 0.47912 0.81228 0.8398 0.0
C372 C 0.45475 0.8205 0.84822 0.0
C373 C 0.43649 0.80215 0.83901 0.0
C374 C 0.45051 0.78393 0.82528 0.0
N375 N 0.47671 0.78936 0.82532 0.0
Co376 Co 0.50386 0.7684 0.80648 0.0
N377 N 0.47624 0.74539 0.78777 0.0
C378 C 0.44991 0.74697 0.79026 0.0
C379 C 0.43563 0.73042 0.77337 0.0
C380 C 0.45391 0.71757 0.75897 0.0
C381 C 0.47845 0.72678 0.76826 0.0
N382 N 0.53096 0.74688 0.78839 0.0
C383 C 0.52817 0.72701 0.76993 0.0
C384 C 0.55229 0.71681 0.7635 0.0
C385 C 0.57091 0.73093 0.77812 0.0
C386 C 0.55721 0.74879 0.79278 0.0
N387 N 0.5313 0.79266 0.82394 0.0
C388 C 0.55767 0.79077 0.82205 0.0
C389 C 0.57164 0.811 0.83479 0.0
C390 C 0.5531 0.82709 0.84496 0.0
C391 C 0.52874 0.81574 0.83781 0.0
N392 N 0.50487 0.74354 0.83641 0.0
C393 C 0.51047 0.70026 0.86992 0.0
C394 C 0.53123 0.71846 0.86602 0.0
C395 C 0.52788 0.7399 0.8499 0.0
C396 C 0.48613 0.70558 0.85842 0.0
C397 C 0.48376 0.72715 0.84203 0.0
N398 N 0.50348 0.79226 0.77645 0.0
C399 C 0.5269 0.8123 0.74062 0.0
C400 C 0.50356 0.82115 0.73012 0.0
C401 C 0.4802 0.81637 0.74384 0.0
C402 C 0.48057 0.8018 0.76685 0.0
C403 C 0.52646 0.7983 0.76374 0.0
H404 H 0.46217 0.79796 0.77636 0.0
H405 H 0.54496 0.79206 0.77071 0.0
H406 H 0.54465 0.75271 0.84825 0.0
H407 H 0.46474 0.72976 0.83373 0.0
C408 C 0.43926 0.76449 0.80844 0.0
C409 C 0.50376 0.82754 0.84489 0.0
C410 C 0.50321 0.71717 0.75801 0.0
C411 C 0.56854 0.76966 0.80812 0.0
H412 H 0.45027 0.83839 0.859 0.0
H413 H 0.41534 0.80291 0.84068 0.0
H414 H 0.41445 0.72828 0.77144 0.0
H415 H 0.44952 0.70321 0.74325 0.0
H416 H 0.55608 0.701 0.74947 0.0
H417 H 0.59201 0.72897 0.7775 0.0
H418 H 0.5928 0.81386 0.83628 0.0
H419 H 0.55705 0.8452 0.85628 0.0
H420 H 0.55051 0.71587 0.8745 0.0
H421 H 0.46891 0.69301 0.8617 0.0
H422 H 0.54549 0.81607 0.73093 0.0
H423 H 0.46167 0.82308 0.73639 0.0
C424 C 0.54763 0.30193 0.69212 0.0
C425 C 0.57004 0.31072 0.67913 0.0
C426 C 0.58949 0.29386 0.68512 0.0
C427 C 0.57788 0.27569 0.70121 0.0
N428 N 0.55238 0.2801 0.70564 0.0
Co429 Co 0.52818 0.25838 0.72697 0.0
N430 N 0.55788 0.24336 0.74622 0.0
C431 C 0.58315 0.24376 0.73849 0.0
C432 C 0.59966 0.23343 0.75665 0.0
C433 C 0.58375 0.22576 0.77686 0.0
C434 C 0.55816 0.23136 0.76966 0.0
N435 N 0.50399 0.23651 0.74822 0.0
C436 C 0.5086 0.22397 0.7709 0.0
C437 C 0.48623 0.20972 0.77841 0.0
C438 C 0.46715 0.21361 0.75974 0.0
C439 C 0.47885 0.22985 0.74179 0.0
N440 N 0.49879 0.27368 0.70746 0.0
C441 C 0.47408 0.26346 0.70546 0.0
C442 C 0.45773 0.27935 0.69194 0.0
C443 C 0.47324 0.30073 0.685 0.0
C444 C 0.49838 0.2966 0.69447 0.0
N445 N 0.52897 0.22942 0.70054 0.0
C446 C 0.51741 0.1868 0.66549 0.0
C447 C 0.51863 0.21265 0.65657 0.0
C448 C 0.52447 0.23371 0.67443 0.0
C449 C 0.52428 0.18269 0.69176 0.0
C450 C 0.53026 0.20414 0.70881 0.0
N451 N 0.52637 0.28674 0.75363 0.0
C452 C 0.49957 0.31158 0.78333 0.0
C453 C 0.52191 0.324 0.79491 0.0
C454 C 0.54669 0.3178 0.78499 0.0
C455 C 0.54848 0.29923 0.76413 0.0
C456 C 0.50221 0.29308 0.76293 0.0
H457 H 0.56766 0.2946 0.75679 0.0
H458 H 0.48453 0.28342 0.75515 0.0
H459 H 0.52392 0.25351 0.66743 0.0
H460 H 0.5344 0.2002 0.72913 0.0
C461 C 0.59119 0.25812 0.7167 0.0
C462 C 0.52186 0.31381 0.69009 0.0
C463 C 0.53447 0.22309 0.78419 0.0
C464 C 0.46607 0.24243 0.72123 0.0
H465 H 0.57215 0.32757 0.66671 0.0
H466 H 0.60993 0.29547 0.67948 0.0
H467 H 0.62087 0.23269 0.7559 0.0
H468 H 0.59043 0.21704 0.79476 0.0
H469 H 0.48401 0.19747 0.79536 0.0
H470 H 0.44698 0.20606 0.75969 0.0
H471 H 0.43672 0.27658 0.68886 0.0
H472 H 0.46659 0.31748 0.67454 0.0
H473 H 0.51374 0.2167 0.63633 0.0
H474 H 0.5243 0.16301 0.69932 0.0
H475 H 0.48008 0.31547 0.79056 0.0
H476 H 0.56448 0.32717 0.79328 0.0
C477 C 0.83701 0.47905 0.8016 0.0
C478 C 0.84883 0.45587 0.80795 0.0
C479 C 0.83914 0.43679 0.79043 0.0
C480 C 0.82215 0.44937 0.77433 0.0
N481 N 0.82063 0.47513 0.78062 0.0
Co482 Co 0.79934 0.50064 0.76202 0.0
N483 N 0.77589 0.47209 0.7466 0.0
C484 C 0.78126 0.44637 0.74486 0.0
C485 C 0.76095 0.43104 0.73408 0.0
C486 C 0.74177 0.44822 0.72834 0.0
C487 C 0.75164 0.47327 0.73564 0.0
N488 N 0.77817 0.52617 0.74321 0.0
C489 C 0.75415 0.5229 0.73154 0.0
C490 C 0.74717 0.54585 0.71954 0.0
C491 C 0.76764 0.56388 0.72379 0.0
C492 C 0.78601 0.55104 0.73803 0.0
N493 N 0.82303 0.52884 0.7778 0.0
C494 C 0.82604 0.55351 0.76923 0.0
C495 C 0.84256 0.56902 0.78523 0.0
C496 C 0.85043 0.55302 0.80494 0.0
C497 C 0.83847 0.52842 0.79973 0.0
N498 N 0.82225 0.49816 0.73112 0.0
C499 C 0.8534 0.50392 0.68597 0.0
C500 C 0.86489 0.50427 0.71129 0.0
C501 C 0.849 0.50121 0.73357 0.0
C502 C 0.82618 0.49903 0.68386 0.0
C503 C 0.81109 0.49622 0.70647 0.0
N504 N 0.77606 0.504 0.79232 0.0
C505 C 0.75072 0.53227 0.8203 0.0
C506 C 0.73808 0.51048 0.83143 0.0
C507 C 0.74553 0.48524 0.82317 0.0
C508 C 0.76476 0.48243 0.80375 0.0
C509 C 0.76946 0.52862 0.80086 0.0
H510 H 0.77003 0.46288 0.79748 0.0
H511 H 0.77799 0.54591 0.79215 0.0
H512 H 0.85824 0.50234 0.75282 0.0
H513 H 0.79015 0.49348 0.70387 0.0
C514 C 0.80365 0.43699 0.75711 0.0
C515 C 0.84274 0.50463 0.81493 0.0
C516 C 0.73891 0.49772 0.72897 0.0
C517 C 0.8088 0.56255 0.75003 0.0
H518 H 0.86291 0.45301 0.82362 0.0
H519 H 0.84305 0.41602 0.79032 0.0
H520 H 0.75985 0.40983 0.73146 0.0
H521 H 0.72289 0.44291 0.71931 0.0
H522 H 0.72938 0.5491 0.70846 0.0
H523 H 0.76869 0.5841 0.71774 0.0
H524 H 0.84708 0.58987 0.78373 0.0
H525 H 0.86315 0.55904 0.82137 0.0
H526 H 0.88586 0.50782 0.71403 0.0
H527 H 0.81639 0.49769 0.6648 0.0
H528 H 0.74548 0.55211 0.82584 0.0
H529 H 0.73649 0.46783 0.83154 0.0
C530 C 0.19176 0.04709 0.79432 0.0
C531 C 0.18137 0.07087 0.8023 0.0
C532 C 0.18917 0.08892 0.78415 0.0
C533 C 0.2037 0.07518 0.76612 0.0
N534 N 0.20551 0.04967 0.77181 0.0
Co535 Co 0.22407 0.02286 0.75077 0.0
N536 N 0.24575 0.05025 0.73318 0.0
C537 C 0.24061 0.07601 0.73246 0.0
C538 C 0.26006 0.09058 0.72052 0.0
C539 C 0.27837 0.07286 0.71298 0.0
C540 C 0.2688 0.0482 0.72027 0.0
N541 N 0.24251 0.99607 0.72956 0.0
C542 C 0.26513 0.99837 0.71577 0.0
C543 C 0.27016 0.97479 0.70258 0.0
C544 C 0.25 0.9573 0.70846 0.0
C545 C 0.23368 0.9711 0.72473 0.0
N546 N 0.20226 0.99577 0.7686 0.0
C547 C 0.19786 0.97073 0.75998 0.0
C548 C 0.18275 0.95635 0.77706 0.0
C549 C 0.17725 0.97351 0.79755 0.0
C550 C 0.18918 0.99759 0.79173 0.0
N551 N 0.19749 0.02394 0.72258 0.0
C552 C 0.16112 0.01375 0.68136 0.0
C553 C 0.15267 0.01639 0.70752 0.0
C554 C 0.1712 0.02152 0.72788 0.0
C555 C 0.18781 0.01838 0.67619 0.0
C556 C 0.20553 0.02367 0.69693 0.0
N557 N 0.25093 0.02088 0.77831 0.0
C558 C 0.2808 0.99406 0.8016 0.0
C559 C 0.29495 0.01648 0.8112 0.0
C560 C 0.2856 0.04127 0.80517 0.0
C561 C 0.26348 0.04304 0.78877 0.0
C562 C 0.25891 0.99668 0.78536 0.0
H563 H 0.25709 0.06227 0.78378 0.0
H564 H 0.24917 0.97896 0.77754 0.0
H565 H 0.16442 0.02222 0.74797 0.0
H566 H 0.22603 0.02609 0.69215 0.0
C567 C 0.22011 0.08635 0.74721 0.0
C568 C 0.18684 0.02219 0.80757 0.0
C569 C 0.28069 0.02312 0.71268 0.0
C570 C 0.2124 0.96049 0.73889 0.0
H571 H 0.16945 0.07478 0.81942 0.0
H572 H 0.18571 0.10979 0.78478 0.0
H573 H 0.26141 0.11171 0.71863 0.0
H574 H 0.29662 0.07773 0.70321 0.0
H575 H 0.28644 0.97071 0.68971 0.0
H576 H 0.24789 0.93682 0.70215 0.0
H577 H 0.17748 0.93554 0.77554 0.0
H578 H 0.16594 0.9687 0.81479 0.0
H579 H 0.13213 0.01324 0.71235 0.0
H580 H 0.19511 0.01725 0.65622 0.0
H581 H 0.28724 0.9745 0.8055 0.0
H582 H 0.29556 0.05919 0.81263 0.0
C583 C 0.7302 0.19166 0.97343 0.0
C584 C 0.72188 0.17922 0.94993 0.0
C585 C 0.73853 0.18815 0.93079 0.0
C586 C 0.75608 0.20535 0.94366 0.0
N587 N 0.7515 0.20771 0.96965 0.0
Co588 Co 0.77216 0.22991 0.99557 0.0
N589 N 0.78643 0.25247 0.96753 0.0
C590 C 0.78627 0.24634 0.94152 0.0
C591 C 0.79556 0.26665 0.92665 0.0
C592 C 0.80229 0.28662 0.94442 0.0
C593 C 0.79729 0.27715 0.96937 0.0
N594 N 0.79299 0.25198 0.02148 0.0
C595 C 0.80476 0.27609 0.01887 0.0
C596 C 0.81866 0.2837 0.0417 0.0
C597 C 0.81534 0.26363 0.05901 0.0
C598 C 0.79977 0.2448 0.04586 0.0
N599 N 0.75754 0.20711 0.02326 0.0
C600 C 0.76771 0.20471 0.04757 0.0
C601 C 0.75243 0.18835 0.06272 0.0
C602 C 0.73151 0.17997 0.04683 0.0
C603 C 0.73527 0.19157 0.0227 0.0
N604 N 0.80224 0.20698 0.99175 0.0
C605 C 0.84675 0.17649 0.99778 0.0
C606 C 0.82129 0.16476 0.99736 0.0
C607 C 0.79931 0.18033 0.99419 0.0
C608 C 0.84934 0.20345 0.99319 0.0
C609 C 0.82701 0.21821 0.99011 0.0
N610 N 0.74276 0.25325 1.0004 0.0
C611 C 0.71754 0.27963 0.0303 0.0
C612 C 0.7056 0.29178 0.00922 0.0
C613 C 0.71193 0.28349 0.98347 0.0
C614 C 0.7304 0.26398 0.97948 0.0
C615 C 0.73599 0.2606 0.0255 0.0
H616 H 0.73525 0.25809 0.95956 0.0
H617 H 0.74547 0.25253 0.04229 0.0
H618 H 0.77993 0.17101 0.99497 0.0
H619 H 0.82994 0.23906 0.98772 0.0
C620 C 0.77291 0.22356 0.93158 0.0
C621 C 0.71836 0.18687 0.99914 0.0
C622 C 0.80525 0.29092 0.99432 0.0
C623 C 0.788 0.22223 0.05681 0.0
H624 H 0.70544 0.16531 0.94691 0.0
H625 H 0.7371 0.18371 0.90983 0.0
H626 H 0.79617 0.26736 0.90537 0.0
H627 H 0.81003 0.30587 0.93936 0.0
H628 H 0.83036 0.30166 0.04536 0.0
H629 H 0.82284 0.26316 0.079 0.0
H630 H 0.7553 0.18418 0.0833 0.0
H631 H 0.71532 0.16709 0.05255 0.0
H632 H 0.81824 0.14393 1.00056 0.0
H633 H 0.86854 0.2133 0.99244 0.0
H634 H 0.7135 0.28553 0.0505 0.0
H635 H 0.70287 0.29213 0.96658 0.0
Zn636 Zn 0.0959 0.08064 0.06263 0.0
Zn637 Zn 0.04168 0.03085 0.00791 0.0
Zn638 Zn 0.06933 0.05679 0.03671 0.0
C639 C 0.08601 0.03903 0.97834 0.0
C640 C 0.04837 0.99927 0.0503 0.0
O641 O 0.0454 0.08561 0.05979 0.0
O642 O 0.07262 0.08334 0.09342 0.0
C643 C 0.10564 0.10283 0.0183 0.0
O644 O 0.08947 0.05667 0.99705 0.0
O645 O 0.06683 0.02268 0.97962 0.0
O646 O 0.03197 1.00227 0.03194 0.0
O647 O 0.06711 0.01678 0.05427 0.0
O648 O 0.10046 0.11193 0.04094 0.0
O649 O 0.0991 0.0786 0.01233 0.0
O650 O 0.08935 0.03118 0.06547 0.0
O651 O 0.1253 0.05642 0.0648 0.0
C652 C 0.11402 0.03507 0.07108 0.0
O653 O 0.03046 0.07664 0.03714 0.0
O654 O 0.01481 0.05693 1.00081 0.0
C655 C 0.05073 0.08997 0.0845 0.0
C656 C 0.01279 0.07449 0.01869 0.0
Zn657 Zn 0.99784 0.51212 0.00986 0.0
Zn658 Zn 0.94495 0.45365 0.0656 0.0
Zn659 Zn 0.97077 0.48114 0.04037 0.0
C660 C 0.94596 0.49522 0.09677 0.0
C661 C 0.91493 0.45303 0.0242 0.0
O662 O 0.01161 0.46565 0.03925 0.0
O663 O 0.03052 0.49175 0.01046 0.0
C664 C 0.98252 0.54276 0.05411 0.0
O665 O 0.95278 0.50374 0.07402 0.0
O666 O 0.94716 0.47102 0.10092 0.0
O667 O 0.90983 0.45358 0.04842 0.0
O668 O 0.93788 0.46127 0.01662 0.0
O669 O 0.99549 0.54443 0.03306 0.0
O670 O 0.97104 0.52073 0.05995 0.0
O671 O 0.95136 0.48018 1.00045 0.0
O672 O 0.97542 0.50828 0.97763 0.0
C673 C 0.95582 0.49244 0.97898 0.0
O674 O 0.9953 0.45002 0.0569 0.0
O675 O 0.96347 0.42025 0.06198 0.0
C676 C 0.03171 0.47228 0.02525 0.0
C677 C 0.98764 0.42655 0.06301 0.0
Zn678 Zn 1.00126 0.98634 0.49032 0.0
Zn679 Zn 0.05891 0.93033 0.43611 0.0
Zn680 Zn 0.03267 0.95751 0.46188 0.0
C681 C 0.08603 0.93168 0.48042 0.0
C682 C 0.01532 0.90174 0.43392 0.0
O683 O 0.03443 0.99731 0.44452 0.0
O684 O 1.00372 0.01726 0.46725 0.0
C685 C 0.04273 0.97198 0.52363 0.0
O686 O 0.06327 0.93987 0.48715 0.0
O687 O 0.09214 0.93106 0.45644 0.0
O688 O 0.03917 0.89608 0.43485 0.0
O689 O 0.0086 0.92483 0.44198 0.0
O690 O 0.02266 0.9859 0.52357 0.0
O691 O 0.04907 0.95903 0.50256 0.0
O692 O 0.99202 0.93871 0.46002 0.0
O693 O 0.96888 0.96359 0.48689 0.0
C694 C 0.97023 0.94362 0.47166 0.0
O695 O 0.05312 0.98104 0.43092 0.0
O696 O 0.06068 0.94881 0.40247 0.0
C697 C 0.02021 0.01742 0.4488 0.0
C698 C 0.06165 0.97306 0.40829 0.0
Zn699 Zn 0.94927 0.56249 0.4326 0.0
Zn700 Zn 1.00207 0.51218 0.48748 0.0
Zn701 Zn 0.97472 0.539 0.45984 0.0
C702 C 0.99259 0.48022 0.4436 0.0
C703 C 0.03301 0.55713 0.47932 0.0
O704 O 0.94135 0.55629 0.48253 0.0
O705 O 0.91426 0.55901 0.44886 0.0
C706 C 0.9498 0.52076 0.40338 0.0
O707 O 0.97601 0.49847 0.44025 0.0
O708 O 0.00869 0.48252 0.46266 0.0
O709 O 0.03127 0.53823 0.49481 0.0
O710 O 0.01455 0.55984 0.46211 0.0
O711 O 0.95222 0.5446 0.39754 0.0
O712 O 0.95657 0.51405 0.42677 0.0
O713 O 0.99839 0.57227 0.44244 0.0
O714 O 0.96559 0.59823 0.4358 0.0
C715 C 0.98991 0.59461 0.43525 0.0
O716 O 0.95549 0.53856 0.49957 0.0
O717 O 0.97677 0.50588 0.51618 0.0
C718 C 0.91849 0.56171 0.4733 0.0
C719 C 0.95856 0.52201 0.51802 0.0
Zn720 Zn 0.42603 0.93966 0.56681 0.0
Zn721 Zn 0.48165 0.99397 0.50699 0.0
Zn722 Zn 0.45336 0.96567 0.53889 0.0
C723 C 0.43887 0.97479 0.47692 0.0
C724 C 0.46802 0.02757 0.54929 0.0
O725 O 0.47767 0.93582 0.55805 0.0
O726 O 0.44635 0.90761 0.56977 0.0
C727 C 0.39809 0.93545 0.52277 0.0
O728 O 0.43404 0.96317 0.49871 0.0
O729 O 0.45874 0.99024 0.47531 0.0
O730 O 0.48165 0.02742 0.5286 0.0
O731 O 0.45512 0.00652 0.55587 0.0
O732 O 0.39262 0.93531 0.54689 0.0
O733 O 0.42069 0.94497 0.51554 0.0
O734 O 0.43615 0.99146 0.57061 0.0
O735 O 0.42461 0.96163 0.59932 0.0
C736 C 0.42696 0.98543 0.59337 0.0
O737 O 0.49354 0.94871 0.53847 0.0
O738 O 0.51293 0.97167 0.50741 0.0
C739 C 0.47048 0.91379 0.56825 0.0
C740 C 0.51345 0.95321 0.52347 0.0
Zn741 Zn 0.5197 0.51054 0.54699 0.0
Zn742 Zn 0.56941 0.56976 0.59798 0.0
Zn743 Zn 0.54479 0.5432 0.57337 0.0
C744 C 0.59301 0.52687 0.60562 0.0
C745 C 0.57613 0.59137 0.55314 0.0
O746 O 0.50472 0.55966 0.57384 0.0
O747 O 0.48831 0.53209 0.54315 0.0
C748 C 0.53364 0.48221 0.58932 0.0
O749 O 0.56845 0.52055 0.60176 0.0
O750 O 0.60157 0.54918 0.5988 0.0
O751 O 0.56937 0.60062 0.57527 0.0
O752 O 0.57239 0.56648 0.54808 0.0
O753 O 0.51797 0.47989 0.56993 0.0
O754 O 0.54701 0.50408 0.59346 0.0
O755 O 0.56315 0.54387 0.5329 0.0
O756 O 0.54319 0.50785 0.51631 0.0
C757 C 0.56029 0.52624 0.51412 0.0
O758 O 0.51978 0.57179 0.59588 0.0
O759 O 0.54694 0.57018 0.62956 0.0
C760 C 0.48593 0.55244 0.55769 0.0
C761 C 0.52507 0.57675 0.62052 0.0
Zn762 Zn 0.52346 0.50757 0.02186 0.0
Zn763 Zn 0.57581 0.45821 0.96824 0.0
Zn764 Zn 0.55128 0.48145 0.99356 0.0
C765 C 0.58275 0.43498 0.01161 0.0
C766 C 0.53142 0.44975 0.94485 0.0
O767 O 0.55191 0.52059 0.9749 0.0
O768 O 0.51779 0.53591 0.99601 0.0
C769 C 0.56843 0.49809 0.05221 0.0
O770 O 0.58003 0.45959 0.01743 0.0
O771 O 0.57456 0.42606 0.98949 0.0
O772 O 0.55295 0.45895 0.93632 0.0
O773 O 0.52681 0.45205 0.96975 0.0
O774 O 0.54981 0.51383 0.05124 0.0
O775 O 0.57129 0.48136 0.03294 0.0
O776 O 0.51173 0.46036 0.99177 0.0
O777 O 0.49436 0.4805 0.02604 0.0
C778 C 0.4929 0.46233 0.00848 0.0
O779 O 0.5739 0.50682 0.96562 0.0
O780 O 0.60777 0.48194 0.97054 0.0
C781 C 0.53443 0.53811 0.97779 0.0
C782 C 0.59867 0.50308 0.96271 0.0
Zn783 Zn 0.51954 0.02906 0.99032 0.0
Zn784 Zn 0.44737 0.1018 0.92989 0.0
Zn785 Zn 0.48957 0.05954 0.96868 0.0
C786 C 0.5057 0.1131 0.93353 0.0
C787 C 0.45018 0.04408 0.9161 0.0
O788 O 0.47586 0.05405 0.01057 0.0
O789 O 0.49795 0.0196 0.02181 0.0
C790 C 0.54866 0.07662 0.98192 0.0
O791 O 0.51045 0.09374 0.94886 0.0
O792 O 0.48284 0.11797 0.92507 0.0
O793 O 0.44235 0.06692 0.91107 0.0
O794 O 0.46586 0.03948 0.93562 0.0
O795 O 0.54854 0.05623 0.99555 0.0
O796 O 0.52864 0.08083 0.96705 0.0
O797 O 0.48597 0.02147 0.94529 0.0
O798 O 0.52146 1.00295 0.96017 0.0
C799 C 0.50244 1.00281 0.944 0.0
O800 O 0.46363 0.07492 1.00034 0.0
O801 O 0.45335 0.0871 0.96258 0.0
C802 C 0.48039 0.03584 0.02704 0.0
C803 C 0.4497 0.08954 0.98662 0.0
H804 H 0.98461 0.13813 0.33715 0.0
H805 H 0.04811 0.17223 0.38578 0.0
H806 H 0.98762 0.09699 0.36012 0.0
H807 H 0.05177 0.13051 0.40769 0.0
H808 H 0.06261 0.04049 0.42335 0.0
H809 H 0.06248 0.08029 0.39682 0.0
H810 H 0.97891 0.08529 0.40862 0.0
H811 H 0.9791 0.04624 0.4351 0.0
C812 C 0.99914 0.13705 0.35274 0.0
C813 C 0.01595 0.15888 0.35957 0.0
C814 C 1.00104 0.11329 0.36571 0.0
C815 C 0.02006 0.11048 0.38557 0.0
C816 C 0.03721 0.13197 0.39216 0.0
C817 C 0.03505 0.15592 0.3795 0.0
C818 C 0.04426 0.05 0.41997 0.0
C819 C 0.02091 0.04028 0.43132 0.0
C820 C 0.04419 0.07282 0.405 0.0
C821 C 0.02063 0.08585 0.40063 0.0
C822 C 0.99729 0.07561 0.41144 0.0
C823 C 0.99747 0.05331 0.42675 0.0
H824 H 0.02253 0.32266 0.38321 0.0
H825 H 0.98957 0.3588 0.31539 0.0
H826 H 0.01734 0.36327 0.40934 0.0
H827 H 0.98454 0.3998 0.34135 0.0
H828 H 0.95651 0.46001 0.40598 0.0
H829 H 0.96009 0.41999 0.37815 0.0
H830 H 0.03615 0.40715 0.41289 0.0
H831 H 0.03256 0.44648 0.44037 0.0
C832 C 0.01452 0.33951 0.37385 0.0
C833 C 0.00692 0.33782 0.34722 0.0
C834 C 0.01149 0.3628 0.38877 0.0
C835 C 1.00066 0.38501 0.37746 0.0
C836 C 0.99277 0.38313 0.35079 0.0
C837 C 0.99588 0.35978 0.33585 0.0
C838 C 0.97405 0.44878 0.40742 0.0
C839 C 0.99415 0.4566 0.42553 0.0
C840 C 0.97614 0.42579 0.3915 0.0
C841 C 0.99832 0.41007 0.39343 0.0
C842 C 0.01851 0.41829 0.4112 0.0
C843 C 0.01645 0.44107 0.42695 0.0
H844 H 0.99833 0.84483 0.10247 0.0
H845 H 0.0418 0.8783 0.16966 0.0
H846 H 0.01 0.88371 0.07749 0.0
H847 H 0.05278 0.91755 0.14492 0.0
H848 H 0.08468 0.97546 0.08187 0.0
H849 H 0.07772 0.93515 0.10679 0.0
H850 H 0.99705 0.92924 0.07941 0.0
H851 H 1.00388 0.96905 0.0551 0.0
C852 C 0.01051 0.86038 0.11187 0.0
C853 C 0.01882 0.85851 0.13819 0.0
C854 C 0.01703 0.8828 0.09763 0.0
C855 C 0.03212 0.90393 0.10929 0.0
C856 C 0.04123 0.90167 0.1353 0.0
C857 C 0.03462 0.87928 0.14958 0.0
C858 C 0.06543 0.96575 0.08162 0.0
C859 C 0.04488 0.97563 0.06662 0.0
C860 C 0.06144 0.94256 0.09571 0.0
C861 C 0.03688 0.92874 0.09483 0.0
C862 C 0.01637 0.93894 0.08008 0.0
C863 C 0.0203 0.96196 0.06622 0.0
H864 H 0.02714 0.69632 0.1206 0.0
H865 H 0.98356 0.66167 0.18397 0.0
H866 H 0.02169 0.65546 0.09465 0.0
H867 H 0.97606 0.62128 0.15734 0.0
H868 H 0.98292 0.54419 0.10824 0.0
H869 H 0.99094 0.58282 0.13743 0.0
H870 H 0.98986 0.63266 0.06991 0.0
H871 H 0.98338 0.59403 0.04103 0.0
C872 C 0.01699 0.67966 0.12925 0.0
C873 C 0.00648 0.68189 0.15462 0.0
C874 C 0.01317 0.65636 0.11409 0.0
C875 C 0.99797 0.63493 0.12354 0.0
C876 C 0.9881 0.63703 0.14933 0.0
C877 C 0.99239 0.66019 0.16467 0.0
C878 C 0.98401 0.56348 0.0998 0.0
C879 C 0.98259 0.56608 0.07235 0.0
C880 C 0.9887 0.58572 0.11651 0.0
C881 C 0.99168 0.61109 0.10616 0.0
C882 C 0.98874 0.61356 0.07874 0.0
C883 C 0.98459 0.59139 0.0621 0.0
H884 H 0.41422 0.98934 0.17862 0.0
H885 H 0.35316 0.03127 0.14009 0.0
H886 H 0.44412 0.9999 0.14287 0.0
H887 H 0.38229 0.04023 0.1037 0.0
H888 H 0.44559 0.07025 0.04932 0.0
H889 H 0.41905 0.06415 0.08856 0.0
H890 H 0.45217 0.98805 0.0987 0.0
H891 H 0.4793 0.99462 0.06024 0.0
C892 C 0.40712 1.00083 0.16261 0.0
C893 C 0.38105 0.0091 0.16226 0.0
C894 C 0.42421 0.00663 0.14184 0.0
C895 C 0.4157 0.02077 0.12007 0.0
C896 C 0.38981 0.02954 0.12009 0.0
C897 C 0.37285 0.02395 0.14089 0.0
C898 C 0.44732 0.05228 0.05999 0.0
C899 C 0.46461 0.03292 0.05145 0.0
C900 C 0.43195 0.04868 0.08251 0.0
C901 C 0.43325 0.02551 0.09697 0.0
C902 C 0.45083 0.00636 0.08853 0.0
C903 C 0.46633 0.01006 0.06622 0.0
H904 H 0.69742 0.49451 0.16918 0.0
H905 H 0.63085 0.52344 0.2114 0.0
H906 H 0.67134 0.49194 0.12823 0.0
H907 H 0.6045 0.52051 0.1709 0.0
H908 H 0.57081 0.53632 0.09088 0.0
H909 H 0.59903 0.54005 0.12955 0.0
H910 H 0.63522 0.46759 0.10626 0.0
H911 H 0.60708 0.46418 0.06676 0.0
C912 C 0.67729 0.50074 0.16951 0.0
C913 C 0.66635 0.50995 0.19319 0.0
C914 C 0.66222 0.49893 0.14618 0.0
C915 C 0.63575 0.50611 0.14607 0.0
C916 C 0.62493 0.51534 0.16995 0.0
C917 C 0.64001 0.51717 0.1932 0.0
C918 C 0.58474 0.52107 0.09386 0.0
C919 C 0.58647 0.49981 0.07561 0.0
C920 C 0.60091 0.52318 0.11626 0.0
C921 C 0.61933 0.50402 0.12137 0.0
C922 C 0.62144 0.48288 0.10294 0.0
C923 C 0.60521 0.48082 0.0803 0.0
H924 H 0.38378 0.01068 0.32298 0.0
H925 H 0.3149 0.97071 0.35334 0.0
H926 H 0.40706 1.00455 0.36425 0.0
H927 H 0.33868 0.96278 0.39436 0.0
H928 H 0.38476 0.97464 0.47431 0.0
H929 H 0.35787 0.97953 0.43449 0.0
H930 H 0.42731 0.97203 0.38677 0.0
H931 H 0.45389 0.96869 0.42638 0.0
C932 C 0.37346 1.00099 0.33876 0.0
C933 C 0.34727 0.99189 0.33524 0.0
C934 C 0.38699 0.99685 0.36231 0.0
C935 C 0.37502 0.98275 0.3828 0.0
C936 C 0.34859 0.97393 0.37932 0.0
C937 C 0.33492 0.97845 0.35582 0.0
C938 C 0.39404 0.97354 0.4552 0.0
C939 C 0.42142 0.97146 0.45342 0.0
C940 C 0.37868 0.97644 0.43232 0.0
C941 C 0.39042 0.97697 0.40721 0.0
C942 C 0.41757 0.97283 0.40562 0.0
C943 C 0.43284 0.97047 0.42836 0.0
H944 H 0.67962 0.53837 0.3907 0.0
H945 H 0.61517 0.49139 0.3559 0.0
H946 H 0.65421 0.54487 0.43084 0.0
H947 H 0.58957 0.49841 0.39577 0.0
H948 H 0.56829 0.48444 0.48129 0.0
H949 H 0.59275 0.48261 0.44066 0.0
H950 H 0.61413 0.56527 0.45043 0.0
H951 H 0.5888 0.56719 0.49147 0.0
C952 C 0.65999 0.52949 0.39156 0.0
C953 C 0.6496 0.51403 0.37012 0.0
C954 C 0.64531 0.5335 0.41449 0.0
C955 C 0.61992 0.52201 0.41669 0.0
C956 C 0.60922 0.50727 0.39492 0.0
C957 C 0.62382 0.50341 0.37193 0.0
C958 C 0.57809 0.50237 0.4749 0.0
C959 C 0.5767 0.52601 0.48992 0.0
C960 C 0.59206 0.5013 0.4514 0.0
C961 C 0.60522 0.52381 0.44202 0.0
C962 C 0.60432 0.54749 0.45716 0.0
C963 C 0.59004 0.5486 0.4808 0.0
H964 H 0.14978 0.35148 0.02941 0.0
H965 H 0.18931 0.41759 0.99327 0.0
H966 H 0.11088 0.3772 0.03575 0.0
H967 H 0.15096 0.44382 1.00109 0.0
H968 H 0.0687 0.47226 0.98706 0.0
H969 H 0.10823 0.44743 0.98405 0.0
H970 H 0.0906 0.41262 0.05875 0.0
H971 H 0.05036 0.43752 0.06143 0.0
C972 C 0.15027 0.37153 0.02283 0.0
C973 C 0.17275 0.38219 0.01037 0.0
C974 C 0.12798 0.38647 0.02689 0.0
C975 C 0.12747 0.41264 0.01877 0.0
C976 C 0.15029 0.4236 0.00716 0.0
C977 C 0.17253 0.4086 1.00296 0.0
C978 C 0.07319 0.45942 1.003 0.0
C979 C 0.05608 0.45682 0.02449 0.0
C980 C 0.09612 0.44523 1.00133 0.0
C981 C 0.10297 0.42803 0.02121 0.0
C982 C 0.08591 0.42541 0.04284 0.0
C983 C 0.06274 0.43963 0.04443 0.0
H984 H 0.18984 0.62109 0.51548 0.0
H985 H 0.15233 0.68778 0.48347 0.0
H986 H 0.14907 0.59464 0.50963 0.0
H987 H 0.11111 0.66147 0.47776 0.0
H988 H 0.06702 0.56151 0.52077 0.0
H989 H 0.10562 0.59023 0.52692 0.0
H990 H 0.09114 0.62426 0.45148 0.0
H991 H 0.05174 0.59526 0.44537 0.0
C992 C 0.17255 0.63027 0.50794 0.0
C993 C 0.17391 0.65668 0.50076 0.0
C994 C 0.14919 0.61512 0.50438 0.0
C995 C 0.12662 0.62592 0.49335 0.0
C996 C 0.12807 0.65243 0.48615 0.0
C997 C 0.15151 0.66761 0.48976 0.0
C998 C 0.07191 0.57504 0.50534 0.0
C999 C 0.05616 0.57588 0.48243 0.0
C1000 C 0.09425 0.59152 0.50889 0.0
C1001 C 0.10181 0.60943 0.48962 0.0
C1002 C 0.08583 0.61082 0.46685 0.0
C1003 C 0.06324 0.59419 0.46329 0.0
H1004 H 0.81699 0.88232 0.5116 0.0
H1005 H 0.84879 0.81505 0.47136 0.0
H1006 H 0.85734 0.90794 0.50353 0.0
H1007 H 0.88871 0.84104 0.46147 0.0
H1008 H 0.96758 0.88958 0.47133 0.0
H1009 H 0.92806 0.86147 0.47694 0.0
H1010 H 0.88015 0.9296 0.47133 0.0
H1011 H 0.91963 0.95745 0.46736 0.0
C1012 C 0.83278 0.87303 0.50111 0.0
C1013 C 0.82996 0.84663 0.49248 0.0
C1014 C 0.85581 0.88782 0.49598 0.0
C1015 C 0.87646 0.87683 0.48144 0.0
C1016 C 0.87357 0.85024 0.47295 0.0
C1017 C 0.85065 0.83533 0.4785 0.0
C1018 C 0.94851 0.89833 0.47078 0.0
C1019 C 0.94666 0.92569 0.46903 0.0
C1020 C 0.92577 0.88226 0.47408 0.0
C1021 C 0.90068 0.8932 0.47529 0.0
C1022 C 0.89899 0.92041 0.47157 0.0
C1023 C 0.92165 0.93642 0.46885 0.0
H1024 H 0.33324 0.60301 0.50526 0.0
H1025 H 0.37059 0.67426 0.5387 0.0
H1026 H 0.36973 0.57805 0.52062 0.0
H1027 H 0.40816 0.64952 0.55215 0.0
H1028 H 0.46654 0.59337 0.5887 0.0
H1029 H 0.42686 0.61806 0.58015 0.0
H1030 H 0.41277 0.57154 0.50839 0.0
H1031 H 0.45098 0.54681 0.5173 0.0
C1032 C 0.34915 0.61346 0.51588 0.0
C1033 C 0.34887 0.64086 0.52029 0.0
C1034 C 0.37041 0.59912 0.52443 0.0
C1035 C 0.39233 0.61173 0.5373 0.0
C1036 C 0.39173 0.63901 0.54242 0.0
C1037 C 0.37027 0.65332 0.53418 0.0
C1038 C 0.45479 0.58842 0.57125 0.0
C1039 C 0.46196 0.56792 0.55389 0.0
C1040 C 0.43208 0.60261 0.56624 0.0
C1041 C 0.41622 0.59666 0.54367 0.0
C1042 C 0.42376 0.57632 0.52637 0.0
C1043 C 0.44603 0.56215 0.53147 0.0
H1044 H 0.48578 0.65131 0.86276 0.0
H1045 H 0.54467 0.69304 0.91172 0.0
H1046 H 0.49277 0.61151 0.88701 0.0
H1047 H 0.55251 0.65267 0.9347 0.0
H1048 H 0.57375 0.56458 0.95079 0.0
H1049 H 0.56897 0.60351 0.92361 0.0
H1050 H 0.48528 0.60015 0.9367 0.0
H1051 H 0.49002 0.56211 0.96407 0.0
C1052 C 0.50011 0.65222 0.87868 0.0
C1053 C 0.51451 0.67579 0.88513 0.0
C1054 C 0.50432 0.62921 0.89237 0.0
C1055 C 0.52339 0.62891 0.91256 0.0
C1056 C 0.53803 0.6522 0.9189 0.0
C1057 C 0.53348 0.67538 0.90559 0.0
C1058 C 0.55438 0.57211 0.94766 0.0
C1059 C 0.5323 0.56037 0.9597 0.0
C1060 C 0.55165 0.59442 0.93226 0.0
C1061 C 0.52672 0.60484 0.92806 0.0
C1062 C 0.50468 0.59252 0.93945 0.0
C1063 C 0.50747 0.57078 0.95524 0.0
H1064 H 0.48678 0.8409 0.89451 0.0
H1065 H 0.52004 0.87478 0.82493 0.0
H1066 H 0.48351 0.88502 0.91483 0.0
H1067 H 0.51782 0.91895 0.8457 0.0
H1068 H 0.54116 0.98316 0.91401 0.0
H1069 H 0.54039 0.9419 0.88802 0.0
H1070 H 0.45813 0.92934 0.90537 0.0
H1071 H 0.45875 0.97137 0.93088 0.0
C1072 C 0.49337 0.85783 0.88358 0.0
C1073 C 0.50334 0.85442 0.85799 0.0
C1074 C 0.49136 0.88308 0.89514 0.0
C1075 C 0.50004 0.90552 0.88173 0.0
C1076 C 0.51078 0.90206 0.85645 0.0
C1077 C 0.5122 0.87682 0.84463 0.0
C1078 C 0.52271 0.97195 0.91168 0.0
C1079 C 0.49997 0.98059 0.92433 0.0
C1080 C 0.5223 0.94829 0.89682 0.0
C1081 C 0.49928 0.93223 0.89479 0.0
C1082 C 0.47622 0.94125 0.90671 0.0
C1083 C 0.47647 0.96539 0.92107 0.0
H1084 H 0.50049 0.32583 0.64237 0.0
H1085 H 0.54263 0.36061 0.7095 0.0
H1086 H 0.50384 0.3675 0.62022 0.0
H1087 H 0.54796 0.40209 0.68662 0.0
H1088 H 0.53481 0.48021 0.64356 0.0
H1089 H 0.53036 0.44048 0.6697 0.0
H1090 H 0.53466 0.39242 0.59821 0.0
H1091 H 0.53756 0.43182 0.57255 0.0
C1092 C 0.50993 0.34264 0.65265 0.0
C1093 C 0.52056 0.34018 0.678 0.0
C1094 C 0.51254 0.36648 0.63968 0.0
C1095 C 0.52663 0.38836 0.65131 0.0
C1096 C 0.53676 0.38597 0.67701 0.0
C1097 C 0.53373 0.36218 0.69016 0.0
C1098 C 0.53521 0.46107 0.63366 0.0
C1099 C 0.53638 0.45907 0.60605 0.0
C1100 C 0.53257 0.43823 0.64857 0.0
C1101 C 0.5314 0.41297 0.63613 0.0
C1102 C 0.53436 0.41131 0.6086 0.0
C1103 C 0.53647 0.43396 0.59381 0.0
H1104 H 0.53184 0.17458 0.6148 0.0
H1105 H 0.48105 0.14819 0.677 0.0
H1106 H 0.51698 0.13678 0.58715 0.0
H1107 H 0.46525 0.11097 0.64915 0.0
H1108 H 0.46636 0.03125 0.60325 0.0
H1109 H 0.4766 0.07017 0.63122 0.0
H1110 H 0.48274 0.11738 0.56195 0.0
H1111 H 0.47364 0.07821 0.5342 0.0
C1112 C 0.51724 0.16084 0.62241 0.0
C1113 C 0.50781 0.16426 0.64813 0.0
C1114 C 0.50852 0.13919 0.60652 0.0
C1115 C 0.48977 0.1206 0.61577 0.0
C1116 C 0.48003 0.12441 0.64141 0.0
C1117 C 0.48904 0.14585 0.65739 0.0
C1118 C 0.4693 0.05006 0.5941 0.0
C1119 C 0.46918 0.05165 0.56653 0.0
C1120 C 0.47528 0.07248 0.61013 0.0
C1121 C 0.48098 0.0971 0.59896 0.0
C1122 C 0.4793 0.09877 0.57137 0.0
C1123 C 0.47374 0.07634 0.55541 0.0
H1124 H 0.90319 0.48784 0.67465 0.0
H1125 H 0.83984 0.53154 0.64247 0.0
H1126 H 0.92816 0.49443 0.63454 0.0
H1127 H 0.86429 0.53702 0.60183 0.0
H1128 H 0.92727 0.56024 0.53993 0.0
H1129 H 0.9022 0.5578 0.58094 0.0
H1130 H 0.92638 0.47806 0.59011 0.0
H1131 H 0.95133 0.48069 0.54988 0.0
C1132 C 0.89459 0.49895 0.65911 0.0
C1133 C 0.86931 0.50885 0.66183 0.0
C1134 C 0.9088 0.50249 0.63589 0.0
C1135 C 0.89814 0.51598 0.61466 0.0
C1136 C 0.87321 0.5266 0.6177 0.0
C1137 C 0.85901 0.52311 0.64094 0.0
C1138 C 0.9269 0.54218 0.55058 0.0
C1139 C 0.9414 0.52078 0.54159 0.0
C1140 C 0.91262 0.54074 0.57416 0.0
C1141 C 0.91257 0.51784 0.58918 0.0
C1142 C 0.92649 0.49628 0.57961 0.0
C1143 C 0.9407 0.49776 0.55631 0.0
H1144 H 0.1124 0.03206 0.66991 0.0
H1145 H 0.16841 0.9756 0.64356 0.0
H1146 H 0.08369 0.0192 0.63257 0.0
H1147 H 0.13945 0.96193 0.6068 0.0
H1148 H 0.09615 0.96728 0.52712 0.0
H1149 H 0.12413 0.97552 0.56593 0.0
H1150 H 0.05512 0.98679 0.61345 0.0
H1151 H 0.0274 0.97946 0.57439 0.0
C1152 C 0.11838 0.01663 0.65631 0.0
C1153 C 0.14276 0.00505 0.65953 0.0
C1154 C 0.10187 0.0091 0.63492 0.0
C1155 C 0.10916 0.98948 0.61642 0.0
C1156 C 0.13332 0.97747 0.62017 0.0
C1157 C 0.14992 0.98524 0.64134 0.0
C1158 C 0.08697 0.9709 0.54596 0.0
C1159 C 0.05957 0.97264 0.54767 0.0
C1160 C 0.10302 0.97573 0.56831 0.0
C1161 C 0.09202 0.98218 0.59299 0.0
C1162 C 0.06446 0.98261 0.59479 0.0
C1163 C 0.04849 0.97812 0.57241 0.0
H1164 H 0.89297 0.52391 0.82545 0.0
H1165 H 0.82678 0.48422 0.86127 0.0
H1166 H 0.91856 0.52027 0.86571 0.0
H1167 H 0.85301 0.47823 0.90102 0.0
H1168 H 0.9018 0.49074 0.97792 0.0
H1169 H 0.87337 0.49491 0.93926 0.0
H1170 H 0.94149 0.49113 0.88905 0.0
H1171 H 0.96959 0.48882 0.92773 0.0
C1172 C 0.88371 0.51489 0.84222 0.0
C1173 C 0.85757 0.50519 0.84052 0.0
C1174 C 0.89864 0.51206 0.8652 0.0
C1175 C 0.88819 0.49855 0.88687 0.0
C1176 C 0.86183 0.48907 0.88514 0.0
C1177 C 0.84673 0.49244 0.86231 0.0
C1178 C 0.9105 0.49039 0.95852 0.0
C1179 C 0.93789 0.48954 0.95581 0.0
C1180 C 0.89423 0.49284 0.93625 0.0
C1181 C 0.90499 0.49403 0.91073 0.0
C1182 C 0.93233 0.49141 0.9082 0.0
C1183 C 0.94853 0.48962 0.93041 0.0
H1184 H 0.13617 0.00718 0.819 0.0
H1185 H 0.20732 0.04109 0.85454 0.0
H1186 H 0.1136 0.01195 0.86104 0.0
H1187 H 0.18469 0.04622 0.89687 0.0
H1188 H 0.12205 0.07577 0.95881 0.0
H1189 H 0.14806 0.07146 0.91838 0.0
H1190 H 0.11491 0.99284 0.90479 0.0
H1191 H 0.08948 0.99701 0.94464 0.0
C1192 C 0.14714 0.01505 0.83604 0.0
C1193 C 0.17374 0.02286 0.83379 0.0
C1194 C 0.13419 0.01801 0.8601 0.0
C1195 C 0.14738 0.02928 0.88247 0.0
C1196 C 0.17393 0.03753 0.88008 0.0
C1197 C 0.18696 0.03433 0.85598 0.0
C1198 C 0.12072 0.0575 0.9474 0.0
C1199 C 0.10358 0.03686 0.95506 0.0
C1200 C 0.13554 0.055 0.92418 0.0
C1201 C 0.13332 0.03188 0.90811 0.0
C1202 C 0.11674 0.01111 0.91629 0.0
C1203 C 0.10217 0.01354 0.93932 0.0
H1204 H 0.66548 0.89101 0.48455 0.0
H1205 H 0.63633 0.83745 0.54269 0.0
H1206 H 0.62606 0.91636 0.48924 0.0
H1207 H 0.59629 0.86217 0.54679 0.0
H1208 H 0.53651 0.92672 0.56405 0.0
H1209 H 0.57635 0.90106 0.5619 0.0
H1210 H 0.58173 0.91529 0.47854 0.0
H1211 H 0.54293 0.94132 0.48111 0.0
C1212 C 0.65047 0.88447 0.49813 0.0
C1213 C 0.65407 0.86215 0.51316 0.0
C1214 C 0.62771 0.89896 0.50081 0.0
C1215 C 0.60759 0.89131 0.51827 0.0
C1216 C 0.61133 0.869 0.53342 0.0
C1217 C 0.6343 0.85471 0.53098 0.0
C1218 C 0.54614 0.92406 0.54532 0.0
C1219 C 0.53657 0.93613 0.52283 0.0
C1220 C 0.56905 0.90938 0.544 0.0
C1221 C 0.58272 0.90626 0.52006 0.0
C1222 C 0.57247 0.91778 0.49752 0.0
C1223 C 0.54996 0.93262 0.49895 0.0
H1224 H 0.67113 0.20429 0.98306 0.0
H1225 H 0.70736 0.13642 0.01415 0.0
H1226 H 0.62905 0.17924 0.97857 0.0
H1227 H 0.6655 0.11143 0.01005 0.0
H1228 H 0.58181 0.08227 0.02389 0.0
H1229 H 0.62145 0.10998 0.02916 0.0
H1230 H 0.60867 0.14106 0.95209 0.0
H1231 H 0.56882 0.11264 0.94665 0.0
C1232 C 0.66988 0.18416 0.98946 0.0
C1233 C 0.69223 0.17255 0.99982 0.0
C1234 C 0.64592 0.16973 0.9866 0.0
C1235 C 0.64379 0.14335 0.99408 0.0
C1236 C 0.66624 0.13185 0.00457 0.0
C1237 C 0.6902 0.1462 0.00718 0.0
C1238 C 0.58731 0.09501 0.00797 0.0
C1239 C 0.57186 0.09531 0.98482 0.0
C1240 C 0.61018 0.11089 0.01103 0.0
C1241 C 0.61844 0.12767 0.99103 0.0
C1242 C 0.60273 0.12856 0.96804 0.0
C1243 C 0.57975 0.11244 0.96493 0.0
H1244 H 0.33236 0.40092 0.02237 0.0
H1245 H 0.3717 0.3342 0.98941 0.0
H1246 H 0.37371 0.4269 0.02269 0.0
H1247 H 0.41347 0.36001 0.98991 0.0
H1248 H 0.47687 0.42506 0.97008 0.0
H1249 H 0.43655 0.39709 0.9693 0.0
H1250 H 0.41532 0.43034 0.0451 0.0
H1251 H 0.45494 0.45823 0.04566 0.0
C1252 C 0.35007 0.39169 0.01575 0.0
C1253 C 0.34907 0.36537 0.00661 0.0
C1254 C 0.37379 0.40655 0.01583 0.0
C1255 C 0.39713 0.39554 0.00655 0.0
C1256 C 0.39595 0.36921 0.99708 0.0
C1257 C 0.37215 0.35433 0.99706 0.0
C1258 C 0.46367 0.42624 0.98659 0.0
C1259 C 0.46922 0.44408 0.0078 0.0
C1260 C 0.44054 0.41016 0.98622 0.0
C1261 C 0.42242 0.4116 0.00704 0.0
C1262 C 0.42839 0.42904 0.02843 0.0
C1263 C 0.45133 0.44501 0.02878 0.0
H1264 H 0.85758 0.12642 0.98034 0.0
H1265 H 0.8899 0.19163 0.02822 0.0
H1266 H 0.89741 0.10237 0.98784 0.0
H1267 H 0.93012 0.16787 0.03502 0.0
H1268 H 0.98241 0.08259 0.9759 0.0
H1269 H 0.94246 0.10669 0.97298 0.0
H1270 H 0.94968 0.12911 0.05554 0.0
H1271 H 0.99031 0.10456 0.0585 0.0
C1272 C 0.87308 0.13558 0.9926 0.0
C1273 C 0.87056 0.16112 1.00337 0.0
C1274 C 0.89607 0.12189 0.99673 0.0
C1275 C 0.91718 0.1333 0.0118 0.0
C1276 C 0.9143 0.15845 0.02337 0.0
C1277 C 0.89133 0.17219 0.01917 0.0
C1278 C 0.97564 0.09264 0.99355 0.0
C1279 C 0.98966 0.09154 0.01752 0.0
C1280 C 0.95251 0.10636 0.99187 0.0
C1281 C 0.94249 0.11949 0.01409 0.0
C1282 C 0.95686 0.11921 0.038 0.0
C1283 C 0.98021 0.10528 0.03971 0.0
H1284 H 0.99494 0.16138 0.23019 0.0
H1285 H 0.03327 0.22217 0.18557 0.0
H1286 H 0.99525 0.13139 0.19178 0.0
H1287 H 0.03524 0.19181 0.14736 0.0
H1288 H 0.02772 0.13718 0.07716 0.0
H1289 H 0.0134 0.16718 0.11252 0.0
H1290 H 0.02539 0.10671 0.16902 0.0
H1291 H 0.03844 0.077 0.1338 0.0
C1292 C 1.00352 0.16821 0.21206 0.0
C1293 C 0.01408 0.194 0.21075 0.0
C1294 C 1.00385 0.15104 0.19004 0.0
C1295 C 0.01534 0.15901 0.16628 0.0
C1296 C 0.02576 0.18501 0.16504 0.0
C1297 C 0.02503 0.20233 0.18701 0.0
C1298 C 0.02598 0.13006 0.09699 0.0
C1299 C 0.0339 0.10472 0.10276 0.0
C1300 C 0.01834 0.14738 0.11738 0.0
C1301 C 0.01863 0.13964 0.14386 0.0
C1302 C 0.02457 0.1135 0.14904 0.0
C1303 C 0.03206 0.09633 0.12878 0.0
H1304 H 0.979 0.31409 0.17475 0.0
H1305 H 0.04873 0.3571 0.2038 0.0
H1306 H 0.98058 0.33878 0.13465 0.0
H1307 H 0.05135 0.38061 0.16279 0.0
H1308 H 0.0192 0.44176 0.10423 0.0
H1309 H 0.02979 0.41401 0.14073 0.0
H1310 H 1.00271 0.34528 0.09459 0.0
H1311 H 0.99099 0.37346 0.0586 0.0
C1312 C 0.99471 0.3288 0.17262 0.0
C1313 C 0.01361 0.33364 0.1927 0.0
C1314 C 0.99598 0.34261 0.14927 0.0
C1315 C 0.01635 0.36151 0.14518 0.0
C1316 C 0.03536 0.36628 0.16521 0.0
C1317 C 0.03395 0.3526 0.18869 0.0
C1318 C 0.01672 0.4206 0.10146 0.0
C1319 C 1.00429 0.40971 0.07865 0.0
C1320 C 0.02259 0.40462 0.12251 0.0
C1321 C 0.01633 0.37742 0.12097 0.0
C1322 C 0.00695 0.36625 0.09681 0.0
C1323 C 1.00073 0.38229 0.07595 0.0
H1324 H 0.01505 0.7838 0.31685 0.0
H1325 H 0.96773 0.84153 0.28077 0.0
H1326 H 0.01277 0.80771 0.3589 0.0
H1327 H 0.96188 0.86342 0.32312 0.0
H1328 H 0.98854 0.91778 0.39197 0.0
H1329 H 0.97923 0.89112 0.35279 0.0
H1330 H 0.99391 0.82096 0.39618 0.0
H1331 H 0.00614 0.84863 0.43465 0.0
C1332 C 1.00354 0.80128 0.3182 0.0
C1333 C 0.99111 0.81047 0.29574 0.0
C1334 C 1.00174 0.81487 0.34248 0.0
C1335 C 0.98682 0.8377 0.34507 0.0
C1336 C 0.97401 0.84642 0.32237 0.0
C1337 C 0.97686 0.83351 0.29797 0.0
C1338 C 0.98873 0.89657 0.39335 0.0
C1339 C 0.99819 0.88525 0.4162 0.0
C1340 C 0.9835 0.881 0.37064 0.0
C1341 C 0.98668 0.85354 0.37055 0.0
C1342 C 0.99251 0.84203 0.39477 0.0
C1343 C 0.99881 0.85778 0.41718 0.0
H1344 H 0.04159 0.66481 0.29007 0.0
H1345 H 0.97062 0.69946 0.31869 0.0
H1346 H 0.0468 0.64295 0.33171 0.0
H1347 H 0.97488 0.67632 0.35953 0.0
H1348 H 0.99096 0.64797 0.43717 0.0
H1349 H 0.99921 0.67531 0.39931 0.0
H1350 H 0.02878 0.60809 0.35644 0.0
H1351 H 0.02169 0.58131 0.39486 0.0
C1352 C 0.02702 0.66773 0.30519 0.0
C1353 C 0.00568 0.68403 0.30094 0.0
C1354 C 0.02994 0.65501 0.32906 0.0
C1355 C 0.01151 0.65808 0.34928 0.0
C1356 C 0.98992 0.67398 0.34478 0.0
C1357 C 0.98711 0.68684 0.32103 0.0
C1358 C 1.00056 0.63949 0.42013 0.0
C1359 C 0.00564 0.61256 0.4189 0.0
C1360 C 0.00474 0.65496 0.39818 0.0
C1361 C 0.01364 0.64368 0.37438 0.0
C1362 C 0.02175 0.6175 0.3743 0.0
C1363 C 0.01796 0.60213 0.39648 0.0
H1364 H 0.24391 0.9738 0.15879 0.0
H1365 H 0.19316 0.01179 0.21447 0.0
H1366 H 0.20997 0.97502 0.12482 0.0
H1367 H 0.15956 0.01495 0.17996 0.0
H1368 H 0.09822 0.01157 0.11644 0.0
H1369 H 0.12747 0.99513 0.15037 0.0
H1370 H 0.19358 0.00697 0.09854 0.0
H1371 H 0.16432 0.02202 0.06482 0.0
C1372 C 0.22527 0.98221 0.16375 0.0
C1373 C 0.22092 0.99236 0.18929 0.0
C1374 C 0.20587 0.9832 0.14422 0.0
C1375 C 0.18192 0.99524 0.14943 0.0
C1376 C 0.17748 0.00508 0.17522 0.0
C1377 C 0.19678 1.00357 0.19496 0.0
C1378 C 0.11882 0.00937 0.11201 0.0
C1379 C 0.12901 0.01773 0.08793 0.0
C1380 C 0.1357 1.00048 0.13161 0.0
C1381 C 0.16306 1.00001 0.12748 0.0
C1382 C 0.17272 0.00663 0.10255 0.0
C1383 C 0.15591 0.01532 0.08309 0.0
H1384 H 0.83061 0.47568 0.20637 0.0
H1385 H 0.80344 0.54694 0.17278 0.0
H1386 H 0.87098 0.47999 0.18158 0.0
H1387 H 0.84467 0.5521 0.14904 0.0
H1388 H 0.90586 0.52659 0.08465 0.0
H1389 H 0.86816 0.53375 0.11293 0.0
H1390 H 0.91129 0.50442 0.17893 0.0
H1391 H 0.94837 0.49616 0.15019 0.0
C1392 C 0.83317 0.49226 0.19364 0.0
C1393 C 0.81357 0.51086 0.19158 0.0
C1394 C 0.85667 0.49508 0.17979 0.0
C1395 C 0.86145 0.51669 0.16356 0.0
C1396 C 0.84178 0.53522 0.16131 0.0
C1397 C 0.81815 0.53233 0.17511 0.0
C1398 C 0.90771 0.52289 0.10548 0.0
C1399 C 0.92994 0.51065 0.11521 0.0
C1400 C 0.88594 0.52673 0.12172 0.0
C1401 C 0.88626 0.51875 0.14806 0.0
C1402 C 0.90994 0.50986 0.15852 0.0
C1403 C 0.93145 0.50565 0.14221 0.0
H1404 H 0.21035 0.03209 0.34674 0.0
H1405 H 0.18176 0.96248 0.30296 0.0
H1406 H 0.16777 0.03532 0.36789 0.0
H1407 H 0.14003 0.96465 0.32533 0.0
H1408 H 0.06193 0.97583 0.35499 0.0
H1409 H 0.10063 0.9869 0.32904 0.0
H1410 H 0.14148 0.01504 0.40006 0.0
H1411 H 0.1022 0.00523 0.42552 0.0
C1412 C 0.19504 0.01744 0.34158 0.0
C1413 C 0.19967 0.99696 0.32307 0.0
C1414 C 0.17061 0.0192 0.35392 0.0
C1415 C 0.15018 1.00043 0.34824 0.0
C1416 C 0.15493 0.97991 0.32984 0.0
C1417 C 0.17921 0.97828 0.31736 0.0
C1418 C 0.07875 0.98568 0.36474 0.0
C1419 C 0.07909 0.98971 0.39221 0.0
C1420 C 0.10118 0.99151 0.35001 0.0
C1421 C 0.12463 1.00091 0.36254 0.0
C1422 C 0.12391 0.00775 0.38963 0.0
C1423 C 0.10125 1.00235 0.40429 0.0
H1424 H 0.7946 0.47079 0.3492 0.0
H1425 H 0.82887 0.52022 0.29024 0.0
H1426 H 0.83738 0.46627 0.36935 0.0
H1427 H 0.87137 0.51911 0.31239 0.0
H1428 H 0.94833 0.51334 0.34987 0.0
H1429 H 0.90903 0.50122 0.32386 0.0
H1430 H 0.86751 0.48442 0.39597 0.0
H1431 H 0.90739 0.49377 0.42093 0.0
C1432 C 0.81149 0.48063 0.34049 0.0
C1433 C 0.80861 0.49513 0.31763 0.0
C1434 C 0.83615 0.47856 0.35243 0.0
C1435 C 0.85848 0.49232 0.34285 0.0
C1436 C 0.85524 0.50741 0.32018 0.0
C1437 C 0.8307 0.50851 0.30759 0.0
C1438 C 0.93105 0.50566 0.35979 0.0
C1439 C 0.9309 0.50435 0.38735 0.0
C1440 C 0.90817 0.49939 0.34501 0.0
C1441 C 0.88429 0.4928 0.35759 0.0
C1442 C 0.88508 0.48921 0.38506 0.0
C1443 C 0.90821 0.49448 0.39963 0.0
H1444 H 0.2405 0.19986 0.00593 0.0
H1445 H 0.18327 0.24563 0.9666 0.0
H1446 H 0.20952 0.16187 0.00473 0.0
H1447 H 0.15303 0.20745 0.96342 0.0
H1448 H 0.09449 0.15181 0.00517 0.0
H1449 H 0.12592 0.18583 0.99248 0.0
H1450 H 0.18501 0.12754 0.98193 0.0
H1451 H 0.15323 0.09348 0.99597 0.0
C1452 C 0.22151 0.20149 0.99642 0.0
C1453 C 0.21433 0.22549 0.98615 0.0
C1454 C 0.20382 0.17968 0.99543 0.0
C1455 C 0.1786 0.18143 0.98396 0.0
C1456 C 0.17201 0.20533 0.97277 0.0
C1457 C 0.18944 0.22718 0.97429 0.0
C1458 C 0.11389 0.14613 0.99906 0.0
C1459 C 0.12135 0.12003 1.00122 0.0
C1460 C 0.13207 0.16569 0.99179 0.0
C1461 C 0.1583 0.15965 0.98643 0.0
C1462 C 0.16514 0.13303 0.98638 0.0
C1463 C 0.14683 0.11339 0.99385 0.0
H1464 H 0.14392 0.78661 0.48147 0.0
H1465 H 0.20531 0.82466 0.52974 0.0
H1466 H 0.11798 0.82616 0.48574 0.0
H1467 H 0.17954 0.86427 0.53374 0.0
H1468 H 0.06889 0.89257 0.5116 0.0
H1469 H 0.09501 0.85489 0.52263 0.0
H1470 H 0.16531 0.89687 0.49784 0.0
H1471 H 0.1391 0.93413 0.48616 0.0
C1472 C 0.15179 0.80341 0.493 0.0
C1473 C 0.17657 0.80263 0.50523 0.0
C1474 C 0.13686 0.82588 0.49574 0.0
C1475 C 0.14666 0.84813 0.51037 0.0
C1476 C 0.17146 0.84733 0.52256 0.0
C1477 C 0.18616 0.82472 0.52022 0.0
C1478 C 0.09009 0.89426 0.50986 0.0
C1479 C 0.10204 0.9162 0.49805 0.0
C1480 C 0.10496 0.87254 0.51575 0.0
C1481 C 0.13205 0.87283 0.51056 0.0
C1482 C 0.14445 0.89612 0.50199 0.0
C1483 C 0.12951 0.91755 0.49555 0.0
H1484 H 0.81324 0.68096 0.53968 0.0
H1485 H 0.83999 0.69509 0.46051 0.0
H1486 H 0.83847 0.64097 0.5403 0.0
H1487 H 0.86407 0.65444 0.46105 0.0
H1488 H 0.86549 0.56118 0.46715 0.0
H1489 H 0.83768 0.59816 0.47758 0.0
H1490 H 0.90137 0.63666 0.52206 0.0
H1491 H 0.92959 0.59987 0.51119 0.0
C1492 C 0.8246 0.67578 0.52249 0.0
C1493 C 0.82455 0.69151 0.50003 0.0
C1494 C 0.83886 0.65276 0.52289 0.0
C1495 C 0.85309 0.64482 0.50076 0.0
C1496 C 0.85311 0.66028 0.47833 0.0
C1497 C 0.83913 0.68343 0.47799 0.0
C1498 C 0.87322 0.57695 0.48017 0.0
C1499 C 0.89971 0.57754 0.48845 0.0
C1500 C 0.85735 0.59816 0.48593 0.0
C1501 C 0.86757 0.62018 0.50037 0.0
C1502 C 0.89313 0.61973 0.51097 0.0
C1503 C 0.90913 0.59852 0.50505 0.0
H1504 H 0.33726 0.78294 0.47016 0.0
H1505 H 0.27814 0.81875 0.51805 0.0
H1506 H 0.36027 0.82507 0.46646 0.0
H1507 H 0.30298 0.8605 0.51787 0.0
H1508 H 0.34526 0.93622 0.51371 0.0
H1509 H 0.31756 0.89792 0.50056 0.0
H1510 H 0.38768 0.85437 0.48501 0.0
H1511 H 0.41448 0.89342 0.49528 0.0
C1512 C 0.32918 0.80003 0.4799 0.0
C1513 C 0.30544 0.7978 0.49365 0.0
C1514 C 0.34272 0.8243 0.47828 0.0
C1515 C 0.33385 0.84685 0.49183 0.0
C1516 C 0.31033 0.84422 0.5063 0.0
C1517 C 0.29617 0.8201 0.50689 0.0
C1518 C 0.35445 0.91876 0.50599 0.0
C1519 C 0.38192 0.91775 0.50529 0.0
C1520 C 0.33864 0.89643 0.49918 0.0
C1521 C 0.35005 0.87222 0.49272 0.0
C1522 C 0.37763 0.87223 0.48968 0.0
C1523 C 0.39328 0.89486 0.49544 0.0
H1524 H 0.48309 0.66696 0.76115 0.0
H1525 H 0.52174 0.7196 0.7077 0.0
H1526 H 0.47962 0.63276 0.72644 0.0
H1527 H 0.51989 0.68495 0.67312 0.0
H1528 H 0.50416 0.62412 0.60946 0.0
H1529 H 0.49444 0.65856 0.64238 0.0
H1530 H 0.50545 0.6033 0.70424 0.0
H1531 H 0.51391 0.56921 0.67146 0.0
C1532 C 0.49104 0.67105 0.74191 0.0
C1533 C 0.50266 0.69586 0.73704 0.0
C1534 C 0.48917 0.65144 0.72197 0.0
C1535 C 0.49943 0.65588 0.69673 0.0
C1536 C 0.51123 0.68082 0.69201 0.0
C1537 C 0.51271 0.70059 0.71191 0.0
C1538 C 0.50306 0.61912 0.63002 0.0
C1539 C 0.50951 0.59392 0.63789 0.0
C1540 C 0.49816 0.63901 0.649 0.0
C1541 C 0.4997 0.63405 0.67619 0.0
C1542 C 0.50383 0.6081 0.68368 0.0
C1543 C 0.5086 0.58837 0.6648 0.0
H1544 H 0.48229 0.86805 0.71885 0.0
H1545 H 0.52572 0.80471 0.68415 0.0
H1546 H 0.48322 0.89036 0.67674 0.0
H1547 H 0.52635 0.82685 0.64193 0.0
H1548 H 0.5044 0.9343 0.60533 0.0
H1549 H 0.51788 0.91143 0.64465 0.0
H1550 H 0.48801 0.83783 0.60961 0.0
H1551 H 0.47407 0.8608 0.57056 0.0
C1552 C 0.49201 0.85896 0.70221 0.0
C1553 C 0.50387 0.83469 0.70468 0.0
C1554 C 0.49285 0.87182 0.67825 0.0
C1555 C 0.50515 0.86043 0.6562 0.0
C1556 C 0.51692 0.83611 0.65867 0.0
C1557 C 0.51652 0.82349 0.68276 0.0
C1558 C 0.502 0.91305 0.60547 0.0
C1559 C 0.48836 0.89924 0.58488 0.0
C1560 C 0.50932 0.90005 0.62813 0.0
C1561 C 0.50353 0.87299 0.63029 0.0
C1562 C 0.49271 0.8587 0.60843 0.0
C1563 C 0.48495 0.87178 0.58599 0.0
H1564 H 0.54983 0.32637 0.84123 0.0
H1565 H 0.48683 0.36312 0.80032 0.0
H1566 H 0.54344 0.35559 0.87957 0.0
H1567 H 0.48011 0.392 0.8388 0.0
H1568 H 0.51315 0.46098 0.89666 0.0
H1569 H 0.50597 0.42888 0.86048 0.0
H1570 H 0.51112 0.36584 0.91519 0.0
H1571 H 0.51829 0.39826 0.95146 0.0
C1572 C 0.53469 0.34075 0.84042 0.0
C1573 C 0.51895 0.34256 0.81774 0.0
C1574 C 0.53069 0.35715 0.86252 0.0
C1575 C 0.511 0.37586 0.86233 0.0
C1576 C 0.49535 0.37773 0.83958 0.0
C1577 C 0.49921 0.3612 0.81758 0.0
C1578 C 0.51132 0.44029 0.90109 0.0
C1579 C 0.51601 0.43203 0.92678 0.0
C1580 C 0.50743 0.42187 0.88036 0.0
C1581 C 0.50855 0.39483 0.88493 0.0
C1582 C 0.51059 0.38658 0.91106 0.0
C1583 C 0.51418 0.40509 0.93189 0.0
H1584 H 0.51404 0.2339 0.8326 0.0
H1585 H 0.55978 0.17715 0.79044 0.0
H1586 H 0.51647 0.20799 0.87205 0.0
H1587 H 0.5651 0.15271 0.83033 0.0
H1588 H 0.53272 0.09592 0.89194 0.0
H1589 H 0.54478 0.12397 0.85618 0.0
H1590 H 0.53713 0.19253 0.90783 0.0
H1591 H 0.52267 0.16385 0.9429 0.0
C1592 C 0.52517 0.21616 0.83206 0.0
C1593 C 0.53708 0.20779 0.80866 0.0
C1594 C 0.52703 0.2014 0.85482 0.0
C1595 C 0.5413 0.17808 0.8549 0.0
C1596 C 0.55359 0.17015 0.83135 0.0
C1597 C 0.55093 0.18442 0.80844 0.0
C1598 C 0.53501 0.11693 0.896 0.0
C1599 C 0.52677 0.12771 0.92013 0.0
C1600 C 0.54169 0.13328 0.87527 0.0
C1601 C 0.541 0.1609 0.87848 0.0
C1602 C 0.53671 0.17148 0.90403 0.0
C1603 C 0.52924 0.15504 0.92452 0.0
H1604 H 0.68936 0.51449 0.73866 0.0
H1605 H 0.73632 0.47735 0.679 0.0
H1606 H 0.65177 0.51349 0.70796 0.0
H1607 H 0.69874 0.47489 0.64882 0.0
H1608 H 0.64334 0.51849 0.59387 0.0
H1609 H 0.67736 0.5062 0.62424 0.0
H1610 H 0.61831 0.48812 0.68237 0.0
H1611 H 0.584 0.50121 0.65156 0.0
C1612 C 0.69138 0.50571 0.71911 0.0
C1613 C 0.71553 0.49592 0.71112 0.0
C1614 C 0.66985 0.5048 0.70162 0.0
C1615 C 0.67215 0.49404 0.67586 0.0
C1616 C 0.69627 0.48358 0.66834 0.0
C1617 C 0.71777 0.48485 0.68562 0.0
C1618 C 0.63755 0.51093 0.61277 0.0
C1619 C 0.61113 0.51076 0.6204 0.0
C1620 C 0.65708 0.50387 0.63029 0.0
C1621 C 0.65069 0.49648 0.65599 0.0
C1622 C 0.62393 0.49415 0.66287 0.0
C1623 C 0.60424 0.50115 0.64512 0.0
H1624 H 0.32683 0.99921 0.72186 0.0
H1625 H 0.28791 0.04589 0.66501 0.0
H1626 H 0.36506 0.99711 0.69353 0.0
H1627 H 0.32701 0.04689 0.63809 0.0
H1628 H 0.38465 0.01184 0.57917 0.0
H1629 H 0.35018 0.02469 0.60878 0.0
H1630 H 0.402 0.01371 0.67545 0.0
H1631 H 0.43544 0.99828 0.64525 0.0
C1632 C 0.32682 0.00959 0.70354 0.0
C1633 C 0.30465 0.02311 0.69589 0.0
C1634 C 0.34895 0.00882 0.68734 0.0
C1635 C 0.34972 0.02209 0.66327 0.0
C1636 C 0.32744 0.03599 0.65604 0.0
C1637 C 0.30503 0.03588 0.67176 0.0
C1638 C 0.38898 0.01328 0.60012 0.0
C1639 C 0.41268 1.0042 0.60994 0.0
C1640 C 0.36903 0.02052 0.61737 0.0
C1641 C 0.37263 0.01958 0.64495 0.0
C1642 C 0.39778 0.01363 0.65452 0.0
C1643 C 0.41736 0.00548 0.63722 0.0
H1644 H 0.69023 0.48429 0.83331 0.0
H1645 H 0.73736 0.54603 0.87299 0.0
H1646 H 0.65467 0.49159 0.86439 0.0
H1647 H 0.70162 0.55366 0.90379 0.0
H1648 H 0.64833 0.52107 0.97294 0.0
H1649 H 0.6818 0.52815 0.93967 0.0
H1650 H 0.62158 0.52424 0.87902 0.0
H1651 H 0.58798 0.51728 0.91266 0.0
C1652 C 0.693 0.49938 0.84869 0.0
C1653 C 0.71669 0.51443 0.85079 0.0
C1654 C 0.67246 0.50391 0.86622 0.0
C1655 C 0.67519 0.52344 0.88639 0.0
C1656 C 0.69887 0.53853 0.88844 0.0
C1657 C 0.71932 0.53415 0.87079 0.0
C1658 C 0.64215 0.52316 0.95265 0.0
C1659 C 0.61563 0.51875 0.94534 0.0
C1660 C 0.66134 0.52699 0.93352 0.0
C1661 C 0.6544 0.52614 0.90664 0.0
C1662 C 0.62754 0.52453 0.89957 0.0
C1663 C 0.60825 0.52106 0.91883 0.0
H1664 H 0.3404 0.04627 0.80708 0.0
H1665 H 0.30673 0.98026 0.84833 0.0
H1666 H 0.3816 0.04207 0.83065 0.0
H1667 H 0.34863 0.97515 0.87108 0.0
H1668 H 0.41166 0.01133 0.93305 0.0
H1669 H 0.3742 0.99775 0.9051 0.0
H1670 H 0.4195 0.01661 0.83613 0.0
H1671 H 0.45642 0.03138 0.86447 0.0
C1672 C 0.34178 0.03082 0.82118 0.0
C1673 C 0.32009 0.01382 0.82597 0.0
C1674 C 0.36568 0.02798 0.83432 0.0
C1675 C 0.36869 0.00796 0.85255 0.0
C1676 C 0.34707 0.99075 0.85718 0.0
C1677 C 0.32307 0.99364 0.84405 0.0
C1678 C 0.4141 0.01101 0.91186 0.0
C1679 C 0.43675 0.02257 0.90086 0.0
C1680 C 0.39247 1.00351 0.89575 0.0
C1681 C 0.39346 0.00714 0.86838 0.0
C1682 C 0.41776 0.01449 0.85721 0.0
C1683 C 0.43918 0.02237 0.87337 0.0
H1684 H 0.71214 0.68583 0.52538 0.0
H1685 H 0.65146 0.73407 0.4955 0.0
H1686 H 0.68005 0.64928 0.52958 0.0
H1687 H 0.61964 0.69721 0.49761 0.0
H1688 H 0.56534 0.64146 0.54355 0.0
H1689 H 0.59592 0.67529 0.52884 0.0
H1690 H 0.65231 0.61608 0.51013 0.0
H1691 H 0.62173 0.58224 0.52663 0.0
C1692 C 0.69191 0.6884 0.51946 0.0
C1693 C 0.68412 0.71268 0.51033 0.0
C1694 C 0.67356 0.66737 0.52142 0.0
C1695 C 0.64707 0.67009 0.5139 0.0
C1696 C 0.63964 0.69436 0.50407 0.0
C1697 C 0.65785 0.71549 0.50269 0.0
C1698 C 0.58396 0.63559 0.53548 0.0
C1699 C 0.59109 0.60924 0.53602 0.0
C1700 C 0.60161 0.65504 0.52696 0.0
C1701 C 0.62691 0.64865 0.51852 0.0
C1702 C 0.63324 0.62187 0.51702 0.0
C1703 C 0.61554 0.60235 0.52589 0.0
H1704 H 0.66656 0.29438 0.04588 0.0
H1705 H 0.70437 0.33894 0.98487 0.0
H1706 H 0.63846 0.33121 0.05598 0.0
H1707 H 0.67594 0.37555 0.9946 0.0
H1708 H 0.63415 0.4444 0.02448 0.0
H1709 H 0.66598 0.40981 0.02896 0.0
H1710 H 0.60208 0.35182 0.03291 0.0
H1711 H 0.57059 0.38633 0.02841 0.0
C1712 C 0.66891 0.31208 0.03466 0.0
C1713 C 0.6876 0.31369 0.01446 0.0
C1714 C 0.6528 0.33315 0.04045 0.0
C1715 C 0.65515 0.35643 0.02632 0.0
C1716 C 0.67397 0.35809 0.00622 0.0
C1717 C 0.68994 0.33694 1.0003 0.0
C1718 C 0.627 0.42446 0.02783 0.0
C1719 C 0.59997 0.41799 0.02635 0.0
C1720 C 0.64519 0.40458 0.02984 0.0
C1721 C 0.63654 0.378 0.03068 0.0
C1722 C 0.60943 0.37204 0.03233 0.0
C1723 C 0.59133 0.39185 0.03002 0.0
H1724 H 0.37813 0.23594 0.97076 0.0
H1725 H 0.3291 0.20084 0.03021 0.0
H1726 H 0.40677 0.19861 0.9721 0.0
H1727 H 0.35829 0.16407 0.03231 0.0
H1728 H 0.39826 0.08804 1.00054 0.0
H1729 H 0.37034 0.126 0.00592 0.0
H1730 H 0.43879 0.17822 0.99942 0.0
H1731 H 0.46632 0.14015 0.9935 0.0
C1732 C 0.37348 0.22032 0.98416 0.0
C1733 C 0.35129 0.22151 1.00039 0.0
C1734 C 0.39011 0.19904 0.98521 0.0
C1735 C 0.38499 0.17835 1.00248 0.0
C1736 C 0.3628 0.17955 0.0187 0.0
C1737 C 0.3462 0.20082 0.01767 0.0
C1738 C 0.40731 0.10766 1.00124 0.0
C1739 C 0.43439 0.11131 0.99723 0.0
C1740 C 0.39137 0.12944 1.00415 0.0
C1741 C 0.40226 0.15525 1.00281 0.0
C1742 C 0.42966 0.15869 1.00013 0.0
C1743 C 0.44552 0.13694 0.99721 0.0
H1744 H 0.85042 0.30282 0.96774 0.0
H1745 H 0.7943 0.33669 0.02061 0.0
H1746 H 0.87362 0.345 0.96503 0.0
H1747 H 0.81942 0.37833 0.02115 0.0
H1748 H 0.86174 0.45415 0.01785 0.0
H1749 H 0.83325 0.41649 1.00449 0.0
H1750 H 0.90224 0.37303 0.98407 0.0
H1751 H 0.92976 0.41154 0.99471 0.0
C1752 C 0.84306 0.31949 0.97881 0.0
C1753 C 0.8201 0.31673 0.99374 0.0
C1754 C 0.85671 0.34375 0.97771 0.0
C1755 C 0.84875 0.36568 0.99286 0.0
C1756 C 0.826 0.36253 0.00842 0.0
C1757 C 0.81171 0.33847 0.00856 0.0
C1758 C 0.87047 0.43689 0.00911 0.0
C1759 C 0.89786 0.43573 0.00715 0.0
C1760 C 0.85424 0.41492 1.00212 0.0
C1761 C 0.86517 0.39089 0.99415 0.0
C1762 C 0.89257 0.39081 0.98993 0.0
C1763 C 0.90862 0.41311 0.99592 0.0
loop_
_geom_bond_atom_site_label_1
_geom_bond_atom_site_label_2
_geom_bond_distance
_geom_bond_site_symmetry_2
_ccdc_geom_bond_type
C0 C1 1.443 . S
C0 N4 1.376 . S
C0 C38 1.389 . S
C1 C0 1.443 . S
C1 C2 1.340 . S
C1 H41 0.951 . S
C2 C1 1.340 . S
C2 C3 1.439 . S
C2 H42 0.950 . S
C3 C2 1.439 . S
C3 N4 1.374 . S
C3 C37 1.395 . S
N4 C0 1.376 . S
N4 C3 1.374 . S
N4 Co5 2.008 1_655 S
Co5 N4 2.008 1_455 S
Co5 N6 1.995 1_455 S
Co5 N11 2.008 . S
Co5 N16 1.995 . S
Co5 N21 2.282 . S
Co5 N27 2.282 . S
N6 Co5 1.995 1_655 S
N6 C7 1.376 . S
N6 C10 1.383 . S
C7 N6 1.376 . S
C7 C8 1.446 . S
C7 C37 1.391 . S
C8 C7 1.446 . S
C8 C9 1.339 . S
C8 H43 0.949 . S
C9 C8 1.339 . S
C9 C10 1.439 . S
C9 H44 0.950 . S
C10 N6 1.383 . S
C10 C9 1.439 . S
C10 C39 1.392 1_655 S
N11 Co5 2.008 . S
N11 C12 1.376 . S
N11 C15 1.374 . S
C12 N11 1.376 . S
C12 C13 1.443 . S
C12 C39 1.389 . S
C13 C12 1.443 . S
C13 C14 1.340 . S
C13 H45 0.951 . S
C14 C13 1.340 . S
C14 C15 1.439 . S
C14 H46 0.950 . S
C15 N11 1.374 . S
C15 C14 1.439 . S
C15 C40 1.395 . S
N16 Co5 1.995 . S
N16 C17 1.376 . S
N16 C20 1.383 . S
C17 N16 1.376 . S
C17 C18 1.446 . S
C17 C40 1.391 . S
C18 C17 1.446 . S
C18 C19 1.339 . S
C18 H47 0.949 . S
C19 C18 1.339 . S
C19 C20 1.439 . S
C19 H48 0.950 . S
C20 N16 1.383 . S
C20 C19 1.439 . S
C20 C38 1.392 1_455 S
N21 Co5 2.282 . S
N21 C24 1.332 . S
N21 C26 1.332 1_455 S
C22 C23 1.386 . S
C22 C25 1.388 . S
C23 C22 1.386 . S
C23 C24 1.382 . S
C23 H49 0.950 . S
C24 N21 1.332 . S
C24 C23 1.382 . S
C24 H35 0.952 . S
C25 C22 1.388 . S
C25 C26 1.382 1_455 S
C25 H50 0.950 1_455 S
C26 N21 1.332 1_655 S
C26 C25 1.382 1_655 S
C26 H36 0.948 . S
N27 Co5 2.282 . S
N27 C31 1.332 1_455 S
N27 C32 1.332 . S
C28 C29 1.388 1_455 S
C28 C32 1.382 . S
C28 H51 0.950 . S
C29 C28 1.388 1_655 S
C29 C30 1.386 . S
C30 C29 1.386 . S
C30 C31 1.382 . S
C30 H52 0.950 . S
C31 N27 1.332 1_655 S
C31 C30 1.382 . S
C31 H33 0.952 . S
C32 N27 1.332 . S
C32 C28 1.382 . S
C32 H34 0.948 . S
H33 C31 0.952 . S
H34 C32 0.948 . S
H35 C24 0.952 . S
H36 C26 0.948 . S
C37 C3 1.395 . S
C37 C7 1.391 . S
C38 C0 1.389 . S
C38 C20 1.392 1_655 S
C39 C10 1.392 1_455 S
C39 C12 1.389 . S
C40 C15 1.395 . S
C40 C17 1.391 . S
H41 C1 0.951 . S
H42 C2 0.950 . S
H43 C8 0.949 . S
H44 C9 0.950 . S
H45 C13 0.951 . S
H46 C14 0.950 . S
H47 C18 0.949 . S
H48 C19 0.950 . S
H49 C23 0.950 . S
H50 C25 0.950 1_655 S
H51 C28 0.950 . S
H52 C30 0.950 . S
C53 C54 1.443 . S
C53 N57 1.376 . S
C53 C91 1.389 . S
C54 C53 1.443 . S
C54 C55 1.340 . S
C54 H94 0.951 . S
C55 C54 1.340 . S
C55 C56 1.439 . S
C55 H95 0.950 . S
C56 C55 1.439 . S
C56 N57 1.374 . S
C56 C90 1.395 . S
N57 C53 1.376 . S
N57 C56 1.374 . S
N57 Co58 2.008 1_655 S
Co58 N57 2.008 1_455 S
Co58 N59 1.995 1_455 S
Co58 N64 2.008 . S
Co58 N69 1.995 . S
Co58 N74 2.282 . S
Co58 N80 2.282 1_455 S
N59 Co58 1.995 1_655 S
N59 C60 1.376 . S
N59 C63 1.383 . S
C60 N59 1.376 . S
C60 C61 1.446 . S
C60 C90 1.391 . S
C61 C60 1.446 . S
C61 C62 1.339 . S
C61 H96 0.949 . S
C62 C61 1.339 . S
C62 C63 1.439 . S
C62 H97 0.950 . S
C63 N59 1.383 . S
C63 C62 1.439 . S
C63 C92 1.392 1_655 S
N64 Co58 2.008 . S
N64 C65 1.376 . S
N64 C68 1.374 . S
C65 N64 1.376 . S
C65 C66 1.443 . S
C65 C92 1.389 . S
C66 C65 1.443 . S
C66 C67 1.340 . S
C66 H98 0.951 . S
C67 C66 1.340 . S
C67 C68 1.439 . S
C67 H99 0.950 . S
C68 N64 1.374 . S
C68 C67 1.439 . S
C68 C93 1.395 . S
N69 Co58 1.995 . S
N69 C70 1.376 . S
N69 C73 1.383 . S
C70 N69 1.376 . S
C70 C71 1.446 . S
C70 C93 1.391 . S
C71 C70 1.446 . S
C71 C72 1.339 . S
C71 H100 0.949 . S
C72 C71 1.339 . S
C72 C73 1.439 . S
C72 H101 0.950 . S
C73 N69 1.383 . S
C73 C72 1.439 . S
C73 C91 1.392 1_455 S
N74 Co58 2.282 . S
N74 C77 1.332 . S
N74 C79 1.332 1_455 S
C75 C76 1.386 . S
C75 C78 1.388 1_455 S
C76 C75 1.386 . S
C76 C77 1.382 . S
C76 H102 0.950 . S
C77 N74 1.332 . S
C77 C76 1.382 . S
C77 H88 0.952 . S
C78 C75 1.388 1_655 S
C78 C79 1.382 . S
C78 H103 0.950 . S
C79 N74 1.332 1_655 S
C79 C78 1.382 . S
C79 H89 0.948 . S
N80 Co58 2.282 1_655 S
N80 C84 1.332 . S
N80 C85 1.332 1_655 S
C81 C82 1.388 1_455 S
C81 C85 1.382 . S
C81 H104 0.950 . S
C82 C81 1.388 1_655 S
C82 C83 1.386 . S
C83 C82 1.386 . S
C83 C84 1.382 . S
C83 H105 0.950 . S
C84 N80 1.332 . S
C84 C83 1.382 . S
C84 H86 0.952 . S
C85 N80 1.332 1_455 S
C85 C81 1.382 . S
C85 H87 0.948 . S
H86 C84 0.952 . S
H87 C85 0.948 . S
H88 C77 0.952 . S
H89 C79 0.948 . S
C90 C56 1.395 . S
C90 C60 1.391 . S
C91 C53 1.389 . S
C91 C73 1.392 1_655 S
C92 C63 1.392 1_455 S
C92 C65 1.389 . S
C93 C68 1.395 . S
C93 C70 1.391 . S
H94 C54 0.951 . S
H95 C55 0.950 . S
H96 C61 0.949 . S
H97 C62 0.950 . S
H98 C66 0.951 . S
H99 C67 0.950 . S
H100 C71 0.949 . S
H101 C72 0.950 . S
H102 C76 0.950 . S
H103 C78 0.950 . S
H104 C81 0.950 . S
H105 C83 0.950 . S
C106 C107 1.443 . S
C106 N110 1.376 . S
C106 C144 1.389 . S
C107 C106 1.443 . S
C107 C108 1.340 . S
C107 H147 0.951 . S
C108 C107 1.340 . S
C108 C109 1.439 . S
C108 H148 0.950 . S
C109 C108 1.439 . S
C109 N110 1.374 . S
C109 C143 1.395 . S
N110 C106 1.376 . S
N110 C109 1.374 . S
N110 Co111 2.008 1_565 S
Co111 N110 2.008 1_545 S
Co111 N112 1.995 1_545 S
Co111 N117 2.008 . S
Co111 N122 1.995 . S
Co111 N127 2.282 . S
Co111 N133 2.282 . S
N112 Co111 1.995 1_565 S
N112 C113 1.376 . S
N112 C116 1.383 . S
C113 N112 1.376 . S
C113 C114 1.446 . S
C113 C143 1.391 . S
C114 C113 1.446 . S
C114 C115 1.339 . S
C114 H149 0.949 . S
C115 C114 1.339 . S
C115 C116 1.439 . S
C115 H150 0.950 . S
C116 N112 1.383 . S
C116 C115 1.439 . S
C116 C145 1.392 1_565 S
N117 Co111 2.008 . S
N117 C118 1.376 . S
N117 C121 1.374 . S
C118 N117 1.376 . S
C118 C119 1.443 . S
C118 C145 1.389 . S
C119 C118 1.443 . S
C119 C120 1.340 . S
C119 H151 0.951 . S
C120 C119 1.340 . S
C120 C121 1.439 . S
C120 H152 0.950 . S
C121 N117 1.374 . S
C121 C120 1.439 . S
C121 C146 1.395 . S
N122 Co111 1.995 . S
N122 C123 1.376 . S
N122 C126 1.383 . S
C123 N122 1.376 . S
C123 C124 1.446 . S
C123 C146 1.391 . S
C124 C123 1.446 . S
C124 C125 1.339 . S
C124 H153 0.949 . S
C125 C124 1.339 . S
C125 C126 1.439 . S
C125 H154 0.950 . S
C126 N122 1.383 . S
C126 C125 1.439 . S
C126 C144 1.392 1_545 S
N127 Co111 2.282 . S
N127 C130 1.332 . S
N127 C132 1.312 1_545 S
C128 C129 1.386 . S
C128 C131 1.388 . S
C129 C128 1.386 . S
C129 C130 1.382 . S
C129 H155 0.950 . S
C130 N127 1.332 . S
C130 C129 1.382 . S
C130 H141 0.952 . S
C131 C128 1.388 . S
C131 C132 1.376 1_545 S
C131 H156 0.950 1_545 S
C132 N127 1.312 1_565 S
C132 C131 1.376 1_565 S
C132 H142 0.977 . S
N133 Co111 2.282 . S
N133 C137 1.332 1_545 S
N133 C138 1.332 . S
C134 C135 1.388 1_545 S
C134 C138 1.382 . S
C134 H157 0.950 . S
C135 C134 1.388 1_565 S
C135 C136 1.386 . S
C136 C135 1.386 . S
C136 C137 1.382 . S
C136 H158 0.950 . S
C137 N133 1.332 1_565 S
C137 C136 1.382 . S
C137 H139 0.952 . S
C138 N133 1.332 . S
C138 C134 1.382 . S
C138 H140 0.948 . S
H139 C137 0.952 . S
H140 C138 0.948 . S
H141 C130 0.952 . S
H142 C132 0.977 . S
C143 C109 1.395 . S
C143 C113 1.391 . S
C144 C106 1.389 . S
C144 C126 1.392 1_565 S
C145 C116 1.392 1_545 S
C145 C118 1.389 . S
C146 C121 1.395 . S
C146 C123 1.391 . S
H147 C107 0.951 . S
H148 C108 0.950 . S
H149 C114 0.949 . S
H150 C115 0.950 . S
H151 C119 0.951 . S
H152 C120 0.950 . S
H153 C124 0.949 . S
H154 C125 0.950 . S
H155 C129 0.950 . S
H156 C131 0.950 1_565 S
H157 C134 0.950 . S
H158 C136 0.950 . S
C159 C160 1.443 . S
C159 N163 1.376 . S
C159 C197 1.389 . S
C160 C159 1.443 . S
C160 C161 1.340 . S
C160 H200 0.951 . S
C161 C160 1.340 . S
C161 C162 1.439 . S
C161 H201 0.950 . S
C162 C161 1.439 . S
C162 N163 1.374 . S
C162 C196 1.395 . S
N163 C159 1.376 . S
N163 C162 1.374 . S
N163 Co164 2.008 . S
Co164 N163 2.008 . S
Co164 N165 1.995 . S
Co164 N170 2.008 . S
Co164 N175 1.995 . S
Co164 N180 2.282 . S
Co164 N186 2.282 . S
N165 Co164 1.995 . S
N165 C166 1.376 . S
N165 C169 1.383 . S
C166 N165 1.376 . S
C166 C167 1.446 . S
C166 C196 1.391 . S
C167 C166 1.446 . S
C167 C168 1.339 . S
C167 H202 0.949 . S
C168 C167 1.339 . S
C168 C169 1.439 . S
C168 H203 0.950 . S
C169 N165 1.383 . S
C169 C168 1.439 . S
C169 C198 1.392 . S
N170 Co164 2.008 . S
N170 C171 1.376 . S
N170 C174 1.374 . S
C171 N170 1.376 . S
C171 C172 1.443 . S
C171 C198 1.389 . S
C172 C171 1.443 . S
C172 C173 1.340 . S
C172 H204 0.951 . S
C173 C172 1.340 . S
C173 C174 1.439 . S
C173 H205 0.950 . S
C174 N170 1.374 . S
C174 C173 1.439 . S
C174 C199 1.395 . S
N175 Co164 1.995 . S
N175 C176 1.376 . S
N175 C179 1.383 . S
C176 N175 1.376 . S
C176 C177 1.446 . S
C176 C199 1.391 . S
C177 C176 1.446 . S
C177 C178 1.339 . S
C177 H206 0.949 . S
C178 C177 1.339 . S
C178 C179 1.439 . S
C178 H207 0.950 . S
C179 N175 1.383 . S
C179 C178 1.439 . S
C179 C197 1.392 . S
N180 Co164 2.282 . S
N180 C183 1.332 . S
N180 C185 1.332 . S
C181 C182 1.386 . S
C181 C184 1.388 . S
C182 C181 1.386 . S
C182 C183 1.382 . S
C182 H208 0.950 . S
C183 N180 1.332 . S
C183 C182 1.382 . S
C183 H194 0.952 . S
C184 C181 1.388 . S
C184 C185 1.382 . S
C184 H209 0.950 . S
C185 N180 1.332 . S
C185 C184 1.382 . S
C185 H195 0.948 . S
N186 Co164 2.282 . S
N186 C190 1.332 . S
N186 C191 1.332 . S
C187 C188 1.388 . S
C187 C191 1.382 . S
C187 H210 0.950 . S
C188 C187 1.388 . S
C188 C189 1.386 . S
C189 C188 1.386 . S
C189 C190 1.382 . S
C189 H211 0.950 . S
C190 N186 1.332 . S
C190 C189 1.382 . S
C190 H192 0.952 . S
C191 N186 1.332 . S
C191 C187 1.382 . S
C191 H193 0.948 . S
H192 C190 0.952 . S
H193 C191 0.948 . S
H194 C183 0.952 . S
H195 C185 0.948 . S
C196 C162 1.395 . S
C196 C166 1.391 . S
C197 C159 1.389 . S
C197 C179 1.392 . S
C198 C169 1.392 . S
C198 C171 1.389 . S
C199 C174 1.395 . S
C199 C176 1.391 . S
H200 C160 0.951 . S
H201 C161 0.950 . S
H202 C167 0.949 . S
H203 C168 0.950 . S
H204 C172 0.951 . S
H205 C173 0.950 . S
H206 C177 0.949 . S
H207 C178 0.950 . S
H208 C182 0.950 . S
H209 C184 0.950 . S
H210 C187 0.950 . S
H211 C189 0.950 . S
C212 C213 1.443 . S
C212 N216 1.376 . S
C212 C250 1.389 . S
C213 C212 1.443 . S
C213 C214 1.340 . S
C213 H253 0.951 . S
C214 C213 1.340 . S
C214 C215 1.439 . S
C214 H254 0.950 . S
C215 C214 1.439 . S
C215 N216 1.374 . S
C215 C249 1.395 . S
N216 C212 1.376 . S
N216 C215 1.374 . S
N216 Co217 2.008 1_556 S
Co217 N216 2.008 1_554 S
Co217 N218 1.995 1_554 S
Co217 N223 2.008 . S
Co217 N228 1.995 . S
Co217 N233 2.282 . S
Co217 N239 2.288 . S
N218 Co217 1.995 1_556 S
N218 C219 1.376 . S
N218 C222 1.383 . S
C219 N218 1.376 . S
C219 C220 1.446 . S
C219 C249 1.391 . S
C220 C219 1.446 . S
C220 C221 1.339 . S
C220 H255 0.949 . S
C221 C220 1.339 . S
C221 C222 1.439 . S
C221 H256 0.950 . S
C222 N218 1.383 . S
C222 C221 1.439 . S
C222 C251 1.392 1_556 S
N223 Co217 2.008 . S
N223 C224 1.376 . S
N223 C227 1.374 . S
C224 N223 1.376 . S
C224 C225 1.443 . S
C224 C251 1.389 . S
C225 C224 1.443 . S
C225 C226 1.340 . S
C225 H257 0.951 . S
C226 C225 1.340 . S
C226 C227 1.439 . S
C226 H258 0.950 . S
C227 N223 1.374 . S
C227 C226 1.439 . S
C227 C252 1.395 . S
N228 Co217 1.995 . S
N228 C229 1.376 . S
N228 C232 1.383 . S
C229 N228 1.376 . S
C229 C230 1.446 . S
C229 C252 1.391 . S
C230 C229 1.446 . S
C230 C231 1.339 . S
C230 H259 0.949 . S
C231 C230 1.339 . S
C231 C232 1.439 . S
C231 H260 0.950 . S
C232 N228 1.383 . S
C232 C231 1.439 . S
C232 C250 1.392 1_554 S
N233 Co217 2.282 . S
N233 C236 1.332 . S
N233 C238 1.332 1_554 S
C234 C235 1.386 . S
C234 C237 1.388 1_554 S
C235 C234 1.386 . S
C235 C236 1.382 . S
C235 H261 0.950 . S
C236 N233 1.332 . S
C236 C235 1.382 . S
C236 H247 0.952 . S
C237 C234 1.388 1_556 S
C237 C238 1.382 . S
C237 H262 0.950 . S
C238 N233 1.332 1_556 S
C238 C237 1.382 . S
C238 H248 0.948 . S
N239 Co217 2.288 . S
N239 C243 1.292 1_554 S
N239 C244 1.363 . S
C240 C241 1.388 1_554 S
C240 C244 1.382 . S
C240 H263 0.950 . S
C241 C240 1.388 1_556 S
C241 C242 1.386 . S
C242 C241 1.386 . S
C242 C243 1.382 . S
C242 H264 0.950 . S
C243 N239 1.292 1_556 S
C243 C242 1.382 . S
C243 H245 0.952 . S
C244 N239 1.363 . S
C244 C240 1.382 . S
C244 H246 0.948 . S
H245 C243 0.952 . S
H246 C244 0.948 . S
H247 C236 0.952 . S
H248 C238 0.948 . S
C249 C215 1.395 . S
C249 C219 1.391 . S
C250 C212 1.389 . S
C250 C232 1.392 1_556 S
C251 C222 1.392 1_554 S
C251 C224 1.389 . S
C252 C227 1.395 . S
C252 C229 1.391 . S
H253 C213 0.951 . S
H254 C214 0.950 . S
H255 C220 0.949 . S
H256 C221 0.950 . S
H257 C225 0.951 . S
H258 C226 0.950 . S
H259 C230 0.949 . S
H260 C231 0.950 . S
H261 C235 0.950 . S
H262 C237 0.950 . S
H263 C240 0.950 . S
H264 C242 0.950 . S
C265 C266 1.443 . S
C265 N269 1.376 . S
C265 C303 1.389 . S
C266 C265 1.443 . S
C266 C267 1.340 . S
C266 H306 0.951 . S
C267 C266 1.340 . S
C267 C268 1.439 . S
C267 H307 0.950 . S
C268 C267 1.439 . S
C268 N269 1.374 . S
C268 C302 1.395 . S
N269 C265 1.376 . S
N269 C268 1.374 . S
N269 Co270 2.008 . S
Co270 N269 2.008 . S
Co270 N271 1.995 . S
Co270 N276 2.008 . S
Co270 N281 1.995 . S
Co270 N286 2.282 . S
Co270 N292 2.282 . S
N271 Co270 1.995 . S
N271 C272 1.376 . S
N271 C275 1.383 . S
C272 N271 1.376 . S
C272 C273 1.446 . S
C272 C302 1.391 . S
C273 C272 1.446 . S
C273 C274 1.339 . S
C273 H308 0.949 . S
C274 C273 1.339 . S
C274 C275 1.439 . S
C274 H309 0.950 . S
C275 N271 1.383 . S
C275 C274 1.439 . S
C275 C304 1.392 . S
N276 Co270 2.008 . S
N276 C277 1.376 . S
N276 C280 1.374 . S
C277 N276 1.376 . S
C277 C278 1.443 . S
C277 C304 1.389 . S
C278 C277 1.443 . S
C278 C279 1.340 . S
C278 H310 0.951 . S
C279 C278 1.340 . S
C279 C280 1.439 . S
C279 H311 0.950 . S
C280 N276 1.374 . S
C280 C279 1.439 . S
C280 C305 1.395 . S
N281 Co270 1.995 . S
N281 C282 1.376 . S
N281 C285 1.383 . S
C282 N281 1.376 . S
C282 C283 1.446 . S
C282 C305 1.391 . S
C283 C282 1.446 . S
C283 C284 1.339 . S
C283 H312 0.949 . S
C284 C283 1.339 . S
C284 C285 1.439 . S
C284 H313 0.950 . S
C285 N281 1.383 . S
C285 C284 1.439 . S
C285 C303 1.392 . S
N286 Co270 2.282 . S
N286 C289 1.332 . S
N286 C291 1.332 . S
C287 C288 1.386 . S
C287 C290 1.388 . S
C288 C287 1.386 . S
C288 C289 1.382 . S
C288 H314 0.950 . S
C289 N286 1.332 . S
C289 C288 1.382 . S
C289 H300 0.952 . S
C290 C287 1.388 . S
C290 C291 1.382 . S
C290 H315 0.950 . S
C291 N286 1.332 . S
C291 C290 1.382 . S
C291 H301 0.948 . S
N292 Co270 2.282 . S
N292 C296 1.332 . S
N292 C297 1.332 . S
C293 C294 1.388 . S
C293 C297 1.382 . S
C293 H316 0.950 . S
C294 C293 1.388 . S
C294 C295 1.386 . S
C295 C294 1.386 . S
C295 C296 1.382 . S
C295 H317 0.950 . S
C296 N292 1.332 . S
C296 C295 1.382 . S
C296 H298 0.952 . S
C297 N292 1.332 . S
C297 C293 1.382 . S
C297 H299 0.948 . S
H298 C296 0.952 . S
H299 C297 0.948 . S
H300 C289 0.952 . S
H301 C291 0.948 . S
C302 C268 1.395 . S
C302 C272 1.391 . S
C303 C265 1.389 . S
C303 C285 1.392 . S
C304 C275 1.392 . S
C304 C277 1.389 . S
C305 C280 1.395 . S
C305 C282 1.391 . S
H306 C266 0.951 . S
H307 C267 0.950 . S
H308 C273 0.949 . S
H309 C274 0.950 . S
H310 C278 0.951 . S
H311 C279 0.950 . S
H312 C283 0.949 . S
H313 C284 0.950 . S
H314 C288 0.950 . S
H315 C290 0.950 . S
H316 C293 0.950 . S
H317 C295 0.950 . S
C318 C319 1.443 . S
C318 N322 1.376 . S
C318 C356 1.389 . S
C319 C318 1.443 . S
C319 C320 1.340 . S
C319 H359 0.951 . S
C320 C319 1.340 . S
C320 C321 1.439 . S
C320 H360 0.950 . S
C321 C320 1.439 . S
C321 N322 1.374 . S
C321 C355 1.395 . S
N322 C318 1.376 . S
N322 C321 1.374 . S
N322 Co323 2.008 . S
Co323 N322 2.008 . S
Co323 N324 1.995 . S
Co323 N329 2.008 . S
Co323 N334 1.995 . S
Co323 N339 2.282 . S
Co323 N345 2.282 . S
N324 Co323 1.995 . S
N324 C325 1.376 . S
N324 C328 1.383 . S
C325 N324 1.376 . S
C325 C326 1.446 . S
C325 C355 1.391 . S
C326 C325 1.446 . S
C326 C327 1.339 . S
C326 H361 0.949 . S
C327 C326 1.339 . S
C327 C328 1.439 . S
C327 H362 0.950 . S
C328 N324 1.383 . S
C328 C327 1.439 . S
C328 C357 1.392 . S
N329 Co323 2.008 . S
N329 C330 1.376 . S
N329 C333 1.374 . S
C330 N329 1.376 . S
C330 C331 1.443 . S
C330 C357 1.389 . S
C331 C330 1.443 . S
C331 C332 1.340 . S
C331 H363 0.951 . S
C332 C331 1.340 . S
C332 C333 1.439 . S
C332 H364 0.950 . S
C333 N329 1.374 . S
C333 C332 1.439 . S
C333 C358 1.395 . S
N334 Co323 1.995 . S
N334 C335 1.376 . S
N334 C338 1.383 . S
C335 N334 1.376 . S
C335 C336 1.446 . S
C335 C358 1.391 . S
C336 C335 1.446 . S
C336 C337 1.339 . S
C336 H365 0.949 . S
C337 C336 1.339 . S
C337 C338 1.439 . S
C337 H366 0.950 . S
C338 N334 1.383 . S
C338 C337 1.439 . S
C338 C356 1.392 . S
N339 Co323 2.282 . S
N339 C342 1.332 . S
N339 C344 1.332 . S
C340 C341 1.386 . S
C340 C343 1.388 . S
C341 C340 1.386 . S
C341 C342 1.382 . S
C341 H367 0.950 . S
C342 N339 1.332 . S
C342 C341 1.382 . S
C342 H353 0.952 . S
C343 C340 1.388 . S
C343 C344 1.382 . S
C343 H368 0.950 . S
C344 N339 1.332 . S
C344 C343 1.382 . S
C344 H354 0.948 . S
N345 Co323 2.282 . S
N345 C349 1.332 . S
N345 C350 1.332 . S
C346 C347 1.388 . S
C346 C350 1.382 . S
C346 H369 0.950 . S
C347 C346 1.388 . S
C347 C348 1.386 . S
C348 C347 1.386 . S
C348 C349 1.382 . S
C348 H370 0.950 . S
C349 N345 1.332 . S
C349 C348 1.382 . S
C349 H351 0.952 . S
C350 N345 1.332 . S
C350 C346 1.382 . S
C350 H352 0.948 . S
H351 C349 0.952 . S
H352 C350 0.948 . S
H353 C342 0.952 . S
H354 C344 0.948 . S
C355 C321 1.395 . S
C355 C325 1.391 . S
C356 C318 1.389 . S
C356 C338 1.392 . S
C357 C328 1.392 . S
C357 C330 1.389 . S
C358 C333 1.395 . S
C358 C335 1.391 . S
H359 C319 0.951 . S
H360 C320 0.950 . S
H361 C326 0.949 . S
H362 C327 0.950 . S
H363 C331 0.951 . S
H364 C332 0.950 . S
H365 C336 0.949 . S
H366 C337 0.950 . S
H367 C341 0.950 . S
H368 C343 0.950 . S
H369 C346 0.950 . S
H370 C348 0.950 . S
C371 C372 1.443 . S
C371 N375 1.376 . S
C371 C409 1.389 . S
C372 C371 1.443 . S
C372 C373 1.340 . S
C372 H412 0.951 . S
C373 C372 1.340 . S
C373 C374 1.439 . S
C373 H413 0.950 . S
C374 C373 1.439 . S
C374 N375 1.374 . S
C374 C408 1.395 . S
N375 C371 1.376 . S
N375 C374 1.374 . S
N375 Co376 2.008 . S
Co376 N375 2.008 . S
Co376 N377 1.995 . S
Co376 N382 2.008 . S
Co376 N387 1.995 . S
Co376 N392 2.282 . S
Co376 N398 2.282 . S
N377 Co376 1.995 . S
N377 C378 1.376 . S
N377 C381 1.383 . S
C378 N377 1.376 . S
C378 C379 1.446 . S
C378 C408 1.391 . S
C379 C378 1.446 . S
C379 C380 1.339 . S
C379 H414 0.949 . S
C380 C379 1.339 . S
C380 C381 1.439 . S
C380 H415 0.950 . S
C381 N377 1.383 . S
C381 C380 1.439 . S
C381 C410 1.392 . S
N382 Co376 2.008 . S
N382 C383 1.376 . S
N382 C386 1.374 . S
C383 N382 1.376 . S
C383 C384 1.443 . S
C383 C410 1.389 . S
C384 C383 1.443 . S
C384 C385 1.340 . S
C384 H416 0.951 . S
C385 C384 1.340 . S
C385 C386 1.439 . S
C385 H417 0.950 . S
C386 N382 1.374 . S
C386 C385 1.439 . S
C386 C411 1.395 . S
N387 Co376 1.995 . S
N387 C388 1.376 . S
N387 C391 1.383 . S
C388 N387 1.376 . S
C388 C389 1.446 . S
C388 C411 1.391 . S
C389 C388 1.446 . S
C389 C390 1.339 . S
C389 H418 0.949 . S
C390 C389 1.339 . S
C390 C391 1.439 . S
C390 H419 0.950 . S
C391 N387 1.383 . S
C391 C390 1.439 . S
C391 C409 1.392 . S
N392 Co376 2.282 . S
N392 C395 1.332 . S
N392 C397 1.332 . S
C393 C394 1.386 . S
C393 C396 1.388 . S
C394 C393 1.386 . S
C394 C395 1.382 . S
C394 H420 0.950 . S
C395 N392 1.332 . S
C395 C394 1.382 . S
C395 H406 0.952 . S
C396 C393 1.388 . S
C396 C397 1.382 . S
C396 H421 0.950 . S
C397 N392 1.332 . S
C397 C396 1.382 . S
C397 H407 0.948 . S
N398 Co376 2.282 . S
N398 C402 1.332 . S
N398 C403 1.332 . S
C399 C400 1.388 . S
C399 C403 1.382 . S
C399 H422 0.950 . S
C400 C399 1.388 . S
C400 C401 1.386 . S
C401 C400 1.386 . S
C401 C402 1.382 . S
C401 H423 0.950 . S
C402 N398 1.332 . S
C402 C401 1.382 . S
C402 H404 0.952 . S
C403 N398 1.332 . S
C403 C399 1.382 . S
C403 H405 0.948 . S
H404 C402 0.952 . S
H405 C403 0.948 . S
H406 C395 0.952 . S
H407 C397 0.948 . S
C408 C374 1.395 . S
C408 C378 1.391 . S
C409 C371 1.389 . S
C409 C391 1.392 . S
C410 C381 1.392 . S
C410 C383 1.389 . S
C411 C386 1.395 . S
C411 C388 1.391 . S
H412 C372 0.951 . S
H413 C373 0.950 . S
H414 C379 0.949 . S
H415 C380 0.950 . S
H416 C384 0.951 . S
H417 C385 0.950 . S
H418 C389 0.949 . S
H419 C390 0.950 . S
H420 C394 0.950 . S
H421 C396 0.950 . S
H422 C399 0.950 . S
H423 C401 0.950 . S
C424 C425 1.443 . S
C424 N428 1.376 . S
C424 C462 1.389 . S
C425 C424 1.443 . S
C425 C426 1.340 . S
C425 H465 0.951 . S
C426 C425 1.340 . S
C426 C427 1.439 . S
C426 H466 0.950 . S
C427 C426 1.439 . S
C427 N428 1.374 . S
C427 C461 1.395 . S
N428 C424 1.376 . S
N428 C427 1.374 . S
N428 Co429 2.008 . S
Co429 N428 2.008 . S
Co429 N430 1.995 . S
Co429 N435 2.008 . S
Co429 N440 1.995 . S
Co429 N445 2.282 . S
Co429 N451 2.282 . S
N430 Co429 1.995 . S
N430 C431 1.376 . S
N430 C434 1.383 . S
C431 N430 1.376 . S
C431 C432 1.446 . S
C431 C461 1.391 . S
C432 C431 1.446 . S
C432 C433 1.339 . S
C432 H467 0.949 . S
C433 C432 1.339 . S
C433 C434 1.439 . S
C433 H468 0.950 . S
C434 N430 1.383 . S
C434 C433 1.439 . S
C434 C463 1.392 . S
N435 Co429 2.008 . S
N435 C436 1.376 . S
N435 C439 1.374 . S
C436 N435 1.376 . S
C436 C437 1.443 . S
C436 C463 1.389 . S
C437 C436 1.443 . S
C437 C438 1.340 . S
C437 H469 0.951 . S
C438 C437 1.340 . S
C438 C439 1.439 . S
C438 H470 0.950 . S
C439 N435 1.374 . S
C439 C438 1.439 . S
C439 C464 1.395 . S
N440 Co429 1.995 . S
N440 C441 1.376 . S
N440 C444 1.383 . S
C441 N440 1.376 . S
C441 C442 1.446 . S
C441 C464 1.391 . S
C442 C441 1.446 . S
C442 C443 1.339 . S
C442 H471 0.949 . S
C443 C442 1.339 . S
C443 C444 1.439 . S
C443 H472 0.950 . S
C444 N440 1.383 . S
C444 C443 1.439 . S
C444 C462 1.392 . S
N445 Co429 2.282 . S
N445 C448 1.332 . S
N445 C450 1.332 . S
C446 C447 1.386 . S
C446 C449 1.388 . S
C447 C446 1.386 . S
C447 C448 1.382 . S
C447 H473 0.950 . S
C448 N445 1.332 . S
C448 C447 1.382 . S
C448 H459 0.952 . S
C449 C446 1.388 . S
C449 C450 1.382 . S
C449 H474 0.950 . S
C450 N445 1.332 . S
C450 C449 1.382 . S
C450 H460 0.948 . S
N451 Co429 2.282 . S
N451 C455 1.332 . S
N451 C456 1.332 . S
C452 C453 1.388 . S
C452 C456 1.382 . S
C452 H475 0.950 . S
C453 C452 1.388 . S
C453 C454 1.386 . S
C454 C453 1.386 . S
C454 C455 1.382 . S
C454 H476 0.950 . S
C455 N451 1.332 . S
C455 C454 1.382 . S
C455 H457 0.952 . S
C456 N451 1.332 . S
C456 C452 1.382 . S
C456 H458 0.948 . S
H457 C455 0.952 . S
H458 C456 0.948 . S
H459 C448 0.952 . S
H460 C450 0.948 . S
C461 C427 1.395 . S
C461 C431 1.391 . S
C462 C424 1.389 . S
C462 C444 1.392 . S
C463 C434 1.392 . S
C463 C436 1.389 . S
C464 C439 1.395 . S
C464 C441 1.391 . S
H465 C425 0.951 . S
H466 C426 0.950 . S
H467 C432 0.949 . S
H468 C433 0.950 . S
H469 C437 0.951 . S
H470 C438 0.950 . S
H471 C442 0.949 . S
H472 C443 0.950 . S
H473 C447 0.950 . S
H474 C449 0.950 . S
H475 C452 0.950 . S
H476 C454 0.950 . S
C477 C478 1.443 . S
C477 N481 1.376 . S
C477 C515 1.389 . S
C478 C477 1.443 . S
C478 C479 1.340 . S
C478 H518 0.951 . S
C479 C478 1.340 . S
C479 C480 1.439 . S
C479 H519 0.950 . S
C480 C479 1.439 . S
C480 N481 1.374 . S
C480 C514 1.395 . S
N481 C477 1.376 . S
N481 C480 1.374 . S
N481 Co482 2.008 . S
Co482 N481 2.008 . S
Co482 N483 1.995 . S
Co482 N488 2.008 . S
Co482 N493 1.995 . S
Co482 N498 2.282 . S
Co482 N504 2.282 . S
N483 Co482 1.995 . S
N483 C484 1.376 . S
N483 C487 1.383 . S
C484 N483 1.376 . S
C484 C485 1.446 . S
C484 C514 1.391 . S
C485 C484 1.446 . S
C485 C486 1.339 . S
C485 H520 0.949 . S
C486 C485 1.339 . S
C486 C487 1.439 . S
C486 H521 0.950 . S
C487 N483 1.383 . S
C487 C486 1.439 . S
C487 C516 1.392 . S
N488 Co482 2.008 . S
N488 C489 1.376 . S
N488 C492 1.374 . S
C489 N488 1.376 . S
C489 C490 1.443 . S
C489 C516 1.389 . S
C490 C489 1.443 . S
C490 C491 1.340 . S
C490 H522 0.951 . S
C491 C490 1.340 . S
C491 C492 1.439 . S
C491 H523 0.950 . S
C492 N488 1.374 . S
C492 C491 1.439 . S
C492 C517 1.395 . S
N493 Co482 1.995 . S
N493 C494 1.376 . S
N493 C497 1.383 . S
C494 N493 1.376 . S
C494 C495 1.446 . S
C494 C517 1.391 . S
C495 C494 1.446 . S
C495 C496 1.339 . S
C495 H524 0.949 . S
C496 C495 1.339 . S
C496 C497 1.439 . S
C496 H525 0.950 . S
C497 N493 1.383 . S
C497 C496 1.439 . S
C497 C515 1.392 . S
N498 Co482 2.282 . S
N498 C501 1.332 . S
N498 C503 1.332 . S
C499 C500 1.386 . S
C499 C502 1.388 . S
C500 C499 1.386 . S
C500 C501 1.382 . S
C500 H526 0.950 . S
C501 N498 1.332 . S
C501 C500 1.382 . S
C501 H512 0.952 . S
C502 C499 1.388 . S
C502 C503 1.382 . S
C502 H527 0.950 . S
C503 N498 1.332 . S
C503 C502 1.382 . S
C503 H513 0.948 . S
N504 Co482 2.282 . S
N504 C508 1.332 . S
N504 C509 1.332 . S
C505 C506 1.388 . S
C505 C509 1.382 . S
C505 H528 0.950 . S
C506 C505 1.388 . S
C506 C507 1.386 . S
C507 C506 1.386 . S
C507 C508 1.382 . S
C507 H529 0.950 . S
C508 N504 1.332 . S
C508 C507 1.382 . S
C508 H510 0.952 . S
C509 N504 1.332 . S
C509 C505 1.382 . S
C509 H511 0.948 . S
H510 C508 0.952 . S
H511 C509 0.948 . S
H512 C501 0.952 . S
H513 C503 0.948 . S
C514 C480 1.395 . S
C514 C484 1.391 . S
C515 C477 1.389 . S
C515 C497 1.392 . S
C516 C487 1.392 . S
C516 C489 1.389 . S
C517 C492 1.395 . S
C517 C494 1.391 . S
H518 C478 0.951 . S
H519 C479 0.950 . S
H520 C485 0.949 . S
H521 C486 0.950 . S
H522 C490 0.951 . S
H523 C491 0.950 . S
H524 C495 0.949 . S
H525 C496 0.950 . S
H526 C500 0.950 . S
H527 C502 0.950 . S
H528 C505 0.950 . S
H529 C507 0.950 . S
C530 C531 1.443 . S
C530 N534 1.376 . S
C530 C568 1.389 . S
C531 C530 1.443 . S
C531 C532 1.340 . S
C531 H571 0.951 . S
C532 C531 1.340 . S
C532 C533 1.439 . S
C532 H572 0.950 . S
C533 C532 1.439 . S
C533 N534 1.374 . S
C533 C567 1.395 . S
N534 C530 1.376 . S
N534 C533 1.374 . S
N534 Co535 2.008 . S
Co535 N534 2.008 . S
Co535 N536 1.995 . S
Co535 N541 2.008 1_545 S
Co535 N546 1.995 1_545 S
Co535 N551 2.282 1_545 S
Co535 N557 2.282 . S
N536 Co535 1.995 . S
N536 C537 1.376 . S
N536 C540 1.383 . S
C537 N536 1.376 . S
C537 C538 1.446 . S
C537 C567 1.391 . S
C538 C537 1.446 . S
C538 C539 1.339 . S
C538 H573 0.949 . S
C539 C538 1.339 . S
C539 C540 1.439 . S
C539 H574 0.950 . S
C540 N536 1.383 . S
C540 C539 1.439 . S
C540 C569 1.392 1_545 S
N541 Co535 2.008 1_565 S
N541 C542 1.376 . S
N541 C545 1.374 . S
C542 N541 1.376 . S
C542 C543 1.443 . S
C542 C569 1.389 . S
C543 C542 1.443 . S
C543 C544 1.340 . S
C543 H575 0.951 . S
C544 C543 1.340 . S
C544 C545 1.439 . S
C544 H576 0.950 . S
C545 N541 1.374 . S
C545 C544 1.439 . S
C545 C570 1.395 . S
N546 Co535 1.995 1_565 S
N546 C547 1.376 . S
N546 C550 1.383 . S
C547 N546 1.376 . S
C547 C548 1.446 . S
C547 C570 1.391 . S
C548 C547 1.446 . S
C548 C549 1.339 . S
C548 H577 0.949 . S
C549 C548 1.339 . S
C549 C550 1.439 . S
C549 H578 0.950 . S
C550 N546 1.383 . S
C550 C549 1.439 . S
C550 C568 1.392 1_565 S
N551 Co535 2.282 1_565 S
N551 C554 1.332 . S
N551 C556 1.332 1_565 S
C552 C553 1.386 . S
C552 C555 1.388 1_565 S
C553 C552 1.386 . S
C553 C554 1.382 . S
C553 H579 0.950 . S
C554 N551 1.332 . S
C554 C553 1.382 . S
C554 H565 0.952 . S
C555 C552 1.388 1_545 S
C555 C556 1.382 . S
C555 H580 0.950 . S
C556 N551 1.332 1_545 S
C556 C555 1.382 . S
C556 H566 0.948 . S
N557 Co535 2.282 . S
N557 C561 1.332 . S
N557 C562 1.332 1_545 S
C558 C559 1.388 1_565 S
C558 C562 1.382 . S
C558 H581 0.950 . S
C559 C558 1.388 1_545 S
C559 C560 1.386 . S
C560 C559 1.386 . S
C560 C561 1.382 . S
C560 H582 0.950 . S
C561 N557 1.332 . S
C561 C560 1.382 . S
C561 H563 0.952 . S
C562 N557 1.332 1_565 S
C562 C558 1.382 . S
C562 H564 0.948 . S
H563 C561 0.952 . S
H564 C562 0.948 . S
H565 C554 0.952 . S
H566 C556 0.948 . S
C567 C533 1.395 . S
C567 C537 1.391 . S
C568 C530 1.389 . S
C568 C550 1.392 1_545 S
C569 C540 1.392 1_565 S
C569 C542 1.389 . S
C570 C545 1.395 . S
C570 C547 1.391 . S
H571 C531 0.951 . S
H572 C532 0.950 . S
H573 C538 0.949 . S
H574 C539 0.950 . S
H575 C543 0.951 . S
H576 C544 0.950 . S
H577 C548 0.949 . S
H578 C549 0.950 . S
H579 C553 0.950 . S
H580 C555 0.950 . S
H581 C558 0.950 . S
H582 C560 0.950 . S
C583 C584 1.443 . S
C583 N587 1.376 . S
C583 C621 1.389 . S
C584 C583 1.443 . S
C584 C585 1.340 . S
C584 H624 0.951 . S
C585 C584 1.340 . S
C585 C586 1.439 . S
C585 H625 0.950 . S
C586 C585 1.439 . S
C586 N587 1.374 . S
C586 C620 1.395 . S
N587 C583 1.376 . S
N587 C586 1.374 . S
N587 Co588 2.008 1_556 S
Co588 N587 2.008 1_554 S
Co588 N589 1.995 1_554 S
Co588 N594 2.008 . S
Co588 N599 1.995 . S
Co588 N604 2.282 . S
Co588 N610 2.282 1_554 S
N589 Co588 1.995 1_556 S
N589 C590 1.376 . S
N589 C593 1.383 . S
C590 N589 1.376 . S
C590 C591 1.446 . S
C590 C620 1.391 . S
C591 C590 1.446 . S
C591 C592 1.339 . S
C591 H626 0.949 . S
C592 C591 1.339 . S
C592 C593 1.439 . S
C592 H627 0.950 . S
C593 N589 1.383 . S
C593 C592 1.439 . S
C593 C622 1.392 1_556 S
N594 Co588 2.008 . S
N594 C595 1.376 . S
N594 C598 1.374 . S
C595 N594 1.376 . S
C595 C596 1.443 . S
C595 C622 1.389 . S
C596 C595 1.443 . S
C596 C597 1.340 . S
C596 H628 0.951 . S
C597 C596 1.340 . S
C597 C598 1.439 . S
C597 H629 0.950 . S
C598 N594 1.374 . S
C598 C597 1.439 . S
C598 C623 1.395 . S
N599 Co588 1.995 . S
N599 C600 1.376 . S
N599 C603 1.383 . S
C600 N599 1.376 . S
C600 C601 1.446 . S
C600 C623 1.391 . S
C601 C600 1.446 . S
C601 C602 1.339 . S
C601 H630 0.949 . S
C602 C601 1.339 . S
C602 C603 1.439 . S
C602 H631 0.950 . S
C603 N599 1.383 . S
C603 C602 1.439 . S
C603 C621 1.392 1_554 S
N604 Co588 2.282 . S
N604 C607 1.332 . S
N604 C609 1.332 1_554 S
C605 C606 1.386 . S
C605 C608 1.388 1_554 S
C606 C605 1.386 . S
C606 C607 1.382 . S
C606 H632 0.950 . S
C607 N604 1.332 . S
C607 C606 1.382 . S
C607 H618 0.952 . S
C608 C605 1.388 1_556 S
C608 C609 1.382 . S
C608 H633 0.950 . S
C609 N604 1.332 1_556 S
C609 C608 1.382 . S
C609 H619 0.948 . S
N610 Co588 2.282 1_556 S
N610 C614 1.332 . S
N610 C615 1.332 1_556 S
C611 C612 1.388 1_554 S
C611 C615 1.382 . S
C611 H634 0.950 . S
C612 C611 1.388 1_556 S
C612 C613 1.386 . S
C613 C612 1.386 . S
C613 C614 1.382 . S
C613 H635 0.950 . S
C614 N610 1.332 . S
C614 C613 1.382 . S
C614 H616 0.952 . S
C615 N610 1.332 1_554 S
C615 C611 1.382 . S
C615 H617 0.948 . S
H616 C614 0.952 . S
H617 C615 0.948 . S
H618 C607 0.952 . S
H619 C609 0.948 . S
C620 C586 1.395 . S
C620 C590 1.391 . S
C621 C583 1.389 . S
C621 C603 1.392 1_556 S
C622 C593 1.392 1_554 S
C622 C595 1.389 . S
C623 C598 1.395 . S
C623 C600 1.391 . S
H624 C584 0.951 . S
H625 C585 0.950 . S
H626 C591 0.949 . S
H627 C592 0.950 . S
H628 C596 0.951 . S
H629 C597 0.950 . S
H630 C601 0.949 . S
H631 C602 0.950 . S
H632 C606 0.950 . S
H633 C608 0.950 . S
H634 C611 0.950 . S
H635 C613 0.950 . S
Zn636 O642 1.920 . S
Zn636 O648 1.898 . S
Zn636 O651 1.905 . S
Zn637 O645 1.905 1_554 S
Zn637 O646 1.898 . S
Zn637 O654 1.920 . S
Zn638 O641 2.080 . S
Zn638 O644 2.114 . S
Zn638 O647 2.120 . S
Zn638 O649 2.120 . S
Zn638 O650 2.114 . S
Zn638 O653 2.080 . S
C639 O644 1.166 1_556 S
C639 O645 1.182 . S
C640 O646 1.167 . S
C640 O647 1.299 . S
O641 Zn638 2.080 . S
O641 C655 1.305 . S
O642 Zn636 1.920 . S
O642 C655 1.234 . S
C643 O648 1.167 . S
C643 O649 1.299 . S
O644 Zn638 2.114 . S
O644 C639 1.166 1_554 S
O645 Zn637 1.905 1_556 S
O645 C639 1.182 . S
O646 Zn637 1.898 . S
O646 C640 1.167 . S
O647 Zn638 2.120 . S
O647 C640 1.299 . S
O648 Zn636 1.898 . S
O648 C643 1.167 . S
O649 Zn638 2.120 . S
O649 C643 1.299 . S
O650 Zn638 2.114 . S
O650 C652 1.166 . S
O651 Zn636 1.905 . S
O651 C652 1.182 . S
C652 O650 1.166 . S
C652 O651 1.182 . S
O653 Zn638 2.080 . S
O653 C656 1.305 . S
O654 Zn637 1.920 . S
O654 C656 1.234 . S
C655 O641 1.305 . S
C655 O642 1.234 . S
C656 O653 1.305 . S
C656 O654 1.234 . S
Zn657 O663 1.920 1_655 S
Zn657 O669 1.898 . S
Zn657 O672 1.905 1_554 S
Zn658 O666 1.905 . S
Zn658 O667 1.898 . S
Zn658 O675 1.920 . S
Zn659 O662 2.080 . S
Zn659 O665 2.114 . S
Zn659 O668 2.120 . S
Zn659 O670 2.120 . S
Zn659 O671 2.114 . S
Zn659 O674 2.080 . S
C660 O665 1.166 . S
C660 O666 1.182 . S
C661 O667 1.167 . S
C661 O668 1.299 . S
O662 Zn659 2.080 . S
O662 C676 1.305 1_655 S
O663 Zn657 1.920 1_455 S
O663 C676 1.234 . S
C664 O669 1.167 . S
C664 O670 1.299 . S
O665 Zn659 2.114 . S
O665 C660 1.166 . S
O666 Zn658 1.905 . S
O666 C660 1.182 . S
O667 Zn658 1.898 . S
O667 C661 1.167 . S
O668 Zn659 2.120 . S
O668 C661 1.299 . S
O669 Zn657 1.898 . S
O669 C664 1.167 . S
O670 Zn659 2.120 . S
O670 C664 1.299 . S
O671 Zn659 2.114 . S
O671 C673 1.166 1_554 S
O672 Zn657 1.905 1_556 S
O672 C673 1.182 . S
C673 O671 1.166 1_556 S
C673 O672 1.182 . S
O674 Zn659 2.080 . S
O674 C677 1.305 . S
O675 Zn658 1.920 . S
O675 C677 1.234 . S
C676 O662 1.305 1_455 S
C676 O663 1.234 . S
C677 O674 1.305 . S
C677 O675 1.234 . S
Zn678 O684 1.920 1_565 S
Zn678 O690 1.898 . S
Zn678 O693 1.905 1_455 S
Zn679 O687 1.905 . S
Zn679 O688 1.898 . S
Zn679 O696 1.920 . S
Zn680 O683 2.080 . S
Zn680 O686 2.114 . S
Zn680 O689 2.120 . S
Zn680 O691 2.120 . S
Zn680 O692 2.114 . S
Zn680 O695 2.080 . S
C681 O686 1.166 . S
C681 O687 1.182 . S
C682 O688 1.167 . S
C682 O689 1.299 . S
O683 Zn680 2.080 . S
O683 C697 1.305 . S
O684 Zn678 1.920 1_545 S
O684 C697 1.234 1_545 S
C685 O690 1.167 . S
C685 O691 1.299 . S
O686 Zn680 2.114 . S
O686 C681 1.166 . S
O687 Zn679 1.905 . S
O687 C681 1.182 . S
O688 Zn679 1.898 . S
O688 C682 1.167 . S
O689 Zn680 2.120 . S
O689 C682 1.299 . S
O690 Zn678 1.898 . S
O690 C685 1.167 . S
O691 Zn680 2.120 . S
O691 C685 1.299 . S
O692 Zn680 2.114 . S
O692 C694 1.166 1_455 S
O693 Zn678 1.905 1_655 S
O693 C694 1.182 . S
C694 O692 1.166 1_655 S
C694 O693 1.182 . S
O695 Zn680 2.080 . S
O695 C698 1.305 . S
O696 Zn679 1.920 . S
O696 C698 1.234 . S
C697 O683 1.305 . S
C697 O684 1.234 1_565 S
C698 O695 1.305 . S
C698 O696 1.234 . S
Zn699 O705 1.920 . S
Zn699 O711 1.898 . S
Zn699 O714 1.905 . S
Zn700 O708 1.905 . S
Zn700 O709 1.898 1_655 S
Zn700 O717 1.920 . S
Zn701 O704 2.080 . S
Zn701 O707 2.114 . S
Zn701 O710 2.120 . S
Zn701 O712 2.120 . S
Zn701 O713 2.114 . S
Zn701 O716 2.080 . S
C702 O707 1.166 . S
C702 O708 1.182 . S
C703 O709 1.167 . S
C703 O710 1.299 1_455 S
O704 Zn701 2.080 . S
O704 C718 1.305 . S
O705 Zn699 1.920 . S
O705 C718 1.234 . S
C706 O711 1.167 . S
C706 O712 1.299 . S
O707 Zn701 2.114 . S
O707 C702 1.166 . S
O708 Zn700 1.905 . S
O708 C702 1.182 . S
O709 Zn700 1.898 1_455 S
O709 C703 1.167 . S
O710 Zn701 2.120 . S
O710 C703 1.299 1_655 S
O711 Zn699 1.898 . S
O711 C706 1.167 . S
O712 Zn701 2.120 . S
O712 C706 1.299 . S
O713 Zn701 2.114 . S
O713 C715 1.166 . S
O714 Zn699 1.905 . S
O714 C715 1.182 . S
C715 O713 1.166 . S
C715 O714 1.182 . S
O716 Zn701 2.080 . S
O716 C719 1.305 . S
O717 Zn700 1.920 . S
O717 C719 1.234 . S
C718 O704 1.305 . S
C718 O705 1.234 . S
C719 O716 1.305 . S
C719 O717 1.234 . S
Zn720 O726 1.920 . S
Zn720 O732 1.898 . S
Zn720 O735 1.905 . S
Zn721 O729 1.905 . S
Zn721 O730 1.898 1_565 S
Zn721 O738 1.920 . S
Zn722 O725 2.080 . S
Zn722 O728 2.114 . S
Zn722 O731 2.120 . S
Zn722 O733 2.120 . S
Zn722 O734 2.114 . S
Zn722 O737 2.080 . S
C723 O728 1.166 . S
C723 O729 1.182 . S
C724 O730 1.167 . S
C724 O731 1.299 1_545 S
O725 Zn722 2.080 . S
O725 C739 1.305 . S
O726 Zn720 1.920 . S
O726 C739 1.234 . S
C727 O732 1.167 . S
C727 O733 1.299 . S
O728 Zn722 2.114 . S
O728 C723 1.166 . S
O729 Zn721 1.905 . S
O729 C723 1.182 . S
O730 Zn721 1.898 1_545 S
O730 C724 1.167 . S
O731 Zn722 2.120 . S
O731 C724 1.299 1_565 S
O732 Zn720 1.898 . S
O732 C727 1.167 . S
O733 Zn722 2.120 . S
O733 C727 1.299 . S
O734 Zn722 2.114 . S
O734 C736 1.166 . S
O735 Zn720 1.905 . S
O735 C736 1.182 . S
C736 O734 1.166 . S
C736 O735 1.182 . S
O737 Zn722 2.080 . S
O737 C740 1.305 . S
O738 Zn721 1.920 . S
O738 C740 1.234 . S
C739 O725 1.305 . S
C739 O726 1.234 . S
C740 O737 1.305 . S
C740 O738 1.234 . S
Zn741 O747 1.920 . S
Zn741 O753 1.898 . S
Zn741 O756 1.905 . S
Zn742 O750 1.905 . S
Zn742 O751 1.898 . S
Zn742 O759 1.920 . S
Zn743 O746 2.080 . S
Zn743 O749 2.114 . S
Zn743 O752 2.120 . S
Zn743 O754 2.120 . S
Zn743 O755 2.114 . S
Zn743 O758 2.080 . S
C744 O749 1.166 . S
C744 O750 1.182 . S
C745 O751 1.167 . S
C745 O752 1.299 . S
O746 Zn743 2.080 . S
O746 C760 1.305 . S
O747 Zn741 1.920 . S
O747 C760 1.234 . S
C748 O753 1.167 . S
C748 O754 1.299 . S
O749 Zn743 2.114 . S
O749 C744 1.166 . S
O750 Zn742 1.905 . S
O750 C744 1.182 . S
O751 Zn742 1.898 . S
O751 C745 1.167 . S
O752 Zn743 2.120 . S
O752 C745 1.299 . S
O753 Zn741 1.898 . S
O753 C748 1.167 . S
O754 Zn743 2.120 . S
O754 C748 1.299 . S
O755 Zn743 2.114 . S
O755 C757 1.166 . S
O756 Zn741 1.905 . S
O756 C757 1.182 . S
C757 O755 1.166 . S
C757 O756 1.182 . S
O758 Zn743 2.080 . S
O758 C761 1.305 . S
O759 Zn742 1.920 . S
O759 C761 1.234 . S
C760 O746 1.305 . S
C760 O747 1.234 . S
C761 O758 1.305 . S
C761 O759 1.234 . S
Zn762 O768 1.920 1_554 S
Zn762 O774 1.898 . S
Zn762 O777 1.905 1_554 S
Zn763 O771 1.905 . S
Zn763 O772 1.898 . S
Zn763 O780 1.920 . S
Zn764 O767 2.080 . S
Zn764 O770 2.114 . S
Zn764 O773 2.120 . S
Zn764 O775 2.120 1_556 S
Zn764 O776 2.114 . S
Zn764 O779 2.080 . S
C765 O770 1.166 . S
C765 O771 1.182 . S
C766 O772 1.167 . S
C766 O773 1.299 . S
O767 Zn764 2.080 . S
O767 C781 1.305 . S
O768 Zn762 1.920 1_556 S
O768 C781 1.234 . S
C769 O774 1.167 . S
C769 O775 1.299 . S
O770 Zn764 2.114 . S
O770 C765 1.166 . S
O771 Zn763 1.905 . S
O771 C765 1.182 . S
O772 Zn763 1.898 . S
O772 C766 1.167 . S
O773 Zn764 2.120 . S
O773 C766 1.299 . S
O774 Zn762 1.898 . S
O774 C769 1.167 . S
O775 Zn764 2.120 1_554 S
O775 C769 1.299 . S
O776 Zn764 2.114 . S
O776 C778 1.166 . S
O777 Zn762 1.905 1_556 S
O777 C778 1.182 . S
C778 O776 1.166 . S
C778 O777 1.182 . S
O779 Zn764 2.080 . S
O779 C782 1.305 . S
O780 Zn763 1.920 . S
O780 C782 1.234 . S
C781 O767 1.305 . S
C781 O768 1.234 . S
C782 O779 1.305 . S
C782 O780 1.234 . S
Zn783 O789 1.920 1_556 S
Zn783 O795 1.898 . S
Zn783 O798 1.913 . S
Zn784 O792 1.905 . S
Zn784 O793 1.898 . S
Zn784 O801 1.920 . S
Zn785 O788 2.080 . S
Zn785 O791 2.114 . S
Zn785 O794 2.120 . S
Zn785 O796 2.120 . S
Zn785 O797 2.114 . S
Zn785 O800 2.080 . S
C786 O791 1.166 . S
C786 O792 1.182 . S
C787 O793 1.167 . S
C787 O794 1.299 . S
O788 Zn785 2.080 . S
O788 C802 1.305 . S
O789 Zn783 1.920 1_554 S
O789 C802 1.234 1_554 S
C790 O795 1.167 . S
C790 O796 1.299 . S
O791 Zn785 2.114 . S
O791 C786 1.166 . S
O792 Zn784 1.905 . S
O792 C786 1.182 . S
O793 Zn784 1.898 . S
O793 C787 1.167 . S
O794 Zn785 2.120 . S
O794 C787 1.299 . S
O795 Zn783 1.898 . S
O795 C790 1.167 . S
O796 Zn785 2.120 . S
O796 C790 1.299 . S
O797 Zn785 2.114 . S
O797 C799 1.166 . S
O798 Zn783 1.913 . S
O798 C799 1.188 . S
C799 O797 1.166 . S
C799 O798 1.188 . S
O800 Zn785 2.080 . S
O800 C803 1.305 . S
O801 Zn784 1.920 . S
O801 C803 1.234 . S
C802 O788 1.305 . S
C802 O789 1.234 1_556 S
C803 O800 1.305 . S
C803 O801 1.234 . S
H804 C812 0.950 . S
H805 C817 0.950 . S
H806 C814 0.950 . S
H807 C816 0.950 . S
H808 C818 0.950 . S
H809 C820 0.950 . S
H810 C822 0.977 . S
H811 C823 0.950 . S
C812 H804 0.950 . S
C812 C813 1.386 . S
C812 C814 1.391 . S
C813 C812 1.386 . S
C813 C817 1.393 . S
C814 H806 0.950 . S
C814 C812 1.391 . S
C814 C815 1.400 . S
C815 C814 1.400 . S
C815 C816 1.398 . S
C815 C821 1.491 . S
C816 H807 0.950 . S
C816 C815 1.398 . S
C816 C817 1.391 . S
C817 H805 0.950 . S
C817 C813 1.393 . S
C817 C816 1.391 . S
C818 H808 0.950 . S
C818 C819 1.386 . S
C818 C820 1.391 . S
C819 C818 1.386 . S
C819 C823 1.393 . S
C820 H809 0.950 . S
C820 C818 1.391 . S
C820 C821 1.400 . S
C821 C815 1.491 . S
C821 C820 1.400 . S
C821 C822 1.398 . S
C822 H810 0.977 . S
C822 C821 1.398 . S
C822 C823 1.391 . S
C823 H811 0.950 . S
C823 C819 1.393 . S
C823 C822 1.391 . S
H824 C832 0.950 . S
H825 C837 0.950 . S
H826 C834 0.950 . S
H827 C836 0.950 . S
H828 C838 0.950 . S
H829 C840 0.950 . S
H830 C842 0.950 1_455 S
H831 C843 0.935 1_455 S
C832 H824 0.950 . S
C832 C833 1.386 1_455 S
C832 C834 1.391 . S
C833 C832 1.386 1_655 S
C833 C837 1.393 . S
C834 H826 0.950 . S
C834 C832 1.391 . S
C834 C835 1.400 1_455 S
C835 C834 1.400 1_655 S
C835 C836 1.398 . S
C835 C841 1.491 . S
C836 H827 0.950 . S
C836 C835 1.398 . S
C836 C837 1.391 . S
C837 H825 0.950 . S
C837 C833 1.393 . S
C837 C836 1.391 . S
C838 H828 0.950 . S
C838 C839 1.386 . S
C838 C840 1.391 . S
C839 C838 1.386 . S
C839 C843 1.393 . S
C840 H829 0.950 . S
C840 C838 1.391 . S
C840 C841 1.400 . S
C841 C835 1.491 . S
C841 C840 1.400 . S
C841 C842 1.398 . S
C842 H830 0.950 1_655 S
C842 C841 1.398 . S
C842 C843 1.391 . S
C843 H831 0.935 1_655 S
C843 C839 1.393 . S
C843 C842 1.391 . S
H844 C852 0.950 1_655 S
H845 C857 0.950 . S
H846 C854 0.977 . S
H847 C856 0.950 . S
H848 C858 0.950 . S
H849 C860 0.950 . S
H850 C862 0.950 . S
H851 C863 0.950 . S
C852 H844 0.950 1_455 S
C852 C853 1.386 . S
C852 C854 1.391 . S
C853 C852 1.386 . S
C853 C857 1.393 . S
C854 H846 0.977 . S
C854 C852 1.391 . S
C854 C855 1.400 . S
C855 C854 1.400 . S
C855 C856 1.398 . S
C855 C861 1.491 . S
C856 H847 0.950 . S
C856 C855 1.398 . S
C856 C857 1.391 . S
C857 H845 0.950 . S
C857 C853 1.393 . S
C857 C856 1.391 . S
C858 H848 0.950 . S
C858 C859 1.386 . S
C858 C860 1.391 . S
C859 C858 1.386 . S
C859 C863 1.393 . S
C860 H849 0.950 . S
C860 C858 1.391 . S
C860 C861 1.400 . S
C861 C855 1.491 . S
C861 C860 1.400 . S
C861 C862 1.398 . S
C862 H850 0.950 . S
C862 C861 1.398 . S
C862 C863 1.391 . S
C863 H851 0.950 . S
C863 C859 1.393 . S
C863 C862 1.391 . S
H864 C872 0.950 . S
H865 C877 0.950 . S
H866 C874 0.950 . S
H867 C876 0.950 . S
H868 C878 0.950 1_455 S
H869 C880 0.950 1_455 S
H870 C882 0.950 . S
H871 C883 0.950 . S
C872 H864 0.950 . S
C872 C873 1.386 . S
C872 C874 1.391 . S
C873 C872 1.386 . S
C873 C877 1.393 1_655 S
C874 H866 0.950 . S
C874 C872 1.391 . S
C874 C875 1.400 . S
C875 C874 1.400 . S
C875 C876 1.398 1_655 S
C875 C881 1.491 . S
C876 H867 0.950 . S
C876 C875 1.398 1_455 S
C876 C877 1.391 . S
C877 H865 0.950 . S
C877 C873 1.393 1_455 S
C877 C876 1.391 . S
C878 H868 0.950 1_655 S
C878 C879 1.386 . S
C878 C880 1.391 . S
C879 C878 1.386 . S
C879 C883 1.393 . S
C880 H869 0.950 1_655 S
C880 C878 1.391 . S
C880 C881 1.400 . S
C881 C875 1.491 . S
C881 C880 1.400 . S
C881 C882 1.398 . S
C882 H870 0.950 . S
C882 C881 1.398 . S
C882 C883 1.391 . S
C883 H871 0.950 . S
C883 C879 1.393 . S
C883 C882 1.391 . S
H884 C892 0.950 . S
H885 C897 0.950 . S
H886 C894 0.950 . S
H887 C896 0.950 . S
H888 C898 0.950 . S
H889 C900 0.950 . S
H890 C902 0.950 . S
H891 C903 0.950 . S
C892 H884 0.950 . S
C892 C893 1.386 . S
C892 C894 1.391 . S
C893 C892 1.386 . S
C893 C897 1.393 . S
C894 H886 0.950 . S
C894 C892 1.391 . S
C894 C895 1.400 . S
C895 C894 1.400 . S
C895 C896 1.398 . S
C895 C901 1.491 . S
C896 H887 0.950 . S
C896 C895 1.398 . S
C896 C897 1.391 . S
C897 H885 0.950 . S
C897 C893 1.393 . S
C897 C896 1.391 . S
C898 H888 0.950 . S
C898 C899 1.386 . S
C898 C900 1.391 . S
C899 C898 1.386 . S
C899 C903 1.393 . S
C900 H889 0.950 . S
C900 C898 1.391 . S
C900 C901 1.400 . S
C901 C895 1.491 . S
C901 C900 1.400 . S
C901 C902 1.398 . S
C902 H890 0.950 . S
C902 C901 1.398 . S
C902 C903 1.391 . S
C903 H891 0.950 . S
C903 C899 1.393 . S
C903 C902 1.391 . S
H904 C912 0.950 . S
H905 C917 0.950 . S
H906 C914 0.950 . S
H907 C916 0.950 . S
H908 C918 0.950 . S
H909 C920 0.950 . S
H910 C922 0.950 . S
H911 C923 0.950 . S
C912 H904 0.950 . S
C912 C913 1.386 . S
C912 C914 1.391 . S
C913 C912 1.386 . S
C913 C917 1.393 . S
C914 H906 0.950 . S
C914 C912 1.391 . S
C914 C915 1.400 . S
C915 C914 1.400 . S
C915 C916 1.398 . S
C915 C921 1.491 . S
C916 H907 0.950 . S
C916 C915 1.398 . S
C916 C917 1.391 . S
C917 H905 0.950 . S
C917 C913 1.393 . S
C917 C916 1.391 . S
C918 H908 0.950 . S
C918 C919 1.386 . S
C918 C920 1.391 . S
C919 C918 1.386 . S
C919 C923 1.393 . S
C920 H909 0.950 . S
C920 C918 1.391 . S
C920 C921 1.400 . S
C921 C915 1.491 . S
C921 C920 1.400 . S
C921 C922 1.398 . S
C922 H910 0.950 . S
C922 C921 1.398 . S
C922 C923 1.391 . S
C923 H911 0.950 . S
C923 C919 1.393 . S
C923 C922 1.391 . S
H924 C932 0.950 . S
H925 C937 0.950 . S
H926 C934 0.950 . S
H927 C936 0.950 . S
H928 C938 0.950 . S
H929 C940 0.950 . S
H930 C942 0.950 . S
H931 C943 0.950 . S
C932 H924 0.950 . S
C932 C933 1.386 . S
C932 C934 1.391 . S
C933 C932 1.386 . S
C933 C937 1.393 . S
C934 H926 0.950 . S
C934 C932 1.391 . S
C934 C935 1.400 . S
C935 C934 1.400 . S
C935 C936 1.398 . S
C935 C941 1.491 . S
C936 H927 0.950 . S
C936 C935 1.398 . S
C936 C937 1.391 . S
C937 H925 0.950 . S
C937 C933 1.393 . S
C937 C936 1.391 . S
C938 H928 0.950 . S
C938 C939 1.386 . S
C938 C940 1.391 . S
C939 C938 1.386 . S
C939 C943 1.393 . S
C940 H929 0.950 . S
C940 C938 1.391 . S
C940 C941 1.400 . S
C941 C935 1.491 . S
C941 C940 1.400 . S
C941 C942 1.398 . S
C942 H930 0.950 . S
C942 C941 1.398 . S
C942 C943 1.391 . S
C943 H931 0.950 . S
C943 C939 1.393 . S
C943 C942 1.391 . S
H944 C952 0.950 . S
H945 C957 0.950 . S
H946 C954 0.950 . S
H947 C956 0.950 . S
H948 C958 0.950 . S
H949 C960 0.950 . S
H950 C962 0.950 . S
H951 C963 0.950 . S
C952 H944 0.950 . S
C952 C953 1.386 . S
C952 C954 1.391 . S
C953 C952 1.386 . S
C953 C957 1.393 . S
C954 H946 0.950 . S
C954 C952 1.391 . S
C954 C955 1.400 . S
C955 C954 1.400 . S
C955 C956 1.398 . S
C955 C961 1.491 . S
C956 H947 0.950 . S
C956 C955 1.398 . S
C956 C957 1.391 . S
C957 H945 0.950 . S
C957 C953 1.393 . S
C957 C956 1.391 . S
C958 H948 0.950 . S
C958 C959 1.386 . S
C958 C960 1.391 . S
C959 C958 1.386 . S
C959 C963 1.393 . S
C960 H949 0.950 . S
C960 C958 1.391 . S
C960 C961 1.400 . S
C961 C955 1.491 . S
C961 C960 1.400 . S
C961 C962 1.398 . S
C962 H950 0.950 . S
C962 C961 1.398 . S
C962 C963 1.391 . S
C963 H951 0.950 . S
C963 C959 1.393 . S
C963 C962 1.391 . S
H964 C972 0.950 . S
H965 C977 0.950 . S
H966 C974 0.950 . S
H967 C976 0.950 . S
H968 C978 0.950 . S
H969 C980 0.950 . S
H970 C982 0.950 . S
H971 C983 0.950 . S
C972 H964 0.950 . S
C972 C973 1.386 . S
C972 C974 1.391 . S
C973 C972 1.386 . S
C973 C977 1.393 . S
C974 H966 0.950 . S
C974 C972 1.391 . S
C974 C975 1.400 . S
C975 C974 1.400 . S
C975 C976 1.398 . S
C975 C981 1.491 . S
C976 H967 0.950 . S
C976 C975 1.398 . S
C976 C977 1.391 . S
C977 H965 0.950 . S
C977 C973 1.393 . S
C977 C976 1.391 . S
C978 H968 0.950 . S
C978 C979 1.386 . S
C978 C980 1.391 . S
C979 C978 1.386 . S
C979 C983 1.393 . S
C980 H969 0.950 . S
C980 C978 1.391 . S
C980 C981 1.400 . S
C981 C975 1.491 . S
C981 C980 1.400 . S
C981 C982 1.398 . S
C982 H970 0.950 . S
C982 C981 1.398 . S
C982 C983 1.391 . S
C983 H971 0.950 . S
C983 C979 1.393 . S
C983 C982 1.391 . S
H984 C992 0.950 . S
H985 C997 0.950 . S
H986 C994 0.950 . S
H987 C996 0.950 . S
H988 C998 0.950 . S
H989 C1000 0.950 . S
H990 C1002 0.950 . S
H991 C1003 0.950 . S
C992 H984 0.950 . S
C992 C993 1.386 . S
C992 C994 1.391 . S
C993 C992 1.386 . S
C993 C997 1.393 . S
C994 H986 0.950 . S
C994 C992 1.391 . S
C994 C995 1.400 . S
C995 C994 1.400 . S
C995 C996 1.398 . S
C995 C1001 1.491 . S
C996 H987 0.950 . S
C996 C995 1.398 . S
C996 C997 1.391 . S
C997 H985 0.950 . S
C997 C993 1.393 . S
C997 C996 1.391 . S
C998 H988 0.950 . S
C998 C999 1.386 . S
C998 C1000 1.391 . S
C999 C998 1.386 . S
C999 C1003 1.393 . S
C1000 H989 0.950 . S
C1000 C998 1.391 . S
C1000 C1001 1.400 . S
C1001 C995 1.491 . S
C1001 C1000 1.400 . S
C1001 C1002 1.398 . S
C1002 H990 0.950 . S
C1002 C1001 1.398 . S
C1002 C1003 1.391 . S
C1003 H991 0.950 . S
C1003 C999 1.393 . S
C1003 C1002 1.391 . S
H1004 C1012 0.950 . S
H1005 C1017 0.950 . S
H1006 C1014 0.950 . S
H1007 C1016 0.950 . S
H1008 C1018 0.950 . S
H1009 C1020 0.950 . S
H1010 C1022 0.950 . S
H1011 C1023 0.950 . S
C1012 H1004 0.950 . S
C1012 C1013 1.386 . S
C1012 C1014 1.391 . S
C1013 C1012 1.386 . S
C1013 C1017 1.393 . S
C1014 H1006 0.950 . S
C1014 C1012 1.391 . S
C1014 C1015 1.400 . S
C1015 C1014 1.400 . S
C1015 C1016 1.398 . S
C1015 C1021 1.491 . S
C1016 H1007 0.950 . S
C1016 C1015 1.398 . S
C1016 C1017 1.391 . S
C1017 H1005 0.950 . S
C1017 C1013 1.393 . S
C1017 C1016 1.391 . S
C1018 H1008 0.950 . S
C1018 C1019 1.386 . S
C1018 C1020 1.391 . S
C1019 C1018 1.386 . S
C1019 C1023 1.393 . S
C1020 H1009 0.950 . S
C1020 C1018 1.391 . S
C1020 C1021 1.400 . S
C1021 C1015 1.491 . S
C1021 C1020 1.400 . S
C1021 C1022 1.398 . S
C1022 H1010 0.950 . S
C1022 C1021 1.398 . S
C1022 C1023 1.391 . S
C1023 H1011 0.950 . S
C1023 C1019 1.393 . S
C1023 C1022 1.391 . S
H1024 C1032 0.950 . S
H1025 C1037 0.950 . S
H1026 C1034 0.950 . S
H1027 C1036 0.950 . S
H1028 C1038 0.950 . S
H1029 C1040 0.950 . S
H1030 C1042 0.950 . S
H1031 C1043 0.950 . S
C1032 H1024 0.950 . S
C1032 C1033 1.386 . S
C1032 C1034 1.391 . S
C1033 C1032 1.386 . S
C1033 C1037 1.393 . S
C1034 H1026 0.950 . S
C1034 C1032 1.391 . S
C1034 C1035 1.400 . S
C1035 C1034 1.400 . S
C1035 C1036 1.398 . S
C1035 C1041 1.491 . S
C1036 H1027 0.950 . S
C1036 C1035 1.398 . S
C1036 C1037 1.391 . S
C1037 H1025 0.950 . S
C1037 C1033 1.393 . S
C1037 C1036 1.391 . S
C1038 H1028 0.950 . S
C1038 C1039 1.386 . S
C1038 C1040 1.391 . S
C1039 C1038 1.386 . S
C1039 C1043 1.393 . S
C1040 H1029 0.950 . S
C1040 C1038 1.391 . S
C1040 C1041 1.400 . S
C1041 C1035 1.491 . S
C1041 C1040 1.400 . S
C1041 C1042 1.398 . S
C1042 H1030 0.950 . S
C1042 C1041 1.398 . S
C1042 C1043 1.391 . S
C1043 H1031 0.950 . S
C1043 C1039 1.393 . S
C1043 C1042 1.391 . S
H1044 C1052 0.950 . S
H1045 C1057 0.950 . S
H1046 C1054 0.950 . S
H1047 C1056 0.950 . S
H1048 C1058 0.950 . S
H1049 C1060 0.950 . S
H1050 C1062 0.950 . S
H1051 C1063 0.950 . S
C1052 H1044 0.950 . S
C1052 C1053 1.386 . S
C1052 C1054 1.391 . S
C1053 C1052 1.386 . S
C1053 C1057 1.393 . S
C1054 H1046 0.950 . S
C1054 C1052 1.391 . S
C1054 C1055 1.400 . S
C1055 C1054 1.400 . S
C1055 C1056 1.398 . S
C1055 C1061 1.491 . S
C1056 H1047 0.950 . S
C1056 C1055 1.398 . S
C1056 C1057 1.391 . S
C1057 H1045 0.950 . S
C1057 C1053 1.393 . S
C1057 C1056 1.391 . S
C1058 H1048 0.950 . S
C1058 C1059 1.386 . S
C1058 C1060 1.391 . S
C1059 C1058 1.386 . S
C1059 C1063 1.393 . S
C1060 H1049 0.950 . S
C1060 C1058 1.391 . S
C1060 C1061 1.400 . S
C1061 C1055 1.491 . S
C1061 C1060 1.400 . S
C1061 C1062 1.398 . S
C1062 H1050 0.950 . S
C1062 C1061 1.398 . S
C1062 C1063 1.391 . S
C1063 H1051 0.950 . S
C1063 C1059 1.393 . S
C1063 C1062 1.391 . S
H1064 C1072 0.950 . S
H1065 C1077 0.950 . S
H1066 C1074 0.950 . S
H1067 C1076 0.950 . S
H1068 C1078 0.950 . S
H1069 C1080 0.950 . S
H1070 C1082 0.950 . S
H1071 C1083 0.950 . S
C1072 H1064 0.950 . S
C1072 C1073 1.386 . S
C1072 C1074 1.391 . S
C1073 C1072 1.386 . S
C1073 C1077 1.393 . S
C1074 H1066 0.950 . S
C1074 C1072 1.391 . S
C1074 C1075 1.400 . S
C1075 C1074 1.400 . S
C1075 C1076 1.398 . S
C1075 C1081 1.491 . S
C1076 H1067 0.950 . S
C1076 C1075 1.398 . S
C1076 C1077 1.391 . S
C1077 H1065 0.950 . S
C1077 C1073 1.393 . S
C1077 C1076 1.391 . S
C1078 H1068 0.950 . S
C1078 C1079 1.386 . S
C1078 C1080 1.391 . S
C1079 C1078 1.386 . S
C1079 C1083 1.393 . S
C1080 H1069 0.950 . S
C1080 C1078 1.391 . S
C1080 C1081 1.400 . S
C1081 C1075 1.491 . S
C1081 C1080 1.400 . S
C1081 C1082 1.398 . S
C1082 H1070 0.950 . S
C1082 C1081 1.398 . S
C1082 C1083 1.391 . S
C1083 H1071 0.950 . S
C1083 C1079 1.393 . S
C1083 C1082 1.391 . S
H1084 C1092 0.950 . S
H1085 C1097 0.950 . S
H1086 C1094 0.950 . S
H1087 C1096 0.950 . S
H1088 C1098 0.950 . S
H1089 C1100 0.950 . S
H1090 C1102 0.950 . S
H1091 C1103 0.950 . S
C1092 H1084 0.950 . S
C1092 C1093 1.386 . S
C1092 C1094 1.391 . S
C1093 C1092 1.386 . S
C1093 C1097 1.393 . S
C1094 H1086 0.950 . S
C1094 C1092 1.391 . S
C1094 C1095 1.400 . S
C1095 C1094 1.400 . S
C1095 C1096 1.398 . S
C1095 C1101 1.491 . S
C1096 H1087 0.950 . S
C1096 C1095 1.398 . S
C1096 C1097 1.391 . S
C1097 H1085 0.950 . S
C1097 C1093 1.393 . S
C1097 C1096 1.391 . S
C1098 H1088 0.950 . S
C1098 C1099 1.386 . S
C1098 C1100 1.391 . S
C1099 C1098 1.386 . S
C1099 C1103 1.393 . S
C1100 H1089 0.950 . S
C1100 C1098 1.391 . S
C1100 C1101 1.400 . S
C1101 C1095 1.491 . S
C1101 C1100 1.400 . S
C1101 C1102 1.398 . S
C1102 H1090 0.950 . S
C1102 C1101 1.398 . S
C1102 C1103 1.391 . S
C1103 H1091 0.950 . S
C1103 C1099 1.393 . S
C1103 C1102 1.391 . S
H1104 C1112 0.950 . S
H1105 C1117 0.950 . S
H1106 C1114 0.950 . S
H1107 C1116 0.950 . S
H1108 C1118 0.950 . S
H1109 C1120 0.950 . S
H1110 C1122 0.950 . S
H1111 C1123 0.950 . S
C1112 H1104 0.950 . S
C1112 C1113 1.386 . S
C1112 C1114 1.391 . S
C1113 C1112 1.386 . S
C1113 C1117 1.393 . S
C1114 H1106 0.950 . S
C1114 C1112 1.391 . S
C1114 C1115 1.400 . S
C1115 C1114 1.400 . S
C1115 C1116 1.398 . S
C1115 C1121 1.491 . S
C1116 H1107 0.950 . S
C1116 C1115 1.398 . S
C1116 C1117 1.391 . S
C1117 H1105 0.950 . S
C1117 C1113 1.393 . S
C1117 C1116 1.391 . S
C1118 H1108 0.950 . S
C1118 C1119 1.386 . S
C1118 C1120 1.391 . S
C1119 C1118 1.386 . S
C1119 C1123 1.393 . S
C1120 H1109 0.950 . S
C1120 C1118 1.391 . S
C1120 C1121 1.400 . S
C1121 C1115 1.491 . S
C1121 C1120 1.400 . S
C1121 C1122 1.398 . S
C1122 H1110 0.950 . S
C1122 C1121 1.398 . S
C1122 C1123 1.391 . S
C1123 H1111 0.950 . S
C1123 C1119 1.393 . S
C1123 C1122 1.391 . S
H1124 C1132 0.950 . S
H1125 C1137 0.950 . S
H1126 C1134 0.950 . S
H1127 C1136 0.950 . S
H1128 C1138 0.950 . S
H1129 C1140 0.950 . S
H1130 C1142 0.950 . S
H1131 C1143 0.950 . S
C1132 H1124 0.950 . S
C1132 C1133 1.386 . S
C1132 C1134 1.391 . S
C1133 C1132 1.386 . S
C1133 C1137 1.393 . S
C1134 H1126 0.950 . S
C1134 C1132 1.391 . S
C1134 C1135 1.400 . S
C1135 C1134 1.400 . S
C1135 C1136 1.398 . S
C1135 C1141 1.491 . S
C1136 H1127 0.950 . S
C1136 C1135 1.398 . S
C1136 C1137 1.391 . S
C1137 H1125 0.950 . S
C1137 C1133 1.393 . S
C1137 C1136 1.391 . S
C1138 H1128 0.950 . S
C1138 C1139 1.386 . S
C1138 C1140 1.391 . S
C1139 C1138 1.386 . S
C1139 C1143 1.393 . S
C1140 H1129 0.950 . S
C1140 C1138 1.391 . S
C1140 C1141 1.400 . S
C1141 C1135 1.491 . S
C1141 C1140 1.400 . S
C1141 C1142 1.398 . S
C1142 H1130 0.950 . S
C1142 C1141 1.398 . S
C1142 C1143 1.391 . S
C1143 H1131 0.950 . S
C1143 C1139 1.393 . S
C1143 C1142 1.391 . S
H1144 C1152 0.950 . S
H1145 C1157 0.950 . S
H1146 C1154 0.950 . S
H1147 C1156 0.950 . S
H1148 C1158 0.950 . S
H1149 C1160 0.950 . S
H1150 C1162 0.950 . S
H1151 C1163 0.950 . S
C1152 H1144 0.950 . S
C1152 C1153 1.386 . S
C1152 C1154 1.391 . S
C1153 C1152 1.386 . S
C1153 C1157 1.393 . S
C1154 H1146 0.950 . S
C1154 C1152 1.391 . S
C1154 C1155 1.400 . S
C1155 C1154 1.400 . S
C1155 C1156 1.398 . S
C1155 C1161 1.491 . S
C1156 H1147 0.950 . S
C1156 C1155 1.398 . S
C1156 C1157 1.391 . S
C1157 H1145 0.950 . S
C1157 C1153 1.393 . S
C1157 C1156 1.391 . S
C1158 H1148 0.950 . S
C1158 C1159 1.386 . S
C1158 C1160 1.391 . S
C1159 C1158 1.386 . S
C1159 C1163 1.393 . S
C1160 H1149 0.950 . S
C1160 C1158 1.391 . S
C1160 C1161 1.400 . S
C1161 C1155 1.491 . S
C1161 C1160 1.400 . S
C1161 C1162 1.398 . S
C1162 H1150 0.950 . S
C1162 C1161 1.398 . S
C1162 C1163 1.391 . S
C1163 H1151 0.950 . S
C1163 C1159 1.393 . S
C1163 C1162 1.391 . S
H1164 C1172 0.950 . S
H1165 C1177 0.950 . S
H1166 C1174 0.950 . S
H1167 C1176 0.950 . S
H1168 C1178 0.950 . S
H1169 C1180 0.950 . S
H1170 C1182 0.950 . S
H1171 C1183 0.950 . S
C1172 H1164 0.950 . S
C1172 C1173 1.386 . S
C1172 C1174 1.391 . S
C1173 C1172 1.386 . S
C1173 C1177 1.393 . S
C1174 H1166 0.950 . S
C1174 C1172 1.391 . S
C1174 C1175 1.400 . S
C1175 C1174 1.400 . S
C1175 C1176 1.398 . S
C1175 C1181 1.491 . S
C1176 H1167 0.950 . S
C1176 C1175 1.398 . S
C1176 C1177 1.391 . S
C1177 H1165 0.950 . S
C1177 C1173 1.393 . S
C1177 C1176 1.391 . S
C1178 H1168 0.950 . S
C1178 C1179 1.386 . S
C1178 C1180 1.391 . S
C1179 C1178 1.386 . S
C1179 C1183 1.393 . S
C1180 H1169 0.950 . S
C1180 C1178 1.391 . S
C1180 C1181 1.400 . S
C1181 C1175 1.491 . S
C1181 C1180 1.400 . S
C1181 C1182 1.398 . S
C1182 H1170 0.950 . S
C1182 C1181 1.398 . S
C1182 C1183 1.391 . S
C1183 H1171 0.950 . S
C1183 C1179 1.393 . S
C1183 C1182 1.391 . S
H1184 C1192 0.950 1_565 S
H1185 C1197 0.950 . S
H1186 C1194 0.950 . S
H1187 C1196 0.950 . S
H1188 C1198 0.950 . S
H1189 C1200 0.950 . S
H1190 C1202 0.950 . S
H1191 C1203 0.950 . S
C1192 H1184 0.950 1_545 S
C1192 C1193 1.386 . S
C1192 C1194 1.391 . S
C1193 C1192 1.386 . S
C1193 C1197 1.393 . S
C1194 H1186 0.950 . S
C1194 C1192 1.391 . S
C1194 C1195 1.400 . S
C1195 C1194 1.400 . S
C1195 C1196 1.398 . S
C1195 C1201 1.491 . S
C1196 H1187 0.950 . S
C1196 C1195 1.398 . S
C1196 C1197 1.391 . S
C1197 H1185 0.950 . S
C1197 C1193 1.393 . S
C1197 C1196 1.391 . S
C1198 H1188 0.950 . S
C1198 C1199 1.386 . S
C1198 C1200 1.391 . S
C1199 C1198 1.386 . S
C1199 C1203 1.393 . S
C1200 H1189 0.950 . S
C1200 C1198 1.391 . S
C1200 C1201 1.400 . S
C1201 C1195 1.491 . S
C1201 C1200 1.400 . S
C1201 C1202 1.398 . S
C1202 H1190 0.950 . S
C1202 C1201 1.398 . S
C1202 C1203 1.391 . S
C1203 H1191 0.950 . S
C1203 C1199 1.393 . S
C1203 C1202 1.391 . S
H1204 C1212 0.950 . S
H1205 C1217 0.950 . S
H1206 C1214 0.950 . S
H1207 C1216 0.950 . S
H1208 C1218 0.950 . S
H1209 C1220 0.950 . S
H1210 C1222 0.950 . S
H1211 C1223 0.950 . S
C1212 H1204 0.950 . S
C1212 C1213 1.386 . S
C1212 C1214 1.391 . S
C1213 C1212 1.386 . S
C1213 C1217 1.393 . S
C1214 H1206 0.950 . S
C1214 C1212 1.391 . S
C1214 C1215 1.400 . S
C1215 C1214 1.400 . S
C1215 C1216 1.398 . S
C1215 C1221 1.491 . S
C1216 H1207 0.950 . S
C1216 C1215 1.398 . S
C1216 C1217 1.391 . S
C1217 H1205 0.950 . S
C1217 C1213 1.393 . S
C1217 C1216 1.391 . S
C1218 H1208 0.950 . S
C1218 C1219 1.386 . S
C1218 C1220 1.391 . S
C1219 C1218 1.386 . S
C1219 C1223 1.393 . S
C1220 H1209 0.950 . S
C1220 C1218 1.391 . S
C1220 C1221 1.400 . S
C1221 C1215 1.491 . S
C1221 C1220 1.400 . S
C1221 C1222 1.398 . S
C1222 H1210 0.950 . S
C1222 C1221 1.398 . S
C1222 C1223 1.391 . S
C1223 H1211 0.950 . S
C1223 C1219 1.393 . S
C1223 C1222 1.391 . S
H1224 C1232 0.950 . S
H1225 C1237 0.950 . S
H1226 C1234 0.950 . S
H1227 C1236 0.950 1_554 S
H1228 C1238 0.950 . S
H1229 C1240 0.950 1_554 S
H1230 C1242 0.950 . S
H1231 C1243 0.950 . S
C1232 H1224 0.950 . S
C1232 C1233 1.386 . S
C1232 C1234 1.391 . S
C1233 C1232 1.386 . S
C1233 C1237 1.393 1_556 S
C1234 H1226 0.950 . S
C1234 C1232 1.391 . S
C1234 C1235 1.400 . S
C1235 C1234 1.400 . S
C1235 C1236 1.398 . S
C1235 C1241 1.491 . S
C1236 H1227 0.950 1_556 S
C1236 C1235 1.398 . S
C1236 C1237 1.391 1_556 S
C1237 H1225 0.950 . S
C1237 C1233 1.393 1_554 S
C1237 C1236 1.391 1_554 S
C1238 H1228 0.950 . S
C1238 C1239 1.386 . S
C1238 C1240 1.391 . S
C1239 C1238 1.386 . S
C1239 C1243 1.393 . S
C1240 H1229 0.950 1_556 S
C1240 C1238 1.391 . S
C1240 C1241 1.400 . S
C1241 C1235 1.491 . S
C1241 C1240 1.400 . S
C1241 C1242 1.398 . S
C1242 H1230 0.950 . S
C1242 C1241 1.398 . S
C1242 C1243 1.391 . S
C1243 H1231 0.950 . S
C1243 C1239 1.393 . S
C1243 C1242 1.391 . S
H1244 C1252 0.950 . S
H1245 C1257 0.950 . S
H1246 C1254 0.950 . S
H1247 C1256 0.950 . S
H1248 C1258 0.950 . S
H1249 C1260 0.950 . S
H1250 C1262 0.950 . S
H1251 C1263 0.950 . S
C1252 H1244 0.950 . S
C1252 C1253 1.386 1_554 S
C1252 C1254 1.391 . S
C1253 C1252 1.386 1_556 S
C1253 C1257 1.393 . S
C1254 H1246 0.950 . S
C1254 C1252 1.391 . S
C1254 C1255 1.400 1_554 S
C1255 C1254 1.400 1_556 S
C1255 C1256 1.398 . S
C1255 C1261 1.491 . S
C1256 H1247 0.950 . S
C1256 C1255 1.398 . S
C1256 C1257 1.391 . S
C1257 H1245 0.950 . S
C1257 C1253 1.393 . S
C1257 C1256 1.391 . S
C1258 H1248 0.950 . S
C1258 C1259 1.386 . S
C1258 C1260 1.391 . S
C1259 C1258 1.386 . S
C1259 C1263 1.393 1_556 S
C1260 H1249 0.950 . S
C1260 C1258 1.391 . S
C1260 C1261 1.400 . S
C1261 C1255 1.491 . S
C1261 C1260 1.400 . S
C1261 C1262 1.398 1_556 S
C1262 H1250 0.950 . S
C1262 C1261 1.398 1_554 S
C1262 C1263 1.391 . S
C1263 H1251 0.950 . S
C1263 C1259 1.393 1_554 S
C1263 C1262 1.391 . S
H1264 C1272 0.950 . S
H1265 C1277 0.950 . S
H1266 C1274 0.950 . S
H1267 C1276 0.950 1_556 S
H1268 C1278 0.923 1_456 S
H1269 C1280 0.950 1_556 S
H1270 C1282 0.950 . S
H1271 C1283 0.950 . S
C1272 H1264 0.950 . S
C1272 C1273 1.386 . S
C1272 C1274 1.391 . S
C1273 C1272 1.386 . S
C1273 C1277 1.393 1_554 S
C1274 H1266 0.950 . S
C1274 C1272 1.391 . S
C1274 C1275 1.400 . S
C1275 C1274 1.400 . S
C1275 C1276 1.398 . S
C1275 C1281 1.491 . S
C1276 H1267 0.950 1_554 S
C1276 C1275 1.398 . S
C1276 C1277 1.391 1_554 S
C1277 H1265 0.950 . S
C1277 C1273 1.393 1_556 S
C1277 C1276 1.391 1_556 S
C1278 H1268 0.923 1_654 S
C1278 C1279 1.386 . S
C1278 C1280 1.391 . S
C1279 C1278 1.386 . S
C1279 C1283 1.393 . S
C1280 H1269 0.950 1_554 S
C1280 C1278 1.391 . S
C1280 C1281 1.400 . S
C1281 C1275 1.491 . S
C1281 C1280 1.400 . S
C1281 C1282 1.398 . S
C1282 H1270 0.950 . S
C1282 C1281 1.398 . S
C1282 C1283 1.391 . S
C1283 H1271 0.950 . S
C1283 C1279 1.393 . S
C1283 C1282 1.391 . S
H1284 C1292 0.950 . S
H1285 C1297 0.950 . S
H1286 C1294 0.950 . S
H1287 C1296 0.950 . S
H1288 C1298 0.950 . S
H1289 C1300 0.950 . S
H1290 C1302 0.950 . S
H1291 C1303 0.950 . S
C1292 H1284 0.950 . S
C1292 C1293 1.386 . S
C1292 C1294 1.391 . S
C1293 C1292 1.386 . S
C1293 C1297 1.393 . S
C1294 H1286 0.950 . S
C1294 C1292 1.391 . S
C1294 C1295 1.400 . S
C1295 C1294 1.400 . S
C1295 C1296 1.398 . S
C1295 C1301 1.491 . S
C1296 H1287 0.950 . S
C1296 C1295 1.398 . S
C1296 C1297 1.391 . S
C1297 H1285 0.950 . S
C1297 C1293 1.393 . S
C1297 C1296 1.391 . S
C1298 H1288 0.950 . S
C1298 C1299 1.386 . S
C1298 C1300 1.391 . S
C1299 C1298 1.386 . S
C1299 C1303 1.393 . S
C1300 H1289 0.950 . S
C1300 C1298 1.391 . S
C1300 C1301 1.400 . S
C1301 C1295 1.491 . S
C1301 C1300 1.400 . S
C1301 C1302 1.398 . S
C1302 H1290 0.950 . S
C1302 C1301 1.398 . S
C1302 C1303 1.391 . S
C1303 H1291 0.950 . S
C1303 C1299 1.393 . S
C1303 C1302 1.391 . S
H1304 C1312 0.950 . S
H1305 C1317 0.950 . S
H1306 C1314 0.950 . S
H1307 C1316 0.950 . S
H1308 C1318 0.950 . S
H1309 C1320 0.950 . S
H1310 C1322 0.950 . S
H1311 C1323 0.950 . S
C1312 H1304 0.950 . S
C1312 C1313 1.386 . S
C1312 C1314 1.391 . S
C1313 C1312 1.386 . S
C1313 C1317 1.393 . S
C1314 H1306 0.950 . S
C1314 C1312 1.391 . S
C1314 C1315 1.400 . S
C1315 C1314 1.400 . S
C1315 C1316 1.398 . S
C1315 C1321 1.491 . S
C1316 H1307 0.950 . S
C1316 C1315 1.398 . S
C1316 C1317 1.391 . S
C1317 H1305 0.950 . S
C1317 C1313 1.393 . S
C1317 C1316 1.391 . S
C1318 H1308 0.950 . S
C1318 C1319 1.386 . S
C1318 C1320 1.391 . S
C1319 C1318 1.386 . S
C1319 C1323 1.393 . S
C1320 H1309 0.950 . S
C1320 C1318 1.391 . S
C1320 C1321 1.400 . S
C1321 C1315 1.491 . S
C1321 C1320 1.400 . S
C1321 C1322 1.398 . S
C1322 H1310 0.950 . S
C1322 C1321 1.398 . S
C1322 C1323 1.391 . S
C1323 H1311 0.950 . S
C1323 C1319 1.393 . S
C1323 C1322 1.391 . S
H1324 C1332 0.950 . S
H1325 C1337 0.950 . S
H1326 C1334 0.950 . S
H1327 C1336 0.950 . S
H1328 C1338 0.950 . S
H1329 C1340 0.950 . S
H1330 C1342 0.950 . S
H1331 C1343 0.950 . S
C1332 H1324 0.950 . S
C1332 C1333 1.386 . S
C1332 C1334 1.391 . S
C1333 C1332 1.386 . S
C1333 C1337 1.393 . S
C1334 H1326 0.950 . S
C1334 C1332 1.391 . S
C1334 C1335 1.400 . S
C1335 C1334 1.400 . S
C1335 C1336 1.398 . S
C1335 C1341 1.491 . S
C1336 H1327 0.950 . S
C1336 C1335 1.398 . S
C1336 C1337 1.391 . S
C1337 H1325 0.950 . S
C1337 C1333 1.393 . S
C1337 C1336 1.391 . S
C1338 H1328 0.950 . S
C1338 C1339 1.386 . S
C1338 C1340 1.391 . S
C1339 C1338 1.386 . S
C1339 C1343 1.393 . S
C1340 H1329 0.950 . S
C1340 C1338 1.391 . S
C1340 C1341 1.400 . S
C1341 C1335 1.491 . S
C1341 C1340 1.400 . S
C1341 C1342 1.398 . S
C1342 H1330 0.950 . S
C1342 C1341 1.398 . S
C1342 C1343 1.391 . S
C1343 H1331 0.950 . S
C1343 C1339 1.393 . S
C1343 C1342 1.391 . S
H1344 C1352 0.950 . S
H1345 C1357 0.950 . S
H1346 C1354 0.950 . S
H1347 C1356 0.950 . S
H1348 C1358 0.950 . S
H1349 C1360 0.950 . S
H1350 C1362 0.950 . S
H1351 C1363 0.950 . S
C1352 H1344 0.950 . S
C1352 C1353 1.386 . S
C1352 C1354 1.391 . S
C1353 C1352 1.386 . S
C1353 C1357 1.393 . S
C1354 H1346 0.950 . S
C1354 C1352 1.391 . S
C1354 C1355 1.400 . S
C1355 C1354 1.400 . S
C1355 C1356 1.398 . S
C1355 C1361 1.491 . S
C1356 H1347 0.950 . S
C1356 C1355 1.398 . S
C1356 C1357 1.391 . S
C1357 H1345 0.950 . S
C1357 C1353 1.393 . S
C1357 C1356 1.391 . S
C1358 H1348 0.950 . S
C1358 C1359 1.386 . S
C1358 C1360 1.391 . S
C1359 C1358 1.386 . S
C1359 C1363 1.393 . S
C1360 H1349 0.950 . S
C1360 C1358 1.391 . S
C1360 C1361 1.400 . S
C1361 C1355 1.491 . S
C1361 C1360 1.400 . S
C1361 C1362 1.398 . S
C1362 H1350 0.950 . S
C1362 C1361 1.398 . S
C1362 C1363 1.391 . S
C1363 H1351 0.950 . S
C1363 C1359 1.393 . S
C1363 C1362 1.391 . S
H1364 C1372 0.950 . S
H1365 C1377 0.950 . S
H1366 C1374 0.950 . S
H1367 C1376 0.950 . S
H1368 C1378 0.950 . S
H1369 C1380 0.950 . S
H1370 C1382 0.950 . S
H1371 C1383 0.950 . S
C1372 H1364 0.950 . S
C1372 C1373 1.386 . S
C1372 C1374 1.391 . S
C1373 C1372 1.386 . S
C1373 C1377 1.393 . S
C1374 H1366 0.950 . S
C1374 C1372 1.391 . S
C1374 C1375 1.400 . S
C1375 C1374 1.400 . S
C1375 C1376 1.398 . S
C1375 C1381 1.491 . S
C1376 H1367 0.950 . S
C1376 C1375 1.398 . S
C1376 C1377 1.391 . S
C1377 H1365 0.950 . S
C1377 C1373 1.393 . S
C1377 C1376 1.391 . S
C1378 H1368 0.950 . S
C1378 C1379 1.386 . S
C1378 C1380 1.391 . S
C1379 C1378 1.386 . S
C1379 C1383 1.393 . S
C1380 H1369 0.950 . S
C1380 C1378 1.391 . S
C1380 C1381 1.400 . S
C1381 C1375 1.491 . S
C1381 C1380 1.400 . S
C1381 C1382 1.398 . S
C1382 H1370 0.950 . S
C1382 C1381 1.398 . S
C1382 C1383 1.391 . S
C1383 H1371 0.950 . S
C1383 C1379 1.393 . S
C1383 C1382 1.391 . S
H1384 C1392 0.950 . S
H1385 C1397 0.950 . S
H1386 C1394 0.950 . S
H1387 C1396 0.950 . S
H1388 C1398 0.950 . S
H1389 C1400 0.950 . S
H1390 C1402 0.950 . S
H1391 C1403 0.950 . S
C1392 H1384 0.950 . S
C1392 C1393 1.386 . S
C1392 C1394 1.391 . S
C1393 C1392 1.386 . S
C1393 C1397 1.393 . S
C1394 H1386 0.950 . S
C1394 C1392 1.391 . S
C1394 C1395 1.400 . S
C1395 C1394 1.400 . S
C1395 C1396 1.398 . S
C1395 C1401 1.491 . S
C1396 H1387 0.950 . S
C1396 C1395 1.398 . S
C1396 C1397 1.391 . S
C1397 H1385 0.950 . S
C1397 C1393 1.393 . S
C1397 C1396 1.391 . S
C1398 H1388 0.950 . S
C1398 C1399 1.386 . S
C1398 C1400 1.391 . S
C1399 C1398 1.386 . S
C1399 C1403 1.393 . S
C1400 H1389 0.950 . S
C1400 C1398 1.391 . S
C1400 C1401 1.400 . S
C1401 C1395 1.491 . S
C1401 C1400 1.400 . S
C1401 C1402 1.398 . S
C1402 H1390 0.950 . S
C1402 C1401 1.398 . S
C1402 C1403 1.391 . S
C1403 H1391 0.950 . S
C1403 C1399 1.393 . S
C1403 C1402 1.391 . S
H1404 C1412 0.950 . S
H1405 C1417 0.950 . S
H1406 C1414 0.950 . S
H1407 C1416 0.950 . S
H1408 C1418 0.950 . S
H1409 C1420 0.950 . S
H1410 C1422 0.950 . S
H1411 C1423 0.950 . S
C1412 H1404 0.950 . S
C1412 C1413 1.386 . S
C1412 C1414 1.391 . S
C1413 C1412 1.386 . S
C1413 C1417 1.393 . S
C1414 H1406 0.950 . S
C1414 C1412 1.391 . S
C1414 C1415 1.400 . S
C1415 C1414 1.400 . S
C1415 C1416 1.398 . S
C1415 C1421 1.491 . S
C1416 H1407 0.950 . S
C1416 C1415 1.398 . S
C1416 C1417 1.391 . S
C1417 H1405 0.950 . S
C1417 C1413 1.393 . S
C1417 C1416 1.391 . S
C1418 H1408 0.950 . S
C1418 C1419 1.386 . S
C1418 C1420 1.391 . S
C1419 C1418 1.386 . S
C1419 C1423 1.393 . S
C1420 H1409 0.950 . S
C1420 C1418 1.391 . S
C1420 C1421 1.400 . S
C1421 C1415 1.491 . S
C1421 C1420 1.400 . S
C1421 C1422 1.398 . S
C1422 H1410 0.950 . S
C1422 C1421 1.398 . S
C1422 C1423 1.391 . S
C1423 H1411 0.950 . S
C1423 C1419 1.393 . S
C1423 C1422 1.391 . S
H1424 C1432 0.950 . S
H1425 C1437 0.950 . S
H1426 C1434 0.950 . S
H1427 C1436 0.950 . S
H1428 C1438 0.950 . S
H1429 C1440 0.950 . S
H1430 C1442 0.950 . S
H1431 C1443 0.950 . S
C1432 H1424 0.950 . S
C1432 C1433 1.386 . S
C1432 C1434 1.391 . S
C1433 C1432 1.386 . S
C1433 C1437 1.393 . S
C1434 H1426 0.950 . S
C1434 C1432 1.391 . S
C1434 C1435 1.400 . S
C1435 C1434 1.400 . S
C1435 C1436 1.398 . S
C1435 C1441 1.491 . S
C1436 H1427 0.950 . S
C1436 C1435 1.398 . S
C1436 C1437 1.391 . S
C1437 H1425 0.950 . S
C1437 C1433 1.393 . S
C1437 C1436 1.391 . S
C1438 H1428 0.950 . S
C1438 C1439 1.386 . S
C1438 C1440 1.391 . S
C1439 C1438 1.386 . S
C1439 C1443 1.393 . S
C1440 H1429 0.950 . S
C1440 C1438 1.391 . S
C1440 C1441 1.400 . S
C1441 C1435 1.491 . S
C1441 C1440 1.400 . S
C1441 C1442 1.398 . S
C1442 H1430 0.950 . S
C1442 C1441 1.398 . S
C1442 C1443 1.391 . S
C1443 H1431 0.950 . S
C1443 C1439 1.393 . S
C1443 C1442 1.391 . S
H1444 C1452 0.950 . S
H1445 C1457 0.950 1_556 S
H1446 C1454 0.950 . S
H1447 C1456 0.950 1_556 S
H1448 C1458 0.943 1_556 S
H1449 C1460 0.950 1_556 S
H1450 C1462 0.950 . S
H1451 C1463 0.950 . S
C1452 H1444 0.950 . S
C1452 C1453 1.386 . S
C1452 C1454 1.391 . S
C1453 C1452 1.386 . S
C1453 C1457 1.393 . S
C1454 H1446 0.950 . S
C1454 C1452 1.391 . S
C1454 C1455 1.400 . S
C1455 C1454 1.400 . S
C1455 C1456 1.398 . S
C1455 C1461 1.491 . S
C1456 H1447 0.950 1_554 S
C1456 C1455 1.398 . S
C1456 C1457 1.391 . S
C1457 H1445 0.950 1_554 S
C1457 C1453 1.393 . S
C1457 C1456 1.391 . S
C1458 H1448 0.943 1_554 S
C1458 C1459 1.386 . S
C1458 C1460 1.391 . S
C1459 C1458 1.386 . S
C1459 C1463 1.393 . S
C1460 H1449 0.950 1_554 S
C1460 C1458 1.391 . S
C1460 C1461 1.400 . S
C1461 C1455 1.491 . S
C1461 C1460 1.400 . S
C1461 C1462 1.398 . S
C1462 H1450 0.950 . S
C1462 C1461 1.398 . S
C1462 C1463 1.391 . S
C1463 H1451 0.950 . S
C1463 C1459 1.393 . S
C1463 C1462 1.391 . S
H1464 C1472 0.950 . S
H1465 C1477 0.950 . S
H1466 C1474 0.950 . S
H1467 C1476 0.950 . S
H1468 C1478 0.950 . S
H1469 C1480 0.950 . S
H1470 C1482 0.950 . S
H1471 C1483 0.950 . S
C1472 H1464 0.950 . S
C1472 C1473 1.386 . S
C1472 C1474 1.391 . S
C1473 C1472 1.386 . S
C1473 C1477 1.393 . S
C1474 H1466 0.950 . S
C1474 C1472 1.391 . S
C1474 C1475 1.400 . S
C1475 C1474 1.400 . S
C1475 C1476 1.398 . S
C1475 C1481 1.491 . S
C1476 H1467 0.950 . S
C1476 C1475 1.398 . S
C1476 C1477 1.391 . S
C1477 H1465 0.950 . S
C1477 C1473 1.393 . S
C1477 C1476 1.391 . S
C1478 H1468 0.950 . S
C1478 C1479 1.386 . S
C1478 C1480 1.391 . S
C1479 C1478 1.386 . S
C1479 C1483 1.393 . S
C1480 H1469 0.950 . S
C1480 C1478 1.391 . S
C1480 C1481 1.400 . S
C1481 C1475 1.491 . S
C1481 C1480 1.400 . S
C1481 C1482 1.398 . S
C1482 H1470 0.950 . S
C1482 C1481 1.398 . S
C1482 C1483 1.391 . S
C1483 H1471 0.950 . S
C1483 C1479 1.393 . S
C1483 C1482 1.391 . S
H1484 C1492 0.950 . S
H1485 C1497 0.950 . S
H1486 C1494 0.950 . S
H1487 C1496 0.950 . S
H1488 C1498 0.950 . S
H1489 C1500 0.950 . S
H1490 C1502 0.950 . S
H1491 C1503 0.950 . S
C1492 H1484 0.950 . S
C1492 C1493 1.386 . S
C1492 C1494 1.391 . S
C1493 C1492 1.386 . S
C1493 C1497 1.393 . S
C1494 H1486 0.950 . S
C1494 C1492 1.391 . S
C1494 C1495 1.400 . S
C1495 C1494 1.400 . S
C1495 C1496 1.398 . S
C1495 C1501 1.491 . S
C1496 H1487 0.950 . S
C1496 C1495 1.398 . S
C1496 C1497 1.391 . S
C1497 H1485 0.950 . S
C1497 C1493 1.393 . S
C1497 C1496 1.391 . S
C1498 H1488 0.950 . S
C1498 C1499 1.386 . S
C1498 C1500 1.391 . S
C1499 C1498 1.386 . S
C1499 C1503 1.393 . S
C1500 H1489 0.950 . S
C1500 C1498 1.391 . S
C1500 C1501 1.400 . S
C1501 C1495 1.491 . S
C1501 C1500 1.400 . S
C1501 C1502 1.398 . S
C1502 H1490 0.950 . S
C1502 C1501 1.398 . S
C1502 C1503 1.391 . S
C1503 H1491 0.950 . S
C1503 C1499 1.393 . S
C1503 C1502 1.391 . S
H1504 C1512 0.950 . S
H1505 C1517 0.950 . S
H1506 C1514 0.950 . S
H1507 C1516 0.950 . S
H1508 C1518 0.950 . S
H1509 C1520 0.950 . S
H1510 C1522 0.950 . S
H1511 C1523 0.950 . S
C1512 H1504 0.950 . S
C1512 C1513 1.386 . S
C1512 C1514 1.391 . S
C1513 C1512 1.386 . S
C1513 C1517 1.393 . S
C1514 H1506 0.950 . S
C1514 C1512 1.391 . S
C1514 C1515 1.400 . S
C1515 C1514 1.400 . S
C1515 C1516 1.398 . S
C1515 C1521 1.491 . S
C1516 H1507 0.950 . S
C1516 C1515 1.398 . S
C1516 C1517 1.391 . S
C1517 H1505 0.950 . S
C1517 C1513 1.393 . S
C1517 C1516 1.391 . S
C1518 H1508 0.950 . S
C1518 C1519 1.386 . S
C1518 C1520 1.391 . S
C1519 C1518 1.386 . S
C1519 C1523 1.393 . S
C1520 H1509 0.950 . S
C1520 C1518 1.391 . S
C1520 C1521 1.400 . S
C1521 C1515 1.491 . S
C1521 C1520 1.400 . S
C1521 C1522 1.398 . S
C1522 H1510 0.950 . S
C1522 C1521 1.398 . S
C1522 C1523 1.391 . S
C1523 H1511 0.950 . S
C1523 C1519 1.393 . S
C1523 C1522 1.391 . S
H1524 C1532 0.950 . S
H1525 C1537 0.950 . S
H1526 C1534 0.950 . S
H1527 C1536 0.950 . S
H1528 C1538 0.950 . S
H1529 C1540 0.950 . S
H1530 C1542 0.950 . S
H1531 C1543 0.950 . S
C1532 H1524 0.950 . S
C1532 C1533 1.386 . S
C1532 C1534 1.391 . S
C1533 C1532 1.386 . S
C1533 C1537 1.393 . S
C1534 H1526 0.950 . S
C1534 C1532 1.391 . S
C1534 C1535 1.400 . S
C1535 C1534 1.400 . S
C1535 C1536 1.398 . S
C1535 C1541 1.491 . S
C1536 H1527 0.950 . S
C1536 C1535 1.398 . S
C1536 C1537 1.391 . S
C1537 H1525 0.950 . S
C1537 C1533 1.393 . S
C1537 C1536 1.391 . S
C1538 H1528 0.950 . S
C1538 C1539 1.386 . S
C1538 C1540 1.391 . S
C1539 C1538 1.386 . S
C1539 C1543 1.393 . S
C1540 H1529 0.950 . S
C1540 C1538 1.391 . S
C1540 C1541 1.400 . S
C1541 C1535 1.491 . S
C1541 C1540 1.400 . S
C1541 C1542 1.398 . S
C1542 H1530 0.950 . S
C1542 C1541 1.398 . S
C1542 C1543 1.391 . S
C1543 H1531 0.950 . S
C1543 C1539 1.393 . S
C1543 C1542 1.391 . S
H1544 C1552 0.950 . S
H1545 C1557 0.950 . S
H1546 C1554 0.950 . S
H1547 C1556 0.950 . S
H1548 C1558 0.950 . S
H1549 C1560 0.950 . S
H1550 C1562 0.950 . S
H1551 C1563 0.950 . S
C1552 H1544 0.950 . S
C1552 C1553 1.386 . S
C1552 C1554 1.391 . S
C1553 C1552 1.386 . S
C1553 C1557 1.393 . S
C1554 H1546 0.950 . S
C1554 C1552 1.391 . S
C1554 C1555 1.400 . S
C1555 C1554 1.400 . S
C1555 C1556 1.398 . S
C1555 C1561 1.491 . S
C1556 H1547 0.950 . S
C1556 C1555 1.398 . S
C1556 C1557 1.391 . S
C1557 H1545 0.950 . S
C1557 C1553 1.393 . S
C1557 C1556 1.391 . S
C1558 H1548 0.950 . S
C1558 C1559 1.386 . S
C1558 C1560 1.391 . S
C1559 C1558 1.386 . S
C1559 C1563 1.393 . S
C1560 H1549 0.950 . S
C1560 C1558 1.391 . S
C1560 C1561 1.400 . S
C1561 C1555 1.491 . S
C1561 C1560 1.400 . S
C1561 C1562 1.398 . S
C1562 H1550 0.950 . S
C1562 C1561 1.398 . S
C1562 C1563 1.391 . S
C1563 H1551 0.950 . S
C1563 C1559 1.393 . S
C1563 C1562 1.391 . S
H1564 C1572 0.950 . S
H1565 C1577 0.950 . S
H1566 C1574 0.950 . S
H1567 C1576 0.950 . S
H1568 C1578 0.950 . S
H1569 C1580 0.950 . S
H1570 C1582 0.950 . S
H1571 C1583 0.950 . S
C1572 H1564 0.950 . S
C1572 C1573 1.386 . S
C1572 C1574 1.391 . S
C1573 C1572 1.386 . S
C1573 C1577 1.393 . S
C1574 H1566 0.950 . S
C1574 C1572 1.391 . S
C1574 C1575 1.400 . S
C1575 C1574 1.400 . S
C1575 C1576 1.398 . S
C1575 C1581 1.491 . S
C1576 H1567 0.950 . S
C1576 C1575 1.398 . S
C1576 C1577 1.391 . S
C1577 H1565 0.950 . S
C1577 C1573 1.393 . S
C1577 C1576 1.391 . S
C1578 H1568 0.950 . S
C1578 C1579 1.386 . S
C1578 C1580 1.391 . S
C1579 C1578 1.386 . S
C1579 C1583 1.393 . S
C1580 H1569 0.950 . S
C1580 C1578 1.391 . S
C1580 C1581 1.400 . S
C1581 C1575 1.491 . S
C1581 C1580 1.400 . S
C1581 C1582 1.398 . S
C1582 H1570 0.950 . S
C1582 C1581 1.398 . S
C1582 C1583 1.391 . S
C1583 H1571 0.950 . S
C1583 C1579 1.393 . S
C1583 C1582 1.391 . S
H1584 C1592 0.950 . S
H1585 C1597 0.950 . S
H1586 C1594 0.950 . S
H1587 C1596 0.950 . S
H1588 C1598 0.950 . S
H1589 C1600 0.950 . S
H1590 C1602 0.950 . S
H1591 C1603 0.950 . S
C1592 H1584 0.950 . S
C1592 C1593 1.386 . S
C1592 C1594 1.391 . S
C1593 C1592 1.386 . S
C1593 C1597 1.393 . S
C1594 H1586 0.950 . S
C1594 C1592 1.391 . S
C1594 C1595 1.400 . S
C1595 C1594 1.400 . S
C1595 C1596 1.398 . S
C1595 C1601 1.491 . S
C1596 H1587 0.950 . S
C1596 C1595 1.398 . S
C1596 C1597 1.391 . S
C1597 H1585 0.950 . S
C1597 C1593 1.393 . S
C1597 C1596 1.391 . S
C1598 H1588 0.950 . S
C1598 C1599 1.386 . S
C1598 C1600 1.391 . S
C1599 C1598 1.386 . S
C1599 C1603 1.393 . S
C1600 H1589 0.950 . S
C1600 C1598 1.391 . S
C1600 C1601 1.400 . S
C1601 C1595 1.491 . S
C1601 C1600 1.400 . S
C1601 C1602 1.398 . S
C1602 H1590 0.950 . S
C1602 C1601 1.398 . S
C1602 C1603 1.391 . S
C1603 H1591 0.950 . S
C1603 C1599 1.393 . S
C1603 C1602 1.391 . S
H1604 C1612 0.950 . S
H1605 C1617 0.950 . S
H1606 C1614 0.950 . S
H1607 C1616 0.950 . S
H1608 C1618 0.950 . S
H1609 C1620 0.950 . S
H1610 C1622 0.950 . S
H1611 C1623 0.950 . S
C1612 H1604 0.950 . S
C1612 C1613 1.386 . S
C1612 C1614 1.391 . S
C1613 C1612 1.386 . S
C1613 C1617 1.393 . S
C1614 H1606 0.950 . S
C1614 C1612 1.391 . S
C1614 C1615 1.400 . S
C1615 C1614 1.400 . S
C1615 C1616 1.398 . S
C1615 C1621 1.491 . S
C1616 H1607 0.950 . S
C1616 C1615 1.398 . S
C1616 C1617 1.391 . S
C1617 H1605 0.950 . S
C1617 C1613 1.393 . S
C1617 C1616 1.391 . S
C1618 H1608 0.950 . S
C1618 C1619 1.386 . S
C1618 C1620 1.391 . S
C1619 C1618 1.386 . S
C1619 C1623 1.393 . S
C1620 H1609 0.950 . S
C1620 C1618 1.391 . S
C1620 C1621 1.400 . S
C1621 C1615 1.491 . S
C1621 C1620 1.400 . S
C1621 C1622 1.398 . S
C1622 H1610 0.950 . S
C1622 C1621 1.398 . S
C1622 C1623 1.391 . S
C1623 H1611 0.950 . S
C1623 C1619 1.393 . S
C1623 C1622 1.391 . S
H1624 C1632 0.944 1_545 S
H1625 C1637 0.950 . S
H1626 C1634 0.950 . S
H1627 C1636 0.950 . S
H1628 C1638 0.950 . S
H1629 C1640 0.950 . S
H1630 C1642 0.950 . S
H1631 C1643 0.950 . S
C1632 H1624 0.944 1_565 S
C1632 C1633 1.386 . S
C1632 C1634 1.391 . S
C1633 C1632 1.386 . S
C1633 C1637 1.393 . S
C1634 H1626 0.950 . S
C1634 C1632 1.391 . S
C1634 C1635 1.400 . S
C1635 C1634 1.400 . S
C1635 C1636 1.398 . S
C1635 C1641 1.491 . S
C1636 H1627 0.950 . S
C1636 C1635 1.398 . S
C1636 C1637 1.391 . S
C1637 H1625 0.950 . S
C1637 C1633 1.393 . S
C1637 C1636 1.391 . S
C1638 H1628 0.950 . S
C1638 C1639 1.386 . S
C1638 C1640 1.391 . S
C1639 C1638 1.386 . S
C1639 C1643 1.393 . S
C1640 H1629 0.950 . S
C1640 C1638 1.391 . S
C1640 C1641 1.400 . S
C1641 C1635 1.491 . S
C1641 C1640 1.400 . S
C1641 C1642 1.398 . S
C1642 H1630 0.950 . S
C1642 C1641 1.398 . S
C1642 C1643 1.391 . S
C1643 H1631 0.950 . S
C1643 C1639 1.393 . S
C1643 C1642 1.391 . S
H1644 C1652 0.950 . S
H1645 C1657 0.950 . S
H1646 C1654 0.950 . S
H1647 C1656 0.950 . S
H1648 C1658 0.950 . S
H1649 C1660 0.950 . S
H1650 C1662 0.950 . S
H1651 C1663 0.950 . S
C1652 H1644 0.950 . S
C1652 C1653 1.386 . S
C1652 C1654 1.391 . S
C1653 C1652 1.386 . S
C1653 C1657 1.393 . S
C1654 H1646 0.950 . S
C1654 C1652 1.391 . S
C1654 C1655 1.400 . S
C1655 C1654 1.400 . S
C1655 C1656 1.398 . S
C1655 C1661 1.491 . S
C1656 H1647 0.950 . S
C1656 C1655 1.398 . S
C1656 C1657 1.391 . S
C1657 H1645 0.950 . S
C1657 C1653 1.393 . S
C1657 C1656 1.391 . S
C1658 H1648 0.950 . S
C1658 C1659 1.386 . S
C1658 C1660 1.391 . S
C1659 C1658 1.386 . S
C1659 C1663 1.393 . S
C1660 H1649 0.950 . S
C1660 C1658 1.391 . S
C1660 C1661 1.400 . S
C1661 C1655 1.491 . S
C1661 C1660 1.400 . S
C1661 C1662 1.398 . S
C1662 H1650 0.950 . S
C1662 C1661 1.398 . S
C1662 C1663 1.391 . S
C1663 H1651 0.950 . S
C1663 C1659 1.393 . S
C1663 C1662 1.391 . S
H1664 C1672 0.950 . S
H1665 C1677 0.950 . S
H1666 C1674 0.950 . S
H1667 C1676 0.950 . S
H1668 C1678 0.950 . S
H1669 C1680 0.950 . S
H1670 C1682 0.950 . S
H1671 C1683 0.950 . S
C1672 H1664 0.950 . S
C1672 C1673 1.386 . S
C1672 C1674 1.391 . S
C1673 C1672 1.386 . S
C1673 C1677 1.393 . S
C1674 H1666 0.950 . S
C1674 C1672 1.391 . S
C1674 C1675 1.400 . S
C1675 C1674 1.400 . S
C1675 C1676 1.398 . S
C1675 C1681 1.491 . S
C1676 H1667 0.950 . S
C1676 C1675 1.398 . S
C1676 C1677 1.391 . S
C1677 H1665 0.950 . S
C1677 C1673 1.393 . S
C1677 C1676 1.391 . S
C1678 H1668 0.950 . S
C1678 C1679 1.386 . S
C1678 C1680 1.391 . S
C1679 C1678 1.386 . S
C1679 C1683 1.393 . S
C1680 H1669 0.950 . S
C1680 C1678 1.391 . S
C1680 C1681 1.400 . S
C1681 C1675 1.491 . S
C1681 C1680 1.400 . S
C1681 C1682 1.398 . S
C1682 H1670 0.950 . S
C1682 C1681 1.398 . S
C1682 C1683 1.391 . S
C1683 H1671 0.950 . S
C1683 C1679 1.393 . S
C1683 C1682 1.391 . S
H1684 C1692 0.950 . S
H1685 C1697 0.950 . S
H1686 C1694 0.950 . S
H1687 C1696 0.950 . S
H1688 C1698 0.950 . S
H1689 C1700 0.950 . S
H1690 C1702 0.950 . S
H1691 C1703 0.950 . S
C1692 H1684 0.950 . S
C1692 C1693 1.386 . S
C1692 C1694 1.391 . S
C1693 C1692 1.386 . S
C1693 C1697 1.393 . S
C1694 H1686 0.950 . S
C1694 C1692 1.391 . S
C1694 C1695 1.400 . S
C1695 C1694 1.400 . S
C1695 C1696 1.398 . S
C1695 C1701 1.491 . S
C1696 H1687 0.950 . S
C1696 C1695 1.398 . S
C1696 C1697 1.391 . S
C1697 H1685 0.950 . S
C1697 C1693 1.393 . S
C1697 C1696 1.391 . S
C1698 H1688 0.950 . S
C1698 C1699 1.386 . S
C1698 C1700 1.391 . S
C1699 C1698 1.386 . S
C1699 C1703 1.393 . S
C1700 H1689 0.950 . S
C1700 C1698 1.391 . S
C1700 C1701 1.400 . S
C1701 C1695 1.491 . S
C1701 C1700 1.400 . S
C1701 C1702 1.398 . S
C1702 H1690 0.950 . S
C1702 C1701 1.398 . S
C1702 C1703 1.391 . S
C1703 H1691 0.950 . S
C1703 C1699 1.393 . S
C1703 C1702 1.391 . S
H1704 C1712 0.950 . S
H1705 C1717 0.950 . S
H1706 C1714 0.950 . S
H1707 C1716 0.950 . S
H1708 C1718 0.950 . S
H1709 C1720 0.950 . S
H1710 C1722 0.950 . S
H1711 C1723 0.950 . S
C1712 H1704 0.950 . S
C1712 C1713 1.386 . S
C1712 C1714 1.391 . S
C1713 C1712 1.386 . S
C1713 C1717 1.393 . S
C1714 H1706 0.950 . S
C1714 C1712 1.391 . S
C1714 C1715 1.400 . S
C1715 C1714 1.400 . S
C1715 C1716 1.398 . S
C1715 C1721 1.491 . S
C1716 H1707 0.950 . S
C1716 C1715 1.398 . S
C1716 C1717 1.391 . S
C1717 H1705 0.950 . S
C1717 C1713 1.393 . S
C1717 C1716 1.391 . S
C1718 H1708 0.950 . S
C1718 C1719 1.386 . S
C1718 C1720 1.391 . S
C1719 C1718 1.386 . S
C1719 C1723 1.393 . S
C1720 H1709 0.950 . S
C1720 C1718 1.391 . S
C1720 C1721 1.400 . S
C1721 C1715 1.491 . S
C1721 C1720 1.400 . S
C1721 C1722 1.398 . S
C1722 H1710 0.950 . S
C1722 C1721 1.398 . S
C1722 C1723 1.391 . S
C1723 H1711 0.950 . S
C1723 C1719 1.393 . S
C1723 C1722 1.391 . S
H1724 C1732 0.950 . S
H1725 C1737 0.950 . S
H1726 C1734 0.950 . S
H1727 C1736 0.950 . S
H1728 C1738 0.950 1_554 S
H1729 C1740 0.950 1_554 S
H1730 C1742 0.950 . S
H1731 C1743 0.950 . S
C1732 H1724 0.950 . S
C1732 C1733 1.386 . S
C1732 C1734 1.391 . S
C1733 C1732 1.386 . S
C1733 C1737 1.393 1_556 S
C1734 H1726 0.950 . S
C1734 C1732 1.391 . S
C1734 C1735 1.400 . S
C1735 C1734 1.400 . S
C1735 C1736 1.398 1_556 S
C1735 C1741 1.491 . S
C1736 H1727 0.950 . S
C1736 C1735 1.398 1_554 S
C1736 C1737 1.391 . S
C1737 H1725 0.950 . S
C1737 C1733 1.393 1_554 S
C1737 C1736 1.391 . S
C1738 H1728 0.950 1_556 S
C1738 C1739 1.386 . S
C1738 C1740 1.391 . S
C1739 C1738 1.386 . S
C1739 C1743 1.393 . S
C1740 H1729 0.950 1_556 S
C1740 C1738 1.391 . S
C1740 C1741 1.400 . S
C1741 C1735 1.491 . S
C1741 C1740 1.400 . S
C1741 C1742 1.398 . S
C1742 H1730 0.950 . S
C1742 C1741 1.398 . S
C1742 C1743 1.391 . S
C1743 H1731 0.950 . S
C1743 C1739 1.393 . S
C1743 C1742 1.391 . S
H1744 C1752 0.950 . S
H1745 C1757 0.950 . S
H1746 C1754 0.950 . S
H1747 C1756 0.950 . S
H1748 C1758 0.950 . S
H1749 C1760 0.950 . S
H1750 C1762 0.950 . S
H1751 C1763 0.950 . S
C1752 H1744 0.950 . S
C1752 C1753 1.386 . S
C1752 C1754 1.391 . S
C1753 C1752 1.386 . S
C1753 C1757 1.393 . S
C1754 H1746 0.950 . S
C1754 C1752 1.391 . S
C1754 C1755 1.400 . S
C1755 C1754 1.400 . S
C1755 C1756 1.398 . S
C1755 C1761 1.491 . S
C1756 H1747 0.950 . S
C1756 C1755 1.398 . S
C1756 C1757 1.391 . S
C1757 H1745 0.950 . S
C1757 C1753 1.393 . S
C1757 C1756 1.391 . S
C1758 H1748 0.950 . S
C1758 C1759 1.386 . S
C1758 C1760 1.391 . S
C1759 C1758 1.386 . S
C1759 C1763 1.393 . S
C1760 H1749 0.950 . S
C1760 C1758 1.391 . S
C1760 C1761 1.400 . S
C1761 C1755 1.491 . S
C1761 C1760 1.400 . S
C1761 C1762 1.398 . S
C1762 H1750 0.950 . S
C1762 C1761 1.398 . S
C1762 C1763 1.391 . S
C1763 H1751 0.950 . S
C1763 C1759 1.393 . S
C1763 C1762 1.391 . S
C813 C22 1.673 . S
C819 C697 1.601 1_545 S
C839 C702 1.728 . S
C833 C38 1.804 . S
C859 C640 1.604 1_565 S
C853 C75 1.709 . S
C873 C91 1.730 . S
C879 C664 1.658 . S
C893 C128 1.697 . S
C899 C802 1.647 1_554 S
C913 C197 1.688 . S
C919 C769 1.618 . S
C939 C723 1.763 . S
C933 C144 1.856 . S
C953 C181 1.699 . S
C959 C757 1.628 . S
C979 C676 1.663 . S
C973 C234 1.730 . S
C999 C703 1.686 . S
C993 C303 1.760 . S
C1013 C356 1.758 . S
C1019 C694 1.683 . S
C1033 C287 1.769 . S
C1039 C760 1.662 . S
C1059 C781 1.565 . S
C1053 C393 1.628 . S
C1079 C799 1.782 1_565 S
C1073 C409 1.847 . S
C1093 C462 1.917 . S
C1099 C748 1.819 . S
C1119 C724 1.494 . S
C1113 C446 1.567 . S
C1133 C499 1.659 . S
C1139 C719 1.598 . S
C1153 C552 1.590 . S
C1159 C685 1.529 . S
C1179 C673 1.651 . S
C1173 C515 1.719 . S
C1193 C568 1.986 . S
C1199 C639 1.880 . S
C1219 C740 1.729 . S
C1213 C340 1.799 . S
C1239 C790 1.599 . S
C1233 C621 1.678 . S
C1253 C250 1.673 . S
C1259 C778 1.613 . S
C1273 C605 1.696 . S
C1279 C656 1.624 1_655 S
C1299 C655 1.233 . S
C1293 C39 1.407 . S
C1313 C29 1.127 . S
C1319 C677 1.033 . S
C1339 C682 1.209 . S
C1333 C92 1.404 . S
C1359 C715 1.020 . S
C1353 C82 1.196 . S
C1373 C145 1.417 . S
C1379 C652 1.234 . S
C1393 C188 1.181 . S
C1399 C660 1.045 . S
C1419 C698 1.033 . S
C1413 C135 1.177 . S
C1433 C198 1.370 . S
C1439 C706 1.157 . S
C1453 C251 1.357 . S
C1459 C643 1.190 . S
C1479 C681 1.055 . S
C1473 C294 1.187 . S
C1493 C347 1.181 . S
C1499 C718 1.057 . S
C1513 C304 1.427 . S
C1519 C727 1.199 . S
C1539 C761 1.205 . S
C1533 C410 1.400 . S
C1553 C400 1.151 . S
C1559 C739 1.043 . S
C1573 C453 1.120 . S
C1579 C766 1.002 . S
C1593 C463 1.510 . S
C1599 C786 1.309 . S
C1613 C516 1.438 . S
C1619 C744 1.281 . S
C1639 C736 1.304 . S
C1633 C569 1.463 . S
C1653 C506 1.127 . S
C1659 C782 1.013 . S
C1679 C787 1.040 . S
C1673 C559 1.165 . S
C1699 C745 1.220 . S
C1693 C357 1.350 . S
C1719 C765 1.003 . S
C1713 C612 1.188 . S
C1739 C803 0.994 . S
C1733 C241 1.141 . S
C1753 C622 1.365 . S
C1759 C661 1.129 . S
