# Generated by pormake.
# Topology pyr, (3,6)-cn, num edge types: 1
# Building blocks:
#     Node 0, Type 0, BuildingBlock: OLANEW_clean_sbu_2, # of connection points: 3
#     Node 1, Type 0, BuildingBlock: OLANEW_clean_sbu_2, # of connection points: 3
#     Node 2, Type 0, BuildingBlock: OLANEW_clean_sbu_2, # of connection points: 3
#     Node 3, Type 0, BuildingBlock: OLANEW_clean_sbu_2, # of connection points: 3
#     Node 4, Type 0, BuildingBlock: OLANEW_clean_sbu_2, # of connection points: 3
#     Node 5, Type 0, BuildingBlock: OLANEW_clean_sbu_2, # of connection points: 3
#     Node 6, Type 0, BuildingBlock: OLANEW_clean_sbu_2, # of connection points: 3
#     Node 7, Type 0, BuildingBlock: OLANEW_clean_sbu_2, # of connection points: 3
#     Node 8, Type 1, BuildingBlock: BETFAJ_clean_sbu_0, # of connection points: 6
#     Node 9, Type 1, BuildingBlock: BETFAJ_clean_sbu_0, # of connection points: 6
#     Node 10, Type 1, BuildingBlock: BETFAJ_clean_sbu_0, # of connection points: 6
#     Node 11, Type 1, BuildingBlock: BETFAJ_clean_sbu_0, # of connection points: 6
#     Edge 12, Type (0, 1), BuildingBlock: AJUNOK_clean_linker_0, # of connection points: 2
#     Edge 13, Type (0, 1), BuildingBlock: AJUNOK_clean_linker_0, # of connection points: 2
#     Edge 14, Type (0, 1), BuildingBlock: AJUNOK_clean_linker_0, # of connection points: 2
#     Edge 15, Type (0, 1), BuildingBlock: AJUNOK_clean_linker_0, # of connection points: 2
#     Edge 16, Type (0, 1), BuildingBlock: AJUNOK_clean_linker_0, # of connection points: 2
#     Edge 17, Type (0, 1), BuildingBlock: AJUNOK_clean_linker_0, # of connection points: 2
#     Edge 18, Type (0, 1), BuildingBlock: AJUNOK_clean_linker_0, # of connection points: 2
#     Edge 19, Type (0, 1), BuildingBlock: AJUNOK_clean_linker_0, # of connection points: 2
#     Edge 20, Type (0, 1), BuildingBlock: AJUNOK_clean_linker_0, # of connection points: 2
#     Edge 21, Type (0, 1), BuildingBlock: AJUNOK_clean_linker_0, # of connection points: 2
#     Edge 22, Type (0, 1), BuildingBlock: AJUNOK_clean_linker_0, # of connection points: 2
#     Edge 23, Type (0, 1), BuildingBlock: AJUNOK_clean_linker_0, # of connection points: 2
#     Edge 24, Type (0, 1), BuildingBlock: AJUNOK_clean_linker_0, # of connection points: 2
#     Edge 25, Type (0, 1), BuildingBlock: AJUNOK_clean_linker_0, # of connection points: 2
#     Edge 26, Type (0, 1), BuildingBlock: AJUNOK_clean_linker_0, # of connection points: 2
#     Edge 27, Type (0, 1), BuildingBlock: AJUNOK_clean_linker_0, # of connection points: 2
#     Edge 28, Type (0, 1), BuildingBlock: AJUNOK_clean_linker_0, # of connection points: 2
#     Edge 29, Type (0, 1), BuildingBlock: AJUNOK_clean_linker_0, # of connection points: 2
#     Edge 30, Type (0, 1), BuildingBlock: AJUNOK_clean_linker_0, # of connection points: 2
#     Edge 31, Type (0, 1), BuildingBlock: AJUNOK_clean_linker_0, # of connection points: 2
#     Edge 32, Type (0, 1), BuildingBlock: AJUNOK_clean_linker_0, # of connection points: 2
#     Edge 33, Type (0, 1), BuildingBlock: AJUNOK_clean_linker_0, # of connection points: 2
#     Edge 34, Type (0, 1), BuildingBlock: AJUNOK_clean_linker_0, # of connection points: 2
#     Edge 35, Type (0, 1), BuildingBlock: AJUNOK_clean_linker_0, # of connection points: 2
# Relax obj value: 0.185
# Max RMSD: 0.177
# Mean RMSD: 0.123
data_MOF--net-pyr--node1-OLANEW_clean_sbu_2--node2-BETFAJ_clean_sbu_0--edge1-AJUNOK_clean_linker_0
_symmetry_space_group_name_H-M    P1
_symmetry_Int_Tables_number       1
_symmetry_cell_setting            triclinic
loop_
_symmetry_equiv_pos_as_xyz
'x, y, z'
_cell_length_a     30.819188
_cell_length_b     34.464643
_cell_length_c     30.519381
_cell_angle_alpha  97.05716
_cell_angle_beta   87.809037
_cell_angle_gamma 104.77495
loop_
_atom_site_label
_atom_site_type_symbol
_atom_site_fract_x
_atom_site_fract_y
_atom_site_fract_z
_atom_type_partial_charge
O0 O 0.43818 0.31309 0.21263 0.0
Cd1 Cd 0.41169 0.37014 0.25418 0.0
O2 O 0.39244 0.27781 0.25738 0.0
Cd3 Cd 0.35729 0.2201 0.27524 0.0
O4 O 0.31772 0.22832 0.33232 0.0
C5 C 0.33766 0.24831 0.36669 0.0
O6 O 0.38169 0.25989 0.36732 0.0
C7 C 0.42174 0.27943 0.22727 0.0
C8 C 0.33917 0.39716 0.22556 0.0
O9 O 0.37977 0.41222 0.21372 0.0
O10 O 0.33242 0.3681 0.24954 0.0
O11 O 0.26772 0.90755 0.70075 0.0
Cd12 Cd 0.22873 0.86791 0.63635 0.0
O13 O 0.22265 0.87323 0.74851 0.0
Cd14 Cd 0.17199 0.8472 0.69879 0.0
O15 O 0.13519 0.87997 0.66542 0.0
C16 C 0.15943 0.91457 0.65927 0.0
O17 O 0.2008 0.926 0.6729 0.0
C18 C 0.25762 0.90004 0.73993 0.0
C19 C 0.29089 0.82595 0.61234 0.0
O20 O 0.29186 0.85806 0.59476 0.0
O21 O 0.25773 0.81209 0.63752 0.0
O22 O 0.75791 0.44645 0.88737 0.0
Cd23 Cd 0.68592 0.43807 0.83956 0.0
O24 O 0.74754 0.39542 0.92906 0.0
Cd25 Cd 0.68856 0.34095 0.93094 0.0
O26 O 0.63951 0.28349 0.9479 0.0
C27 C 0.64721 0.26423 0.9788 0.0
O28 O 0.68494 0.27848 1.00066 0.0
C29 C 0.77174 0.4287 0.91711 0.0
C30 C 0.65528 0.47366 0.76768 0.0
O31 O 0.66568 0.49387 0.8057 0.0
O32 O 0.66217 0.43819 0.76208 0.0
O33 O 0.94849 0.79386 0.40651 0.0
Cd34 Cd 0.9279 0.72335 0.35802 0.0
O35 O 0.92073 0.77447 0.47073 0.0
Cd36 Cd 0.88766 0.71103 0.4507 0.0
O37 O 0.82211 0.66931 0.46089 0.0
C38 C 0.79617 0.68795 0.48282 0.0
O39 O 0.81205 0.72651 0.49641 0.0
C40 C 0.94108 0.80238 0.44807 0.0
C41 C 0.95859 0.68477 0.276 0.0
O42 O 0.9278 0.70382 0.27608 0.0
O43 O 0.97682 0.68568 0.31338 0.0
O44 O 0.66649 0.76169 0.78247 0.0
Cd45 Cd 0.63382 0.71885 0.83824 0.0
O46 O 0.65468 0.80441 0.83719 0.0
Cd47 Cd 0.67 0.86234 0.87616 0.0
O48 O 0.6427 0.90171 0.9227 0.0
C49 C 0.60216 0.90191 0.91726 0.0
O50 O 0.57981 0.87935 0.88347 0.0
C51 C 0.6734 0.79775 0.80042 0.0
C52 C 0.70766 0.70256 0.87424 0.0
O53 O 0.68536 0.67866 0.84284 0.0
O54 O 0.69421 0.73357 0.89048 0.0
O55 O 0.77141 0.22083 0.46951 0.0
Cd56 Cd 0.83058 0.25069 0.52213 0.0
O57 O 0.81649 0.24263 0.4153 0.0
Cd58 Cd 0.85644 0.28863 0.46352 0.0
O59 O 0.81629 0.31921 0.5101 0.0
C60 C 0.77918 0.31663 0.49181 0.0
O61 O 0.77461 0.30317 0.44971 0.0
C62 C 0.77911 0.22159 0.42846 0.0
C63 C 0.86997 0.19205 0.54056 0.0
O64 O 0.83739 0.20064 0.56376 0.0
O65 O 0.88495 0.21226 0.50825 0.0
O66 O 0.44413 0.83351 0.25652 0.0
Cd67 Cd 0.43961 0.76565 0.29805 0.0
O68 O 0.38949 0.81945 0.2067 0.0
Cd69 Cd 0.35145 0.75784 0.21523 0.0
O70 O 0.2931 0.70929 0.19084 0.0
C71 C 0.26865 0.72038 0.16471 0.0
O72 O 0.28044 0.75773 0.155 0.0
C73 C 0.42343 0.84428 0.22539 0.0
C74 C 0.46379 0.71171 0.35892 0.0
O75 O 0.4903 0.74569 0.35123 0.0
O76 O 0.42597 0.70261 0.33896 0.0
O77 O 0.17892 0.47583 0.79458 0.0
Cd78 Cd 0.21449 0.44793 0.72532 0.0
O79 O 0.14182 0.41859 0.81965 0.0
Cd80 Cd 0.15671 0.37238 0.76759 0.0
O81 O 0.14518 0.31137 0.72893 0.0
C82 C 0.10608 0.28815 0.7325 0.0
O83 O 0.07634 0.30235 0.75701 0.0
C84 C 0.15316 0.45715 0.82348 0.0
C85 C 0.30002 0.48038 0.68575 0.0
O86 O 0.26594 0.49391 0.67933 0.0
O87 O 0.29464 0.4538 0.71278 0.0
Sm88 Sm 0.04516 0.06257 0.55708 0.0
Sm89 Sm 0.98531 0.02807 0.63861 0.0
C90 C 0.09087 0.09312 0.49023 0.0
C91 C 0.13104 0.12711 0.48973 0.0
C92 C 0.12767 0.16731 0.49818 0.0
C93 C 0.16564 0.19924 0.49588 0.0
C94 C 0.20756 0.19153 0.48528 0.0
C95 C 0.21127 0.15142 0.47939 0.0
C96 C 0.17338 0.11953 0.48163 0.0
C97 C 0.08851 0.04137 0.62317 0.0
C98 C 0.04565 0.12321 0.64589 0.0
C99 C 0.95435 0.99315 0.70942 0.0
C100 C 0.912 0.96537 0.72168 0.0
C101 C 0.91022 0.92435 0.72197 0.0
C102 C 0.87057 0.89746 0.73318 0.0
C103 C 0.83208 0.91117 0.74512 0.0
C104 C 0.83356 0.95207 0.74445 0.0
C105 C 0.87322 0.97902 0.73284 0.0
C106 C 0.93638 0.06148 0.58778 0.0
C107 C 0.98435 0.96694 0.54534 0.0
O108 O 0.05381 0.10239 0.50469 0.0
O109 O 0.09657 0.06046 0.50466 0.0
O110 O 0.0506 1.0237 0.60813 0.0
O111 O 0.10643 0.07154 0.60149 0.0
O112 O 0.04747 0.12043 0.60247 0.0
O113 O 0.02919 0.09131 0.66755 0.0
O114 O 0.97894 0.97813 0.67931 0.0
O115 O 0.95328 0.03018 0.70483 0.0
O116 O 0.97547 0.05779 0.58074 0.0
O117 O 0.91982 0.04354 0.62181 0.0
O118 O 0.97222 0.97073 0.58762 0.0
O119 O 0.00861 0.99796 0.52581 0.0
H120 H 0.09557 0.17422 0.50525 0.0
H121 H 0.16188 0.22989 0.50001 0.0
H122 H 0.24287 0.14442 0.46979 0.0
H123 H 0.17706 0.08889 0.4755 0.0
H124 H 0.93953 0.91299 0.71346 0.0
H125 H 0.87009 0.86587 0.73261 0.0
H126 H 0.80433 0.96332 0.75376 0.0
H127 H 0.87346 1.01049 0.7329 0.0
Sm128 Sm 0.53137 0.07396 0.12816 0.0
Sm129 Sm 0.45528 0.05851 0.0711 0.0
C130 C 0.60602 0.11188 0.16828 0.0
C131 C 0.61415 0.13175 0.21321 0.0
C132 C 0.63389 0.17334 0.21938 0.0
C133 C 0.64743 0.19217 0.26114 0.0
C134 C 0.64197 0.16928 0.29668 0.0
C135 C 0.61652 0.1291 0.2918 0.0
C136 C 0.60244 0.11025 0.24994 0.0
C137 C 0.47707 1.00716 0.16081 0.0
C138 C 0.45667 0.1264 0.15323 0.0
C139 C 0.38349 1.02249 0.0249 0.0
C140 C 0.37892 1.00626 0.97814 0.0
C141 C 0.36034 0.96484 0.96724 0.0
C142 C 0.35344 0.94868 0.92336 0.0
C143 C 0.36476 0.97385 0.88978 0.0
C144 C 0.38643 1.01479 0.90027 0.0
C145 C 0.39393 0.03092 0.94433 0.0
C146 C 0.51941 0.11982 0.03577 0.0
C147 C 0.53286 1.01541 0.03669 0.0
O148 O 0.58463 0.12942 0.14405 0.0
O149 O 0.59263 0.07239 0.16279 0.0
O150 O 0.46557 1.02166 0.12722 0.0
O151 O 0.51274 0.03065 0.17914 0.0
O152 O 0.49505 0.1199 0.16344 0.0
O153 O 0.43149 0.10309 0.12174 0.0
O154 O 0.40322 1.00328 0.04894 0.0
O155 O 0.39594 0.06179 0.03429 0.0
O156 O 0.52384 0.10321 0.06933 0.0
O157 O 0.4802 0.10334 0.01916 0.0
O158 O 0.49275 1.01918 0.02989 0.0
O159 O 0.55652 0.03489 0.0713 0.0
H160 H 0.6415 0.1907 0.19152 0.0
H161 H 0.66686 0.22337 0.26475 0.0
H162 H 0.61194 0.11119 0.31921 0.0
H163 H 0.58523 0.07845 0.24609 0.0
H164 H 0.34964 0.94516 0.9928 0.0
H165 H 0.3362 0.91708 0.91594 0.0
H166 H 0.39542 0.03454 0.87457 0.0
H167 H 0.40989 0.0628 0.95184 0.0
Sm168 Sm 0.53885 0.53169 0.524 0.0
Sm169 Sm 0.53709 0.61143 0.59351 0.0
C170 C 0.57099 0.47364 0.48201 0.0
C171 C 0.59588 0.44707 0.49903 0.0
C172 C 0.64279 0.45926 0.50117 0.0
C173 C 0.66717 0.43561 0.51779 0.0
C174 C 0.64529 0.39821 0.53161 0.0
C175 C 0.59816 0.38567 0.52986 0.0
C176 C 0.57359 0.4101 0.51412 0.0
C177 C 0.45974 0.52137 0.57347 0.0
C178 C 0.57472 0.54112 0.63032 0.0
C179 C 0.50272 0.66507 0.63966 0.0
C180 C 0.48094 0.69372 0.62378 0.0
C181 C 0.44275 0.67976 0.59692 0.0
C182 C 0.41997 0.70678 0.58524 0.0
C183 C 0.4351 0.74788 0.60017 0.0
C184 C 0.47553 0.76248 0.62317 0.0
C185 C 0.49857 0.73536 0.63482 0.0
C186 C 0.61833 0.62329 0.55047 0.0
C187 C 0.50922 0.60795 0.4858 0.0
O188 O 0.59209 0.51194 0.48332 0.0
O189 O 0.52864 0.46814 0.49324 0.0
O190 O 0.49258 0.55163 0.57361 0.0
O191 O 0.46762 0.49379 0.54356 0.0
O192 O 0.5713 0.52236 0.58919 0.0
O193 O 0.56186 0.57497 0.64141 0.0
O194 O 0.48102 0.62682 0.63285 0.0
O195 O 0.54587 0.67169 0.63178 0.0
O196 O 0.5862 0.59177 0.54509 0.0
O197 O 0.60795 0.64898 0.58121 0.0
O198 O 0.51289 0.6263 0.52708 0.0
O199 O 0.51747 0.57157 0.47518 0.0
H200 H 0.66081 0.48653 0.48838 0.0
H201 H 0.70348 0.4454 0.51676 0.0
H202 H 0.58052 0.35644 0.53929 0.0
H203 H 0.53737 0.39964 0.51283 0.0
H204 H 0.42914 0.64786 0.58664 0.0
H205 H 0.3884 0.69523 0.56789 0.0
H206 H 0.4872 0.79425 0.63515 0.0
H207 H 0.52878 0.74669 0.65433 0.0
Sm208 Sm 0.03867 0.52328 0.06574 0.0
Sm209 Sm 0.02157 0.59741 1.01616 0.0
C210 C 0.08137 0.47005 0.08594 0.0
C211 C 0.12067 0.46791 0.11203 0.0
C212 C 0.16099 0.46536 0.09001 0.0
C213 C 0.19663 0.45843 0.11236 0.0
C214 C 0.19334 0.45389 0.1576 0.0
C215 C 0.1539 0.4587 0.18032 0.0
C216 C 0.1179 0.46531 0.15776 0.0
C217 C 1.0046 0.57771 0.12492 0.0
C218 C 0.11165 0.61408 0.07554 0.0
C219 C 0.98669 0.65548 0.99683 0.0
C220 C 0.94527 0.65879 0.97632 0.0
C221 C 0.91089 0.66819 1.00371 0.0
C222 C 0.87197 0.6729 0.98579 0.0
C223 C 0.86605 0.66795 0.93993 0.0
C224 C 0.90047 0.65864 0.91219 0.0
C225 C 0.93979 0.65403 0.93023 0.0
C226 C 0.06388 0.5485 0.95875 0.0
C227 C 0.9455 0.50875 1.00592 0.0
O228 O 0.09048 0.48927 0.051 0.0
O229 O 0.04479 0.47541 0.10662 0.0
O230 O 0.01241 0.5782 0.08392 0.0
O231 O 0.01408 0.54556 0.13586 0.0
O232 O 0.10294 0.57499 0.0794 0.0
O233 O 0.08518 0.63034 0.05454 0.0
O234 O 0.98158 0.64159 0.03528 0.0
O235 O 0.01637 0.64221 0.97145 0.0
O236 O 0.05203 0.54432 0.99856 0.0
O237 O 0.05437 0.58106 0.94923 0.0
O238 O 0.95667 0.54779 1.00167 0.0
O239 O 0.97112 0.49129 0.02759 0.0
H240 H 0.16453 0.46726 0.05484 0.0
H241 H 0.22616 0.4549 0.09353 0.0
H242 H 0.15049 0.45692 0.21548 0.0
H243 H 0.08763 0.46753 0.17599 0.0
H244 H 0.91432 0.67261 0.03928 0.0
H245 H 0.84694 0.6815 1.00807 0.0
H246 H 0.89697 0.65491 0.87664 0.0
H247 H 0.96583 0.64704 0.90817 0.0
C248 C 0.26756 0.25612 0.40326 0.0
C249 C 0.31108 0.25136 0.40692 0.0
C250 C 0.2346 0.24247 0.43423 0.0
C251 C 0.24435 0.22303 0.46908 0.0
H252 H 0.25771 0.26632 0.37384 0.0
H253 H 0.20031 0.24214 0.42719 0.0
S254 S 0.35678 0.21582 0.50018 0.0
N255 N 0.36519 0.23591 0.45321 0.0
N256 N 0.30277 0.20951 0.51176 0.0
C257 C 0.28944 0.22461 0.47701 0.0
C258 C 0.32313 0.23899 0.44561 0.0
C259 C 0.28539 0.95837 0.79588 0.0
C260 C 0.28841 0.9207 0.77488 0.0
C261 C 0.31351 0.97732 0.83118 0.0
C262 C 0.34507 0.95889 0.84612 0.0
H263 H 0.2603 0.9725 0.78593 0.0
H264 H 0.30864 1.00527 0.84857 0.0
S265 S 0.36896 0.86274 0.79717 0.0
N266 N 0.32731 0.86747 0.7675 0.0
N267 N 0.38043 0.90294 0.83445 0.0
C268 C 0.34992 0.92232 0.82342 0.0
C269 C 0.32136 0.90319 0.78752 0.0
C270 C 0.63925 0.53217 0.733 0.0
C271 C 0.63466 0.49024 0.73205 0.0
C272 C 0.61964 0.54831 0.70053 0.0
C273 C 0.59446 0.52339 0.6653 0.0
H274 H 0.6585 0.5529 0.75899 0.0
H275 H 0.62486 0.58076 0.70277 0.0
S276 S 0.56682 0.41139 0.65016 0.0
N277 N 0.59913 0.42403 0.69425 0.0
N278 N 0.56293 0.45425 0.63379 0.0
C279 C 0.58862 0.48143 0.6645 0.0
C280 C 0.60845 0.46496 0.69757 0.0
C281 C 0.93916 0.63956 0.20284 0.0
C282 C 0.97156 0.66109 0.23456 0.0
C283 C 0.95024 0.61447 0.1658 0.0
C284 C 0.9944 0.61032 0.1583 0.0
H285 H 0.9045 0.64079 0.2076 0.0
H286 H 0.92368 0.597 0.14385 0.0
S287 S 0.09238 0.66216 0.22898 0.0
N288 N 0.05025 0.67755 0.25405 0.0
N289 N 0.0708 0.63126 0.18508 0.0
C290 C 0.02713 0.63254 0.18899 0.0
C291 C 0.01586 0.65764 0.22677 0.0
C292 C 0.45445 0.22063 0.2323 0.0
C293 C 0.43251 0.24168 0.2075 0.0
C294 C 0.46151 0.1829 0.21502 0.0
C295 C 0.44526 0.16423 0.17309 0.0
H296 H 0.46638 0.23351 0.26516 0.0
H297 H 0.47962 0.16819 0.23469 0.0
S298 S 0.3843 0.20706 0.09639 0.0
N299 N 0.39433 0.24148 0.13988 0.0
N300 N 0.40601 0.17029 0.10757 0.0
C301 C 0.42255 0.18496 0.14857 0.0
C302 C 0.41655 0.22371 0.16576 0.0
C303 C 0.11415 0.96233 0.6805 0.0
C304 C 0.1399 0.94561 0.64837 0.0
C305 C 0.10137 0.99712 0.67429 0.0
C306 C 0.11478 1.01595 0.63621 0.0
H307 H 0.10428 0.94865 0.71065 0.0
H308 H 0.07935 1.00836 0.69834 0.0
S309 S 0.18136 0.98244 0.54217 0.0
N310 N 0.17838 0.94933 0.57768 0.0
N311 N 0.15383 1.01503 0.56537 0.0
C312 C 0.14127 0.99976 0.60423 0.0
C313 C 0.15396 0.96428 0.61048 0.0
C314 C 0.84854 0.47923 0.92277 0.0
C315 C 0.81679 0.44731 0.93961 0.0
C316 C 0.89007 0.49757 0.94383 0.0
C317 C 0.90259 0.48505 0.98291 0.0
H318 H 0.84127 0.49048 0.89302 0.0
H319 H 0.91265 0.52224 0.92925 0.0
S320 S 0.83162 0.40423 0.04249 0.0
N321 N 0.80114 0.4048 0.99936 0.0
N322 N 0.87892 0.43923 0.03813 0.0
C323 C 0.87158 0.45307 1.00005 0.0
C324 C 0.82899 0.43438 0.97875 0.0
C325 C 0.71907 0.69242 0.5046 0.0
C326 C 0.74887 0.66807 0.49303 0.0
C327 C 0.67572 0.67618 0.51956 0.0
C328 C 0.66003 0.63488 0.52422 0.0
H329 H 0.72963 0.72473 0.5033 0.0
H330 H 0.65485 0.6968 0.52947 0.0
S331 S 0.72402 0.55771 0.49538 0.0
N332 N 0.75901 0.60012 0.4839 0.0
N333 N 0.67711 0.56934 0.5136 0.0
C334 C 0.68843 0.60955 0.51049 0.0
C335 C 0.73297 0.62626 0.49459 0.0
C336 C 0.3103 0.44417 0.18429 0.0
C337 C 0.3015 0.41292 0.21156 0.0
C338 C 0.27553 0.45833 0.16864 0.0
C339 C 0.23016 0.44195 0.17944 0.0
H340 H 0.34438 0.45754 0.17423 0.0
H341 H 0.28439 0.48207 0.14731 0.0
S342 S 0.18899 0.36166 0.25259 0.0
N343 N 0.24391 0.36794 0.25125 0.0
N344 N 0.17877 0.39374 0.22093 0.0
C345 C 0.22103 0.41176 0.20808 0.0
C346 C 0.25651 0.39742 0.22423 0.0
C347 C 0.62296 0.2088 0.0283 0.0
C348 C 0.61427 0.22677 0.99149 0.0
C349 C 0.59278 0.17418 0.04202 0.0
C350 C 0.55228 0.15565 0.01969 0.0
H351 H 0.65336 0.22173 0.04715 0.0
H352 H 0.60129 0.16208 0.07062 0.0
S353 S 0.51366 0.18911 0.92031 0.0
N354 N 0.5621 0.22207 0.93221 0.0
N355 N 0.50571 0.15745 0.95798 0.0
C356 C 0.54338 0.17287 0.9825 0.0
C357 C 0.57413 0.20817 0.96846 0.0
C358 C 0.95659 0.85159 0.5181 0.0
C359 C 0.95373 0.84498 0.47147 0.0
C360 C 0.96572 0.89074 0.5415 0.0
C361 C 0.97247 0.92551 0.51961 0.0
H362 H 0.95181 0.82618 0.53698 0.0
H363 H 0.96812 0.8937 0.57713 0.0
S364 S 0.96292 0.92521 0.39885 0.0
N365 N 0.95462 0.87697 0.40509 0.0
N366 N 0.97214 0.95026 0.44869 0.0
C367 C 0.96873 0.91938 0.47326 0.0
C368 C 0.9593 0.8794 0.44941 0.0
C369 C 0.33404 0.78269 0.63946 0.0
C370 C 0.32903 0.8075 0.60779 0.0
C371 C 0.37008 0.76523 0.63745 0.0
C372 C 0.40217 0.77174 0.60367 0.0
H373 H 0.31004 0.77669 0.6662 0.0
H374 H 0.37236 0.74558 0.66195 0.0
S375 S 0.40676 0.83596 0.51463 0.0
N376 N 0.361 0.83969 0.54309 0.0
N377 N 0.42884 0.80541 0.53912 0.0
C378 C 0.39879 0.79719 0.57252 0.0
C379 C 0.36211 0.8155 0.57469 0.0
C380 C 0.70992 0.85357 0.75574 0.0
C381 C 0.71266 0.82776 0.787 0.0
C382 C 0.74875 0.88109 0.74248 0.0
C383 C 0.79106 0.88305 0.75996 0.0
H384 H 0.67791 0.85223 0.74135 0.0
H385 H 0.74582 0.90037 0.71787 0.0
S386 S 0.8141 0.8231 0.84495 0.0
N387 N 0.75959 0.80664 0.83639 0.0
N388 N 0.83239 0.85837 0.81191 0.0
C389 C 0.79354 0.85778 0.79192 0.0
C390 C 0.75428 0.83011 0.80534 0.0
C391 C 0.75339 0.19629 0.35216 0.0
C392 C 0.74255 0.20454 0.39674 0.0
C393 C 0.72009 0.18509 0.32028 0.0
C394 C 0.67496 0.18218 0.33183 0.0
H395 H 0.78791 0.19896 0.3417 0.0
H396 H 0.72972 0.17867 0.28615 0.0
S397 S 0.62841 0.20063 0.44336 0.0
N398 N 0.68293 0.2085 0.45093 0.0
N399 N 0.6203 0.18783 0.38979 0.0
C400 C 0.66314 0.1896 0.37601 0.0
C401 C 0.69706 0.20071 0.40883 0.0
C402 C 0.44984 0.64433 0.39354 0.0
C403 C 0.47629 0.68419 0.38992 0.0
C404 C 0.46107 0.61892 0.42274 0.0
C405 C 0.49903 0.63216 0.45051 0.0
H406 H 0.41992 0.63256 0.37373 0.0
H407 H 0.43907 0.58913 0.42445 0.0
S408 S 0.58043 0.73243 0.45392 0.0
N409 N 0.54351 0.73409 0.41685 0.0
N410 N 0.56332 0.68753 0.47136 0.0
C411 C 0.52568 0.6715 0.44694 0.0
C412 C 0.51478 0.697 0.41695 0.0
C413 C 0.13268 0.47543 0.90392 0.0
C414 C 0.13098 0.48004 0.85868 0.0
C415 C 0.11047 0.49658 0.93672 0.0
C416 C 0.08485 0.52244 0.9254 0.0
H417 H 0.15198 0.45592 0.91412 0.0
H418 H 0.11427 0.49326 0.97095 0.0
S419 S 0.06344 0.53893 0.81097 0.0
N420 N 0.0979 0.50903 0.80441 0.0
N421 N 0.05546 0.54726 0.86468 0.0
C422 C 0.08134 0.52537 0.88 0.0
C423 C 0.10444 0.50462 0.84708 0.0
C424 C 0.60005 0.94236 0.98994 0.0
C425 C 0.58163 0.92869 0.94771 0.0
C426 C 0.58444 0.97081 0.01838 0.0
C427 C 0.54987 0.9866 1.00555 0.0
H428 H 0.62705 0.93119 1.00108 0.0
H429 H 0.59945 0.98027 0.05072 0.0
S430 S 0.48831 0.95876 0.89921 0.0
N431 N 0.52528 0.93124 0.89519 0.0
N432 N 0.49626 0.98541 0.94826 0.0
C433 C 0.53016 0.97231 0.96378 0.0
C434 C 0.54585 0.94303 0.93498 0.0
C435 C 0.87156 0.13948 0.58797 0.0
C436 C 0.88836 0.15888 0.55078 0.0
C437 C 0.88626 0.10691 0.5984 0.0
C438 C 0.91841 0.0925 0.57213 0.0
H439 H 0.84683 0.14948 0.60956 0.0
H440 H 0.87291 0.09359 0.628 0.0
S441 S 0.97199 0.13113 0.47034 0.0
N442 N 0.93881 0.16092 0.48708 0.0
N443 N 0.96531 0.09825 0.50663 0.0
C444 C 0.93524 0.111 0.53462 0.0
C445 C 0.92056 0.14464 0.52397 0.0
C446 C 0.22729 0.65251 0.12786 0.0
C447 C 0.22769 0.69239 0.14487 0.0
C448 C 0.18972 0.62725 0.10511 0.0
C449 C 0.15149 0.64115 0.09859 0.0
H450 H 0.25656 0.64115 0.13109 0.0
H451 H 0.19091 0.59688 0.09198 0.0
S452 S 0.13353 0.7409 0.14313 0.0
N453 N 0.18513 0.74304 0.1579 0.0
N454 N 0.11482 0.69587 0.11525 0.0
C455 C 0.15107 0.68045 0.11696 0.0
C456 C 0.18908 0.70596 0.14012 0.0
C457 C 0.35198 0.52729 0.63731 0.0
C458 C 0.34329 0.4931 0.66063 0.0
C459 C 0.39096 0.53791 0.61091 0.0
C460 C 0.42225 0.51426 0.60604 0.0
H461 H 0.32815 0.54571 0.63892 0.0
H462 H 0.39568 0.56382 0.59281 0.0
S463 S 0.41721 0.42303 0.66042 0.0
N464 N 0.37134 0.43681 0.6778 0.0
N465 N 0.44316 0.45628 0.62744 0.0
C466 C 0.41456 0.48066 0.62954 0.0
C467 C 0.37556 0.47023 0.657 0.0
C468 C 0.78996 0.70885 0.87273 0.0
C469 C 0.74754 0.694 0.8914 0.0
C470 C 0.8281 0.69938 0.8877 0.0
C471 C 0.82483 0.67459 0.92168 0.0
H472 H 0.79364 0.72791 0.84644 0.0
H473 H 0.86042 0.71227 0.87326 0.0
S474 S 0.71989 0.62619 0.97855 0.0
N475 N 0.70361 0.65276 0.94389 0.0
N476 N 0.77463 0.63345 0.97132 0.0
C477 C 0.78203 0.65884 0.93962 0.0
C478 C 0.74353 0.66894 0.92466 0.0
C479 C 0.42825 0.89158 0.16522 0.0
C480 C 0.43711 0.88619 0.20929 0.0
C481 C 0.43861 0.93032 0.14947 0.0
C482 C 0.45766 0.96606 0.17726 0.0
H483 H 0.41374 0.86536 0.14219 0.0
H484 H 0.43288 0.93201 0.11505 0.0
S485 S 0.48191 0.97026 0.29642 0.0
N486 N 0.46279 0.92147 0.28063 0.0
N487 N 0.4813 0.99311 0.25212 0.0
C488 C 0.46491 0.96107 0.22155 0.0
C489 C 0.45498 0.9218 0.23726 0.0
C490 C 0.05288 0.21935 0.72362 0.0
C491 C 0.09345 0.24548 0.71106 0.0
C492 C 0.03854 0.17925 0.70392 0.0
C493 C 0.06375 0.16376 0.67021 0.0
H494 H 0.03159 0.22996 0.74886 0.0
H495 H 1.00669 0.16072 0.71407 0.0
S496 S 0.17327 0.21793 0.62586 0.0
N497 N 0.15964 0.25162 0.66357 0.0
N498 N 0.13195 0.17659 0.62588 0.0
C499 C 0.10467 0.18904 0.65759 0.0
C500 C 0.11975 0.22976 0.67817 0.0
C501 C 0.69844 0.31406 0.49766 0.0
C502 C 0.74181 0.32993 0.51503 0.0
C503 C 0.66427 0.33339 0.50877 0.0
C504 C 0.67262 0.3696 0.53723 0.0
H505 H 0.69181 0.28856 0.47223 0.0
H506 H 0.63303 0.3225 0.49082 0.0
S507 S 0.77589 0.41588 0.60239 0.0
N508 N 0.78805 0.3778 0.57028 0.0
N509 N 0.72363 0.41496 0.59094 0.0
C510 C 0.71365 0.3822 0.56001 0.0
C511 C 0.74845 0.36212 0.54893 0.0
loop_
_geom_bond_atom_site_label_1
_geom_bond_atom_site_label_2
_geom_bond_distance
_geom_bond_site_symmetry_2
_ccdc_geom_bond_type
O0 Cd1 2.300 . S
O0 C7 1.275 . S
Cd1 O0 2.300 . S
Cd1 O9 2.381 . S
Cd1 O10 2.378 . S
O2 Cd3 2.385 . S
O2 C7 1.255 . S
Cd3 O2 2.385 . S
Cd3 O4 2.317 . S
O4 Cd3 2.317 . S
O4 C5 1.232 . S
C5 O4 1.232 . S
C5 O6 1.218 . S
O6 C5 1.218 . S
C7 O0 1.275 . S
C7 O2 1.255 . S
C8 O9 1.258 . S
C8 O10 1.256 . S
O9 Cd1 2.381 . S
O9 C8 1.258 . S
O10 Cd1 2.378 . S
O10 C8 1.256 . S
O11 Cd12 2.300 . S
O11 C18 1.275 . S
Cd12 O11 2.300 . S
Cd12 O20 2.381 . S
Cd12 O21 2.378 . S
O13 Cd14 2.385 . S
O13 C18 1.255 . S
Cd14 O13 2.385 . S
Cd14 O15 2.317 . S
O15 Cd14 2.317 . S
O15 C16 1.232 . S
C16 O15 1.232 . S
C16 O17 1.218 . S
O17 C16 1.218 . S
C18 O11 1.275 . S
C18 O13 1.255 . S
C19 O20 1.258 . S
C19 O21 1.256 . S
O20 Cd12 2.381 . S
O20 C19 1.258 . S
O21 Cd12 2.378 . S
O21 C19 1.256 . S
O22 Cd23 2.300 . S
O22 C29 1.275 . S
Cd23 O22 2.300 . S
Cd23 O31 2.381 . S
Cd23 O32 2.378 . S
O24 Cd25 2.385 . S
O24 C29 1.255 . S
Cd25 O24 2.385 . S
Cd25 O26 2.317 . S
O26 Cd25 2.317 . S
O26 C27 1.232 . S
C27 O26 1.232 . S
C27 O28 1.218 . S
O28 C27 1.218 . S
C29 O22 1.275 . S
C29 O24 1.255 . S
C30 O31 1.258 . S
C30 O32 1.256 . S
O31 Cd23 2.381 . S
O31 C30 1.258 . S
O32 Cd23 2.378 . S
O32 C30 1.256 . S
O33 Cd34 2.300 . S
O33 C40 1.275 . S
Cd34 O33 2.300 . S
Cd34 O42 2.381 . S
Cd34 O43 2.378 . S
O35 Cd36 2.385 . S
O35 C40 1.255 . S
Cd36 O35 2.385 . S
Cd36 O37 2.317 . S
O37 Cd36 2.317 . S
O37 C38 1.232 . S
C38 O37 1.232 . S
C38 O39 1.218 . S
O39 C38 1.218 . S
C40 O33 1.275 . S
C40 O35 1.255 . S
C41 O42 1.258 . S
C41 O43 1.256 . S
O42 Cd34 2.381 . S
O42 C41 1.258 . S
O43 Cd34 2.378 . S
O43 C41 1.256 . S
O44 Cd45 2.300 . S
O44 C51 1.275 . S
Cd45 O44 2.300 . S
Cd45 O53 2.381 . S
Cd45 O54 2.378 . S
O46 Cd47 2.385 . S
O46 C51 1.255 . S
Cd47 O46 2.385 . S
Cd47 O48 2.317 . S
O48 Cd47 2.317 . S
O48 C49 1.232 . S
C49 O48 1.232 . S
C49 O50 1.218 . S
O50 C49 1.218 . S
C51 O44 1.275 . S
C51 O46 1.255 . S
C52 O53 1.258 . S
C52 O54 1.256 . S
O53 Cd45 2.381 . S
O53 C52 1.258 . S
O54 Cd45 2.378 . S
O54 C52 1.256 . S
O55 Cd56 2.300 . S
O55 C62 1.275 . S
Cd56 O55 2.300 . S
Cd56 O64 2.381 . S
Cd56 O65 2.378 . S
O57 Cd58 2.385 . S
O57 C62 1.255 . S
Cd58 O57 2.385 . S
Cd58 O59 2.317 . S
O59 Cd58 2.317 . S
O59 C60 1.232 . S
C60 O59 1.232 . S
C60 O61 1.218 . S
O61 C60 1.218 . S
C62 O55 1.275 . S
C62 O57 1.255 . S
C63 O64 1.258 . S
C63 O65 1.256 . S
O64 Cd56 2.381 . S
O64 C63 1.258 . S
O65 Cd56 2.378 . S
O65 C63 1.256 . S
O66 Cd67 2.300 . S
O66 C73 1.275 . S
Cd67 O66 2.300 . S
Cd67 O75 2.381 . S
Cd67 O76 2.378 . S
O68 Cd69 2.385 . S
O68 C73 1.255 . S
Cd69 O68 2.385 . S
Cd69 O70 2.317 . S
O70 Cd69 2.317 . S
O70 C71 1.232 . S
C71 O70 1.232 . S
C71 O72 1.218 . S
O72 C71 1.218 . S
C73 O66 1.275 . S
C73 O68 1.255 . S
C74 O75 1.258 . S
C74 O76 1.256 . S
O75 Cd67 2.381 . S
O75 C74 1.258 . S
O76 Cd67 2.378 . S
O76 C74 1.256 . S
O77 Cd78 2.300 . S
O77 C84 1.275 . S
Cd78 O77 2.300 . S
Cd78 O86 2.381 . S
Cd78 O87 2.378 . S
O79 Cd80 2.385 . S
O79 C84 1.255 . S
Cd80 O79 2.385 . S
Cd80 O81 2.317 . S
O81 Cd80 2.317 . S
O81 C82 1.232 . S
C82 O81 1.232 . S
C82 O83 1.218 . S
O83 C82 1.218 . S
C84 O77 1.275 . S
C84 O79 1.255 . S
C85 O86 1.258 . S
C85 O87 1.256 . S
O86 Cd78 2.381 . S
O86 C85 1.258 . S
O87 Cd78 2.378 . S
O87 C85 1.256 . S
Sm88 C90 2.846 . S
Sm88 O108 2.543 . S
Sm88 O109 2.450 . S
Sm88 O110 2.689 . S
Sm88 O111 2.464 . S
Sm88 O112 2.396 . S
Sm88 O116 2.386 1_455 S
Sm88 O119 2.408 1_445 S
Sm89 C99 2.846 1_545 S
Sm89 O110 2.394 1_655 S
Sm89 O113 2.408 1_655 S
Sm89 O114 2.543 1_545 S
Sm89 O115 2.450 1_545 S
Sm89 O116 2.681 . S
Sm89 O117 2.464 . S
Sm89 O118 2.396 1_545 S
C90 Sm88 2.846 . S
C90 C91 1.506 . S
C90 O108 1.261 . S
C90 O109 1.242 . S
C91 C90 1.506 . S
C91 C92 1.358 . S
C91 C96 1.382 . S
C92 C91 1.358 . S
C92 C93 1.385 . S
C92 H120 0.930 . S
C93 C92 1.385 . S
C93 C94 1.395 . S
C93 H121 0.929 . S
C94 C93 1.395 . S
C94 C95 1.335 . S
C95 C94 1.335 . S
C95 C96 1.398 . S
C95 H122 0.930 . S
C96 C91 1.382 . S
C96 C95 1.398 . S
C96 H123 0.929 . S
C97 O110 1.265 1_565 S
C97 O111 1.251 1_565 S
C98 O112 1.252 . S
C98 O113 1.272 . S
C99 Sm89 2.846 1_565 S
C99 C100 1.506 . S
C99 O114 1.261 . S
C99 O115 1.242 . S
C100 C99 1.506 . S
C100 C101 1.358 . S
C100 C105 1.382 . S
C101 C100 1.358 . S
C101 C102 1.385 . S
C101 H124 0.930 . S
C102 C101 1.385 . S
C102 C103 1.395 . S
C102 H125 0.929 . S
C103 C102 1.395 . S
C103 C104 1.335 . S
C104 C103 1.335 . S
C104 C105 1.398 . S
C104 H126 0.930 . S
C105 C100 1.382 . S
C105 C104 1.398 . S
C105 H127 0.929 . S
C106 O116 1.271 . S
C106 O117 1.251 . S
C107 O118 1.252 . S
C107 O119 1.272 . S
O108 Sm88 2.543 . S
O108 C90 1.261 . S
O109 Sm88 2.450 . S
O109 C90 1.242 . S
O110 Sm88 2.689 . S
O110 Sm89 2.394 1_455 S
O110 C97 1.265 1_545 S
O111 Sm88 2.464 . S
O111 C97 1.251 1_545 S
O112 Sm88 2.396 . S
O112 C98 1.252 . S
O113 Sm89 2.408 1_455 S
O113 C98 1.272 . S
O114 Sm89 2.543 1_565 S
O114 C99 1.261 . S
O115 Sm89 2.450 1_565 S
O115 C99 1.242 . S
O116 Sm88 2.386 1_655 S
O116 Sm89 2.681 . S
O116 C106 1.271 . S
O117 Sm89 2.464 . S
O117 C106 1.251 . S
O118 Sm89 2.396 1_565 S
O118 C107 1.252 . S
O119 Sm88 2.408 1_665 S
O119 C107 1.272 . S
H120 C92 0.930 . S
H121 C93 0.929 . S
H122 C95 0.930 . S
H123 C96 0.929 . S
H124 C101 0.930 . S
H125 C102 0.929 . S
H126 C104 0.930 . S
H127 C105 0.929 . S
Sm128 C130 2.846 . S
Sm128 O148 2.543 . S
Sm128 O149 2.450 . S
Sm128 O150 2.681 . S
Sm128 O151 2.464 1_545 S
Sm128 O152 2.396 . S
Sm128 O156 2.386 . S
Sm128 O159 2.408 . S
Sm129 C139 2.846 1_544 S
Sm129 O150 2.386 . S
Sm129 O153 2.408 . S
Sm129 O154 2.543 1_544 S
Sm129 O155 2.450 1_554 S
Sm129 O156 2.681 . S
Sm129 O157 2.464 . S
Sm129 O158 2.386 1_554 S
C130 Sm128 2.846 . S
C130 C131 1.506 . S
C130 O148 1.261 . S
C130 O149 1.242 . S
C131 C130 1.506 . S
C131 C132 1.358 . S
C131 C136 1.382 . S
C132 C131 1.358 . S
C132 C133 1.385 . S
C132 H160 0.930 . S
C133 C132 1.385 . S
C133 C134 1.395 . S
C133 H161 0.929 . S
C134 C133 1.395 . S
C134 C135 1.335 . S
C135 C134 1.335 . S
C135 C136 1.398 . S
C135 H162 0.930 . S
C136 C131 1.382 . S
C136 C135 1.398 . S
C136 H163 0.929 . S
C137 O150 1.271 1_565 S
C137 O151 1.251 . S
C138 O152 1.252 . S
C138 O153 1.272 . S
C139 Sm129 2.846 1_566 S
C139 C140 1.506 . S
C139 O154 1.261 . S
C139 O155 1.242 1_565 S
C140 C139 1.506 . S
C140 C141 1.358 . S
C140 C145 1.382 . S
C141 C140 1.358 . S
C141 C142 1.385 . S
C141 H164 0.930 . S
C142 C141 1.385 . S
C142 C143 1.395 . S
C142 H165 0.929 . S
C143 C142 1.395 . S
C143 C144 1.335 . S
C144 C143 1.335 . S
C144 C145 1.398 . S
C144 H166 0.930 . S
C145 C140 1.382 . S
C145 C144 1.398 . S
C145 H167 0.929 1_565 S
C146 O156 1.271 . S
C146 O157 1.251 . S
C147 O158 1.264 1_554 S
C147 O159 1.272 . S
O148 Sm128 2.543 . S
O148 C130 1.261 . S
O149 Sm128 2.450 . S
O149 C130 1.242 . S
O150 Sm128 2.681 . S
O150 Sm129 2.386 . S
O150 C137 1.271 1_545 S
O151 Sm128 2.464 1_565 S
O151 C137 1.251 . S
O152 Sm128 2.396 . S
O152 C138 1.252 . S
O153 Sm129 2.408 . S
O153 C138 1.272 . S
O154 Sm129 2.543 1_566 S
O154 C139 1.261 . S
O155 Sm129 2.450 1_556 S
O155 C139 1.242 1_545 S
O156 Sm128 2.386 . S
O156 Sm129 2.681 . S
O156 C146 1.271 . S
O157 Sm129 2.464 . S
O157 C146 1.251 . S
O158 Sm129 2.386 1_556 S
O158 C147 1.264 1_556 S
O159 Sm128 2.408 . S
O159 C147 1.272 . S
H160 C132 0.930 . S
H161 C133 0.929 . S
H162 C135 0.930 . S
H163 C136 0.929 . S
H164 C141 0.930 . S
H165 C142 0.929 . S
H166 C144 0.930 . S
H167 C145 0.929 1_545 S
Sm168 C170 2.846 . S
Sm168 O188 2.543 . S
Sm168 O189 2.450 . S
Sm168 O190 2.681 . S
Sm168 O191 2.464 . S
Sm168 O192 2.396 . S
Sm168 O196 2.386 . S
Sm168 O199 2.408 . S
Sm169 C179 2.846 . S
Sm169 O190 2.386 . S
Sm169 O193 2.408 . S
Sm169 O194 2.543 . S
Sm169 O195 2.450 . S
Sm169 O196 2.681 . S
Sm169 O197 2.464 . S
Sm169 O198 2.396 . S
C170 Sm168 2.846 . S
C170 C171 1.506 . S
C170 O188 1.261 . S
C170 O189 1.242 . S
C171 C170 1.506 . S
C171 C172 1.358 . S
C171 C176 1.382 . S
C172 C171 1.358 . S
C172 C173 1.385 . S
C172 H200 0.930 . S
C173 C172 1.385 . S
C173 C174 1.395 . S
C173 H201 0.929 . S
C174 C173 1.395 . S
C174 C175 1.335 . S
C175 C174 1.335 . S
C175 C176 1.398 . S
C175 H202 0.930 . S
C176 C171 1.382 . S
C176 C175 1.398 . S
C176 H203 0.929 . S
C177 O190 1.271 . S
C177 O191 1.251 . S
C178 O192 1.252 . S
C178 O193 1.272 . S
C179 Sm169 2.846 . S
C179 C180 1.506 . S
C179 O194 1.261 . S
C179 O195 1.242 . S
C180 C179 1.506 . S
C180 C181 1.358 . S
C180 C185 1.382 . S
C181 C180 1.358 . S
C181 C182 1.385 . S
C181 H204 0.930 . S
C182 C181 1.385 . S
C182 C183 1.395 . S
C182 H205 0.929 . S
C183 C182 1.395 . S
C183 C184 1.335 . S
C184 C183 1.335 . S
C184 C185 1.398 . S
C184 H206 0.930 . S
C185 C180 1.382 . S
C185 C184 1.398 . S
C185 H207 0.929 . S
C186 O196 1.271 . S
C186 O197 1.251 . S
C187 O198 1.252 . S
C187 O199 1.272 . S
O188 Sm168 2.543 . S
O188 C170 1.261 . S
O189 Sm168 2.450 . S
O189 C170 1.242 . S
O190 Sm168 2.681 . S
O190 Sm169 2.386 . S
O190 C177 1.271 . S
O191 Sm168 2.464 . S
O191 C177 1.251 . S
O192 Sm168 2.396 . S
O192 C178 1.252 . S
O193 Sm169 2.408 . S
O193 C178 1.272 . S
O194 Sm169 2.543 . S
O194 C179 1.261 . S
O195 Sm169 2.450 . S
O195 C179 1.242 . S
O196 Sm168 2.386 . S
O196 Sm169 2.681 . S
O196 C186 1.271 . S
O197 Sm169 2.464 . S
O197 C186 1.251 . S
O198 Sm169 2.396 . S
O198 C187 1.252 . S
O199 Sm168 2.408 . S
O199 C187 1.272 . S
H200 C172 0.930 . S
H201 C173 0.929 . S
H202 C175 0.930 . S
H203 C176 0.929 . S
H204 C181 0.930 . S
H205 C182 0.929 . S
H206 C184 0.930 . S
H207 C185 0.929 . S
Sm208 C210 2.846 . S
Sm208 O228 2.543 . S
Sm208 O229 2.450 . S
Sm208 O230 2.681 1_455 S
Sm208 O231 2.464 1_455 S
Sm208 O232 2.396 . S
Sm208 O236 2.386 1_554 S
Sm208 O239 2.408 1_455 S
Sm209 C219 2.846 1_455 S
Sm209 O230 2.386 1_456 S
Sm209 O233 2.408 1_556 S
Sm209 O234 2.543 1_455 S
Sm209 O235 2.450 1_455 S
Sm209 O236 2.681 . S
Sm209 O237 2.464 . S
Sm209 O238 2.396 1_455 S
C210 Sm208 2.846 . S
C210 C211 1.506 . S
C210 O228 1.261 . S
C210 O229 1.242 . S
C211 C210 1.506 . S
C211 C212 1.358 . S
C211 C216 1.382 . S
C212 C211 1.358 . S
C212 C213 1.385 . S
C212 H240 0.930 . S
C213 C212 1.385 . S
C213 C214 1.395 . S
C213 H241 0.929 . S
C214 C213 1.395 . S
C214 C215 1.335 . S
C215 C214 1.335 . S
C215 C216 1.398 . S
C215 H242 0.930 . S
C216 C211 1.382 . S
C216 C215 1.398 . S
C216 H243 0.929 . S
C217 O230 1.271 . S
C217 O231 1.251 . S
C218 O232 1.252 . S
C218 O233 1.272 . S
C219 Sm209 2.846 1_655 S
C219 C220 1.506 . S
C219 O234 1.261 . S
C219 O235 1.242 . S
C220 C219 1.506 . S
C220 C221 1.358 . S
C220 C225 1.382 . S
C221 C220 1.358 . S
C221 C222 1.385 . S
C221 H244 0.930 . S
C222 C221 1.385 . S
C222 C223 1.395 . S
C222 H245 0.929 . S
C223 C222 1.395 . S
C223 C224 1.335 . S
C224 C223 1.335 . S
C224 C225 1.398 . S
C224 H246 0.930 . S
C225 C220 1.382 . S
C225 C224 1.398 . S
C225 H247 0.929 . S
C226 O236 1.271 . S
C226 O237 1.251 . S
C227 O238 1.252 . S
C227 O239 1.272 1_556 S
O228 Sm208 2.543 . S
O228 C210 1.261 . S
O229 Sm208 2.450 . S
O229 C210 1.242 . S
O230 Sm208 2.681 1_655 S
O230 Sm209 2.386 1_654 S
O230 C217 1.271 . S
O231 Sm208 2.464 1_655 S
O231 C217 1.251 . S
O232 Sm208 2.396 . S
O232 C218 1.252 . S
O233 Sm209 2.408 1_554 S
O233 C218 1.272 . S
O234 Sm209 2.543 1_655 S
O234 C219 1.261 . S
O235 Sm209 2.450 1_655 S
O235 C219 1.242 . S
O236 Sm208 2.386 1_556 S
O236 Sm209 2.681 . S
O236 C226 1.271 . S
O237 Sm209 2.464 . S
O237 C226 1.251 . S
O238 Sm209 2.396 1_655 S
O238 C227 1.252 . S
O239 Sm208 2.408 1_655 S
O239 C227 1.272 1_554 S
H240 C212 0.930 . S
H241 C213 0.929 . S
H242 C215 0.930 . S
H243 C216 0.929 . S
H244 C221 0.930 . S
H245 C222 0.929 . S
H246 C224 0.930 . S
H247 C225 0.929 . S
C248 C249 1.369 . S
C248 C250 1.419 . S
C248 H252 0.930 . S
C249 C248 1.369 . S
C249 C258 1.429 . S
C250 C248 1.419 . S
C250 C251 1.363 . S
C250 H253 0.929 . S
C251 C250 1.363 . S
C251 C257 1.428 . S
H252 C248 0.930 . S
H253 C250 0.929 . S
S254 N255 1.613 . S
S254 N256 1.610 . S
N255 S254 1.613 . S
N255 C258 1.350 . S
N256 S254 1.610 . S
N256 C257 1.351 . S
C257 C251 1.428 . S
C257 N256 1.351 . S
C257 C258 1.434 . S
C258 C249 1.429 . S
C258 N255 1.350 . S
C258 C257 1.434 . S
C259 C260 1.369 . S
C259 C261 1.419 . S
C259 H263 0.930 . S
C260 C259 1.369 . S
C260 C269 1.429 . S
C261 C259 1.419 . S
C261 C262 1.363 . S
C261 H264 0.929 . S
C262 C261 1.363 . S
C262 C268 1.428 . S
H263 C259 0.930 . S
H264 C261 0.929 . S
S265 N266 1.613 . S
S265 N267 1.610 . S
N266 S265 1.613 . S
N266 C269 1.350 . S
N267 S265 1.610 . S
N267 C268 1.351 . S
C268 C262 1.428 . S
C268 N267 1.351 . S
C268 C269 1.434 . S
C269 C260 1.429 . S
C269 N266 1.350 . S
C269 C268 1.434 . S
C270 C271 1.369 . S
C270 C272 1.419 . S
C270 H274 0.930 . S
C271 C270 1.369 . S
C271 C280 1.429 . S
C272 C270 1.419 . S
C272 C273 1.363 . S
C272 H275 0.929 . S
C273 C272 1.363 . S
C273 C279 1.428 . S
H274 C270 0.930 . S
H275 C272 0.929 . S
S276 N277 1.613 . S
S276 N278 1.610 . S
N277 S276 1.613 . S
N277 C280 1.350 . S
N278 S276 1.610 . S
N278 C279 1.351 . S
C279 C273 1.428 . S
C279 N278 1.351 . S
C279 C280 1.434 . S
C280 C271 1.429 . S
C280 N277 1.350 . S
C280 C279 1.434 . S
C281 C282 1.369 . S
C281 C283 1.419 . S
C281 H285 0.930 . S
C282 C281 1.369 . S
C282 C291 1.429 . S
C283 C281 1.419 . S
C283 C284 1.363 . S
C283 H286 0.929 . S
C284 C283 1.363 . S
C284 C290 1.428 1_655 S
H285 C281 0.930 . S
H286 C283 0.929 . S
S287 N288 1.613 . S
S287 N289 1.610 . S
N288 S287 1.613 . S
N288 C291 1.350 1_455 S
N289 S287 1.610 . S
N289 C290 1.351 . S
C290 C284 1.428 1_455 S
C290 N289 1.351 . S
C290 C291 1.434 1_455 S
C291 C282 1.429 . S
C291 N288 1.350 1_655 S
C291 C290 1.434 1_655 S
C292 C293 1.369 . S
C292 C294 1.419 . S
C292 H296 0.930 . S
C293 C292 1.369 . S
C293 C302 1.429 . S
C294 C292 1.419 . S
C294 C295 1.363 . S
C294 H297 0.929 . S
C295 C294 1.363 . S
C295 C301 1.428 . S
H296 C292 0.930 . S
H297 C294 0.929 . S
S298 N299 1.613 . S
S298 N300 1.610 . S
N299 S298 1.613 . S
N299 C302 1.350 . S
N300 S298 1.610 . S
N300 C301 1.351 . S
C301 C295 1.428 . S
C301 N300 1.351 . S
C301 C302 1.434 . S
C302 C293 1.429 . S
C302 N299 1.350 . S
C302 C301 1.434 . S
C303 C304 1.369 . S
C303 C305 1.419 . S
C303 H307 0.930 . S
C304 C303 1.369 . S
C304 C313 1.429 . S
C305 C303 1.419 . S
C305 C306 1.363 . S
C305 H308 0.929 . S
C306 C305 1.363 . S
C306 C312 1.428 . S
H307 C303 0.930 . S
H308 C305 0.929 . S
S309 N310 1.613 . S
S309 N311 1.610 . S
N310 S309 1.613 . S
N310 C313 1.350 . S
N311 S309 1.610 . S
N311 C312 1.351 . S
C312 C306 1.428 . S
C312 N311 1.351 . S
C312 C313 1.434 . S
C313 C304 1.429 . S
C313 N310 1.350 . S
C313 C312 1.434 . S
C314 C315 1.369 . S
C314 C316 1.419 . S
C314 H318 0.930 . S
C315 C314 1.369 . S
C315 C324 1.429 . S
C316 C314 1.419 . S
C316 C317 1.363 . S
C316 H319 0.929 . S
C317 C316 1.363 . S
C317 C323 1.428 . S
H318 C314 0.930 . S
H319 C316 0.929 . S
S320 N321 1.613 1_554 S
S320 N322 1.610 . S
N321 S320 1.613 1_556 S
N321 C324 1.350 . S
N322 S320 1.610 . S
N322 C323 1.351 1_554 S
C323 C317 1.428 . S
C323 N322 1.351 1_556 S
C323 C324 1.434 . S
C324 C315 1.429 . S
C324 N321 1.350 . S
C324 C323 1.434 . S
C325 C326 1.369 . S
C325 C327 1.419 . S
C325 H329 0.930 . S
C326 C325 1.369 . S
C326 C335 1.429 . S
C327 C325 1.419 . S
C327 C328 1.363 . S
C327 H330 0.929 . S
C328 C327 1.363 . S
C328 C334 1.428 . S
H329 C325 0.930 . S
H330 C327 0.929 . S
S331 N332 1.613 . S
S331 N333 1.610 . S
N332 S331 1.613 . S
N332 C335 1.350 . S
N333 S331 1.610 . S
N333 C334 1.351 . S
C334 C328 1.428 . S
C334 N333 1.351 . S
C334 C335 1.434 . S
C335 C326 1.429 . S
C335 N332 1.350 . S
C335 C334 1.434 . S
C336 C337 1.369 . S
C336 C338 1.419 . S
C336 H340 0.930 . S
C337 C336 1.369 . S
C337 C346 1.429 . S
C338 C336 1.419 . S
C338 C339 1.363 . S
C338 H341 0.929 . S
C339 C338 1.363 . S
C339 C345 1.428 . S
H340 C336 0.930 . S
H341 C338 0.929 . S
S342 N343 1.613 . S
S342 N344 1.610 . S
N343 S342 1.613 . S
N343 C346 1.350 . S
N344 S342 1.610 . S
N344 C345 1.351 . S
C345 C339 1.428 . S
C345 N344 1.351 . S
C345 C346 1.434 . S
C346 C337 1.429 . S
C346 N343 1.350 . S
C346 C345 1.434 . S
C347 C348 1.369 . S
C347 C349 1.419 1_556 S
C347 H351 0.930 1_556 S
C348 C347 1.369 . S
C348 C357 1.429 . S
C349 C347 1.419 1_554 S
C349 C350 1.373 . S
C349 H352 0.929 . S
C350 C349 1.373 . S
C350 C356 1.404 1_554 S
H351 C347 0.930 1_554 S
H352 C349 0.929 . S
S353 N354 1.613 . S
S353 N355 1.610 . S
N354 S353 1.613 . S
N354 C357 1.350 . S
N355 S353 1.610 . S
N355 C356 1.351 . S
C356 C350 1.404 1_556 S
C356 N355 1.351 . S
C356 C357 1.434 . S
C357 C348 1.429 . S
C357 N354 1.350 . S
C357 C356 1.434 . S
C358 C359 1.369 . S
C358 C360 1.419 . S
C358 H362 0.930 . S
C359 C358 1.369 . S
C359 C368 1.429 . S
C360 C358 1.419 . S
C360 C361 1.363 . S
C360 H363 0.929 . S
C361 C360 1.363 . S
C361 C367 1.428 . S
H362 C358 0.930 . S
H363 C360 0.929 . S
S364 N365 1.613 . S
S364 N366 1.610 . S
N365 S364 1.613 . S
N365 C368 1.350 . S
N366 S364 1.610 . S
N366 C367 1.351 . S
C367 C361 1.428 . S
C367 N366 1.351 . S
C367 C368 1.434 . S
C368 C359 1.429 . S
C368 N365 1.350 . S
C368 C367 1.434 . S
C369 C370 1.369 . S
C369 C371 1.419 . S
C369 H373 0.930 . S
C370 C369 1.369 . S
C370 C379 1.429 . S
C371 C369 1.419 . S
C371 C372 1.363 . S
C371 H374 0.929 . S
C372 C371 1.363 . S
C372 C378 1.428 . S
H373 C369 0.930 . S
H374 C371 0.929 . S
S375 N376 1.613 . S
S375 N377 1.610 . S
N376 S375 1.613 . S
N376 C379 1.350 . S
N377 S375 1.610 . S
N377 C378 1.351 . S
C378 C372 1.428 . S
C378 N377 1.351 . S
C378 C379 1.434 . S
C379 C370 1.429 . S
C379 N376 1.350 . S
C379 C378 1.434 . S
C380 C381 1.369 . S
C380 C382 1.419 . S
C380 H384 0.930 . S
C381 C380 1.369 . S
C381 C390 1.429 . S
C382 C380 1.419 . S
C382 C383 1.363 . S
C382 H385 0.929 . S
C383 C382 1.363 . S
C383 C389 1.428 . S
H384 C380 0.930 . S
H385 C382 0.929 . S
S386 N387 1.613 . S
S386 N388 1.610 . S
N387 S386 1.613 . S
N387 C390 1.350 . S
N388 S386 1.610 . S
N388 C389 1.351 . S
C389 C383 1.428 . S
C389 N388 1.351 . S
C389 C390 1.434 . S
C390 C381 1.429 . S
C390 N387 1.350 . S
C390 C389 1.434 . S
C391 C392 1.369 . S
C391 C393 1.419 . S
C391 H395 0.930 . S
C392 C391 1.369 . S
C392 C401 1.429 . S
C393 C391 1.419 . S
C393 C394 1.363 . S
C393 H396 0.929 . S
C394 C393 1.363 . S
C394 C400 1.428 . S
H395 C391 0.930 . S
H396 C393 0.929 . S
S397 N398 1.613 . S
S397 N399 1.610 . S
N398 S397 1.613 . S
N398 C401 1.350 . S
N399 S397 1.610 . S
N399 C400 1.351 . S
C400 C394 1.428 . S
C400 N399 1.351 . S
C400 C401 1.434 . S
C401 C392 1.429 . S
C401 N398 1.350 . S
C401 C400 1.434 . S
C402 C403 1.369 . S
C402 C404 1.419 . S
C402 H406 0.930 . S
C403 C402 1.369 . S
C403 C412 1.429 . S
C404 C402 1.419 . S
C404 C405 1.363 . S
C404 H407 0.929 . S
C405 C404 1.363 . S
C405 C411 1.428 . S
H406 C402 0.930 . S
H407 C404 0.929 . S
S408 N409 1.613 . S
S408 N410 1.610 . S
N409 S408 1.613 . S
N409 C412 1.350 . S
N410 S408 1.610 . S
N410 C411 1.351 . S
C411 C405 1.428 . S
C411 N410 1.351 . S
C411 C412 1.434 . S
C412 C403 1.429 . S
C412 N409 1.350 . S
C412 C411 1.434 . S
C413 C414 1.369 . S
C413 C415 1.419 . S
C413 H417 0.930 . S
C414 C413 1.369 . S
C414 C423 1.429 . S
C415 C413 1.419 . S
C415 C416 1.363 . S
C415 H418 0.929 . S
C416 C415 1.363 . S
C416 C422 1.428 . S
H417 C413 0.930 . S
H418 C415 0.929 . S
S419 N420 1.613 . S
S419 N421 1.610 . S
N420 S419 1.613 . S
N420 C423 1.350 . S
N421 S419 1.610 . S
N421 C422 1.351 . S
C422 C416 1.428 . S
C422 N421 1.351 . S
C422 C423 1.434 . S
C423 C414 1.429 . S
C423 N420 1.350 . S
C423 C422 1.434 . S
C424 C425 1.369 . S
C424 C426 1.419 . S
C424 H428 0.930 . S
C425 C424 1.369 . S
C425 C434 1.429 . S
C426 C424 1.419 . S
C426 C427 1.363 . S
C426 H429 0.929 . S
C427 C426 1.363 . S
C427 C433 1.428 . S
H428 C424 0.930 . S
H429 C426 0.929 . S
S430 N431 1.613 . S
S430 N432 1.610 . S
N431 S430 1.613 . S
N431 C434 1.350 . S
N432 S430 1.610 . S
N432 C433 1.351 . S
C433 C427 1.428 . S
C433 N432 1.351 . S
C433 C434 1.434 . S
C434 C425 1.429 . S
C434 N431 1.350 . S
C434 C433 1.434 . S
C435 C436 1.369 . S
C435 C437 1.419 . S
C435 H439 0.930 . S
C436 C435 1.369 . S
C436 C445 1.429 . S
C437 C435 1.419 . S
C437 C438 1.363 . S
C437 H440 0.929 . S
C438 C437 1.363 . S
C438 C444 1.428 . S
H439 C435 0.930 . S
H440 C437 0.929 . S
S441 N442 1.613 . S
S441 N443 1.610 . S
N442 S441 1.613 . S
N442 C445 1.350 . S
N443 S441 1.610 . S
N443 C444 1.351 . S
C444 C438 1.428 . S
C444 N443 1.351 . S
C444 C445 1.434 . S
C445 C436 1.429 . S
C445 N442 1.350 . S
C445 C444 1.434 . S
C446 C447 1.369 . S
C446 C448 1.419 . S
C446 H450 0.930 . S
C447 C446 1.369 . S
C447 C456 1.429 . S
C448 C446 1.419 . S
C448 C449 1.363 . S
C448 H451 0.929 . S
C449 C448 1.363 . S
C449 C455 1.428 . S
H450 C446 0.930 . S
H451 C448 0.929 . S
S452 N453 1.613 . S
S452 N454 1.610 . S
N453 S452 1.613 . S
N453 C456 1.350 . S
N454 S452 1.610 . S
N454 C455 1.351 . S
C455 C449 1.428 . S
C455 N454 1.351 . S
C455 C456 1.434 . S
C456 C447 1.429 . S
C456 N453 1.350 . S
C456 C455 1.434 . S
C457 C458 1.369 . S
C457 C459 1.419 . S
C457 H461 0.930 . S
C458 C457 1.369 . S
C458 C467 1.429 . S
C459 C457 1.419 . S
C459 C460 1.363 . S
C459 H462 0.929 . S
C460 C459 1.363 . S
C460 C466 1.428 . S
H461 C457 0.930 . S
H462 C459 0.929 . S
S463 N464 1.613 . S
S463 N465 1.610 . S
N464 S463 1.613 . S
N464 C467 1.350 . S
N465 S463 1.610 . S
N465 C466 1.351 . S
C466 C460 1.428 . S
C466 N465 1.351 . S
C466 C467 1.434 . S
C467 C458 1.429 . S
C467 N464 1.350 . S
C467 C466 1.434 . S
C468 C469 1.369 . S
C468 C470 1.419 . S
C468 H472 0.930 . S
C469 C468 1.369 . S
C469 C478 1.429 . S
C470 C468 1.419 . S
C470 C471 1.363 . S
C470 H473 0.929 . S
C471 C470 1.363 . S
C471 C477 1.428 . S
H472 C468 0.930 . S
H473 C470 0.929 . S
S474 N475 1.613 . S
S474 N476 1.610 . S
N475 S474 1.613 . S
N475 C478 1.350 . S
N476 S474 1.610 . S
N476 C477 1.351 . S
C477 C471 1.428 . S
C477 N476 1.351 . S
C477 C478 1.434 . S
C478 C469 1.429 . S
C478 N475 1.350 . S
C478 C477 1.434 . S
C479 C480 1.369 . S
C479 C481 1.419 . S
C479 H483 0.930 . S
C480 C479 1.369 . S
C480 C489 1.429 . S
C481 C479 1.419 . S
C481 C482 1.363 . S
C481 H484 0.929 . S
C482 C481 1.363 . S
C482 C488 1.428 . S
H483 C479 0.930 . S
H484 C481 0.929 . S
S485 N486 1.613 . S
S485 N487 1.610 . S
N486 S485 1.613 . S
N486 C489 1.350 . S
N487 S485 1.610 . S
N487 C488 1.351 . S
C488 C482 1.428 . S
C488 N487 1.351 . S
C488 C489 1.434 . S
C489 C480 1.429 . S
C489 N486 1.350 . S
C489 C488 1.434 . S
C490 C491 1.369 . S
C490 C492 1.419 . S
C490 H494 0.930 . S
C491 C490 1.369 . S
C491 C500 1.429 . S
C492 C490 1.419 . S
C492 C493 1.363 . S
C492 H495 0.929 . S
C493 C492 1.363 . S
C493 C499 1.428 . S
H494 C490 0.930 . S
H495 C492 0.929 . S
S496 N497 1.613 . S
S496 N498 1.610 . S
N497 S496 1.613 . S
N497 C500 1.350 . S
N498 S496 1.610 . S
N498 C499 1.351 . S
C499 C493 1.428 . S
C499 N498 1.351 . S
C499 C500 1.434 . S
C500 C491 1.429 . S
C500 N497 1.350 . S
C500 C499 1.434 . S
C501 C502 1.369 . S
C501 C503 1.419 . S
C501 H505 0.930 . S
C502 C501 1.369 . S
C502 C511 1.429 . S
C503 C501 1.419 . S
C503 C504 1.363 . S
C503 H506 0.929 . S
C504 C503 1.363 . S
C504 C510 1.428 . S
H505 C501 0.930 . S
H506 C503 0.929 . S
S507 N508 1.613 . S
S507 N509 1.610 . S
N508 S507 1.613 . S
N508 C511 1.350 . S
N509 S507 1.610 . S
N509 C510 1.351 . S
C510 C504 1.428 . S
C510 N509 1.351 . S
C510 C511 1.434 . S
C511 C502 1.429 . S
C511 N508 1.350 . S
C511 C510 1.434 . S
C249 C5 1.004 . S
C251 C94 1.249 . S
C260 C18 1.034 . S
C262 C143 1.186 . S
C273 C178 2.377 . S
C271 C30 2.419 . S
C282 C41 2.212 . S
C284 C217 2.168 . S
C295 C138 2.301 . S
C293 C7 2.032 . S
C306 C97 0.828 . S
C304 C16 0.818 . S
C317 C227 2.008 . S
C315 C29 1.979 . S
C328 C186 1.396 . S
C326 C38 1.277 . S
C337 C8 1.456 . S
C339 C214 1.597 . S
C350 C146 2.555 . S
C348 C27 2.369 . S
C359 C40 2.473 . S
C361 C107 2.475 . S
C370 C19 1.039 . S
C372 C183 1.038 . S
C383 C103 1.261 . S
C381 C51 0.986 . S
C392 C62 1.490 . S
C394 C134 1.408 . S
C403 C74 2.518 . S
C405 C187 2.478 . S
C414 C84 2.277 . S
C416 C226 2.367 . S
C425 C49 1.776 . S
C427 C147 2.476 1_566 S
C438 C106 0.945 . S
C436 C63 0.950 . S
C449 C218 1.852 . S
C447 C71 1.761 . S
C460 C177 1.548 . S
C458 C85 1.525 . S
C469 C52 1.537 . S
C471 C223 1.678 . S
C482 C137 2.636 . S
C480 C73 2.724 . S
C493 C98 2.110 . S
C491 C82 1.791 . S
C502 C60 0.926 . S
C504 C174 1.011 . S
