# Generated by pormake.
# Topology ocu, (6,8)-cn, num edge types: 1
# Building blocks:
#     Node 0, Type 0, BuildingBlock: NUHQIS_clean_sbu_0, # of connection points: 6
#     Node 1, Type 0, BuildingBlock: NUHQIS_clean_sbu_0, # of connection points: 6
#     Node 2, Type 0, BuildingBlock: NUHQIS_clean_sbu_0, # of connection points: 6
#     Node 3, Type 0, BuildingBlock: NUHQIS_clean_sbu_0, # of connection points: 6
#     Node 4, Type 0, BuildingBlock: NUHQIS_clean_sbu_0, # of connection points: 6
#     Node 5, Type 0, BuildingBlock: NUHQIS_clean_sbu_0, # of connection points: 6
#     Node 6, Type 0, BuildingBlock: NUHQIS_clean_sbu_0, # of connection points: 6
#     Node 7, Type 0, BuildingBlock: NUHQIS_clean_sbu_0, # of connection points: 6
#     Node 8, Type 1, BuildingBlock: AJUNOK_clean_sbu_0, # of connection points: 8
#     Node 9, Type 1, BuildingBlock: AJUNOK_clean_sbu_0, # of connection points: 8
#     Node 10, Type 1, BuildingBlock: AJUNOK_clean_sbu_0, # of connection points: 8
#     Node 11, Type 1, BuildingBlock: AJUNOK_clean_sbu_0, # of connection points: 8
#     Node 12, Type 1, BuildingBlock: AJUNOK_clean_sbu_0, # of connection points: 8
#     Node 13, Type 1, BuildingBlock: AJUNOK_clean_sbu_0, # of connection points: 8
#     Edge 14, Type (0, 1), BuildingBlock: MIFKUJ_clean_linker_0, # of connection points: 2
#     Edge 15, Type (0, 1), BuildingBlock: MIFKUJ_clean_linker_0, # of connection points: 2
#     Edge 16, Type (0, 1), BuildingBlock: MIFKUJ_clean_linker_0, # of connection points: 2
#     Edge 17, Type (0, 1), BuildingBlock: MIFKUJ_clean_linker_0, # of connection points: 2
#     Edge 18, Type (0, 1), BuildingBlock: MIFKUJ_clean_linker_0, # of connection points: 2
#     Edge 19, Type (0, 1), BuildingBlock: MIFKUJ_clean_linker_0, # of connection points: 2
#     Edge 20, Type (0, 1), BuildingBlock: MIFKUJ_clean_linker_0, # of connection points: 2
#     Edge 21, Type (0, 1), BuildingBlock: MIFKUJ_clean_linker_0, # of connection points: 2
#     Edge 22, Type (0, 1), BuildingBlock: MIFKUJ_clean_linker_0, # of connection points: 2
#     Edge 23, Type (0, 1), BuildingBlock: MIFKUJ_clean_linker_0, # of connection points: 2
#     Edge 24, Type (0, 1), BuildingBlock: MIFKUJ_clean_linker_0, # of connection points: 2
#     Edge 25, Type (0, 1), BuildingBlock: MIFKUJ_clean_linker_0, # of connection points: 2
#     Edge 26, Type (0, 1), BuildingBlock: MIFKUJ_clean_linker_0, # of connection points: 2
#     Edge 27, Type (0, 1), BuildingBlock: MIFKUJ_clean_linker_0, # of connection points: 2
#     Edge 28, Type (0, 1), BuildingBlock: MIFKUJ_clean_linker_0, # of connection points: 2
#     Edge 29, Type (0, 1), BuildingBlock: MIFKUJ_clean_linker_0, # of connection points: 2
#     Edge 30, Type (0, 1), BuildingBlock: MIFKUJ_clean_linker_0, # of connection points: 2
#     Edge 31, Type (0, 1), BuildingBlock: MIFKUJ_clean_linker_0, # of connection points: 2
#     Edge 32, Type (0, 1), BuildingBlock: MIFKUJ_clean_linker_0, # of connection points: 2
#     Edge 33, Type (0, 1), BuildingBlock: MIFKUJ_clean_linker_0, # of connection points: 2
#     Edge 34, Type (0, 1), BuildingBlock: MIFKUJ_clean_linker_0, # of connection points: 2
#     Edge 35, Type (0, 1), BuildingBlock: MIFKUJ_clean_linker_0, # of connection points: 2
#     Edge 36, Type (0, 1), BuildingBlock: MIFKUJ_clean_linker_0, # of connection points: 2
#     Edge 37, Type (0, 1), BuildingBlock: MIFKUJ_clean_linker_0, # of connection points: 2
#     Edge 38, Type (0, 1), BuildingBlock: MIFKUJ_clean_linker_0, # of connection points: 2
#     Edge 39, Type (0, 1), BuildingBlock: MIFKUJ_clean_linker_0, # of connection points: 2
#     Edge 40, Type (0, 1), BuildingBlock: MIFKUJ_clean_linker_0, # of connection points: 2
#     Edge 41, Type (0, 1), BuildingBlock: MIFKUJ_clean_linker_0, # of connection points: 2
#     Edge 42, Type (0, 1), BuildingBlock: MIFKUJ_clean_linker_0, # of connection points: 2
#     Edge 43, Type (0, 1), BuildingBlock: MIFKUJ_clean_linker_0, # of connection points: 2
#     Edge 44, Type (0, 1), BuildingBlock: MIFKUJ_clean_linker_0, # of connection points: 2
#     Edge 45, Type (0, 1), BuildingBlock: MIFKUJ_clean_linker_0, # of connection points: 2
#     Edge 46, Type (0, 1), BuildingBlock: MIFKUJ_clean_linker_0, # of connection points: 2
#     Edge 47, Type (0, 1), BuildingBlock: MIFKUJ_clean_linker_0, # of connection points: 2
#     Edge 48, Type (0, 1), BuildingBlock: MIFKUJ_clean_linker_0, # of connection points: 2
#     Edge 49, Type (0, 1), BuildingBlock: MIFKUJ_clean_linker_0, # of connection points: 2
#     Edge 50, Type (0, 1), BuildingBlock: MIFKUJ_clean_linker_0, # of connection points: 2
#     Edge 51, Type (0, 1), BuildingBlock: MIFKUJ_clean_linker_0, # of connection points: 2
#     Edge 52, Type (0, 1), BuildingBlock: MIFKUJ_clean_linker_0, # of connection points: 2
#     Edge 53, Type (0, 1), BuildingBlock: MIFKUJ_clean_linker_0, # of connection points: 2
#     Edge 54, Type (0, 1), BuildingBlock: MIFKUJ_clean_linker_0, # of connection points: 2
#     Edge 55, Type (0, 1), BuildingBlock: MIFKUJ_clean_linker_0, # of connection points: 2
#     Edge 56, Type (0, 1), BuildingBlock: MIFKUJ_clean_linker_0, # of connection points: 2
#     Edge 57, Type (0, 1), BuildingBlock: MIFKUJ_clean_linker_0, # of connection points: 2
#     Edge 58, Type (0, 1), BuildingBlock: MIFKUJ_clean_linker_0, # of connection points: 2
#     Edge 59, Type (0, 1), BuildingBlock: MIFKUJ_clean_linker_0, # of connection points: 2
#     Edge 60, Type (0, 1), BuildingBlock: MIFKUJ_clean_linker_0, # of connection points: 2
#     Edge 61, Type (0, 1), BuildingBlock: MIFKUJ_clean_linker_0, # of connection points: 2
# Relax obj value: 0.176
# Max RMSD: 0.270
# Mean RMSD: 0.174
data_MOF--net-ocu--node1-NUHQIS_clean_sbu_0--node2-AJUNOK_clean_sbu_0--edge1-MIFKUJ_clean_linker_0
_symmetry_space_group_name_H-M    P1
_symmetry_Int_Tables_number       1
_symmetry_cell_setting            triclinic
loop_
_symmetry_equiv_pos_as_xyz
'x, y, z'
_cell_length_a     54.334724
_cell_length_b     56.974483
_cell_length_c     48.441154
_cell_angle_alpha  101.26401
_cell_angle_beta   93.587248
_cell_angle_gamma 110.74716
loop_
_atom_site_label
_atom_site_type_symbol
_atom_site_fract_x
_atom_site_fract_y
_atom_site_fract_z
_atom_type_partial_charge
Tb0 Tb 0.25881 0.25294 0.24049 0.0
Eu1 Eu 0.29938 0.27577 0.29779 0.0
C2 C 0.30766 0.2304 0.2476 0.0
C3 C 0.24824 0.2229 0.28991 0.0
C4 C 0.21974 0.25418 0.17776 0.0
C5 C 0.19127 0.25701 0.13912 0.0
C6 C 0.20026 0.24211 0.15381 0.0
C7 C 0.22988 0.28117 0.18715 0.0
C8 C 0.22121 0.29604 0.17231 0.0
C9 C 0.20193 0.28408 0.14815 0.0
C10 C 0.22976 0.23897 0.1931 0.0
O11 O 0.23947 0.27824 0.2654 0.0
O12 O 0.27178 0.30007 0.30378 0.0
O13 O 0.32067 0.29666 0.26682 0.0
O14 O 0.28326 0.29248 0.2397 0.0
C15 C 0.24832 0.2965 0.28963 0.0
O16 O 0.30577 0.28755 0.34411 0.0
O17 O 0.33959 0.29378 0.32128 0.0
O18 O 0.31319 0.24314 0.27484 0.0
O19 O 0.28853 0.23314 0.23118 0.0
O20 O 0.24085 0.22369 0.26392 0.0
O21 O 0.26991 0.24006 0.30559 0.0
C22 C 0.30902 0.30331 0.24714 0.0
O23 O 0.25549 0.24561 0.19604 0.0
O24 O 0.22053 0.23602 0.21688 0.0
C25 C 0.34072 0.27803 0.36267 0.0
C26 C 0.35121 0.24503 0.39385 0.0
C27 C 0.34499 0.26596 0.4075 0.0
C28 C 0.33979 0.28235 0.39199 0.0
C29 C 0.34725 0.25734 0.34906 0.0
C30 C 0.3526 0.24109 0.36454 0.0
C31 C 0.3312 0.29267 0.34581 0.0
H32 H 0.17639 0.24746 0.12043 0.0
H33 H 0.19218 0.22129 0.14643 0.0
H34 H 0.2446 0.29078 0.20588 0.0
H35 H 0.22943 0.31686 0.17983 0.0
H36 H 0.34352 0.26932 0.43001 0.0
H37 H 0.33423 0.29788 0.4027 0.0
H38 H 0.34765 0.2533 0.32633 0.0
H39 H 0.35781 0.22544 0.3535 0.0
Tb40 Tb 0.79931 0.24678 0.27219 0.0
Eu41 Eu 0.75287 0.27681 0.27095 0.0
C42 C 0.75858 0.23688 0.22201 0.0
C43 C 0.81225 0.30096 0.25249 0.0
C44 C 0.84127 0.21729 0.30164 0.0
C45 C 0.83624 0.17961 0.32033 0.0
C46 C 0.83137 0.19038 0.29813 0.0
C47 C 0.85646 0.23319 0.32753 0.0
C48 C 0.8609 0.22247 0.34982 0.0
C49 C 0.85102 0.1956 0.34637 0.0
C50 C 0.83447 0.2287 0.27903 0.0
O51 O 0.78996 0.26313 0.31235 0.0
O52 O 0.77601 0.29566 0.31387 0.0
O53 O 0.73377 0.24018 0.28603 0.0
O54 O 0.76706 0.22384 0.29207 0.0
C55 C 0.79444 0.28754 0.32129 0.0
O56 O 0.73642 0.30663 0.28078 0.0
O57 O 0.71461 0.27134 0.24851 0.0
O58 O 0.76468 0.2615 0.23046 0.0
O59 O 0.77322 0.22646 0.23326 0.0
O60 O 0.81742 0.28042 0.25485 0.0
O61 O 0.79007 0.30412 0.25862 0.0
C62 C 0.74271 0.22345 0.29409 0.0
O63 O 0.81153 0.21545 0.26303 0.0
O64 O 0.83879 0.25329 0.28638 0.0
C65 C 0.7155 0.31084 0.23903 0.0
C66 C 0.71449 0.34166 0.2005 0.0
C67 C 0.7209 0.35263 0.22986 0.0
C68 C 0.72127 0.33733 0.24896 0.0
C69 C 0.70966 0.29997 0.20959 0.0
C70 C 0.70918 0.31525 0.19053 0.0
C71 C 0.71723 0.29516 0.25934 0.0
H72 H 0.82899 0.15879 0.31684 0.0
H73 H 0.81986 0.17767 0.27826 0.0
H74 H 0.86493 0.25396 0.33073 0.0
H75 H 0.87234 0.23524 0.36969 0.0
H76 H 0.72517 0.37298 0.23809 0.0
H77 H 0.72606 0.34622 0.27152 0.0
H78 H 0.70523 0.27963 0.2012 0.0
H79 H 0.70363 0.30613 0.16805 0.0
Tb80 Tb 0.76624 0.76768 0.29384 0.0
Eu81 Eu 0.79152 0.76063 0.237 0.0
C82 C 0.74216 0.718 0.24824 0.0
C83 C 0.80973 0.73718 0.28907 0.0
C84 C 0.73639 0.79353 0.35209 0.0
C85 C 0.69583 0.80035 0.36157 0.0
C86 C 0.70898 0.78368 0.35338 0.0
C87 C 0.75064 0.82037 0.36022 0.0
C88 C 0.7375 0.83703 0.36871 0.0
C89 C 0.70997 0.82711 0.36903 0.0
C90 C 0.7493 0.77576 0.34036 0.0
O91 O 0.78961 0.80468 0.28663 0.0
O92 O 0.82183 0.79439 0.2674 0.0
O93 O 0.76123 0.78051 0.22707 0.0
O94 O 0.74703 0.78888 0.27032 0.0
C95 C 0.81452 0.81093 0.28373 0.0
O96 O 0.82407 0.77043 0.21196 0.0
O97 O 0.78509 0.74232 0.19191 0.0
O98 O 0.76676 0.72265 0.24482 0.0
O99 O 0.73628 0.73593 0.26393 0.0
O100 O 0.79453 0.74753 0.30404 0.0
O101 O 0.81103 0.73937 0.26232 0.0
C102 C 0.7468 0.79082 0.24323 0.0
O103 O 0.73545 0.75732 0.31839 0.0
O104 O 0.77425 0.78622 0.3371 0.0
C105 C 0.82277 0.73347 0.1798 0.0
C106 C 0.84918 0.69947 0.16537 0.0
C107 C 0.86066 0.72517 0.16307 0.0
C108 C 0.84747 0.74204 0.17013 0.0
C109 C 0.8114 0.70778 0.18238 0.0
C110 C 0.82443 0.69085 0.17496 0.0
C111 C 0.81041 0.75202 0.18989 0.0
H112 H 0.67462 0.79236 0.36219 0.0
H113 H 0.69761 0.76308 0.34745 0.0
H114 H 0.77181 0.82858 0.35963 0.0
H115 H 0.74872 0.85766 0.37449 0.0
H116 H 0.87963 0.73207 0.15536 0.0
H117 H 0.85669 0.76186 0.16842 0.0
H118 H 0.79262 0.70083 0.19043 0.0
H119 H 0.81531 0.6711 0.17694 0.0
Tb120 Tb 0.28637 0.74152 0.26126 0.0
Eu121 Eu 0.25786 0.79038 0.26584 0.0
C122 C 0.31035 0.79032 0.30934 0.0
C123 C 0.24049 0.7418 0.29867 0.0
C124 C 0.31971 0.70256 0.22464 0.0
C125 C 0.36764 0.71623 0.22624 0.0
C126 C 0.34555 0.7153 0.23988 0.0
C127 C 0.31632 0.69103 0.19563 0.0
C128 C 0.33836 0.69236 0.18194 0.0
C129 C 0.36413 0.70498 0.19713 0.0
C130 C 0.29634 0.70366 0.23758 0.0
O131 O 0.25571 0.75054 0.24513 0.0
O132 O 0.22993 0.76416 0.22575 0.0
O133 O 0.28737 0.79531 0.23501 0.0
O134 O 0.31372 0.77254 0.24601 0.0
C135 C 0.23773 0.74523 0.22394 0.0
O136 O 0.22993 0.80857 0.25795 0.0
O137 O 0.2658 0.83009 0.28812 0.0
O138 O 0.29304 0.79947 0.29967 0.0
O139 O 0.31186 0.76794 0.29815 0.0
O140 O 0.25762 0.73139 0.28974 0.0
O141 O 0.23698 0.76183 0.29159 0.0
C142 C 0.30838 0.78888 0.23306 0.0
O143 O 0.29976 0.71195 0.26535 0.0
O144 O 0.28253 0.7139 0.22428 0.0
C145 C 0.22518 0.83034 0.30121 0.0
C146 C 0.18587 0.82455 0.33673 0.0
C147 C 0.18688 0.83875 0.31581 0.0
C148 C 0.20644 0.84157 0.29807 0.0
C149 C 0.22441 0.81644 0.32234 0.0
C150 C 0.2049 0.81359 0.34 0.0
C151 C 0.24186 0.82824 0.27927 0.0
H152 H 0.38739 0.72574 0.23831 0.0
H153 H 0.34874 0.72477 0.26221 0.0
H154 H 0.2966 0.68136 0.18345 0.0
H155 H 0.33524 0.68298 0.15958 0.0
H156 H 0.1727 0.84785 0.31334 0.0
H157 H 0.20647 0.85182 0.28143 0.0
H158 H 0.2384 0.80707 0.32458 0.0
H159 H 0.20452 0.80264 0.35603 0.0
Tb160 Tb 0.29787 0.74945 0.76797 0.0
Eu161 Eu 0.24791 0.77569 0.77112 0.0
C162 C 0.24895 0.72896 0.72223 0.0
C163 C 0.30176 0.7969 0.74128 0.0
C164 C 0.34393 0.72356 0.79669 0.0
C165 C 0.36725 0.69612 0.80563 0.0
C166 C 0.36217 0.71204 0.78946 0.0
C167 C 0.3305 0.71884 0.82012 0.0
C168 C 0.33559 0.70293 0.83635 0.0
C169 C 0.35418 0.69163 0.82934 0.0
C170 C 0.33848 0.73984 0.77918 0.0
O171 O 0.29418 0.77883 0.79871 0.0
O172 O 0.27032 0.801 0.81355 0.0
O173 O 0.23544 0.7411 0.79018 0.0
O174 O 0.27133 0.72753 0.79299 0.0
C175 C 0.29196 0.79689 0.81763 0.0
O176 O 0.22674 0.80104 0.7843 0.0
O177 O 0.2091 0.76846 0.74826 0.0
O178 O 0.24953 0.75271 0.72813 0.0
O179 O 0.26567 0.72215 0.73642 0.0
O180 O 0.30761 0.77626 0.74073 0.0
O181 O 0.28247 0.80152 0.75383 0.0
C182 C 0.24731 0.72624 0.79762 0.0
O183 O 0.32121 0.72762 0.75619 0.0
O184 O 0.33453 0.75995 0.79306 0.0
C185 C 0.20657 0.80825 0.7442 0.0
C186 C 0.20858 0.84316 0.70991 0.0
C187 C 0.21682 0.85217 0.73932 0.0
C188 C 0.21564 0.83488 0.75634 0.0
C189 C 0.19802 0.7992 0.71478 0.0
C190 C 0.19901 0.81652 0.69778 0.0
C191 C 0.20883 0.79054 0.76175 0.0
H192 H 0.38147 0.68738 0.79967 0.0
H193 H 0.37249 0.71536 0.77132 0.0
H194 H 0.31624 0.72757 0.82599 0.0
H195 H 0.32552 0.69998 0.85472 0.0
H196 H 0.22416 0.87262 0.74918 0.0
H197 H 0.22236 0.84245 0.77895 0.0
H198 H 0.19086 0.77879 0.7048 0.0
H199 H 0.19177 0.80901 0.67525 0.0
Tb200 Tb 0.27334 0.27919 0.73618 0.0
Eu201 Eu 0.28505 0.2488 0.79641 0.0
C202 C 0.31991 0.30028 0.77928 0.0
C203 C 0.29894 0.23434 0.72937 0.0
C204 C 0.23561 0.30562 0.68905 0.0
C205 C 0.23339 0.33984 0.66645 0.0
C206 C 0.24757 0.32563 0.67544 0.0
C207 C 0.20908 0.30044 0.69373 0.0
C208 C 0.19479 0.31445 0.68448 0.0
C209 C 0.2066 0.33428 0.67044 0.0
C210 C 0.25 0.28881 0.69548 0.0
O211 O 0.25757 0.25143 0.75934 0.0
O212 O 0.2439 0.21916 0.77743 0.0
O213 O 0.26763 0.2798 0.81236 0.0
O214 O 0.25795 0.29587 0.77282 0.0
C215 C 0.23924 0.22911 0.75692 0.0
O216 O 0.28113 0.22151 0.82346 0.0
O217 O 0.3166 0.25629 0.83131 0.0
O218 O 0.31382 0.27535 0.77406 0.0
O219 O 0.30812 0.30905 0.76165 0.0
O220 O 0.29366 0.25277 0.71964 0.0
O221 O 0.29595 0.22966 0.75521 0.0
C222 C 0.25789 0.29441 0.80003 0.0
O223 O 0.27573 0.29982 0.70417 0.0
O224 O 0.23828 0.27065 0.70861 0.0
C225 C 0.32057 0.2192 0.84544 0.0
C226 C 0.35029 0.19118 0.86368 0.0
C227 C 0.32293 0.18378 0.86554 0.0
C228 C 0.30836 0.19758 0.8566 0.0
C229 C 0.34786 0.22664 0.84329 0.0
C230 C 0.3625 0.21277 0.85224 0.0
C231 C 0.30468 0.23441 0.83826 0.0
H232 H 0.24353 0.35518 0.65627 0.0
H233 H 0.26789 0.33007 0.67125 0.0
H234 H 0.19903 0.28504 0.70388 0.0
H235 H 0.17416 0.30914 0.68767 0.0
H236 H 0.31278 0.16766 0.87464 0.0
H237 H 0.28747 0.19157 0.85894 0.0
H238 H 0.35797 0.24328 0.83495 0.0
H239 H 0.38342 0.21896 0.85008 0.0
Tb240 Tb 0.79075 0.24361 0.76235 0.0
Eu241 Eu 0.75328 0.28229 0.77106 0.0
C242 C 0.79627 0.28283 0.81632 0.0
C243 C 0.73801 0.22812 0.79165 0.0
C244 C 0.83297 0.2145 0.72662 0.0
C245 C 0.87633 0.23043 0.71121 0.0
C246 C 0.86029 0.22982 0.7326 0.0
C247 C 0.82198 0.2 0.69878 0.0
C248 C 0.83799 0.20079 0.67738 0.0
C249 C 0.86533 0.21577 0.68349 0.0
C250 C 0.81579 0.21494 0.74889 0.0
O251 O 0.77337 0.25026 0.72529 0.0
O252 O 0.73344 0.24913 0.73395 0.0
O253 O 0.78862 0.30307 0.75023 0.0
O254 O 0.81461 0.27796 0.74764 0.0
C255 C 0.74789 0.23952 0.71854 0.0
O256 O 0.71518 0.28618 0.76318 0.0
O257 O 0.74948 0.31911 0.7871 0.0
O258 O 0.7732 0.28487 0.81388 0.0
O259 O 0.79667 0.25992 0.80734 0.0
O260 O 0.75284 0.22032 0.77422 0.0
O261 O 0.73804 0.25174 0.79618 0.0
C262 C 0.81008 0.29856 0.7436 0.0
O263 O 0.8248 0.23544 0.76996 0.0
O264 O 0.79041 0.20808 0.74006 0.0
C265 C 0.70941 0.30926 0.80565 0.0
C266 C 0.68212 0.30769 0.85277 0.0
C267 C 0.6731 0.31468 0.82888 0.0
C268 C 0.68671 0.31543 0.80534 0.0
C269 C 0.7178 0.30146 0.8291 0.0
C270 C 0.70434 0.30074 0.85251 0.0
C271 C 0.72353 0.30869 0.78105 0.0
H272 H 0.89744 0.24187 0.71643 0.0
H273 H 0.86934 0.24126 0.75385 0.0
H274 H 0.80106 0.18788 0.69351 0.0
H275 H 0.82917 0.18876 0.65632 0.0
H276 H 0.65623 0.32061 0.82892 0.0
H277 H 0.67976 0.32105 0.78718 0.0
H278 H 0.735 0.29616 0.82952 0.0
H279 H 0.71167 0.29542 0.87072 0.0
Tb280 Tb 0.75715 0.76194 0.74103 0.0
Eu281 Eu 0.79838 0.76245 0.79734 0.0
C282 C 0.79677 0.72933 0.73368 0.0
C283 C 0.74201 0.71858 0.77634 0.0
C284 C 0.71463 0.77961 0.68976 0.0
C285 C 0.68011 0.78528 0.66005 0.0
C286 C 0.6914 0.76921 0.66983 0.0
C287 C 0.72646 0.80658 0.69971 0.0
C288 C 0.71521 0.82275 0.68981 0.0
C289 C 0.69176 0.81233 0.66987 0.0
C290 C 0.72608 0.76186 0.69937 0.0
O291 O 0.75346 0.7916 0.77476 0.0
O292 O 0.77224 0.78434 0.81489 0.0
O293 O 0.82272 0.79191 0.77497 0.0
O294 O 0.78978 0.79894 0.74935 0.0
C295 C 0.75806 0.7952 0.80261 0.0
O296 O 0.80229 0.75316 0.8387 0.0
O297 O 0.83771 0.77176 0.82104 0.0
O298 O 0.80514 0.73522 0.76115 0.0
O299 O 0.77957 0.73794 0.72253 0.0
O300 O 0.73416 0.73384 0.76398 0.0
O301 O 0.76718 0.72311 0.78283 0.0
C302 C 0.81483 0.80466 0.75883 0.0
O303 O 0.75158 0.76765 0.69977 0.0
O304 O 0.71814 0.75369 0.7218 0.0
C305 C 0.84032 0.74362 0.85077 0.0
C306 C 0.86315 0.71106 0.87098 0.0
C307 C 0.8715 0.73744 0.88446 0.0
C308 C 0.86023 0.75344 0.87449 0.0
C309 C 0.832 0.7174 0.83696 0.0
C310 C 0.8433 0.70132 0.84692 0.0
C311 C 0.82816 0.76092 0.84144 0.0
H312 H 0.66236 0.77644 0.64442 0.0
H313 H 0.68195 0.74851 0.66169 0.0
H314 H 0.74437 0.81514 0.71514 0.0
H315 H 0.72466 0.84341 0.69814 0.0
H316 H 0.887 0.74589 0.90266 0.0
H317 H 0.86704 0.7736 0.88548 0.0
H318 H 0.81662 0.70931 0.81863 0.0
H319 H 0.8361 0.68114 0.83604 0.0
Cd320 Cd 0.9989 0.98638 0.54929 0.0
Cd321 Cd 0.05131 0.0331 0.4863 0.0
C322 C 0.05111 0.98428 0.57598 0.0
N323 N 0.03292 0.97247 0.55224 0.0
C324 C 0.05128 0.94034 0.53929 0.0
C325 C 0.0694 0.95148 0.56442 0.0
C326 C 0.06972 0.97402 0.58253 0.0
C327 C 0.03276 0.95116 0.53369 0.0
H328 H 0.05029 0.00092 0.59049 0.0
H329 H 0.01745 0.94182 0.51547 0.0
C330 C 0.01094 0.97742 0.47802 0.0
C331 C 0.99718 0.03595 0.46557 0.0
C332 C 0.97818 0.04654 0.46166 0.0
C333 C 0.98125 0.07034 0.47931 0.0
C334 C 1.00298 0.08257 0.50118 0.0
C335 C 0.02159 0.07134 0.50417 0.0
N336 N 0.01836 0.0486 0.48632 0.0
H337 H 0.99565 0.01814 0.4514 0.0
H338 H 0.03904 0.08111 0.52004 0.0
C339 C 0.09982 0.01822 0.47775 0.0
N340 N 0.08635 0.0225 0.49964 0.0
C341 C 0.10363 -0.00116 0.52528 0.0
C342 C 0.11418 0.99093 0.50116 0.0
C343 C 0.11421 0.00242 0.47816 0.0
C344 C 0.08927 0.0147 0.52398 0.0
H345 H 0.09673 0.0244 0.45856 0.0
H346 H 0.07828 0.01842 0.54101 0.0
C347 C 0.03959 0.0429 0.55971 0.0
C348 C 0.97038 0.95197 0.58098 0.0
N349 N 0.96537 0.00064 0.54217 0.0
C350 C 0.95628 0.00757 0.56674 0.0
C351 C 0.93995 0.02159 0.56766 0.0
C352 C 0.93326 0.02871 0.54307 0.0
C353 C 0.94091 0.01926 0.51732 0.0
C354 C 0.95737 0.00525 0.51738 0.0
C355 C 0.07845 0.06616 0.45238 0.0
O356 O 0.01429 0.99015 0.50319 0.0
O357 O 0.02438 0.98843 0.46044 0.0
O358 O 0.03703 0.03234 0.53371 0.0
O359 O 0.02548 0.03 0.5756 0.0
O360 O 0.96715 0.94476 0.55392 0.0
O361 O 0.98735 0.97436 0.59263 0.0
O362 O 0.08314 0.07339 0.47944 0.0
O363 O 0.06101 0.04378 0.44155 0.0
H364 H 0.96336 0.00395 0.58618 0.0
H365 H 0.96507 -0.00047 0.49823 0.0
H366 H 0.05051 0.92275 0.52513 0.0
H367 H 0.08368 0.98306 0.60198 0.0
H368 H 0.96189 0.03671 0.44435 0.0
H369 H 1.00575 0.10076 0.5155 0.0
H370 H 0.10379 0.99039 0.54336 0.0
H371 H 0.12188 0.99631 0.45907 0.0
H372 H 0.93487 0.02887 0.58799 0.0
H373 H 0.9359 0.02431 0.49793 0.0
Cd374 Cd 0.52818 0.99732 0.09724 0.0
Cd375 Cd 0.57043 0.01199 0.98841 0.0
C376 C 0.58151 0.98493 0.13796 0.0
N377 N 0.55975 0.97366 0.11699 0.0
C378 C 0.56839 0.93323 0.11342 0.0
C379 C 0.59089 0.94407 0.13519 0.0
C380 C 0.59688 0.97087 0.14709 0.0
C381 C 0.55362 0.94791 0.10486 0.0
H382 H 0.58736 0.00517 0.14809 0.0
H383 H 0.53684 0.93815 0.08811 0.0
C384 C 0.51454 0.97113 0.01453 0.0
C385 C 0.51975 0.01632 0.94922 0.0
C386 C 0.5024 0.02821 0.94181 0.0
C387 C 0.5023 0.05053 0.9604 0.0
C388 C 0.51914 0.05967 0.98656 0.0
C389 C 0.5359 0.04713 0.99317 0.0
N390 N 0.53629 0.02612 0.97447 0.0
H391 H 0.52053 -0.00024 0.93449 0.0
H392 H 0.54919 0.0546 0.01307 0.0
C393 C 0.58954 0.97362 0.94078 0.0
N394 N 0.58955 0.98013 0.96943 0.0
C395 C 0.61652 0.95532 0.97632 0.0
C396 C 0.6175 0.9489 0.94687 0.0
C397 C 0.60342 0.95821 0.92914 0.0
C398 C 0.60264 0.9711 0.98716 0.0
H399 H 0.57926 0.9809 0.92681 0.0
H400 H 0.60297 0.97669 0.00989 0.0
C401 C 0.58175 0.02698 0.0636 0.0
C402 C 0.48928 0.95254 0.10042 0.0
N403 N 0.5019 0.03066 0.11638 0.0
C404 C 0.50117 0.04013 0.14469 0.0
C405 C 0.48595 0.05586 0.15423 0.0
C406 C 0.47008 0.06307 0.1353 0.0
C407 C 0.47134 0.05291 0.10618 0.0
C408 C 0.48675 0.03718 0.09746 0.0
C409 C 0.60347 0.05166 0.96285 0.0
O410 O 0.52161 0.98207 0.04129 0.0
O411 O 0.52897 0.97929 0.99581 0.0
O412 O 0.56806 0.01495 0.03964 0.0
O413 O 0.57183 0.02443 0.08662 0.0
O414 O 0.49002 0.95959 0.07701 0.0
O415 O 0.50583 0.96731 0.12215 0.0
O416 O 0.60577 0.05531 0.98999 0.0
O417 O 0.58657 0.03011 0.94858 0.0
H418 H 0.51227 0.03539 0.1606 0.0
H419 H 0.48621 0.03007 0.07493 0.0
H420 H 0.56179 0.91316 0.10249 0.0
H421 H 0.61352 0.98145 0.16376 0.0
H422 H 0.48992 0.02057 0.92132 0.0
H423 H 0.51956 0.07656 0.00174 0.0
H424 H 0.62714 0.94894 0.99104 0.0
H425 H 0.60313 0.95366 0.90632 0.0
H426 H 0.48682 0.06222 0.17691 0.0
H427 H 0.4602 0.05679 0.08956 0.0
Cd428 Cd 0.01568 0.46928 0.04186 0.0
Cd429 Cd 0.06599 0.50819 0.9741 0.0
C430 C 0.06302 0.45133 0.05652 0.0
N431 N 0.04296 0.44616 0.03531 0.0
C432 C 0.05742 0.41638 0.00565 0.0
C433 C 0.07867 0.42205 0.02695 0.0
C434 C 0.08147 0.43969 0.05259 0.0
C435 C 0.03966 0.42891 0.01029 0.0
H436 H 0.06466 0.46435 0.07662 0.0
H437 H 0.02312 0.42467 0.99411 0.0
C438 C 0.01368 0.46165 0.9658 0.0
C439 C 0.01674 0.52014 0.94536 0.0
C440 C 1.00016 0.53326 0.94007 0.0
C441 C 1.00147 0.55552 0.95981 0.0
C442 C 0.01895 0.56295 0.98551 0.0
C443 C 0.03494 0.54892 0.99021 0.0
N444 N 0.0339 0.5281 0.97006 0.0
H445 H 0.01646 0.50407 0.92909 0.0
H446 H 0.04891 0.55532 0.00955 0.0
C447 C 0.08267 0.46674 0.931 0.0
N448 N 0.0869 0.47798 0.95929 0.0
C449 C 0.11736 0.45718 0.9675 0.0
C450 C 0.11355 0.44544 0.93827 0.0
C451 C 0.09566 0.45038 0.92008 0.0
C452 C 0.10376 0.47334 0.97759 0.0
H453 H 0.06952 0.47091 0.91668 0.0
H454 H 0.10706 0.48254 -1e-05 0.0
C455 C 0.07078 0.51298 0.05 0.0
C456 C 0.97674 0.44056 0.07188 0.0
N457 N 0.99987 0.50115 0.03736 0.0
C458 C 0.0123 0.52479 0.05505 0.0
C459 C 1.00209 0.54391 0.05523 0.0
C460 C 0.97884 0.53898 0.03677 0.0
C461 C 0.96698 0.51453 0.01788 0.0
C462 C 0.97749 0.49561 0.01919 0.0
C463 C 0.09915 0.54544 0.94908 0.0
O464 O 0.02041 0.46968 0.99236 0.0
O465 O 0.02891 0.47208 0.94931 0.0
O466 O 0.06167 0.505 0.02374 0.0
O467 O 0.0569 0.50238 0.06759 0.0
O468 O 0.9762 0.43197 0.04542 0.0
O469 O 0.99524 0.46192 0.08387 0.0
O470 O 0.10505 0.54686 0.97542 0.0
O471 O 0.07886 0.5265 0.93536 0.0
H472 H 0.02937 0.52854 0.07025 0.0
H473 H 0.9672 0.47617 0.00678 0.0
H474 H 0.05444 0.40222 0.98597 0.0
H475 H 0.09716 0.44363 0.06981 0.0
H476 H 0.98677 0.52614 0.92027 0.0
H477 H 0.02112 0.58 0.0015 0.0
H478 H 0.13078 0.45399 0.98245 0.0
H479 H 0.09228 0.44231 0.89738 0.0
H480 H 0.01168 0.56176 0.07114 0.0
H481 H 0.94922 0.50955 0.00302 0.0
Cd482 Cd 0.50166 0.4808 0.03953 0.0
Cd483 Cd 0.55071 0.5398 0.98435 0.0
C484 C 0.55605 0.47855 0.06085 0.0
N485 N 0.53506 0.46543 0.03998 0.0
C486 C 0.5503 0.4309 0.02771 0.0
C487 C 0.57157 0.44347 0.05005 0.0
C488 C 0.57476 0.46798 0.06615 0.0
C489 C 0.5321 0.44231 0.02306 0.0
H490 H 0.55769 0.49678 0.07414 0.0
H491 H 0.51489 0.43204 0.00704 0.0
C492 C 0.50843 0.48448 0.96916 0.0
C493 C 0.49892 0.54789 0.97019 0.0
C494 C 0.47972 0.55851 0.9687 0.0
C495 C 0.48363 0.58208 0.98723 0.0
C496 C 0.50698 0.59459 0.00694 0.0
C497 C 0.52571 0.58306 0.00784 0.0
N498 N 0.52123 0.56012 0.98953 0.0
H499 H 0.49637 0.53015 0.95536 0.0
H500 H 0.54398 0.59273 0.02252 0.0
C501 C 0.58871 0.51334 0.9671 0.0
N502 N 0.58153 0.52228 0.99211 0.0
C503 C 0.60406 0.50175 0.01674 0.0
C504 C 0.60931 0.49031 0.9907 0.0
C505 C 0.60275 0.49717 0.96588 0.0
C506 C 0.58969 0.51778 0.01699 0.0
H507 H 0.58173 0.51726 0.94775 0.0
H508 H 0.58364 0.52505 0.03656 0.0
C509 C 0.53988 0.53794 0.05585 0.0
C510 C 0.47083 0.44354 0.06681 0.0
N511 N 0.46955 0.49767 0.03682 0.0
C512 C 0.45883 0.50058 0.06124 0.0
C513 C 0.44315 0.51529 0.06507 0.0
C514 C 0.43876 0.5271 0.04349 0.0
C515 C 0.44773 0.52152 0.01738 0.0
C516 C 0.46364 0.50694 0.01461 0.0
C517 C 0.5818 0.5736 0.95337 0.0
O518 O 0.51845 0.48952 0.99482 0.0
O519 O 0.52029 0.49914 0.9535 0.0
O520 O 0.53399 0.53074 0.02914 0.0
O521 O 0.52733 0.52277 0.07068 0.0
O522 O 0.46406 0.44183 0.04056 0.0
O523 O 0.49228 0.46173 0.07949 0.0
O524 O 0.58863 0.57742 0.98004 0.0
O525 O 0.56049 0.55461 0.9418 0.0
H526 H 0.46418 0.49314 0.07861 0.0
H527 H 0.47269 0.50466 0.99565 0.0
H528 H 0.54679 0.41186 0.015 0.0
H529 H 0.59128 0.47874 0.08304 0.0
H530 H 0.46234 0.54874 0.95262 0.0
H531 H 0.51067 0.61303 0.02126 0.0
H532 H 0.60913 0.4967 0.03611 0.0
H533 H 0.60642 0.48834 0.94543 0.0
H534 H 0.43686 0.51946 0.08564 0.0
H535 H 0.44436 0.53015 0.00027 0.0
Cd536 Cd 0.98183 0.51076 0.54447 0.0
Cd537 Cd 0.02012 0.52331 0.43263 0.0
C538 C 0.02395 0.50012 0.58892 0.0
N539 N 0.01619 0.49747 0.56083 0.0
C540 C 0.04195 0.47138 0.54794 0.0
C541 C 0.04972 0.47304 0.57676 0.0
C542 C 0.04073 0.48805 0.59735 0.0
C543 C 0.02509 0.48363 0.54047 0.0
H544 H 0.01641 0.51087 0.60484 0.0
H545 H 0.01829 0.48133 0.51827 0.0
C546 C 0.96801 0.49449 0.46952 0.0
C547 C 0.97601 0.54251 0.38723 0.0
C548 C 0.96157 0.55737 0.37815 0.0
C549 C 0.96016 0.57977 0.39631 0.0
C550 C 0.97437 0.58538 0.42412 0.0
C551 C 0.98856 0.57005 0.43239 0.0
N552 N 0.98959 0.54862 0.41426 0.0
H553 H 0.97632 0.526 0.37202 0.0
H554 H 0.99914 0.57588 0.45379 0.0
C555 C 0.04032 0.47242 0.38829 0.0
N556 N 0.04597 0.48933 0.41459 0.0
C557 C 0.0838 0.47528 0.42346 0.0
C558 C 0.07874 0.45771 0.39635 0.0
C559 C 0.05589 0.45692 0.37913 0.0
C560 C 0.06776 0.49042 0.43185 0.0
H561 H 0.0237 0.47089 0.37358 0.0
H562 H 0.07345 0.50356 0.45262 0.0
C563 C 0.03892 0.54602 0.51469 0.0
C564 C 0.94819 0.47052 0.56959 0.0
N565 N 0.96409 0.54356 0.56365 0.0
C566 C 0.9693 0.55489 0.59201 0.0
C567 C 0.95601 0.57077 0.60406 0.0
C568 C 0.93687 0.57527 0.587 0.0
C569 C 0.93246 0.56382 0.55763 0.0
C570 C 0.94613 0.54798 0.54646 0.0
C571 C 0.06071 0.56364 0.42198 0.0
O572 O 0.98141 0.50892 0.49284 0.0
O573 O 0.9773 0.49621 0.44595 0.0
O574 O 0.02931 0.53631 0.48821 0.0
O575 O 0.02539 0.53953 0.53467 0.0
O576 O 0.94877 0.46575 0.54271 0.0
O577 O 0.96202 0.49341 0.58348 0.0
O578 O 0.05848 0.56187 0.44765 0.0
O579 O 0.04383 0.54633 0.40201 0.0
H580 H 0.98325 0.55098 0.60559 0.0
H581 H 0.94168 0.53848 0.5241 0.0
H582 H 0.04793 0.45984 0.5312 0.0
H583 H 0.04635 0.49024 0.61982 0.0
H584 H 0.95146 0.55089 0.35654 0.0
H585 H 0.97505 0.60197 0.43988 0.0
H586 H 0.10047 0.47782 0.43867 0.0
H587 H 0.04976 0.44441 0.35805 0.0
H588 H 0.96061 0.57928 0.62669 0.0
H589 H 0.91782 0.56624 0.54343 0.0
Cd590 Cd 0.49114 0.01825 0.57257 0.0
Cd591 Cd 0.53833 0.05367 0.50418 0.0
C592 C 0.54878 0.00842 0.57967 0.0
N593 N 0.52195 0.9963 0.57187 0.0
C594 C 0.5259 0.95514 0.56868 0.0
C595 C 0.55342 0.96715 0.57832 0.0
C596 C 0.56488 0.99418 0.58254 0.0
C597 C 0.51061 0.97004 0.56562 0.0
H598 H 0.55785 0.02919 0.58464 0.0
H599 H 0.48937 0.96057 0.55922 0.0
C600 C 0.48321 0.00893 0.49517 0.0
C601 C 0.49722 0.07351 0.48101 0.0
C602 C 0.47778 0.08385 0.47912 0.0
C603 C 0.4721 0.09708 0.50398 0.0
C604 C 0.48697 0.10042 0.53018 0.0
C605 C 0.50653 0.08995 0.53102 0.0
N606 N 0.51075 0.07631 0.50667 0.0
H607 H 0.50137 0.0629 0.46199 0.0
H608 H 0.51801 0.09257 0.55111 0.0
C609 C 0.54247 -0.00166 0.50767 0.0
N610 N 0.55723 0.02332 0.50783 0.0
C611 C 0.59544 0.01297 0.5002 0.0
C612 C 0.57994 0.98681 0.49704 0.0
C613 C 0.5536 0.97957 0.50237 0.0
C614 C 0.58356 0.03104 0.50553 0.0
H615 H 0.52166 0.99249 0.50963 0.0
H616 H 0.59487 0.05093 0.50559 0.0
C617 C 0.53919 0.06577 0.57809 0.0
C618 C 0.45677 0.98084 0.59669 0.0
N619 N 0.46942 0.04774 0.58444 0.0
C620 C 0.47307 0.06015 0.61227 0.0
C621 C 0.45966 0.07656 0.62129 0.0
C622 C 0.4419 0.08011 0.60163 0.0
C623 C 0.43855 0.06709 0.57295 0.0
C624 C 0.45262 0.05099 0.56476 0.0
C625 C 0.57532 0.08329 0.47266 0.0
O626 O 0.49145 0.01741 0.52157 0.0
O627 O 0.49794 0.01918 0.47797 0.0
O628 O 0.5297 0.05334 0.55287 0.0
O629 O 0.52752 0.05721 0.59793 0.0
O630 O 0.44984 0.9823 0.57168 0.0
O631 O 0.4789 0.99728 0.6101 0.0
O632 O 0.57956 0.0891 0.49977 0.0
O633 O 0.55422 0.06424 0.46081 0.0
H634 H 0.48611 0.05693 0.62765 0.0
H635 H 0.44985 0.04081 0.54277 0.0
H636 H 0.51602 0.93436 0.564 0.0
H637 H 0.58598 0.00449 0.58935 0.0
H638 H 0.46752 0.08169 0.45833 0.0
H639 H 0.48336 0.11072 0.5498 0.0
H640 H 0.61584 0.01903 0.49596 0.0
H641 H 0.54112 0.95943 0.49979 0.0
H642 H 0.46261 0.08582 0.64366 0.0
H643 H 0.42525 0.06938 0.55699 0.0
H644 H 0.25002 0.22514 0.34636 0.0
H645 H 0.21969 0.19622 0.37024 0.0
H646 H 0.1762 0.14743 0.28925 0.0
H647 H 0.2061 0.17757 0.26478 0.0
H648 H 0.14285 0.15297 0.32432 0.0
H649 H 0.2187 0.12852 0.33321 0.0
H650 H 0.26641 0.13652 0.34376 0.0
H651 H 0.26819 0.17593 0.42943 0.0
H652 H 0.22047 0.1678 0.41956 0.0
H653 H 0.07264 0.05498 0.39445 0.0
H654 H 0.10005 0.07983 0.36423 0.0
H655 H 0.14584 0.13859 0.4385 0.0
H656 H 0.11869 0.11362 0.469 0.0
H657 H 0.17723 0.12394 0.4033 0.0
H658 H 0.10153 0.14889 0.39383 0.0
H659 H 0.05369 0.14032 0.3835 0.0
H660 H 0.05157 0.09973 0.29824 0.0
H661 H 0.09933 0.10779 0.30818 0.0
C662 C 0.23426 0.20812 0.33341 0.0
C663 C 0.23068 0.20351 0.30356 0.0
C664 C 0.21695 0.19145 0.34721 0.0
C665 C 0.19608 0.1692 0.3316 0.0
C666 C 0.19236 0.16437 0.30173 0.0
C667 C 0.20948 0.1815 0.28778 0.0
C668 C 0.17774 0.15187 0.34696 0.0
C669 C 0.15031 0.14614 0.34117 0.0
C670 C 0.18748 0.14338 0.36938 0.0
C671 C 0.21602 0.14756 0.37562 0.0
C672 C 0.22927 0.13881 0.35432 0.0
C673 C 0.2563 0.1433 0.36022 0.0
C674 C 0.2703 0.15659 0.38731 0.0
C675 C 0.25729 0.16539 0.40856 0.0
C676 C 0.23022 0.16071 0.40288 0.0
C677 C 0.08838 0.07331 0.40437 0.0
C678 C 0.09359 0.08231 0.43412 0.0
C679 C 0.10396 0.08753 0.38704 0.0
C680 C 0.12488 0.11109 0.39912 0.0
C681 C 0.12978 0.12041 0.42878 0.0
C682 C 0.11422 0.10617 0.44616 0.0
C683 C 0.14249 0.12542 0.38093 0.0
C684 C 0.16976 0.13051 0.3862 0.0
C685 C 0.13255 0.13314 0.358 0.0
C686 C 0.10396 0.12875 0.35183 0.0
C687 C 0.09083 0.13801 0.37293 0.0
C688 C 0.06373 0.13327 0.36714 0.0
C689 C 0.04959 0.11943 0.34026 0.0
C690 C 0.06254 0.11043 0.31907 0.0
C691 C 0.08963 0.11511 0.32475 0.0
H692 H 0.0286 0.11573 0.33584 0.0
H693 H 0.29122 0.16007 0.39184 0.0
H694 H 0.81976 0.15372 0.36477 0.0
H695 H 0.83505 0.13132 0.39648 0.0
H696 H 0.91404 0.18968 0.40987 0.0
H697 H 0.89939 0.21168 0.378 0.0
H698 H 0.90658 0.13622 0.38343 0.0
H699 H 0.88897 0.19035 0.46398 0.0
H700 H 0.86038 0.20874 0.49089 0.0
H701 H 0.8074 0.13257 0.49259 0.0
H702 H 0.83579 0.11377 0.4658 0.0
H703 H 0.99287 0.12129 0.48158 0.0
H704 H 0.96234 0.14123 0.46835 0.0
H705 H 0.89677 0.06793 0.45246 0.0
H706 H 0.92714 0.0476 0.46541 0.0
H707 H 0.89086 0.12317 0.48023 0.0
H708 H 0.91222 0.06993 0.39935 0.0
H709 H 0.94418 0.05485 0.3748 0.0
H710 H 0.99215 0.13284 0.37376 0.0
H711 H 0.96073 0.14842 0.39891 0.0
C712 C 0.84027 0.16192 0.37489 0.0
C713 C 0.85847 0.18429 0.36881 0.0
C714 C 0.84882 0.14931 0.39312 0.0
C715 C 0.87555 0.15906 0.4053 0.0
C716 C 0.89328 0.18215 0.40065 0.0
C717 C 0.88483 0.1947 0.38255 0.0
C718 C 0.8863 0.14344 0.4191 0.0
C719 C 0.90304 0.13324 0.40452 0.0
C720 C 0.88123 0.13942 0.44634 0.0
C721 C 0.86429 0.15066 0.46263 0.0
C722 C 0.87113 0.17753 0.46995 0.0
C723 C 0.85503 0.18803 0.4853 0.0
C724 C 0.83207 0.17184 0.49346 0.0
C725 C 0.8252 0.14511 0.48631 0.0
C726 C 0.84134 0.13452 0.47115 0.0
C727 C 0.97188 0.10951 0.47601 0.0
C728 C 0.96242 0.08283 0.47415 0.0
C729 C 0.9545 0.12097 0.46872 0.0
C730 C 0.92753 0.1059 0.45965 0.0
C731 C 0.9176 0.07971 0.45971 0.0
C732 C 0.93503 0.06812 0.46658 0.0
C733 C 0.91135 0.11642 0.44463 0.0
C734 C 0.89373 0.12561 0.45885 0.0
C735 C 0.91569 0.11975 0.41699 0.0
C736 C 0.9343 0.11035 0.40132 0.0
C737 C 0.92972 0.08388 0.39416 0.0
C738 C 0.94772 0.07524 0.38009 0.0
C739 C 0.97023 0.09289 0.3728 0.0
C740 C 0.97473 0.1192 0.37948 0.0
C741 C 0.95684 0.12794 0.39364 0.0
H742 H 0.98413 0.08617 0.36191 0.0
H743 H 0.81962 0.17999 0.50534 0.0
H744 H 0.8037 0.84235 0.32654 0.0
H745 H 0.83104 0.86211 0.37242 0.0
H746 H 0.89671 0.8469 0.33766 0.0
H747 H 0.86828 0.82429 0.29219 0.0
H748 H 0.89169 0.83304 0.38575 0.0
H749 H 0.89374 0.90869 0.3524 0.0
H750 H 0.8721 0.93423 0.33215 0.0
H751 H 0.82958 0.93772 0.40368 0.0
H752 H 0.85089 0.91201 0.42425 0.0
H753 H 1.00519 0.93997 0.43079 0.0
H754 H 0.96573 0.90067 0.41304 0.0
H755 H 0.93135 0.91818 0.4886 0.0
H756 H 0.97031 0.95737 0.50608 0.0
H757 H 0.90836 0.92293 0.43644 0.0
H758 H 0.92798 0.86019 0.47453 0.0
H759 H 0.95872 0.84053 0.48966 0.0
H760 H 0.97085 0.81899 0.40308 0.0
H761 H 0.94029 0.83862 0.38742 0.0
C762 C 0.82407 0.84346 0.3285 0.0
C763 C 0.83371 0.83112 0.30619 0.0
C764 C 0.83963 0.85475 0.35477 0.0
C765 C 0.86565 0.85551 0.3584 0.0
C766 C 0.87634 0.84581 0.33525 0.0
C767 C 0.86035 0.83348 0.3092 0.0
C768 C 0.88198 0.86676 0.38627 0.0
C769 C 0.89535 0.85266 0.39701 0.0
C770 C 0.88568 0.89189 0.40133 0.0
C771 C 0.87372 0.9083 0.38973 0.0
C772 C 0.87978 0.91493 0.36379 0.0
C773 C 0.86757 0.9294 0.35225 0.0
C774 C 0.84943 0.93754 0.36659 0.0
C775 C 0.84363 0.93139 0.39261 0.0
C776 C 0.85581 0.91692 0.40425 0.0
C777 C 0.98959 0.93491 0.44394 0.0
C778 C 0.99047 0.95166 0.46956 0.0
C779 C 0.96737 0.91233 0.43413 0.0
C780 C 0.94598 0.9067 0.44984 0.0
C781 C 0.94797 0.92215 0.47663 0.0
C782 C 0.97016 0.94458 0.48643 0.0
C783 C 0.9198 0.89007 0.43447 0.0
C784 C 0.90387 0.90288 0.42609 0.0
C785 C 0.91479 0.86433 0.4209 0.0
C786 C 0.93167 0.85076 0.42979 0.0
C787 C 0.93708 0.85113 0.45869 0.0
C788 C 0.95454 0.84004 0.46737 0.0
C789 C 0.96675 0.82853 0.44735 0.0
C790 C 0.96138 0.82792 0.41857 0.0
C791 C 0.94382 0.83886 0.40975 0.0
H792 H 0.98035 0.82006 0.45412 0.0
H793 H 0.8399 0.94865 0.35756 0.0
H794 H 0.13256 0.81352 0.32518 0.0
H795 H 0.10528 0.82593 0.35914 0.0
H796 H 0.16968 0.84706 0.42745 0.0
H797 H 0.19646 0.83416 0.394 0.0
H798 H 0.12499 0.83713 0.44837 0.0
H799 H 0.16969 0.88872 0.38341 0.0
H800 H 0.17805 0.89671 0.33596 0.0
H801 H 0.09585 0.88447 0.31445 0.0
H802 H 0.08702 0.87626 0.36179 0.0
H803 H 0.15778 0.97747 0.50378 0.0
H804 H 0.15797 0.9344 0.48329 0.0
H805 H 0.07255 0.90441 0.46236 0.0
H806 H 0.07229 0.94707 0.48285 0.0
H807 H 0.1157 0.91184 0.4171 0.0
H808 H 0.07614 0.86767 0.49005 0.0
H809 H 0.07169 0.857 0.53696 0.0
H810 H 0.15193 0.85993 0.54515 0.0
H811 H 0.15676 0.87043 0.49819 0.0
C812 C 0.14036 0.81988 0.34764 0.0
C813 C 0.16679 0.82377 0.35702 0.0
C814 C 0.12478 0.8268 0.36697 0.0
C815 C 0.13592 0.83828 0.39553 0.0
C816 C 0.16082 0.83849 0.40542 0.0
C817 C 0.1762 0.83123 0.38623 0.0
C818 C 0.12534 0.85543 0.41339 0.0
C819 C 0.12263 0.85333 0.44148 0.0
C820 C 0.1224 0.8766 0.40433 0.0
C821 C 0.12763 0.88156 0.37592 0.0
C822 C 0.1534 0.88763 0.36849 0.0
C823 C 0.15822 0.89221 0.34165 0.0
C824 C 0.13747 0.89098 0.32215 0.0
C825 C 0.11188 0.88531 0.32953 0.0
C826 C 0.10695 0.88071 0.35637 0.0
C827 C 0.13911 0.96135 0.49584 0.0
C828 C 0.11502 0.96513 0.4951 0.0
C829 C 0.13915 0.93687 0.4844 0.0
C830 C 0.11518 0.91633 0.47196 0.0
C831 C 0.09107 0.91992 0.47255 0.0
C832 C 0.09099 0.94422 0.48405 0.0
C833 C 0.11598 0.89375 0.45216 0.0
C834 C 0.11709 0.89515 0.42371 0.0
C835 C 0.11834 0.87252 0.46114 0.0
C836 C 0.11679 0.86985 0.49075 0.0
C837 C 0.09295 0.86647 0.5021 0.0
C838 C 0.09028 0.86019 0.52852 0.0
C839 C 0.11137 0.85739 0.54374 0.0
C840 C 0.13552 0.86179 0.53313 0.0
C841 C 0.13822 0.86787 0.50663 0.0
H842 H 0.1089 0.85158 0.56364 0.0
H843 H 0.14123 0.89451 0.30137 0.0
H844 H 0.19049 0.88197 0.72338 0.0
H845 H 0.17694 0.90379 0.69054 0.0
H846 H 0.20822 0.8661 0.62354 0.0
H847 H 0.22254 0.84433 0.65666 0.0
H848 H 0.20647 0.92459 0.6275 0.0
H849 H 0.156 0.83222 0.61842 0.0
H850 H 0.13585 0.79414 0.63818 0.0
H851 H 0.08915 0.83105 0.68395 0.0
H852 H 0.10965 0.86967 0.66515 0.0
H853 H 0.10467 0.93665 0.53509 0.0
H854 H 0.13573 0.91864 0.55246 0.0
H855 H 0.10275 0.91939 0.63136 0.0
H856 H 0.07201 0.93741 0.61392 0.0
H857 H 0.10893 0.87541 0.61183 0.0
H858 H 0.1587 0.96642 0.62635 0.0
H859 H 0.17697 0.00694 0.61045 0.0
H860 H 0.22296 0.97503 0.557 0.0
H861 H 0.20446 0.93405 0.57214 0.0
C862 C 0.19569 0.87922 0.70208 0.0
C863 C 0.20706 0.86109 0.69233 0.0
C864 C 0.188 0.89176 0.68339 0.0
C865 C 0.19143 0.8862 0.65478 0.0
C866 C 0.20556 0.87052 0.64568 0.0
C867 C 0.21333 0.8579 0.66445 0.0
C868 C 0.17461 0.89153 0.63408 0.0
C869 C 0.18524 0.91342 0.62308 0.0
C870 C 0.14692 0.87718 0.62925 0.0
C871 C 0.13468 0.85398 0.6407 0.0
C872 C 0.14176 0.83238 0.63305 0.0
C873 C 0.13022 0.81067 0.64403 0.0
C874 C 0.1113 0.81021 0.66238 0.0
C875 C 0.10388 0.83146 0.66981 0.0
C876 C 0.11549 0.85328 0.65904 0.0
C877 C 0.1041 0.93279 0.55592 0.0
C878 C 0.0865 0.93871 0.57336 0.0
C879 C 0.1218 0.92264 0.56588 0.0
C880 C 0.12156 0.918 0.59324 0.0
C881 C 0.10318 0.92295 0.61019 0.0
C882 C 0.0858 0.93331 0.60034 0.0
C883 C 0.14061 0.90841 0.60495 0.0
C884 C 0.13029 0.88592 0.61484 0.0
C885 C 0.16838 0.92228 0.60872 0.0
C886 C 0.17997 0.94708 0.60011 0.0
C887 C 0.17256 0.96797 0.61104 0.0
C888 C 0.18295 0.99102 0.60217 0.0
C889 C 0.20106 0.99353 0.58266 0.0
C890 C 0.20888 0.97302 0.57206 0.0
C891 C 0.19843 0.94987 0.58076 0.0
H892 H 0.2091 0.0114 0.57582 0.0
H893 H 0.10232 0.79334 0.67077 0.0
H894 H 0.24764 0.22917 0.70246 0.0
H895 H 0.21889 0.20042 0.65981 0.0
H896 H 0.15982 0.16657 0.71106 0.0
H897 H 0.18948 0.195 0.75426 0.0
H898 H 0.17196 0.13124 0.67503 0.0
H899 H 0.1499 0.20802 0.6676 0.0
H900 H 0.16273 0.2533 0.664 0.0
H901 H 0.20322 0.23867 0.59313 0.0
H902 H 0.19006 0.19312 0.59598 0.0
H903 H 0.04635 0.07303 0.61234 0.0
H904 H 0.087 0.10888 0.63598 0.0
H905 H 0.12158 0.10394 0.55826 0.0
H906 H 0.08085 0.0681 0.53426 0.0
H907 H 0.13318 0.15667 0.59561 0.0
H908 H 0.13978 0.07548 0.59524 0.0
H909 H 0.12426 0.03008 0.59885 0.0
H910 H 0.11389 0.05275 0.68585 0.0
H911 H 0.12876 0.09819 0.68262 0.0
C912 C 0.22844 0.21601 0.70467 0.0
C913 C 0.22057 0.21432 0.73143 0.0
C914 C 0.212 0.19963 0.68025 0.0
C915 C 0.18734 0.18167 0.68246 0.0
C916 C 0.17898 0.18046 0.70918 0.0
C917 C 0.19572 0.1966 0.73366 0.0
C918 C 0.17085 0.16276 0.65725 0.0
C919 C 0.16346 0.13669 0.65759 0.0
C920 C 0.16136 0.17009 0.63383 0.0
C921 C 0.16923 0.19736 0.63216 0.0
C922 C 0.16161 0.21454 0.65133 0.0
C923 C 0.1689 0.24021 0.64938 0.0
C924 C 0.184 0.24895 0.62852 0.0
C925 C 0.19159 0.23192 0.60933 0.0
C926 C 0.18409 0.20615 0.61099 0.0
C927 C 0.06234 0.08 0.60013 0.0
C928 C 0.06089 0.06763 0.57179 0.0
C929 C 0.0854 0.10036 0.61355 0.0
C930 C 0.10709 0.10825 0.59875 0.0
C931 C 0.10487 0.09769 0.56977 0.0
C932 C 0.0817 0.07732 0.55625 0.0
C933 C 0.13266 0.12548 0.61485 0.0
C934 C 0.14228 0.15113 0.61255 0.0
C935 C 0.14431 0.11775 0.63652 0.0
C936 C 0.13537 0.09032 0.63863 0.0
C937 C 0.13399 0.07078 0.61507 0.0
C938 C 0.12532 0.04502 0.61707 0.0
C939 C 0.11813 0.03855 0.64258 0.0
C940 C 0.11952 0.0578 0.66612 0.0
C941 C 0.12809 0.08357 0.66422 0.0
H942 H 0.11152 0.01863 0.64415 0.0
H943 H 0.18974 0.26888 0.62715 0.0
H944 H 0.85987 0.21793 0.62755 0.0
H945 H 0.87904 0.19727 0.59026 0.0
H946 H 0.92709 0.18308 0.65467 0.0
H947 H 0.90906 0.20452 0.69149 0.0
H948 H 0.94969 0.18219 0.6114 0.0
H949 H 0.85964 0.14312 0.63026 0.0
H950 H 0.8129 0.13803 0.63304 0.0
H951 H 0.80062 0.13588 0.54402 0.0
H952 H 0.84747 0.14113 0.54081 0.0
H953 H 0.89376 0.03621 0.57213 0.0
H954 H 0.88658 0.0769 0.58489 0.0
H955 H 0.94487 0.11027 0.53279 0.0
H956 H 0.95472 0.07126 0.5241 0.0
H957 H 0.87157 0.10682 0.55718 0.0
H958 H 0.97841 0.15409 0.55632 0.0
H959 H 0.02139 0.15004 0.56844 0.0
H960 H 0.99554 0.12592 0.64387 0.0
H961 H 0.95219 0.12912 0.63167 0.0
C962 C 0.87546 0.21143 0.63358 0.0
C963 C 0.88263 0.21221 0.66221 0.0
C964 C 0.88634 0.19962 0.61235 0.0
C965 C 0.90371 0.1878 0.61967 0.0
C966 C 0.91356 0.19186 0.64841 0.0
C967 C 0.90318 0.20412 0.66956 0.0
C968 C 0.90719 0.16691 0.59886 0.0
C969 C 0.93268 0.16604 0.59888 0.0
C970 C 0.88489 0.14532 0.58335 0.0
C971 C 0.85709 0.14307 0.5854 0.0
C972 C 0.84703 0.14185 0.61136 0.0
C973 C 0.82054 0.13886 0.61299 0.0
C974 C 0.80386 0.13681 0.58875 0.0
C975 C 0.81363 0.13764 0.56279 0.0
C976 C 0.84013 0.14066 0.56105 0.0
C977 C 0.90472 0.05218 0.56318 0.0
C978 C 0.92413 0.05039 0.546 0.0
C979 C 0.90058 0.07532 0.57035 0.0
C980 C 0.91555 0.09668 0.56006 0.0
C981 C 0.93357 0.09425 0.54146 0.0
C982 C 0.93843 0.07162 0.53539 0.0
C983 C 0.91378 0.12196 0.57063 0.0
C984 C 0.88869 0.12358 0.56845 0.0
C985 C 0.9361 0.14347 0.58589 0.0
C986 C 0.96208 0.1415 0.5929 0.0
C987 C 0.98192 0.14779 0.57538 0.0
C988 C 1.00627 0.14557 0.58221 0.0
C989 C 0.01116 0.13764 0.60686 0.0
C990 C 0.99168 0.13187 0.62469 0.0
C991 C 0.96717 0.13371 0.61772 0.0
H992 H 0.03007 0.13605 0.61219 0.0
H993 H 0.78333 0.13443 0.59003 0.0
H994 H 0.86079 0.80251 0.74233 0.0
H995 H 0.88824 0.82828 0.71294 0.0
H996 H 0.84119 0.87587 0.71959 0.0
H997 H 0.81251 0.84881 0.74737 0.0
H998 H 0.84622 0.86474 0.66858 0.0
H999 H 0.90956 0.89734 0.75258 0.0
H1000 H 0.93696 0.89597 0.79433 0.0
H1001 H 0.97589 0.85605 0.73957 0.0
H1002 H 0.94849 0.8569 0.69748 0.0
H1003 H 0.95283 0.96887 0.62881 0.0
H1004 H 0.92603 0.94311 0.65888 0.0
H1005 H 0.92509 0.87358 0.60344 0.0
H1006 H 0.95114 0.89932 0.57238 0.0
H1007 H 0.94462 0.89596 0.67764 0.0
H1008 H 0.87541 0.8644 0.59286 0.0
H1009 H 0.84931 0.87262 0.55496 0.0
H1010 H 0.82301 0.91933 0.6177 0.0
H1011 H 0.84948 0.91185 0.65594 0.0
C1012 C 0.85681 0.81893 0.73817 0.0
C1013 C 0.83473 0.82387 0.74726 0.0
C1014 C 0.87252 0.8337 0.72135 0.0
C1015 C 0.86703 0.85426 0.71417 0.0
C1016 C 0.84578 0.86005 0.72465 0.0
C1017 C 0.82958 0.84479 0.74076 0.0
C1018 C 0.8821 0.86839 0.69402 0.0
C1019 C 0.86776 0.8717 0.67085 0.0
C1020 C 0.91022 0.87748 0.69665 0.0
C1021 C 0.92679 0.87698 0.72189 0.0
C1022 C 0.92383 0.88811 0.74945 0.0
C1023 C 0.93939 0.88745 0.77318 0.0
C1024 C 0.95811 0.87587 0.76961 0.0
C1025 C 0.96136 0.86499 0.7423 0.0
C1026 C 0.94585 0.86559 0.7185 0.0
C1027 C 0.94681 0.94807 0.62297 0.0
C1028 C 0.95404 0.93598 0.59843 0.0
C1029 C 0.93147 0.93345 0.64006 0.0
C1030 C 0.92356 0.90657 0.63316 0.0
C1031 C 0.93086 0.89435 0.60878 0.0
C1032 C 0.94568 0.90898 0.59117 0.0
C1033 C 0.90864 0.89168 0.65243 0.0
C1034 C 0.92307 0.88859 0.6755 0.0
C1035 C 0.88073 0.88352 0.65022 0.0
C1036 C 0.86478 0.88791 0.62721 0.0
C1037 C 0.8644 0.87674 0.59855 0.0
C1038 C 0.84946 0.88119 0.57701 0.0
C1039 C 0.8346 0.89658 0.58391 0.0
C1040 C 0.8346 0.90749 0.61237 0.0
C1041 C 0.84957 0.90315 0.63398 0.0
H1042 H 0.82302 0.89998 0.56721 0.0
H1043 H 0.97012 0.87538 0.78801 0.0
H1044 H 0.34367 0.21326 0.27536 0.0
H1045 H 0.36806 0.18628 0.25682 0.0
H1046 H 0.33496 0.17987 0.17146 0.0
H1047 H 0.3093 0.20585 0.19037 0.0
H1048 H 0.34411 0.14047 0.16207 0.0
H1049 H 0.41114 0.21747 0.21326 0.0
H1050 H 0.43607 0.25475 0.25293 0.0
H1051 H 0.44434 0.20366 0.30416 0.0
H1052 H 0.4192 0.16603 0.26484 0.0
H1053 H 0.439 0.08408 0.10411 0.0
H1054 H 0.41336 0.11047 0.11987 0.0
H1055 H 0.43393 0.10945 0.20654 0.0
H1056 H 0.46009 0.08351 0.19101 0.0
H1057 H 0.43145 0.15341 0.21279 0.0
H1058 H 0.36254 0.07532 0.15141 0.0
H1059 H 0.34276 0.04397 0.10538 0.0
H1060 H 0.34498 0.1056 0.06557 0.0
H1061 H 0.36489 0.13728 0.11129 0.0
C1062 C 0.34133 0.20634 0.25252 0.0
C1063 C 0.3237 0.21281 0.23508 0.0
C1064 C 0.35609 0.19065 0.24144 0.0
C1065 C 0.35527 0.18044 0.21174 0.0
C1066 C 0.33728 0.18668 0.1943 0.0
C1067 C 0.32218 0.2021 0.20544 0.0
C1068 C 0.37237 0.16357 0.19935 0.0
C1069 C 0.36326 0.14385 0.17356 0.0
C1070 C 0.39823 0.16658 0.21246 0.0
C1071 C 0.413 0.18896 0.23628 0.0
C1072 C 0.4181 0.21419 0.23308 0.0
C1073 C 0.43229 0.23538 0.25547 0.0
C1074 C 0.44169 0.23157 0.28109 0.0
C1075 C 0.43698 0.20657 0.28433 0.0
C1076 C 0.42277 0.1853 0.262 0.0
C1077 C 0.43833 0.089 0.12667 0.0
C1078 C 0.45278 0.08032 0.14554 0.0
C1079 C 0.42283 0.1045 0.13601 0.0
C1080 C 0.41998 0.11267 0.16513 0.0
C1081 C 0.43463 0.10428 0.18397 0.0
C1082 C 0.45014 0.08883 0.17468 0.0
C1083 C 0.40287 0.12987 0.17613 0.0
C1084 C 0.41209 0.1498 0.20162 0.0
C1085 C 0.37771 0.12778 0.16198 0.0
C1086 C 0.36539 0.10865 0.13471 0.0
C1087 C 0.35885 0.08216 0.13282 0.0
C1088 C 0.34762 0.06434 0.10679 0.0
C1089 C 0.34268 0.0728 0.08256 0.0
C1090 C 0.34884 0.09907 0.08434 0.0
C1091 C 0.36005 0.11695 0.1103 0.0
H1092 H 0.33406 0.05899 0.06242 0.0
H1093 H 0.45269 0.248 0.29841 0.0
H1094 H 0.80946 0.34505 0.2392 0.0
H1095 H 0.83749 0.37129 0.21019 0.0
H1096 H 0.88463 0.32389 0.20378 0.0
H1097 H 0.85784 0.29865 0.23361 0.0
H1098 H 0.91596 0.36837 0.2058 0.0
H1099 H 0.83298 0.31536 0.15016 0.0
H1100 H 0.78434 0.29589 0.13636 0.0
H1101 H 0.78254 0.37033 0.13462 0.0
H1102 H 0.83125 0.39035 0.14879 0.0
H1103 H 0.95314 0.38832 0.06597 0.0
H1104 H 0.92424 0.36589 0.09749 0.0
H1105 H 0.92665 0.43884 0.146 0.0
H1106 H 0.95632 0.46136 0.11547 0.0
H1107 H 0.87054 0.38195 0.12163 0.0
H1108 H 0.96052 0.43132 0.18135 0.0
H1109 H 0.00892 0.44163 0.18641 0.0
H1110 H 0.9953 0.36088 0.17065 0.0
H1111 H 0.94679 0.35012 0.16488 0.0
C1112 C 0.82607 0.34051 0.23201 0.0
C1113 C 0.83103 0.31941 0.23844 0.0
C1114 C 0.84197 0.3554 0.21518 0.0
C1115 C 0.86281 0.3492 0.20404 0.0
C1116 C 0.86864 0.32909 0.21185 0.0
C1117 C 0.8531 0.31451 0.22892 0.0
C1118 C 0.87793 0.36273 0.18336 0.0
C1119 C 0.90585 0.37126 0.18748 0.0
C1120 C 0.86502 0.36615 0.1589 0.0
C1121 C 0.83571 0.35439 0.15087 0.0
C1122 C 0.82219 0.32763 0.14712 0.0
C1123 C 0.79463 0.31649 0.13917 0.0
C1124 C 0.78038 0.33187 0.13465 0.0
C1125 C 0.79364 0.35846 0.13816 0.0
C1126 C 0.82123 0.36971 0.14614 0.0
C1127 C 0.94722 0.39947 0.08318 0.0
C1128 C 0.95706 0.42654 0.08848 0.0
C1129 C 0.93078 0.38669 0.10112 0.0
C1130 C 0.92349 0.4008 0.12408 0.0
C1131 C 0.93219 0.42768 0.12846 0.0
C1132 C 0.94916 0.44049 0.11108 0.0
C1133 C 0.90816 0.3878 0.14466 0.0
C1134 C 0.88035 0.37927 0.1403 0.0
C1135 C 0.921 0.38333 0.16821 0.0
C1136 C 0.9501 0.38994 0.17233 0.0
C1137 C 0.96786 0.41578 0.17866 0.0
C1138 C 0.9953 0.4217 0.18171 0.0
C1139 C 1.00518 0.40192 0.17876 0.0
C1140 C 0.98763 0.37618 0.17286 0.0
C1141 C 0.96018 0.37017 0.16969 0.0
H1142 H 0.02643 0.40654 0.18113 0.0
H1143 H 0.75908 0.32311 0.12825 0.0
H1144 H 0.74987 0.8417 0.26371 0.0
H1145 H 0.7277 0.8669 0.24508 0.0
H1146 H 0.68278 0.80089 0.17734 0.0
H1147 H 0.7077 0.77668 0.19448 0.0
H1148 H 0.67778 0.83184 0.15443 0.0
H1149 H 0.66264 0.84459 0.25422 0.0
H1150 H 0.67636 0.85787 0.30617 0.0
H1151 H 0.72819 0.93264 0.29872 0.0
H1152 H 0.71466 0.9198 0.24669 0.0
H1153 H 0.58302 0.89019 0.11831 0.0
H1154 H 0.60766 0.86573 0.13405 0.0
H1155 H 0.66278 0.93484 0.19097 0.0
H1156 H 0.63798 0.95946 0.17575 0.0
H1157 H 0.66217 0.90257 0.21843 0.0
H1158 H 0.6726 0.8917 0.11973 0.0
H1159 H 0.65934 0.87899 0.06769 0.0
H1160 H 0.61635 0.80088 0.07261 0.0
H1161 H 0.6291 0.81318 0.12471 0.0
C1162 C 0.73523 0.83225 0.24483 0.0
C1163 C 0.73116 0.8064 0.2313 0.0
C1164 C 0.72155 0.84693 0.23408 0.0
C1165 C 0.70134 0.83663 0.20972 0.0
C1166 C 0.69747 0.81062 0.1961 0.0
C1167 C 0.71201 0.79625 0.20623 0.0
C1168 C 0.68505 0.85246 0.19832 0.0
C1169 C 0.67423 0.8469 0.16905 0.0
C1170 C 0.67985 0.87344 0.21557 0.0
C1171 C 0.68789 0.88115 0.24666 0.0
C1172 C 0.677 0.86383 0.26371 0.0
C1173 C 0.68472 0.87129 0.29316 0.0
C1174 C 0.70323 0.89602 0.30577 0.0
C1175 C 0.7139 0.91346 0.28895 0.0
C1176 C 0.70616 0.90614 0.2595 0.0
C1177 C 0.60038 0.90081 0.1341 0.0
C1178 C 0.6074 0.92794 0.14507 0.0
C1179 C 0.61512 0.88627 0.14323 0.0
C1180 C 0.63839 0.8975 0.16403 0.0
C1181 C 0.64537 0.9245 0.17508 0.0
C1182 C 0.63067 0.93906 0.16598 0.0
C1183 C 0.65469 0.88166 0.17484 0.0
C1184 C 0.66558 0.88732 0.20392 0.0
C1185 C 0.65977 0.86075 0.15739 0.0
C1186 C 0.65153 0.85346 0.12618 0.0
C1187 C 0.6601 0.87187 0.10975 0.0
C1188 C 0.65272 0.86472 0.08023 0.0
C1189 C 0.63693 0.83916 0.06687 0.0
C1190 C 0.62851 0.82069 0.08299 0.0
C1191 C 0.63581 0.82774 0.11251 0.0
H1192 H 0.63129 0.83366 0.04401 0.0
H1193 H 0.70925 0.90165 0.32856 0.0
H1194 H 0.2194 0.74163 0.16973 0.0
H1195 H 0.19757 0.70185 0.13273 0.0
H1196 H 0.21148 0.65748 0.19048 0.0
H1197 H 0.23242 0.69714 0.22782 0.0
H1198 H 0.21913 0.64015 0.13343 0.0
H1199 H 0.15653 0.66066 0.18793 0.0
H1200 H 0.13399 0.68809 0.21141 0.0
H1201 H 0.10756 0.69761 0.13039 0.0
H1202 H 0.13042 0.67057 0.10644 0.0
H1203 H 0.10476 0.52279 0.09773 0.0
H1204 H 0.14168 0.5635 0.11918 0.0
H1205 H 0.12809 0.59413 0.04745 0.0
H1206 H 0.09128 0.55331 0.02579 0.0
H1207 H 0.12296 0.61989 0.10603 0.0
H1208 H 0.18299 0.59027 0.05293 0.0
H1209 H 0.20225 0.55789 0.0355 0.0
H1210 H 0.2294 0.55996 0.12146 0.0
H1211 H 0.21004 0.59217 0.13941 0.0
C1212 C 0.21821 0.72338 0.1742 0.0
C1213 C 0.22804 0.72216 0.20108 0.0
C1214 C 0.20592 0.70085 0.15317 0.0
C1215 C 0.20327 0.67703 0.15905 0.0
C1216 C 0.21391 0.67588 0.18561 0.0
C1217 C 0.22593 0.6984 0.20674 0.0
C1218 C 0.18663 0.65317 0.13871 0.0
C1219 C 0.19813 0.63567 0.12728 0.0
C1220 C 0.15927 0.64756 0.13116 0.0
C1221 C 0.14559 0.66397 0.14542 0.0
C1222 C 0.14623 0.66889 0.17514 0.0
C1223 C 0.13333 0.6843 0.18853 0.0
C1224 C 0.11946 0.6947 0.17242 0.0
C1225 C 0.11841 0.68962 0.14285 0.0
C1226 C 0.13134 0.67426 0.12935 0.0
C1227 C 0.11017 0.53801 0.08626 0.0
C1228 C 0.09542 0.53521 0.06023 0.0
C1229 C 0.13123 0.56105 0.09838 0.0
C1230 C 0.13741 0.58146 0.08466 0.0
C1231 C 0.12356 0.5783 0.05801 0.0
C1232 C 0.10275 0.55508 0.04567 0.0
C1233 C 0.15553 0.60704 0.10031 0.0
C1234 C 0.14416 0.62477 0.11134 0.0
C1235 C 0.18271 0.61237 0.10823 0.0
C1236 C 0.19501 0.59357 0.0975 0.0
C1237 C 0.19299 0.58375 0.06811 0.0
C1238 C 0.20394 0.56544 0.05814 0.0
C1239 C 0.21703 0.55686 0.07736 0.0
C1240 C 0.21929 0.56666 0.10659 0.0
C1241 C 0.2084 0.58499 0.11668 0.0
H1242 H 0.22544 0.54264 0.0696 0.0
H1243 H 0.10945 0.7066 0.18282 0.0
H1244 H 0.34402 0.80866 0.81454 0.0
H1245 H 0.38129 0.83375 0.8523 0.0
H1246 H 0.32632 0.84341 0.91003 0.0
H1247 H 0.28883 0.81839 0.87189 0.0
H1248 H 0.36694 0.88889 0.90833 0.0
H1249 H 0.35886 0.80122 0.9143 0.0
H1250 H 0.35698 0.75805 0.89038 0.0
H1251 H 0.43419 0.79205 0.86642 0.0
H1252 H 0.4364 0.83543 0.8899 0.0
H1253 H 0.46326 0.95923 0.02706 0.0
H1254 H 0.42349 0.92443 -0.00167 0.0
H1255 H 0.47344 0.89662 0.94594 0.0
H1256 H 0.51265 0.92991 0.97543 0.0
H1257 H 0.43408 0.858 0.9454 0.0
H1258 H 0.44517 0.94009 0.92906 0.0
H1259 H 0.45 0.9857 0.93786 0.0
H1260 H 0.3733 0.96643 0.9657 0.0
H1261 H 0.36815 0.92069 0.95743 0.0
C1262 C 0.33993 0.81582 0.83546 0.0
C1263 C 0.31375 0.8118 0.84063 0.0
C1264 C 0.3612 0.8301 0.85695 0.0
C1265 C 0.35647 0.84011 0.88401 0.0
C1266 C 0.33025 0.83575 0.88922 0.0
C1267 C 0.30895 0.82168 0.86757 0.0
C1268 C 0.37887 0.85653 0.90651 0.0
C1269 C 0.38132 0.88205 0.91705 0.0
C1270 C 0.39842 0.84786 0.91627 0.0
C1271 C 0.39781 0.82159 0.90393 0.0
C1272 C 0.37548 0.79948 0.90403 0.0
C1273 C 0.37432 0.77498 0.89048 0.0
C1274 C 0.39545 0.77231 0.8769 0.0
C1275 C 0.41786 0.79413 0.87701 0.0
C1276 C 0.41911 0.81868 0.89051 0.0
C1277 C 0.46563 0.94491 0.01027 0.0
C1278 C 0.49098 0.94719 0.00353 0.0
C1279 C 0.44294 0.92532 0.99348 0.0
C1280 C 0.44537 0.90821 0.96943 0.0
C1281 C 0.47082 0.90944 0.96422 0.0
C1282 C 0.4933 0.92858 0.98113 0.0
C1283 C 0.42191 0.89055 0.94819 0.0
C1284 C 0.41941 0.86484 0.93744 0.0
C1285 C 0.40301 0.89942 0.93696 0.0
C1286 C 0.40652 0.92706 0.94319 0.0
C1287 C 0.42951 0.94564 0.93749 0.0
C1288 C 0.43227 0.97151 0.94227 0.0
C1289 C 0.41205 0.979 0.9525 0.0
C1290 C 0.38901 0.96062 0.95793 0.0
C1291 C 0.38618 0.93473 0.95323 0.0
H1292 H 0.41417 -0.00098 0.95611 0.0
H1293 H 0.39443 0.75334 0.86628 0.0
H1294 H 0.27445 0.32699 0.85369 0.0
H1295 H 0.25153 0.35292 0.87925 0.0
H1296 H 0.18556 0.31885 0.81091 0.0
H1297 H 0.20942 0.29495 0.78463 0.0
H1298 H 0.19098 0.36349 0.82377 0.0
H1299 H 0.18812 0.30548 0.88364 0.0
H1300 H 0.20352 0.28302 0.91544 0.0
H1301 H 0.24824 0.35553 0.97381 0.0
H1302 H 0.23349 0.3785 0.94211 0.0
H1303 H 0.09574 0.4014 0.89492 0.0
H1304 H 0.12069 0.37594 0.87395 0.0
H1305 H 0.19029 0.42569 0.93382 0.0
H1306 H 0.16547 0.45143 0.95489 0.0
H1307 H 0.1845 0.37523 0.92676 0.0
H1308 H 0.18224 0.43107 0.86321 0.0
H1309 H 0.15974 0.4489 0.83182 0.0
H1310 H 0.11682 0.37284 0.77959 0.0
H1311 H 0.13881 0.35453 0.81085 0.0
C1312 C 0.25503 0.32508 0.84428 0.0
C1313 C 0.24378 0.30899 0.81709 0.0
C1314 C 0.24172 0.33974 0.85904 0.0
C1315 C 0.21636 0.33785 0.84747 0.0
C1316 C 0.20507 0.32116 0.82053 0.0
C1317 C 0.2187 0.30729 0.80546 0.0
C1318 C 0.20185 0.35376 0.8624 0.0
C1319 C 0.18936 0.36555 0.84624 0.0
C1320 C 0.19987 0.35736 0.89196 0.0
C1321 C 0.20991 0.34373 0.91033 0.0
C1322 C 0.20153 0.31668 0.90306 0.0
C1323 C 0.21006 0.30384 0.92112 0.0
C1324 C 0.22676 0.31783 0.94666 0.0
C1325 C 0.23521 0.34471 0.95407 0.0
C1326 C 0.22683 0.35765 0.93603 0.0
C1327 C 0.1164 0.40713 0.9036 0.0
C1328 C 0.12851 0.42881 0.92654 0.0
C1329 C 0.13071 0.39244 0.89154 0.0
C1330 C 0.15766 0.39903 0.90185 0.0
C1331 C 0.1696 0.42014 0.92532 0.0
C1332 C 0.15527 0.43485 0.93746 0.0
C1333 C 0.17341 0.3842 0.88791 0.0
C1334 C 0.18625 0.37291 0.90429 0.0
C1335 C 0.17502 0.3803 0.85838 0.0
C1336 C 0.16203 0.39143 0.83949 0.0
C1337 C 0.1679 0.41814 0.84512 0.0
C1338 C 0.15525 0.42833 0.82734 0.0
C1339 C 0.13683 0.41201 0.80376 0.0
C1340 C 0.13107 0.38546 0.79786 0.0
C1341 C 0.14364 0.37518 0.81559 0.0
H1342 H 0.12705 0.41993 0.79003 0.0
H1343 H 0.23315 0.30784 0.96073 0.0
H1344 H 0.72515 0.17568 0.78375 0.0
H1345 H 0.70164 0.14749 0.81377 0.0
H1346 H 0.69186 0.21204 0.86842 0.0
H1347 H 0.71505 0.24027 0.83847 0.0
H1348 H 0.7099 0.18307 0.8991 0.0
H1349 H 0.63911 0.16861 0.82665 0.0
H1350 H 0.61853 0.15928 0.77692 0.0
H1351 H 0.62532 0.08516 0.76066 0.0
H1352 H 0.64626 0.09417 0.81031 0.0
H1353 H 0.62331 0.10485 0.98056 0.0
H1354 H 0.64477 0.13632 0.95286 0.0
H1355 H 0.64116 0.07412 0.88359 0.0
H1356 H 0.61831 0.04288 0.91046 0.0
H1357 H 0.62878 0.10471 0.86112 0.0
H1358 H 0.70183 0.12051 0.93424 0.0
H1359 H 0.72492 0.13197 0.98331 0.0
H1360 H 0.7152 0.20478 -0.00168 0.0
H1361 H 0.69181 0.19363 0.94944 0.0
C1362 C 0.71786 0.18388 0.80204 0.0
C1363 C 0.72208 0.21033 0.80856 0.0
C1364 C 0.70437 0.16771 0.81922 0.0
C1365 C 0.69496 0.17758 0.84351 0.0
C1366 C 0.69899 0.20392 0.84995 0.0
C1367 C 0.71215 0.22002 0.8326 0.0
C1368 C 0.68111 0.16046 0.86222 0.0
C1369 C 0.69197 0.16607 0.89092 0.0
C1370 C 0.65789 0.13813 0.85162 0.0
C1371 C 0.64445 0.13215 0.8221 0.0
C1372 C 0.6363 0.15035 0.81244 0.0
C1373 C 0.62458 0.14513 0.7843 0.0
C1374 C 0.62073 0.1217 0.76566 0.0
C1375 C 0.62837 0.10332 0.77516 0.0
C1376 C 0.64012 0.10845 0.80332 0.0
C1377 C 0.62738 0.09798 0.95953 0.0
C1378 C 0.61914 0.07133 0.94779 0.0
C1379 C 0.63981 0.11603 0.94364 0.0
C1380 C 0.64512 0.10791 0.91595 0.0
C1381 C 0.63733 0.08121 0.90466 0.0
C1382 C 0.62434 0.06325 0.92018 0.0
C1383 C 0.65794 0.12673 0.89819 0.0
C1384 C 0.64675 0.12158 0.86953 0.0
C1385 C 0.68094 0.14951 0.90891 0.0
C1386 C 0.69482 0.1561 0.93832 0.0
C1387 C 0.70445 0.13887 0.94809 0.0
C1388 C 0.71762 0.14533 0.97585 0.0
C1389 C 0.72144 0.16905 0.99395 0.0
C1390 C 0.71217 0.1864 0.9843 0.0
C1391 C 0.69898 0.18002 0.95658 0.0
H1392 H 0.73166 0.17402 0.01542 0.0
H1393 H 0.61183 0.11785 0.74388 0.0
H1394 H 0.87571 0.67157 0.84051 0.0
H1395 H 0.89622 0.64466 0.85857 0.0
H1396 H 0.89879 0.68479 0.94459 0.0
H1397 H 0.87815 0.71168 0.92669 0.0
H1398 H 0.94368 0.6791 0.94101 0.0
H1399 H 0.85473 0.62195 0.91696 0.0
H1400 H 0.81039 0.59739 0.88886 0.0
H1401 H 0.84438 0.5578 0.82717 0.0
H1402 H 0.88904 0.58244 0.85469 0.0
H1403 H 0.98097 0.58552 0.99639 0.0
H1404 H 0.95574 0.61113 0.98471 0.0
H1405 H 0.96024 0.58696 0.89581 0.0
H1406 H 0.98605 0.56203 0.90721 0.0
H1407 H 0.90912 0.58396 0.90567 0.0
H1408 H 1.00044 0.64694 0.93433 0.0
H1409 H 0.04156 0.66986 0.9687 0.0
H1410 H 0.9975 0.69628 0.02978 0.0
H1411 H 0.95609 0.6733 0.99583 0.0
C1412 C 0.88027 0.67451 0.8633 0.0
C1413 C 0.87516 0.69398 0.88202 0.0
C1414 C 0.89209 0.65904 0.87367 0.0
C1415 C 0.89899 0.66238 0.90308 0.0
C1416 C 0.89387 0.68175 0.92183 0.0
C1417 C 0.88207 0.69725 0.91148 0.0
C1418 C 0.91211 0.64612 0.91412 0.0
C1419 C 0.93582 0.65827 0.93349 0.0
C1420 C 0.90201 0.61882 0.90476 0.0
C1421 C 0.87531 0.60429 0.88773 0.0
C1422 C 0.85281 0.60823 0.89723 0.0
C1423 C 0.8276 0.59424 0.88144 0.0
C1424 C 0.82458 0.57611 0.85619 0.0
C1425 C 0.84677 0.57191 0.8467 0.0
C1426 C 0.87204 0.58587 0.86239 0.0
C1427 C 0.97682 0.58567 0.97437 0.0
C1428 C 0.98559 0.57121 0.95291 0.0
C1429 C 0.96223 0.60037 0.96768 0.0
C1430 C 0.95601 0.60109 0.9393 0.0
C1431 C 0.96453 0.58663 0.91784 0.0
C1432 C 0.97924 0.57212 0.9245 0.0
C1433 C 0.94096 0.61705 0.93171 0.0
C1434 C 0.91684 0.60481 0.9131 0.0
C1435 C 0.95021 0.64412 0.94248 0.0
C1436 C 0.97518 0.65827 0.96263 0.0
C1437 C 0.99953 0.65755 0.95513 0.0
C1438 C 0.02288 0.67057 0.97453 0.0
C1439 C 0.02213 0.68448 0.00143 0.0
C1440 C 0.99805 0.68549 0.00895 0.0
C1441 C 0.97464 0.67251 0.98962 0.0
H1442 H 0.04023 0.69452 0.01643 0.0
H1443 H 0.80503 0.56525 0.84403 0.0
H1444 H 0.15123 0.27922 0.13231 0.0
H1445 H 0.13666 0.30479 0.10468 0.0
H1446 H 0.21846 0.3499 0.10035 0.0
H1447 H 0.23313 0.32476 0.12873 0.0
H1448 H 0.18817 0.37954 0.11079 0.0
H1449 H 0.18087 0.301 0.04356 0.0
H1450 H 0.16574 0.25361 0.02791 0.0
H1451 H 0.08453 0.24689 0.02858 0.0
H1452 H 0.09919 0.29418 0.04453 0.0
H1453 H 0.13205 0.43888 0.0257 0.0
H1454 H 0.16086 0.41568 0.03508 0.0
H1455 H 0.09131 0.3495 0.03803 0.0
H1456 H 0.06286 0.37176 0.02597 0.0
H1457 H 0.12546 0.3328 0.02153 0.0
H1458 H 0.1287 0.40436 0.09861 0.0
H1459 H 0.13864 0.45033 0.12004 0.0
H1460 H 0.2203 0.46894 0.10744 0.0
H1461 H 0.21073 0.4231 0.08563 0.0
C1462 C 0.16602 0.29457 0.12539 0.0
C1463 C 0.1932 0.29991 0.13221 0.0
C1464 C 0.15775 0.30912 0.10965 0.0
C1465 C 0.17653 0.32876 0.09995 0.0
C1466 C 0.20373 0.33466 0.10749 0.0
C1467 C 0.21203 0.32033 0.1236 0.0
C1468 C 0.16755 0.34275 0.08149 0.0
C1469 C 0.17485 0.36948 0.09098 0.0
C1470 C 0.14993 0.32946 0.05591 0.0
C1471 C 0.14114 0.30111 0.0452 0.0
C1472 C 0.15979 0.2894 0.04034 0.0
C1473 C 0.1513 0.26256 0.03146 0.0
C1474 C 0.12419 0.24725 0.02724 0.0
C1475 C 0.10551 0.25876 0.03179 0.0
C1476 C 0.1139 0.28558 0.04067 0.0
C1477 C 0.12312 0.41891 0.02692 0.0
C1478 C 0.09545 0.40683 0.02495 0.0
C1479 C 0.1395 0.40583 0.03274 0.0
C1480 C 0.12831 0.38117 0.03819 0.0
C1481 C 0.1005 0.36851 0.03395 0.0
C1482 C 0.08419 0.38117 0.02706 0.0
C1483 C 0.14479 0.36944 0.05156 0.0
C1484 C 0.13925 0.3431 0.04099 0.0
C1485 C 0.16316 0.38294 0.07676 0.0
C1486 C 0.16894 0.4104 0.09019 0.0
C1487 C 0.14874 0.41829 0.10033 0.0
C1488 C 0.1543 0.44431 0.11252 0.0
C1489 C 0.18007 0.46256 0.11502 0.0
C1490 C 0.20034 0.4548 0.10542 0.0
C1491 C 0.19486 0.42882 0.09314 0.0
H1492 H 0.18434 0.48269 0.12444 0.0
H1493 H 0.11767 0.22648 0.02045 0.0
H1494 H 0.26584 0.71279 0.84289 0.0
H1495 H 0.23987 0.68177 0.86857 0.0
H1496 H 0.16953 0.66371 0.80891 0.0
H1497 H 0.19519 0.69599 0.78442 0.0
H1498 H 0.15652 0.66763 0.85793 0.0
H1499 H 0.20376 0.62145 0.80857 0.0
H1500 H 0.24233 0.61363 0.7907 0.0
H1501 H 0.27798 0.62469 0.87626 0.0
H1502 H 0.2397 0.63284 0.89469 0.0
H1503 H 0.08476 0.55053 0.89676 0.0
H1504 H 0.10976 0.58223 0.87161 0.0
H1505 H 0.17274 0.61636 0.94294 0.0
H1506 H 0.14766 0.58451 0.96861 0.0
H1507 H 0.18822 0.60338 0.88746 0.0
H1508 H 0.1335 0.64706 0.93321 0.0
H1509 H 0.09061 0.64949 0.9442 0.0
H1510 H 0.06352 0.63548 0.85517 0.0
H1511 H 0.1061 0.63264 0.84362 0.0
C1512 C 0.24486 0.70205 0.83531 0.0
C1513 C 0.23232 0.70662 0.81193 0.0
C1514 C 0.23008 0.68426 0.84981 0.0
C1515 C 0.20284 0.67016 0.84039 0.0
C1516 C 0.19048 0.67446 0.81661 0.0
C1517 C 0.20509 0.69278 0.80263 0.0
C1518 C 0.18708 0.65158 0.85599 0.0
C1519 C 0.16331 0.65337 0.86405 0.0
C1520 C 0.19591 0.63297 0.86394 0.0
C1521 C 0.21895 0.62795 0.85302 0.0
C1522 C 0.21989 0.62237 0.82359 0.0
C1523 C 0.24168 0.61784 0.81336 0.0
C1524 C 0.26258 0.61867 0.83233 0.0
C1525 C 0.26174 0.62402 0.86159 0.0
C1526 C 0.23999 0.62856 0.87195 0.0
C1527 C 0.10392 0.56478 0.9072 0.0
C1528 C 0.11442 0.56503 0.93458 0.0
C1529 C 0.11804 0.58293 0.89284 0.0
C1530 C 0.14286 0.60158 0.90561 0.0
C1531 C 0.15347 0.60203 0.93295 0.0
C1532 C 0.1392 0.58392 0.94751 0.0
C1533 C 0.15815 0.61986 0.8897 0.0
C1534 C 0.18167 0.61781 0.8814 0.0
C1535 C 0.14846 0.63743 0.8805 0.0
C1536 C 0.12295 0.63944 0.88755 0.0
C1537 C 0.11833 0.64431 0.91597 0.0
C1538 C 0.09408 0.6458 0.92229 0.0
C1539 C 0.07433 0.64259 0.9004 0.0
C1540 C 0.07882 0.63796 0.87212 0.0
C1541 C 0.10303 0.63644 0.86567 0.0
H1542 H 0.05557 0.64373 0.90535 0.0
H1543 H 0.2794 0.6151 0.82434 0.0
H1544 H 0.40179 0.21047 0.89143 0.0
H1545 H 0.42679 0.18688 0.90908 0.0
H1546 H 0.35931 0.11555 0.87839 0.0
H1547 H 0.33432 0.13885 0.86014 0.0
H1548 H 0.38192 0.1189 0.93214 0.0
H1549 H 0.41228 0.12991 0.84245 0.0
H1550 H 0.43109 0.15453 0.80713 0.0
H1551 H 0.50221 0.19916 0.86641 0.0
H1552 H 0.48367 0.17499 0.90222 0.0
H1553 H 0.45003 0.03119 0.93512 0.0
H1554 H 0.42354 0.05533 0.92154 0.0
H1555 H 0.49083 0.12667 0.95333 0.0
H1556 H 0.51724 0.10275 0.96706 0.0
H1557 H 0.46822 0.12372 0.90027 0.0
H1558 H 0.43987 0.11308 0.98941 0.0
H1559 H 0.42172 0.09067 0.0266 0.0
H1560 H 0.34802 0.04736 0.971 0.0
H1561 H 0.36586 0.06928 0.9333 0.0
C1562 C 0.3923 0.18972 0.88803 0.0
C1563 C 0.36592 0.1767 0.87416 0.0
C1564 C 0.40663 0.17623 0.89833 0.0
C1565 C 0.39506 0.14932 0.895 0.0
C1566 C 0.36871 0.13628 0.88141 0.0
C1567 C 0.35439 0.14973 0.871 0.0
C1568 C 0.41053 0.13476 0.90532 0.0
C1569 C 0.4006 0.11964 0.92484 0.0
C1570 C 0.43532 0.13625 0.89655 0.0
C1571 C 0.44649 0.15082 0.87509 0.0
C1572 C 0.43185 0.14511 0.84802 0.0
C1573 C 0.44247 0.15896 0.8279 0.0
C1574 C 0.4678 0.17845 0.83454 0.0
C1575 C 0.48258 0.18409 0.86131 0.0
C1576 C 0.47204 0.1703 0.88151 0.0
C1577 C 0.45914 0.05201 0.93928 0.0
C1578 C 0.48577 0.06498 0.95229 0.0
C1579 C 0.44392 0.06583 0.93168 0.0
C1580 C 0.45509 0.09291 0.93653 0.0
C1581 C 0.48168 0.10585 0.94942 0.0
C1582 C 0.49674 0.09211 0.9574 0.0
C1583 C 0.43958 0.1077 0.92697 0.0
C1584 C 0.44951 0.12289 0.90756 0.0
C1585 C 0.41492 0.10639 0.93605 0.0
C1586 C 0.40435 0.09259 0.95836 0.0
C1587 C 0.41992 0.09852 0.98495 0.0
C1588 C 0.40965 0.08598 0.00618 0.0
C1589 C 0.38376 0.06755 0.00114 0.0
C1590 C 0.36809 0.06161 0.97485 0.0
C1591 C 0.37827 0.0741 0.95355 0.0
H1592 H 0.37581 0.05793 0.01764 0.0
H1593 H 0.476 0.18914 0.81893 0.0
H1594 H 0.84232 0.28224 0.797 0.0
H1595 H 0.88288 0.31927 0.8017 0.0
H1596 H 0.84284 0.36942 0.8353 0.0
H1597 H 0.801 0.33277 0.82666 0.0
H1598 H 0.8937 0.39676 0.82842 0.0
H1599 H 0.84825 0.32846 0.88015 0.0
H1600 H 0.82601 0.2827 0.88156 0.0
H1601 H 0.89215 0.26634 0.85119 0.0
H1602 H 0.91468 0.31201 0.8496 0.0
H1603 H 0.96595 0.46484 0.96059 0.0
H1604 H 0.92729 0.43424 0.92755 0.0
H1605 H 0.97108 0.38488 0.904 0.0
H1606 H 1.0085 0.41411 0.93981 0.0
H1607 H 0.92133 0.35801 0.90234 0.0
H1608 H 0.97111 0.43654 0.87068 0.0
H1609 H 0.98805 0.48359 0.87463 0.0
H1610 H 0.90852 0.48245 0.87301 0.0
H1611 H 0.89117 0.43551 0.86936 0.0
C1612 C 0.84158 0.30119 0.80347 0.0
C1613 C 0.81869 0.30463 0.81227 0.0
C1614 C 0.86476 0.32243 0.80568 0.0
C1615 C 0.86584 0.34646 0.82052 0.0
C1616 C 0.8423 0.35066 0.8245 0.0
C1617 C 0.81856 0.3296 0.82032 0.0
C1618 C 0.88878 0.36184 0.84208 0.0
C1619 C 0.90021 0.3884 0.84437 0.0
C1620 C 0.8963 0.35076 0.86338 0.0
C1621 C 0.88288 0.3234 0.86436 0.0
C1622 C 0.85797 0.31503 0.87376 0.0
C1623 C 0.84534 0.28916 0.8746 0.0
C1624 C 0.85761 0.2716 0.86636 0.0
C1625 C 0.88262 0.27993 0.85745 0.0
C1626 C 0.89533 0.30578 0.85659 0.0
C1627 C 0.96626 0.44635 0.95031 0.0
C1628 C 0.98919 0.4408 0.95359 0.0
C1629 C 0.94471 0.42946 0.9306 0.0
C1630 C 0.94695 0.40799 0.91291 0.0
C1631 C 0.96926 0.40158 0.91751 0.0
C1632 C 0.99039 0.41799 0.93798 0.0
C1633 C 0.92699 0.39294 0.88835 0.0
C1634 C 0.91572 0.36642 0.88588 0.0
C1635 C 0.91924 0.40431 0.86755 0.0
C1636 C 0.92987 0.43253 0.86974 0.0
C1637 C 0.95727 0.44635 0.87124 0.0
C1638 C 0.96693 0.47299 0.87342 0.0
C1639 C 0.94935 0.48596 0.87393 0.0
C1640 C 0.9221 0.47237 0.87248 0.0
C1641 C 0.91235 0.44576 0.87032 0.0
H1642 H 0.95681 0.50653 0.87538 0.0
H1643 H 0.84778 0.25157 0.86695 0.0
H1644 H 0.74246 0.79308 0.85568 0.0
H1645 H 0.71977 0.81848 0.88284 0.0
H1646 H 0.72392 0.86086 0.81762 0.0
H1647 H 0.7457 0.83504 0.79001 0.0
H1648 H 0.73971 0.8923 0.87843 0.0
H1649 H 0.66855 0.81841 0.81678 0.0
H1650 H 0.64328 0.77181 0.79799 0.0
H1651 H 0.62746 0.7632 0.88195 0.0
H1652 H 0.65301 0.80973 0.90131 0.0
H1653 H 0.64914 0.95612 0.90444 0.0
H1654 H 0.6744 0.93057 0.88418 0.0
H1655 H 0.64768 0.8803 0.94111 0.0
H1656 H 0.62233 0.9059 0.96157 0.0
H1657 H 0.64458 0.85175 0.88862 0.0
H1658 H 0.71098 0.92154 0.95173 0.0
H1659 H 0.73902 0.96623 0.9764 0.0
H1660 H 0.76711 0.98111 0.89827 0.0
H1661 H 0.73886 0.93657 0.87296 0.0
C1662 C 0.73874 0.80793 0.84719 0.0
C1663 C 0.74606 0.81192 0.82055 0.0
C1664 C 0.72563 0.82242 0.86274 0.0
C1665 C 0.72 0.84173 0.85241 0.0
C1666 C 0.72797 0.8462 0.82622 0.0
C1667 C 0.74044 0.83132 0.81037 0.0
C1668 C 0.70538 0.85693 0.86841 0.0
C1669 C 0.71881 0.88349 0.88029 0.0
C1670 C 0.6784 0.8454 0.8722 0.0
C1671 C 0.66298 0.81748 0.86054 0.0
C1672 C 0.65993 0.80654 0.83128 0.0
C1673 C 0.6455 0.78015 0.82051 0.0
C1674 C 0.63385 0.76454 0.83877 0.0
C1675 C 0.63654 0.77531 0.86784 0.0
C1676 C 0.65098 0.80168 0.87871 0.0
C1677 C 0.64848 0.93959 0.91267 0.0
C1678 C 0.63342 0.9332 0.93472 0.0
C1679 C 0.66321 0.92501 0.90115 0.0
C1680 C 0.66327 0.90334 0.91101 0.0
C1681 C 0.64815 0.89682 0.93294 0.0
C1682 C 0.63371 0.91165 0.9448 0.0
C1683 C 0.67869 0.88744 0.89805 0.0
C1684 C 0.66547 0.8607 0.88679 0.0
C1685 C 0.7061 0.89868 0.89554 0.0
C1686 C 0.72247 0.92578 0.91033 0.0
C1687 C 0.72282 0.93443 0.93968 0.0
C1688 C 0.73884 0.95972 0.95382 0.0
C1689 C 0.75476 0.97653 0.93889 0.0
C1690 C 0.75469 0.96808 0.90978 0.0
C1691 C 0.73868 0.94281 0.89552 0.0
H1692 H 0.76722 0.99608 0.94989 0.0
H1693 H 0.62268 0.74411 0.8304 0.0
H1694 H 0.90028 0.70511 0.18178 0.0
H1695 H 0.92328 0.67723 0.1612 0.0
H1696 H 0.85056 0.62602 0.10648 0.0
H1697 H 0.82743 0.65321 0.12775 0.0
H1698 H 0.87773 0.59967 0.12429 0.0
H1699 H 0.90062 0.67928 0.08756 0.0
H1700 H 0.92073 0.72671 0.09545 0.0
H1701 H 0.995 0.72654 0.13118 0.0
H1702 H 0.97523 0.67918 0.12385 0.0
H1703 H 0.9252 0.53002 0.0243 0.0
H1704 H 0.90322 0.55895 0.04182 0.0
H1705 H 0.97929 0.61885 0.07893 0.0
H1706 H 1.00158 0.59191 0.05684 0.0
H1707 H 0.95129 0.64141 0.07307 0.0
H1708 H 0.93492 0.56716 0.11345 0.0
H1709 H 0.91912 0.52086 0.11347 0.0
H1710 H 0.83971 0.51146 0.08209 0.0
H1711 H 0.85512 0.5576 0.08147 0.0
C1712 C 0.88925 0.68766 0.16565 0.0
C1713 C 0.86228 0.68134 0.15596 0.0
C1714 C 0.90234 0.67184 0.15391 0.0
C1715 C 0.88874 0.64999 0.13179 0.0
C1716 C 0.86143 0.6429 0.1234 0.0
C1717 C 0.84825 0.65841 0.13549 0.0
C1718 C 0.90299 0.6354 0.1157 0.0
C1719 C 0.89379 0.60868 0.11297 0.0
C1720 C 0.92453 0.6474 0.10183 0.0
C1721 C 0.93641 0.67575 0.1053 0.0
C1722 C 0.92122 0.68938 0.09711 0.0
C1723 C 0.93255 0.71625 0.10153 0.0
C1724 C 0.95911 0.72963 0.11383 0.0
C1725 C 0.97444 0.71617 0.12166 0.0
C1726 C 0.96319 0.68933 0.11737 0.0
C1727 C 0.93752 0.54964 0.03503 0.0
C1728 C 0.96543 0.55792 0.0406 0.0
C1729 C 0.92473 0.56607 0.04574 0.0
C1730 C 0.93941 0.59041 0.06364 0.0
C1731 C 0.96725 0.59981 0.06613 0.0
C1732 C 0.98007 0.584 0.05401 0.0
C1733 C 0.92617 0.6053 0.08145 0.0
C1734 C 0.93545 0.63215 0.08448 0.0
C1735 C 0.90549 0.59352 0.09668 0.0
C1736 C 0.89624 0.56577 0.09714 0.0
C1737 C 0.91412 0.55518 0.10642 0.0
C1738 C 0.90524 0.52896 0.10653 0.0
C1739 C 0.87844 0.51322 0.09771 0.0
C1740 C 0.86047 0.52366 0.08884 0.0
C1741 C 0.86926 0.54983 0.0886 0.0
H1742 H 0.8716 0.49294 0.09782 0.0
H1743 H 0.96783 0.75043 0.11728 0.0
H1744 H 0.36133 0.79795 0.23673 0.0
H1745 H 0.39211 0.82012 0.20687 0.0
H1746 H 0.32719 0.82771 0.15811 0.0
H1747 H 0.29643 0.80561 0.18755 0.0
H1748 H 0.36056 0.81494 0.12452 0.0
H1749 H 0.36252 0.87461 0.2084 0.0
H1750 H 0.36725 0.89429 0.25941 0.0
H1751 H 0.44918 0.90259 0.26964 0.0
H1752 H 0.44472 0.8821 0.21887 0.0
H1753 H 0.43669 0.93068 0.07953 0.0
H1754 H 0.4041 0.89445 0.09412 0.0
H1755 H 0.46801 0.883 0.14017 0.0
H1756 H 0.50027 0.91962 0.12668 0.0
H1757 H 0.43396 0.8968 0.17344 0.0
H1758 H 0.42801 0.83752 0.08316 0.0
H1759 H 0.41969 0.82489 0.03073 0.0
H1760 H 0.34044 0.82413 0.0317 0.0
H1761 H 0.34843 0.83717 0.08411 0.0
C1762 C 0.35368 0.80411 0.21942 0.0
C1763 C 0.32675 0.80055 0.21457 0.0
C1764 C 0.37117 0.81668 0.20249 0.0
C1765 C 0.36169 0.82552 0.18062 0.0
C1766 C 0.33465 0.82091 0.17496 0.0
C1767 C 0.31726 0.80859 0.19196 0.0
C1768 C 0.38017 0.84125 0.16481 0.0
C1769 C 0.3767 0.83283 0.13512 0.0
C1770 C 0.40062 0.86478 0.17892 0.0
C1771 C 0.40312 0.87627 0.20983 0.0
C1772 C 0.38141 0.8801 0.2216 0.0
C1773 C 0.38405 0.89149 0.2505 0.0
C1774 C 0.40844 0.89953 0.26782 0.0
C1775 C 0.43023 0.89616 0.25628 0.0
C1776 C 0.42762 0.88459 0.22744 0.0
C1777 C 0.44359 0.9198 0.09202 0.0
C1778 C 0.47055 0.92785 0.10267 0.0
C1779 C 0.42513 0.89917 0.10017 0.0
C1780 C 0.4339 0.8864 0.11828 0.0
C1781 C 0.46109 0.89285 0.12627 0.0
C1782 C 0.47937 0.9137 0.11871 0.0
C1783 C 0.4152 0.86991 0.13328 0.0
C1784 C 0.41828 0.87855 0.16291 0.0
C1785 C 0.39389 0.84718 0.11901 0.0
C1786 C 0.38888 0.83844 0.08756 0.0
C1787 C 0.40885 0.83476 0.07219 0.0
C1788 C 0.40419 0.82753 0.04247 0.0
C1789 C 0.37956 0.82374 0.02789 0.0
C1790 C 0.3595 0.82706 0.04301 0.0
C1791 C 0.36408 0.83433 0.07272 0.0
H1792 H 0.37602 0.81821 0.00488 0.0
H1793 H 0.41049 0.90849 0.29015 0.0
H1794 H 0.73015 0.19386 0.23914 0.0
H1795 H 0.68876 0.16105 0.21393 0.0
H1796 H 0.6835 0.21014 0.15825 0.0
H1797 H 0.72453 0.24413 0.1847 0.0
H1798 H 0.63361 0.15814 0.16132 0.0
H1799 H 0.7307 0.19289 0.13867 0.0
H1800 H 0.77851 0.20908 0.15752 0.0
H1801 H 0.76433 0.14573 0.19798 0.0
H1802 H 0.71645 0.12927 0.17936 0.0
H1803 H 0.59176 0.06747 0.04007 0.0
H1804 H 0.625 0.10968 0.0631 0.0
H1805 H 0.66059 0.0743 0.11644 0.0
H1806 H 0.62757 0.03204 0.09299 0.0
H1807 H 0.69465 0.1211 0.11374 0.0
H1808 H 0.60553 0.07991 0.13204 0.0
H1809 H 0.55661 0.06021 0.12457 0.0
H1810 H 0.55238 0.12894 0.10445 0.0
H1811 H 0.60138 0.1489 0.11136 0.0
C1812 C 0.71946 0.19832 0.22259 0.0
C1813 C 0.73088 0.22076 0.21259 0.0
C1814 C 0.6955 0.17975 0.20864 0.0
C1815 C 0.6842 0.18314 0.18378 0.0
C1816 C 0.6926 0.2074 0.1773 0.0
C1817 C 0.71624 0.22645 0.19188 0.0
C1818 C 0.67388 0.16086 0.16005 0.0
C1819 C 0.64677 0.15018 0.15043 0.0
C1820 C 0.69143 0.1503 0.147 0.0
C1821 C 0.72015 0.16003 0.15782 0.0
C1822 C 0.73786 0.18246 0.15157 0.0
C1823 C 0.76492 0.19166 0.16219 0.0
C1824 C 0.77445 0.17845 0.17895 0.0
C1825 C 0.75693 0.15595 0.18502 0.0
C1826 C 0.72987 0.14667 0.17441 0.0
C1827 C 0.60799 0.06856 0.05503 0.0
C1828 C 0.6073 0.04707 0.06532 0.0
C1829 C 0.62674 0.09264 0.06836 0.0
C1830 C 0.64425 0.09479 0.09197 0.0
C1831 C 0.64681 0.07276 0.09839 0.0
C1832 C 0.62805 0.0487 0.08506 0.0
C1833 C 0.65415 0.11847 0.11413 0.0
C1834 C 0.68136 0.12938 0.12382 0.0
C1835 C 0.63644 0.12844 0.12798 0.0
C1836 C 0.6071 0.11563 0.12147 0.0
C1837 C 0.59419 0.09058 0.12536 0.0
C1838 C 0.56642 0.07943 0.12139 0.0
C1839 C 0.55139 0.09325 0.11382 0.0
C1840 C 0.56406 0.11819 0.11008 0.0
C1841 C 0.59181 0.1294 0.11394 0.0
H1842 H 0.52994 0.08482 0.11111 0.0
H1843 H 0.79538 0.18565 0.18724 0.0
H1844 H 0.75271 0.68556 0.80447 0.0
H1845 H 0.72411 0.65906 0.83202 0.0
H1846 H 0.65908 0.67884 0.80238 0.0
H1847 H 0.68825 0.7067 0.77553 0.0
H1848 H 0.66386 0.68574 0.85743 0.0
H1849 H 0.66081 0.61584 0.78178 0.0
H1850 H 0.67981 0.59094 0.74811 0.0
H1851 H 0.72292 0.57881 0.81781 0.0
H1852 H 0.70441 0.60387 0.85192 0.0
H1853 H 0.56495 0.58409 0.90499 0.0
H1854 H 0.59238 0.60794 0.87379 0.0
H1855 H 0.66322 0.62161 0.93006 0.0
H1856 H 0.63577 0.5985 0.96205 0.0
H1857 H 0.65478 0.59675 0.86159 0.0
H1858 H 0.66114 0.6695 0.93653 0.0
H1859 H 0.64265 0.69458 0.97058 0.0
H1860 H 0.59362 0.70101 0.90163 0.0
H1861 H 0.61153 0.67553 0.86718 0.0
C1862 C 0.7322 0.68401 0.80328 0.0
C1863 C 0.72283 0.69846 0.7879 0.0
C1864 C 0.71576 0.66861 0.819 0.0
C1865 C 0.68933 0.66672 0.81915 0.0
C1866 C 0.67944 0.68003 0.8026 0.0
C1867 C 0.69606 0.69579 0.78709 0.0
C1868 C 0.67296 0.65274 0.83855 0.0
C1869 C 0.66152 0.66611 0.8579 0.0
C1870 C 0.67057 0.62739 0.8399 0.0
C1871 C 0.68132 0.61186 0.81941 0.0
C1872 C 0.67443 0.60795 0.78993 0.0
C1873 C 0.6851 0.5938 0.77077 0.0
C1874 C 0.70259 0.58333 0.78082 0.0
C1875 C 0.70936 0.58691 0.81006 0.0
C1876 C 0.69874 0.60104 0.82932 0.0
C1877 C 0.58636 0.59243 0.91087 0.0
C1878 C 0.59831 0.58962 0.93593 0.0
C1879 C 0.60194 0.60596 0.89304 0.0
C1880 C 0.6297 0.61637 0.89969 0.0
C1881 C 0.64177 0.61365 0.9247 0.0
C1882 C 0.62612 0.60066 0.94297 0.0
C1883 C 0.6459 0.62983 0.88009 0.0
C1884 C 0.65715 0.61632 0.8608 0.0
C1885 C 0.64819 0.65501 0.87876 0.0
C1886 C 0.63736 0.67028 0.89934 0.0
C1887 C 0.64616 0.67596 0.92866 0.0
C1888 C 0.63585 0.69032 0.94803 0.0
C1889 C 0.61688 0.69929 0.93828 0.0
C1890 C 0.60825 0.69398 0.90914 0.0
C1891 C 0.61848 0.67959 0.88969 0.0
H1892 H 0.60893 0.71042 0.95331 0.0
H1893 H 0.71088 0.57242 0.76594 0.0
H1894 H 0.32076 0.6533 0.85114 0.0
H1895 H 0.33358 0.62847 0.88161 0.0
H1896 H 0.41635 0.67226 0.87965 0.0
H1897 H 0.4037 0.69646 0.84914 0.0
H1898 H 0.40732 0.62273 0.87039 0.0
H1899 H 0.38126 0.6846 0.93569 0.0
H1900 H 0.34937 0.7029 0.95523 0.0
H1901 H 0.3012 0.62926 0.9691 0.0
H1902 H 0.33266 0.61046 0.94929 0.0
H1903 H 0.49396 0.63086 0.98164 0.0
H1904 H 0.46204 0.64586 0.96042 0.0
H1905 H 0.39785 0.57544 0.96283 0.0
H1906 H 0.42967 0.56014 0.9837 0.0
H1907 H 0.38769 0.62706 0.96954 0.0
H1908 H 0.41881 0.56721 0.90944 0.0
H1909 H 0.45398 0.55206 0.89354 0.0
H1910 H 0.49423 0.62391 0.87098 0.0
H1911 H 0.45966 0.63973 0.88743 0.0
C1912 C 0.34163 0.65744 0.85727 0.0
C1913 C 0.36128 0.67651 0.84762 0.0
C1914 C 0.3489 0.64334 0.87462 0.0
C1915 C 0.37589 0.64856 0.8828 0.0
C1916 C 0.3954 0.66774 0.87329 0.0
C1917 C 0.38818 0.68153 0.85584 0.0
C1918 C 0.38465 0.63456 0.90139 0.0
C1919 C 0.40278 0.62343 0.89197 0.0
C1920 C 0.37811 0.63479 0.92925 0.0
C1921 C 0.35902 0.64604 0.94054 0.0
C1922 C 0.36369 0.67225 0.94257 0.0
C1923 C 0.34574 0.68272 0.95377 0.0
C1924 C 0.3232 0.66722 0.96326 0.0
C1925 C 0.31859 0.64122 0.96162 0.0
C1926 C 0.33646 0.63064 0.95039 0.0
C1927 C 0.47294 0.61911 0.97886 0.0
C1928 C 0.46423 0.59421 0.98375 0.0
C1929 C 0.45479 0.62766 0.96675 0.0
C1930 C 0.42788 0.61144 0.95974 0.0
C1931 C 0.41864 0.58805 0.96808 0.0
C1932 C 0.43683 0.57933 0.97983 0.0
C1933 C 0.41101 0.61648 0.93876 0.0
C1934 C 0.39136 0.62554 0.94764 0.0
C1935 C 0.4162 0.6145 0.91036 0.0
C1936 C 0.43675 0.60475 0.89995 0.0
C1937 C 0.4353 0.57988 0.90137 0.0
C1938 C 0.45512 0.57116 0.89222 0.0
C1939 C 0.47636 0.58703 0.88131 0.0
C1940 C 0.47779 0.61164 0.87948 0.0
C1941 C 0.45809 0.6205 0.88872 0.0
H1942 H 0.49167 0.58024 0.87422 0.0
H1943 H 0.30936 0.67538 0.97199 0.0
H1944 H 0.35332 0.29182 0.81556 0.0
H1945 H 0.37227 0.31642 0.86404 0.0
H1946 H 0.33224 0.36834 0.85507 0.0
H1947 H 0.31133 0.34248 0.80734 0.0
H1948 H 0.40097 0.3688 0.85542 0.0
H1949 H 0.31717 0.36973 0.9008 0.0
H1950 H 0.2768 0.34313 0.91731 0.0
H1951 H 0.32338 0.31385 0.9656 0.0
H1952 H 0.36397 0.33998 0.94895 0.0
H1953 H 0.47275 0.48527 0.92798 0.0
H1954 H 0.42827 0.45289 0.91075 0.0
H1955 H 0.43849 0.41094 0.97291 0.0
H1956 H 0.48235 0.44429 0.99146 0.0
H1957 H 0.38366 0.39974 0.95271 0.0
H1958 H 0.46512 0.39965 0.91962 0.0
H1959 H 0.50889 0.41923 0.90459 0.0
H1960 H 0.47182 0.43631 0.83425 0.0
H1961 H 0.42787 0.41728 0.84924 0.0
C1962 C 0.34757 0.30776 0.82451 0.0
C1963 C 0.33092 0.31533 0.80807 0.0
C1964 C 0.35801 0.32144 0.85223 0.0
C1965 C 0.35281 0.34352 0.86324 0.0
C1966 C 0.33541 0.35063 0.84724 0.0
C1967 C 0.32432 0.33646 0.8197 0.0
C1968 C 0.37262 0.36355 0.88514 0.0
C1969 C 0.39718 0.37562 0.87668 0.0
C1970 C 0.36773 0.37143 0.91293 0.0
C1971 C 0.34346 0.35655 0.92345 0.0
C1972 C 0.31875 0.35747 0.91476 0.0
C1973 C 0.29585 0.34254 0.9242 0.0
C1974 C 0.29753 0.3268 0.94248 0.0
C1975 C 0.32212 0.32605 0.95146 0.0
C1976 C 0.34505 0.3409 0.94203 0.0
C1977 C 0.46527 0.46944 0.93833 0.0
C1978 C 0.48125 0.46627 0.96001 0.0
C1979 C 0.43972 0.4514 0.92901 0.0
C1980 C 0.4307 0.42946 0.94027 0.0
C1981 C 0.44536 0.42779 0.96402 0.0
C1982 C 0.47061 0.44636 0.97399 0.0
C1983 C 0.41124 0.40586 0.92216 0.0
C1984 C 0.38724 0.39291 0.9314 0.0
C1985 C 0.41691 0.39625 0.89515 0.0
C1986 C 0.44326 0.4073 0.88574 0.0
C1987 C 0.46634 0.40776 0.90108 0.0
C1988 C 0.49117 0.41875 0.89257 0.0
C1989 C 0.49314 0.42907 0.86853 0.0
C1990 C 0.47027 0.42836 0.8529 0.0
C1991 C 0.44539 0.41747 0.8614 0.0
H1992 H 0.51238 0.43757 0.86196 0.0
H1993 H 0.27981 0.31517 0.9497 0.0
H1994 H 0.70964 0.33545 0.90424 0.0
H1995 H 0.6919 0.35577 0.94235 0.0
H1996 H 0.61203 0.30972 0.8999 0.0
H1997 H 0.63002 0.29005 0.86077 0.0
H1998 H 0.62551 0.3576 0.89753 0.0
H1999 H 0.63091 0.31703 0.97412 0.0
H2000 H 0.65168 0.29878 0.0066 0.0
H2001 H 0.71531 0.37236 0.03753 0.0
H2002 H 0.69487 0.39122 0.00539 0.0
H2003 H 0.57503 0.44258 0.96784 0.0
H2004 H 0.58485 0.40368 0.95491 0.0
H2005 H 0.66661 0.44668 0.99326 0.0
H2006 H 0.65647 0.48597 0.00668 0.0
H2007 H 0.65068 0.39856 0.00056 0.0
H2008 H 0.64899 0.43742 0.92292 0.0
H2009 H 0.63191 0.45718 0.88913 0.0
H2010 H 0.5644 0.38645 0.85795 0.0
H2011 H 0.58082 0.36638 0.89193 0.0
C2012 C 0.68825 0.3287 0.90372 0.0
C2013 C 0.6711 0.31184 0.87936 0.0
C2014 C 0.67807 0.34016 0.92577 0.0
C2015 C 0.65063 0.33456 0.92375 0.0
C2016 C 0.6333 0.31443 0.90166 0.0
C2017 C 0.64353 0.30337 0.87925 0.0
C2018 C 0.6416 0.35471 0.93811 0.0
C2019 C 0.6299 0.36575 0.92031 0.0
C2020 C 0.64917 0.36654 0.96745 0.0
C2021 C 0.66137 0.3555 0.98722 0.0
C2022 C 0.64936 0.32934 0.98781 0.0
C2023 C 0.66102 0.31893 0.00626 0.0
C2024 C 0.68473 0.33447 0.02421 0.0
C2025 C 0.6968 0.36047 0.02381 0.0
C2026 C 0.68513 0.37105 0.00556 0.0
C2027 C 0.59499 0.44355 0.97385 0.0
C2028 C 0.6152 0.46697 0.98775 0.0
C2029 C 0.60061 0.42147 0.96634 0.0
C2030 C 0.62658 0.42255 0.97254 0.0
C2031 C 0.64648 0.44561 0.98827 0.0
C2032 C 0.64078 0.4679 0.99586 0.0
C2033 C 0.63298 0.40006 0.96024 0.0
C2034 C 0.64494 0.38931 0.97813 0.0
C2035 C 0.62593 0.38847 0.93083 0.0
C2036 C 0.616 0.40048 0.91024 0.0
C2037 C 0.63038 0.42614 0.90904 0.0
C2038 C 0.62083 0.43739 0.88983 0.0
C2039 C 0.59705 0.42311 0.87147 0.0
C2040 C 0.58279 0.39751 0.87223 0.0
C2041 C 0.59221 0.38619 0.89147 0.0
H2042 H 0.5897 0.43185 0.85659 0.0
H2043 H 0.69379 0.32636 0.0384 0.0
H2044 H 0.72885 0.34192 0.14722 0.0
H2045 H 0.7113 0.3588 0.11085 0.0
H2046 H 0.67134 0.39134 0.17258 0.0
H2047 H 0.68832 0.37446 0.20861 0.0
H2048 H 0.63913 0.3498 0.12169 0.0
H2049 H 0.71475 0.42978 0.1549 0.0
H2050 H 0.76191 0.45862 0.16366 0.0
H2051 H 0.76566 0.4428 0.074 0.0
H2052 H 0.71852 0.41359 0.06474 0.0
H2053 H 0.59292 0.44584 0.1035 0.0
H2054 H 0.6222 0.42483 0.11681 0.0
H2055 H 0.61755 0.38858 0.02889 0.0
H2056 H 0.58846 0.40989 0.01506 0.0
H2057 H 0.67485 0.42385 0.07684 0.0
H2058 H 0.59345 0.34748 0.04645 0.0
H2059 H 0.54501 0.32473 0.04319 0.0
H2060 H 0.55174 0.34052 0.1343 0.0
H2061 H 0.60014 0.36387 0.13811 0.0
C2062 C 0.71688 0.35324 0.1531 0.0
C2063 C 0.70971 0.35666 0.18059 0.0
C2064 C 0.70705 0.36294 0.13243 0.0
C2065 C 0.69003 0.37607 0.13924 0.0
C2066 C 0.68458 0.38124 0.16717 0.0
C2067 C 0.69443 0.37171 0.18774 0.0
C2068 C 0.67424 0.38086 0.11692 0.0
C2069 C 0.64698 0.36572 0.11145 0.0
C2070 C 0.6848 0.40138 0.10344 0.0
C2071 C 0.71332 0.41857 0.10918 0.0
C2072 C 0.72576 0.43185 0.13709 0.0
C2073 C 0.75246 0.4485 0.14214 0.0
C2074 C 0.76688 0.45231 0.11943 0.0
C2075 C 0.75456 0.43962 0.0916 0.0
C2076 C 0.72786 0.42295 0.08645 0.0
C2077 C 0.59865 0.43404 0.08677 0.0
C2078 C 0.58923 0.43048 0.05797 0.0
C2079 C 0.61516 0.42188 0.09449 0.0
C2080 C 0.62239 0.40584 0.07362 0.0
C2081 C 0.61273 0.40164 0.04499 0.0
C2082 C 0.59608 0.41377 0.03722 0.0
C2083 C 0.6398 0.39341 0.08264 0.0
C2084 C 0.6673 0.40707 0.08581 0.0
C2085 C 0.62948 0.37199 0.09475 0.0
C2086 C 0.60041 0.3576 0.09253 0.0
C2087 C 0.58457 0.34633 0.06579 0.0
C2088 C 0.55711 0.33329 0.06384 0.0
C2089 C 0.5453 0.33122 0.08852 0.0
C2090 C 0.56092 0.34215 0.1152 0.0
C2091 C 0.58836 0.35527 0.11726 0.0
H2092 H 0.52405 0.32111 0.08697 0.0
H2093 H 0.78753 0.46527 0.12338 0.0
H2094 H 0.73613 0.73049 0.19932 0.0
H2095 H 0.71174 0.70138 0.15447 0.0
H2096 H 0.67983 0.64023 0.19831 0.0
H2097 H 0.70707 0.66902 0.24297 0.0
H2098 H 0.69312 0.62227 0.15026 0.0
H2099 H 0.64439 0.67842 0.17991 0.0
H2100 H 0.64069 0.72093 0.1942 0.0
H2101 H 0.66492 0.73866 0.11559 0.0
H2102 H 0.66892 0.69628 0.10095 0.0
H2103 H 0.56261 0.55288 0.11102 0.0
H2104 H 0.60684 0.58485 0.13026 0.0
H2105 H 0.61706 0.60336 0.04842 0.0
H2106 H 0.57284 0.5712 0.02889 0.0
H2107 H 0.6271 0.64543 0.09757 0.0
H2108 H 0.65704 0.57715 0.06529 0.0
H2109 H 0.65429 0.5321 0.05564 0.0
H2110 H 0.65709 0.53387 0.14481 0.0
H2111 H 0.6602 0.57902 0.15508 0.0
C2112 C 0.72396 0.71075 0.19916 0.0
C2113 C 0.72317 0.70158 0.22398 0.0
C2114 C 0.71004 0.69427 0.17372 0.0
C2115 C 0.69396 0.66886 0.17326 0.0
C2116 C 0.69244 0.65986 0.19841 0.0
C2117 C 0.7074 0.6762 0.22381 0.0
C2118 C 0.67779 0.65188 0.1468 0.0
C2119 C 0.67875 0.62728 0.13856 0.0
C2120 C 0.66006 0.6591 0.13093 0.0
C2121 C 0.65724 0.68437 0.1395 0.0
C2122 C 0.64902 0.69145 0.16575 0.0
C2123 C 0.64686 0.71549 0.17389 0.0
C2124 C 0.65265 0.73252 0.15585 0.0
C2125 C 0.66048 0.72547 0.12956 0.0
C2126 C 0.66267 0.70144 0.12131 0.0
C2127 C 0.57412 0.5639 0.09718 0.0
C2128 C 0.56435 0.55973 0.0685 0.0
C2129 C 0.59944 0.58175 0.10801 0.0
C2130 C 0.61513 0.59556 0.09028 0.0
C2131 C 0.60517 0.5923 0.062 0.0
C2132 C 0.57985 0.57432 0.05111 0.0
C2133 C 0.64086 0.61526 0.10287 0.0
C2134 C 0.64228 0.64074 0.10832 0.0
C2135 C 0.66005 0.60855 0.11684 0.0
C2136 C 0.65898 0.58157 0.11094 0.0
C2137 C 0.6571 0.56795 0.08285 0.0
C2138 C 0.65544 0.54237 0.07727 0.0
C2139 C 0.65534 0.53006 0.09957 0.0
C2140 C 0.6572 0.54342 0.12755 0.0
C2141 C 0.65911 0.56908 0.13328 0.0
H2142 H 0.65386 0.5102 0.09516 0.0
H2143 H 0.65099 0.75113 0.16221 0.0
H2144 H 0.39934 0.68491 0.21305 0.0
H2145 H 0.42411 0.66672 0.18114 0.0
H2146 H 0.40432 0.70259 0.11684 0.0
H2147 H 0.37846 0.71998 0.14861 0.0
H2148 H 0.3826 0.65287 0.10002 0.0
H2149 H 0.47161 0.71089 0.13959 0.0
H2150 H 0.50896 0.73726 0.17779 0.0
H2151 H 0.50617 0.66925 0.20529 0.0
H2152 H 0.46868 0.6425 0.16744 0.0
H2153 H 0.46591 0.5742 0.03645 0.0
H2154 H 0.45931 0.61412 0.05475 0.0
H2155 H 0.39155 0.57179 0.09098 0.0
H2156 H 0.39702 0.53132 0.07038 0.0
H2157 H 0.46285 0.63159 0.113 0.0
H2158 H 0.35411 0.59324 0.09281 0.0
H2159 H 0.3164 0.56449 0.05584 0.0
H2160 H 0.35985 0.59428 0.99118 0.0
H2161 H 0.39804 0.6229 0.0278 0.0
C2162 C 0.40142 0.68998 0.19265 0.0
C2163 C 0.38671 0.7033 0.1829 0.0
C2164 C 0.41574 0.67969 0.17441 0.0
C2165 C 0.41584 0.68309 0.14646 0.0
C2166 C 0.4043 0.69961 0.13826 0.0
C2167 C 0.38958 0.70952 0.15634 0.0
C2168 C 0.42144 0.66446 0.12453 0.0
C2169 C 0.40057 0.64881 0.10249 0.0
C2170 C 0.44453 0.65867 0.12796 0.0
C2171 C 0.46729 0.67469 0.15063 0.0
C2172 C 0.47889 0.70157 0.15384 0.0
C2173 C 0.50011 0.71658 0.17543 0.0
C2174 C 0.50993 0.70494 0.19395 0.0
C2175 C 0.49859 0.67824 0.19089 0.0
C2176 C 0.47741 0.66314 0.1693 0.0
C2177 C 0.44861 0.57325 0.04659 0.0
C2178 C 0.43129 0.5497 0.0508 0.0
C2179 C 0.44519 0.59608 0.0576 0.0
C2180 C 0.42473 0.59577 0.07375 0.0
C2181 C 0.40698 0.57222 0.07775 0.0
C2182 C 0.41017 0.54922 0.06619 0.0
C2183 C 0.42398 0.62029 0.08925 0.0
C2184 C 0.44553 0.63662 0.11007 0.0
C2185 C 0.40161 0.62676 0.08492 0.0
C2186 C 0.37872 0.61017 0.06293 0.0
C2187 C 0.35549 0.59373 0.07069 0.0
C2188 C 0.33415 0.57739 0.04982 0.0
C2189 C 0.33573 0.57767 0.02119 0.0
C2190 C 0.35872 0.59416 0.01337 0.0
C2191 C 0.38025 0.61032 0.03414 0.0
H2192 H 0.31916 0.56506 0.00506 0.0
H2193 H 0.52633 0.7166 0.21068 0.0
H2194 H 0.36243 0.31905 0.24697 0.0
H2195 H 0.389 0.34598 0.21815 0.0
H2196 H 0.31973 0.3577 0.18491 0.0
H2197 H 0.29263 0.32958 0.21288 0.0
H2198 H 0.34328 0.34518 0.14362 0.0
H2199 H 0.3749 0.40708 0.23327 0.0
H2200 H 0.39365 0.4231 0.2841 0.0
H2201 H 0.46438 0.40946 0.26583 0.0
H2202 H 0.44594 0.39304 0.21495 0.0
H2203 H 0.41788 0.43156 0.06482 0.0
H2204 H 0.38961 0.41139 0.0976 0.0
H2205 H 0.45565 0.39922 0.1384 0.0
H2206 H 0.48443 0.42144 0.10703 0.0
H2207 H 0.43208 0.41481 0.17689 0.0
H2208 H 0.39892 0.34917 0.08849 0.0
H2209 H 0.38063 0.33327 0.03749 0.0
H2210 H 0.31312 0.35361 0.05381 0.0
H2211 H 0.33116 0.36989 0.10484 0.0
C2212 C 0.35288 0.32766 0.23387 0.0
C2213 C 0.3254 0.32215 0.23215 0.0
C2214 C 0.36819 0.34325 0.21751 0.0
C2215 C 0.35652 0.35425 0.19962 0.0
C2216 C 0.32921 0.34946 0.19859 0.0
C2217 C 0.31374 0.33343 0.2146 0.0
C2218 C 0.37231 0.36872 0.18018 0.0
C2219 C 0.3625 0.36074 0.15101 0.0
C2220 C 0.39772 0.38857 0.18965 0.0
C2221 C 0.40893 0.39867 0.22028 0.0
C2222 C 0.39438 0.40735 0.2401 0.0
C2223 C 0.40497 0.41653 0.26893 0.0
C2224 C 0.43017 0.41726 0.2782 0.0
C2225 C 0.44487 0.40888 0.25863 0.0
C2226 C 0.43437 0.39968 0.22979 0.0
C2227 C 0.42612 0.42407 0.08045 0.0
C2228 C 0.45308 0.42749 0.08318 0.0
C2229 C 0.40998 0.41254 0.0992 0.0
C2230 C 0.42025 0.40321 0.12019 0.0
C2231 C 0.44718 0.4062 0.12242 0.0
C2232 C 0.46355 0.41859 0.10434 0.0
C2233 C 0.40323 0.39092 0.1403 0.0
C2234 C 0.4128 0.39934 0.16957 0.0
C2235 C 0.37765 0.37136 0.13096 0.0
C2236 C 0.36648 0.3609 0.10042 0.0
C2237 C 0.38021 0.35029 0.08117 0.0
C2238 C 0.3699 0.34123 0.05227 0.0
C2239 C 0.34576 0.34249 0.04242 0.0
C2240 C 0.33182 0.35267 0.06147 0.0
C2241 C 0.34205 0.36178 0.09038 0.0
H2242 H 0.33785 0.33554 0.02003 0.0
H2243 H 0.43832 0.42435 0.30052 0.0
H2244 H 0.81301 0.69252 0.74788 0.0
H2245 H 0.83434 0.66665 0.7204 0.0
H2246 H 0.8285 0.7014 0.65003 0.0
H2247 H 0.80572 0.72667 0.67734 0.0
H2248 H 0.8224 0.65392 0.6286 0.0
H2249 H 0.88935 0.71974 0.69882 0.0
H2250 H 0.90987 0.74654 0.74692 0.0
H2251 H 0.90779 0.67913 0.77536 0.0
H2252 H 0.88701 0.65188 0.72747 0.0
H2253 H 0.9194 0.6089 0.56448 0.0
H2254 H 0.89454 0.63451 0.58572 0.0
H2255 H 0.89321 0.60304 0.65986 0.0
H2256 H 0.91819 0.57764 0.6389 0.0
H2257 H 0.90436 0.65172 0.67714 0.0
H2258 H 0.83616 0.58611 0.60415 0.0
H2259 H 0.81623 0.56144 0.5551 0.0
H2260 H 0.82299 0.63156 0.53027 0.0
H2261 H 0.8432 0.65667 0.5791 0.0
C2262 C 0.81604 0.69464 0.72647 0.0
C2263 C 0.8077 0.71199 0.71506 0.0
C2264 C 0.82858 0.67987 0.71072 0.0
C2265 C 0.83411 0.6824 0.68318 0.0
C2266 C 0.82488 0.69902 0.67122 0.0
C2267 C 0.81176 0.71353 0.68689 0.0
C2268 C 0.84986 0.66804 0.66752 0.0
C2269 C 0.84052 0.65379 0.63918 0.0
C2270 C 0.87361 0.66742 0.68091 0.0
C2271 C 0.88645 0.68376 0.70962 0.0
C2272 C 0.89317 0.71062 0.71536 0.0
C2273 C 0.90486 0.72589 0.74258 0.0
C2274 C 0.91008 0.71454 0.76419 0.0
C2275 C 0.90373 0.68789 0.7586 0.0
C2276 C 0.89204 0.67253 0.73141 0.0
C2277 C 0.91365 0.60717 0.58521 0.0
C2278 C 0.92118 0.59104 0.59983 0.0
C2279 C 0.89923 0.6219 0.59741 0.0
C2280 C 0.89144 0.62079 0.62453 0.0
C2281 C 0.89885 0.6046 0.63904 0.0
C2282 C 0.91339 0.59003 0.62697 0.0
C2283 C 0.87658 0.63699 0.63844 0.0
C2284 C 0.88622 0.65178 0.6665 0.0
C2285 C 0.85342 0.63838 0.62457 0.0
C2286 C 0.84145 0.62328 0.5952 0.0
C2287 C 0.83359 0.59628 0.58817 0.0
C2288 C 0.8222 0.58221 0.56042 0.0
C2289 C 0.81842 0.59493 0.53956 0.0
C2290 C 0.82597 0.62174 0.54643 0.0
C2291 C 0.83737 0.63589 0.57414 0.0
H2292 H 0.80958 0.58401 0.5181 0.0
H2293 H 0.9191 0.72638 0.78526 0.0
H2294 H 0.28483 0.82405 0.70934 0.0
H2295 H 0.31189 0.85424 0.68306 0.0
H2296 H 0.38179 0.84285 0.71477 0.0
H2297 H 0.35476 0.81208 0.7403 0.0
H2298 H 0.38421 0.89739 0.71978 0.0
H2299 H 0.36395 0.81559 0.65486 0.0
H2300 H 0.33476 0.7726 0.62634 0.0
H2301 H 0.29268 0.80726 0.58008 0.0
H2302 H 0.32136 0.85048 0.60871 0.0
H2303 H 0.47435 0.96184 0.63725 0.0
H2304 H 0.44802 0.92897 0.66036 0.0
H2305 H 0.37653 0.92133 0.60891 0.0
H2306 H 0.40317 0.95351 0.58459 0.0
H2307 H 0.37488 0.87582 0.61431 0.0
H2308 H 0.396 0.95829 0.67965 0.0
H2309 H 0.42582 0.00101 0.70837 0.0
H2310 H 0.4668 0.96515 0.7542 0.0
H2311 H 0.43742 0.92223 0.72553 0.0
C2312 C 0.30597 0.8281 0.71069 0.0
C2313 C 0.31783 0.81582 0.7266 0.0
C2314 C 0.32129 0.84516 0.69567 0.0
C2315 C 0.34864 0.85046 0.69701 0.0
C2316 C 0.36064 0.83876 0.71351 0.0
C2317 C 0.34524 0.82124 0.72793 0.0
C2318 C 0.36479 0.86845 0.6813 0.0
C2319 C 0.38245 0.8927 0.69674 0.0
C2320 C 0.36196 0.86218 0.65131 0.0
C2321 C 0.34453 0.83623 0.63423 0.0
C2322 C 0.34824 0.81403 0.63888 0.0
C2323 C 0.33184 0.78962 0.62263 0.0
C2324 C 0.3118 0.78719 0.60149 0.0
C2325 C 0.30816 0.80917 0.59652 0.0
C2326 C 0.32448 0.83363 0.61275 0.0
C2327 C 0.45301 0.95314 0.63087 0.0
C2328 C 0.44062 0.96044 0.60959 0.0
C2329 C 0.438 0.93444 0.64413 0.0
C2330 C 0.41028 0.92332 0.63694 0.0
C2331 C 0.39792 0.92993 0.61494 0.0
C2332 C 0.41306 0.9483 0.60117 0.0
C2333 C 0.39425 0.90509 0.65272 0.0
C2334 C 0.37661 0.8807 0.63733 0.0
C2335 C 0.39712 0.91126 0.68284 0.0
C2336 C 0.41462 0.93706 0.70031 0.0
C2337 C 0.41146 0.95953 0.69576 0.0
C2338 C 0.42827 0.98378 0.71204 0.0
C2339 C 0.44822 0.9858 0.73306 0.0
C2340 C 0.45135 0.96356 0.73791 0.0
C2341 C 0.4346 0.93927 0.72168 0.0
H2342 H 0.46122 0.00459 0.74563 0.0
H2343 H 0.29915 0.76828 0.5889 0.0
H2344 H 0.2101 0.35346 0.62192 0.0
H2345 H 0.18457 0.37661 0.60442 0.0
H2346 H 0.14134 0.3706 0.67599 0.0
H2347 H 0.16717 0.34798 0.69406 0.0
H2348 H 0.10794 0.35845 0.62655 0.0
H2349 H 0.19164 0.428 0.67145 0.0
H2350 H 0.24033 0.45087 0.67818 0.0
H2351 H 0.23674 0.45549 0.59069 0.0
H2352 H 0.18806 0.43239 0.58336 0.0
H2353 H 0.0455 0.44764 0.62026 0.0
H2354 H 0.07205 0.42374 0.63356 0.0
H2355 H 0.11738 0.44038 0.56501 0.0
H2356 H 0.09143 0.46504 0.55214 0.0
H2357 H 0.15017 0.44595 0.60925 0.0
H2358 H 0.07063 0.37963 0.56165 0.0
H2359 H 0.02271 0.35366 0.54839 0.0
H2360 H 0.01848 0.339 0.63194 0.0
H2361 H 0.06635 0.36526 0.64589 0.0
C2362 C 0.19549 0.35735 0.6343 0.0
C2363 C 0.19098 0.34874 0.65964 0.0
C2364 C 0.18075 0.37058 0.62411 0.0
C2365 C 0.16105 0.37566 0.63892 0.0
C2366 C 0.15633 0.36695 0.66404 0.0
C2367 C 0.17113 0.35383 0.67432 0.0
C2368 C 0.14508 0.38971 0.62822 0.0
C2369 C 0.11718 0.37777 0.62323 0.0
C2370 C 0.157 0.41441 0.62236 0.0
C2371 C 0.18625 0.42826 0.62681 0.0
C2372 C 0.20126 0.43372 0.65361 0.0
C2373 C 0.22885 0.44676 0.65753 0.0
C2374 C 0.24163 0.45457 0.63486 0.0
C2375 C 0.22683 0.44941 0.60822 0.0
C2376 C 0.19925 0.43636 0.60418 0.0
C2377 C 0.0613 0.44653 0.60815 0.0
C2378 C 0.06625 0.4585 0.58512 0.0
C2379 C 0.07632 0.43249 0.61559 0.0
C2380 C 0.0967 0.42986 0.60018 0.0
C2381 C 0.10183 0.44196 0.57731 0.0
C2382 C 0.08677 0.45597 0.56981 0.0
C2383 C 0.11291 0.41498 0.6083 0.0
C2384 C 0.14084 0.42668 0.61266 0.0
C2385 C 0.10105 0.38974 0.61279 0.0
C2386 C 0.07205 0.37466 0.60492 0.0
C2387 C 0.05943 0.37115 0.57733 0.0
C2388 C 0.03229 0.35631 0.56966 0.0
C2389 C 0.01757 0.34469 0.5893 0.0
C2390 C 0.02993 0.34799 0.61673 0.0
C2391 C 0.05707 0.36288 0.62455 0.0
H2392 H 0.9966 0.33306 0.58323 0.0
H2393 H 0.26298 0.46467 0.63795 0.0
H2394 H 0.77062 0.21341 0.68248 0.0
H2395 H 0.74951 0.16871 0.65508 0.0
H2396 H 0.68083 0.16001 0.69852 0.0
H2397 H 0.70187 0.2038 0.72618 0.0
H2398 H 0.68035 0.11401 0.67202 0.0
H2399 H 0.68552 0.19911 0.64861 0.0
H2400 H 0.71479 0.2428 0.6458 0.0
H2401 H 0.76119 0.21041 0.5935 0.0
H2402 H 0.73217 0.16651 0.59621 0.0
H2403 H 0.5582 0.10638 0.624 0.0
H2404 H 0.60552 0.13217 0.64014 0.0
H2405 H 0.62512 0.09551 0.56257 0.0
H2406 H 0.57808 0.07109 0.54582 0.0
H2407 H 0.66049 0.15028 0.59186 0.0
H2408 H 0.62677 0.05887 0.61677 0.0
H2409 H 0.59017 0.02828 0.63508 0.0
H2410 H 0.58882 0.09024 0.70027 0.0
H2411 H 0.62683 0.12094 0.68412 0.0
C2412 C 0.75128 0.20157 0.68656 0.0
C2413 C 0.73694 0.21223 0.70486 0.0
C2414 C 0.73963 0.17597 0.6715 0.0
C2415 C 0.71332 0.16165 0.674 0.0
C2416 C 0.70104 0.17099 0.69586 0.0
C2417 C 0.71265 0.19635 0.71096 0.0
C2418 C 0.6953 0.14368 0.64899 0.0
C2419 C 0.67654 0.12104 0.65355 0.0
C2420 C 0.69001 0.15369 0.62559 0.0
C2421 C 0.70679 0.17969 0.62258 0.0
C2422 C 0.70185 0.20137 0.63632 0.0
C2423 C 0.71843 0.22613 0.63486 0.0
C2424 C 0.73984 0.22937 0.61946 0.0
C2425 C 0.74461 0.20784 0.6054 0.0
C2426 C 0.72811 0.18302 0.60687 0.0
C2427 C 0.57263 0.10476 0.61003 0.0
C2428 C 0.56503 0.08648 0.58409 0.0
C2429 C 0.59943 0.11927 0.6192 0.0
C2430 C 0.61831 0.1145 0.60289 0.0
C2431 C 0.61055 0.09889 0.57543 0.0
C2432 C 0.58378 0.08505 0.56592 0.0
C2433 C 0.64542 0.12194 0.61631 0.0
C2434 C 0.66531 0.14186 0.6087 0.0
C2435 C 0.651 0.11091 0.63844 0.0
C2436 C 0.62957 0.09208 0.64925 0.0
C2437 C 0.61891 0.06587 0.63526 0.0
C2438 C 0.59801 0.04856 0.64528 0.0
C2439 C 0.58713 0.05737 0.66859 0.0
C2440 C 0.59752 0.08346 0.68245 0.0
C2441 C 0.61898 0.10072 0.67319 0.0
H2442 H 0.57068 0.04397 0.67594 0.0
H2443 H 0.75272 0.24857 0.61843 0.0
H2444 H 0.81159 0.33805 0.31932 0.0
H2445 H 0.85559 0.36948 0.3352 0.0
H2446 H 0.88414 0.30943 0.34596 0.0
H2447 H 0.83851 0.27838 0.33475 0.0
H2448 H 0.88741 0.33578 0.39265 0.0
H2449 H 0.91838 0.36232 0.31134 0.0
H2450 H 0.91427 0.3709 0.26367 0.0
H2451 H 0.89087 0.43397 0.29746 0.0
H2452 H 0.89415 0.42553 0.34513 0.0
H2453 H 0.97043 0.45487 0.48934 0.0
H2454 H 0.947 0.41168 0.46004 0.0
H2455 H 0.89227 0.43836 0.41935 0.0
H2456 H 0.91712 0.48209 0.44743 0.0
H2457 H 0.92415 0.42636 0.38389 0.0
H2458 H 0.8726 0.38751 0.45315 0.0
H2459 H 0.86735 0.3764 0.49972 0.0
H2460 H 0.91961 0.33506 0.48539 0.0
H2461 H 0.92553 0.34631 0.43891 0.0
C2462 C 0.82726 0.33144 0.32475 0.0
C2463 C 0.82176 0.30584 0.32626 0.0
C2464 C 0.85288 0.34941 0.33278 0.0
C2465 C 0.87348 0.34191 0.34183 0.0
C2466 C 0.86856 0.31563 0.3391 0.0
C2467 C 0.84257 0.2979 0.33274 0.0
C2468 C 0.89517 0.36105 0.36332 0.0
C2469 C 0.89626 0.35548 0.39037 0.0
C2470 C 0.90688 0.38678 0.36057 0.0
C2471 C 0.9069 0.3934 0.33216 0.0
C2472 C 0.91252 0.37814 0.30873 0.0
C2473 C 0.9102 0.38291 0.28161 0.0
C2474 C 0.90242 0.40302 0.27756 0.0
C2475 C 0.89707 0.4185 0.30065 0.0
C2476 C 0.89929 0.41379 0.3278 0.0
C2477 C 0.95226 0.45105 0.47558 0.0
C2478 C 0.94578 0.47139 0.46958 0.0
C2479 C 0.93904 0.42642 0.45863 0.0
C2480 C 0.91869 0.42234 0.4369 0.0
C2481 C 0.90851 0.4416 0.43562 0.0
C2482 C 0.92229 0.46638 0.45196 0.0
C2483 C 0.91224 0.40074 0.41225 0.0
C2484 C 0.91566 0.40641 0.38542 0.0
C2485 C 0.90368 0.37509 0.41496 0.0
C2486 C 0.89983 0.36807 0.44275 0.0
C2487 C 0.88317 0.37625 0.46004 0.0
C2488 C 0.88004 0.3699 0.48641 0.0
C2489 C 0.89324 0.35514 0.49557 0.0
C2490 C 0.90948 0.34657 0.47831 0.0
C2491 C 0.91272 0.35293 0.45196 0.0
H2492 H 0.89083 0.35027 0.516 0.0
H2493 H 0.90045 0.40654 0.25652 0.0
H2494 H 0.66655 0.82881 0.33979 0.0
H2495 H 0.64168 0.8564 0.35559 0.0
H2496 H 0.69603 0.8905 0.43409 0.0
H2497 H 0.72158 0.8639 0.4179 0.0
H2498 H 0.6226 0.85651 0.41625 0.0
H2499 H 0.71208 0.93191 0.42076 0.0
H2500 H 0.7467 0.95386 0.39382 0.0
H2501 H 0.68672 0.9545 0.33222 0.0
H2502 H 0.65171 0.93186 0.35842 0.0
H2503 H 0.59205 0.94895 0.51537 0.0
H2504 H 0.60976 0.91895 0.48765 0.0
H2505 H 0.60392 0.95108 0.41486 0.0
H2506 H 0.58726 0.98124 0.44263 0.0
H2507 H 0.64956 0.95018 0.42156 0.0
H2508 H 0.56385 0.89178 0.4176 0.0
H2509 H 0.52113 0.86442 0.42893 0.0
H2510 H 0.5605 0.82475 0.47058 0.0
H2511 H 0.60373 0.8528 0.46093 0.0
C2512 C 0.67337 0.8426 0.36017 0.0
C2513 C 0.69596 0.84455 0.37763 0.0
C2514 C 0.65927 0.85826 0.36907 0.0
C2515 C 0.66748 0.87568 0.39567 0.0
C2516 C 0.68999 0.87763 0.41313 0.0
C2517 C 0.70442 0.86242 0.40398 0.0
C2518 C 0.65116 0.89006 0.40671 0.0
C2519 C 0.62844 0.87708 0.41792 0.0
C2520 C 0.65811 0.91632 0.4068 0.0
C2521 C 0.6793 0.92977 0.39124 0.0
C2522 C 0.70626 0.93631 0.40122 0.0
C2523 C 0.72596 0.94899 0.38615 0.0
C2524 C 0.71892 0.95555 0.36131 0.0
C2525 C 0.69215 0.94939 0.35145 0.0
C2526 C 0.67239 0.93656 0.36634 0.0
C2527 C 0.59456 0.94934 0.49342 0.0
C2528 C 0.58895 0.96749 0.48107 0.0
C2529 C 0.60442 0.93219 0.47757 0.0
C2530 C 0.60827 0.93292 0.44921 0.0
C2531 C 0.60145 0.9504 0.43675 0.0
C2532 C 0.59199 0.9676 0.45258 0.0
C2533 C 0.62139 0.91707 0.43309 0.0
C2534 C 0.64346 0.92967 0.42047 0.0
C2535 C 0.61293 0.89011 0.43055 0.0
C2536 C 0.58726 0.87475 0.43883 0.0
C2537 C 0.5636 0.87773 0.42985 0.0
C2538 C 0.53922 0.86201 0.43591 0.0
C2539 C 0.5381 0.84286 0.45047 0.0
C2540 C 0.5614 0.83958 0.45928 0.0
C2541 C 0.58589 0.85556 0.45376 0.0
H2542 H 0.51917 0.83055 0.45489 0.0
H2543 H 0.73419 0.96541 0.34972 0.0
H2544 H 0.2556 0.73831 0.35105 0.0
H2545 H 0.22723 0.71345 0.38092 0.0
H2546 H 0.15929 0.69074 0.31624 0.0
H2547 H 0.18748 0.71687 0.2873 0.0
H2548 H 0.14482 0.69944 0.3651 0.0
H2549 H 0.1945 0.65132 0.32221 0.0
H2550 H 0.23406 0.64239 0.30939 0.0
H2551 H 0.26239 0.6544 0.39774 0.0
H2552 H 0.2231 0.66369 0.41109 0.0
H2553 H 0.06511 0.57513 0.37058 0.0
H2554 H 0.09921 0.61139 0.35886 0.0
H2555 H 0.13787 0.63706 0.44586 0.0
H2556 H 0.10343 0.60056 0.45809 0.0
H2557 H 0.17006 0.63187 0.3959 0.0
H2558 H 0.10871 0.67118 0.4327 0.0
H2559 H 0.0632 0.67023 0.43551 0.0
H2560 H 0.05099 0.6644 0.3456 0.0
H2561 H 0.0963 0.66499 0.3422 0.0
C2562 C 0.23448 0.72833 0.34371 0.0
C2563 C 0.22333 0.72929 0.31733 0.0
C2564 C 0.21842 0.7141 0.36053 0.0
C2565 C 0.19134 0.70005 0.35053 0.0
C2566 C 0.18015 0.70162 0.32435 0.0
C2567 C 0.1961 0.71641 0.30788 0.0
C2568 C 0.17477 0.6828 0.36668 0.0
C2569 C 0.15043 0.68478 0.37197 0.0
C2570 C 0.1822 0.66371 0.37559 0.0
C2571 C 0.2061 0.65862 0.36767 0.0
C2572 C 0.20932 0.65235 0.33891 0.0
C2573 C 0.23165 0.64715 0.33155 0.0
C2574 C 0.25079 0.64794 0.35274 0.0
C2575 C 0.2476 0.65388 0.38135 0.0
C2576 C 0.2253 0.65911 0.38883 0.0
C2577 C 0.08085 0.5884 0.38727 0.0
C2578 C 0.08169 0.5852 0.41526 0.0
C2579 C 0.1002 0.60906 0.38054 0.0
C2580 C 0.12059 0.62672 0.40166 0.0
C2581 C 0.12198 0.62346 0.42951 0.0
C2582 C 0.10239 0.60278 0.43639 0.0
C2583 C 0.1403 0.64852 0.39392 0.0
C2584 C 0.1651 0.64727 0.39001 0.0
C2585 C 0.13278 0.66744 0.385 0.0
C2586 C 0.10592 0.66817 0.38724 0.0
C2587 C 0.0963 0.66967 0.41354 0.0
C2588 C 0.07053 0.66918 0.41523 0.0
C2589 C 0.05421 0.66727 0.39076 0.0
C2590 C 0.06367 0.66594 0.36455 0.0
C2591 C 0.08942 0.66644 0.36275 0.0
H2592 H 0.03424 0.6668 0.3921 0.0
H2593 H 0.26804 0.64387 0.347 0.0
H2594 H 0.33546 0.19247 0.37777 0.0
H2595 H 0.34941 0.16468 0.40236 0.0
H2596 H 0.39279 0.23031 0.47148 0.0
H2597 H 0.37994 0.25836 0.44652 0.0
H2598 H 0.42323 0.2049 0.44982 0.0
H2599 H 0.3346 0.18021 0.47976 0.0
H2600 H 0.28554 0.16269 0.47119 0.0
H2601 H 0.2853 0.09288 0.41786 0.0
H2602 H 0.33435 0.1099 0.42636 0.0
H2603 H 0.47447 0.1442 0.53323 0.0
H2604 H 0.44603 0.16679 0.52171 0.0
H2605 H 0.39692 0.0995 0.45711 0.0
H2606 H 0.42406 0.07613 0.46995 0.0
H2607 H 0.36794 0.12488 0.47675 0.0
H2608 H 0.45067 0.14479 0.44127 0.0
H2609 H 0.49925 0.15783 0.44331 0.0
H2610 H 0.51077 0.23204 0.49565 0.0
H2611 H 0.46222 0.21927 0.49433 0.0
C2612 C 0.34789 0.20094 0.39827 0.0
C2613 C 0.35685 0.22765 0.41011 0.0
C2614 C 0.3555 0.18498 0.41246 0.0
C2615 C 0.37194 0.19547 0.43881 0.0
C2616 C 0.37997 0.22189 0.4512 0.0
C2617 C 0.3725 0.23786 0.43699 0.0
C2618 C 0.38338 0.17971 0.45201 0.0
C2619 C 0.41116 0.18772 0.45631 0.0
C2620 C 0.36753 0.15648 0.45878 0.0
C2621 C 0.3381 0.14641 0.45354 0.0
C2622 C 0.32407 0.16119 0.4661 0.0
C2623 C 0.29627 0.1513 0.46133 0.0
C2624 C 0.28231 0.12673 0.44389 0.0
C2625 C 0.29612 0.11191 0.43134 0.0
C2626 C 0.32391 0.12162 0.43624 0.0
C2627 C 0.45701 0.13385 0.51739 0.0
C2628 C 0.45192 0.10867 0.50184 0.0
C2629 C 0.44092 0.14686 0.51066 0.0
C2630 C 0.42004 0.13507 0.48788 0.0
C2631 C 0.41321 0.10905 0.47447 0.0
C2632 C 0.42894 0.09586 0.48158 0.0
C2633 C 0.40777 0.15067 0.47553 0.0
C2634 C 0.37998 0.14239 0.47084 0.0
C2635 C 0.42356 0.17314 0.46723 0.0
C2636 C 0.45281 0.18096 0.46799 0.0
C2637 C 0.46356 0.16382 0.45341 0.0
C2638 C 0.49109 0.17117 0.45441 0.0
C2639 C 0.50809 0.19573 0.46967 0.0
C2640 C 0.49758 0.213 0.48389 0.0
C2641 C 0.47005 0.20572 0.48303 0.0
H2642 H 0.5294 0.20139 0.4704 0.0
H2643 H 0.26079 0.11919 0.44012 0.0
H2644 H 0.71638 0.85921 0.65611 0.0
H2645 H 0.69572 0.88633 0.63852 0.0
H2646 H 0.61812 0.83136 0.64241 0.0
H2647 H 0.63862 0.80411 0.65964 0.0
H2648 H 0.6155 0.84678 0.59581 0.0
H2649 H 0.65106 0.89127 0.69338 0.0
H2650 H 0.68596 0.91269 0.73508 0.0
H2651 H 0.7295 0.96863 0.69037 0.0
H2652 H 0.69501 0.94731 0.64825 0.0
H2653 H 0.53707 0.92339 0.59951 0.0
H2654 H 0.56296 0.89905 0.61267 0.0
H2655 H 0.6328 0.95205 0.58935 0.0
H2656 H 0.60678 0.97613 0.57486 0.0
H2657 H 0.64223 0.93946 0.64266 0.0
H2658 H 0.60233 0.89721 0.54706 0.0
H2659 H 0.56392 0.8784 0.50919 0.0
H2660 H 0.52698 0.8178 0.55124 0.0
H2661 H 0.56456 0.83719 0.59038 0.0
C2662 C 0.69492 0.85296 0.65346 0.0
C2663 C 0.67928 0.82935 0.65944 0.0
C2664 C 0.68305 0.86855 0.64334 0.0
C2665 C 0.6552 0.86122 0.63933 0.0
C2666 C 0.63959 0.83759 0.64512 0.0
C2667 C 0.65141 0.82193 0.65501 0.0
C2668 C 0.64217 0.87802 0.62928 0.0
C2669 C 0.62129 0.86698 0.6063 0.0
C2670 C 0.6499 0.90467 0.64227 0.0
C2671 C 0.67062 0.91751 0.66756 0.0
C2672 C 0.66818 0.90801 0.69237 0.0
C2673 C 0.68787 0.92015 0.71609 0.0
C2674 C 0.70997 0.94195 0.71534 0.0
C2675 C 0.71239 0.9517 0.6909 0.0
C2676 C 0.69278 0.93961 0.6671 0.0
C2677 C 0.55778 0.92978 0.59653 0.0
C2678 C 0.56952 0.95184 0.58572 0.0
C2679 C 0.57271 0.91589 0.60447 0.0
C2680 C 0.59991 0.92362 0.60205 0.0
C2681 C 0.6119 0.94574 0.59163 0.0
C2682 C 0.59689 0.95956 0.58337 0.0
C2683 C 0.6154 0.90804 0.6097 0.0
C2684 C 0.6367 0.91931 0.63209 0.0
C2685 C 0.60795 0.88158 0.59631 0.0
C2686 C 0.58618 0.86885 0.57188 0.0
C2687 C 0.58595 0.87998 0.5484 0.0
C2688 C 0.56426 0.86925 0.52672 0.0
C2689 C 0.54301 0.84686 0.52777 0.0
C2690 C 0.54345 0.83516 0.5505 0.0
C2691 C 0.56489 0.84611 0.57253 0.0
H2692 H 0.52619 0.83856 0.51097 0.0
H2693 H 0.72519 0.95133 0.73373 0.0
H2694 H 0.75731 0.19709 0.32948 0.0
H2695 H 0.72987 0.17193 0.35946 0.0
H2696 H 0.66144 0.18304 0.32307 0.0
H2697 H 0.68894 0.20886 0.29358 0.0
H2698 H 0.66385 0.19281 0.37797 0.0
H2699 H 0.66886 0.12322 0.30815 0.0
H2700 H 0.69134 0.09955 0.27787 0.0
H2701 H 0.73399 0.09355 0.35217 0.0
H2702 H 0.71195 0.11744 0.38292 0.0
H2703 H 0.56337 0.08869 0.41956 0.0
H2704 H 0.59374 0.11179 0.39001 0.0
H2705 H 0.65973 0.13255 0.45604 0.0
H2706 H 0.62919 0.11013 0.48631 0.0
H2707 H 0.65974 0.10655 0.3881 0.0
H2708 H 0.6537 0.17829 0.45735 0.0
H2709 H 0.62872 0.20067 0.48529 0.0
H2710 H 0.58509 0.20068 0.40826 0.0
H2711 H 0.60954 0.17788 0.37987 0.0
C2712 C 0.73632 0.19384 0.32748 0.0
C2713 C 0.72537 0.20513 0.3092 0.0
C2714 C 0.72061 0.17939 0.34467 0.0
C2715 C 0.69349 0.17546 0.34355 0.0
C2716 C 0.68232 0.18592 0.32451 0.0
C2717 C 0.69807 0.20061 0.30756 0.0
C2718 C 0.67707 0.16163 0.36319 0.0
C2719 C 0.66285 0.17386 0.3799 0.0
C2720 C 0.67595 0.13703 0.36622 0.0
C2721 C 0.68892 0.1223 0.34783 0.0
C2722 C 0.68314 0.11696 0.31803 0.0
C2723 C 0.69578 0.10349 0.30078 0.0
C2724 C 0.71412 0.0951 0.31309 0.0
C2725 C 0.71978 0.10007 0.34268 0.0
C2726 C 0.70718 0.11354 0.36003 0.0
C2727 C 0.58434 0.09824 0.42785 0.0
C2728 C 0.59391 0.09773 0.45529 0.0
C2729 C 0.60164 0.11137 0.41093 0.0
C2730 C 0.62892 0.12377 0.42084 0.0
C2731 C 0.6387 0.12304 0.44806 0.0
C2732 C 0.62125 0.11041 0.46535 0.0
C2733 C 0.64687 0.13788 0.4027 0.0
C2734 C 0.6611 0.12561 0.3862 0.0
C2735 C 0.6478 0.16229 0.39956 0.0
C2736 C 0.63317 0.17607 0.41653 0.0
C2737 C 0.63855 0.18278 0.44639 0.0
C2738 C 0.62455 0.19561 0.4623 0.0
C2739 C 0.60525 0.202 0.44856 0.0
C2740 C 0.59999 0.19566 0.41887 0.0
C2741 C 0.61392 0.18279 0.40286 0.0
H2742 H 0.59443 0.21194 0.46092 0.0
H2743 H 0.72392 0.0847 0.2997 0.0
H2744 H 0.82172 0.73404 0.34635 0.0
H2745 H 0.84568 0.70987 0.36558 0.0
H2746 H 0.85738 0.67965 0.28111 0.0
H2747 H 0.83379 0.70401 0.26198 0.0
H2748 H 0.84699 0.64046 0.30794 0.0
H2749 H 0.90907 0.73096 0.34195 0.0
H2750 H 0.91982 0.77548 0.3697 0.0
H2751 H 0.90201 0.74751 0.44507 0.0
H2752 H 0.89086 0.70286 0.41776 0.0
H2753 H 0.93687 0.57921 0.34122 0.0
H2754 H 0.91339 0.60485 0.32618 0.0
H2755 H 0.92275 0.64635 0.41276 0.0
H2756 H 0.94674 0.62089 0.42806 0.0
H2757 H 0.92102 0.68028 0.38795 0.0
H2758 H 0.85776 0.59778 0.36622 0.0
H2759 H 0.83595 0.55068 0.34824 0.0
H2760 H 0.84273 0.55918 0.26257 0.0
H2761 H 0.86495 0.60641 0.28011 0.0
C2762 C 0.82938 0.72242 0.33158 0.0
C2763 C 0.82517 0.72183 0.30202 0.0
C2764 C 0.8436 0.70833 0.34287 0.0
C2765 C 0.85453 0.69226 0.32549 0.0
C2766 C 0.8499 0.6914 0.29595 0.0
C2767 C 0.8361 0.70578 0.28474 0.0
C2768 C 0.87014 0.67636 0.33737 0.0
C2769 C 0.86357 0.64969 0.32503 0.0
C2770 C 0.89104 0.68656 0.36127 0.0
C2771 C 0.8989 0.71354 0.37774 0.0
C2772 C 0.90742 0.73431 0.36443 0.0
C2773 C 0.91356 0.75957 0.38008 0.0
C2774 C 0.91143 0.76427 0.40907 0.0
C2775 C 0.90355 0.74381 0.42259 0.0
C2776 C 0.89736 0.71855 0.40705 0.0
C2777 C 0.93405 0.59346 0.35764 0.0
C2778 C 0.94456 0.59669 0.38654 0.0
C2779 C 0.91997 0.60857 0.3487 0.0
C2780 C 0.91476 0.62822 0.36777 0.0
C2781 C 0.92558 0.63185 0.39661 0.0
C2782 C 0.93975 0.61673 0.40561 0.0
C2783 C 0.89856 0.64448 0.35767 0.0
C2784 C 0.90484 0.67109 0.37044 0.0
C2785 C 0.87624 0.6339 0.33534 0.0
C2786 C 0.86337 0.60559 0.32449 0.0
C2787 C 0.85485 0.58959 0.34355 0.0
C2788 C 0.84236 0.56288 0.33345 0.0
C2789 C 0.83805 0.55193 0.30428 0.0
C2790 C 0.84617 0.5677 0.28517 0.0
C2791 C 0.85871 0.59445 0.29517 0.0
H2792 H 0.82834 0.53124 0.29649 0.0
H2793 H 0.91577 0.78372 0.4211 0.0
H2794 H 0.33296 0.84169 0.31831 0.0
H2795 H 0.36327 0.87178 0.35953 0.0
H2796 H 0.36237 0.80849 0.39655 0.0
H2797 H 0.33153 0.77772 0.35461 0.0
H2798 H 0.35333 0.85588 0.4329 0.0
H2799 H 0.41548 0.83253 0.37848 0.0
H2800 H 0.43329 0.82166 0.33422 0.0
H2801 H 0.44547 0.89657 0.31939 0.0
H2802 H 0.42705 0.90763 0.363 0.0
H2803 H 0.46345 0.96953 0.52118 0.0
H2804 H 0.43156 0.92609 0.49857 0.0
H2805 H 0.41933 0.9518 0.42255 0.0
H2806 H 0.45137 0.99506 0.44496 0.0
H2807 H 0.44073 0.91381 0.41567 0.0
H2808 H 0.36972 0.93306 0.45968 0.0
H2809 H 0.34963 0.94632 0.50126 0.0
H2810 H 0.35274 0.88228 0.53365 0.0
H2811 H 0.37311 0.86879 0.49234 0.0
C2812 C 0.33918 0.83412 0.33519 0.0
C2813 C 0.32998 0.80754 0.33353 0.0
C2814 C 0.35645 0.85128 0.35864 0.0
C2815 C 0.36484 0.84218 0.38084 0.0
C2816 C 0.3559 0.81563 0.37942 0.0
C2817 C 0.33863 0.79823 0.35555 0.0
C2818 C 0.38326 0.86131 0.40498 0.0
C2819 C 0.3729 0.86818 0.42978 0.0
C2820 C 0.40843 0.87736 0.40032 0.0
C2821 C 0.4199 0.87091 0.37413 0.0
C2822 C 0.4218 0.84662 0.36569 0.0
C2823 C 0.43196 0.84041 0.34065 0.0
C2824 C 0.44043 0.85838 0.32393 0.0
C2825 C 0.43881 0.88262 0.33225 0.0
C2826 C 0.42855 0.88888 0.35717 0.0
C2827 C 0.45314 0.96606 0.50008 0.0
C2828 C 0.4599 0.98528 0.48454 0.0
C2829 C 0.43504 0.94132 0.48721 0.0
C2830 C 0.42354 0.93589 0.4589 0.0
C2831 C 0.42835 0.95577 0.4444 0.0
C2832 C 0.44659 0.98035 0.45711 0.0
C2833 C 0.4101 0.90916 0.44263 0.0
C2834 C 0.42169 0.90102 0.41949 0.0
C2835 C 0.386 0.8923 0.44867 0.0
C2836 C 0.37324 0.90011 0.47313 0.0
C2837 C 0.3663 0.92192 0.47577 0.0
C2838 C 0.35481 0.92944 0.49926 0.0
C2839 C 0.35001 0.91521 0.52014 0.0
C2840 C 0.35652 0.89332 0.51748 0.0
C2841 C 0.368 0.8857 0.49402 0.0
H2842 H 0.34118 0.9211 0.53834 0.0
H2843 H 0.44829 0.85354 0.30455 0.0
H2844 H 0.20091 0.2995 0.26446 0.0
H2845 H 0.17448 0.32486 0.28219 0.0
H2846 H 0.22902 0.3586 0.36011 0.0
H2847 H 0.25542 0.33296 0.34234 0.0
H2848 H 0.18553 0.35855 0.37776 0.0
H2849 H 0.21845 0.39182 0.3 0.0
H2850 H 0.22814 0.39188 0.25097 0.0
H2851 H 0.14454 0.35819 0.21966 0.0
H2852 H 0.13436 0.35765 0.26854 0.0
H2853 H 0.12577 0.45481 0.42465 0.0
H2854 H 0.15318 0.43027 0.40918 0.0
H2855 H 0.10201 0.39605 0.32911 0.0
H2856 H 0.07483 0.42107 0.34414 0.0
H2857 H 0.14525 0.39716 0.31375 0.0
H2858 H 0.11464 0.36587 0.39677 0.0
H2859 H 0.1094 0.36921 0.44747 0.0
H2860 H 0.19417 0.40434 0.4709 0.0
H2861 H 0.1999 0.40146 0.42038 0.0
C2862 C 0.20772 0.31232 0.28541 0.0
C2863 C 0.23135 0.3134 0.30123 0.0
C2864 C 0.19224 0.32747 0.29582 0.0
C2865 C 0.19887 0.34516 0.32308 0.0
C2866 C 0.22229 0.34589 0.33911 0.0
C2867 C 0.23791 0.33086 0.32859 0.0
C2868 C 0.18182 0.36228 0.33451 0.0
C2869 C 0.1771 0.36701 0.36339 0.0
C2870 C 0.16976 0.37432 0.31725 0.0
C2871 C 0.17566 0.37439 0.28786 0.0
C2872 C 0.20214 0.38423 0.28263 0.0
C2873 C 0.20772 0.38438 0.25488 0.0
C2874 C 0.18697 0.37495 0.2322 0.0
C2875 C 0.16059 0.36542 0.23725 0.0
C2876 C 0.1549 0.36519 0.26497 0.0
C2877 C 0.11971 0.44215 0.40364 0.0
C2878 C 0.09669 0.44105 0.3864 0.0
C2879 C 0.1359 0.42732 0.39458 0.0
C2880 C 0.1306 0.40968 0.36745 0.0
C2881 C 0.10782 0.40875 0.35013 0.0
C2882 C 0.09163 0.42358 0.35916 0.0
C2883 C 0.14836 0.39304 0.35689 0.0
C2884 C 0.15338 0.38849 0.32811 0.0
C2885 C 0.16115 0.38165 0.37447 0.0
C2886 C 0.15766 0.38371 0.40481 0.0
C2887 C 0.13214 0.37448 0.41275 0.0
C2888 C 0.12909 0.37627 0.44146 0.0
C2889 C 0.15143 0.38706 0.4624 0.0
C2890 C 0.17688 0.39605 0.45467 0.0
C2891 C 0.18003 0.39434 0.42601 0.0
H2892 H 0.14902 0.38839 0.48459 0.0
H2893 H 0.19133 0.37509 0.21072 0.0
H2894 H 0.35188 0.24601 0.73166 0.0
H2895 H 0.37481 0.22019 0.70635 0.0
H2896 H 0.29926 0.16341 0.66267 0.0
H2897 H 0.27631 0.1893 0.6885 0.0
H2898 H 0.32881 0.13999 0.68126 0.0
H2899 H 0.34437 0.205 0.62808 0.0
H2900 H 0.35851 0.24907 0.62023 0.0
H2901 H 0.43801 0.26568 0.65872 0.0
H2902 H 0.42427 0.22181 0.66712 0.0
H2903 H 0.3889 0.07026 0.58669 0.0
H2904 H 0.36347 0.09644 0.60501 0.0
H2905 H 0.43462 0.15356 0.65725 0.0
H2906 H 0.46013 0.12757 0.63893 0.0
H2907 H 0.40557 0.17596 0.63127 0.0
H2908 H 0.3895 0.11189 0.68638 0.0
H2909 H 0.37562 0.06785 0.69424 0.0
H2910 H 0.29706 0.04955 0.65184 0.0
H2911 H 0.31059 0.09341 0.64337 0.0
C2912 C 0.34026 0.22821 0.71629 0.0
C2913 C 0.31242 0.21978 0.71167 0.0
C2914 C 0.35336 0.21345 0.70175 0.0
C2915 C 0.33891 0.18988 0.68216 0.0
C2916 C 0.31096 0.18152 0.6775 0.0
C2917 C 0.29784 0.19636 0.69209 0.0
C2918 C 0.35295 0.17359 0.66765 0.0
C2919 C 0.34525 0.14779 0.66986 0.0
C2920 C 0.37493 0.18372 0.65329 0.0
C2921 C 0.38322 0.21018 0.64846 0.0
C2922 C 0.36481 0.21812 0.63509 0.0
C2923 C 0.37277 0.24305 0.63049 0.0
C2924 C 0.39913 0.26018 0.63904 0.0
C2925 C 0.4176 0.2524 0.65214 0.0
C2926 C 0.40974 0.22749 0.6568 0.0
C2927 C 0.3992 0.08853 0.60184 0.0
C2928 C 0.42659 0.09672 0.61139 0.0
C2929 C 0.38457 0.1034 0.6125 0.0
C2930 C 0.39701 0.12692 0.63279 0.0
C2931 C 0.42449 0.13548 0.64172 0.0
C2932 C 0.43905 0.12051 0.63132 0.0
C2933 C 0.38145 0.14251 0.64501 0.0
C2934 C 0.38894 0.16816 0.64244 0.0
C2935 C 0.35929 0.13225 0.65901 0.0
C2936 C 0.35115 0.10583 0.66393 0.0
C2937 C 0.36934 0.0984 0.67848 0.0
C2938 C 0.36152 0.07348 0.6831 0.0
C2939 C 0.3355 0.05588 0.67346 0.0
C2940 C 0.31723 0.06319 0.65924 0.0
C2941 C 0.32495 0.08807 0.65453 0.0
H2942 H 0.32948 0.03661 0.67708 0.0
H2943 H 0.40525 0.27947 0.63544 0.0
H2944 H 0.82013 0.34979 0.74692 0.0
H2945 H 0.84597 0.37724 0.71771 0.0
H2946 H 0.86694 0.31464 0.67495 0.0
H2947 H 0.84207 0.28747 0.70522 0.0
H2948 H 0.90696 0.35738 0.67695 0.0
H2949 H 0.8148 0.32952 0.64555 0.0
H2950 H 0.76782 0.32141 0.65064 0.0
H2951 H 0.78677 0.40283 0.67972 0.0
H2952 H 0.83398 0.4114 0.67521 0.0
H2953 H 0.93151 0.41708 0.55393 0.0
H2954 H 0.91023 0.38593 0.58246 0.0
H2955 H 0.90934 0.4482 0.64861 0.0
H2956 H 0.93111 0.47921 0.62088 0.0
H2957 H 0.85867 0.40208 0.63068 0.0
H2958 H 0.95364 0.42713 0.659 0.0
H2959 H 0.99887 0.43092 0.64987 0.0
H2960 H 0.97183 0.34863 0.62013 0.0
H2961 H 0.92632 0.34441 0.62824 0.0
C2962 C 0.83047 0.34192 0.73153 0.0
C2963 C 0.82861 0.31624 0.72824 0.0
C2964 C 0.84521 0.35764 0.71462 0.0
C2965 C 0.85788 0.34796 0.6932 0.0
C2966 C 0.85728 0.32273 0.69097 0.0
C2967 C 0.84296 0.30712 0.70836 0.0
C2968 C 0.87022 0.36368 0.6723 0.0
C2969 C 0.8962 0.36686 0.66661 0.0
C2970 C 0.8564 0.37602 0.65824 0.0
C2971 C 0.82794 0.37109 0.66021 0.0
C2972 C 0.80895 0.34569 0.6531 0.0
C2973 C 0.7823 0.34101 0.65591 0.0
C2974 C 0.77432 0.36159 0.66554 0.0
C2975 C 0.79299 0.38691 0.67227 0.0
C2976 C 0.8197 0.3917 0.66956 0.0
C2977 C 0.92659 0.42408 0.57446 0.0
C2978 C 0.93302 0.45074 0.585 0.0
C2979 C 0.91456 0.40626 0.59085 0.0
C2980 C 0.90823 0.41466 0.61787 0.0
C2981 C 0.91399 0.44114 0.62795 0.0
C2982 C 0.92647 0.4589 0.61196 0.0
C2983 C 0.8955 0.39623 0.63589 0.0
C2984 C 0.86935 0.39249 0.64095 0.0
C2985 C 0.90894 0.38285 0.6486 0.0
C2986 C 0.93642 0.38549 0.64381 0.0
C2987 C 0.95724 0.40987 0.65011 0.0
C2988 C 0.98298 0.4121 0.64515 0.0
C2989 C 0.98823 0.39006 0.63424 0.0
C2990 C 0.96777 0.36573 0.62838 0.0
C2991 C 0.94198 0.36341 0.63313 0.0
H2992 H 1.00817 0.39184 0.63046 0.0
H2993 H 0.75368 0.35793 0.66776 0.0
H2994 H 0.2371 0.67691 0.70714 0.0
H2995 H 0.2023 0.64512 0.66986 0.0
H2996 H 0.18132 0.70592 0.64728 0.0
H2997 H 0.21569 0.73772 0.68462 0.0
H2998 H 0.13726 0.66303 0.65033 0.0
H2999 H 0.2194 0.68111 0.60756 0.0
H3000 H 0.26596 0.68423 0.60909 0.0
H3001 H 0.24154 0.60438 0.61173 0.0
H3002 H 0.19486 0.60089 0.61049 0.0
H3003 H 0.05557 0.59767 0.52026 0.0
H3004 H 0.09406 0.62953 0.55362 0.0
H3005 H 0.11947 0.56854 0.56747 0.0
H3006 H 0.08125 0.53692 0.53396 0.0
H3007 H 0.16145 0.61039 0.57029 0.0
H3008 H 0.08131 0.58898 0.61038 0.0
H3009 H 0.03494 0.58308 0.61627 0.0
H3010 H 0.054 0.66439 0.62624 0.0
H3011 H 0.10043 0.67074 0.6198 0.0
C3012 C 0.22526 0.68353 0.69405 0.0
C3013 C 0.22938 0.70986 0.69856 0.0
C3014 C 0.20531 0.66535 0.67287 0.0
C3015 C 0.18941 0.67325 0.65571 0.0
C3016 C 0.19338 0.69946 0.66033 0.0
C3017 C 0.21319 0.71762 0.68153 0.0
C3018 C 0.16911 0.65438 0.63227 0.0
C3019 C 0.14249 0.65177 0.63254 0.0
C3020 C 0.17593 0.639 0.60984 0.0
C3021 C 0.20371 0.64074 0.60892 0.0
C3022 C 0.22398 0.66421 0.60838 0.0
C3023 C 0.25038 0.66606 0.60925 0.0
C3024 C 0.2567 0.64452 0.61049 0.0
C3025 C 0.23661 0.62104 0.61071 0.0
C3026 C 0.21017 0.61909 0.60984 0.0
C3027 C 0.07023 0.59137 0.52928 0.0
C3028 C 0.066 0.56505 0.52405 0.0
C3029 C 0.09188 0.60945 0.54876 0.0
C3030 C 0.10934 0.60133 0.56348 0.0
C3031 C 0.10629 0.57526 0.5564 0.0
C3032 C 0.08468 0.55724 0.53697 0.0
C3033 C 0.12944 0.61945 0.58771 0.0
C3034 C 0.15605 0.62177 0.5878 0.0
C3035 C 0.12242 0.63408 0.6109 0.0
C3036 C 0.09431 0.63027 0.61408 0.0
C3037 C 0.07556 0.60557 0.61339 0.0
C3038 C 0.04926 0.60214 0.61692 0.0
C3039 C 0.04149 0.62332 0.62148 0.0
C3040 C 0.06002 0.64798 0.62257 0.0
C3041 C 0.08633 0.6515 0.61894 0.0
H3042 H 0.02113 0.62063 0.62428 0.0
H3043 H 0.27717 0.64601 0.6113 0.0
loop_
_geom_bond_atom_site_label_1
_geom_bond_atom_site_label_2
_geom_bond_distance
_geom_bond_site_symmetry_2
_ccdc_geom_bond_type
Tb0 C10 2.825 . S
Tb0 O11 2.347 . S
Tb0 O14 2.366 . S
Tb0 O19 2.418 . S
Tb0 O20 2.384 . S
Tb0 O23 2.479 . S
Tb0 O24 2.471 . S
Eu1 O12 2.418 . S
Eu1 O13 2.384 . S
Eu1 O16 2.479 . S
Eu1 O17 2.471 . S
Eu1 O18 2.347 . S
Eu1 O21 2.366 . S
Eu1 C31 2.825 . S
C2 O18 1.259 . S
C2 O19 1.265 . S
C3 O20 1.255 . S
C3 O21 1.265 . S
C4 C6 1.380 . S
C4 C7 1.374 . S
C4 C10 1.507 . S
C5 C6 1.384 . S
C5 C9 1.387 . S
C5 H32 0.930 . S
C6 C4 1.380 . S
C6 C5 1.384 . S
C6 H33 0.931 . S
C7 C4 1.374 . S
C7 C8 1.390 . S
C7 H34 0.930 . S
C8 C7 1.390 . S
C8 C9 1.391 . S
C8 H35 0.930 . S
C9 C5 1.387 . S
C9 C8 1.391 . S
C10 Tb0 2.825 . S
C10 C4 1.507 . S
C10 O23 1.238 . S
C10 O24 1.247 . S
O11 Tb0 2.347 . S
O11 C15 1.259 . S
O12 Eu1 2.418 . S
O12 C15 1.265 . S
O13 Eu1 2.384 . S
O13 C22 1.255 . S
O14 Tb0 2.366 . S
O14 C22 1.265 . S
C15 O11 1.259 . S
C15 O12 1.265 . S
O16 Eu1 2.479 . S
O16 C31 1.238 . S
O17 Eu1 2.471 . S
O17 C31 1.247 . S
O18 Eu1 2.347 . S
O18 C2 1.259 . S
O19 Tb0 2.418 . S
O19 C2 1.265 . S
O20 Tb0 2.384 . S
O20 C3 1.255 . S
O21 Eu1 2.366 . S
O21 C3 1.265 . S
C22 O13 1.255 . S
C22 O14 1.265 . S
O23 Tb0 2.479 . S
O23 C10 1.238 . S
O24 Tb0 2.471 . S
O24 C10 1.247 . S
C25 C28 1.380 . S
C25 C29 1.374 . S
C25 C31 1.507 . S
C26 C27 1.387 . S
C26 C30 1.391 . S
C27 C26 1.387 . S
C27 C28 1.384 . S
C27 H36 0.930 . S
C28 C25 1.380 . S
C28 C27 1.384 . S
C28 H37 0.931 . S
C29 C25 1.374 . S
C29 C30 1.390 . S
C29 H38 0.930 . S
C30 C26 1.391 . S
C30 C29 1.390 . S
C30 H39 0.930 . S
C31 Eu1 2.825 . S
C31 O16 1.238 . S
C31 O17 1.247 . S
C31 C25 1.507 . S
H32 C5 0.930 . S
H33 C6 0.931 . S
H34 C7 0.930 . S
H35 C8 0.930 . S
H36 C27 0.930 . S
H37 C28 0.931 . S
H38 C29 0.930 . S
H39 C30 0.930 . S
Tb40 C50 2.825 . S
Tb40 O51 2.347 . S
Tb40 O54 2.366 . S
Tb40 O59 2.418 . S
Tb40 O60 2.384 . S
Tb40 O63 2.479 . S
Tb40 O64 2.471 . S
Eu41 O52 2.418 . S
Eu41 O53 2.384 . S
Eu41 O56 2.479 . S
Eu41 O57 2.471 . S
Eu41 O58 2.347 . S
Eu41 O61 2.366 . S
Eu41 C71 2.825 . S
C42 O58 1.259 . S
C42 O59 1.265 . S
C43 O60 1.255 . S
C43 O61 1.265 . S
C44 C46 1.380 . S
C44 C47 1.374 . S
C44 C50 1.507 . S
C45 C46 1.384 . S
C45 C49 1.387 . S
C45 H72 0.930 . S
C46 C44 1.380 . S
C46 C45 1.384 . S
C46 H73 0.931 . S
C47 C44 1.374 . S
C47 C48 1.390 . S
C47 H74 0.930 . S
C48 C47 1.390 . S
C48 C49 1.391 . S
C48 H75 0.930 . S
C49 C45 1.387 . S
C49 C48 1.391 . S
C50 Tb40 2.825 . S
C50 C44 1.507 . S
C50 O63 1.238 . S
C50 O64 1.247 . S
O51 Tb40 2.347 . S
O51 C55 1.259 . S
O52 Eu41 2.418 . S
O52 C55 1.265 . S
O53 Eu41 2.384 . S
O53 C62 1.255 . S
O54 Tb40 2.366 . S
O54 C62 1.265 . S
C55 O51 1.259 . S
C55 O52 1.265 . S
O56 Eu41 2.479 . S
O56 C71 1.238 . S
O57 Eu41 2.471 . S
O57 C71 1.247 . S
O58 Eu41 2.347 . S
O58 C42 1.259 . S
O59 Tb40 2.418 . S
O59 C42 1.265 . S
O60 Tb40 2.384 . S
O60 C43 1.255 . S
O61 Eu41 2.366 . S
O61 C43 1.265 . S
C62 O53 1.255 . S
C62 O54 1.265 . S
O63 Tb40 2.479 . S
O63 C50 1.238 . S
O64 Tb40 2.471 . S
O64 C50 1.247 . S
C65 C68 1.380 . S
C65 C69 1.374 . S
C65 C71 1.507 . S
C66 C67 1.387 . S
C66 C70 1.391 . S
C67 C66 1.387 . S
C67 C68 1.384 . S
C67 H76 0.930 . S
C68 C65 1.380 . S
C68 C67 1.384 . S
C68 H77 0.931 . S
C69 C65 1.374 . S
C69 C70 1.390 . S
C69 H78 0.930 . S
C70 C66 1.391 . S
C70 C69 1.390 . S
C70 H79 0.930 . S
C71 Eu41 2.825 . S
C71 O56 1.238 . S
C71 O57 1.247 . S
C71 C65 1.507 . S
H72 C45 0.930 . S
H73 C46 0.931 . S
H74 C47 0.930 . S
H75 C48 0.930 . S
H76 C67 0.930 . S
H77 C68 0.931 . S
H78 C69 0.930 . S
H79 C70 0.930 . S
Tb80 C90 2.825 . S
Tb80 O91 2.347 . S
Tb80 O94 2.366 . S
Tb80 O99 2.418 . S
Tb80 O100 2.384 . S
Tb80 O103 2.479 . S
Tb80 O104 2.471 . S
Eu81 O92 2.418 . S
Eu81 O93 2.384 . S
Eu81 O96 2.479 . S
Eu81 O97 2.471 . S
Eu81 O98 2.347 . S
Eu81 O101 2.366 . S
Eu81 C111 2.825 . S
C82 O98 1.259 . S
C82 O99 1.265 . S
C83 O100 1.255 . S
C83 O101 1.265 . S
C84 C86 1.380 . S
C84 C87 1.374 . S
C84 C90 1.507 . S
C85 C86 1.384 . S
C85 C89 1.387 . S
C85 H112 0.930 . S
C86 C84 1.380 . S
C86 C85 1.384 . S
C86 H113 0.931 . S
C87 C84 1.374 . S
C87 C88 1.390 . S
C87 H114 0.930 . S
C88 C87 1.390 . S
C88 C89 1.391 . S
C88 H115 0.930 . S
C89 C85 1.387 . S
C89 C88 1.391 . S
C90 Tb80 2.825 . S
C90 C84 1.507 . S
C90 O103 1.238 . S
C90 O104 1.247 . S
O91 Tb80 2.347 . S
O91 C95 1.259 . S
O92 Eu81 2.418 . S
O92 C95 1.265 . S
O93 Eu81 2.384 . S
O93 C102 1.255 . S
O94 Tb80 2.366 . S
O94 C102 1.265 . S
C95 O91 1.259 . S
C95 O92 1.265 . S
O96 Eu81 2.479 . S
O96 C111 1.238 . S
O97 Eu81 2.471 . S
O97 C111 1.247 . S
O98 Eu81 2.347 . S
O98 C82 1.259 . S
O99 Tb80 2.418 . S
O99 C82 1.265 . S
O100 Tb80 2.384 . S
O100 C83 1.255 . S
O101 Eu81 2.366 . S
O101 C83 1.265 . S
C102 O93 1.255 . S
C102 O94 1.265 . S
O103 Tb80 2.479 . S
O103 C90 1.238 . S
O104 Tb80 2.471 . S
O104 C90 1.247 . S
C105 C108 1.380 . S
C105 C109 1.374 . S
C105 C111 1.507 . S
C106 C107 1.387 . S
C106 C110 1.391 . S
C107 C106 1.387 . S
C107 C108 1.384 . S
C107 H116 0.930 . S
C108 C105 1.380 . S
C108 C107 1.384 . S
C108 H117 0.931 . S
C109 C105 1.374 . S
C109 C110 1.390 . S
C109 H118 0.930 . S
C110 C106 1.391 . S
C110 C109 1.390 . S
C110 H119 0.930 . S
C111 Eu81 2.825 . S
C111 O96 1.238 . S
C111 O97 1.247 . S
C111 C105 1.507 . S
H112 C85 0.930 . S
H113 C86 0.931 . S
H114 C87 0.930 . S
H115 C88 0.930 . S
H116 C107 0.930 . S
H117 C108 0.931 . S
H118 C109 0.930 . S
H119 C110 0.930 . S
Tb120 C130 2.825 . S
Tb120 O131 2.347 . S
Tb120 O134 2.366 . S
Tb120 O139 2.418 . S
Tb120 O140 2.384 . S
Tb120 O143 2.479 . S
Tb120 O144 2.471 . S
Eu121 O132 2.418 . S
Eu121 O133 2.384 . S
Eu121 O136 2.479 . S
Eu121 O137 2.471 . S
Eu121 O138 2.347 . S
Eu121 O141 2.366 . S
Eu121 C151 2.825 . S
C122 O138 1.259 . S
C122 O139 1.265 . S
C123 O140 1.255 . S
C123 O141 1.265 . S
C124 C126 1.380 . S
C124 C127 1.374 . S
C124 C130 1.507 . S
C125 C126 1.384 . S
C125 C129 1.387 . S
C125 H152 0.930 . S
C126 C124 1.380 . S
C126 C125 1.384 . S
C126 H153 0.931 . S
C127 C124 1.374 . S
C127 C128 1.390 . S
C127 H154 0.930 . S
C128 C127 1.390 . S
C128 C129 1.391 . S
C128 H155 0.930 . S
C129 C125 1.387 . S
C129 C128 1.391 . S
C130 Tb120 2.825 . S
C130 C124 1.507 . S
C130 O143 1.238 . S
C130 O144 1.247 . S
O131 Tb120 2.347 . S
O131 C135 1.259 . S
O132 Eu121 2.418 . S
O132 C135 1.265 . S
O133 Eu121 2.384 . S
O133 C142 1.255 . S
O134 Tb120 2.366 . S
O134 C142 1.265 . S
C135 O131 1.259 . S
C135 O132 1.265 . S
O136 Eu121 2.479 . S
O136 C151 1.238 . S
O137 Eu121 2.471 . S
O137 C151 1.247 . S
O138 Eu121 2.347 . S
O138 C122 1.259 . S
O139 Tb120 2.418 . S
O139 C122 1.265 . S
O140 Tb120 2.384 . S
O140 C123 1.255 . S
O141 Eu121 2.366 . S
O141 C123 1.265 . S
C142 O133 1.255 . S
C142 O134 1.265 . S
O143 Tb120 2.479 . S
O143 C130 1.238 . S
O144 Tb120 2.471 . S
O144 C130 1.247 . S
C145 C148 1.380 . S
C145 C149 1.374 . S
C145 C151 1.507 . S
C146 C147 1.387 . S
C146 C150 1.391 . S
C147 C146 1.387 . S
C147 C148 1.384 . S
C147 H156 0.930 . S
C148 C145 1.380 . S
C148 C147 1.384 . S
C148 H157 0.931 . S
C149 C145 1.374 . S
C149 C150 1.390 . S
C149 H158 0.930 . S
C150 C146 1.391 . S
C150 C149 1.390 . S
C150 H159 0.930 . S
C151 Eu121 2.825 . S
C151 O136 1.238 . S
C151 O137 1.247 . S
C151 C145 1.507 . S
H152 C125 0.930 . S
H153 C126 0.931 . S
H154 C127 0.930 . S
H155 C128 0.930 . S
H156 C147 0.930 . S
H157 C148 0.931 . S
H158 C149 0.930 . S
H159 C150 0.930 . S
Tb160 C170 2.825 . S
Tb160 O171 2.347 . S
Tb160 O174 2.366 . S
Tb160 O179 2.418 . S
Tb160 O180 2.384 . S
Tb160 O183 2.479 . S
Tb160 O184 2.471 . S
Eu161 O172 2.418 . S
Eu161 O173 2.384 . S
Eu161 O176 2.479 . S
Eu161 O177 2.471 . S
Eu161 O178 2.347 . S
Eu161 O181 2.366 . S
Eu161 C191 2.825 . S
C162 O178 1.259 . S
C162 O179 1.265 . S
C163 O180 1.255 . S
C163 O181 1.265 . S
C164 C166 1.380 . S
C164 C167 1.374 . S
C164 C170 1.507 . S
C165 C166 1.384 . S
C165 C169 1.387 . S
C165 H192 0.930 . S
C166 C164 1.380 . S
C166 C165 1.384 . S
C166 H193 0.931 . S
C167 C164 1.374 . S
C167 C168 1.390 . S
C167 H194 0.930 . S
C168 C167 1.390 . S
C168 C169 1.391 . S
C168 H195 0.930 . S
C169 C165 1.387 . S
C169 C168 1.391 . S
C170 Tb160 2.825 . S
C170 C164 1.507 . S
C170 O183 1.238 . S
C170 O184 1.247 . S
O171 Tb160 2.347 . S
O171 C175 1.259 . S
O172 Eu161 2.418 . S
O172 C175 1.265 . S
O173 Eu161 2.384 . S
O173 C182 1.255 . S
O174 Tb160 2.366 . S
O174 C182 1.265 . S
C175 O171 1.259 . S
C175 O172 1.265 . S
O176 Eu161 2.479 . S
O176 C191 1.238 . S
O177 Eu161 2.471 . S
O177 C191 1.247 . S
O178 Eu161 2.347 . S
O178 C162 1.259 . S
O179 Tb160 2.418 . S
O179 C162 1.265 . S
O180 Tb160 2.384 . S
O180 C163 1.255 . S
O181 Eu161 2.366 . S
O181 C163 1.265 . S
C182 O173 1.255 . S
C182 O174 1.265 . S
O183 Tb160 2.479 . S
O183 C170 1.238 . S
O184 Tb160 2.471 . S
O184 C170 1.247 . S
C185 C188 1.380 . S
C185 C189 1.374 . S
C185 C191 1.507 . S
C186 C187 1.387 . S
C186 C190 1.391 . S
C187 C186 1.387 . S
C187 C188 1.384 . S
C187 H196 0.930 . S
C188 C185 1.380 . S
C188 C187 1.384 . S
C188 H197 0.931 . S
C189 C185 1.374 . S
C189 C190 1.390 . S
C189 H198 0.930 . S
C190 C186 1.391 . S
C190 C189 1.390 . S
C190 H199 0.930 . S
C191 Eu161 2.825 . S
C191 O176 1.238 . S
C191 O177 1.247 . S
C191 C185 1.507 . S
H192 C165 0.930 . S
H193 C166 0.931 . S
H194 C167 0.930 . S
H195 C168 0.930 . S
H196 C187 0.930 . S
H197 C188 0.931 . S
H198 C189 0.930 . S
H199 C190 0.930 . S
Tb200 C210 2.825 . S
Tb200 O211 2.347 . S
Tb200 O214 2.366 . S
Tb200 O219 2.418 . S
Tb200 O220 2.384 . S
Tb200 O223 2.479 . S
Tb200 O224 2.471 . S
Eu201 O212 2.418 . S
Eu201 O213 2.384 . S
Eu201 O216 2.479 . S
Eu201 O217 2.471 . S
Eu201 O218 2.347 . S
Eu201 O221 2.366 . S
Eu201 C231 2.825 . S
C202 O218 1.259 . S
C202 O219 1.265 . S
C203 O220 1.255 . S
C203 O221 1.265 . S
C204 C206 1.380 . S
C204 C207 1.374 . S
C204 C210 1.507 . S
C205 C206 1.384 . S
C205 C209 1.387 . S
C205 H232 0.930 . S
C206 C204 1.380 . S
C206 C205 1.384 . S
C206 H233 0.931 . S
C207 C204 1.374 . S
C207 C208 1.390 . S
C207 H234 0.930 . S
C208 C207 1.390 . S
C208 C209 1.391 . S
C208 H235 0.930 . S
C209 C205 1.387 . S
C209 C208 1.391 . S
C210 Tb200 2.825 . S
C210 C204 1.507 . S
C210 O223 1.238 . S
C210 O224 1.247 . S
O211 Tb200 2.347 . S
O211 C215 1.259 . S
O212 Eu201 2.418 . S
O212 C215 1.265 . S
O213 Eu201 2.384 . S
O213 C222 1.255 . S
O214 Tb200 2.366 . S
O214 C222 1.265 . S
C215 O211 1.259 . S
C215 O212 1.265 . S
O216 Eu201 2.479 . S
O216 C231 1.238 . S
O217 Eu201 2.471 . S
O217 C231 1.247 . S
O218 Eu201 2.347 . S
O218 C202 1.259 . S
O219 Tb200 2.418 . S
O219 C202 1.265 . S
O220 Tb200 2.384 . S
O220 C203 1.255 . S
O221 Eu201 2.366 . S
O221 C203 1.265 . S
C222 O213 1.255 . S
C222 O214 1.265 . S
O223 Tb200 2.479 . S
O223 C210 1.238 . S
O224 Tb200 2.471 . S
O224 C210 1.247 . S
C225 C228 1.380 . S
C225 C229 1.374 . S
C225 C231 1.507 . S
C226 C227 1.387 . S
C226 C230 1.391 . S
C227 C226 1.387 . S
C227 C228 1.384 . S
C227 H236 0.930 . S
C228 C225 1.380 . S
C228 C227 1.384 . S
C228 H237 0.931 . S
C229 C225 1.374 . S
C229 C230 1.390 . S
C229 H238 0.930 . S
C230 C226 1.391 . S
C230 C229 1.390 . S
C230 H239 0.930 . S
C231 Eu201 2.825 . S
C231 O216 1.238 . S
C231 O217 1.247 . S
C231 C225 1.507 . S
H232 C205 0.930 . S
H233 C206 0.931 . S
H234 C207 0.930 . S
H235 C208 0.930 . S
H236 C227 0.930 . S
H237 C228 0.931 . S
H238 C229 0.930 . S
H239 C230 0.930 . S
Tb240 C250 2.825 . S
Tb240 O251 2.347 . S
Tb240 O254 2.366 . S
Tb240 O259 2.418 . S
Tb240 O260 2.384 . S
Tb240 O263 2.479 . S
Tb240 O264 2.471 . S
Eu241 O252 2.418 . S
Eu241 O253 2.384 . S
Eu241 O256 2.479 . S
Eu241 O257 2.471 . S
Eu241 O258 2.347 . S
Eu241 O261 2.366 . S
Eu241 C271 2.825 . S
C242 O258 1.259 . S
C242 O259 1.265 . S
C243 O260 1.255 . S
C243 O261 1.265 . S
C244 C246 1.380 . S
C244 C247 1.374 . S
C244 C250 1.507 . S
C245 C246 1.384 . S
C245 C249 1.387 . S
C245 H272 0.930 . S
C246 C244 1.380 . S
C246 C245 1.384 . S
C246 H273 0.931 . S
C247 C244 1.374 . S
C247 C248 1.390 . S
C247 H274 0.930 . S
C248 C247 1.390 . S
C248 C249 1.391 . S
C248 H275 0.930 . S
C249 C245 1.387 . S
C249 C248 1.391 . S
C250 Tb240 2.825 . S
C250 C244 1.507 . S
C250 O263 1.238 . S
C250 O264 1.247 . S
O251 Tb240 2.347 . S
O251 C255 1.259 . S
O252 Eu241 2.418 . S
O252 C255 1.265 . S
O253 Eu241 2.384 . S
O253 C262 1.255 . S
O254 Tb240 2.366 . S
O254 C262 1.265 . S
C255 O251 1.259 . S
C255 O252 1.265 . S
O256 Eu241 2.479 . S
O256 C271 1.238 . S
O257 Eu241 2.471 . S
O257 C271 1.247 . S
O258 Eu241 2.347 . S
O258 C242 1.259 . S
O259 Tb240 2.418 . S
O259 C242 1.265 . S
O260 Tb240 2.384 . S
O260 C243 1.255 . S
O261 Eu241 2.366 . S
O261 C243 1.265 . S
C262 O253 1.255 . S
C262 O254 1.265 . S
O263 Tb240 2.479 . S
O263 C250 1.238 . S
O264 Tb240 2.471 . S
O264 C250 1.247 . S
C265 C268 1.380 . S
C265 C269 1.374 . S
C265 C271 1.507 . S
C266 C267 1.387 . S
C266 C270 1.391 . S
C267 C266 1.387 . S
C267 C268 1.384 . S
C267 H276 0.930 . S
C268 C265 1.380 . S
C268 C267 1.384 . S
C268 H277 0.931 . S
C269 C265 1.374 . S
C269 C270 1.390 . S
C269 H278 0.930 . S
C270 C266 1.391 . S
C270 C269 1.390 . S
C270 H279 0.930 . S
C271 Eu241 2.825 . S
C271 O256 1.238 . S
C271 O257 1.247 . S
C271 C265 1.507 . S
H272 C245 0.930 . S
H273 C246 0.931 . S
H274 C247 0.930 . S
H275 C248 0.930 . S
H276 C267 0.930 . S
H277 C268 0.931 . S
H278 C269 0.930 . S
H279 C270 0.930 . S
Tb280 C290 2.825 . S
Tb280 O291 2.347 . S
Tb280 O294 2.366 . S
Tb280 O299 2.418 . S
Tb280 O300 2.384 . S
Tb280 O303 2.479 . S
Tb280 O304 2.471 . S
Eu281 O292 2.418 . S
Eu281 O293 2.384 . S
Eu281 O296 2.479 . S
Eu281 O297 2.471 . S
Eu281 O298 2.347 . S
Eu281 O301 2.366 . S
Eu281 C311 2.825 . S
C282 O298 1.259 . S
C282 O299 1.265 . S
C283 O300 1.255 . S
C283 O301 1.265 . S
C284 C286 1.380 . S
C284 C287 1.374 . S
C284 C290 1.507 . S
C285 C286 1.384 . S
C285 C289 1.387 . S
C285 H312 0.930 . S
C286 C284 1.380 . S
C286 C285 1.384 . S
C286 H313 0.931 . S
C287 C284 1.374 . S
C287 C288 1.390 . S
C287 H314 0.930 . S
C288 C287 1.390 . S
C288 C289 1.391 . S
C288 H315 0.930 . S
C289 C285 1.387 . S
C289 C288 1.391 . S
C290 Tb280 2.825 . S
C290 C284 1.507 . S
C290 O303 1.238 . S
C290 O304 1.247 . S
O291 Tb280 2.347 . S
O291 C295 1.259 . S
O292 Eu281 2.418 . S
O292 C295 1.265 . S
O293 Eu281 2.384 . S
O293 C302 1.255 . S
O294 Tb280 2.366 . S
O294 C302 1.265 . S
C295 O291 1.259 . S
C295 O292 1.265 . S
O296 Eu281 2.479 . S
O296 C311 1.238 . S
O297 Eu281 2.471 . S
O297 C311 1.247 . S
O298 Eu281 2.347 . S
O298 C282 1.259 . S
O299 Tb280 2.418 . S
O299 C282 1.265 . S
O300 Tb280 2.384 . S
O300 C283 1.255 . S
O301 Eu281 2.366 . S
O301 C283 1.265 . S
C302 O293 1.255 . S
C302 O294 1.265 . S
O303 Tb280 2.479 . S
O303 C290 1.238 . S
O304 Tb280 2.471 . S
O304 C290 1.247 . S
C305 C308 1.380 . S
C305 C309 1.374 . S
C305 C311 1.507 . S
C306 C307 1.387 . S
C306 C310 1.391 . S
C307 C306 1.387 . S
C307 C308 1.384 . S
C307 H316 0.930 . S
C308 C305 1.380 . S
C308 C307 1.384 . S
C308 H317 0.931 . S
C309 C305 1.374 . S
C309 C310 1.390 . S
C309 H318 0.930 . S
C310 C306 1.391 . S
C310 C309 1.390 . S
C310 H319 0.930 . S
C311 Eu281 2.825 . S
C311 O296 1.238 . S
C311 O297 1.247 . S
C311 C305 1.507 . S
H312 C285 0.930 . S
H313 C286 0.931 . S
H314 C287 0.930 . S
H315 C288 0.930 . S
H316 C307 0.930 . S
H317 C308 0.931 . S
H318 C309 0.930 . S
H319 C310 0.930 . S
Cd320 N323 2.334 1_545 S
Cd320 N349 2.304 1_455 S
Cd320 O356 2.268 1_445 S
Cd320 O359 2.273 . S
Cd320 O360 2.417 1_445 S
Cd320 O361 2.330 1_445 S
Cd321 N336 2.304 . S
Cd321 N340 2.334 . S
Cd321 O357 2.273 1_445 S
Cd321 O358 2.268 . S
Cd321 O362 2.417 . S
Cd321 O363 2.330 . S
C322 N323 1.332 . S
C322 C326 1.381 . S
C322 H328 0.914 1_565 S
N323 Cd320 2.334 1_565 S
N323 C322 1.332 . S
N323 C327 1.328 . S
C324 C325 1.396 . S
C324 C327 1.378 . S
C324 H366 0.931 . S
C325 C324 1.396 . S
C325 C326 1.382 . S
C326 C322 1.381 . S
C326 C325 1.382 . S
C326 H367 0.930 . S
C327 N323 1.328 . S
C327 C324 1.378 . S
C327 H329 0.930 . S
H328 C322 0.914 1_545 S
H329 C327 0.930 . S
C330 O356 1.238 . S
C330 O357 1.253 . S
C331 C332 1.379 . S
C331 N336 1.337 1_655 S
C331 H337 0.929 . S
C332 C331 1.379 . S
C332 C333 1.380 . S
C332 H368 0.929 . S
C333 C332 1.380 . S
C333 C334 1.399 . S
C334 C333 1.399 . S
C334 C335 1.376 1_655 S
C334 H369 0.931 1_655 S
C335 C334 1.376 1_455 S
C335 N336 1.338 . S
C335 H338 0.930 . S
N336 Cd321 2.304 . S
N336 C331 1.337 1_455 S
N336 C335 1.338 . S
H337 C331 0.929 . S
H338 C335 0.930 . S
C339 N340 1.332 1_565 S
C339 C343 1.381 . S
C339 H345 0.931 . S
N340 Cd321 2.334 . S
N340 C339 1.332 1_545 S
N340 C344 1.328 . S
C341 C342 1.396 . S
C341 C344 1.378 1_565 S
C341 H370 0.942 1_565 S
C342 C341 1.396 . S
C342 C343 1.382 . S
C343 C339 1.381 . S
C343 C342 1.382 . S
C343 H371 0.930 . S
C344 N340 1.328 . S
C344 C341 1.378 1_545 S
C344 H346 0.930 . S
H345 C339 0.931 . S
H346 C344 0.930 . S
C347 O358 1.238 . S
C347 O359 1.253 . S
C348 O360 1.239 . S
C348 O361 1.230 . S
N349 Cd320 2.304 1_655 S
N349 C350 1.337 . S
N349 C354 1.338 . S
C350 N349 1.337 . S
C350 C351 1.379 . S
C350 H364 0.929 . S
C351 C350 1.379 . S
C351 C352 1.380 . S
C351 H372 0.929 . S
C352 C351 1.380 . S
C352 C353 1.399 . S
C353 C352 1.399 . S
C353 C354 1.376 . S
C353 H373 0.931 . S
C354 N349 1.338 . S
C354 C353 1.376 . S
C354 H365 0.930 . S
C355 O362 1.239 . S
C355 O363 1.230 . S
O356 Cd320 2.268 1_665 S
O356 C330 1.238 . S
O357 Cd321 2.273 1_665 S
O357 C330 1.253 . S
O358 Cd321 2.268 . S
O358 C347 1.238 . S
O359 Cd320 2.273 . S
O359 C347 1.253 . S
O360 Cd320 2.417 1_665 S
O360 C348 1.239 . S
O361 Cd320 2.330 1_665 S
O361 C348 1.230 . S
O362 Cd321 2.417 . S
O362 C355 1.239 . S
O363 Cd321 2.330 . S
O363 C355 1.230 . S
H364 C350 0.929 . S
H365 C354 0.930 . S
H366 C324 0.931 . S
H367 C326 0.930 . S
H368 C332 0.929 . S
H369 C334 0.931 1_455 S
H370 C341 0.942 1_545 S
H371 C343 0.930 . S
H372 C351 0.929 . S
H373 C353 0.931 . S
Cd374 N377 2.334 . S
Cd374 N403 2.304 1_565 S
Cd374 O410 2.268 . S
Cd374 O413 2.273 1_565 S
Cd374 O414 2.417 . S
Cd374 O415 2.330 . S
Cd375 N390 2.304 . S
Cd375 N394 2.334 1_545 S
Cd375 O411 2.273 1_544 S
Cd375 O412 2.268 . S
Cd375 O416 2.417 1_554 S
Cd375 O417 2.330 1_554 S
C376 N377 1.332 . S
C376 C380 1.381 . S
C376 H382 0.931 . S
N377 Cd374 2.334 . S
N377 C376 1.332 . S
N377 C381 1.328 . S
C378 C379 1.396 . S
C378 C381 1.378 . S
C378 H420 0.931 . S
C379 C378 1.396 . S
C379 C380 1.382 . S
C380 C376 1.381 . S
C380 C379 1.382 . S
C380 H421 0.930 . S
C381 N377 1.328 . S
C381 C378 1.378 . S
C381 H383 0.930 . S
H382 C376 0.931 . S
H383 C381 0.930 . S
C384 O410 1.238 1_556 S
C384 O411 1.253 . S
C385 C386 1.379 . S
C385 N390 1.337 1_556 S
C385 H391 0.929 . S
C386 C385 1.379 . S
C386 C387 1.380 1_556 S
C386 H422 0.929 . S
C387 C386 1.380 1_554 S
C387 C388 1.399 . S
C388 C387 1.399 . S
C388 C389 1.376 . S
C388 H423 0.931 . S
C389 C388 1.376 . S
C389 N390 1.338 . S
C389 H392 0.930 . S
N390 Cd375 2.304 . S
N390 C385 1.337 1_554 S
N390 C389 1.338 . S
H391 C385 0.929 . S
H392 C389 0.930 . S
C393 N394 1.332 1_556 S
C393 C397 1.381 . S
C393 H399 0.931 . S
N394 Cd375 2.334 1_565 S
N394 C393 1.332 1_554 S
N394 C398 1.328 1_565 S
C395 C396 1.375 1_554 S
C395 C398 1.378 1_565 S
C395 H424 0.931 . S
C396 C395 1.375 1_556 S
C396 C397 1.405 . S
C397 C393 1.381 . S
C397 C396 1.405 . S
C397 H425 0.930 . S
C398 N394 1.328 1_545 S
C398 C395 1.378 1_545 S
C398 H400 0.930 . S
H399 C393 0.931 . S
H400 C398 0.930 . S
C401 O412 1.238 . S
C401 O413 1.253 . S
C402 O414 1.239 . S
C402 O415 1.230 . S
N403 Cd374 2.304 1_545 S
N403 C404 1.337 . S
N403 C408 1.338 . S
C404 N403 1.337 . S
C404 C405 1.379 . S
C404 H418 0.929 . S
C405 C404 1.379 . S
C405 C406 1.380 . S
C405 H426 0.929 . S
C406 C405 1.380 . S
C406 C407 1.399 . S
C407 C406 1.399 . S
C407 C408 1.376 . S
C407 H427 0.931 . S
C408 N403 1.338 . S
C408 C407 1.376 . S
C408 H419 0.930 1_545 S
C409 O416 1.239 . S
C409 O417 1.230 . S
O410 Cd374 2.268 . S
O410 C384 1.238 1_554 S
O411 Cd375 2.273 1_566 S
O411 C384 1.253 . S
O412 Cd375 2.268 . S
O412 C401 1.238 . S
O413 Cd374 2.273 1_545 S
O413 C401 1.253 . S
O414 Cd374 2.417 . S
O414 C402 1.239 . S
O415 Cd374 2.330 . S
O415 C402 1.230 . S
O416 Cd375 2.417 1_556 S
O416 C409 1.239 . S
O417 Cd375 2.330 1_556 S
O417 C409 1.230 . S
H418 C404 0.929 . S
H419 C408 0.930 1_565 S
H420 C378 0.931 . S
H421 C380 0.930 . S
H422 C386 0.929 . S
H423 C388 0.931 . S
H424 C395 0.931 . S
H425 C397 0.930 . S
H426 C405 0.929 . S
H427 C407 0.931 . S
Cd428 N431 2.334 . S
Cd428 N457 2.304 1_455 S
Cd428 O464 2.268 1_454 S
Cd428 O467 2.273 . S
Cd428 O468 2.417 1_455 S
Cd428 O469 2.339 . S
Cd429 N444 2.304 . S
Cd429 N448 2.334 . S
Cd429 O465 2.273 . S
Cd429 O466 2.268 1_556 S
Cd429 O470 2.417 . S
Cd429 O471 2.330 . S
C430 N431 1.332 . S
C430 C434 1.381 . S
C430 H436 0.931 . S
N431 Cd428 2.334 . S
N431 C430 1.332 . S
N431 C435 1.328 . S
C432 C433 1.396 . S
C432 C435 1.378 . S
C432 H474 0.931 1_554 S
C433 C432 1.396 . S
C433 C434 1.382 . S
C434 C430 1.381 . S
C434 C433 1.382 . S
C434 H475 0.930 . S
C435 N431 1.328 . S
C435 C432 1.378 . S
C435 H437 0.930 1_554 S
H436 C430 0.931 . S
H437 C435 0.930 1_556 S
C438 O464 1.238 . S
C438 O465 1.253 1_655 S
C439 C440 1.379 . S
C439 N444 1.337 1_655 S
C439 H445 0.929 . S
C440 C439 1.379 . S
C440 C441 1.380 . S
C440 H476 0.929 . S
C441 C440 1.380 . S
C441 C442 1.399 1_655 S
C442 C441 1.399 1_455 S
C442 C443 1.376 . S
C442 H477 0.931 1_556 S
C443 C442 1.376 . S
C443 N444 1.338 . S
C443 H446 0.930 1_556 S
N444 Cd429 2.304 . S
N444 C439 1.337 1_455 S
N444 C443 1.338 . S
H445 C439 0.929 . S
H446 C443 0.930 1_554 S
C447 N448 1.332 . S
C447 C451 1.381 . S
C447 H453 0.931 . S
N448 Cd429 2.334 . S
N448 C447 1.332 . S
N448 C452 1.328 . S
C449 C450 1.396 . S
C449 C452 1.378 . S
C449 H478 0.931 1_556 S
C450 C449 1.396 . S
C450 C451 1.382 . S
C451 C447 1.381 . S
C451 C450 1.382 . S
C451 H479 0.930 . S
C452 N448 1.328 . S
C452 C449 1.378 . S
C452 H454 0.930 1_556 S
H453 C447 0.931 . S
H454 C452 0.930 1_554 S
C455 O466 1.238 . S
C455 O467 1.253 . S
C456 O468 1.239 . S
C456 O469 1.215 1_655 S
N457 Cd428 2.304 1_655 S
N457 C458 1.337 . S
N457 C462 1.338 . S
C458 N457 1.337 . S
C458 C459 1.379 . S
C458 H472 0.929 1_655 S
C459 C458 1.379 . S
C459 C460 1.380 . S
C459 H480 0.929 . S
C460 C459 1.380 . S
C460 C461 1.399 . S
C461 C460 1.399 . S
C461 C462 1.376 . S
C461 H481 0.931 1_554 S
C462 N457 1.338 . S
C462 C461 1.376 . S
C462 H473 0.930 1_554 S
C463 O470 1.239 . S
C463 O471 1.230 . S
O464 Cd428 2.268 1_656 S
O464 C438 1.238 . S
O465 Cd429 2.273 . S
O465 C438 1.253 1_455 S
O466 Cd429 2.268 1_554 S
O466 C455 1.238 . S
O467 Cd428 2.273 . S
O467 C455 1.253 . S
O468 Cd428 2.417 1_655 S
O468 C456 1.239 . S
O469 Cd428 2.339 . S
O469 C456 1.215 1_455 S
O470 Cd429 2.417 . S
O470 C463 1.239 . S
O471 Cd429 2.330 . S
O471 C463 1.230 . S
H472 C458 0.929 1_455 S
H473 C462 0.930 1_556 S
H474 C432 0.931 1_556 S
H475 C434 0.930 . S
H476 C440 0.929 . S
H477 C442 0.931 1_554 S
H478 C449 0.931 1_554 S
H479 C451 0.930 . S
H480 C459 0.929 . S
H481 C461 0.931 1_556 S
Cd482 N485 2.334 . S
Cd482 N511 2.304 . S
Cd482 O518 2.268 . S
Cd482 O521 2.273 . S
Cd482 O522 2.417 . S
Cd482 O523 2.330 . S
Cd483 N498 2.304 . S
Cd483 N502 2.334 . S
Cd483 O519 2.273 . S
Cd483 O520 2.268 1_556 S
Cd483 O524 2.417 . S
Cd483 O525 2.330 . S
C484 N485 1.332 . S
C484 C488 1.381 . S
C484 H490 0.931 . S
N485 Cd482 2.334 . S
N485 C484 1.332 . S
N485 C489 1.328 . S
C486 C487 1.396 . S
C486 C489 1.378 . S
C486 H528 0.931 . S
C487 C486 1.396 . S
C487 C488 1.382 . S
C488 C484 1.381 . S
C488 C487 1.382 . S
C488 H529 0.930 . S
C489 N485 1.328 . S
C489 C486 1.378 . S
C489 H491 0.930 . S
H490 C484 0.931 . S
H491 C489 0.930 . S
C492 O518 1.238 1_556 S
C492 O519 1.253 . S
C493 C494 1.379 . S
C493 N498 1.337 . S
C493 H499 0.929 . S
C494 C493 1.379 . S
C494 C495 1.380 . S
C494 H530 0.929 . S
C495 C494 1.380 . S
C495 C496 1.399 1_556 S
C496 C495 1.399 1_554 S
C496 C497 1.376 . S
C496 H531 0.931 . S
C497 C496 1.376 . S
C497 N498 1.338 1_554 S
C497 H500 0.930 . S
N498 Cd483 2.304 . S
N498 C493 1.337 . S
N498 C497 1.338 1_556 S
H499 C493 0.929 . S
H500 C497 0.930 . S
C501 N502 1.332 . S
C501 C505 1.381 . S
C501 H507 0.931 . S
N502 Cd483 2.334 . S
N502 C501 1.332 . S
N502 C506 1.328 1_556 S
C503 C504 1.396 1_554 S
C503 C506 1.378 . S
C503 H532 0.931 . S
C504 C503 1.396 1_556 S
C504 C505 1.382 . S
C505 C501 1.381 . S
C505 C504 1.382 . S
C505 H533 0.930 . S
C506 N502 1.328 1_554 S
C506 C503 1.378 . S
C506 H508 0.930 . S
H507 C501 0.931 . S
H508 C506 0.930 . S
C509 O520 1.238 . S
C509 O521 1.253 . S
C510 O522 1.239 . S
C510 O523 1.230 . S
N511 Cd482 2.304 . S
N511 C512 1.337 . S
N511 C516 1.338 . S
C512 N511 1.337 . S
C512 C513 1.379 . S
C512 H526 0.929 . S
C513 C512 1.379 . S
C513 C514 1.380 . S
C513 H534 0.929 . S
C514 C513 1.380 . S
C514 C515 1.399 . S
C515 C514 1.399 . S
C515 C516 1.376 . S
C515 H535 0.931 . S
C516 N511 1.338 . S
C516 C515 1.376 . S
C516 H527 0.930 . S
C517 O524 1.239 . S
C517 O525 1.230 . S
O518 Cd482 2.268 . S
O518 C492 1.238 1_554 S
O519 Cd483 2.273 . S
O519 C492 1.253 . S
O520 Cd483 2.268 1_554 S
O520 C509 1.238 . S
O521 Cd482 2.273 . S
O521 C509 1.253 . S
O522 Cd482 2.417 . S
O522 C510 1.239 . S
O523 Cd482 2.330 . S
O523 C510 1.230 . S
O524 Cd483 2.417 . S
O524 C517 1.239 . S
O525 Cd483 2.330 . S
O525 C517 1.230 . S
H526 C512 0.929 . S
H527 C516 0.930 . S
H528 C486 0.931 . S
H529 C488 0.930 . S
H530 C494 0.929 . S
H531 C496 0.931 . S
H532 C503 0.931 . S
H533 C505 0.930 . S
H534 C513 0.929 . S
H535 C515 0.931 . S
Cd536 N539 2.334 1_655 S
Cd536 N565 2.304 . S
Cd536 O572 2.268 . S
Cd536 O575 2.273 1_655 S
Cd536 O576 2.417 . S
Cd536 O577 2.330 . S
Cd537 N552 2.304 1_455 S
Cd537 N556 2.334 . S
Cd537 O573 2.273 1_455 S
Cd537 O574 2.268 . S
Cd537 O578 2.417 . S
Cd537 O579 2.330 . S
C538 N539 1.332 . S
C538 C542 1.381 . S
C538 H544 0.931 . S
N539 Cd536 2.334 1_455 S
N539 C538 1.332 . S
N539 C543 1.328 . S
C540 C541 1.396 . S
C540 C543 1.378 . S
C540 H582 0.931 . S
C541 C540 1.396 . S
C541 C542 1.382 . S
C542 C538 1.381 . S
C542 C541 1.382 . S
C542 H583 0.930 . S
C543 N539 1.328 . S
C543 C540 1.378 . S
C543 H545 0.930 1_455 S
H544 C538 0.931 . S
H545 C543 0.930 1_655 S
C546 O572 1.238 . S
C546 O573 1.253 . S
C547 C548 1.379 . S
C547 N552 1.337 . S
C547 H553 0.929 . S
C548 C547 1.379 . S
C548 C549 1.380 . S
C548 H584 0.929 . S
C549 C548 1.380 . S
C549 C550 1.399 . S
C550 C549 1.399 . S
C550 C551 1.358 1_655 S
C550 H585 0.931 . S
C551 C550 1.358 1_455 S
C551 N552 1.343 1_455 S
C551 H554 0.944 . S
N552 Cd537 2.304 1_655 S
N552 C547 1.337 . S
N552 C551 1.343 1_655 S
H553 C547 0.929 . S
H554 C551 0.944 . S
C555 N556 1.332 . S
C555 C559 1.381 . S
C555 H561 0.931 . S
N556 Cd537 2.334 . S
N556 C555 1.332 . S
N556 C560 1.328 . S
C557 C558 1.396 . S
C557 C560 1.378 . S
C557 H586 0.931 . S
C558 C557 1.396 . S
C558 C559 1.382 . S
C559 C555 1.381 . S
C559 C558 1.382 . S
C559 H587 0.930 . S
C560 N556 1.328 . S
C560 C557 1.378 . S
C560 H562 0.930 . S
H561 C555 0.931 . S
H562 C560 0.930 . S
C563 O574 1.238 . S
C563 O575 1.253 . S
C564 O576 1.239 . S
C564 O577 1.230 . S
N565 Cd536 2.304 . S
N565 C566 1.337 . S
N565 C570 1.338 . S
C566 N565 1.337 . S
C566 C567 1.379 . S
C566 H580 0.929 . S
C567 C566 1.379 . S
C567 C568 1.380 . S
C567 H588 0.929 . S
C568 C567 1.380 . S
C568 C569 1.399 . S
C569 C568 1.399 . S
C569 C570 1.376 . S
C569 H589 0.931 . S
C570 N565 1.338 . S
C570 C569 1.376 . S
C570 H581 0.930 . S
C571 O578 1.239 . S
C571 O579 1.230 . S
O572 Cd536 2.268 . S
O572 C546 1.238 . S
O573 Cd537 2.273 1_655 S
O573 C546 1.253 . S
O574 Cd537 2.268 . S
O574 C563 1.238 . S
O575 Cd536 2.273 1_455 S
O575 C563 1.253 . S
O576 Cd536 2.417 . S
O576 C564 1.239 . S
O577 Cd536 2.330 . S
O577 C564 1.230 . S
O578 Cd537 2.417 . S
O578 C571 1.239 . S
O579 Cd537 2.330 . S
O579 C571 1.230 . S
H580 C566 0.929 . S
H581 C570 0.930 . S
H582 C540 0.931 . S
H583 C542 0.930 . S
H584 C548 0.929 . S
H585 C550 0.931 . S
H586 C557 0.931 . S
H587 C559 0.930 . S
H588 C567 0.929 . S
H589 C569 0.931 . S
Cd590 N593 2.334 1_545 S
Cd590 N619 2.304 . S
Cd590 O626 2.268 1_545 S
Cd590 O629 2.273 . S
Cd590 O630 2.417 1_545 S
Cd590 O631 2.330 . S
Cd591 N606 2.304 . S
Cd591 N610 2.334 . S
Cd591 O627 2.273 . S
Cd591 O628 2.268 . S
Cd591 O632 2.417 . S
Cd591 O633 2.330 . S
C592 N593 1.329 . S
C592 C596 1.395 . S
C592 H598 0.919 1_565 S
N593 Cd590 2.334 1_565 S
N593 C592 1.329 . S
N593 C597 1.328 . S
C594 C595 1.396 . S
C594 C597 1.378 . S
C594 H636 0.931 . S
C595 C594 1.396 . S
C595 C596 1.382 . S
C596 C592 1.395 . S
C596 C595 1.382 . S
C596 H637 0.930 . S
C597 N593 1.328 . S
C597 C594 1.378 . S
C597 H599 0.930 . S
H598 C592 0.919 1_545 S
H599 C597 0.930 . S
C600 O626 1.238 . S
C600 O627 1.253 1_565 S
C601 C602 1.379 . S
C601 N606 1.337 . S
C601 H607 0.929 . S
C602 C601 1.379 . S
C602 C603 1.380 . S
C602 H638 0.929 . S
C603 C602 1.380 . S
C603 C604 1.399 . S
C604 C603 1.399 . S
C604 C605 1.376 . S
C604 H639 0.931 . S
C605 C604 1.376 . S
C605 N606 1.338 . S
C605 H608 0.930 . S
N606 Cd591 2.304 . S
N606 C601 1.337 . S
N606 C605 1.338 . S
H607 C601 0.929 . S
H608 C605 0.930 . S
C609 N610 1.332 1_565 S
C609 C613 1.381 . S
C609 H615 0.931 . S
N610 Cd591 2.334 . S
N610 C609 1.332 1_545 S
N610 C614 1.328 . S
C611 C612 1.396 1_545 S
C611 C614 1.378 . S
C611 H640 0.931 . S
C612 C611 1.396 1_565 S
C612 C613 1.382 . S
C613 C609 1.381 . S
C613 C612 1.382 . S
C613 H641 0.930 . S
C614 N610 1.328 . S
C614 C611 1.378 . S
C614 H616 0.930 . S
H615 C609 0.931 . S
H616 C614 0.930 . S
C617 O628 1.238 . S
C617 O629 1.253 . S
C618 O630 1.239 . S
C618 O631 1.230 1_565 S
N619 Cd590 2.304 . S
N619 C620 1.337 . S
N619 C624 1.338 . S
C620 N619 1.337 . S
C620 C621 1.379 . S
C620 H634 0.929 . S
C621 C620 1.379 . S
C621 C622 1.380 . S
C621 H642 0.929 . S
C622 C621 1.380 . S
C622 C623 1.399 . S
C623 C622 1.399 . S
C623 C624 1.376 . S
C623 H643 0.931 . S
C624 N619 1.338 . S
C624 C623 1.376 . S
C624 H635 0.930 . S
C625 O632 1.239 . S
C625 O633 1.230 . S
O626 Cd590 2.268 1_565 S
O626 C600 1.238 . S
O627 Cd591 2.273 . S
O627 C600 1.253 1_545 S
O628 Cd591 2.268 . S
O628 C617 1.238 . S
O629 Cd590 2.273 . S
O629 C617 1.253 . S
O630 Cd590 2.417 1_565 S
O630 C618 1.239 . S
O631 Cd590 2.330 . S
O631 C618 1.230 1_545 S
O632 Cd591 2.417 . S
O632 C625 1.239 . S
O633 Cd591 2.330 . S
O633 C625 1.230 . S
H634 C620 0.929 . S
H635 C624 0.930 . S
H636 C594 0.931 . S
H637 C596 0.930 . S
H638 C602 0.929 . S
H639 C604 0.931 . S
H640 C611 0.931 . S
H641 C613 0.930 . S
H642 C621 0.929 . S
H643 C623 0.931 . S
H644 C662 0.951 . S
H645 C664 0.951 . S
H646 C666 0.950 . S
H647 C667 0.950 . S
H648 C669 0.950 . S
H649 C672 0.950 . S
H650 C673 0.950 . S
H651 C675 0.950 . S
H652 C676 0.950 . S
H653 C677 0.951 . S
H654 C679 0.951 . S
H655 C681 0.950 . S
H656 C682 0.950 . S
H657 C684 0.950 . S
H658 C687 0.950 . S
H659 C688 0.950 . S
H660 C690 0.950 . S
H661 C691 0.950 . S
C662 H644 0.951 . S
C662 C663 1.366 . S
C662 C664 1.388 . S
C663 C662 1.366 . S
C663 C667 1.385 . S
C664 H645 0.951 . S
C664 C662 1.388 . S
C664 C665 1.366 . S
C665 C664 1.366 . S
C665 C666 1.414 . S
C665 C668 1.499 . S
C666 H646 0.950 . S
C666 C665 1.414 . S
C666 C667 1.374 . S
C667 H647 0.950 . S
C667 C663 1.385 . S
C667 C666 1.374 . S
C668 C665 1.499 . S
C668 C669 1.373 . S
C668 C670 1.389 . S
C669 H648 0.950 . S
C669 C668 1.373 . S
C669 C685 1.377 . S
C670 C668 1.389 . S
C670 C671 1.524 . S
C670 C684 1.377 . S
C671 C670 1.524 . S
C671 C672 1.397 . S
C671 C676 1.363 . S
C672 H649 0.950 . S
C672 C671 1.397 . S
C672 C673 1.334 . S
C673 H650 0.950 . S
C673 C672 1.334 . S
C673 C674 1.287 . S
C674 C673 1.287 . S
C674 C675 1.524 . S
C674 H693 0.913 . S
C675 H651 0.950 . S
C675 C674 1.524 . S
C675 C676 1.415 . S
C676 H652 0.950 . S
C676 C671 1.363 . S
C676 C675 1.415 . S
C677 H653 0.951 . S
C677 C678 1.366 . S
C677 C679 1.388 . S
C678 C677 1.366 . S
C678 C682 1.385 . S
C679 H654 0.951 . S
C679 C677 1.388 . S
C679 C680 1.366 . S
C680 C679 1.366 . S
C680 C681 1.414 . S
C680 C683 1.499 . S
C681 H655 0.950 . S
C681 C680 1.414 . S
C681 C682 1.374 . S
C682 H656 0.950 . S
C682 C678 1.385 . S
C682 C681 1.374 . S
C683 C680 1.499 . S
C683 C684 1.373 . S
C683 C685 1.389 . S
C684 H657 0.950 . S
C684 C670 1.377 . S
C684 C683 1.373 . S
C685 C669 1.377 . S
C685 C683 1.389 . S
C685 C686 1.524 . S
C686 C685 1.524 . S
C686 C687 1.397 . S
C686 C691 1.363 . S
C687 H658 0.950 . S
C687 C686 1.397 . S
C687 C688 1.334 . S
C688 H659 0.950 . S
C688 C687 1.334 . S
C688 C689 1.287 . S
C689 C688 1.287 . S
C689 C690 1.524 . S
C689 H692 0.999 . S
C690 H660 0.950 . S
C690 C689 1.524 . S
C690 C691 1.415 . S
C691 H661 0.950 . S
C691 C686 1.363 . S
C691 C690 1.415 . S
H692 C689 0.999 . S
H693 C674 0.913 . S
H694 C712 0.951 . S
H695 C714 0.951 . S
H696 C716 0.950 . S
H697 C717 0.950 . S
H698 C719 0.950 . S
H699 C722 0.950 . S
H700 C723 0.950 . S
H701 C725 0.950 . S
H702 C726 0.950 . S
H703 C727 0.951 . S
H704 C729 0.951 . S
H705 C731 0.950 . S
H706 C732 0.950 . S
H707 C734 0.950 . S
H708 C737 0.950 . S
H709 C738 0.950 . S
H710 C740 0.950 . S
H711 C741 0.950 . S
C712 H694 0.951 . S
C712 C713 1.366 . S
C712 C714 1.388 . S
C713 C712 1.366 . S
C713 C717 1.385 . S
C714 H695 0.951 . S
C714 C712 1.388 . S
C714 C715 1.366 . S
C715 C714 1.366 . S
C715 C716 1.414 . S
C715 C718 1.499 . S
C716 H696 0.950 . S
C716 C715 1.414 . S
C716 C717 1.374 . S
C717 H697 0.950 . S
C717 C713 1.385 . S
C717 C716 1.374 . S
C718 C715 1.499 . S
C718 C719 1.373 . S
C718 C720 1.389 . S
C719 H698 0.950 . S
C719 C718 1.373 . S
C719 C735 1.377 . S
C720 C718 1.389 . S
C720 C721 1.524 . S
C720 C734 1.377 . S
C721 C720 1.524 . S
C721 C722 1.397 . S
C721 C726 1.363 . S
C722 H699 0.950 . S
C722 C721 1.397 . S
C722 C723 1.334 . S
C723 H700 0.950 . S
C723 C722 1.334 . S
C723 C724 1.287 . S
C724 C723 1.287 . S
C724 C725 1.524 . S
C724 H743 0.913 . S
C725 H701 0.950 . S
C725 C724 1.524 . S
C725 C726 1.415 . S
C726 H702 0.950 . S
C726 C721 1.363 . S
C726 C725 1.415 . S
C727 H703 0.951 . S
C727 C728 1.366 . S
C727 C729 1.388 . S
C728 C727 1.366 . S
C728 C732 1.385 . S
C729 H704 0.951 . S
C729 C727 1.388 . S
C729 C730 1.366 . S
C730 C729 1.366 . S
C730 C731 1.414 . S
C730 C733 1.499 . S
C731 H705 0.950 . S
C731 C730 1.414 . S
C731 C732 1.374 . S
C732 H706 0.950 . S
C732 C728 1.385 . S
C732 C731 1.374 . S
C733 C730 1.499 . S
C733 C734 1.373 . S
C733 C735 1.389 . S
C734 H707 0.950 . S
C734 C720 1.377 . S
C734 C733 1.373 . S
C735 C719 1.377 . S
C735 C733 1.389 . S
C735 C736 1.524 . S
C736 C735 1.524 . S
C736 C737 1.397 . S
C736 C741 1.363 . S
C737 H708 0.950 . S
C737 C736 1.397 . S
C737 C738 1.334 . S
C738 H709 0.950 . S
C738 C737 1.334 . S
C738 C739 1.287 . S
C739 C738 1.287 . S
C739 C740 1.524 . S
C739 H742 0.999 . S
C740 H710 0.950 . S
C740 C739 1.524 . S
C740 C741 1.415 . S
C741 H711 0.950 . S
C741 C736 1.363 . S
C741 C740 1.415 . S
H742 C739 0.999 . S
H743 C724 0.913 . S
H744 C762 0.951 . S
H745 C764 0.951 . S
H746 C766 0.950 . S
H747 C767 0.950 . S
H748 C769 0.950 . S
H749 C772 0.950 . S
H750 C773 0.950 . S
H751 C775 0.950 . S
H752 C776 0.950 . S
H753 C777 0.957 . S
H754 C779 0.951 . S
H755 C781 0.950 . S
H756 C782 0.950 . S
H757 C784 0.950 . S
H758 C787 0.950 . S
H759 C788 0.950 . S
H760 C790 0.950 . S
H761 C791 0.950 . S
C762 H744 0.951 . S
C762 C763 1.366 . S
C762 C764 1.388 . S
C763 C762 1.366 . S
C763 C767 1.385 . S
C764 H745 0.951 . S
C764 C762 1.388 . S
C764 C765 1.366 . S
C765 C764 1.366 . S
C765 C766 1.414 . S
C765 C768 1.499 . S
C766 H746 0.950 . S
C766 C765 1.414 . S
C766 C767 1.374 . S
C767 H747 0.950 . S
C767 C763 1.385 . S
C767 C766 1.374 . S
C768 C765 1.499 . S
C768 C769 1.373 . S
C768 C770 1.389 . S
C769 H748 0.950 . S
C769 C768 1.373 . S
C769 C785 1.377 . S
C770 C768 1.389 . S
C770 C771 1.524 . S
C770 C784 1.377 . S
C771 C770 1.524 . S
C771 C772 1.397 . S
C771 C776 1.363 . S
C772 H749 0.950 . S
C772 C771 1.397 . S
C772 C773 1.334 . S
C773 H750 0.950 . S
C773 C772 1.334 . S
C773 C774 1.287 . S
C774 C773 1.287 . S
C774 C775 1.524 . S
C774 H793 0.913 . S
C775 H751 0.950 . S
C775 C774 1.524 . S
C775 C776 1.415 . S
C776 H752 0.950 . S
C776 C771 1.363 . S
C776 C775 1.415 . S
C777 H753 0.957 . S
C777 C778 1.366 . S
C777 C779 1.388 . S
C778 C777 1.366 . S
C778 C782 1.385 . S
C779 H754 0.951 . S
C779 C777 1.388 . S
C779 C780 1.366 . S
C780 C779 1.366 . S
C780 C781 1.414 . S
C780 C783 1.499 . S
C781 H755 0.950 . S
C781 C780 1.414 . S
C781 C782 1.374 . S
C782 H756 0.950 . S
C782 C778 1.385 . S
C782 C781 1.374 . S
C783 C780 1.499 . S
C783 C784 1.373 . S
C783 C785 1.389 . S
C784 H757 0.950 . S
C784 C770 1.377 . S
C784 C783 1.373 . S
C785 C769 1.377 . S
C785 C783 1.389 . S
C785 C786 1.524 . S
C786 C785 1.524 . S
C786 C787 1.397 . S
C786 C791 1.363 . S
C787 H758 0.950 . S
C787 C786 1.397 . S
C787 C788 1.334 . S
C788 H759 0.950 . S
C788 C787 1.334 . S
C788 C789 1.287 . S
C789 C788 1.287 . S
C789 C790 1.524 . S
C789 H792 0.999 . S
C790 H760 0.950 . S
C790 C789 1.524 . S
C790 C791 1.415 . S
C791 H761 0.950 . S
C791 C786 1.363 . S
C791 C790 1.415 . S
H792 C789 0.999 . S
H793 C774 0.913 . S
H794 C812 0.951 . S
H795 C814 0.951 . S
H796 C816 0.950 . S
H797 C817 0.950 . S
H798 C819 0.950 . S
H799 C822 0.950 . S
H800 C823 0.950 . S
H801 C825 0.950 . S
H802 C826 0.950 . S
H803 C827 0.951 . S
H804 C829 0.951 . S
H805 C831 0.950 . S
H806 C832 0.950 . S
H807 C834 0.950 . S
H808 C837 0.950 . S
H809 C838 0.950 . S
H810 C840 0.950 . S
H811 C841 0.950 . S
C812 H794 0.951 . S
C812 C813 1.366 . S
C812 C814 1.388 . S
C813 C812 1.366 . S
C813 C817 1.385 . S
C814 H795 0.951 . S
C814 C812 1.388 . S
C814 C815 1.366 . S
C815 C814 1.366 . S
C815 C816 1.414 . S
C815 C818 1.499 . S
C816 H796 0.950 . S
C816 C815 1.414 . S
C816 C817 1.374 . S
C817 H797 0.950 . S
C817 C813 1.385 . S
C817 C816 1.374 . S
C818 C815 1.499 . S
C818 C819 1.373 . S
C818 C820 1.389 . S
C819 H798 0.950 . S
C819 C818 1.373 . S
C819 C835 1.377 . S
C820 C818 1.389 . S
C820 C821 1.524 . S
C820 C834 1.377 . S
C821 C820 1.524 . S
C821 C822 1.397 . S
C821 C826 1.363 . S
C822 H799 0.950 . S
C822 C821 1.397 . S
C822 C823 1.334 . S
C823 H800 0.950 . S
C823 C822 1.334 . S
C823 C824 1.287 . S
C824 C823 1.287 . S
C824 C825 1.524 . S
C824 H843 0.913 . S
C825 H801 0.950 . S
C825 C824 1.524 . S
C825 C826 1.415 . S
C826 H802 0.950 . S
C826 C821 1.363 . S
C826 C825 1.415 . S
C827 H803 0.951 . S
C827 C828 1.366 . S
C827 C829 1.388 . S
C828 C827 1.366 . S
C828 C832 1.385 . S
C829 H804 0.951 . S
C829 C827 1.388 . S
C829 C830 1.366 . S
C830 C829 1.366 . S
C830 C831 1.414 . S
C830 C833 1.499 . S
C831 H805 0.950 . S
C831 C830 1.414 . S
C831 C832 1.374 . S
C832 H806 0.950 . S
C832 C828 1.385 . S
C832 C831 1.374 . S
C833 C830 1.499 . S
C833 C834 1.373 . S
C833 C835 1.389 . S
C834 H807 0.950 . S
C834 C820 1.377 . S
C834 C833 1.373 . S
C835 C819 1.377 . S
C835 C833 1.389 . S
C835 C836 1.524 . S
C836 C835 1.524 . S
C836 C837 1.397 . S
C836 C841 1.363 . S
C837 H808 0.950 . S
C837 C836 1.397 . S
C837 C838 1.334 . S
C838 H809 0.950 . S
C838 C837 1.334 . S
C838 C839 1.287 . S
C839 C838 1.287 . S
C839 C840 1.524 . S
C839 H842 0.999 . S
C840 H810 0.950 . S
C840 C839 1.524 . S
C840 C841 1.415 . S
C841 H811 0.950 . S
C841 C836 1.363 . S
C841 C840 1.415 . S
H842 C839 0.999 . S
H843 C824 0.913 . S
H844 C862 0.951 . S
H845 C864 0.951 . S
H846 C866 0.950 . S
H847 C867 0.950 . S
H848 C869 0.950 . S
H849 C872 0.950 . S
H850 C873 0.950 . S
H851 C875 0.950 . S
H852 C876 0.950 . S
H853 C877 0.951 . S
H854 C879 0.951 . S
H855 C881 0.950 . S
H856 C882 0.950 . S
H857 C884 0.950 . S
H858 C887 0.950 . S
H859 C888 0.950 1_545 S
H860 C890 0.950 . S
H861 C891 0.950 . S
C862 H844 0.951 . S
C862 C863 1.366 . S
C862 C864 1.388 . S
C863 C862 1.366 . S
C863 C867 1.385 . S
C864 H845 0.951 . S
C864 C862 1.388 . S
C864 C865 1.366 . S
C865 C864 1.366 . S
C865 C866 1.414 . S
C865 C868 1.499 . S
C866 H846 0.950 . S
C866 C865 1.414 . S
C866 C867 1.374 . S
C867 H847 0.950 . S
C867 C863 1.385 . S
C867 C866 1.374 . S
C868 C865 1.499 . S
C868 C869 1.373 . S
C868 C870 1.389 . S
C869 H848 0.950 . S
C869 C868 1.373 . S
C869 C885 1.377 . S
C870 C868 1.389 . S
C870 C871 1.524 . S
C870 C884 1.377 . S
C871 C870 1.524 . S
C871 C872 1.397 . S
C871 C876 1.363 . S
C872 H849 0.950 . S
C872 C871 1.397 . S
C872 C873 1.334 . S
C873 H850 0.950 . S
C873 C872 1.334 . S
C873 C874 1.287 . S
C874 C873 1.287 . S
C874 C875 1.524 . S
C874 H893 0.913 . S
C875 H851 0.950 . S
C875 C874 1.524 . S
C875 C876 1.415 . S
C876 H852 0.950 . S
C876 C871 1.363 . S
C876 C875 1.415 . S
C877 H853 0.951 . S
C877 C878 1.366 . S
C877 C879 1.388 . S
C878 C877 1.366 . S
C878 C882 1.385 . S
C879 H854 0.951 . S
C879 C877 1.388 . S
C879 C880 1.366 . S
C880 C879 1.366 . S
C880 C881 1.414 . S
C880 C883 1.499 . S
C881 H855 0.950 . S
C881 C880 1.414 . S
C881 C882 1.374 . S
C882 H856 0.950 . S
C882 C878 1.385 . S
C882 C881 1.374 . S
C883 C880 1.499 . S
C883 C884 1.373 . S
C883 C885 1.389 . S
C884 H857 0.950 . S
C884 C870 1.377 . S
C884 C883 1.373 . S
C885 C869 1.377 . S
C885 C883 1.389 . S
C885 C886 1.524 . S
C886 C885 1.524 . S
C886 C887 1.397 . S
C886 C891 1.363 . S
C887 H858 0.950 . S
C887 C886 1.397 . S
C887 C888 1.334 . S
C888 H859 0.950 1_565 S
C888 C887 1.334 . S
C888 C889 1.287 . S
C889 C888 1.287 . S
C889 C890 1.524 . S
C889 H892 0.999 1_565 S
C890 H860 0.950 . S
C890 C889 1.524 . S
C890 C891 1.415 . S
C891 H861 0.950 . S
C891 C886 1.363 . S
C891 C890 1.415 . S
H892 C889 0.999 1_545 S
H893 C874 0.913 . S
H894 C912 0.951 . S
H895 C914 0.951 . S
H896 C916 0.950 . S
H897 C917 0.950 . S
H898 C919 0.950 . S
H899 C922 0.950 . S
H900 C923 0.950 . S
H901 C925 0.950 . S
H902 C926 0.950 . S
H903 C927 0.951 . S
H904 C929 0.951 . S
H905 C931 0.950 . S
H906 C932 0.950 . S
H907 C934 0.950 . S
H908 C937 0.950 . S
H909 C938 0.950 . S
H910 C940 0.950 . S
H911 C941 0.950 . S
C912 H894 0.951 . S
C912 C913 1.366 . S
C912 C914 1.388 . S
C913 C912 1.366 . S
C913 C917 1.385 . S
C914 H895 0.951 . S
C914 C912 1.388 . S
C914 C915 1.366 . S
C915 C914 1.366 . S
C915 C916 1.414 . S
C915 C918 1.499 . S
C916 H896 0.950 . S
C916 C915 1.414 . S
C916 C917 1.374 . S
C917 H897 0.950 . S
C917 C913 1.385 . S
C917 C916 1.374 . S
C918 C915 1.499 . S
C918 C919 1.373 . S
C918 C920 1.389 . S
C919 H898 0.950 . S
C919 C918 1.373 . S
C919 C935 1.377 . S
C920 C918 1.389 . S
C920 C921 1.524 . S
C920 C934 1.377 . S
C921 C920 1.524 . S
C921 C922 1.397 . S
C921 C926 1.363 . S
C922 H899 0.950 . S
C922 C921 1.397 . S
C922 C923 1.334 . S
C923 H900 0.950 . S
C923 C922 1.334 . S
C923 C924 1.287 . S
C924 C923 1.287 . S
C924 C925 1.524 . S
C924 H943 0.913 . S
C925 H901 0.950 . S
C925 C924 1.524 . S
C925 C926 1.415 . S
C926 H902 0.950 . S
C926 C921 1.363 . S
C926 C925 1.415 . S
C927 H903 0.951 . S
C927 C928 1.366 . S
C927 C929 1.388 . S
C928 C927 1.366 . S
C928 C932 1.385 . S
C929 H904 0.951 . S
C929 C927 1.388 . S
C929 C930 1.366 . S
C930 C929 1.366 . S
C930 C931 1.414 . S
C930 C933 1.499 . S
C931 H905 0.950 . S
C931 C930 1.414 . S
C931 C932 1.374 . S
C932 H906 0.950 . S
C932 C928 1.385 . S
C932 C931 1.374 . S
C933 C930 1.499 . S
C933 C934 1.373 . S
C933 C935 1.389 . S
C934 H907 0.950 . S
C934 C920 1.377 . S
C934 C933 1.373 . S
C935 C919 1.377 . S
C935 C933 1.389 . S
C935 C936 1.524 . S
C936 C935 1.524 . S
C936 C937 1.397 . S
C936 C941 1.363 . S
C937 H908 0.950 . S
C937 C936 1.397 . S
C937 C938 1.334 . S
C938 H909 0.950 . S
C938 C937 1.334 . S
C938 C939 1.287 . S
C939 C938 1.287 . S
C939 C940 1.524 . S
C939 H942 0.999 . S
C940 H910 0.950 . S
C940 C939 1.524 . S
C940 C941 1.415 . S
C941 H911 0.950 . S
C941 C936 1.363 . S
C941 C940 1.415 . S
H942 C939 0.999 . S
H943 C924 0.913 . S
H944 C962 0.951 . S
H945 C964 0.951 . S
H946 C966 0.950 . S
H947 C967 0.950 . S
H948 C969 0.950 . S
H949 C972 0.950 . S
H950 C973 0.950 . S
H951 C975 0.950 . S
H952 C976 0.950 . S
H953 C977 0.951 . S
H954 C979 0.951 . S
H955 C981 0.950 . S
H956 C982 0.950 . S
H957 C984 0.950 . S
H958 C987 0.950 . S
H959 C988 0.950 . S
H960 C990 0.950 1_455 S
H961 C991 0.950 . S
C962 H944 0.951 . S
C962 C963 1.366 . S
C962 C964 1.388 . S
C963 C962 1.366 . S
C963 C967 1.385 . S
C964 H945 0.951 . S
C964 C962 1.388 . S
C964 C965 1.366 . S
C965 C964 1.366 . S
C965 C966 1.414 . S
C965 C968 1.499 . S
C966 H946 0.950 . S
C966 C965 1.414 . S
C966 C967 1.374 . S
C967 H947 0.950 . S
C967 C963 1.385 . S
C967 C966 1.374 . S
C968 C965 1.499 . S
C968 C969 1.373 . S
C968 C970 1.389 . S
C969 H948 0.950 . S
C969 C968 1.373 . S
C969 C985 1.377 . S
C970 C968 1.389 . S
C970 C971 1.524 . S
C970 C984 1.377 . S
C971 C970 1.524 . S
C971 C972 1.397 . S
C971 C976 1.363 . S
C972 H949 0.950 . S
C972 C971 1.397 . S
C972 C973 1.334 . S
C973 H950 0.950 . S
C973 C972 1.334 . S
C973 C974 1.287 . S
C974 C973 1.287 . S
C974 C975 1.524 . S
C974 H993 0.913 . S
C975 H951 0.950 . S
C975 C974 1.524 . S
C975 C976 1.415 . S
C976 H952 0.950 . S
C976 C971 1.363 . S
C976 C975 1.415 . S
C977 H953 0.951 . S
C977 C978 1.366 . S
C977 C979 1.388 . S
C978 C977 1.366 . S
C978 C982 1.385 . S
C979 H954 0.951 . S
C979 C977 1.388 . S
C979 C980 1.366 . S
C980 C979 1.366 . S
C980 C981 1.414 . S
C980 C983 1.499 . S
C981 H955 0.950 . S
C981 C980 1.414 . S
C981 C982 1.374 . S
C982 H956 0.950 . S
C982 C978 1.385 . S
C982 C981 1.374 . S
C983 C980 1.499 . S
C983 C984 1.373 . S
C983 C985 1.389 . S
C984 H957 0.950 . S
C984 C970 1.377 . S
C984 C983 1.373 . S
C985 C969 1.377 . S
C985 C983 1.389 . S
C985 C986 1.524 . S
C986 C985 1.524 . S
C986 C987 1.397 . S
C986 C991 1.363 . S
C987 H958 0.950 . S
C987 C986 1.397 . S
C987 C988 1.334 1_655 S
C988 H959 0.950 . S
C988 C987 1.334 1_455 S
C988 C989 1.287 . S
C989 C988 1.287 . S
C989 C990 1.524 1_455 S
C989 H992 0.999 . S
C990 H960 0.950 1_655 S
C990 C989 1.524 1_655 S
C990 C991 1.415 . S
C991 H961 0.950 . S
C991 C986 1.363 . S
C991 C990 1.415 . S
H992 C989 0.999 . S
H993 C974 0.913 . S
H994 C1012 0.951 . S
H995 C1014 0.951 . S
H996 C1016 0.950 . S
H997 C1017 0.950 . S
H998 C1019 0.950 . S
H999 C1022 0.950 . S
H1000 C1023 0.950 . S
H1001 C1025 0.950 . S
H1002 C1026 0.950 . S
H1003 C1027 0.951 . S
H1004 C1029 0.951 . S
H1005 C1031 0.950 . S
H1006 C1032 0.950 . S
H1007 C1034 0.950 . S
H1008 C1037 0.950 . S
H1009 C1038 0.950 . S
H1010 C1040 0.950 . S
H1011 C1041 0.950 . S
C1012 H994 0.951 . S
C1012 C1013 1.366 . S
C1012 C1014 1.388 . S
C1013 C1012 1.366 . S
C1013 C1017 1.385 . S
C1014 H995 0.951 . S
C1014 C1012 1.388 . S
C1014 C1015 1.366 . S
C1015 C1014 1.366 . S
C1015 C1016 1.414 . S
C1015 C1018 1.499 . S
C1016 H996 0.950 . S
C1016 C1015 1.414 . S
C1016 C1017 1.374 . S
C1017 H997 0.950 . S
C1017 C1013 1.385 . S
C1017 C1016 1.374 . S
C1018 C1015 1.499 . S
C1018 C1019 1.373 . S
C1018 C1020 1.389 . S
C1019 H998 0.950 . S
C1019 C1018 1.373 . S
C1019 C1035 1.377 . S
C1020 C1018 1.389 . S
C1020 C1021 1.524 . S
C1020 C1034 1.377 . S
C1021 C1020 1.524 . S
C1021 C1022 1.397 . S
C1021 C1026 1.363 . S
C1022 H999 0.950 . S
C1022 C1021 1.397 . S
C1022 C1023 1.334 . S
C1023 H1000 0.950 . S
C1023 C1022 1.334 . S
C1023 C1024 1.287 . S
C1024 C1023 1.287 . S
C1024 C1025 1.524 . S
C1024 H1043 0.913 . S
C1025 H1001 0.950 . S
C1025 C1024 1.524 . S
C1025 C1026 1.415 . S
C1026 H1002 0.950 . S
C1026 C1021 1.363 . S
C1026 C1025 1.415 . S
C1027 H1003 0.951 . S
C1027 C1028 1.366 . S
C1027 C1029 1.388 . S
C1028 C1027 1.366 . S
C1028 C1032 1.385 . S
C1029 H1004 0.951 . S
C1029 C1027 1.388 . S
C1029 C1030 1.366 . S
C1030 C1029 1.366 . S
C1030 C1031 1.414 . S
C1030 C1033 1.499 . S
C1031 H1005 0.950 . S
C1031 C1030 1.414 . S
C1031 C1032 1.374 . S
C1032 H1006 0.950 . S
C1032 C1028 1.385 . S
C1032 C1031 1.374 . S
C1033 C1030 1.499 . S
C1033 C1034 1.373 . S
C1033 C1035 1.389 . S
C1034 H1007 0.950 . S
C1034 C1020 1.377 . S
C1034 C1033 1.373 . S
C1035 C1019 1.377 . S
C1035 C1033 1.389 . S
C1035 C1036 1.524 . S
C1036 C1035 1.524 . S
C1036 C1037 1.397 . S
C1036 C1041 1.363 . S
C1037 H1008 0.950 . S
C1037 C1036 1.397 . S
C1037 C1038 1.334 . S
C1038 H1009 0.950 . S
C1038 C1037 1.334 . S
C1038 C1039 1.287 . S
C1039 C1038 1.287 . S
C1039 C1040 1.524 . S
C1039 H1042 0.999 . S
C1040 H1010 0.950 . S
C1040 C1039 1.524 . S
C1040 C1041 1.415 . S
C1041 H1011 0.950 . S
C1041 C1036 1.363 . S
C1041 C1040 1.415 . S
H1042 C1039 0.999 . S
H1043 C1024 0.913 . S
H1044 C1062 0.951 . S
H1045 C1064 0.951 . S
H1046 C1066 0.950 . S
H1047 C1067 0.950 . S
H1048 C1069 0.950 . S
H1049 C1072 0.950 . S
H1050 C1073 0.950 . S
H1051 C1075 0.950 . S
H1052 C1076 0.950 . S
H1053 C1077 0.951 . S
H1054 C1079 0.951 . S
H1055 C1081 0.950 . S
H1056 C1082 0.950 . S
H1057 C1084 0.950 . S
H1058 C1087 0.950 . S
H1059 C1088 0.950 . S
H1060 C1090 0.950 . S
H1061 C1091 0.950 . S
C1062 H1044 0.951 . S
C1062 C1063 1.366 . S
C1062 C1064 1.388 . S
C1063 C1062 1.366 . S
C1063 C1067 1.385 . S
C1064 H1045 0.951 . S
C1064 C1062 1.388 . S
C1064 C1065 1.366 . S
C1065 C1064 1.366 . S
C1065 C1066 1.414 . S
C1065 C1068 1.499 . S
C1066 H1046 0.950 . S
C1066 C1065 1.414 . S
C1066 C1067 1.374 . S
C1067 H1047 0.950 . S
C1067 C1063 1.385 . S
C1067 C1066 1.374 . S
C1068 C1065 1.499 . S
C1068 C1069 1.373 . S
C1068 C1070 1.389 . S
C1069 H1048 0.950 . S
C1069 C1068 1.373 . S
C1069 C1085 1.377 . S
C1070 C1068 1.389 . S
C1070 C1071 1.524 . S
C1070 C1084 1.377 . S
C1071 C1070 1.524 . S
C1071 C1072 1.397 . S
C1071 C1076 1.363 . S
C1072 H1049 0.950 . S
C1072 C1071 1.397 . S
C1072 C1073 1.334 . S
C1073 H1050 0.950 . S
C1073 C1072 1.334 . S
C1073 C1074 1.287 . S
C1074 C1073 1.287 . S
C1074 C1075 1.524 . S
C1074 H1093 0.913 . S
C1075 H1051 0.950 . S
C1075 C1074 1.524 . S
C1075 C1076 1.415 . S
C1076 H1052 0.950 . S
C1076 C1071 1.363 . S
C1076 C1075 1.415 . S
C1077 H1053 0.951 . S
C1077 C1078 1.366 . S
C1077 C1079 1.388 . S
C1078 C1077 1.366 . S
C1078 C1082 1.385 . S
C1079 H1054 0.951 . S
C1079 C1077 1.388 . S
C1079 C1080 1.366 . S
C1080 C1079 1.366 . S
C1080 C1081 1.414 . S
C1080 C1083 1.499 . S
C1081 H1055 0.950 . S
C1081 C1080 1.414 . S
C1081 C1082 1.374 . S
C1082 H1056 0.950 . S
C1082 C1078 1.385 . S
C1082 C1081 1.374 . S
C1083 C1080 1.499 . S
C1083 C1084 1.373 . S
C1083 C1085 1.389 . S
C1084 H1057 0.950 . S
C1084 C1070 1.377 . S
C1084 C1083 1.373 . S
C1085 C1069 1.377 . S
C1085 C1083 1.389 . S
C1085 C1086 1.524 . S
C1086 C1085 1.524 . S
C1086 C1087 1.397 . S
C1086 C1091 1.363 . S
C1087 H1058 0.950 . S
C1087 C1086 1.397 . S
C1087 C1088 1.334 . S
C1088 H1059 0.950 . S
C1088 C1087 1.334 . S
C1088 C1089 1.287 . S
C1089 C1088 1.287 . S
C1089 C1090 1.524 . S
C1089 H1092 0.999 . S
C1090 H1060 0.950 . S
C1090 C1089 1.524 . S
C1090 C1091 1.415 . S
C1091 H1061 0.950 . S
C1091 C1086 1.363 . S
C1091 C1090 1.415 . S
H1092 C1089 0.999 . S
H1093 C1074 0.913 . S
H1094 C1112 0.951 . S
H1095 C1114 0.951 . S
H1096 C1116 0.950 . S
H1097 C1117 0.950 . S
H1098 C1119 0.950 . S
H1099 C1122 0.950 . S
H1100 C1123 0.950 . S
H1101 C1125 0.950 . S
H1102 C1126 0.950 . S
H1103 C1127 0.951 . S
H1104 C1129 0.951 . S
H1105 C1131 0.950 . S
H1106 C1132 0.950 . S
H1107 C1134 0.950 . S
H1108 C1137 0.950 . S
H1109 C1138 0.950 . S
H1110 C1140 0.950 . S
H1111 C1141 0.950 . S
C1112 H1094 0.951 . S
C1112 C1113 1.366 . S
C1112 C1114 1.388 . S
C1113 C1112 1.366 . S
C1113 C1117 1.385 . S
C1114 H1095 0.951 . S
C1114 C1112 1.388 . S
C1114 C1115 1.366 . S
C1115 C1114 1.366 . S
C1115 C1116 1.414 . S
C1115 C1118 1.499 . S
C1116 H1096 0.950 . S
C1116 C1115 1.414 . S
C1116 C1117 1.374 . S
C1117 H1097 0.950 . S
C1117 C1113 1.385 . S
C1117 C1116 1.374 . S
C1118 C1115 1.499 . S
C1118 C1119 1.373 . S
C1118 C1120 1.389 . S
C1119 H1098 0.950 . S
C1119 C1118 1.373 . S
C1119 C1135 1.377 . S
C1120 C1118 1.389 . S
C1120 C1121 1.524 . S
C1120 C1134 1.377 . S
C1121 C1120 1.524 . S
C1121 C1122 1.397 . S
C1121 C1126 1.363 . S
C1122 H1099 0.950 . S
C1122 C1121 1.397 . S
C1122 C1123 1.334 . S
C1123 H1100 0.950 . S
C1123 C1122 1.334 . S
C1123 C1124 1.287 . S
C1124 C1123 1.287 . S
C1124 C1125 1.524 . S
C1124 H1143 0.913 . S
C1125 H1101 0.950 . S
C1125 C1124 1.524 . S
C1125 C1126 1.415 . S
C1126 H1102 0.950 . S
C1126 C1121 1.363 . S
C1126 C1125 1.415 . S
C1127 H1103 0.951 . S
C1127 C1128 1.366 . S
C1127 C1129 1.388 . S
C1128 C1127 1.366 . S
C1128 C1132 1.385 . S
C1129 H1104 0.951 . S
C1129 C1127 1.388 . S
C1129 C1130 1.366 . S
C1130 C1129 1.366 . S
C1130 C1131 1.414 . S
C1130 C1133 1.499 . S
C1131 H1105 0.950 . S
C1131 C1130 1.414 . S
C1131 C1132 1.374 . S
C1132 H1106 0.950 . S
C1132 C1128 1.385 . S
C1132 C1131 1.374 . S
C1133 C1130 1.499 . S
C1133 C1134 1.373 . S
C1133 C1135 1.389 . S
C1134 H1107 0.950 . S
C1134 C1120 1.377 . S
C1134 C1133 1.373 . S
C1135 C1119 1.377 . S
C1135 C1133 1.389 . S
C1135 C1136 1.524 . S
C1136 C1135 1.524 . S
C1136 C1137 1.397 . S
C1136 C1141 1.363 . S
C1137 H1108 0.950 . S
C1137 C1136 1.397 . S
C1137 C1138 1.334 . S
C1138 H1109 0.950 . S
C1138 C1137 1.334 . S
C1138 C1139 1.287 . S
C1139 C1138 1.287 . S
C1139 C1140 1.524 . S
C1139 H1142 0.999 1_655 S
C1140 H1110 0.950 . S
C1140 C1139 1.524 . S
C1140 C1141 1.415 . S
C1141 H1111 0.950 . S
C1141 C1136 1.363 . S
C1141 C1140 1.415 . S
H1142 C1139 0.999 1_455 S
H1143 C1124 0.913 . S
H1144 C1162 0.951 . S
H1145 C1164 0.951 . S
H1146 C1166 0.950 . S
H1147 C1167 0.950 . S
H1148 C1169 0.950 . S
H1149 C1172 0.950 . S
H1150 C1173 0.950 . S
H1151 C1175 0.950 . S
H1152 C1176 0.950 . S
H1153 C1177 0.951 . S
H1154 C1179 0.951 . S
H1155 C1181 0.950 . S
H1156 C1182 0.950 . S
H1157 C1184 0.950 . S
H1158 C1187 0.950 . S
H1159 C1188 0.950 . S
H1160 C1190 0.950 . S
H1161 C1191 0.950 . S
C1162 H1144 0.951 . S
C1162 C1163 1.366 . S
C1162 C1164 1.388 . S
C1163 C1162 1.366 . S
C1163 C1167 1.385 . S
C1164 H1145 0.951 . S
C1164 C1162 1.388 . S
C1164 C1165 1.366 . S
C1165 C1164 1.366 . S
C1165 C1166 1.414 . S
C1165 C1168 1.499 . S
C1166 H1146 0.950 . S
C1166 C1165 1.414 . S
C1166 C1167 1.374 . S
C1167 H1147 0.950 . S
C1167 C1163 1.385 . S
C1167 C1166 1.374 . S
C1168 C1165 1.499 . S
C1168 C1169 1.373 . S
C1168 C1170 1.389 . S
C1169 H1148 0.950 . S
C1169 C1168 1.373 . S
C1169 C1185 1.377 . S
C1170 C1168 1.389 . S
C1170 C1171 1.524 . S
C1170 C1184 1.377 . S
C1171 C1170 1.524 . S
C1171 C1172 1.397 . S
C1171 C1176 1.363 . S
C1172 H1149 0.950 . S
C1172 C1171 1.397 . S
C1172 C1173 1.334 . S
C1173 H1150 0.950 . S
C1173 C1172 1.334 . S
C1173 C1174 1.287 . S
C1174 C1173 1.287 . S
C1174 C1175 1.524 . S
C1174 H1193 0.913 . S
C1175 H1151 0.950 . S
C1175 C1174 1.524 . S
C1175 C1176 1.415 . S
C1176 H1152 0.950 . S
C1176 C1171 1.363 . S
C1176 C1175 1.415 . S
C1177 H1153 0.951 . S
C1177 C1178 1.366 . S
C1177 C1179 1.388 . S
C1178 C1177 1.366 . S
C1178 C1182 1.385 . S
C1179 H1154 0.951 . S
C1179 C1177 1.388 . S
C1179 C1180 1.366 . S
C1180 C1179 1.366 . S
C1180 C1181 1.414 . S
C1180 C1183 1.499 . S
C1181 H1155 0.950 . S
C1181 C1180 1.414 . S
C1181 C1182 1.374 . S
C1182 H1156 0.950 . S
C1182 C1178 1.385 . S
C1182 C1181 1.374 . S
C1183 C1180 1.499 . S
C1183 C1184 1.373 . S
C1183 C1185 1.389 . S
C1184 H1157 0.950 . S
C1184 C1170 1.377 . S
C1184 C1183 1.373 . S
C1185 C1169 1.377 . S
C1185 C1183 1.389 . S
C1185 C1186 1.524 . S
C1186 C1185 1.524 . S
C1186 C1187 1.397 . S
C1186 C1191 1.363 . S
C1187 H1158 0.950 . S
C1187 C1186 1.397 . S
C1187 C1188 1.334 . S
C1188 H1159 0.950 . S
C1188 C1187 1.334 . S
C1188 C1189 1.287 . S
C1189 C1188 1.287 . S
C1189 C1190 1.524 . S
C1189 H1192 0.999 . S
C1190 H1160 0.950 . S
C1190 C1189 1.524 . S
C1190 C1191 1.415 . S
C1191 H1161 0.950 . S
C1191 C1186 1.363 . S
C1191 C1190 1.415 . S
H1192 C1189 0.999 . S
H1193 C1174 0.913 . S
H1194 C1212 0.951 . S
H1195 C1214 0.951 . S
H1196 C1216 0.950 . S
H1197 C1217 0.950 . S
H1198 C1219 0.950 . S
H1199 C1222 0.950 . S
H1200 C1223 0.950 . S
H1201 C1225 0.950 . S
H1202 C1226 0.950 . S
H1203 C1227 0.951 . S
H1204 C1229 0.951 . S
H1205 C1231 0.950 . S
H1206 C1232 0.950 . S
H1207 C1234 0.950 . S
H1208 C1237 0.950 . S
H1209 C1238 0.950 . S
H1210 C1240 0.950 . S
H1211 C1241 0.950 . S
C1212 H1194 0.951 . S
C1212 C1213 1.366 . S
C1212 C1214 1.388 . S
C1213 C1212 1.366 . S
C1213 C1217 1.385 . S
C1214 H1195 0.951 . S
C1214 C1212 1.388 . S
C1214 C1215 1.366 . S
C1215 C1214 1.366 . S
C1215 C1216 1.414 . S
C1215 C1218 1.499 . S
C1216 H1196 0.950 . S
C1216 C1215 1.414 . S
C1216 C1217 1.374 . S
C1217 H1197 0.950 . S
C1217 C1213 1.385 . S
C1217 C1216 1.374 . S
C1218 C1215 1.499 . S
C1218 C1219 1.373 . S
C1218 C1220 1.389 . S
C1219 H1198 0.950 . S
C1219 C1218 1.373 . S
C1219 C1235 1.377 . S
C1220 C1218 1.389 . S
C1220 C1221 1.524 . S
C1220 C1234 1.377 . S
C1221 C1220 1.524 . S
C1221 C1222 1.397 . S
C1221 C1226 1.363 . S
C1222 H1199 0.950 . S
C1222 C1221 1.397 . S
C1222 C1223 1.334 . S
C1223 H1200 0.950 . S
C1223 C1222 1.334 . S
C1223 C1224 1.287 . S
C1224 C1223 1.287 . S
C1224 C1225 1.524 . S
C1224 H1243 0.913 . S
C1225 H1201 0.950 . S
C1225 C1224 1.524 . S
C1225 C1226 1.415 . S
C1226 H1202 0.950 . S
C1226 C1221 1.363 . S
C1226 C1225 1.415 . S
C1227 H1203 0.951 . S
C1227 C1228 1.366 . S
C1227 C1229 1.388 . S
C1228 C1227 1.366 . S
C1228 C1232 1.385 . S
C1229 H1204 0.951 . S
C1229 C1227 1.388 . S
C1229 C1230 1.366 . S
C1230 C1229 1.366 . S
C1230 C1231 1.414 . S
C1230 C1233 1.499 . S
C1231 H1205 0.950 . S
C1231 C1230 1.414 . S
C1231 C1232 1.374 . S
C1232 H1206 0.950 . S
C1232 C1228 1.385 . S
C1232 C1231 1.374 . S
C1233 C1230 1.499 . S
C1233 C1234 1.373 . S
C1233 C1235 1.389 . S
C1234 H1207 0.950 . S
C1234 C1220 1.377 . S
C1234 C1233 1.373 . S
C1235 C1219 1.377 . S
C1235 C1233 1.389 . S
C1235 C1236 1.524 . S
C1236 C1235 1.524 . S
C1236 C1237 1.397 . S
C1236 C1241 1.363 . S
C1237 H1208 0.950 . S
C1237 C1236 1.397 . S
C1237 C1238 1.334 . S
C1238 H1209 0.950 . S
C1238 C1237 1.334 . S
C1238 C1239 1.287 . S
C1239 C1238 1.287 . S
C1239 C1240 1.524 . S
C1239 H1242 0.999 . S
C1240 H1210 0.950 . S
C1240 C1239 1.524 . S
C1240 C1241 1.415 . S
C1241 H1211 0.950 . S
C1241 C1236 1.363 . S
C1241 C1240 1.415 . S
H1242 C1239 0.999 . S
H1243 C1224 0.913 . S
H1244 C1262 0.951 . S
H1245 C1264 0.951 . S
H1246 C1266 0.950 . S
H1247 C1267 0.950 . S
H1248 C1269 0.950 . S
H1249 C1272 0.950 . S
H1250 C1273 0.950 . S
H1251 C1275 0.950 . S
H1252 C1276 0.950 . S
H1253 C1277 0.951 1_554 S
H1254 C1279 0.951 . S
H1255 C1281 0.950 . S
H1256 C1282 0.950 . S
H1257 C1284 0.950 . S
H1258 C1287 0.950 . S
H1259 C1288 0.950 . S
H1260 C1290 0.950 . S
H1261 C1291 0.950 . S
C1262 H1244 0.951 . S
C1262 C1263 1.366 . S
C1262 C1264 1.388 . S
C1263 C1262 1.366 . S
C1263 C1267 1.385 . S
C1264 H1245 0.951 . S
C1264 C1262 1.388 . S
C1264 C1265 1.366 . S
C1265 C1264 1.366 . S
C1265 C1266 1.414 . S
C1265 C1268 1.499 . S
C1266 H1246 0.950 . S
C1266 C1265 1.414 . S
C1266 C1267 1.374 . S
C1267 H1247 0.950 . S
C1267 C1263 1.385 . S
C1267 C1266 1.374 . S
C1268 C1265 1.499 . S
C1268 C1269 1.373 . S
C1268 C1270 1.389 . S
C1269 H1248 0.950 . S
C1269 C1268 1.373 . S
C1269 C1285 1.377 . S
C1270 C1268 1.389 . S
C1270 C1271 1.524 . S
C1270 C1284 1.377 . S
C1271 C1270 1.524 . S
C1271 C1272 1.397 . S
C1271 C1276 1.363 . S
C1272 H1249 0.950 . S
C1272 C1271 1.397 . S
C1272 C1273 1.334 . S
C1273 H1250 0.950 . S
C1273 C1272 1.334 . S
C1273 C1274 1.287 . S
C1274 C1273 1.287 . S
C1274 C1275 1.524 . S
C1274 H1293 0.913 . S
C1275 H1251 0.950 . S
C1275 C1274 1.524 . S
C1275 C1276 1.415 . S
C1276 H1252 0.950 . S
C1276 C1271 1.363 . S
C1276 C1275 1.415 . S
C1277 H1253 0.951 1_556 S
C1277 C1278 1.366 . S
C1277 C1279 1.388 . S
C1278 C1277 1.366 . S
C1278 C1282 1.385 . S
C1279 H1254 0.951 . S
C1279 C1277 1.388 . S
C1279 C1280 1.366 . S
C1280 C1279 1.366 . S
C1280 C1281 1.414 . S
C1280 C1283 1.499 . S
C1281 H1255 0.950 . S
C1281 C1280 1.414 . S
C1281 C1282 1.374 . S
C1282 H1256 0.950 . S
C1282 C1278 1.385 . S
C1282 C1281 1.374 . S
C1283 C1280 1.499 . S
C1283 C1284 1.373 . S
C1283 C1285 1.389 . S
C1284 H1257 0.950 . S
C1284 C1270 1.377 . S
C1284 C1283 1.373 . S
C1285 C1269 1.377 . S
C1285 C1283 1.389 . S
C1285 C1286 1.524 . S
C1286 C1285 1.524 . S
C1286 C1287 1.397 . S
C1286 C1291 1.363 . S
C1287 H1258 0.950 . S
C1287 C1286 1.397 . S
C1287 C1288 1.334 . S
C1288 H1259 0.950 . S
C1288 C1287 1.334 . S
C1288 C1289 1.287 . S
C1289 C1288 1.287 . S
C1289 C1290 1.524 . S
C1289 H1292 0.999 . S
C1290 H1260 0.950 . S
C1290 C1289 1.524 . S
C1290 C1291 1.415 . S
C1291 H1261 0.950 . S
C1291 C1286 1.363 . S
C1291 C1290 1.415 . S
H1292 C1289 0.999 . S
H1293 C1274 0.913 . S
H1294 C1312 0.951 . S
H1295 C1314 0.951 . S
H1296 C1316 0.950 . S
H1297 C1317 0.950 . S
H1298 C1319 0.950 . S
H1299 C1322 0.950 . S
H1300 C1323 0.950 . S
H1301 C1325 0.950 . S
H1302 C1326 0.950 . S
H1303 C1327 0.951 . S
H1304 C1329 0.951 . S
H1305 C1331 0.950 . S
H1306 C1332 0.950 . S
H1307 C1334 0.950 . S
H1308 C1337 0.950 . S
H1309 C1338 0.950 . S
H1310 C1340 0.950 . S
H1311 C1341 0.950 . S
C1312 H1294 0.951 . S
C1312 C1313 1.366 . S
C1312 C1314 1.388 . S
C1313 C1312 1.366 . S
C1313 C1317 1.385 . S
C1314 H1295 0.951 . S
C1314 C1312 1.388 . S
C1314 C1315 1.366 . S
C1315 C1314 1.366 . S
C1315 C1316 1.414 . S
C1315 C1318 1.499 . S
C1316 H1296 0.950 . S
C1316 C1315 1.414 . S
C1316 C1317 1.374 . S
C1317 H1297 0.950 . S
C1317 C1313 1.385 . S
C1317 C1316 1.374 . S
C1318 C1315 1.499 . S
C1318 C1319 1.373 . S
C1318 C1320 1.389 . S
C1319 H1298 0.950 . S
C1319 C1318 1.373 . S
C1319 C1335 1.377 . S
C1320 C1318 1.389 . S
C1320 C1321 1.524 . S
C1320 C1334 1.377 . S
C1321 C1320 1.524 . S
C1321 C1322 1.397 . S
C1321 C1326 1.363 . S
C1322 H1299 0.950 . S
C1322 C1321 1.397 . S
C1322 C1323 1.334 . S
C1323 H1300 0.950 . S
C1323 C1322 1.334 . S
C1323 C1324 1.287 . S
C1324 C1323 1.287 . S
C1324 C1325 1.524 . S
C1324 H1343 0.913 . S
C1325 H1301 0.950 . S
C1325 C1324 1.524 . S
C1325 C1326 1.415 . S
C1326 H1302 0.950 . S
C1326 C1321 1.363 . S
C1326 C1325 1.415 . S
C1327 H1303 0.951 . S
C1327 C1328 1.366 . S
C1327 C1329 1.388 . S
C1328 C1327 1.366 . S
C1328 C1332 1.385 . S
C1329 H1304 0.951 . S
C1329 C1327 1.388 . S
C1329 C1330 1.366 . S
C1330 C1329 1.366 . S
C1330 C1331 1.414 . S
C1330 C1333 1.499 . S
C1331 H1305 0.950 . S
C1331 C1330 1.414 . S
C1331 C1332 1.374 . S
C1332 H1306 0.950 . S
C1332 C1328 1.385 . S
C1332 C1331 1.374 . S
C1333 C1330 1.499 . S
C1333 C1334 1.373 . S
C1333 C1335 1.389 . S
C1334 H1307 0.950 . S
C1334 C1320 1.377 . S
C1334 C1333 1.373 . S
C1335 C1319 1.377 . S
C1335 C1333 1.389 . S
C1335 C1336 1.524 . S
C1336 C1335 1.524 . S
C1336 C1337 1.397 . S
C1336 C1341 1.363 . S
C1337 H1308 0.950 . S
C1337 C1336 1.397 . S
C1337 C1338 1.334 . S
C1338 H1309 0.950 . S
C1338 C1337 1.334 . S
C1338 C1339 1.287 . S
C1339 C1338 1.287 . S
C1339 C1340 1.524 . S
C1339 H1342 0.999 . S
C1340 H1310 0.950 . S
C1340 C1339 1.524 . S
C1340 C1341 1.415 . S
C1341 H1311 0.950 . S
C1341 C1336 1.363 . S
C1341 C1340 1.415 . S
H1342 C1339 0.999 . S
H1343 C1324 0.913 . S
H1344 C1362 0.951 . S
H1345 C1364 0.951 . S
H1346 C1366 0.950 . S
H1347 C1367 0.950 . S
H1348 C1369 0.950 . S
H1349 C1372 0.950 . S
H1350 C1373 0.950 . S
H1351 C1375 0.950 . S
H1352 C1376 0.950 . S
H1353 C1377 0.951 . S
H1354 C1379 0.951 . S
H1355 C1381 0.950 . S
H1356 C1382 0.950 . S
H1357 C1384 0.950 . S
H1358 C1387 0.950 . S
H1359 C1388 0.950 . S
H1360 C1390 0.950 1_554 S
H1361 C1391 0.950 . S
C1362 H1344 0.951 . S
C1362 C1363 1.366 . S
C1362 C1364 1.388 . S
C1363 C1362 1.366 . S
C1363 C1367 1.385 . S
C1364 H1345 0.951 . S
C1364 C1362 1.388 . S
C1364 C1365 1.366 . S
C1365 C1364 1.366 . S
C1365 C1366 1.414 . S
C1365 C1368 1.499 . S
C1366 H1346 0.950 . S
C1366 C1365 1.414 . S
C1366 C1367 1.374 . S
C1367 H1347 0.950 . S
C1367 C1363 1.385 . S
C1367 C1366 1.374 . S
C1368 C1365 1.499 . S
C1368 C1369 1.373 . S
C1368 C1370 1.389 . S
C1369 H1348 0.950 . S
C1369 C1368 1.373 . S
C1369 C1385 1.377 . S
C1370 C1368 1.389 . S
C1370 C1371 1.524 . S
C1370 C1384 1.377 . S
C1371 C1370 1.524 . S
C1371 C1372 1.397 . S
C1371 C1376 1.363 . S
C1372 H1349 0.950 . S
C1372 C1371 1.397 . S
C1372 C1373 1.334 . S
C1373 H1350 0.950 . S
C1373 C1372 1.334 . S
C1373 C1374 1.287 . S
C1374 C1373 1.287 . S
C1374 C1375 1.524 . S
C1374 H1393 0.913 . S
C1375 H1351 0.950 . S
C1375 C1374 1.524 . S
C1375 C1376 1.415 . S
C1376 H1352 0.950 . S
C1376 C1371 1.363 . S
C1376 C1375 1.415 . S
C1377 H1353 0.951 . S
C1377 C1378 1.366 . S
C1377 C1379 1.388 . S
C1378 C1377 1.366 . S
C1378 C1382 1.385 . S
C1379 H1354 0.951 . S
C1379 C1377 1.388 . S
C1379 C1380 1.366 . S
C1380 C1379 1.366 . S
C1380 C1381 1.414 . S
C1380 C1383 1.499 . S
C1381 H1355 0.950 . S
C1381 C1380 1.414 . S
C1381 C1382 1.374 . S
C1382 H1356 0.950 . S
C1382 C1378 1.385 . S
C1382 C1381 1.374 . S
C1383 C1380 1.499 . S
C1383 C1384 1.373 . S
C1383 C1385 1.389 . S
C1384 H1357 0.950 . S
C1384 C1370 1.377 . S
C1384 C1383 1.373 . S
C1385 C1369 1.377 . S
C1385 C1383 1.389 . S
C1385 C1386 1.524 . S
C1386 C1385 1.524 . S
C1386 C1387 1.397 . S
C1386 C1391 1.363 . S
C1387 H1358 0.950 . S
C1387 C1386 1.397 . S
C1387 C1388 1.334 . S
C1388 H1359 0.950 . S
C1388 C1387 1.334 . S
C1388 C1389 1.287 1_556 S
C1389 C1388 1.287 1_554 S
C1389 C1390 1.524 1_554 S
C1389 H1392 0.999 . S
C1390 H1360 0.950 1_556 S
C1390 C1389 1.524 1_556 S
C1390 C1391 1.415 . S
C1391 H1361 0.950 . S
C1391 C1386 1.363 . S
C1391 C1390 1.415 . S
H1392 C1389 0.999 . S
H1393 C1374 0.913 . S
H1394 C1412 0.951 . S
H1395 C1414 0.951 . S
H1396 C1416 0.950 . S
H1397 C1417 0.950 . S
H1398 C1419 0.950 . S
H1399 C1422 0.950 . S
H1400 C1423 0.950 . S
H1401 C1425 0.950 . S
H1402 C1426 0.950 . S
H1403 C1427 0.951 1_554 S
H1404 C1429 0.951 . S
H1405 C1431 0.950 . S
H1406 C1432 0.950 . S
H1407 C1434 0.950 . S
H1408 C1437 0.950 . S
H1409 C1438 0.950 . S
H1410 C1440 0.950 . S
H1411 C1441 0.950 . S
C1412 H1394 0.951 . S
C1412 C1413 1.366 . S
C1412 C1414 1.388 . S
C1413 C1412 1.366 . S
C1413 C1417 1.385 . S
C1414 H1395 0.951 . S
C1414 C1412 1.388 . S
C1414 C1415 1.366 . S
C1415 C1414 1.366 . S
C1415 C1416 1.414 . S
C1415 C1418 1.499 . S
C1416 H1396 0.950 . S
C1416 C1415 1.414 . S
C1416 C1417 1.374 . S
C1417 H1397 0.950 . S
C1417 C1413 1.385 . S
C1417 C1416 1.374 . S
C1418 C1415 1.499 . S
C1418 C1419 1.373 . S
C1418 C1420 1.389 . S
C1419 H1398 0.950 . S
C1419 C1418 1.373 . S
C1419 C1435 1.377 . S
C1420 C1418 1.389 . S
C1420 C1421 1.524 . S
C1420 C1434 1.377 . S
C1421 C1420 1.524 . S
C1421 C1422 1.397 . S
C1421 C1426 1.363 . S
C1422 H1399 0.950 . S
C1422 C1421 1.397 . S
C1422 C1423 1.334 . S
C1423 H1400 0.950 . S
C1423 C1422 1.334 . S
C1423 C1424 1.287 . S
C1424 C1423 1.287 . S
C1424 C1425 1.524 . S
C1424 H1443 0.913 . S
C1425 H1401 0.950 . S
C1425 C1424 1.524 . S
C1425 C1426 1.415 . S
C1426 H1402 0.950 . S
C1426 C1421 1.363 . S
C1426 C1425 1.415 . S
C1427 H1403 0.951 1_556 S
C1427 C1428 1.366 . S
C1427 C1429 1.388 . S
C1428 C1427 1.366 . S
C1428 C1432 1.385 . S
C1429 H1404 0.951 . S
C1429 C1427 1.388 . S
C1429 C1430 1.366 . S
C1430 C1429 1.366 . S
C1430 C1431 1.414 . S
C1430 C1433 1.499 . S
C1431 H1405 0.950 . S
C1431 C1430 1.414 . S
C1431 C1432 1.374 . S
C1432 H1406 0.950 . S
C1432 C1428 1.385 . S
C1432 C1431 1.374 . S
C1433 C1430 1.499 . S
C1433 C1434 1.373 . S
C1433 C1435 1.389 . S
C1434 H1407 0.950 . S
C1434 C1420 1.377 . S
C1434 C1433 1.373 . S
C1435 C1419 1.377 . S
C1435 C1433 1.389 . S
C1435 C1436 1.524 . S
C1436 C1435 1.524 . S
C1436 C1437 1.397 . S
C1436 C1441 1.363 1_556 S
C1437 H1408 0.950 . S
C1437 C1436 1.397 . S
C1437 C1438 1.334 1_655 S
C1438 H1409 0.950 . S
C1438 C1437 1.334 1_455 S
C1438 C1439 1.287 1_556 S
C1439 C1438 1.287 1_554 S
C1439 C1440 1.524 1_455 S
C1439 H1442 0.999 . S
C1440 H1410 0.950 . S
C1440 C1439 1.524 1_655 S
C1440 C1441 1.415 . S
C1441 H1411 0.950 . S
C1441 C1436 1.363 1_554 S
C1441 C1440 1.415 . S
H1442 C1439 0.999 . S
H1443 C1424 0.913 . S
H1444 C1462 0.951 . S
H1445 C1464 0.951 . S
H1446 C1466 0.950 . S
H1447 C1467 0.950 . S
H1448 C1469 0.950 . S
H1449 C1472 0.950 . S
H1450 C1473 0.950 . S
H1451 C1475 0.950 . S
H1452 C1476 0.950 . S
H1453 C1477 0.951 . S
H1454 C1479 0.951 . S
H1455 C1481 0.950 . S
H1456 C1482 0.950 . S
H1457 C1484 0.950 . S
H1458 C1487 0.950 . S
H1459 C1488 0.950 . S
H1460 C1490 0.950 . S
H1461 C1491 0.950 . S
C1462 H1444 0.951 . S
C1462 C1463 1.366 . S
C1462 C1464 1.388 . S
C1463 C1462 1.366 . S
C1463 C1467 1.385 . S
C1464 H1445 0.951 . S
C1464 C1462 1.388 . S
C1464 C1465 1.366 . S
C1465 C1464 1.366 . S
C1465 C1466 1.414 . S
C1465 C1468 1.499 . S
C1466 H1446 0.950 . S
C1466 C1465 1.414 . S
C1466 C1467 1.374 . S
C1467 H1447 0.950 . S
C1467 C1463 1.385 . S
C1467 C1466 1.374 . S
C1468 C1465 1.499 . S
C1468 C1469 1.373 . S
C1468 C1470 1.389 . S
C1469 H1448 0.950 . S
C1469 C1468 1.373 . S
C1469 C1485 1.377 . S
C1470 C1468 1.389 . S
C1470 C1471 1.524 . S
C1470 C1484 1.377 . S
C1471 C1470 1.524 . S
C1471 C1472 1.397 . S
C1471 C1476 1.363 . S
C1472 H1449 0.950 . S
C1472 C1471 1.397 . S
C1472 C1473 1.334 . S
C1473 H1450 0.950 . S
C1473 C1472 1.334 . S
C1473 C1474 1.287 . S
C1474 C1473 1.287 . S
C1474 C1475 1.524 . S
C1474 H1493 0.913 . S
C1475 H1451 0.950 . S
C1475 C1474 1.524 . S
C1475 C1476 1.415 . S
C1476 H1452 0.950 . S
C1476 C1471 1.363 . S
C1476 C1475 1.415 . S
C1477 H1453 0.951 . S
C1477 C1478 1.366 . S
C1477 C1479 1.388 . S
C1478 C1477 1.366 . S
C1478 C1482 1.385 . S
C1479 H1454 0.951 . S
C1479 C1477 1.388 . S
C1479 C1480 1.366 . S
C1480 C1479 1.366 . S
C1480 C1481 1.414 . S
C1480 C1483 1.499 . S
C1481 H1455 0.950 . S
C1481 C1480 1.414 . S
C1481 C1482 1.374 . S
C1482 H1456 0.950 . S
C1482 C1478 1.385 . S
C1482 C1481 1.374 . S
C1483 C1480 1.499 . S
C1483 C1484 1.373 . S
C1483 C1485 1.389 . S
C1484 H1457 0.950 . S
C1484 C1470 1.377 . S
C1484 C1483 1.373 . S
C1485 C1469 1.377 . S
C1485 C1483 1.389 . S
C1485 C1486 1.524 . S
C1486 C1485 1.524 . S
C1486 C1487 1.397 . S
C1486 C1491 1.363 . S
C1487 H1458 0.950 . S
C1487 C1486 1.397 . S
C1487 C1488 1.334 . S
C1488 H1459 0.950 . S
C1488 C1487 1.334 . S
C1488 C1489 1.287 . S
C1489 C1488 1.287 . S
C1489 C1490 1.524 . S
C1489 H1492 0.999 . S
C1490 H1460 0.950 . S
C1490 C1489 1.524 . S
C1490 C1491 1.415 . S
C1491 H1461 0.950 . S
C1491 C1486 1.363 . S
C1491 C1490 1.415 . S
H1492 C1489 0.999 . S
H1493 C1474 0.913 . S
H1494 C1512 0.951 . S
H1495 C1514 0.951 . S
H1496 C1516 0.950 . S
H1497 C1517 0.950 . S
H1498 C1519 0.950 . S
H1499 C1522 0.950 . S
H1500 C1523 0.950 . S
H1501 C1525 0.950 . S
H1502 C1526 0.950 . S
H1503 C1527 0.951 . S
H1504 C1529 0.951 . S
H1505 C1531 0.950 . S
H1506 C1532 0.950 . S
H1507 C1534 0.950 . S
H1508 C1537 0.950 . S
H1509 C1538 0.950 . S
H1510 C1540 0.950 . S
H1511 C1541 0.950 . S
C1512 H1494 0.951 . S
C1512 C1513 1.366 . S
C1512 C1514 1.388 . S
C1513 C1512 1.366 . S
C1513 C1517 1.385 . S
C1514 H1495 0.951 . S
C1514 C1512 1.388 . S
C1514 C1515 1.366 . S
C1515 C1514 1.366 . S
C1515 C1516 1.414 . S
C1515 C1518 1.499 . S
C1516 H1496 0.950 . S
C1516 C1515 1.414 . S
C1516 C1517 1.374 . S
C1517 H1497 0.950 . S
C1517 C1513 1.385 . S
C1517 C1516 1.374 . S
C1518 C1515 1.499 . S
C1518 C1519 1.373 . S
C1518 C1520 1.389 . S
C1519 H1498 0.950 . S
C1519 C1518 1.373 . S
C1519 C1535 1.377 . S
C1520 C1518 1.389 . S
C1520 C1521 1.524 . S
C1520 C1534 1.377 . S
C1521 C1520 1.524 . S
C1521 C1522 1.397 . S
C1521 C1526 1.363 . S
C1522 H1499 0.950 . S
C1522 C1521 1.397 . S
C1522 C1523 1.334 . S
C1523 H1500 0.950 . S
C1523 C1522 1.334 . S
C1523 C1524 1.287 . S
C1524 C1523 1.287 . S
C1524 C1525 1.524 . S
C1524 H1543 0.913 . S
C1525 H1501 0.950 . S
C1525 C1524 1.524 . S
C1525 C1526 1.415 . S
C1526 H1502 0.950 . S
C1526 C1521 1.363 . S
C1526 C1525 1.415 . S
C1527 H1503 0.951 . S
C1527 C1528 1.366 . S
C1527 C1529 1.388 . S
C1528 C1527 1.366 . S
C1528 C1532 1.385 . S
C1529 H1504 0.951 . S
C1529 C1527 1.388 . S
C1529 C1530 1.366 . S
C1530 C1529 1.366 . S
C1530 C1531 1.414 . S
C1530 C1533 1.499 . S
C1531 H1505 0.950 . S
C1531 C1530 1.414 . S
C1531 C1532 1.374 . S
C1532 H1506 0.950 . S
C1532 C1528 1.385 . S
C1532 C1531 1.374 . S
C1533 C1530 1.499 . S
C1533 C1534 1.373 . S
C1533 C1535 1.389 . S
C1534 H1507 0.950 . S
C1534 C1520 1.377 . S
C1534 C1533 1.373 . S
C1535 C1519 1.377 . S
C1535 C1533 1.389 . S
C1535 C1536 1.524 . S
C1536 C1535 1.524 . S
C1536 C1537 1.397 . S
C1536 C1541 1.363 . S
C1537 H1508 0.950 . S
C1537 C1536 1.397 . S
C1537 C1538 1.334 . S
C1538 H1509 0.950 . S
C1538 C1537 1.334 . S
C1538 C1539 1.287 . S
C1539 C1538 1.287 . S
C1539 C1540 1.524 . S
C1539 H1542 0.999 . S
C1540 H1510 0.950 . S
C1540 C1539 1.524 . S
C1540 C1541 1.415 . S
C1541 H1511 0.950 . S
C1541 C1536 1.363 . S
C1541 C1540 1.415 . S
H1542 C1539 0.999 . S
H1543 C1524 0.913 . S
H1544 C1562 0.951 . S
H1545 C1564 0.951 . S
H1546 C1566 0.950 . S
H1547 C1567 0.950 . S
H1548 C1569 0.950 . S
H1549 C1572 0.950 . S
H1550 C1573 0.950 . S
H1551 C1575 0.950 . S
H1552 C1576 0.950 . S
H1553 C1577 0.951 . S
H1554 C1579 0.951 . S
H1555 C1581 0.950 . S
H1556 C1582 0.950 1_554 S
H1557 C1584 0.950 . S
H1558 C1587 0.950 1_554 S
H1559 C1588 0.950 . S
H1560 C1590 0.950 . S
H1561 C1591 0.950 . S
C1562 H1544 0.951 . S
C1562 C1563 1.366 . S
C1562 C1564 1.388 . S
C1563 C1562 1.366 . S
C1563 C1567 1.385 . S
C1564 H1545 0.951 . S
C1564 C1562 1.388 . S
C1564 C1565 1.366 . S
C1565 C1564 1.366 . S
C1565 C1566 1.414 . S
C1565 C1568 1.499 . S
C1566 H1546 0.950 . S
C1566 C1565 1.414 . S
C1566 C1567 1.374 . S
C1567 H1547 0.950 . S
C1567 C1563 1.385 . S
C1567 C1566 1.374 . S
C1568 C1565 1.499 . S
C1568 C1569 1.373 . S
C1568 C1570 1.389 . S
C1569 H1548 0.950 . S
C1569 C1568 1.373 . S
C1569 C1585 1.377 . S
C1570 C1568 1.389 . S
C1570 C1571 1.524 . S
C1570 C1584 1.377 . S
C1571 C1570 1.524 . S
C1571 C1572 1.397 . S
C1571 C1576 1.363 . S
C1572 H1549 0.950 . S
C1572 C1571 1.397 . S
C1572 C1573 1.334 . S
C1573 H1550 0.950 . S
C1573 C1572 1.334 . S
C1573 C1574 1.287 . S
C1574 C1573 1.287 . S
C1574 C1575 1.524 . S
C1574 H1593 0.913 . S
C1575 H1551 0.950 . S
C1575 C1574 1.524 . S
C1575 C1576 1.415 . S
C1576 H1552 0.950 . S
C1576 C1571 1.363 . S
C1576 C1575 1.415 . S
C1577 H1553 0.951 . S
C1577 C1578 1.366 . S
C1577 C1579 1.388 . S
C1578 C1577 1.366 . S
C1578 C1582 1.385 . S
C1579 H1554 0.951 . S
C1579 C1577 1.388 . S
C1579 C1580 1.366 . S
C1580 C1579 1.366 . S
C1580 C1581 1.414 . S
C1580 C1583 1.499 . S
C1581 H1555 0.950 . S
C1581 C1580 1.414 . S
C1581 C1582 1.374 . S
C1582 H1556 0.950 1_556 S
C1582 C1578 1.385 . S
C1582 C1581 1.374 . S
C1583 C1580 1.499 . S
C1583 C1584 1.373 . S
C1583 C1585 1.389 . S
C1584 H1557 0.950 . S
C1584 C1570 1.377 . S
C1584 C1583 1.373 . S
C1585 C1569 1.377 . S
C1585 C1583 1.389 . S
C1585 C1586 1.524 . S
C1586 C1585 1.524 . S
C1586 C1587 1.398 . S
C1586 C1591 1.363 . S
C1587 H1558 0.950 1_556 S
C1587 C1586 1.398 . S
C1587 C1588 1.332 1_556 S
C1588 H1559 0.950 . S
C1588 C1587 1.332 1_554 S
C1588 C1589 1.287 . S
C1589 C1588 1.287 . S
C1589 C1590 1.524 1_554 S
C1589 H1592 0.999 . S
C1590 H1560 0.950 . S
C1590 C1589 1.524 1_556 S
C1590 C1591 1.415 . S
C1591 H1561 0.950 . S
C1591 C1586 1.363 . S
C1591 C1590 1.415 . S
H1592 C1589 0.999 . S
H1593 C1574 0.913 . S
H1594 C1612 0.951 . S
H1595 C1614 0.951 . S
H1596 C1616 0.950 . S
H1597 C1617 0.950 . S
H1598 C1619 0.950 . S
H1599 C1622 0.950 . S
H1600 C1623 0.950 . S
H1601 C1625 0.950 . S
H1602 C1626 0.950 . S
H1603 C1627 0.951 . S
H1604 C1629 0.951 . S
H1605 C1631 0.950 . S
H1606 C1632 0.950 1_455 S
H1607 C1634 0.950 . S
H1608 C1637 0.950 . S
H1609 C1638 0.950 . S
H1610 C1640 0.950 . S
H1611 C1641 0.950 . S
C1612 H1594 0.951 . S
C1612 C1613 1.366 . S
C1612 C1614 1.388 . S
C1613 C1612 1.366 . S
C1613 C1617 1.385 . S
C1614 H1595 0.951 . S
C1614 C1612 1.388 . S
C1614 C1615 1.366 . S
C1615 C1614 1.366 . S
C1615 C1616 1.414 . S
C1615 C1618 1.499 . S
C1616 H1596 0.950 . S
C1616 C1615 1.414 . S
C1616 C1617 1.374 . S
C1617 H1597 0.950 . S
C1617 C1613 1.385 . S
C1617 C1616 1.374 . S
C1618 C1615 1.499 . S
C1618 C1619 1.373 . S
C1618 C1620 1.389 . S
C1619 H1598 0.950 . S
C1619 C1618 1.373 . S
C1619 C1635 1.377 . S
C1620 C1618 1.389 . S
C1620 C1621 1.524 . S
C1620 C1634 1.377 . S
C1621 C1620 1.524 . S
C1621 C1622 1.397 . S
C1621 C1626 1.363 . S
C1622 H1599 0.950 . S
C1622 C1621 1.397 . S
C1622 C1623 1.334 . S
C1623 H1600 0.950 . S
C1623 C1622 1.334 . S
C1623 C1624 1.287 . S
C1624 C1623 1.287 . S
C1624 C1625 1.524 . S
C1624 H1643 0.913 . S
C1625 H1601 0.950 . S
C1625 C1624 1.524 . S
C1625 C1626 1.415 . S
C1626 H1602 0.950 . S
C1626 C1621 1.363 . S
C1626 C1625 1.415 . S
C1627 H1603 0.951 . S
C1627 C1628 1.366 . S
C1627 C1629 1.388 . S
C1628 C1627 1.366 . S
C1628 C1632 1.385 . S
C1629 H1604 0.951 . S
C1629 C1627 1.388 . S
C1629 C1630 1.366 . S
C1630 C1629 1.366 . S
C1630 C1631 1.414 . S
C1630 C1633 1.499 . S
C1631 H1605 0.950 . S
C1631 C1630 1.414 . S
C1631 C1632 1.374 . S
C1632 H1606 0.950 1_655 S
C1632 C1628 1.385 . S
C1632 C1631 1.374 . S
C1633 C1630 1.499 . S
C1633 C1634 1.373 . S
C1633 C1635 1.389 . S
C1634 H1607 0.950 . S
C1634 C1620 1.377 . S
C1634 C1633 1.373 . S
C1635 C1619 1.377 . S
C1635 C1633 1.389 . S
C1635 C1636 1.524 . S
C1636 C1635 1.524 . S
C1636 C1637 1.397 . S
C1636 C1641 1.363 . S
C1637 H1608 0.950 . S
C1637 C1636 1.397 . S
C1637 C1638 1.334 . S
C1638 H1609 0.950 . S
C1638 C1637 1.334 . S
C1638 C1639 1.287 . S
C1639 C1638 1.287 . S
C1639 C1640 1.524 . S
C1639 H1642 0.999 . S
C1640 H1610 0.950 . S
C1640 C1639 1.524 . S
C1640 C1641 1.415 . S
C1641 H1611 0.950 . S
C1641 C1636 1.363 . S
C1641 C1640 1.415 . S
H1642 C1639 0.999 . S
H1643 C1624 0.913 . S
H1644 C1662 0.951 . S
H1645 C1664 0.951 . S
H1646 C1666 0.950 . S
H1647 C1667 0.950 . S
H1648 C1669 0.950 . S
H1649 C1672 0.950 . S
H1650 C1673 0.950 . S
H1651 C1675 0.950 . S
H1652 C1676 0.950 . S
H1653 C1677 0.951 . S
H1654 C1679 0.951 . S
H1655 C1681 0.950 . S
H1656 C1682 0.950 . S
H1657 C1684 0.950 . S
H1658 C1687 0.950 . S
H1659 C1688 0.953 . S
H1660 C1690 0.950 . S
H1661 C1691 0.950 . S
C1662 H1644 0.951 . S
C1662 C1663 1.366 . S
C1662 C1664 1.388 . S
C1663 C1662 1.366 . S
C1663 C1667 1.385 . S
C1664 H1645 0.951 . S
C1664 C1662 1.388 . S
C1664 C1665 1.366 . S
C1665 C1664 1.366 . S
C1665 C1666 1.414 . S
C1665 C1668 1.499 . S
C1666 H1646 0.950 . S
C1666 C1665 1.414 . S
C1666 C1667 1.374 . S
C1667 H1647 0.950 . S
C1667 C1663 1.385 . S
C1667 C1666 1.374 . S
C1668 C1665 1.499 . S
C1668 C1669 1.373 . S
C1668 C1670 1.389 . S
C1669 H1648 0.950 . S
C1669 C1668 1.373 . S
C1669 C1685 1.377 . S
C1670 C1668 1.389 . S
C1670 C1671 1.524 . S
C1670 C1684 1.377 . S
C1671 C1670 1.524 . S
C1671 C1672 1.397 . S
C1671 C1676 1.363 . S
C1672 H1649 0.950 . S
C1672 C1671 1.397 . S
C1672 C1673 1.334 . S
C1673 H1650 0.950 . S
C1673 C1672 1.334 . S
C1673 C1674 1.287 . S
C1674 C1673 1.287 . S
C1674 C1675 1.524 . S
C1674 H1693 0.913 . S
C1675 H1651 0.950 . S
C1675 C1674 1.524 . S
C1675 C1676 1.415 . S
C1676 H1652 0.950 . S
C1676 C1671 1.363 . S
C1676 C1675 1.415 . S
C1677 H1653 0.951 . S
C1677 C1678 1.366 . S
C1677 C1679 1.388 . S
C1678 C1677 1.366 . S
C1678 C1682 1.385 . S
C1679 H1654 0.951 . S
C1679 C1677 1.388 . S
C1679 C1680 1.366 . S
C1680 C1679 1.366 . S
C1680 C1681 1.414 . S
C1680 C1683 1.499 . S
C1681 H1655 0.950 . S
C1681 C1680 1.414 . S
C1681 C1682 1.374 . S
C1682 H1656 0.950 . S
C1682 C1678 1.385 . S
C1682 C1681 1.374 . S
C1683 C1680 1.499 . S
C1683 C1684 1.373 . S
C1683 C1685 1.389 . S
C1684 H1657 0.950 . S
C1684 C1670 1.377 . S
C1684 C1683 1.373 . S
C1685 C1669 1.377 . S
C1685 C1683 1.389 . S
C1685 C1686 1.524 . S
C1686 C1685 1.524 . S
C1686 C1687 1.397 . S
C1686 C1691 1.363 . S
C1687 H1658 0.950 . S
C1687 C1686 1.397 . S
C1687 C1688 1.334 . S
C1688 H1659 0.953 . S
C1688 C1687 1.334 . S
C1688 C1689 1.287 . S
C1689 C1688 1.287 . S
C1689 C1690 1.524 . S
C1689 H1692 1.025 . S
C1690 H1660 0.950 . S
C1690 C1689 1.524 . S
C1690 C1691 1.415 . S
C1691 H1661 0.950 . S
C1691 C1686 1.363 . S
C1691 C1690 1.415 . S
H1692 C1689 1.025 . S
H1693 C1674 0.913 . S
H1694 C1712 0.951 . S
H1695 C1714 0.951 . S
H1696 C1716 0.950 . S
H1697 C1717 0.950 . S
H1698 C1719 0.950 . S
H1699 C1722 0.950 . S
H1700 C1723 0.950 . S
H1701 C1725 0.950 1_455 S
H1702 C1726 0.950 . S
H1703 C1727 0.951 . S
H1704 C1729 0.951 . S
H1705 C1731 0.950 . S
H1706 C1732 0.950 . S
H1707 C1734 0.950 . S
H1708 C1737 0.950 . S
H1709 C1738 0.950 . S
H1710 C1740 0.950 . S
H1711 C1741 0.950 . S
C1712 H1694 0.951 . S
C1712 C1713 1.366 . S
C1712 C1714 1.388 . S
C1713 C1712 1.366 . S
C1713 C1717 1.385 . S
C1714 H1695 0.951 . S
C1714 C1712 1.388 . S
C1714 C1715 1.366 . S
C1715 C1714 1.366 . S
C1715 C1716 1.414 . S
C1715 C1718 1.499 . S
C1716 H1696 0.950 . S
C1716 C1715 1.414 . S
C1716 C1717 1.374 . S
C1717 H1697 0.950 . S
C1717 C1713 1.385 . S
C1717 C1716 1.374 . S
C1718 C1715 1.499 . S
C1718 C1719 1.373 . S
C1718 C1720 1.389 . S
C1719 H1698 0.950 . S
C1719 C1718 1.373 . S
C1719 C1735 1.377 . S
C1720 C1718 1.389 . S
C1720 C1721 1.524 . S
C1720 C1734 1.377 . S
C1721 C1720 1.524 . S
C1721 C1722 1.397 . S
C1721 C1726 1.363 . S
C1722 H1699 0.950 . S
C1722 C1721 1.397 . S
C1722 C1723 1.334 . S
C1723 H1700 0.950 . S
C1723 C1722 1.334 . S
C1723 C1724 1.287 . S
C1724 C1723 1.287 . S
C1724 C1725 1.524 . S
C1724 H1743 0.913 . S
C1725 H1701 0.950 1_655 S
C1725 C1724 1.524 . S
C1725 C1726 1.415 . S
C1726 H1702 0.950 . S
C1726 C1721 1.363 . S
C1726 C1725 1.415 . S
C1727 H1703 0.951 . S
C1727 C1728 1.366 . S
C1727 C1729 1.388 . S
C1728 C1727 1.366 . S
C1728 C1732 1.385 . S
C1729 H1704 0.951 . S
C1729 C1727 1.388 . S
C1729 C1730 1.366 . S
C1730 C1729 1.366 . S
C1730 C1731 1.414 . S
C1730 C1733 1.499 . S
C1731 H1705 0.950 . S
C1731 C1730 1.414 . S
C1731 C1732 1.374 . S
C1732 H1706 0.950 . S
C1732 C1728 1.385 . S
C1732 C1731 1.374 . S
C1733 C1730 1.499 . S
C1733 C1734 1.373 . S
C1733 C1735 1.389 . S
C1734 H1707 0.950 . S
C1734 C1720 1.377 . S
C1734 C1733 1.373 . S
C1735 C1719 1.377 . S
C1735 C1733 1.389 . S
C1735 C1736 1.524 . S
C1736 C1735 1.524 . S
C1736 C1737 1.397 . S
C1736 C1741 1.363 . S
C1737 H1708 0.950 . S
C1737 C1736 1.397 . S
C1737 C1738 1.334 . S
C1738 H1709 0.950 . S
C1738 C1737 1.334 . S
C1738 C1739 1.287 . S
C1739 C1738 1.287 . S
C1739 C1740 1.524 . S
C1739 H1742 0.999 . S
C1740 H1710 0.950 . S
C1740 C1739 1.524 . S
C1740 C1741 1.415 . S
C1741 H1711 0.950 . S
C1741 C1736 1.363 . S
C1741 C1740 1.415 . S
H1742 C1739 0.999 . S
H1743 C1724 0.913 . S
H1744 C1762 0.951 . S
H1745 C1764 0.951 . S
H1746 C1766 0.950 . S
H1747 C1767 0.950 . S
H1748 C1769 0.950 . S
H1749 C1772 0.950 . S
H1750 C1773 0.950 . S
H1751 C1775 0.950 . S
H1752 C1776 0.950 . S
H1753 C1777 0.951 . S
H1754 C1779 0.951 . S
H1755 C1781 0.950 . S
H1756 C1782 0.950 . S
H1757 C1784 0.950 . S
H1758 C1787 0.950 . S
H1759 C1788 0.950 . S
H1760 C1790 0.950 . S
H1761 C1791 0.950 . S
C1762 H1744 0.951 . S
C1762 C1763 1.366 . S
C1762 C1764 1.388 . S
C1763 C1762 1.366 . S
C1763 C1767 1.385 . S
C1764 H1745 0.951 . S
C1764 C1762 1.388 . S
C1764 C1765 1.366 . S
C1765 C1764 1.366 . S
C1765 C1766 1.414 . S
C1765 C1768 1.499 . S
C1766 H1746 0.950 . S
C1766 C1765 1.414 . S
C1766 C1767 1.374 . S
C1767 H1747 0.950 . S
C1767 C1763 1.385 . S
C1767 C1766 1.374 . S
C1768 C1765 1.499 . S
C1768 C1769 1.373 . S
C1768 C1770 1.389 . S
C1769 H1748 0.950 . S
C1769 C1768 1.373 . S
C1769 C1785 1.377 . S
C1770 C1768 1.389 . S
C1770 C1771 1.524 . S
C1770 C1784 1.377 . S
C1771 C1770 1.524 . S
C1771 C1772 1.397 . S
C1771 C1776 1.363 . S
C1772 H1749 0.950 . S
C1772 C1771 1.397 . S
C1772 C1773 1.334 . S
C1773 H1750 0.950 . S
C1773 C1772 1.334 . S
C1773 C1774 1.287 . S
C1774 C1773 1.287 . S
C1774 C1775 1.524 . S
C1774 H1793 0.913 . S
C1775 H1751 0.950 . S
C1775 C1774 1.524 . S
C1775 C1776 1.415 . S
C1776 H1752 0.950 . S
C1776 C1771 1.363 . S
C1776 C1775 1.415 . S
C1777 H1753 0.951 . S
C1777 C1778 1.366 . S
C1777 C1779 1.388 . S
C1778 C1777 1.366 . S
C1778 C1782 1.385 . S
C1779 H1754 0.951 . S
C1779 C1777 1.388 . S
C1779 C1780 1.366 . S
C1780 C1779 1.366 . S
C1780 C1781 1.414 . S
C1780 C1783 1.499 . S
C1781 H1755 0.950 . S
C1781 C1780 1.414 . S
C1781 C1782 1.374 . S
C1782 H1756 0.950 . S
C1782 C1778 1.385 . S
C1782 C1781 1.374 . S
C1783 C1780 1.499 . S
C1783 C1784 1.373 . S
C1783 C1785 1.389 . S
C1784 H1757 0.950 . S
C1784 C1770 1.377 . S
C1784 C1783 1.373 . S
C1785 C1769 1.377 . S
C1785 C1783 1.389 . S
C1785 C1786 1.524 . S
C1786 C1785 1.524 . S
C1786 C1787 1.397 . S
C1786 C1791 1.363 . S
C1787 H1758 0.950 . S
C1787 C1786 1.397 . S
C1787 C1788 1.334 . S
C1788 H1759 0.950 . S
C1788 C1787 1.334 . S
C1788 C1789 1.287 . S
C1789 C1788 1.287 . S
C1789 C1790 1.524 . S
C1789 H1792 0.999 . S
C1790 H1760 0.950 . S
C1790 C1789 1.524 . S
C1790 C1791 1.415 . S
C1791 H1761 0.950 . S
C1791 C1786 1.363 . S
C1791 C1790 1.415 . S
H1792 C1789 0.999 . S
H1793 C1774 0.913 . S
H1794 C1812 0.951 . S
H1795 C1814 0.951 . S
H1796 C1816 0.950 . S
H1797 C1817 0.950 . S
H1798 C1819 0.950 . S
H1799 C1822 0.950 . S
H1800 C1823 0.950 . S
H1801 C1825 0.950 . S
H1802 C1826 0.950 . S
H1803 C1827 0.951 . S
H1804 C1829 0.951 . S
H1805 C1831 0.950 . S
H1806 C1832 0.950 . S
H1807 C1834 0.950 . S
H1808 C1837 0.950 . S
H1809 C1838 0.950 . S
H1810 C1840 0.950 . S
H1811 C1841 0.950 . S
C1812 H1794 0.951 . S
C1812 C1813 1.366 . S
C1812 C1814 1.388 . S
C1813 C1812 1.366 . S
C1813 C1817 1.385 . S
C1814 H1795 0.951 . S
C1814 C1812 1.388 . S
C1814 C1815 1.366 . S
C1815 C1814 1.366 . S
C1815 C1816 1.414 . S
C1815 C1818 1.499 . S
C1816 H1796 0.950 . S
C1816 C1815 1.414 . S
C1816 C1817 1.374 . S
C1817 H1797 0.950 . S
C1817 C1813 1.385 . S
C1817 C1816 1.374 . S
C1818 C1815 1.499 . S
C1818 C1819 1.373 . S
C1818 C1820 1.389 . S
C1819 H1798 0.950 . S
C1819 C1818 1.373 . S
C1819 C1835 1.377 . S
C1820 C1818 1.389 . S
C1820 C1821 1.524 . S
C1820 C1834 1.377 . S
C1821 C1820 1.524 . S
C1821 C1822 1.397 . S
C1821 C1826 1.363 . S
C1822 H1799 0.950 . S
C1822 C1821 1.397 . S
C1822 C1823 1.334 . S
C1823 H1800 0.950 . S
C1823 C1822 1.334 . S
C1823 C1824 1.287 . S
C1824 C1823 1.287 . S
C1824 C1825 1.524 . S
C1824 H1843 0.913 . S
C1825 H1801 0.950 . S
C1825 C1824 1.524 . S
C1825 C1826 1.415 . S
C1826 H1802 0.950 . S
C1826 C1821 1.363 . S
C1826 C1825 1.415 . S
C1827 H1803 0.951 . S
C1827 C1828 1.366 . S
C1827 C1829 1.388 . S
C1828 C1827 1.366 . S
C1828 C1832 1.385 . S
C1829 H1804 0.951 . S
C1829 C1827 1.388 . S
C1829 C1830 1.366 . S
C1830 C1829 1.366 . S
C1830 C1831 1.414 . S
C1830 C1833 1.499 . S
C1831 H1805 0.950 . S
C1831 C1830 1.414 . S
C1831 C1832 1.374 . S
C1832 H1806 0.950 . S
C1832 C1828 1.385 . S
C1832 C1831 1.374 . S
C1833 C1830 1.499 . S
C1833 C1834 1.373 . S
C1833 C1835 1.389 . S
C1834 H1807 0.950 . S
C1834 C1820 1.377 . S
C1834 C1833 1.373 . S
C1835 C1819 1.377 . S
C1835 C1833 1.389 . S
C1835 C1836 1.524 . S
C1836 C1835 1.524 . S
C1836 C1837 1.397 . S
C1836 C1841 1.363 . S
C1837 H1808 0.950 . S
C1837 C1836 1.397 . S
C1837 C1838 1.334 . S
C1838 H1809 0.950 . S
C1838 C1837 1.334 . S
C1838 C1839 1.287 . S
C1839 C1838 1.287 . S
C1839 C1840 1.524 . S
C1839 H1842 0.999 . S
C1840 H1810 0.950 . S
C1840 C1839 1.524 . S
C1840 C1841 1.415 . S
C1841 H1811 0.950 . S
C1841 C1836 1.363 . S
C1841 C1840 1.415 . S
H1842 C1839 0.999 . S
H1843 C1824 0.913 . S
H1844 C1862 0.951 . S
H1845 C1864 0.951 . S
H1846 C1866 0.950 . S
H1847 C1867 0.950 . S
H1848 C1869 0.950 . S
H1849 C1872 0.950 . S
H1850 C1873 0.950 . S
H1851 C1875 0.950 . S
H1852 C1876 0.950 . S
H1853 C1877 0.951 . S
H1854 C1879 0.951 . S
H1855 C1881 0.950 . S
H1856 C1882 0.950 . S
H1857 C1884 0.950 . S
H1858 C1887 0.950 . S
H1859 C1888 0.950 . S
H1860 C1890 0.950 . S
H1861 C1891 0.950 . S
C1862 H1844 0.951 . S
C1862 C1863 1.366 . S
C1862 C1864 1.388 . S
C1863 C1862 1.366 . S
C1863 C1867 1.385 . S
C1864 H1845 0.951 . S
C1864 C1862 1.388 . S
C1864 C1865 1.366 . S
C1865 C1864 1.366 . S
C1865 C1866 1.414 . S
C1865 C1868 1.499 . S
C1866 H1846 0.950 . S
C1866 C1865 1.414 . S
C1866 C1867 1.374 . S
C1867 H1847 0.950 . S
C1867 C1863 1.385 . S
C1867 C1866 1.374 . S
C1868 C1865 1.499 . S
C1868 C1869 1.373 . S
C1868 C1870 1.389 . S
C1869 H1848 0.950 . S
C1869 C1868 1.373 . S
C1869 C1885 1.377 . S
C1870 C1868 1.389 . S
C1870 C1871 1.524 . S
C1870 C1884 1.377 . S
C1871 C1870 1.524 . S
C1871 C1872 1.397 . S
C1871 C1876 1.363 . S
C1872 H1849 0.950 . S
C1872 C1871 1.397 . S
C1872 C1873 1.334 . S
C1873 H1850 0.950 . S
C1873 C1872 1.334 . S
C1873 C1874 1.287 . S
C1874 C1873 1.287 . S
C1874 C1875 1.524 . S
C1874 H1893 0.913 . S
C1875 H1851 0.950 . S
C1875 C1874 1.524 . S
C1875 C1876 1.415 . S
C1876 H1852 0.950 . S
C1876 C1871 1.363 . S
C1876 C1875 1.415 . S
C1877 H1853 0.951 . S
C1877 C1878 1.366 . S
C1877 C1879 1.388 . S
C1878 C1877 1.366 . S
C1878 C1882 1.385 . S
C1879 H1854 0.951 . S
C1879 C1877 1.388 . S
C1879 C1880 1.366 . S
C1880 C1879 1.366 . S
C1880 C1881 1.414 . S
C1880 C1883 1.499 . S
C1881 H1855 0.950 . S
C1881 C1880 1.414 . S
C1881 C1882 1.374 . S
C1882 H1856 0.950 . S
C1882 C1878 1.385 . S
C1882 C1881 1.374 . S
C1883 C1880 1.499 . S
C1883 C1884 1.373 . S
C1883 C1885 1.389 . S
C1884 H1857 0.950 . S
C1884 C1870 1.377 . S
C1884 C1883 1.373 . S
C1885 C1869 1.377 . S
C1885 C1883 1.389 . S
C1885 C1886 1.524 . S
C1886 C1885 1.524 . S
C1886 C1887 1.397 . S
C1886 C1891 1.363 . S
C1887 H1858 0.950 . S
C1887 C1886 1.397 . S
C1887 C1888 1.334 . S
C1888 H1859 0.950 . S
C1888 C1887 1.334 . S
C1888 C1889 1.287 . S
C1889 C1888 1.287 . S
C1889 C1890 1.524 . S
C1889 H1892 0.999 . S
C1890 H1860 0.950 . S
C1890 C1889 1.524 . S
C1890 C1891 1.415 . S
C1891 H1861 0.950 . S
C1891 C1886 1.363 . S
C1891 C1890 1.415 . S
H1892 C1889 0.999 . S
H1893 C1874 0.913 . S
H1894 C1912 0.951 . S
H1895 C1914 0.951 . S
H1896 C1916 0.950 . S
H1897 C1917 0.950 . S
H1898 C1919 0.950 . S
H1899 C1922 0.950 . S
H1900 C1923 0.950 . S
H1901 C1925 0.950 . S
H1902 C1926 0.950 . S
H1903 C1927 0.951 . S
H1904 C1929 0.951 . S
H1905 C1931 0.950 . S
H1906 C1932 0.950 . S
H1907 C1934 0.950 . S
H1908 C1937 0.950 . S
H1909 C1938 0.950 . S
H1910 C1940 0.950 . S
H1911 C1941 0.950 . S
C1912 H1894 0.951 . S
C1912 C1913 1.366 . S
C1912 C1914 1.388 . S
C1913 C1912 1.366 . S
C1913 C1917 1.385 . S
C1914 H1895 0.951 . S
C1914 C1912 1.388 . S
C1914 C1915 1.366 . S
C1915 C1914 1.366 . S
C1915 C1916 1.414 . S
C1915 C1918 1.499 . S
C1916 H1896 0.950 . S
C1916 C1915 1.414 . S
C1916 C1917 1.374 . S
C1917 H1897 0.950 . S
C1917 C1913 1.385 . S
C1917 C1916 1.374 . S
C1918 C1915 1.499 . S
C1918 C1919 1.373 . S
C1918 C1920 1.389 . S
C1919 H1898 0.950 . S
C1919 C1918 1.373 . S
C1919 C1935 1.377 . S
C1920 C1918 1.389 . S
C1920 C1921 1.524 . S
C1920 C1934 1.377 . S
C1921 C1920 1.524 . S
C1921 C1922 1.397 . S
C1921 C1926 1.363 . S
C1922 H1899 0.950 . S
C1922 C1921 1.397 . S
C1922 C1923 1.334 . S
C1923 H1900 0.950 . S
C1923 C1922 1.334 . S
C1923 C1924 1.287 . S
C1924 C1923 1.287 . S
C1924 C1925 1.524 . S
C1924 H1943 0.913 . S
C1925 H1901 0.950 . S
C1925 C1924 1.524 . S
C1925 C1926 1.415 . S
C1926 H1902 0.950 . S
C1926 C1921 1.363 . S
C1926 C1925 1.415 . S
C1927 H1903 0.951 . S
C1927 C1928 1.366 . S
C1927 C1929 1.388 . S
C1928 C1927 1.366 . S
C1928 C1932 1.385 . S
C1929 H1904 0.951 . S
C1929 C1927 1.388 . S
C1929 C1930 1.366 . S
C1930 C1929 1.366 . S
C1930 C1931 1.414 . S
C1930 C1933 1.499 . S
C1931 H1905 0.950 . S
C1931 C1930 1.414 . S
C1931 C1932 1.374 . S
C1932 H1906 0.950 . S
C1932 C1928 1.385 . S
C1932 C1931 1.374 . S
C1933 C1930 1.499 . S
C1933 C1934 1.373 . S
C1933 C1935 1.389 . S
C1934 H1907 0.950 . S
C1934 C1920 1.377 . S
C1934 C1933 1.373 . S
C1935 C1919 1.377 . S
C1935 C1933 1.389 . S
C1935 C1936 1.524 . S
C1936 C1935 1.524 . S
C1936 C1937 1.397 . S
C1936 C1941 1.363 . S
C1937 H1908 0.950 . S
C1937 C1936 1.397 . S
C1937 C1938 1.334 . S
C1938 H1909 0.950 . S
C1938 C1937 1.334 . S
C1938 C1939 1.287 . S
C1939 C1938 1.287 . S
C1939 C1940 1.524 . S
C1939 H1942 0.999 . S
C1940 H1910 0.950 . S
C1940 C1939 1.524 . S
C1940 C1941 1.415 . S
C1941 H1911 0.950 . S
C1941 C1936 1.363 . S
C1941 C1940 1.415 . S
H1942 C1939 0.999 . S
H1943 C1924 0.913 . S
H1944 C1962 0.951 . S
H1945 C1964 0.951 . S
H1946 C1966 0.950 . S
H1947 C1967 0.950 . S
H1948 C1969 0.950 . S
H1949 C1972 0.950 . S
H1950 C1973 0.950 . S
H1951 C1975 0.950 . S
H1952 C1976 0.950 . S
H1953 C1977 0.951 . S
H1954 C1979 0.951 . S
H1955 C1981 0.950 . S
H1956 C1982 0.950 . S
H1957 C1984 0.950 . S
H1958 C1987 0.950 . S
H1959 C1988 0.950 . S
H1960 C1990 0.950 . S
H1961 C1991 0.950 . S
C1962 H1944 0.951 . S
C1962 C1963 1.366 . S
C1962 C1964 1.388 . S
C1963 C1962 1.366 . S
C1963 C1967 1.385 . S
C1964 H1945 0.951 . S
C1964 C1962 1.388 . S
C1964 C1965 1.366 . S
C1965 C1964 1.366 . S
C1965 C1966 1.414 . S
C1965 C1968 1.499 . S
C1966 H1946 0.950 . S
C1966 C1965 1.414 . S
C1966 C1967 1.374 . S
C1967 H1947 0.950 . S
C1967 C1963 1.385 . S
C1967 C1966 1.374 . S
C1968 C1965 1.499 . S
C1968 C1969 1.373 . S
C1968 C1970 1.389 . S
C1969 H1948 0.950 . S
C1969 C1968 1.373 . S
C1969 C1985 1.377 . S
C1970 C1968 1.389 . S
C1970 C1971 1.524 . S
C1970 C1984 1.377 . S
C1971 C1970 1.524 . S
C1971 C1972 1.397 . S
C1971 C1976 1.363 . S
C1972 H1949 0.950 . S
C1972 C1971 1.397 . S
C1972 C1973 1.334 . S
C1973 H1950 0.950 . S
C1973 C1972 1.334 . S
C1973 C1974 1.287 . S
C1974 C1973 1.287 . S
C1974 C1975 1.524 . S
C1974 H1993 0.913 . S
C1975 H1951 0.950 . S
C1975 C1974 1.524 . S
C1975 C1976 1.415 . S
C1976 H1952 0.950 . S
C1976 C1971 1.363 . S
C1976 C1975 1.415 . S
C1977 H1953 0.951 . S
C1977 C1978 1.366 . S
C1977 C1979 1.388 . S
C1978 C1977 1.366 . S
C1978 C1982 1.385 . S
C1979 H1954 0.951 . S
C1979 C1977 1.388 . S
C1979 C1980 1.366 . S
C1980 C1979 1.366 . S
C1980 C1981 1.414 . S
C1980 C1983 1.499 . S
C1981 H1955 0.950 . S
C1981 C1980 1.414 . S
C1981 C1982 1.374 . S
C1982 H1956 0.950 . S
C1982 C1978 1.385 . S
C1982 C1981 1.374 . S
C1983 C1980 1.499 . S
C1983 C1984 1.373 . S
C1983 C1985 1.389 . S
C1984 H1957 0.950 . S
C1984 C1970 1.377 . S
C1984 C1983 1.373 . S
C1985 C1969 1.377 . S
C1985 C1983 1.389 . S
C1985 C1986 1.524 . S
C1986 C1985 1.524 . S
C1986 C1987 1.397 . S
C1986 C1991 1.363 . S
C1987 H1958 0.950 . S
C1987 C1986 1.397 . S
C1987 C1988 1.334 . S
C1988 H1959 0.950 . S
C1988 C1987 1.334 . S
C1988 C1989 1.287 . S
C1989 C1988 1.287 . S
C1989 C1990 1.524 . S
C1989 H1992 0.999 . S
C1990 H1960 0.950 . S
C1990 C1989 1.524 . S
C1990 C1991 1.415 . S
C1991 H1961 0.950 . S
C1991 C1986 1.363 . S
C1991 C1990 1.415 . S
H1992 C1989 0.999 . S
H1993 C1974 0.913 . S
H1994 C2012 0.951 . S
H1995 C2014 0.951 . S
H1996 C2016 0.950 . S
H1997 C2017 0.950 . S
H1998 C2019 0.950 . S
H1999 C2022 0.950 . S
H2000 C2023 0.950 . S
H2001 C2025 0.950 . S
H2002 C2026 0.950 . S
H2003 C2027 0.951 . S
H2004 C2029 0.951 . S
H2005 C2031 0.950 . S
H2006 C2032 0.950 1_554 S
H2007 C2034 0.950 . S
H2008 C2037 0.950 . S
H2009 C2038 0.950 . S
H2010 C2040 0.950 . S
H2011 C2041 0.950 . S
C2012 H1994 0.951 . S
C2012 C2013 1.366 . S
C2012 C2014 1.388 . S
C2013 C2012 1.366 . S
C2013 C2017 1.385 . S
C2014 H1995 0.951 . S
C2014 C2012 1.388 . S
C2014 C2015 1.366 . S
C2015 C2014 1.366 . S
C2015 C2016 1.414 . S
C2015 C2018 1.499 . S
C2016 H1996 0.950 . S
C2016 C2015 1.414 . S
C2016 C2017 1.374 . S
C2017 H1997 0.950 . S
C2017 C2013 1.385 . S
C2017 C2016 1.374 . S
C2018 C2015 1.499 . S
C2018 C2019 1.373 . S
C2018 C2020 1.389 . S
C2019 H1998 0.950 . S
C2019 C2018 1.373 . S
C2019 C2035 1.377 . S
C2020 C2018 1.389 . S
C2020 C2021 1.524 . S
C2020 C2034 1.377 . S
C2021 C2020 1.524 . S
C2021 C2022 1.397 . S
C2021 C2026 1.363 . S
C2022 H1999 0.950 . S
C2022 C2021 1.397 . S
C2022 C2023 1.334 . S
C2023 H2000 0.950 . S
C2023 C2022 1.334 . S
C2023 C2024 1.295 . S
C2024 C2023 1.295 . S
C2024 C2025 1.525 1_556 S
C2024 H2043 0.904 1_556 S
C2025 H2001 0.950 . S
C2025 C2024 1.525 1_554 S
C2025 C2026 1.415 1_554 S
C2026 H2002 0.950 . S
C2026 C2021 1.363 . S
C2026 C2025 1.415 1_556 S
C2027 H2003 0.951 . S
C2027 C2028 1.366 . S
C2027 C2029 1.388 . S
C2028 C2027 1.366 . S
C2028 C2032 1.385 . S
C2029 H2004 0.951 . S
C2029 C2027 1.388 . S
C2029 C2030 1.366 . S
C2030 C2029 1.366 . S
C2030 C2031 1.414 . S
C2030 C2033 1.499 . S
C2031 H2005 0.950 . S
C2031 C2030 1.414 . S
C2031 C2032 1.374 . S
C2032 H2006 0.950 1_556 S
C2032 C2028 1.385 . S
C2032 C2031 1.374 . S
C2033 C2030 1.499 . S
C2033 C2034 1.373 . S
C2033 C2035 1.389 . S
C2034 H2007 0.950 . S
C2034 C2020 1.377 . S
C2034 C2033 1.373 . S
C2035 C2019 1.377 . S
C2035 C2033 1.389 . S
C2035 C2036 1.524 . S
C2036 C2035 1.524 . S
C2036 C2037 1.397 . S
C2036 C2041 1.363 . S
C2037 H2008 0.950 . S
C2037 C2036 1.397 . S
C2037 C2038 1.334 . S
C2038 H2009 0.950 . S
C2038 C2037 1.334 . S
C2038 C2039 1.287 . S
C2039 C2038 1.287 . S
C2039 C2040 1.524 . S
C2039 H2042 0.999 . S
C2040 H2010 0.950 . S
C2040 C2039 1.524 . S
C2040 C2041 1.415 . S
C2041 H2011 0.950 . S
C2041 C2036 1.363 . S
C2041 C2040 1.415 . S
H2042 C2039 0.999 . S
H2043 C2024 0.904 1_554 S
H2044 C2062 0.951 . S
H2045 C2064 0.951 . S
H2046 C2066 0.950 . S
H2047 C2067 0.950 . S
H2048 C2069 0.950 . S
H2049 C2072 0.950 . S
H2050 C2073 0.950 . S
H2051 C2075 0.950 . S
H2052 C2076 0.950 . S
H2053 C2077 0.951 . S
H2054 C2079 0.951 . S
H2055 C2081 0.950 . S
H2056 C2082 0.950 . S
H2057 C2084 0.950 . S
H2058 C2087 0.950 . S
H2059 C2088 0.950 . S
H2060 C2090 0.950 . S
H2061 C2091 0.950 . S
C2062 H2044 0.951 . S
C2062 C2063 1.366 . S
C2062 C2064 1.388 . S
C2063 C2062 1.366 . S
C2063 C2067 1.385 . S
C2064 H2045 0.951 . S
C2064 C2062 1.388 . S
C2064 C2065 1.366 . S
C2065 C2064 1.366 . S
C2065 C2066 1.414 . S
C2065 C2068 1.499 . S
C2066 H2046 0.950 . S
C2066 C2065 1.414 . S
C2066 C2067 1.374 . S
C2067 H2047 0.950 . S
C2067 C2063 1.385 . S
C2067 C2066 1.374 . S
C2068 C2065 1.499 . S
C2068 C2069 1.373 . S
C2068 C2070 1.389 . S
C2069 H2048 0.950 . S
C2069 C2068 1.373 . S
C2069 C2085 1.377 . S
C2070 C2068 1.389 . S
C2070 C2071 1.524 . S
C2070 C2084 1.377 . S
C2071 C2070 1.524 . S
C2071 C2072 1.397 . S
C2071 C2076 1.363 . S
C2072 H2049 0.950 . S
C2072 C2071 1.397 . S
C2072 C2073 1.334 . S
C2073 H2050 0.950 . S
C2073 C2072 1.334 . S
C2073 C2074 1.287 . S
C2074 C2073 1.287 . S
C2074 C2075 1.524 . S
C2074 H2093 0.913 . S
C2075 H2051 0.950 . S
C2075 C2074 1.524 . S
C2075 C2076 1.415 . S
C2076 H2052 0.950 . S
C2076 C2071 1.363 . S
C2076 C2075 1.415 . S
C2077 H2053 0.951 . S
C2077 C2078 1.366 . S
C2077 C2079 1.388 . S
C2078 C2077 1.366 . S
C2078 C2082 1.385 . S
C2079 H2054 0.951 . S
C2079 C2077 1.388 . S
C2079 C2080 1.366 . S
C2080 C2079 1.366 . S
C2080 C2081 1.414 . S
C2080 C2083 1.499 . S
C2081 H2055 0.950 . S
C2081 C2080 1.414 . S
C2081 C2082 1.374 . S
C2082 H2056 0.950 . S
C2082 C2078 1.385 . S
C2082 C2081 1.374 . S
C2083 C2080 1.499 . S
C2083 C2084 1.373 . S
C2083 C2085 1.389 . S
C2084 H2057 0.950 . S
C2084 C2070 1.377 . S
C2084 C2083 1.373 . S
C2085 C2069 1.377 . S
C2085 C2083 1.389 . S
C2085 C2086 1.524 . S
C2086 C2085 1.524 . S
C2086 C2087 1.397 . S
C2086 C2091 1.363 . S
C2087 H2058 0.950 . S
C2087 C2086 1.397 . S
C2087 C2088 1.334 . S
C2088 H2059 0.950 . S
C2088 C2087 1.334 . S
C2088 C2089 1.287 . S
C2089 C2088 1.287 . S
C2089 C2090 1.524 . S
C2089 H2092 0.999 . S
C2090 H2060 0.950 . S
C2090 C2089 1.524 . S
C2090 C2091 1.415 . S
C2091 H2061 0.950 . S
C2091 C2086 1.363 . S
C2091 C2090 1.415 . S
H2092 C2089 0.999 . S
H2093 C2074 0.913 . S
H2094 C2112 0.951 . S
H2095 C2114 0.951 . S
H2096 C2116 0.950 . S
H2097 C2117 0.950 . S
H2098 C2119 0.950 . S
H2099 C2122 0.950 . S
H2100 C2123 0.950 . S
H2101 C2125 0.950 . S
H2102 C2126 0.950 . S
H2103 C2127 0.951 . S
H2104 C2129 0.951 . S
H2105 C2131 0.950 . S
H2106 C2132 0.950 . S
H2107 C2134 0.950 . S
H2108 C2137 0.950 . S
H2109 C2138 0.950 . S
H2110 C2140 0.950 . S
H2111 C2141 0.950 . S
C2112 H2094 0.951 . S
C2112 C2113 1.366 . S
C2112 C2114 1.388 . S
C2113 C2112 1.366 . S
C2113 C2117 1.385 . S
C2114 H2095 0.951 . S
C2114 C2112 1.388 . S
C2114 C2115 1.366 . S
C2115 C2114 1.366 . S
C2115 C2116 1.414 . S
C2115 C2118 1.499 . S
C2116 H2096 0.950 . S
C2116 C2115 1.414 . S
C2116 C2117 1.374 . S
C2117 H2097 0.950 . S
C2117 C2113 1.385 . S
C2117 C2116 1.374 . S
C2118 C2115 1.499 . S
C2118 C2119 1.373 . S
C2118 C2120 1.389 . S
C2119 H2098 0.950 . S
C2119 C2118 1.373 . S
C2119 C2135 1.377 . S
C2120 C2118 1.389 . S
C2120 C2121 1.524 . S
C2120 C2134 1.377 . S
C2121 C2120 1.524 . S
C2121 C2122 1.397 . S
C2121 C2126 1.363 . S
C2122 H2099 0.950 . S
C2122 C2121 1.397 . S
C2122 C2123 1.334 . S
C2123 H2100 0.950 . S
C2123 C2122 1.334 . S
C2123 C2124 1.287 . S
C2124 C2123 1.287 . S
C2124 C2125 1.524 . S
C2124 H2143 0.913 . S
C2125 H2101 0.950 . S
C2125 C2124 1.524 . S
C2125 C2126 1.415 . S
C2126 H2102 0.950 . S
C2126 C2121 1.363 . S
C2126 C2125 1.415 . S
C2127 H2103 0.951 . S
C2127 C2128 1.366 . S
C2127 C2129 1.388 . S
C2128 C2127 1.366 . S
C2128 C2132 1.385 . S
C2129 H2104 0.951 . S
C2129 C2127 1.388 . S
C2129 C2130 1.366 . S
C2130 C2129 1.366 . S
C2130 C2131 1.414 . S
C2130 C2133 1.499 . S
C2131 H2105 0.950 . S
C2131 C2130 1.414 . S
C2131 C2132 1.374 . S
C2132 H2106 0.950 . S
C2132 C2128 1.385 . S
C2132 C2131 1.374 . S
C2133 C2130 1.499 . S
C2133 C2134 1.373 . S
C2133 C2135 1.389 . S
C2134 H2107 0.950 . S
C2134 C2120 1.377 . S
C2134 C2133 1.373 . S
C2135 C2119 1.377 . S
C2135 C2133 1.389 . S
C2135 C2136 1.524 . S
C2136 C2135 1.524 . S
C2136 C2137 1.397 . S
C2136 C2141 1.363 . S
C2137 H2108 0.950 . S
C2137 C2136 1.397 . S
C2137 C2138 1.334 . S
C2138 H2109 0.950 . S
C2138 C2137 1.334 . S
C2138 C2139 1.287 . S
C2139 C2138 1.287 . S
C2139 C2140 1.524 . S
C2139 H2142 0.999 . S
C2140 H2110 0.950 . S
C2140 C2139 1.524 . S
C2140 C2141 1.415 . S
C2141 H2111 0.950 . S
C2141 C2136 1.363 . S
C2141 C2140 1.415 . S
H2142 C2139 0.999 . S
H2143 C2124 0.913 . S
H2144 C2162 0.951 . S
H2145 C2164 0.951 . S
H2146 C2166 0.950 . S
H2147 C2167 0.950 . S
H2148 C2169 0.950 . S
H2149 C2172 0.950 . S
H2150 C2173 0.950 . S
H2151 C2175 0.950 . S
H2152 C2176 0.950 . S
H2153 C2177 0.951 . S
H2154 C2179 0.951 . S
H2155 C2181 0.950 . S
H2156 C2182 0.950 . S
H2157 C2184 0.950 . S
H2158 C2187 0.950 . S
H2159 C2188 0.950 . S
H2160 C2190 0.950 . S
H2161 C2191 0.950 . S
C2162 H2144 0.951 . S
C2162 C2163 1.366 . S
C2162 C2164 1.388 . S
C2163 C2162 1.366 . S
C2163 C2167 1.385 . S
C2164 H2145 0.951 . S
C2164 C2162 1.388 . S
C2164 C2165 1.366 . S
C2165 C2164 1.366 . S
C2165 C2166 1.414 . S
C2165 C2168 1.499 . S
C2166 H2146 0.950 . S
C2166 C2165 1.414 . S
C2166 C2167 1.374 . S
C2167 H2147 0.950 . S
C2167 C2163 1.385 . S
C2167 C2166 1.374 . S
C2168 C2165 1.499 . S
C2168 C2169 1.373 . S
C2168 C2170 1.389 . S
C2169 H2148 0.950 . S
C2169 C2168 1.373 . S
C2169 C2185 1.377 . S
C2170 C2168 1.389 . S
C2170 C2171 1.524 . S
C2170 C2184 1.377 . S
C2171 C2170 1.524 . S
C2171 C2172 1.397 . S
C2171 C2176 1.363 . S
C2172 H2149 0.950 . S
C2172 C2171 1.397 . S
C2172 C2173 1.334 . S
C2173 H2150 0.950 . S
C2173 C2172 1.334 . S
C2173 C2174 1.287 . S
C2174 C2173 1.287 . S
C2174 C2175 1.524 . S
C2174 H2193 0.913 . S
C2175 H2151 0.950 . S
C2175 C2174 1.524 . S
C2175 C2176 1.415 . S
C2176 H2152 0.950 . S
C2176 C2171 1.363 . S
C2176 C2175 1.415 . S
C2177 H2153 0.951 . S
C2177 C2178 1.366 . S
C2177 C2179 1.388 . S
C2178 C2177 1.366 . S
C2178 C2182 1.385 . S
C2179 H2154 0.951 . S
C2179 C2177 1.388 . S
C2179 C2180 1.366 . S
C2180 C2179 1.366 . S
C2180 C2181 1.414 . S
C2180 C2183 1.499 . S
C2181 H2155 0.950 . S
C2181 C2180 1.414 . S
C2181 C2182 1.374 . S
C2182 H2156 0.950 . S
C2182 C2178 1.385 . S
C2182 C2181 1.374 . S
C2183 C2180 1.499 . S
C2183 C2184 1.373 . S
C2183 C2185 1.389 . S
C2184 H2157 0.950 . S
C2184 C2170 1.377 . S
C2184 C2183 1.373 . S
C2185 C2169 1.377 . S
C2185 C2183 1.389 . S
C2185 C2186 1.524 . S
C2186 C2185 1.524 . S
C2186 C2187 1.397 . S
C2186 C2191 1.363 . S
C2187 H2158 0.950 . S
C2187 C2186 1.397 . S
C2187 C2188 1.334 . S
C2188 H2159 0.950 . S
C2188 C2187 1.334 . S
C2188 C2189 1.287 . S
C2189 C2188 1.287 . S
C2189 C2190 1.524 . S
C2189 H2192 0.999 . S
C2190 H2160 0.950 . S
C2190 C2189 1.524 . S
C2190 C2191 1.415 . S
C2191 H2161 0.950 . S
C2191 C2186 1.363 . S
C2191 C2190 1.415 . S
H2192 C2189 0.999 . S
H2193 C2174 0.913 . S
H2194 C2212 0.951 . S
H2195 C2214 0.951 . S
H2196 C2216 0.950 . S
H2197 C2217 0.950 . S
H2198 C2219 0.950 . S
H2199 C2222 0.950 . S
H2200 C2223 0.950 . S
H2201 C2225 0.950 . S
H2202 C2226 0.950 . S
H2203 C2227 0.951 . S
H2204 C2229 0.951 . S
H2205 C2231 0.950 . S
H2206 C2232 0.950 . S
H2207 C2234 0.950 . S
H2208 C2237 0.950 . S
H2209 C2238 0.950 . S
H2210 C2240 0.950 . S
H2211 C2241 0.950 . S
C2212 H2194 0.951 . S
C2212 C2213 1.366 . S
C2212 C2214 1.388 . S
C2213 C2212 1.366 . S
C2213 C2217 1.385 . S
C2214 H2195 0.951 . S
C2214 C2212 1.388 . S
C2214 C2215 1.366 . S
C2215 C2214 1.366 . S
C2215 C2216 1.414 . S
C2215 C2218 1.499 . S
C2216 H2196 0.950 . S
C2216 C2215 1.414 . S
C2216 C2217 1.374 . S
C2217 H2197 0.950 . S
C2217 C2213 1.385 . S
C2217 C2216 1.374 . S
C2218 C2215 1.499 . S
C2218 C2219 1.373 . S
C2218 C2220 1.389 . S
C2219 H2198 0.950 . S
C2219 C2218 1.373 . S
C2219 C2235 1.377 . S
C2220 C2218 1.389 . S
C2220 C2221 1.524 . S
C2220 C2234 1.377 . S
C2221 C2220 1.524 . S
C2221 C2222 1.397 . S
C2221 C2226 1.363 . S
C2222 H2199 0.950 . S
C2222 C2221 1.397 . S
C2222 C2223 1.334 . S
C2223 H2200 0.950 . S
C2223 C2222 1.334 . S
C2223 C2224 1.287 . S
C2224 C2223 1.287 . S
C2224 C2225 1.524 . S
C2224 H2243 0.913 . S
C2225 H2201 0.950 . S
C2225 C2224 1.524 . S
C2225 C2226 1.415 . S
C2226 H2202 0.950 . S
C2226 C2221 1.363 . S
C2226 C2225 1.415 . S
C2227 H2203 0.951 . S
C2227 C2228 1.366 . S
C2227 C2229 1.388 . S
C2228 C2227 1.366 . S
C2228 C2232 1.385 . S
C2229 H2204 0.951 . S
C2229 C2227 1.388 . S
C2229 C2230 1.366 . S
C2230 C2229 1.366 . S
C2230 C2231 1.414 . S
C2230 C2233 1.499 . S
C2231 H2205 0.950 . S
C2231 C2230 1.414 . S
C2231 C2232 1.374 . S
C2232 H2206 0.950 . S
C2232 C2228 1.385 . S
C2232 C2231 1.374 . S
C2233 C2230 1.499 . S
C2233 C2234 1.373 . S
C2233 C2235 1.389 . S
C2234 H2207 0.950 . S
C2234 C2220 1.377 . S
C2234 C2233 1.373 . S
C2235 C2219 1.377 . S
C2235 C2233 1.389 . S
C2235 C2236 1.524 . S
C2236 C2235 1.524 . S
C2236 C2237 1.397 . S
C2236 C2241 1.363 . S
C2237 H2208 0.950 . S
C2237 C2236 1.397 . S
C2237 C2238 1.334 . S
C2238 H2209 0.950 . S
C2238 C2237 1.334 . S
C2238 C2239 1.287 . S
C2239 C2238 1.287 . S
C2239 C2240 1.524 . S
C2239 H2242 0.999 . S
C2240 H2210 0.950 . S
C2240 C2239 1.524 . S
C2240 C2241 1.415 . S
C2241 H2211 0.950 . S
C2241 C2236 1.363 . S
C2241 C2240 1.415 . S
H2242 C2239 0.999 . S
H2243 C2224 0.913 . S
H2244 C2262 0.951 . S
H2245 C2264 0.951 . S
H2246 C2266 0.950 . S
H2247 C2267 0.950 . S
H2248 C2269 0.950 . S
H2249 C2272 0.950 . S
H2250 C2273 0.950 . S
H2251 C2275 0.950 . S
H2252 C2276 0.950 . S
H2253 C2277 0.951 . S
H2254 C2279 0.951 . S
H2255 C2281 0.950 . S
H2256 C2282 0.950 . S
H2257 C2284 0.950 . S
H2258 C2287 0.950 . S
H2259 C2288 0.950 . S
H2260 C2290 0.950 . S
H2261 C2291 0.950 . S
C2262 H2244 0.951 . S
C2262 C2263 1.366 . S
C2262 C2264 1.388 . S
C2263 C2262 1.366 . S
C2263 C2267 1.385 . S
C2264 H2245 0.951 . S
C2264 C2262 1.388 . S
C2264 C2265 1.366 . S
C2265 C2264 1.366 . S
C2265 C2266 1.414 . S
C2265 C2268 1.499 . S
C2266 H2246 0.950 . S
C2266 C2265 1.414 . S
C2266 C2267 1.374 . S
C2267 H2247 0.950 . S
C2267 C2263 1.385 . S
C2267 C2266 1.374 . S
C2268 C2265 1.499 . S
C2268 C2269 1.373 . S
C2268 C2270 1.389 . S
C2269 H2248 0.950 . S
C2269 C2268 1.373 . S
C2269 C2285 1.377 . S
C2270 C2268 1.389 . S
C2270 C2271 1.524 . S
C2270 C2284 1.377 . S
C2271 C2270 1.524 . S
C2271 C2272 1.397 . S
C2271 C2276 1.363 . S
C2272 H2249 0.950 . S
C2272 C2271 1.397 . S
C2272 C2273 1.334 . S
C2273 H2250 0.950 . S
C2273 C2272 1.334 . S
C2273 C2274 1.287 . S
C2274 C2273 1.287 . S
C2274 C2275 1.524 . S
C2274 H2293 0.913 . S
C2275 H2251 0.950 . S
C2275 C2274 1.524 . S
C2275 C2276 1.415 . S
C2276 H2252 0.950 . S
C2276 C2271 1.363 . S
C2276 C2275 1.415 . S
C2277 H2253 0.951 . S
C2277 C2278 1.366 . S
C2277 C2279 1.388 . S
C2278 C2277 1.366 . S
C2278 C2282 1.385 . S
C2279 H2254 0.951 . S
C2279 C2277 1.388 . S
C2279 C2280 1.366 . S
C2280 C2279 1.366 . S
C2280 C2281 1.414 . S
C2280 C2283 1.499 . S
C2281 H2255 0.950 . S
C2281 C2280 1.414 . S
C2281 C2282 1.374 . S
C2282 H2256 0.950 . S
C2282 C2278 1.385 . S
C2282 C2281 1.374 . S
C2283 C2280 1.499 . S
C2283 C2284 1.373 . S
C2283 C2285 1.389 . S
C2284 H2257 0.950 . S
C2284 C2270 1.377 . S
C2284 C2283 1.373 . S
C2285 C2269 1.377 . S
C2285 C2283 1.389 . S
C2285 C2286 1.524 . S
C2286 C2285 1.524 . S
C2286 C2287 1.397 . S
C2286 C2291 1.363 . S
C2287 H2258 0.950 . S
C2287 C2286 1.397 . S
C2287 C2288 1.334 . S
C2288 H2259 0.950 . S
C2288 C2287 1.334 . S
C2288 C2289 1.287 . S
C2289 C2288 1.287 . S
C2289 C2290 1.524 . S
C2289 H2292 0.999 . S
C2290 H2260 0.950 . S
C2290 C2289 1.524 . S
C2290 C2291 1.415 . S
C2291 H2261 0.950 . S
C2291 C2286 1.363 . S
C2291 C2290 1.415 . S
H2292 C2289 0.999 . S
H2293 C2274 0.913 . S
H2294 C2312 0.951 . S
H2295 C2314 0.951 . S
H2296 C2316 0.950 . S
H2297 C2317 0.950 . S
H2298 C2319 0.950 . S
H2299 C2322 0.950 . S
H2300 C2323 0.950 . S
H2301 C2325 0.950 . S
H2302 C2326 0.950 . S
H2303 C2327 0.951 . S
H2304 C2329 0.951 . S
H2305 C2331 0.950 . S
H2306 C2332 0.950 . S
H2307 C2334 0.950 . S
H2308 C2337 0.950 . S
H2309 C2338 0.970 . S
H2310 C2340 0.950 . S
H2311 C2341 0.950 . S
C2312 H2294 0.951 . S
C2312 C2313 1.366 . S
C2312 C2314 1.388 . S
C2313 C2312 1.366 . S
C2313 C2317 1.385 . S
C2314 H2295 0.951 . S
C2314 C2312 1.388 . S
C2314 C2315 1.366 . S
C2315 C2314 1.366 . S
C2315 C2316 1.414 . S
C2315 C2318 1.499 . S
C2316 H2296 0.950 . S
C2316 C2315 1.414 . S
C2316 C2317 1.374 . S
C2317 H2297 0.950 . S
C2317 C2313 1.385 . S
C2317 C2316 1.374 . S
C2318 C2315 1.499 . S
C2318 C2319 1.373 . S
C2318 C2320 1.389 . S
C2319 H2298 0.950 . S
C2319 C2318 1.373 . S
C2319 C2335 1.377 . S
C2320 C2318 1.389 . S
C2320 C2321 1.524 . S
C2320 C2334 1.377 . S
C2321 C2320 1.524 . S
C2321 C2322 1.397 . S
C2321 C2326 1.363 . S
C2322 H2299 0.950 . S
C2322 C2321 1.397 . S
C2322 C2323 1.334 . S
C2323 H2300 0.950 . S
C2323 C2322 1.334 . S
C2323 C2324 1.287 . S
C2324 C2323 1.287 . S
C2324 C2325 1.524 . S
C2324 H2343 0.913 . S
C2325 H2301 0.950 . S
C2325 C2324 1.524 . S
C2325 C2326 1.415 . S
C2326 H2302 0.950 . S
C2326 C2321 1.363 . S
C2326 C2325 1.415 . S
C2327 H2303 0.951 . S
C2327 C2328 1.366 . S
C2327 C2329 1.388 . S
C2328 C2327 1.366 . S
C2328 C2332 1.385 . S
C2329 H2304 0.951 . S
C2329 C2327 1.388 . S
C2329 C2330 1.366 . S
C2330 C2329 1.366 . S
C2330 C2331 1.414 . S
C2330 C2333 1.499 . S
C2331 H2305 0.950 . S
C2331 C2330 1.414 . S
C2331 C2332 1.374 . S
C2332 H2306 0.950 . S
C2332 C2328 1.385 . S
C2332 C2331 1.374 . S
C2333 C2330 1.499 . S
C2333 C2334 1.373 . S
C2333 C2335 1.389 . S
C2334 H2307 0.950 . S
C2334 C2320 1.377 . S
C2334 C2333 1.373 . S
C2335 C2319 1.377 . S
C2335 C2333 1.389 . S
C2335 C2336 1.524 . S
C2336 C2335 1.524 . S
C2336 C2337 1.397 . S
C2336 C2341 1.363 . S
C2337 H2308 0.950 . S
C2337 C2336 1.397 . S
C2337 C2338 1.334 . S
C2338 H2309 0.970 . S
C2338 C2337 1.334 . S
C2338 C2339 1.287 . S
C2339 C2338 1.287 . S
C2339 C2340 1.524 . S
C2339 H2342 0.999 1_565 S
C2340 H2310 0.950 . S
C2340 C2339 1.524 . S
C2340 C2341 1.415 . S
C2341 H2311 0.950 . S
C2341 C2336 1.363 . S
C2341 C2340 1.415 . S
H2342 C2339 0.999 1_545 S
H2343 C2324 0.913 . S
H2344 C2362 0.951 . S
H2345 C2364 0.951 . S
H2346 C2366 0.950 . S
H2347 C2367 0.950 . S
H2348 C2369 0.950 . S
H2349 C2372 0.950 . S
H2350 C2373 0.950 . S
H2351 C2375 0.950 . S
H2352 C2376 0.950 . S
H2353 C2377 0.951 . S
H2354 C2379 0.951 . S
H2355 C2381 0.950 . S
H2356 C2382 0.950 . S
H2357 C2384 0.950 . S
H2358 C2387 0.950 . S
H2359 C2388 0.950 . S
H2360 C2390 0.950 . S
H2361 C2391 0.950 . S
C2362 H2344 0.951 . S
C2362 C2363 1.366 . S
C2362 C2364 1.388 . S
C2363 C2362 1.366 . S
C2363 C2367 1.385 . S
C2364 H2345 0.951 . S
C2364 C2362 1.388 . S
C2364 C2365 1.366 . S
C2365 C2364 1.366 . S
C2365 C2366 1.414 . S
C2365 C2368 1.499 . S
C2366 H2346 0.950 . S
C2366 C2365 1.414 . S
C2366 C2367 1.374 . S
C2367 H2347 0.950 . S
C2367 C2363 1.385 . S
C2367 C2366 1.374 . S
C2368 C2365 1.499 . S
C2368 C2369 1.373 . S
C2368 C2370 1.389 . S
C2369 H2348 0.950 . S
C2369 C2368 1.373 . S
C2369 C2385 1.377 . S
C2370 C2368 1.389 . S
C2370 C2371 1.524 . S
C2370 C2384 1.377 . S
C2371 C2370 1.524 . S
C2371 C2372 1.397 . S
C2371 C2376 1.363 . S
C2372 H2349 0.950 . S
C2372 C2371 1.397 . S
C2372 C2373 1.334 . S
C2373 H2350 0.950 . S
C2373 C2372 1.334 . S
C2373 C2374 1.287 . S
C2374 C2373 1.287 . S
C2374 C2375 1.524 . S
C2374 H2393 0.913 . S
C2375 H2351 0.950 . S
C2375 C2374 1.524 . S
C2375 C2376 1.415 . S
C2376 H2352 0.950 . S
C2376 C2371 1.363 . S
C2376 C2375 1.415 . S
C2377 H2353 0.951 . S
C2377 C2378 1.366 . S
C2377 C2379 1.388 . S
C2378 C2377 1.366 . S
C2378 C2382 1.385 . S
C2379 H2354 0.951 . S
C2379 C2377 1.388 . S
C2379 C2380 1.366 . S
C2380 C2379 1.366 . S
C2380 C2381 1.414 . S
C2380 C2383 1.499 . S
C2381 H2355 0.950 . S
C2381 C2380 1.414 . S
C2381 C2382 1.374 . S
C2382 H2356 0.950 . S
C2382 C2378 1.385 . S
C2382 C2381 1.374 . S
C2383 C2380 1.499 . S
C2383 C2384 1.373 . S
C2383 C2385 1.389 . S
C2384 H2357 0.950 . S
C2384 C2370 1.377 . S
C2384 C2383 1.373 . S
C2385 C2369 1.377 . S
C2385 C2383 1.389 . S
C2385 C2386 1.524 . S
C2386 C2385 1.524 . S
C2386 C2387 1.397 . S
C2386 C2391 1.363 . S
C2387 H2358 0.950 . S
C2387 C2386 1.397 . S
C2387 C2388 1.334 . S
C2388 H2359 0.950 . S
C2388 C2387 1.334 . S
C2388 C2389 1.287 . S
C2389 C2388 1.287 . S
C2389 C2390 1.524 . S
C2389 H2392 0.999 1_455 S
C2390 H2360 0.950 . S
C2390 C2389 1.524 . S
C2390 C2391 1.415 . S
C2391 H2361 0.950 . S
C2391 C2386 1.363 . S
C2391 C2390 1.415 . S
H2392 C2389 0.999 1_655 S
H2393 C2374 0.913 . S
H2394 C2412 0.951 . S
H2395 C2414 0.951 . S
H2396 C2416 0.950 . S
H2397 C2417 0.950 . S
H2398 C2419 0.950 . S
H2399 C2422 0.950 . S
H2400 C2423 0.950 . S
H2401 C2425 0.950 . S
H2402 C2426 0.950 . S
H2403 C2427 0.951 . S
H2404 C2429 0.951 . S
H2405 C2431 0.950 . S
H2406 C2432 0.950 . S
H2407 C2434 0.950 . S
H2408 C2437 0.950 . S
H2409 C2438 0.950 . S
H2410 C2440 0.950 . S
H2411 C2441 0.950 . S
C2412 H2394 0.951 . S
C2412 C2413 1.366 . S
C2412 C2414 1.388 . S
C2413 C2412 1.366 . S
C2413 C2417 1.385 . S
C2414 H2395 0.951 . S
C2414 C2412 1.388 . S
C2414 C2415 1.366 . S
C2415 C2414 1.366 . S
C2415 C2416 1.414 . S
C2415 C2418 1.499 . S
C2416 H2396 0.950 . S
C2416 C2415 1.414 . S
C2416 C2417 1.374 . S
C2417 H2397 0.950 . S
C2417 C2413 1.385 . S
C2417 C2416 1.374 . S
C2418 C2415 1.499 . S
C2418 C2419 1.373 . S
C2418 C2420 1.389 . S
C2419 H2398 0.950 . S
C2419 C2418 1.373 . S
C2419 C2435 1.377 . S
C2420 C2418 1.389 . S
C2420 C2421 1.524 . S
C2420 C2434 1.377 . S
C2421 C2420 1.524 . S
C2421 C2422 1.397 . S
C2421 C2426 1.363 . S
C2422 H2399 0.950 . S
C2422 C2421 1.397 . S
C2422 C2423 1.334 . S
C2423 H2400 0.950 . S
C2423 C2422 1.334 . S
C2423 C2424 1.287 . S
C2424 C2423 1.287 . S
C2424 C2425 1.524 . S
C2424 H2443 0.913 . S
C2425 H2401 0.950 . S
C2425 C2424 1.524 . S
C2425 C2426 1.415 . S
C2426 H2402 0.950 . S
C2426 C2421 1.363 . S
C2426 C2425 1.415 . S
C2427 H2403 0.951 . S
C2427 C2428 1.366 . S
C2427 C2429 1.388 . S
C2428 C2427 1.366 . S
C2428 C2432 1.385 . S
C2429 H2404 0.951 . S
C2429 C2427 1.388 . S
C2429 C2430 1.366 . S
C2430 C2429 1.366 . S
C2430 C2431 1.414 . S
C2430 C2433 1.499 . S
C2431 H2405 0.950 . S
C2431 C2430 1.414 . S
C2431 C2432 1.374 . S
C2432 H2406 0.950 . S
C2432 C2428 1.385 . S
C2432 C2431 1.374 . S
C2433 C2430 1.499 . S
C2433 C2434 1.373 . S
C2433 C2435 1.389 . S
C2434 H2407 0.950 . S
C2434 C2420 1.377 . S
C2434 C2433 1.373 . S
C2435 C2419 1.377 . S
C2435 C2433 1.389 . S
C2435 C2436 1.524 . S
C2436 C2435 1.524 . S
C2436 C2437 1.397 . S
C2436 C2441 1.363 . S
C2437 H2408 0.950 . S
C2437 C2436 1.397 . S
C2437 C2438 1.334 . S
C2438 H2409 0.950 . S
C2438 C2437 1.334 . S
C2438 C2439 1.287 . S
C2439 C2438 1.287 . S
C2439 C2440 1.524 . S
C2439 H2442 0.999 . S
C2440 H2410 0.950 . S
C2440 C2439 1.524 . S
C2440 C2441 1.415 . S
C2441 H2411 0.950 . S
C2441 C2436 1.363 . S
C2441 C2440 1.415 . S
H2442 C2439 0.999 . S
H2443 C2424 0.913 . S
H2444 C2462 0.951 . S
H2445 C2464 0.951 . S
H2446 C2466 0.950 . S
H2447 C2467 0.950 . S
H2448 C2469 0.950 . S
H2449 C2472 0.950 . S
H2450 C2473 0.950 . S
H2451 C2475 0.950 . S
H2452 C2476 0.950 . S
H2453 C2477 0.951 . S
H2454 C2479 0.951 . S
H2455 C2481 0.950 . S
H2456 C2482 0.950 . S
H2457 C2484 0.950 . S
H2458 C2487 0.950 . S
H2459 C2488 0.950 . S
H2460 C2490 0.950 . S
H2461 C2491 0.950 . S
C2462 H2444 0.951 . S
C2462 C2463 1.366 . S
C2462 C2464 1.388 . S
C2463 C2462 1.366 . S
C2463 C2467 1.385 . S
C2464 H2445 0.951 . S
C2464 C2462 1.388 . S
C2464 C2465 1.366 . S
C2465 C2464 1.366 . S
C2465 C2466 1.414 . S
C2465 C2468 1.499 . S
C2466 H2446 0.950 . S
C2466 C2465 1.414 . S
C2466 C2467 1.374 . S
C2467 H2447 0.950 . S
C2467 C2463 1.385 . S
C2467 C2466 1.374 . S
C2468 C2465 1.499 . S
C2468 C2469 1.373 . S
C2468 C2470 1.389 . S
C2469 H2448 0.950 . S
C2469 C2468 1.373 . S
C2469 C2485 1.377 . S
C2470 C2468 1.389 . S
C2470 C2471 1.524 . S
C2470 C2484 1.377 . S
C2471 C2470 1.524 . S
C2471 C2472 1.397 . S
C2471 C2476 1.363 . S
C2472 H2449 0.950 . S
C2472 C2471 1.397 . S
C2472 C2473 1.334 . S
C2473 H2450 0.950 . S
C2473 C2472 1.334 . S
C2473 C2474 1.287 . S
C2474 C2473 1.287 . S
C2474 C2475 1.524 . S
C2474 H2493 0.913 . S
C2475 H2451 0.950 . S
C2475 C2474 1.524 . S
C2475 C2476 1.415 . S
C2476 H2452 0.950 . S
C2476 C2471 1.363 . S
C2476 C2475 1.415 . S
C2477 H2453 0.951 . S
C2477 C2478 1.366 . S
C2477 C2479 1.388 . S
C2478 C2477 1.366 . S
C2478 C2482 1.385 . S
C2479 H2454 0.951 . S
C2479 C2477 1.388 . S
C2479 C2480 1.366 . S
C2480 C2479 1.366 . S
C2480 C2481 1.414 . S
C2480 C2483 1.499 . S
C2481 H2455 0.950 . S
C2481 C2480 1.414 . S
C2481 C2482 1.374 . S
C2482 H2456 0.950 . S
C2482 C2478 1.385 . S
C2482 C2481 1.374 . S
C2483 C2480 1.499 . S
C2483 C2484 1.373 . S
C2483 C2485 1.389 . S
C2484 H2457 0.950 . S
C2484 C2470 1.377 . S
C2484 C2483 1.373 . S
C2485 C2469 1.377 . S
C2485 C2483 1.389 . S
C2485 C2486 1.524 . S
C2486 C2485 1.524 . S
C2486 C2487 1.397 . S
C2486 C2491 1.363 . S
C2487 H2458 0.950 . S
C2487 C2486 1.397 . S
C2487 C2488 1.334 . S
C2488 H2459 0.950 . S
C2488 C2487 1.334 . S
C2488 C2489 1.287 . S
C2489 C2488 1.287 . S
C2489 C2490 1.524 . S
C2489 H2492 0.999 . S
C2490 H2460 0.950 . S
C2490 C2489 1.524 . S
C2490 C2491 1.415 . S
C2491 H2461 0.950 . S
C2491 C2486 1.363 . S
C2491 C2490 1.415 . S
H2492 C2489 0.999 . S
H2493 C2474 0.913 . S
H2494 C2512 0.951 . S
H2495 C2514 0.951 . S
H2496 C2516 0.950 . S
H2497 C2517 0.950 . S
H2498 C2519 0.950 . S
H2499 C2522 0.950 . S
H2500 C2523 0.950 . S
H2501 C2525 0.950 . S
H2502 C2526 0.950 . S
H2503 C2527 0.951 . S
H2504 C2529 0.951 . S
H2505 C2531 0.950 . S
H2506 C2532 0.950 . S
H2507 C2534 0.950 . S
H2508 C2537 0.950 . S
H2509 C2538 0.950 . S
H2510 C2540 0.950 . S
H2511 C2541 0.950 . S
C2512 H2494 0.951 . S
C2512 C2513 1.366 . S
C2512 C2514 1.388 . S
C2513 C2512 1.366 . S
C2513 C2517 1.385 . S
C2514 H2495 0.951 . S
C2514 C2512 1.388 . S
C2514 C2515 1.366 . S
C2515 C2514 1.366 . S
C2515 C2516 1.414 . S
C2515 C2518 1.499 . S
C2516 H2496 0.950 . S
C2516 C2515 1.414 . S
C2516 C2517 1.374 . S
C2517 H2497 0.950 . S
C2517 C2513 1.385 . S
C2517 C2516 1.374 . S
C2518 C2515 1.499 . S
C2518 C2519 1.373 . S
C2518 C2520 1.389 . S
C2519 H2498 0.950 . S
C2519 C2518 1.373 . S
C2519 C2535 1.377 . S
C2520 C2518 1.389 . S
C2520 C2521 1.524 . S
C2520 C2534 1.377 . S
C2521 C2520 1.524 . S
C2521 C2522 1.397 . S
C2521 C2526 1.363 . S
C2522 H2499 0.950 . S
C2522 C2521 1.397 . S
C2522 C2523 1.334 . S
C2523 H2500 0.950 . S
C2523 C2522 1.334 . S
C2523 C2524 1.287 . S
C2524 C2523 1.287 . S
C2524 C2525 1.524 . S
C2524 H2543 0.913 . S
C2525 H2501 0.950 . S
C2525 C2524 1.524 . S
C2525 C2526 1.415 . S
C2526 H2502 0.950 . S
C2526 C2521 1.363 . S
C2526 C2525 1.415 . S
C2527 H2503 0.951 . S
C2527 C2528 1.366 . S
C2527 C2529 1.388 . S
C2528 C2527 1.366 . S
C2528 C2532 1.385 . S
C2529 H2504 0.951 . S
C2529 C2527 1.388 . S
C2529 C2530 1.366 . S
C2530 C2529 1.366 . S
C2530 C2531 1.414 . S
C2530 C2533 1.499 . S
C2531 H2505 0.950 . S
C2531 C2530 1.414 . S
C2531 C2532 1.374 . S
C2532 H2506 0.950 . S
C2532 C2528 1.385 . S
C2532 C2531 1.374 . S
C2533 C2530 1.499 . S
C2533 C2534 1.373 . S
C2533 C2535 1.389 . S
C2534 H2507 0.950 . S
C2534 C2520 1.377 . S
C2534 C2533 1.373 . S
C2535 C2519 1.377 . S
C2535 C2533 1.389 . S
C2535 C2536 1.524 . S
C2536 C2535 1.524 . S
C2536 C2537 1.397 . S
C2536 C2541 1.363 . S
C2537 H2508 0.950 . S
C2537 C2536 1.397 . S
C2537 C2538 1.334 . S
C2538 H2509 0.950 . S
C2538 C2537 1.334 . S
C2538 C2539 1.287 . S
C2539 C2538 1.287 . S
C2539 C2540 1.524 . S
C2539 H2542 0.999 . S
C2540 H2510 0.950 . S
C2540 C2539 1.524 . S
C2540 C2541 1.415 . S
C2541 H2511 0.950 . S
C2541 C2536 1.363 . S
C2541 C2540 1.415 . S
H2542 C2539 0.999 . S
H2543 C2524 0.913 . S
H2544 C2562 0.951 . S
H2545 C2564 0.951 . S
H2546 C2566 0.950 . S
H2547 C2567 0.950 . S
H2548 C2569 0.950 . S
H2549 C2572 0.950 . S
H2550 C2573 0.950 . S
H2551 C2575 0.950 . S
H2552 C2576 0.950 . S
H2553 C2577 0.951 . S
H2554 C2579 0.951 . S
H2555 C2581 0.950 . S
H2556 C2582 0.950 . S
H2557 C2584 0.950 . S
H2558 C2587 0.950 . S
H2559 C2588 0.950 . S
H2560 C2590 0.950 . S
H2561 C2591 0.950 . S
C2562 H2544 0.951 . S
C2562 C2563 1.366 . S
C2562 C2564 1.388 . S
C2563 C2562 1.366 . S
C2563 C2567 1.385 . S
C2564 H2545 0.951 . S
C2564 C2562 1.388 . S
C2564 C2565 1.366 . S
C2565 C2564 1.366 . S
C2565 C2566 1.414 . S
C2565 C2568 1.499 . S
C2566 H2546 0.950 . S
C2566 C2565 1.414 . S
C2566 C2567 1.374 . S
C2567 H2547 0.950 . S
C2567 C2563 1.385 . S
C2567 C2566 1.374 . S
C2568 C2565 1.499 . S
C2568 C2569 1.373 . S
C2568 C2570 1.389 . S
C2569 H2548 0.950 . S
C2569 C2568 1.373 . S
C2569 C2585 1.377 . S
C2570 C2568 1.389 . S
C2570 C2571 1.524 . S
C2570 C2584 1.377 . S
C2571 C2570 1.524 . S
C2571 C2572 1.397 . S
C2571 C2576 1.363 . S
C2572 H2549 0.950 . S
C2572 C2571 1.397 . S
C2572 C2573 1.334 . S
C2573 H2550 0.950 . S
C2573 C2572 1.334 . S
C2573 C2574 1.287 . S
C2574 C2573 1.287 . S
C2574 C2575 1.524 . S
C2574 H2593 0.913 . S
C2575 H2551 0.950 . S
C2575 C2574 1.524 . S
C2575 C2576 1.415 . S
C2576 H2552 0.950 . S
C2576 C2571 1.363 . S
C2576 C2575 1.415 . S
C2577 H2553 0.951 . S
C2577 C2578 1.366 . S
C2577 C2579 1.388 . S
C2578 C2577 1.366 . S
C2578 C2582 1.385 . S
C2579 H2554 0.951 . S
C2579 C2577 1.388 . S
C2579 C2580 1.366 . S
C2580 C2579 1.366 . S
C2580 C2581 1.414 . S
C2580 C2583 1.499 . S
C2581 H2555 0.950 . S
C2581 C2580 1.414 . S
C2581 C2582 1.374 . S
C2582 H2556 0.950 . S
C2582 C2578 1.385 . S
C2582 C2581 1.374 . S
C2583 C2580 1.499 . S
C2583 C2584 1.373 . S
C2583 C2585 1.389 . S
C2584 H2557 0.950 . S
C2584 C2570 1.377 . S
C2584 C2583 1.373 . S
C2585 C2569 1.377 . S
C2585 C2583 1.389 . S
C2585 C2586 1.524 . S
C2586 C2585 1.524 . S
C2586 C2587 1.397 . S
C2586 C2591 1.363 . S
C2587 H2558 0.950 . S
C2587 C2586 1.397 . S
C2587 C2588 1.334 . S
C2588 H2559 0.950 . S
C2588 C2587 1.334 . S
C2588 C2589 1.287 . S
C2589 C2588 1.287 . S
C2589 C2590 1.524 . S
C2589 H2592 0.999 . S
C2590 H2560 0.950 . S
C2590 C2589 1.524 . S
C2590 C2591 1.415 . S
C2591 H2561 0.950 . S
C2591 C2586 1.363 . S
C2591 C2590 1.415 . S
H2592 C2589 0.999 . S
H2593 C2574 0.913 . S
H2594 C2612 0.951 . S
H2595 C2614 0.951 . S
H2596 C2616 0.950 . S
H2597 C2617 0.950 . S
H2598 C2619 0.950 . S
H2599 C2622 0.950 . S
H2600 C2623 0.950 . S
H2601 C2625 0.950 . S
H2602 C2626 0.950 . S
H2603 C2627 0.951 . S
H2604 C2629 0.951 . S
H2605 C2631 0.950 . S
H2606 C2632 0.950 . S
H2607 C2634 0.950 . S
H2608 C2637 0.950 . S
H2609 C2638 0.950 . S
H2610 C2640 0.950 . S
H2611 C2641 0.950 . S
C2612 H2594 0.951 . S
C2612 C2613 1.366 . S
C2612 C2614 1.388 . S
C2613 C2612 1.366 . S
C2613 C2617 1.385 . S
C2614 H2595 0.951 . S
C2614 C2612 1.388 . S
C2614 C2615 1.366 . S
C2615 C2614 1.366 . S
C2615 C2616 1.414 . S
C2615 C2618 1.499 . S
C2616 H2596 0.950 . S
C2616 C2615 1.414 . S
C2616 C2617 1.374 . S
C2617 H2597 0.950 . S
C2617 C2613 1.385 . S
C2617 C2616 1.374 . S
C2618 C2615 1.499 . S
C2618 C2619 1.373 . S
C2618 C2620 1.389 . S
C2619 H2598 0.950 . S
C2619 C2618 1.373 . S
C2619 C2635 1.377 . S
C2620 C2618 1.389 . S
C2620 C2621 1.524 . S
C2620 C2634 1.377 . S
C2621 C2620 1.524 . S
C2621 C2622 1.397 . S
C2621 C2626 1.363 . S
C2622 H2599 0.950 . S
C2622 C2621 1.397 . S
C2622 C2623 1.334 . S
C2623 H2600 0.950 . S
C2623 C2622 1.334 . S
C2623 C2624 1.287 . S
C2624 C2623 1.287 . S
C2624 C2625 1.524 . S
C2624 H2643 0.913 . S
C2625 H2601 0.950 . S
C2625 C2624 1.524 . S
C2625 C2626 1.415 . S
C2626 H2602 0.950 . S
C2626 C2621 1.363 . S
C2626 C2625 1.415 . S
C2627 H2603 0.951 . S
C2627 C2628 1.366 . S
C2627 C2629 1.388 . S
C2628 C2627 1.366 . S
C2628 C2632 1.385 . S
C2629 H2604 0.951 . S
C2629 C2627 1.388 . S
C2629 C2630 1.366 . S
C2630 C2629 1.366 . S
C2630 C2631 1.414 . S
C2630 C2633 1.499 . S
C2631 H2605 0.950 . S
C2631 C2630 1.414 . S
C2631 C2632 1.374 . S
C2632 H2606 0.950 . S
C2632 C2628 1.385 . S
C2632 C2631 1.374 . S
C2633 C2630 1.499 . S
C2633 C2634 1.373 . S
C2633 C2635 1.389 . S
C2634 H2607 0.950 . S
C2634 C2620 1.377 . S
C2634 C2633 1.373 . S
C2635 C2619 1.377 . S
C2635 C2633 1.389 . S
C2635 C2636 1.524 . S
C2636 C2635 1.524 . S
C2636 C2637 1.397 . S
C2636 C2641 1.363 . S
C2637 H2608 0.950 . S
C2637 C2636 1.397 . S
C2637 C2638 1.334 . S
C2638 H2609 0.950 . S
C2638 C2637 1.334 . S
C2638 C2639 1.287 . S
C2639 C2638 1.287 . S
C2639 C2640 1.524 . S
C2639 H2642 0.999 . S
C2640 H2610 0.950 . S
C2640 C2639 1.524 . S
C2640 C2641 1.415 . S
C2641 H2611 0.950 . S
C2641 C2636 1.363 . S
C2641 C2640 1.415 . S
H2642 C2639 0.999 . S
H2643 C2624 0.913 . S
H2644 C2662 0.951 . S
H2645 C2664 0.951 . S
H2646 C2666 0.950 . S
H2647 C2667 0.950 . S
H2648 C2669 0.950 . S
H2649 C2672 0.950 . S
H2650 C2673 0.950 . S
H2651 C2675 0.950 . S
H2652 C2676 0.950 . S
H2653 C2677 0.951 . S
H2654 C2679 0.951 . S
H2655 C2681 0.950 . S
H2656 C2682 0.950 . S
H2657 C2684 0.950 . S
H2658 C2687 0.950 . S
H2659 C2688 0.950 . S
H2660 C2690 0.950 . S
H2661 C2691 0.950 . S
C2662 H2644 0.951 . S
C2662 C2663 1.366 . S
C2662 C2664 1.388 . S
C2663 C2662 1.366 . S
C2663 C2667 1.385 . S
C2664 H2645 0.951 . S
C2664 C2662 1.388 . S
C2664 C2665 1.366 . S
C2665 C2664 1.366 . S
C2665 C2666 1.414 . S
C2665 C2668 1.499 . S
C2666 H2646 0.950 . S
C2666 C2665 1.414 . S
C2666 C2667 1.374 . S
C2667 H2647 0.950 . S
C2667 C2663 1.385 . S
C2667 C2666 1.374 . S
C2668 C2665 1.499 . S
C2668 C2669 1.373 . S
C2668 C2670 1.389 . S
C2669 H2648 0.950 . S
C2669 C2668 1.373 . S
C2669 C2685 1.377 . S
C2670 C2668 1.389 . S
C2670 C2671 1.524 . S
C2670 C2684 1.377 . S
C2671 C2670 1.524 . S
C2671 C2672 1.397 . S
C2671 C2676 1.363 . S
C2672 H2649 0.950 . S
C2672 C2671 1.397 . S
C2672 C2673 1.334 . S
C2673 H2650 0.950 . S
C2673 C2672 1.334 . S
C2673 C2674 1.287 . S
C2674 C2673 1.287 . S
C2674 C2675 1.524 . S
C2674 H2693 0.913 . S
C2675 H2651 0.950 . S
C2675 C2674 1.524 . S
C2675 C2676 1.415 . S
C2676 H2652 0.950 . S
C2676 C2671 1.363 . S
C2676 C2675 1.415 . S
C2677 H2653 0.951 . S
C2677 C2678 1.366 . S
C2677 C2679 1.388 . S
C2678 C2677 1.366 . S
C2678 C2682 1.385 . S
C2679 H2654 0.951 . S
C2679 C2677 1.388 . S
C2679 C2680 1.366 . S
C2680 C2679 1.366 . S
C2680 C2681 1.414 . S
C2680 C2683 1.499 . S
C2681 H2655 0.950 . S
C2681 C2680 1.414 . S
C2681 C2682 1.374 . S
C2682 H2656 0.950 . S
C2682 C2678 1.385 . S
C2682 C2681 1.374 . S
C2683 C2680 1.499 . S
C2683 C2684 1.373 . S
C2683 C2685 1.389 . S
C2684 H2657 0.950 . S
C2684 C2670 1.377 . S
C2684 C2683 1.373 . S
C2685 C2669 1.377 . S
C2685 C2683 1.389 . S
C2685 C2686 1.524 . S
C2686 C2685 1.524 . S
C2686 C2687 1.397 . S
C2686 C2691 1.363 . S
C2687 H2658 0.950 . S
C2687 C2686 1.397 . S
C2687 C2688 1.334 . S
C2688 H2659 0.950 . S
C2688 C2687 1.334 . S
C2688 C2689 1.287 . S
C2689 C2688 1.287 . S
C2689 C2690 1.524 . S
C2689 H2692 0.999 . S
C2690 H2660 0.950 . S
C2690 C2689 1.524 . S
C2690 C2691 1.415 . S
C2691 H2661 0.950 . S
C2691 C2686 1.363 . S
C2691 C2690 1.415 . S
H2692 C2689 0.999 . S
H2693 C2674 0.913 . S
H2694 C2712 0.951 . S
H2695 C2714 0.951 . S
H2696 C2716 0.950 . S
H2697 C2717 0.950 . S
H2698 C2719 0.950 . S
H2699 C2722 0.950 . S
H2700 C2723 0.950 . S
H2701 C2725 0.950 . S
H2702 C2726 0.950 . S
H2703 C2727 0.951 . S
H2704 C2729 0.951 . S
H2705 C2731 0.950 . S
H2706 C2732 0.950 . S
H2707 C2734 0.950 . S
H2708 C2737 0.950 . S
H2709 C2738 0.950 . S
H2710 C2740 0.950 . S
H2711 C2741 0.950 . S
C2712 H2694 0.951 . S
C2712 C2713 1.366 . S
C2712 C2714 1.388 . S
C2713 C2712 1.366 . S
C2713 C2717 1.385 . S
C2714 H2695 0.951 . S
C2714 C2712 1.388 . S
C2714 C2715 1.366 . S
C2715 C2714 1.366 . S
C2715 C2716 1.414 . S
C2715 C2718 1.499 . S
C2716 H2696 0.950 . S
C2716 C2715 1.414 . S
C2716 C2717 1.374 . S
C2717 H2697 0.950 . S
C2717 C2713 1.385 . S
C2717 C2716 1.374 . S
C2718 C2715 1.499 . S
C2718 C2719 1.373 . S
C2718 C2720 1.389 . S
C2719 H2698 0.950 . S
C2719 C2718 1.373 . S
C2719 C2735 1.377 . S
C2720 C2718 1.389 . S
C2720 C2721 1.524 . S
C2720 C2734 1.377 . S
C2721 C2720 1.524 . S
C2721 C2722 1.397 . S
C2721 C2726 1.363 . S
C2722 H2699 0.950 . S
C2722 C2721 1.397 . S
C2722 C2723 1.334 . S
C2723 H2700 0.950 . S
C2723 C2722 1.334 . S
C2723 C2724 1.287 . S
C2724 C2723 1.287 . S
C2724 C2725 1.524 . S
C2724 H2743 0.913 . S
C2725 H2701 0.950 . S
C2725 C2724 1.524 . S
C2725 C2726 1.415 . S
C2726 H2702 0.950 . S
C2726 C2721 1.363 . S
C2726 C2725 1.415 . S
C2727 H2703 0.951 . S
C2727 C2728 1.366 . S
C2727 C2729 1.388 . S
C2728 C2727 1.366 . S
C2728 C2732 1.385 . S
C2729 H2704 0.951 . S
C2729 C2727 1.388 . S
C2729 C2730 1.366 . S
C2730 C2729 1.366 . S
C2730 C2731 1.414 . S
C2730 C2733 1.499 . S
C2731 H2705 0.950 . S
C2731 C2730 1.414 . S
C2731 C2732 1.374 . S
C2732 H2706 0.950 . S
C2732 C2728 1.385 . S
C2732 C2731 1.374 . S
C2733 C2730 1.499 . S
C2733 C2734 1.373 . S
C2733 C2735 1.389 . S
C2734 H2707 0.950 . S
C2734 C2720 1.377 . S
C2734 C2733 1.373 . S
C2735 C2719 1.377 . S
C2735 C2733 1.389 . S
C2735 C2736 1.524 . S
C2736 C2735 1.524 . S
C2736 C2737 1.397 . S
C2736 C2741 1.363 . S
C2737 H2708 0.950 . S
C2737 C2736 1.397 . S
C2737 C2738 1.334 . S
C2738 H2709 0.950 . S
C2738 C2737 1.334 . S
C2738 C2739 1.287 . S
C2739 C2738 1.287 . S
C2739 C2740 1.524 . S
C2739 H2742 0.999 . S
C2740 H2710 0.950 . S
C2740 C2739 1.524 . S
C2740 C2741 1.415 . S
C2741 H2711 0.950 . S
C2741 C2736 1.363 . S
C2741 C2740 1.415 . S
H2742 C2739 0.999 . S
H2743 C2724 0.913 . S
H2744 C2762 0.951 . S
H2745 C2764 0.951 . S
H2746 C2766 0.950 . S
H2747 C2767 0.950 . S
H2748 C2769 0.950 . S
H2749 C2772 0.950 . S
H2750 C2773 0.950 . S
H2751 C2775 0.950 . S
H2752 C2776 0.950 . S
H2753 C2777 0.951 . S
H2754 C2779 0.951 . S
H2755 C2781 0.950 . S
H2756 C2782 0.950 . S
H2757 C2784 0.950 . S
H2758 C2787 0.950 . S
H2759 C2788 0.950 . S
H2760 C2790 0.950 . S
H2761 C2791 0.950 . S
C2762 H2744 0.951 . S
C2762 C2763 1.366 . S
C2762 C2764 1.388 . S
C2763 C2762 1.366 . S
C2763 C2767 1.385 . S
C2764 H2745 0.951 . S
C2764 C2762 1.388 . S
C2764 C2765 1.366 . S
C2765 C2764 1.366 . S
C2765 C2766 1.414 . S
C2765 C2768 1.499 . S
C2766 H2746 0.950 . S
C2766 C2765 1.414 . S
C2766 C2767 1.374 . S
C2767 H2747 0.950 . S
C2767 C2763 1.385 . S
C2767 C2766 1.374 . S
C2768 C2765 1.499 . S
C2768 C2769 1.373 . S
C2768 C2770 1.389 . S
C2769 H2748 0.950 . S
C2769 C2768 1.373 . S
C2769 C2785 1.377 . S
C2770 C2768 1.389 . S
C2770 C2771 1.524 . S
C2770 C2784 1.377 . S
C2771 C2770 1.524 . S
C2771 C2772 1.397 . S
C2771 C2776 1.363 . S
C2772 H2749 0.950 . S
C2772 C2771 1.397 . S
C2772 C2773 1.334 . S
C2773 H2750 0.950 . S
C2773 C2772 1.334 . S
C2773 C2774 1.287 . S
C2774 C2773 1.287 . S
C2774 C2775 1.524 . S
C2774 H2793 0.913 . S
C2775 H2751 0.950 . S
C2775 C2774 1.524 . S
C2775 C2776 1.415 . S
C2776 H2752 0.950 . S
C2776 C2771 1.363 . S
C2776 C2775 1.415 . S
C2777 H2753 0.951 . S
C2777 C2778 1.366 . S
C2777 C2779 1.388 . S
C2778 C2777 1.366 . S
C2778 C2782 1.385 . S
C2779 H2754 0.951 . S
C2779 C2777 1.388 . S
C2779 C2780 1.366 . S
C2780 C2779 1.366 . S
C2780 C2781 1.414 . S
C2780 C2783 1.499 . S
C2781 H2755 0.950 . S
C2781 C2780 1.414 . S
C2781 C2782 1.374 . S
C2782 H2756 0.950 . S
C2782 C2778 1.385 . S
C2782 C2781 1.374 . S
C2783 C2780 1.499 . S
C2783 C2784 1.373 . S
C2783 C2785 1.389 . S
C2784 H2757 0.950 . S
C2784 C2770 1.377 . S
C2784 C2783 1.373 . S
C2785 C2769 1.377 . S
C2785 C2783 1.389 . S
C2785 C2786 1.524 . S
C2786 C2785 1.524 . S
C2786 C2787 1.397 . S
C2786 C2791 1.363 . S
C2787 H2758 0.950 . S
C2787 C2786 1.397 . S
C2787 C2788 1.334 . S
C2788 H2759 0.950 . S
C2788 C2787 1.334 . S
C2788 C2789 1.287 . S
C2789 C2788 1.287 . S
C2789 C2790 1.524 . S
C2789 H2792 0.999 . S
C2790 H2760 0.950 . S
C2790 C2789 1.524 . S
C2790 C2791 1.415 . S
C2791 H2761 0.950 . S
C2791 C2786 1.363 . S
C2791 C2790 1.415 . S
H2792 C2789 0.999 . S
H2793 C2774 0.913 . S
H2794 C2812 0.951 . S
H2795 C2814 0.951 . S
H2796 C2816 0.950 . S
H2797 C2817 0.950 . S
H2798 C2819 0.950 . S
H2799 C2822 0.950 . S
H2800 C2823 0.950 . S
H2801 C2825 0.950 . S
H2802 C2826 0.950 . S
H2803 C2827 0.951 . S
H2804 C2829 0.951 . S
H2805 C2831 0.950 . S
H2806 C2832 0.950 1_545 S
H2807 C2834 0.950 . S
H2808 C2837 0.950 . S
H2809 C2838 0.950 . S
H2810 C2840 0.950 . S
H2811 C2841 0.950 . S
C2812 H2794 0.951 . S
C2812 C2813 1.366 . S
C2812 C2814 1.388 . S
C2813 C2812 1.366 . S
C2813 C2817 1.385 . S
C2814 H2795 0.951 . S
C2814 C2812 1.388 . S
C2814 C2815 1.366 . S
C2815 C2814 1.366 . S
C2815 C2816 1.414 . S
C2815 C2818 1.499 . S
C2816 H2796 0.950 . S
C2816 C2815 1.414 . S
C2816 C2817 1.374 . S
C2817 H2797 0.950 . S
C2817 C2813 1.385 . S
C2817 C2816 1.374 . S
C2818 C2815 1.499 . S
C2818 C2819 1.373 . S
C2818 C2820 1.389 . S
C2819 H2798 0.950 . S
C2819 C2818 1.373 . S
C2819 C2835 1.377 . S
C2820 C2818 1.389 . S
C2820 C2821 1.524 . S
C2820 C2834 1.377 . S
C2821 C2820 1.524 . S
C2821 C2822 1.397 . S
C2821 C2826 1.363 . S
C2822 H2799 0.950 . S
C2822 C2821 1.397 . S
C2822 C2823 1.334 . S
C2823 H2800 0.950 . S
C2823 C2822 1.334 . S
C2823 C2824 1.287 . S
C2824 C2823 1.287 . S
C2824 C2825 1.524 . S
C2824 H2843 0.913 . S
C2825 H2801 0.950 . S
C2825 C2824 1.524 . S
C2825 C2826 1.415 . S
C2826 H2802 0.950 . S
C2826 C2821 1.363 . S
C2826 C2825 1.415 . S
C2827 H2803 0.951 . S
C2827 C2828 1.366 . S
C2827 C2829 1.388 . S
C2828 C2827 1.366 . S
C2828 C2832 1.385 . S
C2829 H2804 0.951 . S
C2829 C2827 1.388 . S
C2829 C2830 1.366 . S
C2830 C2829 1.366 . S
C2830 C2831 1.414 . S
C2830 C2833 1.499 . S
C2831 H2805 0.950 . S
C2831 C2830 1.414 . S
C2831 C2832 1.374 . S
C2832 H2806 0.950 1_565 S
C2832 C2828 1.385 . S
C2832 C2831 1.374 . S
C2833 C2830 1.499 . S
C2833 C2834 1.373 . S
C2833 C2835 1.389 . S
C2834 H2807 0.950 . S
C2834 C2820 1.377 . S
C2834 C2833 1.373 . S
C2835 C2819 1.377 . S
C2835 C2833 1.389 . S
C2835 C2836 1.524 . S
C2836 C2835 1.524 . S
C2836 C2837 1.397 . S
C2836 C2841 1.363 . S
C2837 H2808 0.950 . S
C2837 C2836 1.397 . S
C2837 C2838 1.334 . S
C2838 H2809 0.950 . S
C2838 C2837 1.334 . S
C2838 C2839 1.287 . S
C2839 C2838 1.287 . S
C2839 C2840 1.524 . S
C2839 H2842 0.999 . S
C2840 H2810 0.950 . S
C2840 C2839 1.524 . S
C2840 C2841 1.415 . S
C2841 H2811 0.950 . S
C2841 C2836 1.363 . S
C2841 C2840 1.415 . S
H2842 C2839 0.999 . S
H2843 C2824 0.913 . S
H2844 C2862 0.951 . S
H2845 C2864 0.951 . S
H2846 C2866 0.950 . S
H2847 C2867 0.950 . S
H2848 C2869 0.950 . S
H2849 C2872 0.950 . S
H2850 C2873 0.950 . S
H2851 C2875 0.950 . S
H2852 C2876 0.950 . S
H2853 C2877 0.951 . S
H2854 C2879 0.951 . S
H2855 C2881 0.950 . S
H2856 C2882 0.950 . S
H2857 C2884 0.950 . S
H2858 C2887 0.950 . S
H2859 C2888 0.950 . S
H2860 C2890 0.950 . S
H2861 C2891 0.950 . S
C2862 H2844 0.951 . S
C2862 C2863 1.366 . S
C2862 C2864 1.388 . S
C2863 C2862 1.366 . S
C2863 C2867 1.385 . S
C2864 H2845 0.951 . S
C2864 C2862 1.388 . S
C2864 C2865 1.366 . S
C2865 C2864 1.366 . S
C2865 C2866 1.414 . S
C2865 C2868 1.499 . S
C2866 H2846 0.950 . S
C2866 C2865 1.414 . S
C2866 C2867 1.374 . S
C2867 H2847 0.950 . S
C2867 C2863 1.385 . S
C2867 C2866 1.374 . S
C2868 C2865 1.499 . S
C2868 C2869 1.373 . S
C2868 C2870 1.389 . S
C2869 H2848 0.950 . S
C2869 C2868 1.373 . S
C2869 C2885 1.377 . S
C2870 C2868 1.389 . S
C2870 C2871 1.524 . S
C2870 C2884 1.377 . S
C2871 C2870 1.524 . S
C2871 C2872 1.397 . S
C2871 C2876 1.363 . S
C2872 H2849 0.950 . S
C2872 C2871 1.397 . S
C2872 C2873 1.334 . S
C2873 H2850 0.950 . S
C2873 C2872 1.334 . S
C2873 C2874 1.287 . S
C2874 C2873 1.287 . S
C2874 C2875 1.524 . S
C2874 H2893 0.913 . S
C2875 H2851 0.950 . S
C2875 C2874 1.524 . S
C2875 C2876 1.415 . S
C2876 H2852 0.950 . S
C2876 C2871 1.363 . S
C2876 C2875 1.415 . S
C2877 H2853 0.951 . S
C2877 C2878 1.366 . S
C2877 C2879 1.388 . S
C2878 C2877 1.366 . S
C2878 C2882 1.385 . S
C2879 H2854 0.951 . S
C2879 C2877 1.388 . S
C2879 C2880 1.366 . S
C2880 C2879 1.366 . S
C2880 C2881 1.414 . S
C2880 C2883 1.499 . S
C2881 H2855 0.950 . S
C2881 C2880 1.414 . S
C2881 C2882 1.374 . S
C2882 H2856 0.950 . S
C2882 C2878 1.385 . S
C2882 C2881 1.374 . S
C2883 C2880 1.499 . S
C2883 C2884 1.373 . S
C2883 C2885 1.389 . S
C2884 H2857 0.950 . S
C2884 C2870 1.377 . S
C2884 C2883 1.373 . S
C2885 C2869 1.377 . S
C2885 C2883 1.389 . S
C2885 C2886 1.524 . S
C2886 C2885 1.524 . S
C2886 C2887 1.397 . S
C2886 C2891 1.363 . S
C2887 H2858 0.950 . S
C2887 C2886 1.397 . S
C2887 C2888 1.334 . S
C2888 H2859 0.950 . S
C2888 C2887 1.334 . S
C2888 C2889 1.287 . S
C2889 C2888 1.287 . S
C2889 C2890 1.524 . S
C2889 H2892 0.999 . S
C2890 H2860 0.950 . S
C2890 C2889 1.524 . S
C2890 C2891 1.415 . S
C2891 H2861 0.950 . S
C2891 C2886 1.363 . S
C2891 C2890 1.415 . S
H2892 C2889 0.999 . S
H2893 C2874 0.913 . S
H2894 C2912 0.951 . S
H2895 C2914 0.951 . S
H2896 C2916 0.950 . S
H2897 C2917 0.950 . S
H2898 C2919 0.950 . S
H2899 C2922 0.950 . S
H2900 C2923 0.950 . S
H2901 C2925 0.950 . S
H2902 C2926 0.950 . S
H2903 C2927 0.951 . S
H2904 C2929 0.951 . S
H2905 C2931 0.950 . S
H2906 C2932 0.950 . S
H2907 C2934 0.950 . S
H2908 C2937 0.950 . S
H2909 C2938 0.950 . S
H2910 C2940 0.950 . S
H2911 C2941 0.950 . S
C2912 H2894 0.951 . S
C2912 C2913 1.366 . S
C2912 C2914 1.388 . S
C2913 C2912 1.366 . S
C2913 C2917 1.385 . S
C2914 H2895 0.951 . S
C2914 C2912 1.388 . S
C2914 C2915 1.366 . S
C2915 C2914 1.366 . S
C2915 C2916 1.414 . S
C2915 C2918 1.499 . S
C2916 H2896 0.950 . S
C2916 C2915 1.414 . S
C2916 C2917 1.374 . S
C2917 H2897 0.950 . S
C2917 C2913 1.385 . S
C2917 C2916 1.374 . S
C2918 C2915 1.499 . S
C2918 C2919 1.373 . S
C2918 C2920 1.389 . S
C2919 H2898 0.950 . S
C2919 C2918 1.373 . S
C2919 C2935 1.377 . S
C2920 C2918 1.389 . S
C2920 C2921 1.524 . S
C2920 C2934 1.377 . S
C2921 C2920 1.524 . S
C2921 C2922 1.397 . S
C2921 C2926 1.363 . S
C2922 H2899 0.950 . S
C2922 C2921 1.397 . S
C2922 C2923 1.334 . S
C2923 H2900 0.950 . S
C2923 C2922 1.334 . S
C2923 C2924 1.287 . S
C2924 C2923 1.287 . S
C2924 C2925 1.524 . S
C2924 H2943 0.913 . S
C2925 H2901 0.950 . S
C2925 C2924 1.524 . S
C2925 C2926 1.415 . S
C2926 H2902 0.950 . S
C2926 C2921 1.363 . S
C2926 C2925 1.415 . S
C2927 H2903 0.951 . S
C2927 C2928 1.366 . S
C2927 C2929 1.388 . S
C2928 C2927 1.366 . S
C2928 C2932 1.385 . S
C2929 H2904 0.951 . S
C2929 C2927 1.388 . S
C2929 C2930 1.366 . S
C2930 C2929 1.366 . S
C2930 C2931 1.414 . S
C2930 C2933 1.499 . S
C2931 H2905 0.950 . S
C2931 C2930 1.414 . S
C2931 C2932 1.374 . S
C2932 H2906 0.950 . S
C2932 C2928 1.385 . S
C2932 C2931 1.374 . S
C2933 C2930 1.499 . S
C2933 C2934 1.373 . S
C2933 C2935 1.389 . S
C2934 H2907 0.950 . S
C2934 C2920 1.377 . S
C2934 C2933 1.373 . S
C2935 C2919 1.377 . S
C2935 C2933 1.389 . S
C2935 C2936 1.524 . S
C2936 C2935 1.524 . S
C2936 C2937 1.397 . S
C2936 C2941 1.363 . S
C2937 H2908 0.950 . S
C2937 C2936 1.397 . S
C2937 C2938 1.334 . S
C2938 H2909 0.950 . S
C2938 C2937 1.334 . S
C2938 C2939 1.287 . S
C2939 C2938 1.287 . S
C2939 C2940 1.524 . S
C2939 H2942 0.999 . S
C2940 H2910 0.950 . S
C2940 C2939 1.524 . S
C2940 C2941 1.415 . S
C2941 H2911 0.950 . S
C2941 C2936 1.363 . S
C2941 C2940 1.415 . S
H2942 C2939 0.999 . S
H2943 C2924 0.913 . S
H2944 C2962 0.951 . S
H2945 C2964 0.951 . S
H2946 C2966 0.950 . S
H2947 C2967 0.950 . S
H2948 C2969 0.950 . S
H2949 C2972 0.950 . S
H2950 C2973 0.950 . S
H2951 C2975 0.950 . S
H2952 C2976 0.950 . S
H2953 C2977 0.951 . S
H2954 C2979 0.951 . S
H2955 C2981 0.950 . S
H2956 C2982 0.950 . S
H2957 C2984 0.950 . S
H2958 C2987 0.950 . S
H2959 C2988 0.950 . S
H2960 C2990 0.950 . S
H2961 C2991 0.950 . S
C2962 H2944 0.951 . S
C2962 C2963 1.366 . S
C2962 C2964 1.388 . S
C2963 C2962 1.366 . S
C2963 C2967 1.385 . S
C2964 H2945 0.951 . S
C2964 C2962 1.388 . S
C2964 C2965 1.366 . S
C2965 C2964 1.366 . S
C2965 C2966 1.414 . S
C2965 C2968 1.499 . S
C2966 H2946 0.950 . S
C2966 C2965 1.414 . S
C2966 C2967 1.374 . S
C2967 H2947 0.950 . S
C2967 C2963 1.385 . S
C2967 C2966 1.374 . S
C2968 C2965 1.499 . S
C2968 C2969 1.373 . S
C2968 C2970 1.389 . S
C2969 H2948 0.950 . S
C2969 C2968 1.373 . S
C2969 C2985 1.377 . S
C2970 C2968 1.389 . S
C2970 C2971 1.524 . S
C2970 C2984 1.377 . S
C2971 C2970 1.524 . S
C2971 C2972 1.397 . S
C2971 C2976 1.363 . S
C2972 H2949 0.950 . S
C2972 C2971 1.397 . S
C2972 C2973 1.334 . S
C2973 H2950 0.950 . S
C2973 C2972 1.334 . S
C2973 C2974 1.287 . S
C2974 C2973 1.287 . S
C2974 C2975 1.524 . S
C2974 H2993 0.913 . S
C2975 H2951 0.950 . S
C2975 C2974 1.524 . S
C2975 C2976 1.415 . S
C2976 H2952 0.950 . S
C2976 C2971 1.363 . S
C2976 C2975 1.415 . S
C2977 H2953 0.951 . S
C2977 C2978 1.366 . S
C2977 C2979 1.388 . S
C2978 C2977 1.366 . S
C2978 C2982 1.385 . S
C2979 H2954 0.951 . S
C2979 C2977 1.388 . S
C2979 C2980 1.366 . S
C2980 C2979 1.366 . S
C2980 C2981 1.414 . S
C2980 C2983 1.499 . S
C2981 H2955 0.950 . S
C2981 C2980 1.414 . S
C2981 C2982 1.374 . S
C2982 H2956 0.950 . S
C2982 C2978 1.385 . S
C2982 C2981 1.374 . S
C2983 C2980 1.499 . S
C2983 C2984 1.373 . S
C2983 C2985 1.389 . S
C2984 H2957 0.950 . S
C2984 C2970 1.377 . S
C2984 C2983 1.373 . S
C2985 C2969 1.377 . S
C2985 C2983 1.389 . S
C2985 C2986 1.524 . S
C2986 C2985 1.524 . S
C2986 C2987 1.397 . S
C2986 C2991 1.363 . S
C2987 H2958 0.950 . S
C2987 C2986 1.397 . S
C2987 C2988 1.334 . S
C2988 H2959 0.950 . S
C2988 C2987 1.334 . S
C2988 C2989 1.287 . S
C2989 C2988 1.287 . S
C2989 C2990 1.524 . S
C2989 H2992 1.018 . S
C2990 H2960 0.950 . S
C2990 C2989 1.524 . S
C2990 C2991 1.415 . S
C2991 H2961 0.950 . S
C2991 C2986 1.363 . S
C2991 C2990 1.415 . S
H2992 C2989 1.018 . S
H2993 C2974 0.913 . S
H2994 C3012 0.951 . S
H2995 C3014 0.951 . S
H2996 C3016 0.950 . S
H2997 C3017 0.950 . S
H2998 C3019 0.950 . S
H2999 C3022 0.950 . S
H3000 C3023 0.950 . S
H3001 C3025 0.950 . S
H3002 C3026 0.950 . S
H3003 C3027 0.951 . S
H3004 C3029 0.951 . S
H3005 C3031 0.950 . S
H3006 C3032 0.950 . S
H3007 C3034 0.950 . S
H3008 C3037 0.950 . S
H3009 C3038 0.950 . S
H3010 C3040 0.950 . S
H3011 C3041 0.950 . S
C3012 H2994 0.951 . S
C3012 C3013 1.366 . S
C3012 C3014 1.388 . S
C3013 C3012 1.366 . S
C3013 C3017 1.385 . S
C3014 H2995 0.951 . S
C3014 C3012 1.388 . S
C3014 C3015 1.366 . S
C3015 C3014 1.366 . S
C3015 C3016 1.414 . S
C3015 C3018 1.499 . S
C3016 H2996 0.950 . S
C3016 C3015 1.414 . S
C3016 C3017 1.374 . S
C3017 H2997 0.950 . S
C3017 C3013 1.385 . S
C3017 C3016 1.374 . S
C3018 C3015 1.499 . S
C3018 C3019 1.373 . S
C3018 C3020 1.389 . S
C3019 H2998 0.950 . S
C3019 C3018 1.373 . S
C3019 C3035 1.377 . S
C3020 C3018 1.389 . S
C3020 C3021 1.524 . S
C3020 C3034 1.377 . S
C3021 C3020 1.524 . S
C3021 C3022 1.397 . S
C3021 C3026 1.363 . S
C3022 H2999 0.950 . S
C3022 C3021 1.397 . S
C3022 C3023 1.334 . S
C3023 H3000 0.950 . S
C3023 C3022 1.334 . S
C3023 C3024 1.287 . S
C3024 C3023 1.287 . S
C3024 C3025 1.524 . S
C3024 H3043 0.913 . S
C3025 H3001 0.950 . S
C3025 C3024 1.524 . S
C3025 C3026 1.415 . S
C3026 H3002 0.950 . S
C3026 C3021 1.363 . S
C3026 C3025 1.415 . S
C3027 H3003 0.951 . S
C3027 C3028 1.366 . S
C3027 C3029 1.388 . S
C3028 C3027 1.366 . S
C3028 C3032 1.385 . S
C3029 H3004 0.951 . S
C3029 C3027 1.388 . S
C3029 C3030 1.366 . S
C3030 C3029 1.366 . S
C3030 C3031 1.414 . S
C3030 C3033 1.499 . S
C3031 H3005 0.950 . S
C3031 C3030 1.414 . S
C3031 C3032 1.374 . S
C3032 H3006 0.950 . S
C3032 C3028 1.385 . S
C3032 C3031 1.374 . S
C3033 C3030 1.499 . S
C3033 C3034 1.373 . S
C3033 C3035 1.389 . S
C3034 H3007 0.950 . S
C3034 C3020 1.377 . S
C3034 C3033 1.373 . S
C3035 C3019 1.377 . S
C3035 C3033 1.389 . S
C3035 C3036 1.524 . S
C3036 C3035 1.524 . S
C3036 C3037 1.397 . S
C3036 C3041 1.363 . S
C3037 H3008 0.950 . S
C3037 C3036 1.397 . S
C3037 C3038 1.334 . S
C3038 H3009 0.950 . S
C3038 C3037 1.334 . S
C3038 C3039 1.287 . S
C3039 C3038 1.287 . S
C3039 C3040 1.524 . S
C3039 H3042 0.999 . S
C3040 H3010 0.950 . S
C3040 C3039 1.524 . S
C3040 C3041 1.415 . S
C3041 H3011 0.950 . S
C3041 C3036 1.363 . S
C3041 C3040 1.415 . S
H3042 C3039 0.999 . S
H3043 C3024 0.913 . S
C678 C355 1.637 . S
C663 C3 1.628 . S
C728 C333 1.167 . S
C713 C49 1.195 . S
C778 C330 0.394 . S
C763 C95 0.403 . S
C813 C146 0.594 . S
C828 C342 0.603 . S
C863 C186 1.376 . S
C878 C325 1.328 . S
C928 C347 0.380 . S
C913 C215 0.387 . S
C963 C249 0.445 . S
C978 C352 0.441 . S
C1013 C302 1.615 . S
C1028 C348 1.625 . S
C1078 C406 3.624 . S
C1063 C2 3.667 . S
C1113 C43 1.830 . S
C1128 C456 1.840 . S
C1178 C379 3.473 . S
C1163 C102 3.556 . S
C1228 C455 0.659 . S
C1213 C135 0.658 . S
C1263 C175 0.626 . S
C1278 C384 0.627 . S
C1328 C450 2.504 . S
C1313 C222 2.565 . S
C1363 C243 1.856 . S
C1378 C409 1.877 . S
C1413 C306 1.726 . S
C1428 C441 1.751 . S
C1463 C9 1.161 . S
C1478 C433 1.155 . S
C1513 C182 1.480 . S
C1528 C463 1.485 . S
C1578 C387 1.817 1_556 S
C1563 C226 1.882 . S
C1628 C438 0.184 . S
C1613 C242 0.330 . S
C1663 C295 3.120 . S
C1678 C396 3.061 . S
C1713 C106 1.092 . S
C1728 C460 1.063 . S
C1778 C402 1.479 . S
C1763 C142 1.469 . S
C1813 C42 0.318 . S
C1828 C401 0.197 . S
C1863 C283 1.617 . S
C1878 C517 1.628 . S
C1913 C169 1.377 . S
C1928 C495 1.333 . S
C1978 C492 0.378 . S
C1963 C202 0.387 . S
C2028 C504 0.444 . S
C2013 C266 0.439 . S
C2063 C66 1.193 . S
C2078 C487 1.163 . S
C2128 C509 0.391 . S
C2113 C82 0.400 . S
C2163 C129 0.596 . S
C2178 C514 0.604 . S
C2213 C22 1.626 . S
C2228 C510 1.635 . S
C2263 C282 3.115 . S
C2278 C568 3.047 . S
C2328 C618 1.467 . S
C2313 C163 1.467 . S
C2363 C209 1.869 . S
C2378 C541 1.801 . S
C2413 C255 0.328 . S
C2428 C617 0.178 . S
C2478 C546 0.186 . S
C2463 C55 0.316 . S
C2513 C89 1.077 . S
C2528 C612 1.046 . S
C2578 C571 1.471 . S
C2563 C123 1.461 . S
C2628 C603 1.150 . S
C2613 C26 1.154 . S
C2678 C595 1.758 . S
C2663 C289 1.735 . S
C2713 C62 1.840 . S
C2728 C625 1.852 . S
C2763 C83 3.568 . S
C2778 C549 3.490 . S
C2828 C600 0.674 . S
C2813 C122 0.675 . S
C2863 C15 3.674 . S
C2878 C558 3.628 . S
C2913 C203 2.577 . S
C2928 C622 2.523 . S
C2978 C564 1.880 . S
C2963 C262 1.862 . S
C3028 C563 0.642 . S
C3013 C162 0.642 . S
