# Generated by pormake.
# Topology anh, (6,3)-cn, num edge types: 1
# Building blocks:
#     Node 0, Type 0, BuildingBlock: PAMTOO_clean_sbu_0, # of connection points: 6
#     Node 1, Type 0, BuildingBlock: PAMTOO_clean_sbu_0, # of connection points: 6
#     Node 2, Type 0, BuildingBlock: PAMTOO_clean_sbu_0, # of connection points: 6
#     Node 3, Type 1, BuildingBlock: WUSLED_clean_sbu_0, # of connection points: 3
#     Node 4, Type 1, BuildingBlock: WUSLED_clean_sbu_0, # of connection points: 3
#     Node 5, Type 1, BuildingBlock: WUSLED_clean_sbu_0, # of connection points: 3
#     Node 6, Type 1, BuildingBlock: WUSLED_clean_sbu_0, # of connection points: 3
#     Node 7, Type 1, BuildingBlock: WUSLED_clean_sbu_0, # of connection points: 3
#     Node 8, Type 1, BuildingBlock: WUSLED_clean_sbu_0, # of connection points: 3
#     Edge 9, Type (0, 1), BuildingBlock: UVAHIK_clean_linker_0, # of connection points: 2
#     Edge 10, Type (0, 1), BuildingBlock: UVAHIK_clean_linker_0, # of connection points: 2
#     Edge 11, Type (0, 1), BuildingBlock: UVAHIK_clean_linker_0, # of connection points: 2
#     Edge 12, Type (0, 1), BuildingBlock: UVAHIK_clean_linker_0, # of connection points: 2
#     Edge 13, Type (0, 1), BuildingBlock: UVAHIK_clean_linker_0, # of connection points: 2
#     Edge 14, Type (0, 1), BuildingBlock: UVAHIK_clean_linker_0, # of connection points: 2
#     Edge 15, Type (0, 1), BuildingBlock: UVAHIK_clean_linker_0, # of connection points: 2
#     Edge 16, Type (0, 1), BuildingBlock: UVAHIK_clean_linker_0, # of connection points: 2
#     Edge 17, Type (0, 1), BuildingBlock: UVAHIK_clean_linker_0, # of connection points: 2
#     Edge 18, Type (0, 1), BuildingBlock: UVAHIK_clean_linker_0, # of connection points: 2
#     Edge 19, Type (0, 1), BuildingBlock: UVAHIK_clean_linker_0, # of connection points: 2
#     Edge 20, Type (0, 1), BuildingBlock: UVAHIK_clean_linker_0, # of connection points: 2
#     Edge 21, Type (0, 1), BuildingBlock: UVAHIK_clean_linker_0, # of connection points: 2
#     Edge 22, Type (0, 1), BuildingBlock: UVAHIK_clean_linker_0, # of connection points: 2
#     Edge 23, Type (0, 1), BuildingBlock: UVAHIK_clean_linker_0, # of connection points: 2
#     Edge 24, Type (0, 1), BuildingBlock: UVAHIK_clean_linker_0, # of connection points: 2
#     Edge 25, Type (0, 1), BuildingBlock: UVAHIK_clean_linker_0, # of connection points: 2
#     Edge 26, Type (0, 1), BuildingBlock: UVAHIK_clean_linker_0, # of connection points: 2
# Relax obj value: 0.151
# Max RMSD: 0.181
# Mean RMSD: 0.143
data_MOF--net-anh--node1-PAMTOO_clean_sbu_0--node2-WUSLED_clean_sbu_0--edge1-UVAHIK_clean_linker_0
_symmetry_space_group_name_H-M    P1
_symmetry_Int_Tables_number       1
_symmetry_cell_setting            triclinic
loop_
_symmetry_equiv_pos_as_xyz
'x, y, z'
_cell_length_a     48.516288
_cell_length_b     46.488666
_cell_length_c     85.55799
_cell_angle_alpha  90.404167
_cell_angle_beta   94.975043
_cell_angle_gamma 109.65541
loop_
_atom_site_label
_atom_site_type_symbol
_atom_site_fract_x
_atom_site_fract_y
_atom_site_fract_z
_atom_type_partial_charge
Dy0 Dy 0.04613 0.58525 0.1544 0.0
Dy1 Dy 1.01786 0.51055 0.14865 0.0
C2 C 0.03691 0.55502 0.11989 0.0
O3 O 0.99779 0.57579 0.1466 0.0
O4 O 0.97997 0.526 0.15389 0.0
O5 O 0.05755 0.63212 0.14694 0.0
O6 O 0.06741 0.6226 0.17112 0.0
O7 O 1.03139 0.5194 0.17429 0.0
O8 O 1.0262 0.56612 0.17627 0.0
O9 O 0.06566 0.5217 0.1442 0.0
O10 O 0.08477 0.56812 0.15768 0.0
O11 O 1.01545 0.46482 0.15495 0.0
O12 O 0.986 0.47135 0.13596 0.0
C13 C 0.97545 0.55137 0.14956 0.0
O14 O 0.05352 0.5772 0.12965 0.0
O15 O 1.01839 0.52979 0.12481 0.0
C16 C 0.10014 0.66704 0.16121 0.0
C17 C 0.1559 0.7136 0.16574 0.0
C18 C 0.13021 0.72084 0.16197 0.0
C19 C 0.10265 0.69781 0.15977 0.0
C20 C 0.12575 0.65952 0.16435 0.0
C21 C 0.15334 0.68255 0.16662 0.0
C22 C 0.07066 0.64349 0.16069 0.0
C23 C 1.02816 0.54139 0.18277 0.0
C24 C 0.08849 0.5445 0.1506 0.0
C25 C 0.96743 0.42818 0.15109 0.0
C26 C 0.91747 0.38344 0.16148 0.0
C27 C 0.93205 0.41068 0.17046 0.0
C28 C 0.95673 0.43293 0.16527 0.0
C29 C 0.95318 0.40096 0.14221 0.0
C30 C 0.92846 0.37882 0.14733 0.0
C31 C 0.99255 0.45175 0.14502 0.0
H32 H 0.13132 0.74439 0.16087 0.0
H33 H 0.08318 0.7041 0.15733 0.0
H34 H 0.12433 0.63589 0.16553 0.0
H35 H 0.1725 0.67603 0.16962 0.0
H36 H 0.924 0.41509 0.18133 0.0
H37 H 0.96726 0.45396 0.17223 0.0
H38 H 0.96106 0.39691 0.13122 0.0
H39 H 0.91802 0.35797 0.14023 0.0
Dy40 Dy 0.5344 0.0271 0.51893 0.0
Dy41 Dy 0.60757 0.05451 0.5225 0.0
C42 C 0.57138 0.03933 0.55221 0.0
O43 O 0.54539 0.07772 0.51684 0.0
O44 O 0.594 0.09501 0.52697 0.0
O45 O 0.49394 1.0024 0.52875 0.0
O46 O 0.49268 0.02127 0.50572 0.0
O47 O 0.59156 0.06268 0.49827 0.0
O48 O 0.54966 0.02108 0.49559 0.0
O49 O 0.59654 0.00401 0.51838 0.0
O50 O 0.54764 0.98596 0.52309 0.0
O51 O 0.64862 0.05892 0.51311 0.0
O52 O 0.64868 0.08118 0.53548 0.0
C53 C 0.56947 0.09992 0.52229 0.0
O54 O 0.54956 0.04416 0.54376 0.0
O55 O 0.59345 0.03571 0.54557 0.0
C56 C 0.45409 0.97591 0.51048 0.0
C57 C 0.40849 0.92104 0.50037 0.0
C58 C 0.40253 0.94433 0.50857 0.0
C59 C 0.42509 0.97145 0.51355 0.0
C60 C 0.46036 0.95286 0.50236 0.0
C61 C 0.43774 0.92565 0.49733 0.0
C62 C 0.47746 0.0044 0.51622 0.0
C63 C 0.57068 0.04226 0.48935 0.0
C64 C 0.57238 0.98145 0.52082 0.0
C65 C 0.6865 0.10625 0.51964 0.0
C66 C 0.7297 0.16016 0.51094 0.0
C67 C 0.70223 0.1484 0.50204 0.0
C68 C 0.68076 0.12177 0.5064 0.0
C69 C 0.71378 0.11794 0.52855 0.0
C70 C 0.73516 0.14465 0.52428 0.0
C71 C 0.66437 0.07801 0.52438 0.0
H72 H 0.38044 0.94142 0.51139 0.0
H73 H 0.41991 0.98891 0.51993 0.0
H74 H 0.48271 0.95589 0.49995 0.0
H75 H 0.44313 0.90839 0.49093 0.0
H76 H 0.6972 0.15999 0.49182 0.0
H77 H 0.65972 0.1133 0.49942 0.0
H78 H 0.71861 0.10632 0.53882 0.0
H79 H 0.75617 0.15289 0.53128 0.0
Dy80 Dy 0.57474 0.52269 0.84728 0.0
Dy81 Dy 0.50317 0.49546 0.8406 0.0
C82 C 0.54381 0.50766 0.81255 0.0
O83 O 0.55999 0.56233 0.85234 0.0
O84 O 0.51679 0.54566 0.83648 0.0
O85 O 0.61664 0.55601 0.84321 0.0
O86 O 0.61472 0.51884 0.85868 0.0
O87 O 0.51151 0.51064 0.8661 0.0
O88 O 0.55905 0.51146 0.87087 0.0
O89 O 0.51564 0.45442 0.8465 0.0
O90 O 0.56299 0.47329 0.83975 0.0
O91 O 0.4591 0.4773 0.8478 0.0
O92 O 0.46578 0.48442 0.82328 0.0
C93 C 0.53796 0.56777 0.84437 0.0
O94 O 0.56447 0.52761 0.82177 0.0
O95 O 0.52117 0.48787 0.81833 0.0
C96 C 0.65344 0.533 0.84246 0.0
C97 C 0.69325 0.51401 0.8266 0.0
C98 C 0.67581 0.5289 0.81853 0.0
C99 C 0.6559 0.53814 0.82636 0.0
C100 C 0.67125 0.51858 0.85054 0.0
C101 C 0.69085 0.50903 0.84268 0.0
C102 C 0.6314 0.54079 0.85081 0.0
C103 C 0.53435 0.51173 0.87588 0.0
C104 C 0.53984 0.45017 0.8429 0.0
C105 C 0.42744 0.49718 0.83232 0.0
C106 C 0.39473 0.5365 0.82644 0.0
C107 C 0.41816 0.54397 0.83836 0.0
C108 C 0.43449 0.52463 0.84118 0.0
C109 C 0.40381 0.48928 0.82063 0.0
C110 C 0.38757 0.50877 0.81769 0.0
C111 C 0.44699 0.47898 0.83376 0.0
H112 H 0.6773 0.53301 0.80613 0.0
H113 H 0.64228 0.54899 0.81976 0.0
H114 H 0.66975 0.51437 0.86293 0.0
H115 H 0.70444 0.49809 0.84923 0.0
H116 H 0.42396 0.56481 0.84553 0.0
H117 H 0.45304 0.53147 0.85006 0.0
H118 H 0.39849 0.46848 0.81346 0.0
H119 H 0.36992 0.50247 0.80831 0.0
C120 C 0.60681 0.10136 0.2151 0.0
C121 C 0.62257 0.12505 0.22606 0.0
C122 C 0.65783 0.14825 0.20716 0.0
C123 C 0.64776 0.1483 0.22212 0.0
C124 C 0.64202 0.12421 0.1963 0.0
C125 C 0.61678 0.10107 0.20023 0.0
U126 U 0.55912 0.05415 0.24528 0.0
O127 O 0.51121 0.03771 0.24635 0.0
O128 O 0.53457 0.00475 0.24552 0.0
C129 C 0.50896 0.00875 0.24532 0.0
C130 C 0.58017 0.07674 0.21902 0.0
C131 C 0.48444 0.98803 0.23463 0.0
C132 C 0.43766 0.97739 0.21871 0.0
C133 C 0.46281 0.9982 0.2269 0.0
C134 C 0.4556 0.93595 0.22538 0.0
C135 C 0.43348 0.94592 0.21808 0.0
C136 C 0.48067 0.95673 0.2336 0.0
C137 C 0.5862 0.07221 0.28894 0.0
C138 C 0.55626 0.05551 0.31072 0.0
C139 C 0.60928 0.07678 0.31562 0.0
C140 C 0.6115 0.08069 0.29954 0.0
C141 C 0.58162 0.06439 0.32146 0.0
C142 C 0.55853 0.05932 0.2946 0.0
C143 C 0.58926 0.07738 0.27212 0.0
O144 O 0.58466 0.05284 0.22536 0.0
O145 O 0.56109 0.0856 0.22599 0.0
O146 O 0.57045 0.08854 0.2647 0.0
O147 O 0.59364 0.05542 0.26405 0.0
H148 H 0.61531 0.12563 0.23765 0.0
H149 H 0.65908 0.16654 0.23074 0.0
H150 H 0.64933 0.12301 0.18479 0.0
H151 H 0.60506 0.08286 0.19165 0.0
H152 H 0.42124 0.98591 0.21306 0.0
H153 H 0.46483 0.02211 0.22752 0.0
H154 H 0.45298 0.91188 0.22533 0.0
H155 H 0.49667 0.94809 0.23965 0.0
H156 H 0.5346 0.04615 0.31479 0.0
H157 H 0.62931 0.08332 0.32346 0.0
H158 H 0.63306 0.09048 0.29537 0.0
H159 H 0.5387 0.05251 0.28658 0.0
C160 C 0.57332 0.61165 0.54368 0.0
C161 C 0.59068 0.63608 0.5539 0.0
C162 C 0.57401 0.67207 0.53844 0.0
C163 C 0.59115 0.66594 0.55126 0.0
C164 C 0.55649 0.64754 0.52829 0.0
C165 C 0.55625 0.61769 0.53086 0.0
U166 U 0.56874 0.54749 0.57167 0.0
O167 O 0.54481 0.49786 0.56969 0.0
O168 O 0.59296 0.51505 0.57432 0.0
C169 C 0.56901 0.49095 0.57182 0.0
C170 C 0.57232 0.57984 0.54643 0.0
C171 C 0.571 0.46463 0.56261 0.0
C172 C 0.54852 0.41966 0.54504 0.0
C173 C 0.5483 0.44749 0.55143 0.0
C174 C 0.59443 0.42606 0.56055 0.0
C175 C 0.5713 0.40823 0.54976 0.0
C176 C 0.59424 0.4538 0.56687 0.0
C177 C 0.56397 0.56488 0.61495 0.0
C178 C 0.55438 0.52644 0.63478 0.0
C179 C 0.56942 0.58014 0.64255 0.0
C180 C 0.57075 0.58778 0.6268 0.0
C181 C 0.56122 0.54939 0.64674 0.0
C182 C 0.55586 0.53414 0.61901 0.0
C183 C 0.56568 0.57357 0.59848 0.0
O184 O 0.59539 0.5768 0.55457 0.0
O185 O 0.54727 0.56106 0.55056 0.0
O186 O 0.5425 0.55917 0.58877 0.0
O187 O 0.59063 0.57627 0.59274 0.0
H188 H 0.60381 0.63213 0.56401 0.0
H189 H 0.60456 0.68418 0.55943 0.0
H190 H 0.5432 0.65148 0.51825 0.0
H191 H 0.54263 0.59927 0.52283 0.0
H192 H 0.53053 0.40684 0.53661 0.0
H193 H 0.52989 0.45502 0.54798 0.0
H194 H 0.61212 0.41795 0.56473 0.0
H195 H 0.61174 0.46616 0.57569 0.0
H196 H 0.54829 0.50259 0.63764 0.0
H197 H 0.57445 0.59833 0.65144 0.0
H198 H 0.57703 0.61162 0.62386 0.0
H199 H 0.55073 0.51615 0.60999 0.0
C200 C 1.02592 0.5677 0.84194 0.0
C201 C 1.00369 0.54605 0.84926 0.0
C202 C 0.97231 0.53491 0.82465 0.0
C203 C 0.97713 0.52969 0.84067 0.0
C204 C 0.99503 0.55598 0.81727 0.0
C205 C 1.02168 0.57222 0.82586 0.0
U206 U 0.06829 0.60187 0.88102 0.0
O207 O 0.11386 0.60815 0.88994 0.0
O208 O 0.09984 0.64812 0.88669 0.0
C209 C 0.12208 0.63804 0.88915 0.0
C210 C 0.05284 0.58689 0.85112 0.0
C211 C 0.14618 0.65086 0.87926 0.0
C212 C 0.1627 0.65605 0.85312 0.0
C213 C 0.14 0.64989 0.86289 0.0
C214 C 0.19822 0.66614 0.876 0.0
C215 C 0.19194 0.66312 0.85957 0.0
C216 C 0.17542 0.6599 0.88578 0.0
C217 C 1.03237 0.58159 0.91911 0.0
C218 C 0.06065 0.5956 0.94453 0.0
C219 C 1.00827 0.56779 0.94299 0.0
C220 C 1.00689 0.56791 0.92661 0.0
C221 C 1.03523 0.58131 0.95214 0.0
C222 C 0.05922 0.59573 0.92813 0.0
C223 C 1.03094 0.57967 0.90192 0.0
O224 O 0.05096 0.61161 0.85781 0.0
O225 O 0.06608 0.57227 0.86047 0.0
O226 O 0.04697 0.56487 0.89633 0.0
O227 O 1.03303 0.60515 0.89475 0.0
H228 H 1.00656 0.54247 0.86172 0.0
H229 H 0.95987 0.51403 0.84676 0.0
H230 H 0.99192 0.56038 0.80494 0.0
H231 H 0.03867 0.58889 0.82006 0.0
H232 H 0.15727 0.65373 0.84052 0.0
H233 H 0.11748 0.64269 0.85764 0.0
H234 H 0.22052 0.67118 0.88129 0.0
H235 H 0.18051 0.66045 0.89839 0.0
H236 H 0.0818 0.60593 0.95121 0.0
H237 H 0.98822 0.55703 0.94849 0.0
H238 H 0.98599 0.55693 0.91979 0.0
H239 H 0.07914 0.60632 0.92248 0.0
C240 C 1.00834 0.4783 0.45757 0.0
C241 C 0.98298 0.46508 0.44722 0.0
C242 C 0.96192 0.4272 0.4664 0.0
C243 C 0.95996 0.43989 0.45161 0.0
C244 C 0.9875 0.44056 0.47669 0.0
C245 C 1.01044 0.46587 0.47232 0.0
U246 U 0.04936 0.5263 0.42575 0.0
O247 O 0.09682 0.54674 0.42331 0.0
O248 O 0.06951 0.57598 0.42384 0.0
C249 C 0.09618 0.57479 0.4236 0.0
C250 C 1.03291 0.50451 0.45295 0.0
C251 C 0.12023 0.59789 0.43341 0.0
C252 C 0.13792 0.64167 0.45194 0.0
C253 C 0.11469 0.61755 0.44433 0.0
C254 C 0.17264 0.62625 0.43828 0.0
C255 C 0.16715 0.64661 0.44881 0.0
C256 C 0.14944 0.60227 0.43064 0.0
C257 C 1.01975 0.50283 0.38301 0.0
C258 C 0.04019 0.53339 0.36117 0.0
C259 C 1.00294 0.4834 0.35621 0.0
C260 C 1.00175 0.47977 0.37237 0.0
C261 C 1.02217 0.51025 0.3504 0.0
C262 C 0.03904 0.52966 0.37735 0.0
C263 C 1.01822 0.49845 0.39995 0.0
O264 O 0.05257 0.49736 0.44562 0.0
O265 O 1.02555 0.52676 0.44643 0.0
O266 O 1.01218 0.51961 0.40784 0.0
O267 O 0.03943 0.49043 0.40712 0.0
H268 H 0.98098 0.47425 0.43574 0.0
H269 H 0.94051 0.43055 0.44345 0.0
H270 H 0.99005 0.43117 0.48806 0.0
H271 H 1.02995 0.4756 0.48041 0.0
H272 H 0.13297 0.65669 0.46014 0.0
H273 H 0.09242 0.61481 0.44673 0.0
H274 H 0.19479 0.62957 0.43543 0.0
H275 H 0.15428 0.58766 0.42214 0.0
H276 H 0.05546 0.55418 0.35709 0.0
H277 H 0.98851 0.46533 0.34825 0.0
H278 H 0.98671 0.45893 0.37655 0.0
H279 H 0.05323 0.54765 0.38544 0.0
C280 C 0.5401 0.93925 0.82174 0.0
C281 C 0.5326 0.91769 0.80912 0.0
C282 C 0.53858 0.87844 0.82662 0.0
C283 C 0.53174 0.88762 0.81154 0.0
C284 C 0.54619 0.90022 0.83921 0.0
C285 C 0.5469 0.93028 0.83679 0.0
U286 U 0.54486 1.00318 0.79378 0.0
O287 O 0.52311 0.03785 0.79189 0.0
O288 O 0.57136 0.05228 0.79512 0.0
C289 C 0.5481 0.06089 0.7936 0.0
C290 C 0.54157 0.97117 0.81917 0.0
C291 C 0.54933 0.08877 0.80261 0.0
C292 C 0.52642 0.11774 0.81777 0.0
C293 C 0.52671 0.08972 0.81162 0.0
C294 C 0.57158 0.1441 0.80631 0.0
C295 C 0.54859 0.14545 0.81494 0.0
C296 C 0.57192 0.1162 0.80027 0.0
C297 C 0.54861 0.98383 0.75043 0.0
C298 C 0.5462 0.01698 0.72887 0.0
C299 C 0.55963 0.97206 0.7245 0.0
C300 C 0.55671 0.96499 0.74024 0.0
C301 C 0.55446 0.99815 0.71861 0.0
C302 C 0.54341 0.00994 0.74469 0.0
C303 C 0.54613 0.97591 0.76698 0.0
O304 O 0.56655 0.98934 0.81467 0.0
O305 O 0.51846 0.97447 0.81119 0.0
O306 O 0.52164 0.97515 0.77271 0.0
O307 O 0.56969 0.98934 0.7766 0.0
H308 H 0.52757 0.92418 0.79736 0.0
H309 H 0.52621 0.87168 0.80152 0.0
H310 H 0.55131 0.89395 0.851 0.0
H311 H 0.55283 0.94655 0.84668 0.0
H312 H 0.50857 0.11769 0.82454 0.0
H313 H 0.50883 0.06899 0.81355 0.0
H314 H 0.58877 0.16477 0.80357 0.0
H315 H 0.58933 0.11625 0.79313 0.0
H316 H 0.54233 0.03738 0.72474 0.0
H317 H 0.5656 0.95685 0.71688 0.0
H318 H 0.56079 0.94474 0.74448 0.0
H319 H 0.53732 0.02486 0.75243 0.0
C320 C 0.60952 0.55146 0.13476 0.0
C321 C 0.61782 0.53542 0.12303 0.0
C322 C 0.66935 0.55222 0.13505 0.0
C323 C 0.64725 0.5359 0.12314 0.0
C324 C 0.6606 0.56816 0.14669 0.0
C325 C 0.63145 0.56786 0.14649 0.0
U326 U 0.52478 0.54422 0.12312 0.0
O327 O 0.48789 0.5217 0.13742 0.0
O328 O 0.50125 0.57093 0.1344 0.0
C329 C 0.48199 0.54686 0.13993 0.0
C330 C 0.57834 0.55013 0.13615 0.0
C331 C 0.45007 0.54473 0.13863 0.0
C332 C 0.40152 0.52448 0.14873 0.0
C333 C 0.43069 0.52496 0.14834 0.0
C334 C 0.40972 0.56324 0.12943 0.0
C335 C 0.39042 0.54384 0.13942 0.0
C336 C 0.43903 0.56378 0.12908 0.0
C337 C 0.52108 0.53099 0.07695 0.0
C338 C 0.50881 0.50163 0.05209 0.0
C339 C 0.54531 0.55232 0.05375 0.0
C340 C 0.54166 0.55487 0.06974 0.0
C341 C 0.52822 0.52601 0.04464 0.0
C342 C 0.50529 0.50411 0.06803 0.0
C343 C 0.51172 0.53518 0.09259 0.0
O344 O 0.57039 0.57334 0.13151 0.0
O345 O 0.55687 0.52376 0.13373 0.0
O346 O 0.50803 0.51278 0.10237 0.0
O347 O 0.52214 0.56249 0.09959 0.0
H348 H 0.60155 0.52235 0.11385 0.0
H349 H 0.65262 0.52353 0.11378 0.0
H350 H 0.6761 0.58044 0.15634 0.0
H351 H 0.62584 0.58009 0.15585 0.0
H352 H 0.38763 0.50876 0.15641 0.0
H353 H 0.43832 0.51011 0.15595 0.0
H354 H 0.4025 0.57878 0.12214 0.0
H355 H 0.45319 0.57958 0.12154 0.0
H356 H 0.49566 0.48087 0.04548 0.0
H357 H 0.56038 0.57156 0.04835 0.0
H358 H 0.55395 0.57604 0.07623 0.0
H359 H 0.48905 0.48547 0.07321 0.0
C360 C 0.14419 0.56776 0.15659 0.0
C361 C 0.11941 0.54402 0.14961 0.0
C362 C 0.17306 0.5677 0.15547 0.0
C363 C 0.21755 0.53241 0.1324 0.0
H364 H 0.27728 0.56536 0.16707 0.0
C365 C 0.34211 0.54891 0.12715 0.0
C366 C 0.35925 0.54407 0.14042 0.0
C367 C 0.31314 0.54887 0.12815 0.0
C368 C 0.26099 0.55582 0.15725 0.0
H369 H 0.1065 0.50144 0.13588 0.0
H370 H 0.15641 0.50119 0.13401 0.0
H371 H 0.22729 0.56465 0.16916 0.0
H372 H 0.35837 0.53599 0.16535 0.0
H373 H 0.30837 0.5355 0.16702 0.0
H374 H 0.2512 0.52317 0.12059 0.0
C375 C 0.15363 0.5202 0.14027 0.0
C376 C 0.23209 0.55576 0.15838 0.0
C377 C 0.12473 0.5202 0.14145 0.0
C378 C 0.34616 0.5394 0.15474 0.0
C379 C 0.3173 0.53953 0.15575 0.0
C380 C 0.24651 0.53261 0.13123 0.0
C381 C 0.17847 0.54395 0.14726 0.0
C382 C 0.20967 0.54401 0.146 0.0
C383 C 0.30008 0.54422 0.14249 0.0
C384 C 0.26889 0.54426 0.14365 0.0
H385 H 0.14137 0.58667 0.16293 0.0
H386 H 0.19122 0.58674 0.16086 0.0
H387 H 0.20138 0.52343 0.12246 0.0
H388 H 0.3509 0.55235 0.11584 0.0
H389 H 0.30111 0.55292 0.11763 0.0
C390 C 0.7584 0.19278 0.4905 0.0
C391 C 0.7527 0.18834 0.5063 0.0
C392 C 0.78057 0.21888 0.48621 0.0
C393 C 0.84795 0.2811 0.50279 0.0
H394 H 0.83739 0.31966 0.46376 0.0
C395 C 0.92974 0.39743 0.48654 0.0
C396 C 0.93752 0.40006 0.471 0.0
C397 C 0.90701 0.37189 0.49087 0.0
C398 C 0.84078 0.309 0.47463 0.0
H399 H 0.76535 0.20832 0.52992 0.0
H400 H 0.80366 0.25398 0.52244 0.0
H401 H 0.79796 0.27498 0.47127 0.0
H402 H 0.92746 0.37735 0.44792 0.0
H403 H 0.88763 0.3331 0.45543 0.0
H404 H 0.8907 0.31537 0.50619 0.0
C405 C 0.79152 0.23698 0.51338 0.0
C406 C 0.81818 0.28331 0.47893 0.0
C407 C 0.76948 0.21081 0.51767 0.0
C408 C 0.92181 0.37646 0.45991 0.0
C409 C 0.89897 0.35101 0.46422 0.0
C410 C 0.87047 0.30689 0.49852 0.0
C411 C 0.79751 0.24131 0.49759 0.0
C412 C 0.82147 0.26894 0.49306 0.0
C413 C 0.89133 0.34837 0.47976 0.0
C414 C 0.8672 0.32112 0.48437 0.0
H415 H 0.74615 0.17573 0.48147 0.0
H416 H 0.78481 0.22112 0.47398 0.0
H417 H 0.85156 0.27039 0.5136 0.0
H418 H 0.94094 0.41534 0.49535 0.0
H419 H 0.90141 0.37077 0.50288 0.0
C420 C 0.51391 0.60562 0.83503 0.0
C421 C 0.5373 0.5996 0.84366 0.0
C422 C 0.5137 0.63557 0.83372 0.0
C423 C 0.54606 0.71396 0.85189 0.0
H424 H 0.52163 0.73828 0.81123 0.0
C425 C 0.55983 0.84046 0.83916 0.0
C426 C 0.53794 0.84639 0.82913 0.0
C427 C 0.55952 0.81046 0.84125 0.0
C428 C 0.52814 0.73186 0.82274 0.0
H429 H 0.57859 0.62066 0.85794 0.0
H430 H 0.57823 0.6729 0.85563 0.0
H431 H 0.5213 0.68618 0.81445 0.0
H432 H 0.49808 0.825 0.81378 0.0
H433 H 0.49734 0.77286 0.81754 0.0
H434 H 0.55274 0.7596 0.86022 0.0
C435 C 0.55994 0.65436 0.84993 0.0
C436 C 0.52798 0.70188 0.82458 0.0
C437 C 0.56021 0.62436 0.8512 0.0
C438 C 0.51558 0.82142 0.82139 0.0
C439 C 0.5152 0.79142 0.82354 0.0
C440 C 0.54609 0.74394 0.85007 0.0
C441 C 0.53681 0.66042 0.84104 0.0
C442 C 0.53694 0.69247 0.83917 0.0
C443 C 0.53725 0.78545 0.83344 0.0
C444 C 0.53713 0.75338 0.83546 0.0
H445 H 0.49572 0.5872 0.82915 0.0
H446 H 0.49526 0.63923 0.82701 0.0
H447 H 0.55275 0.70747 0.86335 0.0
H448 H 0.57762 0.8591 0.84515 0.0
H449 H 0.57716 0.80696 0.84877 0.0
C450 C 0.92104 0.52843 0.15367 0.0
C451 C 0.94434 0.55218 0.14804 0.0
C452 C 0.89189 0.52867 0.15207 0.0
C453 C 0.8464 0.57994 0.14174 0.0
H454 H 0.78167 0.5032 0.14 0.0
C455 C 0.72483 0.57745 0.14256 0.0
C456 C 0.70106 0.55249 0.13561 0.0
C457 C 0.75402 0.57738 0.14375 0.0
C458 C 0.79924 0.52501 0.14025 0.0
H459 H 0.9543 0.59484 0.13606 0.0
H460 H 0.90387 0.59492 0.13281 0.0
H461 H 0.83182 0.50315 0.14215 0.0
H462 H 0.69093 0.50774 0.12428 0.0
H463 H 0.74136 0.50818 0.12569 0.0
H464 H 0.81383 0.60174 0.13914 0.0
C465 C 0.90801 0.57627 0.13892 0.0
C466 C 0.8285 0.52501 0.14179 0.0
C467 C 0.93725 0.57619 0.1407 0.0
C468 C 0.70811 0.52768 0.12961 0.0
C469 C 0.73742 0.52773 0.13067 0.0
C470 C 0.81715 0.57992 0.14004 0.0
C471 C 0.88455 0.5525 0.14456 0.0
C472 C 0.85286 0.55249 0.14267 0.0
C473 C 0.76111 0.55251 0.13787 0.0
C474 C 0.79278 0.55246 0.13935 0.0
H475 H 0.92531 0.50953 0.15948 0.0
H476 H 0.87518 0.51012 0.15696 0.0
H477 H 0.86397 0.6018 0.14253 0.0
H478 H 0.7211 0.59746 0.14711 0.0
H479 H 0.77096 0.59691 0.14958 0.0
C480 C 0.3885 0.86368 0.49607 0.0
C481 C 0.38423 0.89212 0.49515 0.0
C482 C 0.36537 0.83654 0.49162 0.0
C483 C 0.28417 0.80441 0.486 0.0
H484 H 0.29719 0.74076 0.46129 0.0
C485 C 0.18823 0.70257 0.45657 0.0
C486 C 0.19169 0.67377 0.45578 0.0
C487 C 0.21177 0.72852 0.46215 0.0
C488 C 0.29322 0.75808 0.46839 0.0
H489 H 0.35233 0.91418 0.4883 0.0
H490 H 0.31209 0.86698 0.48069 0.0
H491 H 0.33827 0.78718 0.46932 0.0
H492 H 0.22246 0.64959 0.46074 0.0
H493 H 0.26346 0.69477 0.47063 0.0
H494 H 0.23918 0.7754 0.48512 0.0
C495 C 0.33321 0.86561 0.48511 0.0
C496 C 0.3168 0.78474 0.47296 0.0
C497 C 0.35632 0.8927 0.48949 0.0
C498 C 0.21915 0.67148 0.461 0.0
C499 C 0.24269 0.69743 0.46663 0.0
C500 C 0.26063 0.77772 0.48148 0.0
C501 C 0.33737 0.83717 0.4862 0.0
C502 C 0.31252 0.80835 0.48172 0.0
C503 C 0.2394 0.72636 0.46714 0.0
C504 C 0.26476 0.75428 0.47251 0.0
H505 H 0.40956 0.86228 0.50057 0.0
H506 H 0.36926 0.815 0.49275 0.0
H507 H 0.2802 0.82191 0.49297 0.0
H508 H 0.16755 0.70528 0.45241 0.0
H509 H 0.20849 0.75043 0.46212 0.0
C510 C 0.56737 0.41342 0.84038 0.0
C511 C 0.54061 0.41849 0.84149 0.0
C512 C 0.56812 0.38371 0.83858 0.0
C513 C 0.52302 0.30109 0.84186 0.0
H514 H 0.5801 0.28843 0.81607 0.0
C515 C 0.52014 0.18094 0.81981 0.0
C516 C 0.5472 0.17579 0.82015 0.0
C517 C 0.51913 0.21005 0.82342 0.0
C518 C 0.5642 0.29158 0.82344 0.0
H519 H 0.49356 0.39601 0.84156 0.0
H520 H 0.4947 0.3444 0.83796 0.0
H521 H 0.57858 0.33971 0.82009 0.0
H522 H 0.59435 0.19745 0.82542 0.0
H523 H 0.59254 0.24808 0.83134 0.0
H524 H 0.50821 0.25258 0.84478 0.0
C525 C 0.51531 0.36328 0.83887 0.0
C526 C 0.56337 0.32111 0.82581 0.0
C527 C 0.51461 0.39301 0.84085 0.0
C528 C 0.57312 0.20049 0.82464 0.0
C529 C 0.57211 0.22961 0.82809 0.0
C530 C 0.52365 0.27146 0.83933 0.0
C531 C 0.54207 0.35813 0.83763 0.0
C532 C 0.54284 0.32641 0.83512 0.0
C533 C 0.54515 0.23488 0.82733 0.0
C534 C 0.54434 0.26635 0.83013 0.0
H535 H 0.58788 0.43244 0.84096 0.0
H536 H 0.58927 0.38087 0.83803 0.0
H537 H 0.50718 0.30411 0.84931 0.0
H538 H 0.4997 0.16276 0.81621 0.0
H539 H 0.49799 0.21334 0.82261 0.0
C540 C 0.5468 0.92458 0.52124 0.0
C541 C 0.57308 0.94968 0.52145 0.0
C542 C 0.54736 0.89473 0.52234 0.0
C543 C 0.59486 0.85115 0.53664 0.0
H544 H 0.53963 0.78496 0.51032 0.0
C545 C 0.60081 0.72874 0.53745 0.0
C546 C 0.57427 0.70388 0.53579 0.0
C547 C 0.60105 0.75864 0.53518 0.0
C548 C 0.55498 0.80303 0.51794 0.0
H549 H 0.62059 0.9628 0.5229 0.0
H550 H 0.62153 0.91071 0.52492 0.0
H551 H 0.53928 0.83695 0.50733 0.0
H552 H 0.5271 0.69116 0.53061 0.0
H553 H 0.52736 0.7432 0.52696 0.0
H554 H 0.61019 0.81733 0.54751 0.0
C555 C 0.60048 0.91421 0.52394 0.0
C556 C 0.55482 0.83293 0.51617 0.0
C557 C 0.59992 0.94407 0.52268 0.0
C558 C 0.54797 0.70971 0.53177 0.0
C559 C 0.54817 0.73964 0.52964 0.0
C560 C 0.59486 0.82122 0.53851 0.0
C561 C 0.5742 0.88915 0.52383 0.0
C562 C 0.57474 0.85738 0.5255 0.0
C563 C 0.57471 0.76461 0.53132 0.0
C564 C 0.5749 0.79666 0.5292 0.0
H565 H 0.52569 0.92794 0.52028 0.0
H566 H 0.52672 0.87602 0.52235 0.0
H567 H 0.61023 0.86935 0.54418 0.0
H568 H 0.62151 0.72503 0.54032 0.0
H569 H 0.62201 0.77705 0.53628 0.0
C570 C 0.71746 0.47584 0.82092 0.0
C571 C 0.71492 0.50474 0.81858 0.0
C572 C 0.74079 0.46881 0.81543 0.0
C573 C 0.80571 0.49808 0.79211 0.0
H574 H 0.84414 0.46834 0.82677 0.0
C575 C 0.92955 0.5394 0.80765 0.0
C576 C 0.94257 0.521 0.81632 0.0
C577 C 0.89963 0.52835 0.80256 0.0
C578 C 0.83357 0.47584 0.81672 0.0
H579 H 0.73347 0.54819 0.80779 0.0
H580 H 0.77465 0.53635 0.79854 0.0
H581 H 0.79359 0.46519 0.82753 0.0
H582 H 0.93533 0.47559 0.82497 0.0
H583 H 0.883 0.45608 0.81592 0.0
H584 H 0.84662 0.5104 0.78179 0.0
C585 C 0.75841 0.5188 0.80433 0.0
C586 C 0.80441 0.47405 0.81716 0.0
C587 C 0.7349 0.52571 0.80971 0.0
C588 C 0.92569 0.49045 0.81856 0.0
C589 C 0.89577 0.4793 0.81338 0.0
C590 C 0.83499 0.49988 0.79166 0.0
C591 C 0.76223 0.49069 0.80765 0.0
C592 C 0.79051 0.48632 0.8052 0.0
C593 C 0.88213 0.4986 0.80598 0.0
C594 C 0.84961 0.48997 0.8043 0.0
H595 H 0.70196 0.45907 0.82748 0.0
H596 H 0.74277 0.44673 0.81789 0.0
H597 H 0.79542 0.5072 0.78256 0.0
H598 H 0.94192 0.56312 0.80583 0.0
H599 H 0.88987 0.54399 0.79705 0.0
C600 C 0.18694 0.76507 0.17794 0.0
C601 C 0.18497 0.73832 0.16942 0.0
C602 C 0.21415 0.78792 0.18184 0.0
C603 C 0.29378 0.80079 0.18751 0.0
H604 H 0.30092 0.88627 0.18553 0.0
C605 C 0.40564 0.8978 0.20178 0.0
C606 C 0.40552 0.92336 0.21064 0.0
C607 C 0.37923 0.87578 0.19557 0.0
C608 C 0.29929 0.86252 0.18631 0.0
H609 H 0.21039 0.71512 0.15812 0.0
H610 H 0.25789 0.75491 0.16506 0.0
H611 H 0.25412 0.84689 0.17694 0.0
H612 H 0.37732 0.9456 0.21994 0.0
H613 H 0.33143 0.9073 0.20923 0.0
H614 H 0.33879 0.81636 0.19712 0.0
C615 C 0.2383 0.75801 0.16883 0.0
C616 C 0.27241 0.83991 0.18136 0.0
C617 C 0.21103 0.73516 0.16486 0.0
C618 C 0.37831 0.92652 0.21295 0.0
C619 C 0.35192 0.90449 0.20679 0.0
C620 C 0.32065 0.8234 0.19252 0.0
C621 C 0.24021 0.78466 0.17741 0.0
C622 C 0.26923 0.80874 0.18201 0.0
C623 C 0.35198 0.87868 0.19811 0.0
C624 C 0.32372 0.85459 0.19211 0.0
H625 H 0.16751 0.76812 0.18195 0.0
H626 H 0.21481 0.80787 0.18869 0.0
H627 H 0.29203 0.77702 0.18838 0.0
H628 H 0.42619 0.89482 0.19959 0.0
H629 H 0.38019 0.85651 0.18874 0.0
C630 C 0.59552 0.15655 0.52608 0.0
C631 C 0.56905 0.13174 0.5235 0.0
C632 C 0.59537 0.18647 0.52773 0.0
C633 C 0.54758 0.2347 0.52116 0.0
H634 H 0.60663 0.29013 0.55098 0.0
C635 C 0.54358 0.35247 0.54252 0.0
C636 C 0.57032 0.37717 0.54432 0.0
C637 C 0.54305 0.32284 0.53883 0.0
C638 C 0.59018 0.27507 0.54248 0.0
H639 H 0.52159 0.11918 0.52052 0.0
H640 H 0.52125 0.17124 0.5238 0.0
H641 H 0.60618 0.2381 0.54708 0.0
H642 H 0.61732 0.38988 0.54278 0.0
H643 H 0.61637 0.33827 0.53662 0.0
H644 H 0.53123 0.27177 0.51692 0.0
C645 C 0.54224 0.16768 0.52423 0.0
C646 C 0.58994 0.24514 0.54019 0.0
C647 C 0.5424 0.13772 0.52243 0.0
C648 C 0.59637 0.37145 0.54184 0.0
C649 C 0.59585 0.34182 0.53828 0.0
C650 C 0.54766 0.26461 0.52357 0.0
C651 C 0.56873 0.19252 0.52702 0.0
C652 C 0.56872 0.22449 0.52945 0.0
C653 C 0.56925 0.31705 0.53695 0.0
C654 C 0.56905 0.28522 0.53422 0.0
H655 H 0.6165 0.15292 0.5268 0.0
H656 H 0.61627 0.2049 0.52948 0.0
H657 H 0.53114 0.21973 0.51263 0.0
H658 H 0.5231 0.35576 0.54454 0.0
H659 H 0.5222 0.30425 0.53801 0.0
C660 C 0.34701 0.54574 0.81983 0.0
C661 C 0.37768 0.55745 0.82338 0.0
C662 C 0.33067 0.56538 0.81845 0.0
C663 C 0.30239 0.61414 0.81138 0.0
H664 H 0.31466 0.66248 0.85008 0.0
C665 C 0.24354 0.68389 0.85178 0.0
C666 C 0.21499 0.66249 0.84944 0.0
C667 C 0.26628 0.67977 0.84406 0.0
C668 C 0.31129 0.65002 0.83894 0.0
H669 H 0.41541 0.59922 0.82704 0.0
H670 H 0.38658 0.63338 0.82524 0.0
H671 H 0.35011 0.63855 0.84426 0.0
H672 H 0.18753 0.62085 0.83665 0.0
H673 H 0.22691 0.61313 0.82367 0.0
H674 H 0.26317 0.62498 0.8062 0.0
C675 C 0.37534 0.60897 0.82355 0.0
C676 C 0.33165 0.63615 0.83565 0.0
C677 C 0.39174 0.58937 0.82474 0.0
C678 C 0.20924 0.63798 0.83855 0.0
C679 C 0.23194 0.63363 0.83102 0.0
C680 C 0.28223 0.62844 0.81453 0.0
C681 C 0.34461 0.5971 0.82073 0.0
C682 C 0.3267 0.61702 0.8222 0.0
C683 C 0.26097 0.65386 0.83409 0.0
C684 C 0.28568 0.64532 0.82874 0.0
H685 H 0.33539 0.52133 0.81885 0.0
H686 H 0.30693 0.55561 0.81649 0.0
H687 H 0.29834 0.59979 0.80081 0.0
H688 H 0.24846 0.7032 0.85999 0.0
H689 H 0.28824 0.69619 0.84644 0.0
C690 C 0.88919 0.35178 0.18243 0.0
C691 C 0.89068 0.36004 0.16666 0.0
C692 C 0.86421 0.32923 0.18713 0.0
C693 C 0.79845 0.26434 0.17104 0.0
H694 H 0.76996 0.27188 0.2113 0.0
C695 C 0.68594 0.18428 0.18761 0.0
C696 C 0.68461 0.17309 0.20287 0.0
C697 C 0.71115 0.20719 0.18347 0.0
C698 C 0.7778 0.26929 0.20008 0.0
H699 H 0.86658 0.35171 0.14358 0.0
H700 H 0.82303 0.31283 0.15175 0.0
H701 H 0.81355 0.31172 0.2036 0.0
H702 H 0.70917 0.17745 0.22572 0.0
H703 H 0.75294 0.21767 0.21854 0.0
H704 H 0.76253 0.22209 0.16746 0.0
C705 C 0.84141 0.32313 0.16046 0.0
C706 C 0.80285 0.29212 0.19566 0.0
C707 C 0.8664 0.34551 0.15576 0.0
C708 C 0.70915 0.18574 0.21393 0.0
C709 C 0.73431 0.2088 0.20981 0.0
C710 C 0.77335 0.24163 0.17542 0.0
C711 C 0.84001 0.31447 0.17619 0.0
C712 C 0.81349 0.29002 0.18105 0.0
C713 C 0.73569 0.2197 0.1945 0.0
C714 C 0.76264 0.24383 0.18997 0.0
H715 H 0.90761 0.3623 0.19109 0.0
H716 H 0.86415 0.32294 0.19929 0.0
H717 H 0.80627 0.26152 0.15985 0.0
H718 H 0.66734 0.17561 0.17885 0.0
H719 H 0.71125 0.2154 0.17166 0.0
C720 C 1.02244 0.53442 0.09214 0.0
C721 C 0.03895 0.55846 0.10278 0.0
C722 C 1.02397 0.53764 0.07599 0.0
C723 C 0.04239 0.5955 0.04592 0.0
H724 H 0.04444 0.52781 0.01985 0.0
C725 C 0.05462 0.6048 0.97921 0.0
C726 C 0.03694 0.57964 0.96953 0.0
C727 C 0.05638 0.60293 0.99556 0.0
C728 C 0.04359 0.54683 0.02695 0.0
H729 H 0.07019 0.60475 0.10474 0.0
H730 H 0.07289 0.61027 0.07651 0.0
H731 H 0.045 0.52324 0.04823 0.0
H732 H 1.00758 0.53264 0.96948 0.0
H733 H 1.01012 0.52963 0.99792 0.0
H734 H 0.04064 0.61896 0.02461 0.0
C735 C 0.05858 0.58902 0.0807 0.0
C736 C 0.04394 0.54422 0.04321 0.0
C737 C 0.05713 0.58578 0.09688 0.0
C738 C 1.02111 0.55259 0.97658 0.0
C739 C 1.02288 0.55072 0.99289 0.0
C740 C 0.04199 0.5981 0.02964 0.0
C741 C 0.04199 0.56498 0.07008 0.0
C742 C 0.04306 0.5684 0.05287 0.0
C743 C 0.04057 0.57583 0.00258 0.0
C744 C 0.04229 0.57367 0.01995 0.0
H745 H 1.00816 0.51306 0.09624 0.0
H746 H 1.0106 0.51883 0.06812 0.0
H747 H 0.04136 0.61442 0.05303 0.0
H748 H 0.06692 0.62605 0.97416 0.0
H749 H 0.0704 0.62261 0.00268 0.0
C750 C 0.59229 0.06724 0.46527 0.0
C751 C 0.57094 0.0434 0.47203 0.0
C752 C 0.5928 0.06844 0.44898 0.0
C753 C 0.54682 0.03922 0.4115 0.0
H754 H 0.62218 0.06638 0.39412 0.0
C755 C 0.55867 0.03545 0.34457 0.0
C756 C 0.5794 0.06115 0.33868 0.0
C757 C 0.55701 0.03239 0.36077 0.0
C758 C 0.60096 0.059 0.39879 0.0
H759 H 0.53335 1.00205 0.4669 0.0
H760 H 0.53453 0.00387 0.43845 0.0
H761 H 0.62051 0.06234 0.42241 0.0
H762 H 0.61403 0.10423 0.34533 0.0
H763 H 0.61135 0.09869 0.37347 0.0
H764 H 0.52734 0.03574 0.38778 0.0
C765 C 0.55063 0.02193 0.44576 0.0
C766 C 0.59998 0.05672 0.41503 0.0
C767 C 0.55005 0.02079 0.46209 0.0
C768 C 0.59823 0.08381 0.34941 0.0
C769 C 0.59667 0.08067 0.36557 0.0
C770 C 0.5478 0.04136 0.39523 0.0
C771 C 0.57206 0.04575 0.43899 0.0
C772 C 0.57292 0.04708 0.42162 0.0
C773 C 0.57614 0.05488 0.37146 0.0
C774 C 0.5749 0.05155 0.3887 0.0
H775 H 0.60864 0.08516 0.47255 0.0
H776 H 0.6093 0.08743 0.44421 0.0
H777 H 0.5256 0.03207 0.41616 0.0
H778 H 0.54406 0.01737 0.33668 0.0
H779 H 0.54115 0.0121 0.36493 0.0
C780 C 0.57037 0.52896 0.78912 0.0
C781 C 0.54595 0.50803 0.79537 0.0
C782 C 0.572 0.53033 0.77291 0.0
C783 C 0.52546 0.51137 0.73523 0.0
H784 H 0.60014 0.52701 0.71786 0.0
C785 C 0.53619 0.51708 0.6683 0.0
C786 C 0.55981 0.54146 0.66353 0.0
C787 C 0.53441 0.51045 0.68419 0.0
C788 C 0.57915 0.52283 0.72254 0.0
H789 H 0.5043 0.47172 0.7894 0.0
H790 H 0.50732 0.47392 0.76108 0.0
H791 H 0.59717 0.51968 0.74593 0.0
H792 H 0.60049 0.57742 0.67169 0.0
H793 H 0.59725 0.56608 0.69937 0.0
H794 H 0.50753 0.51478 0.71182 0.0
C795 C 0.52503 0.48956 0.76875 0.0
C796 C 0.57745 0.51865 0.73863 0.0
C797 C 0.52339 0.48817 0.785 0.0
C798 C 0.58185 0.5587 0.67498 0.0
C799 C 0.58015 0.55198 0.69084 0.0
C800 C 0.52716 0.51548 0.71911 0.0
C801 C 0.54928 0.51079 0.7625 0.0
C802 C 0.55067 0.51326 0.74522 0.0
C803 C 0.55632 0.52791 0.69565 0.0
C804 C 0.55411 0.52164 0.71261 0.0
H805 H 0.58816 0.54463 0.79674 0.0
H806 H 0.5908 0.54726 0.76853 0.0
H807 H 0.50457 0.50766 0.73992 0.0
H808 H 0.51875 0.50351 0.65977 0.0
H809 H 0.5159 0.49159 0.6875 0.0
C810 C 0.59318 0.03076 0.57873 0.0
C811 C 0.57085 0.03747 0.5695 0.0
C812 C 0.59221 0.0281 0.59497 0.0
C813 C 0.55877 0.04844 0.6288 0.0
H814 H 0.57788 0.98155 0.6482 0.0
C815 C 0.53679 0.01504 0.6929 0.0
C816 C 0.55762 0.00542 0.7018 0.0
C817 C 0.53909 0.02037 0.6769 0.0
C818 C 0.57286 1.00062 0.64304 0.0
H819 H 0.53014 0.04702 0.57019 0.0
H820 H 0.52842 0.04222 0.59848 0.0
H821 H 0.58078 0.9883 0.62013 0.0
H822 H 0.59788 0.99513 0.70101 0.0
H823 H 0.60203 0.00461 0.67321 0.0
H824 H 0.55081 0.06073 0.65173 0.0
C825 C 0.54681 0.03927 0.59317 0.0
C826 C 0.57451 0.00447 0.62692 0.0
C827 C 0.54773 0.04185 0.57693 0.0
C828 C 0.58116 1.00195 0.69442 0.0
C829 C 0.58351 0.00735 0.67847 0.0
C830 C 0.55718 0.04463 0.64495 0.0
C831 C 0.56894 0.03216 0.60238 0.0
C832 C 0.56747 0.0284 0.61959 0.0
C833 C 0.56233 0.01629 0.66944 0.0
C834 C 0.5642 0.02065 0.65228 0.0
H835 H 0.61136 0.02734 0.57343 0.0
H836 H 0.60981 0.02301 0.60173 0.0
H837 H 0.55355 0.06734 0.62356 0.0
H838 H 0.51823 0.01763 0.69819 0.0
H839 H 0.5222 0.02689 0.67029 0.0
C840 C 0.55879 0.52136 0.90335 0.0
C841 C 0.53286 0.51379 0.89313 0.0
C842 C 0.55789 0.52296 0.9196 0.0
C843 C 0.51037 0.52894 0.95055 0.0
H844 H 0.56519 0.50204 0.97716 0.0
C845 C 0.50267 0.5136 0.01737 0.0
C846 C 0.52903 0.52465 0.02727 0.0
C847 C 0.50303 0.51262 1.00105 0.0
C848 C 0.54993 0.50992 0.96991 0.0
H849 H 0.48555 0.50209 0.89208 0.0
H850 H 0.48384 0.50413 0.92053 0.0
H851 H 0.56525 0.49893 0.94874 0.0
H852 H 0.57647 0.54329 0.02772 0.0
H853 H 0.57715 0.54139 0.99913 0.0
H854 H 0.49474 0.53934 0.97184 0.0
C855 C 0.50501 0.5094 0.91594 0.0
C856 C 0.54997 0.50821 0.95357 0.0
C857 C 0.50595 0.50807 0.89961 0.0
C858 C 0.5558 0.53472 0.02042 0.0
C859 C 0.55618 0.53343 0.00406 0.0
C860 C 0.51016 0.53038 0.9669 0.0
C861 C 0.53101 0.51674 0.92618 0.0
C862 C 0.53032 0.51787 0.94363 0.0
C863 C 0.52977 0.52244 0.99418 0.0
C864 C 0.53003 0.52101 0.97678 0.0
H865 H 0.57999 0.52628 0.89882 0.0
H866 H 0.57846 0.52941 0.927 0.0
H867 H 0.49521 0.53704 0.94336 0.0
H868 H 0.48164 0.50606 0.02224 0.0
H869 H 0.48233 0.5038 0.9938 0.0
C870 C 1.02644 0.5109 0.20698 0.0
C871 C 1.02679 0.53826 0.19995 0.0
C872 C 1.02563 0.5081 0.22321 0.0
C873 C 0.04231 0.55382 0.26046 0.0
H874 H 0.99226 0.47889 0.27709 0.0
C875 C 1.02483 0.54199 0.32652 0.0
C876 C 1.02332 0.51401 0.33319 0.0
C877 C 1.02525 0.54523 0.31028 0.0
C878 C 1.00664 0.49984 0.27266 0.0
H879 H 1.0264 0.58409 0.20452 0.0
H880 H 1.02486 0.57912 0.23282 0.0
H881 H 0.99276 0.4839 0.24877 0.0
H882 H 1.0219 0.46776 0.32806 0.0
H883 H 1.02285 0.47346 0.2998 0.0
H884 H 0.05636 0.56969 0.28434 0.0
C885 C 1.02549 0.55993 0.22578 0.0
C886 C 1.00689 0.50272 0.25641 0.0
C887 C 1.02618 0.5627 0.20954 0.0
C888 C 1.02256 0.48947 0.32327 0.0
C889 C 1.02306 0.49273 0.30706 0.0
C890 C 0.04213 0.55091 0.27671 0.0
C891 C 1.02525 0.53261 0.23282 0.0
C892 C 1.02476 0.52971 0.25011 0.0
C893 C 1.02426 0.5206 0.30034 0.0
C894 C 1.02434 0.52385 0.28303 0.0
H895 H 1.02689 0.49161 0.19997 0.0
H896 H 1.02578 0.48686 0.22828 0.0
H897 H 0.05664 0.57476 0.25599 0.0
H898 H 1.02506 0.56122 0.33381 0.0
H899 H 1.02577 0.5669 0.3055 0.0
loop_
_geom_bond_atom_site_label_1
_geom_bond_atom_site_label_2
_geom_bond_distance
_geom_bond_site_symmetry_2
_ccdc_geom_bond_type
Dy0 O3 2.307 1_455 S
Dy0 O5 2.395 . S
Dy0 O6 2.379 . S
Dy0 O8 2.339 . S
Dy0 O10 2.298 . S
Dy0 O14 2.275 . S
Dy0 C22 2.738 . S
Dy1 O4 2.298 . S
Dy1 O7 2.275 1_655 S
Dy1 O9 2.307 1_655 S
Dy1 O11 2.395 . S
Dy1 O12 2.379 . S
Dy1 O15 2.339 . S
Dy1 C31 2.738 . S
C2 O14 1.254 . S
C2 O15 1.257 1_455 S
O3 Dy0 2.307 1_655 S
O3 C13 1.266 . S
O4 Dy1 2.298 . S
O4 C13 1.236 . S
O5 Dy0 2.395 . S
O5 C22 1.255 . S
O6 Dy0 2.379 . S
O6 C22 1.249 . S
O7 Dy1 2.275 1_455 S
O7 C23 1.254 . S
O8 Dy0 2.339 . S
O8 C23 1.257 . S
O9 Dy1 2.307 1_455 S
O9 C24 1.266 . S
O10 Dy0 2.298 . S
O10 C24 1.236 . S
O11 Dy1 2.395 . S
O11 C31 1.255 . S
O12 Dy1 2.379 . S
O12 C31 1.249 . S
C13 O3 1.266 . S
C13 O4 1.236 . S
O14 Dy0 2.275 . S
O14 C2 1.254 . S
O15 Dy1 2.339 . S
O15 C2 1.257 1_655 S
C16 C19 1.344 . S
C16 C20 1.328 . S
C16 C22 1.516 . S
C17 C18 1.304 . S
C17 C21 1.323 . S
C18 C17 1.304 . S
C18 C19 1.371 . S
C18 H32 0.930 . S
C19 C16 1.344 . S
C19 C18 1.371 . S
C19 H33 0.931 . S
C20 C16 1.328 . S
C20 C21 1.433 . S
C20 H34 0.931 . S
C21 C17 1.323 . S
C21 C20 1.433 . S
C21 H35 0.933 . S
C22 Dy0 2.738 . S
C22 O5 1.255 . S
C22 O6 1.249 . S
C22 C16 1.516 . S
C23 O7 1.254 . S
C23 O8 1.257 . S
C24 O9 1.266 . S
C24 O10 1.236 . S
C25 C28 1.344 . S
C25 C29 1.328 . S
C25 C31 1.516 . S
C26 C27 1.304 . S
C26 C30 1.323 . S
C27 C26 1.304 . S
C27 C28 1.371 . S
C27 H36 0.930 . S
C28 C25 1.344 . S
C28 C27 1.371 . S
C28 H37 0.931 . S
C29 C25 1.328 . S
C29 C30 1.433 . S
C29 H38 0.931 . S
C30 C26 1.323 . S
C30 C29 1.433 . S
C30 H39 0.933 . S
C31 Dy1 2.738 . S
C31 O11 1.255 . S
C31 O12 1.249 . S
C31 C25 1.516 . S
H32 C18 0.930 . S
H33 C19 0.931 . S
H34 C20 0.931 . S
H35 C21 0.933 . S
H36 C27 0.930 . S
H37 C28 0.931 . S
H38 C29 0.931 . S
H39 C30 0.933 . S
Dy40 O43 2.307 . S
Dy40 O45 2.395 1_545 S
Dy40 O46 2.379 1_545 S
Dy40 O48 2.339 . S
Dy40 O50 2.298 1_545 S
Dy40 O54 2.275 . S
Dy40 C62 2.738 1_545 S
Dy41 O44 2.298 . S
Dy41 O47 2.275 . S
Dy41 O49 2.307 1_545 S
Dy41 O51 2.395 . S
Dy41 O52 2.379 . S
Dy41 O55 2.339 . S
Dy41 C71 2.738 . S
C42 O54 1.254 . S
C42 O55 1.257 . S
O43 Dy40 2.307 . S
O43 C53 1.266 . S
O44 Dy41 2.298 . S
O44 C53 1.236 . S
O45 Dy40 2.395 1_565 S
O45 C62 1.255 . S
O46 Dy40 2.379 1_565 S
O46 C62 1.249 . S
O47 Dy41 2.275 . S
O47 C63 1.254 . S
O48 Dy40 2.339 . S
O48 C63 1.257 . S
O49 Dy41 2.307 1_565 S
O49 C64 1.266 . S
O50 Dy40 2.298 1_565 S
O50 C64 1.236 . S
O51 Dy41 2.395 . S
O51 C71 1.255 . S
O52 Dy41 2.379 . S
O52 C71 1.249 . S
C53 O43 1.266 . S
C53 O44 1.236 . S
O54 Dy40 2.275 . S
O54 C42 1.254 . S
O55 Dy41 2.339 . S
O55 C42 1.257 . S
C56 C59 1.344 . S
C56 C60 1.328 . S
C56 C62 1.516 . S
C57 C58 1.304 . S
C57 C61 1.323 . S
C58 C57 1.304 . S
C58 C59 1.371 . S
C58 H72 0.930 . S
C59 C56 1.344 . S
C59 C58 1.371 . S
C59 H73 0.931 . S
C60 C56 1.328 . S
C60 C61 1.433 . S
C60 H74 0.931 . S
C61 C57 1.323 . S
C61 C60 1.433 . S
C61 H75 0.933 . S
C62 Dy40 2.738 1_565 S
C62 O45 1.255 . S
C62 O46 1.249 . S
C62 C56 1.516 . S
C63 O47 1.254 . S
C63 O48 1.257 . S
C64 O49 1.266 . S
C64 O50 1.236 . S
C65 C68 1.344 . S
C65 C69 1.328 . S
C65 C71 1.516 . S
C66 C67 1.304 . S
C66 C70 1.323 . S
C67 C66 1.304 . S
C67 C68 1.371 . S
C67 H76 0.930 . S
C68 C65 1.344 . S
C68 C67 1.371 . S
C68 H77 0.931 . S
C69 C65 1.328 . S
C69 C70 1.433 . S
C69 H78 0.931 . S
C70 C66 1.323 . S
C70 C69 1.433 . S
C70 H79 0.933 . S
C71 Dy41 2.738 . S
C71 O51 1.255 . S
C71 O52 1.249 . S
C71 C65 1.516 . S
H72 C58 0.930 . S
H73 C59 0.931 . S
H74 C60 0.931 . S
H75 C61 0.933 . S
H76 C67 0.930 . S
H77 C68 0.931 . S
H78 C69 0.931 . S
H79 C70 0.933 . S
Dy80 O83 2.307 . S
Dy80 O85 2.395 . S
Dy80 O86 2.379 . S
Dy80 O88 2.339 . S
Dy80 O90 2.298 . S
Dy80 O94 2.275 . S
Dy80 C102 2.738 . S
Dy81 O84 2.298 . S
Dy81 O87 2.275 . S
Dy81 O89 2.307 . S
Dy81 O91 2.395 . S
Dy81 O92 2.379 . S
Dy81 O95 2.339 . S
Dy81 C111 2.738 . S
C82 O94 1.254 . S
C82 O95 1.257 . S
O83 Dy80 2.307 . S
O83 C93 1.266 . S
O84 Dy81 2.298 . S
O84 C93 1.236 . S
O85 Dy80 2.395 . S
O85 C102 1.255 . S
O86 Dy80 2.379 . S
O86 C102 1.249 . S
O87 Dy81 2.275 . S
O87 C103 1.254 . S
O88 Dy80 2.339 . S
O88 C103 1.257 . S
O89 Dy81 2.307 . S
O89 C104 1.266 . S
O90 Dy80 2.298 . S
O90 C104 1.236 . S
O91 Dy81 2.395 . S
O91 C111 1.255 . S
O92 Dy81 2.379 . S
O92 C111 1.249 . S
C93 O83 1.266 . S
C93 O84 1.236 . S
O94 Dy80 2.275 . S
O94 C82 1.254 . S
O95 Dy81 2.339 . S
O95 C82 1.257 . S
C96 C99 1.344 . S
C96 C100 1.328 . S
C96 C102 1.516 . S
C97 C98 1.304 . S
C97 C101 1.323 . S
C98 C97 1.304 . S
C98 C99 1.371 . S
C98 H112 0.930 . S
C99 C96 1.344 . S
C99 C98 1.371 . S
C99 H113 0.931 . S
C100 C96 1.328 . S
C100 C101 1.433 . S
C100 H114 0.931 . S
C101 C97 1.323 . S
C101 C100 1.433 . S
C101 H115 0.933 . S
C102 Dy80 2.738 . S
C102 O85 1.255 . S
C102 O86 1.249 . S
C102 C96 1.516 . S
C103 O87 1.254 . S
C103 O88 1.257 . S
C104 O89 1.266 . S
C104 O90 1.236 . S
C105 C108 1.344 . S
C105 C109 1.328 . S
C105 C111 1.516 . S
C106 C107 1.304 . S
C106 C110 1.323 . S
C107 C106 1.304 . S
C107 C108 1.371 . S
C107 H116 0.930 . S
C108 C105 1.344 . S
C108 C107 1.371 . S
C108 H117 0.931 . S
C109 C105 1.328 . S
C109 C110 1.433 . S
C109 H118 0.931 . S
C110 C106 1.323 . S
C110 C109 1.433 . S
C110 H119 0.933 . S
C111 Dy81 2.738 . S
C111 O91 1.255 . S
C111 O92 1.249 . S
C111 C105 1.516 . S
H112 C98 0.930 . S
H113 C99 0.931 . S
H114 C100 0.931 . S
H115 C101 0.933 . S
H116 C107 0.930 . S
H117 C108 0.931 . S
H118 C109 0.931 . S
H119 C110 0.933 . S
C120 C121 1.264 . S
C120 C125 1.479 . S
C120 C130 1.465 . S
C121 C120 1.264 . S
C121 C123 1.339 . S
C121 H148 0.931 . S
C122 C123 1.395 . S
C122 C124 1.320 . S
C123 C121 1.339 . S
C123 C122 1.395 . S
C123 H149 0.929 . S
C124 C122 1.320 . S
C124 C125 1.405 . S
C124 H150 0.930 . S
C125 C120 1.479 . S
C125 C124 1.405 . S
C125 H151 0.931 . S
U126 O127 2.454 . S
U126 O128 2.458 . S
U126 C129 2.984 . S
U126 C130 2.847 . S
U126 C143 2.882 . S
U126 O144 2.441 . S
U126 O145 2.420 . S
U126 O146 2.455 . S
U126 O147 2.449 . S
O127 U126 2.454 . S
O127 C129 1.353 . S
O128 U126 2.458 . S
O128 C129 1.286 . S
C129 U126 2.984 . S
C129 O127 1.353 . S
C129 O128 1.286 . S
C129 C131 1.363 1_545 S
C130 C120 1.465 . S
C130 U126 2.847 . S
C130 O144 1.249 . S
C130 O145 1.202 . S
C131 C129 1.363 1_565 S
C131 C133 1.408 . S
C131 C136 1.342 . S
C132 C133 1.310 . S
C132 C135 1.461 . S
C132 H152 0.932 . S
C133 C131 1.408 . S
C133 C132 1.310 . S
C133 H153 0.930 1_565 S
C134 C135 1.474 . S
C134 C136 1.285 . S
C134 H154 0.929 . S
C135 C132 1.461 . S
C135 C134 1.474 . S
C136 C131 1.342 . S
C136 C134 1.285 . S
C136 H155 0.930 . S
C137 C140 1.424 . S
C137 C142 1.245 . S
C137 C143 1.428 . S
C138 C141 1.260 . S
C138 C142 1.477 . S
C138 H156 0.932 . S
C139 C140 1.384 . S
C139 C141 1.479 . S
C139 H157 0.929 . S
C140 C137 1.424 . S
C140 C139 1.384 . S
C140 H158 0.928 . S
C141 C138 1.260 . S
C141 C139 1.479 . S
C142 C137 1.245 . S
C142 C138 1.477 . S
C142 H159 0.932 . S
C143 U126 2.882 . S
C143 C137 1.428 . S
C143 O146 1.301 . S
C143 O147 1.282 . S
O144 U126 2.441 . S
O144 C130 1.249 . S
O145 U126 2.420 . S
O145 C130 1.202 . S
O146 U126 2.455 . S
O146 C143 1.301 . S
O147 U126 2.449 . S
O147 C143 1.282 . S
H148 C121 0.931 . S
H149 C123 0.929 . S
H150 C124 0.930 . S
H151 C125 0.931 . S
H152 C132 0.932 . S
H153 C133 0.930 1_545 S
H154 C134 0.929 . S
H155 C136 0.930 . S
H156 C138 0.932 . S
H157 C139 0.929 . S
H158 C140 0.928 . S
H159 C142 0.932 . S
C160 C161 1.264 . S
C160 C165 1.479 . S
C160 C170 1.465 . S
C161 C160 1.264 . S
C161 C163 1.339 . S
C161 H188 0.931 . S
C162 C163 1.395 . S
C162 C164 1.320 . S
C163 C161 1.339 . S
C163 C162 1.395 . S
C163 H189 0.929 . S
C164 C162 1.320 . S
C164 C165 1.405 . S
C164 H190 0.930 . S
C165 C160 1.479 . S
C165 C164 1.405 . S
C165 H191 0.931 . S
U166 O167 2.454 . S
U166 O168 2.458 . S
U166 C169 2.984 . S
U166 C170 2.847 . S
U166 C183 2.882 . S
U166 O184 2.441 . S
U166 O185 2.420 . S
U166 O186 2.455 . S
U166 O187 2.449 . S
O167 U166 2.454 . S
O167 C169 1.353 . S
O168 U166 2.458 . S
O168 C169 1.286 . S
C169 U166 2.984 . S
C169 O167 1.353 . S
C169 O168 1.286 . S
C169 C171 1.363 . S
C170 C160 1.465 . S
C170 U166 2.847 . S
C170 O184 1.249 . S
C170 O185 1.202 . S
C171 C169 1.363 . S
C171 C173 1.408 . S
C171 C176 1.342 . S
C172 C173 1.310 . S
C172 C175 1.461 . S
C172 H192 0.932 . S
C173 C171 1.408 . S
C173 C172 1.310 . S
C173 H193 0.930 . S
C174 C175 1.474 . S
C174 C176 1.285 . S
C174 H194 0.929 . S
C175 C172 1.461 . S
C175 C174 1.474 . S
C176 C171 1.342 . S
C176 C174 1.285 . S
C176 H195 0.930 . S
C177 C180 1.424 . S
C177 C182 1.245 . S
C177 C183 1.428 . S
C178 C181 1.260 . S
C178 C182 1.477 . S
C178 H196 0.932 . S
C179 C180 1.384 . S
C179 C181 1.479 . S
C179 H197 0.929 . S
C180 C177 1.424 . S
C180 C179 1.384 . S
C180 H198 0.928 . S
C181 C178 1.260 . S
C181 C179 1.479 . S
C182 C177 1.245 . S
C182 C178 1.477 . S
C182 H199 0.932 . S
C183 U166 2.882 . S
C183 C177 1.428 . S
C183 O186 1.301 . S
C183 O187 1.282 . S
O184 U166 2.441 . S
O184 C170 1.249 . S
O185 U166 2.420 . S
O185 C170 1.202 . S
O186 U166 2.455 . S
O186 C183 1.301 . S
O187 U166 2.449 . S
O187 C183 1.282 . S
H188 C161 0.931 . S
H189 C163 0.929 . S
H190 C164 0.930 . S
H191 C165 0.931 . S
H192 C172 0.932 . S
H193 C173 0.930 . S
H194 C174 0.929 . S
H195 C176 0.930 . S
H196 C178 0.932 . S
H197 C179 0.929 . S
H198 C180 0.928 . S
H199 C182 0.932 . S
C200 C201 1.264 . S
C200 C205 1.479 . S
C200 C210 1.465 . S
C201 C200 1.264 . S
C201 C203 1.339 . S
C201 H228 0.931 . S
C202 C203 1.395 . S
C202 C204 1.320 . S
C203 C201 1.339 . S
C203 C202 1.395 . S
C203 H229 0.929 . S
C204 C202 1.320 . S
C204 C205 1.405 . S
C204 H230 0.930 . S
C205 C200 1.479 . S
C205 C204 1.405 . S
C205 H231 0.931 . S
U206 O207 2.454 . S
U206 O208 2.458 . S
U206 C209 2.984 . S
U206 C210 2.847 1_455 S
U206 C223 2.882 . S
U206 O224 2.441 1_455 S
U206 O225 2.420 1_455 S
U206 O226 2.455 . S
U206 O227 2.449 1_455 S
O207 U206 2.454 . S
O207 C209 1.353 . S
O208 U206 2.458 . S
O208 C209 1.286 . S
C209 U206 2.984 . S
C209 O207 1.353 . S
C209 O208 1.286 . S
C209 C211 1.363 . S
C210 C200 1.465 . S
C210 U206 2.847 1_655 S
C210 O224 1.249 . S
C210 O225 1.202 . S
C211 C209 1.363 . S
C211 C213 1.408 . S
C211 C216 1.342 . S
C212 C213 1.310 . S
C212 C215 1.461 . S
C212 H232 0.932 . S
C213 C211 1.408 . S
C213 C212 1.310 . S
C213 H233 0.930 . S
C214 C215 1.474 . S
C214 C216 1.285 . S
C214 H234 0.929 . S
C215 C212 1.461 . S
C215 C214 1.474 . S
C216 C211 1.342 . S
C216 C214 1.285 . S
C216 H235 0.930 . S
C217 C220 1.424 . S
C217 C222 1.245 . S
C217 C223 1.428 . S
C218 C221 1.260 . S
C218 C222 1.477 . S
C218 H236 0.932 . S
C219 C220 1.384 . S
C219 C221 1.479 . S
C219 H237 0.929 1_455 S
C220 C217 1.424 . S
C220 C219 1.384 . S
C220 H238 0.928 1_455 S
C221 C218 1.260 . S
C221 C219 1.479 . S
C222 C217 1.245 . S
C222 C218 1.477 . S
C222 H239 0.932 . S
C223 U206 2.882 . S
C223 C217 1.428 . S
C223 O226 1.301 . S
C223 O227 1.282 1_455 S
O224 U206 2.441 1_655 S
O224 C210 1.249 . S
O225 U206 2.420 1_655 S
O225 C210 1.202 . S
O226 U206 2.455 . S
O226 C223 1.301 . S
O227 U206 2.449 1_655 S
O227 C223 1.282 1_655 S
H228 C201 0.931 . S
H229 C203 0.929 . S
H230 C204 0.930 . S
H231 C205 0.931 . S
H232 C212 0.932 . S
H233 C213 0.930 . S
H234 C214 0.929 . S
H235 C216 0.930 . S
H236 C218 0.932 . S
H237 C219 0.929 1_655 S
H238 C220 0.928 1_655 S
H239 C222 0.932 . S
C240 C241 1.264 . S
C240 C245 1.479 . S
C240 C250 1.465 . S
C241 C240 1.264 . S
C241 C243 1.339 . S
C241 H268 0.931 . S
C242 C243 1.395 . S
C242 C244 1.320 . S
C243 C241 1.339 . S
C243 C242 1.395 . S
C243 H269 0.929 . S
C244 C242 1.320 . S
C244 C245 1.405 . S
C244 H270 0.930 . S
C245 C240 1.479 . S
C245 C244 1.405 . S
C245 H271 0.931 . S
U246 O247 2.454 . S
U246 O248 2.458 . S
U246 C249 2.984 . S
U246 C250 2.847 1_455 S
U246 C263 2.883 . S
U246 O264 2.441 1_455 S
U246 O265 2.420 1_455 S
U246 O266 2.455 . S
U246 O267 2.449 1_455 S
O247 U246 2.454 . S
O247 C249 1.353 . S
O248 U246 2.458 . S
O248 C249 1.286 . S
C249 U246 2.984 . S
C249 O247 1.353 . S
C249 O248 1.286 . S
C249 C251 1.363 . S
C250 C240 1.465 . S
C250 U246 2.847 1_655 S
C250 O264 1.249 . S
C250 O265 1.202 . S
C251 C249 1.363 . S
C251 C253 1.408 . S
C251 C256 1.342 . S
C252 C253 1.310 . S
C252 C255 1.461 . S
C252 H272 0.932 . S
C253 C251 1.408 . S
C253 C252 1.310 . S
C253 H273 0.930 . S
C254 C255 1.474 . S
C254 C256 1.285 . S
C254 H274 0.929 . S
C255 C252 1.461 . S
C255 C254 1.474 . S
C256 C251 1.342 . S
C256 C254 1.285 . S
C256 H275 0.930 . S
C257 C260 1.424 1_455 S
C257 C262 1.245 . S
C257 C263 1.430 . S
C258 C261 1.260 1_455 S
C258 C262 1.477 . S
C258 H276 0.932 . S
C259 C260 1.384 . S
C259 C261 1.479 . S
C259 H277 0.929 . S
C260 C257 1.424 1_655 S
C260 C259 1.384 . S
C260 H278 0.928 . S
C261 C258 1.260 1_655 S
C261 C259 1.479 . S
C262 C257 1.245 . S
C262 C258 1.477 . S
C262 H279 0.932 . S
C263 U246 2.883 . S
C263 C257 1.430 . S
C263 O266 1.312 . S
C263 O267 1.270 1_455 S
O264 U246 2.441 1_655 S
O264 C250 1.249 . S
O265 U246 2.420 1_655 S
O265 C250 1.202 . S
O266 U246 2.455 . S
O266 C263 1.312 . S
O267 U246 2.449 1_655 S
O267 C263 1.270 1_655 S
H268 C241 0.931 . S
H269 C243 0.929 . S
H270 C244 0.930 . S
H271 C245 0.931 . S
H272 C252 0.932 . S
H273 C253 0.930 . S
H274 C254 0.929 . S
H275 C256 0.930 . S
H276 C258 0.932 . S
H277 C259 0.929 . S
H278 C260 0.928 . S
H279 C262 0.932 . S
C280 C281 1.264 . S
C280 C285 1.479 . S
C280 C290 1.465 . S
C281 C280 1.264 . S
C281 C283 1.339 . S
C281 H308 0.931 . S
C282 C283 1.395 . S
C282 C284 1.320 . S
C283 C281 1.339 . S
C283 C282 1.395 . S
C283 H309 0.929 . S
C284 C282 1.320 . S
C284 C285 1.405 . S
C284 H310 0.930 . S
C285 C280 1.479 . S
C285 C284 1.405 . S
C285 H311 0.931 . S
U286 O287 2.454 . S
U286 O288 2.458 . S
U286 C289 2.984 . S
U286 C290 2.847 1_545 S
U286 C303 2.882 . S
U286 O304 2.441 1_545 S
U286 O305 2.420 1_545 S
U286 O306 2.455 . S
U286 O307 2.449 1_545 S
O287 U286 2.454 . S
O287 C289 1.353 . S
O288 U286 2.458 . S
O288 C289 1.286 . S
C289 U286 2.984 . S
C289 O287 1.353 . S
C289 O288 1.286 . S
C289 C291 1.363 . S
C290 C280 1.465 . S
C290 U286 2.847 1_565 S
C290 O304 1.249 . S
C290 O305 1.202 . S
C291 C289 1.363 . S
C291 C293 1.408 . S
C291 C296 1.342 . S
C292 C293 1.310 . S
C292 C295 1.461 . S
C292 H312 0.932 . S
C293 C291 1.408 . S
C293 C292 1.310 . S
C293 H313 0.930 . S
C294 C295 1.474 . S
C294 C296 1.285 . S
C294 H314 0.929 . S
C295 C292 1.461 . S
C295 C294 1.474 . S
C296 C291 1.342 . S
C296 C294 1.285 . S
C296 H315 0.930 . S
C297 C300 1.424 1_545 S
C297 C302 1.245 . S
C297 C303 1.428 . S
C298 C301 1.260 . S
C298 C302 1.477 . S
C298 H316 0.932 . S
C299 C300 1.384 . S
C299 C301 1.479 1_565 S
C299 H317 0.929 . S
C300 C297 1.424 1_565 S
C300 C299 1.384 . S
C300 H318 0.928 . S
C301 C298 1.260 . S
C301 C299 1.479 1_545 S
C302 C297 1.245 . S
C302 C298 1.477 . S
C302 H319 0.932 . S
C303 U286 2.882 . S
C303 C297 1.428 . S
C303 O306 1.301 . S
C303 O307 1.282 1_545 S
O304 U286 2.441 1_565 S
O304 C290 1.249 . S
O305 U286 2.420 1_565 S
O305 C290 1.202 . S
O306 U286 2.455 . S
O306 C303 1.301 . S
O307 U286 2.449 1_565 S
O307 C303 1.282 1_565 S
H308 C281 0.931 . S
H309 C283 0.929 . S
H310 C284 0.930 . S
H311 C285 0.931 . S
H312 C292 0.932 . S
H313 C293 0.930 . S
H314 C294 0.929 . S
H315 C296 0.930 . S
H316 C298 0.932 . S
H317 C299 0.929 . S
H318 C300 0.928 . S
H319 C302 0.932 . S
C320 C321 1.264 . S
C320 C325 1.479 . S
C320 C330 1.465 . S
C321 C320 1.264 . S
C321 C323 1.339 . S
C321 H348 0.931 . S
C322 C323 1.395 . S
C322 C324 1.320 . S
C323 C321 1.339 . S
C323 C322 1.395 . S
C323 H349 0.929 . S
C324 C322 1.320 . S
C324 C325 1.405 . S
C324 H350 0.930 . S
C325 C320 1.479 . S
C325 C324 1.405 . S
C325 H351 0.931 . S
U326 O327 2.454 . S
U326 O328 2.458 . S
U326 C329 2.984 . S
U326 C330 2.847 . S
U326 C343 2.882 . S
U326 O344 2.441 . S
U326 O345 2.420 . S
U326 O346 2.455 . S
U326 O347 2.449 . S
O327 U326 2.454 . S
O327 C329 1.353 . S
O328 U326 2.458 . S
O328 C329 1.286 . S
C329 U326 2.984 . S
C329 O327 1.353 . S
C329 O328 1.286 . S
C329 C331 1.363 . S
C330 C320 1.465 . S
C330 U326 2.847 . S
C330 O344 1.249 . S
C330 O345 1.202 . S
C331 C329 1.363 . S
C331 C333 1.408 . S
C331 C336 1.342 . S
C332 C333 1.310 . S
C332 C335 1.461 . S
C332 H352 0.932 . S
C333 C331 1.408 . S
C333 C332 1.310 . S
C333 H353 0.930 . S
C334 C335 1.474 . S
C334 C336 1.285 . S
C334 H354 0.929 . S
C335 C332 1.461 . S
C335 C334 1.474 . S
C336 C331 1.342 . S
C336 C334 1.285 . S
C336 H355 0.930 . S
C337 C340 1.424 . S
C337 C342 1.245 . S
C337 C343 1.428 . S
C338 C341 1.260 . S
C338 C342 1.477 . S
C338 H356 0.932 . S
C339 C340 1.384 . S
C339 C341 1.479 . S
C339 H357 0.929 . S
C340 C337 1.424 . S
C340 C339 1.384 . S
C340 H358 0.928 . S
C341 C338 1.260 . S
C341 C339 1.479 . S
C342 C337 1.245 . S
C342 C338 1.477 . S
C342 H359 0.932 . S
C343 U326 2.882 . S
C343 C337 1.428 . S
C343 O346 1.301 . S
C343 O347 1.282 . S
O344 U326 2.441 . S
O344 C330 1.249 . S
O345 U326 2.420 . S
O345 C330 1.202 . S
O346 U326 2.455 . S
O346 C343 1.301 . S
O347 U326 2.449 . S
O347 C343 1.282 . S
H348 C321 0.931 . S
H349 C323 0.929 . S
H350 C324 0.930 . S
H351 C325 0.931 . S
H352 C332 0.932 . S
H353 C333 0.930 . S
H354 C334 0.929 . S
H355 C336 0.930 . S
H356 C338 0.932 . S
H357 C339 0.929 . S
H358 C340 0.928 . S
H359 C342 0.932 . S
C360 C361 1.349 . S
C360 C362 1.327 . S
C360 H385 0.950 . S
C361 C360 1.349 . S
C361 C377 1.349 . S
C362 C360 1.327 . S
C362 C381 1.429 . S
C362 H386 0.950 . S
C363 C380 1.574 . S
C363 C382 1.368 . S
C363 H387 0.949 . S
H364 C368 0.949 . S
C365 C366 1.349 . S
C365 C367 1.327 . S
C365 H388 0.950 . S
C366 C365 1.349 . S
C366 C378 1.349 . S
C367 C365 1.327 . S
C367 C383 1.429 . S
C367 H389 0.950 . S
C368 H364 0.949 . S
C368 C376 1.574 . S
C368 C384 1.368 . S
H369 C377 0.950 . S
H370 C375 0.950 . S
H371 C376 0.949 . S
H372 C378 0.950 . S
H373 C379 0.950 . S
H374 C380 0.949 . S
C375 H370 0.950 . S
C375 C377 1.327 . S
C375 C381 1.429 . S
C376 C368 1.574 . S
C376 H371 0.949 . S
C376 C382 1.368 . S
C377 C361 1.349 . S
C377 H369 0.950 . S
C377 C375 1.327 . S
C378 C366 1.349 . S
C378 H372 0.950 . S
C378 C379 1.327 . S
C379 H373 0.950 . S
C379 C378 1.327 . S
C379 C383 1.429 . S
C380 C363 1.574 . S
C380 H374 0.949 . S
C380 C384 1.368 . S
C381 C362 1.429 . S
C381 C375 1.429 . S
C381 C382 1.523 . S
C382 C363 1.368 . S
C382 C376 1.368 . S
C382 C381 1.523 . S
C383 C367 1.429 . S
C383 C379 1.429 . S
C383 C384 1.523 . S
C384 C368 1.368 . S
C384 C380 1.368 . S
C384 C383 1.523 . S
H385 C360 0.950 . S
H386 C362 0.950 . S
H387 C363 0.949 . S
H388 C365 0.950 . S
H389 C367 0.950 . S
C390 C391 1.349 . S
C390 C392 1.327 . S
C390 H415 0.950 . S
C391 C390 1.349 . S
C391 C407 1.349 . S
C392 C390 1.327 . S
C392 C411 1.429 . S
C392 H416 0.950 . S
C393 C410 1.574 . S
C393 C412 1.368 . S
C393 H417 0.949 . S
H394 C398 0.949 . S
C395 C396 1.349 . S
C395 C397 1.327 . S
C395 H418 0.950 . S
C396 C395 1.349 . S
C396 C408 1.349 . S
C397 C395 1.327 . S
C397 C413 1.429 . S
C397 H419 0.950 . S
C398 H394 0.949 . S
C398 C406 1.574 . S
C398 C414 1.368 . S
H399 C407 0.950 . S
H400 C405 0.950 . S
H401 C406 0.949 . S
H402 C408 0.950 . S
H403 C409 0.950 . S
H404 C410 0.949 . S
C405 H400 0.950 . S
C405 C407 1.327 . S
C405 C411 1.429 . S
C406 C398 1.574 . S
C406 H401 0.949 . S
C406 C412 1.368 . S
C407 C391 1.349 . S
C407 H399 0.950 . S
C407 C405 1.327 . S
C408 C396 1.349 . S
C408 H402 0.950 . S
C408 C409 1.327 . S
C409 H403 0.950 . S
C409 C408 1.327 . S
C409 C413 1.429 . S
C410 C393 1.574 . S
C410 H404 0.949 . S
C410 C414 1.368 . S
C411 C392 1.429 . S
C411 C405 1.429 . S
C411 C412 1.523 . S
C412 C393 1.368 . S
C412 C406 1.368 . S
C412 C411 1.523 . S
C413 C397 1.429 . S
C413 C409 1.429 . S
C413 C414 1.523 . S
C414 C398 1.368 . S
C414 C410 1.368 . S
C414 C413 1.523 . S
H415 C390 0.950 . S
H416 C392 0.950 . S
H417 C393 0.949 . S
H418 C395 0.950 . S
H419 C397 0.950 . S
C420 C421 1.349 . S
C420 C422 1.327 . S
C420 H445 0.950 . S
C421 C420 1.349 . S
C421 C437 1.349 . S
C422 C420 1.327 . S
C422 C441 1.429 . S
C422 H446 0.950 . S
C423 C440 1.574 . S
C423 C442 1.368 . S
C423 H447 0.949 . S
H424 C428 0.949 . S
C425 C426 1.349 . S
C425 C427 1.327 . S
C425 H448 0.950 . S
C426 C425 1.349 . S
C426 C438 1.349 . S
C427 C425 1.327 . S
C427 C443 1.429 . S
C427 H449 0.950 . S
C428 H424 0.949 . S
C428 C436 1.574 . S
C428 C444 1.368 . S
H429 C437 0.950 . S
H430 C435 0.950 . S
H431 C436 0.949 . S
H432 C438 0.950 . S
H433 C439 0.950 . S
H434 C440 0.949 . S
C435 H430 0.950 . S
C435 C437 1.327 . S
C435 C441 1.429 . S
C436 C428 1.574 . S
C436 H431 0.949 . S
C436 C442 1.368 . S
C437 C421 1.349 . S
C437 H429 0.950 . S
C437 C435 1.327 . S
C438 C426 1.349 . S
C438 H432 0.950 . S
C438 C439 1.327 . S
C439 H433 0.950 . S
C439 C438 1.327 . S
C439 C443 1.429 . S
C440 C423 1.574 . S
C440 H434 0.949 . S
C440 C444 1.368 . S
C441 C422 1.429 . S
C441 C435 1.429 . S
C441 C442 1.523 . S
C442 C423 1.368 . S
C442 C436 1.368 . S
C442 C441 1.523 . S
C443 C427 1.429 . S
C443 C439 1.429 . S
C443 C444 1.523 . S
C444 C428 1.368 . S
C444 C440 1.368 . S
C444 C443 1.523 . S
H445 C420 0.950 . S
H446 C422 0.950 . S
H447 C423 0.949 . S
H448 C425 0.950 . S
H449 C427 0.950 . S
C450 C451 1.349 . S
C450 C452 1.327 . S
C450 H475 0.950 . S
C451 C450 1.349 . S
C451 C467 1.349 . S
C452 C450 1.327 . S
C452 C471 1.429 . S
C452 H476 0.950 . S
C453 C470 1.574 . S
C453 C472 1.368 . S
C453 H477 0.949 . S
H454 C458 0.949 . S
C455 C456 1.349 . S
C455 C457 1.327 . S
C455 H478 0.950 . S
C456 C455 1.349 . S
C456 C468 1.349 . S
C457 C455 1.327 . S
C457 C473 1.429 . S
C457 H479 0.950 . S
C458 H454 0.949 . S
C458 C466 1.574 . S
C458 C474 1.368 . S
H459 C467 0.950 . S
H460 C465 0.950 . S
H461 C466 0.949 . S
H462 C468 0.950 . S
H463 C469 0.950 . S
H464 C470 0.949 . S
C465 H460 0.950 . S
C465 C467 1.327 . S
C465 C471 1.429 . S
C466 C458 1.574 . S
C466 H461 0.949 . S
C466 C472 1.368 . S
C467 C451 1.349 . S
C467 H459 0.950 . S
C467 C465 1.327 . S
C468 C456 1.349 . S
C468 H462 0.950 . S
C468 C469 1.327 . S
C469 H463 0.950 . S
C469 C468 1.327 . S
C469 C473 1.429 . S
C470 C453 1.574 . S
C470 H464 0.949 . S
C470 C474 1.368 . S
C471 C452 1.429 . S
C471 C465 1.429 . S
C471 C472 1.523 . S
C472 C453 1.368 . S
C472 C466 1.368 . S
C472 C471 1.523 . S
C473 C457 1.429 . S
C473 C469 1.429 . S
C473 C474 1.523 . S
C474 C458 1.368 . S
C474 C470 1.368 . S
C474 C473 1.523 . S
H475 C450 0.950 . S
H476 C452 0.950 . S
H477 C453 0.949 . S
H478 C455 0.950 . S
H479 C457 0.950 . S
C480 C481 1.349 . S
C480 C482 1.327 . S
C480 H505 0.950 . S
C481 C480 1.349 . S
C481 C497 1.349 . S
C482 C480 1.327 . S
C482 C501 1.429 . S
C482 H506 0.950 . S
C483 C500 1.574 . S
C483 C502 1.368 . S
C483 H507 0.949 . S
H484 C488 0.949 . S
C485 C486 1.349 . S
C485 C487 1.327 . S
C485 H508 0.950 . S
C486 C485 1.349 . S
C486 C498 1.349 . S
C487 C485 1.327 . S
C487 C503 1.429 . S
C487 H509 0.950 . S
C488 H484 0.949 . S
C488 C496 1.574 . S
C488 C504 1.368 . S
H489 C497 0.950 . S
H490 C495 0.950 . S
H491 C496 0.949 . S
H492 C498 0.950 . S
H493 C499 0.950 . S
H494 C500 0.949 . S
C495 H490 0.950 . S
C495 C497 1.327 . S
C495 C501 1.429 . S
C496 C488 1.574 . S
C496 H491 0.949 . S
C496 C502 1.368 . S
C497 C481 1.349 . S
C497 H489 0.950 . S
C497 C495 1.327 . S
C498 C486 1.349 . S
C498 H492 0.950 . S
C498 C499 1.327 . S
C499 H493 0.950 . S
C499 C498 1.327 . S
C499 C503 1.429 . S
C500 C483 1.574 . S
C500 H494 0.949 . S
C500 C504 1.368 . S
C501 C482 1.429 . S
C501 C495 1.429 . S
C501 C502 1.523 . S
C502 C483 1.368 . S
C502 C496 1.368 . S
C502 C501 1.523 . S
C503 C487 1.429 . S
C503 C499 1.429 . S
C503 C504 1.523 . S
C504 C488 1.368 . S
C504 C500 1.368 . S
C504 C503 1.523 . S
H505 C480 0.950 . S
H506 C482 0.950 . S
H507 C483 0.949 . S
H508 C485 0.950 . S
H509 C487 0.950 . S
C510 C511 1.349 . S
C510 C512 1.327 . S
C510 H535 0.950 . S
C511 C510 1.349 . S
C511 C527 1.349 . S
C512 C510 1.327 . S
C512 C531 1.429 . S
C512 H536 0.950 . S
C513 C530 1.574 . S
C513 C532 1.368 . S
C513 H537 0.949 . S
H514 C518 0.949 . S
C515 C516 1.349 . S
C515 C517 1.327 . S
C515 H538 0.950 . S
C516 C515 1.349 . S
C516 C528 1.349 . S
C517 C515 1.327 . S
C517 C533 1.429 . S
C517 H539 0.950 . S
C518 H514 0.949 . S
C518 C526 1.574 . S
C518 C534 1.368 . S
H519 C527 0.950 . S
H520 C525 0.950 . S
H521 C526 0.949 . S
H522 C528 0.950 . S
H523 C529 0.950 . S
H524 C530 0.949 . S
C525 H520 0.950 . S
C525 C527 1.327 . S
C525 C531 1.429 . S
C526 C518 1.574 . S
C526 H521 0.949 . S
C526 C532 1.368 . S
C527 C511 1.349 . S
C527 H519 0.950 . S
C527 C525 1.327 . S
C528 C516 1.349 . S
C528 H522 0.950 . S
C528 C529 1.327 . S
C529 H523 0.950 . S
C529 C528 1.327 . S
C529 C533 1.429 . S
C530 C513 1.574 . S
C530 H524 0.949 . S
C530 C534 1.368 . S
C531 C512 1.429 . S
C531 C525 1.429 . S
C531 C532 1.523 . S
C532 C513 1.368 . S
C532 C526 1.368 . S
C532 C531 1.523 . S
C533 C517 1.429 . S
C533 C529 1.429 . S
C533 C534 1.523 . S
C534 C518 1.368 . S
C534 C530 1.368 . S
C534 C533 1.523 . S
H535 C510 0.950 . S
H536 C512 0.950 . S
H537 C513 0.949 . S
H538 C515 0.950 . S
H539 C517 0.950 . S
C540 C541 1.349 . S
C540 C542 1.327 . S
C540 H565 0.950 . S
C541 C540 1.349 . S
C541 C557 1.349 . S
C542 C540 1.327 . S
C542 C561 1.429 . S
C542 H566 0.950 . S
C543 C560 1.574 . S
C543 C562 1.368 . S
C543 H567 0.949 . S
H544 C548 0.949 . S
C545 C546 1.349 . S
C545 C547 1.327 . S
C545 H568 0.950 . S
C546 C545 1.349 . S
C546 C558 1.349 . S
C547 C545 1.327 . S
C547 C563 1.429 . S
C547 H569 0.950 . S
C548 H544 0.949 . S
C548 C556 1.574 . S
C548 C564 1.368 . S
H549 C557 0.950 . S
H550 C555 0.950 . S
H551 C556 0.949 . S
H552 C558 0.950 . S
H553 C559 0.950 . S
H554 C560 0.949 . S
C555 H550 0.950 . S
C555 C557 1.327 . S
C555 C561 1.429 . S
C556 C548 1.574 . S
C556 H551 0.949 . S
C556 C562 1.368 . S
C557 C541 1.349 . S
C557 H549 0.950 . S
C557 C555 1.327 . S
C558 C546 1.349 . S
C558 H552 0.950 . S
C558 C559 1.327 . S
C559 H553 0.950 . S
C559 C558 1.327 . S
C559 C563 1.429 . S
C560 C543 1.574 . S
C560 H554 0.949 . S
C560 C564 1.368 . S
C561 C542 1.429 . S
C561 C555 1.429 . S
C561 C562 1.523 . S
C562 C543 1.368 . S
C562 C556 1.368 . S
C562 C561 1.523 . S
C563 C547 1.429 . S
C563 C559 1.429 . S
C563 C564 1.523 . S
C564 C548 1.368 . S
C564 C560 1.368 . S
C564 C563 1.523 . S
H565 C540 0.950 . S
H566 C542 0.950 . S
H567 C543 0.949 . S
H568 C545 0.950 . S
H569 C547 0.950 . S
C570 C571 1.349 . S
C570 C572 1.327 . S
C570 H595 0.950 . S
C571 C570 1.349 . S
C571 C587 1.349 . S
C572 C570 1.327 . S
C572 C591 1.429 . S
C572 H596 0.950 . S
C573 C590 1.574 . S
C573 C592 1.368 . S
C573 H597 0.949 . S
H574 C578 0.949 . S
C575 C576 1.349 . S
C575 C577 1.327 . S
C575 H598 0.950 . S
C576 C575 1.349 . S
C576 C588 1.349 . S
C577 C575 1.327 . S
C577 C593 1.429 . S
C577 H599 0.950 . S
C578 H574 0.949 . S
C578 C586 1.574 . S
C578 C594 1.368 . S
H579 C587 0.950 . S
H580 C585 0.950 . S
H581 C586 0.949 . S
H582 C588 0.950 . S
H583 C589 0.950 . S
H584 C590 0.949 . S
C585 H580 0.950 . S
C585 C587 1.327 . S
C585 C591 1.429 . S
C586 C578 1.574 . S
C586 H581 0.949 . S
C586 C592 1.368 . S
C587 C571 1.349 . S
C587 H579 0.950 . S
C587 C585 1.327 . S
C588 C576 1.349 . S
C588 H582 0.950 . S
C588 C589 1.327 . S
C589 H583 0.950 . S
C589 C588 1.327 . S
C589 C593 1.429 . S
C590 C573 1.574 . S
C590 H584 0.949 . S
C590 C594 1.368 . S
C591 C572 1.429 . S
C591 C585 1.429 . S
C591 C592 1.523 . S
C592 C573 1.368 . S
C592 C586 1.368 . S
C592 C591 1.523 . S
C593 C577 1.429 . S
C593 C589 1.429 . S
C593 C594 1.523 . S
C594 C578 1.368 . S
C594 C590 1.368 . S
C594 C593 1.523 . S
H595 C570 0.950 . S
H596 C572 0.950 . S
H597 C573 0.949 . S
H598 C575 0.950 . S
H599 C577 0.950 . S
C600 C601 1.349 . S
C600 C602 1.327 . S
C600 H625 0.950 . S
C601 C600 1.349 . S
C601 C617 1.349 . S
C602 C600 1.327 . S
C602 C621 1.429 . S
C602 H626 0.950 . S
C603 C620 1.574 . S
C603 C622 1.368 . S
C603 H627 0.949 . S
H604 C608 0.949 . S
C605 C606 1.349 . S
C605 C607 1.327 . S
C605 H628 0.950 . S
C606 C605 1.349 . S
C606 C618 1.349 . S
C607 C605 1.327 . S
C607 C623 1.429 . S
C607 H629 0.950 . S
C608 H604 0.949 . S
C608 C616 1.574 . S
C608 C624 1.368 . S
H609 C617 0.950 . S
H610 C615 0.950 . S
H611 C616 0.949 . S
H612 C618 0.950 . S
H613 C619 0.950 . S
H614 C620 0.949 . S
C615 H610 0.950 . S
C615 C617 1.327 . S
C615 C621 1.429 . S
C616 C608 1.574 . S
C616 H611 0.949 . S
C616 C622 1.368 . S
C617 C601 1.349 . S
C617 H609 0.950 . S
C617 C615 1.327 . S
C618 C606 1.349 . S
C618 H612 0.950 . S
C618 C619 1.327 . S
C619 H613 0.950 . S
C619 C618 1.327 . S
C619 C623 1.429 . S
C620 C603 1.574 . S
C620 H614 0.949 . S
C620 C624 1.368 . S
C621 C602 1.429 . S
C621 C615 1.429 . S
C621 C622 1.523 . S
C622 C603 1.368 . S
C622 C616 1.368 . S
C622 C621 1.523 . S
C623 C607 1.429 . S
C623 C619 1.429 . S
C623 C624 1.523 . S
C624 C608 1.368 . S
C624 C620 1.368 . S
C624 C623 1.523 . S
H625 C600 0.950 . S
H626 C602 0.950 . S
H627 C603 0.949 . S
H628 C605 0.950 . S
H629 C607 0.950 . S
C630 C631 1.349 . S
C630 C632 1.327 . S
C630 H655 0.950 . S
C631 C630 1.349 . S
C631 C647 1.349 . S
C632 C630 1.327 . S
C632 C651 1.429 . S
C632 H656 0.950 . S
C633 C650 1.574 . S
C633 C652 1.368 . S
C633 H657 0.949 . S
H634 C638 0.949 . S
C635 C636 1.349 . S
C635 C637 1.327 . S
C635 H658 0.950 . S
C636 C635 1.349 . S
C636 C648 1.349 . S
C637 C635 1.327 . S
C637 C653 1.429 . S
C637 H659 0.950 . S
C638 H634 0.949 . S
C638 C646 1.574 . S
C638 C654 1.368 . S
H639 C647 0.950 . S
H640 C645 0.950 . S
H641 C646 0.949 . S
H642 C648 0.950 . S
H643 C649 0.950 . S
H644 C650 0.949 . S
C645 H640 0.950 . S
C645 C647 1.327 . S
C645 C651 1.429 . S
C646 C638 1.574 . S
C646 H641 0.949 . S
C646 C652 1.368 . S
C647 C631 1.349 . S
C647 H639 0.950 . S
C647 C645 1.327 . S
C648 C636 1.349 . S
C648 H642 0.950 . S
C648 C649 1.327 . S
C649 H643 0.950 . S
C649 C648 1.327 . S
C649 C653 1.429 . S
C650 C633 1.574 . S
C650 H644 0.949 . S
C650 C654 1.368 . S
C651 C632 1.429 . S
C651 C645 1.429 . S
C651 C652 1.523 . S
C652 C633 1.368 . S
C652 C646 1.368 . S
C652 C651 1.523 . S
C653 C637 1.429 . S
C653 C649 1.429 . S
C653 C654 1.523 . S
C654 C638 1.368 . S
C654 C650 1.368 . S
C654 C653 1.523 . S
H655 C630 0.950 . S
H656 C632 0.950 . S
H657 C633 0.949 . S
H658 C635 0.950 . S
H659 C637 0.950 . S
C660 C661 1.349 . S
C660 C662 1.327 . S
C660 H685 0.950 . S
C661 C660 1.349 . S
C661 C677 1.349 . S
C662 C660 1.327 . S
C662 C681 1.429 . S
C662 H686 0.950 . S
C663 C680 1.574 . S
C663 C682 1.368 . S
C663 H687 0.949 . S
H664 C668 0.949 . S
C665 C666 1.349 . S
C665 C667 1.327 . S
C665 H688 0.950 . S
C666 C665 1.349 . S
C666 C678 1.349 . S
C667 C665 1.327 . S
C667 C683 1.429 . S
C667 H689 0.950 . S
C668 H664 0.949 . S
C668 C676 1.574 . S
C668 C684 1.368 . S
H669 C677 0.950 . S
H670 C675 0.950 . S
H671 C676 0.949 . S
H672 C678 0.950 . S
H673 C679 0.950 . S
H674 C680 0.949 . S
C675 H670 0.950 . S
C675 C677 1.327 . S
C675 C681 1.429 . S
C676 C668 1.574 . S
C676 H671 0.949 . S
C676 C682 1.368 . S
C677 C661 1.349 . S
C677 H669 0.950 . S
C677 C675 1.327 . S
C678 C666 1.349 . S
C678 H672 0.950 . S
C678 C679 1.327 . S
C679 H673 0.950 . S
C679 C678 1.327 . S
C679 C683 1.429 . S
C680 C663 1.574 . S
C680 H674 0.949 . S
C680 C684 1.368 . S
C681 C662 1.429 . S
C681 C675 1.429 . S
C681 C682 1.523 . S
C682 C663 1.368 . S
C682 C676 1.368 . S
C682 C681 1.523 . S
C683 C667 1.429 . S
C683 C679 1.429 . S
C683 C684 1.523 . S
C684 C668 1.368 . S
C684 C680 1.368 . S
C684 C683 1.523 . S
H685 C660 0.950 . S
H686 C662 0.950 . S
H687 C663 0.949 . S
H688 C665 0.950 . S
H689 C667 0.950 . S
C690 C691 1.349 . S
C690 C692 1.327 . S
C690 H715 0.950 . S
C691 C690 1.349 . S
C691 C707 1.349 . S
C692 C690 1.327 . S
C692 C711 1.429 . S
C692 H716 0.950 . S
C693 C710 1.574 . S
C693 C712 1.368 . S
C693 H717 0.949 . S
H694 C698 0.949 . S
C695 C696 1.349 . S
C695 C697 1.327 . S
C695 H718 0.950 . S
C696 C695 1.349 . S
C696 C708 1.349 . S
C697 C695 1.327 . S
C697 C713 1.429 . S
C697 H719 0.950 . S
C698 H694 0.949 . S
C698 C706 1.574 . S
C698 C714 1.368 . S
H699 C707 0.950 . S
H700 C705 0.950 . S
H701 C706 0.949 . S
H702 C708 0.950 . S
H703 C709 0.950 . S
H704 C710 0.949 . S
C705 H700 0.950 . S
C705 C707 1.327 . S
C705 C711 1.429 . S
C706 C698 1.574 . S
C706 H701 0.949 . S
C706 C712 1.368 . S
C707 C691 1.349 . S
C707 H699 0.950 . S
C707 C705 1.327 . S
C708 C696 1.349 . S
C708 H702 0.950 . S
C708 C709 1.327 . S
C709 H703 0.950 . S
C709 C708 1.327 . S
C709 C713 1.429 . S
C710 C693 1.574 . S
C710 H704 0.949 . S
C710 C714 1.368 . S
C711 C692 1.429 . S
C711 C705 1.429 . S
C711 C712 1.523 . S
C712 C693 1.368 . S
C712 C706 1.368 . S
C712 C711 1.523 . S
C713 C697 1.429 . S
C713 C709 1.429 . S
C713 C714 1.523 . S
C714 C698 1.368 . S
C714 C710 1.368 . S
C714 C713 1.523 . S
H715 C690 0.950 . S
H716 C692 0.950 . S
H717 C693 0.949 . S
H718 C695 0.950 . S
H719 C697 0.950 . S
C720 C721 1.349 1_655 S
C720 C722 1.327 . S
C720 H745 0.950 . S
C721 C720 1.349 1_455 S
C721 C737 1.349 . S
C722 C720 1.327 . S
C722 C741 1.429 1_655 S
C722 H746 0.950 . S
C723 C740 1.574 . S
C723 C742 1.368 . S
C723 H747 0.949 . S
H724 C728 0.949 1_655 S
C725 C726 1.348 . S
C725 C727 1.329 1_556 S
C725 H748 0.949 . S
C726 C725 1.348 . S
C726 C738 1.349 . S
C727 C725 1.329 1_554 S
C727 C743 1.429 . S
C727 H749 0.950 . S
C728 H724 0.949 1_455 S
C728 C736 1.574 1_455 S
C728 C744 1.368 . S
H729 C737 0.950 . S
H730 C735 0.950 . S
H731 C736 0.949 . S
H732 C738 0.950 1_655 S
H733 C739 0.950 1_655 S
H734 C740 0.949 . S
C735 H730 0.950 . S
C735 C737 1.327 . S
C735 C741 1.429 . S
C736 C728 1.574 1_655 S
C736 H731 0.949 . S
C736 C742 1.368 1_655 S
C737 C721 1.349 . S
C737 H729 0.950 . S
C737 C735 1.327 . S
C738 C726 1.349 . S
C738 H732 0.950 1_455 S
C738 C739 1.327 1_556 S
C739 H733 0.950 1_455 S
C739 C738 1.327 1_554 S
C739 C743 1.429 . S
C740 C723 1.574 . S
C740 H734 0.949 . S
C740 C744 1.368 . S
C741 C722 1.429 1_455 S
C741 C735 1.429 . S
C741 C742 1.523 . S
C742 C723 1.368 . S
C742 C736 1.368 1_455 S
C742 C741 1.523 . S
C743 C727 1.429 . S
C743 C739 1.429 . S
C743 C744 1.523 . S
C744 C728 1.368 . S
C744 C740 1.368 . S
C744 C743 1.523 . S
H745 C720 0.950 . S
H746 C722 0.950 . S
H747 C723 0.949 . S
H748 C725 0.949 . S
H749 C727 0.950 . S
C750 C751 1.349 . S
C750 C752 1.327 . S
C750 H775 0.950 . S
C751 C750 1.349 . S
C751 C767 1.349 . S
C752 C750 1.327 . S
C752 C771 1.429 . S
C752 H776 0.950 . S
C753 C770 1.574 . S
C753 C772 1.368 . S
C753 H777 0.949 . S
H754 C758 0.949 . S
C755 C756 1.349 . S
C755 C757 1.327 . S
C755 H778 0.950 . S
C756 C755 1.349 . S
C756 C768 1.349 . S
C757 C755 1.327 . S
C757 C773 1.429 . S
C757 H779 0.950 . S
C758 H754 0.949 . S
C758 C766 1.574 . S
C758 C774 1.368 . S
H759 C767 0.950 . S
H760 C765 0.950 . S
H761 C766 0.949 . S
H762 C768 0.950 . S
H763 C769 0.950 . S
H764 C770 0.949 . S
C765 H760 0.950 . S
C765 C767 1.327 . S
C765 C771 1.429 . S
C766 C758 1.574 . S
C766 H761 0.949 . S
C766 C772 1.368 . S
C767 C751 1.349 . S
C767 H759 0.950 . S
C767 C765 1.327 . S
C768 C756 1.349 . S
C768 H762 0.950 . S
C768 C769 1.327 . S
C769 H763 0.950 . S
C769 C768 1.327 . S
C769 C773 1.429 . S
C770 C753 1.574 . S
C770 H764 0.949 . S
C770 C774 1.368 . S
C771 C752 1.429 . S
C771 C765 1.429 . S
C771 C772 1.523 . S
C772 C753 1.368 . S
C772 C766 1.368 . S
C772 C771 1.523 . S
C773 C757 1.429 . S
C773 C769 1.429 . S
C773 C774 1.523 . S
C774 C758 1.368 . S
C774 C770 1.368 . S
C774 C773 1.523 . S
H775 C750 0.950 . S
H776 C752 0.950 . S
H777 C753 0.949 . S
H778 C755 0.950 . S
H779 C757 0.950 . S
C780 C781 1.349 . S
C780 C782 1.327 . S
C780 H805 0.950 . S
C781 C780 1.349 . S
C781 C797 1.349 . S
C782 C780 1.327 . S
C782 C801 1.429 . S
C782 H806 0.950 . S
C783 C800 1.574 . S
C783 C802 1.368 . S
C783 H807 0.949 . S
H784 C788 0.949 . S
C785 C786 1.349 . S
C785 C787 1.327 . S
C785 H808 0.950 . S
C786 C785 1.349 . S
C786 C798 1.349 . S
C787 C785 1.327 . S
C787 C803 1.429 . S
C787 H809 0.950 . S
C788 H784 0.949 . S
C788 C796 1.574 . S
C788 C804 1.368 . S
H789 C797 0.950 . S
H790 C795 0.950 . S
H791 C796 0.949 . S
H792 C798 0.950 . S
H793 C799 0.950 . S
H794 C800 0.949 . S
C795 H790 0.950 . S
C795 C797 1.327 . S
C795 C801 1.429 . S
C796 C788 1.574 . S
C796 H791 0.949 . S
C796 C802 1.368 . S
C797 C781 1.349 . S
C797 H789 0.950 . S
C797 C795 1.327 . S
C798 C786 1.349 . S
C798 H792 0.950 . S
C798 C799 1.327 . S
C799 H793 0.950 . S
C799 C798 1.327 . S
C799 C803 1.429 . S
C800 C783 1.574 . S
C800 H794 0.949 . S
C800 C804 1.368 . S
C801 C782 1.429 . S
C801 C795 1.429 . S
C801 C802 1.523 . S
C802 C783 1.368 . S
C802 C796 1.368 . S
C802 C801 1.523 . S
C803 C787 1.429 . S
C803 C799 1.429 . S
C803 C804 1.523 . S
C804 C788 1.368 . S
C804 C800 1.368 . S
C804 C803 1.523 . S
H805 C780 0.950 . S
H806 C782 0.950 . S
H807 C783 0.949 . S
H808 C785 0.950 . S
H809 C787 0.950 . S
C810 C811 1.345 1_565 S
C810 C812 1.327 . S
C810 H835 0.954 . S
C811 C810 1.345 1_545 S
C811 C827 1.349 . S
C812 C810 1.327 . S
C812 C831 1.429 1_565 S
C812 H836 0.950 . S
C813 C830 1.574 . S
C813 C832 1.368 . S
C813 H837 0.949 . S
H814 C818 0.949 . S
C815 C816 1.349 . S
C815 C817 1.327 . S
C815 H838 0.950 . S
C816 C815 1.349 . S
C816 C828 1.349 1_545 S
C817 C815 1.327 . S
C817 C833 1.429 . S
C817 H839 0.950 . S
C818 H814 0.949 . S
C818 C826 1.574 . S
C818 C834 1.368 1_565 S
H819 C827 0.950 . S
H820 C825 0.950 . S
H821 C826 0.949 . S
H822 C828 0.950 . S
H823 C829 0.950 . S
H824 C830 0.949 . S
C825 H820 0.950 . S
C825 C827 1.327 . S
C825 C831 1.429 . S
C826 C818 1.574 . S
C826 H821 0.949 . S
C826 C832 1.368 1_565 S
C827 C811 1.349 . S
C827 H819 0.950 . S
C827 C825 1.327 . S
C828 C816 1.349 1_565 S
C828 H822 0.950 . S
C828 C829 1.327 . S
C829 H823 0.950 . S
C829 C828 1.327 . S
C829 C833 1.429 1_565 S
C830 C813 1.574 . S
C830 H824 0.949 . S
C830 C834 1.368 . S
C831 C812 1.429 1_545 S
C831 C825 1.429 . S
C831 C832 1.523 . S
C832 C813 1.368 . S
C832 C826 1.368 1_545 S
C832 C831 1.523 . S
C833 C817 1.429 . S
C833 C829 1.429 1_545 S
C833 C834 1.523 . S
C834 C818 1.368 1_545 S
C834 C830 1.368 . S
C834 C833 1.523 . S
H835 C810 0.954 . S
H836 C812 0.950 . S
H837 C813 0.949 . S
H838 C815 0.950 . S
H839 C817 0.950 . S
C840 C841 1.349 . S
C840 C842 1.327 . S
C840 H865 0.950 . S
C841 C840 1.349 . S
C841 C857 1.349 . S
C842 C840 1.327 . S
C842 C861 1.429 . S
C842 H866 0.950 . S
C843 C860 1.574 . S
C843 C862 1.368 . S
C843 H867 0.949 . S
H844 C848 0.949 . S
C845 C846 1.349 1_556 S
C845 C847 1.327 . S
C845 H868 0.918 1_556 S
C846 C845 1.349 1_554 S
C846 C858 1.349 1_554 S
C847 C845 1.327 . S
C847 C863 1.429 . S
C847 H869 0.950 . S
C848 H844 0.949 . S
C848 C856 1.574 . S
C848 C864 1.368 . S
H849 C857 0.950 . S
H850 C855 0.950 . S
H851 C856 0.949 . S
H852 C858 0.950 1_554 S
H853 C859 0.950 . S
H854 C860 0.949 . S
C855 H850 0.950 . S
C855 C857 1.327 . S
C855 C861 1.429 . S
C856 C848 1.574 . S
C856 H851 0.949 . S
C856 C862 1.368 . S
C857 C841 1.349 . S
C857 H849 0.950 . S
C857 C855 1.327 . S
C858 C846 1.349 1_556 S
C858 H852 0.950 1_556 S
C858 C859 1.327 . S
C859 H853 0.950 . S
C859 C858 1.327 . S
C859 C863 1.429 . S
C860 C843 1.574 . S
C860 H854 0.949 . S
C860 C864 1.368 . S
C861 C842 1.429 . S
C861 C855 1.429 . S
C861 C862 1.523 . S
C862 C843 1.368 . S
C862 C856 1.368 . S
C862 C861 1.523 . S
C863 C847 1.429 . S
C863 C859 1.429 . S
C863 C864 1.523 . S
C864 C848 1.368 . S
C864 C860 1.368 . S
C864 C863 1.523 . S
H865 C840 0.950 . S
H866 C842 0.950 . S
H867 C843 0.949 . S
H868 C845 0.918 1_554 S
H869 C847 0.950 . S
C870 C871 1.349 . S
C870 C872 1.327 . S
C870 H895 0.950 . S
C871 C870 1.349 . S
C871 C887 1.349 . S
C872 C870 1.327 . S
C872 C891 1.429 . S
C872 H896 0.950 . S
C873 C890 1.574 . S
C873 C892 1.368 1_655 S
C873 H897 0.949 . S
H874 C878 0.949 . S
C875 C876 1.366 . S
C875 C877 1.327 . S
C875 H898 0.950 . S
C876 C875 1.366 . S
C876 C888 1.328 1_655 S
C877 C875 1.327 . S
C877 C893 1.408 1_655 S
C877 H899 0.950 . S
C878 H874 0.949 . S
C878 C886 1.574 . S
C878 C894 1.368 . S
H879 C887 0.950 1_655 S
H880 C885 0.936 1_655 S
H881 C886 0.949 . S
H882 C888 0.950 . S
H883 C889 0.950 . S
H884 C890 0.949 . S
C885 H880 0.936 1_455 S
C885 C887 1.331 . S
C885 C891 1.439 . S
C886 C878 1.574 . S
C886 H881 0.949 . S
C886 C892 1.368 . S
C887 C871 1.349 . S
C887 H879 0.950 1_455 S
C887 C885 1.331 . S
C888 C876 1.328 1_455 S
C888 H882 0.950 . S
C888 C889 1.327 . S
C889 H883 0.950 . S
C889 C888 1.327 . S
C889 C893 1.445 . S
C890 C873 1.574 . S
C890 H884 0.949 . S
C890 C894 1.368 1_655 S
C891 C872 1.429 . S
C891 C885 1.439 . S
C891 C892 1.523 . S
C892 C873 1.368 1_455 S
C892 C886 1.368 . S
C892 C891 1.523 . S
C893 C877 1.408 1_455 S
C893 C889 1.445 . S
C893 C894 1.528 . S
C894 C878 1.368 . S
C894 C890 1.368 1_455 S
C894 C893 1.528 . S
H895 C870 0.950 . S
H896 C872 0.950 . S
H897 C873 0.949 . S
H898 C875 0.950 . S
H899 C877 0.950 . S
C361 C24 2.884 . S
C366 C335 2.841 . S
C391 C66 1.019 . S
C396 C242 1.032 . S
C421 C93 1.760 . S
C426 C282 1.738 . S
C451 C13 3.062 . S
C456 C322 3.023 . S
C486 C255 1.258 . S
C481 C57 1.274 . S
C516 C295 1.937 . S
C511 C104 1.985 . S
C541 C64 1.942 . S
C546 C162 1.902 . S
C571 C97 0.350 . S
C576 C202 0.418 . S
C601 C17 1.230 . S
C606 C135 1.223 . S
C636 C175 1.755 . S
C631 C53 1.796 . S
C666 C215 0.181 . S
C661 C106 0.270 . S
C691 C26 1.038 . S
C696 C122 1.047 . S
C726 C221 1.099 . S
C721 C2 1.098 . S
C751 C63 1.473 . S
C756 C141 1.507 . S
C781 C82 1.375 . S
C786 C181 1.380 . S
C816 C301 1.413 . S
C811 C42 1.397 . S
C846 C341 1.756 . S
C841 C103 1.726 . S
C871 C23 1.481 . S
C876 C261 1.517 . S
