# Generated by pormake.
# Topology ctn, (3,4)-cn, num edge types: 1
# Building blocks:
#     Node 0, Type 0, BuildingBlock: OLANEW_clean_sbu_2, # of connection points: 3
#     Node 1, Type 0, BuildingBlock: OLANEW_clean_sbu_2, # of connection points: 3
#     Node 2, Type 0, BuildingBlock: OLANEW_clean_sbu_2, # of connection points: 3
#     Node 3, Type 0, BuildingBlock: OLANEW_clean_sbu_2, # of connection points: 3
#     Node 4, Type 0, BuildingBlock: OLANEW_clean_sbu_2, # of connection points: 3
#     Node 5, Type 0, BuildingBlock: OLANEW_clean_sbu_2, # of connection points: 3
#     Node 6, Type 0, BuildingBlock: OLANEW_clean_sbu_2, # of connection points: 3
#     Node 7, Type 0, BuildingBlock: OLANEW_clean_sbu_2, # of connection points: 3
#     Node 8, Type 0, BuildingBlock: OLANEW_clean_sbu_2, # of connection points: 3
#     Node 9, Type 0, BuildingBlock: OLANEW_clean_sbu_2, # of connection points: 3
#     Node 10, Type 0, BuildingBlock: OLANEW_clean_sbu_2, # of connection points: 3
#     Node 11, Type 0, BuildingBlock: OLANEW_clean_sbu_2, # of connection points: 3
#     Node 12, Type 0, BuildingBlock: OLANEW_clean_sbu_2, # of connection points: 3
#     Node 13, Type 0, BuildingBlock: OLANEW_clean_sbu_2, # of connection points: 3
#     Node 14, Type 0, BuildingBlock: OLANEW_clean_sbu_2, # of connection points: 3
#     Node 15, Type 0, BuildingBlock: OLANEW_clean_sbu_2, # of connection points: 3
#     Node 16, Type 1, BuildingBlock: UXUYUI_clean_sbu_0, # of connection points: 4
#     Node 17, Type 1, BuildingBlock: UXUYUI_clean_sbu_0, # of connection points: 4
#     Node 18, Type 1, BuildingBlock: UXUYUI_clean_sbu_0, # of connection points: 4
#     Node 19, Type 1, BuildingBlock: UXUYUI_clean_sbu_0, # of connection points: 4
#     Node 20, Type 1, BuildingBlock: UXUYUI_clean_sbu_0, # of connection points: 4
#     Node 21, Type 1, BuildingBlock: UXUYUI_clean_sbu_0, # of connection points: 4
#     Node 22, Type 1, BuildingBlock: UXUYUI_clean_sbu_0, # of connection points: 4
#     Node 23, Type 1, BuildingBlock: UXUYUI_clean_sbu_0, # of connection points: 4
#     Node 24, Type 1, BuildingBlock: UXUYUI_clean_sbu_0, # of connection points: 4
#     Node 25, Type 1, BuildingBlock: UXUYUI_clean_sbu_0, # of connection points: 4
#     Node 26, Type 1, BuildingBlock: UXUYUI_clean_sbu_0, # of connection points: 4
#     Node 27, Type 1, BuildingBlock: UXUYUI_clean_sbu_0, # of connection points: 4
#     Edge 28, Type (0, 1), None
#     Edge 29, Type (0, 1), None
#     Edge 30, Type (0, 1), None
#     Edge 31, Type (0, 1), None
#     Edge 32, Type (0, 1), None
#     Edge 33, Type (0, 1), None
#     Edge 34, Type (0, 1), None
#     Edge 35, Type (0, 1), None
#     Edge 36, Type (0, 1), None
#     Edge 37, Type (0, 1), None
#     Edge 38, Type (0, 1), None
#     Edge 39, Type (0, 1), None
#     Edge 40, Type (0, 1), None
#     Edge 41, Type (0, 1), None
#     Edge 42, Type (0, 1), None
#     Edge 43, Type (0, 1), None
#     Edge 44, Type (0, 1), None
#     Edge 45, Type (0, 1), None
#     Edge 46, Type (0, 1), None
#     Edge 47, Type (0, 1), None
#     Edge 48, Type (0, 1), None
#     Edge 49, Type (0, 1), None
#     Edge 50, Type (0, 1), None
#     Edge 51, Type (0, 1), None
#     Edge 52, Type (0, 1), None
#     Edge 53, Type (0, 1), None
#     Edge 54, Type (0, 1), None
#     Edge 55, Type (0, 1), None
#     Edge 56, Type (0, 1), None
#     Edge 57, Type (0, 1), None
#     Edge 58, Type (0, 1), None
#     Edge 59, Type (0, 1), None
#     Edge 60, Type (0, 1), None
#     Edge 61, Type (0, 1), None
#     Edge 62, Type (0, 1), None
#     Edge 63, Type (0, 1), None
#     Edge 64, Type (0, 1), None
#     Edge 65, Type (0, 1), None
#     Edge 66, Type (0, 1), None
#     Edge 67, Type (0, 1), None
#     Edge 68, Type (0, 1), None
#     Edge 69, Type (0, 1), None
#     Edge 70, Type (0, 1), None
#     Edge 71, Type (0, 1), None
#     Edge 72, Type (0, 1), None
#     Edge 73, Type (0, 1), None
#     Edge 74, Type (0, 1), None
#     Edge 75, Type (0, 1), None
# Relax obj value: 0.058
# Max RMSD: 0.160
# Mean RMSD: 0.096
data_MOF--net-ctn--node1-OLANEW_clean_sbu_2--node2-UXUYUI_clean_sbu_0--edge1-none
_symmetry_space_group_name_H-M    P1
_symmetry_Int_Tables_number       1
_symmetry_cell_setting            triclinic
loop_
_symmetry_equiv_pos_as_xyz
'x, y, z'
_cell_length_a     40.663954
_cell_length_b     41.743583
_cell_length_c     39.324405
_cell_angle_alpha  91.38664
_cell_angle_beta   94.920127
_cell_angle_gamma 96.368578
loop_
_atom_site_label
_atom_site_type_symbol
_atom_site_fract_x
_atom_site_fract_y
_atom_site_fract_z
_atom_type_partial_charge
O0 O 0.04009 0.05793 0.94788 0.0
Cd1 Cd 0.0382 0.00852 0.98065 0.0
O2 O 0.0246 0.07595 0.99575 0.0
Cd3 Cd 0.00492 0.10745 0.03218 0.0
O4 O 0.98228 0.10657 0.08057 0.0
C5 C 0.95238 0.09411 0.08138 0.0
O6 O 0.93488 0.08466 0.05253 0.0
C7 C 0.03173 0.0812 0.96541 0.0
C8 C 0.0953 0.97695 0.98646 0.0
O9 O 0.07079 0.96699 0.96469 0.0
O10 O 0.09324 0.00232 0.00482 0.0
O11 O 0.34392 0.75332 0.25548 0.0
Cd12 Cd 0.28692 0.75128 0.22905 0.0
O13 O 0.32718 0.71712 0.29193 0.0
Cd14 Cd 0.27617 0.70493 0.27017 0.0
O15 O 0.23461 0.66711 0.26898 0.0
C16 C 0.23223 0.6525 0.2968 0.0
O17 O 0.25321 0.66227 0.32326 0.0
C18 C 0.35016 0.73635 0.28116 0.0
C19 C 0.27925 0.79289 0.17517 0.0
O20 O 0.27545 0.80214 0.20576 0.0
O21 O 0.28705 0.76431 0.17033 0.0
O22 O 0.97949 0.48065 0.13071 0.0
Cd23 Cd 0.94668 0.47308 0.0754 0.0
O24 O 0.01752 0.45105 0.11485 0.0
Cd25 Cd 0.994 0.4334 0.0651 0.0
O26 O 0.99265 0.39862 0.02254 0.0
C27 C 0.00216 0.37132 0.0295 0.0
O28 O 0.01089 0.36534 0.06147 0.0
C29 C 0.00686 0.46896 0.13708 0.0
C30 C 0.90089 0.51812 0.06611 0.0
O31 O 0.89284 0.49071 0.07891 0.0
O32 O 0.93067 0.52435 0.0578 0.0
O33 O 0.78115 0.85718 0.21101 0.0
Cd34 Cd 0.73888 0.81018 0.20764 0.0
O35 O 0.77669 0.86448 0.26598 0.0
Cd36 Cd 0.73607 0.8262 0.27002 0.0
O37 O 0.69041 0.80083 0.28638 0.0
C38 C 0.67498 0.81633 0.30692 0.0
O39 O 0.68719 0.84593 0.31664 0.0
C40 C 0.79017 0.87284 0.23904 0.0
C41 C 0.74936 0.76138 0.16124 0.0
O42 O 0.73392 0.78525 0.15174 0.0
O43 O 0.76034 0.76073 0.19274 0.0
O44 O 0.1156 0.97981 0.52287 0.0
Cd45 Cd 0.06395 0.94427 0.50763 0.0
O46 O 0.08939 0.00873 0.48658 0.0
Cd47 Cd 0.08115 0.04694 0.45116 0.0
O48 O 0.04942 0.05818 0.40664 0.0
C49 C 0.04663 0.03835 0.38123 0.0
O50 O 0.06472 0.01413 0.38231 0.0
C51 C 0.11503 0.00564 0.50652 0.0
C52 C 0.04516 0.89785 0.55403 0.0
O53 O 0.06316 0.89155 0.53004 0.0
O54 O 0.0368 0.92647 0.55669 0.0
O55 O 0.26511 0.71206 0.92147 0.0
Cd56 Cd 0.2523 0.65543 0.90359 0.0
O57 O 0.21869 0.72008 0.89254 0.0
Cd58 Cd 0.17614 0.74471 0.87502 0.0
O59 O 0.13308 0.75375 0.84137 0.0
C60 C 0.1384 0.76141 0.81111 0.0
O61 O 0.16916 0.76506 0.80271 0.0
C62 C 0.24417 0.73119 0.912 0.0
C63 C 0.29302 0.63421 0.85647 0.0
O64 O 0.30192 0.63545 0.88859 0.0
O65 O 0.26495 0.64364 0.84644 0.0
O66 O 0.98257 0.55313 0.44852 0.0
Cd67 Cd 0.94735 0.56829 0.49215 0.0
O68 O 0.01511 0.52807 0.48388 0.0
Cd69 Cd 0.99564 0.54962 0.52813 0.0
O70 O 0.98872 0.58677 0.56632 0.0
C71 C 0.98752 0.6153 0.55605 0.0
O72 O 0.98963 0.62063 0.52346 0.0
C73 C 0.00623 0.53581 0.45366 0.0
C74 C 0.89544 0.5197 0.49798 0.0
O75 O 0.8926 0.54207 0.47652 0.0
O76 O 0.9228 0.52044 0.51694 0.0
O77 O 0.78511 0.74055 0.85165 0.0
Cd78 Cd 0.78626 0.78102 0.80754 0.0
O79 O 0.77296 0.77534 0.89037 0.0
Cd80 Cd 0.7645 0.81537 0.85713 0.0
O81 O 0.74001 0.85785 0.84295 0.0
C82 C 0.70843 0.85461 0.83941 0.0
O83 O 0.69236 0.82593 0.8428 0.0
C84 C 0.77989 0.74731 0.88229 0.0
C85 C 0.84077 0.77859 0.76916 0.0
O86 O 0.84322 0.7954 0.79716 0.0
O87 O 0.81251 0.76298 0.7592 0.0
O88 O 0.28509 0.24055 0.35164 0.0
Cd89 Cd 0.28623 0.28102 0.30753 0.0
O90 O 0.27296 0.27535 0.39036 0.0
Cd91 Cd 0.26451 0.31538 0.35713 0.0
O92 O 0.24001 0.35786 0.34295 0.0
C93 C 0.20843 0.35461 0.33941 0.0
O94 O 0.19236 0.32594 0.3428 0.0
C95 C 0.27988 0.24732 0.38229 0.0
C96 C 0.34075 0.27859 0.26914 0.0
O97 O 0.34319 0.2954 0.29714 0.0
O98 O 0.31248 0.26298 0.25919 0.0
O99 O 0.47949 0.98065 0.63071 0.0
Cd100 Cd 0.44668 0.97308 0.57539 0.0
O101 O 0.51751 0.95104 0.61485 0.0
Cd102 Cd 0.49399 0.9334 0.5651 0.0
O103 O 0.49265 0.89862 0.52254 0.0
C104 C 0.50215 0.87131 0.5295 0.0
O105 O 0.51086 0.86533 0.56147 0.0
C106 C 0.50685 0.96895 0.63707 0.0
C107 C 0.40089 0.01813 0.5661 0.0
O108 O 0.39284 0.99071 0.5789 0.0
O109 O 0.43067 0.02436 0.5578 0.0
O110 O 0.28114 0.35719 0.71102 0.0
Cd111 Cd 0.23887 0.31019 0.70764 0.0
O112 O 0.27666 0.3645 0.76598 0.0
Cd113 Cd 0.23605 0.32622 0.77002 0.0
O114 O 0.19038 0.30084 0.78638 0.0
C115 C 0.17495 0.31635 0.80692 0.0
O116 O 0.18715 0.34594 0.81663 0.0
C117 C 0.29015 0.37285 0.73904 0.0
C118 C 0.24936 0.26139 0.66125 0.0
O119 O 0.23392 0.28526 0.65174 0.0
O120 O 0.26034 0.26074 0.69274 0.0
O121 O 0.84395 0.25324 0.7554 0.0
Cd122 Cd 0.78696 0.25117 0.72892 0.0
O123 O 0.82717 0.21713 0.79192 0.0
Cd124 Cd 0.77617 0.20492 0.77014 0.0
O125 O 0.73461 0.16709 0.76895 0.0
C126 C 0.73223 0.15249 0.79677 0.0
O127 O 0.75321 0.16226 0.82324 0.0
C128 C 0.85017 0.23632 0.78113 0.0
C129 C 0.7793 0.29282 0.67507 0.0
O130 O 0.77546 0.30204 0.70567 0.0
O131 O 0.78713 0.26425 0.67022 0.0
O132 O 0.5401 0.55795 0.44791 0.0
Cd133 Cd 0.53822 0.50854 0.48069 0.0
O134 O 0.52459 0.57597 0.49577 0.0
Cd135 Cd 0.5049 0.60747 0.53218 0.0
O136 O 0.48226 0.60659 0.58057 0.0
C137 C 0.45235 0.59414 0.58138 0.0
O138 O 0.43486 0.58468 0.55253 0.0
C139 C 0.53173 0.58121 0.46543 0.0
C140 C 0.59531 0.47696 0.48649 0.0
O141 O 0.5708 0.46701 0.46473 0.0
O142 O 0.59327 0.50234 0.50485 0.0
O143 O 0.6156 0.47979 0.02287 0.0
Cd144 Cd 0.56395 0.44425 0.00762 0.0
O145 O 0.58939 0.50871 0.98658 0.0
Cd146 Cd 0.58114 0.54692 0.95116 0.0
O147 O 0.54942 0.55817 0.90664 0.0
C148 C 0.54662 0.53835 0.88123 0.0
O149 O 0.56471 0.51412 0.8823 0.0
C150 C 0.61502 0.50562 0.00652 0.0
C151 C 0.54515 0.39783 0.05402 0.0
O152 O 0.56315 0.39154 0.03003 0.0
O153 O 0.53679 0.42645 0.05667 0.0
O154 O 0.76512 0.21209 0.42139 0.0
Cd155 Cd 0.7523 0.15546 0.40352 0.0
O156 O 0.71868 0.22011 0.39251 0.0
Cd157 Cd 0.67611 0.24473 0.37502 0.0
O158 O 0.63305 0.25376 0.34137 0.0
C159 C 0.63837 0.26141 0.31111 0.0
O160 O 0.66912 0.26507 0.30271 0.0
C161 C 0.74418 0.23122 0.41194 0.0
C162 C 0.79302 0.13422 0.35643 0.0
O163 O 0.80192 0.13547 0.38854 0.0
O164 O 0.76496 0.14366 0.34639 0.0
O165 O 0.48256 0.05311 0.94852 0.0
Cd166 Cd 0.44735 0.06825 0.99216 0.0
O167 O 0.51512 0.02806 0.98388 0.0
Cd168 Cd 0.49564 0.04961 0.02814 0.0
O169 O 0.48872 0.08676 0.06632 0.0
C170 C 0.48752 0.11529 0.05604 0.0
O171 O 0.48962 0.12061 0.02346 0.0
C172 C 0.50623 0.0358 0.95366 0.0
C173 C 0.39544 0.01966 0.99799 0.0
O174 O 0.39259 0.04204 0.97655 0.0
O175 O 0.42281 0.02039 0.01693 0.0
Li176 Li 0.28004 0.91301 0.00926 0.0
Li177 Li 0.25457 0.87361 0.04835 0.0
Li178 Li 0.25058 0.86272 0.98684 0.0
Li179 Li 0.21846 0.90341 0.00705 0.0
C180 C 0.32194 0.86522 0.01166 0.0
N181 N 0.38578 0.85741 0.99679 0.0
C182 C 0.3463 0.86102 0.03795 0.0
C183 C 0.32993 0.86519 0.97783 0.0
C184 C 0.37848 0.85719 0.02991 0.0
C185 C 0.36237 0.86127 0.97082 0.0
C186 C 0.23553 0.93127 0.07374 0.0
C187 C 0.18856 0.92637 0.10754 0.0
N188 N 0.20307 0.95186 0.12773 0.0
C189 C 0.24993 0.95746 0.09476 0.0
C190 C 0.20457 0.91557 0.08013 0.0
C191 C 0.23315 0.96748 0.12196 0.0
C192 C 0.31364 0.96686 0.98066 0.0
N193 N 0.31623 0.94521 0.00572 0.0
C194 C 0.36989 0.97099 0.02637 0.0
C195 C 0.34347 0.94692 0.02856 0.0
C196 C 0.36796 0.99372 0.0007 0.0
C197 C 0.33934 0.99146 0.97766 0.0
H198 H 0.29146 0.96518 0.96316 0.0
H199 H 0.34455 0.92974 0.04865 0.0
C200 C 0.27389 0.82347 0.08561 0.0
N201 N 0.26192 0.85223 0.0903 0.0
C202 C 0.28001 0.80392 0.11311 0.0
C203 C 0.26251 0.84437 0.15043 0.0
C204 C 0.25659 0.8632 0.12201 0.0
C205 C 0.27408 0.81414 0.14604 0.0
H206 H 0.27825 0.81548 0.06023 0.0
H207 H 0.24769 0.88637 0.12542 0.0
C208 C 0.24154 0.90478 0.93416 0.0
N209 N 0.23018 0.90208 0.86379 0.0
C210 C 0.20905 0.90146 0.91864 0.0
C211 C 0.26825 0.90734 0.91389 0.0
C212 C 0.20382 0.9 0.88303 0.0
C213 C 0.26199 0.90572 0.87836 0.0
C214 C 0.19717 0.82814 0.007 0.0
C215 C 0.17872 0.82526 0.97518 0.0
C216 C 0.19884 0.80099 0.02691 0.0
C217 C 0.16276 0.79514 0.96353 0.0
C218 C 0.1825 0.77129 0.0144 0.0
N219 N 0.165 0.76899 0.9832 0.0
C220 C 0.26578 0.80171 0.9741 0.0
C221 C 0.23673 0.8203 0.925 0.0
C222 C 0.26462 0.7711 0.95898 0.0
N223 N 0.25153 0.82546 0.95736 0.0
C224 C 0.23474 0.78975 0.90892 0.0
C225 C 0.24814 0.76455 0.92638 0.0
H226 H 0.27691 0.80616 -7e-05 0.0
H227 H 0.22513 0.8392 0.91219 0.0
C228 C 0.18306 0.9575 0.00808 0.0
N229 N 0.17957 0.9252 0.00086 0.0
C230 C 0.15569 0.97496 0.00377 0.0
C231 C 0.12184 0.92584 0.98349 0.0
C232 C 0.14966 0.90916 0.98911 0.0
C233 C 0.12469 0.95912 0.99102 0.0
H234 H 0.20717 0.96968 0.01728 0.0
H235 H 0.14737 0.88349 0.98391 0.0
O236 O 0.29035 0.86905 0.01913 0.0
O237 O 0.25154 0.92158 0.04673 0.0
O238 O 0.24716 0.90674 0.96898 0.0
O239 O 0.21365 0.8573 0.01853 0.0
H240 H 0.34043 0.86088 0.06428 0.0
H241 H 0.31124 0.86791 0.95721 0.0
H242 H 0.39763 0.85403 0.04999 0.0
H243 H 0.36892 0.86123 0.94473 0.0
H244 H 0.16461 0.91446 0.11279 0.0
H245 H 0.27382 0.96992 0.09005 0.0
H246 H 0.193 0.89526 0.06418 0.0
H247 H 0.24401 0.9877 0.13846 0.0
H248 H 0.39141 0.97196 0.04477 0.0
H249 H 0.33678 0.00849 0.95752 0.0
H250 H 0.28908 0.78091 0.10849 0.0
H251 H 0.25776 0.85324 0.17544 0.0
H252 H 0.1881 0.89989 0.93386 0.0
H253 H 0.29356 0.9108 0.92542 0.0
H254 H 0.1788 0.8972 0.87069 0.0
H255 H 0.28243 0.90753 0.86237 0.0
H256 H 0.17752 0.84585 0.95917 0.0
H257 H 0.2125 0.80279 0.0518 0.0
H258 H 0.14882 0.79251 0.93874 0.0
H259 H 0.18372 0.75007 0.0295 0.0
H260 H 0.27527 0.75236 0.97337 0.0
H261 H 0.22261 0.7859 0.88336 0.0
H262 H 0.15886 1.00062 0.00988 0.0
H263 H 0.09823 0.91271 0.974 0.0
Li264 Li 0.0898 0.50495 0.33628 0.0
Li265 Li 0.13 0.47141 0.31406 0.0
Li266 Li 0.13471 0.52998 0.30616 0.0
Li267 Li 0.09075 0.49361 0.27493 0.0
C268 C 0.14182 0.50901 0.38391 0.0
N269 N 0.14668 0.51254 0.45445 0.0
C270 C 0.14923 0.48225 0.40259 0.0
C271 C 0.13705 0.53761 0.40111 0.0
C272 C 0.15157 0.48452 0.43824 0.0
C273 C 0.13954 0.53888 0.43678 0.0
C274 C 0.05289 0.44556 0.29629 0.0
C275 C 0.02549 0.4062 0.25429 0.0
N276 N 0.99553 0.41363 0.26305 0.0
C277 C 0.02185 0.45276 0.30494 0.0
C278 C 0.05479 0.42202 0.27086 0.0
C279 C 0.99313 0.43634 0.28783 0.0
C280 C 0.0417 0.5352 0.36806 0.0
N281 N 0.06202 0.51156 0.37197 0.0
C282 C 0.04477 0.50114 0.42766 0.0
C283 C 0.06308 0.49386 0.40055 0.0
C284 C 0.02441 0.52619 0.42475 0.0
C285 C 0.02246 0.54284 0.39417 0.0
H286 H 0.04072 0.54842 0.34479 0.0
H287 H 0.07872 0.47457 0.40263 0.0
C288 C 0.18797 0.44047 0.33007 0.0
N289 N 0.15445 0.4355 0.32281 0.0
C290 C 0.2063 0.4143 0.3351 0.0
C291 C 0.15515 0.37851 0.32617 0.0
C292 C 0.13787 0.40533 0.32102 0.0
C293 C 0.18985 0.38279 0.33317 0.0
H294 H 0.20047 0.46479 0.33172 0.0
H295 H 0.11119 0.40206 0.3156 0.0
C296 C 0.08705 0.56645 0.29057 0.0
N297 N 0.09042 0.63054 0.27381 0.0
C298 C 0.08222 0.57478 0.25645 0.0
C299 C 0.09339 0.59069 0.3162 0.0
C300 C 0.08405 0.60733 0.24849 0.0
C301 C 0.09509 0.62296 0.30719 0.0
C302 C 0.16574 0.48205 0.26171 0.0
C303 C 0.19746 0.49908 0.2668 0.0
C304 C 0.16182 0.45086 0.24699 0.0
C305 C 0.22475 0.48458 0.25714 0.0
C306 C 0.18974 0.43719 0.23775 0.0
N307 N 0.22036 0.45419 0.24296 0.0
C308 C 0.18289 0.58066 0.33179 0.0
C309 C 0.16688 0.58211 0.2725 0.0
C310 C 0.20486 0.60862 0.3303 0.0
N311 N 0.16441 0.56812 0.30318 0.0
C312 C 0.18843 0.61024 0.26985 0.0
C313 C 0.20787 0.62375 0.29902 0.0
H314 H 0.18085 0.56878 0.35571 0.0
H315 H 0.15224 0.57127 0.25005 0.0
C316 C 0.03269 0.49522 0.2293 0.0
N317 N 0.06419 0.4869 0.23265 0.0
C318 C 0.01335 0.48992 0.19809 0.0
C319 C 0.05938 0.46779 0.1746 0.0
C320 C 0.07782 0.47376 0.20605 0.0
C321 C 0.02666 0.47582 0.1703 0.0
H322 H 0.02261 0.50587 0.25092 0.0
H323 H 0.10303 0.46787 0.20924 0.0
O324 O 0.13935 0.50723 0.34899 0.0
O325 O 0.08128 0.46194 0.31215 0.0
O326 O 0.0859 0.53474 0.29885 0.0
O327 O 0.13873 0.49572 0.2713 0.0
H328 H 0.15292 0.45991 0.38974 0.0
H329 H 0.13109 0.55848 0.38706 0.0
H330 H 0.15718 0.46398 0.45303 0.0
H331 H 0.13569 0.56079 0.45041 0.0
H332 H 0.02658 0.38812 0.23437 0.0
H333 H 0.01994 0.47101 0.32446 0.0
H334 H 0.07863 0.41644 0.26356 0.0
H335 H 0.96892 0.44175 0.29416 0.0
H336 H 0.04665 0.48745 0.45065 0.0
H337 H 0.00697 0.56223 0.39079 0.0
H338 H 0.23298 0.41874 0.34073 0.0
H339 H 0.14142 0.35468 0.32461 0.0
H340 H 0.07749 0.55634 0.23628 0.0
H341 H 0.09728 0.58464 0.34273 0.0
H342 H 0.08052 0.61415 0.22218 0.0
H343 H 0.10017 0.64197 0.32673 0.0
H344 H 0.20108 0.52313 0.2783 0.0
H345 H 0.13756 0.43707 0.2434 0.0
H346 H 0.24944 0.49745 0.26102 0.0
H347 H 0.18708 0.413 0.2266 0.0
H348 H 0.21951 0.61808 0.35339 0.0
H349 H 0.19019 0.62097 0.24517 0.0
H350 H 0.98823 0.49645 0.19587 0.0
H351 H 0.07076 0.4571 0.15384 0.0
Li352 Li 0.73622 0.60909 0.02232 0.0
Li353 Li 0.76453 0.65375 0.05561 0.0
Li354 Li 0.77337 0.64976 0.99678 0.0
Li355 Li 0.79561 0.6116 0.03753 0.0
C356 C 0.70724 0.65888 0.99061 0.0
N357 N 0.65903 0.66625 0.93832 0.0
C358 C 0.6848 0.68154 0.99409 0.0
C359 C 0.70519 0.64 0.96046 0.0
C360 C 0.66059 0.68488 0.96739 0.0
C361 C 0.68064 0.64409 0.93434 0.0
C362 C 0.73708 0.6033 0.09235 0.0
C363 C 0.71868 0.57729 0.14257 0.0
N364 N 0.69116 0.59316 0.13997 0.0
C365 C 0.70861 0.61937 0.09017 0.0
C366 C 0.74218 0.58209 0.11873 0.0
C367 C 0.68569 0.61391 0.11449 0.0
C368 C 0.70286 0.54696 0.01818 0.0
N369 N 0.69744 0.57845 0.01627 0.0
C370 C 0.63873 0.56356 0.00816 0.0
C371 C 0.66611 0.58713 0.01189 0.0
C372 C 0.64364 0.53088 0.00989 0.0
C373 C 0.67615 0.52263 0.01536 0.0
H374 H 0.72803 0.5408 0.02222 0.0
H375 H 0.66219 0.61227 0.01174 0.0
C376 C 0.74887 0.71312 0.07865 0.0
N377 N 0.76057 0.68571 0.09004 0.0
C378 C 0.74514 0.73821 0.10157 0.0
C379 C 0.76621 0.70667 0.14762 0.0
C380 C 0.76928 0.682 0.12376 0.0
C381 C 0.75383 0.73518 0.13658 0.0
H382 H 0.7425 0.71551 0.05164 0.0
H383 H 0.77868 0.65997 0.13208 0.0
C384 C 0.79206 0.59214 0.96896 0.0
N385 N 0.8351 0.57246 0.92407 0.0
C386 C 0.82264 0.61037 0.96623 0.0
C387 C 0.78339 0.56387 0.94893 0.0
C388 C 0.84405 0.60002 0.94337 0.0
C389 C 0.80548 0.55434 0.92636 0.0
C390 C 0.82704 0.67755 0.06011 0.0
C391 C 0.83291 0.71084 0.05635 0.0
C392 C 0.83969 0.66386 0.08986 0.0
C393 C 0.85122 0.72996 0.08259 0.0
C394 C 0.85793 0.68379 0.11547 0.0
N395 N 0.86324 0.71616 0.11136 0.0
C396 C 0.77768 0.70822 0.96768 0.0
C397 C 0.78144 0.66722 0.9259 0.0
C398 C 0.7786 0.73161 0.94306 0.0
N399 N 0.77914 0.6768 0.95887 0.0
C400 C 0.78265 0.69 0.90029 0.0
C401 C 0.78088 0.72267 0.90877 0.0
H402 H 0.77479 0.71492 0.99389 0.0
H403 H 0.78142 0.64195 0.91925 0.0
C404 C 0.81986 0.55512 0.05983 0.0
N405 N 0.82961 0.58468 0.04805 0.0
C406 C 0.84293 0.53313 0.06641 0.0
C407 C 0.88573 0.5725 0.04866 0.0
C408 C 0.86183 0.59383 0.04263 0.0
C409 C 0.87632 0.5416 0.06053 0.0
H410 H 0.79399 0.54848 0.06368 0.0
H411 H 0.86886 0.61751 0.03319 0.0
O412 O 0.73123 0.65571 0.01655 0.0
O413 O 0.75994 0.60804 0.06885 0.0
O414 O 0.7708 0.6014 0.99149 0.0
O415 O 0.80837 0.65848 0.03519 0.0
H416 H 0.68606 0.69637 0.01724 0.0
H417 H 0.72226 0.62235 0.95714 0.0
H418 H 0.64304 0.70231 0.96978 0.0
H419 H 0.67876 0.62963 0.91091 0.0
H420 H 0.72232 0.56093 0.16313 0.0
H421 H 0.70415 0.63588 0.07 0.0
H422 H 0.76409 0.56946 0.12075 0.0
H423 H 0.66356 0.62617 0.1131 0.0
H424 H 0.61396 0.57088 0.0049 0.0
H425 H 0.68087 0.49766 0.017 0.0
H426 H 0.73564 0.75977 0.0919 0.0
H427 H 0.77316 0.70333 0.1744 0.0
H428 H 0.82978 0.63234 0.98145 0.0
H429 H 0.75985 0.54944 0.95088 0.0
H430 H 0.86778 0.61391 0.94098 0.0
H431 H 0.7991 0.53251 0.91068 0.0
H432 H 0.82336 0.72186 0.03352 0.0
H433 H 0.835 0.63819 0.09339 0.0
H434 H 0.85585 0.75578 0.08008 0.0
H435 H 0.8677 0.67355 0.13871 0.0
H436 H 0.77697 0.75641 0.95084 0.0
H437 H 0.78404 0.682 0.8741 0.0
H438 H 0.83455 0.50959 0.07549 0.0
H439 H 0.91121 0.58005 0.04385 0.0
Li440 Li 0.87517 0.05784 0.26756 0.0
Li441 Li 0.92764 0.03582 0.27424 0.0
Li442 Li 0.90426 0.04797 0.21753 0.0
Li443 Li 0.88028 0.00242 0.24818 0.0
C444 C 0.91613 0.10941 0.24765 0.0
N445 N 0.91076 0.17203 0.22865 0.0
C446 C 0.9406 0.13423 0.2596 0.0
C447 C 0.88889 0.11642 0.22608 0.0
C448 C 0.93745 0.16574 0.24968 0.0
C449 C 0.88664 0.14823 0.21676 0.0
C450 C 0.89857 0.00997 0.32578 0.0
C451 C 0.93069 0.9735 0.35744 0.0
N452 N 0.92516 0.98859 0.3871 0.0
C453 C 0.89279 0.02478 0.35664 0.0
C454 C 0.91728 0.98382 0.32625 0.0
C455 C 0.90657 0.01374 0.38734 0.0
C456 C 0.81891 0.09285 0.27815 0.0
N457 N 0.84971 0.0861 0.29002 0.0
C458 C 0.84641 0.11493 0.34255 0.0
C459 C 0.86417 0.09802 0.32081 0.0
C460 C 0.81367 0.12028 0.33206 0.0
C461 C 0.8003 0.11006 0.29893 0.0
H462 H 0.80831 0.08413 0.25307 0.0
H463 H 0.88919 0.09326 0.32897 0.0
C464 C 0.9899 0.01726 0.30077 0.0
N465 N 0.96716 0.03842 0.30386 0.0
C466 C 0.01693 0.01759 0.32526 0.0
C467 C 0.99735 0.06247 0.35455 0.0
C468 C 0.97067 0.06118 0.32959 0.0
C469 C 0.02052 0.04002 0.35296 0.0
H470 H 0.98647 0.99952 0.27993 0.0
H471 H 0.95208 0.07765 0.33128 0.0
C472 C 0.82294 0.02751 0.22222 0.0
N473 N 0.75518 0.0103 0.22057 0.0
C474 C 0.80887 0.01568 0.25132 0.0
C475 C 0.80252 0.03051 0.19229 0.0
C476 C 0.77458 0.00712 0.24996 0.0
C477 C 0.76832 0.02172 0.19198 0.0
C478 C 0.92687 0.98124 0.21301 0.0
C479 C 0.91692 0.97961 0.17804 0.0
C480 C 0.93782 0.95415 0.22869 0.0
C481 C 0.91778 0.95084 0.1594 0.0
C482 C 0.93825 0.9258 0.20919 0.0
N483 N 0.9283 0.92474 0.17524 0.0
C484 C 0.94824 0.07859 0.17517 0.0
C485 C 0.89502 0.06218 0.14671 0.0
C486 C 0.9601 0.08973 0.14486 0.0
N487 N 0.91642 0.06474 0.1754 0.0
C488 C 0.90595 0.07272 0.11568 0.0
C489 C 0.93907 0.08623 0.11443 0.0
H490 H 0.9646 0.08033 0.19849 0.0
H491 H 0.86983 0.05107 0.14774 0.0
C492 C 0.84784 0.94573 0.27326 0.0
N493 N 0.85625 0.9599 0.24398 0.0
C494 C 0.82724 0.91666 0.27207 0.0
C495 C 0.82437 0.91669 0.21047 0.0
C496 C 0.84495 0.94603 0.21288 0.0
C497 C 0.81482 0.90192 0.2404 0.0
H498 H 0.85589 0.95759 0.29766 0.0
H499 H 0.85087 0.9583 0.18991 0.0
O500 O 0.91897 0.07849 0.25728 0.0
O501 O 0.88592 0.02083 0.29528 0.0
O502 O 0.85653 0.03555 0.22256 0.0
O503 O 0.92593 0.00916 0.23177 0.0
H504 H 0.9618 0.12917 0.27637 0.0
H505 H 0.86966 0.09758 0.2166 0.0
H506 H 0.95621 0.1852 0.25873 0.0
H507 H 0.86571 0.15401 0.20007 0.0
H508 H 0.94551 0.95351 0.35806 0.0
H509 H 0.87758 0.04436 0.35704 0.0
H510 H 0.92159 0.97181 0.3027 0.0
H511 H 0.90241 0.0251 0.41137 0.0
H512 H 0.85789 0.12294 0.36763 0.0
H513 H 0.77526 0.11405 0.28973 0.0
H514 H 0.03425 0.99989 0.32301 0.0
H515 H 0.99913 0.08013 0.37545 0.0
H516 H 0.82413 0.01322 0.27477 0.0
H517 H 0.813 0.03951 0.16952 0.0
H518 H 0.76339 0.99797 0.27228 0.0
H519 H 0.75224 0.02395 0.16899 0.0
H520 H 0.90819 1.00013 0.16543 0.0
H521 H 0.94595 0.95491 0.2556 0.0
H522 H 0.90995 0.94923 0.13236 0.0
H523 H 0.94656 0.90465 0.22106 0.0
H524 H 0.9858 0.09994 0.14511 0.0
H525 H 0.88889 0.0696 0.09283 0.0
H526 H 0.82039 0.90634 0.29582 0.0
H527 H 0.815 0.90642 0.1855 0.0
Li528 Li 0.26453 0.15376 0.55561 0.0
Li529 Li 0.23622 0.1091 0.52232 0.0
Li530 Li 0.29561 0.11161 0.53753 0.0
Li531 Li 0.27337 0.14977 0.49678 0.0
C532 C 0.23709 0.10331 0.59235 0.0
N533 N 0.19117 0.09317 0.63997 0.0
C534 C 0.20861 0.11938 0.59017 0.0
C535 C 0.24219 0.0821 0.61874 0.0
C536 C 0.1857 0.11392 0.61449 0.0
C537 C 0.21869 0.0773 0.64257 0.0
C538 C 0.20724 0.15889 0.49061 0.0
C539 C 0.18064 0.1441 0.43435 0.0
N540 N 0.15903 0.16626 0.43832 0.0
C541 C 0.18481 0.18156 0.4941 0.0
C542 C 0.20519 0.14001 0.46046 0.0
C543 C 0.16059 0.1849 0.46739 0.0
C544 C 0.24887 0.21314 0.57865 0.0
N545 N 0.26058 0.18572 0.59004 0.0
C546 C 0.26621 0.20668 0.64762 0.0
C547 C 0.26928 0.18201 0.62376 0.0
C548 C 0.25383 0.23519 0.63658 0.0
C549 C 0.24515 0.23822 0.60157 0.0
H550 H 0.24251 0.21552 0.55164 0.0
H551 H 0.27869 0.15999 0.63208 0.0
C552 C 0.20287 0.04697 0.51818 0.0
N553 N 0.19744 0.07846 0.51627 0.0
C554 C 0.17615 0.02265 0.51536 0.0
C555 C 0.13873 0.06357 0.50817 0.0
C556 C 0.16611 0.08714 0.5119 0.0
C557 C 0.14364 0.03089 0.50989 0.0
H558 H 0.22803 0.04082 0.52222 0.0
H559 H 0.16219 0.11228 0.51174 0.0
C560 C 0.32705 0.17756 0.56011 0.0
N561 N 0.36325 0.21616 0.61136 0.0
C562 C 0.33292 0.21086 0.55635 0.0
C563 C 0.33969 0.16387 0.58986 0.0
C564 C 0.35123 0.22997 0.58259 0.0
C565 C 0.35793 0.1838 0.61547 0.0
C566 C 0.29206 0.09215 0.46896 0.0
C567 C 0.32264 0.11038 0.46623 0.0
C568 C 0.2834 0.06389 0.44893 0.0
C569 C 0.34405 0.10003 0.44337 0.0
C570 C 0.30548 0.05435 0.42635 0.0
N571 N 0.3351 0.07247 0.42407 0.0
C572 C 0.31987 0.05513 0.55983 0.0
C573 C 0.36183 0.09384 0.54263 0.0
C574 C 0.34293 0.03314 0.56641 0.0
N575 N 0.32962 0.08469 0.54805 0.0
C576 C 0.38574 0.07251 0.54866 0.0
C577 C 0.37633 0.04161 0.56053 0.0
H578 H 0.294 0.04849 0.56368 0.0
H579 H 0.36887 0.11752 0.53319 0.0
C580 C 0.27769 0.20823 0.46768 0.0
N581 N 0.27914 0.17681 0.45886 0.0
C582 C 0.2786 0.23162 0.44306 0.0
C583 C 0.28265 0.19 0.40028 0.0
C584 C 0.28144 0.16723 0.4259 0.0
C585 C 0.28088 0.22268 0.40876 0.0
H586 H 0.27481 0.21494 0.49389 0.0
H587 H 0.28142 0.14196 0.41925 0.0
O588 O 0.25995 0.10805 0.56885 0.0
O589 O 0.23123 0.15572 0.51655 0.0
O590 O 0.30838 0.1585 0.53519 0.0
O591 O 0.2708 0.10141 0.49149 0.0
H592 H 0.20416 0.1359 0.57 0.0
H593 H 0.2641 0.06948 0.62075 0.0
H594 H 0.16357 0.12618 0.6131 0.0
H595 H 0.22233 0.06095 0.66313 0.0
H596 H 0.17876 0.12964 0.41091 0.0
H597 H 0.18607 0.19638 0.51724 0.0
H598 H 0.22226 0.12236 0.45714 0.0
H599 H 0.14305 0.20233 0.46978 0.0
H600 H 0.27316 0.20334 0.6744 0.0
H601 H 0.23564 0.25979 0.59191 0.0
H602 H 0.18088 0.99767 0.517 0.0
H603 H 0.11397 0.07089 0.50491 0.0
H604 H 0.32337 0.22187 0.53352 0.0
H605 H 0.33501 0.1382 0.59339 0.0
H606 H 0.35586 0.25579 0.58009 0.0
H607 H 0.3677 0.17356 0.63871 0.0
H608 H 0.32978 0.13235 0.48145 0.0
H609 H 0.25985 0.04945 0.45088 0.0
H610 H 0.36778 0.11392 0.44098 0.0
H611 H 0.2991 0.03253 0.41068 0.0
H612 H 0.33455 0.0096 0.57548 0.0
H613 H 0.41122 0.08005 0.54384 0.0
H614 H 0.27698 0.25642 0.45084 0.0
H615 H 0.28403 0.18201 0.3741 0.0
Li616 Li 0.42762 0.53583 0.77425 0.0
Li617 Li 0.37516 0.55785 0.76758 0.0
Li618 Li 0.38026 0.50243 0.74819 0.0
Li619 Li 0.40425 0.54799 0.71754 0.0
C620 C 0.39857 0.50998 0.82578 0.0
N621 N 0.42516 0.48858 0.88709 0.0
C622 C 0.39279 0.52478 0.85664 0.0
C623 C 0.41726 0.48381 0.82624 0.0
C624 C 0.40659 0.51373 0.88734 0.0
C625 C 0.43068 0.47349 0.85743 0.0
C626 C 0.41612 0.60942 0.74766 0.0
C627 C 0.38662 0.64825 0.71678 0.0
N628 N 0.41075 0.67205 0.72867 0.0
C629 C 0.44058 0.63424 0.75961 0.0
C630 C 0.38887 0.61644 0.7261 0.0
C631 C 0.43743 0.66576 0.7497 0.0
C632 C 0.48989 0.51727 0.80077 0.0
N633 N 0.46715 0.53842 0.80386 0.0
C634 C 0.49735 0.56247 0.85455 0.0
C635 C 0.47067 0.56118 0.82959 0.0
C636 C 0.52051 0.54002 0.85295 0.0
C637 C 0.51691 0.51759 0.82526 0.0
H638 H 0.48645 0.49952 0.77993 0.0
H639 H 0.45207 0.57765 0.83128 0.0
C640 C 0.3189 0.59286 0.77818 0.0
N641 N 0.3497 0.58611 0.79004 0.0
C642 C 0.30029 0.61006 0.79897 0.0
C643 C 0.34641 0.61493 0.84258 0.0
C644 C 0.36417 0.59802 0.82083 0.0
C645 C 0.31367 0.62028 0.8321 0.0
H646 H 0.3083 0.58414 0.7531 0.0
H647 H 0.38919 0.59327 0.82899 0.0
C648 C 0.42685 0.48126 0.71301 0.0
N649 N 0.42828 0.42476 0.67522 0.0
C650 C 0.4169 0.47963 0.67803 0.0
C651 C 0.4378 0.45416 0.72868 0.0
C652 C 0.41776 0.45087 0.65939 0.0
C653 C 0.43824 0.42582 0.70918 0.0
C654 C 0.32292 0.52753 0.72223 0.0
C655 C 0.30886 0.5157 0.75133 0.0
C656 C 0.3025 0.53053 0.69231 0.0
C657 C 0.27456 0.50714 0.74998 0.0
C658 C 0.2683 0.52174 0.692 0.0
N659 N 0.25516 0.51032 0.72059 0.0
C660 C 0.34781 0.44575 0.77326 0.0
C661 C 0.34493 0.44604 0.71288 0.0
C662 C 0.32721 0.41668 0.77207 0.0
N663 N 0.35623 0.45992 0.74399 0.0
C664 C 0.32435 0.41671 0.71048 0.0
C665 C 0.3148 0.40193 0.74041 0.0
H666 H 0.35586 0.45761 0.79766 0.0
H667 H 0.35086 0.4583 0.68992 0.0
C668 C 0.44821 0.57861 0.67517 0.0
N669 N 0.4164 0.56476 0.67541 0.0
C670 C 0.46008 0.58975 0.64487 0.0
C671 C 0.40593 0.57275 0.61569 0.0
C672 C 0.395 0.56221 0.64672 0.0
C673 C 0.43905 0.58625 0.61444 0.0
H674 H 0.46458 0.58035 0.69849 0.0
H675 H 0.36981 0.55109 0.64775 0.0
O676 O 0.38591 0.52084 0.79529 0.0
O677 O 0.41896 0.5785 0.75729 0.0
O678 O 0.42591 0.50917 0.73177 0.0
O679 O 0.35652 0.53557 0.72257 0.0
H680 H 0.37759 0.54437 0.85706 0.0
H681 H 0.42157 0.47181 0.80268 0.0
H682 H 0.40244 0.52509 0.91137 0.0
H683 H 0.44549 0.45349 0.85804 0.0
H684 H 0.36569 0.65403 0.7001 0.0
H685 H 0.46179 0.62918 0.77637 0.0
H686 H 0.36964 0.5976 0.71662 0.0
H687 H 0.4562 0.68521 0.75874 0.0
H688 H 0.49912 0.58013 0.87545 0.0
H689 H 0.53424 0.49989 0.823 0.0
H690 H 0.27525 0.61405 0.78977 0.0
H691 H 0.35789 0.62293 0.86766 0.0
H692 H 0.40817 0.50016 0.66543 0.0
H693 H 0.44594 0.45492 0.75559 0.0
H694 H 0.40993 0.44926 0.63235 0.0
H695 H 0.44655 0.40467 0.72103 0.0
H696 H 0.32412 0.51324 0.77478 0.0
H697 H 0.31297 0.53953 0.66953 0.0
H698 H 0.26337 0.49798 0.7723 0.0
H699 H 0.25221 0.52397 0.66901 0.0
H700 H 0.32035 0.40636 0.79582 0.0
H701 H 0.31499 0.40642 0.68551 0.0
H702 H 0.48578 0.59996 0.64511 0.0
H703 H 0.38887 0.56963 0.59284 0.0
Li704 Li 0.78005 0.41303 0.50924 0.0
Li705 Li 0.7546 0.37361 0.54831 0.0
Li706 Li 0.75061 0.36275 0.4868 0.0
Li707 Li 0.71847 0.40342 0.50704 0.0
C708 C 0.82199 0.36528 0.51166 0.0
N709 N 0.88588 0.35759 0.49687 0.0
C710 C 0.84634 0.36116 0.53797 0.0
C711 C 0.83001 0.36523 0.47783 0.0
C712 C 0.87854 0.35739 0.52997 0.0
C713 C 0.86248 0.36137 0.47087 0.0
C714 C 0.73556 0.43126 0.57374 0.0
C715 C 0.68859 0.42634 0.60754 0.0
N716 N 0.7031 0.45181 0.62775 0.0
C717 C 0.74997 0.45742 0.59478 0.0
C718 C 0.7046 0.41556 0.58011 0.0
C719 C 0.73319 0.46742 0.62199 0.0
C720 C 0.81368 0.46686 0.48061 0.0
N721 N 0.81624 0.44523 0.5057 0.0
C722 C 0.86987 0.47106 0.5264 0.0
C723 C 0.84345 0.44699 0.52859 0.0
C724 C 0.86796 0.49376 0.50069 0.0
C725 C 0.83937 0.49145 0.47761 0.0
H726 H 0.79152 0.46514 0.46307 0.0
H727 H 0.84451 0.42984 0.54871 0.0
C728 C 0.77397 0.32348 0.58555 0.0
N729 N 0.76197 0.35222 0.59025 0.0
C730 C 0.78009 0.30391 0.61303 0.0
C731 C 0.76253 0.34431 0.65037 0.0
C732 C 0.7566 0.36315 0.62196 0.0
C733 C 0.77413 0.31409 0.64596 0.0
H734 H 0.77834 0.31551 0.56016 0.0
H735 H 0.74768 0.38631 0.62539 0.0
C736 C 0.74154 0.4048 0.43414 0.0
N737 N 0.73017 0.40206 0.36377 0.0
C738 C 0.70905 0.4015 0.41862 0.0
C739 C 0.76825 0.40731 0.41386 0.0
C740 C 0.70381 0.40002 0.38301 0.0
C741 C 0.76198 0.40568 0.37834 0.0
C742 C 0.6972 0.32815 0.50696 0.0
C743 C 0.67873 0.32529 0.47515 0.0
C744 C 0.6989 0.30099 0.52685 0.0
C745 C 0.66278 0.29516 0.46349 0.0
C746 C 0.68256 0.27129 0.51432 0.0
N747 N 0.66504 0.269 0.48314 0.0
C748 C 0.76584 0.30175 0.47403 0.0
C749 C 0.73672 0.32033 0.42496 0.0
C750 C 0.76467 0.27114 0.45891 0.0
N751 N 0.75155 0.3255 0.45731 0.0
C752 C 0.73472 0.28978 0.40888 0.0
C753 C 0.74816 0.26458 0.42632 0.0
H754 H 0.77699 0.30621 0.49985 0.0
H755 H 0.72509 0.33923 0.41217 0.0
C756 C 0.68308 0.45751 0.50809 0.0
N757 N 0.67958 0.42521 0.50086 0.0
C758 C 0.65571 0.47497 0.50379 0.0
C759 C 0.62185 0.42585 0.48352 0.0
C760 C 0.64967 0.40918 0.48913 0.0
C761 C 0.6247 0.45914 0.49104 0.0
H762 H 0.70719 0.46969 0.51728 0.0
H763 H 0.64738 0.3835 0.48392 0.0
O764 O 0.79037 0.36906 0.51908 0.0
O765 O 0.75156 0.42158 0.54672 0.0
O766 O 0.74717 0.40678 0.46896 0.0
O767 O 0.71368 0.35731 0.51849 0.0
H768 H 0.84045 0.36105 0.5643 0.0
H769 H 0.81132 0.36789 0.45719 0.0
H770 H 0.89769 0.3543 0.55008 0.0
H771 H 0.86905 0.36131 0.44479 0.0
H772 H 0.66464 0.41442 0.61279 0.0
H773 H 0.77386 0.46989 0.59007 0.0
H774 H 0.69302 0.39526 0.56416 0.0
H775 H 0.74406 0.48763 0.63851 0.0
H776 H 0.89136 0.47206 0.54483 0.0
H777 H 0.83684 0.50846 0.45744 0.0
H778 H 0.78918 0.28091 0.6084 0.0
H779 H 0.75776 0.35315 0.67539 0.0
H780 H 0.6881 0.39996 0.43385 0.0
H781 H 0.79356 0.41075 0.4254 0.0
H782 H 0.6788 0.39724 0.37067 0.0
H783 H 0.78242 0.40744 0.36234 0.0
H784 H 0.67752 0.34588 0.45916 0.0
H785 H 0.71258 0.30278 0.55173 0.0
H786 H 0.64882 0.29255 0.4387 0.0
H787 H 0.68381 0.25006 0.52941 0.0
H788 H 0.77534 0.25241 0.47328 0.0
H789 H 0.72256 0.28592 0.38332 0.0
H790 H 0.65888 0.50063 0.5099 0.0
H791 H 0.59824 0.41272 0.47403 0.0
Li792 Li 0.63 0.9714 0.81406 0.0
Li793 Li 0.5898 0.00494 0.83628 0.0
Li794 Li 0.59074 0.9936 0.77493 0.0
Li795 Li 0.63471 0.02997 0.80615 0.0
C796 C 0.55289 0.94555 0.79629 0.0
N797 N 0.49552 0.91362 0.76305 0.0
C798 C 0.52185 0.95276 0.80494 0.0
C799 C 0.55479 0.92201 0.77086 0.0
C800 C 0.49312 0.93634 0.78783 0.0
C801 C 0.52549 0.90619 0.75429 0.0
C802 C 0.64182 0.009 0.8839 0.0
C803 C 0.63954 0.03888 0.93677 0.0
N804 N 0.64668 0.01253 0.95444 0.0
C805 C 0.64923 0.98225 0.90258 0.0
C806 C 0.63705 0.0376 0.9011 0.0
C807 C 0.65157 0.98452 0.93824 0.0
C808 C 0.68796 0.94046 0.83007 0.0
N809 N 0.65444 0.93549 0.82281 0.0
C810 C 0.65514 0.8785 0.82617 0.0
C811 C 0.63786 0.90532 0.82102 0.0
C812 C 0.68985 0.88278 0.83317 0.0
C813 C 0.7063 0.91429 0.8351 0.0
H814 H 0.70047 0.96478 0.83172 0.0
H815 H 0.61119 0.90205 0.8156 0.0
C816 C 0.5417 0.03519 0.86806 0.0
N817 N 0.56202 0.01155 0.87196 0.0
C818 C 0.52246 0.04283 0.89417 0.0
C819 C 0.54477 0.00113 0.92766 0.0
C820 C 0.56309 0.99385 0.90054 0.0
C821 C 0.52441 0.02618 0.92475 0.0
H822 H 0.54071 0.04842 0.84479 0.0
H823 H 0.57873 0.97456 0.90262 0.0
C824 C 0.66574 0.98204 0.7617 0.0
N825 N 0.72035 0.95417 0.74296 0.0
C826 C 0.69746 0.99906 0.76679 0.0
C827 C 0.66181 0.95085 0.74698 0.0
C828 C 0.72475 0.98456 0.75713 0.0
C829 C 0.68973 0.93717 0.73774 0.0
C830 C 0.58705 0.06644 0.79057 0.0
C831 C 0.58222 0.07477 0.75644 0.0
C832 C 0.59339 0.09068 0.81619 0.0
C833 C 0.58405 0.10732 0.74848 0.0
C834 C 0.59509 0.12295 0.80718 0.0
N835 N 0.59043 0.13053 0.7738 0.0
C836 C 0.53269 0.99521 0.7293 0.0
C837 C 0.57781 0.97375 0.70604 0.0
C838 C 0.51335 0.98992 0.69808 0.0
N839 N 0.56419 0.98689 0.73265 0.0
C840 C 0.55937 0.96777 0.6746 0.0
C841 C 0.52666 0.97581 0.6703 0.0
H842 H 0.52261 0.00587 0.75092 0.0
H843 H 0.60302 0.96786 0.70923 0.0
C844 C 0.68289 0.08065 0.83177 0.0
N845 N 0.6644 0.06811 0.80317 0.0
C846 C 0.70485 0.10861 0.83028 0.0
C847 C 0.68843 0.11023 0.76983 0.0
C848 C 0.66688 0.08209 0.77248 0.0
C849 C 0.70787 0.12373 0.79899 0.0
H850 H 0.68084 0.06878 0.8557 0.0
H851 H 0.65224 0.07125 0.75003 0.0
O852 O 0.58128 0.96193 0.81215 0.0
O853 O 0.63935 0.00722 0.84898 0.0
O854 O 0.63873 0.99571 0.77129 0.0
O855 O 0.58589 0.03473 0.79884 0.0
H856 H 0.51994 0.971 0.82446 0.0
H857 H 0.57863 0.91643 0.76356 0.0
H858 H 0.46892 0.94174 0.79416 0.0
H859 H 0.52657 0.8881 0.73437 0.0
H860 H 0.63569 0.06078 0.9504 0.0
H861 H 0.65293 0.9599 0.88973 0.0
H862 H 0.63108 0.05847 0.88705 0.0
H863 H 0.65718 0.96398 0.95302 0.0
H864 H 0.64142 0.85467 0.82462 0.0
H865 H 0.73298 0.91874 0.84073 0.0
H866 H 0.50697 0.06222 0.89079 0.0
H867 H 0.54666 0.98743 0.95065 0.0
H868 H 0.70107 0.02311 0.77829 0.0
H869 H 0.63755 0.93706 0.7434 0.0
H870 H 0.74944 0.99743 0.761 0.0
H871 H 0.68707 0.91298 0.7266 0.0
H872 H 0.5775 0.05632 0.73627 0.0
H873 H 0.59728 0.08463 0.84272 0.0
H874 H 0.58053 0.11413 0.72217 0.0
H875 H 0.60017 0.14196 0.82672 0.0
H876 H 0.48823 0.99644 0.69586 0.0
H877 H 0.57075 0.95708 0.65384 0.0
H878 H 0.7195 0.11807 0.85337 0.0
H879 H 0.69019 0.12095 0.74515 0.0
Li880 Li 0.04773 0.25732 0.86831 0.0
Li881 Li 0.01465 0.27141 0.91473 0.0
Li882 Li 0.02155 0.2139 0.90231 0.0
Li883 Li 0.98728 0.24595 0.86297 0.0
C884 C 0.0866 0.26165 0.93178 0.0
N885 N 0.14949 0.28648 0.95884 0.0
C886 C 0.09383 0.29467 0.93957 0.0
C887 C 0.11122 0.24119 0.93828 0.0
C888 C 0.12581 0.30678 0.95306 0.0
C889 C 0.1429 0.25422 0.95184 0.0
C890 C 0.00115 0.30694 0.8439 0.0
C891 C 0.95811 0.33858 0.82259 0.0
N892 N 0.97388 0.34388 0.79378 0.0
C893 C 0.0169 0.31268 0.81403 0.0
C894 C 0.9715 0.32001 0.84823 0.0
C895 C 0.00274 0.33145 0.78903 0.0
C896 C 0.10145 0.25639 0.82331 0.0
N897 N 0.08681 0.2733 0.84671 0.0
C898 C 0.12786 0.31862 0.84356 0.0
C899 C 0.09911 0.30411 0.85635 0.0
C900 C 0.14407 0.30141 0.82021 0.0
C901 C 0.13035 0.26998 0.80985 0.0
H902 H 0.09085 0.2325 0.81471 0.0
H903 H 0.08636 0.31757 0.87388 0.0
C904 C 0.01706 0.29426 0.98356 0.0
N905 N 0.01117 0.3022 0.95046 0.0
C906 C 0.01394 0.31646 0.00992 0.0
C907 C 0.99916 0.35466 0.9676 0.0
C908 C 0.00268 0.33178 0.94211 0.0
C909 C 0.00481 0.34712 0.00204 0.0
H910 H 0.02413 0.27064 0.98944 0.0
H911 H 0.99882 0.33773 0.91564 0.0
C912 C 0.03918 0.19483 0.83736 0.0
N913 N 0.07652 0.15057 0.81056 0.0
C914 C 0.02978 0.18065 0.80494 0.0
C915 C 0.06752 0.18645 0.85619 0.0
C916 C 0.04902 0.15836 0.7918 0.0
C917 C 0.08606 0.16402 0.84221 0.0
C918 C 0.96172 0.23959 0.93637 0.0
C919 C 0.965 0.22312 0.96678 0.0
C920 C 0.93978 0.26307 0.93311 0.0
C921 C 0.94653 0.23072 0.99362 0.0
C922 C 0.92179 0.27002 0.96055 0.0
N923 N 0.92552 0.25385 0.99 0.0
C924 C 0.03653 0.17135 0.95508 0.0
C925 C 0.01497 0.14539 0.90228 0.0
C926 C 0.03854 0.14153 0.97015 0.0
N927 N 0.02478 0.1727 0.92177 0.0
C928 C 0.01757 0.11512 0.916 0.0
C929 C 0.0292 0.113 0.9504 0.0
H930 H 0.04412 0.19346 0.96998 0.0
H931 H 0.00521 0.14707 0.87602 0.0
C932 C 0.94332 0.25401 0.80215 0.0
N933 N 0.94654 0.24245 0.83421 0.0
C934 C 0.9119 0.25275 0.78418 0.0
C935 C 0.8883 0.22565 0.83156 0.0
C936 C 0.91989 0.22788 0.84868 0.0
C937 C 0.88387 0.23857 0.79907 0.0
H938 H 0.96497 0.26456 0.79065 0.0
H939 H 0.92306 0.21806 0.87373 0.0
O940 O 0.0554 0.24927 0.91867 0.0
O941 O 0.01483 0.28892 0.86887 0.0
O942 O 0.02025 0.21626 0.85075 0.0
O943 O 0.98011 0.23299 0.91003 0.0
H944 H 0.07507 0.31086 0.93489 0.0
H945 H 0.10593 0.21548 0.93313 0.0
H946 H 0.1318 0.33232 0.95893 0.0
H947 H 0.16222 0.23868 0.95688 0.0
H948 H 0.93511 0.34871 0.82556 0.0
H949 H 0.03966 0.3026 0.81 0.0
H950 H 0.95874 0.31558 0.87095 0.0
H951 H 0.01464 0.33603 0.76578 0.0
H952 H 0.13725 0.34307 0.85196 0.0
H953 H 0.14177 0.256 0.79152 0.0
H954 H 0.0187 0.30967 0.03614 0.0
H955 H 0.9924 0.3781 0.96035 0.0
H956 H 0.00781 0.1868 0.79011 0.0
H957 H 0.07511 0.19722 0.88126 0.0
H958 H 0.04207 0.14721 0.76672 0.0
H959 H 0.10805 0.15734 0.8565 0.0
H960 H 0.98175 0.20481 0.96971 0.0
H961 H 0.93691 0.27599 0.90973 0.0
H962 H 0.94894 0.21828 0.01737 0.0
H963 H 0.9049 0.28829 0.95845 0.0
H964 H 0.04791 0.1408 0.9967 0.0
H965 H 0.00995 0.09359 0.90007 0.0
H966 H 0.90963 0.26248 0.75892 0.0
H967 H 0.86748 0.21421 0.84393 0.0
Li968 Li 0.54775 0.75732 0.36831 0.0
Li969 Li 0.51467 0.77142 0.41472 0.0
Li970 Li 0.52156 0.7139 0.4023 0.0
Li971 Li 0.48729 0.74596 0.36295 0.0
C972 C 0.58661 0.76165 0.43178 0.0
N973 N 0.64949 0.78647 0.45887 0.0
C974 C 0.59383 0.79466 0.43958 0.0
C975 C 0.61122 0.74118 0.4383 0.0
C976 C 0.62581 0.80677 0.45308 0.0
C977 C 0.6429 0.75422 0.45186 0.0
C978 C 0.50118 0.80696 0.3439 0.0
C979 C 0.45817 0.83864 0.3226 0.0
N980 N 0.47395 0.84394 0.29379 0.0
C981 C 0.51694 0.8127 0.31404 0.0
C982 C 0.47155 0.82005 0.34823 0.0
C983 C 0.5028 0.83149 0.28903 0.0
C984 C 0.60146 0.75639 0.32331 0.0
N985 N 0.58683 0.7733 0.34671 0.0
C986 C 0.6279 0.81861 0.34357 0.0
C987 C 0.59914 0.8041 0.35636 0.0
C988 C 0.6441 0.8014 0.32022 0.0
C989 C 0.63037 0.76997 0.30985 0.0
H990 H 0.59086 0.73251 0.3147 0.0
H991 H 0.58639 0.81756 0.37389 0.0
C992 C 0.51704 0.79425 0.48356 0.0
N993 N 0.51118 0.8022 0.45046 0.0
C994 C 0.51392 0.81645 0.50992 0.0
C995 C 0.49917 0.85467 0.46759 0.0
C996 C 0.5027 0.83179 0.4421 0.0
C997 C 0.5048 0.84712 0.50203 0.0
H998 H 0.52409 0.77063 0.48943 0.0
H999 H 0.49887 0.83774 0.41563 0.0
C1000 C 0.5392 0.69483 0.33736 0.0
N1001 N 0.57654 0.65056 0.31057 0.0
C1002 C 0.5298 0.68064 0.30494 0.0
C1003 C 0.56753 0.68645 0.3562 0.0
C1004 C 0.54904 0.65835 0.29181 0.0
C1005 C 0.58608 0.66402 0.34222 0.0
C1006 C 0.46171 0.7396 0.43634 0.0
C1007 C 0.46497 0.72314 0.46675 0.0
C1008 C 0.43977 0.76308 0.43305 0.0
C1009 C 0.44647 0.73074 0.49357 0.0
C1010 C 0.42175 0.77002 0.46047 0.0
N1011 N 0.42546 0.75386 0.48992 0.0
C1012 C 0.53652 0.67136 0.45508 0.0
C1013 C 0.51499 0.64539 0.40228 0.0
C1014 C 0.53852 0.64154 0.47016 0.0
N1015 N 0.52479 0.67271 0.42176 0.0
C1016 C 0.51758 0.61512 0.41601 0.0
C1017 C 0.5292 0.61301 0.45042 0.0
H1018 H 0.54409 0.69348 0.46998 0.0
H1019 H 0.50524 0.64707 0.37601 0.0
C1020 C 0.44332 0.75407 0.30216 0.0
N1021 N 0.44655 0.74246 0.3342 0.0
C1022 C 0.41189 0.7528 0.28421 0.0
C1023 C 0.38832 0.72561 0.33154 0.0
C1024 C 0.41992 0.72784 0.34865 0.0
C1025 C 0.38388 0.73858 0.29909 0.0
H1026 H 0.46496 0.76465 0.29066 0.0
H1027 H 0.42311 0.71799 0.37369 0.0
O1028 O 0.5554 0.74927 0.41867 0.0
O1029 O 0.51484 0.78892 0.36886 0.0
O1030 O 0.52027 0.71627 0.35074 0.0
O1031 O 0.48012 0.733 0.41001 0.0
H1032 H 0.57508 0.81086 0.4349 0.0
H1033 H 0.60593 0.71547 0.43314 0.0
H1034 H 0.6318 0.83231 0.45896 0.0
H1035 H 0.66222 0.73867 0.45691 0.0
H1036 H 0.43518 0.84877 0.32557 0.0
H1037 H 0.53969 0.80261 0.31 0.0
H1038 H 0.45877 0.81562 0.37095 0.0
H1039 H 0.51471 0.83607 0.26579 0.0
H1040 H 0.63729 0.84306 0.35198 0.0
H1041 H 0.64178 0.75599 0.29151 0.0
H1042 H 0.51865 0.80965 0.53613 0.0
H1043 H 0.49244 0.87811 0.46034 0.0
H1044 H 0.50783 0.68679 0.29011 0.0
H1045 H 0.57513 0.69723 0.38126 0.0
H1046 H 0.54209 0.6472 0.26673 0.0
H1047 H 0.60807 0.65734 0.35651 0.0
H1048 H 0.48172 0.70483 0.4697 0.0
H1049 H 0.43691 0.77599 0.40966 0.0
H1050 H 0.44886 0.7183 0.51732 0.0
H1051 H 0.40486 0.78829 0.45835 0.0
H1052 H 0.54788 0.64082 0.49672 0.0
H1053 H 0.50998 0.59359 0.40008 0.0
H1054 H 0.40961 0.76258 0.25896 0.0
H1055 H 0.36751 0.71414 0.34391 0.0
Li1056 Li 0.00179 0.79106 0.65129 0.0
Li1057 Li 0.96374 0.76776 0.69001 0.0
Li1058 Li 0.02255 0.76381 0.70019 0.0
Li1059 Li 0.99022 0.73314 0.65372 0.0
C1060 C 0.02249 0.82964 0.70985 0.0
N1061 N 0.06805 0.88229 0.72972 0.0
C1062 C 0.01545 0.85184 0.73462 0.0
C1063 C 0.05269 0.83427 0.69513 0.0
C1064 C 0.03881 0.87829 0.74434 0.0
C1065 C 0.07539 0.86102 0.70553 0.0
C1066 C 0.9358 0.78344 0.62612 0.0
C1067 C 0.89323 0.79411 0.58267 0.0
N1068 N 0.88978 0.82221 0.59952 0.0
C1069 C 0.93182 0.81242 0.64303 0.0
C1070 C 0.91636 0.77418 0.59571 0.0
C1071 C 0.90843 0.83168 0.62917 0.0
C1072 C 0.02881 0.81689 0.59399 0.0
N1073 N 0.0125 0.82485 0.62115 0.0
C1074 C 0.01637 0.88001 0.60546 0.0
C1075 C 0.00594 0.85562 0.62718 0.0
C1076 C 0.03381 0.87257 0.57748 0.0
C1077 C 0.03985 0.84049 0.57179 0.0
H1078 H 0.03353 0.79219 0.58981 0.0
H1079 H 0.9931 0.86135 0.64912 0.0
C1080 C 0.92904 0.78684 0.7442 0.0
N1081 N 0.92476 0.77218 0.71266 0.0
C1082 C 0.90178 0.78965 0.76295 0.0
C1083 C 0.86616 0.76207 0.71642 0.0
C1084 C 0.8941 0.76009 0.69843 0.0
C1085 C 0.86985 0.7769 0.7492 0.0
H1086 H 0.95377 0.79601 0.75496 0.0
H1087 H 0.89134 0.74856 0.67327 0.0
C1088 C 0.05788 0.73834 0.65054 0.0
N1089 N 0.10598 0.69689 0.64624 0.0
C1090 C 0.05841 0.71189 0.67167 0.0
C1091 C 0.08189 0.74372 0.6273 0.0
C1092 C 0.0829 0.69122 0.66909 0.0
C1093 C 0.10598 0.72249 0.6255 0.0
C1094 C 0.96184 0.70442 0.70929 0.0
C1095 C 0.9645 0.68759 0.7395 0.0
C1096 C 0.93472 0.69608 0.68521 0.0
C1097 C 0.9399 0.66265 0.74516 0.0
C1098 C 0.91064 0.671 0.69181 0.0
N1099 N 0.91371 0.65495 0.7214 0.0
C1100 C 0.05161 0.7562 0.76668 0.0
C1101 C 0.09012 0.77275 0.72681 0.0
C1102 C 0.07739 0.75574 0.79248 0.0
N1103 N 0.05844 0.76434 0.73458 0.0
C1104 C 0.11662 0.77253 0.75172 0.0
C1105 C 0.11044 0.76368 0.78499 0.0
H1106 H 0.02612 0.74981 0.77211 0.0
H1107 H 0.09493 0.7794 0.70117 0.0
C1108 C 0.98236 0.69935 0.59146 0.0
N1109 N 0.98631 0.69484 0.62558 0.0
C1110 C 0.98199 0.67344 0.5683 0.0
C1111 C 0.98908 0.63846 0.61585 0.0
C1112 C 0.98951 0.66515 0.63814 0.0
C1113 C 0.98572 0.64254 0.58039 0.0
H1114 H 0.98023 0.72332 0.58226 0.0
H1115 H 0.99316 0.66228 0.66541 0.0
O1116 O 0.99975 0.80365 0.7002 0.0
O1117 O 0.95855 0.76407 0.639 0.0
O1118 O 0.03411 0.75897 0.65241 0.0
O1119 O 0.98573 0.72899 0.70364 0.0
H1120 H 0.99216 0.84866 0.74621 0.0
H1121 H 0.05855 0.8175 0.6758 0.0
H1122 H 0.03369 0.89565 0.7635 0.0
H1123 H 0.09884 0.86487 0.69434 0.0
H1124 H 0.87802 0.78724 0.55914 0.0
H1125 H 0.94654 0.82001 0.66662 0.0
H1126 H 0.91916 0.7518 0.58233 0.0
H1127 H 0.9051 0.85417 0.64198 0.0
H1128 H 0.01111 0.90442 0.61073 0.0
H1129 H 0.05296 0.83363 0.55039 0.0
H1130 H 0.90578 0.80119 0.78815 0.0
H1131 H 0.84199 0.75201 0.70481 0.0
H1132 H 0.04021 0.70734 0.68995 0.0
H1133 H 0.08196 0.76414 0.61086 0.0
H1134 H 0.08356 0.67066 0.68526 0.0
H1135 H 0.1247 0.72638 0.60762 0.0
H1136 H 0.98536 0.69377 0.75839 0.0
H1137 H 0.93222 0.70877 0.66166 0.0
H1138 H 0.94164 0.64942 0.76844 0.0
H1139 H 0.88951 0.66431 0.67341 0.0
H1140 H 0.07153 0.74876 0.8178 0.0
H1141 H 0.14168 0.7789 0.74484 0.0
H1142 H 0.97933 0.67772 0.5412 0.0
H1143 H 0.99221 0.6151 0.62626 0.0
Li1144 Li 0.50177 0.29105 0.15128 0.0
Li1145 Li 0.46372 0.26775 0.18999 0.0
Li1146 Li 0.52253 0.26381 0.20018 0.0
Li1147 Li 0.4902 0.23313 0.15371 0.0
C1148 C 0.52247 0.32963 0.20984 0.0
N1149 N 0.56802 0.38228 0.22971 0.0
C1150 C 0.51543 0.35183 0.23461 0.0
C1151 C 0.55266 0.33426 0.19512 0.0
C1152 C 0.53878 0.37828 0.24433 0.0
C1153 C 0.57536 0.36101 0.20552 0.0
C1154 C 0.43578 0.28343 0.1261 0.0
C1155 C 0.39321 0.2941 0.08265 0.0
N1156 N 0.38976 0.3222 0.0995 0.0
C1157 C 0.4318 0.31241 0.14301 0.0
C1158 C 0.41634 0.27416 0.0957 0.0
C1159 C 0.40841 0.33167 0.12915 0.0
C1160 C 0.5288 0.31688 0.09398 0.0
N1161 N 0.51248 0.32484 0.12114 0.0
C1162 C 0.51635 0.38 0.10545 0.0
C1163 C 0.50592 0.35561 0.12716 0.0
C1164 C 0.53379 0.37256 0.07747 0.0
C1165 C 0.53984 0.34048 0.07177 0.0
H1166 H 0.53351 0.29217 0.0898 0.0
H1167 H 0.49308 0.36133 0.1491 0.0
C1168 C 0.42902 0.28684 0.24418 0.0
N1169 N 0.42473 0.27218 0.21264 0.0
C1170 C 0.40176 0.28964 0.26293 0.0
C1171 C 0.36614 0.26206 0.21641 0.0
C1172 C 0.39407 0.26008 0.19841 0.0
C1173 C 0.36982 0.27689 0.24919 0.0
H1174 H 0.45374 0.29601 0.25494 0.0
H1175 H 0.39132 0.24855 0.17326 0.0
C1176 C 0.55786 0.23833 0.15054 0.0
N1177 N 0.60596 0.19688 0.14625 0.0
C1178 C 0.55839 0.21189 0.17167 0.0
C1179 C 0.58187 0.24371 0.1273 0.0
C1180 C 0.58287 0.19121 0.16909 0.0
C1181 C 0.60596 0.22248 0.1255 0.0
C1182 C 0.46182 0.20442 0.20928 0.0
C1183 C 0.46447 0.18758 0.23949 0.0
C1184 C 0.43469 0.19607 0.1852 0.0
C1185 C 0.43987 0.16264 0.24514 0.0
C1186 C 0.41061 0.171 0.19179 0.0
N1187 N 0.41368 0.15494 0.22138 0.0
C1188 C 0.55158 0.25619 0.26667 0.0
C1189 C 0.59009 0.27275 0.22681 0.0
C1190 C 0.57736 0.25574 0.29247 0.0
N1191 N 0.55841 0.26433 0.23457 0.0
C1192 C 0.61659 0.27253 0.25172 0.0
C1193 C 0.61041 0.26369 0.28499 0.0
H1194 H 0.52609 0.24981 0.2721 0.0
H1195 H 0.5949 0.27939 0.20117 0.0
C1196 C 0.48234 0.19934 0.09145 0.0
N1197 N 0.48629 0.19483 0.12557 0.0
C1198 C 0.48197 0.17343 0.06829 0.0
C1199 C 0.48907 0.13845 0.11584 0.0
C1200 C 0.48949 0.16514 0.13814 0.0
C1201 C 0.4857 0.14253 0.08039 0.0
H1202 H 0.48021 0.22331 0.08225 0.0
H1203 H 0.49314 0.16227 0.1654 0.0
O1204 O 0.49973 0.30364 0.20019 0.0
O1205 O 0.45853 0.26406 0.13899 0.0
O1206 O 0.53408 0.25896 0.1524 0.0
O1207 O 0.48571 0.22898 0.20363 0.0
H1208 H 0.49213 0.34865 0.24619 0.0
H1209 H 0.55853 0.31749 0.17579 0.0
H1210 H 0.53366 0.39564 0.26349 0.0
H1211 H 0.59881 0.36486 0.19433 0.0
H1212 H 0.378 0.28723 0.05912 0.0
H1213 H 0.44652 0.32 0.1666 0.0
H1214 H 0.41914 0.25179 0.08232 0.0
H1215 H 0.40508 0.35416 0.14196 0.0
H1216 H 0.51109 0.40441 0.11071 0.0
H1217 H 0.55295 0.33362 0.05039 0.0
H1218 H 0.40575 0.30119 0.28814 0.0
H1219 H 0.34196 0.25201 0.2048 0.0
H1220 H 0.54019 0.20733 0.18995 0.0
H1221 H 0.58194 0.26412 0.11085 0.0
H1222 H 0.58354 0.17066 0.18527 0.0
H1223 H 0.62468 0.22636 0.10762 0.0
H1224 H 0.48533 0.19376 0.25838 0.0
H1225 H 0.4322 0.20876 0.16164 0.0
H1226 H 0.44161 0.14942 0.26843 0.0
H1227 H 0.38949 0.16431 0.17339 0.0
H1228 H 0.5715 0.24876 0.3178 0.0
H1229 H 0.64165 0.2789 0.24484 0.0
H1230 H 0.47931 0.17771 0.04119 0.0
H1231 H 0.4922 0.11509 0.12626 0.0
loop_
_geom_bond_atom_site_label_1
_geom_bond_atom_site_label_2
_geom_bond_distance
_geom_bond_site_symmetry_2
_ccdc_geom_bond_type
O0 Cd1 2.300 1_556 S
O0 C7 1.275 1_556 S
Cd1 O0 2.300 1_554 S
Cd1 O9 2.381 1_544 S
Cd1 O10 2.378 1_545 S
O2 Cd3 2.385 . S
O2 C7 1.255 . S
Cd3 O2 2.385 . S
Cd3 O4 2.317 . S
O4 Cd3 2.317 . S
O4 C5 1.232 1_455 S
C5 O4 1.232 1_655 S
C5 O6 1.218 . S
O6 C5 1.218 . S
C7 O0 1.275 1_554 S
C7 O2 1.255 . S
C8 O9 1.258 1_554 S
C8 O10 1.256 . S
O9 Cd1 2.381 1_566 S
O9 C8 1.258 1_556 S
O10 Cd1 2.378 1_565 S
O10 C8 1.256 . S
O11 Cd12 2.300 . S
O11 C18 1.275 . S
Cd12 O11 2.300 . S
Cd12 O20 2.381 . S
Cd12 O21 2.378 . S
O13 Cd14 2.385 . S
O13 C18 1.255 . S
Cd14 O13 2.385 . S
Cd14 O15 2.317 . S
O15 Cd14 2.317 . S
O15 C16 1.232 . S
C16 O15 1.232 . S
C16 O17 1.218 . S
O17 C16 1.218 . S
C18 O11 1.275 . S
C18 O13 1.255 . S
C19 O20 1.258 . S
C19 O21 1.256 . S
O20 Cd12 2.381 . S
O20 C19 1.258 . S
O21 Cd12 2.378 . S
O21 C19 1.256 . S
O22 Cd23 2.300 . S
O22 C29 1.275 1_655 S
Cd23 O22 2.300 . S
Cd23 O31 2.381 . S
Cd23 O32 2.378 . S
O24 Cd25 2.385 . S
O24 C29 1.255 . S
Cd25 O24 2.385 . S
Cd25 O26 2.317 1_455 S
O26 Cd25 2.317 1_655 S
O26 C27 1.232 1_655 S
C27 O26 1.232 1_455 S
C27 O28 1.218 . S
O28 C27 1.218 . S
C29 O22 1.275 1_455 S
C29 O24 1.255 . S
C30 O31 1.258 . S
C30 O32 1.256 . S
O31 Cd23 2.381 . S
O31 C30 1.258 . S
O32 Cd23 2.378 . S
O32 C30 1.256 . S
O33 Cd34 2.300 . S
O33 C40 1.275 . S
Cd34 O33 2.300 . S
Cd34 O42 2.381 . S
Cd34 O43 2.378 . S
O35 Cd36 2.385 . S
O35 C40 1.255 . S
Cd36 O35 2.385 . S
Cd36 O37 2.317 . S
O37 Cd36 2.317 . S
O37 C38 1.232 . S
C38 O37 1.232 . S
C38 O39 1.218 . S
O39 C38 1.218 . S
C40 O33 1.275 . S
C40 O35 1.255 . S
C41 O42 1.258 . S
C41 O43 1.256 . S
O42 Cd34 2.381 . S
O42 C41 1.258 . S
O43 Cd34 2.378 . S
O43 C41 1.256 . S
O44 Cd45 2.300 . S
O44 C51 1.275 1_565 S
Cd45 O44 2.300 . S
Cd45 O53 2.381 . S
Cd45 O54 2.378 . S
O46 Cd47 2.385 . S
O46 C51 1.255 . S
Cd47 O46 2.385 . S
Cd47 O48 2.317 1_455 S
O48 Cd47 2.317 1_655 S
O48 C49 1.232 . S
C49 O48 1.232 . S
C49 O50 1.218 1_655 S
O50 C49 1.218 1_455 S
C51 O44 1.275 1_545 S
C51 O46 1.255 . S
C52 O53 1.258 . S
C52 O54 1.256 . S
O53 Cd45 2.381 . S
O53 C52 1.258 . S
O54 Cd45 2.378 . S
O54 C52 1.256 . S
O55 Cd56 2.300 . S
O55 C62 1.275 . S
Cd56 O55 2.300 . S
Cd56 O64 2.381 . S
Cd56 O65 2.378 . S
O57 Cd58 2.385 . S
O57 C62 1.255 . S
Cd58 O57 2.385 . S
Cd58 O59 2.317 . S
O59 Cd58 2.317 . S
O59 C60 1.232 . S
C60 O59 1.232 . S
C60 O61 1.218 . S
O61 C60 1.218 . S
C62 O55 1.275 . S
C62 O57 1.255 . S
C63 O64 1.258 . S
C63 O65 1.256 . S
O64 Cd56 2.381 . S
O64 C63 1.258 . S
O65 Cd56 2.378 . S
O65 C63 1.256 . S
O66 Cd67 2.300 . S
O66 C73 1.275 1_655 S
Cd67 O66 2.300 . S
Cd67 O75 2.381 . S
Cd67 O76 2.378 . S
O68 Cd69 2.385 . S
O68 C73 1.255 . S
Cd69 O68 2.385 . S
Cd69 O70 2.317 . S
O70 Cd69 2.317 . S
O70 C71 1.232 . S
C71 O70 1.232 . S
C71 O72 1.218 . S
O72 C71 1.218 . S
C73 O66 1.275 1_455 S
C73 O68 1.255 . S
C74 O75 1.258 . S
C74 O76 1.256 . S
O75 Cd67 2.381 . S
O75 C74 1.258 . S
O76 Cd67 2.378 . S
O76 C74 1.256 . S
O77 Cd78 2.300 . S
O77 C84 1.275 . S
Cd78 O77 2.300 . S
Cd78 O86 2.381 . S
Cd78 O87 2.378 . S
O79 Cd80 2.385 . S
O79 C84 1.255 . S
Cd80 O79 2.385 . S
Cd80 O81 2.317 . S
O81 Cd80 2.317 . S
O81 C82 1.232 . S
C82 O81 1.232 . S
C82 O83 1.218 . S
O83 C82 1.218 . S
C84 O77 1.275 . S
C84 O79 1.255 . S
C85 O86 1.258 . S
C85 O87 1.256 . S
O86 Cd78 2.381 . S
O86 C85 1.258 . S
O87 Cd78 2.378 . S
O87 C85 1.256 . S
O88 Cd89 2.300 . S
O88 C95 1.275 . S
Cd89 O88 2.300 . S
Cd89 O97 2.381 . S
Cd89 O98 2.378 . S
O90 Cd91 2.385 . S
O90 C95 1.255 . S
Cd91 O90 2.385 . S
Cd91 O92 2.317 . S
O92 Cd91 2.317 . S
O92 C93 1.232 . S
C93 O92 1.232 . S
C93 O94 1.218 . S
O94 C93 1.218 . S
C95 O88 1.275 . S
C95 O90 1.255 . S
C96 O97 1.258 . S
C96 O98 1.256 . S
O97 Cd89 2.381 . S
O97 C96 1.258 . S
O98 Cd89 2.378 . S
O98 C96 1.256 . S
O99 Cd100 2.300 . S
O99 C106 1.275 1_545 S
Cd100 O99 2.300 . S
Cd100 O108 2.381 . S
Cd100 O109 2.378 . S
O101 Cd102 2.385 . S
O101 C106 1.255 . S
Cd102 O101 2.385 . S
Cd102 O103 2.317 . S
O103 Cd102 2.317 . S
O103 C104 1.232 . S
C104 O103 1.232 . S
C104 O105 1.218 . S
O105 C104 1.218 . S
C106 O99 1.275 1_565 S
C106 O101 1.255 . S
C107 O108 1.258 . S
C107 O109 1.256 . S
O108 Cd100 2.381 . S
O108 C107 1.258 . S
O109 Cd100 2.378 . S
O109 C107 1.256 . S
O110 Cd111 2.300 . S
O110 C117 1.275 . S
Cd111 O110 2.300 . S
Cd111 O119 2.381 . S
Cd111 O120 2.378 . S
O112 Cd113 2.385 . S
O112 C117 1.255 . S
Cd113 O112 2.385 . S
Cd113 O114 2.317 . S
O114 Cd113 2.317 . S
O114 C115 1.232 . S
C115 O114 1.232 . S
C115 O116 1.218 . S
O116 C115 1.218 . S
C117 O110 1.275 . S
C117 O112 1.255 . S
C118 O119 1.258 . S
C118 O120 1.256 . S
O119 Cd111 2.381 . S
O119 C118 1.258 . S
O120 Cd111 2.378 . S
O120 C118 1.256 . S
O121 Cd122 2.300 . S
O121 C128 1.275 . S
Cd122 O121 2.300 . S
Cd122 O130 2.381 . S
Cd122 O131 2.378 . S
O123 Cd124 2.385 . S
O123 C128 1.255 . S
Cd124 O123 2.385 . S
Cd124 O125 2.317 . S
O125 Cd124 2.317 . S
O125 C126 1.232 . S
C126 O125 1.232 . S
C126 O127 1.218 . S
O127 C126 1.218 . S
C128 O121 1.275 . S
C128 O123 1.255 . S
C129 O130 1.258 . S
C129 O131 1.256 . S
O130 Cd122 2.381 . S
O130 C129 1.258 . S
O131 Cd122 2.378 . S
O131 C129 1.256 . S
O132 Cd133 2.300 . S
O132 C139 1.275 . S
Cd133 O132 2.300 . S
Cd133 O141 2.381 . S
Cd133 O142 2.378 . S
O134 Cd135 2.385 . S
O134 C139 1.255 . S
Cd135 O134 2.385 . S
Cd135 O136 2.317 . S
O136 Cd135 2.317 . S
O136 C137 1.232 . S
C137 O136 1.232 . S
C137 O138 1.218 . S
O138 C137 1.218 . S
C139 O132 1.275 . S
C139 O134 1.255 . S
C140 O141 1.258 . S
C140 O142 1.256 . S
O141 Cd133 2.381 . S
O141 C140 1.258 . S
O142 Cd133 2.378 . S
O142 C140 1.256 . S
O143 Cd144 2.300 . S
O143 C150 1.275 1_554 S
Cd144 O143 2.300 . S
Cd144 O152 2.381 . S
Cd144 O153 2.378 . S
O145 Cd146 2.385 . S
O145 C150 1.255 . S
Cd146 O145 2.385 . S
Cd146 O147 2.317 . S
O147 Cd146 2.317 . S
O147 C148 1.232 . S
C148 O147 1.232 . S
C148 O149 1.218 . S
O149 C148 1.218 . S
C150 O143 1.275 1_556 S
C150 O145 1.255 . S
C151 O152 1.258 . S
C151 O153 1.256 . S
O152 Cd144 2.381 . S
O152 C151 1.258 . S
O153 Cd144 2.378 . S
O153 C151 1.256 . S
O154 Cd155 2.300 . S
O154 C161 1.275 . S
Cd155 O154 2.300 . S
Cd155 O163 2.381 . S
Cd155 O164 2.378 . S
O156 Cd157 2.385 . S
O156 C161 1.255 . S
Cd157 O156 2.385 . S
Cd157 O158 2.317 . S
O158 Cd157 2.317 . S
O158 C159 1.232 . S
C159 O158 1.232 . S
C159 O160 1.218 . S
O160 C159 1.218 . S
C161 O154 1.275 . S
C161 O156 1.255 . S
C162 O163 1.258 . S
C162 O164 1.256 . S
O163 Cd155 2.381 . S
O163 C162 1.258 . S
O164 Cd155 2.378 . S
O164 C162 1.256 . S
O165 Cd166 2.300 1_556 S
O165 C172 1.275 . S
Cd166 O165 2.300 1_554 S
Cd166 O174 2.381 1_544 S
Cd166 O175 2.378 1_545 S
O167 Cd168 2.385 1_556 S
O167 C172 1.255 . S
Cd168 O167 2.385 1_554 S
Cd168 O169 2.317 . S
O169 Cd168 2.317 . S
O169 C170 1.232 . S
C170 O169 1.232 . S
C170 O171 1.218 . S
O171 C170 1.218 . S
C172 O165 1.275 . S
C172 O167 1.255 . S
C173 O174 1.258 1_554 S
C173 O175 1.256 . S
O174 Cd166 2.381 1_566 S
O174 C173 1.258 1_556 S
O175 Cd166 2.378 1_565 S
O175 C173 1.256 . S
Li176 N193 1.990 1_554 S
Li176 O236 1.956 . S
Li176 O237 1.970 . S
Li176 O238 1.961 1_554 S
Li177 N201 1.990 . S
Li177 O236 1.970 . S
Li177 O237 1.956 . S
Li177 O239 1.961 . S
Li178 N223 1.990 . S
Li178 O236 1.961 1_556 S
Li178 O238 1.956 . S
Li178 O239 1.970 1_556 S
Li179 N229 1.990 . S
Li179 O237 1.961 . S
Li179 O238 1.970 1_554 S
Li179 O239 1.956 . S
C180 C182 1.349 1_556 S
C180 C183 1.354 . S
C180 O236 1.325 1_556 S
N181 C184 1.314 1_556 S
N181 C185 1.279 . S
C182 C180 1.349 1_554 S
C182 C184 1.353 . S
C182 H240 0.929 . S
C183 C180 1.354 . S
C183 C185 1.358 . S
C183 H241 0.930 . S
C184 N181 1.314 1_554 S
C184 C182 1.353 . S
C184 H242 0.930 . S
C185 N181 1.279 . S
C185 C183 1.358 . S
C185 H243 0.930 . S
C186 C189 1.348 . S
C186 C190 1.356 . S
C186 O237 1.325 . S
C187 N188 1.279 . S
C187 C190 1.358 . S
C187 H244 0.930 . S
N188 C187 1.279 . S
N188 C191 1.314 . S
C189 C186 1.348 . S
C189 C191 1.353 . S
C189 H245 0.929 . S
C190 C186 1.356 . S
C190 C187 1.358 . S
C190 H246 0.930 . S
C191 N188 1.314 . S
C191 C189 1.353 . S
C191 H247 0.930 . S
C192 N193 1.314 . S
C192 C197 1.353 . S
C192 H198 0.930 . S
N193 Li176 1.990 1_556 S
N193 C192 1.314 . S
N193 C195 1.279 1_556 S
C194 C195 1.358 . S
C194 C196 1.356 1_554 S
C194 H248 0.930 . S
C195 N193 1.279 1_554 S
C195 C194 1.358 . S
C195 H199 0.930 . S
C196 C194 1.356 1_556 S
C196 C197 1.348 . S
C197 C192 1.353 . S
C197 C196 1.348 . S
C197 H249 0.929 . S
H198 C192 0.930 . S
H199 C195 0.930 . S
C200 N201 1.314 . S
C200 C202 1.353 . S
C200 H206 0.930 . S
N201 Li177 1.990 . S
N201 C200 1.314 . S
N201 C204 1.279 . S
C202 C200 1.353 . S
C202 C205 1.348 . S
C202 H250 0.929 . S
C203 C204 1.358 . S
C203 C205 1.356 . S
C203 H251 0.930 . S
C204 N201 1.279 . S
C204 C203 1.358 . S
C204 H207 0.930 . S
C205 C202 1.348 . S
C205 C203 1.356 . S
H206 C200 0.930 . S
H207 C204 0.930 . S
C208 C210 1.348 . S
C208 C211 1.356 . S
C208 O238 1.325 . S
N209 C212 1.314 . S
N209 C213 1.279 . S
C210 C208 1.348 . S
C210 C212 1.353 . S
C210 H252 0.929 . S
C211 C208 1.356 . S
C211 C213 1.358 . S
C211 H253 0.930 . S
C212 N209 1.314 . S
C212 C210 1.353 . S
C212 H254 0.930 . S
C213 N209 1.279 . S
C213 C211 1.358 . S
C213 H255 0.930 . S
C214 C215 1.348 1_554 S
C214 C216 1.356 . S
C214 O239 1.325 . S
C215 C214 1.348 1_556 S
C215 C217 1.353 . S
C215 H256 0.929 . S
C216 C214 1.356 . S
C216 C218 1.358 . S
C216 H257 0.930 . S
C217 C215 1.353 . S
C217 N219 1.314 1_556 S
C217 H258 0.930 . S
C218 C216 1.358 . S
C218 N219 1.279 . S
C218 H259 0.930 . S
N219 C217 1.314 1_554 S
N219 C218 1.279 . S
C220 C222 1.353 . S
C220 N223 1.314 . S
C220 H226 0.930 . S
C221 N223 1.279 . S
C221 C224 1.358 . S
C221 H227 0.930 . S
C222 C220 1.353 . S
C222 C225 1.348 . S
C222 H260 0.929 . S
N223 Li178 1.990 . S
N223 C220 1.314 . S
N223 C221 1.279 . S
C224 C221 1.358 . S
C224 C225 1.356 . S
C224 H261 0.930 . S
C225 C222 1.348 . S
C225 C224 1.356 . S
H226 C220 0.930 . S
H227 C221 0.930 . S
C228 N229 1.314 . S
C228 C230 1.353 . S
C228 H234 0.930 . S
N229 Li179 1.990 . S
N229 C228 1.314 . S
N229 C232 1.279 . S
C230 C228 1.353 . S
C230 C233 1.348 . S
C230 H262 0.929 . S
C231 C232 1.358 . S
C231 C233 1.356 . S
C231 H263 0.930 . S
C232 N229 1.279 . S
C232 C231 1.358 . S
C232 H235 0.930 1_554 S
C233 C230 1.348 . S
C233 C231 1.356 . S
H234 C228 0.930 . S
H235 C232 0.930 1_556 S
O236 Li176 1.956 . S
O236 Li177 1.970 . S
O236 Li178 1.961 1_554 S
O236 C180 1.325 1_554 S
O237 Li176 1.970 . S
O237 Li177 1.956 . S
O237 Li179 1.961 . S
O237 C186 1.325 . S
O238 Li176 1.961 1_556 S
O238 Li178 1.956 . S
O238 Li179 1.970 1_556 S
O238 C208 1.325 . S
O239 Li177 1.961 . S
O239 Li178 1.970 1_554 S
O239 Li179 1.956 . S
O239 C214 1.325 . S
H240 C182 0.929 . S
H241 C183 0.930 . S
H242 C184 0.930 . S
H243 C185 0.930 . S
H244 C187 0.930 . S
H245 C189 0.929 . S
H246 C190 0.930 . S
H247 C191 0.930 . S
H248 C194 0.930 . S
H249 C197 0.929 . S
H250 C202 0.929 . S
H251 C203 0.930 . S
H252 C210 0.929 . S
H253 C211 0.930 . S
H254 C212 0.930 . S
H255 C213 0.930 . S
H256 C215 0.929 . S
H257 C216 0.930 . S
H258 C217 0.930 . S
H259 C218 0.930 . S
H260 C222 0.929 . S
H261 C224 0.930 . S
H262 C230 0.929 . S
H263 C231 0.930 . S
Li264 N281 1.990 . S
Li264 O324 1.956 . S
Li264 O325 1.970 . S
Li264 O326 1.961 . S
Li265 N289 1.990 . S
Li265 O324 1.970 . S
Li265 O325 1.956 . S
Li265 O327 1.961 . S
Li266 N311 1.990 . S
Li266 O324 1.961 . S
Li266 O326 1.956 . S
Li266 O327 1.970 . S
Li267 N317 1.990 . S
Li267 O325 1.961 . S
Li267 O326 1.970 . S
Li267 O327 1.956 . S
C268 C270 1.348 . S
C268 C271 1.356 . S
C268 O324 1.325 . S
N269 C272 1.314 . S
N269 C273 1.279 . S
C270 C268 1.348 . S
C270 C272 1.353 . S
C270 H328 0.929 . S
C271 C268 1.356 . S
C271 C273 1.358 . S
C271 H329 0.930 . S
C272 N269 1.314 . S
C272 C270 1.353 . S
C272 H330 0.930 . S
C273 N269 1.279 . S
C273 C271 1.358 . S
C273 H331 0.930 . S
C274 C277 1.348 . S
C274 C278 1.356 . S
C274 O325 1.325 . S
C275 N276 1.279 . S
C275 C278 1.358 . S
C275 H332 0.930 . S
N276 C275 1.279 . S
N276 C279 1.314 . S
C277 C274 1.348 . S
C277 C279 1.353 . S
C277 H333 0.929 . S
C278 C274 1.356 . S
C278 C275 1.358 . S
C278 H334 0.930 . S
C279 N276 1.314 . S
C279 C277 1.353 . S
C279 H335 0.930 . S
C280 N281 1.314 . S
C280 C285 1.353 . S
C280 H286 0.930 . S
N281 Li264 1.990 . S
N281 C280 1.314 . S
N281 C283 1.279 . S
C282 C283 1.358 . S
C282 C284 1.356 . S
C282 H336 0.930 . S
C283 N281 1.279 . S
C283 C282 1.358 . S
C283 H287 0.930 . S
C284 C282 1.356 . S
C284 C285 1.348 . S
C285 C280 1.353 . S
C285 C284 1.348 . S
C285 H337 0.929 . S
H286 C280 0.930 . S
H287 C283 0.930 . S
C288 N289 1.314 . S
C288 C290 1.353 . S
C288 H294 0.930 . S
N289 Li265 1.990 . S
N289 C288 1.314 . S
N289 C292 1.279 . S
C290 C288 1.353 . S
C290 C293 1.348 . S
C290 H338 0.929 . S
C291 C292 1.358 . S
C291 C293 1.356 . S
C291 H339 0.930 . S
C292 N289 1.279 . S
C292 C291 1.358 . S
C292 H295 0.930 . S
C293 C290 1.348 . S
C293 C291 1.356 . S
H294 C288 0.930 . S
H295 C292 0.930 . S
C296 C298 1.348 . S
C296 C299 1.356 . S
C296 O326 1.325 . S
N297 C300 1.314 . S
N297 C301 1.279 . S
C298 C296 1.348 . S
C298 C300 1.353 . S
C298 H340 0.929 . S
C299 C296 1.356 . S
C299 C301 1.358 . S
C299 H341 0.930 . S
C300 N297 1.314 . S
C300 C298 1.353 . S
C300 H342 0.930 . S
C301 N297 1.279 . S
C301 C299 1.358 . S
C301 H343 0.930 . S
C302 C303 1.348 . S
C302 C304 1.356 . S
C302 O327 1.325 . S
C303 C302 1.348 . S
C303 C305 1.353 . S
C303 H344 0.929 . S
C304 C302 1.356 . S
C304 C306 1.358 . S
C304 H345 0.930 . S
C305 C303 1.353 . S
C305 N307 1.314 . S
C305 H346 0.930 . S
C306 C304 1.358 . S
C306 N307 1.279 . S
C306 H347 0.930 . S
N307 C305 1.314 . S
N307 C306 1.279 . S
C308 C310 1.353 . S
C308 N311 1.314 . S
C308 H314 0.930 . S
C309 N311 1.279 . S
C309 C312 1.358 . S
C309 H315 0.930 . S
C310 C308 1.353 . S
C310 C313 1.348 . S
C310 H348 0.929 . S
N311 Li266 1.990 . S
N311 C308 1.314 . S
N311 C309 1.279 . S
C312 C309 1.358 . S
C312 C313 1.356 . S
C312 H349 0.930 . S
C313 C310 1.348 . S
C313 C312 1.356 . S
H314 C308 0.930 . S
H315 C309 0.930 . S
C316 N317 1.314 . S
C316 C318 1.353 . S
C316 H322 0.930 . S
N317 Li267 1.990 . S
N317 C316 1.314 . S
N317 C320 1.279 . S
C318 C316 1.353 . S
C318 C321 1.348 . S
C318 H350 0.929 1_455 S
C319 C320 1.358 . S
C319 C321 1.356 . S
C319 H351 0.930 . S
C320 N317 1.279 . S
C320 C319 1.358 . S
C320 H323 0.930 . S
C321 C318 1.348 . S
C321 C319 1.356 . S
H322 C316 0.930 . S
H323 C320 0.930 . S
O324 Li264 1.956 . S
O324 Li265 1.970 . S
O324 Li266 1.961 . S
O324 C268 1.325 . S
O325 Li264 1.970 . S
O325 Li265 1.956 . S
O325 Li267 1.961 . S
O325 C274 1.325 . S
O326 Li264 1.961 . S
O326 Li266 1.956 . S
O326 Li267 1.970 . S
O326 C296 1.325 . S
O327 Li265 1.961 . S
O327 Li266 1.970 . S
O327 Li267 1.956 . S
O327 C302 1.325 . S
H328 C270 0.929 . S
H329 C271 0.930 . S
H330 C272 0.930 . S
H331 C273 0.930 . S
H332 C275 0.930 . S
H333 C277 0.929 . S
H334 C278 0.930 . S
H335 C279 0.930 . S
H336 C282 0.930 . S
H337 C285 0.929 . S
H338 C290 0.929 . S
H339 C291 0.930 . S
H340 C298 0.929 . S
H341 C299 0.930 . S
H342 C300 0.930 . S
H343 C301 0.930 . S
H344 C303 0.929 . S
H345 C304 0.930 . S
H346 C305 0.930 . S
H347 C306 0.930 . S
H348 C310 0.929 . S
H349 C312 0.930 . S
H350 C318 0.929 1_655 S
H351 C319 0.930 . S
Li352 N369 1.990 . S
Li352 O412 1.956 . S
Li352 O413 1.970 1_556 S
Li352 O414 1.961 . S
Li353 N377 1.990 . S
Li353 O412 1.970 1_554 S
Li353 O413 1.956 . S
Li353 O415 1.961 . S
Li354 N399 1.990 . S
Li354 O412 1.961 . S
Li354 O414 1.956 . S
Li354 O415 1.970 1_556 S
Li355 N405 1.990 . S
Li355 O413 1.961 . S
Li355 O414 1.970 1_554 S
Li355 O415 1.956 . S
C356 C358 1.348 1_556 S
C356 C359 1.356 . S
C356 O412 1.325 . S
N357 C360 1.314 1_556 S
N357 C361 1.279 . S
C358 C356 1.348 1_554 S
C358 C360 1.353 . S
C358 H416 0.929 . S
C359 C356 1.356 . S
C359 C361 1.358 . S
C359 H417 0.930 . S
C360 N357 1.314 1_554 S
C360 C358 1.353 . S
C360 H418 0.930 . S
C361 N357 1.279 . S
C361 C359 1.358 . S
C361 H419 0.930 . S
C362 C365 1.348 . S
C362 C366 1.356 . S
C362 O413 1.325 . S
C363 N364 1.279 . S
C363 C366 1.358 . S
C363 H420 0.930 . S
N364 C363 1.279 . S
N364 C367 1.314 . S
C365 C362 1.348 . S
C365 C367 1.353 . S
C365 H421 0.929 . S
C366 C362 1.356 . S
C366 C363 1.358 . S
C366 H422 0.930 . S
C367 N364 1.314 . S
C367 C365 1.353 . S
C367 H423 0.930 . S
C368 N369 1.314 . S
C368 C373 1.353 . S
C368 H374 0.930 . S
N369 Li352 1.990 . S
N369 C368 1.314 . S
N369 C371 1.279 . S
C370 C371 1.358 . S
C370 C372 1.356 . S
C370 H424 0.930 . S
C371 N369 1.279 . S
C371 C370 1.358 . S
C371 H375 0.930 . S
C372 C370 1.356 . S
C372 C373 1.348 . S
C373 C368 1.353 . S
C373 C372 1.348 . S
C373 H425 0.929 . S
H374 C368 0.930 . S
H375 C371 0.930 . S
C376 N377 1.314 . S
C376 C378 1.353 . S
C376 H382 0.930 . S
N377 Li353 1.990 . S
N377 C376 1.314 . S
N377 C380 1.279 . S
C378 C376 1.353 . S
C378 C381 1.348 . S
C378 H426 0.929 . S
C379 C380 1.358 . S
C379 C381 1.356 . S
C379 H427 0.930 . S
C380 N377 1.279 . S
C380 C379 1.358 . S
C380 H383 0.930 . S
C381 C378 1.348 . S
C381 C379 1.356 . S
H382 C376 0.930 . S
H383 C380 0.930 . S
C384 C386 1.348 . S
C384 C387 1.356 . S
C384 O414 1.325 . S
N385 C388 1.314 . S
N385 C389 1.279 . S
C386 C384 1.348 . S
C386 C388 1.353 . S
C386 H428 0.929 . S
C387 C384 1.356 . S
C387 C389 1.358 . S
C387 H429 0.930 . S
C388 N385 1.314 . S
C388 C386 1.353 . S
C388 H430 0.930 . S
C389 N385 1.279 . S
C389 C387 1.358 . S
C389 H431 0.930 . S
C390 C391 1.348 1_554 S
C390 C392 1.356 . S
C390 O415 1.325 . S
C391 C390 1.348 1_556 S
C391 C393 1.353 1_556 S
C391 H432 0.929 . S
C392 C390 1.356 . S
C392 C394 1.358 . S
C392 H433 0.930 . S
C393 C391 1.353 1_554 S
C393 N395 1.314 . S
C393 H434 0.930 1_554 S
C394 C392 1.358 . S
C394 N395 1.279 . S
C394 H435 0.930 . S
N395 C393 1.314 . S
N395 C394 1.279 . S
C396 C398 1.353 . S
C396 N399 1.314 . S
C396 H402 0.930 . S
C397 N399 1.279 . S
C397 C400 1.358 . S
C397 H403 0.930 . S
C398 C396 1.353 . S
C398 C401 1.348 . S
C398 H436 0.929 . S
N399 Li354 1.990 . S
N399 C396 1.314 . S
N399 C397 1.279 . S
C400 C397 1.358 . S
C400 C401 1.356 . S
C400 H437 0.930 . S
C401 C398 1.348 . S
C401 C400 1.356 . S
H402 C396 0.930 . S
H403 C397 0.930 . S
C404 N405 1.314 . S
C404 C406 1.353 . S
C404 H410 0.930 . S
N405 Li355 1.990 . S
N405 C404 1.314 . S
N405 C408 1.279 . S
C406 C404 1.353 . S
C406 C409 1.348 . S
C406 H438 0.929 . S
C407 C408 1.358 . S
C407 C409 1.356 . S
C407 H439 0.930 . S
C408 N405 1.279 . S
C408 C407 1.358 . S
C408 H411 0.930 . S
C409 C406 1.348 . S
C409 C407 1.356 . S
H410 C404 0.930 . S
H411 C408 0.930 . S
O412 Li352 1.956 . S
O412 Li353 1.970 1_556 S
O412 Li354 1.961 . S
O412 C356 1.325 . S
O413 Li352 1.970 1_554 S
O413 Li353 1.956 . S
O413 Li355 1.961 . S
O413 C362 1.325 . S
O414 Li352 1.961 . S
O414 Li354 1.956 . S
O414 Li355 1.970 1_556 S
O414 C384 1.325 . S
O415 Li353 1.961 . S
O415 Li354 1.970 1_554 S
O415 Li355 1.956 . S
O415 C390 1.325 . S
H416 C358 0.929 . S
H417 C359 0.930 . S
H418 C360 0.930 . S
H419 C361 0.930 . S
H420 C363 0.930 . S
H421 C365 0.929 . S
H422 C366 0.930 . S
H423 C367 0.930 . S
H424 C370 0.930 . S
H425 C373 0.929 . S
H426 C378 0.929 . S
H427 C379 0.930 . S
H428 C386 0.929 . S
H429 C387 0.930 . S
H430 C388 0.930 . S
H431 C389 0.930 . S
H432 C391 0.929 . S
H433 C392 0.930 . S
H434 C393 0.930 1_556 S
H435 C394 0.930 . S
H436 C398 0.929 . S
H437 C400 0.930 . S
H438 C406 0.929 . S
H439 C407 0.930 . S
Li440 N457 1.990 . S
Li440 O500 1.956 . S
Li440 O501 1.970 . S
Li440 O502 1.961 . S
Li441 N465 1.990 . S
Li441 O500 1.970 . S
Li441 O501 1.956 . S
Li441 O503 1.961 1_545 S
Li442 N487 1.990 . S
Li442 O500 1.961 . S
Li442 O502 1.956 . S
Li442 O503 1.970 1_545 S
Li443 N493 1.990 . S
Li443 O501 1.961 1_565 S
Li443 O502 1.970 1_565 S
Li443 O503 1.956 . S
C444 C446 1.348 . S
C444 C447 1.356 . S
C444 O500 1.325 . S
N445 C448 1.314 . S
N445 C449 1.279 . S
C446 C444 1.348 . S
C446 C448 1.353 . S
C446 H504 0.929 . S
C447 C444 1.356 . S
C447 C449 1.358 . S
C447 H505 0.930 . S
C448 N445 1.314 . S
C448 C446 1.353 . S
C448 H506 0.930 . S
C449 N445 1.279 . S
C449 C447 1.358 . S
C449 H507 0.930 . S
C450 C453 1.348 . S
C450 C454 1.356 1_545 S
C450 O501 1.325 . S
C451 N452 1.279 1_565 S
C451 C454 1.358 . S
C451 H508 0.930 . S
N452 C451 1.279 1_545 S
N452 C455 1.314 . S
C453 C450 1.348 . S
C453 C455 1.353 . S
C453 H509 0.929 . S
C454 C450 1.356 1_565 S
C454 C451 1.358 . S
C454 H510 0.930 . S
C455 N452 1.314 . S
C455 C453 1.353 . S
C455 H511 0.930 . S
C456 N457 1.314 . S
C456 C461 1.353 . S
C456 H462 0.930 . S
N457 Li440 1.990 . S
N457 C456 1.314 . S
N457 C459 1.279 . S
C458 C459 1.358 . S
C458 C460 1.356 . S
C458 H512 0.930 . S
C459 N457 1.279 . S
C459 C458 1.358 . S
C459 H463 0.930 . S
C460 C458 1.356 . S
C460 C461 1.348 . S
C461 C456 1.353 . S
C461 C460 1.348 . S
C461 H513 0.929 . S
H462 C456 0.930 . S
H463 C459 0.930 . S
C464 N465 1.314 . S
C464 C466 1.351 1_545 S
C464 H470 0.930 1_545 S
N465 Li441 1.990 . S
N465 C464 1.314 . S
N465 C468 1.279 . S
C466 C464 1.351 1_565 S
C466 C469 1.345 1_565 S
C466 H514 0.935 1_655 S
C467 C468 1.358 . S
C467 C469 1.356 . S
C467 H515 0.930 . S
C468 N465 1.279 . S
C468 C467 1.358 . S
C468 H471 0.930 . S
C469 C466 1.345 1_545 S
C469 C467 1.356 . S
H470 C464 0.930 1_565 S
H471 C468 0.930 . S
C472 C474 1.334 1_545 S
C472 C475 1.356 . S
C472 O502 1.325 . S
N473 C476 1.314 . S
N473 C477 1.279 . S
C474 C472 1.334 1_565 S
C474 C476 1.348 1_565 S
C474 H516 0.948 . S
C475 C472 1.356 . S
C475 C477 1.358 . S
C475 H517 0.930 . S
C476 N473 1.314 . S
C476 C474 1.348 1_545 S
C476 H518 0.930 1_545 S
C477 N473 1.279 . S
C477 C475 1.358 . S
C477 H519 0.930 . S
C478 C479 1.348 . S
C478 C480 1.356 . S
C478 O503 1.325 . S
C479 C478 1.348 . S
C479 C481 1.353 . S
C479 H520 0.929 . S
C480 C478 1.356 . S
C480 C482 1.358 . S
C480 H521 0.930 . S
C481 C479 1.353 . S
C481 N483 1.314 . S
C481 H522 0.930 . S
C482 C480 1.358 . S
C482 N483 1.279 . S
C482 H523 0.930 . S
N483 C481 1.314 . S
N483 C482 1.279 . S
C484 C486 1.353 . S
C484 N487 1.314 . S
C484 H490 0.930 . S
C485 N487 1.279 . S
C485 C488 1.358 . S
C485 H491 0.930 . S
C486 C484 1.353 . S
C486 C489 1.348 . S
C486 H524 0.929 . S
N487 Li442 1.990 . S
N487 C484 1.314 . S
N487 C485 1.279 . S
C488 C485 1.358 . S
C488 C489 1.356 . S
C488 H525 0.930 . S
C489 C486 1.348 . S
C489 C488 1.356 . S
H490 C484 0.930 . S
H491 C485 0.930 . S
C492 N493 1.314 . S
C492 C494 1.353 . S
C492 H498 0.930 . S
N493 Li443 1.990 . S
N493 C492 1.314 . S
N493 C496 1.279 . S
C494 C492 1.353 . S
C494 C497 1.348 . S
C494 H526 0.929 . S
C495 C496 1.358 . S
C495 C497 1.356 . S
C495 H527 0.930 . S
C496 N493 1.279 . S
C496 C495 1.358 . S
C496 H499 0.930 . S
C497 C494 1.348 . S
C497 C495 1.356 . S
H498 C492 0.930 . S
H499 C496 0.930 . S
O500 Li440 1.956 . S
O500 Li441 1.970 . S
O500 Li442 1.961 . S
O500 C444 1.325 . S
O501 Li440 1.970 . S
O501 Li441 1.956 . S
O501 Li443 1.961 1_545 S
O501 C450 1.325 . S
O502 Li440 1.961 . S
O502 Li442 1.956 . S
O502 Li443 1.970 1_545 S
O502 C472 1.325 . S
O503 Li441 1.961 1_565 S
O503 Li442 1.970 1_565 S
O503 Li443 1.956 . S
O503 C478 1.325 . S
H504 C446 0.929 . S
H505 C447 0.930 . S
H506 C448 0.930 . S
H507 C449 0.930 . S
H508 C451 0.930 . S
H509 C453 0.929 . S
H510 C454 0.930 . S
H511 C455 0.930 . S
H512 C458 0.930 . S
H513 C461 0.929 . S
H514 C466 0.935 1_455 S
H515 C467 0.930 . S
H516 C474 0.948 . S
H517 C475 0.930 . S
H518 C476 0.930 1_565 S
H519 C477 0.930 . S
H520 C479 0.929 . S
H521 C480 0.930 . S
H522 C481 0.930 . S
H523 C482 0.930 . S
H524 C486 0.929 . S
H525 C488 0.930 . S
H526 C494 0.929 . S
H527 C495 0.930 . S
Li528 N545 1.990 . S
Li528 O588 1.956 . S
Li528 O589 1.970 . S
Li528 O590 1.961 . S
Li529 N553 1.990 . S
Li529 O588 1.970 . S
Li529 O589 1.956 . S
Li529 O591 1.961 . S
Li530 N575 1.990 . S
Li530 O588 1.961 . S
Li530 O590 1.956 . S
Li530 O591 1.970 . S
Li531 N581 1.990 . S
Li531 O589 1.961 . S
Li531 O590 1.970 . S
Li531 O591 1.956 . S
C532 C534 1.348 . S
C532 C535 1.356 . S
C532 O588 1.325 . S
N533 C536 1.314 . S
N533 C537 1.279 . S
C534 C532 1.348 . S
C534 C536 1.353 . S
C534 H592 0.929 . S
C535 C532 1.356 . S
C535 C537 1.358 . S
C535 H593 0.930 . S
C536 N533 1.314 . S
C536 C534 1.353 . S
C536 H594 0.930 . S
C537 N533 1.279 . S
C537 C535 1.358 . S
C537 H595 0.930 . S
C538 C541 1.348 . S
C538 C542 1.356 . S
C538 O589 1.325 . S
C539 N540 1.279 . S
C539 C542 1.358 . S
C539 H596 0.930 . S
N540 C539 1.279 . S
N540 C543 1.314 . S
C541 C538 1.348 . S
C541 C543 1.353 . S
C541 H597 0.929 . S
C542 C538 1.356 . S
C542 C539 1.358 . S
C542 H598 0.930 . S
C543 N540 1.314 . S
C543 C541 1.353 . S
C543 H599 0.930 . S
C544 N545 1.314 . S
C544 C549 1.353 . S
C544 H550 0.930 . S
N545 Li528 1.990 . S
N545 C544 1.314 . S
N545 C547 1.279 . S
C546 C547 1.358 . S
C546 C548 1.356 . S
C546 H600 0.930 . S
C547 N545 1.279 . S
C547 C546 1.358 . S
C547 H551 0.930 . S
C548 C546 1.356 . S
C548 C549 1.348 . S
C549 C544 1.353 . S
C549 C548 1.348 . S
C549 H601 0.929 . S
H550 C544 0.930 . S
H551 C547 0.930 . S
C552 N553 1.314 . S
C552 C554 1.353 . S
C552 H558 0.930 . S
N553 Li529 1.990 . S
N553 C552 1.314 . S
N553 C556 1.279 . S
C554 C552 1.353 . S
C554 C557 1.348 . S
C554 H602 0.929 . S
C555 C556 1.358 . S
C555 C557 1.356 . S
C555 H603 0.930 . S
C556 N553 1.279 . S
C556 C555 1.358 . S
C556 H559 0.930 . S
C557 C554 1.348 . S
C557 C555 1.356 . S
H558 C552 0.930 . S
H559 C556 0.930 . S
C560 C562 1.348 . S
C560 C563 1.356 . S
C560 O590 1.325 . S
N561 C564 1.314 . S
N561 C565 1.279 . S
C562 C560 1.348 . S
C562 C564 1.353 . S
C562 H604 0.929 . S
C563 C560 1.356 . S
C563 C565 1.358 . S
C563 H605 0.930 . S
C564 N561 1.314 . S
C564 C562 1.353 . S
C564 H606 0.930 . S
C565 N561 1.279 . S
C565 C563 1.358 . S
C565 H607 0.930 . S
C566 C567 1.348 . S
C566 C568 1.356 . S
C566 O591 1.325 . S
C567 C566 1.348 . S
C567 C569 1.353 . S
C567 H608 0.929 . S
C568 C566 1.356 . S
C568 C570 1.358 . S
C568 H609 0.930 . S
C569 C567 1.353 . S
C569 N571 1.314 . S
C569 H610 0.930 . S
C570 C568 1.358 . S
C570 N571 1.279 . S
C570 H611 0.930 . S
N571 C569 1.314 . S
N571 C570 1.279 . S
C572 C574 1.353 . S
C572 N575 1.314 . S
C572 H578 0.930 . S
C573 N575 1.279 . S
C573 C576 1.358 . S
C573 H579 0.930 . S
C574 C572 1.353 . S
C574 C577 1.348 . S
C574 H612 0.929 . S
N575 Li530 1.990 . S
N575 C572 1.314 . S
N575 C573 1.279 . S
C576 C573 1.358 . S
C576 C577 1.356 . S
C576 H613 0.930 . S
C577 C574 1.348 . S
C577 C576 1.356 . S
H578 C572 0.930 . S
H579 C573 0.930 . S
C580 N581 1.314 . S
C580 C582 1.353 . S
C580 H586 0.930 . S
N581 Li531 1.990 . S
N581 C580 1.314 . S
N581 C584 1.279 . S
C582 C580 1.353 . S
C582 C585 1.348 . S
C582 H614 0.929 . S
C583 C584 1.358 . S
C583 C585 1.356 . S
C583 H615 0.930 . S
C584 N581 1.279 . S
C584 C583 1.358 . S
C584 H587 0.930 . S
C585 C582 1.348 . S
C585 C583 1.356 . S
H586 C580 0.930 . S
H587 C584 0.930 . S
O588 Li528 1.956 . S
O588 Li529 1.970 . S
O588 Li530 1.961 . S
O588 C532 1.325 . S
O589 Li528 1.970 . S
O589 Li529 1.956 . S
O589 Li531 1.961 . S
O589 C538 1.325 . S
O590 Li528 1.961 . S
O590 Li530 1.956 . S
O590 Li531 1.970 . S
O590 C560 1.325 . S
O591 Li529 1.961 . S
O591 Li530 1.970 . S
O591 Li531 1.956 . S
O591 C566 1.325 . S
H592 C534 0.929 . S
H593 C535 0.930 . S
H594 C536 0.930 . S
H595 C537 0.930 . S
H596 C539 0.930 . S
H597 C541 0.929 . S
H598 C542 0.930 . S
H599 C543 0.930 . S
H600 C546 0.930 . S
H601 C549 0.929 . S
H602 C554 0.929 . S
H603 C555 0.930 . S
H604 C562 0.929 . S
H605 C563 0.930 . S
H606 C564 0.930 . S
H607 C565 0.930 . S
H608 C567 0.929 . S
H609 C568 0.930 . S
H610 C569 0.930 . S
H611 C570 0.930 . S
H612 C574 0.929 . S
H613 C576 0.930 . S
H614 C582 0.929 . S
H615 C583 0.930 . S
Li616 N633 1.990 . S
Li616 O676 1.956 . S
Li616 O677 1.970 . S
Li616 O678 1.961 . S
Li617 N641 1.990 . S
Li617 O676 1.970 . S
Li617 O677 1.956 . S
Li617 O679 1.961 . S
Li618 N663 1.990 . S
Li618 O676 1.961 . S
Li618 O678 1.956 . S
Li618 O679 1.970 . S
Li619 N669 1.990 . S
Li619 O677 1.961 . S
Li619 O678 1.970 . S
Li619 O679 1.956 . S
C620 C622 1.348 . S
C620 C623 1.356 . S
C620 O676 1.325 . S
N621 C624 1.314 . S
N621 C625 1.279 . S
C622 C620 1.348 . S
C622 C624 1.353 . S
C622 H680 0.929 . S
C623 C620 1.356 . S
C623 C625 1.358 . S
C623 H681 0.930 . S
C624 N621 1.314 . S
C624 C622 1.353 . S
C624 H682 0.930 . S
C625 N621 1.279 . S
C625 C623 1.358 . S
C625 H683 0.930 . S
C626 C629 1.348 . S
C626 C630 1.356 . S
C626 O677 1.325 . S
C627 N628 1.279 . S
C627 C630 1.358 . S
C627 H684 0.930 . S
N628 C627 1.279 . S
N628 C631 1.314 . S
C629 C626 1.348 . S
C629 C631 1.353 . S
C629 H685 0.929 . S
C630 C626 1.356 . S
C630 C627 1.358 . S
C630 H686 0.930 . S
C631 N628 1.314 . S
C631 C629 1.353 . S
C631 H687 0.930 . S
C632 N633 1.314 . S
C632 C637 1.353 . S
C632 H638 0.930 . S
N633 Li616 1.990 . S
N633 C632 1.314 . S
N633 C635 1.279 . S
C634 C635 1.358 . S
C634 C636 1.356 . S
C634 H688 0.930 . S
C635 N633 1.279 . S
C635 C634 1.358 . S
C635 H639 0.930 . S
C636 C634 1.356 . S
C636 C637 1.348 . S
C637 C632 1.353 . S
C637 C636 1.348 . S
C637 H689 0.929 . S
H638 C632 0.930 . S
H639 C635 0.930 . S
C640 N641 1.314 . S
C640 C642 1.353 . S
C640 H646 0.930 . S
N641 Li617 1.990 . S
N641 C640 1.314 . S
N641 C644 1.279 . S
C642 C640 1.353 . S
C642 C645 1.348 . S
C642 H690 0.929 . S
C643 C644 1.358 . S
C643 C645 1.356 . S
C643 H691 0.930 . S
C644 N641 1.279 . S
C644 C643 1.358 . S
C644 H647 0.930 . S
C645 C642 1.348 . S
C645 C643 1.356 . S
H646 C640 0.930 . S
H647 C644 0.930 . S
C648 C650 1.348 . S
C648 C651 1.356 . S
C648 O678 1.325 . S
N649 C652 1.314 . S
N649 C653 1.279 . S
C650 C648 1.348 . S
C650 C652 1.353 . S
C650 H692 0.929 . S
C651 C648 1.356 . S
C651 C653 1.358 . S
C651 H693 0.930 . S
C652 N649 1.314 . S
C652 C650 1.353 . S
C652 H694 0.930 . S
C653 N649 1.279 . S
C653 C651 1.358 . S
C653 H695 0.930 . S
C654 C655 1.348 . S
C654 C656 1.356 . S
C654 O679 1.325 . S
C655 C654 1.348 . S
C655 C657 1.353 . S
C655 H696 0.929 . S
C656 C654 1.356 . S
C656 C658 1.358 . S
C656 H697 0.930 . S
C657 C655 1.353 . S
C657 N659 1.314 . S
C657 H698 0.930 . S
C658 C656 1.358 . S
C658 N659 1.279 . S
C658 H699 0.930 . S
N659 C657 1.314 . S
N659 C658 1.279 . S
C660 C662 1.353 . S
C660 N663 1.314 . S
C660 H666 0.930 . S
C661 N663 1.279 . S
C661 C664 1.358 . S
C661 H667 0.930 . S
C662 C660 1.353 . S
C662 C665 1.348 . S
C662 H700 0.929 . S
N663 Li618 1.990 . S
N663 C660 1.314 . S
N663 C661 1.279 . S
C664 C661 1.358 . S
C664 C665 1.356 . S
C664 H701 0.930 . S
C665 C662 1.348 . S
C665 C664 1.356 . S
H666 C660 0.930 . S
H667 C661 0.930 . S
C668 N669 1.314 . S
C668 C670 1.353 . S
C668 H674 0.930 . S
N669 Li619 1.990 . S
N669 C668 1.314 . S
N669 C672 1.279 . S
C670 C668 1.353 . S
C670 C673 1.348 . S
C670 H702 0.929 . S
C671 C672 1.358 . S
C671 C673 1.356 . S
C671 H703 0.930 . S
C672 N669 1.279 . S
C672 C671 1.358 . S
C672 H675 0.930 . S
C673 C670 1.348 . S
C673 C671 1.356 . S
H674 C668 0.930 . S
H675 C672 0.930 . S
O676 Li616 1.956 . S
O676 Li617 1.970 . S
O676 Li618 1.961 . S
O676 C620 1.325 . S
O677 Li616 1.970 . S
O677 Li617 1.956 . S
O677 Li619 1.961 . S
O677 C626 1.325 . S
O678 Li616 1.961 . S
O678 Li618 1.956 . S
O678 Li619 1.970 . S
O678 C648 1.325 . S
O679 Li617 1.961 . S
O679 Li618 1.970 . S
O679 Li619 1.956 . S
O679 C654 1.325 . S
H680 C622 0.929 . S
H681 C623 0.930 . S
H682 C624 0.930 . S
H683 C625 0.930 . S
H684 C627 0.930 . S
H685 C629 0.929 . S
H686 C630 0.930 . S
H687 C631 0.930 . S
H688 C634 0.930 . S
H689 C637 0.929 . S
H690 C642 0.929 . S
H691 C643 0.930 . S
H692 C650 0.929 . S
H693 C651 0.930 . S
H694 C652 0.930 . S
H695 C653 0.930 . S
H696 C655 0.929 . S
H697 C656 0.930 . S
H698 C657 0.930 . S
H699 C658 0.930 . S
H700 C662 0.929 . S
H701 C664 0.930 . S
H702 C670 0.929 . S
H703 C671 0.930 . S
Li704 N721 1.990 . S
Li704 O764 1.956 . S
Li704 O765 1.970 . S
Li704 O766 1.961 . S
Li705 N729 1.990 . S
Li705 O764 1.970 . S
Li705 O765 1.956 . S
Li705 O767 1.961 . S
Li706 N751 1.990 . S
Li706 O764 1.961 . S
Li706 O766 1.956 . S
Li706 O767 1.970 . S
Li707 N757 1.990 . S
Li707 O765 1.961 . S
Li707 O766 1.970 . S
Li707 O767 1.956 . S
C708 C710 1.348 . S
C708 C711 1.356 . S
C708 O764 1.325 . S
N709 C712 1.314 . S
N709 C713 1.279 . S
C710 C708 1.348 . S
C710 C712 1.353 . S
C710 H768 0.929 . S
C711 C708 1.356 . S
C711 C713 1.358 . S
C711 H769 0.930 . S
C712 N709 1.314 . S
C712 C710 1.353 . S
C712 H770 0.930 . S
C713 N709 1.279 . S
C713 C711 1.358 . S
C713 H771 0.930 . S
C714 C717 1.348 . S
C714 C718 1.356 . S
C714 O765 1.325 . S
C715 N716 1.279 . S
C715 C718 1.358 . S
C715 H772 0.930 . S
N716 C715 1.279 . S
N716 C719 1.314 . S
C717 C714 1.348 . S
C717 C719 1.353 . S
C717 H773 0.929 . S
C718 C714 1.356 . S
C718 C715 1.358 . S
C718 H774 0.930 . S
C719 N716 1.314 . S
C719 C717 1.353 . S
C719 H775 0.930 . S
C720 N721 1.314 . S
C720 C725 1.353 . S
C720 H726 0.930 . S
N721 Li704 1.990 . S
N721 C720 1.314 . S
N721 C723 1.279 . S
C722 C723 1.358 . S
C722 C724 1.356 . S
C722 H776 0.930 . S
C723 N721 1.279 . S
C723 C722 1.358 . S
C723 H727 0.930 . S
C724 C722 1.356 . S
C724 C725 1.348 . S
C725 C720 1.353 . S
C725 C724 1.348 . S
C725 H777 0.929 . S
H726 C720 0.930 . S
H727 C723 0.930 . S
C728 N729 1.314 . S
C728 C730 1.353 . S
C728 H734 0.930 . S
N729 Li705 1.990 . S
N729 C728 1.314 . S
N729 C732 1.279 . S
C730 C728 1.353 . S
C730 C733 1.348 . S
C730 H778 0.929 . S
C731 C732 1.358 . S
C731 C733 1.356 . S
C731 H779 0.930 . S
C732 N729 1.279 . S
C732 C731 1.358 . S
C732 H735 0.930 . S
C733 C730 1.348 . S
C733 C731 1.356 . S
H734 C728 0.930 . S
H735 C732 0.930 . S
C736 C738 1.348 . S
C736 C739 1.356 . S
C736 O766 1.325 . S
N737 C740 1.314 . S
N737 C741 1.279 . S
C738 C736 1.348 . S
C738 C740 1.353 . S
C738 H780 0.929 . S
C739 C736 1.356 . S
C739 C741 1.358 . S
C739 H781 0.930 . S
C740 N737 1.314 . S
C740 C738 1.353 . S
C740 H782 0.930 . S
C741 N737 1.279 . S
C741 C739 1.358 . S
C741 H783 0.930 . S
C742 C743 1.348 . S
C742 C744 1.356 . S
C742 O767 1.325 . S
C743 C742 1.348 . S
C743 C745 1.353 . S
C743 H784 0.929 . S
C744 C742 1.356 . S
C744 C746 1.358 . S
C744 H785 0.930 . S
C745 C743 1.353 . S
C745 N747 1.314 . S
C745 H786 0.930 . S
C746 C744 1.358 . S
C746 N747 1.279 . S
C746 H787 0.930 . S
N747 C745 1.314 . S
N747 C746 1.279 . S
C748 C750 1.353 . S
C748 N751 1.314 . S
C748 H754 0.930 . S
C749 N751 1.279 . S
C749 C752 1.358 . S
C749 H755 0.930 . S
C750 C748 1.353 . S
C750 C753 1.348 . S
C750 H788 0.929 . S
N751 Li706 1.990 . S
N751 C748 1.314 . S
N751 C749 1.279 . S
C752 C749 1.358 . S
C752 C753 1.356 . S
C752 H789 0.930 . S
C753 C750 1.348 . S
C753 C752 1.356 . S
H754 C748 0.930 . S
H755 C749 0.930 . S
C756 N757 1.314 . S
C756 C758 1.353 . S
C756 H762 0.930 . S
N757 Li707 1.990 . S
N757 C756 1.314 . S
N757 C760 1.279 . S
C758 C756 1.353 . S
C758 C761 1.348 . S
C758 H790 0.929 . S
C759 C760 1.358 . S
C759 C761 1.356 . S
C759 H791 0.930 . S
C760 N757 1.279 . S
C760 C759 1.358 . S
C760 H763 0.930 . S
C761 C758 1.348 . S
C761 C759 1.356 . S
H762 C756 0.930 . S
H763 C760 0.930 . S
O764 Li704 1.956 . S
O764 Li705 1.970 . S
O764 Li706 1.961 . S
O764 C708 1.325 . S
O765 Li704 1.970 . S
O765 Li705 1.956 . S
O765 Li707 1.961 . S
O765 C714 1.325 . S
O766 Li704 1.961 . S
O766 Li706 1.956 . S
O766 Li707 1.970 . S
O766 C736 1.325 . S
O767 Li705 1.961 . S
O767 Li706 1.970 . S
O767 Li707 1.956 . S
O767 C742 1.325 . S
H768 C710 0.929 . S
H769 C711 0.930 . S
H770 C712 0.930 . S
H771 C713 0.930 . S
H772 C715 0.930 . S
H773 C717 0.929 . S
H774 C718 0.930 . S
H775 C719 0.930 . S
H776 C722 0.930 . S
H777 C725 0.929 . S
H778 C730 0.929 . S
H779 C731 0.930 . S
H780 C738 0.929 . S
H781 C739 0.930 . S
H782 C740 0.930 . S
H783 C741 0.930 . S
H784 C743 0.929 . S
H785 C744 0.930 . S
H786 C745 0.930 . S
H787 C746 0.930 . S
H788 C750 0.929 . S
H789 C752 0.930 . S
H790 C758 0.929 . S
H791 C759 0.930 . S
Li792 N809 1.990 . S
Li792 O852 1.956 . S
Li792 O853 1.970 1_565 S
Li792 O854 1.961 . S
Li793 N817 1.990 . S
Li793 O852 1.970 1_545 S
Li793 O853 1.956 . S
Li793 O855 1.961 . S
Li794 N839 1.990 . S
Li794 O852 1.961 . S
Li794 O854 1.956 . S
Li794 O855 1.970 1_565 S
Li795 N845 1.990 . S
Li795 O853 1.961 . S
Li795 O854 1.970 1_545 S
Li795 O855 1.956 . S
C796 C798 1.348 . S
C796 C799 1.356 . S
C796 O852 1.325 . S
N797 C800 1.314 . S
N797 C801 1.279 . S
C798 C796 1.348 . S
C798 C800 1.353 . S
C798 H856 0.929 . S
C799 C796 1.356 . S
C799 C801 1.358 . S
C799 H857 0.930 . S
C800 N797 1.314 . S
C800 C798 1.353 . S
C800 H858 0.930 . S
C801 N797 1.279 . S
C801 C799 1.358 . S
C801 H859 0.930 . S
C802 C805 1.348 1_545 S
C802 C806 1.356 . S
C802 O853 1.325 . S
C803 N804 1.279 . S
C803 C806 1.358 . S
C803 H860 0.930 . S
N804 C803 1.279 . S
N804 C807 1.314 1_545 S
C805 C802 1.348 1_565 S
C805 C807 1.353 . S
C805 H861 0.929 . S
C806 C802 1.356 . S
C806 C803 1.358 . S
C806 H862 0.930 . S
C807 N804 1.314 1_565 S
C807 C805 1.353 . S
C807 H863 0.930 . S
C808 N809 1.314 . S
C808 C813 1.353 . S
C808 H814 0.930 . S
N809 Li792 1.990 . S
N809 C808 1.314 . S
N809 C811 1.279 . S
C810 C811 1.358 . S
C810 C812 1.356 . S
C810 H864 0.930 . S
C811 N809 1.279 . S
C811 C810 1.358 . S
C811 H815 0.930 . S
C812 C810 1.356 . S
C812 C813 1.348 . S
C813 C808 1.353 . S
C813 C812 1.348 . S
C813 H865 0.929 . S
H814 C808 0.930 . S
H815 C811 0.930 . S
C816 N817 1.314 . S
C816 C818 1.353 . S
C816 H822 0.930 . S
N817 Li793 1.990 . S
N817 C816 1.314 . S
N817 C820 1.279 . S
C818 C816 1.353 . S
C818 C821 1.348 . S
C818 H866 0.929 . S
C819 C820 1.358 . S
C819 C821 1.356 . S
C819 H867 0.930 . S
C820 N817 1.279 . S
C820 C819 1.358 . S
C820 H823 0.930 . S
C821 C818 1.348 . S
C821 C819 1.356 . S
H822 C816 0.930 . S
H823 C820 0.930 . S
C824 C826 1.348 1_565 S
C824 C827 1.356 . S
C824 O854 1.325 . S
N825 C828 1.314 1_565 S
N825 C829 1.279 . S
C826 C824 1.348 1_545 S
C826 C828 1.353 . S
C826 H868 0.929 . S
C827 C824 1.356 . S
C827 C829 1.358 . S
C827 H869 0.930 . S
C828 N825 1.314 1_545 S
C828 C826 1.353 . S
C828 H870 0.930 . S
C829 N825 1.279 . S
C829 C827 1.358 . S
C829 H871 0.930 . S
C830 C831 1.348 . S
C830 C832 1.356 . S
C830 O855 1.325 . S
C831 C830 1.348 . S
C831 C833 1.353 . S
C831 H872 0.929 . S
C832 C830 1.356 . S
C832 C834 1.358 . S
C832 H873 0.930 . S
C833 C831 1.353 . S
C833 N835 1.314 . S
C833 H874 0.930 . S
C834 C832 1.358 . S
C834 N835 1.279 . S
C834 H875 0.930 . S
N835 C833 1.314 . S
N835 C834 1.279 . S
C836 C838 1.353 . S
C836 N839 1.314 . S
C836 H842 0.930 . S
C837 N839 1.279 . S
C837 C840 1.358 . S
C837 H843 0.930 . S
C838 C836 1.353 . S
C838 C841 1.348 . S
C838 H876 0.929 . S
N839 Li794 1.990 . S
N839 C836 1.314 . S
N839 C837 1.279 . S
C840 C837 1.358 . S
C840 C841 1.356 . S
C840 H877 0.930 . S
C841 C838 1.348 . S
C841 C840 1.356 . S
H842 C836 0.930 . S
H843 C837 0.930 . S
C844 N845 1.314 . S
C844 C846 1.353 . S
C844 H850 0.930 . S
N845 Li795 1.990 . S
N845 C844 1.314 . S
N845 C848 1.279 . S
C846 C844 1.353 . S
C846 C849 1.348 . S
C846 H878 0.929 . S
C847 C848 1.358 . S
C847 C849 1.356 . S
C847 H879 0.930 . S
C848 N845 1.279 . S
C848 C847 1.358 . S
C848 H851 0.930 . S
C849 C846 1.348 . S
C849 C847 1.356 . S
H850 C844 0.930 . S
H851 C848 0.930 . S
O852 Li792 1.956 . S
O852 Li793 1.970 1_565 S
O852 Li794 1.961 . S
O852 C796 1.325 . S
O853 Li792 1.970 1_545 S
O853 Li793 1.956 . S
O853 Li795 1.961 . S
O853 C802 1.325 . S
O854 Li792 1.961 . S
O854 Li794 1.956 . S
O854 Li795 1.970 1_565 S
O854 C824 1.325 . S
O855 Li793 1.961 . S
O855 Li794 1.970 1_545 S
O855 Li795 1.956 . S
O855 C830 1.325 . S
H856 C798 0.929 . S
H857 C799 0.930 . S
H858 C800 0.930 . S
H859 C801 0.930 . S
H860 C803 0.930 . S
H861 C805 0.929 . S
H862 C806 0.930 . S
H863 C807 0.930 . S
H864 C810 0.930 . S
H865 C813 0.929 . S
H866 C818 0.929 . S
H867 C819 0.930 . S
H868 C826 0.929 . S
H869 C827 0.930 . S
H870 C828 0.930 . S
H871 C829 0.930 . S
H872 C831 0.929 . S
H873 C832 0.930 . S
H874 C833 0.930 . S
H875 C834 0.930 . S
H876 C838 0.929 . S
H877 C840 0.930 . S
H878 C846 0.929 . S
H879 C847 0.930 . S
Li880 N897 1.990 . S
Li880 O940 1.956 . S
Li880 O941 1.970 . S
Li880 O942 1.961 . S
Li881 N905 1.989 1_455 S
Li881 O940 1.970 . S
Li881 O941 1.956 . S
Li881 O943 1.961 1_455 S
Li882 N927 1.990 . S
Li882 O940 1.961 . S
Li882 O942 1.956 . S
Li882 O943 1.970 1_455 S
Li883 N933 1.990 . S
Li883 O941 1.961 1_655 S
Li883 O942 1.970 1_655 S
Li883 O943 1.956 . S
C884 C886 1.348 . S
C884 C887 1.356 . S
C884 O940 1.325 . S
N885 C888 1.314 . S
N885 C889 1.279 1_554 S
C886 C884 1.348 . S
C886 C888 1.353 1_556 S
C886 H944 0.929 . S
C887 C884 1.356 . S
C887 C889 1.358 . S
C887 H945 0.930 . S
C888 N885 1.314 . S
C888 C886 1.353 1_554 S
C888 H946 0.930 . S
C889 N885 1.279 1_556 S
C889 C887 1.358 . S
C889 H947 0.930 . S
C890 C893 1.348 1_655 S
C890 C894 1.356 . S
C890 O941 1.325 1_655 S
C891 N892 1.279 . S
C891 C894 1.358 . S
C891 H948 0.930 . S
N892 C891 1.279 . S
N892 C895 1.314 1_655 S
C893 C890 1.348 1_455 S
C893 C895 1.353 . S
C893 H949 0.929 . S
C894 C890 1.356 . S
C894 C891 1.358 . S
C894 H950 0.930 . S
C895 N892 1.314 1_455 S
C895 C893 1.353 . S
C895 H951 0.930 . S
C896 N897 1.314 . S
C896 C901 1.353 . S
C896 H902 0.930 . S
N897 Li880 1.990 . S
N897 C896 1.314 . S
N897 C899 1.279 . S
C898 C899 1.358 . S
C898 C900 1.356 . S
C898 H952 0.930 . S
C899 N897 1.279 . S
C899 C898 1.358 . S
C899 H903 0.930 . S
C900 C898 1.356 . S
C900 C901 1.348 . S
C901 C896 1.353 . S
C901 C900 1.348 . S
C901 H953 0.929 . S
H902 C896 0.930 . S
H903 C899 0.930 . S
C904 N905 1.315 1_554 S
C904 C906 1.353 . S
C904 H910 0.930 . S
N905 Li881 1.989 1_655 S
N905 C904 1.315 1_556 S
N905 C908 1.279 1_655 S
C906 C904 1.353 . S
C906 C909 1.348 . S
C906 H954 0.929 . S
C907 C908 1.358 . S
C907 C909 1.356 1_456 S
C907 H955 0.930 . S
C908 N905 1.279 1_455 S
C908 C907 1.358 . S
C908 H911 0.930 . S
C909 C906 1.348 . S
C909 C907 1.356 1_654 S
H910 C904 0.930 . S
H911 C908 0.930 . S
C912 C914 1.348 1_455 S
C912 C915 1.356 . S
C912 O942 1.325 . S
N913 C916 1.314 1_455 S
N913 C917 1.279 . S
C914 C912 1.348 1_655 S
C914 C916 1.353 . S
C914 H956 0.929 . S
C915 C912 1.356 . S
C915 C917 1.358 . S
C915 H957 0.930 . S
C916 N913 1.314 1_655 S
C916 C914 1.353 . S
C916 H958 0.930 . S
C917 N913 1.279 . S
C917 C915 1.358 . S
C917 H959 0.930 . S
C918 C919 1.348 . S
C918 C920 1.356 . S
C918 O943 1.325 . S
C919 C918 1.348 . S
C919 C921 1.370 . S
C919 H960 0.929 . S
C920 C918 1.356 . S
C920 C922 1.358 . S
C920 H961 0.930 . S
C921 C919 1.370 . S
C921 N923 1.309 1_556 S
C921 H962 0.917 1_556 S
C922 C920 1.358 . S
C922 N923 1.279 1_556 S
C922 H963 0.930 . S
N923 C921 1.309 1_554 S
N923 C922 1.279 1_554 S
C924 C926 1.353 . S
C924 N927 1.314 1_554 S
C924 H930 0.930 . S
C925 N927 1.279 . S
C925 C928 1.358 . S
C925 H931 0.930 . S
C926 C924 1.353 . S
C926 C929 1.348 . S
C926 H964 0.929 . S
N927 Li882 1.990 . S
N927 C924 1.314 1_556 S
N927 C925 1.279 . S
C928 C925 1.358 . S
C928 C929 1.356 1_556 S
C928 H965 0.930 . S
C929 C926 1.348 . S
C929 C928 1.356 1_554 S
H930 C924 0.930 . S
H931 C925 0.930 . S
C932 N933 1.314 . S
C932 C934 1.353 . S
C932 H938 0.930 . S
N933 Li883 1.990 . S
N933 C932 1.314 . S
N933 C936 1.279 . S
C934 C932 1.353 . S
C934 C937 1.348 . S
C934 H966 0.929 . S
C935 C936 1.358 . S
C935 C937 1.356 . S
C935 H967 0.930 . S
C936 N933 1.279 . S
C936 C935 1.358 . S
C936 H939 0.930 . S
C937 C934 1.348 . S
C937 C935 1.356 . S
H938 C932 0.930 . S
H939 C936 0.930 . S
O940 Li880 1.956 . S
O940 Li881 1.970 . S
O940 Li882 1.961 . S
O940 C884 1.325 . S
O941 Li880 1.970 . S
O941 Li881 1.956 . S
O941 Li883 1.961 1_455 S
O941 C890 1.325 1_455 S
O942 Li880 1.961 . S
O942 Li882 1.956 . S
O942 Li883 1.970 1_455 S
O942 C912 1.325 . S
O943 Li881 1.961 1_655 S
O943 Li882 1.970 1_655 S
O943 Li883 1.956 . S
O943 C918 1.325 . S
H944 C886 0.929 . S
H945 C887 0.930 . S
H946 C888 0.930 . S
H947 C889 0.930 . S
H948 C891 0.930 . S
H949 C893 0.929 . S
H950 C894 0.930 . S
H951 C895 0.930 . S
H952 C898 0.930 . S
H953 C901 0.929 . S
H954 C906 0.929 . S
H955 C907 0.930 . S
H956 C914 0.929 . S
H957 C915 0.930 . S
H958 C916 0.930 . S
H959 C917 0.930 . S
H960 C919 0.929 . S
H961 C920 0.930 . S
H962 C921 0.917 1_554 S
H963 C922 0.930 . S
H964 C926 0.929 . S
H965 C928 0.930 . S
H966 C934 0.929 . S
H967 C935 0.930 . S
Li968 N985 1.990 . S
Li968 O1028 1.956 . S
Li968 O1029 1.970 . S
Li968 O1030 1.961 . S
Li969 N993 1.990 . S
Li969 O1028 1.970 . S
Li969 O1029 1.956 . S
Li969 O1031 1.961 . S
Li970 N1015 1.990 . S
Li970 O1028 1.961 . S
Li970 O1030 1.956 . S
Li970 O1031 1.970 . S
Li971 N1021 1.990 . S
Li971 O1029 1.961 . S
Li971 O1030 1.970 . S
Li971 O1031 1.956 . S
C972 C974 1.348 . S
C972 C975 1.356 . S
C972 O1028 1.325 . S
N973 C976 1.314 . S
N973 C977 1.279 . S
C974 C972 1.348 . S
C974 C976 1.353 . S
C974 H1032 0.929 . S
C975 C972 1.356 . S
C975 C977 1.358 . S
C975 H1033 0.930 . S
C976 N973 1.314 . S
C976 C974 1.353 . S
C976 H1034 0.930 . S
C977 N973 1.279 . S
C977 C975 1.358 . S
C977 H1035 0.930 . S
C978 C981 1.348 . S
C978 C982 1.356 . S
C978 O1029 1.325 . S
C979 N980 1.279 . S
C979 C982 1.358 . S
C979 H1036 0.930 . S
N980 C979 1.279 . S
N980 C983 1.314 . S
C981 C978 1.348 . S
C981 C983 1.353 . S
C981 H1037 0.929 . S
C982 C978 1.356 . S
C982 C979 1.358 . S
C982 H1038 0.930 . S
C983 N980 1.314 . S
C983 C981 1.353 . S
C983 H1039 0.930 . S
C984 N985 1.314 . S
C984 C989 1.353 . S
C984 H990 0.930 . S
N985 Li968 1.990 . S
N985 C984 1.314 . S
N985 C987 1.279 . S
C986 C987 1.358 . S
C986 C988 1.356 . S
C986 H1040 0.930 . S
C987 N985 1.279 . S
C987 C986 1.358 . S
C987 H991 0.930 . S
C988 C986 1.356 . S
C988 C989 1.348 . S
C989 C984 1.353 . S
C989 C988 1.348 . S
C989 H1041 0.929 . S
H990 C984 0.930 . S
H991 C987 0.930 . S
C992 N993 1.314 . S
C992 C994 1.353 . S
C992 H998 0.930 . S
N993 Li969 1.990 . S
N993 C992 1.314 . S
N993 C996 1.279 . S
C994 C992 1.353 . S
C994 C997 1.348 . S
C994 H1042 0.929 . S
C995 C996 1.358 . S
C995 C997 1.356 . S
C995 H1043 0.930 . S
C996 N993 1.279 . S
C996 C995 1.358 . S
C996 H999 0.930 . S
C997 C994 1.348 . S
C997 C995 1.356 . S
H998 C992 0.930 . S
H999 C996 0.930 . S
C1000 C1002 1.348 . S
C1000 C1003 1.356 . S
C1000 O1030 1.325 . S
N1001 C1004 1.314 . S
N1001 C1005 1.279 . S
C1002 C1000 1.348 . S
C1002 C1004 1.353 . S
C1002 H1044 0.929 . S
C1003 C1000 1.356 . S
C1003 C1005 1.358 . S
C1003 H1045 0.930 . S
C1004 N1001 1.314 . S
C1004 C1002 1.353 . S
C1004 H1046 0.930 . S
C1005 N1001 1.279 . S
C1005 C1003 1.358 . S
C1005 H1047 0.930 . S
C1006 C1007 1.348 . S
C1006 C1008 1.356 . S
C1006 O1031 1.325 . S
C1007 C1006 1.348 . S
C1007 C1009 1.353 . S
C1007 H1048 0.929 . S
C1008 C1006 1.356 . S
C1008 C1010 1.358 . S
C1008 H1049 0.930 . S
C1009 C1007 1.353 . S
C1009 N1011 1.314 . S
C1009 H1050 0.930 . S
C1010 C1008 1.358 . S
C1010 N1011 1.279 . S
C1010 H1051 0.930 . S
N1011 C1009 1.314 . S
N1011 C1010 1.279 . S
C1012 C1014 1.353 . S
C1012 N1015 1.314 . S
C1012 H1018 0.930 . S
C1013 N1015 1.279 . S
C1013 C1016 1.358 . S
C1013 H1019 0.930 . S
C1014 C1012 1.353 . S
C1014 C1017 1.348 . S
C1014 H1052 0.929 . S
N1015 Li970 1.990 . S
N1015 C1012 1.314 . S
N1015 C1013 1.279 . S
C1016 C1013 1.358 . S
C1016 C1017 1.356 . S
C1016 H1053 0.930 . S
C1017 C1014 1.348 . S
C1017 C1016 1.356 . S
H1018 C1012 0.930 . S
H1019 C1013 0.930 . S
C1020 N1021 1.314 . S
C1020 C1022 1.353 . S
C1020 H1026 0.930 . S
N1021 Li971 1.990 . S
N1021 C1020 1.314 . S
N1021 C1024 1.279 . S
C1022 C1020 1.353 . S
C1022 C1025 1.348 . S
C1022 H1054 0.929 . S
C1023 C1024 1.358 . S
C1023 C1025 1.356 . S
C1023 H1055 0.930 . S
C1024 N1021 1.279 . S
C1024 C1023 1.358 . S
C1024 H1027 0.930 . S
C1025 C1022 1.348 . S
C1025 C1023 1.356 . S
H1026 C1020 0.930 . S
H1027 C1024 0.930 . S
O1028 Li968 1.956 . S
O1028 Li969 1.970 . S
O1028 Li970 1.961 . S
O1028 C972 1.325 . S
O1029 Li968 1.970 . S
O1029 Li969 1.956 . S
O1029 Li971 1.961 . S
O1029 C978 1.325 . S
O1030 Li968 1.961 . S
O1030 Li970 1.956 . S
O1030 Li971 1.970 . S
O1030 C1000 1.325 . S
O1031 Li969 1.961 . S
O1031 Li970 1.970 . S
O1031 Li971 1.956 . S
O1031 C1006 1.325 . S
H1032 C974 0.929 . S
H1033 C975 0.930 . S
H1034 C976 0.930 . S
H1035 C977 0.930 . S
H1036 C979 0.930 . S
H1037 C981 0.929 . S
H1038 C982 0.930 . S
H1039 C983 0.930 . S
H1040 C986 0.930 . S
H1041 C989 0.929 . S
H1042 C994 0.929 . S
H1043 C995 0.930 . S
H1044 C1002 0.929 . S
H1045 C1003 0.930 . S
H1046 C1004 0.930 . S
H1047 C1005 0.930 . S
H1048 C1007 0.929 . S
H1049 C1008 0.930 . S
H1050 C1009 0.930 . S
H1051 C1010 0.930 . S
H1052 C1014 0.929 . S
H1053 C1016 0.930 . S
H1054 C1022 0.929 . S
H1055 C1023 0.930 . S
Li1056 N1073 1.990 . S
Li1056 O1116 1.956 . S
Li1056 O1117 1.970 1_455 S
Li1056 O1118 1.961 . S
Li1057 N1081 1.990 . S
Li1057 O1116 1.970 1_655 S
Li1057 O1117 1.956 . S
Li1057 O1119 1.961 1_655 S
Li1058 N1103 1.990 . S
Li1058 O1116 1.961 . S
Li1058 O1118 1.956 . S
Li1058 O1119 1.970 . S
Li1059 N1109 1.990 . S
Li1059 O1117 1.961 1_455 S
Li1059 O1118 1.970 . S
Li1059 O1119 1.956 . S
C1060 C1062 1.348 . S
C1060 C1063 1.356 . S
C1060 O1116 1.325 . S
N1061 C1064 1.314 . S
N1061 C1065 1.279 . S
C1062 C1060 1.348 . S
C1062 C1064 1.353 . S
C1062 H1120 0.929 1_455 S
C1063 C1060 1.356 . S
C1063 C1065 1.358 . S
C1063 H1121 0.930 . S
C1064 N1061 1.314 . S
C1064 C1062 1.353 . S
C1064 H1122 0.930 . S
C1065 N1061 1.279 . S
C1065 C1063 1.358 . S
C1065 H1123 0.930 . S
C1066 C1069 1.348 . S
C1066 C1070 1.356 . S
C1066 O1117 1.325 . S
C1067 N1068 1.279 . S
C1067 C1070 1.358 . S
C1067 H1124 0.930 . S
N1068 C1067 1.279 . S
N1068 C1071 1.314 . S
C1069 C1066 1.348 . S
C1069 C1071 1.353 . S
C1069 H1125 0.929 . S
C1070 C1066 1.356 . S
C1070 C1067 1.358 . S
C1070 H1126 0.930 . S
C1071 N1068 1.314 . S
C1071 C1069 1.353 . S
C1071 H1127 0.930 . S
C1072 N1073 1.314 . S
C1072 C1077 1.353 . S
C1072 H1078 0.930 . S
N1073 Li1056 1.990 . S
N1073 C1072 1.314 . S
N1073 C1075 1.279 . S
C1074 C1075 1.358 . S
C1074 C1076 1.356 . S
C1074 H1128 0.930 . S
C1075 N1073 1.279 . S
C1075 C1074 1.358 . S
C1075 H1079 0.930 . S
C1076 C1074 1.356 . S
C1076 C1077 1.348 . S
C1077 C1072 1.353 . S
C1077 C1076 1.348 . S
C1077 H1129 0.929 . S
H1078 C1072 0.930 . S
H1079 C1075 0.930 . S
C1080 N1081 1.314 . S
C1080 C1082 1.353 . S
C1080 H1086 0.930 . S
N1081 Li1057 1.990 . S
N1081 C1080 1.314 . S
N1081 C1084 1.279 . S
C1082 C1080 1.353 . S
C1082 C1085 1.348 . S
C1082 H1130 0.929 . S
C1083 C1084 1.358 . S
C1083 C1085 1.356 . S
C1083 H1131 0.930 . S
C1084 N1081 1.279 . S
C1084 C1083 1.358 . S
C1084 H1087 0.930 . S
C1085 C1082 1.348 . S
C1085 C1083 1.356 . S
H1086 C1080 0.930 . S
H1087 C1084 0.930 . S
C1088 C1090 1.348 . S
C1088 C1091 1.356 . S
C1088 O1118 1.325 . S
N1089 C1092 1.314 . S
N1089 C1093 1.279 . S
C1090 C1088 1.348 . S
C1090 C1092 1.353 . S
C1090 H1132 0.929 . S
C1091 C1088 1.356 . S
C1091 C1093 1.358 . S
C1091 H1133 0.930 . S
C1092 N1089 1.314 . S
C1092 C1090 1.353 . S
C1092 H1134 0.930 . S
C1093 N1089 1.279 . S
C1093 C1091 1.358 . S
C1093 H1135 0.930 . S
C1094 C1095 1.348 . S
C1094 C1096 1.356 1_455 S
C1094 O1119 1.325 . S
C1095 C1094 1.348 . S
C1095 C1097 1.353 . S
C1095 H1136 0.929 . S
C1096 C1094 1.356 1_655 S
C1096 C1098 1.358 . S
C1096 H1137 0.930 . S
C1097 C1095 1.353 . S
C1097 N1099 1.314 . S
C1097 H1138 0.930 . S
C1098 C1096 1.358 . S
C1098 N1099 1.279 1_655 S
C1098 H1139 0.930 . S
N1099 C1097 1.314 . S
N1099 C1098 1.279 1_455 S
C1100 C1102 1.353 . S
C1100 N1103 1.314 . S
C1100 H1106 0.930 . S
C1101 N1103 1.279 . S
C1101 C1104 1.358 . S
C1101 H1107 0.930 . S
C1102 C1100 1.353 . S
C1102 C1105 1.348 . S
C1102 H1140 0.929 . S
N1103 Li1058 1.990 . S
N1103 C1100 1.314 . S
N1103 C1101 1.279 . S
C1104 C1101 1.358 . S
C1104 C1105 1.356 . S
C1104 H1141 0.930 . S
C1105 C1102 1.348 . S
C1105 C1104 1.356 . S
H1106 C1100 0.930 . S
H1107 C1101 0.930 . S
C1108 N1109 1.314 1_655 S
C1108 C1110 1.353 . S
C1108 H1114 0.930 . S
N1109 Li1059 1.990 . S
N1109 C1108 1.314 1_455 S
N1109 C1112 1.279 . S
C1110 C1108 1.353 . S
C1110 C1113 1.348 . S
C1110 H1142 0.929 . S
C1111 C1112 1.358 . S
C1111 C1113 1.356 1_455 S
C1111 H1143 0.930 . S
C1112 N1109 1.279 . S
C1112 C1111 1.358 . S
C1112 H1115 0.930 . S
C1113 C1110 1.348 . S
C1113 C1111 1.356 1_655 S
H1114 C1108 0.930 . S
H1115 C1112 0.930 . S
O1116 Li1056 1.956 . S
O1116 Li1057 1.970 1_455 S
O1116 Li1058 1.961 . S
O1116 C1060 1.325 . S
O1117 Li1056 1.970 1_655 S
O1117 Li1057 1.956 . S
O1117 Li1059 1.961 1_655 S
O1117 C1066 1.325 . S
O1118 Li1056 1.961 . S
O1118 Li1058 1.956 . S
O1118 Li1059 1.970 . S
O1118 C1088 1.325 . S
O1119 Li1057 1.961 1_455 S
O1119 Li1058 1.970 . S
O1119 Li1059 1.956 . S
O1119 C1094 1.325 . S
H1120 C1062 0.929 1_655 S
H1121 C1063 0.930 . S
H1122 C1064 0.930 . S
H1123 C1065 0.930 . S
H1124 C1067 0.930 . S
H1125 C1069 0.929 . S
H1126 C1070 0.930 . S
H1127 C1071 0.930 . S
H1128 C1074 0.930 . S
H1129 C1077 0.929 . S
H1130 C1082 0.929 . S
H1131 C1083 0.930 . S
H1132 C1090 0.929 . S
H1133 C1091 0.930 . S
H1134 C1092 0.930 . S
H1135 C1093 0.930 . S
H1136 C1095 0.929 . S
H1137 C1096 0.930 . S
H1138 C1097 0.930 . S
H1139 C1098 0.930 . S
H1140 C1102 0.929 . S
H1141 C1104 0.930 . S
H1142 C1110 0.929 . S
H1143 C1111 0.930 . S
Li1144 N1161 1.990 . S
Li1144 O1204 1.956 . S
Li1144 O1205 1.970 . S
Li1144 O1206 1.961 . S
Li1145 N1169 1.990 . S
Li1145 O1204 1.970 . S
Li1145 O1205 1.956 . S
Li1145 O1207 1.961 . S
Li1146 N1191 1.990 . S
Li1146 O1204 1.961 . S
Li1146 O1206 1.956 . S
Li1146 O1207 1.970 . S
Li1147 N1197 1.990 . S
Li1147 O1205 1.961 . S
Li1147 O1206 1.970 . S
Li1147 O1207 1.956 . S
C1148 C1150 1.348 . S
C1148 C1151 1.356 . S
C1148 O1204 1.325 . S
N1149 C1152 1.314 . S
N1149 C1153 1.279 . S
C1150 C1148 1.348 . S
C1150 C1152 1.353 . S
C1150 H1208 0.929 . S
C1151 C1148 1.356 . S
C1151 C1153 1.358 . S
C1151 H1209 0.930 . S
C1152 N1149 1.314 . S
C1152 C1150 1.353 . S
C1152 H1210 0.930 . S
C1153 N1149 1.279 . S
C1153 C1151 1.358 . S
C1153 H1211 0.930 . S
C1154 C1157 1.348 . S
C1154 C1158 1.356 . S
C1154 O1205 1.325 . S
C1155 N1156 1.279 . S
C1155 C1158 1.358 . S
C1155 H1212 0.930 . S
N1156 C1155 1.279 . S
N1156 C1159 1.314 . S
C1157 C1154 1.348 . S
C1157 C1159 1.353 . S
C1157 H1213 0.929 . S
C1158 C1154 1.356 . S
C1158 C1155 1.358 . S
C1158 H1214 0.930 . S
C1159 N1156 1.314 . S
C1159 C1157 1.353 . S
C1159 H1215 0.930 . S
C1160 N1161 1.314 . S
C1160 C1165 1.353 . S
C1160 H1166 0.930 . S
N1161 Li1144 1.990 . S
N1161 C1160 1.314 . S
N1161 C1163 1.279 . S
C1162 C1163 1.358 . S
C1162 C1164 1.356 . S
C1162 H1216 0.930 . S
C1163 N1161 1.279 . S
C1163 C1162 1.358 . S
C1163 H1167 0.930 . S
C1164 C1162 1.356 . S
C1164 C1165 1.348 . S
C1165 C1160 1.353 . S
C1165 C1164 1.348 . S
C1165 H1217 0.929 . S
H1166 C1160 0.930 . S
H1167 C1163 0.930 . S
C1168 N1169 1.314 . S
C1168 C1170 1.353 . S
C1168 H1174 0.930 . S
N1169 Li1145 1.990 . S
N1169 C1168 1.314 . S
N1169 C1172 1.279 . S
C1170 C1168 1.353 . S
C1170 C1173 1.348 . S
C1170 H1218 0.929 . S
C1171 C1172 1.358 . S
C1171 C1173 1.356 . S
C1171 H1219 0.930 . S
C1172 N1169 1.279 . S
C1172 C1171 1.358 . S
C1172 H1175 0.930 . S
C1173 C1170 1.348 . S
C1173 C1171 1.356 . S
H1174 C1168 0.930 . S
H1175 C1172 0.930 . S
C1176 C1178 1.348 . S
C1176 C1179 1.356 . S
C1176 O1206 1.325 . S
N1177 C1180 1.314 . S
N1177 C1181 1.279 . S
C1178 C1176 1.348 . S
C1178 C1180 1.353 . S
C1178 H1220 0.929 . S
C1179 C1176 1.356 . S
C1179 C1181 1.358 . S
C1179 H1221 0.930 . S
C1180 N1177 1.314 . S
C1180 C1178 1.353 . S
C1180 H1222 0.930 . S
C1181 N1177 1.279 . S
C1181 C1179 1.358 . S
C1181 H1223 0.930 . S
C1182 C1183 1.348 . S
C1182 C1184 1.356 . S
C1182 O1207 1.325 . S
C1183 C1182 1.348 . S
C1183 C1185 1.353 . S
C1183 H1224 0.929 . S
C1184 C1182 1.356 . S
C1184 C1186 1.358 . S
C1184 H1225 0.930 . S
C1185 C1183 1.353 . S
C1185 N1187 1.314 . S
C1185 H1226 0.930 . S
C1186 C1184 1.358 . S
C1186 N1187 1.279 . S
C1186 H1227 0.930 . S
N1187 C1185 1.314 . S
N1187 C1186 1.279 . S
C1188 C1190 1.353 . S
C1188 N1191 1.314 . S
C1188 H1194 0.930 . S
C1189 N1191 1.279 . S
C1189 C1192 1.358 . S
C1189 H1195 0.930 . S
C1190 C1188 1.353 . S
C1190 C1193 1.348 . S
C1190 H1228 0.929 . S
N1191 Li1146 1.990 . S
N1191 C1188 1.314 . S
N1191 C1189 1.279 . S
C1192 C1189 1.358 . S
C1192 C1193 1.356 . S
C1192 H1229 0.930 . S
C1193 C1190 1.348 . S
C1193 C1192 1.356 . S
H1194 C1188 0.930 . S
H1195 C1189 0.930 . S
C1196 N1197 1.314 . S
C1196 C1198 1.353 . S
C1196 H1202 0.930 . S
N1197 Li1147 1.990 . S
N1197 C1196 1.314 . S
N1197 C1200 1.279 . S
C1198 C1196 1.353 . S
C1198 C1201 1.348 . S
C1198 H1230 0.929 . S
C1199 C1200 1.358 . S
C1199 C1201 1.356 . S
C1199 H1231 0.930 . S
C1200 N1197 1.279 . S
C1200 C1199 1.358 . S
C1200 H1203 0.930 . S
C1201 C1198 1.348 . S
C1201 C1199 1.356 . S
H1202 C1196 0.930 . S
H1203 C1200 0.930 . S
O1204 Li1144 1.956 . S
O1204 Li1145 1.970 . S
O1204 Li1146 1.961 . S
O1204 C1148 1.325 . S
O1205 Li1144 1.970 . S
O1205 Li1145 1.956 . S
O1205 Li1147 1.961 . S
O1205 C1154 1.325 . S
O1206 Li1144 1.961 . S
O1206 Li1146 1.956 . S
O1206 Li1147 1.970 . S
O1206 C1176 1.325 . S
O1207 Li1145 1.961 . S
O1207 Li1146 1.970 . S
O1207 Li1147 1.956 . S
O1207 C1182 1.325 . S
H1208 C1150 0.929 . S
H1209 C1151 0.930 . S
H1210 C1152 0.930 . S
H1211 C1153 0.930 . S
H1212 C1155 0.930 . S
H1213 C1157 0.929 . S
H1214 C1158 0.930 . S
H1215 C1159 0.930 . S
H1216 C1162 0.930 . S
H1217 C1165 0.929 . S
H1218 C1170 0.929 . S
H1219 C1171 0.930 . S
H1220 C1178 0.929 . S
H1221 C1179 0.930 . S
H1222 C1180 0.930 . S
H1223 C1181 0.930 . S
H1224 C1183 0.929 . S
H1225 C1184 0.930 . S
H1226 C1185 0.930 . S
H1227 C1186 0.930 . S
H1228 C1190 0.929 . S
H1229 C1192 0.930 . S
H1230 C1198 0.929 . S
H1231 C1199 0.930 . S
C225 C62 1.316 . S
C284 C73 1.599 . S
C84 C401 1.525 . S
C469 C49 1.176 . S
C548 C118 1.309 . S
C673 C137 1.459 . S
C129 C733 1.795 . S
C841 C106 2.230 . S
C128 C937 2.043 . S
C997 C104 1.675 . S
C115 C900 1.809 . S
C1017 C139 2.052 . S
C85 C1085 1.713 . S
C52 C1076 1.155 . S
C60 C1105 0.640 . S
C71 C1113 2.119 1_455 S
C40 C497 1.911 . S
C162 C460 1.146 . S
C196 C173 1.197 1_556 S
C293 C93 1.903 . S
C51 C557 1.704 . S
C849 C126 1.412 . S
C577 C107 1.943 . S
C761 C140 1.755 . S
C753 C161 1.316 . S
C172 C821 1.596 . S
C95 C585 1.525 . S
C636 C148 1.177 . S
C41 C381 1.309 . S
C489 C5 1.459 . S
C205 C19 1.795 . S
C321 C29 2.231 . S
C18 C1025 2.043 . S
C27 C909 1.675 1_455 S
C38 C988 1.809 . S
C7 C929 2.052 . S
C1173 C96 1.713 . S
C1164 C151 1.155 . S
C1193 C159 0.641 . S
C170 C1201 2.119 . S
C117 C665 1.911 . S
C645 C63 1.146 . S
C724 C74 1.198 . S
C812 C82 1.903 . S
C150 C372 1.704 . S
C313 C16 1.412 . S
C30 C409 1.943 . S
C233 C8 1.755 . S
