# Generated by pormake.
# Topology gar, (4,6)-cn, num edge types: 1
# Building blocks:
#     Node 0, Type 0, BuildingBlock: TATPOV_clean_sbu_0, # of connection points: 4
#     Node 1, Type 0, BuildingBlock: TATPOV_clean_sbu_0, # of connection points: 4
#     Node 2, Type 0, BuildingBlock: TATPOV_clean_sbu_0, # of connection points: 4
#     Node 3, Type 0, BuildingBlock: TATPOV_clean_sbu_0, # of connection points: 4
#     Node 4, Type 0, BuildingBlock: TATPOV_clean_sbu_0, # of connection points: 4
#     Node 5, Type 0, BuildingBlock: TATPOV_clean_sbu_0, # of connection points: 4
#     Node 6, Type 0, BuildingBlock: TATPOV_clean_sbu_0, # of connection points: 4
#     Node 7, Type 0, BuildingBlock: TATPOV_clean_sbu_0, # of connection points: 4
#     Node 8, Type 0, BuildingBlock: TATPOV_clean_sbu_0, # of connection points: 4
#     Node 9, Type 0, BuildingBlock: TATPOV_clean_sbu_0, # of connection points: 4
#     Node 10, Type 0, BuildingBlock: TATPOV_clean_sbu_0, # of connection points: 4
#     Node 11, Type 0, BuildingBlock: TATPOV_clean_sbu_0, # of connection points: 4
#     Node 12, Type 0, BuildingBlock: TATPOV_clean_sbu_0, # of connection points: 4
#     Node 13, Type 0, BuildingBlock: TATPOV_clean_sbu_0, # of connection points: 4
#     Node 14, Type 0, BuildingBlock: TATPOV_clean_sbu_0, # of connection points: 4
#     Node 15, Type 0, BuildingBlock: TATPOV_clean_sbu_0, # of connection points: 4
#     Node 16, Type 0, BuildingBlock: TATPOV_clean_sbu_0, # of connection points: 4
#     Node 17, Type 0, BuildingBlock: TATPOV_clean_sbu_0, # of connection points: 4
#     Node 18, Type 0, BuildingBlock: TATPOV_clean_sbu_0, # of connection points: 4
#     Node 19, Type 0, BuildingBlock: TATPOV_clean_sbu_0, # of connection points: 4
#     Node 20, Type 0, BuildingBlock: TATPOV_clean_sbu_0, # of connection points: 4
#     Node 21, Type 0, BuildingBlock: TATPOV_clean_sbu_0, # of connection points: 4
#     Node 22, Type 0, BuildingBlock: TATPOV_clean_sbu_0, # of connection points: 4
#     Node 23, Type 0, BuildingBlock: TATPOV_clean_sbu_0, # of connection points: 4
#     Node 24, Type 1, BuildingBlock: BETFEN_clean_sbu_0, # of connection points: 6
#     Node 25, Type 1, BuildingBlock: BETFEN_clean_sbu_0, # of connection points: 6
#     Node 26, Type 1, BuildingBlock: BETFEN_clean_sbu_0, # of connection points: 6
#     Node 27, Type 1, BuildingBlock: BETFEN_clean_sbu_0, # of connection points: 6
#     Node 28, Type 1, BuildingBlock: BETFEN_clean_sbu_0, # of connection points: 6
#     Node 29, Type 1, BuildingBlock: BETFEN_clean_sbu_0, # of connection points: 6
#     Node 30, Type 1, BuildingBlock: BETFEN_clean_sbu_0, # of connection points: 6
#     Node 31, Type 1, BuildingBlock: BETFEN_clean_sbu_0, # of connection points: 6
#     Node 32, Type 1, BuildingBlock: BETFEN_clean_sbu_0, # of connection points: 6
#     Node 33, Type 1, BuildingBlock: BETFEN_clean_sbu_0, # of connection points: 6
#     Node 34, Type 1, BuildingBlock: BETFEN_clean_sbu_0, # of connection points: 6
#     Node 35, Type 1, BuildingBlock: BETFEN_clean_sbu_0, # of connection points: 6
#     Node 36, Type 1, BuildingBlock: BETFEN_clean_sbu_0, # of connection points: 6
#     Node 37, Type 1, BuildingBlock: BETFEN_clean_sbu_0, # of connection points: 6
#     Node 38, Type 1, BuildingBlock: BETFEN_clean_sbu_0, # of connection points: 6
#     Node 39, Type 1, BuildingBlock: BETFEN_clean_sbu_0, # of connection points: 6
#     Edge 40, Type (0, 1), BuildingBlock: MIFKUJ_clean_linker_0, # of connection points: 2
#     Edge 41, Type (0, 1), BuildingBlock: MIFKUJ_clean_linker_0, # of connection points: 2
#     Edge 42, Type (0, 1), BuildingBlock: MIFKUJ_clean_linker_0, # of connection points: 2
#     Edge 43, Type (0, 1), BuildingBlock: MIFKUJ_clean_linker_0, # of connection points: 2
#     Edge 44, Type (0, 1), BuildingBlock: MIFKUJ_clean_linker_0, # of connection points: 2
#     Edge 45, Type (0, 1), BuildingBlock: MIFKUJ_clean_linker_0, # of connection points: 2
#     Edge 46, Type (0, 1), BuildingBlock: MIFKUJ_clean_linker_0, # of connection points: 2
#     Edge 47, Type (0, 1), BuildingBlock: MIFKUJ_clean_linker_0, # of connection points: 2
#     Edge 48, Type (0, 1), BuildingBlock: MIFKUJ_clean_linker_0, # of connection points: 2
#     Edge 49, Type (0, 1), BuildingBlock: MIFKUJ_clean_linker_0, # of connection points: 2
#     Edge 50, Type (0, 1), BuildingBlock: MIFKUJ_clean_linker_0, # of connection points: 2
#     Edge 51, Type (0, 1), BuildingBlock: MIFKUJ_clean_linker_0, # of connection points: 2
#     Edge 52, Type (0, 1), BuildingBlock: MIFKUJ_clean_linker_0, # of connection points: 2
#     Edge 53, Type (0, 1), BuildingBlock: MIFKUJ_clean_linker_0, # of connection points: 2
#     Edge 54, Type (0, 1), BuildingBlock: MIFKUJ_clean_linker_0, # of connection points: 2
#     Edge 55, Type (0, 1), BuildingBlock: MIFKUJ_clean_linker_0, # of connection points: 2
#     Edge 56, Type (0, 1), BuildingBlock: MIFKUJ_clean_linker_0, # of connection points: 2
#     Edge 57, Type (0, 1), BuildingBlock: MIFKUJ_clean_linker_0, # of connection points: 2
#     Edge 58, Type (0, 1), BuildingBlock: MIFKUJ_clean_linker_0, # of connection points: 2
#     Edge 59, Type (0, 1), BuildingBlock: MIFKUJ_clean_linker_0, # of connection points: 2
#     Edge 60, Type (0, 1), BuildingBlock: MIFKUJ_clean_linker_0, # of connection points: 2
#     Edge 61, Type (0, 1), BuildingBlock: MIFKUJ_clean_linker_0, # of connection points: 2
#     Edge 62, Type (0, 1), BuildingBlock: MIFKUJ_clean_linker_0, # of connection points: 2
#     Edge 63, Type (0, 1), BuildingBlock: MIFKUJ_clean_linker_0, # of connection points: 2
#     Edge 64, Type (0, 1), BuildingBlock: MIFKUJ_clean_linker_0, # of connection points: 2
#     Edge 65, Type (0, 1), BuildingBlock: MIFKUJ_clean_linker_0, # of connection points: 2
#     Edge 66, Type (0, 1), BuildingBlock: MIFKUJ_clean_linker_0, # of connection points: 2
#     Edge 67, Type (0, 1), BuildingBlock: MIFKUJ_clean_linker_0, # of connection points: 2
#     Edge 68, Type (0, 1), BuildingBlock: MIFKUJ_clean_linker_0, # of connection points: 2
#     Edge 69, Type (0, 1), BuildingBlock: MIFKUJ_clean_linker_0, # of connection points: 2
#     Edge 70, Type (0, 1), BuildingBlock: MIFKUJ_clean_linker_0, # of connection points: 2
#     Edge 71, Type (0, 1), BuildingBlock: MIFKUJ_clean_linker_0, # of connection points: 2
#     Edge 72, Type (0, 1), BuildingBlock: MIFKUJ_clean_linker_0, # of connection points: 2
#     Edge 73, Type (0, 1), BuildingBlock: MIFKUJ_clean_linker_0, # of connection points: 2
#     Edge 74, Type (0, 1), BuildingBlock: MIFKUJ_clean_linker_0, # of connection points: 2
#     Edge 75, Type (0, 1), BuildingBlock: MIFKUJ_clean_linker_0, # of connection points: 2
#     Edge 76, Type (0, 1), BuildingBlock: MIFKUJ_clean_linker_0, # of connection points: 2
#     Edge 77, Type (0, 1), BuildingBlock: MIFKUJ_clean_linker_0, # of connection points: 2
#     Edge 78, Type (0, 1), BuildingBlock: MIFKUJ_clean_linker_0, # of connection points: 2
#     Edge 79, Type (0, 1), BuildingBlock: MIFKUJ_clean_linker_0, # of connection points: 2
#     Edge 80, Type (0, 1), BuildingBlock: MIFKUJ_clean_linker_0, # of connection points: 2
#     Edge 81, Type (0, 1), BuildingBlock: MIFKUJ_clean_linker_0, # of connection points: 2
#     Edge 82, Type (0, 1), BuildingBlock: MIFKUJ_clean_linker_0, # of connection points: 2
#     Edge 83, Type (0, 1), BuildingBlock: MIFKUJ_clean_linker_0, # of connection points: 2
#     Edge 84, Type (0, 1), BuildingBlock: MIFKUJ_clean_linker_0, # of connection points: 2
#     Edge 85, Type (0, 1), BuildingBlock: MIFKUJ_clean_linker_0, # of connection points: 2
#     Edge 86, Type (0, 1), BuildingBlock: MIFKUJ_clean_linker_0, # of connection points: 2
#     Edge 87, Type (0, 1), BuildingBlock: MIFKUJ_clean_linker_0, # of connection points: 2
#     Edge 88, Type (0, 1), BuildingBlock: MIFKUJ_clean_linker_0, # of connection points: 2
#     Edge 89, Type (0, 1), BuildingBlock: MIFKUJ_clean_linker_0, # of connection points: 2
#     Edge 90, Type (0, 1), BuildingBlock: MIFKUJ_clean_linker_0, # of connection points: 2
#     Edge 91, Type (0, 1), BuildingBlock: MIFKUJ_clean_linker_0, # of connection points: 2
#     Edge 92, Type (0, 1), BuildingBlock: MIFKUJ_clean_linker_0, # of connection points: 2
#     Edge 93, Type (0, 1), BuildingBlock: MIFKUJ_clean_linker_0, # of connection points: 2
#     Edge 94, Type (0, 1), BuildingBlock: MIFKUJ_clean_linker_0, # of connection points: 2
#     Edge 95, Type (0, 1), BuildingBlock: MIFKUJ_clean_linker_0, # of connection points: 2
#     Edge 96, Type (0, 1), BuildingBlock: MIFKUJ_clean_linker_0, # of connection points: 2
#     Edge 97, Type (0, 1), BuildingBlock: MIFKUJ_clean_linker_0, # of connection points: 2
#     Edge 98, Type (0, 1), BuildingBlock: MIFKUJ_clean_linker_0, # of connection points: 2
#     Edge 99, Type (0, 1), BuildingBlock: MIFKUJ_clean_linker_0, # of connection points: 2
#     Edge 100, Type (0, 1), BuildingBlock: MIFKUJ_clean_linker_0, # of connection points: 2
#     Edge 101, Type (0, 1), BuildingBlock: MIFKUJ_clean_linker_0, # of connection points: 2
#     Edge 102, Type (0, 1), BuildingBlock: MIFKUJ_clean_linker_0, # of connection points: 2
#     Edge 103, Type (0, 1), BuildingBlock: MIFKUJ_clean_linker_0, # of connection points: 2
#     Edge 104, Type (0, 1), BuildingBlock: MIFKUJ_clean_linker_0, # of connection points: 2
#     Edge 105, Type (0, 1), BuildingBlock: MIFKUJ_clean_linker_0, # of connection points: 2
#     Edge 106, Type (0, 1), BuildingBlock: MIFKUJ_clean_linker_0, # of connection points: 2
#     Edge 107, Type (0, 1), BuildingBlock: MIFKUJ_clean_linker_0, # of connection points: 2
#     Edge 108, Type (0, 1), BuildingBlock: MIFKUJ_clean_linker_0, # of connection points: 2
#     Edge 109, Type (0, 1), BuildingBlock: MIFKUJ_clean_linker_0, # of connection points: 2
#     Edge 110, Type (0, 1), BuildingBlock: MIFKUJ_clean_linker_0, # of connection points: 2
#     Edge 111, Type (0, 1), BuildingBlock: MIFKUJ_clean_linker_0, # of connection points: 2
#     Edge 112, Type (0, 1), BuildingBlock: MIFKUJ_clean_linker_0, # of connection points: 2
#     Edge 113, Type (0, 1), BuildingBlock: MIFKUJ_clean_linker_0, # of connection points: 2
#     Edge 114, Type (0, 1), BuildingBlock: MIFKUJ_clean_linker_0, # of connection points: 2
#     Edge 115, Type (0, 1), BuildingBlock: MIFKUJ_clean_linker_0, # of connection points: 2
#     Edge 116, Type (0, 1), BuildingBlock: MIFKUJ_clean_linker_0, # of connection points: 2
#     Edge 117, Type (0, 1), BuildingBlock: MIFKUJ_clean_linker_0, # of connection points: 2
#     Edge 118, Type (0, 1), BuildingBlock: MIFKUJ_clean_linker_0, # of connection points: 2
#     Edge 119, Type (0, 1), BuildingBlock: MIFKUJ_clean_linker_0, # of connection points: 2
#     Edge 120, Type (0, 1), BuildingBlock: MIFKUJ_clean_linker_0, # of connection points: 2
#     Edge 121, Type (0, 1), BuildingBlock: MIFKUJ_clean_linker_0, # of connection points: 2
#     Edge 122, Type (0, 1), BuildingBlock: MIFKUJ_clean_linker_0, # of connection points: 2
#     Edge 123, Type (0, 1), BuildingBlock: MIFKUJ_clean_linker_0, # of connection points: 2
#     Edge 124, Type (0, 1), BuildingBlock: MIFKUJ_clean_linker_0, # of connection points: 2
#     Edge 125, Type (0, 1), BuildingBlock: MIFKUJ_clean_linker_0, # of connection points: 2
#     Edge 126, Type (0, 1), BuildingBlock: MIFKUJ_clean_linker_0, # of connection points: 2
#     Edge 127, Type (0, 1), BuildingBlock: MIFKUJ_clean_linker_0, # of connection points: 2
#     Edge 128, Type (0, 1), BuildingBlock: MIFKUJ_clean_linker_0, # of connection points: 2
#     Edge 129, Type (0, 1), BuildingBlock: MIFKUJ_clean_linker_0, # of connection points: 2
#     Edge 130, Type (0, 1), BuildingBlock: MIFKUJ_clean_linker_0, # of connection points: 2
#     Edge 131, Type (0, 1), BuildingBlock: MIFKUJ_clean_linker_0, # of connection points: 2
#     Edge 132, Type (0, 1), BuildingBlock: MIFKUJ_clean_linker_0, # of connection points: 2
#     Edge 133, Type (0, 1), BuildingBlock: MIFKUJ_clean_linker_0, # of connection points: 2
#     Edge 134, Type (0, 1), BuildingBlock: MIFKUJ_clean_linker_0, # of connection points: 2
#     Edge 135, Type (0, 1), BuildingBlock: MIFKUJ_clean_linker_0, # of connection points: 2
# Relax obj value: 0.179
# Max RMSD: 0.292
# Mean RMSD: 0.172
data_MOF--net-gar--node1-TATPOV_clean_sbu_0--node2-BETFEN_clean_sbu_0--edge1-MIFKUJ_clean_linker_0
_symmetry_space_group_name_H-M    P1
_symmetry_Int_Tables_number       1
_symmetry_cell_setting            triclinic
loop_
_symmetry_equiv_pos_as_xyz
'x, y, z'
_cell_length_a     79.631264
_cell_length_b     72.691639
_cell_length_c     73.171027
_cell_angle_alpha  94.819197
_cell_angle_beta   98.839346
_cell_angle_gamma 104.15348
loop_
_atom_site_label
_atom_site_type_symbol
_atom_site_fract_x
_atom_site_fract_y
_atom_site_fract_z
_atom_type_partial_charge
Zn0 Zn 0.99547 0.29626 0.4398 0.0
Zn1 Zn 0.01873 0.30044 0.417 0.0
O2 O 0.02522 0.3273 0.43305 0.0
O3 O 0.00599 0.32357 0.45195 0.0
O4 O 0.03757 0.30184 0.40076 0.0
O5 O 0.00298 0.27432 0.45058 0.0
O6 O 0.02075 0.27626 0.43021 0.0
C7 C 0.01869 0.33417 0.44613 0.0
C8 C 0.97948 0.2923 0.40077 0.0
O9 O 0.99543 0.29632 0.3983 0.0
O10 O 0.97606 0.29084 0.41702 0.0
C11 C 0.04884 0.31687 0.3985 0.0
O12 O 0.04849 0.33352 0.4067 0.0
C13 C 0.01403 0.26789 0.44308 0.0
Zn14 Zn 0.05888 0.79683 0.66842 0.0
Zn15 Zn 0.05768 0.8188 0.64168 0.0
O16 O 0.03656 0.8202 0.65526 0.0
O17 O 0.03754 0.8014 0.67719 0.0
O18 O 0.05674 0.83938 0.62418 0.0
O19 O 0.08276 0.81226 0.68136 0.0
O20 O 0.0834 0.82829 0.65714 0.0
C21 C 0.03025 0.81266 0.66873 0.0
C22 C 0.05457 0.77631 0.63124 0.0
O23 O 0.05395 0.79238 0.62559 0.0
O24 O 0.0568 0.77493 0.64855 0.0
C25 C 0.05816 0.85608 0.63227 0.0
O26 O 0.06042 0.85864 0.65056 0.0
C27 C 0.09101 0.82474 0.67264 0.0
Zn28 Zn 0.49962 0.79751 0.93616 0.0
Zn29 Zn 0.52622 0.80314 0.91811 0.0
O30 O 0.53163 0.82936 0.93509 0.0
O31 O 0.50854 0.8248 0.94893 0.0
O32 O 0.54704 0.80555 0.90433 0.0
O33 O 0.50537 0.77505 0.94738 0.0
O34 O 0.52696 0.77859 0.93143 0.0
C35 C 0.52267 0.83571 0.94601 0.0
C36 C 0.48777 0.79543 0.89713 0.0
O37 O 0.50432 0.80026 0.89704 0.0
O38 O 0.48226 0.79236 0.91219 0.0
C39 C 0.54628 0.79301 0.89076 0.0
O40 O 0.5318 0.77909 0.88559 0.0
C41 C 0.51794 0.76935 0.94235 0.0
Zn42 Zn 0.55167 0.29586 0.16394 0.0
Zn43 Zn 0.55275 0.31904 0.13861 0.0
O44 O 0.53063 0.32056 0.1506 0.0
O45 O 0.52964 0.30006 0.17109 0.0
O46 O 0.55411 0.34048 0.12194 0.0
O47 O 0.575 0.31026 0.179 0.0
O48 O 0.57757 0.32783 0.15603 0.0
C49 C 0.52318 0.31213 0.16303 0.0
C50 C 0.5499 0.27673 0.12699 0.0
O51 O 0.5499 0.29313 0.12181 0.0
O52 O 0.55073 0.27459 0.14408 0.0
C53 C 0.54122 0.34227 0.11017 0.0
O54 O 0.52629 0.32889 0.10728 0.0
C55 C 0.58413 0.32333 0.17156 0.0
Zn56 Zn 0.08785 0.83055 0.12816 0.0
Zn57 Zn 0.06286 0.82555 0.14822 0.0
O58 O 0.06131 0.84969 0.13489 0.0
O59 O 0.082 0.85322 0.11778 0.0
O60 O 0.04215 0.82246 0.162 0.0
O61 O 0.07796 0.80426 0.11418 0.0
O62 O 0.05721 0.79944 0.13124 0.0
C63 C 0.06958 0.85876 0.12335 0.0
C64 C 0.10141 0.83212 0.16724 0.0
O65 O 0.08518 0.82899 0.1687 0.0
O66 O 0.10581 0.83386 0.15144 0.0
C67 C 0.04091 0.83605 0.17345 0.0
O68 O 0.05368 0.85192 0.17696 0.0
C69 C 0.06461 0.79331 0.11857 0.0
Zn70 Zn 0.48976 0.79272 0.42739 0.0
Zn71 Zn 0.51399 0.79713 0.40594 0.0
O72 O 0.52032 0.82393 0.42139 0.0
O73 O 0.50051 0.81994 0.43965 0.0
O74 O 0.53367 0.79809 0.39101 0.0
O75 O 0.49589 0.77018 0.43795 0.0
O76 O 0.51649 0.77411 0.42065 0.0
C77 C 0.51338 0.83064 0.43416 0.0
C78 C 0.47474 0.78937 0.38856 0.0
O79 O 0.49081 0.79301 0.38642 0.0
O80 O 0.47095 0.78797 0.40465 0.0
C81 C 0.54049 0.8116 0.38228 0.0
O82 O 0.53427 0.82675 0.38193 0.0
C83 C 0.5085 0.76506 0.43237 0.0
Zn84 Zn 0.58846 0.33329 0.62732 0.0
Zn85 Zn 0.56327 0.32831 0.64701 0.0
O86 O 0.56112 0.3518 0.63264 0.0
O87 O 0.58119 0.35411 0.61481 0.0
O88 O 0.5423 0.32489 0.66063 0.0
O89 O 0.58007 0.3061 0.61513 0.0
O90 O 0.55806 0.30195 0.63053 0.0
C91 C 0.56888 0.35996 0.62026 0.0
C92 C 0.60219 0.33795 0.6664 0.0
O93 O 0.58589 0.33285 0.66766 0.0
O94 O 0.60663 0.34003 0.65067 0.0
C95 C 0.54173 0.33636 0.67453 0.0
O96 O 0.55551 0.3508 0.68108 0.0
C97 C 0.56626 0.29539 0.6189 0.0
Zn98 Zn 0.98687 0.2905 0.92813 0.0
Zn99 Zn 0.01051 0.29314 0.90594 0.0
O100 O 0.01725 0.32033 0.92103 0.0
O101 O 0.9974 0.31799 0.93918 0.0
O102 O 0.03081 0.29397 0.89174 0.0
O103 O 0.99416 0.26963 0.94097 0.0
O104 O 0.01202 0.26991 0.92079 0.0
C105 C 0.01055 0.32791 0.93352 0.0
C106 C 0.97146 0.28554 0.88879 0.0
O107 O 0.98748 0.28924 0.88647 0.0
O108 O 0.96785 0.28432 0.905 0.0
C109 C 0.03141 0.29671 0.87487 0.0
O110 O 0.01757 0.29959 0.86439 0.0
C111 C 0.00536 0.26275 0.93425 0.0
Zn112 Zn 0.4579 0.12044 0.29517 0.0
Zn113 Zn 0.43899 0.14529 0.29605 0.0
O114 O 0.44832 0.14586 0.32434 0.0
O115 O 0.46081 0.12197 0.32297 0.0
O116 O 0.42439 0.16436 0.29422 0.0
O117 O 0.47558 0.13725 0.2828 0.0
O118 O 0.45718 0.15538 0.27953 0.0
C119 C 0.45608 0.13454 0.33246 0.0
C120 C 0.42236 0.10391 0.27768 0.0
O121 O 0.42083 0.12013 0.28416 0.0
O122 O 0.43738 0.10062 0.27951 0.0
C123 C 0.40887 0.16066 0.29777 0.0
O124 O 0.40258 0.1445 0.30417 0.0
C125 C 0.47115 0.15123 0.27617 0.0
Zn126 Zn 0.25166 0.22612 0.51005 0.0
Zn127 Zn 0.27284 0.20395 0.50929 0.0
O128 O 0.27537 0.2196 0.48619 0.0
O129 O 0.25836 0.23911 0.48825 0.0
O130 O 0.29237 0.18997 0.5087 0.0
O131 O 0.26239 0.23848 0.53604 0.0
O132 O 0.27961 0.219 0.53644 0.0
C133 C 0.26907 0.23293 0.47995 0.0
C134 C 0.23329 0.18582 0.50588 0.0
O135 O 0.24871 0.18329 0.5065 0.0
O136 O 0.23132 0.20263 0.50664 0.0
C137 C 0.29086 0.17206 0.50818 0.0
O138 O 0.27529 0.16049 0.50799 0.0
C139 C 0.27424 0.23205 0.54479 0.0
Zn140 Zn 0.13828 0.09826 0.83251 0.0
Zn141 Zn 0.16192 0.07765 0.84126 0.0
O142 O 0.14568 0.07143 0.86041 0.0
O143 O 0.1257 0.08704 0.85252 0.0
O144 O 0.1788 0.06128 0.84559 0.0
O145 O 0.1318 0.08423 0.80636 0.0
O146 O 0.15071 0.06743 0.81413 0.0
C147 C 0.13162 0.07599 0.86274 0.0
C148 C 0.17422 0.12131 0.84272 0.0
O149 O 0.17742 0.10515 0.84449 0.0
O150 O 0.15849 0.12232 0.83824 0.0
C151 C 0.19335 0.06563 0.83981 0.0
O152 O 0.19772 0.08164 0.83249 0.0
C153 C 0.13923 0.07136 0.80206 0.0
Zn154 Zn 0.3182 0.90631 0.03336 0.0
Zn155 Zn 0.29459 0.92587 0.0295 0.0
O156 O 0.29062 0.90982 0.00321 0.0
O157 O 0.31144 0.89467 0.0065 0.0
O158 O 0.27461 0.93914 0.02699 0.0
O159 O 0.30847 0.89236 0.05342 0.0
O160 O 0.29093 0.91152 0.05307 0.0
C161 C 0.29879 0.8986 0.99627 0.0
C162 C 0.33365 0.94704 0.03881 0.0
O163 O 0.31774 0.9477 0.03384 0.0
O164 O 0.33715 0.93113 0.04056 0.0
C165 C 0.27429 0.95267 0.03907 0.0
O166 O 0.28742 0.95853 0.05326 0.0
C167 C 0.29699 0.89853 0.06035 0.0
Zn168 Zn 0.31906 0.3992 0.03943 0.0
Zn169 Zn 0.30021 0.42398 0.04019 0.0
O170 O 0.29282 0.40832 0.01351 0.0
O171 O 0.30435 0.38382 0.01554 0.0
O172 O 0.28247 0.44036 0.04084 0.0
O173 O 0.31548 0.39158 0.06464 0.0
O174 O 0.29657 0.40922 0.06355 0.0
C175 C 0.29489 0.39263 0.00616 0.0
C176 C 0.33941 0.43847 0.03986 0.0
O177 O 0.32527 0.44277 0.04259 0.0
O178 O 0.33966 0.42108 0.03739 0.0
C179 C 0.27379 0.44453 0.02634 0.0
O180 O 0.27692 0.43914 0.00989 0.0
C181 C 0.30407 0.3977 0.07175 0.0
Zn182 Zn 0.76759 0.23587 0.01954 0.0
Zn183 Zn 0.78669 0.21091 0.02062 0.0
O184 O 0.79145 0.22499 0.99716 0.0
O185 O 0.77702 0.24721 0.99801 0.0
O186 O 0.80407 0.19432 0.02233 0.0
O187 O 0.77798 0.24825 0.04569 0.0
O188 O 0.79285 0.22642 0.04744 0.0
C189 C 0.78693 0.23905 0.99032 0.0
C190 C 0.74686 0.19599 0.01424 0.0
O191 O 0.76183 0.19222 0.01625 0.0
O192 O 0.74602 0.21323 0.0149 0.0
C193 C 0.80657 0.18458 0.00818 0.0
O194 O 0.79716 0.18461 0.99178 0.0
C195 C 0.7885 0.2406 0.0551 0.0
Zn196 Zn 0.09057 0.48634 0.23643 0.0
Zn197 Zn 0.11649 0.46912 0.23722 0.0
O198 O 0.10247 0.45883 0.25762 0.0
O199 O 0.07956 0.47092 0.25488 0.0
O200 O 0.13552 0.45516 0.23978 0.0
O201 O 0.08284 0.47707 0.20916 0.0
O202 O 0.10466 0.46335 0.20927 0.0
C203 C 0.08818 0.46035 0.26265 0.0
C204 C 0.12542 0.51235 0.24661 0.0
O205 O 0.1303 0.49713 0.24363 0.0
O206 O 0.10918 0.51159 0.2451 0.0
C207 C 0.14566 0.45815 0.25556 0.0
O208 O 0.14333 0.47016 0.2688 0.0
C209 C 0.0913 0.46768 0.20053 0.0
Zn210 Zn 0.81391 0.89779 0.54593 0.0
Zn211 Zn 0.79365 0.92045 0.54404 0.0
O212 O 0.78798 0.90386 0.51775 0.0
O213 O 0.8033 0.88261 0.52092 0.0
O214 O 0.77429 0.93491 0.54133 0.0
O215 O 0.80816 0.88839 0.56958 0.0
O216 O 0.78964 0.90648 0.56818 0.0
C217 C 0.79266 0.88956 0.51081 0.0
C218 C 0.83344 0.93723 0.54749 0.0
O219 O 0.81833 0.94064 0.54682 0.0
O220 O 0.83464 0.92017 0.54727 0.0
C221 C 0.77473 0.95093 0.5502 0.0
O222 O 0.78896 0.95998 0.56226 0.0
C223 C 0.79673 0.89466 0.57647 0.0
Zn224 Zn 0.92401 0.02705 0.19777 0.0
Zn225 Zn 0.90312 0.04921 0.20543 0.0
O226 O 0.92266 0.05615 0.22836 0.0
O227 O 0.94156 0.0404 0.22111 0.0
O228 O 0.88806 0.06659 0.21102 0.0
O229 O 0.92577 0.03765 0.17332 0.0
O230 O 0.91141 0.05832 0.18167 0.0
C231 C 0.9373 0.05198 0.23233 0.0
C232 C 0.88974 0.00554 0.20234 0.0
O233 O 0.88689 0.02207 0.20397 0.0
O234 O 0.90469 0.00383 0.19978 0.0
C235 C 0.88202 0.06686 0.22611 0.0
O236 O 0.8851 0.05489 0.2379 0.0
C237 C 0.91988 0.05199 0.17027 0.0
Zn238 Zn 0.26717 0.73071 0.51799 0.0
Zn239 Zn 0.28975 0.71033 0.52183 0.0
O240 O 0.29295 0.72396 0.49781 0.0
O241 O 0.27722 0.74494 0.4982 0.0
O242 O 0.30945 0.69673 0.52328 0.0
O243 O 0.27386 0.74185 0.54491 0.0
O244 O 0.29487 0.72695 0.54801 0.0
C245 C 0.28777 0.73758 0.49078 0.0
C246 C 0.25055 0.69026 0.51277 0.0
O247 O 0.26623 0.68903 0.5182 0.0
O248 O 0.24769 0.70637 0.51043 0.0
C249 C 0.30972 0.68154 0.5307 0.0
O250 O 0.29634 0.67342 0.53834 0.0
C251 C 0.28669 0.73812 0.55501 0.0
Zn252 Zn 0.40711 0.51165 0.68683 0.0
Zn253 Zn 0.3962 0.54055 0.70233 0.0
O254 O 0.41656 0.54025 0.72256 0.0
O255 O 0.42609 0.51685 0.71029 0.0
O256 O 0.38634 0.56168 0.71153 0.0
O257 O 0.41171 0.52589 0.66492 0.0
O258 O 0.40461 0.55013 0.67893 0.0
C259 C 0.4273 0.5298 0.72355 0.0
C260 C 0.37237 0.49914 0.69404 0.0
O261 O 0.37559 0.51671 0.70051 0.0
O262 O 0.38362 0.49313 0.68648 0.0
C263 C 0.39606 0.57823 0.71817 0.0
O264 O 0.41324 0.58147 0.71993 0.0
C265 C 0.41017 0.54284 0.6654 0.0
Zn266 Zn 0.59804 0.01466 0.7294 0.0
Zn267 Zn 0.6291 0.96986 0.7313 0.0
O268 O 0.61579 0.96917 0.75343 0.0
O269 O 0.60683 0.99143 0.74008 0.0
O270 O 0.64377 0.95101 0.73386 0.0
O271 O 0.60525 0.98949 0.71904 0.0
O272 O 0.6121 0.96506 0.70587 0.0
C273 C 0.60692 0.98149 0.75373 0.0
C274 C 0.63808 0.01008 0.73293 0.0
O275 O 0.64592 0.99683 0.73318 0.0
O276 O 0.62132 0.00491 0.73137 0.0
C277 C 0.65834 0.95701 0.74515 0.0
O278 O 0.66265 0.97452 0.75383 0.0
C279 C 0.60329 0.97749 0.70448 0.0
Zn280 Zn 0.75899 0.72867 0.0144 0.0
Zn281 Zn 0.77877 0.70437 0.01494 0.0
O282 O 0.78303 0.71916 0.99166 0.0
O283 O 0.76783 0.74061 0.99295 0.0
O284 O 0.79708 0.68877 0.01611 0.0
O285 O 0.76962 0.74098 0.0406 0.0
O286 O 0.78521 0.71978 0.04173 0.0
C287 C 0.77806 0.73313 0.98509 0.0
C288 C 0.7389 0.68859 0.00937 0.0
O289 O 0.754 0.6851 0.0114 0.0
O290 O 0.73775 0.70571 0.0097 0.0
C291 C 0.79821 0.677 0.00274 0.0
O292 O 0.78651 0.67375 0.98728 0.0
C293 C 0.78065 0.73368 0.04965 0.0
Zn294 Zn 0.98703 0.63769 0.79605 0.0
Zn295 Zn 0.95967 0.65246 0.79699 0.0
O296 O 0.97182 0.65726 0.82492 0.0
O297 O 0.99472 0.64561 0.8235 0.0
O298 O 0.9387 0.66356 0.79536 0.0
O299 O 0.99625 0.65492 0.77792 0.0
O300 O 0.97267 0.66568 0.7772 0.0
C301 C 0.98573 0.65342 0.83299 0.0
C302 C 0.95375 0.60965 0.78513 0.0
O303 O 0.94791 0.62412 0.78871 0.0
O304 O 0.97018 0.61158 0.7868 0.0
C305 C 0.93852 0.67951 0.80378 0.0
O306 O 0.95269 0.68967 0.81532 0.0
C307 C 0.9869 0.66543 0.77134 0.0
Zn308 Zn 0.81848 0.40724 0.52913 0.0
Zn309 Zn 0.79503 0.42671 0.5293 0.0
O310 O 0.78828 0.41175 0.50223 0.0
O311 O 0.80992 0.39788 0.50181 0.0
O312 O 0.77571 0.44057 0.53093 0.0
O313 O 0.81064 0.3919 0.54922 0.0
O314 O 0.79328 0.41085 0.55212 0.0
C315 C 0.79628 0.40167 0.49341 0.0
C316 C 0.83445 0.44744 0.53588 0.0
O317 O 0.81846 0.44833 0.53241 0.0
O318 O 0.83792 0.4314 0.53648 0.0
C319 C 0.77496 0.45578 0.52374 0.0
O320 O 0.78726 0.46335 0.51446 0.0
C321 C 0.79989 0.39756 0.55789 0.0
Zn322 Zn 0.65275 0.61166 0.35561 0.0
Zn323 Zn 0.67059 0.5853 0.34764 0.0
O324 O 0.66082 0.57665 0.37068 0.0
O325 O 0.64748 0.59865 0.37815 0.0
O326 O 0.68336 0.56563 0.34102 0.0
O327 O 0.63631 0.60205 0.3307 0.0
O328 O 0.65132 0.58117 0.32487 0.0
C329 C 0.65191 0.58345 0.38123 0.0
C330 C 0.68876 0.6287 0.35357 0.0
O331 O 0.68895 0.61127 0.3502 0.0
O332 O 0.67483 0.6328 0.35676 0.0
C333 C 0.70002 0.56877 0.34353 0.0
O334 O 0.70993 0.58566 0.35128 0.0
C335 C 0.6387 0.58862 0.32003 0.0
Pr336 Pr 0.01453 0.05361 0.02929 0.0
Pr337 Pr 0.05651 0.06966 0.03647 0.0
C338 C 0.97985 0.04912 0.02927 0.0
C339 C 0.96607 0.05959 0.02665 0.0
C340 C 0.96365 0.06959 0.01124 0.0
C341 C 0.9506 0.07956 0.00933 0.0
C342 C 0.93984 0.07989 0.02288 0.0
C343 C 0.94223 0.06972 0.03817 0.0
C344 C 0.95516 0.05964 0.03999 0.0
C345 C 0.03144 0.03944 0.00322 0.0
C346 C 0.03347 0.09602 0.01556 0.0
C347 C 0.09143 0.07388 0.03889 0.0
C348 C 0.10414 0.06193 0.03834 0.0
C349 C 0.11193 0.05627 0.05479 0.0
C350 C 0.12454 0.04583 0.05438 0.0
C351 C 0.12967 0.04075 0.03751 0.0
C352 C 0.12172 0.04617 0.02102 0.0
C353 C 0.10923 0.05676 0.02146 0.0
C354 C 0.03909 0.08274 0.06288 0.0
C355 C 0.03748 0.02638 0.0477 0.0
O356 O 0.99192 0.05483 0.04434 0.0
O357 O 0.98606 0.04404 0.01461 0.0
O358 O 0.03547 0.05645 0.01093 0.0
O359 O 0.01675 0.02937 0.00701 0.0
O360 O 0.04928 0.09293 0.01909 0.0
O361 O 0.0193 0.08446 0.01977 0.0
O362 O 0.08092 0.07406 0.02329 0.0
O363 O 0.08378 0.07418 0.05351 0.0
O364 O 0.03583 0.06592 0.05493 0.0
O365 O 0.05275 0.09384 0.05805 0.0
O366 O 0.02229 0.03082 0.04692 0.0
O367 O 0.05107 0.03729 0.04189 0.0
H368 H 0.97195 0.0699 0.00079 0.0
H369 H 0.94923 0.08742 0.9975 0.0
H370 H 0.93408 0.0695 0.04875 0.0
H371 H 0.95675 0.052 0.05196 0.0
H372 H 0.10845 0.06009 0.06807 0.0
H373 H 0.13029 0.04174 0.0673 0.0
H374 H 0.12554 0.04271 0.00784 0.0
H375 H 0.10376 0.06117 0.00858 0.0
Pr376 Pr 0.29651 0.83432 0.28431 0.0
Pr377 Pr 0.27832 0.79219 0.26243 0.0
C378 C 0.31673 0.86994 0.29586 0.0
C379 C 0.31888 0.88828 0.28821 0.0
C380 C 0.31938 0.90481 0.29982 0.0
C381 C 0.32103 0.92228 0.29272 0.0
C382 C 0.32229 0.92351 0.27388 0.0
C383 C 0.32162 0.90689 0.2622 0.0
C384 C 0.31982 0.88939 0.26928 0.0
C385 C 0.25982 0.82364 0.27643 0.0
C386 C 0.28926 0.82777 0.23718 0.0
C387 C 0.25255 0.76076 0.24789 0.0
C388 C 0.24597 0.74067 0.25067 0.0
C389 C 0.25742 0.72932 0.25596 0.0
C390 C 0.25062 0.71035 0.25891 0.0
C391 C 0.23234 0.70261 0.25683 0.0
C392 C 0.22099 0.71407 0.25151 0.0
C393 C 0.22776 0.7329 0.24845 0.0
C394 C 0.31424 0.79581 0.27424 0.0
C395 C 0.28907 0.79896 0.30933 0.0
O396 O 0.32227 0.85674 0.28709 0.0
O397 O 0.30171 0.86329 0.30125 0.0
O398 O 0.26993 0.82008 0.26574 0.0
O399 O 0.26874 0.83386 0.29192 0.0
O400 O 0.28218 0.80923 0.23688 0.0
O401 O 0.29543 0.83958 0.25289 0.0
O402 O 0.25084 0.77351 0.26077 0.0
O403 O 0.26738 0.7656 0.24155 0.0
O404 O 0.30602 0.80831 0.27663 0.0
O405 O 0.30362 0.78038 0.26454 0.0
O406 O 0.29917 0.81618 0.30871 0.0
O407 O 0.27841 0.78841 0.29434 0.0
H408 H 0.31855 0.90422 0.31441 0.0
H409 H 0.32176 0.93493 0.30208 0.0
H410 H 0.32246 0.90743 0.24761 0.0
H411 H 0.3192 0.87677 0.25994 0.0
H412 H 0.27155 0.73513 0.25792 0.0
H413 H 0.25965 0.70184 0.26307 0.0
H414 H 0.20684 0.70839 0.2495 0.0
H415 H 0.21874 0.74146 0.24439 0.0
Pr416 Pr 0.55538 0.07012 0.51995 0.0
Pr417 Pr 0.51374 0.0595 0.51338 0.0
C418 C 0.59006 0.07166 0.52771 0.0
C419 C 0.60303 0.06015 0.52792 0.0
C420 C 0.62097 0.06961 0.53064 0.0
C421 C 0.63371 0.05929 0.53159 0.0
C422 C 0.62888 0.03914 0.52992 0.0
C423 C 0.61075 0.02968 0.52663 0.0
C424 C 0.59796 0.04008 0.52575 0.0
C425 C 0.53902 0.08759 0.49259 0.0
C426 C 0.53166 0.02824 0.4951 0.0
C427 C 0.47922 0.05865 0.50544 0.0
C428 C 0.46616 0.07006 0.50657 0.0
C429 C 0.45298 0.06447 0.51724 0.0
C430 C 0.43965 0.07392 0.51753 0.0
C431 C 0.43903 0.08919 0.50705 0.0
C432 C 0.45244 0.09505 0.49662 0.0
C433 C 0.46583 0.08557 0.49634 0.0
C434 C 0.52976 0.04199 0.54082 0.0
C435 C 0.53766 0.10085 0.53936 0.0
O436 O 0.57972 0.06925 0.5401 0.0
O437 O 0.58216 0.07422 0.51143 0.0
O438 O 0.53393 0.07034 0.4952 0.0
O439 O 0.5538 0.0963 0.50357 0.0
O440 O 0.5171 0.03409 0.49385 0.0
O441 O 0.54681 0.0384 0.50525 0.0
O442 O 0.48993 0.0623 0.4935 0.0
O443 O 0.48654 0.05394 0.52101 0.0
O444 O 0.53514 0.05924 0.53827 0.0
O445 O 0.5149 0.03349 0.52989 0.0
O446 O 0.55217 0.095 0.54011 0.0
O447 O 0.52242 0.09089 0.52918 0.0
H448 H 0.62516 0.0851 0.53217 0.0
H449 H 0.64741 0.0672 0.53356 0.0
H450 H 0.60639 0.01426 0.52521 0.0
H451 H 0.58415 0.03246 0.52357 0.0
H452 H 0.45282 0.05253 0.5252 0.0
H453 H 0.42977 0.06918 0.52599 0.0
H454 H 0.45234 0.10664 0.48824 0.0
H455 H 0.47572 0.0902 0.48786 0.0
Pr456 Pr 0.26569 0.29974 0.77243 0.0
Pr457 Pr 0.30652 0.31612 0.78096 0.0
C458 C 0.2317 0.28307 0.77381 0.0
C459 C 0.21711 0.28593 0.78322 0.0
C460 C 0.20927 0.301 0.77991 0.0
C461 C 0.19483 0.30277 0.78805 0.0
C462 C 0.18789 0.28956 0.79973 0.0
C463 C 0.19595 0.27471 0.80329 0.0
C464 C 0.21031 0.27287 0.79504 0.0
C465 C 0.27788 0.33521 0.76079 0.0
C466 C 0.28559 0.32607 0.81372 0.0
C467 C 0.34077 0.33272 0.7806 0.0
C468 C 0.35572 0.33069 0.77151 0.0
C469 C 0.37256 0.33447 0.78242 0.0
C470 C 0.38716 0.33364 0.7742 0.0
C471 C 0.38534 0.3292 0.75476 0.0
C472 C 0.36832 0.3251 0.74387 0.0
C473 C 0.35367 0.32573 0.75216 0.0
C474 C 0.29367 0.28045 0.79233 0.0
C475 C 0.28673 0.29028 0.73941 0.0
O476 O 0.24495 0.27883 0.78394 0.0
O477 O 0.23654 0.29443 0.76153 0.0
O478 O 0.28378 0.33035 0.77613 0.0
O479 O 0.26457 0.32203 0.75134 0.0
O480 O 0.29986 0.33255 0.80659 0.0
O481 O 0.27208 0.31242 0.8043 0.0
O482 O 0.32769 0.33745 0.77064 0.0
O483 O 0.33566 0.32036 0.79194 0.0
O484 O 0.28837 0.28571 0.77704 0.0
O485 O 0.30685 0.29353 0.80218 0.0
O486 O 0.27228 0.28394 0.74632 0.0
O487 O 0.30039 0.30357 0.74911 0.0
H488 H 0.21416 0.31135 0.77089 0.0
H489 H 0.18909 0.31451 0.78519 0.0
H490 H 0.19085 0.26416 0.81204 0.0
H491 H 0.21592 0.26099 0.79765 0.0
H492 H 0.37446 0.33824 0.79738 0.0
H493 H 0.39988 0.33645 0.78318 0.0
H494 H 0.36632 0.32184 0.72886 0.0
H495 H 0.34082 0.32277 0.74339 0.0
Pr496 Pr 0.03019 0.04417 0.50566 0.0
Pr497 Pr 0.04033 0.0665 0.54275 0.0
C498 C 0.01409 0.02923 0.4707 0.0
C499 C 0.01177 0.0371 0.45289 0.0
C500 C 0.0139 0.02694 0.43666 0.0
C501 C 0.01229 0.03448 0.41974 0.0
C502 C 0.0085 0.05234 0.41877 0.0
C503 C 0.0064 0.06252 0.43507 0.0
C504 C 0.00808 0.055 0.452 0.0
C505 C 0.06651 0.06031 0.51525 0.0
C506 C 0.03095 0.09114 0.50978 0.0
C507 C 0.05692 0.0811 0.57758 0.0
C508 C 0.06644 0.07286 0.5922 0.0
C509 C 0.06418 0.07611 0.61068 0.0
C510 C 0.07231 0.06741 0.62449 0.0
C511 C 0.08286 0.05533 0.62004 0.0
C512 C 0.08516 0.05212 0.60152 0.0
C513 C 0.07692 0.06072 0.58768 0.0
C514 C 0.00401 0.05107 0.5328 0.0
C515 C 0.04043 0.02028 0.53877 0.0
O516 O 0.00578 0.0347 0.4834 0.0
O517 O 0.03011 0.02865 0.47746 0.0
O518 O 0.05481 0.06871 0.51792 0.0
O519 O 0.05957 0.04289 0.5072 0.0
O520 O 0.03786 0.0927 0.52755 0.0
O521 O 0.02621 0.07442 0.49917 0.0
O522 O 0.06425 0.0843 0.56294 0.0
O523 O 0.03993 0.07355 0.5734 0.0
O524 O 0.01547 0.04214 0.53043 0.0
O525 O 0.01125 0.06862 0.54037 0.0
O526 O 0.03074 0.01814 0.52208 0.0
O527 O 0.04756 0.0375 0.54806 0.0
H528 H 0.01681 0.01317 0.43708 0.0
H529 H 0.01369 0.02617 0.40734 0.0
H530 H 0.00359 0.07636 0.43476 0.0
H531 H 0.00652 0.06321 0.46438 0.0
H532 H 0.05603 0.08528 0.61439 0.0
H533 H 0.07053 0.07033 0.63873 0.0
H534 H 0.09315 0.0428 0.59773 0.0
H535 H 0.07864 0.05775 0.57343 0.0
Pr536 Pr 0.28858 0.80226 0.77311 0.0
Pr537 Pr 0.3079 0.84959 0.77557 0.0
C538 C 0.27883 0.76424 0.76346 0.0
C539 C 0.2875 0.75043 0.75603 0.0
C540 C 0.2803 0.73084 0.75602 0.0
C541 C 0.28954 0.71774 0.75097 0.0
C542 C 0.30616 0.72409 0.7459 0.0
C543 C 0.31306 0.74377 0.74542 0.0
C544 C 0.30383 0.75684 0.75052 0.0
C545 C 0.28334 0.82372 0.80475 0.0
C546 C 0.33204 0.82072 0.79069 0.0
C547 C 0.31759 0.88748 0.78583 0.0
C548 C 0.30883 0.90185 0.79201 0.0
C549 C 0.31282 0.91987 0.78585 0.0
C550 C 0.30348 0.93313 0.79008 0.0
C551 C 0.29 0.92861 0.80064 0.0
C552 C 0.28625 0.91058 0.80704 0.0
C553 C 0.2955 0.89727 0.80266 0.0
C554 C 0.31227 0.82818 0.74345 0.0
C555 C 0.2655 0.83094 0.7557 0.0
O556 O 0.27465 0.77621 0.75222 0.0
O557 O 0.28583 0.77235 0.78051 0.0
O558 O 0.29177 0.82951 0.79227 0.0
O559 O 0.27632 0.80543 0.80059 0.0
O560 O 0.33069 0.83857 0.79107 0.0
O561 O 0.31886 0.80553 0.78338 0.0
O562 O 0.32034 0.87518 0.79738 0.0
O563 O 0.31209 0.87975 0.76842 0.0
O564 O 0.30458 0.82237 0.75644 0.0
O565 O 0.31877 0.84661 0.74715 0.0
O566 O 0.26743 0.8133 0.75456 0.0
O567 O 0.27762 0.84604 0.76512 0.0
H568 H 0.26779 0.72573 0.76046 0.0
H569 H 0.28398 0.70272 0.75174 0.0
H570 H 0.3257 0.74909 0.74135 0.0
H571 H 0.30965 0.77198 0.75066 0.0
H572 H 0.32289 0.92353 0.77738 0.0
H573 H 0.30653 0.94674 0.78466 0.0
H574 H 0.27614 0.90672 0.81542 0.0
H575 H 0.29205 0.88331 0.80734 0.0
Pr576 Pr 0.54768 0.06376 0.04929 0.0
Pr577 Pr 0.53468 0.0593 0.00454 0.0
C578 C 0.55413 0.07326 0.08648 0.0
C579 C 0.5484 0.0859 0.0995 0.0
C580 C 0.55148 0.08453 0.1186 0.0
C581 C 0.54647 0.09688 0.1311 0.0
C582 C 0.53854 0.11108 0.12473 0.0
C583 C 0.53543 0.11228 0.10545 0.0
C584 C 0.54011 0.09963 0.09296 0.0
C585 C 0.54791 0.0294 0.02928 0.0
C586 C 0.50451 0.05423 0.03135 0.0
C587 C 0.52563 0.04346 0.96875 0.0
C588 C 0.53297 0.04331 0.9516 0.0
C589 C 0.52155 0.03866 0.93435 0.0
C590 C 0.52815 0.03618 0.91797 0.0
C591 C 0.54625 0.03817 0.91869 0.0
C592 C 0.55775 0.04368 0.93595 0.0
C593 C 0.55116 0.0463 0.9523 0.0
C594 C 0.5391 0.09721 0.02052 0.0
C595 C 0.57716 0.07704 0.02245 0.0
O596 O 0.56412 0.08188 0.07546 0.0
O597 O 0.54213 0.05797 0.07802 0.0
O598 O 0.53622 0.03833 0.02631 0.0
O599 O 0.55965 0.03763 0.04392 0.0
O600 O 0.5077 0.05103 0.01434 0.0
O601 O 0.51717 0.06063 0.04616 0.0
O602 O 0.53293 0.0355 0.98212 0.0
O603 O 0.52168 0.05912 0.97464 0.0
O604 O 0.54154 0.08322 0.02851 0.0
O605 O 0.53395 0.09174 0.0027 0.0
O606 O 0.57293 0.07995 0.03905 0.0
O607 O 0.56554 0.06719 0.00782 0.0
H608 H 0.55771 0.07386 0.12385 0.0
H609 H 0.54863 0.09509 0.14574 0.0
H610 H 0.52952 0.12305 0.09996 0.0
H611 H 0.53731 0.10062 0.07819 0.0
H612 H 0.50748 0.03626 0.93361 0.0
H613 H 0.51899 0.0318 0.90486 0.0
H614 H 0.57178 0.04553 0.93683 0.0
H615 H 0.56019 0.05003 0.96554 0.0
Pr616 Pr 0.26475 0.30066 0.27365 0.0
Pr617 Pr 0.30408 0.33006 0.27812 0.0
C618 C 0.23525 0.28089 0.28395 0.0
C619 C 0.22024 0.28588 0.29089 0.0
C620 C 0.20311 0.27428 0.28462 0.0
C621 C 0.18896 0.27826 0.29194 0.0
C622 C 0.19164 0.29383 0.3059 0.0
C623 C 0.20881 0.30581 0.31163 0.0
C624 C 0.22291 0.30193 0.30417 0.0
C625 C 0.26956 0.31718 0.24062 0.0
C626 C 0.27117 0.34778 0.28439 0.0
C627 C 0.33674 0.34849 0.27402 0.0
C628 C 0.34991 0.34563 0.26256 0.0
C629 C 0.36658 0.34479 0.27144 0.0
C630 C 0.37923 0.3419 0.26101 0.0
C631 C 0.37555 0.33992 0.2414 0.0
C632 C 0.35886 0.34083 0.2325 0.0
C633 C 0.34614 0.34359 0.24296 0.0
C634 C 0.29404 0.31567 0.31018 0.0
C635 C 0.29638 0.28319 0.26205 0.0
O636 O 0.25049 0.2867 0.29523 0.0
O637 O 0.23634 0.28264 0.26646 0.0
O638 O 0.2801 0.31976 0.25577 0.0
O639 O 0.25505 0.3048 0.24199 0.0
O640 O 0.28657 0.35149 0.27882 0.0
O641 O 0.26261 0.33036 0.2868 0.0
O642 O 0.3225 0.35245 0.26566 0.0
O643 O 0.33372 0.33685 0.28656 0.0
O644 O 0.29099 0.30652 0.29411 0.0
O645 O 0.30321 0.33322 0.31037 0.0
O646 O 0.28066 0.27885 0.26691 0.0
O647 O 0.30591 0.30105 0.2626 0.0
H648 H 0.20071 0.26198 0.2742 0.0
H649 H 0.17591 0.26903 0.28665 0.0
H650 H 0.21159 0.31786 0.32238 0.0
H651 H 0.23599 0.31126 0.30916 0.0
H652 H 0.36984 0.34638 0.28652 0.0
H653 H 0.39201 0.3415 0.26834 0.0
H654 H 0.35554 0.33916 0.21744 0.0
H655 H 0.33339 0.34406 0.23566 0.0
Pr656 Pr 0.53106 0.54499 0.99958 0.0
Pr657 Pr 0.5505 0.56762 0.03991 0.0
C658 C 0.5115 0.52322 0.96856 0.0
C659 C 0.50873 0.52444 0.94835 0.0
C660 C 0.52254 0.52561 0.93824 0.0
C661 C 0.51973 0.5273 0.91921 0.0
C662 C 0.50313 0.52802 0.90999 0.0
C663 C 0.48931 0.52671 0.92008 0.0
C664 C 0.49207 0.52485 0.93906 0.0
C665 C 0.56631 0.56495 0.00224 0.0
C666 C 0.53623 0.59121 0.00637 0.0
C667 C 0.57409 0.58645 0.06986 0.0
C668 C 0.5759 0.58547 0.09001 0.0
C669 C 0.56157 0.58494 0.09924 0.0
C670 C 0.56307 0.58222 0.11802 0.0
C671 C 0.5788 0.57969 0.12775 0.0
C672 C 0.59318 0.58054 0.11858 0.0
C673 C 0.59175 0.58347 0.09987 0.0
C674 C 0.51398 0.55376 0.03931 0.0
C675 C 0.54216 0.52039 0.03469 0.0
O676 O 0.50553 0.53498 0.97883 0.0
O677 O 0.52677 0.52105 0.9763 0.0
O678 O 0.55999 0.55557 0.01446 0.0
O679 O 0.55448 0.56323 0.98741 0.0
O680 O 0.54895 0.59162 0.0205 0.0
O681 O 0.52512 0.57495 0.99801 0.0
O682 O 0.57604 0.57152 0.05992 0.0
O683 O 0.56125 0.59316 0.06207 0.0
O684 O 0.52243 0.55223 0.02642 0.0
O685 O 0.52482 0.56349 0.05398 0.0
O686 O 0.53284 0.52008 0.01795 0.0
O687 O 0.55109 0.53652 0.04525 0.0
H688 H 0.53557 0.5254 0.94502 0.0
H689 H 0.53062 0.52838 0.91176 0.0
H690 H 0.47631 0.52695 0.91324 0.0
H691 H 0.4812 0.52387 0.94653 0.0
H692 H 0.54911 0.5862 0.09187 0.0
H693 H 0.5518 0.58154 0.1248 0.0
H694 H 0.60553 0.57889 0.12589 0.0
H695 H 0.6029 0.58376 0.09298 0.0
Pr696 Pr 0.78003 0.29757 0.2748 0.0
Pr697 Pr 0.7995 0.34246 0.27659 0.0
C698 C 0.77088 0.25915 0.26991 0.0
C699 C 0.78064 0.24462 0.26795 0.0
C700 C 0.77321 0.22579 0.27083 0.0
C701 C 0.78268 0.21203 0.26948 0.0
C702 C 0.79972 0.21693 0.26521 0.0
C703 C 0.80714 0.2359 0.26241 0.0
C704 C 0.79769 0.24964 0.26381 0.0
C705 C 0.77585 0.32157 0.30456 0.0
C706 C 0.82396 0.31381 0.29012 0.0
C707 C 0.8107 0.38023 0.28832 0.0
C708 C 0.8027 0.39631 0.2877 0.0
C709 C 0.78636 0.39429 0.27628 0.0
C710 C 0.77784 0.40891 0.27724 0.0
C711 C 0.78552 0.42574 0.28972 0.0
C712 C 0.80224 0.42791 0.30062 0.0
C713 C 0.81071 0.41326 0.29968 0.0
C714 C 0.80086 0.32259 0.24244 0.0
C715 C 0.75709 0.32563 0.25645 0.0
O716 O 0.76972 0.26941 0.25609 0.0
O717 O 0.77436 0.26926 0.28635 0.0
O718 O 0.78992 0.32282 0.29815 0.0
O719 O 0.7634 0.3069 0.29593 0.0
O720 O 0.82359 0.33175 0.28894 0.0
O721 O 0.80987 0.29915 0.28508 0.0
O722 O 0.80448 0.36754 0.29888 0.0
O723 O 0.81303 0.37261 0.27237 0.0
O724 O 0.79401 0.31587 0.25563 0.0
O725 O 0.80758 0.34092 0.24675 0.0
O726 O 0.75859 0.30787 0.25608 0.0
O727 O 0.76973 0.34057 0.2653 0.0
H728 H 0.7601 0.22174 0.27413 0.0
H729 H 0.77657 0.19749 0.27152 0.0
H730 H 0.82032 0.24015 0.25934 0.0
H731 H 0.8037 0.26419 0.26173 0.0
H732 H 0.78 0.38122 0.26697 0.0
H733 H 0.76515 0.40689 0.2684 0.0
H734 H 0.80846 0.44055 0.31056 0.0
H735 H 0.82326 0.41492 0.3087 0.0
Pr736 Pr 0.04871 0.56495 0.54499 0.0
Pr737 Pr 0.03645 0.56251 0.49817 0.0
C738 C 0.05541 0.57925 0.58107 0.0
C739 C 0.0484 0.59317 0.59116 0.0
C740 C 0.05779 0.60336 0.60825 0.0
C741 C 0.05093 0.61641 0.6179 0.0
C742 C 0.03456 0.61948 0.61056 0.0
C743 C 0.02548 0.60964 0.5931 0.0
C744 C 0.03233 0.5966 0.58351 0.0
C745 C 0.04852 0.52958 0.52586 0.0
C746 C 0.0058 0.55259 0.52488 0.0
C747 C 0.02794 0.54814 0.46198 0.0
C748 C 0.0324 0.53351 0.44998 0.0
C749 C 0.02206 0.5266 0.43236 0.0
C750 C 0.02602 0.51254 0.42083 0.0
C751 C 0.04038 0.50507 0.42679 0.0
C752 C 0.05062 0.51191 0.44462 0.0
C753 C 0.04665 0.52604 0.45612 0.0
C754 C 0.03704 0.59798 0.51754 0.0
C755 C 0.07926 0.57584 0.51829 0.0
O756 O 0.06549 0.5861 0.56933 0.0
O757 O 0.04411 0.56274 0.57447 0.0
O758 O 0.04459 0.54373 0.51931 0.0
O759 O 0.0533 0.53368 0.54392 0.0
O760 O 0.00958 0.55124 0.50789 0.0
O761 O 0.01786 0.55878 0.54024 0.0
O762 O 0.01846 0.54175 0.47438 0.0
O763 O 0.04059 0.5637 0.4684 0.0
O764 O 0.04048 0.58352 0.52381 0.0
O765 O 0.03261 0.59427 0.49943 0.0
O766 O 0.07535 0.57742 0.53523 0.0
O767 O 0.06732 0.56877 0.50295 0.0
H768 H 0.07028 0.601 0.61427 0.0
H769 H 0.05814 0.62357 0.63143 0.0
H770 H 0.01297 0.61185 0.58696 0.0
H771 H 0.02502 0.5891 0.57014 0.0
H772 H 0.01098 0.53219 0.42744 0.0
H773 H 0.01809 0.50789 0.40705 0.0
H774 H 0.06168 0.50637 0.44965 0.0
H775 H 0.05471 0.53116 0.4698 0.0
Pr776 Pr 0.76945 0.80735 0.27521 0.0
Pr777 Pr 0.81016 0.82437 0.28367 0.0
C778 C 0.73546 0.78988 0.27568 0.0
C779 C 0.72081 0.79267 0.28475 0.0
C780 C 0.72078 0.81077 0.2931 0.0
C781 C 0.70659 0.81311 0.30144 0.0
C782 C 0.69226 0.79736 0.30171 0.0
C783 C 0.6925 0.77925 0.29345 0.0
C784 C 0.70663 0.77695 0.28505 0.0
C785 C 0.78145 0.84342 0.26439 0.0
C786 C 0.78898 0.83253 0.31706 0.0
C787 C 0.84414 0.84178 0.283 0.0
C788 C 0.85859 0.83973 0.27324 0.0
C789 C 0.87603 0.84691 0.28258 0.0
C790 C 0.89003 0.84544 0.27363 0.0
C791 C 0.88694 0.83687 0.255 0.0
C792 C 0.86935 0.82947 0.24574 0.0
C793 C 0.85532 0.83079 0.2548 0.0
C794 C 0.79843 0.78822 0.29438 0.0
C795 C 0.79047 0.79898 0.24218 0.0
O796 O 0.74869 0.78616 0.28631 0.0
O797 O 0.74036 0.80155 0.26367 0.0
O798 O 0.78721 0.8381 0.27951 0.0
O799 O 0.76829 0.83027 0.25462 0.0
O800 O 0.80348 0.83918 0.31033 0.0
O801 O 0.77541 0.81936 0.30711 0.0
O802 O 0.83082 0.8464 0.27343 0.0
O803 O 0.8394 0.82915 0.2942 0.0
O804 O 0.79244 0.79357 0.27937 0.0
O805 O 0.81178 0.80127 0.30393 0.0
O806 O 0.77671 0.7914 0.24968 0.0
O807 O 0.80355 0.81321 0.2514 0.0
H808 H 0.7317 0.82307 0.29314 0.0
H809 H 0.70694 0.8272 0.30787 0.0
H810 H 0.68161 0.76686 0.29319 0.0
H811 H 0.70643 0.76287 0.27869 0.0
H812 H 0.87883 0.85368 0.29688 0.0
H813 H 0.90331 0.85089 0.28143 0.0
H814 H 0.86639 0.82292 0.23139 0.0
H815 H 0.84193 0.82495 0.24739 0.0
Pr816 Pr 0.80268 0.33455 0.78255 0.0
Pr817 Pr 0.7766 0.29708 0.76432 0.0
C818 C 0.82891 0.3641 0.80086 0.0
C819 C 0.83701 0.38338 0.79696 0.0
C820 C 0.82851 0.39155 0.78279 0.0
C821 C 0.83647 0.40976 0.77881 0.0
C822 C 0.85313 0.41999 0.78883 0.0
C823 C 0.86159 0.41168 0.80297 0.0
C824 C 0.85357 0.39351 0.80699 0.0
C825 C 0.76824 0.33733 0.77164 0.0
C826 C 0.79262 0.33005 0.73759 0.0
C827 C 0.7503 0.26859 0.74443 0.0
C828 C 0.74215 0.24829 0.74467 0.0
C829 C 0.75062 0.23732 0.75588 0.0
C830 C 0.74272 0.21789 0.75576 0.0
C831 C 0.7262 0.20924 0.74451 0.0
C832 C 0.71776 0.22039 0.73342 0.0
C833 C 0.7257 0.23977 0.7335 0.0
C834 C 0.81061 0.29363 0.77598 0.0
C835 C 0.78683 0.30163 0.8095 0.0
O836 O 0.83157 0.35012 0.79019 0.0
O837 O 0.8127 0.36097 0.80376 0.0
O838 O 0.77242 0.32388 0.77949 0.0
O839 O 0.78209 0.35043 0.76995 0.0
O840 O 0.77928 0.31599 0.73972 0.0
O841 O 0.80542 0.33826 0.75171 0.0
O842 O 0.74797 0.28042 0.75771 0.0
O843 O 0.76628 0.2729 0.74077 0.0
O844 O 0.80696 0.30733 0.76802 0.0
O845 O 0.79647 0.28045 0.77664 0.0
O846 O 0.79945 0.3167 0.80779 0.0
O847 O 0.7747 0.29236 0.79514 0.0
H848 H 0.81577 0.38378 0.77476 0.0
H849 H 0.82974 0.41571 0.76771 0.0
H850 H 0.87434 0.41931 0.81106 0.0
H851 H 0.86031 0.38734 0.81788 0.0
H852 H 0.76332 0.24378 0.76468 0.0
H853 H 0.74943 0.20968 0.76459 0.0
H854 H 0.70514 0.21407 0.72445 0.0
H855 H 0.71903 0.2481 0.72477 0.0
Pr856 Pr 0.77046 0.78913 0.77613 0.0
Pr857 Pr 0.80758 0.82244 0.77871 0.0
C858 C 0.7433 0.76829 0.7896 0.0
C859 C 0.72706 0.77128 0.79569 0.0
C860 C 0.71223 0.77215 0.78291 0.0
C861 C 0.69735 0.77559 0.78921 0.0
C862 C 0.69703 0.7784 0.80843 0.0
C863 C 0.71182 0.77739 0.82114 0.0
C864 C 0.72657 0.77377 0.81486 0.0
C865 C 0.77181 0.80595 0.7428 0.0
C866 C 0.77228 0.83575 0.78454 0.0
C867 C 0.83841 0.84452 0.77319 0.0
C868 C 0.85245 0.84293 0.76262 0.0
C869 C 0.87007 0.85115 0.77098 0.0
C870 C 0.88367 0.84932 0.76154 0.0
C871 C 0.87992 0.83928 0.74348 0.0
C872 C 0.86222 0.83122 0.73502 0.0
C873 C 0.8486 0.83292 0.74455 0.0
C874 C 0.80011 0.80824 0.81165 0.0
C875 C 0.80443 0.77591 0.76456 0.0
O876 O 0.75815 0.7781 0.80013 0.0
O877 O 0.74401 0.76694 0.77171 0.0
O878 O 0.78311 0.8094 0.75748 0.0
O879 O 0.75837 0.79234 0.74484 0.0
O880 O 0.78786 0.84122 0.77961 0.0
O881 O 0.76515 0.81795 0.78717 0.0
O882 O 0.82313 0.84468 0.7636 0.0
O883 O 0.83709 0.83448 0.78719 0.0
O884 O 0.79734 0.7986 0.79582 0.0
O885 O 0.80758 0.82621 0.81104 0.0
O886 O 0.78881 0.76987 0.76942 0.0
O887 O 0.81232 0.79428 0.76469 0.0
H888 H 0.71214 0.77031 0.76805 0.0
H889 H 0.68619 0.77635 0.77906 0.0
H890 H 0.71192 0.77913 0.83601 0.0
H891 H 0.7377 0.77303 0.82508 0.0
H892 H 0.87332 0.8589 0.78491 0.0
H893 H 0.89716 0.85583 0.76835 0.0
H894 H 0.85893 0.82322 0.72121 0.0
H895 H 0.8351 0.82626 0.73788 0.0
Pr896 Pr 0.51729 0.55408 0.52039 0.0
Pr897 Pr 0.55843 0.57115 0.53481 0.0
C898 C 0.48201 0.54858 0.51356 0.0
C899 C 0.46951 0.56046 0.51436 0.0
C900 C 0.45169 0.55174 0.51395 0.0
C901 C 0.43976 0.56285 0.51542 0.0
C902 C 0.44541 0.58299 0.51739 0.0
C903 C 0.4633 0.59162 0.51735 0.0
C904 C 0.47524 0.58048 0.51602 0.0
C905 C 0.53838 0.54228 0.49753 0.0
C906 C 0.53752 0.59876 0.51349 0.0
C907 C 0.59366 0.57664 0.54389 0.0
C908 C 0.60726 0.56601 0.54221 0.0
C909 C 0.61353 0.55711 0.55721 0.0
C910 C 0.62689 0.54783 0.55606 0.0
C911 C 0.63445 0.54731 0.53993 0.0
C912 C 0.6281 0.55609 0.52487 0.0
C913 C 0.6147 0.56533 0.52599 0.0
C914 C 0.53629 0.58086 0.55797 0.0
C915 C 0.53845 0.5261 0.5401 0.0
O916 O 0.49082 0.54668 0.5296 0.0
O917 O 0.49167 0.55107 0.50058 0.0
O918 O 0.54142 0.55889 0.50613 0.0
O919 O 0.52301 0.53163 0.49886 0.0
O920 O 0.55319 0.59551 0.51771 0.0
O921 O 0.52298 0.58663 0.51612 0.0
O922 O 0.58601 0.58173 0.5287 0.0
O923 O 0.58284 0.57127 0.55539 0.0
O924 O 0.53452 0.56489 0.54889 0.0
O925 O 0.55101 0.59277 0.55653 0.0
O926 O 0.52302 0.5301 0.53761 0.0
O927 O 0.5528 0.53792 0.53659 0.0
H928 H 0.44701 0.5363 0.51261 0.0
H929 H 0.42607 0.55557 0.51485 0.0
H930 H 0.46822 0.607 0.51866 0.0
H931 H 0.48897 0.58751 0.51644 0.0
H932 H 0.60826 0.55752 0.56999 0.0
H933 H 0.63161 0.54146 0.568 0.0
H934 H 0.63344 0.55578 0.51214 0.0
H935 H 0.61028 0.57207 0.51418 0.0
Pr936 Pr 0.05805 0.56763 0.0229 0.0
Pr937 Pr 0.01659 0.558 0.01381 0.0
C938 C 0.09228 0.56734 0.03091 0.0
C939 C 0.10434 0.55465 0.03024 0.0
C940 C 0.11651 0.55754 0.01807 0.0
C941 C 0.12879 0.54669 0.01786 0.0
C942 C 0.12936 0.53268 0.02993 0.0
C943 C 0.11704 0.52962 0.04202 0.0
C944 C 0.10464 0.54044 0.04215 0.0
C945 C 0.04377 0.58542 0.99446 0.0
C946 C 0.03454 0.52598 0.99796 0.0
C947 C 0.98235 0.55741 0.00331 0.0
C948 C 0.96909 0.56834 0.00452 0.0
C949 C 0.95126 0.55881 0.99872 0.0
C950 C 0.93827 0.56866 0.9993 0.0
C951 C 0.94279 0.58838 0.00565 0.0
C952 C 0.96076 0.59788 0.01171 0.0
C953 C 0.97381 0.58795 0.01112 0.0
C954 C 0.03075 0.54073 0.04281 0.0
C955 C 0.04011 0.59892 0.04089 0.0
O956 O 0.08185 0.56543 0.04325 0.0
O957 O 0.08497 0.57136 0.01498 0.0
O958 O 0.03804 0.56813 0.99674 0.0
O959 O 0.0579 0.5939 0.00652 0.0
O960 O 0.02083 0.53312 0.9942 0.0
O961 O 0.04883 0.53529 0.01001 0.0
O962 O 0.99443 0.56338 0.99331 0.0
O963 O 0.98833 0.55094 0.01846 0.0
O964 O 0.03657 0.55779 0.03996 0.0
O965 O 0.01633 0.5322 0.03115 0.0
O966 O 0.05451 0.59273 0.04261 0.0
O967 O 0.02517 0.58925 0.02993 0.0
H968 H 0.11676 0.56851 0.00889 0.0
H969 H 0.13821 0.54971 0.00859 0.0
H970 H 0.11699 0.51885 0.0514 0.0
H971 H 0.09547 0.53782 0.05173 0.0
H972 H 0.94734 0.54367 0.99366 0.0
H973 H 0.92462 0.56072 0.99488 0.0
H974 H 0.96479 0.61306 0.01654 0.0
H975 H 0.98754 0.59558 0.01565 0.0
H976 H 0.01585 0.23388 0.91638 0.0
H977 H 0.02091 0.20501 0.92884 0.0
H978 H 0.01201 0.22613 0.98248 0.0
H979 H 0.00592 0.25425 0.96977 0.0
H980 H 0.04245 0.19602 0.95327 0.0
H981 H 0.99457 0.19178 0.00623 0.0
H982 H 0.96681 0.19993 0.00962 0.0
H983 H 0.95279 0.19651 0.95014 0.0
H984 H 0.98041 0.18821 0.94638 0.0
H985 H 0.05839 0.12942 0.01517 0.0
H986 H 0.05445 0.1573 0.00025 0.0
H987 H 1.00003 0.12781 0.97866 0.0
H988 H 0.00369 0.10048 0.99454 0.0
H989 H 1.00032 0.1608 0.98964 0.0
H990 H 0.0352 0.13696 0.95016 0.0
H991 H 0.06045 0.12591 0.94221 0.0
H992 H 0.09578 0.17959 0.96769 0.0
H993 H 0.07076 0.19105 0.97565 0.0
C994 C 0.01502 0.23233 0.93083 0.0
C995 C 0.01026 0.2462 0.94203 0.0
C996 C 0.01793 0.21582 0.93798 0.0
C997 C 0.01641 0.21302 0.95653 0.0
C998 C 0.01265 0.22748 0.96796 0.0
C999 C 0.0093 0.24368 0.96071 0.0
C1000 C 0.01851 0.19499 0.96392 0.0
C1001 C 0.03318 0.18829 0.96116 0.0
C1002 C 0.00629 0.18453 0.97394 0.0
C1003 C 0.98965 0.18956 0.97605 0.0
C1004 C 0.98555 0.19273 0.99387 0.0
C1005 C 0.96984 0.19739 0.99586 0.0
C1006 C 0.95806 0.19876 0.98011 0.0
C1007 C 0.96196 0.1955 0.96234 0.0
C1008 C 0.97765 0.19085 0.96027 0.0
C1009 C 0.0456 0.12891 0.00722 0.0
C1010 C 0.03133 0.11279 0.00613 0.0
C1011 C 0.04338 0.14481 0.9985 0.0
C1012 C 0.02699 0.1447 0.98798 0.0
C1013 C 0.01281 0.12842 0.98671 0.0
C1014 C 0.01491 0.11275 0.99581 0.0
C1015 C 0.02429 0.16179 0.97905 0.0
C1016 C 0.00954 0.1684 0.98163 0.0
C1017 C 0.03607 0.17171 0.96829 0.0
C1018 C 0.05113 0.16479 0.96365 0.0
C1019 C 0.04837 0.14636 0.95417 0.0
C1020 C 0.06263 0.14003 0.94964 0.0
C1021 C 0.0797 0.15197 0.95457 0.0
C1022 C 0.08255 0.17033 0.96392 0.0
C1023 C 0.06834 0.17679 0.96837 0.0
H1024 H 0.09071 0.14702 0.95108 0.0
H1025 H 0.94589 0.20234 0.98168 0.0
H1026 H 0.13625 0.8364 0.16703 0.0
H1027 H 0.15889 0.83346 0.19207 0.0
H1028 H 0.12149 0.82545 0.22935 0.0
H1029 H 0.09823 0.82796 0.20395 0.0
H1030 H 0.16468 0.85582 0.23768 0.0
H1031 H 0.1256 0.7909 0.22796 0.0
H1032 H 0.10587 0.76278 0.20745 0.0
H1033 H 0.14767 0.75824 0.17804 0.0
H1034 H 0.16756 0.78654 0.1982 0.0
H1035 H 0.2361 0.83426 0.29575 0.0
H1036 H 0.20551 0.8337 0.28341 0.0
H1037 H 0.21042 0.80797 0.22981 0.0
H1038 H 0.24067 0.808 0.2422 0.0
H1039 H 0.17894 0.79302 0.23605 0.0
H1040 H 0.21632 0.85735 0.24074 0.0
H1041 H 0.23732 0.88703 0.25722 0.0
H1042 H 0.20049 0.89438 0.29257 0.0
H1043 H 0.17935 0.86459 0.27642 0.0
C1044 C 0.1327 0.83416 0.18054 0.0
C1045 C 0.1153 0.8323 0.1834 0.0
C1046 C 0.14574 0.83249 0.19485 0.0
C1047 C 0.14182 0.82911 0.21245 0.0
C1048 C 0.1247 0.82799 0.21576 0.0
C1049 C 0.11147 0.82945 0.20127 0.0
C1050 C 0.15581 0.826 0.22675 0.0
C1051 C 0.16754 0.84198 0.23791 0.0
C1052 C 0.15981 0.8081 0.22641 0.0
C1053 C 0.14799 0.79092 0.21447 0.0
C1054 C 0.13053 0.784 0.21701 0.0
C1055 C 0.11933 0.76801 0.20547 0.0
C1056 C 0.1255 0.75876 0.19142 0.0
C1057 C 0.1429 0.76544 0.18892 0.0
C1058 C 0.15415 0.78143 0.20041 0.0
C1059 C 0.23053 0.82822 0.28143 0.0
C1060 C 0.24081 0.82135 0.26988 0.0
C1061 C 0.21308 0.82799 0.27436 0.0
C1062 C 0.2057 0.82109 0.25557 0.0
C1063 C 0.21575 0.81338 0.24434 0.0
C1064 C 0.2331 0.81348 0.25142 0.0
C1065 C 0.18803 0.8229 0.24707 0.0
C1066 C 0.17578 0.80673 0.23665 0.0
C1067 C 0.1837 0.84073 0.24788 0.0
C1068 C 0.19637 0.85863 0.25755 0.0
C1069 C 0.21276 0.86523 0.25212 0.0
C1070 C 0.22468 0.88207 0.26138 0.0
C1071 C 0.22027 0.89255 0.27598 0.0
C1072 C 0.20391 0.88622 0.2813 0.0
C1073 C 0.19195 0.86936 0.27209 0.0
H1074 H 0.22951 0.90559 0.28313 0.0
H1075 H 0.11681 0.7464 0.18249 0.0
H1076 H 0.49812 0.84969 0.45771 0.0
H1077 H 0.50424 0.88409 0.46625 0.0
H1078 H 0.54698 0.89338 0.43554 0.0
H1079 H 0.54076 0.85869 0.42652 0.0
H1080 H 0.55284 0.91672 0.47377 0.0
H1081 H 0.51427 0.90092 0.41399 0.0
H1082 H 0.48822 0.88195 0.39153 0.0
H1083 H 0.4543 0.89659 0.42741 0.0
H1084 H 0.48018 0.9154 0.45025 0.0
H1085 H 0.55792 0.01628 0.48181 0.0
H1086 H 0.55739 0.9838 0.46939 0.0
H1087 H 0.50366 0.96393 0.47753 0.0
H1088 H 0.50384 0.9966 0.48874 0.0
H1089 H 0.50591 0.94621 0.44764 0.0
H1090 H 0.54354 0.95967 0.50863 0.0
H1091 H 0.56914 0.97691 0.53266 0.0
H1092 H 0.60421 0.96583 0.49656 0.0
H1093 H 0.57884 0.94874 0.47224 0.0
C1094 C 0.509 0.85893 0.45292 0.0
C1095 C 0.51889 0.85137 0.4413 0.0
C1096 C 0.51244 0.87863 0.45781 0.0
C1097 C 0.52594 0.89124 0.45139 0.0
C1098 C 0.53648 0.88383 0.44061 0.0
C1099 C 0.5329 0.86402 0.43547 0.0
C1100 C 0.52812 0.91214 0.45516 0.0
C1101 C 0.54278 0.92334 0.46785 0.0
C1102 C 0.51477 0.92056 0.44771 0.0
C1103 C 0.49918 0.90944 0.4339 0.0
C1104 C 0.50126 0.89997 0.41717 0.0
C1105 C 0.48653 0.88927 0.40435 0.0
C1106 C 0.46962 0.88803 0.40806 0.0
C1107 C 0.46741 0.89755 0.42457 0.0
C1108 C 0.48211 0.90825 0.43744 0.0
C1109 C 0.54594 0.00498 0.48071 0.0
C1110 C 0.53089 0.00895 0.48619 0.0
C1111 C 0.5457 0.98636 0.4738 0.0
C1112 C 0.53064 0.97118 0.47293 0.0
C1113 C 0.51548 0.97529 0.47805 0.0
C1114 C 0.51556 0.994 0.48444 0.0
C1115 C 0.5305 0.95101 0.46677 0.0
C1116 C 0.51615 0.93983 0.45355 0.0
C1117 C 0.54407 0.94261 0.47396 0.0
C1118 C 0.55928 0.95307 0.48855 0.0
C1119 C 0.5567 0.96103 0.50577 0.0
C1120 C 0.57117 0.97075 0.51945 0.0
C1121 C 0.58827 0.97243 0.51612 0.0
C1122 C 0.59095 0.96449 0.49911 0.0
C1123 C 0.57654 0.95479 0.48538 0.0
H1124 H 0.59947 0.97983 0.52671 0.0
H1125 H 0.45822 0.87974 0.39812 0.0
H1126 H 0.53729 0.35625 0.70611 0.0
H1127 H 0.51044 0.35326 0.71918 0.0
H1128 H 0.48234 0.30841 0.67484 0.0
H1129 H 0.50922 0.31134 0.6616 0.0
H1130 H 0.46337 0.33418 0.68064 0.0
H1131 H 0.49361 0.29753 0.71801 0.0
H1132 H 0.51854 0.2907 0.73821 0.0
H1133 H 0.51933 0.33687 0.77927 0.0
H1134 H 0.49455 0.34416 0.75918 0.0
H1135 H 0.38786 0.30551 0.7243 0.0
H1136 H 0.41378 0.30564 0.71015 0.0
H1137 H 0.44481 0.35229 0.7513 0.0
H1138 H 0.41892 0.35277 0.76515 0.0
H1139 H 0.46167 0.32365 0.74653 0.0
H1140 H 0.43196 0.36082 0.70827 0.0
H1141 H 0.40684 0.36721 0.68799 0.0
H1142 H 0.40481 0.31922 0.64848 0.0
H1143 H 0.42979 0.31238 0.66868 0.0
C1144 C 0.52544 0.34567 0.69915 0.0
C1145 C 0.52547 0.334 0.68281 0.0
C1146 C 0.51008 0.34394 0.70669 0.0
C1147 C 0.49435 0.3305 0.6981 0.0
C1148 C 0.4943 0.31887 0.68174 0.0
C1149 C 0.50971 0.32051 0.67424 0.0
C1150 C 0.47795 0.32888 0.70608 0.0
C1151 C 0.46292 0.33155 0.69496 0.0
C1152 C 0.47739 0.3258 0.72487 0.0
C1153 C 0.49233 0.32151 0.737 0.0
C1154 C 0.4992 0.30634 0.73127 0.0
C1155 C 0.51329 0.30236 0.74272 0.0
C1156 C 0.52055 0.31338 0.75999 0.0
C1157 C 0.51371 0.32837 0.76587 0.0
C1158 C 0.49963 0.33242 0.75446 0.0
C1159 C 0.4001 0.31599 0.73024 0.0
C1160 C 0.40115 0.32911 0.74598 0.0
C1161 C 0.41497 0.31597 0.72216 0.0
C1162 C 0.43127 0.329 0.72963 0.0
C1163 C 0.43242 0.34201 0.74535 0.0
C1164 C 0.41755 0.34217 0.75333 0.0
C1165 C 0.44717 0.32912 0.72113 0.0
C1166 C 0.46211 0.32616 0.73218 0.0
C1167 C 0.44761 0.33186 0.70226 0.0
C1168 C 0.43261 0.33595 0.69009 0.0
C1169 C 0.42606 0.35152 0.69534 0.0
C1170 C 0.41186 0.35525 0.68385 0.0
C1171 C 0.4042 0.34359 0.66699 0.0
C1172 C 0.41074 0.32822 0.66157 0.0
C1173 C 0.42492 0.32441 0.67302 0.0
H1174 H 0.39321 0.34651 0.6581 0.0
H1175 H 0.53145 0.31027 0.76884 0.0
H1176 H 0.06041 0.89272 0.64641 0.0
H1177 H 0.05784 0.91973 0.62963 0.0
H1178 H 0.05093 0.88425 0.57732 0.0
H1179 H 0.05321 0.85687 0.59414 0.0
H1180 H 0.07665 0.93896 0.60782 0.0
H1181 H 0.02457 0.89976 0.54357 0.0
H1182 H 0.9997 0.87085 0.53505 0.0
H1183 H 0.99219 0.87239 0.59198 0.0
H1184 H 0.01685 0.90142 0.60077 0.0
H1185 H 0.03703 0.98403 0.5219 0.0
H1186 H 0.04119 0.95615 0.53686 0.0
H1187 H 0.05219 0.98986 0.59085 0.0
H1188 H 0.04913 0.01789 0.57591 0.0
H1189 H 0.02528 0.93554 0.5586 0.0
H1190 H 0.07644 0.97414 0.62314 0.0
H1191 H 0.10043 0.00371 0.63251 0.0
H1192 H 0.10912 0.0041 0.57605 0.0
H1193 H 0.08529 0.97439 0.56638 0.0
C1194 C 0.05833 0.89056 0.63132 0.0
C1195 C 0.05695 0.87251 0.62165 0.0
C1196 C 0.05692 0.90612 0.62172 0.0
C1197 C 0.05403 0.90412 0.60215 0.0
C1198 C 0.05288 0.88617 0.5924 0.0
C1199 C 0.05427 0.87051 0.60204 0.0
C1200 C 0.05221 0.92088 0.59216 0.0
C1201 C 0.06534 0.93822 0.59714 0.0
C1202 C 0.03763 0.91999 0.578 0.0
C1203 C 0.02269 0.90262 0.57285 0.0
C1204 C 0.01758 0.89394 0.55425 0.0
C1205 C 0.00352 0.87754 0.54938 0.0
C1206 C 0.99442 0.86974 0.56298 0.0
C1207 C 0.9993 0.87838 0.58147 0.0
C1208 C 0.01333 0.8948 0.58641 0.0
C1209 C 0.04052 0.98551 0.53695 0.0
C1210 C 0.04294 0.00325 0.54768 0.0
C1211 C 0.04284 0.96953 0.54553 0.0
C1212 C 0.04739 0.97081 0.56506 0.0
C1213 C 0.04932 0.98846 0.57577 0.0
C1214 C 0.04743 0.00453 0.56719 0.0
C1215 C 0.04977 0.95367 0.57419 0.0
C1216 C 0.03671 0.93626 0.5691 0.0
C1217 C 0.06439 0.95452 0.58834 0.0
C1218 C 0.07905 0.97209 0.59404 0.0
C1219 C 0.08357 0.98046 0.61276 0.0
C1220 C 0.09711 0.99726 0.61812 0.0
C1221 C 0.1063 0.00578 0.60489 0.0
C1222 C 0.10198 0.99749 0.58628 0.0
C1223 C 0.08846 0.98067 0.58085 0.0
H1224 H 0.11677 0.0188 0.60906 0.0
H1225 H 0.98355 0.85704 0.55918 0.0
H1226 H 0.45531 0.77095 0.88666 0.0
H1227 H 0.43116 0.7744 0.86331 0.0
H1228 H 0.46576 0.82356 0.8474 0.0
H1229 H 0.49022 0.81983 0.87054 0.0
H1230 H 0.43429 0.82962 0.85941 0.0
H1231 H 0.45104 0.78717 0.81643 0.0
H1232 H 0.45884 0.75789 0.80545 0.0
H1233 H 0.40813 0.72386 0.81127 0.0
H1234 H 0.40011 0.7529 0.82261 0.0
H1235 H 0.36451 0.84615 0.79635 0.0
H1236 H 0.39281 0.84116 0.80984 0.0
H1237 H 0.36686 0.78347 0.8172 0.0
H1238 H 0.3386 0.78812 0.80288 0.0
H1239 H 0.39616 0.78299 0.80704 0.0
H1240 H 0.38043 0.8225 0.85386 0.0
H1241 H 0.37163 0.85035 0.86698 0.0
H1242 H 0.41904 0.888 0.85685 0.0
H1243 H 0.42801 0.86038 0.84344 0.0
C1244 C 0.45791 0.78213 0.87778 0.0
C1245 C 0.47464 0.7951 0.88036 0.0
C1246 C 0.4441 0.78409 0.86444 0.0
C1247 C 0.44665 0.79924 0.85364 0.0
C1248 C 0.46355 0.81172 0.85557 0.0
C1249 C 0.47753 0.80951 0.86867 0.0
C1250 C 0.43119 0.80318 0.84206 0.0
C1251 C 0.42615 0.81966 0.84766 0.0
C1252 C 0.42023 0.78977 0.82725 0.0
C1253 C 0.42504 0.77224 0.82054 0.0
C1254 C 0.44161 0.77343 0.81556 0.0
C1255 C 0.44606 0.75687 0.80924 0.0
C1256 C 0.434 0.73902 0.80771 0.0
C1257 C 0.41746 0.73769 0.81248 0.0
C1258 C 0.41295 0.75421 0.81885 0.0
C1259 C 0.36482 0.83239 0.80083 0.0
C1260 C 0.34926 0.81759 0.7987 0.0
C1261 C 0.38104 0.82956 0.80861 0.0
C1262 C 0.38202 0.81205 0.81495 0.0
C1263 C 0.36652 0.79713 0.81248 0.0
C1264 C 0.35033 0.79983 0.80435 0.0
C1265 C 0.3991 0.8094 0.82448 0.0
C1266 C 0.40439 0.79312 0.81859 0.0
C1267 C 0.41013 0.82277 0.83936 0.0
C1268 C 0.40479 0.8394 0.84745 0.0
C1269 C 0.38891 0.83673 0.8543 0.0
C1270 C 0.38391 0.85247 0.86181 0.0
C1271 C 0.39475 0.87094 0.86269 0.0
C1272 C 0.41064 0.87369 0.85612 0.0
C1273 C 0.4157 0.858 0.84858 0.0
H1274 H 0.39085 0.8831 0.86851 0.0
H1275 H 0.43746 0.72621 0.80279 0.0
H1276 H 0.55775 0.24382 0.13554 0.0
H1277 H 0.55685 0.21565 0.11471 0.0
H1278 H 0.54022 0.24252 0.06733 0.0
H1279 H 0.54117 0.27128 0.08836 0.0
H1280 H 0.5202 0.20348 0.0674 0.0
H1281 H 0.58055 0.23902 0.07405 0.0
H1282 H 0.60957 0.25766 0.09154 0.0
H1283 H 0.61473 0.20966 0.12027 0.0
H1284 H 0.58562 0.19082 0.10318 0.0
H1285 H 0.52877 0.12668 0.0056 0.0
H1286 H 0.53155 0.15869 0.02124 0.0
H1287 H 0.55706 0.14384 0.07222 0.0
H1288 H 0.55493 0.11207 0.05629 0.0
H1289 H 0.57314 0.1789 0.06759 0.0
H1290 H 0.51317 0.14473 0.06522 0.0
H1291 H 0.48352 0.12522 0.05039 0.0
H1292 H 0.47695 0.16933 0.01655 0.0
H1293 H 0.50668 0.18901 0.03101 0.0
C1294 C 0.5539 0.2439 0.12069 0.0
C1295 C 0.5495 0.25991 0.11365 0.0
C1296 C 0.55348 0.22772 0.10878 0.0
C1297 C 0.54862 0.22699 0.08945 0.0
C1298 C 0.54407 0.24282 0.08223 0.0
C1299 C 0.54467 0.25925 0.09423 0.0
C1300 C 0.54812 0.20939 0.07714 0.0
C1301 C 0.53184 0.19831 0.06706 0.0
C1302 C 0.5632 0.20231 0.07725 0.0
C1303 C 0.58083 0.21354 0.08739 0.0
C1304 C 0.58782 0.23247 0.08418 0.0
C1305 C 0.60429 0.24307 0.09402 0.0
C1306 C 0.61397 0.23486 0.10702 0.0
C1307 C 0.60722 0.21601 0.11019 0.0
C1308 C 0.59074 0.20535 0.10042 0.0
C1309 C 0.53503 0.13029 0.02012 0.0
C1310 C 0.54132 0.11676 0.02987 0.0
C1311 C 0.53652 0.14856 0.0291 0.0
C1312 C 0.54422 0.15366 0.04805 0.0
C1313 C 0.55096 0.14028 0.05764 0.0
C1314 C 0.54956 0.12205 0.04861 0.0
C1315 C 0.54517 0.17284 0.05791 0.0
C1316 C 0.56153 0.18418 0.06763 0.0
C1317 C 0.53011 0.18001 0.05773 0.0
C1318 C 0.51222 0.16825 0.04903 0.0
C1319 C 0.50546 0.1502 0.0545 0.0
C1320 C 0.48863 0.13913 0.04619 0.0
C1321 C 0.47838 0.14601 0.0325 0.0
C1322 C 0.48492 0.16401 0.02713 0.0
C1323 C 0.50175 0.17513 0.03539 0.0
H1324 H 0.46535 0.13741 0.02607 0.0
H1325 H 0.62673 0.24308 0.11462 0.0
H1326 H 0.05326 0.28478 0.37948 0.0
H1327 H 0.07723 0.28219 0.36305 0.0
H1328 H 0.10037 0.34294 0.37654 0.0
H1329 H 0.07624 0.34572 0.39277 0.0
H1330 H 0.10273 0.33113 0.34135 0.0
H1331 H 0.11643 0.31147 0.4015 0.0
H1332 H 0.11085 0.29294 0.42767 0.0
H1333 H 0.10383 0.24068 0.39189 0.0
H1334 H 0.10914 0.25889 0.36543 0.0
H1335 H 0.18646 0.32813 0.32001 0.0
H1336 H 0.16277 0.3331 0.33567 0.0
H1337 H 0.13877 0.27232 0.32712 0.0
H1338 H 0.16304 0.26705 0.31274 0.0
H1339 H 0.13745 0.28562 0.36051 0.0
H1340 H 0.1241 0.30599 0.30004 0.0
H1341 H 0.13113 0.32521 0.27468 0.0
H1342 H 0.13828 0.37682 0.31148 0.0
H1343 H 0.1316 0.35792 0.33717 0.0
C1344 C 0.06338 0.29763 0.37888 0.0
C1345 C 0.06287 0.31544 0.3876 0.0
C1346 C 0.07713 0.29611 0.36952 0.0
C1347 C 0.09079 0.31232 0.3688 0.0
C1348 C 0.09003 0.33022 0.37695 0.0
C1349 C 0.07623 0.33177 0.38629 0.0
C1350 C 0.10611 0.31044 0.36006 0.0
C1351 C 0.11045 0.32133 0.34566 0.0
C1352 C 0.1161 0.29752 0.36553 0.0
C1353 C 0.11302 0.28654 0.38145 0.0
C1354 C 0.11358 0.29602 0.39918 0.0
C1355 C 0.11048 0.28557 0.41407 0.0
C1356 C 0.10694 0.26564 0.41144 0.0
C1357 C 0.10655 0.25612 0.39391 0.0
C1358 C 0.10962 0.26649 0.37896 0.0
C1359 C 0.1763 0.31573 0.3216 0.0
C1360 C 0.17675 0.29715 0.31485 0.0
C1361 C 0.16256 0.31866 0.33037 0.0
C1362 C 0.14873 0.30312 0.33231 0.0
C1363 C 0.14918 0.28458 0.32571 0.0
C1364 C 0.16303 0.28162 0.31719 0.0
C1365 C 0.13391 0.30601 0.34149 0.0
C1366 C 0.12971 0.29537 0.35609 0.0
C1367 C 0.12412 0.3192 0.33621 0.0
C1368 C 0.12752 0.33054 0.32058 0.0
C1369 C 0.12724 0.32144 0.30275 0.0
C1370 C 0.13117 0.33228 0.28832 0.0
C1371 C 0.1352 0.35223 0.29148 0.0
C1372 C 0.13519 0.36137 0.30906 0.0
C1373 C 0.13133 0.3506 0.32356 0.0
H1374 H 0.13831 0.3606 0.28031 0.0
H1375 H 0.10454 0.25758 0.42298 0.0
H1376 H 0.92815 0.03838 0.13808 0.0
H1377 H 0.94617 0.0572 0.11868 0.0
H1378 H 0.94328 0.10924 0.14939 0.0
H1379 H 0.92494 0.09042 0.16884 0.0
H1380 H 0.94829 0.1028 0.10204 0.0
H1381 H 0.97487 0.11017 0.16892 0.0
H1382 H 0.97643 0.09709 0.19903 0.0
H1383 H 0.98821 0.04735 0.17375 0.0
H1384 H 0.98648 0.06006 0.14345 0.0
H1385 H 0.03639 0.11901 0.07374 0.0
H1386 H 0.01577 0.12728 0.09311 0.0
H1387 H 0.99665 0.06762 0.09918 0.0
H1388 H 0.01687 0.05944 0.08021 0.0
H1389 H 0.00533 0.09421 0.13309 0.0
H1390 H 0.98116 0.09075 0.06583 0.0
H1391 H 0.9795 0.1053 0.03672 0.0
H1392 H 0.96177 0.15042 0.06267 0.0
H1393 H 0.96472 0.13705 0.09247 0.0
C1394 C 0.93069 0.05381 0.1402 0.0
C1395 C 0.92545 0.06294 0.15517 0.0
C1396 C 0.94085 0.06456 0.129 0.0
C1397 C 0.94611 0.08457 0.13274 0.0
C1398 C 0.9392 0.09381 0.14623 0.0
C1399 C 0.9288 0.08301 0.15737 0.0
C1400 C 0.96218 0.09459 0.1263 0.0
C1401 C 0.96095 0.1016 0.10901 0.0
C1402 C 0.97867 0.09331 0.13564 0.0
C1403 C 0.98051 0.08603 0.15398 0.0
C1404 C 0.97779 0.09644 0.16982 0.0
C1405 C 0.97867 0.08909 0.18689 0.0
C1406 C 0.9824 0.07139 0.1883 0.0
C1407 C 0.98533 0.06106 0.17265 0.0
C1408 C 0.98443 0.06834 0.15553 0.0
C1409 C 0.02789 0.1078 0.07947 0.0
C1410 C 0.02811 0.08859 0.07549 0.0
C1411 C 0.01615 0.11252 0.09042 0.0
C1412 C 0.00471 0.09803 0.09749 0.0
C1413 C 0.00539 0.079 0.09387 0.0
C1414 C 0.01691 0.07434 0.08298 0.0
C1415 C 0.99146 0.10173 0.10835 0.0
C1416 C 0.99308 0.09682 0.12654 0.0
C1417 C 0.97555 0.10545 0.09989 0.0
C1418 C 0.97361 0.1131 0.08166 0.0
C1419 C 0.97735 0.10403 0.06558 0.0
C1420 C 0.97614 0.11207 0.04888 0.0
C1421 C 0.97048 0.12874 0.0478 0.0
C1422 C 0.96621 0.13754 0.06351 0.0
C1423 C 0.96783 0.12983 0.08037 0.0
H1424 H 0.96934 0.13478 0.03478 0.0
H1425 H 0.98303 0.06569 0.20151 0.0
H1426 H 0.29331 0.71589 0.46092 0.0
H1427 H 0.29533 0.72503 0.42969 0.0
H1428 H 0.29499 0.78258 0.44947 0.0
H1429 H 0.29197 0.77314 0.48028 0.0
H1430 H 0.27301 0.77242 0.41985 0.0
H1431 H 0.33261 0.76836 0.43603 0.0
H1432 H 0.35638 0.75331 0.44657 0.0
H1433 H 0.33634 0.70877 0.40036 0.0
H1434 H 0.31231 0.72343 0.38967 0.0
H1435 H 0.29946 0.81943 0.3439 0.0
H1436 H 0.30071 0.80738 0.37412 0.0
H1437 H 0.28237 0.74947 0.34661 0.0
H1438 H 0.28063 0.76147 0.31611 0.0
H1439 H 0.31326 0.75798 0.37855 0.0
H1440 H 0.25379 0.76404 0.36274 0.0
H1441 H 0.23163 0.78127 0.35244 0.0
H1442 H 0.25388 0.8248 0.39921 0.0
H1443 H 0.27636 0.80797 0.40962 0.0
C1444 C 0.29406 0.73058 0.45865 0.0
C1445 C 0.29247 0.7438 0.47303 0.0
C1446 C 0.29524 0.73584 0.44077 0.0
C1447 C 0.29536 0.75458 0.43707 0.0
C1448 C 0.29475 0.768 0.45179 0.0
C1449 C 0.29314 0.76263 0.46947 0.0
C1450 C 0.29473 0.75998 0.41772 0.0
C1451 C 0.28203 0.76943 0.41102 0.0
C1452 C 0.30611 0.75571 0.40577 0.0
C1453 C 0.32055 0.74688 0.41217 0.0
C1454 C 0.33319 0.75527 0.4282 0.0
C1455 C 0.34673 0.74683 0.43419 0.0
C1456 C 0.34784 0.73006 0.42418 0.0
C1457 C 0.33544 0.72174 0.40812 0.0
C1458 C 0.32187 0.73012 0.40208 0.0
C1459 C 0.29568 0.80412 0.34422 0.0
C1460 C 0.28983 0.79141 0.32758 0.0
C1461 C 0.29642 0.79726 0.36152 0.0
C1462 C 0.29166 0.77755 0.36261 0.0
C1463 C 0.28616 0.76475 0.34606 0.0
C1464 C 0.28505 0.77162 0.32867 0.0
C1465 C 0.2918 0.77055 0.38112 0.0
C1466 C 0.30431 0.76083 0.38755 0.0
C1467 C 0.28047 0.77481 0.39299 0.0
C1468 C 0.26685 0.78483 0.38686 0.0
C1469 C 0.25404 0.77736 0.37074 0.0
C1470 C 0.24141 0.78704 0.3649 0.0
C1471 C 0.24137 0.80414 0.37514 0.0
C1472 C 0.25394 0.81156 0.39128 0.0
C1473 C 0.26661 0.80195 0.39717 0.0
H1474 H 0.23158 0.81161 0.37059 0.0
H1475 H 0.35832 0.72354 0.42884 0.0
H1476 H 0.58665 0.00534 0.69739 0.0
H1477 H 0.57287 0.01152 0.66745 0.0
H1478 H 0.58267 0.96093 0.64069 0.0
H1479 H 0.59715 0.95496 0.67087 0.0
H1480 H 0.59222 0.98947 0.62199 0.0
H1481 H 0.54021 0.96334 0.64496 0.0
H1482 H 0.51994 0.95852 0.66747 0.0
H1483 H 0.51716 0.0168 0.66792 0.0
H1484 H 0.53762 0.02207 0.64562 0.0
H1485 H 0.52326 0.004 0.54388 0.0
H1486 H 0.53618 0.98882 0.56919 0.0
H1487 H 0.5685 0.04401 0.59564 0.0
H1488 H 0.55602 0.05925 0.57013 0.0
H1489 H 0.5358 0.00786 0.61151 0.0
H1490 H 0.59502 0.03307 0.59303 0.0
H1491 H 0.61587 0.03484 0.57113 0.0
H1492 H 0.60286 0.97351 0.56126 0.0
H1493 H 0.5816 0.97143 0.58272 0.0
C1494 C 0.5857 0.99533 0.68525 0.0
C1495 C 0.59303 0.97966 0.68654 0.0
C1496 C 0.57768 0.99883 0.66808 0.0
C1497 C 0.5765 0.98655 0.65182 0.0
C1498 C 0.58339 0.97056 0.65308 0.0
C1499 C 0.59159 0.96713 0.67032 0.0
C1500 C 0.56923 0.9914 0.63348 0.0
C1501 C 0.57974 0.9932 0.61964 0.0
C1502 C 0.55293 0.99622 0.6303 0.0
C1503 C 0.54054 0.99312 0.64368 0.0
C1504 C 0.53537 0.97517 0.64995 0.0
C1505 C 0.52383 0.97235 0.66266 0.0
C1506 C 0.51729 0.98735 0.66914 0.0
C1507 C 0.52224 0.00519 0.66289 0.0
C1508 C 0.53379 0.00809 0.65019 0.0
C1509 C 0.53334 0.01284 0.55495 0.0
C1510 C 0.53858 0.03279 0.55519 0.0
C1511 C 0.54076 0.00415 0.56928 0.0
C1512 C 0.55347 0.01529 0.58403 0.0
C1513 C 0.55901 0.03516 0.5841 0.0
C1514 C 0.55179 0.04384 0.56963 0.0
C1515 C 0.55913 0.00657 0.60057 0.0
C1516 C 0.54818 0.00393 0.61394 0.0
C1517 C 0.57486 0.00071 0.6032 0.0
C1518 C 0.58648 0.00211 0.58916 0.0
C1519 C 0.59627 0.01999 0.58581 0.0
C1520 C 0.60825 0.02104 0.57358 0.0
C1521 C 0.61068 0.00429 0.56481 0.0
C1522 C 0.60094 0.98647 0.56803 0.0
C1523 C 0.58889 0.98535 0.58016 0.0
H1524 H 0.62019 0.00509 0.55563 0.0
H1525 H 0.50836 0.98514 0.67899 0.0
H1526 H 0.29547 0.41454 0.97781 0.0
H1527 H 0.29142 0.40368 0.94457 0.0
H1528 H 0.276 0.34501 0.95558 0.0
H1529 H 0.28162 0.35597 0.98903 0.0
H1530 H 0.29571 0.34498 0.93347 0.0
H1531 H 0.24679 0.37162 0.93115 0.0
H1532 H 0.23028 0.39549 0.93688 0.0
H1533 H 0.26192 0.434 0.90651 0.0
H1534 H 0.27879 0.41045 0.9008 0.0
H1535 H 0.26214 0.31127 0.83569 0.0
H1536 H 0.26109 0.3235 0.8676 0.0
H1537 H 0.30535 0.37116 0.86693 0.0
H1538 H 0.30673 0.35891 0.83502 0.0
H1539 H 0.26938 0.37574 0.88248 0.0
H1540 H 0.31915 0.34572 0.88811 0.0
H1541 H 0.33106 0.31825 0.88063 0.0
H1542 H 0.29088 0.28165 0.90374 0.0
H1543 H 0.27848 0.30884 0.91097 0.0
C1544 C 0.29083 0.39935 0.97305 0.0
C1545 C 0.28872 0.3861 0.98598 0.0
C1546 C 0.28843 0.39309 0.95396 0.0
C1547 C 0.28315 0.37342 0.94724 0.0
C1548 C 0.28019 0.36024 0.9602 0.0
C1549 C 0.28322 0.36649 0.97935 0.0
C1550 C 0.28203 0.36659 0.92704 0.0
C1551 C 0.28968 0.35166 0.92247 0.0
C1552 C 0.27427 0.3751 0.91231 0.0
C1553 C 0.26416 0.38932 0.91569 0.0
C1554 C 0.25032 0.38523 0.9258 0.0
C1555 C 0.24088 0.3987 0.92903 0.0
C1556 C 0.24508 0.41627 0.9221 0.0
C1557 C 0.2587 0.42039 0.91189 0.0
C1558 C 0.26819 0.40698 0.90863 0.0
C1559 C 0.27161 0.3244 0.84225 0.0
C1560 C 0.28458 0.33404 0.8328 0.0
C1561 C 0.27097 0.33135 0.86048 0.0
C1562 C 0.28314 0.34817 0.86958 0.0
C1563 C 0.2958 0.35816 0.86008 0.0
C1564 C 0.29663 0.35108 0.8419 0.0
C1565 C 0.28321 0.35461 0.8894 0.0
C1566 C 0.27532 0.36928 0.89374 0.0
C1567 C 0.29016 0.34547 0.9039 0.0
C1568 C 0.29783 0.32925 0.89993 0.0
C1569 C 0.31277 0.33177 0.89144 0.0
C1570 C 0.3196 0.31626 0.88726 0.0
C1571 C 0.31168 0.2982 0.89164 0.0
C1572 C 0.29695 0.29563 0.90029 0.0
C1573 C 0.29002 0.31109 0.90444 0.0
H1574 H 0.31698 0.2862 0.88838 0.0
H1575 H 0.23776 0.42668 0.92462 0.0
H1576 H 0.97186 0.05244 0.24287 0.0
H1577 H 0.98928 0.0604 0.27437 0.0
H1578 H 0.94585 0.07565 0.29481 0.0
H1579 H 0.92855 0.06832 0.26326 0.0
H1580 H 0.97683 0.09803 0.31401 0.0
H1581 H 0.95067 0.03037 0.29513 0.0
H1582 H 0.94476 0.99985 0.27473 0.0
H1583 H 1.00005 0.00318 0.28356 0.0
H1584 H 0.0063 0.03386 0.30382 0.0
H1585 H 0.98256 0.06851 0.40461 0.0
H1586 H 0.97607 0.07642 0.37296 0.0
H1587 H 0.02224 0.06073 0.36014 0.0
H1588 H 0.02877 0.05277 0.39182 0.0
H1589 H 0.99377 0.04144 0.33649 0.0
H1590 H 0.01892 0.10722 0.36026 0.0
H1591 H 0.02363 0.13699 0.38141 0.0
H1592 H 0.96946 0.13671 0.36479 0.0
H1593 H 0.96434 0.10681 0.34369 0.0
C1594 C 0.96613 0.05782 0.25402 0.0
C1595 C 0.94872 0.05942 0.25067 0.0
C1596 C 0.97611 0.06238 0.272 0.0
C1597 C 0.96872 0.06821 0.28699 0.0
C1598 C 0.9518 0.07112 0.28346 0.0
C1599 C 0.94189 0.06683 0.26542 0.0
C1600 C 0.97766 0.06902 0.30647 0.0
C1601 C 0.98053 0.08568 0.319 0.0
C1602 C 0.98271 0.05298 0.31288 0.0
C1603 C 0.97896 0.03449 0.3008 0.0
C1604 C 0.96157 0.02464 0.29261 0.0
C1605 C 0.95816 0.00732 0.28109 0.0
C1606 C 0.97203 0.99961 0.27781 0.0
C1607 C 0.98933 0.00918 0.28608 0.0
C1608 C 0.99281 0.02653 0.29759 0.0
C1609 C 0.99159 0.06726 0.39521 0.0
C1610 C 0.00604 0.0598 0.40059 0.0
C1611 C 0.9879 0.07184 0.37712 0.0
C1612 C 0.9987 0.0692 0.36419 0.0
C1613 C 0.01371 0.06282 0.36989 0.0
C1614 C 0.01736 0.05817 0.38793 0.0
C1615 C 0.99298 0.07046 0.34419 0.0
C1616 C 0.99052 0.05402 0.33153 0.0
C1617 C 0.9882 0.08665 0.33782 0.0
C1618 C 0.99123 0.10469 0.35045 0.0
C1619 C 0.00798 0.11344 0.36119 0.0
C1620 C 0.01073 0.13037 0.37313 0.0
C1621 C 0.99686 0.13875 0.37442 0.0
C1622 C 0.9802 0.13022 0.36375 0.0
C1623 C 0.97737 0.1133 0.35176 0.0
H1624 H 0.99901 0.15182 0.38373 0.0
H1625 H 0.96936 0.98619 0.26888 0.0
H1626 H 0.3161 0.73874 0.58105 0.0
H1627 H 0.32284 0.75257 0.61403 0.0
H1628 H 0.27377 0.76866 0.60724 0.0
H1629 H 0.26735 0.75566 0.57458 0.0
H1630 H 0.2972 0.79671 0.62553 0.0
H1631 H 0.28116 0.72935 0.63004 0.0
H1632 H 0.28306 0.69598 0.62539 0.0
H1633 H 0.33607 0.71266 0.656 0.0
H1634 H 0.33456 0.7462 0.6606 0.0
H1635 H 0.2933 0.79145 0.72977 0.0
H1636 H 0.29148 0.77439 0.69884 0.0
H1637 H 0.33029 0.82225 0.68645 0.0
H1638 H 0.33185 0.83934 0.71715 0.0
H1639 H 0.31296 0.76189 0.67831 0.0
H1640 H 0.31848 0.83075 0.64254 0.0
H1641 H 0.31227 0.86226 0.64754 0.0
H1642 H 0.27283 0.83907 0.67936 0.0
H1643 H 0.27863 0.80739 0.67432 0.0
C1644 C 0.30681 0.74528 0.58663 0.0
C1645 C 0.29125 0.74619 0.57507 0.0
C1646 C 0.31061 0.75308 0.60553 0.0
C1647 C 0.29878 0.76164 0.61326 0.0
C1648 C 0.28322 0.76233 0.6017 0.0
C1649 C 0.27955 0.75482 0.58292 0.0
C1650 C 0.30249 0.7704 0.63318 0.0
C1651 C 0.30075 0.78905 0.637 0.0
C1652 C 0.30684 0.76044 0.64832 0.0
C1653 C 0.30782 0.74032 0.64546 0.0
C1654 C 0.29328 0.72593 0.63563 0.0
C1655 C 0.29427 0.70698 0.63303 0.0
C1656 C 0.3097 0.70221 0.64034 0.0
C1657 C 0.32415 0.71638 0.6503 0.0
C1658 C 0.32323 0.73537 0.65291 0.0
C1659 C 0.30162 0.79814 0.72056 0.0
C1660 C 0.31259 0.81675 0.72582 0.0
C1661 C 0.30061 0.78839 0.70288 0.0
C1662 C 0.31055 0.79714 0.69015 0.0
C1663 C 0.32227 0.81531 0.69587 0.0
C1664 C 0.32317 0.82506 0.71344 0.0
C1665 C 0.30767 0.78809 0.67047 0.0
C1666 C 0.30959 0.7695 0.66674 0.0
C1667 C 0.30289 0.79782 0.65534 0.0
C1668 C 0.29915 0.81677 0.65823 0.0
C1669 C 0.30844 0.83238 0.65055 0.0
C1670 C 0.305 0.85026 0.65339 0.0
C1671 C 0.29221 0.85268 0.66381 0.0
C1672 C 0.28278 0.8372 0.67135 0.0
C1673 C 0.28616 0.81928 0.66852 0.0
H1674 H 0.28958 0.86654 0.66602 0.0
H1675 H 0.31044 0.68753 0.63833 0.0
H1676 H 0.61037 0.96759 0.78722 0.0
H1677 H 0.59891 0.97669 0.81476 0.0
H1678 H 0.5733 0.01349 0.78406 0.0
H1679 H 0.58501 0.00474 0.7566 0.0
H1680 H 0.59085 0.03173 0.81681 0.0
H1681 H 0.54973 0.97083 0.79536 0.0
H1682 H 0.5403 0.93616 0.78483 0.0
H1683 H 0.56621 0.92532 0.8372 0.0
H1684 H 0.57601 0.95995 0.84796 0.0
H1685 H 0.53861 0.04896 0.88414 0.0
H1686 H 0.54838 0.03893 0.85563 0.0
H1687 H 0.57834 0.00582 0.88638 0.0
H1688 H 0.56847 0.01561 0.91484 0.0
H1689 H 0.55793 0.9857 0.85341 0.0
H1690 H 0.59935 0.04675 0.87447 0.0
H1691 H 0.60848 0.08142 0.88499 0.0
H1692 H 0.58147 0.0919 0.83303 0.0
H1693 H 0.57195 0.05724 0.8223 0.0
C1694 C 0.60213 0.97744 0.78628 0.0
C1695 C 0.59864 0.98551 0.76978 0.0
C1696 C 0.59554 0.98259 0.80201 0.0
C1697 C 0.58516 0.99568 0.80142 0.0
C1698 C 0.58133 0.00341 0.78482 0.0
C1699 C 0.588 0.99836 0.76913 0.0
C1700 C 0.57898 0.00201 0.81837 0.0
C1701 C 0.5834 0.02168 0.82464 0.0
C1702 C 0.56964 0.98886 0.82882 0.0
C1703 C 0.56374 0.96801 0.8224 0.0
C1704 C 0.55354 0.96107 0.80458 0.0
C1705 C 0.54811 0.94142 0.79857 0.0
C1706 C 0.55269 0.92855 0.81032 0.0
C1707 C 0.56269 0.9353 0.82811 0.0
C1708 C 0.56817 0.95494 0.83418 0.0
C1709 C 0.54732 0.03959 0.88479 0.0
C1710 C 0.55289 0.03315 0.90167 0.0
C1711 C 0.55293 0.03394 0.86856 0.0
C1712 C 0.56414 0.02172 0.86898 0.0
C1713 C 0.56972 0.01528 0.88582 0.0
C1714 C 0.56421 0.02102 0.90206 0.0
C1715 C 0.5698 0.01536 0.85176 0.0
C1716 C 0.56531 0.99572 0.84549 0.0
C1717 C 0.57902 0.02852 0.84127 0.0
C1718 C 0.58478 0.04938 0.84767 0.0
C1719 C 0.59522 0.05643 0.86535 0.0
C1720 C 0.6005 0.07608 0.87134 0.0
C1721 C 0.59551 0.08885 0.85971 0.0
C1722 C 0.58529 0.08199 0.84204 0.0
C1723 C 0.57996 0.06234 0.83599 0.0
H1724 H 0.59961 0.10406 0.86436 0.0
H1725 H 0.54847 0.91334 0.80564 0.0
H1726 H 0.27191 0.38772 0.08277 0.0
H1727 H 0.26558 0.37481 0.1116 0.0
H1728 H 0.3212 0.38229 0.13073 0.0
H1729 H 0.32725 0.39364 0.10138 0.0
H1730 H 0.30707 0.35149 0.1394 0.0
H1731 H 0.29355 0.41177 0.14843 0.0
H1732 H 0.2793 0.43742 0.14092 0.0
H1733 H 0.22848 0.39899 0.13905 0.0
H1734 H 0.24242 0.37303 0.14633 0.0
H1735 H 0.30075 0.33898 0.23418 0.0
H1736 H 0.30641 0.35412 0.20622 0.0
H1737 H 0.25167 0.33158 0.1811 0.0
H1738 H 0.24602 0.31647 0.20908 0.0
H1739 H 0.26512 0.37003 0.17619 0.0
H1740 H 0.28183 0.31015 0.16894 0.0
H1741 H 0.29855 0.28738 0.17947 0.0
H1742 H 0.34717 0.32976 0.1813 0.0
H1743 H 0.33073 0.35291 0.17113 0.0
C1744 C 0.28274 0.38671 0.09324 0.0
C1745 C 0.30006 0.39168 0.08984 0.0
C1746 C 0.27916 0.37943 0.10983 0.0
C1747 C 0.29291 0.37772 0.12372 0.0
C1748 C 0.31026 0.38323 0.12037 0.0
C1749 C 0.31375 0.38986 0.10359 0.0
C1750 C 0.28936 0.36954 0.14137 0.0
C1751 C 0.29809 0.35589 0.14751 0.0
C1752 C 0.27746 0.37484 0.15209 0.0
C1753 C 0.26903 0.39041 0.14774 0.0
C1754 C 0.27933 0.40876 0.14629 0.0
C1755 C 0.27131 0.42335 0.1421 0.0
C1756 C 0.25299 0.41982 0.13946 0.0
C1757 C 0.24266 0.40169 0.14107 0.0
C1758 C 0.25062 0.38704 0.14525 0.0
C1759 C 0.28995 0.33736 0.22274 0.0
C1760 C 0.27298 0.32653 0.22381 0.0
C1761 C 0.29318 0.34596 0.20673 0.0
C1762 C 0.27948 0.34391 0.19146 0.0
C1763 C 0.26245 0.33338 0.19268 0.0
C1764 C 0.25926 0.32468 0.20863 0.0
C1765 C 0.28295 0.35232 0.17406 0.0
C1766 C 0.27415 0.36586 0.168 0.0
C1767 C 0.29518 0.34739 0.16371 0.0
C1768 C 0.30504 0.33331 0.16941 0.0
C1769 C 0.29608 0.31465 0.1717 0.0
C1770 C 0.30551 0.30168 0.17761 0.0
C1771 C 0.32391 0.30714 0.18112 0.0
C1772 C 0.33292 0.32556 0.17863 0.0
C1773 C 0.32355 0.33861 0.17278 0.0
H1774 H 0.33119 0.29709 0.18572 0.0
H1775 H 0.2468 0.43114 0.13621 0.0
H1776 H 0.27065 0.98296 0.0615 0.0
H1777 H 0.24541 0.99656 0.06003 0.0
H1778 H 0.21794 0.95551 0.01229 0.0
H1779 H 0.2434 0.94203 0.01344 0.0
H1780 H 0.21266 0.98978 0.00738 0.0
H1781 H 0.208 0.94997 0.05604 0.0
H1782 H 0.21813 0.93749 0.08487 0.0
H1783 H 0.22721 0.99284 0.11603 0.0
H1784 H 0.21737 0.00572 0.08733 0.0
H1785 H 0.13014 0.01043 0.01269 0.0
H1786 H 0.15353 0.99403 0.01203 0.0
H1787 H 0.18449 0.03162 0.06073 0.0
H1788 H 0.16101 0.04773 0.06168 0.0
H1789 H 0.1866 0.9968 0.06411 0.0
H1790 H 0.19232 0.03672 0.01443 0.0
H1791 H 0.18117 0.04838 0.98547 0.0
H1792 H 0.16906 0.99177 0.95602 0.0
H1793 H 0.17998 0.97974 0.98487 0.0
C1794 C 0.25928 0.97681 0.05063 0.0
C1795 C 0.25906 0.96129 0.03766 0.0
C1796 C 0.24478 0.98457 0.04987 0.0
C1797 C 0.22958 0.97688 0.03625 0.0
C1798 C 0.22946 0.96168 0.02298 0.0
C1799 C 0.24403 0.95394 0.02368 0.0
C1800 C 0.21383 0.98465 0.03606 0.0
C1801 C 0.20682 0.99107 0.01971 0.0
C1802 C 0.20624 0.98656 0.05218 0.0
C1803 C 0.21209 0.97884 0.06949 0.0
C1804 C 0.21228 0.95951 0.06902 0.0
C1805 C 0.21795 0.95236 0.08534 0.0
C1806 C 0.22335 0.96437 0.10227 0.0
C1807 C 0.22304 0.98355 0.10291 0.0
C1808 C 0.2174 0.99078 0.08662 0.0
C1809 C 0.14196 0.01522 0.02322 0.0
C1810 C 0.14371 0.03043 0.03722 0.0
C1811 C 0.15537 0.00586 0.02281 0.0
C1812 C 0.17098 0.01174 0.03616 0.0
C1813 C 0.17262 0.02676 0.05027 0.0
C1814 C 0.15915 0.03596 0.05082 0.0
C1815 C 0.18565 0.00232 0.03556 0.0
C1816 C 0.19242 0.9955 0.05176 0.0
C1817 C 0.19295 0.99998 0.01928 0.0
C1818 C 0.18682 0.00731 0.00184 0.0
C1819 C 0.18722 0.02675 0.00179 0.0
C1820 C 0.18095 0.03342 0.9854 0.0
C1821 C 0.17437 0.02081 0.96893 0.0
C1822 C 0.17415 0.00152 0.96879 0.0
C1823 C 0.1804 0.99477 0.98515 0.0
H1824 H 0.16947 0.02599 0.95627 0.0
H1825 H 0.22773 0.95881 0.11489 0.0
H1826 H 0.70633 0.68885 0.99206 0.0
H1827 H 0.67838 0.66593 0.99221 0.0
H1828 H 0.7057 0.6308 0.02336 0.0
H1829 H 0.73402 0.65361 0.02265 0.0
H1830 H 0.67848 0.60856 0.99946 0.0
H1831 H 0.68546 0.66106 0.04532 0.0
H1832 H 0.69189 0.69483 0.05875 0.0
H1833 H 0.64809 0.70203 0.02042 0.0
H1834 H 0.64154 0.66836 0.00657 0.0
H1835 H 0.5952 0.56293 0.02698 0.0
H1836 H 0.6258 0.58206 0.02954 0.0
H1837 H 0.60921 0.61292 0.98536 0.0
H1838 H 0.57883 0.59357 0.98239 0.0
H1839 H 0.63215 0.63596 0.02005 0.0
H1840 H 0.6276 0.58215 0.9734 0.0
H1841 H 0.62165 0.54775 0.9625 0.0
H1842 H 0.66171 0.54247 0.00675 0.0
H1843 H 0.66771 0.57681 0.01808 0.0
C1844 C 0.70645 0.67614 0.99877 0.0
C1845 C 0.72239 0.67314 0.0075 0.0
C1846 C 0.69041 0.66308 0.99896 0.0
C1847 C 0.68981 0.64689 0.0083 0.0
C1848 C 0.70577 0.64328 0.01622 0.0
C1849 C 0.72196 0.65628 0.01577 0.0
C1850 C 0.67243 0.63427 0.01013 0.0
C1851 C 0.66848 0.61454 0.00427 0.0
C1852 C 0.65928 0.64194 0.01649 0.0
C1853 C 0.66309 0.66221 0.02481 0.0
C1854 C 0.67727 0.66988 0.03967 0.0
C1855 C 0.68092 0.689 0.04737 0.0
C1856 C 0.67042 0.70058 0.04041 0.0
C1857 C 0.65622 0.69304 0.02578 0.0
C1858 C 0.65251 0.67393 0.01801 0.0
C1859 C 0.59813 0.57379 0.01783 0.0
C1860 C 0.58469 0.5767 0.0044 0.0
C1861 C 0.61558 0.58466 0.01928 0.0
C1862 C 0.61976 0.59884 0.00758 0.0
C1863 C 0.60627 0.60202 0.99448 0.0
C1864 C 0.58894 0.59092 0.99276 0.0
C1865 C 0.63815 0.61049 0.00889 0.0
C1866 C 0.64226 0.63003 0.01543 0.0
C1867 C 0.6515 0.60256 0.00359 0.0
C1868 C 0.64795 0.58198 0.99672 0.0
C1869 C 0.63501 0.57361 0.98092 0.0
C1870 C 0.63166 0.55414 0.97464 0.0
C1871 C 0.64125 0.54292 0.98396 0.0
C1872 C 0.65426 0.55117 0.99956 0.0
C1873 C 0.65765 0.57063 0.00591 0.0
H1874 H 0.63864 0.52784 0.97908 0.0
H1875 H 0.67328 0.71538 0.04639 0.0
H1876 H 0.73477 0.572 0.34246 0.0
H1877 H 0.74798 0.54716 0.33129 0.0
H1878 H 0.69691 0.50662 0.31909 0.0
H1879 H 0.68356 0.53136 0.33025 0.0
H1880 H 0.72284 0.49204 0.33766 0.0
H1881 H 0.71405 0.52494 0.28422 0.0
H1882 H 0.71637 0.55308 0.26721 0.0
H1883 H 0.77278 0.56567 0.27963 0.0
H1884 H 0.7708 0.53775 0.29695 0.0
H1885 H 0.75017 0.41998 0.28953 0.0
H1886 H 0.73439 0.44389 0.29591 0.0
H1887 H 0.78283 0.4885 0.30353 0.0
H1888 H 0.79855 0.46477 0.29593 0.0
H1889 H 0.75672 0.50034 0.28601 0.0
H1890 H 0.76614 0.47068 0.34212 0.0
H1891 H 0.76489 0.44323 0.36001 0.0
H1892 H 0.7087 0.42504 0.34297 0.0
H1893 H 0.70961 0.45255 0.32516 0.0
C1894 C 0.72634 0.5578 0.33744 0.0
C1895 C 0.70811 0.55366 0.3372 0.0
C1896 C 0.7339 0.54366 0.33099 0.0
C1897 C 0.72337 0.52513 0.32421 0.0
C1898 C 0.70523 0.52086 0.32423 0.0
C1899 C 0.69763 0.53502 0.33057 0.0
C1900 C 0.73136 0.51019 0.31722 0.0
C1901 C 0.73002 0.49371 0.32618 0.0
C1902 C 0.74104 0.5126 0.30252 0.0
C1903 C 0.74227 0.52935 0.29203 0.0
C1904 C 0.72695 0.5338 0.28346 0.0
C1905 C 0.7282 0.54969 0.27373 0.0
C1906 C 0.74471 0.56118 0.27238 0.0
C1907 C 0.76 0.55677 0.28071 0.0
C1908 C 0.75882 0.5409 0.29046 0.0
C1909 C 0.75744 0.43491 0.29211 0.0
C1910 C 0.77569 0.44043 0.29231 0.0
C1911 C 0.74842 0.44855 0.29603 0.0
C1912 C 0.75751 0.46794 0.30061 0.0
C1913 C 0.77558 0.47359 0.30016 0.0
C1914 C 0.78458 0.45998 0.29601 0.0
C1915 C 0.74835 0.48227 0.30656 0.0
C1916 C 0.74946 0.49862 0.29742 0.0
C1917 C 0.7386 0.47986 0.32122 0.0
C1918 C 0.73795 0.46357 0.33223 0.0
C1919 C 0.75352 0.4608 0.34218 0.0
C1920 C 0.75288 0.44525 0.3523 0.0
C1921 C 0.73675 0.43231 0.35251 0.0
C1922 C 0.72119 0.43504 0.34277 0.0
C1923 C 0.72175 0.45067 0.33274 0.0
H1924 H 0.7363 0.42021 0.36027 0.0
H1925 H 0.74565 0.57348 0.26485 0.0
H1926 H 0.86572 0.45478 0.55934 0.0
H1927 H 0.89262 0.47927 0.55838 0.0
H1928 H 0.86438 0.50255 0.51493 0.0
H1929 H 0.83714 0.47815 0.51617 0.0
H1930 H 0.89478 0.49186 0.50606 0.0
H1931 H 0.87968 0.52988 0.55405 0.0
H1932 H 0.87014 0.53662 0.58383 0.0
H1933 H 0.9157 0.52361 0.61372 0.0
H1934 H 0.9254 0.5165 0.58411 0.0
H1935 H 0.97693 0.5544 0.50026 0.0
H1936 H 0.94595 0.5429 0.50289 0.0
H1937 H 0.9615 0.52437 0.55596 0.0
H1938 H 0.99245 0.53699 0.55389 0.0
H1939 H 0.93491 0.53711 0.55821 0.0
H1940 H 0.94768 0.49417 0.51114 0.0
H1941 H 0.95731 0.48575 0.48179 0.0
H1942 H 0.91616 0.50521 0.45076 0.0
H1943 H 0.90653 0.51421 0.47993 0.0
C1944 C 0.86512 0.46547 0.54997 0.0
C1945 C 0.84936 0.46462 0.53786 0.0
C1946 C 0.8805 0.47946 0.54943 0.0
C1947 C 0.88051 0.49273 0.53659 0.0
C1948 C 0.86461 0.49247 0.525 0.0
C1949 C 0.84906 0.47864 0.52581 0.0
C1950 C 0.89753 0.5053 0.53408 0.0
C1951 C 0.90344 0.50212 0.51729 0.0
C1952 C 0.90896 0.51822 0.54894 0.0
C1953 C 0.90321 0.52254 0.56682 0.0
C1954 C 0.8876 0.5283 0.56696 0.0
C1955 C 0.88217 0.53222 0.58382 0.0
C1956 C 0.89229 0.53052 0.60065 0.0
C1957 C 0.90788 0.52492 0.60067 0.0
C1958 C 0.91336 0.52097 0.58385 0.0
C1959 C 0.9737 0.54799 0.51254 0.0
C1960 C 0.98709 0.54643 0.5268 0.0
C1961 C 0.95597 0.54132 0.514 0.0
C1962 C 0.95125 0.53228 0.52942 0.0
C1963 C 0.96469 0.53122 0.5439 0.0
C1964 C 0.98241 0.53838 0.54268 0.0
C1965 C 0.93245 0.52333 0.53031 0.0
C1966 C 0.92621 0.52713 0.54682 0.0
C1967 C 0.92079 0.51067 0.51528 0.0
C1968 C 0.92651 0.50508 0.49775 0.0
C1969 C 0.94076 0.49678 0.49807 0.0
C1970 C 0.94621 0.49188 0.48147 0.0
C1971 C 0.93736 0.49494 0.46444 0.0
C1972 C 0.92303 0.50288 0.46396 0.0
C1973 C 0.91758 0.50791 0.48052 0.0
H1974 H 0.9416 0.49112 0.45162 0.0
H1975 H 0.88807 0.53356 0.61369 0.0
H1976 H 0.37546 0.15765 0.30436 0.0
H1977 H 0.35594 0.17759 0.29451 0.0
H1978 H 0.39655 0.21218 0.26985 0.0
H1979 H 0.4163 0.19259 0.28003 0.0
H1980 H 0.38088 0.23421 0.28758 0.0
H1981 H 0.36147 0.1782 0.24289 0.0
H1982 H 0.35151 0.14361 0.23198 0.0
H1983 H 0.30599 0.13915 0.25777 0.0
H1984 H 0.31581 0.17368 0.26907 0.0
H1985 H 0.32463 0.28446 0.24468 0.0
H1986 H 0.3429 0.26189 0.24566 0.0
H1987 H 0.30663 0.22498 0.27347 0.0
H1988 H 0.28801 0.24715 0.27201 0.0
H1989 H 0.32094 0.20428 0.25122 0.0
H1990 H 0.34245 0.26013 0.2982 0.0
H1991 H 0.35219 0.29495 0.30801 0.0
H1992 H 0.39406 0.29971 0.27662 0.0
H1993 H 0.3844 0.26493 0.26639 0.0
C1994 C 0.38029 0.16957 0.29694 0.0
C1995 C 0.39742 0.17347 0.29292 0.0
C1996 C 0.36906 0.18088 0.2912 0.0
C1997 C 0.37465 0.19617 0.28111 0.0
C1998 C 0.39191 0.20041 0.27753 0.0
C1999 C 0.40319 0.18918 0.28337 0.0
C2000 C 0.36252 0.20777 0.27439 0.0
C2001 C 0.3679 0.22767 0.27938 0.0
C2002 C 0.34547 0.19926 0.26382 0.0
C2003 C 0.33946 0.1785 0.25696 0.0
C2004 C 0.3494 0.16982 0.24635 0.0
C2005 C 0.34377 0.15023 0.24008 0.0
C2006 C 0.32815 0.13918 0.24422 0.0
C2007 C 0.3181 0.14772 0.25459 0.0
C2008 C 0.32368 0.1673 0.26092 0.0
C2009 C 0.32029 0.27129 0.25055 0.0
C2010 C 0.305 0.26772 0.25852 0.0
C2011 C 0.33079 0.25844 0.25117 0.0
C2012 C 0.3264 0.24204 0.26014 0.0
C2013 C 0.31035 0.23763 0.26661 0.0
C2014 C 0.2997 0.25033 0.26575 0.0
C2015 C 0.33926 0.23061 0.26462 0.0
C2016 C 0.33401 0.21078 0.25926 0.0
C2017 C 0.35646 0.23917 0.27477 0.0
C2018 C 0.36263 0.25997 0.28142 0.0
C2019 C 0.35371 0.26862 0.29335 0.0
C2020 C 0.35919 0.28834 0.29896 0.0
C2021 C 0.3737 0.29954 0.2929 0.0
C2022 C 0.3828 0.29102 0.28127 0.0
C2023 C 0.37734 0.2713 0.27557 0.0
H2024 H 0.37793 0.3148 0.29725 0.0
H2025 H 0.32381 0.12402 0.23935 0.0
H2026 H 0.29215 0.13464 0.50707 0.0
H2027 H 0.31777 0.12185 0.50685 0.0
H2028 H 0.35085 0.17885 0.50862 0.0
H2029 H 0.32516 0.19177 0.50857 0.0
H2030 H 0.35946 0.1545 0.48442 0.0
H2031 H 0.35074 0.15563 0.54768 0.0
H2032 H 0.33413 0.14909 0.57325 0.0
H2033 H 0.32373 0.08868 0.55684 0.0
H2034 H 0.34009 0.09487 0.531 0.0
H2035 H 0.44027 0.12749 0.50751 0.0
H2036 H 0.41591 0.14255 0.50763 0.0
H2037 H 0.37986 0.08726 0.5061 0.0
H2038 H 0.40404 0.07214 0.50592 0.0
H2039 H 0.37373 0.1123 0.53105 0.0
H2040 H 0.38197 0.11144 0.4672 0.0
H2041 H 0.39911 0.1182 0.4421 0.0
H2042 H 0.41089 0.17847 0.46004 0.0
H2043 H 0.394 0.17203 0.48545 0.0
C2044 C 0.30485 0.14451 0.50741 0.0
C2045 C 0.30653 0.16428 0.50793 0.0
C2046 C 0.31956 0.13715 0.50737 0.0
C2047 C 0.33637 0.14937 0.50798 0.0
C2048 C 0.33806 0.1691 0.50819 0.0
C2049 C 0.32334 0.17648 0.50822 0.0
C2050 C 0.35213 0.14152 0.50843 0.0
C2051 C 0.36271 0.1455 0.49479 0.0
C2052 C 0.35632 0.1295 0.52174 0.0
C2053 C 0.3465 0.12572 0.53729 0.0
C2054 C 0.3448 0.14095 0.54943 0.0
C2055 C 0.33545 0.13731 0.564 0.0
C2056 C 0.32784 0.11848 0.56664 0.0
C2057 C 0.32961 0.10326 0.55476 0.0
C2058 C 0.33893 0.10682 0.54016 0.0
C2059 C 0.42713 0.1185 0.50701 0.0
C2060 C 0.4242 0.09856 0.50677 0.0
C2061 C 0.41319 0.12715 0.50711 0.0
C2062 C 0.39594 0.11607 0.50676 0.0
C2063 C 0.39301 0.09618 0.50648 0.0
C2064 C 0.40691 0.08755 0.50643 0.0
C2065 C 0.38093 0.12506 0.50691 0.0
C2066 C 0.3705 0.12133 0.52069 0.0
C2067 C 0.37693 0.13733 0.49376 0.0
C2068 C 0.38688 0.14124 0.47834 0.0
C2069 C 0.38832 0.12613 0.46587 0.0
C2070 C 0.39798 0.12991 0.45157 0.0
C2071 C 0.40614 0.14875 0.4495 0.0
C2072 C 0.40458 0.16387 0.46168 0.0
C2073 C 0.39496 0.16017 0.47602 0.0
H2074 H 0.41364 0.15166 0.43845 0.0
H2075 H 0.32061 0.11569 0.57793 0.0
H2076 H 0.72047 0.62561 0.34514 0.0
H2077 H 0.74417 0.65121 0.33839 0.0
H2078 H 0.71509 0.69233 0.3503 0.0
H2079 H 0.69172 0.66708 0.35752 0.0
H2080 H 0.74296 0.67232 0.31151 0.0
H2081 H 0.74124 0.73585 0.36509 0.0
H2082 H 0.73749 0.74137 0.39776 0.0
H2083 H 0.75461 0.69134 0.40966 0.0
H2084 H 0.75873 0.68568 0.37715 0.0
H2085 H 0.76856 0.76099 0.27794 0.0
H2086 H 0.75439 0.73215 0.29035 0.0
H2087 H 0.79696 0.74505 0.33764 0.0
H2088 H 0.81073 0.77439 0.32568 0.0
H2089 H 0.76799 0.73573 0.34951 0.0
H2090 H 0.79134 0.70728 0.30198 0.0
H2091 H 0.79767 0.70093 0.27046 0.0
H2092 H 0.74238 0.67895 0.24883 0.0
H2093 H 0.73569 0.68542 0.28017 0.0
C2094 C 0.7193 0.64017 0.3467 0.0
C2095 C 0.70417 0.64427 0.35185 0.0
C2096 C 0.73282 0.65477 0.34275 0.0
C2097 C 0.73148 0.67373 0.34394 0.0
C2098 C 0.71663 0.6779 0.34962 0.0
C2099 C 0.70319 0.66338 0.35367 0.0
C2100 C 0.74481 0.68898 0.33788 0.0
C2101 C 0.74857 0.68613 0.31988 0.0
C2102 C 0.75248 0.70687 0.34896 0.0
C2103 C 0.75018 0.71028 0.36861 0.0
C2104 C 0.7443 0.72608 0.37469 0.0
C2105 C 0.74209 0.72922 0.39318 0.0
C2106 C 0.74577 0.71669 0.40576 0.0
C2107 C 0.75171 0.70101 0.39989 0.0
C2108 C 0.75396 0.69781 0.38142 0.0
C2109 C 0.77492 0.75761 0.29094 0.0
C2110 C 0.79066 0.76996 0.30093 0.0
C2111 C 0.7669 0.74103 0.29795 0.0
C2112 C 0.7747 0.73627 0.31485 0.0
C2113 C 0.79068 0.7484 0.3246 0.0
C2114 C 0.79856 0.76512 0.31772 0.0
C2115 C 0.76564 0.71928 0.32289 0.0
C2116 C 0.76263 0.72183 0.34124 0.0
C2117 C 0.75906 0.70098 0.31231 0.0
C2118 C 0.76301 0.69695 0.29343 0.0
C2119 C 0.78052 0.70121 0.29048 0.0
C2120 C 0.78418 0.69757 0.27265 0.0
C2121 C 0.77044 0.68957 0.25765 0.0
C2122 C 0.75301 0.68515 0.26046 0.0
C2123 C 0.74928 0.68877 0.27827 0.0
H2124 H 0.7733 0.68677 0.24385 0.0
H2125 H 0.74403 0.71914 0.42007 0.0
H2126 H 0.96182 0.5755 0.7788 0.0
H2127 H 0.94183 0.54356 0.77445 0.0
H2128 H 0.89781 0.56807 0.77601 0.0
H2129 H 0.91779 0.60016 0.78076 0.0
H2130 H 0.89747 0.54208 0.79912 0.0
H2131 H 0.90292 0.54421 0.73549 0.0
H2132 H 0.91824 0.5496 0.70882 0.0
H2133 H 0.94414 0.50575 0.72178 0.0
H2134 H 0.92919 0.50029 0.74872 0.0
H2135 H 0.83803 0.44942 0.78271 0.0
H2136 H 0.85252 0.48178 0.77725 0.0
H2137 H 0.90188 0.46658 0.78037 0.0
H2138 H 0.88742 0.43412 0.78547 0.0
H2139 H 0.89624 0.48841 0.75188 0.0
H2140 H 0.89348 0.48962 0.81761 0.0
H2141 H 0.87839 0.48453 0.84449 0.0
H2142 H 0.8472 0.5226 0.82703 0.0
H2143 H 0.86196 0.52771 0.79988 0.0
C2144 C 0.94786 0.57414 0.77796 0.0
C2145 C 0.94142 0.59039 0.78027 0.0
C2146 C 0.93642 0.55584 0.77535 0.0
C2147 C 0.9183 0.55342 0.77477 0.0
C2148 C 0.91175 0.56962 0.77642 0.0
C2149 C 0.92319 0.58794 0.7791 0.0
C2150 C 0.90651 0.53403 0.77408 0.0
C2151 C 0.89689 0.53045 0.78852 0.0
C2152 C 0.90604 0.51878 0.76048 0.0
C2153 C 0.91501 0.52194 0.74422 0.0
C2154 C 0.91198 0.53581 0.73275 0.0
C2155 C 0.92058 0.53886 0.71756 0.0
C2156 C 0.93218 0.52805 0.71363 0.0
C2157 C 0.93516 0.51412 0.72485 0.0
C2158 C 0.9266 0.51103 0.74007 0.0
C2159 C 0.85192 0.45291 0.78197 0.0
C2160 C 0.86164 0.4393 0.78466 0.0
C2161 C 0.86017 0.4714 0.77894 0.0
C2162 C 0.87828 0.47657 0.77856 0.0
C2163 C 0.88789 0.46285 0.78063 0.0
C2164 C 0.87966 0.44439 0.78372 0.0
C2165 C 0.88747 0.49653 0.77702 0.0
C2166 C 0.89662 0.50017 0.76223 0.0
C2167 C 0.88749 0.51188 0.79026 0.0
C2168 C 0.87866 0.50886 0.8066 0.0
C2169 C 0.8833 0.49677 0.81942 0.0
C2170 C 0.87483 0.49391 0.83472 0.0
C2171 C 0.8618 0.50319 0.83744 0.0
C2172 C 0.85726 0.51539 0.82489 0.0
C2173 C 0.86568 0.51828 0.80955 0.0
H2174 H 0.85526 0.50096 0.84929 0.0
H2175 H 0.93883 0.53043 0.70186 0.0
H2176 H 0.0456 0.8774 0.13386 0.0
H2177 H 0.03908 0.90615 0.12244 0.0
H2178 H 0.07665 0.90733 0.08562 0.0
H2179 H 0.08342 0.87905 0.09707 0.0
H2180 H 0.08083 0.94205 0.10281 0.0
H2181 H 0.03148 0.89105 0.06984 0.0
H2182 H 0.00588 0.8633 0.06768 0.0
H2183 H 0.98082 0.89746 0.09947 0.0
H2184 H 0.00638 0.92536 0.102 0.0
H2185 H 0.06073 0.00567 0.04108 0.0
H2186 H 0.06473 0.9771 0.05457 0.0
H2187 H 0.02347 0.97911 0.08606 0.0
H2188 H 0.01882 0.00718 0.07183 0.0
H2189 H 0.02066 0.94381 0.07425 0.0
H2190 H 0.06923 0.99541 0.10581 0.0
H2191 H 0.09458 0.02332 0.1075 0.0
H2192 H 0.12117 0.98837 0.07884 0.0
H2193 H 0.09588 0.96028 0.07679 0.0
C2194 C 0.05243 0.88377 0.1233 0.0
C2195 C 0.06503 0.87588 0.1164 0.0
C2196 C 0.04866 0.90018 0.11675 0.0
C2197 C 0.05731 0.90887 0.10307 0.0
C2198 C 0.06985 0.90097 0.09621 0.0
C2199 C 0.07366 0.88471 0.10276 0.0
C2200 C 0.05354 0.92625 0.09581 0.0
C2201 C 0.06768 0.94238 0.09644 0.0
C2202 C 0.03634 0.92692 0.08795 0.0
C2203 C 0.02091 0.91022 0.08627 0.0
C2204 C 0.02056 0.8926 0.07647 0.0
C2205 C 0.00605 0.87686 0.07516 0.0
C2206 C 0.99175 0.87861 0.08348 0.0
C2207 C 0.99191 0.89612 0.09306 0.0
C2208 C 0.0064 0.91191 0.09442 0.0
C2209 C 0.05248 0.99999 0.05084 0.0
C2210 C 0.03954 0.00875 0.05549 0.0
C2211 C 0.05484 0.9837 0.05865 0.0
C2212 C 0.04472 0.97616 0.07174 0.0
C2213 C 0.03152 0.98466 0.07608 0.0
C2214 C 0.02889 0.00073 0.06796 0.0
C2215 C 0.048 0.95953 0.08097 0.0
C2216 C 0.03379 0.94358 0.08076 0.0
C2217 C 0.06515 0.95903 0.08931 0.0
C2218 C 0.08061 0.97577 0.09105 0.0
C2219 C 0.08046 0.99369 0.09983 0.0
C2220 C 0.09482 0.00954 0.10085 0.0
C2221 C 0.10946 0.00763 0.09325 0.0
C2222 C 0.10981 0.98983 0.08471 0.0
C2223 C 0.09549 0.97393 0.08366 0.0
H2224 H 0.12053 0.01993 0.09401 0.0
H2225 H 0.98054 0.8664 0.08246 0.0
H2226 H 0.93753 0.26464 0.88506 0.0
H2227 H 0.91229 0.26589 0.86196 0.0
H2228 H 0.94661 0.30552 0.83458 0.0
H2229 H 0.97214 0.30399 0.85755 0.0
H2230 H 0.91572 0.31711 0.84506 0.0
H2231 H 0.93004 0.26471 0.81176 0.0
H2232 H 0.93713 0.23356 0.80841 0.0
H2233 H 0.88756 0.20602 0.8227 0.0
H2234 H 0.88027 0.23705 0.8264 0.0
H2235 H 0.84261 0.31833 0.77483 0.0
H2236 H 0.87176 0.31711 0.79078 0.0
H2237 H 0.8476 0.26662 0.81391 0.0
H2238 H 0.81872 0.2676 0.79784 0.0
H2239 H 0.87571 0.26169 0.80262 0.0
H2240 H 0.86183 0.31117 0.83952 0.0
H2241 H 0.85377 0.34121 0.84701 0.0
H2242 H 0.90062 0.3731 0.8303 0.0
H2243 H 0.90884 0.34317 0.82243 0.0
C2244 C 0.93977 0.27334 0.87391 0.0
C2245 C 0.95683 0.28417 0.87308 0.0
C2246 C 0.92533 0.27405 0.86073 0.0
C2247 C 0.92756 0.28583 0.84658 0.0
C2248 C 0.94462 0.29634 0.8454 0.0
C2249 C 0.95919 0.29532 0.85841 0.0
C2250 C 0.91184 0.28777 0.83379 0.0
C2251 C 0.90716 0.30517 0.8354 0.0
C2252 C 0.90036 0.27194 0.8218 0.0
C2253 C 0.90467 0.25324 0.81948 0.0
C2254 C 0.92071 0.25204 0.81433 0.0
C2255 C 0.92475 0.2344 0.81234 0.0
C2256 C 0.91282 0.21783 0.81537 0.0
C2257 C 0.89679 0.21886 0.82036 0.0
C2258 C 0.89269 0.23647 0.82238 0.0
C2259 C 0.84359 0.30697 0.78329 0.0
C2260 C 0.8284 0.29304 0.78504 0.0
C2261 C 0.86022 0.30631 0.79245 0.0
C2262 C 0.86193 0.29181 0.80367 0.0
C2263 C 0.84672 0.27787 0.80528 0.0
C2264 C 0.83018 0.27847 0.79608 0.0
C2265 C 0.87942 0.29106 0.81391 0.0
C2266 C 0.88439 0.27383 0.81194 0.0
C2267 C 0.89095 0.30691 0.82594 0.0
C2268 C 0.88585 0.3249 0.83018 0.0
C2269 C 0.87031 0.32456 0.83723 0.0
C2270 C 0.86574 0.34157 0.84159 0.0
C2271 C 0.87668 0.35904 0.83913 0.0
C2272 C 0.89216 0.35954 0.83219 0.0
C2273 C 0.89678 0.34256 0.82777 0.0
H2274 H 0.87322 0.37221 0.84274 0.0
H2275 H 0.91597 0.20418 0.81382 0.0
H2276 H 0.53622 0.26782 0.62136 0.0
H2277 H 0.52769 0.23413 0.60767 0.0
H2278 H 0.5749 0.24345 0.58377 0.0
H2279 H 0.58316 0.27692 0.5968 0.0
H2280 H 0.54912 0.22196 0.55941 0.0
H2281 H 0.57054 0.22212 0.62491 0.0
H2282 H 0.57116 0.22886 0.65865 0.0
H2283 H 0.51783 0.19467 0.65195 0.0
H2284 H 0.51684 0.18793 0.61811 0.0
H2285 H 0.56672 0.13096 0.55035 0.0
H2286 H 0.56788 0.16326 0.564 0.0
H2287 H 0.51217 0.14612 0.56437 0.0
H2288 H 0.51075 0.1138 0.55024 0.0
H2289 H 0.53781 0.17026 0.59966 0.0
H2290 H 0.51809 0.16839 0.53363 0.0
H2291 H 0.51946 0.16067 0.50054 0.0
H2292 H 0.57179 0.19771 0.50905 0.0
H2293 H 0.57082 0.20544 0.54232 0.0
C2294 C 0.5447 0.26268 0.61309 0.0
C2295 C 0.56039 0.2751 0.61024 0.0
C2296 C 0.53986 0.2434 0.60533 0.0
C2297 C 0.55075 0.23614 0.59483 0.0
C2298 C 0.56622 0.24864 0.59175 0.0
C2299 C 0.57096 0.26784 0.5993 0.0
C2300 C 0.54645 0.21553 0.58724 0.0
C2301 C 0.5467 0.21072 0.56828 0.0
C2302 C 0.54296 0.20069 0.59865 0.0
C2303 C 0.54354 0.20472 0.61896 0.0
C2304 C 0.5589 0.21617 0.63061 0.0
C2305 C 0.55933 0.21996 0.64975 0.0
C2306 C 0.54452 0.21225 0.65742 0.0
C2307 C 0.52928 0.20067 0.64598 0.0
C2308 C 0.52878 0.19685 0.62682 0.0
C2309 C 0.55474 0.13396 0.55354 0.0
C2310 C 0.53864 0.11983 0.54921 0.0
C2311 C 0.55543 0.15243 0.56129 0.0
C2312 C 0.54011 0.15701 0.56514 0.0
C2313 C 0.52412 0.1428 0.56151 0.0
C2314 C 0.52335 0.1244 0.5534 0.0
C2315 C 0.54081 0.17696 0.57208 0.0
C2316 C 0.53994 0.18157 0.59083 0.0
C2317 C 0.54391 0.19164 0.56057 0.0
C2318 C 0.54444 0.18735 0.5405 0.0
C2319 C 0.52994 0.17477 0.52848 0.0
C2320 C 0.53064 0.17041 0.50969 0.0
C2321 C 0.54573 0.17864 0.50269 0.0
C2322 C 0.56012 0.19132 0.51449 0.0
C2323 C 0.55949 0.19572 0.53331 0.0
H2324 H 0.54626 0.17523 0.48814 0.0
H2325 H 0.54488 0.2152 0.67225 0.0
H2326 H 0.5583 0.7838 0.38319 0.0
H2327 H 0.58416 0.78256 0.36949 0.0
H2328 H 0.58356 0.83566 0.34754 0.0
H2329 H 0.55756 0.837 0.36116 0.0
H2330 H 0.58953 0.80947 0.32186 0.0
H2331 H 0.61303 0.8354 0.38558 0.0
H2332 H 0.61578 0.83668 0.41971 0.0
H2333 H 0.62965 0.78315 0.41749 0.0
H2334 H 0.62674 0.78141 0.38328 0.0
H2335 H 0.67553 0.82615 0.29927 0.0
H2336 H 0.65008 0.82952 0.31295 0.0
H2337 H 0.64881 0.77722 0.33713 0.0
H2338 H 0.67448 0.77399 0.32387 0.0
H2339 H 0.6441 0.8044 0.36179 0.0
H2340 H 0.61983 0.77797 0.29813 0.0
H2341 H 0.61689 0.77642 0.26396 0.0
H2342 H 0.60437 0.83068 0.26606 0.0
H2343 H 0.60748 0.83267 0.3003 0.0
C2344 C 0.5636 0.79522 0.37541 0.0
C2345 C 0.55586 0.81055 0.37336 0.0
C2346 C 0.57846 0.79452 0.36764 0.0
C2347 C 0.58596 0.80914 0.35767 0.0
C2348 C 0.57805 0.82425 0.35522 0.0
C2349 C 0.5632 0.82501 0.36306 0.0
C2350 C 0.6021 0.80863 0.3499 0.0
C2351 C 0.60155 0.80866 0.33063 0.0
C2352 C 0.61769 0.80717 0.36127 0.0
C2353 C 0.6195 0.80819 0.38184 0.0
C2354 C 0.61653 0.82382 0.39235 0.0
C2355 C 0.61814 0.82464 0.41171 0.0
C2356 C 0.62284 0.80998 0.42076 0.0
C2357 C 0.62599 0.79448 0.41046 0.0
C2358 C 0.62437 0.79358 0.39108 0.0
C2359 C 0.66995 0.81546 0.30766 0.0
C2360 C 0.67703 0.79975 0.3104 0.0
C2361 C 0.65529 0.81732 0.31533 0.0
C2362 C 0.64737 0.8035 0.3259 0.0
C2363 C 0.65463 0.78802 0.32897 0.0
C2364 C 0.66923 0.78612 0.32126 0.0
C2365 C 0.6315 0.80511 0.33373 0.0
C2366 C 0.63211 0.80528 0.35302 0.0
C2367 C 0.61596 0.80673 0.32238 0.0
C2368 C 0.61408 0.80557 0.3018 0.0
C2369 C 0.6166 0.78965 0.29132 0.0
C2370 C 0.61488 0.78868 0.27194 0.0
C2371 C 0.6105 0.80347 0.26285 0.0
C2372 C 0.60779 0.81925 0.27313 0.0
C2373 C 0.60952 0.8203 0.29252 0.0
H2374 H 0.60917 0.80269 0.24784 0.0
H2375 H 0.62409 0.81064 0.43575 0.0
H2376 H 0.00892 0.25235 0.47505 0.0
H2377 H 0.01382 0.2222 0.48391 0.0
H2378 H 0.03303 0.21245 0.43296 0.0
H2379 H 0.02833 0.24295 0.42401 0.0
H2380 H 0.00755 0.17972 0.44148 0.0
H2381 H 0.06205 0.22409 0.47018 0.0
H2382 H 0.08103 0.25366 0.48903 0.0
H2383 H 0.05905 0.23723 0.5371 0.0
H2384 H 0.03974 0.20768 0.51847 0.0
H2385 H 0.03178 0.09777 0.47363 0.0
H2386 H 0.0312 0.12739 0.4603 0.0
H2387 H 0.02517 0.15338 0.51335 0.0
H2388 H 0.02694 0.12419 0.52695 0.0
H2389 H 0.04671 0.17801 0.50064 0.0
H2390 H 0.98962 0.13625 0.47167 0.0
H2391 H 0.97029 0.10638 0.4536 0.0
H2392 H 0.99641 0.11734 0.407 0.0
H2393 H 0.01588 0.14739 0.42475 0.0
C2394 C 0.01431 0.24391 0.46574 0.0
C2395 C 0.01829 0.25014 0.44883 0.0
C2396 C 0.0171 0.22664 0.47085 0.0
C2397 C 0.0238 0.21504 0.45912 0.0
C2398 C 0.02782 0.22116 0.44221 0.0
C2399 C 0.02526 0.23865 0.43719 0.0
C2400 C 0.02648 0.19659 0.46478 0.0
C2401 C 0.01633 0.17931 0.45425 0.0
C2402 C 0.03769 0.19601 0.48159 0.0
C2403 C 0.04934 0.21373 0.49288 0.0
C2404 C 0.06116 0.22685 0.48473 0.0
C2405 C 0.07199 0.2436 0.49539 0.0
C2406 C 0.07122 0.24734 0.51424 0.0
C2407 C 0.05963 0.23432 0.52249 0.0
C2408 C 0.04875 0.21755 0.51189 0.0
C2409 C 0.03021 0.10978 0.4824 0.0
C2410 C 0.02934 0.10862 0.50133 0.0
C2411 C 0.02978 0.12673 0.47473 0.0
C2412 C 0.02782 0.14271 0.48565 0.0
C2413 C 0.02674 0.1414 0.50454 0.0
C2414 C 0.02766 0.12464 0.51232 0.0
C2415 C 0.0273 0.16097 0.47774 0.0
C2416 C 0.03796 0.17829 0.48781 0.0
C2417 C 0.01642 0.16154 0.4606 0.0
C2418 C 0.00427 0.14398 0.44958 0.0
C2419 C 0.99122 0.13231 0.45755 0.0
C2420 C 0.98024 0.11538 0.44735 0.0
C2421 C 0.98213 0.11001 0.42915 0.0
C2422 C 0.99493 0.12162 0.42106 0.0
C2423 C 0.00591 0.13862 0.43116 0.0
H2424 H 0.97366 0.09686 0.42131 0.0
H2425 H 0.07962 0.26031 0.52246 0.0
H2426 H 0.61172 0.3395 0.15468 0.0
H2427 H 0.6432 0.34653 0.16798 0.0
H2428 H 0.63027 0.33227 0.22105 0.0
H2429 H 0.59899 0.32524 0.20793 0.0
H2430 H 0.66053 0.36201 0.22534 0.0
H2431 H 0.63541 0.29835 0.19098 0.0
H2432 H 0.62 0.27583 0.16289 0.0
H2433 H 0.6601 0.30113 0.13269 0.0
H2434 H 0.67562 0.32398 0.16057 0.0
H2435 H 0.72572 0.29911 0.24356 0.0
H2436 H 0.69823 0.30438 0.2281 0.0
H2437 H 0.72339 0.36456 0.23103 0.0
H2438 H 0.75085 0.35948 0.24715 0.0
H2439 H 0.68864 0.31589 0.19654 0.0
H2440 H 0.69306 0.39004 0.23313 0.0
H2441 H 0.70805 0.41093 0.26241 0.0
H2442 H 0.7082 0.36158 0.29075 0.0
H2443 H 0.69309 0.34043 0.2617 0.0
C2444 C 0.61562 0.33841 0.16931 0.0
C2445 C 0.60288 0.33161 0.1802 0.0
C2446 C 0.6336 0.34236 0.17688 0.0
C2447 C 0.63908 0.33971 0.19546 0.0
C2448 C 0.62638 0.33443 0.2067 0.0
C2449 C 0.60848 0.33031 0.19913 0.0
C2450 C 0.65764 0.33992 0.20266 0.0
C2451 C 0.66679 0.35212 0.21893 0.0
C2452 C 0.66575 0.32685 0.19444 0.0
C2453 C 0.65654 0.313 0.17776 0.0
C2454 C 0.64087 0.29918 0.17831 0.0
C2455 C 0.63212 0.28636 0.16244 0.0
C2456 C 0.63903 0.28709 0.14599 0.0
C2457 C 0.65474 0.30061 0.14542 0.0
C2458 C 0.66351 0.3135 0.16125 0.0
C2459 C 0.72544 0.31349 0.24095 0.0
C2460 C 0.74049 0.32889 0.24672 0.0
C2461 C 0.7097 0.31648 0.23203 0.0
C2462 C 0.70862 0.3349 0.22851 0.0
C2463 C 0.72374 0.35027 0.23388 0.0
C2464 C 0.73947 0.34733 0.24306 0.0
C2465 C 0.69153 0.33778 0.21944 0.0
C2466 C 0.68261 0.32612 0.20279 0.0
C2467 C 0.68357 0.35115 0.22749 0.0
C2468 C 0.69209 0.36368 0.24521 0.0
C2469 C 0.69621 0.38367 0.24565 0.0
C2470 C 0.70475 0.39555 0.26218 0.0
C2471 C 0.70913 0.38759 0.27841 0.0
C2472 C 0.70486 0.36773 0.27816 0.0
C2473 C 0.69632 0.35579 0.26166 0.0
H2474 H 0.71579 0.39681 0.29118 0.0
H2475 H 0.63223 0.27717 0.13371 0.0
H2476 H 0.55535 0.86186 0.95275 0.0
H2477 H 0.56247 0.89583 0.96583 0.0
H2478 H 0.508 0.88987 0.96968 0.0
H2479 H 0.50091 0.8561 0.95735 0.0
H2480 H 0.5279 0.9238 0.95103 0.0
H2481 H 0.52883 0.89047 0.00674 0.0
H2482 H 0.53981 0.86889 0.02697 0.0
H2483 H 0.59268 0.90387 0.03215 0.0
H2484 H 0.58199 0.92551 0.0117 0.0
H2485 H 0.51996 0.00506 0.00546 0.0
H2486 H 0.51835 0.97334 0.99006 0.0
H2487 H 0.57282 0.97984 0.01405 0.0
H2488 H 0.57417 0.01124 0.03013 0.0
H2489 H 0.55652 0.94624 0.01695 0.0
H2490 H 0.55769 0.98152 0.96542 0.0
H2491 H 0.54958 0.00336 0.9437 0.0
H2492 H 0.49721 0.96645 0.92848 0.0
H2493 H 0.50497 0.94441 0.95021 0.0
C2494 C 0.54494 0.86779 0.95648 0.0
C2495 C 0.52759 0.8562 0.95413 0.0
C2496 C 0.54901 0.88718 0.96391 0.0
C2497 C 0.53573 0.89536 0.96866 0.0
C2498 C 0.51843 0.88388 0.96607 0.0
C2499 C 0.51444 0.86451 0.95913 0.0
C2500 C 0.53966 0.91581 0.97658 0.0
C2501 C 0.53409 0.92877 0.96546 0.0
C2502 C 0.54828 0.92239 0.99518 0.0
C2503 C 0.55465 0.90944 0.0075 0.0
C2504 C 0.54281 0.89343 0.01203 0.0
C2505 C 0.54897 0.88122 0.02357 0.0
C2506 C 0.56694 0.88496 0.03079 0.0
C2507 C 0.57877 0.90096 0.02652 0.0
C2508 C 0.57267 0.9132 0.01496 0.0
C2509 C 0.53162 0.99977 0.00733 0.0
C2510 C 0.54719 0.01065 0.01899 0.0
C2511 C 0.53074 0.98164 0.9984 0.0
C2512 C 0.54555 0.97413 0.00057 0.0
C2513 C 0.56118 0.98517 0.01209 0.0
C2514 C 0.56197 0.00317 0.02125 0.0
C2515 C 0.54447 0.95449 0.99152 0.0
C2516 C 0.55054 0.94157 0.00243 0.0
C2517 C 0.5367 0.94809 0.97253 0.0
C2518 C 0.53188 0.96138 0.95957 0.0
C2519 C 0.5444 0.97813 0.95756 0.0
C2520 C 0.53987 0.99054 0.94522 0.0
C2521 C 0.52287 0.98633 0.93476 0.0
C2522 C 0.51037 0.96969 0.93661 0.0
C2523 C 0.51483 0.95721 0.9489 0.0
H2524 H 0.5194 0.99589 0.92516 0.0
H2525 H 0.57169 0.8755 0.03973 0.0
H2526 H 0.0059 0.82872 0.64978 0.0
H2527 H 0.97886 0.83339 0.65935 0.0
H2528 H 0.99196 0.8107 0.71074 0.0
H2529 H 0.01846 0.80545 0.70104 0.0
H2530 H 0.95911 0.79567 0.69726 0.0
H2531 H 0.9969 0.86016 0.70732 0.0
H2532 H 0.01574 0.88884 0.69802 0.0
H2533 H 0.97249 0.89335 0.65721 0.0
H2534 H 0.95345 0.86454 0.66614 0.0
H2535 H 0.90968 0.82937 0.75786 0.0
H2536 H 0.93367 0.82527 0.74206 0.0
H2537 H 0.90716 0.83944 0.69134 0.0
H2538 H 0.88304 0.8437 0.70716 0.0
H2539 H 0.94398 0.858 0.7003 0.0
H2540 H 0.90564 0.79471 0.69279 0.0
H2541 H 0.88702 0.76694 0.70371 0.0
H2542 H 0.93191 0.76107 0.74127 0.0
H2543 H 0.95077 0.78887 0.73065 0.0
C2544 C 0.00302 0.82483 0.66314 0.0
C2545 C 0.01433 0.81667 0.67461 0.0
C2546 C 0.98758 0.82754 0.66863 0.0
C2547 C 0.98335 0.82249 0.68585 0.0
C2548 C 0.9948 0.8146 0.69735 0.0
C2549 C 0.01003 0.81166 0.69179 0.0
C2550 C 0.96697 0.82504 0.69201 0.0
C2551 C 0.95592 0.80937 0.69802 0.0
C2552 C 0.96241 0.84272 0.69255 0.0
C2553 C 0.97382 0.86008 0.68725 0.0
C2554 C 0.99145 0.86719 0.69628 0.0
C2555 C 1.00216 0.88348 0.69109 0.0
C2556 C 0.99534 0.89288 0.67699 0.0
C2557 C 0.97777 0.88604 0.6681 0.0
C2558 C 0.96701 0.86974 0.67323 0.0
C2559 C 0.90899 0.83175 0.74338 0.0
C2560 C 0.89447 0.83686 0.73375 0.0
C2561 C 0.92266 0.8293 0.73434 0.0
C2562 C 0.92214 0.83194 0.7155 0.0
C2563 C 0.90779 0.83731 0.70588 0.0
C2564 C 0.89399 0.8396 0.71489 0.0
C2565 C 0.93656 0.82881 0.70596 0.0
C2566 C 0.94714 0.8443 0.6993 0.0
C2567 C 0.9408 0.81101 0.70493 0.0
C2568 C 0.92959 0.79394 0.71099 0.0
C2569 C 0.91152 0.78752 0.70341 0.0
C2570 C 0.90093 0.77176 0.70953 0.0
C2571 C 0.90827 0.76224 0.72317 0.0
C2572 C 0.92624 0.76841 0.73066 0.0
C2573 C 0.9369 0.78414 0.72456 0.0
H2574 H 0.90001 0.7501 0.72793 0.0
H2575 H 0.00365 0.90548 0.67299 0.0
H2576 H 0.1443 0.06376 0.89522 0.0
H2577 H 0.12779 0.0525 0.91957 0.0
H2578 H 0.08015 0.05847 0.8863 0.0
H2579 H 0.0967 0.07059 0.86254 0.0
H2580 H 0.08237 0.0734 0.91969 0.0
H2581 H 0.09051 0.01326 0.8929 0.0
H2582 H 0.1082 0.99178 0.8835 0.0
H2583 H 0.13547 0.99822 0.94 0.0
H2584 H 0.11805 0.01987 0.94969 0.0
H2585 H 0.01858 0.02809 0.9665 0.0
H2586 H 0.03639 0.02759 0.94199 0.0
H2587 H 0.08314 0.03726 0.98386 0.0
H2588 H 0.06538 0.03806 0.00837 0.0
H2589 H 0.08249 0.01359 0.94781 0.0
H2590 H 0.07758 0.07527 0.97404 0.0
H2591 H 0.06039 0.09652 0.98512 0.0
H2592 H 0.02801 0.08717 0.93084 0.0
H2593 H 0.04504 0.06581 0.91943 0.0
C2594 C 0.13028 0.06255 0.89313 0.0
C2595 C 0.12178 0.06815 0.87708 0.0
C2596 C 0.12084 0.056 0.90698 0.0
C2597 C 0.10266 0.05443 0.9047 0.0
C2598 C 0.09416 0.05963 0.88843 0.0
C2599 C 0.10363 0.06655 0.87485 0.0
C2600 C 0.09247 0.04839 0.91952 0.0
C2601 C 0.08225 0.06015 0.92554 0.0
C2602 C 0.09275 0.03147 0.92779 0.0
C2603 C 0.10308 0.0183 0.92198 0.0
C2604 C 0.10034 0.01017 0.90329 0.0
C2605 C 0.11031 0.99795 0.89792 0.0
C2606 C 0.12298 0.99367 0.91113 0.0
C2607 C 0.12567 0.00155 0.92977 0.0
C2608 C 0.11573 0.01377 0.93522 0.0
C2609 C 0.03254 0.02931 0.97039 0.0
C2610 C 0.04077 0.03334 0.98913 0.0
C2611 C 0.04267 0.02904 0.95645 0.0
C2612 C 0.06106 0.03262 0.96123 0.0
C2613 C 0.06898 0.03453 0.97999 0.0
C2614 C 0.05889 0.03512 0.99391 0.0
C2615 C 0.0721 0.03825 0.94717 0.0
C2616 C 0.08259 0.02666 0.94163 0.0
C2617 C 0.07227 0.0554 0.93939 0.0
C2618 C 0.06245 0.06883 0.94594 0.0
C2619 C 0.06675 0.0777 0.96449 0.0
C2620 C 0.05703 0.08974 0.97084 0.0
C2621 C 0.04299 0.09303 0.95875 0.0
C2622 C 0.03881 0.0845 0.94021 0.0
C2623 C 0.04854 0.07249 0.93377 0.0
H2624 H 0.03546 0.10233 0.9637 0.0
H2625 H 0.13069 0.98422 0.90694 0.0
H2626 H 0.77981 0.40778 0.58267 0.0
H2627 H 0.77664 0.3963 0.61289 0.0
H2628 H 0.80955 0.3586 0.60341 0.0
H2629 H 0.81236 0.36952 0.57326 0.0
H2630 H 0.78426 0.34066 0.61846 0.0
H2631 H 0.82525 0.40292 0.6318 0.0
H2632 H 0.83521 0.43772 0.6311 0.0
H2633 H 0.7937 0.44625 0.65927 0.0
H2634 H 0.78336 0.41145 0.65992 0.0
H2635 H 0.81908 0.35591 0.72605 0.0
H2636 H 0.8188 0.36732 0.69546 0.0
H2637 H 0.76551 0.33268 0.67714 0.0
H2638 H 0.76586 0.32086 0.70738 0.0
H2639 H 0.80048 0.38699 0.67609 0.0
H2640 H 0.75829 0.31676 0.63132 0.0
H2641 H 0.75194 0.28192 0.63229 0.0
H2642 H 0.80216 0.28924 0.66736 0.0
H2643 H 0.80889 0.32408 0.6664 0.0
C2644 C 0.78619 0.39688 0.58694 0.0
C2645 C 0.79639 0.38966 0.57549 0.0
C2646 C 0.78448 0.39042 0.6043 0.0
C2647 C 0.79307 0.37675 0.61064 0.0
C2648 C 0.80277 0.36914 0.59894 0.0
C2649 C 0.80441 0.37547 0.58164 0.0
C2650 C 0.79242 0.37051 0.62954 0.0
C2651 C 0.7877 0.35083 0.63103 0.0
C2652 C 0.79722 0.38367 0.64607 0.0
C2653 C 0.80342 0.40458 0.64572 0.0
C2654 C 0.81817 0.41221 0.63771 0.0
C2655 C 0.8239 0.43193 0.63735 0.0
C2656 C 0.81506 0.44418 0.64509 0.0
C2657 C 0.80051 0.43674 0.65325 0.0
C2658 C 0.79471 0.41702 0.65363 0.0
C2659 C 0.80732 0.35067 0.71548 0.0
C2660 C 0.79258 0.33727 0.71915 0.0
C2661 C 0.80715 0.35729 0.69801 0.0
C2662 C 0.79222 0.3507 0.68382 0.0
C2663 C 0.77733 0.33771 0.68765 0.0
C2664 C 0.77756 0.33096 0.70502 0.0
C2665 C 0.79229 0.35715 0.66497 0.0
C2666 C 0.79688 0.37684 0.6635 0.0
C2667 C 0.78782 0.344 0.64845 0.0
C2668 C 0.78399 0.32304 0.64894 0.0
C2669 C 0.76799 0.31092 0.63918 0.0
C2670 C 0.76432 0.29118 0.63974 0.0
C2671 C 0.77661 0.28338 0.64993 0.0
C2672 C 0.79263 0.2953 0.65953 0.0
C2673 C 0.79636 0.31505 0.659 0.0
H2674 H 0.77374 0.26809 0.65036 0.0
H2675 H 0.81952 0.45945 0.6448 0.0
H2676 H 0.45346 0.1044 0.35177 0.0
H2677 H 0.46328 0.10454 0.38494 0.0
H2678 H 0.47695 0.16624 0.39278 0.0
H2679 H 0.46676 0.16612 0.35914 0.0
H2680 H 0.50446 0.15122 0.40642 0.0
H2681 H 0.44581 0.14346 0.41429 0.0
H2682 H 0.41353 0.13098 0.40719 0.0
H2683 H 0.41833 0.07468 0.41587 0.0
H2684 H 0.45065 0.08667 0.42257 0.0
H2685 H 0.54259 0.12597 0.49268 0.0
H2686 H 0.52488 0.14158 0.47183 0.0
H2687 H 0.49401 0.08628 0.44385 0.0
H2688 H 0.51129 0.07071 0.46494 0.0
H2689 H 0.47324 0.10891 0.44716 0.0
H2690 H 0.53077 0.1159 0.427 0.0
H2691 H 0.5632 0.12743 0.43275 0.0
H2692 H 0.55984 0.18479 0.44705 0.0
H2693 H 0.52738 0.17353 0.44146 0.0
C2694 C 0.45819 0.11801 0.36061 0.0
C2695 C 0.45944 0.13525 0.35293 0.0
C2696 C 0.46369 0.11808 0.37961 0.0
C2697 C 0.47072 0.13539 0.39139 0.0
C2698 C 0.47142 0.15272 0.38392 0.0
C2699 C 0.46557 0.15265 0.36479 0.0
C2700 C 0.47925 0.13486 0.41078 0.0
C2701 C 0.49754 0.14248 0.41564 0.0
C2702 C 0.47025 0.12336 0.42276 0.0
C2703 C 0.45074 0.11601 0.4189 0.0
C2704 C 0.44002 0.12839 0.41456 0.0
C2705 C 0.42169 0.12139 0.41059 0.0
C2706 C 0.41389 0.10205 0.41106 0.0
C2707 C 0.4244 0.08967 0.41552 0.0
C2708 C 0.44273 0.09657 0.41942 0.0
C2709 C 0.532 0.1172 0.48207 0.0
C2710 C 0.52841 0.09715 0.48022 0.0
C2711 C 0.52186 0.12612 0.47021 0.0
C2712 C 0.50822 0.11514 0.45611 0.0
C2713 C 0.50441 0.09509 0.45464 0.0
C2714 C 0.51437 0.08619 0.4666 0.0
C2715 C 0.49851 0.12417 0.44199 0.0
C2716 C 0.48003 0.1182 0.43825 0.0
C2717 C 0.5073 0.1371 0.43095 0.0
C2718 C 0.52673 0.14387 0.43396 0.0
C2719 C 0.53698 0.13096 0.4314 0.0
C2720 C 0.55535 0.13744 0.43463 0.0
C2721 C 0.56357 0.15682 0.4403 0.0
C2722 C 0.55345 0.16978 0.44267 0.0
C2723 C 0.53508 0.16336 0.43945 0.0
H2724 H 0.57779 0.16181 0.44282 0.0
H2725 H 0.3997 0.09668 0.40802 0.0
H2726 H 0.78784 0.71257 0.0777 0.0
H2727 H 0.79256 0.72273 0.11143 0.0
H2728 H 0.79176 0.77996 0.10081 0.0
H2729 H 0.78644 0.76978 0.06717 0.0
H2730 H 0.81973 0.7746 0.13306 0.0
H2731 H 0.75674 0.75821 0.10683 0.0
H2732 H 0.72953 0.73619 0.08866 0.0
H2733 H 0.73449 0.69369 0.12504 0.0
H2734 H 0.76191 0.71538 0.14324 0.0
H2735 H 0.80385 0.8192 0.21571 0.0
H2736 H 0.80456 0.80721 0.18368 0.0
H2737 H 0.78089 0.74977 0.19376 0.0
H2738 H 0.77885 0.76203 0.22535 0.0
H2739 H 0.76703 0.75291 0.16195 0.0
H2740 H 0.82748 0.76921 0.19087 0.0
H2741 H 0.85583 0.78913 0.20878 0.0
H2742 H 0.85785 0.82886 0.16844 0.0
H2743 H 0.82937 0.80937 0.15044 0.0
C2744 C 0.78908 0.72741 0.08259 0.0
C2745 C 0.78677 0.74039 0.06983 0.0
C2746 C 0.79171 0.73317 0.10183 0.0
C2747 C 0.79247 0.75209 0.10857 0.0
C2748 C 0.79127 0.76533 0.09588 0.0
C2749 C 0.7882 0.75948 0.07669 0.0
C2750 C 0.7929 0.75773 0.12865 0.0
C2751 C 0.80824 0.77 0.13945 0.0
C2752 C 0.77804 0.75123 0.13702 0.0
C2753 C 0.76147 0.73831 0.12624 0.0
C2754 C 0.75211 0.7441 0.11084 0.0
C2755 C 0.73664 0.7317 0.10056 0.0
C2756 C 0.73031 0.71353 0.10565 0.0
C2757 C 0.73942 0.70775 0.12108 0.0
C2758 C 0.75492 0.72009 0.13139 0.0
C2759 C 0.79886 0.804 0.21107 0.0
C2760 C 0.79136 0.79151 0.22301 0.0
C2761 C 0.79945 0.79711 0.1928 0.0
C2762 C 0.79329 0.77746 0.18629 0.0
C2763 C 0.78581 0.76498 0.19832 0.0
C2764 C 0.78467 0.77197 0.21641 0.0
C2765 C 0.79396 0.77007 0.16675 0.0
C2766 C 0.77874 0.75745 0.15589 0.0
C2767 C 0.80911 0.776 0.15847 0.0
C2768 C 0.8262 0.78787 0.16936 0.0
C2769 C 0.83389 0.78227 0.18589 0.0
C2770 C 0.85 0.79348 0.19605 0.0
C2771 C 0.85863 0.81025 0.18975 0.0
C2772 C 0.85117 0.81585 0.17328 0.0
C2773 C 0.83504 0.80472 0.1631 0.0
H2774 H 0.87112 0.81888 0.19759 0.0
H2775 H 0.71833 0.70394 0.09767 0.0
H2776 H 0.15333 0.04374 0.78734 0.0
H2777 H 0.14947 0.0312 0.7543 0.0
H2778 H 0.11325 0.06534 0.74003 0.0
H2779 H 0.11682 0.07779 0.77272 0.0
H2780 H 0.11531 0.01347 0.72437 0.0
H2781 H 0.13303 0.09224 0.7094 0.0
H2782 H 0.15261 0.1233 0.72452 0.0
H2783 H 0.18764 0.09464 0.75368 0.0
H2784 H 0.16844 0.06341 0.73849 0.0
H2785 H 0.06871 0.03689 0.64713 0.0
H2786 H 0.08459 0.02872 0.67513 0.0
H2787 H 0.13334 0.04609 0.65457 0.0
H2788 H 0.11743 0.05485 0.62665 0.0
H2789 H 0.13623 0.06505 0.68649 0.0
H2790 H 0.11964 0.99966 0.66625 0.0
H2791 H 0.10087 0.9683 0.65097 0.0
H2792 H 0.06642 0.96842 0.69069 0.0
H2793 H 0.08489 0.99986 0.70616 0.0
C2794 C 0.14431 0.04832 0.77719 0.0
C2795 C 0.1355 0.06192 0.78263 0.0
C2796 C 0.14211 0.04108 0.75838 0.0
C2797 C 0.1312 0.04749 0.74486 0.0
C2798 C 0.12179 0.06032 0.75035 0.0
C2799 C 0.12388 0.06744 0.76904 0.0
C2800 C 0.13049 0.04242 0.72477 0.0
C2801 C 0.1201 0.02451 0.71595 0.0
C2802 C 0.13742 0.05667 0.71398 0.0
C2803 C 0.14925 0.07547 0.72284 0.0
C2804 C 0.14498 0.09256 0.71892 0.0
C2805 C 0.156 0.1102 0.72753 0.0
C2806 C 0.17135 0.11094 0.74006 0.0
C2807 C 0.17573 0.09404 0.744 0.0
C2808 C 0.16477 0.07637 0.7354 0.0
C2809 C 0.08276 0.03859 0.64843 0.0
C2810 C 0.09191 0.04681 0.63495 0.0
C2811 C 0.09182 0.03362 0.66431 0.0
C2812 C 0.11019 0.03669 0.66696 0.0
C2813 C 0.11917 0.04355 0.6528 0.0
C2814 C 0.11008 0.04854 0.63688 0.0
C2815 C 0.11997 0.03642 0.68585 0.0
C2816 C 0.13202 0.05351 0.69461 0.0
C2817 C 0.11488 0.02123 0.69644 0.0
C2818 C 0.1037 0.00218 0.68738 0.0
C2819 C 0.10803 0.99305 0.67171 0.0
C2820 C 0.09745 0.97524 0.66302 0.0
C2821 C 0.08245 0.96638 0.66984 0.0
C2822 C 0.07806 0.97529 0.68544 0.0
C2823 C 0.08863 0.99308 0.69422 0.0
H2824 H 0.07424 0.95262 0.66304 0.0
H2825 H 0.17985 0.12462 0.7467 0.0
H2826 H 0.76284 0.39153 0.47205 0.0
H2827 H 0.7547 0.37975 0.4384 0.0
H2828 H 0.80949 0.38688 0.43531 0.0
H2829 H 0.81759 0.39785 0.4687 0.0
H2830 H 0.78558 0.40211 0.40524 0.0
H2831 H 0.7924 0.3464 0.43721 0.0
H2832 H 0.78452 0.32395 0.45989 0.0
H2833 H 0.73034 0.30943 0.43284 0.0
H2834 H 0.7379 0.33204 0.41016 0.0
H2835 H 0.80213 0.34857 0.32805 0.0
H2836 H 0.80061 0.36483 0.35818 0.0
H2837 H 0.74583 0.33457 0.35183 0.0
H2838 H 0.74717 0.3186 0.32143 0.0
H2839 H 0.76359 0.33217 0.38561 0.0
H2840 H 0.75559 0.38111 0.35038 0.0
H2841 H 0.75974 0.40468 0.32804 0.0
H2842 H 0.81078 0.43319 0.35996 0.0
H2843 H 0.8071 0.40959 0.38236 0.0
C2844 C 0.77309 0.39063 0.46413 0.0
C2845 C 0.79083 0.39545 0.47304 0.0
C2846 C 0.76845 0.38394 0.44495 0.0
C2847 C 0.78153 0.38251 0.43439 0.0
C2848 C 0.79922 0.38793 0.44318 0.0
C2849 C 0.8038 0.39408 0.4623 0.0
C2850 C 0.77704 0.37453 0.41435 0.0
C2851 C 0.78082 0.38683 0.40088 0.0
C2852 C 0.77016 0.35469 0.40863 0.0
C2853 C 0.76567 0.34108 0.42219 0.0
C2854 C 0.77879 0.33857 0.43624 0.0
C2855 C 0.77438 0.32578 0.44905 0.0
C2856 C 0.75693 0.31532 0.44785 0.0
C2857 C 0.74385 0.31758 0.43379 0.0
C2858 C 0.74818 0.33037 0.42095 0.0
C2859 C 0.78965 0.34572 0.33284 0.0
C2860 C 0.77473 0.33243 0.32225 0.0
C2861 C 0.7888 0.355 0.35011 0.0
C2862 C 0.77306 0.35105 0.35726 0.0
C2863 C 0.7581 0.3379 0.34662 0.0
C2864 C 0.75889 0.3288 0.32923 0.0
C2865 C 0.7727 0.35969 0.37637 0.0
C2866 C 0.76807 0.3475 0.38975 0.0
C2867 C 0.77839 0.3797 0.38188 0.0
C2868 C 0.78112 0.39345 0.368 0.0
C2869 C 0.76782 0.39221 0.3525 0.0
C2870 C 0.77007 0.4056 0.33984 0.0
C2871 C 0.78551 0.4204 0.3426 0.0
C2872 C 0.79883 0.4217 0.35787 0.0
C2873 C 0.79667 0.40833 0.37056 0.0
H2874 H 0.78703 0.43101 0.33306 0.0
H2875 H 0.75354 0.30542 0.45778 0.0
H2876 H 0.50505 0.15348 0.27246 0.0
H2877 H 0.51764 0.15977 0.24456 0.0
H2878 H 0.47097 0.17487 0.21958 0.0
H2879 H 0.45833 0.16879 0.24764 0.0
H2880 H 0.47686 0.14339 0.20069 0.0
H2881 H 0.5094 0.20703 0.22331 0.0
H2882 H 0.52887 0.23357 0.24591 0.0
H2883 H 0.5712 0.20654 0.24647 0.0
H2884 H 0.55193 0.17968 0.22408 0.0
H2885 H 0.50976 0.12599 0.11941 0.0
H2886 H 0.49967 0.14495 0.14235 0.0
H2887 H 0.5441 0.14362 0.18372 0.0
H2888 H 0.55514 0.12617 0.16049 0.0
H2889 H 0.53645 0.17592 0.19036 0.0
H2890 H 0.50254 0.10939 0.17699 0.0
H2891 H 0.48361 0.08063 0.15675 0.0
H2892 H 0.44459 0.11097 0.14165 0.0
H2893 H 0.46341 0.13999 0.16166 0.0
C2894 C 0.49774 0.15885 0.26132 0.0
C2895 C 0.48061 0.16038 0.2621 0.0
C2896 C 0.505 0.16256 0.24541 0.0
C2897 C 0.4952 0.16772 0.22998 0.0
C2898 C 0.47875 0.17097 0.23138 0.0
C2899 C 0.47157 0.16751 0.24744 0.0
C2900 C 0.50055 0.16565 0.21157 0.0
C2901 C 0.48966 0.15096 0.19815 0.0
C2902 C 0.51745 0.17514 0.20855 0.0
C2903 C 0.52916 0.19128 0.22202 0.0
C2904 C 0.52282 0.20666 0.22834 0.0
C2905 C 0.53384 0.22178 0.2411 0.0
C2906 C 0.55126 0.22173 0.24763 0.0
C2907 C 0.55771 0.20657 0.24139 0.0
C2908 C 0.54674 0.19141 0.22862 0.0
C2909 C 0.51772 0.13018 0.13321 0.0
C2910 C 0.53313 0.12413 0.13813 0.0
C2911 C 0.5118 0.1409 0.14639 0.0
C2912 C 0.52085 0.14528 0.16491 0.0
C2913 C 0.53678 0.14029 0.16957 0.0
C2914 C 0.54292 0.12996 0.15631 0.0
C2915 C 0.51299 0.15319 0.17989 0.0
C2916 C 0.52341 0.16885 0.19264 0.0
C2917 C 0.49578 0.14432 0.1826 0.0
C2918 C 0.48446 0.1269 0.17059 0.0
C2919 C 0.48997 0.10995 0.16925 0.0
C2920 C 0.47926 0.09361 0.15783 0.0
C2921 C 0.46294 0.094 0.14786 0.0
C2922 C 0.45726 0.11071 0.14934 0.0
C2923 C 0.46794 0.1271 0.1607 0.0
H2924 H 0.45466 0.08133 0.13904 0.0
H2925 H 0.55977 0.23345 0.25752 0.0
H2926 H 0.77937 0.76845 0.97493 0.0
H2927 H 0.78427 0.77972 0.94531 0.0
H2928 H 0.7927 0.72555 0.92597 0.0
H2929 H 0.78834 0.71432 0.95614 0.0
H2930 H 0.81431 0.7535 0.91348 0.0
H2931 H 0.75266 0.73623 0.91281 0.0
H2932 H 0.72498 0.7355 0.92425 0.0
H2933 H 0.734 0.79605 0.92304 0.0
H2934 H 0.76188 0.7972 0.91184 0.0
H2935 H 0.7953 0.77062 0.8169 0.0
H2936 H 0.79283 0.75669 0.84612 0.0
H2937 H 0.79751 0.8124 0.87492 0.0
H2938 H 0.80024 0.82649 0.84583 0.0
H2939 H 0.76862 0.78118 0.88113 0.0
H2940 H 0.83075 0.79673 0.88002 0.0
H2941 H 0.85757 0.79542 0.86769 0.0
H2942 H 0.84656 0.73509 0.87102 0.0
H2943 H 0.81928 0.73587 0.88271 0.0
C2944 C 0.78244 0.75895 0.96447 0.0
C2945 C 0.78328 0.74039 0.96784 0.0
C2946 C 0.78513 0.76539 0.94745 0.0
C2947 C 0.78834 0.75333 0.93311 0.0
C2948 C 0.79008 0.73509 0.93672 0.0
C2949 C 0.78762 0.72869 0.95397 0.0
C2950 C 0.78937 0.75976 0.91434 0.0
C2951 C 0.80417 0.75924 0.90625 0.0
C2952 C 0.77621 0.76743 0.9049 0.0
C2953 C 0.75945 0.76683 0.91164 0.0
C2954 C 0.74881 0.74942 0.91512 0.0
C2955 C 0.73308 0.74893 0.92154 0.0
C2956 C 0.72776 0.76572 0.92441 0.0
C2957 C 0.73815 0.78305 0.92083 0.0
C2958 C 0.75391 0.78363 0.91443 0.0
C2959 C 0.79577 0.7799 0.82946 0.0
C2960 C 0.79795 0.79967 0.8291 0.0
C2961 C 0.79449 0.77193 0.84615 0.0
C2962 C 0.7952 0.78353 0.86272 0.0
C2963 C 0.79703 0.80321 0.8623 0.0
C2964 C 0.79859 0.81123 0.8457 0.0
C2965 C 0.79366 0.77518 0.88046 0.0
C2966 C 0.77869 0.7753 0.88831 0.0
C2967 C 0.80651 0.76682 0.88942 0.0
C2968 C 0.82274 0.7663 0.88195 0.0
C2969 C 0.83382 0.7831 0.87779 0.0
C2970 C 0.84917 0.78247 0.87097 0.0
C2971 C 0.85375 0.76518 0.86854 0.0
C2972 C 0.843 0.74848 0.87293 0.0
C2973 C 0.82755 0.74899 0.87956 0.0
H2974 H 0.86563 0.76472 0.86326 0.0
H2975 H 0.71556 0.76531 0.92937 0.0
H2976 H 0.8142 0.16135 0.98097 0.0
H2977 H 0.83697 0.14401 0.98372 0.0
H2978 H 0.85291 0.16594 0.04209 0.0
H2979 H 0.83019 0.1835 0.03943 0.0
H2980 H 0.88139 0.16789 0.02488 0.0
H2981 H 0.82876 0.1203 0.02879 0.0
H2982 H 0.79796 0.10134 0.01865 0.0
H2983 H 0.81058 0.07956 0.96755 0.0
H2984 H 0.84142 0.0986 0.97728 0.0
H2985 H 0.93245 0.103 0.0504 0.0
H2986 H 0.91009 0.12096 0.04783 0.0
H2987 H 0.8944 0.10004 0.98921 0.0
H2988 H 0.91667 0.08188 0.99172 0.0
H2989 H 0.86594 0.09766 0.00667 0.0
H2990 H 0.91837 0.14461 0.00246 0.0
H2991 H 0.94938 0.16286 0.01242 0.0
H2992 H 0.93743 0.18575 0.06344 0.0
H2993 H 0.90637 0.16727 0.05396 0.0
C2994 C 0.8225 0.16249 0.99443 0.0
C2995 C 0.82027 0.17378 0.01 0.0
C2996 C 0.83552 0.15251 0.99598 0.0
C2997 C 0.84659 0.15351 0.01315 0.0
C2998 C 0.84454 0.16493 0.0287 0.0
C2999 C 0.83147 0.17489 0.02717 0.0
C3000 C 0.86023 0.14256 0.01485 0.0
C3001 C 0.87798 0.1525 0.02115 0.0
C3002 C 0.85588 0.12253 0.00956 0.0
C3003 C 0.83736 0.11102 0.00369 0.0
C3004 C 0.82493 0.11158 0.01533 0.0
C3005 C 0.80748 0.1008 0.00966 0.0
C3006 C 0.80231 0.08929 0.99244 0.0
C3007 C 0.8146 0.0885 0.98087 0.0
C3008 C 0.83208 0.09927 0.98646 0.0
C3009 C 0.92419 0.10215 0.03697 0.0
C3010 C 0.92636 0.091 0.02126 0.0
C3011 C 0.91149 0.11253 0.0355 0.0
C3012 C 0.90061 0.11195 0.01829 0.0
C3013 C 0.90265 0.10073 0.00262 0.0
C3014 C 0.91546 0.09047 0.00404 0.0
C3015 C 0.88707 0.12297 0.01669 0.0
C3016 C 0.86935 0.11305 0.01042 0.0
C3017 C 0.89146 0.14301 0.02193 0.0
C3018 C 0.91006 0.15441 0.02757 0.0
C3019 C 0.92237 0.15342 0.01586 0.0
C3020 C 0.93995 0.16383 0.02141 0.0
C3021 C 0.94537 0.17547 0.03854 0.0
C3022 C 0.9332 0.17673 0.05017 0.0
C3023 C 0.9156 0.16629 0.04471 0.0
H3024 H 0.95899 0.18351 0.04282 0.0
H3025 H 0.78878 0.08095 0.98808 0.0
H3026 H 0.36336 0.43539 0.01816 0.0
H3027 H 0.39174 0.4575 0.0182 0.0
H3028 H 0.38153 0.49685 0.05997 0.0
H3029 H 0.3524 0.47482 0.05934 0.0
H3030 H 0.39904 0.51642 0.03674 0.0
H3031 H 0.40818 0.4664 0.07161 0.0
H3032 H 0.40536 0.43326 0.07846 0.0
H3033 H 0.43018 0.42185 0.03221 0.0
H3034 H 0.43292 0.45485 0.0249 0.0
H3035 H 0.49315 0.56076 0.06396 0.0
H3036 H 0.46239 0.54383 0.06386 0.0
H3037 H 0.46176 0.50819 0.01346 0.0
H3038 H 0.49237 0.52533 0.01328 0.0
H3039 H 0.45012 0.48821 0.04384 0.0
H3040 H 0.44016 0.53977 0.00962 0.0
H3041 H 0.4437 0.57365 0.00511 0.0
H3042 H 0.42161 0.58304 0.05395 0.0
H3043 H 0.41817 0.54925 0.0589 0.0
C3044 C 0.36705 0.44883 0.02727 0.0
C3045 C 0.35573 0.45325 0.03894 0.0
C3046 C 0.38337 0.46145 0.02736 0.0
C3047 C 0.38912 0.47863 0.03952 0.0
C3048 C 0.3775 0.48359 0.05059 0.0
C3049 C 0.36087 0.47103 0.05023 0.0
C3050 C 0.40747 0.49083 0.0409 0.0
C3051 C 0.41022 0.51029 0.0386 0.0
C3052 C 0.42218 0.48294 0.04325 0.0
C3053 C 0.42062 0.46307 0.04762 0.0
C3054 C 0.41293 0.45679 0.06282 0.0
C3055 C 0.41136 0.43803 0.06679 0.0
C3056 C 0.41756 0.42545 0.05575 0.0
C3057 C 0.42537 0.43161 0.04074 0.0
C3058 C 0.42695 0.45035 0.03668 0.0
C3059 C 0.48636 0.54945 0.05275 0.0
C3060 C 0.49512 0.54437 0.03861 0.0
C3061 C 0.4688 0.53983 0.05269 0.0
C3062 C 0.45976 0.52478 0.03863 0.0
C3063 C 0.46847 0.51979 0.02442 0.0
C3064 C 0.48592 0.52963 0.02429 0.0
C3065 C 0.44157 0.51355 0.03924 0.0
C3066 C 0.43891 0.49429 0.04205 0.0
C3067 C 0.42708 0.52175 0.03775 0.0
C3068 C 0.4291 0.54203 0.03475 0.0
C3069 C 0.43622 0.5491 0.0195 0.0
C3070 C 0.43817 0.56828 0.01684 0.0
C3071 C 0.43293 0.5805 0.02927 0.0
C3072 C 0.42568 0.57356 0.04435 0.0
C3073 C 0.42372 0.55439 0.04708 0.0
H3074 H 0.43445 0.59535 0.02718 0.0
H3075 H 0.41633 0.41093 0.05886 0.0
H3076 H 0.36122 0.57735 0.71089 0.0
H3077 H 0.34793 0.60382 0.71579 0.0
H3078 H 0.39899 0.64125 0.73967 0.0
H3079 H 0.41252 0.61477 0.73474 0.0
H3080 H 0.37195 0.64487 0.75975 0.0
H3081 H 0.38309 0.64508 0.69731 0.0
H3082 H 0.38235 0.63096 0.66527 0.0
H3083 H 0.32582 0.61543 0.65542 0.0
H3084 H 0.32622 0.6292 0.68752 0.0
H3085 H 0.34149 0.72874 0.75719 0.0
H3086 H 0.35844 0.70551 0.75227 0.0
H3087 H 0.31141 0.66485 0.72192 0.0
H3088 H 0.29449 0.68829 0.72616 0.0
H3089 H 0.33878 0.66465 0.70505 0.0
H3090 H 0.3273 0.66256 0.76755 0.0
H3091 H 0.32752 0.67576 0.79977 0.0
H3092 H 0.384 0.69382 0.8098 0.0
H3093 H 0.38413 0.6811 0.77749 0.0
C3094 C 0.36966 0.59116 0.71729 0.0
C3095 C 0.38796 0.59399 0.72234 0.0
C3096 C 0.36203 0.60628 0.72001 0.0
C3097 C 0.37252 0.62449 0.72787 0.0
C3098 C 0.39071 0.62728 0.7335 0.0
C3099 C 0.3984 0.61216 0.73065 0.0
C3100 C 0.36439 0.64062 0.72986 0.0
C3101 C 0.36495 0.64946 0.7478 0.0
C3102 C 0.35499 0.64626 0.71424 0.0
C3103 C 0.35469 0.63803 0.69489 0.0
C3104 C 0.3705 0.63851 0.68837 0.0
C3105 C 0.37014 0.63059 0.67019 0.0
C3106 C 0.35405 0.62226 0.65833 0.0
C3107 C 0.33828 0.62187 0.66463 0.0
C3108 C 0.33856 0.62975 0.68281 0.0
C3109 C 0.3348 0.71497 0.74919 0.0
C3110 C 0.31662 0.71033 0.7421 0.0
C3111 C 0.34448 0.70164 0.74657 0.0
C3112 C 0.33613 0.68336 0.73698 0.0
C3113 C 0.31809 0.67886 0.72945 0.0
C3114 C 0.30842 0.6922 0.73201 0.0
C3115 C 0.34609 0.66877 0.73499 0.0
C3116 C 0.34589 0.6602 0.71702 0.0
C3117 C 0.35574 0.66333 0.75061 0.0
C3118 C 0.35571 0.67108 0.77002 0.0
C3119 C 0.33977 0.66953 0.77656 0.0
C3120 C 0.33983 0.67692 0.79484 0.0
C3121 C 0.35577 0.68572 0.80679 0.0
C3122 C 0.37167 0.6871 0.80049 0.0
C3123 C 0.37168 0.67981 0.7822 0.0
H3124 H 0.35579 0.6914 0.82096 0.0
H3125 H 0.3538 0.61615 0.64425 0.0
H3126 H 0.24476 0.66108 0.53431 0.0
H3127 H 0.21665 0.63755 0.53368 0.0
H3128 H 0.19379 0.6581 0.48462 0.0
H3129 H 0.22147 0.68217 0.48592 0.0
H3130 H 0.1734 0.65735 0.50764 0.0
H3131 H 0.20216 0.61158 0.48546 0.0
H3132 H 0.2254 0.59453 0.48556 0.0
H3133 H 0.21606 0.57567 0.53803 0.0
H3134 H 0.19291 0.59282 0.53837 0.0
H3135 H 0.09198 0.58664 0.48708 0.0
H3136 H 0.12243 0.60206 0.4848 0.0
H3137 H 0.13925 0.59706 0.54261 0.0
H3138 H 0.10876 0.58193 0.54516 0.0
H3139 H 0.16244 0.58852 0.51533 0.0
H3140 H 0.13426 0.63632 0.53695 0.0
H3141 H 0.11026 0.65241 0.53506 0.0
H3142 H 0.11837 0.66647 0.48069 0.0
H3143 H 0.14225 0.65016 0.48214 0.0
C3144 C 0.23382 0.66019 0.52315 0.0
C3145 C 0.23522 0.67343 0.51019 0.0
C3146 C 0.21774 0.64672 0.52276 0.0
C3147 C 0.20297 0.64597 0.50909 0.0
C3148 C 0.20485 0.65844 0.49544 0.0
C3149 C 0.22071 0.67214 0.4961 0.0
C3150 C 0.18517 0.63365 0.50991 0.0
C3151 C 0.17108 0.64223 0.50899 0.0
C3152 C 0.182 0.61397 0.51217 0.0
C3153 C 0.19592 0.60365 0.51202 0.0
C3154 C 0.20516 0.60393 0.4971 0.0
C3155 C 0.2183 0.59422 0.49706 0.0
C3156 C 0.22223 0.58407 0.51182 0.0
C3157 C 0.21301 0.58356 0.52662 0.0
C3158 C 0.19986 0.59326 0.52673 0.0
C3159 C 0.10217 0.58853 0.49925 0.0
C3160 C 0.09791 0.58318 0.51635 0.0
C3161 C 0.11956 0.59734 0.49791 0.0
C3162 C 0.13305 0.6007 0.51354 0.0
C3163 C 0.12902 0.59451 0.53037 0.0
C3164 C 0.11158 0.58599 0.53182 0.0
C3165 C 0.15098 0.61228 0.51274 0.0
C3166 C 0.16497 0.60361 0.51382 0.0
C3167 C 0.1541 0.63183 0.51036 0.0
C3168 C 0.1399 0.64184 0.50957 0.0
C3169 C 0.13082 0.64269 0.52452 0.0
C3170 C 0.11726 0.65188 0.52354 0.0
C3171 C 0.11276 0.66041 0.50774 0.0
C3172 C 0.12185 0.65982 0.49291 0.0
C3173 C 0.13541 0.65062 0.4938 0.0
H3174 H 0.10225 0.66752 0.50701 0.0
H3175 H 0.23241 0.57656 0.51177 0.0
H3176 H 0.69315 0.96794 0.76033 0.0
H3177 H 0.71264 0.94741 0.7682 0.0
H3178 H 0.66977 0.89741 0.74724 0.0
H3179 H 0.65016 0.91792 0.739 0.0
H3180 H 0.68935 0.89699 0.78391 0.0
H3181 H 0.69835 0.9069 0.72194 0.0
H3182 H 0.70516 0.92493 0.69577 0.0
H3183 H 0.75624 0.95399 0.72734 0.0
H3184 H 0.74964 0.93631 0.75383 0.0
H3185 H 0.73674 0.82697 0.78121 0.0
H3186 H 0.71784 0.84836 0.7768 0.0
H3187 H 0.76353 0.89663 0.78474 0.0
H3188 H 0.78269 0.87493 0.78808 0.0
H3189 H 0.74243 0.89868 0.75571 0.0
H3190 H 0.73349 0.88703 0.81761 0.0
H3191 H 0.72672 0.86706 0.84252 0.0
H3192 H 0.67537 0.83989 0.81053 0.0
H3193 H 0.68188 0.85958 0.78534 0.0
C3194 C 0.68788 0.95258 0.7573 0.0
C3195 C 0.67015 0.9445 0.74906 0.0
C3196 C 0.69903 0.9409 0.76177 0.0
C3197 C 0.69259 0.92096 0.75827 0.0
C3198 C 0.67491 0.9128 0.75003 0.0
C3199 C 0.66379 0.92451 0.74526 0.0
C3200 C 0.70437 0.90872 0.76357 0.0
C3201 C 0.70087 0.89714 0.77764 0.0
C3202 C 0.71957 0.90939 0.75566 0.0
C3203 C 0.72338 0.9205 0.73999 0.0
C3204 C 0.71093 0.91735 0.72342 0.0
C3205 C 0.71479 0.92744 0.70849 0.0
C3206 C 0.73109 0.94066 0.70992 0.0
C3207 C 0.74359 0.94379 0.72627 0.0
C3208 C 0.7398 0.93373 0.74125 0.0
C3209 C 0.74284 0.84218 0.78242 0.0
C3210 C 0.76124 0.8493 0.78503 0.0
C3211 C 0.73196 0.85445 0.78 0.0
C3212 C 0.73921 0.87418 0.78076 0.0
C3213 C 0.75763 0.88144 0.78414 0.0
C3214 C 0.76857 0.86907 0.78612 0.0
C3215 C 0.72757 0.88688 0.7762 0.0
C3216 C 0.73104 0.89859 0.76219 0.0
C3217 C 0.71234 0.88626 0.78418 0.0
C3218 C 0.70823 0.87472 0.79953 0.0
C3219 C 0.72078 0.87675 0.81585 0.0
C3220 C 0.71698 0.86549 0.83003 0.0
C3221 C 0.70063 0.8522 0.82809 0.0
C3222 C 0.68802 0.8502 0.81201 0.0
C3223 C 0.69174 0.86145 0.7978 0.0
H3224 H 0.69773 0.84347 0.83906 0.0
H3225 H 0.73407 0.94844 0.69833 0.0
H3226 H 0.7719 0.98546 0.56575 0.0
H3227 H 0.74628 0.99856 0.56181 0.0
H3228 H 0.71642 0.94803 0.52467 0.0
H3229 H 0.74217 0.93497 0.52827 0.0
H3230 H 0.70966 0.97891 0.51137 0.0
H3231 H 0.71062 0.95549 0.5707 0.0
H3232 H 0.72371 0.95198 0.6026 0.0
H3233 H 0.73315 0.01231 0.61873 0.0
H3234 H 0.72033 0.01622 0.58685 0.0
H3235 H 0.62815 0.00374 0.51195 0.0
H3236 H 0.65122 0.98676 0.51532 0.0
H3237 H 0.68452 0.03324 0.55537 0.0
H3238 H 0.66122 0.04964 0.55304 0.0
H3239 H 0.6881 0.00185 0.56682 0.0
H3240 H 0.68892 0.02567 0.50716 0.0
H3241 H 0.67608 0.0294 0.47523 0.0
H3242 H 0.66344 0.96863 0.45978 0.0
H3243 H 0.67603 0.96453 0.49169 0.0
C3244 C 0.75991 0.9771 0.55671 0.0
C3245 C 0.75915 0.95907 0.54741 0.0
C3246 C 0.74519 0.98459 0.55454 0.0
C3247 C 0.72921 0.9742 0.54318 0.0
C3248 C 0.72851 0.95635 0.53358 0.0
C3249 C 0.74328 0.94887 0.53569 0.0
C3250 C 0.71333 0.98197 0.54136 0.0
C3251 C 0.7048 0.98366 0.52351 0.0
C3252 C 0.70703 0.9885 0.55713 0.0
C3253 C 0.71464 0.98617 0.57634 0.0
C3254 C 0.71559 0.96803 0.58102 0.0
C3255 C 0.72295 0.96596 0.5991 0.0
C3256 C 0.72929 0.98192 0.61267 0.0
C3257 C 0.72825 0.99997 0.6082 0.0
C3258 C 0.72092 0.00211 0.59013 0.0
C3259 C 0.64028 0.01029 0.52165 0.0
C3260 C 0.64278 0.02833 0.53198 0.0
C3261 C 0.65362 0.00063 0.52339 0.0
C3262 C 0.6699 0.00883 0.53531 0.0
C3263 C 0.67222 0.02657 0.54595 0.0
C3264 C 0.65887 0.03611 0.54438 0.0
C3265 C 0.6846 0.99916 0.53685 0.0
C3266 C 0.6929 0.99705 0.55467 0.0
C3267 C 0.6907 0.99231 0.52105 0.0
C3268 C 0.68325 0.99478 0.50185 0.0
C3269 C 0.6833 0.0131 0.49698 0.0
C3270 C 0.67608 0.01528 0.47889 0.0
C3271 C 0.6689 0.99926 0.4655 0.0
C3272 C 0.66898 0.98103 0.47017 0.0
C3273 C 0.67617 0.97876 0.48825 0.0
H3274 H 0.66331 0.00098 0.4515 0.0
H3275 H 0.73499 0.98029 0.62666 0.0
H3276 H 0.35629 0.46353 0.67543 0.0
H3277 H 0.33558 0.43792 0.6865 0.0
H3278 H 0.33413 0.47694 0.73359 0.0
H3279 H 0.35439 0.5028 0.72236 0.0
H3280 H 0.34877 0.43722 0.73499 0.0
H3281 H 0.30047 0.46664 0.71747 0.0
H3282 H 0.28182 0.47982 0.6948 0.0
H3283 H 0.26692 0.42649 0.65883 0.0
H3284 H 0.28572 0.4131 0.68118 0.0
H3285 H 0.29956 0.3677 0.7813 0.0
H3286 H 0.31207 0.39791 0.76997 0.0
H3287 H 0.28614 0.37355 0.71383 0.0
H3288 H 0.27286 0.34376 0.72532 0.0
H3289 H 0.2844 0.40799 0.71792 0.0
H3290 H 0.33199 0.37872 0.72975 0.0
H3291 H 0.35225 0.36328 0.74763 0.0
H3292 H 0.36998 0.41253 0.78918 0.0
H3293 H 0.34989 0.42839 0.77137 0.0
C3294 C 0.35109 0.46681 0.6878 0.0
C3295 C 0.35699 0.48512 0.69807 0.0
C3296 C 0.33928 0.4522 0.69407 0.0
C3297 C 0.33338 0.45565 0.71079 0.0
C3298 C 0.33844 0.47414 0.72054 0.0
C3299 C 0.34997 0.48887 0.71407 0.0
C3300 C 0.32426 0.43938 0.71941 0.0
C3301 C 0.33463 0.43101 0.73162 0.0
C3302 C 0.30601 0.43095 0.71426 0.0
C3303 C 0.29467 0.43897 0.70088 0.0
C3304 C 0.29338 0.45781 0.70463 0.0
C3305 C 0.28274 0.46529 0.69186 0.0
C3306 C 0.27323 0.45402 0.67535 0.0
C3307 C 0.27431 0.43522 0.67161 0.0
C3308 C 0.28495 0.42767 0.68432 0.0
C3309 C 0.29649 0.36889 0.76657 0.0
C3310 C 0.28532 0.35347 0.75415 0.0
C3311 C 0.30371 0.3861 0.76007 0.0
C3312 C 0.30031 0.38794 0.74097 0.0
C3313 C 0.28894 0.37254 0.72862 0.0
C3314 C 0.28142 0.3555 0.73517 0.0
C3315 C 0.30887 0.40571 0.73375 0.0
C3316 C 0.29848 0.4143 0.72164 0.0
C3317 C 0.32726 0.41406 0.73853 0.0
C3318 C 0.3393 0.40463 0.74935 0.0
C3319 C 0.34013 0.3862 0.74276 0.0
C3320 C 0.3516 0.37739 0.75287 0.0
C3321 C 0.3623 0.38682 0.76963 0.0
C3322 C 0.36165 0.4052 0.77622 0.0
C3323 C 0.35027 0.41415 0.76609 0.0
H3324 H 0.37114 0.37991 0.77745 0.0
H3325 H 0.265 0.45984 0.66549 0.0
H3326 H 0.15905 0.52135 0.23974 0.0
H3327 H 0.17976 0.55301 0.24428 0.0
H3328 H 0.14247 0.57711 0.26841 0.0
H3329 H 0.12145 0.54566 0.26312 0.0
H3330 H 0.15399 0.5976 0.24396 0.0
H3331 H 0.18224 0.57099 0.29447 0.0
H3332 H 0.19554 0.54708 0.30865 0.0
H3333 H 0.23477 0.55683 0.27379 0.0
H3334 H 0.22157 0.58063 0.25923 0.0
H3335 H 0.20636 0.68953 0.27642 0.0
H3336 H 0.19112 0.65629 0.27781 0.0
H3337 H 0.22598 0.63712 0.24548 0.0
H3338 H 0.24137 0.67049 0.24404 0.0
H3339 H 0.21701 0.61399 0.27373 0.0
H3340 H 0.18841 0.64004 0.22315 0.0
H3341 H 0.17525 0.66408 0.20907 0.0
H3342 H 0.13646 0.655 0.24447 0.0
H3343 H 0.14957 0.63111 0.25898 0.0
C3344 C 0.15536 0.53338 0.24621 0.0
C3345 C 0.1386 0.53107 0.251 0.0
C3346 C 0.16726 0.55146 0.2489 0.0
C3347 C 0.16277 0.56747 0.25686 0.0
C3348 C 0.14623 0.56501 0.26219 0.0
C3349 C 0.13422 0.54703 0.25918 0.0
C3350 C 0.17467 0.58699 0.25844 0.0
C3351 C 0.16768 0.60118 0.25078 0.0
C3352 C 0.19273 0.5916 0.26673 0.0
C3353 C 0.20082 0.57747 0.27564 0.0
C3354 C 0.19364 0.56795 0.28975 0.0
C3355 C 0.20117 0.55443 0.29787 0.0
C3356 C 0.21596 0.5504 0.29209 0.0
C3357 C 0.2233 0.55995 0.27824 0.0
C3358 C 0.21581 0.57347 0.27006 0.0
C3359 C 0.21089 0.67824 0.26976 0.0
C3360 C 0.22485 0.68257 0.25986 0.0
C3361 C 0.20224 0.65928 0.27064 0.0
C3362 C 0.20726 0.64429 0.26149 0.0
C3363 C 0.22191 0.64851 0.25261 0.0
C3364 C 0.23066 0.66755 0.25179 0.0
C3365 C 0.1961 0.62446 0.25969 0.0
C3366 C 0.20326 0.61028 0.26709 0.0
C3367 C 0.17815 0.61977 0.25119 0.0
C3368 C 0.17007 0.63391 0.24226 0.0
C3369 C 0.17714 0.64326 0.22802 0.0
C3370 C 0.16969 0.65685 0.21995 0.0
C3371 C 0.15505 0.66109 0.2259 0.0
C3372 C 0.14781 0.65171 0.23989 0.0
C3373 C 0.15524 0.63813 0.24803 0.0
H3374 H 0.1493 0.67163 0.21964 0.0
H3375 H 0.22176 0.53991 0.29837 0.0
H3376 H 0.5413 0.76017 0.4446 0.0
H3377 H 0.54807 0.73258 0.45839 0.0
H3378 H 0.49263 0.70345 0.44737 0.0
H3379 H 0.48593 0.73148 0.43508 0.0
H3380 H 0.50373 0.69834 0.47892 0.0
H3381 H 0.52645 0.69191 0.42246 0.0
H3382 H 0.54465 0.70196 0.39885 0.0
H3383 H 0.59161 0.71124 0.4399 0.0
H3384 H 0.57368 0.70146 0.46382 0.0
H3385 H 0.50797 0.6048 0.49354 0.0
H3386 H 0.50469 0.63308 0.47928 0.0
H3387 H 0.55953 0.66093 0.50023 0.0
H3388 H 0.56309 0.63213 0.51397 0.0
H3389 H 0.55054 0.66788 0.46554 0.0
H3390 H 0.52323 0.66963 0.52102 0.0
H3391 H 0.50185 0.65684 0.54089 0.0
H3392 H 0.45909 0.65248 0.49576 0.0
H3393 H 0.48018 0.66485 0.47554 0.0
C3394 C 0.53065 0.74776 0.44506 0.0
C3395 C 0.5131 0.74793 0.43889 0.0
C3396 C 0.53451 0.73192 0.45283 0.0
C3397 C 0.5209 0.71569 0.45389 0.0
C3398 C 0.50342 0.71575 0.447 0.0
C3399 C 0.49957 0.73175 0.43987 0.0
C3400 C 0.52447 0.69901 0.46301 0.0
C3401 C 0.51383 0.69158 0.4757 0.0
C3402 C 0.53789 0.69027 0.45931 0.0
C3403 C 0.54871 0.69617 0.44498 0.0
C3404 C 0.54065 0.69624 0.42649 0.0
C3405 C 0.55092 0.70186 0.41304 0.0
C3406 C 0.56927 0.7073 0.41789 0.0
C3407 C 0.5774 0.70706 0.43618 0.0
C3408 C 0.56719 0.70147 0.44968 0.0
C3409 C 0.51935 0.61695 0.49524 0.0
C3410 C 0.53577 0.61626 0.50511 0.0
C3411 C 0.51743 0.6332 0.4871 0.0
C3412 C 0.53174 0.64941 0.48904 0.0
C3413 C 0.54824 0.64868 0.49864 0.0
C3414 C 0.55026 0.63223 0.50653 0.0
C3415 C 0.52945 0.66701 0.48095 0.0
C3416 C 0.54045 0.67471 0.46865 0.0
C3417 C 0.51588 0.67559 0.48442 0.0
C3418 C 0.50331 0.6681 0.49674 0.0
C3419 C 0.50928 0.66583 0.51531 0.0
C3420 C 0.49719 0.65864 0.52663 0.0
C3421 C 0.47912 0.65388 0.51958 0.0
C3422 C 0.47309 0.65619 0.5012 0.0
C3423 C 0.48509 0.66328 0.48981 0.0
H3424 H 0.46972 0.64846 0.5283 0.0
H3425 H 0.5772 0.71164 0.40746 0.0
H3426 H 0.6332 0.36497 0.67393 0.0
H3427 H 0.6596 0.36468 0.69565 0.0
H3428 H 0.63052 0.31503 0.7164 0.0
H3429 H 0.6037 0.31568 0.69487 0.0
H3430 H 0.65626 0.33858 0.74424 0.0
H3431 H 0.65326 0.30888 0.68276 0.0
H3432 H 0.64911 0.30613 0.64845 0.0
H3433 H 0.69329 0.3548 0.65201 0.0
H3434 H 0.69753 0.35804 0.68635 0.0
H3435 H 0.73734 0.31212 0.77502 0.0
H3436 H 0.70733 0.31189 0.76048 0.0
H3437 H 0.72813 0.3626 0.73592 0.0
H3438 H 0.758 0.36284 0.75029 0.0
H3439 H 0.70511 0.33487 0.71054 0.0
H3440 H 0.70707 0.36473 0.77272 0.0
H3441 H 0.71094 0.36649 0.80696 0.0
H3442 H 0.66871 0.3156 0.80197 0.0
H3443 H 0.66474 0.3134 0.76767 0.0
C3444 C 0.63229 0.35432 0.6835 0.0
C3445 C 0.61644 0.34029 0.68266 0.0
C3446 C 0.64742 0.35409 0.69584 0.0
C3447 C 0.64719 0.33951 0.70729 0.0
C3448 C 0.63104 0.32634 0.70759 0.0
C3449 C 0.61572 0.32676 0.69536 0.0
C3450 C 0.66413 0.33718 0.7174 0.0
C3451 C 0.66686 0.33748 0.73686 0.0
C3452 C 0.67803 0.33578 0.70781 0.0
C3453 C 0.67562 0.33379 0.68714 0.0
C3454 C 0.66202 0.31908 0.67623 0.0
C3455 C 0.65966 0.31742 0.65677 0.0
C3456 C 0.67091 0.3303 0.64805 0.0
C3457 C 0.68458 0.34484 0.65878 0.0
C3458 C 0.68697 0.34658 0.67824 0.0
C3459 C 0.73546 0.32327 0.76661 0.0
C3460 C 0.75 0.3375 0.76378 0.0
C3461 C 0.71831 0.32317 0.75839 0.0
C3462 C 0.71545 0.33729 0.74718 0.0
C3463 C 0.72999 0.35157 0.74451 0.0
C3464 C 0.74706 0.35173 0.75278 0.0
C3465 C 0.69747 0.33688 0.73745 0.0
C3466 C 0.69451 0.33589 0.71795 0.0
C3467 C 0.68339 0.33743 0.74703 0.0
C3468 C 0.68575 0.33878 0.76763 0.0
C3469 C 0.69871 0.35382 0.77892 0.0
C3470 C 0.7009 0.35492 0.79834 0.0
C3471 C 0.69011 0.34113 0.80664 0.0
C3472 C 0.67708 0.32625 0.79553 0.0
C3473 C 0.67484 0.32508 0.7761 0.0
H3474 H 0.69183 0.34201 0.82168 0.0
H3475 H 0.66906 0.329 0.63299 0.0
H3476 H 1.00255 0.34659 0.96351 0.0
H3477 H 0.00932 0.38096 0.97263 0.0
H3478 H 0.03938 0.39092 0.92852 0.0
H3479 H 0.03278 0.35625 0.91933 0.0
H3480 H 0.05479 0.41633 0.96075 0.0
H3481 H 0.99855 0.39482 0.92096 0.0
H3482 H 0.96851 0.37406 0.91001 0.0
H3483 H 0.95366 0.39065 0.96165 0.0
H3484 H 0.98369 0.4113 0.97303 0.0
H3485 H 0.01537 0.50658 0.96455 0.0
H3486 H 0.01414 0.47406 0.95127 0.0
H3487 H 0.04935 0.46832 0.0003 0.0
H3488 H 0.05137 0.501 0.01303 0.0
H3489 H 1.00227 0.44161 0.96084 0.0
H3490 H 0.07237 0.43681 0.99222 0.0
H3491 H 0.1022 0.45842 0.00197 0.0
H3492 H 0.08975 0.49601 0.96279 0.0
H3493 H 0.05991 0.47454 0.95267 0.0
C3494 C 0.0108 0.35602 0.95584 0.0
C3495 C 0.01695 0.34864 0.94052 0.0
C3496 C 0.01463 0.3757 0.96108 0.0
C3497 C 0.02456 0.38853 0.95103 0.0
C3498 C 0.03162 0.38127 0.93641 0.0
C3499 C 0.02783 0.36146 0.93117 0.0
C3500 C 0.02648 0.4094 0.95521 0.0
C3501 C 0.04335 0.42193 0.9607 0.0
C3502 C 0.01154 0.41677 0.95473 0.0
C3503 C 0.99341 0.4045 0.94789 0.0
C3504 C 0.98891 0.39394 0.93003 0.0
C3505 C 0.97188 0.38221 0.92374 0.0
C3506 C 0.95919 0.38101 0.93514 0.0
C3507 C 0.9635 0.39159 0.95284 0.0
C3508 C 0.98052 0.40332 0.95921 0.0
C3509 C 0.02297 0.4984 0.97235 0.0
C3510 C 0.03361 0.5064 0.98969 0.0
C3511 C 0.02226 0.47981 0.96479 0.0
C3512 C 0.03194 0.46876 0.97457 0.0
C3513 C 0.04224 0.47667 0.99212 0.0
C3514 C 0.04329 0.49536 0.99945 0.0
C3515 C 0.03062 0.44868 0.96688 0.0
C3516 C 0.0138 0.4362 0.96073 0.0
C3517 C 0.04565 0.44151 0.96642 0.0
C3518 C 0.06384 0.45411 0.97179 0.0
C3519 C 0.07604 0.4496 0.98556 0.0
C3520 C 0.09294 0.46186 0.99119 0.0
C3521 C 0.09785 0.47861 0.98304 0.0
C3522 C 0.08591 0.48306 0.96914 0.0
C3523 C 0.06899 0.47086 0.96347 0.0
H3524 H 0.11091 0.48811 0.98748 0.0
H3525 H 0.94602 0.37192 0.93025 0.0
H3526 H 0.01016 0.80731 0.16602 0.0
H3527 H 0.98346 0.80574 0.17926 0.0
H3528 H 0.00865 0.85975 0.21326 0.0
H3529 H 0.03535 0.86139 0.20019 0.0
H3530 H 0.99101 0.83434 0.23312 0.0
H3531 H 0.97901 0.85728 0.17408 0.0
H3532 H 0.97615 0.85647 0.13996 0.0
H3533 H 0.93635 0.80319 0.13222 0.0
H3534 H 0.93916 0.80355 0.16632 0.0
H3535 H 0.91868 0.86356 0.25846 0.0
H3536 H 0.94396 0.86118 0.24429 0.0
H3537 H 0.91488 0.80592 0.21499 0.0
H3538 H 0.88955 0.80786 0.22957 0.0
H3539 H 0.93371 0.82937 0.1925 0.0
H3540 H 0.94481 0.80754 0.2519 0.0
H3541 H 0.94764 0.80894 0.28605 0.0
H3542 H 0.98924 0.86067 0.29315 0.0
H3543 H 0.98647 0.85974 0.25901 0.0
C3544 C 0.01005 0.81882 0.17638 0.0
C3545 C 0.02491 0.83451 0.18199 0.0
C3546 C 0.99474 0.81794 0.18388 0.0
C3547 C 0.99396 0.83272 0.19714 0.0
C3548 C 0.0089 0.84818 0.20304 0.0
C3549 C 0.02417 0.84911 0.1955 0.0
C3550 C 0.97759 0.83223 0.20484 0.0
C3551 C 0.97853 0.83344 0.22424 0.0
C3552 C 0.96117 0.83058 0.19325 0.0
C3553 C 0.95945 0.83033 0.17275 0.0
C3554 C 0.96976 0.8453 0.1651 0.0
C3555 C 0.96813 0.84494 0.14577 0.0
C3556 C 0.95612 0.82976 0.13393 0.0
C3557 C 0.94568 0.81492 0.14141 0.0
C3558 C 0.94728 0.8152 0.16074 0.0
C3559 C 0.91764 0.85075 0.24919 0.0
C3560 C 0.90205 0.83578 0.24543 0.0
C3561 C 0.93213 0.84948 0.241 0.0
C3562 C 0.93142 0.83327 0.22876 0.0
C3563 C 0.91574 0.81855 0.22443 0.0
C3564 C 0.90123 0.81974 0.23275 0.0
C3565 C 0.94721 0.83171 0.22078 0.0
C3566 C 0.94617 0.83012 0.20136 0.0
C3567 C 0.96357 0.83307 0.23234 0.0
C3568 C 0.96532 0.83366 0.25289 0.0
C3569 C 0.95446 0.8193 0.26074 0.0
C3570 C 0.95607 0.81999 0.28009 0.0
C3571 C 0.96859 0.83491 0.29176 0.0
C3572 C 0.97954 0.84914 0.28409 0.0
C3573 C 0.97796 0.84853 0.26474 0.0
H3574 H 0.96982 0.83542 0.30675 0.0
H3575 H 0.95486 0.82951 0.11897 0.0
H3576 H 0.56699 0.37615 0.11873 0.0
H3577 H 0.5677 0.40604 0.10533 0.0
H3578 H 0.51901 0.37871 0.06775 0.0
H3579 H 0.51811 0.3488 0.08116 0.0
H3580 H 0.544 0.40181 0.05034 0.0
H3581 H 0.51784 0.40653 0.10511 0.0
H3582 H 0.51651 0.40579 0.13849 0.0
H3583 H 0.56395 0.4514 0.1529 0.0
H3584 H 0.5657 0.45222 0.11958 0.0
H3585 H 0.52103 0.48449 0.02089 0.0
H3586 H 0.52143 0.45431 0.0331 0.0
H3587 H 0.56468 0.48397 0.07694 0.0
H3588 H 0.56396 0.51429 0.06516 0.0
H3589 H 0.54292 0.45941 0.09116 0.0
H3590 H 0.56969 0.45539 0.03728 0.0
H3591 H 0.57219 0.45627 0.00417 0.0
H3592 H 0.52555 0.40979 0.98829 0.0
H3593 H 0.52263 0.4088 0.0213 0.0
C3594 C 0.5565 0.37642 0.1075 0.0
C3595 C 0.54246 0.36004 0.10108 0.0
C3596 C 0.55689 0.39357 0.09991 0.0
C3597 C 0.54333 0.39471 0.08563 0.0
C3598 C 0.52961 0.37822 0.07876 0.0
C3599 C 0.5291 0.36112 0.08649 0.0
C3600 C 0.54319 0.41319 0.0782 0.0
C3601 C 0.54356 0.41436 0.05921 0.0
C3602 C 0.54307 0.42972 0.08984 0.0
C3603 C 0.542 0.4293 0.10986 0.0
C3604 C 0.52807 0.41629 0.1154 0.0
C3605 C 0.52722 0.41588 0.13431 0.0
C3606 C 0.54016 0.4285 0.14781 0.0
C3607 C 0.55395 0.4416 0.14243 0.0
C3608 C 0.55487 0.44206 0.12353 0.0
C3609 C 0.53067 0.48462 0.0331 0.0
C3610 C 0.54251 0.50189 0.04196 0.0
C3611 C 0.53096 0.46727 0.04004 0.0
C3612 C 0.54329 0.46667 0.05582 0.0
C3613 C 0.55504 0.48394 0.06475 0.0
C3614 C 0.55463 0.50132 0.05795 0.0
C3615 C 0.54378 0.44816 0.06321 0.0
C3616 C 0.54343 0.44694 0.08223 0.0
C3617 C 0.54412 0.43164 0.05162 0.0
C3618 C 0.54585 0.43215 0.03175 0.0
C3619 C 0.55989 0.44545 0.02672 0.0
C3620 C 0.5614 0.44595 0.00797 0.0
C3621 C 0.54901 0.43312 0.99413 0.0
C3622 C 0.53512 0.41973 0.99902 0.0
C3623 C 0.53354 0.41919 0.01775 0.0
H3624 H 0.5502 0.43353 0.97962 0.0
H3625 H 0.53948 0.42816 0.16244 0.0
H3626 H 0.98073 0.30689 0.36746 0.0
H3627 H 0.9556 0.30795 0.34386 0.0
H3628 H 0.91998 0.275 0.37507 0.0
H3629 H 0.94489 0.27407 0.39874 0.0
H3630 H 0.91005 0.26482 0.33531 0.0
H3631 H 0.92766 0.32076 0.38247 0.0
H3632 H 0.9491 0.34927 0.40063 0.0
H3633 H 0.95765 0.37311 0.35005 0.0
H3634 H 0.93643 0.34459 0.33158 0.0
H3635 H 0.82844 0.28576 0.3112 0.0
H3636 H 0.85607 0.28032 0.32605 0.0
H3637 H 0.88503 0.32688 0.301 0.0
H3638 H 0.85728 0.33325 0.28728 0.0
H3639 H 0.90051 0.32967 0.3338 0.0
H3640 H 0.87979 0.27593 0.28631 0.0
H3641 H 0.85751 0.24802 0.26815 0.0
H3642 H 0.85493 0.21995 0.31735 0.0
H3643 H 0.87701 0.24777 0.33588 0.0
C3644 C 0.96757 0.29955 0.36908 0.0
C3645 C 0.96478 0.29056 0.38505 0.0
C3646 C 0.95324 0.30019 0.35561 0.0
C3647 C 0.93593 0.29164 0.35779 0.0
C3648 C 0.93321 0.28164 0.3731 0.0
C3649 C 0.94748 0.28123 0.38667 0.0
C3650 C 0.92057 0.29477 0.34535 0.0
C3651 C 0.90791 0.27897 0.3349 0.0
C3652 C 0.918 0.31327 0.34454 0.0
C3653 C 0.93064 0.33046 0.35565 0.0
C3654 C 0.93423 0.33201 0.37522 0.0
C3655 C 0.94631 0.34818 0.38557 0.0
C3656 C 0.95478 0.36297 0.3765 0.0
C3657 C 0.95112 0.36163 0.35706 0.0
C3658 C 0.93906 0.34548 0.34664 0.0
C3659 C 0.84071 0.29475 0.30877 0.0
C3660 C 0.84075 0.3099 0.29807 0.0
C3661 C 0.85654 0.29152 0.31713 0.0
C3662 C 0.87277 0.30284 0.31432 0.0
C3663 C 0.87276 0.31787 0.30339 0.0
C3664 C 0.85691 0.32149 0.29551 0.0
C3665 C 0.8897 0.29968 0.32363 0.0
C3666 C 0.90269 0.3155 0.33367 0.0
C3667 C 0.89262 0.28119 0.32381 0.0
C3668 C 0.87998 0.26402 0.31252 0.0
C3669 C 0.87444 0.26383 0.29327 0.0
C3670 C 0.8618 0.24806 0.28293 0.0
C3671 C 0.8547 0.23233 0.29165 0.0
C3672 C 0.86037 0.23222 0.31067 0.0
C3673 C 0.87299 0.24796 0.32108 0.0
H3674 H 0.84501 0.22011 0.28362 0.0
H3675 H 0.96413 0.37547 0.38453 0.0
H3676 H 0.06446 0.74429 0.6394 0.0
H3677 H 0.06095 0.71497 0.61895 0.0
H3678 H 0.03788 0.73915 0.57269 0.0
H3679 H 0.04111 0.76882 0.59339 0.0
H3680 H 0.01938 0.70137 0.57469 0.0
H3681 H 0.07972 0.73572 0.57599 0.0
H3682 H 0.1096 0.7538 0.59166 0.0
H3683 H 0.11562 0.70566 0.61979 0.0
H3684 H 0.08567 0.68738 0.60448 0.0
H3685 H 0.02528 0.62817 0.50602 0.0
H3686 H 0.02778 0.65885 0.52442 0.0
H3687 H 0.05412 0.64011 0.57259 0.0
H3688 H 0.05182 0.60965 0.55406 0.0
H3689 H 0.07097 0.67595 0.56857 0.0
H3690 H 0.01204 0.64228 0.57034 0.0
H3691 H 0.98172 0.6232 0.55752 0.0
H3692 H 0.97265 0.66853 0.52651 0.0
H3693 H 0.00302 0.68779 0.53898 0.0
C3694 C 0.05865 0.7435 0.62487 0.0
C3695 C 0.05303 0.75897 0.61807 0.0
C3696 C 0.05673 0.72668 0.61316 0.0
C3697 C 0.04932 0.72486 0.59422 0.0
C3698 C 0.04367 0.74024 0.58727 0.0
C3699 C 0.04563 0.75722 0.59906 0.0
C3700 C 0.04755 0.70681 0.58191 0.0
C3701 C 0.0307 0.69601 0.573 0.0
C3702 C 0.06223 0.69941 0.5803 0.0
C3703 C 0.08041 0.71022 0.58916 0.0
C3704 C 0.08738 0.72902 0.58558 0.0
C3705 C 0.10433 0.7393 0.59439 0.0
C3706 C 0.11449 0.7309 0.60674 0.0
C3707 C 0.10774 0.71216 0.61023 0.0
C3708 C 0.09079 0.70181 0.60146 0.0
C3709 C 0.03156 0.6306 0.52055 0.0
C3710 C 0.03825 0.61642 0.52871 0.0
C3711 C 0.03291 0.64811 0.53108 0.0
C3712 C 0.04103 0.6518 0.54998 0.0
C3713 C 0.0478 0.63766 0.55807 0.0
C3714 C 0.04637 0.62017 0.54754 0.0
C3715 C 0.0428 0.67053 0.56119 0.0
C3716 C 0.05966 0.68141 0.57 0.0
C3717 C 0.02811 0.67786 0.56293 0.0
C3718 C 0.00986 0.66637 0.5554 0.0
C3719 C 0.00363 0.6481 0.56065 0.0
C3720 C 0.98643 0.63728 0.55348 0.0
C3721 C 0.97528 0.64462 0.54116 0.0
C3722 C 0.98131 0.66285 0.53603 0.0
C3723 C 0.99851 0.67373 0.54315 0.0
H3724 H 0.96196 0.63622 0.53562 0.0
H3725 H 0.12759 0.73891 0.61359 0.0
H3726 H 0.57967 0.81728 0.89989 0.0
H3727 H 0.6051 0.81651 0.88506 0.0
H3728 H 0.57307 0.769 0.84533 0.0
H3729 H 0.54779 0.76945 0.86026 0.0
H3730 H 0.60297 0.76182 0.85802 0.0
H3731 H 0.5866 0.81547 0.83373 0.0
H3732 H 0.57965 0.84675 0.8352 0.0
H3733 H 0.63133 0.87361 0.8666 0.0
H3734 H 0.63851 0.84243 0.86553 0.0
H3735 H 0.66222 0.76021 0.79541 0.0
H3736 H 0.63663 0.76455 0.80832 0.0
H3737 H 0.67059 0.80886 0.85015 0.0
H3738 H 0.6962 0.80476 0.83714 0.0
H3739 H 0.64014 0.81819 0.83652 0.0
H3740 H 0.65618 0.76436 0.86098 0.0
H3741 H 0.66312 0.73308 0.85916 0.0
H3742 H 0.61169 0.70659 0.827 0.0
H3743 H 0.60452 0.73778 0.82841 0.0
C3744 C 0.57801 0.80675 0.88792 0.0
C3745 C 0.56164 0.79342 0.88131 0.0
C3746 C 0.59257 0.80637 0.87938 0.0
C3747 C 0.59105 0.79278 0.86392 0.0
C3748 C 0.57466 0.77961 0.85723 0.0
C3749 C 0.56016 0.77992 0.86578 0.0
C3750 C 0.60659 0.79172 0.8551 0.0
C3751 C 0.6109 0.77412 0.85309 0.0
C3752 C 0.61732 0.80782 0.84903 0.0
C3753 C 0.61302 0.82658 0.84973 0.0
C3754 C 0.59643 0.82802 0.84109 0.0
C3755 C 0.59246 0.84574 0.84182 0.0
C3756 C 0.60502 0.86215 0.85104 0.0
C3757 C 0.6216 0.86088 0.8595 0.0
C3758 C 0.62563 0.84319 0.85882 0.0
C3759 C 0.66422 0.77106 0.8072 0.0
C3760 C 0.68129 0.782 0.81535 0.0
C3761 C 0.64958 0.77344 0.81465 0.0
C3762 C 0.65168 0.78683 0.83041 0.0
C3763 C 0.66862 0.79835 0.83808 0.0
C3764 C 0.68327 0.79589 0.83071 0.0
C3765 C 0.63632 0.78828 0.83932 0.0
C3766 C 0.63211 0.80593 0.84142 0.0
C3767 C 0.62563 0.77222 0.84544 0.0
C3768 C 0.62988 0.75344 0.84464 0.0
C3769 C 0.6464 0.75189 0.8534 0.0
C3770 C 0.65037 0.73417 0.85246 0.0
C3771 C 0.63788 0.71787 0.84292 0.0
C3772 C 0.62137 0.71924 0.83435 0.0
C3773 C 0.61734 0.73693 0.83523 0.0
H3774 H 0.64097 0.70416 0.84221 0.0
H3775 H 0.60192 0.87586 0.85158 0.0
H3776 H 0.41388 0.53142 0.63031 0.0
H3777 H 0.43516 0.54888 0.6131 0.0
H3778 H 0.44627 0.59882 0.65367 0.0
H3779 H 0.42464 0.58149 0.67088 0.0
H3780 H 0.45123 0.60484 0.61296 0.0
H3781 H 0.4705 0.57588 0.6661 0.0
H3782 H 0.46743 0.55041 0.68654 0.0
H3783 H 0.46969 0.50993 0.64133 0.0
H3784 H 0.4724 0.5351 0.62051 0.0
H3785 H 0.53644 0.61427 0.57925 0.0
H3786 H 0.51542 0.61813 0.59997 0.0
H3787 H 0.48678 0.55903 0.58321 0.0
H3788 H 0.50776 0.55496 0.56362 0.0
H3789 H 0.49612 0.56792 0.62085 0.0
H3790 H 0.47236 0.59818 0.56712 0.0
H3791 H 0.47396 0.62458 0.54789 0.0
H3792 H 0.48179 0.66476 0.59681 0.0
H3793 H 0.48046 0.63863 0.61643 0.0
C3794 C 0.42027 0.54636 0.63514 0.0
C3795 C 0.41793 0.55498 0.65211 0.0
C3796 C 0.43237 0.55635 0.62526 0.0
C3797 C 0.44247 0.57495 0.63239 0.0
C3798 C 0.43857 0.58445 0.64802 0.0
C3799 C 0.42624 0.5745 0.65783 0.0
C3800 C 0.45928 0.58218 0.62601 0.0
C3801 C 0.46126 0.59707 0.61491 0.0
C3802 C 0.47257 0.57241 0.62911 0.0
C3803 C 0.47157 0.55736 0.64174 0.0
C3804 C 0.47026 0.56153 0.6605 0.0
C3805 C 0.46857 0.54714 0.67215 0.0
C3806 C 0.46835 0.52856 0.66524 0.0
C3807 C 0.46987 0.52434 0.64667 0.0
C3808 C 0.4715 0.53866 0.63494 0.0
C3809 C 0.52558 0.60222 0.58003 0.0
C3810 C 0.52368 0.58433 0.56979 0.0
C3811 C 0.51356 0.60446 0.59173 0.0
C3812 C 0.49956 0.58884 0.59312 0.0
C3813 C 0.4975 0.57126 0.58241 0.0
C3814 C 0.50947 0.56899 0.57107 0.0
C3815 C 0.48748 0.5896 0.60648 0.0
C3816 C 0.48645 0.57619 0.61925 0.0
C3817 C 0.47535 0.60098 0.60511 0.0
C3818 C 0.47657 0.61653 0.59323 0.0
C3819 C 0.47462 0.61267 0.57379 0.0
C3820 C 0.4754 0.62758 0.56281 0.0
C3821 C 0.47799 0.64634 0.57109 0.0
C3822 C 0.47984 0.65025 0.59041 0.0
C3823 C 0.47907 0.63541 0.60146 0.0
H3824 H 0.47851 0.65786 0.56258 0.0
H3825 H 0.46702 0.51744 0.67427 0.0
H3826 H 0.793 0.27493 0.98053 0.0
H3827 H 0.79534 0.28445 0.94965 0.0
H3828 H 0.79266 0.22638 0.92851 0.0
H3829 H 0.79111 0.21695 0.95984 0.0
H3830 H 0.81324 0.25031 0.91061 0.0
H3831 H 0.75551 0.24342 0.92385 0.0
H3832 H 0.73285 0.2482 0.94189 0.0
H3833 H 0.74797 0.30852 0.93843 0.0
H3834 H 0.77091 0.30414 0.92059 0.0
H3835 H 0.77439 0.2649 0.81681 0.0
H3836 H 0.77653 0.25307 0.84737 0.0
H3837 H 0.80178 0.31038 0.87419 0.0
H3838 H 0.80023 0.32222 0.84375 0.0
H3839 H 0.76884 0.28447 0.88767 0.0
H3840 H 0.8279 0.28951 0.87442 0.0
H3841 H 0.84842 0.2824 0.85449 0.0
H3842 H 0.82777 0.22225 0.85575 0.0
H3843 H 0.80688 0.22899 0.87542 0.0
C3844 C 0.7933 0.26426 0.9694 0.0
C3845 C 0.79172 0.24516 0.97256 0.0
C3846 C 0.79451 0.26969 0.95169 0.0
C3847 C 0.7936 0.25603 0.93654 0.0
C3848 C 0.79323 0.23717 0.93991 0.0
C3849 C 0.79238 0.23179 0.95782 0.0
C3850 C 0.79178 0.26133 0.91718 0.0
C3851 C 0.8034 0.25759 0.90557 0.0
C3852 C 0.77888 0.27077 0.91039 0.0
C3853 C 0.76503 0.27347 0.92102 0.0
C3854 C 0.75408 0.25772 0.92704 0.0
C3855 C 0.74118 0.26036 0.93722 0.0
C3856 C 0.739 0.27866 0.94134 0.0
C3857 C 0.74969 0.29435 0.93525 0.0
C3858 C 0.76263 0.2918 0.92509 0.0
C3859 C 0.78032 0.27498 0.82923 0.0
C3860 C 0.78708 0.29451 0.8279 0.0
C3861 C 0.78163 0.26819 0.84663 0.0
C3862 C 0.7894 0.28086 0.86297 0.0
C3863 C 0.79581 0.30039 0.86171 0.0
C3864 C 0.7949 0.30711 0.84433 0.0
C3865 C 0.79054 0.27388 0.88148 0.0
C3866 C 0.77866 0.27719 0.89281 0.0
C3867 C 0.80294 0.26377 0.8878 0.0
C3868 C 0.81566 0.25974 0.87619 0.0
C3869 C 0.82759 0.27476 0.87028 0.0
C3870 C 0.83932 0.27081 0.85906 0.0
C3871 C 0.83936 0.25189 0.8538 0.0
C3872 C 0.8277 0.2369 0.8598 0.0
C3873 C 0.81592 0.24077 0.87099 0.0
H3874 H 0.84846 0.24887 0.84513 0.0
H3875 H 0.729 0.28067 0.94922 0.0
H3876 H 0.11398 0.47062 0.17574 0.0
H3877 H 0.10736 0.47819 0.14378 0.0
H3878 H 0.05233 0.46684 0.14739 0.0
H3879 H 0.05885 0.45956 0.17922 0.0
H3880 H 0.07964 0.46376 0.10689 0.0
H3881 H 0.04516 0.51042 0.14645 0.0
H3882 H 0.04635 0.52417 0.17879 0.0
H3883 H 0.1015 0.52722 0.19166 0.0
H3884 H 0.10069 0.51387 0.15932 0.0
H3885 H 0.02236 0.50293 0.0472 0.0
H3886 H 0.0373 0.48713 0.07038 0.0
H3887 H 0.07531 0.5409 0.09186 0.0
H3888 H 0.06012 0.55684 0.06901 0.0
H3889 H 0.06274 0.52445 0.11906 0.0
H3890 H 0.08695 0.50499 0.06797 0.0
H3891 H 0.08673 0.49171 0.03576 0.0
H3892 H 0.05626 0.43703 0.04518 0.0
H3893 H 0.05594 0.45004 0.07732 0.0
C3894 C 0.10037 0.46878 0.16935 0.0
C3895 C 0.08694 0.46479 0.17999 0.0
C3896 C 0.09662 0.4731 0.15108 0.0
C3897 C 0.0794 0.47333 0.14339 0.0
C3898 C 0.0657 0.46681 0.15314 0.0
C3899 C 0.06945 0.46269 0.17134 0.0
C3900 C 0.07619 0.48447 0.1278 0.0
C3901 C 0.07603 0.47707 0.10943 0.0
C3902 C 0.07204 0.50213 0.13129 0.0
C3903 C 0.07281 0.51099 0.15053 0.0
C3904 C 0.05756 0.51417 0.15616 0.0
C3905 C 0.05816 0.52188 0.17449 0.0
C3906 C 0.07398 0.52651 0.18729 0.0
C3907 C 0.08925 0.52358 0.18175 0.0
C3908 C 0.08872 0.51594 0.16343 0.0
C3909 C 0.03394 0.51135 0.05684 0.0
C3910 C 0.04005 0.53111 0.05642 0.0
C3911 C 0.04258 0.50227 0.06993 0.0
C3912 C 0.05755 0.51279 0.08273 0.0
C3913 C 0.06383 0.53249 0.08208 0.0
C3914 C 0.05516 0.54158 0.06903 0.0
C3915 C 0.06562 0.50357 0.09785 0.0
C3916 C 0.06664 0.51133 0.1163 0.0
C3917 C 0.07095 0.48655 0.09432 0.0
C3918 C 0.07134 0.47854 0.07507 0.0
C3919 C 0.08009 0.49017 0.06315 0.0
C3920 C 0.08008 0.48269 0.0449 0.0
C3921 C 0.0715 0.46355 0.03845 0.0
C3922 C 0.06291 0.45185 0.05022 0.0
C3923 C 0.06284 0.45927 0.06846 0.0
H3924 H 0.07151 0.45778 0.02435 0.0
H3925 H 0.0744 0.53241 0.20149 0.0
H3926 H 0.77512 0.90471 0.48286 0.0
H3927 H 0.77082 0.89521 0.44914 0.0
H3928 H 0.79553 0.84953 0.45918 0.0
H3929 H 0.79949 0.85859 0.49263 0.0
H3930 H 0.79444 0.89554 0.42753 0.0
H3931 H 0.78061 0.81278 0.42486 0.0
H3932 H 0.76516 0.78698 0.44086 0.0
H3933 H 0.73191 0.8217 0.45669 0.0
H3934 H 0.74697 0.84758 0.44055 0.0
H3935 H 0.81525 0.85464 0.34477 0.0
H3936 H 0.81289 0.86486 0.37682 0.0
H3937 H 0.7572 0.83728 0.36477 0.0
H3938 H 0.75954 0.82664 0.33299 0.0
H3939 H 0.77007 0.82893 0.39637 0.0
H3940 H 0.77399 0.88717 0.36985 0.0
H3941 H 0.7865 0.9135 0.35272 0.0
H3942 H 0.83418 0.92891 0.39346 0.0
H3943 H 0.82204 0.9025 0.4107 0.0
C3944 C 0.77928 0.89239 0.47789 0.0
C3945 C 0.78762 0.88242 0.49053 0.0
C3946 C 0.77695 0.88706 0.45858 0.0
C3947 C 0.78277 0.87158 0.45152 0.0
C3948 C 0.79065 0.86132 0.46416 0.0
C3949 C 0.79295 0.86659 0.48338 0.0
C3950 C 0.78157 0.86667 0.43104 0.0
C3951 C 0.78902 0.88098 0.42071 0.0
C3952 C 0.77425 0.84775 0.42195 0.0
C3953 C 0.76504 0.8322 0.43162 0.0
C3954 C 0.76995 0.81488 0.43169 0.0
C3955 C 0.76127 0.80025 0.44079 0.0
C3956 C 0.7476 0.80273 0.44984 0.0
C3957 C 0.74255 0.81983 0.44974 0.0
C3958 C 0.75117 0.8345 0.44064 0.0
C3959 C 0.80248 0.85087 0.34891 0.0
C3960 C 0.78761 0.83979 0.33626 0.0
C3961 C 0.80112 0.85679 0.36725 0.0
C3962 C 0.78482 0.85201 0.37327 0.0
C3963 C 0.76994 0.84113 0.36057 0.0
C3964 C 0.77132 0.83508 0.34233 0.0
C3965 C 0.7833 0.85771 0.39294 0.0
C3966 C 0.77538 0.84351 0.40314 0.0
C3967 C 0.78982 0.87681 0.40176 0.0
C3968 C 0.79715 0.89275 0.39148 0.0
C3969 C 0.78719 0.89609 0.37508 0.0
C3970 C 0.79421 0.91104 0.36537 0.0
C3971 C 0.81114 0.92284 0.37198 0.0
C3972 C 0.82107 0.91975 0.38835 0.0
C3973 C 0.81412 0.9048 0.39811 0.0
H3974 H 0.81655 0.93441 0.36443 0.0
H3975 H 0.7409 0.79138 0.45688 0.0
H3976 H 0.43355 0.55603 0.75445 0.0
H3977 H 0.45281 0.55726 0.78407 0.0
H3978 H 0.47023 0.50993 0.76131 0.0
H3979 H 0.45079 0.50842 0.7316 0.0
H3980 H 0.45941 0.50342 0.79329 0.0
H3981 H 0.49875 0.5542 0.7727 0.0
H3982 H 0.50825 0.58419 0.75927 0.0
H3983 H 0.49403 0.61537 0.80433 0.0
H3984 H 0.48418 0.58551 0.8179 0.0
H3985 H 0.51295 0.50835 0.88179 0.0
H3986 H 0.50608 0.51028 0.84828 0.0
H3987 H 0.47958 0.55403 0.85948 0.0
H3988 H 0.48654 0.5523 0.89295 0.0
H3989 H 0.50001 0.56136 0.8316 0.0
H3990 H 0.45608 0.5096 0.84841 0.0
H3991 H 0.44613 0.47954 0.86164 0.0
H3992 H 0.46926 0.45029 0.82294 0.0
H3993 H 0.47958 0.48027 0.80966 0.0
C3994 C 0.44166 0.54605 0.75562 0.0
C3995 C 0.4405 0.53201 0.74071 0.0
C3996 C 0.45277 0.54687 0.77254 0.0
C3997 C 0.46304 0.53377 0.77485 0.0
C3998 C 0.46243 0.52019 0.75979 0.0
C3999 C 0.45131 0.51936 0.74283 0.0
C4000 C 0.4729 0.53305 0.79355 0.0
C4001 C 0.46865 0.51597 0.80148 0.0
C4002 C 0.4847 0.54952 0.80434 0.0
C4003 C 0.49061 0.56756 0.79626 0.0
C4004 C 0.49751 0.56742 0.77967 0.0
C4005 C 0.50299 0.58441 0.77205 0.0
C4006 C 0.50172 0.60167 0.78092 0.0
C4007 C 0.495 0.60198 0.79746 0.0
C4008 C 0.48949 0.58503 0.80515 0.0
C4009 C 0.5059 0.51857 0.87709 0.0
C4010 C 0.50011 0.53005 0.8899 0.0
C4011 C 0.50196 0.51962 0.85799 0.0
C4012 C 0.49224 0.53221 0.85147 0.0
C4013 C 0.48711 0.54424 0.86428 0.0
C4014 C 0.49093 0.54311 0.88334 0.0
C4015 C 0.4862 0.53189 0.83129 0.0
C4016 C 0.49111 0.54875 0.82316 0.0
C4017 C 0.47501 0.51523 0.82026 0.0
C4018 C 0.4688 0.49721 0.82822 0.0
C4019 C 0.45918 0.49679 0.84284 0.0
C4020 C 0.45345 0.47977 0.85033 0.0
C4021 C 0.45711 0.46303 0.84318 0.0
C4022 C 0.46648 0.46327 0.8285 0.0
C4023 C 0.47227 0.48027 0.82098 0.0
H4024 H 0.45266 0.44986 0.84898 0.0
H4025 H 0.50597 0.61481 0.775 0.0
H4026 H 0.79346 0.27662 0.0723 0.0
H4027 H 0.79886 0.28723 0.10578 0.0
H4028 H 0.80092 0.23054 0.11727 0.0
H4029 H 0.79591 0.21988 0.08357 0.0
H4030 H 0.77666 0.24771 0.13572 0.0
H4031 H 0.83703 0.2613 0.12837 0.0
H4032 H 0.86245 0.2745 0.11363 0.0
H4033 H 0.85628 0.3311 0.12537 0.0
H4034 H 0.83065 0.31822 0.13995 0.0
H4035 H 0.79411 0.28368 0.2332 0.0
H4036 H 0.79501 0.26658 0.20309 0.0
H4037 H 0.80817 0.3204 0.18083 0.0
H4038 H 0.80803 0.33738 0.21095 0.0
H4039 H 0.82714 0.30007 0.16932 0.0
H4040 H 0.7651 0.28749 0.17166 0.0
H4041 H 0.73851 0.27581 0.18516 0.0
H4042 H 0.74628 0.2193 0.18148 0.0
H4043 H 0.77305 0.23071 0.16816 0.0
C4044 C 0.79539 0.26648 0.08194 0.0
C4045 C 0.79433 0.24743 0.0753 0.0
C4046 C 0.79846 0.27256 0.10107 0.0
C4047 C 0.80025 0.25967 0.11401 0.0
C4048 C 0.79957 0.24071 0.1075 0.0
C4049 C 0.79686 0.23469 0.08828 0.0
C4050 C 0.80198 0.26605 0.13422 0.0
C4051 C 0.78787 0.25886 0.14325 0.0
C4052 C 0.81637 0.28094 0.14384 0.0
C4053 C 0.83183 0.28876 0.13515 0.0
C4054 C 0.841 0.27655 0.12768 0.0
C4055 C 0.85547 0.28398 0.11938 0.0
C4056 C 0.86096 0.30362 0.11853 0.0
C4057 C 0.85201 0.31589 0.12603 0.0
C4058 C 0.83752 0.30853 0.13434 0.0
C4059 C 0.79715 0.29178 0.22182 0.0
C4060 C 0.80092 0.31184 0.22437 0.0
C4061 C 0.79762 0.28201 0.20459 0.0
C4062 C 0.80148 0.29213 0.18949 0.0
C4063 C 0.80525 0.31219 0.19218 0.0
C4064 C 0.80508 0.32191 0.20941 0.0
C4065 C 0.80157 0.28214 0.1708 0.0
C4066 C 0.81603 0.28868 0.16199 0.0
C4067 C 0.78733 0.2669 0.16127 0.0
C4068 C 0.77117 0.25999 0.16912 0.0
C4069 C 0.76119 0.2726 0.17384 0.0
C4070 C 0.74608 0.26603 0.18145 0.0
C4071 C 0.74074 0.24684 0.18423 0.0
C4072 C 0.75046 0.23416 0.17935 0.0
C4073 C 0.76559 0.24067 0.17176 0.0
H4074 H 0.72904 0.24178 0.19013 0.0
H4075 H 0.87217 0.30935 0.1121 0.0
H4076 H 0.10914 0.45972 0.29551 0.0
H4077 H 0.09949 0.45632 0.32545 0.0
H4078 H 0.04528 0.43944 0.29723 0.0
H4079 H 0.05496 0.44402 0.26744 0.0
H4080 H 0.04933 0.46832 0.32029 0.0
H4081 H 0.06545 0.41011 0.32578 0.0
H4082 H 0.08406 0.38757 0.32527 0.0
H4083 H 0.12243 0.42406 0.36959 0.0
H4084 H 0.10418 0.44698 0.3702 0.0
H4085 H 0.0183 0.47434 0.40354 0.0
H4086 H 0.02558 0.45588 0.37779 0.0
H4087 H 0.08045 0.48563 0.39496 0.0
H4088 H 0.07328 0.50438 0.42058 0.0
H4089 H 0.07339 0.44531 0.37807 0.0
H4090 H 0.05886 0.50547 0.36708 0.0
H4091 H 0.03965 0.52739 0.36784 0.0
H4092 H 0.99719 0.48486 0.33286 0.0
H4093 H 0.01609 0.46256 0.33218 0.0
C4094 C 0.0952 0.45458 0.29568 0.0
C4095 C 0.08275 0.4523 0.27927 0.0
C4096 C 0.08966 0.45256 0.31282 0.0
C4097 C 0.0716 0.44773 0.3137 0.0
C4098 C 0.05926 0.44338 0.29698 0.0
C4099 C 0.06478 0.4459 0.27995 0.0
C4100 C 0.06564 0.45079 0.33176 0.0
C4101 C 0.05426 0.46274 0.33273 0.0
C4102 C 0.0724 0.44408 0.34825 0.0
C4103 C 0.08348 0.43035 0.34794 0.0
C4104 C 0.07792 0.41342 0.33532 0.0
C4105 C 0.0884 0.40055 0.33503 0.0
C4106 C 0.10443 0.40439 0.34737 0.0
C4107 C 0.11001 0.4211 0.36004 0.0
C4108 C 0.09959 0.43403 0.36038 0.0
C4109 C 0.03196 0.47671 0.40205 0.0
C4110 C 0.04517 0.49113 0.41384 0.0
C4111 C 0.03611 0.466 0.38747 0.0
C4112 C 0.05352 0.46954 0.38441 0.0
C4113 C 0.06695 0.48262 0.39718 0.0
C4114 C 0.06281 0.49338 0.41178 0.0
C4115 C 0.05717 0.46257 0.36622 0.0
C4116 C 0.06821 0.45026 0.36536 0.0
C4117 C 0.05004 0.46876 0.34967 0.0
C4118 C 0.0388 0.48229 0.34976 0.0
C4119 C 0.04539 0.50076 0.35966 0.0
C4120 C 0.03456 0.51325 0.36007 0.0
C4121 C 0.01719 0.5075 0.35045 0.0
C4122 C 0.01063 0.48928 0.34034 0.0
C4123 C 0.02139 0.47671 0.33994 0.0
H4124 H 0.00883 0.51719 0.35078 0.0
H4125 H 0.11252 0.39441 0.34712 0.0
H4126 H 0.81954 0.88817 0.60495 0.0
H4127 H 0.8134 0.87489 0.63336 0.0
H4128 H 0.75847 0.87289 0.61732 0.0
H4129 H 0.76485 0.88723 0.58893 0.0
H4130 H 0.7675 0.88105 0.65398 0.0
H4131 H 0.77428 0.83223 0.61062 0.0
H4132 H 0.78814 0.817 0.58781 0.0
H4133 H 0.83353 0.8221 0.62994 0.0
H4134 H 0.82006 0.83761 0.65295 0.0
H4135 H 0.74515 0.80835 0.7155 0.0
H4136 H 0.7475 0.82521 0.68787 0.0
H4137 H 0.80396 0.84296 0.70462 0.0
H4138 H 0.80161 0.82641 0.73237 0.0
H4139 H 0.79124 0.8254 0.66659 0.0
H4140 H 0.78212 0.87425 0.71015 0.0
H4141 H 0.76596 0.88756 0.73182 0.0
H4142 H 0.72166 0.87956 0.68761 0.0
H4143 H 0.73738 0.86579 0.66574 0.0
C4144 C 0.80614 0.88509 0.60751 0.0
C4145 C 0.79264 0.88854 0.59455 0.0
C4146 C 0.80261 0.87736 0.62377 0.0
C4147 C 0.78535 0.87221 0.62733 0.0
C4148 C 0.77188 0.87651 0.61486 0.0
C4149 C 0.77552 0.88471 0.59864 0.0
C4150 C 0.7816 0.86178 0.64369 0.0
C4151 C 0.77245 0.8687 0.65656 0.0
C4152 C 0.78805 0.84562 0.64724 0.0
C4153 C 0.7962 0.83622 0.63347 0.0
C4154 C 0.78727 0.83022 0.61499 0.0
C4155 C 0.79505 0.82152 0.60203 0.0
C4156 C 0.81172 0.81862 0.60742 0.0
C4157 C 0.82063 0.82437 0.62579 0.0
C4158 C 0.81291 0.8331 0.6388 0.0
C4159 C 0.75805 0.81593 0.71331 0.0
C4160 C 0.77321 0.81614 0.72613 0.0
C4161 C 0.75936 0.82563 0.69758 0.0
C4162 C 0.7759 0.83548 0.69422 0.0
C4163 C 0.79106 0.83557 0.70696 0.0
C4164 C 0.78971 0.82617 0.72285 0.0
C4165 C 0.77754 0.84493 0.67701 0.0
C4166 C 0.78623 0.83771 0.66394 0.0
C4167 C 0.77031 0.86048 0.67315 0.0
C4168 C 0.76086 0.86873 0.68634 0.0
C4169 C 0.76885 0.8751 0.70508 0.0
C4170 C 0.75979 0.88277 0.7174 0.0
C4171 C 0.74278 0.88433 0.71109 0.0
C4172 C 0.73482 0.87828 0.69247 0.0
C4173 C 0.7438 0.87053 0.68011 0.0
H4174 H 0.73577 0.89025 0.72061 0.0
H4175 H 0.81772 0.81188 0.59736 0.0
H4176 H 0.76995 0.48865 0.51071 0.0
H4177 H 0.7462 0.50379 0.5142 0.0
H4178 H 0.72333 0.45911 0.54512 0.0
H4179 H 0.74698 0.44373 0.54152 0.0
H4180 H 0.69836 0.46685 0.51984 0.0
H4181 H 0.74608 0.50379 0.56722 0.0
H4182 H 0.77635 0.52327 0.57965 0.0
H4183 H 0.76907 0.5652 0.54332 0.0
H4184 H 0.73883 0.54583 0.5305 0.0
H4185 H 0.63753 0.51336 0.55218 0.0
H4186 H 0.66111 0.4976 0.54992 0.0
H4187 H 0.68753 0.54345 0.52235 0.0
H4188 H 0.66435 0.55963 0.52523 0.0
H4189 H 0.71074 0.53473 0.54683 0.0
H4190 H 0.66593 0.49658 0.49613 0.0
H4191 H 0.63655 0.47651 0.48097 0.0
H4192 H 0.63847 0.43799 0.52217 0.0
H4193 H 0.66811 0.45756 0.53724 0.0
C4194 C 0.7599 0.48202 0.51829 0.0
C4195 C 0.76045 0.46497 0.52588 0.0
C4196 C 0.74634 0.49076 0.52035 0.0
C4197 C 0.73304 0.48275 0.53014 0.0
C4198 C 0.73344 0.46561 0.53755 0.0
C4199 C 0.74701 0.45685 0.53551 0.0
C4200 C 0.71863 0.49213 0.53242 0.0
C4201 C 0.70109 0.48161 0.52602 0.0
C4202 C 0.7221 0.51155 0.54001 0.0
C4203 C 0.74024 0.52328 0.54779 0.0
C4204 C 0.75098 0.5171 0.56179 0.0
C4205 C 0.76812 0.52813 0.56892 0.0
C4206 C 0.77464 0.54544 0.56225 0.0
C4207 C 0.76401 0.55178 0.54847 0.0
C4208 C 0.74686 0.54079 0.54128 0.0
C4209 C 0.64845 0.52021 0.54582 0.0
C4210 C 0.64899 0.53779 0.53887 0.0
C4211 C 0.66183 0.51102 0.54427 0.0
C4212 C 0.67604 0.51912 0.53567 0.0
C4213 C 0.67672 0.5368 0.52897 0.0
C4214 C 0.66338 0.54602 0.53054 0.0
C4215 C 0.69045 0.5095 0.53412 0.0
C4216 C 0.70801 0.51996 0.5407 0.0
C4217 C 0.68703 0.49009 0.52655 0.0
C4218 C 0.66909 0.4786 0.51789 0.0
C4219 C 0.66003 0.48387 0.50199 0.0
C4220 C 0.64341 0.47253 0.49335 0.0
C4221 C 0.63559 0.45608 0.50069 0.0
C4222 C 0.64451 0.45078 0.51654 0.0
C4223 C 0.66127 0.4619 0.52505 0.0
H4224 H 0.62265 0.44741 0.49406 0.0
H4225 H 0.78792 0.55396 0.56778 0.0
H4226 H 0.19988 0.18819 0.50684 0.0
H4227 H 0.17432 0.16299 0.50942 0.0
H4228 H 0.20459 0.12144 0.50709 0.0
H4229 H 0.23078 0.14695 0.50475 0.0
H4230 H 0.16767 0.11094 0.48378 0.0
H4231 H 0.19842 0.13176 0.5466 0.0
H4232 H 0.21445 0.15569 0.57343 0.0
H4233 H 0.16917 0.17784 0.57347 0.0
H4234 H 0.15295 0.15423 0.54645 0.0
H4235 H 0.09352 0.04546 0.50757 0.0
H4236 H 0.12394 0.06299 0.50711 0.0
H4237 H 0.11192 0.11599 0.52384 0.0
H4238 H 0.08176 0.09849 0.52484 0.0
H4239 H 0.14291 0.1166 0.54161 0.0
H4240 H 0.11377 0.10022 0.47728 0.0
H4241 H 0.09718 0.07834 0.4492 0.0
H4242 H 0.1385 0.04971 0.45078 0.0
H4243 H 0.15523 0.07128 0.47903 0.0
C4244 C 0.20125 0.17372 0.50673 0.0
C4245 C 0.21753 0.16969 0.50568 0.0
C4246 C 0.18653 0.1593 0.50824 0.0
C4247 C 0.18757 0.14039 0.50863 0.0
C4248 C 0.20354 0.136 0.50687 0.0
C4249 C 0.21848 0.15057 0.50554 0.0
C4250 C 0.17189 0.12568 0.5115 0.0
C4251 C 0.16244 0.11181 0.49658 0.0
C4252 C 0.16486 0.12717 0.52803 0.0
C4253 C 0.17451 0.14128 0.54442 0.0
C4254 C 0.19192 0.14182 0.55224 0.0
C4255 C 0.20104 0.15531 0.5675 0.0
C4256 C 0.19284 0.16829 0.57513 0.0
C4257 C 0.1755 0.16777 0.56754 0.0
C4258 C 0.16633 0.15432 0.55227 0.0
C4259 C 0.09744 0.06083 0.51129 0.0
C4260 C 0.08522 0.07061 0.51613 0.0
C4261 C 0.11481 0.07087 0.51091 0.0
C4262 C 0.12024 0.09091 0.51514 0.0
C4263 C 0.10813 0.10057 0.52049 0.0
C4264 C 0.09084 0.09054 0.52102 0.0
C4265 C 0.13835 0.10202 0.51372 0.0
C4266 C 0.14825 0.11534 0.52893 0.0
C4267 C 0.14566 0.10014 0.49736 0.0
C4268 C 0.13564 0.0872 0.48039 0.0
C4269 C 0.11925 0.08916 0.47172 0.0
C4270 C 0.10983 0.07684 0.45576 0.0
C4271 C 0.11675 0.0626 0.44825 0.0
C4272 C 0.13313 0.06071 0.45665 0.0
C4273 C 0.14259 0.07298 0.47262 0.0
H4274 H 0.10945 0.05308 0.43589 0.0
H4275 H 0.19992 0.17873 0.58694 0.0
H4276 H 0.22746 0.07242 0.83487 0.0
H4277 H 0.24393 0.04881 0.8295 0.0
H4278 H 0.19948 0.00367 0.83607 0.0
H4279 H 0.18322 0.02732 0.84221 0.0
H4280 H 0.22804 0.9956 0.85071 0.0
H4281 H 0.20788 0.01445 0.79239 0.0
H4282 H 0.20329 0.03678 0.7697 0.0
H4283 H 0.25918 0.05711 0.77304 0.0
H4284 H 0.26412 0.03508 0.79598 0.0
H4285 H 0.25459 0.92138 0.80104 0.0
H4286 H 0.23801 0.94441 0.80842 0.0
H4287 H 0.28535 0.99042 0.81599 0.0
H4288 H 0.3022 0.96751 0.80934 0.0
H4289 H 0.25448 0.99695 0.7935 0.0
H4290 H 0.27276 0.97498 0.85226 0.0
H4291 H 0.27463 0.94951 0.87201 0.0
H4292 H 0.21823 0.93188 0.86499 0.0
H4293 H 0.21601 0.95687 0.8446 0.0
C4294 C 0.22129 0.05749 0.83542 0.0
C4295 C 0.20401 0.05169 0.83881 0.0
C4296 C 0.23067 0.04399 0.83223 0.0
C4297 C 0.22278 0.02441 0.8319 0.0
C4298 C 0.20582 0.01868 0.83615 0.0
C4299 C 0.19653 0.03222 0.83966 0.0
C4300 C 0.23197 0.00989 0.82645 0.0
C4301 C 0.23364 0.9958 0.83809 0.0
C4302 C 0.23927 0.01007 0.80995 0.0
C4303 C 0.23638 0.02325 0.79605 0.0
C4304 C 0.2192 0.02378 0.78839 0.0
C4305 C 0.21653 0.03636 0.77547 0.0
C4306 C 0.23094 0.04839 0.76997 0.0
C4307 C 0.24804 0.0478 0.77734 0.0
C4308 C 0.25078 0.03526 0.79029 0.0
C4309 C 0.26155 0.93636 0.8045 0.0
C4310 C 0.27978 0.94257 0.80473 0.0
C4311 C 0.25201 0.9495 0.80855 0.0
C4312 C 0.26051 0.96905 0.81279 0.0
C4313 C 0.27858 0.97537 0.81266 0.0
C4314 C 0.28816 0.96225 0.8088 0.0
C4315 C 0.25069 0.98295 0.81787 0.0
C4316 C 0.24887 0.99685 0.80611 0.0
C4317 C 0.24285 0.98227 0.83397 0.0
C4318 C 0.24422 0.96768 0.84674 0.0
C4319 C 0.26075 0.96558 0.85479 0.0
C4320 C 0.26187 0.95122 0.86612 0.0
C4321 C 0.24655 0.93907 0.86977 0.0
C4322 C 0.23008 0.94129 0.86212 0.0
C4323 C 0.22888 0.95553 0.85065 0.0
H4324 H 0.24742 0.92795 0.87853 0.0
H4325 H 0.22885 0.05813 0.75998 0.0
H4326 H 0.36422 0.95501 0.06368 0.0
H4327 H 0.39102 0.98022 0.06402 0.0
H4328 H 0.36399 0.00261 0.01895 0.0
H4329 H 0.33685 0.97758 0.01891 0.0
H4330 H 0.39569 0.99139 0.01264 0.0
H4331 H 0.37656 0.03021 0.05695 0.0
H4332 H 0.36533 0.03748 0.08554 0.0
H4333 H 0.41091 0.02786 0.11894 0.0
H4334 H 0.42229 0.02022 0.09053 0.0
H4335 H 0.47565 0.05551 0.00658 0.0
H4336 H 0.44474 0.04398 0.0093 0.0
H4337 H 0.46049 0.02922 0.0641 0.0
H4338 H 0.49144 0.04179 0.06182 0.0
H4339 H 0.43226 0.04017 0.06419 0.0
H4340 H 0.44895 0.99597 0.02256 0.0
H4341 H 0.46079 0.98566 0.99535 0.0
H4342 H 0.42058 0.0014 0.95865 0.0
H4343 H 0.40864 0.01205 0.98568 0.0
C4344 C 0.36385 0.96563 0.05419 0.0
C4345 C 0.34849 0.96437 0.04126 0.0
C4346 C 0.37916 0.98004 0.05443 0.0
C4347 C 0.37948 0.99327 0.04152 0.0
C4348 C 0.36395 0.99257 0.02909 0.0
C4349 C 0.34846 0.97836 0.02913 0.0
C4350 C 0.39657 0.00612 0.03966 0.0
C4351 C 0.40353 0.00242 0.02369 0.0
C4352 C 0.40702 0.01991 0.05444 0.0
C4353 C 0.40022 0.0245 0.07157 0.0
C4354 C 0.38412 0.02947 0.07037 0.0
C4355 C 0.37774 0.03369 0.08656 0.0
C4356 C 0.38738 0.03309 0.10404 0.0
C4357 C 0.40344 0.02831 0.10538 0.0
C4358 C 0.40988 0.02405 0.08924 0.0
C4359 C 0.4725 0.05006 0.01931 0.0
C4360 C 0.48594 0.04934 0.0339 0.0
C4361 C 0.45482 0.04337 0.02083 0.0
C4362 C 0.4502 0.03518 0.03668 0.0
C4363 C 0.46364 0.03536 0.05167 0.0
C4364 C 0.48135 0.04252 0.05035 0.0
C4365 C 0.43152 0.02532 0.03719 0.0
C4366 C 0.42432 0.02944 0.05295 0.0
C4367 C 0.42095 0.01148 0.02242 0.0
C4368 C 0.42804 0.00501 0.00614 0.0
C4369 C 0.44271 0.99735 0.00869 0.0
C4370 C 0.44943 0.99143 0.99331 0.0
C4371 C 0.44147 0.99293 0.97529 0.0
C4372 C 0.42675 1.00029 0.97262 0.0
C4373 C 0.42 0.00626 0.98796 0.0
H4374 H 0.44669 0.98834 0.96339 0.0
H4375 H 0.38242 0.03637 0.11655 0.0
H4376 H 0.90913 0.6643 0.7771 0.0
H4377 H 0.88449 0.67811 0.76813 0.0
H4378 H 0.90786 0.72578 0.81115 0.0
H4379 H 0.93265 0.71208 0.82025 0.0
H4380 H 0.87185 0.71257 0.80908 0.0
H4381 H 0.91306 0.73043 0.76837 0.0
H4382 H 0.93194 0.72499 0.74586 0.0
H4383 H 0.88641 0.69286 0.70646 0.0
H4384 H 0.86727 0.69759 0.72896 0.0
H4385 H 0.83654 0.78284 0.75377 0.0
H4386 H 0.85712 0.76301 0.75706 0.0
H4387 H 0.81718 0.7177 0.77158 0.0
H4388 H 0.79653 0.73773 0.76893 0.0
H4389 H 0.86113 0.72909 0.74457 0.0
H4390 H 0.83557 0.70003 0.80839 0.0
H4391 H 0.81673 0.70762 0.83021 0.0
H4392 H 0.83371 0.7672 0.82411 0.0
H4393 H 0.85289 0.76001 0.80253 0.0
C4394 C 0.909 0.67765 0.78479 0.0
C4395 C 0.92294 0.68716 0.79933 0.0
C4396 C 0.8949 0.68552 0.7796 0.0
C4397 C 0.89444 0.70304 0.78886 0.0
C4398 C 0.90799 0.71224 0.80382 0.0
C4399 C 0.92217 0.70443 0.80895 0.0
C4400 C 0.8802 0.71215 0.78243 0.0
C4401 C 0.86946 0.71607 0.79495 0.0
C4402 C 0.87723 0.71697 0.76405 0.0
C4403 C 0.88873 0.71413 0.75048 0.0
C4404 C 0.90707 0.72197 0.75501 0.0
C4405 C 0.91783 0.71902 0.74225 0.0
C4406 C 0.91038 0.70855 0.72476 0.0
C4407 C 0.89216 0.70095 0.72002 0.0
C4408 C 0.88136 0.70371 0.7328 0.0
C4409 C 0.83193 0.76851 0.75728 0.0
C4410 C 0.81497 0.76207 0.76154 0.0
C4411 C 0.84375 0.75714 0.75907 0.0
C4412 C 0.83884 0.73908 0.76505 0.0
C4413 C 0.82135 0.73178 0.76734 0.0
C4414 C 0.80952 0.74322 0.76571 0.0
C4415 C 0.85259 0.72916 0.7711 0.0
C4416 C 0.86335 0.72526 0.75859 0.0
C4417 C 0.85584 0.72472 0.78959 0.0
C4418 C 0.84549 0.72943 0.80369 0.0
C4419 C 0.83541 0.71476 0.81186 0.0
C4420 C 0.82464 0.71899 0.82412 0.0
C4421 C 0.82389 0.73784 0.82835 0.0
C4422 C 0.8342 0.75258 0.82067 0.0
C4423 C 0.84506 0.74844 0.80847 0.0
H4424 H 0.8154 0.74103 0.83769 0.0
H4425 H 0.91873 0.70636 0.71486 0.0
H4426 H 0.82745 0.68435 0.03038 0.0
H4427 H 0.85234 0.66996 0.03188 0.0
H4428 H 0.82766 0.63445 0.97985 0.0
H4429 H 0.80274 0.64873 0.97824 0.0
H4430 H 0.84116 0.61412 0.00523 0.0
H4431 H 0.86126 0.6735 0.98113 0.0
H4432 H 0.86778 0.70843 0.98099 0.0
H4433 H 0.90401 0.71695 0.03278 0.0
H4434 H 0.8975 0.68204 0.03336 0.0
H4435 H 0.91284 0.58355 0.97956 0.0
H4436 H 0.88894 0.59895 0.98053 0.0
H4437 H 0.9168 0.63261 0.03255 0.0
H4438 H 0.94075 0.61696 0.03188 0.0
H4439 H 0.90207 0.65415 0.00898 0.0
H4440 H 0.88278 0.59478 0.03262 0.0
H4441 H 0.87635 0.55986 0.03276 0.0
H4442 H 0.8386 0.55131 0.9821 0.0
H4443 H 0.84499 0.58621 0.9815 0.0
C4444 C 0.82726 0.67343 0.01928 0.0
C4445 C 0.81306 0.66776 0.00416 0.0
C4446 C 0.84157 0.66527 0.02011 0.0
C4447 C 0.842 0.65123 0.00588 0.0
C4448 C 0.82767 0.64527 0.99099 0.0
C4449 C 0.81343 0.6535 0.99007 0.0
C4450 C 0.85736 0.64278 0.00642 0.0
C4451 C 0.85444 0.62287 0.00584 0.0
C4452 C 0.87481 0.65418 0.00771 0.0
C4453 C 0.87874 0.67517 0.0074 0.0
C4454 C 0.8705 0.68282 0.99258 0.0
C4455 C 0.87421 0.70262 0.9924 0.0
C4456 C 0.88626 0.7149 0.00689 0.0
C4457 C 0.89465 0.70741 0.02158 0.0
C4458 C 0.89096 0.68762 0.02184 0.0
C4459 C 0.91388 0.59409 0.99134 0.0
C4460 C 0.9287 0.59877 0.00578 0.0
C4461 C 0.90018 0.60296 0.99183 0.0
C4462 C 0.90089 0.61676 0.00676 0.0
C4463 C 0.9159 0.62197 0.0209 0.0
C4464 C 0.92963 0.61304 0.02046 0.0
C4465 C 0.88583 0.62547 0.00762 0.0
C4466 C 0.8888 0.64541 0.00847 0.0
C4467 C 0.86841 0.6141 0.0066 0.0
C4468 C 0.86449 0.59311 0.00693 0.0
C4469 C 0.87321 0.58545 0.02142 0.0
C4470 C 0.86956 0.56566 0.0216 0.0
C4471 C 0.85711 0.55337 0.00742 0.0
C4472 C 0.84826 0.56085 0.99306 0.0
C4473 C 0.85188 0.58064 0.9928 0.0
H4474 H 0.85429 0.53805 0.00759 0.0
H4475 H 0.88913 0.73022 0.00673 0.0
H4476 H 0.17207 0.15786 0.83947 0.0
H4477 H 0.19546 0.18491 0.83504 0.0
H4478 H 0.233 0.15116 0.84335 0.0
H4479 H 0.20959 0.12384 0.84755 0.0
H4480 H 0.22655 0.20658 0.85373 0.0
H4481 H 0.25958 0.16035 0.81045 0.0
H4482 H 0.2521 0.12851 0.79194 0.0
H4483 H 0.19773 0.12912 0.78025 0.0
H4484 H 0.20495 0.16108 0.79836 0.0
H4485 H 0.29964 0.27004 0.82727 0.0
H4486 H 0.2822 0.24257 0.83934 0.0
H4487 H 0.24857 0.22497 0.78537 0.0
H4488 H 0.26612 0.25211 0.7732 0.0
H4489 H 0.25506 0.19476 0.79975 0.0
H4490 H 0.23606 0.24949 0.82035 0.0
H4491 H 0.23879 0.28171 0.83608 0.0
H4492 H 0.25913 0.26533 0.8883 0.0
H4493 H 0.25654 0.233 0.87282 0.0
C4494 C 0.18534 0.15625 0.8407 0.0
C4495 C 0.1889 0.13858 0.84359 0.0
C4496 C 0.19873 0.17178 0.83823 0.0
C4497 C 0.2159 0.16994 0.83856 0.0
C4498 C 0.21977 0.15277 0.84278 0.0
C4499 C 0.20637 0.1372 0.84523 0.0
C4500 C 0.22919 0.18537 0.83276 0.0
C4501 C 0.23298 0.20397 0.84209 0.0
C4502 C 0.23721 0.18203 0.81726 0.0
C4503 C 0.23279 0.16299 0.80597 0.0
C4504 C 0.24605 0.15371 0.80386 0.0
C4505 C 0.24185 0.13565 0.79343 0.0
C4506 C 0.22444 0.12677 0.78496 0.0
C4507 C 0.2112 0.13598 0.78683 0.0
C4508 C 0.21534 0.15407 0.79718 0.0
C4509 C 0.28865 0.26015 0.81796 0.0
C4510 C 0.28416 0.2632 0.79934 0.0
C4511 C 0.27865 0.24454 0.82488 0.0
C4512 C 0.26398 0.23183 0.8133 0.0
C4513 C 0.25985 0.23457 0.79455 0.0
C4514 C 0.26985 0.25011 0.78763 0.0
C4515 C 0.25247 0.21601 0.82075 0.0
C4516 C 0.24898 0.19733 0.81168 0.0
C4517 C 0.2443 0.21938 0.83611 0.0
C4518 C 0.2463 0.23893 0.84539 0.0
C4519 C 0.24128 0.25284 0.83515 0.0
C4520 C 0.2428 0.27111 0.84403 0.0
C4521 C 0.2493 0.27563 0.86316 0.0
C4522 C 0.25422 0.26185 0.87346 0.0
C4523 C 0.25269 0.24354 0.86465 0.0
H4524 H 0.2504 0.28973 0.87006 0.0
H4525 H 0.22121 0.11277 0.77694 0.0
H4526 H 0.38765 0.10278 0.2777 0.0
H4527 H 0.36239 0.07469 0.26877 0.0
H4528 H 0.39629 0.04171 0.25028 0.0
H4529 H 0.42143 0.06959 0.25891 0.0
H4530 H 0.36295 0.03061 0.22865 0.0
H4531 H 0.39038 0.04385 0.29493 0.0
H4532 H 0.39953 0.06417 0.32535 0.0
H4533 H 0.34615 0.0666 0.32508 0.0
H4534 H 0.33674 0.04646 0.29453 0.0
H4535 H 0.34683 0.93821 0.25327 0.0
H4536 H 0.3553 0.97088 0.24593 0.0
H4537 H 0.31352 0.98416 0.27139 0.0
H4538 H 0.30523 0.95139 0.27912 0.0
H4539 H 0.34261 0.00847 0.28576 0.0
H4540 H 0.31444 0.98634 0.22345 0.0
H4541 H 0.30585 0.96501 0.19367 0.0
H4542 H 0.35969 0.97831 0.186 0.0
H4543 H 0.36866 0.99954 0.21585 0.0
C4544 C 0.38963 0.08967 0.27131 0.0
C4545 C 0.4066 0.08828 0.26937 0.0
C4546 C 0.37519 0.07366 0.26619 0.0
C4547 C 0.37754 0.05607 0.25911 0.0
C4548 C 0.39418 0.05514 0.25572 0.0
C4549 C 0.40859 0.07107 0.26084 0.0
C4550 C 0.36367 0.03802 0.25791 0.0
C4551 C 0.35833 0.02573 0.24104 0.0
C4552 C 0.35728 0.03193 0.27399 0.0
C4553 C 0.36291 0.04389 0.29239 0.0
C4554 C 0.38063 0.04883 0.30132 0.0
C4555 C 0.38586 0.06029 0.31858 0.0
C4556 C 0.37344 0.06672 0.32711 0.0
C4557 C 0.35576 0.06165 0.31843 0.0
C4558 C 0.35047 0.05021 0.30115 0.0
C4559 C 0.33912 0.94793 0.25681 0.0
C4560 C 0.32546 0.94234 0.26686 0.0
C4561 C 0.34391 0.96662 0.25252 0.0
C4562 C 0.33494 0.98001 0.25794 0.0
C4563 C 0.32062 0.9741 0.26706 0.0
C4564 C 0.31595 0.95543 0.27153 0.0
C4565 C 0.34225 1.00059 0.25657 0.0
C4566 C 0.34649 0.01341 0.27306 0.0
C4567 C 0.34755 0.00707 0.24011 0.0
C4568 C 0.34223 0.99454 0.22195 0.0
C4569 C 0.32447 0.98468 0.21546 0.0
C4570 C 0.31953 0.97262 0.19854 0.0
C4571 C 0.33221 0.97032 0.18794 0.0
C4572 C 0.34987 0.98013 0.19421 0.0
C4573 C 0.35488 0.99223 0.21111 0.0
H4574 H 0.32837 0.96091 0.17489 0.0
H4575 H 0.37751 0.0756 0.34048 0.0
H4576 H 0.54388 0.37826 0.62868 0.0
H4577 H 0.5372 0.40631 0.61568 0.0
H4578 H 0.57635 0.40698 0.58086 0.0
H4579 H 0.58316 0.37938 0.59373 0.0
H4580 H 0.57974 0.44207 0.59763 0.0
H4581 H 0.53229 0.39022 0.56314 0.0
H4582 H 0.50673 0.36221 0.55971 0.0
H4583 H 0.479 0.3961 0.588 0.0
H4584 H 0.5045 0.42427 0.59181 0.0
H4585 H 0.56245 0.50593 0.53488 0.0
H4586 H 0.5659 0.47715 0.54835 0.0
H4587 H 0.52198 0.47747 0.57629 0.0
H4588 H 0.51788 0.50566 0.56194 0.0
H4589 H 0.52043 0.44262 0.5652 0.0
H4590 H 0.56742 0.49487 0.59886 0.0
H4591 H 0.59287 0.523 0.60207 0.0
H4592 H 0.6215 0.48867 0.57584 0.0
H4593 H 0.59616 0.46037 0.5723 0.0
C4594 C 0.551 0.38436 0.61821 0.0
C4595 C 0.56406 0.37653 0.61229 0.0
C4596 C 0.54715 0.40036 0.61076 0.0
C4597 C 0.55626 0.40874 0.59724 0.0
C4598 C 0.56921 0.40086 0.59132 0.0
C4599 C 0.57303 0.38497 0.59869 0.0
C4600 C 0.55267 0.42588 0.58927 0.0
C4601 C 0.56679 0.44214 0.59042 0.0
C4602 C 0.53571 0.42619 0.58026 0.0
C4603 C 0.52037 0.40928 0.57795 0.0
C4604 C 0.5208 0.39166 0.56877 0.0
C4605 C 0.50631 0.37576 0.56673 0.0
C4606 C 0.49127 0.37736 0.57369 0.0
C4607 C 0.49067 0.39487 0.58265 0.0
C4608 C 0.50513 0.41081 0.58474 0.0
C4609 C 0.55347 0.49978 0.54381 0.0
C4610 C 0.53996 0.50811 0.54746 0.0
C4611 C 0.55552 0.48339 0.55163 0.0
C4612 C 0.54452 0.47536 0.56381 0.0
C4613 C 0.53071 0.48339 0.56704 0.0
C4614 C 0.52838 0.49953 0.55885 0.0
C4615 C 0.54756 0.4588 0.57335 0.0
C4616 C 0.53336 0.44266 0.57254 0.0
C4617 C 0.56446 0.45862 0.58277 0.0
C4618 C 0.57985 0.47553 0.58523 0.0
C4619 C 0.57913 0.49334 0.59373 0.0
C4620 C 0.59353 0.50931 0.5956 0.0
C4621 C 0.60878 0.50762 0.58916 0.0
C4622 C 0.60968 0.48995 0.58084 0.0
C4623 C 0.59532 0.47393 0.57893 0.0
H4624 H 0.61992 0.51998 0.59067 0.0
H4625 H 0.48007 0.36504 0.57209 0.0
H4626 H 0.44104 0.76826 0.38481 0.0
H4627 H 0.41565 0.76998 0.36241 0.0
H4628 H 0.44961 0.81021 0.33512 0.0
H4629 H 0.47531 0.80803 0.35736 0.0
H4630 H 0.40305 0.79902 0.35894 0.0
H4631 H 0.42872 0.80924 0.28976 0.0
H4632 H 0.4504 0.7997 0.27285 0.0
H4633 H 0.44649 0.74971 0.30098 0.0
H4634 H 0.42463 0.75883 0.31787 0.0
H4635 H 0.33732 0.82546 0.2981 0.0
H4636 H 0.36672 0.82601 0.31466 0.0
H4637 H 0.36171 0.76974 0.28671 0.0
H4638 H 0.33258 0.7693 0.26995 0.0
H4639 H 0.39462 0.79086 0.28989 0.0
H4640 H 0.35217 0.77582 0.33033 0.0
H4641 H 0.32897 0.78101 0.34742 0.0
H4642 H 0.36397 0.83324 0.3769 0.0
H4643 H 0.3873 0.82849 0.35981 0.0
C4644 C 0.44317 0.77718 0.3738 0.0
C4645 C 0.46017 0.78803 0.37285 0.0
C4646 C 0.4286 0.77825 0.36106 0.0
C4647 C 0.4306 0.79036 0.34713 0.0
C4648 C 0.44769 0.80063 0.34562 0.0
C4649 C 0.46239 0.79934 0.35829 0.0
C4650 C 0.41462 0.79288 0.33511 0.0
C4651 C 0.40129 0.79731 0.34383 0.0
C4652 C 0.41216 0.79054 0.31539 0.0
C4653 C 0.42521 0.78486 0.30524 0.0
C4654 C 0.43246 0.7962 0.2923 0.0
C4655 C 0.44478 0.79087 0.28273 0.0
C4656 C 0.44987 0.77415 0.2859 0.0
C4657 C 0.4426 0.7627 0.2986 0.0
C4658 C 0.43026 0.76796 0.3082 0.0
C4659 C 0.34264 0.81337 0.2953 0.0
C4660 C 0.33265 0.7973 0.28283 0.0
C4661 C 0.3594 0.81365 0.3048 0.0
C4662 C 0.36636 0.79781 0.3021 0.0
C4663 C 0.35667 0.78214 0.28902 0.0
C4664 C 0.33998 0.78187 0.27951 0.0
C4665 C 0.3831 0.79684 0.31376 0.0
C4666 C 0.39654 0.79278 0.305 0.0
C4667 C 0.38549 0.79896 0.33347 0.0
C4668 C 0.37142 0.80191 0.34365 0.0
C4669 C 0.35487 0.7885 0.34034 0.0
C4670 C 0.3417 0.79135 0.35005 0.0
C4671 C 0.345 0.80747 0.36321 0.0
C4672 C 0.36144 0.82078 0.36668 0.0
C4673 C 0.37464 0.81802 0.357 0.0
H4674 H 0.33485 0.80962 0.37079 0.0
H4675 H 0.45941 0.77005 0.27847 0.0
H4676 H 0.0369 0.76443 0.12435 0.0
H4677 H 0.02928 0.73059 0.11132 0.0
H4678 H 0.07211 0.74263 0.08073 0.0
H4679 H 0.07935 0.77619 0.09306 0.0
H4680 H 0.04588 0.71907 0.05955 0.0
H4681 H 0.07483 0.72258 0.12286 0.0
H4682 H 0.07947 0.73017 0.15705 0.0
H4683 H 0.02874 0.69274 0.15778 0.0
H4684 H 0.02372 0.6851 0.12354 0.0
H4685 H 0.06909 0.62893 0.0533 0.0
H4686 H 0.06979 0.66123 0.06674 0.0
H4687 H 0.01361 0.64411 0.06403 0.0
H4688 H 0.01266 0.61191 0.05007 0.0
H4689 H 0.04297 0.66877 0.10167 0.0
H4690 H 0.01624 0.66552 0.03569 0.0
H4691 H 0.01536 0.65873 0.00191 0.0
H4692 H 0.06702 0.69665 0.00744 0.0
H4693 H 0.06832 0.70339 0.04132 0.0
C4694 C 0.04454 0.75987 0.11468 0.0
C4695 C 0.05876 0.77307 0.10982 0.0
C4696 C 0.04026 0.7405 0.10734 0.0
C4697 C 0.05027 0.73395 0.09521 0.0
C4698 C 0.06414 0.74724 0.09001 0.0
C4699 C 0.0683 0.76651 0.09715 0.0
C4700 C 0.04676 0.71331 0.08808 0.0
C4701 C 0.04524 0.70814 0.06884 0.0
C4702 C 0.04585 0.69889 0.10007 0.0
C4703 C 0.04881 0.70346 0.12063 0.0
C4704 C 0.06461 0.7161 0.1303 0.0
C4705 C 0.06732 0.72038 0.14969 0.0
C4706 C 0.05438 0.71199 0.15958 0.0
C4707 C 0.03873 0.69926 0.1501 0.0
C4708 C 0.03595 0.69494 0.13071 0.0
C4709 C 0.05691 0.63196 0.05576 0.0
C4710 C 0.04082 0.61787 0.05063 0.0
C4711 C 0.05733 0.65041 0.06338 0.0
C4712 C 0.04175 0.65498 0.0663 0.0
C4713 C 0.02576 0.64081 0.06185 0.0
C4714 C 0.02526 0.62246 0.05385 0.0
C4715 C 0.0422 0.67481 0.07332 0.0
C4716 C 0.04326 0.67976 0.09248 0.0
C4717 C 0.04312 0.68914 0.06135 0.0
C4718 C 0.04245 0.68477 0.04106 0.0
C4719 C 0.02751 0.67219 0.02975 0.0
C4720 C 0.02691 0.66841 0.01056 0.0
C4721 C 0.04114 0.67725 0.00253 0.0
C4722 C 0.05602 0.68981 0.01368 0.0
C4723 C 0.05669 0.69361 0.03286 0.0
H4724 H 0.04062 0.67446 0.98767 0.0
H4725 H 0.0565 0.71532 0.17458 0.0
H4726 H 0.06232 0.29122 0.89281 0.0
H4727 H 0.08882 0.2906 0.88009 0.0
H4728 H 0.06397 0.3012 0.8268 0.0
H4729 H 0.03726 0.30159 0.83936 0.0
H4730 H 0.08066 0.27387 0.82229 0.0
H4731 H 0.0956 0.33665 0.85611 0.0
H4732 H 0.09931 0.36065 0.88333 0.0
H4733 H 0.13662 0.33583 0.91423 0.0
H4734 H 0.13295 0.3115 0.88726 0.0
H4735 H 0.15793 0.29759 0.78241 0.0
H4736 H 0.13171 0.29932 0.79532 0.0
H4737 H 0.15542 0.28608 0.84794 0.0
H4738 H 0.18186 0.28467 0.83521 0.0
H4739 H 0.13941 0.315 0.85271 0.0
H4740 H 0.12422 0.25212 0.81874 0.0
H4741 H 0.12056 0.22835 0.79135 0.0
H4742 H 0.08371 0.25378 0.76051 0.0
H4743 H 0.08734 0.27789 0.78765 0.0
C4744 C 0.06246 0.29346 0.87838 0.0
C4745 C 0.04762 0.29651 0.86714 0.0
C4746 C 0.07769 0.29319 0.87114 0.0
C4747 C 0.07853 0.29608 0.85252 0.0
C4748 C 0.06369 0.29897 0.84121 0.0
C4749 C 0.04842 0.29924 0.84844 0.0
C4750 C 0.09479 0.29584 0.8448 0.0
C4751 C 0.09346 0.28308 0.8288 0.0
C4752 C 0.1116 0.30752 0.85349 0.0
C4753 C 0.11386 0.32213 0.86973 0.0
C4754 C 0.10449 0.33621 0.86876 0.0
C4755 C 0.1066 0.34989 0.88413 0.0
C4756 C 0.11816 0.34973 0.90051 0.0
C4757 C 0.12766 0.33591 0.90154 0.0
C4758 C 0.12557 0.32219 0.88621 0.0
C4759 C 0.15766 0.29523 0.79679 0.0
C4760 C 0.17203 0.29097 0.80776 0.0
C4761 C 0.14258 0.29606 0.80411 0.0
C4762 C 0.14148 0.29264 0.82256 0.0
C4763 C 0.15591 0.28872 0.83366 0.0
C4764 C 0.17098 0.28778 0.82631 0.0
C4765 C 0.12525 0.29305 0.83022 0.0
C4766 C 0.12659 0.30583 0.8462 0.0
C4767 C 0.10844 0.28143 0.82149 0.0
C4768 C 0.10619 0.26693 0.80516 0.0
C4769 C 0.11545 0.25274 0.80606 0.0
C4770 C 0.11336 0.23919 0.79059 0.0
C4771 C 0.10195 0.23959 0.77418 0.0
C4772 C 0.09257 0.25351 0.77322 0.0
C4773 C 0.09462 0.26711 0.78865 0.0
H4774 H 0.10034 0.22908 0.76222 0.0
H4775 H 0.11979 0.36034 0.9124 0.0
H4776 H 0.49396 0.73946 0.95103 0.0
H4777 H 0.49836 0.70975 0.96124 0.0
H4778 H 0.55359 0.72856 0.95851 0.0
H4779 H 0.54891 0.75811 0.94704 0.0
H4780 H 0.5438 0.69287 0.94762 0.0
H4781 H 0.53641 0.72891 0.00147 0.0
H4782 H 0.52281 0.74849 0.02078 0.0
H4783 H 0.47607 0.70215 0.01338 0.0
H4784 H 0.48929 0.68236 0.99381 0.0
H4785 H 0.5626 0.62394 0.009 0.0
H4786 H 0.56066 0.65423 0.99755 0.0
H4787 H 0.50519 0.63045 0.97676 0.0
H4788 H 0.50711 0.59987 0.98773 0.0
H4789 H 0.51725 0.66928 0.00111 0.0
H4790 H 0.52721 0.63401 0.94604 0.0
H4791 H 0.54382 0.61553 0.92964 0.0
H4792 H 0.59 0.66277 0.94363 0.0
H4793 H 0.57371 0.68143 0.96036 0.0
C4794 C 0.50708 0.73734 0.95262 0.0
C4795 C 0.52114 0.7513 0.94845 0.0
C4796 C 0.50962 0.72031 0.95861 0.0
C4797 C 0.52643 0.71698 0.9613 0.0
C4798 C 0.54049 0.73075 0.95674 0.0
C4799 C 0.53784 0.74768 0.95024 0.0
C4800 C 0.52908 0.69908 0.96871 0.0
C4801 C 0.53819 0.68795 0.95949 0.0
C4802 C 0.52181 0.69238 0.98424 0.0
C4803 C 0.5138 0.70421 0.99604 0.0
C4804 C 0.52318 0.72293 0.00385 0.0
C4805 C 0.51555 0.73406 0.01486 0.0
C4806 C 0.49858 0.72658 0.01827 0.0
C4807 C 0.48921 0.70793 0.01071 0.0
C4808 C 0.49678 0.69674 0.99968 0.0
C4809 C 0.54997 0.62514 0.00198 0.0
C4810 C 0.53498 0.6095 0.99932 0.0
C4811 C 0.54892 0.64244 0.99539 0.0
C4812 C 0.53279 0.64459 0.98631 0.0
C4813 C 0.51777 0.62908 0.98373 0.0
C4814 C 0.51889 0.61161 0.98996 0.0
C4815 C 0.53156 0.66314 0.97977 0.0
C4816 C 0.52283 0.67437 0.98926 0.0
C4817 C 0.53959 0.67015 0.96489 0.0
C4818 C 0.54929 0.65904 0.95462 0.0
C4819 C 0.54094 0.64039 0.94576 0.0
C4820 C 0.55029 0.6299 0.93637 0.0
C4821 C 0.56797 0.63795 0.93564 0.0
C4822 C 0.57632 0.65654 0.94423 0.0
C4823 C 0.56703 0.66709 0.95365 0.0
H4824 H 0.57519 0.6298 0.92838 0.0
H4825 H 0.49269 0.73522 0.02679 0.0
H4826 H 0.11761 0.8332 0.6526 0.0
H4827 H 0.14929 0.83974 0.66487 0.0
H4828 H 0.13883 0.84158 0.72098 0.0
H4829 H 0.10724 0.83453 0.70882 0.0
H4830 H 0.1715 0.86988 0.71482 0.0
H4831 H 0.13998 0.80169 0.70399 0.0
H4832 H 0.12084 0.77306 0.68376 0.0
H4833 H 0.15709 0.77892 0.64549 0.0
H4834 H 0.17632 0.80779 0.66539 0.0
H4835 H 0.24297 0.84798 0.77051 0.0
H4836 H 0.21458 0.85117 0.75482 0.0
H4837 H 0.22309 0.82492 0.70299 0.0
H4838 H 0.25069 0.82019 0.71923 0.0
H4839 H 0.19214 0.81146 0.70396 0.0
H4840 H 0.22598 0.87655 0.7151 0.0
H4841 H 0.24566 0.90594 0.73362 0.0
H4842 H 0.207 0.90825 0.76809 0.0
H4843 H 0.18716 0.87872 0.74992 0.0
C4844 C 0.12214 0.83562 0.66755 0.0
C4845 C 0.10999 0.83331 0.67977 0.0
C4846 C 0.14021 0.83928 0.67454 0.0
C4847 C 0.14637 0.84106 0.69384 0.0
C4848 C 0.13436 0.84033 0.70607 0.0
C4849 C 0.11632 0.83626 0.6991 0.0
C4850 C 0.16478 0.84099 0.70123 0.0
C4851 C 0.17611 0.85716 0.7125 0.0
C4852 C 0.17086 0.82454 0.6978 0.0
C4853 C 0.15947 0.807 0.68605 0.0
C4854 C 0.1438 0.79696 0.69119 0.0
C4855 C 0.13294 0.78068 0.67979 0.0
C4856 C 0.13772 0.77421 0.66331 0.0
C4857 C 0.15339 0.78397 0.65823 0.0
C4858 C 0.16427 0.80028 0.66957 0.0
C4859 C 0.23871 0.84297 0.75575 0.0
C4860 C 0.2489 0.83386 0.74602 0.0
C4861 C 0.22257 0.84498 0.74669 0.0
C4862 C 0.21669 0.83873 0.72749 0.0
C4863 C 0.22716 0.82988 0.71776 0.0
C4864 C 0.24297 0.82722 0.727 0.0
C4865 C 0.19928 0.84047 0.71776 0.0
C4866 C 0.18794 0.82446 0.7061 0.0
C4867 C 0.19341 0.85729 0.72051 0.0
C4868 C 0.20513 0.87532 0.73121 0.0
C4869 C 0.2217 0.88328 0.72667 0.0
C4870 C 0.23288 0.89997 0.73711 0.0
C4871 C 0.2276 0.90893 0.75205 0.0
C4872 C 0.21108 0.90128 0.75652 0.0
C4873 C 0.19984 0.88458 0.74613 0.0
H4874 H 0.23631 0.92182 0.76016 0.0
H4875 H 0.1293 0.76161 0.6545 0.0
H4876 H 0.03902 0.36394 0.43169 0.0
H4877 H 0.04576 0.39824 0.44266 0.0
H4878 H 0.01871 0.38537 0.48866 0.0
H4879 H 0.01164 0.35136 0.47759 0.0
H4880 H 0.00855 0.41276 0.47355 0.0
H4881 H 0.06502 0.40024 0.49354 0.0
H4882 H 0.09133 0.38941 0.4891 0.0
H4883 H 0.10343 0.43065 0.45113 0.0
H4884 H 0.07707 0.44157 0.45519 0.0
H4885 H 0.06396 0.50218 0.53752 0.0
H4886 H 0.061 0.47043 0.5212 0.0
H4887 H 0.02797 0.48303 0.47401 0.0
H4888 H 0.03096 0.51492 0.49039 0.0
H4889 H 0.06849 0.45698 0.48711 0.0
H4890 H 0.99406 0.44148 0.45993 0.0
H4891 H 0.96812 0.45117 0.46782 0.0
H4892 H 0.99288 0.46436 0.52547 0.0
H4893 H 0.01883 0.45457 0.51795 0.0
C4894 C 0.03472 0.36843 0.44427 0.0
C4895 C 0.02476 0.35484 0.45373 0.0
C4896 C 0.03857 0.38807 0.45054 0.0
C4897 C 0.03274 0.39451 0.46653 0.0
C4898 C 0.02324 0.38088 0.47621 0.0
C4899 C 0.01928 0.36136 0.4699 0.0
C4900 C 0.03605 0.41534 0.47312 0.0
C4901 C 0.02167 0.42241 0.47634 0.0
C4902 C 0.05313 0.42808 0.47692 0.0
C4903 C 0.06899 0.42157 0.47452 0.0
C4904 C 0.07323 0.4069 0.48414 0.0
C4905 C 0.08816 0.40077 0.48171 0.0
C4906 C 0.09902 0.4093 0.4698 0.0
C4907 C 0.095 0.42403 0.46033 0.0
C4908 C 0.08007 0.43021 0.4627 0.0
C4909 C 0.05623 0.49827 0.52358 0.0
C4910 C 0.04769 0.51103 0.5152 0.0
C4911 C 0.05463 0.48016 0.51422 0.0
C4912 C 0.04424 0.47429 0.4964 0.0
C4913 C 0.03603 0.48721 0.48777 0.0
C4914 C 0.03779 0.50545 0.49709 0.0
C4915 C 0.04103 0.4542 0.48759 0.0
C4916 C 0.05537 0.44734 0.48395 0.0
C4917 C 0.02396 0.44152 0.48372 0.0
C4918 C 0.00844 0.4475 0.48833 0.0
C4919 C 0.99394 0.44644 0.47428 0.0
C4920 C 0.97925 0.45194 0.47869 0.0
C4921 C 0.97888 0.4584 0.49713 0.0
C4922 C 0.99321 0.45941 0.51119 0.0
C4923 C 0.00792 0.45393 0.50685 0.0
H4924 H 0.96746 0.46253 0.50056 0.0
H4925 H 0.11057 0.40453 0.46793 0.0
H4926 H 0.5061 0.29763 0.19021 0.0
H4927 H 0.47949 0.30325 0.19911 0.0
H4928 H 0.47641 0.34102 0.15703 0.0
H4929 H 0.50356 0.33564 0.14806 0.0
H4930 H 0.46939 0.3556 0.18988 0.0
H4931 H 0.4485 0.29669 0.1499 0.0
H4932 H 0.44794 0.26392 0.13743 0.0
H4933 H 0.43919 0.2445 0.18984 0.0
H4934 H 0.43994 0.27721 0.20273 0.0
H4935 H 0.38406 0.3563 0.21041 0.0
H4936 H 0.4072 0.35221 0.1931 0.0
H4937 H 0.4211 0.31318 0.23033 0.0
H4938 H 0.3978 0.31684 0.24737 0.0
H4939 H 0.42022 0.30007 0.19439 0.0
H4940 H 0.44499 0.35988 0.23513 0.0
H4941 H 0.44587 0.39274 0.24768 0.0
H4942 H 0.44706 0.41034 0.19322 0.0
H4943 H 0.44596 0.3775 0.1803 0.0
C4944 C 0.49984 0.30714 0.18273 0.0
C4945 C 0.50697 0.31608 0.16829 0.0
C4946 C 0.48451 0.31026 0.18783 0.0
C4947 C 0.47572 0.32225 0.17852 0.0
C4948 C 0.48291 0.33158 0.16431 0.0
C4949 C 0.4984 0.32847 0.15919 0.0
C4950 C 0.45918 0.32501 0.18405 0.0
C4951 C 0.45846 0.3435 0.19047 0.0
C4952 C 0.44497 0.30921 0.18505 0.0
C4953 C 0.44437 0.28945 0.17732 0.0
C4954 C 0.44656 0.28546 0.15881 0.0
C4955 C 0.4462 0.26689 0.15166 0.0
C4956 C 0.44355 0.25215 0.16284 0.0
C4957 C 0.44123 0.25594 0.18119 0.0
C4958 C 0.4416 0.27449 0.18842 0.0
C4959 C 0.39193 0.34669 0.21479 0.0
C4960 C 0.38916 0.33701 0.23038 0.0
C4961 C 0.40524 0.34449 0.20496 0.0
C4962 C 0.41604 0.33256 0.21053 0.0
C4963 C 0.413 0.32252 0.2258 0.0
C4964 C 0.39976 0.32476 0.23564 0.0
C4965 C 0.43067 0.33057 0.20073 0.0
C4966 C 0.43101 0.3122 0.19349 0.0
C4967 C 0.44446 0.34647 0.19893 0.0
C4968 C 0.44517 0.3662 0.20671 0.0
C4969 C 0.44529 0.37073 0.2258 0.0
C4970 C 0.44586 0.38935 0.23299 0.0
C4971 C 0.44646 0.4036 0.22125 0.0
C4972 C 0.44656 0.39928 0.2023 0.0
C4973 C 0.44597 0.38067 0.19503 0.0
H4974 H 0.44691 0.41801 0.22684 0.0
H4975 H 0.44328 0.23778 0.15728 0.0
H4976 H 0.64827 0.54534 0.38427 0.0
H4977 H 0.62937 0.52597 0.40296 0.0
H4978 H 0.61946 0.57704 0.42837 0.0
H4979 H 0.63812 0.59639 0.4099 0.0
H4980 H 0.62611 0.52819 0.44414 0.0
H4981 H 0.5756 0.56941 0.41664 0.0
H4982 H 0.56755 0.5838 0.38832 0.0
H4983 H 0.58697 0.54432 0.35582 0.0
H4984 H 0.59485 0.52948 0.38387 0.0
H4985 H 0.57354 0.55672 0.50153 0.0
H4986 H 0.59296 0.54973 0.48075 0.0
H4987 H 0.54913 0.50795 0.44616 0.0
H4988 H 0.52968 0.51465 0.46748 0.0
H4989 H 0.56577 0.53631 0.42743 0.0
H4990 H 0.58036 0.49317 0.46531 0.0
H4991 H 0.58838 0.4787 0.49346 0.0
H4992 H 0.63998 0.51723 0.5037 0.0
H4993 H 0.63191 0.53327 0.47684 0.0
C4994 C 0.64249 0.55248 0.39428 0.0
C4995 C 0.64443 0.57236 0.39543 0.0
C4996 C 0.63171 0.54139 0.4049 0.0
C4997 C 0.62285 0.55011 0.41672 0.0
C4998 C 0.62607 0.57008 0.41911 0.0
C4999 C 0.63673 0.58111 0.40854 0.0
C5000 C 0.60859 0.53876 0.42501 0.0
C5001 C 0.61283 0.52968 0.44056 0.0
C5002 C 0.59111 0.53988 0.41944 0.0
C5003 C 0.58586 0.54836 0.40239 0.0
C5004 C 0.578 0.56368 0.40342 0.0
C5005 C 0.5735 0.57194 0.38742 0.0
C5006 C 0.57676 0.56499 0.37028 0.0
C5007 C 0.58448 0.54972 0.3691 0.0
C5008 C 0.58897 0.54138 0.38505 0.0
C5009 C 0.56815 0.54583 0.48973 0.0
C5010 C 0.55017 0.53643 0.48595 0.0
C5011 C 0.57926 0.54167 0.47796 0.0
C5012 C 0.57249 0.52823 0.462 0.0
C5013 C 0.5546 0.51824 0.45852 0.0
C5014 C 0.54354 0.52213 0.47062 0.0
C5015 C 0.58362 0.52724 0.44775 0.0
C5016 C 0.5788 0.53408 0.43092 0.0
C5017 C 0.60045 0.52377 0.45213 0.0
C5018 C 0.60538 0.51465 0.46895 0.0
C5019 C 0.59328 0.49901 0.47384 0.0
C5020 C 0.59781 0.49061 0.48974 0.0
C5021 C 0.61455 0.49738 0.50069 0.0
C5022 C 0.62683 0.51245 0.49565 0.0
C5023 C 0.62225 0.52126 0.48008 0.0
H5024 H 0.61813 0.49074 0.51288 0.0
H5025 H 0.5733 0.57144 0.35792 0.0
H5026 H 0.29878 0.86459 0.07242 0.0
H5027 H 0.29434 0.85422 0.10256 0.0
H5028 H 0.28008 0.90607 0.1183 0.0
H5029 H 0.28438 0.91656 0.08782 0.0
H5030 H 0.30588 0.89777 0.14545 0.0
H5031 H 0.24889 0.86625 0.11044 0.0
H5032 H 0.22748 0.84634 0.0839 0.0
H5033 H 0.24808 0.79823 0.09484 0.0
H5034 H 0.2698 0.81793 0.1213 0.0
H5035 H 0.28839 0.86409 0.23112 0.0
H5036 H 0.28662 0.87731 0.20154 0.0
H5037 H 0.28884 0.82361 0.17325 0.0
H5038 H 0.28944 0.80997 0.20273 0.0
H5039 H 0.2664 0.83556 0.15284 0.0
H5040 H 0.32566 0.86753 0.18487 0.0
H5041 H 0.34771 0.88698 0.21122 0.0
H5042 H 0.32378 0.9336 0.20586 0.0
H5043 H 0.30155 0.91442 0.17944 0.0
C5044 C 0.29444 0.8737 0.08215 0.0
C5045 C 0.2919 0.8914 0.07769 0.0
C5046 C 0.29189 0.86773 0.0994 0.0
C5047 C 0.28686 0.87934 0.11271 0.0
C5048 C 0.28396 0.89688 0.10823 0.0
C5049 C 0.28628 0.90278 0.09077 0.0
C5050 C 0.28543 0.87327 0.13148 0.0
C5051 C 0.29702 0.88434 0.14716 0.0
C5052 C 0.27416 0.85555 0.13366 0.0
C5053 C 0.26107 0.84362 0.11779 0.0
C5054 C 0.24895 0.85147 0.1071 0.0
C5055 C 0.23674 0.84021 0.09209 0.0
C5056 C 0.23644 0.82104 0.08767 0.0
C5057 C 0.24833 0.81308 0.09828 0.0
C5058 C 0.26058 0.82428 0.11331 0.0
C5059 C 0.2886 0.85512 0.21861 0.0
C5060 C 0.28916 0.83599 0.21929 0.0
C5061 C 0.28769 0.86275 0.20165 0.0
C5062 C 0.28796 0.85167 0.18505 0.0
C5063 C 0.2886 0.83255 0.18578 0.0
C5064 C 0.28903 0.82475 0.20266 0.0
C5065 C 0.28727 0.85974 0.16686 0.0
C5066 C 0.27522 0.84906 0.15125 0.0
C5067 C 0.29826 0.87774 0.16474 0.0
C5068 C 0.31187 0.88948 0.18028 0.0
C5069 C 0.32509 0.88192 0.18932 0.0
C5070 C 0.33763 0.89291 0.20424 0.0
C5071 C 0.33715 0.91152 0.21018 0.0
C5072 C 0.32416 0.91921 0.20117 0.0
C5073 C 0.31161 0.90831 0.1862 0.0
H5074 H 0.34685 0.91998 0.22175 0.0
H5075 H 0.22697 0.81235 0.07603 0.0
H5076 H 0.96487 0.65678 0.85919 0.0
H5077 H 0.97152 0.65282 0.89232 0.0
H5078 H 0.02363 0.64927 0.88575 0.0
H5079 H 0.01734 0.65385 0.85327 0.0
H5080 H 0.97692 0.62301 0.90581 0.0
H5081 H 0.05296 0.6607 0.92337 0.0
H5082 H 0.07289 0.69116 0.91907 0.0
H5083 H 0.02962 0.71697 0.91249 0.0
H5084 H 0.00944 0.68677 0.91704 0.0
H5085 H 0.02243 0.57076 0.96099 0.0
H5086 H 0.00886 0.58833 0.93853 0.0
H5087 H 0.02928 0.64018 0.97716 0.0
H5088 H 0.0439 0.62288 0.99901 0.0
H5089 H 0.0349 0.64943 0.94725 0.0
H5090 H 0.98235 0.61619 0.96381 0.0
H5091 H 0.95982 0.58941 0.97118 0.0
H5092 H 0.9524 0.56085 0.91566 0.0
H5093 H 0.97484 0.58751 0.90786 0.0
C5094 C 0.97793 0.65585 0.86504 0.0
C5095 C 0.99054 0.65552 0.85358 0.0
C5096 C 0.98167 0.65341 0.88393 0.0
C5097 C 0.99811 0.6508 0.89165 0.0
C5098 C 0.01098 0.65164 0.88038 0.0
C5099 C 0.0073 0.65412 0.86167 0.0
C5100 C 1.00144 0.64493 0.9106 0.0
C5101 C 0.9895 0.62895 0.91502 0.0
C5102 C 0.0175 0.65311 0.92312 0.0
C5103 C 0.02965 0.67139 0.92048 0.0
C5104 C 0.04769 0.67289 0.92114 0.0
C5105 C 0.05904 0.69012 0.91862 0.0
C5106 C 0.05252 0.70598 0.91548 0.0
C5107 C 0.03465 0.70466 0.91488 0.0
C5108 C 0.02324 0.68748 0.9174 0.0
C5109 C 0.0239 0.5859 0.96466 0.0
C5110 C 0.03437 0.59556 0.98154 0.0
C5111 C 0.01596 0.59593 0.95193 0.0
C5112 C 0.0178 0.61567 0.95616 0.0
C5113 C 0.02772 0.62507 0.97345 0.0
C5114 C 0.03608 0.61517 0.98592 0.0
C5115 C 0.01085 0.62675 0.94188 0.0
C5116 C 0.02213 0.64372 0.93836 0.0
C5117 C 0.99385 0.62 0.93072 0.0
C5118 C 0.98036 0.60383 0.93528 0.0
C5119 C 0.976 0.60415 0.95319 0.0
C5120 C 0.96323 0.58899 0.95745 0.0
C5121 C 0.95476 0.57338 0.94397 0.0
C5122 C 0.95897 0.57295 0.92612 0.0
C5123 C 0.97166 0.58813 0.92173 0.0
H5124 H 0.9449 0.56165 0.94734 0.0
H5125 H 0.06133 0.7193 0.91353 0.0
H5126 H 0.26819 0.2624 0.56469 0.0
H5127 H 0.27443 0.27117 0.59828 0.0
H5128 H 0.30016 0.22576 0.60497 0.0
H5129 H 0.29359 0.21656 0.57101 0.0
H5130 H 0.27829 0.22537 0.62909 0.0
H5131 H 0.32411 0.27295 0.61309 0.0
H5132 H 0.33792 0.29854 0.59586 0.0
H5133 H 0.30595 0.3336 0.61426 0.0
H5134 H 0.29177 0.30812 0.6314 0.0
H5135 H 0.31572 0.29603 0.72267 0.0
H5136 H 0.31742 0.28469 0.69084 0.0
H5137 H 0.26189 0.25641 0.68052 0.0
H5138 H 0.2602 0.26732 0.71257 0.0
H5139 H 0.30363 0.29223 0.65931 0.0
H5140 H 0.25207 0.21821 0.64741 0.0
H5141 H 0.24115 0.19203 0.66545 0.0
H5142 H 0.29003 0.20863 0.70436 0.0
H5143 H 0.30134 0.23473 0.68642 0.0
C5144 C 0.27539 0.25436 0.5732 0.0
C5145 C 0.28039 0.23874 0.56507 0.0
C5146 C 0.27903 0.25948 0.5925 0.0
C5147 C 0.2879 0.24926 0.60425 0.0
C5148 C 0.2933 0.2339 0.5962 0.0
C5149 C 0.28967 0.22874 0.57678 0.0
C5150 C 0.29061 0.25418 0.6249 0.0
C5151 C 0.28394 0.23997 0.63572 0.0
C5152 C 0.2983 0.27315 0.63372 0.0
C5153 C 0.30679 0.28855 0.62344 0.0
C5154 C 0.31993 0.28606 0.61336 0.0
C5155 C 0.32784 0.30056 0.60362 0.0
C5156 C 0.3228 0.31767 0.60394 0.0
C5157 C 0.30985 0.32034 0.61402 0.0
C5158 C 0.30189 0.30588 0.62377 0.0
C5159 C 0.30387 0.28727 0.71371 0.0
C5160 C 0.28781 0.28259 0.72025 0.0
C5161 C 0.30486 0.28081 0.69544 0.0
C5162 C 0.28984 0.26953 0.6832 0.0
C5163 C 0.27378 0.26476 0.68972 0.0
C5164 C 0.2728 0.27109 0.70807 0.0
C5165 C 0.29082 0.26354 0.66343 0.0
C5166 C 0.29814 0.27758 0.65276 0.0
C5167 C 0.2841 0.24434 0.65488 0.0
C5168 C 0.27748 0.22854 0.66564 0.0
C5169 C 0.26052 0.21622 0.65977 0.0
C5170 C 0.25425 0.20141 0.66999 0.0
C5171 C 0.26487 0.19871 0.68607 0.0
C5172 C 0.2818 0.21078 0.69194 0.0
C5173 C 0.28813 0.2256 0.68176 0.0
H5174 H 0.25999 0.18724 0.69397 0.0
H5175 H 0.32894 0.32888 0.59639 0.0
H5176 H 0.61383 0.60472 0.30285 0.0
H5177 H 0.59861 0.59711 0.27047 0.0
H5178 H 0.62295 0.55079 0.26273 0.0
H5179 H 0.63848 0.55851 0.29498 0.0
H5180 H 0.62893 0.57458 0.23771 0.0
H5181 H 0.57832 0.54218 0.26074 0.0
H5182 H 0.55572 0.53811 0.28069 0.0
H5183 H 0.53772 0.58432 0.25889 0.0
H5184 H 0.56039 0.58887 0.23899 0.0
H5185 H 0.59113 0.55174 0.14321 0.0
H5186 H 0.59625 0.54751 0.17624 0.0
H5187 H 0.57515 0.5953 0.18955 0.0
H5188 H 0.56968 0.59934 0.15643 0.0
H5189 H 0.56601 0.56708 0.21148 0.0
H5190 H 0.61876 0.6021 0.1921 0.0
H5191 H 0.6416 0.60705 0.17242 0.0
H5192 H 0.65583 0.55656 0.18823 0.0
H5193 H 0.63289 0.55115 0.20781 0.0
C5194 C 0.6157 0.59269 0.29437 0.0
C5195 C 0.62755 0.58239 0.3014 0.0
C5196 C 0.60689 0.58827 0.27589 0.0
C5197 C 0.60962 0.57335 0.26423 0.0
C5198 C 0.62069 0.56238 0.27152 0.0
C5199 C 0.62958 0.56685 0.28994 0.0
C5200 C 0.6028 0.5708 0.24395 0.0
C5201 C 0.6151 0.57248 0.23197 0.0
C5202 C 0.58484 0.56866 0.23654 0.0
C5203 C 0.57116 0.56596 0.24847 0.0
C5204 C 0.56964 0.55158 0.2603 0.0
C5205 C 0.5568 0.54917 0.27159 0.0
C5206 C 0.54532 0.56097 0.27109 0.0
C5207 C 0.54663 0.57519 0.25927 0.0
C5208 C 0.55946 0.57768 0.24797 0.0
C5209 C 0.58746 0.56122 0.1532 0.0
C5210 C 0.58029 0.57606 0.1474 0.0
C5211 C 0.5903 0.55875 0.172 0.0
C5212 C 0.58634 0.5713 0.18532 0.0
C5213 C 0.57829 0.58547 0.17946 0.0
C5214 C 0.57524 0.58781 0.16059 0.0
C5215 C 0.59217 0.57087 0.20542 0.0
C5216 C 0.57976 0.56881 0.21731 0.0
C5217 C 0.61008 0.57277 0.21286 0.0
C5218 C 0.62399 0.57611 0.20125 0.0
C5219 C 0.62669 0.59198 0.19128 0.0
C5220 C 0.63965 0.59488 0.18015 0.0
C5221 C 0.65013 0.5821 0.17903 0.0
C5222 C 0.64769 0.56642 0.18908 0.0
C5223 C 0.63471 0.56344 0.2002 0.0
H5224 H 0.66016 0.58436 0.17041 0.0
H5225 H 0.53538 0.55908 0.27983 0.0
H5226 H 0.31407 0.87459 0.97813 0.0
H5227 H 0.3093 0.86392 0.94493 0.0
H5228 H 0.26914 0.89422 0.935 0.0
H5229 H 0.27419 0.90547 0.96848 0.0
H5230 H 0.28316 0.84246 0.92108 0.0
H5231 H 0.26801 0.90937 0.89456 0.0
H5232 H 0.2748 0.94395 0.90551 0.0
H5233 H 0.32484 0.94223 0.93596 0.0
H5234 H 0.3182 0.90763 0.92551 0.0
H5235 H 0.25756 0.81587 0.8253 0.0
H5236 H 0.25744 0.83098 0.85637 0.0
H5237 H 0.30688 0.87134 0.85518 0.0
H5238 H 0.30668 0.85652 0.82367 0.0
H5239 H 0.28764 0.88841 0.87444 0.0
H5240 H 0.30544 0.83001 0.87546 0.0
H5241 H 0.30277 0.79574 0.8669 0.0
H5242 H 0.25518 0.78103 0.88939 0.0
H5243 H 0.25745 0.81525 0.89786 0.0
C5244 C 0.30414 0.87899 0.96898 0.0
C5245 C 0.29455 0.89099 0.97608 0.0
C5246 C 0.3014 0.8728 0.94991 0.0
C5247 C 0.28899 0.87838 0.93732 0.0
C5248 C 0.27902 0.88996 0.94435 0.0
C5249 C 0.28182 0.89627 0.96353 0.0
C5250 C 0.28677 0.87205 0.91692 0.0
C5251 C 0.28399 0.85252 0.9109 0.0
C5252 C 0.28827 0.88512 0.90357 0.0
C5253 C 0.2926 0.90599 0.90928 0.0
C5254 C 0.2805 0.91644 0.90348 0.0
C5255 C 0.28429 0.936 0.90964 0.0
C5256 C 0.30027 0.94529 0.9213 0.0
C5257 C 0.31247 0.93503 0.92691 0.0
C5258 C 0.30867 0.91544 0.92096 0.0
C5259 C 0.26822 0.82823 0.8315 0.0
C5260 C 0.28216 0.83501 0.8221 0.0
C5261 C 0.26819 0.83683 0.84932 0.0
C5262 C 0.28236 0.85205 0.85839 0.0
C5263 C 0.29581 0.8596 0.84855 0.0
C5264 C 0.29569 0.85115 0.83052 0.0
C5265 C 0.28388 0.85876 0.87861 0.0
C5266 C 0.28656 0.87833 0.88459 0.0
C5267 C 0.28287 0.84577 0.89208 0.0
C5268 C 0.28152 0.82518 0.88712 0.0
C5269 C 0.29435 0.81947 0.87847 0.0
C5270 C 0.29291 0.80005 0.87364 0.0
C5271 C 0.27879 0.78621 0.87755 0.0
C5272 C 0.2661 0.79176 0.88634 0.0
C5273 C 0.26746 0.81116 0.89117 0.0
H5274 H 0.27769 0.77119 0.8738 0.0
H5275 H 0.30318 0.96043 0.92603 0.0
H5276 H 0.96423 0.67465 0.74367 0.0
H5277 H 0.96914 0.67738 0.71166 0.0
H5278 H 0.02357 0.6782 0.72891 0.0
H5279 H 0.01883 0.67543 0.76078 0.0
H5280 H 1.0027 0.69872 0.68959 0.0
H5281 H 0.01818 0.63262 0.71257 0.0
H5282 H 0.01113 0.61032 0.73566 0.0
H5283 H 0.95828 0.61635 0.72834 0.0
H5284 H 0.96499 0.63846 0.70502 0.0
H5285 H 0.05016 0.65418 0.63185 0.0
H5286 H 0.03756 0.67062 0.65472 0.0
H5287 H 0.98774 0.6284 0.63759 0.0
H5288 H 1.00028 0.61171 0.6151 0.0
H5289 H 1.00014 0.63019 0.6738 0.0
H5290 H 0.99097 0.67346 0.63151 0.0
H5291 H 0.99723 0.69671 0.60924 0.0
H5292 H 0.03398 0.73647 0.65252 0.0
H5293 H 0.02854 0.71318 0.67491 0.0
C5294 C 0.97746 0.67643 0.74085 0.0
C5295 C 0.99106 0.67434 0.75459 0.0
C5296 C 0.98025 0.67809 0.72255 0.0
C5297 C 0.99666 0.67779 0.71797 0.0
C5298 C 0.01083 0.67851 0.73222 0.0
C5299 C 0.00805 0.67675 0.75041 0.0
C5300 C 0.99785 0.67089 0.69877 0.0
C5301 C 1.00204 0.68377 0.68591 0.0
C5302 C 0.99652 0.6513 0.694 0.0
C5303 C 0.99211 0.63722 0.70718 0.0
C5304 C 0.00502 0.62903 0.71579 0.0
C5305 C 1.0011 0.61647 0.72893 0.0
C5306 C 0.98428 0.61195 0.73349 0.0
C5307 C 0.97131 0.61988 0.72482 0.0
C5308 C 0.97516 0.63241 0.71164 0.0
C5309 C 0.03645 0.64859 0.63278 0.0
C5310 C 0.0263 0.63149 0.62186 0.0
C5311 C 0.0292 0.65812 0.64568 0.0
C5312 C 0.01172 0.65071 0.64787 0.0
C5313 C 1.00125 0.63438 0.6361 0.0
C5314 C 0.00845 0.62489 0.62319 0.0
C5315 C 0.0053 0.658 0.66427 0.0
C5316 C 1.00037 0.64512 0.67693 0.0
C5317 C 0.00564 0.67751 0.66849 0.0
C5318 C 0.00943 0.69143 0.65492 0.0
C5319 C 1.00063 0.68702 0.63625 0.0
C5320 C 0.00402 0.70023 0.62358 0.0
C5321 C 0.016 0.71805 0.62945 0.0
C5322 C 0.02474 0.72264 0.64797 0.0
C5323 C 0.02153 0.70941 0.66065 0.0
H5324 H 0.01845 0.72832 0.61965 0.0
H5325 H 0.98128 0.6023 0.74373 0.0
H5326 H 0.28177 0.21711 0.45107 0.0
H5327 H 0.28619 0.22994 0.42167 0.0
H5328 H 0.27129 0.28038 0.44102 0.0
H5329 H 0.26626 0.26736 0.46987 0.0
H5330 H 0.25545 0.26954 0.40755 0.0
H5331 H 0.31553 0.27908 0.43777 0.0
H5332 H 0.3413 0.26964 0.45335 0.0
H5333 H 0.33851 0.23065 0.40484 0.0
H5334 H 0.31257 0.23969 0.38906 0.0
H5335 H 0.29347 0.33292 0.34472 0.0
H5336 H 0.28891 0.31753 0.3729 0.0
H5337 H 0.28335 0.2625 0.34216 0.0
H5338 H 0.28727 0.27767 0.31385 0.0
H5339 H 0.30913 0.27411 0.3798 0.0
H5340 H 0.24894 0.2657 0.34979 0.0
H5341 H 0.22336 0.27588 0.33488 0.0
H5342 H 0.22747 0.31463 0.38398 0.0
H5343 H 0.2532 0.30479 0.39914 0.0
C5344 C 0.27963 0.23102 0.4491 0.0
C5345 C 0.27362 0.24116 0.46283 0.0
C5346 C 0.2822 0.2384 0.43228 0.0
C5347 C 0.27916 0.25626 0.42902 0.0
C5348 C 0.2736 0.26654 0.44299 0.0
C5349 C 0.2708 0.25908 0.45958 0.0
C5350 C 0.28115 0.26415 0.41096 0.0
C5351 C 0.26732 0.27071 0.40168 0.0
C5352 C 0.29642 0.26537 0.40287 0.0
C5353 C 0.312 0.25991 0.41232 0.0
C5354 C 0.32033 0.26839 0.43049 0.0
C5355 C 0.33498 0.26313 0.43934 0.0
C5356 C 0.34151 0.24951 0.43011 0.0
C5357 C 0.33342 0.24117 0.41198 0.0
C5358 C 0.31876 0.24636 0.40307 0.0
C5359 C 0.29115 0.31753 0.34397 0.0
C5360 C 0.2907 0.3065 0.3271 0.0
C5361 C 0.28856 0.30877 0.36005 0.0
C5362 C 0.28586 0.28888 0.35962 0.0
C5363 C 0.28546 0.27786 0.3428 0.0
C5364 C 0.28763 0.28654 0.32663 0.0
C5365 C 0.28358 0.27965 0.37678 0.0
C5366 C 0.29731 0.27286 0.38579 0.0
C5367 C 0.26833 0.2784 0.38475 0.0
C5368 C 0.25313 0.28467 0.37552 0.0
C5369 C 0.24454 0.27658 0.35732 0.0
C5370 C 0.22997 0.28224 0.34884 0.0
C5371 C 0.22383 0.29594 0.35846 0.0
C5372 C 0.23226 0.30403 0.37655 0.0
C5373 C 0.24682 0.2984 0.3851 0.0
H5374 H 0.21247 0.30021 0.35195 0.0
H5375 H 0.35285 0.24546 0.43699 0.0
H5376 H 0.34013 0.6954 0.51735 0.0
H5377 H 0.36467 0.68088 0.51637 0.0
H5378 H 0.33815 0.6336 0.54216 0.0
H5379 H 0.3137 0.64821 0.54352 0.0
H5380 H 0.37265 0.64475 0.55699 0.0
H5381 H 0.33815 0.63015 0.49455 0.0
H5382 H 0.32353 0.63825 0.46523 0.0
H5383 H 0.37306 0.67272 0.45658 0.0
H5384 H 0.38795 0.665 0.48597 0.0
H5385 H 0.41731 0.57553 0.53576 0.0
H5386 H 0.39591 0.59393 0.53848 0.0
H5387 H 0.42378 0.63652 0.50848 0.0
H5388 H 0.44455 0.6174 0.50441 0.0
H5389 H 0.39034 0.6302 0.49641 0.0
H5390 H 0.42558 0.64294 0.55725 0.0
H5391 H 0.44057 0.63492 0.58638 0.0
H5392 H 0.39078 0.60508 0.59854 0.0
H5393 H 0.37547 0.6126 0.56931 0.0
C5394 C 0.33951 0.68193 0.52286 0.0
C5395 C 0.32484 0.67294 0.53042 0.0
C5396 C 0.35356 0.6736 0.52223 0.0
C5397 C 0.35321 0.65599 0.52897 0.0
C5398 C 0.33876 0.64718 0.53686 0.0
C5399 C 0.32473 0.65553 0.53756 0.0
C5400 C 0.36771 0.64654 0.52751 0.0
C5401 C 0.37641 0.6414 0.54372 0.0
C5402 C 0.37304 0.64267 0.5103 0.0
C5403 C 0.36413 0.64715 0.49254 0.0
C5404 C 0.3459 0.63955 0.48645 0.0
C5405 C 0.33757 0.64406 0.46981 0.0
C5406 C 0.34735 0.65603 0.45907 0.0
C5407 C 0.3655 0.66347 0.46492 0.0
C5408 C 0.37389 0.65902 0.48156 0.0
C5409 C 0.41883 0.58866 0.52946 0.0
C5410 C 0.43272 0.59482 0.51973 0.0
C5411 C 0.40668 0.59938 0.53133 0.0
C5412 C 0.40832 0.61685 0.52398 0.0
C5413 C 0.42222 0.62315 0.51437 0.0
C5414 C 0.43425 0.61226 0.51223 0.0
C5415 C 0.39519 0.62816 0.52587 0.0
C5416 C 0.38673 0.63367 0.50974 0.0
C5417 C 0.3902 0.63249 0.54319 0.0
C5418 C 0.39937 0.62824 0.56099 0.0
C5419 C 0.41782 0.63458 0.56607 0.0
C5420 C 0.42638 0.63011 0.5826 0.0
C5421 C 0.41664 0.61948 0.59429 0.0
C5422 C 0.39831 0.61331 0.58948 0.0
C5423 C 0.38967 0.61769 0.57293 0.0
H5424 H 0.42328 0.61606 0.6071 0.0
H5425 H 0.34088 0.65952 0.4462 0.0
H5426 H 0.86662 0.93292 0.55092 0.0
H5427 H 0.8936 0.95612 0.54922 0.0
H5428 H 0.86561 0.9997 0.54297 0.0
H5429 H 0.83784 0.97595 0.54416 0.0
H5430 H 0.88869 0.00186 0.51907 0.0
H5431 H 0.89335 1.00033 0.58403 0.0
H5432 H 0.89181 0.98629 0.61344 0.0
H5433 H 0.93173 0.95829 0.60328 0.0
H5434 H 0.93334 0.97192 0.57367 0.0
H5435 H 0.97696 0.06766 0.53509 0.0
H5436 H 0.94654 0.0519 0.53769 0.0
H5437 H 0.95854 0.99716 0.53362 0.0
H5438 H 0.98879 0.01274 0.53059 0.0
H5439 H 0.94249 0.00619 0.56535 0.0
H5440 H 0.9347 0.00621 0.49823 0.0
H5441 H 0.93622 0.02174 0.46962 0.0
H5442 H 0.90218 0.05532 0.48577 0.0
H5443 H 0.90068 0.04018 0.51464 0.0
C5444 C 0.866 0.94742 0.5493 0.0
C5445 C 0.8499 0.95249 0.54775 0.0
C5446 C 0.88162 0.96079 0.54843 0.0
C5447 C 0.88182 0.97982 0.54631 0.0
C5448 C 0.86583 0.98512 0.54475 0.0
C5449 C 0.84998 0.97157 0.54554 0.0
C5450 C 0.89887 0.99361 0.54527 0.0
C5451 C 0.90037 0.00316 0.52943 0.0
C5452 C 0.91424 0.99531 0.55869 0.0
C5453 C 0.9134 0.98709 0.57655 0.0
C5454 C 0.90173 0.99108 0.588 0.0
C5455 C 0.90085 0.9832 0.60472 0.0
C5456 C 0.91165 0.97139 0.61022 0.0
C5457 C 0.92337 0.96745 0.59901 0.0
C5458 C 0.92429 0.97528 0.58227 0.0
C5459 C 0.97303 0.05224 0.53451 0.0
C5460 C 0.98527 0.04144 0.53267 0.0
C5461 C 0.95566 0.04326 0.53599 0.0
C5462 C 0.95029 0.02336 0.53591 0.0
C5463 C 0.96242 0.01254 0.53375 0.0
C5464 C 0.97968 0.02145 0.53195 0.0
C5465 C 0.93232 0.0138 0.53892 0.0
C5466 C 0.93073 0.00512 0.55519 0.0
C5467 C 0.91691 0.01322 0.52608 0.0
C5468 C 0.91776 0.02224 0.5087 0.0
C5469 C 0.92768 0.01704 0.49577 0.0
C5470 C 0.92851 0.02574 0.47949 0.0
C5471 C 0.91935 0.03956 0.47591 0.0
C5472 C 0.9093 0.04465 0.48858 0.0
C5473 C 0.90845 0.03601 0.5049 0.0
H5474 H 0.92 0.04628 0.46329 0.0
H5475 H 0.91095 0.9653 0.62317 0.0
H5476 H 0.86753 0.07178 0.25719 0.0
H5477 H 0.85393 0.09728 0.26575 0.0
H5478 H 0.86223 0.12048 0.21453 0.0
H5479 H 0.87589 0.0952 0.20591 0.0
H5480 H 0.87314 0.1479 0.24483 0.0
H5481 H 0.82178 0.09609 0.21938 0.0
H5482 H 0.80248 0.06348 0.217 0.0
H5483 H 0.79619 0.0739 0.27388 0.0
H5484 H 0.81566 0.10651 0.27666 0.0
H5485 H 0.81855 0.21106 0.23812 0.0
H5486 H 0.83385 0.18612 0.23425 0.0
H5487 H 0.81866 0.1647 0.28418 0.0
H5488 H 0.80314 0.1896 0.28801 0.0
H5489 H 0.81218 0.13634 0.25733 0.0
H5490 H 0.86435 0.18664 0.28407 0.0
H5491 H 0.88554 0.21843 0.28812 0.0
H5492 H 0.89035 0.21097 0.23051 0.0
H5493 H 0.86966 0.17887 0.22627 0.0
C5494 C 0.86635 0.08224 0.24769 0.0
C5495 C 0.87281 0.08148 0.23088 0.0
C5496 C 0.85855 0.09676 0.25259 0.0
C5497 C 0.85705 0.11072 0.24074 0.0
C5498 C 0.86331 0.10987 0.22388 0.0
C5499 C 0.87105 0.09535 0.21895 0.0
C5500 C 0.84936 0.12655 0.24604 0.0
C5501 C 0.85975 0.14539 0.24739 0.0
C5502 C 0.83211 0.12323 0.24998 0.0
C5503 C 0.82033 0.10367 0.24829 0.0
C5504 C 0.8164 0.09138 0.23142 0.0
C5505 C 0.8054 0.0729 0.22999 0.0
C5506 C 0.79815 0.0666 0.2453 0.0
C5507 C 0.80184 0.07879 0.26204 0.0
C5508 C 0.81284 0.09727 0.26355 0.0
C5509 C 0.81868 0.20121 0.24841 0.0
C5510 C 0.80961 0.20224 0.26333 0.0
C5511 C 0.82751 0.187 0.24625 0.0
C5512 C 0.82762 0.17367 0.25906 0.0
C5513 C 0.81876 0.17484 0.27412 0.0
C5514 C 0.80983 0.18899 0.27624 0.0
C5515 C 0.83591 0.15777 0.25593 0.0
C5516 C 0.82563 0.13889 0.25496 0.0
C5517 C 0.85333 0.16102 0.25249 0.0
C5518 C 0.86536 0.18047 0.25482 0.0
C5519 C 0.86987 0.19184 0.27225 0.0
C5520 C 0.88185 0.20985 0.2746 0.0
C5521 C 0.88912 0.2168 0.25954 0.0
C5522 C 0.88465 0.20561 0.24215 0.0
C5523 C 0.87292 0.18744 0.2398 0.0
H5524 H 0.89829 0.23081 0.26137 0.0
H5525 H 0.78964 0.05229 0.24416 0.0
H5526 H 0.71335 0.19979 0.00766 0.0
H5527 H 0.68599 0.17547 0.00625 0.0
H5528 H 0.71483 0.13273 0.01365 0.0
H5529 H 0.74259 0.15729 0.01545 0.0
H5530 H 0.6688 0.14379 0.9843 0.0
H5531 H 0.69317 0.1004 0.03985 0.0
H5532 H 0.71704 0.1043 0.06689 0.0
H5533 H 0.72072 0.16439 0.07611 0.0
H5534 H 0.69674 0.16079 0.04928 0.0
H5535 H 0.59323 0.07042 0.99275 0.0
H5536 H 0.62324 0.08595 0.98892 0.0
H5537 H 0.63226 0.11935 0.04279 0.0
H5538 H 0.60268 0.10356 0.04697 0.0
H5539 H 0.6605 0.10884 0.03899 0.0
H5540 H 0.62087 0.13698 0.00029 0.0
H5541 H 0.59605 0.13607 0.97518 0.0
H5542 H 0.6215 0.1118 0.93528 0.0
H5543 H 0.64639 0.11238 0.96023 0.0
C5544 C 0.71397 0.18522 0.00889 0.0
C5545 C 0.73024 0.18056 0.01185 0.0
C5546 C 0.69823 0.17126 0.00796 0.0
C5547 C 0.6983 0.15227 0.00998 0.0
C5548 C 0.71445 0.14734 0.01227 0.0
C5549 C 0.73031 0.16138 0.01323 0.0
C5550 C 0.68144 0.13812 0.01066 0.0
C5551 C 0.66705 0.13596 0.99616 0.0
C5552 C 0.67903 0.12803 0.02619 0.0
C5553 C 0.69335 0.13035 0.04242 0.0
C5554 C 0.69907 0.11443 0.04768 0.0
C5555 C 0.71261 0.11659 0.06296 0.0
C5556 C 0.72044 0.13459 0.07316 0.0
C5557 C 0.7147 0.15047 0.06815 0.0
C5558 C 0.70115 0.14838 0.0529 0.0
C5559 C 0.60166 0.081 0.00383 0.0
C5560 C 0.59549 0.08579 0.02014 0.0
C5561 C 0.61881 0.0899 0.00159 0.0
C5562 C 0.63 0.10401 0.01548 0.0
C5563 C 0.62396 0.10848 0.0319 0.0
C5564 C 0.60695 0.09946 0.03423 0.0
C5565 C 0.64775 0.11482 0.01281 0.0
C5566 C 0.66233 0.11631 0.02692 0.0
C5567 C 0.65023 0.1247 0.99714 0.0
C5568 C 0.63537 0.12452 0.98214 0.0
C5569 C 0.62111 0.13135 0.98618 0.0
C5570 C 0.60704 0.13091 0.97198 0.0
C5571 C 0.60717 0.12383 0.95365 0.0
C5572 C 0.6214 0.11724 0.94948 0.0
C5573 C 0.63549 0.11764 0.96364 0.0
H5574 H 0.59626 0.12349 0.94268 0.0
H5575 H 0.73093 0.13624 0.08498 0.0
H5576 H 0.16994 0.4625 0.28739 0.0
H5577 H 0.19261 0.44539 0.29383 0.0
H5578 H 0.17574 0.41378 0.23874 0.0
H5579 H 0.15287 0.43074 0.2322 0.0
H5580 H 0.18073 0.39064 0.26516 0.0
H5581 H 0.21273 0.44987 0.2482 0.0
H5582 H 0.22282 0.48498 0.25018 0.0
H5583 H 0.24744 0.48822 0.30727 0.0
H5584 H 0.23728 0.45312 0.30569 0.0
H5585 H 0.27457 0.37941 0.26625 0.0
H5586 H 0.25449 0.40008 0.26351 0.0
H5587 H 0.22676 0.37111 0.30351 0.0
H5588 H 0.24636 0.34994 0.30574 0.0
H5589 H 0.24402 0.42472 0.28419 0.0
H5590 H 0.18156 0.36591 0.28944 0.0
H5591 H 0.17099 0.33075 0.28588 0.0
H5592 H 0.20721 0.32604 0.24903 0.0
H5593 H 0.21748 0.36118 0.2517 0.0
C5594 C 0.17105 0.45195 0.2766 0.0
C5595 C 0.15962 0.44802 0.25925 0.0
C5596 C 0.18406 0.44222 0.2803 0.0
C5597 C 0.18594 0.42842 0.26671 0.0
C5598 C 0.1745 0.42438 0.24941 0.0
C5599 C 0.16149 0.43414 0.24568 0.0
C5600 C 0.19974 0.41807 0.27063 0.0
C5601 C 0.19457 0.39806 0.26934 0.0
C5602 C 0.21779 0.4278 0.27596 0.0
C5603 C 0.2241 0.44888 0.27687 0.0
C5604 C 0.22019 0.45808 0.26121 0.0
C5605 C 0.22594 0.47798 0.26225 0.0
C5606 C 0.23573 0.48883 0.27886 0.0
C5607 C 0.23984 0.47979 0.29442 0.0
C5608 C 0.23411 0.4599 0.29346 0.0
C5609 C 0.26446 0.37776 0.27478 0.0
C5610 C 0.2619 0.36294 0.28603 0.0
C5611 C 0.25295 0.38955 0.27318 0.0
C5612 C 0.23882 0.38681 0.28293 0.0
C5613 C 0.23726 0.37315 0.29547 0.0
C5614 C 0.24854 0.36114 0.29681 0.0
C5615 C 0.22504 0.39721 0.27885 0.0
C5616 C 0.23018 0.41725 0.28011 0.0
C5617 C 0.20695 0.38745 0.27327 0.0
C5618 C 0.20053 0.36624 0.27105 0.0
C5619 C 0.18722 0.35739 0.2805 0.0
C5620 C 0.18126 0.33745 0.27862 0.0
C5621 C 0.18857 0.32616 0.26742 0.0
C5622 C 0.20165 0.3348 0.25781 0.0
C5623 C 0.20749 0.35474 0.25944 0.0
H5624 H 0.18403 0.31073 0.2661 0.0
H5625 H 0.24014 0.50424 0.27964 0.0
H5626 H 0.26233 0.45642 0.05787 0.0
H5627 H 0.23799 0.47124 0.05964 0.0
H5628 H 0.22827 0.46915 0.99977 0.0
H5629 H 0.25267 0.45469 0.99792 0.0
H5630 H 0.22622 0.50248 0.01532 0.0
H5631 H 0.20217 0.43666 0.02306 0.0
H5632 H 0.20103 0.40714 0.03771 0.0
H5633 H 0.19761 0.4364 0.08993 0.0
H5634 H 0.19895 0.46618 0.07564 0.0
H5635 H 0.14133 0.51792 1.00019 0.0
H5636 H 0.16566 0.50287 0.00078 0.0
H5637 H 0.17318 0.50788 0.06079 0.0
H5638 H 0.14883 0.52303 0.06032 0.0
H5639 H 0.17689 0.47389 0.04672 0.0
H5640 H 0.20007 0.53941 0.03885 0.0
H5641 H 0.20119 0.56897 0.02429 0.0
H5642 H 0.20649 0.54042 0.97251 0.0
H5643 H 0.20514 0.51059 0.98669 0.0
C5644 C 0.25507 0.45919 0.04508 0.0
C5645 C 0.2595 0.45429 0.02774 0.0
C5646 C 0.24105 0.46757 0.0461 0.0
C5647 C 0.23106 0.47112 0.02981 0.0
C5648 C 0.2357 0.46656 0.01256 0.0
C5649 C 0.24969 0.45823 0.01152 0.0
C5650 C 0.21579 0.47957 0.03061 0.0
C5651 C 0.21536 0.49606 0.02201 0.0
C5652 C 0.20174 0.47159 0.03974 0.0
C5653 C 0.20084 0.45369 0.04833 0.0
C5654 C 0.2013 0.43683 0.0377 0.0
C5655 C 0.2006 0.42005 0.04593 0.0
C5656 C 0.1993 0.41991 0.06475 0.0
C5657 C 0.19864 0.43654 0.07536 0.0
C5658 C 0.19936 0.45337 0.0672 0.0
C5659 C 0.14816 0.51587 0.01354 0.0
C5660 C 0.14319 0.52192 0.03022 0.0
C5661 C 0.1621 0.50723 0.01385 0.0
C5662 C 0.17155 0.50453 0.03085 0.0
C5663 C 0.16618 0.50984 0.04749 0.0
C5664 C 0.15218 0.51846 0.04719 0.0
C5665 C 0.18726 0.49664 0.03122 0.0
C5666 C 0.18779 0.48031 0.04007 0.0
C5667 C 0.20143 0.50477 0.02233 0.0
C5668 C 0.20234 0.52272 0.01379 0.0
C5669 C 0.20134 0.53939 0.02432 0.0
C5670 C 0.20204 0.5562 0.01614 0.0
C5671 C 0.20386 0.55656 0.99748 0.0
C5672 C 0.20505 0.54011 0.98696 0.0
C5673 C 0.20434 0.52325 0.99507 0.0
H5674 H 0.2044 0.56959 0.99117 0.0
H5675 H 0.19876 0.40691 0.0711 0.0
H5676 H 0.85482 0.00208 0.20381 0.0
H5677 H 0.83375 0.97453 0.21168 0.0
H5678 H 0.87365 0.94343 0.21635 0.0
H5679 H 0.89437 0.97038 0.20773 0.0
H5680 H 0.84451 0.91992 0.20163 0.0
H5681 H 0.86309 0.96842 0.2552 0.0
H5682 H 0.86727 1.00057 0.27194 0.0
H5683 H 0.8115 0.99426 0.26001 0.0
H5684 H 0.80702 0.96214 0.24301 0.0
H5685 H 0.80839 0.87275 0.28332 0.0
H5686 H 0.82465 0.90063 0.27089 0.0
H5687 H 0.79097 0.88141 0.21714 0.0
H5688 H 0.77474 0.85344 0.22947 0.0
H5689 H 0.81542 0.93014 0.25551 0.0
H5690 H 0.81689 0.89094 0.18368 0.0
H5691 H 0.81696 0.85891 0.16954 0.0
H5692 H 0.8388 0.84628 0.22288 0.0
H5693 H 0.83903 0.87825 0.23736 0.0
C5694 C 0.859 0.98925 0.20626 0.0
C5695 C 0.8763 0.98847 0.20523 0.0
C5696 C 0.84698 0.97355 0.21088 0.0
C5697 C 0.85219 0.95699 0.21497 0.0
C5698 C 0.86927 0.95599 0.21326 0.0
C5699 C 0.88115 0.97149 0.20836 0.0
C5700 C 0.8403 0.94092 0.22181 0.0
C5701 C 0.83804 0.9222 0.21331 0.0
C5702 C 0.83209 0.94378 0.23729 0.0
C5703 C 0.83474 0.96298 0.24768 0.0
C5704 C 0.85174 0.97394 0.25607 0.0
C5705 C 0.85416 0.99215 0.26561 0.0
C5706 C 0.83967 0.99948 0.26699 0.0
C5707 C 0.82272 0.98858 0.2589 0.0
C5708 C 0.82022 0.97037 0.24932 0.0
C5709 C 0.80438 0.87457 0.2689 0.0
C5710 C 0.79037 0.86094 0.25733 0.0
C5711 C 0.81364 0.89051 0.26183 0.0
C5712 C 0.8091 0.893 0.24306 0.0
C5713 C 0.79479 0.87965 0.23162 0.0
C5714 C 0.78549 0.86374 0.2387 0.0
C5715 C 0.81973 0.90924 0.23535 0.0
C5716 C 0.82171 0.92793 0.24366 0.0
C5717 C 0.82815 0.90633 0.22008 0.0
C5718 C 0.82776 0.88692 0.21161 0.0
C5719 C 0.82168 0.88131 0.1924 0.0
C5720 C 0.82169 0.86317 0.18434 0.0
C5721 C 0.82785 0.85057 0.19534 0.0
C5722 C 0.83397 0.85604 0.21443 0.0
C5723 C 0.83399 0.87414 0.22258 0.0
H5724 H 0.82796 0.83661 0.18908 0.0
H5725 H 0.84157 0.01358 0.27437 0.0
H5726 H 0.62488 0.04124 0.73577 0.0
H5727 H 0.64082 0.07479 0.73781 0.0
H5728 H 0.689 0.05842 0.73494 0.0
H5729 H 0.67315 0.02473 0.73324 0.0
H5730 H 0.69426 0.08833 0.76125 0.0
H5731 H 0.6668 0.07176 0.69701 0.0
H5732 H 0.64213 0.05859 0.67074 0.0
H5733 H 0.61572 0.09992 0.6886 0.0
H5734 H 0.64011 0.11317 0.71515 0.0
H5735 H 0.74164 0.17959 0.74262 0.0
H5736 H 0.72745 0.14545 0.74096 0.0
H5737 H 0.6777 0.15823 0.74381 0.0
H5738 H 0.69179 0.19236 0.74544 0.0
H5739 H 0.67421 0.12969 0.71667 0.0
H5740 H 0.70144 0.14559 0.78147 0.0
H5741 H 0.72609 0.15853 0.8078 0.0
H5742 H 0.75312 0.11836 0.78866 0.0
H5743 H 0.72872 0.10535 0.76205 0.0
C5744 C 0.63885 0.04475 0.73553 0.0
C5745 C 0.64775 0.03035 0.73422 0.0
C5746 C 0.64793 0.06393 0.73665 0.0
C5747 C 0.66603 0.06906 0.73625 0.0
C5748 C 0.67502 0.05474 0.73521 0.0
C5749 C 0.66594 0.03552 0.73419 0.0
C5750 C 0.67555 0.0894 0.737 0.0
C5751 C 0.69006 0.09733 0.75134 0.0
C5752 C 0.66984 0.10116 0.72425 0.0
C5753 C 0.65523 0.09336 0.70816 0.0
C5754 C 0.65568 0.07796 0.69541 0.0
C5755 C 0.64175 0.07049 0.68046 0.0
C5756 C 0.62735 0.07838 0.67802 0.0
C5757 C 0.62687 0.09381 0.69051 0.0
C5758 C 0.64076 0.10132 0.7055 0.0
C5759 C 0.72772 0.17512 0.74312 0.0
C5760 C 0.71781 0.18862 0.74416 0.0
C5761 C 0.71963 0.15563 0.74214 0.0
C5762 C 0.70155 0.14934 0.74239 0.0
C5763 C 0.69166 0.1628 0.74353 0.0
C5764 C 0.69971 0.18226 0.74443 0.0
C5765 C 0.6928 0.1287 0.74106 0.0
C5766 C 0.67845 0.12069 0.72655 0.0
C5767 C 0.69869 0.11688 0.75363 0.0
C5768 C 0.71333 0.12463 0.76967 0.0
C5769 C 0.7127 0.13962 0.78279 0.0
C5770 C 0.72662 0.14695 0.79778 0.0
C5771 C 0.74119 0.13931 0.79987 0.0
C5772 C 0.74184 0.12428 0.787 0.0
C5773 C 0.72797 0.11691 0.77198 0.0
H5774 H 0.75195 0.145 0.81149 0.0
H5775 H 0.61657 0.07257 0.66645 0.0
loop_
_geom_bond_atom_site_label_1
_geom_bond_atom_site_label_2
_geom_bond_distance
_geom_bond_site_symmetry_2
_ccdc_geom_bond_type
Zn0 O3 2.031 . S
Zn0 O5 2.049 . S
Zn0 O10 2.067 . S
Zn1 O2 1.962 . S
Zn1 O4 1.986 . S
Zn1 O6 1.996 . S
Zn1 O9 1.943 1_455 S
O2 Zn1 1.962 . S
O2 C7 1.254 . S
O3 Zn0 2.031 . S
O3 C7 1.269 1_655 S
O4 Zn1 1.986 . S
O4 C11 1.262 . S
O5 Zn0 2.049 . S
O5 C13 1.260 . S
O6 Zn1 1.996 . S
O6 C13 1.257 1_455 S
C7 O2 1.254 . S
C7 O3 1.269 1_455 S
C8 O9 1.249 . S
C8 O10 1.270 . S
O9 Zn1 1.943 1_655 S
O9 C8 1.249 . S
O10 Zn0 2.067 . S
O10 C8 1.270 . S
C11 O4 1.262 . S
C11 O12 1.232 . S
O12 C11 1.232 . S
C13 O5 1.260 . S
C13 O6 1.257 1_655 S
Zn14 O17 2.031 . S
Zn14 O19 2.049 . S
Zn14 O24 2.067 . S
Zn15 O16 1.962 . S
Zn15 O18 1.986 . S
Zn15 O20 1.996 . S
Zn15 O23 1.943 . S
O16 Zn15 1.962 . S
O16 C21 1.254 . S
O17 Zn14 2.031 . S
O17 C21 1.269 . S
O18 Zn15 1.986 . S
O18 C25 1.262 . S
O19 Zn14 2.049 . S
O19 C27 1.260 . S
O20 Zn15 1.996 . S
O20 C27 1.257 . S
C21 O16 1.254 . S
C21 O17 1.269 . S
C22 O23 1.249 . S
C22 O24 1.270 . S
O23 Zn15 1.943 . S
O23 C22 1.249 . S
O24 Zn14 2.067 . S
O24 C22 1.270 . S
C25 O18 1.262 . S
C25 O26 1.232 . S
O26 C25 1.232 . S
C27 O19 1.260 . S
C27 O20 1.257 . S
Zn28 O31 2.031 . S
Zn28 O33 2.049 . S
Zn28 O38 2.067 . S
Zn29 O30 1.962 . S
Zn29 O32 1.986 . S
Zn29 O34 1.996 . S
Zn29 O37 1.943 . S
O30 Zn29 1.962 . S
O30 C35 1.254 . S
O31 Zn28 2.031 . S
O31 C35 1.269 . S
O32 Zn29 1.986 . S
O32 C39 1.262 . S
O33 Zn28 2.049 . S
O33 C41 1.260 . S
O34 Zn29 1.996 . S
O34 C41 1.257 . S
C35 O30 1.254 . S
C35 O31 1.269 . S
C36 O37 1.249 . S
C36 O38 1.270 . S
O37 Zn29 1.943 . S
O37 C36 1.249 . S
O38 Zn28 2.067 . S
O38 C36 1.270 . S
C39 O32 1.262 . S
C39 O40 1.232 . S
O40 C39 1.232 . S
C41 O33 1.260 . S
C41 O34 1.257 . S
Zn42 O45 2.031 . S
Zn42 O47 2.049 . S
Zn42 O52 2.067 . S
Zn43 O44 1.962 . S
Zn43 O46 1.986 . S
Zn43 O48 1.996 . S
Zn43 O51 1.943 . S
O44 Zn43 1.962 . S
O44 C49 1.254 . S
O45 Zn42 2.031 . S
O45 C49 1.269 . S
O46 Zn43 1.986 . S
O46 C53 1.262 . S
O47 Zn42 2.049 . S
O47 C55 1.260 . S
O48 Zn43 1.996 . S
O48 C55 1.257 . S
C49 O44 1.254 . S
C49 O45 1.269 . S
C50 O51 1.249 . S
C50 O52 1.270 . S
O51 Zn43 1.943 . S
O51 C50 1.249 . S
O52 Zn42 2.067 . S
O52 C50 1.270 . S
C53 O46 1.262 . S
C53 O54 1.232 . S
O54 C53 1.232 . S
C55 O47 1.260 . S
C55 O48 1.257 . S
Zn56 O59 2.031 . S
Zn56 O61 2.049 . S
Zn56 O66 2.067 . S
Zn57 O58 1.962 . S
Zn57 O60 1.986 . S
Zn57 O62 1.996 . S
Zn57 O65 1.943 . S
O58 Zn57 1.962 . S
O58 C63 1.254 . S
O59 Zn56 2.031 . S
O59 C63 1.269 . S
O60 Zn57 1.986 . S
O60 C67 1.262 . S
O61 Zn56 2.049 . S
O61 C69 1.260 . S
O62 Zn57 1.996 . S
O62 C69 1.257 . S
C63 O58 1.254 . S
C63 O59 1.269 . S
C64 O65 1.249 . S
C64 O66 1.270 . S
O65 Zn57 1.943 . S
O65 C64 1.249 . S
O66 Zn56 2.067 . S
O66 C64 1.270 . S
C67 O60 1.262 . S
C67 O68 1.232 . S
O68 C67 1.232 . S
C69 O61 1.260 . S
C69 O62 1.257 . S
Zn70 O73 2.031 . S
Zn70 O75 2.049 . S
Zn70 O80 2.067 . S
Zn71 O72 1.962 . S
Zn71 O74 1.986 . S
Zn71 O76 1.996 . S
Zn71 O79 1.943 . S
O72 Zn71 1.962 . S
O72 C77 1.254 . S
O73 Zn70 2.031 . S
O73 C77 1.269 . S
O74 Zn71 1.986 . S
O74 C81 1.262 . S
O75 Zn70 2.049 . S
O75 C83 1.260 . S
O76 Zn71 1.996 . S
O76 C83 1.257 . S
C77 O72 1.254 . S
C77 O73 1.269 . S
C78 O79 1.249 . S
C78 O80 1.270 . S
O79 Zn71 1.943 . S
O79 C78 1.249 . S
O80 Zn70 2.067 . S
O80 C78 1.270 . S
C81 O74 1.262 . S
C81 O82 1.232 . S
O82 C81 1.232 . S
C83 O75 1.260 . S
C83 O76 1.257 . S
Zn84 O87 2.031 . S
Zn84 O89 2.049 . S
Zn84 O94 2.067 . S
Zn85 O86 1.962 . S
Zn85 O88 1.986 . S
Zn85 O90 1.996 . S
Zn85 O93 1.943 . S
O86 Zn85 1.962 . S
O86 C91 1.254 . S
O87 Zn84 2.031 . S
O87 C91 1.269 . S
O88 Zn85 1.986 . S
O88 C95 1.262 . S
O89 Zn84 2.049 . S
O89 C97 1.260 . S
O90 Zn85 1.996 . S
O90 C97 1.257 . S
C91 O86 1.254 . S
C91 O87 1.269 . S
C92 O93 1.249 . S
C92 O94 1.270 . S
O93 Zn85 1.943 . S
O93 C92 1.249 . S
O94 Zn84 2.067 . S
O94 C92 1.270 . S
C95 O88 1.262 . S
C95 O96 1.232 . S
O96 C95 1.232 . S
C97 O89 1.260 . S
C97 O90 1.257 . S
Zn98 O101 2.031 1_655 S
Zn98 O103 2.049 . S
Zn98 O108 2.067 . S
Zn99 O100 1.962 . S
Zn99 O102 1.986 . S
Zn99 O104 1.996 . S
Zn99 O107 1.943 . S
O100 Zn99 1.962 . S
O100 C105 1.254 . S
O101 Zn98 2.031 1_455 S
O101 C105 1.269 . S
O102 Zn99 1.986 . S
O102 C109 1.262 . S
O103 Zn98 2.049 . S
O103 C111 1.260 1_655 S
O104 Zn99 1.996 . S
O104 C111 1.257 . S
C105 O100 1.254 . S
C105 O101 1.269 . S
C106 O107 1.249 1_655 S
C106 O108 1.270 . S
O107 Zn99 1.943 . S
O107 C106 1.249 1_455 S
O108 Zn98 2.067 . S
O108 C106 1.270 . S
C109 O102 1.262 . S
C109 O110 1.232 . S
O110 C109 1.232 . S
C111 O103 1.260 1_455 S
C111 O104 1.257 . S
Zn112 O115 2.031 . S
Zn112 O117 2.049 . S
Zn112 O122 2.067 . S
Zn113 O114 1.962 . S
Zn113 O116 1.986 . S
Zn113 O118 1.996 . S
Zn113 O121 1.943 . S
O114 Zn113 1.962 . S
O114 C119 1.254 . S
O115 Zn112 2.031 . S
O115 C119 1.269 . S
O116 Zn113 1.986 . S
O116 C123 1.262 . S
O117 Zn112 2.049 . S
O117 C125 1.260 . S
O118 Zn113 1.996 . S
O118 C125 1.257 . S
C119 O114 1.254 . S
C119 O115 1.269 . S
C120 O121 1.249 . S
C120 O122 1.270 . S
O121 Zn113 1.943 . S
O121 C120 1.249 . S
O122 Zn112 2.067 . S
O122 C120 1.270 . S
C123 O116 1.262 . S
C123 O124 1.232 . S
O124 C123 1.232 . S
C125 O117 1.260 . S
C125 O118 1.257 . S
Zn126 O129 2.031 . S
Zn126 O131 2.049 . S
Zn126 O136 2.067 . S
Zn127 O128 1.962 . S
Zn127 O130 1.986 . S
Zn127 O132 1.996 . S
Zn127 O135 1.943 . S
O128 Zn127 1.962 . S
O128 C133 1.254 . S
O129 Zn126 2.031 . S
O129 C133 1.269 . S
O130 Zn127 1.986 . S
O130 C137 1.262 . S
O131 Zn126 2.049 . S
O131 C139 1.260 . S
O132 Zn127 1.996 . S
O132 C139 1.257 . S
C133 O128 1.254 . S
C133 O129 1.269 . S
C134 O135 1.249 . S
C134 O136 1.270 . S
O135 Zn127 1.943 . S
O135 C134 1.249 . S
O136 Zn126 2.067 . S
O136 C134 1.270 . S
C137 O130 1.262 . S
C137 O138 1.232 . S
O138 C137 1.232 . S
C139 O131 1.260 . S
C139 O132 1.257 . S
Zn140 O143 2.031 . S
Zn140 O145 2.049 . S
Zn140 O150 2.067 . S
Zn141 O142 1.962 . S
Zn141 O144 1.986 . S
Zn141 O146 1.996 . S
Zn141 O149 1.943 . S
O142 Zn141 1.962 . S
O142 C147 1.254 . S
O143 Zn140 2.031 . S
O143 C147 1.269 . S
O144 Zn141 1.986 . S
O144 C151 1.262 . S
O145 Zn140 2.049 . S
O145 C153 1.260 . S
O146 Zn141 1.996 . S
O146 C153 1.257 . S
C147 O142 1.254 . S
C147 O143 1.269 . S
C148 O149 1.249 . S
C148 O150 1.270 . S
O149 Zn141 1.943 . S
O149 C148 1.249 . S
O150 Zn140 2.067 . S
O150 C148 1.270 . S
C151 O144 1.262 . S
C151 O152 1.232 . S
O152 C151 1.232 . S
C153 O145 1.260 . S
C153 O146 1.257 . S
Zn154 O157 2.031 . S
Zn154 O159 2.049 . S
Zn154 O164 2.067 . S
Zn155 O156 1.962 . S
Zn155 O158 1.986 . S
Zn155 O160 1.996 . S
Zn155 O163 1.943 . S
O156 Zn155 1.962 . S
O156 C161 1.254 . S
O157 Zn154 2.031 . S
O157 C161 1.269 . S
O158 Zn155 1.986 . S
O158 C165 1.262 . S
O159 Zn154 2.049 . S
O159 C167 1.260 . S
O160 Zn155 1.996 . S
O160 C167 1.257 . S
C161 O156 1.254 . S
C161 O157 1.269 . S
C162 O163 1.249 . S
C162 O164 1.270 . S
O163 Zn155 1.943 . S
O163 C162 1.249 . S
O164 Zn154 2.067 . S
O164 C162 1.270 . S
C165 O158 1.262 . S
C165 O166 1.232 . S
O166 C165 1.232 . S
C167 O159 1.260 . S
C167 O160 1.257 . S
Zn168 O171 2.031 . S
Zn168 O173 2.049 . S
Zn168 O178 2.067 . S
Zn169 O170 1.954 1_554 S
Zn169 O172 1.986 . S
Zn169 O174 1.996 . S
Zn169 O177 1.943 . S
O170 Zn169 1.954 1_556 S
O170 C175 1.258 . S
O171 Zn168 2.031 . S
O171 C175 1.269 1_554 S
O172 Zn169 1.986 . S
O172 C179 1.262 . S
O173 Zn168 2.049 . S
O173 C181 1.260 . S
O174 Zn169 1.996 . S
O174 C181 1.257 . S
C175 O170 1.258 . S
C175 O171 1.269 1_556 S
C176 O177 1.249 . S
C176 O178 1.270 . S
O177 Zn169 1.943 . S
O177 C176 1.249 . S
O178 Zn168 2.067 . S
O178 C176 1.270 . S
C179 O172 1.262 . S
C179 O180 1.232 . S
O180 C179 1.232 . S
C181 O173 1.260 . S
C181 O174 1.257 . S
Zn182 O185 2.031 1_554 S
Zn182 O187 2.049 . S
Zn182 O192 2.067 . S
Zn183 O184 1.965 . S
Zn183 O186 1.984 1_556 S
Zn183 O188 1.994 1_556 S
Zn183 O191 1.943 . S
O184 Zn183 1.965 . S
O184 C189 1.254 . S
O185 Zn182 2.031 1_556 S
O185 C189 1.269 . S
O186 Zn183 1.984 1_554 S
O186 C193 1.260 . S
O187 Zn182 2.049 . S
O187 C195 1.260 . S
O188 Zn183 1.994 1_554 S
O188 C195 1.257 . S
C189 O184 1.254 . S
C189 O185 1.269 . S
C190 O191 1.249 . S
C190 O192 1.270 1_556 S
O191 Zn183 1.943 . S
O191 C190 1.249 . S
O192 Zn182 2.067 . S
O192 C190 1.270 1_554 S
C193 O186 1.260 . S
C193 O194 1.235 1_554 S
O194 C193 1.235 1_556 S
C195 O187 1.260 . S
C195 O188 1.257 . S
Zn196 O199 2.031 . S
Zn196 O201 2.049 . S
Zn196 O206 2.067 . S
Zn197 O198 1.962 . S
Zn197 O200 1.986 . S
Zn197 O202 1.996 . S
Zn197 O205 1.943 . S
O198 Zn197 1.962 . S
O198 C203 1.254 . S
O199 Zn196 2.031 . S
O199 C203 1.269 . S
O200 Zn197 1.986 . S
O200 C207 1.262 . S
O201 Zn196 2.049 . S
O201 C209 1.260 . S
O202 Zn197 1.996 . S
O202 C209 1.257 . S
C203 O198 1.254 . S
C203 O199 1.269 . S
C204 O205 1.249 . S
C204 O206 1.270 . S
O205 Zn197 1.943 . S
O205 C204 1.249 . S
O206 Zn196 2.067 . S
O206 C204 1.270 . S
C207 O200 1.262 . S
C207 O208 1.232 . S
O208 C207 1.232 . S
C209 O201 1.260 . S
C209 O202 1.257 . S
Zn210 O213 2.031 . S
Zn210 O215 2.049 . S
Zn210 O220 2.067 . S
Zn211 O212 1.962 . S
Zn211 O214 1.986 . S
Zn211 O216 1.996 . S
Zn211 O219 1.943 . S
O212 Zn211 1.962 . S
O212 C217 1.254 . S
O213 Zn210 2.031 . S
O213 C217 1.269 . S
O214 Zn211 1.986 . S
O214 C221 1.262 . S
O215 Zn210 2.049 . S
O215 C223 1.260 . S
O216 Zn211 1.996 . S
O216 C223 1.257 . S
C217 O212 1.254 . S
C217 O213 1.269 . S
C218 O219 1.249 . S
C218 O220 1.270 . S
O219 Zn211 1.943 . S
O219 C218 1.249 . S
O220 Zn210 2.067 . S
O220 C218 1.270 . S
C221 O214 1.262 . S
C221 O222 1.232 . S
O222 C221 1.232 . S
C223 O215 1.260 . S
C223 O216 1.257 . S
Zn224 O227 2.031 . S
Zn224 O229 2.049 . S
Zn224 O234 2.067 . S
Zn225 O226 1.962 . S
Zn225 O228 1.986 . S
Zn225 O230 1.996 . S
Zn225 O233 1.943 . S
O226 Zn225 1.962 . S
O226 C231 1.254 . S
O227 Zn224 2.031 . S
O227 C231 1.269 . S
O228 Zn225 1.986 . S
O228 C235 1.262 . S
O229 Zn224 2.049 . S
O229 C237 1.260 . S
O230 Zn225 1.996 . S
O230 C237 1.257 . S
C231 O226 1.254 . S
C231 O227 1.269 . S
C232 O233 1.249 . S
C232 O234 1.270 . S
O233 Zn225 1.943 . S
O233 C232 1.249 . S
O234 Zn224 2.067 . S
O234 C232 1.270 . S
C235 O228 1.262 . S
C235 O236 1.232 . S
O236 C235 1.232 . S
C237 O229 1.260 . S
C237 O230 1.257 . S
Zn238 O241 2.031 . S
Zn238 O243 2.049 . S
Zn238 O248 2.067 . S
Zn239 O240 1.962 . S
Zn239 O242 1.986 . S
Zn239 O244 1.996 . S
Zn239 O247 1.943 . S
O240 Zn239 1.962 . S
O240 C245 1.254 . S
O241 Zn238 2.031 . S
O241 C245 1.269 . S
O242 Zn239 1.986 . S
O242 C249 1.262 . S
O243 Zn238 2.049 . S
O243 C251 1.260 . S
O244 Zn239 1.996 . S
O244 C251 1.257 . S
C245 O240 1.254 . S
C245 O241 1.269 . S
C246 O247 1.249 . S
C246 O248 1.270 . S
O247 Zn239 1.943 . S
O247 C246 1.249 . S
O248 Zn238 2.067 . S
O248 C246 1.270 . S
C249 O242 1.262 . S
C249 O250 1.232 . S
O250 C249 1.232 . S
C251 O243 1.260 . S
C251 O244 1.257 . S
Zn252 O255 2.031 . S
Zn252 O257 2.049 . S
Zn252 O262 2.067 . S
Zn253 O254 1.962 . S
Zn253 O256 1.986 . S
Zn253 O258 1.996 . S
Zn253 O261 1.943 . S
O254 Zn253 1.962 . S
O254 C259 1.254 . S
O255 Zn252 2.031 . S
O255 C259 1.269 . S
O256 Zn253 1.986 . S
O256 C263 1.262 . S
O257 Zn252 2.049 . S
O257 C265 1.260 . S
O258 Zn253 1.996 . S
O258 C265 1.257 . S
C259 O254 1.254 . S
C259 O255 1.269 . S
C260 O261 1.249 . S
C260 O262 1.270 . S
O261 Zn253 1.943 . S
O261 C260 1.249 . S
O262 Zn252 2.067 . S
O262 C260 1.270 . S
C263 O256 1.262 . S
C263 O264 1.232 . S
O264 C263 1.232 . S
C265 O257 1.260 . S
C265 O258 1.257 . S
Zn266 O269 2.031 . S
Zn266 O271 2.049 . S
Zn266 O276 2.067 . S
Zn267 O268 1.962 . S
Zn267 O270 1.986 . S
Zn267 O272 1.996 . S
Zn267 O275 1.943 1_565 S
O268 Zn267 1.962 . S
O268 C273 1.254 1_565 S
O269 Zn266 2.031 . S
O269 C273 1.269 . S
O270 Zn267 1.986 . S
O270 C277 1.262 . S
O271 Zn266 2.049 . S
O271 C279 1.300 . S
O272 Zn267 1.996 . S
O272 C279 1.235 1_565 S
C273 O268 1.254 1_545 S
C273 O269 1.269 . S
C274 O275 1.249 . S
C274 O276 1.270 . S
O275 Zn267 1.943 1_545 S
O275 C274 1.249 . S
O276 Zn266 2.067 . S
O276 C274 1.270 . S
C277 O270 1.262 . S
C277 O278 1.232 . S
O278 C277 1.232 . S
C279 O271 1.300 . S
C279 O272 1.235 1_545 S
Zn280 O283 2.031 1_554 S
Zn280 O285 2.049 . S
Zn280 O290 2.067 . S
Zn281 O282 1.961 . S
Zn281 O284 1.986 . S
Zn281 O286 1.996 . S
Zn281 O289 1.943 . S
O282 Zn281 1.961 . S
O282 C287 1.254 1_554 S
O283 Zn280 2.031 1_556 S
O283 C287 1.269 . S
O284 Zn281 1.986 . S
O284 C291 1.262 . S
O285 Zn280 2.049 . S
O285 C293 1.260 . S
O286 Zn281 1.996 . S
O286 C293 1.257 . S
C287 O282 1.254 1_556 S
C287 O283 1.269 . S
C288 O289 1.249 . S
C288 O290 1.270 . S
O289 Zn281 1.943 . S
O289 C288 1.249 . S
O290 Zn280 2.067 . S
O290 C288 1.270 . S
C291 O284 1.262 . S
C291 O292 1.232 . S
O292 C291 1.232 . S
C293 O285 1.260 . S
C293 O286 1.257 . S
Zn294 O297 2.031 . S
Zn294 O299 2.049 . S
Zn294 O304 2.067 . S
Zn295 O296 1.962 . S
Zn295 O298 1.986 . S
Zn295 O300 1.996 . S
Zn295 O303 1.943 . S
O296 Zn295 1.962 . S
O296 C301 1.254 . S
O297 Zn294 2.031 . S
O297 C301 1.269 . S
O298 Zn295 1.986 . S
O298 C305 1.262 . S
O299 Zn294 2.049 . S
O299 C307 1.260 . S
O300 Zn295 1.996 . S
O300 C307 1.257 . S
C301 O296 1.254 . S
C301 O297 1.269 . S
C302 O303 1.249 . S
C302 O304 1.270 . S
O303 Zn295 1.943 . S
O303 C302 1.249 . S
O304 Zn294 2.067 . S
O304 C302 1.270 . S
C305 O298 1.262 . S
C305 O306 1.232 . S
O306 C305 1.232 . S
C307 O299 1.260 . S
C307 O300 1.257 . S
Zn308 O311 2.031 . S
Zn308 O313 2.049 . S
Zn308 O318 2.067 . S
Zn309 O310 1.962 . S
Zn309 O312 1.986 . S
Zn309 O314 1.996 . S
Zn309 O317 1.943 . S
O310 Zn309 1.962 . S
O310 C315 1.254 . S
O311 Zn308 2.031 . S
O311 C315 1.269 . S
O312 Zn309 1.986 . S
O312 C319 1.262 . S
O313 Zn308 2.049 . S
O313 C321 1.260 . S
O314 Zn309 1.996 . S
O314 C321 1.257 . S
C315 O310 1.254 . S
C315 O311 1.269 . S
C316 O317 1.249 . S
C316 O318 1.270 . S
O317 Zn309 1.943 . S
O317 C316 1.249 . S
O318 Zn308 2.067 . S
O318 C316 1.270 . S
C319 O312 1.262 . S
C319 O320 1.232 . S
O320 C319 1.232 . S
C321 O313 1.260 . S
C321 O314 1.257 . S
Zn322 O325 2.031 . S
Zn322 O327 2.049 . S
Zn322 O332 2.067 . S
Zn323 O324 1.962 . S
Zn323 O326 1.986 . S
Zn323 O328 1.996 . S
Zn323 O331 1.943 . S
O324 Zn323 1.962 . S
O324 C329 1.254 . S
O325 Zn322 2.031 . S
O325 C329 1.269 . S
O326 Zn323 1.986 . S
O326 C333 1.262 . S
O327 Zn322 2.049 . S
O327 C335 1.260 . S
O328 Zn323 1.996 . S
O328 C335 1.257 . S
C329 O324 1.254 . S
C329 O325 1.269 . S
C330 O331 1.249 . S
C330 O332 1.270 . S
O331 Zn323 1.943 . S
O331 C330 1.249 . S
O332 Zn322 2.067 . S
O332 C330 1.270 . S
C333 O326 1.262 . S
C333 O334 1.232 . S
O334 C333 1.232 . S
C335 O327 1.260 . S
C335 O328 1.257 . S
Pr336 C338 2.880 1_455 S
Pr336 O356 2.562 1_455 S
Pr336 O357 2.490 1_454 S
Pr336 O358 2.695 . S
Pr336 O359 2.512 1_554 S
Pr336 O361 2.437 . S
Pr336 O364 2.436 . S
Pr336 O366 2.438 . S
Pr337 C347 2.880 . S
Pr337 O358 2.436 . S
Pr337 O360 2.438 . S
Pr337 O362 2.562 . S
Pr337 O363 2.490 . S
Pr337 O364 2.695 . S
Pr337 O365 2.512 . S
Pr337 O367 2.437 . S
C338 Pr336 2.880 1_655 S
C338 C339 1.491 1_554 S
C338 O356 1.254 . S
C338 O357 1.225 1_554 S
C339 C338 1.491 1_556 S
C339 C340 1.392 . S
C339 C344 1.356 1_556 S
C340 C339 1.392 . S
C340 C341 1.368 . S
C340 H368 0.929 . S
C341 C340 1.368 . S
C341 C342 1.386 . S
C341 H369 0.929 . S
C342 C341 1.386 . S
C342 C343 1.379 1_556 S
C343 C342 1.379 1_554 S
C343 C344 1.407 . S
C343 H370 0.926 . S
C344 C339 1.356 1_554 S
C344 C343 1.407 . S
C344 H371 0.930 . S
C345 O358 1.270 1_556 S
C345 O359 1.248 . S
C346 O360 1.267 . S
C346 O361 1.278 . S
C347 Pr337 2.880 . S
C347 C348 1.491 . S
C347 O362 1.254 . S
C347 O363 1.225 . S
C348 C347 1.491 . S
C348 C349 1.392 . S
C348 C353 1.356 . S
C349 C348 1.392 . S
C349 C350 1.368 . S
C349 H372 0.929 . S
C350 C349 1.368 . S
C350 C351 1.386 . S
C350 H373 0.929 . S
C351 C350 1.386 . S
C351 C352 1.373 . S
C352 C351 1.373 . S
C352 C353 1.409 . S
C352 H374 0.931 . S
C353 C348 1.356 . S
C353 C352 1.409 . S
C353 H375 0.930 . S
C354 O364 1.270 . S
C354 O365 1.248 . S
C355 O366 1.267 . S
C355 O367 1.278 . S
O356 Pr336 2.562 1_655 S
O356 C338 1.254 . S
O357 Pr336 2.490 1_656 S
O357 C338 1.225 1_556 S
O358 Pr336 2.695 . S
O358 Pr337 2.436 . S
O358 C345 1.270 1_554 S
O359 Pr336 2.512 1_556 S
O359 C345 1.248 . S
O360 Pr337 2.438 . S
O360 C346 1.267 . S
O361 Pr336 2.437 . S
O361 C346 1.278 . S
O362 Pr337 2.562 . S
O362 C347 1.254 . S
O363 Pr337 2.490 . S
O363 C347 1.225 . S
O364 Pr336 2.436 . S
O364 Pr337 2.695 . S
O364 C354 1.270 . S
O365 Pr337 2.512 . S
O365 C354 1.248 . S
O366 Pr336 2.438 . S
O366 C355 1.267 . S
O367 Pr337 2.437 . S
O367 C355 1.278 . S
H368 C340 0.929 . S
H369 C341 0.929 . S
H370 C343 0.926 . S
H371 C344 0.930 . S
H372 C349 0.929 . S
H373 C350 0.929 . S
H374 C352 0.931 . S
H375 C353 0.930 . S
Pr376 C378 2.880 . S
Pr376 O396 2.562 . S
Pr376 O397 2.490 . S
Pr376 O398 2.695 . S
Pr376 O399 2.512 . S
Pr376 O401 2.437 . S
Pr376 O404 2.436 . S
Pr376 O406 2.438 . S
Pr377 C387 2.880 . S
Pr377 O398 2.436 . S
Pr377 O400 2.438 . S
Pr377 O402 2.562 . S
Pr377 O403 2.490 . S
Pr377 O404 2.695 . S
Pr377 O405 2.512 . S
Pr377 O407 2.437 . S
C378 Pr376 2.880 . S
C378 C379 1.491 . S
C378 O396 1.254 . S
C378 O397 1.225 . S
C379 C378 1.491 . S
C379 C380 1.392 . S
C379 C384 1.356 . S
C380 C379 1.392 . S
C380 C381 1.368 . S
C380 H408 0.929 . S
C381 C380 1.368 . S
C381 C382 1.386 . S
C381 H409 0.929 . S
C382 C381 1.386 . S
C382 C383 1.373 . S
C383 C382 1.373 . S
C383 C384 1.409 . S
C383 H410 0.931 . S
C384 C379 1.356 . S
C384 C383 1.409 . S
C384 H411 0.930 . S
C385 O398 1.270 . S
C385 O399 1.248 . S
C386 O400 1.267 . S
C386 O401 1.278 . S
C387 Pr377 2.880 . S
C387 C388 1.491 . S
C387 O402 1.254 . S
C387 O403 1.225 . S
C388 C387 1.491 . S
C388 C389 1.392 . S
C388 C393 1.356 . S
C389 C388 1.392 . S
C389 C390 1.368 . S
C389 H412 0.929 . S
C390 C389 1.368 . S
C390 C391 1.386 . S
C390 H413 0.929 . S
C391 C390 1.386 . S
C391 C392 1.373 . S
C392 C391 1.373 . S
C392 C393 1.409 . S
C392 H414 0.931 . S
C393 C388 1.356 . S
C393 C392 1.409 . S
C393 H415 0.930 . S
C394 O404 1.270 . S
C394 O405 1.248 . S
C395 O406 1.267 . S
C395 O407 1.278 . S
O396 Pr376 2.562 . S
O396 C378 1.254 . S
O397 Pr376 2.490 . S
O397 C378 1.225 . S
O398 Pr376 2.695 . S
O398 Pr377 2.436 . S
O398 C385 1.270 . S
O399 Pr376 2.512 . S
O399 C385 1.248 . S
O400 Pr377 2.438 . S
O400 C386 1.267 . S
O401 Pr376 2.437 . S
O401 C386 1.278 . S
O402 Pr377 2.562 . S
O402 C387 1.254 . S
O403 Pr377 2.490 . S
O403 C387 1.225 . S
O404 Pr376 2.436 . S
O404 Pr377 2.695 . S
O404 C394 1.270 . S
O405 Pr377 2.512 . S
O405 C394 1.248 . S
O406 Pr376 2.438 . S
O406 C395 1.267 . S
O407 Pr377 2.437 . S
O407 C395 1.278 . S
H408 C380 0.929 . S
H409 C381 0.929 . S
H410 C383 0.931 . S
H411 C384 0.930 . S
H412 C389 0.929 . S
H413 C390 0.929 . S
H414 C392 0.931 . S
H415 C393 0.930 . S
Pr416 C418 2.880 . S
Pr416 O436 2.562 . S
Pr416 O437 2.490 . S
Pr416 O438 2.695 . S
Pr416 O439 2.512 . S
Pr416 O441 2.437 . S
Pr416 O444 2.436 . S
Pr416 O446 2.438 . S
Pr417 C427 2.880 . S
Pr417 O438 2.436 . S
Pr417 O440 2.438 . S
Pr417 O442 2.562 . S
Pr417 O443 2.490 . S
Pr417 O444 2.695 . S
Pr417 O445 2.512 . S
Pr417 O447 2.437 . S
C418 Pr416 2.880 . S
C418 C419 1.491 . S
C418 O436 1.254 . S
C418 O437 1.225 . S
C419 C418 1.491 . S
C419 C420 1.392 . S
C419 C424 1.356 . S
C420 C419 1.392 . S
C420 C421 1.368 . S
C420 H448 0.929 . S
C421 C420 1.368 . S
C421 C422 1.386 . S
C421 H449 0.929 . S
C422 C421 1.386 . S
C422 C423 1.373 . S
C423 C422 1.373 . S
C423 C424 1.409 . S
C423 H450 0.974 . S
C424 C419 1.356 . S
C424 C423 1.409 . S
C424 H451 0.930 . S
C425 O438 1.270 . S
C425 O439 1.248 . S
C426 O440 1.267 . S
C426 O441 1.278 . S
C427 Pr417 2.880 . S
C427 C428 1.491 . S
C427 O442 1.254 . S
C427 O443 1.225 . S
C428 C427 1.491 . S
C428 C429 1.392 . S
C428 C433 1.356 . S
C429 C428 1.392 . S
C429 C430 1.368 . S
C429 H452 0.929 . S
C430 C429 1.368 . S
C430 C431 1.386 . S
C430 H453 0.929 . S
C431 C430 1.386 . S
C431 C432 1.373 . S
C432 C431 1.373 . S
C432 C433 1.409 . S
C432 H454 0.931 . S
C433 C428 1.356 . S
C433 C432 1.409 . S
C433 H455 0.930 . S
C434 O444 1.270 . S
C434 O445 1.248 . S
C435 O446 1.267 . S
C435 O447 1.278 . S
O436 Pr416 2.562 . S
O436 C418 1.254 . S
O437 Pr416 2.490 . S
O437 C418 1.225 . S
O438 Pr416 2.695 . S
O438 Pr417 2.436 . S
O438 C425 1.270 . S
O439 Pr416 2.512 . S
O439 C425 1.248 . S
O440 Pr417 2.438 . S
O440 C426 1.267 . S
O441 Pr416 2.437 . S
O441 C426 1.278 . S
O442 Pr417 2.562 . S
O442 C427 1.254 . S
O443 Pr417 2.490 . S
O443 C427 1.225 . S
O444 Pr416 2.436 . S
O444 Pr417 2.695 . S
O444 C434 1.270 . S
O445 Pr417 2.512 . S
O445 C434 1.248 . S
O446 Pr416 2.438 . S
O446 C435 1.267 . S
O447 Pr417 2.437 . S
O447 C435 1.278 . S
H448 C420 0.929 . S
H449 C421 0.929 . S
H450 C423 0.974 . S
H451 C424 0.930 . S
H452 C429 0.929 . S
H453 C430 0.929 . S
H454 C432 0.931 . S
H455 C433 0.930 . S
Pr456 C458 2.880 . S
Pr456 O476 2.562 . S
Pr456 O477 2.490 . S
Pr456 O478 2.695 . S
Pr456 O479 2.512 . S
Pr456 O481 2.437 . S
Pr456 O484 2.436 . S
Pr456 O486 2.438 . S
Pr457 C467 2.880 . S
Pr457 O478 2.436 . S
Pr457 O480 2.438 . S
Pr457 O482 2.562 . S
Pr457 O483 2.490 . S
Pr457 O484 2.695 . S
Pr457 O485 2.512 . S
Pr457 O487 2.437 . S
C458 Pr456 2.880 . S
C458 C459 1.491 . S
C458 O476 1.254 . S
C458 O477 1.225 . S
C459 C458 1.491 . S
C459 C460 1.392 . S
C459 C464 1.356 . S
C460 C459 1.392 . S
C460 C461 1.368 . S
C460 H488 0.929 . S
C461 C460 1.368 . S
C461 C462 1.386 . S
C461 H489 0.929 . S
C462 C461 1.386 . S
C462 C463 1.373 . S
C463 C462 1.373 . S
C463 C464 1.409 . S
C463 H490 0.931 . S
C464 C459 1.356 . S
C464 C463 1.409 . S
C464 H491 0.930 . S
C465 O478 1.270 . S
C465 O479 1.248 . S
C466 O480 1.267 . S
C466 O481 1.278 . S
C467 Pr457 2.880 . S
C467 C468 1.491 . S
C467 O482 1.254 . S
C467 O483 1.225 . S
C468 C467 1.491 . S
C468 C469 1.392 . S
C468 C473 1.356 . S
C469 C468 1.392 . S
C469 C470 1.368 . S
C469 H492 0.929 . S
C470 C469 1.368 . S
C470 C471 1.386 . S
C470 H493 0.929 . S
C471 C470 1.386 . S
C471 C472 1.373 . S
C472 C471 1.373 . S
C472 C473 1.409 . S
C472 H494 0.931 . S
C473 C468 1.356 . S
C473 C472 1.409 . S
C473 H495 0.930 . S
C474 O484 1.270 . S
C474 O485 1.248 . S
C475 O486 1.267 . S
C475 O487 1.278 . S
O476 Pr456 2.562 . S
O476 C458 1.254 . S
O477 Pr456 2.490 . S
O477 C458 1.225 . S
O478 Pr456 2.695 . S
O478 Pr457 2.436 . S
O478 C465 1.270 . S
O479 Pr456 2.512 . S
O479 C465 1.248 . S
O480 Pr457 2.438 . S
O480 C466 1.267 . S
O481 Pr456 2.437 . S
O481 C466 1.278 . S
O482 Pr457 2.562 . S
O482 C467 1.254 . S
O483 Pr457 2.490 . S
O483 C467 1.225 . S
O484 Pr456 2.436 . S
O484 Pr457 2.695 . S
O484 C474 1.270 . S
O485 Pr457 2.512 . S
O485 C474 1.248 . S
O486 Pr456 2.438 . S
O486 C475 1.267 . S
O487 Pr457 2.437 . S
O487 C475 1.278 . S
H488 C460 0.929 . S
H489 C461 0.929 . S
H490 C463 0.931 . S
H491 C464 0.930 . S
H492 C469 0.929 . S
H493 C470 0.929 . S
H494 C472 0.931 . S
H495 C473 0.930 . S
Pr496 C498 2.880 . S
Pr496 O516 2.562 . S
Pr496 O517 2.490 . S
Pr496 O518 2.695 . S
Pr496 O519 2.512 . S
Pr496 O521 2.437 . S
Pr496 O524 2.436 . S
Pr496 O526 2.438 . S
Pr497 C507 2.880 . S
Pr497 O518 2.436 . S
Pr497 O520 2.438 . S
Pr497 O522 2.562 . S
Pr497 O523 2.490 . S
Pr497 O524 2.695 . S
Pr497 O525 2.512 . S
Pr497 O527 2.437 . S
C498 Pr496 2.880 . S
C498 C499 1.491 . S
C498 O516 1.254 . S
C498 O517 1.225 . S
C499 C498 1.491 . S
C499 C500 1.392 . S
C499 C504 1.356 1_455 S
C500 C499 1.392 . S
C500 C501 1.368 . S
C500 H528 0.929 . S
C501 C500 1.368 . S
C501 C502 1.386 1_455 S
C501 H529 0.929 . S
C502 C501 1.386 1_655 S
C502 C503 1.373 . S
C503 C502 1.373 . S
C503 C504 1.409 . S
C503 H530 0.931 . S
C504 C499 1.356 1_655 S
C504 C503 1.409 . S
C504 H531 0.930 . S
C505 O518 1.270 . S
C505 O519 1.248 . S
C506 O520 1.267 . S
C506 O521 1.278 . S
C507 Pr497 2.880 . S
C507 C508 1.491 . S
C507 O522 1.254 . S
C507 O523 1.225 . S
C508 C507 1.491 . S
C508 C509 1.392 . S
C508 C513 1.356 . S
C509 C508 1.392 . S
C509 C510 1.368 . S
C509 H532 0.929 . S
C510 C509 1.368 . S
C510 C511 1.386 . S
C510 H533 0.929 . S
C511 C510 1.386 . S
C511 C512 1.373 . S
C512 C511 1.373 . S
C512 C513 1.409 . S
C512 H534 0.931 . S
C513 C508 1.356 . S
C513 C512 1.409 . S
C513 H535 0.930 . S
C514 O524 1.270 . S
C514 O525 1.248 . S
C515 O526 1.267 . S
C515 O527 1.278 . S
O516 Pr496 2.562 . S
O516 C498 1.254 . S
O517 Pr496 2.490 . S
O517 C498 1.225 . S
O518 Pr496 2.695 . S
O518 Pr497 2.436 . S
O518 C505 1.270 . S
O519 Pr496 2.512 . S
O519 C505 1.248 . S
O520 Pr497 2.438 . S
O520 C506 1.267 . S
O521 Pr496 2.437 . S
O521 C506 1.278 . S
O522 Pr497 2.562 . S
O522 C507 1.254 . S
O523 Pr497 2.490 . S
O523 C507 1.225 . S
O524 Pr496 2.436 . S
O524 Pr497 2.695 . S
O524 C514 1.270 . S
O525 Pr497 2.512 . S
O525 C514 1.248 . S
O526 Pr496 2.438 . S
O526 C515 1.267 . S
O527 Pr497 2.437 . S
O527 C515 1.278 . S
H528 C500 0.929 . S
H529 C501 0.929 . S
H530 C503 0.931 . S
H531 C504 0.930 . S
H532 C509 0.929 . S
H533 C510 0.929 . S
H534 C512 0.931 . S
H535 C513 0.930 . S
Pr536 C538 2.880 . S
Pr536 O556 2.562 . S
Pr536 O557 2.490 . S
Pr536 O558 2.695 . S
Pr536 O559 2.512 . S
Pr536 O561 2.437 . S
Pr536 O564 2.436 . S
Pr536 O566 2.438 . S
Pr537 C547 2.880 . S
Pr537 O558 2.436 . S
Pr537 O560 2.438 . S
Pr537 O562 2.562 . S
Pr537 O563 2.490 . S
Pr537 O564 2.695 . S
Pr537 O565 2.512 . S
Pr537 O567 2.437 . S
C538 Pr536 2.880 . S
C538 C539 1.491 . S
C538 O556 1.254 . S
C538 O557 1.225 . S
C539 C538 1.491 . S
C539 C540 1.392 . S
C539 C544 1.356 . S
C540 C539 1.392 . S
C540 C541 1.368 . S
C540 H568 0.929 . S
C541 C540 1.368 . S
C541 C542 1.386 . S
C541 H569 0.929 . S
C542 C541 1.386 . S
C542 C543 1.373 . S
C543 C542 1.373 . S
C543 C544 1.409 . S
C543 H570 0.931 . S
C544 C539 1.356 . S
C544 C543 1.409 . S
C544 H571 0.930 . S
C545 O558 1.270 . S
C545 O559 1.248 . S
C546 O560 1.267 . S
C546 O561 1.278 . S
C547 Pr537 2.880 . S
C547 C548 1.491 . S
C547 O562 1.254 . S
C547 O563 1.225 . S
C548 C547 1.491 . S
C548 C549 1.392 . S
C548 C553 1.356 . S
C549 C548 1.392 . S
C549 C550 1.368 . S
C549 H572 0.929 . S
C550 C549 1.368 . S
C550 C551 1.386 . S
C550 H573 0.929 . S
C551 C550 1.386 . S
C551 C552 1.373 . S
C552 C551 1.373 . S
C552 C553 1.409 . S
C552 H574 0.931 . S
C553 C548 1.356 . S
C553 C552 1.409 . S
C553 H575 0.930 . S
C554 O564 1.270 . S
C554 O565 1.248 . S
C555 O566 1.267 . S
C555 O567 1.278 . S
O556 Pr536 2.562 . S
O556 C538 1.254 . S
O557 Pr536 2.490 . S
O557 C538 1.225 . S
O558 Pr536 2.695 . S
O558 Pr537 2.436 . S
O558 C545 1.270 . S
O559 Pr536 2.512 . S
O559 C545 1.248 . S
O560 Pr537 2.438 . S
O560 C546 1.267 . S
O561 Pr536 2.437 . S
O561 C546 1.278 . S
O562 Pr537 2.562 . S
O562 C547 1.254 . S
O563 Pr537 2.490 . S
O563 C547 1.225 . S
O564 Pr536 2.436 . S
O564 Pr537 2.695 . S
O564 C554 1.270 . S
O565 Pr537 2.512 . S
O565 C554 1.248 . S
O566 Pr536 2.438 . S
O566 C555 1.267 . S
O567 Pr537 2.437 . S
O567 C555 1.278 . S
H568 C540 0.929 . S
H569 C541 0.929 . S
H570 C543 0.931 . S
H571 C544 0.930 . S
H572 C549 0.929 . S
H573 C550 0.929 . S
H574 C552 0.931 . S
H575 C553 0.930 . S
Pr576 C578 2.880 . S
Pr576 O596 2.562 . S
Pr576 O597 2.490 . S
Pr576 O598 2.695 . S
Pr576 O599 2.512 . S
Pr576 O601 2.437 . S
Pr576 O604 2.436 . S
Pr576 O606 2.438 . S
Pr577 C587 2.880 . S
Pr577 O598 2.436 1_556 S
Pr577 O600 2.438 1_556 S
Pr577 O602 2.562 . S
Pr577 O603 2.490 . S
Pr577 O604 2.695 1_556 S
Pr577 O605 2.512 1_556 S
Pr577 O607 2.437 1_556 S
C578 Pr576 2.880 . S
C578 C579 1.491 . S
C578 O596 1.254 . S
C578 O597 1.225 . S
C579 C578 1.491 . S
C579 C580 1.392 . S
C579 C584 1.356 . S
C580 C579 1.392 . S
C580 C581 1.368 . S
C580 H608 0.929 . S
C581 C580 1.368 . S
C581 C582 1.386 . S
C581 H609 0.929 . S
C582 C581 1.386 . S
C582 C583 1.373 . S
C583 C582 1.373 . S
C583 C584 1.409 . S
C583 H610 0.931 . S
C584 C579 1.356 . S
C584 C583 1.409 . S
C584 H611 0.930 . S
C585 O598 1.270 . S
C585 O599 1.248 . S
C586 O600 1.267 . S
C586 O601 1.278 . S
C587 Pr577 2.880 . S
C587 C588 1.491 . S
C587 O602 1.254 . S
C587 O603 1.225 . S
C588 C587 1.491 . S
C588 C589 1.392 . S
C588 C593 1.356 . S
C589 C588 1.392 . S
C589 C590 1.368 . S
C589 H612 0.929 . S
C590 C589 1.368 . S
C590 C591 1.386 . S
C590 H613 0.929 . S
C591 C590 1.386 . S
C591 C592 1.373 . S
C592 C591 1.373 . S
C592 C593 1.409 . S
C592 H614 0.931 . S
C593 C588 1.356 . S
C593 C592 1.409 . S
C593 H615 0.930 . S
C594 O604 1.270 . S
C594 O605 1.248 . S
C595 O606 1.267 . S
C595 O607 1.278 . S
O596 Pr576 2.562 . S
O596 C578 1.254 . S
O597 Pr576 2.490 . S
O597 C578 1.225 . S
O598 Pr576 2.695 . S
O598 Pr577 2.436 1_554 S
O598 C585 1.270 . S
O599 Pr576 2.512 . S
O599 C585 1.248 . S
O600 Pr577 2.438 1_554 S
O600 C586 1.267 . S
O601 Pr576 2.437 . S
O601 C586 1.278 . S
O602 Pr577 2.562 . S
O602 C587 1.254 . S
O603 Pr577 2.490 . S
O603 C587 1.225 . S
O604 Pr576 2.436 . S
O604 Pr577 2.695 1_554 S
O604 C594 1.270 . S
O605 Pr577 2.512 1_554 S
O605 C594 1.248 . S
O606 Pr576 2.438 . S
O606 C595 1.267 . S
O607 Pr577 2.437 1_554 S
O607 C595 1.278 . S
H608 C580 0.929 . S
H609 C581 0.929 . S
H610 C583 0.931 . S
H611 C584 0.930 . S
H612 C589 0.929 . S
H613 C590 0.929 . S
H614 C592 0.931 . S
H615 C593 0.930 . S
Pr616 C618 2.880 . S
Pr616 O636 2.562 . S
Pr616 O637 2.490 . S
Pr616 O638 2.695 . S
Pr616 O639 2.512 . S
Pr616 O641 2.437 . S
Pr616 O644 2.436 . S
Pr616 O646 2.438 . S
Pr617 C627 2.880 . S
Pr617 O638 2.436 . S
Pr617 O640 2.438 . S
Pr617 O642 2.562 . S
Pr617 O643 2.490 . S
Pr617 O644 2.695 . S
Pr617 O645 2.512 . S
Pr617 O647 2.437 . S
C618 Pr616 2.880 . S
C618 C619 1.491 . S
C618 O636 1.254 . S
C618 O637 1.225 . S
C619 C618 1.491 . S
C619 C620 1.392 . S
C619 C624 1.356 . S
C620 C619 1.392 . S
C620 C621 1.368 . S
C620 H648 0.929 . S
C621 C620 1.368 . S
C621 C622 1.386 . S
C621 H649 0.929 . S
C622 C621 1.386 . S
C622 C623 1.373 . S
C623 C622 1.373 . S
C623 C624 1.409 . S
C623 H650 0.931 . S
C624 C619 1.356 . S
C624 C623 1.409 . S
C624 H651 0.930 . S
C625 O638 1.270 . S
C625 O639 1.248 . S
C626 O640 1.267 . S
C626 O641 1.278 . S
C627 Pr617 2.880 . S
C627 C628 1.491 . S
C627 O642 1.254 . S
C627 O643 1.225 . S
C628 C627 1.491 . S
C628 C629 1.392 . S
C628 C633 1.356 . S
C629 C628 1.392 . S
C629 C630 1.368 . S
C629 H652 0.929 . S
C630 C629 1.368 . S
C630 C631 1.386 . S
C630 H653 0.929 . S
C631 C630 1.386 . S
C631 C632 1.373 . S
C632 C631 1.373 . S
C632 C633 1.409 . S
C632 H654 0.931 . S
C633 C628 1.356 . S
C633 C632 1.409 . S
C633 H655 0.930 . S
C634 O644 1.270 . S
C634 O645 1.248 . S
C635 O646 1.267 . S
C635 O647 1.278 . S
O636 Pr616 2.562 . S
O636 C618 1.254 . S
O637 Pr616 2.490 . S
O637 C618 1.225 . S
O638 Pr616 2.695 . S
O638 Pr617 2.436 . S
O638 C625 1.270 . S
O639 Pr616 2.512 . S
O639 C625 1.248 . S
O640 Pr617 2.438 . S
O640 C626 1.267 . S
O641 Pr616 2.437 . S
O641 C626 1.278 . S
O642 Pr617 2.562 . S
O642 C627 1.254 . S
O643 Pr617 2.490 . S
O643 C627 1.225 . S
O644 Pr616 2.436 . S
O644 Pr617 2.695 . S
O644 C634 1.270 . S
O645 Pr617 2.512 . S
O645 C634 1.248 . S
O646 Pr616 2.438 . S
O646 C635 1.267 . S
O647 Pr617 2.437 . S
O647 C635 1.278 . S
H648 C620 0.929 . S
H649 C621 0.929 . S
H650 C623 0.931 . S
H651 C624 0.930 . S
H652 C629 0.929 . S
H653 C630 0.929 . S
H654 C632 0.931 . S
H655 C633 0.930 . S
Pr656 C658 2.880 . S
Pr656 O676 2.562 . S
Pr656 O677 2.490 . S
Pr656 O678 2.695 1_556 S
Pr656 O679 2.512 . S
Pr656 O681 2.437 . S
Pr656 O684 2.436 1_556 S
Pr656 O686 2.438 1_556 S
Pr657 C667 2.880 . S
Pr657 O678 2.436 . S
Pr657 O680 2.438 . S
Pr657 O682 2.562 . S
Pr657 O683 2.490 . S
Pr657 O684 2.695 . S
Pr657 O685 2.512 . S
Pr657 O687 2.437 . S
C658 Pr656 2.880 . S
C658 C659 1.491 . S
C658 O676 1.254 . S
C658 O677 1.225 . S
C659 C658 1.491 . S
C659 C660 1.392 . S
C659 C664 1.356 . S
C660 C659 1.392 . S
C660 C661 1.368 . S
C660 H688 0.929 . S
C661 C660 1.368 . S
C661 C662 1.386 . S
C661 H689 0.929 . S
C662 C661 1.386 . S
C662 C663 1.373 . S
C663 C662 1.373 . S
C663 C664 1.409 . S
C663 H690 0.931 . S
C664 C659 1.356 . S
C664 C663 1.409 . S
C664 H691 0.930 . S
C665 O678 1.270 . S
C665 O679 1.248 1_554 S
C666 O680 1.267 . S
C666 O681 1.278 1_554 S
C667 Pr657 2.880 . S
C667 C668 1.491 . S
C667 O682 1.254 . S
C667 O683 1.225 . S
C668 C667 1.491 . S
C668 C669 1.392 . S
C668 C673 1.356 . S
C669 C668 1.392 . S
C669 C670 1.368 . S
C669 H692 0.929 . S
C670 C669 1.368 . S
C670 C671 1.386 . S
C670 H693 0.929 . S
C671 C670 1.386 . S
C671 C672 1.373 . S
C672 C671 1.373 . S
C672 C673 1.409 . S
C672 H694 0.931 . S
C673 C668 1.356 . S
C673 C672 1.409 . S
C673 H695 0.930 . S
C674 O684 1.270 . S
C674 O685 1.248 . S
C675 O686 1.267 . S
C675 O687 1.278 . S
O676 Pr656 2.562 . S
O676 C658 1.254 . S
O677 Pr656 2.490 . S
O677 C658 1.225 . S
O678 Pr656 2.695 1_554 S
O678 Pr657 2.436 . S
O678 C665 1.270 . S
O679 Pr656 2.512 . S
O679 C665 1.248 1_556 S
O680 Pr657 2.438 . S
O680 C666 1.267 . S
O681 Pr656 2.437 . S
O681 C666 1.278 1_556 S
O682 Pr657 2.562 . S
O682 C667 1.254 . S
O683 Pr657 2.490 . S
O683 C667 1.225 . S
O684 Pr656 2.436 1_554 S
O684 Pr657 2.695 . S
O684 C674 1.270 . S
O685 Pr657 2.512 . S
O685 C674 1.248 . S
O686 Pr656 2.438 1_554 S
O686 C675 1.267 . S
O687 Pr657 2.437 . S
O687 C675 1.278 . S
H688 C660 0.929 . S
H689 C661 0.929 . S
H690 C663 0.931 . S
H691 C664 0.930 . S
H692 C669 0.929 . S
H693 C670 0.929 . S
H694 C672 0.931 . S
H695 C673 0.930 . S
Pr696 C698 2.880 . S
Pr696 O716 2.562 . S
Pr696 O717 2.490 . S
Pr696 O718 2.695 . S
Pr696 O719 2.512 . S
Pr696 O721 2.437 . S
Pr696 O724 2.436 . S
Pr696 O726 2.438 . S
Pr697 C707 2.880 . S
Pr697 O718 2.436 . S
Pr697 O720 2.438 . S
Pr697 O722 2.562 . S
Pr697 O723 2.490 . S
Pr697 O724 2.695 . S
Pr697 O725 2.512 . S
Pr697 O727 2.437 . S
C698 Pr696 2.880 . S
C698 C699 1.491 . S
C698 O716 1.254 . S
C698 O717 1.225 . S
C699 C698 1.491 . S
C699 C700 1.392 . S
C699 C704 1.356 . S
C700 C699 1.392 . S
C700 C701 1.368 . S
C700 H728 0.929 . S
C701 C700 1.368 . S
C701 C702 1.386 . S
C701 H729 0.929 . S
C702 C701 1.386 . S
C702 C703 1.373 . S
C703 C702 1.373 . S
C703 C704 1.409 . S
C703 H730 0.931 . S
C704 C699 1.356 . S
C704 C703 1.409 . S
C704 H731 0.930 . S
C705 O718 1.270 . S
C705 O719 1.248 . S
C706 O720 1.267 . S
C706 O721 1.278 . S
C707 Pr697 2.880 . S
C707 C708 1.491 . S
C707 O722 1.254 . S
C707 O723 1.225 . S
C708 C707 1.491 . S
C708 C709 1.392 . S
C708 C713 1.356 . S
C709 C708 1.392 . S
C709 C710 1.368 . S
C709 H732 0.929 . S
C710 C709 1.368 . S
C710 C711 1.386 . S
C710 H733 0.929 . S
C711 C710 1.386 . S
C711 C712 1.373 . S
C712 C711 1.373 . S
C712 C713 1.409 . S
C712 H734 0.931 . S
C713 C708 1.356 . S
C713 C712 1.409 . S
C713 H735 0.930 . S
C714 O724 1.270 . S
C714 O725 1.248 . S
C715 O726 1.267 . S
C715 O727 1.278 . S
O716 Pr696 2.562 . S
O716 C698 1.254 . S
O717 Pr696 2.490 . S
O717 C698 1.225 . S
O718 Pr696 2.695 . S
O718 Pr697 2.436 . S
O718 C705 1.270 . S
O719 Pr696 2.512 . S
O719 C705 1.248 . S
O720 Pr697 2.438 . S
O720 C706 1.267 . S
O721 Pr696 2.437 . S
O721 C706 1.278 . S
O722 Pr697 2.562 . S
O722 C707 1.254 . S
O723 Pr697 2.490 . S
O723 C707 1.225 . S
O724 Pr696 2.436 . S
O724 Pr697 2.695 . S
O724 C714 1.270 . S
O725 Pr697 2.512 . S
O725 C714 1.248 . S
O726 Pr696 2.438 . S
O726 C715 1.267 . S
O727 Pr697 2.437 . S
O727 C715 1.278 . S
H728 C700 0.929 . S
H729 C701 0.929 . S
H730 C703 0.931 . S
H731 C704 0.930 . S
H732 C709 0.929 . S
H733 C710 0.929 . S
H734 C712 0.931 . S
H735 C713 0.930 . S
Pr736 C738 2.880 . S
Pr736 O756 2.562 . S
Pr736 O757 2.490 . S
Pr736 O758 2.695 . S
Pr736 O759 2.512 . S
Pr736 O761 2.437 . S
Pr736 O764 2.436 . S
Pr736 O766 2.438 . S
Pr737 C747 2.880 . S
Pr737 O758 2.436 . S
Pr737 O760 2.438 1_455 S
Pr737 O762 2.562 . S
Pr737 O763 2.490 . S
Pr737 O764 2.695 . S
Pr737 O765 2.512 . S
Pr737 O767 2.437 . S
C738 Pr736 2.880 . S
C738 C739 1.491 . S
C738 O756 1.254 . S
C738 O757 1.225 . S
C739 C738 1.491 . S
C739 C740 1.392 . S
C739 C744 1.356 . S
C740 C739 1.392 . S
C740 C741 1.368 . S
C740 H768 0.929 . S
C741 C740 1.368 . S
C741 C742 1.386 1_455 S
C741 H769 0.929 . S
C742 C741 1.386 1_655 S
C742 C743 1.373 . S
C743 C742 1.373 . S
C743 C744 1.409 1_655 S
C743 H770 0.931 . S
C744 C739 1.356 . S
C744 C743 1.409 1_455 S
C744 H771 0.944 . S
C745 O758 1.270 . S
C745 O759 1.248 . S
C746 O760 1.267 . S
C746 O761 1.278 1_655 S
C747 Pr737 2.880 . S
C747 C748 1.491 . S
C747 O762 1.254 . S
C747 O763 1.225 . S
C748 C747 1.491 . S
C748 C749 1.392 . S
C748 C753 1.356 . S
C749 C748 1.392 . S
C749 C750 1.368 . S
C749 H772 0.929 . S
C750 C749 1.368 . S
C750 C751 1.386 . S
C750 H773 0.929 . S
C751 C750 1.386 . S
C751 C752 1.373 . S
C752 C751 1.373 . S
C752 C753 1.409 . S
C752 H774 0.931 . S
C753 C748 1.356 . S
C753 C752 1.409 . S
C753 H775 0.930 . S
C754 O764 1.270 . S
C754 O765 1.248 . S
C755 O766 1.267 . S
C755 O767 1.278 . S
O756 Pr736 2.562 . S
O756 C738 1.254 . S
O757 Pr736 2.490 . S
O757 C738 1.225 . S
O758 Pr736 2.695 . S
O758 Pr737 2.436 . S
O758 C745 1.270 . S
O759 Pr736 2.512 . S
O759 C745 1.248 . S
O760 Pr737 2.438 1_655 S
O760 C746 1.267 . S
O761 Pr736 2.437 . S
O761 C746 1.278 1_455 S
O762 Pr737 2.562 . S
O762 C747 1.254 . S
O763 Pr737 2.490 . S
O763 C747 1.225 . S
O764 Pr736 2.436 . S
O764 Pr737 2.695 . S
O764 C754 1.270 . S
O765 Pr737 2.512 . S
O765 C754 1.248 . S
O766 Pr736 2.438 . S
O766 C755 1.267 . S
O767 Pr737 2.437 . S
O767 C755 1.278 . S
H768 C740 0.929 . S
H769 C741 0.929 . S
H770 C743 0.931 . S
H771 C744 0.944 . S
H772 C749 0.929 . S
H773 C750 0.929 . S
H774 C752 0.931 . S
H775 C753 0.930 . S
Pr776 C778 2.880 . S
Pr776 O796 2.562 . S
Pr776 O797 2.490 . S
Pr776 O798 2.695 . S
Pr776 O799 2.512 . S
Pr776 O801 2.437 . S
Pr776 O804 2.436 . S
Pr776 O806 2.438 . S
Pr777 C787 2.880 . S
Pr777 O798 2.436 . S
Pr777 O800 2.438 . S
Pr777 O802 2.562 . S
Pr777 O803 2.490 . S
Pr777 O804 2.695 . S
Pr777 O805 2.512 . S
Pr777 O807 2.437 . S
C778 Pr776 2.880 . S
C778 C779 1.491 . S
C778 O796 1.254 . S
C778 O797 1.225 . S
C779 C778 1.491 . S
C779 C780 1.392 . S
C779 C784 1.356 . S
C780 C779 1.392 . S
C780 C781 1.368 . S
C780 H808 0.929 . S
C781 C780 1.368 . S
C781 C782 1.386 . S
C781 H809 0.929 . S
C782 C781 1.386 . S
C782 C783 1.373 . S
C783 C782 1.373 . S
C783 C784 1.409 . S
C783 H810 0.931 . S
C784 C779 1.356 . S
C784 C783 1.409 . S
C784 H811 0.930 . S
C785 O798 1.270 . S
C785 O799 1.248 . S
C786 O800 1.267 . S
C786 O801 1.278 . S
C787 Pr777 2.880 . S
C787 C788 1.491 . S
C787 O802 1.254 . S
C787 O803 1.225 . S
C788 C787 1.491 . S
C788 C789 1.392 . S
C788 C793 1.356 . S
C789 C788 1.392 . S
C789 C790 1.368 . S
C789 H812 0.929 . S
C790 C789 1.368 . S
C790 C791 1.386 . S
C790 H813 0.929 . S
C791 C790 1.386 . S
C791 C792 1.373 . S
C792 C791 1.373 . S
C792 C793 1.409 . S
C792 H814 0.931 . S
C793 C788 1.356 . S
C793 C792 1.409 . S
C793 H815 0.930 . S
C794 O804 1.270 . S
C794 O805 1.248 . S
C795 O806 1.267 . S
C795 O807 1.278 . S
O796 Pr776 2.562 . S
O796 C778 1.254 . S
O797 Pr776 2.490 . S
O797 C778 1.225 . S
O798 Pr776 2.695 . S
O798 Pr777 2.436 . S
O798 C785 1.270 . S
O799 Pr776 2.512 . S
O799 C785 1.248 . S
O800 Pr777 2.438 . S
O800 C786 1.267 . S
O801 Pr776 2.437 . S
O801 C786 1.278 . S
O802 Pr777 2.562 . S
O802 C787 1.254 . S
O803 Pr777 2.490 . S
O803 C787 1.225 . S
O804 Pr776 2.436 . S
O804 Pr777 2.695 . S
O804 C794 1.270 . S
O805 Pr777 2.512 . S
O805 C794 1.248 . S
O806 Pr776 2.438 . S
O806 C795 1.267 . S
O807 Pr777 2.437 . S
O807 C795 1.278 . S
H808 C780 0.929 . S
H809 C781 0.929 . S
H810 C783 0.931 . S
H811 C784 0.930 . S
H812 C789 0.929 . S
H813 C790 0.929 . S
H814 C792 0.931 . S
H815 C793 0.930 . S
Pr816 C818 2.880 . S
Pr816 O836 2.562 . S
Pr816 O837 2.490 . S
Pr816 O838 2.695 . S
Pr816 O839 2.512 . S
Pr816 O841 2.437 . S
Pr816 O844 2.436 . S
Pr816 O846 2.438 . S
Pr817 C827 2.880 . S
Pr817 O838 2.436 . S
Pr817 O840 2.438 . S
Pr817 O842 2.562 . S
Pr817 O843 2.490 . S
Pr817 O844 2.695 . S
Pr817 O845 2.512 . S
Pr817 O847 2.437 . S
C818 Pr816 2.880 . S
C818 C819 1.491 . S
C818 O836 1.254 . S
C818 O837 1.225 . S
C819 C818 1.491 . S
C819 C820 1.392 . S
C819 C824 1.356 . S
C820 C819 1.392 . S
C820 C821 1.368 . S
C820 H848 0.929 . S
C821 C820 1.368 . S
C821 C822 1.386 . S
C821 H849 0.929 . S
C822 C821 1.386 . S
C822 C823 1.373 . S
C823 C822 1.373 . S
C823 C824 1.409 . S
C823 H850 0.931 . S
C824 C819 1.356 . S
C824 C823 1.409 . S
C824 H851 0.930 . S
C825 O838 1.270 . S
C825 O839 1.248 . S
C826 O840 1.267 . S
C826 O841 1.278 . S
C827 Pr817 2.880 . S
C827 C828 1.491 . S
C827 O842 1.254 . S
C827 O843 1.225 . S
C828 C827 1.491 . S
C828 C829 1.392 . S
C828 C833 1.356 . S
C829 C828 1.392 . S
C829 C830 1.368 . S
C829 H852 0.929 . S
C830 C829 1.368 . S
C830 C831 1.386 . S
C830 H853 0.929 . S
C831 C830 1.386 . S
C831 C832 1.373 . S
C832 C831 1.373 . S
C832 C833 1.409 . S
C832 H854 0.931 . S
C833 C828 1.356 . S
C833 C832 1.409 . S
C833 H855 0.930 . S
C834 O844 1.270 . S
C834 O845 1.248 . S
C835 O846 1.267 . S
C835 O847 1.278 . S
O836 Pr816 2.562 . S
O836 C818 1.254 . S
O837 Pr816 2.490 . S
O837 C818 1.225 . S
O838 Pr816 2.695 . S
O838 Pr817 2.436 . S
O838 C825 1.270 . S
O839 Pr816 2.512 . S
O839 C825 1.248 . S
O840 Pr817 2.438 . S
O840 C826 1.267 . S
O841 Pr816 2.437 . S
O841 C826 1.278 . S
O842 Pr817 2.562 . S
O842 C827 1.254 . S
O843 Pr817 2.490 . S
O843 C827 1.225 . S
O844 Pr816 2.436 . S
O844 Pr817 2.695 . S
O844 C834 1.270 . S
O845 Pr817 2.512 . S
O845 C834 1.248 . S
O846 Pr816 2.438 . S
O846 C835 1.267 . S
O847 Pr817 2.437 . S
O847 C835 1.278 . S
H848 C820 0.929 . S
H849 C821 0.929 . S
H850 C823 0.931 . S
H851 C824 0.930 . S
H852 C829 0.929 . S
H853 C830 0.929 . S
H854 C832 0.931 . S
H855 C833 0.930 . S
Pr856 C858 2.880 . S
Pr856 O876 2.562 . S
Pr856 O877 2.490 . S
Pr856 O878 2.695 . S
Pr856 O879 2.512 . S
Pr856 O881 2.437 . S
Pr856 O884 2.436 . S
Pr856 O886 2.438 . S
Pr857 C867 2.880 . S
Pr857 O878 2.436 . S
Pr857 O880 2.438 . S
Pr857 O882 2.562 . S
Pr857 O883 2.490 . S
Pr857 O884 2.695 . S
Pr857 O885 2.512 . S
Pr857 O887 2.437 . S
C858 Pr856 2.880 . S
C858 C859 1.491 . S
C858 O876 1.254 . S
C858 O877 1.225 . S
C859 C858 1.491 . S
C859 C860 1.392 . S
C859 C864 1.356 . S
C860 C859 1.392 . S
C860 C861 1.368 . S
C860 H888 0.929 . S
C861 C860 1.368 . S
C861 C862 1.386 . S
C861 H889 0.929 . S
C862 C861 1.386 . S
C862 C863 1.373 . S
C863 C862 1.373 . S
C863 C864 1.409 . S
C863 H890 0.931 . S
C864 C859 1.356 . S
C864 C863 1.409 . S
C864 H891 0.930 . S
C865 O878 1.270 . S
C865 O879 1.248 . S
C866 O880 1.267 . S
C866 O881 1.278 . S
C867 Pr857 2.880 . S
C867 C868 1.491 . S
C867 O882 1.254 . S
C867 O883 1.225 . S
C868 C867 1.491 . S
C868 C869 1.392 . S
C868 C873 1.356 . S
C869 C868 1.392 . S
C869 C870 1.368 . S
C869 H892 0.929 . S
C870 C869 1.368 . S
C870 C871 1.386 . S
C870 H893 0.929 . S
C871 C870 1.386 . S
C871 C872 1.373 . S
C872 C871 1.373 . S
C872 C873 1.409 . S
C872 H894 0.931 . S
C873 C868 1.356 . S
C873 C872 1.409 . S
C873 H895 0.930 . S
C874 O884 1.270 . S
C874 O885 1.248 . S
C875 O886 1.267 . S
C875 O887 1.278 . S
O876 Pr856 2.562 . S
O876 C858 1.254 . S
O877 Pr856 2.490 . S
O877 C858 1.225 . S
O878 Pr856 2.695 . S
O878 Pr857 2.436 . S
O878 C865 1.270 . S
O879 Pr856 2.512 . S
O879 C865 1.248 . S
O880 Pr857 2.438 . S
O880 C866 1.267 . S
O881 Pr856 2.437 . S
O881 C866 1.278 . S
O882 Pr857 2.562 . S
O882 C867 1.254 . S
O883 Pr857 2.490 . S
O883 C867 1.225 . S
O884 Pr856 2.436 . S
O884 Pr857 2.695 . S
O884 C874 1.270 . S
O885 Pr857 2.512 . S
O885 C874 1.248 . S
O886 Pr856 2.438 . S
O886 C875 1.267 . S
O887 Pr857 2.437 . S
O887 C875 1.278 . S
H888 C860 0.929 . S
H889 C861 0.929 . S
H890 C863 0.931 . S
H891 C864 0.930 . S
H892 C869 0.929 . S
H893 C870 0.929 . S
H894 C872 0.931 . S
H895 C873 0.930 . S
Pr896 C898 2.880 . S
Pr896 O916 2.562 . S
Pr896 O917 2.490 . S
Pr896 O918 2.695 . S
Pr896 O919 2.512 . S
Pr896 O921 2.437 . S
Pr896 O924 2.436 . S
Pr896 O926 2.438 . S
Pr897 C907 2.880 . S
Pr897 O918 2.436 . S
Pr897 O920 2.438 . S
Pr897 O922 2.562 . S
Pr897 O923 2.490 . S
Pr897 O924 2.695 . S
Pr897 O925 2.512 . S
Pr897 O927 2.437 . S
C898 Pr896 2.880 . S
C898 C899 1.491 . S
C898 O916 1.254 . S
C898 O917 1.225 . S
C899 C898 1.491 . S
C899 C900 1.392 . S
C899 C904 1.356 . S
C900 C899 1.392 . S
C900 C901 1.368 . S
C900 H928 0.929 . S
C901 C900 1.368 . S
C901 C902 1.386 . S
C901 H929 0.929 . S
C902 C901 1.386 . S
C902 C903 1.373 . S
C903 C902 1.373 . S
C903 C904 1.409 . S
C903 H930 0.931 . S
C904 C899 1.356 . S
C904 C903 1.409 . S
C904 H931 0.930 . S
C905 O918 1.270 . S
C905 O919 1.248 . S
C906 O920 1.267 . S
C906 O921 1.278 . S
C907 Pr897 2.880 . S
C907 C908 1.491 . S
C907 O922 1.254 . S
C907 O923 1.225 . S
C908 C907 1.491 . S
C908 C909 1.392 . S
C908 C913 1.356 . S
C909 C908 1.392 . S
C909 C910 1.368 . S
C909 H932 0.929 . S
C910 C909 1.368 . S
C910 C911 1.386 . S
C910 H933 0.929 . S
C911 C910 1.386 . S
C911 C912 1.373 . S
C912 C911 1.373 . S
C912 C913 1.409 . S
C912 H934 0.931 . S
C913 C908 1.356 . S
C913 C912 1.409 . S
C913 H935 0.930 . S
C914 O924 1.270 . S
C914 O925 1.248 . S
C915 O926 1.267 . S
C915 O927 1.278 . S
O916 Pr896 2.562 . S
O916 C898 1.254 . S
O917 Pr896 2.490 . S
O917 C898 1.225 . S
O918 Pr896 2.695 . S
O918 Pr897 2.436 . S
O918 C905 1.270 . S
O919 Pr896 2.512 . S
O919 C905 1.248 . S
O920 Pr897 2.438 . S
O920 C906 1.267 . S
O921 Pr896 2.437 . S
O921 C906 1.278 . S
O922 Pr897 2.562 . S
O922 C907 1.254 . S
O923 Pr897 2.490 . S
O923 C907 1.225 . S
O924 Pr896 2.436 . S
O924 Pr897 2.695 . S
O924 C914 1.270 . S
O925 Pr897 2.512 . S
O925 C914 1.248 . S
O926 Pr896 2.438 . S
O926 C915 1.267 . S
O927 Pr897 2.437 . S
O927 C915 1.278 . S
H928 C900 0.929 . S
H929 C901 0.929 . S
H930 C903 0.931 . S
H931 C904 0.930 . S
H932 C909 0.929 . S
H933 C910 0.929 . S
H934 C912 0.931 . S
H935 C913 0.930 . S
Pr936 C938 2.880 . S
Pr936 O956 2.562 . S
Pr936 O957 2.490 . S
Pr936 O958 2.695 . S
Pr936 O959 2.512 1_554 S
Pr936 O961 2.437 . S
Pr936 O964 2.436 . S
Pr936 O966 2.438 . S
Pr937 C947 2.880 1_455 S
Pr937 O958 2.436 . S
Pr937 O960 2.438 . S
Pr937 O962 2.562 1_455 S
Pr937 O963 2.490 1_455 S
Pr937 O964 2.695 . S
Pr937 O965 2.512 . S
Pr937 O967 2.437 . S
C938 Pr936 2.880 . S
C938 C939 1.491 . S
C938 O956 1.254 . S
C938 O957 1.225 . S
C939 C938 1.491 . S
C939 C940 1.392 1_554 S
C939 C944 1.356 . S
C940 C939 1.392 1_556 S
C940 C941 1.368 . S
C940 H968 0.929 . S
C941 C940 1.368 . S
C941 C942 1.419 . S
C941 H969 0.929 . S
C942 C941 1.419 . S
C942 C943 1.324 1_556 S
C943 C942 1.324 1_554 S
C943 C944 1.409 . S
C943 H970 0.931 . S
C944 C939 1.356 . S
C944 C943 1.409 . S
C944 H971 0.930 . S
C945 O958 1.270 1_556 S
C945 O959 1.248 . S
C946 O960 1.267 . S
C946 O961 1.278 . S
C947 Pr937 2.880 1_655 S
C947 C948 1.491 . S
C947 O962 1.254 . S
C947 O963 1.225 . S
C948 C947 1.491 . S
C948 C949 1.392 . S
C948 C953 1.356 . S
C949 C948 1.392 . S
C949 C950 1.368 . S
C949 H972 0.929 . S
C950 C949 1.368 . S
C950 C951 1.386 . S
C950 H973 0.929 . S
C951 C950 1.386 . S
C951 C952 1.373 . S
C952 C951 1.373 . S
C952 C953 1.409 . S
C952 H974 0.931 . S
C953 C948 1.356 . S
C953 C952 1.409 . S
C953 H975 0.930 . S
C954 O964 1.270 . S
C954 O965 1.248 . S
C955 O966 1.267 . S
C955 O967 1.278 . S
O956 Pr936 2.562 . S
O956 C938 1.254 . S
O957 Pr936 2.490 . S
O957 C938 1.225 . S
O958 Pr936 2.695 . S
O958 Pr937 2.436 . S
O958 C945 1.270 1_554 S
O959 Pr936 2.512 1_556 S
O959 C945 1.248 . S
O960 Pr937 2.438 . S
O960 C946 1.267 . S
O961 Pr936 2.437 . S
O961 C946 1.278 . S
O962 Pr937 2.562 1_655 S
O962 C947 1.254 . S
O963 Pr937 2.490 1_655 S
O963 C947 1.225 . S
O964 Pr936 2.436 . S
O964 Pr937 2.695 . S
O964 C954 1.270 . S
O965 Pr937 2.512 . S
O965 C954 1.248 . S
O966 Pr936 2.438 . S
O966 C955 1.267 . S
O967 Pr937 2.437 . S
O967 C955 1.278 . S
H968 C940 0.929 . S
H969 C941 0.929 . S
H970 C943 0.931 . S
H971 C944 0.930 . S
H972 C949 0.929 . S
H973 C950 0.929 . S
H974 C952 0.931 . S
H975 C953 0.930 . S
H976 C994 0.951 1_655 S
H977 C996 0.951 . S
H978 C998 0.950 . S
H979 C999 0.950 . S
H980 C1001 0.950 . S
H981 C1004 0.950 . S
H982 C1005 0.950 . S
H983 C1007 0.950 . S
H984 C1008 0.950 . S
H985 C1009 0.951 . S
H986 C1011 0.951 . S
H987 C1013 0.950 . S
H988 C1014 0.950 . S
H989 C1016 0.953 . S
H990 C1019 0.950 . S
H991 C1020 0.950 . S
H992 C1022 0.950 . S
H993 C1023 0.948 1_554 S
C994 H976 0.951 1_455 S
C994 C995 1.366 . S
C994 C996 1.388 . S
C995 C994 1.366 . S
C995 C999 1.385 . S
C996 H977 0.951 . S
C996 C994 1.388 . S
C996 C997 1.366 . S
C997 C996 1.366 . S
C997 C998 1.414 . S
C997 C1000 1.499 . S
C998 H978 0.950 . S
C998 C997 1.414 . S
C998 C999 1.374 . S
C999 H979 0.950 . S
C999 C995 1.385 . S
C999 C998 1.374 . S
C1000 C997 1.499 . S
C1000 C1001 1.373 . S
C1000 C1002 1.389 . S
C1001 H980 0.950 . S
C1001 C1000 1.373 . S
C1001 C1017 1.377 . S
C1002 C1000 1.389 . S
C1002 C1003 1.524 1_455 S
C1002 C1016 1.377 . S
C1003 C1002 1.524 1_655 S
C1003 C1004 1.397 . S
C1003 C1008 1.363 . S
C1004 H981 0.950 . S
C1004 C1003 1.397 . S
C1004 C1005 1.334 . S
C1005 H982 0.950 . S
C1005 C1004 1.334 . S
C1005 C1006 1.287 . S
C1006 C1005 1.287 . S
C1006 C1007 1.524 . S
C1006 H1025 0.913 . S
C1007 H983 0.950 . S
C1007 C1006 1.524 . S
C1007 C1008 1.415 . S
C1008 H984 0.950 . S
C1008 C1003 1.363 . S
C1008 C1007 1.415 . S
C1009 H985 0.951 . S
C1009 C1010 1.366 . S
C1009 C1011 1.388 . S
C1010 C1009 1.366 . S
C1010 C1014 1.385 1_554 S
C1011 H986 0.951 . S
C1011 C1009 1.388 . S
C1011 C1012 1.366 1_554 S
C1012 C1011 1.366 1_556 S
C1012 C1013 1.414 . S
C1012 C1015 1.499 . S
C1013 H987 0.950 . S
C1013 C1012 1.414 . S
C1013 C1014 1.374 . S
C1014 H988 0.950 . S
C1014 C1010 1.385 1_556 S
C1014 C1013 1.374 . S
C1015 C1012 1.499 . S
C1015 C1016 1.373 . S
C1015 C1017 1.389 . S
C1016 H989 0.953 . S
C1016 C1002 1.377 . S
C1016 C1015 1.373 . S
C1017 C1001 1.377 . S
C1017 C1015 1.389 . S
C1017 C1018 1.524 . S
C1018 C1017 1.524 . S
C1018 C1019 1.397 . S
C1018 C1023 1.365 . S
C1019 H990 0.950 . S
C1019 C1018 1.397 . S
C1019 C1020 1.334 . S
C1020 H991 0.950 . S
C1020 C1019 1.334 . S
C1020 C1021 1.287 . S
C1021 C1020 1.287 . S
C1021 C1022 1.524 1_556 S
C1021 H1024 0.999 . S
C1022 H992 0.950 . S
C1022 C1021 1.524 1_554 S
C1022 C1023 1.415 1_554 S
C1023 H993 0.948 1_556 S
C1023 C1018 1.365 . S
C1023 C1022 1.415 1_556 S
H1024 C1021 0.999 . S
H1025 C1006 0.913 . S
H1026 C1044 0.951 . S
H1027 C1046 0.951 . S
H1028 C1048 0.950 . S
H1029 C1049 0.950 . S
H1030 C1051 0.950 . S
H1031 C1054 0.950 . S
H1032 C1055 0.950 . S
H1033 C1057 0.950 . S
H1034 C1058 0.950 . S
H1035 C1059 0.951 . S
H1036 C1061 0.951 . S
H1037 C1063 0.950 . S
H1038 C1064 0.950 . S
H1039 C1066 0.950 . S
H1040 C1069 0.950 . S
H1041 C1070 0.950 . S
H1042 C1072 0.950 . S
H1043 C1073 0.950 . S
C1044 H1026 0.951 . S
C1044 C1045 1.366 . S
C1044 C1046 1.388 . S
C1045 C1044 1.366 . S
C1045 C1049 1.385 . S
C1046 H1027 0.951 . S
C1046 C1044 1.388 . S
C1046 C1047 1.366 . S
C1047 C1046 1.366 . S
C1047 C1048 1.414 . S
C1047 C1050 1.499 . S
C1048 H1028 0.950 . S
C1048 C1047 1.414 . S
C1048 C1049 1.374 . S
C1049 H1029 0.950 . S
C1049 C1045 1.385 . S
C1049 C1048 1.374 . S
C1050 C1047 1.499 . S
C1050 C1051 1.373 . S
C1050 C1052 1.389 . S
C1051 H1030 0.950 . S
C1051 C1050 1.373 . S
C1051 C1067 1.377 . S
C1052 C1050 1.389 . S
C1052 C1053 1.524 . S
C1052 C1066 1.377 . S
C1053 C1052 1.524 . S
C1053 C1054 1.397 . S
C1053 C1058 1.363 . S
C1054 H1031 0.950 . S
C1054 C1053 1.397 . S
C1054 C1055 1.334 . S
C1055 H1032 0.950 . S
C1055 C1054 1.334 . S
C1055 C1056 1.287 . S
C1056 C1055 1.287 . S
C1056 C1057 1.524 . S
C1056 H1075 0.913 . S
C1057 H1033 0.950 . S
C1057 C1056 1.524 . S
C1057 C1058 1.415 . S
C1058 H1034 0.950 . S
C1058 C1053 1.363 . S
C1058 C1057 1.415 . S
C1059 H1035 0.951 . S
C1059 C1060 1.366 . S
C1059 C1061 1.388 . S
C1060 C1059 1.366 . S
C1060 C1064 1.385 . S
C1061 H1036 0.951 . S
C1061 C1059 1.388 . S
C1061 C1062 1.366 . S
C1062 C1061 1.366 . S
C1062 C1063 1.414 . S
C1062 C1065 1.499 . S
C1063 H1037 0.950 . S
C1063 C1062 1.414 . S
C1063 C1064 1.374 . S
C1064 H1038 0.950 . S
C1064 C1060 1.385 . S
C1064 C1063 1.374 . S
C1065 C1062 1.499 . S
C1065 C1066 1.373 . S
C1065 C1067 1.389 . S
C1066 H1039 0.950 . S
C1066 C1052 1.377 . S
C1066 C1065 1.373 . S
C1067 C1051 1.377 . S
C1067 C1065 1.389 . S
C1067 C1068 1.524 . S
C1068 C1067 1.524 . S
C1068 C1069 1.397 . S
C1068 C1073 1.363 . S
C1069 H1040 0.950 . S
C1069 C1068 1.397 . S
C1069 C1070 1.334 . S
C1070 H1041 0.950 . S
C1070 C1069 1.334 . S
C1070 C1071 1.287 . S
C1071 C1070 1.287 . S
C1071 C1072 1.524 . S
C1071 H1074 0.999 . S
C1072 H1042 0.950 . S
C1072 C1071 1.524 . S
C1072 C1073 1.415 . S
C1073 H1043 0.950 . S
C1073 C1068 1.363 . S
C1073 C1072 1.415 . S
H1074 C1071 0.999 . S
H1075 C1056 0.913 . S
H1076 C1094 0.951 . S
H1077 C1096 0.951 . S
H1078 C1098 0.950 . S
H1079 C1099 0.950 . S
H1080 C1101 0.950 . S
H1081 C1104 0.950 . S
H1082 C1105 0.950 . S
H1083 C1107 0.950 . S
H1084 C1108 0.950 . S
H1085 C1109 0.951 . S
H1086 C1111 0.951 . S
H1087 C1113 0.950 . S
H1088 C1114 0.950 . S
H1089 C1116 0.950 . S
H1090 C1119 0.950 . S
H1091 C1120 0.950 . S
H1092 C1122 0.950 . S
H1093 C1123 0.950 . S
C1094 H1076 0.951 . S
C1094 C1095 1.366 . S
C1094 C1096 1.388 . S
C1095 C1094 1.366 . S
C1095 C1099 1.385 . S
C1096 H1077 0.951 . S
C1096 C1094 1.388 . S
C1096 C1097 1.366 . S
C1097 C1096 1.366 . S
C1097 C1098 1.414 . S
C1097 C1100 1.499 . S
C1098 H1078 0.950 . S
C1098 C1097 1.414 . S
C1098 C1099 1.374 . S
C1099 H1079 0.950 . S
C1099 C1095 1.385 . S
C1099 C1098 1.374 . S
C1100 C1097 1.499 . S
C1100 C1101 1.373 . S
C1100 C1102 1.389 . S
C1101 H1080 0.950 . S
C1101 C1100 1.373 . S
C1101 C1117 1.377 . S
C1102 C1100 1.389 . S
C1102 C1103 1.524 . S
C1102 C1116 1.377 . S
C1103 C1102 1.524 . S
C1103 C1104 1.397 . S
C1103 C1108 1.363 . S
C1104 H1081 0.950 . S
C1104 C1103 1.397 . S
C1104 C1105 1.334 . S
C1105 H1082 0.950 . S
C1105 C1104 1.334 . S
C1105 C1106 1.287 . S
C1106 C1105 1.287 . S
C1106 C1107 1.524 . S
C1106 H1125 0.913 . S
C1107 H1083 0.950 . S
C1107 C1106 1.524 . S
C1107 C1108 1.415 . S
C1108 H1084 0.950 . S
C1108 C1103 1.363 . S
C1108 C1107 1.415 . S
C1109 H1085 0.951 . S
C1109 C1110 1.366 . S
C1109 C1111 1.388 1_545 S
C1110 C1109 1.366 . S
C1110 C1114 1.385 1_545 S
C1111 H1086 0.951 . S
C1111 C1109 1.388 1_565 S
C1111 C1112 1.366 . S
C1112 C1111 1.366 . S
C1112 C1113 1.414 . S
C1112 C1115 1.499 . S
C1113 H1087 0.950 . S
C1113 C1112 1.414 . S
C1113 C1114 1.374 . S
C1114 H1088 0.950 . S
C1114 C1110 1.385 1_565 S
C1114 C1113 1.374 . S
C1115 C1112 1.499 . S
C1115 C1116 1.373 . S
C1115 C1117 1.389 . S
C1116 H1089 0.950 . S
C1116 C1102 1.377 . S
C1116 C1115 1.373 . S
C1117 C1101 1.377 . S
C1117 C1115 1.389 . S
C1117 C1118 1.524 . S
C1118 C1117 1.524 . S
C1118 C1119 1.397 . S
C1118 C1123 1.363 . S
C1119 H1090 0.950 . S
C1119 C1118 1.397 . S
C1119 C1120 1.334 . S
C1120 H1091 0.950 . S
C1120 C1119 1.334 . S
C1120 C1121 1.287 . S
C1121 C1120 1.287 . S
C1121 C1122 1.524 . S
C1121 H1124 0.999 . S
C1122 H1092 0.950 . S
C1122 C1121 1.524 . S
C1122 C1123 1.415 . S
C1123 H1093 0.950 . S
C1123 C1118 1.363 . S
C1123 C1122 1.415 . S
H1124 C1121 0.999 . S
H1125 C1106 0.913 . S
H1126 C1144 0.951 . S
H1127 C1146 0.951 . S
H1128 C1148 0.950 . S
H1129 C1149 0.950 . S
H1130 C1151 0.950 . S
H1131 C1154 0.950 . S
H1132 C1155 0.950 . S
H1133 C1157 0.950 . S
H1134 C1158 0.950 . S
H1135 C1159 0.951 . S
H1136 C1161 0.951 . S
H1137 C1163 0.950 . S
H1138 C1164 0.950 . S
H1139 C1166 0.950 . S
H1140 C1169 0.950 . S
H1141 C1170 0.950 . S
H1142 C1172 0.950 . S
H1143 C1173 0.950 . S
C1144 H1126 0.951 . S
C1144 C1145 1.366 . S
C1144 C1146 1.388 . S
C1145 C1144 1.366 . S
C1145 C1149 1.385 . S
C1146 H1127 0.951 . S
C1146 C1144 1.388 . S
C1146 C1147 1.366 . S
C1147 C1146 1.366 . S
C1147 C1148 1.414 . S
C1147 C1150 1.499 . S
C1148 H1128 0.950 . S
C1148 C1147 1.414 . S
C1148 C1149 1.374 . S
C1149 H1129 0.950 . S
C1149 C1145 1.385 . S
C1149 C1148 1.374 . S
C1150 C1147 1.499 . S
C1150 C1151 1.373 . S
C1150 C1152 1.389 . S
C1151 H1130 0.950 . S
C1151 C1150 1.373 . S
C1151 C1167 1.377 . S
C1152 C1150 1.389 . S
C1152 C1153 1.524 . S
C1152 C1166 1.377 . S
C1153 C1152 1.524 . S
C1153 C1154 1.397 . S
C1153 C1158 1.363 . S
C1154 H1131 0.950 . S
C1154 C1153 1.397 . S
C1154 C1155 1.334 . S
C1155 H1132 0.950 . S
C1155 C1154 1.334 . S
C1155 C1156 1.287 . S
C1156 C1155 1.287 . S
C1156 C1157 1.524 . S
C1156 H1175 0.913 . S
C1157 H1133 0.950 . S
C1157 C1156 1.524 . S
C1157 C1158 1.415 . S
C1158 H1134 0.950 . S
C1158 C1153 1.363 . S
C1158 C1157 1.415 . S
C1159 H1135 0.951 . S
C1159 C1160 1.366 . S
C1159 C1161 1.388 . S
C1160 C1159 1.366 . S
C1160 C1164 1.385 . S
C1161 H1136 0.951 . S
C1161 C1159 1.388 . S
C1161 C1162 1.366 . S
C1162 C1161 1.366 . S
C1162 C1163 1.414 . S
C1162 C1165 1.499 . S
C1163 H1137 0.950 . S
C1163 C1162 1.414 . S
C1163 C1164 1.374 . S
C1164 H1138 0.950 . S
C1164 C1160 1.385 . S
C1164 C1163 1.374 . S
C1165 C1162 1.499 . S
C1165 C1166 1.373 . S
C1165 C1167 1.389 . S
C1166 H1139 0.950 . S
C1166 C1152 1.377 . S
C1166 C1165 1.373 . S
C1167 C1151 1.377 . S
C1167 C1165 1.389 . S
C1167 C1168 1.524 . S
C1168 C1167 1.524 . S
C1168 C1169 1.397 . S
C1168 C1173 1.363 . S
C1169 H1140 0.950 . S
C1169 C1168 1.397 . S
C1169 C1170 1.334 . S
C1170 H1141 0.950 . S
C1170 C1169 1.334 . S
C1170 C1171 1.287 . S
C1171 C1170 1.287 . S
C1171 C1172 1.524 . S
C1171 H1174 0.999 . S
C1172 H1142 0.950 . S
C1172 C1171 1.524 . S
C1172 C1173 1.415 . S
C1173 H1143 0.950 . S
C1173 C1168 1.363 . S
C1173 C1172 1.415 . S
H1174 C1171 0.999 . S
H1175 C1156 0.913 . S
H1176 C1194 0.951 . S
H1177 C1196 0.951 . S
H1178 C1198 0.950 . S
H1179 C1199 0.950 . S
H1180 C1201 0.950 . S
H1181 C1204 0.950 . S
H1182 C1205 0.950 . S
H1183 C1207 0.936 1_655 S
H1184 C1208 0.950 . S
H1185 C1209 0.951 . S
H1186 C1211 0.951 . S
H1187 C1213 0.950 . S
H1188 C1214 0.950 . S
H1189 C1216 0.950 . S
H1190 C1219 0.950 . S
H1191 C1220 0.950 . S
H1192 C1222 0.964 1_545 S
H1193 C1223 0.950 . S
C1194 H1176 0.951 . S
C1194 C1195 1.366 . S
C1194 C1196 1.388 . S
C1195 C1194 1.366 . S
C1195 C1199 1.385 . S
C1196 H1177 0.951 . S
C1196 C1194 1.388 . S
C1196 C1197 1.366 . S
C1197 C1196 1.366 . S
C1197 C1198 1.414 . S
C1197 C1200 1.499 . S
C1198 H1178 0.950 . S
C1198 C1197 1.414 . S
C1198 C1199 1.374 . S
C1199 H1179 0.950 . S
C1199 C1195 1.385 . S
C1199 C1198 1.374 . S
C1200 C1197 1.499 . S
C1200 C1201 1.373 . S
C1200 C1202 1.389 . S
C1201 H1180 0.950 . S
C1201 C1200 1.373 . S
C1201 C1217 1.377 . S
C1202 C1200 1.389 . S
C1202 C1203 1.524 . S
C1202 C1216 1.377 . S
C1203 C1202 1.524 . S
C1203 C1204 1.397 . S
C1203 C1208 1.363 . S
C1204 H1181 0.950 . S
C1204 C1203 1.397 . S
C1204 C1205 1.334 . S
C1205 H1182 0.950 . S
C1205 C1204 1.334 . S
C1205 C1206 1.287 . S
C1206 C1205 1.287 . S
C1206 C1207 1.533 . S
C1206 H1225 0.890 1_455 S
C1207 H1183 0.936 1_455 S
C1207 C1206 1.533 . S
C1207 C1208 1.422 . S
C1208 H1184 0.950 . S
C1208 C1203 1.363 . S
C1208 C1207 1.422 . S
C1209 H1185 0.951 . S
C1209 C1210 1.366 . S
C1209 C1211 1.388 1_545 S
C1210 C1209 1.366 . S
C1210 C1214 1.385 . S
C1211 H1186 0.951 . S
C1211 C1209 1.388 1_565 S
C1211 C1212 1.366 . S
C1212 C1211 1.366 . S
C1212 C1213 1.414 . S
C1212 C1215 1.499 . S
C1213 H1187 0.950 . S
C1213 C1212 1.414 . S
C1213 C1214 1.374 1_565 S
C1214 H1188 0.950 . S
C1214 C1210 1.385 . S
C1214 C1213 1.374 1_545 S
C1215 C1212 1.499 . S
C1215 C1216 1.373 . S
C1215 C1217 1.389 . S
C1216 H1189 0.950 . S
C1216 C1202 1.377 . S
C1216 C1215 1.373 . S
C1217 C1201 1.377 . S
C1217 C1215 1.389 . S
C1217 C1218 1.524 . S
C1218 C1217 1.524 . S
C1218 C1219 1.397 . S
C1218 C1223 1.363 . S
C1219 H1190 0.950 . S
C1219 C1218 1.397 . S
C1219 C1220 1.334 1_565 S
C1220 H1191 0.950 . S
C1220 C1219 1.334 1_545 S
C1220 C1221 1.287 . S
C1221 C1220 1.287 . S
C1221 C1222 1.510 1_545 S
C1221 H1224 0.999 . S
C1222 H1192 0.964 1_565 S
C1222 C1221 1.510 1_565 S
C1222 C1223 1.426 . S
C1223 H1193 0.950 . S
C1223 C1218 1.363 . S
C1223 C1222 1.426 . S
H1224 C1221 0.999 . S
H1225 C1206 0.890 1_655 S
H1226 C1244 0.951 . S
H1227 C1246 0.951 . S
H1228 C1248 0.950 . S
H1229 C1249 0.950 . S
H1230 C1251 0.950 . S
H1231 C1254 0.950 . S
H1232 C1255 0.950 . S
H1233 C1257 0.950 . S
H1234 C1258 0.950 . S
H1235 C1259 0.951 . S
H1236 C1261 0.951 . S
H1237 C1263 0.950 . S
H1238 C1264 0.950 . S
H1239 C1266 0.950 . S
H1240 C1269 0.950 . S
H1241 C1270 0.950 . S
H1242 C1272 0.950 . S
H1243 C1273 0.950 . S
C1244 H1226 0.951 . S
C1244 C1245 1.366 . S
C1244 C1246 1.388 . S
C1245 C1244 1.366 . S
C1245 C1249 1.385 . S
C1246 H1227 0.951 . S
C1246 C1244 1.388 . S
C1246 C1247 1.366 . S
C1247 C1246 1.366 . S
C1247 C1248 1.414 . S
C1247 C1250 1.499 . S
C1248 H1228 0.950 . S
C1248 C1247 1.414 . S
C1248 C1249 1.374 . S
C1249 H1229 0.950 . S
C1249 C1245 1.385 . S
C1249 C1248 1.374 . S
C1250 C1247 1.499 . S
C1250 C1251 1.373 . S
C1250 C1252 1.389 . S
C1251 H1230 0.950 . S
C1251 C1250 1.373 . S
C1251 C1267 1.377 . S
C1252 C1250 1.389 . S
C1252 C1253 1.524 . S
C1252 C1266 1.377 . S
C1253 C1252 1.524 . S
C1253 C1254 1.397 . S
C1253 C1258 1.363 . S
C1254 H1231 0.950 . S
C1254 C1253 1.397 . S
C1254 C1255 1.334 . S
C1255 H1232 0.950 . S
C1255 C1254 1.334 . S
C1255 C1256 1.287 . S
C1256 C1255 1.287 . S
C1256 C1257 1.524 . S
C1256 H1275 0.913 . S
C1257 H1233 0.950 . S
C1257 C1256 1.524 . S
C1257 C1258 1.415 . S
C1258 H1234 0.950 . S
C1258 C1253 1.363 . S
C1258 C1257 1.415 . S
C1259 H1235 0.951 . S
C1259 C1260 1.366 . S
C1259 C1261 1.388 . S
C1260 C1259 1.366 . S
C1260 C1264 1.385 . S
C1261 H1236 0.951 . S
C1261 C1259 1.388 . S
C1261 C1262 1.366 . S
C1262 C1261 1.366 . S
C1262 C1263 1.414 . S
C1262 C1265 1.499 . S
C1263 H1237 0.950 . S
C1263 C1262 1.414 . S
C1263 C1264 1.374 . S
C1264 H1238 0.950 . S
C1264 C1260 1.385 . S
C1264 C1263 1.374 . S
C1265 C1262 1.499 . S
C1265 C1266 1.373 . S
C1265 C1267 1.389 . S
C1266 H1239 0.950 . S
C1266 C1252 1.377 . S
C1266 C1265 1.373 . S
C1267 C1251 1.377 . S
C1267 C1265 1.389 . S
C1267 C1268 1.524 . S
C1268 C1267 1.524 . S
C1268 C1269 1.397 . S
C1268 C1273 1.363 . S
C1269 H1240 0.950 . S
C1269 C1268 1.397 . S
C1269 C1270 1.334 . S
C1270 H1241 0.950 . S
C1270 C1269 1.334 . S
C1270 C1271 1.287 . S
C1271 C1270 1.287 . S
C1271 C1272 1.524 . S
C1271 H1274 0.999 . S
C1272 H1242 0.950 . S
C1272 C1271 1.524 . S
C1272 C1273 1.415 . S
C1273 H1243 0.950 . S
C1273 C1268 1.363 . S
C1273 C1272 1.415 . S
H1274 C1271 0.999 . S
H1275 C1256 0.913 . S
H1276 C1294 0.951 . S
H1277 C1296 0.951 . S
H1278 C1298 0.950 . S
H1279 C1299 0.950 . S
H1280 C1301 0.950 . S
H1281 C1304 0.950 . S
H1282 C1305 0.950 . S
H1283 C1307 0.950 . S
H1284 C1308 0.950 . S
H1285 C1309 0.951 . S
H1286 C1311 0.951 . S
H1287 C1313 0.950 . S
H1288 C1314 0.950 . S
H1289 C1316 0.950 . S
H1290 C1319 0.950 . S
H1291 C1320 0.950 . S
H1292 C1322 0.950 . S
H1293 C1323 0.950 . S
C1294 H1276 0.951 . S
C1294 C1295 1.366 . S
C1294 C1296 1.388 . S
C1295 C1294 1.366 . S
C1295 C1299 1.385 . S
C1296 H1277 0.951 . S
C1296 C1294 1.388 . S
C1296 C1297 1.366 . S
C1297 C1296 1.366 . S
C1297 C1298 1.414 . S
C1297 C1300 1.499 . S
C1298 H1278 0.950 . S
C1298 C1297 1.414 . S
C1298 C1299 1.374 . S
C1299 H1279 0.950 . S
C1299 C1295 1.385 . S
C1299 C1298 1.374 . S
C1300 C1297 1.499 . S
C1300 C1301 1.373 . S
C1300 C1302 1.389 . S
C1301 H1280 0.950 . S
C1301 C1300 1.373 . S
C1301 C1317 1.377 . S
C1302 C1300 1.389 . S
C1302 C1303 1.524 . S
C1302 C1316 1.377 . S
C1303 C1302 1.524 . S
C1303 C1304 1.397 . S
C1303 C1308 1.363 . S
C1304 H1281 0.950 . S
C1304 C1303 1.397 . S
C1304 C1305 1.334 . S
C1305 H1282 0.950 . S
C1305 C1304 1.334 . S
C1305 C1306 1.287 . S
C1306 C1305 1.287 . S
C1306 C1307 1.524 . S
C1306 H1325 0.913 . S
C1307 H1283 0.950 . S
C1307 C1306 1.524 . S
C1307 C1308 1.415 . S
C1308 H1284 0.950 . S
C1308 C1303 1.363 . S
C1308 C1307 1.415 . S
C1309 H1285 0.951 . S
C1309 C1310 1.366 . S
C1309 C1311 1.388 . S
C1310 C1309 1.366 . S
C1310 C1314 1.385 . S
C1311 H1286 0.951 . S
C1311 C1309 1.388 . S
C1311 C1312 1.366 . S
C1312 C1311 1.366 . S
C1312 C1313 1.414 . S
C1312 C1315 1.499 . S
C1313 H1287 0.950 . S
C1313 C1312 1.414 . S
C1313 C1314 1.374 . S
C1314 H1288 0.950 . S
C1314 C1310 1.385 . S
C1314 C1313 1.374 . S
C1315 C1312 1.499 . S
C1315 C1316 1.373 . S
C1315 C1317 1.389 . S
C1316 H1289 0.950 . S
C1316 C1302 1.377 . S
C1316 C1315 1.373 . S
C1317 C1301 1.377 . S
C1317 C1315 1.389 . S
C1317 C1318 1.524 . S
C1318 C1317 1.524 . S
C1318 C1319 1.397 . S
C1318 C1323 1.363 . S
C1319 H1290 0.950 . S
C1319 C1318 1.397 . S
C1319 C1320 1.334 . S
C1320 H1291 0.950 . S
C1320 C1319 1.334 . S
C1320 C1321 1.287 . S
C1321 C1320 1.287 . S
C1321 C1322 1.524 . S
C1321 H1324 0.999 . S
C1322 H1292 0.950 . S
C1322 C1321 1.524 . S
C1322 C1323 1.415 . S
C1323 H1293 0.950 . S
C1323 C1318 1.363 . S
C1323 C1322 1.415 . S
H1324 C1321 0.999 . S
H1325 C1306 0.913 . S
H1326 C1344 0.951 . S
H1327 C1346 0.951 . S
H1328 C1348 0.950 . S
H1329 C1349 0.950 . S
H1330 C1351 0.950 . S
H1331 C1354 0.950 . S
H1332 C1355 0.950 . S
H1333 C1357 0.950 . S
H1334 C1358 0.950 . S
H1335 C1359 0.951 . S
H1336 C1361 0.951 . S
H1337 C1363 0.950 . S
H1338 C1364 0.950 . S
H1339 C1366 0.950 . S
H1340 C1369 0.950 . S
H1341 C1370 0.950 . S
H1342 C1372 0.950 . S
H1343 C1373 0.950 . S
C1344 H1326 0.951 . S
C1344 C1345 1.366 . S
C1344 C1346 1.388 . S
C1345 C1344 1.366 . S
C1345 C1349 1.385 . S
C1346 H1327 0.951 . S
C1346 C1344 1.388 . S
C1346 C1347 1.366 . S
C1347 C1346 1.366 . S
C1347 C1348 1.414 . S
C1347 C1350 1.499 . S
C1348 H1328 0.950 . S
C1348 C1347 1.414 . S
C1348 C1349 1.374 . S
C1349 H1329 0.950 . S
C1349 C1345 1.385 . S
C1349 C1348 1.374 . S
C1350 C1347 1.499 . S
C1350 C1351 1.373 . S
C1350 C1352 1.389 . S
C1351 H1330 0.950 . S
C1351 C1350 1.373 . S
C1351 C1367 1.377 . S
C1352 C1350 1.389 . S
C1352 C1353 1.524 . S
C1352 C1366 1.377 . S
C1353 C1352 1.524 . S
C1353 C1354 1.397 . S
C1353 C1358 1.363 . S
C1354 H1331 0.950 . S
C1354 C1353 1.397 . S
C1354 C1355 1.334 . S
C1355 H1332 0.950 . S
C1355 C1354 1.334 . S
C1355 C1356 1.287 . S
C1356 C1355 1.287 . S
C1356 C1357 1.524 . S
C1356 H1375 0.913 . S
C1357 H1333 0.950 . S
C1357 C1356 1.524 . S
C1357 C1358 1.415 . S
C1358 H1334 0.950 . S
C1358 C1353 1.363 . S
C1358 C1357 1.415 . S
C1359 H1335 0.951 . S
C1359 C1360 1.366 . S
C1359 C1361 1.388 . S
C1360 C1359 1.366 . S
C1360 C1364 1.385 . S
C1361 H1336 0.951 . S
C1361 C1359 1.388 . S
C1361 C1362 1.366 . S
C1362 C1361 1.366 . S
C1362 C1363 1.414 . S
C1362 C1365 1.499 . S
C1363 H1337 0.950 . S
C1363 C1362 1.414 . S
C1363 C1364 1.374 . S
C1364 H1338 0.950 . S
C1364 C1360 1.385 . S
C1364 C1363 1.374 . S
C1365 C1362 1.499 . S
C1365 C1366 1.373 . S
C1365 C1367 1.389 . S
C1366 H1339 0.950 . S
C1366 C1352 1.377 . S
C1366 C1365 1.373 . S
C1367 C1351 1.377 . S
C1367 C1365 1.389 . S
C1367 C1368 1.524 . S
C1368 C1367 1.524 . S
C1368 C1369 1.397 . S
C1368 C1373 1.363 . S
C1369 H1340 0.950 . S
C1369 C1368 1.397 . S
C1369 C1370 1.334 . S
C1370 H1341 0.950 . S
C1370 C1369 1.334 . S
C1370 C1371 1.287 . S
C1371 C1370 1.287 . S
C1371 C1372 1.524 . S
C1371 H1374 0.999 . S
C1372 H1342 0.950 . S
C1372 C1371 1.524 . S
C1372 C1373 1.415 . S
C1373 H1343 0.950 . S
C1373 C1368 1.363 . S
C1373 C1372 1.415 . S
H1374 C1371 0.999 . S
H1375 C1356 0.913 . S
H1376 C1394 0.951 . S
H1377 C1396 0.951 . S
H1378 C1398 0.950 . S
H1379 C1399 0.950 . S
H1380 C1401 0.950 . S
H1381 C1404 0.950 . S
H1382 C1405 0.950 . S
H1383 C1407 0.950 . S
H1384 C1408 0.950 . S
H1385 C1409 0.951 . S
H1386 C1411 0.951 . S
H1387 C1413 0.950 . S
H1388 C1414 0.947 1_655 S
H1389 C1416 0.950 . S
H1390 C1419 0.950 . S
H1391 C1420 0.950 . S
H1392 C1422 0.950 . S
H1393 C1423 0.950 . S
C1394 H1376 0.951 . S
C1394 C1395 1.366 . S
C1394 C1396 1.388 . S
C1395 C1394 1.366 . S
C1395 C1399 1.385 . S
C1396 H1377 0.951 . S
C1396 C1394 1.388 . S
C1396 C1397 1.366 . S
C1397 C1396 1.366 . S
C1397 C1398 1.414 . S
C1397 C1400 1.499 . S
C1398 H1378 0.950 . S
C1398 C1397 1.414 . S
C1398 C1399 1.374 . S
C1399 H1379 0.950 . S
C1399 C1395 1.385 . S
C1399 C1398 1.374 . S
C1400 C1397 1.499 . S
C1400 C1401 1.373 . S
C1400 C1402 1.389 . S
C1401 H1380 0.950 . S
C1401 C1400 1.373 . S
C1401 C1417 1.377 . S
C1402 C1400 1.389 . S
C1402 C1403 1.524 . S
C1402 C1416 1.377 . S
C1403 C1402 1.524 . S
C1403 C1404 1.397 . S
C1403 C1408 1.363 . S
C1404 H1381 0.950 . S
C1404 C1403 1.397 . S
C1404 C1405 1.334 1_545 S
C1405 H1382 0.950 . S
C1405 C1404 1.334 1_565 S
C1405 C1406 1.287 . S
C1406 C1405 1.287 . S
C1406 C1407 1.524 . S
C1406 H1425 0.913 . S
C1407 H1383 0.950 . S
C1407 C1406 1.524 . S
C1407 C1408 1.415 1_565 S
C1408 H1384 0.950 . S
C1408 C1403 1.363 . S
C1408 C1407 1.415 1_545 S
C1409 H1385 0.951 . S
C1409 C1410 1.366 . S
C1409 C1411 1.388 . S
C1410 C1409 1.366 . S
C1410 C1414 1.385 . S
C1411 H1386 0.951 . S
C1411 C1409 1.388 . S
C1411 C1412 1.366 . S
C1412 C1411 1.366 . S
C1412 C1413 1.414 1_455 S
C1412 C1415 1.499 1_455 S
C1413 H1387 0.950 . S
C1413 C1412 1.414 1_655 S
C1413 C1414 1.374 1_655 S
C1414 H1388 0.947 1_455 S
C1414 C1410 1.385 . S
C1414 C1413 1.374 1_455 S
C1415 C1412 1.499 1_655 S
C1415 C1416 1.373 . S
C1415 C1417 1.389 . S
C1416 H1389 0.950 . S
C1416 C1402 1.377 . S
C1416 C1415 1.373 . S
C1417 C1401 1.377 . S
C1417 C1415 1.389 . S
C1417 C1418 1.524 1_655 S
C1418 C1417 1.524 1_455 S
C1418 C1419 1.397 1_455 S
C1418 C1423 1.363 . S
C1419 H1390 0.950 . S
C1419 C1418 1.397 1_655 S
C1419 C1420 1.334 1_655 S
C1420 H1391 0.950 . S
C1420 C1419 1.334 1_455 S
C1420 C1421 1.287 . S
C1421 C1420 1.287 . S
C1421 C1422 1.524 . S
C1421 H1424 0.999 . S
C1422 H1392 0.950 . S
C1422 C1421 1.524 . S
C1422 C1423 1.415 . S
C1423 H1393 0.950 . S
C1423 C1418 1.363 . S
C1423 C1422 1.415 . S
H1424 C1421 0.999 . S
H1425 C1406 0.913 . S
H1426 C1444 0.951 . S
H1427 C1446 0.951 . S
H1428 C1448 0.950 . S
H1429 C1449 0.950 . S
H1430 C1451 0.950 . S
H1431 C1454 0.950 . S
H1432 C1455 0.950 . S
H1433 C1457 0.950 . S
H1434 C1458 0.950 . S
H1435 C1459 0.951 . S
H1436 C1461 0.951 . S
H1437 C1463 0.950 . S
H1438 C1464 0.950 . S
H1439 C1466 0.950 . S
H1440 C1469 0.950 . S
H1441 C1470 0.950 . S
H1442 C1472 0.950 . S
H1443 C1473 0.950 . S
C1444 H1426 0.951 . S
C1444 C1445 1.366 . S
C1444 C1446 1.388 . S
C1445 C1444 1.366 . S
C1445 C1449 1.385 . S
C1446 H1427 0.951 . S
C1446 C1444 1.388 . S
C1446 C1447 1.366 . S
C1447 C1446 1.366 . S
C1447 C1448 1.414 . S
C1447 C1450 1.499 . S
C1448 H1428 0.950 . S
C1448 C1447 1.414 . S
C1448 C1449 1.374 . S
C1449 H1429 0.950 . S
C1449 C1445 1.385 . S
C1449 C1448 1.374 . S
C1450 C1447 1.499 . S
C1450 C1451 1.373 . S
C1450 C1452 1.389 . S
C1451 H1430 0.950 . S
C1451 C1450 1.373 . S
C1451 C1467 1.377 . S
C1452 C1450 1.389 . S
C1452 C1453 1.524 . S
C1452 C1466 1.377 . S
C1453 C1452 1.524 . S
C1453 C1454 1.397 . S
C1453 C1458 1.363 . S
C1454 H1431 0.950 . S
C1454 C1453 1.397 . S
C1454 C1455 1.334 . S
C1455 H1432 0.950 . S
C1455 C1454 1.334 . S
C1455 C1456 1.287 . S
C1456 C1455 1.287 . S
C1456 C1457 1.524 . S
C1456 H1475 0.913 . S
C1457 H1433 0.950 . S
C1457 C1456 1.524 . S
C1457 C1458 1.415 . S
C1458 H1434 0.950 . S
C1458 C1453 1.363 . S
C1458 C1457 1.415 . S
C1459 H1435 0.951 . S
C1459 C1460 1.366 . S
C1459 C1461 1.388 . S
C1460 C1459 1.366 . S
C1460 C1464 1.385 . S
C1461 H1436 0.951 . S
C1461 C1459 1.388 . S
C1461 C1462 1.366 . S
C1462 C1461 1.366 . S
C1462 C1463 1.414 . S
C1462 C1465 1.499 . S
C1463 H1437 0.950 . S
C1463 C1462 1.414 . S
C1463 C1464 1.374 . S
C1464 H1438 0.950 . S
C1464 C1460 1.385 . S
C1464 C1463 1.374 . S
C1465 C1462 1.499 . S
C1465 C1466 1.373 . S
C1465 C1467 1.389 . S
C1466 H1439 0.950 . S
C1466 C1452 1.377 . S
C1466 C1465 1.373 . S
C1467 C1451 1.377 . S
C1467 C1465 1.389 . S
C1467 C1468 1.524 . S
C1468 C1467 1.524 . S
C1468 C1469 1.397 . S
C1468 C1473 1.363 . S
C1469 H1440 0.950 . S
C1469 C1468 1.397 . S
C1469 C1470 1.334 . S
C1470 H1441 0.950 . S
C1470 C1469 1.334 . S
C1470 C1471 1.287 . S
C1471 C1470 1.287 . S
C1471 C1472 1.524 . S
C1471 H1474 0.999 . S
C1472 H1442 0.950 . S
C1472 C1471 1.524 . S
C1472 C1473 1.415 . S
C1473 H1443 0.950 . S
C1473 C1468 1.363 . S
C1473 C1472 1.415 . S
H1474 C1471 0.999 . S
H1475 C1456 0.913 . S
H1476 C1494 0.951 . S
H1477 C1496 0.951 . S
H1478 C1498 0.950 . S
H1479 C1499 0.950 . S
H1480 C1501 0.950 . S
H1481 C1504 0.978 . S
H1482 C1505 0.950 . S
H1483 C1507 0.950 . S
H1484 C1508 0.950 . S
H1485 C1509 0.951 . S
H1486 C1511 0.951 . S
H1487 C1513 0.950 . S
H1488 C1514 0.950 . S
H1489 C1516 0.950 . S
H1490 C1519 0.950 . S
H1491 C1520 0.950 . S
H1492 C1522 0.950 . S
H1493 C1523 0.950 1_565 S
C1494 H1476 0.951 . S
C1494 C1495 1.366 1_545 S
C1494 C1496 1.388 . S
C1495 C1494 1.366 1_565 S
C1495 C1499 1.385 . S
C1496 H1477 0.951 . S
C1496 C1494 1.388 . S
C1496 C1497 1.366 . S
C1497 C1496 1.366 . S
C1497 C1498 1.414 1_545 S
C1497 C1500 1.499 . S
C1498 H1478 0.950 . S
C1498 C1497 1.414 1_565 S
C1498 C1499 1.374 . S
C1499 H1479 0.950 . S
C1499 C1495 1.385 . S
C1499 C1498 1.374 . S
C1500 C1497 1.499 . S
C1500 C1501 1.373 . S
C1500 C1502 1.389 . S
C1501 H1480 0.950 . S
C1501 C1500 1.373 . S
C1501 C1517 1.377 . S
C1502 C1500 1.389 . S
C1502 C1503 1.524 . S
C1502 C1516 1.377 . S
C1503 C1502 1.524 . S
C1503 C1504 1.365 1_545 S
C1503 C1508 1.363 . S
C1504 H1481 0.978 . S
C1504 C1503 1.365 1_565 S
C1504 C1505 1.338 . S
C1505 H1482 0.950 . S
C1505 C1504 1.338 . S
C1505 C1506 1.287 1_565 S
C1506 C1505 1.287 1_545 S
C1506 C1507 1.524 . S
C1506 H1525 0.913 . S
C1507 H1483 0.950 . S
C1507 C1506 1.524 . S
C1507 C1508 1.415 . S
C1508 H1484 0.950 . S
C1508 C1503 1.363 . S
C1508 C1507 1.415 . S
C1509 H1485 0.951 . S
C1509 C1510 1.366 . S
C1509 C1511 1.388 . S
C1510 C1509 1.366 . S
C1510 C1514 1.385 . S
C1511 H1486 0.951 . S
C1511 C1509 1.388 . S
C1511 C1512 1.366 . S
C1512 C1511 1.366 . S
C1512 C1513 1.414 . S
C1512 C1515 1.499 . S
C1513 H1487 0.950 . S
C1513 C1512 1.414 . S
C1513 C1514 1.374 . S
C1514 H1488 0.950 . S
C1514 C1510 1.385 . S
C1514 C1513 1.374 . S
C1515 C1512 1.499 . S
C1515 C1516 1.373 . S
C1515 C1517 1.389 . S
C1516 H1489 0.950 . S
C1516 C1502 1.377 . S
C1516 C1515 1.373 . S
C1517 C1501 1.377 . S
C1517 C1515 1.389 . S
C1517 C1518 1.524 . S
C1518 C1517 1.524 . S
C1518 C1519 1.397 . S
C1518 C1523 1.363 . S
C1519 H1490 0.950 . S
C1519 C1518 1.397 . S
C1519 C1520 1.334 . S
C1520 H1491 0.950 . S
C1520 C1519 1.334 . S
C1520 C1521 1.287 . S
C1521 C1520 1.287 . S
C1521 C1522 1.524 . S
C1521 H1524 0.999 . S
C1522 H1492 0.950 . S
C1522 C1521 1.524 . S
C1522 C1523 1.415 . S
C1523 H1493 0.950 1_545 S
C1523 C1518 1.363 . S
C1523 C1522 1.415 . S
H1524 C1521 0.999 . S
H1525 C1506 0.913 . S
H1526 C1544 0.951 . S
H1527 C1546 0.951 . S
H1528 C1548 0.950 . S
H1529 C1549 0.950 . S
H1530 C1551 0.950 . S
H1531 C1554 0.950 . S
H1532 C1555 0.950 . S
H1533 C1557 0.950 . S
H1534 C1558 0.950 . S
H1535 C1559 0.951 . S
H1536 C1561 0.951 . S
H1537 C1563 0.950 . S
H1538 C1564 0.950 . S
H1539 C1566 0.950 . S
H1540 C1569 0.950 . S
H1541 C1570 0.950 . S
H1542 C1572 0.950 . S
H1543 C1573 0.950 . S
C1544 H1526 0.951 . S
C1544 C1545 1.366 . S
C1544 C1546 1.388 . S
C1545 C1544 1.366 . S
C1545 C1549 1.385 . S
C1546 H1527 0.951 . S
C1546 C1544 1.388 . S
C1546 C1547 1.366 . S
C1547 C1546 1.366 . S
C1547 C1548 1.414 . S
C1547 C1550 1.499 . S
C1548 H1528 0.950 . S
C1548 C1547 1.414 . S
C1548 C1549 1.374 . S
C1549 H1529 0.950 . S
C1549 C1545 1.385 . S
C1549 C1548 1.374 . S
C1550 C1547 1.499 . S
C1550 C1551 1.373 . S
C1550 C1552 1.389 . S
C1551 H1530 0.950 . S
C1551 C1550 1.373 . S
C1551 C1567 1.377 . S
C1552 C1550 1.389 . S
C1552 C1553 1.524 . S
C1552 C1566 1.377 . S
C1553 C1552 1.524 . S
C1553 C1554 1.397 . S
C1553 C1558 1.363 . S
C1554 H1531 0.950 . S
C1554 C1553 1.397 . S
C1554 C1555 1.334 . S
C1555 H1532 0.950 . S
C1555 C1554 1.334 . S
C1555 C1556 1.287 . S
C1556 C1555 1.287 . S
C1556 C1557 1.524 . S
C1556 H1575 0.913 . S
C1557 H1533 0.950 . S
C1557 C1556 1.524 . S
C1557 C1558 1.415 . S
C1558 H1534 0.950 . S
C1558 C1553 1.363 . S
C1558 C1557 1.415 . S
C1559 H1535 0.951 . S
C1559 C1560 1.366 . S
C1559 C1561 1.388 . S
C1560 C1559 1.366 . S
C1560 C1564 1.385 . S
C1561 H1536 0.951 . S
C1561 C1559 1.388 . S
C1561 C1562 1.366 . S
C1562 C1561 1.366 . S
C1562 C1563 1.414 . S
C1562 C1565 1.499 . S
C1563 H1537 0.950 . S
C1563 C1562 1.414 . S
C1563 C1564 1.374 . S
C1564 H1538 0.950 . S
C1564 C1560 1.385 . S
C1564 C1563 1.374 . S
C1565 C1562 1.499 . S
C1565 C1566 1.373 . S
C1565 C1567 1.389 . S
C1566 H1539 0.950 . S
C1566 C1552 1.377 . S
C1566 C1565 1.373 . S
C1567 C1551 1.377 . S
C1567 C1565 1.389 . S
C1567 C1568 1.524 . S
C1568 C1567 1.524 . S
C1568 C1569 1.397 . S
C1568 C1573 1.363 . S
C1569 H1540 0.950 . S
C1569 C1568 1.397 . S
C1569 C1570 1.334 . S
C1570 H1541 0.950 . S
C1570 C1569 1.334 . S
C1570 C1571 1.287 . S
C1571 C1570 1.287 . S
C1571 C1572 1.524 . S
C1571 H1574 0.999 . S
C1572 H1542 0.950 . S
C1572 C1571 1.524 . S
C1572 C1573 1.415 . S
C1573 H1543 0.950 . S
C1573 C1568 1.363 . S
C1573 C1572 1.415 . S
H1574 C1571 0.999 . S
H1575 C1556 0.913 . S
H1576 C1594 0.951 . S
H1577 C1596 0.951 . S
H1578 C1598 0.950 . S
H1579 C1599 0.950 . S
H1580 C1601 0.950 . S
H1581 C1604 0.950 . S
H1582 C1605 0.950 . S
H1583 C1607 0.950 . S
H1584 C1608 0.950 . S
H1585 C1609 0.951 . S
H1586 C1611 0.951 . S
H1587 C1613 0.950 1_455 S
H1588 C1614 0.950 . S
H1589 C1616 0.950 . S
H1590 C1619 0.950 . S
H1591 C1620 0.950 . S
H1592 C1622 0.950 . S
H1593 C1623 0.950 . S
C1594 H1576 0.951 . S
C1594 C1595 1.366 . S
C1594 C1596 1.388 . S
C1595 C1594 1.366 . S
C1595 C1599 1.385 . S
C1596 H1577 0.951 . S
C1596 C1594 1.388 . S
C1596 C1597 1.366 . S
C1597 C1596 1.366 . S
C1597 C1598 1.414 . S
C1597 C1600 1.499 . S
C1598 H1578 0.950 . S
C1598 C1597 1.414 . S
C1598 C1599 1.374 . S
C1599 H1579 0.950 . S
C1599 C1595 1.385 . S
C1599 C1598 1.374 . S
C1600 C1597 1.499 . S
C1600 C1601 1.373 . S
C1600 C1602 1.389 . S
C1601 H1580 0.950 . S
C1601 C1600 1.373 . S
C1601 C1617 1.377 . S
C1602 C1600 1.389 . S
C1602 C1603 1.524 . S
C1602 C1616 1.377 . S
C1603 C1602 1.524 . S
C1603 C1604 1.397 . S
C1603 C1608 1.363 1_655 S
C1604 H1581 0.950 . S
C1604 C1603 1.397 . S
C1604 C1605 1.334 . S
C1605 H1582 0.950 . S
C1605 C1604 1.334 . S
C1605 C1606 1.287 1_655 S
C1606 C1605 1.287 1_455 S
C1606 C1607 1.524 . S
C1606 H1625 0.913 . S
C1607 H1583 0.950 . S
C1607 C1606 1.524 . S
C1607 C1608 1.415 . S
C1608 H1584 0.950 . S
C1608 C1603 1.363 1_455 S
C1608 C1607 1.415 . S
C1609 H1585 0.951 . S
C1609 C1610 1.332 1_655 S
C1609 C1611 1.388 . S
C1610 C1609 1.332 1_455 S
C1610 C1614 1.400 . S
C1611 H1586 0.951 . S
C1611 C1609 1.388 . S
C1611 C1612 1.366 . S
C1612 C1611 1.366 . S
C1612 C1613 1.414 . S
C1612 C1615 1.499 . S
C1613 H1587 0.950 1_655 S
C1613 C1612 1.414 . S
C1613 C1614 1.374 1_655 S
C1614 H1588 0.950 . S
C1614 C1610 1.400 . S
C1614 C1613 1.374 1_455 S
C1615 C1612 1.499 . S
C1615 C1616 1.373 . S
C1615 C1617 1.389 . S
C1616 H1589 0.950 . S
C1616 C1602 1.377 . S
C1616 C1615 1.373 . S
C1617 C1601 1.377 . S
C1617 C1615 1.389 . S
C1617 C1618 1.524 . S
C1618 C1617 1.524 . S
C1618 C1619 1.397 . S
C1618 C1623 1.363 . S
C1619 H1590 0.950 . S
C1619 C1618 1.397 . S
C1619 C1620 1.334 . S
C1620 H1591 0.950 . S
C1620 C1619 1.334 . S
C1620 C1621 1.287 . S
C1621 C1620 1.287 . S
C1621 C1622 1.524 . S
C1621 H1624 0.999 . S
C1622 H1592 0.950 . S
C1622 C1621 1.524 . S
C1622 C1623 1.415 . S
C1623 H1593 0.950 . S
C1623 C1618 1.363 . S
C1623 C1622 1.415 . S
H1624 C1621 0.999 . S
H1625 C1606 0.913 . S
H1626 C1644 0.951 . S
H1627 C1646 0.951 . S
H1628 C1648 0.950 . S
H1629 C1649 0.950 . S
H1630 C1651 0.950 . S
H1631 C1654 0.950 . S
H1632 C1655 0.950 . S
H1633 C1657 0.950 . S
H1634 C1658 0.950 . S
H1635 C1659 0.951 . S
H1636 C1661 0.951 . S
H1637 C1663 0.950 . S
H1638 C1664 0.950 . S
H1639 C1666 0.950 . S
H1640 C1669 0.950 . S
H1641 C1670 0.950 . S
H1642 C1672 0.950 . S
H1643 C1673 0.950 . S
C1644 H1626 0.951 . S
C1644 C1645 1.366 . S
C1644 C1646 1.388 . S
C1645 C1644 1.366 . S
C1645 C1649 1.385 . S
C1646 H1627 0.951 . S
C1646 C1644 1.388 . S
C1646 C1647 1.366 . S
C1647 C1646 1.366 . S
C1647 C1648 1.414 . S
C1647 C1650 1.499 . S
C1648 H1628 0.950 . S
C1648 C1647 1.414 . S
C1648 C1649 1.374 . S
C1649 H1629 0.950 . S
C1649 C1645 1.385 . S
C1649 C1648 1.374 . S
C1650 C1647 1.499 . S
C1650 C1651 1.373 . S
C1650 C1652 1.389 . S
C1651 H1630 0.950 . S
C1651 C1650 1.373 . S
C1651 C1667 1.377 . S
C1652 C1650 1.389 . S
C1652 C1653 1.524 . S
C1652 C1666 1.377 . S
C1653 C1652 1.524 . S
C1653 C1654 1.397 . S
C1653 C1658 1.363 . S
C1654 H1631 0.950 . S
C1654 C1653 1.397 . S
C1654 C1655 1.334 . S
C1655 H1632 0.950 . S
C1655 C1654 1.334 . S
C1655 C1656 1.287 . S
C1656 C1655 1.287 . S
C1656 C1657 1.524 . S
C1656 H1675 0.913 . S
C1657 H1633 0.950 . S
C1657 C1656 1.524 . S
C1657 C1658 1.415 . S
C1658 H1634 0.950 . S
C1658 C1653 1.363 . S
C1658 C1657 1.415 . S
C1659 H1635 0.951 . S
C1659 C1660 1.366 . S
C1659 C1661 1.388 . S
C1660 C1659 1.366 . S
C1660 C1664 1.385 . S
C1661 H1636 0.951 . S
C1661 C1659 1.388 . S
C1661 C1662 1.366 . S
C1662 C1661 1.366 . S
C1662 C1663 1.414 . S
C1662 C1665 1.499 . S
C1663 H1637 0.950 . S
C1663 C1662 1.414 . S
C1663 C1664 1.374 . S
C1664 H1638 0.950 . S
C1664 C1660 1.385 . S
C1664 C1663 1.374 . S
C1665 C1662 1.499 . S
C1665 C1666 1.373 . S
C1665 C1667 1.389 . S
C1666 H1639 0.950 . S
C1666 C1652 1.377 . S
C1666 C1665 1.373 . S
C1667 C1651 1.377 . S
C1667 C1665 1.389 . S
C1667 C1668 1.524 . S
C1668 C1667 1.524 . S
C1668 C1669 1.397 . S
C1668 C1673 1.363 . S
C1669 H1640 0.950 . S
C1669 C1668 1.397 . S
C1669 C1670 1.334 . S
C1670 H1641 0.950 . S
C1670 C1669 1.334 . S
C1670 C1671 1.287 . S
C1671 C1670 1.287 . S
C1671 C1672 1.524 . S
C1671 H1674 0.999 . S
C1672 H1642 0.950 . S
C1672 C1671 1.524 . S
C1672 C1673 1.415 . S
C1673 H1643 0.950 . S
C1673 C1668 1.363 . S
C1673 C1672 1.415 . S
H1674 C1671 0.999 . S
H1675 C1656 0.913 . S
H1676 C1694 0.951 . S
H1677 C1696 0.951 1_565 S
H1678 C1698 0.950 . S
H1679 C1699 0.950 . S
H1680 C1701 0.950 . S
H1681 C1704 0.950 . S
H1682 C1705 0.950 . S
H1683 C1707 0.950 . S
H1684 C1708 0.950 . S
H1685 C1709 0.951 . S
H1686 C1711 0.951 . S
H1687 C1713 0.950 . S
H1688 C1714 0.950 . S
H1689 C1716 0.950 . S
H1690 C1719 0.950 . S
H1691 C1720 0.950 . S
H1692 C1722 0.950 . S
H1693 C1723 0.950 . S
C1694 H1676 0.951 . S
C1694 C1695 1.366 1_565 S
C1694 C1696 1.388 1_565 S
C1695 C1694 1.366 1_545 S
C1695 C1699 1.385 . S
C1696 H1677 0.951 1_545 S
C1696 C1694 1.388 1_545 S
C1696 C1697 1.366 . S
C1697 C1696 1.366 . S
C1697 C1698 1.414 . S
C1697 C1700 1.499 . S
C1698 H1678 0.950 . S
C1698 C1697 1.414 . S
C1698 C1699 1.374 . S
C1699 H1679 0.950 . S
C1699 C1695 1.385 . S
C1699 C1698 1.374 . S
C1700 C1697 1.499 . S
C1700 C1701 1.373 . S
C1700 C1702 1.389 . S
C1701 H1680 0.950 . S
C1701 C1700 1.373 . S
C1701 C1717 1.377 . S
C1702 C1700 1.389 . S
C1702 C1703 1.524 . S
C1702 C1716 1.377 . S
C1703 C1702 1.524 . S
C1703 C1704 1.397 . S
C1703 C1708 1.363 1_545 S
C1704 H1681 0.950 . S
C1704 C1703 1.397 . S
C1704 C1705 1.334 1_545 S
C1705 H1682 0.950 . S
C1705 C1704 1.334 1_565 S
C1705 C1706 1.287 . S
C1706 C1705 1.287 . S
C1706 C1707 1.524 . S
C1706 H1725 0.913 . S
C1707 H1683 0.950 . S
C1707 C1706 1.524 . S
C1707 C1708 1.415 . S
C1708 H1684 0.950 . S
C1708 C1703 1.363 1_565 S
C1708 C1707 1.415 . S
C1709 H1685 0.951 . S
C1709 C1710 1.366 . S
C1709 C1711 1.388 . S
C1710 C1709 1.366 . S
C1710 C1714 1.385 . S
C1711 H1686 0.951 . S
C1711 C1709 1.388 . S
C1711 C1712 1.366 . S
C1712 C1711 1.366 . S
C1712 C1713 1.414 . S
C1712 C1715 1.499 . S
C1713 H1687 0.950 . S
C1713 C1712 1.414 . S
C1713 C1714 1.374 . S
C1714 H1688 0.950 . S
C1714 C1710 1.385 . S
C1714 C1713 1.374 . S
C1715 C1712 1.499 . S
C1715 C1716 1.373 . S
C1715 C1717 1.389 . S
C1716 H1689 0.950 . S
C1716 C1702 1.377 . S
C1716 C1715 1.373 . S
C1717 C1701 1.377 . S
C1717 C1715 1.389 . S
C1717 C1718 1.524 . S
C1718 C1717 1.524 . S
C1718 C1719 1.397 . S
C1718 C1723 1.363 . S
C1719 H1690 0.950 . S
C1719 C1718 1.397 . S
C1719 C1720 1.334 . S
C1720 H1691 0.950 . S
C1720 C1719 1.334 . S
C1720 C1721 1.287 . S
C1721 C1720 1.287 . S
C1721 C1722 1.524 . S
C1721 H1724 0.999 . S
C1722 H1692 0.950 . S
C1722 C1721 1.524 . S
C1722 C1723 1.415 . S
C1723 H1693 0.950 . S
C1723 C1718 1.363 . S
C1723 C1722 1.415 . S
H1724 C1721 0.999 . S
H1725 C1706 0.913 . S
H1726 C1744 0.951 . S
H1727 C1746 0.951 . S
H1728 C1748 0.950 . S
H1729 C1749 0.950 . S
H1730 C1751 0.950 . S
H1731 C1754 0.950 . S
H1732 C1755 0.950 . S
H1733 C1757 0.950 . S
H1734 C1758 0.950 . S
H1735 C1759 0.951 . S
H1736 C1761 0.951 . S
H1737 C1763 0.950 . S
H1738 C1764 0.950 . S
H1739 C1766 0.950 . S
H1740 C1769 0.950 . S
H1741 C1770 0.950 . S
H1742 C1772 0.950 . S
H1743 C1773 0.950 . S
C1744 H1726 0.951 . S
C1744 C1745 1.366 . S
C1744 C1746 1.388 . S
C1745 C1744 1.366 . S
C1745 C1749 1.385 . S
C1746 H1727 0.951 . S
C1746 C1744 1.388 . S
C1746 C1747 1.366 . S
C1747 C1746 1.366 . S
C1747 C1748 1.414 . S
C1747 C1750 1.499 . S
C1748 H1728 0.950 . S
C1748 C1747 1.414 . S
C1748 C1749 1.374 . S
C1749 H1729 0.950 . S
C1749 C1745 1.385 . S
C1749 C1748 1.374 . S
C1750 C1747 1.499 . S
C1750 C1751 1.373 . S
C1750 C1752 1.389 . S
C1751 H1730 0.950 . S
C1751 C1750 1.373 . S
C1751 C1767 1.377 . S
C1752 C1750 1.389 . S
C1752 C1753 1.524 . S
C1752 C1766 1.377 . S
C1753 C1752 1.524 . S
C1753 C1754 1.397 . S
C1753 C1758 1.363 . S
C1754 H1731 0.950 . S
C1754 C1753 1.397 . S
C1754 C1755 1.334 . S
C1755 H1732 0.950 . S
C1755 C1754 1.334 . S
C1755 C1756 1.287 . S
C1756 C1755 1.287 . S
C1756 C1757 1.524 . S
C1756 H1775 0.913 . S
C1757 H1733 0.950 . S
C1757 C1756 1.524 . S
C1757 C1758 1.415 . S
C1758 H1734 0.950 . S
C1758 C1753 1.363 . S
C1758 C1757 1.415 . S
C1759 H1735 0.951 . S
C1759 C1760 1.366 . S
C1759 C1761 1.388 . S
C1760 C1759 1.366 . S
C1760 C1764 1.385 . S
C1761 H1736 0.951 . S
C1761 C1759 1.388 . S
C1761 C1762 1.366 . S
C1762 C1761 1.366 . S
C1762 C1763 1.414 . S
C1762 C1765 1.499 . S
C1763 H1737 0.950 . S
C1763 C1762 1.414 . S
C1763 C1764 1.374 . S
C1764 H1738 0.950 . S
C1764 C1760 1.385 . S
C1764 C1763 1.374 . S
C1765 C1762 1.499 . S
C1765 C1766 1.373 . S
C1765 C1767 1.389 . S
C1766 H1739 0.950 . S
C1766 C1752 1.377 . S
C1766 C1765 1.373 . S
C1767 C1751 1.377 . S
C1767 C1765 1.389 . S
C1767 C1768 1.524 . S
C1768 C1767 1.524 . S
C1768 C1769 1.397 . S
C1768 C1773 1.363 . S
C1769 H1740 0.950 . S
C1769 C1768 1.397 . S
C1769 C1770 1.334 . S
C1770 H1741 0.950 . S
C1770 C1769 1.334 . S
C1770 C1771 1.287 . S
C1771 C1770 1.287 . S
C1771 C1772 1.524 . S
C1771 H1774 0.999 . S
C1772 H1742 0.950 . S
C1772 C1771 1.524 . S
C1772 C1773 1.415 . S
C1773 H1743 0.950 . S
C1773 C1768 1.363 . S
C1773 C1772 1.415 . S
H1774 C1771 0.999 . S
H1775 C1756 0.913 . S
H1776 C1794 0.951 . S
H1777 C1796 0.951 . S
H1778 C1798 0.950 . S
H1779 C1799 0.950 . S
H1780 C1801 0.950 . S
H1781 C1804 0.950 . S
H1782 C1805 0.950 . S
H1783 C1807 0.950 1_545 S
H1784 C1808 1.001 . S
H1785 C1809 0.951 . S
H1786 C1811 0.951 1_565 S
H1787 C1813 0.950 . S
H1788 C1814 0.950 . S
H1789 C1816 0.936 1_545 S
H1790 C1819 0.950 . S
H1791 C1820 0.950 . S
H1792 C1822 0.950 . S
H1793 C1823 0.950 . S
C1794 H1776 0.951 . S
C1794 C1795 1.366 . S
C1794 C1796 1.388 . S
C1795 C1794 1.366 . S
C1795 C1799 1.385 . S
C1796 H1777 0.951 . S
C1796 C1794 1.388 . S
C1796 C1797 1.366 . S
C1797 C1796 1.366 . S
C1797 C1798 1.414 . S
C1797 C1800 1.499 . S
C1798 H1778 0.950 . S
C1798 C1797 1.414 . S
C1798 C1799 1.374 . S
C1799 H1779 0.950 . S
C1799 C1795 1.385 . S
C1799 C1798 1.374 . S
C1800 C1797 1.499 . S
C1800 C1801 1.373 . S
C1800 C1802 1.389 . S
C1801 H1780 0.950 . S
C1801 C1800 1.373 . S
C1801 C1817 1.377 . S
C1802 C1800 1.389 . S
C1802 C1803 1.524 . S
C1802 C1816 1.412 . S
C1803 C1802 1.524 . S
C1803 C1804 1.397 . S
C1803 C1808 1.333 1_565 S
C1804 H1781 0.950 . S
C1804 C1803 1.397 . S
C1804 C1805 1.334 . S
C1805 H1782 0.950 . S
C1805 C1804 1.334 . S
C1805 C1806 1.287 . S
C1806 C1805 1.287 . S
C1806 C1807 1.524 . S
C1806 H1825 0.913 . S
C1807 H1783 0.950 1_565 S
C1807 C1806 1.524 . S
C1807 C1808 1.396 1_565 S
C1808 H1784 1.001 . S
C1808 C1803 1.333 1_545 S
C1808 C1807 1.396 1_545 S
C1809 H1785 0.951 . S
C1809 C1810 1.366 . S
C1809 C1811 1.388 . S
C1810 C1809 1.366 . S
C1810 C1814 1.385 . S
C1811 H1786 0.951 1_545 S
C1811 C1809 1.388 . S
C1811 C1812 1.366 . S
C1812 C1811 1.366 . S
C1812 C1813 1.414 . S
C1812 C1815 1.499 . S
C1813 H1787 0.950 . S
C1813 C1812 1.414 . S
C1813 C1814 1.374 . S
C1814 H1788 0.950 . S
C1814 C1810 1.385 . S
C1814 C1813 1.374 . S
C1815 C1812 1.499 . S
C1815 C1816 1.354 1_545 S
C1815 C1817 1.389 1_545 S
C1816 H1789 0.936 1_565 S
C1816 C1802 1.412 . S
C1816 C1815 1.354 1_565 S
C1817 C1801 1.377 . S
C1817 C1815 1.389 1_565 S
C1817 C1818 1.549 . S
C1818 C1817 1.549 . S
C1818 C1819 1.336 1_565 S
C1818 C1823 1.400 . S
C1819 H1790 0.950 . S
C1819 C1818 1.336 1_545 S
C1819 C1820 1.334 . S
C1820 H1791 0.950 . S
C1820 C1819 1.334 . S
C1820 C1821 1.253 1_554 S
C1821 C1820 1.253 1_556 S
C1821 C1822 1.521 1_545 S
C1821 H1824 1.041 . S
C1822 H1792 0.950 . S
C1822 C1821 1.521 1_565 S
C1822 C1823 1.415 1_556 S
C1823 H1793 0.950 . S
C1823 C1818 1.400 . S
C1823 C1822 1.415 1_554 S
H1824 C1821 1.041 . S
H1825 C1806 0.913 . S
H1826 C1844 0.951 . S
H1827 C1846 0.951 . S
H1828 C1848 0.950 . S
H1829 C1849 0.950 . S
H1830 C1851 0.950 . S
H1831 C1854 0.950 . S
H1832 C1855 0.950 . S
H1833 C1857 0.950 . S
H1834 C1858 0.950 . S
H1835 C1859 0.951 . S
H1836 C1861 0.951 . S
H1837 C1863 0.950 . S
H1838 C1864 0.950 . S
H1839 C1866 0.950 . S
H1840 C1869 0.950 . S
H1841 C1870 0.950 . S
H1842 C1872 0.950 1_554 S
H1843 C1873 0.950 . S
C1844 H1826 0.951 . S
C1844 C1845 1.366 . S
C1844 C1846 1.388 . S
C1845 C1844 1.366 . S
C1845 C1849 1.385 . S
C1846 H1827 0.951 . S
C1846 C1844 1.388 . S
C1846 C1847 1.366 . S
C1847 C1846 1.366 . S
C1847 C1848 1.414 . S
C1847 C1850 1.499 . S
C1848 H1828 0.950 . S
C1848 C1847 1.414 . S
C1848 C1849 1.374 . S
C1849 H1829 0.950 . S
C1849 C1845 1.385 . S
C1849 C1848 1.374 . S
C1850 C1847 1.499 . S
C1850 C1851 1.373 . S
C1850 C1852 1.389 . S
C1851 H1830 0.950 . S
C1851 C1850 1.373 . S
C1851 C1867 1.377 . S
C1852 C1850 1.389 . S
C1852 C1853 1.524 . S
C1852 C1866 1.377 . S
C1853 C1852 1.524 . S
C1853 C1854 1.397 . S
C1853 C1858 1.363 . S
C1854 H1831 0.950 . S
C1854 C1853 1.397 . S
C1854 C1855 1.334 . S
C1855 H1832 0.950 . S
C1855 C1854 1.334 . S
C1855 C1856 1.287 . S
C1856 C1855 1.287 . S
C1856 C1857 1.524 . S
C1856 H1875 0.913 . S
C1857 H1833 0.950 . S
C1857 C1856 1.524 . S
C1857 C1858 1.415 . S
C1858 H1834 0.950 . S
C1858 C1853 1.363 . S
C1858 C1857 1.415 . S
C1859 H1835 0.951 . S
C1859 C1860 1.366 . S
C1859 C1861 1.388 . S
C1860 C1859 1.366 . S
C1860 C1864 1.385 . S
C1861 H1836 0.951 . S
C1861 C1859 1.388 . S
C1861 C1862 1.366 . S
C1862 C1861 1.366 . S
C1862 C1863 1.414 . S
C1862 C1865 1.499 . S
C1863 H1837 0.950 . S
C1863 C1862 1.414 . S
C1863 C1864 1.374 . S
C1864 H1838 0.950 . S
C1864 C1860 1.385 . S
C1864 C1863 1.374 . S
C1865 C1862 1.499 . S
C1865 C1866 1.373 . S
C1865 C1867 1.389 . S
C1866 H1839 0.950 . S
C1866 C1852 1.377 . S
C1866 C1865 1.373 . S
C1867 C1851 1.377 . S
C1867 C1865 1.389 . S
C1867 C1868 1.545 . S
C1868 C1867 1.545 . S
C1868 C1869 1.357 1_554 S
C1868 C1873 1.381 . S
C1869 H1840 0.950 . S
C1869 C1868 1.357 1_556 S
C1869 C1870 1.334 . S
C1870 H1841 0.950 . S
C1870 C1869 1.334 . S
C1870 C1871 1.287 . S
C1871 C1870 1.287 . S
C1871 C1872 1.524 . S
C1871 H1874 0.999 . S
C1872 H1842 0.950 1_556 S
C1872 C1871 1.524 . S
C1872 C1873 1.415 1_556 S
C1873 H1843 0.950 . S
C1873 C1868 1.381 . S
C1873 C1872 1.415 1_554 S
H1874 C1871 0.999 . S
H1875 C1856 0.913 . S
H1876 C1894 0.951 . S
H1877 C1896 0.951 . S
H1878 C1898 0.950 . S
H1879 C1899 0.950 . S
H1880 C1901 0.950 . S
H1881 C1904 0.950 . S
H1882 C1905 0.950 . S
H1883 C1907 0.950 . S
H1884 C1908 0.950 . S
H1885 C1909 0.951 . S
H1886 C1911 0.951 . S
H1887 C1913 0.950 . S
H1888 C1914 0.950 . S
H1889 C1916 0.950 . S
H1890 C1919 0.950 . S
H1891 C1920 0.950 . S
H1892 C1922 0.950 . S
H1893 C1923 0.950 . S
C1894 H1876 0.951 . S
C1894 C1895 1.366 . S
C1894 C1896 1.388 . S
C1895 C1894 1.366 . S
C1895 C1899 1.385 . S
C1896 H1877 0.951 . S
C1896 C1894 1.388 . S
C1896 C1897 1.366 . S
C1897 C1896 1.366 . S
C1897 C1898 1.414 . S
C1897 C1900 1.499 . S
C1898 H1878 0.950 . S
C1898 C1897 1.414 . S
C1898 C1899 1.374 . S
C1899 H1879 0.950 . S
C1899 C1895 1.385 . S
C1899 C1898 1.374 . S
C1900 C1897 1.499 . S
C1900 C1901 1.373 . S
C1900 C1902 1.389 . S
C1901 H1880 0.950 . S
C1901 C1900 1.373 . S
C1901 C1917 1.377 . S
C1902 C1900 1.389 . S
C1902 C1903 1.524 . S
C1902 C1916 1.377 . S
C1903 C1902 1.524 . S
C1903 C1904 1.397 . S
C1903 C1908 1.363 . S
C1904 H1881 0.950 . S
C1904 C1903 1.397 . S
C1904 C1905 1.334 . S
C1905 H1882 0.950 . S
C1905 C1904 1.334 . S
C1905 C1906 1.287 . S
C1906 C1905 1.287 . S
C1906 C1907 1.524 . S
C1906 H1925 0.913 . S
C1907 H1883 0.950 . S
C1907 C1906 1.524 . S
C1907 C1908 1.415 . S
C1908 H1884 0.950 . S
C1908 C1903 1.363 . S
C1908 C1907 1.415 . S
C1909 H1885 0.951 . S
C1909 C1910 1.366 . S
C1909 C1911 1.388 . S
C1910 C1909 1.366 . S
C1910 C1914 1.385 . S
C1911 H1886 0.951 . S
C1911 C1909 1.388 . S
C1911 C1912 1.366 . S
C1912 C1911 1.366 . S
C1912 C1913 1.414 . S
C1912 C1915 1.499 . S
C1913 H1887 0.950 . S
C1913 C1912 1.414 . S
C1913 C1914 1.374 . S
C1914 H1888 0.950 . S
C1914 C1910 1.385 . S
C1914 C1913 1.374 . S
C1915 C1912 1.499 . S
C1915 C1916 1.373 . S
C1915 C1917 1.389 . S
C1916 H1889 0.950 . S
C1916 C1902 1.377 . S
C1916 C1915 1.373 . S
C1917 C1901 1.377 . S
C1917 C1915 1.389 . S
C1917 C1918 1.524 . S
C1918 C1917 1.524 . S
C1918 C1919 1.397 . S
C1918 C1923 1.363 . S
C1919 H1890 0.950 . S
C1919 C1918 1.397 . S
C1919 C1920 1.334 . S
C1920 H1891 0.950 . S
C1920 C1919 1.334 . S
C1920 C1921 1.287 . S
C1921 C1920 1.287 . S
C1921 C1922 1.524 . S
C1921 H1924 0.999 . S
C1922 H1892 0.950 . S
C1922 C1921 1.524 . S
C1922 C1923 1.415 . S
C1923 H1893 0.950 . S
C1923 C1918 1.363 . S
C1923 C1922 1.415 . S
H1924 C1921 0.999 . S
H1925 C1906 0.913 . S
H1926 C1944 0.951 . S
H1927 C1946 0.951 . S
H1928 C1948 0.950 . S
H1929 C1949 0.950 . S
H1930 C1951 0.950 . S
H1931 C1954 0.950 . S
H1932 C1955 0.950 . S
H1933 C1957 0.950 . S
H1934 C1958 0.950 . S
H1935 C1959 0.951 . S
H1936 C1961 0.951 . S
H1937 C1963 0.950 . S
H1938 C1964 0.950 . S
H1939 C1966 0.950 . S
H1940 C1969 0.950 . S
H1941 C1970 0.950 . S
H1942 C1972 0.950 . S
H1943 C1973 0.950 . S
C1944 H1926 0.951 . S
C1944 C1945 1.366 . S
C1944 C1946 1.388 . S
C1945 C1944 1.366 . S
C1945 C1949 1.385 . S
C1946 H1927 0.951 . S
C1946 C1944 1.388 . S
C1946 C1947 1.366 . S
C1947 C1946 1.366 . S
C1947 C1948 1.414 . S
C1947 C1950 1.499 . S
C1948 H1928 0.950 . S
C1948 C1947 1.414 . S
C1948 C1949 1.374 . S
C1949 H1929 0.950 . S
C1949 C1945 1.385 . S
C1949 C1948 1.374 . S
C1950 C1947 1.499 . S
C1950 C1951 1.373 . S
C1950 C1952 1.389 . S
C1951 H1930 0.950 . S
C1951 C1950 1.373 . S
C1951 C1967 1.377 . S
C1952 C1950 1.389 . S
C1952 C1953 1.524 . S
C1952 C1966 1.377 . S
C1953 C1952 1.524 . S
C1953 C1954 1.397 . S
C1953 C1958 1.363 . S
C1954 H1931 0.950 . S
C1954 C1953 1.397 . S
C1954 C1955 1.334 . S
C1955 H1932 0.950 . S
C1955 C1954 1.334 . S
C1955 C1956 1.287 . S
C1956 C1955 1.287 . S
C1956 C1957 1.524 . S
C1956 H1975 0.913 . S
C1957 H1933 0.950 . S
C1957 C1956 1.524 . S
C1957 C1958 1.415 . S
C1958 H1934 0.950 . S
C1958 C1953 1.363 . S
C1958 C1957 1.415 . S
C1959 H1935 0.951 . S
C1959 C1960 1.366 . S
C1959 C1961 1.388 . S
C1960 C1959 1.366 . S
C1960 C1964 1.385 . S
C1961 H1936 0.951 . S
C1961 C1959 1.388 . S
C1961 C1962 1.366 . S
C1962 C1961 1.366 . S
C1962 C1963 1.414 . S
C1962 C1965 1.499 . S
C1963 H1937 0.950 . S
C1963 C1962 1.414 . S
C1963 C1964 1.374 . S
C1964 H1938 0.950 . S
C1964 C1960 1.385 . S
C1964 C1963 1.374 . S
C1965 C1962 1.499 . S
C1965 C1966 1.373 . S
C1965 C1967 1.389 . S
C1966 H1939 0.950 . S
C1966 C1952 1.377 . S
C1966 C1965 1.373 . S
C1967 C1951 1.377 . S
C1967 C1965 1.389 . S
C1967 C1968 1.524 . S
C1968 C1967 1.524 . S
C1968 C1969 1.397 . S
C1968 C1973 1.363 . S
C1969 H1940 0.950 . S
C1969 C1968 1.397 . S
C1969 C1970 1.334 . S
C1970 H1941 0.950 . S
C1970 C1969 1.334 . S
C1970 C1971 1.287 . S
C1971 C1970 1.287 . S
C1971 C1972 1.524 . S
C1971 H1974 0.999 . S
C1972 H1942 0.950 . S
C1972 C1971 1.524 . S
C1972 C1973 1.415 . S
C1973 H1943 0.950 . S
C1973 C1968 1.363 . S
C1973 C1972 1.415 . S
H1974 C1971 0.999 . S
H1975 C1956 0.913 . S
H1976 C1994 0.951 . S
H1977 C1996 0.951 . S
H1978 C1998 0.950 . S
H1979 C1999 0.950 . S
H1980 C2001 0.950 . S
H1981 C2004 0.950 . S
H1982 C2005 0.950 . S
H1983 C2007 0.950 . S
H1984 C2008 0.950 . S
H1985 C2009 0.951 . S
H1986 C2011 0.951 . S
H1987 C2013 0.950 . S
H1988 C2014 0.950 . S
H1989 C2016 0.950 . S
H1990 C2019 0.950 . S
H1991 C2020 0.950 . S
H1992 C2022 0.950 . S
H1993 C2023 0.950 . S
C1994 H1976 0.951 . S
C1994 C1995 1.366 . S
C1994 C1996 1.388 . S
C1995 C1994 1.366 . S
C1995 C1999 1.385 . S
C1996 H1977 0.951 . S
C1996 C1994 1.388 . S
C1996 C1997 1.366 . S
C1997 C1996 1.366 . S
C1997 C1998 1.414 . S
C1997 C2000 1.499 . S
C1998 H1978 0.950 . S
C1998 C1997 1.414 . S
C1998 C1999 1.374 . S
C1999 H1979 0.950 . S
C1999 C1995 1.385 . S
C1999 C1998 1.374 . S
C2000 C1997 1.499 . S
C2000 C2001 1.373 . S
C2000 C2002 1.389 . S
C2001 H1980 0.950 . S
C2001 C2000 1.373 . S
C2001 C2017 1.377 . S
C2002 C2000 1.389 . S
C2002 C2003 1.524 . S
C2002 C2016 1.377 . S
C2003 C2002 1.524 . S
C2003 C2004 1.397 . S
C2003 C2008 1.363 . S
C2004 H1981 0.950 . S
C2004 C2003 1.397 . S
C2004 C2005 1.334 . S
C2005 H1982 0.950 . S
C2005 C2004 1.334 . S
C2005 C2006 1.287 . S
C2006 C2005 1.287 . S
C2006 C2007 1.524 . S
C2006 H2025 0.913 . S
C2007 H1983 0.950 . S
C2007 C2006 1.524 . S
C2007 C2008 1.415 . S
C2008 H1984 0.950 . S
C2008 C2003 1.363 . S
C2008 C2007 1.415 . S
C2009 H1985 0.951 . S
C2009 C2010 1.366 . S
C2009 C2011 1.388 . S
C2010 C2009 1.366 . S
C2010 C2014 1.385 . S
C2011 H1986 0.951 . S
C2011 C2009 1.388 . S
C2011 C2012 1.366 . S
C2012 C2011 1.366 . S
C2012 C2013 1.414 . S
C2012 C2015 1.499 . S
C2013 H1987 0.950 . S
C2013 C2012 1.414 . S
C2013 C2014 1.374 . S
C2014 H1988 0.950 . S
C2014 C2010 1.385 . S
C2014 C2013 1.374 . S
C2015 C2012 1.499 . S
C2015 C2016 1.373 . S
C2015 C2017 1.389 . S
C2016 H1989 0.950 . S
C2016 C2002 1.377 . S
C2016 C2015 1.373 . S
C2017 C2001 1.377 . S
C2017 C2015 1.389 . S
C2017 C2018 1.524 . S
C2018 C2017 1.524 . S
C2018 C2019 1.397 . S
C2018 C2023 1.363 . S
C2019 H1990 0.950 . S
C2019 C2018 1.397 . S
C2019 C2020 1.334 . S
C2020 H1991 0.950 . S
C2020 C2019 1.334 . S
C2020 C2021 1.287 . S
C2021 C2020 1.287 . S
C2021 C2022 1.524 . S
C2021 H2024 0.999 . S
C2022 H1992 0.950 . S
C2022 C2021 1.524 . S
C2022 C2023 1.415 . S
C2023 H1993 0.950 . S
C2023 C2018 1.363 . S
C2023 C2022 1.415 . S
H2024 C2021 0.999 . S
H2025 C2006 0.913 . S
H2026 C2044 0.951 . S
H2027 C2046 0.951 . S
H2028 C2048 0.950 . S
H2029 C2049 0.950 . S
H2030 C2051 0.950 . S
H2031 C2054 0.950 . S
H2032 C2055 0.950 . S
H2033 C2057 0.950 . S
H2034 C2058 0.950 . S
H2035 C2059 0.951 . S
H2036 C2061 0.951 . S
H2037 C2063 0.950 . S
H2038 C2064 0.950 . S
H2039 C2066 0.950 . S
H2040 C2069 0.950 . S
H2041 C2070 0.950 . S
H2042 C2072 0.950 . S
H2043 C2073 0.950 . S
C2044 H2026 0.951 . S
C2044 C2045 1.366 . S
C2044 C2046 1.388 . S
C2045 C2044 1.366 . S
C2045 C2049 1.385 . S
C2046 H2027 0.951 . S
C2046 C2044 1.388 . S
C2046 C2047 1.366 . S
C2047 C2046 1.366 . S
C2047 C2048 1.414 . S
C2047 C2050 1.499 . S
C2048 H2028 0.950 . S
C2048 C2047 1.414 . S
C2048 C2049 1.374 . S
C2049 H2029 0.950 . S
C2049 C2045 1.385 . S
C2049 C2048 1.374 . S
C2050 C2047 1.499 . S
C2050 C2051 1.373 . S
C2050 C2052 1.389 . S
C2051 H2030 0.950 . S
C2051 C2050 1.373 . S
C2051 C2067 1.377 . S
C2052 C2050 1.389 . S
C2052 C2053 1.524 . S
C2052 C2066 1.377 . S
C2053 C2052 1.524 . S
C2053 C2054 1.397 . S
C2053 C2058 1.363 . S
C2054 H2031 0.950 . S
C2054 C2053 1.397 . S
C2054 C2055 1.334 . S
C2055 H2032 0.950 . S
C2055 C2054 1.334 . S
C2055 C2056 1.287 . S
C2056 C2055 1.287 . S
C2056 C2057 1.524 . S
C2056 H2075 0.913 . S
C2057 H2033 0.950 . S
C2057 C2056 1.524 . S
C2057 C2058 1.415 . S
C2058 H2034 0.950 . S
C2058 C2053 1.363 . S
C2058 C2057 1.415 . S
C2059 H2035 0.951 . S
C2059 C2060 1.366 . S
C2059 C2061 1.388 . S
C2060 C2059 1.366 . S
C2060 C2064 1.385 . S
C2061 H2036 0.951 . S
C2061 C2059 1.388 . S
C2061 C2062 1.366 . S
C2062 C2061 1.366 . S
C2062 C2063 1.414 . S
C2062 C2065 1.499 . S
C2063 H2037 0.950 . S
C2063 C2062 1.414 . S
C2063 C2064 1.374 . S
C2064 H2038 0.950 . S
C2064 C2060 1.385 . S
C2064 C2063 1.374 . S
C2065 C2062 1.499 . S
C2065 C2066 1.373 . S
C2065 C2067 1.389 . S
C2066 H2039 0.950 . S
C2066 C2052 1.377 . S
C2066 C2065 1.373 . S
C2067 C2051 1.377 . S
C2067 C2065 1.389 . S
C2067 C2068 1.524 . S
C2068 C2067 1.524 . S
C2068 C2069 1.397 . S
C2068 C2073 1.363 . S
C2069 H2040 0.950 . S
C2069 C2068 1.397 . S
C2069 C2070 1.334 . S
C2070 H2041 0.950 . S
C2070 C2069 1.334 . S
C2070 C2071 1.287 . S
C2071 C2070 1.287 . S
C2071 C2072 1.524 . S
C2071 H2074 0.999 . S
C2072 H2042 0.950 . S
C2072 C2071 1.524 . S
C2072 C2073 1.415 . S
C2073 H2043 0.950 . S
C2073 C2068 1.363 . S
C2073 C2072 1.415 . S
H2074 C2071 0.999 . S
H2075 C2056 0.913 . S
H2076 C2094 0.951 . S
H2077 C2096 0.951 . S
H2078 C2098 0.950 . S
H2079 C2099 0.950 . S
H2080 C2101 0.950 . S
H2081 C2104 0.950 . S
H2082 C2105 0.950 . S
H2083 C2107 0.950 . S
H2084 C2108 0.950 . S
H2085 C2109 0.951 . S
H2086 C2111 0.951 . S
H2087 C2113 0.950 . S
H2088 C2114 0.950 . S
H2089 C2116 0.950 . S
H2090 C2119 0.950 . S
H2091 C2120 0.950 . S
H2092 C2122 0.950 . S
H2093 C2123 0.950 . S
C2094 H2076 0.951 . S
C2094 C2095 1.366 . S
C2094 C2096 1.388 . S
C2095 C2094 1.366 . S
C2095 C2099 1.385 . S
C2096 H2077 0.951 . S
C2096 C2094 1.388 . S
C2096 C2097 1.366 . S
C2097 C2096 1.366 . S
C2097 C2098 1.414 . S
C2097 C2100 1.499 . S
C2098 H2078 0.950 . S
C2098 C2097 1.414 . S
C2098 C2099 1.374 . S
C2099 H2079 0.950 . S
C2099 C2095 1.385 . S
C2099 C2098 1.374 . S
C2100 C2097 1.499 . S
C2100 C2101 1.373 . S
C2100 C2102 1.389 . S
C2101 H2080 0.950 . S
C2101 C2100 1.373 . S
C2101 C2117 1.377 . S
C2102 C2100 1.389 . S
C2102 C2103 1.524 . S
C2102 C2116 1.377 . S
C2103 C2102 1.524 . S
C2103 C2104 1.397 . S
C2103 C2108 1.363 . S
C2104 H2081 0.950 . S
C2104 C2103 1.397 . S
C2104 C2105 1.334 . S
C2105 H2082 0.950 . S
C2105 C2104 1.334 . S
C2105 C2106 1.287 . S
C2106 C2105 1.287 . S
C2106 C2107 1.524 . S
C2106 H2125 0.913 . S
C2107 H2083 0.950 . S
C2107 C2106 1.524 . S
C2107 C2108 1.415 . S
C2108 H2084 0.950 . S
C2108 C2103 1.363 . S
C2108 C2107 1.415 . S
C2109 H2085 0.951 . S
C2109 C2110 1.366 . S
C2109 C2111 1.388 . S
C2110 C2109 1.366 . S
C2110 C2114 1.385 . S
C2111 H2086 0.951 . S
C2111 C2109 1.388 . S
C2111 C2112 1.366 . S
C2112 C2111 1.366 . S
C2112 C2113 1.414 . S
C2112 C2115 1.499 . S
C2113 H2087 0.950 . S
C2113 C2112 1.414 . S
C2113 C2114 1.374 . S
C2114 H2088 0.950 . S
C2114 C2110 1.385 . S
C2114 C2113 1.374 . S
C2115 C2112 1.499 . S
C2115 C2116 1.373 . S
C2115 C2117 1.389 . S
C2116 H2089 0.950 . S
C2116 C2102 1.377 . S
C2116 C2115 1.373 . S
C2117 C2101 1.377 . S
C2117 C2115 1.389 . S
C2117 C2118 1.524 . S
C2118 C2117 1.524 . S
C2118 C2119 1.397 . S
C2118 C2123 1.363 . S
C2119 H2090 0.950 . S
C2119 C2118 1.397 . S
C2119 C2120 1.334 . S
C2120 H2091 0.950 . S
C2120 C2119 1.334 . S
C2120 C2121 1.287 . S
C2121 C2120 1.287 . S
C2121 C2122 1.524 . S
C2121 H2124 0.999 . S
C2122 H2092 0.950 . S
C2122 C2121 1.524 . S
C2122 C2123 1.415 . S
C2123 H2093 0.950 . S
C2123 C2118 1.363 . S
C2123 C2122 1.415 . S
H2124 C2121 0.999 . S
H2125 C2106 0.913 . S
H2126 C2144 0.951 . S
H2127 C2146 0.951 . S
H2128 C2148 0.950 . S
H2129 C2149 0.950 . S
H2130 C2151 0.950 . S
H2131 C2154 0.950 . S
H2132 C2155 0.950 . S
H2133 C2157 0.950 . S
H2134 C2158 0.950 . S
H2135 C2159 0.951 . S
H2136 C2161 0.951 . S
H2137 C2163 0.950 . S
H2138 C2164 0.950 . S
H2139 C2166 0.950 . S
H2140 C2169 0.950 . S
H2141 C2170 0.950 . S
H2142 C2172 0.950 . S
H2143 C2173 0.950 . S
C2144 H2126 0.951 . S
C2144 C2145 1.366 . S
C2144 C2146 1.388 . S
C2145 C2144 1.366 . S
C2145 C2149 1.385 . S
C2146 H2127 0.951 . S
C2146 C2144 1.388 . S
C2146 C2147 1.366 . S
C2147 C2146 1.366 . S
C2147 C2148 1.414 . S
C2147 C2150 1.499 . S
C2148 H2128 0.950 . S
C2148 C2147 1.414 . S
C2148 C2149 1.374 . S
C2149 H2129 0.950 . S
C2149 C2145 1.385 . S
C2149 C2148 1.374 . S
C2150 C2147 1.499 . S
C2150 C2151 1.373 . S
C2150 C2152 1.389 . S
C2151 H2130 0.950 . S
C2151 C2150 1.373 . S
C2151 C2167 1.377 . S
C2152 C2150 1.389 . S
C2152 C2153 1.524 . S
C2152 C2166 1.377 . S
C2153 C2152 1.524 . S
C2153 C2154 1.397 . S
C2153 C2158 1.363 . S
C2154 H2131 0.950 . S
C2154 C2153 1.397 . S
C2154 C2155 1.334 . S
C2155 H2132 0.950 . S
C2155 C2154 1.334 . S
C2155 C2156 1.287 . S
C2156 C2155 1.287 . S
C2156 C2157 1.524 . S
C2156 H2175 0.913 . S
C2157 H2133 0.950 . S
C2157 C2156 1.524 . S
C2157 C2158 1.415 . S
C2158 H2134 0.950 . S
C2158 C2153 1.363 . S
C2158 C2157 1.415 . S
C2159 H2135 0.951 . S
C2159 C2160 1.366 . S
C2159 C2161 1.388 . S
C2160 C2159 1.366 . S
C2160 C2164 1.385 . S
C2161 H2136 0.951 . S
C2161 C2159 1.388 . S
C2161 C2162 1.366 . S
C2162 C2161 1.366 . S
C2162 C2163 1.414 . S
C2162 C2165 1.499 . S
C2163 H2137 0.950 . S
C2163 C2162 1.414 . S
C2163 C2164 1.374 . S
C2164 H2138 0.950 . S
C2164 C2160 1.385 . S
C2164 C2163 1.374 . S
C2165 C2162 1.499 . S
C2165 C2166 1.373 . S
C2165 C2167 1.389 . S
C2166 H2139 0.950 . S
C2166 C2152 1.377 . S
C2166 C2165 1.373 . S
C2167 C2151 1.377 . S
C2167 C2165 1.389 . S
C2167 C2168 1.524 . S
C2168 C2167 1.524 . S
C2168 C2169 1.397 . S
C2168 C2173 1.363 . S
C2169 H2140 0.950 . S
C2169 C2168 1.397 . S
C2169 C2170 1.334 . S
C2170 H2141 0.950 . S
C2170 C2169 1.334 . S
C2170 C2171 1.287 . S
C2171 C2170 1.287 . S
C2171 C2172 1.524 . S
C2171 H2174 0.999 . S
C2172 H2142 0.950 . S
C2172 C2171 1.524 . S
C2172 C2173 1.415 . S
C2173 H2143 0.950 . S
C2173 C2168 1.363 . S
C2173 C2172 1.415 . S
H2174 C2171 0.999 . S
H2175 C2156 0.913 . S
H2176 C2194 0.951 . S
H2177 C2196 0.951 . S
H2178 C2198 0.950 . S
H2179 C2199 0.950 . S
H2180 C2201 0.950 . S
H2181 C2204 0.950 . S
H2182 C2205 0.950 . S
H2183 C2207 0.950 . S
H2184 C2208 0.950 . S
H2185 C2209 0.951 . S
H2186 C2211 0.951 . S
H2187 C2213 0.950 . S
H2188 C2214 0.950 . S
H2189 C2216 0.950 . S
H2190 C2219 0.950 . S
H2191 C2220 0.950 . S
H2192 C2222 0.950 . S
H2193 C2223 0.950 . S
C2194 H2176 0.951 . S
C2194 C2195 1.366 . S
C2194 C2196 1.388 . S
C2195 C2194 1.366 . S
C2195 C2199 1.385 . S
C2196 H2177 0.951 . S
C2196 C2194 1.388 . S
C2196 C2197 1.366 . S
C2197 C2196 1.366 . S
C2197 C2198 1.414 . S
C2197 C2200 1.499 . S
C2198 H2178 0.950 . S
C2198 C2197 1.414 . S
C2198 C2199 1.374 . S
C2199 H2179 0.950 . S
C2199 C2195 1.385 . S
C2199 C2198 1.374 . S
C2200 C2197 1.499 . S
C2200 C2201 1.373 . S
C2200 C2202 1.389 . S
C2201 H2180 0.950 . S
C2201 C2200 1.373 . S
C2201 C2217 1.377 . S
C2202 C2200 1.389 . S
C2202 C2203 1.524 . S
C2202 C2216 1.377 . S
C2203 C2202 1.524 . S
C2203 C2204 1.397 . S
C2203 C2208 1.363 . S
C2204 H2181 0.950 . S
C2204 C2203 1.397 . S
C2204 C2205 1.334 . S
C2205 H2182 0.950 . S
C2205 C2204 1.334 . S
C2205 C2206 1.287 . S
C2206 C2205 1.287 . S
C2206 C2207 1.524 . S
C2206 H2225 0.913 . S
C2207 H2183 0.950 . S
C2207 C2206 1.524 . S
C2207 C2208 1.415 . S
C2208 H2184 0.950 . S
C2208 C2203 1.363 . S
C2208 C2207 1.415 . S
C2209 H2185 0.951 . S
C2209 C2210 1.366 1_565 S
C2209 C2211 1.388 . S
C2210 C2209 1.366 1_545 S
C2210 C2214 1.385 . S
C2211 H2186 0.951 . S
C2211 C2209 1.388 . S
C2211 C2212 1.366 . S
C2212 C2211 1.366 . S
C2212 C2213 1.414 . S
C2212 C2215 1.499 . S
C2213 H2187 0.950 . S
C2213 C2212 1.414 . S
C2213 C2214 1.374 1_565 S
C2214 H2188 0.950 . S
C2214 C2210 1.385 . S
C2214 C2213 1.374 1_545 S
C2215 C2212 1.499 . S
C2215 C2216 1.373 . S
C2215 C2217 1.389 . S
C2216 H2189 0.950 . S
C2216 C2202 1.377 . S
C2216 C2215 1.373 . S
C2217 C2201 1.377 . S
C2217 C2215 1.389 . S
C2217 C2218 1.524 . S
C2218 C2217 1.524 . S
C2218 C2219 1.397 . S
C2218 C2223 1.363 . S
C2219 H2190 0.950 . S
C2219 C2218 1.397 . S
C2219 C2220 1.334 . S
C2220 H2191 0.950 . S
C2220 C2219 1.334 . S
C2220 C2221 1.287 . S
C2221 C2220 1.287 . S
C2221 C2222 1.524 . S
C2221 H2224 0.999 . S
C2222 H2192 0.950 . S
C2222 C2221 1.524 . S
C2222 C2223 1.415 . S
C2223 H2193 0.950 . S
C2223 C2218 1.363 . S
C2223 C2222 1.415 . S
H2224 C2221 0.999 . S
H2225 C2206 0.913 . S
H2226 C2244 0.951 . S
H2227 C2246 0.951 . S
H2228 C2248 0.950 . S
H2229 C2249 0.950 . S
H2230 C2251 0.950 . S
H2231 C2254 0.950 . S
H2232 C2255 0.950 . S
H2233 C2257 0.950 . S
H2234 C2258 0.950 . S
H2235 C2259 0.951 . S
H2236 C2261 0.951 . S
H2237 C2263 0.950 . S
H2238 C2264 0.950 . S
H2239 C2266 0.950 . S
H2240 C2269 0.950 . S
H2241 C2270 0.950 . S
H2242 C2272 0.950 . S
H2243 C2273 0.950 . S
C2244 H2226 0.951 . S
C2244 C2245 1.366 . S
C2244 C2246 1.388 . S
C2245 C2244 1.366 . S
C2245 C2249 1.385 . S
C2246 H2227 0.951 . S
C2246 C2244 1.388 . S
C2246 C2247 1.366 . S
C2247 C2246 1.366 . S
C2247 C2248 1.414 . S
C2247 C2250 1.499 . S
C2248 H2228 0.950 . S
C2248 C2247 1.414 . S
C2248 C2249 1.374 . S
C2249 H2229 0.950 . S
C2249 C2245 1.385 . S
C2249 C2248 1.374 . S
C2250 C2247 1.499 . S
C2250 C2251 1.373 . S
C2250 C2252 1.389 . S
C2251 H2230 0.950 . S
C2251 C2250 1.373 . S
C2251 C2267 1.377 . S
C2252 C2250 1.389 . S
C2252 C2253 1.524 . S
C2252 C2266 1.377 . S
C2253 C2252 1.524 . S
C2253 C2254 1.397 . S
C2253 C2258 1.363 . S
C2254 H2231 0.950 . S
C2254 C2253 1.397 . S
C2254 C2255 1.334 . S
C2255 H2232 0.950 . S
C2255 C2254 1.334 . S
C2255 C2256 1.287 . S
C2256 C2255 1.287 . S
C2256 C2257 1.524 . S
C2256 H2275 0.913 . S
C2257 H2233 0.950 . S
C2257 C2256 1.524 . S
C2257 C2258 1.415 . S
C2258 H2234 0.950 . S
C2258 C2253 1.363 . S
C2258 C2257 1.415 . S
C2259 H2235 0.951 . S
C2259 C2260 1.366 . S
C2259 C2261 1.388 . S
C2260 C2259 1.366 . S
C2260 C2264 1.385 . S
C2261 H2236 0.951 . S
C2261 C2259 1.388 . S
C2261 C2262 1.366 . S
C2262 C2261 1.366 . S
C2262 C2263 1.414 . S
C2262 C2265 1.499 . S
C2263 H2237 0.950 . S
C2263 C2262 1.414 . S
C2263 C2264 1.374 . S
C2264 H2238 0.950 . S
C2264 C2260 1.385 . S
C2264 C2263 1.374 . S
C2265 C2262 1.499 . S
C2265 C2266 1.373 . S
C2265 C2267 1.389 . S
C2266 H2239 0.950 . S
C2266 C2252 1.377 . S
C2266 C2265 1.373 . S
C2267 C2251 1.377 . S
C2267 C2265 1.389 . S
C2267 C2268 1.524 . S
C2268 C2267 1.524 . S
C2268 C2269 1.397 . S
C2268 C2273 1.363 . S
C2269 H2240 0.950 . S
C2269 C2268 1.397 . S
C2269 C2270 1.334 . S
C2270 H2241 0.950 . S
C2270 C2269 1.334 . S
C2270 C2271 1.287 . S
C2271 C2270 1.287 . S
C2271 C2272 1.524 . S
C2271 H2274 0.999 . S
C2272 H2242 0.950 . S
C2272 C2271 1.524 . S
C2272 C2273 1.415 . S
C2273 H2243 0.950 . S
C2273 C2268 1.363 . S
C2273 C2272 1.415 . S
H2274 C2271 0.999 . S
H2275 C2256 0.913 . S
H2276 C2294 0.951 . S
H2277 C2296 0.951 . S
H2278 C2298 0.950 . S
H2279 C2299 0.950 . S
H2280 C2301 0.950 . S
H2281 C2304 0.950 . S
H2282 C2305 0.950 . S
H2283 C2307 0.950 . S
H2284 C2308 0.950 . S
H2285 C2309 0.951 . S
H2286 C2311 0.951 . S
H2287 C2313 0.950 . S
H2288 C2314 0.950 . S
H2289 C2316 0.950 . S
H2290 C2319 0.950 . S
H2291 C2320 0.950 . S
H2292 C2322 0.950 . S
H2293 C2323 0.950 . S
C2294 H2276 0.951 . S
C2294 C2295 1.366 . S
C2294 C2296 1.388 . S
C2295 C2294 1.366 . S
C2295 C2299 1.385 . S
C2296 H2277 0.951 . S
C2296 C2294 1.388 . S
C2296 C2297 1.366 . S
C2297 C2296 1.366 . S
C2297 C2298 1.414 . S
C2297 C2300 1.499 . S
C2298 H2278 0.950 . S
C2298 C2297 1.414 . S
C2298 C2299 1.374 . S
C2299 H2279 0.950 . S
C2299 C2295 1.385 . S
C2299 C2298 1.374 . S
C2300 C2297 1.499 . S
C2300 C2301 1.373 . S
C2300 C2302 1.389 . S
C2301 H2280 0.950 . S
C2301 C2300 1.373 . S
C2301 C2317 1.377 . S
C2302 C2300 1.389 . S
C2302 C2303 1.524 . S
C2302 C2316 1.377 . S
C2303 C2302 1.524 . S
C2303 C2304 1.397 . S
C2303 C2308 1.363 . S
C2304 H2281 0.950 . S
C2304 C2303 1.397 . S
C2304 C2305 1.334 . S
C2305 H2282 0.950 . S
C2305 C2304 1.334 . S
C2305 C2306 1.287 . S
C2306 C2305 1.287 . S
C2306 C2307 1.524 . S
C2306 H2325 0.913 . S
C2307 H2283 0.950 . S
C2307 C2306 1.524 . S
C2307 C2308 1.415 . S
C2308 H2284 0.950 . S
C2308 C2303 1.363 . S
C2308 C2307 1.415 . S
C2309 H2285 0.951 . S
C2309 C2310 1.366 . S
C2309 C2311 1.388 . S
C2310 C2309 1.366 . S
C2310 C2314 1.385 . S
C2311 H2286 0.951 . S
C2311 C2309 1.388 . S
C2311 C2312 1.366 . S
C2312 C2311 1.366 . S
C2312 C2313 1.414 . S
C2312 C2315 1.499 . S
C2313 H2287 0.950 . S
C2313 C2312 1.414 . S
C2313 C2314 1.374 . S
C2314 H2288 0.950 . S
C2314 C2310 1.385 . S
C2314 C2313 1.374 . S
C2315 C2312 1.499 . S
C2315 C2316 1.373 . S
C2315 C2317 1.389 . S
C2316 H2289 0.950 . S
C2316 C2302 1.377 . S
C2316 C2315 1.373 . S
C2317 C2301 1.377 . S
C2317 C2315 1.389 . S
C2317 C2318 1.524 . S
C2318 C2317 1.524 . S
C2318 C2319 1.397 . S
C2318 C2323 1.363 . S
C2319 H2290 0.950 . S
C2319 C2318 1.397 . S
C2319 C2320 1.334 . S
C2320 H2291 0.950 . S
C2320 C2319 1.334 . S
C2320 C2321 1.287 . S
C2321 C2320 1.287 . S
C2321 C2322 1.524 . S
C2321 H2324 0.999 . S
C2322 H2292 0.950 . S
C2322 C2321 1.524 . S
C2322 C2323 1.415 . S
C2323 H2293 0.950 . S
C2323 C2318 1.363 . S
C2323 C2322 1.415 . S
H2324 C2321 0.999 . S
H2325 C2306 0.913 . S
H2326 C2344 0.951 . S
H2327 C2346 0.951 . S
H2328 C2348 0.950 . S
H2329 C2349 0.950 . S
H2330 C2351 0.950 . S
H2331 C2354 0.950 . S
H2332 C2355 0.950 . S
H2333 C2357 0.950 . S
H2334 C2358 0.950 . S
H2335 C2359 0.951 . S
H2336 C2361 0.951 . S
H2337 C2363 0.950 . S
H2338 C2364 0.950 . S
H2339 C2366 0.950 . S
H2340 C2369 0.950 . S
H2341 C2370 0.950 . S
H2342 C2372 0.950 . S
H2343 C2373 0.950 . S
C2344 H2326 0.951 . S
C2344 C2345 1.366 . S
C2344 C2346 1.388 . S
C2345 C2344 1.366 . S
C2345 C2349 1.385 . S
C2346 H2327 0.951 . S
C2346 C2344 1.388 . S
C2346 C2347 1.366 . S
C2347 C2346 1.366 . S
C2347 C2348 1.414 . S
C2347 C2350 1.499 . S
C2348 H2328 0.950 . S
C2348 C2347 1.414 . S
C2348 C2349 1.374 . S
C2349 H2329 0.950 . S
C2349 C2345 1.385 . S
C2349 C2348 1.374 . S
C2350 C2347 1.499 . S
C2350 C2351 1.373 . S
C2350 C2352 1.389 . S
C2351 H2330 0.950 . S
C2351 C2350 1.373 . S
C2351 C2367 1.377 . S
C2352 C2350 1.389 . S
C2352 C2353 1.524 . S
C2352 C2366 1.377 . S
C2353 C2352 1.524 . S
C2353 C2354 1.397 . S
C2353 C2358 1.363 . S
C2354 H2331 0.950 . S
C2354 C2353 1.397 . S
C2354 C2355 1.334 . S
C2355 H2332 0.950 . S
C2355 C2354 1.334 . S
C2355 C2356 1.287 . S
C2356 C2355 1.287 . S
C2356 C2357 1.524 . S
C2356 H2375 0.913 . S
C2357 H2333 0.950 . S
C2357 C2356 1.524 . S
C2357 C2358 1.415 . S
C2358 H2334 0.950 . S
C2358 C2353 1.363 . S
C2358 C2357 1.415 . S
C2359 H2335 0.951 . S
C2359 C2360 1.366 . S
C2359 C2361 1.388 . S
C2360 C2359 1.366 . S
C2360 C2364 1.385 . S
C2361 H2336 0.951 . S
C2361 C2359 1.388 . S
C2361 C2362 1.366 . S
C2362 C2361 1.366 . S
C2362 C2363 1.414 . S
C2362 C2365 1.499 . S
C2363 H2337 0.950 . S
C2363 C2362 1.414 . S
C2363 C2364 1.374 . S
C2364 H2338 0.950 . S
C2364 C2360 1.385 . S
C2364 C2363 1.374 . S
C2365 C2362 1.499 . S
C2365 C2366 1.373 . S
C2365 C2367 1.389 . S
C2366 H2339 0.950 . S
C2366 C2352 1.377 . S
C2366 C2365 1.373 . S
C2367 C2351 1.377 . S
C2367 C2365 1.389 . S
C2367 C2368 1.524 . S
C2368 C2367 1.524 . S
C2368 C2369 1.397 . S
C2368 C2373 1.363 . S
C2369 H2340 0.950 . S
C2369 C2368 1.397 . S
C2369 C2370 1.334 . S
C2370 H2341 0.950 . S
C2370 C2369 1.334 . S
C2370 C2371 1.287 . S
C2371 C2370 1.287 . S
C2371 C2372 1.524 . S
C2371 H2374 0.999 . S
C2372 H2342 0.950 . S
C2372 C2371 1.524 . S
C2372 C2373 1.415 . S
C2373 H2343 0.950 . S
C2373 C2368 1.363 . S
C2373 C2372 1.415 . S
H2374 C2371 0.999 . S
H2375 C2356 0.913 . S
H2376 C2394 0.969 . S
H2377 C2396 0.951 1_655 S
H2378 C2398 0.950 . S
H2379 C2399 0.950 . S
H2380 C2401 0.933 1_655 S
H2381 C2404 0.950 . S
H2382 C2405 0.950 . S
H2383 C2407 0.950 . S
H2384 C2408 0.950 . S
H2385 C2409 0.951 . S
H2386 C2411 0.951 . S
H2387 C2413 0.950 . S
H2388 C2414 0.950 . S
H2389 C2416 0.950 . S
H2390 C2419 0.950 . S
H2391 C2420 0.950 . S
H2392 C2422 0.950 . S
H2393 C2423 0.950 1_455 S
C2394 H2376 0.969 . S
C2394 C2395 1.356 1_655 S
C2394 C2396 1.380 1_655 S
C2395 C2394 1.356 1_455 S
C2395 C2399 1.385 . S
C2396 H2377 0.951 1_455 S
C2396 C2394 1.380 1_455 S
C2396 C2397 1.366 . S
C2397 C2396 1.366 . S
C2397 C2398 1.414 . S
C2397 C2400 1.499 . S
C2398 H2378 0.950 . S
C2398 C2397 1.414 . S
C2398 C2399 1.374 . S
C2399 H2379 0.950 . S
C2399 C2395 1.385 . S
C2399 C2398 1.374 . S
C2400 C2397 1.499 . S
C2400 C2401 1.373 . S
C2400 C2402 1.389 . S
C2401 H2380 0.933 1_455 S
C2401 C2400 1.373 . S
C2401 C2417 1.377 . S
C2402 C2400 1.389 . S
C2402 C2403 1.524 . S
C2402 C2416 1.377 . S
C2403 C2402 1.524 . S
C2403 C2404 1.397 . S
C2403 C2408 1.363 . S
C2404 H2381 0.950 . S
C2404 C2403 1.397 . S
C2404 C2405 1.334 . S
C2405 H2382 0.950 . S
C2405 C2404 1.334 . S
C2405 C2406 1.287 . S
C2406 C2405 1.287 . S
C2406 C2407 1.524 . S
C2406 H2425 0.913 . S
C2407 H2383 0.950 . S
C2407 C2406 1.524 . S
C2407 C2408 1.415 . S
C2408 H2384 0.950 . S
C2408 C2403 1.363 . S
C2408 C2407 1.415 . S
C2409 H2385 0.951 . S
C2409 C2410 1.366 . S
C2409 C2411 1.388 . S
C2410 C2409 1.366 . S
C2410 C2414 1.385 . S
C2411 H2386 0.951 . S
C2411 C2409 1.388 . S
C2411 C2412 1.366 . S
C2412 C2411 1.366 . S
C2412 C2413 1.414 . S
C2412 C2415 1.499 . S
C2413 H2387 0.950 . S
C2413 C2412 1.414 . S
C2413 C2414 1.374 . S
C2414 H2388 0.950 . S
C2414 C2410 1.385 . S
C2414 C2413 1.374 . S
C2415 C2412 1.499 . S
C2415 C2416 1.373 . S
C2415 C2417 1.389 . S
C2416 H2389 0.950 . S
C2416 C2402 1.377 . S
C2416 C2415 1.373 . S
C2417 C2401 1.377 . S
C2417 C2415 1.389 . S
C2417 C2418 1.524 1_455 S
C2418 C2417 1.524 1_655 S
C2418 C2419 1.397 . S
C2418 C2423 1.363 . S
C2419 H2390 0.950 . S
C2419 C2418 1.397 . S
C2419 C2420 1.334 . S
C2420 H2391 0.950 . S
C2420 C2419 1.334 . S
C2420 C2421 1.287 . S
C2421 C2420 1.287 . S
C2421 C2422 1.524 . S
C2421 H2424 0.999 . S
C2422 H2392 0.950 . S
C2422 C2421 1.524 . S
C2422 C2423 1.415 . S
C2423 H2393 0.950 1_655 S
C2423 C2418 1.363 . S
C2423 C2422 1.415 . S
H2424 C2421 0.999 . S
H2425 C2406 0.913 . S
H2426 C2444 0.951 . S
H2427 C2446 0.951 . S
H2428 C2448 0.950 . S
H2429 C2449 0.950 . S
H2430 C2451 0.950 . S
H2431 C2454 0.950 . S
H2432 C2455 0.950 . S
H2433 C2457 0.950 . S
H2434 C2458 0.950 . S
H2435 C2459 0.951 . S
H2436 C2461 0.951 . S
H2437 C2463 0.950 . S
H2438 C2464 0.950 . S
H2439 C2466 0.950 . S
H2440 C2469 0.950 . S
H2441 C2470 0.950 . S
H2442 C2472 0.950 . S
H2443 C2473 0.950 . S
C2444 H2426 0.951 . S
C2444 C2445 1.366 . S
C2444 C2446 1.388 . S
C2445 C2444 1.366 . S
C2445 C2449 1.385 . S
C2446 H2427 0.951 . S
C2446 C2444 1.388 . S
C2446 C2447 1.366 . S
C2447 C2446 1.366 . S
C2447 C2448 1.414 . S
C2447 C2450 1.499 . S
C2448 H2428 0.950 . S
C2448 C2447 1.414 . S
C2448 C2449 1.374 . S
C2449 H2429 0.950 . S
C2449 C2445 1.385 . S
C2449 C2448 1.374 . S
C2450 C2447 1.499 . S
C2450 C2451 1.373 . S
C2450 C2452 1.389 . S
C2451 H2430 0.950 . S
C2451 C2450 1.373 . S
C2451 C2467 1.377 . S
C2452 C2450 1.389 . S
C2452 C2453 1.524 . S
C2452 C2466 1.377 . S
C2453 C2452 1.524 . S
C2453 C2454 1.397 . S
C2453 C2458 1.363 . S
C2454 H2431 0.950 . S
C2454 C2453 1.397 . S
C2454 C2455 1.334 . S
C2455 H2432 0.950 . S
C2455 C2454 1.334 . S
C2455 C2456 1.287 . S
C2456 C2455 1.287 . S
C2456 C2457 1.524 . S
C2456 H2475 0.913 . S
C2457 H2433 0.950 . S
C2457 C2456 1.524 . S
C2457 C2458 1.415 . S
C2458 H2434 0.950 . S
C2458 C2453 1.363 . S
C2458 C2457 1.415 . S
C2459 H2435 0.951 . S
C2459 C2460 1.366 . S
C2459 C2461 1.388 . S
C2460 C2459 1.366 . S
C2460 C2464 1.385 . S
C2461 H2436 0.951 . S
C2461 C2459 1.388 . S
C2461 C2462 1.366 . S
C2462 C2461 1.366 . S
C2462 C2463 1.414 . S
C2462 C2465 1.499 . S
C2463 H2437 0.950 . S
C2463 C2462 1.414 . S
C2463 C2464 1.374 . S
C2464 H2438 0.950 . S
C2464 C2460 1.385 . S
C2464 C2463 1.374 . S
C2465 C2462 1.499 . S
C2465 C2466 1.373 . S
C2465 C2467 1.389 . S
C2466 H2439 0.950 . S
C2466 C2452 1.377 . S
C2466 C2465 1.373 . S
C2467 C2451 1.377 . S
C2467 C2465 1.389 . S
C2467 C2468 1.524 . S
C2468 C2467 1.524 . S
C2468 C2469 1.397 . S
C2468 C2473 1.363 . S
C2469 H2440 0.950 . S
C2469 C2468 1.397 . S
C2469 C2470 1.334 . S
C2470 H2441 0.950 . S
C2470 C2469 1.334 . S
C2470 C2471 1.287 . S
C2471 C2470 1.287 . S
C2471 C2472 1.524 . S
C2471 H2474 0.999 . S
C2472 H2442 0.950 . S
C2472 C2471 1.524 . S
C2472 C2473 1.415 . S
C2473 H2443 0.950 . S
C2473 C2468 1.363 . S
C2473 C2472 1.415 . S
H2474 C2471 0.999 . S
H2475 C2456 0.913 . S
H2476 C2494 0.951 . S
H2477 C2496 0.951 . S
H2478 C2498 0.950 . S
H2479 C2499 0.950 . S
H2480 C2501 0.950 . S
H2481 C2504 0.950 . S
H2482 C2505 0.950 . S
H2483 C2507 0.950 . S
H2484 C2508 0.937 1_556 S
H2485 C2509 0.919 1_545 S
H2486 C2511 0.951 . S
H2487 C2513 0.950 . S
H2488 C2514 0.950 . S
H2489 C2516 0.950 . S
H2490 C2519 0.950 . S
H2491 C2520 0.925 1_545 S
H2492 C2522 0.950 . S
H2493 C2523 0.950 . S
C2494 H2476 0.951 . S
C2494 C2495 1.366 . S
C2494 C2496 1.388 . S
C2495 C2494 1.366 . S
C2495 C2499 1.385 . S
C2496 H2477 0.951 . S
C2496 C2494 1.388 . S
C2496 C2497 1.366 . S
C2497 C2496 1.366 . S
C2497 C2498 1.414 . S
C2497 C2500 1.499 . S
C2498 H2478 0.950 . S
C2498 C2497 1.414 . S
C2498 C2499 1.374 . S
C2499 H2479 0.950 . S
C2499 C2495 1.385 . S
C2499 C2498 1.374 . S
C2500 C2497 1.499 . S
C2500 C2501 1.373 . S
C2500 C2502 1.389 . S
C2501 H2480 0.950 . S
C2501 C2500 1.373 . S
C2501 C2517 1.377 . S
C2502 C2500 1.389 . S
C2502 C2503 1.524 . S
C2502 C2516 1.377 . S
C2503 C2502 1.524 . S
C2503 C2504 1.397 . S
C2503 C2508 1.350 1_556 S
C2504 H2481 0.950 . S
C2504 C2503 1.397 . S
C2504 C2505 1.334 1_556 S
C2505 H2482 0.950 . S
C2505 C2504 1.334 1_554 S
C2505 C2506 1.287 . S
C2506 C2505 1.287 . S
C2506 C2507 1.524 . S
C2506 H2525 0.913 . S
C2507 H2483 0.950 . S
C2507 C2506 1.524 . S
C2507 C2508 1.436 . S
C2508 H2484 0.937 1_554 S
C2508 C2503 1.350 1_554 S
C2508 C2507 1.436 . S
C2509 H2485 0.919 1_565 S
C2509 C2510 1.353 1_566 S
C2509 C2511 1.434 . S
C2510 C2509 1.353 1_544 S
C2510 C2514 1.385 . S
C2511 H2486 0.951 . S
C2511 C2509 1.434 . S
C2511 C2512 1.366 . S
C2512 C2511 1.366 . S
C2512 C2513 1.414 . S
C2512 C2515 1.499 . S
C2513 H2487 0.950 . S
C2513 C2512 1.414 . S
C2513 C2514 1.374 1_566 S
C2514 H2488 0.950 . S
C2514 C2510 1.385 . S
C2514 C2513 1.374 1_544 S
C2515 C2512 1.499 . S
C2515 C2516 1.373 . S
C2515 C2517 1.389 . S
C2516 H2489 0.950 . S
C2516 C2502 1.377 . S
C2516 C2515 1.373 . S
C2517 C2501 1.377 . S
C2517 C2515 1.389 . S
C2517 C2518 1.524 . S
C2518 C2517 1.524 . S
C2518 C2519 1.397 . S
C2518 C2523 1.363 . S
C2519 H2490 0.950 . S
C2519 C2518 1.397 . S
C2519 C2520 1.334 . S
C2520 H2491 0.925 1_565 S
C2520 C2519 1.334 . S
C2520 C2521 1.287 . S
C2521 C2520 1.287 . S
C2521 C2522 1.524 . S
C2521 H2524 0.999 . S
C2522 H2492 0.950 . S
C2522 C2521 1.524 . S
C2522 C2523 1.415 . S
C2523 H2493 0.950 . S
C2523 C2518 1.363 . S
C2523 C2522 1.415 . S
H2524 C2521 0.999 . S
H2525 C2506 0.913 . S
H2526 C2544 0.951 . S
H2527 C2546 0.951 . S
H2528 C2548 0.950 . S
H2529 C2549 0.950 . S
H2530 C2551 0.950 . S
H2531 C2554 0.938 1_455 S
H2532 C2555 0.950 . S
H2533 C2557 0.950 . S
H2534 C2558 0.950 . S
H2535 C2559 0.951 . S
H2536 C2561 0.951 . S
H2537 C2563 0.950 . S
H2538 C2564 0.950 . S
H2539 C2566 0.950 . S
H2540 C2569 0.950 . S
H2541 C2570 0.950 . S
H2542 C2572 0.950 . S
H2543 C2573 0.950 . S
C2544 H2526 0.951 . S
C2544 C2545 1.366 . S
C2544 C2546 1.388 1_455 S
C2545 C2544 1.366 . S
C2545 C2549 1.385 . S
C2546 H2527 0.951 . S
C2546 C2544 1.388 1_655 S
C2546 C2547 1.366 . S
C2547 C2546 1.366 . S
C2547 C2548 1.414 1_655 S
C2547 C2550 1.499 . S
C2548 H2528 0.950 . S
C2548 C2547 1.414 1_455 S
C2548 C2549 1.374 . S
C2549 H2529 0.950 . S
C2549 C2545 1.385 . S
C2549 C2548 1.374 . S
C2550 C2547 1.499 . S
C2550 C2551 1.373 . S
C2550 C2552 1.389 . S
C2551 H2530 0.950 . S
C2551 C2550 1.373 . S
C2551 C2567 1.377 . S
C2552 C2550 1.389 . S
C2552 C2553 1.524 . S
C2552 C2566 1.377 . S
C2553 C2552 1.524 . S
C2553 C2554 1.415 . S
C2553 C2558 1.363 . S
C2554 H2531 0.938 1_655 S
C2554 C2553 1.415 . S
C2554 C2555 1.328 1_655 S
C2555 H2532 0.950 . S
C2555 C2554 1.328 1_455 S
C2555 C2556 1.287 1_455 S
C2556 C2555 1.287 1_655 S
C2556 C2557 1.524 . S
C2556 H2575 0.913 1_655 S
C2557 H2533 0.950 . S
C2557 C2556 1.524 . S
C2557 C2558 1.415 . S
C2558 H2534 0.950 . S
C2558 C2553 1.363 . S
C2558 C2557 1.415 . S
C2559 H2535 0.951 . S
C2559 C2560 1.366 . S
C2559 C2561 1.388 . S
C2560 C2559 1.366 . S
C2560 C2564 1.385 . S
C2561 H2536 0.951 . S
C2561 C2559 1.388 . S
C2561 C2562 1.366 . S
C2562 C2561 1.366 . S
C2562 C2563 1.414 . S
C2562 C2565 1.499 . S
C2563 H2537 0.950 . S
C2563 C2562 1.414 . S
C2563 C2564 1.374 . S
C2564 H2538 0.950 . S
C2564 C2560 1.385 . S
C2564 C2563 1.374 . S
C2565 C2562 1.499 . S
C2565 C2566 1.373 . S
C2565 C2567 1.389 . S
C2566 H2539 0.950 . S
C2566 C2552 1.377 . S
C2566 C2565 1.373 . S
C2567 C2551 1.377 . S
C2567 C2565 1.389 . S
C2567 C2568 1.524 . S
C2568 C2567 1.524 . S
C2568 C2569 1.397 . S
C2568 C2573 1.363 . S
C2569 H2540 0.950 . S
C2569 C2568 1.397 . S
C2569 C2570 1.334 . S
C2570 H2541 0.950 . S
C2570 C2569 1.334 . S
C2570 C2571 1.287 . S
C2571 C2570 1.287 . S
C2571 C2572 1.524 . S
C2571 H2574 0.999 . S
C2572 H2542 0.950 . S
C2572 C2571 1.524 . S
C2572 C2573 1.415 . S
C2573 H2543 0.950 . S
C2573 C2568 1.363 . S
C2573 C2572 1.415 . S
H2574 C2571 0.999 . S
H2575 C2556 0.913 1_455 S
H2576 C2594 0.951 . S
H2577 C2596 0.951 . S
H2578 C2598 0.950 . S
H2579 C2599 0.950 . S
H2580 C2601 0.950 . S
H2581 C2604 0.950 . S
H2582 C2605 0.950 . S
H2583 C2607 0.950 . S
H2584 C2608 0.950 . S
H2585 C2609 0.951 . S
H2586 C2611 0.951 . S
H2587 C2613 0.950 . S
H2588 C2614 0.950 . S
H2589 C2616 0.950 . S
H2590 C2619 0.950 . S
H2591 C2620 0.950 . S
H2592 C2622 0.950 . S
H2593 C2623 0.950 . S
C2594 H2576 0.951 . S
C2594 C2595 1.366 . S
C2594 C2596 1.388 . S
C2595 C2594 1.366 . S
C2595 C2599 1.385 . S
C2596 H2577 0.951 . S
C2596 C2594 1.388 . S
C2596 C2597 1.366 . S
C2597 C2596 1.366 . S
C2597 C2598 1.414 . S
C2597 C2600 1.499 . S
C2598 H2578 0.950 . S
C2598 C2597 1.414 . S
C2598 C2599 1.374 . S
C2599 H2579 0.950 . S
C2599 C2595 1.385 . S
C2599 C2598 1.374 . S
C2600 C2597 1.499 . S
C2600 C2601 1.373 . S
C2600 C2602 1.389 . S
C2601 H2580 0.950 . S
C2601 C2600 1.373 . S
C2601 C2617 1.377 . S
C2602 C2600 1.389 . S
C2602 C2603 1.524 . S
C2602 C2616 1.377 . S
C2603 C2602 1.524 . S
C2603 C2604 1.397 . S
C2603 C2608 1.363 . S
C2604 H2581 0.950 . S
C2604 C2603 1.397 . S
C2604 C2605 1.334 . S
C2605 H2582 0.950 . S
C2605 C2604 1.334 . S
C2605 C2606 1.287 . S
C2606 C2605 1.287 . S
C2606 C2607 1.524 . S
C2606 H2625 0.913 1_545 S
C2607 H2583 0.950 . S
C2607 C2606 1.524 . S
C2607 C2608 1.415 . S
C2608 H2584 0.950 . S
C2608 C2603 1.363 . S
C2608 C2607 1.415 . S
C2609 H2585 0.951 . S
C2609 C2610 1.366 . S
C2609 C2611 1.388 . S
C2610 C2609 1.366 . S
C2610 C2614 1.385 . S
C2611 H2586 0.951 . S
C2611 C2609 1.388 . S
C2611 C2612 1.366 . S
C2612 C2611 1.366 . S
C2612 C2613 1.414 . S
C2612 C2615 1.499 . S
C2613 H2587 0.950 . S
C2613 C2612 1.414 . S
C2613 C2614 1.374 . S
C2614 H2588 0.950 . S
C2614 C2610 1.385 . S
C2614 C2613 1.374 . S
C2615 C2612 1.499 . S
C2615 C2616 1.373 . S
C2615 C2617 1.389 . S
C2616 H2589 0.950 . S
C2616 C2602 1.377 . S
C2616 C2615 1.373 . S
C2617 C2601 1.377 . S
C2617 C2615 1.389 . S
C2617 C2618 1.524 . S
C2618 C2617 1.524 . S
C2618 C2619 1.397 . S
C2618 C2623 1.363 . S
C2619 H2590 0.950 . S
C2619 C2618 1.397 . S
C2619 C2620 1.334 . S
C2620 H2591 0.950 . S
C2620 C2619 1.334 . S
C2620 C2621 1.287 . S
C2621 C2620 1.287 . S
C2621 C2622 1.524 . S
C2621 H2624 0.999 . S
C2622 H2592 0.950 . S
C2622 C2621 1.524 . S
C2622 C2623 1.415 . S
C2623 H2593 0.950 . S
C2623 C2618 1.363 . S
C2623 C2622 1.415 . S
H2624 C2621 0.999 . S
H2625 C2606 0.913 1_565 S
H2626 C2644 0.951 . S
H2627 C2646 0.951 . S
H2628 C2648 0.950 . S
H2629 C2649 0.950 . S
H2630 C2651 0.950 . S
H2631 C2654 0.950 . S
H2632 C2655 0.950 . S
H2633 C2657 0.950 . S
H2634 C2658 0.950 . S
H2635 C2659 0.951 . S
H2636 C2661 0.951 . S
H2637 C2663 0.950 . S
H2638 C2664 0.950 . S
H2639 C2666 0.950 . S
H2640 C2669 0.950 . S
H2641 C2670 0.950 . S
H2642 C2672 0.950 . S
H2643 C2673 0.950 . S
C2644 H2626 0.951 . S
C2644 C2645 1.366 . S
C2644 C2646 1.388 . S
C2645 C2644 1.366 . S
C2645 C2649 1.385 . S
C2646 H2627 0.951 . S
C2646 C2644 1.388 . S
C2646 C2647 1.366 . S
C2647 C2646 1.366 . S
C2647 C2648 1.414 . S
C2647 C2650 1.499 . S
C2648 H2628 0.950 . S
C2648 C2647 1.414 . S
C2648 C2649 1.374 . S
C2649 H2629 0.950 . S
C2649 C2645 1.385 . S
C2649 C2648 1.374 . S
C2650 C2647 1.499 . S
C2650 C2651 1.373 . S
C2650 C2652 1.389 . S
C2651 H2630 0.950 . S
C2651 C2650 1.373 . S
C2651 C2667 1.377 . S
C2652 C2650 1.389 . S
C2652 C2653 1.524 . S
C2652 C2666 1.377 . S
C2653 C2652 1.524 . S
C2653 C2654 1.397 . S
C2653 C2658 1.363 . S
C2654 H2631 0.950 . S
C2654 C2653 1.397 . S
C2654 C2655 1.334 . S
C2655 H2632 0.950 . S
C2655 C2654 1.334 . S
C2655 C2656 1.287 . S
C2656 C2655 1.287 . S
C2656 C2657 1.524 . S
C2656 H2675 0.913 . S
C2657 H2633 0.950 . S
C2657 C2656 1.524 . S
C2657 C2658 1.415 . S
C2658 H2634 0.950 . S
C2658 C2653 1.363 . S
C2658 C2657 1.415 . S
C2659 H2635 0.951 . S
C2659 C2660 1.366 . S
C2659 C2661 1.388 . S
C2660 C2659 1.366 . S
C2660 C2664 1.385 . S
C2661 H2636 0.951 . S
C2661 C2659 1.388 . S
C2661 C2662 1.366 . S
C2662 C2661 1.366 . S
C2662 C2663 1.414 . S
C2662 C2665 1.499 . S
C2663 H2637 0.950 . S
C2663 C2662 1.414 . S
C2663 C2664 1.374 . S
C2664 H2638 0.950 . S
C2664 C2660 1.385 . S
C2664 C2663 1.374 . S
C2665 C2662 1.499 . S
C2665 C2666 1.373 . S
C2665 C2667 1.389 . S
C2666 H2639 0.950 . S
C2666 C2652 1.377 . S
C2666 C2665 1.373 . S
C2667 C2651 1.377 . S
C2667 C2665 1.389 . S
C2667 C2668 1.524 . S
C2668 C2667 1.524 . S
C2668 C2669 1.397 . S
C2668 C2673 1.363 . S
C2669 H2640 0.950 . S
C2669 C2668 1.397 . S
C2669 C2670 1.334 . S
C2670 H2641 0.950 . S
C2670 C2669 1.334 . S
C2670 C2671 1.287 . S
C2671 C2670 1.287 . S
C2671 C2672 1.524 . S
C2671 H2674 0.999 . S
C2672 H2642 0.950 . S
C2672 C2671 1.524 . S
C2672 C2673 1.415 . S
C2673 H2643 0.950 . S
C2673 C2668 1.363 . S
C2673 C2672 1.415 . S
H2674 C2671 0.999 . S
H2675 C2656 0.913 . S
H2676 C2694 0.951 . S
H2677 C2696 0.951 . S
H2678 C2698 0.950 . S
H2679 C2699 0.950 . S
H2680 C2701 0.950 . S
H2681 C2704 0.950 . S
H2682 C2705 0.950 . S
H2683 C2707 0.950 . S
H2684 C2708 0.950 . S
H2685 C2709 0.951 . S
H2686 C2711 0.951 . S
H2687 C2713 0.950 . S
H2688 C2714 0.950 . S
H2689 C2716 0.950 . S
H2690 C2719 0.950 . S
H2691 C2720 0.950 . S
H2692 C2722 0.950 . S
H2693 C2723 0.950 . S
C2694 H2676 0.951 . S
C2694 C2695 1.366 . S
C2694 C2696 1.388 . S
C2695 C2694 1.366 . S
C2695 C2699 1.385 . S
C2696 H2677 0.951 . S
C2696 C2694 1.388 . S
C2696 C2697 1.366 . S
C2697 C2696 1.366 . S
C2697 C2698 1.414 . S
C2697 C2700 1.499 . S
C2698 H2678 0.950 . S
C2698 C2697 1.414 . S
C2698 C2699 1.374 . S
C2699 H2679 0.950 . S
C2699 C2695 1.385 . S
C2699 C2698 1.374 . S
C2700 C2697 1.499 . S
C2700 C2701 1.373 . S
C2700 C2702 1.389 . S
C2701 H2680 0.950 . S
C2701 C2700 1.373 . S
C2701 C2717 1.377 . S
C2702 C2700 1.389 . S
C2702 C2703 1.524 . S
C2702 C2716 1.377 . S
C2703 C2702 1.524 . S
C2703 C2704 1.397 . S
C2703 C2708 1.363 . S
C2704 H2681 0.950 . S
C2704 C2703 1.397 . S
C2704 C2705 1.334 . S
C2705 H2682 0.950 . S
C2705 C2704 1.334 . S
C2705 C2706 1.287 . S
C2706 C2705 1.287 . S
C2706 C2707 1.524 . S
C2706 H2725 0.913 . S
C2707 H2683 0.950 . S
C2707 C2706 1.524 . S
C2707 C2708 1.415 . S
C2708 H2684 0.950 . S
C2708 C2703 1.363 . S
C2708 C2707 1.415 . S
C2709 H2685 0.951 . S
C2709 C2710 1.366 . S
C2709 C2711 1.388 . S
C2710 C2709 1.366 . S
C2710 C2714 1.385 . S
C2711 H2686 0.951 . S
C2711 C2709 1.388 . S
C2711 C2712 1.366 . S
C2712 C2711 1.366 . S
C2712 C2713 1.414 . S
C2712 C2715 1.499 . S
C2713 H2687 0.950 . S
C2713 C2712 1.414 . S
C2713 C2714 1.374 . S
C2714 H2688 0.950 . S
C2714 C2710 1.385 . S
C2714 C2713 1.374 . S
C2715 C2712 1.499 . S
C2715 C2716 1.373 . S
C2715 C2717 1.389 . S
C2716 H2689 0.950 . S
C2716 C2702 1.377 . S
C2716 C2715 1.373 . S
C2717 C2701 1.377 . S
C2717 C2715 1.389 . S
C2717 C2718 1.524 . S
C2718 C2717 1.524 . S
C2718 C2719 1.397 . S
C2718 C2723 1.363 . S
C2719 H2690 0.950 . S
C2719 C2718 1.397 . S
C2719 C2720 1.334 . S
C2720 H2691 0.950 . S
C2720 C2719 1.334 . S
C2720 C2721 1.287 . S
C2721 C2720 1.287 . S
C2721 C2722 1.524 . S
C2721 H2724 0.999 . S
C2722 H2692 0.950 . S
C2722 C2721 1.524 . S
C2722 C2723 1.415 . S
C2723 H2693 0.950 . S
C2723 C2718 1.363 . S
C2723 C2722 1.415 . S
H2724 C2721 0.999 . S
H2725 C2706 0.913 . S
H2726 C2744 0.951 . S
H2727 C2746 0.951 . S
H2728 C2748 0.950 . S
H2729 C2749 0.950 . S
H2730 C2751 0.950 . S
H2731 C2754 0.950 . S
H2732 C2755 0.950 . S
H2733 C2757 0.950 . S
H2734 C2758 0.950 . S
H2735 C2759 0.951 . S
H2736 C2761 0.951 . S
H2737 C2763 0.950 . S
H2738 C2764 0.950 . S
H2739 C2766 0.950 . S
H2740 C2769 0.950 . S
H2741 C2770 0.950 . S
H2742 C2772 0.950 . S
H2743 C2773 0.950 . S
C2744 H2726 0.951 . S
C2744 C2745 1.366 . S
C2744 C2746 1.388 . S
C2745 C2744 1.366 . S
C2745 C2749 1.385 . S
C2746 H2727 0.951 . S
C2746 C2744 1.388 . S
C2746 C2747 1.366 . S
C2747 C2746 1.366 . S
C2747 C2748 1.414 . S
C2747 C2750 1.499 . S
C2748 H2728 0.950 . S
C2748 C2747 1.414 . S
C2748 C2749 1.374 . S
C2749 H2729 0.950 . S
C2749 C2745 1.385 . S
C2749 C2748 1.374 . S
C2750 C2747 1.499 . S
C2750 C2751 1.373 . S
C2750 C2752 1.389 . S
C2751 H2730 0.950 . S
C2751 C2750 1.373 . S
C2751 C2767 1.377 . S
C2752 C2750 1.389 . S
C2752 C2753 1.524 . S
C2752 C2766 1.377 . S
C2753 C2752 1.524 . S
C2753 C2754 1.397 . S
C2753 C2758 1.363 . S
C2754 H2731 0.950 . S
C2754 C2753 1.397 . S
C2754 C2755 1.334 . S
C2755 H2732 0.950 . S
C2755 C2754 1.334 . S
C2755 C2756 1.287 . S
C2756 C2755 1.287 . S
C2756 C2757 1.524 . S
C2756 H2775 0.913 . S
C2757 H2733 0.950 . S
C2757 C2756 1.524 . S
C2757 C2758 1.415 . S
C2758 H2734 0.950 . S
C2758 C2753 1.363 . S
C2758 C2757 1.415 . S
C2759 H2735 0.951 . S
C2759 C2760 1.366 . S
C2759 C2761 1.388 . S
C2760 C2759 1.366 . S
C2760 C2764 1.385 . S
C2761 H2736 0.951 . S
C2761 C2759 1.388 . S
C2761 C2762 1.366 . S
C2762 C2761 1.366 . S
C2762 C2763 1.414 . S
C2762 C2765 1.499 . S
C2763 H2737 0.950 . S
C2763 C2762 1.414 . S
C2763 C2764 1.374 . S
C2764 H2738 0.950 . S
C2764 C2760 1.385 . S
C2764 C2763 1.374 . S
C2765 C2762 1.499 . S
C2765 C2766 1.373 . S
C2765 C2767 1.389 . S
C2766 H2739 0.950 . S
C2766 C2752 1.377 . S
C2766 C2765 1.373 . S
C2767 C2751 1.377 . S
C2767 C2765 1.389 . S
C2767 C2768 1.524 . S
C2768 C2767 1.524 . S
C2768 C2769 1.397 . S
C2768 C2773 1.363 . S
C2769 H2740 0.950 . S
C2769 C2768 1.397 . S
C2769 C2770 1.334 . S
C2770 H2741 0.950 . S
C2770 C2769 1.334 . S
C2770 C2771 1.287 . S
C2771 C2770 1.287 . S
C2771 C2772 1.524 . S
C2771 H2774 0.999 . S
C2772 H2742 0.950 . S
C2772 C2771 1.524 . S
C2772 C2773 1.415 . S
C2773 H2743 0.950 . S
C2773 C2768 1.363 . S
C2773 C2772 1.415 . S
H2774 C2771 0.999 . S
H2775 C2756 0.913 . S
H2776 C2794 0.951 . S
H2777 C2796 0.951 . S
H2778 C2798 0.950 . S
H2779 C2799 0.950 . S
H2780 C2801 0.950 . S
H2781 C2804 0.950 . S
H2782 C2805 0.950 . S
H2783 C2807 0.950 . S
H2784 C2808 0.950 . S
H2785 C2809 0.951 . S
H2786 C2811 0.951 . S
H2787 C2813 0.950 . S
H2788 C2814 0.950 . S
H2789 C2816 0.950 . S
H2790 C2819 0.950 . S
H2791 C2820 0.950 . S
H2792 C2822 0.950 . S
H2793 C2823 0.950 . S
C2794 H2776 0.951 . S
C2794 C2795 1.366 . S
C2794 C2796 1.388 . S
C2795 C2794 1.366 . S
C2795 C2799 1.385 . S
C2796 H2777 0.951 . S
C2796 C2794 1.388 . S
C2796 C2797 1.366 . S
C2797 C2796 1.366 . S
C2797 C2798 1.414 . S
C2797 C2800 1.499 . S
C2798 H2778 0.950 . S
C2798 C2797 1.414 . S
C2798 C2799 1.374 . S
C2799 H2779 0.950 . S
C2799 C2795 1.385 . S
C2799 C2798 1.374 . S
C2800 C2797 1.499 . S
C2800 C2801 1.373 . S
C2800 C2802 1.389 . S
C2801 H2780 0.950 . S
C2801 C2800 1.373 . S
C2801 C2817 1.377 . S
C2802 C2800 1.389 . S
C2802 C2803 1.524 . S
C2802 C2816 1.377 . S
C2803 C2802 1.524 . S
C2803 C2804 1.397 . S
C2803 C2808 1.363 . S
C2804 H2781 0.950 . S
C2804 C2803 1.397 . S
C2804 C2805 1.334 . S
C2805 H2782 0.950 . S
C2805 C2804 1.334 . S
C2805 C2806 1.287 . S
C2806 C2805 1.287 . S
C2806 C2807 1.524 . S
C2806 H2825 0.913 . S
C2807 H2783 0.950 . S
C2807 C2806 1.524 . S
C2807 C2808 1.415 . S
C2808 H2784 0.950 . S
C2808 C2803 1.363 . S
C2808 C2807 1.415 . S
C2809 H2785 0.951 . S
C2809 C2810 1.366 . S
C2809 C2811 1.388 . S
C2810 C2809 1.366 . S
C2810 C2814 1.385 . S
C2811 H2786 0.951 . S
C2811 C2809 1.388 . S
C2811 C2812 1.366 . S
C2812 C2811 1.366 . S
C2812 C2813 1.414 . S
C2812 C2815 1.499 . S
C2813 H2787 0.950 . S
C2813 C2812 1.414 . S
C2813 C2814 1.374 . S
C2814 H2788 0.950 . S
C2814 C2810 1.385 . S
C2814 C2813 1.374 . S
C2815 C2812 1.499 . S
C2815 C2816 1.373 . S
C2815 C2817 1.389 . S
C2816 H2789 0.950 . S
C2816 C2802 1.377 . S
C2816 C2815 1.373 . S
C2817 C2801 1.377 . S
C2817 C2815 1.389 . S
C2817 C2818 1.524 . S
C2818 C2817 1.524 . S
C2818 C2819 1.397 . S
C2818 C2823 1.363 . S
C2819 H2790 0.950 . S
C2819 C2818 1.397 . S
C2819 C2820 1.334 . S
C2820 H2791 0.950 . S
C2820 C2819 1.334 . S
C2820 C2821 1.287 . S
C2821 C2820 1.287 . S
C2821 C2822 1.524 1_545 S
C2821 H2824 0.999 1_545 S
C2822 H2792 0.950 . S
C2822 C2821 1.524 1_565 S
C2822 C2823 1.415 1_565 S
C2823 H2793 0.950 . S
C2823 C2818 1.363 . S
C2823 C2822 1.415 1_545 S
H2824 C2821 0.999 1_565 S
H2825 C2806 0.913 . S
H2826 C2844 0.951 . S
H2827 C2846 0.951 . S
H2828 C2848 0.950 . S
H2829 C2849 0.950 . S
H2830 C2851 0.950 . S
H2831 C2854 0.950 . S
H2832 C2855 0.950 . S
H2833 C2857 0.950 . S
H2834 C2858 0.950 . S
H2835 C2859 0.951 . S
H2836 C2861 0.951 . S
H2837 C2863 0.950 . S
H2838 C2864 0.950 . S
H2839 C2866 0.950 . S
H2840 C2869 0.950 . S
H2841 C2870 0.950 . S
H2842 C2872 0.950 . S
H2843 C2873 0.950 . S
C2844 H2826 0.951 . S
C2844 C2845 1.366 . S
C2844 C2846 1.388 . S
C2845 C2844 1.366 . S
C2845 C2849 1.385 . S
C2846 H2827 0.951 . S
C2846 C2844 1.388 . S
C2846 C2847 1.366 . S
C2847 C2846 1.366 . S
C2847 C2848 1.414 . S
C2847 C2850 1.499 . S
C2848 H2828 0.950 . S
C2848 C2847 1.414 . S
C2848 C2849 1.374 . S
C2849 H2829 0.950 . S
C2849 C2845 1.385 . S
C2849 C2848 1.374 . S
C2850 C2847 1.499 . S
C2850 C2851 1.373 . S
C2850 C2852 1.389 . S
C2851 H2830 0.950 . S
C2851 C2850 1.373 . S
C2851 C2867 1.377 . S
C2852 C2850 1.389 . S
C2852 C2853 1.524 . S
C2852 C2866 1.377 . S
C2853 C2852 1.524 . S
C2853 C2854 1.397 . S
C2853 C2858 1.363 . S
C2854 H2831 0.950 . S
C2854 C2853 1.397 . S
C2854 C2855 1.334 . S
C2855 H2832 0.950 . S
C2855 C2854 1.334 . S
C2855 C2856 1.287 . S
C2856 C2855 1.287 . S
C2856 C2857 1.524 . S
C2856 H2875 0.913 . S
C2857 H2833 0.950 . S
C2857 C2856 1.524 . S
C2857 C2858 1.415 . S
C2858 H2834 0.950 . S
C2858 C2853 1.363 . S
C2858 C2857 1.415 . S
C2859 H2835 0.951 . S
C2859 C2860 1.366 . S
C2859 C2861 1.388 . S
C2860 C2859 1.366 . S
C2860 C2864 1.385 . S
C2861 H2836 0.951 . S
C2861 C2859 1.388 . S
C2861 C2862 1.366 . S
C2862 C2861 1.366 . S
C2862 C2863 1.414 . S
C2862 C2865 1.499 . S
C2863 H2837 0.950 . S
C2863 C2862 1.414 . S
C2863 C2864 1.374 . S
C2864 H2838 0.950 . S
C2864 C2860 1.385 . S
C2864 C2863 1.374 . S
C2865 C2862 1.499 . S
C2865 C2866 1.373 . S
C2865 C2867 1.389 . S
C2866 H2839 0.950 . S
C2866 C2852 1.377 . S
C2866 C2865 1.373 . S
C2867 C2851 1.377 . S
C2867 C2865 1.389 . S
C2867 C2868 1.524 . S
C2868 C2867 1.524 . S
C2868 C2869 1.397 . S
C2868 C2873 1.363 . S
C2869 H2840 0.950 . S
C2869 C2868 1.397 . S
C2869 C2870 1.334 . S
C2870 H2841 0.950 . S
C2870 C2869 1.334 . S
C2870 C2871 1.287 . S
C2871 C2870 1.287 . S
C2871 C2872 1.524 . S
C2871 H2874 0.999 . S
C2872 H2842 0.950 . S
C2872 C2871 1.524 . S
C2872 C2873 1.415 . S
C2873 H2843 0.950 . S
C2873 C2868 1.363 . S
C2873 C2872 1.415 . S
H2874 C2871 0.999 . S
H2875 C2856 0.913 . S
H2876 C2894 0.951 . S
H2877 C2896 0.951 . S
H2878 C2898 0.950 . S
H2879 C2899 0.950 . S
H2880 C2901 0.950 . S
H2881 C2904 0.950 . S
H2882 C2905 0.950 . S
H2883 C2907 0.950 . S
H2884 C2908 0.950 . S
H2885 C2909 0.951 . S
H2886 C2911 0.951 . S
H2887 C2913 0.950 . S
H2888 C2914 0.950 . S
H2889 C2916 0.950 . S
H2890 C2919 0.950 . S
H2891 C2920 0.950 . S
H2892 C2922 0.950 . S
H2893 C2923 0.950 . S
C2894 H2876 0.951 . S
C2894 C2895 1.366 . S
C2894 C2896 1.388 . S
C2895 C2894 1.366 . S
C2895 C2899 1.385 . S
C2896 H2877 0.951 . S
C2896 C2894 1.388 . S
C2896 C2897 1.366 . S
C2897 C2896 1.366 . S
C2897 C2898 1.414 . S
C2897 C2900 1.499 . S
C2898 H2878 0.950 . S
C2898 C2897 1.414 . S
C2898 C2899 1.374 . S
C2899 H2879 0.950 . S
C2899 C2895 1.385 . S
C2899 C2898 1.374 . S
C2900 C2897 1.499 . S
C2900 C2901 1.373 . S
C2900 C2902 1.389 . S
C2901 H2880 0.950 . S
C2901 C2900 1.373 . S
C2901 C2917 1.377 . S
C2902 C2900 1.389 . S
C2902 C2903 1.524 . S
C2902 C2916 1.377 . S
C2903 C2902 1.524 . S
C2903 C2904 1.397 . S
C2903 C2908 1.363 . S
C2904 H2881 0.950 . S
C2904 C2903 1.397 . S
C2904 C2905 1.334 . S
C2905 H2882 0.950 . S
C2905 C2904 1.334 . S
C2905 C2906 1.287 . S
C2906 C2905 1.287 . S
C2906 C2907 1.524 . S
C2906 H2925 0.913 . S
C2907 H2883 0.950 . S
C2907 C2906 1.524 . S
C2907 C2908 1.415 . S
C2908 H2884 0.950 . S
C2908 C2903 1.363 . S
C2908 C2907 1.415 . S
C2909 H2885 0.951 . S
C2909 C2910 1.366 . S
C2909 C2911 1.388 . S
C2910 C2909 1.366 . S
C2910 C2914 1.385 . S
C2911 H2886 0.951 . S
C2911 C2909 1.388 . S
C2911 C2912 1.366 . S
C2912 C2911 1.366 . S
C2912 C2913 1.414 . S
C2912 C2915 1.499 . S
C2913 H2887 0.950 . S
C2913 C2912 1.414 . S
C2913 C2914 1.374 . S
C2914 H2888 0.950 . S
C2914 C2910 1.385 . S
C2914 C2913 1.374 . S
C2915 C2912 1.499 . S
C2915 C2916 1.373 . S
C2915 C2917 1.389 . S
C2916 H2889 0.950 . S
C2916 C2902 1.377 . S
C2916 C2915 1.373 . S
C2917 C2901 1.377 . S
C2917 C2915 1.389 . S
C2917 C2918 1.524 . S
C2918 C2917 1.524 . S
C2918 C2919 1.397 . S
C2918 C2923 1.363 . S
C2919 H2890 0.950 . S
C2919 C2918 1.397 . S
C2919 C2920 1.334 . S
C2920 H2891 0.950 . S
C2920 C2919 1.334 . S
C2920 C2921 1.287 . S
C2921 C2920 1.287 . S
C2921 C2922 1.524 . S
C2921 H2924 0.999 . S
C2922 H2892 0.950 . S
C2922 C2921 1.524 . S
C2922 C2923 1.415 . S
C2923 H2893 0.950 . S
C2923 C2918 1.363 . S
C2923 C2922 1.415 . S
H2924 C2921 0.999 . S
H2925 C2906 0.913 . S
H2926 C2944 0.951 . S
H2927 C2946 0.951 . S
H2928 C2948 0.950 . S
H2929 C2949 0.950 . S
H2930 C2951 0.950 . S
H2931 C2954 0.950 . S
H2932 C2955 0.950 . S
H2933 C2957 0.950 . S
H2934 C2958 0.950 . S
H2935 C2959 0.951 . S
H2936 C2961 0.951 . S
H2937 C2963 0.950 . S
H2938 C2964 0.950 . S
H2939 C2966 0.950 . S
H2940 C2969 0.950 . S
H2941 C2970 0.950 . S
H2942 C2972 0.950 . S
H2943 C2973 0.950 . S
C2944 H2926 0.951 . S
C2944 C2945 1.366 . S
C2944 C2946 1.388 . S
C2945 C2944 1.366 . S
C2945 C2949 1.385 . S
C2946 H2927 0.951 . S
C2946 C2944 1.388 . S
C2946 C2947 1.366 . S
C2947 C2946 1.366 . S
C2947 C2948 1.414 . S
C2947 C2950 1.499 . S
C2948 H2928 0.950 . S
C2948 C2947 1.414 . S
C2948 C2949 1.374 . S
C2949 H2929 0.950 . S
C2949 C2945 1.385 . S
C2949 C2948 1.374 . S
C2950 C2947 1.499 . S
C2950 C2951 1.373 . S
C2950 C2952 1.389 . S
C2951 H2930 0.950 . S
C2951 C2950 1.373 . S
C2951 C2967 1.377 . S
C2952 C2950 1.389 . S
C2952 C2953 1.524 . S
C2952 C2966 1.377 . S
C2953 C2952 1.524 . S
C2953 C2954 1.397 . S
C2953 C2958 1.363 . S
C2954 H2931 0.950 . S
C2954 C2953 1.397 . S
C2954 C2955 1.334 . S
C2955 H2932 0.950 . S
C2955 C2954 1.334 . S
C2955 C2956 1.287 . S
C2956 C2955 1.287 . S
C2956 C2957 1.524 . S
C2956 H2975 0.913 . S
C2957 H2933 0.950 . S
C2957 C2956 1.524 . S
C2957 C2958 1.415 . S
C2958 H2934 0.950 . S
C2958 C2953 1.363 . S
C2958 C2957 1.415 . S
C2959 H2935 0.951 . S
C2959 C2960 1.366 . S
C2959 C2961 1.388 . S
C2960 C2959 1.366 . S
C2960 C2964 1.385 . S
C2961 H2936 0.951 . S
C2961 C2959 1.388 . S
C2961 C2962 1.366 . S
C2962 C2961 1.366 . S
C2962 C2963 1.414 . S
C2962 C2965 1.499 . S
C2963 H2937 0.950 . S
C2963 C2962 1.414 . S
C2963 C2964 1.374 . S
C2964 H2938 0.950 . S
C2964 C2960 1.385 . S
C2964 C2963 1.374 . S
C2965 C2962 1.499 . S
C2965 C2966 1.373 . S
C2965 C2967 1.389 . S
C2966 H2939 0.950 . S
C2966 C2952 1.377 . S
C2966 C2965 1.373 . S
C2967 C2951 1.377 . S
C2967 C2965 1.389 . S
C2967 C2968 1.524 . S
C2968 C2967 1.524 . S
C2968 C2969 1.397 . S
C2968 C2973 1.363 . S
C2969 H2940 0.950 . S
C2969 C2968 1.397 . S
C2969 C2970 1.334 . S
C2970 H2941 0.950 . S
C2970 C2969 1.334 . S
C2970 C2971 1.287 . S
C2971 C2970 1.287 . S
C2971 C2972 1.524 . S
C2971 H2974 0.999 . S
C2972 H2942 0.950 . S
C2972 C2971 1.524 . S
C2972 C2973 1.415 . S
C2973 H2943 0.950 . S
C2973 C2968 1.363 . S
C2973 C2972 1.415 . S
H2974 C2971 0.999 . S
H2975 C2956 0.913 . S
H2976 C2994 0.951 . S
H2977 C2996 0.951 . S
H2978 C2998 0.950 . S
H2979 C2999 0.950 . S
H2980 C3001 0.950 . S
H2981 C3004 0.950 . S
H2982 C3005 0.950 . S
H2983 C3007 0.950 . S
H2984 C3008 0.950 . S
H2985 C3009 0.931 1_554 S
H2986 C3011 0.951 1_554 S
H2987 C3013 0.950 . S
H2988 C3014 0.950 . S
H2989 C3016 0.950 . S
H2990 C3019 0.950 . S
H2991 C3020 0.950 . S
H2992 C3022 0.936 1_554 S
H2993 C3023 0.950 1_554 S
C2994 H2976 0.951 . S
C2994 C2995 1.361 1_556 S
C2994 C2996 1.388 . S
C2995 C2994 1.361 1_554 S
C2995 C2999 1.388 . S
C2996 H2977 0.951 . S
C2996 C2994 1.388 . S
C2996 C2997 1.366 . S
C2997 C2996 1.366 . S
C2997 C2998 1.414 1_556 S
C2997 C3000 1.499 . S
C2998 H2978 0.950 . S
C2998 C2997 1.414 1_554 S
C2998 C2999 1.374 . S
C2999 H2979 0.950 . S
C2999 C2995 1.388 . S
C2999 C2998 1.374 . S
C3000 C2997 1.499 . S
C3000 C3001 1.373 . S
C3000 C3002 1.389 . S
C3001 H2980 0.950 . S
C3001 C3000 1.373 . S
C3001 C3017 1.377 . S
C3002 C3000 1.389 . S
C3002 C3003 1.524 . S
C3002 C3016 1.377 . S
C3003 C3002 1.524 . S
C3003 C3004 1.397 1_556 S
C3003 C3008 1.363 . S
C3004 H2981 0.950 . S
C3004 C3003 1.397 1_554 S
C3004 C3005 1.334 . S
C3005 H2982 0.950 . S
C3005 C3004 1.334 . S
C3005 C3006 1.287 . S
C3006 C3005 1.287 . S
C3006 C3007 1.524 1_554 S
C3006 H3025 0.913 . S
C3007 H2983 0.950 . S
C3007 C3006 1.524 1_556 S
C3007 C3008 1.415 . S
C3008 H2984 0.950 . S
C3008 C3003 1.363 . S
C3008 C3007 1.415 . S
C3009 H2985 0.931 1_556 S
C3009 C3010 1.366 . S
C3009 C3011 1.388 . S
C3010 C3009 1.366 . S
C3010 C3014 1.385 . S
C3011 H2986 0.951 1_556 S
C3011 C3009 1.388 . S
C3011 C3012 1.366 . S
C3012 C3011 1.366 . S
C3012 C3013 1.414 . S
C3012 C3015 1.499 . S
C3013 H2987 0.950 . S
C3013 C3012 1.414 . S
C3013 C3014 1.374 . S
C3014 H2988 0.950 . S
C3014 C3010 1.385 . S
C3014 C3013 1.374 . S
C3015 C3012 1.499 . S
C3015 C3016 1.373 . S
C3015 C3017 1.389 . S
C3016 H2989 0.950 . S
C3016 C3002 1.377 . S
C3016 C3015 1.373 . S
C3017 C3001 1.377 . S
C3017 C3015 1.389 . S
C3017 C3018 1.524 . S
C3018 C3017 1.524 . S
C3018 C3019 1.397 . S
C3018 C3023 1.363 . S
C3019 H2990 0.950 . S
C3019 C3018 1.397 . S
C3019 C3020 1.334 . S
C3020 H2991 0.950 . S
C3020 C3019 1.334 . S
C3020 C3021 1.287 . S
C3021 C3020 1.287 . S
C3021 C3022 1.524 . S
C3021 H3024 0.999 . S
C3022 H2992 0.936 1_556 S
C3022 C3021 1.524 . S
C3022 C3023 1.415 . S
C3023 H2993 0.950 1_556 S
C3023 C3018 1.363 . S
C3023 C3022 1.415 . S
H3024 C3021 0.999 . S
H3025 C3006 0.913 . S
H3026 C3044 0.951 . S
H3027 C3046 0.951 . S
H3028 C3048 0.950 . S
H3029 C3049 0.950 . S
H3030 C3051 0.950 . S
H3031 C3054 0.950 . S
H3032 C3055 0.950 . S
H3033 C3057 0.950 . S
H3034 C3058 0.950 . S
H3035 C3059 0.951 . S
H3036 C3061 0.951 . S
H3037 C3063 0.950 . S
H3038 C3064 0.966 . S
H3039 C3066 0.950 . S
H3040 C3069 0.950 1_556 S
H3041 C3070 0.950 1_556 S
H3042 C3072 0.950 . S
H3043 C3073 0.950 . S
C3044 H3026 0.951 . S
C3044 C3045 1.366 . S
C3044 C3046 1.388 . S
C3045 C3044 1.366 . S
C3045 C3049 1.385 . S
C3046 H3027 0.951 . S
C3046 C3044 1.388 . S
C3046 C3047 1.366 . S
C3047 C3046 1.366 . S
C3047 C3048 1.414 . S
C3047 C3050 1.499 . S
C3048 H3028 0.950 . S
C3048 C3047 1.414 . S
C3048 C3049 1.374 . S
C3049 H3029 0.950 . S
C3049 C3045 1.385 . S
C3049 C3048 1.374 . S
C3050 C3047 1.499 . S
C3050 C3051 1.373 . S
C3050 C3052 1.389 . S
C3051 H3030 0.950 . S
C3051 C3050 1.373 . S
C3051 C3067 1.377 . S
C3052 C3050 1.389 . S
C3052 C3053 1.524 . S
C3052 C3066 1.377 . S
C3053 C3052 1.524 . S
C3053 C3054 1.397 . S
C3053 C3058 1.363 . S
C3054 H3031 0.950 . S
C3054 C3053 1.397 . S
C3054 C3055 1.334 . S
C3055 H3032 0.950 . S
C3055 C3054 1.334 . S
C3055 C3056 1.287 . S
C3056 C3055 1.287 . S
C3056 C3057 1.524 . S
C3056 H3075 0.913 . S
C3057 H3033 0.950 . S
C3057 C3056 1.524 . S
C3057 C3058 1.415 . S
C3058 H3034 0.950 . S
C3058 C3053 1.363 . S
C3058 C3057 1.415 . S
C3059 H3035 0.951 . S
C3059 C3060 1.366 . S
C3059 C3061 1.388 . S
C3060 C3059 1.366 . S
C3060 C3064 1.385 . S
C3061 H3036 0.951 . S
C3061 C3059 1.388 . S
C3061 C3062 1.366 . S
C3062 C3061 1.366 . S
C3062 C3063 1.414 . S
C3062 C3065 1.499 . S
C3063 H3037 0.950 . S
C3063 C3062 1.414 . S
C3063 C3064 1.374 . S
C3064 H3038 0.966 . S
C3064 C3060 1.385 . S
C3064 C3063 1.374 . S
C3065 C3062 1.499 . S
C3065 C3066 1.373 . S
C3065 C3067 1.389 . S
C3066 H3039 0.950 . S
C3066 C3052 1.377 . S
C3066 C3065 1.373 . S
C3067 C3051 1.377 . S
C3067 C3065 1.389 . S
C3067 C3068 1.524 . S
C3068 C3067 1.524 . S
C3068 C3069 1.397 . S
C3068 C3073 1.363 . S
C3069 H3040 0.950 1_554 S
C3069 C3068 1.397 . S
C3069 C3070 1.334 . S
C3070 H3041 0.950 1_554 S
C3070 C3069 1.334 . S
C3070 C3071 1.287 . S
C3071 C3070 1.287 . S
C3071 C3072 1.524 . S
C3071 H3074 0.999 . S
C3072 H3042 0.950 . S
C3072 C3071 1.524 . S
C3072 C3073 1.415 . S
C3073 H3043 0.950 . S
C3073 C3068 1.363 . S
C3073 C3072 1.415 . S
H3074 C3071 0.999 . S
H3075 C3056 0.913 . S
H3076 C3094 0.951 . S
H3077 C3096 0.951 . S
H3078 C3098 0.950 . S
H3079 C3099 0.950 . S
H3080 C3101 0.950 . S
H3081 C3104 0.950 . S
H3082 C3105 0.950 . S
H3083 C3107 0.950 . S
H3084 C3108 0.950 . S
H3085 C3109 0.951 . S
H3086 C3111 0.951 . S
H3087 C3113 0.950 . S
H3088 C3114 0.950 . S
H3089 C3116 0.950 . S
H3090 C3119 0.950 . S
H3091 C3120 0.950 . S
H3092 C3122 0.950 . S
H3093 C3123 0.950 . S
C3094 H3076 0.951 . S
C3094 C3095 1.366 . S
C3094 C3096 1.388 . S
C3095 C3094 1.366 . S
C3095 C3099 1.385 . S
C3096 H3077 0.951 . S
C3096 C3094 1.388 . S
C3096 C3097 1.366 . S
C3097 C3096 1.366 . S
C3097 C3098 1.414 . S
C3097 C3100 1.499 . S
C3098 H3078 0.950 . S
C3098 C3097 1.414 . S
C3098 C3099 1.374 . S
C3099 H3079 0.950 . S
C3099 C3095 1.385 . S
C3099 C3098 1.374 . S
C3100 C3097 1.499 . S
C3100 C3101 1.373 . S
C3100 C3102 1.389 . S
C3101 H3080 0.950 . S
C3101 C3100 1.373 . S
C3101 C3117 1.377 . S
C3102 C3100 1.389 . S
C3102 C3103 1.524 . S
C3102 C3116 1.377 . S
C3103 C3102 1.524 . S
C3103 C3104 1.397 . S
C3103 C3108 1.363 . S
C3104 H3081 0.950 . S
C3104 C3103 1.397 . S
C3104 C3105 1.334 . S
C3105 H3082 0.950 . S
C3105 C3104 1.334 . S
C3105 C3106 1.287 . S
C3106 C3105 1.287 . S
C3106 C3107 1.524 . S
C3106 H3125 0.913 . S
C3107 H3083 0.950 . S
C3107 C3106 1.524 . S
C3107 C3108 1.415 . S
C3108 H3084 0.950 . S
C3108 C3103 1.363 . S
C3108 C3107 1.415 . S
C3109 H3085 0.951 . S
C3109 C3110 1.366 . S
C3109 C3111 1.388 . S
C3110 C3109 1.366 . S
C3110 C3114 1.385 . S
C3111 H3086 0.951 . S
C3111 C3109 1.388 . S
C3111 C3112 1.366 . S
C3112 C3111 1.366 . S
C3112 C3113 1.414 . S
C3112 C3115 1.499 . S
C3113 H3087 0.950 . S
C3113 C3112 1.414 . S
C3113 C3114 1.374 . S
C3114 H3088 0.950 . S
C3114 C3110 1.385 . S
C3114 C3113 1.374 . S
C3115 C3112 1.499 . S
C3115 C3116 1.373 . S
C3115 C3117 1.389 . S
C3116 H3089 0.950 . S
C3116 C3102 1.377 . S
C3116 C3115 1.373 . S
C3117 C3101 1.377 . S
C3117 C3115 1.389 . S
C3117 C3118 1.524 . S
C3118 C3117 1.524 . S
C3118 C3119 1.397 . S
C3118 C3123 1.363 . S
C3119 H3090 0.950 . S
C3119 C3118 1.397 . S
C3119 C3120 1.334 . S
C3120 H3091 0.950 . S
C3120 C3119 1.334 . S
C3120 C3121 1.287 . S
C3121 C3120 1.287 . S
C3121 C3122 1.524 . S
C3121 H3124 0.999 . S
C3122 H3092 0.950 . S
C3122 C3121 1.524 . S
C3122 C3123 1.415 . S
C3123 H3093 0.950 . S
C3123 C3118 1.363 . S
C3123 C3122 1.415 . S
H3124 C3121 0.999 . S
H3125 C3106 0.913 . S
H3126 C3144 0.951 . S
H3127 C3146 0.951 . S
H3128 C3148 0.950 . S
H3129 C3149 0.950 . S
H3130 C3151 0.950 . S
H3131 C3154 0.950 . S
H3132 C3155 0.950 . S
H3133 C3157 0.950 . S
H3134 C3158 0.950 . S
H3135 C3159 0.951 . S
H3136 C3161 0.951 . S
H3137 C3163 0.950 . S
H3138 C3164 0.950 . S
H3139 C3166 0.950 . S
H3140 C3169 0.950 . S
H3141 C3170 0.950 . S
H3142 C3172 0.950 . S
H3143 C3173 0.950 . S
C3144 H3126 0.951 . S
C3144 C3145 1.366 . S
C3144 C3146 1.388 . S
C3145 C3144 1.366 . S
C3145 C3149 1.385 . S
C3146 H3127 0.951 . S
C3146 C3144 1.388 . S
C3146 C3147 1.366 . S
C3147 C3146 1.366 . S
C3147 C3148 1.414 . S
C3147 C3150 1.499 . S
C3148 H3128 0.950 . S
C3148 C3147 1.414 . S
C3148 C3149 1.374 . S
C3149 H3129 0.950 . S
C3149 C3145 1.385 . S
C3149 C3148 1.374 . S
C3150 C3147 1.499 . S
C3150 C3151 1.373 . S
C3150 C3152 1.389 . S
C3151 H3130 0.950 . S
C3151 C3150 1.373 . S
C3151 C3167 1.377 . S
C3152 C3150 1.389 . S
C3152 C3153 1.524 . S
C3152 C3166 1.377 . S
C3153 C3152 1.524 . S
C3153 C3154 1.397 . S
C3153 C3158 1.363 . S
C3154 H3131 0.950 . S
C3154 C3153 1.397 . S
C3154 C3155 1.334 . S
C3155 H3132 0.950 . S
C3155 C3154 1.334 . S
C3155 C3156 1.287 . S
C3156 C3155 1.287 . S
C3156 C3157 1.524 . S
C3156 H3175 0.913 . S
C3157 H3133 0.950 . S
C3157 C3156 1.524 . S
C3157 C3158 1.415 . S
C3158 H3134 0.950 . S
C3158 C3153 1.363 . S
C3158 C3157 1.415 . S
C3159 H3135 0.951 . S
C3159 C3160 1.366 . S
C3159 C3161 1.388 . S
C3160 C3159 1.366 . S
C3160 C3164 1.385 . S
C3161 H3136 0.951 . S
C3161 C3159 1.388 . S
C3161 C3162 1.366 . S
C3162 C3161 1.366 . S
C3162 C3163 1.414 . S
C3162 C3165 1.499 . S
C3163 H3137 0.950 . S
C3163 C3162 1.414 . S
C3163 C3164 1.374 . S
C3164 H3138 0.950 . S
C3164 C3160 1.385 . S
C3164 C3163 1.374 . S
C3165 C3162 1.499 . S
C3165 C3166 1.373 . S
C3165 C3167 1.389 . S
C3166 H3139 0.950 . S
C3166 C3152 1.377 . S
C3166 C3165 1.373 . S
C3167 C3151 1.377 . S
C3167 C3165 1.389 . S
C3167 C3168 1.524 . S
C3168 C3167 1.524 . S
C3168 C3169 1.397 . S
C3168 C3173 1.363 . S
C3169 H3140 0.950 . S
C3169 C3168 1.397 . S
C3169 C3170 1.334 . S
C3170 H3141 0.950 . S
C3170 C3169 1.334 . S
C3170 C3171 1.287 . S
C3171 C3170 1.287 . S
C3171 C3172 1.524 . S
C3171 H3174 0.999 . S
C3172 H3142 0.950 . S
C3172 C3171 1.524 . S
C3172 C3173 1.415 . S
C3173 H3143 0.950 . S
C3173 C3168 1.363 . S
C3173 C3172 1.415 . S
H3174 C3171 0.999 . S
H3175 C3156 0.913 . S
H3176 C3194 0.951 . S
H3177 C3196 0.951 . S
H3178 C3198 0.950 . S
H3179 C3199 0.950 . S
H3180 C3201 0.950 . S
H3181 C3204 0.950 . S
H3182 C3205 0.950 . S
H3183 C3207 0.950 . S
H3184 C3208 0.950 . S
H3185 C3209 0.951 . S
H3186 C3211 0.951 . S
H3187 C3213 0.950 . S
H3188 C3214 0.950 . S
H3189 C3216 0.950 . S
H3190 C3219 0.950 . S
H3191 C3220 0.950 . S
H3192 C3222 0.950 . S
H3193 C3223 0.950 . S
C3194 H3176 0.951 . S
C3194 C3195 1.366 . S
C3194 C3196 1.388 . S
C3195 C3194 1.366 . S
C3195 C3199 1.385 . S
C3196 H3177 0.951 . S
C3196 C3194 1.388 . S
C3196 C3197 1.366 . S
C3197 C3196 1.366 . S
C3197 C3198 1.414 . S
C3197 C3200 1.499 . S
C3198 H3178 0.950 . S
C3198 C3197 1.414 . S
C3198 C3199 1.374 . S
C3199 H3179 0.950 . S
C3199 C3195 1.385 . S
C3199 C3198 1.374 . S
C3200 C3197 1.499 . S
C3200 C3201 1.373 . S
C3200 C3202 1.389 . S
C3201 H3180 0.950 . S
C3201 C3200 1.373 . S
C3201 C3217 1.377 . S
C3202 C3200 1.389 . S
C3202 C3203 1.524 . S
C3202 C3216 1.377 . S
C3203 C3202 1.524 . S
C3203 C3204 1.397 . S
C3203 C3208 1.363 . S
C3204 H3181 0.950 . S
C3204 C3203 1.397 . S
C3204 C3205 1.334 . S
C3205 H3182 0.950 . S
C3205 C3204 1.334 . S
C3205 C3206 1.287 . S
C3206 C3205 1.287 . S
C3206 C3207 1.524 . S
C3206 H3225 0.913 . S
C3207 H3183 0.950 . S
C3207 C3206 1.524 . S
C3207 C3208 1.415 . S
C3208 H3184 0.950 . S
C3208 C3203 1.363 . S
C3208 C3207 1.415 . S
C3209 H3185 0.951 . S
C3209 C3210 1.366 . S
C3209 C3211 1.388 . S
C3210 C3209 1.366 . S
C3210 C3214 1.385 . S
C3211 H3186 0.951 . S
C3211 C3209 1.388 . S
C3211 C3212 1.366 . S
C3212 C3211 1.366 . S
C3212 C3213 1.414 . S
C3212 C3215 1.499 . S
C3213 H3187 0.950 . S
C3213 C3212 1.414 . S
C3213 C3214 1.374 . S
C3214 H3188 0.950 . S
C3214 C3210 1.385 . S
C3214 C3213 1.374 . S
C3215 C3212 1.499 . S
C3215 C3216 1.373 . S
C3215 C3217 1.389 . S
C3216 H3189 0.950 . S
C3216 C3202 1.377 . S
C3216 C3215 1.373 . S
C3217 C3201 1.377 . S
C3217 C3215 1.389 . S
C3217 C3218 1.524 . S
C3218 C3217 1.524 . S
C3218 C3219 1.397 . S
C3218 C3223 1.363 . S
C3219 H3190 0.950 . S
C3219 C3218 1.397 . S
C3219 C3220 1.334 . S
C3220 H3191 0.950 . S
C3220 C3219 1.334 . S
C3220 C3221 1.287 . S
C3221 C3220 1.287 . S
C3221 C3222 1.524 . S
C3221 H3224 0.999 . S
C3222 H3192 0.950 . S
C3222 C3221 1.524 . S
C3222 C3223 1.415 . S
C3223 H3193 0.950 . S
C3223 C3218 1.363 . S
C3223 C3222 1.415 . S
H3224 C3221 0.999 . S
H3225 C3206 0.913 . S
H3226 C3244 0.951 . S
H3227 C3246 0.951 . S
H3228 C3248 0.950 . S
H3229 C3249 0.950 . S
H3230 C3251 0.950 . S
H3231 C3254 0.950 . S
H3232 C3255 0.950 . S
H3233 C3257 0.950 . S
H3234 C3258 0.950 . S
H3235 C3259 0.951 . S
H3236 C3261 0.951 . S
H3237 C3263 0.950 . S
H3238 C3264 0.950 . S
H3239 C3266 0.950 1_545 S
H3240 C3269 0.950 . S
H3241 C3270 0.950 . S
H3242 C3272 0.950 . S
H3243 C3273 0.950 . S
C3244 H3226 0.951 . S
C3244 C3245 1.366 . S
C3244 C3246 1.388 . S
C3245 C3244 1.366 . S
C3245 C3249 1.385 . S
C3246 H3227 0.951 . S
C3246 C3244 1.388 . S
C3246 C3247 1.366 . S
C3247 C3246 1.366 . S
C3247 C3248 1.414 . S
C3247 C3250 1.499 . S
C3248 H3228 0.950 . S
C3248 C3247 1.414 . S
C3248 C3249 1.374 . S
C3249 H3229 0.950 . S
C3249 C3245 1.385 . S
C3249 C3248 1.374 . S
C3250 C3247 1.499 . S
C3250 C3251 1.373 . S
C3250 C3252 1.389 . S
C3251 H3230 0.950 . S
C3251 C3250 1.373 . S
C3251 C3267 1.377 . S
C3252 C3250 1.389 . S
C3252 C3253 1.524 . S
C3252 C3266 1.377 . S
C3253 C3252 1.524 . S
C3253 C3254 1.397 . S
C3253 C3258 1.363 1_565 S
C3254 H3231 0.950 . S
C3254 C3253 1.397 . S
C3254 C3255 1.334 . S
C3255 H3232 0.950 . S
C3255 C3254 1.334 . S
C3255 C3256 1.287 1_565 S
C3256 C3255 1.287 1_545 S
C3256 C3257 1.524 . S
C3256 H3275 0.913 . S
C3257 H3233 0.950 . S
C3257 C3256 1.524 . S
C3257 C3258 1.415 . S
C3258 H3234 0.950 . S
C3258 C3253 1.363 1_545 S
C3258 C3257 1.415 . S
C3259 H3235 0.951 . S
C3259 C3260 1.366 1_565 S
C3259 C3261 1.388 . S
C3260 C3259 1.366 1_545 S
C3260 C3264 1.385 . S
C3261 H3236 0.951 . S
C3261 C3259 1.388 . S
C3261 C3262 1.366 . S
C3262 C3261 1.366 . S
C3262 C3263 1.414 1_565 S
C3262 C3265 1.499 . S
C3263 H3237 0.950 . S
C3263 C3262 1.414 1_545 S
C3263 C3264 1.374 . S
C3264 H3238 0.950 . S
C3264 C3260 1.385 . S
C3264 C3263 1.374 . S
C3265 C3262 1.499 . S
C3265 C3266 1.373 . S
C3265 C3267 1.389 . S
C3266 H3239 0.950 1_565 S
C3266 C3252 1.377 . S
C3266 C3265 1.373 . S
C3267 C3251 1.377 . S
C3267 C3265 1.389 . S
C3267 C3268 1.524 . S
C3268 C3267 1.524 . S
C3268 C3269 1.397 . S
C3268 C3273 1.363 . S
C3269 H3240 0.950 . S
C3269 C3268 1.397 . S
C3269 C3270 1.334 . S
C3270 H3241 0.950 . S
C3270 C3269 1.334 . S
C3270 C3271 1.287 . S
C3271 C3270 1.287 . S
C3271 C3272 1.524 . S
C3271 H3274 0.999 . S
C3272 H3242 0.950 . S
C3272 C3271 1.524 . S
C3272 C3273 1.415 . S
C3273 H3243 0.950 . S
C3273 C3268 1.363 . S
C3273 C3272 1.415 . S
H3274 C3271 0.999 . S
H3275 C3256 0.913 . S
H3276 C3294 0.951 . S
H3277 C3296 0.951 . S
H3278 C3298 0.950 . S
H3279 C3299 0.950 . S
H3280 C3301 0.950 . S
H3281 C3304 0.950 . S
H3282 C3305 0.950 . S
H3283 C3307 0.950 . S
H3284 C3308 0.950 . S
H3285 C3309 0.951 . S
H3286 C3311 0.951 . S
H3287 C3313 0.950 . S
H3288 C3314 0.950 . S
H3289 C3316 0.950 . S
H3290 C3319 0.950 . S
H3291 C3320 0.950 . S
H3292 C3322 0.950 . S
H3293 C3323 0.950 . S
C3294 H3276 0.951 . S
C3294 C3295 1.366 . S
C3294 C3296 1.388 . S
C3295 C3294 1.366 . S
C3295 C3299 1.385 . S
C3296 H3277 0.951 . S
C3296 C3294 1.388 . S
C3296 C3297 1.366 . S
C3297 C3296 1.366 . S
C3297 C3298 1.414 . S
C3297 C3300 1.499 . S
C3298 H3278 0.950 . S
C3298 C3297 1.414 . S
C3298 C3299 1.374 . S
C3299 H3279 0.950 . S
C3299 C3295 1.385 . S
C3299 C3298 1.374 . S
C3300 C3297 1.499 . S
C3300 C3301 1.373 . S
C3300 C3302 1.389 . S
C3301 H3280 0.950 . S
C3301 C3300 1.373 . S
C3301 C3317 1.377 . S
C3302 C3300 1.389 . S
C3302 C3303 1.524 . S
C3302 C3316 1.377 . S
C3303 C3302 1.524 . S
C3303 C3304 1.397 . S
C3303 C3308 1.363 . S
C3304 H3281 0.950 . S
C3304 C3303 1.397 . S
C3304 C3305 1.334 . S
C3305 H3282 0.950 . S
C3305 C3304 1.334 . S
C3305 C3306 1.287 . S
C3306 C3305 1.287 . S
C3306 C3307 1.524 . S
C3306 H3325 0.913 . S
C3307 H3283 0.950 . S
C3307 C3306 1.524 . S
C3307 C3308 1.415 . S
C3308 H3284 0.950 . S
C3308 C3303 1.363 . S
C3308 C3307 1.415 . S
C3309 H3285 0.951 . S
C3309 C3310 1.366 . S
C3309 C3311 1.388 . S
C3310 C3309 1.366 . S
C3310 C3314 1.385 . S
C3311 H3286 0.951 . S
C3311 C3309 1.388 . S
C3311 C3312 1.366 . S
C3312 C3311 1.366 . S
C3312 C3313 1.414 . S
C3312 C3315 1.499 . S
C3313 H3287 0.950 . S
C3313 C3312 1.414 . S
C3313 C3314 1.374 . S
C3314 H3288 0.950 . S
C3314 C3310 1.385 . S
C3314 C3313 1.374 . S
C3315 C3312 1.499 . S
C3315 C3316 1.373 . S
C3315 C3317 1.389 . S
C3316 H3289 0.950 . S
C3316 C3302 1.377 . S
C3316 C3315 1.373 . S
C3317 C3301 1.377 . S
C3317 C3315 1.389 . S
C3317 C3318 1.524 . S
C3318 C3317 1.524 . S
C3318 C3319 1.397 . S
C3318 C3323 1.363 . S
C3319 H3290 0.950 . S
C3319 C3318 1.397 . S
C3319 C3320 1.334 . S
C3320 H3291 0.950 . S
C3320 C3319 1.334 . S
C3320 C3321 1.287 . S
C3321 C3320 1.287 . S
C3321 C3322 1.524 . S
C3321 H3324 0.999 . S
C3322 H3292 0.950 . S
C3322 C3321 1.524 . S
C3322 C3323 1.415 . S
C3323 H3293 0.950 . S
C3323 C3318 1.363 . S
C3323 C3322 1.415 . S
H3324 C3321 0.999 . S
H3325 C3306 0.913 . S
H3326 C3344 0.951 . S
H3327 C3346 0.951 . S
H3328 C3348 0.950 . S
H3329 C3349 0.950 . S
H3330 C3351 0.950 . S
H3331 C3354 0.950 . S
H3332 C3355 0.950 . S
H3333 C3357 0.950 . S
H3334 C3358 0.950 . S
H3335 C3359 0.951 . S
H3336 C3361 0.951 . S
H3337 C3363 0.950 . S
H3338 C3364 0.950 . S
H3339 C3366 0.950 . S
H3340 C3369 0.950 . S
H3341 C3370 0.950 . S
H3342 C3372 0.950 . S
H3343 C3373 0.950 . S
C3344 H3326 0.951 . S
C3344 C3345 1.366 . S
C3344 C3346 1.388 . S
C3345 C3344 1.366 . S
C3345 C3349 1.385 . S
C3346 H3327 0.951 . S
C3346 C3344 1.388 . S
C3346 C3347 1.366 . S
C3347 C3346 1.366 . S
C3347 C3348 1.414 . S
C3347 C3350 1.499 . S
C3348 H3328 0.950 . S
C3348 C3347 1.414 . S
C3348 C3349 1.374 . S
C3349 H3329 0.950 . S
C3349 C3345 1.385 . S
C3349 C3348 1.374 . S
C3350 C3347 1.499 . S
C3350 C3351 1.373 . S
C3350 C3352 1.389 . S
C3351 H3330 0.950 . S
C3351 C3350 1.373 . S
C3351 C3367 1.377 . S
C3352 C3350 1.389 . S
C3352 C3353 1.524 . S
C3352 C3366 1.377 . S
C3353 C3352 1.524 . S
C3353 C3354 1.397 . S
C3353 C3358 1.363 . S
C3354 H3331 0.950 . S
C3354 C3353 1.397 . S
C3354 C3355 1.334 . S
C3355 H3332 0.950 . S
C3355 C3354 1.334 . S
C3355 C3356 1.287 . S
C3356 C3355 1.287 . S
C3356 C3357 1.524 . S
C3356 H3375 0.913 . S
C3357 H3333 0.950 . S
C3357 C3356 1.524 . S
C3357 C3358 1.415 . S
C3358 H3334 0.950 . S
C3358 C3353 1.363 . S
C3358 C3357 1.415 . S
C3359 H3335 0.951 . S
C3359 C3360 1.366 . S
C3359 C3361 1.388 . S
C3360 C3359 1.366 . S
C3360 C3364 1.385 . S
C3361 H3336 0.951 . S
C3361 C3359 1.388 . S
C3361 C3362 1.366 . S
C3362 C3361 1.366 . S
C3362 C3363 1.414 . S
C3362 C3365 1.499 . S
C3363 H3337 0.950 . S
C3363 C3362 1.414 . S
C3363 C3364 1.374 . S
C3364 H3338 0.950 . S
C3364 C3360 1.385 . S
C3364 C3363 1.374 . S
C3365 C3362 1.499 . S
C3365 C3366 1.373 . S
C3365 C3367 1.389 . S
C3366 H3339 0.950 . S
C3366 C3352 1.377 . S
C3366 C3365 1.373 . S
C3367 C3351 1.377 . S
C3367 C3365 1.389 . S
C3367 C3368 1.524 . S
C3368 C3367 1.524 . S
C3368 C3369 1.397 . S
C3368 C3373 1.363 . S
C3369 H3340 0.950 . S
C3369 C3368 1.397 . S
C3369 C3370 1.334 . S
C3370 H3341 0.950 . S
C3370 C3369 1.334 . S
C3370 C3371 1.287 . S
C3371 C3370 1.287 . S
C3371 C3372 1.524 . S
C3371 H3374 0.999 . S
C3372 H3342 0.950 . S
C3372 C3371 1.524 . S
C3372 C3373 1.415 . S
C3373 H3343 0.950 . S
C3373 C3368 1.363 . S
C3373 C3372 1.415 . S
H3374 C3371 0.999 . S
H3375 C3356 0.913 . S
H3376 C3394 0.951 . S
H3377 C3396 0.951 . S
H3378 C3398 0.950 . S
H3379 C3399 0.950 . S
H3380 C3401 0.950 . S
H3381 C3404 0.950 . S
H3382 C3405 0.950 . S
H3383 C3407 0.950 . S
H3384 C3408 0.950 . S
H3385 C3409 0.951 . S
H3386 C3411 0.951 . S
H3387 C3413 0.950 . S
H3388 C3414 0.950 . S
H3389 C3416 0.950 . S
H3390 C3419 0.950 . S
H3391 C3420 0.950 . S
H3392 C3422 0.950 . S
H3393 C3423 0.950 . S
C3394 H3376 0.951 . S
C3394 C3395 1.366 . S
C3394 C3396 1.388 . S
C3395 C3394 1.366 . S
C3395 C3399 1.385 . S
C3396 H3377 0.951 . S
C3396 C3394 1.388 . S
C3396 C3397 1.366 . S
C3397 C3396 1.366 . S
C3397 C3398 1.414 . S
C3397 C3400 1.499 . S
C3398 H3378 0.950 . S
C3398 C3397 1.414 . S
C3398 C3399 1.374 . S
C3399 H3379 0.950 . S
C3399 C3395 1.385 . S
C3399 C3398 1.374 . S
C3400 C3397 1.499 . S
C3400 C3401 1.373 . S
C3400 C3402 1.389 . S
C3401 H3380 0.950 . S
C3401 C3400 1.373 . S
C3401 C3417 1.377 . S
C3402 C3400 1.389 . S
C3402 C3403 1.524 . S
C3402 C3416 1.377 . S
C3403 C3402 1.524 . S
C3403 C3404 1.397 . S
C3403 C3408 1.363 . S
C3404 H3381 0.950 . S
C3404 C3403 1.397 . S
C3404 C3405 1.334 . S
C3405 H3382 0.950 . S
C3405 C3404 1.334 . S
C3405 C3406 1.287 . S
C3406 C3405 1.287 . S
C3406 C3407 1.524 . S
C3406 H3425 0.913 . S
C3407 H3383 0.950 . S
C3407 C3406 1.524 . S
C3407 C3408 1.415 . S
C3408 H3384 0.950 . S
C3408 C3403 1.363 . S
C3408 C3407 1.415 . S
C3409 H3385 0.951 . S
C3409 C3410 1.366 . S
C3409 C3411 1.388 . S
C3410 C3409 1.366 . S
C3410 C3414 1.385 . S
C3411 H3386 0.951 . S
C3411 C3409 1.388 . S
C3411 C3412 1.366 . S
C3412 C3411 1.366 . S
C3412 C3413 1.414 . S
C3412 C3415 1.499 . S
C3413 H3387 0.950 . S
C3413 C3412 1.414 . S
C3413 C3414 1.374 . S
C3414 H3388 0.950 . S
C3414 C3410 1.385 . S
C3414 C3413 1.374 . S
C3415 C3412 1.499 . S
C3415 C3416 1.373 . S
C3415 C3417 1.389 . S
C3416 H3389 0.950 . S
C3416 C3402 1.377 . S
C3416 C3415 1.373 . S
C3417 C3401 1.377 . S
C3417 C3415 1.389 . S
C3417 C3418 1.524 . S
C3418 C3417 1.524 . S
C3418 C3419 1.397 . S
C3418 C3423 1.363 . S
C3419 H3390 0.950 . S
C3419 C3418 1.397 . S
C3419 C3420 1.334 . S
C3420 H3391 0.950 . S
C3420 C3419 1.334 . S
C3420 C3421 1.287 . S
C3421 C3420 1.287 . S
C3421 C3422 1.524 . S
C3421 H3424 0.999 . S
C3422 H3392 0.950 . S
C3422 C3421 1.524 . S
C3422 C3423 1.415 . S
C3423 H3393 0.950 . S
C3423 C3418 1.363 . S
C3423 C3422 1.415 . S
H3424 C3421 0.999 . S
H3425 C3406 0.913 . S
H3426 C3444 0.951 . S
H3427 C3446 0.951 . S
H3428 C3448 0.950 . S
H3429 C3449 0.950 . S
H3430 C3451 0.950 . S
H3431 C3454 0.950 . S
H3432 C3455 0.950 . S
H3433 C3457 0.950 . S
H3434 C3458 0.950 . S
H3435 C3459 0.951 . S
H3436 C3461 0.951 . S
H3437 C3463 0.950 . S
H3438 C3464 0.950 . S
H3439 C3466 0.950 . S
H3440 C3469 0.950 . S
H3441 C3470 0.950 . S
H3442 C3472 0.950 . S
H3443 C3473 0.950 . S
C3444 H3426 0.951 . S
C3444 C3445 1.366 . S
C3444 C3446 1.388 . S
C3445 C3444 1.366 . S
C3445 C3449 1.385 . S
C3446 H3427 0.951 . S
C3446 C3444 1.388 . S
C3446 C3447 1.366 . S
C3447 C3446 1.366 . S
C3447 C3448 1.414 . S
C3447 C3450 1.499 . S
C3448 H3428 0.950 . S
C3448 C3447 1.414 . S
C3448 C3449 1.374 . S
C3449 H3429 0.950 . S
C3449 C3445 1.385 . S
C3449 C3448 1.374 . S
C3450 C3447 1.499 . S
C3450 C3451 1.373 . S
C3450 C3452 1.389 . S
C3451 H3430 0.950 . S
C3451 C3450 1.373 . S
C3451 C3467 1.377 . S
C3452 C3450 1.389 . S
C3452 C3453 1.524 . S
C3452 C3466 1.377 . S
C3453 C3452 1.524 . S
C3453 C3454 1.397 . S
C3453 C3458 1.363 . S
C3454 H3431 0.950 . S
C3454 C3453 1.397 . S
C3454 C3455 1.334 . S
C3455 H3432 0.950 . S
C3455 C3454 1.334 . S
C3455 C3456 1.287 . S
C3456 C3455 1.287 . S
C3456 C3457 1.524 . S
C3456 H3475 0.913 . S
C3457 H3433 0.950 . S
C3457 C3456 1.524 . S
C3457 C3458 1.415 . S
C3458 H3434 0.950 . S
C3458 C3453 1.363 . S
C3458 C3457 1.415 . S
C3459 H3435 0.951 . S
C3459 C3460 1.366 . S
C3459 C3461 1.388 . S
C3460 C3459 1.366 . S
C3460 C3464 1.385 . S
C3461 H3436 0.951 . S
C3461 C3459 1.388 . S
C3461 C3462 1.366 . S
C3462 C3461 1.366 . S
C3462 C3463 1.414 . S
C3462 C3465 1.499 . S
C3463 H3437 0.950 . S
C3463 C3462 1.414 . S
C3463 C3464 1.374 . S
C3464 H3438 0.950 . S
C3464 C3460 1.385 . S
C3464 C3463 1.374 . S
C3465 C3462 1.499 . S
C3465 C3466 1.373 . S
C3465 C3467 1.389 . S
C3466 H3439 0.950 . S
C3466 C3452 1.377 . S
C3466 C3465 1.373 . S
C3467 C3451 1.377 . S
C3467 C3465 1.389 . S
C3467 C3468 1.524 . S
C3468 C3467 1.524 . S
C3468 C3469 1.397 . S
C3468 C3473 1.363 . S
C3469 H3440 0.950 . S
C3469 C3468 1.397 . S
C3469 C3470 1.334 . S
C3470 H3441 0.950 . S
C3470 C3469 1.334 . S
C3470 C3471 1.287 . S
C3471 C3470 1.287 . S
C3471 C3472 1.524 . S
C3471 H3474 0.999 . S
C3472 H3442 0.950 . S
C3472 C3471 1.524 . S
C3472 C3473 1.415 . S
C3473 H3443 0.950 . S
C3473 C3468 1.363 . S
C3473 C3472 1.415 . S
H3474 C3471 0.999 . S
H3475 C3456 0.913 . S
H3476 C3494 0.951 . S
H3477 C3496 0.951 . S
H3478 C3498 0.950 . S
H3479 C3499 0.950 . S
H3480 C3501 0.950 . S
H3481 C3504 0.950 . S
H3482 C3505 0.950 . S
H3483 C3507 0.948 1_455 S
H3484 C3508 0.950 . S
H3485 C3509 0.951 . S
H3486 C3511 0.951 . S
H3487 C3513 0.950 . S
H3488 C3514 0.950 . S
H3489 C3516 0.910 1_554 S
H3490 C3519 0.950 . S
H3491 C3520 0.950 . S
H3492 C3522 0.950 . S
H3493 C3523 0.950 . S
C3494 H3476 0.951 . S
C3494 C3495 1.366 . S
C3494 C3496 1.388 . S
C3495 C3494 1.366 . S
C3495 C3499 1.385 . S
C3496 H3477 0.951 . S
C3496 C3494 1.388 . S
C3496 C3497 1.366 . S
C3497 C3496 1.366 . S
C3497 C3498 1.414 . S
C3497 C3500 1.499 . S
C3498 H3478 0.950 . S
C3498 C3497 1.414 . S
C3498 C3499 1.374 . S
C3499 H3479 0.950 . S
C3499 C3495 1.385 . S
C3499 C3498 1.374 . S
C3500 C3497 1.499 . S
C3500 C3501 1.373 . S
C3500 C3502 1.389 . S
C3501 H3480 0.950 . S
C3501 C3500 1.373 . S
C3501 C3517 1.377 . S
C3502 C3500 1.389 . S
C3502 C3503 1.524 . S
C3502 C3516 1.377 . S
C3503 C3502 1.524 . S
C3503 C3504 1.397 1_455 S
C3503 C3508 1.363 1_556 S
C3504 H3481 0.950 . S
C3504 C3503 1.397 1_655 S
C3504 C3505 1.334 . S
C3505 H3482 0.950 . S
C3505 C3504 1.334 . S
C3505 C3506 1.287 1_556 S
C3506 C3505 1.287 1_554 S
C3506 C3507 1.532 . S
C3506 H3525 0.913 . S
C3507 H3483 0.948 1_655 S
C3507 C3506 1.532 . S
C3507 C3508 1.408 1_655 S
C3508 H3484 0.950 . S
C3508 C3503 1.363 1_554 S
C3508 C3507 1.408 1_455 S
C3509 H3485 0.951 . S
C3509 C3510 1.366 1_556 S
C3509 C3511 1.388 . S
C3510 C3509 1.366 1_554 S
C3510 C3514 1.385 . S
C3511 H3486 0.951 . S
C3511 C3509 1.388 . S
C3511 C3512 1.366 . S
C3512 C3511 1.366 . S
C3512 C3513 1.414 1_556 S
C3512 C3515 1.499 . S
C3513 H3487 0.950 . S
C3513 C3512 1.414 1_554 S
C3513 C3514 1.374 . S
C3514 H3488 0.950 . S
C3514 C3510 1.385 . S
C3514 C3513 1.374 . S
C3515 C3512 1.499 . S
C3515 C3516 1.373 . S
C3515 C3517 1.389 . S
C3516 H3489 0.910 1_556 S
C3516 C3502 1.377 . S
C3516 C3515 1.373 . S
C3517 C3501 1.377 . S
C3517 C3515 1.389 . S
C3517 C3518 1.524 . S
C3518 C3517 1.524 . S
C3518 C3519 1.397 . S
C3518 C3523 1.363 . S
C3519 H3490 0.950 . S
C3519 C3518 1.397 . S
C3519 C3520 1.334 . S
C3520 H3491 0.950 . S
C3520 C3519 1.334 . S
C3520 C3521 1.287 . S
C3521 C3520 1.287 . S
C3521 C3522 1.524 . S
C3521 H3524 0.999 . S
C3522 H3492 0.950 . S
C3522 C3521 1.524 . S
C3522 C3523 1.415 . S
C3523 H3493 0.950 . S
C3523 C3518 1.363 . S
C3523 C3522 1.415 . S
H3524 C3521 0.999 . S
H3525 C3506 0.913 . S
H3526 C3544 0.951 . S
H3527 C3546 0.951 . S
H3528 C3548 0.961 1_455 S
H3529 C3549 0.950 . S
H3530 C3551 0.950 . S
H3531 C3554 0.950 . S
H3532 C3555 0.950 . S
H3533 C3557 0.950 . S
H3534 C3558 0.950 . S
H3535 C3559 0.951 . S
H3536 C3561 0.951 . S
H3537 C3563 0.950 . S
H3538 C3564 0.950 . S
H3539 C3566 0.950 . S
H3540 C3569 0.950 . S
H3541 C3570 0.950 . S
H3542 C3572 0.950 . S
H3543 C3573 0.950 . S
C3544 H3526 0.951 . S
C3544 C3545 1.366 1_655 S
C3544 C3546 1.388 . S
C3545 C3544 1.366 1_455 S
C3545 C3549 1.385 . S
C3546 H3527 0.951 . S
C3546 C3544 1.388 . S
C3546 C3547 1.366 . S
C3547 C3546 1.366 . S
C3547 C3548 1.449 . S
C3547 C3550 1.499 . S
C3548 H3528 0.961 1_655 S
C3548 C3547 1.449 . S
C3548 C3549 1.331 1_655 S
C3549 H3529 0.950 . S
C3549 C3545 1.385 . S
C3549 C3548 1.331 1_455 S
C3550 C3547 1.499 . S
C3550 C3551 1.373 . S
C3550 C3552 1.389 . S
C3551 H3530 0.950 . S
C3551 C3550 1.373 . S
C3551 C3567 1.377 . S
C3552 C3550 1.389 . S
C3552 C3553 1.524 . S
C3552 C3566 1.377 . S
C3553 C3552 1.524 . S
C3553 C3554 1.397 . S
C3553 C3558 1.363 . S
C3554 H3531 0.950 . S
C3554 C3553 1.397 . S
C3554 C3555 1.334 . S
C3555 H3532 0.950 . S
C3555 C3554 1.334 . S
C3555 C3556 1.287 . S
C3556 C3555 1.287 . S
C3556 C3557 1.524 . S
C3556 H3575 0.913 . S
C3557 H3533 0.950 . S
C3557 C3556 1.524 . S
C3557 C3558 1.415 . S
C3558 H3534 0.950 . S
C3558 C3553 1.363 . S
C3558 C3557 1.415 . S
C3559 H3535 0.951 . S
C3559 C3560 1.366 . S
C3559 C3561 1.388 . S
C3560 C3559 1.366 . S
C3560 C3564 1.385 . S
C3561 H3536 0.951 . S
C3561 C3559 1.388 . S
C3561 C3562 1.366 . S
C3562 C3561 1.366 . S
C3562 C3563 1.414 . S
C3562 C3565 1.499 . S
C3563 H3537 0.950 . S
C3563 C3562 1.414 . S
C3563 C3564 1.374 . S
C3564 H3538 0.950 . S
C3564 C3560 1.385 . S
C3564 C3563 1.374 . S
C3565 C3562 1.499 . S
C3565 C3566 1.373 . S
C3565 C3567 1.389 . S
C3566 H3539 0.950 . S
C3566 C3552 1.377 . S
C3566 C3565 1.373 . S
C3567 C3551 1.377 . S
C3567 C3565 1.389 . S
C3567 C3568 1.524 . S
C3568 C3567 1.524 . S
C3568 C3569 1.397 . S
C3568 C3573 1.363 . S
C3569 H3540 0.950 . S
C3569 C3568 1.397 . S
C3569 C3570 1.334 . S
C3570 H3541 0.950 . S
C3570 C3569 1.334 . S
C3570 C3571 1.287 . S
C3571 C3570 1.287 . S
C3571 C3572 1.524 . S
C3571 H3574 0.999 . S
C3572 H3542 0.950 . S
C3572 C3571 1.524 . S
C3572 C3573 1.415 . S
C3573 H3543 0.950 . S
C3573 C3568 1.363 . S
C3573 C3572 1.415 . S
H3574 C3571 0.999 . S
H3575 C3556 0.913 . S
H3576 C3594 0.951 . S
H3577 C3596 0.951 . S
H3578 C3598 0.950 . S
H3579 C3599 0.950 . S
H3580 C3601 0.950 . S
H3581 C3604 0.950 . S
H3582 C3605 0.950 . S
H3583 C3607 0.950 . S
H3584 C3608 0.950 . S
H3585 C3609 0.951 . S
H3586 C3611 0.951 . S
H3587 C3613 0.950 . S
H3588 C3614 0.950 . S
H3589 C3616 0.950 . S
H3590 C3619 0.950 . S
H3591 C3620 0.950 . S
H3592 C3622 0.950 . S
H3593 C3623 0.950 . S
C3594 H3576 0.951 . S
C3594 C3595 1.366 . S
C3594 C3596 1.388 . S
C3595 C3594 1.366 . S
C3595 C3599 1.385 . S
C3596 H3577 0.951 . S
C3596 C3594 1.388 . S
C3596 C3597 1.366 . S
C3597 C3596 1.366 . S
C3597 C3598 1.414 . S
C3597 C3600 1.499 . S
C3598 H3578 0.950 . S
C3598 C3597 1.414 . S
C3598 C3599 1.374 . S
C3599 H3579 0.950 . S
C3599 C3595 1.385 . S
C3599 C3598 1.374 . S
C3600 C3597 1.499 . S
C3600 C3601 1.373 . S
C3600 C3602 1.389 . S
C3601 H3580 0.950 . S
C3601 C3600 1.373 . S
C3601 C3617 1.377 . S
C3602 C3600 1.389 . S
C3602 C3603 1.524 . S
C3602 C3616 1.377 . S
C3603 C3602 1.524 . S
C3603 C3604 1.397 . S
C3603 C3608 1.363 . S
C3604 H3581 0.950 . S
C3604 C3603 1.397 . S
C3604 C3605 1.334 . S
C3605 H3582 0.950 . S
C3605 C3604 1.334 . S
C3605 C3606 1.287 . S
C3606 C3605 1.287 . S
C3606 C3607 1.524 . S
C3606 H3625 0.913 . S
C3607 H3583 0.950 . S
C3607 C3606 1.524 . S
C3607 C3608 1.415 . S
C3608 H3584 0.950 . S
C3608 C3603 1.363 . S
C3608 C3607 1.415 . S
C3609 H3585 0.951 . S
C3609 C3610 1.366 . S
C3609 C3611 1.388 . S
C3610 C3609 1.366 . S
C3610 C3614 1.385 . S
C3611 H3586 0.951 . S
C3611 C3609 1.388 . S
C3611 C3612 1.366 . S
C3612 C3611 1.366 . S
C3612 C3613 1.414 . S
C3612 C3615 1.499 . S
C3613 H3587 0.950 . S
C3613 C3612 1.414 . S
C3613 C3614 1.374 . S
C3614 H3588 0.950 . S
C3614 C3610 1.385 . S
C3614 C3613 1.374 . S
C3615 C3612 1.499 . S
C3615 C3616 1.373 . S
C3615 C3617 1.389 . S
C3616 H3589 0.950 . S
C3616 C3602 1.377 . S
C3616 C3615 1.373 . S
C3617 C3601 1.377 . S
C3617 C3615 1.389 . S
C3617 C3618 1.524 . S
C3618 C3617 1.524 . S
C3618 C3619 1.397 . S
C3618 C3623 1.363 . S
C3619 H3590 0.950 . S
C3619 C3618 1.397 . S
C3619 C3620 1.334 . S
C3620 H3591 0.950 . S
C3620 C3619 1.334 . S
C3620 C3621 1.287 . S
C3621 C3620 1.287 . S
C3621 C3622 1.524 . S
C3621 H3624 0.999 1_554 S
C3622 H3592 0.950 . S
C3622 C3621 1.524 . S
C3622 C3623 1.415 . S
C3623 H3593 0.950 . S
C3623 C3618 1.363 . S
C3623 C3622 1.415 . S
H3624 C3621 0.999 1_556 S
H3625 C3606 0.913 . S
H3626 C3644 0.951 . S
H3627 C3646 0.951 . S
H3628 C3648 0.950 . S
H3629 C3649 0.950 . S
H3630 C3651 0.950 . S
H3631 C3654 0.950 . S
H3632 C3655 0.950 . S
H3633 C3657 0.950 . S
H3634 C3658 0.950 . S
H3635 C3659 0.951 . S
H3636 C3661 0.951 . S
H3637 C3663 0.950 . S
H3638 C3664 0.950 . S
H3639 C3666 0.950 . S
H3640 C3669 0.950 . S
H3641 C3670 0.950 . S
H3642 C3672 0.950 . S
H3643 C3673 0.950 . S
C3644 H3626 0.951 . S
C3644 C3645 1.366 . S
C3644 C3646 1.388 . S
C3645 C3644 1.366 . S
C3645 C3649 1.385 . S
C3646 H3627 0.951 . S
C3646 C3644 1.388 . S
C3646 C3647 1.366 . S
C3647 C3646 1.366 . S
C3647 C3648 1.414 . S
C3647 C3650 1.499 . S
C3648 H3628 0.950 . S
C3648 C3647 1.414 . S
C3648 C3649 1.374 . S
C3649 H3629 0.950 . S
C3649 C3645 1.385 . S
C3649 C3648 1.374 . S
C3650 C3647 1.499 . S
C3650 C3651 1.373 . S
C3650 C3652 1.389 . S
C3651 H3630 0.950 . S
C3651 C3650 1.373 . S
C3651 C3667 1.377 . S
C3652 C3650 1.389 . S
C3652 C3653 1.524 . S
C3652 C3666 1.377 . S
C3653 C3652 1.524 . S
C3653 C3654 1.397 . S
C3653 C3658 1.363 . S
C3654 H3631 0.950 . S
C3654 C3653 1.397 . S
C3654 C3655 1.334 . S
C3655 H3632 0.950 . S
C3655 C3654 1.334 . S
C3655 C3656 1.287 . S
C3656 C3655 1.287 . S
C3656 C3657 1.524 . S
C3656 H3675 0.913 . S
C3657 H3633 0.950 . S
C3657 C3656 1.524 . S
C3657 C3658 1.415 . S
C3658 H3634 0.950 . S
C3658 C3653 1.363 . S
C3658 C3657 1.415 . S
C3659 H3635 0.951 . S
C3659 C3660 1.366 . S
C3659 C3661 1.388 . S
C3660 C3659 1.366 . S
C3660 C3664 1.385 . S
C3661 H3636 0.951 . S
C3661 C3659 1.388 . S
C3661 C3662 1.366 . S
C3662 C3661 1.366 . S
C3662 C3663 1.414 . S
C3662 C3665 1.499 . S
C3663 H3637 0.950 . S
C3663 C3662 1.414 . S
C3663 C3664 1.374 . S
C3664 H3638 0.950 . S
C3664 C3660 1.385 . S
C3664 C3663 1.374 . S
C3665 C3662 1.499 . S
C3665 C3666 1.373 . S
C3665 C3667 1.389 . S
C3666 H3639 0.950 . S
C3666 C3652 1.377 . S
C3666 C3665 1.373 . S
C3667 C3651 1.377 . S
C3667 C3665 1.389 . S
C3667 C3668 1.524 . S
C3668 C3667 1.524 . S
C3668 C3669 1.397 . S
C3668 C3673 1.363 . S
C3669 H3640 0.950 . S
C3669 C3668 1.397 . S
C3669 C3670 1.334 . S
C3670 H3641 0.950 . S
C3670 C3669 1.334 . S
C3670 C3671 1.287 . S
C3671 C3670 1.287 . S
C3671 C3672 1.524 . S
C3671 H3674 0.999 . S
C3672 H3642 0.950 . S
C3672 C3671 1.524 . S
C3672 C3673 1.415 . S
C3673 H3643 0.950 . S
C3673 C3668 1.363 . S
C3673 C3672 1.415 . S
H3674 C3671 0.999 . S
H3675 C3656 0.913 . S
H3676 C3694 0.951 . S
H3677 C3696 0.951 . S
H3678 C3698 0.950 . S
H3679 C3699 0.950 . S
H3680 C3701 0.950 . S
H3681 C3704 0.950 . S
H3682 C3705 0.950 . S
H3683 C3707 0.950 . S
H3684 C3708 0.950 . S
H3685 C3709 0.951 . S
H3686 C3711 0.951 . S
H3687 C3713 0.950 . S
H3688 C3714 0.950 . S
H3689 C3716 0.950 . S
H3690 C3719 0.950 . S
H3691 C3720 0.950 . S
H3692 C3722 0.950 . S
H3693 C3723 0.950 . S
C3694 H3676 0.951 . S
C3694 C3695 1.366 . S
C3694 C3696 1.388 . S
C3695 C3694 1.366 . S
C3695 C3699 1.385 . S
C3696 H3677 0.951 . S
C3696 C3694 1.388 . S
C3696 C3697 1.366 . S
C3697 C3696 1.366 . S
C3697 C3698 1.414 . S
C3697 C3700 1.499 . S
C3698 H3678 0.950 . S
C3698 C3697 1.414 . S
C3698 C3699 1.374 . S
C3699 H3679 0.950 . S
C3699 C3695 1.385 . S
C3699 C3698 1.374 . S
C3700 C3697 1.499 . S
C3700 C3701 1.373 . S
C3700 C3702 1.389 . S
C3701 H3680 0.950 . S
C3701 C3700 1.373 . S
C3701 C3717 1.377 . S
C3702 C3700 1.389 . S
C3702 C3703 1.524 . S
C3702 C3716 1.377 . S
C3703 C3702 1.524 . S
C3703 C3704 1.397 . S
C3703 C3708 1.363 . S
C3704 H3681 0.950 . S
C3704 C3703 1.397 . S
C3704 C3705 1.334 . S
C3705 H3682 0.950 . S
C3705 C3704 1.334 . S
C3705 C3706 1.287 . S
C3706 C3705 1.287 . S
C3706 C3707 1.524 . S
C3706 H3725 0.913 . S
C3707 H3683 0.950 . S
C3707 C3706 1.524 . S
C3707 C3708 1.415 . S
C3708 H3684 0.950 . S
C3708 C3703 1.363 . S
C3708 C3707 1.415 . S
C3709 H3685 0.951 . S
C3709 C3710 1.366 . S
C3709 C3711 1.388 . S
C3710 C3709 1.366 . S
C3710 C3714 1.385 . S
C3711 H3686 0.951 . S
C3711 C3709 1.388 . S
C3711 C3712 1.366 . S
C3712 C3711 1.366 . S
C3712 C3713 1.414 . S
C3712 C3715 1.499 . S
C3713 H3687 0.950 . S
C3713 C3712 1.414 . S
C3713 C3714 1.374 . S
C3714 H3688 0.950 . S
C3714 C3710 1.385 . S
C3714 C3713 1.374 . S
C3715 C3712 1.499 . S
C3715 C3716 1.373 . S
C3715 C3717 1.389 . S
C3716 H3689 0.950 . S
C3716 C3702 1.377 . S
C3716 C3715 1.373 . S
C3717 C3701 1.377 . S
C3717 C3715 1.389 . S
C3717 C3718 1.524 . S
C3718 C3717 1.524 . S
C3718 C3719 1.397 . S
C3718 C3723 1.363 . S
C3719 H3690 0.950 . S
C3719 C3718 1.397 . S
C3719 C3720 1.334 1_455 S
C3720 H3691 0.950 . S
C3720 C3719 1.334 1_655 S
C3720 C3721 1.287 . S
C3721 C3720 1.287 . S
C3721 C3722 1.524 . S
C3721 H3724 0.999 . S
C3722 H3692 0.950 . S
C3722 C3721 1.524 . S
C3722 C3723 1.415 1_655 S
C3723 H3693 0.950 . S
C3723 C3718 1.363 . S
C3723 C3722 1.415 1_455 S
H3724 C3721 0.999 . S
H3725 C3706 0.913 . S
H3726 C3744 0.951 . S
H3727 C3746 0.951 . S
H3728 C3748 0.950 . S
H3729 C3749 0.950 . S
H3730 C3751 0.950 . S
H3731 C3754 0.950 . S
H3732 C3755 0.950 . S
H3733 C3757 0.950 . S
H3734 C3758 0.950 . S
H3735 C3759 0.951 . S
H3736 C3761 0.951 . S
H3737 C3763 0.950 . S
H3738 C3764 0.950 . S
H3739 C3766 0.950 . S
H3740 C3769 0.950 . S
H3741 C3770 0.950 . S
H3742 C3772 0.950 . S
H3743 C3773 0.950 . S
C3744 H3726 0.951 . S
C3744 C3745 1.366 . S
C3744 C3746 1.388 . S
C3745 C3744 1.366 . S
C3745 C3749 1.385 . S
C3746 H3727 0.951 . S
C3746 C3744 1.388 . S
C3746 C3747 1.366 . S
C3747 C3746 1.366 . S
C3747 C3748 1.414 . S
C3747 C3750 1.499 . S
C3748 H3728 0.950 . S
C3748 C3747 1.414 . S
C3748 C3749 1.374 . S
C3749 H3729 0.950 . S
C3749 C3745 1.385 . S
C3749 C3748 1.374 . S
C3750 C3747 1.499 . S
C3750 C3751 1.373 . S
C3750 C3752 1.389 . S
C3751 H3730 0.950 . S
C3751 C3750 1.373 . S
C3751 C3767 1.377 . S
C3752 C3750 1.389 . S
C3752 C3753 1.524 . S
C3752 C3766 1.377 . S
C3753 C3752 1.524 . S
C3753 C3754 1.397 . S
C3753 C3758 1.363 . S
C3754 H3731 0.950 . S
C3754 C3753 1.397 . S
C3754 C3755 1.334 . S
C3755 H3732 0.950 . S
C3755 C3754 1.334 . S
C3755 C3756 1.287 . S
C3756 C3755 1.287 . S
C3756 C3757 1.524 . S
C3756 H3775 0.913 . S
C3757 H3733 0.950 . S
C3757 C3756 1.524 . S
C3757 C3758 1.415 . S
C3758 H3734 0.950 . S
C3758 C3753 1.363 . S
C3758 C3757 1.415 . S
C3759 H3735 0.951 . S
C3759 C3760 1.366 . S
C3759 C3761 1.388 . S
C3760 C3759 1.366 . S
C3760 C3764 1.385 . S
C3761 H3736 0.951 . S
C3761 C3759 1.388 . S
C3761 C3762 1.366 . S
C3762 C3761 1.366 . S
C3762 C3763 1.414 . S
C3762 C3765 1.499 . S
C3763 H3737 0.950 . S
C3763 C3762 1.414 . S
C3763 C3764 1.374 . S
C3764 H3738 0.950 . S
C3764 C3760 1.385 . S
C3764 C3763 1.374 . S
C3765 C3762 1.499 . S
C3765 C3766 1.373 . S
C3765 C3767 1.389 . S
C3766 H3739 0.950 . S
C3766 C3752 1.377 . S
C3766 C3765 1.373 . S
C3767 C3751 1.377 . S
C3767 C3765 1.389 . S
C3767 C3768 1.524 . S
C3768 C3767 1.524 . S
C3768 C3769 1.397 . S
C3768 C3773 1.363 . S
C3769 H3740 0.950 . S
C3769 C3768 1.397 . S
C3769 C3770 1.334 . S
C3770 H3741 0.950 . S
C3770 C3769 1.334 . S
C3770 C3771 1.287 . S
C3771 C3770 1.287 . S
C3771 C3772 1.524 . S
C3771 H3774 0.999 . S
C3772 H3742 0.950 . S
C3772 C3771 1.524 . S
C3772 C3773 1.415 . S
C3773 H3743 0.950 . S
C3773 C3768 1.363 . S
C3773 C3772 1.415 . S
H3774 C3771 0.999 . S
H3775 C3756 0.913 . S
H3776 C3794 0.951 . S
H3777 C3796 0.951 . S
H3778 C3798 0.950 . S
H3779 C3799 0.950 . S
H3780 C3801 0.950 . S
H3781 C3804 0.950 . S
H3782 C3805 0.950 . S
H3783 C3807 0.950 . S
H3784 C3808 0.950 . S
H3785 C3809 0.951 . S
H3786 C3811 0.951 . S
H3787 C3813 0.950 . S
H3788 C3814 0.950 . S
H3789 C3816 0.950 . S
H3790 C3819 0.950 . S
H3791 C3820 0.950 . S
H3792 C3822 0.950 . S
H3793 C3823 0.950 . S
C3794 H3776 0.951 . S
C3794 C3795 1.366 . S
C3794 C3796 1.388 . S
C3795 C3794 1.366 . S
C3795 C3799 1.385 . S
C3796 H3777 0.951 . S
C3796 C3794 1.388 . S
C3796 C3797 1.366 . S
C3797 C3796 1.366 . S
C3797 C3798 1.414 . S
C3797 C3800 1.499 . S
C3798 H3778 0.950 . S
C3798 C3797 1.414 . S
C3798 C3799 1.374 . S
C3799 H3779 0.950 . S
C3799 C3795 1.385 . S
C3799 C3798 1.374 . S
C3800 C3797 1.499 . S
C3800 C3801 1.373 . S
C3800 C3802 1.389 . S
C3801 H3780 0.950 . S
C3801 C3800 1.373 . S
C3801 C3817 1.377 . S
C3802 C3800 1.389 . S
C3802 C3803 1.524 . S
C3802 C3816 1.377 . S
C3803 C3802 1.524 . S
C3803 C3804 1.397 . S
C3803 C3808 1.363 . S
C3804 H3781 0.950 . S
C3804 C3803 1.397 . S
C3804 C3805 1.334 . S
C3805 H3782 0.950 . S
C3805 C3804 1.334 . S
C3805 C3806 1.287 . S
C3806 C3805 1.287 . S
C3806 C3807 1.524 . S
C3806 H3825 0.913 . S
C3807 H3783 0.950 . S
C3807 C3806 1.524 . S
C3807 C3808 1.415 . S
C3808 H3784 0.950 . S
C3808 C3803 1.363 . S
C3808 C3807 1.415 . S
C3809 H3785 0.951 . S
C3809 C3810 1.366 . S
C3809 C3811 1.388 . S
C3810 C3809 1.366 . S
C3810 C3814 1.385 . S
C3811 H3786 0.951 . S
C3811 C3809 1.388 . S
C3811 C3812 1.366 . S
C3812 C3811 1.366 . S
C3812 C3813 1.414 . S
C3812 C3815 1.499 . S
C3813 H3787 0.950 . S
C3813 C3812 1.414 . S
C3813 C3814 1.374 . S
C3814 H3788 0.950 . S
C3814 C3810 1.385 . S
C3814 C3813 1.374 . S
C3815 C3812 1.499 . S
C3815 C3816 1.373 . S
C3815 C3817 1.389 . S
C3816 H3789 0.950 . S
C3816 C3802 1.377 . S
C3816 C3815 1.373 . S
C3817 C3801 1.377 . S
C3817 C3815 1.389 . S
C3817 C3818 1.524 . S
C3818 C3817 1.524 . S
C3818 C3819 1.397 . S
C3818 C3823 1.363 . S
C3819 H3790 0.950 . S
C3819 C3818 1.397 . S
C3819 C3820 1.334 . S
C3820 H3791 0.950 . S
C3820 C3819 1.334 . S
C3820 C3821 1.287 . S
C3821 C3820 1.287 . S
C3821 C3822 1.524 . S
C3821 H3824 0.999 . S
C3822 H3792 0.950 . S
C3822 C3821 1.524 . S
C3822 C3823 1.415 . S
C3823 H3793 0.950 . S
C3823 C3818 1.363 . S
C3823 C3822 1.415 . S
H3824 C3821 0.999 . S
H3825 C3806 0.913 . S
H3826 C3844 0.951 . S
H3827 C3846 0.951 . S
H3828 C3848 0.950 . S
H3829 C3849 0.950 . S
H3830 C3851 0.950 . S
H3831 C3854 0.950 . S
H3832 C3855 0.950 . S
H3833 C3857 0.950 . S
H3834 C3858 0.950 . S
H3835 C3859 0.951 . S
H3836 C3861 0.951 . S
H3837 C3863 0.950 . S
H3838 C3864 0.950 . S
H3839 C3866 0.950 . S
H3840 C3869 0.950 . S
H3841 C3870 0.950 . S
H3842 C3872 0.950 . S
H3843 C3873 0.950 . S
C3844 H3826 0.951 . S
C3844 C3845 1.366 . S
C3844 C3846 1.388 . S
C3845 C3844 1.366 . S
C3845 C3849 1.385 . S
C3846 H3827 0.951 . S
C3846 C3844 1.388 . S
C3846 C3847 1.366 . S
C3847 C3846 1.366 . S
C3847 C3848 1.414 . S
C3847 C3850 1.499 . S
C3848 H3828 0.950 . S
C3848 C3847 1.414 . S
C3848 C3849 1.374 . S
C3849 H3829 0.950 . S
C3849 C3845 1.385 . S
C3849 C3848 1.374 . S
C3850 C3847 1.499 . S
C3850 C3851 1.373 . S
C3850 C3852 1.389 . S
C3851 H3830 0.950 . S
C3851 C3850 1.373 . S
C3851 C3867 1.377 . S
C3852 C3850 1.389 . S
C3852 C3853 1.524 . S
C3852 C3866 1.377 . S
C3853 C3852 1.524 . S
C3853 C3854 1.397 . S
C3853 C3858 1.363 . S
C3854 H3831 0.950 . S
C3854 C3853 1.397 . S
C3854 C3855 1.334 . S
C3855 H3832 0.950 . S
C3855 C3854 1.334 . S
C3855 C3856 1.287 . S
C3856 C3855 1.287 . S
C3856 C3857 1.524 . S
C3856 H3875 0.913 . S
C3857 H3833 0.950 . S
C3857 C3856 1.524 . S
C3857 C3858 1.415 . S
C3858 H3834 0.950 . S
C3858 C3853 1.363 . S
C3858 C3857 1.415 . S
C3859 H3835 0.951 . S
C3859 C3860 1.366 . S
C3859 C3861 1.388 . S
C3860 C3859 1.366 . S
C3860 C3864 1.385 . S
C3861 H3836 0.951 . S
C3861 C3859 1.388 . S
C3861 C3862 1.366 . S
C3862 C3861 1.366 . S
C3862 C3863 1.414 . S
C3862 C3865 1.499 . S
C3863 H3837 0.950 . S
C3863 C3862 1.414 . S
C3863 C3864 1.374 . S
C3864 H3838 0.950 . S
C3864 C3860 1.385 . S
C3864 C3863 1.374 . S
C3865 C3862 1.499 . S
C3865 C3866 1.373 . S
C3865 C3867 1.389 . S
C3866 H3839 0.950 . S
C3866 C3852 1.377 . S
C3866 C3865 1.373 . S
C3867 C3851 1.377 . S
C3867 C3865 1.389 . S
C3867 C3868 1.524 . S
C3868 C3867 1.524 . S
C3868 C3869 1.397 . S
C3868 C3873 1.363 . S
C3869 H3840 0.950 . S
C3869 C3868 1.397 . S
C3869 C3870 1.334 . S
C3870 H3841 0.950 . S
C3870 C3869 1.334 . S
C3870 C3871 1.287 . S
C3871 C3870 1.287 . S
C3871 C3872 1.524 . S
C3871 H3874 0.999 . S
C3872 H3842 0.950 . S
C3872 C3871 1.524 . S
C3872 C3873 1.415 . S
C3873 H3843 0.950 . S
C3873 C3868 1.363 . S
C3873 C3872 1.415 . S
H3874 C3871 0.999 . S
H3875 C3856 0.913 . S
H3876 C3894 0.951 . S
H3877 C3896 0.951 . S
H3878 C3898 0.950 . S
H3879 C3899 0.950 . S
H3880 C3901 0.950 . S
H3881 C3904 0.950 . S
H3882 C3905 0.950 . S
H3883 C3907 0.950 . S
H3884 C3908 0.950 . S
H3885 C3909 0.951 . S
H3886 C3911 0.951 . S
H3887 C3913 0.950 . S
H3888 C3914 0.950 . S
H3889 C3916 0.950 . S
H3890 C3919 0.950 . S
H3891 C3920 0.950 . S
H3892 C3922 0.950 . S
H3893 C3923 0.950 . S
C3894 H3876 0.951 . S
C3894 C3895 1.366 . S
C3894 C3896 1.388 . S
C3895 C3894 1.366 . S
C3895 C3899 1.385 . S
C3896 H3877 0.951 . S
C3896 C3894 1.388 . S
C3896 C3897 1.366 . S
C3897 C3896 1.366 . S
C3897 C3898 1.414 . S
C3897 C3900 1.499 . S
C3898 H3878 0.950 . S
C3898 C3897 1.414 . S
C3898 C3899 1.374 . S
C3899 H3879 0.950 . S
C3899 C3895 1.385 . S
C3899 C3898 1.374 . S
C3900 C3897 1.499 . S
C3900 C3901 1.373 . S
C3900 C3902 1.389 . S
C3901 H3880 0.950 . S
C3901 C3900 1.373 . S
C3901 C3917 1.377 . S
C3902 C3900 1.389 . S
C3902 C3903 1.524 . S
C3902 C3916 1.377 . S
C3903 C3902 1.524 . S
C3903 C3904 1.397 . S
C3903 C3908 1.363 . S
C3904 H3881 0.950 . S
C3904 C3903 1.397 . S
C3904 C3905 1.334 . S
C3905 H3882 0.950 . S
C3905 C3904 1.334 . S
C3905 C3906 1.287 . S
C3906 C3905 1.287 . S
C3906 C3907 1.524 . S
C3906 H3925 0.913 . S
C3907 H3883 0.950 . S
C3907 C3906 1.524 . S
C3907 C3908 1.415 . S
C3908 H3884 0.950 . S
C3908 C3903 1.363 . S
C3908 C3907 1.415 . S
C3909 H3885 0.951 . S
C3909 C3910 1.366 . S
C3909 C3911 1.388 . S
C3910 C3909 1.366 . S
C3910 C3914 1.385 . S
C3911 H3886 0.951 . S
C3911 C3909 1.388 . S
C3911 C3912 1.366 . S
C3912 C3911 1.366 . S
C3912 C3913 1.414 . S
C3912 C3915 1.499 . S
C3913 H3887 0.950 . S
C3913 C3912 1.414 . S
C3913 C3914 1.374 . S
C3914 H3888 0.950 . S
C3914 C3910 1.385 . S
C3914 C3913 1.374 . S
C3915 C3912 1.499 . S
C3915 C3916 1.373 . S
C3915 C3917 1.389 . S
C3916 H3889 0.950 . S
C3916 C3902 1.377 . S
C3916 C3915 1.373 . S
C3917 C3901 1.377 . S
C3917 C3915 1.389 . S
C3917 C3918 1.524 . S
C3918 C3917 1.524 . S
C3918 C3919 1.397 . S
C3918 C3923 1.363 . S
C3919 H3890 0.950 . S
C3919 C3918 1.397 . S
C3919 C3920 1.334 . S
C3920 H3891 0.950 . S
C3920 C3919 1.334 . S
C3920 C3921 1.287 . S
C3921 C3920 1.287 . S
C3921 C3922 1.524 . S
C3921 H3924 0.999 . S
C3922 H3892 0.950 . S
C3922 C3921 1.524 . S
C3922 C3923 1.415 . S
C3923 H3893 0.950 . S
C3923 C3918 1.363 . S
C3923 C3922 1.415 . S
H3924 C3921 0.999 . S
H3925 C3906 0.913 . S
H3926 C3944 0.951 . S
H3927 C3946 0.951 . S
H3928 C3948 0.950 . S
H3929 C3949 0.950 . S
H3930 C3951 0.950 . S
H3931 C3954 0.950 . S
H3932 C3955 0.950 . S
H3933 C3957 0.950 . S
H3934 C3958 0.950 . S
H3935 C3959 0.951 . S
H3936 C3961 0.951 . S
H3937 C3963 0.950 . S
H3938 C3964 0.950 . S
H3939 C3966 0.950 . S
H3940 C3969 0.950 . S
H3941 C3970 0.950 . S
H3942 C3972 0.950 . S
H3943 C3973 0.950 . S
C3944 H3926 0.951 . S
C3944 C3945 1.366 . S
C3944 C3946 1.388 . S
C3945 C3944 1.366 . S
C3945 C3949 1.385 . S
C3946 H3927 0.951 . S
C3946 C3944 1.388 . S
C3946 C3947 1.366 . S
C3947 C3946 1.366 . S
C3947 C3948 1.414 . S
C3947 C3950 1.499 . S
C3948 H3928 0.950 . S
C3948 C3947 1.414 . S
C3948 C3949 1.374 . S
C3949 H3929 0.950 . S
C3949 C3945 1.385 . S
C3949 C3948 1.374 . S
C3950 C3947 1.499 . S
C3950 C3951 1.373 . S
C3950 C3952 1.389 . S
C3951 H3930 0.950 . S
C3951 C3950 1.373 . S
C3951 C3967 1.377 . S
C3952 C3950 1.389 . S
C3952 C3953 1.524 . S
C3952 C3966 1.377 . S
C3953 C3952 1.524 . S
C3953 C3954 1.397 . S
C3953 C3958 1.363 . S
C3954 H3931 0.950 . S
C3954 C3953 1.397 . S
C3954 C3955 1.334 . S
C3955 H3932 0.950 . S
C3955 C3954 1.334 . S
C3955 C3956 1.287 . S
C3956 C3955 1.287 . S
C3956 C3957 1.524 . S
C3956 H3975 0.913 . S
C3957 H3933 0.950 . S
C3957 C3956 1.524 . S
C3957 C3958 1.415 . S
C3958 H3934 0.950 . S
C3958 C3953 1.363 . S
C3958 C3957 1.415 . S
C3959 H3935 0.951 . S
C3959 C3960 1.366 . S
C3959 C3961 1.388 . S
C3960 C3959 1.366 . S
C3960 C3964 1.385 . S
C3961 H3936 0.951 . S
C3961 C3959 1.388 . S
C3961 C3962 1.366 . S
C3962 C3961 1.366 . S
C3962 C3963 1.414 . S
C3962 C3965 1.499 . S
C3963 H3937 0.950 . S
C3963 C3962 1.414 . S
C3963 C3964 1.374 . S
C3964 H3938 0.950 . S
C3964 C3960 1.385 . S
C3964 C3963 1.374 . S
C3965 C3962 1.499 . S
C3965 C3966 1.373 . S
C3965 C3967 1.389 . S
C3966 H3939 0.950 . S
C3966 C3952 1.377 . S
C3966 C3965 1.373 . S
C3967 C3951 1.377 . S
C3967 C3965 1.389 . S
C3967 C3968 1.524 . S
C3968 C3967 1.524 . S
C3968 C3969 1.397 . S
C3968 C3973 1.363 . S
C3969 H3940 0.950 . S
C3969 C3968 1.397 . S
C3969 C3970 1.334 . S
C3970 H3941 0.950 . S
C3970 C3969 1.334 . S
C3970 C3971 1.287 . S
C3971 C3970 1.287 . S
C3971 C3972 1.524 . S
C3971 H3974 0.999 . S
C3972 H3942 0.950 . S
C3972 C3971 1.524 . S
C3972 C3973 1.415 . S
C3973 H3943 0.950 . S
C3973 C3968 1.363 . S
C3973 C3972 1.415 . S
H3974 C3971 0.999 . S
H3975 C3956 0.913 . S
H3976 C3994 0.951 . S
H3977 C3996 0.951 . S
H3978 C3998 0.950 . S
H3979 C3999 0.950 . S
H3980 C4001 0.950 . S
H3981 C4004 0.950 . S
H3982 C4005 0.950 . S
H3983 C4007 0.950 . S
H3984 C4008 0.950 . S
H3985 C4009 0.951 . S
H3986 C4011 0.951 . S
H3987 C4013 0.950 . S
H3988 C4014 0.950 . S
H3989 C4016 0.950 . S
H3990 C4019 0.950 . S
H3991 C4020 0.950 . S
H3992 C4022 0.950 . S
H3993 C4023 0.950 . S
C3994 H3976 0.951 . S
C3994 C3995 1.366 . S
C3994 C3996 1.388 . S
C3995 C3994 1.366 . S
C3995 C3999 1.385 . S
C3996 H3977 0.951 . S
C3996 C3994 1.388 . S
C3996 C3997 1.366 . S
C3997 C3996 1.366 . S
C3997 C3998 1.414 . S
C3997 C4000 1.499 . S
C3998 H3978 0.950 . S
C3998 C3997 1.414 . S
C3998 C3999 1.374 . S
C3999 H3979 0.950 . S
C3999 C3995 1.385 . S
C3999 C3998 1.374 . S
C4000 C3997 1.499 . S
C4000 C4001 1.373 . S
C4000 C4002 1.389 . S
C4001 H3980 0.950 . S
C4001 C4000 1.373 . S
C4001 C4017 1.377 . S
C4002 C4000 1.389 . S
C4002 C4003 1.524 . S
C4002 C4016 1.377 . S
C4003 C4002 1.524 . S
C4003 C4004 1.397 . S
C4003 C4008 1.363 . S
C4004 H3981 0.950 . S
C4004 C4003 1.397 . S
C4004 C4005 1.334 . S
C4005 H3982 0.950 . S
C4005 C4004 1.334 . S
C4005 C4006 1.287 . S
C4006 C4005 1.287 . S
C4006 C4007 1.524 . S
C4006 H4025 0.913 . S
C4007 H3983 0.950 . S
C4007 C4006 1.524 . S
C4007 C4008 1.415 . S
C4008 H3984 0.950 . S
C4008 C4003 1.363 . S
C4008 C4007 1.415 . S
C4009 H3985 0.951 . S
C4009 C4010 1.366 . S
C4009 C4011 1.388 . S
C4010 C4009 1.366 . S
C4010 C4014 1.385 . S
C4011 H3986 0.951 . S
C4011 C4009 1.388 . S
C4011 C4012 1.366 . S
C4012 C4011 1.366 . S
C4012 C4013 1.414 . S
C4012 C4015 1.499 . S
C4013 H3987 0.950 . S
C4013 C4012 1.414 . S
C4013 C4014 1.374 . S
C4014 H3988 0.950 . S
C4014 C4010 1.385 . S
C4014 C4013 1.374 . S
C4015 C4012 1.499 . S
C4015 C4016 1.373 . S
C4015 C4017 1.389 . S
C4016 H3989 0.950 . S
C4016 C4002 1.377 . S
C4016 C4015 1.373 . S
C4017 C4001 1.377 . S
C4017 C4015 1.389 . S
C4017 C4018 1.524 . S
C4018 C4017 1.524 . S
C4018 C4019 1.397 . S
C4018 C4023 1.363 . S
C4019 H3990 0.950 . S
C4019 C4018 1.397 . S
C4019 C4020 1.334 . S
C4020 H3991 0.950 . S
C4020 C4019 1.334 . S
C4020 C4021 1.287 . S
C4021 C4020 1.287 . S
C4021 C4022 1.524 . S
C4021 H4024 0.999 . S
C4022 H3992 0.950 . S
C4022 C4021 1.524 . S
C4022 C4023 1.415 . S
C4023 H3993 0.950 . S
C4023 C4018 1.363 . S
C4023 C4022 1.415 . S
H4024 C4021 0.999 . S
H4025 C4006 0.913 . S
H4026 C4044 0.951 . S
H4027 C4046 0.951 . S
H4028 C4048 0.950 . S
H4029 C4049 0.950 . S
H4030 C4051 0.950 . S
H4031 C4054 0.950 . S
H4032 C4055 0.950 . S
H4033 C4057 0.950 . S
H4034 C4058 0.950 . S
H4035 C4059 0.951 . S
H4036 C4061 0.951 . S
H4037 C4063 0.950 . S
H4038 C4064 0.950 . S
H4039 C4066 0.950 . S
H4040 C4069 0.950 . S
H4041 C4070 0.950 . S
H4042 C4072 0.950 . S
H4043 C4073 0.950 . S
C4044 H4026 0.951 . S
C4044 C4045 1.366 . S
C4044 C4046 1.388 . S
C4045 C4044 1.366 . S
C4045 C4049 1.385 . S
C4046 H4027 0.951 . S
C4046 C4044 1.388 . S
C4046 C4047 1.366 . S
C4047 C4046 1.366 . S
C4047 C4048 1.414 . S
C4047 C4050 1.499 . S
C4048 H4028 0.950 . S
C4048 C4047 1.414 . S
C4048 C4049 1.374 . S
C4049 H4029 0.950 . S
C4049 C4045 1.385 . S
C4049 C4048 1.374 . S
C4050 C4047 1.499 . S
C4050 C4051 1.373 . S
C4050 C4052 1.389 . S
C4051 H4030 0.950 . S
C4051 C4050 1.373 . S
C4051 C4067 1.377 . S
C4052 C4050 1.389 . S
C4052 C4053 1.524 . S
C4052 C4066 1.377 . S
C4053 C4052 1.524 . S
C4053 C4054 1.397 . S
C4053 C4058 1.363 . S
C4054 H4031 0.950 . S
C4054 C4053 1.397 . S
C4054 C4055 1.334 . S
C4055 H4032 0.950 . S
C4055 C4054 1.334 . S
C4055 C4056 1.287 . S
C4056 C4055 1.287 . S
C4056 C4057 1.524 . S
C4056 H4075 0.913 . S
C4057 H4033 0.950 . S
C4057 C4056 1.524 . S
C4057 C4058 1.415 . S
C4058 H4034 0.950 . S
C4058 C4053 1.363 . S
C4058 C4057 1.415 . S
C4059 H4035 0.951 . S
C4059 C4060 1.366 . S
C4059 C4061 1.388 . S
C4060 C4059 1.366 . S
C4060 C4064 1.385 . S
C4061 H4036 0.951 . S
C4061 C4059 1.388 . S
C4061 C4062 1.366 . S
C4062 C4061 1.366 . S
C4062 C4063 1.414 . S
C4062 C4065 1.499 . S
C4063 H4037 0.950 . S
C4063 C4062 1.414 . S
C4063 C4064 1.374 . S
C4064 H4038 0.950 . S
C4064 C4060 1.385 . S
C4064 C4063 1.374 . S
C4065 C4062 1.499 . S
C4065 C4066 1.373 . S
C4065 C4067 1.389 . S
C4066 H4039 0.950 . S
C4066 C4052 1.377 . S
C4066 C4065 1.373 . S
C4067 C4051 1.377 . S
C4067 C4065 1.389 . S
C4067 C4068 1.524 . S
C4068 C4067 1.524 . S
C4068 C4069 1.397 . S
C4068 C4073 1.363 . S
C4069 H4040 0.950 . S
C4069 C4068 1.397 . S
C4069 C4070 1.334 . S
C4070 H4041 0.950 . S
C4070 C4069 1.334 . S
C4070 C4071 1.287 . S
C4071 C4070 1.287 . S
C4071 C4072 1.524 . S
C4071 H4074 0.999 . S
C4072 H4042 0.950 . S
C4072 C4071 1.524 . S
C4072 C4073 1.415 . S
C4073 H4043 0.950 . S
C4073 C4068 1.363 . S
C4073 C4072 1.415 . S
H4074 C4071 0.999 . S
H4075 C4056 0.913 . S
H4076 C4094 0.951 . S
H4077 C4096 0.951 . S
H4078 C4098 0.950 . S
H4079 C4099 0.950 . S
H4080 C4101 0.950 . S
H4081 C4104 0.950 . S
H4082 C4105 0.950 . S
H4083 C4107 0.950 . S
H4084 C4108 0.950 . S
H4085 C4109 0.951 . S
H4086 C4111 0.951 . S
H4087 C4113 0.950 . S
H4088 C4114 0.950 . S
H4089 C4116 0.950 . S
H4090 C4119 0.950 . S
H4091 C4120 0.950 . S
H4092 C4122 0.950 . S
H4093 C4123 0.950 . S
C4094 H4076 0.951 . S
C4094 C4095 1.366 . S
C4094 C4096 1.388 . S
C4095 C4094 1.366 . S
C4095 C4099 1.385 . S
C4096 H4077 0.951 . S
C4096 C4094 1.388 . S
C4096 C4097 1.366 . S
C4097 C4096 1.366 . S
C4097 C4098 1.414 . S
C4097 C4100 1.499 . S
C4098 H4078 0.950 . S
C4098 C4097 1.414 . S
C4098 C4099 1.374 . S
C4099 H4079 0.950 . S
C4099 C4095 1.385 . S
C4099 C4098 1.374 . S
C4100 C4097 1.499 . S
C4100 C4101 1.373 . S
C4100 C4102 1.389 . S
C4101 H4080 0.950 . S
C4101 C4100 1.373 . S
C4101 C4117 1.377 . S
C4102 C4100 1.389 . S
C4102 C4103 1.524 . S
C4102 C4116 1.377 . S
C4103 C4102 1.524 . S
C4103 C4104 1.397 . S
C4103 C4108 1.363 . S
C4104 H4081 0.950 . S
C4104 C4103 1.397 . S
C4104 C4105 1.334 . S
C4105 H4082 0.950 . S
C4105 C4104 1.334 . S
C4105 C4106 1.287 . S
C4106 C4105 1.287 . S
C4106 C4107 1.524 . S
C4106 H4125 0.913 . S
C4107 H4083 0.950 . S
C4107 C4106 1.524 . S
C4107 C4108 1.415 . S
C4108 H4084 0.950 . S
C4108 C4103 1.363 . S
C4108 C4107 1.415 . S
C4109 H4085 0.951 . S
C4109 C4110 1.366 . S
C4109 C4111 1.388 . S
C4110 C4109 1.366 . S
C4110 C4114 1.385 . S
C4111 H4086 0.951 . S
C4111 C4109 1.388 . S
C4111 C4112 1.366 . S
C4112 C4111 1.366 . S
C4112 C4113 1.414 . S
C4112 C4115 1.499 . S
C4113 H4087 0.950 . S
C4113 C4112 1.414 . S
C4113 C4114 1.374 . S
C4114 H4088 0.950 . S
C4114 C4110 1.385 . S
C4114 C4113 1.374 . S
C4115 C4112 1.499 . S
C4115 C4116 1.373 . S
C4115 C4117 1.389 . S
C4116 H4089 0.950 . S
C4116 C4102 1.377 . S
C4116 C4115 1.373 . S
C4117 C4101 1.377 . S
C4117 C4115 1.389 . S
C4117 C4118 1.524 . S
C4118 C4117 1.524 . S
C4118 C4119 1.397 . S
C4118 C4123 1.363 . S
C4119 H4090 0.950 . S
C4119 C4118 1.397 . S
C4119 C4120 1.334 . S
C4120 H4091 0.950 . S
C4120 C4119 1.334 . S
C4120 C4121 1.287 . S
C4121 C4120 1.287 . S
C4121 C4122 1.524 . S
C4121 H4124 0.999 . S
C4122 H4092 0.950 . S
C4122 C4121 1.524 . S
C4122 C4123 1.415 . S
C4123 H4093 0.950 . S
C4123 C4118 1.363 . S
C4123 C4122 1.415 . S
H4124 C4121 0.999 . S
H4125 C4106 0.913 . S
H4126 C4144 0.951 . S
H4127 C4146 0.951 . S
H4128 C4148 0.950 . S
H4129 C4149 0.950 . S
H4130 C4151 0.950 . S
H4131 C4154 0.950 . S
H4132 C4155 0.950 . S
H4133 C4157 0.950 . S
H4134 C4158 0.950 . S
H4135 C4159 0.951 . S
H4136 C4161 0.951 . S
H4137 C4163 0.950 . S
H4138 C4164 0.950 . S
H4139 C4166 0.950 . S
H4140 C4169 0.950 . S
H4141 C4170 0.950 . S
H4142 C4172 0.950 . S
H4143 C4173 0.950 . S
C4144 H4126 0.951 . S
C4144 C4145 1.366 . S
C4144 C4146 1.388 . S
C4145 C4144 1.366 . S
C4145 C4149 1.385 . S
C4146 H4127 0.951 . S
C4146 C4144 1.388 . S
C4146 C4147 1.366 . S
C4147 C4146 1.366 . S
C4147 C4148 1.414 . S
C4147 C4150 1.499 . S
C4148 H4128 0.950 . S
C4148 C4147 1.414 . S
C4148 C4149 1.374 . S
C4149 H4129 0.950 . S
C4149 C4145 1.385 . S
C4149 C4148 1.374 . S
C4150 C4147 1.499 . S
C4150 C4151 1.373 . S
C4150 C4152 1.389 . S
C4151 H4130 0.950 . S
C4151 C4150 1.373 . S
C4151 C4167 1.377 . S
C4152 C4150 1.389 . S
C4152 C4153 1.524 . S
C4152 C4166 1.377 . S
C4153 C4152 1.524 . S
C4153 C4154 1.397 . S
C4153 C4158 1.363 . S
C4154 H4131 0.950 . S
C4154 C4153 1.397 . S
C4154 C4155 1.334 . S
C4155 H4132 0.950 . S
C4155 C4154 1.334 . S
C4155 C4156 1.287 . S
C4156 C4155 1.287 . S
C4156 C4157 1.524 . S
C4156 H4175 0.913 . S
C4157 H4133 0.950 . S
C4157 C4156 1.524 . S
C4157 C4158 1.415 . S
C4158 H4134 0.950 . S
C4158 C4153 1.363 . S
C4158 C4157 1.415 . S
C4159 H4135 0.951 . S
C4159 C4160 1.366 . S
C4159 C4161 1.388 . S
C4160 C4159 1.366 . S
C4160 C4164 1.385 . S
C4161 H4136 0.951 . S
C4161 C4159 1.388 . S
C4161 C4162 1.366 . S
C4162 C4161 1.366 . S
C4162 C4163 1.414 . S
C4162 C4165 1.499 . S
C4163 H4137 0.950 . S
C4163 C4162 1.414 . S
C4163 C4164 1.374 . S
C4164 H4138 0.950 . S
C4164 C4160 1.385 . S
C4164 C4163 1.374 . S
C4165 C4162 1.499 . S
C4165 C4166 1.373 . S
C4165 C4167 1.389 . S
C4166 H4139 0.950 . S
C4166 C4152 1.377 . S
C4166 C4165 1.373 . S
C4167 C4151 1.377 . S
C4167 C4165 1.389 . S
C4167 C4168 1.524 . S
C4168 C4167 1.524 . S
C4168 C4169 1.397 . S
C4168 C4173 1.363 . S
C4169 H4140 0.950 . S
C4169 C4168 1.397 . S
C4169 C4170 1.334 . S
C4170 H4141 0.950 . S
C4170 C4169 1.334 . S
C4170 C4171 1.287 . S
C4171 C4170 1.287 . S
C4171 C4172 1.524 . S
C4171 H4174 0.999 . S
C4172 H4142 0.950 . S
C4172 C4171 1.524 . S
C4172 C4173 1.415 . S
C4173 H4143 0.950 . S
C4173 C4168 1.363 . S
C4173 C4172 1.415 . S
H4174 C4171 0.999 . S
H4175 C4156 0.913 . S
H4176 C4194 0.951 . S
H4177 C4196 0.951 . S
H4178 C4198 0.950 . S
H4179 C4199 0.950 . S
H4180 C4201 0.950 . S
H4181 C4204 0.950 . S
H4182 C4205 0.950 . S
H4183 C4207 0.950 . S
H4184 C4208 0.950 . S
H4185 C4209 0.951 . S
H4186 C4211 0.951 . S
H4187 C4213 0.950 . S
H4188 C4214 0.950 . S
H4189 C4216 0.950 . S
H4190 C4219 0.950 . S
H4191 C4220 0.950 . S
H4192 C4222 0.950 . S
H4193 C4223 0.950 . S
C4194 H4176 0.951 . S
C4194 C4195 1.366 . S
C4194 C4196 1.388 . S
C4195 C4194 1.366 . S
C4195 C4199 1.385 . S
C4196 H4177 0.951 . S
C4196 C4194 1.388 . S
C4196 C4197 1.366 . S
C4197 C4196 1.366 . S
C4197 C4198 1.414 . S
C4197 C4200 1.499 . S
C4198 H4178 0.950 . S
C4198 C4197 1.414 . S
C4198 C4199 1.374 . S
C4199 H4179 0.950 . S
C4199 C4195 1.385 . S
C4199 C4198 1.374 . S
C4200 C4197 1.499 . S
C4200 C4201 1.373 . S
C4200 C4202 1.389 . S
C4201 H4180 0.950 . S
C4201 C4200 1.373 . S
C4201 C4217 1.377 . S
C4202 C4200 1.389 . S
C4202 C4203 1.524 . S
C4202 C4216 1.377 . S
C4203 C4202 1.524 . S
C4203 C4204 1.397 . S
C4203 C4208 1.363 . S
C4204 H4181 0.950 . S
C4204 C4203 1.397 . S
C4204 C4205 1.334 . S
C4205 H4182 0.950 . S
C4205 C4204 1.334 . S
C4205 C4206 1.287 . S
C4206 C4205 1.287 . S
C4206 C4207 1.524 . S
C4206 H4225 0.913 . S
C4207 H4183 0.950 . S
C4207 C4206 1.524 . S
C4207 C4208 1.415 . S
C4208 H4184 0.950 . S
C4208 C4203 1.363 . S
C4208 C4207 1.415 . S
C4209 H4185 0.951 . S
C4209 C4210 1.366 . S
C4209 C4211 1.388 . S
C4210 C4209 1.366 . S
C4210 C4214 1.385 . S
C4211 H4186 0.951 . S
C4211 C4209 1.388 . S
C4211 C4212 1.366 . S
C4212 C4211 1.366 . S
C4212 C4213 1.414 . S
C4212 C4215 1.499 . S
C4213 H4187 0.950 . S
C4213 C4212 1.414 . S
C4213 C4214 1.374 . S
C4214 H4188 0.950 . S
C4214 C4210 1.385 . S
C4214 C4213 1.374 . S
C4215 C4212 1.499 . S
C4215 C4216 1.373 . S
C4215 C4217 1.389 . S
C4216 H4189 0.950 . S
C4216 C4202 1.377 . S
C4216 C4215 1.373 . S
C4217 C4201 1.377 . S
C4217 C4215 1.389 . S
C4217 C4218 1.524 . S
C4218 C4217 1.524 . S
C4218 C4219 1.397 . S
C4218 C4223 1.363 . S
C4219 H4190 0.950 . S
C4219 C4218 1.397 . S
C4219 C4220 1.334 . S
C4220 H4191 0.950 . S
C4220 C4219 1.334 . S
C4220 C4221 1.287 . S
C4221 C4220 1.287 . S
C4221 C4222 1.524 . S
C4221 H4224 0.999 . S
C4222 H4192 0.950 . S
C4222 C4221 1.524 . S
C4222 C4223 1.415 . S
C4223 H4193 0.950 . S
C4223 C4218 1.363 . S
C4223 C4222 1.415 . S
H4224 C4221 0.999 . S
H4225 C4206 0.913 . S
H4226 C4244 0.951 . S
H4227 C4246 0.951 . S
H4228 C4248 0.950 . S
H4229 C4249 0.950 . S
H4230 C4251 0.950 . S
H4231 C4254 0.950 . S
H4232 C4255 0.950 . S
H4233 C4257 0.950 . S
H4234 C4258 0.950 . S
H4235 C4259 0.951 . S
H4236 C4261 0.951 . S
H4237 C4263 0.950 . S
H4238 C4264 0.950 . S
H4239 C4266 0.950 . S
H4240 C4269 0.950 . S
H4241 C4270 0.950 . S
H4242 C4272 0.950 . S
H4243 C4273 0.950 . S
C4244 H4226 0.951 . S
C4244 C4245 1.366 . S
C4244 C4246 1.388 . S
C4245 C4244 1.366 . S
C4245 C4249 1.385 . S
C4246 H4227 0.951 . S
C4246 C4244 1.388 . S
C4246 C4247 1.366 . S
C4247 C4246 1.366 . S
C4247 C4248 1.414 . S
C4247 C4250 1.499 . S
C4248 H4228 0.950 . S
C4248 C4247 1.414 . S
C4248 C4249 1.374 . S
C4249 H4229 0.950 . S
C4249 C4245 1.385 . S
C4249 C4248 1.374 . S
C4250 C4247 1.499 . S
C4250 C4251 1.373 . S
C4250 C4252 1.389 . S
C4251 H4230 0.950 . S
C4251 C4250 1.373 . S
C4251 C4267 1.377 . S
C4252 C4250 1.389 . S
C4252 C4253 1.524 . S
C4252 C4266 1.377 . S
C4253 C4252 1.524 . S
C4253 C4254 1.397 . S
C4253 C4258 1.363 . S
C4254 H4231 0.950 . S
C4254 C4253 1.397 . S
C4254 C4255 1.334 . S
C4255 H4232 0.950 . S
C4255 C4254 1.334 . S
C4255 C4256 1.287 . S
C4256 C4255 1.287 . S
C4256 C4257 1.524 . S
C4256 H4275 0.913 . S
C4257 H4233 0.950 . S
C4257 C4256 1.524 . S
C4257 C4258 1.415 . S
C4258 H4234 0.950 . S
C4258 C4253 1.363 . S
C4258 C4257 1.415 . S
C4259 H4235 0.951 . S
C4259 C4260 1.366 . S
C4259 C4261 1.388 . S
C4260 C4259 1.366 . S
C4260 C4264 1.385 . S
C4261 H4236 0.951 . S
C4261 C4259 1.388 . S
C4261 C4262 1.366 . S
C4262 C4261 1.366 . S
C4262 C4263 1.414 . S
C4262 C4265 1.499 . S
C4263 H4237 0.950 . S
C4263 C4262 1.414 . S
C4263 C4264 1.374 . S
C4264 H4238 0.950 . S
C4264 C4260 1.385 . S
C4264 C4263 1.374 . S
C4265 C4262 1.499 . S
C4265 C4266 1.373 . S
C4265 C4267 1.389 . S
C4266 H4239 0.950 . S
C4266 C4252 1.377 . S
C4266 C4265 1.373 . S
C4267 C4251 1.377 . S
C4267 C4265 1.389 . S
C4267 C4268 1.524 . S
C4268 C4267 1.524 . S
C4268 C4269 1.397 . S
C4268 C4273 1.363 . S
C4269 H4240 0.950 . S
C4269 C4268 1.397 . S
C4269 C4270 1.334 . S
C4270 H4241 0.950 . S
C4270 C4269 1.334 . S
C4270 C4271 1.287 . S
C4271 C4270 1.287 . S
C4271 C4272 1.524 . S
C4271 H4274 0.999 . S
C4272 H4242 0.950 . S
C4272 C4271 1.524 . S
C4272 C4273 1.415 . S
C4273 H4243 0.950 . S
C4273 C4268 1.363 . S
C4273 C4272 1.415 . S
H4274 C4271 0.999 . S
H4275 C4256 0.913 . S
H4276 C4294 0.951 . S
H4277 C4296 0.951 . S
H4278 C4298 0.950 1_565 S
H4279 C4299 0.950 . S
H4280 C4301 0.950 . S
H4281 C4304 0.950 1_565 S
H4282 C4305 0.950 . S
H4283 C4307 0.950 . S
H4284 C4308 0.950 . S
H4285 C4309 0.951 . S
H4286 C4311 0.951 . S
H4287 C4313 0.950 . S
H4288 C4314 0.950 . S
H4289 C4316 0.950 . S
H4290 C4319 0.950 . S
H4291 C4320 0.950 . S
H4292 C4322 0.950 . S
H4293 C4323 0.950 . S
C4294 H4276 0.951 . S
C4294 C4295 1.366 . S
C4294 C4296 1.388 . S
C4295 C4294 1.366 . S
C4295 C4299 1.385 . S
C4296 H4277 0.951 . S
C4296 C4294 1.388 . S
C4296 C4297 1.366 . S
C4297 C4296 1.366 . S
C4297 C4298 1.414 . S
C4297 C4300 1.499 1_545 S
C4298 H4278 0.950 1_545 S
C4298 C4297 1.414 . S
C4298 C4299 1.374 . S
C4299 H4279 0.950 . S
C4299 C4295 1.385 . S
C4299 C4298 1.374 . S
C4300 C4297 1.499 1_565 S
C4300 C4301 1.373 . S
C4300 C4302 1.389 . S
C4301 H4280 0.950 . S
C4301 C4300 1.373 . S
C4301 C4317 1.377 . S
C4302 C4300 1.389 . S
C4302 C4303 1.524 1_565 S
C4302 C4316 1.377 . S
C4303 C4302 1.524 1_545 S
C4303 C4304 1.397 . S
C4303 C4308 1.363 . S
C4304 H4281 0.950 1_545 S
C4304 C4303 1.397 . S
C4304 C4305 1.334 . S
C4305 H4282 0.950 . S
C4305 C4304 1.334 . S
C4305 C4306 1.287 . S
C4306 C4305 1.287 . S
C4306 C4307 1.524 . S
C4306 H4325 0.913 . S
C4307 H4283 0.950 . S
C4307 C4306 1.524 . S
C4307 C4308 1.415 . S
C4308 H4284 0.950 . S
C4308 C4303 1.363 . S
C4308 C4307 1.415 . S
C4309 H4285 0.951 . S
C4309 C4310 1.366 . S
C4309 C4311 1.388 . S
C4310 C4309 1.366 . S
C4310 C4314 1.385 . S
C4311 H4286 0.951 . S
C4311 C4309 1.388 . S
C4311 C4312 1.366 . S
C4312 C4311 1.366 . S
C4312 C4313 1.414 . S
C4312 C4315 1.499 . S
C4313 H4287 0.950 . S
C4313 C4312 1.414 . S
C4313 C4314 1.374 . S
C4314 H4288 0.950 . S
C4314 C4310 1.385 . S
C4314 C4313 1.374 . S
C4315 C4312 1.499 . S
C4315 C4316 1.373 . S
C4315 C4317 1.389 . S
C4316 H4289 0.950 . S
C4316 C4302 1.377 . S
C4316 C4315 1.373 . S
C4317 C4301 1.377 . S
C4317 C4315 1.389 . S
C4317 C4318 1.524 . S
C4318 C4317 1.524 . S
C4318 C4319 1.397 . S
C4318 C4323 1.363 . S
C4319 H4290 0.950 . S
C4319 C4318 1.397 . S
C4319 C4320 1.334 . S
C4320 H4291 0.950 . S
C4320 C4319 1.334 . S
C4320 C4321 1.287 . S
C4321 C4320 1.287 . S
C4321 C4322 1.524 . S
C4321 H4324 0.999 . S
C4322 H4292 0.950 . S
C4322 C4321 1.524 . S
C4322 C4323 1.415 . S
C4323 H4293 0.950 . S
C4323 C4318 1.363 . S
C4323 C4322 1.415 . S
H4324 C4321 0.999 . S
H4325 C4306 0.913 . S
H4326 C4344 0.951 . S
H4327 C4346 0.951 . S
H4328 C4348 0.950 1_545 S
H4329 C4349 0.950 . S
H4330 C4351 0.950 . S
H4331 C4354 0.950 . S
H4332 C4355 0.950 . S
H4333 C4357 0.950 . S
H4334 C4358 0.950 . S
H4335 C4359 0.951 . S
H4336 C4361 0.951 . S
H4337 C4363 0.950 . S
H4338 C4364 0.950 . S
H4339 C4366 0.950 . S
H4340 C4369 0.950 . S
H4341 C4370 0.950 . S
H4342 C4372 0.950 . S
H4343 C4373 0.950 . S
C4344 H4326 0.951 . S
C4344 C4345 1.366 . S
C4344 C4346 1.388 . S
C4345 C4344 1.366 . S
C4345 C4349 1.385 . S
C4346 H4327 0.951 . S
C4346 C4344 1.388 . S
C4346 C4347 1.366 . S
C4347 C4346 1.366 . S
C4347 C4348 1.414 . S
C4347 C4350 1.499 . S
C4348 H4328 0.950 1_565 S
C4348 C4347 1.414 . S
C4348 C4349 1.374 . S
C4349 H4329 0.950 . S
C4349 C4345 1.385 . S
C4349 C4348 1.374 . S
C4350 C4347 1.499 . S
C4350 C4351 1.373 1_565 S
C4350 C4352 1.389 . S
C4351 H4330 0.950 . S
C4351 C4350 1.373 1_545 S
C4351 C4367 1.377 . S
C4352 C4350 1.389 . S
C4352 C4353 1.524 . S
C4352 C4366 1.377 1_565 S
C4353 C4352 1.524 . S
C4353 C4354 1.397 . S
C4353 C4358 1.363 . S
C4354 H4331 0.950 . S
C4354 C4353 1.397 . S
C4354 C4355 1.334 . S
C4355 H4332 0.950 . S
C4355 C4354 1.334 . S
C4355 C4356 1.287 . S
C4356 C4355 1.287 . S
C4356 C4357 1.524 . S
C4356 H4375 0.913 . S
C4357 H4333 0.950 . S
C4357 C4356 1.524 . S
C4357 C4358 1.415 . S
C4358 H4334 0.950 . S
C4358 C4353 1.363 . S
C4358 C4357 1.415 . S
C4359 H4335 0.951 . S
C4359 C4360 1.366 . S
C4359 C4361 1.388 . S
C4360 C4359 1.366 . S
C4360 C4364 1.385 . S
C4361 H4336 0.951 . S
C4361 C4359 1.388 . S
C4361 C4362 1.366 . S
C4362 C4361 1.366 . S
C4362 C4363 1.414 . S
C4362 C4365 1.499 . S
C4363 H4337 0.950 . S
C4363 C4362 1.414 . S
C4363 C4364 1.374 . S
C4364 H4338 0.950 . S
C4364 C4360 1.385 . S
C4364 C4363 1.374 . S
C4365 C4362 1.499 . S
C4365 C4366 1.373 . S
C4365 C4367 1.389 . S
C4366 H4339 0.950 . S
C4366 C4352 1.377 1_545 S
C4366 C4365 1.373 . S
C4367 C4351 1.377 . S
C4367 C4365 1.389 . S
C4367 C4368 1.524 . S
C4368 C4367 1.524 . S
C4368 C4369 1.397 1_554 S
C4368 C4373 1.363 . S
C4369 H4340 0.950 . S
C4369 C4368 1.397 1_556 S
C4369 C4370 1.334 . S
C4370 H4341 0.950 . S
C4370 C4369 1.334 . S
C4370 C4371 1.287 . S
C4371 C4370 1.287 . S
C4371 C4372 1.524 . S
C4371 H4374 0.999 . S
C4372 H4342 0.950 . S
C4372 C4371 1.524 . S
C4372 C4373 1.415 1_556 S
C4373 H4343 0.950 . S
C4373 C4368 1.363 . S
C4373 C4372 1.415 1_554 S
H4374 C4371 0.999 . S
H4375 C4356 0.913 . S
H4376 C4394 0.951 . S
H4377 C4396 0.951 . S
H4378 C4398 0.950 . S
H4379 C4399 0.950 . S
H4380 C4401 0.950 . S
H4381 C4404 0.950 . S
H4382 C4405 0.950 . S
H4383 C4407 0.950 . S
H4384 C4408 0.950 . S
H4385 C4409 0.951 . S
H4386 C4411 0.951 . S
H4387 C4413 0.950 . S
H4388 C4414 0.950 . S
H4389 C4416 0.950 . S
H4390 C4419 0.950 . S
H4391 C4420 0.950 . S
H4392 C4422 0.950 . S
H4393 C4423 0.950 . S
C4394 H4376 0.951 . S
C4394 C4395 1.366 . S
C4394 C4396 1.388 . S
C4395 C4394 1.366 . S
C4395 C4399 1.385 . S
C4396 H4377 0.951 . S
C4396 C4394 1.388 . S
C4396 C4397 1.366 . S
C4397 C4396 1.366 . S
C4397 C4398 1.414 . S
C4397 C4400 1.499 . S
C4398 H4378 0.950 . S
C4398 C4397 1.414 . S
C4398 C4399 1.374 . S
C4399 H4379 0.950 . S
C4399 C4395 1.385 . S
C4399 C4398 1.374 . S
C4400 C4397 1.499 . S
C4400 C4401 1.373 . S
C4400 C4402 1.389 . S
C4401 H4380 0.950 . S
C4401 C4400 1.373 . S
C4401 C4417 1.377 . S
C4402 C4400 1.389 . S
C4402 C4403 1.524 . S
C4402 C4416 1.377 . S
C4403 C4402 1.524 . S
C4403 C4404 1.397 . S
C4403 C4408 1.363 . S
C4404 H4381 0.950 . S
C4404 C4403 1.397 . S
C4404 C4405 1.334 . S
C4405 H4382 0.950 . S
C4405 C4404 1.334 . S
C4405 C4406 1.287 . S
C4406 C4405 1.287 . S
C4406 C4407 1.524 . S
C4406 H4425 0.913 . S
C4407 H4383 0.950 . S
C4407 C4406 1.524 . S
C4407 C4408 1.415 . S
C4408 H4384 0.950 . S
C4408 C4403 1.363 . S
C4408 C4407 1.415 . S
C4409 H4385 0.951 . S
C4409 C4410 1.366 . S
C4409 C4411 1.388 . S
C4410 C4409 1.366 . S
C4410 C4414 1.385 . S
C4411 H4386 0.951 . S
C4411 C4409 1.388 . S
C4411 C4412 1.366 . S
C4412 C4411 1.366 . S
C4412 C4413 1.414 . S
C4412 C4415 1.499 . S
C4413 H4387 0.950 . S
C4413 C4412 1.414 . S
C4413 C4414 1.374 . S
C4414 H4388 0.950 . S
C4414 C4410 1.385 . S
C4414 C4413 1.374 . S
C4415 C4412 1.499 . S
C4415 C4416 1.373 . S
C4415 C4417 1.389 . S
C4416 H4389 0.950 . S
C4416 C4402 1.377 . S
C4416 C4415 1.373 . S
C4417 C4401 1.377 . S
C4417 C4415 1.389 . S
C4417 C4418 1.524 . S
C4418 C4417 1.524 . S
C4418 C4419 1.397 . S
C4418 C4423 1.363 . S
C4419 H4390 0.950 . S
C4419 C4418 1.397 . S
C4419 C4420 1.334 . S
C4420 H4391 0.950 . S
C4420 C4419 1.334 . S
C4420 C4421 1.287 . S
C4421 C4420 1.287 . S
C4421 C4422 1.524 . S
C4421 H4424 0.999 . S
C4422 H4392 0.950 . S
C4422 C4421 1.524 . S
C4422 C4423 1.415 . S
C4423 H4393 0.950 . S
C4423 C4418 1.363 . S
C4423 C4422 1.415 . S
H4424 C4421 0.999 . S
H4425 C4406 0.913 . S
H4426 C4444 0.951 . S
H4427 C4446 0.951 . S
H4428 C4448 0.950 . S
H4429 C4449 0.950 . S
H4430 C4451 0.950 . S
H4431 C4454 0.950 1_556 S
H4432 C4455 0.950 . S
H4433 C4457 0.950 . S
H4434 C4458 0.950 . S
H4435 C4459 0.951 . S
H4436 C4461 0.951 . S
H4437 C4463 0.950 . S
H4438 C4464 0.950 . S
H4439 C4466 0.950 . S
H4440 C4469 0.950 . S
H4441 C4470 0.950 . S
H4442 C4472 0.950 . S
H4443 C4473 0.950 . S
C4444 H4426 0.951 . S
C4444 C4445 1.366 . S
C4444 C4446 1.388 . S
C4445 C4444 1.366 . S
C4445 C4449 1.385 . S
C4446 H4427 0.951 . S
C4446 C4444 1.388 . S
C4446 C4447 1.366 . S
C4447 C4446 1.366 . S
C4447 C4448 1.414 . S
C4447 C4450 1.499 . S
C4448 H4428 0.950 . S
C4448 C4447 1.414 . S
C4448 C4449 1.374 . S
C4449 H4429 0.950 . S
C4449 C4445 1.385 . S
C4449 C4448 1.374 . S
C4450 C4447 1.499 . S
C4450 C4451 1.373 . S
C4450 C4452 1.389 . S
C4451 H4430 0.950 . S
C4451 C4450 1.373 . S
C4451 C4467 1.377 . S
C4452 C4450 1.389 . S
C4452 C4453 1.524 . S
C4452 C4466 1.377 . S
C4453 C4452 1.524 . S
C4453 C4454 1.397 . S
C4453 C4458 1.363 . S
C4454 H4431 0.950 1_554 S
C4454 C4453 1.397 . S
C4454 C4455 1.334 1_554 S
C4455 H4432 0.950 . S
C4455 C4454 1.334 1_556 S
C4455 C4456 1.287 1_556 S
C4456 C4455 1.287 1_554 S
C4456 C4457 1.524 . S
C4456 H4475 0.913 1_554 S
C4457 H4433 0.950 . S
C4457 C4456 1.524 . S
C4457 C4458 1.415 . S
C4458 H4434 0.950 . S
C4458 C4453 1.363 . S
C4458 C4457 1.415 . S
C4459 H4435 0.951 . S
C4459 C4460 1.366 . S
C4459 C4461 1.388 . S
C4460 C4459 1.366 . S
C4460 C4464 1.385 . S
C4461 H4436 0.951 . S
C4461 C4459 1.388 . S
C4461 C4462 1.366 . S
C4462 C4461 1.366 . S
C4462 C4463 1.414 . S
C4462 C4465 1.499 . S
C4463 H4437 0.950 . S
C4463 C4462 1.414 . S
C4463 C4464 1.374 . S
C4464 H4438 0.950 . S
C4464 C4460 1.385 . S
C4464 C4463 1.374 . S
C4465 C4462 1.499 . S
C4465 C4466 1.373 . S
C4465 C4467 1.389 . S
C4466 H4439 0.950 . S
C4466 C4452 1.377 . S
C4466 C4465 1.373 . S
C4467 C4451 1.377 . S
C4467 C4465 1.389 . S
C4467 C4468 1.524 . S
C4468 C4467 1.524 . S
C4468 C4469 1.397 . S
C4468 C4473 1.363 . S
C4469 H4440 0.950 . S
C4469 C4468 1.397 . S
C4469 C4470 1.334 . S
C4470 H4441 0.950 . S
C4470 C4469 1.334 . S
C4470 C4471 1.287 . S
C4471 C4470 1.287 . S
C4471 C4472 1.524 . S
C4471 H4474 0.999 . S
C4472 H4442 0.950 . S
C4472 C4471 1.524 . S
C4472 C4473 1.415 . S
C4473 H4443 0.950 . S
C4473 C4468 1.363 . S
C4473 C4472 1.415 . S
H4474 C4471 0.999 . S
H4475 C4456 0.913 1_556 S
H4476 C4494 0.951 . S
H4477 C4496 0.951 . S
H4478 C4498 0.950 . S
H4479 C4499 0.950 . S
H4480 C4501 0.950 . S
H4481 C4504 0.950 . S
H4482 C4505 0.950 . S
H4483 C4507 0.950 . S
H4484 C4508 0.950 . S
H4485 C4509 0.951 . S
H4486 C4511 0.951 . S
H4487 C4513 0.950 . S
H4488 C4514 0.950 . S
H4489 C4516 0.950 . S
H4490 C4519 0.950 . S
H4491 C4520 0.950 . S
H4492 C4522 0.950 . S
H4493 C4523 0.950 . S
C4494 H4476 0.951 . S
C4494 C4495 1.366 . S
C4494 C4496 1.388 . S
C4495 C4494 1.366 . S
C4495 C4499 1.385 . S
C4496 H4477 0.951 . S
C4496 C4494 1.388 . S
C4496 C4497 1.366 . S
C4497 C4496 1.366 . S
C4497 C4498 1.414 . S
C4497 C4500 1.499 . S
C4498 H4478 0.950 . S
C4498 C4497 1.414 . S
C4498 C4499 1.374 . S
C4499 H4479 0.950 . S
C4499 C4495 1.385 . S
C4499 C4498 1.374 . S
C4500 C4497 1.499 . S
C4500 C4501 1.373 . S
C4500 C4502 1.389 . S
C4501 H4480 0.950 . S
C4501 C4500 1.373 . S
C4501 C4517 1.377 . S
C4502 C4500 1.389 . S
C4502 C4503 1.524 . S
C4502 C4516 1.377 . S
C4503 C4502 1.524 . S
C4503 C4504 1.397 . S
C4503 C4508 1.363 . S
C4504 H4481 0.950 . S
C4504 C4503 1.397 . S
C4504 C4505 1.334 . S
C4505 H4482 0.950 . S
C4505 C4504 1.334 . S
C4505 C4506 1.287 . S
C4506 C4505 1.287 . S
C4506 C4507 1.524 . S
C4506 H4525 0.913 . S
C4507 H4483 0.950 . S
C4507 C4506 1.524 . S
C4507 C4508 1.415 . S
C4508 H4484 0.950 . S
C4508 C4503 1.363 . S
C4508 C4507 1.415 . S
C4509 H4485 0.951 . S
C4509 C4510 1.366 . S
C4509 C4511 1.388 . S
C4510 C4509 1.366 . S
C4510 C4514 1.385 . S
C4511 H4486 0.951 . S
C4511 C4509 1.388 . S
C4511 C4512 1.366 . S
C4512 C4511 1.366 . S
C4512 C4513 1.414 . S
C4512 C4515 1.499 . S
C4513 H4487 0.950 . S
C4513 C4512 1.414 . S
C4513 C4514 1.374 . S
C4514 H4488 0.950 . S
C4514 C4510 1.385 . S
C4514 C4513 1.374 . S
C4515 C4512 1.499 . S
C4515 C4516 1.373 . S
C4515 C4517 1.389 . S
C4516 H4489 0.950 . S
C4516 C4502 1.377 . S
C4516 C4515 1.373 . S
C4517 C4501 1.377 . S
C4517 C4515 1.389 . S
C4517 C4518 1.524 . S
C4518 C4517 1.524 . S
C4518 C4519 1.397 . S
C4518 C4523 1.363 . S
C4519 H4490 0.950 . S
C4519 C4518 1.397 . S
C4519 C4520 1.334 . S
C4520 H4491 0.950 . S
C4520 C4519 1.334 . S
C4520 C4521 1.287 . S
C4521 C4520 1.287 . S
C4521 C4522 1.524 . S
C4521 H4524 0.999 . S
C4522 H4492 0.950 . S
C4522 C4521 1.524 . S
C4522 C4523 1.415 . S
C4523 H4493 0.950 . S
C4523 C4518 1.363 . S
C4523 C4522 1.415 . S
H4524 C4521 0.999 . S
H4525 C4506 0.913 . S
H4526 C4544 0.951 . S
H4527 C4546 0.951 . S
H4528 C4548 0.950 . S
H4529 C4549 0.950 . S
H4530 C4551 0.950 . S
H4531 C4554 0.950 . S
H4532 C4555 0.950 . S
H4533 C4557 0.950 . S
H4534 C4558 0.950 . S
H4535 C4559 0.951 . S
H4536 C4561 0.951 . S
H4537 C4563 0.950 . S
H4538 C4564 0.950 . S
H4539 C4566 0.950 . S
H4540 C4569 0.950 . S
H4541 C4570 0.950 . S
H4542 C4572 0.950 . S
H4543 C4573 0.950 . S
C4544 H4526 0.951 . S
C4544 C4545 1.366 . S
C4544 C4546 1.388 . S
C4545 C4544 1.366 . S
C4545 C4549 1.385 . S
C4546 H4527 0.951 . S
C4546 C4544 1.388 . S
C4546 C4547 1.366 . S
C4547 C4546 1.366 . S
C4547 C4548 1.414 . S
C4547 C4550 1.499 . S
C4548 H4528 0.950 . S
C4548 C4547 1.414 . S
C4548 C4549 1.374 . S
C4549 H4529 0.950 . S
C4549 C4545 1.385 . S
C4549 C4548 1.374 . S
C4550 C4547 1.499 . S
C4550 C4551 1.373 . S
C4550 C4552 1.389 . S
C4551 H4530 0.950 . S
C4551 C4550 1.373 . S
C4551 C4567 1.377 . S
C4552 C4550 1.389 . S
C4552 C4553 1.524 . S
C4552 C4566 1.377 . S
C4553 C4552 1.524 . S
C4553 C4554 1.397 . S
C4553 C4558 1.363 . S
C4554 H4531 0.950 . S
C4554 C4553 1.397 . S
C4554 C4555 1.334 . S
C4555 H4532 0.950 . S
C4555 C4554 1.334 . S
C4555 C4556 1.287 . S
C4556 C4555 1.287 . S
C4556 C4557 1.524 . S
C4556 H4575 0.913 . S
C4557 H4533 0.950 . S
C4557 C4556 1.524 . S
C4557 C4558 1.415 . S
C4558 H4534 0.950 . S
C4558 C4553 1.363 . S
C4558 C4557 1.415 . S
C4559 H4535 0.951 . S
C4559 C4560 1.366 . S
C4559 C4561 1.388 . S
C4560 C4559 1.366 . S
C4560 C4564 1.385 . S
C4561 H4536 0.951 . S
C4561 C4559 1.388 . S
C4561 C4562 1.366 . S
C4562 C4561 1.366 . S
C4562 C4563 1.414 . S
C4562 C4565 1.499 . S
C4563 H4537 0.950 . S
C4563 C4562 1.414 . S
C4563 C4564 1.374 . S
C4564 H4538 0.950 . S
C4564 C4560 1.385 . S
C4564 C4563 1.374 . S
C4565 C4562 1.499 . S
C4565 C4566 1.373 1_565 S
C4565 C4567 1.389 1_565 S
C4566 H4539 0.950 . S
C4566 C4552 1.377 . S
C4566 C4565 1.373 1_545 S
C4567 C4551 1.377 . S
C4567 C4565 1.389 1_545 S
C4567 C4568 1.524 1_545 S
C4568 C4567 1.524 1_565 S
C4568 C4569 1.397 . S
C4568 C4573 1.363 . S
C4569 H4540 0.950 . S
C4569 C4568 1.397 . S
C4569 C4570 1.334 . S
C4570 H4541 0.950 . S
C4570 C4569 1.334 . S
C4570 C4571 1.287 . S
C4571 C4570 1.287 . S
C4571 C4572 1.524 . S
C4571 H4574 0.999 . S
C4572 H4542 0.950 . S
C4572 C4571 1.524 . S
C4572 C4573 1.415 . S
C4573 H4543 0.950 . S
C4573 C4568 1.363 . S
C4573 C4572 1.415 . S
H4574 C4571 0.999 . S
H4575 C4556 0.913 . S
H4576 C4594 0.951 . S
H4577 C4596 0.951 . S
H4578 C4598 0.950 . S
H4579 C4599 0.950 . S
H4580 C4601 0.950 . S
H4581 C4604 0.950 . S
H4582 C4605 0.950 . S
H4583 C4607 0.950 . S
H4584 C4608 0.950 . S
H4585 C4609 0.951 . S
H4586 C4611 0.951 . S
H4587 C4613 0.950 . S
H4588 C4614 0.950 . S
H4589 C4616 0.950 . S
H4590 C4619 0.950 . S
H4591 C4620 0.950 . S
H4592 C4622 0.950 . S
H4593 C4623 0.950 . S
C4594 H4576 0.951 . S
C4594 C4595 1.366 . S
C4594 C4596 1.388 . S
C4595 C4594 1.366 . S
C4595 C4599 1.385 . S
C4596 H4577 0.951 . S
C4596 C4594 1.388 . S
C4596 C4597 1.366 . S
C4597 C4596 1.366 . S
C4597 C4598 1.414 . S
C4597 C4600 1.499 . S
C4598 H4578 0.950 . S
C4598 C4597 1.414 . S
C4598 C4599 1.374 . S
C4599 H4579 0.950 . S
C4599 C4595 1.385 . S
C4599 C4598 1.374 . S
C4600 C4597 1.499 . S
C4600 C4601 1.373 . S
C4600 C4602 1.389 . S
C4601 H4580 0.950 . S
C4601 C4600 1.373 . S
C4601 C4617 1.377 . S
C4602 C4600 1.389 . S
C4602 C4603 1.524 . S
C4602 C4616 1.377 . S
C4603 C4602 1.524 . S
C4603 C4604 1.397 . S
C4603 C4608 1.363 . S
C4604 H4581 0.950 . S
C4604 C4603 1.397 . S
C4604 C4605 1.334 . S
C4605 H4582 0.950 . S
C4605 C4604 1.334 . S
C4605 C4606 1.287 . S
C4606 C4605 1.287 . S
C4606 C4607 1.524 . S
C4606 H4625 0.913 . S
C4607 H4583 0.950 . S
C4607 C4606 1.524 . S
C4607 C4608 1.415 . S
C4608 H4584 0.950 . S
C4608 C4603 1.363 . S
C4608 C4607 1.415 . S
C4609 H4585 0.951 . S
C4609 C4610 1.366 . S
C4609 C4611 1.388 . S
C4610 C4609 1.366 . S
C4610 C4614 1.385 . S
C4611 H4586 0.951 . S
C4611 C4609 1.388 . S
C4611 C4612 1.366 . S
C4612 C4611 1.366 . S
C4612 C4613 1.414 . S
C4612 C4615 1.499 . S
C4613 H4587 0.950 . S
C4613 C4612 1.414 . S
C4613 C4614 1.374 . S
C4614 H4588 0.950 . S
C4614 C4610 1.385 . S
C4614 C4613 1.374 . S
C4615 C4612 1.499 . S
C4615 C4616 1.373 . S
C4615 C4617 1.389 . S
C4616 H4589 0.950 . S
C4616 C4602 1.377 . S
C4616 C4615 1.373 . S
C4617 C4601 1.377 . S
C4617 C4615 1.389 . S
C4617 C4618 1.524 . S
C4618 C4617 1.524 . S
C4618 C4619 1.397 . S
C4618 C4623 1.363 . S
C4619 H4590 0.950 . S
C4619 C4618 1.397 . S
C4619 C4620 1.334 . S
C4620 H4591 0.950 . S
C4620 C4619 1.334 . S
C4620 C4621 1.287 . S
C4621 C4620 1.287 . S
C4621 C4622 1.524 . S
C4621 H4624 0.999 . S
C4622 H4592 0.950 . S
C4622 C4621 1.524 . S
C4622 C4623 1.415 . S
C4623 H4593 0.950 . S
C4623 C4618 1.363 . S
C4623 C4622 1.415 . S
H4624 C4621 0.999 . S
H4625 C4606 0.913 . S
H4626 C4644 0.951 . S
H4627 C4646 0.951 . S
H4628 C4648 0.950 . S
H4629 C4649 0.950 . S
H4630 C4651 0.950 . S
H4631 C4654 0.950 . S
H4632 C4655 0.950 . S
H4633 C4657 0.950 . S
H4634 C4658 0.950 . S
H4635 C4659 0.951 . S
H4636 C4661 0.951 . S
H4637 C4663 0.950 . S
H4638 C4664 0.950 . S
H4639 C4666 0.950 . S
H4640 C4669 0.950 . S
H4641 C4670 0.950 . S
H4642 C4672 0.950 . S
H4643 C4673 0.950 . S
C4644 H4626 0.951 . S
C4644 C4645 1.366 . S
C4644 C4646 1.388 . S
C4645 C4644 1.366 . S
C4645 C4649 1.385 . S
C4646 H4627 0.951 . S
C4646 C4644 1.388 . S
C4646 C4647 1.366 . S
C4647 C4646 1.366 . S
C4647 C4648 1.414 . S
C4647 C4650 1.499 . S
C4648 H4628 0.950 . S
C4648 C4647 1.414 . S
C4648 C4649 1.374 . S
C4649 H4629 0.950 . S
C4649 C4645 1.385 . S
C4649 C4648 1.374 . S
C4650 C4647 1.499 . S
C4650 C4651 1.373 . S
C4650 C4652 1.389 . S
C4651 H4630 0.950 . S
C4651 C4650 1.373 . S
C4651 C4667 1.377 . S
C4652 C4650 1.389 . S
C4652 C4653 1.524 . S
C4652 C4666 1.377 . S
C4653 C4652 1.524 . S
C4653 C4654 1.397 . S
C4653 C4658 1.363 . S
C4654 H4631 0.950 . S
C4654 C4653 1.397 . S
C4654 C4655 1.334 . S
C4655 H4632 0.950 . S
C4655 C4654 1.334 . S
C4655 C4656 1.287 . S
C4656 C4655 1.287 . S
C4656 C4657 1.524 . S
C4656 H4675 0.913 . S
C4657 H4633 0.950 . S
C4657 C4656 1.524 . S
C4657 C4658 1.415 . S
C4658 H4634 0.950 . S
C4658 C4653 1.363 . S
C4658 C4657 1.415 . S
C4659 H4635 0.951 . S
C4659 C4660 1.366 . S
C4659 C4661 1.388 . S
C4660 C4659 1.366 . S
C4660 C4664 1.385 . S
C4661 H4636 0.951 . S
C4661 C4659 1.388 . S
C4661 C4662 1.366 . S
C4662 C4661 1.366 . S
C4662 C4663 1.414 . S
C4662 C4665 1.499 . S
C4663 H4637 0.950 . S
C4663 C4662 1.414 . S
C4663 C4664 1.374 . S
C4664 H4638 0.950 . S
C4664 C4660 1.385 . S
C4664 C4663 1.374 . S
C4665 C4662 1.499 . S
C4665 C4666 1.373 . S
C4665 C4667 1.389 . S
C4666 H4639 0.950 . S
C4666 C4652 1.377 . S
C4666 C4665 1.373 . S
C4667 C4651 1.377 . S
C4667 C4665 1.389 . S
C4667 C4668 1.524 . S
C4668 C4667 1.524 . S
C4668 C4669 1.397 . S
C4668 C4673 1.363 . S
C4669 H4640 0.950 . S
C4669 C4668 1.397 . S
C4669 C4670 1.334 . S
C4670 H4641 0.950 . S
C4670 C4669 1.334 . S
C4670 C4671 1.287 . S
C4671 C4670 1.287 . S
C4671 C4672 1.524 . S
C4671 H4674 0.999 . S
C4672 H4642 0.950 . S
C4672 C4671 1.524 . S
C4672 C4673 1.415 . S
C4673 H4643 0.950 . S
C4673 C4668 1.363 . S
C4673 C4672 1.415 . S
H4674 C4671 0.999 . S
H4675 C4656 0.913 . S
H4676 C4694 0.951 . S
H4677 C4696 0.951 . S
H4678 C4698 0.950 . S
H4679 C4699 0.950 . S
H4680 C4701 0.950 . S
H4681 C4704 0.950 . S
H4682 C4705 0.950 . S
H4683 C4707 0.950 1_655 S
H4684 C4708 0.950 . S
H4685 C4709 0.951 . S
H4686 C4711 0.951 . S
H4687 C4713 0.950 . S
H4688 C4714 0.950 . S
H4689 C4716 0.950 . S
H4690 C4719 0.950 . S
H4691 C4720 0.950 1_556 S
H4692 C4722 0.950 . S
H4693 C4723 0.950 . S
C4694 H4676 0.951 . S
C4694 C4695 1.366 . S
C4694 C4696 1.388 . S
C4695 C4694 1.366 . S
C4695 C4699 1.385 . S
C4696 H4677 0.951 . S
C4696 C4694 1.388 . S
C4696 C4697 1.366 . S
C4697 C4696 1.366 . S
C4697 C4698 1.414 . S
C4697 C4700 1.499 . S
C4698 H4678 0.950 . S
C4698 C4697 1.414 . S
C4698 C4699 1.374 . S
C4699 H4679 0.950 . S
C4699 C4695 1.385 . S
C4699 C4698 1.374 . S
C4700 C4697 1.499 . S
C4700 C4701 1.373 . S
C4700 C4702 1.389 . S
C4701 H4680 0.950 . S
C4701 C4700 1.373 . S
C4701 C4717 1.377 . S
C4702 C4700 1.389 . S
C4702 C4703 1.524 . S
C4702 C4716 1.377 . S
C4703 C4702 1.524 . S
C4703 C4704 1.397 . S
C4703 C4708 1.363 . S
C4704 H4681 0.950 . S
C4704 C4703 1.397 . S
C4704 C4705 1.334 . S
C4705 H4682 0.950 . S
C4705 C4704 1.334 . S
C4705 C4706 1.287 . S
C4706 C4705 1.287 . S
C4706 C4707 1.524 . S
C4706 H4725 0.913 . S
C4707 H4683 0.950 1_455 S
C4707 C4706 1.524 . S
C4707 C4708 1.415 . S
C4708 H4684 0.950 . S
C4708 C4703 1.363 . S
C4708 C4707 1.415 . S
C4709 H4685 0.951 . S
C4709 C4710 1.366 . S
C4709 C4711 1.388 . S
C4710 C4709 1.366 . S
C4710 C4714 1.385 . S
C4711 H4686 0.951 . S
C4711 C4709 1.388 . S
C4711 C4712 1.366 . S
C4712 C4711 1.366 . S
C4712 C4713 1.414 . S
C4712 C4715 1.499 . S
C4713 H4687 0.950 . S
C4713 C4712 1.414 . S
C4713 C4714 1.374 . S
C4714 H4688 0.950 . S
C4714 C4710 1.385 . S
C4714 C4713 1.374 . S
C4715 C4712 1.499 . S
C4715 C4716 1.373 . S
C4715 C4717 1.389 . S
C4716 H4689 0.950 . S
C4716 C4702 1.377 . S
C4716 C4715 1.373 . S
C4717 C4701 1.377 . S
C4717 C4715 1.389 . S
C4717 C4718 1.524 . S
C4718 C4717 1.524 . S
C4718 C4719 1.397 . S
C4718 C4723 1.363 . S
C4719 H4690 0.950 . S
C4719 C4718 1.397 . S
C4719 C4720 1.334 . S
C4720 H4691 0.950 1_554 S
C4720 C4719 1.334 . S
C4720 C4721 1.287 . S
C4721 C4720 1.287 . S
C4721 C4722 1.524 . S
C4721 H4724 0.999 1_554 S
C4722 H4692 0.950 . S
C4722 C4721 1.524 . S
C4722 C4723 1.415 . S
C4723 H4693 0.950 . S
C4723 C4718 1.363 . S
C4723 C4722 1.415 . S
H4724 C4721 0.999 1_556 S
H4725 C4706 0.913 . S
H4726 C4744 0.951 . S
H4727 C4746 0.951 . S
H4728 C4748 0.950 . S
H4729 C4749 0.950 . S
H4730 C4751 0.950 . S
H4731 C4754 0.950 . S
H4732 C4755 0.950 . S
H4733 C4757 0.950 . S
H4734 C4758 0.950 . S
H4735 C4759 0.951 . S
H4736 C4761 0.951 . S
H4737 C4763 0.950 . S
H4738 C4764 0.950 . S
H4739 C4766 0.950 . S
H4740 C4769 0.950 . S
H4741 C4770 0.950 . S
H4742 C4772 0.950 . S
H4743 C4773 0.950 . S
C4744 H4726 0.951 . S
C4744 C4745 1.366 . S
C4744 C4746 1.388 . S
C4745 C4744 1.366 . S
C4745 C4749 1.385 . S
C4746 H4727 0.951 . S
C4746 C4744 1.388 . S
C4746 C4747 1.366 . S
C4747 C4746 1.366 . S
C4747 C4748 1.414 . S
C4747 C4750 1.499 . S
C4748 H4728 0.950 . S
C4748 C4747 1.414 . S
C4748 C4749 1.374 . S
C4749 H4729 0.950 . S
C4749 C4745 1.385 . S
C4749 C4748 1.374 . S
C4750 C4747 1.499 . S
C4750 C4751 1.373 . S
C4750 C4752 1.389 . S
C4751 H4730 0.950 . S
C4751 C4750 1.373 . S
C4751 C4767 1.377 . S
C4752 C4750 1.389 . S
C4752 C4753 1.524 . S
C4752 C4766 1.377 . S
C4753 C4752 1.524 . S
C4753 C4754 1.397 . S
C4753 C4758 1.363 . S
C4754 H4731 0.950 . S
C4754 C4753 1.397 . S
C4754 C4755 1.334 . S
C4755 H4732 0.950 . S
C4755 C4754 1.334 . S
C4755 C4756 1.287 . S
C4756 C4755 1.287 . S
C4756 C4757 1.524 . S
C4756 H4775 0.913 . S
C4757 H4733 0.950 . S
C4757 C4756 1.524 . S
C4757 C4758 1.415 . S
C4758 H4734 0.950 . S
C4758 C4753 1.363 . S
C4758 C4757 1.415 . S
C4759 H4735 0.951 . S
C4759 C4760 1.366 . S
C4759 C4761 1.388 . S
C4760 C4759 1.366 . S
C4760 C4764 1.385 . S
C4761 H4736 0.951 . S
C4761 C4759 1.388 . S
C4761 C4762 1.366 . S
C4762 C4761 1.366 . S
C4762 C4763 1.414 . S
C4762 C4765 1.499 . S
C4763 H4737 0.950 . S
C4763 C4762 1.414 . S
C4763 C4764 1.374 . S
C4764 H4738 0.950 . S
C4764 C4760 1.385 . S
C4764 C4763 1.374 . S
C4765 C4762 1.499 . S
C4765 C4766 1.373 . S
C4765 C4767 1.389 . S
C4766 H4739 0.950 . S
C4766 C4752 1.377 . S
C4766 C4765 1.373 . S
C4767 C4751 1.377 . S
C4767 C4765 1.389 . S
C4767 C4768 1.524 . S
C4768 C4767 1.524 . S
C4768 C4769 1.397 . S
C4768 C4773 1.363 . S
C4769 H4740 0.950 . S
C4769 C4768 1.397 . S
C4769 C4770 1.334 . S
C4770 H4741 0.950 . S
C4770 C4769 1.334 . S
C4770 C4771 1.287 . S
C4771 C4770 1.287 . S
C4771 C4772 1.524 . S
C4771 H4774 0.999 . S
C4772 H4742 0.950 . S
C4772 C4771 1.524 . S
C4772 C4773 1.415 . S
C4773 H4743 0.950 . S
C4773 C4768 1.363 . S
C4773 C4772 1.415 . S
H4774 C4771 0.999 . S
H4775 C4756 0.913 . S
H4776 C4794 0.951 . S
H4777 C4796 0.951 . S
H4778 C4798 0.950 . S
H4779 C4799 0.950 . S
H4780 C4801 0.950 . S
H4781 C4804 0.950 . S
H4782 C4805 0.950 . S
H4783 C4807 0.950 . S
H4784 C4808 0.950 . S
H4785 C4809 0.951 . S
H4786 C4811 0.951 . S
H4787 C4813 0.950 . S
H4788 C4814 0.950 . S
H4789 C4816 0.950 . S
H4790 C4819 0.950 . S
H4791 C4820 0.950 . S
H4792 C4822 0.950 . S
H4793 C4823 0.950 . S
C4794 H4776 0.951 . S
C4794 C4795 1.366 . S
C4794 C4796 1.388 . S
C4795 C4794 1.366 . S
C4795 C4799 1.385 . S
C4796 H4777 0.951 . S
C4796 C4794 1.388 . S
C4796 C4797 1.366 . S
C4797 C4796 1.366 . S
C4797 C4798 1.414 . S
C4797 C4800 1.499 . S
C4798 H4778 0.950 . S
C4798 C4797 1.414 . S
C4798 C4799 1.374 . S
C4799 H4779 0.950 . S
C4799 C4795 1.385 . S
C4799 C4798 1.374 . S
C4800 C4797 1.499 . S
C4800 C4801 1.373 . S
C4800 C4802 1.389 . S
C4801 H4780 0.950 . S
C4801 C4800 1.373 . S
C4801 C4817 1.377 . S
C4802 C4800 1.389 . S
C4802 C4803 1.524 . S
C4802 C4816 1.377 . S
C4803 C4802 1.524 . S
C4803 C4804 1.397 . S
C4803 C4808 1.363 . S
C4804 H4781 0.950 . S
C4804 C4803 1.397 . S
C4804 C4805 1.334 . S
C4805 H4782 0.950 . S
C4805 C4804 1.334 . S
C4805 C4806 1.287 . S
C4806 C4805 1.287 . S
C4806 C4807 1.524 . S
C4806 H4825 0.913 . S
C4807 H4783 0.950 . S
C4807 C4806 1.524 . S
C4807 C4808 1.415 . S
C4808 H4784 0.950 . S
C4808 C4803 1.363 . S
C4808 C4807 1.415 . S
C4809 H4785 0.951 . S
C4809 C4810 1.366 . S
C4809 C4811 1.388 . S
C4810 C4809 1.366 . S
C4810 C4814 1.385 . S
C4811 H4786 0.951 . S
C4811 C4809 1.388 . S
C4811 C4812 1.366 . S
C4812 C4811 1.366 . S
C4812 C4813 1.414 . S
C4812 C4815 1.499 . S
C4813 H4787 0.950 . S
C4813 C4812 1.414 . S
C4813 C4814 1.374 . S
C4814 H4788 0.950 . S
C4814 C4810 1.385 . S
C4814 C4813 1.374 . S
C4815 C4812 1.499 . S
C4815 C4816 1.373 . S
C4815 C4817 1.389 . S
C4816 H4789 0.950 . S
C4816 C4802 1.377 . S
C4816 C4815 1.373 . S
C4817 C4801 1.377 . S
C4817 C4815 1.389 . S
C4817 C4818 1.524 . S
C4818 C4817 1.524 . S
C4818 C4819 1.397 . S
C4818 C4823 1.363 . S
C4819 H4790 0.950 . S
C4819 C4818 1.397 . S
C4819 C4820 1.334 . S
C4820 H4791 0.950 . S
C4820 C4819 1.334 . S
C4820 C4821 1.287 . S
C4821 C4820 1.287 . S
C4821 C4822 1.524 . S
C4821 H4824 0.999 . S
C4822 H4792 0.950 . S
C4822 C4821 1.524 . S
C4822 C4823 1.415 . S
C4823 H4793 0.950 . S
C4823 C4818 1.363 . S
C4823 C4822 1.415 . S
H4824 C4821 0.999 . S
H4825 C4806 0.913 . S
H4826 C4844 0.951 . S
H4827 C4846 0.951 . S
H4828 C4848 0.950 . S
H4829 C4849 0.950 . S
H4830 C4851 0.950 . S
H4831 C4854 0.950 . S
H4832 C4855 0.950 . S
H4833 C4857 0.950 . S
H4834 C4858 0.950 . S
H4835 C4859 0.951 . S
H4836 C4861 0.951 . S
H4837 C4863 0.950 . S
H4838 C4864 0.950 . S
H4839 C4866 0.950 . S
H4840 C4869 0.950 . S
H4841 C4870 0.950 . S
H4842 C4872 0.950 . S
H4843 C4873 0.950 . S
C4844 H4826 0.951 . S
C4844 C4845 1.366 . S
C4844 C4846 1.388 . S
C4845 C4844 1.366 . S
C4845 C4849 1.385 . S
C4846 H4827 0.951 . S
C4846 C4844 1.388 . S
C4846 C4847 1.366 . S
C4847 C4846 1.366 . S
C4847 C4848 1.414 . S
C4847 C4850 1.499 . S
C4848 H4828 0.950 . S
C4848 C4847 1.414 . S
C4848 C4849 1.374 . S
C4849 H4829 0.950 . S
C4849 C4845 1.385 . S
C4849 C4848 1.374 . S
C4850 C4847 1.499 . S
C4850 C4851 1.373 . S
C4850 C4852 1.389 . S
C4851 H4830 0.950 . S
C4851 C4850 1.373 . S
C4851 C4867 1.377 . S
C4852 C4850 1.389 . S
C4852 C4853 1.524 . S
C4852 C4866 1.377 . S
C4853 C4852 1.524 . S
C4853 C4854 1.397 . S
C4853 C4858 1.363 . S
C4854 H4831 0.950 . S
C4854 C4853 1.397 . S
C4854 C4855 1.334 . S
C4855 H4832 0.950 . S
C4855 C4854 1.334 . S
C4855 C4856 1.287 . S
C4856 C4855 1.287 . S
C4856 C4857 1.524 . S
C4856 H4875 0.913 . S
C4857 H4833 0.950 . S
C4857 C4856 1.524 . S
C4857 C4858 1.415 . S
C4858 H4834 0.950 . S
C4858 C4853 1.363 . S
C4858 C4857 1.415 . S
C4859 H4835 0.951 . S
C4859 C4860 1.366 . S
C4859 C4861 1.388 . S
C4860 C4859 1.366 . S
C4860 C4864 1.385 . S
C4861 H4836 0.951 . S
C4861 C4859 1.388 . S
C4861 C4862 1.366 . S
C4862 C4861 1.366 . S
C4862 C4863 1.414 . S
C4862 C4865 1.499 . S
C4863 H4837 0.950 . S
C4863 C4862 1.414 . S
C4863 C4864 1.374 . S
C4864 H4838 0.950 . S
C4864 C4860 1.385 . S
C4864 C4863 1.374 . S
C4865 C4862 1.499 . S
C4865 C4866 1.373 . S
C4865 C4867 1.389 . S
C4866 H4839 0.950 . S
C4866 C4852 1.377 . S
C4866 C4865 1.373 . S
C4867 C4851 1.377 . S
C4867 C4865 1.389 . S
C4867 C4868 1.524 . S
C4868 C4867 1.524 . S
C4868 C4869 1.397 . S
C4868 C4873 1.363 . S
C4869 H4840 0.950 . S
C4869 C4868 1.397 . S
C4869 C4870 1.334 . S
C4870 H4841 0.950 . S
C4870 C4869 1.334 . S
C4870 C4871 1.287 . S
C4871 C4870 1.287 . S
C4871 C4872 1.524 . S
C4871 H4874 0.999 . S
C4872 H4842 0.950 . S
C4872 C4871 1.524 . S
C4872 C4873 1.415 . S
C4873 H4843 0.950 . S
C4873 C4868 1.363 . S
C4873 C4872 1.415 . S
H4874 C4871 0.999 . S
H4875 C4856 0.913 . S
H4876 C4894 0.951 . S
H4877 C4896 0.951 . S
H4878 C4898 0.950 1_655 S
H4879 C4899 0.950 1_655 S
H4880 C4901 0.950 1_655 S
H4881 C4904 0.950 . S
H4882 C4905 0.950 . S
H4883 C4907 0.950 . S
H4884 C4908 0.950 . S
H4885 C4909 0.951 . S
H4886 C4911 0.951 . S
H4887 C4913 0.950 . S
H4888 C4914 0.950 . S
H4889 C4916 0.950 . S
H4890 C4919 0.950 . S
H4891 C4920 0.950 . S
H4892 C4922 0.950 . S
H4893 C4923 0.950 . S
C4894 H4876 0.951 . S
C4894 C4895 1.366 . S
C4894 C4896 1.388 . S
C4895 C4894 1.366 . S
C4895 C4899 1.385 . S
C4896 H4877 0.951 . S
C4896 C4894 1.388 . S
C4896 C4897 1.366 . S
C4897 C4896 1.366 . S
C4897 C4898 1.414 . S
C4897 C4900 1.499 . S
C4898 H4878 0.950 1_455 S
C4898 C4897 1.414 . S
C4898 C4899 1.374 . S
C4899 H4879 0.950 1_455 S
C4899 C4895 1.385 . S
C4899 C4898 1.374 . S
C4900 C4897 1.499 . S
C4900 C4901 1.373 . S
C4900 C4902 1.389 . S
C4901 H4880 0.950 1_455 S
C4901 C4900 1.373 . S
C4901 C4917 1.377 . S
C4902 C4900 1.389 . S
C4902 C4903 1.524 . S
C4902 C4916 1.377 . S
C4903 C4902 1.524 . S
C4903 C4904 1.397 . S
C4903 C4908 1.363 . S
C4904 H4881 0.950 . S
C4904 C4903 1.397 . S
C4904 C4905 1.334 . S
C4905 H4882 0.950 . S
C4905 C4904 1.334 . S
C4905 C4906 1.287 . S
C4906 C4905 1.287 . S
C4906 C4907 1.524 . S
C4906 H4925 0.913 . S
C4907 H4883 0.950 . S
C4907 C4906 1.524 . S
C4907 C4908 1.415 . S
C4908 H4884 0.950 . S
C4908 C4903 1.363 . S
C4908 C4907 1.415 . S
C4909 H4885 0.951 . S
C4909 C4910 1.366 . S
C4909 C4911 1.388 . S
C4910 C4909 1.366 . S
C4910 C4914 1.385 . S
C4911 H4886 0.951 . S
C4911 C4909 1.388 . S
C4911 C4912 1.366 . S
C4912 C4911 1.366 . S
C4912 C4913 1.414 . S
C4912 C4915 1.499 . S
C4913 H4887 0.950 . S
C4913 C4912 1.414 . S
C4913 C4914 1.374 . S
C4914 H4888 0.950 . S
C4914 C4910 1.385 . S
C4914 C4913 1.374 . S
C4915 C4912 1.499 . S
C4915 C4916 1.373 . S
C4915 C4917 1.389 . S
C4916 H4889 0.950 . S
C4916 C4902 1.377 . S
C4916 C4915 1.373 . S
C4917 C4901 1.377 . S
C4917 C4915 1.389 . S
C4917 C4918 1.524 1_455 S
C4918 C4917 1.524 1_655 S
C4918 C4919 1.397 . S
C4918 C4923 1.363 . S
C4919 H4890 0.950 . S
C4919 C4918 1.397 . S
C4919 C4920 1.334 . S
C4920 H4891 0.950 . S
C4920 C4919 1.334 . S
C4920 C4921 1.287 . S
C4921 C4920 1.287 . S
C4921 C4922 1.524 . S
C4921 H4924 0.999 . S
C4922 H4892 0.950 . S
C4922 C4921 1.524 . S
C4922 C4923 1.415 . S
C4923 H4893 0.950 . S
C4923 C4918 1.363 . S
C4923 C4922 1.415 . S
H4924 C4921 0.999 . S
H4925 C4906 0.913 . S
H4926 C4944 0.951 . S
H4927 C4946 0.951 . S
H4928 C4948 0.950 . S
H4929 C4949 0.950 . S
H4930 C4951 0.950 . S
H4931 C4954 0.950 . S
H4932 C4955 0.950 . S
H4933 C4957 0.950 . S
H4934 C4958 0.950 . S
H4935 C4959 0.951 . S
H4936 C4961 0.951 . S
H4937 C4963 0.950 . S
H4938 C4964 0.950 . S
H4939 C4966 0.950 . S
H4940 C4969 0.950 . S
H4941 C4970 0.950 . S
H4942 C4972 0.950 . S
H4943 C4973 0.950 . S
C4944 H4926 0.951 . S
C4944 C4945 1.366 . S
C4944 C4946 1.388 . S
C4945 C4944 1.366 . S
C4945 C4949 1.385 . S
C4946 H4927 0.951 . S
C4946 C4944 1.388 . S
C4946 C4947 1.366 . S
C4947 C4946 1.366 . S
C4947 C4948 1.414 . S
C4947 C4950 1.499 . S
C4948 H4928 0.950 . S
C4948 C4947 1.414 . S
C4948 C4949 1.374 . S
C4949 H4929 0.950 . S
C4949 C4945 1.385 . S
C4949 C4948 1.374 . S
C4950 C4947 1.499 . S
C4950 C4951 1.373 . S
C4950 C4952 1.389 . S
C4951 H4930 0.950 . S
C4951 C4950 1.373 . S
C4951 C4967 1.377 . S
C4952 C4950 1.389 . S
C4952 C4953 1.524 . S
C4952 C4966 1.377 . S
C4953 C4952 1.524 . S
C4953 C4954 1.397 . S
C4953 C4958 1.363 . S
C4954 H4931 0.950 . S
C4954 C4953 1.397 . S
C4954 C4955 1.334 . S
C4955 H4932 0.950 . S
C4955 C4954 1.334 . S
C4955 C4956 1.287 . S
C4956 C4955 1.287 . S
C4956 C4957 1.524 . S
C4956 H4975 0.913 . S
C4957 H4933 0.950 . S
C4957 C4956 1.524 . S
C4957 C4958 1.415 . S
C4958 H4934 0.950 . S
C4958 C4953 1.363 . S
C4958 C4957 1.415 . S
C4959 H4935 0.951 . S
C4959 C4960 1.366 . S
C4959 C4961 1.388 . S
C4960 C4959 1.366 . S
C4960 C4964 1.385 . S
C4961 H4936 0.951 . S
C4961 C4959 1.388 . S
C4961 C4962 1.366 . S
C4962 C4961 1.366 . S
C4962 C4963 1.414 . S
C4962 C4965 1.499 . S
C4963 H4937 0.950 . S
C4963 C4962 1.414 . S
C4963 C4964 1.374 . S
C4964 H4938 0.950 . S
C4964 C4960 1.385 . S
C4964 C4963 1.374 . S
C4965 C4962 1.499 . S
C4965 C4966 1.373 . S
C4965 C4967 1.389 . S
C4966 H4939 0.950 . S
C4966 C4952 1.377 . S
C4966 C4965 1.373 . S
C4967 C4951 1.377 . S
C4967 C4965 1.389 . S
C4967 C4968 1.524 . S
C4968 C4967 1.524 . S
C4968 C4969 1.397 . S
C4968 C4973 1.363 . S
C4969 H4940 0.950 . S
C4969 C4968 1.397 . S
C4969 C4970 1.334 . S
C4970 H4941 0.950 . S
C4970 C4969 1.334 . S
C4970 C4971 1.287 . S
C4971 C4970 1.287 . S
C4971 C4972 1.524 . S
C4971 H4974 0.999 . S
C4972 H4942 0.950 . S
C4972 C4971 1.524 . S
C4972 C4973 1.415 . S
C4973 H4943 0.950 . S
C4973 C4968 1.363 . S
C4973 C4972 1.415 . S
H4974 C4971 0.999 . S
H4975 C4956 0.913 . S
H4976 C4994 0.951 . S
H4977 C4996 0.951 . S
H4978 C4998 0.950 . S
H4979 C4999 0.950 . S
H4980 C5001 0.950 . S
H4981 C5004 0.950 . S
H4982 C5005 0.950 . S
H4983 C5007 0.950 . S
H4984 C5008 0.950 . S
H4985 C5009 0.951 . S
H4986 C5011 0.951 . S
H4987 C5013 0.950 . S
H4988 C5014 0.950 . S
H4989 C5016 0.950 . S
H4990 C5019 0.950 . S
H4991 C5020 0.950 . S
H4992 C5022 0.950 . S
H4993 C5023 0.950 . S
C4994 H4976 0.951 . S
C4994 C4995 1.366 . S
C4994 C4996 1.388 . S
C4995 C4994 1.366 . S
C4995 C4999 1.385 . S
C4996 H4977 0.951 . S
C4996 C4994 1.388 . S
C4996 C4997 1.366 . S
C4997 C4996 1.366 . S
C4997 C4998 1.414 . S
C4997 C5000 1.499 . S
C4998 H4978 0.950 . S
C4998 C4997 1.414 . S
C4998 C4999 1.374 . S
C4999 H4979 0.950 . S
C4999 C4995 1.385 . S
C4999 C4998 1.374 . S
C5000 C4997 1.499 . S
C5000 C5001 1.373 . S
C5000 C5002 1.389 . S
C5001 H4980 0.950 . S
C5001 C5000 1.373 . S
C5001 C5017 1.377 . S
C5002 C5000 1.389 . S
C5002 C5003 1.524 . S
C5002 C5016 1.377 . S
C5003 C5002 1.524 . S
C5003 C5004 1.397 . S
C5003 C5008 1.363 . S
C5004 H4981 0.950 . S
C5004 C5003 1.397 . S
C5004 C5005 1.334 . S
C5005 H4982 0.950 . S
C5005 C5004 1.334 . S
C5005 C5006 1.287 . S
C5006 C5005 1.287 . S
C5006 C5007 1.524 . S
C5006 H5025 0.913 . S
C5007 H4983 0.950 . S
C5007 C5006 1.524 . S
C5007 C5008 1.415 . S
C5008 H4984 0.950 . S
C5008 C5003 1.363 . S
C5008 C5007 1.415 . S
C5009 H4985 0.951 . S
C5009 C5010 1.366 . S
C5009 C5011 1.388 . S
C5010 C5009 1.366 . S
C5010 C5014 1.385 . S
C5011 H4986 0.951 . S
C5011 C5009 1.388 . S
C5011 C5012 1.366 . S
C5012 C5011 1.366 . S
C5012 C5013 1.414 . S
C5012 C5015 1.499 . S
C5013 H4987 0.950 . S
C5013 C5012 1.414 . S
C5013 C5014 1.374 . S
C5014 H4988 0.950 . S
C5014 C5010 1.385 . S
C5014 C5013 1.374 . S
C5015 C5012 1.499 . S
C5015 C5016 1.373 . S
C5015 C5017 1.389 . S
C5016 H4989 0.950 . S
C5016 C5002 1.377 . S
C5016 C5015 1.373 . S
C5017 C5001 1.377 . S
C5017 C5015 1.389 . S
C5017 C5018 1.524 . S
C5018 C5017 1.524 . S
C5018 C5019 1.397 . S
C5018 C5023 1.363 . S
C5019 H4990 0.950 . S
C5019 C5018 1.397 . S
C5019 C5020 1.334 . S
C5020 H4991 0.950 . S
C5020 C5019 1.334 . S
C5020 C5021 1.287 . S
C5021 C5020 1.287 . S
C5021 C5022 1.524 . S
C5021 H5024 0.999 . S
C5022 H4992 0.950 . S
C5022 C5021 1.524 . S
C5022 C5023 1.415 . S
C5023 H4993 0.950 . S
C5023 C5018 1.363 . S
C5023 C5022 1.415 . S
H5024 C5021 0.999 . S
H5025 C5006 0.913 . S
H5026 C5044 0.951 . S
H5027 C5046 0.951 . S
H5028 C5048 0.950 . S
H5029 C5049 0.950 . S
H5030 C5051 0.950 . S
H5031 C5054 0.950 . S
H5032 C5055 0.950 . S
H5033 C5057 0.950 . S
H5034 C5058 0.950 . S
H5035 C5059 0.951 . S
H5036 C5061 0.951 . S
H5037 C5063 0.950 . S
H5038 C5064 0.950 . S
H5039 C5066 0.950 . S
H5040 C5069 0.950 . S
H5041 C5070 0.950 . S
H5042 C5072 0.950 . S
H5043 C5073 0.950 . S
C5044 H5026 0.951 . S
C5044 C5045 1.366 . S
C5044 C5046 1.388 . S
C5045 C5044 1.366 . S
C5045 C5049 1.385 . S
C5046 H5027 0.951 . S
C5046 C5044 1.388 . S
C5046 C5047 1.366 . S
C5047 C5046 1.366 . S
C5047 C5048 1.414 . S
C5047 C5050 1.499 . S
C5048 H5028 0.950 . S
C5048 C5047 1.414 . S
C5048 C5049 1.374 . S
C5049 H5029 0.950 . S
C5049 C5045 1.385 . S
C5049 C5048 1.374 . S
C5050 C5047 1.499 . S
C5050 C5051 1.373 . S
C5050 C5052 1.389 . S
C5051 H5030 0.950 . S
C5051 C5050 1.373 . S
C5051 C5067 1.377 . S
C5052 C5050 1.389 . S
C5052 C5053 1.524 . S
C5052 C5066 1.377 . S
C5053 C5052 1.524 . S
C5053 C5054 1.397 . S
C5053 C5058 1.363 . S
C5054 H5031 0.950 . S
C5054 C5053 1.397 . S
C5054 C5055 1.334 . S
C5055 H5032 0.950 . S
C5055 C5054 1.334 . S
C5055 C5056 1.287 . S
C5056 C5055 1.287 . S
C5056 C5057 1.524 . S
C5056 H5075 0.913 . S
C5057 H5033 0.950 . S
C5057 C5056 1.524 . S
C5057 C5058 1.415 . S
C5058 H5034 0.950 . S
C5058 C5053 1.363 . S
C5058 C5057 1.415 . S
C5059 H5035 0.951 . S
C5059 C5060 1.366 . S
C5059 C5061 1.388 . S
C5060 C5059 1.366 . S
C5060 C5064 1.385 . S
C5061 H5036 0.951 . S
C5061 C5059 1.388 . S
C5061 C5062 1.366 . S
C5062 C5061 1.366 . S
C5062 C5063 1.414 . S
C5062 C5065 1.499 . S
C5063 H5037 0.950 . S
C5063 C5062 1.414 . S
C5063 C5064 1.374 . S
C5064 H5038 0.950 . S
C5064 C5060 1.385 . S
C5064 C5063 1.374 . S
C5065 C5062 1.499 . S
C5065 C5066 1.373 . S
C5065 C5067 1.389 . S
C5066 H5039 0.950 . S
C5066 C5052 1.377 . S
C5066 C5065 1.373 . S
C5067 C5051 1.377 . S
C5067 C5065 1.389 . S
C5067 C5068 1.524 . S
C5068 C5067 1.524 . S
C5068 C5069 1.397 . S
C5068 C5073 1.363 . S
C5069 H5040 0.950 . S
C5069 C5068 1.397 . S
C5069 C5070 1.334 . S
C5070 H5041 0.950 . S
C5070 C5069 1.334 . S
C5070 C5071 1.287 . S
C5071 C5070 1.287 . S
C5071 C5072 1.524 . S
C5071 H5074 0.999 . S
C5072 H5042 0.950 . S
C5072 C5071 1.524 . S
C5072 C5073 1.415 . S
C5073 H5043 0.950 . S
C5073 C5068 1.363 . S
C5073 C5072 1.415 . S
H5074 C5071 0.999 . S
H5075 C5056 0.913 . S
H5076 C5094 0.951 . S
H5077 C5096 0.951 . S
H5078 C5098 0.950 . S
H5079 C5099 0.950 . S
H5080 C5101 0.950 . S
H5081 C5104 0.950 . S
H5082 C5105 0.950 . S
H5083 C5107 0.950 . S
H5084 C5108 0.932 1_655 S
H5085 C5109 0.951 . S
H5086 C5111 0.951 . S
H5087 C5113 0.950 1_655 S
H5088 C5114 0.950 . S
H5089 C5116 0.950 . S
H5090 C5119 0.950 . S
H5091 C5120 0.950 . S
H5092 C5122 0.950 . S
H5093 C5123 0.950 . S
C5094 H5076 0.951 . S
C5094 C5095 1.366 . S
C5094 C5096 1.388 . S
C5095 C5094 1.366 . S
C5095 C5099 1.385 . S
C5096 H5077 0.951 . S
C5096 C5094 1.388 . S
C5096 C5097 1.366 . S
C5097 C5096 1.366 . S
C5097 C5098 1.414 . S
C5097 C5100 1.499 . S
C5098 H5078 0.950 . S
C5098 C5097 1.414 . S
C5098 C5099 1.374 . S
C5099 H5079 0.950 . S
C5099 C5095 1.385 . S
C5099 C5098 1.374 . S
C5100 C5097 1.499 . S
C5100 C5101 1.373 . S
C5100 C5102 1.389 . S
C5101 H5080 0.950 . S
C5101 C5100 1.373 . S
C5101 C5117 1.377 . S
C5102 C5100 1.389 . S
C5102 C5103 1.524 1_655 S
C5102 C5116 1.377 1_655 S
C5103 C5102 1.524 1_455 S
C5103 C5104 1.397 . S
C5103 C5108 1.377 . S
C5104 H5081 0.950 . S
C5104 C5103 1.397 . S
C5104 C5105 1.334 . S
C5105 H5082 0.950 . S
C5105 C5104 1.334 . S
C5105 C5106 1.287 . S
C5106 C5105 1.287 . S
C5106 C5107 1.524 . S
C5106 H5125 0.913 . S
C5107 H5083 0.950 . S
C5107 C5106 1.524 . S
C5107 C5108 1.420 . S
C5108 H5084 0.932 1_455 S
C5108 C5103 1.377 . S
C5108 C5107 1.420 . S
C5109 H5085 0.951 . S
C5109 C5110 1.366 . S
C5109 C5111 1.388 . S
C5110 C5109 1.366 . S
C5110 C5114 1.385 . S
C5111 H5086 0.951 . S
C5111 C5109 1.388 . S
C5111 C5112 1.366 . S
C5112 C5111 1.366 . S
C5112 C5113 1.414 . S
C5112 C5115 1.499 1_455 S
C5113 H5087 0.950 1_455 S
C5113 C5112 1.414 . S
C5113 C5114 1.374 . S
C5114 H5088 0.950 . S
C5114 C5110 1.385 . S
C5114 C5113 1.374 . S
C5115 C5112 1.499 1_655 S
C5115 C5116 1.373 1_655 S
C5115 C5117 1.389 . S
C5116 H5089 0.950 . S
C5116 C5102 1.377 1_455 S
C5116 C5115 1.373 1_455 S
C5117 C5101 1.377 . S
C5117 C5115 1.389 . S
C5117 C5118 1.524 . S
C5118 C5117 1.524 . S
C5118 C5119 1.397 . S
C5118 C5123 1.363 . S
C5119 H5090 0.950 . S
C5119 C5118 1.397 . S
C5119 C5120 1.334 . S
C5120 H5091 0.950 . S
C5120 C5119 1.334 . S
C5120 C5121 1.287 . S
C5121 C5120 1.287 . S
C5121 C5122 1.524 . S
C5121 H5124 0.999 . S
C5122 H5092 0.950 . S
C5122 C5121 1.524 . S
C5122 C5123 1.415 . S
C5123 H5093 0.950 . S
C5123 C5118 1.363 . S
C5123 C5122 1.415 . S
H5124 C5121 0.999 . S
H5125 C5106 0.913 . S
H5126 C5144 0.951 . S
H5127 C5146 0.951 . S
H5128 C5148 0.950 . S
H5129 C5149 0.950 . S
H5130 C5151 0.950 . S
H5131 C5154 0.950 . S
H5132 C5155 0.950 . S
H5133 C5157 0.950 . S
H5134 C5158 0.950 . S
H5135 C5159 0.951 . S
H5136 C5161 0.951 . S
H5137 C5163 0.950 . S
H5138 C5164 0.950 . S
H5139 C5166 0.950 . S
H5140 C5169 0.950 . S
H5141 C5170 0.950 . S
H5142 C5172 0.950 . S
H5143 C5173 0.950 . S
C5144 H5126 0.951 . S
C5144 C5145 1.366 . S
C5144 C5146 1.388 . S
C5145 C5144 1.366 . S
C5145 C5149 1.385 . S
C5146 H5127 0.951 . S
C5146 C5144 1.388 . S
C5146 C5147 1.366 . S
C5147 C5146 1.366 . S
C5147 C5148 1.414 . S
C5147 C5150 1.499 . S
C5148 H5128 0.950 . S
C5148 C5147 1.414 . S
C5148 C5149 1.374 . S
C5149 H5129 0.950 . S
C5149 C5145 1.385 . S
C5149 C5148 1.374 . S
C5150 C5147 1.499 . S
C5150 C5151 1.373 . S
C5150 C5152 1.389 . S
C5151 H5130 0.950 . S
C5151 C5150 1.373 . S
C5151 C5167 1.377 . S
C5152 C5150 1.389 . S
C5152 C5153 1.524 . S
C5152 C5166 1.377 . S
C5153 C5152 1.524 . S
C5153 C5154 1.397 . S
C5153 C5158 1.363 . S
C5154 H5131 0.950 . S
C5154 C5153 1.397 . S
C5154 C5155 1.334 . S
C5155 H5132 0.950 . S
C5155 C5154 1.334 . S
C5155 C5156 1.287 . S
C5156 C5155 1.287 . S
C5156 C5157 1.524 . S
C5156 H5175 0.913 . S
C5157 H5133 0.950 . S
C5157 C5156 1.524 . S
C5157 C5158 1.415 . S
C5158 H5134 0.950 . S
C5158 C5153 1.363 . S
C5158 C5157 1.415 . S
C5159 H5135 0.951 . S
C5159 C5160 1.366 . S
C5159 C5161 1.388 . S
C5160 C5159 1.366 . S
C5160 C5164 1.385 . S
C5161 H5136 0.951 . S
C5161 C5159 1.388 . S
C5161 C5162 1.366 . S
C5162 C5161 1.366 . S
C5162 C5163 1.414 . S
C5162 C5165 1.499 . S
C5163 H5137 0.950 . S
C5163 C5162 1.414 . S
C5163 C5164 1.374 . S
C5164 H5138 0.950 . S
C5164 C5160 1.385 . S
C5164 C5163 1.374 . S
C5165 C5162 1.499 . S
C5165 C5166 1.373 . S
C5165 C5167 1.389 . S
C5166 H5139 0.950 . S
C5166 C5152 1.377 . S
C5166 C5165 1.373 . S
C5167 C5151 1.377 . S
C5167 C5165 1.389 . S
C5167 C5168 1.524 . S
C5168 C5167 1.524 . S
C5168 C5169 1.397 . S
C5168 C5173 1.363 . S
C5169 H5140 0.950 . S
C5169 C5168 1.397 . S
C5169 C5170 1.334 . S
C5170 H5141 0.950 . S
C5170 C5169 1.334 . S
C5170 C5171 1.287 . S
C5171 C5170 1.287 . S
C5171 C5172 1.524 . S
C5171 H5174 0.999 . S
C5172 H5142 0.950 . S
C5172 C5171 1.524 . S
C5172 C5173 1.415 . S
C5173 H5143 0.950 . S
C5173 C5168 1.363 . S
C5173 C5172 1.415 . S
H5174 C5171 0.999 . S
H5175 C5156 0.913 . S
H5176 C5194 0.951 . S
H5177 C5196 0.951 . S
H5178 C5198 0.950 . S
H5179 C5199 0.950 . S
H5180 C5201 0.950 . S
H5181 C5204 0.950 . S
H5182 C5205 0.950 . S
H5183 C5207 0.950 . S
H5184 C5208 0.950 . S
H5185 C5209 0.951 . S
H5186 C5211 0.951 . S
H5187 C5213 0.950 . S
H5188 C5214 0.950 . S
H5189 C5216 0.950 . S
H5190 C5219 0.950 . S
H5191 C5220 0.950 . S
H5192 C5222 0.950 . S
H5193 C5223 0.950 . S
C5194 H5176 0.951 . S
C5194 C5195 1.366 . S
C5194 C5196 1.388 . S
C5195 C5194 1.366 . S
C5195 C5199 1.385 . S
C5196 H5177 0.951 . S
C5196 C5194 1.388 . S
C5196 C5197 1.366 . S
C5197 C5196 1.366 . S
C5197 C5198 1.414 . S
C5197 C5200 1.499 . S
C5198 H5178 0.950 . S
C5198 C5197 1.414 . S
C5198 C5199 1.374 . S
C5199 H5179 0.950 . S
C5199 C5195 1.385 . S
C5199 C5198 1.374 . S
C5200 C5197 1.499 . S
C5200 C5201 1.373 . S
C5200 C5202 1.389 . S
C5201 H5180 0.950 . S
C5201 C5200 1.373 . S
C5201 C5217 1.377 . S
C5202 C5200 1.389 . S
C5202 C5203 1.524 . S
C5202 C5216 1.377 . S
C5203 C5202 1.524 . S
C5203 C5204 1.397 . S
C5203 C5208 1.363 . S
C5204 H5181 0.950 . S
C5204 C5203 1.397 . S
C5204 C5205 1.334 . S
C5205 H5182 0.950 . S
C5205 C5204 1.334 . S
C5205 C5206 1.287 . S
C5206 C5205 1.287 . S
C5206 C5207 1.524 . S
C5206 H5225 0.913 . S
C5207 H5183 0.950 . S
C5207 C5206 1.524 . S
C5207 C5208 1.415 . S
C5208 H5184 0.950 . S
C5208 C5203 1.363 . S
C5208 C5207 1.415 . S
C5209 H5185 0.951 . S
C5209 C5210 1.366 . S
C5209 C5211 1.388 . S
C5210 C5209 1.366 . S
C5210 C5214 1.385 . S
C5211 H5186 0.951 . S
C5211 C5209 1.388 . S
C5211 C5212 1.366 . S
C5212 C5211 1.366 . S
C5212 C5213 1.414 . S
C5212 C5215 1.499 . S
C5213 H5187 0.950 . S
C5213 C5212 1.414 . S
C5213 C5214 1.374 . S
C5214 H5188 0.950 . S
C5214 C5210 1.385 . S
C5214 C5213 1.374 . S
C5215 C5212 1.499 . S
C5215 C5216 1.373 . S
C5215 C5217 1.389 . S
C5216 H5189 0.950 . S
C5216 C5202 1.377 . S
C5216 C5215 1.373 . S
C5217 C5201 1.377 . S
C5217 C5215 1.389 . S
C5217 C5218 1.524 . S
C5218 C5217 1.524 . S
C5218 C5219 1.397 . S
C5218 C5223 1.363 . S
C5219 H5190 0.950 . S
C5219 C5218 1.397 . S
C5219 C5220 1.334 . S
C5220 H5191 0.950 . S
C5220 C5219 1.334 . S
C5220 C5221 1.287 . S
C5221 C5220 1.287 . S
C5221 C5222 1.524 . S
C5221 H5224 0.999 . S
C5222 H5192 0.950 . S
C5222 C5221 1.524 . S
C5222 C5223 1.415 . S
C5223 H5193 0.950 . S
C5223 C5218 1.363 . S
C5223 C5222 1.415 . S
H5224 C5221 0.999 . S
H5225 C5206 0.913 . S
H5226 C5244 0.951 . S
H5227 C5246 0.951 . S
H5228 C5248 0.950 . S
H5229 C5249 0.950 . S
H5230 C5251 0.950 . S
H5231 C5254 0.950 . S
H5232 C5255 0.950 . S
H5233 C5257 0.950 . S
H5234 C5258 0.950 . S
H5235 C5259 0.951 . S
H5236 C5261 0.951 . S
H5237 C5263 0.950 . S
H5238 C5264 0.950 . S
H5239 C5266 0.950 . S
H5240 C5269 0.950 . S
H5241 C5270 0.950 . S
H5242 C5272 0.950 . S
H5243 C5273 0.950 . S
C5244 H5226 0.951 . S
C5244 C5245 1.366 . S
C5244 C5246 1.388 . S
C5245 C5244 1.366 . S
C5245 C5249 1.385 . S
C5246 H5227 0.951 . S
C5246 C5244 1.388 . S
C5246 C5247 1.366 . S
C5247 C5246 1.366 . S
C5247 C5248 1.414 . S
C5247 C5250 1.499 . S
C5248 H5228 0.950 . S
C5248 C5247 1.414 . S
C5248 C5249 1.374 . S
C5249 H5229 0.950 . S
C5249 C5245 1.385 . S
C5249 C5248 1.374 . S
C5250 C5247 1.499 . S
C5250 C5251 1.373 . S
C5250 C5252 1.389 . S
C5251 H5230 0.950 . S
C5251 C5250 1.373 . S
C5251 C5267 1.377 . S
C5252 C5250 1.389 . S
C5252 C5253 1.524 . S
C5252 C5266 1.377 . S
C5253 C5252 1.524 . S
C5253 C5254 1.397 . S
C5253 C5258 1.363 . S
C5254 H5231 0.950 . S
C5254 C5253 1.397 . S
C5254 C5255 1.334 . S
C5255 H5232 0.950 . S
C5255 C5254 1.334 . S
C5255 C5256 1.287 . S
C5256 C5255 1.287 . S
C5256 C5257 1.524 . S
C5256 H5275 0.913 . S
C5257 H5233 0.950 . S
C5257 C5256 1.524 . S
C5257 C5258 1.415 . S
C5258 H5234 0.950 . S
C5258 C5253 1.363 . S
C5258 C5257 1.415 . S
C5259 H5235 0.951 . S
C5259 C5260 1.366 . S
C5259 C5261 1.388 . S
C5260 C5259 1.366 . S
C5260 C5264 1.385 . S
C5261 H5236 0.951 . S
C5261 C5259 1.388 . S
C5261 C5262 1.366 . S
C5262 C5261 1.366 . S
C5262 C5263 1.414 . S
C5262 C5265 1.499 . S
C5263 H5237 0.950 . S
C5263 C5262 1.414 . S
C5263 C5264 1.374 . S
C5264 H5238 0.950 . S
C5264 C5260 1.385 . S
C5264 C5263 1.374 . S
C5265 C5262 1.499 . S
C5265 C5266 1.373 . S
C5265 C5267 1.389 . S
C5266 H5239 0.950 . S
C5266 C5252 1.377 . S
C5266 C5265 1.373 . S
C5267 C5251 1.377 . S
C5267 C5265 1.389 . S
C5267 C5268 1.524 . S
C5268 C5267 1.524 . S
C5268 C5269 1.397 . S
C5268 C5273 1.363 . S
C5269 H5240 0.950 . S
C5269 C5268 1.397 . S
C5269 C5270 1.334 . S
C5270 H5241 0.950 . S
C5270 C5269 1.334 . S
C5270 C5271 1.287 . S
C5271 C5270 1.287 . S
C5271 C5272 1.524 . S
C5271 H5274 0.999 . S
C5272 H5242 0.950 . S
C5272 C5271 1.524 . S
C5272 C5273 1.415 . S
C5273 H5243 0.950 . S
C5273 C5268 1.363 . S
C5273 C5272 1.415 . S
H5274 C5271 0.999 . S
H5275 C5256 0.913 . S
H5276 C5294 0.951 . S
H5277 C5296 0.951 . S
H5278 C5298 0.950 . S
H5279 C5299 0.950 . S
H5280 C5301 0.950 . S
H5281 C5304 0.950 . S
H5282 C5305 0.928 1_455 S
H5283 C5307 0.950 . S
H5284 C5308 0.950 . S
H5285 C5309 0.951 1_455 S
H5286 C5311 0.956 . S
H5287 C5313 0.950 . S
H5288 C5314 0.950 . S
H5289 C5316 0.950 . S
H5290 C5319 0.950 . S
H5291 C5320 0.950 . S
H5292 C5322 0.950 . S
H5293 C5323 0.950 . S
C5294 H5276 0.951 . S
C5294 C5295 1.366 . S
C5294 C5296 1.388 . S
C5295 C5294 1.366 . S
C5295 C5299 1.385 . S
C5296 H5277 0.951 . S
C5296 C5294 1.388 . S
C5296 C5297 1.366 . S
C5297 C5296 1.366 . S
C5297 C5298 1.414 . S
C5297 C5300 1.499 . S
C5298 H5278 0.950 . S
C5298 C5297 1.414 . S
C5298 C5299 1.374 . S
C5299 H5279 0.950 . S
C5299 C5295 1.385 . S
C5299 C5298 1.374 . S
C5300 C5297 1.499 . S
C5300 C5301 1.373 . S
C5300 C5302 1.389 . S
C5301 H5280 0.950 . S
C5301 C5300 1.373 . S
C5301 C5317 1.377 . S
C5302 C5300 1.389 . S
C5302 C5303 1.524 . S
C5302 C5316 1.377 . S
C5303 C5302 1.524 . S
C5303 C5304 1.397 . S
C5303 C5308 1.363 . S
C5304 H5281 0.950 . S
C5304 C5303 1.397 . S
C5304 C5305 1.334 . S
C5305 H5282 0.928 1_655 S
C5305 C5304 1.334 . S
C5305 C5306 1.287 . S
C5306 C5305 1.287 . S
C5306 C5307 1.524 . S
C5306 H5325 0.913 . S
C5307 H5283 0.950 . S
C5307 C5306 1.524 . S
C5307 C5308 1.415 . S
C5308 H5284 0.950 . S
C5308 C5303 1.363 . S
C5308 C5307 1.415 . S
C5309 H5285 0.951 1_655 S
C5309 C5310 1.366 . S
C5309 C5311 1.388 . S
C5310 C5309 1.366 . S
C5310 C5314 1.385 . S
C5311 H5286 0.956 . S
C5311 C5309 1.388 . S
C5311 C5312 1.366 . S
C5312 C5311 1.366 . S
C5312 C5313 1.414 . S
C5312 C5315 1.499 . S
C5313 H5287 0.950 . S
C5313 C5312 1.414 . S
C5313 C5314 1.374 . S
C5314 H5288 0.950 . S
C5314 C5310 1.385 . S
C5314 C5313 1.374 . S
C5315 C5312 1.499 . S
C5315 C5316 1.373 . S
C5315 C5317 1.389 . S
C5316 H5289 0.950 . S
C5316 C5302 1.377 . S
C5316 C5315 1.373 . S
C5317 C5301 1.377 . S
C5317 C5315 1.389 . S
C5317 C5318 1.524 . S
C5318 C5317 1.524 . S
C5318 C5319 1.397 . S
C5318 C5323 1.363 . S
C5319 H5290 0.950 . S
C5319 C5318 1.397 . S
C5319 C5320 1.334 . S
C5320 H5291 0.950 . S
C5320 C5319 1.334 . S
C5320 C5321 1.287 . S
C5321 C5320 1.287 . S
C5321 C5322 1.524 . S
C5321 H5324 0.999 . S
C5322 H5292 0.950 . S
C5322 C5321 1.524 . S
C5322 C5323 1.415 . S
C5323 H5293 0.950 . S
C5323 C5318 1.363 . S
C5323 C5322 1.415 . S
H5324 C5321 0.999 . S
H5325 C5306 0.913 . S
H5326 C5344 0.951 . S
H5327 C5346 0.951 . S
H5328 C5348 0.950 . S
H5329 C5349 0.950 . S
H5330 C5351 0.950 . S
H5331 C5354 0.950 . S
H5332 C5355 0.950 . S
H5333 C5357 0.950 . S
H5334 C5358 0.950 . S
H5335 C5359 0.951 . S
H5336 C5361 0.951 . S
H5337 C5363 0.950 . S
H5338 C5364 0.950 . S
H5339 C5366 0.950 . S
H5340 C5369 0.950 . S
H5341 C5370 0.950 . S
H5342 C5372 0.950 . S
H5343 C5373 0.950 . S
C5344 H5326 0.951 . S
C5344 C5345 1.366 . S
C5344 C5346 1.388 . S
C5345 C5344 1.366 . S
C5345 C5349 1.385 . S
C5346 H5327 0.951 . S
C5346 C5344 1.388 . S
C5346 C5347 1.366 . S
C5347 C5346 1.366 . S
C5347 C5348 1.414 . S
C5347 C5350 1.499 . S
C5348 H5328 0.950 . S
C5348 C5347 1.414 . S
C5348 C5349 1.374 . S
C5349 H5329 0.950 . S
C5349 C5345 1.385 . S
C5349 C5348 1.374 . S
C5350 C5347 1.499 . S
C5350 C5351 1.373 . S
C5350 C5352 1.389 . S
C5351 H5330 0.950 . S
C5351 C5350 1.373 . S
C5351 C5367 1.377 . S
C5352 C5350 1.389 . S
C5352 C5353 1.524 . S
C5352 C5366 1.377 . S
C5353 C5352 1.524 . S
C5353 C5354 1.397 . S
C5353 C5358 1.363 . S
C5354 H5331 0.950 . S
C5354 C5353 1.397 . S
C5354 C5355 1.334 . S
C5355 H5332 0.950 . S
C5355 C5354 1.334 . S
C5355 C5356 1.287 . S
C5356 C5355 1.287 . S
C5356 C5357 1.524 . S
C5356 H5375 0.913 . S
C5357 H5333 0.950 . S
C5357 C5356 1.524 . S
C5357 C5358 1.415 . S
C5358 H5334 0.950 . S
C5358 C5353 1.363 . S
C5358 C5357 1.415 . S
C5359 H5335 0.951 . S
C5359 C5360 1.366 . S
C5359 C5361 1.388 . S
C5360 C5359 1.366 . S
C5360 C5364 1.385 . S
C5361 H5336 0.951 . S
C5361 C5359 1.388 . S
C5361 C5362 1.366 . S
C5362 C5361 1.366 . S
C5362 C5363 1.414 . S
C5362 C5365 1.499 . S
C5363 H5337 0.950 . S
C5363 C5362 1.414 . S
C5363 C5364 1.374 . S
C5364 H5338 0.950 . S
C5364 C5360 1.385 . S
C5364 C5363 1.374 . S
C5365 C5362 1.499 . S
C5365 C5366 1.373 . S
C5365 C5367 1.389 . S
C5366 H5339 0.950 . S
C5366 C5352 1.377 . S
C5366 C5365 1.373 . S
C5367 C5351 1.377 . S
C5367 C5365 1.389 . S
C5367 C5368 1.524 . S
C5368 C5367 1.524 . S
C5368 C5369 1.397 . S
C5368 C5373 1.363 . S
C5369 H5340 0.950 . S
C5369 C5368 1.397 . S
C5369 C5370 1.334 . S
C5370 H5341 0.950 . S
C5370 C5369 1.334 . S
C5370 C5371 1.287 . S
C5371 C5370 1.287 . S
C5371 C5372 1.524 . S
C5371 H5374 0.999 . S
C5372 H5342 0.950 . S
C5372 C5371 1.524 . S
C5372 C5373 1.415 . S
C5373 H5343 0.950 . S
C5373 C5368 1.363 . S
C5373 C5372 1.415 . S
H5374 C5371 0.999 . S
H5375 C5356 0.913 . S
H5376 C5394 0.951 . S
H5377 C5396 0.951 . S
H5378 C5398 0.950 . S
H5379 C5399 0.950 . S
H5380 C5401 0.950 . S
H5381 C5404 0.950 . S
H5382 C5405 0.950 . S
H5383 C5407 0.950 . S
H5384 C5408 0.950 . S
H5385 C5409 0.951 . S
H5386 C5411 0.951 . S
H5387 C5413 0.950 . S
H5388 C5414 0.950 . S
H5389 C5416 0.950 . S
H5390 C5419 0.950 . S
H5391 C5420 0.950 . S
H5392 C5422 0.950 . S
H5393 C5423 0.950 . S
C5394 H5376 0.951 . S
C5394 C5395 1.366 . S
C5394 C5396 1.388 . S
C5395 C5394 1.366 . S
C5395 C5399 1.385 . S
C5396 H5377 0.951 . S
C5396 C5394 1.388 . S
C5396 C5397 1.366 . S
C5397 C5396 1.366 . S
C5397 C5398 1.414 . S
C5397 C5400 1.499 . S
C5398 H5378 0.950 . S
C5398 C5397 1.414 . S
C5398 C5399 1.374 . S
C5399 H5379 0.950 . S
C5399 C5395 1.385 . S
C5399 C5398 1.374 . S
C5400 C5397 1.499 . S
C5400 C5401 1.373 . S
C5400 C5402 1.389 . S
C5401 H5380 0.950 . S
C5401 C5400 1.373 . S
C5401 C5417 1.377 . S
C5402 C5400 1.389 . S
C5402 C5403 1.524 . S
C5402 C5416 1.377 . S
C5403 C5402 1.524 . S
C5403 C5404 1.397 . S
C5403 C5408 1.363 . S
C5404 H5381 0.950 . S
C5404 C5403 1.397 . S
C5404 C5405 1.334 . S
C5405 H5382 0.950 . S
C5405 C5404 1.334 . S
C5405 C5406 1.287 . S
C5406 C5405 1.287 . S
C5406 C5407 1.524 . S
C5406 H5425 0.913 . S
C5407 H5383 0.950 . S
C5407 C5406 1.524 . S
C5407 C5408 1.415 . S
C5408 H5384 0.950 . S
C5408 C5403 1.363 . S
C5408 C5407 1.415 . S
C5409 H5385 0.951 . S
C5409 C5410 1.366 . S
C5409 C5411 1.388 . S
C5410 C5409 1.366 . S
C5410 C5414 1.385 . S
C5411 H5386 0.951 . S
C5411 C5409 1.388 . S
C5411 C5412 1.366 . S
C5412 C5411 1.366 . S
C5412 C5413 1.414 . S
C5412 C5415 1.499 . S
C5413 H5387 0.950 . S
C5413 C5412 1.414 . S
C5413 C5414 1.374 . S
C5414 H5388 0.950 . S
C5414 C5410 1.385 . S
C5414 C5413 1.374 . S
C5415 C5412 1.499 . S
C5415 C5416 1.373 . S
C5415 C5417 1.389 . S
C5416 H5389 0.950 . S
C5416 C5402 1.377 . S
C5416 C5415 1.373 . S
C5417 C5401 1.377 . S
C5417 C5415 1.389 . S
C5417 C5418 1.524 . S
C5418 C5417 1.524 . S
C5418 C5419 1.397 . S
C5418 C5423 1.363 . S
C5419 H5390 0.950 . S
C5419 C5418 1.397 . S
C5419 C5420 1.334 . S
C5420 H5391 0.950 . S
C5420 C5419 1.334 . S
C5420 C5421 1.287 . S
C5421 C5420 1.287 . S
C5421 C5422 1.524 . S
C5421 H5424 0.999 . S
C5422 H5392 0.950 . S
C5422 C5421 1.524 . S
C5422 C5423 1.415 . S
C5423 H5393 0.950 . S
C5423 C5418 1.363 . S
C5423 C5422 1.415 . S
H5424 C5421 0.999 . S
H5425 C5406 0.913 . S
H5426 C5444 0.951 . S
H5427 C5446 0.951 . S
H5428 C5448 0.950 . S
H5429 C5449 0.950 . S
H5430 C5451 0.950 . S
H5431 C5454 0.950 . S
H5432 C5455 0.950 . S
H5433 C5457 0.950 . S
H5434 C5458 0.950 . S
H5435 C5459 0.951 . S
H5436 C5461 0.951 . S
H5437 C5463 0.950 1_565 S
H5438 C5464 0.950 . S
H5439 C5466 0.950 . S
H5440 C5469 0.950 1_565 S
H5441 C5470 0.950 . S
H5442 C5472 0.950 . S
H5443 C5473 0.950 . S
C5444 H5426 0.951 . S
C5444 C5445 1.366 . S
C5444 C5446 1.388 . S
C5445 C5444 1.366 . S
C5445 C5449 1.385 . S
C5446 H5427 0.951 . S
C5446 C5444 1.388 . S
C5446 C5447 1.366 . S
C5447 C5446 1.366 . S
C5447 C5448 1.414 . S
C5447 C5450 1.499 . S
C5448 H5428 0.950 . S
C5448 C5447 1.414 . S
C5448 C5449 1.374 . S
C5449 H5429 0.950 . S
C5449 C5445 1.385 . S
C5449 C5448 1.374 . S
C5450 C5447 1.499 . S
C5450 C5451 1.373 . S
C5450 C5452 1.389 . S
C5451 H5430 0.950 . S
C5451 C5450 1.373 . S
C5451 C5467 1.377 1_565 S
C5452 C5450 1.389 . S
C5452 C5453 1.524 . S
C5452 C5466 1.377 . S
C5453 C5452 1.524 . S
C5453 C5454 1.397 . S
C5453 C5458 1.363 . S
C5454 H5431 0.950 . S
C5454 C5453 1.397 . S
C5454 C5455 1.334 . S
C5455 H5432 0.950 . S
C5455 C5454 1.334 . S
C5455 C5456 1.287 . S
C5456 C5455 1.287 . S
C5456 C5457 1.524 . S
C5456 H5475 0.913 . S
C5457 H5433 0.950 . S
C5457 C5456 1.524 . S
C5457 C5458 1.415 . S
C5458 H5434 0.950 . S
C5458 C5453 1.363 . S
C5458 C5457 1.415 . S
C5459 H5435 0.951 . S
C5459 C5460 1.366 . S
C5459 C5461 1.388 . S
C5460 C5459 1.366 . S
C5460 C5464 1.385 . S
C5461 H5436 0.951 . S
C5461 C5459 1.388 . S
C5461 C5462 1.366 . S
C5462 C5461 1.366 . S
C5462 C5463 1.414 . S
C5462 C5465 1.499 . S
C5463 H5437 0.950 1_545 S
C5463 C5462 1.414 . S
C5463 C5464 1.374 . S
C5464 H5438 0.950 . S
C5464 C5460 1.385 . S
C5464 C5463 1.374 . S
C5465 C5462 1.499 . S
C5465 C5466 1.373 1_545 S
C5465 C5467 1.389 . S
C5466 H5439 0.950 . S
C5466 C5452 1.377 . S
C5466 C5465 1.373 1_565 S
C5467 C5451 1.377 1_545 S
C5467 C5465 1.389 . S
C5467 C5468 1.524 . S
C5468 C5467 1.524 . S
C5468 C5469 1.397 . S
C5468 C5473 1.363 . S
C5469 H5440 0.950 1_545 S
C5469 C5468 1.397 . S
C5469 C5470 1.334 . S
C5470 H5441 0.950 . S
C5470 C5469 1.334 . S
C5470 C5471 1.287 . S
C5471 C5470 1.287 . S
C5471 C5472 1.524 . S
C5471 H5474 0.999 . S
C5472 H5442 0.950 . S
C5472 C5471 1.524 . S
C5472 C5473 1.415 . S
C5473 H5443 0.950 . S
C5473 C5468 1.363 . S
C5473 C5472 1.415 . S
H5474 C5471 0.999 . S
H5475 C5456 0.913 . S
H5476 C5494 0.951 . S
H5477 C5496 0.951 . S
H5478 C5498 0.950 . S
H5479 C5499 0.950 . S
H5480 C5501 0.950 . S
H5481 C5504 0.950 . S
H5482 C5505 0.950 . S
H5483 C5507 0.950 . S
H5484 C5508 0.950 . S
H5485 C5509 0.951 . S
H5486 C5511 0.951 . S
H5487 C5513 0.950 . S
H5488 C5514 0.950 . S
H5489 C5516 0.950 . S
H5490 C5519 0.950 . S
H5491 C5520 0.950 . S
H5492 C5522 0.950 . S
H5493 C5523 0.950 . S
C5494 H5476 0.951 . S
C5494 C5495 1.366 . S
C5494 C5496 1.388 . S
C5495 C5494 1.366 . S
C5495 C5499 1.385 . S
C5496 H5477 0.951 . S
C5496 C5494 1.388 . S
C5496 C5497 1.366 . S
C5497 C5496 1.366 . S
C5497 C5498 1.414 . S
C5497 C5500 1.499 . S
C5498 H5478 0.950 . S
C5498 C5497 1.414 . S
C5498 C5499 1.374 . S
C5499 H5479 0.950 . S
C5499 C5495 1.385 . S
C5499 C5498 1.374 . S
C5500 C5497 1.499 . S
C5500 C5501 1.373 . S
C5500 C5502 1.389 . S
C5501 H5480 0.950 . S
C5501 C5500 1.373 . S
C5501 C5517 1.377 . S
C5502 C5500 1.389 . S
C5502 C5503 1.524 . S
C5502 C5516 1.377 . S
C5503 C5502 1.524 . S
C5503 C5504 1.397 . S
C5503 C5508 1.363 . S
C5504 H5481 0.950 . S
C5504 C5503 1.397 . S
C5504 C5505 1.334 . S
C5505 H5482 0.950 . S
C5505 C5504 1.334 . S
C5505 C5506 1.287 . S
C5506 C5505 1.287 . S
C5506 C5507 1.524 . S
C5506 H5525 0.913 . S
C5507 H5483 0.950 . S
C5507 C5506 1.524 . S
C5507 C5508 1.415 . S
C5508 H5484 0.950 . S
C5508 C5503 1.363 . S
C5508 C5507 1.415 . S
C5509 H5485 0.951 . S
C5509 C5510 1.366 . S
C5509 C5511 1.388 . S
C5510 C5509 1.366 . S
C5510 C5514 1.385 . S
C5511 H5486 0.951 . S
C5511 C5509 1.388 . S
C5511 C5512 1.366 . S
C5512 C5511 1.366 . S
C5512 C5513 1.414 . S
C5512 C5515 1.499 . S
C5513 H5487 0.950 . S
C5513 C5512 1.414 . S
C5513 C5514 1.374 . S
C5514 H5488 0.950 . S
C5514 C5510 1.385 . S
C5514 C5513 1.374 . S
C5515 C5512 1.499 . S
C5515 C5516 1.373 . S
C5515 C5517 1.389 . S
C5516 H5489 0.950 . S
C5516 C5502 1.377 . S
C5516 C5515 1.373 . S
C5517 C5501 1.377 . S
C5517 C5515 1.389 . S
C5517 C5518 1.524 . S
C5518 C5517 1.524 . S
C5518 C5519 1.397 . S
C5518 C5523 1.363 . S
C5519 H5490 0.950 . S
C5519 C5518 1.397 . S
C5519 C5520 1.334 . S
C5520 H5491 0.950 . S
C5520 C5519 1.334 . S
C5520 C5521 1.287 . S
C5521 C5520 1.287 . S
C5521 C5522 1.524 . S
C5521 H5524 0.999 . S
C5522 H5492 0.950 . S
C5522 C5521 1.524 . S
C5522 C5523 1.415 . S
C5523 H5493 0.950 . S
C5523 C5518 1.363 . S
C5523 C5522 1.415 . S
H5524 C5521 0.999 . S
H5525 C5506 0.913 . S
H5526 C5544 0.951 . S
H5527 C5546 0.951 . S
H5528 C5548 0.950 . S
H5529 C5549 0.950 . S
H5530 C5551 0.950 . S
H5531 C5554 0.950 . S
H5532 C5555 0.950 . S
H5533 C5557 0.950 . S
H5534 C5558 0.950 . S
H5535 C5559 0.951 . S
H5536 C5561 0.951 . S
H5537 C5563 0.950 . S
H5538 C5564 0.950 . S
H5539 C5566 0.950 . S
H5540 C5569 0.950 . S
H5541 C5570 0.950 . S
H5542 C5572 0.950 . S
H5543 C5573 0.950 . S
C5544 H5526 0.951 . S
C5544 C5545 1.366 1_554 S
C5544 C5546 1.388 . S
C5545 C5544 1.366 1_556 S
C5545 C5549 1.385 . S
C5546 H5527 0.951 . S
C5546 C5544 1.388 . S
C5546 C5547 1.366 1_554 S
C5547 C5546 1.366 1_556 S
C5547 C5548 1.414 . S
C5547 C5550 1.495 1_556 S
C5548 H5528 0.950 . S
C5548 C5547 1.414 . S
C5548 C5549 1.374 . S
C5549 H5529 0.950 . S
C5549 C5545 1.385 . S
C5549 C5548 1.374 . S
C5550 C5547 1.495 1_554 S
C5550 C5551 1.365 1_554 S
C5550 C5552 1.402 . S
C5551 H5530 0.950 . S
C5551 C5550 1.365 1_556 S
C5551 C5567 1.377 . S
C5552 C5550 1.402 . S
C5552 C5553 1.524 . S
C5552 C5566 1.377 . S
C5553 C5552 1.524 . S
C5553 C5554 1.397 . S
C5553 C5558 1.363 . S
C5554 H5531 0.950 . S
C5554 C5553 1.397 . S
C5554 C5555 1.334 . S
C5555 H5532 0.950 . S
C5555 C5554 1.334 . S
C5555 C5556 1.287 . S
C5556 C5555 1.287 . S
C5556 C5557 1.524 . S
C5556 H5575 0.913 . S
C5557 H5533 0.950 . S
C5557 C5556 1.524 . S
C5557 C5558 1.415 . S
C5558 H5534 0.950 . S
C5558 C5553 1.363 . S
C5558 C5557 1.415 . S
C5559 H5535 0.951 . S
C5559 C5560 1.366 1_556 S
C5559 C5561 1.388 . S
C5560 C5559 1.366 1_554 S
C5560 C5564 1.385 . S
C5561 H5536 0.951 . S
C5561 C5559 1.388 . S
C5561 C5562 1.366 1_556 S
C5562 C5561 1.366 1_554 S
C5562 C5563 1.414 . S
C5562 C5565 1.499 . S
C5563 H5537 0.950 . S
C5563 C5562 1.414 . S
C5563 C5564 1.374 . S
C5564 H5538 0.950 . S
C5564 C5560 1.385 . S
C5564 C5563 1.374 . S
C5565 C5562 1.499 . S
C5565 C5566 1.373 . S
C5565 C5567 1.389 1_554 S
C5566 H5539 0.950 . S
C5566 C5552 1.377 . S
C5566 C5565 1.373 . S
C5567 C5551 1.377 . S
C5567 C5565 1.389 1_556 S
C5567 C5568 1.524 . S
C5568 C5567 1.524 . S
C5568 C5569 1.397 . S
C5568 C5573 1.363 . S
C5569 H5540 0.950 . S
C5569 C5568 1.397 . S
C5569 C5570 1.334 . S
C5570 H5541 0.950 . S
C5570 C5569 1.334 . S
C5570 C5571 1.287 . S
C5571 C5570 1.287 . S
C5571 C5572 1.524 . S
C5571 H5574 0.999 . S
C5572 H5542 0.950 . S
C5572 C5571 1.524 . S
C5572 C5573 1.415 . S
C5573 H5543 0.950 . S
C5573 C5568 1.363 . S
C5573 C5572 1.415 . S
H5574 C5571 0.999 . S
H5575 C5556 0.913 . S
H5576 C5594 0.951 . S
H5577 C5596 0.951 . S
H5578 C5598 0.950 . S
H5579 C5599 0.950 . S
H5580 C5601 0.950 . S
H5581 C5604 0.950 . S
H5582 C5605 0.950 . S
H5583 C5607 0.950 . S
H5584 C5608 0.950 . S
H5585 C5609 0.951 . S
H5586 C5611 0.951 . S
H5587 C5613 0.950 . S
H5588 C5614 0.950 . S
H5589 C5616 0.950 . S
H5590 C5619 0.950 . S
H5591 C5620 0.950 . S
H5592 C5622 0.950 . S
H5593 C5623 0.950 . S
C5594 H5576 0.951 . S
C5594 C5595 1.366 . S
C5594 C5596 1.388 . S
C5595 C5594 1.366 . S
C5595 C5599 1.385 . S
C5596 H5577 0.951 . S
C5596 C5594 1.388 . S
C5596 C5597 1.366 . S
C5597 C5596 1.366 . S
C5597 C5598 1.414 . S
C5597 C5600 1.499 . S
C5598 H5578 0.950 . S
C5598 C5597 1.414 . S
C5598 C5599 1.374 . S
C5599 H5579 0.950 . S
C5599 C5595 1.385 . S
C5599 C5598 1.374 . S
C5600 C5597 1.499 . S
C5600 C5601 1.373 . S
C5600 C5602 1.389 . S
C5601 H5580 0.950 . S
C5601 C5600 1.373 . S
C5601 C5617 1.377 . S
C5602 C5600 1.389 . S
C5602 C5603 1.524 . S
C5602 C5616 1.377 . S
C5603 C5602 1.524 . S
C5603 C5604 1.397 . S
C5603 C5608 1.363 . S
C5604 H5581 0.950 . S
C5604 C5603 1.397 . S
C5604 C5605 1.334 . S
C5605 H5582 0.950 . S
C5605 C5604 1.334 . S
C5605 C5606 1.287 . S
C5606 C5605 1.287 . S
C5606 C5607 1.524 . S
C5606 H5625 0.913 . S
C5607 H5583 0.950 . S
C5607 C5606 1.524 . S
C5607 C5608 1.415 . S
C5608 H5584 0.950 . S
C5608 C5603 1.363 . S
C5608 C5607 1.415 . S
C5609 H5585 0.951 . S
C5609 C5610 1.366 . S
C5609 C5611 1.388 . S
C5610 C5609 1.366 . S
C5610 C5614 1.385 . S
C5611 H5586 0.951 . S
C5611 C5609 1.388 . S
C5611 C5612 1.366 . S
C5612 C5611 1.366 . S
C5612 C5613 1.414 . S
C5612 C5615 1.499 . S
C5613 H5587 0.950 . S
C5613 C5612 1.414 . S
C5613 C5614 1.374 . S
C5614 H5588 0.950 . S
C5614 C5610 1.385 . S
C5614 C5613 1.374 . S
C5615 C5612 1.499 . S
C5615 C5616 1.373 . S
C5615 C5617 1.389 . S
C5616 H5589 0.950 . S
C5616 C5602 1.377 . S
C5616 C5615 1.373 . S
C5617 C5601 1.377 . S
C5617 C5615 1.389 . S
C5617 C5618 1.524 . S
C5618 C5617 1.524 . S
C5618 C5619 1.397 . S
C5618 C5623 1.363 . S
C5619 H5590 0.950 . S
C5619 C5618 1.397 . S
C5619 C5620 1.334 . S
C5620 H5591 0.950 . S
C5620 C5619 1.334 . S
C5620 C5621 1.287 . S
C5621 C5620 1.287 . S
C5621 C5622 1.524 . S
C5621 H5624 0.999 . S
C5622 H5592 0.950 . S
C5622 C5621 1.524 . S
C5622 C5623 1.415 . S
C5623 H5593 0.950 . S
C5623 C5618 1.363 . S
C5623 C5622 1.415 . S
H5624 C5621 0.999 . S
H5625 C5606 0.913 . S
H5626 C5644 0.951 . S
H5627 C5646 0.951 . S
H5628 C5648 0.950 1_556 S
H5629 C5649 0.950 1_556 S
H5630 C5651 0.950 . S
H5631 C5654 0.950 . S
H5632 C5655 0.950 . S
H5633 C5657 0.950 . S
H5634 C5658 0.950 . S
H5635 C5659 0.951 . S
H5636 C5661 0.951 . S
H5637 C5663 0.950 . S
H5638 C5664 0.950 . S
H5639 C5666 0.950 . S
H5640 C5669 0.950 . S
H5641 C5670 0.950 . S
H5642 C5672 0.950 . S
H5643 C5673 0.950 . S
C5644 H5626 0.951 . S
C5644 C5645 1.366 . S
C5644 C5646 1.388 . S
C5645 C5644 1.366 . S
C5645 C5649 1.385 . S
C5646 H5627 0.951 . S
C5646 C5644 1.388 . S
C5646 C5647 1.366 . S
C5647 C5646 1.366 . S
C5647 C5648 1.414 . S
C5647 C5650 1.499 . S
C5648 H5628 0.950 1_554 S
C5648 C5647 1.414 . S
C5648 C5649 1.374 . S
C5649 H5629 0.950 1_554 S
C5649 C5645 1.385 . S
C5649 C5648 1.374 . S
C5650 C5647 1.499 . S
C5650 C5651 1.373 . S
C5650 C5652 1.389 . S
C5651 H5630 0.950 . S
C5651 C5650 1.373 . S
C5651 C5667 1.377 . S
C5652 C5650 1.389 . S
C5652 C5653 1.524 . S
C5652 C5666 1.377 . S
C5653 C5652 1.524 . S
C5653 C5654 1.397 . S
C5653 C5658 1.363 . S
C5654 H5631 0.950 . S
C5654 C5653 1.397 . S
C5654 C5655 1.334 . S
C5655 H5632 0.950 . S
C5655 C5654 1.334 . S
C5655 C5656 1.287 . S
C5656 C5655 1.287 . S
C5656 C5657 1.524 . S
C5656 H5675 0.913 . S
C5657 H5633 0.950 . S
C5657 C5656 1.524 . S
C5657 C5658 1.415 . S
C5658 H5634 0.950 . S
C5658 C5653 1.363 . S
C5658 C5657 1.415 . S
C5659 H5635 0.951 . S
C5659 C5660 1.366 . S
C5659 C5661 1.388 . S
C5660 C5659 1.366 . S
C5660 C5664 1.385 1_556 S
C5661 H5636 0.951 . S
C5661 C5659 1.388 . S
C5661 C5662 1.366 1_556 S
C5662 C5661 1.366 1_554 S
C5662 C5663 1.414 . S
C5662 C5665 1.499 . S
C5663 H5637 0.950 . S
C5663 C5662 1.414 . S
C5663 C5664 1.374 . S
C5664 H5638 0.950 . S
C5664 C5660 1.385 1_554 S
C5664 C5663 1.374 . S
C5665 C5662 1.499 . S
C5665 C5666 1.373 . S
C5665 C5667 1.389 . S
C5666 H5639 0.950 . S
C5666 C5652 1.377 . S
C5666 C5665 1.373 . S
C5667 C5651 1.377 . S
C5667 C5665 1.389 . S
C5667 C5668 1.524 1_554 S
C5668 C5667 1.524 1_556 S
C5668 C5669 1.397 1_556 S
C5668 C5673 1.363 . S
C5669 H5640 0.950 . S
C5669 C5668 1.397 1_554 S
C5669 C5670 1.334 . S
C5670 H5641 0.950 . S
C5670 C5669 1.334 . S
C5670 C5671 1.287 1_554 S
C5671 C5670 1.287 1_556 S
C5671 C5672 1.524 . S
C5671 H5674 0.999 . S
C5672 H5642 0.950 . S
C5672 C5671 1.524 . S
C5672 C5673 1.415 . S
C5673 H5643 0.950 . S
C5673 C5668 1.363 . S
C5673 C5672 1.415 . S
H5674 C5671 0.999 . S
H5675 C5656 0.913 . S
H5676 C5694 0.951 . S
H5677 C5696 0.951 . S
H5678 C5698 0.950 . S
H5679 C5699 0.939 1_545 S
H5680 C5701 0.950 . S
H5681 C5704 0.950 . S
H5682 C5705 0.950 1_545 S
H5683 C5707 0.950 . S
H5684 C5708 0.950 . S
H5685 C5709 0.951 . S
H5686 C5711 0.951 . S
H5687 C5713 0.950 . S
H5688 C5714 0.950 . S
H5689 C5716 0.950 . S
H5690 C5719 0.950 . S
H5691 C5720 0.950 . S
H5692 C5722 0.950 . S
H5693 C5723 0.950 . S
C5694 H5676 0.951 . S
C5694 C5695 1.366 1_565 S
C5694 C5696 1.388 . S
C5695 C5694 1.366 1_545 S
C5695 C5699 1.385 1_545 S
C5696 H5677 0.951 . S
C5696 C5694 1.388 . S
C5696 C5697 1.366 . S
C5697 C5696 1.366 . S
C5697 C5698 1.414 . S
C5697 C5700 1.499 . S
C5698 H5678 0.950 . S
C5698 C5697 1.414 . S
C5698 C5699 1.374 . S
C5699 H5679 0.939 1_565 S
C5699 C5695 1.385 1_565 S
C5699 C5698 1.374 . S
C5700 C5697 1.499 . S
C5700 C5701 1.373 . S
C5700 C5702 1.389 . S
C5701 H5680 0.950 . S
C5701 C5700 1.373 . S
C5701 C5717 1.377 . S
C5702 C5700 1.389 . S
C5702 C5703 1.524 . S
C5702 C5716 1.377 . S
C5703 C5702 1.524 . S
C5703 C5704 1.397 . S
C5703 C5708 1.363 . S
C5704 H5681 0.950 . S
C5704 C5703 1.397 . S
C5704 C5705 1.334 . S
C5705 H5682 0.950 1_565 S
C5705 C5704 1.334 . S
C5705 C5706 1.287 . S
C5706 C5705 1.287 . S
C5706 C5707 1.524 . S
C5706 H5725 0.913 . S
C5707 H5683 0.950 . S
C5707 C5706 1.524 . S
C5707 C5708 1.415 . S
C5708 H5684 0.950 . S
C5708 C5703 1.363 . S
C5708 C5707 1.415 . S
C5709 H5685 0.951 . S
C5709 C5710 1.366 . S
C5709 C5711 1.388 . S
C5710 C5709 1.366 . S
C5710 C5714 1.385 . S
C5711 H5686 0.951 . S
C5711 C5709 1.388 . S
C5711 C5712 1.366 . S
C5712 C5711 1.366 . S
C5712 C5713 1.414 . S
C5712 C5715 1.499 . S
C5713 H5687 0.950 . S
C5713 C5712 1.414 . S
C5713 C5714 1.374 . S
C5714 H5688 0.950 . S
C5714 C5710 1.385 . S
C5714 C5713 1.374 . S
C5715 C5712 1.499 . S
C5715 C5716 1.373 . S
C5715 C5717 1.389 . S
C5716 H5689 0.950 . S
C5716 C5702 1.377 . S
C5716 C5715 1.373 . S
C5717 C5701 1.377 . S
C5717 C5715 1.389 . S
C5717 C5718 1.524 . S
C5718 C5717 1.524 . S
C5718 C5719 1.397 . S
C5718 C5723 1.363 . S
C5719 H5690 0.950 . S
C5719 C5718 1.397 . S
C5719 C5720 1.334 . S
C5720 H5691 0.950 . S
C5720 C5719 1.334 . S
C5720 C5721 1.287 . S
C5721 C5720 1.287 . S
C5721 C5722 1.524 . S
C5721 H5724 0.999 . S
C5722 H5692 0.950 . S
C5722 C5721 1.524 . S
C5722 C5723 1.415 . S
C5723 H5693 0.950 . S
C5723 C5718 1.363 . S
C5723 C5722 1.415 . S
H5724 C5721 0.999 . S
H5725 C5706 0.913 . S
H5726 C5744 0.951 . S
H5727 C5746 0.951 . S
H5728 C5748 0.950 . S
H5729 C5749 0.950 . S
H5730 C5751 0.950 . S
H5731 C5754 0.950 . S
H5732 C5755 0.950 . S
H5733 C5757 0.950 . S
H5734 C5758 0.950 . S
H5735 C5759 0.951 . S
H5736 C5761 0.951 . S
H5737 C5763 0.950 . S
H5738 C5764 0.950 . S
H5739 C5766 0.950 . S
H5740 C5769 0.950 . S
H5741 C5770 0.950 . S
H5742 C5772 0.950 . S
H5743 C5773 0.950 . S
C5744 H5726 0.951 . S
C5744 C5745 1.366 . S
C5744 C5746 1.388 . S
C5745 C5744 1.366 . S
C5745 C5749 1.385 . S
C5746 H5727 0.951 . S
C5746 C5744 1.388 . S
C5746 C5747 1.366 . S
C5747 C5746 1.366 . S
C5747 C5748 1.414 . S
C5747 C5750 1.499 . S
C5748 H5728 0.950 . S
C5748 C5747 1.414 . S
C5748 C5749 1.374 . S
C5749 H5729 0.950 . S
C5749 C5745 1.385 . S
C5749 C5748 1.374 . S
C5750 C5747 1.499 . S
C5750 C5751 1.373 . S
C5750 C5752 1.389 . S
C5751 H5730 0.950 . S
C5751 C5750 1.373 . S
C5751 C5767 1.377 . S
C5752 C5750 1.389 . S
C5752 C5753 1.524 . S
C5752 C5766 1.377 . S
C5753 C5752 1.524 . S
C5753 C5754 1.397 . S
C5753 C5758 1.363 . S
C5754 H5731 0.950 . S
C5754 C5753 1.397 . S
C5754 C5755 1.334 . S
C5755 H5732 0.950 . S
C5755 C5754 1.334 . S
C5755 C5756 1.287 . S
C5756 C5755 1.287 . S
C5756 C5757 1.524 . S
C5756 H5775 0.913 . S
C5757 H5733 0.950 . S
C5757 C5756 1.524 . S
C5757 C5758 1.415 . S
C5758 H5734 0.950 . S
C5758 C5753 1.363 . S
C5758 C5757 1.415 . S
C5759 H5735 0.951 . S
C5759 C5760 1.366 . S
C5759 C5761 1.388 . S
C5760 C5759 1.366 . S
C5760 C5764 1.385 . S
C5761 H5736 0.951 . S
C5761 C5759 1.388 . S
C5761 C5762 1.366 . S
C5762 C5761 1.366 . S
C5762 C5763 1.414 . S
C5762 C5765 1.499 . S
C5763 H5737 0.950 . S
C5763 C5762 1.414 . S
C5763 C5764 1.374 . S
C5764 H5738 0.950 . S
C5764 C5760 1.385 . S
C5764 C5763 1.374 . S
C5765 C5762 1.499 . S
C5765 C5766 1.373 . S
C5765 C5767 1.389 . S
C5766 H5739 0.950 . S
C5766 C5752 1.377 . S
C5766 C5765 1.373 . S
C5767 C5751 1.377 . S
C5767 C5765 1.389 . S
C5767 C5768 1.524 . S
C5768 C5767 1.524 . S
C5768 C5769 1.397 . S
C5768 C5773 1.363 . S
C5769 H5740 0.950 . S
C5769 C5768 1.397 . S
C5769 C5770 1.334 . S
C5770 H5741 0.950 . S
C5770 C5769 1.334 . S
C5770 C5771 1.287 . S
C5771 C5770 1.287 . S
C5771 C5772 1.524 . S
C5771 H5774 0.999 . S
C5772 H5742 0.950 . S
C5772 C5771 1.524 . S
C5772 C5773 1.415 . S
C5773 H5743 0.950 . S
C5773 C5768 1.363 . S
C5773 C5772 1.415 . S
H5774 C5771 0.999 . S
H5775 C5756 0.913 . S
C995 C111 1.966 . S
C1010 C346 1.970 . S
C1045 C64 1.729 . S
C1060 C385 1.757 . S
C1095 C77 1.040 . S
C1110 C426 1.033 . S
C1160 C471 1.197 . S
C1145 C95 1.205 . S
C1195 C25 1.768 . S
C1210 C515 1.769 . S
C1260 C546 1.140 . S
C1245 C36 1.159 . S
C1310 C594 1.935 . S
C1295 C50 1.884 . S
C1345 C11 1.505 . S
C1360 C622 1.465 . S
C1410 C354 1.226 . S
C1395 C237 1.154 . S
C1445 C245 1.194 . S
C1460 C395 1.156 . S
C1510 C434 1.305 . S
C1495 C279 1.166 1_565 S
C1560 C466 1.148 . S
C1545 C175 1.152 . S
C1595 C231 0.229 . S
C1610 C502 0.214 1_455 S
C1660 C554 2.152 . S
C1645 C251 2.081 . S
C1710 C591 0.724 . S
C1695 C273 0.723 . S
C1760 C625 1.825 . S
C1745 C181 1.767 . S
C1810 C351 1.662 . S
C1795 C165 1.708 . S
C1845 C288 1.924 . S
C1860 C665 1.956 . S
C1910 C711 0.929 . S
C1895 C333 0.946 . S
C1960 C746 1.314 . S
C1945 C316 1.345 . S
C1995 C123 1.683 . S
C2010 C635 1.613 . S
C2045 C137 1.212 . S
C2060 C431 1.195 . S
C2095 C330 1.200 . S
C2110 C794 1.268 . S
C2160 C822 0.248 . S
C2145 C302 0.347 . S
C2210 C355 2.131 . S
C2195 C63 2.182 . S
C2260 C834 1.773 . S
C2245 C106 1.792 . S
C2295 C97 1.167 . S
C2310 C435 1.216 . S
C2345 C81 1.275 . S
C2360 C782 1.275 . S
C2410 C506 1.968 . S
C2395 C13 1.950 1_455 S
C2445 C55 1.101 . S
C2460 C715 1.170 . S
C2510 C585 1.904 . S
C2495 C35 1.917 . S
C2560 C871 1.604 . S
C2545 C21 1.629 . S
C2610 C345 1.353 . S
C2595 C147 1.353 . S
C2660 C826 1.306 . S
C2645 C321 1.295 . S
C2695 C119 1.373 . S
C2710 C425 1.389 . S
C2745 C293 1.294 . S
C2760 C795 1.361 . S
C2795 C153 0.504 . S
C2810 C511 0.108 . S
C2860 C705 2.268 . S
C2845 C315 2.291 . S
C2895 C125 0.680 . S
C2910 C582 0.612 . S
C2945 C287 1.974 . S
C2960 C874 1.955 . S
C2995 C193 1.735 . S
C3010 C342 1.718 . S
C3045 C176 1.998 . S
C3060 C674 1.991 . S
C3095 C263 0.937 . S
C3110 C542 0.944 . S
C3145 C246 1.407 . S
C3160 C755 1.452 . S
C3210 C866 1.748 . S
C3195 C277 1.805 . S
C3245 C221 1.254 . S
C3260 C422 1.252 . S
C3310 C465 1.346 . S
C3295 C260 1.348 . S
C3360 C391 0.366 . S
C3345 C204 0.439 . S
C3395 C83 1.965 . S
C3410 C906 1.969 . S
C3460 C825 1.757 . S
C3445 C92 1.729 . S
C3495 C105 1.040 . S
C3510 C946 1.033 . S
C3545 C67 1.206 . S
C3560 C791 1.196 . S
C3595 C53 1.769 . S
C3610 C675 1.769 . S
C3660 C706 1.140 . S
C3645 C8 1.158 . S
C3710 C754 1.935 . S
C3695 C22 1.884 . S
C3760 C862 1.466 . S
C3745 C39 1.505 . S
C3810 C914 1.226 . S
C3795 C265 1.154 . S
C3845 C189 1.195 . S
C3860 C835 1.165 . S
C3910 C954 1.305 . S
C3895 C209 1.167 . S
C3960 C786 1.148 . S
C3945 C217 1.152 . S
C4010 C662 0.244 . S
C3995 C259 0.229 . S
C4045 C195 2.078 . S
C4060 C714 2.144 . S
C4110 C751 0.724 . S
C4095 C203 0.723 . S
C4145 C223 1.768 . S
C4160 C865 1.825 . S
C4210 C911 1.662 . S
C4195 C319 1.708 . S
C4245 C134 1.924 . S
C4260 C505 1.956 . S
C4310 C551 0.930 . S
C4295 C151 0.947 . S
C4360 C586 1.314 . S
C4345 C162 1.345 . S
C4410 C875 1.612 . S
C4395 C305 1.683 . S
C4445 C291 1.212 . S
C4460 C951 1.194 . S
C4510 C474 1.269 . S
C4495 C148 1.202 . S
C4560 C382 0.246 . S
C4545 C120 0.344 . S
C4595 C91 2.182 . S
C4610 C915 2.132 . S
C4660 C394 1.774 . S
C4645 C78 1.793 . S
C4695 C69 1.166 . S
C4710 C955 1.217 . S
C4745 C109 1.275 . S
C4760 C462 1.275 . S
C4795 C41 1.951 . S
C4810 C666 1.968 1_556 S
C4860 C555 1.170 . S
C4845 C27 1.101 . S
C4895 C7 1.916 . S
C4910 C745 1.904 . S
C4945 C49 1.628 . S
C4960 C631 1.604 . S
C5010 C905 1.353 . S
C4995 C329 1.353 . S
C5045 C167 1.295 . S
C5060 C386 1.305 . S
C5110 C945 1.389 . S
C5095 C301 1.373 . S
C5145 C139 1.294 . S
C5160 C475 1.362 . S
C5195 C335 0.503 . S
C5210 C671 0.110 . S
C5260 C545 2.268 . S
C5245 C161 2.291 1_556 S
C5295 C307 0.683 . S
C5310 C742 0.615 . S
C5360 C634 1.955 . S
C5345 C133 1.974 . S
C5410 C902 1.718 . S
C5395 C249 1.735 . S
C5460 C514 1.991 1_655 S
C5445 C218 1.998 . S
C5495 C235 0.939 . S
C5510 C702 0.946 . S
C5560 C595 1.452 . S
C5545 C190 1.407 . S
C5595 C207 1.799 . S
C5610 C626 1.749 . S
C5645 C179 1.255 . S
C5660 C942 1.261 . S
C5710 C785 1.346 . S
C5695 C232 1.348 . S
C5760 C831 0.364 . S
C5745 C274 0.441 . S
