# Generated by pormake.
# Topology ocu, (6,8)-cn, num edge types: 1
# Building blocks:
#     Node 0, Type 0, BuildingBlock: KUMJIN_clean_sbu_0, # of connection points: 6
#     Node 1, Type 0, BuildingBlock: KUMJIN_clean_sbu_0, # of connection points: 6
#     Node 2, Type 0, BuildingBlock: KUMJIN_clean_sbu_0, # of connection points: 6
#     Node 3, Type 0, BuildingBlock: KUMJIN_clean_sbu_0, # of connection points: 6
#     Node 4, Type 0, BuildingBlock: KUMJIN_clean_sbu_0, # of connection points: 6
#     Node 5, Type 0, BuildingBlock: KUMJIN_clean_sbu_0, # of connection points: 6
#     Node 6, Type 0, BuildingBlock: KUMJIN_clean_sbu_0, # of connection points: 6
#     Node 7, Type 0, BuildingBlock: KUMJIN_clean_sbu_0, # of connection points: 6
#     Node 8, Type 1, BuildingBlock: TAGTUT_clean_sbu_1, # of connection points: 8
#     Node 9, Type 1, BuildingBlock: TAGTUT_clean_sbu_1, # of connection points: 8
#     Node 10, Type 1, BuildingBlock: TAGTUT_clean_sbu_1, # of connection points: 8
#     Node 11, Type 1, BuildingBlock: TAGTUT_clean_sbu_1, # of connection points: 8
#     Node 12, Type 1, BuildingBlock: TAGTUT_clean_sbu_1, # of connection points: 8
#     Node 13, Type 1, BuildingBlock: TAGTUT_clean_sbu_1, # of connection points: 8
#     Edge 14, Type (0, 1), None
#     Edge 15, Type (0, 1), None
#     Edge 16, Type (0, 1), None
#     Edge 17, Type (0, 1), None
#     Edge 18, Type (0, 1), None
#     Edge 19, Type (0, 1), None
#     Edge 20, Type (0, 1), None
#     Edge 21, Type (0, 1), None
#     Edge 22, Type (0, 1), None
#     Edge 23, Type (0, 1), None
#     Edge 24, Type (0, 1), None
#     Edge 25, Type (0, 1), None
#     Edge 26, Type (0, 1), None
#     Edge 27, Type (0, 1), None
#     Edge 28, Type (0, 1), None
#     Edge 29, Type (0, 1), None
#     Edge 30, Type (0, 1), None
#     Edge 31, Type (0, 1), None
#     Edge 32, Type (0, 1), None
#     Edge 33, Type (0, 1), None
#     Edge 34, Type (0, 1), None
#     Edge 35, Type (0, 1), None
#     Edge 36, Type (0, 1), None
#     Edge 37, Type (0, 1), None
#     Edge 38, Type (0, 1), None
#     Edge 39, Type (0, 1), None
#     Edge 40, Type (0, 1), None
#     Edge 41, Type (0, 1), None
#     Edge 42, Type (0, 1), None
#     Edge 43, Type (0, 1), None
#     Edge 44, Type (0, 1), None
#     Edge 45, Type (0, 1), None
#     Edge 46, Type (0, 1), None
#     Edge 47, Type (0, 1), None
#     Edge 48, Type (0, 1), None
#     Edge 49, Type (0, 1), None
#     Edge 50, Type (0, 1), None
#     Edge 51, Type (0, 1), None
#     Edge 52, Type (0, 1), None
#     Edge 53, Type (0, 1), None
#     Edge 54, Type (0, 1), None
#     Edge 55, Type (0, 1), None
#     Edge 56, Type (0, 1), None
#     Edge 57, Type (0, 1), None
#     Edge 58, Type (0, 1), None
#     Edge 59, Type (0, 1), None
#     Edge 60, Type (0, 1), None
#     Edge 61, Type (0, 1), None
# Relax obj value: 0.213
# Max RMSD: 0.265
# Mean RMSD: 0.170
data_MOF--net-ocu--node1-KUMJIN_clean_sbu_0--node2-TAGTUT_clean_sbu_1--edge1-none
_symmetry_space_group_name_H-M    P1
_symmetry_Int_Tables_number       1
_symmetry_cell_setting            triclinic
loop_
_symmetry_equiv_pos_as_xyz
'x, y, z'
_cell_length_a     25.155466
_cell_length_b     22.412483
_cell_length_c     21.989977
_cell_angle_alpha  70.550435
_cell_angle_beta   105.93788
_cell_angle_gamma 127.64474
loop_
_atom_site_label
_atom_site_type_symbol
_atom_site_fract_x
_atom_site_fract_y
_atom_site_fract_z
_atom_type_partial_charge
Eu0 Eu 0.18712 0.13125 0.25979 0.0
C1 C 0.32818 0.35449 0.38469 0.0
C2 C 0.32658 0.27267 0.4903 0.0
C3 C 0.41065 0.40825 0.46981 0.0
C4 C 0.29815 0.28243 0.42674 0.0
C5 C 0.382 0.41881 0.40843 0.0
C6 C 0.38567 0.33525 0.51043 0.0
C7 C 0.37293 0.50128 0.31005 0.0
N8 N 0.29865 0.36374 0.32446 0.0
C9 C 0.32014 0.43586 0.28631 0.0
C10 C 0.4055 0.49254 0.37081 0.0
Eu11 Eu 0.19839 0.2516 0.30243 0.0
N12 N 0.23486 0.22671 0.41015 0.0
C13 C 0.194 0.16971 0.45699 0.0
C14 C 0.28844 0.2057 0.53529 0.0
C15 C 0.22086 0.1531 0.51896 0.0
H16 H 0.29518 0.44318 0.23868 0.0
H17 H 0.18829 0.1077 0.55618 0.0
H18 H 0.41043 0.32817 0.55823 0.0
H19 H 0.39093 0.55779 0.28066 0.0
H20 H 0.142 0.14689 0.45038 0.0
H21 H 0.19748 0.27512 1.00601 0.0
H22 H 0.30607 0.20385 0.58522 0.0
H23 H 0.09021 0.93965 0.32347 0.0
H24 H 0.24369 0.23587 0.11184 0.0
H25 H -0.00553 0.8251 0.28142 0.0
H26 H 0.4558 0.45728 0.48284 0.0
H27 H 0.07966 0.17912 0.97697 0.0
H28 H -0.02485 0.05496 1.00393 0.0
H29 H 0.44933 0.54216 0.38862 0.0
H30 H 0.9297 0.92584 0.07925 0.0
N31 N 0.15079 0.1561 0.15201 0.0
C32 C 0.19169 0.2131 0.1052 0.0
C33 C 0.09726 0.17729 1.0269 0.0
C34 C 0.05904 0.11035 0.07187 0.0
C35 C 0.16488 0.22976 0.04322 0.0
C36 C 0.08743 0.10053 0.13543 0.0
H37 H 0.93611 0.84082 0.17344 0.0
N38 N 0.0868 0.01916 0.23771 0.0
C39 C 0.01248 0.88163 0.25206 0.0
C40 C 0.05732 0.02846 0.17747 0.0
C41 C 0.06528 -0.05299 0.27584 0.0
C42 C -0.02006 0.89042 0.19129 0.0
C43 C 0.00348 -0.03582 0.1537 0.0
O44 O 0.20073 0.03932 0.27964 0.0
O45 O 0.26294 0.19604 0.3361 0.0
O46 O 0.26787 0.3228 0.22158 0.0
O47 O 0.29045 0.23831 0.22853 0.0
O48 O 0.1954 0.07654 0.36412 0.0
O49 O 0.25151 0.13848 0.20391 0.0
O50 O 0.18469 0.34347 0.28255 0.0
O51 O 0.12257 0.18673 0.22634 0.0
O52 O 0.11765 0.06005 0.34064 0.0
O53 O 0.09506 0.14453 0.3337 0.0
O54 O 0.19016 0.30607 0.19795 0.0
O55 O 0.13404 0.24435 0.35836 0.0
C56 C 0.25427 0.13354 0.37982 0.0
C57 C 0.22337 0.02111 0.1942 0.0
C58 C 0.27681 -0.04705 0.11842 0.0
C59 C 0.28289 0.02832 0.18 0.0
C60 C 0.20448 0.89262 0.10017 0.0
C61 C 0.15212 -0.03537 0.17195 0.0
C62 C 0.12933 0.90607 0.13425 0.0
C63 C 0.30335 0.30715 0.20478 0.0
C64 C 0.2383 0.07107 0.23356 0.0
C65 C -0.02513 -0.02518 0.09231 0.0
C66 C -0.00012 0.04785 0.05173 0.0
C67 C 0.13124 0.24906 0.18235 0.0
C68 C 0.16209 0.36168 0.36803 0.0
C69 C 0.10256 0.35446 0.38222 0.0
C70 C 0.10862 0.42981 0.4438 0.0
C71 C 0.18094 0.49013 0.46208 0.0
C72 C 0.23334 0.41816 0.39029 0.0
C73 C 0.25611 0.4767 0.42802 0.0
C74 C 0.08217 0.07569 0.35744 0.0
C75 C 0.14717 0.31172 0.32867 0.0
H76 H 0.32708 0.0754 0.20303 0.0
H77 H 0.19325 0.84855 0.07808 0.0
H78 H 0.1143 -0.03417 0.18101 0.0
H79 H 0.07413 0.87162 0.13018 0.0
H80 H 0.05837 0.30738 0.35919 0.0
H81 H 0.19216 0.53419 0.48418 0.0
H82 H 0.27117 0.41699 0.38123 0.0
H83 H 0.31132 0.51114 0.43211 0.0
Eu84 Eu 0.72114 0.13997 0.28949 0.0
C85 C 0.56148 0.24088 0.33384 0.0
C86 C 0.44848 0.14052 0.30909 0.0
C87 C 0.47045 0.24581 0.34161 0.0
C88 C 0.51795 0.18145 0.30362 0.0
C89 C 0.5382 0.27128 0.35727 0.0
C90 C 0.42445 0.1786 0.31801 0.0
C91 C 0.64231 0.32777 0.42477 0.0
N92 N 0.62469 0.25908 0.34989 0.0
C93 C 0.66193 0.29368 0.40129 0.0
C94 C 0.58279 0.32231 0.39783 0.0
Eu95 Eu 0.66433 0.24284 0.27277 0.0
N96 N 0.54466 0.14927 0.29312 0.0
C97 C 0.5073 0.07002 0.30906 0.0
C98 C 0.41085 0.06066 0.3246 0.0
C99 C 0.44352 0.02608 0.33232 0.0
H100 H 0.70837 0.29956 0.42147 0.0
H101 H 0.41781 -0.03523 0.35191 0.0
H102 H 0.37093 0.15205 0.31497 0.0
H103 H 0.67351 0.35954 0.46225 0.0
H104 H 0.52508 0.03824 0.30536 0.0
H105 H -0.03232 0.41802 0.21044 0.0
H106 H 0.35966 0.02608 0.33759 0.0
H107 H 0.67701 0.08318 0.14078 0.0
H108 H 0.86038 0.34451 0.25703 0.0
H109 H 0.71182 0.02312 0.10002 0.0
H110 H 0.4517 0.27229 0.35221 0.0
H111 H 0.02578 0.35669 0.22467 0.0
H112 H 0.01447 0.23071 0.24719 0.0
H113 H 0.5703 0.35418 0.41084 0.0
H114 H 0.93368 0.11043 0.21 0.0
N115 N 0.84076 0.23352 0.26902 0.0
C116 C 0.87817 0.31277 0.25327 0.0
C117 C -0.02542 0.3221 0.23763 0.0
C118 C 0.93693 0.24224 0.25308 0.0
C119 C -0.05805 0.35671 0.23 0.0
C120 C 0.86746 0.20134 0.25848 0.0
H121 H 0.81502 0.02844 0.15144 0.0
N122 N 0.76069 0.12364 0.21235 0.0
C123 C 0.74304 0.0549 0.1375 0.0
C124 C 0.8239 0.14183 0.22837 0.0
C125 C 0.72343 0.08902 0.16096 0.0
C126 C 0.80254 0.06034 0.16443 0.0
C127 C 0.84716 0.11142 0.20495 0.0
O128 O 0.67852 0.02437 0.27769 0.0
O129 O 0.63594 0.12513 0.32494 0.0
O130 O 0.75166 0.27492 0.36014 0.0
O131 O 0.79642 0.20806 0.36865 0.0
O132 O 0.69622 0.10188 0.39469 0.0
O133 O 0.72066 0.05311 0.37128 0.0
O134 O 0.70698 0.35843 0.28461 0.0
O135 O 0.74947 0.25768 0.23739 0.0
O136 O 0.63375 0.1078 0.20216 0.0
O137 O 0.58906 0.17476 0.19359 0.0
O138 O 0.68927 0.28072 0.16754 0.0
O139 O 0.66493 0.32979 0.191 0.0
C140 C 0.64228 0.09934 0.38695 0.0
C141 C 0.75753 -0.0013 0.33737 0.0
C142 C 0.87508 0.04684 0.36449 0.0
C143 C 0.82166 0.04852 0.36613 0.0
C144 C 0.86403 -0.00745 0.33668 0.0
C145 C 0.74853 -0.04954 0.30313 0.0
C146 C 0.80252 -0.05208 0.30259 0.0
C147 C 0.7941 0.25464 0.39141 0.0
C148 C 0.70507 0.00849 0.3349 0.0
C149 C 0.91493 0.13693 0.22057 0.0
C150 C -0.03905 0.20418 0.24413 0.0
C151 C 0.74322 0.28326 0.17533 0.0
C152 C 0.62803 0.38417 0.22491 0.0
C153 C 0.56392 0.3344 0.19609 0.0
C154 C 0.51048 0.33602 0.19775 0.0
C155 C 0.52148 0.39022 0.22564 0.0
C156 C 0.63697 0.43231 0.25922 0.0
C157 C 0.58295 0.4348 0.25978 0.0
C158 C 0.59133 0.12811 0.17087 0.0
C159 C 0.68049 0.37437 0.22739 0.0
H160 H 0.83055 0.08781 0.39216 0.0
H161 H 0.90181 -0.0178 0.34511 0.0
H162 H 0.70074 0.91751 0.2759 0.0
H163 H 0.79726 0.91096 0.27718 0.0
H164 H 0.55506 0.29518 0.16999 0.0
H165 H 0.48367 0.4005 0.21726 0.0
H166 H 0.68473 0.46521 0.28651 0.0
H167 H 0.58814 0.47164 0.28527 0.0
Eu168 Eu 0.64186 0.68692 0.30911 0.0
C169 C 0.84939 0.87587 0.21162 0.0
C170 C 0.83039 0.91087 0.09752 0.0
C171 C 0.91164 0.0107 0.15709 0.0
C172 C 0.8105 0.85599 0.15487 0.0
C173 C 0.90136 -0.04644 0.21318 0.0
C174 C 0.87551 -0.01099 0.09921 0.0
C175 C -0.05626 0.91009 0.31731 0.0
N176 N 0.8446 0.81857 0.26129 0.0
C177 C 0.89559 0.83465 0.31032 0.0
C178 C -0.05288 -0.02964 0.26776 0.0
Eu179 Eu 0.74365 0.69577 0.25324 0.0
N180 N 0.76033 0.78138 0.15406 0.0
C181 C 0.72779 0.75838 0.09716 0.0
C182 C 0.80636 0.88529 0.03993 0.0
C183 C 0.75021 0.81046 0.03888 0.0
H184 H 0.89634 0.78862 0.34658 0.0
H185 H 0.72509 0.79299 0.99347 0.0
H186 H 0.8911 0.03233 0.05497 0.0
H187 H -0.01927 0.92027 0.35843 0.0
H188 H 0.6877 0.6995 0.09598 0.0
H189 H 0.6602 0.58952 0.56886 0.0
H190 H 0.8269 0.92522 0.99581 0.0
H191 H 0.48918 0.59424 0.21571 0.0
H192 H 0.69776 0.68302 0.46638 0.0
H193 H 0.40473 0.46262 0.20377 0.0
H194 H -0.04474 0.06965 0.15458 0.0
H195 H 0.55833 0.45731 0.56644 0.0
H196 H 0.49418 0.35023 0.50721 0.0
H197 H -0.01332 0.02969 0.26963 0.0
H198 H 0.43002 0.31304 0.40756 0.0
N199 N 0.62505 0.60123 0.40826 0.0
C200 C 0.6576 0.62417 0.46517 0.0
C201 C 0.57891 0.49727 0.52234 0.0
C202 C 0.55492 0.47172 0.46474 0.0
C203 C 0.63509 0.57207 0.52343 0.0
C204 C 0.57485 0.52663 0.40741 0.0
H205 H 0.39869 0.35312 0.29255 0.0
N206 N 0.54086 0.56417 0.30099 0.0
C207 C 0.4417 0.47275 0.24491 0.0
C208 C 0.536 0.50683 0.35063 0.0
C209 C 0.48989 0.54817 0.25194 0.0
C210 C 0.43827 0.41243 0.29444 0.0
C211 C 0.484 0.42916 0.34903 0.0
O212 O 0.64325 0.77127 0.34031 0.0
O213 O 0.66426 0.73314 0.20551 0.0
O214 O 0.78276 0.73698 0.35321 0.0
O215 O 0.72595 0.77855 0.36403 0.0
O216 O 0.68532 0.80954 0.25334 0.0
O217 O 0.54841 0.67301 0.3144 0.0
O218 O 0.74232 0.61142 0.22212 0.0
O219 O 0.72135 0.64976 0.35675 0.0
O220 O 0.60276 0.64579 0.20914 0.0
O221 O 0.65951 0.60413 0.19835 0.0
O222 O 0.6999 0.5731 0.30904 0.0
O223 O 0.83713 0.70973 0.24797 0.0
C224 C 0.66717 0.79663 0.19651 0.0
C225 C 0.54829 0.74441 0.37657 0.0
C226 C 0.55453 0.79633 0.4645 0.0
C227 C 0.58381 0.80459 0.41224 0.0
C228 C 0.49208 0.72516 0.48023 0.0
C229 C 0.48146 0.68457 0.38712 0.0
C230 C 0.456 0.67192 0.44133 0.0
C231 C 0.78028 0.78132 0.37943 0.0
C232 C 0.57894 0.73821 0.33166 0.0
C233 C 0.47367 0.37198 0.4051 0.0
C234 C 0.50978 0.3936 0.46299 0.0
C235 C 0.71819 0.5861 0.36585 0.0
C236 C 0.83726 0.63842 0.18571 0.0
C237 C 0.80175 0.57822 0.15008 0.0
C238 C 0.83102 0.58647 0.09781 0.0
C239 C 0.89344 0.65765 0.08203 0.0
C240 C 0.90406 0.69834 0.17508 0.0
C241 C 0.9295 0.71096 0.12087 0.0
C242 C 0.6052 0.60142 0.18293 0.0
C243 C 0.80664 0.64454 0.23071 0.0
H244 H 0.63299 0.85595 0.39996 0.0
H245 H 0.46603 0.71097 0.51914 0.0
H246 H 0.44991 0.64462 0.35552 0.0
H247 H 0.40777 0.61994 0.45352 0.0
H248 H 0.75261 0.52682 0.16241 0.0
H249 H 0.91948 0.67181 0.04313 0.0
H250 H 0.93559 0.73836 0.20662 0.0
H251 H -0.02231 0.76296 0.10862 0.0
Eu252 Eu 0.21203 0.63874 0.28204 0.0
C253 C 0.21218 0.901 0.19834 0.0
C254 C 0.36686 0.00617 0.19673 0.0
C255 C 0.30626 0.08034 0.07199 0.0
C256 C 0.2914 0.92292 0.23172 0.0
C257 C 0.22063 0.00539 0.08482 0.0
C258 C 0.3745 0.08098 0.12576 0.0
C259 C 0.09653 0.84679 0.04826 0.0
N260 N 0.14995 0.81469 0.19066 0.0
C261 C 0.09565 0.78569 0.12682 0.0
C262 C 0.15638 -0.0489 1.02636 0.0
Eu263 Eu 0.17346 0.74413 0.28026 0.0
N264 N 0.2903 0.85964 0.26451 0.0
C265 C 0.34886 0.8637 0.27459 0.0
C266 C 0.41677 -0.00532 0.20911 0.0
C267 C 0.40789 0.92595 0.24569 0.0
H268 H 0.05386 0.72613 0.13094 0.0
H269 H 0.44952 0.92091 0.25314 0.0
H270 H 0.42462 0.12785 0.11255 0.0
H271 H 0.06069 0.81504 1.01229 0.0
H272 H 0.35081 0.81533 0.30054 0.0
H273 H 0.93599 0.46197 0.30911 0.0
H274 H 0.46302 0.03942 0.18873 0.0
H275 H 0.33157 0.65663 0.43135 0.0
H276 H 0.03464 0.56747 0.26159 0.0
H277 H 0.3247 0.5677 0.55 0.0
H278 H 0.31739 0.1281 0.03153 0.0
H279 H 0.92251 0.34351 0.3736 0.0
H280 H -0.03921 0.25496 0.44965 0.0
H281 H 0.16126 -0.02185 0.97578 0.0
H282 H 0.068 0.25466 0.53069 0.0
N283 N 0.09519 0.52319 0.29778 0.0
C284 C 0.0366 0.5191 0.28758 0.0
C285 C -0.03125 0.38821 0.35317 0.0
C286 C 0.0186 0.37664 0.36545 0.0
C287 C -0.0224 0.45692 0.31656 0.0
C288 C 0.09408 0.45989 0.3305 0.0
H289 H 0.22413 0.40463 0.58647 0.0
N290 N 0.23549 0.56808 0.3716 0.0
C291 C 0.28888 0.53596 0.51401 0.0
C292 C 0.17328 0.48178 0.36391 0.0
C293 C 0.28978 0.59707 0.43546 0.0
C294 C 0.22904 0.43165 0.53589 0.0
C295 C 0.16479 0.37737 0.47741 0.0
O296 O 0.28964 0.61962 0.29521 0.0
O297 O 0.21337 0.73757 0.20184 0.0
O298 O 0.11109 0.67554 0.19254 0.0
O299 O 0.13251 0.58819 0.20225 0.0
O300 O 0.29943 0.74044 0.22275 0.0
O301 O 0.20427 0.56808 0.2255 0.0
O302 O 0.09584 0.76323 0.26707 0.0
O303 O 0.17217 0.64544 0.36048 0.0
O304 O 0.2745 0.70735 0.36972 0.0
O305 O 0.25304 0.79466 0.36006 0.0
O306 O 0.08601 0.64217 0.33949 0.0
O307 O 0.18119 0.81479 0.33678 0.0
C308 C 0.27109 0.7715 0.18145 0.0
C309 C 0.31084 0.60963 0.20111 0.0
C310 C 0.34184 0.59546 0.11191 0.0
C311 C 0.29148 0.57413 0.14815 0.0
C312 C 0.40978 0.64617 0.1338 0.0
C313 C 0.37897 0.66824 0.21378 0.0
C314 C 0.42784 0.68363 0.18251 0.0
C315 C 0.10175 0.62043 0.16936 0.0
C316 C 0.26388 0.58337 0.24798 0.0
C317 C 0.07915 0.30242 0.49022 0.0
C318 C 0.01092 0.3018 0.43642 0.0
C319 C 0.11435 0.61111 0.38081 0.0
C320 C 0.07461 0.77323 0.36113 0.0
C321 C 0.09397 0.80868 0.41413 0.0
C322 C 0.04362 0.78732 0.45039 0.0
C323 C -0.02433 0.73663 0.42849 0.0
C324 C 0.00648 0.71467 0.34842 0.0
C325 C -0.0424 0.69925 0.37973 0.0
C326 C 0.28385 0.76246 0.39291 0.0
C327 C 0.12158 0.79949 0.31428 0.0
H328 H 0.23885 0.53139 0.13558 0.0
H329 H 0.44978 0.65865 0.11153 0.0
H330 H 0.39593 0.69831 0.25204 0.0
H331 H 0.4801 0.72371 0.19778 0.0
H332 H 0.1466 0.8514 0.42671 0.0
H333 H 0.93568 0.72412 0.45079 0.0
H334 H -0.0105 0.68464 0.31013 0.0
H335 H 0.90535 0.65918 0.36445 0.0
Eu336 Eu 0.22114 0.63997 0.78949 0.0
C337 C 0.06149 0.74089 0.83384 0.0
C338 C -0.05152 0.64053 0.80909 0.0
C339 C -0.02954 0.74582 0.84161 0.0
C340 C 0.01795 0.68145 0.80362 0.0
C341 C 0.03821 0.77128 0.85727 0.0
C342 C 0.92445 0.67861 0.818 0.0
C343 C 0.14231 0.82777 0.92477 0.0
N344 N 0.12469 0.75909 0.84989 0.0
C345 C 0.16194 0.79368 0.90129 0.0
C346 C 0.0828 0.82232 0.89783 0.0
Eu347 Eu 0.16433 0.74284 0.77277 0.0
N348 N 0.04466 0.64927 0.79311 0.0
C349 C 0.0073 0.57002 0.80906 0.0
C350 C 0.91085 0.56067 0.8246 0.0
C351 C -0.05649 0.52609 0.83232 0.0
H352 H 0.20837 0.79956 0.92147 0.0
H353 H 0.9178 0.46478 0.8519 0.0
H354 H 0.87093 0.65207 0.81496 0.0
H355 H 0.17352 0.85954 0.96225 0.0
H356 H 0.02508 0.53824 0.80536 0.0
H357 H 0.46767 0.91803 0.71044 0.0
H358 H 0.85966 0.52609 0.83759 0.0
H359 H 0.17701 0.58318 0.64078 0.0
H360 H 0.36038 0.84451 0.75703 0.0
H361 H 0.21182 0.52313 0.60002 0.0
H362 H -0.04829 0.7723 0.85221 0.0
H363 H 0.52578 0.8567 0.72466 0.0
H364 H 0.51447 0.73072 0.74718 0.0
H365 H 0.0703 0.85418 0.91084 0.0
H366 H 0.43368 0.61043 0.70999 0.0
N367 N 0.34076 0.73352 0.76902 0.0
C368 C 0.37817 0.81277 0.75327 0.0
C369 C 0.47458 0.82211 0.73763 0.0
C370 C 0.43693 0.74225 0.75307 0.0
C371 C 0.44195 0.85671 0.73 0.0
C372 C 0.36746 0.70134 0.75848 0.0
H373 H 0.31502 0.52845 0.65144 0.0
N374 N 0.26069 0.62364 0.71234 0.0
C375 C 0.24304 0.5549 0.6375 0.0
C376 C 0.3239 0.64184 0.72837 0.0
C377 C 0.22343 0.58902 0.66096 0.0
C378 C 0.30255 0.56034 0.66443 0.0
C379 C 0.34717 0.61142 0.70495 0.0
O380 O 0.17852 0.52437 0.77769 0.0
O381 O 0.13594 0.62513 0.82494 0.0
O382 O 0.25166 0.77492 0.86014 0.0
O383 O 0.29642 0.70806 0.86865 0.0
O384 O 0.19622 0.60188 0.89469 0.0
O385 O 0.22067 0.55311 0.87127 0.0
O386 O 0.20698 0.85843 0.78461 0.0
O387 O 0.24947 0.75768 0.73739 0.0
O388 O 0.13375 0.6078 0.70216 0.0
O389 O 0.08906 0.67476 0.69359 0.0
O390 O 0.18927 0.78072 0.66754 0.0
O391 O 0.16493 0.8298 0.691 0.0
C392 C 0.14228 0.59934 0.88695 0.0
C393 C 0.25753 0.4987 0.83737 0.0
C394 C 0.37508 0.54685 0.86449 0.0
C395 C 0.32167 0.54852 0.86612 0.0
C396 C 0.36403 0.49255 0.83668 0.0
C397 C 0.24853 0.45046 0.80313 0.0
C398 C 0.30252 0.44792 0.80259 0.0
C399 C 0.2941 0.75464 0.89141 0.0
C400 C 0.20507 0.50849 0.8349 0.0
C401 C 0.41493 0.63694 0.72057 0.0
C402 C 0.46095 0.70418 0.74412 0.0
C403 C 0.24322 0.78326 0.67533 0.0
C404 C 0.12803 0.88417 0.72491 0.0
C405 C 0.06392 0.83441 0.69608 0.0
C406 C 0.01048 0.83602 0.69775 0.0
C407 C 0.02148 0.89022 0.72564 0.0
C408 C 0.13697 0.93232 0.75922 0.0
C409 C 0.08296 0.9348 0.75978 0.0
C410 C 0.09133 0.62811 0.67087 0.0
C411 C 0.18049 0.87437 0.72739 0.0
H412 H 0.33056 0.58781 0.89216 0.0
H413 H 0.40181 0.48221 0.84511 0.0
H414 H 0.20074 0.41752 0.7759 0.0
H415 H 0.29726 0.41097 0.77717 0.0
H416 H 0.05506 0.79519 0.66999 0.0
H417 H -0.01633 0.9005 0.71726 0.0
H418 H 0.18473 -0.03479 0.78651 0.0
H419 H 0.08815 -0.02836 0.78527 0.0
Eu420 Eu 0.14187 0.18693 0.80911 0.0
C421 C 0.34939 0.37587 0.71162 0.0
C422 C 0.3304 0.41088 0.59752 0.0
C423 C 0.41164 0.5107 0.65709 0.0
C424 C 0.3105 0.356 0.65487 0.0
C425 C 0.40136 0.45356 0.71318 0.0
C426 C 0.37552 0.48901 0.59922 0.0
C427 C 0.44374 0.41009 0.81731 0.0
N428 N 0.3446 0.31857 0.76129 0.0
C429 C 0.39559 0.33464 0.81032 0.0
C430 C 0.44712 0.47036 0.76776 0.0
Eu431 Eu 0.24365 0.19577 0.75324 0.0
N432 N 0.26033 0.28138 0.65406 0.0
C433 C 0.22779 0.25838 0.59716 0.0
C434 C 0.30637 0.38529 0.53993 0.0
C435 C 0.25021 0.31047 0.53888 0.0
H436 H 0.39634 0.28862 0.84658 0.0
H437 H 0.22509 0.29299 0.49347 0.0
H438 H 0.3911 0.53234 0.55497 0.0
H439 H 0.48073 0.42027 0.85843 0.0
H440 H 0.18771 0.19951 0.59597 0.0
H441 H 0.16022 0.08953 0.06886 0.0
H442 H 0.3269 0.42523 0.49582 0.0
H443 H -0.01082 0.09423 0.71571 0.0
H444 H 0.19777 0.18303 0.96638 0.0
H445 H 0.90474 -0.03739 0.70378 0.0
H446 H 0.45527 0.56965 0.65458 0.0
H447 H 0.05834 -0.04267 0.06644 0.0
H448 H -0.00581 0.85025 1.00722 0.0
H449 H 0.48669 0.52969 0.76963 0.0
H450 H 0.93004 0.81305 0.90758 0.0
N451 N 0.12506 0.10124 0.90826 0.0
C452 C 0.15761 0.12418 0.96517 0.0
C453 C 0.07892 -0.00272 1.02234 0.0
C454 C 0.05493 -0.02827 0.96475 0.0
C455 C 0.13511 0.07209 1.02343 0.0
C456 C 0.07486 0.02664 0.90742 0.0
H457 H 0.8987 0.85311 0.79256 0.0
N458 N 0.04086 0.06417 0.801 0.0
C459 C -0.05829 -0.02726 0.74492 0.0
C460 C 0.03601 0.00683 0.85064 0.0
C461 C -0.01011 0.04817 0.75194 0.0
C462 C 0.93827 0.91243 0.79445 0.0
C463 C -0.01599 0.92916 0.84904 0.0
O464 O 0.14325 0.27127 0.84031 0.0
O465 O 0.16426 0.23314 0.70551 0.0
O466 O 0.28276 0.23698 0.8532 0.0
O467 O 0.22595 0.27855 0.86403 0.0
O468 O 0.18532 0.30954 0.75334 0.0
O469 O 0.04841 0.17301 0.8144 0.0
O470 O 0.24232 0.11142 0.72212 0.0
O471 O 0.22135 0.14976 0.85675 0.0
O472 O 0.10276 0.14579 0.70914 0.0
O473 O 0.15951 0.10414 0.69834 0.0
O474 O 0.1999 0.0731 0.80904 0.0
O475 O 0.33713 0.20974 0.74796 0.0
C476 C 0.16717 0.29663 0.69651 0.0
C477 C 0.04829 0.24441 0.87657 0.0
C478 C 0.05453 0.29633 0.9645 0.0
C479 C 0.08381 0.30459 0.91224 0.0
C480 C -0.00793 0.22516 0.98023 0.0
C481 C -0.01854 0.18456 0.88712 0.0
C482 C -0.044 0.17192 0.94133 0.0
C483 C 0.28028 0.28132 0.87943 0.0
C484 C 0.07894 0.23821 0.83166 0.0
C485 C -0.02632 0.87198 0.90511 0.0
C486 C 0.00979 0.89361 0.963 0.0
C487 C 0.21819 0.0861 0.86585 0.0
C488 C 0.33726 0.13843 0.68571 0.0
C489 C 0.30175 0.07822 0.65008 0.0
C490 C 0.33102 0.08647 0.59781 0.0
C491 C 0.39344 0.15766 0.58202 0.0
C492 C 0.40406 0.19835 0.67507 0.0
C493 C 0.4295 0.21096 0.62086 0.0
C494 C 0.1052 0.10142 0.68293 0.0
C495 C 0.30664 0.14455 0.73071 0.0
H496 H 0.13299 0.35595 0.89996 0.0
H497 H -0.03397 0.21097 1.01913 0.0
H498 H -0.05008 0.14462 0.85552 0.0
H499 H 0.90777 0.11994 0.95352 0.0
H500 H 0.25261 0.02682 0.66241 0.0
H501 H 0.41949 0.17181 0.54313 0.0
H502 H 0.43559 0.23837 0.70662 0.0
H503 H 0.47769 0.26296 0.60862 0.0
Eu504 Eu 0.71203 0.13874 0.78204 0.0
C505 C 0.71218 0.401 0.69834 0.0
C506 C 0.86686 0.50617 0.69673 0.0
C507 C 0.80626 0.58034 0.57199 0.0
C508 C 0.7914 0.42292 0.73172 0.0
C509 C 0.72063 0.50539 0.58482 0.0
C510 C 0.8745 0.58098 0.62576 0.0
C511 C 0.59654 0.3468 0.54826 0.0
N512 N 0.64995 0.3147 0.69066 0.0
C513 C 0.59565 0.28569 0.62682 0.0
C514 C 0.65638 0.4511 0.52636 0.0
Eu515 Eu 0.67346 0.24413 0.78026 0.0
N516 N 0.7903 0.35964 0.76451 0.0
C517 C 0.84886 0.3637 0.77459 0.0
C518 C 0.91677 0.49468 0.70911 0.0
C519 C 0.9079 0.42595 0.74569 0.0
H520 H 0.55386 0.22613 0.63094 0.0
H521 H -0.05048 0.42091 0.75315 0.0
H522 H 0.92462 0.62785 0.61255 0.0
H523 H 0.56069 0.31504 0.51229 0.0
H524 H 0.85081 0.31533 0.80055 0.0
H525 H 0.43599 -0.03803 0.80911 0.0
H526 H -0.03698 0.53942 0.68873 0.0
H527 H 0.83157 0.15663 0.93134 0.0
H528 H 0.53464 0.06747 0.76159 0.0
H529 H 0.8247 0.0677 0.05 0.0
H530 H 0.8174 0.6281 0.53153 0.0
H531 H 0.42251 0.84351 0.87361 0.0
H532 H 0.46079 0.75496 0.94965 0.0
H533 H 0.66126 0.47816 0.47578 0.0
H534 H 0.568 0.75466 0.03069 0.0
N535 N 0.59519 0.02319 0.79778 0.0
C536 C 0.5366 0.01911 0.78758 0.0
C537 C 0.46875 0.88821 0.85318 0.0
C538 C 0.5186 0.87664 0.86545 0.0
C539 C 0.47761 -0.04308 0.81656 0.0
C540 C 0.59408 -0.04011 0.8305 0.0
H541 H 0.72413 0.90463 0.08647 0.0
N542 N 0.73549 0.06808 0.8716 0.0
C543 C 0.78888 0.03596 1.01401 0.0
C544 C 0.67328 -0.01822 0.86391 0.0
C545 C 0.78978 0.09707 0.93546 0.0
C546 C 0.72904 0.93165 0.03589 0.0
C547 C 0.6648 0.87737 0.97741 0.0
O548 O 0.78964 0.11962 0.79521 0.0
O549 O 0.71337 0.23757 0.70184 0.0
O550 O 0.61109 0.17554 0.69254 0.0
O551 O 0.63251 0.08819 0.70225 0.0
O552 O 0.79943 0.24044 0.72275 0.0
O553 O 0.70427 0.06808 0.7255 0.0
O554 O 0.59584 0.26323 0.76707 0.0
O555 O 0.67217 0.14544 0.86048 0.0
O556 O 0.7745 0.20735 0.86972 0.0
O557 O 0.75304 0.29466 0.86006 0.0
O558 O 0.58601 0.14217 0.83949 0.0
O559 O 0.68119 0.3148 0.83678 0.0
C560 C 0.77109 0.2715 0.68145 0.0
C561 C 0.81084 0.10963 0.70111 0.0
C562 C 0.84184 0.09546 0.61191 0.0
C563 C 0.79148 0.07413 0.64815 0.0
C564 C 0.90978 0.14617 0.6338 0.0
C565 C 0.87897 0.16824 0.71379 0.0
C566 C 0.92785 0.18362 0.68251 0.0
C567 C 0.60175 0.12043 0.66936 0.0
C568 C 0.76388 0.08337 0.74798 0.0
C569 C 0.57915 0.80242 0.99022 0.0
C570 C 0.51092 0.80181 0.93642 0.0
C571 C 0.61435 0.11112 0.88081 0.0
C572 C 0.57461 0.27323 0.86113 0.0
C573 C 0.59397 0.30868 0.91413 0.0
C574 C 0.54362 0.28732 0.95039 0.0
C575 C 0.47567 0.23663 0.92849 0.0
C576 C 0.50647 0.21467 0.84842 0.0
C577 C 0.4576 0.19925 0.87972 0.0
C578 C 0.78384 0.26246 0.89291 0.0
C579 C 0.62158 0.29949 0.81428 0.0
H580 H 0.73885 0.03139 0.63558 0.0
H581 H -0.05022 0.15864 0.61153 0.0
H582 H 0.89594 0.19831 0.75204 0.0
H583 H -0.0199 0.22371 0.69778 0.0
H584 H 0.6466 0.3514 0.92671 0.0
H585 H 0.43568 0.22412 0.95079 0.0
H586 H 0.4895 0.18465 0.81013 0.0
H587 H 0.40535 0.15919 0.86444 0.0
Eu588 Eu 0.68712 0.63125 0.75979 0.0
C589 C 0.82818 0.85449 0.88469 0.0
C590 C 0.82657 0.77266 0.99031 0.0
C591 C 0.91065 0.90824 0.96981 0.0
C592 C 0.79815 0.78242 0.92674 0.0
C593 C 0.88199 0.9188 0.90843 0.0
C594 C 0.88567 0.83524 1.01043 0.0
C595 C 0.87293 0.00128 0.81005 0.0
N596 N 0.79865 0.86374 0.82446 0.0
C597 C 0.82014 0.93586 0.78631 0.0
C598 C 0.9055 -0.00747 0.87082 0.0
Eu599 Eu 0.69839 0.7516 0.80243 0.0
N600 N 0.73485 0.72671 0.91015 0.0
C601 C 0.694 0.66971 0.95699 0.0
C602 C 0.78844 0.70569 0.03529 0.0
C603 C 0.72086 0.6531 1.01896 0.0
H604 H 0.79519 -0.05682 0.73868 0.0
H605 H 0.68828 0.6077 0.05618 0.0
H606 H 0.91042 0.82816 0.05823 0.0
H607 H 0.89093 0.05779 0.78067 0.0
H608 H 0.642 0.64689 0.95038 0.0
H609 H 0.69749 0.77513 0.50601 0.0
H610 H 0.80607 0.70384 0.08522 0.0
H611 H 0.59021 0.43965 0.82347 0.0
H612 H 0.74369 0.73587 0.61184 0.0
H613 H 0.49447 0.3251 0.78141 0.0
H614 H -0.0442 -0.04273 0.98284 0.0
H615 H 0.57967 0.67913 0.47697 0.0
H616 H 0.47516 0.55497 0.50392 0.0
H617 H -0.05066 0.04215 0.88863 0.0
H618 H 0.4297 0.42585 0.57924 0.0
N619 N 0.6508 0.6561 0.65201 0.0
C620 C 0.6917 0.7131 0.6052 0.0
C621 C 0.59728 0.6773 0.5269 0.0
C622 C 0.55904 0.61036 0.57187 0.0
C623 C 0.66489 0.72976 0.54322 0.0
C624 C 0.58744 0.60053 0.63543 0.0
H625 H 0.43611 0.34083 0.67343 0.0
N626 N 0.5868 0.51916 0.73771 0.0
C627 C 0.51248 0.38163 0.75205 0.0
C628 C 0.55732 0.52847 0.67747 0.0
C629 C 0.56528 0.44701 0.77583 0.0
C630 C 0.47994 0.39043 0.69128 0.0
C631 C 0.50349 0.46419 0.65369 0.0
O632 O 0.70073 0.53931 0.77964 0.0
O633 O 0.76294 0.69604 0.8361 0.0
O634 O 0.76787 0.8228 0.72158 0.0
O635 O 0.79046 0.73831 0.72853 0.0
O636 O 0.6954 0.57654 0.86412 0.0
O637 O 0.75151 0.63849 0.70391 0.0
O638 O 0.68469 0.84347 0.78255 0.0
O639 O 0.62257 0.68673 0.72634 0.0
O640 O 0.61765 0.56005 0.84064 0.0
O641 O 0.59506 0.64453 0.8337 0.0
O642 O 0.69016 0.80607 0.69795 0.0
O643 O 0.63404 0.74435 0.85836 0.0
C644 C 0.75427 0.63354 0.87982 0.0
C645 C 0.72337 0.52112 0.6942 0.0
C646 C 0.77681 0.45295 0.61842 0.0
C647 C 0.78289 0.52832 0.68 0.0
C648 C 0.70448 0.39263 0.60016 0.0
C649 C 0.65212 0.46463 0.67195 0.0
C650 C 0.62934 0.40608 0.63425 0.0
C651 C 0.80336 0.80715 0.70478 0.0
C652 C 0.7383 0.57107 0.73357 0.0
C653 C 0.47487 0.47483 0.59231 0.0
C654 C 0.49989 0.54786 0.55173 0.0
C655 C 0.63124 0.74906 0.68235 0.0
C656 C 0.66209 0.86168 0.86803 0.0
C657 C 0.60256 0.85446 0.88222 0.0
C658 C 0.60862 0.92981 0.9438 0.0
C659 C 0.68094 -0.00987 0.96208 0.0
C660 C 0.73334 0.91816 0.89029 0.0
C661 C 0.75611 -0.0233 0.92802 0.0
C662 C 0.58217 0.57569 0.85744 0.0
C663 C 0.64717 0.81172 0.82867 0.0
H664 H 0.82708 0.5754 0.70304 0.0
H665 H 0.69325 0.34855 0.57808 0.0
H666 H 0.6143 0.46583 0.68101 0.0
H667 H 0.57413 0.37163 0.63018 0.0
H668 H 0.55837 0.80738 0.85919 0.0
H669 H 0.69216 0.03419 0.98418 0.0
H670 H 0.77117 0.91699 0.88123 0.0
H671 H 0.81132 0.01114 0.93211 0.0
C672 C 0.83079 0.07288 0.54981 0.0
C673 C 0.92706 0.07235 0.4161 0.0
C674 C 0.82618 0.80591 0.44003 0.0
Mg675 Mg -0.03521 0.12214 0.51665 0.0
O676 O 0.90707 0.00452 0.52908 0.0
Mg677 Mg 0.80411 0.92913 0.49335 0.0
Mg678 Mg -0.05719 -0.05853 0.53112 0.0
O679 O -0.02152 0.87835 0.53317 0.0
Mg680 Mg 0.92075 0.76071 0.54565 0.0
Mg681 Mg 0.08144 -0.04628 0.56888 0.0
C682 C 0.05925 0.0768 0.62234 0.0
C683 C 0.04966 0.02778 0.41929 0.0
O684 O 0.79208 0.00165 0.54465 0.0
O685 O 0.87826 0.12268 0.51322 0.0
O686 O 0.90989 0.02625 0.47148 0.0
O687 O -0.02347 0.14239 0.41523 0.0
O688 O 0.0317 0.11355 0.59887 0.0
O689 O 0.04909 0.02786 0.59246 0.0
C690 C 0.83588 0.85505 0.64294 0.0
O691 O 0.88824 0.86632 0.62999 0.0
O692 O 0.8023 0.87557 0.59884 0.0
O693 O 0.09341 0.88111 0.51765 0.0
O694 O 0.00722 0.76009 0.54909 0.0
O695 O -0.02435 0.85663 0.59079 0.0
C696 C 0.0547 0.80989 0.5125 0.0
O697 O 0.90901 0.74049 0.64705 0.0
O698 O 0.8537 0.76914 0.46354 0.0
C699 C -0.04151 0.81052 0.64616 0.0
O700 O 0.83663 0.8552 0.46967 0.0
O701 O -0.00264 0.01661 0.43227 0.0
O702 O 0.08321 0.00721 0.46336 0.0
C703 C 0.31745 -0.03857 0.07361 0.0
C704 C 0.26825 0.06056 0.90866 0.0
C705 C 0.34197 0.78535 0.95311 0.0
Mg706 Mg 0.41455 0.08332 1.00053 0.0
O707 O 0.40371 0.00616 0.96622 0.0
Mg708 Mg 0.30271 0.9133 0.94238 0.0
Mg709 Mg 0.44272 -0.05862 0.03113 0.0
O710 O 0.48172 0.87659 0.09604 0.0
Mg711 Mg 0.47088 0.79943 0.06173 0.0
Mg712 Mg 0.58271 -0.03056 0.11988 0.0
C713 C 0.54346 0.0974 0.10917 0.0
C714 C 0.58557 0.06232 0.94853 0.0
O715 O 0.28611 0.92737 1.02686 0.0
O716 O 0.37963 -0.00152 0.08063 0.0
O717 O 0.25491 -0.00464 0.90514 0.0
O718 O 0.3253 0.10376 0.94142 0.0
O719 O 0.51075 0.12799 0.07544 0.0
O720 O 0.53036 0.03755 0.09414 0.0
C721 C 0.29989 0.82041 0.11375 0.0
O722 O 0.36442 0.86254 0.1135 0.0
O723 O 0.2649 0.82602 0.05829 0.0
O724 O 0.59931 -0.04466 0.03541 0.0
O725 O 0.50579 0.88425 0.98162 0.0
O726 O 0.63047 0.88736 0.15714 0.0
C727 C 0.56798 0.92129 0.98865 0.0
O728 O 0.56012 0.77898 0.12083 0.0
O729 O 0.37467 0.75475 0.98684 0.0
C730 C 0.61715 0.82218 0.15361 0.0
O731 O 0.35508 0.84522 0.96812 0.0
O732 O 0.52104 0.0202 0.94877 0.0
O733 O 0.62056 0.05671 1.00399 0.0
C734 C 0.81526 0.51915 0.07615 0.0
C735 C 0.80288 0.60655 0.91773 0.0
C736 C 0.83464 0.2944 0.9499 0.0
Mg737 Mg 0.9228 0.58981 1.01675 0.0
O738 O 0.9094 0.51443 0.98102 0.0
Mg739 Mg 0.80486 0.43466 0.96498 0.0
Mg740 Mg -0.05721 0.44139 0.03117 0.0
O741 O -0.02382 0.36834 0.08132 0.0
Mg742 Mg -0.03724 0.29298 0.04555 0.0
Mg743 Mg 0.08072 0.4481 0.09738 0.0
C744 C 0.05096 0.58845 0.11238 0.0
C745 C 0.09334 0.54682 0.94355 0.0
O746 O 0.78519 0.50307 1.01986 0.0
O747 O 0.86221 0.51065 0.09547 0.0
O748 O 0.77497 0.53204 0.93162 0.0
O749 O 0.86547 0.64862 0.94109 0.0
O750 O 0.01775 0.61915 0.08444 0.0
O751 O 0.03823 0.52965 0.09465 0.0
C752 C 0.79223 0.33591 0.11879 0.0
O753 O 0.85549 0.36214 0.11989 0.0
O754 O 0.76559 0.35716 0.06572 0.0
O755 O 0.10037 0.37968 0.04249 0.0
O756 O 0.02339 0.37217 0.96687 0.0
O757 O 0.11058 0.35066 0.13073 0.0
C758 C 0.07032 0.36364 0.98619 0.0
O759 O 0.02006 0.23411 0.12118 0.0
O760 O 0.86784 0.2637 0.97782 0.0
C761 C 0.08264 0.27614 0.14459 0.0
O762 O 0.84736 0.35315 0.96769 0.0
O763 O 0.03008 0.5206 0.94245 0.0
O764 O 0.11999 0.52558 0.99662 0.0
C765 C 0.33079 0.57288 0.0498 0.0
C766 C 0.42707 0.57236 0.9161 0.0
C767 C 0.32618 0.30592 0.94003 0.0
Mg768 Mg 0.46479 0.62214 1.01665 0.0
O769 O 0.40707 0.50453 1.02908 0.0
Mg770 Mg 0.30411 0.42913 0.99335 0.0
Mg771 Mg 0.44281 0.44147 0.03112 0.0
O772 O 0.47848 0.37835 0.03317 0.0
Mg773 Mg 0.42074 0.26071 0.04565 0.0
Mg774 Mg 0.58143 0.45372 0.06888 0.0
C775 C 0.55925 0.5768 0.12234 0.0
C776 C 0.54966 0.52778 0.91929 0.0
O777 O 0.29208 0.50165 0.04465 0.0
O778 O 0.37826 0.62269 1.01322 0.0
O779 O 0.40989 0.52625 0.97147 0.0
O780 O 0.47653 0.64239 0.91523 0.0
O781 O 0.5317 0.61355 0.09887 0.0
O782 O 0.54909 0.52786 0.09246 0.0
C783 C 0.33588 0.35505 0.14294 0.0
O784 O 0.38824 0.36632 0.12999 0.0
O785 O 0.3023 0.37557 0.09884 0.0
O786 O 0.59341 0.38111 1.01765 0.0
O787 O 0.50722 0.26009 0.04909 0.0
O788 O 0.47565 0.35663 0.09079 0.0
C789 C 0.5547 0.30989 1.0125 0.0
O790 O 0.40901 0.24049 0.14705 0.0
O791 O 0.35371 0.26914 0.96354 0.0
C792 C 0.45849 0.31052 0.14616 0.0
O793 O 0.33663 0.35521 0.96967 0.0
O794 O 0.49736 0.51661 0.93227 0.0
O795 O 0.58321 0.50721 0.96336 0.0
C796 C 0.81745 0.46143 0.57361 0.0
C797 C 0.76825 0.56056 0.40866 0.0
C798 C 0.84197 0.28535 0.45311 0.0
Mg799 Mg 0.91455 0.58332 0.50053 0.0
O800 O 0.90371 0.50616 0.46622 0.0
Mg801 Mg 0.80271 0.4133 0.44238 0.0
Mg802 Mg -0.05728 0.44138 0.53113 0.0
O803 O -0.01828 0.37659 0.59604 0.0
Mg804 Mg -0.02912 0.29943 0.56173 0.0
Mg805 Mg 0.08271 0.46944 0.61988 0.0
C806 C 0.04345 0.5974 0.60917 0.0
C807 C 0.08557 0.56232 0.44853 0.0
O808 O 0.78611 0.42737 0.52686 0.0
O809 O 0.87963 0.49848 0.58063 0.0
O810 O 0.75491 0.49536 0.40514 0.0
O811 O 0.8253 0.60376 0.44142 0.0
O812 O 0.01075 0.62799 0.57544 0.0
O813 O 0.03036 0.53755 0.59414 0.0
C814 C 0.79989 0.32041 0.61375 0.0
O815 O 0.86442 0.36254 0.6135 0.0
O816 O 0.7649 0.32602 0.55829 0.0
O817 O 0.09931 0.45534 0.53541 0.0
O818 O 0.00579 0.38425 0.48162 0.0
O819 O 0.13047 0.38736 0.65714 0.0
C820 C 0.06798 0.42129 0.48865 0.0
O821 O 0.06012 0.27898 0.62083 0.0
O822 O 0.87467 0.25475 0.48684 0.0
C823 C 0.11715 0.32218 0.65361 0.0
O824 O 0.85508 0.34522 0.46812 0.0
O825 O 0.02104 0.5202 0.44877 0.0
O826 O 0.12056 0.55671 0.50399 0.0
C827 C 0.31526 0.01915 0.57615 0.0
C828 C 0.30288 0.10655 0.41773 0.0
C829 C 0.33464 0.7944 0.4499 0.0
Mg830 Mg 0.4228 0.08981 0.51675 0.0
O831 O 0.4094 0.01443 0.48102 0.0
Mg832 Mg 0.30486 0.93466 0.46498 0.0
Mg833 Mg 0.44279 -0.05861 0.53117 0.0
O834 O 0.47618 0.86834 0.58133 0.0
Mg835 Mg 0.46277 0.79298 0.54555 0.0
Mg836 Mg 0.58072 -0.0519 0.59738 0.0
C837 C 0.55096 0.08845 0.61238 0.0
C838 C 0.59334 0.04682 0.44355 0.0
O839 O 0.28519 0.00307 0.51986 0.0
O840 O 0.36221 0.01065 0.59547 0.0
O841 O 0.27497 0.03204 0.43162 0.0
O842 O 0.36547 0.14862 0.44109 0.0
O843 O 0.51775 0.11915 0.58444 0.0
O844 O 0.53823 0.02965 0.59466 0.0
C845 C 0.29223 0.83591 0.61879 0.0
O846 O 0.35549 0.86214 0.61989 0.0
O847 O 0.26559 0.85716 0.56572 0.0
O848 O 0.60037 0.87968 0.54249 0.0
O849 O 0.52339 0.87217 0.46687 0.0
O850 O 0.61058 0.85066 0.63074 0.0
C851 C 0.57032 0.86364 0.48619 0.0
O852 O 0.52007 0.73411 0.62118 0.0
O853 O 0.36784 0.7637 0.47782 0.0
C854 C 0.58265 0.77614 0.64459 0.0
O855 O 0.34736 0.85315 0.46769 0.0
O856 O 0.53008 0.0206 0.44246 0.0
O857 O 0.61999 0.02558 0.49662 0.0
loop_
_geom_bond_atom_site_label_1
_geom_bond_atom_site_label_2
_geom_bond_distance
_geom_bond_site_symmetry_2
_ccdc_geom_bond_type
Eu0 N31 2.657 . S
Eu0 N38 2.609 . S
Eu0 O44 2.558 . S
Eu0 O45 2.612 . S
Eu0 O47 2.339 . S
Eu0 O48 2.563 . S
Eu0 O49 2.419 . S
Eu0 O51 2.380 . S
Eu0 O52 2.432 . S
Eu0 C64 2.848 . S
C1 C4 1.429 . S
C1 C5 1.411 . S
C1 N8 1.377 . S
C2 C4 1.420 . S
C2 C6 1.423 . S
C2 C14 1.392 . S
C3 C5 1.420 . S
C3 C6 1.351 . S
C3 H26 0.931 . S
C4 C1 1.429 . S
C4 C2 1.420 . S
C4 N12 1.362 . S
C5 C1 1.411 . S
C5 C3 1.420 . S
C5 C10 1.395 . S
C6 C2 1.423 . S
C6 C3 1.351 . S
C6 H18 0.930 . S
C7 C9 1.400 . S
C7 C10 1.386 . S
C7 H19 0.930 . S
N8 C1 1.377 . S
N8 C9 1.321 . S
N8 Eu11 2.609 . S
C9 C7 1.400 . S
C9 N8 1.321 . S
C9 H16 0.930 . S
C10 C5 1.395 . S
C10 C7 1.386 . S
C10 H29 0.930 . S
Eu11 N8 2.609 . S
Eu11 N12 2.657 . S
Eu11 O45 2.380 . S
Eu11 O46 2.432 . S
Eu11 O50 2.558 . S
Eu11 O51 2.612 . S
Eu11 O53 2.339 . S
Eu11 O54 2.563 . S
Eu11 O55 2.419 . S
Eu11 C75 2.848 . S
N12 C4 1.362 . S
N12 Eu11 2.657 . S
N12 C13 1.334 . S
C13 N12 1.334 . S
C13 C15 1.413 . S
C13 H20 0.929 . S
C14 C2 1.392 . S
C14 C15 1.367 . S
C14 H22 0.930 . S
C15 C13 1.413 . S
C15 C14 1.367 . S
C15 H17 0.930 . S
H16 C9 0.930 . S
H17 C15 0.930 . S
H18 C6 0.930 . S
H19 C7 0.930 . S
H20 C13 0.929 . S
H21 C35 0.930 1_556 S
H22 C14 0.930 . S
H23 C41 0.930 1_455 S
H24 C32 0.929 . S
H25 C39 0.930 . S
H26 C3 0.931 . S
H27 C33 0.930 . S
H28 C66 0.930 . S
H29 C10 0.930 . S
H30 C65 0.931 1_565 S
N31 Eu0 2.657 . S
N31 C32 1.334 . S
N31 C36 1.362 . S
C32 H24 0.929 . S
C32 N31 1.334 . S
C32 C35 1.413 . S
C33 H27 0.930 . S
C33 C34 1.392 1_556 S
C33 C35 1.367 1_556 S
C34 C33 1.392 1_554 S
C34 C36 1.420 . S
C34 C66 1.423 1_454 S
C35 H21 0.930 1_554 S
C35 C32 1.413 . S
C35 C33 1.367 1_554 S
C36 N31 1.362 . S
C36 C34 1.420 . S
C36 C40 1.429 . S
H37 C42 0.930 . S
N38 Eu0 2.609 . S
N38 C40 1.377 . S
N38 C41 1.321 1_445 S
C39 H25 0.930 . S
C39 C41 1.400 . S
C39 C42 1.386 . S
C40 C36 1.429 . S
C40 N38 1.377 . S
C40 C43 1.411 1_445 S
C41 H23 0.930 1_655 S
C41 N38 1.321 1_665 S
C41 C39 1.400 . S
C42 H37 0.930 . S
C42 C39 1.386 . S
C42 C43 1.395 . S
C43 C40 1.411 1_665 S
C43 C42 1.395 . S
C43 C65 1.420 1_565 S
O44 Eu0 2.558 . S
O44 C64 1.257 . S
O45 Eu0 2.612 . S
O45 Eu11 2.380 . S
O45 C56 1.276 . S
O46 Eu11 2.432 . S
O46 C63 1.264 . S
O47 Eu0 2.339 . S
O47 C63 1.254 . S
O48 Eu0 2.563 . S
O48 C56 1.235 . S
O49 Eu0 2.419 . S
O49 C64 1.249 . S
O50 Eu11 2.558 . S
O50 C75 1.257 . S
O51 Eu0 2.380 . S
O51 Eu11 2.612 . S
O51 C67 1.276 . S
O52 Eu0 2.432 . S
O52 C74 1.264 . S
O53 Eu11 2.339 . S
O53 C74 1.254 . S
O54 Eu11 2.563 . S
O54 C67 1.235 . S
O55 Eu11 2.419 . S
O55 C75 1.249 . S
C56 O45 1.276 . S
C56 O48 1.235 . S
C57 C59 1.393 1_565 S
C57 C61 1.395 . S
C57 C64 1.492 1_565 S
C58 C59 1.392 1_565 S
C58 C60 1.386 . S
C59 C57 1.393 1_545 S
C59 C58 1.392 1_545 S
C59 H76 0.930 . S
C60 C58 1.386 . S
C60 C62 1.395 . S
C60 H77 0.930 . S
C61 C57 1.395 . S
C61 C62 1.379 . S
C61 H78 0.930 . S
C62 C60 1.395 . S
C62 C61 1.379 . S
C62 H79 0.930 . S
C63 O46 1.264 . S
C63 O47 1.254 . S
C64 Eu0 2.848 . S
C64 O44 1.257 . S
C64 O49 1.249 . S
C64 C57 1.492 1_545 S
C65 H30 0.931 1_545 S
C65 C43 1.420 1_545 S
C65 C66 1.351 1_554 S
C66 H28 0.930 . S
C66 C34 1.423 1_656 S
C66 C65 1.351 1_556 S
C67 O51 1.276 . S
C67 O54 1.235 . S
C68 C69 1.393 . S
C68 C72 1.395 . S
C68 C75 1.492 . S
C69 C68 1.393 . S
C69 C70 1.392 . S
C69 H80 0.930 . S
C70 C69 1.392 . S
C70 C71 1.386 . S
C71 C70 1.386 . S
C71 C73 1.395 . S
C71 H81 0.930 . S
C72 C68 1.395 . S
C72 C73 1.379 . S
C72 H82 0.930 . S
C73 C71 1.395 . S
C73 C72 1.379 . S
C73 H83 0.930 . S
C74 O52 1.264 . S
C74 O53 1.254 . S
C75 Eu11 2.848 . S
C75 O50 1.257 . S
C75 O55 1.249 . S
C75 C68 1.492 . S
H76 C59 0.930 . S
H77 C60 0.930 . S
H78 C61 0.930 . S
H79 C62 0.930 . S
H80 C69 0.930 . S
H81 C71 0.930 . S
H82 C72 0.930 . S
H83 C73 0.930 . S
Eu84 N115 2.657 . S
Eu84 N122 2.609 . S
Eu84 O128 2.558 . S
Eu84 O129 2.612 . S
Eu84 O131 2.339 . S
Eu84 O132 2.563 . S
Eu84 O133 2.419 . S
Eu84 O135 2.380 . S
Eu84 O136 2.432 . S
Eu84 C148 2.848 . S
C85 C88 1.429 . S
C85 C89 1.411 . S
C85 N92 1.377 . S
C86 C88 1.420 . S
C86 C90 1.423 . S
C86 C98 1.392 . S
C87 C89 1.420 . S
C87 C90 1.351 . S
C87 H110 0.931 . S
C88 C85 1.429 . S
C88 C86 1.420 . S
C88 N96 1.362 . S
C89 C85 1.411 . S
C89 C87 1.420 . S
C89 C94 1.395 . S
C90 C86 1.423 . S
C90 C87 1.351 . S
C90 H102 0.930 . S
C91 C93 1.400 . S
C91 C94 1.386 . S
C91 H103 0.930 . S
N92 C85 1.377 . S
N92 C93 1.321 . S
N92 Eu95 2.609 . S
C93 C91 1.400 . S
C93 N92 1.321 . S
C93 H100 0.930 . S
C94 C89 1.395 . S
C94 C91 1.386 . S
C94 H113 0.930 . S
Eu95 N92 2.609 . S
Eu95 N96 2.657 . S
Eu95 O129 2.380 . S
Eu95 O130 2.432 . S
Eu95 O134 2.558 . S
Eu95 O135 2.612 . S
Eu95 O137 2.339 . S
Eu95 O138 2.563 . S
Eu95 O139 2.419 . S
Eu95 C159 2.848 . S
N96 C88 1.362 . S
N96 Eu95 2.657 . S
N96 C97 1.334 . S
C97 N96 1.334 . S
C97 C99 1.413 . S
C97 H104 0.929 . S
C98 C86 1.392 . S
C98 C99 1.367 . S
C98 H106 0.930 . S
C99 C97 1.413 . S
C99 C98 1.367 . S
C99 H101 0.930 1_545 S
H100 C93 0.930 . S
H101 C99 0.930 1_565 S
H102 C90 0.930 . S
H103 C91 0.930 . S
H104 C97 0.929 . S
H105 C119 0.930 . S
H106 C98 0.930 . S
H107 C125 0.930 . S
H108 C116 0.925 1_655 S
H109 C123 0.930 . S
H110 C87 0.931 . S
H111 C117 0.930 . S
H112 C150 0.930 . S
H113 C94 0.930 . S
H114 C149 0.925 1_455 S
N115 Eu84 2.657 . S
N115 C116 1.334 1_655 S
N115 C120 1.362 . S
C116 H108 0.925 1_455 S
C116 N115 1.334 1_455 S
C116 C119 1.418 . S
C117 H111 0.930 . S
C117 C118 1.392 . S
C117 C119 1.367 . S
C118 C117 1.392 . S
C118 C120 1.420 1_455 S
C118 C150 1.423 . S
C119 H105 0.930 . S
C119 C116 1.418 . S
C119 C117 1.367 . S
C120 N115 1.362 . S
C120 C118 1.420 1_655 S
C120 C124 1.429 . S
H121 C126 0.930 . S
N122 Eu84 2.609 . S
N122 C124 1.377 . S
N122 C125 1.321 . S
C123 H109 0.930 . S
C123 C125 1.400 . S
C123 C126 1.386 . S
C124 C120 1.429 . S
C124 N122 1.377 . S
C124 C127 1.411 . S
C125 H107 0.930 . S
C125 N122 1.321 . S
C125 C123 1.400 . S
C126 H121 0.930 . S
C126 C123 1.386 . S
C126 C127 1.395 . S
C127 C124 1.411 . S
C127 C126 1.395 . S
C127 C149 1.425 . S
O128 Eu84 2.558 . S
O128 C148 1.257 . S
O129 Eu84 2.612 . S
O129 Eu95 2.380 . S
O129 C140 1.276 . S
O130 Eu95 2.432 . S
O130 C147 1.264 . S
O131 Eu84 2.339 . S
O131 C147 1.254 . S
O132 Eu84 2.563 . S
O132 C140 1.235 . S
O133 Eu84 2.419 . S
O133 C148 1.249 . S
O134 Eu95 2.558 . S
O134 C159 1.257 . S
O135 Eu84 2.380 . S
O135 Eu95 2.612 . S
O135 C151 1.276 . S
O136 Eu84 2.432 . S
O136 C158 1.264 . S
O137 Eu95 2.339 . S
O137 C158 1.254 . S
O138 Eu95 2.563 . S
O138 C151 1.235 . S
O139 Eu95 2.419 . S
O139 C159 1.249 . S
C140 O129 1.276 . S
C140 O132 1.235 . S
C141 C143 1.393 . S
C141 C145 1.395 1_545 S
C141 C148 1.492 . S
C142 C143 1.392 . S
C142 C144 1.386 1_545 S
C143 C141 1.393 . S
C143 C142 1.392 . S
C143 H160 0.930 . S
C144 C142 1.386 1_565 S
C144 C146 1.395 . S
C144 H161 0.930 . S
C145 C141 1.395 1_565 S
C145 C146 1.379 . S
C145 H162 0.930 . S
C146 C144 1.395 . S
C146 C145 1.379 . S
C146 H163 0.930 . S
C147 O130 1.264 . S
C147 O131 1.254 . S
C148 Eu84 2.848 . S
C148 O128 1.257 . S
C148 O133 1.249 . S
C148 C141 1.492 . S
C149 H114 0.925 1_655 S
C149 C127 1.425 . S
C149 C150 1.351 1_655 S
C150 H112 0.930 . S
C150 C118 1.423 . S
C150 C149 1.351 1_455 S
C151 O135 1.276 . S
C151 O138 1.235 . S
C152 C153 1.393 . S
C152 C156 1.395 . S
C152 C159 1.492 . S
C153 C152 1.393 . S
C153 C154 1.392 . S
C153 H164 0.930 . S
C154 C153 1.392 . S
C154 C155 1.386 . S
C155 C154 1.386 . S
C155 C157 1.395 . S
C155 H165 0.930 . S
C156 C152 1.395 . S
C156 C157 1.379 . S
C156 H166 0.930 . S
C157 C155 1.395 . S
C157 C156 1.379 . S
C157 H167 0.930 . S
C158 O136 1.264 . S
C158 O137 1.254 . S
C159 Eu95 2.848 . S
C159 O134 1.257 . S
C159 O139 1.249 . S
C159 C152 1.492 . S
H160 C143 0.930 . S
H161 C144 0.930 . S
H162 C145 0.930 . S
H163 C146 0.930 . S
H164 C153 0.930 . S
H165 C155 0.930 . S
H166 C156 0.930 . S
H167 C157 0.930 . S
Eu168 N199 2.657 . S
Eu168 N206 2.609 . S
Eu168 O212 2.558 . S
Eu168 O213 2.612 . S
Eu168 O215 2.339 . S
Eu168 O216 2.563 . S
Eu168 O217 2.419 . S
Eu168 O219 2.380 . S
Eu168 O220 2.432 . S
Eu168 C232 2.848 . S
C169 C172 1.429 1_545 S
C169 C173 1.411 . S
C169 N176 1.377 1_545 S
C170 C172 1.420 . S
C170 C174 1.423 1_565 S
C170 C182 1.392 1_554 S
C171 C173 1.420 . S
C171 C174 1.351 . S
C171 H194 0.931 1_655 S
C172 C169 1.429 1_565 S
C172 C170 1.420 . S
C172 N180 1.362 . S
C173 C169 1.411 . S
C173 C171 1.420 . S
C173 C178 1.395 1_655 S
C174 C170 1.423 1_545 S
C174 C171 1.351 . S
C174 H186 0.930 1_554 S
C175 C177 1.400 . S
C175 C178 1.386 . S
C175 H187 0.930 . S
N176 C169 1.377 1_565 S
N176 C177 1.321 1_665 S
N176 Eu179 2.609 . S
C177 C175 1.400 . S
C177 N176 1.321 1_445 S
C177 H184 0.930 1_545 S
C178 C173 1.395 1_455 S
C178 C175 1.386 . S
C178 H197 0.930 . S
Eu179 N176 2.609 . S
Eu179 N180 2.657 . S
Eu179 O213 2.380 . S
Eu179 O214 2.432 . S
Eu179 O218 2.558 . S
Eu179 O219 2.612 . S
Eu179 O221 2.339 . S
Eu179 O222 2.563 . S
Eu179 O223 2.419 . S
Eu179 C243 2.848 . S
N180 C172 1.362 . S
N180 Eu179 2.657 . S
N180 C181 1.334 . S
C181 N180 1.334 . S
C181 C183 1.413 . S
C181 H188 0.929 . S
C182 C170 1.392 1_556 S
C182 C183 1.367 1_556 S
C182 H190 0.930 . S
C183 C181 1.413 . S
C183 C182 1.367 1_554 S
C183 H185 0.930 1_554 S
H184 C177 0.930 1_565 S
H185 C183 0.930 1_556 S
H186 C174 0.930 1_556 S
H187 C175 0.930 . S
H188 C181 0.929 . S
H189 C203 0.930 . S
H190 C182 0.930 . S
H191 C209 0.930 . S
H192 C200 0.929 . S
H193 C207 0.930 . S
H194 C171 0.931 1_455 S
H195 C201 0.930 . S
H196 C234 0.930 . S
H197 C178 0.930 . S
H198 C233 0.931 . S
N199 Eu168 2.657 . S
N199 C200 1.334 . S
N199 C204 1.362 . S
C200 H192 0.929 . S
C200 N199 1.334 . S
C200 C203 1.413 . S
C201 H195 0.930 . S
C201 C202 1.392 . S
C201 C203 1.367 . S
C202 C201 1.392 . S
C202 C204 1.420 . S
C202 C234 1.423 . S
C203 H189 0.930 . S
C203 C200 1.413 . S
C203 C201 1.367 . S
C204 N199 1.362 . S
C204 C202 1.420 . S
C204 C208 1.429 . S
H205 C210 0.930 . S
N206 Eu168 2.609 . S
N206 C208 1.377 . S
N206 C209 1.321 . S
C207 H193 0.930 . S
C207 C209 1.400 . S
C207 C210 1.386 . S
C208 C204 1.429 . S
C208 N206 1.377 . S
C208 C211 1.411 . S
C209 H191 0.930 . S
C209 N206 1.321 . S
C209 C207 1.400 . S
C210 H205 0.930 . S
C210 C207 1.386 . S
C210 C211 1.395 . S
C211 C208 1.411 . S
C211 C210 1.395 . S
C211 C233 1.420 . S
O212 Eu168 2.558 . S
O212 C232 1.257 . S
O213 Eu168 2.612 . S
O213 Eu179 2.380 . S
O213 C224 1.276 . S
O214 Eu179 2.432 . S
O214 C231 1.264 . S
O215 Eu168 2.339 . S
O215 C231 1.254 . S
O216 Eu168 2.563 . S
O216 C224 1.235 . S
O217 Eu168 2.419 . S
O217 C232 1.249 . S
O218 Eu179 2.558 . S
O218 C243 1.257 . S
O219 Eu168 2.380 . S
O219 Eu179 2.612 . S
O219 C235 1.276 . S
O220 Eu168 2.432 . S
O220 C242 1.264 . S
O221 Eu179 2.339 . S
O221 C242 1.254 . S
O222 Eu179 2.563 . S
O222 C235 1.235 . S
O223 Eu179 2.419 . S
O223 C243 1.249 . S
C224 O213 1.276 . S
C224 O216 1.235 . S
C225 C227 1.393 . S
C225 C229 1.395 . S
C225 C232 1.492 . S
C226 C227 1.392 . S
C226 C228 1.386 . S
C227 C225 1.393 . S
C227 C226 1.392 . S
C227 H244 0.930 . S
C228 C226 1.386 . S
C228 C230 1.395 . S
C228 H245 0.930 . S
C229 C225 1.395 . S
C229 C230 1.379 . S
C229 H246 0.930 . S
C230 C228 1.395 . S
C230 C229 1.379 . S
C230 H247 0.930 . S
C231 O214 1.264 . S
C231 O215 1.254 . S
C232 Eu168 2.848 . S
C232 O212 1.257 . S
C232 O217 1.249 . S
C232 C225 1.492 . S
C233 H198 0.931 . S
C233 C211 1.420 . S
C233 C234 1.351 . S
C234 H196 0.930 . S
C234 C202 1.423 . S
C234 C233 1.351 . S
C235 O219 1.276 . S
C235 O222 1.235 . S
C236 C237 1.393 . S
C236 C240 1.395 1_655 S
C236 C243 1.492 . S
C237 C236 1.393 . S
C237 C238 1.392 1_655 S
C237 H248 0.930 . S
C238 C237 1.392 1_455 S
C238 C239 1.386 . S
C239 C238 1.386 . S
C239 C241 1.395 . S
C239 H249 0.930 . S
C240 C236 1.395 1_455 S
C240 C241 1.379 . S
C240 H250 0.930 . S
C241 C239 1.395 . S
C241 C240 1.379 . S
C241 H251 0.930 . S
C242 O220 1.264 . S
C242 O221 1.254 . S
C243 Eu179 2.848 . S
C243 O218 1.257 . S
C243 O223 1.249 . S
C243 C236 1.492 . S
H244 C227 0.930 . S
H245 C228 0.930 . S
H246 C229 0.930 . S
H247 C230 0.930 . S
H248 C237 0.930 . S
H249 C239 0.930 . S
H250 C240 0.930 . S
H251 C241 0.930 . S
Eu252 N283 2.657 . S
Eu252 N290 2.609 . S
Eu252 O296 2.558 . S
Eu252 O297 2.612 . S
Eu252 O299 2.339 . S
Eu252 O300 2.563 . S
Eu252 O301 2.419 . S
Eu252 O303 2.380 . S
Eu252 O304 2.432 . S
Eu252 C316 2.848 . S
C253 C256 1.429 . S
C253 C257 1.411 . S
C253 N260 1.377 . S
C254 C256 1.420 1_545 S
C254 C258 1.423 . S
C254 C266 1.392 . S
C255 C257 1.420 1_545 S
C255 C258 1.351 . S
C255 H278 0.931 1_554 S
C256 C253 1.429 . S
C256 C254 1.420 1_565 S
C256 N264 1.362 . S
C257 C253 1.411 . S
C257 C255 1.420 1_565 S
C257 C262 1.395 . S
C258 C254 1.423 . S
C258 C255 1.351 . S
C258 H270 0.930 . S
C259 C261 1.400 . S
C259 C262 1.386 . S
C259 H271 0.930 . S
N260 C253 1.377 . S
N260 C261 1.321 . S
N260 Eu263 2.609 . S
C261 C259 1.400 . S
C261 N260 1.321 . S
C261 H268 0.930 . S
C262 C257 1.395 . S
C262 C259 1.386 . S
C262 H281 0.930 1_554 S
Eu263 N260 2.609 . S
Eu263 N264 2.657 . S
Eu263 O297 2.380 . S
Eu263 O298 2.432 . S
Eu263 O302 2.558 . S
Eu263 O303 2.612 . S
Eu263 O305 2.339 . S
Eu263 O306 2.563 . S
Eu263 O307 2.419 . S
Eu263 C327 2.848 . S
N264 C256 1.362 . S
N264 Eu263 2.657 . S
N264 C265 1.334 1_565 S
C265 N264 1.334 1_545 S
C265 C267 1.413 . S
C265 H272 0.929 1_545 S
C266 C254 1.392 . S
C266 C267 1.367 . S
C266 H274 0.930 . S
C267 C265 1.413 . S
C267 C266 1.367 . S
C267 H269 0.930 . S
H268 C261 0.930 . S
H269 C267 0.930 . S
H270 C258 0.930 . S
H271 C259 0.930 . S
H272 C265 0.929 1_565 S
H273 C287 0.930 . S
H274 C266 0.930 . S
H275 C293 0.930 . S
H276 C284 0.929 . S
H277 C291 0.930 . S
H278 C255 0.931 1_556 S
H279 C285 0.930 . S
H280 C318 0.930 . S
H281 C262 0.930 1_556 S
H282 C317 0.931 . S
N283 Eu252 2.657 . S
N283 C284 1.334 . S
N283 C288 1.362 . S
C284 H276 0.929 . S
C284 N283 1.334 . S
C284 C287 1.413 . S
C285 H279 0.930 . S
C285 C286 1.392 . S
C285 C287 1.367 . S
C286 C285 1.392 . S
C286 C288 1.420 . S
C286 C318 1.423 . S
C287 H273 0.930 . S
C287 C284 1.413 . S
C287 C285 1.367 . S
C288 N283 1.362 . S
C288 C286 1.420 . S
C288 C292 1.429 . S
H289 C294 0.930 . S
N290 Eu252 2.609 . S
N290 C292 1.377 . S
N290 C293 1.321 . S
C291 H277 0.930 . S
C291 C293 1.400 . S
C291 C294 1.386 . S
C292 C288 1.429 . S
C292 N290 1.377 . S
C292 C295 1.411 . S
C293 H275 0.930 . S
C293 N290 1.321 . S
C293 C291 1.400 . S
C294 H289 0.930 . S
C294 C291 1.386 . S
C294 C295 1.395 . S
C295 C292 1.411 . S
C295 C294 1.395 . S
C295 C317 1.420 . S
O296 Eu252 2.558 . S
O296 C316 1.257 . S
O297 Eu252 2.612 . S
O297 Eu263 2.380 . S
O297 C308 1.276 . S
O298 Eu263 2.432 . S
O298 C315 1.264 . S
O299 Eu252 2.339 . S
O299 C315 1.254 . S
O300 Eu252 2.563 . S
O300 C308 1.235 . S
O301 Eu252 2.419 . S
O301 C316 1.249 . S
O302 Eu263 2.558 . S
O302 C327 1.257 . S
O303 Eu252 2.380 . S
O303 Eu263 2.612 . S
O303 C319 1.276 . S
O304 Eu252 2.432 . S
O304 C326 1.264 . S
O305 Eu263 2.339 . S
O305 C326 1.254 . S
O306 Eu263 2.563 . S
O306 C319 1.235 . S
O307 Eu263 2.419 . S
O307 C327 1.249 . S
C308 O297 1.276 . S
C308 O300 1.235 . S
C309 C311 1.393 . S
C309 C313 1.395 . S
C309 C316 1.492 . S
C310 C311 1.392 . S
C310 C312 1.386 . S
C311 C309 1.393 . S
C311 C310 1.392 . S
C311 H328 0.930 . S
C312 C310 1.386 . S
C312 C314 1.395 . S
C312 H329 0.930 . S
C313 C309 1.395 . S
C313 C314 1.379 . S
C313 H330 0.930 . S
C314 C312 1.395 . S
C314 C313 1.379 . S
C314 H331 0.930 . S
C315 O298 1.264 . S
C315 O299 1.254 . S
C316 Eu252 2.848 . S
C316 O296 1.257 . S
C316 O301 1.249 . S
C316 C309 1.492 . S
C317 H282 0.931 . S
C317 C295 1.420 . S
C317 C318 1.351 . S
C318 H280 0.930 . S
C318 C286 1.423 . S
C318 C317 1.351 . S
C319 O303 1.276 . S
C319 O306 1.235 . S
C320 C321 1.393 . S
C320 C324 1.395 . S
C320 C327 1.492 . S
C321 C320 1.393 . S
C321 C322 1.392 . S
C321 H332 0.930 . S
C322 C321 1.392 . S
C322 C323 1.386 . S
C323 C322 1.386 . S
C323 C325 1.395 1_455 S
C323 H333 0.930 1_455 S
C324 C320 1.395 . S
C324 C325 1.379 1_455 S
C324 H334 0.930 . S
C325 C323 1.395 1_655 S
C325 C324 1.379 1_655 S
C325 H335 0.930 . S
C326 O304 1.264 . S
C326 O305 1.254 . S
C327 Eu263 2.848 . S
C327 O302 1.257 . S
C327 O307 1.249 . S
C327 C320 1.492 . S
H328 C311 0.930 . S
H329 C312 0.930 . S
H330 C313 0.930 . S
H331 C314 0.930 . S
H332 C321 0.930 . S
H333 C323 0.930 1_655 S
H334 C324 0.930 . S
H335 C325 0.930 . S
Eu336 N367 2.657 . S
Eu336 N374 2.609 . S
Eu336 O380 2.558 . S
Eu336 O381 2.612 . S
Eu336 O383 2.339 . S
Eu336 O384 2.563 . S
Eu336 O385 2.419 . S
Eu336 O387 2.380 . S
Eu336 O388 2.432 . S
Eu336 C400 2.848 . S
C337 C340 1.429 . S
C337 C341 1.411 . S
C337 N344 1.377 . S
C338 C340 1.420 1_655 S
C338 C342 1.423 . S
C338 C350 1.392 . S
C339 C341 1.420 . S
C339 C342 1.351 1_455 S
C339 H362 0.931 1_455 S
C340 C337 1.429 . S
C340 C338 1.420 1_455 S
C340 N348 1.362 . S
C341 C337 1.411 . S
C341 C339 1.420 . S
C341 C346 1.395 . S
C342 C338 1.423 . S
C342 C339 1.351 1_655 S
C342 H354 0.930 . S
C343 C345 1.400 . S
C343 C346 1.386 . S
C343 H355 0.930 . S
N344 C337 1.377 . S
N344 C345 1.321 . S
N344 Eu347 2.609 . S
C345 C343 1.400 . S
C345 N344 1.321 . S
C345 H352 0.930 . S
C346 C341 1.395 . S
C346 C343 1.386 . S
C346 H365 0.930 . S
Eu347 N344 2.609 . S
Eu347 N348 2.657 . S
Eu347 O381 2.380 . S
Eu347 O382 2.432 . S
Eu347 O386 2.558 . S
Eu347 O387 2.612 . S
Eu347 O389 2.339 . S
Eu347 O390 2.563 . S
Eu347 O391 2.419 . S
Eu347 C411 2.848 . S
N348 C340 1.362 . S
N348 Eu347 2.657 . S
N348 C349 1.334 . S
C349 N348 1.334 . S
C349 C351 1.413 1_455 S
C349 H356 0.929 . S
C350 C338 1.392 . S
C350 C351 1.367 . S
C350 H358 0.930 . S
C351 C349 1.413 1_655 S
C351 C350 1.367 . S
C351 H353 0.930 . S
H352 C345 0.930 . S
H353 C351 0.930 . S
H354 C342 0.930 . S
H355 C343 0.930 . S
H356 C349 0.929 . S
H357 C371 0.930 1_545 S
H358 C350 0.930 . S
H359 C377 0.930 . S
H360 C368 0.929 . S
H361 C375 0.930 . S
H362 C339 0.931 1_655 S
H363 C369 0.930 . S
H364 C402 0.930 . S
H365 C346 0.930 . S
H366 C401 0.931 . S
N367 Eu336 2.657 . S
N367 C368 1.334 . S
N367 C372 1.362 . S
C368 H360 0.929 . S
C368 N367 1.334 . S
C368 C371 1.413 . S
C369 H363 0.930 . S
C369 C370 1.392 . S
C369 C371 1.367 . S
C370 C369 1.392 . S
C370 C372 1.420 . S
C370 C402 1.423 . S
C371 H357 0.930 1_565 S
C371 C368 1.413 . S
C371 C369 1.367 . S
C372 N367 1.362 . S
C372 C370 1.420 . S
C372 C376 1.429 . S
H373 C378 0.930 . S
N374 Eu336 2.609 . S
N374 C376 1.377 . S
N374 C377 1.321 . S
C375 H361 0.930 . S
C375 C377 1.400 . S
C375 C378 1.386 . S
C376 C372 1.429 . S
C376 N374 1.377 . S
C376 C379 1.411 . S
C377 H359 0.930 . S
C377 N374 1.321 . S
C377 C375 1.400 . S
C378 H373 0.930 . S
C378 C375 1.386 . S
C378 C379 1.395 . S
C379 C376 1.411 . S
C379 C378 1.395 . S
C379 C401 1.420 . S
O380 Eu336 2.558 . S
O380 C400 1.257 . S
O381 Eu336 2.612 . S
O381 Eu347 2.380 . S
O381 C392 1.276 . S
O382 Eu347 2.432 . S
O382 C399 1.264 . S
O383 Eu336 2.339 . S
O383 C399 1.254 . S
O384 Eu336 2.563 . S
O384 C392 1.235 . S
O385 Eu336 2.419 . S
O385 C400 1.249 . S
O386 Eu347 2.558 . S
O386 C411 1.257 . S
O387 Eu336 2.380 . S
O387 Eu347 2.612 . S
O387 C403 1.276 . S
O388 Eu336 2.432 . S
O388 C410 1.264 . S
O389 Eu347 2.339 . S
O389 C410 1.254 . S
O390 Eu347 2.563 . S
O390 C403 1.235 . S
O391 Eu347 2.419 . S
O391 C411 1.249 . S
C392 O381 1.276 . S
C392 O384 1.235 . S
C393 C395 1.393 . S
C393 C397 1.395 . S
C393 C400 1.492 . S
C394 C395 1.392 . S
C394 C396 1.386 . S
C395 C393 1.393 . S
C395 C394 1.392 . S
C395 H412 0.930 . S
C396 C394 1.386 . S
C396 C398 1.395 . S
C396 H413 0.930 . S
C397 C393 1.395 . S
C397 C398 1.379 . S
C397 H414 0.930 . S
C398 C396 1.395 . S
C398 C397 1.379 . S
C398 H415 0.930 . S
C399 O382 1.264 . S
C399 O383 1.254 . S
C400 Eu336 2.848 . S
C400 O380 1.257 . S
C400 O385 1.249 . S
C400 C393 1.492 . S
C401 H366 0.931 . S
C401 C379 1.420 . S
C401 C402 1.351 . S
C402 H364 0.930 . S
C402 C370 1.423 . S
C402 C401 1.351 . S
C403 O387 1.276 . S
C403 O390 1.235 . S
C404 C405 1.393 . S
C404 C408 1.395 1_565 S
C404 C411 1.492 . S
C405 C404 1.393 . S
C405 C406 1.392 . S
C405 H416 0.930 . S
C406 C405 1.392 . S
C406 C407 1.386 1_565 S
C407 C406 1.386 1_545 S
C407 C409 1.395 . S
C407 H417 0.930 . S
C408 C404 1.395 1_545 S
C408 C409 1.379 . S
C408 H418 0.930 . S
C409 C407 1.395 . S
C409 C408 1.379 . S
C409 H419 0.930 . S
C410 O388 1.264 . S
C410 O389 1.254 . S
C411 Eu347 2.848 . S
C411 O386 1.257 . S
C411 O391 1.249 . S
C411 C404 1.492 . S
H412 C395 0.930 . S
H413 C396 0.930 . S
H414 C397 0.930 . S
H415 C398 0.930 . S
H416 C405 0.930 . S
H417 C407 0.930 . S
H418 C408 0.930 . S
H419 C409 0.930 . S
Eu420 N451 2.657 . S
Eu420 N458 2.609 . S
Eu420 O464 2.558 . S
Eu420 O465 2.612 . S
Eu420 O467 2.339 . S
Eu420 O468 2.563 . S
Eu420 O469 2.419 . S
Eu420 O471 2.380 . S
Eu420 O472 2.432 . S
Eu420 C484 2.848 . S
C421 C424 1.429 . S
C421 C425 1.411 . S
C421 N428 1.377 . S
C422 C424 1.420 . S
C422 C426 1.423 . S
C422 C434 1.392 . S
C423 C425 1.420 . S
C423 C426 1.351 . S
C423 H446 0.931 . S
C424 C421 1.429 . S
C424 C422 1.420 . S
C424 N432 1.362 . S
C425 C421 1.411 . S
C425 C423 1.420 . S
C425 C430 1.395 . S
C426 C422 1.423 . S
C426 C423 1.351 . S
C426 H438 0.930 . S
C427 C429 1.400 . S
C427 C430 1.386 . S
C427 H439 0.930 . S
N428 C421 1.377 . S
N428 C429 1.321 . S
N428 Eu431 2.609 . S
C429 C427 1.400 . S
C429 N428 1.321 . S
C429 H436 0.930 . S
C430 C425 1.395 . S
C430 C427 1.386 . S
C430 H449 0.930 . S
Eu431 N428 2.609 . S
Eu431 N432 2.657 . S
Eu431 O465 2.380 . S
Eu431 O466 2.432 . S
Eu431 O470 2.558 . S
Eu431 O471 2.612 . S
Eu431 O473 2.339 . S
Eu431 O474 2.563 . S
Eu431 O475 2.419 . S
Eu431 C495 2.848 . S
N432 C424 1.362 . S
N432 Eu431 2.657 . S
N432 C433 1.334 . S
C433 N432 1.334 . S
C433 C435 1.413 . S
C433 H440 0.929 . S
C434 C422 1.392 . S
C434 C435 1.367 . S
C434 H442 0.930 . S
C435 C433 1.413 . S
C435 C434 1.367 . S
C435 H437 0.930 . S
H436 C429 0.930 . S
H437 C435 0.930 . S
H438 C426 0.930 . S
H439 C427 0.930 . S
H440 C433 0.929 . S
H441 C455 0.930 1_554 S
H442 C434 0.930 . S
H443 C461 0.930 1_545 S
H444 C452 0.929 . S
H445 C459 0.930 . S
H446 C423 0.931 . S
H447 C453 0.930 . S
H448 C486 0.930 1_554 S
H449 C430 0.930 . S
H450 C485 0.931 1_655 S
N451 Eu420 2.657 . S
N451 C452 1.334 . S
N451 C456 1.362 . S
C452 H444 0.929 . S
C452 N451 1.334 . S
C452 C455 1.413 . S
C453 H447 0.930 . S
C453 C454 1.392 1_554 S
C453 C455 1.367 1_554 S
C454 C453 1.392 1_556 S
C454 C456 1.420 . S
C454 C486 1.423 1_545 S
C455 H441 0.930 1_556 S
C455 C452 1.413 . S
C455 C453 1.367 1_556 S
C456 N451 1.362 . S
C456 C454 1.420 . S
C456 C460 1.429 1_545 S
H457 C462 0.930 . S
N458 Eu420 2.609 . S
N458 C460 1.377 1_545 S
N458 C461 1.321 1_445 S
C459 H445 0.930 . S
C459 C461 1.400 . S
C459 C462 1.386 . S
C460 C456 1.429 1_565 S
C460 N458 1.377 1_565 S
C460 C463 1.411 . S
C461 H443 0.930 1_565 S
C461 N458 1.321 1_665 S
C461 C459 1.400 . S
C462 H457 0.930 . S
C462 C459 1.386 . S
C462 C463 1.395 1_655 S
C463 C460 1.411 . S
C463 C462 1.395 1_455 S
C463 C485 1.420 . S
O464 Eu420 2.558 . S
O464 C484 1.257 . S
O465 Eu420 2.612 . S
O465 Eu431 2.380 . S
O465 C476 1.276 . S
O466 Eu431 2.432 . S
O466 C483 1.264 . S
O467 Eu420 2.339 . S
O467 C483 1.254 . S
O468 Eu420 2.563 . S
O468 C476 1.235 . S
O469 Eu420 2.419 . S
O469 C484 1.249 . S
O470 Eu431 2.558 . S
O470 C495 1.257 . S
O471 Eu420 2.380 . S
O471 Eu431 2.612 . S
O471 C487 1.276 . S
O472 Eu420 2.432 . S
O472 C494 1.264 . S
O473 Eu431 2.339 . S
O473 C494 1.254 . S
O474 Eu431 2.563 . S
O474 C487 1.235 . S
O475 Eu431 2.419 . S
O475 C495 1.249 . S
C476 O465 1.276 . S
C476 O468 1.235 . S
C477 C479 1.393 . S
C477 C481 1.395 1_455 S
C477 C484 1.492 . S
C478 C479 1.392 . S
C478 C480 1.386 1_455 S
C479 C477 1.393 . S
C479 C478 1.392 . S
C479 H496 0.930 . S
C480 C478 1.386 1_655 S
C480 C482 1.395 . S
C480 H497 0.930 . S
C481 C477 1.395 1_655 S
C481 C482 1.379 . S
C481 H498 0.930 . S
C482 C480 1.395 . S
C482 C481 1.379 . S
C482 H499 0.930 . S
C483 O466 1.264 . S
C483 O467 1.254 . S
C484 Eu420 2.848 . S
C484 O464 1.257 . S
C484 O469 1.249 . S
C484 C477 1.492 . S
C485 H450 0.931 1_455 S
C485 C463 1.420 . S
C485 C486 1.351 . S
C486 H448 0.930 1_556 S
C486 C454 1.423 1_565 S
C486 C485 1.351 . S
C487 O471 1.276 . S
C487 O474 1.235 . S
C488 C489 1.393 . S
C488 C492 1.395 . S
C488 C495 1.492 . S
C489 C488 1.393 . S
C489 C490 1.392 . S
C489 H500 0.930 . S
C490 C489 1.392 . S
C490 C491 1.386 . S
C491 C490 1.386 . S
C491 C493 1.395 . S
C491 H501 0.930 . S
C492 C488 1.395 . S
C492 C493 1.379 . S
C492 H502 0.930 . S
C493 C491 1.395 . S
C493 C492 1.379 . S
C493 H503 0.930 . S
C494 O472 1.264 . S
C494 O473 1.254 . S
C495 Eu431 2.848 . S
C495 O470 1.257 . S
C495 O475 1.249 . S
C495 C488 1.492 . S
H496 C479 0.930 . S
H497 C480 0.930 . S
H498 C481 0.930 . S
H499 C482 0.930 . S
H500 C489 0.930 . S
H501 C491 0.930 . S
H502 C492 0.930 . S
H503 C493 0.930 . S
Eu504 N535 2.657 . S
Eu504 N542 2.609 . S
Eu504 O548 2.558 . S
Eu504 O549 2.612 . S
Eu504 O551 2.339 . S
Eu504 O552 2.563 . S
Eu504 O553 2.419 . S
Eu504 O555 2.380 . S
Eu504 O556 2.432 . S
Eu504 C568 2.848 . S
C505 C508 1.429 . S
C505 C509 1.411 . S
C505 N512 1.377 . S
C506 C508 1.420 . S
C506 C510 1.423 . S
C506 C518 1.392 . S
C507 C509 1.420 . S
C507 C510 1.351 . S
C507 H530 0.931 . S
C508 C505 1.429 . S
C508 C506 1.420 . S
C508 N516 1.362 . S
C509 C505 1.411 . S
C509 C507 1.420 . S
C509 C514 1.395 . S
C510 C506 1.423 . S
C510 C507 1.351 . S
C510 H522 0.930 . S
C511 C513 1.400 . S
C511 C514 1.386 . S
C511 H523 0.930 . S
N512 C505 1.377 . S
N512 C513 1.321 . S
N512 Eu515 2.609 . S
C513 C511 1.400 . S
C513 N512 1.321 . S
C513 H520 0.930 . S
C514 C509 1.395 . S
C514 C511 1.386 . S
C514 H533 0.930 . S
Eu515 N512 2.609 . S
Eu515 N516 2.657 . S
Eu515 O549 2.380 . S
Eu515 O550 2.432 . S
Eu515 O554 2.558 . S
Eu515 O555 2.612 . S
Eu515 O557 2.339 . S
Eu515 O558 2.563 . S
Eu515 O559 2.419 . S
Eu515 C579 2.848 . S
N516 C508 1.362 . S
N516 Eu515 2.657 . S
N516 C517 1.334 . S
C517 N516 1.334 . S
C517 C519 1.413 . S
C517 H524 0.929 . S
C518 C506 1.392 . S
C518 C519 1.367 . S
C518 H526 0.930 . S
C519 C517 1.413 . S
C519 C518 1.367 . S
C519 H521 0.930 1_655 S
H520 C513 0.930 . S
H521 C519 0.930 1_455 S
H522 C510 0.930 . S
H523 C511 0.930 . S
H524 C517 0.929 . S
H525 C539 0.930 . S
H526 C518 0.930 . S
H527 C545 0.930 . S
H528 C536 0.929 1_545 S
H529 C543 0.930 . S
H530 C507 0.931 . S
H531 C537 0.930 . S
H532 C570 0.930 . S
H533 C514 0.930 . S
H534 C569 0.931 1_554 S
N535 Eu504 2.657 . S
N535 C536 1.334 1_545 S
N535 C540 1.362 . S
C536 H528 0.929 1_565 S
C536 N535 1.334 1_565 S
C536 C539 1.413 . S
C537 H531 0.930 . S
C537 C538 1.392 . S
C537 C539 1.367 . S
C538 C537 1.392 . S
C538 C540 1.420 1_565 S
C538 C570 1.423 . S
C539 H525 0.930 . S
C539 C536 1.413 . S
C539 C537 1.367 . S
C540 N535 1.362 . S
C540 C538 1.420 1_545 S
C540 C544 1.429 . S
H541 C546 0.930 1_554 S
N542 Eu504 2.609 . S
N542 C544 1.377 . S
N542 C545 1.321 . S
C543 H529 0.930 . S
C543 C545 1.400 . S
C543 C546 1.386 . S
C544 C540 1.429 . S
C544 N542 1.377 . S
C544 C547 1.411 . S
C545 H527 0.930 . S
C545 N542 1.321 . S
C545 C543 1.400 . S
C546 H541 0.930 1_556 S
C546 C543 1.386 . S
C546 C547 1.395 . S
C547 C544 1.411 . S
C547 C546 1.395 . S
C547 C569 1.420 1_545 S
O548 Eu504 2.558 . S
O548 C568 1.257 . S
O549 Eu504 2.612 . S
O549 Eu515 2.380 . S
O549 C560 1.276 . S
O550 Eu515 2.432 . S
O550 C567 1.264 . S
O551 Eu504 2.339 . S
O551 C567 1.254 . S
O552 Eu504 2.563 . S
O552 C560 1.235 . S
O553 Eu504 2.419 . S
O553 C568 1.249 . S
O554 Eu515 2.558 . S
O554 C579 1.257 . S
O555 Eu504 2.380 . S
O555 Eu515 2.612 . S
O555 C571 1.276 . S
O556 Eu504 2.432 . S
O556 C578 1.264 . S
O557 Eu515 2.339 . S
O557 C578 1.254 . S
O558 Eu515 2.563 . S
O558 C571 1.235 . S
O559 Eu515 2.419 . S
O559 C579 1.249 . S
C560 O549 1.276 . S
C560 O552 1.235 . S
C561 C563 1.393 . S
C561 C565 1.395 . S
C561 C568 1.492 . S
C562 C563 1.392 . S
C562 C564 1.386 . S
C563 C561 1.393 . S
C563 C562 1.392 . S
C563 H580 0.930 . S
C564 C562 1.386 . S
C564 C566 1.395 1_655 S
C564 H581 0.930 1_655 S
C565 C561 1.395 . S
C565 C566 1.379 1_655 S
C565 H582 0.930 1_655 S
C566 C564 1.395 1_455 S
C566 C565 1.379 1_455 S
C566 H583 0.930 . S
C567 O550 1.264 . S
C567 O551 1.254 . S
C568 Eu504 2.848 . S
C568 O548 1.257 . S
C568 O553 1.249 . S
C568 C561 1.492 . S
C569 H534 0.931 1_556 S
C569 C547 1.420 1_565 S
C569 C570 1.351 . S
C570 H532 0.930 . S
C570 C538 1.423 . S
C570 C569 1.351 . S
C571 O555 1.276 . S
C571 O558 1.235 . S
C572 C573 1.393 . S
C572 C576 1.395 . S
C572 C579 1.492 . S
C573 C572 1.393 . S
C573 C574 1.392 . S
C573 H584 0.930 . S
C574 C573 1.392 . S
C574 C575 1.386 . S
C575 C574 1.386 . S
C575 C577 1.395 . S
C575 H585 0.930 . S
C576 C572 1.395 . S
C576 C577 1.379 . S
C576 H586 0.930 . S
C577 C575 1.395 . S
C577 C576 1.379 . S
C577 H587 0.930 . S
C578 O556 1.264 . S
C578 O557 1.254 . S
C579 Eu515 2.848 . S
C579 O554 1.257 . S
C579 O559 1.249 . S
C579 C572 1.492 . S
H580 C563 0.930 . S
H581 C564 0.930 1_455 S
H582 C565 0.930 1_455 S
H583 C566 0.930 . S
H584 C573 0.930 . S
H585 C575 0.930 . S
H586 C576 0.930 . S
H587 C577 0.930 . S
Eu588 N619 2.657 . S
Eu588 N626 2.609 . S
Eu588 O632 2.558 . S
Eu588 O633 2.612 . S
Eu588 O635 2.339 . S
Eu588 O636 2.563 . S
Eu588 O637 2.419 . S
Eu588 O639 2.380 . S
Eu588 O640 2.432 . S
Eu588 C652 2.848 . S
C589 C592 1.429 . S
C589 C593 1.411 1_665 S
C589 N596 1.377 . S
C590 C592 1.420 . S
C590 C594 1.423 1_656 S
C590 C602 1.392 1_556 S
C591 C593 1.420 1_565 S
C591 C594 1.351 1_556 S
C591 H614 0.931 1_565 S
C592 C589 1.429 . S
C592 C590 1.420 . S
C592 N600 1.362 . S
C593 C589 1.411 1_445 S
C593 C591 1.420 1_545 S
C593 C598 1.395 . S
C594 C590 1.423 1_454 S
C594 C591 1.351 1_554 S
C594 H606 0.930 . S
C595 C597 1.400 . S
C595 C598 1.386 . S
C595 H607 0.930 . S
N596 C589 1.377 . S
N596 C597 1.321 1_665 S
N596 Eu599 2.609 . S
C597 C595 1.400 . S
C597 N596 1.321 1_445 S
C597 H604 0.930 1_455 S
C598 C593 1.395 . S
C598 C595 1.386 . S
C598 H617 0.930 . S
Eu599 N596 2.609 . S
Eu599 N600 2.657 . S
Eu599 O633 2.380 . S
Eu599 O634 2.432 . S
Eu599 O638 2.558 . S
Eu599 O639 2.612 . S
Eu599 O641 2.339 . S
Eu599 O642 2.563 . S
Eu599 O643 2.419 . S
Eu599 C663 2.848 . S
N600 C592 1.362 . S
N600 Eu599 2.657 . S
N600 C601 1.334 . S
C601 N600 1.334 . S
C601 C603 1.414 . S
C601 H608 0.929 . S
C602 C590 1.392 1_554 S
C602 C603 1.367 1_554 S
C602 H610 0.930 . S
C603 C601 1.414 . S
C603 C602 1.367 1_556 S
C603 H605 0.930 1_556 S
H604 C597 0.930 1_655 S
H605 C603 0.930 1_554 S
H606 C594 0.930 . S
H607 C595 0.930 . S
H608 C601 0.929 . S
H609 C623 0.930 . S
H610 C602 0.930 . S
H611 C629 0.930 . S
H612 C620 0.929 . S
H613 C627 0.930 . S
H614 C591 0.931 1_545 S
H615 C621 0.930 . S
H616 C654 0.930 . S
H617 C598 0.930 . S
H618 C653 0.931 . S
N619 Eu588 2.657 . S
N619 C620 1.334 . S
N619 C624 1.362 . S
C620 H612 0.929 . S
C620 N619 1.334 . S
C620 C623 1.413 . S
C621 H615 0.930 . S
C621 C622 1.392 . S
C621 C623 1.367 . S
C622 C621 1.392 . S
C622 C624 1.420 . S
C622 C654 1.423 . S
C623 H609 0.930 . S
C623 C620 1.413 . S
C623 C621 1.367 . S
C624 N619 1.362 . S
C624 C622 1.420 . S
C624 C628 1.429 . S
H625 C630 0.930 . S
N626 Eu588 2.609 . S
N626 C628 1.377 . S
N626 C629 1.321 . S
C627 H613 0.930 . S
C627 C629 1.400 . S
C627 C630 1.386 . S
C628 C624 1.429 . S
C628 N626 1.377 . S
C628 C631 1.411 . S
C629 H611 0.930 . S
C629 N626 1.321 . S
C629 C627 1.400 . S
C630 H625 0.930 . S
C630 C627 1.386 . S
C630 C631 1.395 . S
C631 C628 1.411 . S
C631 C630 1.395 . S
C631 C653 1.420 . S
O632 Eu588 2.558 . S
O632 C652 1.257 . S
O633 Eu588 2.612 . S
O633 Eu599 2.380 . S
O633 C644 1.276 . S
O634 Eu599 2.432 . S
O634 C651 1.264 . S
O635 Eu588 2.339 . S
O635 C651 1.254 . S
O636 Eu588 2.563 . S
O636 C644 1.235 . S
O637 Eu588 2.419 . S
O637 C652 1.249 . S
O638 Eu599 2.558 . S
O638 C663 1.257 . S
O639 Eu588 2.380 . S
O639 Eu599 2.612 . S
O639 C655 1.276 . S
O640 Eu588 2.432 . S
O640 C662 1.264 . S
O641 Eu599 2.339 . S
O641 C662 1.254 . S
O642 Eu599 2.563 . S
O642 C655 1.235 . S
O643 Eu599 2.419 . S
O643 C663 1.249 . S
C644 O633 1.276 . S
C644 O636 1.235 . S
C645 C647 1.393 . S
C645 C649 1.395 . S
C645 C652 1.492 . S
C646 C647 1.392 . S
C646 C648 1.386 . S
C647 C645 1.393 . S
C647 C646 1.392 . S
C647 H664 0.930 . S
C648 C646 1.386 . S
C648 C650 1.395 . S
C648 H665 0.930 . S
C649 C645 1.395 . S
C649 C650 1.379 . S
C649 H666 0.930 . S
C650 C648 1.395 . S
C650 C649 1.379 . S
C650 H667 0.930 . S
C651 O634 1.264 . S
C651 O635 1.254 . S
C652 Eu588 2.848 . S
C652 O632 1.257 . S
C652 O637 1.249 . S
C652 C645 1.492 . S
C653 H618 0.931 . S
C653 C631 1.420 . S
C653 C654 1.351 . S
C654 H616 0.930 . S
C654 C622 1.423 . S
C654 C653 1.351 . S
C655 O639 1.276 . S
C655 O642 1.235 . S
C656 C657 1.393 1_545 S
C656 C660 1.395 . S
C656 C663 1.492 1_545 S
C657 C656 1.393 1_565 S
C657 C658 1.392 1_565 S
C657 H668 0.930 . S
C658 C657 1.392 1_545 S
C658 C659 1.386 . S
C659 C658 1.386 . S
C659 C661 1.395 . S
C659 H669 0.930 . S
C660 C656 1.395 . S
C660 C661 1.379 . S
C660 H670 0.930 . S
C661 C659 1.395 . S
C661 C660 1.379 . S
C661 H671 0.930 . S
C662 O640 1.264 . S
C662 O641 1.254 . S
C663 Eu599 2.848 . S
C663 O638 1.257 . S
C663 O643 1.249 . S
C663 C656 1.492 1_565 S
H664 C647 0.930 . S
H665 C648 0.930 . S
H666 C649 0.930 . S
H667 C650 0.930 . S
H668 C657 0.930 . S
H669 C659 0.930 . S
H670 C660 0.930 . S
H671 C661 0.930 . S
C672 O684 1.241 . S
C672 O685 1.280 . S
C673 O686 1.277 . S
C673 O687 1.245 . S
C674 O698 1.247 . S
C674 O700 1.289 . S
Mg675 O676 1.926 1_455 S
Mg675 O685 1.984 1_455 S
Mg675 O687 1.988 1_455 S
Mg675 O688 2.061 . S
O676 Mg675 1.926 1_655 S
O676 Mg677 1.986 1_545 S
O676 Mg678 1.932 1_655 S
Mg677 O676 1.986 1_565 S
Mg677 O684 2.042 1_565 S
Mg677 O686 2.041 1_565 S
Mg677 O692 2.038 . S
Mg677 O700 2.238 . S
Mg678 O676 1.932 1_455 S
Mg678 O679 1.902 1_545 S
Mg678 O689 2.108 . S
Mg678 O691 2.074 1_445 S
Mg678 O700 2.105 1_445 S
Mg678 O701 2.084 . S
O679 Mg678 1.902 1_565 S
O679 Mg680 1.926 1_455 S
O679 Mg681 1.986 1_565 S
Mg680 O679 1.926 1_655 S
Mg680 O694 1.984 1_655 S
Mg680 O697 1.988 1_655 S
Mg680 O698 2.061 . S
Mg681 O679 1.986 1_545 S
Mg681 O689 2.238 . S
Mg681 O693 2.042 1_545 S
Mg681 O695 2.041 1_545 S
Mg681 O702 2.038 . S
C682 O688 1.247 . S
C682 O689 1.289 . S
C683 O701 1.245 . S
C683 O702 1.274 . S
O684 C672 1.241 . S
O684 Mg677 2.042 1_545 S
O685 C672 1.280 . S
O685 Mg675 1.984 1_655 S
O686 C673 1.277 . S
O686 Mg677 2.041 1_545 S
O687 C673 1.245 . S
O687 Mg675 1.988 1_655 S
O688 Mg675 2.061 . S
O688 C682 1.247 . S
O689 Mg678 2.108 . S
O689 Mg681 2.238 . S
O689 C682 1.289 . S
C690 O691 1.245 . S
C690 O692 1.274 . S
O691 Mg678 2.074 1_665 S
O691 C690 1.245 . S
O692 Mg677 2.038 . S
O692 C690 1.274 . S
O693 Mg681 2.042 1_565 S
O693 C696 1.241 . S
O694 Mg680 1.984 1_455 S
O694 C696 1.280 . S
O695 Mg681 2.041 1_565 S
O695 C699 1.277 . S
C696 O693 1.241 . S
C696 O694 1.280 . S
O697 Mg680 1.988 1_455 S
O697 C699 1.245 . S
O698 C674 1.247 . S
O698 Mg680 2.061 . S
C699 O695 1.277 . S
C699 O697 1.245 . S
O700 C674 1.289 . S
O700 Mg677 2.238 . S
O700 Mg678 2.105 1_665 S
O701 Mg678 2.084 . S
O701 C683 1.245 . S
O702 Mg681 2.038 . S
O702 C683 1.274 . S
C703 O715 1.241 . S
C703 O716 1.280 . S
C704 O717 1.277 . S
C704 O718 1.245 . S
C705 O729 1.247 . S
C705 O731 1.289 . S
Mg706 O707 1.926 . S
Mg706 O716 1.984 . S
Mg706 O718 1.988 1_554 S
Mg706 O719 2.061 . S
O707 Mg706 1.926 . S
O707 Mg708 1.986 1_544 S
O707 Mg709 1.940 . S
Mg708 O707 1.986 1_566 S
Mg708 O715 2.042 1_566 S
Mg708 O717 2.041 1_565 S
Mg708 O723 2.038 1_556 S
Mg708 O731 2.238 . S
Mg709 O707 1.940 . S
Mg709 O710 1.894 1_544 S
Mg709 O720 2.116 . S
Mg709 O722 2.087 1_545 S
Mg709 O731 2.097 1_544 S
Mg709 O732 2.070 1_554 S
O710 Mg709 1.894 1_566 S
O710 Mg711 1.926 . S
O710 Mg712 1.986 1_566 S
Mg711 O710 1.926 . S
Mg711 O725 1.984 . S
Mg711 O728 1.988 1_556 S
Mg711 O729 2.061 . S
Mg712 O710 1.986 1_544 S
Mg712 O720 2.238 . S
Mg712 O724 2.042 1_544 S
Mg712 O726 2.041 1_545 S
Mg712 O733 2.038 1_554 S
C713 O719 1.247 . S
C713 O720 1.289 . S
C714 O732 1.245 . S
C714 O733 1.274 . S
O715 C703 1.241 . S
O715 Mg708 2.042 1_544 S
O716 C703 1.280 . S
O716 Mg706 1.984 . S
O717 C704 1.277 . S
O717 Mg708 2.041 1_545 S
O718 C704 1.245 . S
O718 Mg706 1.988 1_556 S
O719 Mg706 2.061 . S
O719 C713 1.247 . S
O720 Mg709 2.116 . S
O720 Mg712 2.238 . S
O720 C713 1.289 . S
C721 O722 1.245 . S
C721 O723 1.274 . S
O722 Mg709 2.087 1_565 S
O722 C721 1.245 . S
O723 Mg708 2.038 1_554 S
O723 C721 1.274 . S
O724 Mg712 2.042 1_566 S
O724 C727 1.241 . S
O725 Mg711 1.984 . S
O725 C727 1.280 . S
O726 Mg712 2.041 1_565 S
O726 C730 1.277 . S
C727 O724 1.241 . S
C727 O725 1.280 . S
O728 Mg711 1.988 1_554 S
O728 C730 1.245 . S
O729 C705 1.247 . S
O729 Mg711 2.061 . S
C730 O726 1.277 . S
C730 O728 1.245 . S
O731 C705 1.289 . S
O731 Mg708 2.238 . S
O731 Mg709 2.097 1_566 S
O732 Mg709 2.070 1_556 S
O732 C714 1.245 . S
O733 Mg712 2.038 1_556 S
O733 C714 1.274 . S
C734 O746 1.241 . S
C734 O747 1.280 . S
C735 O748 1.277 . S
C735 O749 1.245 . S
C736 O760 1.247 . S
C736 O762 1.289 . S
Mg737 O738 1.926 1_455 S
Mg737 O747 1.984 1_455 S
Mg737 O749 1.988 1_454 S
Mg737 O750 2.061 . S
O738 Mg737 1.926 1_655 S
O738 Mg739 1.986 1_554 S
O738 Mg740 1.924 1_655 S
Mg739 O738 1.986 1_556 S
Mg739 O746 2.042 1_556 S
Mg739 O748 2.041 . S
Mg739 O754 2.038 1_556 S
Mg739 O762 2.238 . S
Mg740 O738 1.924 1_455 S
Mg740 O741 1.910 1_554 S
Mg740 O751 2.115 . S
Mg740 O753 2.092 1_455 S
Mg740 O762 2.098 1_454 S
Mg740 O763 2.065 1_554 S
O741 Mg740 1.910 1_556 S
O741 Mg742 1.926 1_455 S
O741 Mg743 1.986 1_556 S
Mg742 O741 1.926 1_655 S
Mg742 O756 1.984 1_655 S
Mg742 O759 1.988 1_656 S
Mg742 O760 2.061 . S
Mg743 O741 1.986 1_554 S
Mg743 O751 2.238 . S
Mg743 O755 2.042 1_554 S
Mg743 O757 2.041 . S
Mg743 O764 2.038 1_554 S
C744 O750 1.247 . S
C744 O751 1.289 . S
C745 O763 1.245 . S
C745 O764 1.274 . S
O746 C734 1.241 . S
O746 Mg739 2.042 1_554 S
O747 C734 1.280 . S
O747 Mg737 1.984 1_655 S
O748 C735 1.277 . S
O748 Mg739 2.041 . S
O749 C735 1.245 . S
O749 Mg737 1.988 1_656 S
O750 Mg737 2.061 . S
O750 C744 1.247 . S
O751 Mg740 2.115 . S
O751 Mg743 2.238 . S
O751 C744 1.289 . S
C752 O753 1.245 . S
C752 O754 1.274 . S
O753 Mg740 2.092 1_655 S
O753 C752 1.245 . S
O754 Mg739 2.038 1_554 S
O754 C752 1.274 . S
O755 Mg743 2.042 1_556 S
O755 C758 1.241 . S
O756 Mg742 1.984 1_455 S
O756 C758 1.280 . S
O757 Mg743 2.041 . S
O757 C761 1.277 . S
C758 O755 1.241 . S
C758 O756 1.280 . S
O759 Mg742 1.988 1_454 S
O759 C761 1.245 . S
O760 C736 1.247 . S
O760 Mg742 2.061 . S
C761 O757 1.277 . S
C761 O759 1.245 . S
O762 C736 1.289 . S
O762 Mg739 2.238 . S
O762 Mg740 2.098 1_656 S
O763 Mg740 2.065 1_556 S
O763 C745 1.245 . S
O764 Mg743 2.038 1_556 S
O764 C745 1.274 . S
C765 O777 1.241 . S
C765 O778 1.280 . S
C766 O779 1.277 . S
C766 O780 1.245 . S
C767 O791 1.247 . S
C767 O793 1.289 . S
Mg768 O769 1.926 . S
Mg768 O778 1.984 . S
Mg768 O780 1.988 1_554 S
Mg768 O781 2.061 . S
O769 Mg768 1.926 . S
O769 Mg770 1.986 1_554 S
O769 Mg771 1.924 . S
Mg770 O769 1.986 1_556 S
Mg770 O777 2.042 1_556 S
Mg770 O779 2.041 . S
Mg770 O785 2.038 1_556 S
Mg770 O793 2.238 . S
Mg771 O769 1.924 . S
Mg771 O772 1.910 1_554 S
Mg771 O782 2.115 . S
Mg771 O784 2.092 . S
Mg771 O793 2.098 1_554 S
Mg771 O794 2.065 1_554 S
O772 Mg771 1.910 1_556 S
O772 Mg773 1.926 . S
O772 Mg774 1.986 1_556 S
Mg773 O772 1.926 . S
Mg773 O787 1.984 . S
Mg773 O790 1.988 1_556 S
Mg773 O791 2.061 . S
Mg774 O772 1.986 1_554 S
Mg774 O782 2.238 . S
Mg774 O786 2.042 1_554 S
Mg774 O788 2.041 . S
Mg774 O795 2.038 1_554 S
C775 O781 1.247 . S
C775 O782 1.289 . S
C776 O794 1.245 . S
C776 O795 1.274 . S
O777 C765 1.241 . S
O777 Mg770 2.042 1_554 S
O778 C765 1.280 . S
O778 Mg768 1.984 . S
O779 C766 1.277 . S
O779 Mg770 2.041 . S
O780 C766 1.245 . S
O780 Mg768 1.988 1_556 S
O781 Mg768 2.061 . S
O781 C775 1.247 . S
O782 Mg771 2.115 . S
O782 Mg774 2.238 . S
O782 C775 1.289 . S
C783 O784 1.245 . S
C783 O785 1.274 . S
O784 Mg771 2.092 . S
O784 C783 1.245 . S
O785 Mg770 2.038 1_554 S
O785 C783 1.274 . S
O786 Mg774 2.042 1_556 S
O786 C789 1.241 . S
O787 Mg773 1.984 . S
O787 C789 1.280 . S
O788 Mg774 2.041 . S
O788 C792 1.277 . S
C789 O786 1.241 . S
C789 O787 1.280 . S
O790 Mg773 1.988 1_554 S
O790 C792 1.245 . S
O791 C767 1.247 . S
O791 Mg773 2.061 . S
C792 O788 1.277 . S
C792 O790 1.245 . S
O793 C767 1.289 . S
O793 Mg770 2.238 . S
O793 Mg771 2.098 1_556 S
O794 Mg771 2.065 1_556 S
O794 C776 1.245 . S
O795 Mg774 2.038 1_556 S
O795 C776 1.274 . S
C796 O808 1.241 . S
C796 O809 1.280 . S
C797 O810 1.277 . S
C797 O811 1.245 . S
C798 O822 1.247 . S
C798 O824 1.289 . S
Mg799 O800 1.926 1_455 S
Mg799 O809 1.984 1_455 S
Mg799 O811 1.988 1_455 S
Mg799 O812 2.061 . S
O800 Mg799 1.926 1_655 S
O800 Mg801 1.986 . S
O800 Mg802 1.917 1_655 S
Mg801 O800 1.986 . S
Mg801 O808 2.042 . S
Mg801 O810 2.041 . S
Mg801 O816 2.038 . S
Mg801 O824 2.238 . S
Mg802 O800 1.917 1_455 S
Mg802 O803 1.917 . S
Mg802 O813 2.106 . S
Mg802 O815 2.079 1_455 S
Mg802 O824 2.106 1_455 S
Mg802 O825 2.079 . S
O803 Mg802 1.917 . S
O803 Mg804 1.926 1_455 S
O803 Mg805 1.986 . S
Mg804 O803 1.926 1_655 S
Mg804 O818 1.984 1_655 S
Mg804 O821 1.988 1_655 S
Mg804 O822 2.061 . S
Mg805 O803 1.986 . S
Mg805 O813 2.238 . S
Mg805 O817 2.042 . S
Mg805 O819 2.041 . S
Mg805 O826 2.038 . S
C806 O812 1.247 . S
C806 O813 1.289 . S
C807 O825 1.245 . S
C807 O826 1.274 . S
O808 C796 1.241 . S
O808 Mg801 2.042 . S
O809 C796 1.280 . S
O809 Mg799 1.984 1_655 S
O810 C797 1.277 . S
O810 Mg801 2.041 . S
O811 C797 1.245 . S
O811 Mg799 1.988 1_655 S
O812 Mg799 2.061 . S
O812 C806 1.247 . S
O813 Mg802 2.106 . S
O813 Mg805 2.238 . S
O813 C806 1.289 . S
C814 O815 1.245 . S
C814 O816 1.274 . S
O815 Mg802 2.079 1_655 S
O815 C814 1.245 . S
O816 Mg801 2.038 . S
O816 C814 1.274 . S
O817 Mg805 2.042 . S
O817 C820 1.241 . S
O818 Mg804 1.984 1_455 S
O818 C820 1.280 . S
O819 Mg805 2.041 . S
O819 C823 1.277 . S
C820 O817 1.241 . S
C820 O818 1.280 . S
O821 Mg804 1.988 1_455 S
O821 C823 1.245 . S
O822 C798 1.247 . S
O822 Mg804 2.061 . S
C823 O819 1.277 . S
C823 O821 1.245 . S
O824 C798 1.289 . S
O824 Mg801 2.238 . S
O824 Mg802 2.106 1_655 S
O825 Mg802 2.079 . S
O825 C807 1.245 . S
O826 Mg805 2.038 . S
O826 C807 1.274 . S
C827 O839 1.241 . S
C827 O840 1.280 . S
C828 O841 1.277 . S
C828 O842 1.245 . S
C829 O853 1.247 . S
C829 O855 1.289 . S
Mg830 O831 1.926 . S
Mg830 O840 1.984 . S
Mg830 O842 1.988 . S
Mg830 O843 2.061 . S
O831 Mg830 1.926 . S
O831 Mg832 1.986 1_545 S
O831 Mg833 1.933 . S
Mg832 O831 1.986 1_565 S
Mg832 O839 2.042 1_565 S
Mg832 O841 2.041 1_565 S
Mg832 O847 2.038 . S
Mg832 O855 2.238 . S
Mg833 O831 1.933 . S
Mg833 O834 1.901 1_545 S
Mg833 O844 2.108 . S
Mg833 O846 2.074 1_545 S
Mg833 O855 2.105 1_545 S
Mg833 O856 2.084 . S
O834 Mg833 1.901 1_565 S
O834 Mg835 1.926 . S
O834 Mg836 1.986 1_565 S
Mg835 O834 1.926 . S
Mg835 O849 1.984 . S
Mg835 O852 1.988 . S
Mg835 O853 2.061 . S
Mg836 O834 1.986 1_545 S
Mg836 O844 2.238 . S
Mg836 O848 2.042 1_545 S
Mg836 O850 2.041 1_545 S
Mg836 O857 2.038 . S
C837 O843 1.247 . S
C837 O844 1.289 . S
C838 O856 1.245 . S
C838 O857 1.274 . S
O839 C827 1.241 . S
O839 Mg832 2.042 1_545 S
O840 C827 1.280 . S
O840 Mg830 1.984 . S
O841 C828 1.277 . S
O841 Mg832 2.041 1_545 S
O842 C828 1.245 . S
O842 Mg830 1.988 . S
O843 Mg830 2.061 . S
O843 C837 1.247 . S
O844 Mg833 2.108 . S
O844 Mg836 2.238 . S
O844 C837 1.289 . S
C845 O846 1.245 . S
C845 O847 1.274 . S
O846 Mg833 2.074 1_565 S
O846 C845 1.245 . S
O847 Mg832 2.038 . S
O847 C845 1.274 . S
O848 Mg836 2.042 1_565 S
O848 C851 1.241 . S
O849 Mg835 1.984 . S
O849 C851 1.280 . S
O850 Mg836 2.041 1_565 S
O850 C854 1.277 . S
C851 O848 1.241 . S
C851 O849 1.280 . S
O852 Mg835 1.988 . S
O852 C854 1.245 . S
O853 C829 1.247 . S
O853 Mg835 2.061 . S
C854 O850 1.277 . S
C854 O852 1.245 . S
O855 C829 1.289 . S
O855 Mg832 2.238 . S
O855 Mg833 2.105 1_565 S
O856 Mg833 2.084 . S
O856 C838 1.245 . S
O857 Mg836 2.038 . S
O857 C838 1.274 . S
C683 C74 2.078 . S
C673 C142 2.522 . S
C674 C231 1.904 . S
C322 C696 1.872 . S
C406 C699 2.523 . S
C682 C494 1.905 . S
C562 C672 1.872 . S
C651 C690 2.078 . S
C703 C58 2.056 1_545 S
C151 C752 2.242 . S
C730 C224 3.601 . S
C744 C315 1.714 . S
C399 C705 1.737 . S
C758 C478 2.604 . S
C571 C714 1.973 . S
C644 C735 3.512 . S
C67 C761 3.511 . S
C392 C745 2.243 . S
C704 C487 3.601 . S
C736 C578 1.714 . S
C658 C727 2.056 1_545 S
C238 C734 2.603 1_455 S
C721 C308 1.973 . S
C158 C713 1.737 . S
C662 C776 2.079 . S
C394 C766 2.522 . S
C767 C483 1.904 . S
C789 C574 1.872 . S
C154 C792 2.523 . S
C775 C242 1.905 . S
C310 C765 1.872 . S
C63 C783 2.078 . S
C646 C796 2.056 . S
C845 C403 2.242 . S
C476 C823 3.601 . S
C567 C837 1.714 . S
C798 C147 1.737 . S
C226 C851 2.603 . S
C807 C319 1.973 . S
C828 C56 3.512 . S
C854 C655 3.512 . S
C140 C838 2.242 . S
C235 C797 3.601 . S
C829 C326 1.714 . S
C70 C820 2.055 . S
C490 C827 2.603 . S
C814 C560 1.973 . S
C806 C410 1.737 . S
