# Generated by pormake.
# Topology ocu, (6,8)-cn, num edge types: 1
# Building blocks:
#     Node 0, Type 0, BuildingBlock: FUNLAD_clean_sbu_0, # of connection points: 6
#     Node 1, Type 0, BuildingBlock: FUNLAD_clean_sbu_0, # of connection points: 6
#     Node 2, Type 0, BuildingBlock: FUNLAD_clean_sbu_0, # of connection points: 6
#     Node 3, Type 0, BuildingBlock: FUNLAD_clean_sbu_0, # of connection points: 6
#     Node 4, Type 0, BuildingBlock: FUNLAD_clean_sbu_0, # of connection points: 6
#     Node 5, Type 0, BuildingBlock: FUNLAD_clean_sbu_0, # of connection points: 6
#     Node 6, Type 0, BuildingBlock: FUNLAD_clean_sbu_0, # of connection points: 6
#     Node 7, Type 0, BuildingBlock: FUNLAD_clean_sbu_0, # of connection points: 6
#     Node 8, Type 1, BuildingBlock: VETTIZ_charged_sbu_0, # of connection points: 8
#     Node 9, Type 1, BuildingBlock: VETTIZ_charged_sbu_0, # of connection points: 8
#     Node 10, Type 1, BuildingBlock: VETTIZ_charged_sbu_0, # of connection points: 8
#     Node 11, Type 1, BuildingBlock: VETTIZ_charged_sbu_0, # of connection points: 8
#     Node 12, Type 1, BuildingBlock: VETTIZ_charged_sbu_0, # of connection points: 8
#     Node 13, Type 1, BuildingBlock: VETTIZ_charged_sbu_0, # of connection points: 8
#     Edge 14, Type (0, 1), BuildingBlock: XIVTED_clean_linker_0, # of connection points: 2
#     Edge 15, Type (0, 1), BuildingBlock: XIVTED_clean_linker_0, # of connection points: 2
#     Edge 16, Type (0, 1), BuildingBlock: XIVTED_clean_linker_0, # of connection points: 2
#     Edge 17, Type (0, 1), BuildingBlock: XIVTED_clean_linker_0, # of connection points: 2
#     Edge 18, Type (0, 1), BuildingBlock: XIVTED_clean_linker_0, # of connection points: 2
#     Edge 19, Type (0, 1), BuildingBlock: XIVTED_clean_linker_0, # of connection points: 2
#     Edge 20, Type (0, 1), BuildingBlock: XIVTED_clean_linker_0, # of connection points: 2
#     Edge 21, Type (0, 1), BuildingBlock: XIVTED_clean_linker_0, # of connection points: 2
#     Edge 22, Type (0, 1), BuildingBlock: XIVTED_clean_linker_0, # of connection points: 2
#     Edge 23, Type (0, 1), BuildingBlock: XIVTED_clean_linker_0, # of connection points: 2
#     Edge 24, Type (0, 1), BuildingBlock: XIVTED_clean_linker_0, # of connection points: 2
#     Edge 25, Type (0, 1), BuildingBlock: XIVTED_clean_linker_0, # of connection points: 2
#     Edge 26, Type (0, 1), BuildingBlock: XIVTED_clean_linker_0, # of connection points: 2
#     Edge 27, Type (0, 1), BuildingBlock: XIVTED_clean_linker_0, # of connection points: 2
#     Edge 28, Type (0, 1), BuildingBlock: XIVTED_clean_linker_0, # of connection points: 2
#     Edge 29, Type (0, 1), BuildingBlock: XIVTED_clean_linker_0, # of connection points: 2
#     Edge 30, Type (0, 1), BuildingBlock: XIVTED_clean_linker_0, # of connection points: 2
#     Edge 31, Type (0, 1), BuildingBlock: XIVTED_clean_linker_0, # of connection points: 2
#     Edge 32, Type (0, 1), BuildingBlock: XIVTED_clean_linker_0, # of connection points: 2
#     Edge 33, Type (0, 1), BuildingBlock: XIVTED_clean_linker_0, # of connection points: 2
#     Edge 34, Type (0, 1), BuildingBlock: XIVTED_clean_linker_0, # of connection points: 2
#     Edge 35, Type (0, 1), BuildingBlock: XIVTED_clean_linker_0, # of connection points: 2
#     Edge 36, Type (0, 1), BuildingBlock: XIVTED_clean_linker_0, # of connection points: 2
#     Edge 37, Type (0, 1), BuildingBlock: XIVTED_clean_linker_0, # of connection points: 2
#     Edge 38, Type (0, 1), BuildingBlock: XIVTED_clean_linker_0, # of connection points: 2
#     Edge 39, Type (0, 1), BuildingBlock: XIVTED_clean_linker_0, # of connection points: 2
#     Edge 40, Type (0, 1), BuildingBlock: XIVTED_clean_linker_0, # of connection points: 2
#     Edge 41, Type (0, 1), BuildingBlock: XIVTED_clean_linker_0, # of connection points: 2
#     Edge 42, Type (0, 1), BuildingBlock: XIVTED_clean_linker_0, # of connection points: 2
#     Edge 43, Type (0, 1), BuildingBlock: XIVTED_clean_linker_0, # of connection points: 2
#     Edge 44, Type (0, 1), BuildingBlock: XIVTED_clean_linker_0, # of connection points: 2
#     Edge 45, Type (0, 1), BuildingBlock: XIVTED_clean_linker_0, # of connection points: 2
#     Edge 46, Type (0, 1), BuildingBlock: XIVTED_clean_linker_0, # of connection points: 2
#     Edge 47, Type (0, 1), BuildingBlock: XIVTED_clean_linker_0, # of connection points: 2
#     Edge 48, Type (0, 1), BuildingBlock: XIVTED_clean_linker_0, # of connection points: 2
#     Edge 49, Type (0, 1), BuildingBlock: XIVTED_clean_linker_0, # of connection points: 2
#     Edge 50, Type (0, 1), BuildingBlock: XIVTED_clean_linker_0, # of connection points: 2
#     Edge 51, Type (0, 1), BuildingBlock: XIVTED_clean_linker_0, # of connection points: 2
#     Edge 52, Type (0, 1), BuildingBlock: XIVTED_clean_linker_0, # of connection points: 2
#     Edge 53, Type (0, 1), BuildingBlock: XIVTED_clean_linker_0, # of connection points: 2
#     Edge 54, Type (0, 1), BuildingBlock: XIVTED_clean_linker_0, # of connection points: 2
#     Edge 55, Type (0, 1), BuildingBlock: XIVTED_clean_linker_0, # of connection points: 2
#     Edge 56, Type (0, 1), BuildingBlock: XIVTED_clean_linker_0, # of connection points: 2
#     Edge 57, Type (0, 1), BuildingBlock: XIVTED_clean_linker_0, # of connection points: 2
#     Edge 58, Type (0, 1), BuildingBlock: XIVTED_clean_linker_0, # of connection points: 2
#     Edge 59, Type (0, 1), BuildingBlock: XIVTED_clean_linker_0, # of connection points: 2
#     Edge 60, Type (0, 1), BuildingBlock: XIVTED_clean_linker_0, # of connection points: 2
#     Edge 61, Type (0, 1), BuildingBlock: XIVTED_clean_linker_0, # of connection points: 2
# Relax obj value: 0.149
# Max RMSD: 0.261
# Mean RMSD: 0.155
data_MOF--net-ocu--node1-FUNLAD_clean_sbu_0--node2-VETTIZ_charged_sbu_0--edge1-XIVTED_clean_linker_0
_symmetry_space_group_name_H-M    P1
_symmetry_Int_Tables_number       1
_symmetry_cell_setting            triclinic
loop_
_symmetry_equiv_pos_as_xyz
'x, y, z'
_cell_length_a     39.2138
_cell_length_b     39.233029
_cell_length_c     39.223952
_cell_angle_alpha  84.500693
_cell_angle_beta   84.521445
_cell_angle_gamma 81.550688
loop_
_atom_site_label
_atom_site_type_symbol
_atom_site_fract_x
_atom_site_fract_y
_atom_site_fract_z
_atom_type_partial_charge
C0 C 0.20603 0.26353 0.31051 0.0
N1 N 0.1991 0.17892 0.2542 0.0
C2 C 0.19353 0.15861 0.28363 0.0
C3 C 0.17458 0.13134 0.28376 0.0
C4 C 0.16091 0.12529 0.25349 0.0
C5 C 0.16647 0.14674 0.22355 0.0
C6 C 0.18625 0.17345 0.22438 0.0
Zn7 Zn 0.22877 0.21683 0.25473 0.0
C8 C 0.20402 0.27939 0.21107 0.0
N9 N 0.29349 0.29408 0.25288 0.0
C10 C 0.30359 0.30616 0.28123 0.0
C11 C 0.30123 0.30859 0.22075 0.0
C12 C 0.31913 0.33675 0.2161 0.0
C13 C 0.32933 0.35013 0.2447 0.0
C14 C 0.32198 0.33451 0.27767 0.0
Zn15 Zn 0.2639 0.25578 0.25497 0.0
O16 O 0.19797 0.23719 0.29823 0.0
C17 C 0.2896 0.19446 0.29837 0.0
O18 O 0.23241 0.27669 0.29699 0.0
H19 H 0.29295 0.29869 0.19859 0.0
H20 H 0.20378 0.16359 0.30701 0.0
H21 H 0.29699 0.29415 0.30652 0.0
O22 O 0.26316 0.18397 0.28852 0.0
O23 O 0.2958 0.22486 0.28857 0.0
H24 H 0.19135 0.18978 0.20119 0.0
O25 O 0.29593 0.23349 0.21359 0.0
O26 O 0.25944 0.19669 0.21144 0.0
O27 O 0.23157 0.2875 0.22059 0.0
O28 O 0.19534 0.25003 0.22166 0.0
C29 C 0.28733 0.20819 0.20015 0.0
H30 H 0.16999 0.1155 0.3075 0.0
H31 H 0.15576 0.14284 0.19999 0.0
H32 H 0.32485 0.3482 0.19029 0.0
H33 H 0.32989 0.34433 0.30012 0.0
C34 C 0.69235 0.30574 0.24113 0.0
N35 N 0.73181 0.2104 0.2055 0.0
C36 C 0.69777 0.20635 0.2115 0.0
C37 C 0.68273 0.18644 0.19136 0.0
C38 C 0.70241 0.1709 0.16395 0.0
C39 C 0.73731 0.1759 0.1574 0.0
C40 C 0.75174 0.19568 0.17892 0.0
Zn41 Zn 0.74765 0.24155 0.23883 0.0
C42 C 0.7913 0.29239 0.20904 0.0
N43 N 0.76365 0.30922 0.31223 0.0
C44 C 0.74083 0.32735 0.33457 0.0
C45 C 0.79788 0.31253 0.30932 0.0
C46 C 0.8102 0.33558 0.32815 0.0
C47 C 0.78729 0.35527 0.35062 0.0
C48 C 0.7523 0.35061 0.35448 0.0
Zn49 Zn 0.74982 0.27768 0.27897 0.0
O50 O 0.70447 0.27828 0.2269 0.0
C51 C 0.70798 0.22635 0.30944 0.0
O52 O 0.70737 0.31439 0.26556 0.0
H53 H 0.81574 0.2978 0.2917 0.0
H54 H 0.68172 0.21902 0.2318 0.0
H55 H 0.71373 0.32429 0.33644 0.0
O56 O 0.71741 0.21714 0.27942 0.0
O57 O 0.71733 0.25368 0.31831 0.0
H58 H 0.7786 0.1995 0.17423 0.0
O59 O 0.79208 0.24015 0.29211 0.0
O60 O 0.79031 0.20503 0.25202 0.0
O61 O 0.78202 0.30114 0.23929 0.0
O62 O 0.77988 0.2665 0.19914 0.0
C63 C 0.80411 0.21263 0.27785 0.0
H64 H 0.65555 0.18389 0.19673 0.0
H65 H 0.75318 0.16446 0.13616 0.0
H66 H 0.83747 0.33828 0.32494 0.0
H67 H 0.73405 0.36545 0.37179 0.0
C68 C 0.78629 0.69589 0.30201 0.0
N69 N 0.81251 0.79399 0.28694 0.0
C70 C 0.80856 0.79006 0.32189 0.0
C71 C 0.83333 0.79825 0.34139 0.0
C72 C 0.86328 0.80999 0.32516 0.0
C73 C 0.86629 0.81568 0.28911 0.0
C74 C 0.8404 0.80724 0.27028 0.0
Zn75 Zn 0.77967 0.7689 0.26385 0.0
C76 C 0.81339 0.72858 0.2093 0.0
N77 N 0.71286 0.70563 0.22912 0.0
C78 C 0.69475 0.68169 0.24703 0.0
C79 C 0.71225 0.71171 0.1944 0.0
C80 C 0.69265 0.69392 0.17638 0.0
C81 C 0.67397 0.66895 0.19399 0.0
C82 C 0.67521 0.66265 0.22976 0.0
Zn83 Zn 0.74378 0.7335 0.2514 0.0
O84 O 0.797 0.72504 0.29672 0.0
C85 C 0.7107 0.7725 0.30752 0.0
O86 O 0.76173 0.68988 0.28551 0.0
H87 H 0.72746 0.73008 0.18034 0.0
H88 H 0.78732 0.77825 0.33508 0.0
H89 H 0.69575 0.67709 0.27457 0.0
O90 O 0.73947 0.78391 0.30107 0.0
O91 O 0.70317 0.75 0.28924 0.0
H92 H 0.84352 0.80955 0.2425 0.0
O93 O 0.72707 0.77785 0.21742 0.0
O94 O 0.76162 0.81286 0.23122 0.0
O95 O 0.78469 0.7169 0.21523 0.0
O96 O 0.81944 0.75299 0.22585 0.0
C97 C 0.73772 0.80721 0.21359 0.0
H98 H 0.82941 0.79437 0.36914 0.0
H99 H 0.88897 0.82502 0.27567 0.0
H100 H 0.69291 0.69897 0.14872 0.0
H101 H 0.66118 0.64339 0.24413 0.0
C102 C 0.192 0.81203 0.27658 0.0
N103 N 0.29014 0.77774 0.30961 0.0
C104 C 0.2871 0.81247 0.31195 0.0
C105 C 0.30547 0.82586 0.3348 0.0
C106 C 0.32809 0.80353 0.35498 0.0
C107 C 0.33142 0.76777 0.35199 0.0
C108 C 0.31168 0.75526 0.32917 0.0
Zn109 Zn 0.26157 0.76326 0.27378 0.0
C110 C 0.21497 0.7138 0.29881 0.0
N111 N 0.19863 0.74657 0.19661 0.0
C112 C 0.17586 0.76701 0.1766 0.0
C113 C 0.20408 0.71162 0.19516 0.0
C114 C 0.18734 0.69598 0.1727 0.0
C115 C 0.16405 0.71614 0.15165 0.0
C116 C 0.15786 0.7521 0.15383 0.0
Zn117 Zn 0.22647 0.76238 0.23258 0.0
O118 O 0.22076 0.80146 0.289 0.0
C119 C 0.27251 0.81265 0.20819 0.0
O120 O 0.1843 0.79882 0.25046 0.0
H121 H 0.22135 0.69543 0.21177 0.0
H122 H 0.27085 0.83017 0.29552 0.0
H123 H 0.17153 0.79467 0.17843 0.0
O124 O 0.28274 0.80029 0.23726 0.0
O125 O 0.2466 0.80186 0.19755 0.0
H126 H 0.31397 0.72778 0.32668 0.0
O127 O 0.26969 0.72733 0.21478 0.0
O128 O 0.30273 0.72477 0.25719 0.0
O129 O 0.20683 0.72352 0.26842 0.0
O130 O 0.23927 0.72649 0.31024 0.0
C131 C 0.2978 0.71559 0.22804 0.0
H132 H 0.30295 0.85365 0.33576 0.0
H133 H 0.34907 0.74989 0.36698 0.0
H134 H 0.19228 0.66811 0.17208 0.0
H135 H 0.13976 0.76832 0.13794 0.0
C136 C 0.20464 0.79115 0.72741 0.0
N137 N 0.2454 0.69415 0.69451 0.0
C138 C 0.21117 0.69083 0.6976 0.0
C139 C 0.19872 0.66768 0.67897 0.0
C140 C 0.2215 0.64789 0.6565 0.0
C141 C 0.25652 0.6525 0.65248 0.0
C142 C 0.26812 0.67586 0.67221 0.0
Zn143 Zn 0.25917 0.72627 0.72733 0.0
C144 C 0.30099 0.77744 0.69633 0.0
N145 N 0.27682 0.79486 0.79993 0.0
C146 C 0.25685 0.80955 0.82651 0.0
C147 C 0.31079 0.79917 0.79383 0.0
C148 C 0.3257 0.81934 0.81385 0.0
C149 C 0.30599 0.83478 0.8413 0.0
C150 C 0.27117 0.82953 0.84795 0.0
Zn151 Zn 0.26116 0.76308 0.76696 0.0
O152 O 0.21689 0.76343 0.71361 0.0
C153 C 0.21764 0.71244 0.79741 0.0
O154 O 0.21833 0.79934 0.75307 0.0
H155 H 0.32691 0.78646 0.7736 0.0
H156 H 0.19336 0.70569 0.71516 0.0
H157 H 0.23006 0.8055 0.83133 0.0
O158 O 0.22692 0.70324 0.76732 0.0
O159 O 0.22896 0.73858 0.80687 0.0
H160 H 0.29523 0.67892 0.67016 0.0
O161 O 0.30436 0.72649 0.77955 0.0
O162 O 0.30155 0.68984 0.74137 0.0
O163 O 0.29141 0.78697 0.7262 0.0
O164 O 0.29179 0.74992 0.68772 0.0
C165 C 0.31643 0.69874 0.76579 0.0
H166 H 0.17145 0.66506 0.6823 0.0
H167 H 0.27468 0.63759 0.63515 0.0
H168 H 0.35282 0.8221 0.80841 0.0
H169 H 0.25529 0.84087 0.86922 0.0
C170 C 0.27548 0.19148 0.78845 0.0
N171 N 0.29703 0.2938 0.77719 0.0
C172 C 0.30141 0.28456 0.81102 0.0
C173 C 0.31984 0.30321 0.82941 0.0
C174 C 0.33354 0.33219 0.81319 0.0
C175 C 0.32893 0.34125 0.7782 0.0
C176 C 0.31064 0.32141 0.76048 0.0
Zn177 Zn 0.26556 0.2663 0.75507 0.0
C178 C 0.29643 0.23128 0.69625 0.0
N179 N 0.19608 0.20647 0.72022 0.0
C180 C 0.16778 0.19426 0.7372 0.0
C181 C 0.20021 0.2093 0.68527 0.0
C182 C 0.1753 0.20091 0.66606 0.0
C183 C 0.14478 0.19057 0.68256 0.0
C184 C 0.14156 0.18606 0.71868 0.0
Zn185 Zn 0.22893 0.23193 0.74288 0.0
O186 O 0.28762 0.22001 0.78251 0.0
C187 C 0.19838 0.26656 0.80173 0.0
O188 O 0.24762 0.18787 0.77579 0.0
H189 H 0.22165 0.22048 0.67175 0.0
H190 H 0.28965 0.26325 0.82427 0.0
H191 H 0.16451 0.19277 0.76496 0.0
O192 O 0.22794 0.27662 0.79676 0.0
O193 O 0.18959 0.24712 0.78106 0.0
H194 H 0.30663 0.32853 0.73369 0.0
O195 O 0.21095 0.2756 0.71039 0.0
O196 O 0.24257 0.31194 0.72631 0.0
O197 O 0.26926 0.21743 0.70502 0.0
O198 O 0.30305 0.25535 0.71307 0.0
C199 C 0.21946 0.30572 0.70803 0.0
H200 H 0.32218 0.29577 0.8565 0.0
H201 H 0.33915 0.36351 0.76482 0.0
H202 H 0.17957 0.20371 0.6383 0.0
H203 H 0.11848 0.17787 0.73244 0.0
C204 C 0.7137 0.29 0.7825 0.0
N205 N 0.81326 0.25599 0.81153 0.0
C206 C 0.81197 0.29097 0.81039 0.0
C207 C 0.83136 0.30579 0.83119 0.0
C208 C 0.85209 0.28467 0.85397 0.0
C209 C 0.85277 0.24866 0.85561 0.0
C210 C 0.83307 0.23465 0.8337 0.0
Zn211 Zn 0.78349 0.24102 0.77673 0.0
C212 C 0.73641 0.19208 0.80308 0.0
N213 N 0.71667 0.22666 0.70199 0.0
C214 C 0.69545 0.24943 0.68236 0.0
C215 C 0.71875 0.19194 0.70011 0.0
C216 C 0.69982 0.17884 0.67755 0.0
C217 C 0.6777 0.20148 0.65712 0.0
C218 C 0.6752 0.23724 0.65978 0.0
Zn219 Zn 0.74687 0.2405 0.73675 0.0
O220 O 0.74239 0.27828 0.79471 0.0
C221 C 0.7946 0.28836 0.70954 0.0
O222 O 0.70705 0.27961 0.75444 0.0
H223 H 0.73484 0.17405 0.71652 0.0
H224 H 0.79588 0.30777 0.79311 0.0
H225 H 0.69396 0.27691 0.68446 0.0
O226 O 0.80388 0.27816 0.73943 0.0
O227 O 0.76892 0.27686 0.6994 0.0
H228 H 0.83367 0.20694 0.83432 0.0
O229 O 0.78651 0.20168 0.72044 0.0
O230 O 0.82386 0.20282 0.75849 0.0
O231 O 0.72593 0.20398 0.774 0.0
O232 O 0.7626 0.20293 0.81308 0.0
C233 C 0.81531 0.19018 0.73241 0.0
H234 H 0.83002 0.33369 0.82962 0.0
H235 H 0.8685 0.23173 0.87324 0.0
H236 H 0.70173 0.15107 0.67683 0.0
H237 H 0.65798 0.25537 0.64457 0.0
C238 C 0.7236 0.7933 0.80943 0.0
N239 N 0.71698 0.70664 0.75804 0.0
C240 C 0.71158 0.69093 0.7901 0.0
C241 C 0.69364 0.66281 0.79525 0.0
C242 C 0.68074 0.65086 0.76728 0.0
C243 C 0.68569 0.66772 0.73445 0.0
C244 C 0.70443 0.69582 0.73029 0.0
Zn245 Zn 0.74628 0.7453 0.755 0.0
C246 C 0.71888 0.80646 0.71149 0.0
N247 N 0.81013 0.82335 0.75295 0.0
C248 C 0.8226 0.82967 0.78269 0.0
C249 C 0.81563 0.84323 0.72322 0.0
C250 C 0.83404 0.87096 0.72271 0.0
C251 C 0.84722 0.87793 0.75293 0.0
C252 C 0.8418 0.85688 0.78317 0.0
Zn253 Zn 0.78083 0.78504 0.75329 0.0
O254 O 0.71614 0.76619 0.79832 0.0
C255 C 0.8073 0.7226 0.79704 0.0
O256 O 0.74991 0.8062 0.79557 0.0
H257 H 0.80565 0.83761 0.69993 0.0
H258 H 0.7215 0.70003 0.81183 0.0
H259 H 0.81753 0.81368 0.80613 0.0
O260 O 0.78035 0.71358 0.78721 0.0
O261 O 0.81471 0.75262 0.78712 0.0
H262 H 0.70912 0.70882 0.70505 0.0
O263 O 0.81157 0.76404 0.71037 0.0
O264 O 0.77619 0.72541 0.71138 0.0
O265 O 0.74631 0.81682 0.7191 0.0
O266 O 0.71238 0.7766 0.72317 0.0
C267 C 0.8028 0.7382 0.69782 0.0
H268 H 0.68962 0.65057 0.82102 0.0
H269 H 0.67553 0.65912 0.71251 0.0
H270 H 0.83853 0.88652 0.69877 0.0
H271 H 0.85211 0.86151 0.80669 0.0
Fe272 Fe 0.99557 0.04088 0.49286 0.0
O273 O 0.97334 0.99884 0.49059 0.0
Fe274 Fe 0.08224 0.00693 0.50152 0.0
Fe275 Fe 0.92435 0.99765 0.50477 0.0
O276 O 0.03251 0.00856 0.51553 0.0
O277 O 0.0333 0.00544 0.51583 0.0
O278 O 0.97417 0.99568 0.49082 0.0
Fe279 Fe 0.01103 0.96338 0.51372 0.0
C280 C 0.93821 0.05331 0.54789 0.0
O281 O 0.95444 0.0691 0.46728 0.0
O282 O 0.91901 0.02885 0.45962 0.0
O283 O 0.036 0.95443 0.46624 0.0
O284 O 0.0888 0.96163 0.47735 0.0
O285 O 0.07497 0.03357 0.45435 0.0
O286 O 0.01978 0.03284 0.44533 0.0
O287 O 0.93293 0.95023 0.48467 0.0
O288 O 0.98315 0.92301 0.50766 0.0
C289 C 0.05115 0.03356 0.43441 0.0
O290 O 0.05222 0.93528 0.5396 0.0
O291 O 0.08774 0.97572 0.54657 0.0
O292 O 0.97071 0.04961 0.54046 0.0
O293 O 0.91793 0.04302 0.52882 0.0
C294 C 0.9309 0.05809 0.45145 0.0
C295 C 0.9557 0.92339 0.49128 0.0
C296 C 0.95523 0.97116 0.57198 0.0
O297 O 0.93146 0.97109 0.55201 0.0
O298 O 0.98666 0.97169 0.56113 0.0
C299 C 0.06846 0.95098 0.4586 0.0
O300 O 0.07349 0.05424 0.52187 0.0
O301 O 0.02324 0.0813 0.49893 0.0
C302 C 0.07596 0.94649 0.55506 0.0
C303 C 0.05053 0.08098 0.51548 0.0
Fe304 Fe 0.50879 0.92629 0.03954 0.0
O305 O 0.50677 0.97657 0.03004 0.0
Fe306 Fe 0.46421 0.00327 0.00537 0.0
Fe307 Fe 0.54442 0.99938 1.00291 0.0
O308 O 0.50315 0.97689 0.03046 0.0
O309 O 0.50189 0.02597 0.9782 0.0
O310 O 0.50546 0.0258 0.97797 0.0
Fe311 Fe 0.49957 0.07629 0.96879 0.0
C312 C 0.57545 0.9471 0.06082 0.0
O313 O 0.54842 0.91484 1.00185 0.0
O314 O 0.5516 0.96321 0.96746 0.0
O315 O 0.4625 0.06814 0.93775 0.0
O316 O 0.42847 0.03404 0.97368 0.0
O317 O 0.46904 0.96693 0.97026 0.0
O318 O 0.47307 0.91932 0.00595 0.0
O319 O 0.57898 0.02773 0.97044 0.0
O320 O 0.54314 0.06478 0.93565 0.0
C321 C 0.46336 0.93599 0.97823 0.0
O322 O 0.45861 0.08753 0.00514 0.0
O323 O 0.4573 0.0398 0.04074 0.0
O324 O 0.54725 0.93356 0.06995 0.0
O325 O 0.58031 0.96815 0.0335 0.0
C326 C 0.55842 0.93058 0.97352 0.0
C327 C 0.57347 0.04967 0.94358 0.0
C328 C 0.54434 0.06665 0.03079 0.0
O329 O 0.5395 0.0354 0.0383 0.0
O330 O 0.53427 0.0836 1.00331 0.0
C331 C 0.43443 0.05411 0.94577 0.0
O332 O 0.4298 0.97505 0.03826 0.0
O333 O 0.4658 0.93833 0.07329 0.0
C334 C 0.44945 0.07219 0.03392 0.0
C335 C 0.4354 0.95334 0.06533 0.0
Fe336 Fe 0.00667 0.54077 0.99836 0.0
O337 O 0.97928 0.5067 0.02587 0.0
Fe338 Fe 0.08436 0.49001 0.97682 0.0
Fe339 Fe 0.92861 0.5114 0.02997 0.0
O340 O 0.03347 0.49833 0.97951 0.0
O341 O 0.03371 0.4946 0.9807 0.0
O342 O 0.97942 0.503 0.0269 0.0
Fe343 Fe 0.00616 0.46064 0.00815 0.0
C344 C 0.95198 0.57778 0.04952 0.0
O345 O 0.97469 0.54717 0.95879 0.0
O346 O 0.92322 0.5478 0.98863 0.0
O347 O 0.03808 0.42082 0.98371 0.0
O348 O 0.07917 0.44864 0.94998 0.0
O349 O 0.07824 0.52948 0.93816 0.0
O350 O 0.04015 0.57056 0.96606 0.0
O351 O 0.92373 0.47291 0.99873 0.0
O352 O 0.97468 0.46443 0.9688 0.0
C353 C 0.06414 0.56122 0.94183 0.0
O354 O 0.03787 0.45419 0.04796 0.0
O355 O 0.08964 0.45443 0.0188 0.0
O356 O 0.97504 0.58049 0.0235 0.0
O357 O 0.93509 0.55163 0.05781 0.0
C358 C 0.94195 0.55533 0.96139 0.0
C359 C 0.94314 0.45999 0.97391 0.0
C360 C 0.94847 0.4398 0.06422 0.0
O361 O 0.93459 0.47151 0.06817 0.0
O362 O 0.97257 0.43065 0.04007 0.0
C363 C 0.06321 0.42208 0.95955 0.0
O364 O 0.08895 0.52883 0.00734 0.0
O365 O 0.03829 0.53752 0.03762 0.0
C366 C 0.07069 0.44666 0.0458 0.0
C367 C 0.06991 0.54164 0.03236 0.0
Fe368 Fe 0.50324 0.4959 0.96658 0.0
O369 O 0.52574 0.47203 0.0075 0.0
Fe370 Fe 0.42773 0.54183 1.00246 0.0
Fe371 Fe 0.57616 0.45937 0.00776 0.0
O372 O 0.4779 0.52833 0.99967 0.0
O373 O 0.47828 0.52945 1.00257 0.0
O374 O 0.52609 0.47311 0.01039 0.0
Fe375 Fe 0.50081 0.50552 0.04348 0.0
C376 C 0.55434 0.43076 0.94534 0.0
O377 O 0.54038 0.52758 0.95772 0.0
O378 O 0.5875 0.48921 0.96274 0.0
O379 O 0.47081 0.54286 0.07344 0.0
O380 O 0.43703 0.57738 0.03493 0.0
O381 O 0.44012 0.56794 0.95573 0.0
O382 O 0.47672 0.52585 0.92749 0.0
O383 O 0.58511 0.49781 0.03704 0.0
O384 O 0.5383 0.53739 0.03605 0.0
C385 C 0.45661 0.55537 0.92832 0.0
O386 O 0.46366 0.47387 0.05211 0.0
O387 O 0.41656 0.51222 0.04771 0.0
O388 O 0.53339 0.45862 0.93657 0.0
O389 O 0.56687 0.424 0.97519 0.0
C390 C 0.57152 0.51663 0.94831 0.0
C391 C 0.56953 0.52787 0.04262 0.0
C392 C 0.54719 0.44596 0.08182 0.0
O393 O 0.56355 0.43321 0.05442 0.0
O394 O 0.52719 0.47554 0.08256 0.0
C395 C 0.45012 0.57085 0.06454 0.0
O396 O 0.41881 0.50312 0.9733 0.0
O397 O 0.46593 0.46394 0.97427 0.0
C398 C 0.4327 0.48487 0.06206 0.0
C399 C 0.43463 0.47311 0.96783 0.0
Fe400 Fe 1.00298 0.46155 0.50974 0.0
O401 O 0.98263 0.5044 0.53213 0.0
Fe402 Fe 0.0258 0.49396 0.42602 0.0
Fe403 Fe 0.98265 0.50889 0.58147 0.0
O404 O 0.02582 0.49471 0.47611 0.0
O405 O 0.02578 0.49838 0.47538 0.0
O406 O 0.98258 0.50806 0.5314 0.0
Fe407 Fe 0.00536 0.54123 0.49773 0.0
C408 C 0.95163 0.44329 0.57313 0.0
O409 O 0.04539 0.45469 0.5382 0.0
O410 O 0.01999 0.46676 0.58977 0.0
O411 O 0.03384 0.57 0.4591 0.0
O412 O 0.0607 0.52897 0.42317 0.0
O413 O 0.05909 0.44918 0.43595 0.0
O414 O 0.02889 0.42085 0.48096 0.0
O415 O 0.02118 0.53995 0.57818 0.0
O416 O 0.04768 0.5361 0.52564 0.0
C417 C 0.05333 0.42187 0.45589 0.0
O418 O 0.96292 0.54801 0.46926 0.0
O419 O 0.98852 0.53615 0.41773 0.0
O420 O 0.97451 0.43277 0.54842 0.0
O421 O 0.94783 0.47382 0.58443 0.0
C422 C 0.04581 0.45381 0.57069 0.0
C423 C 0.04791 0.5409 0.55715 0.0
C424 C 0.95491 0.58085 0.55148 0.0
O425 O 0.94927 0.55356 0.5715 0.0
O426 O 0.97938 0.58192 0.52645 0.0
C427 C 0.05692 0.55947 0.43457 0.0
O428 O 0.98721 0.463 0.42925 0.0
O429 O 0.96069 0.46679 0.48182 0.0
C430 C 0.96256 0.54889 0.43677 0.0
C431 C 0.96046 0.46208 0.45028 0.0
Fe432 Fe 0.50621 0.96178 0.50945 0.0
O433 O 0.48062 0.00384 0.52985 0.0
Fe434 Fe 0.53683 0.99441 0.42853 0.0
Fe435 Fe 0.47422 0.00867 0.57938 0.0
O436 O 0.53052 0.99581 0.47865 0.0
O437 O 0.53039 0.99923 0.47807 0.0
O438 O 0.48045 0.00724 0.52925 0.0
Fe439 Fe 0.5046 0.04129 0.49831 0.0
C440 C 0.4496 0.94099 0.56593 0.0
O441 O 0.54437 0.95773 0.54278 0.0
O442 O 0.51227 0.96801 0.5917 0.0
O443 O 0.53463 0.07162 0.46313 0.0
O444 O 0.56856 0.03156 0.43045 0.0
O445 O 0.57076 0.95097 0.44213 0.0
O446 O 0.53683 0.92199 0.48338 0.0
O447 O 0.50906 0.04318 0.58064 0.0
O448 O 0.54224 0.03946 0.53156 0.0
C449 C 0.56317 0.92332 0.46056 0.0
O450 O 0.46649 0.04501 0.46492 0.0
O451 O 0.499 0.03517 0.41618 0.0
O452 O 0.47614 0.93146 0.5445 0.0
O453 O 0.44255 0.9714 0.57756 0.0
C454 C 0.54033 0.95552 0.57543 0.0
C455 C 0.53617 0.04917 0.56177 0.0
C456 C 0.44731 0.07959 0.54701 0.0
O457 O 0.4401 0.05197 0.56575 0.0
O458 O 0.47367 0.08107 0.5242 0.0
C459 C 0.56129 0.06207 0.44184 0.0
O460 O 0.50179 0.96014 0.42716 0.0
O461 O 0.46852 0.96392 0.47619 0.0
C462 C 0.47074 0.04734 0.43229 0.0
C463 C 0.47458 0.95431 0.44593 0.0
H464 H 0.18006 0.05589 0.26075 0.0
H465 H 0.01052 0.05984 0.38233 0.0
H466 H 0.09113 0.13399 0.25301 0.0
H467 H 0.11229 0.00749 0.40204 0.0
H468 H 0.0296 0.06688 0.32093 0.0
H469 H 0.14365 0.01693 0.29376 0.0
C470 C 0.15244 0.06409 0.26448 0.0
C471 C 0.13851 0.09828 0.2553 0.0
C472 C 0.04738 0.05303 0.33866 0.0
C473 C 0.09745 0.05503 0.29429 0.0
C474 C 0.03667 0.04933 0.37362 0.0
C475 C 0.06042 0.03437 0.39722 0.0
C476 C 0.08185 0.04132 0.3275 0.0
C477 C 0.09364 0.02038 0.38473 0.0
C478 C 0.13171 0.04204 0.28357 0.0
C479 C 0.10273 0.10787 0.26044 0.0
N480 N 0.10351 0.02461 0.35075 0.0
N481 N 0.08345 0.08673 0.28082 0.0
H482 H 0.81699 0.14211 0.27704 0.0
H483 H 0.94266 0.12409 0.42888 0.0
H484 H 0.85197 0.22838 0.3172 0.0
H485 H 0.88806 0.04224 0.40567 0.0
H486 H 0.91894 0.16009 0.38014 0.0
H487 H 0.85346 0.10253 0.31534 0.0
C488 C 0.83302 0.15265 0.29325 0.0
C489 C 0.83125 0.18848 0.29434 0.0
C490 C 0.91228 0.13418 0.38567 0.0
C491 C 0.87244 0.14368 0.33825 0.0
C492 C 0.92573 0.11362 0.41359 0.0
C493 C 0.91694 0.08022 0.42182 0.0
C494 C 0.89001 0.12126 0.36568 0.0
C495 C 0.89516 0.068 0.4007 0.0
C496 C 0.85353 0.13012 0.31531 0.0
C497 C 0.85232 0.20088 0.31594 0.0
N498 N 0.88232 0.08858 0.37371 0.0
N499 N 0.8718 0.17852 0.33728 0.0
H500 H 0.88776 0.7688 0.38011 0.0
H501 H 0.89913 0.89054 0.49518 0.0
H502 H 0.90055 0.86472 0.31976 0.0
H503 H 1.00285 0.88873 0.44733 0.0
H504 H 0.88727 0.85187 0.45349 0.0
H505 H 0.9198 0.78628 0.42458 0.0
C506 C 0.89803 0.79316 0.37582 0.0
C507 C 0.8905 0.81597 0.34675 0.0
C508 C 0.91293 0.85921 0.45284 0.0
C509 C 0.92807 0.83507 0.39673 0.0
C510 C 0.91971 0.88099 0.47659 0.0
C511 C 0.95199 0.89254 0.47449 0.0
C512 C 0.93821 0.85013 0.42629 0.0
C513 C 0.97771 0.88014 0.44956 0.0
C514 C 0.91647 0.80282 0.40104 0.0
C515 C 0.9054 0.84663 0.34196 0.0
N516 N 0.96993 0.86043 0.42546 0.0
N517 N 0.92301 0.85569 0.36716 0.0
H518 H 0.21124 0.86847 0.29856 0.0
H519 H 0.03457 0.9255 0.41006 0.0
H520 H 0.12151 0.81801 0.29369 0.0
H521 H 0.13644 0.93898 0.43487 0.0
H522 H 0.06101 0.89635 0.35928 0.0
H523 H 0.17804 0.90719 0.33827 0.0
C524 C 0.18422 0.86604 0.30543 0.0
C525 C 0.16911 0.83986 0.29325 0.0
C526 C 0.07738 0.90578 0.37595 0.0
C527 C 0.13113 0.88355 0.33944 0.0
C528 C 0.06242 0.92209 0.40509 0.0
C529 C 0.08335 0.9339 0.42738 0.0
C530 C 0.1134 0.90211 0.36871 0.0
C531 C 0.1192 0.9299 0.41888 0.0
C532 C 0.16535 0.88799 0.32826 0.0
C533 C 0.13397 0.83797 0.30261 0.0
N534 N 0.13298 0.91441 0.39032 0.0
N535 N 0.11615 0.85925 0.32576 0.0
H536 H 0.15666 0.77378 0.68918 0.0
H537 H 0.11701 0.96428 0.60132 0.0
H538 H 0.19118 0.86183 0.72637 0.0
H539 H 0.06744 0.87932 0.57699 0.0
H540 H 0.14154 0.92803 0.64937 0.0
H541 H 0.11992 0.81274 0.65135 0.0
C542 C 0.15597 0.80143 0.68982 0.0
C543 C 0.17719 0.81467 0.71066 0.0
C544 C 0.12511 0.91738 0.63368 0.0
C545 C 0.13577 0.85941 0.66684 0.0
C546 C 0.11127 0.93798 0.60599 0.0
C547 C 0.09048 0.92471 0.58464 0.0
C548 C 0.11844 0.88309 0.64 0.0
C549 C 0.08355 0.89061 0.59248 0.0
C550 C 0.13504 0.82366 0.66815 0.0
C551 C 0.17518 0.85062 0.71068 0.0
N552 N 0.09777 0.87089 0.61932 0.0
N553 N 0.15528 0.8718 0.68858 0.0
H554 H 0.10233 0.13974 0.69206 0.0
H555 H 1.00146 0.11476 0.55828 0.0
H556 H 0.12393 0.22888 0.62434 0.0
H557 H 0.10664 0.11421 0.51479 0.0
H558 H 0.01321 0.15051 0.60305 0.0
H559 H 0.06681 0.12427 0.64917 0.0
C560 C 0.0989 0.15655 0.66873 0.0
C561 C 0.11708 0.18497 0.66128 0.0
C562 C 0.03317 0.14346 0.5829 0.0
C563 C 0.07714 0.16723 0.6125 0.0
C564 C 0.02653 0.12337 0.55741 0.0
C565 C 0.05332 0.11143 0.53331 0.0
C566 C 0.06642 0.1524 0.58312 0.0
C567 C 0.08544 0.12297 0.53307 0.0
C568 C 0.07862 0.14775 0.64438 0.0
C569 C 0.11158 0.20588 0.63053 0.0
N570 N 0.0912 0.14278 0.55785 0.0
N571 N 0.09313 0.19588 0.60667 0.0
H572 H 0.79438 0.13623 0.70704 0.0
H573 H 0.97196 0.07719 0.59759 0.0
H574 H 0.8861 0.18195 0.71675 0.0
H575 H 0.87007 0.0664 0.57066 0.0
H576 H 0.94531 0.10572 0.64867 0.0
H577 H 0.82707 0.09815 0.66649 0.0
C578 C 0.8217 0.13776 0.70102 0.0
C579 C 0.83755 0.16246 0.71486 0.0
C580 C 0.92898 0.09703 0.63147 0.0
C581 C 0.87503 0.11948 0.66768 0.0
C582 C 0.94407 0.08107 0.60216 0.0
C583 C 0.92321 0.07016 0.57922 0.0
C584 C 0.89287 0.1013 0.63818 0.0
C585 C 0.88728 0.07476 0.58718 0.0
C586 C 0.8403 0.11617 0.6777 0.0
C587 C 0.87305 0.16317 0.70654 0.0
N588 N 0.87336 0.08991 0.61589 0.0
N589 N 0.89063 0.14229 0.6829 0.0
H590 H 0.82632 0.947 0.74498 0.0
H591 H 0.99598 0.94601 0.62428 0.0
H592 H 0.9169 0.8711 0.75366 0.0
H593 H 0.89376 0.99678 0.6041 0.0
H594 H 0.97683 0.93918 0.68565 0.0
H595 H 0.8618 0.9869 0.71208 0.0
C596 C 0.85407 0.93951 0.74146 0.0
C597 C 0.8688 0.90564 0.75089 0.0
C598 C 0.95895 0.95264 0.66783 0.0
C599 C 0.90884 0.94992 0.71202 0.0
C600 C 0.9697 0.95621 0.63287 0.0
C601 C 0.94587 0.9706 0.60915 0.0
C602 C 0.92433 0.96385 0.67885 0.0
C603 C 0.91249 0.98426 0.62151 0.0
C604 C 0.87427 0.96209 0.72245 0.0
C605 C 0.90471 0.89695 0.74602 0.0
N606 N 0.90256 0.98012 0.65548 0.0
N607 N 0.92351 0.91857 0.7257 0.0
H608 H 0.2704 0.17735 0.14565 0.0
H609 H 0.45213 0.07011 0.10362 0.0
H610 H 0.35777 0.19732 0.19584 0.0
H611 H 0.39375 0.1198 0.0204 0.0
H612 H 0.41274 0.105 0.14395 0.0
H613 H 0.31051 0.14452 0.10443 0.0
C614 C 0.298 0.17492 0.14785 0.0
C615 C 0.31092 0.19028 0.17385 0.0
C616 C 0.40872 0.10814 0.11682 0.0
C617 C 0.35643 0.15198 0.12794 0.0
C618 C 0.43096 0.08824 0.09396 0.0
C619 C 0.42617 0.09237 0.05876 0.0
C620 C 0.38096 0.13127 0.10441 0.0
C621 C 0.39841 0.11618 0.04737 0.0
C622 C 0.32074 0.15628 0.12444 0.0
C623 C 0.34688 0.18621 0.17583 0.0
N624 N 0.37653 0.13447 0.0702 0.0
N625 N 0.36843 0.167 0.15344 0.0
H626 H 0.81747 0.34889 0.22474 0.0
H627 H 0.93729 0.37509 0.04914 0.0
H628 H 0.82269 0.28096 0.14352 0.0
H629 H 0.92098 0.44404 0.13021 0.0
H630 H 0.90051 0.3367 0.08404 0.0
H631 H 0.85917 0.38074 0.19099 0.0
C632 C 0.82728 0.34062 0.19965 0.0
C633 C 0.81618 0.31212 0.18702 0.0
C634 C 0.90539 0.36002 0.09428 0.0
C635 C 0.86484 0.34901 0.14772 0.0
C636 C 0.92671 0.38173 0.07457 0.0
C637 C 0.93231 0.41284 0.0868 0.0
C638 C 0.8898 0.36946 0.12649 0.0
C639 C 0.91736 0.42044 0.11964 0.0
C640 C 0.85134 0.35892 0.18031 0.0
C641 C 0.83027 0.30284 0.15427 0.0
N642 N 0.89683 0.3991 0.13812 0.0
N643 N 0.85384 0.32126 0.1357 0.0
H644 H 0.70987 0.87371 0.22505 0.0
H645 H 0.64148 0.92145 0.03884 0.0
H646 H 0.72683 0.80109 0.14735 0.0
H647 H 0.57555 0.94395 0.13058 0.0
H648 H 0.68682 0.89191 0.07492 0.0
H649 H 0.67393 0.91433 0.1865 0.0
C650 C 0.70677 0.86678 0.19956 0.0
C651 C 0.72125 0.83418 0.18918 0.0
C652 C 0.66265 0.90401 0.08703 0.0
C653 C 0.68103 0.8803 0.14519 0.0
C654 C 0.63696 0.92099 0.06655 0.0
C655 C 0.60484 0.93503 0.08187 0.0
C656 C 0.65641 0.90196 0.12297 0.0
C657 C 0.6 0.93331 0.11789 0.0
C658 C 0.68619 0.88976 0.17778 0.0
C659 C 0.71606 0.82606 0.15617 0.0
N660 N 0.62554 0.91706 0.13728 0.0
N661 N 0.69646 0.849 0.13527 0.0
H662 H 0.09517 0.71068 0.15218 0.0
H663 H 0.13632 0.55543 0.0295 0.0
H664 H 0.19477 0.67907 0.09973 0.0
H665 H 0.03407 0.58674 0.07731 0.0
H666 H 0.15716 0.60195 0.05451 0.0
H667 H 0.07055 0.66861 0.12249 0.0
C668 C 0.11152 0.6956 0.13361 0.0
C669 C 0.1469 0.6983 0.12811 0.0
C670 C 0.13016 0.5987 0.05968 0.0
C671 C 0.1195 0.64969 0.09512 0.0
C672 C 0.11825 0.57189 0.04556 0.0
C673 C 0.08336 0.56703 0.05131 0.0
C674 C 0.10713 0.62101 0.07985 0.0
C675 C 0.06124 0.58934 0.07235 0.0
C676 C 0.09765 0.67133 0.11705 0.0
C677 C 0.16731 0.67777 0.10446 0.0
N678 N 0.07349 0.61544 0.08582 0.0
N679 N 0.1534 0.65416 0.08908 0.0
H680 H 0.3404 0.88955 0.82074 0.0
H681 H 0.43246 0.87764 0.99496 0.0
H682 H 0.31212 0.82432 0.91061 0.0
H683 H 0.44041 0.96066 0.91521 0.0
H684 H 0.39051 0.85607 0.96334 0.0
H685 H 0.37781 0.91549 0.85434 0.0
C686 C 0.34165 0.88119 0.84779 0.0
C687 C 0.32311 0.8549 0.86303 0.0
C688 C 0.40145 0.87898 0.95275 0.0
C689 C 0.36657 0.88372 0.90143 0.0
C690 C 0.42572 0.89117 0.97062 0.0
C691 C 0.44029 0.92094 0.95766 0.0
C692 C 0.39179 0.89643 0.92146 0.0
C693 C 0.43006 0.93753 0.92615 0.0
C694 C 0.3631 0.89586 0.86691 0.0
C695 C 0.32574 0.84477 0.89805 0.0
N696 N 0.40657 0.92499 0.90911 0.0
N697 N 0.34746 0.8589 0.91599 0.0
H698 H 0.12733 0.27199 0.809 0.0
H699 H 0.02989 0.37774 0.92837 0.0
H700 H 0.2151 0.28993 0.85983 0.0
H701 H 0.12993 0.39466 0.9547 0.0
H702 H 0.05813 0.33036 0.89443 0.0
H703 H 0.08877 0.30181 0.85286 0.0
C704 C 0.13839 0.2816 0.82984 0.0
C705 C 0.1744 0.27914 0.8305 0.0
C706 C 0.07398 0.34419 0.90772 0.0
C707 C 0.13068 0.31301 0.88096 0.0
C708 C 0.05775 0.371 0.92733 0.0
C709 C 0.07784 0.39026 0.94363 0.0
C710 C 0.1104 0.33686 0.90487 0.0
C711 C 0.11369 0.38073 0.94187 0.0
C712 C 0.11634 0.29866 0.855 0.0
C713 C 0.18749 0.29187 0.85797 0.0
N714 N 0.12876 0.35492 0.92269 0.0
N715 N 0.16568 0.30848 0.88181 0.0
H716 H 0.74304 0.16568 0.87094 0.0
H717 H 0.57813 0.06583 0.87456 0.0
H718 H 0.68584 0.15919 0.78363 0.0
H719 H 0.63571 0.06285 0.9633 0.0
H720 H 0.62122 0.09623 0.8404 0.0
H721 H 0.70768 0.12539 0.90495 0.0
C722 C 0.72331 0.15567 0.85884 0.0
C723 C 0.71731 0.16621 0.82437 0.0
C724 C 0.62488 0.08865 0.86722 0.0
C725 C 0.67686 0.12008 0.86307 0.0
C726 C 0.60027 0.07106 0.88673 0.0
C727 C 0.60332 0.06165 0.92183 0.0
C728 C 0.65275 0.09766 0.88287 0.0
C729 C 0.63256 0.06927 0.93622 0.0
C730 C 0.70314 0.13266 0.87827 0.0
C731 C 0.69136 0.15227 0.81012 0.0
N732 N 0.65592 0.08726 0.91681 0.0
N733 N 0.67219 0.13024 0.82947 0.0
H734 H 0.87238 0.7272 0.81637 0.0
H735 H 0.87569 0.557 0.94572 0.0
H736 H 0.79238 0.6612 0.82895 0.0
H737 H 0.96814 0.60301 0.91352 0.0
H738 H 0.84451 0.59697 0.90422 0.0
H739 H 0.90756 0.68456 0.85352 0.0
C740 C 0.8622 0.70385 0.82693 0.0
C741 C 0.82931 0.69786 0.81958 0.0
C742 C 0.87169 0.59824 0.90591 0.0
C743 C 0.86929 0.64916 0.86195 0.0
C744 C 0.88953 0.57537 0.92963 0.0
C745 C 0.92457 0.57667 0.93311 0.0
C746 C 0.88873 0.62316 0.88571 0.0
C747 C 0.94118 0.60099 0.91149 0.0
C748 C 0.88235 0.67947 0.84794 0.0
C749 C 0.81752 0.66705 0.83383 0.0
N750 N 0.923 0.6236 0.88894 0.0
N751 N 0.83736 0.64407 0.85437 0.0
H752 H 0.1386 0.27608 0.19233 0.0
H753 H 0.13687 0.4453 0.06177 0.0
H754 H 0.22027 0.34012 0.17829 0.0
H755 H 0.04435 0.39941 0.09401 0.0
H756 H 0.16792 0.40559 0.10359 0.0
H757 H 0.10391 0.31892 0.15512 0.0
C758 C 0.14926 0.29906 0.18142 0.0
C759 C 0.18247 0.30442 0.18838 0.0
C760 C 0.14075 0.40431 0.10184 0.0
C761 C 0.14298 0.35343 0.1459 0.0
C762 C 0.12298 0.42703 0.07794 0.0
C763 C 0.08797 0.42565 0.07434 0.0
C764 C 0.12365 0.37948 0.1221 0.0
C765 C 0.07129 0.40148 0.09609 0.0
C766 C 0.12937 0.32357 0.16036 0.0
C767 C 0.19486 0.33478 0.17368 0.0
N768 N 0.0894 0.37903 0.1188 0.0
N769 N 0.17523 0.35794 0.15308 0.0
H770 H 0.18735 0.72425 0.86313 0.0
H771 H 0.08996 0.55668 0.87541 0.0
H772 H 0.19104 0.65581 0.78259 0.0
H773 H 0.07572 0.62601 0.95607 0.0
H774 H 0.12501 0.59541 0.84062 0.0
H775 H 0.14572 0.69082 0.89771 0.0
C776 C 0.17955 0.70227 0.85273 0.0
C777 C 0.193 0.69283 0.81988 0.0
C778 C 0.11402 0.60255 0.86576 0.0
C779 C 0.14524 0.65471 0.85913 0.0
C780 C 0.0938 0.58043 0.88561 0.0
C781 C 0.07977 0.58809 0.9187 0.0
C782 C 0.12097 0.63261 0.87906 0.0
C783 C 0.08573 0.61928 0.93054 0.0
C784 C 0.15567 0.6833 0.87241 0.0
C785 C 0.18169 0.66417 0.80772 0.0
N786 N 0.10623 0.64023 0.91091 0.0
N787 N 0.15872 0.64629 0.82726 0.0
H788 H 0.25165 0.14605 0.84052 0.0
H789 H 0.44513 0.06303 0.87666 0.0
H790 H 0.34452 0.17315 0.78313 0.0
H791 H 0.36305 0.06647 0.95821 0.0
H792 H 0.40365 0.08913 0.83614 0.0
H793 H 0.28781 0.10444 0.87835 0.0
C794 C 0.27953 0.1427 0.83551 0.0
C795 C 0.29527 0.163 0.80881 0.0
C796 C 0.3945 0.08388 0.8628 0.0
C797 C 0.33631 0.11571 0.85127 0.0
C798 C 0.41817 0.06888 0.88597 0.0
C799 C 0.40763 0.06314 0.92098 0.0
C800 C 0.35984 0.09362 0.87454 0.0
C801 C 0.37223 0.07065 0.93143 0.0
C802 C 0.30006 0.11923 0.85714 0.0
C803 C 0.33141 0.15811 0.80353 0.0
N804 N 0.34955 0.0861 0.90835 0.0
N805 N 0.35061 0.13503 0.82448 0.0
H806 H 0.83679 0.29662 0.92119 0.0
H807 H 0.97475 0.42911 0.91695 0.0
H808 H 0.91027 0.31375 0.83465 0.0
H809 H 0.88428 0.42973 0.98903 0.0
H810 H 0.95688 0.38131 0.89044 0.0
H811 H 0.86081 0.33826 0.95173 0.0
C812 C 0.85878 0.30834 0.90919 0.0
C813 C 0.87203 0.30157 0.87574 0.0
C814 C 0.94089 0.39205 0.91197 0.0
C815 C 0.89879 0.34984 0.90969 0.0
C816 C 0.95096 0.41948 0.92699 0.0
C817 C 0.93083 0.43376 0.95509 0.0
C818 C 0.91067 0.37853 0.92532 0.0
C819 C 0.90043 0.4199 0.96719 0.0
C820 C 0.87213 0.33243 0.92631 0.0
C821 C 0.89981 0.31806 0.8607 0.0
N822 N 0.89137 0.39301 0.95233 0.0
N823 N 0.91219 0.34162 0.8777 0.0
H824 H 0.66938 0.7702 0.85035 0.0
H825 H 0.60091 0.9548 0.9199 0.0
H826 H 0.72399 0.85863 0.82788 0.0
H827 H 0.56841 0.86037 0.96932 0.0
H828 H 0.64153 0.92067 0.88084 0.0
H829 H 0.62821 0.80337 0.89008 0.0
C830 C 0.67287 0.79646 0.85395 0.0
C831 C 0.70023 0.81162 0.8358 0.0
C832 C 0.62545 0.90745 0.90021 0.0
C833 C 0.65291 0.84984 0.88063 0.0
C834 C 0.60206 0.92692 0.92236 0.0
C835 C 0.58123 0.91044 0.94801 0.0
C836 C 0.6278 0.87122 0.90337 0.0
C837 C 0.58407 0.87417 0.95005 0.0
C838 C 0.64936 0.81537 0.87657 0.0
C839 C 0.70342 0.8458 0.84141 0.0
N840 N 0.60686 0.85579 0.92799 0.0
N841 N 0.67991 0.86382 0.86308 0.0
H842 H 0.82983 0.65994 0.2103 0.0
H843 H 0.93502 0.64789 0.03379 0.0
H844 H 0.85859 0.75476 0.15843 0.0
H845 H 0.95091 0.57007 0.11823 0.0
H846 H 0.90784 0.68957 0.07515 0.0
H847 H 0.87278 0.62717 0.17287 0.0
C848 C 0.84539 0.67381 0.19092 0.0
C849 C 0.84072 0.70994 0.18716 0.0
C850 C 0.91829 0.66364 0.08453 0.0
C851 C 0.88982 0.67263 0.14395 0.0
C852 C 0.93379 0.64 0.06106 0.0
C853 C 0.94445 0.60554 0.07282 0.0
C854 C 0.91347 0.65222 0.11952 0.0
C855 C 0.94229 0.59631 0.10823 0.0
C856 C 0.8701 0.65514 0.16977 0.0
C857 C 0.86166 0.72681 0.16193 0.0
N858 N 0.92652 0.61932 0.13026 0.0
N859 N 0.88509 0.70791 0.14063 0.0
H860 H 0.32206 0.84582 0.22921 0.0
H861 H 0.37193 0.94346 0.0459 0.0
H862 H 0.26739 0.8392 0.14017 0.0
H863 H 0.43165 0.93392 0.13393 0.0
H864 H 0.32823 0.91297 0.08078 0.0
H865 H 0.35698 0.88518 0.19558 0.0
C866 C 0.31724 0.8527 0.20251 0.0
C867 C 0.29181 0.83873 0.18752 0.0
C868 C 0.35067 0.91803 0.09252 0.0
C869 C 0.33234 0.88433 0.14837 0.0
C870 C 0.37543 0.93576 0.07274 0.0
C871 C 0.40552 0.94131 0.08703 0.0
C872 C 0.35595 0.90607 0.12687 0.0
C873 C 0.40898 0.93016 0.12177 0.0
C874 C 0.33732 0.87533 0.18323 0.0
C875 C 0.28675 0.84917 0.15281 0.0
N876 N 0.38471 0.91307 0.14031 0.0
N877 N 0.30701 0.87115 0.13432 0.0
H878 H 0.69799 0.1802 0.09433 0.0
H879 H 0.56573 0.04251 0.09442 0.0
H880 H 0.66639 0.11733 0.18473 0.0
H881 H 0.57606 0.12446 0.01398 0.0
H882 H 0.60783 0.06478 0.12546 0.0
H883 H 0.66005 0.15384 0.06124 0.0
C884 C 0.68366 0.16028 0.10696 0.0
C885 C 0.68522 0.15087 0.14221 0.0
C886 C 0.60074 0.07797 0.10109 0.0
C887 C 0.64152 0.12111 0.10494 0.0
C888 C 0.57657 0.06536 0.08341 0.0
C889 C 0.56704 0.08178 0.05164 0.0
C890 C 0.61587 0.10696 0.08675 0.0
C891 C 0.58226 0.11115 0.03855 0.0
C892 C 0.66172 0.14556 0.08825 0.0
C893 C 0.66577 0.12531 0.15757 0.0
N894 N 0.60602 0.12268 0.05607 0.0
N895 N 0.64464 0.11142 0.13889 0.0
H896 H 0.61118 0.65347 0.77203 0.0
H897 H 0.63406 0.49566 0.91372 0.0
H898 H 0.70591 0.58371 0.78217 0.0
H899 H 0.54274 0.57179 0.90757 0.0
H900 H 0.65651 0.51937 0.85762 0.0
H901 H 0.58041 0.61336 0.81063 0.0
C902 C 0.62507 0.62879 0.78102 0.0
C903 C 0.66097 0.62175 0.77439 0.0
C904 C 0.63148 0.53073 0.86852 0.0
C905 C 0.62674 0.57688 0.81967 0.0
C906 C 0.61885 0.51751 0.90075 0.0
C907 C 0.5868 0.5322 0.91575 0.0
C908 C 0.61198 0.55889 0.85122 0.0
C909 C 0.56787 0.55998 0.89735 0.0
C910 C 0.60772 0.60619 0.80354 0.0
C911 C 0.67812 0.58984 0.78694 0.0
N912 N 0.58087 0.57254 0.86618 0.0
N913 N 0.661 0.56888 0.80981 0.0
H914 H 0.33813 0.6293 0.76048 0.0
H915 H 0.45611 0.62417 0.91399 0.0
H916 H 0.36394 0.71919 0.80229 0.0
H917 H 0.4399 0.5322 0.86943 0.0
H918 H 0.43193 0.65928 0.86511 0.0
H919 H 0.38348 0.59324 0.79198 0.0
C920 C 0.35375 0.64148 0.77576 0.0
C921 C 0.34681 0.67708 0.77952 0.0
C922 C 0.43412 0.63141 0.86552 0.0
C923 C 0.39842 0.63633 0.81535 0.0
C924 C 0.448 0.61143 0.89341 0.0
C925 C 0.44952 0.57547 0.89569 0.0
C926 C 0.4207 0.61532 0.84024 0.0
C927 C 0.439 0.56 0.86842 0.0
C928 C 0.37959 0.62095 0.79371 0.0
C929 C 0.36788 0.69169 0.79935 0.0
N930 N 0.42422 0.5801 0.84206 0.0
N931 N 0.3924 0.67122 0.81681 0.0
H932 H 0.32291 0.40255 0.81494 0.0
H933 H 0.45617 0.40505 0.9565 0.0
H934 H 0.38247 0.31022 0.85866 0.0
H935 H 0.37644 0.49007 0.9329 0.0
H936 H 0.43277 0.37077 0.91777 0.0
H937 H 0.34689 0.43653 0.85374 0.0
C938 C 0.34141 0.38954 0.83237 0.0
C939 C 0.3507 0.35355 0.83366 0.0
C940 C 0.42025 0.39683 0.92131 0.0
C941 C 0.37786 0.39208 0.87834 0.0
C942 C 0.43351 0.41639 0.94352 0.0
C943 C 0.4182 0.45049 0.94811 0.0
C944 C 0.39175 0.41159 0.90318 0.0
C945 C 0.38898 0.46383 0.93041 0.0
C946 C 0.35478 0.40885 0.85475 0.0
C947 C 0.37443 0.3379 0.85705 0.0
N948 N 0.37689 0.44446 0.90854 0.0
N949 N 0.3872 0.35724 0.87846 0.0
H950 H 0.71752 0.30398 0.84822 0.0
H951 H 0.55336 0.44173 0.87457 0.0
H952 H 0.6504 0.32659 0.7654 0.0
H953 H 0.59045 0.36612 0.95489 0.0
H954 H 0.58926 0.40695 0.83185 0.0
H955 H 0.67398 0.33601 0.88535 0.0
C956 C 0.69369 0.31591 0.83762 0.0
C957 C 0.68767 0.31237 0.8035 0.0
C958 C 0.58886 0.39786 0.85882 0.0
C959 C 0.6373 0.3494 0.84649 0.0
C960 C 0.56833 0.41755 0.88323 0.0
C961 C 0.56925 0.40718 0.91855 0.0
C962 C 0.61066 0.36805 0.87001 0.0
C963 C 0.58927 0.37563 0.92813 0.0
C964 C 0.66867 0.33401 0.85906 0.0
C965 C 0.65607 0.32859 0.79154 0.0
N966 N 0.60954 0.35761 0.90414 0.0
N967 N 0.63199 0.34666 0.81302 0.0
H968 H 0.67025 0.37514 0.2464 0.0
H969 H 0.54779 0.37726 0.0973 0.0
H970 H 0.64381 0.28437 0.20679 0.0
H971 H 0.56482 0.47011 0.13972 0.0
H972 H 0.57311 0.34291 0.14604 0.0
H973 H 0.62342 0.41044 0.21627 0.0
C974 C 0.6542 0.36262 0.2319 0.0
C975 C 0.66137 0.32701 0.22827 0.0
C976 C 0.57084 0.37082 0.1452 0.0
C977 C 0.60808 0.36685 0.19408 0.0
C978 C 0.5563 0.39035 0.1174 0.0
C979 C 0.55472 0.42632 0.11455 0.0
C980 C 0.58488 0.38738 0.16973 0.0
C981 C 0.56577 0.44228 0.1412 0.0
C982 C 0.62752 0.38271 0.21475 0.0
C983 C 0.63972 0.31191 0.20951 0.0
N984 N 0.58122 0.42261 0.16742 0.0
N985 N 0.61437 0.33195 0.19282 0.0
H986 H 0.6277 0.69355 0.14672 0.0
H987 H 0.62723 0.50936 0.0778 0.0
H988 H 0.67778 0.59872 0.19567 0.0
H989 H 0.54929 0.59616 0.0544 0.0
H990 H 0.65063 0.54364 0.11627 0.0
H991 H 0.60194 0.65984 0.10903 0.0
C992 C 0.63294 0.66558 0.1497 0.0
C993 C 0.65482 0.64879 0.17428 0.0
C994 C 0.62848 0.55521 0.10263 0.0
C995 C 0.6261 0.61023 0.13095 0.0
C996 C 0.61529 0.5358 0.08033 0.0
C997 C 0.58626 0.54992 0.06268 0.0
C998 C 0.61286 0.58919 0.10708 0.0
C999 C 0.57172 0.58423 0.06742 0.0
C1000 C 0.61829 0.64641 0.12823 0.0
C1001 C 0.66081 0.61257 0.17722 0.0
N1002 N 0.58523 0.60274 0.08912 0.0
N1003 N 0.64683 0.59447 0.15552 0.0
H1004 H 0.35388 0.66867 0.24881 0.0
H1005 H 0.42228 0.63838 0.05367 0.0
H1006 H 0.30415 0.71571 0.15898 0.0
H1007 H 0.44692 0.55924 0.13533 0.0
H1008 H 0.39025 0.67515 0.09576 0.0
H1009 H 0.39764 0.63497 0.21082 0.0
C1010 C 0.35223 0.67198 0.22126 0.0
C1011 C 0.32512 0.69473 0.20708 0.0
C1012 C 0.40293 0.64987 0.1046 0.0
C1013 C 0.37513 0.65735 0.16387 0.0
C1014 C 0.42136 0.62886 0.08055 0.0
C1015 C 0.43688 0.5954 0.09084 0.0
C1016 C 0.39968 0.63748 0.13937 0.0
C1017 C 0.43522 0.58481 0.12622 0.0
C1018 C 0.3771 0.65283 0.19969 0.0
C1019 C 0.32423 0.69818 0.17121 0.0
N1020 N 0.41647 0.60563 0.14928 0.0
N1021 N 0.34881 0.67989 0.15101 0.0
H1022 H 0.39858 0.34978 0.24043 0.0
H1023 H 0.3705 0.50562 0.09749 0.0
H1024 H 0.30211 0.41677 0.23063 0.0
H1025 H 0.46291 0.4309 0.1032 0.0
H1026 H 0.34936 0.48249 0.15438 0.0
H1027 H 0.42788 0.3908 0.20158 0.0
C1028 C 0.38398 0.3741 0.2315 0.0
C1029 C 0.34804 0.38003 0.23825 0.0
C1030 C 0.37435 0.47135 0.14321 0.0
C1031 C 0.38059 0.42585 0.19258 0.0
C1032 C 0.38623 0.48422 0.11054 0.0
C1033 C 0.41818 0.46971 0.09518 0.0
C1034 C 0.39455 0.44376 0.16059 0.0
C1035 C 0.43781 0.44253 0.11368 0.0
C1036 C 0.40049 0.3972 0.20881 0.0
C1037 C 0.32996 0.4115 0.22576 0.0
N1038 N 0.42556 0.43032 0.14527 0.0
N1039 N 0.34628 0.43291 0.20264 0.0
H1040 H 0.86769 0.74975 0.66997 0.0
H1041 H 0.88534 0.59068 0.55373 0.0
H1042 H 0.78619 0.68956 0.6593 0.0
H1043 H 0.97186 0.64153 0.56999 0.0
H1044 H 0.84634 0.63538 0.58252 0.0
H1045 H 0.90388 0.71823 0.62539 0.0
C1046 C 0.85724 0.73022 0.658 0.0
C1047 C 0.82397 0.72199 0.66872 0.0
C1048 C 0.87375 0.63731 0.57931 0.0
C1049 C 0.86516 0.68602 0.61763 0.0
C1050 C 0.89594 0.61196 0.56256 0.0
C1051 C 0.93171 0.61262 0.55947 0.0
C1052 C 0.88747 0.6632 0.59379 0.0
C1053 C 0.94432 0.64043 0.57163 0.0
C1054 C 0.87793 0.71224 0.63257 0.0
C1055 C 0.81179 0.69652 0.65222 0.0
N1056 N 0.92224 0.66439 0.58886 0.0
N1057 N 0.83241 0.67937 0.62775 0.0
H1058 H 0.34517 0.7603 0.6389 0.0
H1059 H 0.3861 0.9547 0.60026 0.0
H1060 H 0.30385 0.84542 0.69951 0.0
H1061 H 0.45796 0.86966 0.5624 0.0
H1062 H 0.34902 0.91412 0.62743 0.0
H1063 H 0.3808 0.79908 0.60255 0.0
C1064 C 0.34339 0.78707 0.64438 0.0
C1065 C 0.32163 0.79961 0.67238 0.0
C1066 C 0.37286 0.90416 0.61317 0.0
C1067 C 0.36167 0.84378 0.63101 0.0
C1068 C 0.39421 0.92742 0.59754 0.0
C1069 C 0.42575 0.9157 0.57944 0.0
C1070 C 0.38273 0.86857 0.61095 0.0
C1071 C 0.43409 0.8799 0.57636 0.0
C1072 C 0.36378 0.80905 0.62379 0.0
C1073 C 0.32039 0.83445 0.67844 0.0
N1074 N 0.41281 0.85747 0.59225 0.0
N1075 N 0.33995 0.85516 0.65798 0.0
H1076 H 0.19924 0.37509 0.71571 0.0
H1077 H 0.09663 0.40452 0.54544 0.0
H1078 H 0.19818 0.29631 0.64648 0.0
H1079 H 0.06553 0.46264 0.63394 0.0
H1080 H 0.14479 0.3724 0.57576 0.0
H1081 H 0.16098 0.41536 0.67913 0.0
C1082 C 0.1916 0.36657 0.69246 0.0
C1083 C 0.20162 0.33237 0.68415 0.0
C1084 C 0.12755 0.39241 0.58838 0.0
C1085 C 0.1583 0.37793 0.64242 0.0
C1086 C 0.10011 0.41078 0.57108 0.0
C1087 C 0.07668 0.43593 0.58738 0.0
C1088 C 0.13195 0.39962 0.62199 0.0
C1089 C 0.08262 0.44306 0.62062 0.0
C1090 C 0.16963 0.38938 0.67179 0.0
C1091 C 0.19077 0.32244 0.65392 0.0
N1092 N 0.10959 0.42494 0.63686 0.0
N1093 N 0.16968 0.34503 0.63422 0.0
H1094 H 0.60738 0.2117 0.65774 0.0
H1095 H 0.60118 0.06116 0.53528 0.0
H1096 H 0.69905 0.15636 0.60829 0.0
H1097 H 0.52043 0.09196 0.61361 0.0
H1098 H 0.63494 0.10342 0.55288 0.0
H1099 H 0.57201 0.17674 0.63093 0.0
C1100 C 0.61991 0.19284 0.64047 0.0
C1101 C 0.65603 0.18669 0.63521 0.0
C1102 C 0.60983 0.1008 0.56616 0.0
C1103 C 0.61612 0.14641 0.6051 0.0
C1104 C 0.59065 0.07662 0.55626 0.0
C1105 C 0.55814 0.07267 0.5733 0.0
C1106 C 0.59612 0.12152 0.59285 0.0
C1107 C 0.54559 0.09369 0.60008 0.0
C1108 C 0.59984 0.17264 0.62554 0.0
C1109 C 0.67119 0.16166 0.61301 0.0
N1110 N 0.56454 0.11726 0.60894 0.0
N1111 N 0.65117 0.14222 0.59892 0.0
H1112 H 0.79013 0.35698 0.4199 0.0
H1113 H 0.94183 0.47183 0.38471 0.0
H1114 H 0.81687 0.4103 0.322 0.0
H1115 H 0.90654 0.43412 0.48707 0.0
H1116 H 0.8914 0.45474 0.36292 0.0
H1117 H 0.8266 0.39066 0.44713 0.0
C1118 C 0.80284 0.37658 0.40443 0.0
C1119 C 0.8009 0.38088 0.36877 0.0
C1120 C 0.89439 0.45041 0.39022 0.0
C1121 C 0.84295 0.41865 0.3992 0.0
C1122 C 0.92335 0.45999 0.40263 0.0
C1123 C 0.92864 0.45386 0.43763 0.0
C1124 C 0.87076 0.4339 0.41284 0.0
C1125 C 0.90352 0.43904 0.45981 0.0
C1126 C 0.82381 0.39558 0.41984 0.0
C1127 C 0.81803 0.4062 0.34959 0.0
N1128 N 0.87588 0.42901 0.44695 0.0
N1129 N 0.83872 0.42378 0.36496 0.0
H1130 H 0.64003 0.77234 0.32087 0.0
H1131 H 0.63229 0.90581 0.46206 0.0
H1132 H 0.72897 0.80187 0.36139 0.0
H1133 H 0.54096 0.86922 0.43494 0.0
H1134 H 0.66807 0.86026 0.43161 0.0
H1135 H 0.60288 0.80069 0.36726 0.0
C1136 C 0.65174 0.78433 0.33971 0.0
C1137 C 0.68751 0.78545 0.33683 0.0
C1138 C 0.64022 0.86153 0.4328 0.0
C1139 C 0.64558 0.81748 0.38974 0.0
C1140 C 0.61988 0.88739 0.45045 0.0
C1141 C 0.58387 0.8909 0.45105 0.0
C1142 C 0.62438 0.83976 0.41461 0.0
C1143 C 0.5688 0.86687 0.43525 0.0
C1144 C 0.63061 0.80043 0.36616 0.0
C1145 C 0.70145 0.80105 0.36205 0.0
N1146 N 0.58917 0.84265 0.41697 0.0
N1147 N 0.68049 0.81664 0.38712 0.0
H1148 H 0.17837 0.66772 0.27671 0.0
H1149 H 0.07969 0.61624 0.45832 0.0
H1150 H 0.2038 0.70492 0.3698 0.0
H1151 H 0.08749 0.5578 0.36945 0.0
H1152 H 0.12012 0.65339 0.42694 0.0
H1153 H 0.14032 0.63136 0.31078 0.0
C1154 C 0.17615 0.66806 0.30443 0.0
C1155 C 0.19454 0.68932 0.32036 0.0
C1156 C 0.11291 0.63234 0.41451 0.0
C1157 C 0.15012 0.64785 0.35987 0.0
C1158 C 0.08966 0.61131 0.43228 0.0
C1159 C 0.08012 0.58372 0.41662 0.0
C1160 C 0.12613 0.62606 0.38067 0.0
C1161 C 0.09414 0.57847 0.38285 0.0
C1162 C 0.15432 0.64724 0.32394 0.0
C1163 C 0.19041 0.68865 0.35647 0.0
N1164 N 0.11611 0.5994 0.36614 0.0
N1165 N 0.16839 0.66847 0.37503 0.0
H1166 H 0.27844 0.13732 0.34263 0.0
H1167 H 0.47773 0.0801 0.36805 0.0
H1168 H 0.35768 0.19878 0.30092 0.0
H1169 H 0.40076 0.05959 0.45079 0.0
H1170 H 0.4325 0.11453 0.33581 0.0
H1171 H 0.32174 0.09977 0.37612 0.0
C1172 C 0.30485 0.14285 0.3405 0.0
C1173 C 0.31448 0.17127 0.31913 0.0
C1174 C 0.42552 0.10238 0.36098 0.0
C1175 C 0.36383 0.12833 0.35647 0.0
C1176 C 0.45126 0.08259 0.37935 0.0
C1177 C 0.44304 0.06705 0.41225 0.0
C1178 C 0.39111 0.10619 0.37521 0.0
C1179 C 0.40824 0.07136 0.4256 0.0
C1180 C 0.3294 0.12158 0.35963 0.0
C1181 C 0.34904 0.17734 0.31727 0.0
N1182 N 0.38342 0.09041 0.40694 0.0
N1183 N 0.37247 0.15591 0.33541 0.0
H1184 H 0.6503 0.80261 0.71131 0.0
H1185 H 0.60997 0.94235 0.55595 0.0
H1186 H 0.72945 0.86209 0.66497 0.0
H1187 H 0.53397 0.92303 0.63997 0.0
H1188 H 0.65487 0.90732 0.58908 0.0
H1189 H 0.60778 0.84029 0.67838 0.0
C1190 C 0.65879 0.82352 0.69404 0.0
C1191 C 0.6935 0.82922 0.69088 0.0
C1192 C 0.62836 0.91102 0.6002 0.0
C1193 C 0.64484 0.87229 0.65282 0.0
C1194 C 0.60275 0.93082 0.58133 0.0
C1195 C 0.56816 0.93563 0.59523 0.0
C1196 C 0.61911 0.89526 0.63275 0.0
C1197 C 0.56028 0.92019 0.62828 0.0
C1198 C 0.63444 0.84512 0.67542 0.0
C1199 C 0.70292 0.8569 0.66823 0.0
N1200 N 0.58545 0.90041 0.64571 0.0
N1201 N 0.67874 0.87729 0.64976 0.0
H1202 H 0.66529 0.24287 0.36794 0.0
H1203 H 0.6244 0.04866 0.40662 0.0
H1204 H 0.70366 0.15878 0.30504 0.0
H1205 H 0.55277 0.13341 0.44539 0.0
H1206 H 0.66085 0.08948 0.37867 0.0
H1207 H 0.63011 0.20398 0.40465 0.0
C1208 C 0.6665 0.2163 0.362 0.0
C1209 C 0.68735 0.20409 0.33331 0.0
C1210 C 0.6372 0.0993 0.39331 0.0
C1211 C 0.64783 0.15976 0.37511 0.0
C1212 C 0.61622 0.07592 0.40941 0.0
C1213 C 0.5849 0.0875 0.42799 0.0
C1214 C 0.62721 0.13487 0.39559 0.0
C1215 C 0.57646 0.12329 0.43108 0.0
C1216 C 0.64636 0.19426 0.38281 0.0
C1217 C 0.68786 0.1695 0.32668 0.0
N1218 N 0.59739 0.14583 0.41477 0.0
N1219 N 0.66859 0.14869 0.3474 0.0
H1220 H 0.807 0.70745 0.36312 0.0
H1221 H 0.94273 0.53878 0.37398 0.0
H1222 H 0.80658 0.62629 0.29654 0.0
H1223 H 0.91155 0.59848 0.46134 0.0
H1224 H 0.89365 0.57021 0.34484 0.0
H1225 H 0.84508 0.668 0.3995 0.0
C1226 C 0.81445 0.681 0.35658 0.0
C1227 C 0.80361 0.66999 0.32689 0.0
C1228 C 0.89732 0.57617 0.37051 0.0
C1229 C 0.84807 0.62497 0.36787 0.0
C1230 C 0.92547 0.55842 0.38711 0.0
C1231 C 0.93152 0.56629 0.42003 0.0
C1232 C 0.87538 0.60253 0.38661 0.0
C1233 C 0.90801 0.59168 0.43593 0.0
C1234 C 0.83621 0.65852 0.37734 0.0
C1235 C 0.81415 0.63561 0.31941 0.0
N1236 N 0.88131 0.60927 0.41885 0.0
N1237 N 0.83638 0.61443 0.33944 0.0
H1238 H 0.30681 0.84839 0.40413 0.0
H1239 H 0.48982 0.91251 0.39326 0.0
H1240 H 0.39841 0.79461 0.35306 0.0
H1241 H 0.40967 0.94199 0.47262 0.0
H1242 H 0.45532 0.87102 0.37659 0.0
H1243 H 0.34298 0.88333 0.42971 0.0
C1244 C 0.33467 0.84346 0.39901 0.0
C1245 C 0.3498 0.81869 0.37654 0.0
C1246 C 0.44529 0.8865 0.3977 0.0
C1247 C 0.39106 0.85906 0.40473 0.0
C1248 C 0.46478 0.91054 0.40699 0.0
C1249 C 0.45247 0.93106 0.4342 0.0
C1250 C 0.41297 0.88317 0.41537 0.0
C1251 C 0.42006 0.92686 0.45137 0.0
C1252 C 0.35523 0.86344 0.41346 0.0
C1253 C 0.38588 0.81331 0.37047 0.0
N1254 N 0.40128 0.90354 0.44149 0.0
N1255 N 0.4053 0.83377 0.38404 0.0
H1256 H 0.1406 0.2525 0.33741 0.0
H1257 H 0.12289 0.41143 0.45406 0.0
H1258 H 0.22234 0.31194 0.34938 0.0
H1259 H 0.03602 0.3616 0.43671 0.0
H1260 H 0.16174 0.36655 0.42539 0.0
H1261 H 0.10398 0.2844 0.38157 0.0
C1262 C 0.151 0.27193 0.34958 0.0
C1263 C 0.18447 0.27985 0.33935 0.0
C1264 C 0.13428 0.36488 0.42833 0.0
C1265 C 0.14284 0.31621 0.38993 0.0
C1266 C 0.11217 0.39034 0.445 0.0
C1267 C 0.07635 0.39001 0.4478 0.0
C1268 C 0.12046 0.33921 0.41359 0.0
C1269 C 0.0636 0.36243 0.43533 0.0
C1270 C 0.13007 0.29012 0.37475 0.0
C1271 C 0.1966 0.30521 0.35607 0.0
N1272 N 0.08562 0.33836 0.41818 0.0
N1273 N 0.17578 0.32253 0.38028 0.0
H1274 H 0.36598 0.23569 0.68011 0.0
H1275 H 0.378 0.09469 0.54558 0.0
H1276 H 0.27865 0.19819 0.64457 0.0
H1277 H 0.4676 0.13597 0.57045 0.0
H1278 H 0.34084 0.14058 0.57433 0.0
H1279 H 0.40352 0.20702 0.63421 0.0
C1280 C 0.35466 0.22195 0.66238 0.0
C1281 C 0.31931 0.21871 0.66657 0.0
C1282 C 0.3686 0.14024 0.57301 0.0
C1283 C 0.36171 0.18619 0.61424 0.0
C1284 C 0.38972 0.11415 0.55635 0.0
C1285 C 0.42567 0.11186 0.55565 0.0
C1286 C 0.38358 0.16352 0.59011 0.0
C1287 C 0.43983 0.1373 0.57027 0.0
C1288 C 0.37602 0.20562 0.63622 0.0
C1289 C 0.30586 0.20079 0.64282 0.0
N1290 N 0.41872 0.16177 0.58762 0.0
N1291 N 0.32707 0.18502 0.618 0.0
H1292 H 0.80095 0.29946 0.63836 0.0
H1293 H 0.92617 0.4428 0.63985 0.0
H1294 H 0.836 0.33107 0.72987 0.0
H1295 H 0.92499 0.38859 0.54941 0.0
H1296 H 0.88698 0.40609 0.67099 0.0
H1297 H 0.83971 0.33592 0.60328 0.0
C1298 C 0.81642 0.3143 0.65106 0.0
C1299 C 0.8151 0.31223 0.68717 0.0
C1300 C 0.89524 0.40199 0.64437 0.0
C1301 C 0.85937 0.35377 0.64731 0.0
C1302 C 0.91765 0.4231 0.62642 0.0
C1303 C 0.92902 0.41892 0.59181 0.0
C1304 C 0.88337 0.37639 0.6278 0.0
C1305 C 0.91711 0.3926 0.5761 0.0
C1306 C 0.83874 0.33481 0.63104 0.0
C1307 C 0.83607 0.33173 0.7022 0.0
N1308 N 0.89469 0.37245 0.59415 0.0
N1309 N 0.85707 0.35162 0.68231 0.0
H1310 H 0.21854 0.64608 0.58723 0.0
H1311 H 0.06675 0.53105 0.62265 0.0
H1312 H 0.19157 0.5931 0.68525 0.0
H1313 H 0.10157 0.56931 0.52033 0.0
H1314 H 0.11709 0.5484 0.64439 0.0
H1315 H 0.18181 0.61257 0.56011 0.0
C1316 C 0.20572 0.62659 0.60276 0.0
C1317 C 0.2077 0.62234 0.63842 0.0
C1318 C 0.11401 0.55281 0.61711 0.0
C1319 C 0.16535 0.58475 0.6081 0.0
C1320 C 0.0851 0.54307 0.60473 0.0
C1321 C 0.0797 0.54928 0.56976 0.0
C1322 C 0.13751 0.56949 0.59449 0.0
C1323 C 0.10467 0.56432 0.54757 0.0
C1324 C 0.1846 0.60769 0.58741 0.0
C1325 C 0.19041 0.59717 0.65765 0.0
N1326 N 0.13228 0.57445 0.5604 0.0
N1327 N 0.16959 0.57967 0.64234 0.0
loop_
_geom_bond_atom_site_label_1
_geom_bond_atom_site_label_2
_geom_bond_distance
_geom_bond_site_symmetry_2
_ccdc_geom_bond_type
C0 O16 1.251 . S
C0 O18 1.254 . S
N1 C2 1.333 . S
N1 C6 1.307 . S
N1 Zn7 2.020 . S
C2 N1 1.333 . S
C2 C3 1.379 . S
C2 H20 0.952 . S
C3 C2 1.379 . S
C3 C4 1.390 . S
C3 H30 0.949 . S
C4 C3 1.390 . S
C4 C5 1.357 . S
C5 C4 1.357 . S
C5 C6 1.370 . S
C5 H31 0.950 . S
C6 N1 1.307 . S
C6 C5 1.370 . S
C6 H24 0.948 . S
Zn7 N1 2.020 . S
Zn7 O16 2.039 . S
Zn7 O22 2.034 . S
Zn7 O26 2.025 . S
Zn7 O28 2.024 . S
C8 O27 1.246 . S
C8 O28 1.249 . S
N9 C10 1.307 . S
N9 C11 1.333 . S
N9 Zn15 2.020 . S
C10 N9 1.307 . S
C10 C14 1.370 . S
C10 H21 0.948 . S
C11 N9 1.333 . S
C11 C12 1.379 . S
C11 H19 0.952 . S
C12 C11 1.379 . S
C12 C13 1.390 . S
C12 H32 0.949 . S
C13 C12 1.390 . S
C13 C14 1.357 . S
C14 C10 1.370 . S
C14 C13 1.357 . S
C14 H33 0.950 . S
Zn15 N9 2.020 . S
Zn15 O18 2.025 . S
Zn15 O23 2.024 . S
Zn15 O25 2.039 . S
Zn15 O27 2.034 . S
O16 C0 1.251 . S
O16 Zn7 2.039 . S
C17 O22 1.246 . S
C17 O23 1.249 . S
O18 C0 1.254 . S
O18 Zn15 2.025 . S
H19 C11 0.952 . S
H20 C2 0.952 . S
H21 C10 0.948 . S
O22 Zn7 2.034 . S
O22 C17 1.246 . S
O23 Zn15 2.024 . S
O23 C17 1.249 . S
H24 C6 0.948 . S
O25 Zn15 2.039 . S
O25 C29 1.251 . S
O26 Zn7 2.025 . S
O26 C29 1.254 . S
O27 C8 1.246 . S
O27 Zn15 2.034 . S
O28 Zn7 2.024 . S
O28 C8 1.249 . S
C29 O25 1.251 . S
C29 O26 1.254 . S
H30 C3 0.949 . S
H31 C5 0.950 . S
H32 C12 0.949 . S
H33 C14 0.950 . S
C34 O50 1.251 . S
C34 O52 1.254 . S
N35 C36 1.333 . S
N35 C40 1.307 . S
N35 Zn41 2.020 . S
C36 N35 1.333 . S
C36 C37 1.379 . S
C36 H54 0.952 . S
C37 C36 1.379 . S
C37 C38 1.390 . S
C37 H64 0.949 . S
C38 C37 1.390 . S
C38 C39 1.357 . S
C39 C38 1.357 . S
C39 C40 1.370 . S
C39 H65 0.950 . S
C40 N35 1.307 . S
C40 C39 1.370 . S
C40 H58 0.948 . S
Zn41 N35 2.020 . S
Zn41 O50 2.039 . S
Zn41 O56 2.034 . S
Zn41 O60 2.025 . S
Zn41 O62 2.024 . S
C42 O61 1.246 . S
C42 O62 1.249 . S
N43 C44 1.307 . S
N43 C45 1.333 . S
N43 Zn49 2.020 . S
C44 N43 1.307 . S
C44 C48 1.370 . S
C44 H55 0.948 . S
C45 N43 1.333 . S
C45 C46 1.379 . S
C45 H53 0.952 . S
C46 C45 1.379 . S
C46 C47 1.390 . S
C46 H66 0.949 . S
C47 C46 1.390 . S
C47 C48 1.357 . S
C48 C44 1.370 . S
C48 C47 1.357 . S
C48 H67 0.950 . S
Zn49 N43 2.020 . S
Zn49 O52 2.025 . S
Zn49 O57 2.024 . S
Zn49 O59 2.039 . S
Zn49 O61 2.034 . S
O50 C34 1.251 . S
O50 Zn41 2.039 . S
C51 O56 1.246 . S
C51 O57 1.249 . S
O52 C34 1.254 . S
O52 Zn49 2.025 . S
H53 C45 0.952 . S
H54 C36 0.952 . S
H55 C44 0.948 . S
O56 Zn41 2.034 . S
O56 C51 1.246 . S
O57 Zn49 2.024 . S
O57 C51 1.249 . S
H58 C40 0.948 . S
O59 Zn49 2.039 . S
O59 C63 1.251 . S
O60 Zn41 2.025 . S
O60 C63 1.254 . S
O61 C42 1.246 . S
O61 Zn49 2.034 . S
O62 Zn41 2.024 . S
O62 C42 1.249 . S
C63 O59 1.251 . S
C63 O60 1.254 . S
H64 C37 0.949 . S
H65 C39 0.950 . S
H66 C46 0.949 . S
H67 C48 0.950 . S
C68 O84 1.251 . S
C68 O86 1.254 . S
N69 C70 1.333 . S
N69 C74 1.307 . S
N69 Zn75 2.020 . S
C70 N69 1.333 . S
C70 C71 1.379 . S
C70 H88 0.952 . S
C71 C70 1.379 . S
C71 C72 1.390 . S
C71 H98 0.949 . S
C72 C71 1.390 . S
C72 C73 1.357 . S
C73 C72 1.357 . S
C73 C74 1.370 . S
C73 H99 0.950 . S
C74 N69 1.307 . S
C74 C73 1.370 . S
C74 H92 0.948 . S
Zn75 N69 2.020 . S
Zn75 O84 2.039 . S
Zn75 O90 2.034 . S
Zn75 O94 2.025 . S
Zn75 O96 2.024 . S
C76 O95 1.246 . S
C76 O96 1.249 . S
N77 C78 1.307 . S
N77 C79 1.333 . S
N77 Zn83 2.020 . S
C78 N77 1.307 . S
C78 C82 1.370 . S
C78 H89 0.948 . S
C79 N77 1.333 . S
C79 C80 1.379 . S
C79 H87 0.952 . S
C80 C79 1.379 . S
C80 C81 1.390 . S
C80 H100 0.949 . S
C81 C80 1.390 . S
C81 C82 1.357 . S
C82 C78 1.370 . S
C82 C81 1.357 . S
C82 H101 0.950 . S
Zn83 N77 2.020 . S
Zn83 O86 2.025 . S
Zn83 O91 2.024 . S
Zn83 O93 2.039 . S
Zn83 O95 2.034 . S
O84 C68 1.251 . S
O84 Zn75 2.039 . S
C85 O90 1.246 . S
C85 O91 1.249 . S
O86 C68 1.254 . S
O86 Zn83 2.025 . S
H87 C79 0.952 . S
H88 C70 0.952 . S
H89 C78 0.948 . S
O90 Zn75 2.034 . S
O90 C85 1.246 . S
O91 Zn83 2.024 . S
O91 C85 1.249 . S
H92 C74 0.948 . S
O93 Zn83 2.039 . S
O93 C97 1.251 . S
O94 Zn75 2.025 . S
O94 C97 1.254 . S
O95 C76 1.246 . S
O95 Zn83 2.034 . S
O96 Zn75 2.024 . S
O96 C76 1.249 . S
C97 O93 1.251 . S
C97 O94 1.254 . S
H98 C71 0.949 . S
H99 C73 0.950 . S
H100 C80 0.949 . S
H101 C82 0.950 . S
C102 O118 1.251 . S
C102 O120 1.254 . S
N103 C104 1.333 . S
N103 C108 1.307 . S
N103 Zn109 2.020 . S
C104 N103 1.333 . S
C104 C105 1.379 . S
C104 H122 0.952 . S
C105 C104 1.379 . S
C105 C106 1.390 . S
C105 H132 0.949 . S
C106 C105 1.390 . S
C106 C107 1.357 . S
C107 C106 1.357 . S
C107 C108 1.370 . S
C107 H133 0.950 . S
C108 N103 1.307 . S
C108 C107 1.370 . S
C108 H126 0.948 . S
Zn109 N103 2.020 . S
Zn109 O118 2.039 . S
Zn109 O124 2.034 . S
Zn109 O128 2.025 . S
Zn109 O130 2.024 . S
C110 O129 1.246 . S
C110 O130 1.249 . S
N111 C112 1.307 . S
N111 C113 1.333 . S
N111 Zn117 2.020 . S
C112 N111 1.307 . S
C112 C116 1.370 . S
C112 H123 0.948 . S
C113 N111 1.333 . S
C113 C114 1.379 . S
C113 H121 0.952 . S
C114 C113 1.379 . S
C114 C115 1.390 . S
C114 H134 0.949 . S
C115 C114 1.390 . S
C115 C116 1.357 . S
C116 C112 1.370 . S
C116 C115 1.357 . S
C116 H135 0.950 . S
Zn117 N111 2.020 . S
Zn117 O120 2.025 . S
Zn117 O125 2.024 . S
Zn117 O127 2.039 . S
Zn117 O129 2.034 . S
O118 C102 1.251 . S
O118 Zn109 2.039 . S
C119 O124 1.246 . S
C119 O125 1.249 . S
O120 C102 1.254 . S
O120 Zn117 2.025 . S
H121 C113 0.952 . S
H122 C104 0.952 . S
H123 C112 0.948 . S
O124 Zn109 2.034 . S
O124 C119 1.246 . S
O125 Zn117 2.024 . S
O125 C119 1.249 . S
H126 C108 0.948 . S
O127 Zn117 2.039 . S
O127 C131 1.251 . S
O128 Zn109 2.025 . S
O128 C131 1.254 . S
O129 C110 1.246 . S
O129 Zn117 2.034 . S
O130 Zn109 2.024 . S
O130 C110 1.249 . S
C131 O127 1.251 . S
C131 O128 1.254 . S
H132 C105 0.949 . S
H133 C107 0.950 . S
H134 C114 0.949 . S
H135 C116 0.950 . S
C136 O152 1.251 . S
C136 O154 1.254 . S
N137 C138 1.333 . S
N137 C142 1.307 . S
N137 Zn143 2.020 . S
C138 N137 1.333 . S
C138 C139 1.379 . S
C138 H156 0.952 . S
C139 C138 1.379 . S
C139 C140 1.390 . S
C139 H166 0.949 . S
C140 C139 1.390 . S
C140 C141 1.357 . S
C141 C140 1.357 . S
C141 C142 1.370 . S
C141 H167 0.950 . S
C142 N137 1.307 . S
C142 C141 1.370 . S
C142 H160 0.948 . S
Zn143 N137 2.020 . S
Zn143 O152 2.039 . S
Zn143 O158 2.034 . S
Zn143 O162 2.025 . S
Zn143 O164 2.024 . S
C144 O163 1.246 . S
C144 O164 1.249 . S
N145 C146 1.307 . S
N145 C147 1.333 . S
N145 Zn151 2.020 . S
C146 N145 1.307 . S
C146 C150 1.370 . S
C146 H157 0.948 . S
C147 N145 1.333 . S
C147 C148 1.379 . S
C147 H155 0.952 . S
C148 C147 1.379 . S
C148 C149 1.390 . S
C148 H168 0.949 . S
C149 C148 1.390 . S
C149 C150 1.357 . S
C150 C146 1.370 . S
C150 C149 1.357 . S
C150 H169 0.950 . S
Zn151 N145 2.020 . S
Zn151 O154 2.025 . S
Zn151 O159 2.024 . S
Zn151 O161 2.039 . S
Zn151 O163 2.034 . S
O152 C136 1.251 . S
O152 Zn143 2.039 . S
C153 O158 1.246 . S
C153 O159 1.249 . S
O154 C136 1.254 . S
O154 Zn151 2.025 . S
H155 C147 0.952 . S
H156 C138 0.952 . S
H157 C146 0.948 . S
O158 Zn143 2.034 . S
O158 C153 1.246 . S
O159 Zn151 2.024 . S
O159 C153 1.249 . S
H160 C142 0.948 . S
O161 Zn151 2.039 . S
O161 C165 1.251 . S
O162 Zn143 2.025 . S
O162 C165 1.254 . S
O163 C144 1.246 . S
O163 Zn151 2.034 . S
O164 Zn143 2.024 . S
O164 C144 1.249 . S
C165 O161 1.251 . S
C165 O162 1.254 . S
H166 C139 0.949 . S
H167 C141 0.950 . S
H168 C148 0.949 . S
H169 C150 0.950 . S
C170 O186 1.251 . S
C170 O188 1.254 . S
N171 C172 1.333 . S
N171 C176 1.307 . S
N171 Zn177 2.020 . S
C172 N171 1.333 . S
C172 C173 1.379 . S
C172 H190 0.952 . S
C173 C172 1.379 . S
C173 C174 1.390 . S
C173 H200 0.949 . S
C174 C173 1.390 . S
C174 C175 1.357 . S
C175 C174 1.357 . S
C175 C176 1.370 . S
C175 H201 0.950 . S
C176 N171 1.307 . S
C176 C175 1.370 . S
C176 H194 0.948 . S
Zn177 N171 2.020 . S
Zn177 O186 2.039 . S
Zn177 O192 2.034 . S
Zn177 O196 2.025 . S
Zn177 O198 2.024 . S
C178 O197 1.246 . S
C178 O198 1.249 . S
N179 C180 1.307 . S
N179 C181 1.333 . S
N179 Zn185 2.020 . S
C180 N179 1.307 . S
C180 C184 1.370 . S
C180 H191 0.948 . S
C181 N179 1.333 . S
C181 C182 1.379 . S
C181 H189 0.952 . S
C182 C181 1.379 . S
C182 C183 1.390 . S
C182 H202 0.949 . S
C183 C182 1.390 . S
C183 C184 1.357 . S
C184 C180 1.370 . S
C184 C183 1.357 . S
C184 H203 0.950 . S
Zn185 N179 2.020 . S
Zn185 O188 2.025 . S
Zn185 O193 2.024 . S
Zn185 O195 2.039 . S
Zn185 O197 2.034 . S
O186 C170 1.251 . S
O186 Zn177 2.039 . S
C187 O192 1.246 . S
C187 O193 1.249 . S
O188 C170 1.254 . S
O188 Zn185 2.025 . S
H189 C181 0.952 . S
H190 C172 0.952 . S
H191 C180 0.948 . S
O192 Zn177 2.034 . S
O192 C187 1.246 . S
O193 Zn185 2.024 . S
O193 C187 1.249 . S
H194 C176 0.948 . S
O195 Zn185 2.039 . S
O195 C199 1.251 . S
O196 Zn177 2.025 . S
O196 C199 1.254 . S
O197 C178 1.246 . S
O197 Zn185 2.034 . S
O198 Zn177 2.024 . S
O198 C178 1.249 . S
C199 O195 1.251 . S
C199 O196 1.254 . S
H200 C173 0.949 . S
H201 C175 0.950 . S
H202 C182 0.949 . S
H203 C184 0.950 . S
C204 O220 1.251 . S
C204 O222 1.254 . S
N205 C206 1.333 . S
N205 C210 1.307 . S
N205 Zn211 2.020 . S
C206 N205 1.333 . S
C206 C207 1.379 . S
C206 H224 0.952 . S
C207 C206 1.379 . S
C207 C208 1.390 . S
C207 H234 0.949 . S
C208 C207 1.390 . S
C208 C209 1.357 . S
C209 C208 1.357 . S
C209 C210 1.370 . S
C209 H235 0.950 . S
C210 N205 1.307 . S
C210 C209 1.370 . S
C210 H228 0.948 . S
Zn211 N205 2.020 . S
Zn211 O220 2.039 . S
Zn211 O226 2.034 . S
Zn211 O230 2.025 . S
Zn211 O232 2.024 . S
C212 O231 1.246 . S
C212 O232 1.249 . S
N213 C214 1.307 . S
N213 C215 1.333 . S
N213 Zn219 2.020 . S
C214 N213 1.307 . S
C214 C218 1.370 . S
C214 H225 0.948 . S
C215 N213 1.333 . S
C215 C216 1.379 . S
C215 H223 0.952 . S
C216 C215 1.379 . S
C216 C217 1.390 . S
C216 H236 0.949 . S
C217 C216 1.390 . S
C217 C218 1.357 . S
C218 C214 1.370 . S
C218 C217 1.357 . S
C218 H237 0.950 . S
Zn219 N213 2.020 . S
Zn219 O222 2.025 . S
Zn219 O227 2.024 . S
Zn219 O229 2.039 . S
Zn219 O231 2.034 . S
O220 C204 1.251 . S
O220 Zn211 2.039 . S
C221 O226 1.246 . S
C221 O227 1.249 . S
O222 C204 1.254 . S
O222 Zn219 2.025 . S
H223 C215 0.952 . S
H224 C206 0.952 . S
H225 C214 0.948 . S
O226 Zn211 2.034 . S
O226 C221 1.246 . S
O227 Zn219 2.024 . S
O227 C221 1.249 . S
H228 C210 0.948 . S
O229 Zn219 2.039 . S
O229 C233 1.251 . S
O230 Zn211 2.025 . S
O230 C233 1.254 . S
O231 C212 1.246 . S
O231 Zn219 2.034 . S
O232 Zn211 2.024 . S
O232 C212 1.249 . S
C233 O229 1.251 . S
C233 O230 1.254 . S
H234 C207 0.949 . S
H235 C209 0.950 . S
H236 C216 0.949 . S
H237 C218 0.950 . S
C238 O254 1.251 . S
C238 O256 1.254 . S
N239 C240 1.333 . S
N239 C244 1.307 . S
N239 Zn245 2.020 . S
C240 N239 1.333 . S
C240 C241 1.379 . S
C240 H258 0.952 . S
C241 C240 1.379 . S
C241 C242 1.390 . S
C241 H268 0.949 . S
C242 C241 1.390 . S
C242 C243 1.357 . S
C243 C242 1.357 . S
C243 C244 1.370 . S
C243 H269 0.950 . S
C244 N239 1.307 . S
C244 C243 1.370 . S
C244 H262 0.948 . S
Zn245 N239 2.020 . S
Zn245 O254 2.039 . S
Zn245 O260 2.034 . S
Zn245 O264 2.025 . S
Zn245 O266 2.024 . S
C246 O265 1.246 . S
C246 O266 1.249 . S
N247 C248 1.307 . S
N247 C249 1.333 . S
N247 Zn253 2.020 . S
C248 N247 1.307 . S
C248 C252 1.370 . S
C248 H259 0.948 . S
C249 N247 1.333 . S
C249 C250 1.379 . S
C249 H257 0.952 . S
C250 C249 1.379 . S
C250 C251 1.390 . S
C250 H270 0.949 . S
C251 C250 1.390 . S
C251 C252 1.357 . S
C252 C248 1.370 . S
C252 C251 1.357 . S
C252 H271 0.950 . S
Zn253 N247 2.020 . S
Zn253 O256 2.025 . S
Zn253 O261 2.024 . S
Zn253 O263 2.039 . S
Zn253 O265 2.034 . S
O254 C238 1.251 . S
O254 Zn245 2.039 . S
C255 O260 1.246 . S
C255 O261 1.249 . S
O256 C238 1.254 . S
O256 Zn253 2.025 . S
H257 C249 0.952 . S
H258 C240 0.952 . S
H259 C248 0.948 . S
O260 Zn245 2.034 . S
O260 C255 1.246 . S
O261 Zn253 2.024 . S
O261 C255 1.249 . S
H262 C244 0.948 . S
O263 Zn253 2.039 . S
O263 C267 1.251 . S
O264 Zn245 2.025 . S
O264 C267 1.254 . S
O265 C246 1.246 . S
O265 Zn253 2.034 . S
O266 Zn245 2.024 . S
O266 C246 1.249 . S
C267 O263 1.251 . S
C267 O264 1.254 . S
H268 C241 0.949 . S
H269 C243 0.950 . S
H270 C250 0.949 . S
H271 C252 0.950 . S
Fe272 O273 1.886 . S
Fe272 O276 1.715 1_655 S
Fe272 O281 2.077 . S
Fe272 O286 1.935 1_655 S
Fe272 O292 2.077 . S
Fe272 O301 1.935 1_655 S
O273 Fe272 1.886 . S
O273 Fe275 1.715 . S
Fe274 O276 1.886 1_565 S
Fe274 O277 1.715 . S
Fe274 O284 1.935 . S
Fe274 O285 2.077 1_565 S
Fe274 O291 1.935 . S
Fe274 O300 2.077 1_565 S
Fe275 O273 1.715 . S
Fe275 O278 1.886 1_545 S
Fe275 O282 1.935 . S
Fe275 O287 2.077 1_545 S
Fe275 O293 1.935 . S
Fe275 O297 2.077 1_545 S
O276 Fe272 1.715 1_455 S
O276 Fe274 1.886 1_545 S
O277 Fe274 1.715 . S
O277 Fe279 1.886 . S
O278 Fe275 1.886 1_565 S
O278 Fe279 1.715 1_655 S
Fe279 O277 1.886 . S
Fe279 O278 1.715 1_455 S
Fe279 O283 2.077 . S
Fe279 O288 1.935 1_455 S
Fe279 O290 2.077 . S
Fe279 O298 1.935 1_455 S
C280 O292 1.381 . S
C280 O293 1.421 . S
O281 Fe272 2.077 . S
O281 C294 1.381 . S
O282 Fe275 1.935 . S
O282 C294 1.421 . S
O283 Fe279 2.077 . S
O283 C299 1.381 . S
O284 Fe274 1.935 . S
O284 C299 1.421 . S
O285 Fe274 2.077 1_545 S
O285 C289 1.381 . S
O286 Fe272 1.935 1_455 S
O286 C289 1.421 . S
O287 Fe275 2.077 1_565 S
O287 C295 1.381 . S
O288 Fe279 1.935 1_655 S
O288 C295 1.421 . S
C289 O285 1.381 . S
C289 O286 1.421 . S
O290 Fe279 2.077 . S
O290 C302 1.381 . S
O291 Fe274 1.935 . S
O291 C302 1.421 . S
O292 Fe272 2.077 . S
O292 C280 1.381 . S
O293 Fe275 1.935 . S
O293 C280 1.421 . S
C294 O281 1.381 . S
C294 O282 1.421 . S
C295 O287 1.381 . S
C295 O288 1.421 . S
C296 O297 1.381 . S
C296 O298 1.421 . S
O297 Fe275 2.077 1_565 S
O297 C296 1.381 . S
O298 Fe279 1.935 1_655 S
O298 C296 1.421 . S
C299 O283 1.381 . S
C299 O284 1.421 . S
O300 Fe274 2.077 1_545 S
O300 C303 1.381 . S
O301 Fe272 1.935 1_455 S
O301 C303 1.421 . S
C302 O290 1.381 . S
C302 O291 1.421 . S
C303 O300 1.381 . S
C303 O301 1.421 . S
Fe304 O305 1.885 1_554 S
Fe304 O308 1.715 . S
Fe304 O313 2.077 1_554 S
Fe304 O318 1.935 1_554 S
Fe304 O324 2.077 . S
Fe304 O333 1.935 . S
O305 Fe304 1.885 1_556 S
O305 Fe307 1.715 . S
Fe306 O308 1.886 1_545 S
Fe306 O309 1.715 . S
Fe306 O316 1.935 1_554 S
Fe306 O317 2.077 1_544 S
Fe306 O323 1.935 . S
Fe306 O332 2.077 1_545 S
Fe307 O305 1.715 . S
Fe307 O310 1.886 1_565 S
Fe307 O314 1.935 . S
Fe307 O319 2.077 1_565 S
Fe307 O325 1.935 1_556 S
Fe307 O329 2.077 1_566 S
O308 Fe304 1.715 . S
O308 Fe306 1.886 1_565 S
O309 Fe306 1.715 . S
O309 Fe311 1.886 1_554 S
O310 Fe307 1.886 1_545 S
O310 Fe311 1.715 . S
Fe311 O309 1.886 1_556 S
Fe311 O310 1.715 . S
Fe311 O315 2.077 . S
Fe311 O320 1.935 . S
Fe311 O322 2.077 1_556 S
Fe311 O330 1.935 1_556 S
C312 O324 1.381 . S
C312 O325 1.421 . S
O313 Fe304 2.077 1_556 S
O313 C326 1.381 . S
O314 Fe307 1.935 . S
O314 C326 1.421 . S
O315 Fe311 2.077 . S
O315 C331 1.381 . S
O316 Fe306 1.935 1_556 S
O316 C331 1.421 . S
O317 Fe306 2.077 1_566 S
O317 C321 1.381 . S
O318 Fe304 1.935 1_556 S
O318 C321 1.421 . S
O319 Fe307 2.077 1_545 S
O319 C327 1.381 . S
O320 Fe311 1.935 . S
O320 C327 1.421 . S
C321 O317 1.381 . S
C321 O318 1.421 . S
O322 Fe311 2.077 1_554 S
O322 C334 1.381 . S
O323 Fe306 1.935 . S
O323 C334 1.421 . S
O324 Fe304 2.077 . S
O324 C312 1.381 . S
O325 Fe307 1.935 1_554 S
O325 C312 1.421 . S
C326 O313 1.381 . S
C326 O314 1.421 . S
C327 O319 1.381 . S
C327 O320 1.421 . S
C328 O329 1.381 . S
C328 O330 1.421 . S
O329 Fe307 2.077 1_544 S
O329 C328 1.381 . S
O330 Fe311 1.935 1_554 S
O330 C328 1.421 . S
C331 O315 1.381 . S
C331 O316 1.421 . S
O332 Fe306 2.077 1_565 S
O332 C335 1.381 . S
O333 Fe304 1.935 . S
O333 C335 1.421 . S
C334 O322 1.381 . S
C334 O323 1.421 . S
C335 O332 1.381 . S
C335 O333 1.421 . S
Fe336 O337 1.886 1_556 S
Fe336 O340 1.715 1_655 S
Fe336 O345 2.077 . S
Fe336 O350 1.935 1_655 S
Fe336 O356 2.077 1_556 S
Fe336 O365 1.935 1_656 S
O337 Fe336 1.886 1_554 S
O337 Fe339 1.715 . S
Fe338 O340 1.886 . S
Fe338 O341 1.715 . S
Fe338 O348 1.935 . S
Fe338 O349 2.077 . S
Fe338 O355 1.935 1_556 S
Fe338 O364 2.077 1_556 S
Fe339 O337 1.715 . S
Fe339 O342 1.886 . S
Fe339 O346 1.935 1_554 S
Fe339 O351 2.077 1_554 S
Fe339 O357 1.935 . S
Fe339 O361 2.077 . S
O340 Fe336 1.715 1_455 S
O340 Fe338 1.886 . S
O341 Fe338 1.715 . S
O341 Fe343 1.885 1_556 S
O342 Fe339 1.886 . S
O342 Fe343 1.715 1_655 S
Fe343 O341 1.885 1_554 S
Fe343 O342 1.715 1_455 S
Fe343 O347 2.077 1_554 S
Fe343 O352 1.935 1_454 S
Fe343 O354 2.077 . S
Fe343 O362 1.935 1_455 S
C344 O356 1.381 . S
C344 O357 1.421 . S
O345 Fe336 2.077 . S
O345 C358 1.381 . S
O346 Fe339 1.935 1_556 S
O346 C358 1.421 . S
O347 Fe343 2.077 1_556 S
O347 C363 1.381 . S
O348 Fe338 1.935 . S
O348 C363 1.421 . S
O349 Fe338 2.077 . S
O349 C353 1.381 . S
O350 Fe336 1.935 1_455 S
O350 C353 1.421 . S
O351 Fe339 2.077 1_556 S
O351 C359 1.381 . S
O352 Fe343 1.935 1_656 S
O352 C359 1.421 . S
C353 O349 1.381 . S
C353 O350 1.421 . S
O354 Fe343 2.077 . S
O354 C366 1.381 . S
O355 Fe338 1.935 1_554 S
O355 C366 1.421 . S
O356 Fe336 2.077 1_554 S
O356 C344 1.381 . S
O357 Fe339 1.935 . S
O357 C344 1.421 . S
C358 O345 1.381 . S
C358 O346 1.421 . S
C359 O351 1.381 . S
C359 O352 1.421 . S
C360 O361 1.381 . S
C360 O362 1.421 . S
O361 Fe339 2.077 . S
O361 C360 1.381 . S
O362 Fe343 1.935 1_655 S
O362 C360 1.421 . S
C363 O347 1.381 . S
C363 O348 1.421 . S
O364 Fe338 2.077 1_554 S
O364 C367 1.381 . S
O365 Fe336 1.935 1_454 S
O365 C367 1.421 . S
C366 O354 1.381 . S
C366 O355 1.421 . S
C367 O364 1.381 . S
C367 O365 1.421 . S
Fe368 O369 1.886 . S
Fe368 O372 1.715 . S
Fe368 O377 2.077 . S
Fe368 O382 1.935 . S
Fe368 O388 2.077 . S
Fe368 O397 1.935 . S
O369 Fe368 1.886 . S
O369 Fe371 1.715 . S
Fe370 O372 1.886 1_554 S
Fe370 O373 1.715 . S
Fe370 O380 1.935 . S
Fe370 O381 2.077 1_554 S
Fe370 O387 1.935 . S
Fe370 O396 2.077 1_554 S
Fe371 O369 1.715 . S
Fe371 O374 1.886 1_556 S
Fe371 O378 1.935 . S
Fe371 O383 2.077 1_556 S
Fe371 O389 1.935 . S
Fe371 O393 2.077 1_556 S
O372 Fe368 1.715 . S
O372 Fe370 1.886 1_556 S
O373 Fe370 1.715 . S
O373 Fe375 1.886 . S
O374 Fe371 1.886 1_554 S
O374 Fe375 1.715 . S
Fe375 O373 1.886 . S
Fe375 O374 1.715 . S
Fe375 O379 2.077 . S
Fe375 O384 1.935 . S
Fe375 O386 2.077 . S
Fe375 O394 1.935 . S
C376 O388 1.381 . S
C376 O389 1.421 . S
O377 Fe368 2.077 . S
O377 C390 1.381 . S
O378 Fe371 1.935 . S
O378 C390 1.421 . S
O379 Fe375 2.077 . S
O379 C395 1.381 . S
O380 Fe370 1.935 . S
O380 C395 1.421 . S
O381 Fe370 2.077 1_556 S
O381 C385 1.381 . S
O382 Fe368 1.935 . S
O382 C385 1.421 . S
O383 Fe371 2.077 1_554 S
O383 C391 1.381 . S
O384 Fe375 1.935 . S
O384 C391 1.421 . S
C385 O381 1.381 . S
C385 O382 1.421 . S
O386 Fe375 2.077 . S
O386 C398 1.381 . S
O387 Fe370 1.935 . S
O387 C398 1.421 . S
O388 Fe368 2.077 . S
O388 C376 1.381 . S
O389 Fe371 1.935 . S
O389 C376 1.421 . S
C390 O377 1.381 . S
C390 O378 1.421 . S
C391 O383 1.381 . S
C391 O384 1.421 . S
C392 O393 1.381 . S
C392 O394 1.421 . S
O393 Fe371 2.077 1_554 S
O393 C392 1.381 . S
O394 Fe375 1.935 . S
O394 C392 1.421 . S
C395 O379 1.381 . S
C395 O380 1.421 . S
O396 Fe370 2.077 1_556 S
O396 C399 1.381 . S
O397 Fe368 1.935 . S
O397 C399 1.421 . S
C398 O386 1.381 . S
C398 O387 1.421 . S
C399 O396 1.381 . S
C399 O397 1.421 . S
Fe400 O401 1.886 . S
Fe400 O404 1.715 . S
Fe400 O409 2.077 . S
Fe400 O414 1.935 . S
Fe400 O420 2.077 1_455 S
Fe400 O429 1.935 1_455 S
O401 Fe400 1.886 . S
O401 Fe403 1.715 1_455 S
Fe402 O404 1.886 . S
Fe402 O405 1.715 1_455 S
Fe402 O412 1.935 . S
Fe402 O413 2.077 . S
Fe402 O419 1.935 1_455 S
Fe402 O428 2.077 1_455 S
Fe403 O401 1.715 1_655 S
Fe403 O406 1.886 . S
Fe403 O410 1.935 1_655 S
Fe403 O415 2.077 1_655 S
Fe403 O421 1.935 . S
Fe403 O425 2.077 . S
O404 Fe400 1.715 . S
O404 Fe402 1.886 . S
O405 Fe402 1.715 1_655 S
O405 Fe407 1.886 . S
O406 Fe403 1.886 . S
O406 Fe407 1.715 . S
Fe407 O405 1.886 . S
Fe407 O406 1.715 . S
Fe407 O411 2.077 1_655 S
Fe407 O416 1.935 1_655 S
Fe407 O418 2.077 . S
Fe407 O426 1.935 . S
C408 O420 1.381 . S
C408 O421 1.421 . S
O409 Fe400 2.077 . S
O409 C422 1.381 . S
O410 Fe403 1.935 1_455 S
O410 C422 1.421 . S
O411 Fe407 2.077 1_455 S
O411 C427 1.381 . S
O412 Fe402 1.935 . S
O412 C427 1.421 . S
O413 Fe402 2.077 . S
O413 C417 1.381 . S
O414 Fe400 1.935 . S
O414 C417 1.421 . S
O415 Fe403 2.077 1_455 S
O415 C423 1.381 . S
O416 Fe407 1.935 1_455 S
O416 C423 1.421 . S
C417 O413 1.381 . S
C417 O414 1.421 . S
O418 Fe407 2.077 . S
O418 C430 1.381 . S
O419 Fe402 1.935 1_655 S
O419 C430 1.421 . S
O420 Fe400 2.077 1_655 S
O420 C408 1.381 . S
O421 Fe403 1.935 . S
O421 C408 1.421 . S
C422 O409 1.381 . S
C422 O410 1.421 . S
C423 O415 1.381 . S
C423 O416 1.421 . S
C424 O425 1.381 . S
C424 O426 1.421 . S
O425 Fe403 2.077 . S
O425 C424 1.381 . S
O426 Fe407 1.935 . S
O426 C424 1.421 . S
C427 O411 1.381 . S
C427 O412 1.421 . S
O428 Fe402 2.077 1_655 S
O428 C431 1.381 . S
O429 Fe400 1.935 1_655 S
O429 C431 1.421 . S
C430 O418 1.381 . S
C430 O419 1.421 . S
C431 O428 1.381 . S
C431 O429 1.421 . S
Fe432 O433 1.886 . S
Fe432 O436 1.715 . S
Fe432 O441 2.077 . S
Fe432 O446 1.935 . S
Fe432 O452 2.077 . S
Fe432 O461 1.935 . S
O433 Fe432 1.886 . S
O433 Fe435 1.715 . S
Fe434 O436 1.886 1_545 S
Fe434 O437 1.715 . S
Fe434 O444 1.935 . S
Fe434 O445 2.077 1_545 S
Fe434 O451 1.935 . S
Fe434 O460 2.077 1_545 S
Fe435 O433 1.715 . S
Fe435 O438 1.886 1_565 S
Fe435 O442 1.935 . S
Fe435 O447 2.077 1_565 S
Fe435 O453 1.935 . S
Fe435 O457 2.077 1_565 S
O436 Fe432 1.715 . S
O436 Fe434 1.886 1_565 S
O437 Fe434 1.715 . S
O437 Fe439 1.886 . S
O438 Fe435 1.886 1_545 S
O438 Fe439 1.715 . S
Fe439 O437 1.886 . S
Fe439 O438 1.715 . S
Fe439 O443 2.077 . S
Fe439 O448 1.935 . S
Fe439 O450 2.077 . S
Fe439 O458 1.935 . S
C440 O452 1.381 . S
C440 O453 1.421 . S
O441 Fe432 2.077 . S
O441 C454 1.381 . S
O442 Fe435 1.935 . S
O442 C454 1.421 . S
O443 Fe439 2.077 . S
O443 C459 1.381 . S
O444 Fe434 1.935 . S
O444 C459 1.421 . S
O445 Fe434 2.077 1_565 S
O445 C449 1.381 . S
O446 Fe432 1.935 . S
O446 C449 1.421 . S
O447 Fe435 2.077 1_545 S
O447 C455 1.381 . S
O448 Fe439 1.935 . S
O448 C455 1.421 . S
C449 O445 1.381 . S
C449 O446 1.421 . S
O450 Fe439 2.077 . S
O450 C462 1.381 . S
O451 Fe434 1.935 . S
O451 C462 1.421 . S
O452 Fe432 2.077 . S
O452 C440 1.381 . S
O453 Fe435 1.935 . S
O453 C440 1.421 . S
C454 O441 1.381 . S
C454 O442 1.421 . S
C455 O447 1.381 . S
C455 O448 1.421 . S
C456 O457 1.381 . S
C456 O458 1.421 . S
O457 Fe435 2.077 1_545 S
O457 C456 1.381 . S
O458 Fe439 1.935 . S
O458 C456 1.421 . S
C459 O443 1.381 . S
C459 O444 1.421 . S
O460 Fe434 2.077 1_565 S
O460 C463 1.381 . S
O461 Fe432 1.935 . S
O461 C463 1.421 . S
C462 O450 1.381 . S
C462 O451 1.421 . S
C463 O460 1.381 . S
C463 O461 1.421 . S
H464 C470 0.930 . S
H465 C474 0.930 . S
H466 C479 0.929 . S
H467 C477 0.929 . S
H468 C472 0.929 . S
H469 C478 0.929 . S
C470 H464 0.930 . S
C470 C471 1.367 . S
C470 C478 1.378 . S
C471 C470 1.367 . S
C471 C479 1.433 . S
C472 H468 0.929 . S
C472 C474 1.378 . S
C472 C476 1.350 . S
C473 C476 1.463 . S
C473 C478 1.350 . S
C473 N481 1.427 . S
C474 H465 0.930 . S
C474 C472 1.378 . S
C474 C475 1.367 . S
C475 C474 1.367 . S
C475 C477 1.433 . S
C476 C472 1.350 . S
C476 C473 1.463 . S
C476 N480 1.427 . S
C477 H467 0.929 . S
C477 C475 1.433 . S
C477 N480 1.384 . S
C478 H469 0.929 . S
C478 C470 1.378 . S
C478 C473 1.350 . S
C479 H466 0.929 . S
C479 C471 1.433 . S
C479 N481 1.384 . S
N480 C476 1.427 . S
N480 C477 1.384 . S
N481 C473 1.427 . S
N481 C479 1.384 . S
H482 C488 0.930 . S
H483 C492 0.930 . S
H484 C497 0.929 . S
H485 C495 0.929 . S
H486 C490 0.929 . S
H487 C496 0.929 . S
C488 H482 0.930 . S
C488 C489 1.367 . S
C488 C496 1.378 . S
C489 C488 1.367 . S
C489 C497 1.433 . S
C490 H486 0.929 . S
C490 C492 1.378 . S
C490 C494 1.350 . S
C491 C494 1.463 . S
C491 C496 1.350 . S
C491 N499 1.427 . S
C492 H483 0.930 . S
C492 C490 1.378 . S
C492 C493 1.367 . S
C493 C492 1.367 . S
C493 C495 1.433 . S
C494 C490 1.350 . S
C494 C491 1.463 . S
C494 N498 1.427 . S
C495 H485 0.929 . S
C495 C493 1.433 . S
C495 N498 1.384 . S
C496 H487 0.929 . S
C496 C488 1.378 . S
C496 C491 1.350 . S
C497 H484 0.929 . S
C497 C489 1.433 . S
C497 N499 1.384 . S
N498 C494 1.427 . S
N498 C495 1.384 . S
N499 C491 1.427 . S
N499 C497 1.384 . S
H500 C506 0.930 . S
H501 C510 0.930 . S
H502 C515 0.929 . S
H503 C513 0.929 . S
H504 C508 0.929 . S
H505 C514 0.929 . S
C506 H500 0.930 . S
C506 C507 1.367 . S
C506 C514 1.378 . S
C507 C506 1.367 . S
C507 C515 1.433 . S
C508 H504 0.929 . S
C508 C510 1.378 . S
C508 C512 1.350 . S
C509 C512 1.463 . S
C509 C514 1.350 . S
C509 N517 1.427 . S
C510 H501 0.930 . S
C510 C508 1.378 . S
C510 C511 1.367 . S
C511 C510 1.367 . S
C511 C513 1.433 . S
C512 C508 1.350 . S
C512 C509 1.463 . S
C512 N516 1.427 . S
C513 H503 0.929 . S
C513 C511 1.433 . S
C513 N516 1.384 . S
C514 H505 0.929 . S
C514 C506 1.378 . S
C514 C509 1.350 . S
C515 H502 0.929 . S
C515 C507 1.433 . S
C515 N517 1.384 . S
N516 C512 1.427 . S
N516 C513 1.384 . S
N517 C509 1.427 . S
N517 C515 1.384 . S
H518 C524 0.930 . S
H519 C528 0.930 . S
H520 C533 0.929 . S
H521 C531 0.929 . S
H522 C526 0.929 . S
H523 C532 0.929 . S
C524 H518 0.930 . S
C524 C525 1.367 . S
C524 C532 1.378 . S
C525 C524 1.367 . S
C525 C533 1.433 . S
C526 H522 0.929 . S
C526 C528 1.378 . S
C526 C530 1.350 . S
C527 C530 1.463 . S
C527 C532 1.350 . S
C527 N535 1.427 . S
C528 H519 0.930 . S
C528 C526 1.378 . S
C528 C529 1.367 . S
C529 C528 1.367 . S
C529 C531 1.433 . S
C530 C526 1.350 . S
C530 C527 1.463 . S
C530 N534 1.427 . S
C531 H521 0.929 . S
C531 C529 1.433 . S
C531 N534 1.384 . S
C532 H523 0.929 . S
C532 C524 1.378 . S
C532 C527 1.350 . S
C533 H520 0.929 . S
C533 C525 1.433 . S
C533 N535 1.384 . S
N534 C530 1.427 . S
N534 C531 1.384 . S
N535 C527 1.427 . S
N535 C533 1.384 . S
H536 C542 0.930 . S
H537 C546 0.930 . S
H538 C551 0.929 . S
H539 C549 0.929 . S
H540 C544 0.929 . S
H541 C550 0.929 . S
C542 H536 0.930 . S
C542 C543 1.367 . S
C542 C550 1.378 . S
C543 C542 1.367 . S
C543 C551 1.433 . S
C544 H540 0.929 . S
C544 C546 1.378 . S
C544 C548 1.350 . S
C545 C548 1.463 . S
C545 C550 1.350 . S
C545 N553 1.427 . S
C546 H537 0.930 . S
C546 C544 1.378 . S
C546 C547 1.367 . S
C547 C546 1.367 . S
C547 C549 1.433 . S
C548 C544 1.350 . S
C548 C545 1.463 . S
C548 N552 1.427 . S
C549 H539 0.929 . S
C549 C547 1.433 . S
C549 N552 1.384 . S
C550 H541 0.929 . S
C550 C542 1.378 . S
C550 C545 1.350 . S
C551 H538 0.929 . S
C551 C543 1.433 . S
C551 N553 1.384 . S
N552 C548 1.427 . S
N552 C549 1.384 . S
N553 C545 1.427 . S
N553 C551 1.384 . S
H554 C560 0.930 . S
H555 C564 0.930 . S
H556 C569 0.929 . S
H557 C567 0.929 . S
H558 C562 0.929 . S
H559 C568 0.929 . S
C560 H554 0.930 . S
C560 C561 1.367 . S
C560 C568 1.378 . S
C561 C560 1.367 . S
C561 C569 1.433 . S
C562 H558 0.929 . S
C562 C564 1.378 . S
C562 C566 1.350 . S
C563 C566 1.463 . S
C563 C568 1.350 . S
C563 N571 1.427 . S
C564 H555 0.930 . S
C564 C562 1.378 . S
C564 C565 1.367 . S
C565 C564 1.367 . S
C565 C567 1.433 . S
C566 C562 1.350 . S
C566 C563 1.463 . S
C566 N570 1.427 . S
C567 H557 0.929 . S
C567 C565 1.433 . S
C567 N570 1.384 . S
C568 H559 0.929 . S
C568 C560 1.378 . S
C568 C563 1.350 . S
C569 H556 0.929 . S
C569 C561 1.433 . S
C569 N571 1.384 . S
N570 C566 1.427 . S
N570 C567 1.384 . S
N571 C563 1.427 . S
N571 C569 1.384 . S
H572 C578 0.930 . S
H573 C582 0.930 . S
H574 C587 0.929 . S
H575 C585 0.929 . S
H576 C580 0.929 . S
H577 C586 0.929 . S
C578 H572 0.930 . S
C578 C579 1.367 . S
C578 C586 1.378 . S
C579 C578 1.367 . S
C579 C587 1.433 . S
C580 H576 0.929 . S
C580 C582 1.378 . S
C580 C584 1.350 . S
C581 C584 1.463 . S
C581 C586 1.350 . S
C581 N589 1.427 . S
C582 H573 0.930 . S
C582 C580 1.378 . S
C582 C583 1.367 . S
C583 C582 1.367 . S
C583 C585 1.433 . S
C584 C580 1.350 . S
C584 C581 1.463 . S
C584 N588 1.427 . S
C585 H575 0.929 . S
C585 C583 1.433 . S
C585 N588 1.384 . S
C586 H577 0.929 . S
C586 C578 1.378 . S
C586 C581 1.350 . S
C587 H574 0.929 . S
C587 C579 1.433 . S
C587 N589 1.384 . S
N588 C584 1.427 . S
N588 C585 1.384 . S
N589 C581 1.427 . S
N589 C587 1.384 . S
H590 C596 0.930 . S
H591 C600 0.930 . S
H592 C605 0.929 . S
H593 C603 0.929 . S
H594 C598 0.929 . S
H595 C604 0.929 . S
C596 H590 0.930 . S
C596 C597 1.367 . S
C596 C604 1.378 . S
C597 C596 1.367 . S
C597 C605 1.433 . S
C598 H594 0.929 . S
C598 C600 1.378 . S
C598 C602 1.350 . S
C599 C602 1.463 . S
C599 C604 1.350 . S
C599 N607 1.427 . S
C600 H591 0.930 . S
C600 C598 1.378 . S
C600 C601 1.367 . S
C601 C600 1.367 . S
C601 C603 1.433 . S
C602 C598 1.350 . S
C602 C599 1.463 . S
C602 N606 1.427 . S
C603 H593 0.929 . S
C603 C601 1.433 . S
C603 N606 1.384 . S
C604 H595 0.929 . S
C604 C596 1.378 . S
C604 C599 1.350 . S
C605 H592 0.929 . S
C605 C597 1.433 . S
C605 N607 1.384 . S
N606 C602 1.427 . S
N606 C603 1.384 . S
N607 C599 1.427 . S
N607 C605 1.384 . S
H608 C614 0.930 . S
H609 C618 0.930 . S
H610 C623 0.929 . S
H611 C621 0.929 . S
H612 C616 0.929 . S
H613 C622 0.929 . S
C614 H608 0.930 . S
C614 C615 1.367 . S
C614 C622 1.378 . S
C615 C614 1.367 . S
C615 C623 1.433 . S
C616 H612 0.929 . S
C616 C618 1.378 . S
C616 C620 1.350 . S
C617 C620 1.463 . S
C617 C622 1.350 . S
C617 N625 1.427 . S
C618 H609 0.930 . S
C618 C616 1.378 . S
C618 C619 1.367 . S
C619 C618 1.367 . S
C619 C621 1.433 . S
C620 C616 1.350 . S
C620 C617 1.463 . S
C620 N624 1.427 . S
C621 H611 0.929 . S
C621 C619 1.433 . S
C621 N624 1.384 . S
C622 H613 0.929 . S
C622 C614 1.378 . S
C622 C617 1.350 . S
C623 H610 0.929 . S
C623 C615 1.433 . S
C623 N625 1.384 . S
N624 C620 1.427 . S
N624 C621 1.384 . S
N625 C617 1.427 . S
N625 C623 1.384 . S
H626 C632 0.930 . S
H627 C636 0.930 . S
H628 C641 0.929 . S
H629 C639 0.929 . S
H630 C634 0.929 . S
H631 C640 0.929 . S
C632 H626 0.930 . S
C632 C633 1.367 . S
C632 C640 1.378 . S
C633 C632 1.367 . S
C633 C641 1.433 . S
C634 H630 0.929 . S
C634 C636 1.378 . S
C634 C638 1.350 . S
C635 C638 1.463 . S
C635 C640 1.350 . S
C635 N643 1.427 . S
C636 H627 0.930 . S
C636 C634 1.378 . S
C636 C637 1.367 . S
C637 C636 1.367 . S
C637 C639 1.433 . S
C638 C634 1.350 . S
C638 C635 1.463 . S
C638 N642 1.427 . S
C639 H629 0.929 . S
C639 C637 1.433 . S
C639 N642 1.384 . S
C640 H631 0.929 . S
C640 C632 1.378 . S
C640 C635 1.350 . S
C641 H628 0.929 . S
C641 C633 1.433 . S
C641 N643 1.384 . S
N642 C638 1.427 . S
N642 C639 1.384 . S
N643 C635 1.427 . S
N643 C641 1.384 . S
H644 C650 0.930 . S
H645 C654 0.930 . S
H646 C659 0.929 . S
H647 C657 0.929 . S
H648 C652 0.929 . S
H649 C658 0.929 . S
C650 H644 0.930 . S
C650 C651 1.367 . S
C650 C658 1.378 . S
C651 C650 1.367 . S
C651 C659 1.433 . S
C652 H648 0.929 . S
C652 C654 1.378 . S
C652 C656 1.350 . S
C653 C656 1.463 . S
C653 C658 1.350 . S
C653 N661 1.427 . S
C654 H645 0.930 . S
C654 C652 1.378 . S
C654 C655 1.367 . S
C655 C654 1.367 . S
C655 C657 1.433 . S
C656 C652 1.350 . S
C656 C653 1.463 . S
C656 N660 1.427 . S
C657 H647 0.929 . S
C657 C655 1.433 . S
C657 N660 1.384 . S
C658 H649 0.929 . S
C658 C650 1.378 . S
C658 C653 1.350 . S
C659 H646 0.929 . S
C659 C651 1.433 . S
C659 N661 1.384 . S
N660 C656 1.427 . S
N660 C657 1.384 . S
N661 C653 1.427 . S
N661 C659 1.384 . S
H662 C668 0.930 . S
H663 C672 0.930 . S
H664 C677 0.929 . S
H665 C675 0.929 . S
H666 C670 0.929 . S
H667 C676 0.929 . S
C668 H662 0.930 . S
C668 C669 1.367 . S
C668 C676 1.378 . S
C669 C668 1.367 . S
C669 C677 1.433 . S
C670 H666 0.929 . S
C670 C672 1.378 . S
C670 C674 1.350 . S
C671 C674 1.463 . S
C671 C676 1.350 . S
C671 N679 1.427 . S
C672 H663 0.930 . S
C672 C670 1.378 . S
C672 C673 1.367 . S
C673 C672 1.367 . S
C673 C675 1.433 . S
C674 C670 1.350 . S
C674 C671 1.463 . S
C674 N678 1.427 . S
C675 H665 0.929 . S
C675 C673 1.433 . S
C675 N678 1.384 . S
C676 H667 0.929 . S
C676 C668 1.378 . S
C676 C671 1.350 . S
C677 H664 0.929 . S
C677 C669 1.433 . S
C677 N679 1.384 . S
N678 C674 1.427 . S
N678 C675 1.384 . S
N679 C671 1.427 . S
N679 C677 1.384 . S
H680 C686 0.930 . S
H681 C690 0.930 . S
H682 C695 0.929 . S
H683 C693 0.929 . S
H684 C688 0.929 . S
H685 C694 0.929 . S
C686 H680 0.930 . S
C686 C687 1.367 . S
C686 C694 1.378 . S
C687 C686 1.367 . S
C687 C695 1.433 . S
C688 H684 0.929 . S
C688 C690 1.378 . S
C688 C692 1.350 . S
C689 C692 1.463 . S
C689 C694 1.350 . S
C689 N697 1.427 . S
C690 H681 0.930 . S
C690 C688 1.378 . S
C690 C691 1.367 . S
C691 C690 1.367 . S
C691 C693 1.433 . S
C692 C688 1.350 . S
C692 C689 1.463 . S
C692 N696 1.427 . S
C693 H683 0.929 . S
C693 C691 1.433 . S
C693 N696 1.384 . S
C694 H685 0.929 . S
C694 C686 1.378 . S
C694 C689 1.350 . S
C695 H682 0.929 . S
C695 C687 1.433 . S
C695 N697 1.384 . S
N696 C692 1.427 . S
N696 C693 1.384 . S
N697 C689 1.427 . S
N697 C695 1.384 . S
H698 C704 0.930 . S
H699 C708 0.930 . S
H700 C713 0.929 . S
H701 C711 0.929 . S
H702 C706 0.929 . S
H703 C712 0.929 . S
C704 H698 0.930 . S
C704 C705 1.367 . S
C704 C712 1.378 . S
C705 C704 1.367 . S
C705 C713 1.433 . S
C706 H702 0.929 . S
C706 C708 1.378 . S
C706 C710 1.350 . S
C707 C710 1.463 . S
C707 C712 1.350 . S
C707 N715 1.427 . S
C708 H699 0.930 . S
C708 C706 1.378 . S
C708 C709 1.367 . S
C709 C708 1.367 . S
C709 C711 1.433 . S
C710 C706 1.350 . S
C710 C707 1.463 . S
C710 N714 1.427 . S
C711 H701 0.929 . S
C711 C709 1.433 . S
C711 N714 1.384 . S
C712 H703 0.929 . S
C712 C704 1.378 . S
C712 C707 1.350 . S
C713 H700 0.929 . S
C713 C705 1.433 . S
C713 N715 1.384 . S
N714 C710 1.427 . S
N714 C711 1.384 . S
N715 C707 1.427 . S
N715 C713 1.384 . S
H716 C722 0.930 . S
H717 C726 0.930 . S
H718 C731 0.929 . S
H719 C729 0.929 . S
H720 C724 0.929 . S
H721 C730 0.929 . S
C722 H716 0.930 . S
C722 C723 1.367 . S
C722 C730 1.378 . S
C723 C722 1.367 . S
C723 C731 1.433 . S
C724 H720 0.929 . S
C724 C726 1.378 . S
C724 C728 1.350 . S
C725 C728 1.463 . S
C725 C730 1.350 . S
C725 N733 1.427 . S
C726 H717 0.930 . S
C726 C724 1.378 . S
C726 C727 1.367 . S
C727 C726 1.367 . S
C727 C729 1.433 . S
C728 C724 1.350 . S
C728 C725 1.463 . S
C728 N732 1.427 . S
C729 H719 0.929 . S
C729 C727 1.433 . S
C729 N732 1.384 . S
C730 H721 0.929 . S
C730 C722 1.378 . S
C730 C725 1.350 . S
C731 H718 0.929 . S
C731 C723 1.433 . S
C731 N733 1.384 . S
N732 C728 1.427 . S
N732 C729 1.384 . S
N733 C725 1.427 . S
N733 C731 1.384 . S
H734 C740 0.930 . S
H735 C744 0.930 . S
H736 C749 0.929 . S
H737 C747 0.929 . S
H738 C742 0.929 . S
H739 C748 0.929 . S
C740 H734 0.930 . S
C740 C741 1.367 . S
C740 C748 1.378 . S
C741 C740 1.367 . S
C741 C749 1.433 . S
C742 H738 0.929 . S
C742 C744 1.378 . S
C742 C746 1.350 . S
C743 C746 1.463 . S
C743 C748 1.350 . S
C743 N751 1.427 . S
C744 H735 0.930 . S
C744 C742 1.378 . S
C744 C745 1.367 . S
C745 C744 1.367 . S
C745 C747 1.433 . S
C746 C742 1.350 . S
C746 C743 1.463 . S
C746 N750 1.427 . S
C747 H737 0.929 . S
C747 C745 1.433 . S
C747 N750 1.384 . S
C748 H739 0.929 . S
C748 C740 1.378 . S
C748 C743 1.350 . S
C749 H736 0.929 . S
C749 C741 1.433 . S
C749 N751 1.384 . S
N750 C746 1.427 . S
N750 C747 1.384 . S
N751 C743 1.427 . S
N751 C749 1.384 . S
H752 C758 0.930 . S
H753 C762 0.930 . S
H754 C767 0.929 . S
H755 C765 0.929 . S
H756 C760 0.929 . S
H757 C766 0.929 . S
C758 H752 0.930 . S
C758 C759 1.367 . S
C758 C766 1.378 . S
C759 C758 1.367 . S
C759 C767 1.433 . S
C760 H756 0.929 . S
C760 C762 1.378 . S
C760 C764 1.350 . S
C761 C764 1.463 . S
C761 C766 1.350 . S
C761 N769 1.427 . S
C762 H753 0.930 . S
C762 C760 1.378 . S
C762 C763 1.367 . S
C763 C762 1.367 . S
C763 C765 1.433 . S
C764 C760 1.350 . S
C764 C761 1.463 . S
C764 N768 1.427 . S
C765 H755 0.929 . S
C765 C763 1.433 . S
C765 N768 1.384 . S
C766 H757 0.929 . S
C766 C758 1.378 . S
C766 C761 1.350 . S
C767 H754 0.929 . S
C767 C759 1.433 . S
C767 N769 1.384 . S
N768 C764 1.427 . S
N768 C765 1.384 . S
N769 C761 1.427 . S
N769 C767 1.384 . S
H770 C776 0.930 . S
H771 C780 0.930 . S
H772 C785 0.929 . S
H773 C783 0.929 . S
H774 C778 0.929 . S
H775 C784 0.929 . S
C776 H770 0.930 . S
C776 C777 1.367 . S
C776 C784 1.378 . S
C777 C776 1.367 . S
C777 C785 1.433 . S
C778 H774 0.929 . S
C778 C780 1.378 . S
C778 C782 1.350 . S
C779 C782 1.463 . S
C779 C784 1.350 . S
C779 N787 1.427 . S
C780 H771 0.930 . S
C780 C778 1.378 . S
C780 C781 1.367 . S
C781 C780 1.367 . S
C781 C783 1.433 . S
C782 C778 1.350 . S
C782 C779 1.463 . S
C782 N786 1.427 . S
C783 H773 0.929 . S
C783 C781 1.433 . S
C783 N786 1.384 . S
C784 H775 0.929 . S
C784 C776 1.378 . S
C784 C779 1.350 . S
C785 H772 0.929 . S
C785 C777 1.433 . S
C785 N787 1.384 . S
N786 C782 1.427 . S
N786 C783 1.384 . S
N787 C779 1.427 . S
N787 C785 1.384 . S
H788 C794 0.930 . S
H789 C798 0.930 . S
H790 C803 0.929 . S
H791 C801 0.929 . S
H792 C796 0.929 . S
H793 C802 0.929 . S
C794 H788 0.930 . S
C794 C795 1.367 . S
C794 C802 1.378 . S
C795 C794 1.367 . S
C795 C803 1.433 . S
C796 H792 0.929 . S
C796 C798 1.378 . S
C796 C800 1.350 . S
C797 C800 1.463 . S
C797 C802 1.350 . S
C797 N805 1.427 . S
C798 H789 0.930 . S
C798 C796 1.378 . S
C798 C799 1.367 . S
C799 C798 1.367 . S
C799 C801 1.433 . S
C800 C796 1.350 . S
C800 C797 1.463 . S
C800 N804 1.427 . S
C801 H791 0.929 . S
C801 C799 1.433 . S
C801 N804 1.384 . S
C802 H793 0.929 . S
C802 C794 1.378 . S
C802 C797 1.350 . S
C803 H790 0.929 . S
C803 C795 1.433 . S
C803 N805 1.384 . S
N804 C800 1.427 . S
N804 C801 1.384 . S
N805 C797 1.427 . S
N805 C803 1.384 . S
H806 C812 0.930 . S
H807 C816 0.930 . S
H808 C821 0.929 . S
H809 C819 0.929 . S
H810 C814 0.929 . S
H811 C820 0.929 . S
C812 H806 0.930 . S
C812 C813 1.367 . S
C812 C820 1.378 . S
C813 C812 1.367 . S
C813 C821 1.433 . S
C814 H810 0.929 . S
C814 C816 1.378 . S
C814 C818 1.350 . S
C815 C818 1.463 . S
C815 C820 1.350 . S
C815 N823 1.427 . S
C816 H807 0.930 . S
C816 C814 1.378 . S
C816 C817 1.367 . S
C817 C816 1.367 . S
C817 C819 1.433 . S
C818 C814 1.350 . S
C818 C815 1.463 . S
C818 N822 1.427 . S
C819 H809 0.929 . S
C819 C817 1.433 . S
C819 N822 1.384 . S
C820 H811 0.929 . S
C820 C812 1.378 . S
C820 C815 1.350 . S
C821 H808 0.929 . S
C821 C813 1.433 . S
C821 N823 1.384 . S
N822 C818 1.427 . S
N822 C819 1.384 . S
N823 C815 1.427 . S
N823 C821 1.384 . S
H824 C830 0.930 . S
H825 C834 0.930 . S
H826 C839 0.929 . S
H827 C837 0.929 . S
H828 C832 0.929 . S
H829 C838 0.929 . S
C830 H824 0.930 . S
C830 C831 1.367 . S
C830 C838 1.378 . S
C831 C830 1.367 . S
C831 C839 1.433 . S
C832 H828 0.929 . S
C832 C834 1.378 . S
C832 C836 1.350 . S
C833 C836 1.463 . S
C833 C838 1.350 . S
C833 N841 1.427 . S
C834 H825 0.930 . S
C834 C832 1.378 . S
C834 C835 1.367 . S
C835 C834 1.367 . S
C835 C837 1.433 . S
C836 C832 1.350 . S
C836 C833 1.463 . S
C836 N840 1.427 . S
C837 H827 0.929 . S
C837 C835 1.433 . S
C837 N840 1.384 . S
C838 H829 0.929 . S
C838 C830 1.378 . S
C838 C833 1.350 . S
C839 H826 0.929 . S
C839 C831 1.433 . S
C839 N841 1.384 . S
N840 C836 1.427 . S
N840 C837 1.384 . S
N841 C833 1.427 . S
N841 C839 1.384 . S
H842 C848 0.930 . S
H843 C852 0.930 . S
H844 C857 0.929 . S
H845 C855 0.929 . S
H846 C850 0.929 . S
H847 C856 0.929 . S
C848 H842 0.930 . S
C848 C849 1.367 . S
C848 C856 1.378 . S
C849 C848 1.367 . S
C849 C857 1.433 . S
C850 H846 0.929 . S
C850 C852 1.378 . S
C850 C854 1.350 . S
C851 C854 1.463 . S
C851 C856 1.350 . S
C851 N859 1.427 . S
C852 H843 0.930 . S
C852 C850 1.378 . S
C852 C853 1.367 . S
C853 C852 1.367 . S
C853 C855 1.433 . S
C854 C850 1.350 . S
C854 C851 1.463 . S
C854 N858 1.427 . S
C855 H845 0.929 . S
C855 C853 1.433 . S
C855 N858 1.384 . S
C856 H847 0.929 . S
C856 C848 1.378 . S
C856 C851 1.350 . S
C857 H844 0.929 . S
C857 C849 1.433 . S
C857 N859 1.384 . S
N858 C854 1.427 . S
N858 C855 1.384 . S
N859 C851 1.427 . S
N859 C857 1.384 . S
H860 C866 0.930 . S
H861 C870 0.930 . S
H862 C875 0.929 . S
H863 C873 0.929 . S
H864 C868 0.929 . S
H865 C874 0.929 . S
C866 H860 0.930 . S
C866 C867 1.367 . S
C866 C874 1.378 . S
C867 C866 1.367 . S
C867 C875 1.433 . S
C868 H864 0.929 . S
C868 C870 1.378 . S
C868 C872 1.350 . S
C869 C872 1.463 . S
C869 C874 1.350 . S
C869 N877 1.427 . S
C870 H861 0.930 . S
C870 C868 1.378 . S
C870 C871 1.367 . S
C871 C870 1.367 . S
C871 C873 1.433 . S
C872 C868 1.350 . S
C872 C869 1.463 . S
C872 N876 1.427 . S
C873 H863 0.929 . S
C873 C871 1.433 . S
C873 N876 1.384 . S
C874 H865 0.929 . S
C874 C866 1.378 . S
C874 C869 1.350 . S
C875 H862 0.929 . S
C875 C867 1.433 . S
C875 N877 1.384 . S
N876 C872 1.427 . S
N876 C873 1.384 . S
N877 C869 1.427 . S
N877 C875 1.384 . S
H878 C884 0.930 . S
H879 C888 0.930 . S
H880 C893 0.929 . S
H881 C891 0.929 . S
H882 C886 0.929 . S
H883 C892 0.929 . S
C884 H878 0.930 . S
C884 C885 1.367 . S
C884 C892 1.378 . S
C885 C884 1.367 . S
C885 C893 1.433 . S
C886 H882 0.929 . S
C886 C888 1.378 . S
C886 C890 1.350 . S
C887 C890 1.463 . S
C887 C892 1.350 . S
C887 N895 1.427 . S
C888 H879 0.930 . S
C888 C886 1.378 . S
C888 C889 1.367 . S
C889 C888 1.367 . S
C889 C891 1.433 . S
C890 C886 1.350 . S
C890 C887 1.463 . S
C890 N894 1.427 . S
C891 H881 0.929 . S
C891 C889 1.433 . S
C891 N894 1.384 . S
C892 H883 0.929 . S
C892 C884 1.378 . S
C892 C887 1.350 . S
C893 H880 0.929 . S
C893 C885 1.433 . S
C893 N895 1.384 . S
N894 C890 1.427 . S
N894 C891 1.384 . S
N895 C887 1.427 . S
N895 C893 1.384 . S
H896 C902 0.930 . S
H897 C906 0.930 . S
H898 C911 0.929 . S
H899 C909 0.929 . S
H900 C904 0.929 . S
H901 C910 0.929 . S
C902 H896 0.930 . S
C902 C903 1.367 . S
C902 C910 1.378 . S
C903 C902 1.367 . S
C903 C911 1.433 . S
C904 H900 0.929 . S
C904 C906 1.378 . S
C904 C908 1.350 . S
C905 C908 1.463 . S
C905 C910 1.350 . S
C905 N913 1.427 . S
C906 H897 0.930 . S
C906 C904 1.378 . S
C906 C907 1.367 . S
C907 C906 1.367 . S
C907 C909 1.433 . S
C908 C904 1.350 . S
C908 C905 1.463 . S
C908 N912 1.427 . S
C909 H899 0.929 . S
C909 C907 1.433 . S
C909 N912 1.384 . S
C910 H901 0.929 . S
C910 C902 1.378 . S
C910 C905 1.350 . S
C911 H898 0.929 . S
C911 C903 1.433 . S
C911 N913 1.384 . S
N912 C908 1.427 . S
N912 C909 1.384 . S
N913 C905 1.427 . S
N913 C911 1.384 . S
H914 C920 0.930 . S
H915 C924 0.930 . S
H916 C929 0.929 . S
H917 C927 0.929 . S
H918 C922 0.929 . S
H919 C928 0.929 . S
C920 H914 0.930 . S
C920 C921 1.367 . S
C920 C928 1.378 . S
C921 C920 1.367 . S
C921 C929 1.433 . S
C922 H918 0.929 . S
C922 C924 1.378 . S
C922 C926 1.350 . S
C923 C926 1.463 . S
C923 C928 1.350 . S
C923 N931 1.427 . S
C924 H915 0.930 . S
C924 C922 1.378 . S
C924 C925 1.367 . S
C925 C924 1.367 . S
C925 C927 1.433 . S
C926 C922 1.350 . S
C926 C923 1.463 . S
C926 N930 1.427 . S
C927 H917 0.929 . S
C927 C925 1.433 . S
C927 N930 1.384 . S
C928 H919 0.929 . S
C928 C920 1.378 . S
C928 C923 1.350 . S
C929 H916 0.929 . S
C929 C921 1.433 . S
C929 N931 1.384 . S
N930 C926 1.427 . S
N930 C927 1.384 . S
N931 C923 1.427 . S
N931 C929 1.384 . S
H932 C938 0.930 . S
H933 C942 0.930 . S
H934 C947 0.929 . S
H935 C945 0.929 . S
H936 C940 0.929 . S
H937 C946 0.929 . S
C938 H932 0.930 . S
C938 C939 1.367 . S
C938 C946 1.378 . S
C939 C938 1.367 . S
C939 C947 1.433 . S
C940 H936 0.929 . S
C940 C942 1.378 . S
C940 C944 1.350 . S
C941 C944 1.463 . S
C941 C946 1.350 . S
C941 N949 1.427 . S
C942 H933 0.930 . S
C942 C940 1.378 . S
C942 C943 1.367 . S
C943 C942 1.367 . S
C943 C945 1.433 . S
C944 C940 1.350 . S
C944 C941 1.463 . S
C944 N948 1.427 . S
C945 H935 0.929 . S
C945 C943 1.433 . S
C945 N948 1.384 . S
C946 H937 0.929 . S
C946 C938 1.378 . S
C946 C941 1.350 . S
C947 H934 0.929 . S
C947 C939 1.433 . S
C947 N949 1.384 . S
N948 C944 1.427 . S
N948 C945 1.384 . S
N949 C941 1.427 . S
N949 C947 1.384 . S
H950 C956 0.930 . S
H951 C960 0.930 . S
H952 C965 0.929 . S
H953 C963 0.929 . S
H954 C958 0.929 . S
H955 C964 0.929 . S
C956 H950 0.930 . S
C956 C957 1.367 . S
C956 C964 1.378 . S
C957 C956 1.367 . S
C957 C965 1.433 . S
C958 H954 0.929 . S
C958 C960 1.378 . S
C958 C962 1.350 . S
C959 C962 1.463 . S
C959 C964 1.350 . S
C959 N967 1.427 . S
C960 H951 0.930 . S
C960 C958 1.378 . S
C960 C961 1.367 . S
C961 C960 1.367 . S
C961 C963 1.433 . S
C962 C958 1.350 . S
C962 C959 1.463 . S
C962 N966 1.427 . S
C963 H953 0.929 . S
C963 C961 1.433 . S
C963 N966 1.384 . S
C964 H955 0.929 . S
C964 C956 1.378 . S
C964 C959 1.350 . S
C965 H952 0.929 . S
C965 C957 1.433 . S
C965 N967 1.384 . S
N966 C962 1.427 . S
N966 C963 1.384 . S
N967 C959 1.427 . S
N967 C965 1.384 . S
H968 C974 0.930 . S
H969 C978 0.930 . S
H970 C983 0.929 . S
H971 C981 0.929 . S
H972 C976 0.929 . S
H973 C982 0.929 . S
C974 H968 0.930 . S
C974 C975 1.367 . S
C974 C982 1.378 . S
C975 C974 1.367 . S
C975 C983 1.433 . S
C976 H972 0.929 . S
C976 C978 1.378 . S
C976 C980 1.350 . S
C977 C980 1.463 . S
C977 C982 1.350 . S
C977 N985 1.427 . S
C978 H969 0.930 . S
C978 C976 1.378 . S
C978 C979 1.367 . S
C979 C978 1.367 . S
C979 C981 1.433 . S
C980 C976 1.350 . S
C980 C977 1.463 . S
C980 N984 1.427 . S
C981 H971 0.929 . S
C981 C979 1.433 . S
C981 N984 1.384 . S
C982 H973 0.929 . S
C982 C974 1.378 . S
C982 C977 1.350 . S
C983 H970 0.929 . S
C983 C975 1.433 . S
C983 N985 1.384 . S
N984 C980 1.427 . S
N984 C981 1.384 . S
N985 C977 1.427 . S
N985 C983 1.384 . S
H986 C992 0.930 . S
H987 C996 0.930 . S
H988 C1001 0.929 . S
H989 C999 0.929 . S
H990 C994 0.929 . S
H991 C1000 0.929 . S
C992 H986 0.930 . S
C992 C993 1.367 . S
C992 C1000 1.378 . S
C993 C992 1.367 . S
C993 C1001 1.433 . S
C994 H990 0.929 . S
C994 C996 1.378 . S
C994 C998 1.350 . S
C995 C998 1.463 . S
C995 C1000 1.350 . S
C995 N1003 1.427 . S
C996 H987 0.930 . S
C996 C994 1.378 . S
C996 C997 1.367 . S
C997 C996 1.367 . S
C997 C999 1.433 . S
C998 C994 1.350 . S
C998 C995 1.463 . S
C998 N1002 1.427 . S
C999 H989 0.929 . S
C999 C997 1.433 . S
C999 N1002 1.384 . S
C1000 H991 0.929 . S
C1000 C992 1.378 . S
C1000 C995 1.350 . S
C1001 H988 0.929 . S
C1001 C993 1.433 . S
C1001 N1003 1.384 . S
N1002 C998 1.427 . S
N1002 C999 1.384 . S
N1003 C995 1.427 . S
N1003 C1001 1.384 . S
H1004 C1010 0.930 . S
H1005 C1014 0.930 . S
H1006 C1019 0.929 . S
H1007 C1017 0.929 . S
H1008 C1012 0.929 . S
H1009 C1018 0.929 . S
C1010 H1004 0.930 . S
C1010 C1011 1.367 . S
C1010 C1018 1.378 . S
C1011 C1010 1.367 . S
C1011 C1019 1.433 . S
C1012 H1008 0.929 . S
C1012 C1014 1.378 . S
C1012 C1016 1.350 . S
C1013 C1016 1.463 . S
C1013 C1018 1.350 . S
C1013 N1021 1.427 . S
C1014 H1005 0.930 . S
C1014 C1012 1.378 . S
C1014 C1015 1.367 . S
C1015 C1014 1.367 . S
C1015 C1017 1.433 . S
C1016 C1012 1.350 . S
C1016 C1013 1.463 . S
C1016 N1020 1.427 . S
C1017 H1007 0.929 . S
C1017 C1015 1.433 . S
C1017 N1020 1.384 . S
C1018 H1009 0.929 . S
C1018 C1010 1.378 . S
C1018 C1013 1.350 . S
C1019 H1006 0.929 . S
C1019 C1011 1.433 . S
C1019 N1021 1.384 . S
N1020 C1016 1.427 . S
N1020 C1017 1.384 . S
N1021 C1013 1.427 . S
N1021 C1019 1.384 . S
H1022 C1028 0.930 . S
H1023 C1032 0.930 . S
H1024 C1037 0.929 . S
H1025 C1035 0.929 . S
H1026 C1030 0.929 . S
H1027 C1036 0.929 . S
C1028 H1022 0.930 . S
C1028 C1029 1.367 . S
C1028 C1036 1.378 . S
C1029 C1028 1.367 . S
C1029 C1037 1.433 . S
C1030 H1026 0.929 . S
C1030 C1032 1.378 . S
C1030 C1034 1.350 . S
C1031 C1034 1.463 . S
C1031 C1036 1.350 . S
C1031 N1039 1.427 . S
C1032 H1023 0.930 . S
C1032 C1030 1.378 . S
C1032 C1033 1.367 . S
C1033 C1032 1.367 . S
C1033 C1035 1.433 . S
C1034 C1030 1.350 . S
C1034 C1031 1.463 . S
C1034 N1038 1.427 . S
C1035 H1025 0.929 . S
C1035 C1033 1.433 . S
C1035 N1038 1.384 . S
C1036 H1027 0.929 . S
C1036 C1028 1.378 . S
C1036 C1031 1.350 . S
C1037 H1024 0.929 . S
C1037 C1029 1.433 . S
C1037 N1039 1.384 . S
N1038 C1034 1.427 . S
N1038 C1035 1.384 . S
N1039 C1031 1.427 . S
N1039 C1037 1.384 . S
H1040 C1046 0.930 . S
H1041 C1050 0.930 . S
H1042 C1055 0.929 . S
H1043 C1053 0.929 . S
H1044 C1048 0.929 . S
H1045 C1054 0.929 . S
C1046 H1040 0.930 . S
C1046 C1047 1.367 . S
C1046 C1054 1.378 . S
C1047 C1046 1.367 . S
C1047 C1055 1.433 . S
C1048 H1044 0.929 . S
C1048 C1050 1.378 . S
C1048 C1052 1.350 . S
C1049 C1052 1.463 . S
C1049 C1054 1.350 . S
C1049 N1057 1.427 . S
C1050 H1041 0.930 . S
C1050 C1048 1.378 . S
C1050 C1051 1.367 . S
C1051 C1050 1.367 . S
C1051 C1053 1.433 . S
C1052 C1048 1.350 . S
C1052 C1049 1.463 . S
C1052 N1056 1.427 . S
C1053 H1043 0.929 . S
C1053 C1051 1.433 . S
C1053 N1056 1.384 . S
C1054 H1045 0.929 . S
C1054 C1046 1.378 . S
C1054 C1049 1.350 . S
C1055 H1042 0.929 . S
C1055 C1047 1.433 . S
C1055 N1057 1.384 . S
N1056 C1052 1.427 . S
N1056 C1053 1.384 . S
N1057 C1049 1.427 . S
N1057 C1055 1.384 . S
H1058 C1064 0.930 . S
H1059 C1068 0.930 . S
H1060 C1073 0.929 . S
H1061 C1071 0.929 . S
H1062 C1066 0.929 . S
H1063 C1072 0.929 . S
C1064 H1058 0.930 . S
C1064 C1065 1.367 . S
C1064 C1072 1.378 . S
C1065 C1064 1.367 . S
C1065 C1073 1.433 . S
C1066 H1062 0.929 . S
C1066 C1068 1.378 . S
C1066 C1070 1.350 . S
C1067 C1070 1.463 . S
C1067 C1072 1.350 . S
C1067 N1075 1.427 . S
C1068 H1059 0.930 . S
C1068 C1066 1.378 . S
C1068 C1069 1.367 . S
C1069 C1068 1.367 . S
C1069 C1071 1.433 . S
C1070 C1066 1.350 . S
C1070 C1067 1.463 . S
C1070 N1074 1.427 . S
C1071 H1061 0.929 . S
C1071 C1069 1.433 . S
C1071 N1074 1.384 . S
C1072 H1063 0.929 . S
C1072 C1064 1.378 . S
C1072 C1067 1.350 . S
C1073 H1060 0.929 . S
C1073 C1065 1.433 . S
C1073 N1075 1.384 . S
N1074 C1070 1.427 . S
N1074 C1071 1.384 . S
N1075 C1067 1.427 . S
N1075 C1073 1.384 . S
H1076 C1082 0.930 . S
H1077 C1086 0.930 . S
H1078 C1091 0.929 . S
H1079 C1089 0.929 . S
H1080 C1084 0.929 . S
H1081 C1090 0.929 . S
C1082 H1076 0.930 . S
C1082 C1083 1.367 . S
C1082 C1090 1.378 . S
C1083 C1082 1.367 . S
C1083 C1091 1.433 . S
C1084 H1080 0.929 . S
C1084 C1086 1.378 . S
C1084 C1088 1.350 . S
C1085 C1088 1.463 . S
C1085 C1090 1.350 . S
C1085 N1093 1.427 . S
C1086 H1077 0.930 . S
C1086 C1084 1.378 . S
C1086 C1087 1.367 . S
C1087 C1086 1.367 . S
C1087 C1089 1.433 . S
C1088 C1084 1.350 . S
C1088 C1085 1.463 . S
C1088 N1092 1.427 . S
C1089 H1079 0.929 . S
C1089 C1087 1.433 . S
C1089 N1092 1.384 . S
C1090 H1081 0.929 . S
C1090 C1082 1.378 . S
C1090 C1085 1.350 . S
C1091 H1078 0.929 . S
C1091 C1083 1.433 . S
C1091 N1093 1.384 . S
N1092 C1088 1.427 . S
N1092 C1089 1.384 . S
N1093 C1085 1.427 . S
N1093 C1091 1.384 . S
H1094 C1100 0.930 . S
H1095 C1104 0.930 . S
H1096 C1109 0.929 . S
H1097 C1107 0.929 . S
H1098 C1102 0.929 . S
H1099 C1108 0.929 . S
C1100 H1094 0.930 . S
C1100 C1101 1.367 . S
C1100 C1108 1.378 . S
C1101 C1100 1.367 . S
C1101 C1109 1.433 . S
C1102 H1098 0.929 . S
C1102 C1104 1.378 . S
C1102 C1106 1.350 . S
C1103 C1106 1.463 . S
C1103 C1108 1.350 . S
C1103 N1111 1.427 . S
C1104 H1095 0.930 . S
C1104 C1102 1.378 . S
C1104 C1105 1.367 . S
C1105 C1104 1.367 . S
C1105 C1107 1.433 . S
C1106 C1102 1.350 . S
C1106 C1103 1.463 . S
C1106 N1110 1.427 . S
C1107 H1097 0.929 . S
C1107 C1105 1.433 . S
C1107 N1110 1.384 . S
C1108 H1099 0.929 . S
C1108 C1100 1.378 . S
C1108 C1103 1.350 . S
C1109 H1096 0.929 . S
C1109 C1101 1.433 . S
C1109 N1111 1.384 . S
N1110 C1106 1.427 . S
N1110 C1107 1.384 . S
N1111 C1103 1.427 . S
N1111 C1109 1.384 . S
H1112 C1118 0.930 . S
H1113 C1122 0.930 . S
H1114 C1127 0.929 . S
H1115 C1125 0.929 . S
H1116 C1120 0.929 . S
H1117 C1126 0.929 . S
C1118 H1112 0.930 . S
C1118 C1119 1.367 . S
C1118 C1126 1.378 . S
C1119 C1118 1.367 . S
C1119 C1127 1.433 . S
C1120 H1116 0.929 . S
C1120 C1122 1.378 . S
C1120 C1124 1.350 . S
C1121 C1124 1.463 . S
C1121 C1126 1.350 . S
C1121 N1129 1.427 . S
C1122 H1113 0.930 . S
C1122 C1120 1.378 . S
C1122 C1123 1.367 . S
C1123 C1122 1.367 . S
C1123 C1125 1.433 . S
C1124 C1120 1.350 . S
C1124 C1121 1.463 . S
C1124 N1128 1.427 . S
C1125 H1115 0.929 . S
C1125 C1123 1.433 . S
C1125 N1128 1.384 . S
C1126 H1117 0.929 . S
C1126 C1118 1.378 . S
C1126 C1121 1.350 . S
C1127 H1114 0.929 . S
C1127 C1119 1.433 . S
C1127 N1129 1.384 . S
N1128 C1124 1.427 . S
N1128 C1125 1.384 . S
N1129 C1121 1.427 . S
N1129 C1127 1.384 . S
H1130 C1136 0.930 . S
H1131 C1140 0.930 . S
H1132 C1145 0.929 . S
H1133 C1143 0.929 . S
H1134 C1138 0.929 . S
H1135 C1144 0.929 . S
C1136 H1130 0.930 . S
C1136 C1137 1.367 . S
C1136 C1144 1.378 . S
C1137 C1136 1.367 . S
C1137 C1145 1.433 . S
C1138 H1134 0.929 . S
C1138 C1140 1.378 . S
C1138 C1142 1.350 . S
C1139 C1142 1.463 . S
C1139 C1144 1.350 . S
C1139 N1147 1.427 . S
C1140 H1131 0.930 . S
C1140 C1138 1.378 . S
C1140 C1141 1.367 . S
C1141 C1140 1.367 . S
C1141 C1143 1.433 . S
C1142 C1138 1.350 . S
C1142 C1139 1.463 . S
C1142 N1146 1.427 . S
C1143 H1133 0.929 . S
C1143 C1141 1.433 . S
C1143 N1146 1.384 . S
C1144 H1135 0.929 . S
C1144 C1136 1.378 . S
C1144 C1139 1.350 . S
C1145 H1132 0.929 . S
C1145 C1137 1.433 . S
C1145 N1147 1.384 . S
N1146 C1142 1.427 . S
N1146 C1143 1.384 . S
N1147 C1139 1.427 . S
N1147 C1145 1.384 . S
H1148 C1154 0.930 . S
H1149 C1158 0.930 . S
H1150 C1163 0.929 . S
H1151 C1161 0.929 . S
H1152 C1156 0.929 . S
H1153 C1162 0.929 . S
C1154 H1148 0.930 . S
C1154 C1155 1.367 . S
C1154 C1162 1.378 . S
C1155 C1154 1.367 . S
C1155 C1163 1.433 . S
C1156 H1152 0.929 . S
C1156 C1158 1.378 . S
C1156 C1160 1.350 . S
C1157 C1160 1.463 . S
C1157 C1162 1.350 . S
C1157 N1165 1.427 . S
C1158 H1149 0.930 . S
C1158 C1156 1.378 . S
C1158 C1159 1.367 . S
C1159 C1158 1.367 . S
C1159 C1161 1.433 . S
C1160 C1156 1.350 . S
C1160 C1157 1.463 . S
C1160 N1164 1.427 . S
C1161 H1151 0.929 . S
C1161 C1159 1.433 . S
C1161 N1164 1.384 . S
C1162 H1153 0.929 . S
C1162 C1154 1.378 . S
C1162 C1157 1.350 . S
C1163 H1150 0.929 . S
C1163 C1155 1.433 . S
C1163 N1165 1.384 . S
N1164 C1160 1.427 . S
N1164 C1161 1.384 . S
N1165 C1157 1.427 . S
N1165 C1163 1.384 . S
H1166 C1172 0.930 . S
H1167 C1176 0.930 . S
H1168 C1181 0.929 . S
H1169 C1179 0.929 . S
H1170 C1174 0.929 . S
H1171 C1180 0.929 . S
C1172 H1166 0.930 . S
C1172 C1173 1.367 . S
C1172 C1180 1.378 . S
C1173 C1172 1.367 . S
C1173 C1181 1.433 . S
C1174 H1170 0.929 . S
C1174 C1176 1.378 . S
C1174 C1178 1.350 . S
C1175 C1178 1.463 . S
C1175 C1180 1.350 . S
C1175 N1183 1.427 . S
C1176 H1167 0.930 . S
C1176 C1174 1.378 . S
C1176 C1177 1.367 . S
C1177 C1176 1.367 . S
C1177 C1179 1.433 . S
C1178 C1174 1.350 . S
C1178 C1175 1.463 . S
C1178 N1182 1.427 . S
C1179 H1169 0.929 . S
C1179 C1177 1.433 . S
C1179 N1182 1.384 . S
C1180 H1171 0.929 . S
C1180 C1172 1.378 . S
C1180 C1175 1.350 . S
C1181 H1168 0.929 . S
C1181 C1173 1.433 . S
C1181 N1183 1.384 . S
N1182 C1178 1.427 . S
N1182 C1179 1.384 . S
N1183 C1175 1.427 . S
N1183 C1181 1.384 . S
H1184 C1190 0.930 . S
H1185 C1194 0.930 . S
H1186 C1199 0.929 . S
H1187 C1197 0.929 . S
H1188 C1192 0.929 . S
H1189 C1198 0.929 . S
C1190 H1184 0.930 . S
C1190 C1191 1.367 . S
C1190 C1198 1.378 . S
C1191 C1190 1.367 . S
C1191 C1199 1.433 . S
C1192 H1188 0.929 . S
C1192 C1194 1.378 . S
C1192 C1196 1.350 . S
C1193 C1196 1.463 . S
C1193 C1198 1.350 . S
C1193 N1201 1.427 . S
C1194 H1185 0.930 . S
C1194 C1192 1.378 . S
C1194 C1195 1.367 . S
C1195 C1194 1.367 . S
C1195 C1197 1.433 . S
C1196 C1192 1.350 . S
C1196 C1193 1.463 . S
C1196 N1200 1.427 . S
C1197 H1187 0.929 . S
C1197 C1195 1.433 . S
C1197 N1200 1.384 . S
C1198 H1189 0.929 . S
C1198 C1190 1.378 . S
C1198 C1193 1.350 . S
C1199 H1186 0.929 . S
C1199 C1191 1.433 . S
C1199 N1201 1.384 . S
N1200 C1196 1.427 . S
N1200 C1197 1.384 . S
N1201 C1193 1.427 . S
N1201 C1199 1.384 . S
H1202 C1208 0.930 . S
H1203 C1212 0.930 . S
H1204 C1217 0.929 . S
H1205 C1215 0.929 . S
H1206 C1210 0.929 . S
H1207 C1216 0.929 . S
C1208 H1202 0.930 . S
C1208 C1209 1.367 . S
C1208 C1216 1.378 . S
C1209 C1208 1.367 . S
C1209 C1217 1.433 . S
C1210 H1206 0.929 . S
C1210 C1212 1.378 . S
C1210 C1214 1.350 . S
C1211 C1214 1.463 . S
C1211 C1216 1.350 . S
C1211 N1219 1.427 . S
C1212 H1203 0.930 . S
C1212 C1210 1.378 . S
C1212 C1213 1.367 . S
C1213 C1212 1.367 . S
C1213 C1215 1.433 . S
C1214 C1210 1.350 . S
C1214 C1211 1.463 . S
C1214 N1218 1.427 . S
C1215 H1205 0.929 . S
C1215 C1213 1.433 . S
C1215 N1218 1.384 . S
C1216 H1207 0.929 . S
C1216 C1208 1.378 . S
C1216 C1211 1.350 . S
C1217 H1204 0.929 . S
C1217 C1209 1.433 . S
C1217 N1219 1.384 . S
N1218 C1214 1.427 . S
N1218 C1215 1.384 . S
N1219 C1211 1.427 . S
N1219 C1217 1.384 . S
H1220 C1226 0.930 . S
H1221 C1230 0.930 . S
H1222 C1235 0.929 . S
H1223 C1233 0.929 . S
H1224 C1228 0.929 . S
H1225 C1234 0.929 . S
C1226 H1220 0.930 . S
C1226 C1227 1.367 . S
C1226 C1234 1.378 . S
C1227 C1226 1.367 . S
C1227 C1235 1.433 . S
C1228 H1224 0.929 . S
C1228 C1230 1.378 . S
C1228 C1232 1.350 . S
C1229 C1232 1.463 . S
C1229 C1234 1.350 . S
C1229 N1237 1.427 . S
C1230 H1221 0.930 . S
C1230 C1228 1.378 . S
C1230 C1231 1.367 . S
C1231 C1230 1.367 . S
C1231 C1233 1.433 . S
C1232 C1228 1.350 . S
C1232 C1229 1.463 . S
C1232 N1236 1.427 . S
C1233 H1223 0.929 . S
C1233 C1231 1.433 . S
C1233 N1236 1.384 . S
C1234 H1225 0.929 . S
C1234 C1226 1.378 . S
C1234 C1229 1.350 . S
C1235 H1222 0.929 . S
C1235 C1227 1.433 . S
C1235 N1237 1.384 . S
N1236 C1232 1.427 . S
N1236 C1233 1.384 . S
N1237 C1229 1.427 . S
N1237 C1235 1.384 . S
H1238 C1244 0.930 . S
H1239 C1248 0.930 . S
H1240 C1253 0.929 . S
H1241 C1251 0.929 . S
H1242 C1246 0.929 . S
H1243 C1252 0.929 . S
C1244 H1238 0.930 . S
C1244 C1245 1.367 . S
C1244 C1252 1.378 . S
C1245 C1244 1.367 . S
C1245 C1253 1.433 . S
C1246 H1242 0.929 . S
C1246 C1248 1.378 . S
C1246 C1250 1.350 . S
C1247 C1250 1.463 . S
C1247 C1252 1.350 . S
C1247 N1255 1.427 . S
C1248 H1239 0.930 . S
C1248 C1246 1.378 . S
C1248 C1249 1.367 . S
C1249 C1248 1.367 . S
C1249 C1251 1.433 . S
C1250 C1246 1.350 . S
C1250 C1247 1.463 . S
C1250 N1254 1.427 . S
C1251 H1241 0.929 . S
C1251 C1249 1.433 . S
C1251 N1254 1.384 . S
C1252 H1243 0.929 . S
C1252 C1244 1.378 . S
C1252 C1247 1.350 . S
C1253 H1240 0.929 . S
C1253 C1245 1.433 . S
C1253 N1255 1.384 . S
N1254 C1250 1.427 . S
N1254 C1251 1.384 . S
N1255 C1247 1.427 . S
N1255 C1253 1.384 . S
H1256 C1262 0.930 . S
H1257 C1266 0.930 . S
H1258 C1271 0.929 . S
H1259 C1269 0.929 . S
H1260 C1264 0.929 . S
H1261 C1270 0.929 . S
C1262 H1256 0.930 . S
C1262 C1263 1.367 . S
C1262 C1270 1.378 . S
C1263 C1262 1.367 . S
C1263 C1271 1.433 . S
C1264 H1260 0.929 . S
C1264 C1266 1.378 . S
C1264 C1268 1.350 . S
C1265 C1268 1.463 . S
C1265 C1270 1.350 . S
C1265 N1273 1.427 . S
C1266 H1257 0.930 . S
C1266 C1264 1.378 . S
C1266 C1267 1.367 . S
C1267 C1266 1.367 . S
C1267 C1269 1.433 . S
C1268 C1264 1.350 . S
C1268 C1265 1.463 . S
C1268 N1272 1.427 . S
C1269 H1259 0.929 . S
C1269 C1267 1.433 . S
C1269 N1272 1.384 . S
C1270 H1261 0.929 . S
C1270 C1262 1.378 . S
C1270 C1265 1.350 . S
C1271 H1258 0.929 . S
C1271 C1263 1.433 . S
C1271 N1273 1.384 . S
N1272 C1268 1.427 . S
N1272 C1269 1.384 . S
N1273 C1265 1.427 . S
N1273 C1271 1.384 . S
H1274 C1280 0.930 . S
H1275 C1284 0.930 . S
H1276 C1289 0.929 . S
H1277 C1287 0.929 . S
H1278 C1282 0.929 . S
H1279 C1288 0.929 . S
C1280 H1274 0.930 . S
C1280 C1281 1.367 . S
C1280 C1288 1.378 . S
C1281 C1280 1.367 . S
C1281 C1289 1.433 . S
C1282 H1278 0.929 . S
C1282 C1284 1.378 . S
C1282 C1286 1.350 . S
C1283 C1286 1.463 . S
C1283 C1288 1.350 . S
C1283 N1291 1.427 . S
C1284 H1275 0.930 . S
C1284 C1282 1.378 . S
C1284 C1285 1.367 . S
C1285 C1284 1.367 . S
C1285 C1287 1.433 . S
C1286 C1282 1.350 . S
C1286 C1283 1.463 . S
C1286 N1290 1.427 . S
C1287 H1277 0.929 . S
C1287 C1285 1.433 . S
C1287 N1290 1.384 . S
C1288 H1279 0.929 . S
C1288 C1280 1.378 . S
C1288 C1283 1.350 . S
C1289 H1276 0.929 . S
C1289 C1281 1.433 . S
C1289 N1291 1.384 . S
N1290 C1286 1.427 . S
N1290 C1287 1.384 . S
N1291 C1283 1.427 . S
N1291 C1289 1.384 . S
H1292 C1298 0.930 . S
H1293 C1302 0.930 . S
H1294 C1307 0.929 . S
H1295 C1305 0.929 . S
H1296 C1300 0.929 . S
H1297 C1306 0.929 . S
C1298 H1292 0.930 . S
C1298 C1299 1.367 . S
C1298 C1306 1.378 . S
C1299 C1298 1.367 . S
C1299 C1307 1.433 . S
C1300 H1296 0.929 . S
C1300 C1302 1.378 . S
C1300 C1304 1.350 . S
C1301 C1304 1.463 . S
C1301 C1306 1.350 . S
C1301 N1309 1.427 . S
C1302 H1293 0.930 . S
C1302 C1300 1.378 . S
C1302 C1303 1.367 . S
C1303 C1302 1.367 . S
C1303 C1305 1.433 . S
C1304 C1300 1.350 . S
C1304 C1301 1.463 . S
C1304 N1308 1.427 . S
C1305 H1295 0.929 . S
C1305 C1303 1.433 . S
C1305 N1308 1.384 . S
C1306 H1297 0.929 . S
C1306 C1298 1.378 . S
C1306 C1301 1.350 . S
C1307 H1294 0.929 . S
C1307 C1299 1.433 . S
C1307 N1309 1.384 . S
N1308 C1304 1.427 . S
N1308 C1305 1.384 . S
N1309 C1301 1.427 . S
N1309 C1307 1.384 . S
H1310 C1316 0.930 . S
H1311 C1320 0.930 . S
H1312 C1325 0.929 . S
H1313 C1323 0.929 . S
H1314 C1318 0.929 . S
H1315 C1324 0.929 . S
C1316 H1310 0.930 . S
C1316 C1317 1.367 . S
C1316 C1324 1.378 . S
C1317 C1316 1.367 . S
C1317 C1325 1.433 . S
C1318 H1314 0.929 . S
C1318 C1320 1.378 . S
C1318 C1322 1.350 . S
C1319 C1322 1.463 . S
C1319 C1324 1.350 . S
C1319 N1327 1.427 . S
C1320 H1311 0.930 . S
C1320 C1318 1.378 . S
C1320 C1321 1.367 . S
C1321 C1320 1.367 . S
C1321 C1323 1.433 . S
C1322 C1318 1.350 . S
C1322 C1319 1.463 . S
C1322 N1326 1.427 . S
C1323 H1313 0.929 . S
C1323 C1321 1.433 . S
C1323 N1326 1.384 . S
C1324 H1315 0.929 . S
C1324 C1316 1.378 . S
C1324 C1319 1.350 . S
C1325 H1312 0.929 . S
C1325 C1317 1.433 . S
C1325 N1327 1.384 . S
N1326 C1322 1.427 . S
N1326 C1323 1.384 . S
N1327 C1319 1.427 . S
N1327 C1325 1.384 . S
C475 C289 0.305 . S
C471 C4 0.298 . S
C493 C294 1.528 . S
C489 C63 1.526 . S
C511 C295 1.166 . S
C507 C72 1.159 . S
C525 C102 1.533 . S
C529 C299 1.534 . S
C543 C136 1.529 . S
C547 C302 1.520 . S
C565 C303 1.167 . S
C561 C183 1.140 . S
C579 C233 1.529 . S
C583 C280 1.537 . S
C597 C251 0.298 . S
C601 C296 0.309 . S
C619 C334 1.463 . S
C615 C29 1.488 . S
C633 C42 1.960 . S
C637 C360 1.876 . S
C655 C312 1.481 . S
C651 C97 1.516 . S
C673 C367 1.114 . S
C669 C115 1.153 . S
C687 C149 1.167 . S
C691 C321 1.138 . S
C709 C363 1.497 . S
C705 C187 1.521 . S
C723 C212 1.980 . S
C727 C327 1.910 . S
C741 C255 1.492 . S
C745 C358 1.454 . S
C759 C8 1.493 . S
C763 C366 1.445 . S
C777 C153 1.965 . S
C781 C353 1.889 . S
C799 C331 1.486 . S
C795 C170 1.517 . S
C817 C359 1.130 . S
C813 C208 1.171 . S
C831 C238 1.490 . S
C835 C326 1.464 . S
C849 C76 1.519 . S
C853 C344 1.484 . S
C871 C335 1.898 . S
C867 C119 1.977 . S
C885 C38 1.182 . S
C889 C328 1.150 . S
C903 C242 0.276 . S
C907 C390 0.374 . S
C921 C165 1.509 . S
C925 C385 1.456 . S
C943 C399 1.102 . S
C939 C174 1.125 . S
C961 C376 1.470 . S
C957 C204 1.504 . S
C975 C34 1.504 . S
C979 C392 1.444 . S
C997 C391 1.079 . S
C993 C81 1.113 . S
C1011 C131 1.507 . S
C1015 C395 1.480 . S
C1029 C13 0.315 . S
C1033 C398 0.407 . S
C1047 C267 1.480 . S
C1051 C424 1.453 . S
C1069 C440 1.959 . S
C1065 C144 1.999 . S
C1083 C199 1.504 . S
C1087 C422 1.488 . S
C1101 C217 1.176 . S
C1105 C455 1.151 . S
C1123 C431 1.211 . S
C1119 C47 1.182 . S
C1137 C85 1.537 . S
C1141 C449 1.477 . S
C1159 C427 1.975 . S
C1155 C110 1.979 . S
C1177 C462 1.454 . S
C1173 C17 1.507 . S
C1195 C454 1.467 . S
C1191 C246 1.514 . S
C1209 C51 1.996 . S
C1213 C459 1.959 . S
C1227 C68 1.502 . S
C1231 C430 1.488 . S
C1249 C463 1.154 . S
C1245 C106 1.191 . S
C1263 C0 1.480 . S
C1267 C417 1.448 . S
C1281 C178 1.536 . S
C1285 C456 1.471 . S
C1303 C408 1.973 . S
C1299 C221 1.987 . S
C1321 C423 1.204 . S
C1317 C140 1.188 . S
