# Generated by pormake.
# Topology soc, (4,6)-cn, num edge types: 1
# Building blocks:
#     Node 0, Type 0, BuildingBlock: ESEHIV_clean_sbu_0, # of connection points: 4
#     Node 1, Type 0, BuildingBlock: ESEHIV_clean_sbu_0, # of connection points: 4
#     Node 2, Type 0, BuildingBlock: ESEHIV_clean_sbu_0, # of connection points: 4
#     Node 3, Type 0, BuildingBlock: ESEHIV_clean_sbu_0, # of connection points: 4
#     Node 4, Type 0, BuildingBlock: ESEHIV_clean_sbu_0, # of connection points: 4
#     Node 5, Type 0, BuildingBlock: ESEHIV_clean_sbu_0, # of connection points: 4
#     Node 6, Type 0, BuildingBlock: ESEHIV_clean_sbu_0, # of connection points: 4
#     Node 7, Type 0, BuildingBlock: ESEHIV_clean_sbu_0, # of connection points: 4
#     Node 8, Type 0, BuildingBlock: ESEHIV_clean_sbu_0, # of connection points: 4
#     Node 9, Type 0, BuildingBlock: ESEHIV_clean_sbu_0, # of connection points: 4
#     Node 10, Type 0, BuildingBlock: ESEHIV_clean_sbu_0, # of connection points: 4
#     Node 11, Type 0, BuildingBlock: ESEHIV_clean_sbu_0, # of connection points: 4
#     Node 12, Type 1, BuildingBlock: MIFKUJ_clean_sbu_0, # of connection points: 6
#     Node 13, Type 1, BuildingBlock: MIFKUJ_clean_sbu_0, # of connection points: 6
#     Node 14, Type 1, BuildingBlock: MIFKUJ_clean_sbu_0, # of connection points: 6
#     Node 15, Type 1, BuildingBlock: MIFKUJ_clean_sbu_0, # of connection points: 6
#     Node 16, Type 1, BuildingBlock: MIFKUJ_clean_sbu_0, # of connection points: 6
#     Node 17, Type 1, BuildingBlock: MIFKUJ_clean_sbu_0, # of connection points: 6
#     Node 18, Type 1, BuildingBlock: MIFKUJ_clean_sbu_0, # of connection points: 6
#     Node 19, Type 1, BuildingBlock: MIFKUJ_clean_sbu_0, # of connection points: 6
#     Edge 20, Type (0, 1), BuildingBlock: ZUJKAS_clean_linker_0, # of connection points: 2
#     Edge 21, Type (0, 1), BuildingBlock: ZUJKAS_clean_linker_0, # of connection points: 2
#     Edge 22, Type (0, 1), BuildingBlock: ZUJKAS_clean_linker_0, # of connection points: 2
#     Edge 23, Type (0, 1), BuildingBlock: ZUJKAS_clean_linker_0, # of connection points: 2
#     Edge 24, Type (0, 1), BuildingBlock: ZUJKAS_clean_linker_0, # of connection points: 2
#     Edge 25, Type (0, 1), BuildingBlock: ZUJKAS_clean_linker_0, # of connection points: 2
#     Edge 26, Type (0, 1), BuildingBlock: ZUJKAS_clean_linker_0, # of connection points: 2
#     Edge 27, Type (0, 1), BuildingBlock: ZUJKAS_clean_linker_0, # of connection points: 2
#     Edge 28, Type (0, 1), BuildingBlock: ZUJKAS_clean_linker_0, # of connection points: 2
#     Edge 29, Type (0, 1), BuildingBlock: ZUJKAS_clean_linker_0, # of connection points: 2
#     Edge 30, Type (0, 1), BuildingBlock: ZUJKAS_clean_linker_0, # of connection points: 2
#     Edge 31, Type (0, 1), BuildingBlock: ZUJKAS_clean_linker_0, # of connection points: 2
#     Edge 32, Type (0, 1), BuildingBlock: ZUJKAS_clean_linker_0, # of connection points: 2
#     Edge 33, Type (0, 1), BuildingBlock: ZUJKAS_clean_linker_0, # of connection points: 2
#     Edge 34, Type (0, 1), BuildingBlock: ZUJKAS_clean_linker_0, # of connection points: 2
#     Edge 35, Type (0, 1), BuildingBlock: ZUJKAS_clean_linker_0, # of connection points: 2
#     Edge 36, Type (0, 1), BuildingBlock: ZUJKAS_clean_linker_0, # of connection points: 2
#     Edge 37, Type (0, 1), BuildingBlock: ZUJKAS_clean_linker_0, # of connection points: 2
#     Edge 38, Type (0, 1), BuildingBlock: ZUJKAS_clean_linker_0, # of connection points: 2
#     Edge 39, Type (0, 1), BuildingBlock: ZUJKAS_clean_linker_0, # of connection points: 2
#     Edge 40, Type (0, 1), BuildingBlock: ZUJKAS_clean_linker_0, # of connection points: 2
#     Edge 41, Type (0, 1), BuildingBlock: ZUJKAS_clean_linker_0, # of connection points: 2
#     Edge 42, Type (0, 1), BuildingBlock: ZUJKAS_clean_linker_0, # of connection points: 2
#     Edge 43, Type (0, 1), BuildingBlock: ZUJKAS_clean_linker_0, # of connection points: 2
#     Edge 44, Type (0, 1), BuildingBlock: ZUJKAS_clean_linker_0, # of connection points: 2
#     Edge 45, Type (0, 1), BuildingBlock: ZUJKAS_clean_linker_0, # of connection points: 2
#     Edge 46, Type (0, 1), BuildingBlock: ZUJKAS_clean_linker_0, # of connection points: 2
#     Edge 47, Type (0, 1), BuildingBlock: ZUJKAS_clean_linker_0, # of connection points: 2
#     Edge 48, Type (0, 1), BuildingBlock: ZUJKAS_clean_linker_0, # of connection points: 2
#     Edge 49, Type (0, 1), BuildingBlock: ZUJKAS_clean_linker_0, # of connection points: 2
#     Edge 50, Type (0, 1), BuildingBlock: ZUJKAS_clean_linker_0, # of connection points: 2
#     Edge 51, Type (0, 1), BuildingBlock: ZUJKAS_clean_linker_0, # of connection points: 2
#     Edge 52, Type (0, 1), BuildingBlock: ZUJKAS_clean_linker_0, # of connection points: 2
#     Edge 53, Type (0, 1), BuildingBlock: ZUJKAS_clean_linker_0, # of connection points: 2
#     Edge 54, Type (0, 1), BuildingBlock: ZUJKAS_clean_linker_0, # of connection points: 2
#     Edge 55, Type (0, 1), BuildingBlock: ZUJKAS_clean_linker_0, # of connection points: 2
#     Edge 56, Type (0, 1), BuildingBlock: ZUJKAS_clean_linker_0, # of connection points: 2
#     Edge 57, Type (0, 1), BuildingBlock: ZUJKAS_clean_linker_0, # of connection points: 2
#     Edge 58, Type (0, 1), BuildingBlock: ZUJKAS_clean_linker_0, # of connection points: 2
#     Edge 59, Type (0, 1), BuildingBlock: ZUJKAS_clean_linker_0, # of connection points: 2
#     Edge 60, Type (0, 1), BuildingBlock: ZUJKAS_clean_linker_0, # of connection points: 2
#     Edge 61, Type (0, 1), BuildingBlock: ZUJKAS_clean_linker_0, # of connection points: 2
#     Edge 62, Type (0, 1), BuildingBlock: ZUJKAS_clean_linker_0, # of connection points: 2
#     Edge 63, Type (0, 1), BuildingBlock: ZUJKAS_clean_linker_0, # of connection points: 2
#     Edge 64, Type (0, 1), BuildingBlock: ZUJKAS_clean_linker_0, # of connection points: 2
#     Edge 65, Type (0, 1), BuildingBlock: ZUJKAS_clean_linker_0, # of connection points: 2
#     Edge 66, Type (0, 1), BuildingBlock: ZUJKAS_clean_linker_0, # of connection points: 2
#     Edge 67, Type (0, 1), BuildingBlock: ZUJKAS_clean_linker_0, # of connection points: 2
# Relax obj value: 0.092
# Max RMSD: 0.168
# Mean RMSD: 0.134
data_MOF--net-soc--node1-ESEHIV_clean_sbu_0--node2-MIFKUJ_clean_sbu_0--edge1-ZUJKAS_clean_linker_0
_symmetry_space_group_name_H-M    P1
_symmetry_Int_Tables_number       1
_symmetry_cell_setting            triclinic
loop_
_symmetry_equiv_pos_as_xyz
'x, y, z'
_cell_length_a     60.951569
_cell_length_b     56.812182
_cell_length_c     55.942452
_cell_angle_alpha  91.408455
_cell_angle_beta   91.720129
_cell_angle_gamma 81.535291
loop_
_atom_site_label
_atom_site_type_symbol
_atom_site_fract_x
_atom_site_fract_y
_atom_site_fract_z
_atom_type_partial_charge
Cu0 Cu 0.02132 0.04248 0.29168 0.0
N1 N 0.03963 0.05919 0.31074 0.0
N2 N 0.06439 0.08395 0.31879 0.0
C3 C 0.05547 0.07048 0.30195 0.0
C4 C 0.05371 0.08081 0.33905 0.0
C5 C 0.03834 0.06567 0.33398 0.0
O6 O 0.04148 0.02163 0.27095 0.0
C7 C 0.9825 0.06661 0.26475 0.0
O8 O 0.97956 0.0462 0.25459 0.0
H9 H 0.05983 0.06925 0.28331 0.0
H10 H 0.0264 0.0607 0.34609 0.0
N11 N 1.00616 0.02257 0.30938 0.0
N12 N 0.98414 0.99549 0.31637 0.0
C13 C 0.9895 0.0113 0.30082 0.0
C14 C 1.01144 0.01343 0.33119 0.0
C15 C 0.99795 0.99656 0.33547 0.0
C16 C 0.05513 1.00689 0.28297 0.0
O17 O 0.05429 1.00754 0.30638 0.0
H18 H 0.98226 0.01348 0.28304 0.0
H19 H 0.02489 0.0178 0.34269 0.0
O20 O 0.99959 0.06783 0.2781 0.0
H21 H 0.05598 0.08972 0.35606 0.0
H22 H 0.99848 0.98562 0.35111 0.0
Cu23 Cu 1.01409 0.03446 0.71946 0.0
N24 N 0.99875 0.01461 0.70039 0.0
N25 N 0.97464 0.98915 0.69239 0.0
C26 C 0.98164 1.00484 0.70836 0.0
C27 C 0.98793 0.98929 0.67348 0.0
C28 C 1.00286 1.00494 0.67852 0.0
O29 O 0.99149 0.05707 0.73541 0.0
C30 C 0.05117 1.00212 0.7259 0.0
O31 O 0.05164 1.00687 0.7031 0.0
H32 H 0.97478 0.00902 0.72582 0.0
H33 H 0.01622 1.00834 0.66741 0.0
N34 N 0.03074 0.05304 0.70234 0.0
N35 N 0.05617 0.07682 0.69669 0.0
C36 C 0.04645 0.06452 0.71264 0.0
C37 C 0.03038 0.05817 0.67897 0.0
C38 C 0.04614 0.07282 0.67541 0.0
C39 C 0.97802 0.06816 0.72014 0.0
O40 O 0.98114 0.06309 0.69734 0.0
H41 H 0.05081 0.06347 0.73151 0.0
H42 H 0.01939 0.05187 0.66554 0.0
O43 O 0.03536 0.01281 0.7384 0.0
H44 H 0.98755 0.97822 0.6575 0.0
H45 H 0.04963 0.08023 0.65855 0.0
Cu46 Cu 0.32393 0.02511 0.01055 0.0
N47 N 0.31159 0.01191 0.98369 0.0
N48 N 0.30196 0.986 0.95617 0.0
C49 C 0.31218 0.98882 0.97759 0.0
C50 C 0.29505 1.0083 0.94845 0.0
C51 C 0.30114 0.02419 0.96541 0.0
O52 O 0.3372 1.00011 0.03197 0.0
C53 C 0.33992 0.06787 -0.00065 0.0
O54 O 0.3277 0.07767 0.01687 0.0
H55 H 0.32041 0.97449 0.98843 0.0
H56 H 0.29829 0.0434 0.96447 0.0
N57 N 0.3012 0.04318 0.0271 0.0
N58 N 0.28436 0.06627 0.05582 0.0
C59 C 0.30327 0.05269 0.04908 0.0
C60 C 0.2801 0.05036 0.01981 0.0
C61 C 0.26966 0.06476 0.0375 0.0
C62 C 0.32346 0.98706 0.03905 0.0
O63 O 0.30275 0.99115 0.03121 0.0
H64 H 0.31883 0.05088 0.0592 0.0
H65 H 0.27298 0.04598 0.00265 0.0
O66 O 0.34351 0.04526 0.99722 0.0
H67 H 0.2861 0.01296 0.93186 0.0
H68 H 0.25277 0.07385 0.03666 0.0
Cu69 Cu 0.03462 0.326 0.00928 0.0
N70 N 0.04943 0.34263 0.98816 0.0
N71 N 0.07284 0.34815 0.95958 0.0
C72 C 0.06778 0.33339 0.97641 0.0
C73 C 0.05701 0.3674 0.9607 0.0
C74 C 0.04256 0.36395 0.9784 0.0
O75 O 0.05682 0.30841 0.03123 0.0
C76 C 1.00109 0.29657 0.99197 0.0
O77 O 0.99873 0.29003 0.01401 0.0
H78 H 0.07659 0.31567 0.97936 0.0
H79 H 0.02761 0.37564 0.98314 0.0
N80 N 0.01569 0.34655 0.02877 0.0
N81 N 0.98694 0.35576 0.053 0.0
C82 C 0.99434 0.3446 0.03255 0.0
C83 C 0.02184 0.36023 0.04701 0.0
C84 C 1.00418 0.36597 0.06193 0.0
C85 C 0.07264 0.31953 0.03854 0.0
O86 O 0.07373 0.34068 0.03015 0.0
H87 H 0.98487 0.33388 0.02133 0.0
H88 H 0.03855 0.36387 0.05055 0.0
O89 O 0.01635 0.3088 0.98753 0.0
H90 H 0.05574 0.38265 0.94924 0.0
H91 H 1.00477 0.37502 0.07914 0.0
Cu92 Cu 0.71149 0.02701 0.99506 0.0
N93 N 0.69287 0.04613 0.97439 0.0
N94 N 0.68569 0.07712 0.95019 0.0
C95 C 0.69523 0.06889 0.97099 0.0
C96 C 0.67629 0.05888 0.94047 0.0
C97 C 0.68089 0.03967 0.95541 0.0
O98 O 0.72666 0.04945 0.01347 0.0
C99 C 0.73196 0.98227 0.97606 0.0
O100 O 0.7242 0.9732 0.99483 0.0
H101 H 0.70551 0.07847 0.98257 0.0
H102 H 0.67776 0.0217 0.95153 0.0
N103 N 0.69498 0.01144 0.01537 0.0
N104 N 0.68741 0.98846 0.04493 0.0
C105 C 0.70286 0.99958 0.03504 0.0
C106 C 0.67367 1.00801 0.01279 0.0
C107 C 0.66894 0.99375 0.031 0.0
C108 C 0.74048 0.04647 0.03097 0.0
O109 O 0.74858 0.02488 0.03768 0.0
H110 H 0.72002 0.99777 0.041 0.0
H111 H 0.66256 0.01481 -0.00169 0.0
O112 O 0.73001 1.00479 0.9743 0.0
H113 H 0.66864 0.0586 0.92278 0.0
H114 H 0.65327 0.98745 0.0335 0.0
Cu115 Cu 0.02184 0.72447 -0.0022 0.0
N116 N 1.00273 0.70761 0.98065 0.0
N117 N 0.97617 0.70291 0.95346 0.0
C118 C 0.98601 0.71846 0.96703 0.0
C119 C 0.98722 0.68122 0.95892 0.0
C120 C 1.00377 0.68422 0.97563 0.0
O121 O 1.00594 0.74249 0.02324 0.0
C122 C 0.04681 0.75854 0.97728 0.0
O123 O 0.04788 0.76912 -0.00166 0.0
H124 H 0.98185 0.73755 0.96652 0.0
H125 H 0.01628 0.67044 0.98258 0.0
N126 N 0.04424 0.70455 0.0131 0.0
N127 N 0.07357 0.69781 0.03791 0.0
C128 C 0.06256 0.71254 0.02172 0.0
C129 C 0.04365 0.68378 0.02398 0.0
C130 C 0.06198 0.67943 0.0392 0.0
C131 C 0.9889 0.75827 0.02182 0.0
O132 O 0.98193 0.76684 0.00092 0.0
H133 H 0.06669 0.72985 0.01774 0.0
H134 H 0.02987 0.67378 0.02282 0.0
O135 O 0.03542 0.74164 0.97435 0.0
H136 H 0.98436 0.66449 0.95067 0.0
H137 H 0.06531 0.66517 0.05187 0.0
Cu138 Cu 0.51597 0.5349 0.79242 0.0
N139 N 0.53318 0.55365 0.81034 0.0
N140 N 0.5566 0.58005 0.81697 0.0
C141 C 0.54444 0.56944 0.80053 0.0
C142 C 0.5528 0.57038 0.83802 0.0
C143 C 0.53835 0.55405 0.83386 0.0
O144 O 0.53743 0.5113 0.77593 0.0
C145 C 0.47494 0.5553 0.77001 0.0
O146 O 0.46872 0.53451 0.77338 0.0
H147 H 0.54414 0.57246 0.7815 0.0
H148 H 0.53238 0.543 0.84695 0.0
N149 N 0.49906 0.51839 0.81161 0.0
N150 N 0.47599 0.49271 0.82004 0.0
C151 C 0.4911 0.49832 0.80479 0.0
C152 C 0.48906 0.52557 0.83217 0.0
C153 C 0.4749 0.5097 0.83748 0.0
C154 C 0.54855 0.49678 0.79045 0.0
O155 O 0.54406 0.499 0.81329 0.0
H156 H 0.49541 0.48892 0.78814 0.0
H157 H 0.49084 0.54197 0.84176 0.0
O158 O 0.4952 0.55779 0.77398 0.0
H159 H 0.5599 0.57472 0.85523 0.0
H160 H 0.46357 0.51154 0.85216 0.0
Cu161 Cu 0.51806 0.53597 0.21887 0.0
N162 N 0.50073 0.51668 0.20123 0.0
N163 N 0.47549 0.49222 0.19427 0.0
C164 C 0.48522 0.5054 0.21075 0.0
C165 C 0.4854 0.49537 0.17353 0.0
C166 C 0.50094 0.51046 0.17787 0.0
O167 O 0.49745 0.55829 0.23768 0.0
C168 C 0.55388 0.5021 0.21927 0.0
O169 O 0.54955 0.50666 0.19657 0.0
H170 H 0.48149 0.50658 0.22957 0.0
H171 H 0.51173 0.51628 0.16496 0.0
N172 N 0.53272 0.55527 0.20013 0.0
N173 N 0.55665 0.58008 0.19183 0.0
C174 C 0.55029 0.56538 0.20804 0.0
C175 C 0.52768 0.56383 0.17812 0.0
C176 C 0.54245 0.57913 0.17294 0.0
C177 C 0.48144 0.56866 0.22471 0.0
O178 O 0.48063 0.56313 0.20181 0.0
H179 H 0.5577 0.56262 0.22576 0.0
H180 H 0.51394 0.55975 0.16689 0.0
O181 O 0.54137 0.5138 0.23475 0.0
H182 H 0.48163 0.4875 0.15637 0.0
H183 H 0.54257 0.58889 0.1566 0.0
Cu184 Cu 0.82224 0.54687 0.50322 0.0
N185 N 0.83781 0.56239 0.48188 0.0
N186 N 0.84213 0.58746 0.45284 0.0
C187 C 0.8281 0.58059 0.46858 0.0
C188 C 0.8615 0.57292 0.45645 0.0
C189 C 0.85876 0.55741 0.47434 0.0
O190 O 0.80605 0.57092 0.52373 0.0
C191 C 0.81756 0.5101 0.47369 0.0
O192 O 0.83913 0.50967 0.47579 0.0
H193 H 0.81072 0.58784 0.46978 0.0
H194 H 0.87095 0.54299 0.4806 0.0
N195 N 0.83992 0.52624 0.52372 0.0
N196 N 0.84664 0.49696 0.54989 0.0
C197 C 0.83104 0.51132 0.53752 0.0
C198 C 0.86202 0.52139 0.52764 0.0
C199 C 0.86623 0.50308 0.54372 0.0
C200 C 0.81917 0.58185 0.53646 0.0
O201 O 0.84062 0.57633 0.53343 0.0
H202 H 0.81342 0.51047 0.53778 0.0
H203 H 0.87422 0.53028 0.51937 0.0
O204 O 0.80495 0.52674 0.48433 0.0
H205 H 0.8765 0.57314 0.44665 0.0
H206 H 0.88237 0.4949 0.55032 0.0
Cu207 Cu 0.51517 0.8348 0.50428 0.0
N208 N 0.53066 0.81803 0.47968 0.0
N209 N 0.55471 0.80904 0.45056 0.0
C210 C 0.54789 0.82451 0.46837 0.0
C211 C 0.54117 0.79228 0.45052 0.0
C212 C 0.52635 0.79785 0.46861 0.0
O213 O 0.53406 0.85276 0.52325 0.0
C214 C 0.47445 0.84145 0.48289 0.0
O215 O 0.47777 0.81833 0.48574 0.0
H216 H 0.55506 0.84043 0.47292 0.0
H217 H 0.51332 0.78793 0.47331 0.0
N218 N 0.50555 0.81406 0.52535 0.0
N219 N 0.48423 0.80107 0.55214 0.0
C220 C 0.48736 0.81934 0.53847 0.0
C221 C 0.51445 0.79174 0.53107 0.0
C222 C 0.50127 0.78365 0.54778 0.0
C223 C 0.55251 0.84093 0.52981 0.0
O224 O 0.55778 0.819 0.52168 0.0
H225 H 0.47661 0.8363 0.53794 0.0
H226 H 0.52935 0.78206 0.52353 0.0
O227 O 0.4894 0.85365 0.48992 0.0
H228 H 0.54212 0.77696 0.4385 0.0
H229 H 0.50373 0.76625 0.55572 0.0
Cu230 Cu 0.20573 0.55442 0.49963 0.0
N231 N 0.19078 0.57985 0.48246 0.0
N232 N 0.18693 0.6101 0.45712 0.0
C233 C 0.20106 0.59257 0.46752 0.0
C234 C 0.16683 0.60822 0.4658 0.0
C235 C 0.16923 0.58943 0.48134 0.0
O236 O 0.2236 0.56722 0.52421 0.0
C237 C 0.23706 0.5165 0.47894 0.0
O238 O 0.24614 0.51219 0.50027 0.0
H239 H 0.21869 0.58909 0.46454 0.0
H240 H 0.15615 0.58318 0.49088 0.0
N241 N 0.18725 0.53769 0.51635 0.0
N242 N 0.18159 0.51108 0.54364 0.0
C243 C 0.19432 0.51618 0.52561 0.0
C244 C 0.16921 0.54657 0.52869 0.0
C245 C 0.16554 0.53017 0.5453 0.0
C246 C 0.2388 0.57997 0.52194 0.0
O247 O 0.2467 0.58258 0.50074 0.0
H248 H 0.20974 0.50565 0.52061 0.0
H249 H 0.16083 0.56466 0.52769 0.0
O250 O 0.22131 0.53356 0.47614 0.0
H251 H 0.15145 0.61939 0.46103 0.0
H252 H 0.15324 0.5333 0.55899 0.0
Cu253 Cu 0.49968 0.2472 0.50553 0.0
N254 N 0.5203 0.22844 0.48631 0.0
N255 N 0.54856 0.22116 0.46129 0.0
C256 C 0.53715 0.23712 0.47627 0.0
C257 C 0.53847 0.20158 0.46196 0.0
C258 C 0.52105 0.2061 0.4774 0.0
O259 O 0.51791 0.26517 0.52646 0.0
C260 C 0.46818 0.25027 0.46997 0.0
O261 O 0.47354 0.22728 0.47297 0.0
H262 H 0.54031 0.25524 0.47917 0.0
H263 H 0.50931 0.19422 0.48098 0.0
N264 N 0.48398 0.22983 0.52538 0.0
N265 N 0.46014 0.22328 0.55342 0.0
C266 C 0.46857 0.23975 0.54081 0.0
C267 C 0.48554 0.20623 0.52828 0.0
C268 C 0.47086 0.20213 0.54542 0.0
C269 C 0.52991 0.25183 0.54134 0.0
O270 O 0.52804 0.22909 0.54135 0.0
H271 H 0.46404 0.2588 0.54286 0.0
H272 H 0.49679 0.19288 0.51899 0.0
O273 O 0.47764 0.26444 0.4835 0.0
H274 H 0.54311 0.18525 0.45178 0.0
H275 H 0.46843 0.18478 0.5514 0.0
Zn276 Zn 0.27855 0.31503 0.25169 0.0
Zn277 Zn 0.25015 0.27643 0.27047 0.0
C278 C 0.25349 0.35557 0.27694 0.0
O279 O 0.24982 0.36495 0.2557 0.0
C280 C 0.27539 0.23556 0.24825 0.0
O281 O 0.27734 0.22779 0.27025 0.0
O282 O 0.29957 0.33553 0.23697 0.0
O283 O 0.29803 0.28823 0.26852 0.0
O284 O 0.27307 0.28443 0.29532 0.0
C285 C 0.30942 0.34891 0.25096 0.0
O286 O 0.30582 0.34883 0.27399 0.0
O287 O 0.26377 0.33455 0.27866 0.0
C288 C 0.21756 0.24543 0.26972 0.0
O289 O 0.21864 0.25017 0.24695 0.0
O290 O 0.22977 0.25516 0.28473 0.0
O291 O 0.23036 0.30268 0.25319 0.0
O292 O 0.25539 0.30715 0.22675 0.0
O293 O 0.26567 0.2565 0.24447 0.0
C294 C 0.29325 0.28451 0.28999 0.0
C295 C 0.23525 0.30628 0.23174 0.0
Zn296 Zn 0.75763 0.2853 0.28954 0.0
Zn297 Zn 0.775 0.28175 0.21562 0.0
C298 C 0.7799 0.31093 0.32693 0.0
O299 O 0.79308 0.2908 0.3306 0.0
C300 C 0.74976 0.25204 0.18345 0.0
O301 O 0.73166 0.2669 0.18797 0.0
O302 O 0.7354 0.27011 0.30784 0.0
O303 O 0.74476 0.30142 0.2592 0.0
O304 O 0.74708 0.30554 0.22047 0.0
C305 C 0.7149 0.27204 0.30214 0.0
O306 O 0.7077 0.2829 0.28235 0.0
O307 O 0.76487 0.31196 0.31065 0.0
C308 C 0.81055 0.28611 0.18472 0.0
O309 O 0.80837 0.2637 0.18068 0.0
O310 O 0.79822 0.29816 0.19997 0.0
O311 O 0.78776 0.26574 0.246 0.0
O312 O 0.78544 0.26146 0.28469 0.0
O313 O 0.76812 0.25546 0.19324 0.0
C314 C 0.73706 0.31121 0.23988 0.0
C315 C 0.79548 0.25591 0.26529 0.0
Zn316 Zn 0.80414 0.79837 0.24411 0.0
Zn317 Zn 0.75046 0.76596 0.24276 0.0
C318 C 0.84237 0.77316 0.21933 0.0
O319 O 0.85135 0.77008 0.24087 0.0
C320 C 0.71623 0.78262 0.27278 0.0
O321 O 0.70678 0.78407 0.25134 0.0
O322 O 0.82114 0.82388 0.25857 0.0
O323 O 0.77616 0.81388 0.22794 0.0
O324 O 0.74625 0.79563 0.22324 0.0
C325 C 0.83231 0.83483 0.24482 0.0
O326 O 0.83148 0.83023 0.2217 0.0
O327 O 0.82236 0.78301 0.21703 0.0
C328 C 0.7283 0.72437 0.23985 0.0
O329 O 0.73862 0.72067 0.26068 0.0
O330 O 0.73168 0.7422 0.22785 0.0
O331 O 0.78249 0.75183 0.24681 0.0
O332 O 0.80042 0.7752 0.2695 0.0
O333 O 0.73691 0.77522 0.27465 0.0
C334 C 0.75651 0.8132 0.21989 0.0
C335 C 0.79169 0.75634 0.26671 0.0
Zn336 Zn 0.28564 0.805 0.27561 0.0
Zn337 Zn 0.26387 0.78687 0.23251 0.0
C338 C 0.25598 0.78739 0.30916 0.0
O339 O 0.24952 0.81009 0.31382 0.0
C340 C 0.28496 0.80746 0.19374 0.0
O341 O 0.28095 0.78793 0.18245 0.0
O342 O 0.30236 0.82132 0.30052 0.0
O343 O 0.30919 0.7856 0.2555 0.0
O344 O 0.28622 0.7605 0.24568 0.0
C345 C 0.31638 0.80833 0.31353 0.0
O346 O 0.319 0.78512 0.31014 0.0
O347 O 0.27042 0.78141 0.29333 0.0
C348 C 0.2302 0.78405 0.19731 0.0
O349 O 0.22585 0.80683 0.2029 0.0
O350 O 0.24638 0.77136 0.20772 0.0
O351 O 0.24074 0.8048 0.254 0.0
O352 O 0.26312 0.83097 0.2612 0.0
O353 O 0.27962 0.81072 0.21553 0.0
C354 C 0.30592 0.76459 0.24974 0.0
C355 C 0.2435 0.82618 0.25846 0.0
Zn356 Zn 0.24618 0.76727 0.77231 0.0
Zn357 Zn 0.27232 0.78564 0.73774 0.0
C358 C 0.27007 0.78398 0.81241 0.0
O359 O 0.26976 0.76222 0.8197 0.0
C360 C 0.24789 0.76529 0.69824 0.0
O361 O 0.24323 0.78713 0.69046 0.0
O362 O 0.22538 0.75628 0.79558 0.0
O363 O 0.22577 0.78721 0.74884 0.0
O364 O 0.24929 0.81279 0.74802 0.0
C365 C 0.21435 0.77386 0.80653 0.0
O366 O 0.21728 0.79553 0.80112 0.0
O367 O 0.26178 0.78992 0.79197 0.0
C368 C 0.30267 0.78293 0.70108 0.0
O369 O 0.29907 0.76074 0.70167 0.0
O370 O 0.29286 0.79821 0.71561 0.0
O371 O 0.29269 0.76669 0.76156 0.0
O372 O 0.26988 0.74021 0.76187 0.0
O373 O 0.25808 0.76156 0.71821 0.0
C374 C 0.2294 0.80857 0.74702 0.0
C375 C 0.28963 0.74512 0.76314 0.0
Zn376 Zn 0.2623 0.24323 0.7655 0.0
Zn377 Zn 0.27953 0.31366 0.75821 0.0
C378 C 0.28637 0.20291 0.78984 0.0
O379 O 0.28898 0.19408 0.768 0.0
C380 C 0.2485 0.34815 0.73238 0.0
O381 O 0.23691 0.34884 0.75186 0.0
O382 O 0.23694 0.22778 0.75114 0.0
O383 O 0.25226 0.27611 0.77963 0.0
O384 O 0.25585 0.31402 0.78274 0.0
C385 C 0.22381 0.21976 0.76506 0.0
O386 O 0.22642 0.22296 0.78825 0.0
O387 O 0.27555 0.22356 0.79292 0.0
C388 C 0.31751 0.33749 0.75868 0.0
O389 O 0.31357 0.33586 0.73553 0.0
O390 O 0.3054 0.32821 0.77279 0.0
O391 O 0.28848 0.28062 0.74443 0.0
O392 O 0.28613 0.24261 0.74095 0.0
O393 O 0.26685 0.33436 0.7312 0.0
C394 C 0.24603 0.2968 0.78844 0.0
C395 C 0.29502 0.26036 0.73489 0.0
Zn396 Zn 0.77986 0.28959 0.79334 0.0
Zn397 Zn 0.75741 0.28999 0.71972 0.0
C398 C 0.75958 0.26973 0.83326 0.0
O399 O 0.76334 0.28896 0.84529 0.0
C400 C 0.78519 0.30743 0.6844 0.0
O401 O 0.79403 0.28504 0.68157 0.0
O402 O 0.80598 0.29875 0.81388 0.0
O403 O 0.79004 0.26995 0.76359 0.0
O404 O 0.78277 0.26301 0.7254 0.0
C405 C 0.81798 0.28177 0.82468 0.0
O406 O 0.81309 0.26013 0.82152 0.0
O407 O 0.7655 0.26675 0.81173 0.0
C408 C 0.72119 0.29322 0.68519 0.0
O409 O 0.72866 0.31336 0.68175 0.0
O410 O 0.73053 0.27947 0.70139 0.0
O411 O 0.74882 0.30887 0.74994 0.0
O412 O 0.7549 0.31718 0.78784 0.0
O413 O 0.76996 0.31298 0.6994 0.0
C414 C 0.79504 0.25861 0.74408 0.0
C415 C 0.74311 0.32097 0.76876 0.0
Zn416 Zn 0.72793 0.78165 0.75114 0.0
Zn417 Zn 0.78268 0.8055 0.74412 0.0
C418 C 0.68888 0.81404 0.73407 0.0
O419 O 0.68183 0.81405 0.75603 0.0
C420 C 0.81461 0.77427 0.76995 0.0
O421 O 0.81963 0.7673 0.74797 0.0
O422 O 0.70995 0.75791 0.76477 0.0
O423 O 0.74958 0.76365 0.72879 0.0
O424 O 0.77999 0.77886 0.72011 0.0
C425 C 0.69674 0.74836 0.75082 0.0
O426 O 0.69527 0.75415 0.72817 0.0
O427 O 0.70772 0.80258 0.7291 0.0
C428 C 0.81211 0.84061 0.74594 0.0
O429 O 0.80771 0.83995 0.76875 0.0
O430 O 0.80285 0.82749 0.73118 0.0
O431 O 0.75402 0.82487 0.75428 0.0
O432 O 0.73938 0.80132 0.77784 0.0
O433 O 0.79847 0.79076 0.77327 0.0
C434 C 0.76722 0.76315 0.71712 0.0
C435 C 0.74776 0.82021 0.77487 0.0
H436 H 0.0909 0.10148 0.35271 0.0
H437 H 0.11683 0.12976 0.34707 0.0
H438 H 0.10112 0.13031 0.27142 0.0
H439 H 0.07459 0.10294 0.27695 0.0
H440 H 0.15408 0.12633 0.31998 0.0
H441 H 0.09162 0.20069 0.28854 0.0
H442 H 0.08401 0.17472 0.30221 0.0
H443 H 0.09104 0.17384 0.27115 0.0
C444 C 0.09273 0.1078 0.3349 0.0
C445 C 0.08041 0.09994 0.31537 0.0
C446 C 0.1077 0.12387 0.33169 0.0
C447 C 0.11063 0.13253 0.3089 0.0
C448 C 0.09879 0.12432 0.28927 0.0
H449 H 0.18979 0.2229 0.24123 0.0
H450 H 0.16481 0.19568 0.25279 0.0
C451 C 0.08378 0.10833 0.29246 0.0
C452 C 0.12624 0.14991 0.30551 0.0
H453 H 0.12956 0.20455 0.28289 0.0
C454 C 0.14872 0.14354 0.31209 0.0
C455 C 0.11919 0.17243 0.29535 0.0
C456 C 0.09511 0.18096 0.28913 0.0
C457 C 0.16448 0.15864 0.30785 0.0
C458 C 0.15751 0.18088 0.29706 0.0
C459 C 0.13493 0.18747 0.29106 0.0
C460 C 0.17339 0.19708 0.29054 0.0
C461 C 0.18855 0.15027 0.31414 0.0
C462 C 0.18655 0.20712 0.30795 0.0
C463 C 0.20101 0.22281 0.30136 0.0
C464 C 0.20245 0.22883 0.27725 0.0
C465 C 0.18917 0.21873 0.25996 0.0
C466 C 0.17482 0.20312 0.26654 0.0
H467 H 0.1918 0.1308 0.3172 0.0
H468 H 0.19942 0.15451 0.29975 0.0
H469 H 0.1932 0.15953 0.33081 0.0
H470 H 0.18545 0.20307 0.32665 0.0
H471 H 0.21095 0.23029 0.31513 0.0
H472 H 0.94266 0.07025 0.23989 0.0
H473 H 0.91214 0.10342 0.24051 0.0
H474 H 0.95041 0.14281 0.28873 0.0
H475 H 0.98121 0.11002 0.28774 0.0
H476 H 0.88776 0.12238 0.27726 0.0
H477 H 0.93035 0.19235 0.23955 0.0
H478 H 0.94225 0.16133 0.23897 0.0
H479 H 0.94391 0.17908 0.26588 0.0
C480 C 0.94478 0.08612 0.25031 0.0
C481 C 0.96458 0.08749 0.2635 0.0
C482 C 0.92722 0.10506 0.25076 0.0
C483 C 0.92901 0.12586 0.26436 0.0
C484 C 0.94875 0.12728 0.27759 0.0
H485 H 0.8137 0.22935 0.30297 0.0
H486 H 0.84599 0.19838 0.30343 0.0
C487 C 0.96637 0.10841 0.27705 0.0
C488 C 0.90991 0.14558 0.26523 0.0
H489 H 0.89434 0.20478 0.25436 0.0
C490 C 0.8892 0.14038 0.27218 0.0
C491 C 0.91171 0.16912 0.25858 0.0
C492 C 0.93319 0.17582 0.25012 0.0
C493 C 0.87031 0.15789 0.27248 0.0
C494 C 0.87216 0.18148 0.26608 0.0
C495 C 0.89288 0.18674 0.25928 0.0
C496 C 0.85275 0.20085 0.2659 0.0
C497 C 0.84841 0.15074 0.27905 0.0
C498 C 0.84608 0.21324 0.24482 0.0
C499 C 0.82759 0.23119 0.2445 0.0
C500 C 0.81547 0.23727 0.26535 0.0
C501 C 0.8225 0.22512 0.28652 0.0
C502 C 0.84093 0.20722 0.2868 0.0
H503 H 0.84855 0.13121 0.27707 0.0
H504 H 0.8451 0.1558 0.29803 0.0
H505 H 0.83458 0.15988 0.26779 0.0
H506 H 0.85503 0.20879 0.22849 0.0
H507 H 0.82277 0.24022 0.22792 0.0
H508 H 0.94083 1.00798 0.30608 0.0
H509 H 0.91315 0.98126 0.29839 0.0
H510 H 0.96432 0.92065 0.30731 0.0
H511 H 0.99145 0.94762 0.31689 0.0
H512 H 0.90813 0.95296 0.26513 0.0
H513 H 0.91954 0.89757 0.34545 0.0
H514 H 0.93257 0.92387 0.34306 0.0
H515 H 0.94519 0.89581 0.33028 0.0
C516 C 0.9459 0.98892 0.30682 0.0
C517 C 0.96801 0.97971 0.3124 0.0
C518 C 0.93018 0.97363 0.30236 0.0
C519 C 0.9364 0.94877 0.30276 0.0
C520 C 0.95875 0.93963 0.30786 0.0
H521 H 0.86456 0.85266 0.22147 0.0
H522 H 0.88896 0.88012 0.23677 0.0
C523 C 0.97432 0.95498 0.31309 0.0
C524 C 0.9198 0.93263 0.29625 0.0
H525 H 0.90063 0.88159 0.31172 0.0
C526 C 0.90636 0.93756 0.27559 0.0
C527 C 0.91699 0.91266 0.30997 0.0
C528 C 0.92918 0.90735 0.33355 0.0
C529 C 0.89073 0.92295 0.268 0.0
C530 C 0.88917 0.902 0.28065 0.0
C531 C 0.90208 0.89738 0.30171 0.0
C532 C 0.87472 0.88443 0.27189 0.0
C533 C 0.8758 0.93047 0.24667 0.0
C534 C 0.85923 0.87663 0.28686 0.0
C535 C 0.84546 0.86039 0.27825 0.0
C536 C 0.84688 0.85176 0.25447 0.0
C537 C 0.86271 0.85925 0.23974 0.0
C538 C 0.87663 0.87513 0.24844 0.0
H539 H 0.87343 0.95011 0.24468 0.0
H540 H 0.88358 0.92236 0.23016 0.0
H541 H 0.85924 0.92477 0.24815 0.0
H542 H 0.85758 0.88333 0.30511 0.0
H543 H 0.83356 0.85482 0.2901 0.0
H544 H 0.09159 0.01341 0.25807 0.0
H545 H 0.12394 0.98297 0.25035 0.0
H546 H 0.08916 0.92926 0.27834 0.0
H547 H 0.05712 0.95952 0.28614 0.0
H548 H 0.14684 0.95435 0.28838 0.0
H549 H 0.11583 0.89803 0.21616 0.0
H550 H 0.1028 0.92811 0.22249 0.0
H551 H 0.098 0.90423 0.24123 0.0
C552 C 0.09059 0.99493 0.26156 0.0
C553 C 0.07167 0.98861 0.27199 0.0
C554 C 0.10913 0.97762 0.25746 0.0
C555 C 0.10886 0.95377 0.2635 0.0
C556 C 0.0896 0.9474 0.27306 0.0
H557 H 0.20003 0.82136 0.26425 0.0
H558 H 0.16816 0.85289 0.2664 0.0
C559 C 0.07126 0.96467 0.27739 0.0
C560 C 0.12919 0.93585 0.26184 0.0
H561 H 0.14966 0.88248 0.2358 0.0
C562 C 0.1476 0.93873 0.27671 0.0
C563 C 0.12995 0.91527 0.247 0.0
C564 C 0.11066 0.91122 0.23066 0.0
C565 C 0.16657 0.92132 0.27759 0.0
C566 C 0.16751 0.90081 0.26244 0.0
C567 C 0.14908 0.89812 0.2474 0.0
C568 C 0.1872 0.88177 0.26197 0.0
C569 C 0.18492 0.92472 0.29551 0.0
C570 C 0.20862 0.88729 0.2586 0.0
C571 C 0.22694 0.86929 0.25792 0.0
C572 C 0.22418 0.84528 0.25987 0.0
C573 C 0.20272 0.83969 0.26274 0.0
C574 C 0.18447 0.85774 0.26392 0.0
H575 H 0.17858 0.93643 0.31075 0.0
H576 H 0.19306 0.90749 0.30271 0.0
H577 H 0.19758 0.93344 0.28669 0.0
H578 H 0.2112 0.90551 0.25616 0.0
H579 H 0.24323 0.87416 0.25536 0.0
H580 H 0.09507 1.00199 0.72266 0.0
H581 H 0.12456 0.96845 0.72935 0.0
H582 H 0.07659 0.92707 0.75516 0.0
H583 H 0.04691 0.96096 0.74867 0.0
H584 H 0.1386 0.94108 0.77137 0.0
H585 H 0.10626 0.88774 0.69715 0.0
H586 H 0.09739 0.91933 0.70095 0.0
H587 H 0.08692 0.89875 0.71991 0.0
C588 C 0.09095 0.98597 0.73046 0.0
C589 C 0.06886 0.98413 0.73558 0.0
C590 C 0.10775 0.96678 0.73409 0.0
C591 C 0.10272 0.94519 0.74244 0.0
C592 C 0.08077 0.94356 0.74851 0.0
H593 H 0.18514 0.80647 0.75154 0.0
H594 H 0.15455 0.83955 0.75144 0.0
C595 C 0.06392 0.96298 0.74517 0.0
C596 C 0.12048 0.92433 0.74388 0.0
H597 H 0.13839 0.87012 0.71794 0.0
C598 C 0.13852 0.92547 0.75981 0.0
C599 C 0.1204 0.90411 0.72863 0.0
C600 C 0.10183 0.90233 0.71053 0.0
C601 C 0.15638 0.9068 0.76117 0.0
C602 C 0.15649 0.88667 0.74567 0.0
C603 C 0.13833 0.8855 0.72982 0.0
C604 C 0.17522 0.86664 0.74553 0.0
C605 C 0.17472 0.90874 0.77953 0.0
C606 C 0.19702 0.87071 0.74175 0.0
C607 C 0.21459 0.85184 0.74199 0.0
C608 C 0.21067 0.82841 0.7456 0.0
C609 C 0.18875 0.82428 0.7487 0.0
C610 C 0.17123 0.84319 0.74867 0.0
H611 H 0.1689 0.92107 0.79451 0.0
H612 H 0.18136 0.89111 0.787 0.0
H613 H 0.18844 0.91593 0.77096 0.0
H614 H 0.20049 0.8885 0.73854 0.0
H615 H 0.23124 0.85564 0.73938 0.0
H616 H 0.08607 0.08869 0.66565 0.0
H617 H 0.11591 0.11234 0.6746 0.0
H618 H 0.09546 0.12131 0.74777 0.0
H619 H 0.06565 0.09795 0.73904 0.0
H620 H 0.11433 0.1587 0.69168 0.0
H621 H 0.16104 0.09586 0.7556 0.0
H622 H 0.13915 0.0877 0.73608 0.0
H623 H 0.1326 0.1043 0.76341 0.0
C624 C 0.08784 0.09578 0.68361 0.0
C625 C 0.07354 0.09115 0.70165 0.0
C626 C 0.10497 0.10921 0.68872 0.0
C627 C 0.1082 0.11814 0.71197 0.0
C628 C 0.09367 0.11402 0.72986 0.0
H629 H 0.19101 0.20417 0.78969 0.0
H630 H 0.16362 0.17976 0.77475 0.0
C631 C 0.0766 0.10062 0.7248 0.0
C632 C 0.12646 0.13217 0.71758 0.0
H633 H 0.17095 0.135 0.75552 0.0
C634 C 0.12688 0.15344 0.70546 0.0
C635 C 0.14287 0.12517 0.73547 0.0
C636 C 0.14407 0.10189 0.74822 0.0
C637 C 0.14265 0.16847 0.71151 0.0
C638 C 0.15863 0.16182 0.72994 0.0
C639 C 0.15859 0.14019 0.74153 0.0
C640 C 0.17494 0.17743 0.73835 0.0
C641 C 0.14152 0.19173 0.69874 0.0
C642 C 0.19048 0.18426 0.72286 0.0
C643 C 0.20611 0.19846 0.73134 0.0
C644 C 0.20664 0.20581 0.75554 0.0
C645 C 0.19106 0.19888 0.77095 0.0
C646 C 0.1754 0.18487 0.76245 0.0
H647 H 0.12519 0.19681 0.68946 0.0
H648 H 0.14451 0.20633 0.71142 0.0
H649 H 0.15451 0.18992 0.68508 0.0
H650 H 0.19079 0.17829 0.70433 0.0
H651 H 0.21803 0.20328 0.71905 0.0
H652 H 0.94177 0.08289 0.69256 0.0
H653 H 0.91181 0.11508 0.70017 0.0
H654 H 0.94055 0.12746 0.76991 0.0
H655 H 0.97128 0.09502 0.76212 0.0
H656 H 0.88084 0.12065 0.73397 0.0
H657 H 0.93204 0.19386 0.74141 0.0
H658 H 0.9429 0.16443 0.73047 0.0
H659 H 0.93972 0.17008 0.76201 0.0
C660 C 0.94185 0.09239 0.70958 0.0
C661 C 0.95906 0.08647 0.72668 0.0
C662 C 0.9246 0.11083 0.71391 0.0
C663 C 0.92403 0.12402 0.73543 0.0
C664 C 0.94085 0.11783 0.75295 0.0
H665 H 0.82779 0.2468 0.77844 0.0
H666 H 0.85874 0.214 0.77729 0.0
C667 C 0.95826 0.09914 0.74863 0.0
C668 C 0.90551 0.14393 0.73909 0.0
H669 H 0.89352 0.20434 0.74662 0.0
C670 C 0.88364 0.13894 0.73688 0.0
C671 C 0.90912 0.16784 0.74268 0.0
C672 C 0.93219 0.17452 0.74408 0.0
C673 C 0.86532 0.15706 0.73816 0.0
C674 C 0.86889 0.18101 0.74149 0.0
C675 C 0.89076 0.186 0.7441 0.0
C676 C 0.85017 0.20112 0.74202 0.0
C677 C 0.8423 0.15027 0.73611 0.0
C678 C 0.83525 0.20517 0.72242 0.0
C679 C 0.81747 0.22382 0.7231 0.0
C680 C 0.81421 0.239 0.74337 0.0
C681 C 0.8295 0.23525 0.76275 0.0
C682 C 0.84731 0.21656 0.76205 0.0
H683 H 0.84231 0.13132 0.74057 0.0
H684 H 0.83072 0.16159 0.74807 0.0
H685 H 0.83593 0.15272 0.71741 0.0
H686 H 0.83739 0.19393 0.70649 0.0
H687 H 0.8062 0.22625 0.70772 0.0
H688 H 0.95302 0.96585 0.65798 0.0
H689 H 0.92431 0.94081 0.66389 0.0
H690 H 0.92859 0.95379 0.73998 0.0
H691 H 0.95741 0.97832 0.73447 0.0
H692 H 0.92639 0.89934 0.69201 0.0
H693 H 0.86208 0.97171 0.72372 0.0
H694 H 0.88643 0.97741 0.70853 0.0
H695 H 0.88816 0.97042 0.73977 0.0
C696 C 0.94798 0.96334 0.67599 0.0
C697 C 0.95755 0.97442 0.69568 0.0
C698 C 0.93148 0.94907 0.67931 0.0
C699 C 0.92405 0.9458 0.70232 0.0
C700 C 0.93371 0.95653 0.722 0.0
H701 H 0.83429 0.87026 0.77343 0.0
H702 H 0.861 0.89514 0.76077 0.0
C703 C 0.95023 0.97068 0.71875 0.0
C704 C 0.90651 0.93081 0.70601 0.0
H705 H 0.85543 0.93199 0.7298 0.0
C706 C 0.91075 0.90646 0.70001 0.0
C707 C 0.88614 0.94021 0.71643 0.0
C708 C 0.88028 0.96641 0.7223 0.0
C709 C 0.89553 0.89104 0.70513 0.0
C710 C 0.87535 0.90034 0.7161 0.0
C711 C 0.87091 0.92484 0.72147 0.0
C712 C 0.85909 0.88491 0.72335 0.0
C713 C 0.90161 0.86479 0.69964 0.0
C714 C 0.8489 0.87099 0.70648 0.0
C715 C 0.83359 0.85659 0.7137 0.0
C716 C 0.82806 0.85601 0.73791 0.0
C717 C 0.83813 0.8702 0.75465 0.0
C718 C 0.85343 0.8845 0.74744 0.0
H719 H 0.91968 0.85984 0.69675 0.0
H720 H 0.89683 0.85397 0.71436 0.0
H721 H 0.89262 0.86015 0.68306 0.0
H722 H 0.85265 0.87138 0.68771 0.0
H723 H 0.8261 0.84594 0.70033 0.0
H724 H 0.25664 0.10803 0.06005 0.0
H725 H 0.25604 0.13693 0.09319 0.0
H726 H 0.30643 0.08966 0.13104 0.0
H727 H 0.30684 0.0604 0.09822 0.0
H728 H 0.24933 0.13113 0.14431 0.0
H729 H 0.33231 0.15374 0.1235 0.0
H730 H 0.31599 0.13858 0.10235 0.0
H731 H 0.33096 0.12254 0.12646 0.0
C732 C 0.26726 0.10353 0.07561 0.0
C733 C 0.28196 0.08201 0.0764 0.0
C734 C 0.26701 0.12014 0.09443 0.0
C735 C 0.2815 0.11551 0.11422 0.0
C736 C 0.29545 0.09366 0.11561 0.0
H737 H 0.2957 0.18931 0.24923 0.0
H738 H 0.29867 0.16036 0.21583 0.0
C739 C 0.29566 0.07701 0.09687 0.0
C740 C 0.28238 0.13376 0.13324 0.0
H741 H 0.31601 0.17073 0.15917 0.0
C742 C 0.26385 0.13983 0.14757 0.0
C743 C 0.30135 0.14514 0.13716 0.0
C744 C 0.32126 0.13988 0.12146 0.0
C745 C 0.264 0.15676 0.16618 0.0
C746 C 0.28309 0.16779 0.17036 0.0
C747 C 0.30152 0.16197 0.15589 0.0
C748 C 0.28387 0.1857 0.18965 0.0
C749 C 0.24383 0.16283 0.18138 0.0
C750 C 0.27516 0.20949 0.18558 0.0
C751 C 0.27352 0.22605 0.20448 0.0
C752 C 0.28047 0.21897 0.22778 0.0
C753 C 0.29016 0.19528 0.23152 0.0
C754 C 0.29187 0.17874 0.21252 0.0
H755 H 0.23065 0.15187 0.17645 0.0
H756 H 0.2486 0.16012 0.20054 0.0
H757 H 0.23695 0.1819 0.17932 0.0
H758 H 0.26891 0.21503 0.16795 0.0
H759 H 0.26593 0.24415 0.20099 0.0
H760 H 0.96151 0.32038 0.04575 0.0
H761 H 0.9303 0.31312 0.06897 0.0
H762 H 0.93653 0.37522 0.11304 0.0
H763 H 0.96744 0.38335 0.08917 0.0
H764 H 0.93263 0.30452 0.11794 0.0
H765 H 0.8698 0.38308 0.09682 0.0
H766 H 0.89398 0.37439 0.07898 0.0
H767 H 0.8965 0.38947 0.10729 0.0
C768 C 0.95604 0.33299 0.05989 0.0
C769 C 0.96713 0.35261 0.06541 0.0
C770 C 0.93822 0.32861 0.07334 0.0
C771 C 0.93098 0.34372 0.09261 0.0
C772 C 0.94163 0.36355 0.09799 0.0
H773 H 0.82647 0.32846 0.19396 0.0
H774 H 0.85586 0.34405 0.17271 0.0
C775 C 0.95946 0.36803 0.08445 0.0
C776 C 0.91317 0.33769 0.10779 0.0
H777 H 0.86007 0.3564 0.12514 0.0
C778 C 0.91678 0.31589 0.11956 0.0
C779 C 0.89264 0.35271 0.1101 0.0
C780 C 0.88782 0.37616 0.09752 0.0
C781 C 0.90032 0.3085 0.13334 0.0
C782 C 0.87945 0.32306 0.13493 0.0
C783 C 0.87604 0.34523 0.12379 0.0
C784 C 0.86072 0.31479 0.14698 0.0
C785 C 0.90551 0.28515 0.14612 0.0
C786 C 0.85328 0.29366 0.13909 0.0
C787 C 0.83684 0.28463 0.15127 0.0
C788 C 0.82714 0.29677 0.17141 0.0
C789 C 0.83378 0.31861 0.17864 0.0
C790 C 0.85051 0.32754 0.16651 0.0
H791 H 0.92365 0.28018 0.14944 0.0
H792 H 0.89708 0.2859 0.1635 0.0
H793 H 0.89972 0.27086 0.13479 0.0
H794 H 0.86045 0.2839 0.12363 0.0
H795 H 0.83181 0.26802 0.14493 0.0
H796 H 0.71814 0.98835 0.08094 0.0
H797 H 0.72686 0.95858 0.1118 0.0
H798 H 0.67318 0.92266 0.08526 0.0
H799 H 0.665 0.95173 0.05356 0.0
H800 H 0.70228 0.9453 0.14775 0.0
H801 H 0.7256 0.86964 0.08425 0.0
H802 H 0.72159 0.90022 0.07508 0.0
H803 H 0.69806 0.88517 0.07928 0.0
C804 C 0.70827 0.97403 0.08151 0.0
C805 C 0.69104 0.97226 0.06454 0.0
C806 C 0.71318 0.95714 0.09928 0.0
C807 C 0.70093 0.93819 0.10049 0.0
C808 C 0.68313 0.93688 0.08427 0.0
H809 H 0.7173 0.81613 0.19407 0.0
H810 H 0.70212 0.84706 0.16592 0.0
C811 C 0.67829 0.9537 0.06636 0.0
C812 C 0.70706 0.91972 0.11861 0.0
H813 H 0.72504 0.86039 0.12519 0.0
C814 C 0.7072 0.92673 0.14284 0.0
C815 C 0.71359 0.89553 0.11207 0.0
C816 C 0.71494 0.88716 0.08626 0.0
C817 C 0.71364 0.91014 0.16077 0.0
C818 C 0.7202 0.88603 0.1542 0.0
C819 C 0.71979 0.87893 0.13005 0.0
C820 C 0.72867 0.86808 0.17205 0.0
C821 C 0.7134 0.9185 0.18659 0.0
C822 C 0.74859 0.86979 0.18465 0.0
C823 C 0.75729 0.85227 0.20069 0.0
C824 C 0.74626 0.83261 0.2043 0.0
C825 C 0.72613 0.8311 0.1918 0.0
C826 C 0.71746 0.84867 0.17569 0.0
H827 H 0.70277 0.93597 0.18903 0.0
H828 H 0.7074 0.90533 0.1982 0.0
H829 H 0.73054 0.92053 0.19267 0.0
H830 H 0.75765 0.88446 0.18169 0.0
H831 H 0.77288 0.85395 0.20992 0.0
H832 H 0.10707 0.66731 0.05752 0.0
H833 H 0.13614 0.67764 0.08577 0.0
H834 H 0.10722 0.75155 0.08334 0.0
H835 H 0.07831 0.74148 0.0556 0.0
H836 H 0.16537 0.71808 0.07619 0.0
H837 H 0.11336 0.72894 0.15692 0.0
H838 H 0.10766 0.71012 0.13164 0.0
H839 H 0.10083 0.74185 0.12982 0.0
C840 C 0.107 0.68569 0.06312 0.0
C841 C 0.09067 0.70359 0.05422 0.0
C842 C 0.12353 0.69155 0.07909 0.0
C843 C 0.12359 0.71528 0.08651 0.0
C844 C 0.10729 0.73314 0.07774 0.0
H845 H 0.19146 0.80476 0.1763 0.0
H846 H 0.16698 0.78604 0.1488 0.0
C847 C 0.09095 0.72736 0.06174 0.0
C848 C 0.14071 0.72187 0.10329 0.0
H849 H 0.14765 0.74412 0.15964 0.0
C850 C 0.16175 0.7234 0.09458 0.0
C851 C 0.1356 0.72896 0.12706 0.0
C852 C 0.11318 0.72728 0.13708 0.0
C853 C 0.17771 0.73282 0.10895 0.0
C854 C 0.1724 0.74046 0.13258 0.0
C855 C 0.15155 0.73824 0.14146 0.0
C856 C 0.18786 0.75177 0.14816 0.0
C857 C 0.19971 0.73552 0.0985 0.0
C858 C 0.20762 0.73858 0.15676 0.0
C859 C 0.22161 0.74918 0.17251 0.0
C860 C 0.21598 0.77312 0.17986 0.0
C861 C 0.19627 0.78632 0.17092 0.0
C862 C 0.18227 0.77568 0.15527 0.0
H863 H 0.19961 0.73281 0.07876 0.0
H864 H 0.20409 0.75346 0.10285 0.0
H865 H 0.21286 0.72215 0.10641 0.0
H866 H 0.21199 0.72001 0.15164 0.0
H867 H 0.23669 0.73856 0.17911 0.0
H868 H 0.30649 0.94188 0.97548 0.0
H869 H 0.30219 0.90457 0.9547 0.0
H870 H 0.28592 0.94216 0.88907 0.0
H871 H 0.2908 0.97947 0.90927 0.0
H872 H 0.25615 0.90866 0.90273 0.0
H873 H 0.34585 0.87065 0.90323 0.0
H874 H 0.33418 0.88148 0.93131 0.0
H875 H 0.33648 0.90203 0.908 0.0
C876 C 0.30229 0.94233 0.95658 0.0
C877 C 0.29916 0.96388 0.9441 0.0
C878 C 0.29975 0.92094 0.94479 0.0
C879 C 0.29393 0.92074 0.92041 0.0
C880 C 0.29045 0.94209 0.90795 0.0
H881 H 0.27078 0.83063 0.803 0.0
H882 H 0.2771 0.86223 0.83153 0.0
C883 C 0.29316 0.96344 0.91962 0.0
C884 C 0.29139 0.89834 0.90764 0.0
H885 H 0.32089 0.84786 0.88408 0.0
C886 C 0.27023 0.89523 0.89881 0.0
C887 C 0.30986 0.88094 0.90278 0.0
C888 C 0.33295 0.88385 0.91166 0.0
C889 C 0.26713 0.87532 0.88461 0.0
C890 C 0.28573 0.85842 0.87893 0.0
C891 C 0.30676 0.86101 0.88852 0.0
C892 C 0.28376 0.83888 0.86166 0.0
C893 C 0.24406 0.87265 0.87545 0.0
C894 C 0.28626 0.81528 0.86917 0.0
C895 C 0.28269 0.7971 0.8529 0.0
C896 C 0.2767 0.80239 0.82895 0.0
C897 C 0.27526 0.82598 0.82135 0.0
C898 C 0.27876 0.84407 0.8376 0.0
H899 H 0.2311 0.88389 0.88591 0.0
H900 H 0.24213 0.87821 0.85653 0.0
H901 H 0.24125 0.85381 0.87611 0.0
H902 H 0.29027 0.81106 0.88772 0.0
H903 H 0.28395 0.77908 0.85925 0.0
H904 H 0.11416 0.32494 0.96809 0.0
H905 H 0.14415 0.31653 0.93953 0.0
H906 H 0.10073 0.35054 0.88414 0.0
H907 H 0.07118 0.35991 0.91299 0.0
H908 H 0.14891 0.29071 0.90133 0.0
H909 H 0.15268 0.38301 0.8749 0.0
H910 H 0.13629 0.37634 0.89943 0.0
H911 H 0.12551 0.3754 0.86909 0.0
C912 C 0.11116 0.33076 0.94985 0.0
C913 C 0.09048 0.34335 0.9428 0.0
C914 C 0.12827 0.32595 0.93352 0.0
C915 C 0.12495 0.33335 0.90971 0.0
C916 C 0.10406 0.3454 0.90255 0.0
H917 H 0.2114 0.2718 0.79447 0.0
H918 H 0.18189 0.28005 0.82363 0.0
C919 C 0.08711 0.35065 0.91901 0.0
C920 C 0.1431 0.32779 0.89228 0.0
H921 H 0.17117 0.35228 0.84966 0.0
C922 C 0.15391 0.30424 0.89018 0.0
C923 C 0.14997 0.34544 0.87794 0.0
C924 C 0.14067 0.37148 0.88064 0.0
C925 C 0.17117 0.2978 0.8741 0.0
C926 C 0.17718 0.3152 0.85882 0.0
C927 C 0.16646 0.33879 0.86107 0.0
C928 C 0.19506 0.30973 0.841 0.0
C929 C 0.18314 0.27259 0.8743 0.0
C930 C 0.21191 0.3241 0.84029 0.0
C931 C 0.22834 0.31984 0.8232 0.0
C932 C 0.22859 0.30083 0.8066 0.0
C933 C 0.21185 0.28631 0.80731 0.0
C934 C 0.19505 0.29094 0.82411 0.0
H935 H 0.18167 0.26416 0.89178 0.0
H936 H 0.17557 0.26184 0.86036 0.0
H937 H 0.20102 0.27188 0.87063 0.0
H938 H 0.21238 0.33872 0.85302 0.0
H939 H 0.24101 0.33136 0.82315 0.0
H940 H 0.66055 0.10079 0.915 0.0
H941 H 0.66958 0.13473 0.89275 0.0
H942 H 0.72902 0.13513 0.9364 0.0
H943 H 0.72071 0.10125 0.95801 0.0
H944 H 0.67901 0.18175 0.91107 0.0
H945 H 0.7498 0.12783 0.86577 0.0
H946 H 0.72838 0.11466 0.87985 0.0
H947 H 0.75032 0.12477 0.89768 0.0
C948 C 0.6755 0.10816 0.91984 0.0
C949 C 0.68981 0.09823 0.93834 0.0
C950 C 0.68057 0.12755 0.90723 0.0
C951 C 0.70007 0.13712 0.91285 0.0
C952 C 0.714 0.12777 0.93169 0.0
H953 H 0.74891 0.26689 0.88026 0.0
H954 H 0.73236 0.23517 0.89855 0.0
C955 C 0.709 0.1085 0.94425 0.0
C956 C 0.70645 0.15654 0.89883 0.0
H957 H 0.74766 0.16995 0.86404 0.0
C958 C 0.69386 0.17921 0.90053 0.0
C959 C 0.7257 0.15297 0.88496 0.0
C960 C 0.73925 0.1287 0.88172 0.0
C961 C 0.70051 0.19873 0.88932 0.0
C962 C 0.72041 0.19539 0.87648 0.0
C963 C 0.73253 0.17251 0.87411 0.0
C964 C 0.72917 0.21531 0.8654 0.0
C965 C 0.68619 0.22269 0.89129 0.0
C966 C 0.73322 0.21437 0.84086 0.0
C967 C 0.7429 0.23221 0.83047 0.0
C968 C 0.74875 0.25136 0.84445 0.0
C969 C 0.74447 0.25243 0.86902 0.0
C970 C 0.73487 0.23444 0.87945 0.0
H971 H 0.66883 0.22091 0.89556 0.0
H972 H 0.69293 0.23331 0.90592 0.0
H973 H 0.68605 0.23264 0.87443 0.0
H974 H 0.72905 0.19968 0.82975 0.0
H975 H 0.74592 0.23087 0.81146 0.0
H976 H 0.96286 0.74614 0.93343 0.0
H977 H 0.93315 0.75621 0.9043 0.0
H978 H 0.92086 0.68335 0.90172 0.0
H979 H 0.94987 0.67317 0.93234 0.0
H980 H 0.93049 0.73972 0.85948 0.0
H981 H 0.85907 0.71933 0.91051 0.0
H982 H 0.88585 0.72138 0.92439 0.0
H983 H 0.88122 0.69488 0.90795 0.0
C984 C 0.95367 0.73219 0.92729 0.0
C985 C 0.95874 0.70877 0.93568 0.0
C986 C 0.93674 0.73803 0.91035 0.0
C987 C 0.92461 0.72062 0.90116 0.0
C988 C 0.92973 0.69716 0.90905 0.0
H989 H 0.84759 0.73636 0.76906 0.0
H990 H 0.87322 0.72214 0.80172 0.0
C991 C 0.94654 0.69131 0.92632 0.0
C992 C 0.90726 0.72708 0.88257 0.0
H993 H 0.85202 0.72878 0.86949 0.0
C994 C 0.91333 0.73733 0.86166 0.0
C995 C 0.88487 0.72426 0.88573 0.0
C996 C 0.87726 0.71458 0.90845 0.0
C997 C 0.8976 0.74473 0.84367 0.0
C998 C 0.87537 0.74117 0.84643 0.0
C999 C 0.86919 0.73115 0.86742 0.0
C1000 C 0.85837 0.74808 0.82765 0.0
C1001 C 0.9048 0.75676 0.82207 0.0
C1002 C 0.84109 0.76676 0.83183 0.0
C1003 C 0.82631 0.77488 0.81324 0.0
C1004 C 0.82869 0.76437 0.79025 0.0
C1005 C 0.84547 0.74498 0.78649 0.0
C1006 C 0.86014 0.73684 0.80509 0.0
H1007 H 0.92107 0.76306 0.82528 0.0
H1008 H 0.90644 0.74392 0.80673 0.0
H1009 H 0.89229 0.77219 0.81697 0.0
H1010 H 0.83952 0.77557 0.84923 0.0
H1011 H 0.81351 0.78983 0.81669 0.0
H1012 H 0.06544 0.30419 0.08349 0.0
H1013 H 0.09259 0.30012 0.11722 0.0
H1014 H 0.14416 0.31156 0.06955 0.0
H1015 H 0.11702 0.31663 0.03635 0.0
H1016 H 0.13133 0.27241 0.12892 0.0
H1017 H 0.14853 0.36431 0.11704 0.0
H1018 H 0.12606 0.35279 0.10122 0.0
H1019 H 0.15396 0.34622 0.0906 0.0
C1020 C 0.0827 0.30515 0.08018 0.0
C1021 C 0.0892 0.31053 0.05729 0.0
C1022 C 0.09818 0.30308 0.09949 0.0
C1023 C 0.12037 0.3063 0.09615 0.0
C1024 C 0.12707 0.30983 0.07287 0.0
H1025 H 0.23992 0.31161 0.18358 0.0
H1026 H 0.21175 0.31089 0.15158 0.0
C1027 C 0.11161 0.31232 0.05378 0.0
C1028 C 0.1364 0.30684 0.1169 0.0
H1029 H 0.17305 0.34029 0.14349 0.0
C1030 C 0.14032 0.28733 0.1322 0.0
C1031 C 0.14814 0.32638 0.1214 0.0
C1032 C 0.1438 0.3487 0.10685 0.0
C1033 C 0.15612 0.28644 0.15123 0.0
C1034 C 0.16817 0.30575 0.15536 0.0
C1035 C 0.16401 0.32539 0.14028 0.0
C1036 C 0.18527 0.30601 0.17507 0.0
C1037 C 0.16022 0.26446 0.16627 0.0
C1038 C 0.1798 0.30396 0.19908 0.0
C1039 C 0.19591 0.30436 0.21746 0.0
C1040 C 0.21787 0.30707 0.21231 0.0
C1041 C 0.22321 0.30954 0.18827 0.0
C1042 C 0.20709 0.30908 0.16991 0.0
H1043 H 0.15435 0.24896 0.15696 0.0
H1044 H 0.17814 0.25971 0.17096 0.0
H1045 H 0.15103 0.26792 0.18312 0.0
H1046 H 0.163 0.3022 0.20367 0.0
H1047 H 0.19114 0.30241 0.23571 0.0
H1048 H 0.07443 0.79266 0.97563 0.0
H1049 H 0.10229 0.79584 0.94559 0.0
H1050 H 0.08244 0.73554 0.90678 0.0
H1051 H 0.05416 0.73293 0.93577 0.0
H1052 H 0.13724 0.76438 0.93514 0.0
H1053 H 0.08491 0.77879 0.85273 0.0
H1054 H 0.07324 0.78106 0.88209 0.0
H1055 H 0.08036 0.7524 0.86753 0.0
C1056 C 0.07567 0.78047 0.96038 0.0
C1057 C 0.06193 0.76268 0.95806 0.0
C1058 C 0.09165 0.78222 0.94329 0.0
C1059 C 0.09423 0.76617 0.92368 0.0
C1060 C 0.08036 0.74861 0.92126 0.0
H1061 H 0.19548 0.73401 0.81533 0.0
H1062 H 0.16712 0.73042 0.8449 0.0
C1063 C 0.06423 0.74707 0.93805 0.0
C1064 C 0.1124 0.76657 0.90669 0.0
H1065 H 0.12377 0.767 0.84727 0.0
C1066 C 0.13424 0.76516 0.91594 0.0
C1067 C 0.10853 0.7674 0.88159 0.0
C1068 C 0.08546 0.77024 0.87044 0.0
C1069 C 0.15226 0.76442 0.9008 0.0
C1070 C 0.14834 0.76498 0.87582 0.0
C1071 C 0.12663 0.76623 0.86649 0.0
C1072 C 0.16636 0.76628 0.85913 0.0
C1073 C 0.17542 0.76301 0.9115 0.0
C1074 C 0.17515 0.78757 0.85754 0.0
C1075 C 0.19103 0.78974 0.84066 0.0
C1076 C 0.19849 0.77059 0.82512 0.0
C1077 C 0.19005 0.74901 0.82712 0.0
C1078 C 0.1739 0.74695 0.84392 0.0
H1079 H 0.17609 0.75851 0.93075 0.0
H1080 H 0.18703 0.74949 0.90171 0.0
H1081 H 0.18127 0.78048 0.90978 0.0
H1082 H 0.16936 0.8027 0.86904 0.0
H1083 H 0.19732 0.80655 0.83967 0.0
H1084 H 0.32852 0.11594 0.99503 0.0
H1085 H 0.32494 0.13823 0.95807 0.0
H1086 H 0.35451 0.07563 0.91921 0.0
H1087 H 0.3576 0.0529 0.95603 0.0
H1088 H 0.35271 0.14884 0.92333 0.0
H1089 H 0.29387 0.09036 0.88633 0.0
H1090 H 0.30331 0.08949 0.9172 0.0
H1091 H 0.32088 0.07502 0.89431 0.0
C1092 C 0.33469 0.10696 0.97874 0.0
C1093 C 0.34305 0.0825 0.97848 0.0
C1094 C 0.33259 0.11976 0.95759 0.0
C1095 C 0.33889 0.10841 0.93579 0.0
C1096 C 0.349 0.08456 0.93576 0.0
H1097 H 0.31064 0.15835 0.78995 0.0
H1098 H 0.32559 0.13536 0.82476 0.0
C1099 C 0.35098 0.07166 0.95689 0.0
C1100 C 0.33343 0.12118 0.91308 0.0
H1101 H 0.30199 0.12063 0.86153 0.0
C1102 C 0.34173 0.14261 0.90975 0.0
C1103 C 0.31896 0.1131 0.89544 0.0
C1104 C 0.30855 0.09086 0.89851 0.0
C1105 C 0.33597 0.15617 0.88924 0.0
C1106 C 0.32129 0.14822 0.8718 0.0
C1107 C 0.31332 0.1266 0.87491 0.0
C1108 C 0.31311 0.16255 0.85072 0.0
C1109 C 0.3457 0.17885 0.88642 0.0
C1110 C 0.30093 0.1853 0.85382 0.0
C1111 C 0.2924 0.19846 0.83402 0.0
C1112 C 0.29572 0.18901 0.81072 0.0
C1113 C 0.30785 0.16615 0.80765 0.0
C1114 C 0.31641 0.15301 0.82751 0.0
H1115 H 0.36132 0.17872 0.8972 0.0
H1116 H 0.34914 0.18167 0.8674 0.0
H1117 H 0.33368 0.19415 0.89276 0.0
H1118 H 0.29769 0.19276 0.8716 0.0
H1119 H 0.28301 0.21595 0.83703 0.0
H1120 H 0.99921 0.31128 0.94545 0.0
H1121 H 0.96847 0.31165 0.9163 0.0
H1122 H 0.93221 0.27706 0.96658 0.0
H1123 H 0.96271 0.27702 0.99606 0.0
H1124 H 0.94904 0.27687 0.89455 0.0
H1125 H 0.88696 0.33391 0.9488 0.0
H1126 H 0.91626 0.32992 0.95631 0.0
H1127 H 0.89954 0.30786 0.96429 0.0
C1128 C 0.98478 0.30356 0.95033 0.0
C1129 C 0.98353 0.29412 0.97324 0.0
C1130 C 0.96714 0.30387 0.93359 0.0
C1131 C 0.94773 0.29488 0.93934 0.0
C1132 C 0.94672 0.2847 0.96188 0.0
H1133 H 0.84823 0.24802 0.84564 0.0
H1134 H 0.87937 0.25342 0.8724 0.0
C1135 C 0.96435 0.28441 0.97866 0.0
C1136 C 0.92872 0.29584 0.92167 0.0
H1137 H 0.87284 0.31415 0.91464 0.0
C1138 C 0.93243 0.28517 0.89894 0.0
C1139 C 0.90706 0.3072 0.92702 0.0
C1140 C 0.90221 0.3206 0.95033 0.0
C1141 C 0.91502 0.28463 0.88192 0.0
C1142 C 0.89312 0.29461 0.88786 0.0
C1143 C 0.88953 0.30621 0.91016 0.0
C1144 C 0.8737 0.29188 0.87166 0.0
C1145 C 0.92025 0.27334 0.85766 0.0
C1146 C 0.85959 0.31175 0.86271 0.0
C1147 C 0.84151 0.30871 0.84727 0.0
C1148 C 0.83711 0.28573 0.84074 0.0
C1149 C 0.85111 0.26599 0.8501 0.0
C1150 C 0.86909 0.26903 0.86536 0.0
H1151 H 0.93791 0.27335 0.85331 0.0
H1152 H 0.9172 0.25456 0.85764 0.0
H1153 H 0.90959 0.28276 0.84338 0.0
H1154 H 0.86268 0.32958 0.86748 0.0
H1155 H 0.83097 0.32431 0.84056 0.0
H1156 H 0.73846 0.93376 0.97432 0.0
H1157 H 0.74409 0.90781 0.93894 0.0
H1158 H 0.74587 0.96883 0.89512 0.0
H1159 H 0.74031 0.99507 0.93052 0.0
H1160 H 0.71357 0.91242 0.89846 0.0
H1161 H 0.79985 0.92016 0.87336 0.0
H1162 H 0.78971 0.92789 0.90298 0.0
H1163 H 0.78145 0.94747 0.87861 0.0
C1164 C 0.74047 0.9417 0.95726 0.0
C1165 C 0.73894 0.96652 0.95529 0.0
C1166 C 0.74364 0.92682 0.93705 0.0
C1167 C 0.7455 0.93638 0.91446 0.0
C1168 C 0.7448 0.96106 0.91246 0.0
H1169 H 0.75723 0.86587 0.77366 0.0
H1170 H 0.7566 0.89472 0.80696 0.0
C1171 C 0.74162 0.97603 0.93273 0.0
C1172 C 0.7464 0.92057 0.89293 0.0
H1173 H 0.7798 0.8968 0.84786 0.0
C1174 C 0.72804 0.90899 0.88738 0.0
C1175 C 0.76514 0.91647 0.87832 0.0
C1176 C 0.78527 0.92849 0.88358 0.0
C1177 C 0.72794 0.89326 0.86767 0.0
C1178 C 0.74706 0.88834 0.85356 0.0
C1179 C 0.76524 0.90038 0.85879 0.0
C1180 C 0.74854 0.87052 0.83355 0.0
C1181 C 0.70714 0.88247 0.86197 0.0
C1182 C 0.74493 0.8471 0.83751 0.0
C1183 C 0.74495 0.83071 0.8185 0.0
C1184 C 0.74905 0.83725 0.79515 0.0
C1185 C 0.75379 0.86034 0.79139 0.0
C1186 C 0.75348 0.87685 0.81041 0.0
H1187 H 0.69221 0.89378 0.86905 0.0
H1188 H 0.7046 0.87991 0.8424 0.0
H1189 H 0.7085 0.86489 0.87055 0.0
H1190 H 0.74187 0.84152 0.85533 0.0
H1191 H 0.74164 0.81294 0.8221 0.0
H1192 H 0.94907 0.78766 0.0256 0.0
H1193 H 0.9242 0.79142 0.05955 0.0
H1194 H 0.97184 0.74287 0.09952 0.0
H1195 H 0.9969 0.73946 0.06618 0.0
H1196 H 0.90599 0.75473 0.07877 0.0
H1197 H 0.95585 0.79562 0.14838 0.0
H1198 H 0.96251 0.7948 0.11712 0.0
H1199 H 0.97047 0.76899 0.13518 0.0
C1200 C 0.95445 0.77822 0.04181 0.0
C1201 C 0.97503 0.76335 0.04316 0.0
C1202 C 0.94018 0.78029 0.06115 0.0
C1203 C 0.94628 0.76764 0.08216 0.0
C1204 C 0.96699 0.75323 0.08373 0.0
H1205 H 0.88356 0.74691 0.21576 0.0
H1206 H 0.90795 0.74391 0.18146 0.0
C1207 C 0.98128 0.75125 0.06453 0.0
C1208 C 0.93045 0.76811 0.10184 0.0
H1209 H 0.92461 0.77936 0.16169 0.0
C1210 C 0.90996 0.76031 0.09688 0.0
C1211 C 0.93579 0.77511 0.12549 0.0
C1212 C 0.95727 0.78431 0.13185 0.0
C1213 C 0.89479 0.75888 0.11501 0.0
C1214 C 0.9001 0.76595 0.13867 0.0
C1215 C 0.92059 0.77382 0.14359 0.0
C1216 C 0.88452 0.76595 0.15857 0.0
C1217 C 0.87353 0.74923 0.10866 0.0
C1218 C 0.8632 0.77915 0.15705 0.0
C1219 C 0.84914 0.78056 0.17646 0.0
C1220 C 0.8563 0.7692 0.19798 0.0
C1221 C 0.87756 0.75578 0.19941 0.0
C1222 C 0.89151 0.75412 0.17985 0.0
H1223 H 0.87526 0.73762 0.09235 0.0
H1224 H 0.86831 0.73889 0.12352 0.0
H1225 H 0.86019 0.7643 0.10492 0.0
H1226 H 0.85765 0.78901 0.14113 0.0
H1227 H 0.83298 0.79136 0.17488 0.0
H1228 H 0.3428 0.98918 0.08365 0.0
H1229 H 0.34465 0.9586 0.11448 0.0
H1230 H 0.3188 0.91121 0.06305 0.0
H1231 H 0.31655 0.9417 0.03263 0.0
H1232 H 0.30434 0.9399 0.12713 0.0
H1233 H 0.37047 0.86823 0.09809 0.0
H1234 H 0.36927 0.89882 0.08928 0.0
H1235 H 0.35172 0.8799 0.07442 0.0
C1236 C 0.3383 0.9719 0.07884 0.0
C1237 C 0.3298 0.96754 0.0558 0.0
C1238 C 0.3392 0.95455 0.09643 0.0
C1239 C 0.33208 0.93255 0.09096 0.0
C1240 C 0.32473 0.92787 0.06756 0.0
H1241 H 0.2908 0.80943 0.14571 0.0
H1242 H 0.30451 0.84063 0.12382 0.0
C1243 C 0.32345 0.94527 0.05021 0.0
C1244 C 0.32961 0.91543 0.10994 0.0
H1245 H 0.34354 0.85699 0.12427 0.0
C1246 C 0.31322 0.92189 0.12693 0.0
C1247 C 0.34109 0.89194 0.10943 0.0
C1248 C 0.35927 0.88429 0.09196 0.0
C1249 C 0.30697 0.90507 0.14243 0.0
C1250 C 0.31789 0.88126 0.14133 0.0
C1251 C 0.3351 0.87517 0.1251 0.0
C1252 C 0.3105 0.86199 0.15526 0.0
C1253 C 0.28776 0.91265 0.15868 0.0
C1254 C 0.30956 0.86333 0.18035 0.0
C1255 C 0.3014 0.84558 0.19295 0.0
C1256 C 0.29441 0.82593 0.18074 0.0
C1257 C 0.29604 0.82429 0.15572 0.0
C1258 C 0.30393 0.84213 0.14314 0.0
H1259 H 0.27789 0.9298 0.15324 0.0
H1260 H 0.27652 0.89894 0.15882 0.0
H1261 H 0.29422 0.91504 0.1772 0.0
H1262 H 0.31505 0.87814 0.19019 0.0
H1263 H 0.30054 0.84727 0.21224 0.0
H1264 H 0.7634 0.04778 0.07396 0.0
H1265 H 0.76639 0.0829 0.09961 0.0
H1266 H 0.7297 0.12791 0.04675 0.0
H1267 H 0.7267 0.0932 0.02101 0.0
H1268 H 0.76983 0.14441 0.0681 0.0
H1269 H 0.71073 0.1206 0.13435 0.0
H1270 H 0.73275 0.09764 0.12548 0.0
H1271 H 0.71153 0.10883 0.10404 0.0
C1272 C 0.75621 0.06518 0.06766 0.0
C1273 C 0.74474 0.06762 0.04546 0.0
C1274 C 0.75781 0.08518 0.0824 0.0
C1275 C 0.74801 0.10789 0.07515 0.0
C1276 C 0.7373 0.1105 0.05267 0.0
H1277 H 0.71375 0.23799 0.1594 0.0
H1278 H 0.71351 0.20336 0.13237 0.0
C1279 C 0.73563 0.09059 0.03799 0.0
C1280 C 0.74838 0.12898 0.09112 0.0
H1281 H 0.72699 0.15514 0.14263 0.0
C1282 C 0.76055 0.14677 0.08445 0.0
C1283 C 0.73592 0.1321 0.11216 0.0
C1284 C 0.72183 0.11392 0.1195 0.0
C1285 C 0.76081 0.16756 0.09848 0.0
C1286 C 0.74869 0.17047 0.11981 0.0
C1287 C 0.73632 0.15279 0.12631 0.0
C1288 C 0.74886 0.19162 0.13579 0.0
C1289 C 0.77374 0.18639 0.09015 0.0
C1290 C 0.76876 0.19629 0.14681 0.0
C1291 C 0.76896 0.21597 0.16217 0.0
C1292 C 0.74921 0.23132 0.16699 0.0
C1293 C 0.72924 0.22654 0.15604 0.0
C1294 C 0.72907 0.20678 0.14062 0.0
H1295 H 0.77712 0.18438 0.07075 0.0
H1296 H 0.76468 0.20452 0.09368 0.0
H1297 H 0.78992 0.18477 0.10006 0.0
H1298 H 0.78414 0.18455 0.14371 0.0
H1299 H 0.78465 0.21904 0.17035 0.0
H1300 H 0.55501 0.60898 0.77874 0.0
H1301 H 0.58015 0.63717 0.77053 0.0
H1302 H 0.61552 0.62017 0.83724 0.0
H1303 H 0.59104 0.59103 0.84515 0.0
H1304 H 0.58797 0.67693 0.79592 0.0
H1305 H 0.6656 0.61233 0.79016 0.0
H1306 H 0.63849 0.60312 0.7899 0.0
H1307 H 0.65113 0.61169 0.81758 0.0
C1308 C 0.56829 0.61087 0.79157 0.0
C1309 C 0.57104 0.59742 0.81255 0.0
C1310 C 0.58258 0.6272 0.7869 0.0
C1311 C 0.59994 0.63053 0.80307 0.0
C1312 C 0.60253 0.61754 0.82425 0.0
H1313 H 0.699 0.72773 0.79493 0.0
H1314 H 0.67579 0.69943 0.8093 0.0
C1315 C 0.5883 0.60107 0.8289 0.0
C1316 C 0.615 0.64793 0.79778 0.0
H1317 H 0.66902 0.65311 0.78719 0.0
C1318 C 0.6057 0.67172 0.79407 0.0
C1319 C 0.63815 0.64112 0.79542 0.0
C1320 C 0.64897 0.61565 0.79826 0.0
C1321 C 0.61886 0.68882 0.78789 0.0
C1322 C 0.6419 0.68193 0.78511 0.0
C1323 C 0.65134 0.65831 0.78938 0.0
C1324 C 0.65618 0.69877 0.77649 0.0
C1325 C 0.60802 0.71417 0.78436 0.0
C1326 C 0.65302 0.70745 0.75321 0.0
C1327 C 0.66627 0.72345 0.74492 0.0
C1328 C 0.68295 0.73116 0.75978 0.0
C1329 C 0.68622 0.72225 0.78308 0.0
C1330 C 0.67303 0.70606 0.7913 0.0
H1331 H 0.59155 0.71781 0.79279 0.0
H1332 H 0.61869 0.72691 0.79192 0.0
H1333 H 0.60554 0.71744 0.76492 0.0
H1334 H 0.6403 0.70178 0.74139 0.0
H1335 H 0.6633 0.72988 0.72687 0.0
H1336 H 0.4316 0.5553 0.75658 0.0
H1337 H 0.40181 0.589 0.75534 0.0
H1338 H 0.44851 0.63659 0.77538 0.0
H1339 H 0.47866 0.60286 0.77608 0.0
H1340 H 0.38711 0.6178 0.79185 0.0
H1341 H 0.41534 0.67228 0.721 0.0
H1342 H 0.42805 0.64204 0.72621 0.0
H1343 H 0.43487 0.6659 0.74544 0.0
C1344 C 0.43569 0.57298 0.76023 0.0
C1345 C 0.45763 0.57634 0.76614 0.0
C1346 C 0.41857 0.59226 0.75964 0.0
C1347 C 0.42285 0.61545 0.765 0.0
C1348 C 0.4448 0.61899 0.77059 0.0
H1349 H 0.33299 0.75019 0.77231 0.0
H1350 H 0.36517 0.71902 0.77408 0.0
C1351 C 0.46205 0.59965 0.771 0.0
C1352 C 0.40402 0.63543 0.7659 0.0
H1353 H 0.38326 0.68901 0.74158 0.0
C1354 C 0.38628 0.63335 0.78082 0.0
C1355 C 0.40298 0.65592 0.75175 0.0
C1356 C 0.42122 0.65916 0.73504 0.0
C1357 C 0.36757 0.65101 0.78194 0.0
C1358 C 0.36623 0.67118 0.76728 0.0
C1359 C 0.38417 0.67352 0.75272 0.0
C1360 C 0.34641 0.69002 0.76669 0.0
C1361 C 0.34966 0.64799 0.7992 0.0
C1362 C 0.32505 0.68424 0.76172 0.0
C1363 C 0.30653 0.70204 0.76109 0.0
C1364 C 0.30902 0.72606 0.7649 0.0
C1365 C 0.33044 0.73185 0.76945 0.0
C1366 C 0.3489 0.71403 0.77039 0.0
H1367 H 0.35631 0.63634 0.8142 0.0
H1368 H 0.3419 0.66538 0.80676 0.0
H1369 H 0.33661 0.63941 0.78966 0.0
H1370 H 0.3227 0.66598 0.758 0.0
H1371 H 0.29032 0.697 0.75714 0.0
H1372 H 0.4651 0.4717 0.77787 0.0
H1373 H 0.43909 0.44333 0.77164 0.0
H1374 H 0.42715 0.44496 0.84725 0.0
H1375 H 0.4535 0.47322 0.85382 0.0
H1376 H 0.43933 0.39789 0.79155 0.0
H1377 H 0.36456 0.46116 0.81654 0.0
H1378 H 0.39058 0.47089 0.80997 0.0
H1379 H 0.38708 0.45786 0.83826 0.0
C1380 C 0.45729 0.46586 0.79332 0.0
C1381 C 0.46147 0.4749 0.81643 0.0
C1382 C 0.44226 0.44971 0.78965 0.0
C1383 C 0.43095 0.44232 0.80892 0.0
C1384 C 0.43538 0.45081 0.83206 0.0
H1385 H 0.32595 0.35122 0.80515 0.0
H1386 H 0.35401 0.37551 0.8195 0.0
C1387 C 0.45047 0.46696 0.83578 0.0
C1388 C 0.41452 0.42576 0.8046 0.0
H1389 H 0.35915 0.42191 0.80607 0.0
C1390 C 0.42182 0.40308 0.79484 0.0
C1391 C 0.39169 0.43257 0.80902 0.0
C1392 C 0.38287 0.45699 0.81886 0.0
C1393 C 0.40689 0.38708 0.78914 0.0
C1394 C 0.38398 0.39413 0.79285 0.0
C1395 C 0.37673 0.41656 0.80325 0.0
C1396 C 0.36721 0.3791 0.78451 0.0
C1397 C 0.41578 0.36273 0.77918 0.0
C1398 C 0.36518 0.37334 0.7601 0.0
C1399 C 0.34928 0.35952 0.7519 0.0
C1400 C 0.33494 0.35124 0.76791 0.0
C1401 C 0.3369 0.35711 0.7924 0.0
C1402 C 0.35284 0.37106 0.80061 0.0
H1403 H 0.43357 0.35753 0.78421 0.0
H1404 H 0.40625 0.349 0.78559 0.0
H1405 H 0.41433 0.36295 0.75936 0.0
H1406 H 0.37576 0.3798 0.7473 0.0
H1407 H 0.34814 0.35549 0.73292 0.0
H1408 H 0.57692 0.4962 0.75263 0.0
H1409 H 0.61003 0.46661 0.74501 0.0
H1410 H 0.59469 0.42618 0.80494 0.0
H1411 H 0.56198 0.45524 0.81248 0.0
H1412 H 0.64663 0.45298 0.7784 0.0
H1413 H 0.60502 0.37572 0.75115 0.0
H1414 H 0.59077 0.40594 0.75103 0.0
H1415 H 0.59524 0.39005 0.77858 0.0
C1416 C 0.58041 0.4807 0.76378 0.0
C1417 C 0.56677 0.47797 0.78305 0.0
C1418 C 0.59939 0.46393 0.75957 0.0
C1419 C 0.60472 0.44402 0.77427 0.0
C1420 C 0.59078 0.44113 0.79312 0.0
H1421 H 0.72887 0.35238 0.8049 0.0
H1422 H 0.69596 0.38262 0.80526 0.0
C1423 C 0.57209 0.45785 0.79744 0.0
C1424 C 0.62524 0.42661 0.7709 0.0
H1425 H 0.64351 0.36733 0.76181 0.0
C1426 C 0.64599 0.4343 0.77445 0.0
C1427 C 0.62441 0.40221 0.76586 0.0
C1428 C 0.60268 0.39296 0.76122 0.0
C1429 C 0.66587 0.41817 0.7736 0.0
C1430 C 0.665 0.39363 0.76925 0.0
C1431 C 0.64425 0.38608 0.7652 0.0
C1432 C 0.68535 0.37544 0.76888 0.0
C1433 C 0.68762 0.42762 0.77729 0.0
C1434 C 0.69018 0.36077 0.74854 0.0
C1435 C 0.70902 0.34329 0.74829 0.0
C1436 C 0.72339 0.33995 0.76851 0.0
C1437 C 0.71836 0.35454 0.78892 0.0
C1438 C 0.69956 0.37201 0.78912 0.0
H1439 H 0.68584 0.44698 0.77376 0.0
H1440 H 0.69345 0.42497 0.79615 0.0
H1441 H 0.70051 0.41809 0.76552 0.0
H1442 H 0.67935 0.36289 0.73278 0.0
H1443 H 0.7122 0.33227 0.73235 0.0
H1444 H 0.58542 0.48156 0.18935 0.0
H1445 H 0.61546 0.44955 0.19696 0.0
H1446 H 0.59651 0.44808 0.27052 0.0
H1447 H 0.56547 0.48027 0.26275 0.0
H1448 H 0.65073 0.44784 0.22594 0.0
H1449 H 0.6009 0.37832 0.25109 0.0
H1450 H 0.58847 0.4061 0.23821 0.0
H1451 H 0.59684 0.40501 0.26929 0.0
C1452 C 0.58742 0.47449 0.20722 0.0
C1453 C 0.57284 0.48346 0.22543 0.0
C1454 C 0.60476 0.45612 0.21153 0.0
C1455 C 0.60817 0.44607 0.2342 0.0
C1456 C 0.59396 0.4552 0.25272 0.0
H1457 H 0.71176 0.32957 0.27797 0.0
H1458 H 0.68064 0.36229 0.27765 0.0
C1459 C 0.57637 0.47376 0.24836 0.0
C1460 C 0.627 0.42644 0.23794 0.0
H1461 H 0.63986 0.36763 0.25191 0.0
C1462 C 0.64833 0.43034 0.23176 0.0
C1463 C 0.62391 0.40352 0.24538 0.0
C1464 C 0.60129 0.39781 0.25118 0.0
C1465 C 0.66655 0.41207 0.23261 0.0
C1466 C 0.66344 0.38908 0.23975 0.0
C1467 C 0.64224 0.38525 0.24648 0.0
C1468 C 0.68189 0.3687 0.2398 0.0
C1469 C 0.689 0.41764 0.22587 0.0
C1470 C 0.69265 0.36104 0.21855 0.0
C1471 C 0.71029 0.34223 0.21862 0.0
C1472 C 0.71761 0.33052 0.23995 0.0
C1473 C 0.70655 0.338 0.26118 0.0
C1474 C 0.68877 0.35677 0.26105 0.0
H1475 H 0.68985 0.43703 0.22733 0.0
H1476 H 0.70241 0.40805 0.23736 0.0
H1477 H 0.69212 0.41191 0.20702 0.0
H1478 H 0.6874 0.36962 0.20183 0.0
H1479 H 0.71832 0.33702 0.2019 0.0
H1480 H 0.55942 0.62189 0.17036 0.0
H1481 H 0.589 0.64654 0.17579 0.0
H1482 H 0.62287 0.59644 0.22605 0.0
H1483 H 0.59371 0.57142 0.22028 0.0
H1484 H 0.60355 0.66793 0.21822 0.0
H1485 H 0.67126 0.6043 0.17864 0.0
H1486 H 0.64233 0.60124 0.1743 0.0
H1487 H 0.65683 0.59196 0.20172 0.0
C1488 C 0.5733 0.61592 0.18231 0.0
C1489 C 0.57421 0.59456 0.19476 0.0
C1490 C 0.59012 0.63013 0.18553 0.0
C1491 C 0.6083 0.62318 0.20107 0.0
C1492 C 0.6092 0.60197 0.21365 0.0
H1493 H 0.72243 0.68127 0.25706 0.0
H1494 H 0.69321 0.65748 0.24601 0.0
C1495 C 0.59237 0.58779 0.2105 0.0
C1496 C 0.62612 0.6383 0.2045 0.0
H1497 H 0.68196 0.6379 0.19978 0.0
C1498 C 0.62067 0.66148 0.21398 0.0
C1499 C 0.64843 0.62985 0.19892 0.0
C1500 C 0.6551 0.60556 0.18762 0.0
C1501 C 0.63704 0.67614 0.21874 0.0
C1502 C 0.65941 0.66751 0.21356 0.0
C1503 C 0.6648 0.64448 0.20375 0.0
C1504 C 0.67759 0.68172 0.21925 0.0
C1505 C 0.63042 0.70046 0.22998 0.0
C1506 C 0.67879 0.70305 0.20751 0.0
C1507 C 0.69564 0.71664 0.21364 0.0
C1508 C 0.71152 0.70919 0.23174 0.0
C1509 C 0.71046 0.68757 0.2431 0.0
C1510 C 0.69377 0.67393 0.2368 0.0
H1511 H 0.61341 0.70259 0.23713 0.0
H1512 H 0.64223 0.70378 0.24475 0.0
H1513 H 0.63083 0.71421 0.21632 0.0
H1514 H 0.66661 0.70925 0.1937 0.0
H1515 H 0.6959 0.73324 0.20462 0.0
H1516 H 0.43809 0.57358 0.21249 0.0
H1517 H 0.40964 0.60754 0.22055 0.0
H1518 H 0.45662 0.64025 0.26444 0.0
H1519 H 0.48542 0.60589 0.25635 0.0
H1520 H 0.39235 0.62784 0.26401 0.0
H1521 H 0.43409 0.6906 0.21294 0.0
H1522 H 0.4419 0.65873 0.2107 0.0
H1523 H 0.45035 0.67489 0.2365 0.0
C1524 C 0.44226 0.5878 0.22425 0.0
C1525 C 0.46389 0.58707 0.23393 0.0
C1526 C 0.42601 0.60723 0.22876 0.0
C1527 C 0.43108 0.62659 0.24278 0.0
C1528 C 0.45245 0.62559 0.25332 0.0
H1529 H 0.34895 0.76473 0.26543 0.0
H1530 H 0.37936 0.73137 0.2651 0.0
C1531 C 0.46878 0.60586 0.24899 0.0
C1532 C 0.41386 0.64779 0.2457 0.0
H1533 H 0.39991 0.70587 0.22979 0.0
C1534 C 0.39406 0.64498 0.25673 0.0
C1535 C 0.41606 0.67007 0.23601 0.0
C1536 C 0.43664 0.67387 0.22319 0.0
C1537 C 0.37642 0.66382 0.25844 0.0
C1538 C 0.3784 0.686 0.24829 0.0
C1539 C 0.39836 0.68891 0.23757 0.0
C1540 C 0.35989 0.70629 0.24828 0.0
C1541 C 0.35598 0.65974 0.27139 0.0
C1542 C 0.33892 0.70352 0.23847 0.0
C1543 C 0.32146 0.72247 0.23887 0.0
C1544 C 0.3247 0.7448 0.24865 0.0
C1545 C 0.34588 0.74777 0.25779 0.0
C1546 C 0.36329 0.7287 0.25763 0.0
H1547 H 0.35984 0.64518 0.28444 0.0
H1548 H 0.34842 0.67609 0.28107 0.0
H1549 H 0.34357 0.6544 0.25821 0.0
H1550 H 0.33602 0.68669 0.23042 0.0
H1551 H 0.30542 0.71963 0.23143 0.0
H1552 H 0.4457 0.49712 0.22995 0.0
H1553 H 0.41731 0.47206 0.23688 0.0
H1554 H 0.43714 0.42981 0.174 0.0
H1555 H 0.46612 0.45423 0.1674 0.0
H1556 H 0.38167 0.46373 0.20791 0.0
H1557 H 0.43789 0.37922 0.22441 0.0
H1558 H 0.44767 0.40769 0.22434 0.0
H1559 H 0.44209 0.3928 0.19659 0.0
C1560 C 0.44429 0.48231 0.21775 0.0
C1561 C 0.4584 0.47766 0.19817 0.0
C1562 C 0.4279 0.46809 0.22165 0.0
C1563 C 0.42527 0.44882 0.20617 0.0
C1564 C 0.43911 0.44428 0.18646 0.0
H1565 H 0.33071 0.34565 0.20795 0.0
H1566 H 0.35806 0.37018 0.19492 0.0
C1567 C 0.45553 0.45848 0.18254 0.0
C1568 C 0.40776 0.43383 0.21044 0.0
H1569 H 0.39936 0.37705 0.22208 0.0
C1570 C 0.38555 0.44477 0.21099 0.0
C1571 C 0.4128 0.40907 0.21441 0.0
C1572 C 0.43641 0.39648 0.21514 0.0
C1573 C 0.3683 0.43167 0.2154 0.0
C1574 C 0.37337 0.40699 0.21961 0.0
C1575 C 0.39551 0.39594 0.21867 0.0
C1576 C 0.35615 0.39272 0.22674 0.0
C1577 C 0.34474 0.4443 0.21553 0.0
C1578 C 0.34611 0.39721 0.24894 0.0
C1579 C 0.33075 0.38315 0.25649 0.0
C1580 C 0.32495 0.36432 0.24197 0.0
C1581 C 0.33474 0.36007 0.2195 0.0
C1582 C 0.35039 0.37402 0.21207 0.0
H1583 H 0.34301 0.46161 0.20631 0.0
H1584 H 0.33323 0.4331 0.20676 0.0
H1585 H 0.33965 0.44785 0.23431 0.0
H1586 H 0.35049 0.41135 0.26067 0.0
H1587 H 0.3235 0.38699 0.27386 0.0
H1588 H 0.8443 0.6019 0.56965 0.0
H1589 H 0.83236 0.63255 0.59944 0.0
H1590 H 0.7644 0.63417 0.57494 0.0
H1591 H 0.77627 0.60286 0.5449 0.0
H1592 H 0.80999 0.67838 0.58962 0.0
H1593 H 0.76187 0.62833 0.64846 0.0
H1594 H 0.78117 0.61355 0.62709 0.0
H1595 H 0.75458 0.62841 0.61706 0.0
C1596 C 0.82676 0.60863 0.57054 0.0
C1597 C 0.81121 0.60001 0.55481 0.0
C1598 C 0.81999 0.62617 0.58764 0.0
C1599 C 0.79754 0.63552 0.58946 0.0
C1600 C 0.78181 0.6269 0.57399 0.0
H1601 H 0.73702 0.74172 0.69138 0.0
H1602 H 0.74393 0.71173 0.65948 0.0
C1603 C 0.7886 0.60914 0.55681 0.0
C1604 C 0.79113 0.65494 0.6071 0.0
H1605 H 0.76458 0.668 0.65962 0.0
C1606 C 0.79994 0.67622 0.60488 0.0
C1607 C 0.77798 0.652 0.62687 0.0
C1608 C 0.76842 0.62932 0.63025 0.0
C1609 C 0.79611 0.69467 0.622 0.0
C1610 C 0.78357 0.69148 0.64226 0.0
C1611 C 0.77433 0.67036 0.64418 0.0
C1612 C 0.77967 0.70984 0.66157 0.0
C1613 C 0.8053 0.71748 0.61797 0.0
C1614 C 0.79749 0.71863 0.67356 0.0
C1615 C 0.79355 0.73621 0.6915 0.0
C1616 C 0.77177 0.74469 0.69822 0.0
C1617 C 0.75402 0.73542 0.68664 0.0
C1618 C 0.75793 0.71828 0.6684 0.0
H1619 H 0.80818 0.71984 0.59871 0.0
H1620 H 0.79396 0.73322 0.62459 0.0
H1621 H 0.82152 0.71684 0.62768 0.0
H1622 H 0.81445 0.71183 0.66915 0.0
H1623 H 0.80752 0.74285 0.70038 0.0
H1624 H 0.44172 0.82026 0.54378 0.0
H1625 H 0.41061 0.81982 0.57023 0.0
H1626 H 0.45465 0.78071 0.62207 0.0
H1627 H 0.48567 0.78042 0.59512 0.0
H1628 H 0.41842 0.76206 0.61666 0.0
H1629 H 0.39496 0.85927 0.62891 0.0
H1630 H 0.39458 0.85067 0.59788 0.0
H1631 H 0.42035 0.84635 0.61495 0.0
C1632 C 0.44472 0.81174 0.56092 0.0
C1633 C 0.46602 0.80047 0.56759 0.0
C1634 C 0.42701 0.81165 0.57607 0.0
C1635 C 0.43044 0.8008 0.59839 0.0
C1636 C 0.4517 0.78936 0.60498 0.0
H1637 H 0.33105 0.81537 0.7087 0.0
H1638 H 0.36233 0.82078 0.68382 0.0
C1639 C 0.46935 0.78908 0.58962 0.0
C1640 C 0.41162 0.80025 0.61429 0.0
H1641 H 0.36799 0.83506 0.64028 0.0
C1642 C 0.40754 0.77805 0.62203 0.0
C1643 C 0.39768 0.82117 0.62164 0.0
C1644 C 0.40226 0.84571 0.61562 0.0
C1645 C 0.3896 0.7761 0.63649 0.0
C1646 C 0.37475 0.79685 0.64243 0.0
C1647 C 0.37915 0.81914 0.63527 0.0
C1648 C 0.35465 0.79565 0.65617 0.0
C1649 C 0.38709 0.75184 0.64555 0.0
C1650 C 0.3395 0.7806 0.6483 0.0
C1651 C 0.32208 0.77708 0.66269 0.0
C1652 C 0.31909 0.78924 0.68473 0.0
C1653 C 0.33312 0.8058 0.69174 0.0
C1654 C 0.35095 0.80885 0.67759 0.0
H1655 H 0.40326 0.73991 0.64622 0.0
H1656 H 0.38009 0.75306 0.66371 0.0
H1657 H 0.3758 0.74344 0.63319 0.0
H1658 H 0.34156 0.77097 0.63138 0.0
H1659 H 0.31118 0.76452 0.65679 0.0
H1660 H 0.1559 0.49985 0.57972 0.0
H1661 H 0.16677 0.47129 0.61119 0.0
H1662 H 0.22955 0.44951 0.57795 0.0
H1663 H 0.21944 0.47828 0.54688 0.0
H1664 H 0.17974 0.4218 0.60944 0.0
H1665 H 0.24763 0.46861 0.64605 0.0
H1666 H 0.22665 0.48224 0.62521 0.0
H1667 H 0.2495 0.46125 0.61471 0.0
C1668 C 0.1721 0.48921 0.57899 0.0
C1669 C 0.18688 0.49216 0.56075 0.0
C1670 C 0.17821 0.47272 0.59702 0.0
C1671 C 0.19916 0.45875 0.59719 0.0
C1672 C 0.21351 0.46061 0.57847 0.0
H1673 H 0.27035 0.35405 0.69156 0.0
H1674 H 0.25759 0.38043 0.65852 0.0
C1675 C 0.2075 0.47713 0.5605 0.0
C1676 C 0.20615 0.44242 0.6171 0.0
H1677 H 0.24511 0.43089 0.66204 0.0
C1678 C 0.19396 0.42382 0.62102 0.0
C1679 C 0.22469 0.44519 0.63219 0.0
C1680 C 0.23778 0.46552 0.62954 0.0
C1681 C 0.20012 0.40756 0.63938 0.0
C1682 C 0.21875 0.41026 0.6543 0.0
C1683 C 0.23088 0.42889 0.65045 0.0
C1684 C 0.22601 0.39389 0.67403 0.0
C1685 C 0.18698 0.38736 0.64239 0.0
C1686 C 0.21248 0.39294 0.69372 0.0
C1687 C 0.21971 0.37793 0.71266 0.0
C1688 C 0.24061 0.36369 0.71219 0.0
C1689 C 0.25411 0.36472 0.6924 0.0
C1690 C 0.24689 0.37978 0.67354 0.0
H1691 H 0.17635 0.38471 0.62635 0.0
H1692 H 0.1982 0.37048 0.64591 0.0
H1693 H 0.17606 0.39137 0.65793 0.0
H1694 H 0.19646 0.40403 0.69457 0.0
H1695 H 0.20897 0.37758 0.72768 0.0
H1696 H 0.54373 0.23422 0.58443 0.0
H1697 H 0.57549 0.24261 0.60891 0.0
H1698 H 0.58774 0.29542 0.55881 0.0
H1699 H 0.55526 0.28744 0.5344 0.0
H1700 H 0.61768 0.23544 0.59622 0.0
H1701 H 0.5943 0.33074 0.6213 0.0
H1702 H 0.57458 0.31307 0.6082 0.0
H1703 H 0.59383 0.3248 0.58965 0.0
C1704 C 0.55288 0.24801 0.57885 0.0
C1705 C 0.5469 0.26029 0.55757 0.0
C1706 C 0.57113 0.25271 0.59284 0.0
C1707 C 0.58405 0.26971 0.58587 0.0
C1708 C 0.5778 0.28255 0.56489 0.0
H1709 H 0.70518 0.31383 0.64371 0.0
H1710 H 0.67289 0.30645 0.61965 0.0
C1711 C 0.55923 0.27803 0.55094 0.0
C1712 C 0.60467 0.27267 0.59998 0.0
H1713 H 0.63089 0.31311 0.63158 0.0
C1714 C 0.62054 0.25244 0.604 0.0
C1715 C 0.60847 0.29481 0.61016 0.0
C1716 C 0.59182 0.31706 0.60733 0.0
C1717 C 0.64015 0.25374 0.61758 0.0
C1718 C 0.64392 0.27587 0.62783 0.0
C1719 C 0.62806 0.29611 0.62377 0.0
C1720 C 0.66445 0.27883 0.64212 0.0
C1721 C 0.65683 0.23149 0.62027 0.0
C1722 C 0.6708 0.26558 0.6628 0.0
C1723 C 0.68961 0.26959 0.67659 0.0
C1724 C 0.70213 0.28726 0.67018 0.0
C1725 C 0.69584 0.30022 0.64934 0.0
C1726 C 0.67732 0.29603 0.63551 0.0
H1727 H 0.6545 0.21801 0.60605 0.0
H1728 H 0.67408 0.23553 0.61969 0.0
H1729 H 0.65466 0.22345 0.63776 0.0
H1730 H 0.66093 0.25254 0.66863 0.0
H1731 H 0.69395 0.25937 0.69257 0.0
H1732 H 0.77621 0.50951 0.45236 0.0
H1733 H 0.76417 0.47668 0.42795 0.0
H1734 H 0.82786 0.43414 0.44088 0.0
H1735 H 0.83995 0.4664 0.46476 0.0
H1736 H 0.79117 0.45312 0.3854 0.0
H1737 H 0.77877 0.39185 0.45805 0.0
H1738 H 0.77675 0.42371 0.46268 0.0
H1739 H 0.80346 0.40567 0.46096 0.0
C1740 C 0.78746 0.49303 0.45013 0.0
C1741 C 0.80901 0.49052 0.46033 0.0
C1742 C 0.78063 0.47441 0.43621 0.0
C1743 C 0.79514 0.45304 0.43288 0.0
C1744 C 0.8164 0.45043 0.44346 0.0
H1745 H 0.81131 0.31697 0.36183 0.0
H1746 H 0.81334 0.35253 0.38704 0.0
C1747 C 0.82329 0.46897 0.457 0.0
C1748 C 0.78897 0.43352 0.41743 0.0
H1749 H 0.78279 0.37489 0.41876 0.0
C1750 C 0.78886 0.43612 0.39258 0.0
C1751 C 0.78639 0.41137 0.42702 0.0
C1752 C 0.78617 0.40791 0.45365 0.0
C1753 C 0.7872 0.41671 0.37696 0.0
C1754 C 0.78511 0.39435 0.38659 0.0
C1755 C 0.7845 0.39202 0.41146 0.0
C1756 C 0.78396 0.37301 0.37119 0.0
C1757 C 0.78881 0.42004 0.35041 0.0
C1758 C 0.76669 0.37274 0.35415 0.0
C1759 C 0.76561 0.35263 0.33964 0.0
C1760 C 0.78162 0.33224 0.34213 0.0
C1761 C 0.79879 0.33242 0.35943 0.0
C1762 C 0.79993 0.35267 0.37386 0.0
H1763 H 0.7961 0.43629 0.3465 0.0
H1764 H 0.79905 0.40444 0.34194 0.0
H1765 H 0.77194 0.4219 0.34201 0.0
H1766 H 0.75392 0.38803 0.35219 0.0
H1767 H 0.75204 0.35303 0.32664 0.0
H1768 H 0.5934 0.82493 0.46208 0.0
H1769 H 0.62493 0.82531 0.43581 0.0
H1770 H 0.5885 0.79582 0.37802 0.0
H1771 H 0.55701 0.79535 0.40413 0.0
H1772 H 0.64345 0.77638 0.40375 0.0
H1773 H 0.616 0.86237 0.35862 0.0
H1774 H 0.60878 0.85723 0.38898 0.0
H1775 H 0.59531 0.84375 0.36443 0.0
C1776 C 0.59209 0.81878 0.44369 0.0
C1777 C 0.57287 0.81003 0.43507 0.0
C1778 C 0.61007 0.81893 0.42882 0.0
C1779 C 0.60885 0.81065 0.40511 0.0
C1780 C 0.58959 0.80229 0.39634 0.0
H1781 H 0.67129 0.79177 0.27391 0.0
H1782 H 0.64817 0.79998 0.30868 0.0
C1783 C 0.57174 0.8019 0.41124 0.0
C1784 C 0.62792 0.80969 0.38947 0.0
H1785 H 0.64548 0.83637 0.34121 0.0
C1786 C 0.64428 0.78963 0.3903 0.0
C1787 C 0.62864 0.82708 0.37211 0.0
C1788 C 0.61135 0.84896 0.37089 0.0
C1789 C 0.66077 0.78573 0.37309 0.0
C1790 C 0.66102 0.8027 0.35501 0.0
C1791 C 0.64526 0.82341 0.35509 0.0
C1792 C 0.67568 0.7981 0.33429 0.0
C1793 C 0.67684 0.76284 0.37357 0.0
C1794 C 0.6989 0.79444 0.33712 0.0
C1795 C 0.71226 0.78943 0.31716 0.0
C1796 C 0.70256 0.78837 0.29409 0.0
C1797 C 0.67932 0.79251 0.29139 0.0
C1798 C 0.66606 0.79725 0.31126 0.0
H1799 H 0.67149 0.74966 0.38567 0.0
H1800 H 0.67869 0.75468 0.35536 0.0
H1801 H 0.69335 0.76666 0.38006 0.0
H1802 H 0.70666 0.79545 0.3547 0.0
H1803 H 0.73013 0.78645 0.31977 0.0
H1804 H 0.16522 0.65471 0.45006 0.0
H1805 H 0.17562 0.68446 0.42333 0.0
H1806 H 0.2322 0.63495 0.40104 0.0
H1807 H 0.22159 0.60493 0.42711 0.0
H1808 H 0.21567 0.70345 0.42483 0.0
H1809 H 0.20315 0.65838 0.33737 0.0
H1810 H 0.19195 0.6495 0.3647 0.0
H1811 H 0.22075 0.64054 0.35839 0.0
C1812 C 0.17965 0.65 0.43917 0.0
C1813 C 0.19252 0.62739 0.44073 0.0
C1814 C 0.18565 0.66708 0.42402 0.0
C1815 C 0.20452 0.66182 0.40997 0.0
C1816 C 0.21736 0.63926 0.4114 0.0
H1817 H 0.27232 0.73996 0.31128 0.0
H1818 H 0.25962 0.71002 0.33606 0.0
C1819 C 0.21139 0.6222 0.42655 0.0
C1820 C 0.21132 0.68026 0.39462 0.0
H1821 H 0.22114 0.69269 0.33683 0.0
C1822 C 0.21674 0.70121 0.40556 0.0
C1823 C 0.21286 0.67716 0.36953 0.0
C1824 C 0.2067 0.65528 0.35672 0.0
C1825 C 0.2241 0.71898 0.39217 0.0
C1826 C 0.22551 0.71599 0.36701 0.0
C1827 C 0.22003 0.69502 0.35608 0.0
C1828 C 0.23287 0.73425 0.35172 0.0
C1829 C 0.23095 0.74039 0.40526 0.0
C1830 C 0.22181 0.75777 0.35187 0.0
C1831 C 0.22919 0.77499 0.33791 0.0
C1832 C 0.24753 0.76895 0.32315 0.0
C1833 C 0.25814 0.74522 0.32244 0.0
C1834 C 0.25091 0.72808 0.33662 0.0
H1835 H 0.23517 0.73665 0.42438 0.0
H1836 H 0.24549 0.74626 0.39693 0.0
H1837 H 0.21696 0.75528 0.4046 0.0
H1838 H 0.20745 0.76283 0.3628 0.0
H1839 H 0.2205 0.79304 0.33867 0.0
H1840 H 0.43764 0.29149 0.46824 0.0
H1841 H 0.40661 0.30021 0.43891 0.0
H1842 H 0.43063 0.23583 0.3995 0.0
H1843 H 0.46086 0.22682 0.42874 0.0
H1844 H 0.40292 0.30646 0.39031 0.0
H1845 H 0.36826 0.22534 0.41246 0.0
H1846 H 0.39007 0.23591 0.43033 0.0
H1847 H 0.39649 0.21836 0.40349 0.0
C1848 C 0.43636 0.27942 0.45314 0.0
C1849 C 0.45147 0.25832 0.45097 0.0
C1850 C 0.41861 0.28433 0.43646 0.0
C1851 C 0.41586 0.26825 0.4174 0.0
C1852 C 0.43187 0.24807 0.41447 0.0
H1853 H 0.33743 0.28768 0.28566 0.0
H1854 H 0.36622 0.28497 0.31723 0.0
C1855 C 0.44928 0.24305 0.43114 0.0
C1856 C 0.39626 0.27201 0.40061 0.0
H1857 H 0.35496 0.2439 0.37573 0.0
C1858 C 0.39228 0.29291 0.3873 0.0
C1859 C 0.38206 0.25452 0.39691 0.0
C1860 C 0.38428 0.23241 0.41175 0.0
C1861 C 0.37508 0.29637 0.36979 0.0
C1862 C 0.36181 0.27819 0.36507 0.0
C1863 C 0.36529 0.25771 0.37902 0.0
C1864 C 0.34425 0.27994 0.34577 0.0
C1865 C 0.37121 0.31957 0.3567 0.0
C1866 C 0.32239 0.27713 0.35102 0.0
C1867 C 0.30592 0.27832 0.33291 0.0
C1868 C 0.31094 0.28222 0.30906 0.0
C1869 C 0.33292 0.28469 0.30379 0.0
C1870 C 0.34939 0.28342 0.32191 0.0
H1871 H 0.37774 0.334 0.36722 0.0
H1872 H 0.38001 0.31733 0.33954 0.0
H1873 H 0.35327 0.32522 0.35273 0.0
H1874 H 0.31801 0.27419 0.36922 0.0
H1875 H 0.28921 0.2763 0.33765 0.0
H1876 H 0.53882 0.87122 0.56697 0.0
H1877 H 0.56043 0.87765 0.60374 0.0
H1878 H 0.61792 0.835 0.57378 0.0
H1879 H 0.59656 0.82855 0.53728 0.0
H1880 H 0.57994 0.83761 0.63114 0.0
H1881 H 0.64342 0.89181 0.60482 0.0
H1882 H 0.61765 0.89129 0.58808 0.0
H1883 H 0.64037 0.86753 0.58444 0.0
C1884 C 0.55628 0.86397 0.56797 0.0
C1885 C 0.56613 0.84945 0.54935 0.0
C1886 C 0.56852 0.86752 0.58898 0.0
C1887 C 0.59079 0.85701 0.5913 0.0
C1888 C 0.60089 0.84366 0.57214 0.0
H1889 H 0.6957 0.80917 0.68619 0.0
H1890 H 0.67024 0.82359 0.65364 0.0
C1891 C 0.58866 0.8399 0.55136 0.0
C1892 C 0.60288 0.85712 0.61455 0.0
H1893 H 0.65192 0.86826 0.63996 0.0
C1894 C 0.59541 0.84481 0.6334 0.0
C1895 C 0.62313 0.86631 0.61717 0.0
C1896 C 0.63155 0.88017 0.59762 0.0
C1897 C 0.60842 0.84008 0.65432 0.0
C1898 C 0.62913 0.8485 0.6566 0.0
C1899 C 0.63603 0.86187 0.63819 0.0
C1900 C 0.64488 0.8415 0.67671 0.0
C1901 C 0.60058 0.82472 0.67301 0.0
C1902 C 0.63923 0.84717 0.70053 0.0
C1903 C 0.6537 0.83869 0.71931 0.0
C1904 C 0.67417 0.82473 0.7145 0.0
C1905 C 0.68009 0.81992 0.69057 0.0
C1906 C 0.66557 0.82818 0.67189 0.0
H1907 H 0.58659 0.81567 0.66623 0.0
H1908 H 0.61431 0.81095 0.67915 0.0
H1909 H 0.59479 0.83599 0.68871 0.0
H1910 H 0.62352 0.85785 0.7046 0.0
H1911 H 0.64875 0.84281 0.73755 0.0
H1912 H 0.55985 0.19982 0.41859 0.0
H1913 H 0.58989 0.20729 0.39321 0.0
H1914 H 0.6084 0.25889 0.44493 0.0
H1915 H 0.5783 0.25158 0.47038 0.0
H1916 H 0.60673 0.27559 0.40024 0.0
H1917 H 0.65574 0.18548 0.40142 0.0
H1918 H 0.62749 0.18506 0.39166 0.0
H1919 H 0.6335 0.19472 0.42172 0.0
C1920 C 0.5705 0.21248 0.42476 0.0
C1921 C 0.56672 0.22499 0.4466 0.0
C1922 C 0.58772 0.21672 0.41023 0.0
C1923 C 0.60168 0.23332 0.41736 0.0
C1924 C 0.59791 0.2459 0.43911 0.0
H1925 H 0.72375 0.25188 0.34617 0.0
H1926 H 0.6969 0.24242 0.37486 0.0
C1927 C 0.58063 0.24176 0.4536 0.0
C1928 C 0.61964 0.23825 0.40169 0.0
H1929 H 0.66501 0.21169 0.37162 0.0
C1930 C 0.61955 0.26164 0.39412 0.0
C1931 C 0.63663 0.22014 0.39404 0.0
C1932 C 0.63853 0.195 0.40283 0.0
C1933 C 0.63555 0.26727 0.37853 0.0
C1934 C 0.65177 0.24891 0.36984 0.0
C1935 C 0.65234 0.22567 0.37801 0.0
C1936 C 0.66813 0.25355 0.35206 0.0
C1937 C 0.63506 0.29288 0.37169 0.0
C1938 C 0.66089 0.26233 0.3295 0.0
C1939 C 0.67615 0.26775 0.31308 0.0
C1940 C 0.69899 0.26435 0.31882 0.0
C1941 C 0.70627 0.25477 0.34116 0.0
C1942 C 0.69096 0.24936 0.3576 0.0
H1943 H 0.62582 0.30535 0.38475 0.0
H1944 H 0.65212 0.29735 0.37047 0.0
H1945 H 0.6266 0.29574 0.35393 0.0
H1946 H 0.64338 0.2652 0.32465 0.0
H1947 H 0.66997 0.27497 0.29602 0.0
H1948 H 0.86303 0.59055 0.41102 0.0
H1949 H 0.85306 0.62013 0.38009 0.0
H1950 H 0.79875 0.65402 0.42215 0.0
H1951 H 0.80888 0.62497 0.45352 0.0
H1952 H 0.7888 0.64268 0.37099 0.0
H1953 H 0.85958 0.69333 0.38637 0.0
H1954 H 0.86642 0.66142 0.38455 0.0
H1955 H 0.8504 0.67506 0.40894 0.0
C1956 C 0.84919 0.60446 0.41394 0.0
C1957 C 0.83678 0.60531 0.43485 0.0
C1958 C 0.84345 0.62128 0.39617 0.0
C1959 C 0.82524 0.6392 0.39896 0.0
C1960 C 0.81283 0.64021 0.41972 0.0
H1961 H 0.79733 0.7657 0.31416 0.0
H1962 H 0.80329 0.73716 0.34647 0.0
C1963 C 0.81861 0.62351 0.43757 0.0
C1964 C 0.81896 0.65674 0.38003 0.0
H1965 H 0.83652 0.70303 0.35229 0.0
C1966 C 0.79912 0.65598 0.36688 0.0
C1967 C 0.83239 0.67413 0.37507 0.0
C1968 C 0.85332 0.67629 0.38953 0.0
C1969 C 0.79244 0.6721 0.34854 0.0
C1970 C 0.80625 0.68909 0.343 0.0
C1971 C 0.82598 0.68994 0.35645 0.0
C1972 C 0.80061 0.70637 0.32356 0.0
C1973 C 0.77049 0.67102 0.33565 0.0
C1974 C 0.79681 0.69861 0.29996 0.0
C1975 C 0.79294 0.71498 0.28152 0.0
C1976 C 0.79345 0.73928 0.28631 0.0
C1977 C 0.79699 0.74704 0.30995 0.0
C1978 C 0.80041 0.73075 0.32841 0.0
H1979 H 0.75914 0.66248 0.34669 0.0
H1980 H 0.76213 0.68905 0.33083 0.0
H1981 H 0.77337 0.66017 0.31897 0.0
H1982 H 0.79748 0.67984 0.29565 0.0
H1983 H 0.79045 0.70852 0.2634 0.0
H1984 H 0.46985 0.87725 0.45047 0.0
H1985 H 0.43854 0.88642 0.4218 0.0
H1986 H 0.40347 0.83686 0.45689 0.0
H1987 H 0.43422 0.8281 0.48541 0.0
H1988 H 0.42809 0.85188 0.39197 0.0
H1989 H 0.35303 0.88775 0.441 0.0
H1990 H 0.38062 0.88838 0.45353 0.0
H1991 H 0.36737 0.86219 0.45588 0.0
C1992 C 0.45499 0.86921 0.45258 0.0
C1993 C 0.4543 0.85195 0.46994 0.0
C1994 C 0.43721 0.87435 0.43621 0.0
C1995 C 0.41856 0.86255 0.4374 0.0
C1996 C 0.41736 0.84669 0.45596 0.0
H1997 H 0.35042 0.78581 0.34095 0.0
H1998 H 0.37435 0.80387 0.36953 0.0
C1999 C 0.43504 0.84149 0.47212 0.0
C2000 C 0.40234 0.86297 0.41723 0.0
H2001 H 0.34717 0.86219 0.40579 0.0
C2002 C 0.41035 0.85491 0.39477 0.0
C2003 C 0.37921 0.86698 0.42083 0.0
C2004 C 0.36961 0.87705 0.4441 0.0
C2005 C 0.39594 0.84878 0.37648 0.0
C2006 C 0.37308 0.8505 0.38096 0.0
C2007 C 0.36481 0.86052 0.40262 0.0
C2008 C 0.35799 0.8399 0.36422 0.0
C2009 C 0.4054 0.83945 0.35288 0.0
C2010 C 0.34053 0.85419 0.35238 0.0
C2011 C 0.32678 0.84392 0.33601 0.0
C2012 C 0.33023 0.81919 0.33149 0.0
C2013 C 0.3474 0.80491 0.34394 0.0
C2014 C 0.36114 0.81519 0.36018 0.0
H2015 H 0.4216 0.8455 0.34985 0.0
H2016 H 0.40814 0.8197 0.35291 0.0
H2017 H 0.39379 0.84528 0.33777 0.0
H2018 H 0.33779 0.87328 0.3555 0.0
H2019 H 0.31359 0.85537 0.32679 0.0
H2020 H 0.22234 0.52233 0.43279 0.0
H2021 H 0.22694 0.4933 0.40001 0.0
H2022 H 0.26884 0.44411 0.44526 0.0
H2023 H 0.26386 0.47305 0.47869 0.0
H2024 H 0.26409 0.47116 0.37739 0.0
H2025 H 0.2207 0.40529 0.42187 0.0
H2026 H 0.21979 0.43552 0.43293 0.0
H2027 H 0.24412 0.41409 0.43814 0.0
C2028 C 0.23267 0.50541 0.43585 0.0
C2029 C 0.24257 0.49991 0.45848 0.0
C2030 C 0.23528 0.48883 0.41703 0.0
C2031 C 0.24785 0.4664 0.42034 0.0
C2032 C 0.25865 0.46116 0.44253 0.0
H2033 H 0.26901 0.34479 0.32223 0.0
H2034 H 0.26744 0.37139 0.35722 0.0
C2035 C 0.25598 0.47779 0.46152 0.0
C2036 C 0.24912 0.44862 0.40044 0.0
H2037 H 0.23397 0.39507 0.38329 0.0
C2038 C 0.25759 0.45447 0.37868 0.0
C2039 C 0.24058 0.4269 0.40222 0.0
C2040 C 0.23061 0.42005 0.42496 0.0
C2041 C 0.25776 0.43921 0.35858 0.0
C2042 C 0.24876 0.41773 0.36018 0.0
C2043 C 0.24068 0.41164 0.38208 0.0
C2044 C 0.24801 0.40116 0.33939 0.0
C2045 C 0.2679 0.44612 0.33597 0.0
C2046 C 0.23691 0.4088 0.31796 0.0
C2047 C 0.23794 0.3937 0.29778 0.0
C2048 C 0.24976 0.37056 0.29885 0.0
C2049 C 0.25975 0.36252 0.32076 0.0
C2050 C 0.25892 0.37771 0.34081 0.0
H2051 H 0.27933 0.45939 0.33963 0.0
H2052 H 0.2772 0.43033 0.32682 0.0
H2053 H 0.2545 0.45426 0.32359 0.0
H2054 H 0.22783 0.42662 0.31669 0.0
H2055 H 0.22992 0.40032 0.28123 0.0
H2056 H 0.44771 0.19082 0.58371 0.0
H2057 H 0.41932 0.19769 0.61368 0.0
H2058 H 0.40687 0.27204 0.59636 0.0
H2059 H 0.43438 0.26531 0.5655 0.0
H2060 H 0.41626 0.22486 0.65336 0.0
H2061 H 0.34498 0.25587 0.59262 0.0
H2062 H 0.37152 0.24228 0.58172 0.0
H2063 H 0.36712 0.27326 0.5906 0.0
C2064 C 0.43884 0.20863 0.58584 0.0
C2065 C 0.44349 0.22739 0.57168 0.0
C2066 C 0.42261 0.21254 0.60324 0.0
C2067 C 0.4106 0.23528 0.60701 0.0
C2068 C 0.41547 0.25417 0.59338 0.0
H2069 H 0.31271 0.29482 0.71125 0.0
H2070 H 0.3409 0.28889 0.68035 0.0
C2071 C 0.43154 0.25027 0.57581 0.0
C2072 C 0.39333 0.23929 0.62555 0.0
H2073 H 0.33876 0.2611 0.63443 0.0
C2074 C 0.3993 0.23269 0.64917 0.0
C2075 C 0.37113 0.24938 0.6201 0.0
C2076 C 0.36322 0.25538 0.59485 0.0
C2077 C 0.38383 0.23629 0.66751 0.0
C2078 C 0.36178 0.24676 0.66212 0.0
C2079 C 0.35575 0.25332 0.63854 0.0
C2080 C 0.34464 0.25045 0.68069 0.0
C2081 C 0.3912 0.22914 0.69262 0.0
C2082 C 0.33728 0.23083 0.69091 0.0
C2083 C 0.32126 0.23415 0.70852 0.0
C2084 C 0.31222 0.25721 0.71632 0.0
C2085 C 0.31951 0.27687 0.70589 0.0
C2086 C 0.33552 0.27351 0.68814 0.0
H2087 H 0.40956 0.22572 0.69475 0.0
H2088 H 0.38457 0.24319 0.70575 0.0
H2089 H 0.38461 0.21259 0.69694 0.0
H2090 H 0.34389 0.21289 0.68519 0.0
H2091 H 0.31599 0.21858 0.71606 0.0
H2092 H 0.81239 0.49737 0.57928 0.0
H2093 H 0.80379 0.46423 0.60266 0.0
H2094 H 0.86276 0.42041 0.57733 0.0
H2095 H 0.87163 0.4538 0.5543 0.0
H2096 H 0.79529 0.42147 0.58563 0.0
H2097 H 0.86812 0.40897 0.64844 0.0
H2098 H 0.86132 0.43513 0.63048 0.0
H2099 H 0.8753 0.40792 0.61752 0.0
C2100 C 0.82361 0.48072 0.57893 0.0
C2101 C 0.84271 0.4781 0.56511 0.0
C2102 C 0.8187 0.46184 0.59226 0.0
C2103 C 0.83277 0.43995 0.59195 0.0
C2104 C 0.85198 0.43733 0.57831 0.0
H2105 H 0.81921 0.30312 0.65286 0.0
H2106 H 0.83095 0.33481 0.62945 0.0
C2107 C 0.85703 0.45635 0.56516 0.0
C2108 C 0.82661 0.41961 0.60495 0.0
H2109 H 0.84425 0.37949 0.64842 0.0
C2110 C 0.80598 0.41233 0.59939 0.0
C2111 C 0.8406 0.4077 0.62286 0.0
C2112 C 0.86248 0.41544 0.63038 0.0
C2113 C 0.79899 0.3934 0.61123 0.0
C2114 C 0.81297 0.38156 0.62913 0.0
C2115 C 0.83368 0.3886 0.63454 0.0
C2116 C 0.80594 0.36244 0.64312 0.0
C2117 C 0.77675 0.38612 0.60445 0.0
C2118 C 0.78821 0.36768 0.65866 0.0
C2119 C 0.78152 0.34975 0.67203 0.0
C2120 C 0.79251 0.32623 0.67015 0.0
C2121 C 0.81039 0.32104 0.65464 0.0
C2122 C 0.81713 0.33908 0.64131 0.0
H2123 H 0.77045 0.39313 0.58678 0.0
H2124 H 0.77778 0.36643 0.60391 0.0
H2125 H 0.76452 0.3933 0.61807 0.0
H2126 H 0.7796 0.3857 0.66052 0.0
H2127 H 0.76771 0.35437 0.68383 0.0
H2128 H 0.27309 0.60632 0.52747 0.0
H2129 H 0.2782 0.63526 0.55971 0.0
H2130 H 0.21933 0.61924 0.59307 0.0
H2131 H 0.21499 0.58961 0.56216 0.0
H2132 H 0.25367 0.67425 0.57045 0.0
H2133 H 0.25759 0.61921 0.65057 0.0
H2134 H 0.25928 0.60614 0.62087 0.0
H2135 H 0.23266 0.6164 0.63373 0.0
C2136 C 0.26163 0.60858 0.54207 0.0
C2137 C 0.24381 0.59549 0.54236 0.0
C2138 C 0.26448 0.62517 0.56041 0.0
C2139 C 0.2494 0.62914 0.57916 0.0
C2140 C 0.23171 0.61594 0.57943 0.0
H2141 H 0.22089 0.76341 0.65837 0.0
H2142 H 0.22107 0.7301 0.62964 0.0
C2143 C 0.22916 0.59906 0.56152 0.0
C2144 C 0.25086 0.64838 0.59732 0.0
H2145 H 0.24598 0.66139 0.65694 0.0
C2146 C 0.25238 0.67134 0.58942 0.0
C2147 C 0.24945 0.64464 0.62213 0.0
C2148 C 0.24992 0.62018 0.63228 0.0
C2149 C 0.25195 0.69073 0.60551 0.0
C2150 C 0.24884 0.68728 0.6301 0.0
C2151 C 0.2479 0.66421 0.63806 0.0
C2152 C 0.2474 0.70708 0.64808 0.0
C2153 C 0.25529 0.71452 0.59592 0.0
C2154 C 0.26107 0.7047 0.66877 0.0
C2155 C 0.26032 0.72325 0.6856 0.0
C2156 C 0.24619 0.74482 0.6819 0.0
C2157 C 0.23206 0.74705 0.66155 0.0
C2158 C 0.23239 0.72815 0.64498 0.0
H2159 H 0.26454 0.71238 0.57899 0.0
H2160 H 0.23887 0.72517 0.59196 0.0
H2161 H 0.26452 0.72462 0.60902 0.0
H2162 H 0.27271 0.68862 0.6717 0.0
H2163 H 0.27153 0.72098 0.70105 0.0
loop_
_geom_bond_atom_site_label_1
_geom_bond_atom_site_label_2
_geom_bond_distance
_geom_bond_site_symmetry_2
_ccdc_geom_bond_type
Cu0 N1 1.999 . S
Cu0 O6 1.974 . S
Cu0 N11 1.971 1_445 S
Cu0 O20 1.959 1_455 S
N1 Cu0 1.999 . S
N1 C3 1.263 . S
N1 C5 1.389 . S
N2 C3 1.358 . S
N2 C4 1.400 . S
C3 N1 1.263 . S
C3 N2 1.358 . S
C3 H9 0.930 . S
C4 N2 1.400 . S
C4 C5 1.351 . S
C4 H21 0.930 . S
C5 N1 1.389 . S
C5 C4 1.351 . S
C5 H10 0.930 . S
O6 Cu0 1.974 . S
O6 C16 1.282 1_545 S
C7 O8 1.261 . S
C7 O20 1.251 . S
O8 C7 1.261 . S
H9 C3 0.930 . S
H10 C5 0.930 . S
N11 Cu0 1.971 1_665 S
N11 C13 1.338 . S
N11 C14 1.405 . S
N12 C13 1.340 . S
N12 C15 1.336 . S
C13 N11 1.338 . S
C13 N12 1.340 . S
C13 H18 0.933 1_565 S
C14 N11 1.405 . S
C14 C15 1.346 . S
C14 H19 0.930 1_655 S
C15 N12 1.336 . S
C15 C14 1.346 . S
C15 H22 0.929 . S
C16 O6 1.282 1_565 S
C16 O17 1.224 . S
O17 C16 1.224 . S
H18 C13 0.933 1_545 S
H19 C14 0.930 1_455 S
O20 Cu0 1.959 1_655 S
O20 C7 1.251 . S
H21 C4 0.930 . S
H22 C15 0.929 . S
Cu23 N24 1.999 1_445 S
Cu23 O29 1.974 1_455 S
Cu23 N34 1.985 . S
Cu23 O43 1.959 1_545 S
N24 Cu23 1.999 1_665 S
N24 C26 1.263 . S
N24 C28 1.389 . S
N25 C26 1.358 . S
N25 C27 1.400 . S
C26 N24 1.263 . S
C26 N25 1.358 . S
C26 H32 0.930 1_565 S
C27 N25 1.400 . S
C27 C28 1.351 . S
C27 H44 0.930 . S
C28 N24 1.389 . S
C28 C27 1.351 . S
C28 H33 0.924 1_655 S
O29 Cu23 1.974 1_655 S
O29 C39 1.282 . S
C30 O31 1.261 . S
C30 O43 1.251 . S
O31 C30 1.261 . S
H32 C26 0.930 1_545 S
H33 C28 0.924 1_455 S
N34 Cu23 1.985 . S
N34 C36 1.335 . S
N34 C37 1.390 . S
N35 C36 1.345 . S
N35 C38 1.336 . S
C36 N34 1.335 . S
C36 N35 1.345 . S
C36 H41 0.930 . S
C37 N34 1.390 . S
C37 C38 1.346 . S
C37 H42 0.930 . S
C38 N35 1.336 . S
C38 C37 1.346 . S
C38 H45 0.929 . S
C39 O29 1.282 . S
C39 O40 1.216 . S
O40 C39 1.216 . S
H41 C36 0.930 . S
H42 C37 0.930 . S
O43 Cu23 1.959 1_565 S
O43 C30 1.251 . S
H44 C27 0.930 . S
H45 C38 0.929 . S
Cu46 N47 2.012 1_554 S
Cu46 O52 1.989 . S
Cu46 N57 1.972 1_565 S
Cu46 O66 1.944 1_564 S
N47 Cu46 2.012 1_556 S
N47 C49 1.263 . S
N47 C51 1.389 . S
N48 C49 1.358 . S
N48 C50 1.400 . S
C49 N47 1.263 . S
C49 N48 1.358 . S
C49 H55 0.930 . S
C50 N48 1.400 . S
C50 C51 1.351 . S
C50 H67 0.930 . S
C51 N47 1.389 . S
C51 C50 1.351 . S
C51 H56 0.930 . S
O52 Cu46 1.989 . S
O52 C62 1.282 . S
C53 O54 1.261 . S
C53 O66 1.251 . S
O54 C53 1.261 . S
H55 C49 0.930 . S
H56 C51 0.930 . S
N57 Cu46 1.972 1_545 S
N57 C59 1.335 . S
N57 C60 1.390 . S
N58 C59 1.345 . S
N58 C61 1.336 . S
C59 N57 1.335 . S
C59 N58 1.345 . S
C59 H64 0.930 . S
C60 N57 1.390 . S
C60 C61 1.346 . S
C60 H65 0.930 . S
C61 N58 1.336 . S
C61 C60 1.346 . S
C61 H68 0.929 . S
C62 O52 1.282 . S
C62 O63 1.216 . S
O63 C62 1.216 . S
H64 C59 0.930 . S
H65 C60 0.930 . S
O66 Cu46 1.944 1_546 S
O66 C53 1.251 . S
H67 C50 0.930 . S
H68 C61 0.929 . S
Cu69 N70 1.999 1_554 S
Cu69 O75 1.974 . S
Cu69 N80 1.985 1_455 S
Cu69 O89 1.959 1_454 S
N70 Cu69 1.999 1_556 S
N70 C72 1.263 . S
N70 C74 1.389 . S
N71 C72 1.358 . S
N71 C73 1.400 . S
C72 N70 1.263 . S
C72 N71 1.358 . S
C72 H78 0.930 . S
C73 N71 1.400 . S
C73 C74 1.351 . S
C73 H90 0.930 . S
C74 N70 1.389 . S
C74 C73 1.351 . S
C74 H79 0.930 . S
O75 Cu69 1.974 . S
O75 C85 1.282 . S
C76 O77 1.261 . S
C76 O89 1.251 . S
O77 C76 1.261 . S
H78 C72 0.930 . S
H79 C74 0.930 . S
N80 Cu69 1.985 1_655 S
N80 C82 1.335 . S
N80 C83 1.390 . S
N81 C82 1.345 . S
N81 C84 1.336 . S
C82 N80 1.335 . S
C82 N81 1.345 . S
C82 H87 0.930 . S
C83 N80 1.390 . S
C83 C84 1.346 . S
C83 H88 0.930 1_655 S
C84 N81 1.336 . S
C84 C83 1.346 . S
C84 H91 0.929 . S
C85 O75 1.282 . S
C85 O86 1.216 . S
O86 C85 1.216 . S
H87 C82 0.930 . S
H88 C83 0.930 1_455 S
O89 Cu69 1.959 1_656 S
O89 C76 1.251 . S
H90 C73 0.930 . S
H91 C84 0.929 . S
Cu92 N93 1.999 1_554 S
Cu92 O98 1.974 . S
Cu92 N103 1.985 . S
Cu92 O112 1.959 1_554 S
N93 Cu92 1.999 1_556 S
N93 C95 1.263 . S
N93 C97 1.389 . S
N94 C95 1.358 . S
N94 C96 1.400 . S
C95 N93 1.263 . S
C95 N94 1.358 . S
C95 H101 0.930 . S
C96 N94 1.400 . S
C96 C97 1.351 . S
C96 H113 0.930 . S
C97 N93 1.389 . S
C97 C96 1.351 . S
C97 H102 0.930 . S
O98 Cu92 1.974 . S
O98 C108 1.282 . S
C99 O100 1.246 1_565 S
C99 O112 1.251 1_565 S
O100 C99 1.246 1_545 S
H101 C95 0.930 . S
H102 C97 0.930 . S
N103 Cu92 1.985 . S
N103 C105 1.335 1_545 S
N103 C106 1.390 . S
N104 C105 1.345 . S
N104 C107 1.336 . S
C105 N103 1.335 1_565 S
C105 N104 1.345 . S
C105 H110 0.930 . S
C106 N103 1.390 . S
C106 C107 1.346 1_545 S
C106 H111 0.930 . S
C107 N104 1.336 . S
C107 C106 1.346 1_565 S
C107 H114 0.929 . S
C108 O98 1.282 . S
C108 O109 1.216 . S
O109 C108 1.216 . S
H110 C105 0.930 . S
H111 C106 0.930 . S
O112 Cu92 1.959 1_556 S
O112 C99 1.251 1_545 S
H113 C96 0.930 . S
H114 C107 0.929 . S
Cu115 N116 1.999 1_454 S
Cu115 O121 1.974 1_455 S
Cu115 N126 1.985 . S
Cu115 O135 1.959 1_554 S
N116 Cu115 1.999 1_656 S
N116 C118 1.263 . S
N116 C120 1.389 . S
N117 C118 1.358 . S
N117 C119 1.400 . S
C118 N116 1.263 . S
C118 N117 1.358 . S
C118 H124 0.930 . S
C119 N117 1.400 . S
C119 C120 1.351 . S
C119 H136 0.930 . S
C120 N116 1.389 . S
C120 C119 1.351 . S
C120 H125 0.930 1_655 S
O121 Cu115 1.974 1_655 S
O121 C131 1.282 . S
C122 O123 1.261 . S
C122 O135 1.251 . S
O123 C122 1.261 . S
H124 C118 0.930 . S
H125 C120 0.930 1_455 S
N126 Cu115 1.985 . S
N126 C128 1.335 . S
N126 C129 1.390 . S
N127 C128 1.345 . S
N127 C130 1.336 . S
C128 N126 1.335 . S
C128 N127 1.345 . S
C128 H133 0.930 . S
C129 N126 1.390 . S
C129 C130 1.346 . S
C129 H134 0.930 . S
C130 N127 1.336 . S
C130 C129 1.346 . S
C130 H137 0.929 . S
C131 O121 1.282 . S
C131 O132 1.216 . S
O132 C131 1.216 . S
H133 C128 0.930 . S
H134 C129 0.930 . S
O135 Cu115 1.959 1_556 S
O135 C122 1.251 . S
H136 C119 0.930 . S
H137 C130 0.929 . S
Cu138 N139 1.999 . S
Cu138 O144 1.974 . S
Cu138 N149 1.985 . S
Cu138 O158 1.959 . S
N139 Cu138 1.999 . S
N139 C141 1.263 . S
N139 C143 1.389 . S
N140 C141 1.358 . S
N140 C142 1.400 . S
C141 N139 1.263 . S
C141 N140 1.358 . S
C141 H147 0.930 . S
C142 N140 1.400 . S
C142 C143 1.351 . S
C142 H159 0.930 . S
C143 N139 1.389 . S
C143 C142 1.351 . S
C143 H148 0.930 . S
O144 Cu138 1.974 . S
O144 C154 1.282 . S
C145 O146 1.261 . S
C145 O158 1.251 . S
O146 C145 1.261 . S
H147 C141 0.930 . S
H148 C143 0.930 . S
N149 Cu138 1.985 . S
N149 C151 1.335 . S
N149 C152 1.390 . S
N150 C151 1.345 . S
N150 C153 1.336 . S
C151 N149 1.335 . S
C151 N150 1.345 . S
C151 H156 0.930 . S
C152 N149 1.390 . S
C152 C153 1.346 . S
C152 H157 0.930 . S
C153 N150 1.336 . S
C153 C152 1.346 . S
C153 H160 0.929 . S
C154 O144 1.282 . S
C154 O155 1.216 . S
O155 C154 1.216 . S
H156 C151 0.930 . S
H157 C152 0.930 . S
O158 Cu138 1.959 . S
O158 C145 1.251 . S
H159 C142 0.930 . S
H160 C153 0.929 . S
Cu161 N162 1.999 . S
Cu161 O167 1.974 . S
Cu161 N172 1.985 . S
Cu161 O181 1.959 . S
N162 Cu161 1.999 . S
N162 C164 1.263 . S
N162 C166 1.389 . S
N163 C164 1.358 . S
N163 C165 1.400 . S
C164 N162 1.263 . S
C164 N163 1.358 . S
C164 H170 0.930 . S
C165 N163 1.400 . S
C165 C166 1.351 . S
C165 H182 0.930 . S
C166 N162 1.389 . S
C166 C165 1.351 . S
C166 H171 0.930 . S
O167 Cu161 1.974 . S
O167 C177 1.282 . S
C168 O169 1.261 . S
C168 O181 1.251 . S
O169 C168 1.261 . S
H170 C164 0.930 . S
H171 C166 0.930 . S
N172 Cu161 1.985 . S
N172 C174 1.335 . S
N172 C175 1.390 . S
N173 C174 1.345 . S
N173 C176 1.336 . S
C174 N172 1.335 . S
C174 N173 1.345 . S
C174 H179 0.930 . S
C175 N172 1.390 . S
C175 C176 1.346 . S
C175 H180 0.930 . S
C176 N173 1.336 . S
C176 C175 1.346 . S
C176 H183 0.929 . S
C177 O167 1.282 . S
C177 O178 1.216 . S
O178 C177 1.216 . S
H179 C174 0.930 . S
H180 C175 0.930 . S
O181 Cu161 1.959 . S
O181 C168 1.251 . S
H182 C165 0.930 . S
H183 C176 0.929 . S
Cu184 N185 1.999 . S
Cu184 O190 1.974 . S
Cu184 N195 1.985 . S
Cu184 O204 1.959 . S
N185 Cu184 1.999 . S
N185 C187 1.263 . S
N185 C189 1.389 . S
N186 C187 1.358 . S
N186 C188 1.400 . S
C187 N185 1.263 . S
C187 N186 1.358 . S
C187 H193 0.930 . S
C188 N186 1.400 . S
C188 C189 1.351 . S
C188 H205 0.930 . S
C189 N185 1.389 . S
C189 C188 1.351 . S
C189 H194 0.930 . S
O190 Cu184 1.974 . S
O190 C200 1.282 . S
C191 O192 1.261 . S
C191 O204 1.251 . S
O192 C191 1.261 . S
H193 C187 0.930 . S
H194 C189 0.930 . S
N195 Cu184 1.985 . S
N195 C197 1.335 . S
N195 C198 1.390 . S
N196 C197 1.345 . S
N196 C199 1.336 . S
C197 N195 1.335 . S
C197 N196 1.345 . S
C197 H202 0.930 . S
C198 N195 1.390 . S
C198 C199 1.346 . S
C198 H203 0.930 . S
C199 N196 1.336 . S
C199 C198 1.346 . S
C199 H206 0.929 . S
C200 O190 1.282 . S
C200 O201 1.216 . S
O201 C200 1.216 . S
H202 C197 0.930 . S
H203 C198 0.930 . S
O204 Cu184 1.959 . S
O204 C191 1.251 . S
H205 C188 0.930 . S
H206 C199 0.929 . S
Cu207 N208 1.999 . S
Cu207 O213 1.974 . S
Cu207 N218 1.985 . S
Cu207 O227 1.959 . S
N208 Cu207 1.999 . S
N208 C210 1.263 . S
N208 C212 1.389 . S
N209 C210 1.358 . S
N209 C211 1.400 . S
C210 N208 1.263 . S
C210 N209 1.358 . S
C210 H216 0.930 . S
C211 N209 1.400 . S
C211 C212 1.351 . S
C211 H228 0.930 . S
C212 N208 1.389 . S
C212 C211 1.351 . S
C212 H217 0.930 . S
O213 Cu207 1.974 . S
O213 C223 1.282 . S
C214 O215 1.261 . S
C214 O227 1.251 . S
O215 C214 1.261 . S
H216 C210 0.930 . S
H217 C212 0.930 . S
N218 Cu207 1.985 . S
N218 C220 1.335 . S
N218 C221 1.390 . S
N219 C220 1.345 . S
N219 C222 1.336 . S
C220 N218 1.335 . S
C220 N219 1.345 . S
C220 H225 0.930 . S
C221 N218 1.390 . S
C221 C222 1.346 . S
C221 H226 0.930 . S
C222 N219 1.336 . S
C222 C221 1.346 . S
C222 H229 0.929 . S
C223 O213 1.282 . S
C223 O224 1.216 . S
O224 C223 1.216 . S
H225 C220 0.930 . S
H226 C221 0.930 . S
O227 Cu207 1.959 . S
O227 C214 1.251 . S
H228 C211 0.930 . S
H229 C222 0.929 . S
Cu230 N231 1.999 . S
Cu230 O236 1.974 . S
Cu230 N241 1.985 . S
Cu230 O250 1.959 . S
N231 Cu230 1.999 . S
N231 C233 1.263 . S
N231 C235 1.389 . S
N232 C233 1.358 . S
N232 C234 1.400 . S
C233 N231 1.263 . S
C233 N232 1.358 . S
C233 H239 0.930 . S
C234 N232 1.400 . S
C234 C235 1.351 . S
C234 H251 0.930 . S
C235 N231 1.389 . S
C235 C234 1.351 . S
C235 H240 0.930 . S
O236 Cu230 1.974 . S
O236 C246 1.282 . S
C237 O238 1.261 . S
C237 O250 1.251 . S
O238 C237 1.261 . S
H239 C233 0.930 . S
H240 C235 0.930 . S
N241 Cu230 1.985 . S
N241 C243 1.335 . S
N241 C244 1.390 . S
N242 C243 1.345 . S
N242 C245 1.336 . S
C243 N241 1.335 . S
C243 N242 1.345 . S
C243 H248 0.930 . S
C244 N241 1.390 . S
C244 C245 1.346 . S
C244 H249 0.930 . S
C245 N242 1.336 . S
C245 C244 1.346 . S
C245 H252 0.929 . S
C246 O236 1.282 . S
C246 O247 1.216 . S
O247 C246 1.216 . S
H248 C243 0.930 . S
H249 C244 0.930 . S
O250 Cu230 1.959 . S
O250 C237 1.251 . S
H251 C234 0.930 . S
H252 C245 0.929 . S
Cu253 N254 1.999 . S
Cu253 O259 1.974 . S
Cu253 N264 1.985 . S
Cu253 O273 1.959 . S
N254 Cu253 1.999 . S
N254 C256 1.263 . S
N254 C258 1.389 . S
N255 C256 1.358 . S
N255 C257 1.400 . S
C256 N254 1.263 . S
C256 N255 1.358 . S
C256 H262 0.930 . S
C257 N255 1.400 . S
C257 C258 1.351 . S
C257 H274 0.930 . S
C258 N254 1.389 . S
C258 C257 1.351 . S
C258 H263 0.930 . S
O259 Cu253 1.974 . S
O259 C269 1.282 . S
C260 O261 1.261 . S
C260 O273 1.251 . S
O261 C260 1.261 . S
H262 C256 0.930 . S
H263 C258 0.930 . S
N264 Cu253 1.985 . S
N264 C266 1.335 . S
N264 C267 1.390 . S
N265 C266 1.345 . S
N265 C268 1.336 . S
C266 N264 1.335 . S
C266 N265 1.345 . S
C266 H271 0.930 . S
C267 N264 1.390 . S
C267 C268 1.346 . S
C267 H272 0.930 . S
C268 N265 1.336 . S
C268 C267 1.346 . S
C268 H275 0.929 . S
C269 O259 1.282 . S
C269 O270 1.216 . S
O270 C269 1.216 . S
H271 C266 0.930 . S
H272 C267 0.930 . S
O273 Cu253 1.959 . S
O273 C260 1.251 . S
H274 C257 0.930 . S
H275 C268 0.929 . S
Zn276 O282 1.969 . S
Zn276 O283 1.965 . S
Zn276 O287 2.024 . S
Zn276 O292 1.969 . S
Zn277 O284 1.969 . S
Zn277 O290 1.969 . S
Zn277 O291 1.965 . S
Zn277 O293 2.024 . S
C278 O279 1.229 . S
C278 O287 1.058 . S
O279 C278 1.229 . S
C280 O281 1.229 . S
C280 O293 1.058 . S
O281 C280 1.229 . S
O282 Zn276 1.969 . S
O282 C285 1.267 . S
O283 Zn276 1.965 . S
O283 C294 1.260 . S
O284 Zn277 1.969 . S
O284 C294 1.258 . S
C285 O282 1.267 . S
C285 O286 1.228 . S
O286 C285 1.228 . S
O287 Zn276 2.024 . S
O287 C278 1.058 . S
C288 O289 1.228 . S
C288 O290 1.267 . S
O289 C288 1.228 . S
O290 Zn277 1.969 . S
O290 C288 1.267 . S
O291 Zn277 1.965 . S
O291 C295 1.260 . S
O292 Zn276 1.969 . S
O292 C295 1.258 . S
O293 Zn277 2.024 . S
O293 C280 1.058 . S
C294 O283 1.260 . S
C294 O284 1.258 . S
C295 O291 1.260 . S
C295 O292 1.258 . S
Zn296 O302 1.969 . S
Zn296 O303 1.965 . S
Zn296 O307 2.024 . S
Zn296 O312 1.969 . S
Zn297 O304 1.969 . S
Zn297 O310 1.969 . S
Zn297 O311 1.965 . S
Zn297 O313 2.024 . S
C298 O299 1.229 . S
C298 O307 1.058 . S
O299 C298 1.229 . S
C300 O301 1.229 . S
C300 O313 1.058 . S
O301 C300 1.229 . S
O302 Zn296 1.969 . S
O302 C305 1.267 . S
O303 Zn296 1.965 . S
O303 C314 1.260 . S
O304 Zn297 1.969 . S
O304 C314 1.258 . S
C305 O302 1.267 . S
C305 O306 1.228 . S
O306 C305 1.228 . S
O307 Zn296 2.024 . S
O307 C298 1.058 . S
C308 O309 1.228 . S
C308 O310 1.267 . S
O309 C308 1.228 . S
O310 Zn297 1.969 . S
O310 C308 1.267 . S
O311 Zn297 1.965 . S
O311 C315 1.260 . S
O312 Zn296 1.969 . S
O312 C315 1.258 . S
O313 Zn297 2.024 . S
O313 C300 1.058 . S
C314 O303 1.260 . S
C314 O304 1.258 . S
C315 O311 1.260 . S
C315 O312 1.258 . S
Zn316 O322 1.969 . S
Zn316 O323 1.965 . S
Zn316 O327 2.024 . S
Zn316 O332 1.969 . S
Zn317 O324 1.969 . S
Zn317 O330 1.969 . S
Zn317 O331 1.965 . S
Zn317 O333 2.024 . S
C318 O319 1.229 . S
C318 O327 1.058 . S
O319 C318 1.229 . S
C320 O321 1.229 . S
C320 O333 1.058 . S
O321 C320 1.229 . S
O322 Zn316 1.969 . S
O322 C325 1.267 . S
O323 Zn316 1.965 . S
O323 C334 1.260 . S
O324 Zn317 1.969 . S
O324 C334 1.258 . S
C325 O322 1.267 . S
C325 O326 1.228 . S
O326 C325 1.228 . S
O327 Zn316 2.024 . S
O327 C318 1.058 . S
C328 O329 1.228 . S
C328 O330 1.267 . S
O329 C328 1.228 . S
O330 Zn317 1.969 . S
O330 C328 1.267 . S
O331 Zn317 1.965 . S
O331 C335 1.260 . S
O332 Zn316 1.969 . S
O332 C335 1.258 . S
O333 Zn317 2.024 . S
O333 C320 1.058 . S
C334 O323 1.260 . S
C334 O324 1.258 . S
C335 O331 1.260 . S
C335 O332 1.258 . S
Zn336 O342 1.969 . S
Zn336 O343 1.965 . S
Zn336 O347 2.024 . S
Zn336 O352 1.969 . S
Zn337 O344 1.969 . S
Zn337 O350 1.969 . S
Zn337 O351 1.965 . S
Zn337 O353 2.024 . S
C338 O339 1.229 . S
C338 O347 1.058 . S
O339 C338 1.229 . S
C340 O341 1.229 . S
C340 O353 1.058 . S
O341 C340 1.229 . S
O342 Zn336 1.969 . S
O342 C345 1.267 . S
O343 Zn336 1.965 . S
O343 C354 1.260 . S
O344 Zn337 1.969 . S
O344 C354 1.258 . S
C345 O342 1.267 . S
C345 O346 1.228 . S
O346 C345 1.228 . S
O347 Zn336 2.024 . S
O347 C338 1.058 . S
C348 O349 1.228 . S
C348 O350 1.267 . S
O349 C348 1.228 . S
O350 Zn337 1.969 . S
O350 C348 1.267 . S
O351 Zn337 1.965 . S
O351 C355 1.260 . S
O352 Zn336 1.969 . S
O352 C355 1.258 . S
O353 Zn337 2.024 . S
O353 C340 1.058 . S
C354 O343 1.260 . S
C354 O344 1.258 . S
C355 O351 1.260 . S
C355 O352 1.258 . S
Zn356 O362 1.969 . S
Zn356 O363 1.965 . S
Zn356 O367 2.024 . S
Zn356 O372 1.969 . S
Zn357 O364 1.969 . S
Zn357 O370 1.969 . S
Zn357 O371 1.965 . S
Zn357 O373 2.024 . S
C358 O359 1.229 . S
C358 O367 1.058 . S
O359 C358 1.229 . S
C360 O361 1.229 . S
C360 O373 1.058 . S
O361 C360 1.229 . S
O362 Zn356 1.969 . S
O362 C365 1.267 . S
O363 Zn356 1.965 . S
O363 C374 1.260 . S
O364 Zn357 1.969 . S
O364 C374 1.258 . S
C365 O362 1.267 . S
C365 O366 1.228 . S
O366 C365 1.228 . S
O367 Zn356 2.024 . S
O367 C358 1.058 . S
C368 O369 1.228 . S
C368 O370 1.267 . S
O369 C368 1.228 . S
O370 Zn357 1.969 . S
O370 C368 1.267 . S
O371 Zn357 1.965 . S
O371 C375 1.260 . S
O372 Zn356 1.969 . S
O372 C375 1.258 . S
O373 Zn357 2.024 . S
O373 C360 1.058 . S
C374 O363 1.260 . S
C374 O364 1.258 . S
C375 O371 1.260 . S
C375 O372 1.258 . S
Zn376 O382 1.969 . S
Zn376 O383 1.965 . S
Zn376 O387 2.024 . S
Zn376 O392 1.969 . S
Zn377 O384 1.969 . S
Zn377 O390 1.969 . S
Zn377 O391 1.965 . S
Zn377 O393 2.024 . S
C378 O379 1.229 . S
C378 O387 1.058 . S
O379 C378 1.229 . S
C380 O381 1.229 . S
C380 O393 1.058 . S
O381 C380 1.229 . S
O382 Zn376 1.969 . S
O382 C385 1.267 . S
O383 Zn376 1.965 . S
O383 C394 1.260 . S
O384 Zn377 1.969 . S
O384 C394 1.258 . S
C385 O382 1.267 . S
C385 O386 1.228 . S
O386 C385 1.228 . S
O387 Zn376 2.024 . S
O387 C378 1.058 . S
C388 O389 1.228 . S
C388 O390 1.267 . S
O389 C388 1.228 . S
O390 Zn377 1.969 . S
O390 C388 1.267 . S
O391 Zn377 1.965 . S
O391 C395 1.260 . S
O392 Zn376 1.969 . S
O392 C395 1.258 . S
O393 Zn377 2.024 . S
O393 C380 1.058 . S
C394 O383 1.260 . S
C394 O384 1.258 . S
C395 O391 1.260 . S
C395 O392 1.258 . S
Zn396 O402 1.969 . S
Zn396 O403 1.965 . S
Zn396 O407 2.024 . S
Zn396 O412 1.969 . S
Zn397 O404 1.969 . S
Zn397 O410 1.969 . S
Zn397 O411 1.965 . S
Zn397 O413 2.024 . S
C398 O399 1.229 . S
C398 O407 1.058 . S
O399 C398 1.229 . S
C400 O401 1.229 . S
C400 O413 1.058 . S
O401 C400 1.229 . S
O402 Zn396 1.969 . S
O402 C405 1.267 . S
O403 Zn396 1.965 . S
O403 C414 1.260 . S
O404 Zn397 1.969 . S
O404 C414 1.258 . S
C405 O402 1.267 . S
C405 O406 1.228 . S
O406 C405 1.228 . S
O407 Zn396 2.024 . S
O407 C398 1.058 . S
C408 O409 1.228 . S
C408 O410 1.267 . S
O409 C408 1.228 . S
O410 Zn397 1.969 . S
O410 C408 1.267 . S
O411 Zn397 1.965 . S
O411 C415 1.260 . S
O412 Zn396 1.969 . S
O412 C415 1.258 . S
O413 Zn397 2.024 . S
O413 C400 1.058 . S
C414 O403 1.260 . S
C414 O404 1.258 . S
C415 O411 1.260 . S
C415 O412 1.258 . S
Zn416 O422 1.969 . S
Zn416 O423 1.965 . S
Zn416 O427 2.024 . S
Zn416 O432 1.969 . S
Zn417 O424 1.969 . S
Zn417 O430 1.969 . S
Zn417 O431 1.965 . S
Zn417 O433 2.024 . S
C418 O419 1.229 . S
C418 O427 1.058 . S
O419 C418 1.229 . S
C420 O421 1.229 . S
C420 O433 1.058 . S
O421 C420 1.229 . S
O422 Zn416 1.969 . S
O422 C425 1.267 . S
O423 Zn416 1.965 . S
O423 C434 1.260 . S
O424 Zn417 1.969 . S
O424 C434 1.258 . S
C425 O422 1.267 . S
C425 O426 1.228 . S
O426 C425 1.228 . S
O427 Zn416 2.024 . S
O427 C418 1.058 . S
C428 O429 1.228 . S
C428 O430 1.267 . S
O429 C428 1.228 . S
O430 Zn417 1.969 . S
O430 C428 1.267 . S
O431 Zn417 1.965 . S
O431 C435 1.260 . S
O432 Zn416 1.969 . S
O432 C435 1.258 . S
O433 Zn417 2.024 . S
O433 C420 1.058 . S
C434 O423 1.260 . S
C434 O424 1.258 . S
C435 O431 1.260 . S
C435 O432 1.258 . S
H436 C444 0.929 . S
H437 C446 0.930 . S
H438 C448 0.930 . S
H439 C451 0.929 . S
H440 C454 0.930 . S
H441 C456 0.960 . S
H442 C456 0.960 . S
H443 C456 0.960 . S
C444 H436 0.929 . S
C444 C445 1.377 . S
C444 C446 1.384 . S
C445 C444 1.377 . S
C445 C451 1.390 . S
C446 H437 0.930 . S
C446 C444 1.384 . S
C446 C447 1.372 . S
C447 C446 1.372 . S
C447 C448 1.400 . S
C447 C452 1.490 . S
C448 H438 0.930 . S
C448 C447 1.400 . S
C448 C451 1.386 . S
H449 C465 0.930 . S
H450 C466 0.931 . S
C451 H439 0.929 . S
C451 C445 1.390 . S
C451 C448 1.386 . S
C452 C447 1.490 . S
C452 C454 1.395 . S
C452 C455 1.403 . S
H453 C459 0.930 . S
C454 H440 0.930 . S
C454 C452 1.395 . S
C454 C457 1.403 . S
C455 C452 1.403 . S
C455 C456 1.524 . S
C455 C459 1.400 . S
C456 H441 0.960 . S
C456 H442 0.960 . S
C456 H443 0.960 . S
C456 C455 1.524 . S
C457 C454 1.403 . S
C457 C458 1.392 . S
C457 C461 1.495 . S
C458 C457 1.392 . S
C458 C459 1.385 . S
C458 C460 1.478 . S
C459 H453 0.930 . S
C459 C455 1.400 . S
C459 C458 1.385 . S
C460 C458 1.478 . S
C460 C462 1.381 . S
C460 C466 1.383 . S
C461 C457 1.495 . S
C461 H467 0.959 . S
C461 H468 0.961 . S
C461 H469 0.960 . S
C462 C460 1.381 . S
C462 C463 1.394 . S
C462 H470 0.930 . S
C463 C462 1.394 . S
C463 C464 1.383 . S
C463 H471 0.929 . S
C464 C463 1.383 . S
C464 C465 1.377 . S
C465 H449 0.930 . S
C465 C464 1.377 . S
C465 C466 1.379 . S
C466 H450 0.931 . S
C466 C460 1.383 . S
C466 C465 1.379 . S
H467 C461 0.959 . S
H468 C461 0.961 . S
H469 C461 0.960 . S
H470 C462 0.930 . S
H471 C463 0.929 . S
H472 C480 0.929 . S
H473 C482 0.930 . S
H474 C484 0.930 . S
H475 C487 0.929 . S
H476 C490 0.930 . S
H477 C492 0.960 . S
H478 C492 0.960 . S
H479 C492 0.960 . S
C480 H472 0.929 . S
C480 C481 1.377 . S
C480 C482 1.384 . S
C481 C480 1.377 . S
C481 C487 1.390 . S
C482 H473 0.930 . S
C482 C480 1.384 . S
C482 C483 1.372 . S
C483 C482 1.372 . S
C483 C484 1.400 . S
C483 C488 1.490 . S
C484 H474 0.930 . S
C484 C483 1.400 . S
C484 C487 1.386 . S
H485 C501 0.930 . S
H486 C502 0.931 . S
C487 H475 0.929 . S
C487 C481 1.390 . S
C487 C484 1.386 . S
C488 C483 1.490 . S
C488 C490 1.395 . S
C488 C491 1.403 . S
H489 C495 0.930 . S
C490 H476 0.930 . S
C490 C488 1.395 . S
C490 C493 1.403 . S
C491 C488 1.403 . S
C491 C492 1.524 . S
C491 C495 1.400 . S
C492 H477 0.960 . S
C492 H478 0.960 . S
C492 H479 0.960 . S
C492 C491 1.524 . S
C493 C490 1.403 . S
C493 C494 1.392 . S
C493 C497 1.495 . S
C494 C493 1.392 . S
C494 C495 1.385 . S
C494 C496 1.478 . S
C495 H489 0.930 . S
C495 C491 1.400 . S
C495 C494 1.385 . S
C496 C494 1.478 . S
C496 C498 1.381 . S
C496 C502 1.383 . S
C497 C493 1.495 . S
C497 H503 0.959 . S
C497 H504 0.961 . S
C497 H505 0.960 . S
C498 C496 1.381 . S
C498 C499 1.394 . S
C498 H506 0.930 . S
C499 C498 1.394 . S
C499 C500 1.383 . S
C499 H507 0.929 . S
C500 C499 1.383 . S
C500 C501 1.377 . S
C501 H485 0.930 . S
C501 C500 1.377 . S
C501 C502 1.379 . S
C502 H486 0.931 . S
C502 C496 1.383 . S
C502 C501 1.379 . S
H503 C497 0.959 . S
H504 C497 0.961 . S
H505 C497 0.960 . S
H506 C498 0.930 . S
H507 C499 0.929 . S
H508 C516 0.929 . S
H509 C518 0.930 . S
H510 C520 0.930 . S
H511 C523 0.929 . S
H512 C526 0.930 . S
H513 C528 0.960 . S
H514 C528 0.960 . S
H515 C528 0.960 . S
C516 H508 0.929 . S
C516 C517 1.377 . S
C516 C518 1.384 . S
C517 C516 1.377 . S
C517 C523 1.390 . S
C518 H509 0.930 . S
C518 C516 1.384 . S
C518 C519 1.372 . S
C519 C518 1.372 . S
C519 C520 1.400 . S
C519 C524 1.490 . S
C520 H510 0.930 . S
C520 C519 1.400 . S
C520 C523 1.386 . S
H521 C537 0.930 . S
H522 C538 0.931 . S
C523 H511 0.929 . S
C523 C517 1.390 . S
C523 C520 1.386 . S
C524 C519 1.490 . S
C524 C526 1.395 . S
C524 C527 1.403 . S
H525 C531 0.930 . S
C526 H512 0.930 . S
C526 C524 1.395 . S
C526 C529 1.403 . S
C527 C524 1.403 . S
C527 C528 1.524 . S
C527 C531 1.400 . S
C528 H513 0.960 . S
C528 H514 0.960 . S
C528 H515 0.960 . S
C528 C527 1.524 . S
C529 C526 1.403 . S
C529 C530 1.392 . S
C529 C533 1.495 . S
C530 C529 1.392 . S
C530 C531 1.385 . S
C530 C532 1.478 . S
C531 H525 0.930 . S
C531 C527 1.400 . S
C531 C530 1.385 . S
C532 C530 1.478 . S
C532 C534 1.381 . S
C532 C538 1.383 . S
C533 C529 1.495 . S
C533 H539 0.959 . S
C533 H540 0.961 . S
C533 H541 0.960 . S
C534 C532 1.381 . S
C534 C535 1.394 . S
C534 H542 0.930 . S
C535 C534 1.394 . S
C535 C536 1.383 . S
C535 H543 0.929 . S
C536 C535 1.383 . S
C536 C537 1.377 . S
C537 H521 0.930 . S
C537 C536 1.377 . S
C537 C538 1.379 . S
C538 H522 0.931 . S
C538 C532 1.383 . S
C538 C537 1.379 . S
H539 C533 0.959 . S
H540 C533 0.961 . S
H541 C533 0.960 . S
H542 C534 0.930 . S
H543 C535 0.929 . S
H544 C552 0.929 . S
H545 C554 0.930 . S
H546 C556 0.930 . S
H547 C559 0.929 . S
H548 C562 0.930 . S
H549 C564 0.960 . S
H550 C564 0.960 . S
H551 C564 0.960 . S
C552 H544 0.929 . S
C552 C553 1.377 . S
C552 C554 1.384 . S
C553 C552 1.377 . S
C553 C559 1.390 . S
C554 H545 0.930 . S
C554 C552 1.384 . S
C554 C555 1.372 . S
C555 C554 1.372 . S
C555 C556 1.400 . S
C555 C560 1.490 . S
C556 H546 0.930 . S
C556 C555 1.400 . S
C556 C559 1.386 . S
H557 C573 0.930 . S
H558 C574 0.931 . S
C559 H547 0.929 . S
C559 C553 1.390 . S
C559 C556 1.386 . S
C560 C555 1.490 . S
C560 C562 1.395 . S
C560 C563 1.403 . S
H561 C567 0.930 . S
C562 H548 0.930 . S
C562 C560 1.395 . S
C562 C565 1.403 . S
C563 C560 1.403 . S
C563 C564 1.524 . S
C563 C567 1.400 . S
C564 H549 0.960 . S
C564 H550 0.960 . S
C564 H551 0.960 . S
C564 C563 1.524 . S
C565 C562 1.403 . S
C565 C566 1.392 . S
C565 C569 1.495 . S
C566 C565 1.392 . S
C566 C567 1.385 . S
C566 C568 1.478 . S
C567 H561 0.930 . S
C567 C563 1.400 . S
C567 C566 1.385 . S
C568 C566 1.478 . S
C568 C570 1.381 . S
C568 C574 1.383 . S
C569 C565 1.495 . S
C569 H575 0.959 . S
C569 H576 0.961 . S
C569 H577 0.960 . S
C570 C568 1.381 . S
C570 C571 1.394 . S
C570 H578 0.930 . S
C571 C570 1.394 . S
C571 C572 1.383 . S
C571 H579 0.929 . S
C572 C571 1.383 . S
C572 C573 1.377 . S
C573 H557 0.930 . S
C573 C572 1.377 . S
C573 C574 1.379 . S
C574 H558 0.931 . S
C574 C568 1.383 . S
C574 C573 1.379 . S
H575 C569 0.959 . S
H576 C569 0.961 . S
H577 C569 0.960 . S
H578 C570 0.930 . S
H579 C571 0.929 . S
H580 C588 0.929 . S
H581 C590 0.930 . S
H582 C592 0.930 . S
H583 C595 0.929 . S
H584 C598 0.930 . S
H585 C600 0.960 . S
H586 C600 0.960 . S
H587 C600 0.960 . S
C588 H580 0.929 . S
C588 C589 1.377 . S
C588 C590 1.384 . S
C589 C588 1.377 . S
C589 C595 1.390 . S
C590 H581 0.930 . S
C590 C588 1.384 . S
C590 C591 1.372 . S
C591 C590 1.372 . S
C591 C592 1.400 . S
C591 C596 1.490 . S
C592 H582 0.930 . S
C592 C591 1.400 . S
C592 C595 1.386 . S
H593 C609 0.930 . S
H594 C610 0.931 . S
C595 H583 0.929 . S
C595 C589 1.390 . S
C595 C592 1.386 . S
C596 C591 1.490 . S
C596 C598 1.395 . S
C596 C599 1.403 . S
H597 C603 0.930 . S
C598 H584 0.930 . S
C598 C596 1.395 . S
C598 C601 1.403 . S
C599 C596 1.403 . S
C599 C600 1.524 . S
C599 C603 1.400 . S
C600 H585 0.960 . S
C600 H586 0.960 . S
C600 H587 0.960 . S
C600 C599 1.524 . S
C601 C598 1.403 . S
C601 C602 1.392 . S
C601 C605 1.495 . S
C602 C601 1.392 . S
C602 C603 1.385 . S
C602 C604 1.478 . S
C603 H597 0.930 . S
C603 C599 1.400 . S
C603 C602 1.385 . S
C604 C602 1.478 . S
C604 C606 1.381 . S
C604 C610 1.383 . S
C605 C601 1.495 . S
C605 H611 0.959 . S
C605 H612 0.961 . S
C605 H613 0.960 . S
C606 C604 1.381 . S
C606 C607 1.394 . S
C606 H614 0.930 . S
C607 C606 1.394 . S
C607 C608 1.383 . S
C607 H615 0.929 . S
C608 C607 1.383 . S
C608 C609 1.377 . S
C609 H593 0.930 . S
C609 C608 1.377 . S
C609 C610 1.379 . S
C610 H594 0.931 . S
C610 C604 1.383 . S
C610 C609 1.379 . S
H611 C605 0.959 . S
H612 C605 0.961 . S
H613 C605 0.960 . S
H614 C606 0.930 . S
H615 C607 0.929 . S
H616 C624 0.929 . S
H617 C626 0.930 . S
H618 C628 0.930 . S
H619 C631 0.929 . S
H620 C634 0.930 . S
H621 C636 0.960 . S
H622 C636 0.960 . S
H623 C636 0.960 . S
C624 H616 0.929 . S
C624 C625 1.377 . S
C624 C626 1.384 . S
C625 C624 1.377 . S
C625 C631 1.390 . S
C626 H617 0.930 . S
C626 C624 1.384 . S
C626 C627 1.372 . S
C627 C626 1.372 . S
C627 C628 1.400 . S
C627 C632 1.490 . S
C628 H618 0.930 . S
C628 C627 1.400 . S
C628 C631 1.386 . S
H629 C645 0.930 . S
H630 C646 0.931 . S
C631 H619 0.929 . S
C631 C625 1.390 . S
C631 C628 1.386 . S
C632 C627 1.490 . S
C632 C634 1.395 . S
C632 C635 1.403 . S
H633 C639 0.930 . S
C634 H620 0.930 . S
C634 C632 1.395 . S
C634 C637 1.403 . S
C635 C632 1.403 . S
C635 C636 1.524 . S
C635 C639 1.400 . S
C636 H621 0.960 . S
C636 H622 0.960 . S
C636 H623 0.960 . S
C636 C635 1.524 . S
C637 C634 1.403 . S
C637 C638 1.392 . S
C637 C641 1.495 . S
C638 C637 1.392 . S
C638 C639 1.385 . S
C638 C640 1.478 . S
C639 H633 0.930 . S
C639 C635 1.400 . S
C639 C638 1.385 . S
C640 C638 1.478 . S
C640 C642 1.381 . S
C640 C646 1.383 . S
C641 C637 1.495 . S
C641 H647 0.959 . S
C641 H648 0.961 . S
C641 H649 0.960 . S
C642 C640 1.381 . S
C642 C643 1.394 . S
C642 H650 0.930 . S
C643 C642 1.394 . S
C643 C644 1.383 . S
C643 H651 0.929 . S
C644 C643 1.383 . S
C644 C645 1.377 . S
C645 H629 0.930 . S
C645 C644 1.377 . S
C645 C646 1.379 . S
C646 H630 0.931 . S
C646 C640 1.383 . S
C646 C645 1.379 . S
H647 C641 0.959 . S
H648 C641 0.961 . S
H649 C641 0.960 . S
H650 C642 0.930 . S
H651 C643 0.929 . S
H652 C660 0.929 . S
H653 C662 0.930 . S
H654 C664 0.930 . S
H655 C667 0.929 . S
H656 C670 0.930 . S
H657 C672 0.960 . S
H658 C672 0.960 . S
H659 C672 0.960 . S
C660 H652 0.929 . S
C660 C661 1.377 . S
C660 C662 1.384 . S
C661 C660 1.377 . S
C661 C667 1.390 . S
C662 H653 0.930 . S
C662 C660 1.384 . S
C662 C663 1.372 . S
C663 C662 1.372 . S
C663 C664 1.400 . S
C663 C668 1.490 . S
C664 H654 0.930 . S
C664 C663 1.400 . S
C664 C667 1.386 . S
H665 C681 0.930 . S
H666 C682 0.931 . S
C667 H655 0.929 . S
C667 C661 1.390 . S
C667 C664 1.386 . S
C668 C663 1.490 . S
C668 C670 1.395 . S
C668 C671 1.403 . S
H669 C675 0.930 . S
C670 H656 0.930 . S
C670 C668 1.395 . S
C670 C673 1.403 . S
C671 C668 1.403 . S
C671 C672 1.524 . S
C671 C675 1.400 . S
C672 H657 0.960 . S
C672 H658 0.960 . S
C672 H659 0.960 . S
C672 C671 1.524 . S
C673 C670 1.403 . S
C673 C674 1.392 . S
C673 C677 1.495 . S
C674 C673 1.392 . S
C674 C675 1.385 . S
C674 C676 1.478 . S
C675 H669 0.930 . S
C675 C671 1.400 . S
C675 C674 1.385 . S
C676 C674 1.478 . S
C676 C678 1.381 . S
C676 C682 1.383 . S
C677 C673 1.495 . S
C677 H683 0.959 . S
C677 H684 0.961 . S
C677 H685 0.960 . S
C678 C676 1.381 . S
C678 C679 1.394 . S
C678 H686 0.930 . S
C679 C678 1.394 . S
C679 C680 1.383 . S
C679 H687 0.929 . S
C680 C679 1.383 . S
C680 C681 1.377 . S
C681 H665 0.930 . S
C681 C680 1.377 . S
C681 C682 1.379 . S
C682 H666 0.931 . S
C682 C676 1.383 . S
C682 C681 1.379 . S
H683 C677 0.959 . S
H684 C677 0.961 . S
H685 C677 0.960 . S
H686 C678 0.930 . S
H687 C679 0.929 . S
H688 C696 0.929 . S
H689 C698 0.930 . S
H690 C700 0.930 . S
H691 C703 0.929 . S
H692 C706 0.930 . S
H693 C708 0.960 . S
H694 C708 0.960 . S
H695 C708 0.960 . S
C696 H688 0.929 . S
C696 C697 1.377 . S
C696 C698 1.384 . S
C697 C696 1.377 . S
C697 C703 1.390 . S
C698 H689 0.930 . S
C698 C696 1.384 . S
C698 C699 1.372 . S
C699 C698 1.372 . S
C699 C700 1.400 . S
C699 C704 1.490 . S
C700 H690 0.930 . S
C700 C699 1.400 . S
C700 C703 1.386 . S
H701 C717 0.930 . S
H702 C718 0.931 . S
C703 H691 0.929 . S
C703 C697 1.390 . S
C703 C700 1.386 . S
C704 C699 1.490 . S
C704 C706 1.395 . S
C704 C707 1.403 . S
H705 C711 0.930 . S
C706 H692 0.930 . S
C706 C704 1.395 . S
C706 C709 1.403 . S
C707 C704 1.403 . S
C707 C708 1.524 . S
C707 C711 1.400 . S
C708 H693 0.960 . S
C708 H694 0.960 . S
C708 H695 0.960 . S
C708 C707 1.524 . S
C709 C706 1.403 . S
C709 C710 1.392 . S
C709 C713 1.495 . S
C710 C709 1.392 . S
C710 C711 1.385 . S
C710 C712 1.478 . S
C711 H705 0.930 . S
C711 C707 1.400 . S
C711 C710 1.385 . S
C712 C710 1.478 . S
C712 C714 1.381 . S
C712 C718 1.383 . S
C713 C709 1.495 . S
C713 H719 0.959 . S
C713 H720 0.961 . S
C713 H721 0.960 . S
C714 C712 1.381 . S
C714 C715 1.394 . S
C714 H722 0.930 . S
C715 C714 1.394 . S
C715 C716 1.383 . S
C715 H723 0.929 . S
C716 C715 1.383 . S
C716 C717 1.377 . S
C717 H701 0.930 . S
C717 C716 1.377 . S
C717 C718 1.379 . S
C718 H702 0.931 . S
C718 C712 1.383 . S
C718 C717 1.379 . S
H719 C713 0.959 . S
H720 C713 0.961 . S
H721 C713 0.960 . S
H722 C714 0.930 . S
H723 C715 0.929 . S
H724 C732 0.929 . S
H725 C734 0.930 . S
H726 C736 0.930 . S
H727 C739 0.929 . S
H728 C742 0.930 . S
H729 C744 0.960 . S
H730 C744 0.960 . S
H731 C744 0.960 . S
C732 H724 0.929 . S
C732 C733 1.377 . S
C732 C734 1.384 . S
C733 C732 1.377 . S
C733 C739 1.390 . S
C734 H725 0.930 . S
C734 C732 1.384 . S
C734 C735 1.372 . S
C735 C734 1.372 . S
C735 C736 1.400 . S
C735 C740 1.490 . S
C736 H726 0.930 . S
C736 C735 1.400 . S
C736 C739 1.386 . S
H737 C753 0.930 . S
H738 C754 0.931 . S
C739 H727 0.929 . S
C739 C733 1.390 . S
C739 C736 1.386 . S
C740 C735 1.490 . S
C740 C742 1.395 . S
C740 C743 1.403 . S
H741 C747 0.930 . S
C742 H728 0.930 . S
C742 C740 1.395 . S
C742 C745 1.403 . S
C743 C740 1.403 . S
C743 C744 1.524 . S
C743 C747 1.400 . S
C744 H729 0.960 . S
C744 H730 0.960 . S
C744 H731 0.960 . S
C744 C743 1.524 . S
C745 C742 1.403 . S
C745 C746 1.392 . S
C745 C749 1.495 . S
C746 C745 1.392 . S
C746 C747 1.385 . S
C746 C748 1.478 . S
C747 H741 0.930 . S
C747 C743 1.400 . S
C747 C746 1.385 . S
C748 C746 1.478 . S
C748 C750 1.381 . S
C748 C754 1.383 . S
C749 C745 1.495 . S
C749 H755 0.959 . S
C749 H756 0.961 . S
C749 H757 0.960 . S
C750 C748 1.381 . S
C750 C751 1.394 . S
C750 H758 0.930 . S
C751 C750 1.394 . S
C751 C752 1.383 . S
C751 H759 0.929 . S
C752 C751 1.383 . S
C752 C753 1.377 . S
C753 H737 0.930 . S
C753 C752 1.377 . S
C753 C754 1.379 . S
C754 H738 0.931 . S
C754 C748 1.383 . S
C754 C753 1.379 . S
H755 C749 0.959 . S
H756 C749 0.961 . S
H757 C749 0.960 . S
H758 C750 0.930 . S
H759 C751 0.929 . S
H760 C768 0.929 . S
H761 C770 0.930 . S
H762 C772 0.930 . S
H763 C775 0.929 . S
H764 C778 0.930 . S
H765 C780 0.960 . S
H766 C780 0.960 . S
H767 C780 0.960 . S
C768 H760 0.929 . S
C768 C769 1.377 . S
C768 C770 1.384 . S
C769 C768 1.377 . S
C769 C775 1.390 . S
C770 H761 0.930 . S
C770 C768 1.384 . S
C770 C771 1.372 . S
C771 C770 1.372 . S
C771 C772 1.400 . S
C771 C776 1.490 . S
C772 H762 0.930 . S
C772 C771 1.400 . S
C772 C775 1.386 . S
H773 C789 0.930 . S
H774 C790 0.931 . S
C775 H763 0.929 . S
C775 C769 1.390 . S
C775 C772 1.386 . S
C776 C771 1.490 . S
C776 C778 1.395 . S
C776 C779 1.403 . S
H777 C783 0.930 . S
C778 H764 0.930 . S
C778 C776 1.395 . S
C778 C781 1.403 . S
C779 C776 1.403 . S
C779 C780 1.524 . S
C779 C783 1.400 . S
C780 H765 0.960 . S
C780 H766 0.960 . S
C780 H767 0.960 . S
C780 C779 1.524 . S
C781 C778 1.403 . S
C781 C782 1.392 . S
C781 C785 1.495 . S
C782 C781 1.392 . S
C782 C783 1.385 . S
C782 C784 1.478 . S
C783 H777 0.930 . S
C783 C779 1.400 . S
C783 C782 1.385 . S
C784 C782 1.478 . S
C784 C786 1.381 . S
C784 C790 1.383 . S
C785 C781 1.495 . S
C785 H791 0.959 . S
C785 H792 0.961 . S
C785 H793 0.960 . S
C786 C784 1.381 . S
C786 C787 1.394 . S
C786 H794 0.930 . S
C787 C786 1.394 . S
C787 C788 1.383 . S
C787 H795 0.929 . S
C788 C787 1.383 . S
C788 C789 1.377 . S
C789 H773 0.930 . S
C789 C788 1.377 . S
C789 C790 1.379 . S
C790 H774 0.931 . S
C790 C784 1.383 . S
C790 C789 1.379 . S
H791 C785 0.959 . S
H792 C785 0.961 . S
H793 C785 0.960 . S
H794 C786 0.930 . S
H795 C787 0.929 . S
H796 C804 0.929 . S
H797 C806 0.930 . S
H798 C808 0.930 . S
H799 C811 0.929 . S
H800 C814 0.930 . S
H801 C816 0.960 . S
H802 C816 0.960 . S
H803 C816 0.960 . S
C804 H796 0.929 . S
C804 C805 1.377 . S
C804 C806 1.384 . S
C805 C804 1.377 . S
C805 C811 1.390 . S
C806 H797 0.930 . S
C806 C804 1.384 . S
C806 C807 1.372 . S
C807 C806 1.372 . S
C807 C808 1.400 . S
C807 C812 1.490 . S
C808 H798 0.930 . S
C808 C807 1.400 . S
C808 C811 1.386 . S
H809 C825 0.930 . S
H810 C826 0.931 . S
C811 H799 0.929 . S
C811 C805 1.390 . S
C811 C808 1.386 . S
C812 C807 1.490 . S
C812 C814 1.395 . S
C812 C815 1.403 . S
H813 C819 0.930 . S
C814 H800 0.930 . S
C814 C812 1.395 . S
C814 C817 1.403 . S
C815 C812 1.403 . S
C815 C816 1.524 . S
C815 C819 1.400 . S
C816 H801 0.960 . S
C816 H802 0.960 . S
C816 H803 0.960 . S
C816 C815 1.524 . S
C817 C814 1.403 . S
C817 C818 1.392 . S
C817 C821 1.495 . S
C818 C817 1.392 . S
C818 C819 1.385 . S
C818 C820 1.478 . S
C819 H813 0.930 . S
C819 C815 1.400 . S
C819 C818 1.385 . S
C820 C818 1.478 . S
C820 C822 1.381 . S
C820 C826 1.383 . S
C821 C817 1.495 . S
C821 H827 0.959 . S
C821 H828 0.961 . S
C821 H829 0.960 . S
C822 C820 1.381 . S
C822 C823 1.394 . S
C822 H830 0.930 . S
C823 C822 1.394 . S
C823 C824 1.383 . S
C823 H831 0.929 . S
C824 C823 1.383 . S
C824 C825 1.377 . S
C825 H809 0.930 . S
C825 C824 1.377 . S
C825 C826 1.379 . S
C826 H810 0.931 . S
C826 C820 1.383 . S
C826 C825 1.379 . S
H827 C821 0.959 . S
H828 C821 0.961 . S
H829 C821 0.960 . S
H830 C822 0.930 . S
H831 C823 0.929 . S
H832 C840 0.929 . S
H833 C842 0.930 . S
H834 C844 0.930 . S
H835 C847 0.929 . S
H836 C850 0.930 . S
H837 C852 0.960 . S
H838 C852 0.960 . S
H839 C852 0.960 . S
C840 H832 0.929 . S
C840 C841 1.377 . S
C840 C842 1.384 . S
C841 C840 1.377 . S
C841 C847 1.390 . S
C842 H833 0.930 . S
C842 C840 1.384 . S
C842 C843 1.372 . S
C843 C842 1.372 . S
C843 C844 1.400 . S
C843 C848 1.490 . S
C844 H834 0.930 . S
C844 C843 1.400 . S
C844 C847 1.386 . S
H845 C861 0.930 . S
H846 C862 0.931 . S
C847 H835 0.929 . S
C847 C841 1.390 . S
C847 C844 1.386 . S
C848 C843 1.490 . S
C848 C850 1.395 . S
C848 C851 1.403 . S
H849 C855 0.930 . S
C850 H836 0.930 . S
C850 C848 1.395 . S
C850 C853 1.403 . S
C851 C848 1.403 . S
C851 C852 1.524 . S
C851 C855 1.400 . S
C852 H837 0.960 . S
C852 H838 0.960 . S
C852 H839 0.960 . S
C852 C851 1.524 . S
C853 C850 1.403 . S
C853 C854 1.392 . S
C853 C857 1.495 . S
C854 C853 1.392 . S
C854 C855 1.385 . S
C854 C856 1.478 . S
C855 H849 0.930 . S
C855 C851 1.400 . S
C855 C854 1.385 . S
C856 C854 1.478 . S
C856 C858 1.381 . S
C856 C862 1.383 . S
C857 C853 1.495 . S
C857 H863 0.959 . S
C857 H864 0.961 . S
C857 H865 0.960 . S
C858 C856 1.381 . S
C858 C859 1.394 . S
C858 H866 0.930 . S
C859 C858 1.394 . S
C859 C860 1.383 . S
C859 H867 0.929 . S
C860 C859 1.383 . S
C860 C861 1.377 . S
C861 H845 0.930 . S
C861 C860 1.377 . S
C861 C862 1.379 . S
C862 H846 0.931 . S
C862 C856 1.383 . S
C862 C861 1.379 . S
H863 C857 0.959 . S
H864 C857 0.961 . S
H865 C857 0.960 . S
H866 C858 0.930 . S
H867 C859 0.929 . S
H868 C876 0.929 . S
H869 C878 0.930 . S
H870 C880 0.930 . S
H871 C883 0.929 . S
H872 C886 0.930 . S
H873 C888 0.960 . S
H874 C888 0.960 . S
H875 C888 0.960 . S
C876 H868 0.929 . S
C876 C877 1.377 . S
C876 C878 1.384 . S
C877 C876 1.377 . S
C877 C883 1.390 . S
C878 H869 0.930 . S
C878 C876 1.384 . S
C878 C879 1.372 . S
C879 C878 1.372 . S
C879 C880 1.400 . S
C879 C884 1.490 . S
C880 H870 0.930 . S
C880 C879 1.400 . S
C880 C883 1.386 . S
H881 C897 0.930 . S
H882 C898 0.931 . S
C883 H871 0.929 . S
C883 C877 1.390 . S
C883 C880 1.386 . S
C884 C879 1.490 . S
C884 C886 1.395 . S
C884 C887 1.403 . S
H885 C891 0.930 . S
C886 H872 0.930 . S
C886 C884 1.395 . S
C886 C889 1.403 . S
C887 C884 1.403 . S
C887 C888 1.524 . S
C887 C891 1.400 . S
C888 H873 0.960 . S
C888 H874 0.960 . S
C888 H875 0.960 . S
C888 C887 1.524 . S
C889 C886 1.403 . S
C889 C890 1.392 . S
C889 C893 1.495 . S
C890 C889 1.392 . S
C890 C891 1.385 . S
C890 C892 1.478 . S
C891 H885 0.930 . S
C891 C887 1.400 . S
C891 C890 1.385 . S
C892 C890 1.478 . S
C892 C894 1.381 . S
C892 C898 1.383 . S
C893 C889 1.495 . S
C893 H899 0.959 . S
C893 H900 0.961 . S
C893 H901 0.960 . S
C894 C892 1.381 . S
C894 C895 1.394 . S
C894 H902 0.930 . S
C895 C894 1.394 . S
C895 C896 1.383 . S
C895 H903 0.929 . S
C896 C895 1.383 . S
C896 C897 1.377 . S
C897 H881 0.930 . S
C897 C896 1.377 . S
C897 C898 1.379 . S
C898 H882 0.931 . S
C898 C892 1.383 . S
C898 C897 1.379 . S
H899 C893 0.959 . S
H900 C893 0.961 . S
H901 C893 0.960 . S
H902 C894 0.930 . S
H903 C895 0.929 . S
H904 C912 0.929 . S
H905 C914 0.930 . S
H906 C916 0.930 . S
H907 C919 0.929 . S
H908 C922 0.930 . S
H909 C924 0.960 . S
H910 C924 0.960 . S
H911 C924 0.960 . S
C912 H904 0.929 . S
C912 C913 1.377 . S
C912 C914 1.384 . S
C913 C912 1.377 . S
C913 C919 1.390 . S
C914 H905 0.930 . S
C914 C912 1.384 . S
C914 C915 1.372 . S
C915 C914 1.372 . S
C915 C916 1.400 . S
C915 C920 1.490 . S
C916 H906 0.930 . S
C916 C915 1.400 . S
C916 C919 1.386 . S
H917 C933 0.930 . S
H918 C934 0.931 . S
C919 H907 0.929 . S
C919 C913 1.390 . S
C919 C916 1.386 . S
C920 C915 1.490 . S
C920 C922 1.395 . S
C920 C923 1.403 . S
H921 C927 0.930 . S
C922 H908 0.930 . S
C922 C920 1.395 . S
C922 C925 1.403 . S
C923 C920 1.403 . S
C923 C924 1.524 . S
C923 C927 1.400 . S
C924 H909 0.960 . S
C924 H910 0.960 . S
C924 H911 0.960 . S
C924 C923 1.524 . S
C925 C922 1.403 . S
C925 C926 1.392 . S
C925 C929 1.495 . S
C926 C925 1.392 . S
C926 C927 1.385 . S
C926 C928 1.478 . S
C927 H921 0.930 . S
C927 C923 1.400 . S
C927 C926 1.385 . S
C928 C926 1.478 . S
C928 C930 1.381 . S
C928 C934 1.383 . S
C929 C925 1.495 . S
C929 H935 0.959 . S
C929 H936 0.961 . S
C929 H937 0.960 . S
C930 C928 1.381 . S
C930 C931 1.394 . S
C930 H938 0.930 . S
C931 C930 1.394 . S
C931 C932 1.383 . S
C931 H939 0.929 . S
C932 C931 1.383 . S
C932 C933 1.377 . S
C933 H917 0.930 . S
C933 C932 1.377 . S
C933 C934 1.379 . S
C934 H918 0.931 . S
C934 C928 1.383 . S
C934 C933 1.379 . S
H935 C929 0.959 . S
H936 C929 0.961 . S
H937 C929 0.960 . S
H938 C930 0.930 . S
H939 C931 0.929 . S
H940 C948 0.929 . S
H941 C950 0.930 . S
H942 C952 0.930 . S
H943 C955 0.929 . S
H944 C958 0.930 . S
H945 C960 0.960 . S
H946 C960 0.960 . S
H947 C960 0.960 . S
C948 H940 0.929 . S
C948 C949 1.377 . S
C948 C950 1.384 . S
C949 C948 1.377 . S
C949 C955 1.390 . S
C950 H941 0.930 . S
C950 C948 1.384 . S
C950 C951 1.372 . S
C951 C950 1.372 . S
C951 C952 1.400 . S
C951 C956 1.490 . S
C952 H942 0.930 . S
C952 C951 1.400 . S
C952 C955 1.386 . S
H953 C969 0.930 . S
H954 C970 0.931 . S
C955 H943 0.929 . S
C955 C949 1.390 . S
C955 C952 1.386 . S
C956 C951 1.490 . S
C956 C958 1.395 . S
C956 C959 1.403 . S
H957 C963 0.930 . S
C958 H944 0.930 . S
C958 C956 1.395 . S
C958 C961 1.403 . S
C959 C956 1.403 . S
C959 C960 1.524 . S
C959 C963 1.400 . S
C960 H945 0.960 . S
C960 H946 0.960 . S
C960 H947 0.960 . S
C960 C959 1.524 . S
C961 C958 1.403 . S
C961 C962 1.392 . S
C961 C965 1.495 . S
C962 C961 1.392 . S
C962 C963 1.385 . S
C962 C964 1.478 . S
C963 H957 0.930 . S
C963 C959 1.400 . S
C963 C962 1.385 . S
C964 C962 1.478 . S
C964 C966 1.381 . S
C964 C970 1.383 . S
C965 C961 1.495 . S
C965 H971 0.959 . S
C965 H972 0.961 . S
C965 H973 0.960 . S
C966 C964 1.381 . S
C966 C967 1.394 . S
C966 H974 0.930 . S
C967 C966 1.394 . S
C967 C968 1.383 . S
C967 H975 0.929 . S
C968 C967 1.383 . S
C968 C969 1.377 . S
C969 H953 0.930 . S
C969 C968 1.377 . S
C969 C970 1.379 . S
C970 H954 0.931 . S
C970 C964 1.383 . S
C970 C969 1.379 . S
H971 C965 0.959 . S
H972 C965 0.961 . S
H973 C965 0.960 . S
H974 C966 0.930 . S
H975 C967 0.929 . S
H976 C984 0.929 . S
H977 C986 0.930 . S
H978 C988 0.930 . S
H979 C991 0.929 . S
H980 C994 0.930 . S
H981 C996 0.960 . S
H982 C996 0.960 . S
H983 C996 0.960 . S
C984 H976 0.929 . S
C984 C985 1.377 . S
C984 C986 1.384 . S
C985 C984 1.377 . S
C985 C991 1.390 . S
C986 H977 0.930 . S
C986 C984 1.384 . S
C986 C987 1.372 . S
C987 C986 1.372 . S
C987 C988 1.400 . S
C987 C992 1.490 . S
C988 H978 0.930 . S
C988 C987 1.400 . S
C988 C991 1.386 . S
H989 C1005 0.930 . S
H990 C1006 0.931 . S
C991 H979 0.929 . S
C991 C985 1.390 . S
C991 C988 1.386 . S
C992 C987 1.490 . S
C992 C994 1.395 . S
C992 C995 1.403 . S
H993 C999 0.930 . S
C994 H980 0.930 . S
C994 C992 1.395 . S
C994 C997 1.403 . S
C995 C992 1.403 . S
C995 C996 1.524 . S
C995 C999 1.400 . S
C996 H981 0.960 . S
C996 H982 0.960 . S
C996 H983 0.960 . S
C996 C995 1.524 . S
C997 C994 1.403 . S
C997 C998 1.392 . S
C997 C1001 1.495 . S
C998 C997 1.392 . S
C998 C999 1.385 . S
C998 C1000 1.478 . S
C999 H993 0.930 . S
C999 C995 1.400 . S
C999 C998 1.385 . S
C1000 C998 1.478 . S
C1000 C1002 1.381 . S
C1000 C1006 1.383 . S
C1001 C997 1.495 . S
C1001 H1007 0.959 . S
C1001 H1008 0.961 . S
C1001 H1009 0.960 . S
C1002 C1000 1.381 . S
C1002 C1003 1.394 . S
C1002 H1010 0.930 . S
C1003 C1002 1.394 . S
C1003 C1004 1.383 . S
C1003 H1011 0.929 . S
C1004 C1003 1.383 . S
C1004 C1005 1.377 . S
C1005 H989 0.930 . S
C1005 C1004 1.377 . S
C1005 C1006 1.379 . S
C1006 H990 0.931 . S
C1006 C1000 1.383 . S
C1006 C1005 1.379 . S
H1007 C1001 0.959 . S
H1008 C1001 0.961 . S
H1009 C1001 0.960 . S
H1010 C1002 0.930 . S
H1011 C1003 0.929 . S
H1012 C1020 0.929 . S
H1013 C1022 0.930 . S
H1014 C1024 0.930 . S
H1015 C1027 0.929 . S
H1016 C1030 0.930 . S
H1017 C1032 0.960 . S
H1018 C1032 0.960 . S
H1019 C1032 0.960 . S
C1020 H1012 0.929 . S
C1020 C1021 1.377 . S
C1020 C1022 1.384 . S
C1021 C1020 1.377 . S
C1021 C1027 1.390 . S
C1022 H1013 0.930 . S
C1022 C1020 1.384 . S
C1022 C1023 1.372 . S
C1023 C1022 1.372 . S
C1023 C1024 1.400 . S
C1023 C1028 1.490 . S
C1024 H1014 0.930 . S
C1024 C1023 1.400 . S
C1024 C1027 1.386 . S
H1025 C1041 0.930 . S
H1026 C1042 0.931 . S
C1027 H1015 0.929 . S
C1027 C1021 1.390 . S
C1027 C1024 1.386 . S
C1028 C1023 1.490 . S
C1028 C1030 1.395 . S
C1028 C1031 1.403 . S
H1029 C1035 0.930 . S
C1030 H1016 0.930 . S
C1030 C1028 1.395 . S
C1030 C1033 1.403 . S
C1031 C1028 1.403 . S
C1031 C1032 1.524 . S
C1031 C1035 1.400 . S
C1032 H1017 0.960 . S
C1032 H1018 0.960 . S
C1032 H1019 0.960 . S
C1032 C1031 1.524 . S
C1033 C1030 1.403 . S
C1033 C1034 1.392 . S
C1033 C1037 1.495 . S
C1034 C1033 1.392 . S
C1034 C1035 1.385 . S
C1034 C1036 1.478 . S
C1035 H1029 0.930 . S
C1035 C1031 1.400 . S
C1035 C1034 1.385 . S
C1036 C1034 1.478 . S
C1036 C1038 1.381 . S
C1036 C1042 1.383 . S
C1037 C1033 1.495 . S
C1037 H1043 0.959 . S
C1037 H1044 0.961 . S
C1037 H1045 0.960 . S
C1038 C1036 1.381 . S
C1038 C1039 1.394 . S
C1038 H1046 0.930 . S
C1039 C1038 1.394 . S
C1039 C1040 1.383 . S
C1039 H1047 0.929 . S
C1040 C1039 1.383 . S
C1040 C1041 1.377 . S
C1041 H1025 0.930 . S
C1041 C1040 1.377 . S
C1041 C1042 1.379 . S
C1042 H1026 0.931 . S
C1042 C1036 1.383 . S
C1042 C1041 1.379 . S
H1043 C1037 0.959 . S
H1044 C1037 0.961 . S
H1045 C1037 0.960 . S
H1046 C1038 0.930 . S
H1047 C1039 0.929 . S
H1048 C1056 0.929 . S
H1049 C1058 0.930 . S
H1050 C1060 0.930 . S
H1051 C1063 0.929 . S
H1052 C1066 0.930 . S
H1053 C1068 0.960 . S
H1054 C1068 0.960 . S
H1055 C1068 0.960 . S
C1056 H1048 0.929 . S
C1056 C1057 1.377 . S
C1056 C1058 1.384 . S
C1057 C1056 1.377 . S
C1057 C1063 1.390 . S
C1058 H1049 0.930 . S
C1058 C1056 1.384 . S
C1058 C1059 1.372 . S
C1059 C1058 1.372 . S
C1059 C1060 1.400 . S
C1059 C1064 1.490 . S
C1060 H1050 0.930 . S
C1060 C1059 1.400 . S
C1060 C1063 1.386 . S
H1061 C1077 0.930 . S
H1062 C1078 0.931 . S
C1063 H1051 0.929 . S
C1063 C1057 1.390 . S
C1063 C1060 1.386 . S
C1064 C1059 1.490 . S
C1064 C1066 1.395 . S
C1064 C1067 1.403 . S
H1065 C1071 0.930 . S
C1066 H1052 0.930 . S
C1066 C1064 1.395 . S
C1066 C1069 1.403 . S
C1067 C1064 1.403 . S
C1067 C1068 1.524 . S
C1067 C1071 1.400 . S
C1068 H1053 0.960 . S
C1068 H1054 0.960 . S
C1068 H1055 0.960 . S
C1068 C1067 1.524 . S
C1069 C1066 1.403 . S
C1069 C1070 1.392 . S
C1069 C1073 1.495 . S
C1070 C1069 1.392 . S
C1070 C1071 1.385 . S
C1070 C1072 1.478 . S
C1071 H1065 0.930 . S
C1071 C1067 1.400 . S
C1071 C1070 1.385 . S
C1072 C1070 1.478 . S
C1072 C1074 1.381 . S
C1072 C1078 1.383 . S
C1073 C1069 1.495 . S
C1073 H1079 0.959 . S
C1073 H1080 0.961 . S
C1073 H1081 0.960 . S
C1074 C1072 1.381 . S
C1074 C1075 1.394 . S
C1074 H1082 0.930 . S
C1075 C1074 1.394 . S
C1075 C1076 1.383 . S
C1075 H1083 0.929 . S
C1076 C1075 1.383 . S
C1076 C1077 1.377 . S
C1077 H1061 0.930 . S
C1077 C1076 1.377 . S
C1077 C1078 1.379 . S
C1078 H1062 0.931 . S
C1078 C1072 1.383 . S
C1078 C1077 1.379 . S
H1079 C1073 0.959 . S
H1080 C1073 0.961 . S
H1081 C1073 0.960 . S
H1082 C1074 0.930 . S
H1083 C1075 0.929 . S
H1084 C1092 0.929 . S
H1085 C1094 0.930 . S
H1086 C1096 0.930 . S
H1087 C1099 0.929 . S
H1088 C1102 0.930 . S
H1089 C1104 0.960 . S
H1090 C1104 0.960 . S
H1091 C1104 0.960 . S
C1092 H1084 0.929 . S
C1092 C1093 1.377 . S
C1092 C1094 1.384 . S
C1093 C1092 1.377 . S
C1093 C1099 1.390 . S
C1094 H1085 0.930 . S
C1094 C1092 1.384 . S
C1094 C1095 1.372 . S
C1095 C1094 1.372 . S
C1095 C1096 1.400 . S
C1095 C1100 1.490 . S
C1096 H1086 0.930 . S
C1096 C1095 1.400 . S
C1096 C1099 1.386 . S
H1097 C1113 0.930 . S
H1098 C1114 0.931 . S
C1099 H1087 0.929 . S
C1099 C1093 1.390 . S
C1099 C1096 1.386 . S
C1100 C1095 1.490 . S
C1100 C1102 1.395 . S
C1100 C1103 1.403 . S
H1101 C1107 0.930 . S
C1102 H1088 0.930 . S
C1102 C1100 1.395 . S
C1102 C1105 1.403 . S
C1103 C1100 1.403 . S
C1103 C1104 1.524 . S
C1103 C1107 1.400 . S
C1104 H1089 0.960 . S
C1104 H1090 0.960 . S
C1104 H1091 0.960 . S
C1104 C1103 1.524 . S
C1105 C1102 1.403 . S
C1105 C1106 1.392 . S
C1105 C1109 1.495 . S
C1106 C1105 1.392 . S
C1106 C1107 1.385 . S
C1106 C1108 1.478 . S
C1107 H1101 0.930 . S
C1107 C1103 1.400 . S
C1107 C1106 1.385 . S
C1108 C1106 1.478 . S
C1108 C1110 1.381 . S
C1108 C1114 1.383 . S
C1109 C1105 1.495 . S
C1109 H1115 0.959 . S
C1109 H1116 0.961 . S
C1109 H1117 0.960 . S
C1110 C1108 1.381 . S
C1110 C1111 1.394 . S
C1110 H1118 0.930 . S
C1111 C1110 1.394 . S
C1111 C1112 1.383 . S
C1111 H1119 0.929 . S
C1112 C1111 1.383 . S
C1112 C1113 1.377 . S
C1113 H1097 0.930 . S
C1113 C1112 1.377 . S
C1113 C1114 1.379 . S
C1114 H1098 0.931 . S
C1114 C1108 1.383 . S
C1114 C1113 1.379 . S
H1115 C1109 0.959 . S
H1116 C1109 0.961 . S
H1117 C1109 0.960 . S
H1118 C1110 0.930 . S
H1119 C1111 0.929 . S
H1120 C1128 0.929 . S
H1121 C1130 0.930 . S
H1122 C1132 0.930 . S
H1123 C1135 0.929 . S
H1124 C1138 0.930 . S
H1125 C1140 0.960 . S
H1126 C1140 0.960 . S
H1127 C1140 0.960 . S
C1128 H1120 0.929 . S
C1128 C1129 1.377 . S
C1128 C1130 1.384 . S
C1129 C1128 1.377 . S
C1129 C1135 1.390 . S
C1130 H1121 0.930 . S
C1130 C1128 1.384 . S
C1130 C1131 1.372 . S
C1131 C1130 1.372 . S
C1131 C1132 1.400 . S
C1131 C1136 1.490 . S
C1132 H1122 0.930 . S
C1132 C1131 1.400 . S
C1132 C1135 1.386 . S
H1133 C1149 0.930 . S
H1134 C1150 0.931 . S
C1135 H1123 0.929 . S
C1135 C1129 1.390 . S
C1135 C1132 1.386 . S
C1136 C1131 1.490 . S
C1136 C1138 1.395 . S
C1136 C1139 1.403 . S
H1137 C1143 0.930 . S
C1138 H1124 0.930 . S
C1138 C1136 1.395 . S
C1138 C1141 1.403 . S
C1139 C1136 1.403 . S
C1139 C1140 1.524 . S
C1139 C1143 1.400 . S
C1140 H1125 0.960 . S
C1140 H1126 0.960 . S
C1140 H1127 0.960 . S
C1140 C1139 1.524 . S
C1141 C1138 1.403 . S
C1141 C1142 1.392 . S
C1141 C1145 1.495 . S
C1142 C1141 1.392 . S
C1142 C1143 1.385 . S
C1142 C1144 1.478 . S
C1143 H1137 0.930 . S
C1143 C1139 1.400 . S
C1143 C1142 1.385 . S
C1144 C1142 1.478 . S
C1144 C1146 1.381 . S
C1144 C1150 1.383 . S
C1145 C1141 1.495 . S
C1145 H1151 0.959 . S
C1145 H1152 0.961 . S
C1145 H1153 0.960 . S
C1146 C1144 1.381 . S
C1146 C1147 1.394 . S
C1146 H1154 0.930 . S
C1147 C1146 1.394 . S
C1147 C1148 1.383 . S
C1147 H1155 0.929 . S
C1148 C1147 1.383 . S
C1148 C1149 1.377 . S
C1149 H1133 0.930 . S
C1149 C1148 1.377 . S
C1149 C1150 1.379 . S
C1150 H1134 0.931 . S
C1150 C1144 1.383 . S
C1150 C1149 1.379 . S
H1151 C1145 0.959 . S
H1152 C1145 0.961 . S
H1153 C1145 0.960 . S
H1154 C1146 0.930 . S
H1155 C1147 0.929 . S
H1156 C1164 0.929 . S
H1157 C1166 0.930 . S
H1158 C1168 0.930 . S
H1159 C1171 0.929 . S
H1160 C1174 0.930 . S
H1161 C1176 0.960 . S
H1162 C1176 0.960 . S
H1163 C1176 0.960 . S
C1164 H1156 0.929 . S
C1164 C1165 1.377 . S
C1164 C1166 1.384 . S
C1165 C1164 1.377 . S
C1165 C1171 1.390 . S
C1166 H1157 0.930 . S
C1166 C1164 1.384 . S
C1166 C1167 1.372 . S
C1167 C1166 1.372 . S
C1167 C1168 1.400 . S
C1167 C1172 1.490 . S
C1168 H1158 0.930 . S
C1168 C1167 1.400 . S
C1168 C1171 1.386 . S
H1169 C1185 0.930 . S
H1170 C1186 0.931 . S
C1171 H1159 0.929 . S
C1171 C1165 1.390 . S
C1171 C1168 1.386 . S
C1172 C1167 1.490 . S
C1172 C1174 1.395 . S
C1172 C1175 1.403 . S
H1173 C1179 0.930 . S
C1174 H1160 0.930 . S
C1174 C1172 1.395 . S
C1174 C1177 1.403 . S
C1175 C1172 1.403 . S
C1175 C1176 1.524 . S
C1175 C1179 1.400 . S
C1176 H1161 0.960 . S
C1176 H1162 0.960 . S
C1176 H1163 0.960 . S
C1176 C1175 1.524 . S
C1177 C1174 1.403 . S
C1177 C1178 1.392 . S
C1177 C1181 1.495 . S
C1178 C1177 1.392 . S
C1178 C1179 1.385 . S
C1178 C1180 1.478 . S
C1179 H1173 0.930 . S
C1179 C1175 1.400 . S
C1179 C1178 1.385 . S
C1180 C1178 1.478 . S
C1180 C1182 1.381 . S
C1180 C1186 1.383 . S
C1181 C1177 1.495 . S
C1181 H1187 0.959 . S
C1181 H1188 0.961 . S
C1181 H1189 0.960 . S
C1182 C1180 1.381 . S
C1182 C1183 1.394 . S
C1182 H1190 0.930 . S
C1183 C1182 1.394 . S
C1183 C1184 1.383 . S
C1183 H1191 0.929 . S
C1184 C1183 1.383 . S
C1184 C1185 1.377 . S
C1185 H1169 0.930 . S
C1185 C1184 1.377 . S
C1185 C1186 1.379 . S
C1186 H1170 0.931 . S
C1186 C1180 1.383 . S
C1186 C1185 1.379 . S
H1187 C1181 0.959 . S
H1188 C1181 0.961 . S
H1189 C1181 0.960 . S
H1190 C1182 0.930 . S
H1191 C1183 0.929 . S
H1192 C1200 0.929 . S
H1193 C1202 0.930 . S
H1194 C1204 0.930 . S
H1195 C1207 0.929 . S
H1196 C1210 0.930 . S
H1197 C1212 0.960 . S
H1198 C1212 0.960 . S
H1199 C1212 0.960 . S
C1200 H1192 0.929 . S
C1200 C1201 1.377 . S
C1200 C1202 1.384 . S
C1201 C1200 1.377 . S
C1201 C1207 1.390 . S
C1202 H1193 0.930 . S
C1202 C1200 1.384 . S
C1202 C1203 1.372 . S
C1203 C1202 1.372 . S
C1203 C1204 1.400 . S
C1203 C1208 1.490 . S
C1204 H1194 0.930 . S
C1204 C1203 1.400 . S
C1204 C1207 1.386 . S
H1205 C1221 0.930 . S
H1206 C1222 0.931 . S
C1207 H1195 0.929 . S
C1207 C1201 1.390 . S
C1207 C1204 1.386 . S
C1208 C1203 1.490 . S
C1208 C1210 1.395 . S
C1208 C1211 1.403 . S
H1209 C1215 0.930 . S
C1210 H1196 0.930 . S
C1210 C1208 1.395 . S
C1210 C1213 1.403 . S
C1211 C1208 1.403 . S
C1211 C1212 1.524 . S
C1211 C1215 1.400 . S
C1212 H1197 0.960 . S
C1212 H1198 0.960 . S
C1212 H1199 0.960 . S
C1212 C1211 1.524 . S
C1213 C1210 1.403 . S
C1213 C1214 1.392 . S
C1213 C1217 1.495 . S
C1214 C1213 1.392 . S
C1214 C1215 1.385 . S
C1214 C1216 1.478 . S
C1215 H1209 0.930 . S
C1215 C1211 1.400 . S
C1215 C1214 1.385 . S
C1216 C1214 1.478 . S
C1216 C1218 1.381 . S
C1216 C1222 1.383 . S
C1217 C1213 1.495 . S
C1217 H1223 0.959 . S
C1217 H1224 0.961 . S
C1217 H1225 0.960 . S
C1218 C1216 1.381 . S
C1218 C1219 1.394 . S
C1218 H1226 0.930 . S
C1219 C1218 1.394 . S
C1219 C1220 1.383 . S
C1219 H1227 0.929 . S
C1220 C1219 1.383 . S
C1220 C1221 1.377 . S
C1221 H1205 0.930 . S
C1221 C1220 1.377 . S
C1221 C1222 1.379 . S
C1222 H1206 0.931 . S
C1222 C1216 1.383 . S
C1222 C1221 1.379 . S
H1223 C1217 0.959 . S
H1224 C1217 0.961 . S
H1225 C1217 0.960 . S
H1226 C1218 0.930 . S
H1227 C1219 0.929 . S
H1228 C1236 0.929 . S
H1229 C1238 0.930 . S
H1230 C1240 0.930 . S
H1231 C1243 0.929 . S
H1232 C1246 0.930 . S
H1233 C1248 0.960 . S
H1234 C1248 0.960 . S
H1235 C1248 0.960 . S
C1236 H1228 0.929 . S
C1236 C1237 1.377 . S
C1236 C1238 1.384 . S
C1237 C1236 1.377 . S
C1237 C1243 1.390 . S
C1238 H1229 0.930 . S
C1238 C1236 1.384 . S
C1238 C1239 1.372 . S
C1239 C1238 1.372 . S
C1239 C1240 1.400 . S
C1239 C1244 1.490 . S
C1240 H1230 0.930 . S
C1240 C1239 1.400 . S
C1240 C1243 1.386 . S
H1241 C1257 0.930 . S
H1242 C1258 0.931 . S
C1243 H1231 0.929 . S
C1243 C1237 1.390 . S
C1243 C1240 1.386 . S
C1244 C1239 1.490 . S
C1244 C1246 1.395 . S
C1244 C1247 1.403 . S
H1245 C1251 0.930 . S
C1246 H1232 0.930 . S
C1246 C1244 1.395 . S
C1246 C1249 1.403 . S
C1247 C1244 1.403 . S
C1247 C1248 1.524 . S
C1247 C1251 1.400 . S
C1248 H1233 0.960 . S
C1248 H1234 0.960 . S
C1248 H1235 0.960 . S
C1248 C1247 1.524 . S
C1249 C1246 1.403 . S
C1249 C1250 1.392 . S
C1249 C1253 1.495 . S
C1250 C1249 1.392 . S
C1250 C1251 1.385 . S
C1250 C1252 1.478 . S
C1251 H1245 0.930 . S
C1251 C1247 1.400 . S
C1251 C1250 1.385 . S
C1252 C1250 1.478 . S
C1252 C1254 1.381 . S
C1252 C1258 1.383 . S
C1253 C1249 1.495 . S
C1253 H1259 0.959 . S
C1253 H1260 0.961 . S
C1253 H1261 0.960 . S
C1254 C1252 1.381 . S
C1254 C1255 1.394 . S
C1254 H1262 0.930 . S
C1255 C1254 1.394 . S
C1255 C1256 1.383 . S
C1255 H1263 0.929 . S
C1256 C1255 1.383 . S
C1256 C1257 1.377 . S
C1257 H1241 0.930 . S
C1257 C1256 1.377 . S
C1257 C1258 1.379 . S
C1258 H1242 0.931 . S
C1258 C1252 1.383 . S
C1258 C1257 1.379 . S
H1259 C1253 0.959 . S
H1260 C1253 0.961 . S
H1261 C1253 0.960 . S
H1262 C1254 0.930 . S
H1263 C1255 0.929 . S
H1264 C1272 0.929 . S
H1265 C1274 0.930 . S
H1266 C1276 0.930 . S
H1267 C1279 0.929 . S
H1268 C1282 0.930 . S
H1269 C1284 0.960 . S
H1270 C1284 0.960 . S
H1271 C1284 0.960 . S
C1272 H1264 0.929 . S
C1272 C1273 1.377 . S
C1272 C1274 1.384 . S
C1273 C1272 1.377 . S
C1273 C1279 1.390 . S
C1274 H1265 0.930 . S
C1274 C1272 1.384 . S
C1274 C1275 1.372 . S
C1275 C1274 1.372 . S
C1275 C1276 1.400 . S
C1275 C1280 1.490 . S
C1276 H1266 0.930 . S
C1276 C1275 1.400 . S
C1276 C1279 1.386 . S
H1277 C1293 0.930 . S
H1278 C1294 0.931 . S
C1279 H1267 0.929 . S
C1279 C1273 1.390 . S
C1279 C1276 1.386 . S
C1280 C1275 1.490 . S
C1280 C1282 1.395 . S
C1280 C1283 1.403 . S
H1281 C1287 0.930 . S
C1282 H1268 0.930 . S
C1282 C1280 1.395 . S
C1282 C1285 1.403 . S
C1283 C1280 1.403 . S
C1283 C1284 1.524 . S
C1283 C1287 1.400 . S
C1284 H1269 0.960 . S
C1284 H1270 0.960 . S
C1284 H1271 0.960 . S
C1284 C1283 1.524 . S
C1285 C1282 1.403 . S
C1285 C1286 1.392 . S
C1285 C1289 1.495 . S
C1286 C1285 1.392 . S
C1286 C1287 1.385 . S
C1286 C1288 1.478 . S
C1287 H1281 0.930 . S
C1287 C1283 1.400 . S
C1287 C1286 1.385 . S
C1288 C1286 1.478 . S
C1288 C1290 1.381 . S
C1288 C1294 1.383 . S
C1289 C1285 1.495 . S
C1289 H1295 0.959 . S
C1289 H1296 0.961 . S
C1289 H1297 0.960 . S
C1290 C1288 1.381 . S
C1290 C1291 1.394 . S
C1290 H1298 0.930 . S
C1291 C1290 1.394 . S
C1291 C1292 1.383 . S
C1291 H1299 0.929 . S
C1292 C1291 1.383 . S
C1292 C1293 1.377 . S
C1293 H1277 0.930 . S
C1293 C1292 1.377 . S
C1293 C1294 1.379 . S
C1294 H1278 0.931 . S
C1294 C1288 1.383 . S
C1294 C1293 1.379 . S
H1295 C1289 0.959 . S
H1296 C1289 0.961 . S
H1297 C1289 0.960 . S
H1298 C1290 0.930 . S
H1299 C1291 0.929 . S
H1300 C1308 0.929 . S
H1301 C1310 0.930 . S
H1302 C1312 0.930 . S
H1303 C1315 0.929 . S
H1304 C1318 0.930 . S
H1305 C1320 0.960 . S
H1306 C1320 0.960 . S
H1307 C1320 0.960 . S
C1308 H1300 0.929 . S
C1308 C1309 1.377 . S
C1308 C1310 1.384 . S
C1309 C1308 1.377 . S
C1309 C1315 1.390 . S
C1310 H1301 0.930 . S
C1310 C1308 1.384 . S
C1310 C1311 1.372 . S
C1311 C1310 1.372 . S
C1311 C1312 1.400 . S
C1311 C1316 1.490 . S
C1312 H1302 0.930 . S
C1312 C1311 1.400 . S
C1312 C1315 1.386 . S
H1313 C1329 0.930 . S
H1314 C1330 0.931 . S
C1315 H1303 0.929 . S
C1315 C1309 1.390 . S
C1315 C1312 1.386 . S
C1316 C1311 1.490 . S
C1316 C1318 1.395 . S
C1316 C1319 1.403 . S
H1317 C1323 0.930 . S
C1318 H1304 0.930 . S
C1318 C1316 1.395 . S
C1318 C1321 1.403 . S
C1319 C1316 1.403 . S
C1319 C1320 1.524 . S
C1319 C1323 1.400 . S
C1320 H1305 0.960 . S
C1320 H1306 0.960 . S
C1320 H1307 0.960 . S
C1320 C1319 1.524 . S
C1321 C1318 1.403 . S
C1321 C1322 1.392 . S
C1321 C1325 1.495 . S
C1322 C1321 1.392 . S
C1322 C1323 1.385 . S
C1322 C1324 1.478 . S
C1323 H1317 0.930 . S
C1323 C1319 1.400 . S
C1323 C1322 1.385 . S
C1324 C1322 1.478 . S
C1324 C1326 1.381 . S
C1324 C1330 1.383 . S
C1325 C1321 1.495 . S
C1325 H1331 0.959 . S
C1325 H1332 0.961 . S
C1325 H1333 0.960 . S
C1326 C1324 1.381 . S
C1326 C1327 1.394 . S
C1326 H1334 0.930 . S
C1327 C1326 1.394 . S
C1327 C1328 1.383 . S
C1327 H1335 0.929 . S
C1328 C1327 1.383 . S
C1328 C1329 1.377 . S
C1329 H1313 0.930 . S
C1329 C1328 1.377 . S
C1329 C1330 1.379 . S
C1330 H1314 0.931 . S
C1330 C1324 1.383 . S
C1330 C1329 1.379 . S
H1331 C1325 0.959 . S
H1332 C1325 0.961 . S
H1333 C1325 0.960 . S
H1334 C1326 0.930 . S
H1335 C1327 0.929 . S
H1336 C1344 0.929 . S
H1337 C1346 0.930 . S
H1338 C1348 0.930 . S
H1339 C1351 0.929 . S
H1340 C1354 0.930 . S
H1341 C1356 0.960 . S
H1342 C1356 0.960 . S
H1343 C1356 0.960 . S
C1344 H1336 0.929 . S
C1344 C1345 1.377 . S
C1344 C1346 1.384 . S
C1345 C1344 1.377 . S
C1345 C1351 1.390 . S
C1346 H1337 0.930 . S
C1346 C1344 1.384 . S
C1346 C1347 1.372 . S
C1347 C1346 1.372 . S
C1347 C1348 1.400 . S
C1347 C1352 1.490 . S
C1348 H1338 0.930 . S
C1348 C1347 1.400 . S
C1348 C1351 1.386 . S
H1349 C1365 0.930 . S
H1350 C1366 0.931 . S
C1351 H1339 0.929 . S
C1351 C1345 1.390 . S
C1351 C1348 1.386 . S
C1352 C1347 1.490 . S
C1352 C1354 1.395 . S
C1352 C1355 1.403 . S
H1353 C1359 0.930 . S
C1354 H1340 0.930 . S
C1354 C1352 1.395 . S
C1354 C1357 1.403 . S
C1355 C1352 1.403 . S
C1355 C1356 1.524 . S
C1355 C1359 1.400 . S
C1356 H1341 0.960 . S
C1356 H1342 0.960 . S
C1356 H1343 0.960 . S
C1356 C1355 1.524 . S
C1357 C1354 1.403 . S
C1357 C1358 1.392 . S
C1357 C1361 1.495 . S
C1358 C1357 1.392 . S
C1358 C1359 1.385 . S
C1358 C1360 1.478 . S
C1359 H1353 0.930 . S
C1359 C1355 1.400 . S
C1359 C1358 1.385 . S
C1360 C1358 1.478 . S
C1360 C1362 1.381 . S
C1360 C1366 1.383 . S
C1361 C1357 1.495 . S
C1361 H1367 0.959 . S
C1361 H1368 0.961 . S
C1361 H1369 0.960 . S
C1362 C1360 1.381 . S
C1362 C1363 1.394 . S
C1362 H1370 0.930 . S
C1363 C1362 1.394 . S
C1363 C1364 1.383 . S
C1363 H1371 0.929 . S
C1364 C1363 1.383 . S
C1364 C1365 1.377 . S
C1365 H1349 0.930 . S
C1365 C1364 1.377 . S
C1365 C1366 1.379 . S
C1366 H1350 0.931 . S
C1366 C1360 1.383 . S
C1366 C1365 1.379 . S
H1367 C1361 0.959 . S
H1368 C1361 0.961 . S
H1369 C1361 0.960 . S
H1370 C1362 0.930 . S
H1371 C1363 0.929 . S
H1372 C1380 0.929 . S
H1373 C1382 0.930 . S
H1374 C1384 0.930 . S
H1375 C1387 0.929 . S
H1376 C1390 0.930 . S
H1377 C1392 0.960 . S
H1378 C1392 0.960 . S
H1379 C1392 0.960 . S
C1380 H1372 0.929 . S
C1380 C1381 1.377 . S
C1380 C1382 1.384 . S
C1381 C1380 1.377 . S
C1381 C1387 1.390 . S
C1382 H1373 0.930 . S
C1382 C1380 1.384 . S
C1382 C1383 1.372 . S
C1383 C1382 1.372 . S
C1383 C1384 1.400 . S
C1383 C1388 1.490 . S
C1384 H1374 0.930 . S
C1384 C1383 1.400 . S
C1384 C1387 1.386 . S
H1385 C1401 0.930 . S
H1386 C1402 0.931 . S
C1387 H1375 0.929 . S
C1387 C1381 1.390 . S
C1387 C1384 1.386 . S
C1388 C1383 1.490 . S
C1388 C1390 1.395 . S
C1388 C1391 1.403 . S
H1389 C1395 0.930 . S
C1390 H1376 0.930 . S
C1390 C1388 1.395 . S
C1390 C1393 1.403 . S
C1391 C1388 1.403 . S
C1391 C1392 1.524 . S
C1391 C1395 1.400 . S
C1392 H1377 0.960 . S
C1392 H1378 0.960 . S
C1392 H1379 0.960 . S
C1392 C1391 1.524 . S
C1393 C1390 1.403 . S
C1393 C1394 1.392 . S
C1393 C1397 1.495 . S
C1394 C1393 1.392 . S
C1394 C1395 1.385 . S
C1394 C1396 1.478 . S
C1395 H1389 0.930 . S
C1395 C1391 1.400 . S
C1395 C1394 1.385 . S
C1396 C1394 1.478 . S
C1396 C1398 1.381 . S
C1396 C1402 1.383 . S
C1397 C1393 1.495 . S
C1397 H1403 0.959 . S
C1397 H1404 0.961 . S
C1397 H1405 0.960 . S
C1398 C1396 1.381 . S
C1398 C1399 1.394 . S
C1398 H1406 0.930 . S
C1399 C1398 1.394 . S
C1399 C1400 1.383 . S
C1399 H1407 0.929 . S
C1400 C1399 1.383 . S
C1400 C1401 1.377 . S
C1401 H1385 0.930 . S
C1401 C1400 1.377 . S
C1401 C1402 1.379 . S
C1402 H1386 0.931 . S
C1402 C1396 1.383 . S
C1402 C1401 1.379 . S
H1403 C1397 0.959 . S
H1404 C1397 0.961 . S
H1405 C1397 0.960 . S
H1406 C1398 0.930 . S
H1407 C1399 0.929 . S
H1408 C1416 0.929 . S
H1409 C1418 0.930 . S
H1410 C1420 0.930 . S
H1411 C1423 0.929 . S
H1412 C1426 0.930 . S
H1413 C1428 0.960 . S
H1414 C1428 0.960 . S
H1415 C1428 0.960 . S
C1416 H1408 0.929 . S
C1416 C1417 1.377 . S
C1416 C1418 1.384 . S
C1417 C1416 1.377 . S
C1417 C1423 1.390 . S
C1418 H1409 0.930 . S
C1418 C1416 1.384 . S
C1418 C1419 1.372 . S
C1419 C1418 1.372 . S
C1419 C1420 1.400 . S
C1419 C1424 1.490 . S
C1420 H1410 0.930 . S
C1420 C1419 1.400 . S
C1420 C1423 1.386 . S
H1421 C1437 0.930 . S
H1422 C1438 0.931 . S
C1423 H1411 0.929 . S
C1423 C1417 1.390 . S
C1423 C1420 1.386 . S
C1424 C1419 1.490 . S
C1424 C1426 1.395 . S
C1424 C1427 1.403 . S
H1425 C1431 0.930 . S
C1426 H1412 0.930 . S
C1426 C1424 1.395 . S
C1426 C1429 1.403 . S
C1427 C1424 1.403 . S
C1427 C1428 1.524 . S
C1427 C1431 1.400 . S
C1428 H1413 0.960 . S
C1428 H1414 0.960 . S
C1428 H1415 0.960 . S
C1428 C1427 1.524 . S
C1429 C1426 1.403 . S
C1429 C1430 1.392 . S
C1429 C1433 1.495 . S
C1430 C1429 1.392 . S
C1430 C1431 1.385 . S
C1430 C1432 1.478 . S
C1431 H1425 0.930 . S
C1431 C1427 1.400 . S
C1431 C1430 1.385 . S
C1432 C1430 1.478 . S
C1432 C1434 1.381 . S
C1432 C1438 1.383 . S
C1433 C1429 1.495 . S
C1433 H1439 0.959 . S
C1433 H1440 0.961 . S
C1433 H1441 0.960 . S
C1434 C1432 1.381 . S
C1434 C1435 1.394 . S
C1434 H1442 0.930 . S
C1435 C1434 1.394 . S
C1435 C1436 1.383 . S
C1435 H1443 0.929 . S
C1436 C1435 1.383 . S
C1436 C1437 1.377 . S
C1437 H1421 0.930 . S
C1437 C1436 1.377 . S
C1437 C1438 1.379 . S
C1438 H1422 0.931 . S
C1438 C1432 1.383 . S
C1438 C1437 1.379 . S
H1439 C1433 0.959 . S
H1440 C1433 0.961 . S
H1441 C1433 0.960 . S
H1442 C1434 0.930 . S
H1443 C1435 0.929 . S
H1444 C1452 0.929 . S
H1445 C1454 0.930 . S
H1446 C1456 0.930 . S
H1447 C1459 0.929 . S
H1448 C1462 0.930 . S
H1449 C1464 0.960 . S
H1450 C1464 0.960 . S
H1451 C1464 0.960 . S
C1452 H1444 0.929 . S
C1452 C1453 1.377 . S
C1452 C1454 1.384 . S
C1453 C1452 1.377 . S
C1453 C1459 1.390 . S
C1454 H1445 0.930 . S
C1454 C1452 1.384 . S
C1454 C1455 1.372 . S
C1455 C1454 1.372 . S
C1455 C1456 1.400 . S
C1455 C1460 1.490 . S
C1456 H1446 0.930 . S
C1456 C1455 1.400 . S
C1456 C1459 1.386 . S
H1457 C1473 0.930 . S
H1458 C1474 0.931 . S
C1459 H1447 0.929 . S
C1459 C1453 1.390 . S
C1459 C1456 1.386 . S
C1460 C1455 1.490 . S
C1460 C1462 1.395 . S
C1460 C1463 1.403 . S
H1461 C1467 0.930 . S
C1462 H1448 0.930 . S
C1462 C1460 1.395 . S
C1462 C1465 1.403 . S
C1463 C1460 1.403 . S
C1463 C1464 1.524 . S
C1463 C1467 1.400 . S
C1464 H1449 0.960 . S
C1464 H1450 0.960 . S
C1464 H1451 0.960 . S
C1464 C1463 1.524 . S
C1465 C1462 1.403 . S
C1465 C1466 1.392 . S
C1465 C1469 1.495 . S
C1466 C1465 1.392 . S
C1466 C1467 1.385 . S
C1466 C1468 1.478 . S
C1467 H1461 0.930 . S
C1467 C1463 1.400 . S
C1467 C1466 1.385 . S
C1468 C1466 1.478 . S
C1468 C1470 1.381 . S
C1468 C1474 1.383 . S
C1469 C1465 1.495 . S
C1469 H1475 0.959 . S
C1469 H1476 0.961 . S
C1469 H1477 0.960 . S
C1470 C1468 1.381 . S
C1470 C1471 1.394 . S
C1470 H1478 0.930 . S
C1471 C1470 1.394 . S
C1471 C1472 1.383 . S
C1471 H1479 0.929 . S
C1472 C1471 1.383 . S
C1472 C1473 1.377 . S
C1473 H1457 0.930 . S
C1473 C1472 1.377 . S
C1473 C1474 1.379 . S
C1474 H1458 0.931 . S
C1474 C1468 1.383 . S
C1474 C1473 1.379 . S
H1475 C1469 0.959 . S
H1476 C1469 0.961 . S
H1477 C1469 0.960 . S
H1478 C1470 0.930 . S
H1479 C1471 0.929 . S
H1480 C1488 0.929 . S
H1481 C1490 0.930 . S
H1482 C1492 0.930 . S
H1483 C1495 0.929 . S
H1484 C1498 0.930 . S
H1485 C1500 0.960 . S
H1486 C1500 0.960 . S
H1487 C1500 0.960 . S
C1488 H1480 0.929 . S
C1488 C1489 1.377 . S
C1488 C1490 1.384 . S
C1489 C1488 1.377 . S
C1489 C1495 1.390 . S
C1490 H1481 0.930 . S
C1490 C1488 1.384 . S
C1490 C1491 1.372 . S
C1491 C1490 1.372 . S
C1491 C1492 1.400 . S
C1491 C1496 1.490 . S
C1492 H1482 0.930 . S
C1492 C1491 1.400 . S
C1492 C1495 1.386 . S
H1493 C1509 0.930 . S
H1494 C1510 0.931 . S
C1495 H1483 0.929 . S
C1495 C1489 1.390 . S
C1495 C1492 1.386 . S
C1496 C1491 1.490 . S
C1496 C1498 1.395 . S
C1496 C1499 1.403 . S
H1497 C1503 0.930 . S
C1498 H1484 0.930 . S
C1498 C1496 1.395 . S
C1498 C1501 1.403 . S
C1499 C1496 1.403 . S
C1499 C1500 1.524 . S
C1499 C1503 1.400 . S
C1500 H1485 0.960 . S
C1500 H1486 0.960 . S
C1500 H1487 0.960 . S
C1500 C1499 1.524 . S
C1501 C1498 1.403 . S
C1501 C1502 1.392 . S
C1501 C1505 1.495 . S
C1502 C1501 1.392 . S
C1502 C1503 1.385 . S
C1502 C1504 1.478 . S
C1503 H1497 0.930 . S
C1503 C1499 1.400 . S
C1503 C1502 1.385 . S
C1504 C1502 1.478 . S
C1504 C1506 1.381 . S
C1504 C1510 1.383 . S
C1505 C1501 1.495 . S
C1505 H1511 0.959 . S
C1505 H1512 0.961 . S
C1505 H1513 0.960 . S
C1506 C1504 1.381 . S
C1506 C1507 1.394 . S
C1506 H1514 0.930 . S
C1507 C1506 1.394 . S
C1507 C1508 1.383 . S
C1507 H1515 0.929 . S
C1508 C1507 1.383 . S
C1508 C1509 1.377 . S
C1509 H1493 0.930 . S
C1509 C1508 1.377 . S
C1509 C1510 1.379 . S
C1510 H1494 0.931 . S
C1510 C1504 1.383 . S
C1510 C1509 1.379 . S
H1511 C1505 0.959 . S
H1512 C1505 0.961 . S
H1513 C1505 0.960 . S
H1514 C1506 0.930 . S
H1515 C1507 0.929 . S
H1516 C1524 0.929 . S
H1517 C1526 0.930 . S
H1518 C1528 0.930 . S
H1519 C1531 0.929 . S
H1520 C1534 0.930 . S
H1521 C1536 0.960 . S
H1522 C1536 0.960 . S
H1523 C1536 0.960 . S
C1524 H1516 0.929 . S
C1524 C1525 1.377 . S
C1524 C1526 1.384 . S
C1525 C1524 1.377 . S
C1525 C1531 1.390 . S
C1526 H1517 0.930 . S
C1526 C1524 1.384 . S
C1526 C1527 1.372 . S
C1527 C1526 1.372 . S
C1527 C1528 1.400 . S
C1527 C1532 1.490 . S
C1528 H1518 0.930 . S
C1528 C1527 1.400 . S
C1528 C1531 1.386 . S
H1529 C1545 0.930 . S
H1530 C1546 0.931 . S
C1531 H1519 0.929 . S
C1531 C1525 1.390 . S
C1531 C1528 1.386 . S
C1532 C1527 1.490 . S
C1532 C1534 1.395 . S
C1532 C1535 1.403 . S
H1533 C1539 0.930 . S
C1534 H1520 0.930 . S
C1534 C1532 1.395 . S
C1534 C1537 1.403 . S
C1535 C1532 1.403 . S
C1535 C1536 1.524 . S
C1535 C1539 1.400 . S
C1536 H1521 0.960 . S
C1536 H1522 0.960 . S
C1536 H1523 0.960 . S
C1536 C1535 1.524 . S
C1537 C1534 1.403 . S
C1537 C1538 1.392 . S
C1537 C1541 1.495 . S
C1538 C1537 1.392 . S
C1538 C1539 1.385 . S
C1538 C1540 1.478 . S
C1539 H1533 0.930 . S
C1539 C1535 1.400 . S
C1539 C1538 1.385 . S
C1540 C1538 1.478 . S
C1540 C1542 1.381 . S
C1540 C1546 1.383 . S
C1541 C1537 1.495 . S
C1541 H1547 0.959 . S
C1541 H1548 0.961 . S
C1541 H1549 0.960 . S
C1542 C1540 1.381 . S
C1542 C1543 1.394 . S
C1542 H1550 0.930 . S
C1543 C1542 1.394 . S
C1543 C1544 1.383 . S
C1543 H1551 0.929 . S
C1544 C1543 1.383 . S
C1544 C1545 1.377 . S
C1545 H1529 0.930 . S
C1545 C1544 1.377 . S
C1545 C1546 1.379 . S
C1546 H1530 0.931 . S
C1546 C1540 1.383 . S
C1546 C1545 1.379 . S
H1547 C1541 0.959 . S
H1548 C1541 0.961 . S
H1549 C1541 0.960 . S
H1550 C1542 0.930 . S
H1551 C1543 0.929 . S
H1552 C1560 0.929 . S
H1553 C1562 0.930 . S
H1554 C1564 0.930 . S
H1555 C1567 0.929 . S
H1556 C1570 0.930 . S
H1557 C1572 0.960 . S
H1558 C1572 0.960 . S
H1559 C1572 0.960 . S
C1560 H1552 0.929 . S
C1560 C1561 1.377 . S
C1560 C1562 1.384 . S
C1561 C1560 1.377 . S
C1561 C1567 1.390 . S
C1562 H1553 0.930 . S
C1562 C1560 1.384 . S
C1562 C1563 1.372 . S
C1563 C1562 1.372 . S
C1563 C1564 1.400 . S
C1563 C1568 1.490 . S
C1564 H1554 0.930 . S
C1564 C1563 1.400 . S
C1564 C1567 1.386 . S
H1565 C1581 0.930 . S
H1566 C1582 0.931 . S
C1567 H1555 0.929 . S
C1567 C1561 1.390 . S
C1567 C1564 1.386 . S
C1568 C1563 1.490 . S
C1568 C1570 1.395 . S
C1568 C1571 1.403 . S
H1569 C1575 0.930 . S
C1570 H1556 0.930 . S
C1570 C1568 1.395 . S
C1570 C1573 1.403 . S
C1571 C1568 1.403 . S
C1571 C1572 1.524 . S
C1571 C1575 1.400 . S
C1572 H1557 0.960 . S
C1572 H1558 0.960 . S
C1572 H1559 0.960 . S
C1572 C1571 1.524 . S
C1573 C1570 1.403 . S
C1573 C1574 1.392 . S
C1573 C1577 1.495 . S
C1574 C1573 1.392 . S
C1574 C1575 1.385 . S
C1574 C1576 1.478 . S
C1575 H1569 0.930 . S
C1575 C1571 1.400 . S
C1575 C1574 1.385 . S
C1576 C1574 1.478 . S
C1576 C1578 1.381 . S
C1576 C1582 1.383 . S
C1577 C1573 1.495 . S
C1577 H1583 0.959 . S
C1577 H1584 0.961 . S
C1577 H1585 0.960 . S
C1578 C1576 1.381 . S
C1578 C1579 1.394 . S
C1578 H1586 0.930 . S
C1579 C1578 1.394 . S
C1579 C1580 1.383 . S
C1579 H1587 0.929 . S
C1580 C1579 1.383 . S
C1580 C1581 1.377 . S
C1581 H1565 0.930 . S
C1581 C1580 1.377 . S
C1581 C1582 1.379 . S
C1582 H1566 0.931 . S
C1582 C1576 1.383 . S
C1582 C1581 1.379 . S
H1583 C1577 0.959 . S
H1584 C1577 0.961 . S
H1585 C1577 0.960 . S
H1586 C1578 0.930 . S
H1587 C1579 0.929 . S
H1588 C1596 0.929 . S
H1589 C1598 0.930 . S
H1590 C1600 0.930 . S
H1591 C1603 0.929 . S
H1592 C1606 0.930 . S
H1593 C1608 0.960 . S
H1594 C1608 0.960 . S
H1595 C1608 0.960 . S
C1596 H1588 0.929 . S
C1596 C1597 1.377 . S
C1596 C1598 1.384 . S
C1597 C1596 1.377 . S
C1597 C1603 1.390 . S
C1598 H1589 0.930 . S
C1598 C1596 1.384 . S
C1598 C1599 1.372 . S
C1599 C1598 1.372 . S
C1599 C1600 1.400 . S
C1599 C1604 1.490 . S
C1600 H1590 0.930 . S
C1600 C1599 1.400 . S
C1600 C1603 1.386 . S
H1601 C1617 0.930 . S
H1602 C1618 0.931 . S
C1603 H1591 0.929 . S
C1603 C1597 1.390 . S
C1603 C1600 1.386 . S
C1604 C1599 1.490 . S
C1604 C1606 1.395 . S
C1604 C1607 1.403 . S
H1605 C1611 0.930 . S
C1606 H1592 0.930 . S
C1606 C1604 1.395 . S
C1606 C1609 1.403 . S
C1607 C1604 1.403 . S
C1607 C1608 1.524 . S
C1607 C1611 1.400 . S
C1608 H1593 0.960 . S
C1608 H1594 0.960 . S
C1608 H1595 0.960 . S
C1608 C1607 1.524 . S
C1609 C1606 1.403 . S
C1609 C1610 1.392 . S
C1609 C1613 1.495 . S
C1610 C1609 1.392 . S
C1610 C1611 1.385 . S
C1610 C1612 1.478 . S
C1611 H1605 0.930 . S
C1611 C1607 1.400 . S
C1611 C1610 1.385 . S
C1612 C1610 1.478 . S
C1612 C1614 1.381 . S
C1612 C1618 1.383 . S
C1613 C1609 1.495 . S
C1613 H1619 0.959 . S
C1613 H1620 0.961 . S
C1613 H1621 0.960 . S
C1614 C1612 1.381 . S
C1614 C1615 1.394 . S
C1614 H1622 0.930 . S
C1615 C1614 1.394 . S
C1615 C1616 1.383 . S
C1615 H1623 0.929 . S
C1616 C1615 1.383 . S
C1616 C1617 1.377 . S
C1617 H1601 0.930 . S
C1617 C1616 1.377 . S
C1617 C1618 1.379 . S
C1618 H1602 0.931 . S
C1618 C1612 1.383 . S
C1618 C1617 1.379 . S
H1619 C1613 0.959 . S
H1620 C1613 0.961 . S
H1621 C1613 0.960 . S
H1622 C1614 0.930 . S
H1623 C1615 0.929 . S
H1624 C1632 0.929 . S
H1625 C1634 0.930 . S
H1626 C1636 0.930 . S
H1627 C1639 0.929 . S
H1628 C1642 0.930 . S
H1629 C1644 0.960 . S
H1630 C1644 0.960 . S
H1631 C1644 0.960 . S
C1632 H1624 0.929 . S
C1632 C1633 1.377 . S
C1632 C1634 1.384 . S
C1633 C1632 1.377 . S
C1633 C1639 1.390 . S
C1634 H1625 0.930 . S
C1634 C1632 1.384 . S
C1634 C1635 1.372 . S
C1635 C1634 1.372 . S
C1635 C1636 1.400 . S
C1635 C1640 1.490 . S
C1636 H1626 0.930 . S
C1636 C1635 1.400 . S
C1636 C1639 1.386 . S
H1637 C1653 0.930 . S
H1638 C1654 0.931 . S
C1639 H1627 0.929 . S
C1639 C1633 1.390 . S
C1639 C1636 1.386 . S
C1640 C1635 1.490 . S
C1640 C1642 1.395 . S
C1640 C1643 1.403 . S
H1641 C1647 0.930 . S
C1642 H1628 0.930 . S
C1642 C1640 1.395 . S
C1642 C1645 1.403 . S
C1643 C1640 1.403 . S
C1643 C1644 1.524 . S
C1643 C1647 1.400 . S
C1644 H1629 0.960 . S
C1644 H1630 0.960 . S
C1644 H1631 0.960 . S
C1644 C1643 1.524 . S
C1645 C1642 1.403 . S
C1645 C1646 1.392 . S
C1645 C1649 1.495 . S
C1646 C1645 1.392 . S
C1646 C1647 1.385 . S
C1646 C1648 1.478 . S
C1647 H1641 0.930 . S
C1647 C1643 1.400 . S
C1647 C1646 1.385 . S
C1648 C1646 1.478 . S
C1648 C1650 1.381 . S
C1648 C1654 1.383 . S
C1649 C1645 1.495 . S
C1649 H1655 0.959 . S
C1649 H1656 0.961 . S
C1649 H1657 0.960 . S
C1650 C1648 1.381 . S
C1650 C1651 1.394 . S
C1650 H1658 0.930 . S
C1651 C1650 1.394 . S
C1651 C1652 1.383 . S
C1651 H1659 0.929 . S
C1652 C1651 1.383 . S
C1652 C1653 1.377 . S
C1653 H1637 0.930 . S
C1653 C1652 1.377 . S
C1653 C1654 1.379 . S
C1654 H1638 0.931 . S
C1654 C1648 1.383 . S
C1654 C1653 1.379 . S
H1655 C1649 0.959 . S
H1656 C1649 0.961 . S
H1657 C1649 0.960 . S
H1658 C1650 0.930 . S
H1659 C1651 0.929 . S
H1660 C1668 0.929 . S
H1661 C1670 0.930 . S
H1662 C1672 0.930 . S
H1663 C1675 0.929 . S
H1664 C1678 0.930 . S
H1665 C1680 0.960 . S
H1666 C1680 0.960 . S
H1667 C1680 0.960 . S
C1668 H1660 0.929 . S
C1668 C1669 1.377 . S
C1668 C1670 1.384 . S
C1669 C1668 1.377 . S
C1669 C1675 1.390 . S
C1670 H1661 0.930 . S
C1670 C1668 1.384 . S
C1670 C1671 1.372 . S
C1671 C1670 1.372 . S
C1671 C1672 1.400 . S
C1671 C1676 1.490 . S
C1672 H1662 0.930 . S
C1672 C1671 1.400 . S
C1672 C1675 1.386 . S
H1673 C1689 0.930 . S
H1674 C1690 0.931 . S
C1675 H1663 0.929 . S
C1675 C1669 1.390 . S
C1675 C1672 1.386 . S
C1676 C1671 1.490 . S
C1676 C1678 1.395 . S
C1676 C1679 1.403 . S
H1677 C1683 0.930 . S
C1678 H1664 0.930 . S
C1678 C1676 1.395 . S
C1678 C1681 1.403 . S
C1679 C1676 1.403 . S
C1679 C1680 1.524 . S
C1679 C1683 1.400 . S
C1680 H1665 0.960 . S
C1680 H1666 0.960 . S
C1680 H1667 0.960 . S
C1680 C1679 1.524 . S
C1681 C1678 1.403 . S
C1681 C1682 1.392 . S
C1681 C1685 1.495 . S
C1682 C1681 1.392 . S
C1682 C1683 1.385 . S
C1682 C1684 1.478 . S
C1683 H1677 0.930 . S
C1683 C1679 1.400 . S
C1683 C1682 1.385 . S
C1684 C1682 1.478 . S
C1684 C1686 1.381 . S
C1684 C1690 1.383 . S
C1685 C1681 1.495 . S
C1685 H1691 0.959 . S
C1685 H1692 0.961 . S
C1685 H1693 0.960 . S
C1686 C1684 1.381 . S
C1686 C1687 1.394 . S
C1686 H1694 0.930 . S
C1687 C1686 1.394 . S
C1687 C1688 1.383 . S
C1687 H1695 0.929 . S
C1688 C1687 1.383 . S
C1688 C1689 1.377 . S
C1689 H1673 0.930 . S
C1689 C1688 1.377 . S
C1689 C1690 1.379 . S
C1690 H1674 0.931 . S
C1690 C1684 1.383 . S
C1690 C1689 1.379 . S
H1691 C1685 0.959 . S
H1692 C1685 0.961 . S
H1693 C1685 0.960 . S
H1694 C1686 0.930 . S
H1695 C1687 0.929 . S
H1696 C1704 0.929 . S
H1697 C1706 0.930 . S
H1698 C1708 0.930 . S
H1699 C1711 0.929 . S
H1700 C1714 0.930 . S
H1701 C1716 0.960 . S
H1702 C1716 0.960 . S
H1703 C1716 0.960 . S
C1704 H1696 0.929 . S
C1704 C1705 1.377 . S
C1704 C1706 1.384 . S
C1705 C1704 1.377 . S
C1705 C1711 1.390 . S
C1706 H1697 0.930 . S
C1706 C1704 1.384 . S
C1706 C1707 1.372 . S
C1707 C1706 1.372 . S
C1707 C1708 1.400 . S
C1707 C1712 1.490 . S
C1708 H1698 0.930 . S
C1708 C1707 1.400 . S
C1708 C1711 1.386 . S
H1709 C1725 0.930 . S
H1710 C1726 0.931 . S
C1711 H1699 0.929 . S
C1711 C1705 1.390 . S
C1711 C1708 1.386 . S
C1712 C1707 1.490 . S
C1712 C1714 1.395 . S
C1712 C1715 1.403 . S
H1713 C1719 0.930 . S
C1714 H1700 0.930 . S
C1714 C1712 1.395 . S
C1714 C1717 1.403 . S
C1715 C1712 1.403 . S
C1715 C1716 1.524 . S
C1715 C1719 1.400 . S
C1716 H1701 0.960 . S
C1716 H1702 0.960 . S
C1716 H1703 0.960 . S
C1716 C1715 1.524 . S
C1717 C1714 1.403 . S
C1717 C1718 1.392 . S
C1717 C1721 1.495 . S
C1718 C1717 1.392 . S
C1718 C1719 1.385 . S
C1718 C1720 1.478 . S
C1719 H1713 0.930 . S
C1719 C1715 1.400 . S
C1719 C1718 1.385 . S
C1720 C1718 1.478 . S
C1720 C1722 1.381 . S
C1720 C1726 1.383 . S
C1721 C1717 1.495 . S
C1721 H1727 0.959 . S
C1721 H1728 0.961 . S
C1721 H1729 0.960 . S
C1722 C1720 1.381 . S
C1722 C1723 1.394 . S
C1722 H1730 0.930 . S
C1723 C1722 1.394 . S
C1723 C1724 1.383 . S
C1723 H1731 0.929 . S
C1724 C1723 1.383 . S
C1724 C1725 1.377 . S
C1725 H1709 0.930 . S
C1725 C1724 1.377 . S
C1725 C1726 1.379 . S
C1726 H1710 0.931 . S
C1726 C1720 1.383 . S
C1726 C1725 1.379 . S
H1727 C1721 0.959 . S
H1728 C1721 0.961 . S
H1729 C1721 0.960 . S
H1730 C1722 0.930 . S
H1731 C1723 0.929 . S
H1732 C1740 0.929 . S
H1733 C1742 0.930 . S
H1734 C1744 0.930 . S
H1735 C1747 0.929 . S
H1736 C1750 0.930 . S
H1737 C1752 0.960 . S
H1738 C1752 0.960 . S
H1739 C1752 0.960 . S
C1740 H1732 0.929 . S
C1740 C1741 1.377 . S
C1740 C1742 1.384 . S
C1741 C1740 1.377 . S
C1741 C1747 1.390 . S
C1742 H1733 0.930 . S
C1742 C1740 1.384 . S
C1742 C1743 1.372 . S
C1743 C1742 1.372 . S
C1743 C1744 1.400 . S
C1743 C1748 1.490 . S
C1744 H1734 0.930 . S
C1744 C1743 1.400 . S
C1744 C1747 1.386 . S
H1745 C1761 0.930 . S
H1746 C1762 0.931 . S
C1747 H1735 0.929 . S
C1747 C1741 1.390 . S
C1747 C1744 1.386 . S
C1748 C1743 1.490 . S
C1748 C1750 1.395 . S
C1748 C1751 1.403 . S
H1749 C1755 0.930 . S
C1750 H1736 0.930 . S
C1750 C1748 1.395 . S
C1750 C1753 1.403 . S
C1751 C1748 1.403 . S
C1751 C1752 1.524 . S
C1751 C1755 1.400 . S
C1752 H1737 0.960 . S
C1752 H1738 0.960 . S
C1752 H1739 0.960 . S
C1752 C1751 1.524 . S
C1753 C1750 1.403 . S
C1753 C1754 1.392 . S
C1753 C1757 1.495 . S
C1754 C1753 1.392 . S
C1754 C1755 1.385 . S
C1754 C1756 1.478 . S
C1755 H1749 0.930 . S
C1755 C1751 1.400 . S
C1755 C1754 1.385 . S
C1756 C1754 1.478 . S
C1756 C1758 1.381 . S
C1756 C1762 1.383 . S
C1757 C1753 1.495 . S
C1757 H1763 0.959 . S
C1757 H1764 0.961 . S
C1757 H1765 0.960 . S
C1758 C1756 1.381 . S
C1758 C1759 1.394 . S
C1758 H1766 0.930 . S
C1759 C1758 1.394 . S
C1759 C1760 1.383 . S
C1759 H1767 0.929 . S
C1760 C1759 1.383 . S
C1760 C1761 1.377 . S
C1761 H1745 0.930 . S
C1761 C1760 1.377 . S
C1761 C1762 1.379 . S
C1762 H1746 0.931 . S
C1762 C1756 1.383 . S
C1762 C1761 1.379 . S
H1763 C1757 0.959 . S
H1764 C1757 0.961 . S
H1765 C1757 0.960 . S
H1766 C1758 0.930 . S
H1767 C1759 0.929 . S
H1768 C1776 0.929 . S
H1769 C1778 0.930 . S
H1770 C1780 0.930 . S
H1771 C1783 0.929 . S
H1772 C1786 0.930 . S
H1773 C1788 0.960 . S
H1774 C1788 0.960 . S
H1775 C1788 0.960 . S
C1776 H1768 0.929 . S
C1776 C1777 1.377 . S
C1776 C1778 1.384 . S
C1777 C1776 1.377 . S
C1777 C1783 1.390 . S
C1778 H1769 0.930 . S
C1778 C1776 1.384 . S
C1778 C1779 1.372 . S
C1779 C1778 1.372 . S
C1779 C1780 1.400 . S
C1779 C1784 1.490 . S
C1780 H1770 0.930 . S
C1780 C1779 1.400 . S
C1780 C1783 1.386 . S
H1781 C1797 0.930 . S
H1782 C1798 0.931 . S
C1783 H1771 0.929 . S
C1783 C1777 1.390 . S
C1783 C1780 1.386 . S
C1784 C1779 1.490 . S
C1784 C1786 1.395 . S
C1784 C1787 1.403 . S
H1785 C1791 0.930 . S
C1786 H1772 0.930 . S
C1786 C1784 1.395 . S
C1786 C1789 1.403 . S
C1787 C1784 1.403 . S
C1787 C1788 1.524 . S
C1787 C1791 1.400 . S
C1788 H1773 0.960 . S
C1788 H1774 0.960 . S
C1788 H1775 0.960 . S
C1788 C1787 1.524 . S
C1789 C1786 1.403 . S
C1789 C1790 1.392 . S
C1789 C1793 1.495 . S
C1790 C1789 1.392 . S
C1790 C1791 1.385 . S
C1790 C1792 1.478 . S
C1791 H1785 0.930 . S
C1791 C1787 1.400 . S
C1791 C1790 1.385 . S
C1792 C1790 1.478 . S
C1792 C1794 1.381 . S
C1792 C1798 1.383 . S
C1793 C1789 1.495 . S
C1793 H1799 0.959 . S
C1793 H1800 0.961 . S
C1793 H1801 0.960 . S
C1794 C1792 1.381 . S
C1794 C1795 1.394 . S
C1794 H1802 0.930 . S
C1795 C1794 1.394 . S
C1795 C1796 1.383 . S
C1795 H1803 0.929 . S
C1796 C1795 1.383 . S
C1796 C1797 1.377 . S
C1797 H1781 0.930 . S
C1797 C1796 1.377 . S
C1797 C1798 1.379 . S
C1798 H1782 0.931 . S
C1798 C1792 1.383 . S
C1798 C1797 1.379 . S
H1799 C1793 0.959 . S
H1800 C1793 0.961 . S
H1801 C1793 0.960 . S
H1802 C1794 0.930 . S
H1803 C1795 0.929 . S
H1804 C1812 0.929 . S
H1805 C1814 0.930 . S
H1806 C1816 0.930 . S
H1807 C1819 0.929 . S
H1808 C1822 0.930 . S
H1809 C1824 0.960 . S
H1810 C1824 0.960 . S
H1811 C1824 0.960 . S
C1812 H1804 0.929 . S
C1812 C1813 1.377 . S
C1812 C1814 1.384 . S
C1813 C1812 1.377 . S
C1813 C1819 1.390 . S
C1814 H1805 0.930 . S
C1814 C1812 1.384 . S
C1814 C1815 1.372 . S
C1815 C1814 1.372 . S
C1815 C1816 1.400 . S
C1815 C1820 1.490 . S
C1816 H1806 0.930 . S
C1816 C1815 1.400 . S
C1816 C1819 1.386 . S
H1817 C1833 0.930 . S
H1818 C1834 0.931 . S
C1819 H1807 0.929 . S
C1819 C1813 1.390 . S
C1819 C1816 1.386 . S
C1820 C1815 1.490 . S
C1820 C1822 1.395 . S
C1820 C1823 1.403 . S
H1821 C1827 0.930 . S
C1822 H1808 0.930 . S
C1822 C1820 1.395 . S
C1822 C1825 1.403 . S
C1823 C1820 1.403 . S
C1823 C1824 1.524 . S
C1823 C1827 1.400 . S
C1824 H1809 0.960 . S
C1824 H1810 0.960 . S
C1824 H1811 0.960 . S
C1824 C1823 1.524 . S
C1825 C1822 1.403 . S
C1825 C1826 1.392 . S
C1825 C1829 1.495 . S
C1826 C1825 1.392 . S
C1826 C1827 1.385 . S
C1826 C1828 1.478 . S
C1827 H1821 0.930 . S
C1827 C1823 1.400 . S
C1827 C1826 1.385 . S
C1828 C1826 1.478 . S
C1828 C1830 1.381 . S
C1828 C1834 1.383 . S
C1829 C1825 1.495 . S
C1829 H1835 0.959 . S
C1829 H1836 0.961 . S
C1829 H1837 0.960 . S
C1830 C1828 1.381 . S
C1830 C1831 1.394 . S
C1830 H1838 0.930 . S
C1831 C1830 1.394 . S
C1831 C1832 1.383 . S
C1831 H1839 0.929 . S
C1832 C1831 1.383 . S
C1832 C1833 1.377 . S
C1833 H1817 0.930 . S
C1833 C1832 1.377 . S
C1833 C1834 1.379 . S
C1834 H1818 0.931 . S
C1834 C1828 1.383 . S
C1834 C1833 1.379 . S
H1835 C1829 0.959 . S
H1836 C1829 0.961 . S
H1837 C1829 0.960 . S
H1838 C1830 0.930 . S
H1839 C1831 0.929 . S
H1840 C1848 0.929 . S
H1841 C1850 0.930 . S
H1842 C1852 0.930 . S
H1843 C1855 0.929 . S
H1844 C1858 0.930 . S
H1845 C1860 0.960 . S
H1846 C1860 0.960 . S
H1847 C1860 0.960 . S
C1848 H1840 0.929 . S
C1848 C1849 1.377 . S
C1848 C1850 1.384 . S
C1849 C1848 1.377 . S
C1849 C1855 1.390 . S
C1850 H1841 0.930 . S
C1850 C1848 1.384 . S
C1850 C1851 1.372 . S
C1851 C1850 1.372 . S
C1851 C1852 1.400 . S
C1851 C1856 1.490 . S
C1852 H1842 0.930 . S
C1852 C1851 1.400 . S
C1852 C1855 1.386 . S
H1853 C1869 0.930 . S
H1854 C1870 0.931 . S
C1855 H1843 0.929 . S
C1855 C1849 1.390 . S
C1855 C1852 1.386 . S
C1856 C1851 1.490 . S
C1856 C1858 1.395 . S
C1856 C1859 1.403 . S
H1857 C1863 0.930 . S
C1858 H1844 0.930 . S
C1858 C1856 1.395 . S
C1858 C1861 1.403 . S
C1859 C1856 1.403 . S
C1859 C1860 1.524 . S
C1859 C1863 1.400 . S
C1860 H1845 0.960 . S
C1860 H1846 0.960 . S
C1860 H1847 0.960 . S
C1860 C1859 1.524 . S
C1861 C1858 1.403 . S
C1861 C1862 1.392 . S
C1861 C1865 1.495 . S
C1862 C1861 1.392 . S
C1862 C1863 1.385 . S
C1862 C1864 1.478 . S
C1863 H1857 0.930 . S
C1863 C1859 1.400 . S
C1863 C1862 1.385 . S
C1864 C1862 1.478 . S
C1864 C1866 1.381 . S
C1864 C1870 1.383 . S
C1865 C1861 1.495 . S
C1865 H1871 0.959 . S
C1865 H1872 0.961 . S
C1865 H1873 0.960 . S
C1866 C1864 1.381 . S
C1866 C1867 1.394 . S
C1866 H1874 0.930 . S
C1867 C1866 1.394 . S
C1867 C1868 1.383 . S
C1867 H1875 0.929 . S
C1868 C1867 1.383 . S
C1868 C1869 1.377 . S
C1869 H1853 0.930 . S
C1869 C1868 1.377 . S
C1869 C1870 1.379 . S
C1870 H1854 0.931 . S
C1870 C1864 1.383 . S
C1870 C1869 1.379 . S
H1871 C1865 0.959 . S
H1872 C1865 0.961 . S
H1873 C1865 0.960 . S
H1874 C1866 0.930 . S
H1875 C1867 0.929 . S
H1876 C1884 0.929 . S
H1877 C1886 0.930 . S
H1878 C1888 0.930 . S
H1879 C1891 0.929 . S
H1880 C1894 0.930 . S
H1881 C1896 0.960 . S
H1882 C1896 0.960 . S
H1883 C1896 0.960 . S
C1884 H1876 0.929 . S
C1884 C1885 1.377 . S
C1884 C1886 1.384 . S
C1885 C1884 1.377 . S
C1885 C1891 1.390 . S
C1886 H1877 0.930 . S
C1886 C1884 1.384 . S
C1886 C1887 1.372 . S
C1887 C1886 1.372 . S
C1887 C1888 1.400 . S
C1887 C1892 1.490 . S
C1888 H1878 0.930 . S
C1888 C1887 1.400 . S
C1888 C1891 1.386 . S
H1889 C1905 0.930 . S
H1890 C1906 0.931 . S
C1891 H1879 0.929 . S
C1891 C1885 1.390 . S
C1891 C1888 1.386 . S
C1892 C1887 1.490 . S
C1892 C1894 1.395 . S
C1892 C1895 1.403 . S
H1893 C1899 0.930 . S
C1894 H1880 0.930 . S
C1894 C1892 1.395 . S
C1894 C1897 1.403 . S
C1895 C1892 1.403 . S
C1895 C1896 1.524 . S
C1895 C1899 1.400 . S
C1896 H1881 0.960 . S
C1896 H1882 0.960 . S
C1896 H1883 0.960 . S
C1896 C1895 1.524 . S
C1897 C1894 1.403 . S
C1897 C1898 1.392 . S
C1897 C1901 1.495 . S
C1898 C1897 1.392 . S
C1898 C1899 1.385 . S
C1898 C1900 1.478 . S
C1899 H1893 0.930 . S
C1899 C1895 1.400 . S
C1899 C1898 1.385 . S
C1900 C1898 1.478 . S
C1900 C1902 1.381 . S
C1900 C1906 1.383 . S
C1901 C1897 1.495 . S
C1901 H1907 0.959 . S
C1901 H1908 0.961 . S
C1901 H1909 0.960 . S
C1902 C1900 1.381 . S
C1902 C1903 1.394 . S
C1902 H1910 0.930 . S
C1903 C1902 1.394 . S
C1903 C1904 1.383 . S
C1903 H1911 0.929 . S
C1904 C1903 1.383 . S
C1904 C1905 1.377 . S
C1905 H1889 0.930 . S
C1905 C1904 1.377 . S
C1905 C1906 1.379 . S
C1906 H1890 0.931 . S
C1906 C1900 1.383 . S
C1906 C1905 1.379 . S
H1907 C1901 0.959 . S
H1908 C1901 0.961 . S
H1909 C1901 0.960 . S
H1910 C1902 0.930 . S
H1911 C1903 0.929 . S
H1912 C1920 0.929 . S
H1913 C1922 0.930 . S
H1914 C1924 0.930 . S
H1915 C1927 0.929 . S
H1916 C1930 0.930 . S
H1917 C1932 0.960 . S
H1918 C1932 0.960 . S
H1919 C1932 0.960 . S
C1920 H1912 0.929 . S
C1920 C1921 1.377 . S
C1920 C1922 1.384 . S
C1921 C1920 1.377 . S
C1921 C1927 1.390 . S
C1922 H1913 0.930 . S
C1922 C1920 1.384 . S
C1922 C1923 1.372 . S
C1923 C1922 1.372 . S
C1923 C1924 1.400 . S
C1923 C1928 1.490 . S
C1924 H1914 0.930 . S
C1924 C1923 1.400 . S
C1924 C1927 1.386 . S
H1925 C1941 0.930 . S
H1926 C1942 0.931 . S
C1927 H1915 0.929 . S
C1927 C1921 1.390 . S
C1927 C1924 1.386 . S
C1928 C1923 1.490 . S
C1928 C1930 1.395 . S
C1928 C1931 1.403 . S
H1929 C1935 0.930 . S
C1930 H1916 0.930 . S
C1930 C1928 1.395 . S
C1930 C1933 1.403 . S
C1931 C1928 1.403 . S
C1931 C1932 1.524 . S
C1931 C1935 1.400 . S
C1932 H1917 0.960 . S
C1932 H1918 0.960 . S
C1932 H1919 0.960 . S
C1932 C1931 1.524 . S
C1933 C1930 1.403 . S
C1933 C1934 1.392 . S
C1933 C1937 1.495 . S
C1934 C1933 1.392 . S
C1934 C1935 1.385 . S
C1934 C1936 1.478 . S
C1935 H1929 0.930 . S
C1935 C1931 1.400 . S
C1935 C1934 1.385 . S
C1936 C1934 1.478 . S
C1936 C1938 1.381 . S
C1936 C1942 1.383 . S
C1937 C1933 1.495 . S
C1937 H1943 0.959 . S
C1937 H1944 0.961 . S
C1937 H1945 0.960 . S
C1938 C1936 1.381 . S
C1938 C1939 1.394 . S
C1938 H1946 0.930 . S
C1939 C1938 1.394 . S
C1939 C1940 1.383 . S
C1939 H1947 0.929 . S
C1940 C1939 1.383 . S
C1940 C1941 1.377 . S
C1941 H1925 0.930 . S
C1941 C1940 1.377 . S
C1941 C1942 1.379 . S
C1942 H1926 0.931 . S
C1942 C1936 1.383 . S
C1942 C1941 1.379 . S
H1943 C1937 0.959 . S
H1944 C1937 0.961 . S
H1945 C1937 0.960 . S
H1946 C1938 0.930 . S
H1947 C1939 0.929 . S
H1948 C1956 0.929 . S
H1949 C1958 0.930 . S
H1950 C1960 0.930 . S
H1951 C1963 0.929 . S
H1952 C1966 0.930 . S
H1953 C1968 0.960 . S
H1954 C1968 0.960 . S
H1955 C1968 0.960 . S
C1956 H1948 0.929 . S
C1956 C1957 1.377 . S
C1956 C1958 1.384 . S
C1957 C1956 1.377 . S
C1957 C1963 1.390 . S
C1958 H1949 0.930 . S
C1958 C1956 1.384 . S
C1958 C1959 1.372 . S
C1959 C1958 1.372 . S
C1959 C1960 1.400 . S
C1959 C1964 1.490 . S
C1960 H1950 0.930 . S
C1960 C1959 1.400 . S
C1960 C1963 1.386 . S
H1961 C1977 0.930 . S
H1962 C1978 0.931 . S
C1963 H1951 0.929 . S
C1963 C1957 1.390 . S
C1963 C1960 1.386 . S
C1964 C1959 1.490 . S
C1964 C1966 1.395 . S
C1964 C1967 1.403 . S
H1965 C1971 0.930 . S
C1966 H1952 0.930 . S
C1966 C1964 1.395 . S
C1966 C1969 1.403 . S
C1967 C1964 1.403 . S
C1967 C1968 1.524 . S
C1967 C1971 1.400 . S
C1968 H1953 0.960 . S
C1968 H1954 0.960 . S
C1968 H1955 0.960 . S
C1968 C1967 1.524 . S
C1969 C1966 1.403 . S
C1969 C1970 1.392 . S
C1969 C1973 1.495 . S
C1970 C1969 1.392 . S
C1970 C1971 1.385 . S
C1970 C1972 1.478 . S
C1971 H1965 0.930 . S
C1971 C1967 1.400 . S
C1971 C1970 1.385 . S
C1972 C1970 1.478 . S
C1972 C1974 1.381 . S
C1972 C1978 1.383 . S
C1973 C1969 1.495 . S
C1973 H1979 0.959 . S
C1973 H1980 0.961 . S
C1973 H1981 0.960 . S
C1974 C1972 1.381 . S
C1974 C1975 1.394 . S
C1974 H1982 0.930 . S
C1975 C1974 1.394 . S
C1975 C1976 1.383 . S
C1975 H1983 0.929 . S
C1976 C1975 1.383 . S
C1976 C1977 1.377 . S
C1977 H1961 0.930 . S
C1977 C1976 1.377 . S
C1977 C1978 1.379 . S
C1978 H1962 0.931 . S
C1978 C1972 1.383 . S
C1978 C1977 1.379 . S
H1979 C1973 0.959 . S
H1980 C1973 0.961 . S
H1981 C1973 0.960 . S
H1982 C1974 0.930 . S
H1983 C1975 0.929 . S
H1984 C1992 0.929 . S
H1985 C1994 0.930 . S
H1986 C1996 0.930 . S
H1987 C1999 0.929 . S
H1988 C2002 0.930 . S
H1989 C2004 0.960 . S
H1990 C2004 0.960 . S
H1991 C2004 0.960 . S
C1992 H1984 0.929 . S
C1992 C1993 1.377 . S
C1992 C1994 1.384 . S
C1993 C1992 1.377 . S
C1993 C1999 1.390 . S
C1994 H1985 0.930 . S
C1994 C1992 1.384 . S
C1994 C1995 1.372 . S
C1995 C1994 1.372 . S
C1995 C1996 1.400 . S
C1995 C2000 1.490 . S
C1996 H1986 0.930 . S
C1996 C1995 1.400 . S
C1996 C1999 1.386 . S
H1997 C2013 0.930 . S
H1998 C2014 0.931 . S
C1999 H1987 0.929 . S
C1999 C1993 1.390 . S
C1999 C1996 1.386 . S
C2000 C1995 1.490 . S
C2000 C2002 1.395 . S
C2000 C2003 1.403 . S
H2001 C2007 0.930 . S
C2002 H1988 0.930 . S
C2002 C2000 1.395 . S
C2002 C2005 1.403 . S
C2003 C2000 1.403 . S
C2003 C2004 1.524 . S
C2003 C2007 1.400 . S
C2004 H1989 0.960 . S
C2004 H1990 0.960 . S
C2004 H1991 0.960 . S
C2004 C2003 1.524 . S
C2005 C2002 1.403 . S
C2005 C2006 1.392 . S
C2005 C2009 1.495 . S
C2006 C2005 1.392 . S
C2006 C2007 1.385 . S
C2006 C2008 1.478 . S
C2007 H2001 0.930 . S
C2007 C2003 1.400 . S
C2007 C2006 1.385 . S
C2008 C2006 1.478 . S
C2008 C2010 1.381 . S
C2008 C2014 1.383 . S
C2009 C2005 1.495 . S
C2009 H2015 0.959 . S
C2009 H2016 0.961 . S
C2009 H2017 0.960 . S
C2010 C2008 1.381 . S
C2010 C2011 1.394 . S
C2010 H2018 0.930 . S
C2011 C2010 1.394 . S
C2011 C2012 1.383 . S
C2011 H2019 0.929 . S
C2012 C2011 1.383 . S
C2012 C2013 1.377 . S
C2013 H1997 0.930 . S
C2013 C2012 1.377 . S
C2013 C2014 1.379 . S
C2014 H1998 0.931 . S
C2014 C2008 1.383 . S
C2014 C2013 1.379 . S
H2015 C2009 0.959 . S
H2016 C2009 0.961 . S
H2017 C2009 0.960 . S
H2018 C2010 0.930 . S
H2019 C2011 0.929 . S
H2020 C2028 0.929 . S
H2021 C2030 0.930 . S
H2022 C2032 0.930 . S
H2023 C2035 0.929 . S
H2024 C2038 0.930 . S
H2025 C2040 0.960 . S
H2026 C2040 0.960 . S
H2027 C2040 0.960 . S
C2028 H2020 0.929 . S
C2028 C2029 1.377 . S
C2028 C2030 1.384 . S
C2029 C2028 1.377 . S
C2029 C2035 1.390 . S
C2030 H2021 0.930 . S
C2030 C2028 1.384 . S
C2030 C2031 1.372 . S
C2031 C2030 1.372 . S
C2031 C2032 1.400 . S
C2031 C2036 1.490 . S
C2032 H2022 0.930 . S
C2032 C2031 1.400 . S
C2032 C2035 1.386 . S
H2033 C2049 0.930 . S
H2034 C2050 0.931 . S
C2035 H2023 0.929 . S
C2035 C2029 1.390 . S
C2035 C2032 1.386 . S
C2036 C2031 1.490 . S
C2036 C2038 1.395 . S
C2036 C2039 1.403 . S
H2037 C2043 0.930 . S
C2038 H2024 0.930 . S
C2038 C2036 1.395 . S
C2038 C2041 1.403 . S
C2039 C2036 1.403 . S
C2039 C2040 1.524 . S
C2039 C2043 1.400 . S
C2040 H2025 0.960 . S
C2040 H2026 0.960 . S
C2040 H2027 0.960 . S
C2040 C2039 1.524 . S
C2041 C2038 1.403 . S
C2041 C2042 1.392 . S
C2041 C2045 1.495 . S
C2042 C2041 1.392 . S
C2042 C2043 1.385 . S
C2042 C2044 1.478 . S
C2043 H2037 0.930 . S
C2043 C2039 1.400 . S
C2043 C2042 1.385 . S
C2044 C2042 1.478 . S
C2044 C2046 1.381 . S
C2044 C2050 1.383 . S
C2045 C2041 1.495 . S
C2045 H2051 0.959 . S
C2045 H2052 0.961 . S
C2045 H2053 0.960 . S
C2046 C2044 1.381 . S
C2046 C2047 1.394 . S
C2046 H2054 0.930 . S
C2047 C2046 1.394 . S
C2047 C2048 1.383 . S
C2047 H2055 0.929 . S
C2048 C2047 1.383 . S
C2048 C2049 1.377 . S
C2049 H2033 0.930 . S
C2049 C2048 1.377 . S
C2049 C2050 1.379 . S
C2050 H2034 0.931 . S
C2050 C2044 1.383 . S
C2050 C2049 1.379 . S
H2051 C2045 0.959 . S
H2052 C2045 0.961 . S
H2053 C2045 0.960 . S
H2054 C2046 0.930 . S
H2055 C2047 0.929 . S
H2056 C2064 0.929 . S
H2057 C2066 0.930 . S
H2058 C2068 0.930 . S
H2059 C2071 0.929 . S
H2060 C2074 0.930 . S
H2061 C2076 0.960 . S
H2062 C2076 0.960 . S
H2063 C2076 0.960 . S
C2064 H2056 0.929 . S
C2064 C2065 1.377 . S
C2064 C2066 1.384 . S
C2065 C2064 1.377 . S
C2065 C2071 1.390 . S
C2066 H2057 0.930 . S
C2066 C2064 1.384 . S
C2066 C2067 1.372 . S
C2067 C2066 1.372 . S
C2067 C2068 1.400 . S
C2067 C2072 1.490 . S
C2068 H2058 0.930 . S
C2068 C2067 1.400 . S
C2068 C2071 1.386 . S
H2069 C2085 0.930 . S
H2070 C2086 0.931 . S
C2071 H2059 0.929 . S
C2071 C2065 1.390 . S
C2071 C2068 1.386 . S
C2072 C2067 1.490 . S
C2072 C2074 1.395 . S
C2072 C2075 1.403 . S
H2073 C2079 0.930 . S
C2074 H2060 0.930 . S
C2074 C2072 1.395 . S
C2074 C2077 1.403 . S
C2075 C2072 1.403 . S
C2075 C2076 1.524 . S
C2075 C2079 1.400 . S
C2076 H2061 0.960 . S
C2076 H2062 0.960 . S
C2076 H2063 0.960 . S
C2076 C2075 1.524 . S
C2077 C2074 1.403 . S
C2077 C2078 1.392 . S
C2077 C2081 1.495 . S
C2078 C2077 1.392 . S
C2078 C2079 1.385 . S
C2078 C2080 1.478 . S
C2079 H2073 0.930 . S
C2079 C2075 1.400 . S
C2079 C2078 1.385 . S
C2080 C2078 1.478 . S
C2080 C2082 1.381 . S
C2080 C2086 1.383 . S
C2081 C2077 1.495 . S
C2081 H2087 0.959 . S
C2081 H2088 0.961 . S
C2081 H2089 0.960 . S
C2082 C2080 1.381 . S
C2082 C2083 1.394 . S
C2082 H2090 0.930 . S
C2083 C2082 1.394 . S
C2083 C2084 1.383 . S
C2083 H2091 0.929 . S
C2084 C2083 1.383 . S
C2084 C2085 1.377 . S
C2085 H2069 0.930 . S
C2085 C2084 1.377 . S
C2085 C2086 1.379 . S
C2086 H2070 0.931 . S
C2086 C2080 1.383 . S
C2086 C2085 1.379 . S
H2087 C2081 0.959 . S
H2088 C2081 0.961 . S
H2089 C2081 0.960 . S
H2090 C2082 0.930 . S
H2091 C2083 0.929 . S
H2092 C2100 0.929 . S
H2093 C2102 0.930 . S
H2094 C2104 0.930 . S
H2095 C2107 0.929 . S
H2096 C2110 0.930 . S
H2097 C2112 0.960 . S
H2098 C2112 0.960 . S
H2099 C2112 0.960 . S
C2100 H2092 0.929 . S
C2100 C2101 1.377 . S
C2100 C2102 1.384 . S
C2101 C2100 1.377 . S
C2101 C2107 1.390 . S
C2102 H2093 0.930 . S
C2102 C2100 1.384 . S
C2102 C2103 1.372 . S
C2103 C2102 1.372 . S
C2103 C2104 1.400 . S
C2103 C2108 1.490 . S
C2104 H2094 0.930 . S
C2104 C2103 1.400 . S
C2104 C2107 1.386 . S
H2105 C2121 0.930 . S
H2106 C2122 0.931 . S
C2107 H2095 0.929 . S
C2107 C2101 1.390 . S
C2107 C2104 1.386 . S
C2108 C2103 1.490 . S
C2108 C2110 1.395 . S
C2108 C2111 1.403 . S
H2109 C2115 0.930 . S
C2110 H2096 0.930 . S
C2110 C2108 1.395 . S
C2110 C2113 1.403 . S
C2111 C2108 1.403 . S
C2111 C2112 1.524 . S
C2111 C2115 1.400 . S
C2112 H2097 0.960 . S
C2112 H2098 0.960 . S
C2112 H2099 0.960 . S
C2112 C2111 1.524 . S
C2113 C2110 1.403 . S
C2113 C2114 1.392 . S
C2113 C2117 1.495 . S
C2114 C2113 1.392 . S
C2114 C2115 1.385 . S
C2114 C2116 1.478 . S
C2115 H2109 0.930 . S
C2115 C2111 1.400 . S
C2115 C2114 1.385 . S
C2116 C2114 1.478 . S
C2116 C2118 1.381 . S
C2116 C2122 1.383 . S
C2117 C2113 1.495 . S
C2117 H2123 0.959 . S
C2117 H2124 0.961 . S
C2117 H2125 0.960 . S
C2118 C2116 1.381 . S
C2118 C2119 1.394 . S
C2118 H2126 0.930 . S
C2119 C2118 1.394 . S
C2119 C2120 1.383 . S
C2119 H2127 0.929 . S
C2120 C2119 1.383 . S
C2120 C2121 1.377 . S
C2121 H2105 0.930 . S
C2121 C2120 1.377 . S
C2121 C2122 1.379 . S
C2122 H2106 0.931 . S
C2122 C2116 1.383 . S
C2122 C2121 1.379 . S
H2123 C2117 0.959 . S
H2124 C2117 0.961 . S
H2125 C2117 0.960 . S
H2126 C2118 0.930 . S
H2127 C2119 0.929 . S
H2128 C2136 0.929 . S
H2129 C2138 0.930 . S
H2130 C2140 0.930 . S
H2131 C2143 0.929 . S
H2132 C2146 0.930 . S
H2133 C2148 0.960 . S
H2134 C2148 0.960 . S
H2135 C2148 0.960 . S
C2136 H2128 0.929 . S
C2136 C2137 1.377 . S
C2136 C2138 1.384 . S
C2137 C2136 1.377 . S
C2137 C2143 1.390 . S
C2138 H2129 0.930 . S
C2138 C2136 1.384 . S
C2138 C2139 1.372 . S
C2139 C2138 1.372 . S
C2139 C2140 1.400 . S
C2139 C2144 1.490 . S
C2140 H2130 0.930 . S
C2140 C2139 1.400 . S
C2140 C2143 1.386 . S
H2141 C2157 0.930 . S
H2142 C2158 0.931 . S
C2143 H2131 0.929 . S
C2143 C2137 1.390 . S
C2143 C2140 1.386 . S
C2144 C2139 1.490 . S
C2144 C2146 1.395 . S
C2144 C2147 1.403 . S
H2145 C2151 0.930 . S
C2146 H2132 0.930 . S
C2146 C2144 1.395 . S
C2146 C2149 1.403 . S
C2147 C2144 1.403 . S
C2147 C2148 1.524 . S
C2147 C2151 1.400 . S
C2148 H2133 0.960 . S
C2148 H2134 0.960 . S
C2148 H2135 0.960 . S
C2148 C2147 1.524 . S
C2149 C2146 1.403 . S
C2149 C2150 1.392 . S
C2149 C2153 1.495 . S
C2150 C2149 1.392 . S
C2150 C2151 1.385 . S
C2150 C2152 1.478 . S
C2151 H2145 0.930 . S
C2151 C2147 1.400 . S
C2151 C2150 1.385 . S
C2152 C2150 1.478 . S
C2152 C2154 1.381 . S
C2152 C2158 1.383 . S
C2153 C2149 1.495 . S
C2153 H2159 0.959 . S
C2153 H2160 0.961 . S
C2153 H2161 0.960 . S
C2154 C2152 1.381 . S
C2154 C2155 1.394 . S
C2154 H2162 0.930 . S
C2155 C2154 1.394 . S
C2155 C2156 1.383 . S
C2155 H2163 0.929 . S
C2156 C2155 1.383 . S
C2156 C2157 1.377 . S
C2157 H2141 0.930 . S
C2157 C2156 1.377 . S
C2157 C2158 1.379 . S
C2158 H2142 0.931 . S
C2158 C2152 1.383 . S
C2158 C2157 1.379 . S
H2159 C2153 0.959 . S
H2160 C2153 0.961 . S
H2161 C2153 0.960 . S
H2162 C2154 0.930 . S
H2163 C2155 0.929 . S
C464 C288 1.807 . S
C445 N2 1.797 . S
C500 C315 2.469 . S
C481 C7 2.464 . S
C536 C325 1.799 . S
C517 N12 1.725 . S
C553 C16 2.034 . S
C572 C355 2.074 . S
C608 C374 2.177 . S
C589 C30 2.164 . S
C644 C385 1.681 . S
C625 N35 1.643 . S
C661 C39 2.489 . S
C680 C414 2.486 . S
C716 C428 1.649 . S
C697 N25 1.589 . S
C752 C280 1.129 . S
C733 N58 1.135 . S
C769 N81 1.460 . S
C788 C308 1.512 . S
C824 C334 1.609 . S
C805 N104 1.522 . S
C841 N127 0.944 . S
C860 C348 0.960 . S
C896 C358 0.573 . S
C877 N48 0.587 . S
C932 C394 1.885 . S
C913 N71 1.852 . S
C949 N94 1.117 . S
C968 C398 1.111 . S
C1004 C420 1.320 . S
C985 N117 1.371 . S
C1021 C85 2.229 . S
C1040 C295 2.267 . S
C1057 C122 1.224 . S
C1076 C365 1.211 . S
C1093 C53 1.569 . S
C1112 C378 1.544 . S
C1148 C405 1.876 . S
C1129 C76 1.891 . S
C1184 C435 2.045 . S
C1165 C99 2.036 . S
C1220 C318 1.673 . S
C1201 C131 1.701 . S
C1256 C340 0.739 . S
C1237 C62 0.726 . S
C1273 C108 1.391 . S
C1292 C300 1.371 . S
C1328 C425 1.886 . S
C1309 N140 1.871 . S
C1345 C145 2.116 . S
C1364 C375 2.121 . S
C1400 C388 1.733 . S
C1381 N150 1.661 . S
C1417 C154 2.380 . S
C1436 C415 2.421 . S
C1472 C314 2.519 . S
C1453 C168 2.509 . S
C1489 N173 1.543 . S
C1508 C328 1.542 . S
C1544 C354 2.128 . S
C1525 C177 2.129 . S
C1580 C285 1.753 . S
C1561 N163 1.660 . S
C1616 C434 2.071 . S
C1597 C200 2.080 . S
C1652 C368 1.212 . S
C1633 N219 1.181 . S
C1669 N242 1.317 . S
C1688 C380 1.379 . S
C1724 C408 1.896 . S
C1705 C269 1.894 . S
C1760 C298 1.494 . S
C1741 C191 1.478 . S
C1777 N209 1.580 . S
C1796 C320 1.556 . S
C1813 N232 0.809 . S
C1832 C338 0.775 . S
C1849 C260 2.344 . S
C1868 C294 2.358 . S
C1885 C223 1.478 . S
C1904 C418 1.409 . S
C1921 N255 1.424 . S
C1940 C305 1.476 . S
C1957 N186 1.471 . S
C1976 C335 1.564 . S
C2012 C345 0.938 . S
C1993 C214 0.944 . S
C2048 C278 1.284 . S
C2029 C237 1.347 . S
C2084 C395 1.778 . S
C2065 N265 1.726 . S
C2120 C400 1.010 . S
C2101 N196 1.023 . S
C2156 C360 0.422 . S
C2137 C246 0.453 . S
