# Generated by pormake.
# Topology nia, (6,6)-cn, num edge types: 1
# Building blocks:
#     Node 0, Type 0, BuildingBlock: PAMTUU_clean_sbu_0, # of connection points: 6
#     Node 1, Type 0, BuildingBlock: PAMTUU_clean_sbu_0, # of connection points: 6
#     Node 2, Type 1, BuildingBlock: MIDCAF_clean_sbu_0, # of connection points: 6
#     Node 3, Type 1, BuildingBlock: MIDCAF_clean_sbu_0, # of connection points: 6
#     Edge 4, Type (0, 1), BuildingBlock: TEMPAE_clean_linker_10, # of connection points: 2
#     Edge 5, Type (0, 1), BuildingBlock: TEMPAE_clean_linker_10, # of connection points: 2
#     Edge 6, Type (0, 1), BuildingBlock: TEMPAE_clean_linker_10, # of connection points: 2
#     Edge 7, Type (0, 1), BuildingBlock: TEMPAE_clean_linker_10, # of connection points: 2
#     Edge 8, Type (0, 1), BuildingBlock: TEMPAE_clean_linker_10, # of connection points: 2
#     Edge 9, Type (0, 1), BuildingBlock: TEMPAE_clean_linker_10, # of connection points: 2
#     Edge 10, Type (0, 1), BuildingBlock: TEMPAE_clean_linker_10, # of connection points: 2
#     Edge 11, Type (0, 1), BuildingBlock: TEMPAE_clean_linker_10, # of connection points: 2
#     Edge 12, Type (0, 1), BuildingBlock: TEMPAE_clean_linker_10, # of connection points: 2
#     Edge 13, Type (0, 1), BuildingBlock: TEMPAE_clean_linker_10, # of connection points: 2
#     Edge 14, Type (0, 1), BuildingBlock: TEMPAE_clean_linker_10, # of connection points: 2
#     Edge 15, Type (0, 1), BuildingBlock: TEMPAE_clean_linker_10, # of connection points: 2
# Relax obj value: 0.295
# Max RMSD: 0.265
# Mean RMSD: 0.239
data_MOF--net-nia--node1-PAMTUU_clean_sbu_0--node2-MIDCAF_clean_sbu_0--edge1-TEMPAE_clean_linker_10
_symmetry_space_group_name_H-M    P1
_symmetry_Int_Tables_number       1
_symmetry_cell_setting            triclinic
loop_
_symmetry_equiv_pos_as_xyz
'x, y, z'
_cell_length_a     25.297847
_cell_length_b     28.923873
_cell_length_c     34.521492
_cell_angle_alpha  70.131784
_cell_angle_beta   102.28856
_cell_angle_gamma 127.78047
loop_
_atom_site_label
_atom_site_type_symbol
_atom_site_fract_x
_atom_site_fract_y
_atom_site_fract_z
_atom_type_partial_charge
Tb0 Tb 0.97241 0.93397 1.01895 0.0
Tb1 Tb 0.06507 0.02726 0.07653 0.0
C2 C 0.12384 0.03815 1.00057 0.0
C3 C 0.92194 0.84123 0.94839 0.0
C4 C 0.93961 0.78557 0.90484 0.0
C5 C 0.90399 0.81046 0.88691 0.0
C6 C 0.89495 0.8379 0.90869 0.0
C7 C 0.96165 0.82022 0.96511 0.0
C8 C 0.96989 0.79205 0.94359 0.0
C9 C 0.90642 0.86482 0.97235 0.0
O10 O 0.04062 0.91175 0.05173 0.0
O11 O 0.05728 0.94398 0.10803 0.0
O12 O 0.9632 0.9808 0.09418 0.0
O13 O 0.91421 0.89429 0.07438 0.0
O14 O 0.1461 0.11389 0.08231 0.0
O15 O 0.08974 0.04079 0.13565 0.0
O16 O 0.03002 0.07229 1.02505 0.0
O17 O 0.93561 -0.01243 1.00811 0.0
O18 O 0.06342 0.01126 0.98469 0.0
O19 O 0.1335 0.03802 0.03947 0.0
C20 C 0.05873 0.91117 0.09033 0.0
O21 O 0.90843 0.84551 1.01237 0.0
O22 O 0.93459 0.92303 0.95986 0.0
C23 C 0.91403 0.92366 0.09627 0.0
C24 C 0.1337 0.13977 0.13653 0.0
C25 C 0.14115 0.22236 0.16727 0.0
C26 C 0.13041 0.16838 0.19412 0.0
C27 C 0.12705 0.12764 0.17888 0.0
C28 C 0.14187 0.19254 0.10949 0.0
C29 C 0.14579 0.23345 0.12471 0.0
C30 C 0.13563 0.09877 0.12154 0.0
C31 C 0.97204 0.04555 1.00576 0.0
H32 H 0.87957 0.80517 0.85726 0.0
H33 H 0.8648 0.85449 0.89519 0.0
H34 H 0.9841 0.82339 0.99542 0.0
H35 H 0.99736 0.77288 0.95792 0.0
H36 H 0.12597 0.15819 0.22698 0.0
H37 H 0.12067 0.08719 0.20035 0.0
H38 H 0.14719 0.20327 0.07667 0.0
H39 H 0.15541 0.27511 0.10317 0.0
Tb40 Tb 0.07568 0.98393 0.50966 0.0
Tb41 Tb 0.99164 -0.01265 0.56765 0.0
C42 C 0.07208 0.09455 0.49193 0.0
C43 C 0.18883 0.98433 0.44888 0.0
C44 C 0.25748 0.96297 0.41124 0.0
C45 C 0.26595 0.0187 0.39705 0.0
C46 C 0.23192 0.02927 0.41578 0.0
C47 C 0.18456 0.93061 0.46532 0.0
C48 C 0.21889 0.92012 0.44669 0.0
C49 C 0.13984 -0.01019 0.45927 0.0
O50 O 0.14592 0.0306 0.55524 0.0
O51 O 0.06905 0.98256 0.60523 0.0
O52 O 0.95328 0.89303 0.5802 0.0
O53 O 0.04293 0.90318 0.56156 0.0
O54 O 0.99345 0.00684 0.62098 0.0
O55 O 0.90293 0.96763 0.58466 0.0
O56 O 0.93281 0.97259 0.5113 0.0
O57 O 0.97217 0.93163 0.49016 0.0
O58 O 0.0613 0.05406 0.47629 0.0
O59 O 0.06055 0.08064 0.53109 0.0
C60 C 0.13115 0.01555 0.59387 0.0
O61 O 0.08373 0.94037 0.47619 0.0
O62 O 0.1607 0.03591 0.47219 0.0
C63 C 0.9863 0.87088 0.5815 0.0
C64 C 0.91519 0.02301 0.62795 0.0
C65 C 0.88224 0.07508 0.6652 0.0
C66 C 0.83172 0.02186 0.65316 0.0
C67 C 0.84813 -0.00405 0.63486 0.0
C68 C 0.96562 0.07787 0.63813 0.0
C69 C 0.94923 0.10359 0.65668 0.0
C70 C 0.93143 -0.01188 0.61695 0.0
C71 C 0.92685 0.94051 0.48917 0.0
H72 H 0.29594 0.05271 0.37008 0.0
H73 H 0.23555 0.07088 0.40248 0.0
H74 H 0.15133 0.89511 0.49072 0.0
H75 H 0.2111 0.87654 0.45816 0.0
H76 H 0.77968 -0.00119 0.65951 0.0
H77 H 0.80853 0.95318 0.62784 0.0
H78 H 0.01787 0.09969 0.63332 0.0
H79 H 0.98902 0.14522 0.66504 0.0
Zn80 Zn 0.42522 0.7543 0.1707 0.0
Zn81 Zn 0.33553 0.63329 0.363 0.0
Zn82 Zn 0.37301 0.66684 0.28577 0.0
C83 C 0.47786 0.70041 0.35913 0.0
C84 C 0.27386 0.528 0.3395 0.0
O85 O 0.32835 0.71424 0.24471 0.0
O86 O 0.35182 0.76017 0.17672 0.0
C87 C 0.50233 0.7536 0.24443 0.0
O88 O 0.46561 0.70441 0.3206 0.0
O89 O 0.43035 0.67015 0.38429 0.0
O90 O 0.27281 0.54504 0.36829 0.0
O91 O 0.30996 0.56729 0.30766 0.0
O92 O 0.4659 0.77001 0.22501 0.0
O93 O 0.48005 0.71375 0.2791 0.0
O94 O 0.36367 0.64314 0.2329 0.0
O95 O 0.38541 0.66914 0.16758 0.0
C96 C 0.35764 0.62813 0.20081 0.0
O97 O 0.33557 0.71624 0.2883 0.0
O98 O 0.29935 0.68105 0.35191 0.0
C99 C 0.32 0.743 0.20866 0.0
C100 C 0.30888 0.71618 0.31607 0.0
Zn101 Zn 0.68908 0.30484 0.87794 0.0
Zn102 Zn 0.66276 0.30687 0.72632 0.0
Zn103 Zn 0.6732 0.30235 0.80208 0.0
C104 C 0.72469 0.42302 0.72229 0.0
C105 C 0.53443 0.22227 0.75715 0.0
O106 O 0.725 0.25969 0.83707 0.0
O107 O 0.71413 0.24797 0.90228 0.0
C108 C 0.76873 0.42412 0.8318 0.0
O109 O 0.72551 0.39813 0.76119 0.0
O110 O 0.69112 0.39027 0.69778 0.0
O111 O 0.56729 0.23958 0.72619 0.0
O112 O 0.56431 0.24396 0.7884 0.0
O113 O 0.76266 0.39281 0.86863 0.0
O114 O 0.73517 0.3982 0.80275 0.0
O115 O 0.57159 0.25329 0.82683 0.0
O116 O 0.59719 0.27701 0.8859 0.0
C117 C 0.55385 0.25274 0.85947 0.0
O118 O 0.71969 0.2615 0.79511 0.0
O119 O 0.72729 0.28954 0.72725 0.0
C120 C 0.7335 0.24015 0.8758 0.0
C121 C 0.74006 0.26536 0.76224 0.0
C122 C 0.11306 0.86204 0.09194 0.0
C123 C 0.08642 0.87679 0.11337 0.0
C124 C 0.14495 0.83435 0.11293 0.0
C125 C 0.14942 0.82014 0.15649 0.0
C126 C 0.11966 0.83211 0.17846 0.0
C127 C 0.089 0.86087 0.15659 0.0
C128 C 0.17629 0.82259 0.08828 0.0
C129 C 0.12073 0.81503 0.22494 0.0
C130 C 0.20552 0.71716 0.20313 0.0
C131 C 0.27486 0.76034 0.20396 0.0
C132 C 0.16292 0.73551 0.19011 0.0
C133 C 0.19083 0.79828 0.17821 0.0
C134 C 0.26056 0.84133 0.18252 0.0
C135 C 0.30187 0.82185 0.19469 0.0
C136 C 0.08887 0.68822 0.18631 0.0
C137 C 0.29224 0.90847 0.17155 0.0
H138 H 0.11129 0.87424 0.05856 0.0
H139 H 0.06742 0.87125 0.17334 0.0
H140 H 0.23143 0.85129 0.09241 0.0
H141 H 0.15852 0.77446 0.09953 0.0
H142 H 0.16472 0.83268 0.05486 0.0
H143 H 0.10286 0.83408 0.23722 0.0
H144 H 0.08793 0.76484 0.23701 0.0
H145 H 0.17184 0.83072 0.23694 0.0
H146 H 0.18506 0.66954 0.21023 0.0
H147 H 0.35569 0.85495 0.1956 0.0
H148 H 0.07514 0.69079 0.15329 0.0
H149 H 0.05974 0.6968 0.19895 0.0
H150 H 0.07399 0.64148 0.2025 0.0
H151 H 0.29207 0.92632 0.13756 0.0
H152 H 0.34472 0.93443 0.18282 0.0
H153 H 0.26327 0.91672 0.18471 0.0
C154 C 0.25181 0.08075 0.61368 0.0
C155 C 0.18457 0.03769 0.62527 0.0
C156 C 0.30215 0.10515 0.64287 0.0
C157 C 0.28491 0.08575 0.68476 0.0
C158 C 0.21727 0.04153 0.69682 0.0
C159 C 0.16791 0.01814 0.66694 0.0
C160 C 0.37387 0.15228 0.62875 0.0
C161 C 0.19702 0.01939 0.74116 0.0
C162 C 0.4361 0.12076 0.75277 0.0
C163 C 0.46169 0.17852 0.755 0.0
C164 C 0.37446 0.08673 0.73352 0.0
C165 C 0.33849 0.11185 0.71557 0.0
C166 C 0.36075 0.16723 0.72189 0.0
C167 C 0.42243 0.20006 0.74169 0.0
C168 C 0.35192 0.02728 0.72834 0.0
C169 C 0.32355 0.19529 0.70369 0.0
H170 H 0.26511 0.0963 0.58163 0.0
H171 H 0.11603 -0.01522 0.6763 0.0
H172 H 0.39471 0.19494 0.6363 0.0
H173 H 0.40471 0.13605 0.64521 0.0
H174 H 0.37884 0.16277 0.59508 0.0
H175 H 0.14246 0.98338 0.74571 0.0
H176 H 0.2244 0.0012 0.76125 0.0
H177 H 0.21076 0.05785 0.75152 0.0
H178 H 0.46716 0.10466 0.76267 0.0
H179 H 0.44299 0.24527 0.74288 0.0
H180 H 0.36287 0.03444 0.69651 0.0
H181 H 0.29721 -0.0071 0.733 0.0
H182 H 0.37805 0.00889 0.75018 0.0
H183 H 0.33272 0.2152 0.67003 0.0
H184 H 0.34018 0.23188 0.71746 0.0
H185 H 0.26888 0.16048 0.70818 0.0
C186 C 0.13253 0.30626 0.16111 0.0
C187 C 0.15428 0.27008 0.18335 0.0
C188 C 0.15762 0.36013 0.17007 0.0
C189 C 0.20465 0.37747 0.20245 0.0
C190 C 0.22053 0.33762 0.22813 0.0
C191 C 0.19564 0.2845 0.21802 0.0
C192 C 0.13865 0.40114 0.14242 0.0
C193 C 0.2688 0.35377 0.26381 0.0
C194 C 0.34074 0.54624 0.17963 0.0
C195 C 0.31988 0.56388 0.20257 0.0
C196 C 0.30447 0.48516 0.18047 0.0
C197 C 0.24557 0.44111 0.20444 0.0
C198 C 0.2246 0.45874 0.22797 0.0
C199 C 0.26218 0.52022 0.22668 0.0
C200 C 0.32859 0.46793 0.15511 0.0
C201 C 0.16223 0.41299 0.25391 0.0
H202 H 0.0988 0.2943 0.13515 0.0
H203 H 0.21262 0.25681 0.23558 0.0
H204 H 0.12788 0.41931 0.16082 0.0
H205 H 0.18122 0.44049 0.12189 0.0
H206 H 0.09431 0.37723 0.12292 0.0
H207 H 0.26415 0.31315 0.28586 0.0
H208 H 0.32074 0.38684 0.25196 0.0
H209 H 0.26057 0.37544 0.28058 0.0
H210 H 0.3856 0.58025 0.16114 0.0
H211 H 0.24517 0.53442 0.24344 0.0
H212 H 0.29031 0.44779 0.1316 0.0
H213 H 0.33598 0.43308 0.17512 0.0
H214 H 0.37637 0.50752 0.13916 0.0
H215 H 0.11886 0.38578 0.23512 0.0
H216 H 0.15012 0.43498 0.26775 0.0
H217 H 0.169 0.38087 0.27909 0.0
C218 C 0.901 0.11769 0.72296 0.0
C219 C 0.86513 0.09986 0.6875 0.0
C220 C 0.88575 0.14204 0.74397 0.0
C221 C 0.83377 0.14894 0.72891 0.0
C222 C 0.79636 0.12956 0.69373 0.0
C223 C 0.81246 0.10515 0.67351 0.0
C224 C 0.92536 0.16074 0.78199 0.0
C225 C 0.74067 0.13644 0.67656 0.0
C226 C 0.74807 0.17853 0.78456 0.0
C227 C 0.77555 0.23947 0.76374 0.0
C228 C 0.77071 0.14895 0.7764 0.0
C229 C 0.82192 0.1816 0.74701 0.0
C230 C 0.85438 0.24478 0.72945 0.0
C231 C 0.8303 0.27285 0.7378 0.0
C232 C 0.73504 0.08163 0.79593 0.0
C233 C 0.91001 0.28156 0.69858 0.0
H234 H 0.94083 0.11234 0.73434 0.0
H235 H 0.78486 0.09158 0.64605 0.0
H236 H 0.94777 0.20908 0.77833 0.0
H237 H 0.89148 0.13322 0.80888 0.0
H238 H 0.96595 0.15459 0.78877 0.0
H239 H 0.71433 0.11629 0.65027 0.0
H240 H 0.70359 0.11433 0.70091 0.0
H241 H 0.76136 0.18536 0.66593 0.0
H242 H 0.70551 0.15286 0.80458 0.0
H243 H 0.85163 0.32021 0.72199 0.0
H244 H 0.76999 0.06881 0.80249 0.0
H245 H 0.69614 0.05654 0.77434 0.0
H246 H 0.71003 0.0668 0.82497 0.0
H247 H 0.94755 0.27176 0.70977 0.0
H248 H 0.93575 0.33119 0.69221 0.0
H249 H 0.88903 0.26884 0.66919 0.0
C250 C 0.79674 0.83591 0.12025 0.0
C251 C 0.85567 0.89276 0.12263 0.0
C252 C 0.73978 0.80861 0.14292 0.0
C253 C 0.74185 0.83872 0.16875 0.0
C254 C 0.80208 0.89478 0.17267 0.0
C255 C 0.85809 0.92117 0.14951 0.0
C256 C 0.67653 0.74877 0.13791 0.0
C257 C 0.80663 0.92822 0.20007 0.0
C258 C 0.58136 0.81326 0.18547 0.0
C259 C 0.56287 0.7736 0.22529 0.0
C260 C 0.63887 0.83394 0.1667 0.0
C261 C 0.67951 0.81493 0.18832 0.0
C262 C 0.66127 0.77485 0.22856 0.0
C263 C 0.60302 0.75453 0.24656 0.0
C264 C 0.65653 0.8768 0.12381 0.0
C265 C 0.70364 0.75402 0.25272 0.0
H266 H 0.79437 0.81341 0.09975 0.0
H267 H 0.90355 0.96476 0.15202 0.0
H268 H 0.65649 0.71585 0.16848 0.0
H269 H 0.63781 0.75562 0.12219 0.0
H270 H 0.68465 0.72861 0.1196 0.0
H271 H 0.85865 0.96812 0.20291 0.0
H272 H 0.77474 0.9443 0.18724 0.0
H273 H 0.78771 0.89737 0.23131 0.0
H274 H 0.55102 0.82865 0.16884 0.0
H275 H 0.5893 0.72418 0.27743 0.0
H276 H 0.66088 0.85744 0.1029 0.0
H277 H 0.7058 0.92063 0.12432 0.0
H278 H 0.61877 0.88603 0.11079 0.0
H279 H 0.70957 0.73177 0.23508 0.0
H280 H 0.68176 0.72168 0.28322 0.0
H281 H 0.7544 0.79381 0.25761 0.0
C282 C 0.96917 0.77125 0.59658 0.0
C283 C 0.957 0.8073 0.60615 0.0
C284 C 0.93512 0.70901 0.6173 0.0
C285 C 0.88889 0.68281 0.64869 0.0
C286 C 0.87906 0.71983 0.65975 0.0
C287 C 0.9128 0.7814 0.63818 0.0
C288 C 0.94619 0.67072 0.60431 0.0
C289 C 0.83041 0.69399 0.69299 0.0
C290 C 0.7434 0.51564 0.66986 0.0
C291 C 0.76536 0.4897 0.70525 0.0
C292 C 0.78347 0.57832 0.65095 0.0
C293 C 0.84705 0.61602 0.66795 0.0
C294 C 0.86934 0.59008 0.70386 0.0
C295 C 0.82853 0.52702 0.72175 0.0
C296 C 0.75786 0.60411 0.61265 0.0
C297 C 0.93617 0.62894 0.72332 0.0
H298 H 0.00307 0.79102 0.57177 0.0
H299 H 0.90363 0.80914 0.64608 0.0
H300 H 0.95901 0.64495 0.63143 0.0
H301 H 0.89932 0.63698 0.5908 0.0
H302 H 0.98667 0.6985 0.58121 0.0
H303 H 0.84009 0.73007 0.70451 0.0
H304 H 0.77876 0.67033 0.68035 0.0
H305 H 0.83277 0.66021 0.7193 0.0
H306 H 0.69482 0.48671 0.65675 0.0
H307 H 0.84686 0.50669 0.74792 0.0
H308 H 0.79393 0.62926 0.58713 0.0
H309 H 0.75321 0.63692 0.61843 0.0
H310 H 0.70835 0.56829 0.60252 0.0
H311 H 0.97689 0.65281 0.70113 0.0
H312 H 0.94559 0.60199 0.7517 0.0
H313 H 0.93843 0.66422 0.73117 0.0
C314 C 0.30882 0.9145 0.40504 0.0
C315 C 0.28036 0.94574 0.38613 0.0
C316 C 0.31857 0.88775 0.38285 0.0
C317 C 0.29846 0.89169 0.34091 0.0
C318 C 0.27515 0.92766 0.32082 0.0
C319 C 0.26625 0.95419 0.34373 0.0
C320 C 0.34603 0.85163 0.40516 0.0
C321 C 0.2545 0.93494 0.27609 0.0
C322 C 0.34982 0.82378 0.29489 0.0
C323 C 0.29715 0.7622 0.30868 0.0
C324 C 0.34839 0.86851 0.30109 0.0
C325 C 0.29276 0.8506 0.32106 0.0
C326 C 0.23559 0.78934 0.32925 0.0
C327 C 0.23897 0.74549 0.3237 0.0
C328 C 0.40891 0.93379 0.29016 0.0
C329 C 0.1734 0.76921 0.34778 0.0
H330 H 0.32091 0.9089 0.43763 0.0
H331 H 0.24406 0.97825 0.32886 0.0
H332 H 0.30553 0.80243 0.4094 0.0
H333 H 0.38592 0.86384 0.38673 0.0
H334 H 0.36685 0.85929 0.43594 0.0
H335 H 0.27239 0.98275 0.2609 0.0
H336 H 0.2737 0.92202 0.25881 0.0
H337 H 0.19912 0.90628 0.27417 0.0
H338 H 0.39466 0.8365 0.28295 0.0
H339 H 0.19791 0.69774 0.33369 0.0
H340 H 0.43799 0.94545 0.31859 0.0
H341 H 0.39368 0.96474 0.27635 0.0
H342 H 0.44199 0.94191 0.26826 0.0
H343 H 0.18329 0.77039 0.38046 0.0
H344 H 0.13044 0.72233 0.34661 0.0
H345 H 0.15938 0.8006 0.33124 0.0
C346 C 0.23957 0.07193 0.99279 0.0
C347 C 0.18174 0.06685 0.97461 0.0
C348 C 0.29508 0.09912 0.96884 0.0
C349 C 0.29361 0.1234 0.92569 0.0
C350 C 0.23498 0.11771 0.90707 0.0
C351 C 0.17943 0.08882 0.9317 0.0
C352 C 0.35592 0.10291 0.98992 0.0
C353 C 0.23182 0.1441 0.86139 0.0
C354 C 0.4682 0.252 0.88415 0.0
C355 C 0.48327 0.22314 0.8678 0.0
C356 C 0.40481 0.22121 0.90021 0.0
C357 C 0.35569 0.15928 0.90114 0.0
C358 C 0.36939 0.13087 0.88243 0.0
C359 C 0.43304 0.1635 0.8655 0.0
C360 C 0.3919 0.25408 0.91845 0.0
C361 C 0.31887 0.06482 0.88308 0.0
H362 H 0.24129 0.05417 1.02584 0.0
H363 H 0.13482 0.08501 0.91748 0.0
H364 H 0.37155 0.08544 0.97414 0.0
H365 H 0.3982 0.15106 0.98804 0.0
H366 H 0.34674 0.07671 1.02289 0.0
H367 H 0.1811 0.13198 0.85116 0.0
H368 H 0.26784 0.19436 0.8536 0.0
H369 H 0.24658 0.12802 0.84373 0.0
H370 H 0.50703 0.29833 0.88568 0.0
H371 H 0.4449 0.14102 0.85316 0.0
H372 H 0.38994 0.23651 0.95251 0.0
H373 H 0.34292 0.2458 0.90773 0.0
H374 H 0.43152 0.30388 0.91025 0.0
H375 H 0.31625 0.03615 0.91471 0.0
H376 H 0.33244 0.05246 0.86159 0.0
H377 H 0.26826 0.05386 0.8749 0.0
C378 C 0.09038 0.16613 0.42157 0.0
C379 C 0.09777 0.1564 0.46454 0.0
C380 C 0.11636 0.22467 0.39497 0.0
C381 C 0.15183 0.27495 0.41165 0.0
C382 C 0.15998 0.26542 0.45498 0.0
C383 C 0.1322 0.20623 0.48089 0.0
C384 C 0.10528 0.23267 0.34909 0.0
C385 C 0.19845 0.31789 0.47405 0.0
C386 C 0.27308 0.43826 0.34919 0.0
C387 C 0.23769 0.46213 0.34627 0.0
C388 C 0.24451 0.3763 0.3685 0.0
C389 C 0.1786 0.33745 0.38426 0.0
C390 C 0.14069 0.36053 0.37762 0.0
C391 C 0.17116 0.42282 0.35945 0.0
C392 C 0.28699 0.35384 0.37528 0.0
C393 C 0.0695 0.32041 0.39243 0.0
H394 H 0.06361 0.12778 0.40866 0.0
H395 H 0.13873 0.19915 0.51397 0.0
H396 H 0.07784 0.25341 0.33724 0.0
H397 H 0.15397 0.26417 0.33295 0.0
H398 H 0.07648 0.18892 0.34099 0.0
H399 H 0.20329 0.30328 0.50802 0.0
H400 H 0.24928 0.35245 0.46061 0.0
H401 H 0.17292 0.34021 0.46706 0.0
H402 H 0.32493 0.46889 0.33963 0.0
H403 H 0.14397 0.44146 0.35738 0.0
H404 H 0.25843 0.30965 0.36799 0.0
H405 H 0.30189 0.34654 0.40823 0.0
H406 H 0.33302 0.3868 0.35629 0.0
H407 H 0.04042 0.27698 0.38394 0.0
H408 H 0.0439 0.34283 0.37942 0.0
H409 H 0.06921 0.30922 0.42651 0.0
C410 C 0.89174 0.05504 0.95383 0.0
C411 C 0.94463 0.07993 0.98165 0.0
C412 C 0.86076 0.08354 0.93287 0.0
C413 C 0.88271 0.13817 0.93999 0.0
C414 C 0.93798 0.16509 0.9666 0.0
C415 C 0.96852 0.1357 0.98709 0.0
C416 C 0.80328 0.05432 0.90389 0.0
C417 C 0.96331 0.22382 0.97446 0.0
C418 C 0.82199 0.23025 0.86777 0.0
C419 C 0.76879 0.21127 0.89021 0.0
C420 C 0.85929 0.2065 0.88318 0.0
C421 C 0.84383 0.16383 0.92243 0.0
C422 C 0.78975 0.14426 0.94503 0.0
C423 C 0.75305 0.1683 0.92867 0.0
C424 C 0.91642 0.22877 0.85795 0.0
C425 C 0.77084 0.09814 0.98668 0.0
H426 H 0.87368 0.01254 0.94876 0.0
H427 H 0.00957 0.15539 1.00832 0.0
H428 H 0.75663 0.03995 0.916 0.0
H429 H 0.81295 0.08778 0.87346 0.0
H430 H 0.79511 0.01404 0.89952 0.0
H431 H 0.0093 0.2409 0.99384 0.0
H432 H 0.97412 0.25911 0.94481 0.0
H433 H 0.92413 0.21695 0.99021 0.0
H434 H 0.83601 0.26523 0.83882 0.0
H435 H 0.71214 0.15378 0.94622 0.0
H436 H 0.91938 0.19134 0.85992 0.0
H437 H 0.96414 0.26356 0.87016 0.0
H438 H 0.91176 0.24969 0.82502 0.0
H439 H 0.75817 0.05525 0.9839 0.0
H440 H 0.72747 0.08776 1.00027 0.0
H441 H 0.8139 0.11527 1.00825 0.0
C442 C 0.81908 0.92309 0.45813 0.0
C443 C 0.86602 0.91048 0.46393 0.0
C444 C 0.75899 0.89119 0.43686 0.0
C445 C 0.74536 0.84519 0.42155 0.0
C446 C 0.79358 0.83387 0.4259 0.0
C447 C 0.85347 0.86683 0.44689 0.0
C448 C 0.709 0.90513 0.43206 0.0
C449 C 0.78066 0.78503 0.41009 0.0
C450 C 0.56165 0.71837 0.41606 0.0
C451 C 0.54759 0.73396 0.37411 0.0
C452 C 0.62645 0.75321 0.43158 0.0
C453 C 0.67823 0.80525 0.40451 0.0
C454 C 0.66497 0.81998 0.36184 0.0
C455 C 0.59965 0.78407 0.34713 0.0
C456 C 0.63907 0.73522 0.47717 0.0
C457 C 0.71891 0.875 0.33197 0.0
H458 H 0.82871 0.95715 0.4708 0.0
H459 H 0.88948 0.8568 0.45108 0.0
H460 H 0.69317 0.91312 0.39937 0.0
H461 H 0.66364 0.86559 0.45031 0.0
H462 H 0.72949 0.94562 0.44251 0.0
H463 H 0.82554 0.78552 0.41275 0.0
H464 H 0.7395 0.73977 0.4279 0.0
H465 H 0.76446 0.7906 0.37736 0.0
H466 H 0.52168 0.67934 0.43696 0.0
H467 H 0.58906 0.79683 0.31473 0.0
H468 H 0.65393 0.77105 0.4911 0.0
H469 H 0.68093 0.73101 0.48229 0.0
H470 H 0.5943 0.69148 0.49356 0.0
H471 H 0.73257 0.91682 0.33737 0.0
H472 H 0.70249 0.87556 0.29937 0.0
H473 H 0.76473 0.87661 0.33684 0.0
C474 C 0.95477 0.76166 0.84653 0.0
C475 C 0.93418 0.74342 0.88686 0.0
C476 C 0.94153 0.71887 0.82822 0.0
C477 C 0.90448 0.65661 0.85036 0.0
C478 C 0.88551 0.63869 0.8916 0.0
C479 C 0.90146 0.68252 0.90945 0.0
C480 C 0.96562 0.73999 0.78511 0.0
C481 C 0.84556 0.57278 0.91646 0.0
C482 C 0.7817 0.52138 0.80896 0.0
C483 C 0.81088 0.49035 0.82362 0.0
C484 C 0.81561 0.58028 0.81267 0.0
C485 C 0.88047 0.60854 0.83061 0.0
C486 C 0.91341 0.5804 0.83969 0.0
C487 C 0.87745 0.52071 0.83709 0.0
C488 C 0.77802 0.60801 0.80305 0.0
C489 C 0.98371 0.61021 0.85678 0.0
H490 H 0.98035 0.80907 0.82928 0.0
H491 H 0.88513 0.66868 0.94054 0.0
H492 H 0.99233 0.7212 0.78395 0.0
H493 H 0.92226 0.72302 0.76386 0.0
H494 H 0.99956 0.79034 0.77384 0.0
H495 H 0.83388 0.56675 0.94782 0.0
H496 H 0.79776 0.54574 0.90041 0.0
H497 H 0.87374 0.55376 0.91964 0.0
H498 H 0.73013 0.49753 0.7984 0.0
H499 H 0.9001 0.49658 0.84782 0.0
H500 H 0.81166 0.65807 0.79066 0.0
H501 H 0.75573 0.59793 0.83186 0.0
H502 H 0.73693 0.58894 0.78052 0.0
H503 H 0.01471 0.66015 0.84308 0.0
H504 H 0.00806 0.59168 0.85104 0.0
H505 H 0.98226 0.60137 0.89057 0.0
loop_
_geom_bond_atom_site_label_1
_geom_bond_atom_site_label_2
_geom_bond_distance
_geom_bond_site_symmetry_2
_ccdc_geom_bond_type
Tb0 C9 2.764 . S
Tb0 O10 2.325 1_656 S
Tb0 O13 2.303 1_556 S
Tb0 O17 2.322 1_565 S
Tb0 O18 2.349 1_665 S
Tb0 O21 2.415 . S
Tb0 O22 2.399 . S
Tb1 O11 2.322 1_545 S
Tb1 O12 2.349 1_445 S
Tb1 O14 2.415 . S
Tb1 O15 2.399 . S
Tb1 O16 2.325 . S
Tb1 O19 2.303 1_554 S
Tb1 C30 2.764 . S
C2 O18 1.261 . S
C2 O19 1.257 . S
C3 C6 1.358 . S
C3 C7 1.332 . S
C3 C9 1.504 . S
C4 C5 1.373 . S
C4 C8 1.308 . S
C5 C4 1.373 . S
C5 C6 1.429 . S
C5 H32 0.932 . S
C6 C3 1.358 . S
C6 C5 1.429 . S
C6 H33 0.930 . S
C7 C3 1.332 . S
C7 C8 1.394 . S
C7 H34 0.932 1_556 S
C8 C4 1.308 . S
C8 C7 1.394 . S
C8 H35 0.929 . S
C9 Tb0 2.764 . S
C9 C3 1.504 . S
C9 O21 1.239 . S
C9 O22 1.263 . S
O10 Tb0 2.325 1_454 S
O10 C20 1.236 . S
O11 Tb1 2.322 1_565 S
O11 C20 1.257 . S
O12 Tb1 2.349 1_665 S
O12 C23 1.261 . S
O13 Tb0 2.303 1_554 S
O13 C23 1.257 . S
O14 Tb1 2.415 . S
O14 C30 1.239 . S
O15 Tb1 2.399 . S
O15 C30 1.263 . S
O16 Tb1 2.325 . S
O16 C31 1.236 1_454 S
O17 Tb0 2.322 1_545 S
O17 C31 1.257 . S
O18 Tb0 2.349 1_445 S
O18 C2 1.261 . S
O19 Tb1 2.303 1_556 S
O19 C2 1.257 . S
C20 O10 1.236 . S
C20 O11 1.257 . S
O21 Tb0 2.415 . S
O21 C9 1.239 . S
O22 Tb0 2.399 . S
O22 C9 1.263 . S
C23 O12 1.261 . S
C23 O13 1.257 . S
C24 C27 1.358 . S
C24 C28 1.332 . S
C24 C30 1.504 . S
C25 C26 1.373 . S
C25 C29 1.308 . S
C26 C25 1.373 . S
C26 C27 1.429 . S
C26 H36 0.932 . S
C27 C24 1.358 . S
C27 C26 1.429 . S
C27 H37 0.930 . S
C28 C24 1.332 . S
C28 C29 1.394 . S
C28 H38 0.932 . S
C29 C25 1.308 . S
C29 C28 1.394 . S
C29 H39 0.929 . S
C30 Tb1 2.764 . S
C30 O14 1.239 . S
C30 O15 1.263 . S
C30 C24 1.504 . S
C31 O16 1.236 1_656 S
C31 O17 1.257 . S
H32 C5 0.932 . S
H33 C6 0.930 . S
H34 C7 0.932 1_554 S
H35 C8 0.929 . S
H36 C26 0.932 . S
H37 C27 0.930 . S
H38 C28 0.932 . S
H39 C29 0.929 . S
Tb40 C49 2.764 . S
Tb40 O50 2.325 1_565 S
Tb40 O53 2.303 . S
Tb40 O57 2.322 1_455 S
Tb40 O58 2.349 1_565 S
Tb40 O61 2.415 . S
Tb40 O62 2.399 1_565 S
Tb41 O51 2.322 . S
Tb41 O52 2.349 1_445 S
Tb41 O54 2.415 1_455 S
Tb41 O55 2.399 1_455 S
Tb41 O56 2.325 1_445 S
Tb41 O59 2.303 . S
Tb41 C70 2.764 1_455 S
C42 O58 1.261 . S
C42 O59 1.257 . S
C43 C46 1.358 . S
C43 C47 1.332 . S
C43 C49 1.504 . S
C44 C45 1.373 . S
C44 C48 1.308 . S
C45 C44 1.373 . S
C45 C46 1.429 . S
C45 H72 0.932 . S
C46 C43 1.358 . S
C46 C45 1.429 . S
C46 H73 0.930 1_565 S
C47 C43 1.332 . S
C47 C48 1.394 . S
C47 H74 0.932 . S
C48 C44 1.308 . S
C48 C47 1.394 . S
C48 H75 0.929 . S
C49 Tb40 2.764 . S
C49 C43 1.504 . S
C49 O61 1.239 . S
C49 O62 1.263 1_565 S
O50 Tb40 2.325 1_545 S
O50 C60 1.236 . S
O51 Tb41 2.322 . S
O51 C60 1.257 . S
O52 Tb41 2.349 1_665 S
O52 C63 1.261 . S
O53 Tb40 2.303 . S
O53 C63 1.257 1_455 S
O54 Tb41 2.415 1_655 S
O54 C70 1.239 . S
O55 Tb41 2.399 1_655 S
O55 C70 1.263 . S
O56 Tb41 2.325 1_665 S
O56 C71 1.236 . S
O57 Tb40 2.322 1_655 S
O57 C71 1.257 . S
O58 Tb40 2.349 1_545 S
O58 C42 1.261 . S
O59 Tb41 2.303 . S
O59 C42 1.257 . S
C60 O50 1.236 . S
C60 O51 1.257 . S
O61 Tb40 2.415 . S
O61 C49 1.239 . S
O62 Tb40 2.399 1_545 S
O62 C49 1.263 1_545 S
C63 O52 1.261 . S
C63 O53 1.257 1_655 S
C64 C67 1.358 . S
C64 C68 1.332 . S
C64 C70 1.504 . S
C65 C66 1.373 . S
C65 C69 1.308 . S
C66 C65 1.373 . S
C66 C67 1.429 . S
C66 H76 0.932 . S
C67 C64 1.358 . S
C67 C66 1.429 . S
C67 H77 0.930 . S
C68 C64 1.332 . S
C68 C69 1.394 . S
C68 H78 0.932 . S
C69 C65 1.308 . S
C69 C68 1.394 . S
C69 H79 0.929 . S
C70 Tb41 2.764 1_655 S
C70 O54 1.239 . S
C70 O55 1.263 . S
C70 C64 1.504 . S
C71 O56 1.236 . S
C71 O57 1.257 . S
H72 C45 0.932 . S
H73 C46 0.930 1_545 S
H74 C47 0.932 . S
H75 C48 0.929 . S
H76 C66 0.932 . S
H77 C67 0.930 . S
H78 C68 0.932 . S
H79 C69 0.929 . S
Zn80 O86 1.920 . S
Zn80 O92 1.898 . S
Zn80 O95 1.905 . S
Zn81 O89 1.905 . S
Zn81 O90 1.898 . S
Zn81 O98 1.920 . S
Zn82 O85 2.080 . S
Zn82 O88 2.114 . S
Zn82 O91 2.120 . S
Zn82 O93 2.120 . S
Zn82 O94 2.114 . S
Zn82 O97 2.080 . S
C83 O88 1.166 . S
C83 O89 1.182 . S
C84 O90 1.167 . S
C84 O91 1.299 . S
O85 Zn82 2.080 . S
O85 C99 1.305 . S
O86 Zn80 1.920 . S
O86 C99 1.234 . S
C87 O92 1.167 . S
C87 O93 1.299 . S
O88 Zn82 2.114 . S
O88 C83 1.166 . S
O89 Zn81 1.905 . S
O89 C83 1.182 . S
O90 Zn81 1.898 . S
O90 C84 1.167 . S
O91 Zn82 2.120 . S
O91 C84 1.299 . S
O92 Zn80 1.898 . S
O92 C87 1.167 . S
O93 Zn82 2.120 . S
O93 C87 1.299 . S
O94 Zn82 2.114 . S
O94 C96 1.166 . S
O95 Zn80 1.905 . S
O95 C96 1.182 . S
C96 O94 1.166 . S
C96 O95 1.182 . S
O97 Zn82 2.080 . S
O97 C100 1.305 . S
O98 Zn81 1.920 . S
O98 C100 1.234 . S
C99 O85 1.305 . S
C99 O86 1.234 . S
C100 O97 1.305 . S
C100 O98 1.234 . S
Zn101 O107 1.920 . S
Zn101 O113 1.898 . S
Zn101 O116 1.905 . S
Zn102 O110 1.905 . S
Zn102 O111 1.898 . S
Zn102 O119 1.920 . S
Zn103 O106 2.080 . S
Zn103 O109 2.114 . S
Zn103 O112 2.120 . S
Zn103 O114 2.120 . S
Zn103 O115 2.114 . S
Zn103 O118 2.080 . S
C104 O109 1.166 . S
C104 O110 1.182 . S
C105 O111 1.167 . S
C105 O112 1.299 . S
O106 Zn103 2.080 . S
O106 C120 1.305 . S
O107 Zn101 1.920 . S
O107 C120 1.234 . S
C108 O113 1.167 . S
C108 O114 1.299 . S
O109 Zn103 2.114 . S
O109 C104 1.166 . S
O110 Zn102 1.905 . S
O110 C104 1.182 . S
O111 Zn102 1.898 . S
O111 C105 1.167 . S
O112 Zn103 2.120 . S
O112 C105 1.299 . S
O113 Zn101 1.898 . S
O113 C108 1.167 . S
O114 Zn103 2.120 . S
O114 C108 1.299 . S
O115 Zn103 2.114 . S
O115 C117 1.166 . S
O116 Zn101 1.905 . S
O116 C117 1.182 . S
C117 O115 1.166 . S
C117 O116 1.182 . S
O118 Zn103 2.080 . S
O118 C121 1.305 . S
O119 Zn102 1.920 . S
O119 C121 1.234 . S
C120 O106 1.305 . S
C120 O107 1.234 . S
C121 O118 1.305 . S
C121 O119 1.234 . S
C122 C123 1.391 . S
C122 C124 1.394 . S
C122 H138 0.931 . S
C123 C122 1.391 . S
C123 C127 1.376 . S
C124 C122 1.394 . S
C124 C125 1.369 . S
C124 C128 1.531 . S
C125 C124 1.369 . S
C125 C126 1.410 . S
C125 C133 1.503 . S
C126 C125 1.410 . S
C126 C127 1.392 . S
C126 C129 1.511 . S
C127 C123 1.376 . S
C127 C126 1.392 . S
C127 H139 0.929 . S
C128 C124 1.531 . S
C128 H140 0.960 . S
C128 H141 0.962 . S
C128 H142 0.960 . S
C129 C126 1.511 . S
C129 H143 0.961 . S
C129 H144 0.961 . S
C129 H145 0.961 . S
C130 C131 1.370 . S
C130 C132 1.363 . S
C130 H146 0.931 . S
C131 C130 1.370 . S
C131 C135 1.408 . S
C132 C130 1.363 . S
C132 C133 1.370 . S
C132 C136 1.524 . S
C133 C125 1.503 . S
C133 C132 1.370 . S
C133 C134 1.403 . S
C134 C133 1.403 . S
C134 C135 1.404 . S
C134 C137 1.539 . S
C135 C131 1.408 . S
C135 C134 1.404 . S
C135 H147 0.930 . S
C136 C132 1.524 . S
C136 H148 0.956 . S
C136 H149 0.961 . S
C136 H150 0.961 . S
C137 C134 1.539 . S
C137 H151 0.958 . S
C137 H152 0.961 . S
C137 H153 0.960 . S
H138 C122 0.931 . S
H139 C127 0.929 . S
H140 C128 0.960 . S
H141 C128 0.962 . S
H142 C128 0.960 . S
H143 C129 0.961 . S
H144 C129 0.961 . S
H145 C129 0.961 . S
H146 C130 0.931 . S
H147 C135 0.930 . S
H148 C136 0.956 . S
H149 C136 0.961 . S
H150 C136 0.961 . S
H151 C137 0.958 . S
H152 C137 0.961 . S
H153 C137 0.960 . S
C154 C155 1.391 . S
C154 C156 1.394 . S
C154 H170 0.931 . S
C155 C154 1.391 . S
C155 C159 1.376 . S
C156 C154 1.394 . S
C156 C157 1.369 . S
C156 C160 1.531 . S
C157 C156 1.369 . S
C157 C158 1.410 . S
C157 C165 1.503 . S
C158 C157 1.410 . S
C158 C159 1.392 . S
C158 C161 1.511 . S
C159 C155 1.376 . S
C159 C158 1.392 . S
C159 H171 0.929 1_545 S
C160 C156 1.531 . S
C160 H172 0.960 . S
C160 H173 0.962 . S
C160 H174 0.960 . S
C161 C158 1.511 . S
C161 H175 0.961 1_545 S
C161 H176 0.961 . S
C161 H177 0.961 . S
C162 C163 1.370 . S
C162 C164 1.363 . S
C162 H178 0.931 . S
C163 C162 1.370 . S
C163 C167 1.408 . S
C164 C162 1.363 . S
C164 C165 1.370 . S
C164 C168 1.524 . S
C165 C157 1.503 . S
C165 C164 1.370 . S
C165 C166 1.403 . S
C166 C165 1.403 . S
C166 C167 1.404 . S
C166 C169 1.539 . S
C167 C163 1.408 . S
C167 C166 1.404 . S
C167 H179 0.930 . S
C168 C164 1.524 . S
C168 H180 0.956 . S
C168 H181 0.961 . S
C168 H182 0.961 . S
C169 C166 1.539 . S
C169 H183 0.958 . S
C169 H184 0.961 . S
C169 H185 0.960 . S
H170 C154 0.931 . S
H171 C159 0.929 1_565 S
H172 C160 0.960 . S
H173 C160 0.962 . S
H174 C160 0.960 . S
H175 C161 0.961 1_565 S
H176 C161 0.961 . S
H177 C161 0.961 . S
H178 C162 0.931 . S
H179 C167 0.930 . S
H180 C168 0.956 . S
H181 C168 0.961 . S
H182 C168 0.961 . S
H183 C169 0.958 . S
H184 C169 0.961 . S
H185 C169 0.960 . S
C186 C187 1.391 . S
C186 C188 1.394 . S
C186 H202 0.931 . S
C187 C186 1.391 . S
C187 C191 1.376 . S
C188 C186 1.394 . S
C188 C189 1.369 . S
C188 C192 1.531 . S
C189 C188 1.369 . S
C189 C190 1.410 . S
C189 C197 1.503 . S
C190 C189 1.410 . S
C190 C191 1.392 . S
C190 C193 1.511 . S
C191 C187 1.376 . S
C191 C190 1.392 . S
C191 H203 0.929 . S
C192 C188 1.531 . S
C192 H204 0.960 . S
C192 H205 0.962 . S
C192 H206 0.960 . S
C193 C190 1.511 . S
C193 H207 0.961 . S
C193 H208 0.961 . S
C193 H209 0.961 . S
C194 C195 1.370 . S
C194 C196 1.363 . S
C194 H210 0.931 . S
C195 C194 1.370 . S
C195 C199 1.408 . S
C196 C194 1.363 . S
C196 C197 1.370 . S
C196 C200 1.524 . S
C197 C189 1.503 . S
C197 C196 1.370 . S
C197 C198 1.403 . S
C198 C197 1.403 . S
C198 C199 1.404 . S
C198 C201 1.539 . S
C199 C195 1.408 . S
C199 C198 1.404 . S
C199 H211 0.930 . S
C200 C196 1.524 . S
C200 H212 0.956 . S
C200 H213 0.961 . S
C200 H214 0.961 . S
C201 C198 1.539 . S
C201 H215 0.958 . S
C201 H216 0.961 . S
C201 H217 0.960 . S
H202 C186 0.931 . S
H203 C191 0.929 . S
H204 C192 0.960 . S
H205 C192 0.962 . S
H206 C192 0.960 . S
H207 C193 0.961 . S
H208 C193 0.961 . S
H209 C193 0.961 . S
H210 C194 0.931 . S
H211 C199 0.930 . S
H212 C200 0.956 . S
H213 C200 0.961 . S
H214 C200 0.961 . S
H215 C201 0.958 . S
H216 C201 0.961 . S
H217 C201 0.960 . S
C218 C219 1.391 . S
C218 C220 1.394 . S
C218 H234 0.931 . S
C219 C218 1.391 . S
C219 C223 1.376 . S
C220 C218 1.394 . S
C220 C221 1.369 . S
C220 C224 1.531 . S
C221 C220 1.369 . S
C221 C222 1.410 . S
C221 C229 1.503 . S
C222 C221 1.410 . S
C222 C223 1.392 . S
C222 C225 1.511 . S
C223 C219 1.376 . S
C223 C222 1.392 . S
C223 H235 0.929 . S
C224 C220 1.531 . S
C224 H236 0.960 . S
C224 H237 0.962 . S
C224 H238 0.960 . S
C225 C222 1.511 . S
C225 H239 0.961 . S
C225 H240 0.961 . S
C225 H241 0.961 . S
C226 C227 1.370 . S
C226 C228 1.363 . S
C226 H242 0.931 . S
C227 C226 1.370 . S
C227 C231 1.408 . S
C228 C226 1.363 . S
C228 C229 1.370 . S
C228 C232 1.524 . S
C229 C221 1.503 . S
C229 C228 1.370 . S
C229 C230 1.403 . S
C230 C229 1.403 . S
C230 C231 1.404 . S
C230 C233 1.539 . S
C231 C227 1.408 . S
C231 C230 1.404 . S
C231 H243 0.930 . S
C232 C228 1.524 . S
C232 H244 0.956 . S
C232 H245 0.961 . S
C232 H246 0.961 . S
C233 C230 1.539 . S
C233 H247 0.958 . S
C233 H248 0.961 . S
C233 H249 0.960 . S
H234 C218 0.931 . S
H235 C223 0.929 . S
H236 C224 0.960 . S
H237 C224 0.962 . S
H238 C224 0.960 . S
H239 C225 0.961 . S
H240 C225 0.961 . S
H241 C225 0.961 . S
H242 C226 0.931 . S
H243 C231 0.930 . S
H244 C232 0.956 . S
H245 C232 0.961 . S
H246 C232 0.961 . S
H247 C233 0.958 . S
H248 C233 0.961 . S
H249 C233 0.960 . S
C250 C251 1.391 . S
C250 C252 1.394 . S
C250 H266 0.931 . S
C251 C250 1.391 . S
C251 C255 1.376 . S
C252 C250 1.394 . S
C252 C253 1.369 . S
C252 C256 1.531 . S
C253 C252 1.369 . S
C253 C254 1.410 . S
C253 C261 1.503 . S
C254 C253 1.410 . S
C254 C255 1.392 . S
C254 C257 1.511 . S
C255 C251 1.376 . S
C255 C254 1.392 . S
C255 H267 0.929 . S
C256 C252 1.531 . S
C256 H268 0.960 . S
C256 H269 0.962 . S
C256 H270 0.960 . S
C257 C254 1.511 . S
C257 H271 0.961 . S
C257 H272 0.961 . S
C257 H273 0.961 . S
C258 C259 1.370 . S
C258 C260 1.363 . S
C258 H274 0.931 . S
C259 C258 1.370 . S
C259 C263 1.408 . S
C260 C258 1.363 . S
C260 C261 1.370 . S
C260 C264 1.524 . S
C261 C253 1.503 . S
C261 C260 1.370 . S
C261 C262 1.403 . S
C262 C261 1.403 . S
C262 C263 1.404 . S
C262 C265 1.539 . S
C263 C259 1.408 . S
C263 C262 1.404 . S
C263 H275 0.930 . S
C264 C260 1.524 . S
C264 H276 0.956 . S
C264 H277 0.961 . S
C264 H278 0.961 . S
C265 C262 1.539 . S
C265 H279 0.958 . S
C265 H280 0.961 . S
C265 H281 0.960 . S
H266 C250 0.931 . S
H267 C255 0.929 . S
H268 C256 0.960 . S
H269 C256 0.962 . S
H270 C256 0.960 . S
H271 C257 0.961 . S
H272 C257 0.961 . S
H273 C257 0.961 . S
H274 C258 0.931 . S
H275 C263 0.930 . S
H276 C264 0.956 . S
H277 C264 0.961 . S
H278 C264 0.961 . S
H279 C265 0.958 . S
H280 C265 0.961 . S
H281 C265 0.960 . S
C282 C283 1.391 . S
C282 C284 1.394 . S
C282 H298 0.931 . S
C283 C282 1.391 . S
C283 C287 1.376 . S
C284 C282 1.394 . S
C284 C285 1.369 . S
C284 C288 1.531 . S
C285 C284 1.369 . S
C285 C286 1.410 . S
C285 C293 1.503 . S
C286 C285 1.410 . S
C286 C287 1.392 . S
C286 C289 1.511 . S
C287 C283 1.376 . S
C287 C286 1.392 . S
C287 H299 0.929 . S
C288 C284 1.531 . S
C288 H300 0.960 . S
C288 H301 0.962 . S
C288 H302 0.960 . S
C289 C286 1.511 . S
C289 H303 0.961 . S
C289 H304 0.961 . S
C289 H305 0.961 . S
C290 C291 1.370 . S
C290 C292 1.363 . S
C290 H306 0.931 . S
C291 C290 1.370 . S
C291 C295 1.408 . S
C292 C290 1.363 . S
C292 C293 1.370 . S
C292 C296 1.524 . S
C293 C285 1.503 . S
C293 C292 1.370 . S
C293 C294 1.403 . S
C294 C293 1.403 . S
C294 C295 1.404 . S
C294 C297 1.539 . S
C295 C291 1.408 . S
C295 C294 1.404 . S
C295 H307 0.930 . S
C296 C292 1.524 . S
C296 H308 0.956 . S
C296 H309 0.961 . S
C296 H310 0.961 . S
C297 C294 1.539 . S
C297 H311 0.958 . S
C297 H312 0.961 . S
C297 H313 0.960 . S
H298 C282 0.931 . S
H299 C287 0.929 . S
H300 C288 0.960 . S
H301 C288 0.962 . S
H302 C288 0.960 . S
H303 C289 0.961 . S
H304 C289 0.961 . S
H305 C289 0.961 . S
H306 C290 0.931 . S
H307 C295 0.930 . S
H308 C296 0.956 . S
H309 C296 0.961 . S
H310 C296 0.961 . S
H311 C297 0.958 . S
H312 C297 0.961 . S
H313 C297 0.960 . S
C314 C315 1.391 . S
C314 C316 1.394 . S
C314 H330 0.931 . S
C315 C314 1.391 . S
C315 C319 1.376 . S
C316 C314 1.394 . S
C316 C317 1.369 . S
C316 C320 1.531 . S
C317 C316 1.369 . S
C317 C318 1.410 . S
C317 C325 1.503 . S
C318 C317 1.410 . S
C318 C319 1.392 . S
C318 C321 1.511 . S
C319 C315 1.376 . S
C319 C318 1.392 . S
C319 H331 0.929 . S
C320 C316 1.531 . S
C320 H332 0.960 . S
C320 H333 0.962 . S
C320 H334 0.960 . S
C321 C318 1.511 . S
C321 H335 0.961 . S
C321 H336 0.961 . S
C321 H337 0.961 . S
C322 C323 1.370 . S
C322 C324 1.363 . S
C322 H338 0.931 . S
C323 C322 1.370 . S
C323 C327 1.408 . S
C324 C322 1.363 . S
C324 C325 1.370 . S
C324 C328 1.524 . S
C325 C317 1.503 . S
C325 C324 1.370 . S
C325 C326 1.403 . S
C326 C325 1.403 . S
C326 C327 1.404 . S
C326 C329 1.539 . S
C327 C323 1.408 . S
C327 C326 1.404 . S
C327 H339 0.930 . S
C328 C324 1.524 . S
C328 H340 0.956 . S
C328 H341 0.961 . S
C328 H342 0.961 . S
C329 C326 1.539 . S
C329 H343 0.958 . S
C329 H344 0.961 . S
C329 H345 0.960 . S
H330 C314 0.931 . S
H331 C319 0.929 . S
H332 C320 0.960 . S
H333 C320 0.962 . S
H334 C320 0.960 . S
H335 C321 0.961 . S
H336 C321 0.961 . S
H337 C321 0.961 . S
H338 C322 0.931 . S
H339 C327 0.930 . S
H340 C328 0.956 . S
H341 C328 0.961 . S
H342 C328 0.961 . S
H343 C329 0.958 . S
H344 C329 0.961 . S
H345 C329 0.960 . S
C346 C347 1.391 . S
C346 C348 1.394 . S
C346 H362 0.931 . S
C347 C346 1.391 . S
C347 C351 1.376 . S
C348 C346 1.394 . S
C348 C349 1.369 . S
C348 C352 1.531 . S
C349 C348 1.369 . S
C349 C350 1.410 . S
C349 C357 1.503 . S
C350 C349 1.410 . S
C350 C351 1.392 . S
C350 C353 1.511 . S
C351 C347 1.376 . S
C351 C350 1.392 . S
C351 H363 0.929 . S
C352 C348 1.531 . S
C352 H364 0.960 . S
C352 H365 0.962 . S
C352 H366 0.960 . S
C353 C350 1.511 . S
C353 H367 0.961 . S
C353 H368 0.961 . S
C353 H369 0.961 . S
C354 C355 1.370 . S
C354 C356 1.363 . S
C354 H370 0.931 . S
C355 C354 1.370 . S
C355 C359 1.408 . S
C356 C354 1.363 . S
C356 C357 1.370 . S
C356 C360 1.524 . S
C357 C349 1.503 . S
C357 C356 1.370 . S
C357 C358 1.403 . S
C358 C357 1.403 . S
C358 C359 1.404 . S
C358 C361 1.539 . S
C359 C355 1.408 . S
C359 C358 1.404 . S
C359 H371 0.930 . S
C360 C356 1.524 . S
C360 H372 0.956 . S
C360 H373 0.961 . S
C360 H374 0.961 . S
C361 C358 1.539 . S
C361 H375 0.958 . S
C361 H376 0.961 . S
C361 H377 0.960 . S
H362 C346 0.931 . S
H363 C351 0.929 . S
H364 C352 0.960 . S
H365 C352 0.962 . S
H366 C352 0.960 . S
H367 C353 0.961 . S
H368 C353 0.961 . S
H369 C353 0.961 . S
H370 C354 0.931 . S
H371 C359 0.930 . S
H372 C360 0.956 . S
H373 C360 0.961 . S
H374 C360 0.961 . S
H375 C361 0.958 . S
H376 C361 0.961 . S
H377 C361 0.960 . S
C378 C379 1.391 . S
C378 C380 1.394 . S
C378 H394 0.931 . S
C379 C378 1.391 . S
C379 C383 1.376 . S
C380 C378 1.394 . S
C380 C381 1.369 . S
C380 C384 1.531 . S
C381 C380 1.369 . S
C381 C382 1.410 . S
C381 C389 1.503 . S
C382 C381 1.410 . S
C382 C383 1.392 . S
C382 C385 1.511 . S
C383 C379 1.376 . S
C383 C382 1.392 . S
C383 H395 0.929 . S
C384 C380 1.531 . S
C384 H396 0.960 . S
C384 H397 0.962 . S
C384 H398 0.960 . S
C385 C382 1.511 . S
C385 H399 0.961 . S
C385 H400 0.961 . S
C385 H401 0.961 . S
C386 C387 1.370 . S
C386 C388 1.363 . S
C386 H402 0.931 . S
C387 C386 1.370 . S
C387 C391 1.408 . S
C388 C386 1.363 . S
C388 C389 1.370 . S
C388 C392 1.524 . S
C389 C381 1.503 . S
C389 C388 1.370 . S
C389 C390 1.403 . S
C390 C389 1.403 . S
C390 C391 1.404 . S
C390 C393 1.539 . S
C391 C387 1.408 . S
C391 C390 1.404 . S
C391 H403 0.930 . S
C392 C388 1.524 . S
C392 H404 0.956 . S
C392 H405 0.961 . S
C392 H406 0.961 . S
C393 C390 1.539 . S
C393 H407 0.958 . S
C393 H408 0.961 . S
C393 H409 0.960 . S
H394 C378 0.931 . S
H395 C383 0.929 . S
H396 C384 0.960 . S
H397 C384 0.962 . S
H398 C384 0.960 . S
H399 C385 0.961 . S
H400 C385 0.961 . S
H401 C385 0.961 . S
H402 C386 0.931 . S
H403 C391 0.930 . S
H404 C392 0.956 . S
H405 C392 0.961 . S
H406 C392 0.961 . S
H407 C393 0.958 . S
H408 C393 0.961 . S
H409 C393 0.960 . S
C410 C411 1.391 . S
C410 C412 1.394 . S
C410 H426 0.931 . S
C411 C410 1.391 . S
C411 C415 1.376 . S
C412 C410 1.394 . S
C412 C413 1.369 . S
C412 C416 1.531 . S
C413 C412 1.369 . S
C413 C414 1.410 . S
C413 C421 1.503 . S
C414 C413 1.410 . S
C414 C415 1.392 . S
C414 C417 1.511 . S
C415 C411 1.376 . S
C415 C414 1.392 . S
C415 H427 0.929 . S
C416 C412 1.531 . S
C416 H428 0.960 . S
C416 H429 0.962 . S
C416 H430 0.960 . S
C417 C414 1.511 . S
C417 H431 0.961 . S
C417 H432 0.961 . S
C417 H433 0.961 . S
C418 C419 1.370 . S
C418 C420 1.363 . S
C418 H434 0.931 . S
C419 C418 1.370 . S
C419 C423 1.408 . S
C420 C418 1.363 . S
C420 C421 1.370 . S
C420 C424 1.524 . S
C421 C413 1.503 . S
C421 C420 1.370 . S
C421 C422 1.403 . S
C422 C421 1.403 . S
C422 C423 1.404 . S
C422 C425 1.539 . S
C423 C419 1.408 . S
C423 C422 1.404 . S
C423 H435 0.930 . S
C424 C420 1.524 . S
C424 H436 0.956 . S
C424 H437 0.961 . S
C424 H438 0.961 . S
C425 C422 1.539 . S
C425 H439 0.958 . S
C425 H440 0.961 . S
C425 H441 0.960 . S
H426 C410 0.931 . S
H427 C415 0.929 . S
H428 C416 0.960 . S
H429 C416 0.962 . S
H430 C416 0.960 . S
H431 C417 0.961 . S
H432 C417 0.961 . S
H433 C417 0.961 . S
H434 C418 0.931 . S
H435 C423 0.930 . S
H436 C424 0.956 . S
H437 C424 0.961 . S
H438 C424 0.961 . S
H439 C425 0.958 . S
H440 C425 0.961 . S
H441 C425 0.960 . S
C442 C443 1.391 . S
C442 C444 1.394 . S
C442 H458 0.931 1_565 S
C443 C442 1.391 . S
C443 C447 1.376 . S
C444 C442 1.394 . S
C444 C445 1.369 . S
C444 C448 1.531 . S
C445 C444 1.369 . S
C445 C446 1.410 . S
C445 C453 1.503 . S
C446 C445 1.410 . S
C446 C447 1.392 . S
C446 C449 1.511 . S
C447 C443 1.376 . S
C447 C446 1.392 . S
C447 H459 0.929 . S
C448 C444 1.531 . S
C448 H460 0.960 . S
C448 H461 0.962 . S
C448 H462 0.960 1_565 S
C449 C446 1.511 . S
C449 H463 0.961 . S
C449 H464 0.961 . S
C449 H465 0.961 . S
C450 C451 1.370 . S
C450 C452 1.363 . S
C450 H466 0.931 . S
C451 C450 1.370 . S
C451 C455 1.408 . S
C452 C450 1.363 . S
C452 C453 1.370 . S
C452 C456 1.524 . S
C453 C445 1.503 . S
C453 C452 1.370 . S
C453 C454 1.403 . S
C454 C453 1.403 . S
C454 C455 1.404 . S
C454 C457 1.539 . S
C455 C451 1.408 . S
C455 C454 1.404 . S
C455 H467 0.930 . S
C456 C452 1.524 . S
C456 H468 0.956 . S
C456 H469 0.961 . S
C456 H470 0.961 . S
C457 C454 1.539 . S
C457 H471 0.958 . S
C457 H472 0.961 . S
C457 H473 0.960 . S
H458 C442 0.931 1_545 S
H459 C447 0.929 . S
H460 C448 0.960 . S
H461 C448 0.962 . S
H462 C448 0.960 1_545 S
H463 C449 0.961 . S
H464 C449 0.961 . S
H465 C449 0.961 . S
H466 C450 0.931 . S
H467 C455 0.930 . S
H468 C456 0.956 . S
H469 C456 0.961 . S
H470 C456 0.961 . S
H471 C457 0.958 . S
H472 C457 0.961 . S
H473 C457 0.960 . S
C474 C475 1.391 . S
C474 C476 1.394 . S
C474 H490 0.931 . S
C475 C474 1.391 . S
C475 C479 1.376 . S
C476 C474 1.394 . S
C476 C477 1.369 . S
C476 C480 1.531 . S
C477 C476 1.369 . S
C477 C478 1.410 . S
C477 C485 1.503 . S
C478 C477 1.410 . S
C478 C479 1.392 . S
C478 C481 1.511 . S
C479 C475 1.376 . S
C479 C478 1.392 . S
C479 H491 0.929 . S
C480 C476 1.531 . S
C480 H492 0.960 . S
C480 H493 0.962 . S
C480 H494 0.960 . S
C481 C478 1.511 . S
C481 H495 0.961 . S
C481 H496 0.961 . S
C481 H497 0.961 . S
C482 C483 1.370 . S
C482 C484 1.363 . S
C482 H498 0.931 . S
C483 C482 1.370 . S
C483 C487 1.408 . S
C484 C482 1.363 . S
C484 C485 1.370 . S
C484 C488 1.524 . S
C485 C477 1.503 . S
C485 C484 1.370 . S
C485 C486 1.403 . S
C486 C485 1.403 . S
C486 C487 1.404 . S
C486 C489 1.539 . S
C487 C483 1.408 . S
C487 C486 1.404 . S
C487 H499 0.930 . S
C488 C484 1.524 . S
C488 H500 0.956 . S
C488 H501 0.961 . S
C488 H502 0.961 . S
C489 C486 1.539 . S
C489 H503 0.958 . S
C489 H504 0.961 . S
C489 H505 0.960 . S
H490 C474 0.931 . S
H491 C479 0.929 . S
H492 C480 0.960 . S
H493 C480 0.962 . S
H494 C480 0.960 . S
H495 C481 0.961 . S
H496 C481 0.961 . S
H497 C481 0.961 . S
H498 C482 0.931 . S
H499 C487 0.930 . S
H500 C488 0.956 . S
H501 C488 0.961 . S
H502 C488 0.961 . S
H503 C489 0.958 . S
H504 C489 0.961 . S
H505 C489 0.960 . S
C123 C20 1.966 . S
C131 C99 1.901 . S
C155 C60 1.299 . S
C163 C105 1.231 . S
C187 C25 0.898 . S
C195 C96 0.835 . S
C219 C65 1.300 . S
C227 C121 1.102 . S
C251 C23 2.005 . S
C259 C87 1.884 . S
C291 C104 2.258 . S
C283 C63 2.321 . S
C315 C44 1.122 . S
C323 C100 1.033 . S
C355 C117 1.658 . S
C347 C2 1.681 . S
C387 C84 2.076 . S
C379 C42 2.157 . S
C419 C120 2.099 . S
C411 C31 2.153 . S
C451 C83 1.493 . S
C443 C71 1.576 . S
C483 C108 0.808 . S
C475 C4 0.930 . S
