# Generated by pormake.
# Topology zzz, (3,6)-cn, num edge types: 1
# Building blocks:
#     Node 0, Type 0, BuildingBlock: OLANEW_clean_sbu_2, # of connection points: 3
#     Node 1, Type 0, BuildingBlock: OLANEW_clean_sbu_2, # of connection points: 3
#     Node 2, Type 0, BuildingBlock: OLANEW_clean_sbu_2, # of connection points: 3
#     Node 3, Type 0, BuildingBlock: OLANEW_clean_sbu_2, # of connection points: 3
#     Node 4, Type 0, BuildingBlock: OLANEW_clean_sbu_2, # of connection points: 3
#     Node 5, Type 0, BuildingBlock: OLANEW_clean_sbu_2, # of connection points: 3
#     Node 6, Type 0, BuildingBlock: OLANEW_clean_sbu_2, # of connection points: 3
#     Node 7, Type 0, BuildingBlock: OLANEW_clean_sbu_2, # of connection points: 3
#     Node 8, Type 1, BuildingBlock: KUMJIN_clean_sbu_0, # of connection points: 6
#     Node 9, Type 1, BuildingBlock: KUMJIN_clean_sbu_0, # of connection points: 6
#     Node 10, Type 1, BuildingBlock: KUMJIN_clean_sbu_0, # of connection points: 6
#     Node 11, Type 1, BuildingBlock: KUMJIN_clean_sbu_0, # of connection points: 6
#     Edge 12, Type (0, 1), BuildingBlock: XUDNAN_clean_linker_2, # of connection points: 2
#     Edge 13, Type (0, 1), BuildingBlock: XUDNAN_clean_linker_2, # of connection points: 2
#     Edge 14, Type (0, 1), BuildingBlock: XUDNAN_clean_linker_2, # of connection points: 2
#     Edge 15, Type (0, 1), BuildingBlock: XUDNAN_clean_linker_2, # of connection points: 2
#     Edge 16, Type (0, 1), BuildingBlock: XUDNAN_clean_linker_2, # of connection points: 2
#     Edge 17, Type (0, 1), BuildingBlock: XUDNAN_clean_linker_2, # of connection points: 2
#     Edge 18, Type (0, 1), BuildingBlock: XUDNAN_clean_linker_2, # of connection points: 2
#     Edge 19, Type (0, 1), BuildingBlock: XUDNAN_clean_linker_2, # of connection points: 2
#     Edge 20, Type (0, 1), BuildingBlock: XUDNAN_clean_linker_2, # of connection points: 2
#     Edge 21, Type (0, 1), BuildingBlock: XUDNAN_clean_linker_2, # of connection points: 2
#     Edge 22, Type (0, 1), BuildingBlock: XUDNAN_clean_linker_2, # of connection points: 2
#     Edge 23, Type (0, 1), BuildingBlock: XUDNAN_clean_linker_2, # of connection points: 2
#     Edge 24, Type (0, 1), BuildingBlock: XUDNAN_clean_linker_2, # of connection points: 2
#     Edge 25, Type (0, 1), BuildingBlock: XUDNAN_clean_linker_2, # of connection points: 2
#     Edge 26, Type (0, 1), BuildingBlock: XUDNAN_clean_linker_2, # of connection points: 2
#     Edge 27, Type (0, 1), BuildingBlock: XUDNAN_clean_linker_2, # of connection points: 2
#     Edge 28, Type (0, 1), BuildingBlock: XUDNAN_clean_linker_2, # of connection points: 2
#     Edge 29, Type (0, 1), BuildingBlock: XUDNAN_clean_linker_2, # of connection points: 2
#     Edge 30, Type (0, 1), BuildingBlock: XUDNAN_clean_linker_2, # of connection points: 2
#     Edge 31, Type (0, 1), BuildingBlock: XUDNAN_clean_linker_2, # of connection points: 2
#     Edge 32, Type (0, 1), BuildingBlock: XUDNAN_clean_linker_2, # of connection points: 2
#     Edge 33, Type (0, 1), BuildingBlock: XUDNAN_clean_linker_2, # of connection points: 2
#     Edge 34, Type (0, 1), BuildingBlock: XUDNAN_clean_linker_2, # of connection points: 2
#     Edge 35, Type (0, 1), BuildingBlock: XUDNAN_clean_linker_2, # of connection points: 2
# Relax obj value: 0.153
# Max RMSD: 0.166
# Mean RMSD: 0.124
data_MOF--net-zzz--node1-OLANEW_clean_sbu_2--node2-KUMJIN_clean_sbu_0--edge1-XUDNAN_clean_linker_2
_symmetry_space_group_name_H-M    P1
_symmetry_Int_Tables_number       1
_symmetry_cell_setting            triclinic
loop_
_symmetry_equiv_pos_as_xyz
'x, y, z'
_cell_length_a     54.436215
_cell_length_b     54.337447
_cell_length_c     16.713761
_cell_angle_alpha  89.861407
_cell_angle_beta   90.066768
_cell_angle_gamma 89.949171
loop_
_atom_site_label
_atom_site_type_symbol
_atom_site_fract_x
_atom_site_fract_y
_atom_site_fract_z
_atom_type_partial_charge
O0 O 0.73822 0.58883 0.07225 0.0
Cd1 Cd 0.69937 0.59779 0.13975 0.0
O2 O 0.73956 0.57654 0.19528 0.0
Cd3 Cd 0.75117 0.5594 0.30516 0.0
O4 O 0.77869 0.54314 0.37924 0.0
C5 C 0.79231 0.55686 0.42149 0.0
O6 O 0.78627 0.58008 0.43128 0.0
C7 C 0.75034 0.57874 0.12811 0.0
C8 C 0.65945 0.58102 0.05385 0.0
O9 O 0.66698 0.60332 0.04892 0.0
O10 O 0.67089 0.56621 0.10068 0.0
O11 O 0.93056 0.73734 0.11039 0.0
Cd12 Cd 0.92517 0.69853 0.18138 0.0
O13 O 0.95462 0.74494 0.21091 0.0
Cd14 Cd 0.97614 0.76513 0.29761 0.0
O15 O 0.97436 0.80122 0.34897 0.0
C16 C 0.96875 0.80781 0.4195 0.0
O17 O 0.96558 0.79132 0.47612 0.0
C18 C 0.94507 0.75208 0.14518 0.0
C19 C 0.93845 0.66111 0.07814 0.0
O20 O 0.91627 0.66896 0.08201 0.0
O21 O 0.95441 0.67047 0.12554 0.0
O22 O 0.7598 0.93288 0.10078 0.0
Cd23 Cd 0.79815 0.91642 0.15543 0.0
O24 O 0.76195 0.95107 0.21613 0.0
Cd25 Cd 0.74941 0.97104 0.32014 0.0
O26 O 0.71688 0.97743 0.38986 0.0
C27 C 0.70429 0.95853 0.40753 0.0
O28 O 0.71281 0.93665 0.38897 0.0
C29 C 0.75052 0.94785 0.15047 0.0
C30 C 0.83732 0.94119 0.08638 0.0
O31 O 0.83142 0.9195 0.06341 0.0
O32 O 0.82509 0.951 0.14343 0.0
O33 O 0.58752 0.76806 0.09208 0.0
Cd34 Cd 0.60271 0.8055 0.15322 0.0
O35 O 0.57186 0.75638 0.20578 0.0
Cd36 Cd 0.55226 0.73743 0.3018 0.0
O37 O 0.54857 0.74144 0.43115 0.0
C38 C 0.54757 0.72524 0.48606 0.0
O39 O 0.54771 0.73263 0.56086 0.0
C40 C 0.57491 0.75259 0.1314 0.0
C41 C 0.57556 0.84329 0.08483 0.0
O42 O 0.59429 0.83416 0.04937 0.0
O43 O 0.57002 0.8352 0.15462 0.0
O44 O 0.27526 0.4413 0.13634 0.0
Cd45 Cd 0.31277 0.426 0.07543 0.0
O46 O 0.25849 0.41202 0.06653 0.0
Cd47 Cd 0.22777 0.39661 0.00262 0.0
O48 O 0.20194 0.41907 0.93791 0.0
C49 C 0.19871 0.41872 0.86279 0.0
O50 O 0.21012 0.40236 0.8186 0.0
C51 C 0.25608 0.43009 0.11411 0.0
C52 C 0.35081 0.4474 0.15863 0.0
O53 O 0.34225 0.45767 0.09533 0.0
O54 O 0.34202 0.42651 0.17989 0.0
O55 O 0.0786 0.27612 0.15222 0.0
Cd56 Cd 0.09343 0.31622 0.10805 0.0
O57 O 0.07983 0.26684 0.02621 0.0
Cd58 Cd 0.0786 0.24829 0.91104 0.0
O59 O 0.07534 0.21246 0.85778 0.0
C60 C 0.07354 0.20379 0.78763 0.0
O61 O 0.07372 0.21854 0.72523 0.0
C62 C 0.07508 0.26028 0.09792 0.0
C63 C 0.06945 0.35088 0.1999 0.0
O64 O 0.062 0.34674 0.12843 0.0
O65 O 0.08847 0.33945 0.2256 0.0
O66 O 0.24815 0.08605 0.17729 0.0
Cd67 Cd 0.21064 0.09768 0.10603 0.0
O68 O 0.24947 0.07777 0.05057 0.0
Cd69 Cd 0.2646 0.06609 0.93804 0.0
O70 O 0.29881 0.06227 0.8768 0.0
C71 C 0.30233 0.06689 0.80345 0.0
O72 O 0.28404 0.07374 0.75723 0.0
C73 C 0.25971 0.07674 0.11899 0.0
C74 C 0.1685 0.07739 0.16936 0.0
O75 O 0.18298 0.06361 0.12898 0.0
O76 O 0.17424 0.10001 0.1798 0.0
O77 O 0.4429 0.25038 0.11829 0.0
Cd78 Cd 0.4324 0.21512 0.03721 0.0
O79 O 0.41681 0.27482 0.05641 0.0
Cd80 Cd 0.41631 0.25473 0.94405 0.0
O81 O 0.43187 0.28049 0.85678 0.0
C82 C 0.42591 0.30288 0.86826 0.0
O83 O 0.4098 0.30795 0.92432 0.0
C84 C 0.43149 0.27069 0.11399 0.0
C85 C 0.44419 0.17438 0.12922 0.0
O86 O 0.45862 0.18167 0.07353 0.0
O87 O 0.42384 0.18571 0.13977 0.0
Eu88 Eu 0.02119 0.99247 0.68686 0.0
C89 C 0.93928 0.00145 0.42907 0.0
C90 C 0.95985 0.98906 0.30705 0.0
C91 C 0.91593 0.98297 0.32001 0.0
C92 C 0.96071 0.99882 0.38552 0.0
C93 C 0.91656 0.99405 0.39573 0.0
C94 C 0.93752 0.98058 0.27561 0.0
C95 C 0.89607 0.01284 0.50773 0.0
N96 N 0.94025 0.01322 0.50059 0.0
C97 C 0.91887 0.02036 0.53717 0.0
C98 C 0.89492 0.99924 0.43734 0.0
Eu99 Eu 0.97962 0.02692 0.54492 0.0
N100 N 0.98213 0.00711 0.41748 0.0
C101 C 0.00302 0.00736 0.37148 0.0
C102 C 0.9813 0.9888 0.26121 0.0
C103 C 0.0029 0.99829 0.29328 0.0
H104 H 0.91926 0.03218 0.58912 0.0
H105 H 0.01959 0.99841 0.2581 0.0
H106 H 0.93663 0.97281 0.21601 0.0
H107 H 0.87936 0.01808 0.53833 0.0
H108 H 0.02015 0.0144 0.39326 0.0
H109 H 0.98814 0.02337 0.982 0.0
H110 H 0.98131 0.98164 0.20076 0.0
H111 H 0.07971 0.98058 0.63762 0.0
H112 H 0.98449 0.00563 0.85018 0.0
H113 H 0.12168 0.99097 0.6829 0.0
H114 H 0.89868 0.9771 0.29387 0.0
H115 H 0.02794 0.03947 0.02932 0.0
H116 H 0.07279 0.0453 0.00567 0.0
H117 H 0.87717 0.99391 0.41362 0.0
H118 H 0.10921 0.03681 0.92368 0.0
N119 N 0.02214 0.01139 0.81668 0.0
C120 C 0.00222 0.01237 0.86698 0.0
C121 C 0.02657 0.03156 0.97002 0.0
C122 C 0.04717 0.02952 0.92074 0.0
C123 C 0.00413 0.02244 0.94364 0.0
C124 C 0.04447 0.01882 0.84403 0.0
H125 H 0.12764 0.01622 0.80421 0.0
N126 N 0.06207 0.00128 0.72899 0.0
C127 C 0.10592 0.99774 0.71554 0.0
C128 C 0.065 0.01386 0.79833 0.0
C129 C 0.08214 0.99196 0.69006 0.0
C130 C 0.1092 0.01206 0.78384 0.0
C131 C 0.08868 0.01974 0.82742 0.0
O132 O 0.03792 0.9559 0.68563 0.0
O133 O 0.99436 0.99044 0.58502 0.0
O134 O 0.95499 0.0123 0.64121 0.0
O135 O 0.98137 0.99009 0.72534 0.0
O136 O 0.02646 0.97091 0.57281 0.0
O137 O 0.00827 0.96364 0.76862 0.0
O138 O 0.95797 0.0605 0.52694 0.0
O139 O 0.00549 0.02855 0.64742 0.0
O140 O 0.04723 0.01369 0.6055 0.0
O141 O 0.01953 0.03202 0.51663 0.0
O142 O 0.97607 0.05186 0.6528 0.0
O143 O 0.99247 0.0554 0.46171 0.0
C144 C 0.00502 0.97475 0.54185 0.0
C145 C 0.03278 0.92788 0.79598 0.0
C146 C 0.02316 0.89233 0.88124 0.0
C147 C 0.01565 0.91341 0.83821 0.0
C148 C 0.04832 0.88624 0.88203 0.0
C149 C 0.05774 0.92146 0.79829 0.0
C150 C 0.06541 0.90079 0.84137 0.0
C151 C 0.95953 0.99861 0.70455 0.0
C152 C 0.02363 0.94728 0.74161 0.0
C153 C 0.09121 0.03196 0.90087 0.0
C154 C 0.07049 0.03678 0.94756 0.0
C155 C 0.99638 0.04581 0.68797 0.0
C156 C 0.96993 0.09343 0.435 0.0
C157 C 0.98887 0.10447 0.38966 0.0
C158 C 0.98471 0.12702 0.3502 0.0
C159 C 0.9616 0.13831 0.35581 0.0
C160 C 0.94697 0.10514 0.43977 0.0
C161 C 0.94286 0.1274 0.40023 0.0
C162 C 0.042 0.02705 0.54153 0.0
C163 C 0.97345 0.06935 0.47477 0.0
H164 H 0.99635 0.91829 0.83575 0.0
H165 H 0.05481 0.86981 0.91219 0.0
H166 H 0.07124 0.93202 0.76527 0.0
H167 H 0.08463 0.89567 0.84172 0.0
H168 H 0.00669 0.09567 0.38504 0.0
H169 H 0.95805 0.1556 0.32546 0.0
H170 H 0.93204 0.09695 0.47331 0.0
H171 H 0.92505 0.13619 0.40383 0.0
Eu172 Eu 0.51565 0.03346 0.69764 0.0
C173 C 0.51543 0.94114 0.45717 0.0
C174 C 0.53728 0.95754 0.34262 0.0
C175 C 0.53344 0.91335 0.35902 0.0
C176 C 0.52353 0.96118 0.41345 0.0
C177 C 0.52019 0.91698 0.43006 0.0
C178 C 0.54202 0.93359 0.31554 0.0
C179 C 0.49725 0.90157 0.54293 0.0
N180 N 0.5025 0.94517 0.52531 0.0
C181 C 0.49278 0.92579 0.56691 0.0
C182 C 0.51107 0.89713 0.47429 0.0
Eu183 Eu 0.49134 0.98644 0.55442 0.0
N184 N 0.51821 0.98416 0.44033 0.0
C185 C 0.52704 0.00423 0.39944 0.0
C186 C 0.5459 0.97806 0.30083 0.0
C187 C 0.54095 0.00148 0.32991 0.0
H188 H 0.48115 0.92903 0.61827 0.0
H189 H 0.54791 0.01753 0.29886 0.0
H190 H 0.55229 0.93052 0.26091 0.0
H191 H 0.48964 0.88635 0.57663 0.0
H192 H 0.52446 0.02268 0.42065 0.0
H193 H 0.45896 0.99873 0.9481 0.0
H194 H 0.55657 0.97602 0.24655 0.0
H195 H 0.52117 0.09238 0.63629 0.0
H196 H 0.47742 0.99641 0.81589 0.0
H197 H 0.51618 0.13391 0.69275 0.0
H198 H 0.53709 0.89496 0.33706 0.0
H199 H 0.4593 0.03782 0.0232 0.0
H200 H 0.46877 0.08281 0.02527 0.0
H201 H 0.51424 0.87835 0.45521 0.0
H202 H 0.48335 0.11977 0.955 0.0
N203 N 0.48976 0.03385 0.81408 0.0
C204 C 0.47832 0.01374 0.84678 0.0
C205 C 0.46771 0.03697 0.96453 0.0
C206 C 0.4778 0.05793 0.92892 0.0
C207 C 0.46745 0.01492 0.92235 0.0
C208 C 0.48863 0.05583 0.8525 0.0
H209 H 0.49986 0.13909 0.82968 0.0
N210 N 0.50522 0.07415 0.73659 0.0
C211 C 0.51031 0.11798 0.7267 0.0
C212 C 0.49645 0.07667 0.8122 0.0
C213 C 0.51253 0.09441 0.69411 0.0
C214 C 0.50127 0.12082 0.80421 0.0
C215 C 0.49421 0.10006 0.84802 0.0
O216 O 0.54767 0.05629 0.72057 0.0
O217 O 0.52407 0.00358 0.61115 0.0
O218 O 0.50747 0.96483 0.65899 0.0
O219 O 0.5161 0.99546 0.75384 0.0
O220 O 0.54427 0.0357 0.59997 0.0
O221 O 0.54272 0.02285 0.78945 0.0
O222 O 0.45696 0.96643 0.54533 0.0
O223 O 0.48305 0.0172 0.63784 0.0
O224 O 0.49902 0.0556 0.59252 0.0
O225 O 0.49026 0.02428 0.50073 0.0
O226 O 0.46152 0.98619 0.64837 0.0
O227 O 0.46593 0.99387 0.4534 0.0
C228 C 0.5417 0.0134 0.57489 0.0
C229 C 0.5837 0.03919 0.78064 0.0
C230 C 0.6202 0.02793 0.85817 0.0
C231 C 0.59453 0.02761 0.84777 0.0
C232 C 0.63497 0.03986 0.80142 0.0
C233 C 0.59897 0.0508 0.72408 0.0
C234 C 0.6244 0.05115 0.73475 0.0
C235 C 0.5138 0.97215 0.73184 0.0
C236 C 0.55664 0.04194 0.77598 0.0
C237 C 0.48484 0.10202 0.92599 0.0
C238 C 0.47664 0.08098 0.96626 0.0
C239 C 0.46401 0.00883 0.67013 0.0
C240 C 0.42631 0.97208 0.44156 0.0
C241 C 0.41458 0.98853 0.38799 0.0
C242 C 0.39167 0.98229 0.35387 0.0
C243 C 0.38059 0.95982 0.37478 0.0
C244 C 0.41471 0.94975 0.46105 0.0
C245 C 0.39203 0.94374 0.42796 0.0
C246 C 0.49232 0.04777 0.52011 0.0
C247 C 0.44994 0.97807 0.48098 0.0
H248 H 0.58304 0.01897 0.8927 0.0
H249 H 0.65473 0.04052 0.80905 0.0
H250 H 0.59129 0.06018 0.67256 0.0
H251 H 0.63595 0.06048 0.69164 0.0
H252 H 0.42319 0.00589 0.37269 0.0
H253 H 0.36294 0.9547 0.34983 0.0
H254 H 0.42317 0.93684 0.5022 0.0
H255 H 0.38328 0.9265 0.44356 0.0
Eu256 Eu 0.53042 0.49019 0.53628 0.0
C257 C 0.42991 0.51123 0.71166 0.0
C258 C 0.40765 0.53553 0.61398 0.0
C259 C 0.38524 0.51323 0.71662 0.0
C260 C 0.42998 0.52641 0.64549 0.0
C261 C 0.40755 0.50482 0.74904 0.0
C262 C 0.3853 0.52853 0.64909 0.0
C263 C 0.43105 0.48455 0.85264 0.0
N264 N 0.45178 0.50407 0.74276 0.0
C265 C 0.45269 0.49171 0.814 0.0
C266 C 0.40835 0.49096 0.81966 0.0
Eu267 Eu 0.488 0.51881 0.68035 0.0
N268 N 0.45195 0.53351 0.61499 0.0
C269 C 0.45279 0.55062 0.55498 0.0
C270 C 0.40849 0.55217 0.55013 0.0
C271 C 0.43119 0.55991 0.52099 0.0
H272 H 0.47026 0.48715 0.84047 0.0
H273 H 0.4321 0.57312 0.47252 0.0
H274 H 0.368 0.53538 0.6258 0.0
H275 H 0.43191 0.47433 0.90824 0.0
H276 H 0.47002 0.557 0.53163 0.0
H277 H 0.5794 0.43149 0.75577 0.0
H278 H 0.39179 0.55961 0.52431 0.0
H279 H 0.55551 0.53028 0.40227 0.0
H280 H 0.54399 0.44647 0.68375 0.0
H281 H 0.59528 0.54817 0.37056 0.0
H282 H 0.3679 0.50852 0.74449 0.0
H283 H 0.62024 0.44956 0.7325 0.0
H284 H 0.64642 0.47917 0.65865 0.0
H285 H 0.39161 0.48572 0.85029 0.0
H286 H 0.65067 0.51102 0.55565 0.0
N287 N 0.56334 0.47441 0.6178 0.0
C288 C 0.56117 0.45528 0.67121 0.0
C289 C 0.60447 0.45674 0.70038 0.0
C290 C 0.60696 0.47591 0.64532 0.0
C291 C 0.5815 0.44643 0.71335 0.0
C292 C 0.58582 0.48473 0.60477 0.0
H293 H 0.6319 0.53681 0.44926 0.0
N294 N 0.56793 0.51109 0.50723 0.0
C295 C 0.59351 0.53607 0.42178 0.0
C296 C 0.58817 0.50337 0.54805 0.0
C297 C 0.57069 0.5262 0.44181 0.0
C298 C 0.61411 0.52954 0.46612 0.0
C299 C 0.61176 0.51269 0.52888 0.0
O300 O 0.53214 0.48934 0.40568 0.0
O301 O 0.4932 0.50712 0.55352 0.0
O302 O 0.48079 0.47729 0.68594 0.0
O303 O 0.51242 0.45994 0.60846 0.0
O304 O 0.49485 0.47358 0.49392 0.0
O305 O 0.54642 0.45862 0.47576 0.0
O306 O 0.4945 0.5304 0.80359 0.0
O307 O 0.52691 0.51064 0.64974 0.0
O308 O 0.52474 0.53008 0.49841 0.0
O309 O 0.50671 0.54893 0.60887 0.0
O310 O 0.51551 0.49964 0.76095 0.0
O311 O 0.48562 0.55775 0.71356 0.0
C312 C 0.48058 0.49086 0.51886 0.0
C313 C 0.53647 0.45091 0.33977 0.0
C314 C 0.51477 0.41552 0.28549 0.0
C315 C 0.51949 0.43161 0.34959 0.0
C316 C 0.52752 0.41867 0.21297 0.0
C317 C 0.54879 0.45381 0.26679 0.0
C318 C 0.5444 0.43769 0.20384 0.0
C319 C 0.49356 0.45818 0.65847 0.0
C320 C 0.54287 0.46786 0.4045 0.0
C321 C 0.63253 0.50409 0.56996 0.0
C322 C 0.63012 0.48588 0.62833 0.0
C323 C 0.53462 0.50333 0.71675 0.0
C324 C 0.48187 0.56972 0.85007 0.0
C325 C 0.49473 0.5914 0.86684 0.0
C326 C 0.48734 0.60696 0.9293 0.0
C327 C 0.46674 0.60038 0.97532 0.0
C328 C 0.46125 0.5634 0.8958 0.0
C329 C 0.45375 0.57876 0.95829 0.0
C330 C 0.51851 0.54975 0.53999 0.0
C331 C 0.49172 0.55365 0.78766 0.0
H332 H 0.50997 0.42926 0.40602 0.0
H333 H 0.5246 0.40619 0.16338 0.0
H334 H 0.56209 0.46845 0.25883 0.0
H335 H 0.55418 0.43989 0.14793 0.0
H336 H 0.51097 0.59585 0.83209 0.0
H337 H 0.46051 0.61208 0.0236 0.0
H338 H 0.45122 0.5466 0.88378 0.0
H339 H 0.43786 0.57388 0.99381 0.0
Eu340 Eu 0.02242 0.53114 0.55025 0.0
C341 C 0.9886 0.43256 0.73518 0.0
C342 C 0.96392 0.41039 0.63868 0.0
C343 C 0.98362 0.38821 0.74761 0.0
C344 C 0.97385 0.43264 0.66788 0.0
C345 C 0.99342 0.41039 0.77643 0.0
C346 C 0.96894 0.3882 0.67875 0.0
C347 C 0.01645 0.43383 0.87358 0.0
N348 N 0.99794 0.45423 0.76121 0.0
C349 C 0.01109 0.45532 0.83073 0.0
C350 C 0.00772 0.41123 0.84602 0.0
Eu351 Eu 0.98741 0.49018 0.68906 0.0
N352 N 0.96948 0.45441 0.6303 0.0
C353 C 0.95475 0.45509 0.56385 0.0
C354 C 0.94923 0.41106 0.57006 0.0
C355 C 0.94462 0.43353 0.53261 0.0
H356 H 0.01767 0.47285 0.85245 0.0
H357 H 0.93324 0.43427 0.4795 0.0
H358 H 0.96147 0.37097 0.6572 0.0
H359 H 0.02721 0.43473 0.92798 0.0
H360 H 0.95089 0.47203 0.53301 0.0
H361 H 0.06943 0.5902 0.76787 0.0
H362 H 0.94133 0.39438 0.54568 0.0
H363 H 0.99599 0.54654 0.37759 0.0
H364 H 0.05657 0.55132 0.70786 0.0
H365 H 0.98443 0.58406 0.30208 0.0
H366 H 0.98717 0.37099 0.77835 0.0
H367 H 0.05723 0.6297 0.70593 0.0
H368 H 0.03625 0.65195 0.59339 0.0
H369 H 0.01182 0.3946 0.87943 0.0
H370 H 0.01321 0.65034 0.46677 0.0
N371 N 0.03618 0.56799 0.61301 0.0
C372 C 0.05078 0.56814 0.67969 0.0
C373 C 0.05127 0.61255 0.6793 0.0
C374 C 0.03719 0.61236 0.60928 0.0
C375 C 0.05824 0.59031 0.71428 0.0
C376 C 0.02983 0.5895 0.57716 0.0
H377 H 0.99386 0.62515 0.35774 0.0
N378 N 0.01091 0.56632 0.4757 0.0
C379 C 0.99347 0.58562 0.35954 0.0
C380 C 0.01686 0.58863 0.50618 0.0
C381 C 3e-05 0.56445 0.40229 0.0
C382 C -0.00122 0.60877 0.39123 0.0
C383 C 0.01089 0.61051 0.46492 0.0
O384 O 0.03813 0.51838 0.43814 0.0
O385 O 0.00871 0.49335 0.57591 0.0
O386 O 0.02721 0.47775 0.69211 0.0
O387 O 0.04621 0.5139 0.64697 0.0
O388 O 0.00431 0.50602 0.4603 0.0
O389 O 0.06234 0.53225 0.53026 0.0
O390 O 0.97367 0.50099 0.80611 0.0
O391 O 0.00121 0.52741 0.66209 0.0
O392 O 0.98295 0.54322 0.54077 0.0
O393 O 0.96354 0.50817 0.59364 0.0
O394 O 0.00593 0.51601 0.77745 0.0
O395 O 0.94774 0.49336 0.71126 0.0
C396 C 0.00219 0.48701 0.50643 0.0
C397 C 0.07729 0.53076 0.39589 0.0
C398 C 0.11037 0.52039 0.30311 0.0
C399 C 0.09558 0.5145 0.3694 0.0
C400 C 0.10667 0.54309 0.2642 0.0
C401 C 0.07367 0.55319 0.35612 0.0
C402 C 0.08843 0.55933 0.29064 0.0
C403 C 0.04665 0.49211 0.6824 0.0
C404 C 0.06071 0.52242 0.45933 0.0
C405 C 0.01767 0.63333 0.4975 0.0
C406 C 0.03078 0.63425 0.56958 0.0
C407 C 0.00725 0.53491 0.73046 0.0
C408 C 0.93369 0.49034 0.84614 0.0
C409 C 0.9155 0.50589 0.87843 0.0
C410 C 0.90135 0.49813 0.9442 0.0
C411 C 0.90527 0.47452 0.97621 0.0
C412 C 0.93712 0.46673 0.87825 0.0
C413 C 0.92287 0.45886 0.94286 0.0
C414 C 0.96354 0.5291 0.55279 0.0
C415 C 0.95062 0.50014 0.78554 0.0
H416 H 0.0981 0.49707 0.40014 0.0
H417 H 0.11751 0.54806 0.21232 0.0
H418 H 0.05924 0.56566 0.37482 0.0
H419 H 0.08549 0.57658 0.25951 0.0
H420 H 0.91306 0.52431 0.85458 0.0
H421 H 0.89464 0.46819 0.027 0.0
H422 H 0.95118 0.45465 0.85463 0.0
H423 H 0.92574 0.44071 0.96804 0.0
H424 H 0.16126 0.03579 0.26111 0.0
H425 H 0.12461 0.09907 0.15631 0.0
H426 H 0.08855 0.09155 0.2411 0.0
H427 H 0.10179 0.99795 0.29305 0.0
H428 H 0.11339 0.98552 0.38579 0.0
H429 H 0.13428 0.99261 0.30537 0.0
H430 H 0.1591 0.01982 0.40297 0.0
H431 H 0.13765 0.01391 0.48262 0.0
H432 H 0.14412 0.04513 0.45266 0.0
H433 H 0.063 0.08523 0.35558 0.0
H434 H 0.03906 0.07094 0.46966 0.0
H435 H 0.08816 0.00849 0.4998 0.0
C436 C 0.14514 0.04729 0.25402 0.0
C437 C 0.14552 0.06816 0.20324 0.0
C438 C 0.12452 0.0832 0.19571 0.0
C439 C 0.10405 0.07909 0.24361 0.0
C440 C 0.10492 0.05974 0.29802 0.0
C441 C 0.12427 0.04332 0.30169 0.0
C442 C 0.12047 0.02487 0.36944 0.0
C443 C 0.11728 0.99869 0.33641 0.0
C444 C 0.1416 0.02601 0.43052 0.0
C445 C 0.09665 0.03448 0.40512 0.0
C446 C 0.08849 0.05482 0.36291 0.0
C447 C 0.06849 0.06869 0.38709 0.0
C448 C 0.05518 0.06052 0.45265 0.0
C449 C 0.06132 0.03824 0.49203 0.0
C450 C 0.08295 0.02547 0.47027 0.0
H451 H 0.45441 0.17323 0.28963 0.0
H452 H 0.44828 0.12766 0.07784 0.0
H453 H 0.45904 0.09096 0.15852 0.0
H454 H 0.50765 0.14193 0.37087 0.0
H455 H 0.4982 0.1445 0.47384 0.0
H456 H 0.48859 0.16732 0.40184 0.0
H457 H 0.44308 0.15935 0.43865 0.0
H458 H 0.45256 0.13658 0.51095 0.0
H459 H 0.43105 0.1285 0.43324 0.0
H460 H 0.47121 0.06051 0.25459 0.0
H461 H 0.48396 0.03511 0.36562 0.0
H462 H 0.48472 0.0991 0.52256 0.0
C463 C 0.45533 0.15542 0.26082 0.0
C464 C 0.4505 0.15292 0.17805 0.0
C465 C 0.45203 0.12968 0.14118 0.0
C466 C 0.45814 0.10888 0.18625 0.0
C467 C 0.46318 0.11188 0.26731 0.0
C468 C 0.46201 0.13443 0.30474 0.0
C469 C 0.46915 0.13216 0.39262 0.0
C470 C 0.49227 0.14739 0.41085 0.0
C471 C 0.44767 0.13958 0.44709 0.0
C472 C 0.47443 0.10472 0.39831 0.0
C473 C 0.4707 0.09372 0.32477 0.0
C474 C 0.4742 0.06884 0.31255 0.0
C475 C 0.48158 0.05455 0.37708 0.0
C476 C 0.48556 0.06493 0.45419 0.0
C477 C 0.48202 0.09055 0.46478 0.0
H478 H 0.3688 0.43209 0.30273 0.0
H479 H 0.3743 0.49099 0.12763 0.0
H480 H 0.40381 0.51261 0.21513 0.0
H481 H 0.37357 0.47055 0.48128 0.0
H482 H 0.39181 0.44818 0.53463 0.0
H483 H 0.36973 0.4382 0.46112 0.0
H484 H 0.40381 0.41454 0.38416 0.0
H485 H 0.4257 0.4239 0.45865 0.0
H486 H 0.43128 0.43067 0.35463 0.0
H487 H 0.43574 0.52526 0.31377 0.0
H488 H 0.46969 0.52648 0.41177 0.0
H489 H 0.44132 0.46112 0.52713 0.0
C490 C 0.37607 0.44962 0.2829 0.0
C491 C 0.36921 0.45993 0.20863 0.0
C492 C 0.37927 0.4828 0.18455 0.0
C493 C 0.39586 0.4953 0.23407 0.0
C494 C 0.40193 0.48477 0.30761 0.0
C495 C 0.39245 0.46238 0.33169 0.0
C496 C 0.40326 0.45411 0.4106 0.0
C497 C 0.3834 0.45268 0.47576 0.0
C498 C 0.41682 0.42936 0.40141 0.0
C499 C 0.4209 0.47501 0.42619 0.0
C500 C 0.41964 0.4927 0.36655 0.0
C501 C 0.43632 0.51208 0.36239 0.0
C502 C 0.45533 0.51284 0.41878 0.0
C503 C 0.45703 0.49473 0.47931 0.0
C504 C 0.43938 0.47593 0.484 0.0
H505 H 0.04948 0.39636 0.16735 0.0
H506 H 0.05915 0.34171 0.35433 0.0
H507 H 0.03869 0.36913 0.45091 0.0
H508 H 0.06384 0.44664 0.29706 0.0
H509 H 0.0431 0.46812 0.25016 0.0
H510 H 0.05629 0.44345 0.19261 0.0
H511 H 0.01275 0.42869 0.15233 0.0
H512 H -0.00057 0.45341 0.20936 0.0
H513 H 0.99044 0.42205 0.22915 0.0
H514 H 0.0255 0.40468 0.53116 0.0
H515 H 0.01456 0.44486 0.58756 0.0
H516 H 0.00646 0.47489 0.3489 0.0
C517 C 0.04673 0.3901 0.22826 0.0
C518 C 0.05575 0.36703 0.25401 0.0
C519 C 0.05248 0.35948 0.33423 0.0
C520 C 0.04082 0.37483 0.38923 0.0
C521 C 0.03269 0.39774 0.36302 0.0
C522 C 0.03534 0.40541 0.28449 0.0
C523 C 0.02693 0.43185 0.27445 0.0
C524 C 0.04883 0.44849 0.25222 0.0
C525 C 0.00613 0.4341 0.21267 0.0
C526 C 0.01808 0.43725 0.35862 0.0
C527 C 0.02244 0.4176 0.40917 0.0
C528 C 0.02046 0.41972 0.49188 0.0
C529 C 0.01364 0.4425 0.52367 0.0
C530 C 0.00714 0.46233 0.4731 0.0
C531 C 0.00953 0.45957 0.38925 0.0
H532 H 0.87881 0.9232 0.01595 0.0
H533 H 0.838 0.9905 0.05834 0.0
H534 H 0.86576 0.01293 0.96674 0.0
H535 H 0.94048 0.9544 0.00261 0.0
H536 H 0.95097 0.93304 0.92766 0.0
H537 H 0.92938 0.92315 0.00279 0.0
H538 H 0.89984 0.90882 0.89036 0.0
H539 H 0.92108 0.91927 0.81525 0.0
H540 H 0.88994 0.93059 0.81532 0.0
H541 H 0.89335 0.02606 0.855 0.0
H542 H 0.92458 0.03139 0.749 0.0
H543 H 0.94982 0.9566 0.78815 0.0
C544 C 0.87612 0.94277 0.00715 0.0
C545 C 0.85627 0.95518 0.04334 0.0
C546 C 0.85322 0.98077 0.03116 0.0
C547 C 0.8688 0.9936 0.97909 0.0
C548 C 0.88767 0.98064 0.94183 0.0
C549 C 0.89194 0.95599 0.95725 0.0
C550 C 0.9134 0.94638 0.90885 0.0
C551 C 0.93482 0.93881 0.96377 0.0
C552 C 0.90558 0.92501 0.85421 0.0
C553 C 0.91966 0.96914 0.86089 0.0
C554 C 0.90453 0.98866 0.88055 0.0
C555 C 0.90565 0.0111 0.84022 0.0
C556 C 0.92316 0.01385 0.77956 0.0
C557 C 0.93941 0.99438 0.76094 0.0
C558 C 0.93761 0.97177 0.80194 0.0
H559 H 0.56747 0.84918 0.92508 0.0
H560 H 0.55074 0.88085 0.15679 0.0
H561 H 0.52963 0.91557 0.08992 0.0
H562 H 0.58067 0.90263 0.82359 0.0
H563 H 0.56608 0.89446 0.73047 0.0
H564 H 0.57747 0.87073 0.79597 0.0
H565 H 0.53441 0.85047 0.79965 0.0
H566 H 0.52293 0.87404 0.73326 0.0
H567 H 0.5081 0.8686 0.82805 0.0
H568 H 0.51819 0.94963 0.99994 0.0
H569 H 0.5106 0.97911 0.8926 0.0
H570 H 0.52929 0.92386 0.71543 0.0
C571 C 0.559 0.86327 0.96154 0.0
C572 C 0.56089 0.86264 0.04584 0.0
C573 C 0.54947 0.88112 0.0921 0.0
C574 C 0.53744 0.90084 0.05466 0.0
C575 C 0.53644 0.90125 0.97127 0.0
C576 C 0.54632 0.88268 0.92517 0.0
C577 C 0.5433 0.88806 0.83653 0.0
C578 C 0.56837 0.88904 0.79418 0.0
C579 C 0.52616 0.86917 0.79705 0.0
C580 C 0.53139 0.91325 0.84004 0.0
C581 C 0.52769 0.92038 0.91856 0.0
C582 C 0.51996 0.94392 0.93822 0.0
C583 C 0.51564 0.96059 0.87627 0.0
C584 C 0.51831 0.95359 0.79503 0.0
C585 C 0.5262 0.92948 0.77674 0.0
H586 H 0.64413 0.53336 0.02303 0.0
H587 H 0.62776 0.61019 0.97262 0.0
H588 H 0.59565 0.59763 0.87824 0.0
H589 H 0.63513 0.51136 0.82182 0.0
H590 H 0.62077 0.48289 0.85128 0.0
H591 H 0.64263 0.49744 0.91685 0.0
H592 H 0.61013 0.49757 0.03055 0.0
H593 H 0.58844 0.48295 0.96457 0.0
H594 H 0.58054 0.51152 0.01276 0.0
H595 H 0.56875 0.57815 0.78234 0.0
H596 H 0.54146 0.55199 0.70425 0.0
H597 H 0.57111 0.48693 0.81992 0.0
C598 C 0.63357 0.54747 0.99268 0.0
C599 C 0.63866 0.57279 0.0042 0.0
C600 C 0.62445 0.59073 0.96376 0.0
C601 C 0.60619 0.5838 0.90994 0.0
C602 C 0.60226 0.55885 0.89749 0.0
C603 C 0.61503 0.54084 0.93851 0.0
C604 C 0.60653 0.51532 0.91334 0.0
C605 C 0.62753 0.50091 0.87347 0.0
C606 C 0.59576 0.50101 0.98457 0.0
C607 C 0.58685 0.52205 0.85269 0.0
C608 C 0.58537 0.54729 0.84354 0.0
C609 C 0.5696 0.55836 0.78914 0.0
C610 C 0.55436 0.54326 0.74411 0.0
C611 C 0.5545 0.51741 0.75457 0.0
C612 C 0.571 0.50659 0.80962 0.0
H613 H 0.98321 0.63795 0.05941 0.0
H614 H 0.90959 0.64281 0.95954 0.0
H615 H 0.92147 0.61438 0.8522 0.0
H616 H 0.01586 0.6336 0.86909 0.0
H617 H 0.03792 0.61146 0.90513 0.0
H618 H 0.02458 0.63341 0.97321 0.0
H619 H 0.00968 0.59789 0.06505 0.0
H620 H 0.02337 0.57597 0.99795 0.0
H621 H 0.99126 0.57355 0.02306 0.0
H622 H 0.94048 0.58645 0.7563 0.0
H623 H 0.96379 0.55457 0.68737 0.0
H624 H 0.02502 0.56489 0.84962 0.0
C625 C 0.96963 0.63304 0.01482 0.0
C626 C 0.94552 0.64279 0.01736 0.0
C627 C 0.92818 0.63571 0.95861 0.0
C628 C 0.93479 0.61971 0.89702 0.0
C629 C 0.95877 0.61088 0.89518 0.0
C630 C 0.97587 0.61684 0.95302 0.0
C631 C -6e-05 0.60336 0.93899 0.0
C632 C 0.02081 0.62155 0.92054 0.0
C633 C 0.00643 0.5867 0.01051 0.0
C634 C 0.99335 0.58847 0.86546 0.0
C635 C 0.96973 0.59378 0.84027 0.0
C636 C 0.95913 0.58238 0.77462 0.0
C637 C 0.97274 0.56451 0.73477 0.0
C638 C 0.99658 0.55789 0.76102 0.0
C639 C 0.00712 0.57016 0.82697 0.0
H640 H 0.06635 0.24271 0.24879 0.0
H641 H 0.06064 0.2217 0.99959 0.0
H642 H 0.04301 0.18188 0.03942 0.0
H643 H 0.07894 0.18055 0.3319 0.0
H644 H 0.06017 0.18606 0.41882 0.0
H645 H 0.07606 0.21127 0.37134 0.0
H646 H 0.03489 0.23479 0.35509 0.0
H647 H 0.01898 0.20981 0.40298 0.0
H648 H 0.00955 0.22001 0.30492 0.0
H649 H 0.02163 0.14588 0.10673 0.0
H650 H 0.99628 0.11899 0.19389 0.0
H651 H 0.01461 0.16411 0.39831 0.0
C652 C 0.06188 0.22961 0.2023 0.0
C653 C 0.06553 0.23541 0.12041 0.0
C654 C 0.05883 0.21774 0.06224 0.0
C655 C 0.04865 0.19494 0.08461 0.0
C656 C 0.04513 0.19001 0.16576 0.0
C657 C 0.05151 0.20693 0.22369 0.0
C658 C 0.04362 0.19838 0.30618 0.0
C659 C 0.06604 0.19379 0.36024 0.0
C660 C 0.02569 0.21684 0.34449 0.0
C661 C 0.03093 0.17444 0.28541 0.0
C662 C 0.03246 0.1696 0.20431 0.0
C663 C 0.0207 0.1493 0.17042 0.0
C664 C 0.00645 0.13407 0.22022 0.0
C665 C 0.00401 0.13933 0.30264 0.0
C666 C 0.01679 0.15944 0.33574 0.0
H667 H 0.29471 0.08506 0.23558 0.0
H668 H 0.27741 0.03797 0.0342 0.0
H669 H 0.31487 0.01413 0.05835 0.0
H670 H 0.36472 0.08024 0.21279 0.0
H671 H 0.36916 0.07982 0.31963 0.0
H672 H 0.34399 0.09699 0.27669 0.0
H673 H 0.31329 0.07309 0.36609 0.0
H674 H 0.33839 0.05619 0.40929 0.0
H675 H 0.31317 0.0399 0.36364 0.0
H676 H 0.3494 0.99122 0.1149 0.0
H677 H 0.37846 0.96966 0.20377 0.0
H678 H 0.37449 0.02982 0.373 0.0
C679 C 0.29927 0.07014 0.19538 0.0
C680 C 0.28355 0.06402 0.13083 0.0
C681 C 0.28972 0.04396 0.08096 0.0
C682 C 0.31095 0.03008 0.09483 0.0
C683 C 0.32596 0.03638 0.15906 0.0
C684 C 0.32057 0.05601 0.20851 0.0
C685 C 0.33853 0.05706 0.27827 0.0
C686 C 0.35508 0.07989 0.27143 0.0
C687 C 0.32502 0.05649 0.35907 0.0
C688 C 0.35326 0.03367 0.26408 0.0
C689 C 0.34618 0.02262 0.19325 0.0
C690 C 0.35554 -6e-05 0.16952 0.0
C691 C 0.37202 0.98781 0.22037 0.0
C692 C 0.37891 0.9982 0.29462 0.0
C693 C 0.36996 0.02178 0.31571 0.0
H694 H 0.42911 0.31932 0.08085 0.0
H695 H 0.45059 0.26758 0.26588 0.0
H696 H 0.46784 0.30188 0.34552 0.0
H697 H 0.48323 0.34964 0.08414 0.0
H698 H 0.47112 0.37971 0.06159 0.0
H699 H 0.45497 0.35277 0.02861 0.0
H700 H 0.41563 0.36692 0.10167 0.0
H701 H 0.43124 0.39439 0.13397 0.0
H702 H 0.41691 0.37448 0.20662 0.0
H703 H 0.48824 0.34098 0.39428 0.0
H704 H 0.51221 0.37973 0.40171 0.0
H705 H 0.4782 0.40474 0.18162 0.0
C706 C 0.43645 0.31532 0.13973 0.0
C707 C 0.43806 0.29096 0.16823 0.0
C708 C 0.4489 0.28625 0.24372 0.0
C709 C 0.45864 0.30562 0.28937 0.0
C710 C 0.45748 0.32946 0.25818 0.0
C711 C 0.44668 0.33426 0.18478 0.0
C712 C 0.45145 0.36031 0.15735 0.0
C713 C 0.46605 0.3606 0.0783 0.0
C714 C 0.42736 0.37488 0.14952 0.0
C715 C 0.46684 0.36947 0.22628 0.0
C716 C 0.4699 0.35163 0.28461 0.0
C717 C 0.48557 0.35524 0.34979 0.0
C718 C 0.49903 0.37729 0.35376 0.0
C719 C 0.49692 0.39511 0.29224 0.0
C720 C 0.47996 0.39144 0.22968 0.0
H721 H 0.24243 0.47754 0.1457 0.0
H722 H 0.21474 0.40275 0.14256 0.0
H723 H 0.17421 0.41765 0.18859 0.0
H724 H 0.21098 0.49729 0.32177 0.0
H725 H 0.2047 0.5278 0.28438 0.0
H726 H 0.23131 0.51127 0.24975 0.0
H727 H 0.21674 0.51675 0.10314 0.0
H728 H 0.19005 0.53329 0.13721 0.0
H729 H 0.18647 0.50651 0.07483 0.0
H730 H 0.13702 0.44079 0.23941 0.0
H731 H 0.10568 0.47039 0.28579 0.0
H732 H 0.15764 0.53016 0.25462 0.0
C733 C 0.22779 0.46432 0.15444 0.0
C734 C 0.23158 0.43901 0.1394 0.0
C735 C 0.21203 0.42227 0.1517 0.0
C736 C 0.18902 0.43056 0.17853 0.0
C737 C 0.18585 0.45566 0.1925 0.0
C738 C 0.20467 0.47231 0.18041 0.0
C739 C 0.19647 0.49832 0.19928 0.0
C740 C 0.21177 0.5093 0.26788 0.0
C741 C 0.19749 0.51468 0.12413 0.0
C742 C 0.1702 0.49369 0.22493 0.0
C743 C 0.16443 0.46896 0.22075 0.0
C744 C 0.14134 0.4602 0.24268 0.0
C745 C 0.12369 0.47715 0.2694 0.0
C746 C 0.12918 0.50263 0.27392 0.0
C747 C 0.15277 0.51088 0.251 0.0
H748 H 0.98392 0.78393 0.17416 0.0
H749 H 0.9183 0.77529 0.02944 0.0
H750 H 0.92851 0.81333 0.95622 0.0
H751 H 0.98121 0.85368 0.18041 0.0
H752 H 0.01421 0.85591 0.17692 0.0
H753 H -0.00012 0.83002 0.22569 0.0
H754 H 0.02465 0.80031 0.13524 0.0
H755 H 0.03883 0.82603 0.08579 0.0
H756 H 0.02246 0.80337 0.02798 0.0
H757 H 0.94858 0.8492 0.88701 0.0
H758 H 0.97684 0.87973 0.82857 0.0
H759 H 0.02822 0.86674 0.02314 0.0
C760 C 0.97109 0.79051 0.12972 0.0
C761 C 0.95005 0.77666 0.10892 0.0
C762 C 0.93448 0.78554 0.04706 0.0
C763 C 0.94004 0.80725 0.00523 0.0
C764 C 0.96112 0.82021 0.02634 0.0
C765 C 0.97624 0.81236 0.08789 0.0
C766 C -0.00126 0.82868 0.09475 0.0
C767 C 0.99849 0.84291 0.17416 0.0
C768 C 0.02256 0.81369 0.08533 0.0
C769 C 0.99468 0.84587 0.02436 0.0
C770 C 0.97263 0.84105 0.98666 0.0
C771 C 0.96568 0.85346 0.91705 0.0
C772 C 0.98187 0.87092 0.8844 0.0
C773 C 0.00487 0.87582 0.92106 0.0
C774 C 0.01093 0.8634 0.99305 0.0
H775 H 0.71577 0.93472 0.04 0.0
H776 H 0.73324 0.99161 0.21222 0.0
H777 H 0.69586 0.01414 0.17413 0.0
H778 H 0.6993 0.97432 0.88995 0.0
H779 H 0.67494 0.95569 0.84923 0.0
H780 H 0.6998 0.94135 0.90259 0.0
H781 H 0.66856 0.92085 0.99893 0.0
H782 H 0.64354 0.93538 0.94601 0.0
H783 H 0.64687 0.93975 0.05233 0.0
H784 H 0.66016 0.03378 0.10322 0.0
H785 H 0.63143 0.04965 1.00007 0.0
H786 H 0.63798 0.98133 0.86949 0.0
C787 C 0.71137 0.95158 0.07131 0.0
C788 C 0.72704 0.96075 0.13185 0.0
C789 C 0.72098 0.98332 0.16929 0.0
C790 C 0.6998 0.99648 0.14722 0.0
C791 C 0.68485 0.987 0.08693 0.0
C792 C 0.69042 0.96505 0.04934 0.0
C793 C 0.67327 0.96043 0.97942 0.0
C794 C 0.68769 0.95781 0.90068 0.0
C795 C 0.6571 0.93775 0.99514 0.0
C796 C 0.65812 0.98383 0.98059 0.0
C797 C 0.66459 0.99863 0.04447 0.0
C798 C 0.65459 0.02211 0.05404 0.0
C799 C 0.63825 0.03097 0.99548 0.0
C800 C 0.63221 0.01642 0.92827 0.0
C801 C 0.6418 0.9924 0.92182 0.0
H802 H 0.55364 0.71015 0.1937 0.0
H803 H 0.57036 0.74767 0.97052 0.0
H804 H 0.55079 0.71418 0.89548 0.0
H805 H 0.563 0.64817 0.12178 0.0
H806 H 0.53784 0.63564 0.1788 0.0
H807 H 0.5541 0.66227 0.21484 0.0
H808 H 0.51281 0.68708 0.2209 0.0
H809 H 0.49708 0.65978 0.18772 0.0
H810 H 0.49363 0.68826 0.13329 0.0
H811 H 0.52843 0.67769 0.84405 0.0
H812 H 0.50449 0.63999 0.81943 0.0
H813 H 0.50167 0.62584 0.07513 0.0
C814 C 0.55305 0.71149 0.12931 0.0
C815 C 0.56346 0.73173 0.0884 0.0
C816 C 0.56265 0.73235 0.00355 0.0
C817 C 0.55152 0.71342 0.96015 0.0
C818 C 0.54126 0.69389 0.00226 0.0
C819 C 0.5419 0.69272 0.08482 0.0
C820 C 0.52902 0.66981 0.11511 0.0
C821 C 0.54706 0.65297 0.16029 0.0
C822 C 0.50682 0.67663 0.16737 0.0
C823 C 0.52089 0.65846 0.03664 0.0
C824 C 0.52827 0.67266 0.97237 0.0
C825 C 0.52264 0.66632 0.89382 0.0
C826 C 0.50908 0.64484 0.88046 0.0
C827 C 0.50124 0.62994 0.9453 0.0
C828 C 0.50723 0.63695 0.02442 0.0
H829 H 0.77019 0.5624 0.98739 0.0
H830 H 0.78799 0.5749 0.23695 0.0
H831 H 0.82996 0.55908 0.21377 0.0
H832 H 0.80217 0.5059 0.9703 0.0
H833 H 0.81229 0.51121 0.86909 0.0
H834 H 0.7844 0.52527 0.90431 0.0
H835 H 0.80125 0.56816 0.86461 0.0
H836 H 0.82931 0.55422 0.8298 0.0
H837 H 0.8304 0.57824 0.90395 0.0
H838 H 0.86918 0.53941 0.1651 0.0
H839 H 0.90188 0.51588 0.09626 0.0
H840 H 0.85908 0.51664 0.87764 0.0
C841 C 0.78302 0.56205 0.03695 0.0
C842 C 0.77572 0.56964 0.1143 0.0
C843 C 0.79296 0.56867 0.17772 0.0
C844 C 0.81696 0.56 0.1648 0.0
C845 C 0.82349 0.55238 0.088 0.0
C846 C 0.80699 0.55327 0.02513 0.0
C847 C 0.81807 0.54245 0.94966 0.0
C848 C 0.80336 0.51987 0.92173 0.0
C849 C 0.81987 0.56194 0.88308 0.0
C850 C 0.84331 0.53508 0.97998 0.0
C851 C 0.84612 0.54115 0.05985 0.0
C852 C 0.86725 0.53481 0.10245 0.0
C853 C 0.88569 0.52143 0.06303 0.0
C854 C 0.88299 0.51466 0.98178 0.0
C855 C 0.86173 0.522 0.93942 0.0
H856 H 0.05958 0.17737 0.65279 0.0
H857 H 0.07534 0.17019 0.9071 0.0
H858 H 0.06026 0.12793 0.90529 0.0
H859 H 0.0049 0.14429 0.65312 0.0
H860 H 0.00947 0.12843 0.55973 0.0
H861 H 0.02382 0.1578 0.57622 0.0
H862 H 0.06684 0.13916 0.54766 0.0
H863 H 0.05202 0.11027 0.52735 0.0
H864 H 0.07636 0.11175 0.60045 0.0
H865 H 0.03357 0.09262 0.8864 0.0
H866 H 0.0065 0.05938 0.84104 0.0
H867 H 0.01608 0.08197 0.5959 0.0
C868 C 0.06048 0.16663 0.70738 0.0
C869 C 0.06836 0.17726 0.78022 0.0
C870 C 0.06912 0.16267 0.85064 0.0
C871 C 0.06062 0.13855 0.85045 0.0
C872 C 0.05198 0.12895 0.779 0.0
C873 C 0.05246 0.14207 0.70803 0.0
C874 C 0.04121 0.12712 0.64061 0.0
C875 C 0.01851 0.14019 0.60541 0.0
C876 C 0.06027 0.12173 0.57522 0.0
C877 C 0.034 0.10393 0.68598 0.0
C878 C 0.03985 0.10586 0.76609 0.0
C879 C 0.03065 0.08962 0.82311 0.0
C880 C 0.01581 0.0703 0.79715 0.0
C881 C 0.01196 0.06617 0.7152 0.0
C882 C 0.02064 0.08359 0.65874 0.0
H883 H 0.32106 0.03893 0.68318 0.0
H884 H 0.34008 0.0923 0.86502 0.0
H885 H 0.38403 0.08746 0.83241 0.0
H886 H 0.36388 0.99725 0.72711 0.0
H887 H 0.37234 0.98816 0.62706 0.0
H888 H 0.34236 0.00069 0.64556 0.0
H889 H 0.3499 0.03408 0.53815 0.0
H890 H 0.38014 0.0217 0.5196 0.0
H891 H 0.37649 0.05366 0.54538 0.0
H892 H 0.42555 0.07861 0.77138 0.0
H893 H 0.46196 0.05633 0.72284 0.0
H894 H 0.41651 0.99933 0.62445 0.0
C895 C 0.33454 0.05029 0.71321 0.0
C896 C 0.32751 0.06666 0.77416 0.0
C897 C 0.34538 0.08035 0.81617 0.0
C898 C 0.37026 0.07784 0.79777 0.0
C899 C 0.3768 0.06132 0.73801 0.0
C900 C 0.35958 0.04739 0.69728 0.0
C901 C 0.37195 0.028 0.64614 0.0
C902 C 0.36205 0.00199 0.66267 0.0
C903 C 0.36947 0.03476 0.55704 0.0
C904 C 0.39829 0.03113 0.67336 0.0
C905 C 0.40082 0.05195 0.71968 0.0
C906 C 0.42368 0.06124 0.74045 0.0
C907 C 0.44437 0.04798 0.71667 0.0
C908 C 0.44211 0.0243 0.68358 0.0
C909 C 0.41872 0.01631 0.65746 0.0
H910 H 0.41931 0.35243 0.88954 0.0
H911 H 0.46069 0.29934 0.74997 0.0
H912 H 0.48237 0.33345 0.68223 0.0
H913 H 0.41176 0.39774 0.73372 0.0
H914 H 0.41537 0.42357 0.8002 0.0
H915 H 0.40305 0.395 0.83741 0.0
H916 H 0.43692 0.39361 0.94665 0.0
H917 H 0.44918 0.42222 0.90949 0.0
H918 H 0.46874 0.39554 0.91728 0.0
H919 H 0.49973 0.37294 0.63113 0.0
H920 H 0.51148 0.4152 0.59704 0.0
H921 H 0.45851 0.44311 0.76893 0.0
C922 C 0.4328 0.34793 0.84428 0.0
C923 C 0.4382 0.32317 0.82467 0.0
C924 C 0.45615 0.31813 0.76569 0.0
C925 C 0.46859 0.33738 0.72705 0.0
C926 C 0.46287 0.36153 0.74812 0.0
C927 C 0.44538 0.36689 0.8052 0.0
C928 C 0.44279 0.39447 0.81691 0.0
C929 C 0.41669 0.4032 0.79576 0.0
C930 C 0.44983 0.40189 0.90269 0.0
C931 C 0.46144 0.40379 0.75684 0.0
C932 C 0.47287 0.38443 0.71831 0.0
C933 C 0.4909 0.38824 0.66085 0.0
C934 C 0.49745 0.41246 0.64206 0.0
C935 C 0.48599 0.43277 0.68037 0.0
C936 C 0.46767 0.42821 0.73847 0.0
H937 H 0.16612 0.40994 0.74195 0.0
H938 H 0.19088 0.46576 0.90846 0.0
H939 H 0.15596 0.49221 0.87038 0.0
H940 H 0.13781 0.45429 0.589 0.0
H941 H 0.11283 0.43331 0.5705 0.0
H942 H 0.14283 0.42156 0.59597 0.0
H943 H 0.12335 0.39703 0.71282 0.0
H944 H 0.09349 0.40934 0.68979 0.0
H945 H 0.10622 0.41322 0.78858 0.0
H946 H 0.11587 0.50938 0.83225 0.0
H947 H 0.07355 0.51813 0.7873 0.0
H948 H 0.07293 0.45044 0.65065 0.0
C949 C 0.16461 0.42814 0.76774 0.0
C950 C 0.18101 0.43598 0.82774 0.0
C951 C 0.17834 0.45956 0.86231 0.0
C952 C 0.15866 0.4747 0.84091 0.0
C953 C 0.14188 0.46589 0.78507 0.0
C954 C 0.14477 0.44335 0.74785 0.0
C955 C 0.12255 0.43711 0.69704 0.0
C956 C 0.12942 0.43654 0.60784 0.0
C957 C 0.11071 0.41273 0.72372 0.0
C958 C 0.10619 0.45888 0.7157 0.0
C959 C 0.11801 0.4755 0.76501 0.0
C960 C 0.10654 0.49672 0.79266 0.0
C961 C 0.08252 0.50143 0.76749 0.0
C962 C 0.07022 0.48479 0.71651 0.0
C963 C 0.08201 0.46314 0.69081 0.0
H964 H 0.97242 0.8341 0.5612 0.0
H965 H 0.9549 0.84081 0.3084 0.0
H966 H 0.9545 0.88557 0.32014 0.0
H967 H 0.93553 0.89262 0.62381 0.0
H968 H 0.95829 0.90065 0.69767 0.0
H969 H 0.9519 0.86875 0.67681 0.0
H970 H 0.99775 0.86122 0.64739 0.0
H971 H 0.00444 0.89296 0.66755 0.0
H972 H 0.01308 0.87971 0.57292 0.0
H973 H 0.97283 0.92473 0.34317 0.0
H974 H 0.99578 0.96041 0.38923 0.0
H975 H 0.98952 0.93607 0.63329 0.0
C976 C 0.96756 0.84511 0.50945 0.0
C977 C 0.96421 0.83411 0.43354 0.0
C978 C 0.95813 0.84891 0.36666 0.0
C979 C 0.95759 0.87437 0.37281 0.0
C980 C 0.96257 0.88483 0.44669 0.0
C981 C 0.96651 0.87091 0.51495 0.0
C982 C 0.97363 0.88738 0.58475 0.0
C983 C 0.95363 0.88735 0.64956 0.0
C984 C -0.00129 0.87986 0.62014 0.0
C985 C 0.97501 0.91217 0.54244 0.0
C986 C 0.96883 0.90998 0.46264 0.0
C987 C 0.97529 0.92778 0.40662 0.0
C988 C 0.98779 0.94857 0.43307 0.0
C989 C 0.99152 0.95282 0.5149 0.0
C990 C 0.98519 0.93419 0.5706 0.0
H991 H 0.67841 0.00121 0.42237 0.0
H992 H 0.67309 0.92229 0.45985 0.0
H993 H 0.62966 0.9272 0.50041 0.0
H994 H 0.64047 0.01934 0.58745 0.0
H995 H 0.62692 0.04475 0.53368 0.0
H996 H 0.65755 0.03471 0.50971 0.0
H997 H 0.64448 0.02892 0.36143 0.0
H998 H 0.61369 0.03861 0.38517 0.0
H999 H 0.61882 0.00924 0.33811 0.0
H1000 H 0.58697 0.94125 0.53955 0.0
H1001 H 0.54922 0.96342 0.57817 0.0
H1002 H 0.58238 0.03244 0.50552 0.0
C1003 C 0.66823 0.98493 0.43976 0.0
C1004 C 0.6791 0.96137 0.43819 0.0
C1005 C 0.66508 0.94054 0.46078 0.0
C1006 C 0.64042 0.94312 0.48357 0.0
C1007 C 0.63014 0.96662 0.48278 0.0
C1008 C 0.64367 0.98714 0.46175 0.0
C1009 C 0.62846 0.01035 0.46556 0.0
C1010 C 0.63898 0.02834 0.5278 0.0
C1011 C 0.62624 0.02249 0.38262 0.0
C1012 C 0.60423 -0.00024 0.49253 0.0
C1013 C 0.6055 0.97452 0.50225 0.0
C1014 C 0.58568 0.96096 0.53111 0.0
C1015 C 0.56425 0.97367 0.55228 0.0
C1016 C 0.56273 -0.00046 0.54291 0.0
C1017 C 0.58289 0.0126 0.5117 0.0
H1018 H 0.56204 0.68773 0.58259 0.0
H1019 H 0.52832 0.7027 0.35252 0.0
H1020 H 0.52103 0.65807 0.33399 0.0
H1021 H 0.59006 0.62713 0.5272 0.0
H1022 H 0.58407 0.6147 0.62531 0.0
H1023 H 0.59023 0.64709 0.61319 0.0
H1024 H 0.54923 0.65716 0.68497 0.0
H1025 H 0.5428 0.62492 0.69615 0.0
H1026 H 0.52093 0.64466 0.64645 0.0
H1027 H 0.51407 0.61187 0.34683 0.0
H1028 H 0.50699 0.5689 0.39305 0.0
H1029 H 0.54321 0.58575 0.61707 0.0
C1030 C 0.55364 0.6816 0.52736 0.0
C1031 C 0.54607 0.69863 0.46842 0.0
C1032 C 0.53489 0.68993 0.39739 0.0
C1033 C 0.53057 0.66463 0.38654 0.0
C1034 C 0.5378 0.64835 0.44683 0.0
C1035 C 0.54928 0.65655 0.51564 0.0
C1036 C 0.55347 0.63579 0.57453 0.0
C1037 C 0.5811 0.63089 0.5857 0.0
C1038 C 0.54084 0.64095 0.65522 0.0
C1039 C 0.54129 0.61488 0.53021 0.0
C1040 C 0.53297 0.6222 0.45566 0.0
C1041 C 0.52076 0.60591 0.40475 0.0
C1042 C 0.51684 0.58162 0.43119 0.0
C1043 C 0.52459 0.57424 0.50832 0.0
C1044 C 0.53709 0.59101 0.55786 0.0
H1045 H 0.82559 0.57568 0.52958 0.0
H1046 H 0.8164 0.52039 0.34425 0.0
H1047 H 0.86033 0.51097 0.35027 0.0
H1048 H 0.8844 0.5978 0.47066 0.0
H1049 H 0.89664 0.60055 0.57051 0.0
H1050 H 0.86408 0.60359 0.55364 0.0
H1051 H 0.85537 0.56881 0.656 0.0
H1052 H 0.88785 0.56612 0.67461 0.0
H1053 H 0.87046 0.53948 0.64472 0.0
H1054 H 0.90448 0.50831 0.36974 0.0
H1055 H 0.94697 0.50705 0.42117 0.0
H1056 H 0.92867 0.56236 0.59783 0.0
C1057 C 0.83286 0.56139 0.49122 0.0
C1058 C 0.81765 0.54884 0.43633 0.0
C1059 C 0.82766 0.53014 0.38723 0.0
C1060 C 0.85266 0.52481 0.38944 0.0
C1061 C 0.8673 0.538 0.44206 0.0
C1062 C 0.85785 0.55538 0.49385 0.0
C1063 C 0.87778 0.56572 0.54755 0.0
C1064 C 0.8809 0.59357 0.53476 0.0
C1065 C 0.87255 0.55966 0.63593 0.0
C1066 C 0.89982 0.55158 0.51662 0.0
C1067 C 0.89325 0.53599 0.45498 0.0
C1068 C 0.90999 0.52045 0.41772 0.0
C1069 C 0.93401 0.52 0.44661 0.0
C1070 C 0.94082 0.53496 0.51172 0.0
C1071 C 0.92382 0.55133 0.54634 0.0
loop_
_geom_bond_atom_site_label_1
_geom_bond_atom_site_label_2
_geom_bond_distance
_geom_bond_site_symmetry_2
_ccdc_geom_bond_type
O0 Cd1 2.300 . S
O0 C7 1.275 . S
Cd1 O0 2.300 . S
Cd1 O9 2.381 . S
Cd1 O10 2.378 . S
O2 Cd3 2.385 . S
O2 C7 1.255 . S
Cd3 O2 2.385 . S
Cd3 O4 2.317 . S
O4 Cd3 2.317 . S
O4 C5 1.232 . S
C5 O4 1.232 . S
C5 O6 1.218 . S
O6 C5 1.218 . S
C7 O0 1.275 . S
C7 O2 1.255 . S
C8 O9 1.258 . S
C8 O10 1.256 . S
O9 Cd1 2.381 . S
O9 C8 1.258 . S
O10 Cd1 2.378 . S
O10 C8 1.256 . S
O11 Cd12 2.300 . S
O11 C18 1.275 . S
Cd12 O11 2.300 . S
Cd12 O20 2.381 . S
Cd12 O21 2.378 . S
O13 Cd14 2.385 . S
O13 C18 1.255 . S
Cd14 O13 2.385 . S
Cd14 O15 2.317 . S
O15 Cd14 2.317 . S
O15 C16 1.232 . S
C16 O15 1.232 . S
C16 O17 1.218 . S
O17 C16 1.218 . S
C18 O11 1.275 . S
C18 O13 1.255 . S
C19 O20 1.258 . S
C19 O21 1.256 . S
O20 Cd12 2.381 . S
O20 C19 1.258 . S
O21 Cd12 2.378 . S
O21 C19 1.256 . S
O22 Cd23 2.300 . S
O22 C29 1.275 . S
Cd23 O22 2.300 . S
Cd23 O31 2.381 . S
Cd23 O32 2.378 . S
O24 Cd25 2.385 1_565 S
O24 C29 1.255 . S
Cd25 O24 2.385 1_545 S
Cd25 O26 2.317 1_545 S
O26 Cd25 2.317 1_565 S
O26 C27 1.232 . S
C27 O26 1.232 . S
C27 O28 1.218 . S
O28 C27 1.218 . S
C29 O22 1.275 . S
C29 O24 1.255 . S
C30 O31 1.258 . S
C30 O32 1.256 . S
O31 Cd23 2.381 . S
O31 C30 1.258 . S
O32 Cd23 2.378 . S
O32 C30 1.256 . S
O33 Cd34 2.300 . S
O33 C40 1.275 . S
Cd34 O33 2.300 . S
Cd34 O42 2.381 . S
Cd34 O43 2.378 . S
O35 Cd36 2.385 . S
O35 C40 1.255 . S
Cd36 O35 2.385 . S
Cd36 O37 2.317 . S
O37 Cd36 2.317 . S
O37 C38 1.232 . S
C38 O37 1.232 . S
C38 O39 1.218 . S
O39 C38 1.218 . S
C40 O33 1.275 . S
C40 O35 1.255 . S
C41 O42 1.258 . S
C41 O43 1.256 . S
O42 Cd34 2.381 . S
O42 C41 1.258 . S
O43 Cd34 2.378 . S
O43 C41 1.256 . S
O44 Cd45 2.300 . S
O44 C51 1.275 . S
Cd45 O44 2.300 . S
Cd45 O53 2.381 . S
Cd45 O54 2.378 . S
O46 Cd47 2.385 1_554 S
O46 C51 1.255 . S
Cd47 O46 2.385 1_556 S
Cd47 O48 2.317 . S
O48 Cd47 2.317 . S
O48 C49 1.232 . S
C49 O48 1.232 . S
C49 O50 1.218 . S
O50 C49 1.218 . S
C51 O44 1.275 . S
C51 O46 1.255 . S
C52 O53 1.258 . S
C52 O54 1.256 . S
O53 Cd45 2.381 . S
O53 C52 1.258 . S
O54 Cd45 2.378 . S
O54 C52 1.256 . S
O55 Cd56 2.300 . S
O55 C62 1.275 . S
Cd56 O55 2.300 . S
Cd56 O64 2.381 . S
Cd56 O65 2.378 . S
O57 Cd58 2.385 1_554 S
O57 C62 1.255 . S
Cd58 O57 2.385 1_556 S
Cd58 O59 2.317 . S
O59 Cd58 2.317 . S
O59 C60 1.232 . S
C60 O59 1.232 . S
C60 O61 1.218 . S
O61 C60 1.218 . S
C62 O55 1.275 . S
C62 O57 1.255 . S
C63 O64 1.258 . S
C63 O65 1.256 . S
O64 Cd56 2.381 . S
O64 C63 1.258 . S
O65 Cd56 2.378 . S
O65 C63 1.256 . S
O66 Cd67 2.300 . S
O66 C73 1.275 . S
Cd67 O66 2.300 . S
Cd67 O75 2.381 . S
Cd67 O76 2.378 . S
O68 Cd69 2.385 1_554 S
O68 C73 1.255 . S
Cd69 O68 2.385 1_556 S
Cd69 O70 2.317 . S
O70 Cd69 2.317 . S
O70 C71 1.232 . S
C71 O70 1.232 . S
C71 O72 1.218 . S
O72 C71 1.218 . S
C73 O66 1.275 . S
C73 O68 1.255 . S
C74 O75 1.258 . S
C74 O76 1.256 . S
O75 Cd67 2.381 . S
O75 C74 1.258 . S
O76 Cd67 2.378 . S
O76 C74 1.256 . S
O77 Cd78 2.300 . S
O77 C84 1.275 . S
Cd78 O77 2.300 . S
Cd78 O86 2.381 . S
Cd78 O87 2.378 . S
O79 Cd80 2.385 1_554 S
O79 C84 1.255 . S
Cd80 O79 2.385 1_556 S
Cd80 O81 2.317 . S
O81 Cd80 2.317 . S
O81 C82 1.232 . S
C82 O81 1.232 . S
C82 O83 1.218 . S
O83 C82 1.218 . S
C84 O77 1.275 . S
C84 O79 1.255 . S
C85 O86 1.258 . S
C85 O87 1.256 . S
O86 Cd78 2.381 . S
O86 C85 1.258 . S
O87 Cd78 2.378 . S
O87 C85 1.256 . S
Eu88 N119 2.657 1_565 S
Eu88 N126 2.613 . S
Eu88 O132 2.558 . S
Eu88 O133 2.612 1_455 S
Eu88 O135 2.339 1_455 S
Eu88 O136 2.563 . S
Eu88 O137 2.419 . S
Eu88 O139 2.380 1_565 S
Eu88 O140 2.432 . S
Eu88 C152 2.848 . S
C89 C92 1.429 1_545 S
C89 C93 1.411 . S
C89 N96 1.377 . S
C90 C92 1.420 . S
C90 C94 1.423 . S
C90 C102 1.392 . S
C91 C93 1.420 1_565 S
C91 C94 1.351 . S
C91 H114 0.931 . S
C92 C89 1.429 1_565 S
C92 C90 1.420 . S
C92 N100 1.362 1_565 S
C93 C89 1.411 . S
C93 C91 1.420 1_545 S
C93 C98 1.395 . S
C94 C90 1.423 . S
C94 C91 1.351 . S
C94 H106 0.930 . S
C95 C97 1.400 . S
C95 C98 1.386 . S
C95 H107 0.930 . S
N96 C89 1.377 . S
N96 C97 1.321 . S
N96 Eu99 2.609 . S
C97 C95 1.400 . S
C97 N96 1.321 . S
C97 H104 0.930 . S
C98 C93 1.395 . S
C98 C95 1.386 . S
C98 H117 0.930 . S
Eu99 N96 2.609 . S
Eu99 N100 2.657 . S
Eu99 O133 2.380 1_545 S
Eu99 O134 2.432 . S
Eu99 O138 2.558 . S
Eu99 O139 2.612 1_655 S
Eu99 O141 2.339 1_655 S
Eu99 O142 2.563 1_655 S
Eu99 O143 2.419 . S
Eu99 C163 2.848 . S
N100 C92 1.362 1_545 S
N100 Eu99 2.657 . S
N100 C101 1.334 1_645 S
C101 N100 1.334 1_465 S
C101 C103 1.413 . S
C101 H108 0.929 . S
C102 C90 1.392 . S
C102 C103 1.367 1_655 S
C102 H110 0.930 . S
C103 C101 1.413 . S
C103 C102 1.367 1_455 S
C103 H105 0.930 . S
H104 C97 0.930 . S
H105 C103 0.930 . S
H106 C94 0.930 . S
H107 C95 0.930 . S
H108 C101 0.929 . S
H109 C123 0.930 1_655 S
H110 C102 0.930 . S
H111 C129 0.930 . S
H112 C120 0.929 1_655 S
H113 C127 0.930 . S
H114 C91 0.931 . S
H115 C121 0.930 1_554 S
H116 C154 0.930 1_554 S
H117 C98 0.930 . S
H118 C153 0.931 . S
N119 Eu88 2.657 1_545 S
N119 C120 1.334 . S
N119 C124 1.362 . S
C120 H112 0.929 1_455 S
C120 N119 1.334 . S
C120 C123 1.413 . S
C121 H115 0.930 1_556 S
C121 C122 1.392 . S
C121 C123 1.367 . S
C122 C121 1.392 . S
C122 C124 1.420 . S
C122 C154 1.423 . S
C123 H109 0.930 1_455 S
C123 C120 1.413 . S
C123 C121 1.367 . S
C124 N119 1.362 . S
C124 C122 1.420 . S
C124 C128 1.429 . S
H125 C130 0.930 . S
N126 Eu88 2.613 . S
N126 C128 1.368 1_565 S
N126 C129 1.329 . S
C127 H113 0.930 . S
C127 C129 1.400 . S
C127 C130 1.386 1_565 S
C128 C124 1.429 . S
C128 N126 1.368 1_545 S
C128 C131 1.411 . S
C129 H111 0.930 . S
C129 N126 1.329 . S
C129 C127 1.400 . S
C130 H125 0.930 . S
C130 C127 1.386 1_545 S
C130 C131 1.395 . S
C131 C128 1.411 . S
C131 C130 1.395 . S
C131 C153 1.420 . S
O132 Eu88 2.558 . S
O132 C152 1.257 . S
O133 Eu88 2.612 1_655 S
O133 Eu99 2.380 1_565 S
O133 C144 1.276 . S
O134 Eu99 2.432 . S
O134 C151 1.264 . S
O135 Eu88 2.339 1_655 S
O135 C151 1.254 1_565 S
O136 Eu88 2.563 . S
O136 C144 1.235 1_455 S
O137 Eu88 2.419 . S
O137 C152 1.249 . S
O138 Eu99 2.558 . S
O138 C163 1.257 . S
O139 Eu88 2.380 1_545 S
O139 Eu99 2.612 1_455 S
O139 C155 1.276 . S
O140 Eu88 2.432 . S
O140 C162 1.264 1_565 S
O141 Eu99 2.339 1_455 S
O141 C162 1.254 . S
O142 Eu99 2.563 1_455 S
O142 C155 1.235 . S
O143 Eu99 2.419 . S
O143 C163 1.249 . S
C144 O133 1.276 . S
C144 O136 1.235 1_655 S
C145 C147 1.393 . S
C145 C149 1.395 . S
C145 C152 1.492 . S
C146 C147 1.392 . S
C146 C148 1.386 . S
C147 C145 1.393 . S
C147 C146 1.392 . S
C147 H164 0.930 1_455 S
C148 C146 1.386 . S
C148 C150 1.395 . S
C148 H165 0.930 . S
C149 C145 1.395 . S
C149 C150 1.379 . S
C149 H166 0.930 . S
C150 C148 1.395 . S
C150 C149 1.379 . S
C150 H167 0.930 . S
C151 O134 1.264 . S
C151 O135 1.254 1_545 S
C152 Eu88 2.848 . S
C152 O132 1.257 . S
C152 O137 1.249 . S
C152 C145 1.492 . S
C153 H118 0.931 . S
C153 C131 1.420 . S
C153 C154 1.351 . S
C154 H116 0.930 1_556 S
C154 C122 1.423 . S
C154 C153 1.351 . S
C155 O139 1.276 . S
C155 O142 1.235 . S
C156 C157 1.393 . S
C156 C160 1.395 . S
C156 C163 1.492 . S
C157 C156 1.393 . S
C157 C158 1.392 . S
C157 H168 0.930 1_655 S
C158 C157 1.392 . S
C158 C159 1.386 . S
C159 C158 1.386 . S
C159 C161 1.395 . S
C159 H169 0.930 . S
C160 C156 1.395 . S
C160 C161 1.379 . S
C160 H170 0.930 . S
C161 C159 1.395 . S
C161 C160 1.379 . S
C161 H171 0.930 . S
C162 O140 1.264 1_545 S
C162 O141 1.254 . S
C163 Eu99 2.848 . S
C163 O138 1.257 . S
C163 O143 1.249 . S
C163 C156 1.492 . S
H164 C147 0.930 1_655 S
H165 C148 0.930 . S
H166 C149 0.930 . S
H167 C150 0.930 . S
H168 C157 0.930 1_455 S
H169 C159 0.930 . S
H170 C160 0.930 . S
H171 C161 0.930 . S
Eu172 N203 2.657 . S
Eu172 N210 2.609 . S
Eu172 O216 2.558 . S
Eu172 O217 2.612 1_545 S
Eu172 O219 2.339 1_545 S
Eu172 O220 2.563 . S
Eu172 O221 2.419 . S
Eu172 O223 2.380 . S
Eu172 O224 2.432 . S
Eu172 C236 2.848 . S
C173 C176 1.429 . S
C173 C177 1.411 . S
C173 N180 1.377 . S
C174 C176 1.420 . S
C174 C178 1.423 . S
C174 C186 1.392 . S
C175 C177 1.420 . S
C175 C178 1.351 . S
C175 H198 0.931 . S
C176 C173 1.429 . S
C176 C174 1.420 . S
C176 N184 1.362 . S
C177 C173 1.411 . S
C177 C175 1.420 . S
C177 C182 1.395 . S
C178 C174 1.423 . S
C178 C175 1.351 . S
C178 H190 0.930 . S
C179 C181 1.400 . S
C179 C182 1.386 . S
C179 H191 0.930 . S
N180 C173 1.377 . S
N180 C181 1.321 . S
N180 Eu183 2.609 . S
C181 C179 1.400 . S
C181 N180 1.321 . S
C181 H188 0.930 . S
C182 C177 1.395 . S
C182 C179 1.386 . S
C182 H201 0.930 . S
Eu183 N180 2.609 . S
Eu183 N184 2.657 . S
Eu183 O217 2.380 . S
Eu183 O218 2.432 . S
Eu183 O222 2.558 . S
Eu183 O223 2.612 1_565 S
Eu183 O225 2.339 1_565 S
Eu183 O226 2.563 1_565 S
Eu183 O227 2.419 1_565 S
Eu183 C247 2.848 . S
N184 C176 1.362 . S
N184 Eu183 2.657 . S
N184 C185 1.334 1_565 S
C185 N184 1.334 1_545 S
C185 C187 1.413 . S
C185 H192 0.929 . S
C186 C174 1.392 . S
C186 C187 1.367 1_565 S
C186 H194 0.930 . S
C187 C185 1.413 . S
C187 C186 1.367 1_545 S
C187 H189 0.930 . S
H188 C181 0.930 . S
H189 C187 0.930 . S
H190 C178 0.930 . S
H191 C179 0.930 . S
H192 C185 0.929 . S
H193 C207 0.930 1_565 S
H194 C186 0.930 . S
H195 C213 0.930 . S
H196 C204 0.929 1_565 S
H197 C211 0.930 . S
H198 C175 0.931 . S
H199 C205 0.930 1_554 S
H200 C238 0.930 1_554 S
H201 C182 0.930 . S
H202 C237 0.931 . S
N203 Eu172 2.657 . S
N203 C204 1.334 . S
N203 C208 1.362 . S
C204 H196 0.929 1_545 S
C204 N203 1.334 . S
C204 C207 1.413 . S
C205 H199 0.930 1_556 S
C205 C206 1.392 . S
C205 C207 1.367 . S
C206 C205 1.392 . S
C206 C208 1.420 . S
C206 C238 1.423 . S
C207 H193 0.930 1_545 S
C207 C204 1.413 . S
C207 C205 1.367 . S
C208 N203 1.362 . S
C208 C206 1.420 . S
C208 C212 1.429 . S
H209 C214 0.930 . S
N210 Eu172 2.609 . S
N210 C212 1.377 . S
N210 C213 1.321 . S
C211 H197 0.930 . S
C211 C213 1.400 . S
C211 C214 1.386 . S
C212 C208 1.429 . S
C212 N210 1.377 . S
C212 C215 1.411 . S
C213 H195 0.930 . S
C213 N210 1.321 . S
C213 C211 1.400 . S
C214 H209 0.930 . S
C214 C211 1.386 . S
C214 C215 1.395 . S
C215 C212 1.411 . S
C215 C214 1.395 . S
C215 C237 1.420 . S
O216 Eu172 2.558 . S
O216 C236 1.257 . S
O217 Eu172 2.612 1_565 S
O217 Eu183 2.380 . S
O217 C228 1.276 . S
O218 Eu183 2.432 . S
O218 C235 1.264 . S
O219 Eu172 2.339 1_565 S
O219 C235 1.254 . S
O220 Eu172 2.563 . S
O220 C228 1.235 1_545 S
O221 Eu172 2.419 . S
O221 C236 1.249 . S
O222 Eu183 2.558 . S
O222 C247 1.257 . S
O223 Eu172 2.380 . S
O223 Eu183 2.612 1_545 S
O223 C239 1.276 . S
O224 Eu172 2.432 . S
O224 C246 1.264 . S
O225 Eu183 2.339 1_545 S
O225 C246 1.254 . S
O226 Eu183 2.563 1_545 S
O226 C239 1.235 . S
O227 Eu183 2.419 1_545 S
O227 C247 1.250 1_545 S
C228 O217 1.276 . S
C228 O220 1.235 1_565 S
C229 C231 1.393 . S
C229 C233 1.395 . S
C229 C236 1.492 . S
C230 C231 1.392 . S
C230 C232 1.386 . S
C231 C229 1.393 . S
C231 C230 1.392 . S
C231 H248 0.930 . S
C232 C230 1.386 . S
C232 C234 1.395 . S
C232 H249 0.930 . S
C233 C229 1.395 . S
C233 C234 1.379 . S
C233 H250 0.930 . S
C234 C232 1.395 . S
C234 C233 1.379 . S
C234 H251 0.930 . S
C235 O218 1.264 . S
C235 O219 1.254 . S
C236 Eu172 2.848 . S
C236 O216 1.257 . S
C236 O221 1.249 . S
C236 C229 1.492 . S
C237 H202 0.931 . S
C237 C215 1.420 . S
C237 C238 1.351 . S
C238 H200 0.930 1_556 S
C238 C206 1.423 . S
C238 C237 1.351 . S
C239 O223 1.276 . S
C239 O226 1.235 . S
C240 C241 1.410 . S
C240 C244 1.395 . S
C240 C247 1.492 . S
C241 C240 1.410 . S
C241 C242 1.394 . S
C241 H252 0.910 1_565 S
C242 C241 1.394 . S
C242 C243 1.386 . S
C243 C242 1.386 . S
C243 C245 1.395 . S
C243 H253 0.930 . S
C244 C240 1.395 . S
C244 C245 1.379 . S
C244 H254 0.930 . S
C245 C243 1.395 . S
C245 C244 1.379 . S
C245 H255 0.930 . S
C246 O224 1.264 . S
C246 O225 1.254 . S
C247 Eu183 2.848 . S
C247 O222 1.257 . S
C247 O227 1.250 1_565 S
C247 C240 1.492 . S
H248 C231 0.930 . S
H249 C232 0.930 . S
H250 C233 0.930 . S
H251 C234 0.930 . S
H252 C241 0.910 1_545 S
H253 C243 0.930 . S
H254 C244 0.930 . S
H255 C245 0.930 . S
Eu256 N287 2.657 . S
Eu256 N294 2.609 . S
Eu256 O300 2.558 . S
Eu256 O301 2.612 . S
Eu256 O303 2.339 . S
Eu256 O304 2.563 . S
Eu256 O305 2.419 . S
Eu256 O307 2.380 . S
Eu256 O308 2.432 . S
Eu256 C320 2.848 . S
C257 C260 1.429 . S
C257 C261 1.411 . S
C257 N264 1.377 . S
C258 C260 1.420 . S
C258 C262 1.423 . S
C258 C270 1.392 . S
C259 C261 1.420 . S
C259 C262 1.351 . S
C259 H282 0.931 . S
C260 C257 1.429 . S
C260 C258 1.420 . S
C260 N268 1.362 . S
C261 C257 1.411 . S
C261 C259 1.420 . S
C261 C266 1.395 . S
C262 C258 1.423 . S
C262 C259 1.351 . S
C262 H274 0.930 . S
C263 C265 1.400 . S
C263 C266 1.386 . S
C263 H275 0.930 . S
N264 C257 1.377 . S
N264 C265 1.321 . S
N264 Eu267 2.609 . S
C265 C263 1.400 . S
C265 N264 1.321 . S
C265 H272 0.930 . S
C266 C261 1.395 . S
C266 C263 1.386 . S
C266 H285 0.930 . S
Eu267 N264 2.609 . S
Eu267 N268 2.657 . S
Eu267 O301 2.380 . S
Eu267 O302 2.432 . S
Eu267 O306 2.558 . S
Eu267 O307 2.612 . S
Eu267 O309 2.339 . S
Eu267 O310 2.563 . S
Eu267 O311 2.419 . S
Eu267 C331 2.848 . S
N268 C260 1.362 . S
N268 Eu267 2.657 . S
N268 C269 1.334 . S
C269 N268 1.334 . S
C269 C271 1.413 . S
C269 H276 0.929 . S
C270 C258 1.392 . S
C270 C271 1.367 . S
C270 H278 0.930 . S
C271 C269 1.413 . S
C271 C270 1.367 . S
C271 H273 0.930 . S
H272 C265 0.930 . S
H273 C271 0.930 . S
H274 C262 0.930 . S
H275 C263 0.930 . S
H276 C269 0.929 . S
H277 C291 0.930 . S
H278 C270 0.930 . S
H279 C297 0.930 . S
H280 C288 0.929 . S
H281 C295 0.930 . S
H282 C259 0.931 . S
H283 C289 0.930 . S
H284 C322 0.930 . S
H285 C266 0.930 . S
H286 C321 0.931 . S
N287 Eu256 2.657 . S
N287 C288 1.334 . S
N287 C292 1.362 . S
C288 H280 0.929 . S
C288 N287 1.334 . S
C288 C291 1.413 . S
C289 H283 0.930 . S
C289 C290 1.392 . S
C289 C291 1.367 . S
C290 C289 1.392 . S
C290 C292 1.420 . S
C290 C322 1.423 . S
C291 H277 0.930 . S
C291 C288 1.413 . S
C291 C289 1.367 . S
C292 N287 1.362 . S
C292 C290 1.420 . S
C292 C296 1.429 . S
H293 C298 0.930 . S
N294 Eu256 2.609 . S
N294 C296 1.377 . S
N294 C297 1.321 . S
C295 H281 0.930 . S
C295 C297 1.400 . S
C295 C298 1.386 . S
C296 C292 1.429 . S
C296 N294 1.377 . S
C296 C299 1.411 . S
C297 H279 0.930 . S
C297 N294 1.321 . S
C297 C295 1.400 . S
C298 H293 0.930 . S
C298 C295 1.386 . S
C298 C299 1.395 . S
C299 C296 1.411 . S
C299 C298 1.395 . S
C299 C321 1.420 . S
O300 Eu256 2.558 . S
O300 C320 1.257 . S
O301 Eu256 2.612 . S
O301 Eu267 2.380 . S
O301 C312 1.276 . S
O302 Eu267 2.432 . S
O302 C319 1.264 . S
O303 Eu256 2.339 . S
O303 C319 1.254 . S
O304 Eu256 2.563 . S
O304 C312 1.235 . S
O305 Eu256 2.419 . S
O305 C320 1.249 . S
O306 Eu267 2.558 . S
O306 C331 1.257 . S
O307 Eu256 2.380 . S
O307 Eu267 2.612 . S
O307 C323 1.276 . S
O308 Eu256 2.432 . S
O308 C330 1.264 . S
O309 Eu267 2.339 . S
O309 C330 1.254 . S
O310 Eu267 2.563 . S
O310 C323 1.235 . S
O311 Eu267 2.419 . S
O311 C331 1.249 . S
C312 O301 1.276 . S
C312 O304 1.235 . S
C313 C315 1.393 . S
C313 C317 1.395 . S
C313 C320 1.492 . S
C314 C315 1.392 . S
C314 C316 1.386 . S
C315 C313 1.393 . S
C315 C314 1.392 . S
C315 H332 0.930 . S
C316 C314 1.386 . S
C316 C318 1.395 . S
C316 H333 0.930 . S
C317 C313 1.395 . S
C317 C318 1.379 . S
C317 H334 0.930 . S
C318 C316 1.395 . S
C318 C317 1.379 . S
C318 H335 0.930 . S
C319 O302 1.264 . S
C319 O303 1.254 . S
C320 Eu256 2.848 . S
C320 O300 1.257 . S
C320 O305 1.249 . S
C320 C313 1.492 . S
C321 H286 0.931 . S
C321 C299 1.420 . S
C321 C322 1.351 . S
C322 H284 0.930 . S
C322 C290 1.423 . S
C322 C321 1.351 . S
C323 O307 1.276 . S
C323 O310 1.235 . S
C324 C325 1.393 . S
C324 C328 1.395 . S
C324 C331 1.492 . S
C325 C324 1.393 . S
C325 C326 1.392 . S
C325 H336 0.930 . S
C326 C325 1.392 . S
C326 C327 1.386 1_556 S
C327 C326 1.386 1_554 S
C327 C329 1.395 . S
C327 H337 0.930 . S
C328 C324 1.395 . S
C328 C329 1.379 1_556 S
C328 H338 0.930 . S
C329 C327 1.395 . S
C329 C328 1.379 1_554 S
C329 H339 0.930 . S
C330 O308 1.264 . S
C330 O309 1.254 . S
C331 Eu267 2.848 . S
C331 O306 1.257 . S
C331 O311 1.249 . S
C331 C324 1.492 . S
H332 C315 0.930 . S
H333 C316 0.930 . S
H334 C317 0.930 . S
H335 C318 0.930 . S
H336 C325 0.930 . S
H337 C327 0.930 . S
H338 C328 0.930 . S
H339 C329 0.930 . S
Eu340 N371 2.657 . S
Eu340 N378 2.609 . S
Eu340 O384 2.558 . S
Eu340 O385 2.612 . S
Eu340 O387 2.339 . S
Eu340 O388 2.563 . S
Eu340 O389 2.419 . S
Eu340 O391 2.380 . S
Eu340 O392 2.432 1_455 S
Eu340 C404 2.848 . S
C341 C344 1.429 . S
C341 C345 1.411 . S
C341 N348 1.377 . S
C342 C344 1.420 . S
C342 C346 1.423 . S
C342 C354 1.392 . S
C343 C345 1.420 . S
C343 C346 1.351 . S
C343 H366 0.931 . S
C344 C341 1.429 . S
C344 C342 1.420 . S
C344 N352 1.362 . S
C345 C341 1.411 . S
C345 C343 1.420 . S
C345 C350 1.399 . S
C346 C342 1.423 . S
C346 C343 1.351 . S
C346 H358 0.930 . S
C347 C349 1.400 . S
C347 C350 1.382 1_455 S
C347 H359 0.930 . S
N348 C341 1.377 . S
N348 C349 1.321 1_655 S
N348 Eu351 2.609 . S
C349 C347 1.400 . S
C349 N348 1.321 1_455 S
C349 H356 0.930 . S
C350 C345 1.399 . S
C350 C347 1.382 1_655 S
C350 H369 0.929 1_655 S
Eu351 N348 2.609 . S
Eu351 N352 2.657 . S
Eu351 O385 2.380 1_655 S
Eu351 O386 2.432 1_655 S
Eu351 O390 2.558 . S
Eu351 O391 2.612 1_655 S
Eu351 O393 2.339 . S
Eu351 O394 2.563 . S
Eu351 O395 2.419 . S
Eu351 C415 2.848 . S
N352 C344 1.362 . S
N352 Eu351 2.657 . S
N352 C353 1.334 . S
C353 N352 1.334 . S
C353 C355 1.413 . S
C353 H360 0.929 . S
C354 C342 1.392 . S
C354 C355 1.367 . S
C354 H362 0.930 . S
C355 C353 1.413 . S
C355 C354 1.367 . S
C355 H357 0.930 . S
H356 C349 0.930 . S
H357 C355 0.930 . S
H358 C346 0.930 . S
H359 C347 0.930 . S
H360 C353 0.929 . S
H361 C375 0.930 . S
H362 C354 0.930 . S
H363 C381 0.930 1_655 S
H364 C372 0.929 . S
H365 C379 0.934 . S
H366 C343 0.931 . S
H367 C373 0.930 . S
H368 C406 0.930 . S
H369 C350 0.929 1_455 S
H370 C405 0.931 . S
N371 Eu340 2.657 . S
N371 C372 1.334 . S
N371 C376 1.362 . S
C372 H364 0.929 . S
C372 N371 1.334 . S
C372 C375 1.413 . S
C373 H367 0.930 . S
C373 C374 1.392 . S
C373 C375 1.367 . S
C374 C373 1.392 . S
C374 C376 1.420 . S
C374 C406 1.423 . S
C375 H361 0.930 . S
C375 C372 1.413 . S
C375 C373 1.367 . S
C376 N371 1.362 . S
C376 C374 1.420 . S
C376 C380 1.429 . S
H377 C382 0.930 . S
N378 Eu340 2.609 . S
N378 C380 1.377 . S
N378 C381 1.321 . S
C379 H365 0.934 . S
C379 C381 1.398 1_655 S
C379 C382 1.382 1_655 S
C380 C376 1.429 . S
C380 N378 1.377 . S
C380 C383 1.411 . S
C381 H363 0.930 1_455 S
C381 N378 1.321 . S
C381 C379 1.398 1_455 S
C382 H377 0.930 . S
C382 C379 1.382 1_455 S
C382 C383 1.395 . S
C383 C380 1.411 . S
C383 C382 1.395 . S
C383 C405 1.420 . S
O384 Eu340 2.558 . S
O384 C404 1.257 . S
O385 Eu340 2.612 . S
O385 Eu351 2.380 1_455 S
O385 C396 1.276 . S
O386 Eu351 2.432 1_455 S
O386 C403 1.264 . S
O387 Eu340 2.339 . S
O387 C403 1.254 . S
O388 Eu340 2.563 . S
O388 C396 1.235 . S
O389 Eu340 2.419 . S
O389 C404 1.249 . S
O390 Eu351 2.558 . S
O390 C415 1.257 . S
O391 Eu340 2.380 . S
O391 Eu351 2.612 1_455 S
O391 C407 1.276 1_455 S
O392 Eu340 2.432 1_655 S
O392 C414 1.264 . S
O393 Eu351 2.339 . S
O393 C414 1.254 . S
O394 Eu351 2.563 . S
O394 C407 1.235 . S
O395 Eu351 2.419 . S
O395 C415 1.249 . S
C396 O385 1.276 . S
C396 O388 1.235 . S
C397 C399 1.393 . S
C397 C401 1.395 . S
C397 C404 1.492 . S
C398 C399 1.392 . S
C398 C400 1.386 . S
C399 C397 1.393 . S
C399 C398 1.392 . S
C399 H416 0.930 . S
C400 C398 1.386 . S
C400 C402 1.395 . S
C400 H417 0.930 . S
C401 C397 1.395 . S
C401 C402 1.379 . S
C401 H418 0.930 . S
C402 C400 1.395 . S
C402 C401 1.379 . S
C402 H419 0.930 . S
C403 O386 1.264 . S
C403 O387 1.254 . S
C404 Eu340 2.848 . S
C404 O384 1.257 . S
C404 O389 1.249 . S
C404 C397 1.492 . S
C405 H370 0.931 . S
C405 C383 1.420 . S
C405 C406 1.351 . S
C406 H368 0.930 . S
C406 C374 1.423 . S
C406 C405 1.351 . S
C407 O391 1.276 1_655 S
C407 O394 1.235 . S
C408 C409 1.393 . S
C408 C412 1.395 . S
C408 C415 1.492 . S
C409 C408 1.393 . S
C409 C410 1.392 . S
C409 H420 0.930 . S
C410 C409 1.392 . S
C410 C411 1.386 1_556 S
C411 C410 1.386 1_554 S
C411 C413 1.395 . S
C411 H421 0.930 . S
C412 C408 1.395 . S
C412 C413 1.379 1_556 S
C412 H422 0.930 . S
C413 C411 1.395 . S
C413 C412 1.379 1_554 S
C413 H423 0.930 . S
C414 O392 1.264 . S
C414 O393 1.254 . S
C415 Eu351 2.848 . S
C415 O390 1.257 . S
C415 O395 1.249 . S
C415 C408 1.492 . S
H416 C399 0.930 . S
H417 C400 0.930 . S
H418 C401 0.930 . S
H419 C402 0.930 . S
H420 C409 0.930 . S
H421 C411 0.930 . S
H422 C412 0.930 . S
H423 C413 0.930 . S
H424 C436 0.930 . S
H425 C438 0.930 . S
H426 C439 0.930 . S
H427 C443 0.976 . S
H428 C443 0.983 . S
H429 C443 0.967 . S
H430 C444 0.960 . S
H431 C444 0.961 . S
H432 C444 0.959 . S
H433 C447 0.929 . S
H434 C448 0.931 . S
H435 C450 0.930 . S
C436 H424 0.930 . S
C436 C437 1.399 . S
C436 C441 1.399 . S
C437 C436 1.399 . S
C437 C438 1.376 . S
C438 H425 0.930 . S
C438 C437 1.376 . S
C438 C439 1.388 . S
C439 H426 0.930 . S
C439 C438 1.388 . S
C439 C440 1.390 . S
C440 C439 1.390 . S
C440 C441 1.394 . S
C440 C446 1.465 . S
C441 C436 1.399 . S
C441 C440 1.394 . S
C441 C442 1.516 . S
C442 C441 1.516 . S
C442 C443 1.458 1_545 S
C442 C444 1.561 . S
C442 C445 1.526 . S
C443 H427 0.976 . S
C443 H428 0.983 . S
C443 H429 0.967 . S
C443 C442 1.458 1_565 S
C444 H430 0.960 . S
C444 H431 0.961 . S
C444 H432 0.959 . S
C444 C442 1.561 . S
C445 C442 1.526 . S
C445 C446 1.396 . S
C445 C450 1.390 . S
C446 C440 1.465 . S
C446 C445 1.396 . S
C446 C447 1.399 . S
C447 H433 0.929 . S
C447 C446 1.399 . S
C447 C448 1.385 . S
C448 H434 0.931 . S
C448 C447 1.385 . S
C448 C449 1.389 . S
C449 C448 1.389 . S
C449 C450 1.387 . S
C450 H435 0.930 . S
C450 C445 1.390 . S
C450 C449 1.387 . S
H451 C463 0.930 . S
H452 C465 0.930 . S
H453 C466 0.930 . S
H454 C470 0.959 . S
H455 C470 0.959 . S
H456 C470 0.961 . S
H457 C471 0.960 . S
H458 C471 0.961 . S
H459 C471 0.959 . S
H460 C474 0.929 . S
H461 C475 0.931 . S
H462 C477 0.930 . S
C463 H451 0.930 . S
C463 C464 1.399 . S
C463 C468 1.399 . S
C464 C463 1.399 . S
C464 C465 1.376 . S
C465 H452 0.930 . S
C465 C464 1.376 . S
C465 C466 1.388 . S
C466 H453 0.930 . S
C466 C465 1.388 . S
C466 C467 1.390 . S
C467 C466 1.390 . S
C467 C468 1.394 . S
C467 C473 1.465 . S
C468 C463 1.399 . S
C468 C467 1.394 . S
C468 C469 1.516 . S
C469 C468 1.516 . S
C469 C470 1.502 . S
C469 C471 1.561 . S
C469 C472 1.526 . S
C470 H454 0.959 . S
C470 H455 0.959 . S
C470 H456 0.961 . S
C470 C469 1.502 . S
C471 H457 0.960 . S
C471 H458 0.961 . S
C471 H459 0.959 . S
C471 C469 1.561 . S
C472 C469 1.526 . S
C472 C473 1.396 . S
C472 C477 1.390 . S
C473 C467 1.465 . S
C473 C472 1.396 . S
C473 C474 1.399 . S
C474 H460 0.929 . S
C474 C473 1.399 . S
C474 C475 1.385 . S
C475 H461 0.931 . S
C475 C474 1.385 . S
C475 C476 1.389 . S
C476 C475 1.389 . S
C476 C477 1.387 . S
C477 H462 0.930 . S
C477 C472 1.390 . S
C477 C476 1.387 . S
H478 C490 0.930 . S
H479 C492 0.930 . S
H480 C493 0.930 . S
H481 C497 0.959 . S
H482 C497 0.959 . S
H483 C497 0.961 . S
H484 C498 0.960 . S
H485 C498 0.961 . S
H486 C498 0.959 . S
H487 C501 0.929 . S
H488 C502 0.931 . S
H489 C504 0.930 . S
C490 H478 0.930 . S
C490 C491 1.399 . S
C490 C495 1.399 . S
C491 C490 1.399 . S
C491 C492 1.376 . S
C492 H479 0.930 . S
C492 C491 1.376 . S
C492 C493 1.388 . S
C493 H480 0.930 . S
C493 C492 1.388 . S
C493 C494 1.390 . S
C494 C493 1.390 . S
C494 C495 1.394 . S
C494 C500 1.465 . S
C495 C490 1.399 . S
C495 C494 1.394 . S
C495 C496 1.516 . S
C496 C495 1.516 . S
C496 C497 1.502 . S
C496 C498 1.561 . S
C496 C499 1.526 . S
C497 H481 0.959 . S
C497 H482 0.959 . S
C497 H483 0.961 . S
C497 C496 1.502 . S
C498 H484 0.960 . S
C498 H485 0.961 . S
C498 H486 0.959 . S
C498 C496 1.561 . S
C499 C496 1.526 . S
C499 C500 1.396 . S
C499 C504 1.390 . S
C500 C494 1.465 . S
C500 C499 1.396 . S
C500 C501 1.399 . S
C501 H487 0.929 . S
C501 C500 1.399 . S
C501 C502 1.385 . S
C502 H488 0.931 . S
C502 C501 1.385 . S
C502 C503 1.389 . S
C503 C502 1.389 . S
C503 C504 1.387 . S
C504 H489 0.930 . S
C504 C499 1.390 . S
C504 C503 1.387 . S
H505 C517 0.930 . S
H506 C519 0.930 . S
H507 C520 0.930 . S
H508 C524 0.959 . S
H509 C524 0.959 . S
H510 C524 0.961 . S
H511 C525 0.960 . S
H512 C525 0.961 . S
H513 C525 0.959 . S
H514 C528 0.929 . S
H515 C529 0.931 . S
H516 C531 0.930 . S
C517 H505 0.930 . S
C517 C518 1.399 . S
C517 C522 1.399 . S
C518 C517 1.399 . S
C518 C519 1.376 . S
C519 H506 0.930 . S
C519 C518 1.376 . S
C519 C520 1.388 . S
C520 H507 0.930 . S
C520 C519 1.388 . S
C520 C521 1.390 . S
C521 C520 1.390 . S
C521 C522 1.394 . S
C521 C527 1.465 . S
C522 C517 1.399 . S
C522 C521 1.394 . S
C522 C523 1.516 . S
C523 C522 1.516 . S
C523 C524 1.502 . S
C523 C525 1.561 . S
C523 C526 1.526 . S
C524 H508 0.959 . S
C524 H509 0.959 . S
C524 H510 0.961 . S
C524 C523 1.502 . S
C525 H511 0.960 . S
C525 H512 0.961 . S
C525 H513 0.959 . S
C525 C523 1.561 . S
C526 C523 1.526 . S
C526 C527 1.396 . S
C526 C531 1.390 . S
C527 C521 1.465 . S
C527 C526 1.396 . S
C527 C528 1.399 . S
C528 H514 0.929 . S
C528 C527 1.399 . S
C528 C529 1.385 . S
C529 H515 0.931 . S
C529 C528 1.385 . S
C529 C530 1.389 . S
C530 C529 1.389 . S
C530 C531 1.387 . S
C531 H516 0.930 . S
C531 C526 1.390 . S
C531 C530 1.387 . S
H532 C544 0.930 . S
H533 C546 0.930 . S
H534 C547 0.930 1_545 S
H535 C551 0.959 . S
H536 C551 0.959 . S
H537 C551 0.961 . S
H538 C552 0.960 . S
H539 C552 0.961 . S
H540 C552 0.959 . S
H541 C555 0.929 . S
H542 C556 0.931 . S
H543 C558 0.930 . S
C544 H532 0.930 . S
C544 C545 1.399 . S
C544 C549 1.399 1_554 S
C545 C544 1.399 . S
C545 C546 1.376 . S
C546 H533 0.930 . S
C546 C545 1.376 . S
C546 C547 1.388 1_554 S
C547 H534 0.930 1_565 S
C547 C546 1.388 1_556 S
C547 C548 1.390 . S
C548 C547 1.390 . S
C548 C549 1.394 . S
C548 C554 1.465 . S
C549 C544 1.399 1_556 S
C549 C548 1.394 . S
C549 C550 1.516 . S
C550 C549 1.516 . S
C550 C551 1.502 . S
C550 C552 1.561 . S
C550 C553 1.526 . S
C551 H535 0.959 . S
C551 H536 0.959 . S
C551 H537 0.961 . S
C551 C550 1.502 . S
C552 H538 0.960 . S
C552 H539 0.961 . S
C552 H540 0.959 . S
C552 C550 1.561 . S
C553 C550 1.526 . S
C553 C554 1.396 . S
C553 C558 1.390 . S
C554 C548 1.465 . S
C554 C553 1.396 . S
C554 C555 1.399 1_565 S
C555 H541 0.929 . S
C555 C554 1.399 1_545 S
C555 C556 1.385 . S
C556 H542 0.931 . S
C556 C555 1.385 . S
C556 C557 1.389 1_545 S
C557 C556 1.389 1_565 S
C557 C558 1.387 . S
C558 H543 0.930 . S
C558 C553 1.390 . S
C558 C557 1.387 . S
H559 C571 0.930 . S
H560 C573 0.930 . S
H561 C574 0.930 . S
H562 C578 0.959 . S
H563 C578 0.959 . S
H564 C578 0.961 . S
H565 C579 0.960 . S
H566 C579 0.961 . S
H567 C579 0.959 . S
H568 C582 0.929 . S
H569 C583 0.931 . S
H570 C585 0.930 . S
C571 H559 0.930 . S
C571 C572 1.399 1_556 S
C571 C576 1.399 . S
C572 C571 1.399 1_554 S
C572 C573 1.376 . S
C573 H560 0.930 . S
C573 C572 1.376 . S
C573 C574 1.388 . S
C574 H561 0.930 . S
C574 C573 1.388 . S
C574 C575 1.390 1_554 S
C575 C574 1.390 1_556 S
C575 C576 1.394 . S
C575 C581 1.465 . S
C576 C571 1.399 . S
C576 C575 1.394 . S
C576 C577 1.516 . S
C577 C576 1.516 . S
C577 C578 1.502 . S
C577 C579 1.561 . S
C577 C580 1.526 . S
C578 H562 0.959 . S
C578 H563 0.959 . S
C578 H564 0.961 . S
C578 C577 1.502 . S
C579 H565 0.960 . S
C579 H566 0.961 . S
C579 H567 0.959 . S
C579 C577 1.561 . S
C580 C577 1.526 . S
C580 C581 1.396 . S
C580 C585 1.390 . S
C581 C575 1.465 . S
C581 C580 1.396 . S
C581 C582 1.399 . S
C582 H568 0.929 . S
C582 C581 1.399 . S
C582 C583 1.385 . S
C583 H569 0.931 . S
C583 C582 1.385 . S
C583 C584 1.389 . S
C584 C583 1.389 . S
C584 C585 1.387 . S
C585 H570 0.930 . S
C585 C580 1.390 . S
C585 C584 1.387 . S
H586 C598 0.930 . S
H587 C600 0.930 . S
H588 C601 0.930 . S
H589 C605 0.959 . S
H590 C605 0.959 . S
H591 C605 0.961 . S
H592 C606 0.960 1_554 S
H593 C606 0.961 . S
H594 C606 0.959 1_554 S
H595 C609 0.929 . S
H596 C610 0.931 . S
H597 C612 0.930 . S
C598 H586 0.930 . S
C598 C599 1.399 . S
C598 C603 1.399 1_554 S
C599 C598 1.399 . S
C599 C600 1.376 . S
C600 H587 0.930 . S
C600 C599 1.376 . S
C600 C601 1.388 1_554 S
C601 H588 0.930 . S
C601 C600 1.388 1_556 S
C601 C602 1.390 . S
C602 C601 1.390 . S
C602 C603 1.394 . S
C602 C608 1.465 . S
C603 C598 1.399 1_556 S
C603 C602 1.394 . S
C603 C604 1.516 . S
C604 C603 1.516 . S
C604 C605 1.502 . S
C604 C606 1.561 . S
C604 C607 1.526 . S
C605 H589 0.959 . S
C605 H590 0.959 . S
C605 H591 0.961 . S
C605 C604 1.502 . S
C606 H592 0.960 1_556 S
C606 H593 0.961 . S
C606 H594 0.959 1_556 S
C606 C604 1.561 . S
C607 C604 1.526 . S
C607 C608 1.396 . S
C607 C612 1.390 . S
C608 C602 1.465 . S
C608 C607 1.396 . S
C608 C609 1.399 . S
C609 H595 0.929 . S
C609 C608 1.399 . S
C609 C610 1.385 . S
C610 H596 0.931 . S
C610 C609 1.385 . S
C610 C611 1.389 . S
C611 C610 1.389 . S
C611 C612 1.387 . S
C612 H597 0.930 . S
C612 C607 1.390 . S
C612 C611 1.387 . S
H613 C625 0.930 . S
H614 C627 0.930 . S
H615 C628 0.930 . S
H616 C632 0.959 . S
H617 C632 0.959 . S
H618 C632 0.961 . S
H619 C633 0.960 . S
H620 C633 0.961 1_556 S
H621 C633 0.959 1_655 S
H622 C636 0.929 . S
H623 C637 0.931 . S
H624 C639 0.930 1_455 S
C625 H613 0.930 . S
C625 C626 1.399 . S
C625 C630 1.399 1_554 S
C626 C625 1.399 . S
C626 C627 1.376 . S
C627 H614 0.930 . S
C627 C626 1.376 . S
C627 C628 1.388 1_554 S
C628 H615 0.930 . S
C628 C627 1.388 1_556 S
C628 C629 1.390 . S
C629 C628 1.390 . S
C629 C630 1.394 . S
C629 C635 1.465 . S
C630 C625 1.399 1_556 S
C630 C629 1.394 . S
C630 C631 1.516 . S
C631 C630 1.516 . S
C631 C632 1.502 1_655 S
C631 C633 1.561 1_656 S
C631 C634 1.526 . S
C632 H616 0.959 . S
C632 H617 0.959 . S
C632 H618 0.961 . S
C632 C631 1.502 1_455 S
C633 H619 0.960 . S
C633 H620 0.961 1_554 S
C633 H621 0.959 1_455 S
C633 C631 1.561 1_454 S
C634 C631 1.526 . S
C634 C635 1.396 . S
C634 C639 1.390 . S
C635 C629 1.465 . S
C635 C634 1.396 . S
C635 C636 1.399 . S
C636 H622 0.929 . S
C636 C635 1.399 . S
C636 C637 1.385 . S
C637 H623 0.931 . S
C637 C636 1.385 . S
C637 C638 1.389 . S
C638 C637 1.389 . S
C638 C639 1.387 . S
C639 H624 0.930 1_655 S
C639 C634 1.390 . S
C639 C638 1.387 . S
H640 C652 0.930 . S
H641 C654 0.930 . S
H642 C655 0.930 . S
H643 C659 0.959 . S
H644 C659 0.959 . S
H645 C659 0.961 . S
H646 C660 0.960 . S
H647 C660 0.961 . S
H648 C660 0.959 . S
H649 C663 0.929 . S
H650 C664 0.931 1_655 S
H651 C666 0.930 . S
C652 H640 0.930 . S
C652 C653 1.399 . S
C652 C657 1.399 . S
C653 C652 1.399 . S
C653 C654 1.376 . S
C654 H641 0.930 . S
C654 C653 1.376 . S
C654 C655 1.388 . S
C655 H642 0.930 . S
C655 C654 1.388 . S
C655 C656 1.390 . S
C656 C655 1.390 . S
C656 C657 1.394 . S
C656 C662 1.465 . S
C657 C652 1.399 . S
C657 C656 1.394 . S
C657 C658 1.516 . S
C658 C657 1.516 . S
C658 C659 1.502 . S
C658 C660 1.561 . S
C658 C661 1.526 . S
C659 H643 0.959 . S
C659 H644 0.959 . S
C659 H645 0.961 . S
C659 C658 1.502 . S
C660 H646 0.960 . S
C660 H647 0.961 . S
C660 H648 0.959 . S
C660 C658 1.561 . S
C661 C658 1.526 . S
C661 C662 1.396 . S
C661 C666 1.390 . S
C662 C656 1.465 . S
C662 C661 1.396 . S
C662 C663 1.399 . S
C663 H649 0.929 . S
C663 C662 1.399 . S
C663 C664 1.385 . S
C664 H650 0.931 1_455 S
C664 C663 1.385 . S
C664 C665 1.389 . S
C665 C664 1.389 . S
C665 C666 1.387 . S
C666 H651 0.930 . S
C666 C661 1.390 . S
C666 C665 1.387 . S
H667 C679 0.930 . S
H668 C681 0.930 . S
H669 C682 0.930 . S
H670 C686 0.959 . S
H671 C686 0.959 . S
H672 C686 0.961 . S
H673 C687 0.960 . S
H674 C687 0.961 . S
H675 C687 0.959 . S
H676 C690 0.929 . S
H677 C691 0.931 . S
H678 C693 0.930 . S
C679 H667 0.930 . S
C679 C680 1.399 . S
C679 C684 1.399 . S
C680 C679 1.399 . S
C680 C681 1.376 . S
C681 H668 0.930 . S
C681 C680 1.376 . S
C681 C682 1.388 . S
C682 H669 0.930 . S
C682 C681 1.388 . S
C682 C683 1.390 . S
C683 C682 1.390 . S
C683 C684 1.394 . S
C683 C689 1.465 . S
C684 C679 1.399 . S
C684 C683 1.394 . S
C684 C685 1.516 . S
C685 C684 1.516 . S
C685 C686 1.502 . S
C685 C687 1.561 . S
C685 C688 1.526 . S
C686 H670 0.959 . S
C686 H671 0.959 . S
C686 H672 0.961 . S
C686 C685 1.502 . S
C687 H673 0.960 . S
C687 H674 0.961 . S
C687 H675 0.959 . S
C687 C685 1.561 . S
C688 C685 1.526 . S
C688 C689 1.396 . S
C688 C693 1.390 . S
C689 C683 1.465 . S
C689 C688 1.396 . S
C689 C690 1.399 1_545 S
C690 H676 0.929 . S
C690 C689 1.399 1_565 S
C690 C691 1.385 . S
C691 H677 0.931 . S
C691 C690 1.385 . S
C691 C692 1.389 1_565 S
C692 C691 1.389 1_545 S
C692 C693 1.387 . S
C693 H678 0.930 . S
C693 C688 1.390 . S
C693 C692 1.387 . S
H694 C706 0.930 . S
H695 C708 0.930 . S
H696 C709 0.930 . S
H697 C713 0.959 . S
H698 C713 0.959 . S
H699 C713 0.961 . S
H700 C714 0.960 . S
H701 C714 0.961 . S
H702 C714 0.959 . S
H703 C717 0.929 . S
H704 C718 0.931 . S
H705 C720 0.930 . S
C706 H694 0.930 . S
C706 C707 1.399 . S
C706 C711 1.399 . S
C707 C706 1.399 . S
C707 C708 1.376 . S
C708 H695 0.930 . S
C708 C707 1.376 . S
C708 C709 1.388 . S
C709 H696 0.930 . S
C709 C708 1.388 . S
C709 C710 1.390 . S
C710 C709 1.390 . S
C710 C711 1.394 . S
C710 C716 1.465 . S
C711 C706 1.399 . S
C711 C710 1.394 . S
C711 C712 1.516 . S
C712 C711 1.516 . S
C712 C713 1.502 . S
C712 C714 1.561 . S
C712 C715 1.526 . S
C713 H697 0.959 . S
C713 H698 0.959 . S
C713 H699 0.961 . S
C713 C712 1.502 . S
C714 H700 0.960 . S
C714 H701 0.961 . S
C714 H702 0.959 . S
C714 C712 1.561 . S
C715 C712 1.526 . S
C715 C716 1.396 . S
C715 C720 1.390 . S
C716 C710 1.465 . S
C716 C715 1.396 . S
C716 C717 1.399 . S
C717 H703 0.929 . S
C717 C716 1.399 . S
C717 C718 1.385 . S
C718 H704 0.931 . S
C718 C717 1.385 . S
C718 C719 1.389 . S
C719 C718 1.389 . S
C719 C720 1.387 . S
C720 H705 0.930 . S
C720 C715 1.390 . S
C720 C719 1.387 . S
H721 C733 0.930 . S
H722 C735 0.930 . S
H723 C736 0.930 . S
H724 C740 0.959 . S
H725 C740 0.959 . S
H726 C740 0.961 . S
H727 C741 0.960 . S
H728 C741 0.961 . S
H729 C741 0.959 . S
H730 C744 0.929 . S
H731 C745 0.931 . S
H732 C747 0.930 . S
C733 H721 0.930 . S
C733 C734 1.399 . S
C733 C738 1.399 . S
C734 C733 1.399 . S
C734 C735 1.376 . S
C735 H722 0.930 . S
C735 C734 1.376 . S
C735 C736 1.388 . S
C736 H723 0.930 . S
C736 C735 1.388 . S
C736 C737 1.390 . S
C737 C736 1.390 . S
C737 C738 1.394 . S
C737 C743 1.465 . S
C738 C733 1.399 . S
C738 C737 1.394 . S
C738 C739 1.516 . S
C739 C738 1.516 . S
C739 C740 1.502 . S
C739 C741 1.561 . S
C739 C742 1.526 . S
C740 H724 0.959 . S
C740 H725 0.959 . S
C740 H726 0.961 . S
C740 C739 1.502 . S
C741 H727 0.960 . S
C741 H728 0.961 . S
C741 H729 0.959 . S
C741 C739 1.561 . S
C742 C739 1.526 . S
C742 C743 1.396 . S
C742 C747 1.390 . S
C743 C737 1.465 . S
C743 C742 1.396 . S
C743 C744 1.399 . S
C744 H730 0.929 . S
C744 C743 1.399 . S
C744 C745 1.385 . S
C745 H731 0.931 . S
C745 C744 1.385 . S
C745 C746 1.389 . S
C746 C745 1.389 . S
C746 C747 1.387 . S
C747 H732 0.930 . S
C747 C742 1.390 . S
C747 C746 1.387 . S
H748 C760 0.930 . S
H749 C762 0.930 . S
H750 C763 0.930 . S
H751 C767 0.959 1_655 S
H752 C767 0.959 . S
H753 C767 0.961 . S
H754 C768 0.960 . S
H755 C768 0.961 . S
H756 C768 0.959 . S
H757 C771 0.929 . S
H758 C772 0.931 . S
H759 C774 0.930 1_554 S
C760 H748 0.930 . S
C760 C761 1.399 . S
C760 C765 1.399 . S
C761 C760 1.399 . S
C761 C762 1.376 . S
C762 H749 0.930 . S
C762 C761 1.376 . S
C762 C763 1.388 1_554 S
C763 H750 0.930 . S
C763 C762 1.388 1_556 S
C763 C764 1.390 1_556 S
C764 C763 1.390 1_554 S
C764 C765 1.394 . S
C764 C770 1.465 1_554 S
C765 C760 1.399 . S
C765 C764 1.394 . S
C765 C766 1.516 . S
C766 C765 1.516 . S
C766 C767 1.502 1_655 S
C766 C768 1.561 1_655 S
C766 C769 1.526 . S
C767 H751 0.959 1_455 S
C767 H752 0.959 . S
C767 H753 0.961 . S
C767 C766 1.502 1_455 S
C768 H754 0.960 . S
C768 H755 0.961 . S
C768 H756 0.959 . S
C768 C766 1.561 1_455 S
C769 C766 1.526 . S
C769 C770 1.396 1_554 S
C769 C774 1.390 1_654 S
C770 C764 1.465 1_556 S
C770 C769 1.396 1_556 S
C770 C771 1.399 . S
C771 H757 0.929 . S
C771 C770 1.399 . S
C771 C772 1.385 . S
C772 H758 0.931 . S
C772 C771 1.385 . S
C772 C773 1.389 1_655 S
C773 C772 1.389 1_455 S
C773 C774 1.387 . S
C774 H759 0.930 1_556 S
C774 C769 1.390 1_456 S
C774 C773 1.387 . S
H775 C787 0.930 . S
H776 C789 0.930 . S
H777 C790 0.930 1_545 S
H778 C794 0.959 . S
H779 C794 0.959 . S
H780 C794 0.961 . S
H781 C795 0.960 . S
H782 C795 0.961 1_556 S
H783 C795 0.959 . S
H784 C798 0.929 . S
H785 C799 0.931 . S
H786 C801 0.930 . S
C787 H775 0.930 . S
C787 C788 1.399 . S
C787 C792 1.399 . S
C788 C787 1.399 . S
C788 C789 1.376 . S
C789 H776 0.930 . S
C789 C788 1.376 . S
C789 C790 1.388 . S
C790 H777 0.930 1_565 S
C790 C789 1.388 . S
C790 C791 1.390 . S
C791 C790 1.390 . S
C791 C792 1.394 . S
C791 C797 1.465 . S
C792 C787 1.399 . S
C792 C791 1.394 . S
C792 C793 1.516 1_554 S
C793 C792 1.516 1_556 S
C793 C794 1.502 . S
C793 C795 1.561 1_556 S
C793 C796 1.526 . S
C794 H778 0.959 . S
C794 H779 0.959 . S
C794 H780 0.961 . S
C794 C793 1.502 . S
C795 H781 0.960 . S
C795 H782 0.961 1_554 S
C795 H783 0.959 . S
C795 C793 1.561 1_554 S
C796 C793 1.526 . S
C796 C797 1.396 1_556 S
C796 C801 1.390 . S
C797 C791 1.465 . S
C797 C796 1.396 1_554 S
C797 C798 1.399 1_565 S
C798 H784 0.929 . S
C798 C797 1.399 1_545 S
C798 C799 1.385 1_554 S
C799 H785 0.931 . S
C799 C798 1.385 1_556 S
C799 C800 1.389 . S
C800 C799 1.389 . S
C800 C801 1.387 1_545 S
C801 H786 0.930 . S
C801 C796 1.390 . S
C801 C800 1.387 1_565 S
H802 C814 0.930 . S
H803 C816 0.930 . S
H804 C817 0.930 . S
H805 C821 0.959 . S
H806 C821 0.959 . S
H807 C821 0.961 . S
H808 C822 0.960 . S
H809 C822 0.961 . S
H810 C822 0.959 . S
H811 C825 0.929 . S
H812 C826 0.931 . S
H813 C828 0.930 . S
C814 H802 0.930 . S
C814 C815 1.399 . S
C814 C819 1.399 . S
C815 C814 1.399 . S
C815 C816 1.376 . S
C816 H803 0.930 . S
C816 C815 1.376 . S
C816 C817 1.388 1_554 S
C817 H804 0.930 . S
C817 C816 1.388 1_556 S
C817 C818 1.390 1_556 S
C818 C817 1.390 1_554 S
C818 C819 1.394 . S
C818 C824 1.465 1_554 S
C819 C814 1.399 . S
C819 C818 1.394 . S
C819 C820 1.516 . S
C820 C819 1.516 . S
C820 C821 1.502 . S
C820 C822 1.561 . S
C820 C823 1.526 . S
C821 H805 0.959 . S
C821 H806 0.959 . S
C821 H807 0.961 . S
C821 C820 1.502 . S
C822 H808 0.960 . S
C822 H809 0.961 . S
C822 H810 0.959 . S
C822 C820 1.561 . S
C823 C820 1.526 . S
C823 C824 1.396 1_554 S
C823 C828 1.390 . S
C824 C818 1.465 1_556 S
C824 C823 1.396 1_556 S
C824 C825 1.399 . S
C825 H811 0.929 . S
C825 C824 1.399 . S
C825 C826 1.385 . S
C826 H812 0.931 . S
C826 C825 1.385 . S
C826 C827 1.389 . S
C827 C826 1.389 . S
C827 C828 1.387 1_556 S
C828 H813 0.930 . S
C828 C823 1.390 . S
C828 C827 1.387 1_554 S
H829 C841 0.930 . S
H830 C843 0.930 . S
H831 C844 0.930 . S
H832 C848 0.959 . S
H833 C848 0.959 . S
H834 C848 0.961 . S
H835 C849 0.960 . S
H836 C849 0.961 . S
H837 C849 0.959 . S
H838 C852 0.929 . S
H839 C853 0.931 . S
H840 C855 0.930 . S
C841 H829 0.930 . S
C841 C842 1.399 . S
C841 C846 1.399 . S
C842 C841 1.399 . S
C842 C843 1.376 . S
C843 H830 0.930 . S
C843 C842 1.376 . S
C843 C844 1.388 . S
C844 H831 0.930 . S
C844 C843 1.388 . S
C844 C845 1.390 . S
C845 C844 1.390 . S
C845 C846 1.394 . S
C845 C851 1.465 . S
C846 C841 1.399 . S
C846 C845 1.394 . S
C846 C847 1.516 1_554 S
C847 C846 1.516 1_556 S
C847 C848 1.502 . S
C847 C849 1.561 . S
C847 C850 1.526 . S
C848 H832 0.959 . S
C848 H833 0.959 . S
C848 H834 0.961 . S
C848 C847 1.502 . S
C849 H835 0.960 . S
C849 H836 0.961 . S
C849 H837 0.959 . S
C849 C847 1.561 . S
C850 C847 1.526 . S
C850 C851 1.396 1_556 S
C850 C855 1.390 . S
C851 C845 1.465 . S
C851 C850 1.396 1_554 S
C851 C852 1.399 . S
C852 H838 0.929 . S
C852 C851 1.399 . S
C852 C853 1.385 . S
C853 H839 0.931 . S
C853 C852 1.385 . S
C853 C854 1.389 1_554 S
C854 C853 1.389 1_556 S
C854 C855 1.387 . S
C855 H840 0.930 . S
C855 C850 1.390 . S
C855 C854 1.387 . S
H856 C868 0.930 . S
H857 C870 0.930 . S
H858 C871 0.930 . S
H859 C875 0.959 . S
H860 C875 0.959 . S
H861 C875 0.961 . S
H862 C876 0.960 . S
H863 C876 0.961 . S
H864 C876 0.959 . S
H865 C879 0.929 . S
H866 C880 0.931 . S
H867 C882 0.930 . S
C868 H856 0.930 . S
C868 C869 1.399 . S
C868 C873 1.399 . S
C869 C868 1.399 . S
C869 C870 1.376 . S
C870 H857 0.930 . S
C870 C869 1.376 . S
C870 C871 1.388 . S
C871 H858 0.930 . S
C871 C870 1.388 . S
C871 C872 1.390 . S
C872 C871 1.390 . S
C872 C873 1.394 . S
C872 C878 1.465 . S
C873 C868 1.399 . S
C873 C872 1.394 . S
C873 C874 1.516 . S
C874 C873 1.516 . S
C874 C875 1.502 . S
C874 C876 1.561 . S
C874 C877 1.526 . S
C875 H859 0.959 . S
C875 H860 0.959 . S
C875 H861 0.961 . S
C875 C874 1.502 . S
C876 H862 0.960 . S
C876 H863 0.961 . S
C876 H864 0.959 . S
C876 C874 1.561 . S
C877 C874 1.526 . S
C877 C878 1.396 . S
C877 C882 1.390 . S
C878 C872 1.465 . S
C878 C877 1.396 . S
C878 C879 1.399 . S
C879 H865 0.929 . S
C879 C878 1.399 . S
C879 C880 1.385 . S
C880 H866 0.931 . S
C880 C879 1.385 . S
C880 C881 1.389 . S
C881 C880 1.389 . S
C881 C882 1.387 . S
C882 H867 0.930 . S
C882 C877 1.390 . S
C882 C881 1.387 . S
H883 C895 0.930 . S
H884 C897 0.930 . S
H885 C898 0.930 . S
H886 C902 0.959 . S
H887 C902 0.959 . S
H888 C902 0.961 . S
H889 C903 0.960 . S
H890 C903 0.961 . S
H891 C903 0.959 . S
H892 C906 0.929 . S
H893 C907 0.931 . S
H894 C909 0.930 . S
C895 H883 0.930 . S
C895 C896 1.399 . S
C895 C900 1.399 . S
C896 C895 1.399 . S
C896 C897 1.376 . S
C897 H884 0.930 . S
C897 C896 1.376 . S
C897 C898 1.388 . S
C898 H885 0.930 . S
C898 C897 1.388 . S
C898 C899 1.390 . S
C899 C898 1.390 . S
C899 C900 1.394 . S
C899 C905 1.465 . S
C900 C895 1.399 . S
C900 C899 1.394 . S
C900 C901 1.516 . S
C901 C900 1.516 . S
C901 C902 1.502 . S
C901 C903 1.561 . S
C901 C904 1.526 . S
C902 H886 0.959 . S
C902 H887 0.959 . S
C902 H888 0.961 . S
C902 C901 1.502 . S
C903 H889 0.960 . S
C903 H890 0.961 . S
C903 H891 0.959 . S
C903 C901 1.561 . S
C904 C901 1.526 . S
C904 C905 1.396 . S
C904 C909 1.390 . S
C905 C899 1.465 . S
C905 C904 1.396 . S
C905 C906 1.399 . S
C906 H892 0.929 . S
C906 C905 1.399 . S
C906 C907 1.385 . S
C907 H893 0.931 . S
C907 C906 1.385 . S
C907 C908 1.389 . S
C908 C907 1.389 . S
C908 C909 1.387 . S
C909 H894 0.930 . S
C909 C904 1.390 . S
C909 C908 1.387 . S
H910 C922 0.930 . S
H911 C924 0.930 . S
H912 C925 0.930 . S
H913 C929 0.959 . S
H914 C929 0.959 . S
H915 C929 0.961 . S
H916 C930 0.960 . S
H917 C930 0.961 . S
H918 C930 0.959 . S
H919 C933 0.929 . S
H920 C934 0.931 . S
H921 C936 0.930 . S
C922 H910 0.930 . S
C922 C923 1.399 . S
C922 C927 1.399 . S
C923 C922 1.399 . S
C923 C924 1.376 . S
C924 H911 0.930 . S
C924 C923 1.376 . S
C924 C925 1.388 . S
C925 H912 0.930 . S
C925 C924 1.388 . S
C925 C926 1.390 . S
C926 C925 1.390 . S
C926 C927 1.394 . S
C926 C932 1.465 . S
C927 C922 1.399 . S
C927 C926 1.394 . S
C927 C928 1.516 . S
C928 C927 1.516 . S
C928 C929 1.502 . S
C928 C930 1.561 . S
C928 C931 1.526 . S
C929 H913 0.959 . S
C929 H914 0.959 . S
C929 H915 0.961 . S
C929 C928 1.502 . S
C930 H916 0.960 . S
C930 H917 0.961 . S
C930 H918 0.959 . S
C930 C928 1.561 . S
C931 C928 1.526 . S
C931 C932 1.396 . S
C931 C936 1.390 . S
C932 C926 1.465 . S
C932 C931 1.396 . S
C932 C933 1.399 . S
C933 H919 0.929 . S
C933 C932 1.399 . S
C933 C934 1.385 . S
C934 H920 0.931 . S
C934 C933 1.385 . S
C934 C935 1.389 . S
C935 C934 1.389 . S
C935 C936 1.387 . S
C936 H921 0.930 . S
C936 C931 1.390 . S
C936 C935 1.387 . S
H937 C949 0.930 . S
H938 C951 0.930 . S
H939 C952 0.930 . S
H940 C956 0.959 . S
H941 C956 0.959 . S
H942 C956 0.961 . S
H943 C957 0.960 . S
H944 C957 0.961 . S
H945 C957 0.959 . S
H946 C960 0.929 . S
H947 C961 0.931 . S
H948 C963 0.930 . S
C949 H937 0.930 . S
C949 C950 1.399 . S
C949 C954 1.399 . S
C950 C949 1.399 . S
C950 C951 1.376 . S
C951 H938 0.930 . S
C951 C950 1.376 . S
C951 C952 1.388 . S
C952 H939 0.930 . S
C952 C951 1.388 . S
C952 C953 1.390 . S
C953 C952 1.390 . S
C953 C954 1.394 . S
C953 C959 1.465 . S
C954 C949 1.399 . S
C954 C953 1.394 . S
C954 C955 1.516 . S
C955 C954 1.516 . S
C955 C956 1.502 . S
C955 C957 1.561 . S
C955 C958 1.526 . S
C956 H940 0.959 . S
C956 H941 0.959 . S
C956 H942 0.961 . S
C956 C955 1.502 . S
C957 H943 0.960 . S
C957 H944 0.961 . S
C957 H945 0.959 . S
C957 C955 1.561 . S
C958 C955 1.526 . S
C958 C959 1.396 . S
C958 C963 1.390 . S
C959 C953 1.465 . S
C959 C958 1.396 . S
C959 C960 1.399 . S
C960 H946 0.929 . S
C960 C959 1.399 . S
C960 C961 1.385 . S
C961 H947 0.931 . S
C961 C960 1.385 . S
C961 C962 1.389 . S
C962 C961 1.389 . S
C962 C963 1.387 . S
C963 H948 0.930 . S
C963 C958 1.390 . S
C963 C962 1.387 . S
H964 C976 0.930 . S
H965 C978 0.930 . S
H966 C979 0.930 . S
H967 C983 0.959 . S
H968 C983 0.959 . S
H969 C983 0.961 . S
H970 C984 0.960 . S
H971 C984 0.951 1_455 S
H972 C984 0.959 1_455 S
H973 C987 0.929 . S
H974 C988 0.931 . S
H975 C990 0.930 . S
C976 H964 0.930 . S
C976 C977 1.399 . S
C976 C981 1.399 . S
C977 C976 1.399 . S
C977 C978 1.376 . S
C978 H965 0.930 . S
C978 C977 1.376 . S
C978 C979 1.388 . S
C979 H966 0.930 . S
C979 C978 1.388 . S
C979 C980 1.390 . S
C980 C979 1.390 . S
C980 C981 1.394 . S
C980 C986 1.465 . S
C981 C976 1.399 . S
C981 C980 1.394 . S
C981 C982 1.516 . S
C982 C981 1.516 . S
C982 C983 1.502 . S
C982 C984 1.561 . S
C982 C985 1.526 . S
C983 H967 0.959 . S
C983 H968 0.959 . S
C983 H969 0.961 . S
C983 C982 1.502 . S
C984 H970 0.960 . S
C984 H971 0.951 1_655 S
C984 H972 0.959 1_655 S
C984 C982 1.561 . S
C985 C982 1.526 . S
C985 C986 1.396 . S
C985 C990 1.390 . S
C986 C980 1.465 . S
C986 C985 1.396 . S
C986 C987 1.399 . S
C987 H973 0.929 . S
C987 C986 1.399 . S
C987 C988 1.385 . S
C988 H974 0.931 . S
C988 C987 1.385 . S
C988 C989 1.389 . S
C989 C988 1.389 . S
C989 C990 1.387 . S
C990 H975 0.930 . S
C990 C985 1.390 . S
C990 C989 1.387 . S
H991 C1003 0.930 . S
H992 C1005 0.930 . S
H993 C1006 0.930 . S
H994 C1010 0.959 . S
H995 C1010 0.959 . S
H996 C1010 0.961 . S
H997 C1011 0.960 . S
H998 C1011 0.961 . S
H999 C1011 0.959 1_565 S
H1000 C1014 0.929 . S
H1001 C1015 0.931 . S
H1002 C1017 0.930 1_545 S
C1003 H991 0.930 . S
C1003 C1004 1.399 . S
C1003 C1008 1.399 . S
C1004 C1003 1.399 . S
C1004 C1005 1.376 . S
C1005 H992 0.930 . S
C1005 C1004 1.376 . S
C1005 C1006 1.388 . S
C1006 H993 0.930 . S
C1006 C1005 1.388 . S
C1006 C1007 1.390 . S
C1007 C1006 1.390 . S
C1007 C1008 1.394 . S
C1007 C1013 1.465 . S
C1008 C1003 1.399 . S
C1008 C1007 1.394 . S
C1008 C1009 1.516 1_565 S
C1009 C1008 1.516 1_545 S
C1009 C1010 1.502 . S
C1009 C1011 1.561 . S
C1009 C1012 1.526 1_545 S
C1010 H994 0.959 . S
C1010 H995 0.959 . S
C1010 H996 0.961 . S
C1010 C1009 1.502 . S
C1011 H997 0.960 . S
C1011 H998 0.961 . S
C1011 H999 0.959 1_545 S
C1011 C1009 1.561 . S
C1012 C1009 1.526 1_565 S
C1012 C1013 1.396 . S
C1012 C1017 1.390 . S
C1013 C1007 1.465 . S
C1013 C1012 1.396 . S
C1013 C1014 1.399 . S
C1014 H1000 0.929 . S
C1014 C1013 1.399 . S
C1014 C1015 1.385 . S
C1015 H1001 0.931 . S
C1015 C1014 1.385 . S
C1015 C1016 1.389 . S
C1016 C1015 1.389 . S
C1016 C1017 1.387 . S
C1017 H1002 0.930 1_565 S
C1017 C1012 1.390 . S
C1017 C1016 1.387 . S
H1018 C1030 0.930 . S
H1019 C1032 0.930 . S
H1020 C1033 0.930 . S
H1021 C1037 0.959 . S
H1022 C1037 0.959 . S
H1023 C1037 0.961 . S
H1024 C1038 0.960 . S
H1025 C1038 0.961 . S
H1026 C1038 0.959 . S
H1027 C1041 0.929 . S
H1028 C1042 0.931 . S
H1029 C1044 0.930 . S
C1030 H1018 0.930 . S
C1030 C1031 1.399 . S
C1030 C1035 1.399 . S
C1031 C1030 1.399 . S
C1031 C1032 1.376 . S
C1032 H1019 0.930 . S
C1032 C1031 1.376 . S
C1032 C1033 1.388 . S
C1033 H1020 0.930 . S
C1033 C1032 1.388 . S
C1033 C1034 1.390 . S
C1034 C1033 1.390 . S
C1034 C1035 1.394 . S
C1034 C1040 1.465 . S
C1035 C1030 1.399 . S
C1035 C1034 1.394 . S
C1035 C1036 1.516 . S
C1036 C1035 1.516 . S
C1036 C1037 1.502 . S
C1036 C1038 1.561 . S
C1036 C1039 1.526 . S
C1037 H1021 0.959 . S
C1037 H1022 0.959 . S
C1037 H1023 0.961 . S
C1037 C1036 1.502 . S
C1038 H1024 0.960 . S
C1038 H1025 0.961 . S
C1038 H1026 0.959 . S
C1038 C1036 1.561 . S
C1039 C1036 1.526 . S
C1039 C1040 1.396 . S
C1039 C1044 1.390 . S
C1040 C1034 1.465 . S
C1040 C1039 1.396 . S
C1040 C1041 1.399 . S
C1041 H1027 0.929 . S
C1041 C1040 1.399 . S
C1041 C1042 1.385 . S
C1042 H1028 0.931 . S
C1042 C1041 1.385 . S
C1042 C1043 1.389 . S
C1043 C1042 1.389 . S
C1043 C1044 1.387 . S
C1044 H1029 0.930 . S
C1044 C1039 1.390 . S
C1044 C1043 1.387 . S
H1045 C1057 0.930 . S
H1046 C1059 0.930 . S
H1047 C1060 0.930 . S
H1048 C1064 0.959 . S
H1049 C1064 0.959 . S
H1050 C1064 0.961 . S
H1051 C1065 0.960 . S
H1052 C1065 0.961 . S
H1053 C1065 0.959 . S
H1054 C1068 0.929 . S
H1055 C1069 0.931 . S
H1056 C1071 0.930 . S
C1057 H1045 0.930 . S
C1057 C1058 1.399 . S
C1057 C1062 1.399 . S
C1058 C1057 1.399 . S
C1058 C1059 1.376 . S
C1059 H1046 0.930 . S
C1059 C1058 1.376 . S
C1059 C1060 1.388 . S
C1060 H1047 0.930 . S
C1060 C1059 1.388 . S
C1060 C1061 1.390 . S
C1061 C1060 1.390 . S
C1061 C1062 1.394 . S
C1061 C1067 1.465 . S
C1062 C1057 1.399 . S
C1062 C1061 1.394 . S
C1062 C1063 1.516 . S
C1063 C1062 1.516 . S
C1063 C1064 1.502 . S
C1063 C1065 1.561 . S
C1063 C1066 1.526 . S
C1064 H1048 0.959 . S
C1064 H1049 0.959 . S
C1064 H1050 0.961 . S
C1064 C1063 1.502 . S
C1065 H1051 0.960 . S
C1065 H1052 0.961 . S
C1065 H1053 0.959 . S
C1065 C1063 1.561 . S
C1066 C1063 1.526 . S
C1066 C1067 1.396 . S
C1066 C1071 1.390 . S
C1067 C1061 1.465 . S
C1067 C1066 1.396 . S
C1067 C1068 1.399 . S
C1068 H1054 0.929 . S
C1068 C1067 1.399 . S
C1068 C1069 1.385 . S
C1069 H1055 0.931 . S
C1069 C1068 1.385 . S
C1069 C1070 1.389 . S
C1070 C1069 1.389 . S
C1070 C1071 1.387 . S
C1071 H1056 0.930 . S
C1071 C1066 1.390 . S
C1071 C1070 1.387 . S
C437 C74 1.872 . S
C449 C162 1.867 . S
C476 C246 1.876 . S
C464 C85 1.914 . S
C503 C312 1.842 . S
C491 C52 2.012 . S
C530 C396 1.893 . S
C518 C63 1.936 . S
C557 C151 1.867 1_565 S
C545 C30 1.764 . S
C572 C41 1.831 . S
C584 C235 1.866 . S
C599 C8 1.963 . S
C611 C323 1.840 . S
C626 C19 1.937 . S
C638 C407 1.838 . S
C665 C158 0.706 1_455 S
C653 C62 0.753 . S
C692 C242 0.634 1_545 S
C680 C73 0.677 . S
C719 C314 0.749 . S
C707 C84 0.637 . S
C734 C51 0.728 . S
C746 C398 0.714 . S
C761 C18 0.777 . S
C773 C146 0.803 . S
C800 C230 0.634 . S
C788 C29 0.661 . S
C827 C326 0.750 . S
C815 C40 0.627 . S
C842 C7 0.795 . S
C854 C410 0.643 . S
C869 C60 1.799 . S
C881 C155 2.111 . S
C896 C71 1.756 . S
C908 C239 2.077 . S
C935 C319 2.054 . S
C923 C82 1.796 . S
C962 C403 2.080 . S
C950 C49 1.770 . S
C977 C16 1.577 . S
C989 C144 2.102 . S
C1016 C228 2.070 . S
C1004 C27 1.655 . S
C1043 C330 2.051 . S
C1031 C38 1.443 . S
C1058 C5 1.465 . S
C1070 C414 2.080 . S
