# Generated by pormake.
# Topology nia, (6,6)-cn, num edge types: 1
# Building blocks:
#     Node 0, Type 0, BuildingBlock: KUMBUR_clean_sbu_0, # of connection points: 6
#     Node 1, Type 0, BuildingBlock: KUMBUR_clean_sbu_0, # of connection points: 6
#     Node 2, Type 1, BuildingBlock: MIDCAF_clean_sbu_0, # of connection points: 6
#     Node 3, Type 1, BuildingBlock: MIDCAF_clean_sbu_0, # of connection points: 6
#     Edge 4, Type (0, 1), BuildingBlock: FUNLAD_clean_linker_1, # of connection points: 2
#     Edge 5, Type (0, 1), BuildingBlock: FUNLAD_clean_linker_1, # of connection points: 2
#     Edge 6, Type (0, 1), BuildingBlock: FUNLAD_clean_linker_1, # of connection points: 2
#     Edge 7, Type (0, 1), BuildingBlock: FUNLAD_clean_linker_1, # of connection points: 2
#     Edge 8, Type (0, 1), BuildingBlock: FUNLAD_clean_linker_1, # of connection points: 2
#     Edge 9, Type (0, 1), BuildingBlock: FUNLAD_clean_linker_1, # of connection points: 2
#     Edge 10, Type (0, 1), BuildingBlock: FUNLAD_clean_linker_1, # of connection points: 2
#     Edge 11, Type (0, 1), BuildingBlock: FUNLAD_clean_linker_1, # of connection points: 2
#     Edge 12, Type (0, 1), BuildingBlock: FUNLAD_clean_linker_1, # of connection points: 2
#     Edge 13, Type (0, 1), BuildingBlock: FUNLAD_clean_linker_1, # of connection points: 2
#     Edge 14, Type (0, 1), BuildingBlock: FUNLAD_clean_linker_1, # of connection points: 2
#     Edge 15, Type (0, 1), BuildingBlock: FUNLAD_clean_linker_1, # of connection points: 2
# Relax obj value: 0.169
# Max RMSD: 0.285
# Mean RMSD: 0.204
data_MOF--net-nia--node1-KUMBUR_clean_sbu_0--node2-MIDCAF_clean_sbu_0--edge1-FUNLAD_clean_linker_1
_symmetry_space_group_name_H-M    P1
_symmetry_Int_Tables_number       1
_symmetry_cell_setting            triclinic
loop_
_symmetry_equiv_pos_as_xyz
'x, y, z'
_cell_length_a     29.457495
_cell_length_b     29.272102
_cell_length_c     34.112014
_cell_angle_alpha  89.941562
_cell_angle_beta   89.952597
_cell_angle_gamma 139.23614
loop_
_atom_site_label
_atom_site_type_symbol
_atom_site_fract_x
_atom_site_fract_y
_atom_site_fract_z
_atom_type_partial_charge
Tb0 Tb 0.03557 0.9961 0.04285 0.0
C1 C 0.95314 0.99469 0.87545 0.0
C2 C 0.059 0.09413 0.84054 0.0
C3 C 0.95571 0.99305 0.8043 0.0
C4 C 0.02238 0.06005 0.876 0.0
C5 C 0.91879 0.9605 0.83969 0.0
C6 C 0.0256 0.05989 0.80475 0.0
C7 C 0.81341 0.86605 0.87655 0.0
N8 N 0.91908 0.96526 0.91022 0.0
C9 C 0.84964 0.90223 0.91128 0.0
C10 C 0.84805 0.89538 0.8406 0.0
Tb11 Tb 0.98145 0.03216 0.96469 0.0
N12 N 0.05245 0.09201 0.91118 0.0
C13 C 0.11758 0.16025 0.9127 0.0
C14 C 0.12681 0.1629 0.84203 0.0
C15 C 0.1555 0.19663 0.87814 0.0
H16 H 0.82243 0.87946 0.93895 0.0
H17 H 0.20643 0.25106 0.87928 0.0
H18 H 0.05282 0.08547 0.77726 0.0
H19 H 0.75867 0.81584 0.87751 0.0
H20 H 0.13952 0.18715 0.9405 0.0
H21 H 0.79227 0.73757 0.0919 0.0
H22 H 0.15636 0.19129 0.81541 0.0
H23 H 0.16745 0.14341 0.09171 0.0
H24 H 0.87966 0.82701 0.04307 0.0
H25 H 0.19656 0.18316 0.16048 0.0
H26 H 0.93034 0.96767 0.77645 0.0
H27 H 0.8101 0.76881 0.162 0.0
H28 H 0.88656 0.86 0.21456 0.0
H29 H 0.8196 0.8676 0.81373 0.0
H30 H 0.99656 0.98085 0.23311 0.0
N31 N 0.94818 0.90907 0.08496 0.0
C32 C 0.88904 0.84178 0.0735 0.0
C33 C 0.84926 0.80848 0.14072 0.0
C34 C 0.91022 0.8771 0.15238 0.0
C35 C 0.83899 0.79068 0.10116 0.0
C36 C 0.95946 0.92673 0.12347 0.0
H37 H 0.1119 0.10167 0.21327 0.0
N38 N 0.06627 0.04108 0.10509 0.0
C39 C 0.1467 0.13018 0.15342 0.0
C40 C 0.02056 0.99494 0.13389 0.0
C41 C 0.12988 0.10758 0.11444 0.0
C42 C 0.09881 0.08405 0.1831 0.0
C43 C 0.03509 0.01532 0.17359 0.0
O44 O 0.12711 0.0267 0.04064 0.0
O45 O 0.05791 0.04047 0.9847 0.0
O46 O 0.96696 0.95252 0.94162 0.0
O47 O 0.9731 0.91151 0.99837 0.0
O48 O 0.13808 0.09728 0.02358 0.0
O49 O 0.03076 0.92184 0.0568 0.0
O50 O 0.9073 0.02789 0.95697 0.0
O51 O 0.95741 0.97865 0.0178 0.0
O52 O 0.03163 0.06249 0.06592 0.0
O53 O 0.05245 0.11787 0.00773 0.0
O54 O 0.88106 0.96004 0.99659 0.0
O55 O 0.01728 0.12713 0.96005 0.0
C56 C 0.12309 0.09465 0.98757 0.0
C57 C 0.13278 0.9744 0.08977 0.0
C58 C 0.15706 0.92774 0.13273 0.0
C59 C 0.12292 0.92063 0.09985 0.0
C60 C 0.19598 0.98648 0.15721 0.0
C61 C 0.17842 0.03566 0.11247 0.0
C62 C 0.20743 0.04045 0.14667 0.0
C63 C 0.95826 0.90696 0.96067 0.0
C64 C 0.09797 0.96818 0.05507 0.0
C65 C 0.98618 0.96623 0.20249 0.0
C66 C 0.92371 0.89736 0.19191 0.0
C67 C 0.89779 0.94774 0.0259 0.0
C68 C 0.94818 0.11946 0.91669 0.0
C69 C 0.8912 0.1059 0.91283 0.0
C70 C 0.88383 0.12759 0.87899 0.0
C71 C 0.93132 0.15825 0.84785 0.0
C72 C -0.00215 0.15589 0.88647 0.0
C73 C 0.98841 0.17311 0.85194 0.0
C74 C 0.05027 0.11397 0.0466 0.0
C75 C 0.95522 0.09558 0.95207 0.0
H76 H 0.09098 0.87476 0.08135 0.0
H77 H 0.21935 0.99218 0.18408 0.0
H78 H 0.19285 0.08061 0.1036 0.0
H79 H 0.24031 0.08699 0.1646 0.0
H80 H 0.85382 0.08029 0.93654 0.0
H81 H 0.92541 0.17191 0.82042 0.0
H82 H 0.04436 0.17168 0.88922 0.0
H83 H 0.02611 0.19903 0.82844 0.0
Tb84 Tb 0.97823 0.01294 0.55624 0.0
C85 C 0.03174 0.0375 0.37878 0.0
C86 C 0.92734 0.93004 0.34767 0.0
C87 C 0.00744 0.03941 0.31115 0.0
C88 C 0.97008 0.96666 0.38098 0.0
C89 C 0.05243 0.07446 0.34352 0.0
C90 C 0.94499 0.96716 0.3132 0.0
C91 C 0.16408 0.17462 0.37325 0.0
N92 N 0.07462 0.06857 0.41029 0.0
C93 C 0.14134 0.13542 0.40748 0.0
C94 C 0.11901 0.14439 0.34135 0.0
Tb95 Tb 0.03365 -0.00014 0.46468 0.0
N96 N 0.95504 0.93281 0.41485 0.0
C97 C 0.90024 0.86144 0.41646 0.0
C98 C 0.87059 0.857 0.34935 0.0
C99 C 0.85853 0.82257 0.38344 0.0
H100 H 0.17626 0.15909 0.4321 0.0
H101 H 0.81584 0.76597 0.38469 0.0
H102 H 0.91208 0.94006 0.28752 0.0
H103 H 0.21622 0.22813 0.37155 0.0
H104 H 0.88923 0.83424 0.44303 0.0
H105 H 0.21278 0.26242 0.61895 0.0
H106 H 0.83716 0.8267 0.32417 0.0
H107 H 0.85149 0.85458 0.59583 0.0
H108 H 0.12396 0.18421 0.56815 0.0
H109 H 0.82573 0.79816 0.65931 0.0
H110 H 0.02183 0.06701 0.28392 0.0
H111 H 0.20293 0.21404 0.6822 0.0
H112 H 0.13409 0.10912 0.72608 0.0
H113 H 0.1369 0.17469 0.3148 0.0
H114 H 0.02792 0.98291 0.73745 0.0
N115 N 0.06303 0.09121 0.60199 0.0
C116 C 0.11802 0.16189 0.59563 0.0
C117 C 0.16325 0.17921 0.66006 0.0
C118 C 0.10577 0.10723 0.66695 0.0
C119 C 0.16895 0.20669 0.62439 0.0
C120 C 0.05594 0.06425 0.63701 0.0
H121 H 0.91098 0.86722 0.71333 0.0
N122 N 0.95181 0.95437 0.61307 0.0
C123 C 0.87464 0.85303 0.65497 0.0
C124 C -0.00187 0.99328 0.64284 0.0
C125 C 0.88948 0.88524 0.61901 0.0
C126 C 0.92303 0.89212 0.68535 0.0
C127 C 0.98587 0.96313 0.67948 0.0
O128 O 0.88464 0.97458 0.57121 0.0
O129 O 0.9541 0.97779 0.49574 0.0
O130 O 0.03083 0.07119 0.45421 0.0
O131 O 0.03898 0.10622 0.51812 0.0
O132 O 0.87449 0.91535 0.53489 0.0
O133 O 0.98092 0.08534 0.5694 0.0
O134 O 0.1219 0.02849 0.44972 0.0
O135 O 0.05633 0.03981 0.52243 0.0
O136 O 0.99365 0.95168 0.56632 0.0
O137 O 0.96924 0.90675 0.50327 0.0
O138 O 0.13923 0.08289 0.49115 0.0
O139 O 0.02051 0.91971 0.45264 0.0
C140 C 0.88933 0.9223 0.49838 0.0
C141 C 0.89779 0.04507 0.61655 0.0
C142 C 0.86328 0.08653 0.65384 0.0
C143 C 0.88071 0.07873 0.61796 0.0
C144 C 0.86609 0.0626 0.68856 0.0
C145 C 0.8974 0.01932 0.6514 0.0
C146 C 0.88262 0.02888 0.68716 0.0
C147 C 0.04379 0.11445 0.47936 0.0
C148 C 0.91522 0.03662 0.57868 0.0
C149 C 0.03583 0.00521 0.70925 0.0
C150 C 0.09611 0.07708 0.70283 0.0
C151 C 0.12027 0.08207 0.52524 0.0
C152 C 0.0998 0.95132 0.40552 0.0
C153 C 0.11868 0.91931 0.40504 0.0
C154 C 0.13331 0.90824 0.36929 0.0
C155 C 0.12895 0.92988 0.33405 0.0
C156 C 0.09672 0.97296 0.37 0.0
C157 C 0.11053 0.96179 0.33455 0.0
C158 C 0.97564 0.90512 0.54169 0.0
C159 C 0.08574 0.964 0.44307 0.0
H160 H 0.87991 0.09786 0.59105 0.0
H161 H 0.85612 0.07002 0.71697 0.0
H162 H 0.90804 0.99146 0.6512 0.0
H163 H 0.88374 0.0098 0.71391 0.0
H164 H 0.12263 0.90367 0.43242 0.0
H165 H 0.14216 0.92474 0.30612 0.0
H166 H 0.08525 -0.00011 0.36949 0.0
H167 H 0.10838 0.97933 0.30742 0.0
Zn168 Zn 0.37422 0.68222 0.18061 0.0
Zn169 Zn 0.39331 0.7065 0.33368 0.0
Zn170 Zn 0.39011 0.69181 0.25685 0.0
C171 C 0.52926 0.78843 0.3084 0.0
C172 C 0.3068 0.56491 0.31823 0.0
O173 O 0.35032 0.72893 0.2345 0.0
O174 O 0.3307 0.70861 0.17076 0.0
C175 C 0.51691 0.77607 0.1968 0.0
O176 O 0.49985 0.76325 0.27456 0.0
O177 O 0.49412 0.77307 0.33815 0.0
O178 O 0.32997 0.60658 0.34605 0.0
O179 O 0.32387 0.58718 0.28255 0.0
O180 O 0.47493 0.75282 0.16943 0.0
O181 O 0.4958 0.75869 0.2327 0.0
O182 O 0.32127 0.58145 0.24148 0.0
O183 O 0.31465 0.58221 0.17698 0.0
C184 C 0.29831 0.54941 0.20834 0.0
O185 O 0.34776 0.72714 0.27584 0.0
O186 O 0.35655 0.74073 0.34028 0.0
C187 C 0.32944 0.73079 0.20188 0.0
C188 C 0.33789 0.74262 0.30767 0.0
Zn189 Zn 0.61717 0.32099 0.829 0.0
Zn190 Zn 0.6485 0.33873 0.67475 0.0
Zn191 Zn 0.63141 0.33443 0.7516 0.0
C192 C 0.73906 0.47673 0.7002 0.0
C193 C 0.50976 0.2587 0.68853 0.0
O194 O 0.65678 0.28534 0.77612 0.0
O195 O 0.64517 0.27889 0.8407 0.0
C196 C 0.71805 0.46508 0.80996 0.0
O197 O 0.71574 0.44645 0.73399 0.0
O198 O 0.71564 0.44105 0.66922 0.0
O199 O 0.54983 0.27474 0.662 0.0
O200 O 0.53092 0.27801 0.72428 0.0
O201 O 0.68454 0.42287 0.83853 0.0
O202 O 0.70675 0.44202 0.77488 0.0
O203 O 0.52262 0.27361 0.76567 0.0
O204 O 0.5172 0.25856 0.82978 0.0
C205 C 0.48793 0.24744 0.79811 0.0
O206 O 0.65826 0.28341 0.73492 0.0
O207 O 0.68246 0.30077 0.67145 0.0
C208 C 0.66033 0.26857 0.81001 0.0
C209 C 0.67732 0.27617 0.70381 0.0
H210 H 0.11603 0.82602 0.12449 0.0
C211 C 0.15527 0.87607 0.1395 0.0
H212 H 0.2485 0.94376 0.17258 0.0
H213 H 0.17671 0.6861 0.2302 0.0
H214 H 0.10029 0.66565 0.2767 0.0
H215 H 0.07275 0.72657 0.26982 0.0
H216 H 0.12297 0.80981 0.21688 0.0
C217 C 0.20545 0.89247 0.1597 0.0
C218 C 0.21199 0.847 0.16025 0.0
C219 C 0.18213 0.79853 0.19117 0.0
C220 C 0.19811 0.76348 0.19512 0.0
C221 C 0.16737 0.7151 0.22622 0.0
C222 C 0.12293 0.70243 0.25292 0.0
C223 C 0.1074 0.73673 0.24903 0.0
C224 C 0.13662 0.78441 0.21861 0.0
H225 H 0.32374 0.79801 0.22242 0.0
C226 C 0.30512 0.76 0.2005 0.0
H227 H 0.24494 0.70553 0.14935 0.0
H228 H 0.27469 0.93404 0.09644 0.0
H229 H 0.35046 0.95413 0.04961 0.0
H230 H 0.37808 0.89324 0.05623 0.0
H231 H 0.33033 0.81213 0.10976 0.0
C232 C 0.26246 0.74222 0.17204 0.0
C233 C 0.24379 0.77703 0.16798 0.0
C234 C 0.27139 0.82348 0.13615 0.0
C235 C 0.25572 0.85874 0.1324 0.0
C236 C 0.28509 0.90599 0.10077 0.0
C237 C 0.32858 0.91794 0.07363 0.0
C238 C 0.34407 0.88362 0.07734 0.0
C239 C 0.31612 0.83702 0.10819 0.0
H240 H 0.12876 0.07092 0.5878 0.0
C241 C 0.15821 0.10013 0.56148 0.0
H242 H 0.25751 0.17578 0.53582 0.0
H243 H 0.4467 0.34588 0.6811 0.0
H244 H 0.46439 0.43042 0.64602 0.0
H245 H 0.38987 0.39433 0.59001 0.0
H246 H 0.29786 0.27367 0.56842 0.0
C247 C 0.22711 0.14636 0.5622 0.0
C248 C 0.26475 0.16482 0.59947 0.0
C249 C 0.31719 0.23533 0.61245 0.0
C250 C 0.3594 0.25596 0.64521 0.0
C251 C 0.41297 0.32718 0.65654 0.0
C252 C 0.42356 0.37631 0.63673 0.0
C253 C 0.38166 0.35601 0.60517 0.0
C254 C 0.32918 0.28654 0.59298 0.0
H255 H 0.41982 0.18664 0.65005 0.0
C256 C 0.43936 0.21829 0.67628 0.0
H257 H 0.4282 0.26669 0.71337 0.0
H258 H 0.16872 0.02387 0.58355 0.0
H259 H 0.14137 0.93805 0.62458 0.0
H260 H 0.20595 0.97307 0.68581 0.0
H261 H 0.30059 0.09557 0.70542 0.0
C262 C 0.406 0.23004 0.68958 0.0
C263 C 0.34872 0.2059 0.66515 0.0
C264 C 0.29048 0.13416 0.65551 0.0
C265 C 0.25016 0.11361 0.62169 0.0
C266 C 0.1979 0.04234 0.61035 0.0
C267 C 0.1822 0.99241 0.63344 0.0
C268 C 0.21881 0.01215 0.66779 0.0
C269 C 0.27293 0.08232 0.67862 0.0
H270 H 0.10461 0.22125 0.05289 0.0
C271 C 0.07954 0.1747 0.06912 0.0
H272 H 0.05321 0.1288 0.12497 0.0
H273 H 0.32764 0.48054 0.14 0.0
H274 H 0.38864 0.4741 0.09731 0.0
H275 H 0.32937 0.36063 0.07132 0.0
H276 H 0.20882 0.25357 0.08725 0.0
C277 C 0.08121 0.1761 0.10861 0.0
C278 C 0.12174 0.24169 0.13093 0.0
C279 C 0.19326 0.3034 0.12248 0.0
C280 C 0.22807 0.36834 0.13847 0.0
C281 C 0.29875 0.42975 0.12857 0.0
C282 C 0.3345 0.42676 0.10432 0.0
C283 C 0.30111 0.36293 0.08964 0.0
C284 C 0.2315 0.30184 0.09865 0.0
H285 H 0.25227 0.44966 0.23083 0.0
C286 C 0.25502 0.47484 0.20593 0.0
H287 H 0.22696 0.46577 0.14707 0.0
H288 H 0.99165 0.13024 0.16261 0.0
H289 H 0.93715 0.13562 0.21255 0.0
H290 H 0.9969 0.2487 0.23915 0.0
H291 H 0.11372 0.35746 0.21771 0.0
C292 C 0.22312 0.43994 0.17208 0.0
C293 C 0.19222 0.37104 0.16397 0.0
C294 C 0.12414 0.30836 0.17674 0.0
C295 C 0.08893 0.24321 0.16047 0.0
C296 C 0.0208 0.18123 0.17368 0.0
C297 C 0.98872 0.18355 0.20222 0.0
C298 C 0.02261 0.2473 0.21744 0.0
C299 C 0.08947 0.30925 0.20482 0.0
H300 H 0.85655 0.15116 0.62868 0.0
C301 C 0.8429 0.12007 0.65407 0.0
H302 H 0.78944 0.07936 0.70864 0.0
H303 H 0.81744 0.31301 0.73661 0.0
H304 H 0.89966 0.34679 0.78419 0.0
H305 H 0.93258 0.29051 0.78491 0.0
H306 H 0.88172 0.19838 0.73878 0.0
C307 C 0.80558 0.11103 0.6831 0.0
C308 C 0.78583 0.14511 0.68208 0.0
C309 C 0.8158 0.19864 0.70937 0.0
C310 C 0.79692 0.23124 0.70886 0.0
C311 C 0.8286 0.28534 0.73609 0.0
C312 C 0.87636 0.30567 0.76344 0.0
C313 C 0.89481 0.27389 0.76389 0.0
C314 C 0.86527 0.22116 0.73719 0.0
H315 H 0.67539 0.20629 0.73128 0.0
C316 C 0.69361 0.23942 0.70613 0.0
H317 H 0.74833 0.2783 0.65242 0.0
H318 H 0.71147 0.03761 0.62929 0.0
H319 H 0.62608 0.00087 0.58316 0.0
H320 H 0.59588 0.05971 0.58095 0.0
H321 H 0.65051 0.15529 0.62517 0.0
C322 C 0.73117 0.24679 0.67836 0.0
C323 C 0.74808 0.21017 0.68097 0.0
C324 C 0.717 0.15558 0.65429 0.0
C325 C 0.73523 0.1224 0.65513 0.0
C326 C 0.70108 0.06599 0.62925 0.0
C327 C 0.65157 0.04403 0.60275 0.0
C328 C 0.63453 0.07711 0.60153 0.0
C329 C 0.66651 0.1321 0.62699 0.0
H330 H 0.89659 0.94972 0.09098 0.0
C331 C 0.86493 0.9276 0.06489 0.0
H332 H 0.76589 0.86715 0.0422 0.0
H333 H 0.58335 0.69653 0.19107 0.0
H334 H 0.56222 0.60943 0.15676 0.0
H335 H 0.63288 0.64175 0.09923 0.0
H336 H 0.72506 0.76156 0.07566 0.0
C337 C 0.79813 0.88944 0.06826 0.0
C338 C 0.76431 0.87329 0.10684 0.0
C339 C 0.71084 0.80325 0.12058 0.0
C340 C 0.6699 0.78464 0.15372 0.0
C341 C 0.61608 0.71386 0.16614 0.0
C342 C 0.60339 0.6632 0.14671 0.0
C343 C 0.64315 0.68137 0.11433 0.0
C344 C 0.69599 0.75036 0.10116 0.0
H345 H 0.60652 0.85124 0.1582 0.0
C346 C 0.5891 0.82131 0.18503 0.0
H347 H 0.60554 0.77815 0.22286 0.0
H348 H 0.86483 0.01358 0.08971 0.0
H349 H 0.88785 0.101 0.12531 0.0
H350 H 0.81935 0.06898 0.18404 0.0
H351 H 0.72668 0.9486 0.20732 0.0
C352 C 0.62537 0.81288 0.19822 0.0
C353 C 0.68125 0.8359 0.17248 0.0
C354 C 0.7387 0.90699 0.16088 0.0
C355 C 0.77964 0.92568 0.1277 0.0
C356 C 0.83315 0.99641 0.11521 0.0
C357 C 0.84683 0.04722 0.13535 0.0
C358 C 0.80818 0.02919 0.16837 0.0
C359 C 0.75493 0.96003 0.18124 0.0
H360 H 0.90607 0.79303 0.54597 0.0
C361 C 0.95194 0.8436 0.55871 0.0
H362 H 0.02897 0.90072 0.60161 0.0
H363 H 0.85292 0.66732 0.73068 0.0
H364 H 0.93506 0.77534 0.7676 0.0
H365 H 0.02447 0.88928 0.73406 0.0
H366 H 0.0337 0.89626 0.66349 0.0
C367 C 0.98332 0.84884 0.59024 0.0
C368 C 0.9528 0.78559 0.61193 0.0
C369 C 0.94895 0.78295 0.65356 0.0
C370 C 0.8989 0.71685 0.67317 0.0
C371 C 0.8923 0.7155 0.71437 0.0
C372 C 0.93829 0.77727 0.73596 0.0
C373 C 0.98894 0.84152 0.71707 0.0
C374 C 0.99344 0.8447 0.67633 0.0
H375 H 0.84327 0.58379 0.71353 0.0
C376 C 0.79642 0.5536 0.69648 0.0
H377 H 0.74632 0.55054 0.6512 0.0
H378 H 0.97922 0.77855 0.53686 0.0
H379 H 0.9195 0.67288 0.50111 0.0
H380 H 0.82997 0.55748 0.53366 0.0
H381 H 0.80103 0.54727 0.6021 0.0
C382 C 0.79417 0.58357 0.66792 0.0
C383 C 0.85662 0.65437 0.65107 0.0
C384 C 0.87158 0.65901 0.61068 0.0
C385 C 0.92098 0.72492 0.59138 0.0
C386 C 0.93865 0.72889 0.55193 0.0
C387 C 0.9056 0.66889 0.53135 0.0
C388 C 0.85532 0.60398 0.5497 0.0
C389 C 0.83867 0.59881 0.58895 0.0
H390 H 0.18529 0.88773 0.39555 0.0
C391 C 0.15839 0.87941 0.36955 0.0
H392 H 0.12336 0.83532 0.31267 0.0
H393 H 0.3665 0.88182 0.27954 0.0
H394 H 0.39104 0.96056 0.23272 0.0
H395 H 0.32467 0.98201 0.2337 0.0
H396 H 0.23273 0.92403 0.28118 0.0
C397 C 0.15127 0.84576 0.33868 0.0
C398 C 0.1879 0.82902 0.33702 0.0
C399 C 0.24173 0.86358 0.30905 0.0
C400 C 0.2796 0.85074 0.30826 0.0
C401 C 0.33437 0.88757 0.28072 0.0
C402 C 0.34961 0.93365 0.25388 0.0
C403 C 0.31232 0.9458 0.25446 0.0
C404 C 0.25951 0.91196 0.28189 0.0
H405 H 0.2704 0.74333 0.28066 0.0
C406 C 0.30139 0.75899 0.30623 0.0
H407 H 0.33258 0.80452 0.36248 0.0
H408 H 0.08083 0.74617 0.39011 0.0
H409 H 0.05186 0.66243 0.43477 0.0
H410 H 0.11922 0.64206 0.43457 0.0
H411 H 0.21558 0.70492 0.38953 0.0
C412 C 0.30382 0.79075 0.33599 0.0
C413 C 0.26305 0.80284 0.33529 0.0
C414 C 0.20782 0.76674 0.36243 0.0
C415 C 0.16967 0.77925 0.363 0.0
C416 C 0.11291 0.7403 0.38926 0.0
C417 C 0.09535 0.69163 0.41485 0.0
C418 C 0.13323 0.68012 0.41471 0.0
C419 C 0.18865 0.71683 0.38878 0.0
H420 H 0.2277 0.15617 0.96783 0.0
C421 C 0.17445 0.11897 0.9577 0.0
H422 H 0.10462 0.0527 0.91259 0.0
H423 H 0.44192 0.2974 0.84855 0.0
H424 H 0.46399 0.38561 0.88152 0.0
H425 H 0.37069 0.35376 0.91788 0.0
H426 H 0.25644 0.23425 0.92229 0.0
C427 C 0.1587 0.09378 0.92098 0.0
C428 C 0.21224 0.11741 0.89217 0.0
C429 C 0.27889 0.18949 0.88828 0.0
C430 C 0.33214 0.20863 0.86578 0.0
C431 C 0.39914 0.27992 0.86444 0.0
C432 C 0.41268 0.3314 0.88322 0.0
C433 C 0.36029 0.31346 0.90373 0.0
C434 C 0.29443 0.2438 0.90626 0.0
H435 H 0.39735 0.21973 0.77836 0.0
C436 C 0.41569 0.20978 0.80032 0.0
H437 H 0.3958 0.16216 0.85449 0.0
H438 H 0.08707 0.97552 0.88539 0.0
H439 H 0.06405 0.89235 0.84515 0.0
H440 H 0.15629 0.92851 0.80426 0.0
H441 H 0.27307 0.04948 0.80385 0.0
C442 C 0.37771 0.173 0.83293 0.0
C443 C 0.31839 0.15681 0.84574 0.0
C444 C 0.25019 0.08696 0.84529 0.0
C445 C 0.19691 0.0668 0.86853 0.0
C446 C 0.1299 0.99536 0.86822 0.0
C447 C 0.11574 0.94644 0.84516 0.0
C448 C 0.16767 0.96673 0.8222 0.0
C449 C 0.23435 0.03604 0.82235 0.0
H450 H 0.0944 0.22073 0.48372 0.0
C451 C 0.07246 0.17938 0.4634 0.0
H452 H 0.05363 0.14853 0.40433 0.0
H453 H 0.12166 0.39001 0.32708 0.0
H454 H 0.00314 0.28628 0.3063 0.0
H455 H 0.93834 0.16929 0.32943 0.0
H456 H 0.99067 0.15583 0.37494 0.0
C457 C 0.07882 0.19102 0.42445 0.0
C458 C 0.12106 0.26091 0.40699 0.0
C459 C 0.09068 0.26749 0.3789 0.0
C460 C 0.12907 0.33465 0.36411 0.0
C461 C 0.09584 0.34019 0.33823 0.0
C462 C 0.02767 0.281 0.3261 0.0
C463 C 0.99107 0.2152 0.33929 0.0
C464 C 0.02178 0.20825 0.36552 0.0
H465 H 0.24731 0.45668 0.3041 0.0
C466 C 0.26104 0.49082 0.32732 0.0
H467 H 0.25283 0.50057 0.38754 0.0
H468 H 0.20279 0.26477 0.45044 0.0
H469 H 0.32317 0.36745 0.46786 0.0
H470 H 0.38847 0.48421 0.44388 0.0
H471 H 0.33351 0.49831 0.40178 0.0
C472 C 0.23785 0.46602 0.36413 0.0
C473 C 0.19881 0.39465 0.37606 0.0
C474 C 0.2309 0.38741 0.40174 0.0
C475 C 0.1925 0.32041 0.41668 0.0
C476 C 0.22768 0.31451 0.44006 0.0
C477 C 0.29741 0.37314 0.44986 0.0
C478 C 0.33419 0.4388 0.43629 0.0
C479 C 0.30179 0.44614 0.41232 0.0
H480 H 0.78364 0.08328 0.8967 0.0
C481 C 0.82833 0.12059 0.87732 0.0
H482 H 0.88086 0.20424 0.8374 0.0
H483 H 0.61594 0.11387 0.78662 0.0
H484 H 0.60613 0.04604 0.73821 0.0
H485 H 0.67619 0.02919 0.74385 0.0
H486 H 0.75791 0.08165 0.79745 0.0
C487 C 0.83512 0.16371 0.85532 0.0
C488 C 0.78402 0.16259 0.85612 0.0
C489 C 0.73677 0.13178 0.82469 0.0
C490 C 0.69675 0.14189 0.82135 0.0
C491 C 0.64913 0.10962 0.78994 0.0
C492 C 0.64241 0.06988 0.7622 0.0
C493 C 0.68185 0.06037 0.76539 0.0
C494 C 0.72863 0.09088 0.79619 0.0
H495 H 0.72247 0.25668 0.79106 0.0
C496 C 0.68659 0.24156 0.81327 0.0
H497 H 0.63542 0.18788 0.86657 0.0
H498 H 0.8665 0.22446 0.92146 0.0
H499 H 0.87541 0.29092 0.97042 0.0
H500 H 0.80622 0.30883 0.96476 0.0
H501 H 0.72797 0.26063 0.91011 0.0
C502 C 0.67014 0.202 0.84373 0.0
C503 C 0.70487 0.18355 0.84931 0.0
C504 C 0.74908 0.21075 0.88208 0.0
C505 C 0.78898 0.2005 0.88537 0.0
C506 C 0.83469 0.23034 0.9176 0.0
C507 C 0.84037 0.26868 0.94593 0.0
C508 C 0.8014 0.27873 0.94275 0.0
C509 C 0.75646 0.25053 0.91121 0.0
H510 H 0.7823 0.84934 0.47823 0.0
C511 C 0.8361 0.89411 0.46901 0.0
H512 H 0.9036 0.97588 0.42863 0.0
H513 H 0.58759 0.7357 0.34107 0.0
H514 H 0.5769 0.64756 0.3565 0.0
H515 H 0.66451 0.6757 0.39736 0.0
H516 H 0.76204 0.79126 0.42295 0.0
C517 C 0.84998 0.92721 0.43556 0.0
C518 C 0.7946 0.90702 0.41093 0.0
C519 C 0.73669 0.8378 0.39608 0.0
C520 C 0.68581 0.8213 0.37244 0.0
C521 C 0.62815 0.75175 0.35873 0.0
C522 C 0.62113 0.70022 0.36743 0.0
C523 C 0.67038 0.71606 0.39037 0.0
C524 C 0.72699 0.78351 0.40474 0.0
H525 H 0.62877 0.83068 0.29132 0.0
C526 C 0.60183 0.82833 0.31457 0.0
H527 H 0.60318 0.85081 0.3737 0.0
H528 H 0.894 0.04334 0.43722 0.0
H529 H 0.90147 0.12942 0.42221 0.0
H530 H 0.81639 0.10132 0.37841 0.0
H531 H 0.72112 0.98507 0.35057 0.0
C532 C 0.62956 0.85168 0.35084 0.0
C533 C 0.6918 0.8732 0.36415 0.0
C534 C 0.74997 0.94219 0.37803 0.0
C535 C 0.80083 0.95907 0.4018 0.0
C536 C 0.85516 0.02754 0.41767 0.0
C537 C 0.85991 0.07769 0.40955 0.0
C538 C 0.81182 0.06179 0.38507 0.0
C539 C 0.75737 0.99493 0.36943 0.0
H540 H 0.86995 0.80727 0.93128 0.0
C541 C 0.92444 0.84441 0.93874 0.0
H542 H 0.01455 0.87293 0.93204 0.0
H543 H 0.83722 0.5582 0.90048 0.0
H544 H 0.90386 0.58808 0.95808 0.0
H545 H 0.97999 0.70226 0.99058 0.0
H546 H 0.99057 0.78751 0.96546 0.0
C547 C 0.95993 0.8355 0.92482 0.0
C548 C 0.92383 0.77212 0.90142 0.0
C549 C 0.91863 0.72318 0.91641 0.0
C550 C 0.87356 0.6568 0.89816 0.0
C551 C 0.86947 0.60883 0.9137 0.0
C552 C 0.90769 0.62542 0.94663 0.0
C553 C 0.95062 0.68973 0.96489 0.0
C554 C 0.95617 0.73821 0.95015 0.0
H555 H 0.80936 0.578 0.79492 0.0
C556 C 0.77165 0.5411 0.81765 0.0
H557 H 0.7375 0.5267 0.87553 0.0
H558 H 0.93993 0.86226 0.85804 0.0
H559 H 0.87551 0.83366 0.79926 0.0
H560 H 0.78552 0.71384 0.7728 0.0
H561 H 0.76373 0.62334 0.80246 0.0
C562 C 0.77499 0.56429 0.8529 0.0
C563 C 0.83268 0.63887 0.86545 0.0
C564 C 0.84177 0.68981 0.84873 0.0
C565 C 0.88951 0.75745 0.86595 0.0
C566 C 0.90148 0.80907 0.84728 0.0
C567 C 0.86483 0.79337 0.8137 0.0
C568 C 0.81456 0.72597 0.79856 0.0
C569 C 0.80293 0.67456 0.81574 0.0
loop_
_geom_bond_atom_site_label_1
_geom_bond_atom_site_label_2
_geom_bond_distance
_geom_bond_site_symmetry_2
_ccdc_geom_bond_type
Tb0 N31 2.660 1_455 S
Tb0 N38 2.600 . S
Tb0 O44 2.546 1_565 S
Tb0 O45 2.610 1_564 S
Tb0 O47 2.320 1_454 S
Tb0 O48 2.552 1_565 S
Tb0 O49 2.413 . S
Tb0 O51 2.362 1_455 S
Tb0 O52 2.421 1_565 S
Tb0 C64 2.833 . S
C1 C4 1.432 . S
C1 C5 1.414 . S
C1 N8 1.359 1_455 S
C2 C4 1.417 . S
C2 C6 1.432 . S
C2 C14 1.410 . S
C3 C5 1.444 . S
C3 C6 1.317 . S
C3 H26 0.929 . S
C4 C1 1.432 . S
C4 C2 1.417 . S
C4 N12 1.360 . S
C5 C1 1.414 . S
C5 C3 1.444 . S
C5 C10 1.385 1_455 S
C6 C2 1.432 . S
C6 C3 1.317 . S
C6 H18 0.930 . S
C7 C9 1.392 . S
C7 C10 1.370 1_565 S
C7 H19 0.931 . S
N8 C1 1.359 1_655 S
N8 C9 1.327 1_545 S
N8 Tb11 2.600 . S
C9 C7 1.392 . S
C9 N8 1.327 1_565 S
C9 H16 0.930 . S
C10 C5 1.385 1_655 S
C10 C7 1.370 1_545 S
C10 H29 0.930 . S
Tb11 N8 2.600 . S
Tb11 N12 2.660 1_655 S
Tb11 O45 2.362 1_655 S
Tb11 O46 2.421 1_545 S
Tb11 O50 2.546 1_545 S
Tb11 O51 2.610 1_546 S
Tb11 O53 2.320 1_656 S
Tb11 O54 2.552 1_545 S
Tb11 O55 2.413 . S
Tb11 C75 2.833 . S
N12 C4 1.360 . S
N12 Tb11 2.660 1_455 S
N12 C13 1.305 . S
C13 N12 1.305 . S
C13 C15 1.407 . S
C13 H20 0.930 . S
C14 C2 1.410 . S
C14 C15 1.345 . S
C14 H22 0.930 . S
C15 C13 1.407 . S
C15 C14 1.345 . S
C15 H17 0.930 . S
H16 C9 0.930 . S
H17 C15 0.930 . S
H18 C6 0.930 . S
H19 C7 0.931 . S
H20 C13 0.930 . S
H21 C35 0.930 . S
H22 C14 0.930 . S
H23 C41 0.930 . S
H24 C32 0.930 . S
H25 C39 0.931 . S
H26 C3 0.929 . S
H27 C33 0.930 . S
H28 C66 0.930 . S
H29 C10 0.930 . S
H30 C65 0.929 . S
N31 Tb0 2.660 1_655 S
N31 C32 1.305 . S
N31 C36 1.360 . S
C32 H24 0.930 . S
C32 N31 1.305 . S
C32 C35 1.407 . S
C33 H27 0.930 . S
C33 C34 1.410 . S
C33 C35 1.345 . S
C34 C33 1.410 . S
C34 C36 1.417 . S
C34 C66 1.432 . S
C35 H21 0.930 . S
C35 C32 1.407 . S
C35 C33 1.345 . S
C36 N31 1.360 . S
C36 C34 1.417 . S
C36 C40 1.432 . S
H37 C42 0.930 1_545 S
N38 Tb0 2.600 . S
N38 C40 1.359 1_455 S
N38 C41 1.327 1_565 S
C39 H25 0.931 . S
C39 C41 1.392 . S
C39 C42 1.370 1_545 S
C40 C36 1.432 . S
C40 N38 1.359 1_655 S
C40 C43 1.414 . S
C41 H23 0.930 . S
C41 N38 1.327 1_545 S
C41 C39 1.392 . S
C42 H37 0.930 1_565 S
C42 C39 1.370 1_565 S
C42 C43 1.385 1_455 S
C43 C40 1.414 . S
C43 C42 1.385 1_655 S
C43 C65 1.444 . S
O44 Tb0 2.546 1_545 S
O44 C64 1.251 1_545 S
O45 Tb0 2.610 1_546 S
O45 Tb11 2.362 1_455 S
O45 C56 1.283 . S
O46 Tb11 2.421 1_565 S
O46 C63 1.262 . S
O47 Tb0 2.320 1_656 S
O47 C63 1.260 . S
O48 Tb0 2.552 1_545 S
O48 C56 1.243 1_554 S
O49 Tb0 2.413 . S
O49 C64 1.256 . S
O50 Tb11 2.546 1_565 S
O50 C75 1.251 1_565 S
O51 Tb0 2.362 1_655 S
O51 Tb11 2.610 1_564 S
O51 C67 1.283 . S
O52 Tb0 2.421 1_545 S
O52 C74 1.262 . S
O53 Tb11 2.320 1_454 S
O53 C74 1.260 . S
O54 Tb11 2.552 1_565 S
O54 C67 1.243 1_556 S
O55 Tb11 2.413 . S
O55 C75 1.256 . S
C56 O45 1.283 . S
C56 O48 1.243 1_556 S
C57 C59 1.382 . S
C57 C61 1.393 . S
C57 C64 1.500 . S
C58 C59 1.400 . S
C58 C60 1.384 . S
C59 C57 1.382 . S
C59 C58 1.400 . S
C59 H76 0.930 . S
C60 C58 1.384 . S
C60 C62 1.392 . S
C60 H77 0.931 . S
C61 C57 1.393 . S
C61 C62 1.401 . S
C61 H78 0.930 . S
C62 C60 1.392 . S
C62 C61 1.401 . S
C62 H79 0.930 . S
C63 O46 1.262 . S
C63 O47 1.260 . S
C64 Tb0 2.833 . S
C64 O44 1.251 1_565 S
C64 O49 1.256 . S
C64 C57 1.500 . S
C65 H30 0.929 . S
C65 C43 1.444 . S
C65 C66 1.317 . S
C66 H28 0.930 . S
C66 C34 1.432 . S
C66 C65 1.317 . S
C67 O51 1.283 . S
C67 O54 1.243 1_554 S
C68 C69 1.382 . S
C68 C72 1.393 . S
C68 C75 1.500 . S
C69 C68 1.382 . S
C69 C70 1.400 . S
C69 H80 0.930 . S
C70 C69 1.400 . S
C70 C71 1.384 . S
C71 C70 1.384 . S
C71 C73 1.392 . S
C71 H81 0.931 . S
C72 C68 1.393 . S
C72 C73 1.401 . S
C72 H82 0.930 . S
C73 C71 1.392 . S
C73 C72 1.401 . S
C73 H83 0.930 . S
C74 O52 1.262 . S
C74 O53 1.260 . S
C75 Tb11 2.833 . S
C75 O50 1.251 1_545 S
C75 O55 1.256 . S
C75 C68 1.500 . S
H76 C59 0.930 . S
H77 C60 0.931 . S
H78 C61 0.930 . S
H79 C62 0.930 . S
H80 C69 0.930 . S
H81 C71 0.931 . S
H82 C72 0.930 . S
H83 C73 0.930 . S
Tb84 N115 2.660 1_655 S
Tb84 N122 2.600 1_655 S
Tb84 O128 2.546 . S
Tb84 O129 2.610 1_545 S
Tb84 O131 2.320 1_655 S
Tb84 O132 2.552 1_545 S
Tb84 O133 2.413 . S
Tb84 O135 2.362 1_655 S
Tb84 O136 2.421 1_545 S
Tb84 C148 2.833 . S
C85 C88 1.432 . S
C85 C89 1.414 . S
C85 N92 1.359 1_665 S
C86 C88 1.417 . S
C86 C90 1.432 . S
C86 C98 1.410 . S
C87 C89 1.444 . S
C87 C90 1.317 . S
C87 H110 0.929 . S
C88 C85 1.432 . S
C88 C86 1.417 . S
C88 N96 1.360 . S
C89 C85 1.414 . S
C89 C87 1.444 . S
C89 C94 1.385 1_665 S
C90 C86 1.432 . S
C90 C87 1.317 . S
C90 H102 0.930 . S
C91 C93 1.392 . S
C91 C94 1.370 . S
C91 H103 0.931 . S
N92 C85 1.359 1_445 S
N92 C93 1.327 . S
N92 Tb95 2.600 1_545 S
C93 C91 1.392 . S
C93 N92 1.327 . S
C93 H100 0.930 . S
C94 C89 1.385 1_445 S
C94 C91 1.370 . S
C94 H113 0.930 . S
Tb95 N92 2.600 1_565 S
Tb95 N96 2.660 1_455 S
Tb95 O129 2.362 1_455 S
Tb95 O130 2.421 1_565 S
Tb95 O134 2.546 1_565 S
Tb95 O135 2.610 1_565 S
Tb95 O137 2.320 1_455 S
Tb95 O138 2.552 1_565 S
Tb95 O139 2.413 . S
Tb95 C159 2.833 . S
N96 C88 1.360 . S
N96 Tb95 2.660 1_655 S
N96 C97 1.305 . S
C97 N96 1.305 . S
C97 C99 1.407 . S
C97 H104 0.930 . S
C98 C86 1.410 . S
C98 C99 1.345 . S
C98 H106 0.930 . S
C99 C97 1.407 . S
C99 C98 1.345 . S
C99 H101 0.930 . S
H100 C93 0.930 . S
H101 C99 0.930 . S
H102 C90 0.930 . S
H103 C91 0.931 . S
H104 C97 0.930 . S
H105 C119 0.930 . S
H106 C98 0.930 . S
H107 C125 0.930 . S
H108 C116 0.930 . S
H109 C123 0.931 . S
H110 C87 0.929 . S
H111 C117 0.930 . S
H112 C150 0.930 . S
H113 C94 0.930 . S
H114 C149 0.929 . S
N115 Tb84 2.660 1_455 S
N115 C116 1.305 . S
N115 C120 1.360 . S
C116 H108 0.930 . S
C116 N115 1.305 . S
C116 C119 1.407 . S
C117 H111 0.930 . S
C117 C118 1.410 . S
C117 C119 1.345 . S
C118 C117 1.410 . S
C118 C120 1.417 . S
C118 C150 1.432 . S
C119 H105 0.930 . S
C119 C116 1.407 . S
C119 C117 1.345 . S
C120 N115 1.360 . S
C120 C118 1.417 . S
C120 C124 1.432 . S
H121 C126 0.930 . S
N122 Tb84 2.600 1_455 S
N122 C124 1.359 . S
N122 C125 1.327 1_445 S
C123 H109 0.931 . S
C123 C125 1.392 . S
C123 C126 1.370 1_665 S
C124 C120 1.432 . S
C124 N122 1.359 . S
C124 C127 1.414 . S
C125 H107 0.930 . S
C125 N122 1.327 1_665 S
C125 C123 1.392 . S
C126 H121 0.930 . S
C126 C123 1.370 1_445 S
C126 C127 1.385 . S
C127 C124 1.414 . S
C127 C126 1.385 . S
C127 C149 1.444 . S
O128 Tb84 2.546 . S
O128 C148 1.251 . S
O129 Tb84 2.610 1_565 S
O129 Tb95 2.362 1_655 S
O129 C140 1.283 . S
O130 Tb95 2.421 1_545 S
O130 C147 1.262 . S
O131 Tb84 2.320 1_455 S
O131 C147 1.260 . S
O132 Tb84 2.552 1_565 S
O132 C140 1.243 . S
O133 Tb84 2.413 . S
O133 C148 1.256 . S
O134 Tb95 2.546 1_545 S
O134 C159 1.251 1_545 S
O135 Tb84 2.362 1_455 S
O135 Tb95 2.610 1_545 S
O135 C151 1.283 . S
O136 Tb84 2.421 1_565 S
O136 C158 1.262 . S
O137 Tb95 2.320 1_655 S
O137 C158 1.260 . S
O138 Tb95 2.552 1_545 S
O138 C151 1.243 . S
O139 Tb95 2.413 . S
O139 C159 1.256 . S
C140 O129 1.283 . S
C140 O132 1.243 . S
C141 C143 1.382 . S
C141 C145 1.393 . S
C141 C148 1.500 . S
C142 C143 1.400 . S
C142 C144 1.384 . S
C143 C141 1.382 . S
C143 C142 1.400 . S
C143 H160 0.930 . S
C144 C142 1.384 . S
C144 C146 1.392 . S
C144 H161 0.931 . S
C145 C141 1.393 . S
C145 C146 1.401 . S
C145 H162 0.930 . S
C146 C144 1.392 . S
C146 C145 1.401 . S
C146 H163 0.930 . S
C147 O130 1.262 . S
C147 O131 1.260 . S
C148 Tb84 2.833 . S
C148 O128 1.251 . S
C148 O133 1.256 . S
C148 C141 1.500 . S
C149 H114 0.929 . S
C149 C127 1.444 . S
C149 C150 1.317 . S
C150 H112 0.930 . S
C150 C118 1.432 . S
C150 C149 1.317 . S
C151 O135 1.283 . S
C151 O138 1.243 . S
C152 C153 1.382 . S
C152 C156 1.393 . S
C152 C159 1.500 . S
C153 C152 1.382 . S
C153 C154 1.400 . S
C153 H164 0.930 . S
C154 C153 1.400 . S
C154 C155 1.384 . S
C155 C154 1.384 . S
C155 C157 1.392 . S
C155 H165 0.931 . S
C156 C152 1.393 . S
C156 C157 1.401 . S
C156 H166 0.930 1_565 S
C157 C155 1.392 . S
C157 C156 1.401 . S
C157 H167 0.930 . S
C158 O136 1.262 . S
C158 O137 1.260 . S
C159 Tb95 2.833 . S
C159 O134 1.251 1_565 S
C159 O139 1.256 . S
C159 C152 1.500 . S
H160 C143 0.930 . S
H161 C144 0.931 . S
H162 C145 0.930 . S
H163 C146 0.930 . S
H164 C153 0.930 . S
H165 C155 0.931 . S
H166 C156 0.930 1_545 S
H167 C157 0.930 . S
Zn168 O174 1.920 . S
Zn168 O180 1.898 . S
Zn168 O183 1.905 . S
Zn169 O177 1.905 . S
Zn169 O178 1.898 . S
Zn169 O186 1.920 . S
Zn170 O173 2.080 . S
Zn170 O176 2.114 . S
Zn170 O179 2.120 . S
Zn170 O181 2.120 . S
Zn170 O182 2.114 . S
Zn170 O185 2.080 . S
C171 O176 1.166 . S
C171 O177 1.182 . S
C172 O178 1.167 . S
C172 O179 1.299 . S
O173 Zn170 2.080 . S
O173 C187 1.305 . S
O174 Zn168 1.920 . S
O174 C187 1.234 . S
C175 O180 1.167 . S
C175 O181 1.299 . S
O176 Zn170 2.114 . S
O176 C171 1.166 . S
O177 Zn169 1.905 . S
O177 C171 1.182 . S
O178 Zn169 1.898 . S
O178 C172 1.167 . S
O179 Zn170 2.120 . S
O179 C172 1.299 . S
O180 Zn168 1.898 . S
O180 C175 1.167 . S
O181 Zn170 2.120 . S
O181 C175 1.299 . S
O182 Zn170 2.114 . S
O182 C184 1.166 . S
O183 Zn168 1.905 . S
O183 C184 1.182 . S
C184 O182 1.166 . S
C184 O183 1.182 . S
O185 Zn170 2.080 . S
O185 C188 1.305 . S
O186 Zn169 1.920 . S
O186 C188 1.234 . S
C187 O173 1.305 . S
C187 O174 1.234 . S
C188 O185 1.305 . S
C188 O186 1.234 . S
Zn189 O195 1.920 . S
Zn189 O201 1.898 . S
Zn189 O204 1.905 . S
Zn190 O198 1.905 . S
Zn190 O199 1.898 . S
Zn190 O207 1.920 . S
Zn191 O194 2.080 . S
Zn191 O197 2.114 . S
Zn191 O200 2.120 . S
Zn191 O202 2.120 . S
Zn191 O203 2.114 . S
Zn191 O206 2.080 . S
C192 O197 1.166 . S
C192 O198 1.182 . S
C193 O199 1.167 . S
C193 O200 1.299 . S
O194 Zn191 2.080 . S
O194 C208 1.305 . S
O195 Zn189 1.920 . S
O195 C208 1.234 . S
C196 O201 1.167 . S
C196 O202 1.299 . S
O197 Zn191 2.114 . S
O197 C192 1.166 . S
O198 Zn190 1.905 . S
O198 C192 1.182 . S
O199 Zn190 1.898 . S
O199 C193 1.167 . S
O200 Zn191 2.120 . S
O200 C193 1.299 . S
O201 Zn189 1.898 . S
O201 C196 1.167 . S
O202 Zn191 2.120 . S
O202 C196 1.299 . S
O203 Zn191 2.114 . S
O203 C205 1.166 . S
O204 Zn189 1.905 . S
O204 C205 1.182 . S
C205 O203 1.166 . S
C205 O204 1.182 . S
O206 Zn191 2.080 . S
O206 C209 1.305 . S
O207 Zn190 1.920 . S
O207 C209 1.234 . S
C208 O194 1.305 . S
C208 O195 1.234 . S
C209 O206 1.305 . S
C209 O207 1.234 . S
H210 C211 0.951 . S
C211 H210 0.951 . S
C211 C217 1.265 . S
H212 C217 0.950 . S
H213 C221 0.949 . S
H214 C222 0.950 . S
H215 C223 0.951 . S
H216 C224 0.951 . S
C217 C211 1.265 . S
C217 H212 0.950 . S
C217 C218 1.478 . S
C218 C217 1.478 . S
C218 C219 1.397 . S
C218 C235 1.394 . S
C219 C218 1.397 . S
C219 C220 1.438 . S
C219 C224 1.429 . S
C220 C219 1.438 . S
C220 C221 1.428 . S
C220 C233 1.394 . S
C221 H213 0.949 . S
C221 C220 1.428 . S
C221 C222 1.345 . S
C222 H214 0.950 . S
C222 C221 1.345 . S
C222 C223 1.424 . S
C223 H215 0.951 . S
C223 C222 1.424 . S
C223 C224 1.347 . S
C224 H216 0.951 . S
C224 C219 1.429 . S
C224 C223 1.347 . S
H225 C226 0.951 . S
C226 H225 0.951 . S
C226 C232 1.265 . S
H227 C232 0.950 . S
H228 C236 0.949 . S
H229 C237 0.950 . S
H230 C238 0.951 . S
H231 C239 0.951 . S
C232 C226 1.265 . S
C232 H227 0.950 . S
C232 C233 1.478 . S
C233 C220 1.394 . S
C233 C232 1.478 . S
C233 C234 1.397 . S
C234 C233 1.397 . S
C234 C235 1.438 . S
C234 C239 1.429 . S
C235 C218 1.394 . S
C235 C234 1.438 . S
C235 C236 1.428 . S
C236 H228 0.949 . S
C236 C235 1.428 . S
C236 C237 1.345 . S
C237 H229 0.950 . S
C237 C236 1.345 . S
C237 C238 1.424 . S
C238 H230 0.951 . S
C238 C237 1.424 . S
C238 C239 1.347 . S
C239 H231 0.951 . S
C239 C234 1.429 . S
C239 C238 1.347 . S
H240 C241 0.951 . S
C241 H240 0.951 . S
C241 C247 1.265 . S
H242 C247 0.950 . S
H243 C251 0.949 . S
H244 C252 0.950 . S
H245 C253 0.951 . S
H246 C254 0.951 . S
C247 C241 1.265 . S
C247 H242 0.950 . S
C247 C248 1.478 . S
C248 C247 1.478 . S
C248 C249 1.397 . S
C248 C265 1.394 . S
C249 C248 1.397 . S
C249 C250 1.438 . S
C249 C254 1.429 . S
C250 C249 1.438 . S
C250 C251 1.428 . S
C250 C263 1.394 . S
C251 H243 0.949 . S
C251 C250 1.428 . S
C251 C252 1.345 . S
C252 H244 0.950 . S
C252 C251 1.345 . S
C252 C253 1.424 . S
C253 H245 0.951 . S
C253 C252 1.424 . S
C253 C254 1.347 . S
C254 H246 0.951 . S
C254 C249 1.429 . S
C254 C253 1.347 . S
H255 C256 0.951 . S
C256 H255 0.951 . S
C256 C262 1.265 . S
H257 C262 0.950 . S
H258 C266 0.949 1_565 S
H259 C267 0.950 . S
H260 C268 0.951 . S
H261 C269 0.951 . S
C262 C256 1.265 . S
C262 H257 0.950 . S
C262 C263 1.478 . S
C263 C250 1.394 . S
C263 C262 1.478 . S
C263 C264 1.397 . S
C264 C263 1.397 . S
C264 C265 1.438 . S
C264 C269 1.429 . S
C265 C248 1.394 . S
C265 C264 1.438 . S
C265 C266 1.428 . S
C266 H258 0.949 1_545 S
C266 C265 1.428 . S
C266 C267 1.345 1_545 S
C267 H259 0.950 . S
C267 C266 1.345 1_565 S
C267 C268 1.424 . S
C268 H260 0.951 . S
C268 C267 1.424 . S
C268 C269 1.347 1_565 S
C269 H261 0.951 . S
C269 C264 1.429 . S
C269 C268 1.347 1_545 S
H270 C271 0.951 . S
C271 H270 0.951 . S
C271 C277 1.265 . S
H272 C277 0.950 . S
H273 C281 0.949 . S
H274 C282 0.950 . S
H275 C283 0.951 . S
H276 C284 0.951 . S
C277 C271 1.265 . S
C277 H272 0.950 . S
C277 C278 1.478 . S
C278 C277 1.478 . S
C278 C279 1.397 . S
C278 C295 1.394 . S
C279 C278 1.397 . S
C279 C280 1.438 . S
C279 C284 1.429 . S
C280 C279 1.438 . S
C280 C281 1.428 . S
C280 C293 1.394 . S
C281 H273 0.949 . S
C281 C280 1.428 . S
C281 C282 1.345 . S
C282 H274 0.950 . S
C282 C281 1.345 . S
C282 C283 1.424 . S
C283 H275 0.951 . S
C283 C282 1.424 . S
C283 C284 1.347 . S
C284 H276 0.951 . S
C284 C279 1.429 . S
C284 C283 1.347 . S
H285 C286 0.951 . S
C286 H285 0.951 . S
C286 C292 1.265 . S
H287 C292 0.950 . S
H288 C296 0.949 . S
H289 C297 0.950 1_655 S
H290 C298 0.951 . S
H291 C299 0.951 . S
C292 C286 1.265 . S
C292 H287 0.950 . S
C292 C293 1.478 . S
C293 C280 1.394 . S
C293 C292 1.478 . S
C293 C294 1.397 . S
C294 C293 1.397 . S
C294 C295 1.438 . S
C294 C299 1.429 . S
C295 C278 1.394 . S
C295 C294 1.438 . S
C295 C296 1.428 . S
C296 H288 0.949 . S
C296 C295 1.428 . S
C296 C297 1.345 . S
C297 H289 0.950 1_455 S
C297 C296 1.345 . S
C297 C298 1.424 . S
C298 H290 0.951 . S
C298 C297 1.424 . S
C298 C299 1.347 . S
C299 H291 0.951 . S
C299 C294 1.429 . S
C299 C298 1.347 . S
H300 C301 0.951 . S
C301 H300 0.951 . S
C301 C307 1.265 . S
H302 C307 0.950 . S
H303 C311 0.949 . S
H304 C312 0.950 1_455 S
H305 C313 0.951 1_455 S
H306 C314 0.951 . S
C307 C301 1.265 . S
C307 H302 0.950 . S
C307 C308 1.478 . S
C308 C307 1.478 . S
C308 C309 1.397 . S
C308 C325 1.394 . S
C309 C308 1.397 . S
C309 C310 1.438 . S
C309 C314 1.429 . S
C310 C309 1.438 . S
C310 C311 1.428 . S
C310 C323 1.394 . S
C311 H303 0.949 . S
C311 C310 1.428 . S
C311 C312 1.345 . S
C312 H304 0.950 1_655 S
C312 C311 1.345 . S
C312 C313 1.424 . S
C313 H305 0.951 1_655 S
C313 C312 1.424 . S
C313 C314 1.347 . S
C314 H306 0.951 . S
C314 C309 1.429 . S
C314 C313 1.347 . S
H315 C316 0.951 . S
C316 H315 0.951 . S
C316 C322 1.265 . S
H317 C322 0.950 . S
H318 C326 0.949 . S
H319 C327 0.950 . S
H320 C328 0.951 . S
H321 C329 0.951 . S
C322 C316 1.265 . S
C322 H317 0.950 . S
C322 C323 1.478 . S
C323 C310 1.394 . S
C323 C322 1.478 . S
C323 C324 1.397 . S
C324 C323 1.397 . S
C324 C325 1.438 . S
C324 C329 1.429 . S
C325 C308 1.394 . S
C325 C324 1.438 . S
C325 C326 1.428 . S
C326 H318 0.949 . S
C326 C325 1.428 . S
C326 C327 1.345 . S
C327 H319 0.950 . S
C327 C326 1.345 . S
C327 C328 1.424 . S
C328 H320 0.951 . S
C328 C327 1.424 . S
C328 C329 1.347 . S
C329 H321 0.951 . S
C329 C324 1.429 . S
C329 C328 1.347 . S
H330 C331 0.951 . S
C331 H330 0.951 . S
C331 C337 1.265 . S
H332 C337 0.950 . S
H333 C341 0.949 . S
H334 C342 0.950 . S
H335 C343 0.951 . S
H336 C344 0.951 . S
C337 C331 1.265 . S
C337 H332 0.950 . S
C337 C338 1.478 . S
C338 C337 1.478 . S
C338 C339 1.397 . S
C338 C355 1.394 . S
C339 C338 1.397 . S
C339 C340 1.438 . S
C339 C344 1.429 . S
C340 C339 1.438 . S
C340 C341 1.428 . S
C340 C353 1.394 . S
C341 H333 0.949 . S
C341 C340 1.428 . S
C341 C342 1.345 . S
C342 H334 0.950 . S
C342 C341 1.345 . S
C342 C343 1.424 . S
C343 H335 0.951 . S
C343 C342 1.424 . S
C343 C344 1.347 . S
C344 H336 0.951 . S
C344 C339 1.429 . S
C344 C343 1.347 . S
H345 C346 0.951 . S
C346 H345 0.951 . S
C346 C352 1.265 . S
H347 C352 0.950 . S
H348 C356 0.949 . S
H349 C357 0.950 . S
H350 C358 0.951 . S
H351 C359 0.951 . S
C352 C346 1.265 . S
C352 H347 0.950 . S
C352 C353 1.478 . S
C353 C340 1.394 . S
C353 C352 1.478 . S
C353 C354 1.397 . S
C354 C353 1.397 . S
C354 C355 1.438 . S
C354 C359 1.429 . S
C355 C338 1.394 . S
C355 C354 1.438 . S
C355 C356 1.428 1_565 S
C356 H348 0.949 . S
C356 C355 1.428 1_545 S
C356 C357 1.345 . S
C357 H349 0.950 . S
C357 C356 1.345 . S
C357 C358 1.424 . S
C358 H350 0.951 . S
C358 C357 1.424 . S
C358 C359 1.347 1_545 S
C359 H351 0.951 . S
C359 C354 1.429 . S
C359 C358 1.347 1_565 S
H360 C361 0.951 . S
C361 H360 0.951 . S
C361 C367 1.265 . S
H362 C367 0.950 . S
H363 C371 0.949 . S
H364 C372 0.950 . S
H365 C373 0.951 1_455 S
H366 C374 0.951 . S
C367 C361 1.265 . S
C367 H362 0.950 . S
C367 C368 1.478 . S
C368 C367 1.478 . S
C368 C369 1.397 . S
C368 C385 1.394 . S
C369 C368 1.397 . S
C369 C370 1.438 . S
C369 C374 1.429 . S
C370 C369 1.438 . S
C370 C371 1.428 . S
C370 C383 1.394 . S
C371 H363 0.949 . S
C371 C370 1.428 . S
C371 C372 1.345 . S
C372 H364 0.950 . S
C372 C371 1.345 . S
C372 C373 1.424 . S
C373 H365 0.951 1_655 S
C373 C372 1.424 . S
C373 C374 1.347 . S
C374 H366 0.951 . S
C374 C369 1.429 . S
C374 C373 1.347 . S
H375 C376 0.951 . S
C376 H375 0.951 . S
C376 C382 1.265 . S
H377 C382 0.950 . S
H378 C386 0.949 . S
H379 C387 0.950 . S
H380 C388 0.951 . S
H381 C389 0.951 . S
C382 C376 1.265 . S
C382 H377 0.950 . S
C382 C383 1.478 . S
C383 C370 1.394 . S
C383 C382 1.478 . S
C383 C384 1.397 . S
C384 C383 1.397 . S
C384 C385 1.438 . S
C384 C389 1.429 . S
C385 C368 1.394 . S
C385 C384 1.438 . S
C385 C386 1.428 . S
C386 H378 0.949 . S
C386 C385 1.428 . S
C386 C387 1.345 . S
C387 H379 0.950 . S
C387 C386 1.345 . S
C387 C388 1.424 . S
C388 H380 0.951 . S
C388 C387 1.424 . S
C388 C389 1.347 . S
C389 H381 0.951 . S
C389 C384 1.429 . S
C389 C388 1.347 . S
H390 C391 0.951 . S
C391 H390 0.951 . S
C391 C397 1.265 . S
H392 C397 0.950 . S
H393 C401 0.949 . S
H394 C402 0.950 1_545 S
H395 C403 0.951 . S
H396 C404 0.951 . S
C397 C391 1.265 . S
C397 H392 0.950 . S
C397 C398 1.478 . S
C398 C397 1.478 . S
C398 C399 1.397 . S
C398 C415 1.394 . S
C399 C398 1.397 . S
C399 C400 1.438 . S
C399 C404 1.429 . S
C400 C399 1.438 . S
C400 C401 1.428 . S
C400 C413 1.394 . S
C401 H393 0.949 . S
C401 C400 1.428 . S
C401 C402 1.345 . S
C402 H394 0.950 1_565 S
C402 C401 1.345 . S
C402 C403 1.424 1_565 S
C403 H395 0.951 . S
C403 C402 1.424 1_545 S
C403 C404 1.347 1_545 S
C404 H396 0.951 . S
C404 C399 1.429 . S
C404 C403 1.347 1_565 S
H405 C406 0.951 . S
C406 H405 0.951 . S
C406 C412 1.265 . S
H407 C412 0.950 . S
H408 C416 0.949 . S
H409 C417 0.950 . S
H410 C418 0.951 . S
H411 C419 0.951 . S
C412 C406 1.265 . S
C412 H407 0.950 . S
C412 C413 1.478 . S
C413 C400 1.394 . S
C413 C412 1.478 . S
C413 C414 1.397 . S
C414 C413 1.397 . S
C414 C415 1.438 . S
C414 C419 1.429 . S
C415 C398 1.394 . S
C415 C414 1.438 . S
C415 C416 1.428 . S
C416 H408 0.949 . S
C416 C415 1.428 . S
C416 C417 1.345 . S
C417 H409 0.950 . S
C417 C416 1.345 . S
C417 C418 1.424 . S
C418 H410 0.951 . S
C418 C417 1.424 . S
C418 C419 1.347 . S
C419 H411 0.951 . S
C419 C414 1.429 . S
C419 C418 1.347 . S
H420 C421 0.951 . S
C421 H420 0.951 . S
C421 C427 1.265 . S
H422 C427 0.950 . S
H423 C431 0.949 . S
H424 C432 0.950 . S
H425 C433 0.951 . S
H426 C434 0.951 . S
C427 C421 1.265 . S
C427 H422 0.950 . S
C427 C428 1.478 . S
C428 C427 1.478 . S
C428 C429 1.397 . S
C428 C445 1.394 . S
C429 C428 1.397 . S
C429 C430 1.438 . S
C429 C434 1.429 . S
C430 C429 1.438 . S
C430 C431 1.428 . S
C430 C443 1.394 . S
C431 H423 0.949 . S
C431 C430 1.428 . S
C431 C432 1.345 . S
C432 H424 0.950 . S
C432 C431 1.345 . S
C432 C433 1.424 . S
C433 H425 0.951 . S
C433 C432 1.424 . S
C433 C434 1.347 . S
C434 H426 0.951 . S
C434 C429 1.429 . S
C434 C433 1.347 . S
H435 C436 0.951 . S
C436 H435 0.951 . S
C436 C442 1.265 . S
H437 C442 0.950 . S
H438 C446 0.949 . S
H439 C447 0.950 . S
H440 C448 0.951 . S
H441 C449 0.951 . S
C442 C436 1.265 . S
C442 H437 0.950 . S
C442 C443 1.478 . S
C443 C430 1.394 . S
C443 C442 1.478 . S
C443 C444 1.397 . S
C444 C443 1.397 . S
C444 C445 1.438 . S
C444 C449 1.429 . S
C445 C428 1.394 . S
C445 C444 1.438 . S
C445 C446 1.428 . S
C446 H438 0.949 . S
C446 C445 1.428 . S
C446 C447 1.345 1_545 S
C447 H439 0.950 . S
C447 C446 1.345 1_565 S
C447 C448 1.424 1_565 S
C448 H440 0.951 . S
C448 C447 1.424 1_545 S
C448 C449 1.347 . S
C449 H441 0.951 . S
C449 C444 1.429 . S
C449 C448 1.347 . S
H450 C451 0.951 . S
C451 H450 0.951 . S
C451 C457 1.265 . S
H452 C457 0.950 . S
H453 C461 0.949 . S
H454 C462 0.950 . S
H455 C463 0.951 1_655 S
H456 C464 0.951 . S
C457 C451 1.265 . S
C457 H452 0.950 . S
C457 C458 1.478 . S
C458 C457 1.478 . S
C458 C459 1.397 . S
C458 C475 1.394 . S
C459 C458 1.397 . S
C459 C460 1.438 . S
C459 C464 1.429 . S
C460 C459 1.438 . S
C460 C461 1.428 . S
C460 C473 1.394 . S
C461 H453 0.949 . S
C461 C460 1.428 . S
C461 C462 1.345 . S
C462 H454 0.950 . S
C462 C461 1.345 . S
C462 C463 1.424 . S
C463 H455 0.951 1_455 S
C463 C462 1.424 . S
C463 C464 1.347 . S
C464 H456 0.951 . S
C464 C459 1.429 . S
C464 C463 1.347 . S
H465 C466 0.951 . S
C466 H465 0.951 . S
C466 C472 1.265 . S
H467 C472 0.950 . S
H468 C476 0.949 . S
H469 C477 0.950 . S
H470 C478 0.951 . S
H471 C479 0.951 . S
C472 C466 1.265 . S
C472 H467 0.950 . S
C472 C473 1.478 . S
C473 C460 1.394 . S
C473 C472 1.478 . S
C473 C474 1.397 . S
C474 C473 1.397 . S
C474 C475 1.438 . S
C474 C479 1.429 . S
C475 C458 1.394 . S
C475 C474 1.438 . S
C475 C476 1.428 . S
C476 H468 0.949 . S
C476 C475 1.428 . S
C476 C477 1.345 . S
C477 H469 0.950 . S
C477 C476 1.345 . S
C477 C478 1.424 . S
C478 H470 0.951 . S
C478 C477 1.424 . S
C478 C479 1.347 . S
C479 H471 0.951 . S
C479 C474 1.429 . S
C479 C478 1.347 . S
H480 C481 0.951 . S
C481 H480 0.951 . S
C481 C487 1.265 . S
H482 C487 0.950 . S
H483 C491 0.949 . S
H484 C492 0.950 . S
H485 C493 0.951 . S
H486 C494 0.951 . S
C487 C481 1.265 . S
C487 H482 0.950 . S
C487 C488 1.478 . S
C488 C487 1.478 . S
C488 C489 1.397 . S
C488 C505 1.394 . S
C489 C488 1.397 . S
C489 C490 1.438 . S
C489 C494 1.429 . S
C490 C489 1.438 . S
C490 C491 1.428 . S
C490 C503 1.394 . S
C491 H483 0.949 . S
C491 C490 1.428 . S
C491 C492 1.345 . S
C492 H484 0.950 . S
C492 C491 1.345 . S
C492 C493 1.424 . S
C493 H485 0.951 . S
C493 C492 1.424 . S
C493 C494 1.347 . S
C494 H486 0.951 . S
C494 C489 1.429 . S
C494 C493 1.347 . S
H495 C496 0.951 . S
C496 H495 0.951 . S
C496 C502 1.265 . S
H497 C502 0.950 . S
H498 C506 0.949 . S
H499 C507 0.920 1_554 S
H500 C508 0.951 . S
H501 C509 0.951 . S
C502 C496 1.265 . S
C502 H497 0.950 . S
C502 C503 1.478 . S
C503 C490 1.394 . S
C503 C502 1.478 . S
C503 C504 1.397 . S
C504 C503 1.397 . S
C504 C505 1.438 . S
C504 C509 1.429 . S
C505 C488 1.394 . S
C505 C504 1.438 . S
C505 C506 1.428 . S
C506 H498 0.949 . S
C506 C505 1.428 . S
C506 C507 1.345 . S
C507 H499 0.920 1_556 S
C507 C506 1.345 . S
C507 C508 1.424 . S
C508 H500 0.951 . S
C508 C507 1.424 . S
C508 C509 1.347 . S
C509 H501 0.951 . S
C509 C504 1.429 . S
C509 C508 1.347 . S
H510 C511 0.951 . S
C511 H510 0.951 . S
C511 C517 1.265 . S
H512 C517 0.950 . S
H513 C521 0.949 . S
H514 C522 0.950 . S
H515 C523 0.951 . S
H516 C524 0.951 . S
C517 C511 1.265 . S
C517 H512 0.950 . S
C517 C518 1.478 . S
C518 C517 1.478 . S
C518 C519 1.397 . S
C518 C535 1.394 . S
C519 C518 1.397 . S
C519 C520 1.438 . S
C519 C524 1.429 . S
C520 C519 1.438 . S
C520 C521 1.428 . S
C520 C533 1.394 . S
C521 H513 0.949 . S
C521 C520 1.428 . S
C521 C522 1.345 . S
C522 H514 0.950 . S
C522 C521 1.345 . S
C522 C523 1.424 . S
C523 H515 0.951 . S
C523 C522 1.424 . S
C523 C524 1.347 . S
C524 H516 0.951 . S
C524 C519 1.429 . S
C524 C523 1.347 . S
H525 C526 0.951 . S
C526 H525 0.951 . S
C526 C532 1.265 . S
H527 C532 0.950 . S
H528 C536 0.949 1_545 S
H529 C537 0.950 . S
H530 C538 0.951 1_545 S
H531 C539 0.951 . S
C532 C526 1.265 . S
C532 H527 0.950 . S
C532 C533 1.478 . S
C533 C520 1.394 . S
C533 C532 1.478 . S
C533 C534 1.397 . S
C534 C533 1.397 . S
C534 C535 1.438 . S
C534 C539 1.429 . S
C535 C518 1.394 . S
C535 C534 1.438 . S
C535 C536 1.428 . S
C536 H528 0.949 1_565 S
C536 C535 1.428 . S
C536 C537 1.345 1_565 S
C537 H529 0.950 . S
C537 C536 1.345 1_545 S
C537 C538 1.424 1_545 S
C538 H530 0.951 1_565 S
C538 C537 1.424 1_565 S
C538 C539 1.347 . S
C539 H531 0.951 . S
C539 C534 1.429 . S
C539 C538 1.347 . S
H540 C541 0.951 . S
C541 H540 0.951 . S
C541 C547 1.265 . S
H542 C547 0.950 . S
H543 C551 0.949 . S
H544 C552 0.950 . S
H545 C553 0.951 . S
H546 C554 0.951 . S
C547 C541 1.265 . S
C547 H542 0.950 . S
C547 C548 1.478 . S
C548 C547 1.478 . S
C548 C549 1.397 . S
C548 C565 1.394 . S
C549 C548 1.397 . S
C549 C550 1.438 . S
C549 C554 1.429 . S
C550 C549 1.438 . S
C550 C551 1.428 . S
C550 C563 1.394 . S
C551 H543 0.949 . S
C551 C550 1.428 . S
C551 C552 1.345 . S
C552 H544 0.950 . S
C552 C551 1.345 . S
C552 C553 1.424 . S
C553 H545 0.951 . S
C553 C552 1.424 . S
C553 C554 1.347 . S
C554 H546 0.951 . S
C554 C549 1.429 . S
C554 C553 1.347 . S
H555 C556 0.951 . S
C556 H555 0.951 . S
C556 C562 1.265 . S
H557 C562 0.950 . S
H558 C566 0.949 . S
H559 C567 0.950 . S
H560 C568 0.951 . S
H561 C569 0.951 . S
C562 C556 1.265 . S
C562 H557 0.950 . S
C562 C563 1.478 . S
C563 C550 1.394 . S
C563 C562 1.478 . S
C563 C564 1.397 . S
C564 C563 1.397 . S
C564 C565 1.438 . S
C564 C569 1.429 . S
C565 C548 1.394 . S
C565 C564 1.438 . S
C565 C566 1.428 . S
C566 H558 0.949 . S
C566 C565 1.428 . S
C566 C567 1.345 . S
C567 H559 0.950 . S
C567 C566 1.345 . S
C567 C568 1.424 . S
C568 H560 0.951 . S
C568 C567 1.424 . S
C568 C569 1.347 . S
C569 H561 0.951 . S
C569 C564 1.429 . S
C569 C568 1.347 . S
C211 C58 1.226 . S
C226 C187 1.274 . S
C241 C151 1.605 . S
C256 C193 1.382 . S
C271 C74 1.582 . S
C286 C184 1.484 . S
C301 C142 1.239 . S
C316 C209 1.330 . S
C331 C67 1.606 . S
C346 C175 1.396 . S
C376 C192 1.442 . S
C361 C158 1.497 . S
C391 C154 1.242 . S
C406 C188 1.339 . S
C436 C205 1.542 . S
C421 C56 1.535 . S
C466 C172 1.439 . S
C451 C147 1.559 . S
C496 C208 1.246 . S
C481 C70 1.120 . S
C526 C171 1.543 . S
C511 C140 1.535 . S
C556 C196 1.450 . S
C541 C63 1.521 . S
