# Generated by pormake.
# Topology myd, (4,6)-cn, num edge types: 1
# Building blocks:
#     Node 0, Type 0, BuildingBlock: NAWXER_clean_sbu_0, # of connection points: 4
#     Node 1, Type 0, BuildingBlock: NAWXER_clean_sbu_0, # of connection points: 4
#     Node 2, Type 0, BuildingBlock: NAWXER_clean_sbu_0, # of connection points: 4
#     Node 3, Type 0, BuildingBlock: NAWXER_clean_sbu_0, # of connection points: 4
#     Node 4, Type 0, BuildingBlock: NAWXER_clean_sbu_0, # of connection points: 4
#     Node 5, Type 0, BuildingBlock: NAWXER_clean_sbu_0, # of connection points: 4
#     Node 6, Type 0, BuildingBlock: NAWXER_clean_sbu_0, # of connection points: 4
#     Node 7, Type 0, BuildingBlock: NAWXER_clean_sbu_0, # of connection points: 4
#     Node 8, Type 0, BuildingBlock: NAWXER_clean_sbu_0, # of connection points: 4
#     Node 9, Type 0, BuildingBlock: NAWXER_clean_sbu_0, # of connection points: 4
#     Node 10, Type 0, BuildingBlock: NAWXER_clean_sbu_0, # of connection points: 4
#     Node 11, Type 0, BuildingBlock: NAWXER_clean_sbu_0, # of connection points: 4
#     Node 12, Type 1, BuildingBlock: FUNLAD_clean_sbu_0, # of connection points: 6
#     Node 13, Type 1, BuildingBlock: FUNLAD_clean_sbu_0, # of connection points: 6
#     Node 14, Type 1, BuildingBlock: FUNLAD_clean_sbu_0, # of connection points: 6
#     Node 15, Type 1, BuildingBlock: FUNLAD_clean_sbu_0, # of connection points: 6
#     Node 16, Type 1, BuildingBlock: FUNLAD_clean_sbu_0, # of connection points: 6
#     Node 17, Type 1, BuildingBlock: FUNLAD_clean_sbu_0, # of connection points: 6
#     Node 18, Type 1, BuildingBlock: FUNLAD_clean_sbu_0, # of connection points: 6
#     Node 19, Type 1, BuildingBlock: FUNLAD_clean_sbu_0, # of connection points: 6
#     Edge 20, Type (0, 1), BuildingBlock: UVAHIK_clean_linker_0, # of connection points: 2
#     Edge 21, Type (0, 1), BuildingBlock: UVAHIK_clean_linker_0, # of connection points: 2
#     Edge 22, Type (0, 1), BuildingBlock: UVAHIK_clean_linker_0, # of connection points: 2
#     Edge 23, Type (0, 1), BuildingBlock: UVAHIK_clean_linker_0, # of connection points: 2
#     Edge 24, Type (0, 1), BuildingBlock: UVAHIK_clean_linker_0, # of connection points: 2
#     Edge 25, Type (0, 1), BuildingBlock: UVAHIK_clean_linker_0, # of connection points: 2
#     Edge 26, Type (0, 1), BuildingBlock: UVAHIK_clean_linker_0, # of connection points: 2
#     Edge 27, Type (0, 1), BuildingBlock: UVAHIK_clean_linker_0, # of connection points: 2
#     Edge 28, Type (0, 1), BuildingBlock: UVAHIK_clean_linker_0, # of connection points: 2
#     Edge 29, Type (0, 1), BuildingBlock: UVAHIK_clean_linker_0, # of connection points: 2
#     Edge 30, Type (0, 1), BuildingBlock: UVAHIK_clean_linker_0, # of connection points: 2
#     Edge 31, Type (0, 1), BuildingBlock: UVAHIK_clean_linker_0, # of connection points: 2
#     Edge 32, Type (0, 1), BuildingBlock: UVAHIK_clean_linker_0, # of connection points: 2
#     Edge 33, Type (0, 1), BuildingBlock: UVAHIK_clean_linker_0, # of connection points: 2
#     Edge 34, Type (0, 1), BuildingBlock: UVAHIK_clean_linker_0, # of connection points: 2
#     Edge 35, Type (0, 1), BuildingBlock: UVAHIK_clean_linker_0, # of connection points: 2
#     Edge 36, Type (0, 1), BuildingBlock: UVAHIK_clean_linker_0, # of connection points: 2
#     Edge 37, Type (0, 1), BuildingBlock: UVAHIK_clean_linker_0, # of connection points: 2
#     Edge 38, Type (0, 1), BuildingBlock: UVAHIK_clean_linker_0, # of connection points: 2
#     Edge 39, Type (0, 1), BuildingBlock: UVAHIK_clean_linker_0, # of connection points: 2
#     Edge 40, Type (0, 1), BuildingBlock: UVAHIK_clean_linker_0, # of connection points: 2
#     Edge 41, Type (0, 1), BuildingBlock: UVAHIK_clean_linker_0, # of connection points: 2
#     Edge 42, Type (0, 1), BuildingBlock: UVAHIK_clean_linker_0, # of connection points: 2
#     Edge 43, Type (0, 1), BuildingBlock: UVAHIK_clean_linker_0, # of connection points: 2
#     Edge 44, Type (0, 1), BuildingBlock: UVAHIK_clean_linker_0, # of connection points: 2
#     Edge 45, Type (0, 1), BuildingBlock: UVAHIK_clean_linker_0, # of connection points: 2
#     Edge 46, Type (0, 1), BuildingBlock: UVAHIK_clean_linker_0, # of connection points: 2
#     Edge 47, Type (0, 1), BuildingBlock: UVAHIK_clean_linker_0, # of connection points: 2
#     Edge 48, Type (0, 1), BuildingBlock: UVAHIK_clean_linker_0, # of connection points: 2
#     Edge 49, Type (0, 1), BuildingBlock: UVAHIK_clean_linker_0, # of connection points: 2
#     Edge 50, Type (0, 1), BuildingBlock: UVAHIK_clean_linker_0, # of connection points: 2
#     Edge 51, Type (0, 1), BuildingBlock: UVAHIK_clean_linker_0, # of connection points: 2
#     Edge 52, Type (0, 1), BuildingBlock: UVAHIK_clean_linker_0, # of connection points: 2
#     Edge 53, Type (0, 1), BuildingBlock: UVAHIK_clean_linker_0, # of connection points: 2
#     Edge 54, Type (0, 1), BuildingBlock: UVAHIK_clean_linker_0, # of connection points: 2
#     Edge 55, Type (0, 1), BuildingBlock: UVAHIK_clean_linker_0, # of connection points: 2
#     Edge 56, Type (0, 1), BuildingBlock: UVAHIK_clean_linker_0, # of connection points: 2
#     Edge 57, Type (0, 1), BuildingBlock: UVAHIK_clean_linker_0, # of connection points: 2
#     Edge 58, Type (0, 1), BuildingBlock: UVAHIK_clean_linker_0, # of connection points: 2
#     Edge 59, Type (0, 1), BuildingBlock: UVAHIK_clean_linker_0, # of connection points: 2
#     Edge 60, Type (0, 1), BuildingBlock: UVAHIK_clean_linker_0, # of connection points: 2
#     Edge 61, Type (0, 1), BuildingBlock: UVAHIK_clean_linker_0, # of connection points: 2
#     Edge 62, Type (0, 1), BuildingBlock: UVAHIK_clean_linker_0, # of connection points: 2
#     Edge 63, Type (0, 1), BuildingBlock: UVAHIK_clean_linker_0, # of connection points: 2
#     Edge 64, Type (0, 1), BuildingBlock: UVAHIK_clean_linker_0, # of connection points: 2
#     Edge 65, Type (0, 1), BuildingBlock: UVAHIK_clean_linker_0, # of connection points: 2
#     Edge 66, Type (0, 1), BuildingBlock: UVAHIK_clean_linker_0, # of connection points: 2
#     Edge 67, Type (0, 1), BuildingBlock: UVAHIK_clean_linker_0, # of connection points: 2
# Relax obj value: 0.275
# Max RMSD: 0.224
# Mean RMSD: 0.145
data_MOF--net-myd--node1-NAWXER_clean_sbu_0--node2-FUNLAD_clean_sbu_0--edge1-UVAHIK_clean_linker_0
_symmetry_space_group_name_H-M    P1
_symmetry_Int_Tables_number       1
_symmetry_cell_setting            triclinic
loop_
_symmetry_equiv_pos_as_xyz
'x, y, z'
_cell_length_a     58.782107
_cell_length_b     58.907439
_cell_length_c     63.307359
_cell_angle_alpha  85.341751
_cell_angle_beta   84.700079
_cell_angle_gamma 89.010206
loop_
_atom_site_label
_atom_site_type_symbol
_atom_site_fract_x
_atom_site_fract_y
_atom_site_fract_z
_atom_type_partial_charge
C0 C 0.03189 0.22917 0.3186 0.0
C1 C 0.02022 0.28845 0.36819 0.0
O2 O 0.04743 0.24133 0.32457 0.0
Zn3 Zn 0.0269 0.25849 0.34348 0.0
O4 O 0.01094 0.23248 0.32518 0.0
Zn5 Zn 0.9908 0.25364 0.34556 0.0
O6 O 0.97254 0.27026 0.32534 0.0
O7 O 0.0091 0.27914 0.32073 0.0
O8 O 1.00151 0.27954 0.36413 0.0
O9 O 0.03914 0.28088 0.36006 0.0
O10 O 0.0141 0.23137 0.36611 0.0
O11 O 0.97662 0.23054 0.36573 0.0
C12 C 0.9887 0.2819 0.3153 0.0
C13 C 0.99484 0.2221 0.37261 0.0
C14 C 0.03213 0.76016 0.19704 0.0
C15 C 0.02249 0.70506 0.14541 0.0
O16 O 0.04785 0.74883 0.18732 0.0
Zn17 Zn 0.02781 0.73289 0.17121 0.0
O18 O 0.01122 0.75746 0.1936 0.0
Zn19 Zn 0.99174 0.7383 0.17423 0.0
O20 O 0.9726 0.72012 0.19577 0.0
O21 O 0.00929 0.71171 0.19605 0.0
O22 O 0.00343 0.71384 0.15241 0.0
O23 O 0.04095 0.71156 0.15186 0.0
O24 O 0.01594 0.761 0.15132 0.0
O25 O 0.97842 0.76296 0.15672 0.0
C26 C 0.98856 0.70849 0.20384 0.0
C27 C 0.99704 0.77101 0.1475 0.0
C28 C 0.34352 1.0003 0.20159 0.0
C29 C 0.28523 0.99468 0.26283 0.0
O30 O 0.3372 0.98212 0.21271 0.0
Zn31 Zn 0.31474 0.99632 0.23224 0.0
O32 O 0.33458 0.01945 0.20638 0.0
Zn33 Zn 0.3092 0.03253 0.22901 0.0
O34 O 0.32655 0.05217 0.24472 0.0
O35 O 0.33581 0.01573 0.24975 0.0
O36 O 0.28858 0.01498 0.25438 0.0
O37 O 0.2965 0.97827 0.2549 0.0
O38 O 0.29012 0.00783 0.21087 0.0
O39 O 0.28668 0.04521 0.21046 0.0
C40 C 0.33859 0.03654 0.2534 0.0
C41 C 0.28104 0.0265 0.20374 0.0
C42 C 0.73834 0.51005 0.202 0.0
C43 C 0.67566 0.52231 0.25649 0.0
O44 O 0.72837 0.49151 0.20943 0.0
Zn45 Zn 0.7008 0.48101 0.23261 0.0
O46 O 0.73163 0.52873 0.20931 0.0
Zn47 Zn 0.70676 0.51674 0.2291 0.0
O48 O 0.72288 0.49801 0.2541 0.0
O49 O 0.71559 0.46136 0.25337 0.0
O50 O 0.68799 0.53741 0.24563 0.0
O51 O 0.67864 0.50129 0.2529 0.0
O52 O 0.67953 0.46773 0.21594 0.0
O53 O 0.68344 0.50485 0.20864 0.0
C54 C 0.72477 0.47734 0.2618 0.0
C55 C 0.67445 0.48598 0.20521 0.0
C56 C 0.22619 0.33936 0.98269 0.0
C57 C 0.28687 0.28159 0.97739 0.0
O58 O 0.23547 0.33126 0.96595 0.0
Zn59 Zn 0.25682 0.31068 0.97952 0.0
O60 O 0.23317 0.33258 0.00078 0.0
Zn61 Zn 0.25789 0.30899 0.01313 0.0
O62 O 0.27884 0.32805 0.02559 0.0
O63 O 0.28101 0.33282 0.99055 0.0
O64 O 0.28123 0.28654 0.99654 0.0
O65 O 0.2768 0.29161 0.96224 0.0
O66 O 0.23472 0.28592 0.99733 0.0
O67 O 0.23876 0.28763 0.03146 0.0
C68 C 0.28797 0.33768 0.00825 0.0
C69 C 0.22938 0.27879 0.01681 0.0
C70 C 0.24737 0.73134 0.49381 0.0
C71 C 0.30936 0.67597 0.50562 0.0
O72 O 0.25949 0.72672 0.4768 0.0
Zn73 Zn 0.28826 0.70615 0.46712 0.0
O74 O 0.25236 0.72201 0.51167 0.0
Zn75 Zn 0.278 0.70343 0.50067 0.0
O76 O 0.3033 0.7283 0.49018 0.0
O77 O 0.3105 0.72901 0.45527 0.0
O78 O 0.29464 0.68311 0.51964 0.0
O79 O 0.30843 0.68309 0.48601 0.0
O80 O 0.27454 0.68657 0.44872 0.0
O81 O 0.26137 0.68073 0.48251 0.0
C82 C 0.31429 0.73648 0.47291 0.0
C83 C 0.26121 0.67606 0.46309 0.0
C84 C 0.72208 0.84793 0.47746 0.0
C85 C 0.78199 0.78937 0.47031 0.0
O86 O 0.73032 0.83943 0.46054 0.0
Zn87 Zn 0.75241 0.81881 0.47314 0.0
O88 O 0.73022 0.84157 0.49514 0.0
Zn89 Zn 0.75563 0.81825 0.50652 0.0
O90 O 0.77801 0.83754 0.5169 0.0
O91 O 0.77841 0.84043 0.48191 0.0
O92 O 0.77787 0.79531 0.48935 0.0
O93 O 0.77062 0.79842 0.45559 0.0
O94 O 0.73124 0.7948 0.49264 0.0
O95 O 0.7374 0.79708 0.52623 0.0
C96 C 0.78674 0.84583 0.49884 0.0
C97 C 0.72703 0.78798 0.51233 0.0
C98 C 0.49152 0.78093 0.81209 0.0
C99 C 0.49087 0.7215 0.87047 0.0
O100 O 0.47417 0.7713 0.82228 0.0
Zn101 Zn 0.49041 0.75312 0.84302 0.0
O102 O 0.51146 0.77635 0.81807 0.0
Zn103 Zn 0.52664 0.75503 0.84222 0.0
O104 O 0.54658 0.73621 0.8246 0.0
O105 O 0.50966 0.73019 0.82345 0.0
O106 O 0.51098 0.72913 0.86461 0.0
O107 O 0.47368 0.73139 0.86285 0.0
O108 O 0.50234 0.77811 0.86184 0.0
O109 O 0.53996 0.77654 0.85903 0.0
C110 C 0.53056 0.72524 0.81793 0.0
C111 C 0.52147 0.78556 0.86649 0.0
C112 C 0.4958 0.2082 0.70979 0.0
C113 C 0.50631 0.27377 0.6569 0.0
O114 O 0.47761 0.21387 0.7008 0.0
Zn115 Zn 0.46704 0.23866 0.67645 0.0
O116 O 0.51428 0.21874 0.70375 0.0
Zn117 Zn 0.50205 0.2397 0.68222 0.0
O118 O 0.47872 0.25908 0.70196 0.0
O119 O 0.44364 0.25527 0.69264 0.0
O120 O 0.52145 0.26329 0.66714 0.0
O121 O 0.48587 0.26611 0.65889 0.0
O122 O 0.45794 0.22006 0.65512 0.0
O123 O 0.49491 0.21756 0.65846 0.0
C124 C 0.45729 0.26359 0.70435 0.0
C125 C 0.47739 0.21153 0.6497 0.0
C126 C 0.78587 0.53434 0.70669 0.0
C127 C 0.84495 0.5385 0.75581 0.0
O128 O 0.79353 0.5524 0.71311 0.0
Zn129 Zn 0.81527 0.53736 0.73115 0.0
O130 O 0.79392 0.51489 0.71311 0.0
Zn131 Zn 0.8191 0.50098 0.73298 0.0
O132 O 0.80029 0.48251 0.75478 0.0
O133 O 0.79323 0.51934 0.7554 0.0
O134 O 0.8412 0.51814 0.75133 0.0
O135 O 0.83357 0.55503 0.74774 0.0
O136 O 0.83943 0.52446 0.70756 0.0
O137 O 0.84034 0.48695 0.7122 0.0
C138 C 0.78904 0.49882 0.76291 0.0
C139 C 0.84728 0.50528 0.70172 0.0
C140 C 0.23002 0.0068 0.70234 0.0
C141 C 0.17127 0.01855 0.76068 0.0
O142 O 0.22194 0.98809 0.7116 0.0
Zn143 Zn 0.19708 0.97728 0.73723 0.0
O144 O 0.22253 0.02561 0.70885 0.0
Zn145 Zn 0.20036 0.01339 0.73138 0.0
O146 O 0.22036 0.99763 0.75501 0.0
O147 O 0.21515 0.96038 0.75744 0.0
O148 O 0.18193 0.03389 0.7485 0.0
O149 O 0.17532 0.99748 0.75787 0.0
O150 O 0.17498 0.9613 0.72344 0.0
O151 O 0.17538 0.99837 0.71469 0.0
C152 C 0.22433 0.97772 0.7637 0.0
C153 C 0.1672 0.97863 0.71304 0.0
C154 C 0.76279 0.18219 0.95678 0.0
C155 C 0.81436 0.24379 0.96637 0.0
O156 O 0.76207 0.18766 0.976 0.0
Zn157 Zn 0.77688 0.2117 0.99384 0.0
O158 O 0.7759 0.19287 0.94235 0.0
Zn159 Zn 0.78855 0.21339 0.96065 0.0
O160 O 0.80784 0.19103 0.9811 0.0
O161 O 0.7926 0.19228 0.0142 0.0
O162 O 0.81138 0.23547 0.94892 0.0
O163 O 0.80257 0.23644 0.98353 0.0
O164 O 0.75028 0.2299 0.00312 0.0
O165 O 0.75983 0.23481 0.96856 0.0
C166 C 0.80786 0.18461 0.00097 0.0
C167 C 0.74673 0.2395 0.98498 0.0
C168 C 0.09605 0.02787 0.07558 0.0
N169 N 0.06643 0.03701 0.01742 0.0
C170 C 0.08747 0.04327 0.00822 0.0
C171 C 0.09275 0.04268 0.98637 0.0
C172 C 0.0763 0.03551 0.97373 0.0
C173 C 0.05504 0.02813 0.98368 0.0
C174 C 0.05038 0.02916 0.0057 0.0
Zn175 Zn 0.05927 0.04333 0.04873 0.0
C176 C 0.03452 0.0048 0.07534 0.0
N177 N 0.0455 0.05925 0.11326 0.0
C178 C 0.06481 0.06582 0.12133 0.0
C179 C 0.02461 0.06143 0.1242 0.0
C180 C 0.02263 0.0716 0.1436 0.0
C181 C 0.04235 0.07947 0.15159 0.0
C182 C 0.06364 0.07562 0.14058 0.0
Zn183 Zn 0.05031 0.05063 0.08242 0.0
O184 O 0.09233 0.02978 0.05605 0.0
C185 C 0.07597 0.0887 0.05639 0.0
O186 O 0.08088 0.03441 0.08931 0.0
H187 H 0.00943 0.05636 0.11744 0.0
H188 H 0.1 0.04953 0.01773 0.0
H189 H 0.08126 0.06471 0.11236 0.0
O190 O 0.07413 0.07593 0.04146 0.0
O191 O 0.06758 0.08218 0.07502 0.0
H192 H 0.03372 0.0244 0.01331 0.0
O193 O 0.01933 0.06639 0.07514 0.0
O194 O 0.02638 0.05748 0.04214 0.0
O195 O 0.03374 0.01905 0.08951 0.0
O196 O 0.04423 0.01037 0.0568 0.0
C197 C 0.0132 0.0664 0.05641 0.0
H198 H 0.10948 0.04814 0.97938 0.0
H199 H 0.04189 0.0225 0.97444 0.0
H200 H 0.00584 0.07431 0.15163 0.0
H201 H 0.07932 0.081 0.14634 0.0
C202 C 0.92544 0.47714 0.04792 0.0
N203 N 0.96001 0.49219 0.98698 0.0
C204 C 0.93838 0.49208 0.98095 0.0
C205 C 0.93341 0.50246 0.96132 0.0
C206 C 0.95092 0.51272 0.94744 0.0
C207 C 0.97312 0.51273 0.95398 0.0
C208 C 0.97728 0.50248 0.97404 0.0
Zn209 Zn 0.96563 0.47451 0.01542 0.0
C210 C 0.98658 0.50236 0.04509 0.0
N211 N 0.97497 0.4358 0.07427 0.0
C212 C 0.95693 0.42319 0.08334 0.0
C213 C 0.99466 0.43645 0.08393 0.0
C214 C 0.99664 0.42418 0.10357 0.0
C215 C 0.9781 0.41128 0.11349 0.0
C216 C 0.95806 0.41097 0.10302 0.0
Zn217 Zn 0.97091 0.45421 0.04591 0.0
O218 O 0.93258 0.48562 0.02942 0.0
C219 C 0.94988 0.42662 0.0158 0.0
O220 O 0.93809 0.46329 0.05791 0.0
H221 H 0.00882 0.44655 0.07644 0.0
H222 H 0.92495 0.48339 0.99115 0.0
H223 H 0.94143 0.42278 0.07543 0.0
O224 O 0.95076 0.44564 0.00481 0.0
O225 O 0.95761 0.42499 0.03397 0.0
H226 H 0.99437 0.50235 0.97906 0.0
O227 O 0.00382 0.44526 0.03377 0.0
O228 O 0.99891 0.46306 0.00262 0.0
O229 O 0.98408 0.48403 0.05718 0.0
O230 O 0.98061 0.50302 0.02624 0.0
C231 C 0.01147 0.45108 0.01472 0.0
H232 H 0.91616 0.5017 0.9567 0.0
H233 H 0.98707 0.52045 0.94365 0.0
H234 H 0.01258 0.42472 0.11081 0.0
H235 H 0.94312 0.40173 0.11007 0.0
C236 C 0.04145 0.98736 0.42819 0.0
N237 N 0.05507 0.92905 0.39409 0.0
C238 C 0.03684 0.93454 0.38286 0.0
C239 C 0.03606 0.92717 0.3625 0.0
C240 C 0.05421 0.91401 0.35374 0.0
C241 C 0.07282 0.9088 0.3657 0.0
C242 C 0.07294 0.91657 0.38584 0.0
Zn243 Zn 0.05708 0.93937 0.4237 0.0
C244 C 0.10309 0.95944 0.4257 0.0
N245 N 0.06405 0.96023 0.48529 0.0
C246 C 0.04493 0.96814 0.49629 0.0
C247 C 0.08408 0.95716 0.49437 0.0
C248 C 0.08522 0.96153 0.51555 0.0
C249 C 0.06548 0.9687 0.52741 0.0
C250 C 0.04521 0.97226 0.51764 0.0
Zn251 Zn 0.06175 0.95035 0.45559 0.0
O252 O 0.04388 0.97284 0.41426 0.0
C253 C 0.01562 0.92931 0.45243 0.0
O254 O 0.04752 0.98199 0.44667 0.0
H255 H 0.09897 0.95064 0.48539 0.0
H256 H 0.02289 0.94457 0.38972 0.0
H257 H 0.02925 0.97064 0.4887 0.0
O258 O 0.02368 0.92823 0.43323 0.0
O259 O 0.02798 0.93729 0.4655 0.0
H260 H 0.08733 0.91245 0.39496 0.0
O261 O 0.07606 0.91866 0.46482 0.0
O262 O 0.07076 0.9064 0.43392 0.0
O263 O 0.09579 0.96303 0.44473 0.0
O264 O 0.09018 0.95012 0.41411 0.0
C265 C 0.07799 0.90289 0.45227 0.0
H266 H 0.02145 0.93172 0.35375 0.0
H267 H 0.08695 0.89832 0.35982 0.0
H268 H 0.10108 0.95851 0.52284 0.0
H269 H 0.02974 0.97782 0.5265 0.0
C270 C 0.9273 0.59328 0.44983 0.0
N271 N 0.99641 0.57111 0.45045 0.0
C272 C 0.00276 0.59171 0.44058 0.0
C273 C 0.02509 0.59932 0.44076 0.0
C274 C 0.0411 0.58561 0.45117 0.0
C275 C 0.03381 0.56484 0.46196 0.0
C276 C 0.01129 0.55788 0.46137 0.0
Zn277 Zn 0.96519 0.55846 0.44596 0.0
C278 C 0.94031 0.53759 0.48573 0.0
N279 N 0.90097 0.53192 0.43455 0.0
C280 C 0.8865 0.54466 0.42274 0.0
C281 C 0.89625 0.50987 0.44152 0.0
C282 C 0.87691 0.49943 0.43566 0.0
C283 C 0.86213 0.51201 0.42295 0.0
C284 C 0.86677 0.53503 0.41689 0.0
Zn285 Zn 0.93147 0.54526 0.43979 0.0
O286 O 0.94861 0.5908 0.45185 0.0
C287 C 0.95556 0.56689 0.40012 0.0
O288 O 0.91597 0.57648 0.4453 0.0
H289 H 0.9079 0.5001 0.45103 0.0
H290 H 0.99068 0.60195 0.43195 0.0
H291 H 0.89068 0.56206 0.4172 0.0
O292 O 0.97056 0.56954 0.41292 0.0
O293 O 0.93723 0.55655 0.407 0.0
H294 H 0.00593 0.5415 0.46899 0.0
O295 O 0.94723 0.5141 0.43404 0.0
O296 O 0.98103 0.52601 0.43969 0.0
O297 O 0.92577 0.5346 0.47256 0.0
O298 O 0.95909 0.54733 0.47905 0.0
C299 C 0.96836 0.51016 0.43513 0.0
H300 H 0.02986 0.61563 0.43255 0.0
H301 H 0.04559 0.55363 0.47004 0.0
H302 H 0.87378 0.48163 0.4406 0.0
H303 H 0.85587 0.54515 0.40681 0.0
C304 C 0.41724 0.97603 0.54757 0.0
N305 N 0.451 0.99234 0.48647 0.0
C306 C 0.42957 0.99044 0.48032 0.0
C307 C 0.42402 1.00037 0.46069 0.0
C308 C 0.44076 0.01206 0.44696 0.0
C309 C 0.46277 0.01384 0.45361 0.0
C310 C 0.4675 0.00395 0.47364 0.0
Zn311 Zn 0.45772 0.9758 0.51512 0.0
C312 C 0.47548 0.00641 0.54444 0.0
N313 N 0.46971 0.93978 0.57456 0.0
C314 C 0.45385 0.92419 0.5829 0.0
C315 C 0.48795 0.94433 0.58524 0.0
C316 C 0.49057 0.93316 0.60526 0.0
C317 C 0.47428 0.91712 0.61433 0.0
C318 C 0.45586 0.91259 0.60273 0.0
Zn319 Zn 0.46442 0.95689 0.54589 0.0
O320 O 0.42392 0.98471 0.52901 0.0
C321 C 0.44586 0.92665 0.51644 0.0
O322 O 0.43076 0.96325 0.5577 0.0
H323 H 0.50033 0.95684 0.57836 0.0
H324 H 0.41678 0.98079 0.49049 0.0
H325 H 0.43942 0.92083 0.57424 0.0
O326 O 0.44503 0.94539 0.50511 0.0
O327 O 0.454 0.92625 0.53437 0.0
H328 H 0.48443 0.00526 0.47878 0.0
O329 O 0.49817 0.95054 0.53402 0.0
O330 O 0.49184 0.96646 0.50247 0.0
O331 O 0.47443 0.98816 0.55672 0.0
O332 O 0.4702 0.00598 0.52544 0.0
C333 C 0.50531 0.95605 0.51476 0.0
H334 H 0.40697 0.99827 0.45599 0.0
H335 H 0.47614 0.02273 0.44343 0.0
H336 H 0.50494 0.93737 0.61369 0.0
H337 H 0.44312 0.90008 0.60882 0.0
C338 C 0.60673 0.53288 0.57116 0.0
N339 N 0.57534 0.54037 0.51415 0.0
C340 C 0.59548 0.54854 0.50439 0.0
C341 C 0.60031 0.54814 0.48247 0.0
C342 C 0.5843 0.53925 0.47032 0.0
C343 C 0.56398 0.53011 0.48084 0.0
C344 C 0.55977 0.53095 0.50291 0.0
Zn345 Zn 0.56842 0.54574 0.5457 0.0
C346 C 0.5475 0.50494 0.57212 0.0
N347 N 0.55443 0.55922 0.61077 0.0
C348 C 0.57335 0.56638 0.6191 0.0
C349 C 0.53352 0.55967 0.62195 0.0
C350 C 0.53102 0.56856 0.64193 0.0
C351 C 0.55029 0.57686 0.65038 0.0
C352 C 0.57172 0.57481 0.639 0.0
Zn353 Zn 0.55942 0.5518 0.57961 0.0
O354 O 0.6026 0.53533 0.55178 0.0
C355 C 0.58168 0.5921 0.55404 0.0
O356 O 0.59131 0.53748 0.58551 0.0
H357 H 0.51864 0.5541 0.61501 0.0
H358 H 0.60764 0.55602 0.51354 0.0
H359 H 0.58979 0.56663 0.60995 0.0
O360 O 0.58012 0.57969 0.53877 0.0
O361 O 0.57446 0.58449 0.57273 0.0
H362 H 0.5438 0.52469 0.51096 0.0
O363 O 0.52722 0.56566 0.57321 0.0
O364 O 0.53427 0.55692 0.54017 0.0
O365 O 0.54514 0.51918 0.58629 0.0
O366 O 0.55684 0.51131 0.55361 0.0
C367 C 0.52075 0.56505 0.55465 0.0
H368 H 0.61637 0.55497 0.47507 0.0
H369 H 0.55116 0.52315 0.47202 0.0
H370 H 0.51412 0.56991 0.65015 0.0
H371 H 0.58714 0.58046 0.64504 0.0
C372 C 0.52738 0.4859 0.92141 0.0
N373 N 0.53191 0.42467 0.89069 0.0
C374 C 0.51059 0.43034 0.88512 0.0
C375 C 0.50127 0.41937 0.86926 0.0
C376 C 0.51387 0.40214 0.85938 0.0
C377 C 0.5361 0.39715 0.86485 0.0
C378 C 0.54493 0.40883 0.88054 0.0
Zn379 Zn 0.54275 0.43776 0.91683 0.0
C380 C 0.58824 0.45868 0.90829 0.0
N381 N 0.56278 0.46351 0.97291 0.0
C382 C 0.54633 0.47281 0.98623 0.0
C383 C 0.58468 0.46087 0.97807 0.0
C384 C 0.59053 0.46694 0.9977 0.0
C385 C 0.57355 0.47539 0.01213 0.0
C386 C 0.55133 0.4787 0.00615 0.0
Zn387 Zn 0.55329 0.45095 0.94617 0.0
O388 O 0.52714 0.47052 0.90841 0.0
C389 C 0.5073 0.42964 0.95348 0.0
O390 O 0.53727 0.48187 0.93828 0.0
H391 H 0.59742 0.4533 0.96729 0.0
H392 H 0.50038 0.44271 0.8936 0.0
H393 H 0.52908 0.47497 0.98173 0.0
O394 O 0.51203 0.42702 0.93389 0.0
O395 O 0.52193 0.43887 0.96355 0.0
H396 H 0.56186 0.40464 0.88514 0.0
O397 O 0.56931 0.42033 0.95441 0.0
O398 O 0.55936 0.40541 0.92611 0.0
O399 O 0.58473 0.46246 0.9279 0.0
O400 O 0.57308 0.44857 0.89962 0.0
C401 C 0.56973 0.40361 0.94302 0.0
H402 H 0.48398 0.42348 0.86553 0.0
H403 H 0.54632 0.384 0.85741 0.0
H404 H 0.60783 0.46405 0.00198 0.0
H405 H 0.5379 0.48531 0.01693 0.0
C406 C 0.43448 0.08721 0.95545 0.0
N407 N 0.50354 0.06549 0.95678 0.0
C408 C 0.50933 0.08672 0.9481 0.0
C409 C 0.5315 0.0946 0.94847 0.0
C410 C 0.54793 0.0805 0.95782 0.0
C411 C 0.54122 0.05906 0.96752 0.0
C412 C 0.51879 0.05186 0.96683 0.0
Zn413 Zn 0.47285 0.05298 0.95083 0.0
C414 C 0.44679 0.0303 0.98906 0.0
N415 N 0.40966 0.02733 0.93591 0.0
C416 C 0.396 0.04078 0.92388 0.0
C417 C 0.40429 0.00523 0.94207 0.0
C418 C 0.38496 0.99558 0.9353 0.0
C419 C 0.37095 0.00894 0.92236 0.0
C420 C 0.37643 0.03192 0.91698 0.0
Zn421 Zn 0.43972 0.04014 0.94289 0.0
O422 O 0.45584 0.08501 0.95731 0.0
C423 C 0.46542 0.06361 0.90476 0.0
O424 O 0.42362 0.07058 0.94996 0.0
H425 H 0.41538 0.99487 0.95172 0.0
H426 H 0.49704 0.09719 0.93997 0.0
H427 H 0.40068 0.05823 0.91903 0.0
O428 O 0.4797 0.06532 0.91841 0.0
O429 O 0.44671 0.0534 0.91049 0.0
H430 H 0.51381 0.03502 0.97359 0.0
O431 O 0.45583 0.00969 0.93584 0.0
O432 O 0.48906 0.02079 0.9439 0.0
O433 O 0.43299 0.02752 0.97516 0.0
O434 O 0.4655 0.04062 0.98341 0.0
C435 C 0.47677 0.00549 0.93772 0.0
H436 H 0.53597 0.11114 0.94058 0.0
H437 H 0.55329 0.04778 0.97515 0.0
H438 H 0.38123 0.97781 0.9398 0.0
H439 H 0.36628 0.0427 0.9067 0.0
C440 C 0.01496 0.19087 0.3928 0.0
C441 C 0.99479 0.19945 0.38468 0.0
C442 C 0.01689 0.16792 0.39993 0.0
C443 C 0.01455 0.12 0.42115 0.0
H444 H 0.99217 0.07703 0.3848 0.0
C445 C 0.02488 0.02382 0.44037 0.0
C446 C 0.03201 0.01052 0.42346 0.0
C447 C 0.01758 0.04628 0.4365 0.0
C448 C 0.99861 0.08881 0.39505 0.0
H449 H 0.96029 0.19085 0.3789 0.0
H450 H 0.96356 0.15075 0.39169 0.0
H451 H 0.98432 0.1177 0.37796 0.0
H452 H 0.03625 0.0102 0.38913 0.0
H453 H 0.02386 0.04986 0.38227 0.0
H454 H 0.02961 0.09139 0.43772 0.0
C455 C 0.97802 0.16177 0.39219 0.0
C456 C 0.99383 0.1121 0.39132 0.0
C457 C 0.97605 0.18483 0.38512 0.0
C458 C 0.03089 0.02002 0.40248 0.0
C459 C 0.0237 0.04271 0.39859 0.0
C460 C 0.01933 0.09679 0.42485 0.0
C461 C 0.99869 0.15292 0.39911 0.0
C462 C 1.00196 0.128 0.4042 0.0
C463 C 0.01737 0.05623 0.41559 0.0
C464 C 0.01156 0.08088 0.41178 0.0
H465 H 0.02974 0.20163 0.39267 0.0
H466 H 0.03312 0.16171 0.40501 0.0
H467 H 0.02093 0.13172 0.43148 0.0
H468 H 0.02517 0.01694 0.45675 0.0
H469 H 0.01228 0.05595 0.44999 0.0
C470 C 0.99814 0.3162 0.38993 0.0
C471 C 0.0192 0.30909 0.38016 0.0
C472 C 0.99578 0.3376 0.39783 0.0
C473 C 0.02458 0.38705 0.41432 0.0
H474 H 0.97263 0.41953 0.39251 0.0
C475 C 1.00096 0.48282 0.42671 0.0
C476 C 0.97745 0.48717 0.43104 0.0
C477 C 0.00869 0.46115 0.4213 0.0
C478 C 0.98709 0.41068 0.39891 0.0
H479 H 0.05477 0.31826 0.37246 0.0
H480 H 0.05056 0.35591 0.38644 0.0
H481 H 0.98137 0.38111 0.38282 0.0
H482 H 0.94383 0.47187 0.43439 0.0
H483 H 0.9572 0.4345 0.42544 0.0
H484 H 0.02994 0.41679 0.43076 0.0
C485 C 0.03592 0.34479 0.38786 0.0
C486 C 0.9921 0.38866 0.39334 0.0
C487 C 0.0383 0.32326 0.37987 0.0
C488 C 0.96202 0.46928 0.43076 0.0
C489 C 0.96968 0.44781 0.42553 0.0
C490 C 0.01944 0.40923 0.42007 0.0
C491 C 0.01441 0.35244 0.39618 0.0
C492 C 0.01055 0.3764 0.40133 0.0
C493 C 0.993 0.44357 0.4202 0.0
C494 C 1.00028 0.42104 0.41279 0.0
H495 H 0.98314 0.30563 0.39068 0.0
H496 H 0.9791 0.3429 0.40455 0.0
H497 H 0.039 0.37798 0.42059 0.0
H498 H 0.01325 0.49627 0.42689 0.0
H499 H 0.02678 0.45836 0.41731 0.0
C500 C 0.97794 0.80692 0.13282 0.0
C501 C 0.99775 0.79343 0.13484 0.0
C502 C 0.97958 0.82957 0.124 0.0
C503 C 0.01908 0.87662 0.12061 0.0
H504 H 0.98422 0.90628 0.07691 0.0
C505 C 0.01998 0.97374 0.10238 0.0
C506 C 0.02576 0.98136 0.08095 0.0
C507 C 0.01407 0.95103 0.10807 0.0
C508 C 0.99402 0.89817 0.08914 0.0
H509 H 0.03464 0.79285 0.12787 0.0
H510 H 0.03737 0.83211 0.11288 0.0
H511 H 0.97873 0.86548 0.0876 0.0
H512 H 0.02874 0.97125 0.04861 0.0
H513 H 0.01804 0.93154 0.05863 0.0
H514 H 0.03426 0.90907 0.12241 0.0
C515 C 0.02063 0.82527 0.11822 0.0
C516 C 0.9908 0.87492 0.09531 0.0
C517 C 0.01901 0.8027 0.12675 0.0
C518 C 0.02446 0.96593 0.06526 0.0
C519 C 0.01824 0.94322 0.07097 0.0
C520 C 0.02198 0.89982 0.11475 0.0
C521 C 1.00105 0.83914 0.11728 0.0
C522 C 0.00352 0.86389 0.11094 0.0
C523 C 0.01351 0.93543 0.09248 0.0
C524 C 0.00961 0.91085 0.09888 0.0
H525 H 0.96131 0.80035 0.13888 0.0
H526 H 0.96421 0.83993 0.12345 0.0
H527 H 0.02896 0.8686 0.13284 0.0
H528 H 0.02075 0.98512 0.11489 0.0
H529 H 0.0103 0.94556 0.12477 0.0
C530 C 1.00201 0.67984 0.12373 0.0
C531 C 0.02256 0.68644 0.13106 0.0
C532 C 1.00143 0.66099 0.11182 0.0
C533 C 0.03163 0.6072 0.10263 0.0
H534 H 0.99152 0.606 0.05744 0.0
C535 C 0.99965 0.54276 0.0392 0.0
C536 C 0.99545 0.5231 0.05305 0.0
C537 C 0.00639 0.56291 0.04691 0.0
C538 C 0.00307 0.60607 0.0698 0.0
H539 H 0.05881 0.67881 0.13102 0.0
H540 H 0.05779 0.64586 0.11001 0.0
H541 H 0.99728 0.64161 0.07305 0.0
H542 H 0.99576 0.50897 0.08575 0.0
H543 H 0.00711 0.54425 0.09928 0.0
H544 H 0.0374 0.5716 0.09935 0.0
C545 C 0.04209 0.65519 0.11373 0.0
C546 C 0.00616 0.62646 0.07892 0.0
C547 C 0.04269 0.67415 0.12564 0.0
C548 C 0.99886 0.52382 0.07466 0.0
C549 C 0.00551 0.54403 0.08239 0.0
C550 C 0.02856 0.58677 0.09347 0.0
C551 C 0.02137 0.64824 0.10693 0.0
C552 C 0.02012 0.62717 0.09571 0.0
C553 C 0.00899 0.56391 0.06866 0.0
C554 C 0.01393 0.5859 0.0772 0.0
H555 H 0.98618 0.6889 0.12761 0.0
H556 H 0.98513 0.65594 0.10709 0.0
H557 H 0.04237 0.60713 0.11564 0.0
H558 H 0.9974 0.54273 0.02241 0.0
H559 H 0.00933 0.57779 0.03583 0.0
C560 C 0.36717 0.02037 0.17113 0.0
C561 C 0.35984 0.99977 0.18226 0.0
C562 C 0.38053 0.02047 0.15173 0.0
C563 C 0.39375 0.98562 0.10633 0.0
H564 H 0.4372 0.03381 0.08876 0.0
C565 C 0.41853 0.01384 0.01809 0.0
C566 C 0.44046 0.02248 0.0117 0.0
C567 C 0.41179 0.00792 0.03955 0.0
C568 C 0.42544 0.01997 0.0934 0.0
H569 H 0.36163 0.96301 0.182 0.0
H570 H 0.38535 0.96316 0.14807 0.0
H571 H 0.42122 0.02892 0.12561 0.0
H572 H 0.47283 0.03082 0.02288 0.0
H573 H 0.46125 0.02002 0.06034 0.0
H574 H 0.39812 0.97656 0.07413 0.0
C575 C 0.38041 0.97928 0.15431 0.0
C576 C 0.41601 0.01735 0.11455 0.0
C577 C 0.36696 0.97917 0.17384 0.0
C578 C 0.45575 0.02437 0.02727 0.0
C579 C 0.44905 0.01829 0.04878 0.0
C580 C 0.4033 0.98814 0.08518 0.0
C581 C 0.38708 0.99998 0.14286 0.0
C582 C 0.39955 1.00057 0.12117 0.0
C583 C 0.42684 0.01029 0.05526 0.0
C584 C 0.41882 0.00575 0.07829 0.0
H585 H 0.36206 0.03659 0.17709 0.0
H586 H 0.38495 0.03676 0.1433 0.0
H587 H 0.38107 0.97256 0.11077 0.0
H588 H 0.40626 0.0122 0.00656 0.0
H589 H 0.39444 0.00222 0.04386 0.0
C590 C 0.64419 0.46745 0.1873 0.0
C591 C 0.65904 0.48568 0.18817 0.0
C592 C 0.63017 0.46724 0.17063 0.0
C593 C 0.60955 0.50431 0.12527 0.0
H594 H 0.60363 0.4467 0.10078 0.0
C595 C 0.59669 0.49302 0.03746 0.0
C596 C 0.57861 0.479 0.03393 0.0
C597 C 0.60236 0.4951 0.05814 0.0
C598 C 0.60492 0.46284 0.10767 0.0
H599 H 0.67093 0.51795 0.17241 0.0
H600 H 0.6475 0.51711 0.14303 0.0
H601 H 0.62132 0.44752 0.13403 0.0
H602 H 0.55217 0.45628 0.04885 0.0
H603 H 0.56264 0.45938 0.08512 0.0
H604 H 0.59452 0.51965 0.09791 0.0
C605 C 0.64585 0.50335 0.15548 0.0
C606 C 0.61492 0.46334 0.12676 0.0
C607 C 0.6595 0.50374 0.17226 0.0
C608 C 0.56607 0.46733 0.05131 0.0
C609 C 0.57206 0.46902 0.07194 0.0
C610 C 0.6 0.50383 0.10595 0.0
C611 C 0.63106 0.48507 0.15436 0.0
C612 C 0.61781 0.48415 0.13558 0.0
C613 C 0.59033 0.4828 0.07544 0.0
C614 C 0.59799 0.48314 0.09688 0.0
H615 H 0.64337 0.4534 0.19949 0.0
H616 H 0.61875 0.45305 0.17046 0.0
H617 H 0.61093 0.52057 0.13186 0.0
H618 H 0.60654 0.50214 0.02423 0.0
H619 H 0.61665 0.50567 0.06056 0.0
C620 C 0.37488 0.02869 0.27004 0.0
C621 C 0.3546 0.04146 0.26902 0.0
C622 C 0.3882 0.02996 0.28705 0.0
C623 C 0.39435 0.0603 0.33622 0.0
H624 H 0.4192 0.00167 0.35566 0.0
C625 C 0.4151 0.03364 0.42273 0.0
C626 C 0.43534 0.02112 0.42542 0.0
C627 C 0.40852 0.03976 0.40235 0.0
C628 C 0.41268 0.01825 0.35028 0.0
H629 H 0.33268 0.06623 0.28445 0.0
H630 H 0.35527 0.06775 0.31478 0.0
H631 H 0.40166 0.00567 0.32237 0.0
H632 H 0.46495 0.00582 0.40893 0.0
H633 H 0.45324 0.01621 0.37325 0.0
H634 H 0.40434 0.07227 0.36514 0.0
C635 C 0.36144 0.05725 0.30216 0.0
C636 C 0.40267 0.02064 0.33106 0.0
C637 C 0.3484 0.0564 0.28479 0.0
C638 C 0.44933 0.01559 0.40731 0.0
C639 C 0.44257 0.0214 0.38693 0.0
C640 C 0.40405 0.05776 0.3557 0.0
C641 C 0.38116 0.04348 0.30386 0.0
C642 C 0.39322 0.04166 0.32375 0.0
C643 C 0.42188 0.03317 0.38427 0.0
C644 C 0.41319 0.03666 0.36295 0.0
H645 H 0.38011 0.01717 0.25795 0.0
H646 H 0.40364 0.01971 0.28731 0.0
H647 H 0.38761 0.07683 0.33105 0.0
H648 H 0.40406 0.03821 0.43644 0.0
H649 H 0.39242 0.04868 0.40078 0.0
C650 C 0.66027 0.54978 0.28277 0.0
C651 C 0.65986 0.52818 0.27489 0.0
C652 C 0.64818 0.55388 0.30222 0.0
C653 C 0.60389 0.53022 0.34379 0.0
H654 H 0.63999 0.55912 0.38208 0.0
C655 C 0.58458 0.52134 0.43552 0.0
C656 C 0.58878 0.54019 0.44678 0.0
C657 C 0.59038 0.52194 0.41352 0.0
C658 C 0.62946 0.55136 0.37154 0.0
H659 H 0.64521 0.49442 0.2806 0.0
H660 H 0.62437 0.5015 0.31439 0.0
H661 H 0.65446 0.55738 0.34503 0.0
H662 H 0.601 0.57494 0.44364 0.0
H663 H 0.61094 0.57604 0.40538 0.0
H664 H 0.57912 0.52375 0.37055 0.0
C665 C 0.6339 0.51534 0.30559 0.0
C666 C 0.63776 0.55041 0.35024 0.0
C667 C 0.64599 0.51124 0.28622 0.0
C668 C 0.59804 0.55994 0.43548 0.0
C669 C 0.60374 0.56057 0.41355 0.0
C670 C 0.59556 0.53118 0.36514 0.0
C671 C 0.63536 0.53649 0.31414 0.0
C672 C 0.62524 0.53957 0.33615 0.0
C673 C 0.60039 0.54145 0.40234 0.0
C674 C 0.60839 0.54153 0.37933 0.0
H675 H 0.67074 0.56322 0.27442 0.0
H676 H 0.64937 0.57048 0.30823 0.0
H677 H 0.5937 0.52197 0.33329 0.0
H678 H 0.57756 0.50585 0.44381 0.0
H679 H 0.58776 0.50682 0.40541 0.0
C680 C 0.19733 0.365 1.00042 0.0
C681 C 0.20666 0.35562 0.98177 0.0
C682 C 0.17797 0.37903 1.00023 0.0
C683 C 0.12727 0.39158 0.97112 0.0
H684 H 0.11991 0.4409 0.00828 0.0
C685 C 0.04226 0.44356 0.98551 0.0
C686 C 0.03499 0.4441 0.00727 0.0
C687 C 0.06437 0.43583 0.97907 0.0
C688 C 0.12174 0.42724 0.99775 0.0
H689 H 0.20314 0.35414 0.94811 0.0
H690 H 0.16925 0.37889 0.94775 0.0
H691 H 0.157 0.4221 0.00275 0.0
H692 H 0.0454 0.43759 0.03924 0.0
H693 H 0.0837 0.42457 0.02804 0.0
H694 H 0.09173 0.39657 0.96655 0.0
C695 C 0.1769 0.37515 0.96258 0.0
C696 C 0.14296 0.4164 0.99464 0.0
C697 C 0.1964 0.36108 0.96276 0.0
C698 C 0.05039 0.43731 0.02235 0.0
C699 C 0.07243 0.43 0.01594 0.0
C700 C 0.10601 0.40258 0.97414 0.0
C701 C 0.16735 0.38415 0.98138 0.0
C702 C 0.14581 0.39791 0.98188 0.0
C703 C 0.07966 0.42901 0.99427 0.0
C704 C 0.10287 0.42002 0.98804 0.0
H705 H 0.20472 0.36116 0.01537 0.0
H706 H 0.17092 0.38529 0.01509 0.0
H707 H 0.12881 0.37734 0.96127 0.0
H708 H 0.03075 0.44865 0.97354 0.0
H709 H 0.06953 0.43524 0.96225 0.0
C710 C 0.23191 0.64628 0.47395 0.0
C711 C 0.24359 0.66042 0.45769 0.0
C712 C 0.21245 0.63461 0.47013 0.0
C713 C 0.16548 0.64065 0.43616 0.0
H714 H 0.14771 0.58197 0.46455 0.0
C715 C 0.07642 0.60241 0.43092 0.0
C716 C 0.06543 0.59249 0.45004 0.0
C717 C 0.09938 0.6086 0.42967 0.0
C718 C 0.15238 0.59843 0.45661 0.0
H719 H 0.24485 0.6723 0.4243 0.0
H720 H 0.21074 0.65173 0.41755 0.0
H721 H 0.18674 0.5952 0.46523 0.0
H722 H 0.06999 0.58143 0.48291 0.0
H723 H 0.11002 0.59231 0.48078 0.0
H724 H 0.131 0.64418 0.42801 0.0
C725 C 0.21658 0.64991 0.43333 0.0
C726 C 0.17476 0.60597 0.45693 0.0
C727 C 0.23622 0.66152 0.43714 0.0
C728 C 0.078 0.5888 0.46787 0.0
C729 C 0.10097 0.59497 0.46663 0.0
C730 C 0.14311 0.63311 0.43583 0.0
C731 C 0.20412 0.63685 0.44996 0.0
C732 C 0.18144 0.62737 0.44708 0.0
C733 C 0.11193 0.60497 0.44752 0.0
C734 C 0.13618 0.61212 0.44642 0.0
H735 H 0.23721 0.64499 0.48996 0.0
H736 H 0.20321 0.62488 0.48335 0.0
H737 H 0.16994 0.65738 0.42869 0.0
H738 H 0.06738 0.60509 0.41676 0.0
H739 H 0.10739 0.61598 0.41464 0.0
C740 C 0.82068 0.86163 0.5143 0.0
C741 C 0.80817 0.85917 0.49672 0.0
C742 C 0.84271 0.87088 0.51137 0.0
C743 C 0.89118 0.8749 0.47092 0.0
H744 H 0.91508 0.92109 0.5029 0.0
C745 C 0.97753 0.91625 0.44384 0.0
C746 C 0.99193 0.9217 0.45918 0.0
C747 C 0.95519 0.90913 0.44984 0.0
C748 C 0.90878 0.90793 0.49403 0.0
H749 H 0.80848 0.86594 0.46245 0.0
H750 H 0.84662 0.88186 0.45746 0.0
H751 H 0.87548 0.90852 0.51122 0.0
H752 H 0.99399 0.92408 0.49295 0.0
H753 H 0.95499 0.91103 0.50354 0.0
H754 H 0.92423 0.87377 0.45398 0.0
C755 C 0.83958 0.87638 0.47345 0.0
C756 C 0.88608 0.90082 0.49877 0.0
C757 C 0.81764 0.86735 0.47636 0.0
C758 C 0.98334 0.91998 0.48073 0.0
C759 C 0.96093 0.91263 0.48679 0.0
C760 C 0.91381 0.88178 0.46635 0.0
C761 C 0.85263 0.87765 0.4908 0.0
C762 C 0.87696 0.88454 0.48696 0.0
C763 C 0.9466 0.90698 0.4714 0.0
C764 C 0.92284 0.89871 0.47753 0.0
H765 H 0.8139 0.85549 0.53019 0.0
H766 H 0.85239 0.8717 0.52503 0.0
H767 H 0.88478 0.86193 0.46188 0.0
H768 H 0.98345 0.91764 0.42707 0.0
H769 H 0.94456 0.9055 0.43746 0.0
C770 C 0.33387 0.65732 0.53287 0.0
C771 C 0.32861 0.66087 0.51162 0.0
C772 C 0.3536 0.64511 0.53792 0.0
C773 C 0.41033 0.62851 0.51289 0.0
H774 H 0.41305 0.58844 0.56429 0.0
C775 C 0.49099 0.57491 0.52922 0.0
C776 C 0.49787 0.57412 0.54995 0.0
C777 C 0.4697 0.58418 0.52475 0.0
C778 C 0.41261 0.59972 0.54995 0.0
H779 H 0.33937 0.65335 0.47919 0.0
H780 H 0.37328 0.63179 0.48803 0.0
H781 H 0.37681 0.60663 0.55634 0.0
H782 H 0.48752 0.58215 0.58233 0.0
H783 H 0.45054 0.5984 0.57449 0.0
H784 H 0.44607 0.62173 0.50651 0.0
C785 C 0.36259 0.63891 0.50076 0.0
C786 C 0.39183 0.61017 0.5454 0.0
C787 C 0.343 0.65116 0.49571 0.0
C788 C 0.4828 0.58249 0.56617 0.0
C789 C 0.4615 0.59168 0.56171 0.0
C790 C 0.43104 0.61805 0.5174 0.0
C791 C 0.36845 0.63613 0.52185 0.0
C792 C 0.39042 0.6247 0.52679 0.0
C793 C 0.45475 0.59282 0.54091 0.0
C794 C 0.43248 0.60353 0.53599 0.0
H795 H 0.32319 0.66464 0.5455 0.0
H796 H 0.35764 0.64344 0.55433 0.0
H797 H 0.41006 0.63998 0.49865 0.0
H798 H 0.50212 0.56854 0.51637 0.0
H799 H 0.46492 0.58451 0.50861 0.0
C800 C 0.46889 0.6858 0.88215 0.0
C801 C 0.48859 0.69891 0.88256 0.0
C802 C 0.4689 0.6626 0.88909 0.0
C803 C 0.5015 0.61768 0.9187 0.0
H804 H 0.47795 0.57748 0.88046 0.0
C805 C 0.51511 0.51865 0.89675 0.0
C806 C 0.51669 0.50857 0.91744 0.0
C807 C 0.50787 0.54141 0.8936 0.0
C808 C 0.48468 0.58846 0.89125 0.0
H809 H 0.52315 0.69831 0.89202 0.0
H810 H 0.52316 0.65816 0.90411 0.0
H811 H 0.47247 0.61861 0.87445 0.0
H812 H 0.51022 0.51368 0.95102 0.0
H813 H 0.4969 0.55276 0.94559 0.0
H814 H 0.51474 0.58786 0.93488 0.0
C815 C 0.50766 0.66564 0.89847 0.0
C816 C 0.48125 0.61204 0.888 0.0
C817 C 0.50767 0.68873 0.89148 0.0
C818 C 0.50956 0.52113 0.93485 0.0
C819 C 0.50206 0.54362 0.93174 0.0
C820 C 0.505 0.5942 0.9219 0.0
C821 C 0.48855 0.6521 0.89674 0.0
C822 C 0.48992 0.62696 0.90152 0.0
C823 C 0.50183 0.55435 0.91111 0.0
C824 C 0.49684 0.57926 0.90811 0.0
H825 H 0.45393 0.69308 0.8753 0.0
H826 H 0.45377 0.65273 0.88789 0.0
H827 H 0.50823 0.62862 0.92954 0.0
H828 H 0.52054 0.50935 0.88306 0.0
H829 H 0.50801 0.54913 0.87748 0.0
C830 C 0.54205 0.81787 0.88006 0.0
C831 C 0.52165 0.80621 0.87837 0.0
C832 C 0.54139 0.83943 0.88806 0.0
C833 C 0.50413 0.88851 0.88828 0.0
H834 H 0.53396 0.90955 0.93515 0.0
C835 C 0.47084 0.96607 0.92824 0.0
C836 C 0.48608 0.98289 0.93249 0.0
C837 C 0.47884 0.94509 0.92201 0.0
C838 C 0.5259 0.90399 0.92178 0.0
H839 H 0.48479 0.8073 0.8853 0.0
H840 H 0.48374 0.8447 0.89896 0.0
H841 H 0.54159 0.87068 0.92432 0.0
H842 H 0.52179 0.99044 0.93433 0.0
H843 H 0.53595 0.95323 0.92319 0.0
H844 H 0.4882 0.9213 0.88571 0.0
C845 C 0.50017 0.83731 0.89392 0.0
C846 C 0.53019 0.88181 0.91566 0.0
C847 C 0.50081 0.81586 0.88612 0.0
C848 C 0.50964 0.97786 0.93105 0.0
C849 C 0.51773 0.95661 0.92474 0.0
C850 C 0.49999 0.91052 0.89424 0.0
C851 C 0.52033 0.84961 0.89431 0.0
C852 C 0.51869 0.87371 0.89932 0.0
C853 C 0.50235 0.94024 0.91973 0.0
C854 C 0.51014 0.91825 0.91153 0.0
H855 H 0.55839 0.81087 0.87427 0.0
H856 H 0.55716 0.84863 0.88826 0.0
H857 H 0.49543 0.8828 0.87533 0.0
H858 H 0.45255 0.96912 0.9295 0.0
H859 H 0.46652 0.93263 0.91879 0.0
C860 C 0.53281 0.30615 0.64381 0.0
C861 C 0.51144 0.2957 0.64413 0.0
C862 C 0.5366 0.32796 0.63357 0.0
C863 C 0.54293 0.37076 0.60265 0.0
H864 H 0.49401 0.41482 0.61213 0.0
C865 C 0.54778 0.46373 0.56414 0.0
C866 C 0.54102 0.48079 0.5778 0.0
C867 C 0.54354 0.44073 0.57055 0.0
C868 C 0.50786 0.40275 0.60935 0.0
H869 H 0.47761 0.29968 0.63308 0.0
H870 H 0.48429 0.33739 0.61516 0.0
H871 H 0.48872 0.37539 0.62629 0.0
H872 H 0.52394 0.487 0.6087 0.0
H873 H 0.51649 0.44709 0.61975 0.0
H874 H 0.56226 0.39838 0.58614 0.0
C875 C 0.49802 0.32896 0.62312 0.0
C876 C 0.50475 0.38006 0.61728 0.0
C877 C 0.49425 0.30722 0.63331 0.0
C878 C 0.52936 0.47435 0.59773 0.0
C879 C 0.52499 0.45143 0.60406 0.0
C880 C 0.54601 0.39349 0.59461 0.0
C881 C 0.51908 0.33981 0.62345 0.0
C882 C 0.52229 0.36378 0.61418 0.0
C883 C 0.53227 0.43428 0.59068 0.0
C884 C 0.52858 0.40982 0.59805 0.0
H885 H 0.54642 0.29781 0.65201 0.0
H886 H 0.55298 0.33586 0.63426 0.0
H887 H 0.55673 0.35864 0.59983 0.0
H888 H 0.55685 0.46808 0.5487 0.0
H889 H 0.54915 0.42797 0.55976 0.0
C890 C 0.46027 0.18428 0.62729 0.0
C891 C 0.47969 0.19347 0.63465 0.0
C892 C 0.46233 0.16562 0.61492 0.0
C893 C 0.50066 0.11693 0.60432 0.0
H894 H 0.4614 0.10918 0.55954 0.0
C895 C 0.48154 0.04856 0.53924 0.0
C896 C 0.48097 0.0283 0.55264 0.0
C897 C 0.48426 0.06956 0.54746 0.0
C898 C 0.47273 0.11117 0.5718 0.0
H899 H 0.51664 0.19093 0.63394 0.0
H900 H 0.52022 0.15864 0.61211 0.0
H901 H 0.46062 0.1451 0.57615 0.0
H902 H 0.48368 0.01415 0.58505 0.0
H903 H 0.48814 0.05075 0.59941 0.0
H904 H 0.51282 0.08303 0.59991 0.0
C905 C 0.50335 0.16555 0.61625 0.0
C906 C 0.47207 0.13168 0.5815 0.0
C907 C 0.5013 0.18417 0.62866 0.0
C908 C 0.48407 0.02942 0.57428 0.0
C909 C 0.48674 0.05043 0.5825 0.0
C910 C 0.50134 0.09644 0.59459 0.0
C911 C 0.48386 0.15578 0.60957 0.0
C912 C 0.48579 0.13469 0.59808 0.0
C913 C 0.48644 0.07078 0.56926 0.0
C914 C 0.48715 0.09319 0.57843 0.0
H915 H 0.44338 0.19101 0.63165 0.0
H916 H 0.44693 0.15838 0.61023 0.0
H917 H 0.5113 0.11857 0.61718 0.0
H918 H 0.47935 0.04829 0.52246 0.0
H919 H 0.48435 0.08488 0.53677 0.0
C920 C 0.86899 0.48461 0.67261 0.0
C921 C 0.86286 0.50501 0.68188 0.0
C922 C 0.88155 0.48508 0.65261 0.0
C923 C 0.91604 0.52365 0.61226 0.0
H924 H 0.89497 0.4844 0.57203 0.0
C925 C 0.9511 0.53192 0.52342 0.0
C926 C 0.93489 0.53033 0.50863 0.0
C927 C 0.94541 0.52581 0.54512 0.0
C928 C 0.90103 0.49557 0.58302 0.0
H929 H 0.86599 0.54181 0.67769 0.0
H930 H 0.88729 0.54262 0.64308 0.0
H931 H 0.87988 0.47966 0.6092 0.0
H932 H 0.90004 0.52077 0.50508 0.0
H933 H 0.89 0.51079 0.54267 0.0
H934 H 0.93615 0.54046 0.5859 0.0
C935 C 0.8828 0.5262 0.65121 0.0
C936 C 0.8926 0.49261 0.60447 0.0
C937 C 0.87035 0.52573 0.67109 0.0
C938 C 0.91301 0.52216 0.51599 0.0
C939 C 0.90729 0.51622 0.53762 0.0
C940 C 0.92433 0.52673 0.5908 0.0
C941 C 0.88828 0.50594 0.64149 0.0
C942 C 0.89957 0.50698 0.6193 0.0
C943 C 0.92333 0.51808 0.55254 0.0
C944 C 0.91653 0.51309 0.57577 0.0
H945 H 0.86352 0.46836 0.6805 0.0
H946 H 0.88572 0.46911 0.64575 0.0
H947 H 0.92216 0.53477 0.62327 0.0
H948 H 0.96816 0.53801 0.51828 0.0
H949 H 0.95834 0.52719 0.55606 0.0
C950 C 0.13714 0.95604 0.69853 0.0
C951 C 0.14901 0.9765 0.69877 0.0
C952 C 0.12039 0.95433 0.68441 0.0
C953 C 0.08648 0.98961 0.64636 0.0
H954 H 0.09135 0.93589 0.61463 0.0
C955 C 0.07862 0.98834 0.55726 0.0
C956 C 0.06591 0.97101 0.55025 0.0
C957 C 0.08128 0.98889 0.57886 0.0
C958 C 0.0894 0.95078 0.62365 0.0
H959 H 0.15242 0.01127 0.68468 0.0
H960 H 0.12415 0.00807 0.65979 0.0
H961 H 0.11042 0.93635 0.64712 0.0
H962 H 0.04554 0.94102 0.5598 0.0
H963 H 0.05091 0.9415 0.5978 0.0
H964 H 0.06713 0.00465 0.62165 0.0
C965 C 0.12706 0.99351 0.67082 0.0
C966 C 0.10027 0.95105 0.64231 0.0
C967 C 0.14354 0.99527 0.68498 0.0
C968 C 0.05528 0.95461 0.56506 0.0
C969 C 0.05835 0.95487 0.58665 0.0
C970 C 0.07599 0.98946 0.6275 0.0
C971 C 0.11537 0.973 0.67021 0.0
C972 C 0.09974 0.97083 0.65338 0.0
C973 C 0.07167 0.97182 0.59363 0.0
C974 C 0.07808 0.97034 0.61564 0.0
H975 H 0.14086 0.94135 0.70913 0.0
H976 H 0.11157 0.93834 0.68446 0.0
H977 H 0.08519 0.00488 0.65484 0.0
H978 H 0.087 1.00103 0.54595 0.0
H979 H 0.0919 0.00193 0.58389 0.0
C980 C 0.85711 0.55802 0.78658 0.0
C981 C 0.86146 0.542 0.77143 0.0
C982 C 0.87073 0.5584 0.80358 0.0
C983 C 0.90992 0.51988 0.8331 0.0
H984 H 0.91755 0.57299 0.86404 0.0
C985 C 0.95901 0.51457 0.9078 0.0
C986 C 0.94599 0.52184 0.92579 0.0
C987 C 0.95217 0.52019 0.88742 0.0
C988 C 0.91561 0.55806 0.85546 0.0
H989 H 0.8844 0.51512 0.76107 0.0
H990 H 0.90896 0.51668 0.78979 0.0
H991 H 0.89977 0.57719 0.83048 0.0
H992 H 0.91653 0.54183 0.93656 0.0
H993 H 0.90479 0.55199 0.90088 0.0
H994 H 0.92587 0.50084 0.85803 0.0
C995 C 0.89445 0.52823 0.78935 0.0
C996 C 0.90528 0.56039 0.8363 0.0
C997 C 0.88052 0.52747 0.77272 0.0
C998 C 0.92681 0.53595 0.92294 0.0
C999 C 0.92018 0.54186 0.90255 0.0
C1000 C 0.92056 0.51765 0.85199 0.0
C1001 C 0.88926 0.54307 0.80552 0.0
C1002 C 0.90198 0.54125 0.82499 0.0
C1003 C 0.9324 0.53347 0.88464 0.0
C1004 C 0.92322 0.53662 0.86353 0.0
H1005 H 0.84238 0.56929 0.78601 0.0
H1006 H 0.86597 0.56996 0.81572 0.0
H1007 H 0.90723 0.50458 0.82532 0.0
H1008 H 0.97377 0.50355 0.90957 0.0
H1009 H 0.96195 0.5136 0.87386 0.0
C1010 C 0.14186 0.00746 0.79059 0.0
C1011 C 0.15574 0.02439 0.77927 0.0
C1012 C 0.12958 0.01164 0.80984 0.0
C1013 C 0.13284 0.04639 0.85461 0.0
H1014 H 0.07316 0.02123 0.87345 0.0
C1015 C 0.09182 0.05598 0.93939 0.0
C1016 C 0.08131 0.0366 0.95025 0.0
C1017 C 0.09804 0.0567 0.91754 0.0
C1018 C 0.0899 0.02823 0.86848 0.0
H1019 H 0.16669 0.0594 0.77877 0.0
H1020 H 0.14514 0.06674 0.81253 0.0
H1021 H 0.08862 0.01929 0.83646 0.0
H1022 H 0.06844 0.00306 0.94662 0.0
H1023 H 0.0797 0.00407 0.90838 0.0
H1024 H 0.13456 0.0547 0.88663 0.0
C1025 C 0.14396 0.05015 0.80651 0.0
C1026 C 0.09871 0.02719 0.84727 0.0
C1027 C 0.15617 0.046 0.78712 0.0
C1028 C 0.07645 0.01823 0.93864 0.0
C1029 C 0.08284 0.01888 0.91673 0.0
C1030 C 0.12409 0.04735 0.87579 0.0
C1031 C 0.13095 0.03283 0.81832 0.0
C1032 C 0.12041 0.03602 0.84016 0.0
C1033 C 0.09406 0.038 0.90598 0.0
C1034 C 0.10262 0.03806 0.88308 0.0
H1035 H 0.14106 0.99064 0.78495 0.0
H1036 H 0.1199 0.99787 0.81858 0.0
H1037 H 0.14978 0.05297 0.84977 0.0
H1038 H 0.09535 0.0706 0.94786 0.0
H1039 H 0.10615 0.0719 0.90973 0.0
C1040 C 0.69369 0.87329 0.49625 0.0
C1041 C 0.70226 0.86394 0.47734 0.0
C1042 C 0.67396 0.88687 0.4969 0.0
C1043 C 0.62143 0.89812 0.4699 0.0
H1044 H 0.61454 0.94748 0.50702 0.0
C1045 C 0.53592 0.94862 0.48537 0.0
C1046 C 0.52908 0.94994 0.50712 0.0
C1047 C 0.55808 0.94117 0.47876 0.0
C1048 C 0.6162 0.93377 0.49656 0.0
H1049 H 0.697 0.86211 0.44406 0.0
H1050 H 0.66254 0.88609 0.44515 0.0
H1051 H 0.65175 0.92919 0.50058 0.0
H1052 H 0.54036 0.94519 0.53889 0.0
H1053 H 0.57875 0.9326 0.5274 0.0
H1054 H 0.58565 0.90257 0.46624 0.0
C1055 C 0.67103 0.88265 0.45956 0.0
C1056 C 0.63752 0.92322 0.49291 0.0
C1057 C 0.69087 0.86902 0.4589 0.0
C1058 C 0.54502 0.94432 0.522 0.0
C1059 C 0.56712 0.93724 0.51541 0.0
C1060 C 0.60008 0.90881 0.47346 0.0
C1061 C 0.6622 0.89156 0.47865 0.0
C1062 C 0.64029 0.90479 0.48005 0.0
C1063 C 0.57389 0.93533 0.49376 0.0
C1064 C 0.59709 0.92631 0.48733 0.0
H1065 H 0.70193 0.86972 0.51079 0.0
H1066 H 0.66753 0.89307 0.51198 0.0
H1067 H 0.62286 0.8839 0.46003 0.0
H1068 H 0.52401 0.95278 0.47353 0.0
H1069 H 0.56285 0.93992 0.46195 0.0
C1070 C 0.73855 0.16537 0.93152 0.0
C1071 C 0.74668 0.16491 0.95173 0.0
C1072 C 0.71985 0.15205 0.92834 0.0
C1073 C 0.68192 0.10531 0.9534 0.0
H1074 H 0.63409 0.14162 0.92848 0.0
C1075 C 0.57768 0.11036 0.95862 0.0
C1076 C 0.57216 0.08767 0.95619 0.0
C1077 C 0.60034 0.11752 0.95551 0.0
C1078 C 0.64728 0.13125 0.93549 0.0
H1079 H 0.74304 0.14877 0.98387 0.0
H1080 H 0.71066 0.12569 0.97837 0.0
H1081 H 0.67264 0.15664 0.92641 0.0
H1082 H 0.58616 0.05465 0.94868 0.0
H1083 H 0.6258 0.06714 0.94346 0.0
H1084 H 0.65623 0.0804 0.96341 0.0
C1085 C 0.71854 0.13623 0.96495 0.0
C1086 C 0.66946 0.13971 0.934 0.0
C1087 C 0.73702 0.14961 0.96816 0.0
C1088 C 0.58988 0.07218 0.95099 0.0
C1089 C 0.61258 0.07934 0.9479 0.0
C1090 C 0.65972 0.09683 0.95486 0.0
C1091 C 0.70919 0.1379 0.94525 0.0
C1092 C 0.68689 0.1271 0.94344 0.0
C1093 C 0.61802 0.10216 0.9499 0.0
C1094 C 0.64204 0.11 0.94643 0.0
H1095 H 0.74569 0.17702 0.91857 0.0
H1096 H 0.71315 0.15348 0.9129 0.0
H1097 H 0.69505 0.0951 0.96067 0.0
H1098 H 0.56446 0.12262 0.96292 0.0
H1099 H 0.60403 0.13509 0.95766 0.0
C1100 C 0.32005 0.35403 0.02589 0.0
C1101 C 0.30786 0.3529 0.0079 0.0
C1102 C 0.34055 0.36615 0.02441 0.0
C1103 C 0.37564 0.40861 0.98903 0.0
H1104 H 0.42736 0.37669 0.0119 0.0
C1105 C 0.46679 0.41942 0.95085 0.0
C1106 C 0.48441 0.4231 0.96372 0.0
C1107 C 0.4449 0.41386 0.95992 0.0
C1108 C 0.41301 0.38601 0.00577 0.0
H1109 H 0.30713 0.36449 0.97455 0.0
H1110 H 0.34258 0.38527 0.97194 0.0
H1111 H 0.38874 0.36207 0.02147 0.0
H1112 H 0.4929 0.42357 0.99629 0.0
H1113 H 0.45435 0.41305 0.01228 0.0
H1114 H 0.40005 0.43175 0.97236 0.0
C1115 C 0.33639 0.37707 0.98727 0.0
C1116 C 0.39087 0.37769 0.01127 0.0
C1117 C 0.31606 0.36496 0.98873 0.0
C1118 C 0.47965 0.42084 0.98598 0.0
C1119 C 0.45767 0.41482 0.99511 0.0
C1120 C 0.39771 0.41676 0.98341 0.0
C1121 C 0.34915 0.37751 0.00496 0.0
C1122 C 0.37201 0.38847 0.00236 0.0
C1123 C 0.44006 0.41151 0.9821 0.0
C1124 C 0.41667 0.40514 0.99117 0.0
H1125 H 0.31421 0.3449 0.04089 0.0
H1126 H 0.34986 0.36632 0.03838 0.0
H1127 H 0.36148 0.41766 0.98229 0.0
H1128 H 0.46979 0.4211 0.93365 0.0
H1129 H 0.43174 0.4111 0.94951 0.0
C1130 C 0.84166 0.15927 0.99305 0.0
C1131 C 0.82646 0.16933 0.00815 0.0
C1132 C 0.86034 0.14631 0.99934 0.0
C1133 C 0.89846 0.139 0.04227 0.0
H1134 H 0.91826 0.08452 0.01496 0.0
C1135 C 0.97604 0.08539 0.06763 0.0
C1136 C 0.99094 0.07677 0.05143 0.0
C1137 C 0.95515 0.09544 0.06308 0.0
C1138 C 0.91311 0.09983 0.02259 0.0
H1139 H 0.81874 0.17313 0.04184 0.0
H1140 H 0.85147 0.15038 0.05288 0.0
H1141 H 0.88283 0.10367 0.00618 0.0
H1142 H 0.99541 0.07189 0.01771 0.0
H1143 H 0.95909 0.08977 0.0097 0.0
H1144 H 0.9289 0.13543 0.0584 0.0
C1145 C 0.84894 0.15273 0.03611 0.0
C1146 C 0.89275 0.11077 0.0176 0.0
C1147 C 0.8301 0.16563 0.0298 0.0
C1148 C 0.98434 0.07832 0.03057 0.0
C1149 C 0.96343 0.08844 0.02601 0.0
C1150 C 0.91886 0.12809 0.04721 0.0
C1151 C 0.86441 0.14312 0.02091 0.0
C1152 C 0.88527 0.1306 0.02725 0.0
C1153 C 0.9486 0.09721 0.0422 0.0
C1154 C 0.92654 0.10845 0.03732 0.0
H1155 H 0.83939 0.16173 0.97622 0.0
H1156 H 0.87202 0.1394 0.98719 0.0
H1157 H 0.8934 0.15442 0.04974 0.0
H1158 H 0.98049 0.08437 0.08391 0.0
H1159 H 0.94404 0.10166 0.07601 0.0
C1160 C 0.0545 0.21247 0.28789 0.0
C1161 C 0.03715 0.21061 0.30468 0.0
C1162 C 0.05664 0.19601 0.27302 0.0
C1163 C 0.02098 0.15378 0.25176 0.0
H1164 H 0.0783 0.1345 0.22309 0.0
C1165 C 0.02667 0.08722 0.18875 0.0
C1166 C 0.04112 0.09321 0.17028 0.0
C1167 C 0.02666 0.09996 0.20649 0.0
C1168 C 0.06216 0.1398 0.23097 0.0
H1169 H 0.00978 0.18939 0.32029 0.0
H1170 H 0.01399 0.16048 0.29494 0.0
H1171 H 0.07862 0.15938 0.25211 0.0
H1172 H 0.06592 0.11792 0.15552 0.0
H1173 H 0.06602 0.13981 0.18636 0.0
H1174 H 0.00453 0.13436 0.23051 0.0
C1175 C 0.02536 0.17492 0.29262 0.0
C1176 C 0.06235 0.15409 0.24752 0.0
C1177 C 0.02304 0.19141 0.30721 0.0
C1178 C 0.05506 0.11245 0.16972 0.0
C1179 C 0.05515 0.12502 0.18739 0.0
C1180 C 0.0208 0.13942 0.23531 0.0
C1181 C 0.04162 0.1774 0.27494 0.0
C1182 C 0.04175 0.1614 0.25798 0.0
C1183 C 0.04113 0.11882 0.20602 0.0
C1184 C 0.04137 0.13252 0.22459 0.0
H1185 H 0.06553 0.22717 0.28564 0.0
H1186 H 0.06931 0.19845 0.25951 0.0
H1187 H 0.00476 0.15944 0.25918 0.0
H1188 H 0.01579 0.07246 0.18964 0.0
H1189 H 0.01566 0.09484 0.2207 0.0
C1190 C 0.96726 0.29399 0.28374 0.0
C1191 C 0.98471 0.29779 0.2967 0.0
C1192 C 0.96559 0.30746 0.26465 0.0
C1193 C 1.0011 0.34599 0.22563 0.0
H1194 H 0.94341 0.35883 0.20177 0.0
C1195 C 0.99147 0.40718 0.15037 0.0
C1196 C 0.97933 0.39848 0.13469 0.0
C1197 C 0.9919 0.39548 0.17047 0.0
C1198 C 0.95964 0.35528 0.20826 0.0
H1199 H 0.01318 0.31947 0.30065 0.0
H1200 H 0.00961 0.3436 0.2681 0.0
H1201 H 0.94371 0.33835 0.23686 0.0
H1202 H 0.95872 0.37011 0.12792 0.0
H1203 H 0.95889 0.35028 0.16318 0.0
H1204 H 0.01688 0.36345 0.19714 0.0
C1205 C 0.99778 0.32968 0.27201 0.0
C1206 C 0.95985 0.34345 0.22832 0.0
C1207 C 0.99971 0.31598 0.29081 0.0
C1208 C 0.9678 0.37769 0.13966 0.0
C1209 C 0.96794 0.36622 0.15985 0.0
C1210 C 1.00082 0.35813 0.20576 0.0
C1211 C 0.98111 0.32525 0.25833 0.0
C1212 C 0.98062 0.33852 0.23725 0.0
C1213 C 0.97995 0.37502 0.17545 0.0
C1214 C 0.98012 0.36275 0.19682 0.0
H1215 H 0.95557 0.27997 0.28784 0.0
H1216 H 0.95266 0.30331 0.25451 0.0
H1217 H 0.01749 0.3421 0.23164 0.0
H1218 H 1.00025 0.42328 0.14733 0.0
H1219 H 1.0012 0.40268 0.1823 0.0
C1220 C 0.01952 0.78739 0.22385 0.0
C1221 C 0.03744 0.77746 0.21141 0.0
C1222 C 0.02371 0.8051 0.23616 0.0
C1223 C 0.06815 0.83184 0.26212 0.0
H1224 H 0.02303 0.88061 0.26565 0.0
C1225 C 0.07341 0.90251 0.31909 0.0
C1226 C 0.05337 0.90452 0.33283 0.0
C1227 C 0.07329 0.89065 0.3009 0.0
C1228 C 0.0358 0.86716 0.26473 0.0
H1229 H 0.07395 0.77796 0.20248 0.0
H1230 H 0.08134 0.80919 0.22418 0.0
H1231 H 0.02014 0.85207 0.24022 0.0
H1232 H 0.01725 0.89659 0.33762 0.0
H1233 H 0.01697 0.8763 0.30568 0.0
H1234 H 0.08349 0.84673 0.28702 0.0
C1235 C 0.06403 0.80312 0.22434 0.0
C1236 C 0.03413 0.85079 0.25026 0.0
C1237 C 0.05982 0.78525 0.21197 0.0
C1238 C 0.03292 0.8956 0.32729 0.0
C1239 C 0.03277 0.88393 0.309 0.0
C1240 C 0.0699 0.84833 0.27653 0.0
C1241 C 0.04592 0.81342 0.2363 0.0
C1242 C 0.04983 0.83253 0.24931 0.0
C1243 C 0.05306 0.88083 0.29595 0.0
C1244 C 0.05333 0.86572 0.2784 0.0
H1245 H 0.00209 0.78165 0.22397 0.0
H1246 H 0.00949 0.81223 0.24567 0.0
H1247 H 0.08043 0.81792 0.26182 0.0
H1248 H 0.08935 0.90963 0.32267 0.0
H1249 H 0.08909 0.88873 0.29093 0.0
C1250 C 1.00196 0.68234 0.2334 0.0
C1251 C 0.98378 0.6918 0.22256 0.0
C1252 C 0.99789 0.66704 0.25133 0.0
C1253 C 0.95247 0.64728 0.29322 0.0
H1254 H 0.99662 0.59913 0.30452 0.0
C1255 C 0.93982 0.58039 0.36569 0.0
C1256 C 0.95858 0.57748 0.37797 0.0
C1257 C 0.94211 0.59253 0.34567 0.0
C1258 C 0.98418 0.61253 0.30161 0.0
H1259 H 0.94697 0.69231 0.222 0.0
H1260 H 0.93982 0.66505 0.25308 0.0
H1261 H 1.00151 0.62342 0.27141 0.0
H1262 H 0.99463 0.58443 0.37851 0.0
H1263 H 0.99869 0.60521 0.34341 0.0
H1264 H 0.93507 0.63609 0.32346 0.0
C1265 C 0.95727 0.66985 0.24793 0.0
C1266 C 0.987 0.62656 0.28265 0.0
C1267 C 0.96136 0.68539 0.23003 0.0
C1268 C 0.97985 0.58632 0.36946 0.0
C1269 C 0.9822 0.59817 0.34932 0.0
C1270 C 0.94951 0.63305 0.31208 0.0
C1271 C 0.97551 0.6605 0.25888 0.0
C1272 C 0.97142 0.64442 0.27834 0.0
C1273 C 0.96328 0.60174 0.33734 0.0
C1274 C 0.96552 0.61575 0.31663 0.0
H1275 H 0.01946 0.68702 0.22825 0.0
H1276 H 0.01237 0.66071 0.25952 0.0
H1277 H 0.94026 0.66097 0.29067 0.0
H1278 H 0.92317 0.5739 0.37181 0.0
H1279 H 0.92728 0.59484 0.33673 0.0
C1280 C 0.25132 0.04477 0.18132 0.0
C1281 C 0.26476 0.02577 0.18726 0.0
C1282 C 0.23569 0.04336 0.16603 0.0
C1283 C 0.20321 1.00052 0.1417 0.0
H1284 H 0.18953 0.05151 0.10208 0.0
C1285 C 0.11885 0.00982 0.10345 0.0
C1286 C 0.11832 0.0205 0.08286 0.0
C1287 C 0.13927 0.00761 0.11301 0.0
C1288 C 0.19343 0.03696 0.11278 0.0
H1289 H 0.27299 0.99069 0.1811 0.0
H1290 H 0.2463 0.98842 0.15438 0.0
H1291 H 0.22041 0.05452 0.125 0.0
H1292 H 0.13886 0.03624 0.05562 0.0
H1293 H 0.17495 0.03231 0.07239 0.0
H1294 H 0.17627 0.98298 0.12959 0.0
C1295 C 0.24727 0.00423 0.16186 0.0
C1296 C 0.21089 0.03882 0.12616 0.0
C1297 C 0.26266 0.00558 0.17718 0.0
C1298 C 0.13889 0.02769 0.07143 0.0
C1299 C 0.15943 0.02571 0.08113 0.0
C1300 C 0.18585 0.99866 0.12833 0.0
C1301 C 0.23332 0.02296 0.15627 0.0
C1302 C 0.21575 0.02074 0.14104 0.0
C1303 C 0.15969 0.01622 0.10227 0.0
C1304 C 0.18041 0.017 0.11402 0.0
H1305 H 0.25257 0.06057 0.18875 0.0
H1306 H 0.22506 0.05806 0.16227 0.0
H1307 H 0.20626 0.9863 0.15307 0.0
H1308 H 0.10319 0.00423 0.11265 0.0
H1309 H 0.13874 1.00043 0.12934 0.0
C1310 C 0.76533 0.52965 0.17323 0.0
C1311 C 0.75674 0.50949 0.18434 0.0
C1312 C 0.78172 0.52873 0.15573 0.0
C1313 C 0.80569 0.48889 0.11646 0.0
H1314 H 0.85754 0.52949 0.10864 0.0
C1315 C 0.89127 0.46643 0.07242 0.0
C1316 C 0.90279 0.48294 0.05832 0.0
C1317 C 0.87117 0.47195 0.08443 0.0
C1318 C 0.84292 0.51832 0.11039 0.0
H1319 H 0.75915 0.4726 0.18612 0.0
H1320 H 0.78787 0.47102 0.15619 0.0
H1321 H 0.82722 0.53486 0.13704 0.0
H1322 H 0.90218 0.51809 0.04538 0.0
H1323 H 0.86694 0.52803 0.06703 0.0
H1324 H 0.82193 0.47171 0.09048 0.0
C1325 C 0.78159 0.48756 0.1605 0.0
C1326 C 0.82556 0.52136 0.12667 0.0
C1327 C 0.76522 0.48847 0.17785 0.0
C1328 C 0.89349 0.50504 0.05603 0.0
C1329 C 0.87349 0.51073 0.06849 0.0
C1330 C 0.82309 0.48576 0.10036 0.0
C1331 C 0.78986 0.50764 0.14902 0.0
C1332 C 0.80704 0.50626 0.13028 0.0
C1333 C 0.86228 0.49423 0.08293 0.0
C1334 C 0.84216 0.50006 0.0975 0.0
H1335 H 0.7591 0.54613 0.17777 0.0
H1336 H 0.78763 0.54453 0.14721 0.0
H1337 H 0.79139 0.47733 0.11836 0.0
H1338 H 0.89806 0.44926 0.07449 0.0
H1339 H 0.86307 0.45895 0.09557 0.0
C1340 C 0.26287 0.96916 0.29116 0.0
C1341 C 0.26868 0.99108 0.28201 0.0
C1342 C 0.24714 0.96635 0.30924 0.0
C1343 C 0.20051 0.99732 0.33915 0.0
H1344 H 0.20776 0.94913 0.38354 0.0
C1345 C 0.13503 0.98622 0.4129 0.0
C1346 C 0.12677 0.96395 0.41684 0.0
C1347 C 0.15507 0.99053 0.39937 0.0
C1348 C 0.20551 0.9627 0.37128 0.0
H1349 H 0.26279 0.02722 0.28507 0.0
H1350 H 0.23593 0.02233 0.31647 0.0
H1351 H 0.23678 0.95413 0.35337 0.0
H1352 H 0.13322 0.92867 0.41083 0.0
H1353 H 0.16821 0.93599 0.38776 0.0
H1354 H 0.16913 0.0057 0.35688 0.0
C1355 C 0.24304 0.00725 0.30953 0.0
C1356 C 0.22207 0.96547 0.3539 0.0
C1357 C 0.2586 0.01004 0.2915 0.0
C1358 C 0.1395 0.94597 0.40823 0.0
C1359 C 0.15955 0.95018 0.395 0.0
C1360 C 0.18403 0.99461 0.35655 0.0
C1361 C 0.23693 0.9854 0.3186 0.0
C1362 C 0.21968 0.98268 0.33748 0.0
C1363 C 0.16717 0.97258 0.38977 0.0
C1364 C 0.18616 0.9771 0.37271 0.0
H1365 H 0.27032 0.9542 0.28427 0.0
H1366 H 0.24266 0.94924 0.31565 0.0
H1367 H 0.19784 0.01054 0.32669 0.0
H1368 H 0.12524 1.00038 0.41907 0.0
H1369 H 0.16061 0.00796 0.39577 0.0
C1370 C 0.75212 0.45792 0.28574 0.0
C1371 C 0.73408 0.47329 0.28245 0.0
C1372 C 0.76265 0.4572 0.3048 0.0
C1373 C 0.77196 0.49644 0.34496 0.0
H1374 H 0.79816 0.44436 0.37586 0.0
C1375 C 0.82146 0.5111 0.41488 0.0
C1376 C 0.8432 0.5009 0.41414 0.0
C1377 C 0.80487 0.50333 0.4029 0.0
C1378 C 0.79088 0.45903 0.36736 0.0
H1379 H 0.7113 0.49823 0.29669 0.0
H1380 H 0.72894 0.49639 0.33004 0.0
H1381 H 0.77518 0.43849 0.34631 0.0
H1382 H 0.86431 0.47368 0.40165 0.0
H1383 H 0.83552 0.46046 0.38017 0.0
H1384 H 0.78799 0.51709 0.36519 0.0
C1385 C 0.73566 0.48554 0.31786 0.0
C1386 C 0.77781 0.45567 0.35046 0.0
C1387 C 0.72553 0.48656 0.29884 0.0
C1388 C 0.84757 0.48173 0.40252 0.0
C1389 C 0.83107 0.47414 0.39028 0.0
C1390 C 0.7849 0.49977 0.36171 0.0
C1391 C 0.75496 0.47164 0.32071 0.0
C1392 C 0.76823 0.4744 0.33912 0.0
C1393 C 0.8099 0.48551 0.38964 0.0
C1394 C 0.79457 0.48117 0.37311 0.0
H1395 H 0.75884 0.44751 0.27322 0.0
H1396 H 0.77752 0.44634 0.30656 0.0
H1397 H 0.7654 0.5113 0.33617 0.0
H1398 H 0.81765 0.52573 0.42396 0.0
H1399 H 0.7885 0.51207 0.40315 0.0
C1400 C 0.20502 0.25277 0.04291 0.0
C1401 C 0.21265 0.26012 0.02179 0.0
C1402 C 0.1894 0.2349 0.04723 0.0
C1403 C 0.16848 0.18514 0.02332 0.0
H1404 H 0.11628 0.18868 0.06513 0.0
C1405 C 0.09791 0.11773 0.03177 0.0
C1406 C 0.08916 0.11008 0.05248 0.0
C1407 C 0.11199 0.1368 0.0283 0.0
C1408 C 0.13091 0.1873 0.05356 0.0
H1409 H 0.20965 0.25451 0.98867 0.0
H1410 H 0.18263 0.22354 0.99623 0.0
H1411 H 0.14327 0.22016 0.05911 0.0
H1412 H 0.08795 0.11681 0.08577 0.0
H1413 H 0.11278 0.14983 0.07975 0.0
H1414 H 0.15646 0.15228 0.01788 0.0
C1415 C 0.18881 0.23141 0.00946 0.0
C1416 C 0.14636 0.20535 0.05013 0.0
C1417 C 0.20423 0.24929 0.00514 0.0
C1418 C 0.09433 0.1223 0.06959 0.0
C1419 C 0.10851 0.14132 0.06613 0.0
C1420 C 0.15315 0.16709 0.02682 0.0
C1421 C 0.18129 0.22392 0.03053 0.0
C1422 C 0.16523 0.20452 0.03485 0.0
C1423 C 0.11779 0.14862 0.04547 0.0
C1424 C 0.13406 0.16797 0.04187 0.0
H1425 H 0.21114 0.26076 0.05609 0.0
H1426 H 0.18402 0.2294 0.06364 0.0
H1427 H 0.18307 0.1838 0.0117 0.0
H1428 H 0.09417 0.10877 0.01823 0.0
H1429 H 0.11844 0.14221 0.01213 0.0
C1430 C 0.21573 0.75591 0.50993 0.0
C1431 C 0.22743 0.74697 0.49202 0.0
C1432 C 0.19714 0.77092 0.5076 0.0
C1433 C 0.15407 0.78938 0.47035 0.0
H1434 H 0.15249 0.84596 0.49768 0.0
C1435 C 0.09933 0.86711 0.4432 0.0
C1436 C 0.09042 0.88164 0.45852 0.0
C1437 C 0.11369 0.84881 0.44886 0.0
C1438 C 0.15235 0.83008 0.49021 0.0
H1439 H 0.22846 0.74653 0.45766 0.0
H1440 H 0.19631 0.7724 0.45371 0.0
H1441 H 0.18173 0.81741 0.50529 0.0
H1442 H 0.08859 0.88762 0.49201 0.0
H1443 H 0.11299 0.85547 0.50193 0.0
H1444 H 0.12483 0.80203 0.45513 0.0
C1445 C 0.20133 0.76783 0.46955 0.0
C1446 C 0.16918 0.81372 0.49458 0.0
C1447 C 0.21994 0.75312 0.47184 0.0
C1448 C 0.09531 0.87686 0.47977 0.0
C1449 C 0.10948 0.8585 0.48544 0.0
C1450 C 0.13715 0.80567 0.46607 0.0
C1451 C 0.18973 0.77699 0.48735 0.0
C1452 C 0.17048 0.79335 0.48442 0.0
C1453 C 0.11932 0.84454 0.46999 0.0
C1454 C 0.13627 0.82641 0.47568 0.0
H1455 H 0.22106 0.7515 0.52569 0.0
H1456 H 0.18847 0.77765 0.52163 0.0
H1457 H 0.15441 0.7737 0.46249 0.0
H1458 H 0.09602 0.87043 0.42668 0.0
H1459 H 0.1211 0.8386 0.43646 0.0
C1460 C 0.7995 0.75814 0.44915 0.0
C1461 C 0.80004 0.77212 0.46601 0.0
C1462 C 0.81578 0.74071 0.44643 0.0
C1463 C 0.8577 0.70609 0.47659 0.0
H1464 H 0.87672 0.68552 0.421 0.0
C1465 C 0.92418 0.63294 0.46223 0.0
C1466 C 0.91563 0.61563 0.45123 0.0
C1467 C 0.91238 0.65378 0.46349 0.0
C1468 C 0.87161 0.69119 0.43662 0.0
H1469 H 0.81873 0.77971 0.49251 0.0
H1470 H 0.84756 0.75019 0.48726 0.0
H1471 H 0.852 0.71905 0.4238 0.0
H1472 H 0.88849 0.60683 0.43239 0.0
H1473 H 0.86839 0.64312 0.43425 0.0
H1474 H 0.8776 0.67821 0.48926 0.0
C1475 C 0.83414 0.75188 0.47661 0.0
C1476 C 0.85728 0.71028 0.43827 0.0
C1477 C 0.81766 0.76895 0.47955 0.0
C1478 C 0.89545 0.61974 0.44115 0.0
C1479 C 0.884 0.64059 0.44204 0.0
C1480 C 0.87234 0.68723 0.47488 0.0
C1481 C 0.8332 0.73717 0.46029 0.0
C1482 C 0.84977 0.71777 0.45831 0.0
C1483 C 0.89223 0.65777 0.45331 0.0
C1484 C 0.87908 0.67935 0.45492 0.0
H1485 H 0.78604 0.76015 0.43853 0.0
H1486 H 0.81423 0.7296 0.43384 0.0
H1487 H 0.85204 0.71098 0.49235 0.0
H1488 H 0.9397 0.63024 0.47011 0.0
H1489 H 0.91905 0.66682 0.47229 0.0
C1490 C 0.33704 0.77065 0.4572 0.0
C1491 C 0.33132 0.75433 0.47421 0.0
C1492 C 0.35139 0.7888 0.45988 0.0
C1493 C 0.37038 0.82027 0.50327 0.0
H1494 H 0.41596 0.84619 0.4603 0.0
C1495 C 0.43399 0.88593 0.52321 0.0
C1496 C 0.43617 0.90582 0.50938 0.0
C1497 C 0.42289 0.86695 0.51738 0.0
C1498 C 0.40319 0.83915 0.47238 0.0
H1499 H 0.33741 0.74316 0.50672 0.0
H1500 H 0.36276 0.77408 0.51113 0.0
H1501 H 0.39333 0.81375 0.45262 0.0
H1502 H 0.42931 0.92103 0.47818 0.0
H1503 H 0.40995 0.88774 0.46801 0.0
H1504 H 0.38022 0.84539 0.52308 0.0
C1505 C 0.35559 0.77357 0.49602 0.0
C1506 C 0.3902 0.82065 0.46797 0.0
C1507 C 0.34113 0.75575 0.49345 0.0
C1508 C 0.42784 0.90598 0.48923 0.0
C1509 C 0.41686 0.8869 0.48334 0.0
C1510 C 0.38341 0.83853 0.5077 0.0
C1511 C 0.36037 0.79071 0.47953 0.0
C1512 C 0.37381 0.81085 0.48349 0.0
C1513 C 0.41384 0.86739 0.49756 0.0
C1514 C 0.40009 0.84805 0.49241 0.0
H1515 H 0.3297 0.76992 0.4422 0.0
H1516 H 0.35474 0.80175 0.44686 0.0
H1517 H 0.35745 0.81361 0.51539 0.0
H1518 H 0.44029 0.8852 0.5388 0.0
H1519 H 0.42108 0.85201 0.52853 0.0
C1520 C 0.55449 0.70619 0.78948 0.0
C1521 C 0.53533 0.70626 0.8044 0.0
C1522 C 0.55714 0.68915 0.77524 0.0
C1523 C 0.52211 0.64805 0.75142 0.0
H1524 H 0.58107 0.62616 0.72837 0.0
C1525 C 0.53306 0.58211 0.68771 0.0
C1526 C 0.54829 0.58916 0.67005 0.0
C1527 C 0.5318 0.59387 0.70615 0.0
C1528 C 0.56449 0.63209 0.73477 0.0
H1529 H 0.50489 0.68785 0.81738 0.0
H1530 H 0.50994 0.65779 0.79325 0.0
H1531 H 0.57906 0.65113 0.75746 0.0
H1532 H 0.57334 0.61476 0.65765 0.0
H1533 H 0.57152 0.63464 0.68981 0.0
H1534 H 0.50763 0.62904 0.7286 0.0
C1535 C 0.52244 0.67125 0.7918 0.0
C1536 C 0.56334 0.64649 0.75131 0.0
C1537 C 0.51961 0.68842 0.8057 0.0
C1538 C 0.56195 0.60835 0.67115 0.0
C1539 C 0.5609 0.61983 0.68957 0.0
C1540 C 0.52327 0.63346 0.73506 0.0
C1541 C 0.54085 0.67174 0.77597 0.0
C1542 C 0.54216 0.65498 0.75958 0.0
C1543 C 0.5459 0.6127 0.70725 0.0
C1544 C 0.54448 0.62573 0.72631 0.0
H1545 H 0.56681 0.7198 0.78819 0.0
H1546 H 0.57143 0.69017 0.76314 0.0
H1547 H 0.50552 0.65455 0.7571 0.0
H1548 H 0.52237 0.56737 0.6874 0.0
H1549 H 0.52002 0.58813 0.71962 0.0
C1550 C 0.50888 0.80501 0.78057 0.0
C1551 C 0.4892 0.79669 0.79291 0.0
C1552 C 0.50709 0.819 0.76192 0.0
C1553 C 0.46837 0.85768 0.73362 0.0
H1554 H 0.50759 0.84358 0.6836 0.0
C1555 C 0.4567 0.90037 0.64977 0.0
C1556 C 0.47631 0.90511 0.63572 0.0
C1557 C 0.45835 0.88811 0.66942 0.0
C1558 C 0.49676 0.84802 0.69747 0.0
H1559 H 0.45215 0.79699 0.7955 0.0
H1560 H 0.44903 0.82165 0.76282 0.0
H1561 H 0.51001 0.82046 0.71699 0.0
H1562 H 0.51316 0.90098 0.63162 0.0
H1563 H 0.51613 0.88026 0.66617 0.0
H1564 H 0.45525 0.88539 0.71418 0.0
C1565 C 0.46585 0.81728 0.7677 0.0
C1566 C 0.4981 0.83469 0.7166 0.0
C1567 C 0.46764 0.80309 0.78635 0.0
C1568 C 0.49771 0.89778 0.64207 0.0
C1569 C 0.49937 0.88561 0.66179 0.0
C1570 C 0.46713 0.87114 0.7145 0.0
C1571 C 0.48558 0.82515 0.75517 0.0
C1572 C 0.48392 0.83935 0.73488 0.0
C1573 C 0.47969 0.88039 0.67562 0.0
C1574 C 0.4813 0.86646 0.69616 0.0
H1575 H 0.52578 0.80049 0.78514 0.0
H1576 H 0.52259 0.82505 0.75277 0.0
H1577 H 0.45741 0.86183 0.74752 0.0
H1578 H 0.43997 0.90609 0.6456 0.0
H1579 H 0.4428 0.88426 0.67952 0.0
C1580 C 0.44839 0.30131 0.71781 0.0
C1581 C 0.44913 0.27754 0.72159 0.0
C1582 C 0.44856 0.31509 0.73478 0.0
C1583 C 0.47552 0.3119 0.78342 0.0
H1584 H 0.4453 0.36937 0.79416 0.0
C1585 C 0.50278 0.36446 0.84869 0.0
C1586 C 0.50322 0.38821 0.84471 0.0
C1587 C 0.49242 0.35106 0.83523 0.0
C1588 C 0.45405 0.35346 0.79121 0.0
H1589 H 0.44916 0.24932 0.74565 0.0
H1590 H 0.44917 0.27333 0.77538 0.0
H1591 H 0.43145 0.34575 0.76799 0.0
H1592 H 0.49304 0.41675 0.82383 0.0
H1593 H 0.47586 0.39327 0.79951 0.0
H1594 H 0.49891 0.31981 0.80542 0.0
C1595 C 0.44839 0.28137 0.75944 0.0
C1596 C 0.44598 0.3399 0.77637 0.0
C1597 C 0.44817 0.26766 0.74252 0.0
C1598 C 0.49292 0.39842 0.82714 0.0
C1599 C 0.48291 0.38496 0.81337 0.0
C1600 C 0.48377 0.32552 0.79791 0.0
C1601 C 0.4498 0.30516 0.7556 0.0
C1602 C 0.45666 0.31899 0.77239 0.0
C1603 C 0.48266 0.36107 0.81718 0.0
C1604 C 0.4732 0.34649 0.80204 0.0
H1605 H 0.44966 0.30916 0.70167 0.0
H1606 H 0.44984 0.33337 0.73138 0.0
H1607 H 0.48448 0.29614 0.78024 0.0
H1608 H 0.5102 0.35627 0.86243 0.0
H1609 H 0.49205 0.33281 0.83904 0.0
C1610 C 0.47455 0.1775 0.73283 0.0
C1611 C 0.49456 0.19032 0.72782 0.0
C1612 C 0.47235 0.1619 0.75073 0.0
C1613 C 0.50492 0.12944 0.79112 0.0
H1614 H 0.44614 0.12818 0.82447 0.0
C1615 C 0.49072 0.08621 0.87689 0.0
C1616 C 0.47 0.07482 0.88294 0.0
C1617 C 0.49437 0.0985 0.85703 0.0
C1618 C 0.46257 0.12804 0.81521 0.0
H1619 H 0.52823 0.19631 0.73749 0.0
H1620 H 0.52428 0.16925 0.76897 0.0
H1621 H 0.4515 0.15301 0.79184 0.0
H1622 H 0.43713 0.06691 0.8725 0.0
H1623 H 0.44358 0.08822 0.83779 0.0
H1624 H 0.51603 0.10466 0.81481 0.0
C1625 C 0.51036 0.17108 0.75887 0.0
C1626 C 0.46567 0.14231 0.79644 0.0
C1627 C 0.51261 0.18667 0.74085 0.0
C1628 C 0.45327 0.07551 0.86839 0.0
C1629 C 0.4569 0.08787 0.84854 0.0
C1630 C 0.50183 0.11518 0.80997 0.0
C1631 C 0.49004 0.15874 0.76422 0.0
C1632 C 0.48688 0.14323 0.78412 0.0
C1633 C 0.47738 0.09979 0.84273 0.0
C1634 C 0.48061 0.11432 0.82226 0.0
H1635 H 0.46036 0.17969 0.72307 0.0
H1636 H 0.45666 0.15237 0.75404 0.0
H1637 H 0.5214 0.12947 0.78192 0.0
H1638 H 0.50398 0.0861 0.88769 0.0
H1639 H 0.51024 0.10764 0.8532 0.0
C1640 C 0.7548 0.51565 0.69056 0.0
C1641 C 0.76799 0.53512 0.69168 0.0
C1642 C 0.73865 0.51539 0.67581 0.0
C1643 C 0.72396 0.53953 0.6242 0.0
H1644 H 0.6631 0.51838 0.64432 0.0
C1645 C 0.64714 0.54371 0.57216 0.0
C1646 C 0.62971 0.52777 0.5776 0.0
C1647 C 0.66624 0.5434 0.58389 0.0
C1648 C 0.68012 0.52386 0.63827 0.0
H1649 H 0.77466 0.56959 0.67813 0.0
H1650 H 0.74636 0.569 0.65187 0.0
H1651 H 0.69127 0.52165 0.6696 0.0
H1652 H 0.6191 0.498 0.59812 0.0
H1653 H 0.65304 0.49632 0.61759 0.0
H1654 H 0.71293 0.54129 0.59275 0.0
C1655 C 0.74862 0.55402 0.66261 0.0
C1656 C 0.69618 0.52597 0.65285 0.0
C1657 C 0.76462 0.55443 0.67771 0.0
C1658 C 0.6325 0.51032 0.59356 0.0
C1659 C 0.65175 0.50968 0.60495 0.0
C1660 C 0.7079 0.53715 0.60949 0.0
C1661 C 0.73548 0.53448 0.6616 0.0
C1662 C 0.71827 0.53369 0.64599 0.0
C1663 C 0.66822 0.52696 0.60109 0.0
C1664 C 0.68581 0.5291 0.61634 0.0
H1665 H 0.75697 0.5005 0.70112 0.0
H1666 H 0.72885 0.50007 0.67529 0.0
H1667 H 0.74097 0.54535 0.61851 0.0
H1668 H 0.64502 0.55763 0.56019 0.0
H1669 H 0.67848 0.55702 0.58047 0.0
C1670 C 0.25706 0.98513 0.67839 0.0
C1671 C 0.2476 0.00612 0.68398 0.0
C1672 C 0.27318 0.98404 0.66086 0.0
C1673 C 0.31501 0.01846 0.62499 0.0
H1674 H 0.31461 0.96585 0.59195 0.0
C1675 C 0.38359 0.00216 0.55492 0.0
C1676 C 0.39432 0.9808 0.55802 0.0
C1677 C 0.36337 0.00723 0.56734 0.0
C1678 C 0.31487 0.9807 0.60095 0.0
H1679 H 0.24784 0.04254 0.67549 0.0
H1680 H 0.27589 0.04061 0.6446 0.0
H1681 H 0.28375 0.97138 0.61955 0.0
H1682 H 0.39189 0.94771 0.5757 0.0
H1683 H 0.35649 0.95626 0.59675 0.0
H1684 H 0.3464 0.02753 0.60635 0.0
C1685 C 0.27096 0.02498 0.65397 0.0
C1686 C 0.29728 0.98381 0.61689 0.0
C1687 C 0.25483 0.02609 0.67165 0.0
C1688 C 0.38398 0.96432 0.57297 0.0
C1689 C 0.36366 0.96918 0.58498 0.0
C1690 C 0.33254 0.01544 0.60886 0.0
C1691 C 0.28024 0.0039 0.64828 0.0
C1692 C 0.29748 0.00233 0.62959 0.0
C1693 C 0.35334 0.9908 0.58262 0.0
C1694 C 0.33297 0.99617 0.59711 0.0
H1695 H 0.25207 0.96941 0.68759 0.0
H1696 H 0.28032 0.96756 0.65735 0.0
H1697 H 0.31581 0.03285 0.6345 0.0
H1698 H 0.39133 0.01522 0.54362 0.0
H1699 H 0.35571 0.02402 0.5652 0.0
C1700 C 0.75836 0.51334 0.78858 0.0
C1701 C 0.77059 0.49471 0.78046 0.0
C1702 C 0.74006 0.50998 0.80414 0.0
C1703 C 0.71259 0.46893 0.84541 0.0
H1704 H 0.65792 0.50423 0.83473 0.0
C1705 C 0.6301 0.46861 0.90479 0.0
C1706 C 0.60981 0.46521 0.89537 0.0
C1707 C 0.65068 0.47288 0.89205 0.0
C1708 C 0.67306 0.49428 0.83797 0.0
H1709 H 0.7735 0.45787 0.78297 0.0
H1710 H 0.74129 0.45199 0.81032 0.0
H1711 H 0.69221 0.50945 0.81021 0.0
H1712 H 0.59511 0.46419 0.86525 0.0
H1713 H 0.63064 0.47199 0.84327 0.0
H1714 H 0.69309 0.45355 0.87313 0.0
C1715 C 0.74606 0.46922 0.80456 0.0
C1716 C 0.69277 0.49737 0.824 0.0
C1717 C 0.76443 0.47258 0.78883 0.0
C1718 C 0.61042 0.46671 0.87305 0.0
C1719 C 0.63079 0.47127 0.86041 0.0
C1720 C 0.69285 0.466 0.85958 0.0
C1721 C 0.73344 0.48791 0.81211 0.0
C1722 C 0.71273 0.48464 0.82743 0.0
C1723 C 0.6512 0.47422 0.86971 0.0
C1724 C 0.67279 0.47848 0.85585 0.0
H1725 H 0.76268 0.53065 0.7827 0.0
H1726 H 0.73095 0.52475 0.80984 0.0
H1727 H 0.72775 0.45899 0.84857 0.0
H1728 H 0.63019 0.4674 0.92195 0.0
H1729 H 0.66616 0.47521 0.89965 0.0
C1730 C 0.25108 0.95684 0.78763 0.0
C1731 C 0.23744 0.97594 0.78247 0.0
C1732 C 0.26428 0.95662 0.80503 0.0
C1733 C 0.2892 0.99771 0.83709 0.0
H1734 H 0.29909 0.9459 0.87717 0.0
C1735 C 0.33126 0.01093 0.91133 0.0
C1736 C 0.35189 0.99881 0.91278 0.0
C1737 C 0.31526 0.00416 0.89826 0.0
C1738 C 0.29639 0.96043 0.86602 0.0
H1739 H 0.2253 0.00879 0.79227 0.0
H1740 H 0.24741 0.00808 0.82267 0.0
H1741 H 0.27534 0.94168 0.84768 0.0
H1742 H 0.37107 0.96893 0.90331 0.0
H1743 H 0.34288 0.95706 0.88037 0.0
H1744 H 0.30977 0.01657 0.85535 0.0
C1745 C 0.24891 0.99374 0.81294 0.0
C1746 C 0.28299 0.95801 0.84914 0.0
C1747 C 0.23619 0.99413 0.79552 0.0
C1748 C 0.35527 0.97856 0.90251 0.0
C1749 C 0.33917 0.97175 0.8894 0.0
C1750 C 0.30221 1.00017 0.85396 0.0
C1751 C 0.26366 0.97536 0.81754 0.0
C1752 C 0.27897 0.9768 0.83472 0.0
C1753 C 0.31959 0.98514 0.88643 0.0
C1754 C 0.30566 0.9817 0.86875 0.0
H1755 H 0.25211 0.94253 0.77785 0.0
H1756 H 0.27547 0.9422 0.80823 0.0
H1757 H 0.2871 0.01234 0.82589 0.0
H1758 H 0.32806 0.02636 0.9194 0.0
H1759 H 0.30007 0.01456 0.89642 0.0
C1760 C 0.70482 0.76114 0.53956 0.0
C1761 C 0.71066 0.76912 0.51823 0.0
C1762 C 0.68989 0.74274 0.54453 0.0
C1763 C 0.66907 0.69283 0.52088 0.0
H1764 H 0.61877 0.69322 0.56499 0.0
C1765 C 0.60105 0.62307 0.52972 0.0
C1766 C 0.59355 0.61426 0.55043 0.0
C1767 C 0.61424 0.64278 0.52645 0.0
C1768 C 0.63289 0.69273 0.55277 0.0
H1769 H 0.70498 0.76422 0.48547 0.0
H1770 H 0.67924 0.73244 0.49415 0.0
H1771 H 0.64453 0.72576 0.55875 0.0
H1772 H 0.59352 0.61964 0.58394 0.0
H1773 H 0.61682 0.65378 0.57824 0.0
H1774 H 0.65782 0.65986 0.51494 0.0
C1775 C 0.68631 0.74016 0.50703 0.0
C1776 C 0.64763 0.71137 0.54922 0.0
C1777 C 0.70101 0.75852 0.50208 0.0
C1778 C 0.59894 0.62602 0.56776 0.0
C1779 C 0.61226 0.64567 0.56449 0.0
C1780 C 0.65447 0.67421 0.52448 0.0
C1781 C 0.68073 0.73189 0.52826 0.0
C1782 C 0.66573 0.71172 0.53306 0.0
C1783 C 0.62041 0.65408 0.5438 0.0
C1784 C 0.63603 0.67398 0.5403 0.0
H1785 H 0.71192 0.76895 0.55236 0.0
H1786 H 0.68593 0.73666 0.56105 0.0
H1787 H 0.68312 0.69239 0.50856 0.0
H1788 H 0.5971 0.61451 0.51601 0.0
H1789 H 0.61979 0.64905 0.51027 0.0
C1790 C 0.70757 0.25478 0.99637 0.0
C1791 C 0.72749 0.25574 0.98221 0.0
C1792 C 0.68897 0.26933 0.99256 0.0
C1793 C 0.67494 0.32479 0.96732 0.0
H1794 H 0.61388 0.3019 0.96435 0.0
C1795 C 0.59667 0.3837 0.96671 0.0
C1796 C 0.58408 0.38345 0.94884 0.0
C1797 C 0.61256 0.36657 0.97118 0.0
C1798 C 0.63087 0.30843 0.96508 0.0
H1799 H 0.7437 0.27298 0.95327 0.0
H1800 H 0.71166 0.29875 0.9471 0.0
H1801 H 0.64526 0.27516 0.97217 0.0
H1802 H 0.5776 0.36417 0.9223 0.0
H1803 H 0.60535 0.33365 0.93055 0.0
H1804 H 0.66067 0.35801 0.96068 0.0
C1805 C 0.71027 0.28657 0.96092 0.0
C1806 C 0.64872 0.29323 0.96972 0.0
C1807 C 0.72859 0.27179 0.96447 0.0
C1808 C 0.587 0.36488 0.93616 0.0
C1809 C 0.60282 0.34744 0.94087 0.0
C1810 C 0.6571 0.33995 0.96312 0.0
C1811 C 0.69021 0.2854 0.97481 0.0
C1812 C 0.67094 0.3013 0.97078 0.0
C1813 C 0.61615 0.34852 0.95812 0.0
C1814 C 0.63491 0.33196 0.96191 0.0
H1815 H 0.70618 0.24247 0.01009 0.0
H1816 H 0.67372 0.26821 0.00358 0.0
H1817 H 0.69189 0.33146 0.96808 0.0
H1818 H 0.59487 0.3976 0.97696 0.0
H1819 H 0.62244 0.36768 0.98468 0.0
C1820 C 0.31547 0.25317 0.99049 0.0
C1821 C 0.305 0.26425 0.97335 0.0
C1822 C 0.33219 0.23642 0.98709 0.0
C1823 C 0.37439 0.20823 0.97541 0.0
H1824 H 0.36244 0.16358 0.93622 0.0
C1825 C 0.4336 0.12946 0.9598 0.0
C1826 C 0.42207 0.10898 0.95846 0.0
C1827 C 0.42139 0.15011 0.96065 0.0
C1828 C 0.36602 0.1759 0.94726 0.0
H1829 H 0.30434 0.26675 0.93905 0.0
H1830 H 0.33373 0.23751 0.93305 0.0
H1831 H 0.33751 0.19676 0.93919 0.0
H1832 H 0.38862 0.09405 0.95787 0.0
H1833 H 0.36759 0.12964 0.95968 0.0
H1834 H 0.40239 0.18671 0.9841 0.0
C1835 C 0.32876 0.24165 0.9492 0.0
C1836 C 0.35188 0.19509 0.94875 0.0
C1837 C 0.31196 0.25844 0.95262 0.0
C1838 C 0.39813 0.1095 0.95866 0.0
C1839 C 0.38603 0.12998 0.95952 0.0
C1840 C 0.38856 0.18897 0.97392 0.0
C1841 C 0.33895 0.23031 0.96643 0.0
C1842 C 0.35558 0.21127 0.96317 0.0
C1843 C 0.39748 0.1506 0.96013 0.0
C1844 C 0.38418 0.17231 0.96019 0.0
H1845 H 0.31056 0.25719 0.00669 0.0
H1846 H 0.33934 0.22781 0.00077 0.0
H1847 H 0.37794 0.22056 0.98644 0.0
H1848 H 0.45204 0.12961 0.95962 0.0
H1849 H 0.4307 0.16574 0.96114 0.0
C1850 C 0.84007 0.26425 0.98726 0.0
C1851 C 0.83178 0.26129 0.96755 0.0
C1852 C 0.85606 0.28098 0.98905 0.0
C1853 C 0.87482 0.33649 0.9666 0.0
H1854 H 0.92612 0.3237 1.00027 0.0
C1855 C 0.93351 0.40791 0.98655 0.0
C1856 C 0.93961 0.40676 0.00757 0.0
C1857 C 0.92311 0.38945 0.97893 0.0
C1858 C 0.9118 0.3276 0.99094 0.0
H1859 H 0.8339 0.27342 0.93418 0.0
H1860 H 0.86173 0.30334 0.93748 0.0
H1861 H 0.90304 0.29242 0.99138 0.0
H1862 H 0.93977 0.38526 0.03703 0.0
H1863 H 0.92115 0.35329 0.02396 0.0
H1864 H 0.88282 0.37172 0.96697 0.0
C1865 C 0.85584 0.29243 0.95144 0.0
C1866 C 0.8987 0.30967 0.98575 0.0
C1867 C 0.84003 0.27533 0.94956 0.0
C1868 C 0.93537 0.38665 0.02073 0.0
C1869 C 0.92483 0.36825 0.01316 0.0
C1870 C 0.88782 0.35447 0.97195 0.0
C1871 C 0.86397 0.29537 0.97125 0.0
C1872 C 0.87978 0.31399 0.97394 0.0
C1873 C 0.91845 0.36946 0.9922 0.0
C1874 C 0.90615 0.35027 0.98461 0.0
H1875 H 0.83418 0.25361 0.0014 0.0
H1876 H 0.86179 0.28304 0.00456 0.0
H1877 H 0.86019 0.34028 0.95765 0.0
H1878 H 0.93669 0.42313 0.97595 0.0
H1879 H 0.91872 0.39086 0.96263 0.0
loop_
_geom_bond_atom_site_label_1
_geom_bond_atom_site_label_2
_geom_bond_distance
_geom_bond_site_symmetry_2
_ccdc_geom_bond_type
C0 O2 1.247 . S
C0 O4 1.258 1_455 S
C1 O8 1.247 . S
C1 O9 1.258 1_655 S
O2 C0 1.247 . S
O2 Zn3 2.028 . S
Zn3 O2 2.028 . S
Zn3 O7 2.035 . S
Zn3 O9 2.035 . S
Zn3 O10 2.028 . S
O4 C0 1.258 1_655 S
O4 Zn5 2.035 . S
Zn5 O4 2.035 . S
Zn5 O6 2.028 . S
Zn5 O8 2.028 . S
Zn5 O11 2.035 . S
O6 Zn5 2.028 . S
O6 C12 1.247 . S
O7 Zn3 2.035 . S
O7 C12 1.258 1_455 S
O8 C1 1.247 . S
O8 Zn5 2.028 . S
O9 C1 1.258 1_455 S
O9 Zn3 2.035 . S
O10 Zn3 2.028 . S
O10 C13 1.247 . S
O11 Zn5 2.035 . S
O11 C13 1.258 1_655 S
C12 O6 1.247 . S
C12 O7 1.258 1_655 S
C13 O10 1.247 . S
C13 O11 1.258 1_455 S
C14 O16 1.247 . S
C14 O18 1.258 1_455 S
C15 O22 1.247 . S
C15 O23 1.258 1_655 S
O16 C14 1.247 . S
O16 Zn17 2.028 . S
Zn17 O16 2.028 . S
Zn17 O21 2.035 . S
Zn17 O23 2.035 . S
Zn17 O24 2.028 . S
O18 C14 1.258 1_655 S
O18 Zn19 2.035 . S
Zn19 O18 2.035 . S
Zn19 O20 2.028 . S
Zn19 O22 2.028 . S
Zn19 O25 2.035 . S
O20 Zn19 2.028 . S
O20 C26 1.247 . S
O21 Zn17 2.035 . S
O21 C26 1.258 1_455 S
O22 C15 1.247 . S
O22 Zn19 2.028 . S
O23 C15 1.258 1_455 S
O23 Zn17 2.035 . S
O24 Zn17 2.028 . S
O24 C27 1.247 . S
O25 Zn19 2.035 . S
O25 C27 1.258 1_655 S
C26 O20 1.247 . S
C26 O21 1.258 1_655 S
C27 O24 1.247 . S
C27 O25 1.258 1_455 S
C28 O30 1.247 1_545 S
C28 O32 1.258 . S
C29 O36 1.247 . S
C29 O37 1.258 1_545 S
O30 C28 1.247 1_565 S
O30 Zn31 2.028 . S
Zn31 O30 2.028 . S
Zn31 O35 2.035 . S
Zn31 O37 2.035 . S
Zn31 O38 2.028 . S
O32 C28 1.258 . S
O32 Zn33 2.035 . S
Zn33 O32 2.035 . S
Zn33 O34 2.028 . S
Zn33 O36 2.028 . S
Zn33 O39 2.035 . S
O34 Zn33 2.028 . S
O34 C40 1.247 . S
O35 Zn31 2.035 . S
O35 C40 1.258 1_565 S
O36 C29 1.247 . S
O36 Zn33 2.028 . S
O37 C29 1.258 1_565 S
O37 Zn31 2.035 . S
O38 Zn31 2.028 . S
O38 C41 1.247 1_565 S
O39 Zn33 2.035 . S
O39 C41 1.258 . S
C40 O34 1.247 . S
C40 O35 1.258 1_545 S
C41 O38 1.247 1_545 S
C41 O39 1.258 . S
C42 O44 1.247 . S
C42 O46 1.258 . S
C43 O50 1.247 . S
C43 O51 1.258 . S
O44 C42 1.247 . S
O44 Zn45 2.028 . S
Zn45 O44 2.028 . S
Zn45 O49 2.035 . S
Zn45 O51 2.035 . S
Zn45 O52 2.028 . S
O46 C42 1.258 . S
O46 Zn47 2.035 . S
Zn47 O46 2.035 . S
Zn47 O48 2.028 . S
Zn47 O50 2.028 . S
Zn47 O53 2.035 . S
O48 Zn47 2.028 . S
O48 C54 1.247 . S
O49 Zn45 2.035 . S
O49 C54 1.258 . S
O50 C43 1.247 . S
O50 Zn47 2.028 . S
O51 C43 1.258 . S
O51 Zn45 2.035 . S
O52 Zn45 2.028 . S
O52 C55 1.247 . S
O53 Zn47 2.035 . S
O53 C55 1.258 . S
C54 O48 1.247 . S
C54 O49 1.258 . S
C55 O52 1.247 . S
C55 O53 1.258 . S
C56 O58 1.247 1_554 S
C56 O60 1.258 . S
C57 O64 1.247 1_556 S
C57 O65 1.258 . S
O58 C56 1.247 1_556 S
O58 Zn59 2.028 . S
Zn59 O58 2.028 . S
Zn59 O63 2.035 . S
Zn59 O65 2.035 . S
Zn59 O66 2.028 . S
O60 C56 1.258 . S
O60 Zn61 2.035 . S
Zn61 O60 2.035 . S
Zn61 O62 2.028 . S
Zn61 O64 2.028 . S
Zn61 O67 2.035 . S
O62 Zn61 2.028 . S
O62 C68 1.247 1_554 S
O63 Zn59 2.035 . S
O63 C68 1.258 . S
O64 C57 1.247 1_554 S
O64 Zn61 2.028 . S
O65 C57 1.258 . S
O65 Zn59 2.035 . S
O66 Zn59 2.028 . S
O66 C69 1.247 1_556 S
O67 Zn61 2.035 . S
O67 C69 1.258 . S
C68 O62 1.247 1_556 S
C68 O63 1.258 . S
C69 O66 1.247 1_554 S
C69 O67 1.258 . S
C70 O72 1.247 . S
C70 O74 1.258 . S
C71 O78 1.247 . S
C71 O79 1.258 . S
O72 C70 1.247 . S
O72 Zn73 2.028 . S
Zn73 O72 2.028 . S
Zn73 O77 2.035 . S
Zn73 O79 2.035 . S
Zn73 O80 2.028 . S
O74 C70 1.258 . S
O74 Zn75 2.035 . S
Zn75 O74 2.035 . S
Zn75 O76 2.028 . S
Zn75 O78 2.028 . S
Zn75 O81 2.035 . S
O76 Zn75 2.028 . S
O76 C82 1.247 . S
O77 Zn73 2.035 . S
O77 C82 1.258 . S
O78 C71 1.247 . S
O78 Zn75 2.028 . S
O79 C71 1.258 . S
O79 Zn73 2.035 . S
O80 Zn73 2.028 . S
O80 C83 1.247 . S
O81 Zn75 2.035 . S
O81 C83 1.258 . S
C82 O76 1.247 . S
C82 O77 1.258 . S
C83 O80 1.247 . S
C83 O81 1.258 . S
C84 O86 1.247 . S
C84 O88 1.258 . S
C85 O92 1.247 . S
C85 O93 1.258 . S
O86 C84 1.247 . S
O86 Zn87 2.028 . S
Zn87 O86 2.028 . S
Zn87 O91 2.035 . S
Zn87 O93 2.035 . S
Zn87 O94 2.028 . S
O88 C84 1.258 . S
O88 Zn89 2.035 . S
Zn89 O88 2.035 . S
Zn89 O90 2.028 . S
Zn89 O92 2.028 . S
Zn89 O95 2.035 . S
O90 Zn89 2.028 . S
O90 C96 1.247 . S
O91 Zn87 2.035 . S
O91 C96 1.258 . S
O92 C85 1.247 . S
O92 Zn89 2.028 . S
O93 C85 1.258 . S
O93 Zn87 2.035 . S
O94 Zn87 2.028 . S
O94 C97 1.247 . S
O95 Zn89 2.035 . S
O95 C97 1.258 . S
C96 O90 1.247 . S
C96 O91 1.258 . S
C97 O94 1.247 . S
C97 O95 1.258 . S
C98 O100 1.247 . S
C98 O102 1.258 . S
C99 O106 1.247 . S
C99 O107 1.258 . S
O100 C98 1.247 . S
O100 Zn101 2.028 . S
Zn101 O100 2.028 . S
Zn101 O105 2.035 . S
Zn101 O107 2.035 . S
Zn101 O108 2.028 . S
O102 C98 1.258 . S
O102 Zn103 2.035 . S
Zn103 O102 2.035 . S
Zn103 O104 2.028 . S
Zn103 O106 2.028 . S
Zn103 O109 2.035 . S
O104 Zn103 2.028 . S
O104 C110 1.247 . S
O105 Zn101 2.035 . S
O105 C110 1.258 . S
O106 C99 1.247 . S
O106 Zn103 2.028 . S
O107 C99 1.258 . S
O107 Zn101 2.035 . S
O108 Zn101 2.028 . S
O108 C111 1.247 . S
O109 Zn103 2.035 . S
O109 C111 1.258 . S
C110 O104 1.247 . S
C110 O105 1.258 . S
C111 O108 1.247 . S
C111 O109 1.258 . S
C112 O114 1.247 . S
C112 O116 1.258 . S
C113 O120 1.247 . S
C113 O121 1.258 . S
O114 C112 1.247 . S
O114 Zn115 2.028 . S
Zn115 O114 2.028 . S
Zn115 O119 2.035 . S
Zn115 O121 2.035 . S
Zn115 O122 2.028 . S
O116 C112 1.258 . S
O116 Zn117 2.035 . S
Zn117 O116 2.035 . S
Zn117 O118 2.028 . S
Zn117 O120 2.028 . S
Zn117 O123 2.035 . S
O118 Zn117 2.028 . S
O118 C124 1.247 . S
O119 Zn115 2.035 . S
O119 C124 1.258 . S
O120 C113 1.247 . S
O120 Zn117 2.028 . S
O121 C113 1.258 . S
O121 Zn115 2.035 . S
O122 Zn115 2.028 . S
O122 C125 1.247 . S
O123 Zn117 2.035 . S
O123 C125 1.258 . S
C124 O118 1.247 . S
C124 O119 1.258 . S
C125 O122 1.247 . S
C125 O123 1.258 . S
C126 O128 1.247 . S
C126 O130 1.258 . S
C127 O134 1.247 . S
C127 O135 1.258 . S
O128 C126 1.247 . S
O128 Zn129 2.028 . S
Zn129 O128 2.028 . S
Zn129 O133 2.035 . S
Zn129 O135 2.035 . S
Zn129 O136 2.028 . S
O130 C126 1.258 . S
O130 Zn131 2.035 . S
Zn131 O130 2.035 . S
Zn131 O132 2.028 . S
Zn131 O134 2.028 . S
Zn131 O137 2.035 . S
O132 Zn131 2.028 . S
O132 C138 1.247 . S
O133 Zn129 2.035 . S
O133 C138 1.258 . S
O134 C127 1.247 . S
O134 Zn131 2.028 . S
O135 C127 1.258 . S
O135 Zn129 2.035 . S
O136 Zn129 2.028 . S
O136 C139 1.247 . S
O137 Zn131 2.035 . S
O137 C139 1.258 . S
C138 O132 1.247 . S
C138 O133 1.258 . S
C139 O136 1.247 . S
C139 O137 1.258 . S
C140 O142 1.247 . S
C140 O144 1.258 1_565 S
C141 O148 1.247 . S
C141 O149 1.258 1_545 S
O142 C140 1.247 . S
O142 Zn143 2.028 . S
Zn143 O142 2.028 . S
Zn143 O147 2.035 . S
Zn143 O149 2.035 . S
Zn143 O150 2.028 . S
O144 C140 1.258 1_545 S
O144 Zn145 2.035 . S
Zn145 O144 2.035 . S
Zn145 O146 2.028 . S
Zn145 O148 2.028 . S
Zn145 O151 2.035 . S
O146 Zn145 2.028 . S
O146 C152 1.247 . S
O147 Zn143 2.035 . S
O147 C152 1.258 1_565 S
O148 C141 1.247 . S
O148 Zn145 2.028 . S
O149 C141 1.258 1_565 S
O149 Zn143 2.035 . S
O150 Zn143 2.028 . S
O150 C153 1.247 . S
O151 Zn145 2.035 . S
O151 C153 1.258 1_545 S
C152 O146 1.247 . S
C152 O147 1.258 1_545 S
C153 O150 1.247 . S
C153 O151 1.258 1_565 S
C154 O156 1.247 . S
C154 O158 1.258 1_554 S
C155 O162 1.247 1_554 S
C155 O163 1.258 . S
O156 C154 1.247 . S
O156 Zn157 2.028 . S
Zn157 O156 2.028 . S
Zn157 O161 2.035 . S
Zn157 O163 2.035 . S
Zn157 O164 2.028 . S
O158 C154 1.258 1_556 S
O158 Zn159 2.035 . S
Zn159 O158 2.035 . S
Zn159 O160 2.028 . S
Zn159 O162 2.028 . S
Zn159 O165 2.035 . S
O160 Zn159 2.028 . S
O160 C166 1.247 1_556 S
O161 Zn157 2.035 . S
O161 C166 1.258 . S
O162 C155 1.247 1_556 S
O162 Zn159 2.028 . S
O163 C155 1.258 . S
O163 Zn157 2.035 . S
O164 Zn157 2.028 . S
O164 C167 1.249 . S
O165 Zn159 2.035 . S
O165 C167 1.256 1_556 S
C166 O160 1.247 1_554 S
C166 O161 1.258 . S
C167 O164 1.249 . S
C167 O165 1.256 1_554 S
C168 O184 1.251 . S
C168 O186 1.254 . S
N169 C170 1.328 1_554 S
N169 C174 1.307 1_554 S
N169 Zn175 2.020 . S
C170 N169 1.328 1_556 S
C170 C171 1.419 . S
C170 H188 0.917 1_556 S
C171 C170 1.419 . S
C171 C172 1.390 . S
C171 H198 0.949 . S
C172 C171 1.390 . S
C172 C173 1.357 . S
C173 C172 1.357 . S
C173 C174 1.370 . S
C173 H199 0.950 . S
C174 N169 1.307 1_556 S
C174 C173 1.370 . S
C174 H192 0.948 . S
Zn175 N169 2.020 . S
Zn175 O184 2.039 . S
Zn175 O190 2.034 . S
Zn175 O194 2.025 . S
Zn175 O196 2.024 . S
C176 O195 1.246 . S
C176 O196 1.249 . S
N177 C178 1.307 . S
N177 C179 1.333 . S
N177 Zn183 2.020 . S
C178 N177 1.307 . S
C178 C182 1.370 . S
C178 H189 0.948 . S
C179 N177 1.333 . S
C179 C180 1.379 . S
C179 H187 0.979 . S
C180 C179 1.379 . S
C180 C181 1.390 . S
C180 H200 0.949 1_455 S
C181 C180 1.390 . S
C181 C182 1.357 . S
C182 C178 1.370 . S
C182 C181 1.357 . S
C182 H201 0.950 . S
Zn183 N177 2.020 . S
Zn183 O186 2.025 . S
Zn183 O191 2.024 . S
Zn183 O193 2.039 . S
Zn183 O195 2.034 . S
O184 C168 1.251 . S
O184 Zn175 2.039 . S
C185 O190 1.246 . S
C185 O191 1.249 . S
O186 C168 1.254 . S
O186 Zn183 2.025 . S
H187 C179 0.979 . S
H188 C170 0.917 1_554 S
H189 C178 0.948 . S
O190 Zn175 2.034 . S
O190 C185 1.246 . S
O191 Zn183 2.024 . S
O191 C185 1.249 . S
H192 C174 0.948 . S
O193 Zn183 2.039 . S
O193 C197 1.251 . S
O194 Zn175 2.025 . S
O194 C197 1.254 . S
O195 C176 1.246 . S
O195 Zn183 2.034 . S
O196 Zn175 2.024 . S
O196 C176 1.249 . S
C197 O193 1.251 . S
C197 O194 1.254 . S
H198 C171 0.949 . S
H199 C173 0.950 . S
H200 C180 0.949 1_655 S
H201 C182 0.950 . S
C202 O218 1.251 . S
C202 O220 1.254 . S
N203 C204 1.333 . S
N203 C208 1.307 . S
N203 Zn209 2.020 1_556 S
C204 N203 1.333 . S
C204 C205 1.379 . S
C204 H222 0.961 . S
C205 C204 1.379 . S
C205 C206 1.390 . S
C205 H232 0.949 . S
C206 C205 1.390 . S
C206 C207 1.357 . S
C207 C206 1.357 . S
C207 C208 1.370 . S
C207 H233 0.950 . S
C208 N203 1.307 . S
C208 C207 1.370 . S
C208 H226 0.948 . S
Zn209 N203 2.020 1_554 S
Zn209 O218 2.039 . S
Zn209 O224 2.034 . S
Zn209 O228 2.025 . S
Zn209 O230 2.024 . S
C210 O229 1.246 . S
C210 O230 1.249 . S
N211 C212 1.307 . S
N211 C213 1.322 1_655 S
N211 Zn217 2.020 . S
C212 N211 1.307 . S
C212 C216 1.370 . S
C212 H223 0.948 . S
C213 N211 1.322 1_455 S
C213 C214 1.384 . S
C213 H221 0.958 . S
C214 C213 1.384 . S
C214 C215 1.390 1_455 S
C214 H234 0.949 . S
C215 C214 1.390 1_655 S
C215 C216 1.357 . S
C216 C212 1.370 . S
C216 C215 1.357 . S
C216 H235 0.950 . S
Zn217 N211 2.020 . S
Zn217 O220 2.025 . S
Zn217 O225 2.024 . S
Zn217 O227 2.039 . S
Zn217 O229 2.034 . S
O218 C202 1.251 . S
O218 Zn209 2.039 . S
C219 O224 1.246 . S
C219 O225 1.249 . S
O220 C202 1.254 . S
O220 Zn217 2.025 . S
H221 C213 0.958 . S
H222 C204 0.961 . S
H223 C212 0.948 . S
O224 Zn209 2.034 . S
O224 C219 1.246 . S
O225 Zn217 2.024 . S
O225 C219 1.249 . S
H226 C208 0.948 . S
O227 Zn217 2.039 . S
O227 C231 1.251 1_655 S
O228 Zn209 2.025 . S
O228 C231 1.254 1_655 S
O229 C210 1.246 . S
O229 Zn217 2.034 . S
O230 Zn209 2.024 . S
O230 C210 1.249 . S
C231 O227 1.251 1_455 S
C231 O228 1.254 1_455 S
H232 C205 0.949 . S
H233 C207 0.950 . S
H234 C214 0.949 . S
H235 C216 0.950 . S
C236 O252 1.251 . S
C236 O254 1.254 . S
N237 C238 1.333 . S
N237 C242 1.307 . S
N237 Zn243 2.020 . S
C238 N237 1.333 . S
C238 C239 1.379 . S
C238 H256 0.952 . S
C239 C238 1.379 . S
C239 C240 1.390 . S
C239 H266 0.985 . S
C240 C239 1.390 . S
C240 C241 1.357 . S
C241 C240 1.357 . S
C241 C242 1.370 . S
C241 H267 0.950 . S
C242 N237 1.307 . S
C242 C241 1.370 . S
C242 H260 0.948 . S
Zn243 N237 2.020 . S
Zn243 O252 2.039 . S
Zn243 O258 2.034 . S
Zn243 O262 2.025 . S
Zn243 O264 2.024 . S
C244 O263 1.246 . S
C244 O264 1.249 . S
N245 C246 1.307 . S
N245 C247 1.333 . S
N245 Zn251 2.020 . S
C246 N245 1.307 . S
C246 C250 1.370 . S
C246 H257 0.948 . S
C247 N245 1.333 . S
C247 C248 1.379 . S
C247 H255 0.952 . S
C248 C247 1.379 . S
C248 C249 1.390 . S
C248 H268 0.949 . S
C249 C248 1.390 . S
C249 C250 1.357 . S
C250 C246 1.370 . S
C250 C249 1.357 . S
C250 H269 0.950 1_565 S
Zn251 N245 2.020 . S
Zn251 O254 2.025 . S
Zn251 O259 2.024 . S
Zn251 O261 2.039 . S
Zn251 O263 2.034 . S
O252 C236 1.251 . S
O252 Zn243 2.039 . S
C253 O258 1.246 . S
C253 O259 1.249 . S
O254 C236 1.254 . S
O254 Zn251 2.025 . S
H255 C247 0.952 . S
H256 C238 0.952 . S
H257 C246 0.948 . S
O258 Zn243 2.034 . S
O258 C253 1.246 . S
O259 Zn251 2.024 . S
O259 C253 1.249 . S
H260 C242 0.948 . S
O261 Zn251 2.039 . S
O261 C265 1.251 . S
O262 Zn243 2.025 . S
O262 C265 1.254 . S
O263 C244 1.246 . S
O263 Zn251 2.034 . S
O264 Zn243 2.024 . S
O264 C244 1.249 . S
C265 O261 1.251 . S
C265 O262 1.254 . S
H266 C239 0.985 . S
H267 C241 0.950 . S
H268 C248 0.949 . S
H269 C250 0.950 1_545 S
C270 O286 1.251 . S
C270 O288 1.254 . S
N271 C272 1.333 . S
N271 C276 1.307 . S
N271 Zn277 2.020 1_455 S
C272 N271 1.333 . S
C272 C273 1.379 . S
C272 H290 0.952 1_455 S
C273 C272 1.379 . S
C273 C274 1.390 . S
C273 H300 0.949 . S
C274 C273 1.390 . S
C274 C275 1.357 . S
C275 C274 1.357 . S
C275 C276 1.370 . S
C275 H301 0.950 . S
C276 N271 1.307 . S
C276 C275 1.370 . S
C276 H294 0.948 . S
Zn277 N271 2.020 1_655 S
Zn277 O286 2.039 . S
Zn277 O292 2.034 . S
Zn277 O296 2.025 . S
Zn277 O298 2.024 . S
C278 O297 1.246 . S
C278 O298 1.249 . S
N279 C280 1.307 . S
N279 C281 1.333 . S
N279 Zn285 2.020 . S
C280 N279 1.307 . S
C280 C284 1.370 . S
C280 H291 0.948 . S
C281 N279 1.333 . S
C281 C282 1.379 . S
C281 H289 0.952 . S
C282 C281 1.379 . S
C282 C283 1.390 . S
C282 H302 0.949 . S
C283 C282 1.390 . S
C283 C284 1.357 . S
C284 C280 1.370 . S
C284 C283 1.357 . S
C284 H303 0.950 . S
Zn285 N279 2.020 . S
Zn285 O288 2.025 . S
Zn285 O293 2.024 . S
Zn285 O295 2.039 . S
Zn285 O297 2.034 . S
O286 C270 1.251 . S
O286 Zn277 2.039 . S
C287 O292 1.246 . S
C287 O293 1.249 . S
O288 C270 1.254 . S
O288 Zn285 2.025 . S
H289 C281 0.952 . S
H290 C272 0.952 1_655 S
H291 C280 0.948 . S
O292 Zn277 2.034 . S
O292 C287 1.246 . S
O293 Zn285 2.024 . S
O293 C287 1.249 . S
H294 C276 0.948 . S
O295 Zn285 2.039 . S
O295 C299 1.251 . S
O296 Zn277 2.025 . S
O296 C299 1.254 . S
O297 C278 1.246 . S
O297 Zn285 2.034 . S
O298 Zn277 2.024 . S
O298 C278 1.249 . S
C299 O295 1.251 . S
C299 O296 1.254 . S
H300 C273 0.949 . S
H301 C275 0.950 . S
H302 C282 0.949 . S
H303 C284 0.950 . S
C304 O320 1.251 . S
C304 O322 1.254 . S
N305 C306 1.333 . S
N305 C310 1.307 . S
N305 Zn311 2.020 . S
C306 N305 1.333 . S
C306 C307 1.375 1_565 S
C306 H324 0.952 . S
C307 C306 1.375 1_545 S
C307 C308 1.393 . S
C307 H334 0.950 . S
C308 C307 1.393 . S
C308 C309 1.357 . S
C309 C308 1.357 . S
C309 C310 1.370 1_545 S
C309 H335 0.950 . S
C310 N305 1.307 . S
C310 C309 1.370 1_565 S
C310 H328 0.948 . S
Zn311 N305 2.020 . S
Zn311 O320 2.039 . S
Zn311 O326 2.034 . S
Zn311 O330 2.025 . S
Zn311 O332 1.993 1_565 S
C312 O331 1.239 1_545 S
C312 O332 1.251 . S
N313 C314 1.307 . S
N313 C315 1.333 . S
N313 Zn319 2.020 . S
C314 N313 1.307 . S
C314 C318 1.370 . S
C314 H325 0.948 . S
C315 N313 1.333 . S
C315 C316 1.379 . S
C315 H323 0.952 . S
C316 C315 1.379 . S
C316 C317 1.390 . S
C316 H336 0.949 . S
C317 C316 1.390 . S
C317 C318 1.357 . S
C318 C314 1.370 . S
C318 C317 1.357 . S
C318 H337 0.950 . S
Zn319 N313 2.020 . S
Zn319 O322 2.025 . S
Zn319 O327 2.024 . S
Zn319 O329 2.039 . S
Zn319 O331 2.034 . S
O320 C304 1.251 . S
O320 Zn311 2.039 . S
C321 O326 1.246 . S
C321 O327 1.249 . S
O322 C304 1.254 . S
O322 Zn319 2.025 . S
H323 C315 0.952 . S
H324 C306 0.952 . S
H325 C314 0.948 . S
O326 Zn311 2.034 . S
O326 C321 1.246 . S
O327 Zn319 2.024 . S
O327 C321 1.249 . S
H328 C310 0.948 . S
O329 Zn319 2.039 . S
O329 C333 1.251 . S
O330 Zn311 2.025 . S
O330 C333 1.254 . S
O331 C312 1.239 1_565 S
O331 Zn319 2.034 . S
O332 Zn311 1.993 1_545 S
O332 C312 1.251 . S
C333 O329 1.251 . S
C333 O330 1.254 . S
H334 C307 0.950 . S
H335 C309 0.950 . S
H336 C316 0.949 . S
H337 C318 0.950 . S
C338 O354 1.251 . S
C338 O356 1.254 . S
N339 C340 1.333 . S
N339 C344 1.307 . S
N339 Zn345 2.020 . S
C340 N339 1.333 . S
C340 C341 1.379 . S
C340 H358 0.952 . S
C341 C340 1.379 . S
C341 C342 1.390 . S
C341 H368 0.949 . S
C342 C341 1.390 . S
C342 C343 1.357 . S
C343 C342 1.357 . S
C343 C344 1.370 . S
C343 H369 0.950 . S
C344 N339 1.307 . S
C344 C343 1.370 . S
C344 H362 0.948 . S
Zn345 N339 2.020 . S
Zn345 O354 2.039 . S
Zn345 O360 2.034 . S
Zn345 O364 2.025 . S
Zn345 O366 2.024 . S
C346 O365 1.246 . S
C346 O366 1.249 . S
N347 C348 1.307 . S
N347 C349 1.333 . S
N347 Zn353 2.020 . S
C348 N347 1.307 . S
C348 C352 1.370 . S
C348 H359 0.948 . S
C349 N347 1.333 . S
C349 C350 1.379 . S
C349 H357 0.952 . S
C350 C349 1.379 . S
C350 C351 1.390 . S
C350 H370 0.949 . S
C351 C350 1.390 . S
C351 C352 1.357 . S
C352 C348 1.370 . S
C352 C351 1.357 . S
C352 H371 0.950 . S
Zn353 N347 2.020 . S
Zn353 O356 2.025 . S
Zn353 O361 2.024 . S
Zn353 O363 2.039 . S
Zn353 O365 2.034 . S
O354 C338 1.251 . S
O354 Zn345 2.039 . S
C355 O360 1.246 . S
C355 O361 1.249 . S
O356 C338 1.254 . S
O356 Zn353 2.025 . S
H357 C349 0.952 . S
H358 C340 0.952 . S
H359 C348 0.948 . S
O360 Zn345 2.034 . S
O360 C355 1.246 . S
O361 Zn353 2.024 . S
O361 C355 1.249 . S
H362 C344 0.948 . S
O363 Zn353 2.039 . S
O363 C367 1.251 . S
O364 Zn345 2.025 . S
O364 C367 1.254 . S
O365 C346 1.246 . S
O365 Zn353 2.034 . S
O366 Zn345 2.024 . S
O366 C346 1.249 . S
C367 O363 1.251 . S
C367 O364 1.254 . S
H368 C341 0.949 . S
H369 C343 0.950 . S
H370 C350 0.949 . S
H371 C352 0.950 . S
C372 O388 1.251 . S
C372 O390 1.254 . S
N373 C374 1.333 . S
N373 C378 1.307 . S
N373 Zn379 2.020 . S
C374 N373 1.333 . S
C374 C375 1.379 . S
C374 H392 0.952 . S
C375 C374 1.379 . S
C375 C376 1.390 . S
C375 H402 0.949 . S
C376 C375 1.390 . S
C376 C377 1.357 . S
C377 C376 1.357 . S
C377 C378 1.370 . S
C377 H403 0.950 . S
C378 N373 1.307 . S
C378 C377 1.370 . S
C378 H396 0.948 . S
Zn379 N373 2.020 . S
Zn379 O388 2.039 . S
Zn379 O394 2.034 . S
Zn379 O398 2.025 . S
Zn379 O400 2.024 . S
C380 O399 1.246 . S
C380 O400 1.249 . S
N381 C382 1.307 . S
N381 C383 1.333 . S
N381 Zn387 2.020 . S
C382 N381 1.307 . S
C382 C386 1.370 1_556 S
C382 H393 0.948 . S
C383 N381 1.333 . S
C383 C384 1.379 1_556 S
C383 H391 0.952 . S
C384 C383 1.379 1_554 S
C384 C385 1.390 . S
C384 H404 0.949 . S
C385 C384 1.390 . S
C385 C386 1.357 . S
C386 C382 1.370 1_554 S
C386 C385 1.357 . S
C386 H405 0.950 . S
Zn387 N381 2.020 . S
Zn387 O390 2.025 . S
Zn387 O395 2.024 . S
Zn387 O397 2.039 . S
Zn387 O399 2.034 . S
O388 C372 1.251 . S
O388 Zn379 2.039 . S
C389 O394 1.246 . S
C389 O395 1.249 . S
O390 C372 1.254 . S
O390 Zn387 2.025 . S
H391 C383 0.952 . S
H392 C374 0.952 . S
H393 C382 0.948 . S
O394 Zn379 2.034 . S
O394 C389 1.246 . S
O395 Zn387 2.024 . S
O395 C389 1.249 . S
H396 C378 0.948 . S
O397 Zn387 2.039 . S
O397 C401 1.251 . S
O398 Zn379 2.025 . S
O398 C401 1.254 . S
O399 C380 1.246 . S
O399 Zn387 2.034 . S
O400 Zn379 2.024 . S
O400 C380 1.249 . S
C401 O397 1.251 . S
C401 O398 1.254 . S
H402 C375 0.949 . S
H403 C377 0.950 . S
H404 C384 0.949 . S
H405 C386 0.950 . S
C406 O422 1.251 . S
C406 O424 1.254 . S
N407 C408 1.333 . S
N407 C412 1.307 . S
N407 Zn413 2.020 . S
C408 N407 1.333 . S
C408 C409 1.379 . S
C408 H426 0.952 . S
C409 C408 1.379 . S
C409 C410 1.390 . S
C409 H436 0.949 . S
C410 C409 1.390 . S
C410 C411 1.357 . S
C411 C410 1.357 . S
C411 C412 1.370 . S
C411 H437 0.950 . S
C412 N407 1.307 . S
C412 C411 1.370 . S
C412 H430 0.948 . S
Zn413 N407 2.020 . S
Zn413 O422 2.039 . S
Zn413 O428 2.034 . S
Zn413 O432 2.025 . S
Zn413 O434 2.024 . S
C414 O433 1.246 . S
C414 O434 1.249 . S
N415 C416 1.307 . S
N415 C417 1.333 . S
N415 Zn421 2.020 . S
C416 N415 1.307 . S
C416 C420 1.370 . S
C416 H427 0.948 . S
C417 N415 1.333 . S
C417 C418 1.379 1_545 S
C417 H425 0.952 1_545 S
C418 C417 1.379 1_565 S
C418 C419 1.390 1_565 S
C418 H438 0.949 . S
C419 C418 1.390 1_545 S
C419 C420 1.357 . S
C420 C416 1.370 . S
C420 C419 1.357 . S
C420 H439 0.950 . S
Zn421 N415 2.020 . S
Zn421 O424 2.025 . S
Zn421 O429 2.024 . S
Zn421 O431 2.039 . S
Zn421 O433 2.034 . S
O422 C406 1.251 . S
O422 Zn413 2.039 . S
C423 O428 1.246 . S
C423 O429 1.249 . S
O424 C406 1.254 . S
O424 Zn421 2.025 . S
H425 C417 0.952 1_565 S
H426 C408 0.952 . S
H427 C416 0.948 . S
O428 Zn413 2.034 . S
O428 C423 1.246 . S
O429 Zn421 2.024 . S
O429 C423 1.249 . S
H430 C412 0.948 . S
O431 Zn421 2.039 . S
O431 C435 1.251 . S
O432 Zn413 2.025 . S
O432 C435 1.254 . S
O433 C414 1.246 . S
O433 Zn421 2.034 . S
O434 Zn413 2.024 . S
O434 C414 1.249 . S
C435 O431 1.251 . S
C435 O432 1.254 . S
H436 C409 0.949 . S
H437 C411 0.950 . S
H438 C418 0.949 . S
H439 C420 0.950 . S
C440 C441 1.349 . S
C440 C442 1.327 . S
C440 H465 0.950 . S
C441 C440 1.349 . S
C441 C457 1.349 . S
C442 C440 1.327 . S
C442 C461 1.429 . S
C442 H466 0.950 . S
C443 C460 1.574 . S
C443 C462 1.368 . S
C443 H467 0.949 . S
H444 C448 0.949 . S
C445 C446 1.349 . S
C445 C447 1.327 . S
C445 H468 0.950 . S
C446 C445 1.349 . S
C446 C458 1.349 . S
C447 C445 1.327 . S
C447 C463 1.429 . S
C447 H469 0.950 . S
C448 H444 0.949 . S
C448 C456 1.574 . S
C448 C464 1.368 . S
H449 C457 0.950 . S
H450 C455 0.950 . S
H451 C456 0.949 . S
H452 C458 0.950 . S
H453 C459 0.950 . S
H454 C460 0.949 . S
C455 H450 0.950 . S
C455 C457 1.327 . S
C455 C461 1.429 . S
C456 C448 1.574 . S
C456 H451 0.949 . S
C456 C462 1.368 . S
C457 C441 1.349 . S
C457 H449 0.950 . S
C457 C455 1.327 . S
C458 C446 1.349 . S
C458 H452 0.950 . S
C458 C459 1.327 . S
C459 H453 0.950 . S
C459 C458 1.327 . S
C459 C463 1.429 . S
C460 C443 1.574 . S
C460 H454 0.949 . S
C460 C464 1.368 . S
C461 C442 1.429 . S
C461 C455 1.429 . S
C461 C462 1.523 . S
C462 C443 1.368 . S
C462 C456 1.368 . S
C462 C461 1.523 . S
C463 C447 1.429 . S
C463 C459 1.429 . S
C463 C464 1.523 . S
C464 C448 1.368 . S
C464 C460 1.368 . S
C464 C463 1.523 . S
H465 C440 0.950 . S
H466 C442 0.950 . S
H467 C443 0.949 . S
H468 C445 0.950 . S
H469 C447 0.950 . S
C470 C471 1.349 . S
C470 C472 1.327 . S
C470 H495 0.950 . S
C471 C470 1.349 . S
C471 C487 1.349 1_655 S
C472 C470 1.327 . S
C472 C491 1.429 . S
C472 H496 0.950 . S
C473 C490 1.574 . S
C473 C492 1.368 . S
C473 H497 0.949 1_655 S
H474 C478 0.949 . S
C475 C476 1.349 . S
C475 C477 1.327 . S
C475 H498 0.950 . S
C476 C475 1.349 . S
C476 C488 1.349 . S
C477 C475 1.327 . S
C477 C493 1.429 . S
C477 H499 0.950 1_655 S
C478 H474 0.949 . S
C478 C486 1.574 . S
C478 C494 1.368 . S
H479 C487 0.950 . S
H480 C485 0.950 . S
H481 C486 0.949 . S
H482 C488 0.950 . S
H483 C489 0.950 . S
H484 C490 0.949 1_455 S
C485 H480 0.950 . S
C485 C487 1.327 . S
C485 C491 1.429 1_455 S
C486 C478 1.574 . S
C486 H481 0.949 . S
C486 C492 1.368 . S
C487 C471 1.349 1_455 S
C487 H479 0.950 . S
C487 C485 1.327 . S
C488 C476 1.349 . S
C488 H482 0.950 . S
C488 C489 1.327 . S
C489 H483 0.950 . S
C489 C488 1.327 . S
C489 C493 1.429 . S
C490 C473 1.574 . S
C490 H484 0.949 1_655 S
C490 C494 1.368 . S
C491 C472 1.429 . S
C491 C485 1.429 1_655 S
C491 C492 1.523 . S
C492 C473 1.368 . S
C492 C486 1.368 . S
C492 C491 1.523 . S
C493 C477 1.429 . S
C493 C489 1.429 . S
C493 C494 1.523 . S
C494 C478 1.368 . S
C494 C490 1.368 . S
C494 C493 1.523 . S
H495 C470 0.950 . S
H496 C472 0.950 . S
H497 C473 0.949 1_455 S
H498 C475 0.950 . S
H499 C477 0.950 1_455 S
C500 C501 1.349 . S
C500 C502 1.327 . S
C500 H525 0.950 1_455 S
C501 C500 1.349 . S
C501 C517 1.349 . S
C502 C500 1.327 . S
C502 C521 1.429 . S
C502 H526 0.950 1_455 S
C503 C520 1.574 . S
C503 C522 1.368 . S
C503 H527 0.949 . S
H504 C508 0.949 . S
C505 C506 1.349 . S
C505 C507 1.327 . S
C505 H528 0.950 . S
C506 C505 1.349 . S
C506 C518 1.349 . S
C507 C505 1.327 . S
C507 C523 1.429 . S
C507 H529 0.950 . S
C508 H504 0.949 . S
C508 C516 1.574 . S
C508 C524 1.368 . S
H509 C517 0.950 . S
H510 C515 0.950 . S
H511 C516 0.922 1_655 S
H512 C518 0.950 . S
H513 C519 0.950 . S
H514 C520 0.949 . S
C515 H510 0.950 . S
C515 C517 1.327 . S
C515 C521 1.429 . S
C516 C508 1.574 . S
C516 H511 0.922 1_455 S
C516 C522 1.368 . S
C517 C501 1.349 . S
C517 H509 0.950 . S
C517 C515 1.327 . S
C518 C506 1.349 . S
C518 H512 0.950 . S
C518 C519 1.327 . S
C519 H513 0.950 . S
C519 C518 1.327 . S
C519 C523 1.429 . S
C520 C503 1.574 . S
C520 H514 0.949 . S
C520 C524 1.368 . S
C521 C502 1.429 . S
C521 C515 1.429 . S
C521 C522 1.523 . S
C522 C503 1.368 . S
C522 C516 1.368 . S
C522 C521 1.523 . S
C523 C507 1.429 . S
C523 C519 1.429 . S
C523 C524 1.523 . S
C524 C508 1.368 . S
C524 C520 1.368 . S
C524 C523 1.523 . S
H525 C500 0.950 1_655 S
H526 C502 0.950 1_655 S
H527 C503 0.949 . S
H528 C505 0.950 . S
H529 C507 0.950 . S
C530 C531 1.349 . S
C530 C532 1.327 . S
C530 H555 0.950 . S
C531 C530 1.349 . S
C531 C547 1.349 1_655 S
C532 C530 1.327 . S
C532 C551 1.429 . S
C532 H556 0.950 . S
C533 C550 1.574 . S
C533 C552 1.368 1_455 S
C533 H557 0.949 . S
H534 C538 0.949 . S
C535 C536 1.349 1_455 S
C535 C537 1.327 . S
C535 H558 0.950 . S
C536 C535 1.349 1_655 S
C536 C548 1.349 . S
C537 C535 1.327 . S
C537 C553 1.429 1_455 S
C537 H559 0.950 . S
C538 H534 0.949 . S
C538 C546 1.574 . S
C538 C554 1.368 . S
H539 C547 0.950 . S
H540 C545 0.950 . S
H541 C546 0.949 . S
H542 C548 0.950 . S
H543 C549 0.950 . S
H544 C550 0.949 . S
C545 H540 0.950 . S
C545 C547 1.327 . S
C545 C551 1.429 1_455 S
C546 C538 1.574 . S
C546 H541 0.949 . S
C546 C552 1.368 . S
C547 C531 1.349 1_455 S
C547 H539 0.950 . S
C547 C545 1.327 . S
C548 C536 1.349 . S
C548 H542 0.950 . S
C548 C549 1.327 . S
C549 H543 0.950 . S
C549 C548 1.327 . S
C549 C553 1.429 . S
C550 C533 1.574 . S
C550 H544 0.949 . S
C550 C554 1.368 1_455 S
C551 C532 1.429 . S
C551 C545 1.429 1_655 S
C551 C552 1.523 . S
C552 C533 1.368 1_655 S
C552 C546 1.368 . S
C552 C551 1.523 . S
C553 C537 1.429 1_655 S
C553 C549 1.429 . S
C553 C554 1.523 . S
C554 C538 1.368 . S
C554 C550 1.368 1_655 S
C554 C553 1.523 . S
H555 C530 0.950 . S
H556 C532 0.950 . S
H557 C533 0.949 . S
H558 C535 0.950 . S
H559 C537 0.950 . S
C560 C561 1.349 . S
C560 C562 1.327 . S
C560 H585 0.950 . S
C561 C560 1.349 . S
C561 C577 1.349 . S
C562 C560 1.327 . S
C562 C581 1.429 . S
C562 H586 0.950 . S
C563 C580 1.574 . S
C563 C582 1.368 . S
C563 H587 0.949 1_545 S
H564 C568 0.949 . S
C565 C566 1.348 . S
C565 C567 1.327 . S
C565 H588 0.950 1_544 S
C566 C565 1.348 . S
C566 C578 1.346 . S
C567 C565 1.327 . S
C567 C583 1.429 . S
C567 H589 0.950 1_545 S
C568 H564 0.949 . S
C568 C576 1.574 . S
C568 C584 1.368 . S
H569 C577 0.950 1_565 S
H570 C575 0.950 1_565 S
H571 C576 0.949 . S
H572 C578 0.950 . S
H573 C579 0.950 . S
H574 C580 0.949 1_565 S
C575 H570 0.950 1_545 S
C575 C577 1.327 . S
C575 C581 1.429 . S
C576 C568 1.574 . S
C576 H571 0.949 . S
C576 C582 1.368 . S
C577 C561 1.349 . S
C577 H569 0.950 1_545 S
C577 C575 1.327 . S
C578 C566 1.346 . S
C578 H572 0.950 . S
C578 C579 1.327 . S
C579 H573 0.950 . S
C579 C578 1.327 . S
C579 C583 1.429 . S
C580 C563 1.574 . S
C580 H574 0.949 1_545 S
C580 C584 1.368 . S
C581 C562 1.429 . S
C581 C575 1.429 . S
C581 C582 1.523 . S
C582 C563 1.368 . S
C582 C576 1.368 . S
C582 C581 1.523 . S
C583 C567 1.429 . S
C583 C579 1.429 . S
C583 C584 1.523 . S
C584 C568 1.368 . S
C584 C580 1.368 . S
C584 C583 1.523 . S
H585 C560 0.950 . S
H586 C562 0.950 . S
H587 C563 0.949 1_565 S
H588 C565 0.950 1_566 S
H589 C567 0.950 1_565 S
C590 C591 1.349 . S
C590 C592 1.327 . S
C590 H615 0.950 . S
C591 C590 1.349 . S
C591 C607 1.349 . S
C592 C590 1.327 . S
C592 C611 1.429 . S
C592 H616 0.950 . S
C593 C610 1.574 . S
C593 C612 1.368 . S
C593 H617 0.949 . S
H594 C598 0.949 . S
C595 C596 1.349 . S
C595 C597 1.327 . S
C595 H618 0.950 . S
C596 C595 1.349 . S
C596 C608 1.349 . S
C597 C595 1.327 . S
C597 C613 1.429 . S
C597 H619 0.950 . S
C598 H594 0.949 . S
C598 C606 1.574 . S
C598 C614 1.368 . S
H599 C607 0.950 . S
H600 C605 0.950 . S
H601 C606 0.949 . S
H602 C608 0.950 . S
H603 C609 0.950 . S
H604 C610 0.949 . S
C605 H600 0.950 . S
C605 C607 1.327 . S
C605 C611 1.429 . S
C606 C598 1.574 . S
C606 H601 0.949 . S
C606 C612 1.368 . S
C607 C591 1.349 . S
C607 H599 0.950 . S
C607 C605 1.327 . S
C608 C596 1.349 . S
C608 H602 0.950 . S
C608 C609 1.327 . S
C609 H603 0.950 . S
C609 C608 1.327 . S
C609 C613 1.429 . S
C610 C593 1.574 . S
C610 H604 0.949 . S
C610 C614 1.368 . S
C611 C592 1.429 . S
C611 C605 1.429 . S
C611 C612 1.523 . S
C612 C593 1.368 . S
C612 C606 1.368 . S
C612 C611 1.523 . S
C613 C597 1.429 . S
C613 C609 1.429 . S
C613 C614 1.523 . S
C614 C598 1.368 . S
C614 C610 1.368 . S
C614 C613 1.523 . S
H615 C590 0.950 . S
H616 C592 0.950 . S
H617 C593 0.949 . S
H618 C595 0.950 . S
H619 C597 0.950 . S
C620 C621 1.349 1_565 S
C620 C622 1.327 . S
C620 H645 0.950 . S
C621 C620 1.349 1_545 S
C621 C637 1.349 . S
C622 C620 1.327 . S
C622 C641 1.429 1_565 S
C622 H646 0.950 . S
C623 C640 1.574 . S
C623 C642 1.368 . S
C623 H647 0.949 . S
H624 C628 0.949 . S
C625 C626 1.349 . S
C625 C627 1.327 . S
C625 H648 0.950 . S
C626 C625 1.349 . S
C626 C638 1.349 1_545 S
C627 C625 1.327 . S
C627 C643 1.429 . S
C627 H649 0.950 . S
C628 H624 0.949 . S
C628 C636 1.574 . S
C628 C644 1.368 1_565 S
H629 C637 0.950 . S
H630 C635 0.950 . S
H631 C636 0.949 . S
H632 C638 0.950 . S
H633 C639 0.950 . S
H634 C640 0.949 . S
C635 H630 0.950 . S
C635 C637 1.327 . S
C635 C641 1.429 . S
C636 C628 1.574 . S
C636 H631 0.949 . S
C636 C642 1.368 1_565 S
C637 C621 1.349 . S
C637 H629 0.950 . S
C637 C635 1.327 . S
C638 C626 1.349 1_565 S
C638 H632 0.950 . S
C638 C639 1.327 . S
C639 H633 0.950 . S
C639 C638 1.327 . S
C639 C643 1.429 1_565 S
C640 C623 1.574 . S
C640 H634 0.949 . S
C640 C644 1.368 . S
C641 C622 1.429 1_545 S
C641 C635 1.429 . S
C641 C642 1.523 . S
C642 C623 1.368 . S
C642 C636 1.368 1_545 S
C642 C641 1.523 . S
C643 C627 1.429 . S
C643 C639 1.429 1_545 S
C643 C644 1.523 . S
C644 C628 1.368 1_545 S
C644 C640 1.368 . S
C644 C643 1.523 . S
H645 C620 0.950 . S
H646 C622 0.950 . S
H647 C623 0.949 . S
H648 C625 0.950 . S
H649 C627 0.950 . S
C650 C651 1.349 . S
C650 C652 1.327 . S
C650 H675 0.950 . S
C651 C650 1.349 . S
C651 C667 1.349 . S
C652 C650 1.327 . S
C652 C671 1.429 . S
C652 H676 0.950 . S
C653 C670 1.574 . S
C653 C672 1.368 . S
C653 H677 0.949 . S
H654 C658 0.949 . S
C655 C656 1.349 . S
C655 C657 1.327 . S
C655 H678 0.950 . S
C656 C655 1.349 . S
C656 C668 1.349 . S
C657 C655 1.327 . S
C657 C673 1.429 . S
C657 H679 0.950 . S
C658 H654 0.949 . S
C658 C666 1.574 . S
C658 C674 1.368 . S
H659 C667 0.950 . S
H660 C665 0.950 . S
H661 C666 0.949 . S
H662 C668 0.950 . S
H663 C669 0.950 . S
H664 C670 0.949 . S
C665 H660 0.950 . S
C665 C667 1.327 . S
C665 C671 1.429 . S
C666 C658 1.574 . S
C666 H661 0.949 . S
C666 C672 1.368 . S
C667 C651 1.349 . S
C667 H659 0.950 . S
C667 C665 1.327 . S
C668 C656 1.349 . S
C668 H662 0.950 . S
C668 C669 1.327 . S
C669 H663 0.950 . S
C669 C668 1.327 . S
C669 C673 1.429 . S
C670 C653 1.574 . S
C670 H664 0.949 . S
C670 C674 1.368 . S
C671 C652 1.429 . S
C671 C665 1.429 . S
C671 C672 1.523 . S
C672 C653 1.368 . S
C672 C666 1.368 . S
C672 C671 1.523 . S
C673 C657 1.429 . S
C673 C669 1.429 . S
C673 C674 1.523 . S
C674 C658 1.368 . S
C674 C670 1.368 . S
C674 C673 1.523 . S
H675 C650 0.950 . S
H676 C652 0.950 . S
H677 C653 0.949 . S
H678 C655 0.950 . S
H679 C657 0.950 . S
C680 C681 1.349 . S
C680 C682 1.327 . S
C680 H705 0.950 . S
C681 C680 1.349 . S
C681 C697 1.349 1_554 S
C682 C680 1.327 . S
C682 C701 1.429 . S
C682 H706 0.950 . S
C683 C700 1.574 . S
C683 C702 1.368 1_556 S
C683 H707 0.949 . S
H684 C688 0.949 . S
C685 C686 1.359 . S
C685 C687 1.327 1_554 S
C685 H708 0.940 1_554 S
C686 C685 1.359 . S
C686 C698 1.349 . S
C687 C685 1.327 1_556 S
C687 C703 1.429 1_556 S
C687 H709 0.950 . S
C688 H684 0.949 . S
C688 C696 1.574 . S
C688 C704 1.368 . S
H689 C697 0.950 . S
H690 C695 0.950 . S
H691 C696 0.949 . S
H692 C698 0.950 . S
H693 C699 0.950 . S
H694 C700 0.949 . S
C695 H690 0.950 . S
C695 C697 1.327 . S
C695 C701 1.429 1_556 S
C696 C688 1.574 . S
C696 H691 0.949 . S
C696 C702 1.368 . S
C697 C681 1.349 1_556 S
C697 H689 0.950 . S
C697 C695 1.327 . S
C698 C686 1.349 . S
C698 H692 0.950 . S
C698 C699 1.327 . S
C699 H693 0.950 . S
C699 C698 1.327 . S
C699 C703 1.429 . S
C700 C683 1.574 . S
C700 H694 0.949 . S
C700 C704 1.368 1_556 S
C701 C682 1.429 . S
C701 C695 1.429 1_554 S
C701 C702 1.523 . S
C702 C683 1.368 1_554 S
C702 C696 1.368 . S
C702 C701 1.523 . S
C703 C687 1.429 1_554 S
C703 C699 1.429 . S
C703 C704 1.523 . S
C704 C688 1.368 . S
C704 C700 1.368 1_554 S
C704 C703 1.523 . S
H705 C680 0.950 . S
H706 C682 0.950 . S
H707 C683 0.949 . S
H708 C685 0.940 1_556 S
H709 C687 0.950 . S
C710 C711 1.349 . S
C710 C712 1.327 . S
C710 H735 0.950 . S
C711 C710 1.349 . S
C711 C727 1.349 . S
C712 C710 1.327 . S
C712 C731 1.429 . S
C712 H736 0.950 . S
C713 C730 1.574 . S
C713 C732 1.368 . S
C713 H737 0.949 . S
H714 C718 0.949 . S
C715 C716 1.349 . S
C715 C717 1.327 . S
C715 H738 0.950 . S
C716 C715 1.349 . S
C716 C728 1.349 . S
C717 C715 1.327 . S
C717 C733 1.429 . S
C717 H739 0.950 . S
C718 H714 0.949 . S
C718 C726 1.574 . S
C718 C734 1.368 . S
H719 C727 0.950 . S
H720 C725 0.950 . S
H721 C726 0.949 . S
H722 C728 0.950 . S
H723 C729 0.950 . S
H724 C730 0.949 . S
C725 H720 0.950 . S
C725 C727 1.327 . S
C725 C731 1.429 . S
C726 C718 1.574 . S
C726 H721 0.949 . S
C726 C732 1.368 . S
C727 C711 1.349 . S
C727 H719 0.950 . S
C727 C725 1.327 . S
C728 C716 1.349 . S
C728 H722 0.950 . S
C728 C729 1.327 . S
C729 H723 0.950 . S
C729 C728 1.327 . S
C729 C733 1.429 . S
C730 C713 1.574 . S
C730 H724 0.949 . S
C730 C734 1.368 . S
C731 C712 1.429 . S
C731 C725 1.429 . S
C731 C732 1.523 . S
C732 C713 1.368 . S
C732 C726 1.368 . S
C732 C731 1.523 . S
C733 C717 1.429 . S
C733 C729 1.429 . S
C733 C734 1.523 . S
C734 C718 1.368 . S
C734 C730 1.368 . S
C734 C733 1.523 . S
H735 C710 0.950 . S
H736 C712 0.950 . S
H737 C713 0.949 . S
H738 C715 0.950 . S
H739 C717 0.950 . S
C740 C741 1.349 . S
C740 C742 1.327 . S
C740 H765 0.950 . S
C741 C740 1.349 . S
C741 C757 1.349 . S
C742 C740 1.327 . S
C742 C761 1.429 . S
C742 H766 0.950 . S
C743 C760 1.574 . S
C743 C762 1.368 . S
C743 H767 0.949 . S
H744 C748 0.949 . S
C745 C746 1.349 . S
C745 C747 1.327 . S
C745 H768 0.950 . S
C746 C745 1.349 . S
C746 C758 1.349 . S
C747 C745 1.327 . S
C747 C763 1.429 . S
C747 H769 0.950 . S
C748 H744 0.949 . S
C748 C756 1.574 . S
C748 C764 1.368 . S
H749 C757 0.950 . S
H750 C755 0.950 . S
H751 C756 0.949 . S
H752 C758 0.950 . S
H753 C759 0.950 . S
H754 C760 0.949 . S
C755 H750 0.950 . S
C755 C757 1.327 . S
C755 C761 1.429 . S
C756 C748 1.574 . S
C756 H751 0.949 . S
C756 C762 1.368 . S
C757 C741 1.349 . S
C757 H749 0.950 . S
C757 C755 1.327 . S
C758 C746 1.349 . S
C758 H752 0.950 . S
C758 C759 1.327 . S
C759 H753 0.950 . S
C759 C758 1.327 . S
C759 C763 1.429 . S
C760 C743 1.574 . S
C760 H754 0.949 . S
C760 C764 1.368 . S
C761 C742 1.429 . S
C761 C755 1.429 . S
C761 C762 1.523 . S
C762 C743 1.368 . S
C762 C756 1.368 . S
C762 C761 1.523 . S
C763 C747 1.429 . S
C763 C759 1.429 . S
C763 C764 1.523 . S
C764 C748 1.368 . S
C764 C760 1.368 . S
C764 C763 1.523 . S
H765 C740 0.950 . S
H766 C742 0.950 . S
H767 C743 0.949 . S
H768 C745 0.950 . S
H769 C747 0.950 . S
C770 C771 1.349 . S
C770 C772 1.327 . S
C770 H795 0.950 . S
C771 C770 1.349 . S
C771 C787 1.349 . S
C772 C770 1.327 . S
C772 C791 1.429 . S
C772 H796 0.950 . S
C773 C790 1.574 . S
C773 C792 1.368 . S
C773 H797 0.949 . S
H774 C778 0.949 . S
C775 C776 1.349 . S
C775 C777 1.327 . S
C775 H798 0.950 . S
C776 C775 1.349 . S
C776 C788 1.349 . S
C777 C775 1.327 . S
C777 C793 1.429 . S
C777 H799 0.950 . S
C778 H774 0.949 . S
C778 C786 1.574 . S
C778 C794 1.368 . S
H779 C787 0.950 . S
H780 C785 0.950 . S
H781 C786 0.949 . S
H782 C788 0.950 . S
H783 C789 0.950 . S
H784 C790 0.949 . S
C785 H780 0.950 . S
C785 C787 1.327 . S
C785 C791 1.429 . S
C786 C778 1.574 . S
C786 H781 0.949 . S
C786 C792 1.368 . S
C787 C771 1.349 . S
C787 H779 0.950 . S
C787 C785 1.327 . S
C788 C776 1.349 . S
C788 H782 0.950 . S
C788 C789 1.327 . S
C789 H783 0.950 . S
C789 C788 1.327 . S
C789 C793 1.429 . S
C790 C773 1.574 . S
C790 H784 0.949 . S
C790 C794 1.368 . S
C791 C772 1.429 . S
C791 C785 1.429 . S
C791 C792 1.523 . S
C792 C773 1.368 . S
C792 C786 1.368 . S
C792 C791 1.523 . S
C793 C777 1.429 . S
C793 C789 1.429 . S
C793 C794 1.523 . S
C794 C778 1.368 . S
C794 C790 1.368 . S
C794 C793 1.523 . S
H795 C770 0.950 . S
H796 C772 0.950 . S
H797 C773 0.949 . S
H798 C775 0.950 . S
H799 C777 0.950 . S
C800 C801 1.349 . S
C800 C802 1.327 . S
C800 H825 0.950 . S
C801 C800 1.349 . S
C801 C817 1.349 . S
C802 C800 1.327 . S
C802 C821 1.429 . S
C802 H826 0.950 . S
C803 C820 1.574 . S
C803 C822 1.368 . S
C803 H827 0.949 . S
H804 C808 0.949 . S
C805 C806 1.349 . S
C805 C807 1.327 . S
C805 H828 0.950 . S
C806 C805 1.349 . S
C806 C818 1.349 . S
C807 C805 1.327 . S
C807 C823 1.429 . S
C807 H829 0.950 . S
C808 H804 0.949 . S
C808 C816 1.574 . S
C808 C824 1.368 . S
H809 C817 0.950 . S
H810 C815 0.950 . S
H811 C816 0.949 . S
H812 C818 0.950 . S
H813 C819 0.950 . S
H814 C820 0.949 . S
C815 H810 0.950 . S
C815 C817 1.327 . S
C815 C821 1.429 . S
C816 C808 1.574 . S
C816 H811 0.949 . S
C816 C822 1.368 . S
C817 C801 1.349 . S
C817 H809 0.950 . S
C817 C815 1.327 . S
C818 C806 1.349 . S
C818 H812 0.950 . S
C818 C819 1.327 . S
C819 H813 0.950 . S
C819 C818 1.327 . S
C819 C823 1.429 . S
C820 C803 1.574 . S
C820 H814 0.949 . S
C820 C824 1.368 . S
C821 C802 1.429 . S
C821 C815 1.429 . S
C821 C822 1.523 . S
C822 C803 1.368 . S
C822 C816 1.368 . S
C822 C821 1.523 . S
C823 C807 1.429 . S
C823 C819 1.429 . S
C823 C824 1.523 . S
C824 C808 1.368 . S
C824 C820 1.368 . S
C824 C823 1.523 . S
H825 C800 0.950 . S
H826 C802 0.950 . S
H827 C803 0.949 . S
H828 C805 0.950 . S
H829 C807 0.950 . S
C830 C831 1.349 . S
C830 C832 1.327 . S
C830 H855 0.950 . S
C831 C830 1.349 . S
C831 C847 1.349 . S
C832 C830 1.327 . S
C832 C851 1.429 . S
C832 H856 0.950 . S
C833 C850 1.574 . S
C833 C852 1.368 . S
C833 H857 0.949 . S
H834 C838 0.949 . S
C835 C836 1.349 . S
C835 C837 1.327 . S
C835 H858 0.950 . S
C836 C835 1.349 . S
C836 C848 1.349 . S
C837 C835 1.327 . S
C837 C853 1.429 . S
C837 H859 0.950 . S
C838 H834 0.949 . S
C838 C846 1.574 . S
C838 C854 1.368 . S
H839 C847 0.950 . S
H840 C845 0.950 . S
H841 C846 0.949 . S
H842 C848 0.950 . S
H843 C849 0.950 . S
H844 C850 0.949 . S
C845 H840 0.950 . S
C845 C847 1.327 . S
C845 C851 1.429 . S
C846 C838 1.574 . S
C846 H841 0.949 . S
C846 C852 1.368 . S
C847 C831 1.349 . S
C847 H839 0.950 . S
C847 C845 1.327 . S
C848 C836 1.349 . S
C848 H842 0.950 . S
C848 C849 1.327 . S
C849 H843 0.950 . S
C849 C848 1.327 . S
C849 C853 1.429 . S
C850 C833 1.574 . S
C850 H844 0.949 . S
C850 C854 1.368 . S
C851 C832 1.429 . S
C851 C845 1.429 . S
C851 C852 1.523 . S
C852 C833 1.368 . S
C852 C846 1.368 . S
C852 C851 1.523 . S
C853 C837 1.429 . S
C853 C849 1.429 . S
C853 C854 1.523 . S
C854 C838 1.368 . S
C854 C850 1.368 . S
C854 C853 1.523 . S
H855 C830 0.950 . S
H856 C832 0.950 . S
H857 C833 0.949 . S
H858 C835 0.950 . S
H859 C837 0.950 . S
C860 C861 1.349 . S
C860 C862 1.327 . S
C860 H885 0.950 . S
C861 C860 1.349 . S
C861 C877 1.349 . S
C862 C860 1.327 . S
C862 C881 1.429 . S
C862 H886 0.950 . S
C863 C880 1.574 . S
C863 C882 1.368 . S
C863 H887 0.949 . S
H864 C868 0.949 . S
C865 C866 1.349 . S
C865 C867 1.327 . S
C865 H888 0.950 . S
C866 C865 1.349 . S
C866 C878 1.349 . S
C867 C865 1.327 . S
C867 C883 1.429 . S
C867 H889 0.950 . S
C868 H864 0.949 . S
C868 C876 1.574 . S
C868 C884 1.368 . S
H869 C877 0.950 . S
H870 C875 0.950 . S
H871 C876 0.949 . S
H872 C878 0.950 . S
H873 C879 0.950 . S
H874 C880 0.949 . S
C875 H870 0.950 . S
C875 C877 1.327 . S
C875 C881 1.429 . S
C876 C868 1.574 . S
C876 H871 0.949 . S
C876 C882 1.368 . S
C877 C861 1.349 . S
C877 H869 0.950 . S
C877 C875 1.327 . S
C878 C866 1.349 . S
C878 H872 0.950 . S
C878 C879 1.327 . S
C879 H873 0.950 . S
C879 C878 1.327 . S
C879 C883 1.429 . S
C880 C863 1.574 . S
C880 H874 0.949 . S
C880 C884 1.368 . S
C881 C862 1.429 . S
C881 C875 1.429 . S
C881 C882 1.523 . S
C882 C863 1.368 . S
C882 C876 1.368 . S
C882 C881 1.523 . S
C883 C867 1.429 . S
C883 C879 1.429 . S
C883 C884 1.523 . S
C884 C868 1.368 . S
C884 C880 1.368 . S
C884 C883 1.523 . S
H885 C860 0.950 . S
H886 C862 0.950 . S
H887 C863 0.949 . S
H888 C865 0.950 . S
H889 C867 0.950 . S
C890 C891 1.349 . S
C890 C892 1.327 . S
C890 H915 0.950 . S
C891 C890 1.349 . S
C891 C907 1.349 . S
C892 C890 1.327 . S
C892 C911 1.429 . S
C892 H916 0.950 . S
C893 C910 1.574 . S
C893 C912 1.368 . S
C893 H917 0.949 . S
H894 C898 0.949 . S
C895 C896 1.349 . S
C895 C897 1.327 . S
C895 H918 0.950 . S
C896 C895 1.349 . S
C896 C908 1.349 . S
C897 C895 1.327 . S
C897 C913 1.429 . S
C897 H919 0.950 . S
C898 H894 0.949 . S
C898 C906 1.574 . S
C898 C914 1.368 . S
H899 C907 0.950 . S
H900 C905 0.950 . S
H901 C906 0.949 . S
H902 C908 0.950 . S
H903 C909 0.950 . S
H904 C910 0.949 . S
C905 H900 0.950 . S
C905 C907 1.327 . S
C905 C911 1.429 . S
C906 C898 1.574 . S
C906 H901 0.949 . S
C906 C912 1.368 . S
C907 C891 1.349 . S
C907 H899 0.950 . S
C907 C905 1.327 . S
C908 C896 1.349 . S
C908 H902 0.950 . S
C908 C909 1.327 . S
C909 H903 0.950 . S
C909 C908 1.327 . S
C909 C913 1.429 . S
C910 C893 1.574 . S
C910 H904 0.949 . S
C910 C914 1.368 . S
C911 C892 1.429 . S
C911 C905 1.429 . S
C911 C912 1.523 . S
C912 C893 1.368 . S
C912 C906 1.368 . S
C912 C911 1.523 . S
C913 C897 1.429 . S
C913 C909 1.429 . S
C913 C914 1.523 . S
C914 C898 1.368 . S
C914 C910 1.368 . S
C914 C913 1.523 . S
H915 C890 0.950 . S
H916 C892 0.950 . S
H917 C893 0.949 . S
H918 C895 0.950 . S
H919 C897 0.950 . S
C920 C921 1.349 . S
C920 C922 1.327 . S
C920 H945 0.950 . S
C921 C920 1.349 . S
C921 C937 1.349 . S
C922 C920 1.327 . S
C922 C941 1.429 . S
C922 H946 0.950 . S
C923 C940 1.574 . S
C923 C942 1.368 . S
C923 H947 0.949 . S
H924 C928 0.949 . S
C925 C926 1.349 . S
C925 C927 1.327 . S
C925 H948 0.950 . S
C926 C925 1.349 . S
C926 C938 1.349 . S
C927 C925 1.327 . S
C927 C943 1.429 . S
C927 H949 0.950 . S
C928 H924 0.949 . S
C928 C936 1.574 . S
C928 C944 1.368 . S
H929 C937 0.950 . S
H930 C935 0.950 . S
H931 C936 0.949 . S
H932 C938 0.950 . S
H933 C939 0.950 . S
H934 C940 0.949 . S
C935 H930 0.950 . S
C935 C937 1.327 . S
C935 C941 1.429 . S
C936 C928 1.574 . S
C936 H931 0.949 . S
C936 C942 1.368 . S
C937 C921 1.349 . S
C937 H929 0.950 . S
C937 C935 1.327 . S
C938 C926 1.349 . S
C938 H932 0.950 . S
C938 C939 1.327 . S
C939 H933 0.950 . S
C939 C938 1.327 . S
C939 C943 1.429 . S
C940 C923 1.574 . S
C940 H934 0.949 . S
C940 C944 1.368 . S
C941 C922 1.429 . S
C941 C935 1.429 . S
C941 C942 1.523 . S
C942 C923 1.368 . S
C942 C936 1.368 . S
C942 C941 1.523 . S
C943 C927 1.429 . S
C943 C939 1.429 . S
C943 C944 1.523 . S
C944 C928 1.368 . S
C944 C940 1.368 . S
C944 C943 1.523 . S
H945 C920 0.950 . S
H946 C922 0.950 . S
H947 C923 0.949 . S
H948 C925 0.950 . S
H949 C927 0.950 . S
C950 C951 1.349 . S
C950 C952 1.327 . S
C950 H975 0.950 . S
C951 C950 1.349 . S
C951 C967 1.349 1_565 S
C952 C950 1.327 . S
C952 C971 1.429 . S
C952 H976 0.950 . S
C953 C970 1.574 . S
C953 C972 1.368 1_545 S
C953 H977 0.949 . S
H954 C958 0.949 . S
C955 C956 1.349 1_545 S
C955 C957 1.327 . S
C955 H978 0.950 . S
C956 C955 1.349 1_565 S
C956 C968 1.349 . S
C957 C955 1.327 . S
C957 C973 1.429 1_545 S
C957 H979 0.950 . S
C958 H954 0.949 . S
C958 C966 1.574 . S
C958 C974 1.368 . S
H959 C967 0.950 . S
H960 C965 0.950 . S
H961 C966 0.949 . S
H962 C968 0.950 . S
H963 C969 0.950 . S
H964 C970 0.949 . S
C965 H960 0.950 . S
C965 C967 1.327 . S
C965 C971 1.429 1_545 S
C966 C958 1.574 . S
C966 H961 0.949 . S
C966 C972 1.368 . S
C967 C951 1.349 1_545 S
C967 H959 0.950 . S
C967 C965 1.327 . S
C968 C956 1.349 . S
C968 H962 0.950 . S
C968 C969 1.327 . S
C969 H963 0.950 . S
C969 C968 1.327 . S
C969 C973 1.429 . S
C970 C953 1.574 . S
C970 H964 0.949 . S
C970 C974 1.368 1_545 S
C971 C952 1.429 . S
C971 C965 1.429 1_565 S
C971 C972 1.523 . S
C972 C953 1.368 1_565 S
C972 C966 1.368 . S
C972 C971 1.523 . S
C973 C957 1.429 1_565 S
C973 C969 1.429 . S
C973 C974 1.523 . S
C974 C958 1.368 . S
C974 C970 1.368 1_565 S
C974 C973 1.523 . S
H975 C950 0.950 . S
H976 C952 0.950 . S
H977 C953 0.949 . S
H978 C955 0.950 . S
H979 C957 0.950 . S
C980 C981 1.349 . S
C980 C982 1.327 . S
C980 H1005 0.950 . S
C981 C980 1.349 . S
C981 C997 1.349 . S
C982 C980 1.327 . S
C982 C1001 1.429 . S
C982 H1006 0.950 . S
C983 C1000 1.574 . S
C983 C1002 1.368 . S
C983 H1007 0.949 . S
H984 C988 0.949 . S
C985 C986 1.349 . S
C985 C987 1.327 . S
C985 H1008 0.950 . S
C986 C985 1.349 . S
C986 C998 1.349 . S
C987 C985 1.327 . S
C987 C1003 1.429 . S
C987 H1009 0.950 . S
C988 H984 0.949 . S
C988 C996 1.574 . S
C988 C1004 1.368 . S
H989 C997 0.950 . S
H990 C995 0.950 . S
H991 C996 0.949 . S
H992 C998 0.950 . S
H993 C999 0.950 . S
H994 C1000 0.949 . S
C995 H990 0.950 . S
C995 C997 1.327 . S
C995 C1001 1.429 . S
C996 C988 1.574 . S
C996 H991 0.949 . S
C996 C1002 1.368 . S
C997 C981 1.349 . S
C997 H989 0.950 . S
C997 C995 1.327 . S
C998 C986 1.349 . S
C998 H992 0.950 . S
C998 C999 1.327 . S
C999 H993 0.950 . S
C999 C998 1.327 . S
C999 C1003 1.429 . S
C1000 C983 1.574 . S
C1000 H994 0.949 . S
C1000 C1004 1.368 . S
C1001 C982 1.429 . S
C1001 C995 1.429 . S
C1001 C1002 1.523 . S
C1002 C983 1.368 . S
C1002 C996 1.368 . S
C1002 C1001 1.523 . S
C1003 C987 1.429 . S
C1003 C999 1.429 . S
C1003 C1004 1.523 . S
C1004 C988 1.368 . S
C1004 C1000 1.368 . S
C1004 C1003 1.523 . S
H1005 C980 0.950 . S
H1006 C982 0.950 . S
H1007 C983 0.949 . S
H1008 C985 0.950 . S
H1009 C987 0.950 . S
C1010 C1011 1.349 1_565 S
C1010 C1012 1.327 . S
C1010 H1035 0.950 . S
C1011 C1010 1.349 1_545 S
C1011 C1027 1.349 . S
C1012 C1010 1.327 . S
C1012 C1031 1.429 1_565 S
C1012 H1036 0.950 . S
C1013 C1030 1.574 . S
C1013 C1032 1.368 . S
C1013 H1037 0.949 . S
H1014 C1018 0.949 . S
C1015 C1016 1.349 . S
C1015 C1017 1.327 . S
C1015 H1038 0.950 . S
C1016 C1015 1.349 . S
C1016 C1028 1.349 1_545 S
C1017 C1015 1.327 . S
C1017 C1033 1.429 . S
C1017 H1039 0.950 . S
C1018 H1014 0.949 . S
C1018 C1026 1.574 . S
C1018 C1034 1.368 1_565 S
H1019 C1027 0.950 . S
H1020 C1025 0.950 . S
H1021 C1026 0.949 . S
H1022 C1028 0.950 . S
H1023 C1029 0.950 . S
H1024 C1030 0.949 . S
C1025 H1020 0.950 . S
C1025 C1027 1.327 . S
C1025 C1031 1.429 . S
C1026 C1018 1.574 . S
C1026 H1021 0.949 . S
C1026 C1032 1.368 1_565 S
C1027 C1011 1.349 . S
C1027 H1019 0.950 . S
C1027 C1025 1.327 . S
C1028 C1016 1.349 1_565 S
C1028 H1022 0.950 . S
C1028 C1029 1.327 . S
C1029 H1023 0.950 . S
C1029 C1028 1.327 . S
C1029 C1033 1.429 1_565 S
C1030 C1013 1.574 . S
C1030 H1024 0.949 . S
C1030 C1034 1.368 . S
C1031 C1012 1.429 1_545 S
C1031 C1025 1.429 . S
C1031 C1032 1.523 . S
C1032 C1013 1.368 . S
C1032 C1026 1.368 1_545 S
C1032 C1031 1.523 . S
C1033 C1017 1.429 . S
C1033 C1029 1.429 1_545 S
C1033 C1034 1.523 . S
C1034 C1018 1.368 1_545 S
C1034 C1030 1.368 . S
C1034 C1033 1.523 . S
H1035 C1010 0.950 . S
H1036 C1012 0.950 . S
H1037 C1013 0.949 . S
H1038 C1015 0.950 . S
H1039 C1017 0.950 . S
C1040 C1041 1.349 . S
C1040 C1042 1.327 . S
C1040 H1065 0.950 . S
C1041 C1040 1.349 . S
C1041 C1057 1.349 . S
C1042 C1040 1.327 . S
C1042 C1061 1.429 . S
C1042 H1066 0.950 . S
C1043 C1060 1.574 . S
C1043 C1062 1.368 . S
C1043 H1067 0.949 . S
H1044 C1048 0.949 . S
C1045 C1046 1.349 . S
C1045 C1047 1.327 . S
C1045 H1068 0.950 . S
C1046 C1045 1.349 . S
C1046 C1058 1.349 . S
C1047 C1045 1.327 . S
C1047 C1063 1.429 . S
C1047 H1069 0.950 . S
C1048 H1044 0.949 . S
C1048 C1056 1.574 . S
C1048 C1064 1.368 . S
H1049 C1057 0.950 . S
H1050 C1055 0.950 . S
H1051 C1056 0.949 . S
H1052 C1058 0.950 . S
H1053 C1059 0.950 . S
H1054 C1060 0.949 . S
C1055 H1050 0.950 . S
C1055 C1057 1.327 . S
C1055 C1061 1.429 . S
C1056 C1048 1.574 . S
C1056 H1051 0.949 . S
C1056 C1062 1.368 . S
C1057 C1041 1.349 . S
C1057 H1049 0.950 . S
C1057 C1055 1.327 . S
C1058 C1046 1.349 . S
C1058 H1052 0.950 . S
C1058 C1059 1.327 . S
C1059 H1053 0.950 . S
C1059 C1058 1.327 . S
C1059 C1063 1.429 . S
C1060 C1043 1.574 . S
C1060 H1054 0.949 . S
C1060 C1064 1.368 . S
C1061 C1042 1.429 . S
C1061 C1055 1.429 . S
C1061 C1062 1.523 . S
C1062 C1043 1.368 . S
C1062 C1056 1.368 . S
C1062 C1061 1.523 . S
C1063 C1047 1.429 . S
C1063 C1059 1.429 . S
C1063 C1064 1.523 . S
C1064 C1048 1.368 . S
C1064 C1060 1.368 . S
C1064 C1063 1.523 . S
H1065 C1040 0.950 . S
H1066 C1042 0.950 . S
H1067 C1043 0.949 . S
H1068 C1045 0.950 . S
H1069 C1047 0.950 . S
C1070 C1071 1.349 . S
C1070 C1072 1.327 . S
C1070 H1095 0.950 . S
C1071 C1070 1.349 . S
C1071 C1087 1.349 1_556 S
C1072 C1070 1.327 . S
C1072 C1091 1.429 . S
C1072 H1096 0.950 . S
C1073 C1090 1.574 . S
C1073 C1092 1.368 1_554 S
C1073 H1097 0.949 . S
H1074 C1078 0.949 . S
C1075 C1076 1.349 . S
C1075 C1077 1.337 . S
C1075 H1098 0.950 1_556 S
C1076 C1075 1.349 . S
C1076 C1088 1.349 . S
C1077 C1075 1.337 . S
C1077 C1093 1.450 . S
C1077 H1099 0.919 1_556 S
C1078 H1074 0.949 . S
C1078 C1086 1.574 . S
C1078 C1094 1.368 . S
H1079 C1087 0.950 . S
H1080 C1085 0.950 . S
H1081 C1086 0.949 . S
H1082 C1088 0.950 . S
H1083 C1089 0.950 . S
H1084 C1090 0.949 . S
C1085 H1080 0.950 . S
C1085 C1087 1.327 . S
C1085 C1091 1.429 1_554 S
C1086 C1078 1.574 . S
C1086 H1081 0.949 . S
C1086 C1092 1.368 . S
C1087 C1071 1.349 1_554 S
C1087 H1079 0.950 . S
C1087 C1085 1.327 . S
C1088 C1076 1.349 . S
C1088 H1082 0.950 . S
C1088 C1089 1.327 . S
C1089 H1083 0.950 . S
C1089 C1088 1.327 . S
C1089 C1093 1.429 . S
C1090 C1073 1.574 . S
C1090 H1084 0.949 . S
C1090 C1094 1.368 1_554 S
C1091 C1072 1.429 . S
C1091 C1085 1.429 1_556 S
C1091 C1092 1.523 . S
C1092 C1073 1.368 1_556 S
C1092 C1086 1.368 . S
C1092 C1091 1.523 . S
C1093 C1077 1.450 . S
C1093 C1089 1.429 . S
C1093 C1094 1.523 . S
C1094 C1078 1.368 . S
C1094 C1090 1.368 1_556 S
C1094 C1093 1.523 . S
H1095 C1070 0.950 . S
H1096 C1072 0.950 . S
H1097 C1073 0.949 . S
H1098 C1075 0.950 1_554 S
H1099 C1077 0.919 1_554 S
C1100 C1101 1.349 1_554 S
C1100 C1102 1.328 . S
C1100 H1125 0.950 . S
C1101 C1100 1.349 1_556 S
C1101 C1117 1.349 . S
C1102 C1100 1.328 . S
C1102 C1121 1.401 1_554 S
C1102 H1126 0.978 . S
C1103 C1120 1.574 . S
C1103 C1122 1.368 . S
C1103 H1127 0.949 . S
H1104 C1108 0.949 1_554 S
C1105 C1106 1.349 . S
C1105 C1107 1.327 . S
C1105 H1128 0.950 . S
C1106 C1105 1.349 . S
C1106 C1118 1.349 . S
C1107 C1105 1.327 . S
C1107 C1123 1.429 . S
C1107 H1129 0.950 . S
C1108 H1104 0.949 1_556 S
C1108 C1116 1.574 . S
C1108 C1124 1.368 . S
H1109 C1117 0.950 . S
H1110 C1115 0.950 . S
H1111 C1116 0.949 1_554 S
H1112 C1118 0.950 . S
H1113 C1119 0.950 . S
H1114 C1120 0.949 . S
C1115 H1110 0.950 . S
C1115 C1117 1.327 . S
C1115 C1121 1.429 . S
C1116 C1108 1.574 . S
C1116 H1111 0.949 1_556 S
C1116 C1122 1.368 . S
C1117 C1101 1.349 . S
C1117 H1109 0.950 . S
C1117 C1115 1.327 . S
C1118 C1106 1.349 . S
C1118 H1112 0.950 . S
C1118 C1119 1.327 . S
C1119 H1113 0.950 . S
C1119 C1118 1.327 . S
C1119 C1123 1.429 . S
C1120 C1103 1.574 . S
C1120 H1114 0.949 . S
C1120 C1124 1.368 . S
C1121 C1102 1.401 1_556 S
C1121 C1115 1.429 . S
C1121 C1122 1.523 . S
C1122 C1103 1.368 . S
C1122 C1116 1.368 . S
C1122 C1121 1.523 . S
C1123 C1107 1.429 . S
C1123 C1119 1.429 . S
C1123 C1124 1.523 . S
C1124 C1108 1.368 . S
C1124 C1120 1.368 . S
C1124 C1123 1.523 . S
H1125 C1100 0.950 . S
H1126 C1102 0.978 . S
H1127 C1103 0.949 . S
H1128 C1105 0.950 . S
H1129 C1107 0.950 . S
C1130 C1131 1.349 . S
C1130 C1132 1.327 . S
C1130 H1155 0.950 1_554 S
C1131 C1130 1.349 . S
C1131 C1147 1.349 . S
C1132 C1130 1.327 . S
C1132 C1151 1.429 . S
C1132 H1156 0.950 1_554 S
C1133 C1150 1.574 . S
C1133 C1152 1.368 . S
C1133 H1157 0.949 . S
H1134 C1138 0.949 1_556 S
C1135 C1136 1.349 . S
C1135 C1137 1.327 . S
C1135 H1158 0.950 . S
C1136 C1135 1.349 . S
C1136 C1148 1.349 . S
C1137 C1135 1.327 . S
C1137 C1153 1.429 . S
C1137 H1159 0.950 . S
C1138 H1134 0.949 1_554 S
C1138 C1146 1.574 . S
C1138 C1154 1.368 . S
H1139 C1147 0.950 . S
H1140 C1145 0.950 . S
H1141 C1146 0.949 1_556 S
H1142 C1148 0.940 1_455 S
H1143 C1149 0.945 . S
H1144 C1150 0.949 . S
C1145 H1140 0.950 . S
C1145 C1147 1.327 . S
C1145 C1151 1.429 . S
C1146 C1138 1.574 . S
C1146 H1141 0.949 1_554 S
C1146 C1152 1.368 . S
C1147 C1131 1.349 . S
C1147 H1139 0.950 . S
C1147 C1145 1.327 . S
C1148 C1136 1.349 . S
C1148 H1142 0.940 1_655 S
C1148 C1149 1.327 . S
C1149 H1143 0.945 . S
C1149 C1148 1.327 . S
C1149 C1153 1.429 . S
C1150 C1133 1.574 . S
C1150 H1144 0.949 . S
C1150 C1154 1.368 . S
C1151 C1132 1.429 . S
C1151 C1145 1.429 . S
C1151 C1152 1.523 . S
C1152 C1133 1.368 . S
C1152 C1146 1.368 . S
C1152 C1151 1.523 . S
C1153 C1137 1.429 . S
C1153 C1149 1.429 . S
C1153 C1154 1.523 . S
C1154 C1138 1.368 . S
C1154 C1150 1.368 . S
C1154 C1153 1.523 . S
H1155 C1130 0.950 1_556 S
H1156 C1132 0.950 1_556 S
H1157 C1133 0.949 . S
H1158 C1135 0.950 . S
H1159 C1137 0.950 . S
C1160 C1161 1.349 . S
C1160 C1162 1.327 . S
C1160 H1185 0.950 . S
C1161 C1160 1.349 . S
C1161 C1177 1.349 1_455 S
C1162 C1160 1.327 . S
C1162 C1181 1.429 . S
C1162 H1186 0.950 . S
C1163 C1180 1.574 . S
C1163 C1182 1.368 1_655 S
C1163 H1187 0.949 . S
H1164 C1168 0.949 . S
C1165 C1166 1.349 1_655 S
C1165 C1167 1.327 . S
C1165 H1188 0.950 . S
C1166 C1165 1.349 1_455 S
C1166 C1178 1.349 . S
C1167 C1165 1.327 . S
C1167 C1183 1.429 1_655 S
C1167 H1189 0.950 . S
C1168 H1164 0.949 . S
C1168 C1176 1.574 . S
C1168 C1184 1.368 . S
H1169 C1177 0.950 . S
H1170 C1175 0.950 . S
H1171 C1176 0.949 . S
H1172 C1178 0.950 . S
H1173 C1179 0.950 . S
H1174 C1180 0.949 . S
C1175 H1170 0.950 . S
C1175 C1177 1.327 . S
C1175 C1181 1.429 1_655 S
C1176 C1168 1.574 . S
C1176 H1171 0.949 . S
C1176 C1182 1.368 . S
C1177 C1161 1.349 1_655 S
C1177 H1169 0.950 . S
C1177 C1175 1.327 . S
C1178 C1166 1.349 . S
C1178 H1172 0.950 . S
C1178 C1179 1.327 . S
C1179 H1173 0.950 . S
C1179 C1178 1.327 . S
C1179 C1183 1.429 . S
C1180 C1163 1.574 . S
C1180 H1174 0.949 . S
C1180 C1184 1.368 1_655 S
C1181 C1162 1.429 . S
C1181 C1175 1.429 1_455 S
C1181 C1182 1.523 . S
C1182 C1163 1.368 1_455 S
C1182 C1176 1.368 . S
C1182 C1181 1.523 . S
C1183 C1167 1.429 1_455 S
C1183 C1179 1.429 . S
C1183 C1184 1.523 . S
C1184 C1168 1.368 . S
C1184 C1180 1.368 1_455 S
C1184 C1183 1.523 . S
H1185 C1160 0.950 . S
H1186 C1162 0.950 . S
H1187 C1163 0.949 . S
H1188 C1165 0.950 . S
H1189 C1167 0.950 . S
C1190 C1191 1.349 . S
C1190 C1192 1.327 . S
C1190 H1215 0.950 . S
C1191 C1190 1.349 . S
C1191 C1207 1.349 1_655 S
C1192 C1190 1.327 . S
C1192 C1211 1.429 . S
C1192 H1216 0.950 . S
C1193 C1210 1.574 . S
C1193 C1212 1.368 1_455 S
C1193 H1217 0.949 . S
H1194 C1198 0.949 . S
C1195 C1196 1.349 1_455 S
C1195 C1197 1.327 . S
C1195 H1218 0.950 . S
C1196 C1195 1.349 1_655 S
C1196 C1208 1.349 . S
C1197 C1195 1.327 . S
C1197 C1213 1.429 1_455 S
C1197 H1219 0.950 . S
C1198 H1194 0.949 . S
C1198 C1206 1.574 . S
C1198 C1214 1.368 . S
H1199 C1207 0.950 . S
H1200 C1205 0.950 . S
H1201 C1206 0.949 . S
H1202 C1208 0.950 . S
H1203 C1209 0.950 . S
H1204 C1210 0.949 . S
C1205 H1200 0.950 . S
C1205 C1207 1.327 . S
C1205 C1211 1.429 1_455 S
C1206 C1198 1.574 . S
C1206 H1201 0.949 . S
C1206 C1212 1.368 . S
C1207 C1191 1.349 1_455 S
C1207 H1199 0.950 . S
C1207 C1205 1.327 . S
C1208 C1196 1.349 . S
C1208 H1202 0.950 . S
C1208 C1209 1.327 . S
C1209 H1203 0.950 . S
C1209 C1208 1.327 . S
C1209 C1213 1.429 . S
C1210 C1193 1.574 . S
C1210 H1204 0.949 . S
C1210 C1214 1.368 1_455 S
C1211 C1192 1.429 . S
C1211 C1205 1.429 1_655 S
C1211 C1212 1.523 . S
C1212 C1193 1.368 1_655 S
C1212 C1206 1.368 . S
C1212 C1211 1.523 . S
C1213 C1197 1.429 1_655 S
C1213 C1209 1.429 . S
C1213 C1214 1.523 . S
C1214 C1198 1.368 . S
C1214 C1210 1.368 1_655 S
C1214 C1213 1.523 . S
H1215 C1190 0.950 . S
H1216 C1192 0.950 . S
H1217 C1193 0.949 . S
H1218 C1195 0.950 . S
H1219 C1197 0.950 . S
C1220 C1221 1.349 1_655 S
C1220 C1222 1.327 . S
C1220 H1245 0.950 . S
C1221 C1220 1.349 1_455 S
C1221 C1237 1.349 . S
C1222 C1220 1.327 . S
C1222 C1241 1.429 1_655 S
C1222 H1246 0.950 . S
C1223 C1240 1.574 . S
C1223 C1242 1.368 . S
C1223 H1247 0.949 . S
H1224 C1228 0.949 . S
C1225 C1226 1.349 . S
C1225 C1227 1.327 . S
C1225 H1248 0.950 . S
C1226 C1225 1.349 . S
C1226 C1238 1.363 . S
C1227 C1225 1.327 . S
C1227 C1243 1.429 . S
C1227 H1249 0.950 . S
C1228 H1224 0.949 . S
C1228 C1236 1.574 . S
C1228 C1244 1.368 1_655 S
H1229 C1237 0.950 . S
H1230 C1235 0.950 . S
H1231 C1236 0.949 . S
H1232 C1238 0.938 1_655 S
H1233 C1239 0.950 . S
H1234 C1240 0.949 . S
C1235 H1230 0.950 . S
C1235 C1237 1.327 . S
C1235 C1241 1.429 . S
C1236 C1228 1.574 . S
C1236 H1231 0.949 . S
C1236 C1242 1.368 1_655 S
C1237 C1221 1.349 . S
C1237 H1229 0.950 . S
C1237 C1235 1.327 . S
C1238 C1226 1.363 . S
C1238 H1232 0.938 1_455 S
C1238 C1239 1.325 1_455 S
C1239 H1233 0.950 . S
C1239 C1238 1.325 1_655 S
C1239 C1243 1.429 1_655 S
C1240 C1223 1.574 . S
C1240 H1234 0.949 . S
C1240 C1244 1.368 . S
C1241 C1222 1.429 1_455 S
C1241 C1235 1.429 . S
C1241 C1242 1.523 . S
C1242 C1223 1.368 . S
C1242 C1236 1.368 1_455 S
C1242 C1241 1.523 . S
C1243 C1227 1.429 . S
C1243 C1239 1.429 1_455 S
C1243 C1244 1.523 . S
C1244 C1228 1.368 1_455 S
C1244 C1240 1.368 . S
C1244 C1243 1.523 . S
H1245 C1220 0.950 . S
H1246 C1222 0.950 . S
H1247 C1223 0.949 . S
H1248 C1225 0.950 . S
H1249 C1227 0.950 . S
C1250 C1251 1.349 1_455 S
C1250 C1252 1.327 . S
C1250 H1275 0.950 . S
C1251 C1250 1.349 1_655 S
C1251 C1267 1.349 . S
C1252 C1250 1.327 . S
C1252 C1271 1.429 1_455 S
C1252 H1276 0.950 . S
C1253 C1270 1.574 . S
C1253 C1272 1.368 . S
C1253 H1277 0.949 . S
H1254 C1258 0.949 . S
C1255 C1256 1.349 . S
C1255 C1257 1.327 . S
C1255 H1278 0.950 . S
C1256 C1255 1.349 . S
C1256 C1268 1.349 . S
C1257 C1255 1.327 . S
C1257 C1273 1.429 . S
C1257 H1279 0.950 . S
C1258 H1254 0.949 . S
C1258 C1266 1.574 . S
C1258 C1274 1.368 1_455 S
H1259 C1267 0.950 . S
H1260 C1265 0.950 . S
H1261 C1266 0.949 . S
H1262 C1268 0.950 1_455 S
H1263 C1269 0.950 1_455 S
H1264 C1270 0.949 . S
C1265 H1260 0.950 . S
C1265 C1267 1.327 . S
C1265 C1271 1.429 . S
C1266 C1258 1.574 . S
C1266 H1261 0.949 . S
C1266 C1272 1.368 1_455 S
C1267 C1251 1.349 . S
C1267 H1259 0.950 . S
C1267 C1265 1.327 . S
C1268 C1256 1.349 . S
C1268 H1262 0.950 1_655 S
C1268 C1269 1.327 . S
C1269 H1263 0.950 1_655 S
C1269 C1268 1.327 . S
C1269 C1273 1.429 . S
C1270 C1253 1.574 . S
C1270 H1264 0.949 . S
C1270 C1274 1.368 . S
C1271 C1252 1.429 1_655 S
C1271 C1265 1.429 . S
C1271 C1272 1.523 . S
C1272 C1253 1.368 . S
C1272 C1266 1.368 1_655 S
C1272 C1271 1.523 . S
C1273 C1257 1.429 . S
C1273 C1269 1.429 . S
C1273 C1274 1.523 . S
C1274 C1258 1.368 1_655 S
C1274 C1270 1.368 . S
C1274 C1273 1.523 . S
H1275 C1250 0.950 . S
H1276 C1252 0.950 . S
H1277 C1253 0.949 . S
H1278 C1255 0.950 . S
H1279 C1257 0.950 . S
C1280 C1281 1.349 . S
C1280 C1282 1.327 . S
C1280 H1305 0.950 . S
C1281 C1280 1.349 . S
C1281 C1297 1.366 . S
C1282 C1280 1.327 . S
C1282 C1301 1.429 . S
C1282 H1306 0.950 . S
C1283 C1300 1.574 . S
C1283 C1302 1.368 . S
C1283 H1307 0.949 1_545 S
H1284 C1288 0.949 . S
C1285 C1286 1.349 . S
C1285 C1287 1.327 . S
C1285 H1308 0.931 1_545 S
C1286 C1285 1.349 . S
C1286 C1298 1.349 . S
C1287 C1285 1.327 . S
C1287 C1303 1.429 . S
C1287 H1309 0.950 1_545 S
C1288 H1284 0.949 . S
C1288 C1296 1.574 . S
C1288 C1304 1.368 . S
H1289 C1297 0.933 1_565 S
H1290 C1295 0.950 1_565 S
H1291 C1296 0.949 . S
H1292 C1298 0.950 . S
H1293 C1299 0.950 . S
H1294 C1300 0.949 1_565 S
C1295 H1290 0.950 1_545 S
C1295 C1297 1.327 . S
C1295 C1301 1.429 . S
C1296 C1288 1.574 . S
C1296 H1291 0.949 . S
C1296 C1302 1.368 . S
C1297 C1281 1.366 . S
C1297 H1289 0.933 1_545 S
C1297 C1295 1.327 . S
C1298 C1286 1.349 . S
C1298 H1292 0.950 . S
C1298 C1299 1.327 . S
C1299 H1293 0.950 . S
C1299 C1298 1.327 . S
C1299 C1303 1.429 . S
C1300 C1283 1.574 . S
C1300 H1294 0.949 1_545 S
C1300 C1304 1.368 . S
C1301 C1282 1.429 . S
C1301 C1295 1.429 . S
C1301 C1302 1.523 . S
C1302 C1283 1.368 . S
C1302 C1296 1.368 . S
C1302 C1301 1.523 . S
C1303 C1287 1.429 . S
C1303 C1299 1.429 . S
C1303 C1304 1.523 . S
C1304 C1288 1.368 . S
C1304 C1300 1.368 . S
C1304 C1303 1.523 . S
H1305 C1280 0.950 . S
H1306 C1282 0.950 . S
H1307 C1283 0.949 1_565 S
H1308 C1285 0.931 1_565 S
H1309 C1287 0.950 1_565 S
C1310 C1311 1.349 . S
C1310 C1312 1.327 . S
C1310 H1335 0.950 . S
C1311 C1310 1.349 . S
C1311 C1327 1.349 . S
C1312 C1310 1.327 . S
C1312 C1331 1.429 . S
C1312 H1336 0.950 . S
C1313 C1330 1.574 . S
C1313 C1332 1.368 . S
C1313 H1337 0.949 . S
H1314 C1318 0.949 . S
C1315 C1316 1.349 . S
C1315 C1317 1.327 . S
C1315 H1338 0.950 . S
C1316 C1315 1.349 . S
C1316 C1328 1.349 . S
C1317 C1315 1.327 . S
C1317 C1333 1.429 . S
C1317 H1339 0.950 . S
C1318 H1314 0.949 . S
C1318 C1326 1.574 . S
C1318 C1334 1.368 . S
H1319 C1327 0.950 . S
H1320 C1325 0.950 . S
H1321 C1326 0.949 . S
H1322 C1328 0.950 . S
H1323 C1329 0.950 . S
H1324 C1330 0.949 . S
C1325 H1320 0.950 . S
C1325 C1327 1.327 . S
C1325 C1331 1.429 . S
C1326 C1318 1.574 . S
C1326 H1321 0.949 . S
C1326 C1332 1.368 . S
C1327 C1311 1.349 . S
C1327 H1319 0.950 . S
C1327 C1325 1.327 . S
C1328 C1316 1.349 . S
C1328 H1322 0.950 . S
C1328 C1329 1.327 . S
C1329 H1323 0.950 . S
C1329 C1328 1.327 . S
C1329 C1333 1.429 . S
C1330 C1313 1.574 . S
C1330 H1324 0.949 . S
C1330 C1334 1.368 . S
C1331 C1312 1.429 . S
C1331 C1325 1.429 . S
C1331 C1332 1.523 . S
C1332 C1313 1.368 . S
C1332 C1326 1.368 . S
C1332 C1331 1.523 . S
C1333 C1317 1.429 . S
C1333 C1329 1.429 . S
C1333 C1334 1.523 . S
C1334 C1318 1.368 . S
C1334 C1330 1.368 . S
C1334 C1333 1.523 . S
H1335 C1310 0.950 . S
H1336 C1312 0.950 . S
H1337 C1313 0.949 . S
H1338 C1315 0.950 . S
H1339 C1317 0.950 . S
C1340 C1341 1.349 . S
C1340 C1342 1.327 . S
C1340 H1365 0.950 . S
C1341 C1340 1.349 . S
C1341 C1357 1.349 1_565 S
C1342 C1340 1.327 . S
C1342 C1361 1.429 . S
C1342 H1366 0.950 . S
C1343 C1360 1.574 . S
C1343 C1362 1.368 . S
C1343 H1367 0.949 1_565 S
H1344 C1348 0.949 . S
C1345 C1346 1.349 . S
C1345 C1347 1.327 . S
C1345 H1368 0.950 . S
C1346 C1345 1.349 . S
C1346 C1358 1.349 . S
C1347 C1345 1.327 . S
C1347 C1363 1.429 . S
C1347 H1369 0.950 . S
C1348 H1344 0.949 . S
C1348 C1356 1.574 . S
C1348 C1364 1.368 . S
H1349 C1357 0.950 . S
H1350 C1355 0.950 . S
H1351 C1356 0.949 . S
H1352 C1358 0.950 . S
H1353 C1359 0.950 . S
H1354 C1360 0.949 . S
C1355 H1350 0.950 . S
C1355 C1357 1.327 . S
C1355 C1361 1.429 1_545 S
C1356 C1348 1.574 . S
C1356 H1351 0.949 . S
C1356 C1362 1.368 . S
C1357 C1341 1.349 1_545 S
C1357 H1349 0.950 . S
C1357 C1355 1.327 . S
C1358 C1346 1.349 . S
C1358 H1352 0.950 . S
C1358 C1359 1.327 . S
C1359 H1353 0.950 . S
C1359 C1358 1.327 . S
C1359 C1363 1.429 . S
C1360 C1343 1.574 . S
C1360 H1354 0.949 . S
C1360 C1364 1.368 . S
C1361 C1342 1.429 . S
C1361 C1355 1.429 1_565 S
C1361 C1362 1.523 . S
C1362 C1343 1.368 . S
C1362 C1356 1.368 . S
C1362 C1361 1.523 . S
C1363 C1347 1.429 . S
C1363 C1359 1.429 . S
C1363 C1364 1.523 . S
C1364 C1348 1.368 . S
C1364 C1360 1.368 . S
C1364 C1363 1.523 . S
H1365 C1340 0.950 . S
H1366 C1342 0.950 . S
H1367 C1343 0.949 1_545 S
H1368 C1345 0.950 . S
H1369 C1347 0.950 . S
C1370 C1371 1.349 . S
C1370 C1372 1.327 . S
C1370 H1395 0.950 . S
C1371 C1370 1.349 . S
C1371 C1387 1.349 . S
C1372 C1370 1.327 . S
C1372 C1391 1.429 . S
C1372 H1396 0.950 . S
C1373 C1390 1.574 . S
C1373 C1392 1.368 . S
C1373 H1397 0.949 . S
H1374 C1378 0.949 . S
C1375 C1376 1.349 . S
C1375 C1377 1.327 . S
C1375 H1398 0.950 . S
C1376 C1375 1.349 . S
C1376 C1388 1.349 . S
C1377 C1375 1.327 . S
C1377 C1393 1.429 . S
C1377 H1399 0.950 . S
C1378 H1374 0.949 . S
C1378 C1386 1.574 . S
C1378 C1394 1.368 . S
H1379 C1387 0.950 . S
H1380 C1385 0.950 . S
H1381 C1386 0.949 . S
H1382 C1388 0.950 . S
H1383 C1389 0.950 . S
H1384 C1390 0.949 . S
C1385 H1380 0.950 . S
C1385 C1387 1.327 . S
C1385 C1391 1.429 . S
C1386 C1378 1.574 . S
C1386 H1381 0.949 . S
C1386 C1392 1.368 . S
C1387 C1371 1.349 . S
C1387 H1379 0.950 . S
C1387 C1385 1.327 . S
C1388 C1376 1.349 . S
C1388 H1382 0.950 . S
C1388 C1389 1.327 . S
C1389 H1383 0.950 . S
C1389 C1388 1.327 . S
C1389 C1393 1.429 . S
C1390 C1373 1.574 . S
C1390 H1384 0.949 . S
C1390 C1394 1.368 . S
C1391 C1372 1.429 . S
C1391 C1385 1.429 . S
C1391 C1392 1.523 . S
C1392 C1373 1.368 . S
C1392 C1386 1.368 . S
C1392 C1391 1.523 . S
C1393 C1377 1.429 . S
C1393 C1389 1.429 . S
C1393 C1394 1.523 . S
C1394 C1378 1.368 . S
C1394 C1390 1.368 . S
C1394 C1393 1.523 . S
H1395 C1370 0.950 . S
H1396 C1372 0.950 . S
H1397 C1373 0.949 . S
H1398 C1375 0.950 . S
H1399 C1377 0.950 . S
C1400 C1401 1.349 . S
C1400 C1402 1.327 . S
C1400 H1425 0.950 . S
C1401 C1400 1.349 . S
C1401 C1417 1.349 1_554 S
C1402 C1400 1.327 . S
C1402 C1421 1.429 . S
C1402 H1426 0.950 . S
C1403 C1420 1.574 . S
C1403 C1422 1.368 . S
C1403 H1427 0.949 1_554 S
H1404 C1408 0.949 . S
C1405 C1406 1.349 . S
C1405 C1407 1.327 . S
C1405 H1428 0.950 . S
C1406 C1405 1.349 . S
C1406 C1418 1.349 . S
C1407 C1405 1.327 . S
C1407 C1423 1.429 . S
C1407 H1429 0.950 . S
C1408 H1404 0.949 . S
C1408 C1416 1.574 . S
C1408 C1424 1.368 . S
H1409 C1417 0.950 . S
H1410 C1415 0.968 . S
H1411 C1416 0.949 . S
H1412 C1418 0.950 . S
H1413 C1419 0.950 . S
H1414 C1420 0.949 1_556 S
C1415 H1410 0.968 . S
C1415 C1417 1.327 . S
C1415 C1421 1.411 1_556 S
C1416 C1408 1.574 . S
C1416 H1411 0.949 . S
C1416 C1422 1.368 . S
C1417 C1401 1.349 1_556 S
C1417 H1409 0.950 . S
C1417 C1415 1.327 . S
C1418 C1406 1.349 . S
C1418 H1412 0.950 . S
C1418 C1419 1.327 . S
C1419 H1413 0.950 . S
C1419 C1418 1.327 . S
C1419 C1423 1.429 . S
C1420 C1403 1.574 . S
C1420 H1414 0.949 1_554 S
C1420 C1424 1.368 . S
C1421 C1402 1.429 . S
C1421 C1415 1.411 1_554 S
C1421 C1422 1.523 . S
C1422 C1403 1.368 . S
C1422 C1416 1.368 . S
C1422 C1421 1.523 . S
C1423 C1407 1.429 . S
C1423 C1419 1.429 . S
C1423 C1424 1.523 . S
C1424 C1408 1.368 . S
C1424 C1420 1.368 . S
C1424 C1423 1.523 . S
H1425 C1400 0.950 . S
H1426 C1402 0.950 . S
H1427 C1403 0.949 1_556 S
H1428 C1405 0.950 . S
H1429 C1407 0.950 . S
C1430 C1431 1.349 . S
C1430 C1432 1.327 . S
C1430 H1455 0.950 . S
C1431 C1430 1.349 . S
C1431 C1447 1.349 . S
C1432 C1430 1.327 . S
C1432 C1451 1.429 . S
C1432 H1456 0.950 . S
C1433 C1450 1.574 . S
C1433 C1452 1.368 . S
C1433 H1457 0.949 . S
H1434 C1438 0.949 . S
C1435 C1436 1.349 . S
C1435 C1437 1.327 . S
C1435 H1458 0.950 . S
C1436 C1435 1.349 . S
C1436 C1448 1.349 . S
C1437 C1435 1.327 . S
C1437 C1453 1.429 . S
C1437 H1459 0.950 . S
C1438 H1434 0.949 . S
C1438 C1446 1.574 . S
C1438 C1454 1.368 . S
H1439 C1447 0.950 . S
H1440 C1445 0.950 . S
H1441 C1446 0.949 . S
H1442 C1448 0.950 . S
H1443 C1449 0.950 . S
H1444 C1450 0.949 . S
C1445 H1440 0.950 . S
C1445 C1447 1.327 . S
C1445 C1451 1.429 . S
C1446 C1438 1.574 . S
C1446 H1441 0.949 . S
C1446 C1452 1.368 . S
C1447 C1431 1.349 . S
C1447 H1439 0.950 . S
C1447 C1445 1.327 . S
C1448 C1436 1.349 . S
C1448 H1442 0.950 . S
C1448 C1449 1.327 . S
C1449 H1443 0.950 . S
C1449 C1448 1.327 . S
C1449 C1453 1.429 . S
C1450 C1433 1.574 . S
C1450 H1444 0.949 . S
C1450 C1454 1.368 . S
C1451 C1432 1.429 . S
C1451 C1445 1.429 . S
C1451 C1452 1.523 . S
C1452 C1433 1.368 . S
C1452 C1446 1.368 . S
C1452 C1451 1.523 . S
C1453 C1437 1.429 . S
C1453 C1449 1.429 . S
C1453 C1454 1.523 . S
C1454 C1438 1.368 . S
C1454 C1450 1.368 . S
C1454 C1453 1.523 . S
H1455 C1430 0.950 . S
H1456 C1432 0.950 . S
H1457 C1433 0.949 . S
H1458 C1435 0.950 . S
H1459 C1437 0.950 . S
C1460 C1461 1.349 . S
C1460 C1462 1.327 . S
C1460 H1485 0.950 . S
C1461 C1460 1.349 . S
C1461 C1477 1.349 . S
C1462 C1460 1.327 . S
C1462 C1481 1.429 . S
C1462 H1486 0.950 . S
C1463 C1480 1.574 . S
C1463 C1482 1.368 . S
C1463 H1487 0.949 . S
H1464 C1468 0.949 . S
C1465 C1466 1.349 . S
C1465 C1467 1.327 . S
C1465 H1488 0.950 . S
C1466 C1465 1.349 . S
C1466 C1478 1.349 . S
C1467 C1465 1.327 . S
C1467 C1483 1.429 . S
C1467 H1489 0.950 . S
C1468 H1464 0.949 . S
C1468 C1476 1.574 . S
C1468 C1484 1.368 . S
H1469 C1477 0.950 . S
H1470 C1475 0.950 . S
H1471 C1476 0.949 . S
H1472 C1478 0.950 . S
H1473 C1479 0.950 . S
H1474 C1480 0.949 . S
C1475 H1470 0.950 . S
C1475 C1477 1.327 . S
C1475 C1481 1.429 . S
C1476 C1468 1.574 . S
C1476 H1471 0.949 . S
C1476 C1482 1.368 . S
C1477 C1461 1.349 . S
C1477 H1469 0.950 . S
C1477 C1475 1.327 . S
C1478 C1466 1.349 . S
C1478 H1472 0.950 . S
C1478 C1479 1.327 . S
C1479 H1473 0.950 . S
C1479 C1478 1.327 . S
C1479 C1483 1.429 . S
C1480 C1463 1.574 . S
C1480 H1474 0.949 . S
C1480 C1484 1.368 . S
C1481 C1462 1.429 . S
C1481 C1475 1.429 . S
C1481 C1482 1.523 . S
C1482 C1463 1.368 . S
C1482 C1476 1.368 . S
C1482 C1481 1.523 . S
C1483 C1467 1.429 . S
C1483 C1479 1.429 . S
C1483 C1484 1.523 . S
C1484 C1468 1.368 . S
C1484 C1480 1.368 . S
C1484 C1483 1.523 . S
H1485 C1460 0.950 . S
H1486 C1462 0.950 . S
H1487 C1463 0.949 . S
H1488 C1465 0.950 . S
H1489 C1467 0.950 . S
C1490 C1491 1.349 . S
C1490 C1492 1.327 . S
C1490 H1515 0.950 . S
C1491 C1490 1.349 . S
C1491 C1507 1.349 . S
C1492 C1490 1.327 . S
C1492 C1511 1.429 . S
C1492 H1516 0.950 . S
C1493 C1510 1.574 . S
C1493 C1512 1.368 . S
C1493 H1517 0.949 . S
H1494 C1498 0.949 . S
C1495 C1496 1.349 . S
C1495 C1497 1.327 . S
C1495 H1518 0.950 . S
C1496 C1495 1.349 . S
C1496 C1508 1.349 . S
C1497 C1495 1.327 . S
C1497 C1513 1.429 . S
C1497 H1519 0.950 . S
C1498 H1494 0.949 . S
C1498 C1506 1.574 . S
C1498 C1514 1.368 . S
H1499 C1507 0.950 . S
H1500 C1505 0.950 . S
H1501 C1506 0.949 . S
H1502 C1508 0.950 . S
H1503 C1509 0.950 . S
H1504 C1510 0.949 . S
C1505 H1500 0.950 . S
C1505 C1507 1.327 . S
C1505 C1511 1.429 . S
C1506 C1498 1.574 . S
C1506 H1501 0.949 . S
C1506 C1512 1.368 . S
C1507 C1491 1.349 . S
C1507 H1499 0.950 . S
C1507 C1505 1.327 . S
C1508 C1496 1.349 . S
C1508 H1502 0.950 . S
C1508 C1509 1.327 . S
C1509 H1503 0.950 . S
C1509 C1508 1.327 . S
C1509 C1513 1.429 . S
C1510 C1493 1.574 . S
C1510 H1504 0.949 . S
C1510 C1514 1.368 . S
C1511 C1492 1.429 . S
C1511 C1505 1.429 . S
C1511 C1512 1.523 . S
C1512 C1493 1.368 . S
C1512 C1506 1.368 . S
C1512 C1511 1.523 . S
C1513 C1497 1.429 . S
C1513 C1509 1.429 . S
C1513 C1514 1.523 . S
C1514 C1498 1.368 . S
C1514 C1510 1.368 . S
C1514 C1513 1.523 . S
H1515 C1490 0.950 . S
H1516 C1492 0.950 . S
H1517 C1493 0.949 . S
H1518 C1495 0.950 . S
H1519 C1497 0.950 . S
C1520 C1521 1.349 . S
C1520 C1522 1.327 . S
C1520 H1545 0.950 . S
C1521 C1520 1.349 . S
C1521 C1537 1.349 . S
C1522 C1520 1.327 . S
C1522 C1541 1.429 . S
C1522 H1546 0.950 . S
C1523 C1540 1.574 . S
C1523 C1542 1.368 . S
C1523 H1547 0.949 . S
H1524 C1528 0.949 . S
C1525 C1526 1.349 . S
C1525 C1527 1.327 . S
C1525 H1548 0.950 . S
C1526 C1525 1.349 . S
C1526 C1538 1.349 . S
C1527 C1525 1.327 . S
C1527 C1543 1.429 . S
C1527 H1549 0.950 . S
C1528 H1524 0.949 . S
C1528 C1536 1.574 . S
C1528 C1544 1.368 . S
H1529 C1537 0.950 . S
H1530 C1535 0.950 . S
H1531 C1536 0.949 . S
H1532 C1538 0.950 . S
H1533 C1539 0.950 . S
H1534 C1540 0.949 . S
C1535 H1530 0.950 . S
C1535 C1537 1.327 . S
C1535 C1541 1.429 . S
C1536 C1528 1.574 . S
C1536 H1531 0.949 . S
C1536 C1542 1.368 . S
C1537 C1521 1.349 . S
C1537 H1529 0.950 . S
C1537 C1535 1.327 . S
C1538 C1526 1.349 . S
C1538 H1532 0.950 . S
C1538 C1539 1.327 . S
C1539 H1533 0.950 . S
C1539 C1538 1.327 . S
C1539 C1543 1.429 . S
C1540 C1523 1.574 . S
C1540 H1534 0.949 . S
C1540 C1544 1.368 . S
C1541 C1522 1.429 . S
C1541 C1535 1.429 . S
C1541 C1542 1.523 . S
C1542 C1523 1.368 . S
C1542 C1536 1.368 . S
C1542 C1541 1.523 . S
C1543 C1527 1.429 . S
C1543 C1539 1.429 . S
C1543 C1544 1.523 . S
C1544 C1528 1.368 . S
C1544 C1540 1.368 . S
C1544 C1543 1.523 . S
H1545 C1520 0.950 . S
H1546 C1522 0.950 . S
H1547 C1523 0.949 . S
H1548 C1525 0.950 . S
H1549 C1527 0.950 . S
C1550 C1551 1.349 . S
C1550 C1552 1.327 . S
C1550 H1575 0.950 . S
C1551 C1550 1.349 . S
C1551 C1567 1.349 . S
C1552 C1550 1.327 . S
C1552 C1571 1.429 . S
C1552 H1576 0.950 . S
C1553 C1570 1.574 . S
C1553 C1572 1.368 . S
C1553 H1577 0.949 . S
H1554 C1558 0.949 . S
C1555 C1556 1.349 . S
C1555 C1557 1.327 . S
C1555 H1578 0.950 . S
C1556 C1555 1.349 . S
C1556 C1568 1.349 . S
C1557 C1555 1.327 . S
C1557 C1573 1.429 . S
C1557 H1579 0.950 . S
C1558 H1554 0.949 . S
C1558 C1566 1.574 . S
C1558 C1574 1.368 . S
H1559 C1567 0.950 . S
H1560 C1565 0.950 . S
H1561 C1566 0.949 . S
H1562 C1568 0.950 . S
H1563 C1569 0.950 . S
H1564 C1570 0.949 . S
C1565 H1560 0.950 . S
C1565 C1567 1.327 . S
C1565 C1571 1.429 . S
C1566 C1558 1.574 . S
C1566 H1561 0.949 . S
C1566 C1572 1.368 . S
C1567 C1551 1.349 . S
C1567 H1559 0.950 . S
C1567 C1565 1.327 . S
C1568 C1556 1.349 . S
C1568 H1562 0.950 . S
C1568 C1569 1.327 . S
C1569 H1563 0.950 . S
C1569 C1568 1.327 . S
C1569 C1573 1.429 . S
C1570 C1553 1.574 . S
C1570 H1564 0.949 . S
C1570 C1574 1.368 . S
C1571 C1552 1.429 . S
C1571 C1565 1.429 . S
C1571 C1572 1.523 . S
C1572 C1553 1.368 . S
C1572 C1566 1.368 . S
C1572 C1571 1.523 . S
C1573 C1557 1.429 . S
C1573 C1569 1.429 . S
C1573 C1574 1.523 . S
C1574 C1558 1.368 . S
C1574 C1570 1.368 . S
C1574 C1573 1.523 . S
H1575 C1550 0.950 . S
H1576 C1552 0.950 . S
H1577 C1553 0.949 . S
H1578 C1555 0.950 . S
H1579 C1557 0.950 . S
C1580 C1581 1.349 . S
C1580 C1582 1.327 . S
C1580 H1605 0.950 . S
C1581 C1580 1.349 . S
C1581 C1597 1.349 . S
C1582 C1580 1.327 . S
C1582 C1601 1.429 . S
C1582 H1606 0.950 . S
C1583 C1600 1.574 . S
C1583 C1602 1.368 . S
C1583 H1607 0.949 . S
H1584 C1588 0.949 . S
C1585 C1586 1.349 . S
C1585 C1587 1.327 . S
C1585 H1608 0.950 . S
C1586 C1585 1.349 . S
C1586 C1598 1.349 . S
C1587 C1585 1.327 . S
C1587 C1603 1.429 . S
C1587 H1609 0.950 . S
C1588 H1584 0.949 . S
C1588 C1596 1.574 . S
C1588 C1604 1.368 . S
H1589 C1597 0.950 . S
H1590 C1595 0.950 . S
H1591 C1596 0.949 . S
H1592 C1598 0.950 . S
H1593 C1599 0.950 . S
H1594 C1600 0.949 . S
C1595 H1590 0.950 . S
C1595 C1597 1.327 . S
C1595 C1601 1.429 . S
C1596 C1588 1.574 . S
C1596 H1591 0.949 . S
C1596 C1602 1.368 . S
C1597 C1581 1.349 . S
C1597 H1589 0.950 . S
C1597 C1595 1.327 . S
C1598 C1586 1.349 . S
C1598 H1592 0.950 . S
C1598 C1599 1.327 . S
C1599 H1593 0.950 . S
C1599 C1598 1.327 . S
C1599 C1603 1.429 . S
C1600 C1583 1.574 . S
C1600 H1594 0.949 . S
C1600 C1604 1.368 . S
C1601 C1582 1.429 . S
C1601 C1595 1.429 . S
C1601 C1602 1.523 . S
C1602 C1583 1.368 . S
C1602 C1596 1.368 . S
C1602 C1601 1.523 . S
C1603 C1587 1.429 . S
C1603 C1599 1.429 . S
C1603 C1604 1.523 . S
C1604 C1588 1.368 . S
C1604 C1600 1.368 . S
C1604 C1603 1.523 . S
H1605 C1580 0.950 . S
H1606 C1582 0.950 . S
H1607 C1583 0.949 . S
H1608 C1585 0.950 . S
H1609 C1587 0.950 . S
C1610 C1611 1.349 . S
C1610 C1612 1.327 . S
C1610 H1635 0.950 . S
C1611 C1610 1.349 . S
C1611 C1627 1.349 . S
C1612 C1610 1.327 . S
C1612 C1631 1.429 . S
C1612 H1636 0.950 . S
C1613 C1630 1.574 . S
C1613 C1632 1.368 . S
C1613 H1637 0.949 . S
H1614 C1618 0.949 . S
C1615 C1616 1.349 . S
C1615 C1617 1.327 . S
C1615 H1638 0.950 . S
C1616 C1615 1.349 . S
C1616 C1628 1.349 . S
C1617 C1615 1.327 . S
C1617 C1633 1.429 . S
C1617 H1639 0.950 . S
C1618 H1614 0.949 . S
C1618 C1626 1.574 . S
C1618 C1634 1.368 . S
H1619 C1627 0.950 . S
H1620 C1625 0.950 . S
H1621 C1626 0.949 . S
H1622 C1628 0.950 . S
H1623 C1629 0.950 . S
H1624 C1630 0.949 . S
C1625 H1620 0.950 . S
C1625 C1627 1.327 . S
C1625 C1631 1.429 . S
C1626 C1618 1.574 . S
C1626 H1621 0.949 . S
C1626 C1632 1.368 . S
C1627 C1611 1.349 . S
C1627 H1619 0.950 . S
C1627 C1625 1.327 . S
C1628 C1616 1.349 . S
C1628 H1622 0.950 . S
C1628 C1629 1.327 . S
C1629 H1623 0.950 . S
C1629 C1628 1.327 . S
C1629 C1633 1.429 . S
C1630 C1613 1.574 . S
C1630 H1624 0.949 . S
C1630 C1634 1.368 . S
C1631 C1612 1.429 . S
C1631 C1625 1.429 . S
C1631 C1632 1.523 . S
C1632 C1613 1.368 . S
C1632 C1626 1.368 . S
C1632 C1631 1.523 . S
C1633 C1617 1.429 . S
C1633 C1629 1.429 . S
C1633 C1634 1.523 . S
C1634 C1618 1.368 . S
C1634 C1630 1.368 . S
C1634 C1633 1.523 . S
H1635 C1610 0.950 . S
H1636 C1612 0.950 . S
H1637 C1613 0.949 . S
H1638 C1615 0.950 . S
H1639 C1617 0.950 . S
C1640 C1641 1.349 . S
C1640 C1642 1.327 . S
C1640 H1665 0.950 . S
C1641 C1640 1.349 . S
C1641 C1657 1.349 . S
C1642 C1640 1.327 . S
C1642 C1661 1.429 . S
C1642 H1666 0.950 . S
C1643 C1660 1.574 . S
C1643 C1662 1.368 . S
C1643 H1667 0.949 . S
H1644 C1648 0.949 . S
C1645 C1646 1.349 . S
C1645 C1647 1.327 . S
C1645 H1668 0.950 . S
C1646 C1645 1.349 . S
C1646 C1658 1.349 . S
C1647 C1645 1.327 . S
C1647 C1663 1.429 . S
C1647 H1669 0.950 . S
C1648 H1644 0.949 . S
C1648 C1656 1.574 . S
C1648 C1664 1.368 . S
H1649 C1657 0.950 . S
H1650 C1655 0.950 . S
H1651 C1656 0.949 . S
H1652 C1658 0.950 . S
H1653 C1659 0.950 . S
H1654 C1660 0.949 . S
C1655 H1650 0.950 . S
C1655 C1657 1.327 . S
C1655 C1661 1.429 . S
C1656 C1648 1.574 . S
C1656 H1651 0.949 . S
C1656 C1662 1.368 . S
C1657 C1641 1.349 . S
C1657 H1649 0.950 . S
C1657 C1655 1.327 . S
C1658 C1646 1.349 . S
C1658 H1652 0.950 . S
C1658 C1659 1.327 . S
C1659 H1653 0.950 . S
C1659 C1658 1.327 . S
C1659 C1663 1.429 . S
C1660 C1643 1.574 . S
C1660 H1654 0.949 . S
C1660 C1664 1.368 . S
C1661 C1642 1.429 . S
C1661 C1655 1.429 . S
C1661 C1662 1.523 . S
C1662 C1643 1.368 . S
C1662 C1656 1.368 . S
C1662 C1661 1.523 . S
C1663 C1647 1.429 . S
C1663 C1659 1.429 . S
C1663 C1664 1.523 . S
C1664 C1648 1.368 . S
C1664 C1660 1.368 . S
C1664 C1663 1.523 . S
H1665 C1640 0.950 . S
H1666 C1642 0.950 . S
H1667 C1643 0.949 . S
H1668 C1645 0.950 . S
H1669 C1647 0.950 . S
C1670 C1671 1.349 . S
C1670 C1672 1.327 . S
C1670 H1695 0.950 . S
C1671 C1670 1.349 . S
C1671 C1687 1.349 1_565 S
C1672 C1670 1.327 . S
C1672 C1691 1.429 . S
C1672 H1696 0.950 . S
C1673 C1690 1.574 . S
C1673 C1692 1.368 1_545 S
C1673 H1697 0.949 . S
H1674 C1678 0.949 . S
C1675 C1676 1.349 . S
C1675 C1677 1.329 . S
C1675 H1698 0.950 1_565 S
C1676 C1675 1.349 . S
C1676 C1688 1.349 . S
C1677 C1675 1.329 . S
C1677 C1693 1.436 . S
C1677 H1699 0.940 1_565 S
C1678 H1674 0.949 . S
C1678 C1686 1.574 . S
C1678 C1694 1.368 . S
H1679 C1687 0.950 . S
H1680 C1685 0.950 . S
H1681 C1686 0.949 . S
H1682 C1688 0.950 . S
H1683 C1689 0.950 . S
H1684 C1690 0.949 . S
C1685 H1680 0.950 . S
C1685 C1687 1.327 . S
C1685 C1691 1.429 1_545 S
C1686 C1678 1.574 . S
C1686 H1681 0.949 . S
C1686 C1692 1.368 . S
C1687 C1671 1.349 1_545 S
C1687 H1679 0.950 . S
C1687 C1685 1.327 . S
C1688 C1676 1.349 . S
C1688 H1682 0.950 . S
C1688 C1689 1.327 . S
C1689 H1683 0.950 . S
C1689 C1688 1.327 . S
C1689 C1693 1.429 . S
C1690 C1673 1.574 . S
C1690 H1684 0.949 . S
C1690 C1694 1.368 1_545 S
C1691 C1672 1.429 . S
C1691 C1685 1.429 1_565 S
C1691 C1692 1.523 . S
C1692 C1673 1.368 1_565 S
C1692 C1686 1.368 . S
C1692 C1691 1.523 . S
C1693 C1677 1.436 . S
C1693 C1689 1.429 . S
C1693 C1694 1.523 . S
C1694 C1678 1.368 . S
C1694 C1690 1.368 1_565 S
C1694 C1693 1.523 . S
H1695 C1670 0.950 . S
H1696 C1672 0.950 . S
H1697 C1673 0.949 . S
H1698 C1675 0.950 1_545 S
H1699 C1677 0.940 1_545 S
C1700 C1701 1.349 . S
C1700 C1702 1.327 . S
C1700 H1725 0.950 . S
C1701 C1700 1.349 . S
C1701 C1717 1.349 . S
C1702 C1700 1.327 . S
C1702 C1721 1.429 . S
C1702 H1726 0.950 . S
C1703 C1720 1.574 . S
C1703 C1722 1.368 . S
C1703 H1727 0.949 . S
H1704 C1708 0.949 . S
C1705 C1706 1.349 . S
C1705 C1707 1.327 . S
C1705 H1728 0.950 . S
C1706 C1705 1.349 . S
C1706 C1718 1.349 . S
C1707 C1705 1.327 . S
C1707 C1723 1.429 . S
C1707 H1729 0.950 . S
C1708 H1704 0.949 . S
C1708 C1716 1.574 . S
C1708 C1724 1.368 . S
H1709 C1717 0.950 . S
H1710 C1715 0.950 . S
H1711 C1716 0.949 . S
H1712 C1718 0.950 . S
H1713 C1719 0.950 . S
H1714 C1720 0.949 . S
C1715 H1710 0.950 . S
C1715 C1717 1.327 . S
C1715 C1721 1.429 . S
C1716 C1708 1.574 . S
C1716 H1711 0.949 . S
C1716 C1722 1.368 . S
C1717 C1701 1.349 . S
C1717 H1709 0.950 . S
C1717 C1715 1.327 . S
C1718 C1706 1.349 . S
C1718 H1712 0.950 . S
C1718 C1719 1.327 . S
C1719 H1713 0.950 . S
C1719 C1718 1.327 . S
C1719 C1723 1.429 . S
C1720 C1703 1.574 . S
C1720 H1714 0.949 . S
C1720 C1724 1.368 . S
C1721 C1702 1.429 . S
C1721 C1715 1.429 . S
C1721 C1722 1.523 . S
C1722 C1703 1.368 . S
C1722 C1716 1.368 . S
C1722 C1721 1.523 . S
C1723 C1707 1.429 . S
C1723 C1719 1.429 . S
C1723 C1724 1.523 . S
C1724 C1708 1.368 . S
C1724 C1720 1.368 . S
C1724 C1723 1.523 . S
H1725 C1700 0.950 . S
H1726 C1702 0.950 . S
H1727 C1703 0.949 . S
H1728 C1705 0.950 . S
H1729 C1707 0.950 . S
C1730 C1731 1.349 1_565 S
C1730 C1732 1.327 . S
C1730 H1755 0.950 . S
C1731 C1730 1.349 1_545 S
C1731 C1747 1.349 . S
C1732 C1730 1.327 . S
C1732 C1751 1.429 1_565 S
C1732 H1756 0.950 . S
C1733 C1750 1.574 . S
C1733 C1752 1.368 . S
C1733 H1757 0.949 . S
H1734 C1738 0.949 . S
C1735 C1736 1.349 . S
C1735 C1737 1.327 . S
C1735 H1758 0.950 . S
C1736 C1735 1.349 . S
C1736 C1748 1.349 1_545 S
C1737 C1735 1.327 . S
C1737 C1753 1.429 . S
C1737 H1759 0.950 . S
C1738 H1734 0.949 . S
C1738 C1746 1.574 . S
C1738 C1754 1.368 1_565 S
H1739 C1747 0.950 . S
H1740 C1745 0.950 . S
H1741 C1746 0.949 . S
H1742 C1748 0.950 . S
H1743 C1749 0.950 . S
H1744 C1750 0.949 . S
C1745 H1740 0.950 . S
C1745 C1747 1.327 . S
C1745 C1751 1.429 . S
C1746 C1738 1.574 . S
C1746 H1741 0.949 . S
C1746 C1752 1.368 1_565 S
C1747 C1731 1.349 . S
C1747 H1739 0.950 . S
C1747 C1745 1.327 . S
C1748 C1736 1.349 1_565 S
C1748 H1742 0.950 . S
C1748 C1749 1.327 . S
C1749 H1743 0.950 . S
C1749 C1748 1.327 . S
C1749 C1753 1.429 1_565 S
C1750 C1733 1.574 . S
C1750 H1744 0.949 . S
C1750 C1754 1.368 . S
C1751 C1732 1.429 1_545 S
C1751 C1745 1.429 . S
C1751 C1752 1.523 . S
C1752 C1733 1.368 . S
C1752 C1746 1.368 1_545 S
C1752 C1751 1.523 . S
C1753 C1737 1.429 . S
C1753 C1749 1.429 1_545 S
C1753 C1754 1.523 . S
C1754 C1738 1.368 1_545 S
C1754 C1750 1.368 . S
C1754 C1753 1.523 . S
H1755 C1730 0.950 . S
H1756 C1732 0.950 . S
H1757 C1733 0.949 . S
H1758 C1735 0.950 . S
H1759 C1737 0.950 . S
C1760 C1761 1.349 . S
C1760 C1762 1.327 . S
C1760 H1785 0.950 . S
C1761 C1760 1.349 . S
C1761 C1777 1.349 . S
C1762 C1760 1.327 . S
C1762 C1781 1.429 . S
C1762 H1786 0.950 . S
C1763 C1780 1.574 . S
C1763 C1782 1.368 . S
C1763 H1787 0.949 . S
H1764 C1768 0.949 . S
C1765 C1766 1.349 . S
C1765 C1767 1.327 . S
C1765 H1788 0.950 . S
C1766 C1765 1.349 . S
C1766 C1778 1.349 . S
C1767 C1765 1.327 . S
C1767 C1783 1.429 . S
C1767 H1789 0.950 . S
C1768 H1764 0.949 . S
C1768 C1776 1.574 . S
C1768 C1784 1.368 . S
H1769 C1777 0.950 . S
H1770 C1775 0.950 . S
H1771 C1776 0.949 . S
H1772 C1778 0.950 . S
H1773 C1779 0.950 . S
H1774 C1780 0.949 . S
C1775 H1770 0.950 . S
C1775 C1777 1.327 . S
C1775 C1781 1.429 . S
C1776 C1768 1.574 . S
C1776 H1771 0.949 . S
C1776 C1782 1.368 . S
C1777 C1761 1.349 . S
C1777 H1769 0.950 . S
C1777 C1775 1.327 . S
C1778 C1766 1.349 . S
C1778 H1772 0.950 . S
C1778 C1779 1.327 . S
C1779 H1773 0.950 . S
C1779 C1778 1.327 . S
C1779 C1783 1.429 . S
C1780 C1763 1.574 . S
C1780 H1774 0.949 . S
C1780 C1784 1.368 . S
C1781 C1762 1.429 . S
C1781 C1775 1.429 . S
C1781 C1782 1.523 . S
C1782 C1763 1.368 . S
C1782 C1776 1.368 . S
C1782 C1781 1.523 . S
C1783 C1767 1.429 . S
C1783 C1779 1.429 . S
C1783 C1784 1.523 . S
C1784 C1768 1.368 . S
C1784 C1780 1.368 . S
C1784 C1783 1.523 . S
H1785 C1760 0.950 . S
H1786 C1762 0.950 . S
H1787 C1763 0.949 . S
H1788 C1765 0.950 . S
H1789 C1767 0.950 . S
C1790 C1791 1.349 . S
C1790 C1792 1.327 . S
C1790 H1815 0.950 1_556 S
C1791 C1790 1.349 . S
C1791 C1807 1.349 . S
C1792 C1790 1.327 . S
C1792 C1811 1.429 . S
C1792 H1816 0.950 . S
C1793 C1810 1.574 . S
C1793 C1812 1.368 . S
C1793 H1817 0.949 . S
H1794 C1798 0.949 . S
C1795 C1796 1.349 . S
C1795 C1797 1.327 . S
C1795 H1818 0.950 . S
C1796 C1795 1.349 . S
C1796 C1808 1.349 . S
C1797 C1795 1.327 . S
C1797 C1813 1.429 . S
C1797 H1819 0.950 . S
C1798 H1794 0.949 . S
C1798 C1806 1.574 . S
C1798 C1814 1.368 . S
H1799 C1807 0.950 . S
H1800 C1805 0.950 . S
H1801 C1806 0.949 . S
H1802 C1808 0.950 . S
H1803 C1809 0.950 . S
H1804 C1810 0.949 . S
C1805 H1800 0.950 . S
C1805 C1807 1.327 . S
C1805 C1811 1.429 . S
C1806 C1798 1.574 . S
C1806 H1801 0.949 . S
C1806 C1812 1.368 . S
C1807 C1791 1.349 . S
C1807 H1799 0.950 . S
C1807 C1805 1.327 . S
C1808 C1796 1.349 . S
C1808 H1802 0.950 . S
C1808 C1809 1.327 . S
C1809 H1803 0.950 . S
C1809 C1808 1.327 . S
C1809 C1813 1.429 . S
C1810 C1793 1.574 . S
C1810 H1804 0.949 . S
C1810 C1814 1.368 . S
C1811 C1792 1.429 . S
C1811 C1805 1.429 . S
C1811 C1812 1.523 . S
C1812 C1793 1.368 . S
C1812 C1806 1.368 . S
C1812 C1811 1.523 . S
C1813 C1797 1.429 . S
C1813 C1809 1.429 . S
C1813 C1814 1.523 . S
C1814 C1798 1.368 . S
C1814 C1810 1.368 . S
C1814 C1813 1.523 . S
H1815 C1790 0.950 1_554 S
H1816 C1792 0.950 . S
H1817 C1793 0.949 . S
H1818 C1795 0.950 . S
H1819 C1797 0.950 . S
C1820 C1821 1.349 1_554 S
C1820 C1822 1.327 1_554 S
C1820 H1845 0.950 . S
C1821 C1820 1.349 1_556 S
C1821 C1837 1.349 . S
C1822 C1820 1.327 1_556 S
C1822 C1841 1.429 . S
C1822 H1846 0.950 1_556 S
C1823 C1840 1.574 . S
C1823 C1842 1.368 . S
C1823 H1847 0.949 . S
H1824 C1828 0.949 . S
C1825 C1826 1.349 . S
C1825 C1827 1.327 . S
C1825 H1848 0.950 . S
C1826 C1825 1.349 . S
C1826 C1838 1.349 . S
C1827 C1825 1.327 . S
C1827 C1843 1.429 . S
C1827 H1849 0.950 . S
C1828 H1824 0.949 . S
C1828 C1836 1.574 . S
C1828 C1844 1.368 . S
H1829 C1837 0.950 . S
H1830 C1835 0.950 . S
H1831 C1836 0.949 1_554 S
H1832 C1838 0.950 . S
H1833 C1839 0.950 . S
H1834 C1840 0.949 . S
C1835 H1830 0.950 . S
C1835 C1837 1.327 . S
C1835 C1841 1.429 . S
C1836 C1828 1.574 . S
C1836 H1831 0.949 1_556 S
C1836 C1842 1.368 . S
C1837 C1821 1.349 . S
C1837 H1829 0.950 . S
C1837 C1835 1.327 . S
C1838 C1826 1.349 . S
C1838 H1832 0.950 . S
C1838 C1839 1.327 . S
C1839 H1833 0.950 . S
C1839 C1838 1.327 . S
C1839 C1843 1.429 . S
C1840 C1823 1.574 . S
C1840 H1834 0.949 . S
C1840 C1844 1.368 . S
C1841 C1822 1.429 . S
C1841 C1835 1.429 . S
C1841 C1842 1.523 . S
C1842 C1823 1.368 . S
C1842 C1836 1.368 . S
C1842 C1841 1.523 . S
C1843 C1827 1.429 . S
C1843 C1839 1.429 . S
C1843 C1844 1.523 . S
C1844 C1828 1.368 . S
C1844 C1840 1.368 . S
C1844 C1843 1.523 . S
H1845 C1820 0.950 . S
H1846 C1822 0.950 1_554 S
H1847 C1823 0.949 . S
H1848 C1825 0.950 . S
H1849 C1827 0.950 . S
C1850 C1851 1.349 . S
C1850 C1852 1.327 . S
C1850 H1875 0.950 . S
C1851 C1850 1.349 . S
C1851 C1867 1.349 . S
C1852 C1850 1.327 . S
C1852 C1871 1.429 . S
C1852 H1876 0.950 . S
C1853 C1870 1.574 . S
C1853 C1872 1.368 . S
C1853 H1877 0.949 1_554 S
H1854 C1858 0.949 . S
C1855 C1856 1.349 . S
C1855 C1857 1.327 . S
C1855 H1878 0.950 . S
C1856 C1855 1.349 . S
C1856 C1868 1.349 . S
C1857 C1855 1.327 . S
C1857 C1873 1.429 . S
C1857 H1879 0.962 . S
C1858 H1854 0.949 . S
C1858 C1866 1.574 . S
C1858 C1874 1.368 . S
H1859 C1867 0.950 1_556 S
H1860 C1865 0.950 1_556 S
H1861 C1866 0.949 . S
H1862 C1868 0.950 . S
H1863 C1869 0.950 . S
H1864 C1870 0.949 1_556 S
C1865 H1860 0.950 1_554 S
C1865 C1867 1.327 . S
C1865 C1871 1.429 . S
C1866 C1858 1.574 . S
C1866 H1861 0.949 . S
C1866 C1872 1.368 . S
C1867 C1851 1.349 . S
C1867 H1859 0.950 1_554 S
C1867 C1865 1.327 . S
C1868 C1856 1.349 . S
C1868 H1862 0.950 . S
C1868 C1869 1.327 . S
C1869 H1863 0.950 . S
C1869 C1868 1.327 . S
C1869 C1873 1.429 . S
C1870 C1853 1.574 . S
C1870 H1864 0.949 1_554 S
C1870 C1874 1.368 . S
C1871 C1852 1.429 . S
C1871 C1865 1.429 . S
C1871 C1872 1.523 . S
C1872 C1853 1.368 . S
C1872 C1866 1.368 . S
C1872 C1871 1.523 . S
C1873 C1857 1.429 . S
C1873 C1869 1.429 . S
C1873 C1874 1.523 . S
C1874 C1858 1.368 . S
C1874 C1870 1.368 . S
C1874 C1873 1.523 . S
H1875 C1850 0.950 . S
H1876 C1852 0.950 . S
H1877 C1853 0.949 1_556 S
H1878 C1855 0.950 . S
H1879 C1857 0.962 . S
C441 C13 1.481 . S
C446 C236 1.484 1_545 S
C476 C299 1.713 . S
C471 C1 1.724 . S
C506 C176 1.743 1_565 S
C501 C27 1.737 . S
C531 C15 1.627 . S
C536 C210 1.623 . S
C561 C28 1.700 . S
C566 C414 1.698 1_554 S
C591 C55 1.037 . S
C596 C385 1.033 . S
C626 C308 1.868 . S
C621 C40 1.919 . S
C651 C43 1.295 . S
C656 C342 1.281 . S
C686 C231 1.855 . S
C681 C56 1.874 . S
C716 C274 1.298 . S
C711 C83 1.312 . S
C741 C96 1.837 . S
C746 C253 1.810 1_655 S
C771 C71 1.499 . S
C776 C367 1.488 . S
C806 C372 1.484 . S
C801 C99 1.481 . S
C836 C435 1.713 1_565 S
C831 C111 1.724 . S
C861 C113 1.737 . S
C866 C346 1.743 . S
C896 C312 1.632 . S
C891 C125 1.628 . S
C921 C139 1.701 . S
C926 C278 1.695 . S
C951 C153 1.037 . S
C956 C249 1.033 . S
C986 C206 1.868 . S
C981 C127 1.920 . S
C1011 C141 1.295 . S
C1016 C172 1.281 . S
C1046 C333 1.855 . S
C1041 C84 1.874 . S
C1076 C410 1.298 . S
C1071 C154 1.311 1_556 S
C1101 C68 1.837 . S
C1106 C389 1.811 . S
C1131 C166 1.499 . S
C1136 C197 1.488 1_655 S
C1166 C181 0.949 . S
C1161 C0 0.958 . S
C1191 C12 0.938 . S
C1196 C215 0.935 . S
C1226 C240 0.931 . S
C1221 C14 0.943 . S
C1256 C287 1.737 . S
C1251 C26 1.751 . S
C1281 C41 1.389 . S
C1286 C168 1.371 . S
C1311 C42 1.328 . S
C1316 C202 1.318 . S
C1346 C244 1.424 . S
C1341 C29 1.451 1_565 S
C1371 C54 0.772 . S
C1376 C283 0.770 . S
C1401 C69 1.525 . S
C1406 C185 1.491 . S
C1436 C265 1.571 . S
C1431 C70 1.595 . S
C1461 C85 1.492 . S
C1466 C270 1.490 . S
C1491 C82 1.383 . S
C1496 C321 1.361 . S
C1526 C351 0.949 . S
C1521 C110 0.958 . S
C1551 C98 0.938 . S
C1556 C317 0.935 . S
C1581 C124 0.943 . S
C1586 C376 0.931 . S
C1611 C112 1.750 . S
C1616 C423 1.737 . S
C1641 C126 1.389 . S
C1646 C338 1.371 . S
C1676 C304 1.318 . S
C1671 C140 1.328 . S
C1701 C138 1.451 . S
C1706 C380 1.424 . S
C1736 C419 0.770 . S
C1731 C152 0.772 . S
C1766 C355 1.491 . S
C1761 C97 1.525 . S
C1796 C401 1.571 . S
C1791 C167 1.594 1_556 S
C1826 C406 1.490 . S
C1821 C57 1.493 . S
C1851 C155 1.382 . S
C1856 C219 1.361 . S
