# Generated by pormake.
# Topology zzz, (3,6)-cn, num edge types: 1
# Building blocks:
#     Node 0, Type 0, BuildingBlock: WUSLED_clean_sbu_0, # of connection points: 3
#     Node 1, Type 0, BuildingBlock: WUSLED_clean_sbu_0, # of connection points: 3
#     Node 2, Type 0, BuildingBlock: WUSLED_clean_sbu_0, # of connection points: 3
#     Node 3, Type 0, BuildingBlock: WUSLED_clean_sbu_0, # of connection points: 3
#     Node 4, Type 0, BuildingBlock: WUSLED_clean_sbu_0, # of connection points: 3
#     Node 5, Type 0, BuildingBlock: WUSLED_clean_sbu_0, # of connection points: 3
#     Node 6, Type 0, BuildingBlock: WUSLED_clean_sbu_0, # of connection points: 3
#     Node 7, Type 0, BuildingBlock: WUSLED_clean_sbu_0, # of connection points: 3
#     Node 8, Type 1, BuildingBlock: NUHQIS_clean_sbu_0, # of connection points: 6
#     Node 9, Type 1, BuildingBlock: NUHQIS_clean_sbu_0, # of connection points: 6
#     Node 10, Type 1, BuildingBlock: NUHQIS_clean_sbu_0, # of connection points: 6
#     Node 11, Type 1, BuildingBlock: NUHQIS_clean_sbu_0, # of connection points: 6
#     Edge 12, Type (0, 1), BuildingBlock: CIFDUS_clean_linker_0, # of connection points: 2
#     Edge 13, Type (0, 1), BuildingBlock: CIFDUS_clean_linker_0, # of connection points: 2
#     Edge 14, Type (0, 1), BuildingBlock: CIFDUS_clean_linker_0, # of connection points: 2
#     Edge 15, Type (0, 1), BuildingBlock: CIFDUS_clean_linker_0, # of connection points: 2
#     Edge 16, Type (0, 1), BuildingBlock: CIFDUS_clean_linker_0, # of connection points: 2
#     Edge 17, Type (0, 1), BuildingBlock: CIFDUS_clean_linker_0, # of connection points: 2
#     Edge 18, Type (0, 1), BuildingBlock: CIFDUS_clean_linker_0, # of connection points: 2
#     Edge 19, Type (0, 1), BuildingBlock: CIFDUS_clean_linker_0, # of connection points: 2
#     Edge 20, Type (0, 1), BuildingBlock: CIFDUS_clean_linker_0, # of connection points: 2
#     Edge 21, Type (0, 1), BuildingBlock: CIFDUS_clean_linker_0, # of connection points: 2
#     Edge 22, Type (0, 1), BuildingBlock: CIFDUS_clean_linker_0, # of connection points: 2
#     Edge 23, Type (0, 1), BuildingBlock: CIFDUS_clean_linker_0, # of connection points: 2
#     Edge 24, Type (0, 1), BuildingBlock: CIFDUS_clean_linker_0, # of connection points: 2
#     Edge 25, Type (0, 1), BuildingBlock: CIFDUS_clean_linker_0, # of connection points: 2
#     Edge 26, Type (0, 1), BuildingBlock: CIFDUS_clean_linker_0, # of connection points: 2
#     Edge 27, Type (0, 1), BuildingBlock: CIFDUS_clean_linker_0, # of connection points: 2
#     Edge 28, Type (0, 1), BuildingBlock: CIFDUS_clean_linker_0, # of connection points: 2
#     Edge 29, Type (0, 1), BuildingBlock: CIFDUS_clean_linker_0, # of connection points: 2
#     Edge 30, Type (0, 1), BuildingBlock: CIFDUS_clean_linker_0, # of connection points: 2
#     Edge 31, Type (0, 1), BuildingBlock: CIFDUS_clean_linker_0, # of connection points: 2
#     Edge 32, Type (0, 1), BuildingBlock: CIFDUS_clean_linker_0, # of connection points: 2
#     Edge 33, Type (0, 1), BuildingBlock: CIFDUS_clean_linker_0, # of connection points: 2
#     Edge 34, Type (0, 1), BuildingBlock: CIFDUS_clean_linker_0, # of connection points: 2
#     Edge 35, Type (0, 1), BuildingBlock: CIFDUS_clean_linker_0, # of connection points: 2
# Relax obj value: 0.407
# Max RMSD: 0.248
# Mean RMSD: 0.227
data_MOF--net-zzz--node1-WUSLED_clean_sbu_0--node2-NUHQIS_clean_sbu_0--edge1-CIFDUS_clean_linker_0
_symmetry_space_group_name_H-M    P1
_symmetry_Int_Tables_number       1
_symmetry_cell_setting            triclinic
loop_
_symmetry_equiv_pos_as_xyz
'x, y, z'
_cell_length_a     57.551442
_cell_length_b     57.629312
_cell_length_c     18.303723
_cell_angle_alpha  89.705288
_cell_angle_beta   90.245921
_cell_angle_gamma 90.019256
loop_
_atom_site_label
_atom_site_type_symbol
_atom_site_fract_x
_atom_site_fract_y
_atom_site_fract_z
_atom_type_partial_charge
C0 C 0.79916 0.52873 0.43438 0.0
C1 C 0.81855 0.54305 0.42203 0.0
C2 C 0.84236 0.52017 0.50705 0.0
C3 C 0.83981 0.53883 0.45759 0.0
C4 C 0.823 0.50558 0.51846 0.0
C5 C 0.8017 0.50983 0.48287 0.0
U6 U 0.74523 0.5174 0.30948 0.0
O7 O 0.72794 0.54268 0.23656 0.0
O8 O 0.70812 0.52585 0.32404 0.0
C9 C 0.70739 0.53929 0.26564 0.0
C10 C 0.77632 0.53492 0.40025 0.0
C11 C 0.68789 0.53581 0.21299 0.0
C12 C 0.65672 0.51252 0.15959 0.0
C13 C 0.67538 0.51488 0.20891 0.0
C14 C 0.66293 0.5518 0.11688 0.0
C15 C 0.65019 0.53097 0.11285 0.0
C16 C 0.68146 0.55417 0.16633 0.0
C17 C 0.77586 0.46186 0.26288 0.0
C18 C 0.80371 0.43733 0.2015 0.0
C19 C 0.81446 0.45658 0.31414 0.0
C20 C 0.79216 0.46601 0.31852 0.0
C21 C 0.82083 0.44314 0.25348 0.0
C22 C 0.7814 0.44668 0.20617 0.0
C23 C 0.75522 0.47658 0.25591 0.0
O24 O 0.7763 0.53901 0.32952 0.0
O25 O 0.75782 0.52339 0.42186 0.0
O26 O 0.74275 0.47927 0.31532 0.0
O27 O 0.75919 0.49613 0.22099 0.0
H28 H 0.81718 0.55782 0.38539 0.0
H29 H 0.85429 0.55025 0.44608 0.0
H30 H 0.82409 0.49116 0.55648 0.0
H31 H 0.78714 0.49849 0.49428 0.0
H32 H 0.64756 0.49613 0.15759 0.0
H33 H 0.67996 0.50034 0.24381 0.0
H34 H 0.65831 0.5665 0.08272 0.0
H35 H 0.69072 0.57053 0.16847 0.0
H36 H 0.80803 0.42727 0.15364 0.0
H37 H 0.82715 0.46112 0.35555 0.0
H38 H 0.78818 0.47783 0.36252 0.0
H39 H 0.76906 0.44349 0.16247 0.0
C40 C 0.99887 0.80326 0.44816 0.0
C41 C 0.98323 0.82153 0.43457 0.0
C42 C 1.00596 0.84799 0.51108 0.0
C43 C 0.98674 0.84355 0.46522 0.0
C44 C 0.02183 0.82974 0.52376 0.0
C45 C 0.01833 0.80771 0.49287 0.0
U46 U 1.00997 0.74948 0.32484 0.0
O47 O 1.00717 0.71176 0.34682 0.0
O48 O 0.98376 0.72843 0.26792 0.0
C49 C 0.99142 0.70874 0.2954 0.0
C50 C 0.99356 0.7795 0.41999 0.0
C51 C 0.99598 0.69005 0.24154 0.0
C52 C 0.99435 0.64912 0.20759 0.0
C53 C 0.99106 0.66682 0.25915 0.0
C54 C 1.00753 0.67764 0.11973 0.0
C55 C 1.00259 0.65425 0.13687 0.0
C56 C 1.00439 0.69525 0.17137 0.0
C57 C 0.0597 0.78449 0.24628 0.0
C58 C 0.08932 0.80715 0.18511 0.0
C59 C 0.06079 0.82624 0.26118 0.0
C60 C 0.05104 0.80473 0.27841 0.0
C61 C 0.0794 0.82776 0.21171 0.0
C62 C 0.07941 0.78567 0.20194 0.0
C63 C 0.0465 0.76282 0.25076 0.0
O64 O 0.98611 0.77813 0.35212 0.0
O65 O 1.00795 0.76261 0.43764 0.0
O66 O 0.04803 0.75135 0.31283 0.0
O67 O 0.02514 0.76444 0.22571 0.0
H68 H 0.96798 0.81872 0.40082 0.0
H69 H 0.97432 0.85712 0.45276 0.0
H70 H 0.0367 0.83224 0.55925 0.0
H71 H 0.0307 0.79407 0.50522 0.0
H72 H 0.99066 0.63139 0.22356 0.0
H73 H 0.98456 0.66234 0.31286 0.0
H74 H 1.01351 0.68251 0.0658 0.0
H75 H 1.00829 0.713 0.15605 0.0
H76 H 0.10391 0.80774 0.14797 0.0
H77 H 0.05259 0.84172 0.28225 0.0
H78 H 0.0358 0.80405 0.31296 0.0
H79 H 0.08636 0.77013 0.1771 0.0
C80 C 0.73154 1.01077 0.47321 0.0
C81 C 0.72153 0.02991 0.50855 0.0
C82 C 0.68436 1.0096 0.51995 0.0
C83 C 0.6983 0.02933 0.53183 0.0
C84 C 0.69449 0.99036 0.48509 0.0
C85 C 0.71778 0.99086 0.46255 0.0
U86 U 0.77906 1.00481 0.32594 0.0
O87 O 0.81473 0.99068 0.33013 0.0
O88 O 0.80913 0.02746 0.30516 0.0
C89 C 0.82418 1.01034 0.3086 0.0
C90 C 0.75621 1.01197 0.44843 0.0
C91 C 0.84057 1.00899 0.24651 0.0
C92 C 0.8801 1.01232 0.19993 0.0
C93 C 0.86448 1.012 0.25864 0.0
C94 C 0.84815 1.00621 0.1159 0.0
C95 C 0.87215 1.00972 0.12752 0.0
C96 C 0.83256 1.00586 0.17469 0.0
C97 C 0.72784 0.99046 0.20856 0.0
C98 C 0.69341 0.98437 0.13465 0.0
C99 C 0.68975 0.99816 0.25905 0.0
C100 C 0.71381 0.99732 0.26698 0.0
C101 C 0.67935 0.99245 0.19196 0.0
C102 C 0.71755 0.9834 0.14296 0.0
C103 C 0.75308 0.99278 0.2147 0.0
O104 O 0.76649 0.99223 0.43269 0.0
O105 O 0.76121 0.02859 0.4016 0.0
O106 O 0.7601 0.01417 0.22588 0.0
O107 O 0.7633 0.97756 0.25783 0.0
H108 H 0.73169 0.04545 0.51787 0.0
H109 H 0.69111 0.04455 0.55777 0.0
H110 H 0.68443 0.97477 0.47562 0.0
H111 H 0.72488 0.97573 0.43579 0.0
H112 H 0.89834 0.01533 0.21119 0.0
H113 H 0.87105 0.01457 0.31357 0.0
H114 H 0.84136 1.00382 0.06119 0.0
H115 H 0.81418 1.00347 0.16398 0.0
H116 H 0.68592 0.98014 0.08199 0.0
H117 H 0.67937 1.00426 0.30431 0.0
H118 H 0.72162 1.00312 0.31746 0.0
H119 H 0.72821 0.97817 0.09726 0.0
C120 C 0.52027 0.73872 0.44583 0.0
C121 C 0.51874 0.71875 0.40215 0.0
C122 C 0.51548 0.69392 0.51075 0.0
C123 C 0.51628 0.69668 0.43415 0.0
C124 C 0.51654 0.71404 0.5541 0.0
C125 C 0.51892 0.73609 0.52203 0.0
U126 U 0.5109 0.78825 0.30355 0.0
O127 O 0.53805 0.80987 0.2537 0.0
O128 O 0.51017 0.82647 0.31549 0.0
C129 C 0.52781 0.82947 0.27087 0.0
C130 C 0.52487 0.76212 0.41402 0.0
C131 C 0.52477 0.84673 0.21043 0.0
C132 C 0.51431 0.88581 0.16928 0.0
C133 C 0.51628 0.86909 0.22515 0.0
C134 C 0.52945 0.85823 0.08262 0.0
C135 C 0.52094 0.88066 0.09706 0.0
C136 C 0.53129 0.84153 0.13827 0.0
C137 C 0.46716 0.74829 0.21232 0.0
C138 C 0.44694 0.72024 0.13739 0.0
C139 C 0.462 0.70885 0.25622 0.0
C140 C 0.46995 0.73148 0.26732 0.0
C141 C 0.45107 0.70284 0.19006 0.0
C142 C 0.45501 0.74278 0.14842 0.0
C143 C 0.4792 0.7706 0.21691 0.0
O144 O 0.53529 0.76274 0.35024 0.0
O145 O 0.50826 0.77768 0.41968 0.0
O146 O 0.47412 0.78352 0.2736 0.0
O147 O 0.50159 0.76948 0.20371 0.0
H148 H 0.51975 0.72012 0.34321 0.0
H149 H 0.5151 0.68175 0.39867 0.0
H150 H 0.51626 0.71273 0.61312 0.0
H151 H 0.52024 0.75113 0.55708 0.0
H152 H 0.50739 0.90271 0.18271 0.0
H153 H 0.51123 0.87371 0.28015 0.0
H154 H 0.53514 0.8536 0.02831 0.0
H155 H 0.53809 0.82459 0.12459 0.0
H156 H 0.43889 0.71613 0.08546 0.0
H157 H 0.46526 0.69585 0.29798 0.0
H158 H 0.47917 0.73562 0.31724 0.0
H159 H 0.45283 0.75559 0.10538 0.0
C160 C 0.24061 0.49669 0.95449 0.0
C161 C 0.22303 0.48038 0.96991 0.0
C162 C 0.19441 0.50283 0.89963 0.0
C163 C 0.2003 0.48343 0.94312 0.0
C164 C 0.21196 0.51926 0.88491 0.0
C165 C 0.23468 0.51619 0.91167 0.0
U166 U 0.29024 0.50078 0.09739 0.0
O167 O 0.31747 0.47559 0.12741 0.0
O168 O 0.32734 0.50986 0.08557 0.0
C169 C 0.33447 0.49044 0.11636 0.0
C170 C 0.2652 0.49281 0.9791 0.0
C171 C 0.35142 0.49296 0.17725 0.0
C172 C 0.39161 0.49454 0.22023 0.0
C173 C 0.37537 0.49225 0.16319 0.0
C174 C 0.36019 0.49823 0.30666 0.0
C175 C 0.3843 0.4976 0.29297 0.0
C176 C 0.34398 0.49601 0.24956 0.0
C177 C 0.24328 0.52793 0.20922 0.0
C178 C 0.21253 0.54588 0.27839 0.0
C179 C 0.20399 0.52868 0.16054 0.0
C180 C 0.22735 0.52263 0.15346 0.0
C181 C 0.19633 0.54023 0.22339 0.0
C182 C 0.23584 0.53976 0.27128 0.0
C183 C 0.26751 0.52066 0.20333 0.0
O184 O 0.27831 0.51134 0.98733 0.0
O185 O 0.26867 0.47724 0.03085 0.0
O186 O 0.27054 0.4981 0.19948 0.0
O187 O 0.27981 0.53238 0.15537 0.0
H188 H 0.22688 0.46498 1.00189 0.0
H189 H 0.1875 0.47019 0.955 0.0
H190 H 0.20818 0.5346 0.85263 0.0
H191 H 0.2477 0.52907 0.89808 0.0
H192 H 0.40993 0.49432 0.207 0.0
H193 H 0.38155 0.49001 0.10784 0.0
H194 H 0.35376 0.50023 0.36177 0.0
H195 H 0.32559 0.49661 0.26193 0.0
H196 H 0.20705 0.55436 0.32809 0.0
H197 H 0.19192 0.52417 0.1173 0.0
H198 H 0.23296 0.51351 0.10506 0.0
H199 H 0.24797 0.5439 0.31476 0.0
C200 C 0.0185 0.24128 0.99311 0.0
C201 C 0.99831 0.23032 0.96675 0.0
C202 C 0.01984 0.19463 0.94184 0.0
C203 C 0.99897 0.20737 0.9412 0.0
C204 C 0.04008 0.20564 0.96799 0.0
C205 C 0.03948 0.2287 0.99247 0.0
U206 U 0.0269 0.28947 0.13853 0.0
O207 O 0.03967 0.32557 0.12844 0.0
O208 O 1.00388 0.31883 0.16329 0.0
C209 C 0.02031 0.33443 0.15415 0.0
C210 C 0.01731 0.26586 0.01879 0.0
C211 C 0.02262 0.35237 0.212 0.0
C212 C 0.03134 0.39244 0.24476 0.0
C213 C 0.03077 0.37455 0.19313 0.0
C214 C 0.01605 0.36624 0.33624 0.0
C215 C 0.02364 0.38872 0.31691 0.0
C216 C 0.01555 0.3483 0.28447 0.0
C217 C 0.04597 0.23938 0.25355 0.0
C218 C 0.04926 0.20477 0.32839 0.0
C219 C 0.04022 0.2015 0.19929 0.0
C220 C 0.0415 0.22555 0.19238 0.0
C221 C 0.04327 0.19094 0.26793 0.0
C222 C 0.05051 0.22891 0.32123 0.0
C223 C 0.04275 0.2645 0.24774 0.0
O224 O 1.00183 0.27042 0.06933 0.0
O225 O 0.03711 0.27675 0.02981 0.0
O226 O 0.05643 0.27512 0.20093 0.0
O227 O 0.02087 0.27073 0.24137 0.0
H228 H 0.98192 0.23957 0.96582 0.0
H229 H 0.98301 0.19947 0.92203 0.0
H230 H 0.05652 0.19649 0.96866 0.0
H231 H 0.05546 0.23657 1.01159 0.0
H232 H 0.03774 0.40929 0.22781 0.0
H233 H 0.03635 0.37818 0.13777 0.0
H234 H 1.00979 0.36265 0.39083 0.0
H235 H 1.00917 0.33137 0.3008 0.0
H236 H 0.05141 0.19709 0.38214 0.0
H237 H 0.03571 0.19128 0.15177 0.0
H238 H 0.03768 0.23353 0.14024 0.0
H239 H 0.05379 0.23941 0.36912 0.0
C240 C 0.29494 0.04046 0.01684 0.0
C241 C 0.31452 0.0545 0.02931 0.0
C242 C 0.33795 0.03138 0.94543 0.0
C243 C 0.3357 0.05002 0.9944 0.0
C244 C 0.31838 0.01711 0.93367 0.0
C245 C 0.29716 0.02162 0.96867 0.0
U246 U 0.24254 0.02947 0.14626 0.0
O247 O 0.22592 0.05525 0.2171 0.0
O248 O 0.205 0.03705 0.13515 0.0
C249 C 0.20493 0.051 0.19195 0.0
C250 C 0.27228 0.04673 0.05106 0.0
C251 C 0.18649 0.04767 0.24831 0.0
C252 C 0.15015 0.0303 0.29097 0.0
C253 C 0.1677 0.03234 0.23804 0.0
C254 C 0.16964 0.05894 0.36525 0.0
C255 C 0.15092 0.04352 0.35552 0.0
C256 C 0.18707 0.06104 0.31241 0.0
C257 C 0.27471 0.97481 0.19635 0.0
C258 C 0.30297 0.95002 0.25621 0.0
C259 C 0.3127 0.96923 0.14222 0.0
C260 C 0.29046 0.97889 0.13941 0.0
C261 C 0.31956 0.95559 0.20256 0.0
C262 C 0.28073 0.95961 0.2531 0.0
C263 C 0.25399 0.98935 0.20372 0.0
O264 O 0.25378 0.03468 0.03219 0.0
O265 O 0.27283 0.05156 0.12116 0.0
O266 O 0.25812 1.00928 0.23571 0.0
O267 O 0.2407 0.99128 0.14539 0.0
H268 H 0.3134 0.06922 0.06571 0.0
H269 H 0.35036 0.06119 1.00614 0.0
H270 H 0.31924 1.00273 0.89595 0.0
H271 H 0.28245 1.01048 0.95722 0.0
H272 H 0.13611 0.01813 0.28168 0.0
H273 H 0.16648 0.02193 0.18909 0.0
H274 H 0.17068 0.06974 0.41339 0.0
H275 H 0.20099 0.07335 0.32162 0.0
H276 H 0.30769 0.93985 0.30392 0.0
H277 H 0.32496 0.97361 0.09958 0.0
H278 H 0.28608 0.99073 0.09532 0.0
H279 H 0.26881 0.95646 0.29777 0.0
C280 C 0.49082 0.29825 0.97048 0.0
C281 C 0.49138 0.31697 0.01958 0.0
C282 C 0.49751 0.34449 0.91911 0.0
C283 C 0.4946 0.33978 0.99416 0.0
C284 C 0.49785 0.32563 0.87053 0.0
C285 C 0.49443 0.30284 0.89589 0.0
U286 U 0.49733 0.24445 0.09724 0.0
O287 O 0.46951 0.22285 0.14363 0.0
O288 O 0.49589 0.20682 0.07416 0.0
C289 C 0.47848 0.2034 0.11932 0.0
C290 C 0.48478 0.27425 0.99472 0.0
C291 C 0.48141 0.1845 0.17419 0.0
C292 C 0.48135 0.14318 0.20397 0.0
C293 C 0.47967 0.16125 0.15246 0.0
C294 C 0.48673 0.17132 0.30013 0.0
C295 C 0.4847 0.14792 0.2788 0.0
C296 C 0.4852 0.18935 0.24852 0.0
C297 C 0.54378 0.27969 0.1918 0.0
C298 C 0.56426 0.30699 0.26862 0.0
C299 C 0.55555 0.31704 0.14262 0.0
C300 C 0.54496 0.29545 0.13322 0.0
C301 C 0.56487 0.32327 0.21099 0.0
C302 C 0.55384 0.28538 0.25896 0.0
C303 C 0.53037 0.25823 0.18556 0.0
O304 O 0.50046 0.25801 0.9843 0.0
O305 O 0.47417 0.27221 0.05793 0.0
O306 O 0.50818 0.26045 0.20052 0.0
O307 O 0.53435 0.24584 0.12681 0.0
H308 H 0.48885 0.31408 0.07752 0.0
H309 H 0.49459 0.3538 0.03333 0.0
H310 H 0.49989 0.32856 0.81242 0.0
H311 H 0.494 0.2888 0.85676 0.0
H312 H 0.48012 0.12547 0.18489 0.0
H313 H 0.47684 0.15703 0.0955 0.0
H314 H 0.48901 0.17581 0.35707 0.0
H315 H 0.48667 0.20711 0.26702 0.0
H316 H 0.57076 0.31131 0.32246 0.0
H317 H 0.55589 0.32907 0.09699 0.0
H318 H 0.5371 0.29132 0.08097 0.0
H319 H 0.55284 0.27345 0.30482 0.0
Tb320 Tb 0.02721 0.01561 0.77555 0.0
Eu321 Eu 0.98533 0.0279 0.66242 0.0
C322 C 0.03891 0.03049 0.61574 0.0
C323 C 1.01023 0.06783 0.7579 0.0
C324 C 0.06649 0.98202 0.89609 0.0
C325 C 0.08977 0.96078 0.98469 0.0
C326 C 0.08348 0.98172 0.95115 0.0
C327 C 0.05585 0.96126 0.87462 0.0
C328 C 0.0622 0.94036 0.90771 0.0
C329 C 0.07921 0.93989 0.96308 0.0
C330 C 0.05986 1.00392 0.86099 0.0
O331 O 0.99529 1.00432 0.8309 0.0
O332 O 0.96823 0.02721 0.7727 0.0
O333 O 0.98307 0.98959 0.68524 0.0
O334 O 0.02156 0.98425 0.70928 0.0
C335 C 0.97463 0.01427 0.82857 0.0
O336 O 0.95862 0.05075 0.61659 0.0
O337 O 0.96448 0.01701 0.56894 0.0
O338 O 0.01805 0.02369 0.59622 0.0
O339 O 0.04389 0.0339 0.68494 0.0
O340 O 0.01867 0.05167 0.80164 0.0
O341 O 1.00077 0.06251 0.69459 0.0
C342 C 1.00131 0.97601 0.68798 0.0
O343 O 0.06153 1.00426 0.79012 0.0
O344 O 0.04033 1.01289 0.88265 0.0
C345 C 0.95953 0.04877 0.4888 0.0
C346 C 0.97536 0.07786 0.37583 0.0
C347 C 0.98695 0.05701 0.39149 0.0
C348 C 0.97911 0.04258 0.4475 0.0
C349 C 0.94668 0.06845 0.46862 0.0
C350 C 0.95451 0.0829 0.4123 0.0
C351 C 0.9553 0.03751 0.55987 0.0
H352 H 0.10295 0.96088 0.02712 0.0
H353 H 0.09182 0.99767 0.96821 0.0
H354 H 0.04258 0.96124 0.83247 0.0
H355 H 0.05343 0.92461 0.89092 0.0
H356 H 1.00295 0.05265 0.36371 0.0
H357 H 0.98937 0.02745 0.46168 0.0
H358 H 0.93162 0.07359 0.49995 0.0
H359 H 0.94532 0.09898 0.40165 0.0
Tb360 Tb 0.51511 0.04319 0.77498 0.0
Eu361 Eu 0.50178 1.00354 0.65569 0.0
C362 C 0.50381 0.05747 0.61161 0.0
C363 C 0.46338 0.0298 0.75021 0.0
C364 C 0.53578 0.068 0.9456 0.0
C365 C 0.56958 0.07495 0.02192 0.0
C366 C 0.55507 0.08161 0.96415 0.0
C367 C 0.53008 0.04872 0.98945 0.0
C368 C 0.54458 0.04203 0.04698 0.0
C369 C 0.565 0.05451 0.06166 0.0
C370 C 0.524 0.07175 0.87501 0.0
O371 O 0.51106 1.01118 0.83835 0.0
O372 O 0.51707 0.98355 0.75065 0.0
O373 O 0.53968 1.01215 0.63811 0.0
O374 O 0.54855 0.02701 0.75053 0.0
C375 C 0.51563 0.98966 0.81953 0.0
O376 O 0.4816 0.97337 0.62129 0.0
O377 O 0.50776 0.98764 0.5497 0.0
O378 O 0.49221 0.03796 0.60295 0.0
O379 O 0.51698 0.06087 0.66957 0.0
O380 O 0.4782 0.04709 0.75096 0.0
O381 O 0.46988 1.00941 0.72607 0.0
C382 C 0.55507 0.0189 0.68672 0.0
O383 O 0.53705 0.06906 0.81762 0.0
O384 O 0.50395 0.06156 0.86702 0.0
C385 C 0.47472 0.97159 0.49491 0.0
C386 C 0.4427 0.96896 0.37876 0.0
C387 C 0.45707 0.94994 0.39584 0.0
C388 C 0.473 0.95127 0.45357 0.0
C389 C 0.46083 0.99077 0.47721 0.0
C390 C 0.44494 0.98947 0.41965 0.0
C391 C 0.49093 0.97271 0.55658 0.0
H392 H 0.58532 0.08479 0.03167 0.0
H393 H 0.55978 0.0965 0.93098 0.0
H394 H 0.5152 0.03794 0.97674 0.0
H395 H 0.54055 0.02635 0.07728 0.0
H396 H 0.45584 0.93398 0.36506 0.0
H397 H 0.48377 0.93638 0.46645 0.0
H398 H 0.46202 1.0066 0.50871 0.0
H399 H 0.43385 1.00429 0.40886 0.0
Tb400 Tb 0.50248 0.52134 0.7442 0.0
Eu401 Eu 0.54338 0.50817 0.62879 0.0
C402 C 0.48972 0.50287 0.58496 0.0
C403 C 0.51945 0.46938 0.7307 0.0
C404 C 0.47035 0.54775 0.89787 0.0
C405 C 0.44803 0.56611 0.99361 0.0
C406 C 0.44968 0.54988 0.93737 0.0
C407 C 0.48956 0.56152 0.91603 0.0
C408 C 0.48795 0.57771 0.97218 0.0
C409 C 0.46707 0.58038 1.01102 0.0
C410 C 0.47167 0.53149 0.83691 0.0
O411 O 0.53478 0.51999 0.80843 0.0
O412 O 0.56002 0.52949 0.71756 0.0
O413 O 0.53021 0.54336 0.59657 0.0
O414 O 0.51598 0.5552 0.7068 0.0
C415 C 0.5554 0.52705 0.78721 0.0
O416 O 0.57899 0.49712 0.60943 0.0
O417 O 0.55708 0.50697 0.51782 0.0
O418 O 0.51051 0.49358 0.57925 0.0
O419 O 0.48456 0.51683 0.6393 0.0
O420 O 0.50154 0.4834 0.7377 0.0
O421 O 0.53883 0.47647 0.70013 0.0
C422 C 0.52322 0.55993 0.64003 0.0
O423 O 0.47305 0.54087 0.77222 0.0
O424 O 0.48651 0.51465 0.84499 0.0
C425 C 0.58478 0.47774 0.49728 0.0
C426 C 0.59615 0.43857 0.41382 0.0
C427 C 0.5951 0.46062 0.38094 0.0
C428 C 0.58956 0.48008 0.42253 0.0
C429 C 0.58653 0.45581 0.53067 0.0
C430 C 0.59231 0.43642 0.48931 0.0
C431 C 0.57688 0.49806 0.53846 0.0
H432 H 0.43179 0.56767 0.0229 0.0
H433 H 0.43474 0.53924 0.92403 0.0
H434 H 0.50565 0.56005 0.88583 0.0
H435 H 0.50279 0.58871 0.98335 0.0
H436 H 0.59798 0.46268 0.32281 0.0
H437 H 0.58834 0.49688 0.39592 0.0
H438 H 0.58276 0.45351 0.5882 0.0
H439 H 0.5926 0.41955 0.51571 0.0
Tb440 Tb 1.00467 0.49485 0.80606 0.0
Eu441 Eu 0.0205 0.53465 0.69077 0.0
C442 C 0.02064 0.48033 0.64904 0.0
C443 C 0.05817 0.50888 0.7898 0.0
C444 C 0.97534 0.46256 0.95623 0.0
C445 C 0.95739 0.44064 0.0544 0.0
C446 C 0.97387 0.44234 0.99875 0.0
C447 C 0.96043 0.48121 0.97016 0.0
C448 C 0.944 0.47955 0.02574 0.0
C449 C 0.94224 0.45922 0.06832 0.0
C450 C 0.99289 0.46436 0.89891 0.0
O451 O 0.99337 0.52743 0.85603 0.0
O452 O 0.01972 0.55164 0.8016 0.0
O453 O 0.98194 0.53849 0.70674 0.0
O454 O 0.97445 0.50066 0.73396 0.0
C455 C 1.00502 0.54712 0.8545 0.0
O456 O 0.04173 0.56414 0.65735 0.0
O457 O 1.01341 0.55269 0.58821 0.0
O458 O 0.01641 0.50153 0.62573 0.0
O459 O 0.022 0.47569 0.71933 0.0
O460 O 0.04078 0.50333 0.83297 0.0
O461 O 0.05432 0.51744 0.72414 0.0
C462 C 0.9675 0.52091 0.70855 0.0
O463 O 0.98518 0.46504 0.83195 0.0
O464 O 1.00883 0.47994 0.90995 0.0
C465 C 0.04675 0.56689 0.53091 0.0
C466 C 0.07897 0.56866 0.41629 0.0
C467 C 0.06571 0.58836 0.43386 0.0
C468 C 0.04969 0.58745 0.49097 0.0
C469 C 0.05922 0.54698 0.51186 0.0
C470 C 0.07521 0.54786 0.45508 0.0
C471 C 0.03138 0.56631 0.59415 0.0
H472 H 0.95651 0.42483 0.08655 0.0
H473 H 0.98545 0.42788 0.98889 0.0
H474 H 0.96143 0.49697 0.9378 0.0
H475 H 0.93231 0.494 0.03421 0.0
H476 H 0.06813 0.60456 0.40463 0.0
H477 H 0.04002 0.60291 0.50504 0.0
H478 H 0.05707 0.53097 0.54242 0.0
H479 H 0.08543 0.5325 0.44404 0.0
H480 H 0.10369 0.03929 0.33686 0.0
H481 H 0.15659 0.04276 0.50423 0.0
H482 H 0.12693 0.04006 0.5987 0.0
H483 H 0.08587 0.03614 0.63473 0.0
H484 H 0.03303 0.03184 0.46739 0.0
H485 H 0.06259 0.03538 0.3729 0.0
C486 C 0.10878 0.03926 0.39396 0.0
C487 C 0.13248 0.04131 0.41291 0.0
C488 C 0.09155 0.0376 0.44847 0.0
C489 C 0.13856 0.04155 0.48756 0.0
C490 C 0.12156 0.03989 0.54187 0.0
C491 C 0.08077 0.0361 0.57763 0.0
C492 C 0.05712 0.03371 0.55864 0.0
C493 C 0.09798 0.03793 0.5231 0.0
C494 C 0.051 0.03358 0.48406 0.0
C495 C 0.06796 0.03559 0.42972 0.0
H496 H 0.51184 0.14501 0.4022 0.0
H497 H 0.45978 0.10711 0.2813 0.0
H498 H 0.46129 0.07581 0.37149 0.0
H499 H 0.47698 0.05918 0.48655 0.0
H500 H 0.52803 0.09817 0.60854 0.0
H501 H 0.52688 0.12894 0.5172 0.0
C502 C 0.50059 0.13007 0.39571 0.0
C503 C 0.48575 0.12864 0.33434 0.0
C504 C 0.50125 0.11219 0.44853 0.0
C505 C 0.47169 0.10874 0.32691 0.0
C506 C 0.4724 0.09081 0.37898 0.0
C507 C 0.48785 0.07441 0.49325 0.0
C508 C 0.50255 0.07618 0.55489 0.0
C509 C 0.48709 0.09232 0.4402 0.0
C510 C 0.51647 0.09616 0.56216 0.0
C511 C 0.51588 0.11387 0.50971 0.0
H512 H 0.42655 0.47587 0.31249 0.0
H513 H 0.38132 0.52638 0.41161 0.0
H514 H 0.4091 0.53161 0.51103 0.0
H515 H 0.4467 0.52271 0.56919 0.0
H516 H 0.49261 0.47312 0.46865 0.0
H517 H 0.4643 0.46696 0.37082 0.0
C518 C 0.42279 0.48817 0.35543 0.0
C519 C 0.40162 0.50061 0.35399 0.0
C520 C 0.43906 0.49134 0.41259 0.0
C521 C 0.39713 0.51621 0.41125 0.0
C522 C 0.41315 0.51936 0.46818 0.0
C523 C 0.45054 0.51044 0.52618 0.0
C524 C 0.47191 0.49841 0.52687 0.0
C525 C 0.4342 0.50707 0.46944 0.0
C526 C 0.47642 0.48268 0.47004 0.0
C527 C 0.46019 0.47914 0.41379 0.0
H528 H 0.03306 0.388 0.46476 0.0
H529 H 1.01185 0.43413 0.29025 0.0
H530 H 1.01015 0.46636 0.37565 0.0
H531 H 1.01368 0.48162 0.50069 0.0
H532 H 0.03356 0.43533 0.6762 0.0
H533 H 0.03653 0.40328 0.59008 0.0
C534 C 0.0279 0.40504 0.4453 0.0
C535 C 0.02275 0.40842 0.37046 0.0
C536 C 0.02666 0.42365 0.49518 0.0
C537 C 0.01639 0.43087 0.34685 0.0
C538 C 0.01522 0.44939 0.39593 0.0
C539 C 0.01878 0.46457 0.52022 0.0
C540 C 0.02339 0.46107 0.59527 0.0
C541 C 0.02027 0.44602 0.47029 0.0
C542 C 0.02987 0.4387 0.61905 0.0
C543 C 0.03156 0.42026 0.56969 0.0
H544 H 0.91662 0.99255 0.11582 0.0
H545 H 0.86486 0.03166 0.99638 0.0
H546 H 0.89146 0.03593 0.8939 0.0
H547 H 0.92971 0.02949 0.83854 0.0
H548 H 0.98182 0.99069 0.95748 0.0
H549 H 0.95494 0.98561 0.05933 0.0
C550 C 0.91116 1.0021 0.06756 0.0
C551 C 0.88859 1.01169 0.0643 0.0
C552 C 0.92669 1.00464 1.00844 0.0
C553 C 0.88188 0.02375 1.00051 0.0
C554 C 0.89719 0.02636 0.94182 0.0
C555 C 0.93525 0.01986 0.88658 0.0
C556 C 0.95792 1.01054 0.88987 0.0
C557 C 0.91966 0.01697 0.94519 0.0
C558 C 0.96457 0.99807 0.95292 0.0
C559 C 0.94917 0.99517 1.01145 0.0
H560 H 0.52883 0.92771 0.1041 0.0
H561 H 0.50861 0.87384 0.95353 0.0
H562 H 0.50644 0.90222 0.85458 0.0
H563 H 0.50956 0.9426 0.81011 0.0
H564 H 0.52793 0.99665 0.96184 0.0
H565 H 0.53126 0.96812 0.06032 0.0
C566 C 0.52369 0.92213 0.04993 0.0
C567 C 0.51904 0.89844 0.03694 0.0
C568 C 0.52211 0.93868 0.99297 0.0
C569 C 0.51275 0.89175 0.96557 0.0
C570 C 0.51134 0.90805 0.9087 0.0
C571 C 0.51442 0.94812 0.86462 0.0
C572 C 0.51844 0.97184 0.8783 0.0
C573 C 0.516 0.93157 0.92161 0.0
C574 C 0.52452 0.97862 0.94962 0.0
C575 C 0.52648 0.96226 1.00613 0.0
H576 H 0.64678 0.54689 0.97169 0.0
H577 H 0.60804 0.50989 0.13655 0.0
H578 H 0.57516 0.5062 0.05244 0.0
H579 H 0.55732 0.51309 0.93094 0.0
H580 H 0.59658 0.54959 0.76607 0.0
H581 H 0.62891 0.55418 0.85141 0.0
C582 C 0.63109 0.53819 0.98963 0.0
C583 C 0.63008 0.52868 0.06077 0.0
C584 C 0.61215 0.53611 0.94082 0.0
C585 C 0.60959 0.51714 0.08208 0.0
C586 C 0.59065 0.51515 0.03404 0.0
C587 C 0.57286 0.52224 0.91384 0.0
C588 C 0.57436 0.53102 0.84185 0.0
C589 C 0.59171 0.52452 0.96313 0.0
C590 C 0.59482 0.5426 0.82082 0.0
C591 C 0.61341 0.54522 0.86969 0.0
H592 H 0.97662 0.61462 0.11314 0.0
H593 H 0.03722 0.65117 0.0348 0.0
H594 H 0.04279 0.62194 0.94108 0.0
H595 H 0.03073 0.58605 0.8803 0.0
H596 H 0.97136 0.54815 0.96071 0.0
H597 H 0.9654 0.57756 0.05485 0.0
C598 C 0.99122 0.61612 0.07623 0.0
C599 C 1.00627 0.63547 0.08124 0.0
C600 C 0.99462 0.59891 0.02248 0.0
C601 C 0.02494 0.63696 0.03185 0.0
C602 C 0.0283 0.62009 0.97826 0.0
C603 C 0.01643 0.58416 0.91824 0.0
C604 C 1.00145 0.56486 0.91272 0.0
C605 C 1.01321 0.60106 0.97274 0.0
C606 C 0.98318 0.56276 0.96322 0.0
C607 C 0.97974 0.57963 0.01721 0.0
H608 H 1.00478 0.16954 0.21725 0.0
H609 H 0.06679 0.1576 0.34527 0.0
H610 H 0.0523 0.11926 0.3809 0.0
H611 H 0.01979 0.092 0.38912 0.0
H612 H 0.95668 0.10521 0.26791 0.0
H613 H 0.97401 0.14021 0.21472 0.0
C614 C 0.01542 0.15827 0.25126 0.0
C615 C 0.03678 0.16634 0.2789 0.0
C616 C 1.00668 0.13666 0.27311 0.0
C617 C 0.05021 0.15177 0.32394 0.0
C618 C 0.04193 0.12991 0.34428 0.0
C619 C 1.01008 0.10216 0.34935 0.0
C620 C 0.987 0.09613 0.33235 0.0
C621 C 0.01985 0.12256 0.32117 0.0
C622 C 0.97443 0.10965 0.28193 0.0
C623 C 0.98431 0.12964 0.25179 0.0
H624 H 0.3558 0.98476 0.18008 0.0
H625 H 0.33935 0.91614 0.26026 0.0
H626 H 0.37813 0.91296 0.3143 0.0
H627 H 0.41365 0.93247 0.35627 0.0
H628 H 0.42965 1.00125 0.27667 0.0
H629 H 0.39407 1.00138 0.20365 0.0
C630 C 0.36089 0.96872 0.20697 0.0
C631 C 0.34452 0.95086 0.21717 0.0
C632 C 0.38298 0.96722 0.2391 0.0
C633 C 0.35147 0.93033 0.25291 0.0
C634 C 0.37362 0.92852 0.28391 0.0
C635 C 0.40973 0.94721 0.32126 0.0
C636 C 0.42401 0.96703 0.32308 0.0
C637 C 0.38909 0.9473 0.28021 0.0
C638 C 0.41862 0.98602 0.27758 0.0
C639 C 0.39832 0.98608 0.2357 0.0
H640 H 0.60142 0.33713 0.29543 0.0
H641 H 0.54585 0.36367 0.15945 0.0
H642 H 0.55386 0.40286 0.20139 0.0
H643 H 0.57189 0.42834 0.29192 0.0
H644 H 0.62466 0.40136 0.43705 0.0
H645 H 0.62233 0.36355 0.37713 0.0
C646 C 0.59117 0.35151 0.27457 0.0
C647 C 0.57283 0.34734 0.22527 0.0
C648 C 0.59513 0.37389 0.30146 0.0
C649 C 0.56016 0.36628 0.19713 0.0
C650 C 0.56455 0.38873 0.22172 0.0
C651 C 0.58335 0.41436 0.30896 0.0
C652 C 0.59831 0.41747 0.36891 0.0
C653 C 0.58133 0.39257 0.27601 0.0
C654 C 0.61286 0.39919 0.3913 0.0
C655 C 0.6115 0.37762 0.35719 0.0
H656 H 0.17689 0.5796 0.27553 0.0
H657 H 0.15981 0.51112 0.19765 0.0
H658 H 0.11982 0.51589 0.23892 0.0
H659 H 0.09185 0.53688 0.31476 0.0
H660 H 0.11036 0.60386 0.40217 0.0
H661 H 0.14733 0.60259 0.3381 0.0
C662 C 0.1643 0.56585 0.26689 0.0
C663 C 0.17135 0.5449 0.23498 0.0
C664 C 0.14161 0.5684 0.2928 0.0
C665 C 0.1548 0.52742 0.22223 0.0
C666 C 0.13198 0.53006 0.24632 0.0
C667 C 0.10387 0.55132 0.31896 0.0
C668 C 0.09855 0.57021 0.36423 0.0
C669 C 0.12551 0.55007 0.28442 0.0
C670 C 0.11397 0.5891 0.36763 0.0
C671 C 0.13526 0.58829 0.33164 0.0
H672 H 0.08788 0.83692 0.06931 0.0
H673 H 0.08396 0.86991 0.28005 0.0
H674 H 0.08606 0.90807 0.22124 0.0
H675 H 0.08392 0.93174 0.10889 0.0
H676 H 0.08733 0.89817 0.89901 0.0
H677 H 0.0909 0.86041 0.9589 0.0
C678 C 0.08826 0.85238 0.10283 0.0
C679 C 0.08562 0.85054 0.17899 0.0
C680 C 0.08906 0.87415 0.06868 0.0
C681 C 0.08568 0.87086 0.22121 0.0
C682 C 0.08686 0.89267 0.18762 0.0
C683 C 0.086 0.9162 0.07639 0.0
C684 C 0.08501 0.91766 0.9997 0.0
C685 C 0.08775 0.8945 0.11121 0.0
C686 C 0.08758 0.89739 0.95817 0.0
C687 C 0.08969 0.87583 0.99233 0.0
H688 H 0.65663 0.03146 0.231 0.0
H689 H 0.64684 0.96624 0.12026 0.0
H690 H 0.60834 0.9788 0.07901 0.0
H691 H 0.58034 1.01029 0.06052 0.0
H692 H 0.59114 0.07619 0.16617 0.0
H693 H 0.62637 0.06118 0.22494 0.0
C694 C 0.64581 0.0197 0.19967 0.0
C695 C 0.6546 0.99801 0.17824 0.0
C696 C 0.62404 0.02726 0.17485 0.0
C697 C 0.64053 0.98313 0.13661 0.0
C698 C 0.61855 0.9903 0.1131 0.0
C699 C 0.59001 0.02114 0.09818 0.0
C700 C 0.58328 0.04434 0.1089 0.0
C701 C 0.61052 1.01263 0.12983 0.0
C702 C 0.59616 0.05834 0.15677 0.0
C703 C 0.61628 0.04979 0.19014 0.0
H704 H 0.48044 0.66683 0.21256 0.0
H705 H 0.41321 0.68381 0.12185 0.0
H706 H 0.41097 0.64554 0.06524 0.0
H707 H 0.43081 0.61001 0.02677 0.0
H708 H 0.49842 0.5935 0.11561 0.0
H709 H 0.49771 0.62885 0.18857 0.0
C710 C 0.46495 0.66191 0.18242 0.0
C711 C 0.44712 0.67821 0.1707 0.0
C712 C 0.46404 0.64014 0.14875 0.0
C713 C 0.4273 0.67165 0.13071 0.0
C714 C 0.42604 0.64981 0.09826 0.0
C715 C 0.4451 0.6138 0.06363 0.0
C716 C 0.46479 0.59935 0.06495 0.0
C717 C 0.44472 0.6343 0.10456 0.0
C718 C 0.48327 0.60461 0.11254 0.0
C719 C 0.48285 0.62478 0.15438 0.0
H720 H 0.85642 0.47333 0.27077 0.0
H721 H 0.84093 0.4042 0.19505 0.0
H722 H 0.87918 0.40197 0.13789 0.0
H723 H 0.91395 0.42224 0.09306 0.0
H724 H 0.92876 0.49163 0.16773 0.0
H725 H 0.89382 0.49103 0.24281 0.0
C726 C 0.86164 0.45741 0.24414 0.0
C727 C 0.84568 0.43907 0.23638 0.0
C728 C 0.88336 0.45647 0.2101 0.0
C729 C 0.85275 0.41871 0.20073 0.0
C730 C 0.87459 0.41745 0.16791 0.0
C731 C 0.90988 0.43698 0.1273 0.0
C732 C 0.92365 0.45713 0.12375 0.0
C733 C 0.88959 0.43664 0.16955 0.0
C734 C 0.9181 0.47613 0.16822 0.0
C735 C 0.89818 0.47577 0.21131 0.0
H736 H 0.99952 0.17587 0.81966 0.0
H737 H 0.04166 0.1576 1.00664 0.0
H738 H 0.0428 0.11722 0.96641 0.0
H739 H 0.03143 0.08673 0.87878 0.0
H740 H 0.9898 0.10524 0.6906 0.0
H741 H 0.98888 0.14555 0.73061 0.0
C742 C 1.00887 0.16304 0.85183 0.0
C743 C 0.02049 0.16992 0.91627 0.0
C744 C 1.00959 0.13975 0.82803 0.0
C745 C 0.03276 0.15298 0.95652 0.0
C746 C 0.03333 0.1298 0.93366 0.0
C747 C 0.0222 0.09956 0.84627 0.0
C748 C 1.01068 0.0927 0.78155 0.0
C749 C 0.0218 0.12293 0.8695 0.0
C750 C 0.9989 0.10979 0.74043 0.0
C751 C 0.9983 0.13295 0.76342 0.0
H752 H 0.36865 0.06334 0.89008 0.0
H753 H 0.35835 0.98948 0.91263 0.0
H754 H 0.39512 0.98237 0.8504 0.0
H755 H 0.43124 0.99711 0.79303 0.0
H756 H 0.44183 0.07107 0.77576 0.0
H757 H 0.40425 0.07799 0.83258 0.0
C758 C 0.37447 0.04565 0.88213 0.0
C759 C 0.36052 0.02702 0.90657 0.0
C760 C 0.39586 0.04164 0.84694 0.0
C761 C 0.36838 1.00424 0.89395 0.0
C762 C 0.38957 1.00013 0.85859 0.0
C763 C 0.42522 0.01474 0.80098 0.0
C764 C 0.43949 0.03352 0.77975 0.0
C765 C 0.40355 0.01868 0.83503 0.0
C766 C 0.43138 0.05623 0.79141 0.0
C767 C 0.40982 0.06025 0.82413 0.0
H768 H 0.52705 0.36257 0.81591 0.0
H769 H 0.47108 0.38166 0.95947 0.0
H770 H 0.47238 0.42146 0.91312 0.0
H771 H 0.48932 0.45113 0.83133 0.0
H772 H 0.54627 0.43241 0.69096 0.0
H773 H 0.54452 0.39244 0.73578 0.0
C774 C 0.51509 0.37542 0.83688 0.0
C775 C 0.499 0.36898 0.89136 0.0
C776 C 0.51603 0.39846 0.81023 0.0
C777 C 0.48383 0.38605 0.91832 0.0
C778 C 0.48447 0.40886 0.89144 0.0
C779 C 0.50127 0.43829 0.8102 0.0
C780 C 0.51782 0.44488 0.75737 0.0
C781 C 0.50046 0.4153 0.8373 0.0
C782 C 0.53335 0.42796 0.73156 0.0
C783 C 0.53236 0.40502 0.7572 0.0
H784 H 0.15255 0.49219 0.96358 0.0
H785 H 0.18162 0.51976 0.7643 0.0
H786 H 0.14266 0.52423 0.71284 0.0
H787 H 0.09988 0.52003 0.72345 0.0
H788 H 0.07141 0.49163 0.9227 0.0
H789 H 0.11027 0.48753 0.97365 0.0
C790 C 0.15048 0.49898 0.90859 0.0
C791 C 0.17029 0.50564 0.86838 0.0
C792 C 0.12791 0.50132 0.87873 0.0
C793 C 0.1669 0.51478 0.7975 0.0
C794 C 0.14452 0.5172 0.76758 0.0
C795 C 0.10215 0.51289 0.77792 0.0
C796 C 0.08246 0.50617 0.81873 0.0
C797 C 0.12483 0.51052 0.80759 0.0
C798 C 0.086 0.497 0.88947 0.0
C799 C 0.10834 0.49463 0.919 0.0
H800 H 0.97261 0.87741 0.56455 0.0
H801 H 0.04682 0.87165 0.537 0.0
H802 H 0.05217 0.90962 0.59332 0.0
H803 H 0.0357 0.94548 0.64695 0.0
H804 H 0.9613 0.95145 0.66875 0.0
H805 H 0.95627 0.91277 0.61794 0.0
C806 C 0.98999 0.88447 0.57 0.0
C807 C 1.00923 0.8714 0.54598 0.0
C808 C 0.99297 0.90656 0.60171 0.0
C809 C 0.03161 0.88093 0.55548 0.0
C810 C 0.03471 0.90282 0.58744 0.0
C811 C 0.0184 0.93824 0.64122 0.0
C812 C 0.99893 0.95155 0.66191 0.0
C813 C 0.01552 0.91589 0.61057 0.0
C814 C 0.97665 0.9418 0.65331 0.0
C815 C 0.97371 0.9196 0.62406 0.0
H816 H 0.66467 0.02574 0.64668 0.0
H817 H 0.64728 0.99276 0.4425 0.0
H818 H 0.60632 0.99214 0.47652 0.0
H819 H 0.57512 1.00148 0.56302 0.0
H820 H 0.59223 0.03445 0.76752 0.0
H821 H 0.63334 0.03457 0.73448 0.0
C822 C 0.65192 0.01851 0.60943 0.0
C823 C 0.65925 1.00925 0.54202 0.0
C824 C 0.62821 0.01818 0.62943 0.0
C825 C 0.64236 0.99973 0.49507 0.0
C826 C 0.61883 0.99947 0.51434 0.0
C827 C 0.58779 1.00864 0.60068 0.0
C828 C 0.58035 0.01796 0.66788 0.0
C829 C 0.61152 1.00867 0.58132 0.0
C830 C 0.59725 0.0271 0.71559 0.0
C831 C 0.62085 0.02723 0.69661 0.0
H832 H 0.53732 0.65427 0.46699 0.0
H833 H 0.49126 0.67995 0.63332 0.0
H834 H 0.49019 0.64148 0.69039 0.0
H835 H 0.5019 0.59978 0.69193 0.0
H836 H 0.54727 0.57502 0.52186 0.0
H837 H 0.54872 0.6135 0.46794 0.0
C838 C 0.52677 0.6515 0.51518 0.0
C839 C 0.51434 0.6702 0.54523 0.0
C840 C 0.52608 0.62926 0.54756 0.0
C841 C 0.50124 0.6661 0.60895 0.0
C842 C 0.50052 0.64398 0.64162 0.0
C843 C 0.51219 0.60286 0.64335 0.0
C844 C 0.52437 0.58426 0.61127 0.0
C845 C 0.51288 0.62534 0.61145 0.0
C846 C 0.53753 0.58874 0.54795 0.0
C847 C 0.53843 0.61086 0.51675 0.0
H848 H 0.87239 0.55263 0.56301 0.0
H849 H 0.86353 0.47862 0.54175 0.0
H850 H 0.90034 0.47214 0.60579 0.0
H851 H 0.9361 0.48752 0.66464 0.0
H852 H 0.94508 0.56167 0.68095 0.0
H853 H 0.90754 0.56789 0.62205 0.0
C854 C 0.87853 0.53504 0.57162 0.0
C855 C 0.86497 0.51619 0.54694 0.0
C856 C 0.89992 0.5314 0.60796 0.0
C857 C 0.87326 0.49355 0.5605 0.0
C858 C 0.89446 0.4898 0.59693 0.0
C859 C 0.92974 0.50503 0.65597 0.0
C860 C 0.94359 0.52408 0.67753 0.0
C861 C 0.90805 0.50859 0.62075 0.0
C862 C 0.93501 0.54663 0.665 0.0
C863 C 0.91346 0.55025 0.63111 0.0
loop_
_geom_bond_atom_site_label_1
_geom_bond_atom_site_label_2
_geom_bond_distance
_geom_bond_site_symmetry_2
_ccdc_geom_bond_type
C0 C1 1.264 . S
C0 C5 1.479 . S
C0 C10 1.465 . S
C1 C0 1.264 . S
C1 C3 1.339 . S
C1 H28 0.931 . S
C2 C3 1.395 . S
C2 C4 1.320 . S
C3 C1 1.339 . S
C3 C2 1.395 . S
C3 H29 0.929 . S
C4 C2 1.320 . S
C4 C5 1.405 . S
C4 H30 0.930 . S
C5 C0 1.479 . S
C5 C4 1.405 . S
C5 H31 0.931 . S
U6 O7 2.454 . S
U6 O8 2.458 . S
U6 C9 2.984 . S
U6 C10 2.847 . S
U6 C23 2.882 . S
U6 O24 2.441 . S
U6 O25 2.420 . S
U6 O26 2.455 . S
U6 O27 2.449 . S
O7 U6 2.454 . S
O7 C9 1.353 . S
O8 U6 2.458 . S
O8 C9 1.286 . S
C9 U6 2.984 . S
C9 O7 1.353 . S
C9 O8 1.286 . S
C9 C11 1.363 . S
C10 C0 1.465 . S
C10 U6 2.847 . S
C10 O24 1.249 . S
C10 O25 1.202 . S
C11 C9 1.363 . S
C11 C13 1.408 . S
C11 C16 1.342 . S
C12 C13 1.310 . S
C12 C15 1.461 . S
C12 H32 0.932 . S
C13 C11 1.408 . S
C13 C12 1.310 . S
C13 H33 0.930 . S
C14 C15 1.474 . S
C14 C16 1.285 . S
C14 H34 0.929 . S
C15 C12 1.461 . S
C15 C14 1.474 . S
C16 C11 1.342 . S
C16 C14 1.285 . S
C16 H35 0.930 . S
C17 C20 1.424 . S
C17 C22 1.245 . S
C17 C23 1.428 . S
C18 C21 1.260 . S
C18 C22 1.477 . S
C18 H36 0.932 . S
C19 C20 1.384 . S
C19 C21 1.479 . S
C19 H37 0.929 . S
C20 C17 1.424 . S
C20 C19 1.384 . S
C20 H38 0.928 . S
C21 C18 1.260 . S
C21 C19 1.479 . S
C22 C17 1.245 . S
C22 C18 1.477 . S
C22 H39 0.932 . S
C23 U6 2.882 . S
C23 C17 1.428 . S
C23 O26 1.301 . S
C23 O27 1.282 . S
O24 U6 2.441 . S
O24 C10 1.249 . S
O25 U6 2.420 . S
O25 C10 1.202 . S
O26 U6 2.455 . S
O26 C23 1.301 . S
O27 U6 2.449 . S
O27 C23 1.282 . S
H28 C1 0.931 . S
H29 C3 0.929 . S
H30 C4 0.930 . S
H31 C5 0.931 . S
H32 C12 0.932 . S
H33 C13 0.930 . S
H34 C14 0.929 . S
H35 C16 0.930 . S
H36 C18 0.932 . S
H37 C19 0.929 . S
H38 C20 0.928 . S
H39 C22 0.932 . S
C40 C41 1.264 . S
C40 C45 1.479 . S
C40 C50 1.465 . S
C41 C40 1.264 . S
C41 C43 1.339 . S
C41 H68 0.931 . S
C42 C43 1.395 . S
C42 C44 1.320 . S
C43 C41 1.339 . S
C43 C42 1.395 . S
C43 H69 0.929 . S
C44 C42 1.320 . S
C44 C45 1.405 . S
C44 H70 0.921 1_455 S
C45 C40 1.479 . S
C45 C44 1.405 . S
C45 H71 0.931 . S
U46 O47 2.454 . S
U46 O48 2.458 . S
U46 C49 2.984 . S
U46 C50 2.847 . S
U46 C63 2.882 . S
U46 O64 2.441 . S
U46 O65 2.420 . S
U46 O66 2.455 . S
U46 O67 2.449 . S
O47 U46 2.454 . S
O47 C49 1.353 . S
O48 U46 2.458 . S
O48 C49 1.286 . S
C49 U46 2.984 . S
C49 O47 1.353 . S
C49 O48 1.286 . S
C49 C51 1.363 . S
C50 C40 1.465 . S
C50 U46 2.847 . S
C50 O64 1.249 . S
C50 O65 1.202 . S
C51 C49 1.363 . S
C51 C53 1.408 . S
C51 C56 1.342 . S
C52 C53 1.310 . S
C52 C55 1.461 . S
C52 H72 0.932 . S
C53 C51 1.408 . S
C53 C52 1.310 . S
C53 H73 0.930 . S
C54 C55 1.474 1_655 S
C54 C56 1.285 1_655 S
C54 H74 0.930 . S
C55 C52 1.461 . S
C55 C54 1.474 1_455 S
C56 C51 1.342 . S
C56 C54 1.285 1_455 S
C56 H75 0.933 . S
C57 C60 1.424 . S
C57 C62 1.245 . S
C57 C63 1.428 . S
C58 C61 1.260 . S
C58 C62 1.477 . S
C58 H76 0.932 . S
C59 C60 1.384 . S
C59 C61 1.479 . S
C59 H77 0.929 . S
C60 C57 1.424 . S
C60 C59 1.384 . S
C60 H78 0.928 . S
C61 C58 1.260 . S
C61 C59 1.479 . S
C62 C57 1.245 . S
C62 C58 1.477 . S
C62 H79 0.932 . S
C63 U46 2.882 . S
C63 C57 1.428 . S
C63 O66 1.301 . S
C63 O67 1.282 . S
O64 U46 2.441 . S
O64 C50 1.249 . S
O65 U46 2.420 . S
O65 C50 1.202 . S
O66 U46 2.455 . S
O66 C63 1.301 . S
O67 U46 2.449 . S
O67 C63 1.282 . S
H68 C41 0.931 . S
H69 C43 0.929 . S
H70 C44 0.921 1_655 S
H71 C45 0.931 . S
H72 C52 0.932 . S
H73 C53 0.930 . S
H74 C54 0.930 . S
H75 C56 0.933 . S
H76 C58 0.932 . S
H77 C59 0.929 . S
H78 C60 0.928 . S
H79 C62 0.932 . S
C80 C81 1.264 . S
C80 C85 1.479 . S
C80 C90 1.465 . S
C81 C80 1.264 . S
C81 C83 1.339 . S
C81 H108 0.931 . S
C82 C83 1.395 . S
C82 C84 1.320 . S
C83 C81 1.339 . S
C83 C82 1.395 . S
C83 H109 0.929 . S
C84 C82 1.320 . S
C84 C85 1.405 . S
C84 H110 0.921 1_545 S
C85 C80 1.479 . S
C85 C84 1.405 . S
C85 H111 0.931 . S
U86 O87 2.454 . S
U86 O88 2.458 . S
U86 C89 2.984 . S
U86 C90 2.847 . S
U86 C103 2.882 . S
U86 O104 2.441 . S
U86 O105 2.420 . S
U86 O106 2.455 . S
U86 O107 2.449 . S
O87 U86 2.454 . S
O87 C89 1.353 . S
O88 U86 2.458 . S
O88 C89 1.286 . S
C89 U86 2.984 . S
C89 O87 1.353 . S
C89 O88 1.286 . S
C89 C91 1.363 . S
C90 C80 1.465 . S
C90 U86 2.847 . S
C90 O104 1.249 . S
C90 O105 1.202 . S
C91 C89 1.363 . S
C91 C93 1.408 . S
C91 C96 1.342 . S
C92 C93 1.310 . S
C92 C95 1.461 . S
C92 H112 0.932 . S
C93 C91 1.408 . S
C93 C92 1.310 . S
C93 H113 0.930 . S
C94 C95 1.474 1_565 S
C94 C96 1.285 1_565 S
C94 H114 0.930 . S
C95 C92 1.461 . S
C95 C94 1.474 1_545 S
C96 C91 1.342 . S
C96 C94 1.285 1_545 S
C96 H115 0.933 . S
C97 C100 1.424 . S
C97 C102 1.245 . S
C97 C103 1.428 . S
C98 C101 1.260 . S
C98 C102 1.477 . S
C98 H116 0.932 . S
C99 C100 1.384 . S
C99 C101 1.479 . S
C99 H117 0.929 . S
C100 C97 1.424 . S
C100 C99 1.384 . S
C100 H118 0.928 . S
C101 C98 1.260 . S
C101 C99 1.479 . S
C102 C97 1.245 . S
C102 C98 1.477 . S
C102 H119 0.932 . S
C103 U86 2.882 . S
C103 C97 1.428 . S
C103 O106 1.301 . S
C103 O107 1.282 . S
O104 U86 2.441 . S
O104 C90 1.249 . S
O105 U86 2.420 . S
O105 C90 1.202 . S
O106 U86 2.455 . S
O106 C103 1.301 . S
O107 U86 2.449 . S
O107 C103 1.282 . S
H108 C81 0.931 . S
H109 C83 0.929 . S
H110 C84 0.921 1_565 S
H111 C85 0.931 . S
H112 C92 0.932 . S
H113 C93 0.930 . S
H114 C94 0.930 . S
H115 C96 0.933 . S
H116 C98 0.932 . S
H117 C99 0.929 . S
H118 C100 0.928 . S
H119 C102 0.932 . S
C120 C121 1.264 . S
C120 C125 1.479 . S
C120 C130 1.465 . S
C121 C120 1.264 . S
C121 C123 1.339 . S
C121 H148 0.931 . S
C122 C123 1.395 . S
C122 C124 1.320 . S
C123 C121 1.339 . S
C123 C122 1.395 . S
C123 H149 0.929 . S
C124 C122 1.320 . S
C124 C125 1.405 . S
C124 H150 0.930 . S
C125 C120 1.479 . S
C125 C124 1.405 . S
C125 H151 0.931 . S
U126 O127 2.454 . S
U126 O128 2.458 . S
U126 C129 2.984 . S
U126 C130 2.847 . S
U126 C143 2.882 . S
U126 O144 2.441 . S
U126 O145 2.420 . S
U126 O146 2.455 . S
U126 O147 2.449 . S
O127 U126 2.454 . S
O127 C129 1.353 . S
O128 U126 2.458 . S
O128 C129 1.286 . S
C129 U126 2.984 . S
C129 O127 1.353 . S
C129 O128 1.286 . S
C129 C131 1.363 . S
C130 C120 1.465 . S
C130 U126 2.847 . S
C130 O144 1.249 . S
C130 O145 1.202 . S
C131 C129 1.363 . S
C131 C133 1.408 . S
C131 C136 1.342 . S
C132 C133 1.310 . S
C132 C135 1.461 . S
C132 H152 0.932 . S
C133 C131 1.408 . S
C133 C132 1.310 . S
C133 H153 0.930 . S
C134 C135 1.474 . S
C134 C136 1.285 . S
C134 H154 0.929 . S
C135 C132 1.461 . S
C135 C134 1.474 . S
C136 C131 1.342 . S
C136 C134 1.285 . S
C136 H155 0.930 . S
C137 C140 1.424 . S
C137 C142 1.245 . S
C137 C143 1.428 . S
C138 C141 1.260 . S
C138 C142 1.477 . S
C138 H156 0.932 . S
C139 C140 1.384 . S
C139 C141 1.479 . S
C139 H157 0.929 . S
C140 C137 1.424 . S
C140 C139 1.384 . S
C140 H158 0.928 . S
C141 C138 1.260 . S
C141 C139 1.479 . S
C142 C137 1.245 . S
C142 C138 1.477 . S
C142 H159 0.932 . S
C143 U126 2.882 . S
C143 C137 1.428 . S
C143 O146 1.301 . S
C143 O147 1.282 . S
O144 U126 2.441 . S
O144 C130 1.249 . S
O145 U126 2.420 . S
O145 C130 1.202 . S
O146 U126 2.455 . S
O146 C143 1.301 . S
O147 U126 2.449 . S
O147 C143 1.282 . S
H148 C121 0.931 . S
H149 C123 0.929 . S
H150 C124 0.930 . S
H151 C125 0.931 . S
H152 C132 0.932 . S
H153 C133 0.930 . S
H154 C134 0.929 . S
H155 C136 0.930 . S
H156 C138 0.932 . S
H157 C139 0.929 . S
H158 C140 0.928 . S
H159 C142 0.932 . S
C160 C161 1.264 . S
C160 C165 1.479 . S
C160 C170 1.465 . S
C161 C160 1.264 . S
C161 C163 1.339 . S
C161 H188 0.931 . S
C162 C163 1.395 . S
C162 C164 1.320 . S
C163 C161 1.339 . S
C163 C162 1.395 . S
C163 H189 0.929 . S
C164 C162 1.320 . S
C164 C165 1.405 . S
C164 H190 0.930 . S
C165 C160 1.479 . S
C165 C164 1.405 . S
C165 H191 0.931 . S
U166 O167 2.454 . S
U166 O168 2.458 . S
U166 C169 2.984 . S
U166 C170 2.847 1_554 S
U166 C183 2.882 . S
U166 O184 2.441 1_554 S
U166 O185 2.420 1_554 S
U166 O186 2.455 . S
U166 O187 2.449 . S
O167 U166 2.454 . S
O167 C169 1.353 . S
O168 U166 2.458 . S
O168 C169 1.286 . S
C169 U166 2.984 . S
C169 O167 1.353 . S
C169 O168 1.286 . S
C169 C171 1.363 . S
C170 C160 1.465 . S
C170 U166 2.847 1_556 S
C170 O184 1.249 . S
C170 O185 1.202 . S
C171 C169 1.363 . S
C171 C173 1.408 . S
C171 C176 1.342 . S
C172 C173 1.310 . S
C172 C175 1.461 . S
C172 H192 0.932 . S
C173 C171 1.408 . S
C173 C172 1.310 . S
C173 H193 0.930 . S
C174 C175 1.474 . S
C174 C176 1.285 . S
C174 H194 0.929 . S
C175 C172 1.461 . S
C175 C174 1.474 . S
C176 C171 1.342 . S
C176 C174 1.285 . S
C176 H195 0.930 . S
C177 C180 1.424 . S
C177 C182 1.245 . S
C177 C183 1.428 . S
C178 C181 1.260 . S
C178 C182 1.477 . S
C178 H196 0.932 . S
C179 C180 1.384 . S
C179 C181 1.479 . S
C179 H197 0.929 . S
C180 C177 1.424 . S
C180 C179 1.384 . S
C180 H198 0.928 . S
C181 C178 1.260 . S
C181 C179 1.479 . S
C182 C177 1.245 . S
C182 C178 1.477 . S
C182 H199 0.932 . S
C183 U166 2.882 . S
C183 C177 1.428 . S
C183 O186 1.301 . S
C183 O187 1.282 . S
O184 U166 2.441 1_556 S
O184 C170 1.249 . S
O185 U166 2.420 1_556 S
O185 C170 1.202 . S
O186 U166 2.455 . S
O186 C183 1.301 . S
O187 U166 2.449 . S
O187 C183 1.282 . S
H188 C161 0.931 . S
H189 C163 0.929 . S
H190 C164 0.930 . S
H191 C165 0.931 . S
H192 C172 0.932 . S
H193 C173 0.930 . S
H194 C174 0.929 . S
H195 C176 0.930 . S
H196 C178 0.932 . S
H197 C179 0.929 . S
H198 C180 0.928 . S
H199 C182 0.932 . S
C200 C201 1.264 . S
C200 C205 1.479 . S
C200 C210 1.465 . S
C201 C200 1.264 . S
C201 C203 1.339 . S
C201 H228 0.931 . S
C202 C203 1.395 . S
C202 C204 1.320 . S
C203 C201 1.339 . S
C203 C202 1.395 . S
C203 H229 0.929 . S
C204 C202 1.320 . S
C204 C205 1.405 . S
C204 H230 0.923 1_455 S
C205 C200 1.479 . S
C205 C204 1.405 . S
C205 H231 0.931 . S
U206 O207 2.454 . S
U206 O208 2.458 . S
U206 C209 2.984 . S
U206 C210 2.847 1_554 S
U206 C223 2.882 . S
U206 O224 2.441 1_554 S
U206 O225 2.420 1_554 S
U206 O226 2.455 . S
U206 O227 2.449 . S
O207 U206 2.454 . S
O207 C209 1.353 . S
O208 U206 2.458 . S
O208 C209 1.286 . S
C209 U206 2.984 . S
C209 O207 1.353 . S
C209 O208 1.286 . S
C209 C211 1.363 . S
C210 C200 1.465 . S
C210 U206 2.847 1_556 S
C210 O224 1.249 . S
C210 O225 1.202 . S
C211 C209 1.363 . S
C211 C213 1.408 . S
C211 C216 1.342 . S
C212 C213 1.310 . S
C212 C215 1.462 . S
C212 H232 0.932 . S
C213 C211 1.408 . S
C213 C212 1.310 . S
C213 H233 0.930 . S
C214 C215 1.474 1_655 S
C214 C216 1.286 1_655 S
C214 H234 0.929 . S
C215 C212 1.462 . S
C215 C214 1.474 1_455 S
C216 C211 1.342 . S
C216 C214 1.286 1_455 S
C216 H235 0.933 . S
C217 C220 1.424 . S
C217 C222 1.245 . S
C217 C223 1.428 . S
C218 C221 1.260 . S
C218 C222 1.477 . S
C218 H236 0.932 . S
C219 C220 1.384 . S
C219 C221 1.479 . S
C219 H237 0.929 . S
C220 C217 1.424 . S
C220 C219 1.384 . S
C220 H238 0.928 . S
C221 C218 1.260 . S
C221 C219 1.479 . S
C222 C217 1.245 . S
C222 C218 1.477 . S
C222 H239 0.932 . S
C223 U206 2.882 . S
C223 C217 1.428 . S
C223 O226 1.301 . S
C223 O227 1.282 . S
O224 U206 2.441 1_556 S
O224 C210 1.249 . S
O225 U206 2.420 1_556 S
O225 C210 1.202 . S
O226 U206 2.455 . S
O226 C223 1.301 . S
O227 U206 2.449 . S
O227 C223 1.282 . S
H228 C201 0.931 . S
H229 C203 0.929 . S
H230 C204 0.923 1_655 S
H231 C205 0.931 . S
H232 C212 0.932 . S
H233 C213 0.930 . S
H234 C214 0.929 . S
H235 C216 0.933 . S
H236 C218 0.932 . S
H237 C219 0.929 . S
H238 C220 0.928 . S
H239 C222 0.932 . S
C240 C241 1.264 . S
C240 C245 1.479 . S
C240 C250 1.465 . S
C241 C240 1.264 . S
C241 C243 1.339 . S
C241 H268 0.931 . S
C242 C243 1.395 . S
C242 C244 1.320 . S
C243 C241 1.339 . S
C243 C242 1.395 . S
C243 H269 0.929 . S
C244 C242 1.320 . S
C244 C245 1.405 . S
C244 H270 0.923 1_545 S
C245 C240 1.479 . S
C245 C244 1.405 . S
C245 H271 0.931 . S
U246 O247 2.454 . S
U246 O248 2.458 . S
U246 C249 2.984 . S
U246 C250 2.847 1_554 S
U246 C263 2.882 . S
U246 O264 2.441 1_554 S
U246 O265 2.420 1_554 S
U246 O266 2.455 . S
U246 O267 2.449 . S
O247 U246 2.454 . S
O247 C249 1.353 . S
O248 U246 2.458 . S
O248 C249 1.286 . S
C249 U246 2.984 . S
C249 O247 1.353 . S
C249 O248 1.286 . S
C249 C251 1.363 . S
C250 C240 1.465 . S
C250 U246 2.847 1_556 S
C250 O264 1.249 . S
C250 O265 1.202 . S
C251 C249 1.363 . S
C251 C253 1.408 . S
C251 C256 1.342 . S
C252 C253 1.310 . S
C252 C255 1.462 . S
C252 H272 0.932 . S
C253 C251 1.408 . S
C253 C252 1.310 . S
C253 H273 0.930 . S
C254 C255 1.474 1_565 S
C254 C256 1.286 1_565 S
C254 H274 0.929 . S
C255 C252 1.462 . S
C255 C254 1.474 1_545 S
C256 C251 1.342 . S
C256 C254 1.286 1_545 S
C256 H275 0.933 . S
C257 C260 1.424 . S
C257 C262 1.245 . S
C257 C263 1.428 . S
C258 C261 1.260 . S
C258 C262 1.477 . S
C258 H276 0.932 . S
C259 C260 1.384 . S
C259 C261 1.479 . S
C259 H277 0.929 . S
C260 C257 1.424 . S
C260 C259 1.384 . S
C260 H278 0.928 . S
C261 C258 1.260 . S
C261 C259 1.479 . S
C262 C257 1.245 . S
C262 C258 1.477 . S
C262 H279 0.932 . S
C263 U246 2.882 . S
C263 C257 1.428 . S
C263 O266 1.301 . S
C263 O267 1.282 . S
O264 U246 2.441 1_556 S
O264 C250 1.249 . S
O265 U246 2.420 1_556 S
O265 C250 1.202 . S
O266 U246 2.455 . S
O266 C263 1.301 . S
O267 U246 2.449 . S
O267 C263 1.282 . S
H268 C241 0.931 . S
H269 C243 0.929 . S
H270 C244 0.923 1_565 S
H271 C245 0.931 . S
H272 C252 0.932 . S
H273 C253 0.930 . S
H274 C254 0.929 . S
H275 C256 0.933 . S
H276 C258 0.932 . S
H277 C259 0.929 . S
H278 C260 0.928 . S
H279 C262 0.932 . S
C280 C281 1.264 . S
C280 C285 1.479 . S
C280 C290 1.465 . S
C281 C280 1.264 . S
C281 C283 1.339 . S
C281 H308 0.931 . S
C282 C283 1.395 . S
C282 C284 1.320 . S
C283 C281 1.339 . S
C283 C282 1.395 . S
C283 H309 0.929 . S
C284 C282 1.320 . S
C284 C285 1.405 . S
C284 H310 0.930 . S
C285 C280 1.479 . S
C285 C284 1.405 . S
C285 H311 0.931 . S
U286 O287 2.454 . S
U286 O288 2.458 . S
U286 C289 2.984 . S
U286 C290 2.847 1_554 S
U286 C303 2.882 . S
U286 O304 2.441 1_554 S
U286 O305 2.420 1_554 S
U286 O306 2.455 . S
U286 O307 2.449 . S
O287 U286 2.454 . S
O287 C289 1.353 . S
O288 U286 2.458 . S
O288 C289 1.286 . S
C289 U286 2.984 . S
C289 O287 1.353 . S
C289 O288 1.286 . S
C289 C291 1.363 . S
C290 C280 1.465 . S
C290 U286 2.847 1_556 S
C290 O304 1.249 . S
C290 O305 1.202 . S
C291 C289 1.363 . S
C291 C293 1.408 . S
C291 C296 1.342 . S
C292 C293 1.310 . S
C292 C295 1.461 . S
C292 H312 0.932 . S
C293 C291 1.408 . S
C293 C292 1.310 . S
C293 H313 0.933 . S
C294 C295 1.474 . S
C294 C296 1.285 . S
C294 H314 0.929 . S
C295 C292 1.461 . S
C295 C294 1.474 . S
C296 C291 1.342 . S
C296 C294 1.285 . S
C296 H315 0.930 . S
C297 C300 1.424 . S
C297 C302 1.245 . S
C297 C303 1.428 . S
C298 C301 1.260 . S
C298 C302 1.477 . S
C298 H316 0.932 . S
C299 C300 1.384 . S
C299 C301 1.479 . S
C299 H317 0.929 . S
C300 C297 1.424 . S
C300 C299 1.384 . S
C300 H318 0.928 . S
C301 C298 1.260 . S
C301 C299 1.479 . S
C302 C297 1.245 . S
C302 C298 1.477 . S
C302 H319 0.932 . S
C303 U286 2.882 . S
C303 C297 1.428 . S
C303 O306 1.301 . S
C303 O307 1.282 . S
O304 U286 2.441 1_556 S
O304 C290 1.249 . S
O305 U286 2.420 1_556 S
O305 C290 1.202 . S
O306 U286 2.455 . S
O306 C303 1.301 . S
O307 U286 2.449 . S
O307 C303 1.282 . S
H308 C281 0.931 . S
H309 C283 0.929 . S
H310 C284 0.930 . S
H311 C285 0.931 . S
H312 C292 0.932 . S
H313 C293 0.933 . S
H314 C294 0.929 . S
H315 C296 0.930 . S
H316 C298 0.932 . S
H317 C299 0.929 . S
H318 C300 0.928 . S
H319 C302 0.932 . S
Tb320 C330 2.825 . S
Tb320 O331 2.347 1_455 S
Tb320 O334 2.366 . S
Tb320 O339 2.418 . S
Tb320 O340 2.384 1_565 S
Tb320 O343 2.479 . S
Tb320 O344 2.471 . S
Eu321 O332 2.418 . S
Eu321 O333 2.384 1_545 S
Eu321 O336 2.479 . S
Eu321 O337 2.471 . S
Eu321 O338 2.347 1_655 S
Eu321 O341 2.366 . S
Eu321 C351 2.825 . S
C322 O338 1.259 1_565 S
C322 O339 1.265 . S
C323 O340 1.255 . S
C323 O341 1.265 1_455 S
C324 C326 1.380 . S
C324 C327 1.374 . S
C324 C330 1.507 . S
C325 C326 1.384 . S
C325 C329 1.387 . S
C325 H352 0.930 . S
C326 C324 1.380 . S
C326 C325 1.384 . S
C326 H353 0.931 . S
C327 C324 1.374 . S
C327 C328 1.390 . S
C327 H354 0.930 1_455 S
C328 C327 1.390 . S
C328 C329 1.391 . S
C328 H355 0.930 1_455 S
C329 C325 1.387 . S
C329 C328 1.391 . S
C330 Tb320 2.825 . S
C330 C324 1.507 . S
C330 O343 1.238 . S
C330 O344 1.247 . S
O331 Tb320 2.347 1_655 S
O331 C335 1.259 1_565 S
O332 Eu321 2.418 . S
O332 C335 1.265 . S
O333 Eu321 2.384 1_565 S
O333 C342 1.255 . S
O334 Tb320 2.366 . S
O334 C342 1.265 1_455 S
C335 O331 1.259 1_545 S
C335 O332 1.265 . S
O336 Eu321 2.479 . S
O336 C351 1.238 . S
O337 Eu321 2.471 . S
O337 C351 1.247 . S
O338 Eu321 2.347 1_455 S
O338 C322 1.259 1_545 S
O339 Tb320 2.418 . S
O339 C322 1.265 . S
O340 Tb320 2.384 1_545 S
O340 C323 1.255 . S
O341 Eu321 2.366 . S
O341 C323 1.265 1_655 S
C342 O333 1.255 . S
C342 O334 1.265 1_655 S
O343 Tb320 2.479 . S
O343 C330 1.238 . S
O344 Tb320 2.471 . S
O344 C330 1.247 . S
C345 C348 1.380 . S
C345 C349 1.374 . S
C345 C351 1.507 . S
C346 C347 1.387 . S
C346 C350 1.391 . S
C347 C346 1.387 . S
C347 C348 1.384 . S
C347 H356 0.930 . S
C348 C345 1.380 . S
C348 C347 1.384 . S
C348 H357 0.931 . S
C349 C345 1.374 . S
C349 C350 1.390 . S
C349 H358 0.930 1_655 S
C350 C346 1.391 . S
C350 C349 1.390 . S
C350 H359 0.930 1_655 S
C351 Eu321 2.825 . S
C351 O336 1.238 . S
C351 O337 1.247 . S
C351 C345 1.507 . S
H352 C325 0.930 . S
H353 C326 0.931 . S
H354 C327 0.930 1_655 S
H355 C328 0.930 1_655 S
H356 C347 0.930 . S
H357 C348 0.931 . S
H358 C349 0.930 1_455 S
H359 C350 0.930 1_455 S
Tb360 C370 2.825 . S
Tb360 O371 2.347 1_545 S
Tb360 O374 2.366 . S
Tb360 O379 2.418 . S
Tb360 O380 2.384 . S
Tb360 O383 2.479 . S
Tb360 O384 2.471 . S
Eu361 O372 2.418 . S
Eu361 O373 2.384 . S
Eu361 O376 2.479 . S
Eu361 O377 2.471 . S
Eu361 O378 2.347 1_565 S
Eu361 O381 2.366 . S
Eu361 C391 2.825 . S
C362 O378 1.259 . S
C362 O379 1.265 . S
C363 O380 1.255 . S
C363 O381 1.265 1_545 S
C364 C366 1.380 . S
C364 C367 1.374 . S
C364 C370 1.507 . S
C365 C366 1.384 . S
C365 C369 1.387 . S
C365 H392 0.930 . S
C366 C364 1.380 . S
C366 C365 1.384 . S
C366 H393 0.931 . S
C367 C364 1.374 . S
C367 C368 1.390 . S
C367 H394 0.930 1_545 S
C368 C367 1.390 . S
C368 C369 1.391 . S
C368 H395 0.930 1_545 S
C369 C365 1.387 . S
C369 C368 1.391 . S
C370 Tb360 2.825 . S
C370 C364 1.507 . S
C370 O383 1.238 . S
C370 O384 1.247 . S
O371 Tb360 2.347 1_565 S
O371 C375 1.259 . S
O372 Eu361 2.418 . S
O372 C375 1.265 . S
O373 Eu361 2.384 . S
O373 C382 1.255 . S
O374 Tb360 2.366 . S
O374 C382 1.265 1_545 S
C375 O371 1.259 . S
C375 O372 1.265 . S
O376 Eu361 2.479 . S
O376 C391 1.238 . S
O377 Eu361 2.471 . S
O377 C391 1.247 . S
O378 Eu361 2.347 1_545 S
O378 C362 1.259 . S
O379 Tb360 2.418 . S
O379 C362 1.265 . S
O380 Tb360 2.384 . S
O380 C363 1.255 . S
O381 Eu361 2.366 . S
O381 C363 1.265 1_565 S
C382 O373 1.255 . S
C382 O374 1.265 1_565 S
O383 Tb360 2.479 . S
O383 C370 1.238 . S
O384 Tb360 2.471 . S
O384 C370 1.247 . S
C385 C388 1.380 . S
C385 C389 1.374 . S
C385 C391 1.507 . S
C386 C387 1.387 . S
C386 C390 1.391 . S
C387 C386 1.387 . S
C387 C388 1.384 . S
C387 H396 0.930 . S
C388 C385 1.380 . S
C388 C387 1.384 . S
C388 H397 0.931 . S
C389 C385 1.374 . S
C389 C390 1.390 . S
C389 H398 0.930 1_565 S
C390 C386 1.391 . S
C390 C389 1.390 . S
C390 H399 0.930 1_565 S
C391 Eu361 2.825 . S
C391 O376 1.238 . S
C391 O377 1.247 . S
C391 C385 1.507 . S
H392 C365 0.930 . S
H393 C366 0.931 . S
H394 C367 0.930 1_565 S
H395 C368 0.930 1_565 S
H396 C387 0.930 . S
H397 C388 0.931 . S
H398 C389 0.930 1_545 S
H399 C390 0.930 1_545 S
Tb400 C410 2.825 . S
Tb400 O411 2.347 . S
Tb400 O414 2.366 . S
Tb400 O419 2.418 . S
Tb400 O420 2.384 . S
Tb400 O423 2.479 . S
Tb400 O424 2.471 . S
Eu401 O412 2.418 . S
Eu401 O413 2.384 . S
Eu401 O416 2.479 . S
Eu401 O417 2.471 . S
Eu401 O418 2.347 . S
Eu401 O421 2.366 . S
Eu401 C431 2.825 . S
C402 O418 1.259 . S
C402 O419 1.265 . S
C403 O420 1.255 . S
C403 O421 1.265 . S
C404 C406 1.380 . S
C404 C407 1.374 . S
C404 C410 1.507 . S
C405 C406 1.384 . S
C405 C409 1.387 . S
C405 H432 0.930 . S
C406 C404 1.380 . S
C406 C405 1.384 . S
C406 H433 0.931 . S
C407 C404 1.374 . S
C407 C408 1.390 . S
C407 H434 0.930 . S
C408 C407 1.390 . S
C408 C409 1.391 . S
C408 H435 0.930 . S
C409 C405 1.387 . S
C409 C408 1.391 . S
C410 Tb400 2.825 . S
C410 C404 1.507 . S
C410 O423 1.238 . S
C410 O424 1.247 . S
O411 Tb400 2.347 . S
O411 C415 1.259 . S
O412 Eu401 2.418 . S
O412 C415 1.265 . S
O413 Eu401 2.384 . S
O413 C422 1.255 . S
O414 Tb400 2.366 . S
O414 C422 1.265 . S
C415 O411 1.259 . S
C415 O412 1.265 . S
O416 Eu401 2.479 . S
O416 C431 1.238 . S
O417 Eu401 2.471 . S
O417 C431 1.247 . S
O418 Eu401 2.347 . S
O418 C402 1.259 . S
O419 Tb400 2.418 . S
O419 C402 1.265 . S
O420 Tb400 2.384 . S
O420 C403 1.255 . S
O421 Eu401 2.366 . S
O421 C403 1.265 . S
C422 O413 1.255 . S
C422 O414 1.265 . S
O423 Tb400 2.479 . S
O423 C410 1.238 . S
O424 Tb400 2.471 . S
O424 C410 1.247 . S
C425 C428 1.380 . S
C425 C429 1.374 . S
C425 C431 1.507 . S
C426 C427 1.387 . S
C426 C430 1.391 . S
C427 C426 1.387 . S
C427 C428 1.384 . S
C427 H436 0.930 . S
C428 C425 1.380 . S
C428 C427 1.384 . S
C428 H437 0.931 . S
C429 C425 1.374 . S
C429 C430 1.390 . S
C429 H438 0.930 . S
C430 C426 1.391 . S
C430 C429 1.390 . S
C430 H439 0.930 . S
C431 Eu401 2.825 . S
C431 O416 1.238 . S
C431 O417 1.247 . S
C431 C425 1.507 . S
H432 C405 0.930 . S
H433 C406 0.931 . S
H434 C407 0.930 . S
H435 C408 0.930 . S
H436 C427 0.930 . S
H437 C428 0.931 . S
H438 C429 0.930 . S
H439 C430 0.930 . S
Tb440 C450 2.825 . S
Tb440 O451 2.347 . S
Tb440 O454 2.366 . S
Tb440 O459 2.418 . S
Tb440 O460 2.384 1_655 S
Tb440 O463 2.479 . S
Tb440 O464 2.471 . S
Eu441 O452 2.418 . S
Eu441 O453 2.384 1_455 S
Eu441 O456 2.479 . S
Eu441 O457 2.471 . S
Eu441 O458 2.347 . S
Eu441 O461 2.366 . S
Eu441 C471 2.825 . S
C442 O458 1.259 1_655 S
C442 O459 1.265 . S
C443 O460 1.255 . S
C443 O461 1.265 . S
C444 C446 1.380 . S
C444 C447 1.374 . S
C444 C450 1.507 . S
C445 C446 1.384 . S
C445 C449 1.387 . S
C445 H472 0.930 . S
C446 C444 1.380 . S
C446 C445 1.384 . S
C446 H473 0.931 . S
C447 C444 1.374 . S
C447 C448 1.390 . S
C447 H474 0.930 . S
C448 C447 1.390 . S
C448 C449 1.391 . S
C448 H475 0.930 . S
C449 C445 1.387 . S
C449 C448 1.391 . S
C450 Tb440 2.825 . S
C450 C444 1.507 . S
C450 O463 1.238 . S
C450 O464 1.247 . S
O451 Tb440 2.347 . S
O451 C455 1.259 1_655 S
O452 Eu441 2.418 . S
O452 C455 1.265 . S
O453 Eu441 2.384 1_655 S
O453 C462 1.255 . S
O454 Tb440 2.366 . S
O454 C462 1.265 . S
C455 O451 1.259 1_455 S
C455 O452 1.265 . S
O456 Eu441 2.479 . S
O456 C471 1.238 . S
O457 Eu441 2.471 . S
O457 C471 1.247 . S
O458 Eu441 2.347 . S
O458 C442 1.259 1_455 S
O459 Tb440 2.418 . S
O459 C442 1.265 . S
O460 Tb440 2.384 1_455 S
O460 C443 1.255 . S
O461 Eu441 2.366 . S
O461 C443 1.265 . S
C462 O453 1.255 . S
C462 O454 1.265 . S
O463 Tb440 2.479 . S
O463 C450 1.238 . S
O464 Tb440 2.471 . S
O464 C450 1.247 . S
C465 C468 1.380 . S
C465 C469 1.374 . S
C465 C471 1.507 . S
C466 C467 1.387 . S
C466 C470 1.391 . S
C467 C466 1.387 . S
C467 C468 1.384 . S
C467 H476 0.930 . S
C468 C465 1.380 . S
C468 C467 1.384 . S
C468 H477 0.931 . S
C469 C465 1.374 . S
C469 C470 1.390 . S
C469 H478 0.930 . S
C470 C466 1.391 . S
C470 C469 1.390 . S
C470 H479 0.930 . S
C471 Eu441 2.825 . S
C471 O456 1.238 . S
C471 O457 1.247 . S
C471 C465 1.507 . S
H472 C445 0.930 . S
H473 C446 0.931 . S
H474 C447 0.930 . S
H475 C448 0.930 . S
H476 C467 0.930 . S
H477 C468 0.931 . S
H478 C469 0.930 . S
H479 C470 0.930 . S
H480 C486 0.930 . S
H481 C489 0.930 . S
H482 C490 0.930 . S
H483 C491 0.930 . S
H484 C494 0.930 . S
H485 C495 0.930 . S
C486 H480 0.930 . S
C486 C487 1.359 . S
C486 C488 1.415 . S
C487 C486 1.359 . S
C487 C489 1.415 1_545 S
C488 C486 1.415 . S
C488 C493 1.425 1_545 S
C488 C495 1.409 . S
C489 H481 0.930 . S
C489 C487 1.415 1_565 S
C489 C490 1.362 . S
C490 H482 0.930 . S
C490 C489 1.362 . S
C490 C493 1.409 . S
C491 H483 0.930 . S
C491 C492 1.355 1_565 S
C491 C493 1.415 . S
C492 C491 1.355 1_545 S
C492 C494 1.419 . S
C493 C488 1.425 1_565 S
C493 C490 1.409 . S
C493 C491 1.415 . S
C494 H484 0.930 . S
C494 C492 1.419 . S
C494 C495 1.362 . S
C495 H485 0.930 . S
C495 C488 1.409 . S
C495 C494 1.362 . S
H496 C502 0.930 . S
H497 C505 0.930 . S
H498 C506 0.930 . S
H499 C507 0.930 . S
H500 C510 0.930 . S
H501 C511 0.930 . S
C502 H496 0.930 . S
C502 C503 1.355 . S
C502 C504 1.415 . S
C503 C502 1.355 . S
C503 C505 1.419 . S
C504 C502 1.415 . S
C504 C509 1.425 . S
C504 C511 1.409 . S
C505 H497 0.930 . S
C505 C503 1.419 . S
C505 C506 1.362 . S
C506 H498 0.930 . S
C506 C505 1.362 . S
C506 C509 1.409 . S
C507 H499 0.930 . S
C507 C508 1.355 . S
C507 C509 1.415 . S
C508 C507 1.355 . S
C508 C510 1.419 . S
C509 C504 1.425 . S
C509 C506 1.409 . S
C509 C507 1.415 . S
C510 H500 0.930 . S
C510 C508 1.419 . S
C510 C511 1.362 . S
C511 H501 0.930 . S
C511 C504 1.409 . S
C511 C510 1.362 . S
H512 C518 0.930 . S
H513 C521 0.930 . S
H514 C522 0.930 . S
H515 C523 0.930 . S
H516 C526 0.930 . S
H517 C527 0.930 . S
C518 H512 0.930 . S
C518 C519 1.355 . S
C518 C520 1.415 . S
C519 C518 1.355 . S
C519 C521 1.419 . S
C520 C518 1.415 . S
C520 C525 1.425 . S
C520 C527 1.409 . S
C521 H513 0.930 . S
C521 C519 1.419 . S
C521 C522 1.362 . S
C522 H514 0.930 . S
C522 C521 1.362 . S
C522 C525 1.409 . S
C523 H515 0.930 . S
C523 C524 1.355 . S
C523 C525 1.415 . S
C524 C523 1.355 . S
C524 C526 1.419 . S
C525 C520 1.425 . S
C525 C522 1.409 . S
C525 C523 1.415 . S
C526 H516 0.930 . S
C526 C524 1.419 . S
C526 C527 1.362 . S
C527 H517 0.930 . S
C527 C520 1.409 . S
C527 C526 1.362 . S
H528 C534 0.930 . S
H529 C537 0.930 . S
H530 C538 0.930 . S
H531 C539 0.930 . S
H532 C542 0.930 . S
H533 C543 0.930 . S
C534 H528 0.930 . S
C534 C535 1.355 1_455 S
C534 C536 1.415 . S
C535 C534 1.355 1_655 S
C535 C537 1.419 . S
C536 C534 1.415 . S
C536 C541 1.425 1_455 S
C536 C543 1.409 . S
C537 H529 0.930 . S
C537 C535 1.419 . S
C537 C538 1.362 . S
C538 H530 0.930 . S
C538 C537 1.362 . S
C538 C541 1.409 . S
C539 H531 0.930 . S
C539 C540 1.355 1_655 S
C539 C541 1.415 . S
C540 C539 1.355 1_455 S
C540 C542 1.419 . S
C541 C536 1.425 1_655 S
C541 C538 1.409 . S
C541 C539 1.415 . S
C542 H532 0.930 . S
C542 C540 1.419 . S
C542 C543 1.362 . S
C543 H533 0.930 . S
C543 C536 1.409 . S
C543 C542 1.362 . S
H544 C550 0.930 . S
H545 C553 0.930 . S
H546 C554 0.930 . S
H547 C555 0.930 . S
H548 C558 0.930 . S
H549 C559 0.930 . S
C550 H544 0.930 . S
C550 C551 1.355 1_565 S
C550 C552 1.415 . S
C551 C550 1.355 1_545 S
C551 C553 1.419 . S
C552 C550 1.415 . S
C552 C557 1.425 1_565 S
C552 C559 1.409 . S
C553 H545 0.930 . S
C553 C551 1.419 . S
C553 C554 1.362 . S
C554 H546 0.930 . S
C554 C553 1.362 . S
C554 C557 1.409 . S
C555 H547 0.930 . S
C555 C556 1.355 1_545 S
C555 C557 1.415 1_556 S
C556 C555 1.355 1_565 S
C556 C558 1.419 . S
C557 C552 1.425 1_545 S
C557 C554 1.409 . S
C557 C555 1.415 1_554 S
C558 H548 0.930 . S
C558 C556 1.419 . S
C558 C559 1.362 1_556 S
C559 H549 0.930 . S
C559 C552 1.409 . S
C559 C558 1.362 1_554 S
H560 C566 0.930 . S
H561 C569 0.930 . S
H562 C570 0.930 . S
H563 C571 0.930 . S
H564 C574 0.930 . S
H565 C575 0.930 . S
C566 H560 0.930 . S
C566 C567 1.355 . S
C566 C568 1.415 . S
C567 C566 1.355 . S
C567 C569 1.419 . S
C568 C566 1.415 . S
C568 C573 1.425 . S
C568 C575 1.409 . S
C569 H561 0.930 . S
C569 C567 1.419 . S
C569 C570 1.362 . S
C570 H562 0.930 . S
C570 C569 1.362 . S
C570 C573 1.409 . S
C571 H563 0.930 . S
C571 C572 1.355 . S
C571 C573 1.415 1_556 S
C572 C571 1.355 . S
C572 C574 1.419 . S
C573 C568 1.425 . S
C573 C570 1.409 . S
C573 C571 1.415 1_554 S
C574 H564 0.930 . S
C574 C572 1.419 . S
C574 C575 1.362 1_556 S
C575 H565 0.930 . S
C575 C568 1.409 . S
C575 C574 1.362 1_554 S
H576 C582 0.930 . S
H577 C585 0.930 . S
H578 C586 0.930 . S
H579 C587 0.930 . S
H580 C590 0.930 . S
H581 C591 0.930 . S
C582 H576 0.930 . S
C582 C583 1.355 . S
C582 C584 1.415 . S
C583 C582 1.355 . S
C583 C585 1.419 . S
C584 C582 1.415 . S
C584 C589 1.425 . S
C584 C591 1.409 1_554 S
C585 H577 0.930 . S
C585 C583 1.419 . S
C585 C586 1.362 . S
C586 H578 0.930 . S
C586 C585 1.362 . S
C586 C589 1.409 . S
C587 H579 0.930 . S
C587 C588 1.355 . S
C587 C589 1.415 1_556 S
C588 C587 1.355 . S
C588 C590 1.419 . S
C589 C584 1.425 . S
C589 C586 1.409 . S
C589 C587 1.415 1_554 S
C590 H580 0.930 . S
C590 C588 1.419 . S
C590 C591 1.362 . S
C591 H581 0.930 . S
C591 C584 1.409 1_556 S
C591 C590 1.362 . S
H592 C598 0.930 . S
H593 C601 0.930 . S
H594 C602 0.930 . S
H595 C603 0.930 . S
H596 C606 0.930 . S
H597 C607 0.930 . S
C598 H592 0.930 . S
C598 C599 1.355 1_655 S
C598 C600 1.415 . S
C599 C598 1.355 1_455 S
C599 C601 1.419 . S
C600 C598 1.415 . S
C600 C605 1.425 1_655 S
C600 C607 1.409 . S
C601 H593 0.930 . S
C601 C599 1.419 . S
C601 C602 1.362 . S
C602 H594 0.930 . S
C602 C601 1.362 . S
C602 C605 1.409 . S
C603 H595 0.930 . S
C603 C604 1.355 1_455 S
C603 C605 1.415 1_556 S
C604 C603 1.355 1_655 S
C604 C606 1.419 . S
C605 C600 1.425 1_455 S
C605 C602 1.409 . S
C605 C603 1.415 1_554 S
C606 H596 0.930 . S
C606 C604 1.419 . S
C606 C607 1.362 1_556 S
C607 H597 0.930 . S
C607 C600 1.409 . S
C607 C606 1.362 1_554 S
H608 C614 0.930 . S
H609 C617 0.930 . S
H610 C618 0.930 . S
H611 C619 0.930 . S
H612 C622 0.930 . S
H613 C623 0.930 . S
C614 H608 0.930 . S
C614 C615 1.355 1_655 S
C614 C616 1.415 . S
C615 C614 1.355 1_455 S
C615 C617 1.419 . S
C616 C614 1.415 . S
C616 C621 1.425 . S
C616 C623 1.409 . S
C617 H609 0.930 . S
C617 C615 1.419 . S
C617 C618 1.362 . S
C618 H610 0.930 . S
C618 C617 1.362 . S
C618 C621 1.409 1_455 S
C619 H611 0.930 . S
C619 C620 1.355 . S
C619 C621 1.415 . S
C620 C619 1.355 . S
C620 C622 1.419 . S
C621 C616 1.425 . S
C621 C618 1.409 1_655 S
C621 C619 1.415 . S
C622 H612 0.930 . S
C622 C620 1.419 . S
C622 C623 1.362 . S
C623 H613 0.930 . S
C623 C616 1.409 . S
C623 C622 1.362 . S
H624 C630 0.930 . S
H625 C633 0.930 . S
H626 C634 0.930 . S
H627 C635 0.930 . S
H628 C638 0.930 . S
H629 C639 0.930 . S
C630 H624 0.930 . S
C630 C631 1.354 . S
C630 C632 1.415 1_545 S
C631 C630 1.354 . S
C631 C633 1.421 1_545 S
C632 C630 1.415 1_565 S
C632 C637 1.425 . S
C632 C639 1.409 1_565 S
C633 H625 0.930 . S
C633 C631 1.421 1_565 S
C633 C634 1.362 . S
C634 H626 0.930 . S
C634 C633 1.362 . S
C634 C637 1.409 . S
C635 H627 0.930 . S
C635 C636 1.355 . S
C635 C637 1.415 . S
C636 C635 1.355 . S
C636 C638 1.419 . S
C637 C632 1.425 . S
C637 C634 1.409 . S
C637 C635 1.415 . S
C638 H628 0.930 . S
C638 C636 1.419 . S
C638 C639 1.362 1_565 S
C639 H629 0.930 . S
C639 C632 1.409 1_545 S
C639 C638 1.362 1_545 S
H640 C646 0.930 . S
H641 C649 0.930 . S
H642 C650 0.930 . S
H643 C651 0.930 . S
H644 C654 0.930 . S
H645 C655 0.930 . S
C646 H640 0.930 . S
C646 C647 1.355 . S
C646 C648 1.415 . S
C647 C646 1.355 . S
C647 C649 1.419 . S
C648 C646 1.415 . S
C648 C653 1.425 . S
C648 C655 1.409 . S
C649 H641 0.930 . S
C649 C647 1.419 . S
C649 C650 1.362 . S
C650 H642 0.930 . S
C650 C649 1.362 . S
C650 C653 1.409 . S
C651 H643 0.930 . S
C651 C652 1.355 . S
C651 C653 1.415 . S
C652 C651 1.355 . S
C652 C654 1.419 . S
C653 C648 1.425 . S
C653 C650 1.409 . S
C653 C651 1.415 . S
C654 H644 0.930 . S
C654 C652 1.419 . S
C654 C655 1.362 . S
C655 H645 0.930 . S
C655 C648 1.409 . S
C655 C654 1.362 . S
H656 C662 0.930 . S
H657 C665 0.930 . S
H658 C666 0.930 . S
H659 C667 0.930 . S
H660 C670 0.930 . S
H661 C671 0.930 . S
C662 H656 0.930 . S
C662 C663 1.355 . S
C662 C664 1.415 . S
C663 C662 1.355 . S
C663 C665 1.419 . S
C664 C662 1.415 . S
C664 C669 1.425 . S
C664 C671 1.409 . S
C665 H657 0.930 . S
C665 C663 1.419 . S
C665 C666 1.362 . S
C666 H658 0.930 . S
C666 C665 1.362 . S
C666 C669 1.409 . S
C667 H659 0.930 . S
C667 C668 1.355 . S
C667 C669 1.415 . S
C668 C667 1.355 . S
C668 C670 1.419 . S
C669 C664 1.425 . S
C669 C666 1.409 . S
C669 C667 1.415 . S
C670 H660 0.930 . S
C670 C668 1.419 . S
C670 C671 1.362 . S
C671 H661 0.930 . S
C671 C664 1.409 . S
C671 C670 1.362 . S
H672 C678 0.930 1_556 S
H673 C681 0.930 . S
H674 C682 0.930 . S
H675 C683 0.930 . S
H676 C686 0.930 . S
H677 C687 0.960 . S
C678 H672 0.930 1_554 S
C678 C679 1.357 . S
C678 C680 1.415 1_654 S
C679 C678 1.357 . S
C679 C681 1.411 1_655 S
C680 C678 1.415 1_456 S
C680 C685 1.425 1_556 S
C680 C687 1.400 1_455 S
C681 H673 0.930 . S
C681 C679 1.411 1_455 S
C681 C682 1.362 . S
C682 H674 0.930 . S
C682 C681 1.362 . S
C682 C685 1.409 . S
C683 H675 0.930 . S
C683 C684 1.355 1_554 S
C683 C685 1.415 . S
C684 C683 1.355 1_556 S
C684 C686 1.419 . S
C685 C680 1.425 1_554 S
C685 C682 1.409 . S
C685 C683 1.415 . S
C686 H676 0.930 . S
C686 C684 1.419 . S
C686 C687 1.343 1_455 S
C687 H677 0.960 . S
C687 C680 1.400 1_655 S
C687 C686 1.343 1_655 S
H688 C694 0.930 . S
H689 C697 0.930 . S
H690 C698 0.930 1_556 S
H691 C699 0.937 . S
H692 C702 0.930 . S
H693 C703 0.930 . S
C694 H688 0.930 . S
C694 C695 1.355 1_545 S
C694 C696 1.415 . S
C695 C694 1.355 1_565 S
C695 C697 1.419 . S
C696 C694 1.415 . S
C696 C701 1.425 1_554 S
C696 C703 1.409 . S
C697 H689 0.930 . S
C697 C695 1.419 . S
C697 C698 1.362 . S
C698 H690 0.930 1_554 S
C698 C697 1.362 . S
C698 C701 1.409 1_564 S
C699 H691 0.937 . S
C699 C700 1.355 . S
C699 C701 1.415 . S
C700 C699 1.355 . S
C700 C702 1.419 . S
C701 C696 1.425 1_556 S
C701 C698 1.409 1_546 S
C701 C699 1.415 . S
C702 H692 0.930 . S
C702 C700 1.419 . S
C702 C703 1.362 1_556 S
C703 H693 0.930 . S
C703 C696 1.409 . S
C703 C702 1.362 1_554 S
H704 C710 0.930 . S
H705 C713 0.930 . S
H706 C714 0.930 . S
H707 C715 0.930 . S
H708 C718 0.930 . S
H709 C719 0.930 . S
C710 H704 0.930 . S
C710 C711 1.355 . S
C710 C712 1.415 . S
C711 C710 1.355 . S
C711 C713 1.419 1_554 S
C712 C710 1.415 . S
C712 C717 1.425 1_554 S
C712 C719 1.409 . S
C713 H705 0.930 . S
C713 C711 1.419 1_556 S
C713 C714 1.362 . S
C714 H706 0.930 . S
C714 C713 1.362 . S
C714 C717 1.409 . S
C715 H707 0.930 . S
C715 C716 1.355 . S
C715 C717 1.415 . S
C716 C715 1.355 . S
C716 C718 1.419 1_556 S
C717 C712 1.425 1_556 S
C717 C714 1.409 . S
C717 C715 1.415 . S
C718 H708 0.930 . S
C718 C716 1.419 1_554 S
C718 C719 1.362 . S
C719 H709 0.930 . S
C719 C712 1.409 . S
C719 C718 1.362 . S
H720 C726 0.930 . S
H721 C729 0.930 . S
H722 C730 0.930 . S
H723 C731 0.930 . S
H724 C734 0.930 . S
H725 C735 0.930 . S
C726 H720 0.930 . S
C726 C727 1.355 . S
C726 C728 1.415 . S
C727 C726 1.355 . S
C727 C729 1.417 1_554 S
C728 C726 1.415 . S
C728 C733 1.425 1_554 S
C728 C735 1.409 . S
C729 H721 0.930 . S
C729 C727 1.417 1_556 S
C729 C730 1.363 . S
C730 H722 0.930 . S
C730 C729 1.363 . S
C730 C733 1.409 . S
C731 H723 0.930 . S
C731 C732 1.355 . S
C731 C733 1.415 . S
C732 C731 1.355 . S
C732 C734 1.419 1_556 S
C733 C728 1.425 1_556 S
C733 C730 1.409 . S
C733 C731 1.415 . S
C734 H724 0.930 . S
C734 C732 1.419 1_554 S
C734 C735 1.362 . S
C735 H725 0.930 . S
C735 C728 1.409 . S
C735 C734 1.362 . S
H736 C742 0.930 . S
H737 C745 0.930 . S
H738 C746 0.930 . S
H739 C747 0.930 . S
H740 C750 0.930 . S
H741 C751 0.930 . S
C742 H736 0.930 . S
C742 C743 1.355 1_655 S
C742 C744 1.415 . S
C743 C742 1.355 1_455 S
C743 C745 1.419 . S
C744 C742 1.415 . S
C744 C749 1.425 1_655 S
C744 C751 1.409 . S
C745 H737 0.930 . S
C745 C743 1.419 . S
C745 C746 1.362 . S
C746 H738 0.930 . S
C746 C745 1.362 . S
C746 C749 1.409 . S
C747 H739 0.930 . S
C747 C748 1.355 . S
C747 C749 1.415 . S
C748 C747 1.355 . S
C748 C750 1.419 1_455 S
C749 C744 1.425 1_455 S
C749 C746 1.409 . S
C749 C747 1.415 . S
C750 H740 0.930 . S
C750 C748 1.419 1_655 S
C750 C751 1.362 . S
C751 H741 0.930 . S
C751 C744 1.409 . S
C751 C750 1.362 . S
H752 C758 0.930 . S
H753 C761 0.930 . S
H754 C762 0.930 . S
H755 C763 0.930 . S
H756 C766 0.930 . S
H757 C767 0.930 . S
C758 H752 0.930 . S
C758 C759 1.393 . S
C758 C760 1.415 . S
C759 C758 1.393 . S
C759 C761 1.376 1_545 S
C760 C758 1.415 . S
C760 C765 1.425 1_545 S
C760 C767 1.409 . S
C761 H753 0.930 . S
C761 C759 1.376 1_565 S
C761 C762 1.362 . S
C762 H754 0.930 . S
C762 C761 1.362 . S
C762 C765 1.409 . S
C763 H755 0.930 . S
C763 C764 1.355 1_565 S
C763 C765 1.415 . S
C764 C763 1.355 1_545 S
C764 C766 1.419 . S
C765 C760 1.425 1_565 S
C765 C762 1.409 . S
C765 C763 1.415 . S
C766 H756 0.930 . S
C766 C764 1.419 . S
C766 C767 1.362 . S
C767 H757 0.930 . S
C767 C760 1.409 . S
C767 C766 1.362 . S
H768 C774 0.930 . S
H769 C777 0.930 . S
H770 C778 0.930 . S
H771 C779 0.930 . S
H772 C782 0.930 . S
H773 C783 0.930 . S
C774 H768 0.930 . S
C774 C775 1.355 . S
C774 C776 1.415 . S
C775 C774 1.355 . S
C775 C777 1.419 . S
C776 C774 1.415 . S
C776 C781 1.425 . S
C776 C783 1.409 . S
C777 H769 0.930 . S
C777 C775 1.419 . S
C777 C778 1.362 . S
C778 H770 0.930 . S
C778 C777 1.362 . S
C778 C781 1.409 . S
C779 H771 0.930 . S
C779 C780 1.355 . S
C779 C781 1.415 . S
C780 C779 1.355 . S
C780 C782 1.419 . S
C781 C776 1.425 . S
C781 C778 1.409 . S
C781 C779 1.415 . S
C782 H772 0.930 . S
C782 C780 1.419 . S
C782 C783 1.362 . S
C783 H773 0.930 . S
C783 C776 1.409 . S
C783 C782 1.362 . S
H784 C790 0.930 . S
H785 C793 0.930 . S
H786 C794 0.930 . S
H787 C795 0.930 . S
H788 C798 0.930 . S
H789 C799 0.930 . S
C790 H784 0.930 . S
C790 C791 1.355 . S
C790 C792 1.415 . S
C791 C790 1.355 . S
C791 C793 1.419 . S
C792 C790 1.415 . S
C792 C797 1.425 . S
C792 C799 1.409 . S
C793 H785 0.930 . S
C793 C791 1.419 . S
C793 C794 1.362 . S
C794 H786 0.930 . S
C794 C793 1.362 . S
C794 C797 1.409 . S
C795 H787 0.930 . S
C795 C796 1.355 . S
C795 C797 1.415 . S
C796 C795 1.355 . S
C796 C798 1.419 . S
C797 C792 1.425 . S
C797 C794 1.409 . S
C797 C795 1.415 . S
C798 H788 0.930 . S
C798 C796 1.419 . S
C798 C799 1.362 . S
C799 H789 0.930 . S
C799 C792 1.409 . S
C799 C798 1.362 . S
H800 C806 0.930 . S
H801 C809 0.930 . S
H802 C810 0.930 . S
H803 C811 0.930 . S
H804 C814 0.930 . S
H805 C815 0.930 . S
C806 H800 0.930 . S
C806 C807 1.376 . S
C806 C808 1.415 . S
C807 C806 1.376 . S
C807 C809 1.395 1_655 S
C808 C806 1.415 . S
C808 C813 1.425 1_655 S
C808 C815 1.409 . S
C809 H801 0.930 . S
C809 C807 1.395 1_455 S
C809 C810 1.362 . S
C810 H802 0.930 . S
C810 C809 1.362 . S
C810 C813 1.409 . S
C811 H803 0.930 . S
C811 C812 1.355 1_455 S
C811 C813 1.415 . S
C812 C811 1.355 1_655 S
C812 C814 1.419 . S
C813 C808 1.425 1_455 S
C813 C810 1.409 . S
C813 C811 1.415 . S
C814 H804 0.930 . S
C814 C812 1.419 . S
C814 C815 1.362 . S
C815 H805 0.930 . S
C815 C808 1.409 . S
C815 C814 1.362 . S
H816 C822 0.930 . S
H817 C825 0.930 . S
H818 C826 0.930 . S
H819 C827 0.930 . S
H820 C830 0.930 . S
H821 C831 0.930 . S
C822 H816 0.930 . S
C822 C823 1.355 1_545 S
C822 C824 1.415 . S
C823 C822 1.355 1_565 S
C823 C825 1.419 . S
C824 C822 1.415 . S
C824 C829 1.425 1_545 S
C824 C831 1.409 . S
C825 H817 0.930 . S
C825 C823 1.419 . S
C825 C826 1.362 . S
C826 H818 0.930 . S
C826 C825 1.362 . S
C826 C829 1.409 . S
C827 H819 0.930 . S
C827 C828 1.355 . S
C827 C829 1.415 . S
C828 C827 1.355 . S
C828 C830 1.419 1_565 S
C829 C824 1.425 1_565 S
C829 C826 1.409 . S
C829 C827 1.415 . S
C830 H820 0.930 . S
C830 C828 1.419 1_545 S
C830 C831 1.362 . S
C831 H821 0.930 . S
C831 C824 1.409 . S
C831 C830 1.362 . S
H832 C838 0.930 . S
H833 C841 0.930 . S
H834 C842 0.930 . S
H835 C843 0.930 . S
H836 C846 0.930 . S
H837 C847 0.930 . S
C838 H832 0.930 . S
C838 C839 1.355 . S
C838 C840 1.415 . S
C839 C838 1.355 . S
C839 C841 1.419 . S
C840 C838 1.415 . S
C840 C845 1.425 . S
C840 C847 1.409 . S
C841 H833 0.930 . S
C841 C839 1.419 . S
C841 C842 1.362 . S
C842 H834 0.930 . S
C842 C841 1.362 . S
C842 C845 1.409 . S
C843 H835 0.930 . S
C843 C844 1.355 . S
C843 C845 1.415 . S
C844 C843 1.355 . S
C844 C846 1.419 . S
C845 C840 1.425 . S
C845 C842 1.409 . S
C845 C843 1.415 . S
C846 H836 0.930 . S
C846 C844 1.419 . S
C846 C847 1.362 . S
C847 H837 0.930 . S
C847 C840 1.409 . S
C847 C846 1.362 . S
H848 C854 0.930 . S
H849 C857 0.930 . S
H850 C858 0.930 . S
H851 C859 0.930 . S
H852 C862 0.930 . S
H853 C863 0.930 . S
C854 H848 0.930 . S
C854 C855 1.355 . S
C854 C856 1.415 . S
C855 C854 1.355 . S
C855 C857 1.419 . S
C856 C854 1.415 . S
C856 C861 1.425 . S
C856 C863 1.409 . S
C857 H849 0.930 . S
C857 C855 1.419 . S
C857 C858 1.362 . S
C858 H850 0.930 . S
C858 C857 1.362 . S
C858 C861 1.409 . S
C859 H851 0.930 . S
C859 C860 1.355 . S
C859 C861 1.415 . S
C860 C859 1.355 . S
C860 C862 1.419 . S
C861 C856 1.425 . S
C861 C858 1.409 . S
C861 C859 1.415 . S
C862 H852 0.930 . S
C862 C860 1.419 . S
C862 C863 1.362 . S
C863 H853 0.930 . S
C863 C856 1.409 . S
C863 C862 1.362 . S
C487 C255 2.382 . S
C492 C322 2.655 1_545 S
C508 C362 2.687 . S
C503 C295 2.456 . S
C524 C402 2.677 . S
C519 C175 2.403 . S
C540 C442 2.677 1_455 S
C535 C215 2.416 1_655 S
C556 C335 2.666 1_565 S
C551 C95 2.395 . S
C567 C135 2.402 . S
C572 C375 2.678 . S
C583 C15 2.461 . S
C588 C415 2.687 . S
C599 C55 2.401 . S
C604 C455 2.672 1_655 S
C620 C346 0.595 . S
C615 C221 0.531 . S
C636 C386 0.426 . S
C631 C261 0.515 . S
C652 C426 0.572 . S
C647 C301 0.498 . S
C663 C181 0.440 . S
C668 C466 0.539 . S
C679 C61 0.454 1_655 S
C684 C329 0.420 . S
C700 C369 0.592 . S
C695 C101 0.660 1_565 S
C716 C409 0.531 . S
C711 C141 0.667 . S
C727 C21 0.618 . S
C732 C449 0.483 . S
C743 C202 3.305 . S
C748 C323 3.691 . S
C759 C242 3.310 . S
C764 C363 3.691 . S
C780 C403 3.660 . S
C775 C282 3.245 . S
C796 C443 3.691 . S
C791 C162 3.290 . S
C807 C42 3.327 1_655 S
C812 C342 3.716 . S
C828 C382 3.671 . S
C823 C82 3.297 1_565 S
C844 C422 3.686 . S
C839 C122 3.314 . S
C855 C2 3.347 . S
C860 C462 3.714 . S
