# Generated by pormake.
# Topology bcu-b, (8,8)-cn, num edge types: 1
# Building blocks:
#     Node 0, Type 0, BuildingBlock: TAGTUT_clean_sbu_1, # of connection points: 8
#     Node 1, Type 1, BuildingBlock: TAGTUT_clean_sbu_1, # of connection points: 8
#     Edge 2, Type (0, 1), BuildingBlock: UKIBUN_clean_linker_0, # of connection points: 2
#     Edge 3, Type (0, 1), BuildingBlock: UKIBUN_clean_linker_0, # of connection points: 2
#     Edge 4, Type (0, 1), BuildingBlock: UKIBUN_clean_linker_0, # of connection points: 2
#     Edge 5, Type (0, 1), BuildingBlock: UKIBUN_clean_linker_0, # of connection points: 2
#     Edge 6, Type (0, 1), BuildingBlock: UKIBUN_clean_linker_0, # of connection points: 2
#     Edge 7, Type (0, 1), BuildingBlock: UKIBUN_clean_linker_0, # of connection points: 2
#     Edge 8, Type (0, 1), BuildingBlock: UKIBUN_clean_linker_0, # of connection points: 2
#     Edge 9, Type (0, 1), BuildingBlock: UKIBUN_clean_linker_0, # of connection points: 2
# Relax obj value: 0.025
# Max RMSD: 0.088
# Mean RMSD: 0.088
data_MOF--net-bcu-b--node1-TAGTUT_clean_sbu_1--node2-TAGTUT_clean_sbu_1--edge1-UKIBUN_clean_linker_0
_symmetry_space_group_name_H-M    P1
_symmetry_Int_Tables_number       1
_symmetry_cell_setting            triclinic
loop_
_symmetry_equiv_pos_as_xyz
'x, y, z'
_cell_length_a     32.308136
_cell_length_b     29.908826
_cell_length_c     32.79771
_cell_angle_alpha  89.830049
_cell_angle_beta   91.597618
_cell_angle_gamma 101.27777
loop_
_atom_site_label
_atom_site_type_symbol
_atom_site_fract_x
_atom_site_fract_y
_atom_site_fract_z
_atom_type_partial_charge
C0 C 0.86894 0.05988 0.04574 0.0
C1 C 0.90644 0.06975 0.91913 0.0
C2 C 0.91321 0.88875 0.94023 0.0
Mg3 Mg 0.95447 0.07115 0.0024 0.0
O4 O 0.93933 0.00767 0.00757 0.0
Mg5 Mg 0.88477 -0.02241 0.98068 0.0
Mg6 Mg 0.97787 0.96819 0.98882 0.0
O7 O 0.01633 0.92928 0.96942 0.0
Mg8 Mg -8e-05 0.86652 0.97805 0.0
Mg9 Mg 0.07214 0.95962 -0.00636 0.0
C10 C 0.04282 0.0476 0.03797 0.0
C11 C 0.046 0.03209 0.92842 0.0
O12 O 0.85417 0.02464 0.02339 0.0
O13 O 0.90698 0.08212 0.04357 0.0
O14 O 0.88752 0.0301 0.92968 0.0
O15 O 0.93641 0.09248 0.94138 0.0
O16 O 0.01901 0.07588 0.02743 0.0
O17 O 0.03235 0.00432 0.03117 0.0
C18 C 0.90736 0.90647 0.04852 0.0
O19 O 0.94693 0.91491 0.03997 0.0
O20 O 0.88147 0.92687 0.02984 0.0
O21 O 0.09928 0.91193 0.948 0.0
O22 O 0.04644 0.85092 0.93849 0.0
O23 O 0.07298 0.90445 0.04333 0.0
C24 C 0.08337 0.87336 0.93072 0.0
O25 O 0.0177 0.84697 0.03899 0.0
O26 O 0.93584 0.86003 0.95243 0.0
C27 C 0.05218 0.86667 0.05656 0.0
O28 O 0.92463 0.93202 0.94612 0.0
O29 O 0.00698 0.021 0.93803 0.0
O30 O 0.07417 0.01331 0.94534 0.0
C31 C 0.37092 0.56431 0.54308 0.0
C32 C 0.40376 0.5671 0.41817 0.0
C33 C 0.4121 0.3882 0.44127 0.0
Mg34 Mg 0.45642 0.57218 0.49875 0.0
O35 O 0.44069 0.50909 0.50636 0.0
Mg36 Mg 0.38481 0.47724 0.48265 0.0
Mg37 Mg 0.47867 0.4684 0.48855 0.0
O38 O 0.51616 0.42741 0.47118 0.0
Mg39 Mg 0.49983 0.36427 0.47604 0.0
Mg40 Mg 0.57186 0.45748 0.49566 0.0
C41 C 0.54439 0.54838 0.53583 0.0
C42 C 0.54865 0.52559 0.42548 0.0
O43 O 0.3562 0.52616 0.52476 0.0
O44 O 0.40853 0.58675 0.53797 0.0
O45 O 0.38485 0.52862 0.43136 0.0
O46 O 0.43621 0.59011 0.43706 0.0
O47 O 0.52138 0.5774 0.52483 0.0
O48 O 0.53288 0.50521 0.52944 0.0
C49 C 0.41 0.40941 0.5516 0.0
O50 O 0.44918 0.41907 0.54213 0.0
O51 O 0.38229 0.42728 0.53301 0.0
O52 O 0.60066 0.40816 0.45308 0.0
O53 O 0.54556 0.35246 0.43423 0.0
O54 O 0.57046 0.40541 0.54703 0.0
C55 C 0.58401 0.37298 0.43131 0.0
O56 O 0.5218 0.34259 0.53532 0.0
O57 O 0.43481 0.35876 0.45152 0.0
C58 C 0.55262 0.36503 0.55682 0.0
O59 O 0.42415 0.43117 0.44804 0.0
O60 O 0.50919 0.51769 0.43439 0.0
O61 O 0.5748 0.50656 0.44528 0.0
C62 C 0.09896 0.11059 0.06354 0.0
C63 C 0.07713 0.06538 0.06749 0.0
C64 C 0.1209 0.13358 0.09692 0.0
C65 C 0.19057 0.24174 0.21338 0.0
C66 C 0.3509 0.32738 0.4212 0.0
C67 C 0.37375 0.37194 0.41609 0.0
C68 C 0.3194 0.30856 0.39283 0.0
C69 C 0.21307 0.21407 0.29107 0.0
H70 H 0.09667 0.12909 0.03536 0.0
H71 H 0.13591 0.1691 0.09374 0.0
H72 H 0.18245 0.25265 0.18316 0.0
H73 H 0.35832 0.3066 0.44646 0.0
H74 H 0.30282 0.27371 0.39677 0.0
H75 H 0.22207 0.20288 0.32091 0.0
C76 C 0.08005 0.04252 0.10468 0.0
C77 C 0.10177 0.06578 0.13828 0.0
C78 C 0.18832 0.18262 0.26454 0.0
C79 C 0.36365 0.39796 0.38278 0.0
C80 C 0.33237 0.37883 0.35408 0.0
C81 C 0.21538 0.27319 0.2399 0.0
C82 C 0.12114 0.11177 0.13469 0.0
C83 C 0.13947 0.13779 0.16975 0.0
C84 C 0.15575 0.16322 0.19656 0.0
C85 C 0.17759 0.19625 0.22542 0.0
H86 H 0.06261 0.00807 0.1088 0.0
H87 H 0.10172 0.04857 0.16741 0.0
H88 H 0.17849 0.14755 0.27419 0.0
H89 H 0.38151 0.43204 0.37767 0.0
H90 H 0.32614 0.39857 0.32764 0.0
H91 H 0.22614 0.30798 0.22987 0.0
C92 C 0.31062 0.33386 0.35884 0.0
C93 C 0.28085 0.31225 0.32813 0.0
C94 C 0.25544 0.29018 0.30484 0.0
C95 C 0.2271 0.25924 0.2786 0.0
C96 C 0.80005 0.07493 0.07009 0.0
C97 C 0.84268 0.07339 0.07778 0.0
C98 C 0.77632 0.08997 0.10046 0.0
C99 C 0.69338 0.17613 0.20872 0.0
C100 C 0.64779 0.34385 0.41026 0.0
C101 C 0.60861 0.35515 0.40034 0.0
C102 C 0.66612 0.31792 0.38302 0.0
C103 C 0.72739 0.1985 0.28713 0.0
H104 H 0.78553 0.0659 0.04032 0.0
H105 H 0.74384 0.09246 0.09366 0.0
H106 H 0.68034 0.16823 0.1782 0.0
H107 H 0.66279 0.35252 0.4399 0.0
H108 H 0.69533 0.30739 0.39182 0.0
H109 H 0.74104 0.20733 0.3173 0.0
C110 C 0.86076 0.08542 0.11672 0.0
C111 C 0.83685 0.09966 0.14721 0.0
C112 C 0.7462 0.17125 0.26169 0.0
C113 C 0.58953 0.34305 0.36183 0.0
C114 C 0.60802 0.31765 0.33457 0.0
C115 C 0.67458 0.20341 0.23416 0.0
C116 C 0.79475 0.10267 0.13897 0.0
C117 C 0.77137 0.12145 0.16912 0.0
C118 C 0.75169 0.13715 0.19427 0.0
C119 C 0.72963 0.16059 0.22218 0.0
H120 H 0.89343 0.08376 0.12359 0.0
H121 H 0.85149 0.1092 0.17688 0.0
H122 H 0.77428 0.15959 0.27246 0.0
H123 H 0.55936 0.35172 0.35349 0.0
H124 H 0.59203 0.3073 0.30563 0.0
H125 H 0.64714 0.21605 0.22303 0.0
C126 C 0.64563 0.30372 0.34563 0.0
C127 C 0.66154 0.27247 0.31983 0.0
C128 C 0.67491 0.2463 0.29825 0.0
C129 C 0.69203 0.21534 0.27315 0.0
C130 C 0.84367 0.8639 0.0828 0.0
C131 C 0.88802 0.87168 0.07894 0.0
C132 C 0.82285 0.83112 0.10914 0.0
C133 C 0.71811 0.7195 0.18676 0.0
C134 C 0.61162 0.56664 0.38929 0.0
C135 C 0.56711 0.55559 0.3913 0.0
C136 C 0.63147 0.5897 0.35612 0.0
C137 C 0.73261 0.66398 0.25224 0.0
H138 H 0.82425 0.88286 0.06499 0.0
H139 H 0.78876 0.82607 0.11069 0.0
H140 H 0.71201 0.74114 0.16164 0.0
H141 H 0.63175 0.55664 0.4132 0.0
H142 H 0.66568 0.59659 0.35555 0.0
H143 H 0.73875 0.64293 0.27779 0.0
C144 C 0.91098 0.84562 0.1033 0.0
C145 C 0.88968 0.81236 0.13023 0.0
C146 C 0.76679 0.68853 0.2309 0.0
C147 C 0.54304 0.57021 0.35927 0.0
C148 C 0.56335 0.59394 0.32565 0.0
C149 C 0.68392 0.69497 0.20811 0.0
C150 C 0.84536 0.80485 0.13284 0.0
C151 C 0.82139 0.77043 0.15888 0.0
C152 C 0.79503 0.74458 0.1777 0.0
C153 C 0.75979 0.71687 0.19835 0.0
H154 H 0.94499 0.85069 0.10141 0.0
H155 H 0.90768 0.79242 0.14864 0.0
H156 H 0.79866 0.68596 0.24029 0.0
H157 H 0.50888 0.56237 0.35966 0.0
H158 H 0.54447 0.60448 0.30098 0.0
H159 H 0.65209 0.69814 0.19918 0.0
C160 C 0.60777 0.6032 0.32388 0.0
C161 C 0.63056 0.62644 0.2899 0.0
C162 C 0.65616 0.64488 0.2657 0.0
C163 C 0.69099 0.6675 0.24132 0.0
C164 C 0.05367 0.81698 0.11902 0.0
C165 C 0.07409 0.84062 0.08581 0.0
C166 C 0.07506 0.79041 0.14444 0.0
C167 C 0.17589 0.69432 0.24349 0.0
C168 C 0.3948 0.60308 0.34915 0.0
C169 C 0.37956 0.58912 0.38776 0.0
C170 C 0.36826 0.61911 0.32005 0.0
C171 C 0.25294 0.68352 0.21185 0.0
H172 H 0.02141 0.8192 0.12534 0.0
H173 H 0.05899 0.77275 0.17013 0.0
H174 H 0.14635 0.69864 0.25627 0.0
H175 H 0.42649 0.60031 0.34115 0.0
H176 H 0.38016 0.62904 0.29014 0.0
H177 H 0.28282 0.67997 0.19934 0.0
C178 C 0.11598 0.83685 0.07833 0.0
C179 C 0.13691 0.80973 0.10313 0.0
C180 C 0.22515 0.70443 0.18835 0.0
C181 C 0.33796 0.59242 0.39701 0.0
C182 C 0.31182 0.60867 0.36828 0.0
C183 C 0.2037 0.67341 0.267 0.0
C184 C 0.11667 0.78631 0.13633 0.0
C185 C 0.13897 0.75823 0.16159 0.0
C186 C 0.15971 0.73556 0.18117 0.0
C187 C 0.18676 0.71061 0.20427 0.0
H188 H 0.13222 0.85389 0.05242 0.0
H189 H 0.16888 0.80682 0.09614 0.0
H190 H 0.23408 0.71664 0.15809 0.0
H191 H 0.32543 0.58185 0.4266 0.0
H192 H 0.27989 0.61058 0.3763 0.0
H193 H 0.19513 0.66195 0.29755 0.0
C194 C 0.32654 0.62168 0.32947 0.0
C195 C 0.29846 0.63772 0.29996 0.0
C196 C 0.27307 0.65071 0.27715 0.0
C197 C 0.24271 0.66857 0.25156 0.0
C198 C 0.09319 0.80861 0.88669 0.0
C199 C 0.10615 0.85468 0.89822 0.0
C200 C 0.11068 0.7911 0.85338 0.0
C201 C 0.172 0.70391 0.74017 0.0
C202 C 0.35513 0.6297 0.58299 0.0
C203 C 0.34405 0.58351 0.57148 0.0
C204 C 0.3299 0.64865 0.60915 0.0
C205 C 0.24115 0.74098 0.69302 0.0
H206 H 0.06905 0.78599 0.90318 0.0
H207 H 0.10004 0.75554 0.84516 0.0
H208 H 0.1456 0.68912 0.75875 0.0
H209 H 0.38295 0.65159 0.57121 0.0
H210 H 0.33865 0.68453 0.6169 0.0
H211 H 0.26815 0.75565 0.67514 0.0
C212 C 0.13749 0.88275 0.8757 0.0
C213 C 0.15496 0.86506 0.84206 0.0
C214 C 0.22256 0.76949 0.71734 0.0
C215 C 0.30781 0.55632 0.58788 0.0
C216 C 0.28265 0.57538 0.6144 0.0
C217 C 0.19061 0.67538 0.71585 0.0
C218 C 0.14143 0.81919 0.83083 0.0
C219 C 0.15963 0.79974 0.79721 0.0
C220 C 0.17225 0.7793 0.77005 0.0
C221 C 0.18833 0.75095 0.74144 0.0
H222 H 0.14761 0.91849 0.88335 0.0
H223 H 0.17883 0.88714 0.82481 0.0
H224 H 0.23556 0.80575 0.71813 0.0
H225 H 0.29893 0.52044 0.58028 0.0
H226 H 0.25463 0.55411 0.62647 0.0
H227 H 0.17824 0.63899 0.71577 0.0
C228 C 0.29335 0.62179 0.62452 0.0
C229 C 0.26641 0.64291 0.64924 0.0
C230 C 0.2466 0.6645 0.66945 0.0
C231 C 0.22564 0.69379 0.69269 0.0
C232 C 0.04553 0.06935 0.85903 0.0
C233 C 0.06136 0.06942 0.89941 0.0
C234 C 0.06681 0.1 0.83023 0.0
C235 C 0.17893 0.21942 0.72459 0.0
C236 C 0.40358 0.38625 0.62522 0.0
C237 C 0.39354 0.37648 0.5838 0.0
C238 C 0.37713 0.36413 0.65565 0.0
C239 C 0.25221 0.26761 0.76382 0.0
H240 H 0.01825 0.04414 0.84926 0.0
H241 H 0.05517 0.09834 0.79887 0.0
H242 H 0.15094 0.20066 0.70893 0.0
H243 H 0.42984 0.41329 0.63385 0.0
H244 H 0.38424 0.37358 0.68731 0.0
H245 H 0.28052 0.28578 0.77941 0.0
C246 C 0.09758 0.10181 0.91075 0.0
C247 C 0.11844 0.13241 0.88229 0.0
C248 C 0.22026 0.24115 0.78662 0.0
C249 C 0.35814 0.34244 0.57363 0.0
C250 C 0.33193 0.32052 0.60381 0.0
C251 C 0.21088 0.24591 0.70179 0.0
C252 C 0.10384 0.13118 0.84167 0.0
C253 C 0.12866 0.16044 0.8121 0.0
C254 C 0.15222 0.18642 0.79063 0.0
C255 C 0.18366 0.2164 0.76712 0.0
H256 H 0.11068 0.10241 0.94158 0.0
H257 H 0.14689 0.1561 0.8918 0.0
H258 H 0.22452 0.23933 0.81943 0.0
H259 H 0.34904 0.33505 0.54192 0.0
H260 H 0.30382 0.29601 0.59482 0.0
H261 H 0.20694 0.24715 0.66891 0.0
C262 C 0.34044 0.33213 0.64491 0.0
C263 C 0.30999 0.31262 0.67504 0.0
C264 C 0.28229 0.29411 0.69716 0.0
C265 C 0.248 0.26961 0.72119 0.0
C266 C 0.90204 0.13738 0.87356 0.0
C267 C 0.88829 0.09108 0.88338 0.0
C268 C 0.88041 0.15819 0.84348 0.0
C269 C 0.78165 0.23781 0.73214 0.0
C270 C 0.56498 0.29364 0.59269 0.0
C271 C 0.57516 0.34132 0.58792 0.0
C272 C 0.59214 0.27062 0.61496 0.0
C273 C 0.70606 0.18457 0.70191 0.0
H274 H 0.92862 0.15788 0.88996 0.0
H275 H 0.89096 0.1941 0.83704 0.0
H276 H 0.81062 0.2589 0.74395 0.0
H277 H 0.53712 0.27385 0.57764 0.0
H278 H 0.58427 0.2338 0.61721 0.0
H279 H 0.67675 0.16364 0.69068 0.0
C280 C 0.8531 0.06601 0.8615 0.0
C281 C 0.83155 0.08684 0.83172 0.0
C282 C 0.73403 0.16462 0.72605 0.0
C283 C 0.61221 0.3654 0.60772 0.0
C284 C 0.6393 0.34237 0.62969 0.0
C285 C 0.75368 0.25776 0.70801 0.0
C286 C 0.84471 0.13311 0.82282 0.0
C287 C 0.8204 0.15483 0.79374 0.0
C288 C 0.79906 0.17144 0.76924 0.0
C289 C 0.77172 0.19127 0.74174 0.0
H290 H 0.84117 0.03042 0.86821 0.0
H291 H 0.80396 0.06692 0.81626 0.0
H292 H 0.72582 0.12861 0.73309 0.0
H293 H 0.62149 0.40205 0.60467 0.0
H294 H 0.66825 0.36169 0.64331 0.0
H295 H 0.76154 0.29393 0.70155 0.0
C296 C 0.62989 0.29481 0.63278 0.0
C297 C 0.65954 0.27114 0.65341 0.0
C298 C 0.68512 0.25264 0.6709 0.0
C299 C 0.71544 0.23138 0.69326 0.0
C300 C 0.87754 0.89397 0.87277 0.0
C301 C 0.87949 0.87117 0.91014 0.0
C302 C 0.85617 0.87079 0.83899 0.0
C303 C 0.7694 0.75411 0.71276 0.0
C304 C 0.59258 0.53943 0.59489 0.0
C305 C 0.58231 0.56532 0.56155 0.0
C306 C 0.62377 0.55872 0.62363 0.0
C307 C 0.74098 0.66392 0.7378 0.0
H308 H 0.89542 0.92825 0.86873 0.0
H309 H 0.8569 0.88789 0.80976 0.0
H310 H 0.77975 0.78906 0.70298 0.0
H311 H 0.57502 0.50519 0.59992 0.0
H312 H 0.6302 0.53897 0.64999 0.0
H313 H 0.72968 0.62929 0.74798 0.0
C314 C 0.85712 0.8262 0.91404 0.0
C315 C 0.83554 0.80331 0.88047 0.0
C316 C 0.76607 0.69521 0.76426 0.0
C317 C 0.60479 0.61009 0.55663 0.0
C318 C 0.63625 0.62907 0.58502 0.0
C319 C 0.74437 0.72284 0.68631 0.0
C320 C 0.8362 0.825 0.8426 0.0
C321 C 0.81804 0.79902 0.8075 0.0
C322 C 0.80177 0.77351 0.78077 0.0
C323 C 0.77973 0.74053 0.75201 0.0
H324 H 0.85866 0.80779 0.94237 0.0
H325 H 0.82006 0.76795 0.88364 0.0
H326 H 0.77387 0.68435 0.79459 0.0
H327 H 0.59727 0.63083 0.53138 0.0
H328 H 0.65267 0.66399 0.58111 0.0
H329 H 0.73568 0.73403 0.65637 0.0
C330 C 0.64532 0.60377 0.61892 0.0
C331 C 0.67536 0.62532 0.64948 0.0
C332 C 0.70096 0.64719 0.67276 0.0
C333 C 0.72963 0.67786 0.69896 0.0
loop_
_geom_bond_atom_site_label_1
_geom_bond_atom_site_label_2
_geom_bond_distance
_geom_bond_site_symmetry_2
_ccdc_geom_bond_type
C0 O12 1.241 . S
C0 O13 1.280 . S
C1 O14 1.277 . S
C1 O15 1.245 . S
C2 O26 1.247 . S
C2 O28 1.289 . S
Mg3 O4 1.926 . S
Mg3 O13 1.984 . S
Mg3 O15 1.988 1_554 S
Mg3 O16 2.061 1_655 S
O4 Mg3 1.926 . S
O4 Mg5 1.986 1_554 S
O4 Mg6 1.917 1_655 S
Mg5 O4 1.986 1_556 S
Mg5 O12 2.042 1_556 S
Mg5 O14 2.041 . S
Mg5 O20 2.038 1_546 S
Mg5 O28 2.238 1_545 S
Mg6 O4 1.917 1_455 S
Mg6 O7 1.917 1_544 S
Mg6 O17 2.106 . S
Mg6 O19 2.079 1_445 S
Mg6 O28 2.106 1_444 S
Mg6 O29 2.079 1_554 S
O7 Mg6 1.917 1_566 S
O7 Mg8 1.926 . S
O7 Mg9 1.986 1_556 S
Mg8 O7 1.926 . S
Mg8 O22 1.984 . S
Mg8 O25 1.988 1_556 S
Mg8 O26 2.061 1_455 S
Mg9 O7 1.986 1_554 S
Mg9 O17 2.238 1_565 S
Mg9 O21 2.042 1_554 S
Mg9 O23 2.041 . S
Mg9 O30 2.038 1_564 S
C10 O16 1.247 . S
C10 O17 1.289 . S
C11 O29 1.245 . S
C11 O30 1.274 . S
O12 C0 1.241 . S
O12 Mg5 2.042 1_554 S
O13 C0 1.280 . S
O13 Mg3 1.984 . S
O14 C1 1.277 . S
O14 Mg5 2.041 . S
O15 C1 1.245 . S
O15 Mg3 1.988 1_556 S
O16 Mg3 2.061 1_455 S
O16 C10 1.247 . S
O17 Mg6 2.106 . S
O17 Mg9 2.238 1_545 S
O17 C10 1.289 . S
C18 O19 1.245 . S
C18 O20 1.274 . S
O19 Mg6 2.079 1_665 S
O19 C18 1.245 . S
O20 Mg5 2.038 1_564 S
O20 C18 1.274 . S
O21 Mg9 2.042 1_556 S
O21 C24 1.241 . S
O22 Mg8 1.984 . S
O22 C24 1.280 . S
O23 Mg9 2.041 . S
O23 C27 1.277 . S
C24 O21 1.241 . S
C24 O22 1.280 . S
O25 Mg8 1.988 1_554 S
O25 C27 1.245 . S
O26 C2 1.247 . S
O26 Mg8 2.061 1_655 S
C27 O23 1.277 . S
C27 O25 1.245 . S
O28 C2 1.289 . S
O28 Mg5 2.238 1_565 S
O28 Mg6 2.106 1_666 S
O29 Mg6 2.079 1_556 S
O29 C11 1.245 . S
O30 Mg9 2.038 1_546 S
O30 C11 1.274 . S
C31 O43 1.241 . S
C31 O44 1.280 . S
C32 O45 1.277 . S
C32 O46 1.245 . S
C33 O57 1.247 . S
C33 O59 1.289 . S
Mg34 O35 1.926 . S
Mg34 O44 1.984 . S
Mg34 O46 1.988 . S
Mg34 O47 2.061 . S
O35 Mg34 1.926 . S
O35 Mg36 1.986 . S
O35 Mg37 1.917 . S
Mg36 O35 1.986 . S
Mg36 O43 2.042 . S
Mg36 O45 2.041 . S
Mg36 O51 2.038 . S
Mg36 O59 2.238 . S
Mg37 O35 1.917 . S
Mg37 O38 1.917 . S
Mg37 O48 2.106 . S
Mg37 O50 2.079 . S
Mg37 O59 2.106 . S
Mg37 O60 2.079 . S
O38 Mg37 1.917 . S
O38 Mg39 1.926 . S
O38 Mg40 1.986 . S
Mg39 O38 1.926 . S
Mg39 O53 1.984 . S
Mg39 O56 1.988 . S
Mg39 O57 2.061 . S
Mg40 O38 1.986 . S
Mg40 O48 2.238 . S
Mg40 O52 2.042 . S
Mg40 O54 2.041 . S
Mg40 O61 2.038 . S
C41 O47 1.247 . S
C41 O48 1.289 . S
C42 O60 1.245 . S
C42 O61 1.274 . S
O43 C31 1.241 . S
O43 Mg36 2.042 . S
O44 C31 1.280 . S
O44 Mg34 1.984 . S
O45 C32 1.277 . S
O45 Mg36 2.041 . S
O46 C32 1.245 . S
O46 Mg34 1.988 . S
O47 Mg34 2.061 . S
O47 C41 1.247 . S
O48 Mg37 2.106 . S
O48 Mg40 2.238 . S
O48 C41 1.289 . S
C49 O50 1.245 . S
C49 O51 1.274 . S
O50 Mg37 2.079 . S
O50 C49 1.245 . S
O51 Mg36 2.038 . S
O51 C49 1.274 . S
O52 Mg40 2.042 . S
O52 C55 1.241 . S
O53 Mg39 1.984 . S
O53 C55 1.280 . S
O54 Mg40 2.041 . S
O54 C58 1.277 . S
C55 O52 1.241 . S
C55 O53 1.280 . S
O56 Mg39 1.988 . S
O56 C58 1.245 . S
O57 C33 1.247 . S
O57 Mg39 2.061 . S
C58 O54 1.277 . S
C58 O56 1.245 . S
O59 C33 1.289 . S
O59 Mg36 2.238 . S
O59 Mg37 2.106 . S
O60 Mg37 2.079 . S
O60 C42 1.245 . S
O61 Mg40 2.038 . S
O61 C42 1.274 . S
C62 C63 1.420 . S
C62 C64 1.385 . S
C62 H70 0.928 . S
C63 C62 1.420 . S
C63 C76 1.420 . S
C64 C62 1.385 . S
C64 H71 0.929 . S
C64 C82 1.407 . S
C65 H72 0.928 . S
C65 C81 1.374 . S
C65 C85 1.388 . S
C66 C67 1.420 . S
C66 C68 1.385 . S
C66 H73 0.928 . S
C67 C66 1.420 . S
C67 C79 1.420 . S
C68 C66 1.385 . S
C68 H74 0.929 . S
C68 C92 1.407 . S
C69 H75 0.928 . S
C69 C78 1.374 . S
C69 C95 1.388 . S
H70 C62 0.928 . S
H71 C64 0.929 . S
H72 C65 0.928 . S
H73 C66 0.928 . S
H74 C68 0.929 . S
H75 C69 0.928 . S
C76 C63 1.420 . S
C76 C77 1.385 . S
C76 H86 0.928 . S
C77 C76 1.385 . S
C77 C82 1.407 . S
C77 H87 0.929 . S
C78 C69 1.374 . S
C78 C85 1.388 . S
C78 H88 0.928 . S
C79 C67 1.420 . S
C79 C80 1.385 . S
C79 H89 0.928 . S
C80 C79 1.385 . S
C80 H90 0.929 . S
C80 C92 1.407 . S
C81 C65 1.374 . S
C81 H91 0.928 . S
C81 C95 1.388 . S
C82 C64 1.407 . S
C82 C77 1.407 . S
C82 C83 1.428 . S
C83 C82 1.428 . S
C83 C84 1.230 . S
C84 C83 1.230 . S
C84 C85 1.405 . S
C85 C65 1.388 . S
C85 C78 1.388 . S
C85 C84 1.405 . S
H86 C76 0.928 . S
H87 C77 0.929 . S
H88 C78 0.928 . S
H89 C79 0.928 . S
H90 C80 0.929 . S
H91 C81 0.928 . S
C92 C68 1.407 . S
C92 C80 1.407 . S
C92 C93 1.428 . S
C93 C92 1.428 . S
C93 C94 1.230 . S
C94 C93 1.230 . S
C94 C95 1.405 . S
C95 C69 1.388 . S
C95 C81 1.388 . S
C95 C94 1.405 . S
C96 C97 1.420 . S
C96 C98 1.385 . S
C96 H104 0.928 . S
C97 C96 1.420 . S
C97 C110 1.420 . S
C98 C96 1.385 . S
C98 H105 0.929 . S
C98 C116 1.407 . S
C99 H106 0.928 . S
C99 C115 1.374 . S
C99 C119 1.388 . S
C100 C101 1.420 . S
C100 C102 1.385 . S
C100 H107 0.928 . S
C101 C100 1.420 . S
C101 C113 1.420 . S
C102 C100 1.385 . S
C102 H108 0.929 . S
C102 C126 1.407 . S
C103 H109 0.928 . S
C103 C112 1.374 . S
C103 C129 1.388 . S
H104 C96 0.928 . S
H105 C98 0.929 . S
H106 C99 0.928 . S
H107 C100 0.928 . S
H108 C102 0.929 . S
H109 C103 0.928 . S
C110 C97 1.420 . S
C110 C111 1.385 . S
C110 H120 0.928 . S
C111 C110 1.385 . S
C111 C116 1.407 . S
C111 H121 0.929 . S
C112 C103 1.374 . S
C112 C119 1.388 . S
C112 H122 0.928 . S
C113 C101 1.420 . S
C113 C114 1.385 . S
C113 H123 0.928 . S
C114 C113 1.385 . S
C114 H124 0.929 . S
C114 C126 1.407 . S
C115 C99 1.374 . S
C115 H125 0.928 . S
C115 C129 1.388 . S
C116 C98 1.407 . S
C116 C111 1.407 . S
C116 C117 1.428 . S
C117 C116 1.428 . S
C117 C118 1.230 . S
C118 C117 1.230 . S
C118 C119 1.405 . S
C119 C99 1.388 . S
C119 C112 1.388 . S
C119 C118 1.405 . S
H120 C110 0.928 . S
H121 C111 0.929 . S
H122 C112 0.928 . S
H123 C113 0.928 . S
H124 C114 0.929 . S
H125 C115 0.928 . S
C126 C102 1.407 . S
C126 C114 1.407 . S
C126 C127 1.428 . S
C127 C126 1.428 . S
C127 C128 1.230 . S
C128 C127 1.230 . S
C128 C129 1.405 . S
C129 C103 1.388 . S
C129 C115 1.388 . S
C129 C128 1.405 . S
C130 C131 1.420 . S
C130 C132 1.385 . S
C130 H138 0.928 . S
C131 C130 1.420 . S
C131 C144 1.420 . S
C132 C130 1.385 . S
C132 H139 0.929 . S
C132 C150 1.407 . S
C133 H140 0.928 . S
C133 C149 1.374 . S
C133 C153 1.388 . S
C134 C135 1.420 . S
C134 C136 1.385 . S
C134 H141 0.928 . S
C135 C134 1.420 . S
C135 C147 1.420 . S
C136 C134 1.385 . S
C136 H142 0.929 . S
C136 C160 1.407 . S
C137 H143 0.928 . S
C137 C146 1.374 . S
C137 C163 1.388 . S
H138 C130 0.928 . S
H139 C132 0.929 . S
H140 C133 0.928 . S
H141 C134 0.928 . S
H142 C136 0.929 . S
H143 C137 0.928 . S
C144 C131 1.420 . S
C144 C145 1.385 . S
C144 H154 0.928 . S
C145 C144 1.385 . S
C145 C150 1.407 . S
C145 H155 0.929 . S
C146 C137 1.374 . S
C146 C153 1.388 . S
C146 H156 0.928 . S
C147 C135 1.420 . S
C147 C148 1.385 . S
C147 H157 0.928 . S
C148 C147 1.385 . S
C148 H158 0.929 . S
C148 C160 1.407 . S
C149 C133 1.374 . S
C149 H159 0.928 . S
C149 C163 1.388 . S
C150 C132 1.407 . S
C150 C145 1.407 . S
C150 C151 1.428 . S
C151 C150 1.428 . S
C151 C152 1.230 . S
C152 C151 1.230 . S
C152 C153 1.405 . S
C153 C133 1.388 . S
C153 C146 1.388 . S
C153 C152 1.405 . S
H154 C144 0.928 . S
H155 C145 0.929 . S
H156 C146 0.928 . S
H157 C147 0.928 . S
H158 C148 0.929 . S
H159 C149 0.928 . S
C160 C136 1.407 . S
C160 C148 1.407 . S
C160 C161 1.428 . S
C161 C160 1.428 . S
C161 C162 1.230 . S
C162 C161 1.230 . S
C162 C163 1.405 . S
C163 C137 1.388 . S
C163 C149 1.388 . S
C163 C162 1.405 . S
C164 C165 1.420 . S
C164 C166 1.385 . S
C164 H172 0.928 . S
C165 C164 1.420 . S
C165 C178 1.420 . S
C166 C164 1.385 . S
C166 H173 0.929 . S
C166 C184 1.407 . S
C167 H174 0.928 . S
C167 C183 1.374 . S
C167 C187 1.388 . S
C168 C169 1.420 . S
C168 C170 1.385 . S
C168 H175 0.928 . S
C169 C168 1.420 . S
C169 C181 1.420 . S
C170 C168 1.385 . S
C170 H176 0.929 . S
C170 C194 1.407 . S
C171 H177 0.928 . S
C171 C180 1.374 . S
C171 C197 1.388 . S
H172 C164 0.928 . S
H173 C166 0.929 . S
H174 C167 0.928 . S
H175 C168 0.928 . S
H176 C170 0.929 . S
H177 C171 0.928 . S
C178 C165 1.420 . S
C178 C179 1.385 . S
C178 H188 0.928 . S
C179 C178 1.385 . S
C179 C184 1.407 . S
C179 H189 0.929 . S
C180 C171 1.374 . S
C180 C187 1.388 . S
C180 H190 0.928 . S
C181 C169 1.420 . S
C181 C182 1.385 . S
C181 H191 0.928 . S
C182 C181 1.385 . S
C182 H192 0.929 . S
C182 C194 1.407 . S
C183 C167 1.374 . S
C183 H193 0.928 . S
C183 C197 1.388 . S
C184 C166 1.407 . S
C184 C179 1.407 . S
C184 C185 1.428 . S
C185 C184 1.428 . S
C185 C186 1.230 . S
C186 C185 1.230 . S
C186 C187 1.405 . S
C187 C167 1.388 . S
C187 C180 1.388 . S
C187 C186 1.405 . S
H188 C178 0.928 . S
H189 C179 0.929 . S
H190 C180 0.928 . S
H191 C181 0.928 . S
H192 C182 0.929 . S
H193 C183 0.928 . S
C194 C170 1.407 . S
C194 C182 1.407 . S
C194 C195 1.428 . S
C195 C194 1.428 . S
C195 C196 1.230 . S
C196 C195 1.230 . S
C196 C197 1.405 . S
C197 C171 1.388 . S
C197 C183 1.388 . S
C197 C196 1.405 . S
C198 C199 1.420 . S
C198 C200 1.385 . S
C198 H206 0.928 . S
C199 C198 1.420 . S
C199 C212 1.420 . S
C200 C198 1.385 . S
C200 H207 0.929 . S
C200 C218 1.407 . S
C201 H208 0.928 . S
C201 C217 1.374 . S
C201 C221 1.388 . S
C202 C203 1.420 . S
C202 C204 1.385 . S
C202 H209 0.928 . S
C203 C202 1.420 . S
C203 C215 1.420 . S
C204 C202 1.385 . S
C204 H210 0.929 . S
C204 C228 1.407 . S
C205 H211 0.928 . S
C205 C214 1.374 . S
C205 C231 1.388 . S
H206 C198 0.928 . S
H207 C200 0.929 . S
H208 C201 0.928 . S
H209 C202 0.928 . S
H210 C204 0.929 . S
H211 C205 0.928 . S
C212 C199 1.420 . S
C212 C213 1.385 . S
C212 H222 0.928 . S
C213 C212 1.385 . S
C213 C218 1.407 . S
C213 H223 0.929 . S
C214 C205 1.374 . S
C214 C221 1.388 . S
C214 H224 0.928 . S
C215 C203 1.420 . S
C215 C216 1.385 . S
C215 H225 0.928 . S
C216 C215 1.385 . S
C216 H226 0.929 . S
C216 C228 1.407 . S
C217 C201 1.374 . S
C217 H227 0.928 . S
C217 C231 1.388 . S
C218 C200 1.407 . S
C218 C213 1.407 . S
C218 C219 1.428 . S
C219 C218 1.428 . S
C219 C220 1.230 . S
C220 C219 1.230 . S
C220 C221 1.405 . S
C221 C201 1.388 . S
C221 C214 1.388 . S
C221 C220 1.405 . S
H222 C212 0.928 . S
H223 C213 0.929 . S
H224 C214 0.928 . S
H225 C215 0.928 . S
H226 C216 0.929 . S
H227 C217 0.928 . S
C228 C204 1.407 . S
C228 C216 1.407 . S
C228 C229 1.428 . S
C229 C228 1.428 . S
C229 C230 1.230 . S
C230 C229 1.230 . S
C230 C231 1.405 . S
C231 C205 1.388 . S
C231 C217 1.388 . S
C231 C230 1.405 . S
C232 C233 1.420 . S
C232 C234 1.385 . S
C232 H240 0.928 . S
C233 C232 1.420 . S
C233 C246 1.420 . S
C234 C232 1.385 . S
C234 H241 0.929 . S
C234 C252 1.407 . S
C235 H242 0.928 . S
C235 C251 1.374 . S
C235 C255 1.388 . S
C236 C237 1.420 . S
C236 C238 1.385 . S
C236 H243 0.928 . S
C237 C236 1.420 . S
C237 C249 1.420 . S
C238 C236 1.385 . S
C238 H244 0.929 . S
C238 C262 1.407 . S
C239 H245 0.928 . S
C239 C248 1.374 . S
C239 C265 1.388 . S
H240 C232 0.928 . S
H241 C234 0.929 . S
H242 C235 0.928 . S
H243 C236 0.928 . S
H244 C238 0.929 . S
H245 C239 0.928 . S
C246 C233 1.420 . S
C246 C247 1.385 . S
C246 H256 0.928 . S
C247 C246 1.385 . S
C247 C252 1.407 . S
C247 H257 0.929 . S
C248 C239 1.374 . S
C248 C255 1.388 . S
C248 H258 0.928 . S
C249 C237 1.420 . S
C249 C250 1.385 . S
C249 H259 0.928 . S
C250 C249 1.385 . S
C250 H260 0.929 . S
C250 C262 1.407 . S
C251 C235 1.374 . S
C251 H261 0.928 . S
C251 C265 1.388 . S
C252 C234 1.407 . S
C252 C247 1.407 . S
C252 C253 1.428 . S
C253 C252 1.428 . S
C253 C254 1.230 . S
C254 C253 1.230 . S
C254 C255 1.405 . S
C255 C235 1.388 . S
C255 C248 1.388 . S
C255 C254 1.405 . S
H256 C246 0.928 . S
H257 C247 0.929 . S
H258 C248 0.928 . S
H259 C249 0.928 . S
H260 C250 0.929 . S
H261 C251 0.928 . S
C262 C238 1.407 . S
C262 C250 1.407 . S
C262 C263 1.428 . S
C263 C262 1.428 . S
C263 C264 1.230 . S
C264 C263 1.230 . S
C264 C265 1.405 . S
C265 C239 1.388 . S
C265 C251 1.388 . S
C265 C264 1.405 . S
C266 C267 1.420 . S
C266 C268 1.385 . S
C266 H274 0.928 . S
C267 C266 1.420 . S
C267 C280 1.420 . S
C268 C266 1.385 . S
C268 H275 0.929 . S
C268 C286 1.407 . S
C269 H276 0.928 . S
C269 C285 1.374 . S
C269 C289 1.388 . S
C270 C271 1.420 . S
C270 C272 1.385 . S
C270 H277 0.928 . S
C271 C270 1.420 . S
C271 C283 1.420 . S
C272 C270 1.385 . S
C272 H278 0.929 . S
C272 C296 1.407 . S
C273 H279 0.928 . S
C273 C282 1.374 . S
C273 C299 1.388 . S
H274 C266 0.928 . S
H275 C268 0.929 . S
H276 C269 0.928 . S
H277 C270 0.928 . S
H278 C272 0.929 . S
H279 C273 0.928 . S
C280 C267 1.420 . S
C280 C281 1.385 . S
C280 H290 0.928 . S
C281 C280 1.385 . S
C281 C286 1.407 . S
C281 H291 0.929 . S
C282 C273 1.374 . S
C282 C289 1.388 . S
C282 H292 0.928 . S
C283 C271 1.420 . S
C283 C284 1.385 . S
C283 H293 0.928 . S
C284 C283 1.385 . S
C284 H294 0.929 . S
C284 C296 1.407 . S
C285 C269 1.374 . S
C285 H295 0.928 . S
C285 C299 1.388 . S
C286 C268 1.407 . S
C286 C281 1.407 . S
C286 C287 1.428 . S
C287 C286 1.428 . S
C287 C288 1.230 . S
C288 C287 1.230 . S
C288 C289 1.405 . S
C289 C269 1.388 . S
C289 C282 1.388 . S
C289 C288 1.405 . S
H290 C280 0.928 . S
H291 C281 0.929 . S
H292 C282 0.928 . S
H293 C283 0.928 . S
H294 C284 0.929 . S
H295 C285 0.928 . S
C296 C272 1.407 . S
C296 C284 1.407 . S
C296 C297 1.428 . S
C297 C296 1.428 . S
C297 C298 1.230 . S
C298 C297 1.230 . S
C298 C299 1.405 . S
C299 C273 1.388 . S
C299 C285 1.388 . S
C299 C298 1.405 . S
C300 C301 1.420 . S
C300 C302 1.385 . S
C300 H308 0.928 . S
C301 C300 1.420 . S
C301 C314 1.420 . S
C302 C300 1.385 . S
C302 H309 0.929 . S
C302 C320 1.407 . S
C303 H310 0.928 . S
C303 C319 1.374 . S
C303 C323 1.388 . S
C304 C305 1.420 . S
C304 C306 1.385 . S
C304 H311 0.928 . S
C305 C304 1.420 . S
C305 C317 1.420 . S
C306 C304 1.385 . S
C306 H312 0.929 . S
C306 C330 1.407 . S
C307 H313 0.928 . S
C307 C316 1.374 . S
C307 C333 1.388 . S
H308 C300 0.928 . S
H309 C302 0.929 . S
H310 C303 0.928 . S
H311 C304 0.928 . S
H312 C306 0.929 . S
H313 C307 0.928 . S
C314 C301 1.420 . S
C314 C315 1.385 . S
C314 H324 0.928 . S
C315 C314 1.385 . S
C315 C320 1.407 . S
C315 H325 0.929 . S
C316 C307 1.374 . S
C316 C323 1.388 . S
C316 H326 0.928 . S
C317 C305 1.420 . S
C317 C318 1.385 . S
C317 H327 0.928 . S
C318 C317 1.385 . S
C318 H328 0.929 . S
C318 C330 1.407 . S
C319 C303 1.374 . S
C319 H329 0.928 . S
C319 C333 1.388 . S
C320 C302 1.407 . S
C320 C315 1.407 . S
C320 C321 1.428 . S
C321 C320 1.428 . S
C321 C322 1.230 . S
C322 C321 1.230 . S
C322 C323 1.405 . S
C323 C303 1.388 . S
C323 C316 1.388 . S
C323 C322 1.405 . S
H324 C314 0.928 . S
H325 C315 0.929 . S
H326 C316 0.928 . S
H327 C317 0.928 . S
H328 C318 0.929 . S
H329 C319 0.928 . S
C330 C306 1.407 . S
C330 C318 1.407 . S
C330 C331 1.428 . S
C331 C330 1.428 . S
C331 C332 1.230 . S
C332 C331 1.230 . S
C332 C333 1.405 . S
C333 C307 1.388 . S
C333 C319 1.388 . S
C333 C332 1.405 . S
C63 C10 0.516 . S
C67 C33 0.528 . S
C97 C0 1.761 . S
C101 C55 1.744 . S
C131 C18 1.445 . S
C135 C42 1.454 . S
C165 C27 1.926 . S
C169 C32 1.929 . S
C199 C24 1.761 . S
C203 C31 1.748 . S
C237 C49 1.444 . S
C233 C11 1.456 . S
C267 C1 1.938 . S
C271 C58 1.922 . S
C305 C41 0.531 . S
C301 C2 0.519 . S
