# Generated by pormake.
# Topology ocu, (6,8)-cn, num edge types: 1
# Building blocks:
#     Node 0, Type 0, BuildingBlock: KUMJIN_clean_sbu_1, # of connection points: 6
#     Node 1, Type 0, BuildingBlock: KUMJIN_clean_sbu_1, # of connection points: 6
#     Node 2, Type 0, BuildingBlock: KUMJIN_clean_sbu_1, # of connection points: 6
#     Node 3, Type 0, BuildingBlock: KUMJIN_clean_sbu_1, # of connection points: 6
#     Node 4, Type 0, BuildingBlock: KUMJIN_clean_sbu_1, # of connection points: 6
#     Node 5, Type 0, BuildingBlock: KUMJIN_clean_sbu_1, # of connection points: 6
#     Node 6, Type 0, BuildingBlock: KUMJIN_clean_sbu_1, # of connection points: 6
#     Node 7, Type 0, BuildingBlock: KUMJIN_clean_sbu_1, # of connection points: 6
#     Node 8, Type 1, BuildingBlock: GIZVER_clean_sbu_0, # of connection points: 8
#     Node 9, Type 1, BuildingBlock: GIZVER_clean_sbu_0, # of connection points: 8
#     Node 10, Type 1, BuildingBlock: GIZVER_clean_sbu_0, # of connection points: 8
#     Node 11, Type 1, BuildingBlock: GIZVER_clean_sbu_0, # of connection points: 8
#     Node 12, Type 1, BuildingBlock: GIZVER_clean_sbu_0, # of connection points: 8
#     Node 13, Type 1, BuildingBlock: GIZVER_clean_sbu_0, # of connection points: 8
#     Edge 14, Type (0, 1), BuildingBlock: UVAHIK_clean_linker_0, # of connection points: 2
#     Edge 15, Type (0, 1), BuildingBlock: UVAHIK_clean_linker_0, # of connection points: 2
#     Edge 16, Type (0, 1), BuildingBlock: UVAHIK_clean_linker_0, # of connection points: 2
#     Edge 17, Type (0, 1), BuildingBlock: UVAHIK_clean_linker_0, # of connection points: 2
#     Edge 18, Type (0, 1), BuildingBlock: UVAHIK_clean_linker_0, # of connection points: 2
#     Edge 19, Type (0, 1), BuildingBlock: UVAHIK_clean_linker_0, # of connection points: 2
#     Edge 20, Type (0, 1), BuildingBlock: UVAHIK_clean_linker_0, # of connection points: 2
#     Edge 21, Type (0, 1), BuildingBlock: UVAHIK_clean_linker_0, # of connection points: 2
#     Edge 22, Type (0, 1), BuildingBlock: UVAHIK_clean_linker_0, # of connection points: 2
#     Edge 23, Type (0, 1), BuildingBlock: UVAHIK_clean_linker_0, # of connection points: 2
#     Edge 24, Type (0, 1), BuildingBlock: UVAHIK_clean_linker_0, # of connection points: 2
#     Edge 25, Type (0, 1), BuildingBlock: UVAHIK_clean_linker_0, # of connection points: 2
#     Edge 26, Type (0, 1), BuildingBlock: UVAHIK_clean_linker_0, # of connection points: 2
#     Edge 27, Type (0, 1), BuildingBlock: UVAHIK_clean_linker_0, # of connection points: 2
#     Edge 28, Type (0, 1), BuildingBlock: UVAHIK_clean_linker_0, # of connection points: 2
#     Edge 29, Type (0, 1), BuildingBlock: UVAHIK_clean_linker_0, # of connection points: 2
#     Edge 30, Type (0, 1), BuildingBlock: UVAHIK_clean_linker_0, # of connection points: 2
#     Edge 31, Type (0, 1), BuildingBlock: UVAHIK_clean_linker_0, # of connection points: 2
#     Edge 32, Type (0, 1), BuildingBlock: UVAHIK_clean_linker_0, # of connection points: 2
#     Edge 33, Type (0, 1), BuildingBlock: UVAHIK_clean_linker_0, # of connection points: 2
#     Edge 34, Type (0, 1), BuildingBlock: UVAHIK_clean_linker_0, # of connection points: 2
#     Edge 35, Type (0, 1), BuildingBlock: UVAHIK_clean_linker_0, # of connection points: 2
#     Edge 36, Type (0, 1), BuildingBlock: UVAHIK_clean_linker_0, # of connection points: 2
#     Edge 37, Type (0, 1), BuildingBlock: UVAHIK_clean_linker_0, # of connection points: 2
#     Edge 38, Type (0, 1), BuildingBlock: UVAHIK_clean_linker_0, # of connection points: 2
#     Edge 39, Type (0, 1), BuildingBlock: UVAHIK_clean_linker_0, # of connection points: 2
#     Edge 40, Type (0, 1), BuildingBlock: UVAHIK_clean_linker_0, # of connection points: 2
#     Edge 41, Type (0, 1), BuildingBlock: UVAHIK_clean_linker_0, # of connection points: 2
#     Edge 42, Type (0, 1), BuildingBlock: UVAHIK_clean_linker_0, # of connection points: 2
#     Edge 43, Type (0, 1), BuildingBlock: UVAHIK_clean_linker_0, # of connection points: 2
#     Edge 44, Type (0, 1), BuildingBlock: UVAHIK_clean_linker_0, # of connection points: 2
#     Edge 45, Type (0, 1), BuildingBlock: UVAHIK_clean_linker_0, # of connection points: 2
#     Edge 46, Type (0, 1), BuildingBlock: UVAHIK_clean_linker_0, # of connection points: 2
#     Edge 47, Type (0, 1), BuildingBlock: UVAHIK_clean_linker_0, # of connection points: 2
#     Edge 48, Type (0, 1), BuildingBlock: UVAHIK_clean_linker_0, # of connection points: 2
#     Edge 49, Type (0, 1), BuildingBlock: UVAHIK_clean_linker_0, # of connection points: 2
#     Edge 50, Type (0, 1), BuildingBlock: UVAHIK_clean_linker_0, # of connection points: 2
#     Edge 51, Type (0, 1), BuildingBlock: UVAHIK_clean_linker_0, # of connection points: 2
#     Edge 52, Type (0, 1), BuildingBlock: UVAHIK_clean_linker_0, # of connection points: 2
#     Edge 53, Type (0, 1), BuildingBlock: UVAHIK_clean_linker_0, # of connection points: 2
#     Edge 54, Type (0, 1), BuildingBlock: UVAHIK_clean_linker_0, # of connection points: 2
#     Edge 55, Type (0, 1), BuildingBlock: UVAHIK_clean_linker_0, # of connection points: 2
#     Edge 56, Type (0, 1), BuildingBlock: UVAHIK_clean_linker_0, # of connection points: 2
#     Edge 57, Type (0, 1), BuildingBlock: UVAHIK_clean_linker_0, # of connection points: 2
#     Edge 58, Type (0, 1), BuildingBlock: UVAHIK_clean_linker_0, # of connection points: 2
#     Edge 59, Type (0, 1), BuildingBlock: UVAHIK_clean_linker_0, # of connection points: 2
#     Edge 60, Type (0, 1), BuildingBlock: UVAHIK_clean_linker_0, # of connection points: 2
#     Edge 61, Type (0, 1), BuildingBlock: UVAHIK_clean_linker_0, # of connection points: 2
# Relax obj value: 0.149
# Max RMSD: 0.214
# Mean RMSD: 0.171
data_MOF--net-ocu--node1-KUMJIN_clean_sbu_1--node2-GIZVER_clean_sbu_0--edge1-UVAHIK_clean_linker_0
_symmetry_space_group_name_H-M    P1
_symmetry_Int_Tables_number       1
_symmetry_cell_setting            triclinic
loop_
_symmetry_equiv_pos_as_xyz
'x, y, z'
_cell_length_a     53.574095
_cell_length_b     55.842209
_cell_length_c     43.545054
_cell_angle_alpha  99.351138
_cell_angle_beta   80.895259
_cell_angle_gamma 107.6867
loop_
_atom_site_label
_atom_site_type_symbol
_atom_site_fract_x
_atom_site_fract_y
_atom_site_fract_z
_atom_type_partial_charge
Eu0 Eu 0.25074 0.25496 0.21024 0.0
C1 C 0.3129 0.32552 0.32371 0.0
N2 N 0.32175 0.31614 0.2946 0.0
C3 C 0.35491 0.35568 0.2889 0.0
C4 C 0.32444 0.35071 0.33626 0.0
C5 C 0.34307 0.33046 0.27768 0.0
C6 C 0.34539 0.36594 0.3182 0.0
C7 C 0.28372 0.3184 0.37215 0.0
C8 C 0.29285 0.30957 0.34153 0.0
C9 C 0.29485 0.34361 0.3845 0.0
C10 C 0.31513 0.35973 0.36659 0.0
Eu11 Eu 0.30063 0.27327 0.27788 0.0
N12 N 0.28202 0.28544 0.32865 0.0
C13 C 0.2637 0.30159 0.38944 0.0
C14 C 0.26325 0.26872 0.34577 0.0
C15 C 0.25357 0.27659 0.37626 0.0
H16 H 0.35148 0.32225 0.25597 0.0
H17 H 0.23847 0.26331 0.38966 0.0
H18 H 0.21168 0.19812 0.22634 0.0
H19 H 0.32257 0.28201 0.10808 0.0
H20 H 0.25593 0.24927 0.33608 0.0
H21 H 0.25617 0.30763 0.41307 0.0
H22 H 0.29594 0.28972 0.1579 0.0
H23 H 0.37165 0.36704 0.27519 0.0
H24 H 0.28803 0.35077 0.40795 0.0
H25 H 0.32371 0.37905 0.37657 0.0
H26 H 0.20165 0.1537 0.20139 0.0
H27 H 0.35478 0.3854 0.32699 0.0
H28 H 0.31684 0.23834 0.08167 0.0
N29 N 0.24102 0.21209 0.1896 0.0
C30 C 0.25385 0.20691 0.16088 0.0
C31 C 0.21646 0.16845 0.18986 0.0
C32 C 0.24874 0.18185 0.14582 0.0
C33 C 0.22229 0.19352 0.20404 0.0
C34 C 0.22977 0.16257 0.16066 0.0
N35 N 0.2776 0.25071 0.16218 0.0
C36 C 0.29438 0.27051 0.14791 0.0
C37 C 0.28707 0.22142 0.11783 0.0
C38 C 0.27295 0.2266 0.14713 0.0
C39 C 0.3056 0.24156 0.10414 0.0
C40 C 0.30902 0.26622 0.11908 0.0
H41 H 0.22529 0.14309 0.14982 0.0
H42 H 0.25938 0.1576 0.10493 0.0
H43 H 0.29283 0.19217 0.08043 0.0
O44 O 0.23524 0.26917 0.175 0.0
O45 O 0.27572 0.22881 0.21472 0.0
O46 O 0.31364 0.25765 0.22845 0.0
O47 O 0.20865 0.24219 0.20536 0.0
O48 O 0.27928 0.29459 0.21367 0.0
O49 O 0.31511 0.28889 0.23141 0.0
O50 O 0.30905 0.24537 0.30197 0.0
O51 O 0.2679 0.29322 0.28902 0.0
O52 O 0.2413 0.2846 0.24869 0.0
O53 O 0.34039 0.27786 0.28817 0.0
O54 O 0.2682 0.236 0.27632 0.0
O55 O 0.23296 0.24242 0.25766 0.0
C56 C 0.30147 0.23533 0.21479 0.0
C57 C 0.18829 0.2556 0.16764 0.0
C58 C 0.16541 0.27643 0.1408 0.0
C59 C 0.14299 0.25541 0.14266 0.0
C60 C 0.16562 0.23476 0.16905 0.0
C61 C 0.14322 0.23464 0.15645 0.0
C62 C 0.18826 0.27636 0.15296 0.0
C63 C 0.30432 0.30226 0.21824 0.0
C64 C 0.21115 0.25583 0.18288 0.0
C65 C 0.26296 0.17675 0.11679 0.0
C66 C 0.28209 0.19644 0.10289 0.0
C67 C 0.24845 0.29624 0.27615 0.0
C68 C 0.34384 0.26244 0.33418 0.0
C69 C 0.36306 0.24772 0.37243 0.0
C70 C 0.3665 0.27166 0.39035 0.0
C71 C 0.34741 0.286 0.35271 0.0
C72 C 0.35149 0.24327 0.34425 0.0
C73 C 0.35853 0.29049 0.38064 0.0
C74 C 0.2427 0.23165 0.27577 0.0
C75 C 0.33367 0.2583 0.30354 0.0
H76 H 0.12524 0.25514 0.13348 0.0
H77 H 0.16517 0.21855 0.18008 0.0
H78 H 0.12583 0.21852 0.15775 0.0
H79 H 0.20547 0.29272 0.15206 0.0
H80 H 0.37596 0.27618 0.41159 0.0
H81 H 0.34221 0.3012 0.3453 0.0
H82 H 0.34855 0.22505 0.32999 0.0
H83 H 0.36147 0.30884 0.39454 0.0
Eu84 Eu 0.74871 0.28646 0.2645 0.0
C85 C 0.84477 0.25275 0.18389 0.0
N86 N 0.82079 0.23792 0.19481 0.0
C87 C 0.81828 0.2109 0.14599 0.0
C88 C 0.85633 0.24723 0.15315 0.0
C89 C 0.80753 0.21713 0.17657 0.0
C90 C 0.84275 0.22603 0.1342 0.0
C91 C 0.88218 0.28988 0.19219 0.0
C92 C 0.85753 0.27393 0.20323 0.0
C93 C 0.89374 0.28434 0.16163 0.0
C94 C 0.88086 0.2631 0.14218 0.0
Eu95 Eu 0.80451 0.25009 0.24657 0.0
N96 N 0.8455 0.27937 0.23241 0.0
C97 C 0.89443 0.31105 0.21213 0.0
C98 C 0.85795 0.29931 0.25238 0.0
C99 C 0.88236 0.31564 0.24245 0.0
H100 H 0.78886 0.20505 0.18574 0.0
H101 H 0.89197 0.33162 0.2583 0.0
H102 H 0.76023 0.31971 0.33476 0.0
H103 H 0.65988 0.21419 0.22877 0.0
H104 H 0.84953 0.30251 0.27615 0.0
H105 H 0.91333 0.32378 0.2045 0.0
H106 H 0.70307 0.2457 0.2207 0.0
H107 H 0.80773 0.19439 0.13157 0.0
H108 H 0.91261 0.29644 0.15277 0.0
H109 H 0.89 0.25917 0.11862 0.0
H110 H 0.73794 0.32146 0.38889 0.0
H111 H 0.85099 0.22117 0.11046 0.0
H112 H 0.63654 0.21048 0.28231 0.0
N113 N 0.72917 0.28939 0.3169 0.0
C114 C 0.70452 0.2736 0.3229 0.0
C115 C 0.7284 0.30781 0.3706 0.0
C116 C 0.691 0.27403 0.35345 0.0
C117 C 0.74109 0.30661 0.34 0.0
C118 C 0.70329 0.29139 0.3774 0.0
N119 N 0.70645 0.2567 0.26919 0.0
C120 C 0.6942 0.24283 0.24421 0.0
C121 C 0.66758 0.23974 0.30419 0.0
C122 C 0.69304 0.25653 0.29851 0.0
C123 C 0.65602 0.22368 0.27891 0.0
C124 C 0.66921 0.22557 0.2487 0.0
H125 H 0.69354 0.29231 0.40116 0.0
H126 H 0.65528 0.25696 0.38256 0.0
H127 H 0.63476 0.227 0.33946 0.0
O128 O 0.72869 0.30086 0.23409 0.0
O129 O 0.74991 0.25955 0.29818 0.0
O130 O 0.76375 0.22824 0.26606 0.0
O131 O 0.73929 0.32208 0.27932 0.0
O132 O 0.75128 0.26146 0.21732 0.0
O133 O 0.76574 0.22901 0.22791 0.0
O134 O 0.82389 0.24218 0.28281 0.0
O135 O 0.80576 0.27793 0.2129 0.0
O136 O 0.78898 0.30815 0.24372 0.0
O137 O 0.81916 0.21701 0.23948 0.0
O138 O 0.80337 0.27597 0.29271 0.0
O139 O 0.78715 0.30772 0.28363 0.0
C140 C 0.74905 0.23563 0.29061 0.0
C141 C 0.7177 0.34107 0.24933 0.0
C142 C 0.69474 0.35845 0.21848 0.0
C143 C 0.69639 0.37945 0.24156 0.0
C144 C 0.71921 0.36228 0.2721 0.0
C145 C 0.70867 0.38137 0.26812 0.0
C146 C 0.70566 0.33936 0.22231 0.0
C147 C 0.75245 0.23783 0.21173 0.0
C148 C 0.72872 0.32098 0.2541 0.0
C149 C 0.66589 0.25701 0.35921 0.0
C150 C 0.65424 0.23988 0.33468 0.0
C151 C 0.8036 0.30108 0.21893 0.0
C152 C 0.81658 0.1987 0.28535 0.0
C153 C 0.82489 0.17333 0.32136 0.0
C154 C 0.80015 0.15567 0.31685 0.0
C155 C 0.79181 0.18116 0.28191 0.0
C156 C 0.83272 0.19505 0.30554 0.0
C157 C 0.78368 0.1598 0.29767 0.0
C158 C 0.80064 0.29895 0.29954 0.0
C159 C 0.826 0.22064 0.26762 0.0
H160 H 0.68834 0.39451 0.23888 0.0
H161 H 0.72854 0.36416 0.29304 0.0
H162 H 0.70995 0.39766 0.28572 0.0
H163 H 0.70432 0.32309 0.2046 0.0
H164 H 0.79352 0.1383 0.32757 0.0
H165 H 0.77893 0.1838 0.26672 0.0
H166 H 0.85136 0.20926 0.30871 0.0
H167 H 0.7647 0.14614 0.29459 0.0
Eu168 Eu 0.76728 0.7436 0.28744 0.0
C169 C 0.83828 0.79457 0.17306 0.0
N170 N 0.82843 0.80662 0.19977 0.0
C171 C 0.86948 0.83934 0.20123 0.0
C172 C 0.86447 0.8044 0.15963 0.0
C173 C 0.84338 0.82892 0.21367 0.0
C174 C 0.88012 0.82697 0.1742 0.0
C175 C 0.83161 0.75963 0.13102 0.0
C176 C 0.82203 0.7724 0.15888 0.0
C177 C 0.85778 0.76923 0.11783 0.0
C178 C 0.87415 0.79154 0.13208 0.0
Eu179 Eu 0.78438 0.78717 0.21906 0.0
N180 N 0.7969 0.76321 0.17253 0.0
C181 C 0.81454 0.73764 0.11718 0.0
C182 C 0.77985 0.74252 0.15836 0.0
C183 C 0.78847 0.7292 0.13075 0.0
H184 H 0.83509 0.83898 0.23403 0.0
H185 H 0.77496 0.71255 0.11983 0.0
H186 H 0.7188 0.69003 0.27151 0.0
H187 H 0.77371 0.8165 0.38839 0.0
H188 H 0.75957 0.73637 0.16809 0.0
H189 H 0.82116 0.72727 0.09578 0.0
H190 H 0.78956 0.79537 0.3382 0.0
H191 H 0.88131 0.85699 0.21238 0.0
H192 H 0.86551 0.75962 0.0965 0.0
H193 H 0.89424 0.79879 0.12149 0.0
H194 H 0.67379 0.66882 0.29422 0.0
H195 H 0.90033 0.83513 0.16459 0.0
H196 H 0.72901 0.79774 0.41443 0.0
N197 N 0.72434 0.7214 0.30721 0.0
C198 C 0.71435 0.73193 0.33498 0.0
C199 C 0.68491 0.68664 0.3058 0.0
C200 C 0.6889 0.72019 0.3491 0.0
C201 C 0.71027 0.69889 0.29275 0.0
C202 C 0.67412 0.69738 0.33402 0.0
N203 N 0.75387 0.76579 0.33492 0.0
C204 C 0.76991 0.78734 0.34893 0.0
C205 C 0.71987 0.76578 0.37838 0.0
C206 C 0.72966 0.75451 0.34947 0.0
C207 C 0.73584 0.78848 0.39226 0.0
C208 C 0.76104 0.7992 0.37757 0.0
H209 H 0.65449 0.68779 0.34413 0.0
H210 H 0.65953 0.72272 0.38895 0.0
H211 H 0.68661 0.7626 0.41454 0.0
O212 O 0.79921 0.74117 0.31139 0.0
O213 O 0.7424 0.77142 0.29076 0.0
O214 O 0.76866 0.80526 0.26565 0.0
O215 O 0.7637 0.70985 0.30891 0.0
O216 O 0.80748 0.77302 0.28169 0.0
O217 O 0.80172 0.80719 0.26374 0.0
O218 O 0.75435 0.7911 0.19317 0.0
O219 O 0.80931 0.75978 0.21854 0.0
O220 O 0.78118 0.72516 0.24008 0.0
O221 O 0.78979 0.82206 0.19897 0.0
O222 O 0.74365 0.75851 0.22489 0.0
O223 O 0.74915 0.72428 0.24304 0.0
C224 C 0.74798 0.79509 0.28493 0.0
C225 C 0.80384 0.70012 0.30723 0.0
C226 C 0.83725 0.68214 0.31859 0.0
C227 C 0.83457 0.6664 0.2898 0.0
C228 C 0.80158 0.68425 0.27872 0.0
C229 C 0.817 0.66761 0.27001 0.0
C230 C 0.82183 0.6992 0.32693 0.0
C231 C 0.81364 0.79755 0.28068 0.0
C232 C 0.78766 0.71778 0.31654 0.0
C233 C 0.67905 0.73147 0.37779 0.0
C234 C 0.69449 0.75417 0.39239 0.0
C235 C 0.80238 0.73545 0.2217 0.0
C236 C 0.76922 0.81778 0.1532 0.0
C237 C 0.74992 0.83012 0.1131 0.0
C238 C 0.77087 0.82606 0.09097 0.0
C239 C 0.78997 0.81401 0.13078 0.0
C240 C 0.74922 0.82572 0.14426 0.0
C241 C 0.79069 0.81803 0.09981 0.0
C242 C 0.73697 0.73403 0.22655 0.0
C243 C 0.76797 0.81352 0.18597 0.0
H244 H 0.84557 0.65265 0.28279 0.0
H245 H 0.78773 0.68459 0.26333 0.0
H246 H 0.81506 0.65533 0.24802 0.0
H247 H 0.82375 0.71182 0.34868 0.0
H248 H 0.77232 0.82965 0.06696 0.0
H249 H 0.80568 0.80815 0.13717 0.0
H250 H 0.73309 0.82838 0.16161 0.0
H251 H 0.80682 0.81517 0.08265 0.0
Eu252 Eu 0.2445 0.78884 0.25628 0.0
C253 C 0.32081 0.72668 0.29764 0.0
N254 N 0.3271 0.74923 0.28627 0.0
C255 C 0.36364 0.76555 0.31652 0.0
C256 C 0.33525 0.72292 0.31993 0.0
C257 C 0.34876 0.76827 0.29432 0.0
C258 C 0.35659 0.74291 0.32978 0.0
C259 C 0.29506 0.6826 0.29495 0.0
C260 C 0.30105 0.70683 0.2853 0.0
C261 C 0.30842 0.67904 0.31836 0.0
C262 C 0.32849 0.69916 0.33082 0.0
Eu263 Eu 0.2999 0.75311 0.25089 0.0
N264 N 0.28868 0.71089 0.26257 0.0
C265 C 0.27634 0.66256 0.28018 0.0
C266 C 0.27165 0.69112 0.24674 0.0
C267 C 0.26488 0.66678 0.25564 0.0
H268 H 0.35419 0.78577 0.28397 0.0
H269 H 0.25089 0.65129 0.24352 0.0
H270 H 0.21314 0.755 0.19492 0.0
H271 H 0.2976 0.88995 0.27356 0.0
H272 H 0.2629 0.69416 0.2276 0.0
H273 H 0.27114 0.64367 0.28695 0.0
H274 H 0.27605 0.84758 0.28941 0.0
H275 H 0.38047 0.78092 0.32343 0.0
H276 H 0.30388 0.66063 0.32636 0.0
H277 H 0.33914 0.69597 0.34822 0.0
H278 H 0.21031 0.75976 0.14052 0.0
H279 H 0.36818 0.7408 0.34689 0.0
H280 H 0.29711 0.89783 0.21945 0.0
N281 N 0.23913 0.79189 0.20438 0.0
C282 C 0.24999 0.81511 0.19444 0.0
C283 C 0.22193 0.77536 0.15523 0.0
C284 C 0.24841 0.81889 0.16362 0.0
C285 C 0.22409 0.77251 0.18592 0.0
C286 C 0.23449 0.79853 0.14385 0.0
N287 N 0.2641 0.83105 0.24475 0.0
C288 C 0.27593 0.85049 0.26574 0.0
C289 C 0.27475 0.85931 0.20508 0.0
C290 C 0.26283 0.83518 0.21511 0.0
C291 C 0.2876 0.87908 0.22632 0.0
C292 C 0.288 0.87469 0.25684 0.0
H293 H 0.23278 0.80069 0.12005 0.0
H294 H 0.25969 0.84598 0.12989 0.0
H295 H 0.28295 0.88128 0.16607 0.0
O296 O 0.21957 0.81326 0.27583 0.0
O297 O 0.27928 0.78991 0.21853 0.0
O298 O 0.31248 0.79461 0.24674 0.0
O299 O 0.20154 0.7738 0.26038 0.0
O300 O 0.26873 0.80445 0.29762 0.0
O301 O 0.30403 0.78662 0.28972 0.0
O302 O 0.31113 0.75159 0.2003 0.0
O303 O 0.26068 0.73486 0.2777 0.0
O304 O 0.24294 0.76792 0.29788 0.0
O305 O 0.33781 0.74668 0.23093 0.0
O306 O 0.27002 0.7392 0.21522 0.0
O307 O 0.23159 0.74716 0.24006 0.0
C308 C 0.30309 0.80222 0.22552 0.0
C309 C 0.18365 0.79091 0.30836 0.0
C310 C 0.1837 0.79789 0.36518 0.0
C311 C 0.15727 0.78283 0.36834 0.0
C312 C 0.15732 0.77611 0.3119 0.0
C313 C 0.14431 0.77186 0.34182 0.0
C314 C 0.19689 0.80102 0.33499 0.0
C315 C 0.29078 0.80226 0.30554 0.0
C316 C 0.19812 0.79436 0.27706 0.0
C317 C 0.26052 0.84281 0.15356 0.0
C318 C 0.2737 0.86293 0.1742 0.0
C319 C 0.24445 0.74477 0.29799 0.0
C320 C 0.35286 0.74549 0.17534 0.0
C321 C 0.36183 0.72708 0.12153 0.0
C322 C 0.38909 0.73659 0.12437 0.0
C323 C 0.37996 0.75461 0.1778 0.0
C324 C 0.34391 0.73256 0.147 0.0
C325 C 0.398 0.75052 0.15217 0.0
C326 C 0.24416 0.73378 0.21946 0.0
C327 C 0.33379 0.74827 0.20268 0.0
H328 H 0.14624 0.78033 0.39124 0.0
H329 H 0.14697 0.76768 0.29157 0.0
H330 H 0.12394 0.76046 0.3445 0.0
H331 H 0.21756 0.81165 0.33227 0.0
H332 H 0.40364 0.73236 0.10575 0.0
H333 H 0.38715 0.76474 0.19955 0.0
H334 H 0.32289 0.72583 0.1454 0.0
H335 H 0.41894 0.75743 0.15417 0.0
Eu336 Eu 0.25387 0.77723 0.75402 0.0
C337 C 0.35 0.74393 0.67338 0.0
N338 N 0.32679 0.72877 0.68573 0.0
C339 C 0.32427 0.69986 0.63841 0.0
C340 C 0.36106 0.73772 0.64261 0.0
C341 C 0.31406 0.70678 0.66901 0.0
C342 C 0.3478 0.71545 0.62508 0.0
C343 C 0.38672 0.78203 0.67926 0.0
C344 C 0.36267 0.76588 0.69149 0.0
C345 C 0.39769 0.77596 0.64857 0.0
C346 C 0.3849 0.75388 0.6303 0.0
Eu347 Eu 0.31089 0.74244 0.73718 0.0
N348 N 0.35116 0.77174 0.72079 0.0
C349 C 0.39892 0.80394 0.69816 0.0
C350 C 0.36358 0.7924 0.73978 0.0
C351 C 0.38741 0.80902 0.72866 0.0
H352 H 0.29625 0.6943 0.67943 0.0
H353 H 0.39695 0.82563 0.74369 0.0
H354 H 0.26714 0.82512 0.8122 0.0
H355 H 0.16927 0.69263 0.74601 0.0
H356 H 0.35538 0.79603 0.76355 0.0
H357 H 0.41733 0.8169 0.68957 0.0
H358 H 0.21032 0.72311 0.72666 0.0
H359 H 0.31405 0.68244 0.62519 0.0
H360 H 0.41606 0.78823 0.63872 0.0
H361 H 0.39363 0.74945 0.60667 0.0
H362 H 0.24833 0.83657 0.86612 0.0
H363 H 0.35566 0.71003 0.60136 0.0
H364 H 0.14828 0.70066 0.8 0.0
N365 N 0.23706 0.79038 0.80523 0.0
C366 C 0.21396 0.77479 0.81719 0.0
C367 C 0.23855 0.81909 0.85267 0.0
C368 C 0.20243 0.78069 0.84782 0.0
C369 C 0.24929 0.81243 0.82224 0.0
C370 C 0.21507 0.80311 0.86558 0.0
N371 N 0.21385 0.7472 0.76968 0.0
C372 C 0.20196 0.72643 0.75044 0.0
C373 C 0.17809 0.73603 0.81078 0.0
C374 C 0.20193 0.75269 0.79887 0.0
C375 C 0.16652 0.71399 0.79166 0.0
C376 C 0.17838 0.70932 0.76125 0.0
H377 H 0.20682 0.80831 0.88919 0.0
H378 H 0.16967 0.76825 0.88329 0.0
H379 H 0.14841 0.72916 0.8509 0.0
O380 O 0.23095 0.78087 0.71871 0.0
O381 O 0.25388 0.7499 0.78788 0.0
O382 O 0.2707 0.71967 0.75708 0.0
O383 O 0.24012 0.8107 0.75707 0.0
O384 O 0.25729 0.75164 0.70781 0.0
O385 O 0.2726 0.71989 0.71851 0.0
O386 O 0.33378 0.73869 0.77239 0.0
O387 O 0.3107 0.76966 0.70353 0.0
O388 O 0.29426 0.79989 0.73472 0.0
O389 O 0.32482 0.70911 0.73355 0.0
O390 O 0.30775 0.76827 0.78326 0.0
O391 O 0.29184 0.80009 0.77379 0.0
C392 C 0.25562 0.7266 0.78155 0.0
C393 C 0.23834 0.82243 0.70796 0.0
C394 C 0.22668 0.84427 0.67059 0.0
C395 C 0.25362 0.85655 0.66316 0.0
C396 C 0.26505 0.83512 0.70051 0.0
C397 C 0.27264 0.85197 0.67809 0.0
C398 C 0.21922 0.82704 0.69298 0.0
C399 C 0.25922 0.72834 0.70206 0.0
C400 C 0.23032 0.80371 0.73042 0.0
C401 C 0.17876 0.76406 0.85978 0.0
C402 C 0.16665 0.7418 0.84133 0.0
C403 C 0.30952 0.79307 0.71041 0.0
C404 C 0.32605 0.69698 0.78253 0.0
C405 C 0.33688 0.67738 0.82275 0.0
C406 C 0.31055 0.66216 0.82642 0.0
C407 C 0.29995 0.68149 0.78624 0.0
C408 C 0.34434 0.695 0.80091 0.0
C409 C 0.29222 0.66429 0.80826 0.0
C410 C 0.30613 0.79169 0.78915 0.0
C411 C 0.33431 0.71587 0.7604 0.0
H412 H 0.25997 0.87017 0.64638 0.0
H413 H 0.28002 0.83205 0.71203 0.0
H414 H 0.29331 0.86167 0.67247 0.0
H415 H 0.19859 0.81711 0.69864 0.0
H416 H 0.30428 0.64812 0.84266 0.0
H417 H 0.28561 0.68266 0.77207 0.0
H418 H 0.36441 0.70722 0.79815 0.0
H419 H 0.27206 0.65237 0.811 0.0
Eu420 Eu 0.27115 0.24115 0.78573 0.0
C421 C 0.34298 0.29594 0.67215 0.0
N422 N 0.33229 0.30693 0.69912 0.0
C423 C 0.37199 0.3413 0.70163 0.0
C424 C 0.36898 0.30715 0.65913 0.0
C425 C 0.34613 0.32952 0.71364 0.0
C426 C 0.38353 0.33002 0.67436 0.0
C427 C 0.33846 0.2615 0.62948 0.0
C428 C 0.32789 0.27335 0.65744 0.0
C429 C 0.36441 0.27254 0.61662 0.0
C430 C 0.37962 0.29529 0.6314 0.0
Eu431 Eu 0.28875 0.28523 0.71761 0.0
N432 N 0.3031 0.2626 0.67096 0.0
C433 C 0.32265 0.23881 0.61535 0.0
C434 C 0.28721 0.24114 0.65658 0.0
C435 C 0.29684 0.22872 0.62882 0.0
H436 H 0.3371 0.33874 0.73418 0.0
H437 H 0.2843 0.21145 0.61776 0.0
H438 H 0.22328 0.18731 0.76862 0.0
H439 H 0.27463 0.31444 0.88593 0.0
H440 H 0.26715 0.23358 0.6664 0.0
H441 H 0.33007 0.2291 0.59389 0.0
H442 H 0.29214 0.29273 0.83711 0.0
H443 H 0.38294 0.35917 0.71329 0.0
H444 H 0.3729 0.26365 0.59523 0.0
H445 H 0.39959 0.3036 0.62113 0.0
H446 H 0.17746 0.16647 0.78919 0.0
H447 H 0.40356 0.33922 0.66509 0.0
H448 H 0.22886 0.29635 0.90949 0.0
N449 N 0.2276 0.2191 0.8037 0.0
C450 C 0.21669 0.22991 0.83066 0.0
C451 C 0.1882 0.1844 0.80093 0.0
C452 C 0.19072 0.21843 0.84353 0.0
C453 C 0.21403 0.19643 0.78908 0.0
C454 C 0.17643 0.1955 0.82817 0.0
N455 N 0.25637 0.26351 0.83228 0.0
C456 C 0.27209 0.28497 0.84688 0.0
C457 C 0.22081 0.26414 0.87361 0.0
C458 C 0.23157 0.25253 0.8456 0.0
C459 C 0.23643 0.28682 0.88798 0.0
C460 C 0.26226 0.29715 0.87469 0.0
H461 H 0.15643 0.18609 0.83733 0.0
H462 H 0.15994 0.22153 0.88147 0.0
H463 H 0.18624 0.26153 0.90774 0.0
O464 O 0.30078 0.23977 0.81409 0.0
O465 O 0.24629 0.26878 0.78754 0.0
O466 O 0.2734 0.30332 0.76452 0.0
O467 O 0.2674 0.20694 0.80642 0.0
O468 O 0.31154 0.27016 0.77969 0.0
O469 O 0.30598 0.30471 0.76251 0.0
O470 O 0.25901 0.28698 0.68969 0.0
O471 O 0.31387 0.25797 0.71607 0.0
O472 O 0.28715 0.2232 0.73904 0.0
O473 O 0.29254 0.31963 0.69731 0.0
O474 O 0.2484 0.2561 0.72378 0.0
O475 O 0.25419 0.22158 0.7407 0.0
C476 C 0.25273 0.29297 0.78366 0.0
C477 C 0.30785 0.19988 0.81106 0.0
C478 C 0.34024 0.18347 0.8279 0.0
C479 C 0.34289 0.17015 0.79775 0.0
C480 C 0.31077 0.18636 0.78129 0.0
C481 C 0.32828 0.17166 0.77466 0.0
C482 C 0.32261 0.19843 0.83431 0.0
C483 C 0.31758 0.29477 0.77949 0.0
C484 C 0.28995 0.21599 0.81779 0.0
C485 C 0.17988 0.23006 0.87131 0.0
C486 C 0.19487 0.25283 0.88629 0.0
C487 C 0.30782 0.23385 0.72005 0.0
C488 C 0.25185 0.32692 0.69455 0.0
C489 C 0.21836 0.34327 0.68048 0.0
C490 C 0.21557 0.35527 0.7113 0.0
C491 C 0.24917 0.33952 0.72493 0.0
C492 C 0.23655 0.32898 0.67226 0.0
C493 C 0.23101 0.35347 0.73331 0.0
C494 C 0.24248 0.23148 0.72382 0.0
C495 C 0.26977 0.31085 0.68644 0.0
H496 H 0.35589 0.15812 0.79213 0.0
H497 H 0.2994 0.18712 0.76327 0.0
H498 H 0.33039 0.16125 0.75162 0.0
H499 H 0.3205 0.20912 0.8572 0.0
H500 H 0.20196 0.36663 0.71814 0.0
H501 H 0.26122 0.33856 0.74206 0.0
H502 H 0.23866 0.31935 0.64869 0.0
H503 H 0.22903 0.3631 0.75684 0.0
Eu504 Eu 0.76564 0.27792 0.74202 0.0
C505 C 0.79886 0.2065 0.81397 0.0
N506 N 0.81351 0.22877 0.80351 0.0
C507 C 0.83164 0.24291 0.85236 0.0
C508 C 0.79971 0.20181 0.8446 0.0
C509 C 0.83012 0.24673 0.82185 0.0
C510 C 0.81629 0.22041 0.86385 0.0
C511 C 0.76662 0.16554 0.80479 0.0
C512 C 0.78238 0.18863 0.79426 0.0
C513 C 0.76738 0.16086 0.83531 0.0
C514 C 0.78387 0.17894 0.85515 0.0
Eu515 Eu 0.80967 0.2336 0.75195 0.0
N516 N 0.78164 0.19383 0.76497 0.0
C517 C 0.75057 0.14777 0.7843 0.0
C518 C 0.76747 0.17578 0.74427 0.0
C519 C 0.7513 0.15279 0.75377 0.0
H520 H 0.84239 0.26389 0.81284 0.0
H521 H 0.73975 0.13875 0.73735 0.0
H522 H 0.72636 0.2459 0.68721 0.0
H523 H 0.8402 0.37037 0.74307 0.0
H524 H 0.76917 0.17851 0.72011 0.0
H525 H 0.73806 0.12991 0.79158 0.0
H526 H 0.81268 0.33173 0.76475 0.0
H527 H 0.84471 0.25727 0.86695 0.0
H528 H 0.75526 0.14331 0.84381 0.0
H529 H 0.78417 0.17507 0.87866 0.0
H530 H 0.71831 0.25068 0.63457 0.0
H531 H 0.81745 0.21753 0.88754 0.0
H532 H 0.83466 0.37808 0.69059 0.0
N533 N 0.7565 0.28077 0.6918 0.0
C534 C 0.77014 0.3024 0.67917 0.0
C535 C 0.73305 0.26529 0.64676 0.0
C536 C 0.76594 0.30609 0.64931 0.0
C537 C 0.73789 0.26246 0.67639 0.0
C538 C 0.74719 0.28716 0.63311 0.0
N539 N 0.79331 0.31611 0.72399 0.0
C540 C 0.81081 0.33405 0.74133 0.0
C541 C 0.80382 0.34294 0.68276 0.0
C542 C 0.78898 0.32058 0.69572 0.0
C543 C 0.82276 0.36076 0.69982 0.0
C544 C 0.8261 0.35638 0.72933 0.0
H545 H 0.74342 0.28929 0.61012 0.0
H546 H 0.77777 0.33146 0.61353 0.0
H547 H 0.81088 0.3637 0.6428 0.0
O548 O 0.75171 0.3064 0.77415 0.0
O549 O 0.79683 0.27288 0.70114 0.0
O550 O 0.82961 0.267 0.72457 0.0
O551 O 0.72566 0.28052 0.74246 0.0
O552 O 0.79022 0.28991 0.78334 0.0
O553 O 0.82644 0.27543 0.76519 0.0
O554 O 0.8267 0.20503 0.72448 0.0
O555 O 0.77946 0.24115 0.79263 0.0
O556 O 0.74599 0.24352 0.76784 0.0
O557 O 0.85088 0.23545 0.75366 0.0
O558 O 0.78609 0.22267 0.70967 0.0
O559 O 0.74923 0.23599 0.72835 0.0
C560 C 0.82187 0.27555 0.70245 0.0
C561 C 0.70644 0.29237 0.79308 0.0
C562 C 0.69234 0.29584 0.84949 0.0
C563 C 0.66587 0.2872 0.84284 0.0
C564 C 0.68002 0.2839 0.78715 0.0
C565 C 0.65987 0.28084 0.81197 0.0
C566 C 0.7124 0.29709 0.82419 0.0
C567 C 0.81493 0.29068 0.78417 0.0
C568 C 0.72763 0.29752 0.76688 0.0
C569 C 0.7807 0.32833 0.63645 0.0
C570 C 0.79956 0.3467 0.65313 0.0
C571 C 0.75422 0.23601 0.79047 0.0
C572 C 0.8692 0.22568 0.70217 0.0
C573 C 0.87665 0.22947 0.64612 0.0
C574 C 0.90389 0.2395 0.64846 0.0
C575 C 0.89635 0.23547 0.70407 0.0
C576 C 0.8595 0.22414 0.67356 0.0
C577 C 0.91354 0.24284 0.67738 0.0
C578 C 0.76115 0.22126 0.70889 0.0
C579 C 0.85062 0.21794 0.72996 0.0
H580 H 0.64958 0.2864 0.86118 0.0
H581 H 0.67498 0.27999 0.76335 0.0
H582 H 0.63949 0.27452 0.80726 0.0
H583 H 0.7328 0.30262 0.82857 0.0
H584 H 0.9179 0.24356 0.62783 0.0
H585 H 0.90419 0.23743 0.72609 0.0
H586 H 0.83843 0.2177 0.67227 0.0
H587 H 0.93453 0.25029 0.67887 0.0
Eu588 Eu 0.75742 0.75566 0.72203 0.0
C589 C 0.80075 0.81871 0.84041 0.0
N590 N 0.81396 0.81422 0.81174 0.0
C591 C 0.83737 0.85824 0.81257 0.0
C592 C 0.8048 0.84357 0.85587 0.0
C593 C 0.83252 0.8333 0.79798 0.0
C594 C 0.82335 0.86343 0.84156 0.0
C595 C 0.76797 0.80272 0.88308 0.0
C596 C 0.78249 0.79841 0.85378 0.0
C597 C 0.77163 0.82753 0.89829 0.0
C598 C 0.79005 0.84788 0.88478 0.0
Eu599 Eu 0.80581 0.77167 0.78978 0.0
N600 N 0.77927 0.77451 0.8385 0.0
C601 C 0.75049 0.78191 0.89653 0.0
C602 C 0.7637 0.75411 0.85266 0.0
C603 C 0.74864 0.75749 0.88146 0.0
H604 H 0.84361 0.82924 0.7758 0.0
H605 H 0.73599 0.74122 0.8923 0.0
H606 H 0.70378 0.70926 0.7453 0.0
H607 H 0.81925 0.76044 0.6098 0.0
H608 H 0.7634 0.73515 0.84254 0.0
H609 H 0.73895 0.78444 0.91898 0.0
H610 H 0.80263 0.77675 0.6629 0.0
H611 H 0.85192 0.87342 0.8015 0.0
H612 H 0.76052 0.83116 0.92071 0.0
H613 H 0.79273 0.86688 0.89689 0.0
H614 H 0.68165 0.66467 0.72768 0.0
H615 H 0.82703 0.88279 0.8527 0.0
H616 H 0.80002 0.71578 0.58861 0.0
N617 N 0.73426 0.71302 0.70712 0.0
C618 C 0.7429 0.7024 0.67864 0.0
C619 C 0.69907 0.67494 0.71386 0.0
C620 C 0.7302 0.67724 0.66701 0.0
C621 C 0.71203 0.70008 0.72415 0.0
C622 C 0.70836 0.66337 0.68532 0.0
N623 N 0.77558 0.7413 0.6721 0.0
C624 C 0.7946 0.75712 0.65401 0.0
C625 C 0.77238 0.70706 0.63008 0.0
C626 C 0.7638 0.71707 0.66039 0.0
C627 C 0.79286 0.72279 0.61199 0.0
C628 C 0.80384 0.74799 0.6239 0.0
H629 H 0.69808 0.64399 0.67722 0.0
H630 H 0.72975 0.64761 0.62799 0.0
H631 H 0.76664 0.67374 0.59566 0.0
O632 O 0.7508 0.78721 0.70359 0.0
O633 O 0.7937 0.74022 0.71026 0.0
O634 O 0.806 0.73546 0.75712 0.0
O635 O 0.72046 0.75157 0.70367 0.0
O636 O 0.79047 0.79235 0.72374 0.0
O637 O 0.82479 0.78452 0.74267 0.0
O638 O 0.8234 0.76121 0.82626 0.0
O639 O 0.78162 0.7984 0.78475 0.0
O640 O 0.74306 0.77063 0.77123 0.0
O641 O 0.84865 0.78204 0.78885 0.0
O642 O 0.77621 0.7326 0.78645 0.0
O643 O 0.7413 0.73966 0.76819 0.0
C644 C 0.80635 0.73048 0.72643 0.0
C645 C 0.72295 0.77614 0.66333 0.0
C646 C 0.70569 0.79576 0.62851 0.0
C647 C 0.71511 0.781 0.60268 0.0
C648 C 0.73158 0.7611 0.63724 0.0
C649 C 0.72781 0.76364 0.6071 0.0
C650 C 0.70963 0.79326 0.6589 0.0
C651 C 0.81579 0.79613 0.72479 0.0
C652 C 0.72779 0.77417 0.69512 0.0
C653 C 0.73921 0.66694 0.63723 0.0
C654 C 0.76019 0.68183 0.61878 0.0
C655 C 0.75578 0.79235 0.78581 0.0
C656 C 0.87111 0.77247 0.82765 0.0
C657 C 0.89502 0.75329 0.85531 0.0
C658 C 0.91764 0.77376 0.85062 0.0
C659 C 0.89399 0.79271 0.82328 0.0
C660 C 0.87154 0.75291 0.84423 0.0
C661 C 0.91702 0.79341 0.83495 0.0
C662 C 0.75117 0.72596 0.78206 0.0
C663 C 0.84728 0.7718 0.81414 0.0
H664 H 0.71227 0.78266 0.57911 0.0
H665 H 0.74109 0.74732 0.64002 0.0
H666 H 0.7347 0.75205 0.58713 0.0
H667 H 0.70266 0.80481 0.67892 0.0
H668 H 0.93587 0.77445 0.85901 0.0
H669 H 0.89406 0.80804 0.81085 0.0
H670 H 0.85409 0.73702 0.8474 0.0
H671 H 0.93456 0.80911 0.8315 0.0
Co672 Co 0.06452 0.97257 0.48678 0.0
Co673 Co 0.05859 0.99798 0.542 0.0
Co674 Co 1.02856 0.01518 0.50069 0.0
O675 O 0.06062 1.00534 0.50151 0.0
H676 H 0.07652 0.01875 0.4969 0.0
O677 O 0.99641 0.02525 0.5003 0.0
Co678 Co 0.99332 0.05829 0.51635 0.0
Co679 Co 0.99752 0.03338 0.46061 0.0
H680 H 0.98047 1.01196 0.50517 0.0
O681 O 0.08745 0.99755 0.55861 0.0
O682 O 0.05994 0.96488 0.53137 0.0
O683 O 1.0271 0.99784 0.57048 0.0
O684 O 1.00558 0.98962 0.52906 0.0
O685 O 0.03866 0.04082 0.53718 0.0
O686 O 0.98678 0.08724 0.53125 0.0
O687 O 0.95783 0.04957 0.51778 0.0
O688 O 0.0309 0.07227 0.5189 0.0
O689 O 0.05155 0.04057 0.47195 0.0
O690 O 1.0286 0.03395 0.43187 0.0
O691 O 0.99633 0.06646 0.47226 0.0
O692 O 0.96815 0.03424 0.44525 0.0
C693 C 0.09572 0.95786 0.47797 0.0
C694 C 1.01451 0.96584 0.46514 0.0
C695 C 1.00597 0.98828 0.55795 0.0
C696 C 0.07901 0.97345 0.5493 0.0
C697 C 0.9627 0.07369 0.52776 0.0
C698 C 0.04323 0.06441 0.53616 0.0
C699 C 0.05021 0.0428 0.44355 0.0
C700 C 0.97666 0.05821 0.45521 0.0
O701 O 0.07205 0.94373 0.47324 0.0
O702 O 0.09976 0.98198 0.48741 0.0
O703 O 1.01859 0.98942 0.4643 0.0
O704 O 1.02719 0.95807 0.48214 0.0
Co705 Co 0.56167 0.96714 0.97005 0.0
Co706 Co 0.54819 0.97202 0.02512 0.0
Co707 Co 0.52931 0.01467 0.00264 0.0
O708 O 0.55796 0.99697 0.99965 0.0
H709 H 0.57481 1.00878 0.00381 0.0
O710 O 0.50042 0.03154 0.00588 0.0
Co711 Co 0.4994 0.06373 0.03013 0.0
Co712 Co 0.50186 0.04708 0.97155 0.0
H713 H 0.48327 0.01931 0.00844 0.0
O714 O 0.57182 0.97239 0.04997 0.0
O715 O 0.56158 0.94701 0.00449 0.0
O716 O 0.51203 0.95933 0.03915 0.0
O717 O 0.50412 0.99589 0.03712 0.0
O718 O 0.54795 0.04128 0.03467 0.0
O719 O 0.49562 0.09233 0.05321 0.0
O720 O 0.46327 0.05751 0.0397 0.0
O721 O 0.53698 0.07475 0.025 0.0
O722 O 0.55442 0.03469 0.96929 0.0
O723 O 0.53349 0.05259 0.94334 0.0
O724 O 0.49754 0.07765 0.99126 0.0
O725 O 0.47138 0.04788 0.95915 0.0
C726 C 0.59203 0.95255 0.9453 0.0
C727 C 0.50715 0.96465 0.96605 0.0
C728 C 0.49711 0.97354 0.04519 0.0
C729 C 0.57423 0.95327 0.02942 0.0
C730 C 0.47053 0.08059 0.0542 0.0
C731 C 0.55225 0.06523 0.03566 0.0
C732 C 0.55417 0.04771 0.94769 0.0
C733 C 0.47724 0.07022 0.97521 0.0
O734 O 0.56726 0.94144 0.94261 0.0
O735 O 0.59826 0.97424 0.9634 0.0
O736 O 0.51044 0.98856 0.97014 0.0
O737 O 0.52431 0.9549 0.97182 0.0
Co738 Co 0.05944 0.46808 0.97176 0.0
Co739 Co 0.06179 0.48715 0.02942 0.0
Co740 Co 1.02817 0.51538 0.0016 0.0
O741 O 0.05933 0.50102 0.99481 0.0
H742 H 0.07569 0.51376 0.98979 0.0
O743 O 0.9971 0.52982 0.00851 0.0
Co744 Co 0.99746 0.56327 0.03053 0.0
Co745 Co 0.99452 0.54276 0.97312 0.0
H746 H 0.98073 0.51726 0.01405 0.0
O747 O 0.09362 0.48585 0.03794 0.0
O748 O 0.06397 0.45553 0.0106 0.0
O749 O 0.03217 0.48146 0.06073 0.0
O750 O 1.00624 0.49218 0.03346 0.0
O751 O 0.04523 0.54112 0.03493 0.0
O752 O 0.99482 0.5929 0.05171 0.0
O753 O 0.96175 0.5575 0.04276 0.0
O754 O 0.03524 0.57404 0.02254 0.0
O755 O 0.05009 0.53858 0.96974 0.0
O756 O 1.02381 0.54715 0.94098 0.0
O757 O 0.99302 0.57483 0.99098 0.0
O758 O 0.96271 0.54436 0.96476 0.0
C759 C 0.08748 0.45097 0.94654 0.0
C760 C 1.00629 0.46583 0.96846 0.0
C761 C 1.00955 0.48172 0.05596 0.0
C762 C 0.08544 0.46273 0.0246 0.0
C763 C 0.96969 0.58123 0.05496 0.0
C764 C 0.05027 0.56493 0.03435 0.0
C765 C 0.04661 0.54784 0.94627 0.0
C766 C 0.97133 0.56764 0.97741 0.0
O767 O 0.06243 0.43901 0.94919 0.0
O768 O 0.09519 0.47435 0.95998 0.0
O769 O 1.01102 0.48964 0.96816 0.0
O770 O 1.02171 0.45682 0.97967 0.0
Co771 Co 0.56503 0.46768 0.98965 0.0
Co772 Co 0.55936 0.4934 0.04533 0.0
Co773 Co 0.53078 0.51141 0.00142 0.0
O774 O 0.56214 0.50103 0.00468 0.0
H775 H 0.57839 0.5141 1.00022 0.0
O776 O 0.49932 0.52107 0.99775 0.0
Co777 Co 0.49342 0.55287 0.01217 0.0
Co778 Co 0.50255 0.52833 0.95692 0.0
H779 H 0.48346 0.50734 0.00121 0.0
O780 O 0.58741 0.49045 0.06266 0.0
O781 O 0.55934 0.46 0.03383 0.0
O782 O 0.52732 0.49348 0.0721 0.0
O783 O 0.50623 0.48706 0.03037 0.0
O784 O 0.5398 0.53799 0.03743 0.0
O785 O 0.48339 0.58095 0.02469 0.0
O786 O 0.45885 0.54156 0.00879 0.0
O787 O 0.52992 0.56882 0.01967 0.0
O788 O 0.55529 0.53609 0.97298 0.0
O789 O 0.53517 0.52936 0.93053 0.0
O790 O 0.50061 0.56115 0.96796 0.0
O791 O 0.47452 0.52934 0.93831 0.0
C792 C 0.59556 0.45198 0.98108 0.0
C793 C 0.51627 0.46174 0.96711 0.0
C794 C 0.50614 0.4857 0.05941 0.0
C795 C 0.57839 0.46682 0.05155 0.0
C796 C 0.4607 0.5653 0.01823 0.0
C797 C 0.54311 0.56148 0.03648 0.0
C798 C 0.55594 0.53773 0.94395 0.0
C799 C 0.4825 0.55322 0.94888 0.0
O800 O 0.57171 0.43837 0.97633 0.0
O801 O 0.60017 0.47619 0.99031 0.0
O802 O 0.52165 0.48525 0.96513 0.0
O803 O 0.52786 0.45394 0.9852 0.0
Co804 Co 0.07575 0.48381 0.4987 0.0
Co805 Co 0.0619 0.48403 0.44626 0.0
Co806 Co 1.02838 0.51397 0.50119 0.0
O807 O 0.04344 0.48457 0.48567 0.0
H808 H 0.02994 0.46862 0.48722 0.0
O809 O 1.01312 0.54337 0.51677 0.0
Co810 Co 0.98163 0.54404 0.50128 0.0
Co811 Co 0.99152 0.54227 0.55405 0.0
H812 H 1.02661 0.55945 0.5166 0.0
O813 O 0.06258 0.45367 0.4217 0.0
O814 O 0.09206 0.47714 0.45425 0.0
O815 O 0.07164 0.51558 0.42958 0.0
O816 O 0.05011 0.53632 0.46783 0.0
O817 O 1.00002 0.49746 0.47344 0.0
O818 O 0.95459 0.54691 0.48553 0.0
O819 O 0.99174 0.5775 0.49632 0.0
O820 O 0.96705 0.50881 0.50326 0.0
O821 O 1.00674 0.49151 0.53457 0.0
O822 O 0.97954 0.50963 0.56829 0.0
O823 O 0.96337 0.55164 0.54458 0.0
O824 O 0.99146 0.57177 0.58031 0.0
C825 C 0.08955 0.45703 0.51147 0.0
C826 C 0.08146 0.53484 0.51863 0.0
C827 C 0.06573 0.53562 0.44223 0.0
C828 C 0.08474 0.45769 0.43303 0.0
C829 C 0.96881 0.57036 0.48558 0.0
C830 C 0.97556 0.49287 0.48344 0.0
C831 C 0.98829 0.49081 0.55753 0.0
C832 C 0.97049 0.56979 0.56745 0.0
O833 O 0.10394 0.48045 0.51178 0.0
O834 O 0.06598 0.45031 0.50255 0.0
O835 O 0.05697 0.5304 0.5287 0.0
O836 O 0.08976 0.51929 0.49784 0.0
Co837 Co 0.57266 0.98294 0.50106 0.0
Co838 Co 0.55905 0.98063 0.4478 0.0
Co839 Co 0.52736 0.01466 0.49954 0.0
O840 O 0.54066 0.98383 0.48706 0.0
H841 H 0.52659 0.96844 0.48994 0.0
O842 O 0.51441 0.04572 0.5122 0.0
Co843 Co 0.48345 0.04801 0.49735 0.0
Co844 Co 0.49539 0.04875 0.55086 0.0
H845 H 0.5288 0.061 0.51005 0.0
O846 O 0.5586 0.94923 0.42579 0.0
O847 O 0.5887 0.97359 0.45724 0.0
O848 O 0.56891 1.0104 0.42704 0.0
O849 O 0.54948 0.03384 0.46414 0.0
O850 O 0.49809 0.99744 0.47272 0.0
O851 O 0.45691 0.05245 0.48159 0.0
O852 O 0.4954 0.08124 0.492 0.0
O853 O 0.4671 1.01339 0.50033 0.0
O854 O 0.50525 0.99556 0.53497 0.0
O855 O 0.4851 0.01888 0.57138 0.0
O856 O 0.4665 0.0567 0.54089 0.0
O857 O 0.4964 0.08007 0.57319 0.0
C858 C 0.58505 0.95664 0.51742 0.0
C859 C 0.58083 0.03396 0.51792 0.0
C860 C 0.56395 0.03119 0.43811 0.0
C861 C 0.58087 0.95354 0.43698 0.0
C862 C 0.47266 0.07529 0.48105 0.0
C863 C 0.47379 0.9962 0.48094 0.0
C864 C 0.49045 0.99822 0.56071 0.0
C865 C 0.4744 0.07638 0.56164 0.0
O866 O 0.60026 0.97959 0.51558 0.0
O867 O 0.56167 0.95001 0.50796 0.0
O868 O 0.55637 0.03158 0.52649 0.0
O869 O 0.58806 0.01785 0.49708 0.0
C870 C 0.19684 0.20714 0.29495 0.0
C871 C 0.22424 0.2121 0.29426 0.0
C872 C 0.17946 0.18872 0.31237 0.0
C873 C 0.17588 0.13266 0.35043 0.0
H874 H 0.10973 0.14359 0.39103 0.0
C875 C 0.098 0.0677 0.43516 0.0
C876 C 0.07247 0.05999 0.42592 0.0
C877 C 0.11823 0.08586 0.41996 0.0
C878 C 0.12817 0.14035 0.37981 0.0
H879 H 0.25481 0.20153 0.3115 0.0
H880 H 0.2245 0.16998 0.34258 0.0
H881 H 0.14182 0.17674 0.36367 0.0
H882 H 0.04827 0.0651 0.39325 0.0
H883 H 0.08333 0.09698 0.36745 0.0
H884 H 0.16203 0.09627 0.36729 0.0
C885 C 0.21642 0.17995 0.32914 0.0
C886 C 0.14648 0.15922 0.36393 0.0
C887 C 0.23382 0.19821 0.31146 0.0
C888 C 0.06772 0.07045 0.40088 0.0
C889 C 0.08771 0.08884 0.38621 0.0
C890 C 0.15765 0.11389 0.36676 0.0
C891 C 0.18901 0.17497 0.32984 0.0
C892 C 0.17035 0.15545 0.34849 0.0
C893 C 0.11302 0.09692 0.39582 0.0
C894 C 0.13346 0.11744 0.38105 0.0
H895 H 0.18874 0.21741 0.28193 0.0
H896 H 0.15849 0.18508 0.31182 0.0
H897 H 0.19392 0.12896 0.33856 0.0
H898 H 0.10222 0.05999 0.45439 0.0
H899 H 0.13767 0.09186 0.42771 0.0
C900 C 0.83218 0.15401 0.36656 0.0
C901 C 0.84267 0.1686 0.34157 0.0
C902 C 0.84866 0.14743 0.38348 0.0
C903 C 0.91855 0.14481 0.37807 0.0
H904 H 0.89137 0.11791 0.45702 0.0
C905 C 0.9742 0.10205 0.45178 0.0
C906 C 0.96298 0.07562 0.44792 0.0
C907 C 0.96136 0.11798 0.44317 0.0
C908 C 0.89958 0.12622 0.4356 0.0
H909 H 0.87947 0.18886 0.31636 0.0
H910 H 0.90789 0.17978 0.34778 0.0
H911 H 0.86686 0.14035 0.43602 0.0
H912 H 0.92897 0.04535 0.43343 0.0
H913 H 0.90655 0.0732 0.41925 0.0
H914 H 0.95192 0.13137 0.37905 0.0
C915 C 0.88683 0.17199 0.35321 0.0
C916 C 0.88519 0.13845 0.42285 0.0
C917 C 0.87031 0.17777 0.33546 0.0
C918 C 0.93835 0.06557 0.43635 0.0
C919 C 0.92539 0.08146 0.42839 0.0
C920 C 0.9335 0.13365 0.39168 0.0
C921 C 0.87632 0.15603 0.3769 0.0
C922 C 0.89384 0.147 0.39316 0.0
C923 C 0.93695 0.10768 0.43128 0.0
C924 C 0.92377 0.12371 0.42014 0.0
H925 H 0.81111 0.14719 0.37295 0.0
H926 H 0.83935 0.13483 0.40103 0.0
H927 H 0.92597 0.15048 0.35499 0.0
H928 H 0.99308 0.11033 0.46077 0.0
H929 H 0.9705 0.13826 0.44559 0.0
C930 C 0.8395 0.84102 0.30272 0.0
C931 C 0.83497 0.81461 0.29883 0.0
C932 C 0.85895 0.85689 0.32083 0.0
C933 C 0.91904 0.85874 0.35519 0.0
H934 H 0.90453 0.91672 0.40871 0.0
C935 C 0.98923 0.92129 0.44524 0.0
C936 C 0.99364 0.94762 0.44723 0.0
C937 C 0.96977 0.90449 0.42774 0.0
C938 C 0.90903 0.90075 0.3937 0.0
H939 H 0.84751 0.78426 0.31114 0.0
H940 H 0.88105 0.81182 0.3429 0.0
H941 H 0.87129 0.88896 0.37663 0.0
H942 H 0.98074 0.9768 0.43235 0.0
H943 H 0.9472 0.94772 0.40203 0.0
H944 H 0.95682 0.8706 0.37238 0.0
C945 C 0.86988 0.82036 0.33157 0.0
C946 C 0.88995 0.88482 0.3752 0.0
C947 C 0.85047 0.80451 0.31346 0.0
C948 C 0.97798 0.95667 0.43147 0.0
C949 C 0.95853 0.93994 0.41417 0.0
C950 C 0.93813 0.87467 0.37377 0.0
C951 C 0.87434 0.84678 0.33564 0.0
C952 C 0.89471 0.86366 0.35554 0.0
C953 C 0.95413 0.91362 0.412 0.0
C954 C 0.93345 0.89599 0.39313 0.0
H955 H 0.8278 0.84948 0.2921 0.0
H956 H 0.86199 0.87715 0.32309 0.0
H957 H 0.92359 0.84283 0.34008 0.0
H958 H 1.0009 0.91364 0.45706 0.0
H959 H 0.96677 0.88432 0.42681 0.0
C960 C 0.2112 0.83862 0.39067 0.0
C961 C 0.1962 0.81334 0.39285 0.0
C962 C 0.21587 0.85574 0.41757 0.0
C963 C 0.20958 0.89283 0.4725 0.0
H964 H 0.1349 0.87041 0.50023 0.0
C965 C 0.13865 0.95725 0.49361 0.0
C966 C 0.11667 0.94563 0.47701 0.0
C967 C 0.15571 0.94349 0.49728 0.0
C968 C 0.15597 0.87718 0.49369 0.0
H969 H 0.17963 0.78504 0.42482 0.0
H970 H 0.1877 0.81509 0.47207 0.0
H971 H 0.15912 0.83983 0.48675 0.0
H972 H 0.09634 0.91127 0.4495 0.0
H973 H 0.12629 0.88774 0.45496 0.0
H974 H 0.20507 0.93016 0.47663 0.0
C975 C 0.19496 0.8219 0.44949 0.0
C976 C 0.17015 0.85953 0.48601 0.0
C977 C 0.19008 0.80468 0.42243 0.0
C978 C 0.1129 0.92064 0.46273 0.0
C979 C 0.12987 0.90706 0.46624 0.0
C980 C 0.19528 0.91063 0.48034 0.0
C981 C 0.20518 0.84806 0.44727 0.0
C982 C 0.19636 0.86673 0.47173 0.0
C983 C 0.15095 0.91802 0.48433 0.0
C984 C 0.16786 0.90243 0.48824 0.0
H985 H 0.21672 0.84611 0.36836 0.0
H986 H 0.22444 0.87553 0.41445 0.0
H987 H 0.23012 0.8992 0.46305 0.0
H988 H 0.14191 0.9765 0.50503 0.0
H989 H 0.17203 0.95243 0.51099 0.0
C990 C 0.18393 0.8548 0.67466 0.0
C991 C 0.20647 0.85047 0.6561 0.0
C992 C 0.16638 0.86344 0.66197 0.0
C993 C 0.14597 0.87269 0.58848 0.0
H994 H 0.13168 0.93221 0.63842 0.0
C995 C 0.08224 0.92976 0.55228 0.0
C996 C 0.09197 0.95623 0.55861 0.0
C997 C 0.0941 0.91397 0.56301 0.0
C998 C 0.1355 0.91563 0.62414 0.0
H999 H 0.22734 0.85021 0.60917 0.0
H1000 H 0.19677 0.86564 0.58707 0.0
H1001 H 0.15529 0.9087 0.65919 0.0
H1002 H 0.12275 0.98683 0.57945 0.0
H1003 H 0.14334 0.95956 0.59758 0.0
H1004 H 0.12602 0.8799 0.55353 0.0
C1005 C 0.19269 0.86228 0.61142 0.0
C1006 C 0.14877 0.90198 0.63621 0.0
C1007 C 0.21034 0.85373 0.62416 0.0
C1008 C 0.11433 0.96654 0.57471 0.0
C1009 C 0.12612 0.95088 0.58527 0.0
C1010 C 0.13231 0.88624 0.57657 0.0
C1011 C 0.17093 0.86787 0.63043 0.0
C1012 C 0.15459 0.88064 0.61833 0.0
C1013 C 0.1158 0.92444 0.5803 0.0
C1014 C 0.12765 0.90829 0.59389 0.0
H1015 H 0.18045 0.85259 0.69937 0.0
H1016 H 0.14961 0.86734 0.67709 0.0
H1017 H 0.14997 0.85615 0.57429 0.0
H1018 H 0.06521 0.92127 0.5396 0.0
H1019 H 0.0858 0.89364 0.55862 0.0
C1020 C 0.2171 0.1882 0.70074 0.0
C1021 C 0.22143 0.2146 0.70513 0.0
C1022 C 0.1977 0.17243 0.68251 0.0
C1023 C 0.15784 0.17282 0.62024 0.0
H1024 H 0.11412 0.10906 0.64767 0.0
C1025 C 0.06829 0.10879 0.55692 0.0
C1026 C 0.06398 0.08245 0.55439 0.0
C1027 C 0.0874 0.12539 0.57506 0.0
C1028 C 0.12634 0.12665 0.6394 0.0
H1029 H 0.20874 0.24505 0.69342 0.0
H1030 H 0.17492 0.2176 0.66183 0.0
H1031 H 0.14748 0.13673 0.67962 0.0
H1032 H 0.07701 0.05305 0.5685 0.0
H1033 H 0.11031 0.08178 0.59939 0.0
H1034 H 0.13677 0.16264 0.5799 0.0
C1035 C 0.18664 0.20907 0.67232 0.0
C1036 C 0.14551 0.14256 0.65779 0.0
C1037 C 0.20597 0.22482 0.69063 0.0
C1038 C 0.07953 0.07319 0.57006 0.0
C1039 C 0.0986 0.08972 0.58803 0.0
C1040 C 0.13868 0.15686 0.60177 0.0
C1041 C 0.18221 0.18265 0.66801 0.0
C1042 C 0.1616 0.16583 0.64844 0.0
C1043 C 0.1027 0.11605 0.59106 0.0
C1044 C 0.12273 0.13348 0.61101 0.0
H1045 H 0.22896 0.17967 0.71099 0.0
H1046 H 0.19517 0.15223 0.67931 0.0
H1047 H 0.17008 0.19044 0.61208 0.0
H1048 H 0.05665 0.11658 0.54525 0.0
H1049 H 0.08982 0.14553 0.57703 0.0
C1050 C 0.87939 0.23108 0.588 0.0
C1051 C 0.86669 0.21985 0.61507 0.0
C1052 C 0.87632 0.21708 0.5584 0.0
C1053 C 0.85546 0.1466 0.52889 0.0
H1054 H 0.93097 0.16455 0.50616 0.0
C1055 C 0.91979 0.07632 0.51442 0.0
C1056 C 0.94229 0.08683 0.53034 0.0
C1057 C 0.9041 0.09146 0.51071 0.0
C1058 C 0.90977 0.15922 0.51235 0.0
H1059 H 0.83637 0.18712 0.63153 0.0
H1060 H 0.83153 0.16334 0.58166 0.0
H1061 H 0.90943 0.19738 0.51806 0.0
H1062 H 0.96443 0.12041 0.55759 0.0
H1063 H 0.93681 0.14628 0.55215 0.0
H1064 H 0.85696 0.10835 0.52633 0.0
C1065 C 0.8444 0.18248 0.58216 0.0
C1066 C 0.89708 0.17812 0.51875 0.0
C1067 C 0.84723 0.19642 0.61152 0.0
C1068 C 0.94752 0.1119 0.54469 0.0
C1069 C 0.93191 0.12684 0.54116 0.0
C1070 C 0.86833 0.12767 0.52337 0.0
C1071 C 0.86148 0.19131 0.5557 0.0
C1072 C 0.87029 0.1724 0.53124 0.0
C1073 C 0.91074 0.11714 0.52306 0.0
C1074 C 0.89594 0.13437 0.51809 0.0
H1075 H 0.89336 0.24977 0.58977 0.0
H1076 H 0.88808 0.22556 0.53825 0.0
H1077 H 0.83435 0.14107 0.53541 0.0
H1078 H 0.91528 0.05697 0.50318 0.0
H1079 H 0.88761 0.08343 0.49708 0.0
C1080 C 0.82603 0.83377 0.69587 0.0
C1081 C 0.83474 0.81585 0.7071 0.0
C1082 C 0.84382 0.85268 0.67953 0.0
C1083 C 0.9153 0.8856 0.66503 0.0
H1084 H 0.89324 0.9091 0.59759 0.0
C1085 C 0.98186 0.9724 0.60803 0.0
C1086 C 0.98337 0.97127 0.57536 0.0
C1087 C 0.96254 0.9543 0.62413 0.0
C1088 C 0.89984 0.90264 0.61617 0.0
H1089 H 0.86888 0.80336 0.70942 0.0
H1090 H 0.89987 0.83589 0.68002 0.0
H1091 H 0.86283 0.87467 0.62415 0.0
H1092 H 0.96529 0.95067 0.53401 0.0
H1093 H 0.932 0.91873 0.56193 0.0
H1094 H 0.95267 0.91276 0.65616 0.0
C1095 C 0.87939 0.83581 0.68459 0.0
C1096 C 0.88224 0.88308 0.63173 0.0
C1097 C 0.86161 0.81705 0.70131 0.0
C1098 C 0.96453 0.95218 0.55924 0.0
C1099 C 0.94539 0.93386 0.5753 0.0
C1100 C 0.93297 0.90496 0.64926 0.0
C1101 C 0.87074 0.85397 0.67362 0.0
C1102 C 0.88969 0.87437 0.65648 0.0
C1103 C 0.94446 0.93441 0.60789 0.0
C1104 C 0.92544 0.91385 0.62473 0.0
H1105 H 0.80547 0.8335 0.70012 0.0
H1106 H 0.83646 0.86657 0.67202 0.0
H1107 H 0.92168 0.87967 0.6842 0.0
H1108 H 0.99598 0.98701 0.62115 0.0
H1109 H 0.96203 0.95574 0.64931 0.0
C1110 C 0.34499 0.22629 0.19436 0.0
C1111 C 0.31723 0.21782 0.19845 0.0
C1112 C 0.35998 0.21011 0.17916 0.0
C1113 C 0.35726 0.15105 0.12399 0.0
H1114 H 0.42056 0.15367 0.15842 0.0
C1115 C 0.42358 0.08382 0.07075 0.0
C1116 C 0.45105 0.09423 0.07094 0.0
C1117 C 0.40596 0.09744 0.08644 0.0
C1118 C 0.40318 0.15283 0.14806 0.0
H1119 H 0.28375 0.18501 0.19038 0.0
H1120 H 0.30978 0.15711 0.16285 0.0
H1121 H 0.39293 0.18007 0.18465 0.0
H1122 H 0.4812 0.12754 0.08772 0.0
H1123 H 0.45106 0.15098 0.11421 0.0
H1124 H 0.36783 0.12406 0.08703 0.0
C1125 C 0.31998 0.17643 0.17123 0.0
C1126 C 0.3872 0.16804 0.16328 0.0
C1127 C 0.30497 0.19254 0.1869 0.0
C1128 C 0.46026 0.11863 0.08709 0.0
C1129 C 0.44279 0.13214 0.10265 0.0
C1130 C 0.37341 0.13591 0.10855 0.0
C1131 C 0.34777 0.18491 0.16728 0.0
C1132 C 0.36412 0.16767 0.15138 0.0
C1133 C 0.41529 0.12184 0.10285 0.0
C1134 C 0.39689 0.13676 0.1201 0.0
H1135 H 0.35529 0.24555 0.20285 0.0
H1136 H 0.38127 0.21753 0.17638 0.0
H1137 H 0.33975 0.15027 0.11393 0.0
H1138 H 0.41568 0.06517 0.05846 0.0
H1139 H 0.38499 0.08866 0.08604 0.0
C1140 C 0.83569 0.31419 0.17167 0.0
C1141 C 0.82087 0.32074 0.19965 0.0
C1142 C 0.8537 0.33296 0.15515 0.0
C1143 C 0.8919 0.40075 0.16692 0.0
H1144 H 0.90787 0.39137 0.0765 0.0
C1145 C 0.96114 0.46998 0.07573 0.0
C1146 C 0.98616 0.46625 0.07416 0.0
C1147 C 0.93885 0.45371 0.09076 0.0
C1148 C 0.90331 0.39426 0.10173 0.0
H1149 H 0.81203 0.35232 0.23097 0.0
H1150 H 0.84243 0.38489 0.20155 0.0
H1151 H 0.87203 0.35962 0.10246 0.0
H1152 H 1.00727 0.44232 0.0868 0.0
H1153 H 0.96834 0.41408 0.11284 0.0
H1154 H 0.92354 0.43527 0.1659 0.0
C1155 C 0.84104 0.36526 0.193 0.0
C1156 C 0.88304 0.37601 0.11666 0.0
C1157 C 0.82337 0.34651 0.20975 0.0
C1158 C 0.98841 0.44606 0.08808 0.0
C1159 C 0.96618 0.42977 0.10279 0.0
C1160 C 0.9121 0.41895 0.15195 0.0
C1161 C 0.85687 0.35878 0.16584 0.0
C1162 C 0.87727 0.37886 0.14953 0.0
C1163 C 0.94129 0.4334 0.1041 0.0
C1164 C 0.91807 0.41569 0.11934 0.0
H1165 H 0.83375 0.29455 0.16273 0.0
H1166 H 0.86562 0.32716 0.13448 0.0
H1167 H 0.88839 0.40346 0.19225 0.0
H1168 H 0.95878 0.48533 0.06518 0.0
H1169 H 0.91972 0.45682 0.09175 0.0
C1170 C 0.72001 0.83147 0.07451 0.0
C1171 C 0.72951 0.83985 0.10391 0.0
C1172 C 0.70214 0.84189 0.06516 0.0
C1173 C 0.68036 0.89977 0.08133 0.0
H1174 H 0.62126 0.8601 0.03638 0.0
C1175 C 0.59966 0.94214 0.06547 0.0
C1176 C 0.59039 0.93772 0.03602 0.0
C1177 C 0.61583 0.92872 0.07203 0.0
C1178 C 0.63788 0.87144 0.04858 0.0
H1179 H 0.72711 0.86549 0.14671 0.0
H1180 H 0.69556 0.88311 0.13077 0.0
H1181 H 0.65057 0.8391 0.05189 0.0
H1182 H 0.59027 0.91499 0.99061 0.0
H1183 H 0.61916 0.89162 0.00203 0.0
H1184 H 0.66781 0.93204 0.07825 0.0
C1185 C 0.70225 0.86877 0.1147 0.0
C1186 C 0.65464 0.85943 0.0575 0.0
C1187 C 0.72011 0.8584 0.12403 0.0
C1188 C 0.5972 0.91896 0.01346 0.0
C1189 C 0.61362 0.9055 0.02005 0.0
C1190 C 0.6637 0.91171 0.07246 0.0
C1191 C 0.69338 0.86096 0.08496 0.0
C1192 C 0.67586 0.87345 0.0744 0.0
C1193 C 0.62343 0.91057 0.04931 0.0
C1194 C 0.64202 0.89768 0.05642 0.0
H1195 H 0.72653 0.81695 0.0586 0.0
H1196 H 0.69578 0.8355 0.04206 0.0
H1197 H 0.6969 0.91127 0.09355 0.0
H1198 H 0.59454 0.95613 0.08366 0.0
H1199 H 0.62248 0.93265 0.09505 0.0
C1200 C 0.2014 0.70219 0.20927 0.0
C1201 C 0.22808 0.71303 0.19897 0.0
C1202 C 0.18473 0.68536 0.1889 0.0
C1203 C 0.18129 0.64346 0.11429 0.0
H1204 H 0.11376 0.65678 0.11853 0.0
C1205 C 0.09093 0.57255 0.06055 0.0
C1206 C 0.07397 0.58224 0.04784 0.0
C1207 C 0.11228 0.58887 0.07519 0.0
C1208 C 0.13262 0.65297 0.11668 0.0
H1209 H 0.25869 0.71362 0.15981 0.0
H1210 H 0.22927 0.68401 0.12383 0.0
H1211 H 0.14632 0.68376 0.15172 0.0
H1212 H 0.06694 0.61674 0.0393 0.0
H1213 H 0.10426 0.64516 0.06467 0.0
H1214 H 0.16739 0.61257 0.07907 0.0
C1215 C 0.22135 0.68863 0.14778 0.0
C1216 C 0.15117 0.66824 0.13604 0.0
C1217 C 0.23817 0.70552 0.16834 0.0
C1218 C 0.07944 0.60862 0.04908 0.0
C1219 C 0.10078 0.62493 0.06373 0.0
C1220 C 0.16261 0.62806 0.09488 0.0
C1221 C 0.19429 0.679 0.15767 0.0
C1222 C 0.17553 0.66343 0.13547 0.0
C1223 C 0.11715 0.61524 0.07748 0.0
C1224 C 0.13795 0.63251 0.09613 0.0
H1225 H 0.19316 0.70728 0.23293 0.0
H1226 H 0.16414 0.67772 0.19747 0.0
H1227 H 0.1999 0.63932 0.11333 0.0
H1228 H 0.08741 0.55233 0.05985 0.0
H1229 H 0.12434 0.58079 0.08578 0.0
C1230 C 0.33663 0.80093 0.83051 0.0
C1231 C 0.32284 0.80971 0.81195 0.0
C1232 C 0.3546 0.81798 0.84946 0.0
C1233 C 0.37566 0.88434 0.88671 0.0
H1234 H 0.44282 0.87052 0.88303 0.0
C1235 C 0.46694 0.95708 0.93847 0.0
C1236 C 0.48355 0.9475 0.95196 0.0
C1237 C 0.44592 0.9406 0.92316 0.0
C1238 C 0.42406 0.87453 0.88478 0.0
H1239 H 0.31673 0.84344 0.79949 0.0
H1240 H 0.34795 0.87315 0.83282 0.0
H1241 H 0.40856 0.84121 0.85377 0.0
H1242 H 0.4901 0.913 0.96133 0.0
H1243 H 0.4534 0.8845 0.93534 0.0
H1244 H 0.39126 0.91773 0.91781 0.0
C1245 C 0.34472 0.85303 0.8328 0.0
C1246 C 0.40439 0.85769 0.86792 0.0
C1247 C 0.32679 0.83597 0.81369 0.0
C1248 C 0.47801 0.9211 0.95081 0.0
C1249 C 0.45699 0.9047 0.93571 0.0
C1250 C 0.39535 0.90119 0.90375 0.0
C1251 C 0.35921 0.84425 0.85045 0.0
C1252 C 0.37992 0.86231 0.86873 0.0
C1253 C 0.44095 0.91417 0.92114 0.0
C1254 C 0.4198 0.89645 0.90309 0.0
H1255 H 0.33402 0.78086 0.82988 0.0
H1256 H 0.36512 0.81056 0.86315 0.0
H1257 H 0.35695 0.88836 0.888 0.0
H1258 H 0.47058 0.9773 0.93895 0.0
H1259 H 0.4341 0.9486 0.91208 0.0
C1260 C 0.2114 0.29879 0.81744 0.0
C1261 C 0.23684 0.30938 0.80265 0.0
C1262 C 0.19632 0.31427 0.83457 0.0
C1263 C 0.20054 0.38257 0.86791 0.0
H1264 H 0.12455 0.35688 0.87223 0.0
C1265 C 0.13158 0.44134 0.93881 0.0
C1266 C 0.10651 0.43719 0.92944 0.0
C1267 C 0.14801 0.4262 0.92431 0.0
C1268 C 0.14574 0.36477 0.87097 0.0
H1269 H 0.26668 0.34491 0.79583 0.0
H1270 H 0.24006 0.37173 0.82329 0.0
H1271 H 0.15145 0.33053 0.84519 0.0
H1272 H 0.07956 0.41445 0.89668 0.0
H1273 H 0.10835 0.38942 0.87032 0.0
H1274 H 0.19474 0.41741 0.8921 0.0
C1275 C 0.23167 0.35145 0.82259 0.0
C1276 C 0.16138 0.34921 0.85583 0.0
C1277 C 0.24693 0.33594 0.80611 0.0
C1278 C 0.09867 0.41809 0.90466 0.0
C1279 C 0.11523 0.40341 0.88973 0.0
C1280 C 0.18488 0.39834 0.88256 0.0
C1281 C 0.20593 0.34098 0.83704 0.0
C1282 C 0.18915 0.35772 0.85393 0.0
C1283 C 0.14005 0.40674 0.89959 0.0
C1284 C 0.15711 0.38981 0.88431 0.0
H1285 H 0.20291 0.27844 0.81558 0.0
H1286 H 0.17707 0.30509 0.8459 0.0
H1287 H 0.2217 0.39002 0.86778 0.0
H1288 H 0.13808 0.45564 0.95816 0.0
H1289 H 0.16666 0.4294 0.93317 0.0
C1290 C 0.73919 0.21441 0.83937 0.0
C1291 C 0.73516 0.21687 0.80907 0.0
C1292 C 0.72235 0.19458 0.85539 0.0
C1293 C 0.67397 0.13112 0.84015 0.0
H1294 H 0.65032 0.14107 0.92889 0.0
C1295 C 0.57931 0.06681 0.89987 0.0
C1296 C 0.5793 0.06084 0.92999 0.0
C1297 C 0.60157 0.08327 0.88526 0.0
C1298 C 0.65708 0.13787 0.90419 0.0
H1299 H 0.7098 0.20108 0.77226 0.0
H1300 H 0.68035 0.16701 0.80011 0.0
H1301 H 0.68233 0.17591 0.90392 0.0
H1302 H 0.60295 0.06697 0.96814 0.0
H1303 H 0.64188 0.09614 0.94269 0.0
H1304 H 0.64796 0.09341 0.84022 0.0
C1305 C 0.69677 0.17991 0.81142 0.0
C1306 C 0.67544 0.15786 0.88985 0.0
C1307 C 0.71346 0.19972 0.79558 0.0
C1308 C 0.60248 0.07093 0.94472 0.0
C1309 C 0.62465 0.08785 0.93032 0.0
C1310 C 0.65549 0.11127 0.85442 0.0
C1311 C 0.7012 0.17676 0.84133 0.0
C1312 C 0.68364 0.15493 0.85745 0.0
C1313 C 0.62425 0.09456 0.90065 0.0
C1314 C 0.64641 0.11454 0.88647 0.0
H1315 H 0.75566 0.2275 0.85042 0.0
H1316 H 0.72643 0.19277 0.87834 0.0
H1317 H 0.6804 0.12789 0.81537 0.0
H1318 H 0.56171 0.05946 0.88802 0.0
H1319 H 0.60051 0.08818 0.86253 0.0
C1320 C 0.91545 0.71896 0.85652 0.0
C1321 C 0.89691 0.73189 0.8701 0.0
C1322 C 0.91916 0.70008 0.87123 0.0
C1323 C 0.91488 0.67951 0.94753 0.0
H1324 H 0.92107 0.61677 0.8982 0.0
C1325 C 0.96835 0.61238 0.98157 0.0
C1326 C 0.95761 0.5862 0.97334 0.0
C1327 C 0.95699 0.62973 0.97345 0.0
C1328 C 0.91914 0.63404 0.91248 0.0
H1329 H 0.86759 0.73528 0.90962 0.0
H1330 H 0.87444 0.70227 0.93594 0.0
H1331 H 0.90791 0.64701 0.87455 0.0
H1332 H 0.92516 0.55778 0.95252 0.0
H1333 H 0.90557 0.58785 0.93857 0.0
H1334 H 0.92682 0.66666 0.98529 0.0
C1335 C 0.88594 0.70673 0.91372 0.0
C1336 C 0.91176 0.65145 0.89882 0.0
C1337 C 0.88187 0.7254 0.89862 0.0
C1338 C 0.93431 0.57779 0.95875 0.0
C1339 C 0.92305 0.59504 0.95064 0.0
C1340 C 0.92259 0.66215 0.96117 0.0
C1341 C 0.90471 0.69393 0.90016 0.0
C1342 C 0.90989 0.67452 0.916 0.0
C1343 C 0.93471 0.62123 0.95693 0.0
C1344 C 0.92502 0.63929 0.94367 0.0
H1345 H 0.92731 0.72368 0.83458 0.0
H1346 H 0.9339 0.69073 0.86033 0.0
H1347 H 0.91373 0.69722 0.96128 0.0
H1348 H 0.98613 0.6195 0.99309 0.0
H1349 H 0.96644 0.6498 0.97867 0.0
C1350 C 0.17754 0.30488 0.09835 0.0
C1351 C 0.16386 0.29867 0.12758 0.0
C1352 C 0.17307 0.32386 0.08423 0.0
C1353 C 0.14748 0.37957 0.10148 0.0
H1354 H 0.13006 0.36393 0.01594 0.0
C1355 C 0.12289 0.45282 0.04261 0.0
C1356 C 0.09937 0.44427 0.02844 0.0
C1357 C 0.13436 0.43567 0.05057 0.0
C1358 C 0.13493 0.36857 0.03981 0.0
H1359 H 0.13543 0.30759 0.16538 0.0
H1360 H 0.12811 0.3411 0.14129 0.0
H1361 H 0.14404 0.33357 0.03911 0.0
H1362 H 0.07063 0.41085 0.00937 0.0
H1363 H 0.09069 0.38074 0.02352 0.0
H1364 H 0.13789 0.41419 0.10265 0.0
C1365 C 0.14221 0.33139 0.12913 0.0
C1366 C 0.14317 0.35131 0.05298 0.0
C1367 C 0.14635 0.31223 0.14293 0.0
C1368 C 0.0886 0.41807 0.02051 0.0
C1369 C 0.10016 0.40082 0.0285 0.0
C1370 C 0.13954 0.39687 0.08827 0.0
C1371 C 0.15516 0.33718 0.09939 0.0
C1372 C 0.14909 0.35645 0.08416 0.0
C1373 C 0.12271 0.40946 0.04457 0.0
C1374 C 0.13282 0.39148 0.05743 0.0
H1375 H 0.19093 0.29445 0.08599 0.0
H1376 H 0.18344 0.328 0.06139 0.0
H1377 H 0.15207 0.38416 0.12547 0.0
H1378 H 0.13207 0.47286 0.04857 0.0
H1379 H 0.15206 0.44297 0.06225 0.0
C1380 C 0.22555 0.71307 0.82996 0.0
C1381 C 0.23717 0.7068 0.79964 0.0
C1382 C 0.20687 0.69441 0.84606 0.0
C1383 C 0.15853 0.63232 0.83134 0.0
H1384 H 0.15635 0.62953 0.92017 0.0
C1385 C 0.09574 0.56468 0.93247 0.0
C1386 C 0.06991 0.56268 0.92709 0.0
C1387 C 0.11754 0.58081 0.91651 0.0
C1388 C 0.15686 0.62993 0.89529 0.0
H1389 H 0.23854 0.67594 0.76263 0.0
H1390 H 0.20642 0.64345 0.79087 0.0
H1391 H 0.19236 0.66087 0.89382 0.0
H1392 H 0.04695 0.576 0.9003 0.0
H1393 H 0.08479 0.60387 0.87264 0.0
H1394 H 0.12299 0.60162 0.83277 0.0
C1395 C 0.21151 0.6628 0.80211 0.0
C1396 C 0.17731 0.64803 0.88029 0.0
C1397 C 0.23014 0.68141 0.78606 0.0
C1398 C 0.06649 0.57676 0.90485 0.0
C1399 C 0.08822 0.59278 0.88892 0.0
C1400 C 0.13803 0.61442 0.84635 0.0
C1401 C 0.19941 0.6691 0.83214 0.0
C1402 C 0.17828 0.64949 0.84816 0.0
C1403 C 0.11397 0.59518 0.89474 0.0
C1404 C 0.13681 0.61313 0.87854 0.0
H1405 H 0.23062 0.73247 0.84106 0.0
H1406 H 0.19771 0.69992 0.86904 0.0
H1407 H 0.15856 0.63309 0.80664 0.0
H1408 H 0.09914 0.55414 0.94943 0.0
H1409 H 0.13718 0.58208 0.92125 0.0
C1410 C 0.34326 0.17826 0.88346 0.0
C1411 C 0.35531 0.181 0.8526 0.0
C1412 C 0.35656 0.17311 0.9057 0.0
C1413 C 0.42244 0.1694 0.91992 0.0
H1414 H 0.38008 0.11405 0.96587 0.0
C1415 C 0.47053 0.11366 0.98209 0.0
C1416 C 0.46134 0.08739 0.97343 0.0
C1417 C 0.45658 0.12976 0.97634 0.0
C1418 C 0.3922 0.12964 0.9534 0.0
H1419 H 0.39151 0.18229 0.82163 0.0
H1420 H 0.41425 0.17247 0.85982 0.0
H1421 H 0.35867 0.13479 0.93752 0.0
H1422 H 0.42934 0.05729 0.95421 0.0
H1423 H 0.40541 0.08502 0.9441 0.0
H1424 H 0.45612 0.16288 0.93398 0.0
C1425 C 0.39466 0.17454 0.86714 0.0
C1426 C 0.37988 0.14177 0.93737 0.0
C1427 C 0.38144 0.17979 0.845 0.0
C1428 C 0.43718 0.07746 0.96083 0.0
C1429 C 0.42324 0.09341 0.95533 0.0
C1430 C 0.43478 0.15715 0.93583 0.0
C1431 C 0.38218 0.17052 0.89758 0.0
C1432 C 0.39491 0.16115 0.9194 0.0
C1433 C 0.43304 0.1198 0.96225 0.0
C1434 C 0.41985 0.13643 0.95167 0.0
H1435 H 0.32314 0.17901 0.89013 0.0
H1436 H 0.34646 0.1705 0.92903 0.0
H1437 H 0.4346 0.18464 0.90691 0.0
H1438 H 0.48898 0.12185 0.9921 0.0
H1439 H 0.4645 0.15001 0.98222 0.0
C1440 C 0.85898 0.31648 0.79921 0.0
C1441 C 0.83138 0.31031 0.80562 0.0
C1442 C 0.87507 0.33355 0.81996 0.0
C1443 C 0.87764 0.38492 0.88507 0.0
H1444 H 0.93932 0.36687 0.89797 0.0
C1445 C 0.96799 0.45692 0.93758 0.0
C1446 C 0.98253 0.44828 0.95535 0.0
C1447 C 0.94668 0.44 0.92338 0.0
C1448 C 0.92203 0.37212 0.89514 0.0
H1449 H 0.79897 0.31802 0.83827 0.0
H1450 H 0.82737 0.34802 0.87506 0.0
H1451 H 0.90737 0.33763 0.86581 0.0
H1452 H 0.98508 0.4153 0.97362 0.0
H1453 H 0.94766 0.38594 0.94946 0.0
H1454 H 0.89238 0.41945 0.91473 0.0
C1455 C 0.83643 0.33953 0.85379 0.0
C1456 C 0.90385 0.35545 0.87627 0.0
C1457 C 0.82019 0.32236 0.8328 0.0
C1458 C 0.97457 0.42254 0.9597 0.0
C1459 C 0.95314 0.40567 0.94574 0.0
C1460 C 0.89588 0.40166 0.90411 0.0
C1461 C 0.86406 0.3449 0.84782 0.0
C1462 C 0.88176 0.36185 0.87043 0.0
C1463 C 0.93928 0.41407 0.92682 0.0
C1464 C 0.91853 0.39561 0.90896 0.0
H1465 H 0.86829 0.30794 0.77816 0.0
H1466 H 0.89625 0.3378 0.81417 0.0
H1467 H 0.86083 0.39041 0.881 0.0
H1468 H 0.97354 0.47665 0.93381 0.0
H1469 H 0.93668 0.44712 0.90874 0.0
C1470 C 0.71317 0.80181 0.81018 0.0
C1471 C 0.74075 0.8102 0.80308 0.0
C1472 C 0.69895 0.8183 0.82658 0.0
C1473 C 0.70413 0.8876 0.85192 0.0
H1474 H 0.63969 0.85954 0.90457 0.0
C1475 C 0.6392 0.94876 0.93107 0.0
C1476 C 0.61183 0.93891 0.92941 0.0
C1477 C 0.6567 0.93449 0.91682 0.0
C1478 C 0.65759 0.86777 0.88989 0.0
H1479 H 0.77465 0.8432 0.80674 0.0
H1480 H 0.7503 0.87155 0.83669 0.0
H1481 H 0.66629 0.83222 0.8783 0.0
H1482 H 0.58185 0.90606 0.91104 0.0
H1483 H 0.61181 0.88171 0.88703 0.0
H1484 H 0.69527 0.92335 0.86426 0.0
C1485 C 0.73941 0.85224 0.82932 0.0
C1486 C 0.6729 0.85196 0.8745 0.0
C1487 C 0.75358 0.83577 0.81254 0.0
C1488 C 0.60267 0.91454 0.91304 0.0
C1489 C 0.61994 0.90032 0.89931 0.0
C1490 C 0.68889 0.90352 0.86769 0.0
C1491 C 0.71176 0.84383 0.83676 0.0
C1492 C 0.69624 0.86139 0.85469 0.0
C1493 C 0.64721 0.90988 0.90105 0.0
C1494 C 0.66509 0.89375 0.88647 0.0
H1495 H 0.70244 0.78236 0.80311 0.0
H1496 H 0.67772 0.81093 0.83087 0.0
H1497 H 0.72171 0.89582 0.83682 0.0
H1498 H 0.64706 0.96733 0.94354 0.0
H1499 H 0.67759 0.9425 0.91875 0.0
C1500 C 0.80771 0.6926 0.19782 0.0
C1501 C 0.81844 0.71906 0.20318 0.0
C1502 C 0.82288 0.67712 0.18094 0.0
C1503 C 0.88505 0.67933 0.12595 0.0
H1504 H 0.87569 0.61304 0.1501 0.0
C1505 C 0.96006 0.62208 0.07913 0.0
C1506 C 0.9508 0.59566 0.07114 0.0
C1507 C 0.94298 0.63621 0.09409 0.0
C1508 C 0.87839 0.63136 0.14274 0.0
H1509 H 0.85373 0.74987 0.19438 0.0
H1510 H 0.88018 0.72312 0.16532 0.0
H1511 H 0.84838 0.6394 0.17825 0.0
H1512 H 0.91582 0.56355 0.07288 0.0
H1513 H 0.8859 0.58825 0.09939 0.0
H1514 H 0.91536 0.67146 0.09082 0.0
C1515 C 0.85989 0.71415 0.17383 0.0
C1516 C 0.86263 0.64658 0.15893 0.0
C1517 C 0.8447 0.72961 0.19071 0.0
C1518 C 0.92374 0.5838 0.07869 0.0
C1519 C 0.90659 0.598 0.09404 0.0
C1520 C 0.90088 0.66421 0.10993 0.0
C1521 C 0.84932 0.68758 0.16873 0.0
C1522 C 0.86578 0.67094 0.15096 0.0
C1523 C 0.91596 0.62449 0.10187 0.0
C1524 C 0.89799 0.64003 0.11817 0.0
H1525 H 0.78742 0.68377 0.20647 0.0
H1526 H 0.81366 0.65691 0.17715 0.0
H1527 H 0.88784 0.69761 0.11841 0.0
H1528 H 0.98068 0.63205 0.07372 0.0
H1529 H 0.95115 0.65642 0.10002 0.0
C1530 C 0.33794 0.84357 0.22407 0.0
C1531 C 0.31984 0.82337 0.20853 0.0
C1532 C 0.35387 0.86372 0.20822 0.0
C1533 C 0.36329 0.89252 0.13357 0.0
H1534 H 0.43506 0.92091 0.15423 0.0
C1535 C 0.45295 0.94241 0.05068 0.0
C1536 C 0.47148 0.96385 0.06354 0.0
C1537 C 0.43104 0.92945 0.06964 0.0
C1538 C 0.41495 0.9135 0.14853 0.0
H1539 H 0.30422 0.8081 0.1643 0.0
H1540 H 0.3328 0.8426 0.13606 0.0
H1541 H 0.40403 0.88944 0.18472 0.0
H1542 H 0.48159 0.98915 0.10574 0.0
H1543 H 0.4434 0.96612 0.13932 0.0
H1544 H 0.3751 0.91569 0.096 0.0
C1545 C 0.33421 0.84352 0.16077 0.0
C1546 C 0.39704 0.89543 0.16608 0.0
C1547 C 0.31795 0.82358 0.17683 0.0
C1548 C 0.46727 0.97286 0.09534 0.0
C1549 C 0.4456 0.95959 0.11449 0.0
C1550 C 0.3814 0.91031 0.11566 0.0
C1551 C 0.35254 0.86385 0.17619 0.0
C1552 C 0.37101 0.88442 0.15867 0.0
C1553 C 0.42767 0.93737 0.10196 0.0
C1554 C 0.40748 0.92079 0.1228 0.0
H1555 H 0.33949 0.84397 0.24868 0.0
H1556 H 0.36721 0.87921 0.22119 0.0
H1557 H 0.34331 0.88495 0.12751 0.0
H1558 H 0.45608 0.93501 0.02623 0.0
H1559 H 0.41771 0.91229 0.0594 0.0
C1560 C 0.72763 0.22736 0.1645 0.0
C1561 C 0.73545 0.21949 0.18961 0.0
C1562 C 0.70967 0.21009 0.14554 0.0
C1563 C 0.65371 0.15476 0.14957 0.0
H1564 H 0.66625 0.1413 0.05904 0.0
C1565 C 0.57225 0.1057 0.06823 0.0
C1566 C 0.57468 0.08268 0.0513 0.0
C1567 C 0.59289 0.12196 0.08409 0.0
C1568 C 0.66261 0.14491 0.08431 0.0
H1569 H 0.73113 0.18725 0.21393 0.0
H1570 H 0.69926 0.15747 0.18152 0.0
H1571 H 0.70107 0.1712 0.08835 0.0
H1572 H 0.60084 0.05894 0.03693 0.0
H1573 H 0.63755 0.08811 0.06387 0.0
H1574 H 0.61502 0.12918 0.14552 0.0
C1575 C 0.70718 0.17688 0.17638 0.0
C1576 C 0.68238 0.16204 0.10098 0.0
C1577 C 0.7255 0.19394 0.19483 0.0
C1578 C 0.59842 0.07651 0.04996 0.0
C1579 C 0.61939 0.09317 0.06518 0.0
C1580 C 0.63379 0.13815 0.13287 0.0
C1581 C 0.6989 0.18483 0.15177 0.0
C1582 C 0.6781 0.167 0.13377 0.0
C1583 C 0.61663 0.11588 0.08266 0.0
C1584 C 0.63809 0.13302 0.10014 0.0
H1585 H 0.73503 0.24692 0.15991 0.0
H1586 H 0.70348 0.21665 0.12671 0.0
H1587 H 0.64993 0.15838 0.17483 0.0
H1588 H 0.55412 0.11087 0.06983 0.0
H1589 H 0.59036 0.13939 0.09744 0.0
C1590 C 0.74179 0.68509 0.80421 0.0
C1591 C 0.73294 0.70492 0.79815 0.0
C1592 C 0.72475 0.66566 0.82046 0.0
C1593 C 0.6654 0.65182 0.87677 0.0
H1594 H 0.65717 0.58133 0.84382 0.0
C1595 C 0.58133 0.55465 0.89482 0.0
C1596 C 0.5801 0.55321 0.92701 0.0
C1597 C 0.60278 0.57146 0.87954 0.0
C1598 C 0.65951 0.60095 0.85332 0.0
H1599 H 0.69955 0.72025 0.80475 0.0
H1600 H 0.66982 0.6863 0.83307 0.0
H1601 H 0.68931 0.6148 0.81619 0.0
H1602 H 0.60097 0.56766 0.96809 0.0
H1603 H 0.63821 0.59747 0.94131 0.0
H1604 H 0.63552 0.63797 0.91379 0.0
C1605 C 0.68988 0.68577 0.82521 0.0
C1606 C 0.67787 0.62004 0.83765 0.0
C1607 C 0.70681 0.70503 0.80873 0.0
C1608 C 0.60127 0.56831 0.94331 0.0
C1609 C 0.62253 0.5854 0.92808 0.0
C1610 C 0.64742 0.63276 0.89271 0.0
C1611 C 0.6987 0.66593 0.8313 0.0
C1612 C 0.68063 0.64565 0.84895 0.0
C1613 C 0.62323 0.58734 0.89622 0.0
C1614 C 0.64407 0.60721 0.88086 0.0
H1615 H 0.76188 0.68463 0.79641 0.0
H1616 H 0.73206 0.65065 0.82504 0.0
H1617 H 0.6673 0.67142 0.88609 0.0
H1618 H 0.56538 0.5433 0.88156 0.0
H1619 H 0.60285 0.57283 0.85499 0.0
C1620 C 0.35071 0.66877 0.87147 0.0
C1621 C 0.35689 0.6737 0.84007 0.0
C1622 C 0.36858 0.66221 0.88632 0.0
C1623 C 0.41755 0.62855 0.86424 0.0
H1624 H 0.4321 0.64606 0.95086 0.0
C1625 C 0.48066 0.59729 0.94661 0.0
C1626 C 0.46974 0.57091 0.94066 0.0
C1627 C 0.46893 0.61375 0.93724 0.0
C1628 C 0.42831 0.64122 0.92658 0.0
H1629 H 0.38725 0.67698 0.80025 0.0
H1630 H 0.41839 0.66587 0.82627 0.0
H1631 H 0.40878 0.66999 0.92897 0.0
H1632 H 0.43723 0.54114 0.92194 0.0
H1633 H 0.41708 0.56975 0.90543 0.0
H1634 H 0.4359 0.59922 0.86202 0.0
C1635 C 0.39969 0.66693 0.83931 0.0
C1636 C 0.41497 0.65478 0.91414 0.0
C1637 C 0.38189 0.67345 0.82449 0.0
C1638 C 0.44643 0.56133 0.92631 0.0
C1639 C 0.43484 0.57769 0.91692 0.0
C1640 C 0.43036 0.61482 0.87677 0.0
C1641 C 0.39286 0.66041 0.86996 0.0
C1642 C 0.40924 0.64832 0.88291 0.0
C1643 C 0.4463 0.60397 0.92162 0.0
C1644 C 0.43531 0.62063 0.90818 0.0
H1645 H 0.33177 0.66924 0.88425 0.0
H1646 H 0.36279 0.65715 0.90994 0.0
H1647 H 0.41315 0.62294 0.84023 0.0
H1648 H 0.49849 0.60518 0.95795 0.0
H1649 H 0.47802 0.63399 0.94119 0.0
C1650 C 0.34286 0.33801 0.80259 0.0
C1651 C 0.33847 0.31162 0.79834 0.0
C1652 C 0.36199 0.35375 0.82117 0.0
C1653 C 0.42154 0.35535 0.85631 0.0
H1654 H 0.40664 0.41322 0.90973 0.0
C1655 C 0.49057 0.41739 0.94751 0.0
C1656 C 0.4954 0.44374 0.94912 0.0
C1657 C 0.47119 0.40071 0.92984 0.0
C1658 C 0.41122 0.39726 0.89477 0.0
H1659 H 0.35079 0.28112 0.81059 0.0
H1660 H 0.38377 0.30846 0.84326 0.0
H1661 H 0.37367 0.38549 0.87725 0.0
H1662 H 0.4833 0.47313 0.93357 0.0
H1663 H 0.44979 0.44421 0.90296 0.0
H1664 H 0.4591 0.36717 0.874 0.0
C1665 C 0.37278 0.31709 0.83179 0.0
C1666 C 0.39232 0.38137 0.87604 0.0
C1667 C 0.35369 0.30137 0.81316 0.0
C1668 C 0.4802 0.45297 0.9329 0.0
C1669 C 0.46079 0.43635 0.91547 0.0
C1670 C 0.44043 0.37122 0.87514 0.0
C1671 C 0.37715 0.34351 0.83614 0.0
C1672 C 0.39725 0.36027 0.8564 0.0
C1673 C 0.45606 0.41001 0.9136 0.0
C1674 C 0.43558 0.39248 0.89446 0.0
H1675 H 0.33131 0.34657 0.79188 0.0
H1676 H 0.36498 0.374 0.82364 0.0
H1677 H 0.42621 0.3395 0.84121 0.0
H1678 H 0.50189 0.40962 0.95969 0.0
H1679 H 0.46789 0.38052 0.92913 0.0
C1680 C 0.72199 0.32728 0.88648 0.0
C1681 C 0.69889 0.30717 0.88188 0.0
C1682 C 0.72415 0.34312 0.9148 0.0
C1683 C 0.67977 0.35952 0.98677 0.0
H1684 H 0.70021 0.42238 0.94996 0.0
C1685 C 0.64167 0.45306 0.98756 0.0
C1686 C 0.61609 0.43925 0.98055 0.0
C1687 C 0.66011 0.44044 0.98981 0.0
C1688 C 0.69489 0.40531 0.96125 0.0
H1689 H 0.66311 0.28473 0.90648 0.0
H1690 H 0.66517 0.31376 0.95378 0.0
H1691 H 0.72212 0.39056 0.92918 0.0
H1692 H 0.58973 0.40144 0.97088 0.0
H1693 H 0.62174 0.37967 0.97469 0.0
H1694 H 0.64972 0.37343 0.01567 0.0
C1695 C 0.68188 0.31757 0.93592 0.0
C1696 C 0.70758 0.38679 0.94938 0.0
C1697 C 0.68027 0.30104 0.90811 0.0
C1698 C 0.6093 0.41269 0.97603 0.0
C1699 C 0.62748 0.40017 0.97884 0.0
C1700 C 0.66654 0.37779 0.99799 0.0
C1701 C 0.70271 0.34018 0.93846 0.0
C1702 C 0.69849 0.36269 0.96003 0.0
C1703 C 0.65304 0.41386 0.98569 0.0
C1704 C 0.67279 0.39998 0.98366 0.0
H1705 H 0.73747 0.33266 0.86761 0.0
H1706 H 0.74141 0.35934 0.91659 0.0
H1707 H 0.67317 0.34185 0.99686 0.0
H1708 H 0.64738 0.47355 0.99148 0.0
H1709 H 0.67988 0.45136 0.99461 0.0
C1710 C 0.69436 0.3538 0.1603 0.0
C1711 C 0.68137 0.35673 0.19072 0.0
C1712 C 0.683 0.35614 0.1345 0.0
C1713 C 0.6211 0.36155 0.111 0.0
H1714 H 0.66824 0.41508 0.06535 0.0
C1715 C 0.5798 0.4221 0.04945 0.0
C1716 C 0.5913 0.44821 0.05689 0.0
C1717 C 0.59211 0.40466 0.05495 0.0
C1718 C 0.65483 0.40001 0.07775 0.0
H1719 H 0.64574 0.36233 0.21807 0.0
H1720 H 0.62597 0.36649 0.17346 0.0
H1721 H 0.68631 0.39293 0.09602 0.0
H1722 H 0.62515 0.47657 0.0748 0.0
H1723 H 0.64606 0.44639 0.08532 0.0
H1724 H 0.58946 0.37006 0.09504 0.0
C1725 C 0.64477 0.3623 0.16917 0.0
C1726 C 0.66522 0.38703 0.09494 0.0
C1727 C 0.65619 0.36023 0.19482 0.0
C1728 C 0.61562 0.45656 0.06913 0.0
C1729 C 0.62786 0.43921 0.07464 0.0
C1730 C 0.6107 0.37458 0.09392 0.0
C1731 C 0.65837 0.36108 0.13883 0.0
C1732 C 0.64832 0.36872 0.11324 0.0
C1733 C 0.61609 0.41303 0.06809 0.0
C1734 C 0.62737 0.39493 0.0786 0.0
H1735 H 0.71384 0.35108 0.15666 0.0
H1736 H 0.69388 0.35505 0.11138 0.0
H1737 H 0.60765 0.34715 0.12439 0.0
H1738 H 0.56121 0.41512 0.03961 0.0
H1739 H 0.58268 0.38464 0.04928 0.0
C1740 C 0.70019 0.72667 0.19349 0.0
C1741 C 0.71596 0.71686 0.20806 0.0
C1742 C 0.68138 0.71061 0.17468 0.0
C1743 C 0.66452 0.6468 0.12895 0.0
H1744 H 0.59605 0.65758 0.13124 0.0
C1745 C 0.57953 0.57209 0.07064 0.0
C1746 C 0.56321 0.58032 0.05488 0.0
C1747 C 0.59826 0.58944 0.08838 0.0
C1748 C 0.6152 0.65449 0.13 0.0
H1749 H 0.7243 0.68233 0.21396 0.0
H1750 H 0.6912 0.65436 0.18189 0.0
H1751 H 0.62806 0.68624 0.16452 0.0
H1752 H 0.55405 0.61349 0.04549 0.0
H1753 H 0.58691 0.64387 0.0765 0.0
H1754 H 0.65168 0.615 0.09462 0.0
C1755 C 0.69352 0.67452 0.18471 0.0
C1756 C 0.63358 0.67092 0.14913 0.0
C1757 C 0.7123 0.69056 0.2035 0.0
C1758 C 0.56624 0.60646 0.0573 0.0
C1759 C 0.58498 0.62387 0.07524 0.0
C1760 C 0.64617 0.63038 0.10989 0.0
C1761 C 0.67791 0.68431 0.16984 0.0
C1762 C 0.65842 0.66718 0.14904 0.0
C1763 C 0.60126 0.61557 0.09099 0.0
C1764 C 0.62118 0.63386 0.11032 0.0
H1765 H 0.70255 0.74684 0.19631 0.0
H1766 H 0.66997 0.71889 0.16335 0.0
H1767 H 0.68363 0.64361 0.12769 0.0
H1768 H 0.57783 0.55213 0.0694 0.0
H1769 H 0.61014 0.58228 0.1005 0.0
C1770 C 0.36781 0.70934 0.06486 0.0
C1771 C 0.35232 0.70862 0.0941 0.0
C1772 C 0.36375 0.688 0.04254 0.0
C1773 C 0.3429 0.62108 0.05141 0.0
H1774 H 0.38632 0.62107 0.97146 0.0
C1775 C 0.41244 0.55814 0.0167 0.0
C1776 C 0.43804 0.57484 0.01751 0.0
C1777 C 0.39125 0.56717 0.01436 0.0
C1778 C 0.37364 0.62051 0.99342 0.0
H1779 H 0.31696 0.68642 0.12002 0.0
H1780 H 0.30891 0.65031 0.08033 0.0
H1781 H 0.36254 0.65292 0.98715 0.0
H1782 H 0.46172 0.61379 0.01528 0.0
H1783 H 0.42489 0.6294 0.01064 0.0
H1784 H 0.35549 0.58975 0.05841 0.0
C1785 C 0.32527 0.66674 0.07538 0.0
C1786 C 0.36009 0.63877 0.00256 0.0
C1787 C 0.3298 0.68778 0.09815 0.0
C1788 C 0.44219 0.60053 0.01512 0.0
C1789 C 0.42121 0.60937 0.01186 0.0
C1790 C 0.35612 0.60267 0.04203 0.0
C1791 C 0.34371 0.66567 0.04876 0.0
C1792 C 0.34674 0.64078 0.033 0.0
C1793 C 0.39555 0.59285 0.01178 0.0
C1794 C 0.37339 0.60374 0.01428 0.0
H1795 H 0.38452 0.72556 0.06019 0.0
H1796 H 0.37823 0.68835 0.02212 0.0
H1797 H 0.33264 0.62156 0.07489 0.0
H1798 H 0.40875 0.53818 0.01831 0.0
H1799 H 0.37151 0.55424 0.01495 0.0
C1800 C 0.31166 0.34201 0.1939 0.0
C1801 C 0.32184 0.32391 0.20246 0.0
C1802 C 0.32837 0.36228 0.1787 0.0
C1803 C 0.39035 0.40594 0.17429 0.0
H1804 H 0.39777 0.40234 0.08374 0.0
C1805 C 0.48335 0.46364 0.106 0.0
C1806 C 0.48185 0.4716 0.07752 0.0
C1807 C 0.46105 0.44852 0.12201 0.0
C1808 C 0.3956 0.40405 0.10908 0.0
H1809 H 0.35729 0.31224 0.20036 0.0
H1810 H 0.38645 0.34821 0.17511 0.0
H1811 H 0.363 0.37023 0.11028 0.0
H1812 H 0.45545 0.47071 0.04413 0.0
H1813 H 0.41616 0.44484 0.07268 0.0
H1814 H 0.42278 0.43954 0.17354 0.0
C1815 C 0.3656 0.34666 0.18033 0.0
C1816 C 0.37577 0.38558 0.12416 0.0
C1817 C 0.34893 0.32626 0.19502 0.0
C1818 C 0.45727 0.46475 0.06593 0.0
C1819 C 0.4348 0.4498 0.08222 0.0
C1820 C 0.40992 0.42459 0.15933 0.0
C1821 C 0.35544 0.36477 0.17213 0.0
C1822 C 0.37347 0.38615 0.15674 0.0
C1823 C 0.43649 0.44119 0.11026 0.0
C1824 C 0.41332 0.42348 0.12643 0.0
H1825 H 0.29084 0.34057 0.19905 0.0
H1826 H 0.32025 0.37611 0.17234 0.0
H1827 H 0.3888 0.40659 0.19951 0.0
H1828 H 0.50199 0.46837 0.11551 0.0
H1829 H 0.46336 0.44185 0.1431 0.0
C1830 C 0.84641 0.71434 0.71989 0.0
C1831 C 0.82262 0.71365 0.70942 0.0
C1832 C 0.86199 0.6989 0.70387 0.0
C1833 C 0.87263 0.65909 0.62698 0.0
H1834 H 0.91098 0.63217 0.67453 0.0
C1835 C 0.92956 0.58471 0.57005 0.0
C1836 C 0.95337 0.58667 0.58153 0.0
C1837 C 0.91334 0.60009 0.5846 0.0
C1838 C 0.90072 0.63971 0.66067 0.0
H1839 H 0.7961 0.69466 0.67486 0.0
H1840 H 0.82298 0.66812 0.6467 0.0
H1841 H 0.88383 0.65873 0.70168 0.0
H1842 H 0.97886 0.60722 0.61702 0.0
H1843 H 0.95111 0.63379 0.64179 0.0
H1844 H 0.88955 0.63987 0.58593 0.0
C1845 C 0.83021 0.68119 0.66674 0.0
C1846 C 0.88504 0.6551 0.67638 0.0
C1847 C 0.81471 0.69667 0.68279 0.0
C1848 C 0.96063 0.60482 0.60752 0.0
C1849 C 0.94449 0.62006 0.62201 0.0
C1850 C 0.88834 0.64363 0.61123 0.0
C1851 C 0.8542 0.68202 0.67692 0.0
C1852 C 0.8708 0.66523 0.65987 0.0
C1853 C 0.92039 0.61783 0.61113 0.0
C1854 C 0.90284 0.6338 0.62778 0.0
H1855 H 0.85325 0.72716 0.74031 0.0
H1856 H 0.88039 0.70052 0.71245 0.0
H1857 H 0.86234 0.66664 0.61318 0.0
H1858 H 0.92328 0.5711 0.55004 0.0
H1859 H 0.89496 0.59762 0.57544 0.0
C1860 C 0.34115 0.80695 0.66341 0.0
C1861 C 0.32901 0.81293 0.69351 0.0
C1862 C 0.36108 0.8255 0.64861 0.0
C1863 C 0.40881 0.88851 0.66595 0.0
H1864 H 0.41092 0.89275 0.57754 0.0
C1865 C 0.46379 0.97843 0.60758 0.0
C1866 C 0.47718 0.97574 0.57731 0.0
C1867 C 0.44879 0.95714 0.62188 0.0
C1868 C 0.41085 0.89157 0.60214 0.0
H1869 H 0.32773 0.84315 0.73142 0.0
H1870 H 0.36172 0.8756 0.70528 0.0
H1871 H 0.37794 0.85824 0.60174 0.0
H1872 H 0.48603 0.94845 0.53878 0.0
H1873 H 0.45968 0.91127 0.56384 0.0
H1874 H 0.44122 0.92233 0.66648 0.0
C1875 C 0.35643 0.85648 0.69336 0.0
C1876 C 0.39195 0.8718 0.61602 0.0
C1877 C 0.33666 0.83794 0.70818 0.0
C1878 C 0.47599 0.95122 0.56213 0.0
C1879 C 0.46076 0.92991 0.57636 0.0
C1880 C 0.42758 0.90836 0.65211 0.0
C1881 C 0.36911 0.85044 0.66357 0.0
C1882 C 0.39041 0.87029 0.64821 0.0
C1883 C 0.44668 0.93267 0.60617 0.0
C1884 C 0.42854 0.91031 0.62018 0.0
H1885 H 0.33553 0.78784 0.65149 0.0
H1886 H 0.37055 0.82017 0.62576 0.0
H1887 H 0.40858 0.88758 0.69064 0.0
H1888 H 0.46433 0.99701 0.61996 0.0
H1889 H 0.43798 0.95986 0.64477 0.0
C1890 C 0.17615 0.34472 0.66388 0.0
C1891 C 0.20323 0.34694 0.6568 0.0
C1892 C 0.16267 0.35144 0.64318 0.0
C1893 C 0.17541 0.39654 0.58823 0.0
H1894 H 0.10645 0.35982 0.56275 0.0
C1895 C 0.12776 0.44139 0.51386 0.0
C1896 C 0.10062 0.43851 0.52076 0.0
C1897 C 0.1394 0.42622 0.52573 0.0
C1898 C 0.12559 0.37043 0.56991 0.0
H1899 H 0.23719 0.35688 0.62206 0.0
H1900 H 0.21368 0.36898 0.58607 0.0
H1901 H 0.1282 0.33996 0.59255 0.0
H1902 H 0.06407 0.41697 0.54448 0.0
H1903 H 0.08461 0.39122 0.56693 0.0
H1904 H 0.1726 0.4275 0.56761 0.0
C1905 C 0.20291 0.36191 0.60754 0.0
C1906 C 0.13807 0.35897 0.58679 0.0
C1907 C 0.2163 0.35487 0.62802 0.0
C1908 C 0.08506 0.41944 0.53876 0.0
C1909 C 0.09687 0.40465 0.55148 0.0
C1910 C 0.16284 0.40812 0.57193 0.0
C1911 C 0.17613 0.36081 0.61527 0.0
C1912 C 0.16313 0.37195 0.59601 0.0
C1913 C 0.12437 0.40836 0.5458 0.0
C1914 C 0.13777 0.39526 0.5624 0.0
H1915 H 0.16559 0.33847 0.68583 0.0
H1916 H 0.14207 0.35055 0.64976 0.0
H1917 H 0.19447 0.40719 0.59567 0.0
H1918 H 0.14016 0.45579 0.49974 0.0
H1919 H 0.16042 0.42906 0.51981 0.0
C1920 C 0.75629 0.18792 0.6617 0.0
C1921 C 0.74487 0.20095 0.6878 0.0
C1922 C 0.74029 0.16889 0.64214 0.0
C1923 C 0.67195 0.12592 0.64148 0.0
H1924 H 0.68691 0.12237 0.55105 0.0
C1925 C 0.59332 0.06962 0.56094 0.0
C1926 C 0.601 0.05395 0.53482 0.0
C1927 C 0.61218 0.08711 0.57839 0.0
C1928 C 0.68262 0.12298 0.57628 0.0
H1929 H 0.70767 0.20395 0.71393 0.0
H1930 H 0.68015 0.1715 0.67993 0.0
H1931 H 0.718 0.15299 0.5841 0.0
H1932 H 0.63474 0.04508 0.50597 0.0
H1933 H 0.66765 0.07576 0.53643 0.0
H1934 H 0.63644 0.09632 0.6338 0.0
C1935 C 0.70136 0.17556 0.67461 0.0
C1936 C 0.70047 0.14045 0.59521 0.0
C1937 C 0.71722 0.19443 0.694 0.0
C1938 C 0.6281 0.05679 0.526 0.0
C1939 C 0.64699 0.07444 0.54337 0.0
C1940 C 0.65413 0.10862 0.62263 0.0
C1941 C 0.71259 0.16246 0.64847 0.0
C1942 C 0.6951 0.14243 0.62807 0.0
C1943 C 0.63921 0.0895 0.57008 0.0
C1944 C 0.65901 0.1072 0.58982 0.0
H1945 H 0.77753 0.19248 0.65634 0.0
H1946 H 0.74958 0.15905 0.6223 0.0
H1947 H 0.66747 0.12647 0.66668 0.0
H1948 H 0.57267 0.06808 0.56835 0.0
H1949 H 0.60557 0.09874 0.59853 0.0
C1950 C 0.81846 0.34256 0.32681 0.0
C1951 C 0.81537 0.31644 0.32424 0.0
C1952 C 0.83373 0.35936 0.34868 0.0
C1953 C 0.88803 0.36525 0.39433 0.0
H1954 H 0.8698 0.4259 0.4345 0.0
C1955 C 0.96459 0.4542 0.44422 0.0
C1956 C 0.9566 0.46949 0.47054 0.0
C1957 C 0.94627 0.43317 0.43063 0.0
C1958 C 0.87506 0.4089 0.42392 0.0
H1959 H 0.82528 0.28739 0.34333 0.0
H1960 H 0.8517 0.31675 0.3819 0.0
H1961 H 0.83867 0.39351 0.40395 0.0
H1962 H 0.92339 0.47381 0.50436 0.0
H1963 H 0.89151 0.43687 0.48094 0.0
H1964 H 0.92437 0.3806 0.41451 0.0
C1965 C 0.84264 0.32426 0.36659 0.0
C1966 C 0.85732 0.39046 0.40603 0.0
C1967 C 0.8274 0.30743 0.34459 0.0
C1968 C 0.93011 0.46265 0.48378 0.0
C1969 C 0.91181 0.44151 0.4703 0.0
C1970 C 0.90574 0.38365 0.41236 0.0
C1971 C 0.84621 0.35046 0.36866 0.0
C1972 C 0.86383 0.36868 0.39044 0.0
C1973 C 0.91956 0.42681 0.44319 0.0
C1974 C 0.8997 0.40595 0.42684 0.0
H1975 H 0.80963 0.3502 0.31137 0.0
H1976 H 0.83641 0.37943 0.34922 0.0
H1977 H 0.89376 0.34878 0.3825 0.0
H1978 H 0.98487 0.45889 0.4335 0.0
H1979 H 0.95291 0.42247 0.40956 0.0
C1980 C 0.73775 0.83725 0.29778 0.0
C1981 C 0.73137 0.81153 0.30222 0.0
C1982 C 0.72216 0.8527 0.31351 0.0
C1983 C 0.67413 0.85993 0.3831 0.0
H1984 H 0.65333 0.90168 0.33472 0.0
C1985 C 0.62051 0.93763 0.43799 0.0
C1986 C 0.59852 0.9371 0.42361 0.0
C1987 C 0.63698 0.92224 0.42466 0.0
C1988 C 0.65896 0.89017 0.34864 0.0
H1989 H 0.70271 0.78209 0.32657 0.0
H1990 H 0.67632 0.80927 0.35501 0.0
H1991 H 0.68139 0.87521 0.30897 0.0
H1992 H 0.57694 0.91976 0.38366 0.0
H1993 H 0.60584 0.89373 0.36029 0.0
H1994 H 0.65183 0.8752 0.42287 0.0
C1995 C 0.69354 0.81746 0.33932 0.0
C1996 C 0.67521 0.87508 0.33388 0.0
C1997 C 0.70884 0.80185 0.32306 0.0
C1998 C 0.59358 0.92078 0.39556 0.0
C1999 C 0.61029 0.90587 0.38198 0.0
C2000 C 0.65827 0.87546 0.39803 0.0
C2001 C 0.69985 0.84308 0.33459 0.0
C2002 C 0.6829 0.85956 0.35079 0.0
C2003 C 0.63227 0.90636 0.39622 0.0
C2004 C 0.65023 0.89062 0.38093 0.0
H2005 H 0.75482 0.84555 0.28194 0.0
H2006 H 0.72773 0.87234 0.30935 0.0
H2007 H 0.67977 0.84836 0.39692 0.0
H2008 H 0.62501 0.94994 0.45952 0.0
H2009 H 0.65378 0.92318 0.43626 0.0
C2010 C 0.2304 0.70584 0.32518 0.0
C2011 C 0.22537 0.72792 0.31961 0.0
C2012 C 0.21163 0.6883 0.3426 0.0
C2013 C 0.13993 0.66599 0.36789 0.0
H2014 H 0.16317 0.62635 0.41684 0.0
C2015 C 0.0726 0.58201 0.43807 0.0
C2016 C 0.08017 0.5596 0.4287 0.0
C2017 C 0.08815 0.60494 0.42723 0.0
C2018 C 0.15637 0.63735 0.40338 0.0
H2019 H 0.1966 0.74904 0.32876 0.0
H2020 H 0.16379 0.71861 0.35993 0.0
H2021 H 0.19485 0.66304 0.39569 0.0
H2022 H 0.10997 0.54393 0.4002 0.0
H2023 H 0.13701 0.58371 0.38219 0.0
H2024 H 0.10127 0.6399 0.37591 0.0
C2025 C 0.18229 0.71474 0.35038 0.0
C2026 C 0.17454 0.65831 0.39106 0.0
C2027 C 0.20123 0.73238 0.33282 0.0
C2028 C 0.10332 0.56065 0.40785 0.0
C2029 C 0.11898 0.5835 0.39762 0.0
C2030 C 0.1216 0.64511 0.38067 0.0
C2031 C 0.18717 0.6923 0.35525 0.0
C2032 C 0.16682 0.67244 0.37222 0.0
C2033 C 0.1118 0.60593 0.40746 0.0
C2034 C 0.12986 0.63017 0.39773 0.0
H2035 H 0.24874 0.70178 0.31562 0.0
H2036 H 0.2161 0.67114 0.34525 0.0
H2037 H 0.13324 0.6763 0.35341 0.0
H2038 H 0.05493 0.58191 0.45413 0.0
H2039 H 0.08219 0.62202 0.43512 0.0
C2040 C 0.37153 0.2265 0.41499 0.0
C2041 C 0.37251 0.22808 0.38286 0.0
C2042 C 0.38258 0.2099 0.42507 0.0
C2043 C 0.42988 0.17156 0.39713 0.0
H2044 H 0.40121 0.14288 0.47502 0.0
C2045 C 0.44825 0.08611 0.44377 0.0
C2046 C 0.46407 0.09409 0.46845 0.0
C2047 C 0.43848 0.10318 0.43269 0.0
C2048 C 0.40946 0.15097 0.45336 0.0
H2049 H 0.38518 0.21236 0.33615 0.0
H2050 H 0.40287 0.1823 0.35366 0.0
H2051 H 0.37936 0.16928 0.45624 0.0
H2052 H 0.48202 0.12603 0.50107 0.0
H2053 H 0.46406 0.15596 0.48212 0.0
H2054 H 0.45923 0.15193 0.39389 0.0
C2055 C 0.39447 0.19468 0.37119 0.0
C2056 C 0.39708 0.1662 0.44258 0.0
C2057 C 0.38383 0.21167 0.36108 0.0
C2058 C 0.47013 0.11954 0.48177 0.0
C2059 C 0.45982 0.13655 0.47109 0.0
C2060 C 0.44196 0.15594 0.4077 0.0
C2061 C 0.39444 0.19387 0.40337 0.0
C2062 C 0.40717 0.17688 0.41436 0.0
C2063 C 0.4439 0.1284 0.44652 0.0
C2064 C 0.43192 0.14573 0.43597 0.0
H2065 H 0.36247 0.23834 0.43257 0.0
H2066 H 0.38232 0.21018 0.45003 0.0
H2067 H 0.4386 0.17969 0.37564 0.0
H2068 H 0.44334 0.06659 0.43308 0.0
H2069 H 0.42617 0.09658 0.41378 0.0
C2070 C 0.66529 0.81065 0.63516 0.0
C2071 C 0.69186 0.81368 0.62321 0.0
C2072 C 0.65154 0.82605 0.62721 0.0
C2073 C 0.66037 0.88724 0.60102 0.0
H2074 H 0.59767 0.8551 0.55912 0.0
C2075 C 0.62219 0.94331 0.53001 0.0
C2076 C 0.59493 0.93853 0.52984 0.0
C2077 C 0.63204 0.92756 0.54344 0.0
C2078 C 0.61485 0.86445 0.57128 0.0
H2079 H 0.72515 0.83536 0.59453 0.0
H2080 H 0.70143 0.86286 0.5815 0.0
H2081 H 0.61834 0.82919 0.58104 0.0
H2082 H 0.55654 0.91317 0.54313 0.0
H2083 H 0.57373 0.88583 0.56759 0.0
H2084 H 0.65699 0.92245 0.59186 0.0
C2085 C 0.69116 0.84849 0.5967 0.0
C2086 C 0.62669 0.84957 0.58377 0.0
C2087 C 0.7047 0.83279 0.60408 0.0
C2088 C 0.57767 0.91725 0.54285 0.0
C2089 C 0.58756 0.90159 0.5568 0.0
C2090 C 0.64837 0.90211 0.58903 0.0
C2091 C 0.66436 0.84503 0.60779 0.0
C2092 C 0.64992 0.86082 0.59806 0.0
C2093 C 0.61491 0.90678 0.55764 0.0
C2094 C 0.62588 0.8909 0.57318 0.0
H2095 H 0.65499 0.79585 0.64975 0.0
H2096 H 0.63091 0.82309 0.6361 0.0
H2097 H 0.67807 0.89638 0.61233 0.0
H2098 H 0.63606 0.95934 0.51975 0.0
H2099 H 0.65323 0.93175 0.54262 0.0
C2100 C 0.71722 0.22215 0.33784 0.0
C2101 C 0.72887 0.21612 0.30749 0.0
C2102 C 0.69672 0.20393 0.35252 0.0
C2103 C 0.64755 0.14156 0.33456 0.0
H2104 H 0.64451 0.13673 0.42295 0.0
C2105 C 0.59119 0.05129 0.39166 0.0
C2106 C 0.57752 0.05382 0.4218 0.0
C2107 C 0.60655 0.07268 0.37774 0.0
C2108 C 0.64485 0.13808 0.39834 0.0
H2109 H 0.72931 0.1858 0.26954 0.0
H2110 H 0.69448 0.15393 0.29536 0.0
H2111 H 0.67806 0.17116 0.39923 0.0
H2112 H 0.56861 0.08097 0.46047 0.0
H2113 H 0.59559 0.11829 0.43608 0.0
H2114 H 0.6149 0.10795 0.33352 0.0
C2115 C 0.70025 0.17298 0.30743 0.0
C2116 C 0.66407 0.15782 0.38473 0.0
C2117 C 0.72049 0.19121 0.29273 0.0
C2118 C 0.57884 0.07829 0.43721 0.0
C2119 C 0.59444 0.0997 0.42337 0.0
C2120 C 0.62849 0.12174 0.34811 0.0
C2121 C 0.68779 0.17915 0.33731 0.0
C2122 C 0.66599 0.15953 0.35252 0.0
C2123 C 0.60878 0.09709 0.39369 0.0
C2124 C 0.62721 0.11953 0.38002 0.0
H2125 H 0.72387 0.24097 0.3502 0.0
H2126 H 0.68763 0.20937 0.37556 0.0
H2127 H 0.648 0.14264 0.30986 0.0
H2128 H 0.59061 0.03276 0.37909 0.0
H2129 H 0.61755 0.07005 0.35495 0.0
C2130 C 0.87879 0.67374 0.3285 0.0
C2131 C 0.85515 0.67983 0.34029 0.0
C2132 C 0.89398 0.66862 0.34856 0.0
C2133 C 0.88582 0.6469 0.42631 0.0
H2134 H 0.96064 0.65379 0.40628 0.0
C2135 C 0.93239 0.57978 0.46526 0.0
C2136 C 0.95811 0.58832 0.47395 0.0
C2137 C 0.92184 0.59575 0.45335 0.0
C2138 C 0.93985 0.65212 0.41258 0.0
H2139 H 0.82997 0.68672 0.38301 0.0
H2140 H 0.8571 0.67918 0.41794 0.0
H2141 H 0.9395 0.6749 0.37762 0.0
H2142 H 0.99283 0.62063 0.47726 0.0
H2143 H 0.97415 0.6489 0.4563 0.0
H2144 H 0.88613 0.62433 0.46132 0.0
C2145 C 0.86347 0.67748 0.39302 0.0
C2146 C 0.92761 0.66392 0.39585 0.0
C2147 C 0.84804 0.6822 0.37292 0.0
C2148 C 0.97297 0.61349 0.47075 0.0
C2149 C 0.96231 0.62962 0.45866 0.0
C2150 C 0.89807 0.63539 0.44317 0.0
C2151 C 0.8862 0.66981 0.38105 0.0
C2152 C 0.90024 0.66077 0.4018 0.0
C2153 C 0.93658 0.62086 0.44983 0.0
C2154 C 0.925 0.63702 0.43574 0.0
H2155 H 0.88532 0.67233 0.30362 0.0
H2156 H 0.91121 0.66263 0.33829 0.0
H2157 H 0.86472 0.64376 0.43157 0.0
H2158 H 0.92029 0.56053 0.46732 0.0
H2159 H 0.90222 0.58812 0.44616 0.0
C2160 C 0.32441 0.81576 0.34354 0.0
C2161 C 0.30302 0.81976 0.33231 0.0
C2162 C 0.33944 0.83403 0.36434 0.0
C2163 C 0.35676 0.90293 0.38889 0.0
H2164 H 0.3958 0.88616 0.4461 0.0
C2165 C 0.42755 0.97854 0.46726 0.0
C2166 C 0.45274 0.97542 0.46661 0.0
C2167 C 0.40756 0.95939 0.45345 0.0
C2168 C 0.38512 0.89109 0.43009 0.0
H2169 H 0.27776 0.84455 0.33918 0.0
H2170 H 0.30414 0.8768 0.37538 0.0
H2171 H 0.36168 0.85278 0.42057 0.0
H2172 H 0.47654 0.94954 0.45131 0.0
H2173 H 0.44127 0.91573 0.42759 0.0
H2174 H 0.38017 0.94134 0.39882 0.0
C2175 C 0.3102 0.85991 0.36649 0.0
C2176 C 0.36555 0.87199 0.41542 0.0
C2177 C 0.29512 0.84143 0.34551 0.0
C2178 C 0.45739 0.95254 0.45211 0.0
C2179 C 0.43718 0.93316 0.43871 0.0
C2180 C 0.37611 0.92208 0.4039 0.0
C2181 C 0.33314 0.8568 0.3753 0.0
C2182 C 0.35146 0.87754 0.39409 0.0
C2183 C 0.41211 0.93648 0.43908 0.0
C2184 C 0.3908 0.91629 0.42423 0.0
H2185 H 0.33004 0.79868 0.3358 0.0
H2186 H 0.35672 0.83065 0.37063 0.0
H2187 H 0.34668 0.90794 0.3723 0.0
H2188 H 0.4233 0.99596 0.47812 0.0
H2189 H 0.38842 0.96242 0.45428 0.0
C2190 C 0.20744 0.31111 0.28619 0.0
C2191 C 0.23272 0.31338 0.29387 0.0
C2192 C 0.19251 0.32705 0.30223 0.0
C2193 C 0.18641 0.37203 0.37542 0.0
H2194 H 0.14255 0.39258 0.32815 0.0
C2195 C 0.12778 0.44602 0.42849 0.0
C2196 C 0.10248 0.44134 0.41932 0.0
C2197 C 0.14439 0.43089 0.41448 0.0
C2198 C 0.1544 0.38686 0.34194 0.0
H2199 H 0.26203 0.33518 0.32435 0.0
H2200 H 0.23608 0.36277 0.35248 0.0
H2201 H 0.16977 0.36592 0.30167 0.0
H2202 H 0.07493 0.41647 0.38831 0.0
H2203 H 0.10349 0.39047 0.3642 0.0
H2204 H 0.17097 0.39327 0.41573 0.0
C2205 C 0.22753 0.34825 0.33434 0.0
C2206 C 0.17012 0.37141 0.32665 0.0
C2207 C 0.24251 0.33225 0.3182 0.0
C2208 C 0.09426 0.42092 0.396 0.0
C2209 C 0.11082 0.40599 0.38192 0.0
C2210 C 0.17067 0.3876 0.39077 0.0
C2211 C 0.20227 0.34603 0.32652 0.0
C2212 C 0.18621 0.36343 0.3431 0.0
C2213 C 0.13629 0.41079 0.39062 0.0
C2214 C 0.15414 0.39504 0.37434 0.0
H2215 H 0.19897 0.29679 0.26781 0.0
H2216 H 0.17305 0.32422 0.29571 0.0
H2217 H 0.19826 0.36625 0.38914 0.0
H2218 H 0.13493 0.46161 0.44618 0.0
H2219 H 0.16384 0.43537 0.42181 0.0
C2220 C 0.31511 0.19134 0.69785 0.0
C2221 C 0.32437 0.21797 0.70136 0.0
C2222 C 0.33089 0.17649 0.6809 0.0
C2223 C 0.40131 0.18043 0.64875 0.0
H2224 H 0.3698 0.11413 0.60577 0.0
C2225 C 0.46314 0.11046 0.60197 0.0
C2226 C 0.45717 0.09321 0.5749 0.0
C2227 C 0.44688 0.12579 0.61552 0.0
C2228 C 0.37909 0.13271 0.61727 0.0
H2229 H 0.35758 0.24968 0.68876 0.0
H2230 H 0.38444 0.22409 0.65812 0.0
H2231 H 0.34185 0.14042 0.6316 0.0
H2232 H 0.42928 0.07912 0.5406 0.0
H2233 H 0.40122 0.10637 0.56368 0.0
H2234 H 0.43858 0.17318 0.63358 0.0
C2235 C 0.3653 0.21445 0.66934 0.0
C2236 C 0.3629 0.14776 0.63264 0.0
C2237 C 0.34966 0.22927 0.68668 0.0
C2238 C 0.43449 0.09204 0.56153 0.0
C2239 C 0.41826 0.10763 0.57497 0.0
C2240 C 0.41748 0.16551 0.6332 0.0
C2241 C 0.35637 0.18775 0.6664 0.0
C2242 C 0.37368 0.17184 0.64893 0.0
C2243 C 0.42413 0.12474 0.60234 0.0
C2244 C 0.40669 0.14122 0.61748 0.0
H2245 H 0.29557 0.18187 0.70826 0.0
H2246 H 0.32317 0.15611 0.6797 0.0
H2247 H 0.41063 0.1986 0.66119 0.0
H2248 H 0.48027 0.11188 0.61322 0.0
H2249 H 0.45201 0.13813 0.63685 0.0
C2250 C 0.86801 0.30323 0.69029 0.0
C2251 C 0.84226 0.29248 0.68198 0.0
C2252 C 0.88627 0.3219 0.67381 0.0
C2253 C 0.89714 0.35532 0.60191 0.0
H2254 H 0.94518 0.4083 0.65123 0.0
C2255 C 0.94647 0.45887 0.5741 0.0
C2256 C 0.9742 0.46636 0.56966 0.0
C2257 C 0.93248 0.4358 0.58516 0.0
C2258 C 0.93208 0.39348 0.63712 0.0
H2259 H 0.81659 0.29106 0.64764 0.0
H2260 H 0.8475 0.32465 0.62024 0.0
H2261 H 0.91656 0.37156 0.67526 0.0
H2262 H 1.00907 0.4555 0.57309 0.0
H2263 H 0.98439 0.41541 0.59423 0.0
H2264 H 0.91167 0.37859 0.56449 0.0
C2265 C 0.85396 0.31868 0.63929 0.0
C2266 C 0.91569 0.37222 0.65077 0.0
C2267 C 0.83591 0.29959 0.65539 0.0
C2268 C 0.98771 0.45021 0.57645 0.0
C2269 C 0.97365 0.42737 0.58848 0.0
C2270 C 0.9131 0.3769 0.58855 0.0
C2271 C 0.87928 0.33065 0.64871 0.0
C2272 C 0.8978 0.35277 0.63347 0.0
C2273 C 0.94589 0.41996 0.59279 0.0
C2274 C 0.93065 0.39619 0.60606 0.0
H2275 H 0.87388 0.29788 0.71027 0.0
H2276 H 0.90578 0.32972 0.68122 0.0
H2277 H 0.88422 0.34073 0.5874 0.0
H2278 H 0.93554 0.47078 0.5686 0.0
H2279 H 0.91111 0.43052 0.58831 0.0
C2280 C 0.23931 0.68417 0.67767 0.0
C2281 C 0.24394 0.71037 0.67813 0.0
C2282 C 0.22356 0.66702 0.6565 0.0
C2283 C 0.17045 0.66118 0.60902 0.0
H2284 H 0.18668 0.59881 0.57229 0.0
C2285 C 0.09266 0.57327 0.55832 0.0
C2286 C 0.10071 0.55768 0.53236 0.0
C2287 C 0.11114 0.59383 0.57254 0.0
C2288 C 0.18198 0.61627 0.58195 0.0
H2289 H 0.23591 0.73914 0.6564 0.0
H2290 H 0.20854 0.70912 0.61913 0.0
H2291 H 0.21804 0.6311 0.60273 0.0
H2292 H 0.13435 0.55225 0.50004 0.0
H2293 H 0.16646 0.58832 0.52456 0.0
H2294 H 0.13443 0.64636 0.58806 0.0
C2295 C 0.21692 0.70186 0.6354 0.0
C2296 C 0.19985 0.63466 0.59976 0.0
C2297 C 0.2327 0.71906 0.65665 0.0
C2298 C 0.12751 0.56368 0.52025 0.0
C2299 C 0.14596 0.58431 0.53438 0.0
C2300 C 0.15259 0.64279 0.59113 0.0
C2301 C 0.21201 0.67563 0.63525 0.0
C2302 C 0.1941 0.65714 0.61398 0.0
C2303 C 0.13807 0.59938 0.56103 0.0
C2304 C 0.15795 0.61992 0.5778 0.0
H2305 H 0.24726 0.67679 0.69425 0.0
H2306 H 0.21979 0.64696 0.65747 0.0
H2307 H 0.16531 0.6782 0.6198 0.0
H2308 H 0.07217 0.56924 0.56821 0.0
H2309 H 0.10438 0.60485 0.59322 0.0
loop_
_geom_bond_atom_site_label_1
_geom_bond_atom_site_label_2
_geom_bond_distance
_geom_bond_site_symmetry_2
_ccdc_geom_bond_type
Eu0 N29 2.600 . S
Eu0 N35 2.562 . S
Eu0 O44 2.462 . S
Eu0 O45 2.373 . S
Eu0 O47 2.432 . S
Eu0 O48 2.291 . S
Eu0 O52 2.335 . S
Eu0 O55 2.372 . S
Eu0 C64 2.787 . S
C1 N2 1.365 . S
C1 C4 1.405 . S
C1 C8 1.448 . S
N2 C1 1.365 . S
N2 C5 1.319 . S
N2 Eu11 2.600 . S
C3 C5 1.397 . S
C3 C6 1.367 . S
C3 H23 0.931 . S
C4 C1 1.405 . S
C4 C6 1.403 . S
C4 C10 1.439 . S
C5 N2 1.319 . S
C5 C3 1.397 . S
C5 H16 0.930 . S
C6 C3 1.367 . S
C6 C4 1.403 . S
C6 H27 0.929 . S
C7 C8 1.430 . S
C7 C9 1.387 . S
C7 C13 1.404 . S
C8 C1 1.448 . S
C8 C7 1.430 . S
C8 N12 1.351 . S
C9 C7 1.387 . S
C9 C10 1.374 . S
C9 H24 0.931 . S
C10 C4 1.439 . S
C10 C9 1.374 . S
C10 H25 0.931 . S
Eu11 N2 2.600 . S
Eu11 N12 2.562 . S
Eu11 O46 2.335 . S
Eu11 O49 2.372 . S
Eu11 O50 2.462 . S
Eu11 O51 2.373 . S
Eu11 O53 2.432 . S
Eu11 O54 2.291 . S
Eu11 C75 2.787 . S
N12 C8 1.351 . S
N12 Eu11 2.562 . S
N12 C14 1.325 . S
C13 C7 1.404 . S
C13 C15 1.366 . S
C13 H21 0.930 . S
C14 N12 1.325 . S
C14 C15 1.416 . S
C14 H20 0.929 . S
C15 C13 1.366 . S
C15 C14 1.416 . S
C15 H17 0.930 . S
H16 C5 0.930 . S
H17 C15 0.930 . S
H18 C33 0.930 . S
H19 C40 0.930 . S
H20 C14 0.929 . S
H21 C13 0.930 . S
H22 C36 0.929 . S
H23 C3 0.931 . S
H24 C9 0.931 . S
H25 C10 0.931 . S
H26 C31 0.931 . S
H27 C6 0.929 . S
H28 C39 0.930 . S
N29 Eu0 2.600 . S
N29 C30 1.365 . S
N29 C33 1.319 . S
C30 N29 1.365 . S
C30 C32 1.405 . S
C30 C38 1.448 . S
C31 H26 0.931 . S
C31 C33 1.397 . S
C31 C34 1.367 . S
C32 C30 1.405 . S
C32 C34 1.403 . S
C32 C65 1.439 . S
C33 H18 0.930 . S
C33 N29 1.319 . S
C33 C31 1.397 . S
C34 C31 1.367 . S
C34 C32 1.403 . S
C34 H41 0.929 . S
N35 Eu0 2.562 . S
N35 C36 1.325 . S
N35 C38 1.351 . S
C36 H22 0.929 . S
C36 N35 1.325 . S
C36 C40 1.416 . S
C37 C38 1.430 . S
C37 C39 1.404 . S
C37 C66 1.387 . S
C38 C30 1.448 . S
C38 N35 1.351 . S
C38 C37 1.430 . S
C39 H28 0.930 . S
C39 C37 1.404 . S
C39 C40 1.366 . S
C40 H19 0.930 . S
C40 C36 1.416 . S
C40 C39 1.366 . S
H41 C34 0.929 . S
H42 C65 0.931 . S
H43 C66 0.931 . S
O44 Eu0 2.462 . S
O44 C64 1.252 . S
O45 Eu0 2.373 . S
O45 C56 1.249 . S
O46 Eu11 2.335 . S
O46 C56 1.264 . S
O47 Eu0 2.432 . S
O47 C64 1.268 . S
O48 Eu0 2.291 . S
O48 C63 1.255 . S
O49 Eu11 2.372 . S
O49 C63 1.257 . S
O50 Eu11 2.462 . S
O50 C75 1.252 . S
O51 Eu11 2.373 . S
O51 C67 1.249 . S
O52 Eu0 2.335 . S
O52 C67 1.264 . S
O53 Eu11 2.432 . S
O53 C75 1.268 . S
O54 Eu11 2.291 . S
O54 C74 1.255 . S
O55 Eu0 2.372 . S
O55 C74 1.257 . S
C56 O45 1.249 . S
C56 O46 1.264 . S
C57 C60 1.382 . S
C57 C62 1.390 . S
C57 C64 1.506 . S
C58 C59 1.398 . S
C58 C62 1.392 . S
C59 C58 1.398 . S
C59 C61 1.372 . S
C59 H76 0.931 . S
C60 C57 1.382 . S
C60 C61 1.390 . S
C60 H77 0.931 . S
C61 C59 1.372 . S
C61 C60 1.390 . S
C61 H78 0.929 . S
C62 C57 1.390 . S
C62 C58 1.392 . S
C62 H79 0.930 . S
C63 O48 1.255 . S
C63 O49 1.257 . S
C64 Eu0 2.787 . S
C64 O44 1.252 . S
C64 O47 1.268 . S
C64 C57 1.506 . S
C65 C32 1.439 . S
C65 H42 0.931 . S
C65 C66 1.374 . S
C66 C37 1.387 . S
C66 H43 0.931 . S
C66 C65 1.374 . S
C67 O51 1.249 . S
C67 O52 1.264 . S
C68 C71 1.382 . S
C68 C72 1.390 . S
C68 C75 1.506 . S
C69 C70 1.398 . S
C69 C72 1.392 . S
C70 C69 1.398 . S
C70 C73 1.372 . S
C70 H80 0.931 . S
C71 C68 1.382 . S
C71 C73 1.390 . S
C71 H81 0.931 . S
C72 C68 1.390 . S
C72 C69 1.392 . S
C72 H82 0.930 . S
C73 C70 1.372 . S
C73 C71 1.390 . S
C73 H83 0.929 . S
C74 O54 1.255 . S
C74 O55 1.257 . S
C75 Eu11 2.787 . S
C75 O50 1.252 . S
C75 O53 1.268 . S
C75 C68 1.506 . S
H76 C59 0.931 . S
H77 C60 0.931 . S
H78 C61 0.929 . S
H79 C62 0.930 . S
H80 C70 0.931 . S
H81 C71 0.931 . S
H82 C72 0.930 . S
H83 C73 0.929 . S
Eu84 N113 2.600 . S
Eu84 N119 2.562 . S
Eu84 O128 2.462 . S
Eu84 O129 2.373 . S
Eu84 O131 2.432 . S
Eu84 O132 2.291 . S
Eu84 O136 2.335 . S
Eu84 O139 2.372 . S
Eu84 C148 2.787 . S
C85 N86 1.365 . S
C85 C88 1.405 . S
C85 C92 1.448 . S
N86 C85 1.365 . S
N86 C89 1.319 . S
N86 Eu95 2.600 . S
C87 C89 1.397 . S
C87 C90 1.367 . S
C87 H107 0.931 . S
C88 C85 1.405 . S
C88 C90 1.403 . S
C88 C94 1.439 . S
C89 N86 1.319 . S
C89 C87 1.397 . S
C89 H100 0.930 . S
C90 C87 1.367 . S
C90 C88 1.403 . S
C90 H111 0.929 . S
C91 C92 1.430 . S
C91 C93 1.387 . S
C91 C97 1.404 . S
C92 C85 1.448 . S
C92 C91 1.430 . S
C92 N96 1.351 . S
C93 C91 1.387 . S
C93 C94 1.374 . S
C93 H108 0.931 . S
C94 C88 1.439 . S
C94 C93 1.374 . S
C94 H109 0.931 . S
Eu95 N86 2.600 . S
Eu95 N96 2.562 . S
Eu95 O130 2.335 . S
Eu95 O133 2.372 . S
Eu95 O134 2.462 . S
Eu95 O135 2.373 . S
Eu95 O137 2.432 . S
Eu95 O138 2.291 . S
Eu95 C159 2.787 . S
N96 C92 1.351 . S
N96 Eu95 2.562 . S
N96 C98 1.325 . S
C97 C91 1.404 . S
C97 C99 1.366 . S
C97 H105 0.930 . S
C98 N96 1.325 . S
C98 C99 1.416 . S
C98 H104 0.929 . S
C99 C97 1.366 . S
C99 C98 1.416 . S
C99 H101 0.930 . S
H100 C89 0.930 . S
H101 C99 0.930 . S
H102 C117 0.930 . S
H103 C124 0.930 . S
H104 C98 0.929 . S
H105 C97 0.930 . S
H106 C120 0.929 . S
H107 C87 0.931 . S
H108 C93 0.931 . S
H109 C94 0.931 . S
H110 C115 0.931 . S
H111 C90 0.929 . S
H112 C123 0.930 . S
N113 Eu84 2.600 . S
N113 C114 1.365 . S
N113 C117 1.319 . S
C114 N113 1.365 . S
C114 C116 1.405 . S
C114 C122 1.448 . S
C115 H110 0.931 . S
C115 C117 1.397 . S
C115 C118 1.367 . S
C116 C114 1.405 . S
C116 C118 1.403 . S
C116 C149 1.439 . S
C117 H102 0.930 . S
C117 N113 1.319 . S
C117 C115 1.397 . S
C118 C115 1.367 . S
C118 C116 1.403 . S
C118 H125 0.929 . S
N119 Eu84 2.562 . S
N119 C120 1.325 . S
N119 C122 1.351 . S
C120 H106 0.929 . S
C120 N119 1.325 . S
C120 C124 1.416 . S
C121 C122 1.430 . S
C121 C123 1.404 . S
C121 C150 1.387 . S
C122 C114 1.448 . S
C122 N119 1.351 . S
C122 C121 1.430 . S
C123 H112 0.930 . S
C123 C121 1.404 . S
C123 C124 1.366 . S
C124 H103 0.930 . S
C124 C120 1.416 . S
C124 C123 1.366 . S
H125 C118 0.929 . S
H126 C149 0.931 . S
H127 C150 0.931 . S
O128 Eu84 2.462 . S
O128 C148 1.252 . S
O129 Eu84 2.373 . S
O129 C140 1.249 . S
O130 Eu95 2.335 . S
O130 C140 1.264 . S
O131 Eu84 2.432 . S
O131 C148 1.268 . S
O132 Eu84 2.291 . S
O132 C147 1.255 . S
O133 Eu95 2.372 . S
O133 C147 1.257 . S
O134 Eu95 2.462 . S
O134 C159 1.252 . S
O135 Eu95 2.373 . S
O135 C151 1.249 . S
O136 Eu84 2.335 . S
O136 C151 1.264 . S
O137 Eu95 2.432 . S
O137 C159 1.268 . S
O138 Eu95 2.291 . S
O138 C158 1.255 . S
O139 Eu84 2.372 . S
O139 C158 1.257 . S
C140 O129 1.249 . S
C140 O130 1.264 . S
C141 C144 1.382 . S
C141 C146 1.390 . S
C141 C148 1.506 . S
C142 C143 1.398 . S
C142 C146 1.392 . S
C143 C142 1.398 . S
C143 C145 1.372 . S
C143 H160 0.931 . S
C144 C141 1.382 . S
C144 C145 1.390 . S
C144 H161 0.931 . S
C145 C143 1.372 . S
C145 C144 1.390 . S
C145 H162 0.929 . S
C146 C141 1.390 . S
C146 C142 1.392 . S
C146 H163 0.930 . S
C147 O132 1.255 . S
C147 O133 1.257 . S
C148 Eu84 2.787 . S
C148 O128 1.252 . S
C148 O131 1.268 . S
C148 C141 1.506 . S
C149 C116 1.439 . S
C149 H126 0.931 . S
C149 C150 1.374 . S
C150 C121 1.387 . S
C150 H127 0.931 . S
C150 C149 1.374 . S
C151 O135 1.249 . S
C151 O136 1.264 . S
C152 C155 1.382 . S
C152 C156 1.390 . S
C152 C159 1.506 . S
C153 C154 1.398 . S
C153 C156 1.392 . S
C154 C153 1.398 . S
C154 C157 1.372 . S
C154 H164 0.931 . S
C155 C152 1.382 . S
C155 C157 1.390 . S
C155 H165 0.931 . S
C156 C152 1.390 . S
C156 C153 1.392 . S
C156 H166 0.930 . S
C157 C154 1.372 . S
C157 C155 1.390 . S
C157 H167 0.929 . S
C158 O138 1.255 . S
C158 O139 1.257 . S
C159 Eu95 2.787 . S
C159 O134 1.252 . S
C159 O137 1.268 . S
C159 C152 1.506 . S
H160 C143 0.931 . S
H161 C144 0.931 . S
H162 C145 0.929 . S
H163 C146 0.930 . S
H164 C154 0.931 . S
H165 C155 0.931 . S
H166 C156 0.930 . S
H167 C157 0.929 . S
Eu168 N197 2.600 . S
Eu168 N203 2.562 . S
Eu168 O212 2.462 . S
Eu168 O213 2.373 . S
Eu168 O215 2.432 . S
Eu168 O216 2.291 . S
Eu168 O220 2.335 . S
Eu168 O223 2.372 . S
Eu168 C232 2.787 . S
C169 N170 1.365 . S
C169 C172 1.405 . S
C169 C176 1.448 . S
N170 C169 1.365 . S
N170 C173 1.319 . S
N170 Eu179 2.600 . S
C171 C173 1.397 . S
C171 C174 1.367 . S
C171 H191 0.931 . S
C172 C169 1.405 . S
C172 C174 1.403 . S
C172 C178 1.439 . S
C173 N170 1.319 . S
C173 C171 1.397 . S
C173 H184 0.930 . S
C174 C171 1.367 . S
C174 C172 1.403 . S
C174 H195 0.929 . S
C175 C176 1.430 . S
C175 C177 1.387 . S
C175 C181 1.404 . S
C176 C169 1.448 . S
C176 C175 1.430 . S
C176 N180 1.351 . S
C177 C175 1.387 . S
C177 C178 1.374 . S
C177 H192 0.931 . S
C178 C172 1.439 . S
C178 C177 1.374 . S
C178 H193 0.931 . S
Eu179 N170 2.600 . S
Eu179 N180 2.562 . S
Eu179 O214 2.335 . S
Eu179 O217 2.372 . S
Eu179 O218 2.462 . S
Eu179 O219 2.373 . S
Eu179 O221 2.432 . S
Eu179 O222 2.291 . S
Eu179 C243 2.787 . S
N180 C176 1.351 . S
N180 Eu179 2.562 . S
N180 C182 1.325 . S
C181 C175 1.404 . S
C181 C183 1.366 . S
C181 H189 0.930 . S
C182 N180 1.325 . S
C182 C183 1.416 . S
C182 H188 0.929 . S
C183 C181 1.366 . S
C183 C182 1.416 . S
C183 H185 0.930 . S
H184 C173 0.930 . S
H185 C183 0.930 . S
H186 C201 0.930 . S
H187 C208 0.930 . S
H188 C182 0.929 . S
H189 C181 0.930 . S
H190 C204 0.929 . S
H191 C171 0.931 . S
H192 C177 0.931 . S
H193 C178 0.931 . S
H194 C199 0.931 . S
H195 C174 0.929 . S
H196 C207 0.930 . S
N197 Eu168 2.600 . S
N197 C198 1.365 . S
N197 C201 1.319 . S
C198 N197 1.365 . S
C198 C200 1.405 . S
C198 C206 1.448 . S
C199 H194 0.931 . S
C199 C201 1.397 . S
C199 C202 1.367 . S
C200 C198 1.405 . S
C200 C202 1.403 . S
C200 C233 1.439 . S
C201 H186 0.930 . S
C201 N197 1.319 . S
C201 C199 1.397 . S
C202 C199 1.367 . S
C202 C200 1.403 . S
C202 H209 0.929 . S
N203 Eu168 2.562 . S
N203 C204 1.325 . S
N203 C206 1.351 . S
C204 H190 0.929 . S
C204 N203 1.325 . S
C204 C208 1.416 . S
C205 C206 1.430 . S
C205 C207 1.404 . S
C205 C234 1.387 . S
C206 C198 1.448 . S
C206 N203 1.351 . S
C206 C205 1.430 . S
C207 H196 0.930 . S
C207 C205 1.404 . S
C207 C208 1.366 . S
C208 H187 0.930 . S
C208 C204 1.416 . S
C208 C207 1.366 . S
H209 C202 0.929 . S
H210 C233 0.931 . S
H211 C234 0.931 . S
O212 Eu168 2.462 . S
O212 C232 1.252 . S
O213 Eu168 2.373 . S
O213 C224 1.249 . S
O214 Eu179 2.335 . S
O214 C224 1.264 . S
O215 Eu168 2.432 . S
O215 C232 1.268 . S
O216 Eu168 2.291 . S
O216 C231 1.255 . S
O217 Eu179 2.372 . S
O217 C231 1.257 . S
O218 Eu179 2.462 . S
O218 C243 1.252 . S
O219 Eu179 2.373 . S
O219 C235 1.249 . S
O220 Eu168 2.335 . S
O220 C235 1.264 . S
O221 Eu179 2.432 . S
O221 C243 1.268 . S
O222 Eu179 2.291 . S
O222 C242 1.255 . S
O223 Eu168 2.372 . S
O223 C242 1.257 . S
C224 O213 1.249 . S
C224 O214 1.264 . S
C225 C228 1.382 . S
C225 C230 1.390 . S
C225 C232 1.506 . S
C226 C227 1.398 . S
C226 C230 1.392 . S
C227 C226 1.398 . S
C227 C229 1.372 . S
C227 H244 0.931 . S
C228 C225 1.382 . S
C228 C229 1.390 . S
C228 H245 0.931 . S
C229 C227 1.372 . S
C229 C228 1.390 . S
C229 H246 0.929 . S
C230 C225 1.390 . S
C230 C226 1.392 . S
C230 H247 0.930 . S
C231 O216 1.255 . S
C231 O217 1.257 . S
C232 Eu168 2.787 . S
C232 O212 1.252 . S
C232 O215 1.268 . S
C232 C225 1.506 . S
C233 C200 1.439 . S
C233 H210 0.931 . S
C233 C234 1.374 . S
C234 C205 1.387 . S
C234 H211 0.931 . S
C234 C233 1.374 . S
C235 O219 1.249 . S
C235 O220 1.264 . S
C236 C239 1.382 . S
C236 C240 1.390 . S
C236 C243 1.506 . S
C237 C238 1.398 . S
C237 C240 1.392 . S
C238 C237 1.398 . S
C238 C241 1.372 . S
C238 H248 0.931 . S
C239 C236 1.382 . S
C239 C241 1.390 . S
C239 H249 0.931 . S
C240 C236 1.390 . S
C240 C237 1.392 . S
C240 H250 0.930 . S
C241 C238 1.372 . S
C241 C239 1.390 . S
C241 H251 0.929 . S
C242 O222 1.255 . S
C242 O223 1.257 . S
C243 Eu179 2.787 . S
C243 O218 1.252 . S
C243 O221 1.268 . S
C243 C236 1.506 . S
H244 C227 0.931 . S
H245 C228 0.931 . S
H246 C229 0.929 . S
H247 C230 0.930 . S
H248 C238 0.931 . S
H249 C239 0.931 . S
H250 C240 0.930 . S
H251 C241 0.929 . S
Eu252 N281 2.600 . S
Eu252 N287 2.562 . S
Eu252 O296 2.462 . S
Eu252 O297 2.373 . S
Eu252 O299 2.432 . S
Eu252 O300 2.291 . S
Eu252 O304 2.335 . S
Eu252 O307 2.372 . S
Eu252 C316 2.787 . S
C253 N254 1.365 . S
C253 C256 1.405 . S
C253 C260 1.448 . S
N254 C253 1.365 . S
N254 C257 1.319 . S
N254 Eu263 2.600 . S
C255 C257 1.397 . S
C255 C258 1.367 . S
C255 H275 0.931 . S
C256 C253 1.405 . S
C256 C258 1.403 . S
C256 C262 1.439 . S
C257 N254 1.319 . S
C257 C255 1.397 . S
C257 H268 0.930 . S
C258 C255 1.367 . S
C258 C256 1.403 . S
C258 H279 0.929 . S
C259 C260 1.430 . S
C259 C261 1.387 . S
C259 C265 1.404 . S
C260 C253 1.448 . S
C260 C259 1.430 . S
C260 N264 1.351 . S
C261 C259 1.387 . S
C261 C262 1.374 . S
C261 H276 0.931 . S
C262 C256 1.439 . S
C262 C261 1.374 . S
C262 H277 0.931 . S
Eu263 N254 2.600 . S
Eu263 N264 2.562 . S
Eu263 O298 2.335 . S
Eu263 O301 2.372 . S
Eu263 O302 2.462 . S
Eu263 O303 2.373 . S
Eu263 O305 2.432 . S
Eu263 O306 2.291 . S
Eu263 C327 2.787 . S
N264 C260 1.351 . S
N264 Eu263 2.562 . S
N264 C266 1.325 . S
C265 C259 1.404 . S
C265 C267 1.366 . S
C265 H273 0.930 . S
C266 N264 1.325 . S
C266 C267 1.416 . S
C266 H272 0.929 . S
C267 C265 1.366 . S
C267 C266 1.416 . S
C267 H269 0.930 . S
H268 C257 0.930 . S
H269 C267 0.930 . S
H270 C285 0.930 . S
H271 C292 0.930 . S
H272 C266 0.929 . S
H273 C265 0.930 . S
H274 C288 0.929 . S
H275 C255 0.931 . S
H276 C261 0.931 . S
H277 C262 0.931 . S
H278 C283 0.931 . S
H279 C258 0.929 . S
H280 C291 0.930 . S
N281 Eu252 2.600 . S
N281 C282 1.365 . S
N281 C285 1.319 . S
C282 N281 1.365 . S
C282 C284 1.405 . S
C282 C290 1.448 . S
C283 H278 0.931 . S
C283 C285 1.397 . S
C283 C286 1.367 . S
C284 C282 1.405 . S
C284 C286 1.403 . S
C284 C317 1.439 . S
C285 H270 0.930 . S
C285 N281 1.319 . S
C285 C283 1.397 . S
C286 C283 1.367 . S
C286 C284 1.403 . S
C286 H293 0.929 . S
N287 Eu252 2.562 . S
N287 C288 1.325 . S
N287 C290 1.351 . S
C288 H274 0.929 . S
C288 N287 1.325 . S
C288 C292 1.416 . S
C289 C290 1.430 . S
C289 C291 1.404 . S
C289 C318 1.387 . S
C290 C282 1.448 . S
C290 N287 1.351 . S
C290 C289 1.430 . S
C291 H280 0.930 . S
C291 C289 1.404 . S
C291 C292 1.366 . S
C292 H271 0.930 . S
C292 C288 1.416 . S
C292 C291 1.366 . S
H293 C286 0.929 . S
H294 C317 0.931 . S
H295 C318 0.931 . S
O296 Eu252 2.462 . S
O296 C316 1.252 . S
O297 Eu252 2.373 . S
O297 C308 1.249 . S
O298 Eu263 2.335 . S
O298 C308 1.264 . S
O299 Eu252 2.432 . S
O299 C316 1.268 . S
O300 Eu252 2.291 . S
O300 C315 1.255 . S
O301 Eu263 2.372 . S
O301 C315 1.257 . S
O302 Eu263 2.462 . S
O302 C327 1.252 . S
O303 Eu263 2.373 . S
O303 C319 1.249 . S
O304 Eu252 2.335 . S
O304 C319 1.264 . S
O305 Eu263 2.432 . S
O305 C327 1.268 . S
O306 Eu263 2.291 . S
O306 C326 1.255 . S
O307 Eu252 2.372 . S
O307 C326 1.257 . S
C308 O297 1.249 . S
C308 O298 1.264 . S
C309 C312 1.382 . S
C309 C314 1.390 . S
C309 C316 1.506 . S
C310 C311 1.398 . S
C310 C314 1.392 . S
C311 C310 1.398 . S
C311 C313 1.372 . S
C311 H328 0.931 . S
C312 C309 1.382 . S
C312 C313 1.390 . S
C312 H329 0.931 . S
C313 C311 1.372 . S
C313 C312 1.390 . S
C313 H330 0.929 . S
C314 C309 1.390 . S
C314 C310 1.392 . S
C314 H331 0.930 . S
C315 O300 1.255 . S
C315 O301 1.257 . S
C316 Eu252 2.787 . S
C316 O296 1.252 . S
C316 O299 1.268 . S
C316 C309 1.506 . S
C317 C284 1.439 . S
C317 H294 0.931 . S
C317 C318 1.374 . S
C318 C289 1.387 . S
C318 H295 0.931 . S
C318 C317 1.374 . S
C319 O303 1.249 . S
C319 O304 1.264 . S
C320 C323 1.382 . S
C320 C324 1.390 . S
C320 C327 1.506 . S
C321 C322 1.398 . S
C321 C324 1.392 . S
C322 C321 1.398 . S
C322 C325 1.372 . S
C322 H332 0.931 . S
C323 C320 1.382 . S
C323 C325 1.390 . S
C323 H333 0.931 . S
C324 C320 1.390 . S
C324 C321 1.392 . S
C324 H334 0.930 . S
C325 C322 1.372 . S
C325 C323 1.390 . S
C325 H335 0.929 . S
C326 O306 1.255 . S
C326 O307 1.257 . S
C327 Eu263 2.787 . S
C327 O302 1.252 . S
C327 O305 1.268 . S
C327 C320 1.506 . S
H328 C311 0.931 . S
H329 C312 0.931 . S
H330 C313 0.929 . S
H331 C314 0.930 . S
H332 C322 0.931 . S
H333 C323 0.931 . S
H334 C324 0.930 . S
H335 C325 0.929 . S
Eu336 N365 2.600 . S
Eu336 N371 2.562 . S
Eu336 O380 2.462 . S
Eu336 O381 2.373 . S
Eu336 O383 2.432 . S
Eu336 O384 2.291 . S
Eu336 O388 2.335 . S
Eu336 O391 2.372 . S
Eu336 C400 2.787 . S
C337 N338 1.365 . S
C337 C340 1.405 . S
C337 C344 1.448 . S
N338 C337 1.365 . S
N338 C341 1.319 . S
N338 Eu347 2.600 . S
C339 C341 1.397 . S
C339 C342 1.367 . S
C339 H359 0.931 . S
C340 C337 1.405 . S
C340 C342 1.403 . S
C340 C346 1.439 . S
C341 N338 1.319 . S
C341 C339 1.397 . S
C341 H352 0.930 . S
C342 C339 1.367 . S
C342 C340 1.403 . S
C342 H363 0.929 . S
C343 C344 1.430 . S
C343 C345 1.387 . S
C343 C349 1.404 . S
C344 C337 1.448 . S
C344 C343 1.430 . S
C344 N348 1.351 . S
C345 C343 1.387 . S
C345 C346 1.374 . S
C345 H360 0.931 . S
C346 C340 1.439 . S
C346 C345 1.374 . S
C346 H361 0.931 . S
Eu347 N338 2.600 . S
Eu347 N348 2.562 . S
Eu347 O382 2.335 . S
Eu347 O385 2.372 . S
Eu347 O386 2.462 . S
Eu347 O387 2.373 . S
Eu347 O389 2.432 . S
Eu347 O390 2.291 . S
Eu347 C411 2.787 . S
N348 C344 1.351 . S
N348 Eu347 2.562 . S
N348 C350 1.325 . S
C349 C343 1.404 . S
C349 C351 1.366 . S
C349 H357 0.930 . S
C350 N348 1.325 . S
C350 C351 1.416 . S
C350 H356 0.929 . S
C351 C349 1.366 . S
C351 C350 1.416 . S
C351 H353 0.930 . S
H352 C341 0.930 . S
H353 C351 0.930 . S
H354 C369 0.930 . S
H355 C376 0.930 . S
H356 C350 0.929 . S
H357 C349 0.930 . S
H358 C372 0.929 . S
H359 C339 0.931 . S
H360 C345 0.931 . S
H361 C346 0.931 . S
H362 C367 0.931 . S
H363 C342 0.929 . S
H364 C375 0.930 . S
N365 Eu336 2.600 . S
N365 C366 1.365 . S
N365 C369 1.319 . S
C366 N365 1.365 . S
C366 C368 1.405 . S
C366 C374 1.448 . S
C367 H362 0.931 . S
C367 C369 1.397 . S
C367 C370 1.367 . S
C368 C366 1.405 . S
C368 C370 1.403 . S
C368 C401 1.439 . S
C369 H354 0.930 . S
C369 N365 1.319 . S
C369 C367 1.397 . S
C370 C367 1.367 . S
C370 C368 1.403 . S
C370 H377 0.929 . S
N371 Eu336 2.562 . S
N371 C372 1.325 . S
N371 C374 1.351 . S
C372 H358 0.929 . S
C372 N371 1.325 . S
C372 C376 1.416 . S
C373 C374 1.430 . S
C373 C375 1.404 . S
C373 C402 1.387 . S
C374 C366 1.448 . S
C374 N371 1.351 . S
C374 C373 1.430 . S
C375 H364 0.930 . S
C375 C373 1.404 . S
C375 C376 1.366 . S
C376 H355 0.930 . S
C376 C372 1.416 . S
C376 C375 1.366 . S
H377 C370 0.929 . S
H378 C401 0.931 . S
H379 C402 0.931 . S
O380 Eu336 2.462 . S
O380 C400 1.252 . S
O381 Eu336 2.373 . S
O381 C392 1.249 . S
O382 Eu347 2.335 . S
O382 C392 1.264 . S
O383 Eu336 2.432 . S
O383 C400 1.268 . S
O384 Eu336 2.291 . S
O384 C399 1.255 . S
O385 Eu347 2.372 . S
O385 C399 1.257 . S
O386 Eu347 2.462 . S
O386 C411 1.252 . S
O387 Eu347 2.373 . S
O387 C403 1.249 . S
O388 Eu336 2.335 . S
O388 C403 1.264 . S
O389 Eu347 2.432 . S
O389 C411 1.268 . S
O390 Eu347 2.291 . S
O390 C410 1.255 . S
O391 Eu336 2.372 . S
O391 C410 1.257 . S
C392 O381 1.249 . S
C392 O382 1.264 . S
C393 C396 1.382 . S
C393 C398 1.390 . S
C393 C400 1.506 . S
C394 C395 1.398 . S
C394 C398 1.392 . S
C395 C394 1.398 . S
C395 C397 1.372 . S
C395 H412 0.931 . S
C396 C393 1.382 . S
C396 C397 1.390 . S
C396 H413 0.931 . S
C397 C395 1.372 . S
C397 C396 1.390 . S
C397 H414 0.929 . S
C398 C393 1.390 . S
C398 C394 1.392 . S
C398 H415 0.930 . S
C399 O384 1.255 . S
C399 O385 1.257 . S
C400 Eu336 2.787 . S
C400 O380 1.252 . S
C400 O383 1.268 . S
C400 C393 1.506 . S
C401 C368 1.439 . S
C401 H378 0.931 . S
C401 C402 1.374 . S
C402 C373 1.387 . S
C402 H379 0.931 . S
C402 C401 1.374 . S
C403 O387 1.249 . S
C403 O388 1.264 . S
C404 C407 1.382 . S
C404 C408 1.390 . S
C404 C411 1.506 . S
C405 C406 1.398 . S
C405 C408 1.392 . S
C406 C405 1.398 . S
C406 C409 1.372 . S
C406 H416 0.931 . S
C407 C404 1.382 . S
C407 C409 1.390 . S
C407 H417 0.931 . S
C408 C404 1.390 . S
C408 C405 1.392 . S
C408 H418 0.930 . S
C409 C406 1.372 . S
C409 C407 1.390 . S
C409 H419 0.929 . S
C410 O390 1.255 . S
C410 O391 1.257 . S
C411 Eu347 2.787 . S
C411 O386 1.252 . S
C411 O389 1.268 . S
C411 C404 1.506 . S
H412 C395 0.931 . S
H413 C396 0.931 . S
H414 C397 0.929 . S
H415 C398 0.930 . S
H416 C406 0.931 . S
H417 C407 0.931 . S
H418 C408 0.930 . S
H419 C409 0.929 . S
Eu420 N449 2.600 . S
Eu420 N455 2.562 . S
Eu420 O464 2.462 . S
Eu420 O465 2.373 . S
Eu420 O467 2.432 . S
Eu420 O468 2.291 . S
Eu420 O472 2.335 . S
Eu420 O475 2.372 . S
Eu420 C484 2.787 . S
C421 N422 1.365 . S
C421 C424 1.405 . S
C421 C428 1.448 . S
N422 C421 1.365 . S
N422 C425 1.319 . S
N422 Eu431 2.600 . S
C423 C425 1.397 . S
C423 C426 1.367 . S
C423 H443 0.931 . S
C424 C421 1.405 . S
C424 C426 1.403 . S
C424 C430 1.439 . S
C425 N422 1.319 . S
C425 C423 1.397 . S
C425 H436 0.930 . S
C426 C423 1.367 . S
C426 C424 1.403 . S
C426 H447 0.929 . S
C427 C428 1.430 . S
C427 C429 1.387 . S
C427 C433 1.404 . S
C428 C421 1.448 . S
C428 C427 1.430 . S
C428 N432 1.351 . S
C429 C427 1.387 . S
C429 C430 1.374 . S
C429 H444 0.931 . S
C430 C424 1.439 . S
C430 C429 1.374 . S
C430 H445 0.931 . S
Eu431 N422 2.600 . S
Eu431 N432 2.562 . S
Eu431 O466 2.335 . S
Eu431 O469 2.372 . S
Eu431 O470 2.462 . S
Eu431 O471 2.373 . S
Eu431 O473 2.432 . S
Eu431 O474 2.291 . S
Eu431 C495 2.787 . S
N432 C428 1.351 . S
N432 Eu431 2.562 . S
N432 C434 1.325 . S
C433 C427 1.404 . S
C433 C435 1.366 . S
C433 H441 0.930 . S
C434 N432 1.325 . S
C434 C435 1.416 . S
C434 H440 0.929 . S
C435 C433 1.366 . S
C435 C434 1.416 . S
C435 H437 0.930 . S
H436 C425 0.930 . S
H437 C435 0.930 . S
H438 C453 0.930 . S
H439 C460 0.930 . S
H440 C434 0.929 . S
H441 C433 0.930 . S
H442 C456 0.929 . S
H443 C423 0.931 . S
H444 C429 0.931 . S
H445 C430 0.931 . S
H446 C451 0.931 . S
H447 C426 0.929 . S
H448 C459 0.930 . S
N449 Eu420 2.600 . S
N449 C450 1.365 . S
N449 C453 1.319 . S
C450 N449 1.365 . S
C450 C452 1.405 . S
C450 C458 1.448 . S
C451 H446 0.931 . S
C451 C453 1.397 . S
C451 C454 1.367 . S
C452 C450 1.405 . S
C452 C454 1.403 . S
C452 C485 1.439 . S
C453 H438 0.930 . S
C453 N449 1.319 . S
C453 C451 1.397 . S
C454 C451 1.367 . S
C454 C452 1.403 . S
C454 H461 0.929 . S
N455 Eu420 2.562 . S
N455 C456 1.325 . S
N455 C458 1.351 . S
C456 H442 0.929 . S
C456 N455 1.325 . S
C456 C460 1.416 . S
C457 C458 1.430 . S
C457 C459 1.404 . S
C457 C486 1.387 . S
C458 C450 1.448 . S
C458 N455 1.351 . S
C458 C457 1.430 . S
C459 H448 0.930 . S
C459 C457 1.404 . S
C459 C460 1.366 . S
C460 H439 0.930 . S
C460 C456 1.416 . S
C460 C459 1.366 . S
H461 C454 0.929 . S
H462 C485 0.931 . S
H463 C486 0.931 . S
O464 Eu420 2.462 . S
O464 C484 1.252 . S
O465 Eu420 2.373 . S
O465 C476 1.249 . S
O466 Eu431 2.335 . S
O466 C476 1.264 . S
O467 Eu420 2.432 . S
O467 C484 1.268 . S
O468 Eu420 2.291 . S
O468 C483 1.255 . S
O469 Eu431 2.372 . S
O469 C483 1.257 . S
O470 Eu431 2.462 . S
O470 C495 1.252 . S
O471 Eu431 2.373 . S
O471 C487 1.249 . S
O472 Eu420 2.335 . S
O472 C487 1.264 . S
O473 Eu431 2.432 . S
O473 C495 1.268 . S
O474 Eu431 2.291 . S
O474 C494 1.255 . S
O475 Eu420 2.372 . S
O475 C494 1.257 . S
C476 O465 1.249 . S
C476 O466 1.264 . S
C477 C480 1.382 . S
C477 C482 1.390 . S
C477 C484 1.506 . S
C478 C479 1.398 . S
C478 C482 1.392 . S
C479 C478 1.398 . S
C479 C481 1.372 . S
C479 H496 0.931 . S
C480 C477 1.382 . S
C480 C481 1.390 . S
C480 H497 0.931 . S
C481 C479 1.372 . S
C481 C480 1.390 . S
C481 H498 0.929 . S
C482 C477 1.390 . S
C482 C478 1.392 . S
C482 H499 0.930 . S
C483 O468 1.255 . S
C483 O469 1.257 . S
C484 Eu420 2.787 . S
C484 O464 1.252 . S
C484 O467 1.268 . S
C484 C477 1.506 . S
C485 C452 1.439 . S
C485 H462 0.931 . S
C485 C486 1.374 . S
C486 C457 1.387 . S
C486 H463 0.931 . S
C486 C485 1.374 . S
C487 O471 1.249 . S
C487 O472 1.264 . S
C488 C491 1.382 . S
C488 C492 1.390 . S
C488 C495 1.506 . S
C489 C490 1.398 . S
C489 C492 1.392 . S
C490 C489 1.398 . S
C490 C493 1.372 . S
C490 H500 0.931 . S
C491 C488 1.382 . S
C491 C493 1.390 . S
C491 H501 0.931 . S
C492 C488 1.390 . S
C492 C489 1.392 . S
C492 H502 0.930 . S
C493 C490 1.372 . S
C493 C491 1.390 . S
C493 H503 0.929 . S
C494 O474 1.255 . S
C494 O475 1.257 . S
C495 Eu431 2.787 . S
C495 O470 1.252 . S
C495 O473 1.268 . S
C495 C488 1.506 . S
H496 C479 0.931 . S
H497 C480 0.931 . S
H498 C481 0.929 . S
H499 C482 0.930 . S
H500 C490 0.931 . S
H501 C491 0.931 . S
H502 C492 0.930 . S
H503 C493 0.929 . S
Eu504 N533 2.600 . S
Eu504 N539 2.562 . S
Eu504 O548 2.462 . S
Eu504 O549 2.373 . S
Eu504 O551 2.432 . S
Eu504 O552 2.291 . S
Eu504 O556 2.335 . S
Eu504 O559 2.372 . S
Eu504 C568 2.787 . S
C505 N506 1.365 . S
C505 C508 1.405 . S
C505 C512 1.448 . S
N506 C505 1.365 . S
N506 C509 1.319 . S
N506 Eu515 2.600 . S
C507 C509 1.397 . S
C507 C510 1.367 . S
C507 H527 0.931 . S
C508 C505 1.405 . S
C508 C510 1.403 . S
C508 C514 1.439 . S
C509 N506 1.319 . S
C509 C507 1.397 . S
C509 H520 0.930 . S
C510 C507 1.367 . S
C510 C508 1.403 . S
C510 H531 0.929 . S
C511 C512 1.430 . S
C511 C513 1.387 . S
C511 C517 1.404 . S
C512 C505 1.448 . S
C512 C511 1.430 . S
C512 N516 1.351 . S
C513 C511 1.387 . S
C513 C514 1.374 . S
C513 H528 0.931 . S
C514 C508 1.439 . S
C514 C513 1.374 . S
C514 H529 0.931 . S
Eu515 N506 2.600 . S
Eu515 N516 2.562 . S
Eu515 O550 2.335 . S
Eu515 O553 2.372 . S
Eu515 O554 2.462 . S
Eu515 O555 2.373 . S
Eu515 O557 2.432 . S
Eu515 O558 2.291 . S
Eu515 C579 2.787 . S
N516 C512 1.351 . S
N516 Eu515 2.562 . S
N516 C518 1.325 . S
C517 C511 1.404 . S
C517 C519 1.366 . S
C517 H525 0.930 . S
C518 N516 1.325 . S
C518 C519 1.416 . S
C518 H524 0.929 . S
C519 C517 1.366 . S
C519 C518 1.416 . S
C519 H521 0.930 . S
H520 C509 0.930 . S
H521 C519 0.930 . S
H522 C537 0.930 . S
H523 C544 0.930 . S
H524 C518 0.929 . S
H525 C517 0.930 . S
H526 C540 0.929 . S
H527 C507 0.931 . S
H528 C513 0.931 . S
H529 C514 0.931 . S
H530 C535 0.931 . S
H531 C510 0.929 . S
H532 C543 0.930 . S
N533 Eu504 2.600 . S
N533 C534 1.365 . S
N533 C537 1.319 . S
C534 N533 1.365 . S
C534 C536 1.405 . S
C534 C542 1.448 . S
C535 H530 0.931 . S
C535 C537 1.397 . S
C535 C538 1.367 . S
C536 C534 1.405 . S
C536 C538 1.403 . S
C536 C569 1.439 . S
C537 H522 0.930 . S
C537 N533 1.319 . S
C537 C535 1.397 . S
C538 C535 1.367 . S
C538 C536 1.403 . S
C538 H545 0.929 . S
N539 Eu504 2.562 . S
N539 C540 1.325 . S
N539 C542 1.351 . S
C540 H526 0.929 . S
C540 N539 1.325 . S
C540 C544 1.416 . S
C541 C542 1.430 . S
C541 C543 1.404 . S
C541 C570 1.387 . S
C542 C534 1.448 . S
C542 N539 1.351 . S
C542 C541 1.430 . S
C543 H532 0.930 . S
C543 C541 1.404 . S
C543 C544 1.366 . S
C544 H523 0.930 . S
C544 C540 1.416 . S
C544 C543 1.366 . S
H545 C538 0.929 . S
H546 C569 0.931 . S
H547 C570 0.931 . S
O548 Eu504 2.462 . S
O548 C568 1.252 . S
O549 Eu504 2.373 . S
O549 C560 1.249 . S
O550 Eu515 2.335 . S
O550 C560 1.264 . S
O551 Eu504 2.432 . S
O551 C568 1.268 . S
O552 Eu504 2.291 . S
O552 C567 1.255 . S
O553 Eu515 2.372 . S
O553 C567 1.257 . S
O554 Eu515 2.462 . S
O554 C579 1.252 . S
O555 Eu515 2.373 . S
O555 C571 1.249 . S
O556 Eu504 2.335 . S
O556 C571 1.264 . S
O557 Eu515 2.432 . S
O557 C579 1.268 . S
O558 Eu515 2.291 . S
O558 C578 1.255 . S
O559 Eu504 2.372 . S
O559 C578 1.257 . S
C560 O549 1.249 . S
C560 O550 1.264 . S
C561 C564 1.382 . S
C561 C566 1.390 . S
C561 C568 1.506 . S
C562 C563 1.398 . S
C562 C566 1.392 . S
C563 C562 1.398 . S
C563 C565 1.372 . S
C563 H580 0.931 . S
C564 C561 1.382 . S
C564 C565 1.390 . S
C564 H581 0.931 . S
C565 C563 1.372 . S
C565 C564 1.390 . S
C565 H582 0.929 . S
C566 C561 1.390 . S
C566 C562 1.392 . S
C566 H583 0.930 . S
C567 O552 1.255 . S
C567 O553 1.257 . S
C568 Eu504 2.787 . S
C568 O548 1.252 . S
C568 O551 1.268 . S
C568 C561 1.506 . S
C569 C536 1.439 . S
C569 H546 0.931 . S
C569 C570 1.374 . S
C570 C541 1.387 . S
C570 H547 0.931 . S
C570 C569 1.374 . S
C571 O555 1.249 . S
C571 O556 1.264 . S
C572 C575 1.382 . S
C572 C576 1.390 . S
C572 C579 1.506 . S
C573 C574 1.398 . S
C573 C576 1.392 . S
C574 C573 1.398 . S
C574 C577 1.372 . S
C574 H584 0.931 . S
C575 C572 1.382 . S
C575 C577 1.390 . S
C575 H585 0.931 . S
C576 C572 1.390 . S
C576 C573 1.392 . S
C576 H586 0.930 . S
C577 C574 1.372 . S
C577 C575 1.390 . S
C577 H587 0.929 . S
C578 O558 1.255 . S
C578 O559 1.257 . S
C579 Eu515 2.787 . S
C579 O554 1.252 . S
C579 O557 1.268 . S
C579 C572 1.506 . S
H580 C563 0.931 . S
H581 C564 0.931 . S
H582 C565 0.929 . S
H583 C566 0.930 . S
H584 C574 0.931 . S
H585 C575 0.931 . S
H586 C576 0.930 . S
H587 C577 0.929 . S
Eu588 N617 2.600 . S
Eu588 N623 2.562 . S
Eu588 O632 2.462 . S
Eu588 O633 2.373 . S
Eu588 O635 2.432 . S
Eu588 O636 2.291 . S
Eu588 O640 2.335 . S
Eu588 O643 2.372 . S
Eu588 C652 2.787 . S
C589 N590 1.365 . S
C589 C592 1.405 . S
C589 C596 1.448 . S
N590 C589 1.365 . S
N590 C593 1.319 . S
N590 Eu599 2.600 . S
C591 C593 1.397 . S
C591 C594 1.367 . S
C591 H611 0.931 . S
C592 C589 1.405 . S
C592 C594 1.403 . S
C592 C598 1.439 . S
C593 N590 1.319 . S
C593 C591 1.397 . S
C593 H604 0.930 . S
C594 C591 1.367 . S
C594 C592 1.403 . S
C594 H615 0.929 . S
C595 C596 1.430 . S
C595 C597 1.387 . S
C595 C601 1.404 . S
C596 C589 1.448 . S
C596 C595 1.430 . S
C596 N600 1.351 . S
C597 C595 1.387 . S
C597 C598 1.374 . S
C597 H612 0.931 . S
C598 C592 1.439 . S
C598 C597 1.374 . S
C598 H613 0.931 . S
Eu599 N590 2.600 . S
Eu599 N600 2.562 . S
Eu599 O634 2.335 . S
Eu599 O637 2.372 . S
Eu599 O638 2.462 . S
Eu599 O639 2.373 . S
Eu599 O641 2.432 . S
Eu599 O642 2.291 . S
Eu599 C663 2.787 . S
N600 C596 1.351 . S
N600 Eu599 2.562 . S
N600 C602 1.325 . S
C601 C595 1.404 . S
C601 C603 1.366 . S
C601 H609 0.930 . S
C602 N600 1.325 . S
C602 C603 1.416 . S
C602 H608 0.929 . S
C603 C601 1.366 . S
C603 C602 1.416 . S
C603 H605 0.930 . S
H604 C593 0.930 . S
H605 C603 0.930 . S
H606 C621 0.930 . S
H607 C628 0.930 . S
H608 C602 0.929 . S
H609 C601 0.930 . S
H610 C624 0.929 . S
H611 C591 0.931 . S
H612 C597 0.931 . S
H613 C598 0.931 . S
H614 C619 0.931 . S
H615 C594 0.929 . S
H616 C627 0.930 . S
N617 Eu588 2.600 . S
N617 C618 1.365 . S
N617 C621 1.319 . S
C618 N617 1.365 . S
C618 C620 1.405 . S
C618 C626 1.448 . S
C619 H614 0.931 . S
C619 C621 1.397 . S
C619 C622 1.367 . S
C620 C618 1.405 . S
C620 C622 1.403 . S
C620 C653 1.439 . S
C621 H606 0.930 . S
C621 N617 1.319 . S
C621 C619 1.397 . S
C622 C619 1.367 . S
C622 C620 1.403 . S
C622 H629 0.929 . S
N623 Eu588 2.562 . S
N623 C624 1.325 . S
N623 C626 1.351 . S
C624 H610 0.929 . S
C624 N623 1.325 . S
C624 C628 1.416 . S
C625 C626 1.430 . S
C625 C627 1.404 . S
C625 C654 1.387 . S
C626 C618 1.448 . S
C626 N623 1.351 . S
C626 C625 1.430 . S
C627 H616 0.930 . S
C627 C625 1.404 . S
C627 C628 1.366 . S
C628 H607 0.930 . S
C628 C624 1.416 . S
C628 C627 1.366 . S
H629 C622 0.929 . S
H630 C653 0.931 . S
H631 C654 0.931 . S
O632 Eu588 2.462 . S
O632 C652 1.252 . S
O633 Eu588 2.373 . S
O633 C644 1.249 . S
O634 Eu599 2.335 . S
O634 C644 1.264 . S
O635 Eu588 2.432 . S
O635 C652 1.268 . S
O636 Eu588 2.291 . S
O636 C651 1.255 . S
O637 Eu599 2.372 . S
O637 C651 1.257 . S
O638 Eu599 2.462 . S
O638 C663 1.252 . S
O639 Eu599 2.373 . S
O639 C655 1.249 . S
O640 Eu588 2.335 . S
O640 C655 1.264 . S
O641 Eu599 2.432 . S
O641 C663 1.268 . S
O642 Eu599 2.291 . S
O642 C662 1.255 . S
O643 Eu588 2.372 . S
O643 C662 1.257 . S
C644 O633 1.249 . S
C644 O634 1.264 . S
C645 C648 1.382 . S
C645 C650 1.390 . S
C645 C652 1.506 . S
C646 C647 1.398 . S
C646 C650 1.392 . S
C647 C646 1.398 . S
C647 C649 1.372 . S
C647 H664 0.931 . S
C648 C645 1.382 . S
C648 C649 1.390 . S
C648 H665 0.931 . S
C649 C647 1.372 . S
C649 C648 1.390 . S
C649 H666 0.929 . S
C650 C645 1.390 . S
C650 C646 1.392 . S
C650 H667 0.930 . S
C651 O636 1.255 . S
C651 O637 1.257 . S
C652 Eu588 2.787 . S
C652 O632 1.252 . S
C652 O635 1.268 . S
C652 C645 1.506 . S
C653 C620 1.439 . S
C653 H630 0.931 . S
C653 C654 1.374 . S
C654 C625 1.387 . S
C654 H631 0.931 . S
C654 C653 1.374 . S
C655 O639 1.249 . S
C655 O640 1.264 . S
C656 C659 1.382 . S
C656 C660 1.390 . S
C656 C663 1.506 . S
C657 C658 1.398 . S
C657 C660 1.392 . S
C658 C657 1.398 . S
C658 C661 1.372 . S
C658 H668 0.931 . S
C659 C656 1.382 . S
C659 C661 1.390 . S
C659 H669 0.931 . S
C660 C656 1.390 . S
C660 C657 1.392 . S
C660 H670 0.930 . S
C661 C658 1.372 . S
C661 C659 1.390 . S
C661 H671 0.929 . S
C662 O642 1.255 . S
C662 O643 1.257 . S
C663 Eu599 2.787 . S
C663 O638 1.252 . S
C663 O641 1.268 . S
C663 C656 1.506 . S
H664 C647 0.931 . S
H665 C648 0.931 . S
H666 C649 0.929 . S
H667 C650 0.930 . S
H668 C658 0.931 . S
H669 C659 0.931 . S
H670 C660 0.930 . S
H671 C661 0.929 . S
Co672 O675 2.042 . S
Co672 O682 2.264 . S
Co672 O701 2.286 . S
Co672 O702 2.069 . S
Co672 O704 2.015 1_455 S
Co673 O675 2.122 . S
Co673 O681 2.073 . S
Co673 O682 2.327 . S
Co673 O683 1.976 1_455 S
Co674 O675 2.084 1_545 S
Co674 O677 2.090 1_455 S
Co674 O684 2.105 1_445 S
Co674 O685 2.151 . S
Co674 O689 2.118 . S
Co674 O703 2.136 1_445 S
O675 Co672 2.042 . S
O675 Co673 2.122 . S
O675 Co674 2.084 1_565 S
O675 H676 0.980 . S
H676 O675 0.980 . S
O677 Co674 2.090 1_655 S
O677 Co678 2.042 . S
O677 Co679 2.122 . S
O677 H680 0.980 . S
Co678 O677 2.042 . S
Co678 O686 2.286 . S
Co678 O687 2.069 . S
Co678 O688 2.015 1_655 S
Co678 O691 2.264 . S
Co679 O677 2.122 . S
Co679 O690 1.976 1_655 S
Co679 O691 2.327 . S
Co679 O692 2.073 . S
H680 O677 0.980 . S
O681 Co673 2.073 . S
O681 C696 1.245 . S
O682 Co672 2.264 . S
O682 Co673 2.327 . S
O682 C696 1.257 . S
O683 Co673 1.976 1_655 S
O683 C695 1.251 . S
O684 Co674 2.105 1_665 S
O684 C695 1.274 . S
O685 Co674 2.151 . S
O685 C698 1.246 . S
O686 Co678 2.286 . S
O686 C697 1.259 . S
O687 Co678 2.069 . S
O687 C697 1.289 . S
O688 Co678 2.015 1_455 S
O688 C698 1.257 . S
O689 Co674 2.118 . S
O689 C699 1.274 . S
O690 Co679 1.976 1_455 S
O690 C699 1.251 . S
O691 Co678 2.264 . S
O691 Co679 2.327 . S
O691 C700 1.257 . S
O692 Co679 2.073 . S
O692 C700 1.245 . S
C693 O701 1.259 . S
C693 O702 1.289 . S
C694 O703 1.246 . S
C694 O704 1.257 . S
C695 O683 1.251 . S
C695 O684 1.274 . S
C696 O681 1.245 . S
C696 O682 1.257 . S
C697 O686 1.259 . S
C697 O687 1.289 . S
C698 O685 1.246 . S
C698 O688 1.257 . S
C699 O689 1.274 . S
C699 O690 1.251 . S
C700 O691 1.257 . S
C700 O692 1.245 . S
O701 Co672 2.286 . S
O701 C693 1.259 . S
O702 Co672 2.069 . S
O702 C693 1.289 . S
O703 Co674 2.136 1_665 S
O703 C694 1.246 . S
O704 Co672 2.015 1_655 S
O704 C694 1.257 . S
Co705 O708 2.042 1_556 S
Co705 O715 2.264 1_556 S
Co705 O734 2.286 . S
Co705 O735 2.069 . S
Co705 O737 2.015 . S
Co706 O708 2.122 . S
Co706 O714 2.073 . S
Co706 O715 2.327 . S
Co706 O716 1.976 . S
Co707 O708 2.078 1_545 S
Co707 O710 2.096 1_554 S
Co707 O717 2.108 1_545 S
Co707 O718 2.149 . S
Co707 O722 2.114 1_554 S
Co707 O736 2.138 1_544 S
O708 Co705 2.042 1_554 S
O708 Co706 2.122 . S
O708 Co707 2.078 1_565 S
O708 H709 0.980 . S
H709 O708 0.980 . S
O710 Co707 2.096 1_556 S
O710 Co711 2.042 1_556 S
O710 Co712 2.122 . S
O710 H713 0.980 . S
Co711 O710 2.042 1_554 S
Co711 O719 2.286 . S
Co711 O720 2.069 . S
Co711 O721 2.015 . S
Co711 O724 2.264 1_554 S
Co712 O710 2.122 . S
Co712 O723 1.976 . S
Co712 O724 2.327 . S
Co712 O725 2.073 . S
H713 O710 0.980 . S
O714 Co706 2.073 . S
O714 C729 1.245 . S
O715 Co705 2.264 1_554 S
O715 Co706 2.327 . S
O715 C729 1.257 . S
O716 Co706 1.976 . S
O716 C728 1.251 . S
O717 Co707 2.108 1_565 S
O717 C728 1.274 . S
O718 Co707 2.149 . S
O718 C731 1.246 . S
O719 Co711 2.286 . S
O719 C730 1.259 . S
O720 Co711 2.069 . S
O720 C730 1.289 . S
O721 Co711 2.015 . S
O721 C731 1.257 . S
O722 Co707 2.114 1_556 S
O722 C732 1.274 . S
O723 Co712 1.976 . S
O723 C732 1.251 . S
O724 Co711 2.264 1_556 S
O724 Co712 2.327 . S
O724 C733 1.257 . S
O725 Co712 2.073 . S
O725 C733 1.245 . S
C726 O734 1.259 . S
C726 O735 1.289 . S
C727 O736 1.246 . S
C727 O737 1.257 . S
C728 O716 1.251 . S
C728 O717 1.274 . S
C729 O714 1.245 . S
C729 O715 1.257 . S
C730 O719 1.259 . S
C730 O720 1.289 . S
C731 O718 1.246 . S
C731 O721 1.257 . S
C732 O722 1.274 . S
C732 O723 1.251 . S
C733 O724 1.257 . S
C733 O725 1.245 . S
O734 Co705 2.286 . S
O734 C726 1.259 . S
O735 Co705 2.069 . S
O735 C726 1.289 . S
O736 Co707 2.138 1_566 S
O736 C727 1.246 . S
O737 Co705 2.015 . S
O737 C727 1.257 . S
Co738 O741 2.042 1_556 S
Co738 O748 2.264 1_556 S
Co738 O767 2.286 . S
Co738 O768 2.069 . S
Co738 O770 2.015 1_455 S
Co739 O741 2.122 . S
Co739 O747 2.073 . S
Co739 O748 2.327 . S
Co739 O749 1.976 1_455 S
Co740 O741 2.093 . S
Co740 O743 2.081 1_454 S
Co740 O750 2.108 1_455 S
Co740 O751 2.146 . S
Co740 O755 2.115 1_554 S
Co740 O769 2.141 1_454 S
O741 Co738 2.042 1_554 S
O741 Co739 2.122 . S
O741 Co740 2.093 . S
O741 H742 0.980 . S
H742 O741 0.980 . S
O743 Co740 2.081 1_656 S
O743 Co744 2.042 1_556 S
O743 Co745 2.122 . S
O743 H746 0.980 . S
Co744 O743 2.042 1_554 S
Co744 O752 2.286 . S
Co744 O753 2.069 . S
Co744 O754 2.015 1_655 S
Co744 O757 2.264 1_554 S
Co745 O743 2.122 . S
Co745 O756 1.976 1_655 S
Co745 O757 2.327 . S
Co745 O758 2.073 . S
H746 O743 0.980 . S
O747 Co739 2.073 . S
O747 C762 1.245 . S
O748 Co738 2.264 1_554 S
O748 Co739 2.327 . S
O748 C762 1.257 . S
O749 Co739 1.976 1_655 S
O749 C761 1.251 . S
O750 Co740 2.108 1_655 S
O750 C761 1.274 . S
O751 Co740 2.146 . S
O751 C764 1.246 . S
O752 Co744 2.286 . S
O752 C763 1.259 . S
O753 Co744 2.069 . S
O753 C763 1.289 . S
O754 Co744 2.015 1_455 S
O754 C764 1.257 . S
O755 Co740 2.115 1_556 S
O755 C765 1.274 . S
O756 Co745 1.976 1_455 S
O756 C765 1.251 . S
O757 Co744 2.264 1_556 S
O757 Co745 2.327 . S
O757 C766 1.257 . S
O758 Co745 2.073 . S
O758 C766 1.245 . S
C759 O767 1.259 . S
C759 O768 1.289 . S
C760 O769 1.246 . S
C760 O770 1.257 . S
C761 O749 1.251 . S
C761 O750 1.274 . S
C762 O747 1.245 . S
C762 O748 1.257 . S
C763 O752 1.259 . S
C763 O753 1.289 . S
C764 O751 1.246 . S
C764 O754 1.257 . S
C765 O755 1.274 . S
C765 O756 1.251 . S
C766 O757 1.257 . S
C766 O758 1.245 . S
O767 Co738 2.286 . S
O767 C759 1.259 . S
O768 Co738 2.069 . S
O768 C759 1.289 . S
O769 Co740 2.141 1_656 S
O769 C760 1.246 . S
O770 Co738 2.015 1_655 S
O770 C760 1.257 . S
Co771 O774 2.042 1_556 S
Co771 O781 2.264 1_556 S
Co771 O800 2.286 . S
Co771 O801 2.069 . S
Co771 O803 2.015 . S
Co772 O774 2.122 . S
Co772 O780 2.073 . S
Co772 O781 2.327 . S
Co772 O782 1.976 . S
Co773 O774 2.087 . S
Co773 O776 2.087 1_554 S
Co773 O783 2.111 . S
Co773 O784 2.143 . S
Co773 O788 2.111 1_554 S
Co773 O802 2.143 1_554 S
O774 Co771 2.042 1_554 S
O774 Co772 2.122 . S
O774 Co773 2.087 . S
O774 H775 0.980 . S
H775 O774 0.980 . S
O776 Co773 2.087 1_556 S
O776 Co777 2.042 1_556 S
O776 Co778 2.122 . S
O776 H779 0.980 . S
Co777 O776 2.042 1_554 S
Co777 O785 2.286 . S
Co777 O786 2.069 . S
Co777 O787 2.015 . S
Co777 O790 2.264 1_554 S
Co778 O776 2.122 . S
Co778 O789 1.976 . S
Co778 O790 2.327 . S
Co778 O791 2.073 . S
H779 O776 0.980 . S
O780 Co772 2.073 . S
O780 C795 1.245 . S
O781 Co771 2.264 1_554 S
O781 Co772 2.327 . S
O781 C795 1.257 . S
O782 Co772 1.976 . S
O782 C794 1.251 . S
O783 Co773 2.111 . S
O783 C794 1.274 . S
O784 Co773 2.143 . S
O784 C797 1.246 . S
O785 Co777 2.286 . S
O785 C796 1.259 . S
O786 Co777 2.069 . S
O786 C796 1.289 . S
O787 Co777 2.015 . S
O787 C797 1.257 . S
O788 Co773 2.111 1_556 S
O788 C798 1.274 . S
O789 Co778 1.976 . S
O789 C798 1.251 . S
O790 Co777 2.264 1_556 S
O790 Co778 2.327 . S
O790 C799 1.257 . S
O791 Co778 2.073 . S
O791 C799 1.245 . S
C792 O800 1.259 . S
C792 O801 1.289 . S
C793 O802 1.246 . S
C793 O803 1.257 . S
C794 O782 1.251 . S
C794 O783 1.274 . S
C795 O780 1.245 . S
C795 O781 1.257 . S
C796 O785 1.259 . S
C796 O786 1.289 . S
C797 O784 1.246 . S
C797 O787 1.257 . S
C798 O788 1.274 . S
C798 O789 1.251 . S
C799 O790 1.257 . S
C799 O791 1.245 . S
O800 Co771 2.286 . S
O800 C792 1.259 . S
O801 Co771 2.069 . S
O801 C792 1.289 . S
O802 Co773 2.143 1_556 S
O802 C793 1.246 . S
O803 Co771 2.015 . S
O803 C793 1.257 . S
Co804 O807 2.042 . S
Co804 O814 2.264 . S
Co804 O833 2.286 . S
Co804 O834 2.069 . S
Co804 O836 2.015 . S
Co805 O807 2.122 . S
Co805 O813 2.073 . S
Co805 O814 2.327 . S
Co805 O815 1.976 . S
Co806 O807 2.093 . S
Co806 O809 2.081 1_455 S
Co806 O816 2.113 . S
Co806 O817 2.140 1_455 S
Co806 O821 2.110 1_455 S
Co806 O835 2.147 . S
O807 Co804 2.042 . S
O807 Co805 2.122 . S
O807 Co806 2.093 . S
O807 H808 0.980 . S
H808 O807 0.980 . S
O809 Co806 2.081 1_655 S
O809 Co810 2.042 . S
O809 Co811 2.122 . S
O809 H812 0.980 . S
Co810 O809 2.042 . S
Co810 O818 2.286 . S
Co810 O819 2.069 . S
Co810 O820 2.015 . S
Co810 O823 2.264 . S
Co811 O809 2.122 . S
Co811 O822 1.976 . S
Co811 O823 2.327 . S
Co811 O824 2.073 . S
H812 O809 0.980 . S
O813 Co805 2.073 . S
O813 C828 1.245 . S
O814 Co804 2.264 . S
O814 Co805 2.327 . S
O814 C828 1.257 . S
O815 Co805 1.976 . S
O815 C827 1.251 . S
O816 Co806 2.113 . S
O816 C827 1.274 . S
O817 Co806 2.140 1_655 S
O817 C830 1.246 . S
O818 Co810 2.286 . S
O818 C829 1.259 . S
O819 Co810 2.069 . S
O819 C829 1.289 . S
O820 Co810 2.015 . S
O820 C830 1.257 . S
O821 Co806 2.110 1_655 S
O821 C831 1.274 . S
O822 Co811 1.976 . S
O822 C831 1.251 . S
O823 Co810 2.264 . S
O823 Co811 2.327 . S
O823 C832 1.257 . S
O824 Co811 2.073 . S
O824 C832 1.245 . S
C825 O833 1.259 . S
C825 O834 1.289 . S
C826 O835 1.246 . S
C826 O836 1.257 . S
C827 O815 1.251 . S
C827 O816 1.274 . S
C828 O813 1.245 . S
C828 O814 1.257 . S
C829 O818 1.259 . S
C829 O819 1.289 . S
C830 O817 1.246 . S
C830 O820 1.257 . S
C831 O821 1.274 . S
C831 O822 1.251 . S
C832 O823 1.257 . S
C832 O824 1.245 . S
O833 Co804 2.286 . S
O833 C825 1.259 . S
O834 Co804 2.069 . S
O834 C825 1.289 . S
O835 Co806 2.147 . S
O835 C826 1.246 . S
O836 Co804 2.015 . S
O836 C826 1.257 . S
Co837 O840 2.042 . S
Co837 O847 2.264 . S
Co837 O866 2.286 . S
Co837 O867 2.069 . S
Co837 O869 2.015 1_565 S
Co838 O840 2.122 . S
Co838 O846 2.073 . S
Co838 O847 2.327 . S
Co838 O848 1.976 1_565 S
Co839 O840 2.078 1_545 S
Co839 O842 2.095 . S
Co839 O849 2.117 . S
Co839 O850 2.140 1_545 S
Co839 O854 2.105 1_545 S
Co839 O868 2.147 . S
O840 Co837 2.042 . S
O840 Co838 2.122 . S
O840 Co839 2.078 1_565 S
O840 H841 0.980 . S
H841 O840 0.980 . S
O842 Co839 2.095 . S
O842 Co843 2.042 . S
O842 Co844 2.122 . S
O842 H845 0.980 . S
Co843 O842 2.042 . S
Co843 O851 2.286 . S
Co843 O852 2.069 . S
Co843 O853 2.015 1_545 S
Co843 O856 2.264 . S
Co844 O842 2.122 . S
Co844 O855 1.976 1_545 S
Co844 O856 2.327 . S
Co844 O857 2.073 . S
H845 O842 0.980 . S
O846 Co838 2.073 . S
O846 C861 1.245 . S
O847 Co837 2.264 . S
O847 Co838 2.327 . S
O847 C861 1.257 . S
O848 Co838 1.976 1_545 S
O848 C860 1.251 . S
O849 Co839 2.117 . S
O849 C860 1.274 . S
O850 Co839 2.140 1_565 S
O850 C863 1.246 . S
O851 Co843 2.286 . S
O851 C862 1.259 . S
O852 Co843 2.069 . S
O852 C862 1.289 . S
O853 Co843 2.015 1_565 S
O853 C863 1.257 . S
O854 Co839 2.105 1_565 S
O854 C864 1.274 . S
O855 Co844 1.976 1_565 S
O855 C864 1.251 . S
O856 Co843 2.264 . S
O856 Co844 2.327 . S
O856 C865 1.257 . S
O857 Co844 2.073 . S
O857 C865 1.245 . S
C858 O866 1.259 . S
C858 O867 1.289 . S
C859 O868 1.246 . S
C859 O869 1.257 . S
C860 O848 1.251 . S
C860 O849 1.274 . S
C861 O846 1.245 . S
C861 O847 1.257 . S
C862 O851 1.259 . S
C862 O852 1.289 . S
C863 O850 1.246 . S
C863 O853 1.257 . S
C864 O854 1.274 . S
C864 O855 1.251 . S
C865 O856 1.257 . S
C865 O857 1.245 . S
O866 Co837 2.286 . S
O866 C858 1.259 . S
O867 Co837 2.069 . S
O867 C858 1.289 . S
O868 Co839 2.147 . S
O868 C859 1.246 . S
O869 Co837 2.015 1_545 S
O869 C859 1.257 . S
C870 C871 1.349 . S
C870 C872 1.327 . S
C870 H895 0.950 . S
C871 C870 1.349 . S
C871 C887 1.349 . S
C872 C870 1.327 . S
C872 C891 1.429 . S
C872 H896 0.950 . S
C873 C890 1.574 . S
C873 C892 1.368 . S
C873 H897 0.949 . S
H874 C878 0.949 . S
C875 C876 1.349 . S
C875 C877 1.327 . S
C875 H898 0.950 . S
C876 C875 1.349 . S
C876 C888 1.349 . S
C877 C875 1.327 . S
C877 C893 1.429 . S
C877 H899 0.950 . S
C878 H874 0.949 . S
C878 C886 1.574 . S
C878 C894 1.368 . S
H879 C887 0.950 . S
H880 C885 0.950 . S
H881 C886 0.949 . S
H882 C888 0.950 . S
H883 C889 0.950 . S
H884 C890 0.949 . S
C885 H880 0.950 . S
C885 C887 1.327 . S
C885 C891 1.429 . S
C886 C878 1.574 . S
C886 H881 0.949 . S
C886 C892 1.368 . S
C887 C871 1.349 . S
C887 H879 0.950 . S
C887 C885 1.327 . S
C888 C876 1.349 . S
C888 H882 0.950 . S
C888 C889 1.327 . S
C889 H883 0.950 . S
C889 C888 1.327 . S
C889 C893 1.429 . S
C890 C873 1.574 . S
C890 H884 0.949 . S
C890 C894 1.368 . S
C891 C872 1.429 . S
C891 C885 1.429 . S
C891 C892 1.523 . S
C892 C873 1.368 . S
C892 C886 1.368 . S
C892 C891 1.523 . S
C893 C877 1.429 . S
C893 C889 1.429 . S
C893 C894 1.523 . S
C894 C878 1.368 . S
C894 C890 1.368 . S
C894 C893 1.523 . S
H895 C870 0.950 . S
H896 C872 0.950 . S
H897 C873 0.949 . S
H898 C875 0.950 . S
H899 C877 0.950 . S
C900 C901 1.349 . S
C900 C902 1.327 . S
C900 H925 0.950 . S
C901 C900 1.349 . S
C901 C917 1.349 . S
C902 C900 1.327 . S
C902 C921 1.429 . S
C902 H926 0.950 . S
C903 C920 1.574 . S
C903 C922 1.368 . S
C903 H927 0.949 . S
H904 C908 0.949 . S
C905 C906 1.349 . S
C905 C907 1.327 . S
C905 H928 0.950 . S
C906 C905 1.349 . S
C906 C918 1.349 . S
C907 C905 1.327 . S
C907 C923 1.429 . S
C907 H929 0.950 . S
C908 H904 0.949 . S
C908 C916 1.574 . S
C908 C924 1.368 . S
H909 C917 0.950 . S
H910 C915 0.950 . S
H911 C916 0.949 . S
H912 C918 0.950 . S
H913 C919 0.950 . S
H914 C920 0.949 . S
C915 H910 0.950 . S
C915 C917 1.327 . S
C915 C921 1.429 . S
C916 C908 1.574 . S
C916 H911 0.949 . S
C916 C922 1.368 . S
C917 C901 1.349 . S
C917 H909 0.950 . S
C917 C915 1.327 . S
C918 C906 1.349 . S
C918 H912 0.950 . S
C918 C919 1.327 . S
C919 H913 0.950 . S
C919 C918 1.327 . S
C919 C923 1.429 . S
C920 C903 1.574 . S
C920 H914 0.949 . S
C920 C924 1.368 . S
C921 C902 1.429 . S
C921 C915 1.429 . S
C921 C922 1.523 . S
C922 C903 1.368 . S
C922 C916 1.368 . S
C922 C921 1.523 . S
C923 C907 1.429 . S
C923 C919 1.429 . S
C923 C924 1.523 . S
C924 C908 1.368 . S
C924 C920 1.368 . S
C924 C923 1.523 . S
H925 C900 0.950 . S
H926 C902 0.950 . S
H927 C903 0.949 . S
H928 C905 0.950 . S
H929 C907 0.950 . S
C930 C931 1.349 . S
C930 C932 1.327 . S
C930 H955 0.950 . S
C931 C930 1.349 . S
C931 C947 1.349 . S
C932 C930 1.327 . S
C932 C951 1.429 . S
C932 H956 0.950 . S
C933 C950 1.574 . S
C933 C952 1.368 . S
C933 H957 0.949 . S
H934 C938 0.949 . S
C935 C936 1.349 . S
C935 C937 1.327 . S
C935 H958 0.950 . S
C936 C935 1.349 . S
C936 C948 1.349 . S
C937 C935 1.327 . S
C937 C953 1.429 . S
C937 H959 0.950 . S
C938 H934 0.949 . S
C938 C946 1.574 . S
C938 C954 1.368 . S
H939 C947 0.950 . S
H940 C945 0.950 . S
H941 C946 0.949 . S
H942 C948 0.950 . S
H943 C949 0.950 . S
H944 C950 0.949 . S
C945 H940 0.950 . S
C945 C947 1.327 . S
C945 C951 1.429 . S
C946 C938 1.574 . S
C946 H941 0.949 . S
C946 C952 1.368 . S
C947 C931 1.349 . S
C947 H939 0.950 . S
C947 C945 1.327 . S
C948 C936 1.349 . S
C948 H942 0.950 . S
C948 C949 1.327 . S
C949 H943 0.950 . S
C949 C948 1.327 . S
C949 C953 1.429 . S
C950 C933 1.574 . S
C950 H944 0.949 . S
C950 C954 1.368 . S
C951 C932 1.429 . S
C951 C945 1.429 . S
C951 C952 1.523 . S
C952 C933 1.368 . S
C952 C946 1.368 . S
C952 C951 1.523 . S
C953 C937 1.429 . S
C953 C949 1.429 . S
C953 C954 1.523 . S
C954 C938 1.368 . S
C954 C950 1.368 . S
C954 C953 1.523 . S
H955 C930 0.950 . S
H956 C932 0.950 . S
H957 C933 0.949 . S
H958 C935 0.950 . S
H959 C937 0.950 . S
C960 C961 1.349 . S
C960 C962 1.327 . S
C960 H985 0.950 . S
C961 C960 1.349 . S
C961 C977 1.349 . S
C962 C960 1.327 . S
C962 C981 1.429 . S
C962 H986 0.950 . S
C963 C980 1.574 . S
C963 C982 1.368 . S
C963 H987 0.949 . S
H964 C968 0.949 . S
C965 C966 1.349 . S
C965 C967 1.327 . S
C965 H988 0.950 . S
C966 C965 1.349 . S
C966 C978 1.349 . S
C967 C965 1.327 . S
C967 C983 1.429 . S
C967 H989 0.950 . S
C968 H964 0.949 . S
C968 C976 1.574 . S
C968 C984 1.368 . S
H969 C977 0.950 . S
H970 C975 0.950 . S
H971 C976 0.949 . S
H972 C978 0.950 . S
H973 C979 0.950 . S
H974 C980 0.949 . S
C975 H970 0.950 . S
C975 C977 1.327 . S
C975 C981 1.429 . S
C976 C968 1.574 . S
C976 H971 0.949 . S
C976 C982 1.368 . S
C977 C961 1.349 . S
C977 H969 0.950 . S
C977 C975 1.327 . S
C978 C966 1.349 . S
C978 H972 0.950 . S
C978 C979 1.327 . S
C979 H973 0.950 . S
C979 C978 1.327 . S
C979 C983 1.429 . S
C980 C963 1.574 . S
C980 H974 0.949 . S
C980 C984 1.368 . S
C981 C962 1.429 . S
C981 C975 1.429 . S
C981 C982 1.523 . S
C982 C963 1.368 . S
C982 C976 1.368 . S
C982 C981 1.523 . S
C983 C967 1.429 . S
C983 C979 1.429 . S
C983 C984 1.523 . S
C984 C968 1.368 . S
C984 C980 1.368 . S
C984 C983 1.523 . S
H985 C960 0.950 . S
H986 C962 0.950 . S
H987 C963 0.949 . S
H988 C965 0.950 . S
H989 C967 0.950 . S
C990 C991 1.349 . S
C990 C992 1.327 . S
C990 H1015 0.950 . S
C991 C990 1.349 . S
C991 C1007 1.349 . S
C992 C990 1.327 . S
C992 C1011 1.429 . S
C992 H1016 0.950 . S
C993 C1010 1.574 . S
C993 C1012 1.368 . S
C993 H1017 0.949 . S
H994 C998 0.949 . S
C995 C996 1.349 . S
C995 C997 1.327 . S
C995 H1018 0.950 . S
C996 C995 1.349 . S
C996 C1008 1.349 . S
C997 C995 1.327 . S
C997 C1013 1.429 . S
C997 H1019 0.950 . S
C998 H994 0.949 . S
C998 C1006 1.574 . S
C998 C1014 1.368 . S
H999 C1007 0.950 . S
H1000 C1005 0.950 . S
H1001 C1006 0.949 . S
H1002 C1008 0.950 . S
H1003 C1009 0.950 . S
H1004 C1010 0.949 . S
C1005 H1000 0.950 . S
C1005 C1007 1.327 . S
C1005 C1011 1.429 . S
C1006 C998 1.574 . S
C1006 H1001 0.949 . S
C1006 C1012 1.368 . S
C1007 C991 1.349 . S
C1007 H999 0.950 . S
C1007 C1005 1.327 . S
C1008 C996 1.349 . S
C1008 H1002 0.950 . S
C1008 C1009 1.327 . S
C1009 H1003 0.950 . S
C1009 C1008 1.327 . S
C1009 C1013 1.429 . S
C1010 C993 1.574 . S
C1010 H1004 0.949 . S
C1010 C1014 1.368 . S
C1011 C992 1.429 . S
C1011 C1005 1.429 . S
C1011 C1012 1.523 . S
C1012 C993 1.368 . S
C1012 C1006 1.368 . S
C1012 C1011 1.523 . S
C1013 C997 1.429 . S
C1013 C1009 1.429 . S
C1013 C1014 1.523 . S
C1014 C998 1.368 . S
C1014 C1010 1.368 . S
C1014 C1013 1.523 . S
H1015 C990 0.950 . S
H1016 C992 0.950 . S
H1017 C993 0.949 . S
H1018 C995 0.950 . S
H1019 C997 0.950 . S
C1020 C1021 1.349 . S
C1020 C1022 1.327 . S
C1020 H1045 0.950 . S
C1021 C1020 1.349 . S
C1021 C1037 1.349 . S
C1022 C1020 1.327 . S
C1022 C1041 1.429 . S
C1022 H1046 0.950 . S
C1023 C1040 1.574 . S
C1023 C1042 1.368 . S
C1023 H1047 0.949 . S
H1024 C1028 0.949 . S
C1025 C1026 1.349 . S
C1025 C1027 1.327 . S
C1025 H1048 0.950 . S
C1026 C1025 1.349 . S
C1026 C1038 1.349 . S
C1027 C1025 1.327 . S
C1027 C1043 1.429 . S
C1027 H1049 0.950 . S
C1028 H1024 0.949 . S
C1028 C1036 1.574 . S
C1028 C1044 1.368 . S
H1029 C1037 0.950 . S
H1030 C1035 0.950 . S
H1031 C1036 0.949 . S
H1032 C1038 0.950 . S
H1033 C1039 0.950 . S
H1034 C1040 0.949 . S
C1035 H1030 0.950 . S
C1035 C1037 1.327 . S
C1035 C1041 1.429 . S
C1036 C1028 1.574 . S
C1036 H1031 0.949 . S
C1036 C1042 1.368 . S
C1037 C1021 1.349 . S
C1037 H1029 0.950 . S
C1037 C1035 1.327 . S
C1038 C1026 1.349 . S
C1038 H1032 0.950 . S
C1038 C1039 1.327 . S
C1039 H1033 0.950 . S
C1039 C1038 1.327 . S
C1039 C1043 1.429 . S
C1040 C1023 1.574 . S
C1040 H1034 0.949 . S
C1040 C1044 1.368 . S
C1041 C1022 1.429 . S
C1041 C1035 1.429 . S
C1041 C1042 1.523 . S
C1042 C1023 1.368 . S
C1042 C1036 1.368 . S
C1042 C1041 1.523 . S
C1043 C1027 1.429 . S
C1043 C1039 1.429 . S
C1043 C1044 1.523 . S
C1044 C1028 1.368 . S
C1044 C1040 1.368 . S
C1044 C1043 1.523 . S
H1045 C1020 0.950 . S
H1046 C1022 0.950 . S
H1047 C1023 0.949 . S
H1048 C1025 0.950 . S
H1049 C1027 0.950 . S
C1050 C1051 1.349 . S
C1050 C1052 1.327 . S
C1050 H1075 0.950 . S
C1051 C1050 1.349 . S
C1051 C1067 1.349 . S
C1052 C1050 1.327 . S
C1052 C1071 1.429 . S
C1052 H1076 0.950 . S
C1053 C1070 1.574 . S
C1053 C1072 1.368 . S
C1053 H1077 0.949 . S
H1054 C1058 0.949 . S
C1055 C1056 1.349 . S
C1055 C1057 1.327 . S
C1055 H1078 0.950 . S
C1056 C1055 1.349 . S
C1056 C1068 1.349 . S
C1057 C1055 1.327 . S
C1057 C1073 1.429 . S
C1057 H1079 0.950 . S
C1058 H1054 0.949 . S
C1058 C1066 1.574 . S
C1058 C1074 1.368 . S
H1059 C1067 0.950 . S
H1060 C1065 0.950 . S
H1061 C1066 0.949 . S
H1062 C1068 0.950 . S
H1063 C1069 0.950 . S
H1064 C1070 0.949 . S
C1065 H1060 0.950 . S
C1065 C1067 1.327 . S
C1065 C1071 1.429 . S
C1066 C1058 1.574 . S
C1066 H1061 0.949 . S
C1066 C1072 1.368 . S
C1067 C1051 1.349 . S
C1067 H1059 0.950 . S
C1067 C1065 1.327 . S
C1068 C1056 1.349 . S
C1068 H1062 0.950 . S
C1068 C1069 1.327 . S
C1069 H1063 0.950 . S
C1069 C1068 1.327 . S
C1069 C1073 1.429 . S
C1070 C1053 1.574 . S
C1070 H1064 0.949 . S
C1070 C1074 1.368 . S
C1071 C1052 1.429 . S
C1071 C1065 1.429 . S
C1071 C1072 1.523 . S
C1072 C1053 1.368 . S
C1072 C1066 1.368 . S
C1072 C1071 1.523 . S
C1073 C1057 1.429 . S
C1073 C1069 1.429 . S
C1073 C1074 1.523 . S
C1074 C1058 1.368 . S
C1074 C1070 1.368 . S
C1074 C1073 1.523 . S
H1075 C1050 0.950 . S
H1076 C1052 0.950 . S
H1077 C1053 0.949 . S
H1078 C1055 0.950 . S
H1079 C1057 0.950 . S
C1080 C1081 1.349 . S
C1080 C1082 1.327 . S
C1080 H1105 0.950 . S
C1081 C1080 1.349 . S
C1081 C1097 1.349 . S
C1082 C1080 1.327 . S
C1082 C1101 1.429 . S
C1082 H1106 0.950 . S
C1083 C1100 1.574 . S
C1083 C1102 1.368 . S
C1083 H1107 0.949 . S
H1084 C1088 0.949 . S
C1085 C1086 1.349 . S
C1085 C1087 1.327 . S
C1085 H1108 0.950 . S
C1086 C1085 1.349 . S
C1086 C1098 1.349 . S
C1087 C1085 1.327 . S
C1087 C1103 1.429 . S
C1087 H1109 0.950 . S
C1088 H1084 0.949 . S
C1088 C1096 1.574 . S
C1088 C1104 1.368 . S
H1089 C1097 0.950 . S
H1090 C1095 0.950 . S
H1091 C1096 0.949 . S
H1092 C1098 0.950 . S
H1093 C1099 0.950 . S
H1094 C1100 0.949 . S
C1095 H1090 0.950 . S
C1095 C1097 1.327 . S
C1095 C1101 1.429 . S
C1096 C1088 1.574 . S
C1096 H1091 0.949 . S
C1096 C1102 1.368 . S
C1097 C1081 1.349 . S
C1097 H1089 0.950 . S
C1097 C1095 1.327 . S
C1098 C1086 1.349 . S
C1098 H1092 0.950 . S
C1098 C1099 1.327 . S
C1099 H1093 0.950 . S
C1099 C1098 1.327 . S
C1099 C1103 1.429 . S
C1100 C1083 1.574 . S
C1100 H1094 0.949 . S
C1100 C1104 1.368 . S
C1101 C1082 1.429 . S
C1101 C1095 1.429 . S
C1101 C1102 1.523 . S
C1102 C1083 1.368 . S
C1102 C1096 1.368 . S
C1102 C1101 1.523 . S
C1103 C1087 1.429 . S
C1103 C1099 1.429 . S
C1103 C1104 1.523 . S
C1104 C1088 1.368 . S
C1104 C1100 1.368 . S
C1104 C1103 1.523 . S
H1105 C1080 0.950 . S
H1106 C1082 0.950 . S
H1107 C1083 0.949 . S
H1108 C1085 0.950 . S
H1109 C1087 0.950 . S
C1110 C1111 1.349 . S
C1110 C1112 1.327 . S
C1110 H1135 0.950 . S
C1111 C1110 1.349 . S
C1111 C1127 1.349 . S
C1112 C1110 1.327 . S
C1112 C1131 1.429 . S
C1112 H1136 0.950 . S
C1113 C1130 1.574 . S
C1113 C1132 1.368 . S
C1113 H1137 0.949 . S
H1114 C1118 0.949 . S
C1115 C1116 1.349 . S
C1115 C1117 1.327 . S
C1115 H1138 0.950 . S
C1116 C1115 1.349 . S
C1116 C1128 1.349 . S
C1117 C1115 1.327 . S
C1117 C1133 1.429 . S
C1117 H1139 0.950 . S
C1118 H1114 0.949 . S
C1118 C1126 1.574 . S
C1118 C1134 1.368 . S
H1119 C1127 0.950 . S
H1120 C1125 0.950 . S
H1121 C1126 0.949 . S
H1122 C1128 0.950 . S
H1123 C1129 0.950 . S
H1124 C1130 0.949 . S
C1125 H1120 0.950 . S
C1125 C1127 1.327 . S
C1125 C1131 1.429 . S
C1126 C1118 1.574 . S
C1126 H1121 0.949 . S
C1126 C1132 1.368 . S
C1127 C1111 1.349 . S
C1127 H1119 0.950 . S
C1127 C1125 1.327 . S
C1128 C1116 1.349 . S
C1128 H1122 0.950 . S
C1128 C1129 1.327 . S
C1129 H1123 0.950 . S
C1129 C1128 1.327 . S
C1129 C1133 1.429 . S
C1130 C1113 1.574 . S
C1130 H1124 0.949 . S
C1130 C1134 1.368 . S
C1131 C1112 1.429 . S
C1131 C1125 1.429 . S
C1131 C1132 1.523 . S
C1132 C1113 1.368 . S
C1132 C1126 1.368 . S
C1132 C1131 1.523 . S
C1133 C1117 1.429 . S
C1133 C1129 1.429 . S
C1133 C1134 1.523 . S
C1134 C1118 1.368 . S
C1134 C1130 1.368 . S
C1134 C1133 1.523 . S
H1135 C1110 0.950 . S
H1136 C1112 0.950 . S
H1137 C1113 0.949 . S
H1138 C1115 0.950 . S
H1139 C1117 0.950 . S
C1140 C1141 1.349 . S
C1140 C1142 1.327 . S
C1140 H1165 0.950 . S
C1141 C1140 1.349 . S
C1141 C1157 1.349 . S
C1142 C1140 1.327 . S
C1142 C1161 1.429 . S
C1142 H1166 0.950 . S
C1143 C1160 1.574 . S
C1143 C1162 1.368 . S
C1143 H1167 0.949 . S
H1144 C1148 0.949 . S
C1145 C1146 1.349 . S
C1145 C1147 1.327 . S
C1145 H1168 0.950 . S
C1146 C1145 1.349 . S
C1146 C1158 1.349 . S
C1147 C1145 1.327 . S
C1147 C1163 1.429 . S
C1147 H1169 0.950 . S
C1148 H1144 0.949 . S
C1148 C1156 1.574 . S
C1148 C1164 1.368 . S
H1149 C1157 0.950 . S
H1150 C1155 0.950 . S
H1151 C1156 0.949 . S
H1152 C1158 0.950 . S
H1153 C1159 0.950 . S
H1154 C1160 0.949 . S
C1155 H1150 0.950 . S
C1155 C1157 1.327 . S
C1155 C1161 1.429 . S
C1156 C1148 1.574 . S
C1156 H1151 0.949 . S
C1156 C1162 1.368 . S
C1157 C1141 1.349 . S
C1157 H1149 0.950 . S
C1157 C1155 1.327 . S
C1158 C1146 1.349 . S
C1158 H1152 0.950 . S
C1158 C1159 1.327 . S
C1159 H1153 0.950 . S
C1159 C1158 1.327 . S
C1159 C1163 1.429 . S
C1160 C1143 1.574 . S
C1160 H1154 0.949 . S
C1160 C1164 1.368 . S
C1161 C1142 1.429 . S
C1161 C1155 1.429 . S
C1161 C1162 1.523 . S
C1162 C1143 1.368 . S
C1162 C1156 1.368 . S
C1162 C1161 1.523 . S
C1163 C1147 1.429 . S
C1163 C1159 1.429 . S
C1163 C1164 1.523 . S
C1164 C1148 1.368 . S
C1164 C1160 1.368 . S
C1164 C1163 1.523 . S
H1165 C1140 0.950 . S
H1166 C1142 0.950 . S
H1167 C1143 0.949 . S
H1168 C1145 0.950 . S
H1169 C1147 0.950 . S
C1170 C1171 1.349 . S
C1170 C1172 1.327 . S
C1170 H1195 0.950 . S
C1171 C1170 1.349 . S
C1171 C1187 1.349 . S
C1172 C1170 1.327 . S
C1172 C1191 1.429 . S
C1172 H1196 0.950 . S
C1173 C1190 1.574 . S
C1173 C1192 1.368 . S
C1173 H1197 0.949 . S
H1174 C1178 0.949 . S
C1175 C1176 1.349 . S
C1175 C1177 1.327 . S
C1175 H1198 0.950 . S
C1176 C1175 1.349 . S
C1176 C1188 1.349 . S
C1177 C1175 1.327 . S
C1177 C1193 1.429 . S
C1177 H1199 0.950 . S
C1178 H1174 0.949 . S
C1178 C1186 1.574 . S
C1178 C1194 1.368 . S
H1179 C1187 0.950 . S
H1180 C1185 0.950 . S
H1181 C1186 0.949 . S
H1182 C1188 0.950 . S
H1183 C1189 0.950 . S
H1184 C1190 0.949 . S
C1185 H1180 0.950 . S
C1185 C1187 1.327 . S
C1185 C1191 1.429 . S
C1186 C1178 1.574 . S
C1186 H1181 0.949 . S
C1186 C1192 1.368 . S
C1187 C1171 1.349 . S
C1187 H1179 0.950 . S
C1187 C1185 1.327 . S
C1188 C1176 1.349 . S
C1188 H1182 0.950 . S
C1188 C1189 1.327 . S
C1189 H1183 0.950 . S
C1189 C1188 1.327 . S
C1189 C1193 1.429 . S
C1190 C1173 1.574 . S
C1190 H1184 0.949 . S
C1190 C1194 1.368 . S
C1191 C1172 1.429 . S
C1191 C1185 1.429 . S
C1191 C1192 1.523 . S
C1192 C1173 1.368 . S
C1192 C1186 1.368 . S
C1192 C1191 1.523 . S
C1193 C1177 1.429 . S
C1193 C1189 1.429 . S
C1193 C1194 1.523 . S
C1194 C1178 1.368 . S
C1194 C1190 1.368 . S
C1194 C1193 1.523 . S
H1195 C1170 0.950 . S
H1196 C1172 0.950 . S
H1197 C1173 0.949 . S
H1198 C1175 0.950 . S
H1199 C1177 0.950 . S
C1200 C1201 1.349 . S
C1200 C1202 1.327 . S
C1200 H1225 0.950 . S
C1201 C1200 1.349 . S
C1201 C1217 1.349 . S
C1202 C1200 1.327 . S
C1202 C1221 1.429 . S
C1202 H1226 0.950 . S
C1203 C1220 1.574 . S
C1203 C1222 1.368 . S
C1203 H1227 0.949 . S
H1204 C1208 0.949 . S
C1205 C1206 1.349 . S
C1205 C1207 1.327 . S
C1205 H1228 0.950 . S
C1206 C1205 1.349 . S
C1206 C1218 1.349 . S
C1207 C1205 1.327 . S
C1207 C1223 1.429 . S
C1207 H1229 0.950 . S
C1208 H1204 0.949 . S
C1208 C1216 1.574 . S
C1208 C1224 1.368 . S
H1209 C1217 0.950 . S
H1210 C1215 0.950 . S
H1211 C1216 0.949 . S
H1212 C1218 0.950 . S
H1213 C1219 0.950 . S
H1214 C1220 0.949 . S
C1215 H1210 0.950 . S
C1215 C1217 1.327 . S
C1215 C1221 1.429 . S
C1216 C1208 1.574 . S
C1216 H1211 0.949 . S
C1216 C1222 1.368 . S
C1217 C1201 1.349 . S
C1217 H1209 0.950 . S
C1217 C1215 1.327 . S
C1218 C1206 1.349 . S
C1218 H1212 0.950 . S
C1218 C1219 1.327 . S
C1219 H1213 0.950 . S
C1219 C1218 1.327 . S
C1219 C1223 1.429 . S
C1220 C1203 1.574 . S
C1220 H1214 0.949 . S
C1220 C1224 1.368 . S
C1221 C1202 1.429 . S
C1221 C1215 1.429 . S
C1221 C1222 1.523 . S
C1222 C1203 1.368 . S
C1222 C1216 1.368 . S
C1222 C1221 1.523 . S
C1223 C1207 1.429 . S
C1223 C1219 1.429 . S
C1223 C1224 1.523 . S
C1224 C1208 1.368 . S
C1224 C1220 1.368 . S
C1224 C1223 1.523 . S
H1225 C1200 0.950 . S
H1226 C1202 0.950 . S
H1227 C1203 0.949 . S
H1228 C1205 0.950 . S
H1229 C1207 0.950 . S
C1230 C1231 1.349 . S
C1230 C1232 1.327 . S
C1230 H1255 0.950 . S
C1231 C1230 1.349 . S
C1231 C1247 1.349 . S
C1232 C1230 1.327 . S
C1232 C1251 1.429 . S
C1232 H1256 0.950 . S
C1233 C1250 1.574 . S
C1233 C1252 1.368 . S
C1233 H1257 0.949 . S
H1234 C1238 0.949 . S
C1235 C1236 1.349 . S
C1235 C1237 1.327 . S
C1235 H1258 0.950 . S
C1236 C1235 1.349 . S
C1236 C1248 1.349 . S
C1237 C1235 1.327 . S
C1237 C1253 1.429 . S
C1237 H1259 0.950 . S
C1238 H1234 0.949 . S
C1238 C1246 1.574 . S
C1238 C1254 1.368 . S
H1239 C1247 0.950 . S
H1240 C1245 0.950 . S
H1241 C1246 0.949 . S
H1242 C1248 0.950 . S
H1243 C1249 0.950 . S
H1244 C1250 0.949 . S
C1245 H1240 0.950 . S
C1245 C1247 1.327 . S
C1245 C1251 1.429 . S
C1246 C1238 1.574 . S
C1246 H1241 0.949 . S
C1246 C1252 1.368 . S
C1247 C1231 1.349 . S
C1247 H1239 0.950 . S
C1247 C1245 1.327 . S
C1248 C1236 1.349 . S
C1248 H1242 0.950 . S
C1248 C1249 1.327 . S
C1249 H1243 0.950 . S
C1249 C1248 1.327 . S
C1249 C1253 1.429 . S
C1250 C1233 1.574 . S
C1250 H1244 0.949 . S
C1250 C1254 1.368 . S
C1251 C1232 1.429 . S
C1251 C1245 1.429 . S
C1251 C1252 1.523 . S
C1252 C1233 1.368 . S
C1252 C1246 1.368 . S
C1252 C1251 1.523 . S
C1253 C1237 1.429 . S
C1253 C1249 1.429 . S
C1253 C1254 1.523 . S
C1254 C1238 1.368 . S
C1254 C1250 1.368 . S
C1254 C1253 1.523 . S
H1255 C1230 0.950 . S
H1256 C1232 0.950 . S
H1257 C1233 0.949 . S
H1258 C1235 0.950 . S
H1259 C1237 0.950 . S
C1260 C1261 1.349 . S
C1260 C1262 1.327 . S
C1260 H1285 0.950 . S
C1261 C1260 1.349 . S
C1261 C1277 1.349 . S
C1262 C1260 1.327 . S
C1262 C1281 1.429 . S
C1262 H1286 0.950 . S
C1263 C1280 1.574 . S
C1263 C1282 1.368 . S
C1263 H1287 0.949 . S
H1264 C1268 0.949 . S
C1265 C1266 1.349 . S
C1265 C1267 1.327 . S
C1265 H1288 0.950 . S
C1266 C1265 1.349 . S
C1266 C1278 1.349 . S
C1267 C1265 1.327 . S
C1267 C1283 1.429 . S
C1267 H1289 0.950 . S
C1268 H1264 0.949 . S
C1268 C1276 1.574 . S
C1268 C1284 1.368 . S
H1269 C1277 0.950 . S
H1270 C1275 0.950 . S
H1271 C1276 0.949 . S
H1272 C1278 0.950 . S
H1273 C1279 0.950 . S
H1274 C1280 0.949 . S
C1275 H1270 0.950 . S
C1275 C1277 1.327 . S
C1275 C1281 1.429 . S
C1276 C1268 1.574 . S
C1276 H1271 0.949 . S
C1276 C1282 1.368 . S
C1277 C1261 1.349 . S
C1277 H1269 0.950 . S
C1277 C1275 1.327 . S
C1278 C1266 1.349 . S
C1278 H1272 0.950 . S
C1278 C1279 1.327 . S
C1279 H1273 0.950 . S
C1279 C1278 1.327 . S
C1279 C1283 1.429 . S
C1280 C1263 1.574 . S
C1280 H1274 0.949 . S
C1280 C1284 1.368 . S
C1281 C1262 1.429 . S
C1281 C1275 1.429 . S
C1281 C1282 1.523 . S
C1282 C1263 1.368 . S
C1282 C1276 1.368 . S
C1282 C1281 1.523 . S
C1283 C1267 1.429 . S
C1283 C1279 1.429 . S
C1283 C1284 1.523 . S
C1284 C1268 1.368 . S
C1284 C1280 1.368 . S
C1284 C1283 1.523 . S
H1285 C1260 0.950 . S
H1286 C1262 0.950 . S
H1287 C1263 0.949 . S
H1288 C1265 0.950 . S
H1289 C1267 0.950 . S
C1290 C1291 1.349 . S
C1290 C1292 1.327 . S
C1290 H1315 0.950 . S
C1291 C1290 1.349 . S
C1291 C1307 1.349 . S
C1292 C1290 1.327 . S
C1292 C1311 1.429 . S
C1292 H1316 0.950 . S
C1293 C1310 1.574 . S
C1293 C1312 1.368 . S
C1293 H1317 0.949 . S
H1294 C1298 0.949 . S
C1295 C1296 1.349 . S
C1295 C1297 1.327 . S
C1295 H1318 0.950 . S
C1296 C1295 1.349 . S
C1296 C1308 1.349 . S
C1297 C1295 1.327 . S
C1297 C1313 1.429 . S
C1297 H1319 0.950 . S
C1298 H1294 0.949 . S
C1298 C1306 1.574 . S
C1298 C1314 1.368 . S
H1299 C1307 0.950 . S
H1300 C1305 0.950 . S
H1301 C1306 0.949 . S
H1302 C1308 0.950 . S
H1303 C1309 0.950 . S
H1304 C1310 0.949 . S
C1305 H1300 0.950 . S
C1305 C1307 1.327 . S
C1305 C1311 1.429 . S
C1306 C1298 1.574 . S
C1306 H1301 0.949 . S
C1306 C1312 1.368 . S
C1307 C1291 1.349 . S
C1307 H1299 0.950 . S
C1307 C1305 1.327 . S
C1308 C1296 1.349 . S
C1308 H1302 0.950 . S
C1308 C1309 1.327 . S
C1309 H1303 0.950 . S
C1309 C1308 1.327 . S
C1309 C1313 1.429 . S
C1310 C1293 1.574 . S
C1310 H1304 0.949 . S
C1310 C1314 1.368 . S
C1311 C1292 1.429 . S
C1311 C1305 1.429 . S
C1311 C1312 1.523 . S
C1312 C1293 1.368 . S
C1312 C1306 1.368 . S
C1312 C1311 1.523 . S
C1313 C1297 1.429 . S
C1313 C1309 1.429 . S
C1313 C1314 1.523 . S
C1314 C1298 1.368 . S
C1314 C1310 1.368 . S
C1314 C1313 1.523 . S
H1315 C1290 0.950 . S
H1316 C1292 0.950 . S
H1317 C1293 0.949 . S
H1318 C1295 0.950 . S
H1319 C1297 0.950 . S
C1320 C1321 1.349 . S
C1320 C1322 1.327 . S
C1320 H1345 0.950 . S
C1321 C1320 1.349 . S
C1321 C1337 1.349 . S
C1322 C1320 1.327 . S
C1322 C1341 1.429 . S
C1322 H1346 0.950 . S
C1323 C1340 1.574 . S
C1323 C1342 1.368 . S
C1323 H1347 0.949 . S
H1324 C1328 0.949 . S
C1325 C1326 1.349 . S
C1325 C1327 1.327 . S
C1325 H1348 0.950 . S
C1326 C1325 1.349 . S
C1326 C1338 1.349 . S
C1327 C1325 1.327 . S
C1327 C1343 1.429 . S
C1327 H1349 0.950 . S
C1328 H1324 0.949 . S
C1328 C1336 1.574 . S
C1328 C1344 1.368 . S
H1329 C1337 0.950 . S
H1330 C1335 0.950 . S
H1331 C1336 0.949 . S
H1332 C1338 0.950 . S
H1333 C1339 0.950 . S
H1334 C1340 0.949 . S
C1335 H1330 0.950 . S
C1335 C1337 1.327 . S
C1335 C1341 1.429 . S
C1336 C1328 1.574 . S
C1336 H1331 0.949 . S
C1336 C1342 1.368 . S
C1337 C1321 1.349 . S
C1337 H1329 0.950 . S
C1337 C1335 1.327 . S
C1338 C1326 1.349 . S
C1338 H1332 0.950 . S
C1338 C1339 1.327 . S
C1339 H1333 0.950 . S
C1339 C1338 1.327 . S
C1339 C1343 1.429 . S
C1340 C1323 1.574 . S
C1340 H1334 0.949 . S
C1340 C1344 1.368 . S
C1341 C1322 1.429 . S
C1341 C1335 1.429 . S
C1341 C1342 1.523 . S
C1342 C1323 1.368 . S
C1342 C1336 1.368 . S
C1342 C1341 1.523 . S
C1343 C1327 1.429 . S
C1343 C1339 1.429 . S
C1343 C1344 1.523 . S
C1344 C1328 1.368 . S
C1344 C1340 1.368 . S
C1344 C1343 1.523 . S
H1345 C1320 0.950 . S
H1346 C1322 0.950 . S
H1347 C1323 0.949 . S
H1348 C1325 0.950 . S
H1349 C1327 0.950 . S
C1350 C1351 1.349 . S
C1350 C1352 1.327 . S
C1350 H1375 0.950 . S
C1351 C1350 1.349 . S
C1351 C1367 1.349 . S
C1352 C1350 1.327 . S
C1352 C1371 1.429 . S
C1352 H1376 0.950 . S
C1353 C1370 1.574 . S
C1353 C1372 1.368 . S
C1353 H1377 0.949 . S
H1354 C1358 0.949 . S
C1355 C1356 1.349 . S
C1355 C1357 1.327 . S
C1355 H1378 0.950 . S
C1356 C1355 1.349 . S
C1356 C1368 1.349 . S
C1357 C1355 1.327 . S
C1357 C1373 1.429 . S
C1357 H1379 0.950 . S
C1358 H1354 0.949 . S
C1358 C1366 1.574 . S
C1358 C1374 1.368 . S
H1359 C1367 0.950 . S
H1360 C1365 0.950 . S
H1361 C1366 0.949 . S
H1362 C1368 0.927 1_556 S
H1363 C1369 0.950 . S
H1364 C1370 0.949 . S
C1365 H1360 0.950 . S
C1365 C1367 1.327 . S
C1365 C1371 1.429 . S
C1366 C1358 1.574 . S
C1366 H1361 0.949 . S
C1366 C1372 1.368 . S
C1367 C1351 1.349 . S
C1367 H1359 0.950 . S
C1367 C1365 1.327 . S
C1368 C1356 1.349 . S
C1368 H1362 0.927 1_554 S
C1368 C1369 1.327 . S
C1369 H1363 0.950 . S
C1369 C1368 1.327 . S
C1369 C1373 1.429 . S
C1370 C1353 1.574 . S
C1370 H1364 0.949 . S
C1370 C1374 1.368 . S
C1371 C1352 1.429 . S
C1371 C1365 1.429 . S
C1371 C1372 1.523 . S
C1372 C1353 1.368 . S
C1372 C1366 1.368 . S
C1372 C1371 1.523 . S
C1373 C1357 1.429 . S
C1373 C1369 1.429 . S
C1373 C1374 1.523 . S
C1374 C1358 1.368 . S
C1374 C1370 1.368 . S
C1374 C1373 1.523 . S
H1375 C1350 0.950 . S
H1376 C1352 0.950 . S
H1377 C1353 0.949 . S
H1378 C1355 0.950 . S
H1379 C1357 0.950 . S
C1380 C1381 1.349 . S
C1380 C1382 1.327 . S
C1380 H1405 0.950 . S
C1381 C1380 1.349 . S
C1381 C1397 1.349 . S
C1382 C1380 1.327 . S
C1382 C1401 1.429 . S
C1382 H1406 0.950 . S
C1383 C1400 1.574 . S
C1383 C1402 1.368 . S
C1383 H1407 0.949 . S
H1384 C1388 0.949 . S
C1385 C1386 1.349 . S
C1385 C1387 1.327 . S
C1385 H1408 0.950 . S
C1386 C1385 1.349 . S
C1386 C1398 1.349 . S
C1387 C1385 1.327 . S
C1387 C1403 1.429 . S
C1387 H1409 0.950 . S
C1388 H1384 0.949 . S
C1388 C1396 1.574 . S
C1388 C1404 1.368 . S
H1389 C1397 0.950 . S
H1390 C1395 0.950 . S
H1391 C1396 0.949 . S
H1392 C1398 0.950 . S
H1393 C1399 0.950 . S
H1394 C1400 0.949 . S
C1395 H1390 0.950 . S
C1395 C1397 1.327 . S
C1395 C1401 1.429 . S
C1396 C1388 1.574 . S
C1396 H1391 0.949 . S
C1396 C1402 1.368 . S
C1397 C1381 1.349 . S
C1397 H1389 0.950 . S
C1397 C1395 1.327 . S
C1398 C1386 1.349 . S
C1398 H1392 0.950 . S
C1398 C1399 1.327 . S
C1399 H1393 0.950 . S
C1399 C1398 1.327 . S
C1399 C1403 1.429 . S
C1400 C1383 1.574 . S
C1400 H1394 0.949 . S
C1400 C1404 1.368 . S
C1401 C1382 1.429 . S
C1401 C1395 1.429 . S
C1401 C1402 1.523 . S
C1402 C1383 1.368 . S
C1402 C1396 1.368 . S
C1402 C1401 1.523 . S
C1403 C1387 1.429 . S
C1403 C1399 1.429 . S
C1403 C1404 1.523 . S
C1404 C1388 1.368 . S
C1404 C1400 1.368 . S
C1404 C1403 1.523 . S
H1405 C1380 0.950 . S
H1406 C1382 0.950 . S
H1407 C1383 0.949 . S
H1408 C1385 0.950 . S
H1409 C1387 0.950 . S
C1410 C1411 1.349 . S
C1410 C1412 1.327 . S
C1410 H1435 0.950 . S
C1411 C1410 1.349 . S
C1411 C1427 1.349 . S
C1412 C1410 1.327 . S
C1412 C1431 1.429 . S
C1412 H1436 0.950 . S
C1413 C1430 1.574 . S
C1413 C1432 1.368 . S
C1413 H1437 0.949 . S
H1414 C1418 0.949 . S
C1415 C1416 1.349 . S
C1415 C1417 1.327 . S
C1415 H1438 0.950 . S
C1416 C1415 1.349 . S
C1416 C1428 1.349 . S
C1417 C1415 1.327 . S
C1417 C1433 1.429 . S
C1417 H1439 0.950 . S
C1418 H1414 0.949 . S
C1418 C1426 1.574 . S
C1418 C1434 1.368 . S
H1419 C1427 0.950 . S
H1420 C1425 0.950 . S
H1421 C1426 0.949 . S
H1422 C1428 0.950 . S
H1423 C1429 0.950 . S
H1424 C1430 0.949 . S
C1425 H1420 0.950 . S
C1425 C1427 1.327 . S
C1425 C1431 1.429 . S
C1426 C1418 1.574 . S
C1426 H1421 0.949 . S
C1426 C1432 1.368 . S
C1427 C1411 1.349 . S
C1427 H1419 0.950 . S
C1427 C1425 1.327 . S
C1428 C1416 1.349 . S
C1428 H1422 0.950 . S
C1428 C1429 1.327 . S
C1429 H1423 0.950 . S
C1429 C1428 1.327 . S
C1429 C1433 1.429 . S
C1430 C1413 1.574 . S
C1430 H1424 0.949 . S
C1430 C1434 1.368 . S
C1431 C1412 1.429 . S
C1431 C1425 1.429 . S
C1431 C1432 1.523 . S
C1432 C1413 1.368 . S
C1432 C1426 1.368 . S
C1432 C1431 1.523 . S
C1433 C1417 1.429 . S
C1433 C1429 1.429 . S
C1433 C1434 1.523 . S
C1434 C1418 1.368 . S
C1434 C1430 1.368 . S
C1434 C1433 1.523 . S
H1435 C1410 0.950 . S
H1436 C1412 0.950 . S
H1437 C1413 0.949 . S
H1438 C1415 0.950 . S
H1439 C1417 0.950 . S
C1440 C1441 1.349 . S
C1440 C1442 1.327 . S
C1440 H1465 0.950 . S
C1441 C1440 1.349 . S
C1441 C1457 1.349 . S
C1442 C1440 1.327 . S
C1442 C1461 1.429 . S
C1442 H1466 0.950 . S
C1443 C1460 1.574 . S
C1443 C1462 1.368 . S
C1443 H1467 0.949 . S
H1444 C1448 0.949 . S
C1445 C1446 1.349 . S
C1445 C1447 1.327 . S
C1445 H1468 0.950 . S
C1446 C1445 1.349 . S
C1446 C1458 1.349 . S
C1447 C1445 1.327 . S
C1447 C1463 1.429 . S
C1447 H1469 0.950 . S
C1448 H1444 0.949 . S
C1448 C1456 1.574 . S
C1448 C1464 1.368 . S
H1449 C1457 0.950 . S
H1450 C1455 0.950 . S
H1451 C1456 0.949 . S
H1452 C1458 0.950 . S
H1453 C1459 0.950 . S
H1454 C1460 0.949 . S
C1455 H1450 0.950 . S
C1455 C1457 1.327 . S
C1455 C1461 1.429 . S
C1456 C1448 1.574 . S
C1456 H1451 0.949 . S
C1456 C1462 1.368 . S
C1457 C1441 1.349 . S
C1457 H1449 0.950 . S
C1457 C1455 1.327 . S
C1458 C1446 1.349 . S
C1458 H1452 0.950 . S
C1458 C1459 1.327 . S
C1459 H1453 0.950 . S
C1459 C1458 1.327 . S
C1459 C1463 1.429 . S
C1460 C1443 1.574 . S
C1460 H1454 0.949 . S
C1460 C1464 1.368 . S
C1461 C1442 1.429 . S
C1461 C1455 1.429 . S
C1461 C1462 1.523 . S
C1462 C1443 1.368 . S
C1462 C1456 1.368 . S
C1462 C1461 1.523 . S
C1463 C1447 1.429 . S
C1463 C1459 1.429 . S
C1463 C1464 1.523 . S
C1464 C1448 1.368 . S
C1464 C1460 1.368 . S
C1464 C1463 1.523 . S
H1465 C1440 0.950 . S
H1466 C1442 0.950 . S
H1467 C1443 0.949 . S
H1468 C1445 0.950 . S
H1469 C1447 0.950 . S
C1470 C1471 1.349 . S
C1470 C1472 1.327 . S
C1470 H1495 0.950 . S
C1471 C1470 1.349 . S
C1471 C1487 1.349 . S
C1472 C1470 1.327 . S
C1472 C1491 1.429 . S
C1472 H1496 0.950 . S
C1473 C1490 1.574 . S
C1473 C1492 1.368 . S
C1473 H1497 0.949 . S
H1474 C1478 0.949 . S
C1475 C1476 1.349 . S
C1475 C1477 1.327 . S
C1475 H1498 0.950 . S
C1476 C1475 1.349 . S
C1476 C1488 1.349 . S
C1477 C1475 1.327 . S
C1477 C1493 1.429 . S
C1477 H1499 0.950 . S
C1478 H1474 0.949 . S
C1478 C1486 1.574 . S
C1478 C1494 1.368 . S
H1479 C1487 0.950 . S
H1480 C1485 0.950 . S
H1481 C1486 0.949 . S
H1482 C1488 0.950 . S
H1483 C1489 0.950 . S
H1484 C1490 0.949 . S
C1485 H1480 0.950 . S
C1485 C1487 1.327 . S
C1485 C1491 1.429 . S
C1486 C1478 1.574 . S
C1486 H1481 0.949 . S
C1486 C1492 1.368 . S
C1487 C1471 1.349 . S
C1487 H1479 0.950 . S
C1487 C1485 1.327 . S
C1488 C1476 1.349 . S
C1488 H1482 0.950 . S
C1488 C1489 1.327 . S
C1489 H1483 0.950 . S
C1489 C1488 1.327 . S
C1489 C1493 1.429 . S
C1490 C1473 1.574 . S
C1490 H1484 0.949 . S
C1490 C1494 1.368 . S
C1491 C1472 1.429 . S
C1491 C1485 1.429 . S
C1491 C1492 1.523 . S
C1492 C1473 1.368 . S
C1492 C1486 1.368 . S
C1492 C1491 1.523 . S
C1493 C1477 1.429 . S
C1493 C1489 1.429 . S
C1493 C1494 1.523 . S
C1494 C1478 1.368 . S
C1494 C1490 1.368 . S
C1494 C1493 1.523 . S
H1495 C1470 0.950 . S
H1496 C1472 0.950 . S
H1497 C1473 0.949 . S
H1498 C1475 0.950 . S
H1499 C1477 0.950 . S
C1500 C1501 1.349 . S
C1500 C1502 1.327 . S
C1500 H1525 0.950 . S
C1501 C1500 1.349 . S
C1501 C1517 1.349 . S
C1502 C1500 1.327 . S
C1502 C1521 1.429 . S
C1502 H1526 0.950 . S
C1503 C1520 1.574 . S
C1503 C1522 1.368 . S
C1503 H1527 0.949 . S
H1504 C1508 0.949 . S
C1505 C1506 1.349 . S
C1505 C1507 1.327 . S
C1505 H1528 0.950 . S
C1506 C1505 1.349 . S
C1506 C1518 1.349 . S
C1507 C1505 1.327 . S
C1507 C1523 1.429 . S
C1507 H1529 0.950 . S
C1508 H1504 0.949 . S
C1508 C1516 1.574 . S
C1508 C1524 1.368 . S
H1509 C1517 0.950 . S
H1510 C1515 0.950 . S
H1511 C1516 0.949 . S
H1512 C1518 0.950 . S
H1513 C1519 0.950 . S
H1514 C1520 0.949 . S
C1515 H1510 0.950 . S
C1515 C1517 1.327 . S
C1515 C1521 1.429 . S
C1516 C1508 1.574 . S
C1516 H1511 0.949 . S
C1516 C1522 1.368 . S
C1517 C1501 1.349 . S
C1517 H1509 0.950 . S
C1517 C1515 1.327 . S
C1518 C1506 1.349 . S
C1518 H1512 0.950 . S
C1518 C1519 1.327 . S
C1519 H1513 0.950 . S
C1519 C1518 1.327 . S
C1519 C1523 1.429 . S
C1520 C1503 1.574 . S
C1520 H1514 0.949 . S
C1520 C1524 1.368 . S
C1521 C1502 1.429 . S
C1521 C1515 1.429 . S
C1521 C1522 1.523 . S
C1522 C1503 1.368 . S
C1522 C1516 1.368 . S
C1522 C1521 1.523 . S
C1523 C1507 1.429 . S
C1523 C1519 1.429 . S
C1523 C1524 1.523 . S
C1524 C1508 1.368 . S
C1524 C1520 1.368 . S
C1524 C1523 1.523 . S
H1525 C1500 0.950 . S
H1526 C1502 0.950 . S
H1527 C1503 0.949 . S
H1528 C1505 0.950 . S
H1529 C1507 0.950 . S
C1530 C1531 1.349 . S
C1530 C1532 1.327 . S
C1530 H1555 0.950 . S
C1531 C1530 1.349 . S
C1531 C1547 1.349 . S
C1532 C1530 1.327 . S
C1532 C1551 1.429 . S
C1532 H1556 0.950 . S
C1533 C1550 1.574 . S
C1533 C1552 1.368 . S
C1533 H1557 0.949 . S
H1534 C1538 0.949 . S
C1535 C1536 1.349 . S
C1535 C1537 1.327 . S
C1535 H1558 0.950 . S
C1536 C1535 1.349 . S
C1536 C1548 1.349 . S
C1537 C1535 1.327 . S
C1537 C1553 1.429 . S
C1537 H1559 0.950 . S
C1538 H1534 0.949 . S
C1538 C1546 1.574 . S
C1538 C1554 1.368 . S
H1539 C1547 0.950 . S
H1540 C1545 0.950 . S
H1541 C1546 0.949 . S
H1542 C1548 0.950 . S
H1543 C1549 0.950 . S
H1544 C1550 0.949 . S
C1545 H1540 0.950 . S
C1545 C1547 1.327 . S
C1545 C1551 1.429 . S
C1546 C1538 1.574 . S
C1546 H1541 0.949 . S
C1546 C1552 1.368 . S
C1547 C1531 1.349 . S
C1547 H1539 0.950 . S
C1547 C1545 1.327 . S
C1548 C1536 1.349 . S
C1548 H1542 0.950 . S
C1548 C1549 1.327 . S
C1549 H1543 0.950 . S
C1549 C1548 1.327 . S
C1549 C1553 1.429 . S
C1550 C1533 1.574 . S
C1550 H1544 0.949 . S
C1550 C1554 1.368 . S
C1551 C1532 1.429 . S
C1551 C1545 1.429 . S
C1551 C1552 1.523 . S
C1552 C1533 1.368 . S
C1552 C1546 1.368 . S
C1552 C1551 1.523 . S
C1553 C1537 1.429 . S
C1553 C1549 1.429 . S
C1553 C1554 1.523 . S
C1554 C1538 1.368 . S
C1554 C1550 1.368 . S
C1554 C1553 1.523 . S
H1555 C1530 0.950 . S
H1556 C1532 0.950 . S
H1557 C1533 0.949 . S
H1558 C1535 0.950 . S
H1559 C1537 0.950 . S
C1560 C1561 1.349 . S
C1560 C1562 1.327 . S
C1560 H1585 0.950 . S
C1561 C1560 1.349 . S
C1561 C1577 1.349 . S
C1562 C1560 1.327 . S
C1562 C1581 1.429 . S
C1562 H1586 0.950 . S
C1563 C1580 1.574 . S
C1563 C1582 1.368 . S
C1563 H1587 0.949 . S
H1564 C1568 0.949 . S
C1565 C1566 1.349 . S
C1565 C1567 1.327 . S
C1565 H1588 0.950 . S
C1566 C1565 1.349 . S
C1566 C1578 1.349 . S
C1567 C1565 1.327 . S
C1567 C1583 1.429 . S
C1567 H1589 0.950 . S
C1568 H1564 0.949 . S
C1568 C1576 1.574 . S
C1568 C1584 1.368 . S
H1569 C1577 0.950 . S
H1570 C1575 0.950 . S
H1571 C1576 0.949 . S
H1572 C1578 0.950 . S
H1573 C1579 0.950 . S
H1574 C1580 0.949 . S
C1575 H1570 0.950 . S
C1575 C1577 1.327 . S
C1575 C1581 1.429 . S
C1576 C1568 1.574 . S
C1576 H1571 0.949 . S
C1576 C1582 1.368 . S
C1577 C1561 1.349 . S
C1577 H1569 0.950 . S
C1577 C1575 1.327 . S
C1578 C1566 1.349 . S
C1578 H1572 0.950 . S
C1578 C1579 1.327 . S
C1579 H1573 0.950 . S
C1579 C1578 1.327 . S
C1579 C1583 1.429 . S
C1580 C1563 1.574 . S
C1580 H1574 0.949 . S
C1580 C1584 1.368 . S
C1581 C1562 1.429 . S
C1581 C1575 1.429 . S
C1581 C1582 1.523 . S
C1582 C1563 1.368 . S
C1582 C1576 1.368 . S
C1582 C1581 1.523 . S
C1583 C1567 1.429 . S
C1583 C1579 1.429 . S
C1583 C1584 1.523 . S
C1584 C1568 1.368 . S
C1584 C1580 1.368 . S
C1584 C1583 1.523 . S
H1585 C1560 0.950 . S
H1586 C1562 0.950 . S
H1587 C1563 0.949 . S
H1588 C1565 0.950 . S
H1589 C1567 0.950 . S
C1590 C1591 1.349 . S
C1590 C1592 1.327 . S
C1590 H1615 0.950 . S
C1591 C1590 1.349 . S
C1591 C1607 1.349 . S
C1592 C1590 1.327 . S
C1592 C1611 1.429 . S
C1592 H1616 0.950 . S
C1593 C1610 1.574 . S
C1593 C1612 1.368 . S
C1593 H1617 0.949 . S
H1594 C1598 0.949 . S
C1595 C1596 1.349 . S
C1595 C1597 1.327 . S
C1595 H1618 0.950 . S
C1596 C1595 1.349 . S
C1596 C1608 1.349 . S
C1597 C1595 1.327 . S
C1597 C1613 1.429 . S
C1597 H1619 0.950 . S
C1598 H1594 0.949 . S
C1598 C1606 1.574 . S
C1598 C1614 1.368 . S
H1599 C1607 0.950 . S
H1600 C1605 0.950 . S
H1601 C1606 0.949 . S
H1602 C1608 0.950 . S
H1603 C1609 0.950 . S
H1604 C1610 0.949 . S
C1605 H1600 0.950 . S
C1605 C1607 1.327 . S
C1605 C1611 1.429 . S
C1606 C1598 1.574 . S
C1606 H1601 0.949 . S
C1606 C1612 1.368 . S
C1607 C1591 1.349 . S
C1607 H1599 0.950 . S
C1607 C1605 1.327 . S
C1608 C1596 1.349 . S
C1608 H1602 0.950 . S
C1608 C1609 1.327 . S
C1609 H1603 0.950 . S
C1609 C1608 1.327 . S
C1609 C1613 1.429 . S
C1610 C1593 1.574 . S
C1610 H1604 0.949 . S
C1610 C1614 1.368 . S
C1611 C1592 1.429 . S
C1611 C1605 1.429 . S
C1611 C1612 1.523 . S
C1612 C1593 1.368 . S
C1612 C1606 1.368 . S
C1612 C1611 1.523 . S
C1613 C1597 1.429 . S
C1613 C1609 1.429 . S
C1613 C1614 1.523 . S
C1614 C1598 1.368 . S
C1614 C1610 1.368 . S
C1614 C1613 1.523 . S
H1615 C1590 0.950 . S
H1616 C1592 0.950 . S
H1617 C1593 0.949 . S
H1618 C1595 0.950 . S
H1619 C1597 0.950 . S
C1620 C1621 1.349 . S
C1620 C1622 1.327 . S
C1620 H1645 0.950 . S
C1621 C1620 1.349 . S
C1621 C1637 1.349 . S
C1622 C1620 1.327 . S
C1622 C1641 1.429 . S
C1622 H1646 0.950 . S
C1623 C1640 1.574 . S
C1623 C1642 1.368 . S
C1623 H1647 0.949 . S
H1624 C1628 0.949 . S
C1625 C1626 1.349 . S
C1625 C1627 1.327 . S
C1625 H1648 0.950 . S
C1626 C1625 1.349 . S
C1626 C1638 1.349 . S
C1627 C1625 1.327 . S
C1627 C1643 1.429 . S
C1627 H1649 0.950 . S
C1628 H1624 0.949 . S
C1628 C1636 1.574 . S
C1628 C1644 1.368 . S
H1629 C1637 0.950 . S
H1630 C1635 0.950 . S
H1631 C1636 0.949 . S
H1632 C1638 0.983 . S
H1633 C1639 0.950 . S
H1634 C1640 0.949 . S
C1635 H1630 0.950 . S
C1635 C1637 1.327 . S
C1635 C1641 1.429 . S
C1636 C1628 1.574 . S
C1636 H1631 0.949 . S
C1636 C1642 1.368 . S
C1637 C1621 1.349 . S
C1637 H1629 0.950 . S
C1637 C1635 1.327 . S
C1638 C1626 1.349 . S
C1638 H1632 0.983 . S
C1638 C1639 1.327 . S
C1639 H1633 0.950 . S
C1639 C1638 1.327 . S
C1639 C1643 1.429 . S
C1640 C1623 1.574 . S
C1640 H1634 0.949 . S
C1640 C1644 1.368 . S
C1641 C1622 1.429 . S
C1641 C1635 1.429 . S
C1641 C1642 1.523 . S
C1642 C1623 1.368 . S
C1642 C1636 1.368 . S
C1642 C1641 1.523 . S
C1643 C1627 1.429 . S
C1643 C1639 1.429 . S
C1643 C1644 1.523 . S
C1644 C1628 1.368 . S
C1644 C1640 1.368 . S
C1644 C1643 1.523 . S
H1645 C1620 0.950 . S
H1646 C1622 0.950 . S
H1647 C1623 0.949 . S
H1648 C1625 0.950 . S
H1649 C1627 0.950 . S
C1650 C1651 1.349 . S
C1650 C1652 1.327 . S
C1650 H1675 0.950 . S
C1651 C1650 1.349 . S
C1651 C1667 1.349 . S
C1652 C1650 1.327 . S
C1652 C1671 1.429 . S
C1652 H1676 0.950 . S
C1653 C1670 1.574 . S
C1653 C1672 1.368 . S
C1653 H1677 0.949 . S
H1654 C1658 0.949 . S
C1655 C1656 1.349 . S
C1655 C1657 1.327 . S
C1655 H1678 0.950 . S
C1656 C1655 1.349 . S
C1656 C1668 1.349 . S
C1657 C1655 1.327 . S
C1657 C1673 1.429 . S
C1657 H1679 0.950 . S
C1658 H1654 0.949 . S
C1658 C1666 1.574 . S
C1658 C1674 1.368 . S
H1659 C1667 0.950 . S
H1660 C1665 0.950 . S
H1661 C1666 0.949 . S
H1662 C1668 0.950 . S
H1663 C1669 0.950 . S
H1664 C1670 0.949 . S
C1665 H1660 0.950 . S
C1665 C1667 1.327 . S
C1665 C1671 1.429 . S
C1666 C1658 1.574 . S
C1666 H1661 0.949 . S
C1666 C1672 1.368 . S
C1667 C1651 1.349 . S
C1667 H1659 0.950 . S
C1667 C1665 1.327 . S
C1668 C1656 1.349 . S
C1668 H1662 0.950 . S
C1668 C1669 1.327 . S
C1669 H1663 0.950 . S
C1669 C1668 1.327 . S
C1669 C1673 1.429 . S
C1670 C1653 1.574 . S
C1670 H1664 0.949 . S
C1670 C1674 1.368 . S
C1671 C1652 1.429 . S
C1671 C1665 1.429 . S
C1671 C1672 1.523 . S
C1672 C1653 1.368 . S
C1672 C1666 1.368 . S
C1672 C1671 1.523 . S
C1673 C1657 1.429 . S
C1673 C1669 1.429 . S
C1673 C1674 1.523 . S
C1674 C1658 1.368 . S
C1674 C1670 1.368 . S
C1674 C1673 1.523 . S
H1675 C1650 0.950 . S
H1676 C1652 0.950 . S
H1677 C1653 0.949 . S
H1678 C1655 0.950 . S
H1679 C1657 0.950 . S
C1680 C1681 1.349 . S
C1680 C1682 1.327 . S
C1680 H1705 0.950 . S
C1681 C1680 1.349 . S
C1681 C1697 1.349 . S
C1682 C1680 1.327 . S
C1682 C1701 1.429 . S
C1682 H1706 0.950 . S
C1683 C1700 1.574 . S
C1683 C1702 1.368 . S
C1683 H1707 0.949 . S
H1684 C1688 0.949 . S
C1685 C1686 1.349 . S
C1685 C1687 1.327 . S
C1685 H1708 0.950 . S
C1686 C1685 1.349 . S
C1686 C1698 1.349 . S
C1687 C1685 1.327 . S
C1687 C1703 1.429 . S
C1687 H1709 0.950 . S
C1688 H1684 0.949 . S
C1688 C1696 1.574 . S
C1688 C1704 1.368 . S
H1689 C1697 0.950 . S
H1690 C1695 0.950 . S
H1691 C1696 0.949 . S
H1692 C1698 0.950 . S
H1693 C1699 0.950 . S
H1694 C1700 0.949 . S
C1695 H1690 0.950 . S
C1695 C1697 1.327 . S
C1695 C1701 1.429 . S
C1696 C1688 1.574 . S
C1696 H1691 0.949 . S
C1696 C1702 1.368 . S
C1697 C1681 1.349 . S
C1697 H1689 0.950 . S
C1697 C1695 1.327 . S
C1698 C1686 1.349 . S
C1698 H1692 0.950 . S
C1698 C1699 1.327 . S
C1699 H1693 0.950 . S
C1699 C1698 1.327 . S
C1699 C1703 1.429 . S
C1700 C1683 1.574 . S
C1700 H1694 0.949 . S
C1700 C1704 1.368 . S
C1701 C1682 1.429 . S
C1701 C1695 1.429 . S
C1701 C1702 1.523 . S
C1702 C1683 1.368 . S
C1702 C1696 1.368 . S
C1702 C1701 1.523 . S
C1703 C1687 1.429 . S
C1703 C1699 1.429 . S
C1703 C1704 1.523 . S
C1704 C1688 1.368 . S
C1704 C1700 1.368 . S
C1704 C1703 1.523 . S
H1705 C1680 0.950 . S
H1706 C1682 0.950 . S
H1707 C1683 0.949 . S
H1708 C1685 0.950 . S
H1709 C1687 0.950 . S
C1710 C1711 1.349 . S
C1710 C1712 1.327 . S
C1710 H1735 0.950 . S
C1711 C1710 1.349 . S
C1711 C1727 1.349 . S
C1712 C1710 1.327 . S
C1712 C1731 1.429 . S
C1712 H1736 0.950 . S
C1713 C1730 1.574 . S
C1713 C1732 1.368 . S
C1713 H1737 0.949 . S
H1714 C1718 0.949 . S
C1715 C1716 1.349 . S
C1715 C1717 1.327 . S
C1715 H1738 0.950 . S
C1716 C1715 1.349 . S
C1716 C1728 1.349 . S
C1717 C1715 1.327 . S
C1717 C1733 1.429 . S
C1717 H1739 0.950 . S
C1718 H1714 0.949 . S
C1718 C1726 1.574 . S
C1718 C1734 1.368 . S
H1719 C1727 0.950 . S
H1720 C1725 0.950 . S
H1721 C1726 0.949 . S
H1722 C1728 0.950 . S
H1723 C1729 0.950 . S
H1724 C1730 0.949 . S
C1725 H1720 0.950 . S
C1725 C1727 1.327 . S
C1725 C1731 1.429 . S
C1726 C1718 1.574 . S
C1726 H1721 0.949 . S
C1726 C1732 1.368 . S
C1727 C1711 1.349 . S
C1727 H1719 0.950 . S
C1727 C1725 1.327 . S
C1728 C1716 1.349 . S
C1728 H1722 0.950 . S
C1728 C1729 1.327 . S
C1729 H1723 0.950 . S
C1729 C1728 1.327 . S
C1729 C1733 1.429 . S
C1730 C1713 1.574 . S
C1730 H1724 0.949 . S
C1730 C1734 1.368 . S
C1731 C1712 1.429 . S
C1731 C1725 1.429 . S
C1731 C1732 1.523 . S
C1732 C1713 1.368 . S
C1732 C1726 1.368 . S
C1732 C1731 1.523 . S
C1733 C1717 1.429 . S
C1733 C1729 1.429 . S
C1733 C1734 1.523 . S
C1734 C1718 1.368 . S
C1734 C1730 1.368 . S
C1734 C1733 1.523 . S
H1735 C1710 0.950 . S
H1736 C1712 0.950 . S
H1737 C1713 0.949 . S
H1738 C1715 0.950 . S
H1739 C1717 0.950 . S
C1740 C1741 1.349 . S
C1740 C1742 1.327 . S
C1740 H1765 0.950 . S
C1741 C1740 1.349 . S
C1741 C1757 1.349 . S
C1742 C1740 1.327 . S
C1742 C1761 1.429 . S
C1742 H1766 0.950 . S
C1743 C1760 1.574 . S
C1743 C1762 1.368 . S
C1743 H1767 0.949 . S
H1744 C1748 0.949 . S
C1745 C1746 1.349 . S
C1745 C1747 1.327 . S
C1745 H1768 0.950 . S
C1746 C1745 1.349 . S
C1746 C1758 1.349 . S
C1747 C1745 1.327 . S
C1747 C1763 1.429 . S
C1747 H1769 0.950 . S
C1748 H1744 0.949 . S
C1748 C1756 1.574 . S
C1748 C1764 1.368 . S
H1749 C1757 0.950 . S
H1750 C1755 0.950 . S
H1751 C1756 0.949 . S
H1752 C1758 0.950 . S
H1753 C1759 0.950 . S
H1754 C1760 0.949 . S
C1755 H1750 0.950 . S
C1755 C1757 1.327 . S
C1755 C1761 1.429 . S
C1756 C1748 1.574 . S
C1756 H1751 0.949 . S
C1756 C1762 1.368 . S
C1757 C1741 1.349 . S
C1757 H1749 0.950 . S
C1757 C1755 1.327 . S
C1758 C1746 1.349 . S
C1758 H1752 0.950 . S
C1758 C1759 1.327 . S
C1759 H1753 0.950 . S
C1759 C1758 1.327 . S
C1759 C1763 1.429 . S
C1760 C1743 1.574 . S
C1760 H1754 0.949 . S
C1760 C1764 1.368 . S
C1761 C1742 1.429 . S
C1761 C1755 1.429 . S
C1761 C1762 1.523 . S
C1762 C1743 1.368 . S
C1762 C1756 1.368 . S
C1762 C1761 1.523 . S
C1763 C1747 1.429 . S
C1763 C1759 1.429 . S
C1763 C1764 1.523 . S
C1764 C1748 1.368 . S
C1764 C1760 1.368 . S
C1764 C1763 1.523 . S
H1765 C1740 0.950 . S
H1766 C1742 0.950 . S
H1767 C1743 0.949 . S
H1768 C1745 0.950 . S
H1769 C1747 0.950 . S
C1770 C1771 1.349 . S
C1770 C1772 1.327 . S
C1770 H1795 0.950 . S
C1771 C1770 1.349 . S
C1771 C1787 1.349 . S
C1772 C1770 1.327 . S
C1772 C1791 1.429 . S
C1772 H1796 0.950 . S
C1773 C1790 1.574 . S
C1773 C1792 1.368 . S
C1773 H1797 0.949 . S
H1774 C1778 0.949 . S
C1775 C1776 1.349 . S
C1775 C1777 1.327 . S
C1775 H1798 0.950 . S
C1776 C1775 1.349 . S
C1776 C1788 1.349 . S
C1777 C1775 1.327 . S
C1777 C1793 1.429 . S
C1777 H1799 0.950 . S
C1778 H1774 0.949 . S
C1778 C1786 1.574 . S
C1778 C1794 1.368 . S
H1779 C1787 0.950 . S
H1780 C1785 0.950 . S
H1781 C1786 0.949 . S
H1782 C1788 0.950 . S
H1783 C1789 0.950 . S
H1784 C1790 0.949 . S
C1785 H1780 0.950 . S
C1785 C1787 1.327 . S
C1785 C1791 1.429 . S
C1786 C1778 1.574 . S
C1786 H1781 0.949 . S
C1786 C1792 1.368 . S
C1787 C1771 1.349 . S
C1787 H1779 0.950 . S
C1787 C1785 1.327 . S
C1788 C1776 1.349 . S
C1788 H1782 0.950 . S
C1788 C1789 1.327 . S
C1789 H1783 0.950 . S
C1789 C1788 1.327 . S
C1789 C1793 1.429 . S
C1790 C1773 1.574 . S
C1790 H1784 0.949 . S
C1790 C1794 1.368 . S
C1791 C1772 1.429 . S
C1791 C1785 1.429 . S
C1791 C1792 1.523 . S
C1792 C1773 1.368 . S
C1792 C1786 1.368 . S
C1792 C1791 1.523 . S
C1793 C1777 1.429 . S
C1793 C1789 1.429 . S
C1793 C1794 1.523 . S
C1794 C1778 1.368 . S
C1794 C1790 1.368 . S
C1794 C1793 1.523 . S
H1795 C1770 0.950 . S
H1796 C1772 0.950 . S
H1797 C1773 0.949 . S
H1798 C1775 0.950 . S
H1799 C1777 0.950 . S
C1800 C1801 1.349 . S
C1800 C1802 1.327 . S
C1800 H1825 0.950 . S
C1801 C1800 1.349 . S
C1801 C1817 1.349 . S
C1802 C1800 1.327 . S
C1802 C1821 1.429 . S
C1802 H1826 0.950 . S
C1803 C1820 1.574 . S
C1803 C1822 1.368 . S
C1803 H1827 0.949 . S
H1804 C1808 0.949 . S
C1805 C1806 1.349 . S
C1805 C1807 1.327 . S
C1805 H1828 0.950 . S
C1806 C1805 1.349 . S
C1806 C1818 1.349 . S
C1807 C1805 1.327 . S
C1807 C1823 1.429 . S
C1807 H1829 0.950 . S
C1808 H1804 0.949 . S
C1808 C1816 1.574 . S
C1808 C1824 1.368 . S
H1809 C1817 0.950 . S
H1810 C1815 0.950 . S
H1811 C1816 0.949 . S
H1812 C1818 0.950 . S
H1813 C1819 0.950 . S
H1814 C1820 0.949 . S
C1815 H1810 0.950 . S
C1815 C1817 1.327 . S
C1815 C1821 1.429 . S
C1816 C1808 1.574 . S
C1816 H1811 0.949 . S
C1816 C1822 1.368 . S
C1817 C1801 1.349 . S
C1817 H1809 0.950 . S
C1817 C1815 1.327 . S
C1818 C1806 1.349 . S
C1818 H1812 0.950 . S
C1818 C1819 1.327 . S
C1819 H1813 0.950 . S
C1819 C1818 1.327 . S
C1819 C1823 1.429 . S
C1820 C1803 1.574 . S
C1820 H1814 0.949 . S
C1820 C1824 1.368 . S
C1821 C1802 1.429 . S
C1821 C1815 1.429 . S
C1821 C1822 1.523 . S
C1822 C1803 1.368 . S
C1822 C1816 1.368 . S
C1822 C1821 1.523 . S
C1823 C1807 1.429 . S
C1823 C1819 1.429 . S
C1823 C1824 1.523 . S
C1824 C1808 1.368 . S
C1824 C1820 1.368 . S
C1824 C1823 1.523 . S
H1825 C1800 0.950 . S
H1826 C1802 0.950 . S
H1827 C1803 0.949 . S
H1828 C1805 0.950 . S
H1829 C1807 0.950 . S
C1830 C1831 1.349 . S
C1830 C1832 1.327 . S
C1830 H1855 0.950 . S
C1831 C1830 1.349 . S
C1831 C1847 1.349 . S
C1832 C1830 1.327 . S
C1832 C1851 1.429 . S
C1832 H1856 0.950 . S
C1833 C1850 1.574 . S
C1833 C1852 1.368 . S
C1833 H1857 0.949 . S
H1834 C1838 0.949 . S
C1835 C1836 1.349 . S
C1835 C1837 1.327 . S
C1835 H1858 0.950 . S
C1836 C1835 1.349 . S
C1836 C1848 1.349 . S
C1837 C1835 1.327 . S
C1837 C1853 1.429 . S
C1837 H1859 0.950 . S
C1838 H1834 0.949 . S
C1838 C1846 1.574 . S
C1838 C1854 1.368 . S
H1839 C1847 0.950 . S
H1840 C1845 0.950 . S
H1841 C1846 0.949 . S
H1842 C1848 0.950 . S
H1843 C1849 0.950 . S
H1844 C1850 0.949 . S
C1845 H1840 0.950 . S
C1845 C1847 1.327 . S
C1845 C1851 1.429 . S
C1846 C1838 1.574 . S
C1846 H1841 0.949 . S
C1846 C1852 1.368 . S
C1847 C1831 1.349 . S
C1847 H1839 0.950 . S
C1847 C1845 1.327 . S
C1848 C1836 1.349 . S
C1848 H1842 0.950 . S
C1848 C1849 1.327 . S
C1849 H1843 0.950 . S
C1849 C1848 1.327 . S
C1849 C1853 1.429 . S
C1850 C1833 1.574 . S
C1850 H1844 0.949 . S
C1850 C1854 1.368 . S
C1851 C1832 1.429 . S
C1851 C1845 1.429 . S
C1851 C1852 1.523 . S
C1852 C1833 1.368 . S
C1852 C1846 1.368 . S
C1852 C1851 1.523 . S
C1853 C1837 1.429 . S
C1853 C1849 1.429 . S
C1853 C1854 1.523 . S
C1854 C1838 1.368 . S
C1854 C1850 1.368 . S
C1854 C1853 1.523 . S
H1855 C1830 0.950 . S
H1856 C1832 0.950 . S
H1857 C1833 0.949 . S
H1858 C1835 0.950 . S
H1859 C1837 0.950 . S
C1860 C1861 1.349 . S
C1860 C1862 1.327 . S
C1860 H1885 0.950 . S
C1861 C1860 1.349 . S
C1861 C1877 1.349 . S
C1862 C1860 1.327 . S
C1862 C1881 1.429 . S
C1862 H1886 0.950 . S
C1863 C1880 1.574 . S
C1863 C1882 1.368 . S
C1863 H1887 0.949 . S
H1864 C1868 0.949 . S
C1865 C1866 1.349 . S
C1865 C1867 1.327 . S
C1865 H1888 0.950 . S
C1866 C1865 1.349 . S
C1866 C1878 1.349 . S
C1867 C1865 1.327 . S
C1867 C1883 1.429 . S
C1867 H1889 0.950 . S
C1868 H1864 0.949 . S
C1868 C1876 1.574 . S
C1868 C1884 1.368 . S
H1869 C1877 0.950 . S
H1870 C1875 0.950 . S
H1871 C1876 0.949 . S
H1872 C1878 0.950 . S
H1873 C1879 0.950 . S
H1874 C1880 0.949 . S
C1875 H1870 0.950 . S
C1875 C1877 1.327 . S
C1875 C1881 1.429 . S
C1876 C1868 1.574 . S
C1876 H1871 0.949 . S
C1876 C1882 1.368 . S
C1877 C1861 1.349 . S
C1877 H1869 0.950 . S
C1877 C1875 1.327 . S
C1878 C1866 1.349 . S
C1878 H1872 0.950 . S
C1878 C1879 1.327 . S
C1879 H1873 0.950 . S
C1879 C1878 1.327 . S
C1879 C1883 1.429 . S
C1880 C1863 1.574 . S
C1880 H1874 0.949 . S
C1880 C1884 1.368 . S
C1881 C1862 1.429 . S
C1881 C1875 1.429 . S
C1881 C1882 1.523 . S
C1882 C1863 1.368 . S
C1882 C1876 1.368 . S
C1882 C1881 1.523 . S
C1883 C1867 1.429 . S
C1883 C1879 1.429 . S
C1883 C1884 1.523 . S
C1884 C1868 1.368 . S
C1884 C1880 1.368 . S
C1884 C1883 1.523 . S
H1885 C1860 0.950 . S
H1886 C1862 0.950 . S
H1887 C1863 0.949 . S
H1888 C1865 0.950 . S
H1889 C1867 0.950 . S
C1890 C1891 1.349 . S
C1890 C1892 1.327 . S
C1890 H1915 0.950 . S
C1891 C1890 1.349 . S
C1891 C1907 1.349 . S
C1892 C1890 1.327 . S
C1892 C1911 1.429 . S
C1892 H1916 0.950 . S
C1893 C1910 1.574 . S
C1893 C1912 1.368 . S
C1893 H1917 0.949 . S
H1894 C1898 0.949 . S
C1895 C1896 1.349 . S
C1895 C1897 1.327 . S
C1895 H1918 0.950 . S
C1896 C1895 1.349 . S
C1896 C1908 1.349 . S
C1897 C1895 1.327 . S
C1897 C1913 1.429 . S
C1897 H1919 0.950 . S
C1898 H1894 0.949 . S
C1898 C1906 1.574 . S
C1898 C1914 1.368 . S
H1899 C1907 0.950 . S
H1900 C1905 0.950 . S
H1901 C1906 0.949 . S
H1902 C1908 0.950 . S
H1903 C1909 0.950 . S
H1904 C1910 0.949 . S
C1905 H1900 0.950 . S
C1905 C1907 1.327 . S
C1905 C1911 1.429 . S
C1906 C1898 1.574 . S
C1906 H1901 0.949 . S
C1906 C1912 1.368 . S
C1907 C1891 1.349 . S
C1907 H1899 0.950 . S
C1907 C1905 1.327 . S
C1908 C1896 1.349 . S
C1908 H1902 0.950 . S
C1908 C1909 1.327 . S
C1909 H1903 0.950 . S
C1909 C1908 1.327 . S
C1909 C1913 1.429 . S
C1910 C1893 1.574 . S
C1910 H1904 0.949 . S
C1910 C1914 1.368 . S
C1911 C1892 1.429 . S
C1911 C1905 1.429 . S
C1911 C1912 1.523 . S
C1912 C1893 1.368 . S
C1912 C1906 1.368 . S
C1912 C1911 1.523 . S
C1913 C1897 1.429 . S
C1913 C1909 1.429 . S
C1913 C1914 1.523 . S
C1914 C1898 1.368 . S
C1914 C1910 1.368 . S
C1914 C1913 1.523 . S
H1915 C1890 0.950 . S
H1916 C1892 0.950 . S
H1917 C1893 0.949 . S
H1918 C1895 0.950 . S
H1919 C1897 0.950 . S
C1920 C1921 1.349 . S
C1920 C1922 1.327 . S
C1920 H1945 0.950 . S
C1921 C1920 1.349 . S
C1921 C1937 1.349 . S
C1922 C1920 1.327 . S
C1922 C1941 1.429 . S
C1922 H1946 0.950 . S
C1923 C1940 1.574 . S
C1923 C1942 1.368 . S
C1923 H1947 0.949 . S
H1924 C1928 0.949 . S
C1925 C1926 1.349 . S
C1925 C1927 1.327 . S
C1925 H1948 0.950 . S
C1926 C1925 1.349 . S
C1926 C1938 1.349 . S
C1927 C1925 1.327 . S
C1927 C1943 1.429 . S
C1927 H1949 0.950 . S
C1928 H1924 0.949 . S
C1928 C1936 1.574 . S
C1928 C1944 1.368 . S
H1929 C1937 0.950 . S
H1930 C1935 0.950 . S
H1931 C1936 0.949 . S
H1932 C1938 0.950 . S
H1933 C1939 0.950 . S
H1934 C1940 0.949 . S
C1935 H1930 0.950 . S
C1935 C1937 1.327 . S
C1935 C1941 1.429 . S
C1936 C1928 1.574 . S
C1936 H1931 0.949 . S
C1936 C1942 1.368 . S
C1937 C1921 1.349 . S
C1937 H1929 0.950 . S
C1937 C1935 1.327 . S
C1938 C1926 1.349 . S
C1938 H1932 0.950 . S
C1938 C1939 1.327 . S
C1939 H1933 0.950 . S
C1939 C1938 1.327 . S
C1939 C1943 1.429 . S
C1940 C1923 1.574 . S
C1940 H1934 0.949 . S
C1940 C1944 1.368 . S
C1941 C1922 1.429 . S
C1941 C1935 1.429 . S
C1941 C1942 1.523 . S
C1942 C1923 1.368 . S
C1942 C1936 1.368 . S
C1942 C1941 1.523 . S
C1943 C1927 1.429 . S
C1943 C1939 1.429 . S
C1943 C1944 1.523 . S
C1944 C1928 1.368 . S
C1944 C1940 1.368 . S
C1944 C1943 1.523 . S
H1945 C1920 0.950 . S
H1946 C1922 0.950 . S
H1947 C1923 0.949 . S
H1948 C1925 0.950 . S
H1949 C1927 0.950 . S
C1950 C1951 1.349 . S
C1950 C1952 1.327 . S
C1950 H1975 0.950 . S
C1951 C1950 1.349 . S
C1951 C1967 1.349 . S
C1952 C1950 1.327 . S
C1952 C1971 1.429 . S
C1952 H1976 0.950 . S
C1953 C1970 1.574 . S
C1953 C1972 1.368 . S
C1953 H1977 0.949 . S
H1954 C1958 0.949 . S
C1955 C1956 1.349 . S
C1955 C1957 1.327 . S
C1955 H1978 0.950 . S
C1956 C1955 1.349 . S
C1956 C1968 1.349 . S
C1957 C1955 1.327 . S
C1957 C1973 1.429 . S
C1957 H1979 0.950 . S
C1958 H1954 0.949 . S
C1958 C1966 1.574 . S
C1958 C1974 1.368 . S
H1959 C1967 0.950 . S
H1960 C1965 0.950 . S
H1961 C1966 0.949 . S
H1962 C1968 0.950 . S
H1963 C1969 0.950 . S
H1964 C1970 0.949 . S
C1965 H1960 0.950 . S
C1965 C1967 1.327 . S
C1965 C1971 1.429 . S
C1966 C1958 1.574 . S
C1966 H1961 0.949 . S
C1966 C1972 1.368 . S
C1967 C1951 1.349 . S
C1967 H1959 0.950 . S
C1967 C1965 1.327 . S
C1968 C1956 1.349 . S
C1968 H1962 0.950 . S
C1968 C1969 1.327 . S
C1969 H1963 0.950 . S
C1969 C1968 1.327 . S
C1969 C1973 1.429 . S
C1970 C1953 1.574 . S
C1970 H1964 0.949 . S
C1970 C1974 1.368 . S
C1971 C1952 1.429 . S
C1971 C1965 1.429 . S
C1971 C1972 1.523 . S
C1972 C1953 1.368 . S
C1972 C1966 1.368 . S
C1972 C1971 1.523 . S
C1973 C1957 1.429 . S
C1973 C1969 1.429 . S
C1973 C1974 1.523 . S
C1974 C1958 1.368 . S
C1974 C1970 1.368 . S
C1974 C1973 1.523 . S
H1975 C1950 0.950 . S
H1976 C1952 0.950 . S
H1977 C1953 0.949 . S
H1978 C1955 0.950 . S
H1979 C1957 0.950 . S
C1980 C1981 1.349 . S
C1980 C1982 1.327 . S
C1980 H2005 0.950 . S
C1981 C1980 1.349 . S
C1981 C1997 1.349 . S
C1982 C1980 1.327 . S
C1982 C2001 1.429 . S
C1982 H2006 0.950 . S
C1983 C2000 1.574 . S
C1983 C2002 1.368 . S
C1983 H2007 0.949 . S
H1984 C1988 0.949 . S
C1985 C1986 1.349 . S
C1985 C1987 1.327 . S
C1985 H2008 0.950 . S
C1986 C1985 1.349 . S
C1986 C1998 1.349 . S
C1987 C1985 1.327 . S
C1987 C2003 1.429 . S
C1987 H2009 0.950 . S
C1988 H1984 0.949 . S
C1988 C1996 1.574 . S
C1988 C2004 1.368 . S
H1989 C1997 0.950 . S
H1990 C1995 0.950 . S
H1991 C1996 0.949 . S
H1992 C1998 0.950 . S
H1993 C1999 0.950 . S
H1994 C2000 0.949 . S
C1995 H1990 0.950 . S
C1995 C1997 1.327 . S
C1995 C2001 1.429 . S
C1996 C1988 1.574 . S
C1996 H1991 0.949 . S
C1996 C2002 1.368 . S
C1997 C1981 1.349 . S
C1997 H1989 0.950 . S
C1997 C1995 1.327 . S
C1998 C1986 1.349 . S
C1998 H1992 0.950 . S
C1998 C1999 1.327 . S
C1999 H1993 0.950 . S
C1999 C1998 1.327 . S
C1999 C2003 1.429 . S
C2000 C1983 1.574 . S
C2000 H1994 0.949 . S
C2000 C2004 1.368 . S
C2001 C1982 1.429 . S
C2001 C1995 1.429 . S
C2001 C2002 1.523 . S
C2002 C1983 1.368 . S
C2002 C1996 1.368 . S
C2002 C2001 1.523 . S
C2003 C1987 1.429 . S
C2003 C1999 1.429 . S
C2003 C2004 1.523 . S
C2004 C1988 1.368 . S
C2004 C2000 1.368 . S
C2004 C2003 1.523 . S
H2005 C1980 0.950 . S
H2006 C1982 0.950 . S
H2007 C1983 0.949 . S
H2008 C1985 0.950 . S
H2009 C1987 0.950 . S
C2010 C2011 1.349 . S
C2010 C2012 1.327 . S
C2010 H2035 0.950 . S
C2011 C2010 1.349 . S
C2011 C2027 1.349 . S
C2012 C2010 1.327 . S
C2012 C2031 1.429 . S
C2012 H2036 0.950 . S
C2013 C2030 1.574 . S
C2013 C2032 1.368 . S
C2013 H2037 0.949 . S
H2014 C2018 0.949 . S
C2015 C2016 1.349 . S
C2015 C2017 1.327 . S
C2015 H2038 0.950 . S
C2016 C2015 1.349 . S
C2016 C2028 1.349 . S
C2017 C2015 1.327 . S
C2017 C2033 1.429 . S
C2017 H2039 0.950 . S
C2018 H2014 0.949 . S
C2018 C2026 1.574 . S
C2018 C2034 1.368 . S
H2019 C2027 0.950 . S
H2020 C2025 0.950 . S
H2021 C2026 0.949 . S
H2022 C2028 0.950 . S
H2023 C2029 0.950 . S
H2024 C2030 0.949 . S
C2025 H2020 0.950 . S
C2025 C2027 1.327 . S
C2025 C2031 1.429 . S
C2026 C2018 1.574 . S
C2026 H2021 0.949 . S
C2026 C2032 1.368 . S
C2027 C2011 1.349 . S
C2027 H2019 0.950 . S
C2027 C2025 1.327 . S
C2028 C2016 1.349 . S
C2028 H2022 0.950 . S
C2028 C2029 1.327 . S
C2029 H2023 0.950 . S
C2029 C2028 1.327 . S
C2029 C2033 1.429 . S
C2030 C2013 1.574 . S
C2030 H2024 0.949 . S
C2030 C2034 1.368 . S
C2031 C2012 1.429 . S
C2031 C2025 1.429 . S
C2031 C2032 1.523 . S
C2032 C2013 1.368 . S
C2032 C2026 1.368 . S
C2032 C2031 1.523 . S
C2033 C2017 1.429 . S
C2033 C2029 1.429 . S
C2033 C2034 1.523 . S
C2034 C2018 1.368 . S
C2034 C2030 1.368 . S
C2034 C2033 1.523 . S
H2035 C2010 0.950 . S
H2036 C2012 0.950 . S
H2037 C2013 0.949 . S
H2038 C2015 0.950 . S
H2039 C2017 0.950 . S
C2040 C2041 1.349 . S
C2040 C2042 1.327 . S
C2040 H2065 0.950 . S
C2041 C2040 1.349 . S
C2041 C2057 1.349 . S
C2042 C2040 1.327 . S
C2042 C2061 1.429 . S
C2042 H2066 0.950 . S
C2043 C2060 1.574 . S
C2043 C2062 1.368 . S
C2043 H2067 0.949 . S
H2044 C2048 0.949 . S
C2045 C2046 1.349 . S
C2045 C2047 1.327 . S
C2045 H2068 0.950 . S
C2046 C2045 1.349 . S
C2046 C2058 1.349 . S
C2047 C2045 1.327 . S
C2047 C2063 1.429 . S
C2047 H2069 0.950 . S
C2048 H2044 0.949 . S
C2048 C2056 1.574 . S
C2048 C2064 1.368 . S
H2049 C2057 0.950 . S
H2050 C2055 0.950 . S
H2051 C2056 0.949 . S
H2052 C2058 0.950 . S
H2053 C2059 0.950 . S
H2054 C2060 0.949 . S
C2055 H2050 0.950 . S
C2055 C2057 1.327 . S
C2055 C2061 1.429 . S
C2056 C2048 1.574 . S
C2056 H2051 0.949 . S
C2056 C2062 1.368 . S
C2057 C2041 1.349 . S
C2057 H2049 0.950 . S
C2057 C2055 1.327 . S
C2058 C2046 1.349 . S
C2058 H2052 0.950 . S
C2058 C2059 1.327 . S
C2059 H2053 0.950 . S
C2059 C2058 1.327 . S
C2059 C2063 1.429 . S
C2060 C2043 1.574 . S
C2060 H2054 0.949 . S
C2060 C2064 1.368 . S
C2061 C2042 1.429 . S
C2061 C2055 1.429 . S
C2061 C2062 1.523 . S
C2062 C2043 1.368 . S
C2062 C2056 1.368 . S
C2062 C2061 1.523 . S
C2063 C2047 1.429 . S
C2063 C2059 1.429 . S
C2063 C2064 1.523 . S
C2064 C2048 1.368 . S
C2064 C2060 1.368 . S
C2064 C2063 1.523 . S
H2065 C2040 0.950 . S
H2066 C2042 0.950 . S
H2067 C2043 0.949 . S
H2068 C2045 0.950 . S
H2069 C2047 0.950 . S
C2070 C2071 1.349 . S
C2070 C2072 1.327 . S
C2070 H2095 0.950 . S
C2071 C2070 1.349 . S
C2071 C2087 1.349 . S
C2072 C2070 1.327 . S
C2072 C2091 1.429 . S
C2072 H2096 0.950 . S
C2073 C2090 1.574 . S
C2073 C2092 1.368 . S
C2073 H2097 0.949 . S
H2074 C2078 0.949 . S
C2075 C2076 1.349 . S
C2075 C2077 1.327 . S
C2075 H2098 0.950 . S
C2076 C2075 1.349 . S
C2076 C2088 1.349 . S
C2077 C2075 1.327 . S
C2077 C2093 1.429 . S
C2077 H2099 0.950 . S
C2078 H2074 0.949 . S
C2078 C2086 1.574 . S
C2078 C2094 1.368 . S
H2079 C2087 0.950 . S
H2080 C2085 0.950 . S
H2081 C2086 0.949 . S
H2082 C2088 0.950 . S
H2083 C2089 0.950 . S
H2084 C2090 0.949 . S
C2085 H2080 0.950 . S
C2085 C2087 1.327 . S
C2085 C2091 1.429 . S
C2086 C2078 1.574 . S
C2086 H2081 0.949 . S
C2086 C2092 1.368 . S
C2087 C2071 1.349 . S
C2087 H2079 0.950 . S
C2087 C2085 1.327 . S
C2088 C2076 1.349 . S
C2088 H2082 0.950 . S
C2088 C2089 1.327 . S
C2089 H2083 0.950 . S
C2089 C2088 1.327 . S
C2089 C2093 1.429 . S
C2090 C2073 1.574 . S
C2090 H2084 0.949 . S
C2090 C2094 1.368 . S
C2091 C2072 1.429 . S
C2091 C2085 1.429 . S
C2091 C2092 1.523 . S
C2092 C2073 1.368 . S
C2092 C2086 1.368 . S
C2092 C2091 1.523 . S
C2093 C2077 1.429 . S
C2093 C2089 1.429 . S
C2093 C2094 1.523 . S
C2094 C2078 1.368 . S
C2094 C2090 1.368 . S
C2094 C2093 1.523 . S
H2095 C2070 0.950 . S
H2096 C2072 0.950 . S
H2097 C2073 0.949 . S
H2098 C2075 0.950 . S
H2099 C2077 0.950 . S
C2100 C2101 1.349 . S
C2100 C2102 1.327 . S
C2100 H2125 0.950 . S
C2101 C2100 1.349 . S
C2101 C2117 1.349 . S
C2102 C2100 1.327 . S
C2102 C2121 1.429 . S
C2102 H2126 0.950 . S
C2103 C2120 1.574 . S
C2103 C2122 1.368 . S
C2103 H2127 0.949 . S
H2104 C2108 0.949 . S
C2105 C2106 1.349 . S
C2105 C2107 1.327 . S
C2105 H2128 0.950 . S
C2106 C2105 1.349 . S
C2106 C2118 1.349 . S
C2107 C2105 1.327 . S
C2107 C2123 1.429 . S
C2107 H2129 0.950 . S
C2108 H2104 0.949 . S
C2108 C2116 1.574 . S
C2108 C2124 1.368 . S
H2109 C2117 0.950 . S
H2110 C2115 0.950 . S
H2111 C2116 0.949 . S
H2112 C2118 0.950 . S
H2113 C2119 0.950 . S
H2114 C2120 0.949 . S
C2115 H2110 0.950 . S
C2115 C2117 1.327 . S
C2115 C2121 1.429 . S
C2116 C2108 1.574 . S
C2116 H2111 0.949 . S
C2116 C2122 1.368 . S
C2117 C2101 1.349 . S
C2117 H2109 0.950 . S
C2117 C2115 1.327 . S
C2118 C2106 1.349 . S
C2118 H2112 0.950 . S
C2118 C2119 1.327 . S
C2119 H2113 0.950 . S
C2119 C2118 1.327 . S
C2119 C2123 1.429 . S
C2120 C2103 1.574 . S
C2120 H2114 0.949 . S
C2120 C2124 1.368 . S
C2121 C2102 1.429 . S
C2121 C2115 1.429 . S
C2121 C2122 1.523 . S
C2122 C2103 1.368 . S
C2122 C2116 1.368 . S
C2122 C2121 1.523 . S
C2123 C2107 1.429 . S
C2123 C2119 1.429 . S
C2123 C2124 1.523 . S
C2124 C2108 1.368 . S
C2124 C2120 1.368 . S
C2124 C2123 1.523 . S
H2125 C2100 0.950 . S
H2126 C2102 0.950 . S
H2127 C2103 0.949 . S
H2128 C2105 0.950 . S
H2129 C2107 0.950 . S
C2130 C2131 1.349 . S
C2130 C2132 1.327 . S
C2130 H2155 0.950 . S
C2131 C2130 1.349 . S
C2131 C2147 1.349 . S
C2132 C2130 1.327 . S
C2132 C2151 1.429 . S
C2132 H2156 0.950 . S
C2133 C2150 1.574 . S
C2133 C2152 1.368 . S
C2133 H2157 0.949 . S
H2134 C2138 0.949 . S
C2135 C2136 1.349 . S
C2135 C2137 1.327 . S
C2135 H2158 0.950 . S
C2136 C2135 1.349 . S
C2136 C2148 1.349 . S
C2137 C2135 1.327 . S
C2137 C2153 1.429 . S
C2137 H2159 0.950 . S
C2138 H2134 0.949 . S
C2138 C2146 1.574 . S
C2138 C2154 1.368 . S
H2139 C2147 0.950 . S
H2140 C2145 0.950 . S
H2141 C2146 0.949 . S
H2142 C2148 0.950 . S
H2143 C2149 0.950 . S
H2144 C2150 0.949 . S
C2145 H2140 0.950 . S
C2145 C2147 1.327 . S
C2145 C2151 1.429 . S
C2146 C2138 1.574 . S
C2146 H2141 0.949 . S
C2146 C2152 1.368 . S
C2147 C2131 1.349 . S
C2147 H2139 0.950 . S
C2147 C2145 1.327 . S
C2148 C2136 1.349 . S
C2148 H2142 0.950 . S
C2148 C2149 1.327 . S
C2149 H2143 0.950 . S
C2149 C2148 1.327 . S
C2149 C2153 1.429 . S
C2150 C2133 1.574 . S
C2150 H2144 0.949 . S
C2150 C2154 1.368 . S
C2151 C2132 1.429 . S
C2151 C2145 1.429 . S
C2151 C2152 1.523 . S
C2152 C2133 1.368 . S
C2152 C2146 1.368 . S
C2152 C2151 1.523 . S
C2153 C2137 1.429 . S
C2153 C2149 1.429 . S
C2153 C2154 1.523 . S
C2154 C2138 1.368 . S
C2154 C2150 1.368 . S
C2154 C2153 1.523 . S
H2155 C2130 0.950 . S
H2156 C2132 0.950 . S
H2157 C2133 0.949 . S
H2158 C2135 0.950 . S
H2159 C2137 0.950 . S
C2160 C2161 1.349 . S
C2160 C2162 1.327 . S
C2160 H2185 0.950 . S
C2161 C2160 1.349 . S
C2161 C2177 1.349 . S
C2162 C2160 1.327 . S
C2162 C2181 1.429 . S
C2162 H2186 0.950 . S
C2163 C2180 1.574 . S
C2163 C2182 1.368 . S
C2163 H2187 0.949 . S
H2164 C2168 0.949 . S
C2165 C2166 1.349 . S
C2165 C2167 1.327 . S
C2165 H2188 0.950 . S
C2166 C2165 1.349 . S
C2166 C2178 1.349 . S
C2167 C2165 1.327 . S
C2167 C2183 1.429 . S
C2167 H2189 0.950 . S
C2168 H2164 0.949 . S
C2168 C2176 1.574 . S
C2168 C2184 1.368 . S
H2169 C2177 0.950 . S
H2170 C2175 0.950 . S
H2171 C2176 0.949 . S
H2172 C2178 0.950 . S
H2173 C2179 0.950 . S
H2174 C2180 0.949 . S
C2175 H2170 0.950 . S
C2175 C2177 1.327 . S
C2175 C2181 1.429 . S
C2176 C2168 1.574 . S
C2176 H2171 0.949 . S
C2176 C2182 1.368 . S
C2177 C2161 1.349 . S
C2177 H2169 0.950 . S
C2177 C2175 1.327 . S
C2178 C2166 1.349 . S
C2178 H2172 0.950 . S
C2178 C2179 1.327 . S
C2179 H2173 0.950 . S
C2179 C2178 1.327 . S
C2179 C2183 1.429 . S
C2180 C2163 1.574 . S
C2180 H2174 0.949 . S
C2180 C2184 1.368 . S
C2181 C2162 1.429 . S
C2181 C2175 1.429 . S
C2181 C2182 1.523 . S
C2182 C2163 1.368 . S
C2182 C2176 1.368 . S
C2182 C2181 1.523 . S
C2183 C2167 1.429 . S
C2183 C2179 1.429 . S
C2183 C2184 1.523 . S
C2184 C2168 1.368 . S
C2184 C2180 1.368 . S
C2184 C2183 1.523 . S
H2185 C2160 0.950 . S
H2186 C2162 0.950 . S
H2187 C2163 0.949 . S
H2188 C2165 0.950 . S
H2189 C2167 0.950 . S
C2190 C2191 1.349 . S
C2190 C2192 1.327 . S
C2190 H2215 0.950 . S
C2191 C2190 1.349 . S
C2191 C2207 1.349 . S
C2192 C2190 1.327 . S
C2192 C2211 1.429 . S
C2192 H2216 0.950 . S
C2193 C2210 1.574 . S
C2193 C2212 1.368 . S
C2193 H2217 0.949 . S
H2194 C2198 0.949 . S
C2195 C2196 1.349 . S
C2195 C2197 1.327 . S
C2195 H2218 0.950 . S
C2196 C2195 1.349 . S
C2196 C2208 1.349 . S
C2197 C2195 1.327 . S
C2197 C2213 1.429 . S
C2197 H2219 0.950 . S
C2198 H2194 0.949 . S
C2198 C2206 1.574 . S
C2198 C2214 1.368 . S
H2199 C2207 0.950 . S
H2200 C2205 0.950 . S
H2201 C2206 0.949 . S
H2202 C2208 0.950 . S
H2203 C2209 0.950 . S
H2204 C2210 0.949 . S
C2205 H2200 0.950 . S
C2205 C2207 1.327 . S
C2205 C2211 1.429 . S
C2206 C2198 1.574 . S
C2206 H2201 0.949 . S
C2206 C2212 1.368 . S
C2207 C2191 1.349 . S
C2207 H2199 0.950 . S
C2207 C2205 1.327 . S
C2208 C2196 1.349 . S
C2208 H2202 0.950 . S
C2208 C2209 1.327 . S
C2209 H2203 0.950 . S
C2209 C2208 1.327 . S
C2209 C2213 1.429 . S
C2210 C2193 1.574 . S
C2210 H2204 0.949 . S
C2210 C2214 1.368 . S
C2211 C2192 1.429 . S
C2211 C2205 1.429 . S
C2211 C2212 1.523 . S
C2212 C2193 1.368 . S
C2212 C2206 1.368 . S
C2212 C2211 1.523 . S
C2213 C2197 1.429 . S
C2213 C2209 1.429 . S
C2213 C2214 1.523 . S
C2214 C2198 1.368 . S
C2214 C2210 1.368 . S
C2214 C2213 1.523 . S
H2215 C2190 0.950 . S
H2216 C2192 0.950 . S
H2217 C2193 0.949 . S
H2218 C2195 0.950 . S
H2219 C2197 0.950 . S
C2220 C2221 1.349 . S
C2220 C2222 1.327 . S
C2220 H2245 0.950 . S
C2221 C2220 1.349 . S
C2221 C2237 1.349 . S
C2222 C2220 1.327 . S
C2222 C2241 1.429 . S
C2222 H2246 0.950 . S
C2223 C2240 1.574 . S
C2223 C2242 1.368 . S
C2223 H2247 0.949 . S
H2224 C2228 0.949 . S
C2225 C2226 1.349 . S
C2225 C2227 1.327 . S
C2225 H2248 0.950 . S
C2226 C2225 1.349 . S
C2226 C2238 1.349 . S
C2227 C2225 1.327 . S
C2227 C2243 1.429 . S
C2227 H2249 0.950 . S
C2228 H2224 0.949 . S
C2228 C2236 1.574 . S
C2228 C2244 1.368 . S
H2229 C2237 0.950 . S
H2230 C2235 0.950 . S
H2231 C2236 0.949 . S
H2232 C2238 0.950 . S
H2233 C2239 0.950 . S
H2234 C2240 0.949 . S
C2235 H2230 0.950 . S
C2235 C2237 1.327 . S
C2235 C2241 1.429 . S
C2236 C2228 1.574 . S
C2236 H2231 0.949 . S
C2236 C2242 1.368 . S
C2237 C2221 1.349 . S
C2237 H2229 0.950 . S
C2237 C2235 1.327 . S
C2238 C2226 1.349 . S
C2238 H2232 0.950 . S
C2238 C2239 1.327 . S
C2239 H2233 0.950 . S
C2239 C2238 1.327 . S
C2239 C2243 1.429 . S
C2240 C2223 1.574 . S
C2240 H2234 0.949 . S
C2240 C2244 1.368 . S
C2241 C2222 1.429 . S
C2241 C2235 1.429 . S
C2241 C2242 1.523 . S
C2242 C2223 1.368 . S
C2242 C2236 1.368 . S
C2242 C2241 1.523 . S
C2243 C2227 1.429 . S
C2243 C2239 1.429 . S
C2243 C2244 1.523 . S
C2244 C2228 1.368 . S
C2244 C2240 1.368 . S
C2244 C2243 1.523 . S
H2245 C2220 0.950 . S
H2246 C2222 0.950 . S
H2247 C2223 0.949 . S
H2248 C2225 0.950 . S
H2249 C2227 0.950 . S
C2250 C2251 1.349 . S
C2250 C2252 1.327 . S
C2250 H2275 0.950 . S
C2251 C2250 1.349 . S
C2251 C2267 1.349 . S
C2252 C2250 1.327 . S
C2252 C2271 1.429 . S
C2252 H2276 0.950 . S
C2253 C2270 1.574 . S
C2253 C2272 1.368 . S
C2253 H2277 0.949 . S
H2254 C2258 0.949 . S
C2255 C2256 1.349 . S
C2255 C2257 1.327 . S
C2255 H2278 0.950 . S
C2256 C2255 1.349 . S
C2256 C2268 1.349 . S
C2257 C2255 1.327 . S
C2257 C2273 1.429 . S
C2257 H2279 0.950 . S
C2258 H2254 0.949 . S
C2258 C2266 1.574 . S
C2258 C2274 1.368 . S
H2259 C2267 0.950 . S
H2260 C2265 0.950 . S
H2261 C2266 0.949 . S
H2262 C2268 0.950 . S
H2263 C2269 0.950 . S
H2264 C2270 0.949 . S
C2265 H2260 0.950 . S
C2265 C2267 1.327 . S
C2265 C2271 1.429 . S
C2266 C2258 1.574 . S
C2266 H2261 0.949 . S
C2266 C2272 1.368 . S
C2267 C2251 1.349 . S
C2267 H2259 0.950 . S
C2267 C2265 1.327 . S
C2268 C2256 1.349 . S
C2268 H2262 0.950 . S
C2268 C2269 1.327 . S
C2269 H2263 0.950 . S
C2269 C2268 1.327 . S
C2269 C2273 1.429 . S
C2270 C2253 1.574 . S
C2270 H2264 0.949 . S
C2270 C2274 1.368 . S
C2271 C2252 1.429 . S
C2271 C2265 1.429 . S
C2271 C2272 1.523 . S
C2272 C2253 1.368 . S
C2272 C2266 1.368 . S
C2272 C2271 1.523 . S
C2273 C2257 1.429 . S
C2273 C2269 1.429 . S
C2273 C2274 1.523 . S
C2274 C2258 1.368 . S
C2274 C2270 1.368 . S
C2274 C2273 1.523 . S
H2275 C2250 0.950 . S
H2276 C2252 0.950 . S
H2277 C2253 0.949 . S
H2278 C2255 0.950 . S
H2279 C2257 0.950 . S
C2280 C2281 1.349 . S
C2280 C2282 1.327 . S
C2280 H2305 0.950 . S
C2281 C2280 1.349 . S
C2281 C2297 1.349 . S
C2282 C2280 1.327 . S
C2282 C2301 1.429 . S
C2282 H2306 0.950 . S
C2283 C2300 1.574 . S
C2283 C2302 1.368 . S
C2283 H2307 0.949 . S
H2284 C2288 0.949 . S
C2285 C2286 1.349 . S
C2285 C2287 1.327 . S
C2285 H2308 0.950 . S
C2286 C2285 1.349 . S
C2286 C2298 1.349 . S
C2287 C2285 1.327 . S
C2287 C2303 1.429 . S
C2287 H2309 0.950 . S
C2288 H2284 0.949 . S
C2288 C2296 1.574 . S
C2288 C2304 1.368 . S
H2289 C2297 0.950 . S
H2290 C2295 0.950 . S
H2291 C2296 0.949 . S
H2292 C2298 0.950 . S
H2293 C2299 0.950 . S
H2294 C2300 0.949 . S
C2295 H2290 0.950 . S
C2295 C2297 1.327 . S
C2295 C2301 1.429 . S
C2296 C2288 1.574 . S
C2296 H2291 0.949 . S
C2296 C2302 1.368 . S
C2297 C2281 1.349 . S
C2297 H2289 0.950 . S
C2297 C2295 1.327 . S
C2298 C2286 1.349 . S
C2298 H2292 0.950 . S
C2298 C2299 1.327 . S
C2299 H2293 0.950 . S
C2299 C2298 1.327 . S
C2299 C2303 1.429 . S
C2300 C2283 1.574 . S
C2300 H2294 0.949 . S
C2300 C2304 1.368 . S
C2301 C2282 1.429 . S
C2301 C2295 1.429 . S
C2301 C2302 1.523 . S
C2302 C2283 1.368 . S
C2302 C2296 1.368 . S
C2302 C2301 1.523 . S
C2303 C2287 1.429 . S
C2303 C2299 1.429 . S
C2303 C2304 1.523 . S
C2304 C2288 1.368 . S
C2304 C2300 1.368 . S
C2304 C2303 1.523 . S
H2305 C2280 0.950 . S
H2306 C2282 0.950 . S
H2307 C2283 0.949 . S
H2308 C2285 0.950 . S
H2309 C2287 0.950 . S
C876 C699 1.283 . S
C871 C74 1.374 . S
C906 C700 1.726 . S
C901 C153 1.637 . S
C936 C694 1.483 . S
C931 C231 1.495 . S
C961 C310 0.885 . S
C966 C693 0.349 . S
C991 C394 1.637 . S
C996 C696 1.726 . S
C1026 C698 1.484 . S
C1021 C494 1.495 . S
C1051 C573 0.885 . S
C1056 C697 0.349 . S
C1081 C651 1.374 . S
C1086 C695 1.283 . S
C1116 C730 2.627 . S
C1111 C56 2.630 . S
C1141 C151 1.556 . S
C1146 C761 1.445 . S
C1176 C729 1.420 . S
C1171 C237 1.327 . S
C1206 C764 1.251 . S
C1201 C326 1.225 . S
C1231 C410 1.562 . S
C1236 C727 1.572 . S
C1266 C759 2.643 . S
C1261 C476 2.653 . S
C1291 C571 1.238 . S
C1296 C732 1.154 . S
C1321 C657 1.302 . S
C1326 C766 1.386 . S
C1351 C58 1.302 . S
C1356 C762 1.385 . S
C1381 C392 1.556 . S
C1386 C765 1.447 . S
C1416 C733 1.420 . S
C1411 C478 1.330 . S
C1446 C760 1.251 . S
C1441 C567 1.230 . S
C1471 C655 2.631 . S
C1476 C726 2.628 . S
C1501 C235 2.652 . S
C1506 C763 2.642 . S
C1536 C728 1.154 . S
C1531 C308 1.237 . S
C1561 C147 1.562 . S
C1566 C731 1.569 . S
C1591 C662 1.426 . S
C1596 C798 1.340 . S
C1621 C405 1.237 . S
C1626 C799 1.269 . S
C1656 C793 1.316 . S
C1651 C483 1.321 . S
C1686 C792 0.316 . S
C1681 C562 0.675 . S
C1711 C142 1.237 . S
C1716 C795 1.268 . S
C1746 C797 1.316 . S
C1741 C242 1.318 . S
C1771 C321 0.673 . S
C1776 C796 0.316 . S
C1801 C63 1.426 . S
C1806 C794 1.339 . S
C1831 C644 2.844 . S
C1836 C832 2.754 . S
C1866 C864 1.217 . S
C1861 C403 1.284 . S
C1891 C489 1.207 . S
C1896 C825 1.361 . S
C1921 C578 1.573 . S
C1926 C859 1.573 . S
C1956 C830 1.254 . S
C1951 C158 1.242 . S
C1981 C224 2.856 . S
C1986 C861 2.769 . S
C2016 C827 1.569 . S
C2011 C319 1.645 . S
C2046 C862 1.363 . S
C2041 C69 1.246 . S
C2076 C858 1.363 . S
C2071 C646 1.246 . S
C2101 C140 1.284 . S
C2106 C860 1.217 . S
C2131 C226 1.207 . S
C2136 C829 1.361 . S
C2166 C863 1.574 . S
C2161 C315 1.573 . S
C2191 C67 2.844 . S
C2196 C828 2.754 . S
C2221 C487 2.856 . S
C2226 C865 2.769 . S
C2256 C831 1.569 . S
C2251 C560 1.645 . S
C2286 C826 1.254 . S
C2281 C399 1.242 . S
