# Generated by pormake.
# Topology apo, (3,6)-cn, num edge types: 1
# Building blocks:
#     Node 0, Type 0, BuildingBlock: OLANEW_clean_sbu_2, # of connection points: 3
#     Node 1, Type 0, BuildingBlock: OLANEW_clean_sbu_2, # of connection points: 3
#     Node 2, Type 0, BuildingBlock: OLANEW_clean_sbu_2, # of connection points: 3
#     Node 3, Type 0, BuildingBlock: OLANEW_clean_sbu_2, # of connection points: 3
#     Node 4, Type 0, BuildingBlock: OLANEW_clean_sbu_2, # of connection points: 3
#     Node 5, Type 0, BuildingBlock: OLANEW_clean_sbu_2, # of connection points: 3
#     Node 6, Type 0, BuildingBlock: OLANEW_clean_sbu_2, # of connection points: 3
#     Node 7, Type 0, BuildingBlock: OLANEW_clean_sbu_2, # of connection points: 3
#     Node 8, Type 1, BuildingBlock: KUMBOL_clean_sbu_1, # of connection points: 6
#     Node 9, Type 1, BuildingBlock: KUMBOL_clean_sbu_1, # of connection points: 6
#     Node 10, Type 1, BuildingBlock: KUMBOL_clean_sbu_1, # of connection points: 6
#     Node 11, Type 1, BuildingBlock: KUMBOL_clean_sbu_1, # of connection points: 6
#     Edge 12, Type (0, 1), BuildingBlock: ZUJKAS_clean_linker_0, # of connection points: 2
#     Edge 13, Type (0, 1), BuildingBlock: ZUJKAS_clean_linker_0, # of connection points: 2
#     Edge 14, Type (0, 1), BuildingBlock: ZUJKAS_clean_linker_0, # of connection points: 2
#     Edge 15, Type (0, 1), BuildingBlock: ZUJKAS_clean_linker_0, # of connection points: 2
#     Edge 16, Type (0, 1), BuildingBlock: ZUJKAS_clean_linker_0, # of connection points: 2
#     Edge 17, Type (0, 1), BuildingBlock: ZUJKAS_clean_linker_0, # of connection points: 2
#     Edge 18, Type (0, 1), BuildingBlock: ZUJKAS_clean_linker_0, # of connection points: 2
#     Edge 19, Type (0, 1), BuildingBlock: ZUJKAS_clean_linker_0, # of connection points: 2
#     Edge 20, Type (0, 1), BuildingBlock: ZUJKAS_clean_linker_0, # of connection points: 2
#     Edge 21, Type (0, 1), BuildingBlock: ZUJKAS_clean_linker_0, # of connection points: 2
#     Edge 22, Type (0, 1), BuildingBlock: ZUJKAS_clean_linker_0, # of connection points: 2
#     Edge 23, Type (0, 1), BuildingBlock: ZUJKAS_clean_linker_0, # of connection points: 2
#     Edge 24, Type (0, 1), BuildingBlock: ZUJKAS_clean_linker_0, # of connection points: 2
#     Edge 25, Type (0, 1), BuildingBlock: ZUJKAS_clean_linker_0, # of connection points: 2
#     Edge 26, Type (0, 1), BuildingBlock: ZUJKAS_clean_linker_0, # of connection points: 2
#     Edge 27, Type (0, 1), BuildingBlock: ZUJKAS_clean_linker_0, # of connection points: 2
#     Edge 28, Type (0, 1), BuildingBlock: ZUJKAS_clean_linker_0, # of connection points: 2
#     Edge 29, Type (0, 1), BuildingBlock: ZUJKAS_clean_linker_0, # of connection points: 2
#     Edge 30, Type (0, 1), BuildingBlock: ZUJKAS_clean_linker_0, # of connection points: 2
#     Edge 31, Type (0, 1), BuildingBlock: ZUJKAS_clean_linker_0, # of connection points: 2
#     Edge 32, Type (0, 1), BuildingBlock: ZUJKAS_clean_linker_0, # of connection points: 2
#     Edge 33, Type (0, 1), BuildingBlock: ZUJKAS_clean_linker_0, # of connection points: 2
#     Edge 34, Type (0, 1), BuildingBlock: ZUJKAS_clean_linker_0, # of connection points: 2
#     Edge 35, Type (0, 1), BuildingBlock: ZUJKAS_clean_linker_0, # of connection points: 2
# Relax obj value: 0.029
# Max RMSD: 0.212
# Mean RMSD: 0.128
data_MOF--net-apo--node1-OLANEW_clean_sbu_2--node2-KUMBOL_clean_sbu_1--edge1-ZUJKAS_clean_linker_0
_symmetry_space_group_name_H-M    P1
_symmetry_Int_Tables_number       1
_symmetry_cell_setting            triclinic
loop_
_symmetry_equiv_pos_as_xyz
'x, y, z'
_cell_length_a     36.360832
_cell_length_b     57.577104
_cell_length_c     69.075818
_cell_angle_alpha  88.873454
_cell_angle_beta   90.043139
_cell_angle_gamma 90.281952
loop_
_atom_site_label
_atom_site_type_symbol
_atom_site_fract_x
_atom_site_fract_y
_atom_site_fract_z
_atom_type_partial_charge
O0 O 0.29381 0.38419 0.37893 0.0
Cd1 Cd 0.27388 0.35162 0.3997 0.0
O2 O 0.29609 0.40824 0.40328 0.0
Cd3 Cd 0.2863 0.38291 0.42665 0.0
O4 O 0.30017 0.37461 0.45677 0.0
C5 C 0.3338 0.37756 0.46118 0.0
O6 O 0.35702 0.38368 0.44741 0.0
C7 C 0.29921 0.40451 0.38528 0.0
C8 C 0.23644 0.31809 0.37854 0.0
O9 O 0.21938 0.33529 0.3858 0.0
O10 O 0.27122 0.3167 0.38134 0.0
O11 O 0.22954 0.14443 0.94318 0.0
Cd12 Cd 0.23595 0.14482 0.90783 0.0
O13 O 0.25242 0.10923 0.9461 0.0
Cd14 Cd 0.25477 0.10304 0.91505 0.0
O15 O 0.23684 0.08274 0.89032 0.0
C16 C 0.22981 0.06151 0.89422 0.0
O17 O 0.2352 0.0537 0.912 0.0
C18 C 0.23942 0.12729 0.95385 0.0
C19 C 0.28234 0.17937 0.89244 0.0
O20 O 0.24808 0.18324 0.89526 0.0
O21 O 0.29484 0.15929 0.89727 0.0
O22 O 0.81306 0.11922 0.62428 0.0
Cd23 Cd 0.78874 0.15072 0.60372 0.0
O24 O 0.87015 0.12433 0.61437 0.0
Cd25 Cd 0.85627 0.14641 0.58932 0.0
O26 O 0.85798 0.15056 0.55774 0.0
C27 C 0.86096 0.13163 0.54871 0.0
O28 O 0.86165 0.11203 0.55879 0.0
C29 C 0.84704 0.11424 0.62554 0.0
C30 C 0.74632 0.18164 0.62502 0.0
O31 O 0.73159 0.16404 0.61693 0.0
O32 O 0.78108 0.18465 0.62302 0.0
O33 O 0.74845 0.35727 0.05728 0.0
Cd34 Cd 0.7628 0.36281 0.0916 0.0
O35 O 0.7436 0.39507 0.05272 0.0
Cd36 Cd 0.74784 0.4046 0.08301 0.0
O37 O 0.72718 0.42535 0.10666 0.0
C38 C 0.71247 0.4444 0.10134 0.0
O39 O 0.71235 0.45006 0.08281 0.0
C40 C 0.74316 0.37468 0.04599 0.0
C41 C 0.79706 0.32549 0.11063 0.0
O42 O 0.76203 0.32785 0.11114 0.0
O43 O 0.81579 0.34047 0.10077 0.0
O44 O 0.69987 0.61439 0.62927 0.0
Cd45 Cd 0.70947 0.6494 0.6092 0.0
O46 O 0.70915 0.59066 0.60521 0.0
Cd47 Cd 0.71637 0.61751 0.58281 0.0
O48 O 0.70923 0.62954 0.5529 0.0
C49 C 0.67768 0.62615 0.54552 0.0
O50 O 0.65159 0.61711 0.5565 0.0
C51 C 0.70193 0.59384 0.62296 0.0
C52 C 0.75189 0.68258 0.62804 0.0
O53 O 0.7171 0.68112 0.6308 0.0
O54 O 0.76669 0.66834 0.61636 0.0
O55 O 0.78717 0.89562 0.12519 0.0
Cd56 Cd 0.7589 0.86529 0.10566 0.0
O57 O 0.77667 0.92229 0.10264 0.0
Cd58 Cd 0.75837 0.89853 0.08041 0.0
O59 O 0.77 0.88976 0.05048 0.0
C60 C 0.80373 0.89167 0.04588 0.0
O61 O 0.82759 0.89712 0.05937 0.0
C62 C 0.78862 0.91672 0.11939 0.0
C63 C 0.72004 0.83207 0.12754 0.0
O64 O 0.75408 0.8292 0.12344 0.0
O65 O 0.70447 0.85076 0.12144 0.0
O66 O 0.22328 0.89088 0.38069 0.0
Cd67 Cd 0.2472 0.86194 0.40386 0.0
O68 O 0.23132 0.91942 0.40103 0.0
Cd69 Cd 0.24494 0.89733 0.426 0.0
O70 O 0.23827 0.88489 0.45585 0.0
C71 C 0.20545 0.8832 0.46205 0.0
O72 O 0.17827 0.88805 0.45012 0.0
C73 C 0.22203 0.91243 0.38436 0.0
C74 C 0.28393 0.82582 0.38573 0.0
O75 O 0.24979 0.82397 0.39016 0.0
O76 O 0.30064 0.84475 0.38983 0.0
O77 O 0.30432 0.6069 0.87853 0.0
Cd78 Cd 0.27424 0.63633 0.89823 0.0
O79 O 0.29528 0.57979 0.90099 0.0
Cd80 Cd 0.27758 0.6028 0.92387 0.0
O81 O 0.28176 0.61343 0.95398 0.0
C82 C 0.3135 0.61193 0.96163 0.0
O83 O 0.34118 0.6052 0.95092 0.0
C84 C 0.30646 0.58576 0.88417 0.0
C85 C 0.23591 0.67035 0.87694 0.0
O86 O 0.26926 0.67372 0.88228 0.0
O87 O 0.22085 0.65079 0.8814 0.0
C88 C 0.90178 0.1004 0.24307 0.0
C89 C 0.8954 0.05926 0.25067 0.0
C90 C 0.91513 0.08031 0.2518 0.0
C91 C 0.86282 0.05848 0.23979 0.0
C92 C 0.86818 0.09994 0.23287 0.0
C93 C 0.84925 0.07879 0.23088 0.0
N94 N 0.92023 0.12067 0.24579 0.0
C95 C 0.90439 0.1413 0.24053 0.0
C96 C 0.85382 0.12091 0.22569 0.0
C97 C 0.87167 0.14173 0.22988 0.0
Gd98 Gd 0.06144 0.12076 0.22437 0.0
Gd99 Gd 0.97647 0.11786 0.26272 0.0
N100 N 0.94685 0.08161 0.2621 0.0
C101 C 0.90862 0.03978 0.26091 0.0
C102 C 0.95891 0.06305 0.27292 0.0
C103 C 0.94024 0.04178 0.2723 0.0
H104 H 0.98321 0.06468 0.2818 0.0
H105 H 0.95022 0.02696 0.28059 0.0
H106 H 0.03521 0.16364 0.19299 0.0
H107 H 0.91649 0.15751 0.24485 0.0
H108 H 0.04869 0.20509 0.18708 0.0
H109 H 0.89422 0.02328 0.26043 0.0
H110 H 0.84748 0.0424 0.23852 0.0
H111 H 0.13227 0.0992 0.24899 0.0
H112 H 0.82814 0.1213 0.21773 0.0
H113 H 0.85985 0.15815 0.22527 0.0
H114 H 0.15371 0.21992 0.22712 0.0
H115 H 0.82356 0.07806 0.22295 0.0
H116 H 0.20753 0.15477 0.2607 0.0
H117 H 0.19034 0.11318 0.26368 0.0
N118 N 0.11689 0.13261 0.23837 0.0
C119 C 0.12666 0.15522 0.23571 0.0
C120 C 0.13975 0.11734 0.2477 0.0
C121 C 0.18218 0.1487 0.25424 0.0
C122 C 0.17256 0.1252 0.25596 0.0
C123 C 0.15934 0.16399 0.24382 0.0
H124 H 0.19331 0.19467 0.24723 0.0
N125 N 0.07435 0.1598 0.21573 0.0
C126 C 0.10431 0.16936 0.22435 0.0
C127 C 0.09297 0.20597 0.20778 0.0
C128 C 0.11424 0.19276 0.22076 0.0
C129 C 0.05586 0.17198 0.20167 0.0
C130 C 0.06412 0.19538 0.19789 0.0
O131 O 0.98874 0.08846 0.2424 0.0
O132 O 0.00649 0.10708 0.21452 0.0
O133 O 0.09063 0.12282 0.19692 0.0
O134 O 0.08647 0.09003 0.21247 0.0
O135 O 0.0289 0.10004 0.27264 0.0
O136 O 0.06091 0.0895 0.24485 0.0
O137 O 0.06849 0.13281 0.25519 0.0
O138 O 0.01316 0.14952 0.26162 0.0
O139 O 0.98218 0.11515 0.29413 0.0
O140 O 0.93471 0.13182 0.28155 0.0
O141 O 0.00673 0.13612 0.21512 0.0
O142 O 0.98203 0.15005 0.24333 0.0
C143 C 0.98898 0.0901 0.22347 0.0
C144 C 0.05276 0.08691 0.26344 0.0
C145 C 0.0842 0.08937 0.17819 0.0
C146 C 0.08997 0.08626 0.14308 0.0
C147 C 0.04358 0.06364 0.1606 0.0
C148 C 0.05509 0.07323 0.178 0.0
C149 C 0.0608 0.07009 0.14324 0.0
C150 C 0.10161 0.09573 0.1607 0.0
C151 C 0.09563 0.10051 0.19629 0.0
C152 C 0.14586 0.20192 0.22956 0.0
C153 C 0.16845 0.18754 0.241 0.0
H154 H 0.09966 0.22401 0.20463 0.0
C155 C 0.04899 0.14885 0.26355 0.0
C156 C 0.98595 0.15092 0.22437 0.0
C157 C 0.9259 0.11142 0.31106 0.0
C158 C 0.90429 0.10399 0.34411 0.0
C159 C 0.8773 0.08318 0.31723 0.0
C160 C 0.90023 0.09519 0.30431 0.0
C161 C 0.87925 0.08751 0.33699 0.0
C162 C 0.92775 0.11586 0.33098 0.0
C163 C 0.9501 0.12418 0.29739 0.0
H164 H 0.02113 0.05122 0.16058 0.0
H165 H 0.04109 0.06809 0.19124 0.0
H166 H 0.0515 0.06227 0.12997 0.0
H167 H 0.12364 0.10849 0.1608 0.0
H168 H 0.85758 0.07071 0.31187 0.0
H169 H 0.89746 0.09199 0.28905 0.0
H170 H 0.86048 0.07834 0.34665 0.0
H171 H 0.94739 0.1285 0.33622 0.0
C172 C 0.62815 0.41076 0.75506 0.0
C173 C 0.62099 0.44907 0.76852 0.0
C174 C 0.60955 0.42568 0.76724 0.0
C175 C 0.64986 0.45744 0.75678 0.0
C176 C 0.65816 0.41888 0.74387 0.0
C177 C 0.66848 0.44237 0.74455 0.0
N178 N 0.61671 0.38829 0.75405 0.0
C179 C 0.63541 0.37267 0.74318 0.0
C180 C 0.67679 0.40314 0.73222 0.0
C181 C 0.66556 0.3799 0.73202 0.0
Gd182 Gd 0.47178 0.37892 0.74217 0.0
Gd183 Gd 0.56634 0.37777 0.77354 0.0
N184 N 0.58167 0.41711 0.77851 0.0
C185 C 0.60398 0.46317 0.78209 0.0
C186 C 0.56813 0.43013 0.7932 0.0
C187 C 0.57805 0.4535 0.79479 0.0
H188 H 0.5502 0.42257 0.80405 0.0
H189 H 0.56626 0.4639 0.80608 0.0
H190 H 0.47887 0.3209 0.73668 0.0
H191 H 0.62656 0.35474 0.74295 0.0
H192 H 0.44206 0.28581 0.74379 0.0
H193 H 0.61195 0.48122 0.78351 0.0
H194 H 0.65864 0.47542 0.75742 0.0
H195 H 0.4204 0.4238 0.75543 0.0
H196 H 0.69996 0.40874 0.72341 0.0
H197 H 0.67999 0.36759 0.72318 0.0
H198 H 0.33021 0.3148 0.77087 0.0
H199 H 0.69111 0.449 0.73582 0.0
H200 H 0.31877 0.39709 0.77815 0.0
H201 H 0.35976 0.43047 0.7705 0.0
N202 N 0.41421 0.38716 0.75539 0.0
C203 C 0.39191 0.36859 0.75913 0.0
C204 C 0.403 0.40917 0.75918 0.0
C205 C 0.34543 0.39409 0.7717 0.0
C206 C 0.36854 0.41298 0.76746 0.0
C207 C 0.35695 0.37156 0.76751 0.0
H208 H 0.30789 0.35396 0.77808 0.0
N209 N 0.4391 0.3441 0.74775 0.0
C210 C 0.40451 0.34645 0.755 0.0
C211 C 0.39633 0.30477 0.75526 0.0
C212 C 0.38243 0.3268 0.75922 0.0
C213 C 0.45227 0.32273 0.74325 0.0
C214 C 0.43128 0.30276 0.74712 0.0
O215 O 0.5648 0.38936 0.74182 0.0
O216 O 0.51092 0.40911 0.73985 0.0
O217 O 0.47189 0.37133 0.71149 0.0
O218 O 0.43226 0.39541 0.72287 0.0
O219 O 0.51564 0.39474 0.78656 0.0
O220 O 0.48743 0.4102 0.75939 0.0
O221 O 0.4679 0.36174 0.77176 0.0
O222 O 0.52571 0.34956 0.78197 0.0
O223 O 0.58947 0.37787 0.80318 0.0
O224 O 0.61073 0.35484 0.78113 0.0
O225 O 0.51811 0.35639 0.73132 0.0
O226 O 0.55341 0.345 0.75773 0.0
C227 C 0.54544 0.40682 0.735 0.0
C228 C 0.49317 0.40985 0.77818 0.0
C229 C 0.45432 0.4027 0.69132 0.0
C230 C 0.45164 0.41228 0.6568 0.0
C231 C 0.48122 0.43871 0.6791 0.0
C232 C 0.47299 0.42365 0.69457 0.0
C233 C 0.47075 0.4331 0.6603 0.0
C234 C 0.44363 0.3971 0.67247 0.0
C235 C 0.44629 0.38643 0.70742 0.0
C236 C 0.34751 0.32971 0.76749 0.0
C237 C 0.33481 0.35202 0.77161 0.0
H238 H 0.38028 0.28923 0.75836 0.0
C239 C 0.48956 0.34867 0.78255 0.0
C240 C 0.54284 0.34282 0.73967 0.0
C241 C 0.64125 0.35212 0.81201 0.0
C242 C 0.66643 0.34537 0.84443 0.0
C243 C 0.695 0.32766 0.81661 0.0
C244 C 0.66896 0.33795 0.80445 0.0
C245 C 0.69373 0.33124 0.83647 0.0
C246 C 0.64034 0.35603 0.83207 0.0
C247 C 0.61319 0.36194 0.79876 0.0
H248 H 0.4955 0.45487 0.68173 0.0
H249 H 0.481 0.4284 0.70904 0.0
H250 H 0.47699 0.44523 0.64857 0.0
H251 H 0.42943 0.38082 0.67 0.0
H252 H 0.71622 0.31681 0.81062 0.0
H253 H 0.67051 0.33471 0.78908 0.0
H254 H 0.71444 0.32315 0.84561 0.0
H255 H 0.61901 0.36681 0.83809 0.0
C256 C 0.88384 0.86709 0.74915 0.0
C257 C 0.87061 0.82659 0.75688 0.0
C258 C 0.89344 0.84634 0.75825 0.0
C259 C 0.83877 0.82771 0.74539 0.0
C260 C 0.85092 0.8686 0.73839 0.0
C261 C 0.82899 0.84867 0.73612 0.0
N262 N 0.90545 0.8861 0.75186 0.0
C263 C 0.89326 0.90759 0.74616 0.0
C264 C 0.84031 0.89028 0.73086 0.0
C265 C 0.86119 0.90994 0.73513 0.0
Gd266 Gd 0.04252 0.87701 0.72955 0.0
Gd267 Gd 0.96061 0.87951 0.7692 0.0
N268 N 0.92492 0.8456 0.76879 0.0
C269 C 0.88031 0.80641 0.7673 0.0
C270 C 0.93375 0.8264 0.7797 0.0
C271 C 0.91175 0.80643 0.77898 0.0
H272 H 0.95822 0.82646 0.78861 0.0
H273 H 0.91915 0.79104 0.78732 0.0
H274 H 0.01917 0.91313 0.69259 0.0
H275 H 0.90774 0.92311 0.75031 0.0
H276 H 0.03576 0.95247 0.68058 0.0
H277 H 0.86346 0.79087 0.76665 0.0
H278 H 0.82116 0.81262 0.74387 0.0
H279 H 0.11492 0.85732 0.75423 0.0
H280 H 0.81524 0.89219 0.7225 0.0
H281 H 0.85226 0.92696 0.7302 0.0
H282 H 0.14116 0.97309 0.71865 0.0
H283 H 0.80386 0.84944 0.7277 0.0
H284 H 0.19277 0.91312 0.75939 0.0
H285 H 0.17443 0.87236 0.76654 0.0
N286 N 0.10009 0.8894 0.74076 0.0
C287 C 0.11072 0.91125 0.73559 0.0
C288 C 0.12311 0.87506 0.75099 0.0
C289 C 0.16685 0.90658 0.75394 0.0
C290 C 0.15663 0.88353 0.75797 0.0
C291 C 0.14411 0.92063 0.74231 0.0
H292 H 0.17953 0.95103 0.74188 0.0
N293 N 0.05891 0.913 0.71519 0.0
C294 C 0.08913 0.92358 0.72255 0.0
C295 C 0.07995 0.95663 0.70105 0.0
C296 C 0.10033 0.94578 0.71584 0.0
C297 C 0.041 0.92257 0.69963 0.0
C298 C 0.05064 0.94473 0.69262 0.0
O299 O 0.96885 0.84926 0.74914 0.0
O300 O 0.98462 0.86801 0.72119 0.0
O301 O 0.07112 0.87183 0.70201 0.0
O302 O 0.05598 0.84223 0.72078 0.0
O303 O 0.01073 0.85966 0.77951 0.0
O304 O 0.04153 0.8476 0.75185 0.0
O305 O 0.05436 0.89024 0.75969 0.0
O306 O 0.00154 0.90905 0.76817 0.0
O307 O 0.96676 0.87603 0.80036 0.0
O308 O 0.91966 0.89386 0.78841 0.0
O309 O 0.99 0.89639 0.72184 0.0
O310 O 0.97086 0.91181 0.7506 0.0
C311 C 0.96719 0.85113 0.73022 0.0
C312 C 0.03391 0.84595 0.77053 0.0
C313 C 0.08776 0.83297 0.69113 0.0
C314 C 0.11279 0.82424 0.65928 0.0
C315 C 0.1075 0.7938 0.68404 0.0
C316 C 0.09264 0.80963 0.69685 0.0
C317 C 0.11747 0.80099 0.66537 0.0
C318 C 0.0981 0.84023 0.67234 0.0
C319 C 0.07139 0.8494 0.70476 0.0
C320 C 0.13236 0.95591 0.72344 0.0
C321 C 0.15424 0.94334 0.73665 0.0
H322 H 0.08762 0.97369 0.69547 0.0
C323 C 0.03748 0.90715 0.76846 0.0
C324 C 0.97554 0.91339 0.73171 0.0
C325 C 0.9425 0.90651 0.81828 0.0
C326 C 0.93304 0.92017 0.85107 0.0
C327 C 0.96766 0.94369 0.82772 0.0
C328 C 0.96229 0.92684 0.81371 0.0
C329 C 0.95326 0.94039 0.84634 0.0
C330 C 0.92786 0.90327 0.83689 0.0
C331 C 0.93769 0.88822 0.80403 0.0
H332 H 0.11127 0.77587 0.68859 0.0
H333 H 0.08502 0.80357 0.71125 0.0
H334 H 0.12919 0.78838 0.65574 0.0
H335 H 0.09394 0.85813 0.66775 0.0
H336 H 0.98298 0.95935 0.82413 0.0
H337 H 0.97358 0.92963 0.79936 0.0
H338 H 0.95753 0.95375 0.85694 0.0
H339 H 0.91299 0.88737 0.8404 0.0
C340 C 0.61587 0.63757 0.25254 0.0
C341 C 0.62102 0.67816 0.26098 0.0
C342 C 0.60121 0.65702 0.26128 0.0
C343 C 0.65532 0.6795 0.25168 0.0
C344 C 0.65026 0.63888 0.24315 0.0
C345 C 0.66984 0.65995 0.24274 0.0
N346 N 0.59612 0.61746 0.25291 0.0
C347 C 0.60955 0.59787 0.24477 0.0
C348 C 0.66391 0.61894 0.23442 0.0
C349 C 0.64351 0.59833 0.23531 0.0
Gd350 Gd 0.44601 0.62444 0.2382 0.0
Gd351 Gd 0.54007 0.61812 0.26946 0.0
N352 N 0.56767 0.65527 0.27002 0.0
C353 C 0.60598 0.69729 0.27023 0.0
C354 C 0.55416 0.67349 0.28012 0.0
C355 C 0.57263 0.69485 0.28004 0.0
H356 H 0.52986 0.67167 0.28884 0.0
H357 H 0.56144 0.70931 0.28786 0.0
H358 H 0.45913 0.57839 0.20849 0.0
H359 H 0.59445 0.58176 0.24601 0.0
H360 H 0.43639 0.53848 0.20565 0.0
H361 H 0.62031 0.71383 0.27029 0.0
H362 H 0.67094 0.69557 0.25141 0.0
H363 H 0.38914 0.65042 0.26875 0.0
H364 H 0.69024 0.61924 0.22708 0.0
H365 H 0.6541 0.58274 0.22888 0.0
H366 H 0.33707 0.53321 0.25103 0.0
H367 H 0.6963 0.6613 0.2356 0.0
H368 H 0.30572 0.60142 0.28592 0.0
H369 H 0.33325 0.64072 0.28773 0.0
N370 N 0.39318 0.61692 0.25667 0.0
C371 C 0.37786 0.59545 0.25491 0.0
C372 C 0.37729 0.63324 0.26798 0.0
C373 C 0.33008 0.60563 0.27751 0.0
C374 C 0.34561 0.62782 0.27864 0.0
C375 C 0.34614 0.58913 0.26555 0.0
H376 H 0.30777 0.56127 0.27243 0.0
N377 N 0.42528 0.5862 0.2327 0.0
C378 C 0.39481 0.57954 0.24294 0.0
C379 C 0.39592 0.54185 0.22813 0.0
C380 C 0.37979 0.55702 0.24117 0.0
C381 C 0.43867 0.5722 0.21862 0.0
C382 C 0.42498 0.54966 0.21652 0.0
O383 O 0.54392 0.63568 0.23993 0.0
O384 O 0.48793 0.65343 0.23492 0.0
O385 O 0.42855 0.62677 0.20771 0.0
O386 O 0.40329 0.64843 0.22964 0.0
O387 O 0.49233 0.63748 0.28289 0.0
O388 O 0.46202 0.65436 0.25685 0.0
O389 O 0.44493 0.60816 0.26842 0.0
O390 O 0.49933 0.58854 0.27076 0.0
O391 O 0.55024 0.62029 0.30045 0.0
O392 O 0.5783 0.59455 0.28364 0.0
O393 O 0.49496 0.60709 0.22421 0.0
O394 O 0.52414 0.58875 0.24999 0.0
C395 C 0.52368 0.6523 0.23229 0.0
C396 C 0.46971 0.65312 0.27541 0.0
C397 C 0.37992 0.65375 0.19709 0.0
C398 C 0.35457 0.65668 0.16433 0.0
C399 C 0.33411 0.68302 0.18918 0.0
C400 C 0.35751 0.67233 0.20256 0.0
C401 C 0.33261 0.67532 0.1702 0.0
C402 C 0.37844 0.64601 0.17789 0.0
C403 C 0.40432 0.64262 0.2116 0.0
C404 C 0.34868 0.55051 0.25208 0.0
C405 C 0.33186 0.56653 0.26419 0.0
H406 H 0.38519 0.52443 0.22635 0.0
C407 C 0.46403 0.59011 0.27428 0.0
C408 C 0.51702 0.59091 0.23136 0.0
C409 C 0.61118 0.61101 0.30964 0.0
C410 C 0.64531 0.61973 0.33911 0.0
C411 C 0.67666 0.61945 0.30805 0.0
C412 C 0.6438 0.61361 0.29889 0.0
C413 C 0.67752 0.62247 0.32803 0.0
C414 C 0.6121 0.61416 0.32974 0.0
C415 C 0.57615 0.60474 0.30023 0.0
H416 H 0.31711 0.6974 0.19352 0.0
H417 H 0.35807 0.67868 0.21722 0.0
H418 H 0.31452 0.68417 0.16004 0.0
H419 H 0.39532 0.63153 0.17361 0.0
H420 H 0.70162 0.62151 0.29964 0.0
H421 H 0.64414 0.61095 0.28345 0.0
H422 H 0.70336 0.62703 0.33481 0.0
H423 H 0.58712 0.61176 0.33812 0.0
H424 H 0.21944 0.95962 0.38717 0.0
H425 H 0.1926 0.98751 0.36425 0.0
H426 H 0.16653 0.93202 0.32546 0.0
H427 H 0.19314 0.90378 0.34844 0.0
H428 H 0.20986 0.99729 0.32475 0.0
H429 H 0.06678 0.96452 0.33489 0.0
H430 H 0.10362 0.95692 0.35134 0.0
H431 H 0.10038 0.94331 0.32823 0.0
C432 C 0.20818 0.95327 0.37374 0.0
C433 C 0.20819 0.92941 0.36972 0.0
C434 C 0.19291 0.96928 0.36064 0.0
C435 C 0.17718 0.96178 0.34331 0.0
C436 C 0.17807 0.93809 0.33892 0.0
H437 H 0.10347 0.05584 0.25032 0.0
H438 H 0.13417 0.02495 0.2688 0.0
C439 C 0.19344 0.92201 0.35202 0.0
C440 C 0.15914 0.97887 0.33017 0.0
H441 H 0.07534 0.99567 0.31267 0.0
C442 C 0.1805 0.99688 0.32197 0.0
C443 C 0.12077 0.97838 0.32682 0.0
C444 C 0.09636 0.95988 0.33587 0.0
C445 C 0.16444 0.01455 0.31056 0.0
C446 C 0.12609 0.01401 0.30716 0.0
C447 C 0.10477 0.99592 0.31525 0.0
C448 C 0.10735 0.03257 0.29586 0.0
C449 C 0.18839 0.03403 0.30272 0.0
C450 C 0.08161 0.04682 0.3049 0.0
C451 C 0.06397 0.06452 0.29441 0.0
C452 C 0.07154 0.06819 0.27461 0.0
C453 C 0.09709 0.05365 0.26556 0.0
C454 C 0.1148 0.03601 0.2761 0.0
H455 H 0.21572 0.03444 0.30992 0.0
H456 H 0.19283 0.03162 0.28699 0.0
H457 H 0.17485 0.05109 0.30459 0.0
H458 H 0.07542 0.04436 0.32015 0.0
H459 H 0.04442 0.07529 0.30187 0.0
H460 H 0.34868 0.5928 0.85162 0.0
H461 H 0.38086 0.56325 0.83297 0.0
H462 H 0.33547 0.50942 0.87016 0.0
H463 H 0.30356 0.53866 0.88895 0.0
H464 H 0.43235 0.52576 0.85286 0.0
H465 H 0.31371 0.49271 0.81018 0.0
H466 H 0.3153 0.52194 0.81924 0.0
H467 H 0.30659 0.49794 0.83554 0.0
C468 C 0.34525 0.57466 0.8557 0.0
C469 C 0.32358 0.56809 0.87178 0.0
C470 C 0.36375 0.55785 0.8451 0.0
C471 C 0.36042 0.53424 0.85024 0.0
C472 C 0.33823 0.52758 0.86597 0.0
H473 H 0.47925 0.41002 0.81724 0.0
H474 H 0.44861 0.44072 0.83544 0.0
C475 C 0.32006 0.54434 0.87668 0.0
C476 C 0.38091 0.51645 0.83959 0.0
H477 H 0.36986 0.47255 0.80757 0.0
C478 C 0.4188 0.51413 0.84293 0.0
C479 C 0.36299 0.50139 0.82669 0.0
C480 C 0.32242 0.50355 0.82252 0.0
C481 C 0.43925 0.49687 0.83376 0.0
C482 C 0.42123 0.48166 0.82102 0.0
C483 C 0.38343 0.48416 0.81752 0.0
C484 C 0.44142 0.4636 0.81053 0.0
C485 C 0.48 0.49507 0.83752 0.0
C486 C 0.44767 0.46652 0.79064 0.0
C487 C 0.46532 0.44924 0.78033 0.0
C488 C 0.47654 0.42852 0.78965 0.0
C489 C 0.47086 0.42579 0.80969 0.0
C490 C 0.45339 0.44325 0.82007 0.0
H491 H 0.4906 0.50984 0.84604 0.0
H492 H 0.48576 0.47867 0.84566 0.0
H493 H 0.49523 0.49448 0.82361 0.0
H494 H 0.43874 0.48216 0.78307 0.0
H495 H 0.4699 0.45208 0.76496 0.0
H496 H 0.68369 0.59375 0.66152 0.0
H497 H 0.66242 0.56061 0.68136 0.0
H498 H 0.67842 0.51523 0.63322 0.0
H499 H 0.69964 0.54809 0.61328 0.0
H500 H 0.60633 0.5142 0.65028 0.0
H501 H 0.71759 0.50311 0.70495 0.0
H502 H 0.70089 0.53223 0.70126 0.0
H503 H 0.72471 0.51816 0.68204 0.0
C504 C 0.68328 0.57666 0.65524 0.0
C505 C 0.69321 0.57361 0.63577 0.0
C506 C 0.67127 0.55774 0.66663 0.0
C507 C 0.66909 0.53549 0.65876 0.0
C508 C 0.68006 0.53227 0.63956 0.0
H509 H 0.60257 0.40236 0.70983 0.0
H510 H 0.63395 0.43351 0.69137 0.0
C511 C 0.69218 0.5511 0.6282 0.0
C512 C 0.65229 0.51598 0.6699 0.0
H513 H 0.66296 0.481 0.71 0.0
C514 C 0.61882 0.50684 0.66327 0.0
C515 C 0.6687 0.50647 0.68681 0.0
C516 C 0.70511 0.51531 0.69419 0.0
C517 C 0.60099 0.48864 0.67331 0.0
C518 C 0.61707 0.47941 0.69037 0.0
C519 C 0.65079 0.48825 0.6969 0.0
C520 C 0.59876 0.46075 0.70174 0.0
C521 C 0.56487 0.47953 0.66577 0.0
C522 C 0.56871 0.46591 0.71357 0.0
C523 C 0.55111 0.44827 0.72423 0.0
C524 C 0.56334 0.42522 0.7232 0.0
C525 C 0.59307 0.42006 0.71109 0.0
C526 C 0.61089 0.43775 0.70055 0.0
H527 H 0.55922 0.48574 0.65073 0.0
H528 H 0.56455 0.46023 0.66612 0.0
H529 H 0.54234 0.48555 0.67524 0.0
H530 H 0.55902 0.48361 0.7146 0.0
H531 H 0.52828 0.45271 0.7335 0.0
H532 H 0.79918 0.96254 0.11006 0.0
H533 H 0.83337 0.99141 0.12822 0.0
H534 H 0.85248 0.94088 0.17399 0.0
H535 H 0.81884 0.91158 0.15569 0.0
H536 H 0.82238 0.00925 0.16417 0.0
H537 H 0.95619 0.96338 0.16118 0.0
H538 H 0.91725 0.95518 0.14657 0.0
H539 H 0.91946 0.94641 0.17167 0.0
C540 C 0.81048 0.95751 0.12403 0.0
C541 C 0.80649 0.93465 0.13135 0.0
C542 C 0.83005 0.97407 0.13438 0.0
C543 C 0.84609 0.96817 0.15226 0.0
C544 C 0.84107 0.94563 0.15999 0.0
H545 H 0.97746 0.04491 0.23389 0.0
H546 H 0.94224 0.01574 0.21639 0.0
C547 C 0.82157 0.92897 0.14958 0.0
C548 C 0.8681 0.98573 0.16266 0.0
H549 H 0.95406 0.99721 0.18011 0.0
C550 C 0.85119 0.00664 0.16763 0.0
C551 C 0.90574 0.98233 0.16705 0.0
C552 C 0.9259 0.96072 0.1612 0.0
C553 C 0.87073 0.02412 0.17715 0.0
C554 C 0.90832 0.02069 0.18161 0.0
C555 C 0.92523 0.99977 0.17667 0.0
C556 C 0.93036 0.03836 0.19182 0.0
C557 C 0.85076 0.04592 0.18266 0.0
C558 C 0.93599 0.06062 0.18362 0.0
C559 C 0.95574 0.07741 0.19374 0.0
C560 C 0.97016 0.07214 0.21215 0.0
C561 C 0.96576 0.04959 0.21994 0.0
C562 C 0.94593 0.03287 0.2099 0.0
H563 H 0.82049 0.04323 0.18309 0.0
H564 H 0.86003 0.052 0.19698 0.0
H565 H 0.85679 0.05984 0.17176 0.0
H566 H 0.9249 0.06504 0.16948 0.0
H567 H 0.95907 0.09462 0.18733 0.0
H568 H 0.80567 0.08017 0.64324 0.0
H569 H 0.82765 0.04724 0.66279 0.0
H570 H 0.93871 0.07353 0.65829 0.0
H571 H 0.9171 0.10598 0.63807 0.0
H572 H 0.93739 0.02941 0.65058 0.0
H573 H 0.85851 0.04149 0.71806 0.0
H574 H 0.82895 0.03968 0.69736 0.0
H575 H 0.86091 0.06355 0.69919 0.0
C576 C 0.8347 0.07912 0.64666 0.0
C577 C 0.85964 0.0957 0.63911 0.0
C578 C 0.84722 0.06033 0.65795 0.0
C579 C 0.8848 0.05804 0.6623 0.0
C580 C 0.90959 0.07492 0.65517 0.0
H581 H 0.97385 0.9573 0.74535 0.0
H582 H 0.9529 0.99257 0.7284 0.0
C583 C 0.89718 0.09349 0.64364 0.0
C584 C 0.89869 0.03728 0.67311 0.0
H585 H 0.88702 0.00445 0.7144 0.0
C586 C 0.92653 0.02407 0.66461 0.0
C587 C 0.88494 0.03044 0.69155 0.0
C588 C 0.85697 0.04468 0.70216 0.0
C589 C 0.94061 0.00409 0.67385 0.0
C590 C 0.92556 0.9966 0.69181 0.0
C591 C 0.89817 0.01 0.70049 0.0
C592 C 0.93827 0.97513 0.70198 0.0
C593 C 0.97211 0.99157 0.66449 0.0
C594 C 0.9366 0.95354 0.69287 0.0
C595 C 0.94895 0.93343 0.70246 0.0
C596 C 0.96263 0.93453 0.72143 0.0
C597 C 0.96348 0.95602 0.7307 0.0
C598 C 0.95152 0.97615 0.72104 0.0
H599 H 0.98709 0.00301 0.65399 0.0
H600 H 0.99195 0.9851 0.67554 0.0
H601 H 0.96127 0.97649 0.65648 0.0
H602 H 0.92547 0.95219 0.67839 0.0
H603 H 0.94736 0.91699 0.69514 0.0
H604 H 0.70403 0.43693 0.14043 0.0
H605 H 0.66978 0.46091 0.16309 0.0
H606 H 0.64476 0.50959 0.11676 0.0
H607 H 0.67848 0.48576 0.09404 0.0
H608 H 0.68007 0.50839 0.1725 0.0
H609 H 0.54322 0.4927 0.13941 0.0
H610 H 0.58278 0.47498 0.13435 0.0
H611 H 0.57761 0.50292 0.12261 0.0
C612 C 0.6913 0.45277 0.13508 0.0
C613 C 0.69373 0.45934 0.1154 0.0
C614 C 0.67176 0.46642 0.14803 0.0
C615 C 0.6542 0.48676 0.14149 0.0
C616 C 0.65745 0.49368 0.12199 0.0
H617 H 0.52887 0.59692 0.19253 0.0
H618 H 0.56181 0.57088 0.17097 0.0
C619 C 0.67693 0.48009 0.10906 0.0
C620 C 0.63262 0.5009 0.15501 0.0
H621 H 0.54659 0.52224 0.16295 0.0
C622 C 0.65084 0.51128 0.17054 0.0
C623 C 0.59449 0.50462 0.15234 0.0
C624 C 0.57323 0.49306 0.13639 0.0
C625 C 0.63207 0.52583 0.18322 0.0
C626 C 0.59406 0.52975 0.1804 0.0
C627 C 0.57577 0.5192 0.16499 0.0
C628 C 0.5729 0.54493 0.19326 0.0
C629 C 0.65317 0.53746 0.19919 0.0
C630 C 0.56751 0.5386 0.21275 0.0
C631 C 0.54858 0.55332 0.22503 0.0
C632 C 0.53482 0.57467 0.21803 0.0
C633 C 0.53924 0.58062 0.19834 0.0
C634 C 0.5581 0.56582 0.18604 0.0
H635 H 0.68339 0.53626 0.19709 0.0
H636 H 0.64551 0.55606 0.19999 0.0
H637 H 0.64618 0.52896 0.21327 0.0
H638 H 0.57813 0.52231 0.21848 0.0
H639 H 0.54509 0.54812 0.24008 0.0
H640 H 0.31322 0.44952 0.39458 0.0
H641 H 0.33746 0.48053 0.37364 0.0
H642 H 0.33701 0.43435 0.32526 0.0
H643 H 0.31247 0.40303 0.34614 0.0
H644 H 0.40559 0.47721 0.35341 0.0
H645 H 0.28758 0.4951 0.30406 0.0
H646 H 0.28216 0.48029 0.32721 0.0
H647 H 0.30092 0.46518 0.30703 0.0
C648 C 0.31782 0.44594 0.37944 0.0
C649 C 0.31099 0.42372 0.37206 0.0
C650 C 0.33169 0.46372 0.3675 0.0
C651 C 0.33878 0.45976 0.34791 0.0
C652 C 0.33121 0.43782 0.3403 0.0
H653 H 0.48283 0.54444 0.27442 0.0
H654 H 0.45177 0.51215 0.29142 0.0
C655 C 0.31735 0.41993 0.35228 0.0
C656 C 0.35655 0.47822 0.33594 0.0
H657 H 0.34302 0.51553 0.29756 0.0
C658 C 0.39198 0.48555 0.34116 0.0
C659 C 0.33853 0.4891 0.32008 0.0
C660 C 0.30008 0.48222 0.31426 0.0
C661 C 0.40994 0.50355 0.33095 0.0
C662 C 0.39208 0.51433 0.315 0.0
C663 C 0.35662 0.50706 0.30975 0.0
C664 C 0.4097 0.5336 0.30397 0.0
C665 C 0.44762 0.51124 0.3375 0.0
C666 C 0.396 0.55624 0.30528 0.0
C667 C 0.41388 0.57471 0.29577 0.0
C668 C 0.44535 0.57074 0.28456 0.0
C669 C 0.45877 0.548 0.28311 0.0
C670 C 0.44101 0.52956 0.2927 0.0
H671 H 0.45457 0.50417 0.35213 0.0
H672 H 0.46854 0.50505 0.32714 0.0
H673 H 0.4494 0.5305 0.33775 0.0
H674 H 0.37192 0.55967 0.31398 0.0
H675 H 0.40333 0.59213 0.29734 0.0
H676 H 0.21131 0.0158 0.89873 0.0
H677 H 0.18111 0.99079 0.87538 0.0
H678 H 0.1805 0.0471 0.8333 0.0
H679 H 0.2111 0.07235 0.85659 0.0
H680 H 0.11203 0.99923 0.85829 0.0
H681 H 0.22241 0.99175 0.80312 0.0
H682 H 0.23128 0.00155 0.82737 0.0
H683 H 0.21072 0.02083 0.80976 0.0
C684 C 0.20512 0.02287 0.88446 0.0
C685 C 0.21362 0.0461 0.87953 0.0
C686 C 0.18782 0.00853 0.87114 0.0
C687 C 0.17884 0.01704 0.85259 0.0
C688 C 0.18772 0.0401 0.84746 0.0
H689 H 0.01875 0.9516 0.77671 0.0
H690 H 0.05315 0.9792 0.79636 0.0
C691 C 0.20506 0.05452 0.86081 0.0
C692 C 0.1585 0.00197 0.83908 0.0
H693 H 0.16486 0.97461 0.7958 0.0
C694 C 0.12352 0.99387 0.84461 0.0
C695 C 0.17375 0.99491 0.82133 0.0
C696 C 0.21172 0.00251 0.81502 0.0
C697 C 0.10331 0.97884 0.83287 0.0
C698 C 0.11835 0.972 0.815 0.0
C699 C 0.15336 0.98005 0.80945 0.0
C700 C 0.09849 0.95587 0.80219 0.0
C701 C 0.06637 0.97006 0.83988 0.0
C702 C 0.11302 0.93384 0.7986 0.0
C703 C 0.09333 0.91802 0.78748 0.0
C704 C 0.05903 0.92408 0.77959 0.0
C705 C 0.04496 0.94637 0.78281 0.0
C706 C 0.06457 0.96215 0.79399 0.0
H707 H 0.06291 0.97231 0.85571 0.0
H708 H 0.04433 0.98 0.83237 0.0
H709 H 0.06257 0.9514 0.83659 0.0
H710 H 0.13914 0.92867 0.80485 0.0
H711 H 0.10446 0.90084 0.78556 0.0
H712 H 0.26135 0.09492 0.98087 0.0
H713 H 0.24068 0.09095 0.0144 0.0
H714 H 0.17928 0.15452 0.00823 0.0
H715 H 0.2002 0.15886 0.97465 0.0
H716 H 0.21523 0.14838 0.04508 0.0
H717 H 0.13273 0.07135 0.02419 0.0
H718 H 0.18081 0.06959 0.01849 0.0
H719 H 0.15281 0.09118 0.00657 0.0
C720 C 0.24393 0.10829 0.98669 0.0
C721 C 0.23202 0.12706 0.97497 0.0
C722 C 0.23205 0.10593 0.00586 0.0
C723 C 0.20783 0.12217 0.01364 0.0
C724 C 0.19779 0.14172 0.00243 0.0
H725 H 0.05677 0.09635 0.10842 0.0
H726 H 0.08614 0.10657 0.07757 0.0
C727 C 0.20979 0.14417 0.98324 0.0
C728 C 0.19089 0.11781 0.03289 0.0
H729 H 0.13453 0.07994 0.05748 0.0
C730 C 0.19757 0.13344 0.04785 0.0
C731 C 0.16739 0.0985 0.03632 0.0
C732 C 0.15765 0.08178 0.02052 0.0
C733 C 0.18178 0.13004 0.06628 0.0
C734 C 0.1591 0.11036 0.06982 0.0
C735 C 0.15213 0.09493 0.05477 0.0
C736 C 0.14162 0.10552 0.0889 0.0
C737 C 0.1889 0.14775 0.08165 0.0
C738 C 0.16306 0.10147 0.10552 0.0
C739 C 0.14633 0.09555 0.12319 0.0
C740 C 0.10785 0.09334 0.12451 0.0
C741 C 0.08649 0.09759 0.10784 0.0
C742 C 0.10321 0.10357 0.09023 0.0
H743 H 0.19875 0.16454 0.07531 0.0
H744 H 0.16366 0.15095 0.09022 0.0
H745 H 0.21042 0.1411 0.09169 0.0
H746 H 0.19279 0.10234 0.10474 0.0
H747 H 0.16357 0.09209 0.1357 0.0
H748 H 0.40306 0.38504 0.47496 0.0
H749 H 0.4224 0.38774 0.50869 0.0
H750 H 0.31207 0.37144 0.52752 0.0
H751 H 0.29234 0.3686 0.49371 0.0
H752 H 0.39071 0.4199 0.53485 0.0
H753 H 0.3783 0.32848 0.56167 0.0
H754 H 0.38138 0.33605 0.53621 0.0
H755 H 0.33902 0.34007 0.54901 0.0
C756 C 0.38294 0.3817 0.48624 0.0
C757 C 0.34609 0.37669 0.48163 0.0
C758 C 0.39408 0.38326 0.50551 0.0
C759 C 0.36873 0.37965 0.52057 0.0
C760 C 0.33217 0.37396 0.51609 0.0
H761 H 0.3851 0.3949 0.64534 0.0
H762 H 0.36482 0.38672 0.61235 0.0
C763 C 0.32093 0.37244 0.49677 0.0
C764 C 0.3801 0.38365 0.54081 0.0
H765 H 0.39235 0.35691 0.58488 0.0
C766 C 0.39119 0.40613 0.54579 0.0
C767 C 0.38034 0.36568 0.55504 0.0
C768 C 0.3694 0.34114 0.55028 0.0
C769 C 0.40234 0.4112 0.56469 0.0
C770 C 0.40325 0.39314 0.57887 0.0
C771 C 0.39178 0.37069 0.57395 0.0
C772 C 0.4161 0.39729 0.59889 0.0
C773 C 0.41231 0.43595 0.56936 0.0
C774 C 0.45189 0.40552 0.60228 0.0
C775 C 0.46351 0.41026 0.62108 0.0
C776 C 0.43968 0.40659 0.63688 0.0
C777 C 0.40417 0.39775 0.63348 0.0
C778 C 0.39251 0.39313 0.61465 0.0
H779 H 0.40042 0.44848 0.55867 0.0
H780 H 0.4026 0.4405 0.58403 0.0
H781 H 0.44266 0.43799 0.56896 0.0
H782 H 0.47085 0.40831 0.59037 0.0
H783 H 0.49124 0.41665 0.62328 0.0
H784 H 0.73632 0.33387 0.02623 0.0
H785 H 0.72038 0.32937 0.99198 0.0
H786 H 0.71444 0.4038 0.9847 0.0
H787 H 0.73077 0.40852 0.01861 0.0
H788 H 0.65663 0.34499 0.97246 0.0
H789 H 0.78252 0.38511 0.94072 0.0
H790 H 0.77969 0.37591 0.96581 0.0
H791 H 0.75964 0.40298 0.95794 0.0
C792 C 0.73196 0.34928 0.01729 0.0
C793 C 0.73503 0.37155 0.02516 0.0
C794 C 0.72274 0.34667 0.99776 0.0
C795 C 0.71671 0.36627 0.98577 0.0
C796 C 0.71969 0.38847 0.9936 0.0
H797 H 0.66144 0.38633 0.8637 0.0
H798 H 0.66915 0.39206 0.89863 0.0
C799 C 0.72889 0.3911 0.01304 0.0
C800 C 0.70638 0.36362 0.96517 0.0
H801 H 0.73344 0.37756 0.91906 0.0
C802 C 0.67347 0.35201 0.96076 0.0
C803 C 0.72831 0.37294 0.94997 0.0
C804 C 0.76468 0.38475 0.95378 0.0
C805 C 0.66172 0.34966 0.94152 0.0
C806 C 0.68371 0.35894 0.92634 0.0
C807 C 0.71648 0.37066 0.93076 0.0
C808 C 0.67456 0.35545 0.90571 0.0
C809 C 0.62569 0.33754 0.93759 0.0
C810 C 0.67461 0.333 0.89822 0.0
C811 C 0.6703 0.32972 0.87839 0.0
C812 C 0.66596 0.34885 0.86564 0.0
C813 C 0.66445 0.37129 0.87322 0.0
C814 C 0.66902 0.37457 0.89311 0.0
H815 H 0.60765 0.33711 0.95057 0.0
H816 H 0.61076 0.34621 0.92544 0.0
H817 H 0.63119 0.31935 0.93349 0.0
H818 H 0.6794 0.31804 0.90763 0.0
H819 H 0.67134 0.31222 0.87293 0.0
H820 H 0.86612 0.16881 0.52322 0.0
H821 H 0.87353 0.16763 0.48791 0.0
H822 H 0.87235 0.09276 0.4908 0.0
H823 H 0.86476 0.09371 0.52584 0.0
H824 H 0.93094 0.14555 0.46632 0.0
H825 H 0.79333 0.10895 0.44995 0.0
H826 H 0.80404 0.12223 0.47276 0.0
H827 H 0.81786 0.09286 0.46832 0.0
C828 C 0.86721 0.15211 0.5163 0.0
C829 C 0.86465 0.13136 0.52734 0.0
C830 C 0.87154 0.15147 0.49616 0.0
C831 C 0.87299 0.13011 0.48674 0.0
C832 C 0.87063 0.10943 0.49775 0.0
H833 H 0.90134 0.073 0.37453 0.0
H834 H 0.89545 0.08143 0.40892 0.0
C835 C 0.86644 0.11003 0.51781 0.0
C836 C 0.87766 0.12913 0.46546 0.0
H837 H 0.83809 0.1074 0.42479 0.0
C838 C 0.9105 0.1375 0.45714 0.0
C839 C 0.85089 0.11864 0.45357 0.0
C840 C 0.81438 0.11035 0.46154 0.0
C841 C 0.91796 0.13467 0.43735 0.0
C842 C 0.89164 0.12349 0.42562 0.0
C843 C 0.85836 0.1158 0.43385 0.0
C844 C 0.89835 0.11875 0.40489 0.0
C845 C 0.95447 0.14283 0.42932 0.0
C846 C 0.90235 0.13695 0.39122 0.0
C847 C 0.90568 0.13218 0.3715 0.0
C848 C 0.90473 0.10912 0.36512 0.0
C849 C 0.90169 0.09095 0.37894 0.0
C850 C 0.89844 0.09573 0.3986 0.0
H851 H 0.9746 0.14655 0.44098 0.0
H852 H 0.96634 0.12962 0.41966 0.0
H853 H 0.95035 0.15902 0.42064 0.0
H854 H 0.90171 0.15485 0.39573 0.0
H855 H 0.90751 0.14655 0.36119 0.0
H856 H 0.7613 0.88349 0.01382 0.0
H857 H 0.78106 0.88456 0.9799 0.0
H858 H 0.89246 0.89849 0.99793 0.0
H859 H 0.87324 0.89703 0.03171 0.0
H860 H 0.81168 0.92195 0.96067 0.0
H861 H 0.90747 0.84757 0.95919 0.0
H862 H 0.87514 0.85157 0.97866 0.0
H863 H 0.91806 0.86729 0.97821 0.0
C864 C 0.79011 0.8864 0.01056 0.0
C865 C 0.8157 0.89016 0.02547 0.0
C866 C 0.80132 0.88704 0.99118 0.0
C867 C 0.83831 0.8913 0.98641 0.0
C868 C 0.86395 0.89464 0.00128 0.0
H869 H 0.96696 0.92752 0.88577 0.0
H870 H 0.94195 0.92026 0.91829 0.0
C871 C 0.85283 0.89395 0.02061 0.0
C872 C 0.84981 0.894 0.96591 0.0
H873 H 0.91249 0.87534 0.93295 0.0
C874 C 0.83336 0.91155 0.95451 0.0
C875 C 0.87815 0.88043 0.95793 0.0
C876 C 0.89547 0.86051 0.96907 0.0
C877 C 0.84544 0.91645 0.93557 0.0
C878 C 0.87447 0.90333 0.92783 0.0
C879 C 0.89041 0.88547 0.93904 0.0
C880 C 0.88907 0.9081 0.90818 0.0
C881 C 0.82792 0.9361 0.92417 0.0
C882 C 0.86756 0.90359 0.89182 0.0
C883 C 0.88172 0.90772 0.87327 0.0
C884 C 0.91766 0.91645 0.87078 0.0
C885 C 0.93905 0.92105 0.88724 0.0
C886 C 0.92492 0.91678 0.90579 0.0
H887 H 0.81061 0.9472 0.93343 0.0
H888 H 0.84929 0.94712 0.91703 0.0
H889 H 0.8102 0.92881 0.91267 0.0
H890 H 0.83994 0.89668 0.8934 0.0
H891 H 0.86451 0.90418 0.86086 0.0
H892 H 0.72679 0.64189 0.5181 0.0
H893 H 0.71764 0.64406 0.48301 0.0
H894 H 0.60546 0.6209 0.4903 0.0
H895 H 0.61434 0.6185 0.52534 0.0
H896 H 0.64598 0.59503 0.46395 0.0
H897 H 0.65888 0.68968 0.4483 0.0
H898 H 0.69574 0.67757 0.46254 0.0
H899 H 0.64997 0.67799 0.47232 0.0
C900 C 0.7 0.6376 0.51227 0.0
C901 C 0.67133 0.62994 0.52452 0.0
C902 C 0.69478 0.63897 0.49222 0.0
C903 C 0.66078 0.63283 0.4841 0.0
C904 C 0.63186 0.62579 0.49631 0.0
H905 H 0.59705 0.6428 0.36224 0.0
H906 H 0.59925 0.6462 0.39759 0.0
C907 C 0.63702 0.62445 0.51634 0.0
C908 C 0.65624 0.63191 0.46283 0.0
H909 H 0.6599 0.66474 0.42115 0.0
C910 C 0.64877 0.6103 0.4546 0.0
C911 C 0.65962 0.65189 0.45071 0.0
C912 C 0.66617 0.67565 0.45888 0.0
C913 C 0.64548 0.60802 0.4345 0.0
C914 C 0.65013 0.62783 0.42234 0.0
C915 C 0.65665 0.64957 0.43056 0.0
C916 C 0.64905 0.62614 0.40102 0.0
C917 C 0.63702 0.58443 0.4264 0.0
C918 C 0.67652 0.61394 0.39133 0.0
C919 C 0.67533 0.61195 0.37124 0.0
C920 C 0.64663 0.62216 0.36045 0.0
C921 C 0.61927 0.63455 0.3702 0.0
C922 C 0.6206 0.63663 0.39033 0.0
H923 H 0.62605 0.57223 0.43767 0.0
H924 H 0.61674 0.58585 0.41441 0.0
H925 H 0.66263 0.57691 0.42051 0.0
H926 H 0.69886 0.6059 0.39935 0.0
H927 H 0.69662 0.60213 0.36416 0.0
H928 H 0.37823 0.61146 0.98172 0.0
H929 H 0.38726 0.61694 0.01641 0.0
H930 H 0.27087 0.6279 0.02347 0.0
H931 H 0.26144 0.6223 0.98877 0.0
H932 H 0.3689 0.65595 0.03898 0.0
H933 H 0.29521 0.57605 0.06369 0.0
H934 H 0.31034 0.58056 0.039 0.0
H935 H 0.26944 0.59452 0.04745 0.0
C936 C 0.3545 0.61505 0.99062 0.0
C937 C 0.31906 0.61633 0.98249 0.0
C938 C 0.35976 0.61817 0.01045 0.0
C939 C 0.32967 0.62244 0.02253 0.0
C940 C 0.29435 0.62417 0.01443 0.0
H941 H 0.29293 0.65073 0.14235 0.0
H942 H 0.28942 0.6414 0.10806 0.0
C943 C 0.28906 0.62112 0.99458 0.0
C944 C 0.33535 0.62545 0.04356 0.0
H945 H 0.31219 0.60275 0.08795 0.0
C946 C 0.35677 0.64424 0.04972 0.0
C947 C 0.31955 0.61007 0.05748 0.0
C948 C 0.29761 0.58903 0.05163 0.0
C949 C 0.36179 0.64857 0.06948 0.0
C950 C 0.34555 0.63338 0.08342 0.0
C951 C 0.32464 0.61434 0.07724 0.0
C952 C 0.34818 0.63769 0.10446 0.0
C953 C 0.3833 0.66983 0.07525 0.0
C954 C 0.38235 0.63812 0.11394 0.0
C955 C 0.38449 0.64365 0.13355 0.0
C956 C 0.35244 0.64876 0.14401 0.0
C957 C 0.31818 0.64735 0.13461 0.0
C958 C 0.31609 0.64186 0.11505 0.0
H959 H 0.3867 0.6824 0.06296 0.0
H960 H 0.36956 0.67877 0.08735 0.0
H961 H 0.41109 0.66449 0.0802 0.0
H962 H 0.40739 0.63449 0.1061 0.0
H963 H 0.41128 0.64463 0.14036 0.0
H964 H 0.13841 0.87681 0.47916 0.0
H965 H 0.12543 0.86816 0.51322 0.0
H966 H 0.24168 0.86754 0.52563 0.0
H967 H 0.25503 0.87584 0.49144 0.0
H968 H 0.20479 0.83074 0.54268 0.0
H969 H 0.1334 0.91325 0.55772 0.0
H970 H 0.11405 0.89816 0.53761 0.0
H971 H 0.16037 0.90918 0.53614 0.0
C972 C 0.16128 0.87485 0.4891 0.0
C973 C 0.19778 0.87714 0.48259 0.0
C974 C 0.15377 0.87007 0.50861 0.0
C975 C 0.18256 0.86771 0.52202 0.0
C976 C 0.21905 0.86951 0.51553 0.0
H977 H 0.14992 0.86359 0.64753 0.0
H978 H 0.16867 0.87465 0.6145 0.0
C979 C 0.22662 0.87422 0.49599 0.0
C980 C 0.17449 0.86278 0.54273 0.0
H981 H 0.12711 0.88288 0.58159 0.0
C982 C 0.18805 0.84222 0.55124 0.0
C983 C 0.15314 0.87797 0.55396 0.0
C984 C 0.1397 0.90099 0.54597 0.0
C985 C 0.17983 0.83606 0.57052 0.0
C986 C 0.15686 0.85064 0.58142 0.0
C987 C 0.14433 0.87159 0.57312 0.0
C988 C 0.14497 0.84423 0.60134 0.0
C989 C 0.196 0.81404 0.57905 0.0
C990 C 0.12472 0.82377 0.60478 0.0
C991 C 0.114 0.81744 0.62356 0.0
C992 C 0.12303 0.83157 0.63927 0.0
C993 C 0.14243 0.85241 0.63571 0.0
C994 C 0.15328 0.85869 0.61689 0.0
H995 H 0.22092 0.80864 0.57103 0.0
H996 H 0.2034 0.8162 0.59451 0.0
H997 H 0.17541 0.79982 0.57813 0.0
H998 H 0.11713 0.81269 0.59292 0.0
H999 H 0.09841 0.80154 0.62578 0.0
H1000 H 0.16446 0.31862 0.36706 0.0
H1001 H 0.13206 0.28978 0.34784 0.0
H1002 H 0.23074 0.2487 0.34525 0.0
H1003 H 0.26363 0.27774 0.36409 0.0
H1004 H 0.19758 0.25332 0.31005 0.0
H1005 H 0.09455 0.22657 0.36541 0.0
H1006 H 0.09489 0.25725 0.36033 0.0
H1007 H 0.13461 0.24374 0.37116 0.0
C1008 C 0.17925 0.3034 0.36249 0.0
C1009 C 0.2166 0.30043 0.36718 0.0
C1010 C 0.1606 0.28685 0.3516 0.0
C1011 C 0.17878 0.26687 0.34541 0.0
C1012 C 0.21612 0.26392 0.34997 0.0
H1013 H 0.11588 0.14501 0.28115 0.0
H1014 H 0.14779 0.17409 0.30037 0.0
C1015 C 0.23486 0.28054 0.36076 0.0
C1016 C 0.15922 0.24938 0.33366 0.0
H1017 H 0.08485 0.21286 0.33352 0.0
C1018 C 0.17306 0.24438 0.31523 0.0
C1019 C 0.12721 0.23772 0.34044 0.0
C1020 C 0.11211 0.2414 0.36049 0.0
C1021 C 0.15544 0.22831 0.3033 0.0
C1022 C 0.12331 0.21686 0.31003 0.0
C1023 C 0.10941 0.22182 0.32841 0.0
C1024 C 0.10408 0.19937 0.29826 0.0
C1025 C 0.17091 0.22389 0.28346 0.0
C1026 C 0.06874 0.20385 0.29098 0.0
C1027 C 0.05065 0.18736 0.27976 0.0
C1028 C 0.0676 0.1661 0.27576 0.0
C1029 C 0.10262 0.16149 0.2835 0.0
C1030 C 0.12079 0.17803 0.29457 0.0
H1031 H 0.19145 0.23728 0.27897 0.0
H1032 H 0.18462 0.20671 0.28359 0.0
H1033 H 0.14855 0.22349 0.27251 0.0
H1034 H 0.05536 0.22021 0.2938 0.0
H1035 H 0.02363 0.19138 0.27404 0.0
H1036 H 0.3549 0.17548 0.88251 0.0
H1037 H 0.39363 0.20452 0.86591 0.0
H1038 H 0.30294 0.25249 0.86461 0.0
H1039 H 0.26412 0.2237 0.88131 0.0
H1040 H 0.38034 0.22519 0.82922 0.0
H1041 H 0.38787 0.29145 0.88638 0.0
H1042 H 0.37336 0.26187 0.89129 0.0
H1043 H 0.34194 0.28238 0.8805 0.0
C1044 C 0.34328 0.1923 0.87887 0.0
C1045 C 0.30642 0.19729 0.88329 0.0
C1046 C 0.36545 0.20884 0.86936 0.0
C1047 C 0.3513 0.23075 0.86425 0.0
C1048 C 0.31462 0.23585 0.86876 0.0
H1049 H 0.42021 0.35064 0.7974 0.0
H1050 H 0.38862 0.32139 0.8174 0.0
C1051 C 0.29241 0.21931 0.87822 0.0
C1052 C 0.37429 0.24789 0.8534 0.0
H1053 H 0.40911 0.30302 0.85501 0.0
C1054 C 0.387 0.24212 0.83492 0.0
C1055 C 0.38279 0.26998 0.86087 0.0
C1056 C 0.37109 0.27678 0.88092 0.0
C1057 C 0.40706 0.25812 0.82347 0.0
C1058 C 0.41517 0.28029 0.83087 0.0
C1059 C 0.40288 0.28597 0.84943 0.0
C1060 C 0.43511 0.29815 0.81921 0.0
C1061 C 0.41836 0.25153 0.8033 0.0
C1062 C 0.47194 0.29493 0.81385 0.0
C1063 C 0.4901 0.3116 0.80229 0.0
C1064 C 0.47162 0.33172 0.79591 0.0
C1065 C 0.43504 0.33514 0.80178 0.0
C1066 C 0.41698 0.31852 0.81332 0.0
H1067 H 0.40383 0.23567 0.7984 0.0
H1068 H 0.41273 0.26595 0.7928 0.0
H1069 H 0.44836 0.2481 0.80308 0.0
H1070 H 0.48654 0.27944 0.81849 0.0
H1071 H 0.51827 0.30849 0.79801 0.0
H1072 H 0.67191 0.18054 0.63103 0.0
H1073 H 0.63504 0.20758 0.64972 0.0
H1074 H 0.73298 0.24632 0.66373 0.0
H1075 H 0.76998 0.21961 0.64484 0.0
H1076 H 0.63928 0.21795 0.68845 0.0
H1077 H 0.6646 0.29687 0.643 0.0
H1078 H 0.67547 0.26806 0.63498 0.0
H1079 H 0.70597 0.28288 0.65117 0.0
C1080 C 0.68561 0.19488 0.63801 0.0
C1081 C 0.72389 0.19798 0.63635 0.0
C1082 C 0.66448 0.21029 0.6487 0.0
C1083 C 0.68116 0.22917 0.65788 0.0
C1084 C 0.7194 0.23217 0.65642 0.0
H1085 H 0.59553 0.31151 0.75108 0.0
H1086 H 0.62722 0.28338 0.73115 0.0
C1087 C 0.74055 0.2168 0.6457 0.0
C1088 C 0.65867 0.24537 0.66936 0.0
H1089 H 0.63595 0.30255 0.67353 0.0
C1090 C 0.63838 0.23643 0.68513 0.0
C1091 C 0.65711 0.26943 0.66485 0.0
C1092 C 0.67665 0.27989 0.64747 0.0
C1093 C 0.61726 0.25098 0.69679 0.0
C1094 C 0.61691 0.27516 0.69275 0.0
C1095 C 0.63651 0.28403 0.67671 0.0
C1096 C 0.59663 0.29164 0.70504 0.0
C1097 C 0.59518 0.24028 0.71319 0.0
C1098 C 0.56925 0.30592 0.69694 0.0
C1099 C 0.5512 0.32219 0.70827 0.0
C1100 C 0.56034 0.32459 0.72794 0.0
C1101 C 0.58758 0.31008 0.73604 0.0
C1102 C 0.60565 0.29386 0.72468 0.0
H1103 H 0.59015 0.22146 0.71103 0.0
H1104 H 0.61066 0.24214 0.72693 0.0
H1105 H 0.56828 0.2491 0.71474 0.0
H1106 H 0.56197 0.30456 0.68179 0.0
H1107 H 0.53046 0.33308 0.70151 0.0
H1108 H 0.76738 0.29699 0.13868 0.0
H1109 H 0.79888 0.26748 0.1584 0.0
H1110 H 0.89938 0.28107 0.12692 0.0
H1111 H 0.8684 0.31118 0.10762 0.0
H1112 H 0.83174 0.22802 0.15 0.0
H1113 H 0.93492 0.28743 0.18147 0.0
H1114 H 0.89593 0.29787 0.16776 0.0
H1115 H 0.93634 0.28773 0.15552 0.0
C1116 C 0.79619 0.29369 0.13595 0.0
C1117 C 0.81548 0.30657 0.1217 0.0
C1118 C 0.81418 0.27682 0.14724 0.0
C1119 C 0.85173 0.2724 0.14446 0.0
C1120 C 0.8707 0.28465 0.12976 0.0
H1121 H 0.96661 0.14944 0.18627 0.0
H1122 H 0.93379 0.1789 0.1672 0.0
C1123 C 0.85287 0.30174 0.11863 0.0
C1124 C 0.87088 0.25484 0.15684 0.0
H1125 H 0.94519 0.24691 0.18649 0.0
C1126 C 0.85644 0.23219 0.15805 0.0
C1127 C 0.90273 0.26037 0.16768 0.0
C1128 C 0.91817 0.28473 0.16823 0.0
C1129 C 0.87332 0.21483 0.16948 0.0
C1130 C 0.9062 0.22008 0.17951 0.0
C1131 C 0.92024 0.24282 0.17861 0.0
C1132 C 0.92646 0.20227 0.19105 0.0
C1133 C 0.8553 0.19118 0.17096 0.0
C1134 C 0.93452 0.20595 0.21065 0.0
C1135 C 0.95402 0.18935 0.22149 0.0
C1136 C 0.9657 0.16871 0.21294 0.0
C1137 C 0.95791 0.16516 0.19328 0.0
C1138 C 0.93877 0.18186 0.18241 0.0
H1139 H 0.82544 0.1921 0.16762 0.0
H1140 H 0.86814 0.17953 0.16033 0.0
H1141 H 0.85875 0.18332 0.18566 0.0
H1142 H 0.92557 0.22166 0.21759 0.0
H1143 H 0.95997 0.19266 0.23655 0.0
H1144 H 0.82169 0.69712 0.61931 0.0
H1145 H 0.85854 0.7262 0.63599 0.0
H1146 H 0.77013 0.73621 0.67657 0.0
H1147 H 0.73257 0.70787 0.65944 0.0
H1148 H 0.79837 0.77656 0.66583 0.0
H1149 H 0.9126 0.71756 0.68591 0.0
H1150 H 0.90521 0.71906 0.66025 0.0
H1151 H 0.86997 0.70711 0.67589 0.0
C1152 C 0.81015 0.70549 0.63181 0.0
C1153 C 0.77432 0.70011 0.63814 0.0
C1154 C 0.83134 0.722 0.64142 0.0
C1155 C 0.81747 0.73303 0.65782 0.0
C1156 C 0.78152 0.72785 0.66401 0.0
H1157 H 0.94965 0.80682 0.7413 0.0
H1158 H 0.91186 0.77895 0.72386 0.0
C1159 C 0.7601 0.71162 0.65423 0.0
C1160 C 0.8401 0.75023 0.66837 0.0
H1161 H 0.92294 0.75789 0.69073 0.0
C1162 C 0.82555 0.77244 0.67135 0.0
C1163 C 0.87534 0.74476 0.67587 0.0
C1164 C 0.89154 0.72075 0.67451 0.0
C1165 C 0.84536 0.78936 0.68142 0.0
C1166 C 0.88124 0.7842 0.68815 0.0
C1167 C 0.89564 0.76194 0.68534 0.0
C1168 C 0.90393 0.80135 0.69866 0.0
C1169 C 0.82721 0.81236 0.68521 0.0
C1170 C 0.91253 0.8231 0.69022 0.0
C1171 C 0.93349 0.83925 0.70039 0.0
C1172 C 0.94649 0.8338 0.71907 0.0
C1173 C 0.93909 0.81172 0.72716 0.0
C1174 C 0.91779 0.79571 0.71712 0.0
H1175 H 0.79676 0.811 0.68436 0.0
H1176 H 0.83479 0.81891 0.6997 0.0
H1177 H 0.83633 0.82532 0.67411 0.0
H1178 H 0.90308 0.8276 0.67577 0.0
H1179 H 0.93909 0.85609 0.69373 0.0
H1180 H 0.74364 0.78915 0.13963 0.0
H1181 H 0.70854 0.75919 0.15723 0.0
H1182 H 0.61467 0.8046 0.15875 0.0
H1183 H 0.64928 0.83448 0.14078 0.0
H1184 H 0.67671 0.76007 0.19308 0.0
H1185 H 0.5702 0.74594 0.13687 0.0
H1186 H 0.61195 0.7621 0.13204 0.0
H1187 H 0.57417 0.77557 0.14422 0.0
C1188 C 0.71549 0.79276 0.14366 0.0
C1189 C 0.69917 0.81415 0.13869 0.0
C1190 C 0.69548 0.77561 0.15373 0.0
C1191 C 0.65878 0.7795 0.159 0.0
C1192 C 0.64265 0.80101 0.15441 0.0
H1193 H 0.49859 0.69606 0.22383 0.0
H1194 H 0.5312 0.72731 0.20626 0.0
C1195 C 0.66257 0.81813 0.14425 0.0
C1196 C 0.6377 0.76115 0.1696 0.0
H1197 H 0.56072 0.72702 0.16731 0.0
C1198 C 0.65141 0.75281 0.18742 0.0
C1199 C 0.60468 0.75168 0.16219 0.0
C1200 C 0.5895 0.7591 0.1427 0.0
C1201 C 0.63281 0.73542 0.19811 0.0
C1202 C 0.59986 0.72598 0.19068 0.0
C1203 C 0.58595 0.7344 0.17296 0.0
C1204 C 0.57987 0.70696 0.20092 0.0
C1205 C 0.64839 0.7274 0.21733 0.0
C1206 C 0.59616 0.68507 0.20332 0.0
C1207 C 0.57751 0.66717 0.21313 0.0
C1208 C 0.54232 0.67088 0.22088 0.0
C1209 C 0.52568 0.69267 0.21805 0.0
C1210 C 0.5443 0.71055 0.2081 0.0
H1211 H 0.66837 0.74013 0.22318 0.0
H1212 H 0.62617 0.72444 0.22814 0.0
H1213 H 0.66297 0.71072 0.21538 0.0
H1214 H 0.62329 0.6818 0.19753 0.0
H1215 H 0.59064 0.6504 0.21459 0.0
H1216 H 0.26013 0.78119 0.38082 0.0
H1217 H 0.29242 0.74973 0.3648 0.0
H1218 H 0.38326 0.79606 0.35213 0.0
H1219 H 0.35173 0.82731 0.36871 0.0
H1220 H 0.31271 0.746 0.32848 0.0
H1221 H 0.43747 0.74131 0.37415 0.0
H1222 H 0.39747 0.75764 0.38097 0.0
H1223 H 0.43069 0.77003 0.36436 0.0
C1224 C 0.28712 0.78462 0.37476 0.0
C1225 C 0.30346 0.80671 0.37612 0.0
C1226 C 0.30556 0.76662 0.36561 0.0
C1227 C 0.34061 0.77036 0.35757 0.0
C1228 C 0.35676 0.7925 0.35873 0.0
H1229 H 0.43824 0.69436 0.265 0.0
H1230 H 0.40686 0.72166 0.2858 0.0
C1231 C 0.33855 0.81043 0.36807 0.0
C1232 C 0.35941 0.75151 0.3471 0.0
H1233 H 0.44104 0.72281 0.34334 0.0
C1234 C 0.34065 0.74078 0.33188 0.0
C1235 C 0.39562 0.74432 0.35173 0.0
C1236 C 0.41632 0.75375 0.36883 0.0
C1237 C 0.35749 0.72369 0.32076 0.0
C1238 C 0.39452 0.71766 0.32457 0.0
C1239 C 0.41286 0.72772 0.34023 0.0
C1240 C 0.41489 0.70137 0.31216 0.0
C1241 C 0.33526 0.71215 0.30515 0.0
C1242 C 0.43134 0.68137 0.32019 0.0
C1243 C 0.44989 0.66584 0.30833 0.0
C1244 C 0.45219 0.67008 0.28826 0.0
C1245 C 0.43653 0.69043 0.28037 0.0
C1246 C 0.41834 0.706 0.29223 0.0
H1247 H 0.3053 0.71301 0.3082 0.0
H1248 H 0.34029 0.7213 0.29111 0.0
H1249 H 0.34304 0.69364 0.30365 0.0
H1250 H 0.42928 0.67756 0.33557 0.0
H1251 H 0.46169 0.65031 0.31483 0.0
H1252 H 0.25474 0.71608 0.87172 0.0
H1253 H 0.21955 0.74651 0.855 0.0
H1254 H 0.13587 0.69633 0.84065 0.0
H1255 H 0.17024 0.66601 0.85797 0.0
H1256 H 0.19997 0.75192 0.8186 0.0
H1257 H 0.07347 0.74612 0.86293 0.0
H1258 H 0.11535 0.73148 0.86983 0.0
H1259 H 0.08469 0.71883 0.85242 0.0
C1260 C 0.22876 0.71154 0.86507 0.0
C1261 C 0.21517 0.68865 0.86628 0.0
C1262 C 0.20865 0.72897 0.85551 0.0
C1263 C 0.17463 0.72387 0.84689 0.0
C1264 C 0.16144 0.70089 0.84769 0.0
H1265 H 0.07106 0.80835 0.75719 0.0
H1266 H 0.10477 0.7792 0.77603 0.0
C1267 C 0.1813 0.68351 0.85746 0.0
C1268 C 0.15362 0.74244 0.83654 0.0
H1269 H 0.06908 0.76789 0.83321 0.0
C1270 C 0.17142 0.7555 0.8219 0.0
C1271 C 0.11653 0.74747 0.84104 0.0
C1272 C 0.09652 0.7354 0.85755 0.0
C1273 C 0.15302 0.77305 0.81139 0.0
C1274 C 0.11536 0.77718 0.81517 0.0
C1275 C 0.09778 0.76451 0.8301 0.0
C1276 C 0.09374 0.79454 0.80379 0.0
C1277 C 0.17443 0.78726 0.79661 0.0
C1278 C 0.07485 0.81235 0.81314 0.0
C1279 C 0.05487 0.82886 0.80241 0.0
C1280 C 0.05355 0.82793 0.78208 0.0
C1281 C 0.07189 0.8098 0.7728 0.0
C1282 C 0.09144 0.79317 0.78355 0.0
H1283 H 0.20437 0.78712 0.79984 0.0
H1284 H 0.17051 0.77969 0.7821 0.0
H1285 H 0.16498 0.80557 0.79603 0.0
H1286 H 0.07599 0.81367 0.82875 0.0
H1287 H 0.04107 0.84258 0.81002 0.0
loop_
_geom_bond_atom_site_label_1
_geom_bond_atom_site_label_2
_geom_bond_distance
_geom_bond_site_symmetry_2
_ccdc_geom_bond_type
O0 Cd1 2.300 . S
O0 C7 1.275 . S
Cd1 O0 2.300 . S
Cd1 O9 2.381 . S
Cd1 O10 2.378 . S
O2 Cd3 2.385 . S
O2 C7 1.255 . S
Cd3 O2 2.385 . S
Cd3 O4 2.317 . S
O4 Cd3 2.317 . S
O4 C5 1.232 . S
C5 O4 1.232 . S
C5 O6 1.218 . S
O6 C5 1.218 . S
C7 O0 1.275 . S
C7 O2 1.255 . S
C8 O9 1.258 . S
C8 O10 1.256 . S
O9 Cd1 2.381 . S
O9 C8 1.258 . S
O10 Cd1 2.378 . S
O10 C8 1.256 . S
O11 Cd12 2.300 . S
O11 C18 1.275 . S
Cd12 O11 2.300 . S
Cd12 O20 2.381 . S
Cd12 O21 2.378 . S
O13 Cd14 2.385 . S
O13 C18 1.255 . S
Cd14 O13 2.385 . S
Cd14 O15 2.317 . S
O15 Cd14 2.317 . S
O15 C16 1.232 . S
C16 O15 1.232 . S
C16 O17 1.218 . S
O17 C16 1.218 . S
C18 O11 1.275 . S
C18 O13 1.255 . S
C19 O20 1.258 . S
C19 O21 1.256 . S
O20 Cd12 2.381 . S
O20 C19 1.258 . S
O21 Cd12 2.378 . S
O21 C19 1.256 . S
O22 Cd23 2.300 . S
O22 C29 1.275 . S
Cd23 O22 2.300 . S
Cd23 O31 2.381 . S
Cd23 O32 2.378 . S
O24 Cd25 2.385 . S
O24 C29 1.255 . S
Cd25 O24 2.385 . S
Cd25 O26 2.317 . S
O26 Cd25 2.317 . S
O26 C27 1.232 . S
C27 O26 1.232 . S
C27 O28 1.218 . S
O28 C27 1.218 . S
C29 O22 1.275 . S
C29 O24 1.255 . S
C30 O31 1.258 . S
C30 O32 1.256 . S
O31 Cd23 2.381 . S
O31 C30 1.258 . S
O32 Cd23 2.378 . S
O32 C30 1.256 . S
O33 Cd34 2.300 . S
O33 C40 1.275 . S
Cd34 O33 2.300 . S
Cd34 O42 2.381 . S
Cd34 O43 2.378 . S
O35 Cd36 2.385 . S
O35 C40 1.255 . S
Cd36 O35 2.385 . S
Cd36 O37 2.317 . S
O37 Cd36 2.317 . S
O37 C38 1.232 . S
C38 O37 1.232 . S
C38 O39 1.218 . S
O39 C38 1.218 . S
C40 O33 1.275 . S
C40 O35 1.255 . S
C41 O42 1.258 . S
C41 O43 1.256 . S
O42 Cd34 2.381 . S
O42 C41 1.258 . S
O43 Cd34 2.378 . S
O43 C41 1.256 . S
O44 Cd45 2.300 . S
O44 C51 1.275 . S
Cd45 O44 2.300 . S
Cd45 O53 2.381 . S
Cd45 O54 2.378 . S
O46 Cd47 2.385 . S
O46 C51 1.255 . S
Cd47 O46 2.385 . S
Cd47 O48 2.317 . S
O48 Cd47 2.317 . S
O48 C49 1.232 . S
C49 O48 1.232 . S
C49 O50 1.218 . S
O50 C49 1.218 . S
C51 O44 1.275 . S
C51 O46 1.255 . S
C52 O53 1.258 . S
C52 O54 1.256 . S
O53 Cd45 2.381 . S
O53 C52 1.258 . S
O54 Cd45 2.378 . S
O54 C52 1.256 . S
O55 Cd56 2.300 . S
O55 C62 1.275 . S
Cd56 O55 2.300 . S
Cd56 O64 2.381 . S
Cd56 O65 2.378 . S
O57 Cd58 2.385 . S
O57 C62 1.255 . S
Cd58 O57 2.385 . S
Cd58 O59 2.317 . S
O59 Cd58 2.317 . S
O59 C60 1.232 . S
C60 O59 1.232 . S
C60 O61 1.218 . S
O61 C60 1.218 . S
C62 O55 1.275 . S
C62 O57 1.255 . S
C63 O64 1.258 . S
C63 O65 1.256 . S
O64 Cd56 2.381 . S
O64 C63 1.258 . S
O65 Cd56 2.378 . S
O65 C63 1.256 . S
O66 Cd67 2.300 . S
O66 C73 1.275 . S
Cd67 O66 2.300 . S
Cd67 O75 2.381 . S
Cd67 O76 2.378 . S
O68 Cd69 2.385 . S
O68 C73 1.255 . S
Cd69 O68 2.385 . S
Cd69 O70 2.317 . S
O70 Cd69 2.317 . S
O70 C71 1.232 . S
C71 O70 1.232 . S
C71 O72 1.218 . S
O72 C71 1.218 . S
C73 O66 1.275 . S
C73 O68 1.255 . S
C74 O75 1.258 . S
C74 O76 1.256 . S
O75 Cd67 2.381 . S
O75 C74 1.258 . S
O76 Cd67 2.378 . S
O76 C74 1.256 . S
O77 Cd78 2.300 . S
O77 C84 1.275 . S
Cd78 O77 2.300 . S
Cd78 O86 2.381 . S
Cd78 O87 2.378 . S
O79 Cd80 2.385 . S
O79 C84 1.255 . S
Cd80 O79 2.385 . S
Cd80 O81 2.317 . S
O81 Cd80 2.317 . S
O81 C82 1.232 . S
C82 O81 1.232 . S
C82 O83 1.218 . S
O83 C82 1.218 . S
C84 O77 1.275 . S
C84 O79 1.255 . S
C85 O86 1.258 . S
C85 O87 1.256 . S
O86 Cd78 2.381 . S
O86 C85 1.258 . S
O87 Cd78 2.378 . S
O87 C85 1.256 . S
C88 C90 1.422 . S
C88 C92 1.415 . S
C88 N94 1.369 . S
C89 C90 1.421 . S
C89 C91 1.417 . S
C89 C101 1.422 . S
C90 C88 1.422 . S
C90 C89 1.421 . S
C90 N100 1.359 . S
C91 C89 1.417 . S
C91 C93 1.329 . S
C91 H110 0.930 . S
C92 C88 1.415 . S
C92 C93 1.437 . S
C92 C96 1.413 . S
C93 C91 1.329 . S
C93 C92 1.437 . S
C93 H115 0.929 . S
N94 C88 1.369 . S
N94 C95 1.338 . S
N94 Gd99 2.622 . S
C95 N94 1.338 . S
C95 C97 1.378 . S
C95 H107 0.929 . S
C96 C92 1.413 . S
C96 C97 1.348 . S
C96 H112 0.931 . S
C97 C95 1.378 . S
C97 C96 1.348 . S
C97 H113 0.930 . S
Gd98 N118 2.622 . S
Gd98 N125 2.570 . S
Gd98 O132 2.353 . S
Gd98 O133 2.468 . S
Gd98 O134 2.427 . S
Gd98 O136 2.388 . S
Gd98 O137 2.386 . S
Gd98 O141 2.307 . S
Gd98 C151 2.805 . S
Gd99 N94 2.622 . S
Gd99 N100 2.570 . S
Gd99 O131 2.386 . S
Gd99 O135 2.307 1_655 S
Gd99 O138 2.353 1_655 S
Gd99 O139 2.468 . S
Gd99 O140 2.427 . S
Gd99 O142 2.388 . S
Gd99 C163 2.805 . S
N100 C90 1.359 . S
N100 Gd99 2.570 . S
N100 C102 1.343 . S
C101 C89 1.422 . S
C101 C103 1.321 . S
C101 H109 0.931 . S
C102 N100 1.343 . S
C102 C103 1.390 . S
C102 H104 0.931 . S
C103 C101 1.321 . S
C103 C102 1.390 . S
C103 H105 0.930 . S
H104 C102 0.931 . S
H105 C103 0.930 . S
H106 C129 0.931 . S
H107 C95 0.929 . S
H108 C130 0.930 . S
H109 C101 0.931 . S
H110 C91 0.930 . S
H111 C120 0.929 . S
H112 C96 0.931 . S
H113 C97 0.930 . S
H114 C152 0.930 . S
H115 C93 0.929 . S
H116 C121 0.931 . S
H117 C122 0.930 . S
N118 Gd98 2.622 . S
N118 C119 1.369 . S
N118 C120 1.338 . S
C119 N118 1.369 . S
C119 C123 1.415 . S
C119 C126 1.422 . S
C120 H111 0.929 . S
C120 N118 1.338 . S
C120 C122 1.378 . S
C121 H116 0.931 . S
C121 C122 1.348 . S
C121 C123 1.413 . S
C122 H117 0.930 . S
C122 C120 1.378 . S
C122 C121 1.348 . S
C123 C119 1.415 . S
C123 C121 1.413 . S
C123 C153 1.437 . S
H124 C153 0.929 . S
N125 Gd98 2.570 . S
N125 C126 1.359 . S
N125 C129 1.343 . S
C126 C119 1.422 . S
C126 N125 1.359 . S
C126 C128 1.421 . S
C127 C128 1.422 . S
C127 C130 1.321 . S
C127 H154 0.931 . S
C128 C126 1.421 . S
C128 C127 1.422 . S
C128 C152 1.417 . S
C129 H106 0.931 . S
C129 N125 1.343 . S
C129 C130 1.390 . S
C130 H108 0.930 . S
C130 C127 1.321 . S
C130 C129 1.390 . S
O131 Gd99 2.386 . S
O131 C143 1.265 . S
O132 Gd98 2.353 . S
O132 C143 1.242 1_455 S
O133 Gd98 2.468 . S
O133 C151 1.263 . S
O134 Gd98 2.427 . S
O134 C151 1.252 . S
O135 Gd99 2.307 1_455 S
O135 C144 1.261 . S
O136 Gd98 2.388 . S
O136 C144 1.252 . S
O137 Gd98 2.386 . S
O137 C155 1.265 . S
O138 Gd99 2.353 1_455 S
O138 C155 1.242 . S
O139 Gd99 2.468 . S
O139 C163 1.263 . S
O140 Gd99 2.427 . S
O140 C163 1.252 . S
O141 Gd98 2.307 . S
O141 C156 1.261 1_455 S
O142 Gd99 2.388 . S
O142 C156 1.252 . S
C143 O131 1.265 . S
C143 O132 1.242 1_655 S
C144 O135 1.261 . S
C144 O136 1.252 . S
C145 C148 1.394 . S
C145 C150 1.370 . S
C145 C151 1.500 . S
C146 C149 1.383 . S
C146 C150 1.395 . S
C147 C148 1.396 . S
C147 C149 1.365 . S
C147 H164 0.929 . S
C148 C145 1.394 . S
C148 C147 1.396 . S
C148 H165 0.930 . S
C149 C146 1.383 . S
C149 C147 1.365 . S
C149 H166 0.931 . S
C150 C145 1.370 . S
C150 C146 1.395 . S
C150 H167 0.930 . S
C151 Gd98 2.805 . S
C151 O133 1.263 . S
C151 O134 1.252 . S
C151 C145 1.500 . S
C152 H114 0.930 . S
C152 C128 1.417 . S
C152 C153 1.329 . S
C153 C123 1.437 . S
C153 H124 0.929 . S
C153 C152 1.329 . S
H154 C127 0.931 . S
C155 O137 1.265 . S
C155 O138 1.242 . S
C156 O141 1.261 1_655 S
C156 O142 1.252 . S
C157 C160 1.394 . S
C157 C162 1.370 . S
C157 C163 1.500 . S
C158 C161 1.383 . S
C158 C162 1.395 . S
C159 C160 1.396 . S
C159 C161 1.365 . S
C159 H168 0.929 . S
C160 C157 1.394 . S
C160 C159 1.396 . S
C160 H169 0.930 . S
C161 C158 1.383 . S
C161 C159 1.365 . S
C161 H170 0.931 . S
C162 C157 1.370 . S
C162 C158 1.395 . S
C162 H171 0.930 . S
C163 Gd99 2.805 . S
C163 O139 1.263 . S
C163 O140 1.252 . S
C163 C157 1.500 . S
H164 C147 0.929 . S
H165 C148 0.930 . S
H166 C149 0.931 . S
H167 C150 0.930 . S
H168 C159 0.929 . S
H169 C160 0.930 . S
H170 C161 0.931 . S
H171 C162 0.930 . S
C172 C174 1.422 . S
C172 C176 1.415 . S
C172 N178 1.369 . S
C173 C174 1.421 . S
C173 C175 1.417 . S
C173 C185 1.422 . S
C174 C172 1.422 . S
C174 C173 1.421 . S
C174 N184 1.359 . S
C175 C173 1.417 . S
C175 C177 1.329 . S
C175 H194 0.930 . S
C176 C172 1.415 . S
C176 C177 1.437 . S
C176 C180 1.413 . S
C177 C175 1.329 . S
C177 C176 1.437 . S
C177 H199 0.929 . S
N178 C172 1.369 . S
N178 C179 1.338 . S
N178 Gd183 2.622 . S
C179 N178 1.338 . S
C179 C181 1.378 . S
C179 H191 0.929 . S
C180 C176 1.413 . S
C180 C181 1.348 . S
C180 H196 0.931 . S
C181 C179 1.378 . S
C181 C180 1.348 . S
C181 H197 0.930 . S
Gd182 N202 2.622 . S
Gd182 N209 2.570 . S
Gd182 O216 2.353 . S
Gd182 O217 2.468 . S
Gd182 O218 2.427 . S
Gd182 O220 2.388 . S
Gd182 O221 2.386 . S
Gd182 O225 2.307 . S
Gd182 C235 2.805 . S
Gd183 N178 2.622 . S
Gd183 N184 2.570 . S
Gd183 O215 2.386 . S
Gd183 O219 2.307 . S
Gd183 O222 2.353 . S
Gd183 O223 2.468 . S
Gd183 O224 2.427 . S
Gd183 O226 2.388 . S
Gd183 C247 2.805 . S
N184 C174 1.359 . S
N184 Gd183 2.570 . S
N184 C186 1.343 . S
C185 C173 1.422 . S
C185 C187 1.321 . S
C185 H193 0.931 . S
C186 N184 1.343 . S
C186 C187 1.390 . S
C186 H188 0.931 . S
C187 C185 1.321 . S
C187 C186 1.390 . S
C187 H189 0.930 . S
H188 C186 0.931 . S
H189 C187 0.930 . S
H190 C213 0.931 . S
H191 C179 0.929 . S
H192 C214 0.930 . S
H193 C185 0.931 . S
H194 C175 0.930 . S
H195 C204 0.929 . S
H196 C180 0.931 . S
H197 C181 0.930 . S
H198 C236 0.930 . S
H199 C177 0.929 . S
H200 C205 0.931 . S
H201 C206 0.930 . S
N202 Gd182 2.622 . S
N202 C203 1.369 . S
N202 C204 1.338 . S
C203 N202 1.369 . S
C203 C207 1.415 . S
C203 C210 1.422 . S
C204 H195 0.929 . S
C204 N202 1.338 . S
C204 C206 1.378 . S
C205 H200 0.931 . S
C205 C206 1.348 . S
C205 C207 1.413 . S
C206 H201 0.930 . S
C206 C204 1.378 . S
C206 C205 1.348 . S
C207 C203 1.415 . S
C207 C205 1.413 . S
C207 C237 1.437 . S
H208 C237 0.929 . S
N209 Gd182 2.570 . S
N209 C210 1.359 . S
N209 C213 1.343 . S
C210 C203 1.422 . S
C210 N209 1.359 . S
C210 C212 1.421 . S
C211 C212 1.422 . S
C211 C214 1.321 . S
C211 H238 0.931 . S
C212 C210 1.421 . S
C212 C211 1.422 . S
C212 C236 1.417 . S
C213 H190 0.931 . S
C213 N209 1.343 . S
C213 C214 1.390 . S
C214 H192 0.930 . S
C214 C211 1.321 . S
C214 C213 1.390 . S
O215 Gd183 2.386 . S
O215 C227 1.265 . S
O216 Gd182 2.353 . S
O216 C227 1.242 . S
O217 Gd182 2.468 . S
O217 C235 1.263 . S
O218 Gd182 2.427 . S
O218 C235 1.252 . S
O219 Gd183 2.307 . S
O219 C228 1.261 . S
O220 Gd182 2.388 . S
O220 C228 1.252 . S
O221 Gd182 2.386 . S
O221 C239 1.265 . S
O222 Gd183 2.353 . S
O222 C239 1.242 . S
O223 Gd183 2.468 . S
O223 C247 1.263 . S
O224 Gd183 2.427 . S
O224 C247 1.252 . S
O225 Gd182 2.307 . S
O225 C240 1.261 . S
O226 Gd183 2.388 . S
O226 C240 1.252 . S
C227 O215 1.265 . S
C227 O216 1.242 . S
C228 O219 1.261 . S
C228 O220 1.252 . S
C229 C232 1.394 . S
C229 C234 1.370 . S
C229 C235 1.500 . S
C230 C233 1.383 . S
C230 C234 1.395 . S
C231 C232 1.396 . S
C231 C233 1.365 . S
C231 H248 0.929 . S
C232 C229 1.394 . S
C232 C231 1.396 . S
C232 H249 0.930 . S
C233 C230 1.383 . S
C233 C231 1.365 . S
C233 H250 0.931 . S
C234 C229 1.370 . S
C234 C230 1.395 . S
C234 H251 0.930 . S
C235 Gd182 2.805 . S
C235 O217 1.263 . S
C235 O218 1.252 . S
C235 C229 1.500 . S
C236 H198 0.930 . S
C236 C212 1.417 . S
C236 C237 1.329 . S
C237 C207 1.437 . S
C237 H208 0.929 . S
C237 C236 1.329 . S
H238 C211 0.931 . S
C239 O221 1.265 . S
C239 O222 1.242 . S
C240 O225 1.261 . S
C240 O226 1.252 . S
C241 C244 1.394 . S
C241 C246 1.370 . S
C241 C247 1.500 . S
C242 C245 1.383 . S
C242 C246 1.395 . S
C243 C244 1.396 . S
C243 C245 1.365 . S
C243 H252 0.929 . S
C244 C241 1.394 . S
C244 C243 1.396 . S
C244 H253 0.930 . S
C245 C242 1.383 . S
C245 C243 1.365 . S
C245 H254 0.931 . S
C246 C241 1.370 . S
C246 C242 1.395 . S
C246 H255 0.930 . S
C247 Gd183 2.805 . S
C247 O223 1.263 . S
C247 O224 1.252 . S
C247 C241 1.500 . S
H248 C231 0.929 . S
H249 C232 0.930 . S
H250 C233 0.931 . S
H251 C234 0.930 . S
H252 C243 0.929 . S
H253 C244 0.930 . S
H254 C245 0.931 . S
H255 C246 0.930 . S
C256 C258 1.422 . S
C256 C260 1.415 . S
C256 N262 1.369 . S
C257 C258 1.421 . S
C257 C259 1.417 . S
C257 C269 1.422 . S
C258 C256 1.422 . S
C258 C257 1.421 . S
C258 N268 1.359 . S
C259 C257 1.417 . S
C259 C261 1.329 . S
C259 H278 0.930 . S
C260 C256 1.415 . S
C260 C261 1.437 . S
C260 C264 1.413 . S
C261 C259 1.329 . S
C261 C260 1.437 . S
C261 H283 0.929 . S
N262 C256 1.369 . S
N262 C263 1.338 . S
N262 Gd267 2.622 . S
C263 N262 1.338 . S
C263 C265 1.378 . S
C263 H275 0.929 . S
C264 C260 1.413 . S
C264 C265 1.348 . S
C264 H280 0.931 . S
C265 C263 1.378 . S
C265 C264 1.348 . S
C265 H281 0.930 . S
Gd266 N286 2.622 . S
Gd266 N293 2.570 . S
Gd266 O300 2.353 1_455 S
Gd266 O301 2.468 . S
Gd266 O302 2.427 . S
Gd266 O304 2.388 . S
Gd266 O305 2.386 . S
Gd266 O309 2.313 . S
Gd266 C319 2.805 . S
Gd267 N262 2.622 . S
Gd267 N268 2.570 . S
Gd267 O299 2.386 . S
Gd267 O303 2.307 1_655 S
Gd267 O306 2.353 1_655 S
Gd267 O307 2.468 . S
Gd267 O308 2.427 . S
Gd267 O310 2.388 . S
Gd267 C331 2.805 . S
N268 C258 1.359 . S
N268 Gd267 2.570 . S
N268 C270 1.343 . S
C269 C257 1.422 . S
C269 C271 1.321 . S
C269 H277 0.931 . S
C270 N268 1.343 . S
C270 C271 1.390 . S
C270 H272 0.931 . S
C271 C269 1.321 . S
C271 C270 1.390 . S
C271 H273 0.930 . S
H272 C270 0.931 . S
H273 C271 0.930 . S
H274 C297 0.931 . S
H275 C263 0.929 . S
H276 C298 0.930 . S
H277 C269 0.931 . S
H278 C259 0.930 . S
H279 C288 0.929 . S
H280 C264 0.931 . S
H281 C265 0.930 . S
H282 C320 0.930 . S
H283 C261 0.929 . S
H284 C289 0.931 . S
H285 C290 0.930 . S
N286 Gd266 2.622 . S
N286 C287 1.369 . S
N286 C288 1.338 . S
C287 N286 1.369 . S
C287 C291 1.415 . S
C287 C294 1.422 . S
C288 H279 0.929 . S
C288 N286 1.338 . S
C288 C290 1.378 . S
C289 H284 0.931 . S
C289 C290 1.348 . S
C289 C291 1.413 . S
C290 H285 0.930 . S
C290 C288 1.378 . S
C290 C289 1.348 . S
C291 C287 1.415 . S
C291 C289 1.413 . S
C291 C321 1.437 . S
H292 C321 0.929 . S
N293 Gd266 2.570 . S
N293 C294 1.359 . S
N293 C297 1.343 . S
C294 C287 1.422 . S
C294 N293 1.359 . S
C294 C296 1.421 . S
C295 C296 1.422 . S
C295 C298 1.321 . S
C295 H322 0.931 . S
C296 C294 1.421 . S
C296 C295 1.422 . S
C296 C320 1.417 . S
C297 H274 0.931 . S
C297 N293 1.343 . S
C297 C298 1.390 . S
C298 H276 0.930 . S
C298 C295 1.321 . S
C298 C297 1.390 . S
O299 Gd267 2.386 . S
O299 C311 1.265 . S
O300 Gd266 2.353 1_655 S
O300 C311 1.242 . S
O301 Gd266 2.468 . S
O301 C319 1.263 . S
O302 Gd266 2.427 . S
O302 C319 1.252 . S
O303 Gd267 2.307 1_455 S
O303 C312 1.261 . S
O304 Gd266 2.388 . S
O304 C312 1.252 . S
O305 Gd266 2.386 . S
O305 C323 1.265 . S
O306 Gd267 2.353 1_455 S
O306 C323 1.242 . S
O307 Gd267 2.468 . S
O307 C331 1.263 . S
O308 Gd267 2.427 . S
O308 C331 1.252 . S
O309 Gd266 2.313 . S
O309 C324 1.253 1_455 S
O310 Gd267 2.388 . S
O310 C324 1.252 . S
C311 O299 1.265 . S
C311 O300 1.242 . S
C312 O303 1.261 . S
C312 O304 1.252 . S
C313 C316 1.394 . S
C313 C318 1.370 . S
C313 C319 1.500 . S
C314 C317 1.383 . S
C314 C318 1.395 . S
C315 C316 1.396 . S
C315 C317 1.365 . S
C315 H332 0.929 . S
C316 C313 1.394 . S
C316 C315 1.396 . S
C316 H333 0.930 . S
C317 C314 1.383 . S
C317 C315 1.365 . S
C317 H334 0.931 . S
C318 C313 1.370 . S
C318 C314 1.395 . S
C318 H335 0.930 . S
C319 Gd266 2.805 . S
C319 O301 1.263 . S
C319 O302 1.252 . S
C319 C313 1.500 . S
C320 H282 0.930 . S
C320 C296 1.417 . S
C320 C321 1.329 . S
C321 C291 1.437 . S
C321 H292 0.929 . S
C321 C320 1.329 . S
H322 C295 0.931 . S
C323 O305 1.265 . S
C323 O306 1.242 . S
C324 O309 1.253 1_655 S
C324 O310 1.252 . S
C325 C328 1.394 . S
C325 C330 1.370 . S
C325 C331 1.500 . S
C326 C329 1.383 . S
C326 C330 1.395 . S
C327 C328 1.396 . S
C327 C329 1.365 . S
C327 H336 0.929 . S
C328 C325 1.394 . S
C328 C327 1.396 . S
C328 H337 0.930 . S
C329 C326 1.383 . S
C329 C327 1.365 . S
C329 H338 0.931 . S
C330 C325 1.370 . S
C330 C326 1.395 . S
C330 H339 0.930 . S
C331 Gd267 2.805 . S
C331 O307 1.263 . S
C331 O308 1.252 . S
C331 C325 1.500 . S
H332 C315 0.929 . S
H333 C316 0.930 . S
H334 C317 0.931 . S
H335 C318 0.930 . S
H336 C327 0.929 . S
H337 C328 0.930 . S
H338 C329 0.931 . S
H339 C330 0.930 . S
C340 C342 1.422 . S
C340 C344 1.415 . S
C340 N346 1.369 . S
C341 C342 1.421 . S
C341 C343 1.417 . S
C341 C353 1.422 . S
C342 C340 1.422 . S
C342 C341 1.421 . S
C342 N352 1.359 . S
C343 C341 1.417 . S
C343 C345 1.329 . S
C343 H362 0.930 . S
C344 C340 1.415 . S
C344 C345 1.437 . S
C344 C348 1.413 . S
C345 C343 1.329 . S
C345 C344 1.437 . S
C345 H367 0.929 . S
N346 C340 1.369 . S
N346 C347 1.338 . S
N346 Gd351 2.622 . S
C347 N346 1.338 . S
C347 C349 1.378 . S
C347 H359 0.929 . S
C348 C344 1.413 . S
C348 C349 1.348 . S
C348 H364 0.931 . S
C349 C347 1.378 . S
C349 C348 1.348 . S
C349 H365 0.930 . S
Gd350 N370 2.622 . S
Gd350 N377 2.570 . S
Gd350 O384 2.353 . S
Gd350 O385 2.468 . S
Gd350 O386 2.427 . S
Gd350 O388 2.388 . S
Gd350 O389 2.386 . S
Gd350 O393 2.307 . S
Gd350 C403 2.805 . S
Gd351 N346 2.622 . S
Gd351 N352 2.570 . S
Gd351 O383 2.386 . S
Gd351 O387 2.307 . S
Gd351 O390 2.353 . S
Gd351 O391 2.468 . S
Gd351 O392 2.427 . S
Gd351 O394 2.388 . S
Gd351 C415 2.805 . S
N352 C342 1.359 . S
N352 Gd351 2.570 . S
N352 C354 1.343 . S
C353 C341 1.422 . S
C353 C355 1.321 . S
C353 H361 0.931 . S
C354 N352 1.343 . S
C354 C355 1.390 . S
C354 H356 0.931 . S
C355 C353 1.321 . S
C355 C354 1.390 . S
C355 H357 0.930 . S
H356 C354 0.931 . S
H357 C355 0.930 . S
H358 C381 0.931 . S
H359 C347 0.929 . S
H360 C382 0.930 . S
H361 C353 0.931 . S
H362 C343 0.930 . S
H363 C372 0.929 . S
H364 C348 0.931 . S
H365 C349 0.930 . S
H366 C404 0.930 . S
H367 C345 0.929 . S
H368 C373 0.931 . S
H369 C374 0.930 . S
N370 Gd350 2.622 . S
N370 C371 1.369 . S
N370 C372 1.338 . S
C371 N370 1.369 . S
C371 C375 1.415 . S
C371 C378 1.422 . S
C372 H363 0.929 . S
C372 N370 1.338 . S
C372 C374 1.378 . S
C373 H368 0.931 . S
C373 C374 1.348 . S
C373 C375 1.413 . S
C374 H369 0.930 . S
C374 C372 1.378 . S
C374 C373 1.348 . S
C375 C371 1.415 . S
C375 C373 1.413 . S
C375 C405 1.437 . S
H376 C405 0.929 . S
N377 Gd350 2.570 . S
N377 C378 1.359 . S
N377 C381 1.343 . S
C378 C371 1.422 . S
C378 N377 1.359 . S
C378 C380 1.421 . S
C379 C380 1.422 . S
C379 C382 1.321 . S
C379 H406 0.931 . S
C380 C378 1.421 . S
C380 C379 1.422 . S
C380 C404 1.417 . S
C381 H358 0.931 . S
C381 N377 1.343 . S
C381 C382 1.390 . S
C382 H360 0.930 . S
C382 C379 1.321 . S
C382 C381 1.390 . S
O383 Gd351 2.386 . S
O383 C395 1.265 . S
O384 Gd350 2.353 . S
O384 C395 1.242 . S
O385 Gd350 2.468 . S
O385 C403 1.263 . S
O386 Gd350 2.427 . S
O386 C403 1.252 . S
O387 Gd351 2.307 . S
O387 C396 1.261 . S
O388 Gd350 2.388 . S
O388 C396 1.252 . S
O389 Gd350 2.386 . S
O389 C407 1.265 . S
O390 Gd351 2.353 . S
O390 C407 1.242 . S
O391 Gd351 2.468 . S
O391 C415 1.263 . S
O392 Gd351 2.427 . S
O392 C415 1.252 . S
O393 Gd350 2.307 . S
O393 C408 1.261 . S
O394 Gd351 2.388 . S
O394 C408 1.252 . S
C395 O383 1.265 . S
C395 O384 1.242 . S
C396 O387 1.261 . S
C396 O388 1.252 . S
C397 C400 1.394 . S
C397 C402 1.370 . S
C397 C403 1.500 . S
C398 C401 1.383 . S
C398 C402 1.395 . S
C399 C400 1.396 . S
C399 C401 1.365 . S
C399 H416 0.929 . S
C400 C397 1.394 . S
C400 C399 1.396 . S
C400 H417 0.930 . S
C401 C398 1.383 . S
C401 C399 1.365 . S
C401 H418 0.931 . S
C402 C397 1.370 . S
C402 C398 1.395 . S
C402 H419 0.930 . S
C403 Gd350 2.805 . S
C403 O385 1.263 . S
C403 O386 1.252 . S
C403 C397 1.500 . S
C404 H366 0.930 . S
C404 C380 1.417 . S
C404 C405 1.329 . S
C405 C375 1.437 . S
C405 H376 0.929 . S
C405 C404 1.329 . S
H406 C379 0.931 . S
C407 O389 1.265 . S
C407 O390 1.242 . S
C408 O393 1.261 . S
C408 O394 1.252 . S
C409 C412 1.394 . S
C409 C414 1.370 . S
C409 C415 1.500 . S
C410 C413 1.383 . S
C410 C414 1.395 . S
C411 C412 1.396 . S
C411 C413 1.365 . S
C411 H420 0.929 . S
C412 C409 1.394 . S
C412 C411 1.396 . S
C412 H421 0.930 . S
C413 C410 1.383 . S
C413 C411 1.365 . S
C413 H422 0.931 . S
C414 C409 1.370 . S
C414 C410 1.395 . S
C414 H423 0.930 . S
C415 Gd351 2.805 . S
C415 O391 1.263 . S
C415 O392 1.252 . S
C415 C409 1.500 . S
H416 C399 0.929 . S
H417 C400 0.930 . S
H418 C401 0.931 . S
H419 C402 0.930 . S
H420 C411 0.929 . S
H421 C412 0.930 . S
H422 C413 0.931 . S
H423 C414 0.930 . S
H424 C432 0.929 . S
H425 C434 0.930 . S
H426 C436 0.930 . S
H427 C439 0.929 . S
H428 C442 0.930 . S
H429 C444 0.960 . S
H430 C444 0.960 . S
H431 C444 0.960 . S
C432 H424 0.929 . S
C432 C433 1.377 . S
C432 C434 1.384 . S
C433 C432 1.377 . S
C433 C439 1.390 . S
C434 H425 0.930 . S
C434 C432 1.384 . S
C434 C435 1.372 . S
C435 C434 1.372 . S
C435 C436 1.400 . S
C435 C440 1.490 . S
C436 H426 0.930 . S
C436 C435 1.400 . S
C436 C439 1.386 . S
H437 C453 0.930 . S
H438 C454 0.931 . S
C439 H427 0.929 . S
C439 C433 1.390 . S
C439 C436 1.386 . S
C440 C435 1.490 . S
C440 C442 1.395 . S
C440 C443 1.403 . S
H441 C447 0.930 . S
C442 H428 0.930 . S
C442 C440 1.395 . S
C442 C445 1.403 1_565 S
C443 C440 1.403 . S
C443 C444 1.524 . S
C443 C447 1.400 . S
C444 H429 0.960 . S
C444 H430 0.960 . S
C444 H431 0.960 . S
C444 C443 1.524 . S
C445 C442 1.403 1_545 S
C445 C446 1.392 . S
C445 C449 1.495 . S
C446 C445 1.392 . S
C446 C447 1.385 1_545 S
C446 C448 1.478 . S
C447 H441 0.930 . S
C447 C443 1.400 . S
C447 C446 1.385 1_565 S
C448 C446 1.478 . S
C448 C450 1.381 . S
C448 C454 1.383 . S
C449 C445 1.495 . S
C449 H455 0.959 . S
C449 H456 0.961 . S
C449 H457 0.960 . S
C450 C448 1.381 . S
C450 C451 1.394 . S
C450 H458 0.930 . S
C451 C450 1.394 . S
C451 C452 1.383 . S
C451 H459 0.929 . S
C452 C451 1.383 . S
C452 C453 1.377 . S
C453 H437 0.930 . S
C453 C452 1.377 . S
C453 C454 1.379 . S
C454 H438 0.931 . S
C454 C448 1.383 . S
C454 C453 1.379 . S
H455 C449 0.959 . S
H456 C449 0.961 . S
H457 C449 0.960 . S
H458 C450 0.930 . S
H459 C451 0.929 . S
H460 C468 0.929 . S
H461 C470 0.930 . S
H462 C472 0.930 . S
H463 C475 0.929 . S
H464 C478 0.930 . S
H465 C480 0.960 . S
H466 C480 0.960 . S
H467 C480 0.960 . S
C468 H460 0.929 . S
C468 C469 1.377 . S
C468 C470 1.384 . S
C469 C468 1.377 . S
C469 C475 1.390 . S
C470 H461 0.930 . S
C470 C468 1.384 . S
C470 C471 1.372 . S
C471 C470 1.372 . S
C471 C472 1.400 . S
C471 C476 1.490 . S
C472 H462 0.930 . S
C472 C471 1.400 . S
C472 C475 1.386 . S
H473 C489 0.930 . S
H474 C490 0.931 . S
C475 H463 0.929 . S
C475 C469 1.390 . S
C475 C472 1.386 . S
C476 C471 1.490 . S
C476 C478 1.395 . S
C476 C479 1.403 . S
H477 C483 0.930 . S
C478 H464 0.930 . S
C478 C476 1.395 . S
C478 C481 1.403 . S
C479 C476 1.403 . S
C479 C480 1.524 . S
C479 C483 1.400 . S
C480 H465 0.960 . S
C480 H466 0.960 . S
C480 H467 0.960 . S
C480 C479 1.524 . S
C481 C478 1.403 . S
C481 C482 1.392 . S
C481 C485 1.495 . S
C482 C481 1.392 . S
C482 C483 1.385 . S
C482 C484 1.478 . S
C483 H477 0.930 . S
C483 C479 1.400 . S
C483 C482 1.385 . S
C484 C482 1.478 . S
C484 C486 1.381 . S
C484 C490 1.383 . S
C485 C481 1.495 . S
C485 H491 0.959 . S
C485 H492 0.961 . S
C485 H493 0.960 . S
C486 C484 1.381 . S
C486 C487 1.394 . S
C486 H494 0.930 . S
C487 C486 1.394 . S
C487 C488 1.383 . S
C487 H495 0.929 . S
C488 C487 1.383 . S
C488 C489 1.377 . S
C489 H473 0.930 . S
C489 C488 1.377 . S
C489 C490 1.379 . S
C490 H474 0.931 . S
C490 C484 1.383 . S
C490 C489 1.379 . S
H491 C485 0.959 . S
H492 C485 0.961 . S
H493 C485 0.960 . S
H494 C486 0.930 . S
H495 C487 0.929 . S
H496 C504 0.929 . S
H497 C506 0.930 . S
H498 C508 0.930 . S
H499 C511 0.929 . S
H500 C514 0.930 . S
H501 C516 0.960 . S
H502 C516 0.960 . S
H503 C516 0.960 . S
C504 H496 0.929 . S
C504 C505 1.377 . S
C504 C506 1.384 . S
C505 C504 1.377 . S
C505 C511 1.390 . S
C506 H497 0.930 . S
C506 C504 1.384 . S
C506 C507 1.372 . S
C507 C506 1.372 . S
C507 C508 1.400 . S
C507 C512 1.490 . S
C508 H498 0.930 . S
C508 C507 1.400 . S
C508 C511 1.386 . S
H509 C525 0.930 . S
H510 C526 0.931 . S
C511 H499 0.929 . S
C511 C505 1.390 . S
C511 C508 1.386 . S
C512 C507 1.490 . S
C512 C514 1.395 . S
C512 C515 1.403 . S
H513 C519 0.930 . S
C514 H500 0.930 . S
C514 C512 1.395 . S
C514 C517 1.403 . S
C515 C512 1.403 . S
C515 C516 1.524 . S
C515 C519 1.400 . S
C516 H501 0.960 . S
C516 H502 0.960 . S
C516 H503 0.960 . S
C516 C515 1.524 . S
C517 C514 1.403 . S
C517 C518 1.392 . S
C517 C521 1.495 . S
C518 C517 1.392 . S
C518 C519 1.385 . S
C518 C520 1.478 . S
C519 H513 0.930 . S
C519 C515 1.400 . S
C519 C518 1.385 . S
C520 C518 1.478 . S
C520 C522 1.381 . S
C520 C526 1.383 . S
C521 C517 1.495 . S
C521 H527 0.959 . S
C521 H528 0.961 . S
C521 H529 0.960 . S
C522 C520 1.381 . S
C522 C523 1.394 . S
C522 H530 0.930 . S
C523 C522 1.394 . S
C523 C524 1.383 . S
C523 H531 0.929 . S
C524 C523 1.383 . S
C524 C525 1.377 . S
C525 H509 0.930 . S
C525 C524 1.377 . S
C525 C526 1.379 . S
C526 H510 0.931 . S
C526 C520 1.383 . S
C526 C525 1.379 . S
H527 C521 0.959 . S
H528 C521 0.961 . S
H529 C521 0.960 . S
H530 C522 0.930 . S
H531 C523 0.929 . S
H532 C540 0.929 . S
H533 C542 0.930 . S
H534 C544 0.930 . S
H535 C547 0.929 . S
H536 C550 0.934 . S
H537 C552 0.960 . S
H538 C552 0.960 . S
H539 C552 0.960 . S
C540 H532 0.929 . S
C540 C541 1.377 . S
C540 C542 1.384 . S
C541 C540 1.377 . S
C541 C547 1.390 . S
C542 H533 0.930 . S
C542 C540 1.384 . S
C542 C543 1.372 . S
C543 C542 1.372 . S
C543 C544 1.400 . S
C543 C548 1.490 . S
C544 H534 0.930 . S
C544 C543 1.400 . S
C544 C547 1.386 . S
H545 C561 0.930 . S
H546 C562 0.931 . S
C547 H535 0.929 . S
C547 C541 1.390 . S
C547 C544 1.386 . S
C548 C543 1.490 . S
C548 C550 1.395 . S
C548 C551 1.403 . S
H549 C555 0.930 . S
C550 H536 0.934 . S
C550 C548 1.395 . S
C550 C553 1.403 1_565 S
C551 C548 1.403 . S
C551 C552 1.524 . S
C551 C555 1.400 . S
C552 H537 0.960 . S
C552 H538 0.960 . S
C552 H539 0.960 . S
C552 C551 1.524 . S
C553 C550 1.403 1_545 S
C553 C554 1.392 . S
C553 C557 1.495 . S
C554 C553 1.392 . S
C554 C555 1.385 1_545 S
C554 C556 1.478 . S
C555 H549 0.930 . S
C555 C551 1.400 . S
C555 C554 1.385 1_565 S
C556 C554 1.478 . S
C556 C558 1.381 . S
C556 C562 1.383 . S
C557 C553 1.495 . S
C557 H563 0.959 . S
C557 H564 0.961 . S
C557 H565 0.960 . S
C558 C556 1.381 . S
C558 C559 1.394 . S
C558 H566 0.930 . S
C559 C558 1.394 . S
C559 C560 1.383 . S
C559 H567 0.929 . S
C560 C559 1.383 . S
C560 C561 1.377 . S
C561 H545 0.930 . S
C561 C560 1.377 . S
C561 C562 1.379 . S
C562 H546 0.931 . S
C562 C556 1.383 . S
C562 C561 1.379 . S
H563 C557 0.959 . S
H564 C557 0.961 . S
H565 C557 0.960 . S
H566 C558 0.930 . S
H567 C559 0.929 . S
H568 C576 0.929 . S
H569 C578 0.930 . S
H570 C580 0.930 . S
H571 C583 0.929 . S
H572 C586 0.930 . S
H573 C588 0.960 . S
H574 C588 0.960 . S
H575 C588 0.960 . S
C576 H568 0.929 . S
C576 C577 1.377 . S
C576 C578 1.384 . S
C577 C576 1.377 . S
C577 C583 1.390 . S
C578 H569 0.930 . S
C578 C576 1.384 . S
C578 C579 1.372 . S
C579 C578 1.372 . S
C579 C580 1.400 . S
C579 C584 1.490 . S
C580 H570 0.930 . S
C580 C579 1.400 . S
C580 C583 1.386 . S
H581 C597 0.930 . S
H582 C598 0.931 . S
C583 H571 0.929 . S
C583 C577 1.390 . S
C583 C580 1.386 . S
C584 C579 1.490 . S
C584 C586 1.395 . S
C584 C587 1.403 . S
H585 C591 0.930 . S
C586 H572 0.930 . S
C586 C584 1.395 . S
C586 C589 1.403 1_545 S
C587 C584 1.403 . S
C587 C588 1.524 . S
C587 C591 1.400 . S
C588 H573 0.960 . S
C588 H574 0.960 . S
C588 H575 0.960 . S
C588 C587 1.524 . S
C589 C586 1.403 1_565 S
C589 C590 1.392 . S
C589 C593 1.495 . S
C590 C589 1.392 . S
C590 C591 1.385 1_565 S
C590 C592 1.478 . S
C591 H585 0.930 . S
C591 C587 1.400 . S
C591 C590 1.385 1_545 S
C592 C590 1.478 . S
C592 C594 1.381 . S
C592 C598 1.383 . S
C593 C589 1.495 . S
C593 H599 0.959 . S
C593 H600 0.961 . S
C593 H601 0.960 . S
C594 C592 1.381 . S
C594 C595 1.394 . S
C594 H602 0.930 . S
C595 C594 1.394 . S
C595 C596 1.383 . S
C595 H603 0.929 . S
C596 C595 1.383 . S
C596 C597 1.377 . S
C597 H581 0.930 . S
C597 C596 1.377 . S
C597 C598 1.379 . S
C598 H582 0.931 . S
C598 C592 1.383 . S
C598 C597 1.379 . S
H599 C593 0.959 . S
H600 C593 0.961 . S
H601 C593 0.960 . S
H602 C594 0.930 . S
H603 C595 0.929 . S
H604 C612 0.929 . S
H605 C614 0.930 . S
H606 C616 0.930 . S
H607 C619 0.929 . S
H608 C622 0.930 . S
H609 C624 0.960 . S
H610 C624 0.960 . S
H611 C624 0.960 . S
C612 H604 0.929 . S
C612 C613 1.377 . S
C612 C614 1.384 . S
C613 C612 1.377 . S
C613 C619 1.390 . S
C614 H605 0.930 . S
C614 C612 1.384 . S
C614 C615 1.372 . S
C615 C614 1.372 . S
C615 C616 1.400 . S
C615 C620 1.490 . S
C616 H606 0.930 . S
C616 C615 1.400 . S
C616 C619 1.386 . S
H617 C633 0.930 . S
H618 C634 0.931 . S
C619 H607 0.929 . S
C619 C613 1.390 . S
C619 C616 1.386 . S
C620 C615 1.490 . S
C620 C622 1.395 . S
C620 C623 1.403 . S
H621 C627 0.930 . S
C622 H608 0.930 . S
C622 C620 1.395 . S
C622 C625 1.403 . S
C623 C620 1.403 . S
C623 C624 1.524 . S
C623 C627 1.400 . S
C624 H609 0.960 . S
C624 H610 0.960 . S
C624 H611 0.960 . S
C624 C623 1.524 . S
C625 C622 1.403 . S
C625 C626 1.392 . S
C625 C629 1.495 . S
C626 C625 1.392 . S
C626 C627 1.385 . S
C626 C628 1.478 . S
C627 H621 0.930 . S
C627 C623 1.400 . S
C627 C626 1.385 . S
C628 C626 1.478 . S
C628 C630 1.381 . S
C628 C634 1.383 . S
C629 C625 1.495 . S
C629 H635 0.959 . S
C629 H636 0.961 . S
C629 H637 0.960 . S
C630 C628 1.381 . S
C630 C631 1.394 . S
C630 H638 0.930 . S
C631 C630 1.394 . S
C631 C632 1.383 . S
C631 H639 0.929 . S
C632 C631 1.383 . S
C632 C633 1.377 . S
C633 H617 0.930 . S
C633 C632 1.377 . S
C633 C634 1.379 . S
C634 H618 0.931 . S
C634 C628 1.383 . S
C634 C633 1.379 . S
H635 C629 0.959 . S
H636 C629 0.961 . S
H637 C629 0.960 . S
H638 C630 0.930 . S
H639 C631 0.929 . S
H640 C648 0.929 . S
H641 C650 0.930 . S
H642 C652 0.930 . S
H643 C655 0.929 . S
H644 C658 0.930 . S
H645 C660 0.960 . S
H646 C660 0.960 . S
H647 C660 0.960 . S
C648 H640 0.929 . S
C648 C649 1.377 . S
C648 C650 1.384 . S
C649 C648 1.377 . S
C649 C655 1.390 . S
C650 H641 0.930 . S
C650 C648 1.384 . S
C650 C651 1.372 . S
C651 C650 1.372 . S
C651 C652 1.400 . S
C651 C656 1.490 . S
C652 H642 0.930 . S
C652 C651 1.400 . S
C652 C655 1.386 . S
H653 C669 0.930 . S
H654 C670 0.931 . S
C655 H643 0.929 . S
C655 C649 1.390 . S
C655 C652 1.386 . S
C656 C651 1.490 . S
C656 C658 1.395 . S
C656 C659 1.403 . S
H657 C663 0.930 . S
C658 H644 0.930 . S
C658 C656 1.395 . S
C658 C661 1.403 . S
C659 C656 1.403 . S
C659 C660 1.524 . S
C659 C663 1.400 . S
C660 H645 0.960 . S
C660 H646 0.960 . S
C660 H647 0.960 . S
C660 C659 1.524 . S
C661 C658 1.403 . S
C661 C662 1.392 . S
C661 C665 1.495 . S
C662 C661 1.392 . S
C662 C663 1.385 . S
C662 C664 1.478 . S
C663 H657 0.930 . S
C663 C659 1.400 . S
C663 C662 1.385 . S
C664 C662 1.478 . S
C664 C666 1.381 . S
C664 C670 1.383 . S
C665 C661 1.495 . S
C665 H671 0.959 . S
C665 H672 0.961 . S
C665 H673 0.960 . S
C666 C664 1.381 . S
C666 C667 1.394 . S
C666 H674 0.930 . S
C667 C666 1.394 . S
C667 C668 1.383 . S
C667 H675 0.929 . S
C668 C667 1.383 . S
C668 C669 1.377 . S
C669 H653 0.930 . S
C669 C668 1.377 . S
C669 C670 1.379 . S
C670 H654 0.931 . S
C670 C664 1.383 . S
C670 C669 1.379 . S
H671 C665 0.959 . S
H672 C665 0.961 . S
H673 C665 0.960 . S
H674 C666 0.930 . S
H675 C667 0.929 . S
H676 C684 0.929 . S
H677 C686 0.930 . S
H678 C688 0.930 . S
H679 C691 0.929 . S
H680 C694 0.930 . S
H681 C696 0.960 . S
H682 C696 0.960 . S
H683 C696 0.960 . S
C684 H676 0.929 . S
C684 C685 1.377 . S
C684 C686 1.384 . S
C685 C684 1.377 . S
C685 C691 1.390 . S
C686 H677 0.930 . S
C686 C684 1.384 . S
C686 C687 1.372 . S
C687 C686 1.372 . S
C687 C688 1.400 . S
C687 C692 1.490 . S
C688 H678 0.930 . S
C688 C687 1.400 . S
C688 C691 1.386 . S
H689 C705 0.930 . S
H690 C706 0.931 . S
C691 H679 0.929 . S
C691 C685 1.390 . S
C691 C688 1.386 . S
C692 C687 1.490 . S
C692 C694 1.395 1_545 S
C692 C695 1.403 . S
H693 C699 0.930 . S
C694 H680 0.930 . S
C694 C692 1.395 1_565 S
C694 C697 1.403 . S
C695 C692 1.403 . S
C695 C696 1.524 . S
C695 C699 1.400 . S
C696 H681 0.960 . S
C696 H682 0.960 . S
C696 H683 0.960 . S
C696 C695 1.524 . S
C697 C694 1.403 . S
C697 C698 1.392 . S
C697 C701 1.495 . S
C698 C697 1.392 . S
C698 C699 1.385 1_565 S
C698 C700 1.478 . S
C699 H693 0.930 . S
C699 C695 1.400 . S
C699 C698 1.385 1_545 S
C700 C698 1.478 . S
C700 C702 1.381 . S
C700 C706 1.383 . S
C701 C697 1.495 . S
C701 H707 0.959 . S
C701 H708 0.961 . S
C701 H709 0.960 . S
C702 C700 1.381 . S
C702 C703 1.394 . S
C702 H710 0.930 . S
C703 C702 1.394 . S
C703 C704 1.383 . S
C703 H711 0.929 . S
C704 C703 1.383 . S
C704 C705 1.377 . S
C705 H689 0.930 . S
C705 C704 1.377 . S
C705 C706 1.379 . S
C706 H690 0.931 . S
C706 C700 1.383 . S
C706 C705 1.379 . S
H707 C701 0.959 . S
H708 C701 0.961 . S
H709 C701 0.960 . S
H710 C702 0.930 . S
H711 C703 0.929 . S
H712 C720 0.929 . S
H713 C722 0.930 1_554 S
H714 C724 0.930 . S
H715 C727 0.929 . S
H716 C730 0.930 . S
H717 C732 0.960 . S
H718 C732 0.960 . S
H719 C732 0.960 1_556 S
C720 H712 0.929 . S
C720 C721 1.377 . S
C720 C722 1.384 . S
C721 C720 1.377 . S
C721 C727 1.390 . S
C722 H713 0.930 1_556 S
C722 C720 1.384 . S
C722 C723 1.364 1_556 S
C723 C722 1.364 1_554 S
C723 C724 1.362 1_554 S
C723 C728 1.536 . S
C724 H714 0.930 . S
C724 C723 1.362 1_556 S
C724 C727 1.386 . S
H725 C741 0.930 . S
H726 C742 0.931 . S
C727 H715 0.929 . S
C727 C721 1.390 . S
C727 C724 1.386 . S
C728 C723 1.536 . S
C728 C730 1.395 . S
C728 C731 1.403 . S
H729 C735 0.930 . S
C730 H716 0.930 . S
C730 C728 1.395 . S
C730 C733 1.403 . S
C731 C728 1.403 . S
C731 C732 1.524 . S
C731 C735 1.400 . S
C732 H717 0.960 . S
C732 H718 0.960 . S
C732 H719 0.960 1_554 S
C732 C731 1.524 . S
C733 C730 1.403 . S
C733 C734 1.392 . S
C733 C737 1.495 . S
C734 C733 1.392 . S
C734 C735 1.385 . S
C734 C736 1.478 . S
C735 H729 0.930 . S
C735 C731 1.400 . S
C735 C734 1.385 . S
C736 C734 1.478 . S
C736 C738 1.381 . S
C736 C742 1.383 . S
C737 C733 1.495 . S
C737 H743 0.959 . S
C737 H744 0.961 . S
C737 H745 0.960 . S
C738 C736 1.381 . S
C738 C739 1.394 . S
C738 H746 0.930 . S
C739 C738 1.394 . S
C739 C740 1.383 . S
C739 H747 0.929 . S
C740 C739 1.383 . S
C740 C741 1.377 . S
C741 H725 0.930 . S
C741 C740 1.377 . S
C741 C742 1.379 . S
C742 H726 0.931 . S
C742 C736 1.383 . S
C742 C741 1.379 . S
H743 C737 0.959 . S
H744 C737 0.961 . S
H745 C737 0.960 . S
H746 C738 0.930 . S
H747 C739 0.929 . S
H748 C756 0.929 . S
H749 C758 0.930 . S
H750 C760 0.930 . S
H751 C763 0.929 . S
H752 C766 0.930 . S
H753 C768 0.960 . S
H754 C768 0.960 . S
H755 C768 0.960 . S
C756 H748 0.929 . S
C756 C757 1.377 . S
C756 C758 1.384 . S
C757 C756 1.377 . S
C757 C763 1.390 . S
C758 H749 0.930 . S
C758 C756 1.384 . S
C758 C759 1.372 . S
C759 C758 1.372 . S
C759 C760 1.400 . S
C759 C764 1.490 . S
C760 H750 0.930 . S
C760 C759 1.400 . S
C760 C763 1.386 . S
H761 C777 0.930 . S
H762 C778 0.931 . S
C763 H751 0.929 . S
C763 C757 1.390 . S
C763 C760 1.386 . S
C764 C759 1.490 . S
C764 C766 1.395 . S
C764 C767 1.403 . S
H765 C771 0.930 . S
C766 H752 0.930 . S
C766 C764 1.395 . S
C766 C769 1.403 . S
C767 C764 1.403 . S
C767 C768 1.524 . S
C767 C771 1.400 . S
C768 H753 0.960 . S
C768 H754 0.960 . S
C768 H755 0.960 . S
C768 C767 1.524 . S
C769 C766 1.403 . S
C769 C770 1.392 . S
C769 C773 1.495 . S
C770 C769 1.392 . S
C770 C771 1.385 . S
C770 C772 1.478 . S
C771 H765 0.930 . S
C771 C767 1.400 . S
C771 C770 1.385 . S
C772 C770 1.478 . S
C772 C774 1.381 . S
C772 C778 1.383 . S
C773 C769 1.495 . S
C773 H779 0.959 . S
C773 H780 0.961 . S
C773 H781 0.960 . S
C774 C772 1.381 . S
C774 C775 1.394 . S
C774 H782 0.930 . S
C775 C774 1.394 . S
C775 C776 1.383 . S
C775 H783 0.929 . S
C776 C775 1.383 . S
C776 C777 1.377 . S
C777 H761 0.930 . S
C777 C776 1.377 . S
C777 C778 1.379 . S
C778 H762 0.931 . S
C778 C772 1.383 . S
C778 C777 1.379 . S
H779 C773 0.959 . S
H780 C773 0.961 . S
H781 C773 0.960 . S
H782 C774 0.930 . S
H783 C775 0.929 . S
H784 C792 0.929 . S
H785 C794 0.930 . S
H786 C796 0.930 . S
H787 C799 0.929 . S
H788 C802 0.930 . S
H789 C804 0.960 . S
H790 C804 0.960 . S
H791 C804 0.960 . S
C792 H784 0.929 . S
C792 C793 1.377 . S
C792 C794 1.384 . S
C793 C792 1.377 . S
C793 C799 1.390 . S
C794 H785 0.930 . S
C794 C792 1.384 . S
C794 C795 1.372 . S
C795 C794 1.372 . S
C795 C796 1.400 . S
C795 C800 1.490 1_554 S
C796 H786 0.930 . S
C796 C795 1.400 . S
C796 C799 1.386 . S
H797 C813 0.930 . S
H798 C814 0.931 . S
C799 H787 0.929 . S
C799 C793 1.390 . S
C799 C796 1.386 . S
C800 C795 1.490 1_556 S
C800 C802 1.395 . S
C800 C803 1.403 . S
H801 C807 0.930 . S
C802 H788 0.930 . S
C802 C800 1.395 . S
C802 C805 1.403 . S
C803 C800 1.403 . S
C803 C804 1.524 . S
C803 C807 1.400 . S
C804 H789 0.960 . S
C804 H790 0.960 . S
C804 H791 0.960 . S
C804 C803 1.524 . S
C805 C802 1.403 . S
C805 C806 1.392 . S
C805 C809 1.495 . S
C806 C805 1.392 . S
C806 C807 1.385 . S
C806 C808 1.478 . S
C807 H801 0.930 . S
C807 C803 1.400 . S
C807 C806 1.385 . S
C808 C806 1.478 . S
C808 C810 1.381 . S
C808 C814 1.383 . S
C809 C805 1.495 . S
C809 H815 0.959 . S
C809 H816 0.961 . S
C809 H817 0.960 . S
C810 C808 1.381 . S
C810 C811 1.394 . S
C810 H818 0.930 . S
C811 C810 1.394 . S
C811 C812 1.383 . S
C811 H819 0.929 . S
C812 C811 1.383 . S
C812 C813 1.377 . S
C813 H797 0.930 . S
C813 C812 1.377 . S
C813 C814 1.379 . S
C814 H798 0.931 . S
C814 C808 1.383 . S
C814 C813 1.379 . S
H815 C809 0.959 . S
H816 C809 0.961 . S
H817 C809 0.960 . S
H818 C810 0.930 . S
H819 C811 0.929 . S
H820 C828 0.929 . S
H821 C830 0.930 . S
H822 C832 0.930 . S
H823 C835 0.929 . S
H824 C838 0.930 . S
H825 C840 0.960 . S
H826 C840 0.960 . S
H827 C840 0.960 . S
C828 H820 0.929 . S
C828 C829 1.377 . S
C828 C830 1.384 . S
C829 C828 1.377 . S
C829 C835 1.390 . S
C830 H821 0.930 . S
C830 C828 1.384 . S
C830 C831 1.372 . S
C831 C830 1.372 . S
C831 C832 1.400 . S
C831 C836 1.490 . S
C832 H822 0.930 . S
C832 C831 1.400 . S
C832 C835 1.386 . S
H833 C849 0.930 . S
H834 C850 0.931 . S
C835 H823 0.929 . S
C835 C829 1.390 . S
C835 C832 1.386 . S
C836 C831 1.490 . S
C836 C838 1.395 . S
C836 C839 1.403 . S
H837 C843 0.930 . S
C838 H824 0.930 . S
C838 C836 1.395 . S
C838 C841 1.403 . S
C839 C836 1.403 . S
C839 C840 1.524 . S
C839 C843 1.400 . S
C840 H825 0.960 . S
C840 H826 0.960 . S
C840 H827 0.960 . S
C840 C839 1.524 . S
C841 C838 1.403 . S
C841 C842 1.392 . S
C841 C845 1.495 . S
C842 C841 1.392 . S
C842 C843 1.385 . S
C842 C844 1.478 . S
C843 H837 0.930 . S
C843 C839 1.400 . S
C843 C842 1.385 . S
C844 C842 1.478 . S
C844 C846 1.381 . S
C844 C850 1.383 . S
C845 C841 1.495 . S
C845 H851 0.959 . S
C845 H852 0.961 . S
C845 H853 0.960 . S
C846 C844 1.381 . S
C846 C847 1.394 . S
C846 H854 0.930 . S
C847 C846 1.394 . S
C847 C848 1.383 . S
C847 H855 0.929 . S
C848 C847 1.383 . S
C848 C849 1.377 . S
C849 H833 0.930 . S
C849 C848 1.377 . S
C849 C850 1.379 . S
C850 H834 0.931 . S
C850 C844 1.383 . S
C850 C849 1.379 . S
H851 C845 0.959 . S
H852 C845 0.961 . S
H853 C845 0.960 . S
H854 C846 0.930 . S
H855 C847 0.929 . S
H856 C864 0.929 . S
H857 C866 0.930 . S
H858 C868 0.930 . S
H859 C871 0.929 . S
H860 C874 0.930 . S
H861 C876 0.960 . S
H862 C876 0.960 . S
H863 C876 0.960 . S
C864 H856 0.929 . S
C864 C865 1.377 . S
C864 C866 1.384 1_554 S
C865 C864 1.377 . S
C865 C871 1.390 . S
C866 H857 0.930 . S
C866 C864 1.384 1_556 S
C866 C867 1.372 . S
C867 C866 1.372 . S
C867 C868 1.400 1_556 S
C867 C872 1.490 . S
C868 H858 0.930 . S
C868 C867 1.400 1_554 S
C868 C871 1.386 . S
H869 C885 0.930 . S
H870 C886 0.931 . S
C871 H859 0.929 . S
C871 C865 1.390 . S
C871 C868 1.386 . S
C872 C867 1.490 . S
C872 C874 1.395 . S
C872 C875 1.403 . S
H873 C879 0.930 . S
C874 H860 0.930 . S
C874 C872 1.395 . S
C874 C877 1.403 . S
C875 C872 1.403 . S
C875 C876 1.524 . S
C875 C879 1.400 . S
C876 H861 0.960 . S
C876 H862 0.960 . S
C876 H863 0.960 . S
C876 C875 1.524 . S
C877 C874 1.403 . S
C877 C878 1.392 . S
C877 C881 1.495 . S
C878 C877 1.392 . S
C878 C879 1.385 . S
C878 C880 1.478 . S
C879 H873 0.930 . S
C879 C875 1.400 . S
C879 C878 1.385 . S
C880 C878 1.478 . S
C880 C882 1.381 . S
C880 C886 1.383 . S
C881 C877 1.495 . S
C881 H887 0.959 . S
C881 H888 0.961 . S
C881 H889 0.960 . S
C882 C880 1.381 . S
C882 C883 1.394 . S
C882 H890 0.930 . S
C883 C882 1.394 . S
C883 C884 1.383 . S
C883 H891 0.929 . S
C884 C883 1.383 . S
C884 C885 1.377 . S
C885 H869 0.930 . S
C885 C884 1.377 . S
C885 C886 1.379 . S
C886 H870 0.931 . S
C886 C880 1.383 . S
C886 C885 1.379 . S
H887 C881 0.959 . S
H888 C881 0.961 . S
H889 C881 0.960 . S
H890 C882 0.930 . S
H891 C883 0.929 . S
H892 C900 0.929 . S
H893 C902 0.930 . S
H894 C904 0.930 . S
H895 C907 0.929 . S
H896 C910 0.930 . S
H897 C912 0.960 . S
H898 C912 0.960 . S
H899 C912 0.960 . S
C900 H892 0.929 . S
C900 C901 1.377 . S
C900 C902 1.384 . S
C901 C900 1.377 . S
C901 C907 1.390 . S
C902 H893 0.930 . S
C902 C900 1.384 . S
C902 C903 1.372 . S
C903 C902 1.372 . S
C903 C904 1.400 . S
C903 C908 1.490 . S
C904 H894 0.930 . S
C904 C903 1.400 . S
C904 C907 1.386 . S
H905 C921 0.930 . S
H906 C922 0.931 . S
C907 H895 0.929 . S
C907 C901 1.390 . S
C907 C904 1.386 . S
C908 C903 1.490 . S
C908 C910 1.395 . S
C908 C911 1.403 . S
H909 C915 0.930 . S
C910 H896 0.930 . S
C910 C908 1.395 . S
C910 C913 1.403 . S
C911 C908 1.403 . S
C911 C912 1.524 . S
C911 C915 1.400 . S
C912 H897 0.960 . S
C912 H898 0.960 . S
C912 H899 0.960 . S
C912 C911 1.524 . S
C913 C910 1.403 . S
C913 C914 1.392 . S
C913 C917 1.495 . S
C914 C913 1.392 . S
C914 C915 1.385 . S
C914 C916 1.478 . S
C915 H909 0.930 . S
C915 C911 1.400 . S
C915 C914 1.385 . S
C916 C914 1.478 . S
C916 C918 1.381 . S
C916 C922 1.383 . S
C917 C913 1.495 . S
C917 H923 0.959 . S
C917 H924 0.961 . S
C917 H925 0.960 . S
C918 C916 1.381 . S
C918 C919 1.394 . S
C918 H926 0.930 . S
C919 C918 1.394 . S
C919 C920 1.383 . S
C919 H927 0.929 . S
C920 C919 1.383 . S
C920 C921 1.377 . S
C921 H905 0.930 . S
C921 C920 1.377 . S
C921 C922 1.379 . S
C922 H906 0.931 . S
C922 C916 1.383 . S
C922 C921 1.379 . S
H923 C917 0.959 . S
H924 C917 0.961 . S
H925 C917 0.960 . S
H926 C918 0.930 . S
H927 C919 0.929 . S
H928 C936 0.929 . S
H929 C938 0.930 . S
H930 C940 0.930 . S
H931 C943 0.929 . S
H932 C946 0.930 . S
H933 C948 0.960 . S
H934 C948 0.960 . S
H935 C948 0.960 . S
C936 H928 0.929 . S
C936 C937 1.377 . S
C936 C938 1.384 . S
C937 C936 1.377 . S
C937 C943 1.390 . S
C938 H929 0.930 . S
C938 C936 1.384 . S
C938 C939 1.372 1_556 S
C939 C938 1.372 1_554 S
C939 C940 1.400 . S
C939 C944 1.490 . S
C940 H930 0.930 . S
C940 C939 1.400 . S
C940 C943 1.386 1_554 S
H941 C957 0.930 . S
H942 C958 0.931 . S
C943 H931 0.929 . S
C943 C937 1.390 . S
C943 C940 1.386 1_556 S
C944 C939 1.490 . S
C944 C946 1.395 . S
C944 C947 1.403 . S
H945 C951 0.930 . S
C946 H932 0.930 . S
C946 C944 1.395 . S
C946 C949 1.403 . S
C947 C944 1.403 . S
C947 C948 1.524 . S
C947 C951 1.400 . S
C948 H933 0.960 . S
C948 H934 0.960 . S
C948 H935 0.960 . S
C948 C947 1.524 . S
C949 C946 1.403 . S
C949 C950 1.392 . S
C949 C953 1.495 . S
C950 C949 1.392 . S
C950 C951 1.385 . S
C950 C952 1.478 . S
C951 H945 0.930 . S
C951 C947 1.400 . S
C951 C950 1.385 . S
C952 C950 1.478 . S
C952 C954 1.381 . S
C952 C958 1.383 . S
C953 C949 1.495 . S
C953 H959 0.959 . S
C953 H960 0.961 . S
C953 H961 0.960 . S
C954 C952 1.381 . S
C954 C955 1.394 . S
C954 H962 0.930 . S
C955 C954 1.394 . S
C955 C956 1.383 . S
C955 H963 0.929 . S
C956 C955 1.383 . S
C956 C957 1.377 . S
C957 H941 0.930 . S
C957 C956 1.377 . S
C957 C958 1.379 . S
C958 H942 0.931 . S
C958 C952 1.383 . S
C958 C957 1.379 . S
H959 C953 0.959 . S
H960 C953 0.961 . S
H961 C953 0.960 . S
H962 C954 0.930 . S
H963 C955 0.929 . S
H964 C972 0.929 . S
H965 C974 0.930 . S
H966 C976 0.930 . S
H967 C979 0.929 . S
H968 C982 0.930 . S
H969 C984 0.960 . S
H970 C984 0.960 . S
H971 C984 0.960 . S
C972 H964 0.929 . S
C972 C973 1.377 . S
C972 C974 1.384 . S
C973 C972 1.377 . S
C973 C979 1.390 . S
C974 H965 0.930 . S
C974 C972 1.384 . S
C974 C975 1.372 . S
C975 C974 1.372 . S
C975 C976 1.400 . S
C975 C980 1.490 . S
C976 H966 0.930 . S
C976 C975 1.400 . S
C976 C979 1.386 . S
H977 C993 0.930 . S
H978 C994 0.931 . S
C979 H967 0.929 . S
C979 C973 1.390 . S
C979 C976 1.386 . S
C980 C975 1.490 . S
C980 C982 1.395 . S
C980 C983 1.403 . S
H981 C987 0.930 . S
C982 H968 0.930 . S
C982 C980 1.395 . S
C982 C985 1.403 . S
C983 C980 1.403 . S
C983 C984 1.524 . S
C983 C987 1.400 . S
C984 H969 0.960 . S
C984 H970 0.960 . S
C984 H971 0.960 . S
C984 C983 1.524 . S
C985 C982 1.403 . S
C985 C986 1.392 . S
C985 C989 1.495 . S
C986 C985 1.392 . S
C986 C987 1.385 . S
C986 C988 1.478 . S
C987 H981 0.930 . S
C987 C983 1.400 . S
C987 C986 1.385 . S
C988 C986 1.478 . S
C988 C990 1.381 . S
C988 C994 1.383 . S
C989 C985 1.495 . S
C989 H995 0.959 . S
C989 H996 0.961 . S
C989 H997 0.960 . S
C990 C988 1.381 . S
C990 C991 1.394 . S
C990 H998 0.930 . S
C991 C990 1.394 . S
C991 C992 1.383 . S
C991 H999 0.929 . S
C992 C991 1.383 . S
C992 C993 1.377 . S
C993 H977 0.930 . S
C993 C992 1.377 . S
C993 C994 1.379 . S
C994 H978 0.931 . S
C994 C988 1.383 . S
C994 C993 1.379 . S
H995 C989 0.959 . S
H996 C989 0.961 . S
H997 C989 0.960 . S
H998 C990 0.930 . S
H999 C991 0.929 . S
H1000 C1008 0.929 . S
H1001 C1010 0.930 . S
H1002 C1012 0.930 . S
H1003 C1015 0.929 . S
H1004 C1018 0.930 . S
H1005 C1020 0.960 . S
H1006 C1020 0.960 . S
H1007 C1020 0.960 . S
C1008 H1000 0.929 . S
C1008 C1009 1.377 . S
C1008 C1010 1.384 . S
C1009 C1008 1.377 . S
C1009 C1015 1.390 . S
C1010 H1001 0.930 . S
C1010 C1008 1.384 . S
C1010 C1011 1.372 . S
C1011 C1010 1.372 . S
C1011 C1012 1.400 . S
C1011 C1016 1.490 . S
C1012 H1002 0.930 . S
C1012 C1011 1.400 . S
C1012 C1015 1.386 . S
H1013 C1029 0.930 . S
H1014 C1030 0.931 . S
C1015 H1003 0.929 . S
C1015 C1009 1.390 . S
C1015 C1012 1.386 . S
C1016 C1011 1.490 . S
C1016 C1018 1.395 . S
C1016 C1019 1.403 . S
H1017 C1023 0.930 . S
C1018 H1004 0.930 . S
C1018 C1016 1.395 . S
C1018 C1021 1.403 . S
C1019 C1016 1.403 . S
C1019 C1020 1.524 . S
C1019 C1023 1.400 . S
C1020 H1005 0.960 . S
C1020 H1006 0.960 . S
C1020 H1007 0.960 . S
C1020 C1019 1.524 . S
C1021 C1018 1.403 . S
C1021 C1022 1.392 . S
C1021 C1025 1.495 . S
C1022 C1021 1.392 . S
C1022 C1023 1.385 . S
C1022 C1024 1.478 . S
C1023 H1017 0.930 . S
C1023 C1019 1.400 . S
C1023 C1022 1.385 . S
C1024 C1022 1.478 . S
C1024 C1026 1.381 . S
C1024 C1030 1.383 . S
C1025 C1021 1.495 . S
C1025 H1031 0.959 . S
C1025 H1032 0.961 . S
C1025 H1033 0.960 . S
C1026 C1024 1.381 . S
C1026 C1027 1.394 . S
C1026 H1034 0.930 . S
C1027 C1026 1.394 . S
C1027 C1028 1.383 . S
C1027 H1035 0.929 . S
C1028 C1027 1.383 . S
C1028 C1029 1.377 . S
C1029 H1013 0.930 . S
C1029 C1028 1.377 . S
C1029 C1030 1.379 . S
C1030 H1014 0.931 . S
C1030 C1024 1.383 . S
C1030 C1029 1.379 . S
H1031 C1025 0.959 . S
H1032 C1025 0.961 . S
H1033 C1025 0.960 . S
H1034 C1026 0.930 . S
H1035 C1027 0.929 . S
H1036 C1044 0.929 . S
H1037 C1046 0.930 . S
H1038 C1048 0.930 . S
H1039 C1051 0.929 . S
H1040 C1054 0.930 . S
H1041 C1056 0.960 . S
H1042 C1056 0.960 . S
H1043 C1056 0.960 . S
C1044 H1036 0.929 . S
C1044 C1045 1.377 . S
C1044 C1046 1.384 . S
C1045 C1044 1.377 . S
C1045 C1051 1.390 . S
C1046 H1037 0.930 . S
C1046 C1044 1.384 . S
C1046 C1047 1.372 . S
C1047 C1046 1.372 . S
C1047 C1048 1.400 . S
C1047 C1052 1.490 . S
C1048 H1038 0.930 . S
C1048 C1047 1.400 . S
C1048 C1051 1.386 . S
H1049 C1065 0.930 . S
H1050 C1066 0.931 . S
C1051 H1039 0.929 . S
C1051 C1045 1.390 . S
C1051 C1048 1.386 . S
C1052 C1047 1.490 . S
C1052 C1054 1.395 . S
C1052 C1055 1.403 . S
H1053 C1059 0.930 . S
C1054 H1040 0.930 . S
C1054 C1052 1.395 . S
C1054 C1057 1.403 . S
C1055 C1052 1.403 . S
C1055 C1056 1.524 . S
C1055 C1059 1.400 . S
C1056 H1041 0.960 . S
C1056 H1042 0.960 . S
C1056 H1043 0.960 . S
C1056 C1055 1.524 . S
C1057 C1054 1.403 . S
C1057 C1058 1.392 . S
C1057 C1061 1.495 . S
C1058 C1057 1.392 . S
C1058 C1059 1.385 . S
C1058 C1060 1.478 . S
C1059 H1053 0.930 . S
C1059 C1055 1.400 . S
C1059 C1058 1.385 . S
C1060 C1058 1.478 . S
C1060 C1062 1.381 . S
C1060 C1066 1.383 . S
C1061 C1057 1.495 . S
C1061 H1067 0.959 . S
C1061 H1068 0.961 . S
C1061 H1069 0.960 . S
C1062 C1060 1.381 . S
C1062 C1063 1.394 . S
C1062 H1070 0.930 . S
C1063 C1062 1.394 . S
C1063 C1064 1.383 . S
C1063 H1071 0.929 . S
C1064 C1063 1.383 . S
C1064 C1065 1.377 . S
C1065 H1049 0.930 . S
C1065 C1064 1.377 . S
C1065 C1066 1.379 . S
C1066 H1050 0.931 . S
C1066 C1060 1.383 . S
C1066 C1065 1.379 . S
H1067 C1061 0.959 . S
H1068 C1061 0.961 . S
H1069 C1061 0.960 . S
H1070 C1062 0.930 . S
H1071 C1063 0.929 . S
H1072 C1080 0.929 . S
H1073 C1082 0.930 . S
H1074 C1084 0.930 . S
H1075 C1087 0.929 . S
H1076 C1090 0.930 . S
H1077 C1092 0.960 . S
H1078 C1092 0.960 . S
H1079 C1092 0.960 . S
C1080 H1072 0.929 . S
C1080 C1081 1.377 . S
C1080 C1082 1.384 . S
C1081 C1080 1.377 . S
C1081 C1087 1.390 . S
C1082 H1073 0.930 . S
C1082 C1080 1.384 . S
C1082 C1083 1.372 . S
C1083 C1082 1.372 . S
C1083 C1084 1.400 . S
C1083 C1088 1.490 . S
C1084 H1074 0.930 . S
C1084 C1083 1.400 . S
C1084 C1087 1.386 . S
H1085 C1101 0.930 . S
H1086 C1102 0.931 . S
C1087 H1075 0.929 . S
C1087 C1081 1.390 . S
C1087 C1084 1.386 . S
C1088 C1083 1.490 . S
C1088 C1090 1.395 . S
C1088 C1091 1.403 . S
H1089 C1095 0.930 . S
C1090 H1076 0.930 . S
C1090 C1088 1.395 . S
C1090 C1093 1.403 . S
C1091 C1088 1.403 . S
C1091 C1092 1.524 . S
C1091 C1095 1.400 . S
C1092 H1077 0.960 . S
C1092 H1078 0.960 . S
C1092 H1079 0.960 . S
C1092 C1091 1.524 . S
C1093 C1090 1.403 . S
C1093 C1094 1.392 . S
C1093 C1097 1.495 . S
C1094 C1093 1.392 . S
C1094 C1095 1.385 . S
C1094 C1096 1.478 . S
C1095 H1089 0.930 . S
C1095 C1091 1.400 . S
C1095 C1094 1.385 . S
C1096 C1094 1.478 . S
C1096 C1098 1.381 . S
C1096 C1102 1.383 . S
C1097 C1093 1.495 . S
C1097 H1103 0.959 . S
C1097 H1104 0.961 . S
C1097 H1105 0.960 . S
C1098 C1096 1.381 . S
C1098 C1099 1.394 . S
C1098 H1106 0.930 . S
C1099 C1098 1.394 . S
C1099 C1100 1.383 . S
C1099 H1107 0.929 . S
C1100 C1099 1.383 . S
C1100 C1101 1.377 . S
C1101 H1085 0.930 . S
C1101 C1100 1.377 . S
C1101 C1102 1.379 . S
C1102 H1086 0.931 . S
C1102 C1096 1.383 . S
C1102 C1101 1.379 . S
H1103 C1097 0.959 . S
H1104 C1097 0.961 . S
H1105 C1097 0.960 . S
H1106 C1098 0.930 . S
H1107 C1099 0.929 . S
H1108 C1116 0.929 . S
H1109 C1118 0.930 . S
H1110 C1120 0.930 . S
H1111 C1123 0.929 . S
H1112 C1126 0.930 . S
H1113 C1128 0.960 . S
H1114 C1128 0.960 . S
H1115 C1128 0.960 . S
C1116 H1108 0.929 . S
C1116 C1117 1.377 . S
C1116 C1118 1.384 . S
C1117 C1116 1.377 . S
C1117 C1123 1.390 . S
C1118 H1109 0.930 . S
C1118 C1116 1.384 . S
C1118 C1119 1.372 . S
C1119 C1118 1.372 . S
C1119 C1120 1.400 . S
C1119 C1124 1.490 . S
C1120 H1110 0.930 . S
C1120 C1119 1.400 . S
C1120 C1123 1.386 . S
H1121 C1137 0.930 . S
H1122 C1138 0.931 . S
C1123 H1111 0.929 . S
C1123 C1117 1.390 . S
C1123 C1120 1.386 . S
C1124 C1119 1.490 . S
C1124 C1126 1.395 . S
C1124 C1127 1.403 . S
H1125 C1131 0.930 . S
C1126 H1112 0.930 . S
C1126 C1124 1.395 . S
C1126 C1129 1.403 . S
C1127 C1124 1.403 . S
C1127 C1128 1.524 . S
C1127 C1131 1.400 . S
C1128 H1113 0.960 . S
C1128 H1114 0.960 . S
C1128 H1115 0.960 . S
C1128 C1127 1.524 . S
C1129 C1126 1.403 . S
C1129 C1130 1.392 . S
C1129 C1133 1.495 . S
C1130 C1129 1.392 . S
C1130 C1131 1.385 . S
C1130 C1132 1.478 . S
C1131 H1125 0.930 . S
C1131 C1127 1.400 . S
C1131 C1130 1.385 . S
C1132 C1130 1.478 . S
C1132 C1134 1.381 . S
C1132 C1138 1.383 . S
C1133 C1129 1.495 . S
C1133 H1139 0.959 . S
C1133 H1140 0.961 . S
C1133 H1141 0.960 . S
C1134 C1132 1.381 . S
C1134 C1135 1.394 . S
C1134 H1142 0.930 . S
C1135 C1134 1.394 . S
C1135 C1136 1.383 . S
C1135 H1143 0.929 . S
C1136 C1135 1.383 . S
C1136 C1137 1.377 . S
C1137 H1121 0.930 . S
C1137 C1136 1.377 . S
C1137 C1138 1.379 . S
C1138 H1122 0.931 . S
C1138 C1132 1.383 . S
C1138 C1137 1.379 . S
H1139 C1133 0.959 . S
H1140 C1133 0.961 . S
H1141 C1133 0.960 . S
H1142 C1134 0.930 . S
H1143 C1135 0.929 . S
H1144 C1152 0.929 . S
H1145 C1154 0.930 . S
H1146 C1156 0.930 . S
H1147 C1159 0.929 . S
H1148 C1162 0.930 . S
H1149 C1164 0.960 . S
H1150 C1164 0.960 . S
H1151 C1164 0.960 . S
C1152 H1144 0.929 . S
C1152 C1153 1.377 . S
C1152 C1154 1.384 . S
C1153 C1152 1.377 . S
C1153 C1159 1.390 . S
C1154 H1145 0.930 . S
C1154 C1152 1.384 . S
C1154 C1155 1.372 . S
C1155 C1154 1.372 . S
C1155 C1156 1.400 . S
C1155 C1160 1.490 . S
C1156 H1146 0.930 . S
C1156 C1155 1.400 . S
C1156 C1159 1.386 . S
H1157 C1173 0.930 . S
H1158 C1174 0.931 . S
C1159 H1147 0.929 . S
C1159 C1153 1.390 . S
C1159 C1156 1.386 . S
C1160 C1155 1.490 . S
C1160 C1162 1.395 . S
C1160 C1163 1.403 . S
H1161 C1167 0.930 . S
C1162 H1148 0.930 . S
C1162 C1160 1.395 . S
C1162 C1165 1.403 . S
C1163 C1160 1.403 . S
C1163 C1164 1.524 . S
C1163 C1167 1.400 . S
C1164 H1149 0.960 . S
C1164 H1150 0.960 . S
C1164 H1151 0.960 . S
C1164 C1163 1.524 . S
C1165 C1162 1.403 . S
C1165 C1166 1.392 . S
C1165 C1169 1.495 . S
C1166 C1165 1.392 . S
C1166 C1167 1.385 . S
C1166 C1168 1.478 . S
C1167 H1161 0.930 . S
C1167 C1163 1.400 . S
C1167 C1166 1.385 . S
C1168 C1166 1.478 . S
C1168 C1170 1.381 . S
C1168 C1174 1.383 . S
C1169 C1165 1.495 . S
C1169 H1175 0.959 . S
C1169 H1176 0.961 . S
C1169 H1177 0.960 . S
C1170 C1168 1.381 . S
C1170 C1171 1.394 . S
C1170 H1178 0.930 . S
C1171 C1170 1.394 . S
C1171 C1172 1.383 . S
C1171 H1179 0.929 . S
C1172 C1171 1.383 . S
C1172 C1173 1.377 . S
C1173 H1157 0.930 . S
C1173 C1172 1.377 . S
C1173 C1174 1.379 . S
C1174 H1158 0.931 . S
C1174 C1168 1.383 . S
C1174 C1173 1.379 . S
H1175 C1169 0.959 . S
H1176 C1169 0.961 . S
H1177 C1169 0.960 . S
H1178 C1170 0.930 . S
H1179 C1171 0.929 . S
H1180 C1188 0.929 . S
H1181 C1190 0.930 . S
H1182 C1192 0.930 . S
H1183 C1195 0.929 . S
H1184 C1198 0.930 . S
H1185 C1200 0.960 . S
H1186 C1200 0.960 . S
H1187 C1200 0.960 . S
C1188 H1180 0.929 . S
C1188 C1189 1.377 . S
C1188 C1190 1.384 . S
C1189 C1188 1.377 . S
C1189 C1195 1.390 . S
C1190 H1181 0.930 . S
C1190 C1188 1.384 . S
C1190 C1191 1.372 . S
C1191 C1190 1.372 . S
C1191 C1192 1.400 . S
C1191 C1196 1.490 . S
C1192 H1182 0.930 . S
C1192 C1191 1.400 . S
C1192 C1195 1.386 . S
H1193 C1209 0.930 . S
H1194 C1210 0.931 . S
C1195 H1183 0.929 . S
C1195 C1189 1.390 . S
C1195 C1192 1.386 . S
C1196 C1191 1.490 . S
C1196 C1198 1.395 . S
C1196 C1199 1.403 . S
H1197 C1203 0.930 . S
C1198 H1184 0.930 . S
C1198 C1196 1.395 . S
C1198 C1201 1.403 . S
C1199 C1196 1.403 . S
C1199 C1200 1.524 . S
C1199 C1203 1.400 . S
C1200 H1185 0.960 . S
C1200 H1186 0.960 . S
C1200 H1187 0.960 . S
C1200 C1199 1.524 . S
C1201 C1198 1.403 . S
C1201 C1202 1.392 . S
C1201 C1205 1.495 . S
C1202 C1201 1.392 . S
C1202 C1203 1.385 . S
C1202 C1204 1.478 . S
C1203 H1197 0.930 . S
C1203 C1199 1.400 . S
C1203 C1202 1.385 . S
C1204 C1202 1.478 . S
C1204 C1206 1.381 . S
C1204 C1210 1.383 . S
C1205 C1201 1.495 . S
C1205 H1211 0.959 . S
C1205 H1212 0.961 . S
C1205 H1213 0.960 . S
C1206 C1204 1.381 . S
C1206 C1207 1.394 . S
C1206 H1214 0.930 . S
C1207 C1206 1.394 . S
C1207 C1208 1.383 . S
C1207 H1215 0.929 . S
C1208 C1207 1.383 . S
C1208 C1209 1.377 . S
C1209 H1193 0.930 . S
C1209 C1208 1.377 . S
C1209 C1210 1.379 . S
C1210 H1194 0.931 . S
C1210 C1204 1.383 . S
C1210 C1209 1.379 . S
H1211 C1205 0.959 . S
H1212 C1205 0.961 . S
H1213 C1205 0.960 . S
H1214 C1206 0.930 . S
H1215 C1207 0.929 . S
H1216 C1224 0.929 . S
H1217 C1226 0.930 . S
H1218 C1228 0.930 . S
H1219 C1231 0.929 . S
H1220 C1234 0.930 . S
H1221 C1236 0.960 . S
H1222 C1236 0.960 . S
H1223 C1236 0.960 . S
C1224 H1216 0.929 . S
C1224 C1225 1.377 . S
C1224 C1226 1.384 . S
C1225 C1224 1.377 . S
C1225 C1231 1.390 . S
C1226 H1217 0.930 . S
C1226 C1224 1.384 . S
C1226 C1227 1.372 . S
C1227 C1226 1.372 . S
C1227 C1228 1.400 . S
C1227 C1232 1.490 . S
C1228 H1218 0.930 . S
C1228 C1227 1.400 . S
C1228 C1231 1.386 . S
H1229 C1245 0.930 . S
H1230 C1246 0.931 . S
C1231 H1219 0.929 . S
C1231 C1225 1.390 . S
C1231 C1228 1.386 . S
C1232 C1227 1.490 . S
C1232 C1234 1.395 . S
C1232 C1235 1.403 . S
H1233 C1239 0.930 . S
C1234 H1220 0.930 . S
C1234 C1232 1.395 . S
C1234 C1237 1.403 . S
C1235 C1232 1.403 . S
C1235 C1236 1.524 . S
C1235 C1239 1.400 . S
C1236 H1221 0.960 . S
C1236 H1222 0.960 . S
C1236 H1223 0.960 . S
C1236 C1235 1.524 . S
C1237 C1234 1.403 . S
C1237 C1238 1.392 . S
C1237 C1241 1.495 . S
C1238 C1237 1.392 . S
C1238 C1239 1.385 . S
C1238 C1240 1.478 . S
C1239 H1233 0.930 . S
C1239 C1235 1.400 . S
C1239 C1238 1.385 . S
C1240 C1238 1.478 . S
C1240 C1242 1.381 . S
C1240 C1246 1.383 . S
C1241 C1237 1.495 . S
C1241 H1247 0.959 . S
C1241 H1248 0.961 . S
C1241 H1249 0.960 . S
C1242 C1240 1.381 . S
C1242 C1243 1.394 . S
C1242 H1250 0.930 . S
C1243 C1242 1.394 . S
C1243 C1244 1.383 . S
C1243 H1251 0.929 . S
C1244 C1243 1.383 . S
C1244 C1245 1.377 . S
C1245 H1229 0.930 . S
C1245 C1244 1.377 . S
C1245 C1246 1.379 . S
C1246 H1230 0.931 . S
C1246 C1240 1.383 . S
C1246 C1245 1.379 . S
H1247 C1241 0.959 . S
H1248 C1241 0.961 . S
H1249 C1241 0.960 . S
H1250 C1242 0.930 . S
H1251 C1243 0.929 . S
H1252 C1260 0.929 . S
H1253 C1262 0.930 . S
H1254 C1264 0.930 . S
H1255 C1267 0.929 . S
H1256 C1270 0.930 . S
H1257 C1272 0.960 . S
H1258 C1272 0.960 . S
H1259 C1272 0.960 . S
C1260 H1252 0.929 . S
C1260 C1261 1.377 . S
C1260 C1262 1.384 . S
C1261 C1260 1.377 . S
C1261 C1267 1.390 . S
C1262 H1253 0.930 . S
C1262 C1260 1.384 . S
C1262 C1263 1.372 . S
C1263 C1262 1.372 . S
C1263 C1264 1.400 . S
C1263 C1268 1.490 . S
C1264 H1254 0.930 . S
C1264 C1263 1.400 . S
C1264 C1267 1.386 . S
H1265 C1281 0.930 . S
H1266 C1282 0.931 . S
C1267 H1255 0.929 . S
C1267 C1261 1.390 . S
C1267 C1264 1.386 . S
C1268 C1263 1.490 . S
C1268 C1270 1.395 . S
C1268 C1271 1.403 . S
H1269 C1275 0.930 . S
C1270 H1256 0.930 . S
C1270 C1268 1.395 . S
C1270 C1273 1.403 . S
C1271 C1268 1.403 . S
C1271 C1272 1.524 . S
C1271 C1275 1.400 . S
C1272 H1257 0.960 . S
C1272 H1258 0.960 . S
C1272 H1259 0.960 . S
C1272 C1271 1.524 . S
C1273 C1270 1.403 . S
C1273 C1274 1.392 . S
C1273 C1277 1.495 . S
C1274 C1273 1.392 . S
C1274 C1275 1.385 . S
C1274 C1276 1.478 . S
C1275 H1269 0.930 . S
C1275 C1271 1.400 . S
C1275 C1274 1.385 . S
C1276 C1274 1.478 . S
C1276 C1278 1.381 . S
C1276 C1282 1.383 . S
C1277 C1273 1.495 . S
C1277 H1283 0.959 . S
C1277 H1284 0.961 . S
C1277 H1285 0.960 . S
C1278 C1276 1.381 . S
C1278 C1279 1.394 . S
C1278 H1286 0.930 . S
C1279 C1278 1.394 . S
C1279 C1280 1.383 . S
C1279 H1287 0.929 . S
C1280 C1279 1.383 . S
C1280 C1281 1.377 . S
C1281 H1265 0.930 . S
C1281 C1280 1.377 . S
C1281 C1282 1.379 . S
C1282 H1266 0.931 . S
C1282 C1276 1.383 . S
C1282 C1281 1.379 . S
H1283 C1277 0.959 . S
H1284 C1277 0.961 . S
H1285 C1277 0.960 . S
H1286 C1278 0.930 . S
H1287 C1279 0.929 . S
C433 C73 1.622 . S
C452 C144 1.659 . S
C488 C228 1.783 . S
C469 C84 1.756 . S
C524 C227 1.646 . S
C505 C51 1.604 . S
C541 C62 1.751 . S
C560 C143 1.772 . S
C596 C324 1.667 . S
C577 C29 1.603 . S
C632 C408 1.568 . S
C613 C38 1.464 . S
C649 C7 1.588 . S
C668 C407 1.655 . S
C685 C16 1.457 . S
C704 C323 1.572 . S
C740 C146 1.499 . S
C721 C18 1.664 . S
C776 C230 1.522 . S
C757 C5 1.443 . S
C812 C242 1.499 . S
C793 C40 1.674 . S
C848 C158 1.513 . S
C829 C27 1.481 . S
C884 C326 1.293 . S
C865 C60 1.356 . S
C901 C49 1.359 . S
C920 C410 1.363 . S
C956 C398 1.294 . S
C937 C82 1.368 . S
C973 C71 1.380 . S
C992 C314 1.305 . S
C1028 C155 1.698 . S
C1009 C8 1.680 . S
C1064 C239 1.571 . S
C1045 C19 1.567 . S
C1081 C30 1.679 . S
C1100 C240 1.672 . S
C1136 C156 1.532 . S
C1117 C41 1.553 . S
C1172 C311 1.412 . S
C1153 C52 1.417 . S
C1189 C63 1.574 . S
C1208 C395 1.565 . S
C1225 C74 1.411 . S
C1244 C396 1.363 . S
C1261 C85 1.564 . S
C1280 C312 1.512 . S
