# Generated by pormake.
# Topology anh, (6,3)-cn, num edge types: 1
# Building blocks:
#     Node 0, Type 0, BuildingBlock: CUKXOW_clean_sbu_0, # of connection points: 6
#     Node 1, Type 0, BuildingBlock: CUKXOW_clean_sbu_0, # of connection points: 6
#     Node 2, Type 0, BuildingBlock: CUKXOW_clean_sbu_0, # of connection points: 6
#     Node 3, Type 1, BuildingBlock: OLANEW_clean_sbu_2, # of connection points: 3
#     Node 4, Type 1, BuildingBlock: OLANEW_clean_sbu_2, # of connection points: 3
#     Node 5, Type 1, BuildingBlock: OLANEW_clean_sbu_2, # of connection points: 3
#     Node 6, Type 1, BuildingBlock: OLANEW_clean_sbu_2, # of connection points: 3
#     Node 7, Type 1, BuildingBlock: OLANEW_clean_sbu_2, # of connection points: 3
#     Node 8, Type 1, BuildingBlock: OLANEW_clean_sbu_2, # of connection points: 3
#     Edge 9, Type (0, 1), BuildingBlock: MIFKUJ_clean_linker_0, # of connection points: 2
#     Edge 10, Type (0, 1), BuildingBlock: MIFKUJ_clean_linker_0, # of connection points: 2
#     Edge 11, Type (0, 1), BuildingBlock: MIFKUJ_clean_linker_0, # of connection points: 2
#     Edge 12, Type (0, 1), BuildingBlock: MIFKUJ_clean_linker_0, # of connection points: 2
#     Edge 13, Type (0, 1), BuildingBlock: MIFKUJ_clean_linker_0, # of connection points: 2
#     Edge 14, Type (0, 1), BuildingBlock: MIFKUJ_clean_linker_0, # of connection points: 2
#     Edge 15, Type (0, 1), BuildingBlock: MIFKUJ_clean_linker_0, # of connection points: 2
#     Edge 16, Type (0, 1), BuildingBlock: MIFKUJ_clean_linker_0, # of connection points: 2
#     Edge 17, Type (0, 1), BuildingBlock: MIFKUJ_clean_linker_0, # of connection points: 2
#     Edge 18, Type (0, 1), BuildingBlock: MIFKUJ_clean_linker_0, # of connection points: 2
#     Edge 19, Type (0, 1), BuildingBlock: MIFKUJ_clean_linker_0, # of connection points: 2
#     Edge 20, Type (0, 1), BuildingBlock: MIFKUJ_clean_linker_0, # of connection points: 2
#     Edge 21, Type (0, 1), BuildingBlock: MIFKUJ_clean_linker_0, # of connection points: 2
#     Edge 22, Type (0, 1), BuildingBlock: MIFKUJ_clean_linker_0, # of connection points: 2
#     Edge 23, Type (0, 1), BuildingBlock: MIFKUJ_clean_linker_0, # of connection points: 2
#     Edge 24, Type (0, 1), BuildingBlock: MIFKUJ_clean_linker_0, # of connection points: 2
#     Edge 25, Type (0, 1), BuildingBlock: MIFKUJ_clean_linker_0, # of connection points: 2
#     Edge 26, Type (0, 1), BuildingBlock: MIFKUJ_clean_linker_0, # of connection points: 2
# Relax obj value: 0.078
# Max RMSD: 0.150
# Mean RMSD: 0.109
data_MOF--net-anh--node1-CUKXOW_clean_sbu_0--node2-OLANEW_clean_sbu_2--edge1-MIFKUJ_clean_linker_0
_symmetry_space_group_name_H-M    P1
_symmetry_Int_Tables_number       1
_symmetry_cell_setting            triclinic
loop_
_symmetry_equiv_pos_as_xyz
'x, y, z'
_cell_length_a     41.780341
_cell_length_b     40.545211
_cell_length_c     64.828637
_cell_angle_alpha  95.267262
_cell_angle_beta   90.056741
_cell_angle_gamma 117.09444
loop_
_atom_site_label
_atom_site_type_symbol
_atom_site_fract_x
_atom_site_fract_y
_atom_site_fract_z
_atom_type_partial_charge
Tb0 Tb 0.05924 0.53433 0.16472 0.0
C1 C 0.02442 0.50054 0.20537 0.0
Tb2 Tb 0.99777 0.45492 0.16034 0.0
O3 O 0.02154 0.55667 0.17298 0.0
O4 O 0.00496 0.50753 0.15326 0.0
O5 O 0.05109 0.52871 0.19747 0.0
C6 C 0.93132 0.3994 0.16124 0.0
O7 O 0.00091 0.46998 0.19395 0.0
C8 C 0.0621 0.45938 0.16112 0.0
C9 C 0.0354 0.48793 0.12042 0.0
O10 O 0.95974 0.39527 0.15696 0.0
O11 O 0.94043 0.43453 0.16502 0.0
O12 O 0.03396 0.43092 0.15212 0.0
O13 O 0.0524 0.48129 0.1711 0.0
O14 O 0.00457 0.46419 0.12773 0.0
O15 O 0.06198 0.51422 0.13266 0.0
C16 C 0.1226 0.59463 0.16434 0.0
O17 O 0.09294 0.58988 0.15522 0.0
O18 O 0.1165 0.56564 0.17376 0.0
C19 C 0.99427 0.52864 0.16306 0.0
Tb20 Tb 0.47384 0.0064 0.50125 0.0
C21 C 0.5131 0.03454 0.45967 0.0
Tb22 Tb 0.55203 0.06899 0.5032 0.0
O23 O 0.45483 0.04662 0.51277 0.0
O24 O 0.50052 0.06286 0.49526 0.0
O25 O 0.48824 0.00618 0.46862 0.0
C26 C 0.61148 0.1343 0.5088 0.0
O27 O 0.53747 0.06516 0.47058 0.0
C28 C 0.54354 0.00054 0.49912 0.0
C29 C 0.51307 0.04033 0.54516 0.0
O30 O 0.61005 0.10303 0.50092 0.0
O31 O 0.57944 0.12876 0.51371 0.0
O32 O 0.57098 0.02805 0.49222 0.0
O33 O 0.52531 0.01305 0.5093 0.0
O34 O 0.54006 0.06701 0.53628 0.0
O35 O 0.48596 0.0118 0.53436 0.0
C36 C 0.41511 0.94049 0.49571 0.0
O37 O 0.41571 0.97263 0.49483 0.0
O38 O 0.44755 0.94551 0.4996 0.0
C39 C 0.48182 0.07457 0.50578 0.0
Tb40 Tb 0.52318 0.53332 0.83406 0.0
C41 C 0.55634 0.51945 0.8737 0.0
Tb42 Tb 0.60007 0.54186 0.83292 0.0
O43 O 0.49835 0.47368 0.83676 0.0
O44 O 0.5477 0.49992 0.82281 0.0
O45 O 0.53215 0.52885 0.86649 0.0
C46 C 0.66197 0.53779 0.83337 0.0
O47 O 0.58256 0.51853 0.86243 0.0
C48 C 0.59412 0.60397 0.83738 0.0
C49 C 0.5653 0.5499 0.79258 0.0
O50 O 0.65293 0.55667 0.84732 0.0
O51 O 0.63614 0.5211 0.81926 0.0
O52 O 0.62033 0.60103 0.82814 0.0
O53 O 0.57496 0.57399 0.84475 0.0
O54 O 0.58821 0.53921 0.80006 0.0
O55 O 0.54127 0.5547 0.80414 0.0
C56 C 0.46699 0.54741 0.83315 0.0
O57 O 0.47242 0.52506 0.81962 0.0
O58 O 0.4928 0.56128 0.84738 0.0
C59 C 0.52581 0.47003 0.82973 0.0
O60 O 0.50606 0.05901 0.22984 0.0
Cd61 Cd 0.50429 0.06156 0.19241 0.0
O62 O 0.51428 0.00892 0.22653 0.0
Cd63 Cd 0.50421 0.99846 0.19302 0.0
O64 O 0.4642 0.95029 0.17387 0.0
C65 C 0.46256 0.91962 0.17815 0.0
O66 O 0.48674 0.92052 0.19148 0.0
C67 C 0.5116 0.03461 0.23799 0.0
C68 C 0.57141 0.11402 0.18145 0.0
O69 O 0.54648 0.1232 0.18596 0.0
O70 O 0.56428 0.07978 0.18167 0.0
O71 O 0.54191 0.53372 0.56078 0.0
Cd72 Cd 0.53059 0.51928 0.52332 0.0
O73 O 0.52108 0.57485 0.56479 0.0
Cd74 Cd 0.51322 0.57946 0.53206 0.0
O75 O 0.50864 0.61931 0.51325 0.0
C76 C 0.48792 0.63238 0.52035 0.0
O77 O 0.46969 0.61884 0.53667 0.0
C78 C 0.53406 0.55557 0.57253 0.0
C79 C 0.52061 0.44652 0.51413 0.0
O80 O 0.55157 0.4744 0.51287 0.0
O81 O 0.49422 0.45313 0.51902 0.0
O82 O 0.07491 0.53942 0.89652 0.0
Cd83 Cd 0.07366 0.55602 0.86124 0.0
O84 O 0.05617 0.47941 0.88804 0.0
Cd85 Cd 0.04182 0.48471 0.85672 0.0
O86 O 0.00166 0.49646 0.84228 0.0
C87 C 0.98926 0.51285 0.85511 0.0
O88 O 0.00222 0.52126 0.87441 0.0
C89 C 0.06772 0.50733 0.90171 0.0
C90 C 0.13795 0.567 0.84375 0.0
O91 O 0.13503 0.59404 0.85394 0.0
O92 O 0.11007 0.53513 0.84129 0.0
O93 O 0.01834 0.51288 0.43832 0.0
Cd94 Cd 0.02583 0.52746 0.47595 0.0
O95 O 0.99285 0.54941 0.43579 0.0
Cd96 Cd 0.97457 0.54125 0.46733 0.0
O97 O 0.93297 0.50108 0.48519 0.0
C98 C 0.92873 0.46787 0.48228 0.0
O99 O 0.95067 0.46097 0.4702 0.0
C100 C 0.00718 0.53021 0.42724 0.0
C101 C 0.08917 0.59416 0.48421 0.0
O102 O 0.0894 0.56264 0.48408 0.0
O103 O 0.05886 0.59411 0.48106 0.0
O104 O 0.52969 0.99312 0.77238 0.0
Cd105 Cd 0.52657 0.98298 0.80907 0.0
O106 O 0.55141 0.05429 0.7767 0.0
Cd107 Cd 0.55259 0.06576 0.81032 0.0
O108 O 0.55803 0.11639 0.82854 0.0
C109 C 0.53013 0.12109 0.83088 0.0
O110 O 0.49864 0.09364 0.82436 0.0
C111 C 0.54098 0.02415 0.76483 0.0
C112 C 0.53022 0.91704 0.81456 0.0
O113 O 0.49991 0.91676 0.81104 0.0
O114 O 0.55866 0.94844 0.81563 0.0
O115 O 0.56186 0.49882 0.10475 0.0
Cd116 Cd 0.57031 0.49633 0.14184 0.0
O117 O 0.5067 0.49307 0.1009 0.0
Cd118 Cd 0.48615 0.49297 0.13197 0.0
O119 O 0.4379 0.49287 0.14566 0.0
C120 C 0.40825 0.47117 0.13581 0.0
O121 O 0.40872 0.44977 0.11942 0.0
C122 C 0.53589 0.49615 0.09326 0.0
C123 C 0.63755 0.49839 0.14908 0.0
O124 O 0.60956 0.46767 0.1434 0.0
O125 O 0.63374 0.5281 0.15173 0.0
H126 H 0.12209 0.50943 0.18482 0.0
H127 H 0.18338 0.5158 0.18308 0.0
H128 H 0.14602 0.42335 0.13531 0.0
H129 H 0.08532 0.41779 0.13651 0.0
H130 H 0.18692 0.41707 0.1668 0.0
H131 H 0.19084 0.50829 0.12345 0.0
H132 H 0.18712 0.5641 0.11428 0.0
H133 H 0.27307 0.63266 0.15898 0.0
H134 H 0.27631 0.57705 0.16908 0.0
H135 H 0.34077 0.42363 0.11977 0.0
H136 H 0.28439 0.42505 0.12771 0.0
H137 H 0.34091 0.52021 0.17271 0.0
H138 H 0.39792 0.51912 0.16474 0.0
H139 H 0.29282 0.52897 0.14699 0.0
H140 H 0.29003 0.43758 0.18944 0.0
H141 H 0.29481 0.38164 0.19741 0.0
H142 H 0.20795 0.31386 0.15305 0.0
H143 H 0.20296 0.36948 0.1446 0.0
C144 C 0.1272 0.49107 0.17366 0.0
C145 C 0.09912 0.46357 0.16055 0.0
C146 C 0.16211 0.49451 0.17279 0.0
C147 C 0.16929 0.47015 0.15898 0.0
C148 C 0.1411 0.44243 0.14608 0.0
C149 C 0.10643 0.43929 0.14678 0.0
C150 C 0.20586 0.47268 0.15812 0.0
C151 C 0.21003 0.44149 0.16236 0.0
C152 C 0.23621 0.50495 0.15287 0.0
C153 C 0.2334 0.53831 0.14729 0.0
C154 C 0.20847 0.53513 0.13165 0.0
C155 C 0.20648 0.56678 0.12625 0.0
C156 C 0.22974 0.60189 0.1361 0.0
C157 C 0.25491 0.60541 0.15145 0.0
C158 C 0.25673 0.57381 0.15708 0.0
C159 C 0.34133 0.44479 0.13147 0.0
C160 C 0.37391 0.47121 0.14167 0.0
C161 C 0.30897 0.44548 0.13603 0.0
C162 C 0.30833 0.47253 0.15093 0.0
C163 C 0.34077 0.49904 0.16118 0.0
C164 C 0.37328 0.49825 0.15669 0.0
C165 C 0.27367 0.47315 0.15536 0.0
C166 C 0.26983 0.50484 0.15177 0.0
C167 C 0.24351 0.44135 0.16118 0.0
C168 C 0.2463 0.40777 0.16628 0.0
C169 C 0.27211 0.41079 0.18127 0.0
C170 C 0.27483 0.37913 0.1859 0.0
C171 C 0.25174 0.34423 0.17572 0.0
C172 C 0.22583 0.34091 0.16092 0.0
C173 C 0.22301 0.37249 0.15623 0.0
H174 H 0.25389 0.31975 0.17932 0.0
H175 H 0.22833 0.62639 0.13179 0.0
H176 H 0.6171 0.20234 0.52315 0.0
H177 H 0.67078 0.26298 0.52421 0.0
H178 H 0.73218 0.20861 0.49889 0.0
H179 H 0.67893 0.14815 0.49816 0.0
H180 H 0.77035 0.26141 0.52923 0.0
H181 H 0.69565 0.25031 0.46936 0.0
H182 H 0.64073 0.24303 0.45104 0.0
H183 H 0.65063 0.34352 0.485 0.0
H184 H 0.70496 0.35075 0.50404 0.0
H185 H 0.91389 0.39477 0.47936 0.0
H186 H 0.85999 0.34237 0.48964 0.0
H187 H 0.81871 0.41743 0.51384 0.0
H188 H 0.87266 0.47029 0.50332 0.0
H189 H 0.7688 0.35946 0.48938 0.0
H190 H 0.84674 0.37398 0.54678 0.0
H191 H 0.90235 0.38198 0.56459 0.0
H192 H 0.88743 0.27663 0.53473 0.0
H193 H 0.83198 0.26821 0.5165 0.0
C194 C 0.64218 0.20341 0.51799 0.0
C195 C 0.64395 0.17066 0.51053 0.0
C196 C 0.67276 0.23803 0.51853 0.0
C197 C 0.70545 0.24039 0.51144 0.0
C198 C 0.7073 0.2075 0.50446 0.0
C199 C 0.67684 0.17298 0.50398 0.0
C200 C 0.73765 0.27694 0.51062 0.0
C201 C 0.77005 0.28278 0.52043 0.0
C202 C 0.73701 0.30536 0.4997 0.0
C203 C 0.70407 0.30073 0.48839 0.0
C204 C 0.68584 0.27057 0.47315 0.0
C205 C 0.6548 0.26645 0.46263 0.0
C206 C 0.64204 0.29264 0.46697 0.0
C207 C 0.66038 0.32309 0.48178 0.0
C208 C 0.69123 0.32715 0.49248 0.0
C209 C 0.8936 0.4003 0.48709 0.0
C210 C 0.89759 0.43675 0.49048 0.0
C211 C 0.86282 0.37026 0.49306 0.0
C212 C 0.83542 0.37596 0.50269 0.0
C213 C 0.83957 0.4124 0.50648 0.0
C214 C 0.87047 0.44257 0.50053 0.0
C215 C 0.80166 0.3435 0.50755 0.0
C216 C 0.76898 0.3384 0.4985 0.0
C217 C 0.802 0.31574 0.51915 0.0
C218 C 0.83528 0.32058 0.53017 0.0
C219 C 0.85543 0.35263 0.54389 0.0
C220 C 0.88692 0.35722 0.55409 0.0
C221 C 0.89845 0.32986 0.55077 0.0
C222 C 0.87847 0.2978 0.53729 0.0
C223 C 0.84697 0.29308 0.52704 0.0
H224 H 0.92283 0.33347 0.55868 0.0
H225 H 0.61805 0.28946 0.45878 0.0
H226 H 0.5521 0.62229 0.86305 0.0
H227 H 0.53331 0.67087 0.85989 0.0
H228 H 0.5952 0.70222 0.80542 0.0
H229 H 0.61379 0.65348 0.80848 0.0
H230 H 0.57408 0.74614 0.86105 0.0
H231 H 0.54638 0.7247 0.77112 0.0
H232 H 0.52364 0.67258 0.74329 0.0
H233 H 0.46761 0.59583 0.78754 0.0
H234 H 0.48942 0.64739 0.81559 0.0
H235 H 0.59009 0.90968 0.82429 0.0
H236 H 0.59395 0.85254 0.829 0.0
H237 H 0.47956 0.78829 0.81577 0.0
H238 H 0.47546 0.84553 0.81087 0.0
H239 H 0.51567 0.75436 0.79635 0.0
H240 H 0.51091 0.80369 0.86468 0.0
H241 H 0.52665 0.8511 0.89471 0.0
H242 H 0.63451 0.86408 0.89722 0.0
H243 H 0.61957 0.8171 0.86699 0.0
C244 C 0.56148 0.63949 0.85036 0.0
C245 C 0.58419 0.63419 0.83594 0.0
C246 C 0.55091 0.66727 0.84863 0.0
C247 C 0.56262 0.6899 0.83233 0.0
C248 C 0.58555 0.68477 0.81799 0.0
C249 C 0.59639 0.6572 0.81983 0.0
C250 C 0.55172 0.7196 0.83054 0.0
C251 C 0.56126 0.74792 0.84693 0.0
C252 C 0.5338 0.72113 0.8124 0.0
C253 C 0.51994 0.68998 0.79551 0.0
C254 C 0.52906 0.69674 0.77491 0.0
C255 C 0.51631 0.66728 0.7591 0.0
C256 C 0.49425 0.63095 0.76368 0.0
C257 C 0.48475 0.62398 0.78405 0.0
C258 C 0.49741 0.6533 0.79992 0.0
C259 C 0.56571 0.88344 0.82237 0.0
C260 C 0.53244 0.88222 0.81731 0.0
C261 C 0.56795 0.85078 0.82513 0.0
C262 C 0.53698 0.81618 0.82296 0.0
C263 C 0.50378 0.8147 0.81756 0.0
C264 C 0.50148 0.84746 0.81485 0.0
C265 C 0.53959 0.7818 0.82652 0.0
C266 C 0.5284 0.75253 0.81049 0.0
C267 C 0.55497 0.77876 0.84527 0.0
C268 C 0.56418 0.80708 0.86345 0.0
C269 C 0.53807 0.81687 0.87152 0.0
C270 C 0.54684 0.84363 0.8886 0.0
C271 C 0.58158 0.86065 0.89784 0.0
C272 C 0.60762 0.85089 0.89003 0.0
C273 C 0.599 0.82417 0.87294 0.0
H274 H 0.58831 0.88135 0.91107 0.0
H275 H 0.48457 0.60818 0.75146 0.0
H276 H 0.96743 0.56996 0.18525 0.0
H277 H 0.90617 0.56302 0.18317 0.0
H278 H 0.87604 0.47017 0.13611 0.0
H279 H 0.93784 0.47839 0.1374 0.0
H280 H 0.84741 0.51132 0.12573 0.0
H281 H 0.85171 0.45845 0.18749 0.0
H282 H 0.87663 0.45611 0.22145 0.0
H283 H 0.86167 0.54942 0.24696 0.0
H284 H 0.83725 0.55278 0.21299 0.0
H285 H 0.65779 0.44523 0.13525 0.0
H286 H 0.71776 0.44876 0.1382 0.0
H287 H 0.75814 0.55749 0.17222 0.0
H288 H 0.69837 0.55453 0.16901 0.0
H289 H 0.77976 0.50528 0.18934 0.0
H290 H 0.77647 0.55674 0.12519 0.0
H291 H 0.75062 0.55525 0.0907 0.0
H292 H 0.76102 0.45718 0.06965 0.0
H293 H 0.78646 0.45779 0.10414 0.0
C294 C 0.94773 0.54813 0.17444 0.0
C295 C 0.95721 0.52433 0.16173 0.0
C296 C 0.91263 0.54398 0.17337 0.0
C297 C 0.88614 0.51555 0.15978 0.0
C298 C 0.89583 0.49216 0.14681 0.0
C299 C 0.93108 0.49666 0.14769 0.0
C300 C 0.84854 0.51061 0.15893 0.0
C301 C 0.83251 0.50945 0.13964 0.0
C302 C 0.82898 0.50845 0.17706 0.0
C303 C 0.84296 0.50609 0.19763 0.0
C304 C 0.85393 0.47862 0.20031 0.0
C305 C 0.86796 0.47711 0.21957 0.0
C306 C 0.87082 0.50266 0.23637 0.0
C307 C 0.85949 0.52968 0.23393 0.0
C308 C 0.84553 0.53139 0.21468 0.0
C309 C 0.67936 0.46981 0.14347 0.0
C310 C 0.67335 0.49967 0.15185 0.0
C311 C 0.71361 0.47179 0.1451 0.0
C312 C 0.74237 0.50343 0.15537 0.0
C313 C 0.73626 0.53282 0.16426 0.0
C314 C 0.70215 0.53114 0.16234 0.0
C315 C 0.77908 0.50634 0.15623 0.0
C316 C 0.79479 0.50703 0.1755 0.0
C317 C 0.79808 0.50733 0.13807 0.0
C318 C 0.78299 0.50708 0.11731 0.0
C319 C 0.77294 0.53466 0.11326 0.0
C320 C 0.75843 0.53402 0.0937 0.0
C321 C 0.75408 0.50608 0.07801 0.0
C322 C 0.76434 0.47878 0.08183 0.0
C323 C 0.77883 0.47927 0.10138 0.0
H324 H 0.74285 0.50563 0.06287 0.0
H325 H 0.88177 0.50155 0.25127 0.0
H326 H 0.41048 0.87298 0.50184 0.0
H327 H 0.35608 0.81319 0.5004 0.0
H328 H 0.29219 0.86642 0.48364 0.0
H329 H 0.34651 0.92641 0.48557 0.0
H330 H 0.26163 0.82269 0.51296 0.0
H331 H 0.31225 0.8085 0.44752 0.0
H332 H 0.35986 0.8079 0.42524 0.0
H333 H 0.36465 0.72303 0.45824 0.0
H334 H 0.31714 0.72323 0.48077 0.0
H335 H 0.09844 0.6643 0.47982 0.0
H336 H 0.15472 0.72209 0.48252 0.0
H337 H 0.21288 0.66218 0.49793 0.0
H338 H 0.15668 0.60397 0.49467 0.0
H339 H 0.24771 0.70822 0.47065 0.0
H340 H 0.19625 0.71964 0.53501 0.0
H341 H 0.14941 0.71973 0.55809 0.0
H342 H 0.14781 0.80981 0.52883 0.0
H343 H 0.19431 0.80994 0.50537 0.0
C344 C 0.38483 0.87179 0.49769 0.0
C345 C 0.3826 0.90419 0.49377 0.0
C346 C 0.35377 0.8376 0.49679 0.0
C347 C 0.32001 0.83517 0.49169 0.0
C348 C 0.3179 0.86759 0.48761 0.0
C349 C 0.34892 0.9018 0.48864 0.0
C350 C 0.28667 0.7992 0.49129 0.0
C351 C 0.25839 0.79778 0.50347 0.0
C352 C 0.28291 0.76633 0.47953 0.0
C353 C 0.31131 0.76606 0.46591 0.0
C354 C 0.32356 0.78983 0.45008 0.0
C355 C 0.35045 0.78948 0.43737 0.0
C356 C 0.36524 0.76542 0.44032 0.0
C357 C 0.35313 0.74161 0.45596 0.0
C358 C 0.32615 0.74175 0.46866 0.0
C359 C 0.12315 0.66342 0.48394 0.0
C360 C 0.12304 0.62953 0.4871 0.0
C361 C 0.15534 0.69656 0.48556 0.0
C362 C 0.18807 0.69665 0.4907 0.0
C363 C 0.188 0.66285 0.49397 0.0
C364 C 0.15582 0.62961 0.49218 0.0
C365 C 0.2224 0.73185 0.49208 0.0
C366 C 0.25092 0.7331 0.48015 0.0
C367 C 0.22651 0.76454 0.5042 0.0
C368 C 0.19855 0.76457 0.5183 0.0
C369 C 0.18571 0.73928 0.53338 0.0
C370 C 0.15926 0.73933 0.54655 0.0
C371 C 0.14558 0.7647 0.54489 0.0
C372 C 0.1584 0.79015 0.53008 0.0
C373 C 0.18484 0.7902 0.51686 0.0
H374 H 0.1251 0.76469 0.5551 0.0
H375 H 0.38609 0.76522 0.43049 0.0
H376 H 0.47319 0.40135 0.83517 0.0
H377 H 0.47903 0.34465 0.83776 0.0
H378 H 0.59271 0.40443 0.828 0.0
H379 H 0.5863 0.46078 0.82443 0.0
H380 H 0.56606 0.33721 0.80834 0.0
H381 H 0.559 0.3879 0.87581 0.0
H382 H 0.53247 0.41435 0.90221 0.0
H383 H 0.43833 0.30861 0.90088 0.0
H384 H 0.46326 0.28204 0.87347 0.0
H385 H 0.59201 0.1871 0.83765 0.0
H386 H 0.5969 0.24984 0.84179 0.0
H387 H 0.48129 0.20319 0.84204 0.0
H388 H 0.47609 0.1404 0.83797 0.0
H389 H 0.51697 0.26833 0.86967 0.0
H390 H 0.52125 0.22408 0.79759 0.0
H391 H 0.54663 0.19987 0.76925 0.0
H392 H 0.64937 0.29613 0.78132 0.0
H393 H 0.62467 0.32066 0.80993 0.0
C394 C 0.49936 0.40231 0.83338 0.0
C395 C 0.52948 0.43556 0.82975 0.0
C396 C 0.50272 0.36994 0.83497 0.0
C397 C 0.5365 0.37047 0.83361 0.0
C398 C 0.56641 0.40339 0.82925 0.0
C399 C 0.56283 0.43563 0.82725 0.0
C400 C 0.54052 0.33687 0.83722 0.0
C401 C 0.55594 0.3226 0.82195 0.0
C402 C 0.52725 0.31771 0.85501 0.0
C403 C 0.51294 0.33299 0.87237 0.0
C404 C 0.53249 0.3703 0.88098 0.0
C405 C 0.51763 0.3854 0.89605 0.0
C406 C 0.48379 0.36314 0.90328 0.0
C407 C 0.46459 0.32581 0.89529 0.0
C408 C 0.47897 0.31076 0.87986 0.0
C409 C 0.56763 0.19014 0.83904 0.0
C410 C 0.53361 0.15871 0.83719 0.0
C411 C 0.57051 0.22605 0.84136 0.0
C412 C 0.53944 0.23113 0.84191 0.0
C413 C 0.5056 0.19988 0.8416 0.0
C414 C 0.50269 0.16398 0.83919 0.0
C415 C 0.54173 0.26846 0.84056 0.0
C416 C 0.52758 0.28343 0.85627 0.0
C417 C 0.55653 0.28858 0.82333 0.0
C418 C 0.57124 0.27398 0.80603 0.0
C419 C 0.54932 0.23994 0.79429 0.0
C420 C 0.56356 0.22618 0.77817 0.0
C421 C 0.59962 0.24639 0.77352 0.0
C422 C 0.62147 0.28047 0.78496 0.0
C423 C 0.60736 0.29432 0.80112 0.0
H424 H 0.6106 0.2357 0.76104 0.0
H425 H 0.47247 0.37484 0.91507 0.0
H426 H 0.56806 0.96363 0.47114 0.0
H427 H 0.55695 0.89838 0.47034 0.0
H428 H 0.49489 0.8858 0.52483 0.0
H429 H 0.50541 0.95031 0.52553 0.0
H430 H 0.54893 0.86142 0.52687 0.0
H431 H 0.45005 0.84801 0.48354 0.0
H432 H 0.42266 0.86277 0.45436 0.0
H433 H 0.47878 0.82337 0.41131 0.0
H434 H 0.50717 0.80916 0.44034 0.0
H435 H 0.45342 0.67153 0.53596 0.0
H436 H 0.46176 0.73208 0.52728 0.0
H437 H 0.53166 0.73025 0.47882 0.0
H438 H 0.52389 0.66946 0.48758 0.0
H439 H 0.47727 0.76189 0.47096 0.0
H440 H 0.57517 0.77413 0.51672 0.0
H441 H 0.59991 0.76011 0.54738 0.0
H442 H 0.54142 0.80167 0.5872 0.0
H443 H 0.51586 0.81536 0.55671 0.0
C444 C 0.55205 0.94678 0.48288 0.0
C445 C 0.53749 0.96176 0.49835 0.0
C446 C 0.54562 0.90965 0.48237 0.0
C447 C 0.52506 0.88742 0.49752 0.0
C448 C 0.51081 0.90256 0.51303 0.0
C449 C 0.51673 0.93931 0.51335 0.0
C450 C 0.51896 0.84856 0.49769 0.0
C451 C 0.53324 0.83968 0.51465 0.0
C452 C 0.49874 0.82038 0.48165 0.0
C453 C 0.48116 0.82807 0.46412 0.0
C454 C 0.45686 0.84289 0.46786 0.0
C455 C 0.44117 0.85117 0.45136 0.0
C456 C 0.44917 0.84425 0.43099 0.0
C457 C 0.47274 0.82886 0.4271 0.0
C458 C 0.48866 0.82071 0.44358 0.0
C459 C 0.47005 0.68353 0.52318 0.0
C460 C 0.48838 0.66586 0.51264 0.0
C461 C 0.47468 0.71812 0.51822 0.0
C462 C 0.49745 0.73559 0.50251 0.0
C463 C 0.51388 0.71703 0.49096 0.0
C464 C 0.50954 0.68244 0.49605 0.0
C465 C 0.50727 0.77493 0.50016 0.0
C466 C 0.49354 0.78384 0.48293 0.0
C467 C 0.52773 0.80326 0.51607 0.0
C468 C 0.54334 0.79541 0.53443 0.0
C469 C 0.56733 0.77995 0.532 0.0
C470 C 0.58155 0.77213 0.54935 0.0
C471 C 0.57217 0.7799 0.56922 0.0
C472 C 0.54862 0.79561 0.57179 0.0
C473 C 0.53429 0.80344 0.55449 0.0
H474 H 0.58321 0.77383 0.58264 0.0
H475 H 0.4369 0.85056 0.41822 0.0
H476 H 0.71692 0.57004 0.86267 0.0
H477 H 0.77473 0.56839 0.86213 0.0
H478 H 0.74292 0.50171 0.80288 0.0
H479 H 0.68471 0.50264 0.80361 0.0
H480 H 0.77274 0.47442 0.82803 0.0
H481 H 0.80406 0.59427 0.80636 0.0
H482 H 0.80696 0.65658 0.8081 0.0
H483 H 0.86679 0.6875 0.86655 0.0
H484 H 0.86382 0.62519 0.86532 0.0
H485 H 0.94872 0.48973 0.81846 0.0
H486 H 0.89519 0.49713 0.81032 0.0
H487 H 0.90801 0.55897 0.87016 0.0
H488 H 0.96144 0.55206 0.87833 0.0
H489 H 0.88893 0.58953 0.83966 0.0
H490 H 0.85084 0.46747 0.86299 0.0
H491 H 0.84731 0.4049 0.86165 0.0
H492 H 0.79984 0.37848 0.79975 0.0
H493 H 0.80355 0.44113 0.80064 0.0
C494 C 0.72233 0.55507 0.84954 0.0
C495 C 0.69655 0.53654 0.83316 0.0
C496 C 0.7554 0.55435 0.84917 0.0
C497 C 0.76335 0.53546 0.83228 0.0
C498 C 0.7374 0.51661 0.816 0.0
C499 C 0.70423 0.51717 0.81642 0.0
C500 C 0.79832 0.53444 0.83201 0.0
C501 C 0.79818 0.49962 0.83014 0.0
C502 C 0.83147 0.56732 0.83506 0.0
C503 C 0.83349 0.60493 0.83581 0.0
C504 C 0.81763 0.61426 0.81966 0.0
C505 C 0.81931 0.64961 0.82054 0.0
C506 C 0.83699 0.67596 0.83744 0.0
C507 C 0.85309 0.66706 0.85348 0.0
C508 C 0.85146 0.63174 0.85268 0.0
C509 C 0.94036 0.50528 0.82976 0.0
C510 C 0.95907 0.52 0.84912 0.0
C511 C 0.90976 0.50939 0.82511 0.0
C512 C 0.89749 0.52823 0.83975 0.0
C513 C 0.91705 0.54432 0.85867 0.0
C514 C 0.94749 0.54016 0.86335 0.0
C515 C 0.86319 0.52957 0.83604 0.0
C516 C 0.86347 0.56442 0.83719 0.0
C517 C 0.83016 0.49675 0.83231 0.0
C518 C 0.82789 0.4591 0.83179 0.0
C519 C 0.83994 0.44842 0.84903 0.0
C520 C 0.83785 0.41293 0.84837 0.0
C521 C 0.82347 0.38777 0.8306 0.0
C522 C 0.81105 0.39802 0.81348 0.0
C523 C 0.81313 0.43351 0.81406 0.0
H524 H 0.82187 0.3603 0.83011 0.0
H525 H 0.83826 0.7033 0.8381 0.0
H526 H 0.18481 0.60794 0.18462 0.0
H527 H 0.24332 0.66271 0.18442 0.0
H528 H 0.19834 0.71006 0.14305 0.0
H529 H 0.13961 0.65505 0.14317 0.0
H530 H 0.26242 0.71942 0.13088 0.0
H531 H 0.21487 0.74132 0.19476 0.0
H532 H 0.18742 0.72669 0.22852 0.0
H533 H 0.27827 0.71535 0.25098 0.0
H534 H 0.30605 0.72941 0.21723 0.0
H535 H 0.40452 0.90781 0.15314 0.0
H536 H 0.34772 0.85039 0.14727 0.0
H537 H 0.39135 0.79373 0.18254 0.0
H538 H 0.44807 0.8507 0.18842 0.0
H539 H 0.32752 0.78999 0.19703 0.0
H540 H 0.37516 0.77025 0.13207 0.0
H541 H 0.40165 0.78706 0.09829 0.0
H542 H 0.30934 0.79788 0.07797 0.0
H543 H 0.28251 0.78164 0.11176 0.0
C544 C 0.18741 0.6301 0.17554 0.0
C545 C 0.15778 0.62753 0.16403 0.0
C546 C 0.22079 0.6614 0.17547 0.0
C547 C 0.22512 0.69064 0.16388 0.0
C548 C 0.1956 0.68781 0.15209 0.0
C549 C 0.1621 0.65652 0.15224 0.0
C550 C 0.26044 0.7242 0.16419 0.0
C551 C 0.27646 0.73519 0.14532 0.0
C552 C 0.27895 0.74443 0.18306 0.0
C553 C 0.26238 0.73609 0.2034 0.0
C554 C 0.22887 0.73543 0.20685 0.0
C555 C 0.21327 0.72729 0.22599 0.0
C556 C 0.23105 0.72001 0.24187 0.0
C557 C 0.26451 0.72095 0.23865 0.0
C558 C 0.28021 0.72904 0.21953 0.0
C559 C 0.40228 0.88291 0.15927 0.0
C560 C 0.43068 0.88391 0.17144 0.0
C561 C 0.36984 0.85014 0.15587 0.0
C562 C 0.36537 0.81795 0.16457 0.0
C563 C 0.39428 0.81838 0.17578 0.0
C564 C 0.42671 0.85097 0.17908 0.0
C565 C 0.32966 0.78495 0.16376 0.0
C566 C 0.31349 0.7742 0.18258 0.0
C567 C 0.31091 0.76536 0.14486 0.0
C568 C 0.327 0.77511 0.12453 0.0
C569 C 0.36066 0.77656 0.12048 0.0
C570 C 0.3757 0.7859 0.1013 0.0
C571 C 0.35723 0.79364 0.08601 0.0
C572 C 0.32364 0.79194 0.08984 0.0
C573 C 0.30849 0.78263 0.10899 0.0
H574 H 0.36892 0.80086 0.07117 0.0
H575 H 0.21893 0.71371 0.25668 0.0
H576 H 0.44038 0.10266 0.52535 0.0
H577 H 0.44694 0.16602 0.52562 0.0
H578 H 0.53976 0.19595 0.4884 0.0
H579 H 0.53269 0.13253 0.48753 0.0
H580 H 0.54914 0.24829 0.52326 0.0
H581 H 0.46609 0.18088 0.46513 0.0
H582 H 0.41117 0.12961 0.44773 0.0
H583 H 0.34587 0.15988 0.4886 0.0
H584 H 0.40047 0.21103 0.50647 0.0
H585 H 0.56791 0.42244 0.49826 0.0
H586 H 0.56137 0.35908 0.49563 0.0
H587 H 0.45683 0.32037 0.5216 0.0
H588 H 0.46266 0.38328 0.52355 0.0
H589 H 0.45393 0.27177 0.49202 0.0
H590 H 0.53595 0.33962 0.55015 0.0
H591 H 0.59036 0.38958 0.56876 0.0
H592 H 0.65696 0.35736 0.53016 0.0
H593 H 0.6029 0.30751 0.51112 0.0
C594 C 0.46217 0.12281 0.51726 0.0
C595 C 0.48624 0.11286 0.50659 0.0
C596 C 0.46585 0.15888 0.5174 0.0
C597 C 0.49378 0.18553 0.50699 0.0
C598 C 0.51812 0.17577 0.49658 0.0
C599 C 0.51414 0.13961 0.49618 0.0
C600 C 0.49752 0.22359 0.50682 0.0
C601 C 0.5286 0.25363 0.51622 0.0
C602 C 0.47024 0.23016 0.49805 0.0
C603 C 0.43738 0.19954 0.48728 0.0
C604 C 0.44004 0.1764 0.47053 0.0
C605 C 0.40896 0.1474 0.46056 0.0
C606 C 0.37505 0.14143 0.46709 0.0
C607 C 0.37216 0.16451 0.48358 0.0
C608 C 0.40316 0.19352 0.49362 0.0
C609 C 0.54342 0.40036 0.50326 0.0
C610 C 0.51587 0.4079 0.5112 0.0
C611 C 0.5398 0.36418 0.50187 0.0
C612 C 0.5089 0.33502 0.50881 0.0
C613 C 0.48097 0.34237 0.51621 0.0
C614 C 0.48436 0.3784 0.51733 0.0
C615 C 0.50566 0.29691 0.50859 0.0
C616 C 0.47461 0.2667 0.4991 0.0
C617 C 0.53289 0.29018 0.5175 0.0
C618 C 0.56539 0.32025 0.52894 0.0
C619 C 0.5622 0.34345 0.54546 0.0
C620 C 0.59298 0.3717 0.55613 0.0
C621 C 0.62711 0.37677 0.55057 0.0
C622 C 0.63052 0.35352 0.53438 0.0
C623 C 0.59983 0.32529 0.52364 0.0
H624 H 0.6509 0.39863 0.55886 0.0
H625 H 0.35103 0.11897 0.45935 0.0
H626 H 0.419 0.53105 0.80079 0.0
H627 H 0.36656 0.5431 0.80012 0.0
H628 H 0.39313 0.59355 0.86333 0.0
H629 H 0.44631 0.5827 0.8639 0.0
H630 H 0.31814 0.52906 0.85166 0.0
H631 H 0.40312 0.65252 0.83743 0.0
H632 H 0.45358 0.69732 0.8191 0.0
H633 H 0.39254 0.65191 0.76114 0.0
H634 H 0.34152 0.60688 0.77924 0.0
H635 H 0.20327 0.62892 0.85007 0.0
H636 H 0.26244 0.63207 0.8444 0.0
H637 H 0.21166 0.51856 0.8161 0.0
H638 H 0.15246 0.51496 0.82186 0.0
H639 H 0.30139 0.61907 0.81143 0.0
H640 H 0.25069 0.47367 0.83946 0.0
H641 H 0.20216 0.43132 0.86003 0.0
H642 H 0.19864 0.52505 0.89464 0.0
H643 H 0.2475 0.56792 0.8745 0.0
C644 C 0.41377 0.54499 0.81446 0.0
C645 C 0.43635 0.55574 0.83245 0.0
C646 C 0.38404 0.55199 0.81402 0.0
C647 C 0.37625 0.56919 0.83167 0.0
C648 C 0.39897 0.58033 0.84958 0.0
C649 C 0.42915 0.57406 0.84988 0.0
C650 C 0.34285 0.57299 0.83188 0.0
C651 C 0.3144 0.5487 0.84289 0.0
C652 C 0.33845 0.59893 0.8206 0.0
C653 C 0.36866 0.62622 0.80965 0.0
C654 C 0.40053 0.65201 0.82076 0.0
C655 C 0.42918 0.67751 0.81043 0.0
C656 C 0.42635 0.6774 0.78894 0.0
C657 C 0.3947 0.65196 0.77779 0.0
C658 C 0.36583 0.62655 0.78809 0.0
C659 C 0.20468 0.60489 0.84221 0.0
C660 C 0.17321 0.57145 0.83675 0.0
C661 C 0.23852 0.60684 0.83889 0.0
C662 C 0.2413 0.57539 0.83012 0.0
C663 C 0.20997 0.54301 0.82309 0.0
C664 C 0.17618 0.54099 0.82644 0.0
C665 C 0.2763 0.5746 0.83097 0.0
C666 C 0.30503 0.59934 0.82016 0.0
C667 C 0.28126 0.54942 0.84276 0.0
C668 C 0.25248 0.52394 0.85532 0.0
C669 C 0.23967 0.48522 0.85153 0.0
C670 C 0.21209 0.46113 0.8631 0.0
C671 C 0.19725 0.47548 0.87858 0.0
C672 C 0.21008 0.51396 0.8826 0.0
C673 C 0.23769 0.53816 0.8711 0.0
H674 H 0.17586 0.45679 0.8875 0.0
H675 H 0.44866 0.69703 0.78095 0.0
H676 H 0.90896 0.32442 0.15681 0.0
H677 H 0.8474 0.27484 0.15884 0.0
H678 H 0.80923 0.3574 0.16888 0.0
H679 H 0.87069 0.4069 0.16735 0.0
H680 H 0.781 0.30696 0.19519 0.0
H681 H 0.79574 0.30423 0.12165 0.0
H682 H 0.82538 0.30008 0.08933 0.0
H683 H 0.81101 0.19159 0.10066 0.0
H684 H 0.7817 0.1953 0.13321 0.0
H685 H 0.59461 0.18854 0.17994 0.0
H686 H 0.6557 0.23603 0.17491 0.0
H687 H 0.69175 0.15158 0.1682 0.0
H688 H 0.63057 0.10376 0.17295 0.0
H689 H 0.72118 0.20193 0.14013 0.0
H690 H 0.7063 0.20495 0.21365 0.0
H691 H 0.6767 0.20934 0.24595 0.0
H692 H 0.69153 0.31794 0.23448 0.0
H693 H 0.72077 0.31397 0.20195 0.0
C694 C 0.88734 0.33185 0.15938 0.0
C695 C 0.89442 0.36934 0.16192 0.0
C696 C 0.85221 0.30357 0.16044 0.0
C697 C 0.82363 0.3124 0.16378 0.0
C698 C 0.83082 0.34993 0.16629 0.0
C699 C 0.86591 0.37816 0.16537 0.0
C700 C 0.78633 0.28268 0.16522 0.0
C701 C 0.76776 0.2843 0.18301 0.0
C702 C 0.76938 0.25257 0.14957 0.0
C703 C 0.78684 0.25021 0.12996 0.0
C704 C 0.79914 0.27961 0.11733 0.0
C705 C 0.81584 0.27731 0.09895 0.0
C706 C 0.82016 0.24563 0.09297 0.0
C707 C 0.80769 0.21613 0.10533 0.0
C708 C 0.791 0.2183 0.12373 0.0
C709 C 0.61546 0.18 0.17725 0.0
C710 C 0.6078 0.1424 0.17699 0.0
C711 C 0.65038 0.2072 0.17445 0.0
C712 C 0.67834 0.19737 0.1715 0.0
C713 C 0.67057 0.15974 0.17052 0.0
C714 C 0.63561 0.13248 0.17329 0.0
C715 C 0.71586 0.22649 0.16999 0.0
C716 C 0.73447 0.22468 0.15226 0.0
C717 C 0.73288 0.2565 0.18567 0.0
C718 C 0.7154 0.25899 0.20526 0.0
C719 C 0.70299 0.22964 0.21793 0.0
C720 C 0.68632 0.23208 0.2363 0.0
C721 C 0.68215 0.26385 0.24224 0.0
C722 C 0.69473 0.29331 0.22985 0.0
C723 C 0.71137 0.291 0.21146 0.0
H724 H 0.66924 0.26569 0.25646 0.0
H725 H 0.8331 0.24391 0.07874 0.0
H726 H 0.99642 0.43098 0.09033 0.0
H727 H 0.00411 0.43053 0.05277 0.0
H728 H 0.09212 0.54165 0.06209 0.0
H729 H 0.08513 0.54224 0.09944 0.0
H730 H 0.03644 0.53023 0.03172 0.0
H731 H 0.11323 0.47693 0.05125 0.0
H732 H 0.12622 0.43123 0.06728 0.0
H733 H 0.0462 0.34252 0.02632 0.0
H734 H 0.03231 0.38769 0.01026 0.0
H735 H 0.10453 0.56065 0.93351 0.0
H736 H 0.10159 0.5536 0.97056 0.0
H737 H 0.03145 0.43586 0.95717 0.0
H738 H 0.03532 0.4425 0.92 0.0
H739 H 0.07511 0.44735 0.98957 0.0
H740 H 0.99733 0.4975 0.96984 0.0
H741 H 0.98061 0.5408 0.95393 0.0
H742 H 0.05683 0.63199 0.99529 0.0
H743 H 0.07439 0.58931 0.01125 0.0
C744 C 0.01749 0.45523 0.08436 0.0
C745 C 0.04012 0.48665 0.09784 0.0
C746 C 0.02191 0.45486 0.06296 0.0
C747 C 0.0487 0.48606 0.05477 0.0
C748 C 0.07131 0.51734 0.06818 0.0
C749 C 0.0673 0.51753 0.08952 0.0
C750 C 0.05257 0.4869 0.03216 0.0
C751 C 0.04527 0.51242 0.0225 0.0
C752 C 0.06295 0.46277 0.02017 0.0
C753 C 0.07144 0.43564 0.02972 0.0
C754 C 0.09815 0.44765 0.04579 0.0
C755 C 0.10573 0.42185 0.05486 0.0
C756 C 0.08697 0.38398 0.04787 0.0
C757 C 0.06067 0.37186 0.03175 0.0
C758 C 0.05294 0.39755 0.02265 0.0
C759 C 0.08889 0.53316 0.93844 0.0
C760 C 0.06981 0.5022 0.92386 0.0
C761 C 0.0871 0.52919 0.95962 0.0
C762 C 0.06552 0.49437 0.96665 0.0
C763 C 0.04807 0.46303 0.9521 0.0
C764 C 0.05029 0.46689 0.93087 0.0
C765 C 0.05956 0.49122 0.98909 0.0
C766 C 0.06623 0.46516 0.99873 0.0
C767 C 0.04803 0.51451 0.00109 0.0
C768 C 0.03741 0.54025 0.99161 0.0
C769 C 0.01071 0.52683 0.97544 0.0
C770 C 0.00106 0.55126 0.96643 0.0
C771 C 0.01771 0.58914 0.97356 0.0
C772 C 0.04399 0.60265 0.98976 0.0
C773 C 0.05378 0.57835 0.99881 0.0
H774 H 0.0102 0.60801 0.96657 0.0
H775 H 0.09288 0.36405 0.0549 0.0
H776 H 0.48051 0.9733 0.43118 0.0
H777 H 0.47966 0.97208 0.39326 0.0
H778 H 0.54228 0.09163 0.39883 0.0
H779 H 0.54363 0.09315 0.43657 0.0
H780 H 0.48024 0.0618 0.37048 0.0
H781 H 0.58424 0.0436 0.38698 0.0
H782 H 0.61406 0.01114 0.40284 0.0
H783 H 0.54425 0.9093 0.36611 0.0
H784 H 0.51368 0.94108 0.35022 0.0
H785 H 0.52947 0.0937 0.26747 0.0
H786 H 0.52993 0.09288 0.30515 0.0
H787 H 0.49508 0.97434 0.29739 0.0
H788 H 0.49661 0.97552 0.25984 0.0
H789 H 0.54089 0.00152 0.32734 0.0
H790 H 0.43666 0.01524 0.31029 0.0
H791 H 0.40169 0.04292 0.29493 0.0
H792 H 0.46393 0.14612 0.33262 0.0
H793 H 0.4996 0.1192 0.34802 0.0
C794 C 0.49405 0.9993 0.42431 0.0
C795 C 0.51224 0.0333 0.43684 0.0
C796 C 0.4936 0.99854 0.40269 0.0
C797 C 0.51099 0.03178 0.39335 0.0
C798 C 0.52871 0.06573 0.40581 0.0
C799 C 0.5296 0.06648 0.42736 0.0
C800 C 0.51106 0.03138 0.37053 0.0
C801 C 0.49376 0.04898 0.36099 0.0
C802 C 0.52773 0.01356 0.35825 0.0
C803 C 0.54646 0.99463 0.36757 0.0
C804 C 0.57508 0.01423 0.3824 0.0
C805 C 0.59215 0.99596 0.39137 0.0
C806 C 0.581 0.95816 0.38553 0.0
C807 C 0.55283 0.93857 0.37064 0.0
C808 C 0.53566 0.9567 0.36163 0.0
C809 C 0.52208 0.06755 0.27385 0.0
C810 C 0.51294 0.03468 0.26075 0.0
C811 C 0.52208 0.06701 0.29538 0.0
C812 C 0.51177 0.03337 0.30418 0.0
C813 C 0.50311 0.00065 0.29105 0.0
C814 C 0.50396 0.00134 0.26956 0.0
C815 C 0.51012 0.03219 0.32703 0.0
C816 C 0.52715 0.01428 0.33667 0.0
C817 C 0.49244 0.04901 0.33937 0.0
C818 C 0.47103 0.0653 0.33016 0.0
C819 C 0.44306 0.04392 0.31519 0.0
C820 C 0.42309 0.05946 0.3065 0.0
C821 C 0.43065 0.09628 0.31276 0.0
C822 C 0.45814 0.11761 0.32777 0.0
C823 C 0.47822 0.10222 0.3365 0.0
H824 H 0.41515 0.10826 0.30601 0.0
H825 H 0.59423 0.94406 0.3925 0.0
H826 H 0.54238 0.59364 0.77396 0.0
H827 H 0.54046 0.60029 0.73688 0.0
H828 H 0.58562 0.52407 0.72415 0.0
H829 H 0.58911 0.51873 0.76119 0.0
H830 H 0.61409 0.57711 0.70065 0.0
H831 H 0.4926 0.49845 0.71868 0.0
H832 H 0.43761 0.48259 0.73807 0.0
H833 H 0.42714 0.57401 0.71596 0.0
H834 H 0.48254 0.59093 0.69681 0.0
H835 H 0.55909 0.51693 0.59464 0.0
H836 H 0.56688 0.52069 0.63227 0.0
H837 H 0.52958 0.60412 0.63971 0.0
H838 H 0.52119 0.6002 0.6021 0.0
H839 H 0.49819 0.55185 0.66592 0.0
H840 H 0.61875 0.62823 0.64652 0.0
H841 H 0.6733 0.64271 0.6269 0.0
H842 H 0.68425 0.55304 0.65105 0.0
H843 H 0.62948 0.5377 0.67061 0.0
C844 C 0.55201 0.57845 0.76322 0.0
C845 C 0.56562 0.55542 0.7704 0.0
C846 C 0.55077 0.58215 0.74204 0.0
C847 C 0.56216 0.56204 0.72765 0.0
C848 C 0.57661 0.53981 0.73492 0.0
C849 C 0.57854 0.53671 0.7561 0.0
C850 C 0.55844 0.56336 0.70499 0.0
C851 C 0.58863 0.57122 0.69305 0.0
C852 C 0.52543 0.55653 0.69507 0.0
C853 C 0.49195 0.5462 0.70649 0.0
C854 C 0.47874 0.51535 0.71808 0.0
C855 C 0.44749 0.50617 0.72903 0.0
C856 C 0.42894 0.52734 0.72829 0.0
C857 C 0.44153 0.55764 0.71653 0.0
C858 C 0.4729 0.56709 0.70566 0.0
C859 C 0.55265 0.53619 0.60425 0.0
C860 C 0.53957 0.55831 0.59533 0.0
C861 C 0.55727 0.53842 0.62577 0.0
C862 C 0.54919 0.563 0.63878 0.0
C863 C 0.53603 0.58502 0.62995 0.0
C864 C 0.53134 0.58278 0.60843 0.0
C865 C 0.55369 0.56512 0.66164 0.0
C866 C 0.52366 0.55795 0.67358 0.0
C867 C 0.58674 0.57229 0.67154 0.0
C868 C 0.61984 0.58164 0.6599 0.0
C869 C 0.63265 0.61144 0.64753 0.0
C870 C 0.66363 0.61982 0.63644 0.0
C871 C 0.68219 0.59876 0.63769 0.0
C872 C 0.66984 0.56932 0.65008 0.0
C873 C 0.63885 0.56079 0.66119 0.0
H874 H 0.70616 0.60529 0.62909 0.0
H875 H 0.40478 0.52021 0.7368 0.0
H876 H 0.54569 0.09954 0.57484 0.0
H877 H 0.55097 0.09743 0.61229 0.0
H878 H 0.49324 0.97729 0.60356 0.0
H879 H 0.48619 0.97948 0.56648 0.0
H880 H 0.47102 0.9986 0.63564 0.0
H881 H 0.58966 0.03027 0.61201 0.0
H882 H 0.64542 0.06717 0.59457 0.0
H883 H 0.66518 0.16397 0.6361 0.0
H884 H 0.60929 0.12775 0.65363 0.0
H885 H 0.51879 0.96583 0.73415 0.0
H886 H 0.51577 0.96864 0.69668 0.0
H887 H 0.55933 0.08817 0.70659 0.0
H888 H 0.56294 0.08577 0.74391 0.0
H889 H 0.58932 0.0671 0.67426 0.0
H890 H 0.46921 0.0329 0.69764 0.0
H891 H 0.41403 0.99395 0.71497 0.0
H892 H 0.39838 0.89857 0.67335 0.0
H893 H 0.45372 0.93688 0.65593 0.0
C894 C 0.53398 0.07276 0.58101 0.0
C895 C 0.51547 0.03971 0.56781 0.0
C896 C 0.53724 0.07152 0.60237 0.0
C897 C 0.52312 0.03713 0.61078 0.0
C898 C 0.50434 0.00418 0.59753 0.0
C899 C 0.5003 0.00546 0.57631 0.0
C900 C 0.52757 0.03516 0.63334 0.0
C901 C 0.49703 0.0132 0.64396 0.0
C902 C 0.56135 0.05465 0.6444 0.0
C903 C 0.59513 0.07638 0.634 0.0
C904 C 0.60579 0.05948 0.61734 0.0
C905 C 0.63743 0.08026 0.60745 0.0
C906 C 0.65878 0.11791 0.61419 0.0
C907 C 0.64859 0.13482 0.63088 0.0
C908 C 0.61696 0.11417 0.64081 0.0
C909 C 0.52794 0.99273 0.72835 0.0
C910 C 0.54087 0.02554 0.74207 0.0
C911 C 0.52608 0.99428 0.70694 0.0
C912 C 0.53689 0.02859 0.69889 0.0
C913 C 0.55079 0.06141 0.71248 0.0
C914 C 0.55271 0.05992 0.73384 0.0
C915 C 0.53287 0.03041 0.67635 0.0
C916 C 0.56342 0.05241 0.66581 0.0
C917 C 0.49923 0.01059 0.66528 0.0
C918 C 0.46576 0.98768 0.67561 0.0
C919 C 0.45411 0.00357 0.69227 0.0
C920 C 0.42279 0.98162 0.70209 0.0
C921 C 0.40276 0.94379 0.69529 0.0
C922 C 0.41394 0.92786 0.67861 0.0
C923 C 0.44525 0.94969 0.66875 0.0
H924 H 0.37853 0.92684 0.70293 0.0
H925 H 0.68325 0.13396 0.6065 0.0
H926 H 0.61125 0.526 0.8994 0.0
H927 H 0.60929 0.51804 0.93635 0.0
H928 H 0.49499 0.48323 0.93371 0.0
H929 H 0.49725 0.49296 0.89702 0.0
H930 H 0.52432 0.53365 0.96393 0.0
H931 H 0.53449 0.4187 0.94397 0.0
H932 H 0.56261 0.38158 0.92734 0.0
H933 H 0.66384 0.45652 0.95874 0.0
H934 H 0.6362 0.4935 0.97591 0.0
H935 H 0.48238 0.47689 0.06353 0.0
H936 H 0.48777 0.47793 0.02616 0.0
H937 H 0.60244 0.5177 0.03394 0.0
H938 H 0.59711 0.51564 0.07146 0.0
H939 H 0.57657 0.4671 0.00164 0.0
H940 H 0.5662 0.57699 0.02465 0.0
H941 H 0.53966 0.61398 0.04298 0.0
H942 H 0.44163 0.55231 0.00561 0.0
H943 H 0.46741 0.5146 0.98724 0.0
C944 C 0.58562 0.51616 0.90666 0.0
C945 C 0.55447 0.51052 0.8954 0.0
C946 C 0.58446 0.51128 0.92779 0.0
C947 C 0.55192 0.49971 0.9379 0.0
C948 C 0.52048 0.49236 0.92634 0.0
C949 C 0.52178 0.49798 0.90536 0.0
C950 C 0.55103 0.4989 0.96081 0.0
C951 C 0.53517 0.51845 0.97208 0.0
C952 C 0.5667 0.48071 0.9717 0.0
C953 C 0.58342 0.45904 0.96099 0.0
C954 C 0.56281 0.42737 0.94717 0.0
C955 C 0.5786 0.40632 0.93772 0.0
C956 C 0.61502 0.41693 0.9418 0.0
C957 C 0.63567 0.4484 0.95553 0.0
C958 C 0.61992 0.46927 0.96522 0.0
C959 C 0.5088 0.48591 0.05734 0.0
C960 C 0.53937 0.49648 0.07053 0.0
C961 C 0.51185 0.48661 0.03594 0.0
C962 C 0.54561 0.49859 0.02725 0.0
C963 C 0.57613 0.5085 0.0403 0.0
C964 C 0.57305 0.5074 0.06175 0.0
C965 C 0.54887 0.50083 0.00454 0.0
C966 C 0.56549 0.48199 0.9934 0.0
C967 C 0.53417 0.51997 0.99374 0.0
C968 C 0.51865 0.54276 0.00469 0.0
C969 C 0.5389 0.57115 0.02044 0.0
C970 C 0.524 0.59227 0.03082 0.0
C971 C 0.48895 0.58544 0.0255 0.0
C972 C 0.46876 0.55755 0.00973 0.0
C973 C 0.48352 0.53632 -0.00069 0.0
H974 H 0.47747 0.60182 0.03356 0.0
H975 H 0.62718 0.40065 0.93441 0.0
H976 H 0.00423 0.44414 0.23002 0.0
H977 H 0.00172 0.44852 0.26779 0.0
H978 H 0.03333 0.56613 0.26929 0.0
H979 H 0.03834 0.56213 0.23167 0.0
H980 H 0.06713 0.55855 0.2986 0.0
H981 H 0.94187 0.4934 0.2763 0.0
H982 H 0.88734 0.44384 0.2575 0.0
H983 H 0.89934 0.36144 0.28915 0.0
H984 H 0.95411 0.41038 0.30804 0.0
H985 H 0.00551 0.57756 0.40038 0.0
H986 H 0.00913 0.57192 0.36259 0.0
H987 H 0.0177 0.47029 0.36491 0.0
H988 H 0.01493 0.47611 0.40274 0.0
H989 H 0.96343 0.46909 0.33452 0.0
H990 H 0.08904 0.53756 0.35718 0.0
H991 H 0.14117 0.58907 0.37676 0.0
H992 H 0.12468 0.66834 0.34445 0.0
H993 H 0.07208 0.61728 0.3249 0.0
C994 C 0.01052 0.47085 0.23848 0.0
C995 C 0.02144 0.5028 0.22803 0.0
C996 C 0.00882 0.47333 0.26005 0.0
C997 C 0.0166 0.50754 0.27149 0.0
C998 C 0.02722 0.5394 0.26092 0.0
C999 C 0.03 0.53713 0.23942 0.0
C1000 C 0.01486 0.51051 0.29448 0.0
C1001 C 0.04411 0.53924 0.30634 0.0
C1002 C 0.98524 0.48497 0.30481 0.0
C1003 C 0.95229 0.45553 0.29344 0.0
C1004 C 0.93302 0.46469 0.27915 0.0
C1005 C 0.90206 0.43673 0.26849 0.0
C1006 C 0.88997 0.39955 0.27206 0.0
C1007 C 0.90876 0.39024 0.28637 0.0
C1008 C 0.93973 0.41808 0.29709 0.0
C1009 C 0.00827 0.55408 0.39285 0.0
C1010 C 0.01 0.5273 0.4045 0.0
C1011 C 0.01038 0.55095 0.3713 0.0
C1012 C 0.01368 0.52071 0.36107 0.0
C1013 C 0.01514 0.49379 0.3726 0.0
C1014 C 0.01373 0.49727 0.39418 0.0
C1015 C 0.01538 0.51711 0.33826 0.0
C1016 C 0.98621 0.48831 0.32657 0.0
C1017 C 0.04468 0.54292 0.32807 0.0
C1018 C 0.07639 0.57362 0.33975 0.0
C1019 C 0.09631 0.56599 0.3544 0.0
C1020 C 0.12599 0.5951 0.36546 0.0
C1021 C 0.13617 0.63196 0.3619 0.0
C1022 C 0.11674 0.63978 0.34722 0.0
C1023 C 0.08701 0.61076 0.33613 0.0
H1024 H 0.15916 0.65446 0.37047 0.0
H1025 H 0.866 0.37797 0.26378 0.0
loop_
_geom_bond_atom_site_label_1
_geom_bond_atom_site_label_2
_geom_bond_distance
_geom_bond_site_symmetry_2
_ccdc_geom_bond_type
Tb0 O3 2.453 1_455 S
Tb0 O4 2.596 1_455 S
Tb0 O5 2.374 . S
Tb0 O13 2.343 . S
Tb0 O15 2.353 . S
Tb0 O17 2.427 . S
Tb0 O18 2.513 . S
C1 O5 1.251 . S
C1 O7 1.263 . S
Tb2 O4 2.343 1_455 S
Tb2 O7 2.353 . S
Tb2 O10 2.427 1_455 S
Tb2 O11 2.513 1_455 S
Tb2 O12 2.453 . S
Tb2 O13 2.596 . S
Tb2 O14 2.374 . S
O3 Tb0 2.453 1_655 S
O3 C19 1.245 . S
O4 Tb0 2.596 1_655 S
O4 Tb2 2.343 1_655 S
O4 C19 1.259 . S
O5 Tb0 2.374 . S
O5 C1 1.251 . S
C6 O10 1.275 . S
C6 O11 1.246 . S
O7 C1 1.263 . S
O7 Tb2 2.353 . S
C8 O12 1.245 . S
C8 O13 1.259 . S
C9 O14 1.250 . S
C9 O15 1.263 . S
O10 Tb2 2.427 1_655 S
O10 C6 1.275 . S
O11 Tb2 2.513 1_655 S
O11 C6 1.246 . S
O12 Tb2 2.453 . S
O12 C8 1.245 . S
O13 Tb0 2.343 . S
O13 Tb2 2.596 . S
O13 C8 1.259 . S
O14 Tb2 2.374 . S
O14 C9 1.250 . S
O15 Tb0 2.353 . S
O15 C9 1.263 . S
C16 O17 1.275 . S
C16 O18 1.246 . S
O17 Tb0 2.427 . S
O17 C16 1.275 . S
O18 Tb0 2.513 . S
O18 C16 1.246 . S
C19 O3 1.245 . S
C19 O4 1.259 . S
Tb20 O23 2.453 . S
Tb20 O24 2.596 . S
Tb20 O25 2.374 . S
Tb20 O33 2.343 1_545 S
Tb20 O35 2.353 . S
Tb20 O37 2.427 1_545 S
Tb20 O38 2.513 1_545 S
C21 O25 1.251 . S
C21 O27 1.263 . S
Tb22 O24 2.343 . S
Tb22 O27 2.353 . S
Tb22 O30 2.427 . S
Tb22 O31 2.513 . S
Tb22 O32 2.453 1_545 S
Tb22 O33 2.596 1_545 S
Tb22 O34 2.374 . S
O23 Tb20 2.453 . S
O23 C39 1.245 . S
O24 Tb20 2.596 . S
O24 Tb22 2.343 . S
O24 C39 1.259 . S
O25 Tb20 2.374 . S
O25 C21 1.251 . S
C26 O30 1.275 . S
C26 O31 1.246 . S
O27 C21 1.263 . S
O27 Tb22 2.353 . S
C28 O32 1.245 . S
C28 O33 1.259 . S
C29 O34 1.250 . S
C29 O35 1.263 . S
O30 Tb22 2.427 . S
O30 C26 1.275 . S
O31 Tb22 2.513 . S
O31 C26 1.246 . S
O32 Tb22 2.453 1_565 S
O32 C28 1.245 . S
O33 Tb20 2.343 1_565 S
O33 Tb22 2.596 1_565 S
O33 C28 1.259 . S
O34 Tb22 2.374 . S
O34 C29 1.250 . S
O35 Tb20 2.353 . S
O35 C29 1.263 . S
C36 O37 1.275 . S
C36 O38 1.246 . S
O37 Tb20 2.427 1_565 S
O37 C36 1.275 . S
O38 Tb20 2.513 1_565 S
O38 C36 1.246 . S
C39 O23 1.245 . S
C39 O24 1.259 . S
Tb40 O43 2.453 . S
Tb40 O44 2.596 . S
Tb40 O45 2.374 . S
Tb40 O53 2.343 . S
Tb40 O55 2.353 . S
Tb40 O57 2.427 . S
Tb40 O58 2.513 . S
C41 O45 1.251 . S
C41 O47 1.263 . S
Tb42 O44 2.343 . S
Tb42 O47 2.353 . S
Tb42 O50 2.427 . S
Tb42 O51 2.513 . S
Tb42 O52 2.453 . S
Tb42 O53 2.596 . S
Tb42 O54 2.374 . S
O43 Tb40 2.453 . S
O43 C59 1.245 . S
O44 Tb40 2.596 . S
O44 Tb42 2.343 . S
O44 C59 1.259 . S
O45 Tb40 2.374 . S
O45 C41 1.251 . S
C46 O50 1.275 . S
C46 O51 1.246 . S
O47 C41 1.263 . S
O47 Tb42 2.353 . S
C48 O52 1.245 . S
C48 O53 1.259 . S
C49 O54 1.250 . S
C49 O55 1.263 . S
O50 Tb42 2.427 . S
O50 C46 1.275 . S
O51 Tb42 2.513 . S
O51 C46 1.246 . S
O52 Tb42 2.453 . S
O52 C48 1.245 . S
O53 Tb40 2.343 . S
O53 Tb42 2.596 . S
O53 C48 1.259 . S
O54 Tb42 2.374 . S
O54 C49 1.250 . S
O55 Tb40 2.353 . S
O55 C49 1.263 . S
C56 O57 1.275 . S
C56 O58 1.246 . S
O57 Tb40 2.427 . S
O57 C56 1.275 . S
O58 Tb40 2.513 . S
O58 C56 1.246 . S
C59 O43 1.245 . S
C59 O44 1.259 . S
O60 Cd61 2.300 . S
O60 C67 1.275 . S
Cd61 O60 2.300 . S
Cd61 O69 2.381 . S
Cd61 O70 2.378 . S
O62 Cd63 2.385 1_545 S
O62 C67 1.255 . S
Cd63 O62 2.385 1_565 S
Cd63 O64 2.317 . S
O64 Cd63 2.317 . S
O64 C65 1.232 . S
C65 O64 1.232 . S
C65 O66 1.218 . S
O66 C65 1.218 . S
C67 O60 1.275 . S
C67 O62 1.255 . S
C68 O69 1.258 . S
C68 O70 1.256 . S
O69 Cd61 2.381 . S
O69 C68 1.258 . S
O70 Cd61 2.378 . S
O70 C68 1.256 . S
O71 Cd72 2.300 . S
O71 C78 1.275 . S
Cd72 O71 2.300 . S
Cd72 O80 2.381 . S
Cd72 O81 2.378 . S
O73 Cd74 2.385 . S
O73 C78 1.255 . S
Cd74 O73 2.385 . S
Cd74 O75 2.317 . S
O75 Cd74 2.317 . S
O75 C76 1.232 . S
C76 O75 1.232 . S
C76 O77 1.218 . S
O77 C76 1.218 . S
C78 O71 1.275 . S
C78 O73 1.255 . S
C79 O80 1.258 . S
C79 O81 1.256 . S
O80 Cd72 2.381 . S
O80 C79 1.258 . S
O81 Cd72 2.378 . S
O81 C79 1.256 . S
O82 Cd83 2.300 . S
O82 C89 1.275 . S
Cd83 O82 2.300 . S
Cd83 O91 2.381 . S
Cd83 O92 2.378 . S
O84 Cd85 2.385 1_455 S
O84 C89 1.255 . S
Cd85 O84 2.385 1_655 S
Cd85 O86 2.315 . S
O86 Cd85 2.315 . S
O86 C87 1.244 . S
C87 O86 1.244 . S
C87 O88 1.218 . S
O88 C87 1.218 . S
C89 O82 1.275 . S
C89 O84 1.255 . S
C90 O91 1.258 . S
C90 O92 1.256 . S
O91 Cd83 2.381 . S
O91 C90 1.258 . S
O92 Cd83 2.378 . S
O92 C90 1.256 . S
O93 Cd94 2.300 . S
O93 C100 1.275 1_455 S
Cd94 O93 2.300 . S
Cd94 O102 2.381 . S
Cd94 O103 2.378 . S
O95 Cd96 2.385 . S
O95 C100 1.255 . S
Cd96 O95 2.385 . S
Cd96 O97 2.317 . S
O97 Cd96 2.317 . S
O97 C98 1.232 . S
C98 O97 1.232 . S
C98 O99 1.218 . S
O99 C98 1.218 . S
C100 O93 1.275 1_655 S
C100 O95 1.255 . S
C101 O102 1.258 . S
C101 O103 1.256 . S
O102 Cd94 2.381 . S
O102 C101 1.258 . S
O103 Cd94 2.378 . S
O103 C101 1.256 . S
O104 Cd105 2.300 . S
O104 C111 1.275 1_565 S
Cd105 O104 2.300 . S
Cd105 O113 2.381 . S
Cd105 O114 2.378 . S
O106 Cd107 2.385 . S
O106 C111 1.255 . S
Cd107 O106 2.385 . S
Cd107 O108 2.317 . S
O108 Cd107 2.317 . S
O108 C109 1.232 . S
C109 O108 1.232 . S
C109 O110 1.218 . S
O110 C109 1.218 . S
C111 O104 1.275 1_545 S
C111 O106 1.255 . S
C112 O113 1.258 . S
C112 O114 1.256 . S
O113 Cd105 2.381 . S
O113 C112 1.258 . S
O114 Cd105 2.378 . S
O114 C112 1.256 . S
O115 Cd116 2.300 . S
O115 C122 1.275 . S
Cd116 O115 2.300 . S
Cd116 O124 2.381 . S
Cd116 O125 2.378 . S
O117 Cd118 2.385 . S
O117 C122 1.255 . S
Cd118 O117 2.385 . S
Cd118 O119 2.317 . S
O119 Cd118 2.317 . S
O119 C120 1.232 . S
C120 O119 1.232 . S
C120 O121 1.218 . S
O121 C120 1.218 . S
C122 O115 1.275 . S
C122 O117 1.255 . S
C123 O124 1.258 . S
C123 O125 1.256 . S
O124 Cd116 2.381 . S
O124 C123 1.258 . S
O125 Cd116 2.378 . S
O125 C123 1.256 . S
H126 C144 0.951 . S
H127 C146 0.951 . S
H128 C148 0.950 . S
H129 C149 0.950 . S
H130 C151 0.950 . S
H131 C154 0.950 . S
H132 C155 0.950 . S
H133 C157 0.950 . S
H134 C158 0.950 . S
H135 C159 0.951 . S
H136 C161 0.951 . S
H137 C163 0.950 . S
H138 C164 0.950 . S
H139 C166 0.950 . S
H140 C169 0.950 . S
H141 C170 0.950 . S
H142 C172 0.950 . S
H143 C173 0.950 . S
C144 H126 0.951 . S
C144 C145 1.366 . S
C144 C146 1.388 . S
C145 C144 1.366 . S
C145 C149 1.385 . S
C146 H127 0.951 . S
C146 C144 1.388 . S
C146 C147 1.366 . S
C147 C146 1.366 . S
C147 C148 1.414 . S
C147 C150 1.499 . S
C148 H128 0.950 . S
C148 C147 1.414 . S
C148 C149 1.374 . S
C149 H129 0.950 . S
C149 C145 1.385 . S
C149 C148 1.374 . S
C150 C147 1.499 . S
C150 C151 1.373 . S
C150 C152 1.389 . S
C151 H130 0.950 . S
C151 C150 1.373 . S
C151 C167 1.377 . S
C152 C150 1.389 . S
C152 C153 1.524 . S
C152 C166 1.377 . S
C153 C152 1.524 . S
C153 C154 1.397 . S
C153 C158 1.363 . S
C154 H131 0.950 . S
C154 C153 1.397 . S
C154 C155 1.334 . S
C155 H132 0.950 . S
C155 C154 1.334 . S
C155 C156 1.287 . S
C156 C155 1.287 . S
C156 C157 1.524 . S
C156 H175 0.913 . S
C157 H133 0.950 . S
C157 C156 1.524 . S
C157 C158 1.415 . S
C158 H134 0.950 . S
C158 C153 1.363 . S
C158 C157 1.415 . S
C159 H135 0.951 . S
C159 C160 1.366 . S
C159 C161 1.388 . S
C160 C159 1.366 . S
C160 C164 1.385 . S
C161 H136 0.951 . S
C161 C159 1.388 . S
C161 C162 1.366 . S
C162 C161 1.366 . S
C162 C163 1.414 . S
C162 C165 1.499 . S
C163 H137 0.950 . S
C163 C162 1.414 . S
C163 C164 1.374 . S
C164 H138 0.950 . S
C164 C160 1.385 . S
C164 C163 1.374 . S
C165 C162 1.499 . S
C165 C166 1.373 . S
C165 C167 1.389 . S
C166 H139 0.950 . S
C166 C152 1.377 . S
C166 C165 1.373 . S
C167 C151 1.377 . S
C167 C165 1.389 . S
C167 C168 1.524 . S
C168 C167 1.524 . S
C168 C169 1.397 . S
C168 C173 1.363 . S
C169 H140 0.950 . S
C169 C168 1.397 . S
C169 C170 1.334 . S
C170 H141 0.950 . S
C170 C169 1.334 . S
C170 C171 1.287 . S
C171 C170 1.287 . S
C171 C172 1.524 . S
C171 H174 0.999 . S
C172 H142 0.950 . S
C172 C171 1.524 . S
C172 C173 1.415 . S
C173 H143 0.950 . S
C173 C168 1.363 . S
C173 C172 1.415 . S
H174 C171 0.999 . S
H175 C156 0.913 . S
H176 C194 0.951 . S
H177 C196 0.951 . S
H178 C198 0.950 . S
H179 C199 0.950 . S
H180 C201 0.950 . S
H181 C204 0.950 . S
H182 C205 0.950 . S
H183 C207 0.950 . S
H184 C208 0.950 . S
H185 C209 0.951 . S
H186 C211 0.951 . S
H187 C213 0.950 . S
H188 C214 0.950 . S
H189 C216 0.950 . S
H190 C219 0.950 . S
H191 C220 0.950 . S
H192 C222 0.950 . S
H193 C223 0.950 . S
C194 H176 0.951 . S
C194 C195 1.366 . S
C194 C196 1.388 . S
C195 C194 1.366 . S
C195 C199 1.385 . S
C196 H177 0.951 . S
C196 C194 1.388 . S
C196 C197 1.366 . S
C197 C196 1.366 . S
C197 C198 1.414 . S
C197 C200 1.499 . S
C198 H178 0.950 . S
C198 C197 1.414 . S
C198 C199 1.374 . S
C199 H179 0.950 . S
C199 C195 1.385 . S
C199 C198 1.374 . S
C200 C197 1.499 . S
C200 C201 1.373 . S
C200 C202 1.389 . S
C201 H180 0.950 . S
C201 C200 1.373 . S
C201 C217 1.377 . S
C202 C200 1.389 . S
C202 C203 1.524 . S
C202 C216 1.377 . S
C203 C202 1.524 . S
C203 C204 1.397 . S
C203 C208 1.363 . S
C204 H181 0.950 . S
C204 C203 1.397 . S
C204 C205 1.334 . S
C205 H182 0.950 . S
C205 C204 1.334 . S
C205 C206 1.287 . S
C206 C205 1.287 . S
C206 C207 1.524 . S
C206 H225 0.913 . S
C207 H183 0.950 . S
C207 C206 1.524 . S
C207 C208 1.415 . S
C208 H184 0.950 . S
C208 C203 1.363 . S
C208 C207 1.415 . S
C209 H185 0.951 . S
C209 C210 1.366 . S
C209 C211 1.388 . S
C210 C209 1.366 . S
C210 C214 1.385 . S
C211 H186 0.951 . S
C211 C209 1.388 . S
C211 C212 1.366 . S
C212 C211 1.366 . S
C212 C213 1.414 . S
C212 C215 1.499 . S
C213 H187 0.950 . S
C213 C212 1.414 . S
C213 C214 1.374 . S
C214 H188 0.950 . S
C214 C210 1.385 . S
C214 C213 1.374 . S
C215 C212 1.499 . S
C215 C216 1.373 . S
C215 C217 1.389 . S
C216 H189 0.950 . S
C216 C202 1.377 . S
C216 C215 1.373 . S
C217 C201 1.377 . S
C217 C215 1.389 . S
C217 C218 1.524 . S
C218 C217 1.524 . S
C218 C219 1.397 . S
C218 C223 1.363 . S
C219 H190 0.950 . S
C219 C218 1.397 . S
C219 C220 1.334 . S
C220 H191 0.950 . S
C220 C219 1.334 . S
C220 C221 1.287 . S
C221 C220 1.287 . S
C221 C222 1.524 . S
C221 H224 0.999 . S
C222 H192 0.950 . S
C222 C221 1.524 . S
C222 C223 1.415 . S
C223 H193 0.950 . S
C223 C218 1.363 . S
C223 C222 1.415 . S
H224 C221 0.999 . S
H225 C206 0.913 . S
H226 C244 0.951 . S
H227 C246 0.951 . S
H228 C248 0.950 . S
H229 C249 0.950 . S
H230 C251 0.950 . S
H231 C254 0.950 . S
H232 C255 0.950 . S
H233 C257 0.950 . S
H234 C258 0.950 . S
H235 C259 0.951 . S
H236 C261 0.951 . S
H237 C263 0.950 . S
H238 C264 0.950 . S
H239 C266 0.950 . S
H240 C269 0.950 . S
H241 C270 0.950 . S
H242 C272 0.950 . S
H243 C273 0.950 . S
C244 H226 0.951 . S
C244 C245 1.366 . S
C244 C246 1.388 . S
C245 C244 1.366 . S
C245 C249 1.385 . S
C246 H227 0.951 . S
C246 C244 1.388 . S
C246 C247 1.366 . S
C247 C246 1.366 . S
C247 C248 1.414 . S
C247 C250 1.499 . S
C248 H228 0.950 . S
C248 C247 1.414 . S
C248 C249 1.374 . S
C249 H229 0.950 . S
C249 C245 1.385 . S
C249 C248 1.374 . S
C250 C247 1.499 . S
C250 C251 1.373 . S
C250 C252 1.389 . S
C251 H230 0.950 . S
C251 C250 1.373 . S
C251 C267 1.377 . S
C252 C250 1.389 . S
C252 C253 1.524 . S
C252 C266 1.377 . S
C253 C252 1.524 . S
C253 C254 1.397 . S
C253 C258 1.363 . S
C254 H231 0.950 . S
C254 C253 1.397 . S
C254 C255 1.334 . S
C255 H232 0.950 . S
C255 C254 1.334 . S
C255 C256 1.287 . S
C256 C255 1.287 . S
C256 C257 1.524 . S
C256 H275 0.913 . S
C257 H233 0.950 . S
C257 C256 1.524 . S
C257 C258 1.415 . S
C258 H234 0.950 . S
C258 C253 1.363 . S
C258 C257 1.415 . S
C259 H235 0.951 . S
C259 C260 1.366 . S
C259 C261 1.388 . S
C260 C259 1.366 . S
C260 C264 1.385 . S
C261 H236 0.951 . S
C261 C259 1.388 . S
C261 C262 1.366 . S
C262 C261 1.366 . S
C262 C263 1.414 . S
C262 C265 1.499 . S
C263 H237 0.950 . S
C263 C262 1.414 . S
C263 C264 1.374 . S
C264 H238 0.950 . S
C264 C260 1.385 . S
C264 C263 1.374 . S
C265 C262 1.499 . S
C265 C266 1.373 . S
C265 C267 1.389 . S
C266 H239 0.950 . S
C266 C252 1.377 . S
C266 C265 1.373 . S
C267 C251 1.377 . S
C267 C265 1.389 . S
C267 C268 1.524 . S
C268 C267 1.524 . S
C268 C269 1.397 . S
C268 C273 1.363 . S
C269 H240 0.950 . S
C269 C268 1.397 . S
C269 C270 1.334 . S
C270 H241 0.950 . S
C270 C269 1.334 . S
C270 C271 1.287 . S
C271 C270 1.287 . S
C271 C272 1.524 . S
C271 H274 0.999 . S
C272 H242 0.950 . S
C272 C271 1.524 . S
C272 C273 1.415 . S
C273 H243 0.950 . S
C273 C268 1.363 . S
C273 C272 1.415 . S
H274 C271 0.999 . S
H275 C256 0.913 . S
H276 C294 0.951 . S
H277 C296 0.951 . S
H278 C298 0.950 . S
H279 C299 0.950 . S
H280 C301 0.950 . S
H281 C304 0.950 . S
H282 C305 0.950 . S
H283 C307 0.950 . S
H284 C308 0.950 . S
H285 C309 0.951 . S
H286 C311 0.951 . S
H287 C313 0.950 . S
H288 C314 0.950 . S
H289 C316 0.950 . S
H290 C319 0.950 . S
H291 C320 0.950 . S
H292 C322 0.950 . S
H293 C323 0.950 . S
C294 H276 0.951 . S
C294 C295 1.366 . S
C294 C296 1.388 . S
C295 C294 1.366 . S
C295 C299 1.385 . S
C296 H277 0.951 . S
C296 C294 1.388 . S
C296 C297 1.366 . S
C297 C296 1.366 . S
C297 C298 1.414 . S
C297 C300 1.499 . S
C298 H278 0.950 . S
C298 C297 1.414 . S
C298 C299 1.374 . S
C299 H279 0.950 . S
C299 C295 1.385 . S
C299 C298 1.374 . S
C300 C297 1.499 . S
C300 C301 1.373 . S
C300 C302 1.389 . S
C301 H280 0.950 . S
C301 C300 1.373 . S
C301 C317 1.377 . S
C302 C300 1.389 . S
C302 C303 1.524 . S
C302 C316 1.377 . S
C303 C302 1.524 . S
C303 C304 1.397 . S
C303 C308 1.363 . S
C304 H281 0.950 . S
C304 C303 1.397 . S
C304 C305 1.334 . S
C305 H282 0.950 . S
C305 C304 1.334 . S
C305 C306 1.287 . S
C306 C305 1.287 . S
C306 C307 1.524 . S
C306 H325 0.913 . S
C307 H283 0.950 . S
C307 C306 1.524 . S
C307 C308 1.415 . S
C308 H284 0.950 . S
C308 C303 1.363 . S
C308 C307 1.415 . S
C309 H285 0.951 . S
C309 C310 1.366 . S
C309 C311 1.388 . S
C310 C309 1.366 . S
C310 C314 1.385 . S
C311 H286 0.951 . S
C311 C309 1.388 . S
C311 C312 1.366 . S
C312 C311 1.366 . S
C312 C313 1.414 . S
C312 C315 1.499 . S
C313 H287 0.950 . S
C313 C312 1.414 . S
C313 C314 1.374 . S
C314 H288 0.950 . S
C314 C310 1.385 . S
C314 C313 1.374 . S
C315 C312 1.499 . S
C315 C316 1.373 . S
C315 C317 1.389 . S
C316 H289 0.950 . S
C316 C302 1.377 . S
C316 C315 1.373 . S
C317 C301 1.377 . S
C317 C315 1.389 . S
C317 C318 1.524 . S
C318 C317 1.524 . S
C318 C319 1.397 . S
C318 C323 1.363 . S
C319 H290 0.950 . S
C319 C318 1.397 . S
C319 C320 1.334 . S
C320 H291 0.950 . S
C320 C319 1.334 . S
C320 C321 1.287 . S
C321 C320 1.287 . S
C321 C322 1.524 . S
C321 H324 0.999 . S
C322 H292 0.950 . S
C322 C321 1.524 . S
C322 C323 1.415 . S
C323 H293 0.950 . S
C323 C318 1.363 . S
C323 C322 1.415 . S
H324 C321 0.999 . S
H325 C306 0.913 . S
H326 C344 0.951 . S
H327 C346 0.951 . S
H328 C348 0.950 . S
H329 C349 0.950 . S
H330 C351 0.950 . S
H331 C354 0.950 . S
H332 C355 0.950 . S
H333 C357 0.950 . S
H334 C358 0.950 . S
H335 C359 0.951 . S
H336 C361 0.951 . S
H337 C363 0.950 . S
H338 C364 0.950 . S
H339 C366 0.950 . S
H340 C369 0.950 . S
H341 C370 0.950 . S
H342 C372 0.950 . S
H343 C373 0.950 . S
C344 H326 0.951 . S
C344 C345 1.366 . S
C344 C346 1.388 . S
C345 C344 1.366 . S
C345 C349 1.385 . S
C346 H327 0.951 . S
C346 C344 1.388 . S
C346 C347 1.366 . S
C347 C346 1.366 . S
C347 C348 1.414 . S
C347 C350 1.499 . S
C348 H328 0.950 . S
C348 C347 1.414 . S
C348 C349 1.374 . S
C349 H329 0.950 . S
C349 C345 1.385 . S
C349 C348 1.374 . S
C350 C347 1.499 . S
C350 C351 1.373 . S
C350 C352 1.389 . S
C351 H330 0.950 . S
C351 C350 1.373 . S
C351 C367 1.377 . S
C352 C350 1.389 . S
C352 C353 1.524 . S
C352 C366 1.377 . S
C353 C352 1.524 . S
C353 C354 1.397 . S
C353 C358 1.363 . S
C354 H331 0.950 . S
C354 C353 1.397 . S
C354 C355 1.334 . S
C355 H332 0.950 . S
C355 C354 1.334 . S
C355 C356 1.287 . S
C356 C355 1.287 . S
C356 C357 1.524 . S
C356 H375 0.913 . S
C357 H333 0.950 . S
C357 C356 1.524 . S
C357 C358 1.415 . S
C358 H334 0.950 . S
C358 C353 1.363 . S
C358 C357 1.415 . S
C359 H335 0.951 . S
C359 C360 1.366 . S
C359 C361 1.388 . S
C360 C359 1.366 . S
C360 C364 1.385 . S
C361 H336 0.951 . S
C361 C359 1.388 . S
C361 C362 1.366 . S
C362 C361 1.366 . S
C362 C363 1.414 . S
C362 C365 1.499 . S
C363 H337 0.950 . S
C363 C362 1.414 . S
C363 C364 1.374 . S
C364 H338 0.950 . S
C364 C360 1.385 . S
C364 C363 1.374 . S
C365 C362 1.499 . S
C365 C366 1.373 . S
C365 C367 1.389 . S
C366 H339 0.950 . S
C366 C352 1.377 . S
C366 C365 1.373 . S
C367 C351 1.377 . S
C367 C365 1.389 . S
C367 C368 1.524 . S
C368 C367 1.524 . S
C368 C369 1.397 . S
C368 C373 1.363 . S
C369 H340 0.950 . S
C369 C368 1.397 . S
C369 C370 1.334 . S
C370 H341 0.950 . S
C370 C369 1.334 . S
C370 C371 1.287 . S
C371 C370 1.287 . S
C371 C372 1.524 . S
C371 H374 0.999 . S
C372 H342 0.950 . S
C372 C371 1.524 . S
C372 C373 1.415 . S
C373 H343 0.950 . S
C373 C368 1.363 . S
C373 C372 1.415 . S
H374 C371 0.999 . S
H375 C356 0.913 . S
H376 C394 0.951 . S
H377 C396 0.951 . S
H378 C398 0.950 . S
H379 C399 0.950 . S
H380 C401 0.950 . S
H381 C404 0.950 . S
H382 C405 0.950 . S
H383 C407 0.950 . S
H384 C408 0.950 . S
H385 C409 0.951 . S
H386 C411 0.951 . S
H387 C413 0.950 . S
H388 C414 0.950 . S
H389 C416 0.950 . S
H390 C419 0.950 . S
H391 C420 0.950 . S
H392 C422 0.950 . S
H393 C423 0.950 . S
C394 H376 0.951 . S
C394 C395 1.366 . S
C394 C396 1.388 . S
C395 C394 1.366 . S
C395 C399 1.385 . S
C396 H377 0.951 . S
C396 C394 1.388 . S
C396 C397 1.366 . S
C397 C396 1.366 . S
C397 C398 1.414 . S
C397 C400 1.499 . S
C398 H378 0.950 . S
C398 C397 1.414 . S
C398 C399 1.374 . S
C399 H379 0.950 . S
C399 C395 1.385 . S
C399 C398 1.374 . S
C400 C397 1.499 . S
C400 C401 1.373 . S
C400 C402 1.389 . S
C401 H380 0.950 . S
C401 C400 1.373 . S
C401 C417 1.377 . S
C402 C400 1.389 . S
C402 C403 1.524 . S
C402 C416 1.377 . S
C403 C402 1.524 . S
C403 C404 1.397 . S
C403 C408 1.363 . S
C404 H381 0.950 . S
C404 C403 1.397 . S
C404 C405 1.334 . S
C405 H382 0.950 . S
C405 C404 1.334 . S
C405 C406 1.287 . S
C406 C405 1.287 . S
C406 C407 1.524 . S
C406 H425 0.913 . S
C407 H383 0.950 . S
C407 C406 1.524 . S
C407 C408 1.415 . S
C408 H384 0.950 . S
C408 C403 1.363 . S
C408 C407 1.415 . S
C409 H385 0.951 . S
C409 C410 1.366 . S
C409 C411 1.388 . S
C410 C409 1.366 . S
C410 C414 1.385 . S
C411 H386 0.951 . S
C411 C409 1.388 . S
C411 C412 1.366 . S
C412 C411 1.366 . S
C412 C413 1.414 . S
C412 C415 1.499 . S
C413 H387 0.950 . S
C413 C412 1.414 . S
C413 C414 1.374 . S
C414 H388 0.950 . S
C414 C410 1.385 . S
C414 C413 1.374 . S
C415 C412 1.499 . S
C415 C416 1.373 . S
C415 C417 1.389 . S
C416 H389 0.950 . S
C416 C402 1.377 . S
C416 C415 1.373 . S
C417 C401 1.377 . S
C417 C415 1.389 . S
C417 C418 1.524 . S
C418 C417 1.524 . S
C418 C419 1.397 . S
C418 C423 1.363 . S
C419 H390 0.950 . S
C419 C418 1.397 . S
C419 C420 1.334 . S
C420 H391 0.950 . S
C420 C419 1.334 . S
C420 C421 1.287 . S
C421 C420 1.287 . S
C421 C422 1.524 . S
C421 H424 0.999 . S
C422 H392 0.950 . S
C422 C421 1.524 . S
C422 C423 1.415 . S
C423 H393 0.950 . S
C423 C418 1.363 . S
C423 C422 1.415 . S
H424 C421 0.999 . S
H425 C406 0.913 . S
H426 C444 0.951 . S
H427 C446 0.951 . S
H428 C448 0.950 . S
H429 C449 0.950 . S
H430 C451 0.950 . S
H431 C454 0.950 . S
H432 C455 0.950 . S
H433 C457 0.950 . S
H434 C458 0.950 . S
H435 C459 0.951 . S
H436 C461 0.951 . S
H437 C463 0.950 . S
H438 C464 0.950 . S
H439 C466 0.950 . S
H440 C469 0.950 . S
H441 C470 0.950 . S
H442 C472 0.950 . S
H443 C473 0.950 . S
C444 H426 0.951 . S
C444 C445 1.366 . S
C444 C446 1.388 . S
C445 C444 1.366 . S
C445 C449 1.385 . S
C446 H427 0.951 . S
C446 C444 1.388 . S
C446 C447 1.366 . S
C447 C446 1.366 . S
C447 C448 1.414 . S
C447 C450 1.499 . S
C448 H428 0.950 . S
C448 C447 1.414 . S
C448 C449 1.374 . S
C449 H429 0.950 . S
C449 C445 1.385 . S
C449 C448 1.374 . S
C450 C447 1.499 . S
C450 C451 1.373 . S
C450 C452 1.389 . S
C451 H430 0.950 . S
C451 C450 1.373 . S
C451 C467 1.377 . S
C452 C450 1.389 . S
C452 C453 1.524 . S
C452 C466 1.377 . S
C453 C452 1.524 . S
C453 C454 1.397 . S
C453 C458 1.363 . S
C454 H431 0.950 . S
C454 C453 1.397 . S
C454 C455 1.334 . S
C455 H432 0.950 . S
C455 C454 1.334 . S
C455 C456 1.287 . S
C456 C455 1.287 . S
C456 C457 1.524 . S
C456 H475 0.913 . S
C457 H433 0.950 . S
C457 C456 1.524 . S
C457 C458 1.415 . S
C458 H434 0.950 . S
C458 C453 1.363 . S
C458 C457 1.415 . S
C459 H435 0.951 . S
C459 C460 1.366 . S
C459 C461 1.388 . S
C460 C459 1.366 . S
C460 C464 1.385 . S
C461 H436 0.951 . S
C461 C459 1.388 . S
C461 C462 1.366 . S
C462 C461 1.366 . S
C462 C463 1.414 . S
C462 C465 1.499 . S
C463 H437 0.950 . S
C463 C462 1.414 . S
C463 C464 1.374 . S
C464 H438 0.950 . S
C464 C460 1.385 . S
C464 C463 1.374 . S
C465 C462 1.499 . S
C465 C466 1.373 . S
C465 C467 1.389 . S
C466 H439 0.950 . S
C466 C452 1.377 . S
C466 C465 1.373 . S
C467 C451 1.377 . S
C467 C465 1.389 . S
C467 C468 1.524 . S
C468 C467 1.524 . S
C468 C469 1.397 . S
C468 C473 1.363 . S
C469 H440 0.950 . S
C469 C468 1.397 . S
C469 C470 1.334 . S
C470 H441 0.950 . S
C470 C469 1.334 . S
C470 C471 1.287 . S
C471 C470 1.287 . S
C471 C472 1.524 . S
C471 H474 0.999 . S
C472 H442 0.950 . S
C472 C471 1.524 . S
C472 C473 1.415 . S
C473 H443 0.950 . S
C473 C468 1.363 . S
C473 C472 1.415 . S
H474 C471 0.999 . S
H475 C456 0.913 . S
H476 C494 0.951 . S
H477 C496 0.951 . S
H478 C498 0.950 . S
H479 C499 0.950 . S
H480 C501 0.950 . S
H481 C504 0.950 . S
H482 C505 0.950 . S
H483 C507 0.950 . S
H484 C508 0.950 . S
H485 C509 0.951 . S
H486 C511 0.951 . S
H487 C513 0.950 . S
H488 C514 0.950 . S
H489 C516 0.950 . S
H490 C519 0.950 . S
H491 C520 0.950 . S
H492 C522 0.950 . S
H493 C523 0.950 . S
C494 H476 0.951 . S
C494 C495 1.366 . S
C494 C496 1.388 . S
C495 C494 1.366 . S
C495 C499 1.385 . S
C496 H477 0.951 . S
C496 C494 1.388 . S
C496 C497 1.366 . S
C497 C496 1.366 . S
C497 C498 1.414 . S
C497 C500 1.499 . S
C498 H478 0.950 . S
C498 C497 1.414 . S
C498 C499 1.374 . S
C499 H479 0.950 . S
C499 C495 1.385 . S
C499 C498 1.374 . S
C500 C497 1.499 . S
C500 C501 1.373 . S
C500 C502 1.389 . S
C501 H480 0.950 . S
C501 C500 1.373 . S
C501 C517 1.377 . S
C502 C500 1.389 . S
C502 C503 1.524 . S
C502 C516 1.377 . S
C503 C502 1.524 . S
C503 C504 1.397 . S
C503 C508 1.363 . S
C504 H481 0.950 . S
C504 C503 1.397 . S
C504 C505 1.334 . S
C505 H482 0.950 . S
C505 C504 1.334 . S
C505 C506 1.287 . S
C506 C505 1.287 . S
C506 C507 1.524 . S
C506 H525 0.913 . S
C507 H483 0.950 . S
C507 C506 1.524 . S
C507 C508 1.415 . S
C508 H484 0.950 . S
C508 C503 1.363 . S
C508 C507 1.415 . S
C509 H485 0.951 . S
C509 C510 1.366 . S
C509 C511 1.388 . S
C510 C509 1.366 . S
C510 C514 1.385 . S
C511 H486 0.951 . S
C511 C509 1.388 . S
C511 C512 1.366 . S
C512 C511 1.366 . S
C512 C513 1.414 . S
C512 C515 1.499 . S
C513 H487 0.950 . S
C513 C512 1.414 . S
C513 C514 1.374 . S
C514 H488 0.950 . S
C514 C510 1.385 . S
C514 C513 1.374 . S
C515 C512 1.499 . S
C515 C516 1.373 . S
C515 C517 1.389 . S
C516 H489 0.950 . S
C516 C502 1.377 . S
C516 C515 1.373 . S
C517 C501 1.377 . S
C517 C515 1.389 . S
C517 C518 1.524 . S
C518 C517 1.524 . S
C518 C519 1.397 . S
C518 C523 1.363 . S
C519 H490 0.950 . S
C519 C518 1.397 . S
C519 C520 1.334 . S
C520 H491 0.950 . S
C520 C519 1.334 . S
C520 C521 1.287 . S
C521 C520 1.287 . S
C521 C522 1.524 . S
C521 H524 0.999 . S
C522 H492 0.950 . S
C522 C521 1.524 . S
C522 C523 1.415 . S
C523 H493 0.950 . S
C523 C518 1.363 . S
C523 C522 1.415 . S
H524 C521 0.999 . S
H525 C506 0.913 . S
H526 C544 0.951 . S
H527 C546 0.951 . S
H528 C548 0.950 . S
H529 C549 0.950 . S
H530 C551 0.950 . S
H531 C554 0.950 . S
H532 C555 0.950 . S
H533 C557 0.950 . S
H534 C558 0.950 . S
H535 C559 0.951 . S
H536 C561 0.951 . S
H537 C563 0.950 . S
H538 C564 0.950 . S
H539 C566 0.950 . S
H540 C569 0.950 . S
H541 C570 0.950 . S
H542 C572 0.950 . S
H543 C573 0.950 . S
C544 H526 0.951 . S
C544 C545 1.366 . S
C544 C546 1.388 . S
C545 C544 1.366 . S
C545 C549 1.385 . S
C546 H527 0.951 . S
C546 C544 1.388 . S
C546 C547 1.366 . S
C547 C546 1.366 . S
C547 C548 1.414 . S
C547 C550 1.499 . S
C548 H528 0.950 . S
C548 C547 1.414 . S
C548 C549 1.374 . S
C549 H529 0.950 . S
C549 C545 1.385 . S
C549 C548 1.374 . S
C550 C547 1.499 . S
C550 C551 1.373 . S
C550 C552 1.389 . S
C551 H530 0.950 . S
C551 C550 1.373 . S
C551 C567 1.377 . S
C552 C550 1.389 . S
C552 C553 1.524 . S
C552 C566 1.377 . S
C553 C552 1.524 . S
C553 C554 1.397 . S
C553 C558 1.363 . S
C554 H531 0.950 . S
C554 C553 1.397 . S
C554 C555 1.334 . S
C555 H532 0.950 . S
C555 C554 1.334 . S
C555 C556 1.287 . S
C556 C555 1.287 . S
C556 C557 1.524 . S
C556 H575 0.913 . S
C557 H533 0.950 . S
C557 C556 1.524 . S
C557 C558 1.415 . S
C558 H534 0.950 . S
C558 C553 1.363 . S
C558 C557 1.415 . S
C559 H535 0.951 . S
C559 C560 1.366 . S
C559 C561 1.388 . S
C560 C559 1.366 . S
C560 C564 1.385 . S
C561 H536 0.951 . S
C561 C559 1.388 . S
C561 C562 1.366 . S
C562 C561 1.366 . S
C562 C563 1.414 . S
C562 C565 1.499 . S
C563 H537 0.950 . S
C563 C562 1.414 . S
C563 C564 1.374 . S
C564 H538 0.950 . S
C564 C560 1.385 . S
C564 C563 1.374 . S
C565 C562 1.499 . S
C565 C566 1.373 . S
C565 C567 1.389 . S
C566 H539 0.950 . S
C566 C552 1.377 . S
C566 C565 1.373 . S
C567 C551 1.377 . S
C567 C565 1.389 . S
C567 C568 1.524 . S
C568 C567 1.524 . S
C568 C569 1.397 . S
C568 C573 1.363 . S
C569 H540 0.950 . S
C569 C568 1.397 . S
C569 C570 1.334 . S
C570 H541 0.950 . S
C570 C569 1.334 . S
C570 C571 1.287 . S
C571 C570 1.287 . S
C571 C572 1.524 . S
C571 H574 0.999 . S
C572 H542 0.950 . S
C572 C571 1.524 . S
C572 C573 1.415 . S
C573 H543 0.950 . S
C573 C568 1.363 . S
C573 C572 1.415 . S
H574 C571 0.999 . S
H575 C556 0.913 . S
H576 C594 0.951 . S
H577 C596 0.951 . S
H578 C598 0.950 . S
H579 C599 0.950 . S
H580 C601 0.950 . S
H581 C604 0.950 . S
H582 C605 0.950 . S
H583 C607 0.950 . S
H584 C608 0.950 . S
H585 C609 0.951 . S
H586 C611 0.951 . S
H587 C613 0.950 . S
H588 C614 0.950 . S
H589 C616 0.950 . S
H590 C619 0.950 . S
H591 C620 0.950 . S
H592 C622 0.950 . S
H593 C623 0.950 . S
C594 H576 0.951 . S
C594 C595 1.366 . S
C594 C596 1.388 . S
C595 C594 1.366 . S
C595 C599 1.385 . S
C596 H577 0.951 . S
C596 C594 1.388 . S
C596 C597 1.366 . S
C597 C596 1.366 . S
C597 C598 1.414 . S
C597 C600 1.499 . S
C598 H578 0.950 . S
C598 C597 1.414 . S
C598 C599 1.374 . S
C599 H579 0.950 . S
C599 C595 1.385 . S
C599 C598 1.374 . S
C600 C597 1.499 . S
C600 C601 1.373 . S
C600 C602 1.389 . S
C601 H580 0.950 . S
C601 C600 1.373 . S
C601 C617 1.377 . S
C602 C600 1.389 . S
C602 C603 1.524 . S
C602 C616 1.377 . S
C603 C602 1.524 . S
C603 C604 1.397 . S
C603 C608 1.363 . S
C604 H581 0.950 . S
C604 C603 1.397 . S
C604 C605 1.334 . S
C605 H582 0.950 . S
C605 C604 1.334 . S
C605 C606 1.287 . S
C606 C605 1.287 . S
C606 C607 1.524 . S
C606 H625 0.913 . S
C607 H583 0.950 . S
C607 C606 1.524 . S
C607 C608 1.415 . S
C608 H584 0.950 . S
C608 C603 1.363 . S
C608 C607 1.415 . S
C609 H585 0.951 . S
C609 C610 1.366 . S
C609 C611 1.388 . S
C610 C609 1.366 . S
C610 C614 1.385 . S
C611 H586 0.951 . S
C611 C609 1.388 . S
C611 C612 1.366 . S
C612 C611 1.366 . S
C612 C613 1.414 . S
C612 C615 1.499 . S
C613 H587 0.950 . S
C613 C612 1.414 . S
C613 C614 1.374 . S
C614 H588 0.950 . S
C614 C610 1.385 . S
C614 C613 1.374 . S
C615 C612 1.499 . S
C615 C616 1.373 . S
C615 C617 1.389 . S
C616 H589 0.950 . S
C616 C602 1.377 . S
C616 C615 1.373 . S
C617 C601 1.377 . S
C617 C615 1.389 . S
C617 C618 1.524 . S
C618 C617 1.524 . S
C618 C619 1.397 . S
C618 C623 1.363 . S
C619 H590 0.950 . S
C619 C618 1.397 . S
C619 C620 1.334 . S
C620 H591 0.950 . S
C620 C619 1.334 . S
C620 C621 1.287 . S
C621 C620 1.287 . S
C621 C622 1.524 . S
C621 H624 0.999 . S
C622 H592 0.950 . S
C622 C621 1.524 . S
C622 C623 1.415 . S
C623 H593 0.950 . S
C623 C618 1.363 . S
C623 C622 1.415 . S
H624 C621 0.999 . S
H625 C606 0.913 . S
H626 C644 0.951 . S
H627 C646 0.951 . S
H628 C648 0.950 . S
H629 C649 0.950 . S
H630 C651 0.950 . S
H631 C654 0.950 . S
H632 C655 0.950 . S
H633 C657 0.950 . S
H634 C658 0.950 . S
H635 C659 0.951 . S
H636 C661 0.951 . S
H637 C663 0.950 . S
H638 C664 0.950 . S
H639 C666 0.950 . S
H640 C669 0.950 . S
H641 C670 0.950 . S
H642 C672 0.950 . S
H643 C673 0.950 . S
C644 H626 0.951 . S
C644 C645 1.366 . S
C644 C646 1.388 . S
C645 C644 1.366 . S
C645 C649 1.385 . S
C646 H627 0.951 . S
C646 C644 1.388 . S
C646 C647 1.366 . S
C647 C646 1.366 . S
C647 C648 1.414 . S
C647 C650 1.499 . S
C648 H628 0.950 . S
C648 C647 1.414 . S
C648 C649 1.374 . S
C649 H629 0.950 . S
C649 C645 1.385 . S
C649 C648 1.374 . S
C650 C647 1.499 . S
C650 C651 1.373 . S
C650 C652 1.389 . S
C651 H630 0.950 . S
C651 C650 1.373 . S
C651 C667 1.377 . S
C652 C650 1.389 . S
C652 C653 1.524 . S
C652 C666 1.377 . S
C653 C652 1.524 . S
C653 C654 1.397 . S
C653 C658 1.363 . S
C654 H631 0.950 . S
C654 C653 1.397 . S
C654 C655 1.334 . S
C655 H632 0.950 . S
C655 C654 1.334 . S
C655 C656 1.287 . S
C656 C655 1.287 . S
C656 C657 1.524 . S
C656 H675 0.913 . S
C657 H633 0.950 . S
C657 C656 1.524 . S
C657 C658 1.415 . S
C658 H634 0.950 . S
C658 C653 1.363 . S
C658 C657 1.415 . S
C659 H635 0.951 . S
C659 C660 1.366 . S
C659 C661 1.388 . S
C660 C659 1.366 . S
C660 C664 1.385 . S
C661 H636 0.951 . S
C661 C659 1.388 . S
C661 C662 1.366 . S
C662 C661 1.366 . S
C662 C663 1.414 . S
C662 C665 1.499 . S
C663 H637 0.950 . S
C663 C662 1.414 . S
C663 C664 1.374 . S
C664 H638 0.950 . S
C664 C660 1.385 . S
C664 C663 1.374 . S
C665 C662 1.499 . S
C665 C666 1.373 . S
C665 C667 1.389 . S
C666 H639 0.950 . S
C666 C652 1.377 . S
C666 C665 1.373 . S
C667 C651 1.377 . S
C667 C665 1.389 . S
C667 C668 1.524 . S
C668 C667 1.524 . S
C668 C669 1.397 . S
C668 C673 1.363 . S
C669 H640 0.950 . S
C669 C668 1.397 . S
C669 C670 1.334 . S
C670 H641 0.950 . S
C670 C669 1.334 . S
C670 C671 1.287 . S
C671 C670 1.287 . S
C671 C672 1.524 . S
C671 H674 0.999 . S
C672 H642 0.950 . S
C672 C671 1.524 . S
C672 C673 1.415 . S
C673 H643 0.950 . S
C673 C668 1.363 . S
C673 C672 1.415 . S
H674 C671 0.999 . S
H675 C656 0.913 . S
H676 C694 0.951 . S
H677 C696 0.951 . S
H678 C698 0.950 . S
H679 C699 0.950 . S
H680 C701 0.950 . S
H681 C704 0.950 . S
H682 C705 0.950 . S
H683 C707 0.950 . S
H684 C708 0.950 . S
H685 C709 0.951 . S
H686 C711 0.951 . S
H687 C713 0.950 . S
H688 C714 0.950 . S
H689 C716 0.950 . S
H690 C719 0.950 . S
H691 C720 0.950 . S
H692 C722 0.950 . S
H693 C723 0.950 . S
C694 H676 0.951 . S
C694 C695 1.366 . S
C694 C696 1.388 . S
C695 C694 1.366 . S
C695 C699 1.385 . S
C696 H677 0.951 . S
C696 C694 1.388 . S
C696 C697 1.366 . S
C697 C696 1.366 . S
C697 C698 1.414 . S
C697 C700 1.499 . S
C698 H678 0.950 . S
C698 C697 1.414 . S
C698 C699 1.374 . S
C699 H679 0.950 . S
C699 C695 1.385 . S
C699 C698 1.374 . S
C700 C697 1.499 . S
C700 C701 1.373 . S
C700 C702 1.389 . S
C701 H680 0.950 . S
C701 C700 1.373 . S
C701 C717 1.377 . S
C702 C700 1.389 . S
C702 C703 1.524 . S
C702 C716 1.377 . S
C703 C702 1.524 . S
C703 C704 1.397 . S
C703 C708 1.363 . S
C704 H681 0.950 . S
C704 C703 1.397 . S
C704 C705 1.334 . S
C705 H682 0.950 . S
C705 C704 1.334 . S
C705 C706 1.287 . S
C706 C705 1.287 . S
C706 C707 1.524 . S
C706 H725 0.913 . S
C707 H683 0.950 . S
C707 C706 1.524 . S
C707 C708 1.415 . S
C708 H684 0.950 . S
C708 C703 1.363 . S
C708 C707 1.415 . S
C709 H685 0.951 . S
C709 C710 1.366 . S
C709 C711 1.388 . S
C710 C709 1.366 . S
C710 C714 1.385 . S
C711 H686 0.951 . S
C711 C709 1.388 . S
C711 C712 1.366 . S
C712 C711 1.366 . S
C712 C713 1.414 . S
C712 C715 1.499 . S
C713 H687 0.950 . S
C713 C712 1.414 . S
C713 C714 1.374 . S
C714 H688 0.950 . S
C714 C710 1.385 . S
C714 C713 1.374 . S
C715 C712 1.499 . S
C715 C716 1.373 . S
C715 C717 1.389 . S
C716 H689 0.950 . S
C716 C702 1.377 . S
C716 C715 1.373 . S
C717 C701 1.377 . S
C717 C715 1.389 . S
C717 C718 1.524 . S
C718 C717 1.524 . S
C718 C719 1.397 . S
C718 C723 1.363 . S
C719 H690 0.950 . S
C719 C718 1.397 . S
C719 C720 1.334 . S
C720 H691 0.950 . S
C720 C719 1.334 . S
C720 C721 1.287 . S
C721 C720 1.287 . S
C721 C722 1.524 . S
C721 H724 0.999 . S
C722 H692 0.950 . S
C722 C721 1.524 . S
C722 C723 1.415 . S
C723 H693 0.950 . S
C723 C718 1.363 . S
C723 C722 1.415 . S
H724 C721 0.999 . S
H725 C706 0.913 . S
H726 C744 0.951 . S
H727 C746 0.951 . S
H728 C748 0.950 . S
H729 C749 0.950 . S
H730 C751 0.950 . S
H731 C754 0.950 . S
H732 C755 0.950 . S
H733 C757 0.950 . S
H734 C758 0.950 . S
H735 C759 0.951 . S
H736 C761 0.951 . S
H737 C763 0.950 . S
H738 C764 0.950 . S
H739 C766 0.964 . S
H740 C769 0.950 1_655 S
H741 C770 0.927 1_655 S
H742 C772 0.950 . S
H743 C773 0.950 . S
C744 H726 0.951 . S
C744 C745 1.366 . S
C744 C746 1.388 . S
C745 C744 1.366 . S
C745 C749 1.385 . S
C746 H727 0.951 . S
C746 C744 1.388 . S
C746 C747 1.366 . S
C747 C746 1.366 . S
C747 C748 1.414 . S
C747 C750 1.499 . S
C748 H728 0.950 . S
C748 C747 1.414 . S
C748 C749 1.374 . S
C749 H729 0.950 . S
C749 C745 1.385 . S
C749 C748 1.374 . S
C750 C747 1.499 . S
C750 C751 1.373 . S
C750 C752 1.389 . S
C751 H730 0.950 . S
C751 C750 1.373 . S
C751 C767 1.377 . S
C752 C750 1.389 . S
C752 C753 1.524 . S
C752 C766 1.353 1_554 S
C753 C752 1.524 . S
C753 C754 1.397 . S
C753 C758 1.363 . S
C754 H731 0.950 . S
C754 C753 1.397 . S
C754 C755 1.334 . S
C755 H732 0.950 . S
C755 C754 1.334 . S
C755 C756 1.287 . S
C756 C755 1.287 . S
C756 C757 1.524 . S
C756 H775 0.913 . S
C757 H733 0.950 . S
C757 C756 1.524 . S
C757 C758 1.415 . S
C758 H734 0.950 . S
C758 C753 1.363 . S
C758 C757 1.415 . S
C759 H735 0.951 . S
C759 C760 1.366 . S
C759 C761 1.388 . S
C760 C759 1.366 . S
C760 C764 1.385 . S
C761 H736 0.951 . S
C761 C759 1.388 . S
C761 C762 1.366 . S
C762 C761 1.366 . S
C762 C763 1.414 . S
C762 C765 1.499 . S
C763 H737 0.950 . S
C763 C762 1.414 . S
C763 C764 1.374 . S
C764 H738 0.950 . S
C764 C760 1.385 . S
C764 C763 1.374 . S
C765 C762 1.499 . S
C765 C766 1.383 . S
C765 C767 1.389 1_556 S
C766 H739 0.964 . S
C766 C752 1.353 1_556 S
C766 C765 1.383 . S
C767 C751 1.377 . S
C767 C765 1.389 1_554 S
C767 C768 1.524 . S
C768 C767 1.524 . S
C768 C769 1.397 1_554 S
C768 C773 1.363 . S
C769 H740 0.950 1_455 S
C769 C768 1.397 1_556 S
C769 C770 1.354 . S
C770 H741 0.927 1_455 S
C770 C769 1.354 . S
C770 C771 1.291 . S
C771 C770 1.291 . S
C771 C772 1.524 1_556 S
C771 H774 0.999 . S
C772 H742 0.950 . S
C772 C771 1.524 1_554 S
C772 C773 1.415 . S
C773 H743 0.950 . S
C773 C768 1.363 . S
C773 C772 1.415 . S
H774 C771 0.999 . S
H775 C756 0.913 . S
H776 C794 0.951 1_565 S
H777 C796 0.951 1_565 S
H778 C798 0.950 . S
H779 C799 0.950 . S
H780 C801 0.950 . S
H781 C804 0.950 . S
H782 C805 0.950 . S
H783 C807 0.950 . S
H784 C808 0.950 . S
H785 C809 0.951 . S
H786 C811 0.951 . S
H787 C813 0.950 1_565 S
H788 C814 0.950 1_565 S
H789 C816 0.950 1_565 S
H790 C819 0.950 . S
H791 C820 0.950 . S
H792 C822 0.950 . S
H793 C823 0.950 . S
C794 H776 0.951 1_545 S
C794 C795 1.366 . S
C794 C796 1.388 . S
C795 C794 1.366 . S
C795 C799 1.385 . S
C796 H777 0.951 1_545 S
C796 C794 1.388 . S
C796 C797 1.366 . S
C797 C796 1.366 . S
C797 C798 1.414 . S
C797 C800 1.499 . S
C798 H778 0.950 . S
C798 C797 1.414 . S
C798 C799 1.374 . S
C799 H779 0.950 . S
C799 C795 1.385 . S
C799 C798 1.374 . S
C800 C797 1.499 . S
C800 C801 1.373 . S
C800 C802 1.389 . S
C801 H780 0.950 . S
C801 C800 1.373 . S
C801 C817 1.377 . S
C802 C800 1.389 . S
C802 C803 1.524 1_545 S
C802 C816 1.377 . S
C803 C802 1.524 1_565 S
C803 C804 1.397 1_565 S
C803 C808 1.363 . S
C804 H781 0.950 . S
C804 C803 1.397 1_545 S
C804 C805 1.334 1_545 S
C805 H782 0.950 . S
C805 C804 1.334 1_565 S
C805 C806 1.287 . S
C806 C805 1.287 . S
C806 C807 1.524 . S
C806 H825 0.913 . S
C807 H783 0.950 . S
C807 C806 1.524 . S
C807 C808 1.415 . S
C808 H784 0.950 . S
C808 C803 1.363 . S
C808 C807 1.415 . S
C809 H785 0.951 . S
C809 C810 1.366 . S
C809 C811 1.388 . S
C810 C809 1.366 . S
C810 C814 1.385 . S
C811 H786 0.951 . S
C811 C809 1.388 . S
C811 C812 1.366 . S
C812 C811 1.366 . S
C812 C813 1.414 . S
C812 C815 1.499 . S
C813 H787 0.950 1_545 S
C813 C812 1.414 . S
C813 C814 1.374 . S
C814 H788 0.950 1_545 S
C814 C810 1.385 . S
C814 C813 1.374 . S
C815 C812 1.499 . S
C815 C816 1.373 . S
C815 C817 1.389 . S
C816 H789 0.950 1_545 S
C816 C802 1.377 . S
C816 C815 1.373 . S
C817 C801 1.377 . S
C817 C815 1.389 . S
C817 C818 1.524 . S
C818 C817 1.524 . S
C818 C819 1.397 . S
C818 C823 1.363 . S
C819 H790 0.950 . S
C819 C818 1.397 . S
C819 C820 1.334 . S
C820 H791 0.950 . S
C820 C819 1.334 . S
C820 C821 1.287 . S
C821 C820 1.287 . S
C821 C822 1.524 . S
C821 H824 0.999 . S
C822 H792 0.950 . S
C822 C821 1.524 . S
C822 C823 1.415 . S
C823 H793 0.950 . S
C823 C818 1.363 . S
C823 C822 1.415 . S
H824 C821 0.999 . S
H825 C806 0.913 . S
H826 C844 0.951 . S
H827 C846 0.951 . S
H828 C848 0.950 . S
H829 C849 0.950 . S
H830 C851 0.950 . S
H831 C854 0.950 . S
H832 C855 0.950 . S
H833 C857 0.950 . S
H834 C858 0.950 . S
H835 C859 0.951 . S
H836 C861 0.951 . S
H837 C863 0.950 . S
H838 C864 0.950 . S
H839 C866 0.950 . S
H840 C869 0.950 . S
H841 C870 0.950 . S
H842 C872 0.950 . S
H843 C873 0.950 . S
C844 H826 0.951 . S
C844 C845 1.366 . S
C844 C846 1.388 . S
C845 C844 1.366 . S
C845 C849 1.385 . S
C846 H827 0.951 . S
C846 C844 1.388 . S
C846 C847 1.366 . S
C847 C846 1.366 . S
C847 C848 1.414 . S
C847 C850 1.499 . S
C848 H828 0.950 . S
C848 C847 1.414 . S
C848 C849 1.374 . S
C849 H829 0.950 . S
C849 C845 1.385 . S
C849 C848 1.374 . S
C850 C847 1.499 . S
C850 C851 1.373 . S
C850 C852 1.389 . S
C851 H830 0.950 . S
C851 C850 1.373 . S
C851 C867 1.377 . S
C852 C850 1.389 . S
C852 C853 1.524 . S
C852 C866 1.377 . S
C853 C852 1.524 . S
C853 C854 1.397 . S
C853 C858 1.363 . S
C854 H831 0.950 . S
C854 C853 1.397 . S
C854 C855 1.334 . S
C855 H832 0.950 . S
C855 C854 1.334 . S
C855 C856 1.287 . S
C856 C855 1.287 . S
C856 C857 1.524 . S
C856 H875 0.913 . S
C857 H833 0.950 . S
C857 C856 1.524 . S
C857 C858 1.415 . S
C858 H834 0.950 . S
C858 C853 1.363 . S
C858 C857 1.415 . S
C859 H835 0.951 . S
C859 C860 1.366 . S
C859 C861 1.388 . S
C860 C859 1.366 . S
C860 C864 1.385 . S
C861 H836 0.951 . S
C861 C859 1.388 . S
C861 C862 1.366 . S
C862 C861 1.366 . S
C862 C863 1.414 . S
C862 C865 1.499 . S
C863 H837 0.950 . S
C863 C862 1.414 . S
C863 C864 1.374 . S
C864 H838 0.950 . S
C864 C860 1.385 . S
C864 C863 1.374 . S
C865 C862 1.499 . S
C865 C866 1.373 . S
C865 C867 1.389 . S
C866 H839 0.950 . S
C866 C852 1.377 . S
C866 C865 1.373 . S
C867 C851 1.377 . S
C867 C865 1.389 . S
C867 C868 1.524 . S
C868 C867 1.524 . S
C868 C869 1.397 . S
C868 C873 1.363 . S
C869 H840 0.950 . S
C869 C868 1.397 . S
C869 C870 1.334 . S
C870 H841 0.950 . S
C870 C869 1.334 . S
C870 C871 1.287 . S
C871 C870 1.287 . S
C871 C872 1.524 . S
C871 H874 0.999 . S
C872 H842 0.950 . S
C872 C871 1.524 . S
C872 C873 1.415 . S
C873 H843 0.950 . S
C873 C868 1.363 . S
C873 C872 1.415 . S
H874 C871 0.999 . S
H875 C856 0.913 . S
H876 C894 0.951 . S
H877 C896 0.951 . S
H878 C898 0.950 1_565 S
H879 C899 0.950 1_565 S
H880 C901 0.950 . S
H881 C904 0.950 . S
H882 C905 0.950 . S
H883 C907 0.950 . S
H884 C908 0.950 . S
H885 C909 0.947 1_565 S
H886 C911 0.952 1_565 S
H887 C913 0.950 . S
H888 C914 0.950 . S
H889 C916 0.950 . S
H890 C919 0.950 . S
H891 C920 0.950 . S
H892 C922 0.950 . S
H893 C923 0.950 . S
C894 H876 0.951 . S
C894 C895 1.366 . S
C894 C896 1.388 . S
C895 C894 1.366 . S
C895 C899 1.385 . S
C896 H877 0.951 . S
C896 C894 1.388 . S
C896 C897 1.366 . S
C897 C896 1.366 . S
C897 C898 1.414 . S
C897 C900 1.499 . S
C898 H878 0.950 1_545 S
C898 C897 1.414 . S
C898 C899 1.374 . S
C899 H879 0.950 1_545 S
C899 C895 1.385 . S
C899 C898 1.374 . S
C900 C897 1.499 . S
C900 C901 1.373 1_545 S
C900 C902 1.389 . S
C901 H880 0.950 . S
C901 C900 1.373 1_565 S
C901 C917 1.377 . S
C902 C900 1.389 . S
C902 C903 1.524 . S
C902 C916 1.377 . S
C903 C902 1.524 . S
C903 C904 1.397 . S
C903 C908 1.363 . S
C904 H881 0.950 . S
C904 C903 1.397 . S
C904 C905 1.334 . S
C905 H882 0.950 . S
C905 C904 1.334 . S
C905 C906 1.287 . S
C906 C905 1.287 . S
C906 C907 1.524 . S
C906 H925 0.913 . S
C907 H883 0.950 . S
C907 C906 1.524 . S
C907 C908 1.415 . S
C908 H884 0.950 . S
C908 C903 1.363 . S
C908 C907 1.415 . S
C909 H885 0.947 1_545 S
C909 C910 1.369 . S
C909 C911 1.389 . S
C910 C909 1.369 . S
C910 C914 1.385 . S
C911 H886 0.952 1_545 S
C911 C909 1.389 . S
C911 C912 1.364 . S
C912 C911 1.364 . S
C912 C913 1.414 . S
C912 C915 1.499 . S
C913 H887 0.950 . S
C913 C912 1.414 . S
C913 C914 1.374 . S
C914 H888 0.950 . S
C914 C910 1.385 . S
C914 C913 1.374 . S
C915 C912 1.499 . S
C915 C916 1.373 . S
C915 C917 1.389 1_545 S
C916 H889 0.950 . S
C916 C902 1.377 . S
C916 C915 1.373 . S
C917 C901 1.377 . S
C917 C915 1.389 1_565 S
C917 C918 1.524 . S
C918 C917 1.524 . S
C918 C919 1.397 . S
C918 C923 1.363 . S
C919 H890 0.950 . S
C919 C918 1.397 . S
C919 C920 1.334 . S
C920 H891 0.950 . S
C920 C919 1.334 . S
C920 C921 1.287 . S
C921 C920 1.287 . S
C921 C922 1.524 . S
C921 H924 0.999 . S
C922 H892 0.950 . S
C922 C921 1.524 . S
C922 C923 1.415 . S
C923 H893 0.950 . S
C923 C918 1.363 . S
C923 C922 1.415 . S
H924 C921 0.999 . S
H925 C906 0.913 . S
H926 C944 0.951 . S
H927 C946 0.951 . S
H928 C948 0.950 . S
H929 C949 0.950 . S
H930 C951 0.950 . S
H931 C954 0.950 . S
H932 C955 0.950 . S
H933 C957 0.950 . S
H934 C958 0.950 . S
H935 C959 0.951 . S
H936 C961 0.951 . S
H937 C963 0.950 . S
H938 C964 0.950 . S
H939 C966 0.950 1_554 S
H940 C969 0.950 . S
H941 C970 0.950 . S
H942 C972 0.954 . S
H943 C973 0.950 . S
C944 H926 0.951 . S
C944 C945 1.366 . S
C944 C946 1.388 . S
C945 C944 1.366 . S
C945 C949 1.385 . S
C946 H927 0.951 . S
C946 C944 1.388 . S
C946 C947 1.366 . S
C947 C946 1.366 . S
C947 C948 1.414 . S
C947 C950 1.499 . S
C948 H928 0.950 . S
C948 C947 1.414 . S
C948 C949 1.374 . S
C949 H929 0.950 . S
C949 C945 1.385 . S
C949 C948 1.374 . S
C950 C947 1.499 . S
C950 C951 1.373 . S
C950 C952 1.389 . S
C951 H930 0.950 . S
C951 C950 1.373 . S
C951 C967 1.377 . S
C952 C950 1.389 . S
C952 C953 1.524 . S
C952 C966 1.377 . S
C953 C952 1.524 . S
C953 C954 1.397 . S
C953 C958 1.363 . S
C954 H931 0.950 . S
C954 C953 1.397 . S
C954 C955 1.334 . S
C955 H932 0.950 . S
C955 C954 1.334 . S
C955 C956 1.287 . S
C956 C955 1.287 . S
C956 C957 1.524 . S
C956 H975 0.913 . S
C957 H933 0.950 . S
C957 C956 1.524 . S
C957 C958 1.415 . S
C958 H934 0.950 . S
C958 C953 1.363 . S
C958 C957 1.415 . S
C959 H935 0.951 . S
C959 C960 1.366 . S
C959 C961 1.388 . S
C960 C959 1.366 . S
C960 C964 1.385 . S
C961 H936 0.951 . S
C961 C959 1.388 . S
C961 C962 1.366 . S
C962 C961 1.366 . S
C962 C963 1.414 . S
C962 C965 1.499 . S
C963 H937 0.950 . S
C963 C962 1.414 . S
C963 C964 1.374 . S
C964 H938 0.950 . S
C964 C960 1.385 . S
C964 C963 1.374 . S
C965 C962 1.499 . S
C965 C966 1.373 1_554 S
C965 C967 1.389 1_554 S
C966 H939 0.950 1_556 S
C966 C952 1.377 . S
C966 C965 1.373 1_556 S
C967 C951 1.377 . S
C967 C965 1.389 1_556 S
C967 C968 1.524 1_556 S
C968 C967 1.524 1_554 S
C968 C969 1.397 . S
C968 C973 1.363 1_554 S
C969 H940 0.950 . S
C969 C968 1.397 . S
C969 C970 1.334 . S
C970 H941 0.950 . S
C970 C969 1.334 . S
C970 C971 1.287 . S
C971 C970 1.287 . S
C971 C972 1.515 1_554 S
C971 H974 0.999 . S
C972 H942 0.954 . S
C972 C971 1.515 1_556 S
C972 C973 1.420 . S
C973 H943 0.950 . S
C973 C968 1.363 1_556 S
C973 C972 1.420 . S
H974 C971 0.999 . S
H975 C956 0.913 . S
H976 C994 0.951 1_655 S
H977 C996 0.951 1_655 S
H978 C998 0.950 . S
H979 C999 0.950 . S
H980 C1001 0.950 . S
H981 C1004 0.950 . S
H982 C1005 0.950 . S
H983 C1007 0.950 . S
H984 C1008 0.950 . S
H985 C1009 0.951 . S
H986 C1011 0.951 . S
H987 C1013 0.950 . S
H988 C1014 0.950 . S
H989 C1016 0.950 . S
H990 C1019 0.950 . S
H991 C1020 0.950 . S
H992 C1022 0.950 . S
H993 C1023 0.950 . S
C994 H976 0.951 1_455 S
C994 C995 1.366 . S
C994 C996 1.388 . S
C995 C994 1.366 . S
C995 C999 1.385 . S
C996 H977 0.951 1_455 S
C996 C994 1.388 . S
C996 C997 1.365 . S
C997 C996 1.365 . S
C997 C998 1.414 . S
C997 C1000 1.499 . S
C998 H978 0.950 . S
C998 C997 1.414 . S
C998 C999 1.374 . S
C999 H979 0.950 . S
C999 C995 1.385 . S
C999 C998 1.374 . S
C1000 C997 1.499 . S
C1000 C1001 1.373 . S
C1000 C1002 1.389 1_455 S
C1001 H980 0.950 . S
C1001 C1000 1.373 . S
C1001 C1017 1.377 . S
C1002 C1000 1.389 1_655 S
C1002 C1003 1.524 . S
C1002 C1016 1.377 . S
C1003 C1002 1.524 . S
C1003 C1004 1.397 . S
C1003 C1008 1.363 . S
C1004 H981 0.950 . S
C1004 C1003 1.397 . S
C1004 C1005 1.334 . S
C1005 H982 0.950 . S
C1005 C1004 1.334 . S
C1005 C1006 1.287 . S
C1006 C1005 1.287 . S
C1006 C1007 1.524 . S
C1006 H1025 0.913 . S
C1007 H983 0.950 . S
C1007 C1006 1.524 . S
C1007 C1008 1.415 . S
C1008 H984 0.950 . S
C1008 C1003 1.363 . S
C1008 C1007 1.415 . S
C1009 H985 0.951 . S
C1009 C1010 1.366 1_455 S
C1009 C1011 1.388 . S
C1010 C1009 1.366 1_655 S
C1010 C1014 1.385 . S
C1011 H986 0.951 . S
C1011 C1009 1.388 . S
C1011 C1012 1.370 1_455 S
C1012 C1011 1.370 1_655 S
C1012 C1013 1.414 . S
C1012 C1015 1.496 1_655 S
C1013 H987 0.950 . S
C1013 C1012 1.414 . S
C1013 C1014 1.374 . S
C1014 H988 0.950 . S
C1014 C1010 1.385 . S
C1014 C1013 1.374 . S
C1015 C1012 1.496 1_455 S
C1015 C1016 1.373 1_455 S
C1015 C1017 1.389 . S
C1016 H989 0.950 . S
C1016 C1002 1.377 . S
C1016 C1015 1.373 1_655 S
C1017 C1001 1.377 . S
C1017 C1015 1.389 . S
C1017 C1018 1.524 . S
C1018 C1017 1.524 . S
C1018 C1019 1.397 . S
C1018 C1023 1.363 . S
C1019 H990 0.950 . S
C1019 C1018 1.397 . S
C1019 C1020 1.334 . S
C1020 H991 0.950 . S
C1020 C1019 1.334 . S
C1020 C1021 1.287 . S
C1021 C1020 1.287 . S
C1021 C1022 1.524 . S
C1021 H1024 0.999 . S
C1022 H992 0.950 . S
C1022 C1021 1.524 . S
C1022 C1023 1.415 . S
C1023 H993 0.950 . S
C1023 C1018 1.363 . S
C1023 C1022 1.415 . S
H1024 C1021 0.999 . S
H1025 C1006 0.913 . S
C145 C8 2.187 . S
C160 C120 1.942 . S
C195 C26 1.500 . S
C210 C98 1.323 . S
C245 C48 1.334 . S
C260 C112 1.353 . S
C295 C19 1.570 . S
C310 C123 1.583 . S
C360 C101 1.291 . S
C345 C36 1.289 . S
C410 C109 1.567 . S
C395 C59 1.759 . S
C445 C28 1.692 . S
C460 C76 1.508 . S
C495 C46 1.369 . S
C510 C87 1.179 . S
C545 C16 1.676 . S
C560 C65 1.409 . S
C610 C79 1.458 . S
C595 C39 1.436 . S
C660 C90 0.800 . S
C645 C56 0.798 . S
C695 C6 1.182 . S
C710 C68 1.156 . S
C760 C89 1.416 . S
C745 C9 1.451 . S
C795 C21 1.494 . S
C810 C67 1.450 . S
C845 C49 1.534 . S
C860 C78 1.469 . S
C910 C111 1.427 . S
C895 C29 1.462 . S
C960 C122 1.516 . S
C945 C41 1.579 . S
C995 C1 1.534 . S
C1010 C100 1.480 . S
