# Generated by pormake.
# Topology anh, (6,3)-cn, num edge types: 1
# Building blocks:
#     Node 0, Type 0, BuildingBlock: PAMTUU_clean_sbu_0, # of connection points: 6
#     Node 1, Type 0, BuildingBlock: PAMTUU_clean_sbu_0, # of connection points: 6
#     Node 2, Type 0, BuildingBlock: PAMTUU_clean_sbu_0, # of connection points: 6
#     Node 3, Type 1, BuildingBlock: WUSLED_clean_sbu_0, # of connection points: 3
#     Node 4, Type 1, BuildingBlock: WUSLED_clean_sbu_0, # of connection points: 3
#     Node 5, Type 1, BuildingBlock: WUSLED_clean_sbu_0, # of connection points: 3
#     Node 6, Type 1, BuildingBlock: WUSLED_clean_sbu_0, # of connection points: 3
#     Node 7, Type 1, BuildingBlock: WUSLED_clean_sbu_0, # of connection points: 3
#     Node 8, Type 1, BuildingBlock: WUSLED_clean_sbu_0, # of connection points: 3
#     Edge 9, Type (0, 1), BuildingBlock: OJICUG_clean_linker_0, # of connection points: 2
#     Edge 10, Type (0, 1), BuildingBlock: OJICUG_clean_linker_0, # of connection points: 2
#     Edge 11, Type (0, 1), BuildingBlock: OJICUG_clean_linker_0, # of connection points: 2
#     Edge 12, Type (0, 1), BuildingBlock: OJICUG_clean_linker_0, # of connection points: 2
#     Edge 13, Type (0, 1), BuildingBlock: OJICUG_clean_linker_0, # of connection points: 2
#     Edge 14, Type (0, 1), BuildingBlock: OJICUG_clean_linker_0, # of connection points: 2
#     Edge 15, Type (0, 1), BuildingBlock: OJICUG_clean_linker_0, # of connection points: 2
#     Edge 16, Type (0, 1), BuildingBlock: OJICUG_clean_linker_0, # of connection points: 2
#     Edge 17, Type (0, 1), BuildingBlock: OJICUG_clean_linker_0, # of connection points: 2
#     Edge 18, Type (0, 1), BuildingBlock: OJICUG_clean_linker_0, # of connection points: 2
#     Edge 19, Type (0, 1), BuildingBlock: OJICUG_clean_linker_0, # of connection points: 2
#     Edge 20, Type (0, 1), BuildingBlock: OJICUG_clean_linker_0, # of connection points: 2
#     Edge 21, Type (0, 1), BuildingBlock: OJICUG_clean_linker_0, # of connection points: 2
#     Edge 22, Type (0, 1), BuildingBlock: OJICUG_clean_linker_0, # of connection points: 2
#     Edge 23, Type (0, 1), BuildingBlock: OJICUG_clean_linker_0, # of connection points: 2
#     Edge 24, Type (0, 1), BuildingBlock: OJICUG_clean_linker_0, # of connection points: 2
#     Edge 25, Type (0, 1), BuildingBlock: OJICUG_clean_linker_0, # of connection points: 2
#     Edge 26, Type (0, 1), BuildingBlock: OJICUG_clean_linker_0, # of connection points: 2
# Relax obj value: 0.272
# Max RMSD: 0.190
# Mean RMSD: 0.156
data_MOF--net-anh--node1-PAMTUU_clean_sbu_0--node2-WUSLED_clean_sbu_0--edge1-OJICUG_clean_linker_0
_symmetry_space_group_name_H-M    P1
_symmetry_Int_Tables_number       1
_symmetry_cell_setting            triclinic
loop_
_symmetry_equiv_pos_as_xyz
'x, y, z'
_cell_length_a     30.909342
_cell_length_b     31.042512
_cell_length_c     55.650931
_cell_angle_alpha  92.353212
_cell_angle_beta   91.310994
_cell_angle_gamma 120.09306
loop_
_atom_site_label
_atom_site_type_symbol
_atom_site_fract_x
_atom_site_fract_y
_atom_site_fract_z
_atom_type_partial_charge
Tb0 Tb 0.12395 0.65214 0.16707 0.0
Tb1 Tb 0.1783 0.58842 0.17393 0.0
C2 C 0.16418 0.61928 0.12144 0.0
C3 C 1.02682 0.67845 0.17964 0.0
C4 C 0.92908 0.62139 0.19493 0.0
C5 C 0.9399 0.6567 0.17754 0.0
C6 C 0.98852 0.68485 0.16981 0.0
C7 C 1.01709 0.64722 0.19883 0.0
C8 C 0.9685 0.61879 0.2064 0.0
C9 C 1.07271 0.69432 0.16673 0.0
O10 O 1.06277 0.57595 0.17524 0.0
O11 O 1.09957 0.52927 0.16685 0.0
O12 O 0.13802 0.58282 0.20611 0.0
O13 O 0.14691 0.65924 0.20466 0.0
O14 O 0.19442 0.53196 0.1651 0.0
O15 O 0.22426 0.57778 0.1983 0.0
O16 O 0.23852 0.66768 0.18067 0.0
O17 O 0.20306 0.7097 0.16386 0.0
O18 O 0.13569 0.63594 0.13012 0.0
O19 O 0.1873 0.60305 0.1355 0.0
C20 C 1.05934 0.53176 0.17186 0.0
O21 O 1.11352 0.71061 0.18019 0.0
O22 O 1.06874 0.66208 0.14981 0.0
C23 C 0.13773 0.62079 0.21675 0.0
C24 C 0.27339 0.55009 0.17981 0.0
C25 C 0.35912 0.55002 0.1652 0.0
C26 C 0.33177 0.52035 0.18383 0.0
C27 C 0.28881 0.52018 0.191 0.0
C28 C 0.30338 0.58365 0.16312 0.0
C29 C 0.34608 0.5836 0.15581 0.0
C30 C 0.22428 0.54332 0.18419 0.0
C31 C 0.24252 0.70968 0.17355 0.0
H32 H 0.91008 0.65901 0.16818 0.0
H33 H 0.99528 0.7083 0.15483 0.0
H34 H 1.04615 0.64148 0.20658 0.0
H35 H 0.96112 0.5919 0.21982 0.0
H36 H 0.34165 0.49485 0.19165 0.0
H37 H 0.26622 0.49479 0.20428 0.0
H38 H 0.29202 0.6075 0.15465 0.0
H39 H 0.3662 0.60674 0.14135 0.0
Tb40 Tb 0.59684 0.08168 0.49992 0.0
Tb41 Tb 0.7165 0.13983 0.50582 0.0
C42 C 0.66066 0.11832 0.45425 0.0
C43 C 0.46932 0.98842 0.5095 0.0
C44 C 0.4094 0.89072 0.52332 0.0
C45 C 0.38816 0.91412 0.51023 0.0
C46 C 0.41809 0.96276 0.50329 0.0
C47 C 0.48959 0.96685 0.52439 0.0
C48 C 0.4598 0.91848 0.53143 0.0
C49 C 0.50286 1.03515 0.49869 0.0
O50 O 0.61513 1.02026 0.49749 0.0
O51 O 0.69836 1.06226 0.51036 0.0
O52 O 0.69097 0.12938 0.54254 0.0
O53 O 0.61292 1.06277 0.53428 0.0
O54 O 0.78667 0.15999 0.49207 0.0
O55 O 0.78116 0.18783 0.52723 0.0
O56 O 0.69857 0.20019 0.50196 0.0
O57 O 0.61799 0.15836 0.51335 0.0
O58 O 0.62022 0.11121 0.46474 0.0
O59 O 0.69895 0.12213 0.46696 0.0
C60 C 0.6563 1.01986 0.50475 0.0
O61 O 0.53065 1.07236 0.51408 0.0
O62 O 0.52878 1.0312 0.4814 0.0
C63 C 0.65034 0.09068 0.54945 0.0
C64 C 0.83708 0.2459 0.50251 0.0
C65 C 0.86362 0.34556 0.49722 0.0
C66 C 0.88412 0.33294 0.51666 0.0
C67 C 0.87091 0.28335 0.51928 0.0
C68 C 0.8194 0.25905 0.4822 0.0
C69 C 0.83261 0.30845 0.47958 0.0
C70 C 0.80992 0.19423 0.50944 0.0
C71 C 0.65874 0.20091 0.50953 0.0
H72 H 0.34951 0.89345 0.5034 0.0
H73 H 0.40194 0.97902 0.49185 0.0
H74 H 0.52911 0.98607 0.52927 0.0
H75 H 0.47705 0.90143 0.54153 0.0
H76 H 0.90913 0.36116 0.53021 0.0
H77 H 0.88426 0.27383 0.53525 0.0
H78 H 0.79234 0.2308 0.46924 0.0
H79 H 0.81627 0.31712 0.46443 0.0
Tb80 Tb 0.64903 0.55866 0.83186 0.0
Tb81 Tb 0.71425 0.67828 0.83501 0.0
C82 C 0.67753 0.61655 0.78461 0.0
C83 C 0.60422 0.43072 0.84659 0.0
C84 C 0.63104 0.36436 0.86496 0.0
C85 C 0.58591 0.34641 0.85106 0.0
C86 C 0.57275 0.37953 0.84184 0.0
C87 C 0.64613 0.44844 0.86264 0.0
C88 C 0.65932 0.41539 0.87193 0.0
C89 C 0.59588 0.46575 0.83342 0.0
O90 O 0.72752 0.57289 0.83196 0.0
O91 O 0.77378 0.65878 0.83758 0.0
O92 O 0.69994 0.65594 0.8721 0.0
O93 O 0.6911 0.57908 0.86563 0.0
O94 O 0.73999 0.74464 0.81748 0.0
O95 O 0.76061 0.74626 0.85486 0.0
O96 O 0.63601 0.66356 0.83403 0.0
O97 O 0.59683 0.58279 0.84452 0.0
O98 O 0.64291 0.57832 0.79528 0.0
O99 O 0.71386 0.6549 0.79726 0.0
C100 C 0.77137 0.61495 0.83571 0.0
O101 O 0.59005 0.49744 0.84699 0.0
O102 O 0.62673 0.48733 0.81639 0.0
C103 C 0.70209 0.61777 0.87995 0.0
C104 C 0.73661 0.80379 0.84293 0.0
C105 C 0.67134 0.84203 0.84443 0.0
C106 C 0.67232 0.81292 0.86284 0.0
C107 C 0.70455 0.79373 0.86206 0.0
C108 C 0.73884 0.83648 0.82576 0.0
C109 C 0.7063 0.85525 0.8264 0.0
C110 C 0.75813 0.77198 0.8375 0.0
C111 C 0.5958 0.62405 0.84126 0.0
H112 H 0.56339 0.30735 0.84515 0.0
H113 H 0.53994 0.36541 0.82971 0.0
H114 H 0.67047 0.488 0.86673 0.0
H115 H 0.69399 0.43016 0.88271 0.0
H116 H 0.64651 0.80299 0.87721 0.0
H117 H 0.70181 0.76833 0.87551 0.0
H118 H 0.7628 0.84413 0.8107 0.0
H119 H 0.70622 0.8772 0.81179 0.0
C120 C 0.77962 0.24982 0.20037 0.0
C121 C 0.77912 0.29405 0.19574 0.0
C122 C 0.87123 0.343 0.19201 0.0
C123 C 0.82365 0.33941 0.19177 0.0
C124 C 0.87169 0.29879 0.19708 0.0
C125 C 0.8271 0.25341 0.20102 0.0
U126 U 0.65842 0.12411 0.223 0.0
O127 O 0.58159 0.08759 0.20573 0.0
O128 O 0.62328 1.04818 0.20452 0.0
C129 C 0.58054 1.04594 0.19901 0.0
C130 C 0.73078 0.19951 0.20026 0.0
C131 C 0.53137 0.99613 0.19939 0.0
C132 C 0.43858 0.94797 0.19641 0.0
C133 C 0.48454 0.99384 0.19999 0.0
C134 C 0.48392 0.90423 0.19166 0.0
C135 C 0.43692 0.90187 0.19184 0.0
C136 C 0.52986 0.95013 0.19522 0.0
C137 C 0.66467 0.12752 0.2974 0.0
C138 C 0.63901 0.14533 0.33614 0.0
C139 C 0.69221 0.10908 0.33533 0.0
C140 C 0.69167 0.10938 0.31002 0.0
C141 C 0.66558 0.12674 0.34887 0.0
C142 C 0.63859 0.14573 0.31086 0.0
C143 C 0.6625 0.12621 0.2704 0.0
O144 O 0.73179 0.15912 0.20566 0.0
O145 O 0.68932 0.19779 0.20679 0.0
O146 O 0.64011 0.14554 0.25817 0.0
O147 O 0.68327 0.10625 0.25704 0.0
H148 H 0.74375 0.2933 0.19435 0.0
H149 H 0.82016 0.37133 0.18765 0.0
H150 H 0.90671 0.29883 0.19794 0.0
H151 H 0.82987 0.22061 0.20401 0.0
H152 H 0.40415 0.94896 0.19718 0.0
H153 H 0.48322 1.0279 0.20264 0.0
H154 H 0.48562 0.87065 0.18792 0.0
H155 H 0.56451 0.94964 0.19392 0.0
H156 H 0.61864 0.16003 0.34572 0.0
H157 H 0.71269 0.09391 0.34423 0.0
H158 H 0.71212 0.09492 0.30032 0.0
H159 H 0.6174 0.16005 0.30185 0.0
C160 C 0.65589 0.73622 0.52892 0.0
C161 C 0.69984 0.78136 0.52466 0.0
C162 C 0.65465 0.82858 0.5215 0.0
C163 C 0.6993 0.82619 0.52111 0.0
C164 C 0.61062 0.7833 0.52599 0.0
C165 C 0.6112 0.73834 0.52948 0.0
U166 U 0.65748 0.61659 0.55512 0.0
O167 O 0.61709 0.5381 0.53941 0.0
O168 O 0.6987 0.57942 0.54139 0.0
C169 C 0.65806 0.53671 0.53499 0.0
C170 C 0.6561 0.68679 0.52897 0.0
C171 C 0.6583 0.48734 0.53552 0.0
C172 C 0.61461 0.39575 0.52646 0.0
C173 C 0.61408 0.44111 0.52999 0.0
C174 C 0.7038 0.44025 0.53397 0.0
C175 C 0.65953 0.39387 0.52812 0.0
C176 C 0.70321 0.48571 0.53746 0.0
C177 C 0.65869 0.62314 0.62848 0.0
C178 C 0.67713 0.58893 0.66357 0.0
C179 C 0.64915 0.64853 0.66927 0.0
C180 C 0.6457 0.65089 0.64424 0.0
C181 C 0.66522 0.61784 0.6794 0.0
C182 C 0.67437 0.59191 0.63835 0.0
C183 C 0.65789 0.63075 0.60224 0.0
O184 O 0.69716 0.68719 0.53616 0.0
O185 O 0.61578 0.64598 0.53477 0.0
O186 O 0.61645 0.60486 0.5887 0.0
O187 O 0.69893 0.64625 0.59038 0.0
H188 H 0.73499 0.78187 0.52333 0.0
H189 H 0.73429 0.85876 0.51728 0.0
H190 H 0.57516 0.78221 0.52683 0.0
H191 H 0.57608 0.70478 0.53217 0.0
H192 H 0.5794 0.36221 0.52158 0.0
H193 H 0.5787 0.44006 0.52755 0.0
H194 H 0.73949 0.44183 0.53584 0.0
H195 H 0.73851 0.52 0.54113 0.0
H196 H 0.68982 0.56502 0.67073 0.0
H197 H 0.63905 0.6708 0.68076 0.0
H198 H 0.63358 0.67533 0.63716 0.0
H199 H 0.68493 0.57034 0.62664 0.0
C200 C 1.055 0.6122 0.86586 0.0
C201 C 1.0114 0.56944 0.85584 0.0
C202 C 0.96101 0.61149 0.85689 0.0
C203 C 0.96567 0.569 0.85153 0.0
C204 C 1.00458 0.654 0.86744 0.0
C205 C 1.05039 0.65445 0.87165 0.0
U206 U 0.18324 0.61728 0.89057 0.0
O207 O 0.21923 0.57896 0.87232 0.0
O208 O 0.25857 0.66017 0.87539 0.0
C209 C 0.26042 0.62036 0.86793 0.0
C210 C 1.10564 0.61433 0.86633 0.0
C211 C 0.31053 0.62131 0.86813 0.0
C212 C 0.35823 0.57904 0.85779 0.0
C213 C 0.31235 0.57784 0.86148 0.0
C214 C 0.40328 0.66748 0.8673 0.0
C215 C 0.40512 0.62391 0.86041 0.0
C216 C 0.3572 0.66623 0.87096 0.0
C217 C 0.18321 0.61727 0.96491 0.0
C218 C 0.16834 0.57398 1.0024 0.0
C219 C 0.19514 0.66173 1.00411 0.0
C220 C 0.1965 0.6614 0.97885 0.0
C221 C 0.18077 0.618 0.01635 0.0
C222 C 0.16929 0.57358 0.97707 0.0
C223 C 0.18311 0.6169 0.93792 0.0
O224 O 0.14656 0.6557 0.87397 0.0
O225 O 1.1081 0.57452 0.8713 0.0
O226 O 0.16405 0.57568 0.92394 0.0
O227 O 0.20238 0.65815 0.92634 0.0
H228 H 1.013 0.53635 0.85048 0.0
H229 H 0.93439 0.53539 0.84313 0.0
H230 H 1.00375 0.68759 0.87247 0.0
H231 H 1.08267 0.6886 0.87901 0.0
H232 H 0.35641 0.54443 0.85204 0.0
H233 H 0.2778 0.54258 0.8583 0.0
H234 H 0.43761 0.70305 0.86988 0.0
H235 H 0.35821 0.70098 0.8755 0.0
H236 H 0.15666 0.53944 0.01102 0.0
H237 H 0.20563 0.69655 0.01408 0.0
H238 H 0.20753 0.69583 0.97022 0.0
H239 H 0.15881 0.53886 0.967 0.0
C240 C 1.02956 0.6329 0.47993 0.0
C241 C 0.98684 0.61688 0.46469 0.0
C242 C 0.93846 0.55386 0.49244 0.0
C243 C 0.94095 0.57779 0.47115 0.0
C244 C 0.97855 0.57775 0.50977 0.0
C245 C 1.02416 0.61731 0.50345 0.0
U246 U 1.10368 0.64216 0.42531 0.0
O247 O 0.18305 0.69176 0.41832 0.0
O248 O 0.15292 0.61107 0.41968 0.0
C249 C 0.19313 0.6555 0.42016 0.0
C250 C 1.07724 0.64721 0.46925 0.0
C251 C 0.23075 0.66493 0.43926 0.0
C252 C 0.24853 0.66677 0.48213 0.0
C253 C 0.2152 0.64676 0.46209 0.0
C254 C 0.31454 0.71935 0.45631 0.0
C255 C 0.29765 0.70547 0.47959 0.0
C256 C 0.28113 0.69933 0.43626 0.0
C257 C 1.05406 0.61748 0.36229 0.0
C258 C 1.11509 0.6459 0.33151 0.0
C259 C 1.02861 0.5833 0.32107 0.0
C260 C 1.01671 0.58511 0.34509 0.0
C261 C 1.0778 0.61431 0.31415 0.0
C262 C 1.10344 0.64714 0.35539 0.0
C263 C 1.043 0.61982 0.38762 0.0
O264 O 1.07846 0.60853 0.45961 0.0
O265 O 1.09563 0.68551 0.45562 0.0
O266 O 1.06762 0.66489 0.39826 0.0
O267 O 1.04351 0.5855 0.40052 0.0
H268 H 0.99032 0.62897 0.44648 0.0
H269 H 0.90994 0.56125 0.45784 0.0
H270 H 0.97778 0.56111 0.5266 0.0
H271 H 1.05681 0.62978 0.51552 0.0
H272 H 0.23468 0.65542 0.49983 0.0
H273 H 0.17631 0.62018 0.46484 0.0
H274 H 0.35209 0.7496 0.4538 0.0
H275 H 0.29364 0.71389 0.41881 0.0
H276 H 0.15339 0.6695 0.32661 0.0
H277 H 0.99939 0.55857 0.30786 0.0
H278 H 0.9786 0.56146 0.35022 0.0
H279 H 0.13313 0.67156 0.36849 0.0
C280 C 0.50129 0.95872 0.8053 0.0
C281 C 0.49525 0.91797 0.79068 0.0
C282 C 0.51458 0.88573 0.82566 0.0
C283 C 0.50195 0.8813 0.80094 0.0
C284 C 0.50902 0.91989 0.84062 0.0
C285 C 0.5022 0.95647 0.83038 0.0
U286 U 0.57028 1.04541 0.75575 0.0
O287 O 0.58909 0.12304 0.75115 0.0
O288 O 0.64866 0.10535 0.75781 0.0
C289 C 0.63655 0.14023 0.75747 0.0
C290 C 0.52854 1.00834 0.79605 0.0
C291 C 0.65556 0.17497 0.77876 0.0
C292 C 0.66444 0.18778 0.82235 0.0
C293 C 0.65241 0.1564 0.80168 0.0
C294 C 0.68544 0.25727 0.79741 0.0
C295 C 0.67956 0.23818 0.82043 0.0
C296 C 0.67339 0.22576 0.77669 0.0
C297 C 0.57799 1.00505 0.69312 0.0
C298 C 0.61927 1.06934 0.66481 0.0
C299 C 0.59688 0.98396 0.65392 0.0
C300 C 0.57737 0.96972 0.6765 0.0
C301 C 0.61682 1.0337 0.64759 0.0
C302 C 0.60025 1.05516 0.68743 0.0
C303 C 0.55559 0.99023 0.71642 0.0
O304 O 0.57465 1.02084 0.79133 0.0
O305 O 0.50612 1.02004 0.77932 0.0
O306 O 0.52591 1.00757 0.72231 0.0
O307 O 0.58712 0.99527 0.73406 0.0
H308 H 0.49441 0.91911 0.77125 0.0
H309 H 0.50607 0.85509 0.78911 0.0
H310 H 0.51862 0.92377 0.85974 0.0
H311 H 0.50665 0.98756 0.84193 0.0
H312 H 0.65943 0.17217 0.83981 0.0
H313 H 0.63869 0.11715 0.80365 0.0
H314 H 0.69594 0.29582 0.79536 0.0
H315 H 0.67581 0.24056 0.75916 0.0
H316 H 0.63381 0.10776 0.66051 0.0
H317 H 0.59531 0.95579 0.6412 0.0
H318 H 0.56109 0.93108 0.68083 0.0
H319 H 0.60168 0.08311 0.70027 0.0
C320 C 0.65962 0.44711 0.1302 0.0
C321 C 0.70418 0.44818 0.12488 0.0
C322 C 0.73429 0.4743 0.16662 0.0
C323 C 0.74118 0.46124 0.14307 0.0
C324 C 0.68752 0.4679 0.17231 0.0
C325 C 0.65028 0.45417 0.15416 0.0
U326 U 0.63939 0.48407 0.06789 0.0
O327 O 0.5694 0.45441 0.04546 0.0
O328 O 0.60831 0.53199 0.06041 0.0
C329 C 0.56692 0.49503 0.05018 0.0
C330 C 0.62823 0.45023 0.1111 0.0
C331 C 0.52318 0.48875 0.06246 0.0
C332 C 0.48009 0.46606 0.09968 0.0
C333 C 0.50771 0.45876 0.08225 0.0
C334 C 0.47995 0.53086 0.07679 0.0
C335 C 0.46785 0.50361 0.09757 0.0
C336 C 0.50752 0.52344 0.05931 0.0
C337 C 0.7299 0.54455 0.02201 0.0
C338 C 0.69943 0.57909 0.99211 0.0
C339 C 0.77546 0.57647 0.98596 0.0
C340 C 0.77077 0.55477 0.00808 0.0
C341 C 0.73933 0.58819 0.97763 0.0
C342 C 0.69475 0.5574 0.01396 0.0
C343 C 0.72136 0.51893 0.0445 0.0
O344 O 0.64094 0.4963 0.10692 0.0
O345 O 0.61831 0.42144 0.09131 0.0
O346 O 0.68634 0.47147 0.0426 0.0
O347 O 0.7166 0.54352 0.06308 0.0
H348 H 0.71218 0.44334 0.10643 0.0
H349 H 0.7771 0.4664 0.13811 0.0
H350 H 0.6814 0.47772 0.19031 0.0
H351 H 0.61602 0.45366 0.15849 0.0
H352 H 0.47127 0.44466 0.11555 0.0
H353 H 0.52063 0.43272 0.08535 0.0
H354 H 0.46995 0.55934 0.07458 0.0
H355 H 0.5201 0.5476 0.04441 0.0
H356 H 0.67029 0.58641 0.98606 0.0
H357 H 0.80667 0.5831 0.97515 0.0
H358 H 0.79825 0.54508 0.01402 0.0
H359 H 0.66269 0.5494 0.02431 0.0
C360 C 0.37896 0.48895 0.14584 0.0
C361 C 0.39367 0.53892 0.15213 0.0
H362 H 0.3904 0.43868 0.12321 0.0
C363 C 0.43634 0.57722 0.14225 0.0
H364 H 0.34577 0.45856 0.15287 0.0
C365 C 0.46148 0.56569 0.12497 0.0
C366 C 0.44438 0.51574 0.11743 0.0
H367 H 0.44882 0.61602 0.14705 0.0
H368 H 0.49349 0.59584 0.11706 0.0
C369 C 0.40414 0.47747 0.12865 0.0
C370 C 0.87398 0.42531 0.51581 0.0
C371 C 0.87417 0.39721 0.49539 0.0
H372 H 0.89191 0.49743 0.53073 0.0
C373 C 0.88611 0.41925 0.47324 0.0
H374 H 0.86347 0.40866 0.53299 0.0
C375 C 0.90163 0.46951 0.47187 0.0
C376 C 0.90576 0.49902 0.49268 0.0
H377 H 0.88659 0.39849 0.45721 0.0
H378 H 0.91467 0.48594 0.45483 0.0
C379 C 0.88953 0.47584 0.51445 0.0
C380 C 0.64188 0.90097 0.83439 0.0
C381 C 0.63121 0.85468 0.84254 0.0
H382 H 0.6124 0.9462 0.82266 0.0
C383 C 0.58121 0.81897 0.84673 0.0
H384 H 0.67993 0.92942 0.83126 0.0
C385 C 0.5424 0.8287 0.84183 0.0
C386 C 0.55348 0.87437 0.8329 0.0
H387 H 0.57191 0.78283 0.85287 0.0
H388 H 0.50402 0.80043 0.84448 0.0
C389 C 0.60338 0.91063 0.82957 0.0
C390 C 0.83772 0.59113 0.19724 0.0
C391 C 0.87687 0.58069 0.19667 0.0
H392 H 0.76036 0.5641 0.18863 0.0
C393 C 0.86554 0.5311 0.1922 0.0
H394 H 0.84553 0.629 0.2008 0.0
C395 C 0.81689 0.4939 0.18514 0.0
C396 C 0.77893 0.50582 0.18269 0.0
H397 H 0.89503 0.52208 0.19152 0.0
H398 H 0.81001 0.45713 0.17937 0.0
C399 C 0.78893 0.55381 0.19043 0.0
C400 C 0.40686 0.81102 0.51314 0.0
C401 C 0.38288 0.83573 0.52279 0.0
H402 H 0.39749 0.74769 0.49186 0.0
C403 C 0.33097 0.80876 0.52517 0.0
H404 H 0.44698 0.8307 0.51123 0.0
C405 C 0.30269 0.76108 0.51404 0.0
C406 C 0.32622 0.74029 0.50036 0.0
H407 H 0.3118 0.82672 0.53298 0.0
H408 H 0.26229 0.7439 0.51337 0.0
C409 C 0.37856 0.76344 0.50192 0.0
C410 C 0.70202 0.35183 0.85605 0.0
C411 C 0.65448 0.33302 0.86556 0.0
H412 H 0.74804 0.33512 0.83399 0.0
C413 C 0.62442 0.28138 0.86745 0.0
H414 H 0.72656 0.39153 0.85463 0.0
C415 C 0.63664 0.24905 0.85532 0.0
C416 C 0.67928 0.26839 0.84152 0.0
H417 H 0.58817 0.26603 0.87525 0.0
H418 H 0.60926 0.20957 0.85409 0.0
C419 C 0.71426 0.31955 0.84396 0.0
C420 C 0.61175 0.92313 0.50355 0.0
C421 C 0.65519 0.97042 0.50836 0.0
H422 H 0.57707 0.84308 0.50327 0.0
C423 C 0.69793 0.97002 0.51773 0.0
H424 H 0.57769 0.9209 0.4965 0.0
C425 C 0.69751 0.92503 0.522 0.0
C426 C 0.65433 0.87747 0.51707 0.0
H427 H 0.73224 1.00492 0.5221 0.0
H428 H 0.73146 0.92803 0.52964 0.0
C429 C 0.61135 0.87789 0.50774 0.0
C430 C 0.81933 0.56835 0.84414 0.0
C431 C 0.81966 0.61318 0.84003 0.0
H432 H 0.86105 0.53223 0.85304 0.0
C433 C 0.86712 0.65717 0.84147 0.0
H434 H 0.78405 0.53351 0.84363 0.0
C435 C 0.91196 0.65652 0.84672 0.0
C436 C 0.91195 0.61185 0.85108 0.0
H437 H 0.86987 0.6927 0.8385 0.0
H438 H 0.94688 0.69157 0.84704 0.0
C439 C 0.86423 0.5677 0.84957 0.0
C440 C 0.29814 0.80497 0.17159 0.0
C441 C 0.29258 0.75868 0.17758 0.0
H442 H 0.34584 0.88448 0.1708 0.0
C443 C 0.33541 0.76025 0.18822 0.0
H444 H 0.26671 0.80621 0.16339 0.0
C445 C 0.38138 0.80579 0.19273 0.0
C446 C 0.38702 0.85231 0.1869 0.0
H447 H 0.33347 0.72605 0.19332 0.0
H448 H 0.41237 0.80431 0.20127 0.0
C449 C 0.34408 0.85053 0.17613 0.0
C450 C 0.70215 0.29739 0.5106 0.0
C451 C 0.6595 0.25053 0.51417 0.0
H452 H 0.73604 0.37739 0.51163 0.0
C453 C 0.61729 0.25182 0.52258 0.0
H454 H 0.73571 0.29896 0.50421 0.0
C455 C 0.61751 0.29733 0.52712 0.0
C456 C 0.65996 0.34443 0.52348 0.0
H457 H 0.58357 0.21728 0.52582 0.0
H458 H 0.58401 0.29519 0.53389 0.0
C459 C 0.70238 0.34306 0.51513 0.0
C460 C 0.5429 0.66769 0.84317 0.0
C461 C 0.54763 0.62517 0.8462 0.0
H462 H 0.49604 0.70085 0.8446 0.0
C463 C 0.50502 0.58279 0.85421 0.0
H464 H 0.57423 0.70131 0.83707 0.0
C465 C 0.46004 0.58267 0.85888 0.0
C466 C 0.45479 0.62491 0.85573 0.0
H467 H 0.50627 0.54911 0.85701 0.0
H468 H 0.4294 0.54906 0.86533 0.0
C469 C 0.49761 0.66752 0.84778 0.0
C470 C 0.96919 0.48423 0.18625 0.0
C471 C 1.01043 0.48362 0.17615 0.0
H472 H 0.89516 0.44277 0.19953 0.0
C473 C 1.00509 0.43605 0.17134 0.0
H474 H 0.9715 0.51961 0.19071 0.0
C475 C 0.96081 0.39137 0.17633 0.0
C476 C 0.91938 0.39172 0.18656 0.0
H477 H 1.03543 0.4331 0.16364 0.0
H478 H 0.95912 0.35633 0.1718 0.0
C479 C 0.92486 0.43952 0.19133 0.0
C480 C 0.18986 0.59243 0.08292 0.0
C481 C 0.16983 0.61919 0.09464 0.0
H482 H 0.20884 0.5707 0.04933 0.0
C483 C 0.15391 0.64555 0.0803 0.0
H484 H 0.20243 0.57155 0.09323 0.0
C485 C 0.15783 0.64529 0.05521 0.0
C486 C 0.17739 0.61828 0.04338 0.0
H487 H 0.13828 0.66667 0.08846 0.0
H488 H 0.14459 0.66574 0.045 0.0
C489 C 0.19324 0.59169 0.05766 0.0
C490 C 0.70612 0.13183 0.41534 0.0
C491 C 0.66248 0.12112 0.42735 0.0
H492 H 0.74179 0.14274 0.38167 0.0
C493 C 0.62012 0.11256 0.41327 0.0
H494 H 0.73963 0.13888 0.42545 0.0
C495 C 0.62123 0.11444 0.38807 0.0
C496 C 0.66479 0.12508 0.37598 0.0
H497 H 0.58565 0.1039 0.42168 0.0
H498 H 0.5874 0.10665 0.37804 0.0
C499 C 0.70725 0.13377 0.39009 0.0
C500 C 0.65209 0.57164 0.74318 0.0
C501 C 0.67553 0.61658 0.75767 0.0
H502 H 0.63142 0.53665 0.70732 0.0
C503 C 0.6966 0.66172 0.74609 0.0
H504 H 0.63564 0.53615 0.75143 0.0
C505 C 0.69338 0.66195 0.72086 0.0
C506 C 0.67 0.61707 0.70633 0.0
H507 H 0.71476 0.69704 0.75659 0.0
H508 H 0.70948 0.69748 0.71266 0.0
C509 C 0.64993 0.5719 0.71786 0.0
C510 C 0.67824 0.10824 0.5934 0.0
C511 C 0.64576 1.07592 0.57456 0.0
H512 H 0.6952 0.11993 0.63153 0.0
C513 C 0.60672 1.02854 0.57982 0.0
H514 H 0.70886 0.14481 0.58985 0.0
C515 C 0.59875 1.0145 0.60341 0.0
C516 C 0.62982 1.04726 0.62246 0.0
H517 H 0.5814 1.00225 0.56575 0.0
H518 H 0.56682 0.97858 0.60671 0.0
C519 C 0.67025 0.09404 0.61721 0.0
C520 C 0.73733 0.5853 0.90996 0.0
C521 C 0.71869 0.61723 0.90493 0.0
H522 H 0.75873 0.55146 0.93676 0.0
C523 C 0.7136 0.64514 0.92395 0.0
H524 H 0.74265 0.56396 0.89562 0.0
C525 C 0.72345 0.63823 0.94776 0.0
C526 C 0.7389 0.60366 0.9528 0.0
H527 H 0.69975 0.6703 0.92054 0.0
H528 H 0.71718 0.65851 0.96226 0.0
C529 C 0.74734 0.57863 0.93358 0.0
C530 C 0.13142 0.66248 0.25453 0.0
C531 C 0.12249 0.6187 0.2417 0.0
H532 H 0.12384 0.69504 0.28763 0.0
C533 C 1.09704 0.57288 0.25255 0.0
H534 H 0.15063 0.69824 0.24655 0.0
C535 C 1.08101 0.57101 0.27595 0.0
C536 C 1.09091 0.61502 0.28886 0.0
H537 H 1.08912 0.53846 0.24291 0.0
H538 H 1.06192 0.53548 0.28414 0.0
C539 C 1.11606 0.66068 0.27796 0.0
loop_
_geom_bond_atom_site_label_1
_geom_bond_atom_site_label_2
_geom_bond_distance
_geom_bond_site_symmetry_2
_ccdc_geom_bond_type
Tb0 C9 2.764 1_455 S
Tb0 O10 2.325 1_455 S
Tb0 O13 2.303 . S
Tb0 O17 2.322 . S
Tb0 O18 2.349 . S
Tb0 O21 2.415 1_455 S
Tb0 O22 2.399 1_455 S
Tb1 O11 2.322 1_455 S
Tb1 O12 2.349 . S
Tb1 O14 2.415 . S
Tb1 O15 2.399 . S
Tb1 O16 2.325 . S
Tb1 O19 2.303 . S
Tb1 C30 2.764 . S
C2 O18 1.261 . S
C2 O19 1.257 . S
C3 C6 1.358 . S
C3 C7 1.332 . S
C3 C9 1.504 . S
C4 C5 1.373 . S
C4 C8 1.308 . S
C5 C4 1.373 . S
C5 C6 1.429 . S
C5 H32 0.932 . S
C6 C3 1.358 . S
C6 C5 1.429 . S
C6 H33 0.930 . S
C7 C3 1.332 . S
C7 C8 1.394 . S
C7 H34 0.932 . S
C8 C4 1.308 . S
C8 C7 1.394 . S
C8 H35 0.929 . S
C9 Tb0 2.764 1_655 S
C9 C3 1.504 . S
C9 O21 1.239 . S
C9 O22 1.263 . S
O10 Tb0 2.325 1_655 S
O10 C20 1.236 . S
O11 Tb1 2.322 1_655 S
O11 C20 1.257 . S
O12 Tb1 2.349 . S
O12 C23 1.261 . S
O13 Tb0 2.303 . S
O13 C23 1.257 . S
O14 Tb1 2.415 . S
O14 C30 1.239 . S
O15 Tb1 2.399 . S
O15 C30 1.263 . S
O16 Tb1 2.325 . S
O16 C31 1.236 . S
O17 Tb0 2.322 . S
O17 C31 1.257 . S
O18 Tb0 2.349 . S
O18 C2 1.261 . S
O19 Tb1 2.303 . S
O19 C2 1.257 . S
C20 O10 1.236 . S
C20 O11 1.257 . S
O21 Tb0 2.415 1_655 S
O21 C9 1.239 . S
O22 Tb0 2.399 1_655 S
O22 C9 1.263 . S
C23 O12 1.261 . S
C23 O13 1.257 . S
C24 C27 1.358 . S
C24 C28 1.332 . S
C24 C30 1.504 . S
C25 C26 1.373 . S
C25 C29 1.308 . S
C26 C25 1.373 . S
C26 C27 1.429 . S
C26 H36 0.932 . S
C27 C24 1.358 . S
C27 C26 1.429 . S
C27 H37 0.930 . S
C28 C24 1.332 . S
C28 C29 1.394 . S
C28 H38 0.932 . S
C29 C25 1.308 . S
C29 C28 1.394 . S
C29 H39 0.929 . S
C30 Tb1 2.764 . S
C30 O14 1.239 . S
C30 O15 1.263 . S
C30 C24 1.504 . S
C31 O16 1.236 . S
C31 O17 1.257 . S
H32 C5 0.932 . S
H33 C6 0.930 . S
H34 C7 0.932 . S
H35 C8 0.929 . S
H36 C26 0.932 . S
H37 C27 0.930 . S
H38 C28 0.932 . S
H39 C29 0.929 . S
Tb40 C49 2.764 . S
Tb40 O50 2.325 . S
Tb40 O53 2.303 1_565 S
Tb40 O57 2.322 1_565 S
Tb40 O58 2.349 1_565 S
Tb40 O61 2.415 . S
Tb40 O62 2.399 . S
Tb41 O51 2.322 1_545 S
Tb41 O52 2.349 . S
Tb41 O54 2.415 . S
Tb41 O55 2.399 . S
Tb41 O56 2.325 . S
Tb41 O59 2.303 . S
Tb41 C70 2.764 . S
C42 O58 1.261 . S
C42 O59 1.257 . S
C43 C46 1.358 . S
C43 C47 1.332 . S
C43 C49 1.504 . S
C44 C45 1.373 . S
C44 C48 1.308 . S
C45 C44 1.373 . S
C45 C46 1.429 . S
C45 H72 0.932 . S
C46 C43 1.358 . S
C46 C45 1.429 . S
C46 H73 0.930 . S
C47 C43 1.332 . S
C47 C48 1.394 . S
C47 H74 0.932 . S
C48 C44 1.308 . S
C48 C47 1.394 . S
C48 H75 0.929 . S
C49 Tb40 2.764 . S
C49 C43 1.504 . S
C49 O61 1.239 . S
C49 O62 1.263 . S
O50 Tb40 2.325 . S
O50 C60 1.236 . S
O51 Tb41 2.322 1_565 S
O51 C60 1.257 . S
O52 Tb41 2.349 . S
O52 C63 1.261 . S
O53 Tb40 2.303 1_545 S
O53 C63 1.257 . S
O54 Tb41 2.415 . S
O54 C70 1.239 . S
O55 Tb41 2.399 . S
O55 C70 1.263 . S
O56 Tb41 2.325 . S
O56 C71 1.236 . S
O57 Tb40 2.322 1_545 S
O57 C71 1.257 . S
O58 Tb40 2.349 1_545 S
O58 C42 1.261 . S
O59 Tb41 2.303 . S
O59 C42 1.257 . S
C60 O50 1.236 . S
C60 O51 1.257 . S
O61 Tb40 2.415 . S
O61 C49 1.239 . S
O62 Tb40 2.399 . S
O62 C49 1.263 . S
C63 O52 1.261 . S
C63 O53 1.257 . S
C64 C67 1.358 . S
C64 C68 1.332 . S
C64 C70 1.504 . S
C65 C66 1.373 . S
C65 C69 1.308 . S
C66 C65 1.373 . S
C66 C67 1.429 . S
C66 H76 0.932 . S
C67 C64 1.358 . S
C67 C66 1.429 . S
C67 H77 0.930 . S
C68 C64 1.332 . S
C68 C69 1.394 . S
C68 H78 0.932 . S
C69 C65 1.308 . S
C69 C68 1.394 . S
C69 H79 0.929 . S
C70 Tb41 2.764 . S
C70 O54 1.239 . S
C70 O55 1.263 . S
C70 C64 1.504 . S
C71 O56 1.236 . S
C71 O57 1.257 . S
H72 C45 0.932 . S
H73 C46 0.930 . S
H74 C47 0.932 . S
H75 C48 0.929 . S
H76 C66 0.932 . S
H77 C67 0.930 . S
H78 C68 0.932 . S
H79 C69 0.929 . S
Tb80 C89 2.764 . S
Tb80 O90 2.325 . S
Tb80 O93 2.303 . S
Tb80 O97 2.322 . S
Tb80 O98 2.349 . S
Tb80 O101 2.415 . S
Tb80 O102 2.399 . S
Tb81 O91 2.322 . S
Tb81 O92 2.349 . S
Tb81 O94 2.415 . S
Tb81 O95 2.399 . S
Tb81 O96 2.325 . S
Tb81 O99 2.303 . S
Tb81 C110 2.764 . S
C82 O98 1.261 . S
C82 O99 1.257 . S
C83 C86 1.358 . S
C83 C87 1.332 . S
C83 C89 1.504 . S
C84 C85 1.373 . S
C84 C88 1.308 . S
C85 C84 1.373 . S
C85 C86 1.429 . S
C85 H112 0.932 . S
C86 C83 1.358 . S
C86 C85 1.429 . S
C86 H113 0.930 . S
C87 C83 1.332 . S
C87 C88 1.394 . S
C87 H114 0.932 . S
C88 C84 1.308 . S
C88 C87 1.394 . S
C88 H115 0.929 . S
C89 Tb80 2.764 . S
C89 C83 1.504 . S
C89 O101 1.239 . S
C89 O102 1.263 . S
O90 Tb80 2.325 . S
O90 C100 1.236 . S
O91 Tb81 2.322 . S
O91 C100 1.257 . S
O92 Tb81 2.349 . S
O92 C103 1.261 . S
O93 Tb80 2.303 . S
O93 C103 1.257 . S
O94 Tb81 2.415 . S
O94 C110 1.239 . S
O95 Tb81 2.399 . S
O95 C110 1.263 . S
O96 Tb81 2.325 . S
O96 C111 1.236 . S
O97 Tb80 2.322 . S
O97 C111 1.257 . S
O98 Tb80 2.349 . S
O98 C82 1.261 . S
O99 Tb81 2.303 . S
O99 C82 1.257 . S
C100 O90 1.236 . S
C100 O91 1.257 . S
O101 Tb80 2.415 . S
O101 C89 1.239 . S
O102 Tb80 2.399 . S
O102 C89 1.263 . S
C103 O92 1.261 . S
C103 O93 1.257 . S
C104 C107 1.358 . S
C104 C108 1.332 . S
C104 C110 1.504 . S
C105 C106 1.373 . S
C105 C109 1.308 . S
C106 C105 1.373 . S
C106 C107 1.429 . S
C106 H116 0.932 . S
C107 C104 1.358 . S
C107 C106 1.429 . S
C107 H117 0.930 . S
C108 C104 1.332 . S
C108 C109 1.394 . S
C108 H118 0.932 . S
C109 C105 1.308 . S
C109 C108 1.394 . S
C109 H119 0.929 . S
C110 Tb81 2.764 . S
C110 O94 1.239 . S
C110 O95 1.263 . S
C110 C104 1.504 . S
C111 O96 1.236 . S
C111 O97 1.257 . S
H112 C85 0.932 . S
H113 C86 0.930 . S
H114 C87 0.932 . S
H115 C88 0.929 . S
H116 C106 0.932 . S
H117 C107 0.930 . S
H118 C108 0.932 . S
H119 C109 0.929 . S
C120 C121 1.264 . S
C120 C125 1.479 . S
C120 C130 1.465 . S
C121 C120 1.264 . S
C121 C123 1.339 . S
C121 H148 0.931 . S
C122 C123 1.395 . S
C122 C124 1.320 . S
C123 C121 1.339 . S
C123 C122 1.395 . S
C123 H149 0.929 . S
C124 C122 1.320 . S
C124 C125 1.405 . S
C124 H150 0.930 . S
C125 C120 1.479 . S
C125 C124 1.405 . S
C125 H151 0.931 . S
U126 O127 2.454 1_545 S
U126 O128 2.458 1_545 S
U126 C129 2.984 1_545 S
U126 C130 2.847 . S
U126 C143 2.882 . S
U126 O144 2.441 . S
U126 O145 2.420 . S
U126 O146 2.455 . S
U126 O147 2.449 . S
O127 U126 2.454 1_565 S
O127 C129 1.353 . S
O128 U126 2.458 1_565 S
O128 C129 1.286 . S
C129 U126 2.984 1_565 S
C129 O127 1.353 . S
C129 O128 1.286 . S
C129 C131 1.363 . S
C130 C120 1.465 . S
C130 U126 2.847 . S
C130 O144 1.249 . S
C130 O145 1.202 . S
C131 C129 1.363 . S
C131 C133 1.408 . S
C131 C136 1.342 . S
C132 C133 1.310 . S
C132 C135 1.461 . S
C132 H152 0.932 . S
C133 C131 1.408 . S
C133 C132 1.310 . S
C133 H153 0.930 . S
C134 C135 1.474 . S
C134 C136 1.285 . S
C134 H154 0.929 . S
C135 C132 1.461 . S
C135 C134 1.474 . S
C136 C131 1.342 . S
C136 C134 1.285 . S
C136 H155 0.930 . S
C137 C140 1.424 . S
C137 C142 1.245 . S
C137 C143 1.428 . S
C138 C141 1.260 . S
C138 C142 1.477 . S
C138 H156 0.932 . S
C139 C140 1.384 . S
C139 C141 1.479 . S
C139 H157 0.929 . S
C140 C137 1.424 . S
C140 C139 1.384 . S
C140 H158 0.928 . S
C141 C138 1.260 . S
C141 C139 1.479 . S
C142 C137 1.245 . S
C142 C138 1.477 . S
C142 H159 0.932 1_545 S
C143 U126 2.882 . S
C143 C137 1.428 . S
C143 O146 1.301 . S
C143 O147 1.282 . S
O144 U126 2.441 . S
O144 C130 1.249 . S
O145 U126 2.420 . S
O145 C130 1.202 . S
O146 U126 2.455 . S
O146 C143 1.301 . S
O147 U126 2.449 . S
O147 C143 1.282 . S
H148 C121 0.931 . S
H149 C123 0.929 . S
H150 C124 0.930 . S
H151 C125 0.931 . S
H152 C132 0.932 . S
H153 C133 0.930 . S
H154 C134 0.929 . S
H155 C136 0.930 . S
H156 C138 0.932 . S
H157 C139 0.929 . S
H158 C140 0.928 . S
H159 C142 0.932 1_565 S
C160 C161 1.264 . S
C160 C165 1.479 . S
C160 C170 1.465 . S
C161 C160 1.264 . S
C161 C163 1.339 . S
C161 H188 0.931 . S
C162 C163 1.395 . S
C162 C164 1.320 . S
C163 C161 1.339 . S
C163 C162 1.395 . S
C163 H189 0.929 . S
C164 C162 1.320 . S
C164 C165 1.405 . S
C164 H190 0.930 . S
C165 C160 1.479 . S
C165 C164 1.405 . S
C165 H191 0.931 . S
U166 O167 2.454 . S
U166 O168 2.458 . S
U166 C169 2.984 . S
U166 C170 2.847 . S
U166 C183 2.882 . S
U166 O184 2.441 . S
U166 O185 2.420 . S
U166 O186 2.455 . S
U166 O187 2.449 . S
O167 U166 2.454 . S
O167 C169 1.353 . S
O168 U166 2.458 . S
O168 C169 1.286 . S
C169 U166 2.984 . S
C169 O167 1.353 . S
C169 O168 1.286 . S
C169 C171 1.363 . S
C170 C160 1.465 . S
C170 U166 2.847 . S
C170 O184 1.249 . S
C170 O185 1.202 . S
C171 C169 1.363 . S
C171 C173 1.408 . S
C171 C176 1.342 . S
C172 C173 1.310 . S
C172 C175 1.461 . S
C172 H192 0.932 . S
C173 C171 1.408 . S
C173 C172 1.310 . S
C173 H193 0.930 . S
C174 C175 1.474 . S
C174 C176 1.285 . S
C174 H194 0.929 . S
C175 C172 1.461 . S
C175 C174 1.474 . S
C176 C171 1.342 . S
C176 C174 1.285 . S
C176 H195 0.930 . S
C177 C180 1.424 . S
C177 C182 1.245 . S
C177 C183 1.428 . S
C178 C181 1.260 . S
C178 C182 1.477 . S
C178 H196 0.932 . S
C179 C180 1.384 . S
C179 C181 1.479 . S
C179 H197 0.929 . S
C180 C177 1.424 . S
C180 C179 1.384 . S
C180 H198 0.928 . S
C181 C178 1.260 . S
C181 C179 1.479 . S
C182 C177 1.245 . S
C182 C178 1.477 . S
C182 H199 0.932 . S
C183 U166 2.882 . S
C183 C177 1.428 . S
C183 O186 1.301 . S
C183 O187 1.282 . S
O184 U166 2.441 . S
O184 C170 1.249 . S
O185 U166 2.420 . S
O185 C170 1.202 . S
O186 U166 2.455 . S
O186 C183 1.301 . S
O187 U166 2.449 . S
O187 C183 1.282 . S
H188 C161 0.931 . S
H189 C163 0.929 . S
H190 C164 0.930 . S
H191 C165 0.931 . S
H192 C172 0.932 . S
H193 C173 0.930 . S
H194 C174 0.929 . S
H195 C176 0.930 . S
H196 C178 0.932 . S
H197 C179 0.929 . S
H198 C180 0.928 . S
H199 C182 0.932 . S
C200 C201 1.264 . S
C200 C205 1.479 . S
C200 C210 1.465 . S
C201 C200 1.264 . S
C201 C203 1.339 . S
C201 H228 0.931 . S
C202 C203 1.395 . S
C202 C204 1.320 . S
C203 C201 1.339 . S
C203 C202 1.395 . S
C203 H229 0.929 . S
C204 C202 1.320 . S
C204 C205 1.405 . S
C204 H230 0.930 . S
C205 C200 1.479 . S
C205 C204 1.405 . S
C205 H231 0.931 . S
U206 O207 2.454 . S
U206 O208 2.458 . S
U206 C209 2.984 . S
U206 C210 2.847 1_455 S
U206 C223 2.882 . S
U206 O224 2.441 . S
U206 O225 2.420 1_455 S
U206 O226 2.455 . S
U206 O227 2.449 . S
O207 U206 2.454 . S
O207 C209 1.353 . S
O208 U206 2.458 . S
O208 C209 1.286 . S
C209 U206 2.984 . S
C209 O207 1.353 . S
C209 O208 1.286 . S
C209 C211 1.363 . S
C210 C200 1.465 . S
C210 U206 2.847 1_655 S
C210 O224 1.249 1_655 S
C210 O225 1.202 . S
C211 C209 1.363 . S
C211 C213 1.408 . S
C211 C216 1.342 . S
C212 C213 1.310 . S
C212 C215 1.461 . S
C212 H232 0.932 . S
C213 C211 1.408 . S
C213 C212 1.310 . S
C213 H233 0.930 . S
C214 C215 1.474 . S
C214 C216 1.285 . S
C214 H234 0.929 . S
C215 C212 1.461 . S
C215 C214 1.474 . S
C216 C211 1.342 . S
C216 C214 1.285 . S
C216 H235 0.930 . S
C217 C220 1.424 . S
C217 C222 1.245 . S
C217 C223 1.428 . S
C218 C221 1.260 . S
C218 C222 1.477 1_554 S
C218 H236 0.932 . S
C219 C220 1.384 . S
C219 C221 1.479 1_556 S
C219 H237 0.929 1_456 S
C220 C217 1.424 . S
C220 C219 1.384 . S
C220 H238 0.928 1_455 S
C221 C218 1.260 . S
C221 C219 1.479 1_554 S
C222 C217 1.245 . S
C222 C218 1.477 1_556 S
C222 H239 0.932 . S
C223 U206 2.882 . S
C223 C217 1.428 . S
C223 O226 1.301 . S
C223 O227 1.282 . S
O224 U206 2.441 . S
O224 C210 1.249 1_455 S
O225 U206 2.420 1_655 S
O225 C210 1.202 . S
O226 U206 2.455 . S
O226 C223 1.301 . S
O227 U206 2.449 . S
O227 C223 1.282 . S
H228 C201 0.931 . S
H229 C203 0.929 . S
H230 C204 0.930 . S
H231 C205 0.931 . S
H232 C212 0.932 . S
H233 C213 0.930 . S
H234 C214 0.929 . S
H235 C216 0.930 . S
H236 C218 0.932 . S
H237 C219 0.929 1_654 S
H238 C220 0.928 1_655 S
H239 C222 0.932 . S
C240 C241 1.264 . S
C240 C245 1.479 . S
C240 C250 1.465 . S
C241 C240 1.264 . S
C241 C243 1.339 . S
C241 H268 0.931 . S
C242 C243 1.395 . S
C242 C244 1.320 . S
C243 C241 1.339 . S
C243 C242 1.395 . S
C243 H269 0.929 . S
C244 C242 1.320 . S
C244 C245 1.405 . S
C244 H270 0.930 . S
C245 C240 1.479 . S
C245 C244 1.405 . S
C245 H271 0.931 . S
U246 O247 2.454 1_655 S
U246 O248 2.458 1_655 S
U246 C249 2.984 1_655 S
U246 C250 2.847 . S
U246 C263 2.882 . S
U246 O264 2.441 . S
U246 O265 2.420 . S
U246 O266 2.455 1_655 S
U246 O267 2.449 . S
O247 U246 2.454 1_455 S
O247 C249 1.353 . S
O248 U246 2.458 1_455 S
O248 C249 1.286 . S
C249 U246 2.984 1_455 S
C249 O247 1.353 . S
C249 O248 1.286 . S
C249 C251 1.363 . S
C250 C240 1.465 . S
C250 U246 2.847 . S
C250 O264 1.249 . S
C250 O265 1.202 . S
C251 C249 1.363 . S
C251 C253 1.408 . S
C251 C256 1.342 . S
C252 C253 1.310 . S
C252 C255 1.461 . S
C252 H272 0.932 . S
C253 C251 1.408 . S
C253 C252 1.310 . S
C253 H273 0.930 . S
C254 C255 1.474 . S
C254 C256 1.285 . S
C254 H274 0.929 . S
C255 C252 1.461 . S
C255 C254 1.474 . S
C256 C251 1.342 . S
C256 C254 1.285 . S
C256 H275 0.930 . S
C257 C260 1.424 . S
C257 C262 1.245 1_655 S
C257 C263 1.428 . S
C258 C261 1.260 1_455 S
C258 C262 1.477 . S
C258 H276 0.932 . S
C259 C260 1.384 . S
C259 C261 1.479 . S
C259 H277 0.929 . S
C260 C257 1.424 . S
C260 C259 1.384 . S
C260 H278 0.928 . S
C261 C258 1.260 1_655 S
C261 C259 1.479 . S
C262 C257 1.245 1_455 S
C262 C258 1.477 . S
C262 H279 0.932 . S
C263 U246 2.882 . S
C263 C257 1.428 . S
C263 O266 1.301 1_655 S
C263 O267 1.282 . S
O264 U246 2.441 . S
O264 C250 1.249 . S
O265 U246 2.420 . S
O265 C250 1.202 . S
O266 U246 2.455 1_455 S
O266 C263 1.301 1_455 S
O267 U246 2.449 . S
O267 C263 1.282 . S
H268 C241 0.931 . S
H269 C243 0.929 . S
H270 C244 0.930 . S
H271 C245 0.931 . S
H272 C252 0.932 . S
H273 C253 0.930 . S
H274 C254 0.929 . S
H275 C256 0.930 . S
H276 C258 0.932 . S
H277 C259 0.929 . S
H278 C260 0.928 . S
H279 C262 0.932 . S
C280 C281 1.264 . S
C280 C285 1.479 . S
C280 C290 1.465 . S
C281 C280 1.264 . S
C281 C283 1.339 . S
C281 H308 0.931 . S
C282 C283 1.395 . S
C282 C284 1.320 . S
C283 C281 1.339 . S
C283 C282 1.395 . S
C283 H309 0.929 . S
C284 C282 1.320 . S
C284 C285 1.405 . S
C284 H310 0.930 . S
C285 C280 1.479 . S
C285 C284 1.405 . S
C285 H311 0.931 . S
U286 O287 2.454 1_565 S
U286 O288 2.458 1_565 S
U286 C289 2.984 1_565 S
U286 C290 2.847 . S
U286 C303 2.882 . S
U286 O304 2.441 . S
U286 O305 2.420 . S
U286 O306 2.455 1_565 S
U286 O307 2.449 . S
O287 U286 2.454 1_545 S
O287 C289 1.353 . S
O288 U286 2.458 1_545 S
O288 C289 1.286 . S
C289 U286 2.984 1_545 S
C289 O287 1.353 . S
C289 O288 1.286 . S
C289 C291 1.363 . S
C290 C280 1.465 . S
C290 U286 2.847 . S
C290 O304 1.249 . S
C290 O305 1.202 . S
C291 C289 1.363 . S
C291 C293 1.408 . S
C291 C296 1.342 . S
C292 C293 1.310 . S
C292 C295 1.461 . S
C292 H312 0.932 . S
C293 C291 1.408 . S
C293 C292 1.310 . S
C293 H313 0.930 . S
C294 C295 1.474 . S
C294 C296 1.285 . S
C294 H314 0.929 . S
C295 C292 1.461 . S
C295 C294 1.474 . S
C296 C291 1.342 . S
C296 C294 1.285 . S
C296 H315 0.930 . S
C297 C300 1.424 . S
C297 C302 1.245 1_565 S
C297 C303 1.428 . S
C298 C301 1.260 1_545 S
C298 C302 1.477 . S
C298 H316 0.932 . S
C299 C300 1.384 . S
C299 C301 1.479 . S
C299 H317 0.929 . S
C300 C297 1.424 . S
C300 C299 1.384 . S
C300 H318 0.928 . S
C301 C298 1.260 1_565 S
C301 C299 1.479 . S
C302 C297 1.245 1_545 S
C302 C298 1.477 . S
C302 H319 0.932 . S
C303 U286 2.882 . S
C303 C297 1.428 . S
C303 O306 1.301 1_565 S
C303 O307 1.282 . S
O304 U286 2.441 . S
O304 C290 1.249 . S
O305 U286 2.420 . S
O305 C290 1.202 . S
O306 U286 2.455 1_545 S
O306 C303 1.301 1_545 S
O307 U286 2.449 . S
O307 C303 1.282 . S
H308 C281 0.931 . S
H309 C283 0.929 . S
H310 C284 0.930 . S
H311 C285 0.931 . S
H312 C292 0.932 . S
H313 C293 0.930 . S
H314 C294 0.929 . S
H315 C296 0.930 . S
H316 C298 0.932 . S
H317 C299 0.929 . S
H318 C300 0.928 . S
H319 C302 0.932 . S
C320 C321 1.264 . S
C320 C325 1.479 . S
C320 C330 1.465 . S
C321 C320 1.264 . S
C321 C323 1.339 . S
C321 H348 0.931 . S
C322 C323 1.395 . S
C322 C324 1.320 . S
C323 C321 1.339 . S
C323 C322 1.395 . S
C323 H349 0.929 . S
C324 C322 1.320 . S
C324 C325 1.405 . S
C324 H350 0.930 . S
C325 C320 1.479 . S
C325 C324 1.405 . S
C325 H351 0.931 . S
U326 O327 2.454 . S
U326 O328 2.458 . S
U326 C329 2.984 . S
U326 C330 2.847 . S
U326 C343 2.882 . S
U326 O344 2.441 . S
U326 O345 2.420 . S
U326 O346 2.455 . S
U326 O347 2.449 . S
O327 U326 2.454 . S
O327 C329 1.353 . S
O328 U326 2.458 . S
O328 C329 1.286 . S
C329 U326 2.984 . S
C329 O327 1.353 . S
C329 O328 1.286 . S
C329 C331 1.363 . S
C330 C320 1.465 . S
C330 U326 2.847 . S
C330 O344 1.249 . S
C330 O345 1.202 . S
C331 C329 1.363 . S
C331 C333 1.408 . S
C331 C336 1.342 . S
C332 C333 1.310 . S
C332 C335 1.461 . S
C332 H352 0.932 . S
C333 C331 1.408 . S
C333 C332 1.310 . S
C333 H353 0.930 . S
C334 C335 1.474 . S
C334 C336 1.285 . S
C334 H354 0.929 . S
C335 C332 1.461 . S
C335 C334 1.474 . S
C336 C331 1.342 . S
C336 C334 1.285 . S
C336 H355 0.930 . S
C337 C340 1.424 1_554 S
C337 C342 1.245 1_554 S
C337 C343 1.428 . S
C338 C341 1.260 . S
C338 C342 1.477 . S
C338 H356 0.932 . S
C339 C340 1.384 . S
C339 C341 1.479 . S
C339 H357 0.929 . S
C340 C337 1.424 1_556 S
C340 C339 1.384 . S
C340 H358 0.928 1_556 S
C341 C338 1.260 . S
C341 C339 1.479 . S
C342 C337 1.245 1_556 S
C342 C338 1.477 . S
C342 H359 0.932 1_556 S
C343 U326 2.882 . S
C343 C337 1.428 . S
C343 O346 1.301 . S
C343 O347 1.282 . S
O344 U326 2.441 . S
O344 C330 1.249 . S
O345 U326 2.420 . S
O345 C330 1.202 . S
O346 U326 2.455 . S
O346 C343 1.301 . S
O347 U326 2.449 . S
O347 C343 1.282 . S
H348 C321 0.931 . S
H349 C323 0.929 . S
H350 C324 0.930 . S
H351 C325 0.931 . S
H352 C332 0.932 . S
H353 C333 0.930 . S
H354 C334 0.929 . S
H355 C336 0.930 . S
H356 C338 0.932 . S
H357 C339 0.929 . S
H358 C340 0.928 1_554 S
H359 C342 0.932 1_554 S
C360 C361 1.387 . S
C360 H364 0.950 . S
C360 C369 1.390 . S
C361 C360 1.387 . S
C361 C363 1.387 . S
H362 C369 0.950 . S
C363 C361 1.387 . S
C363 C365 1.390 . S
C363 H367 0.950 . S
H364 C360 0.950 . S
C365 C363 1.390 . S
C365 C366 1.387 . S
C365 H368 0.950 . S
C366 C365 1.387 . S
C366 C369 1.387 . S
H367 C363 0.950 . S
H368 C365 0.950 . S
C369 C360 1.390 . S
C369 H362 0.950 . S
C369 C366 1.387 . S
C370 C371 1.387 . S
C370 H374 0.950 . S
C370 C379 1.390 . S
C371 C370 1.387 . S
C371 C373 1.387 . S
H372 C379 0.950 . S
C373 C371 1.387 . S
C373 C375 1.390 . S
C373 H377 0.950 . S
H374 C370 0.950 . S
C375 C373 1.390 . S
C375 C376 1.387 . S
C375 H378 0.950 . S
C376 C375 1.387 . S
C376 C379 1.387 . S
H377 C373 0.950 . S
H378 C375 0.950 . S
C379 C370 1.390 . S
C379 H372 0.950 . S
C379 C376 1.387 . S
C380 C381 1.387 . S
C380 H384 0.950 . S
C380 C389 1.390 . S
C381 C380 1.387 . S
C381 C383 1.387 . S
H382 C389 0.950 . S
C383 C381 1.387 . S
C383 C385 1.390 . S
C383 H387 0.950 . S
H384 C380 0.950 . S
C385 C383 1.390 . S
C385 C386 1.387 . S
C385 H388 0.950 . S
C386 C385 1.387 . S
C386 C389 1.387 . S
H387 C383 0.950 . S
H388 C385 0.950 . S
C389 C380 1.390 . S
C389 H382 0.950 . S
C389 C386 1.387 . S
C390 C391 1.387 . S
C390 H394 0.950 . S
C390 C399 1.390 . S
C391 C390 1.387 . S
C391 C393 1.387 . S
H392 C399 0.950 . S
C393 C391 1.387 . S
C393 C395 1.390 . S
C393 H397 0.950 . S
H394 C390 0.950 . S
C395 C393 1.390 . S
C395 C396 1.387 . S
C395 H398 0.950 . S
C396 C395 1.387 . S
C396 C399 1.387 . S
H397 C393 0.950 . S
H398 C395 0.950 . S
C399 C390 1.390 . S
C399 H392 0.950 . S
C399 C396 1.387 . S
C400 C401 1.387 . S
C400 H404 0.950 . S
C400 C409 1.390 . S
C401 C400 1.387 . S
C401 C403 1.387 . S
H402 C409 0.950 . S
C403 C401 1.387 . S
C403 C405 1.390 . S
C403 H407 0.950 . S
H404 C400 0.950 . S
C405 C403 1.390 . S
C405 C406 1.387 . S
C405 H408 0.950 . S
C406 C405 1.387 . S
C406 C409 1.387 . S
H407 C403 0.950 . S
H408 C405 0.950 . S
C409 C400 1.390 . S
C409 H402 0.950 . S
C409 C406 1.387 . S
C410 C411 1.387 . S
C410 H414 0.950 . S
C410 C419 1.390 . S
C411 C410 1.387 . S
C411 C413 1.387 . S
H412 C419 0.950 . S
C413 C411 1.387 . S
C413 C415 1.390 . S
C413 H417 0.950 . S
H414 C410 0.950 . S
C415 C413 1.390 . S
C415 C416 1.387 . S
C415 H418 0.950 . S
C416 C415 1.387 . S
C416 C419 1.387 . S
H417 C413 0.950 . S
H418 C415 0.950 . S
C419 C410 1.390 . S
C419 H412 0.950 . S
C419 C416 1.387 . S
C420 C421 1.387 . S
C420 H424 0.950 . S
C420 C429 1.390 . S
C421 C420 1.387 . S
C421 C423 1.387 . S
H422 C429 0.950 . S
C423 C421 1.387 . S
C423 C425 1.390 . S
C423 H427 0.950 . S
H424 C420 0.950 . S
C425 C423 1.390 . S
C425 C426 1.387 . S
C425 H428 0.950 . S
C426 C425 1.387 . S
C426 C429 1.387 . S
H427 C423 0.950 . S
H428 C425 0.950 . S
C429 C420 1.390 . S
C429 H422 0.950 . S
C429 C426 1.387 . S
C430 C431 1.387 . S
C430 H434 0.950 . S
C430 C439 1.390 . S
C431 C430 1.387 . S
C431 C433 1.387 . S
H432 C439 0.950 . S
C433 C431 1.387 . S
C433 C435 1.390 . S
C433 H437 0.950 . S
H434 C430 0.950 . S
C435 C433 1.390 . S
C435 C436 1.387 . S
C435 H438 0.950 . S
C436 C435 1.387 . S
C436 C439 1.387 . S
H437 C433 0.950 . S
H438 C435 0.950 . S
C439 C430 1.390 . S
C439 H432 0.950 . S
C439 C436 1.387 . S
C440 C441 1.387 . S
C440 H444 0.950 . S
C440 C449 1.390 . S
C441 C440 1.387 . S
C441 C443 1.387 . S
H442 C449 0.950 . S
C443 C441 1.387 . S
C443 C445 1.390 . S
C443 H447 0.950 . S
H444 C440 0.950 . S
C445 C443 1.390 . S
C445 C446 1.387 . S
C445 H448 0.950 . S
C446 C445 1.387 . S
C446 C449 1.387 . S
H447 C443 0.950 . S
H448 C445 0.950 . S
C449 C440 1.390 . S
C449 H442 0.950 . S
C449 C446 1.387 . S
C450 C451 1.387 . S
C450 H454 0.950 . S
C450 C459 1.390 . S
C451 C450 1.387 . S
C451 C453 1.387 . S
H452 C459 0.950 . S
C453 C451 1.387 . S
C453 C455 1.390 . S
C453 H457 0.950 . S
H454 C450 0.950 . S
C455 C453 1.390 . S
C455 C456 1.387 . S
C455 H458 0.950 . S
C456 C455 1.387 . S
C456 C459 1.387 . S
H457 C453 0.950 . S
H458 C455 0.950 . S
C459 C450 1.390 . S
C459 H452 0.950 . S
C459 C456 1.387 . S
C460 C461 1.387 . S
C460 H464 0.950 . S
C460 C469 1.390 . S
C461 C460 1.387 . S
C461 C463 1.387 . S
H462 C469 0.950 . S
C463 C461 1.387 . S
C463 C465 1.390 . S
C463 H467 0.950 . S
H464 C460 0.950 . S
C465 C463 1.390 . S
C465 C466 1.387 . S
C465 H468 0.950 . S
C466 C465 1.387 . S
C466 C469 1.387 . S
H467 C463 0.950 . S
H468 C465 0.950 . S
C469 C460 1.390 . S
C469 H462 0.950 . S
C469 C466 1.387 . S
C470 C471 1.387 . S
C470 H474 0.950 . S
C470 C479 1.390 . S
C471 C470 1.387 . S
C471 C473 1.387 . S
H472 C479 0.950 . S
C473 C471 1.387 . S
C473 C475 1.390 . S
C473 H477 0.950 . S
H474 C470 0.950 . S
C475 C473 1.390 . S
C475 C476 1.387 . S
C475 H478 0.950 . S
C476 C475 1.387 . S
C476 C479 1.387 . S
H477 C473 0.950 . S
H478 C475 0.950 . S
C479 C470 1.390 . S
C479 H472 0.950 . S
C479 C476 1.387 . S
C480 C481 1.387 . S
C480 H484 0.950 . S
C480 C489 1.390 . S
C481 C480 1.387 . S
C481 C483 1.387 . S
H482 C489 0.950 . S
C483 C481 1.387 . S
C483 C485 1.390 . S
C483 H487 0.950 1_455 S
H484 C480 0.950 . S
C485 C483 1.390 . S
C485 C486 1.387 . S
C485 H488 0.950 1_455 S
C486 C485 1.387 . S
C486 C489 1.387 . S
H487 C483 0.950 1_655 S
H488 C485 0.950 1_655 S
C489 C480 1.390 . S
C489 H482 0.950 . S
C489 C486 1.387 . S
C490 C491 1.387 . S
C490 H494 0.950 . S
C490 C499 1.390 . S
C491 C490 1.387 . S
C491 C493 1.387 . S
H492 C499 0.950 . S
C493 C491 1.387 . S
C493 C495 1.390 . S
C493 H497 0.950 1_545 S
H494 C490 0.950 . S
C495 C493 1.390 . S
C495 C496 1.387 . S
C495 H498 0.950 1_545 S
C496 C495 1.387 . S
C496 C499 1.387 . S
H497 C493 0.950 1_565 S
H498 C495 0.950 1_565 S
C499 C490 1.390 . S
C499 H492 0.950 . S
C499 C496 1.387 . S
C500 C501 1.387 . S
C500 H504 0.950 . S
C500 C509 1.390 . S
C501 C500 1.387 . S
C501 C503 1.387 . S
H502 C509 0.950 . S
C503 C501 1.387 . S
C503 C505 1.390 . S
C503 H507 0.950 . S
H504 C500 0.950 . S
C505 C503 1.390 . S
C505 C506 1.387 . S
C505 H508 0.950 . S
C506 C505 1.387 . S
C506 C509 1.387 . S
H507 C503 0.950 . S
H508 C505 0.950 . S
C509 C500 1.390 . S
C509 H502 0.950 . S
C509 C506 1.387 . S
C510 C511 1.387 . S
C510 H514 0.950 . S
C510 C519 1.390 . S
C511 C510 1.387 . S
C511 C513 1.387 1_545 S
H512 C519 0.950 . S
C513 C511 1.387 1_565 S
C513 C515 1.390 . S
C513 H517 0.950 . S
H514 C510 0.950 . S
C515 C513 1.390 . S
C515 C516 1.387 . S
C515 H518 0.950 . S
C516 C515 1.387 . S
C516 C519 1.387 1_565 S
H517 C513 0.950 . S
H518 C515 0.950 . S
C519 C510 1.390 . S
C519 H512 0.950 . S
C519 C516 1.387 1_545 S
C520 C521 1.387 . S
C520 H524 0.950 . S
C520 C529 1.390 . S
C521 C520 1.387 . S
C521 C523 1.387 . S
H522 C529 0.950 . S
C523 C521 1.387 . S
C523 C525 1.390 . S
C523 H527 0.950 . S
H524 C520 0.950 . S
C525 C523 1.390 . S
C525 C526 1.387 . S
C525 H528 0.950 . S
C526 C525 1.387 . S
C526 C529 1.387 . S
H527 C523 0.950 . S
H528 C525 0.950 . S
C529 C520 1.390 . S
C529 H522 0.950 . S
C529 C526 1.387 . S
C530 C531 1.387 . S
C530 H534 0.950 . S
C530 C539 1.390 . S
C531 C530 1.387 . S
C531 C533 1.387 1_455 S
H532 C539 0.950 . S
C533 C531 1.387 1_655 S
C533 C535 1.390 . S
C533 H537 0.950 . S
H534 C530 0.950 . S
C535 C533 1.390 . S
C535 C536 1.387 . S
C535 H538 0.950 . S
C536 C535 1.387 . S
C536 C539 1.387 1_655 S
H537 C533 0.950 . S
H538 C535 0.950 . S
C539 C530 1.390 . S
C539 H532 0.950 . S
C539 C536 1.387 1_455 S
C361 C25 0.642 . S
C366 C335 0.638 . S
C371 C65 0.600 . S
C376 C242 0.462 . S
C381 C105 0.702 . S
C386 C282 0.655 . S
C391 C4 0.692 . S
C396 C322 0.639 . S
C406 C255 0.542 . S
C401 C44 0.562 . S
C416 C295 0.657 . S
C411 C84 0.659 . S
C421 C60 3.063 . S
C426 C162 3.017 . S
C431 C100 3.252 . S
C436 C202 3.190 . S
C441 C31 3.311 . S
C446 C135 3.190 . S
C456 C175 3.192 . S
C451 C71 3.304 . S
C466 C215 3.029 . S
C461 C111 3.114 . S
C471 C20 3.065 . S
C476 C122 3.020 . S
C486 C221 1.795 . S
C481 C2 1.746 . S
C491 C42 1.779 . S
C496 C141 1.805 . S
C501 C82 1.771 . S
C506 C181 1.810 . S
C516 C301 1.126 . S
C511 C63 1.130 . S
C526 C341 1.166 . S
C521 C103 1.165 . S
C531 C23 1.087 . S
C536 C261 1.087 . S
