# Generated by pormake.
# Topology rtl, (3,6)-cn, num edge types: 1
# Building blocks:
#     Node 0, Type 0, BuildingBlock: WUSLED_clean_sbu_0, # of connection points: 3
#     Node 1, Type 0, BuildingBlock: WUSLED_clean_sbu_0, # of connection points: 3
#     Node 2, Type 0, BuildingBlock: WUSLED_clean_sbu_0, # of connection points: 3
#     Node 3, Type 0, BuildingBlock: WUSLED_clean_sbu_0, # of connection points: 3
#     Node 4, Type 1, BuildingBlock: FUNLAD_clean_sbu_0, # of connection points: 6
#     Node 5, Type 1, BuildingBlock: FUNLAD_clean_sbu_0, # of connection points: 6
#     Edge 6, Type (0, 1), BuildingBlock: KIFKEQ_clean_linker_1, # of connection points: 2
#     Edge 7, Type (0, 1), BuildingBlock: KIFKEQ_clean_linker_1, # of connection points: 2
#     Edge 8, Type (0, 1), BuildingBlock: KIFKEQ_clean_linker_1, # of connection points: 2
#     Edge 9, Type (0, 1), BuildingBlock: KIFKEQ_clean_linker_1, # of connection points: 2
#     Edge 10, Type (0, 1), BuildingBlock: KIFKEQ_clean_linker_1, # of connection points: 2
#     Edge 11, Type (0, 1), BuildingBlock: KIFKEQ_clean_linker_1, # of connection points: 2
#     Edge 12, Type (0, 1), BuildingBlock: KIFKEQ_clean_linker_1, # of connection points: 2
#     Edge 13, Type (0, 1), BuildingBlock: KIFKEQ_clean_linker_1, # of connection points: 2
#     Edge 14, Type (0, 1), BuildingBlock: KIFKEQ_clean_linker_1, # of connection points: 2
#     Edge 15, Type (0, 1), BuildingBlock: KIFKEQ_clean_linker_1, # of connection points: 2
#     Edge 16, Type (0, 1), BuildingBlock: KIFKEQ_clean_linker_1, # of connection points: 2
#     Edge 17, Type (0, 1), BuildingBlock: KIFKEQ_clean_linker_1, # of connection points: 2
# Relax obj value: 0.025
# Max RMSD: 0.086
# Mean RMSD: 0.073
data_MOF--net-rtl--node1-WUSLED_clean_sbu_0--node2-FUNLAD_clean_sbu_0--edge1-KIFKEQ_clean_linker_1
_symmetry_space_group_name_H-M    P1
_symmetry_Int_Tables_number       1
_symmetry_cell_setting            triclinic
loop_
_symmetry_equiv_pos_as_xyz
'x, y, z'
_cell_length_a     52.262504
_cell_length_b     43.327838
_cell_length_c     30.374982
_cell_angle_alpha  90.308199
_cell_angle_beta   91.154541
_cell_angle_gamma 90.432295
loop_
_atom_site_label
_atom_site_type_symbol
_atom_site_fract_x
_atom_site_fract_y
_atom_site_fract_z
_atom_type_partial_charge
C0 C 0.16044 0.82762 0.14403 0.0
C1 C 0.14045 0.84803 0.13413 0.0
C2 C 0.13325 0.85604 0.21237 0.0
C3 C 0.12697 0.86212 0.16799 0.0
C4 C 0.15317 0.83528 0.222 0.0
C5 C 0.16664 0.8212 0.18807 0.0
U6 U 0.1716 0.81637 0.02237 0.0
O7 O 0.20701 0.81526 0.98468 0.0
O8 O 0.18143 0.77479 0.98433 0.0
C9 C 0.20375 0.78617 0.97311 0.0
C10 C 0.17503 0.81336 0.10853 0.0
C11 C 0.22589 0.76586 0.98052 0.0
C12 C 0.26421 0.75135 0.022 0.0
C13 C 0.24281 0.77029 0.01658 0.0
C14 C 0.25166 0.72281 0.95614 0.0
C15 C 0.26892 0.72746 0.99173 0.0
C16 C 0.2304 0.74189 0.95056 0.0
C17 C 0.12675 0.85924 0.94223 0.0
C18 C 0.13087 0.85839 0.86269 0.0
C19 C 0.09694 0.88771 0.89597 0.0
C20 C 0.10548 0.87848 0.93767 0.0
C21 C 0.10952 0.87782 0.85792 0.0
C22 C 0.13941 0.84913 0.90456 0.0
C23 C 0.13554 0.85049 0.98661 0.0
O24 O 0.16227 0.79304 0.08426 0.0
O25 O 0.1886 0.8327 0.08516 0.0
O26 O 0.15808 0.86144 0.99902 0.0
O27 O 0.1321 0.82139 0.99712 0.0
H28 H 0.13545 0.85328 0.10021 0.0
H29 H 0.112 0.87827 0.15938 0.0
H30 H 0.15828 0.82978 0.25577 0.0
H31 H 0.18197 0.80541 0.19624 0.0
H32 H 0.27699 0.75527 0.05002 0.0
H33 H 0.23958 0.78849 0.04037 0.0
H34 H 0.25489 0.70481 0.93204 0.0
H35 H 0.21757 0.73811 0.92255 0.0
H36 H 0.14085 0.85015 0.83407 0.0
H37 H 0.08073 0.90309 0.89362 0.0
H38 H 0.09558 0.8866 0.96646 0.0
H39 H 0.15589 0.83421 0.9076 0.0
C40 C 0.66019 0.69839 0.65042 0.0
C41 C 0.63992 0.67778 0.64135 0.0
C42 C 0.63368 0.67041 0.71988 0.0
C43 C 0.62678 0.66391 0.67575 0.0
C44 C 0.65391 0.69134 0.72871 0.0
C45 C 0.66705 0.7052 0.69423 0.0
U46 U 0.66946 0.70834 0.5283 0.0
O47 O 0.6792 0.74936 0.48928 0.0
O48 O 0.70417 0.70883 0.48876 0.0
C49 C 0.70106 0.7377 0.47679 0.0
C50 C 0.6744 0.71238 0.61426 0.0
C51 C 0.72363 0.75791 0.48269 0.0
C52 C 0.76069 0.77573 0.5256 0.0
C53 C 0.73872 0.75717 0.52141 0.0
C54 C 0.7523 0.79652 0.45288 0.0
C55 C 0.76786 0.79549 0.49122 0.0
C56 C 0.73044 0.77786 0.44868 0.0
C57 C 0.62318 0.66458 0.45045 0.0
C58 C 0.62641 0.66536 0.37078 0.0
C59 C 0.59332 0.63476 0.4049 0.0
C60 C 0.60217 0.64448 0.44642 0.0
C61 C 0.60535 0.64501 0.36654 0.0
C62 C 0.63526 0.67508 0.41246 0.0
C63 C 0.63246 0.67375 0.49457 0.0
O64 O 0.68738 0.69282 0.59035 0.0
O65 O 0.6615 0.73242 0.59046 0.0
O66 O 0.62953 0.70298 0.50499 0.0
O67 O 0.655 0.66294 0.50628 0.0
H68 H 0.63443 0.67221 0.60762 0.0
H69 H 0.61157 0.6476 0.66773 0.0
H70 H 0.65951 0.69714 0.76228 0.0
H71 H 0.68262 0.72114 0.70176 0.0
H72 H 0.77232 0.7741 0.55538 0.0
H73 H 0.73371 0.74195 0.54814 0.0
H74 H 0.75693 0.81185 0.42611 0.0
H75 H 0.71891 0.77887 0.41867 0.0
H76 H 0.63595 0.67391 0.34192 0.0
H77 H 0.57735 0.6187 0.40292 0.0
H78 H 0.59273 0.63604 0.47548 0.0
H79 H 0.65154 0.69066 0.41508 0.0
C80 C 0.87865 0.19473 0.13775 0.0
C81 C 0.89828 0.17399 0.12815 0.0
C82 C 0.90627 0.16572 0.20653 0.0
C83 C 0.91198 0.15961 0.16224 0.0
C84 C 0.88677 0.18689 0.21584 0.0
C85 C 0.87309 0.20124 0.18172 0.0
U86 U 0.86477 0.20759 0.0159 0.0
O87 O 0.82826 0.20928 0.97891 0.0
O88 O 0.85373 0.24985 0.98039 0.0
C89 C 0.83109 0.23862 0.96906 0.0
C90 C 0.86358 0.20921 0.10223 0.0
C91 C 0.80912 0.25875 0.978 0.0
C92 C 0.77053 0.27075 0.018 0.0
C93 C 0.79172 0.25186 0.01131 0.0
C94 C 0.78421 0.30412 0.9591 0.0
C95 C 0.76649 0.29703 0.99185 0.0
C96 C 0.80526 0.2851 0.95218 0.0
C97 C 0.9074 0.16647 0.93156 0.0
C98 C 0.90157 0.13654 0.86391 0.0
C99 C 0.93956 0.16818 0.8747 0.0
C100 C 0.93079 0.17758 0.91581 0.0
C101 C 0.92526 0.14717 0.84849 0.0
C102 C 0.89275 0.14605 0.90495 0.0
C103 C 0.89967 0.1745 0.97687 0.0
O104 O 0.8759 0.22976 0.07886 0.0
O105 O 0.84956 0.1901 0.07801 0.0
O106 O 0.87778 0.16304 0.99016 0.0
O107 O 0.90355 0.20327 0.98949 0.0
H108 H 0.90277 0.16867 0.09428 0.0
H109 H 0.92665 0.14318 0.15389 0.0
H110 H 0.88212 0.19245 0.24953 0.0
H111 H 0.85805 0.21729 0.18967 0.0
H112 H 0.75737 0.2649 0.04382 0.0
H113 H 0.7944 0.23181 0.03199 0.0
H114 H 0.78151 0.32403 0.93814 0.0
H115 H 0.81844 0.29081 0.92632 0.0
H116 H 0.8902 0.12002 0.84494 0.0
H117 H 0.9577 0.1772 0.86364 0.0
H118 H 0.94258 0.19317 0.93568 0.0
H119 H 0.87473 0.13678 0.91616 0.0
C120 C 0.3765 0.32481 0.37792 0.0
C121 C 0.40317 0.32221 0.37384 0.0
C122 C 0.40185 0.35427 0.30824 0.0
C123 C 0.41569 0.33666 0.33916 0.0
C124 C 0.37517 0.35647 0.31204 0.0
C125 C 0.36262 0.34176 0.3464 0.0
U126 U 0.36824 0.31602 0.50135 0.0
O127 O 0.33339 0.31673 0.54081 0.0
O128 O 0.35819 0.27605 0.54198 0.0
C129 C 0.33636 0.28811 0.55395 0.0
C130 C 0.36293 0.31129 0.41557 0.0
C131 C 0.31364 0.26809 0.54873 0.0
C132 C 0.2873 0.23193 0.50595 0.0
C133 C 0.30903 0.25091 0.51004 0.0
C134 C 0.27439 0.24754 0.57887 0.0
C135 C 0.26972 0.22994 0.5404 0.0
C136 C 0.29615 0.26636 0.58297 0.0
C137 C 0.41478 0.36105 0.57747 0.0
C138 C 0.41538 0.35734 0.65731 0.0
C139 C 0.4399 0.39743 0.62164 0.0
C140 C 0.43145 0.38644 0.58054 0.0
C141 C 0.43183 0.38317 0.66053 0.0
C142 C 0.40681 0.34644 0.61604 0.0
C143 C 0.40542 0.35091 0.5338 0.0
O144 O 0.37561 0.29112 0.43961 0.0
O145 O 0.35004 0.33108 0.43923 0.0
O146 O 0.38296 0.3617 0.52168 0.0
O147 O 0.4082 0.32147 0.52445 0.0
H148 H 0.41445 0.30947 0.39777 0.0
H149 H 0.43629 0.33479 0.33726 0.0
H150 H 0.36398 0.36962 0.28843 0.0
H151 H 0.34206 0.34405 0.34879 0.0
H152 H 0.28449 0.21849 0.47606 0.0
H153 H 0.32229 0.25207 0.48311 0.0
H154 H 0.26108 0.24706 0.60572 0.0
H155 H 0.2993 0.27966 0.61293 0.0
H156 H 0.40867 0.34605 0.68668 0.0
H157 H 0.45283 0.41708 0.62298 0.0
H158 H 0.43778 0.39796 0.55107 0.0
H159 H 0.39379 0.32687 0.61422 0.0
C160 C 0.04257 0.9754 0.44933 0.0
N161 N 0.068 0.0557 0.51528 0.0
C162 C 0.09159 0.04265 0.51476 0.0
C163 C 0.11362 0.06108 0.51616 0.0
C164 C 0.11149 0.09336 0.51843 0.0
C165 C 0.08686 0.10622 0.51871 0.0
C166 C 0.06529 0.0869 0.51704 0.0
Zn167 Zn 0.03643 0.02727 0.51398 0.0
C168 C 0.99698 0.04641 0.44807 0.0
N169 N 0.9716 0.96621 0.51146 0.0
C170 C 0.97449 0.93504 0.51257 0.0
C171 C 0.94794 0.97909 0.50973 0.0
C172 C 0.92601 0.96047 0.50891 0.0
C173 C 0.92834 0.92819 0.51007 0.0
C174 C 0.95305 0.91553 0.51197 0.0
Zn175 Zn 1.00312 0.99473 0.51258 0.0
O176 O 0.05333 0.99962 0.4649 0.0
C177 C 0.04228 0.97565 0.5788 0.0
O178 O 0.02077 0.96734 0.46343 0.0
H179 H 0.94603 1.00392 0.50885 0.0
H180 H 0.09337 0.01782 0.51334 0.0
H181 H 0.99347 0.92526 0.51404 0.0
O182 O 0.05342 0.99961 0.56423 0.0
O183 O 0.02057 0.96777 0.56263 0.0
H184 H 0.04637 0.09682 0.51747 0.0
O185 O 0.98611 0.02254 0.56193 0.0
O186 O 0.01902 0.05431 0.56324 0.0
O187 O 0.98621 0.02224 0.46264 0.0
O188 O 0.01876 0.05453 0.46384 0.0
C189 C 0.99727 0.04647 0.5777 0.0
H190 H 0.13214 0.05008 0.51513 0.0
H191 H 0.08422 0.13094 0.52099 0.0
H192 H 0.90743 0.97131 0.50674 0.0
H193 H 0.95582 0.89082 0.51349 0.0
C194 C 0.49741 0.47909 0.94491 0.0
N195 N 0.56629 0.46842 0.01724 0.0
C196 C 0.56336 0.43718 0.0157 0.0
C197 C 0.58479 0.41804 0.01517 0.0
C198 C 0.60946 0.43116 0.01587 0.0
C199 C 0.61188 0.46345 0.01788 0.0
C200 C 0.58999 0.48169 0.01868 0.0
Zn201 Zn 0.53485 0.49652 0.01595 0.0
C202 C 0.54284 0.55037 0.9556 0.0
N203 N 0.47022 0.55675 0.01209 0.0
C204 C 0.44663 0.54358 0.00666 0.0
C205 C 0.47304 0.58788 0.01648 0.0
C206 C 0.45161 0.60703 0.01546 0.0
C207 C 0.42705 0.59404 0.00955 0.0
C208 C 0.42475 0.56185 0.00516 0.0
Zn209 Zn 0.50166 0.52866 0.01367 0.0
O210 O 0.51847 0.47057 0.96252 0.0
C211 C 0.4936 0.47485 0.07392 0.0
O212 O 0.4863 0.50279 0.95997 0.0
H213 H 0.49196 0.5979 0.02066 0.0
H214 H 0.54436 0.4271 0.0144 0.0
H215 H 0.44475 0.51879 1.00352 0.0
O216 O 0.51598 0.46783 0.06183 0.0
O217 O 0.48306 0.49895 0.05849 0.0
H218 H 0.59194 0.50654 0.02014 0.0
O219 O 0.5177 0.55409 0.06745 0.0
O220 O 0.55062 0.52293 0.0692 0.0
O221 O 0.52076 0.55783 0.96873 0.0
O222 O 0.5531 0.52583 0.97013 0.0
C223 C 0.53905 0.54622 0.0846 0.0
H224 H 0.58206 0.39326 0.01321 0.0
H225 H 0.63054 0.47452 0.01905 0.0
H226 H 0.45427 0.63177 0.01855 0.0
H227 H 0.40617 0.55083 1.00114 0.0
H228 H 0.24848 0.19404 0.60425 0.0
H229 H 0.23868 0.2196 0.46767 0.0
H230 H 0.21019 0.16194 0.59873 0.0
H231 H 0.20107 0.18611 0.46151 0.0
H232 H 0.11953 0.14945 0.47905 0.0
H233 H 0.15747 0.1824 0.48451 0.0
H234 H 0.19475 0.11472 0.56719 0.0
H235 H 0.15641 0.08263 0.56371 0.0
C236 C 0.23816 0.19284 0.573 0.0
C237 C 0.24667 0.20957 0.53647 0.0
C238 C 0.21635 0.17405 0.56967 0.0
C239 C 0.2025 0.17132 0.52964 0.0
C240 C 0.21107 0.18792 0.493 0.0
C241 C 0.23286 0.20682 0.49638 0.0
C242 C 0.1357 0.14176 0.49883 0.0
C243 C 0.13482 0.11335 0.52099 0.0
C244 C 0.15762 0.16049 0.50147 0.0
C245 C 0.17924 0.15126 0.52627 0.0
C246 C 0.17838 0.12279 0.54823 0.0
C247 C 0.15646 0.10415 0.54574 0.0
H248 H 0.31803 0.74569 0.01182 0.0
H249 H 0.27192 0.66477 0.98265 0.0
H250 H 0.35617 0.7137 0.01675 0.0
H251 H 0.30991 0.63263 0.98837 0.0
H252 H 0.38605 0.5895 0.95255 0.0
H253 H 0.34803 0.62161 0.94954 0.0
H254 H 0.37752 0.67528 0.05994 0.0
H255 H 0.4158 0.64337 0.06236 0.0
C256 C 0.31601 0.72099 0.00705 0.0
C257 C 0.29198 0.70778 0.99668 0.0
C258 C 0.33787 0.70262 0.00993 0.0
C259 C 0.33621 0.67054 1.00278 0.0
C260 C 0.31204 0.6573 0.99319 0.0
C261 C 0.29023 0.6757 0.99003 0.0
C262 C 0.38434 0.60804 0.97635 0.0
C263 C 0.40394 0.61385 0.00773 0.0
C264 C 0.36249 0.62643 0.97473 0.0
C265 C 0.35958 0.65102 1.00461 0.0
C266 C 0.37924 0.65685 0.03599 0.0
C267 C 0.40119 0.63854 0.03743 0.0
H268 H 0.80251 0.80777 0.427 0.0
H269 H 0.78726 0.82642 0.56384 0.0
H270 H 0.84093 0.83968 0.43236 0.0
H271 H 0.82648 0.85708 0.56981 0.0
H272 H 0.8827 0.93736 0.5511 0.0
H273 H 0.84421 0.90543 0.54659 0.0
H274 H 0.88329 0.84036 0.46373 0.0
H275 H 0.92135 0.87311 0.46635 0.0
C276 C 0.80732 0.81869 0.45826 0.0
C277 C 0.79165 0.81459 0.49493 0.0
C278 C 0.8296 0.83667 0.4615 0.0
C279 C 0.83691 0.85092 0.50156 0.0
C280 C 0.82132 0.84673 0.53831 0.0
C281 C 0.79896 0.82881 0.53503 0.0
C282 C 0.88303 0.9164 0.53154 0.0
C283 C 0.90515 0.90795 0.50889 0.0
C284 C 0.86102 0.89785 0.52944 0.0
C285 C 0.86057 0.87029 0.50475 0.0
C286 C 0.8828 0.86163 0.48258 0.0
C287 C 0.90478 0.88023 0.48457 0.0
H288 H 0.76442 0.36007 0.9944 0.0
H289 H 0.71693 0.27846 1.00307 0.0
H290 H 0.72679 0.3924 1.00213 0.0
H291 H 0.67915 0.3107 0.00985 0.0
H292 H 0.6193 0.37765 0.06056 0.0
H293 H 0.65738 0.34551 0.05706 0.0
H294 H 0.68959 0.40773 0.9618 0.0
H295 H 0.6518 0.44003 0.96609 0.0
C296 C 0.74589 0.34905 0.99771 0.0
C297 C 0.74364 0.31672 0.99804 0.0
C298 C 0.72428 0.36757 1.00201 0.0
C299 C 0.69982 0.35423 0.00638 0.0
C300 C 0.69767 0.32183 0.00721 0.0
C301 C 0.71932 0.30332 1.00324 0.0
C302 C 0.6345 0.38434 0.03878 0.0
C303 C 0.63257 0.41143 0.01371 0.0
C304 C 0.65633 0.36591 0.03668 0.0
C305 C 0.67666 0.374 0.00921 0.0
C306 C 0.6746 0.40106 0.98401 0.0
C307 C 0.65288 0.41957 0.98635 0.0
H308 H 0.15351 0.88036 0.28888 0.0
H309 H 0.08187 0.86778 0.21736 0.0
H310 H 0.1313 0.90748 0.34704 0.0
H311 H 0.05977 0.896 0.27483 0.0
H312 H 0.02524 0.92264 0.40774 0.0
H313 H 0.04693 0.89248 0.35164 0.0
H314 H 0.11053 0.95675 0.35711 0.0
H315 H 0.08919 0.98647 0.41351 0.0
C316 C 0.13299 0.8832 0.28567 0.0
C317 C 0.11949 0.87189 0.24839 0.0
C318 C 0.12029 0.89909 0.31879 0.0
C319 C 0.09376 0.90409 0.3155 0.0
C320 C 0.08018 0.89236 0.27857 0.0
C321 C 0.09289 0.87648 0.24538 0.0
C322 C 0.04387 0.93029 0.397 0.0
C323 C 0.05548 0.95696 0.41517 0.0
C324 C 0.05624 0.91309 0.36469 0.0
C325 C 0.08051 0.92214 0.34995 0.0
C326 C 0.09205 0.94883 0.36817 0.0
C327 C 0.0797 0.96601 0.40035 0.0
H328 H 0.65451 0.64689 0.79594 0.0
H329 H 0.58229 0.65855 0.7265 0.0
H330 H 0.63262 0.62002 0.85474 0.0
H331 H 0.56055 0.63057 0.78447 0.0
H332 H 0.52631 0.6036 0.91621 0.0
H333 H 0.5483 0.63429 0.86118 0.0
H334 H 0.6116 0.57074 0.86553 0.0
H335 H 0.58993 0.54048 0.92101 0.0
C336 C 0.63394 0.64391 0.79333 0.0
C337 C 0.62018 0.65485 0.75642 0.0
C338 C 0.62143 0.62817 0.82682 0.0
C339 C 0.59484 0.62298 0.82425 0.0
C340 C 0.58101 0.63438 0.78771 0.0
C341 C 0.59353 0.65011 0.75421 0.0
C342 C 0.54497 0.59627 0.90557 0.0
C343 C 0.55633 0.56956 0.92301 0.0
C344 C 0.55751 0.61376 0.87384 0.0
C345 C 0.58172 0.60498 0.8589 0.0
C346 C 0.59315 0.57843 0.87671 0.0
C347 C 0.58063 0.56095 0.90837 0.0
H348 H 0.88626 0.14165 0.28157 0.0
H349 H 0.95754 0.15288 0.21365 0.0
H350 H 0.90856 0.11437 0.34058 0.0
H351 H 0.97973 0.12452 0.27206 0.0
H352 H 0.01457 0.09867 0.40747 0.0
H353 H 0.99297 0.12852 0.34987 0.0
H354 H 0.92899 0.06485 0.3514 0.0
H355 H 0.95025 0.03542 0.40923 0.0
C356 C 0.90672 0.13846 0.27932 0.0
C357 C 0.9201 0.14949 0.24284 0.0
C358 C 0.91947 0.12248 0.31293 0.0
C359 C 0.94592 0.1171 0.31096 0.0
C360 C 0.95939 0.12847 0.27477 0.0
C361 C 0.94661 0.14442 0.24106 0.0
C362 C 0.99587 0.09109 0.39554 0.0
C363 C 0.98413 0.06468 0.41304 0.0
C364 C 0.98356 0.1081 0.36237 0.0
C365 C 0.95921 0.09913 0.34611 0.0
C366 C 0.94754 0.07269 0.36362 0.0
C367 C 0.95984 0.05569 0.39664 0.0
H368 H 0.43394 0.44355 0.68613 0.0
H369 H 0.44857 0.35139 0.73339 0.0
H370 H 0.44898 0.46485 0.75638 0.0
H371 H 0.46311 0.37277 0.80447 0.0
H372 H 0.51653 0.42862 0.90204 0.0
H373 H 0.49954 0.40399 0.83491 0.0
H374 H 0.43612 0.46733 0.83333 0.0
H375 H 0.45315 0.49215 0.89985 0.0
C376 C 0.44038 0.42783 0.71158 0.0
C377 C 0.4402 0.39579 0.70411 0.0
C378 C 0.44873 0.44002 0.75203 0.0
C379 C 0.45718 0.4205 0.78607 0.0
C380 C 0.45688 0.38841 0.77877 0.0
C381 C 0.44835 0.37617 0.73826 0.0
C382 C 0.49887 0.43714 0.88753 0.0
C383 C 0.48633 0.46253 0.90612 0.0
C384 C 0.48907 0.42292 0.8492 0.0
C385 C 0.46659 0.43387 0.82861 0.0
C386 C 0.4537 0.45867 0.84798 0.0
C387 C 0.46342 0.47281 0.88626 0.0
H388 H 0.63405 0.62745 0.29622 0.0
H389 H 0.55584 0.6372 0.33725 0.0
H390 H 0.6189 0.6066 0.22554 0.0
H391 H 0.54075 0.61515 0.2675 0.0
H392 H 0.5201 0.59789 0.12417 0.0
H393 H 0.53695 0.62458 0.18952 0.0
H394 H 0.5991 0.55953 0.19803 0.0
H395 H 0.58262 0.53331 0.13213 0.0
C396 C 0.61363 0.62538 0.29005 0.0
C397 C 0.59617 0.63387 0.32252 0.0
C398 C 0.60495 0.61309 0.24972 0.0
C399 C 0.57861 0.60901 0.24089 0.0
C400 C 0.56116 0.61821 0.27297 0.0
C401 C 0.56983 0.63051 0.31323 0.0
C402 C 0.53746 0.58941 0.13981 0.0
C403 C 0.54994 0.56337 0.12303 0.0
C404 C 0.54705 0.60462 0.17742 0.0
C405 C 0.56932 0.59413 0.1992 0.0
C406 C 0.58209 0.56849 0.18182 0.0
C407 C 0.57253 0.55331 0.14415 0.0
H408 H 0.97469 0.13164 0.83071 0.0
H409 H 0.89908 0.1353 0.77076 0.0
H410 H 0.99129 0.10997 0.76308 0.0
H411 H 0.91575 0.1132 0.70309 0.0
H412 H 0.95064 0.03682 0.6149 0.0
H413 H 0.9329 0.06337 0.67823 0.0
H414 H 0.99965 0.12269 0.68601 0.0
H415 H 0.01758 0.09593 0.62301 0.0
C416 C 0.96165 0.1283 0.8029 0.0
C417 C 0.93551 0.13527 0.80629 0.0
C418 C 0.9712 0.11581 0.76409 0.0
C419 C 0.95485 0.10984 0.72767 0.0
C420 C 0.92878 0.11716 0.73076 0.0
C421 C 0.91923 0.12978 0.76957 0.0
C422 C 0.96146 0.05567 0.62989 0.0
C423 C 0.98561 0.06411 0.61402 0.0
C424 C 0.95122 0.07101 0.66606 0.0
C425 C 0.96491 0.09506 0.6873 0.0
C426 C 0.98877 0.10399 0.67075 0.0
C427 C 0.99898 0.08874 0.63448 0.0
H428 H 0.39523 0.41404 0.28331 0.0
H429 H 0.4389 0.33262 0.25385 0.0
H430 H 0.41748 0.44226 0.22637 0.0
H431 H 0.46075 0.3605 0.19572 0.0
H432 H 0.51337 0.42942 0.12659 0.0
H433 H 0.49136 0.39996 0.18278 0.0
H434 H 0.42087 0.44678 0.14951 0.0
H435 H 0.44312 0.47701 0.09475 0.0
C436 C 0.40938 0.40207 0.26418 0.0
C437 C 0.41526 0.3711 0.27292 0.0
C438 C 0.42211 0.4182 0.23138 0.0
C439 C 0.44087 0.40368 0.2061 0.0
C440 C 0.4467 0.37261 0.21487 0.0
C441 C 0.43413 0.35656 0.24807 0.0
C442 C 0.49315 0.43333 0.13124 0.0
C443 C 0.48003 0.45568 0.1064 0.0
C444 C 0.48047 0.4163 0.16332 0.0
C445 C 0.4543 0.42103 0.17099 0.0
C446 C 0.44112 0.44294 0.14531 0.0
C447 C 0.45385 0.46016 0.11363 0.0
H448 H 0.13849 0.89639 0.7884 0.0
H449 H 0.06015 0.88321 0.82744 0.0
H450 H 0.12351 0.91659 0.71766 0.0
H451 H 0.04521 0.90459 0.75775 0.0
H452 H 0.02454 0.92234 0.61565 0.0
H453 H 0.04193 0.89547 0.67973 0.0
H454 H 0.10319 0.9628 0.6905 0.0
H455 H 0.08619 0.9892 0.62578 0.0
C456 C 0.11808 0.89755 0.78177 0.0
C457 C 0.10053 0.88835 0.81373 0.0
C458 C 0.10949 0.90946 0.7414 0.0
C459 C 0.08315 0.9124 0.73204 0.0
C460 C 0.06563 0.9024 0.76358 0.0
C461 C 0.0742 0.8905 0.80384 0.0
C462 C 0.04185 0.93125 0.63144 0.0
C463 C 0.05387 0.95804 0.61573 0.0
C464 C 0.05175 0.91593 0.66835 0.0
C465 C 0.07386 0.92708 0.69053 0.0
C466 C 0.0863 0.95335 0.67399 0.0
C467 C 0.07645 0.96862 0.63699 0.0
loop_
_geom_bond_atom_site_label_1
_geom_bond_atom_site_label_2
_geom_bond_distance
_geom_bond_site_symmetry_2
_ccdc_geom_bond_type
C0 C1 1.264 . S
C0 C5 1.479 . S
C0 C10 1.465 . S
C1 C0 1.264 . S
C1 C3 1.339 . S
C1 H28 0.931 . S
C2 C3 1.395 . S
C2 C4 1.320 . S
C3 C1 1.339 . S
C3 C2 1.395 . S
C3 H29 0.929 . S
C4 C2 1.320 . S
C4 C5 1.405 . S
C4 H30 0.930 . S
C5 C0 1.479 . S
C5 C4 1.405 . S
C5 H31 0.931 . S
U6 O7 2.454 . S
U6 O8 2.458 1_554 S
U6 C9 2.984 . S
U6 C10 2.847 . S
U6 C23 2.882 1_554 S
U6 O24 2.441 . S
U6 O25 2.420 . S
U6 O26 2.455 1_554 S
U6 O27 2.449 1_554 S
O7 U6 2.454 . S
O7 C9 1.353 . S
O8 U6 2.458 1_556 S
O8 C9 1.286 1_556 S
C9 U6 2.984 . S
C9 O7 1.353 . S
C9 O8 1.286 1_554 S
C9 C11 1.363 . S
C10 C0 1.465 . S
C10 U6 2.847 . S
C10 O24 1.249 . S
C10 O25 1.202 . S
C11 C9 1.363 . S
C11 C13 1.408 . S
C11 C16 1.342 1_554 S
C12 C13 1.310 . S
C12 C15 1.461 . S
C12 H32 0.932 . S
C13 C11 1.408 . S
C13 C12 1.310 . S
C13 H33 0.930 . S
C14 C15 1.474 1_556 S
C14 C16 1.285 . S
C14 H34 0.929 . S
C15 C12 1.461 . S
C15 C14 1.474 1_554 S
C16 C11 1.342 1_556 S
C16 C14 1.285 . S
C16 H35 0.930 . S
C17 C20 1.424 . S
C17 C22 1.245 . S
C17 C23 1.428 . S
C18 C21 1.260 . S
C18 C22 1.477 . S
C18 H36 0.932 . S
C19 C20 1.384 . S
C19 C21 1.479 . S
C19 H37 0.929 . S
C20 C17 1.424 . S
C20 C19 1.384 . S
C20 H38 0.928 . S
C21 C18 1.260 . S
C21 C19 1.479 . S
C22 C17 1.245 . S
C22 C18 1.477 . S
C22 H39 0.932 . S
C23 U6 2.882 1_556 S
C23 C17 1.428 . S
C23 O26 1.301 . S
C23 O27 1.282 . S
O24 U6 2.441 . S
O24 C10 1.249 . S
O25 U6 2.420 . S
O25 C10 1.202 . S
O26 U6 2.455 1_556 S
O26 C23 1.301 . S
O27 U6 2.449 1_556 S
O27 C23 1.282 . S
H28 C1 0.931 . S
H29 C3 0.929 . S
H30 C4 0.930 . S
H31 C5 0.931 . S
H32 C12 0.932 . S
H33 C13 0.930 . S
H34 C14 0.929 . S
H35 C16 0.930 . S
H36 C18 0.932 . S
H37 C19 0.929 . S
H38 C20 0.928 . S
H39 C22 0.932 . S
C40 C41 1.264 . S
C40 C45 1.479 . S
C40 C50 1.465 . S
C41 C40 1.264 . S
C41 C43 1.339 . S
C41 H68 0.931 . S
C42 C43 1.395 . S
C42 C44 1.320 . S
C43 C41 1.339 . S
C43 C42 1.395 . S
C43 H69 0.929 . S
C44 C42 1.320 . S
C44 C45 1.405 . S
C44 H70 0.930 . S
C45 C40 1.479 . S
C45 C44 1.405 . S
C45 H71 0.931 . S
U46 O47 2.454 . S
U46 O48 2.458 . S
U46 C49 2.984 . S
U46 C50 2.847 . S
U46 C63 2.882 . S
U46 O64 2.441 . S
U46 O65 2.420 . S
U46 O66 2.455 . S
U46 O67 2.449 . S
O47 U46 2.454 . S
O47 C49 1.353 . S
O48 U46 2.458 . S
O48 C49 1.286 . S
C49 U46 2.984 . S
C49 O47 1.353 . S
C49 O48 1.286 . S
C49 C51 1.363 . S
C50 C40 1.465 . S
C50 U46 2.847 . S
C50 O64 1.249 . S
C50 O65 1.202 . S
C51 C49 1.363 . S
C51 C53 1.408 . S
C51 C56 1.342 . S
C52 C53 1.310 . S
C52 C55 1.461 . S
C52 H72 0.932 . S
C53 C51 1.408 . S
C53 C52 1.310 . S
C53 H73 0.930 . S
C54 C55 1.474 . S
C54 C56 1.285 . S
C54 H74 0.929 . S
C55 C52 1.461 . S
C55 C54 1.474 . S
C56 C51 1.342 . S
C56 C54 1.285 . S
C56 H75 0.930 . S
C57 C60 1.424 . S
C57 C62 1.245 . S
C57 C63 1.428 . S
C58 C61 1.260 . S
C58 C62 1.477 . S
C58 H76 0.932 . S
C59 C60 1.384 . S
C59 C61 1.479 . S
C59 H77 0.929 . S
C60 C57 1.424 . S
C60 C59 1.384 . S
C60 H78 0.928 . S
C61 C58 1.260 . S
C61 C59 1.479 . S
C62 C57 1.245 . S
C62 C58 1.477 . S
C62 H79 0.932 . S
C63 U46 2.882 . S
C63 C57 1.428 . S
C63 O66 1.301 . S
C63 O67 1.282 . S
O64 U46 2.441 . S
O64 C50 1.249 . S
O65 U46 2.420 . S
O65 C50 1.202 . S
O66 U46 2.455 . S
O66 C63 1.301 . S
O67 U46 2.449 . S
O67 C63 1.282 . S
H68 C41 0.931 . S
H69 C43 0.929 . S
H70 C44 0.930 . S
H71 C45 0.931 . S
H72 C52 0.932 . S
H73 C53 0.930 . S
H74 C54 0.929 . S
H75 C56 0.930 . S
H76 C58 0.932 . S
H77 C59 0.929 . S
H78 C60 0.928 . S
H79 C62 0.932 . S
C80 C81 1.264 . S
C80 C85 1.479 . S
C80 C90 1.465 . S
C81 C80 1.264 . S
C81 C83 1.339 . S
C81 H108 0.931 . S
C82 C83 1.395 . S
C82 C84 1.320 . S
C83 C81 1.339 . S
C83 C82 1.395 . S
C83 H109 0.929 . S
C84 C82 1.320 . S
C84 C85 1.405 . S
C84 H110 0.930 . S
C85 C80 1.479 . S
C85 C84 1.405 . S
C85 H111 0.931 . S
U86 O87 2.454 . S
U86 O88 2.458 1_554 S
U86 C89 2.984 . S
U86 C90 2.847 . S
U86 C103 2.882 1_554 S
U86 O104 2.441 . S
U86 O105 2.420 . S
U86 O106 2.455 1_554 S
U86 O107 2.449 1_554 S
O87 U86 2.454 . S
O87 C89 1.353 . S
O88 U86 2.458 1_556 S
O88 C89 1.286 1_556 S
C89 U86 2.984 . S
C89 O87 1.353 . S
C89 O88 1.286 1_554 S
C89 C91 1.363 . S
C90 C80 1.465 . S
C90 U86 2.847 . S
C90 O104 1.249 . S
C90 O105 1.202 . S
C91 C89 1.363 . S
C91 C93 1.408 . S
C91 C96 1.342 1_554 S
C92 C93 1.310 . S
C92 C95 1.461 . S
C92 H112 0.932 . S
C93 C91 1.408 . S
C93 C92 1.310 . S
C93 H113 0.930 . S
C94 C95 1.474 1_556 S
C94 C96 1.285 . S
C94 H114 0.929 . S
C95 C92 1.461 . S
C95 C94 1.474 1_554 S
C96 C91 1.342 1_556 S
C96 C94 1.285 . S
C96 H115 0.930 . S
C97 C100 1.424 . S
C97 C102 1.245 . S
C97 C103 1.428 . S
C98 C101 1.260 . S
C98 C102 1.477 . S
C98 H116 0.932 . S
C99 C100 1.384 . S
C99 C101 1.479 . S
C99 H117 0.929 . S
C100 C97 1.424 . S
C100 C99 1.384 . S
C100 H118 0.928 . S
C101 C98 1.260 . S
C101 C99 1.479 . S
C102 C97 1.245 . S
C102 C98 1.477 . S
C102 H119 0.932 . S
C103 U86 2.882 1_556 S
C103 C97 1.428 . S
C103 O106 1.301 . S
C103 O107 1.282 . S
O104 U86 2.441 . S
O104 C90 1.249 . S
O105 U86 2.420 . S
O105 C90 1.202 . S
O106 U86 2.455 1_556 S
O106 C103 1.301 . S
O107 U86 2.449 1_556 S
O107 C103 1.282 . S
H108 C81 0.931 . S
H109 C83 0.929 . S
H110 C84 0.930 . S
H111 C85 0.931 . S
H112 C92 0.932 . S
H113 C93 0.930 . S
H114 C94 0.929 . S
H115 C96 0.930 . S
H116 C98 0.932 . S
H117 C99 0.929 . S
H118 C100 0.928 . S
H119 C102 0.932 . S
C120 C121 1.264 . S
C120 C125 1.479 . S
C120 C130 1.465 . S
C121 C120 1.264 . S
C121 C123 1.339 . S
C121 H148 0.931 . S
C122 C123 1.395 . S
C122 C124 1.320 . S
C123 C121 1.339 . S
C123 C122 1.395 . S
C123 H149 0.929 . S
C124 C122 1.320 . S
C124 C125 1.405 . S
C124 H150 0.930 . S
C125 C120 1.479 . S
C125 C124 1.405 . S
C125 H151 0.931 . S
U126 O127 2.454 . S
U126 O128 2.458 . S
U126 C129 2.984 . S
U126 C130 2.847 . S
U126 C143 2.882 . S
U126 O144 2.441 . S
U126 O145 2.420 . S
U126 O146 2.455 . S
U126 O147 2.449 . S
O127 U126 2.454 . S
O127 C129 1.353 . S
O128 U126 2.458 . S
O128 C129 1.286 . S
C129 U126 2.984 . S
C129 O127 1.353 . S
C129 O128 1.286 . S
C129 C131 1.363 . S
C130 C120 1.465 . S
C130 U126 2.847 . S
C130 O144 1.249 . S
C130 O145 1.202 . S
C131 C129 1.363 . S
C131 C133 1.408 . S
C131 C136 1.342 . S
C132 C133 1.310 . S
C132 C135 1.461 . S
C132 H152 0.932 . S
C133 C131 1.408 . S
C133 C132 1.310 . S
C133 H153 0.930 . S
C134 C135 1.474 . S
C134 C136 1.285 . S
C134 H154 0.929 . S
C135 C132 1.461 . S
C135 C134 1.474 . S
C136 C131 1.342 . S
C136 C134 1.285 . S
C136 H155 0.930 . S
C137 C140 1.424 . S
C137 C142 1.245 . S
C137 C143 1.428 . S
C138 C141 1.260 . S
C138 C142 1.477 . S
C138 H156 0.932 . S
C139 C140 1.384 . S
C139 C141 1.479 . S
C139 H157 0.929 . S
C140 C137 1.424 . S
C140 C139 1.384 . S
C140 H158 0.928 . S
C141 C138 1.260 . S
C141 C139 1.479 . S
C142 C137 1.245 . S
C142 C138 1.477 . S
C142 H159 0.932 . S
C143 U126 2.882 . S
C143 C137 1.428 . S
C143 O146 1.301 . S
C143 O147 1.282 . S
O144 U126 2.441 . S
O144 C130 1.249 . S
O145 U126 2.420 . S
O145 C130 1.202 . S
O146 U126 2.455 . S
O146 C143 1.301 . S
O147 U126 2.449 . S
O147 C143 1.282 . S
H148 C121 0.931 . S
H149 C123 0.929 . S
H150 C124 0.930 . S
H151 C125 0.931 . S
H152 C132 0.932 . S
H153 C133 0.930 . S
H154 C134 0.929 . S
H155 C136 0.930 . S
H156 C138 0.932 . S
H157 C139 0.929 . S
H158 C140 0.928 . S
H159 C142 0.932 . S
C160 O176 1.251 . S
C160 O178 1.254 . S
N161 C162 1.333 . S
N161 C166 1.307 . S
N161 Zn167 2.020 . S
C162 N161 1.333 . S
C162 C163 1.379 . S
C162 H180 0.952 . S
C163 C162 1.379 . S
C163 C164 1.390 . S
C163 H190 0.949 . S
C164 C163 1.390 . S
C164 C165 1.357 . S
C165 C164 1.357 . S
C165 C166 1.370 . S
C165 H191 0.950 . S
C166 N161 1.307 . S
C166 C165 1.370 . S
C166 H184 0.948 . S
Zn167 N161 2.020 . S
Zn167 O176 2.039 1_545 S
Zn167 O182 2.034 1_545 S
Zn167 O186 2.025 . S
Zn167 O188 2.024 . S
C168 O187 1.246 . S
C168 O188 1.249 1_655 S
N169 C170 1.307 . S
N169 C171 1.333 . S
N169 Zn175 2.020 . S
C170 N169 1.307 . S
C170 C174 1.370 . S
C170 H181 0.948 . S
C171 N169 1.333 . S
C171 C172 1.379 . S
C171 H179 0.952 1_565 S
C172 C171 1.379 . S
C172 C173 1.390 . S
C172 H192 0.949 . S
C173 C172 1.390 . S
C173 C174 1.357 . S
C174 C170 1.370 . S
C174 C173 1.357 . S
C174 H193 0.950 . S
Zn175 N169 2.020 . S
Zn175 O178 2.025 1_655 S
Zn175 O183 2.024 1_655 S
Zn175 O185 2.039 1_565 S
Zn175 O187 2.034 1_565 S
O176 C160 1.251 . S
O176 Zn167 2.039 1_565 S
C177 O182 1.246 . S
C177 O183 1.249 . S
O178 C160 1.254 . S
O178 Zn175 2.025 1_455 S
H179 C171 0.952 1_545 S
H180 C162 0.952 . S
H181 C170 0.948 . S
O182 Zn167 2.034 1_565 S
O182 C177 1.246 . S
O183 Zn175 2.024 1_455 S
O183 C177 1.249 . S
H184 C166 0.948 . S
O185 Zn175 2.039 1_545 S
O185 C189 1.251 . S
O186 Zn167 2.025 . S
O186 C189 1.254 1_455 S
O187 C168 1.246 . S
O187 Zn175 2.034 1_545 S
O188 Zn167 2.024 . S
O188 C168 1.249 1_455 S
C189 O185 1.251 . S
C189 O186 1.254 1_655 S
H190 C163 0.949 . S
H191 C165 0.950 . S
H192 C172 0.949 . S
H193 C174 0.950 . S
C194 O210 1.251 . S
C194 O212 1.254 . S
N195 C196 1.333 1_554 S
N195 C200 1.307 . S
N195 Zn201 2.020 . S
C196 N195 1.333 1_556 S
C196 C197 1.379 . S
C196 H214 0.952 . S
C197 C196 1.379 . S
C197 C198 1.390 1_556 S
C197 H224 0.949 . S
C198 C197 1.390 1_554 S
C198 C199 1.357 . S
C199 C198 1.357 . S
C199 C200 1.370 . S
C199 H225 0.950 . S
C200 N195 1.307 . S
C200 C199 1.370 . S
C200 H218 0.948 . S
Zn201 N195 2.020 . S
Zn201 O210 2.039 1_554 S
Zn201 O216 2.034 . S
Zn201 O220 2.025 . S
Zn201 O222 2.024 1_554 S
C202 O221 1.246 . S
C202 O222 1.249 . S
N203 C204 1.307 1_554 S
N203 C205 1.333 . S
N203 Zn209 2.020 . S
C204 N203 1.307 1_556 S
C204 C208 1.370 . S
C204 H215 0.948 . S
C205 N203 1.333 . S
C205 C206 1.379 . S
C205 H213 0.952 . S
C206 C205 1.379 . S
C206 C207 1.390 . S
C206 H226 0.949 . S
C207 C206 1.390 . S
C207 C208 1.357 1_554 S
C208 C204 1.370 . S
C208 C207 1.357 1_556 S
C208 H227 0.950 . S
Zn209 N203 2.020 . S
Zn209 O212 2.025 1_554 S
Zn209 O217 2.024 . S
Zn209 O219 2.039 . S
Zn209 O221 2.034 1_554 S
O210 C194 1.251 . S
O210 Zn201 2.039 1_556 S
C211 O216 1.246 . S
C211 O217 1.249 . S
O212 C194 1.254 . S
O212 Zn209 2.025 1_556 S
H213 C205 0.952 . S
H214 C196 0.952 . S
H215 C204 0.948 . S
O216 Zn201 2.034 . S
O216 C211 1.246 . S
O217 Zn209 2.024 . S
O217 C211 1.249 . S
H218 C200 0.948 . S
O219 Zn209 2.039 . S
O219 C223 1.251 . S
O220 Zn201 2.025 . S
O220 C223 1.254 . S
O221 C202 1.246 . S
O221 Zn209 2.034 1_556 S
O222 Zn201 2.024 1_556 S
O222 C202 1.249 . S
C223 O219 1.251 . S
C223 O220 1.254 . S
H224 C197 0.949 . S
H225 C199 0.950 . S
H226 C206 0.949 . S
H227 C208 0.950 . S
H228 C236 0.950 . S
H229 C241 0.950 . S
H230 C238 0.950 . S
H231 C240 0.950 . S
H232 C242 0.950 . S
H233 C244 0.950 . S
H234 C246 0.950 . S
H235 C247 0.950 . S
C236 H228 0.950 . S
C236 C237 1.386 . S
C236 C238 1.391 . S
C237 C236 1.386 . S
C237 C241 1.393 . S
C238 H230 0.950 . S
C238 C236 1.391 . S
C238 C239 1.400 . S
C239 C238 1.400 . S
C239 C240 1.398 . S
C239 C245 1.491 . S
C240 H231 0.950 . S
C240 C239 1.398 . S
C240 C241 1.391 . S
C241 H229 0.950 . S
C241 C237 1.393 . S
C241 C240 1.391 . S
C242 H232 0.950 . S
C242 C243 1.386 . S
C242 C244 1.391 . S
C243 C242 1.386 . S
C243 C247 1.393 . S
C244 H233 0.950 . S
C244 C242 1.391 . S
C244 C245 1.400 . S
C245 C239 1.491 . S
C245 C244 1.400 . S
C245 C246 1.398 . S
C246 H234 0.950 . S
C246 C245 1.398 . S
C246 C247 1.391 . S
C247 H235 0.950 . S
C247 C243 1.393 . S
C247 C246 1.391 . S
H248 C256 0.950 . S
H249 C261 0.950 . S
H250 C258 0.950 . S
H251 C260 0.950 . S
H252 C262 0.950 . S
H253 C264 0.950 . S
H254 C266 0.950 . S
H255 C267 0.950 . S
C256 H248 0.950 . S
C256 C257 1.386 . S
C256 C258 1.391 . S
C257 C256 1.386 . S
C257 C261 1.393 1_554 S
C258 H250 0.950 . S
C258 C256 1.391 . S
C258 C259 1.400 . S
C259 C258 1.400 . S
C259 C260 1.398 1_554 S
C259 C265 1.491 . S
C260 H251 0.950 . S
C260 C259 1.398 1_556 S
C260 C261 1.391 . S
C261 H249 0.950 . S
C261 C257 1.393 1_556 S
C261 C260 1.391 . S
C262 H252 0.950 . S
C262 C263 1.386 1_556 S
C262 C264 1.391 . S
C263 C262 1.386 1_554 S
C263 C267 1.393 . S
C264 H253 0.950 . S
C264 C262 1.391 . S
C264 C265 1.400 1_556 S
C265 C259 1.491 . S
C265 C264 1.400 1_554 S
C265 C266 1.398 . S
C266 H254 0.950 . S
C266 C265 1.398 . S
C266 C267 1.391 . S
C267 H255 0.950 . S
C267 C263 1.393 . S
C267 C266 1.391 . S
H268 C276 0.950 . S
H269 C281 0.950 . S
H270 C278 0.950 . S
H271 C280 0.950 . S
H272 C282 0.950 . S
H273 C284 0.950 . S
H274 C286 0.950 . S
H275 C287 0.950 . S
C276 H268 0.950 . S
C276 C277 1.386 . S
C276 C278 1.391 . S
C277 C276 1.386 . S
C277 C281 1.393 . S
C278 H270 0.950 . S
C278 C276 1.391 . S
C278 C279 1.400 . S
C279 C278 1.400 . S
C279 C280 1.398 . S
C279 C285 1.491 . S
C280 H271 0.950 . S
C280 C279 1.398 . S
C280 C281 1.391 . S
C281 H269 0.950 . S
C281 C277 1.393 . S
C281 C280 1.391 . S
C282 H272 0.950 . S
C282 C283 1.386 . S
C282 C284 1.391 . S
C283 C282 1.386 . S
C283 C287 1.393 . S
C284 H273 0.950 . S
C284 C282 1.391 . S
C284 C285 1.400 . S
C285 C279 1.491 . S
C285 C284 1.400 . S
C285 C286 1.398 . S
C286 H274 0.950 . S
C286 C285 1.398 . S
C286 C287 1.391 . S
C287 H275 0.950 . S
C287 C283 1.393 . S
C287 C286 1.391 . S
H288 C296 0.952 . S
H289 C301 0.950 . S
H290 C298 0.949 1_556 S
H291 C300 0.950 . S
H292 C302 0.950 . S
H293 C304 0.950 . S
H294 C306 0.950 . S
H295 C307 0.950 . S
C296 H288 0.952 . S
C296 C297 1.385 1_556 S
C296 C298 1.391 1_556 S
C297 C296 1.385 1_554 S
C297 C301 1.393 . S
C298 H290 0.949 1_554 S
C298 C296 1.391 1_554 S
C298 C299 1.401 . S
C299 C298 1.401 . S
C299 C300 1.398 . S
C299 C305 1.491 . S
C300 H291 0.950 . S
C300 C299 1.398 . S
C300 C301 1.391 . S
C301 H289 0.950 . S
C301 C297 1.393 . S
C301 C300 1.391 . S
C302 H292 0.950 . S
C302 C303 1.386 . S
C302 C304 1.391 . S
C303 C302 1.386 . S
C303 C307 1.393 . S
C304 H293 0.950 . S
C304 C302 1.391 . S
C304 C305 1.400 . S
C305 C299 1.491 . S
C305 C304 1.400 . S
C305 C306 1.398 . S
C306 H294 0.950 . S
C306 C305 1.398 . S
C306 C307 1.391 . S
C307 H295 0.950 . S
C307 C303 1.393 . S
C307 C306 1.391 . S
H308 C316 0.950 . S
H309 C321 0.950 . S
H310 C318 0.950 . S
H311 C320 0.950 . S
H312 C322 0.950 . S
H313 C324 0.950 . S
H314 C326 0.950 . S
H315 C327 0.950 . S
C316 H308 0.950 . S
C316 C317 1.386 . S
C316 C318 1.391 . S
C317 C316 1.386 . S
C317 C321 1.393 . S
C318 H310 0.950 . S
C318 C316 1.391 . S
C318 C319 1.400 . S
C319 C318 1.400 . S
C319 C320 1.398 . S
C319 C325 1.491 . S
C320 H311 0.950 . S
C320 C319 1.398 . S
C320 C321 1.391 . S
C321 H309 0.950 . S
C321 C317 1.393 . S
C321 C320 1.391 . S
C322 H312 0.950 . S
C322 C323 1.386 . S
C322 C324 1.391 . S
C323 C322 1.386 . S
C323 C327 1.393 . S
C324 H313 0.950 . S
C324 C322 1.391 . S
C324 C325 1.400 . S
C325 C319 1.491 . S
C325 C324 1.400 . S
C325 C326 1.398 . S
C326 H314 0.950 . S
C326 C325 1.398 . S
C326 C327 1.391 . S
C327 H315 0.950 . S
C327 C323 1.393 . S
C327 C326 1.391 . S
H328 C336 0.950 . S
H329 C341 0.950 . S
H330 C338 0.950 . S
H331 C340 0.950 . S
H332 C342 0.950 . S
H333 C344 0.950 . S
H334 C346 0.950 . S
H335 C347 0.950 . S
C336 H328 0.950 . S
C336 C337 1.386 . S
C336 C338 1.391 . S
C337 C336 1.386 . S
C337 C341 1.393 . S
C338 H330 0.950 . S
C338 C336 1.391 . S
C338 C339 1.400 . S
C339 C338 1.400 . S
C339 C340 1.398 . S
C339 C345 1.491 . S
C340 H331 0.950 . S
C340 C339 1.398 . S
C340 C341 1.391 . S
C341 H329 0.950 . S
C341 C337 1.393 . S
C341 C340 1.391 . S
C342 H332 0.950 . S
C342 C343 1.386 . S
C342 C344 1.391 . S
C343 C342 1.386 . S
C343 C347 1.393 . S
C344 H333 0.950 . S
C344 C342 1.391 . S
C344 C345 1.400 . S
C345 C339 1.491 . S
C345 C344 1.400 . S
C345 C346 1.398 . S
C346 H334 0.950 . S
C346 C345 1.398 . S
C346 C347 1.391 . S
C347 H335 0.950 . S
C347 C343 1.393 . S
C347 C346 1.391 . S
H348 C356 0.950 . S
H349 C361 0.950 . S
H350 C358 0.950 . S
H351 C360 0.950 1_455 S
H352 C362 0.950 . S
H353 C364 0.950 . S
H354 C366 0.950 . S
H355 C367 0.950 . S
C356 H348 0.950 . S
C356 C357 1.386 . S
C356 C358 1.391 . S
C357 C356 1.386 . S
C357 C361 1.393 . S
C358 H350 0.950 . S
C358 C356 1.391 . S
C358 C359 1.400 . S
C359 C358 1.400 . S
C359 C360 1.398 . S
C359 C365 1.491 . S
C360 H351 0.950 1_655 S
C360 C359 1.398 . S
C360 C361 1.391 . S
C361 H349 0.950 . S
C361 C357 1.393 . S
C361 C360 1.391 . S
C362 H352 0.950 . S
C362 C363 1.386 1_455 S
C362 C364 1.391 . S
C363 C362 1.386 1_655 S
C363 C367 1.393 . S
C364 H353 0.950 . S
C364 C362 1.391 . S
C364 C365 1.400 1_455 S
C365 C359 1.491 . S
C365 C364 1.400 1_655 S
C365 C366 1.398 . S
C366 H354 0.950 . S
C366 C365 1.398 . S
C366 C367 1.391 . S
C367 H355 0.950 . S
C367 C363 1.393 . S
C367 C366 1.391 . S
H368 C376 0.950 . S
H369 C381 0.950 . S
H370 C378 0.950 . S
H371 C380 0.950 . S
H372 C382 0.950 . S
H373 C384 0.950 . S
H374 C386 0.950 . S
H375 C387 0.950 . S
C376 H368 0.950 . S
C376 C377 1.386 . S
C376 C378 1.391 . S
C377 C376 1.386 . S
C377 C381 1.393 . S
C378 H370 0.950 . S
C378 C376 1.391 . S
C378 C379 1.400 . S
C379 C378 1.400 . S
C379 C380 1.398 . S
C379 C385 1.491 . S
C380 H371 0.950 . S
C380 C379 1.398 . S
C380 C381 1.391 . S
C381 H369 0.950 . S
C381 C377 1.393 . S
C381 C380 1.391 . S
C382 H372 0.950 . S
C382 C383 1.386 . S
C382 C384 1.391 . S
C383 C382 1.386 . S
C383 C387 1.393 . S
C384 H373 0.950 . S
C384 C382 1.391 . S
C384 C385 1.400 . S
C385 C379 1.491 . S
C385 C384 1.400 . S
C385 C386 1.398 . S
C386 H374 0.950 . S
C386 C385 1.398 . S
C386 C387 1.391 . S
C387 H375 0.950 . S
C387 C383 1.393 . S
C387 C386 1.391 . S
H388 C396 0.950 . S
H389 C401 0.950 . S
H390 C398 0.950 . S
H391 C400 0.950 . S
H392 C402 0.950 . S
H393 C404 0.950 . S
H394 C406 0.950 . S
H395 C407 0.950 . S
C396 H388 0.950 . S
C396 C397 1.386 . S
C396 C398 1.391 . S
C397 C396 1.386 . S
C397 C401 1.393 . S
C398 H390 0.950 . S
C398 C396 1.391 . S
C398 C399 1.400 . S
C399 C398 1.400 . S
C399 C400 1.398 . S
C399 C405 1.491 . S
C400 H391 0.950 . S
C400 C399 1.398 . S
C400 C401 1.391 . S
C401 H389 0.950 . S
C401 C397 1.393 . S
C401 C400 1.391 . S
C402 H392 0.950 . S
C402 C403 1.386 . S
C402 C404 1.391 . S
C403 C402 1.386 . S
C403 C407 1.393 . S
C404 H393 0.950 . S
C404 C402 1.391 . S
C404 C405 1.400 . S
C405 C399 1.491 . S
C405 C404 1.400 . S
C405 C406 1.398 . S
C406 H394 0.950 . S
C406 C405 1.398 . S
C406 C407 1.391 . S
C407 H395 0.950 . S
C407 C403 1.393 . S
C407 C406 1.391 . S
H408 C416 0.950 . S
H409 C421 0.950 . S
H410 C418 0.950 . S
H411 C420 0.950 . S
H412 C422 0.950 . S
H413 C424 0.950 . S
H414 C426 0.950 . S
H415 C427 0.950 1_455 S
C416 H408 0.950 . S
C416 C417 1.386 . S
C416 C418 1.391 . S
C417 C416 1.386 . S
C417 C421 1.393 . S
C418 H410 0.950 . S
C418 C416 1.391 . S
C418 C419 1.400 . S
C419 C418 1.400 . S
C419 C420 1.398 . S
C419 C425 1.491 . S
C420 H411 0.950 . S
C420 C419 1.398 . S
C420 C421 1.391 . S
C421 H409 0.950 . S
C421 C417 1.393 . S
C421 C420 1.391 . S
C422 H412 0.950 . S
C422 C423 1.386 . S
C422 C424 1.391 . S
C423 C422 1.386 . S
C423 C427 1.393 . S
C424 H413 0.950 . S
C424 C422 1.391 . S
C424 C425 1.400 . S
C425 C419 1.491 . S
C425 C424 1.400 . S
C425 C426 1.398 . S
C426 H414 0.950 . S
C426 C425 1.398 . S
C426 C427 1.391 . S
C427 H415 0.950 1_655 S
C427 C423 1.393 . S
C427 C426 1.391 . S
H428 C436 0.950 . S
H429 C441 0.950 . S
H430 C438 0.950 . S
H431 C440 0.950 . S
H432 C442 0.950 . S
H433 C444 0.950 . S
H434 C446 0.950 . S
H435 C447 0.950 . S
C436 H428 0.950 . S
C436 C437 1.386 . S
C436 C438 1.391 . S
C437 C436 1.386 . S
C437 C441 1.393 . S
C438 H430 0.950 . S
C438 C436 1.391 . S
C438 C439 1.400 . S
C439 C438 1.400 . S
C439 C440 1.398 . S
C439 C445 1.491 . S
C440 H431 0.950 . S
C440 C439 1.398 . S
C440 C441 1.391 . S
C441 H429 0.950 . S
C441 C437 1.393 . S
C441 C440 1.391 . S
C442 H432 0.950 . S
C442 C443 1.386 . S
C442 C444 1.391 . S
C443 C442 1.386 . S
C443 C447 1.393 . S
C444 H433 0.950 . S
C444 C442 1.391 . S
C444 C445 1.400 . S
C445 C439 1.491 . S
C445 C444 1.400 . S
C445 C446 1.398 . S
C446 H434 0.950 . S
C446 C445 1.398 . S
C446 C447 1.391 . S
C447 H435 0.950 . S
C447 C443 1.393 . S
C447 C446 1.391 . S
H448 C456 0.950 . S
H449 C461 0.950 . S
H450 C458 0.950 . S
H451 C460 0.950 . S
H452 C462 0.950 . S
H453 C464 0.950 . S
H454 C466 0.950 . S
H455 C467 0.950 . S
C456 H448 0.950 . S
C456 C457 1.386 . S
C456 C458 1.391 . S
C457 C456 1.386 . S
C457 C461 1.393 . S
C458 H450 0.950 . S
C458 C456 1.391 . S
C458 C459 1.400 . S
C459 C458 1.400 . S
C459 C460 1.398 . S
C459 C465 1.491 . S
C460 H451 0.950 . S
C460 C459 1.398 . S
C460 C461 1.391 . S
C461 H449 0.950 . S
C461 C457 1.393 . S
C461 C460 1.391 . S
C462 H452 0.950 . S
C462 C463 1.386 . S
C462 C464 1.391 . S
C463 C462 1.386 . S
C463 C467 1.393 . S
C464 H453 0.950 . S
C464 C462 1.391 . S
C464 C465 1.400 . S
C465 C459 1.491 . S
C465 C464 1.400 . S
C465 C466 1.398 . S
C466 H454 0.950 . S
C466 C465 1.398 . S
C466 C467 1.391 . S
C467 H455 0.950 . S
C467 C463 1.393 . S
C467 C466 1.391 . S
C243 C164 1.691 . S
C237 C135 1.651 . S
C257 C15 1.584 . S
C263 C207 1.595 . S
C277 C55 1.670 . S
C283 C173 1.693 . S
C297 C95 1.580 . S
C303 C198 1.593 . S
C323 C160 1.645 . S
C317 C2 1.570 . S
C343 C202 1.772 . S
C337 C42 1.770 . S
C357 C82 1.560 . S
C363 C168 1.629 . S
C377 C141 1.649 . S
C383 C194 1.761 . S
C403 C223 1.781 . S
C397 C61 1.768 . S
C423 C189 1.687 . S
C417 C101 1.590 . S
C443 C211 1.787 . S
C437 C122 1.679 . S
C457 C21 1.606 . S
C463 C177 1.679 . S
