# Generated by pormake.
# Topology zzz, (3,6)-cn, num edge types: 1
# Building blocks:
#     Node 0, Type 0, BuildingBlock: OLANEW_clean_sbu_2, # of connection points: 3
#     Node 1, Type 0, BuildingBlock: OLANEW_clean_sbu_2, # of connection points: 3
#     Node 2, Type 0, BuildingBlock: OLANEW_clean_sbu_2, # of connection points: 3
#     Node 3, Type 0, BuildingBlock: OLANEW_clean_sbu_2, # of connection points: 3
#     Node 4, Type 0, BuildingBlock: OLANEW_clean_sbu_2, # of connection points: 3
#     Node 5, Type 0, BuildingBlock: OLANEW_clean_sbu_2, # of connection points: 3
#     Node 6, Type 0, BuildingBlock: OLANEW_clean_sbu_2, # of connection points: 3
#     Node 7, Type 0, BuildingBlock: OLANEW_clean_sbu_2, # of connection points: 3
#     Node 8, Type 1, BuildingBlock: INOVEN_clean_sbu_0, # of connection points: 6
#     Node 9, Type 1, BuildingBlock: INOVEN_clean_sbu_0, # of connection points: 6
#     Node 10, Type 1, BuildingBlock: INOVEN_clean_sbu_0, # of connection points: 6
#     Node 11, Type 1, BuildingBlock: INOVEN_clean_sbu_0, # of connection points: 6
#     Edge 12, Type (0, 1), BuildingBlock: TEMPAE_clean_linker_10, # of connection points: 2
#     Edge 13, Type (0, 1), BuildingBlock: TEMPAE_clean_linker_10, # of connection points: 2
#     Edge 14, Type (0, 1), BuildingBlock: TEMPAE_clean_linker_10, # of connection points: 2
#     Edge 15, Type (0, 1), BuildingBlock: TEMPAE_clean_linker_10, # of connection points: 2
#     Edge 16, Type (0, 1), BuildingBlock: TEMPAE_clean_linker_10, # of connection points: 2
#     Edge 17, Type (0, 1), BuildingBlock: TEMPAE_clean_linker_10, # of connection points: 2
#     Edge 18, Type (0, 1), BuildingBlock: TEMPAE_clean_linker_10, # of connection points: 2
#     Edge 19, Type (0, 1), BuildingBlock: TEMPAE_clean_linker_10, # of connection points: 2
#     Edge 20, Type (0, 1), BuildingBlock: TEMPAE_clean_linker_10, # of connection points: 2
#     Edge 21, Type (0, 1), BuildingBlock: TEMPAE_clean_linker_10, # of connection points: 2
#     Edge 22, Type (0, 1), BuildingBlock: TEMPAE_clean_linker_10, # of connection points: 2
#     Edge 23, Type (0, 1), BuildingBlock: TEMPAE_clean_linker_10, # of connection points: 2
#     Edge 24, Type (0, 1), BuildingBlock: TEMPAE_clean_linker_10, # of connection points: 2
#     Edge 25, Type (0, 1), BuildingBlock: TEMPAE_clean_linker_10, # of connection points: 2
#     Edge 26, Type (0, 1), BuildingBlock: TEMPAE_clean_linker_10, # of connection points: 2
#     Edge 27, Type (0, 1), BuildingBlock: TEMPAE_clean_linker_10, # of connection points: 2
#     Edge 28, Type (0, 1), BuildingBlock: TEMPAE_clean_linker_10, # of connection points: 2
#     Edge 29, Type (0, 1), BuildingBlock: TEMPAE_clean_linker_10, # of connection points: 2
#     Edge 30, Type (0, 1), BuildingBlock: TEMPAE_clean_linker_10, # of connection points: 2
#     Edge 31, Type (0, 1), BuildingBlock: TEMPAE_clean_linker_10, # of connection points: 2
#     Edge 32, Type (0, 1), BuildingBlock: TEMPAE_clean_linker_10, # of connection points: 2
#     Edge 33, Type (0, 1), BuildingBlock: TEMPAE_clean_linker_10, # of connection points: 2
#     Edge 34, Type (0, 1), BuildingBlock: TEMPAE_clean_linker_10, # of connection points: 2
#     Edge 35, Type (0, 1), BuildingBlock: TEMPAE_clean_linker_10, # of connection points: 2
# Relax obj value: 0.238
# Max RMSD: 0.186
# Mean RMSD: 0.170
data_MOF--net-zzz--node1-OLANEW_clean_sbu_2--node2-INOVEN_clean_sbu_0--edge1-TEMPAE_clean_linker_10
_symmetry_space_group_name_H-M    P1
_symmetry_Int_Tables_number       1
_symmetry_cell_setting            triclinic
loop_
_symmetry_equiv_pos_as_xyz
'x, y, z'
_cell_length_a     56.968756
_cell_length_b     56.97716
_cell_length_c     15.280453
_cell_angle_alpha  90.221793
_cell_angle_beta   90.216471
_cell_angle_gamma 89.996766
loop_
_atom_site_label
_atom_site_type_symbol
_atom_site_fract_x
_atom_site_fract_y
_atom_site_fract_z
_atom_type_partial_charge
O0 O 0.73267 0.52002 0.25966 0.0
Cd1 Cd 0.69355 0.52256 0.32388 0.0
O2 O 0.73494 0.48569 0.32323 0.0
Cd3 Cd 0.75699 0.45798 0.37629 0.0
O4 O 0.79045 0.45912 0.4444 0.0
C5 C 0.79533 0.47943 0.47392 0.0
O6 O 0.77994 0.49638 0.46324 0.0
C7 C 0.74435 0.50162 0.27701 0.0
C8 C 0.65807 0.5214 0.19853 0.0
O9 O 0.6658 0.54101 0.22824 0.0
O10 O 0.66717 0.50243 0.22807 0.0
O11 O 0.98589 0.76355 0.23017 0.0
Cd12 Cd 0.9673 0.72691 0.27736 0.0
O13 O 0.99939 0.76683 0.36331 0.0
Cd14 Cd 0.01471 0.7806 0.48459 0.0
O15 O 0.01946 0.77231 0.62947 0.0
C16 C 0.01253 0.78588 0.69103 0.0
O17 O 0.01993 0.77138 0.63087 0.0
C18 C 0.99727 0.77537 0.2869 0.0
C19 C 0.97792 0.68738 0.17662 0.0
O20 O 0.96138 0.70143 0.15435 0.0
O21 O 0.98974 0.69224 0.24591 0.0
O22 O 0.76841 0.95234 0.22564 0.0
Cd23 Cd 0.80586 0.9476 0.30208 0.0
O24 O 0.76522 0.98013 0.32323 0.0
Cd25 Cd 0.74919 0.00809 0.40022 0.0
O26 O 0.71908 0.01416 0.48339 0.0
C27 C 0.71269 0.99605 0.52526 0.0
O28 O 0.72619 0.97735 0.5233 0.0
C29 C 0.75624 0.96861 0.25973 0.0
C30 C 0.84296 0.96301 0.20029 0.0
O31 O 0.83823 0.94108 0.20641 0.0
O32 O 0.83026 0.97764 0.2429 0.0
O33 O 0.54905 0.77635 0.21235 0.0
Cd34 Cd 0.5553 0.81343 0.29059 0.0
O35 O 0.51455 0.77678 0.27494 0.0
Cd36 Cd 0.48403 0.75751 0.32072 0.0
O37 O 0.47907 0.72338 0.38028 0.0
C38 C 0.49822 0.71437 0.40671 0.0
O39 O 0.51772 0.72643 0.39774 0.0
C40 C 0.52935 0.76657 0.22562 0.0
C41 C 0.53974 0.85168 0.19375 0.0
O42 O 0.56147 0.84583 0.19416 0.0
O43 O 0.52543 0.83954 0.23955 0.0
O44 O 0.26424 0.50443 0.09367 0.0
Cd45 Cd 0.29967 0.49297 0.01587 0.0
O46 O 0.25395 0.4675 0.1072 0.0
Cd47 Cd 0.27144 0.45764 0.98622 0.0
O48 O 0.2373 0.45841 0.91988 0.0
C49 C 0.22768 0.47842 0.9115 0.0
O50 O 0.24004 0.49727 0.92999 0.0
C51 C 0.25109 0.48895 0.12756 0.0
C52 C 0.33518 0.49042 0.14123 0.0
O53 O 0.33093 0.50954 0.1002 0.0
O54 O 0.32312 0.4722 0.12069 0.0
O55 O 0.02857 0.26666 0.15473 0.0
Cd56 Cd 0.04331 0.30602 0.12242 0.0
O57 O 0.03136 0.25894 0.01493 0.0
Cd58 Cd 0.0264 0.24064 0.88999 0.0
O59 O 0.01475 0.2486 0.74989 0.0
C60 C 0.00582 0.23411 0.69493 0.0
O61 O 0.01484 0.24951 0.74861 0.0
C62 C 0.02633 0.25217 0.09181 0.0
C63 C 0.03154 0.33954 0.24845 0.0
O64 O 0.01888 0.3368 0.17963 0.0
O65 O 0.04956 0.32631 0.25785 0.0
O66 O 0.22345 0.93797 0.1415 0.0
Cd67 Cd 0.18554 0.93256 0.06828 0.0
O68 O 0.22316 0.97127 0.07122 0.0
Cd69 Cd 0.24079 0.00134 0.01432 0.0
O70 O 0.2743 0.00996 0.95706 0.0
C71 C 0.2834 0.03017 0.94968 0.0
O72 O 0.27175 0.04873 0.97652 0.0
C73 C 0.23359 0.95714 0.12265 0.0
C74 C 0.14902 0.94789 0.17399 0.0
O75 O 0.15379 0.92598 0.16741 0.0
O76 O 0.1613 0.96247 0.12987 0.0
O77 O 0.529 0.23132 0.06469 0.0
Cd78 Cd 0.53183 0.19139 0.00841 0.0
O79 O 0.49052 0.22905 0.0579 0.0
Cd80 Cd 0.45754 0.2485 0.05763 0.0
O81 O 0.45067 0.28375 0.00958 0.0
C82 C 0.46609 0.29022 0.95484 0.0
O83 O 0.48226 0.27511 0.93063 0.0
C84 C 0.509 0.24057 0.07676 0.0
C85 C 0.52397 0.16006 0.14426 0.0
O86 O 0.54462 0.1678 0.12808 0.0
O87 O 0.50704 0.16687 0.09502 0.0
Gd88 Gd 0.01108 0.00634 0.79021 0.0
Gd89 Gd 0.98974 0.01231 0.60426 0.0
C90 C 0.99669 0.9608 0.67787 0.0
C91 C 0.02065 0.00144 0.95426 0.0
C92 C 0.02914 0.98092 0.00294 0.0
C93 C 0.02843 0.98047 0.09456 0.0
C94 C 0.03494 0.96045 0.95688 0.0
C95 C 0.03661 0.93837 0.09294 0.0
C96 C 0.03851 0.9394 0.00118 0.0
C97 C 0.03232 0.95939 0.13934 0.0
C98 C 0.0407 0.99704 0.65709 0.0
C99 C 0.00804 0.05826 0.71176 0.0
C100 C 0.97771 0.02572 0.44927 0.0
C101 C 0.98329 0.04624 0.39438 0.0
C102 C 0.96488 0.05931 0.35775 0.0
C103 C 0.00645 0.05419 0.38432 0.0
C104 C 0.99254 0.08873 0.30575 0.0
C105 C 0.01104 0.07508 0.33984 0.0
C106 C 0.96941 0.08037 0.31428 0.0
C107 C 0.95887 0.00489 0.73476 0.0
O108 O 0.99732 0.97042 0.75692 0.0
O109 O 0.99685 0.97351 0.60544 0.0
O110 O 0.03542 0.01079 0.89865 0.0
O111 O 0.99954 0.99874 0.92138 0.0
O112 O 0.04147 0.9865 0.73191 0.0
O113 O 0.02552 0.01312 0.65836 0.0
O114 O 0.00223 0.04892 0.63537 0.0
O115 O 0.01085 0.04562 0.78327 0.0
O116 O 0.96543 0.03048 0.51935 0.0
O117 O 0.99449 0.01039 0.4635 0.0
O118 O 0.95646 0.99628 0.65672 0.0
O119 O 0.9769 0.01756 0.73896 0.0
H120 H 0.0239 0.99614 0.1312 0.0
H121 H 0.03544 0.96049 0.88608 0.0
H122 H 0.04136 0.92372 0.96261 0.0
H123 H 0.03109 0.95944 0.20999 0.0
H124 H 0.94685 0.05362 0.36541 0.0
H125 H 0.02101 0.04463 0.41246 0.0
H126 H 0.02911 0.08068 0.33328 0.0
H127 H 0.95466 0.09048 0.29029 0.0
Gd128 Gd 0.50458 0.0197 0.78621 0.0
Gd129 Gd 0.48686 -0.00021 0.60977 0.0
C130 C 0.54068 0.99411 0.65449 0.0
C131 C 0.52595 0.0267 0.93374 0.0
C132 C 0.54831 0.01892 0.97269 0.0
C133 C 0.56131 0.03465 0.02419 0.0
C134 C 0.55744 0.99647 0.9555 0.0
C135 C 0.59291 0.00606 0.0379 0.0
C136 C 0.57953 0.99008 0.98798 0.0
C137 C 0.58337 0.0283 0.0566 0.0
C138 C 0.50222 0.0502 0.65186 0.0
C139 C 0.45026 0.0244 0.75015 0.0
C140 C 0.4677 0.99441 0.45694 0.0
C141 C 0.44378 0.99234 0.42022 0.0
C142 C 0.4397 0.97759 0.34808 0.0
C143 C 0.4249 0.00471 0.45689 0.0
C144 C 0.39799 0.98723 0.35073 0.0
C145 C 0.40222 0.00215 0.42269 0.0
C146 C 0.41704 0.97509 0.31348 0.0
C147 C 0.49024 0.96823 0.73933 0.0
O148 O 0.53428 0.99731 0.73665 0.0
O149 O 0.52583 0.99772 0.58906 0.0
O150 O 0.52777 0.04087 0.86704 0.0
O151 O 0.50976 0.01068 0.92248 0.0
O152 O 0.49724 0.05597 0.73198 0.0
O153 O 0.50904 0.02929 0.64811 0.0
O154 O 0.45452 0.01701 0.66916 0.0
O155 O 0.46666 0.02502 0.8113 0.0
O156 O 0.47494 0.97684 0.50489 0.0
O157 O 0.47356 0.01488 0.48967 0.0
O158 O 0.49376 0.96315 0.65752 0.0
O159 O 0.48333 0.98915 0.7474 0.0
H160 H 0.55453 0.05202 0.03831 0.0
H161 H 0.54774 0.98403 0.91559 0.0
H162 H 0.5864 0.97288 0.97186 0.0
H163 H 0.59298 0.04086 0.09623 0.0
H164 H 0.45404 0.96787 0.31883 0.0
H165 H 0.4277 0.01634 0.51194 0.0
H166 H 0.38802 0.01199 0.45223 0.0
H167 H 0.41436 0.96326 0.25867 0.0
Gd168 Gd 0.48069 0.51178 0.76641 0.0
Gd169 Gd 0.505 0.49229 0.60344 0.0
C170 C 0.50037 0.54717 0.61757 0.0
C171 C 0.47077 0.53564 0.90579 0.0
C172 C 0.4779 0.5588 0.93956 0.0
C173 C 0.46355 0.57064 0.99939 0.0
C174 C 0.49864 0.56952 0.91056 0.0
C175 C 0.49048 0.60391 0.00074 0.0
C176 C 0.50486 0.59189 0.94077 0.0
C177 C 0.46978 0.59297 0.02985 0.0
C178 C 0.45106 0.49757 0.6388 0.0
C179 C 0.48302 0.45691 0.74849 0.0
C180 C 0.51967 0.46958 0.46704 0.0
C181 C 0.51601 0.44679 0.42342 0.0
C182 C 0.53552 0.43498 0.3893 0.0
C183 C 0.49368 0.43641 0.41671 0.0
C184 C 0.51072 0.4024 0.3436 0.0
C185 C 0.49105 0.41441 0.37655 0.0
C186 C 0.53294 0.41299 0.34997 0.0
C187 C 0.53386 0.50732 0.73242 0.0
O188 O 0.4964 0.54356 0.70157 0.0
O189 O 0.50166 0.52963 0.56112 0.0
O190 O 0.45769 0.53585 0.83529 0.0
O191 O 0.48721 0.51962 0.90304 0.0
O192 O 0.44619 0.49635 0.72163 0.0
O193 O 0.47036 0.50794 0.62757 0.0
O194 O 0.48782 0.46047 0.66477 0.0
O195 O 0.48218 0.47428 0.80571 0.0
O196 O 0.53025 0.46891 0.54303 0.0
O197 O 0.50241 0.48468 0.46467 0.0
O198 O 0.53823 0.51003 0.64995 0.0
O199 O 0.51513 0.49598 0.7421 0.0
H200 H 0.44741 0.56268 0.02204 0.0
H201 H 0.51001 0.56064 0.8644 0.0
H202 H 0.52104 0.59967 0.91776 0.0
H203 H 0.45815 0.60186 0.07508 0.0
H204 H 0.55287 0.44272 0.39371 0.0
H205 H 0.47837 0.44516 0.44314 0.0
H206 H 0.47375 0.40656 0.37302 0.0
H207 H 0.54835 0.40426 0.32426 0.0
Gd208 Gd 0.9984 0.49546 0.83714 0.0
Gd209 Gd 0.0142 0.51521 0.66301 0.0
C210 C 0.95869 0.50842 0.6998 0.0
C211 C 0.98504 0.48805 0.99571 0.0
C212 C 0.96146 0.4903 0.03466 0.0
C213 C 0.95355 0.47389 0.09604 0.0
C214 C 0.94585 0.50753 0.00421 0.0
C215 C 0.91445 0.49152 0.09365 0.0
C216 C 0.92274 0.50829 0.03392 0.0
C217 C 0.93025 0.47447 0.1253 0.0
C218 C 0.00167 0.46377 0.70609 0.0
C219 C 0.05434 0.49867 0.79392 0.0
C220 C 0.02585 0.52467 0.50405 0.0
C221 C 0.04875 0.52296 0.46079 0.0
C222 C 0.05489 0.53877 0.39467 0.0
C223 C 0.06545 0.50683 0.49131 0.0
C224 C 0.09453 0.52274 0.39208 0.0
C225 C 0.08804 0.50663 0.45703 0.0
C226 C 0.07764 0.53863 0.36026 0.0
C227 C 0.01083 0.5468 0.79431 0.0
O228 O 0.96353 0.50638 0.78384 0.0
O229 O 0.97544 0.51007 0.64059 0.0
O230 O 0.98718 0.47123 0.93784 0.0
O231 O 0.99512 0.50762 0.97114 0.0
O232 O 0.98569 0.46296 0.76618 0.0
O233 O 0.0158 0.48025 0.72133 0.0
O234 O 0.04863 0.50196 0.71114 0.0
O235 O 0.03811 0.49775 0.85605 0.0
O236 O 0.02464 0.54063 0.5655 0.0
O237 O 0.01624 0.50474 0.52683 0.0
O238 O 0.02728 0.547 0.73604 0.0
O239 O 0.99644 0.53053 0.77833 0.0
H240 H 0.96519 0.46023 0.11942 0.0
H241 H 0.95131 0.52014 0.9557 0.0
H242 H 0.91131 0.52195 0.00923 0.0
H243 H 0.92446 0.4611 0.17052 0.0
H244 H 0.04229 0.55154 0.37116 0.0
H245 H 0.0612 0.49462 0.54289 0.0
H246 H 0.10047 0.49385 0.48167 0.0
H247 H 0.08217 0.55132 0.31051 0.0
C248 C 0.11121 0.94224 0.25332 0.0
C249 C 0.13077 0.95624 0.23466 0.0
C250 C 0.09464 0.94941 0.31575 0.0
C251 C 0.0983 0.9706 0.36257 0.0
C252 C 0.11775 0.98504 0.34227 0.0
C253 C 0.13355 0.97784 0.27744 0.0
C254 C 0.07351 0.93412 0.33277 0.0
C255 C 0.12243 0.00758 0.39165 0.0
C256 C 0.05095 -2e-05 0.4987 0.0
C257 C 0.05532 0.99051 0.58146 0.0
C258 C 0.06397 0.99281 0.42558 0.0
C259 C 0.08284 0.97692 0.43706 0.0
C260 C 0.08775 0.9678 0.52128 0.0
C261 C 0.0736 0.97434 0.59212 0.0
C262 C 0.05761 0.0026 0.33689 0.0
C263 C 0.10828 0.95154 0.53705 0.0
H264 H 0.10889 0.92567 0.21921 0.0
H265 H 0.14872 0.98863 0.26306 0.0
H266 H 0.07481 0.92634 0.39901 0.0
H267 H 0.05724 0.94483 0.33102 0.0
H268 H 0.07189 0.91963 0.2843 0.0
H269 H 0.13852 0.01662 0.36858 0.0
H270 H 0.10734 0.0197 0.3842 0.0
H271 H 0.12442 0.00384 0.46254 0.0
H272 H 0.03726 0.0129 0.49104 0.0
H273 H 0.07715 0.96712 0.65636 0.0
H274 H 0.06128 0.98986 0.28354 0.0
H275 H 0.0681 0.01865 0.32478 0.0
H276 H 0.03876 0.00754 0.33375 0.0
H277 H 0.10621 0.9353 0.49759 0.0
H278 H 0.11008 0.94658 0.60699 0.0
H279 H 0.12479 0.96013 0.5159 0.0
C280 C 0.53781 0.1393 0.2786 0.0
C281 C 0.51978 0.14403 0.2185 0.0
C282 C 0.53407 0.12442 0.35005 0.0
C283 C 0.5118 0.11385 0.36127 0.0
C284 C 0.49352 0.11849 0.3008 0.0
C285 C 0.4977 0.13362 0.23026 0.0
C286 C 0.55399 0.11991 0.41335 0.0
C287 C 0.46964 0.1073 0.31017 0.0
C288 C 0.51096 0.05814 0.49557 0.0
C289 C 0.50332 0.06643 0.57713 0.0
C290 C 0.51322 0.07329 0.42418 0.0
C291 C 0.50795 0.09739 0.43495 0.0
C292 C 0.4999 0.10583 0.51688 0.0
C293 C 0.4976 0.09018 0.58716 0.0
C294 C 0.52173 0.06358 0.33778 0.0
C295 C 0.49422 0.13145 0.53073 0.0
H296 H 0.55489 0.14735 0.27016 0.0
H297 H 0.48369 0.13716 0.18398 0.0
H298 H 0.54857 0.12468 0.48078 0.0
H299 H 0.55843 0.10095 0.41352 0.0
H300 H 0.57003 0.13001 0.3967 0.0
H301 H 0.45721 0.11297 0.2582 0.0
H302 H 0.47132 0.08791 0.30731 0.0
H303 H 0.46205 0.1118 0.37484 0.0
H304 H 0.51551 0.03978 0.48768 0.0
H305 H 0.49172 0.09659 0.65025 0.0
H306 H 0.53888 0.07157 0.32101 0.0
H307 H 0.50922 0.06817 0.28472 0.0
H308 H 0.52384 0.0442 0.33908 0.0
H309 H 0.51022 0.14218 0.52063 0.0
H310 H 0.48737 0.13504 0.59743 0.0
H311 H 0.48098 0.13729 0.48202 0.0
C312 C 0.36368 0.51046 0.24119 0.0
C313 C 0.35276 0.48971 0.21278 0.0
C314 C 0.37945 0.51039 0.31183 0.0
C315 C 0.38462 0.48901 0.3547 0.0
C316 C 0.37395 0.46793 0.32566 0.0
C317 C 0.35805 0.46854 0.25522 0.0
C318 C 0.39044 0.53326 0.34109 0.0
C319 C 0.37933 0.44476 0.36897 0.0
C320 C 0.44171 0.48968 0.48236 0.0
C321 C 0.43392 0.49329 0.568 0.0
C322 C 0.42582 0.48697 0.4129 0.0
C323 C 0.40147 0.48885 0.42921 0.0
C324 C 0.39341 0.49212 0.51604 0.0
C325 C 0.40977 0.49394 0.58478 0.0
C326 C 0.43517 0.48279 0.32179 0.0
C327 C 0.36759 0.4947 0.5358 0.0
H328 H 0.35965 0.5269 0.20898 0.0
H329 H 0.34969 0.45243 0.23362 0.0
H330 H 0.38638 0.53658 0.41102 0.0
H331 H 0.40982 0.5322 0.33527 0.0
H332 H 0.38416 0.54843 0.30202 0.0
H333 H 0.36985 0.42989 0.3376 0.0
H334 H 0.39847 0.44121 0.36616 0.0
H335 H 0.37442 0.44552 0.43909 0.0
H336 H 0.46027 0.48915 0.46947 0.0
H337 H 0.40369 0.49685 0.65108 0.0
H338 H 0.45434 0.47918 0.32186 0.0
H339 H 0.43181 0.49846 0.28073 0.0
H340 H 0.42598 0.46775 0.29057 0.0
H341 H 0.36068 0.5107 0.50354 0.0
H342 H 0.36413 0.49604 0.60715 0.0
H343 H 0.35766 0.47953 0.50897 0.0
C344 C 0.01011 0.37591 0.2947 0.0
C345 C 0.0258 0.3577 0.3146 0.0
C346 C 0.00525 0.39369 0.35599 0.0
C347 C 0.01605 0.39298 0.43956 0.0
C348 C 0.03158 0.37441 0.46046 0.0
C349 C 0.03641 0.3571 0.39751 0.0
C350 C 0.98888 0.41341 0.33087 0.0
C351 C 0.04319 0.37288 0.54928 0.0
C352 C 0.02313 0.44832 0.5762 0.0
C353 C 0.00467 0.44617 0.63591 0.0
C354 C 0.02659 0.43153 0.51018 0.0
C355 C 0.01148 0.41183 0.505 0.0
C356 C 0.99267 0.40966 0.56481 0.0
C357 C 0.98939 0.42698 0.62929 0.0
C358 C 0.04664 0.43468 0.44692 0.0
C359 C 0.97636 0.38879 0.56196 0.0
H360 H 0.00195 0.37653 0.23055 0.0
H361 H 0.04845 0.34301 0.41346 0.0
H362 H 0.97395 0.41427 0.37715 0.0
H363 H 0.99828 0.43044 0.33529 0.0
H364 H 0.98182 0.41134 0.26341 0.0
H365 H 0.05419 0.35688 0.55616 0.0
H366 H 0.05445 0.3885 0.56044 0.0
H367 H 0.02967 0.37281 0.60136 0.0
H368 H 0.03503 0.46306 0.58159 0.0
H369 H 0.9751 0.42528 0.67546 0.0
H370 H 0.04008 0.43367 0.37854 0.0
H371 H 0.05958 0.42033 0.45555 0.0
H372 H 0.0558 0.45173 0.45629 0.0
H373 H 0.96818 0.38719 0.49623 0.0
H374 H 0.96222 0.39004 0.61163 0.0
H375 H 0.98648 0.37245 0.57366 0.0
C376 C 0.88136 0.95692 0.12614 0.0
C377 C 0.86186 0.97121 0.14247 0.0
C378 C 0.89863 0.96378 0.06628 0.0
C379 C 0.89579 0.98502 0.01964 0.0
C380 C 0.8764 -0.0002 0.03762 0.0
C381 C 0.85982 0.99285 0.09998 0.0
C382 C 0.91949 0.94796 0.05092 0.0
C383 C 0.87247 0.02228 0.98763 0.0
C384 C 0.94659 0.01036 0.89032 0.0
C385 C 0.94261 0.00047 0.80753 0.0
C386 C 0.93174 0.0052 0.96078 0.0
C387 C 0.91191 0.99069 0.94664 0.0
C388 C 0.90737 0.98137 0.86222 0.0
C389 C 0.92298 0.98613 0.79394 0.0
C390 C 0.93746 0.01497 0.05035 0.0
C391 C 0.88604 0.96635 0.84396 0.0
H392 H 0.88306 0.94029 0.15986 0.0
H393 H 0.84465 0.00385 0.1124 0.0
H394 H 0.91828 0.94002 0.98465 0.0
H395 H 0.93602 0.95824 0.05376 0.0
H396 H 0.92052 0.93358 0.09968 0.0
H397 H 0.85735 0.03249 0.0133 0.0
H398 H 0.88836 0.03348 0.99041 0.0
H399 H 0.86909 0.01811 0.91769 0.0
H400 H 0.96141 0.02198 0.90024 0.0
H401 H 0.91973 0.97866 0.72966 0.0
H402 H 0.93906 0.00044 0.09814 0.0
H403 H 0.92302 0.02651 0.07312 0.0
H404 H 0.95406 0.02521 0.05092 0.0
H405 H 0.88699 0.94999 0.88294 0.0
H406 H 0.88443 0.96151 0.77369 0.0
H407 H 0.86989 0.9758 0.86398 0.0
C408 C 0.54687 0.88864 0.11034 0.0
C409 C 0.53129 0.87126 0.13895 0.0
C410 C 0.53939 0.9063 0.05286 0.0
C411 C 0.51596 0.90614 0.02161 0.0
C412 C 0.49997 0.8891 0.05263 0.0
C413 C 0.50778 0.87201 0.11176 0.0
C414 C 0.55677 0.92462 0.02314 0.0
C415 C 0.47495 0.88813 0.01973 0.0
C416 C 0.49142 0.95871 0.89898 0.0
C417 C 0.49585 0.95226 0.81208 0.0
C418 C 0.49821 0.94409 0.96842 0.0
C419 C 0.50887 0.92219 0.94985 0.0
C420 C 0.51268 0.91532 0.8619 0.0
C421 C 0.50631 0.93054 0.79415 0.0
C422 C 0.49426 0.95217 0.06139 0.0
C423 C 0.52359 0.89191 0.83927 0.0
H424 H 0.565 0.88829 0.13218 0.0
H425 H 0.49569 0.85858 0.13369 0.0
H426 H 0.56083 0.92192 0.95287 0.0
H427 H 0.54913 0.94245 0.02991 0.0
H428 H 0.57345 0.92394 0.06093 0.0
H429 H 0.46428 0.87496 0.0553 0.0
H430 H 0.46644 0.90554 0.02643 0.0
H431 H 0.47486 0.88352 0.94909 0.0
H432 H 0.48273 0.97521 0.9127 0.0
H433 H 0.50963 0.92545 0.7269 0.0
H434 H 0.51122 0.95266 0.09725 0.0
H435 H 0.48273 0.93958 0.09594 0.0
H436 H 0.48613 0.96988 0.06462 0.0
H437 H 0.54159 0.8909 0.86693 0.0
H438 H 0.52459 0.88891 0.7675 0.0
H439 H 0.51323 0.87748 0.86872 0.0
C440 C 0.62522 0.54042 0.11597 0.0
C441 C 0.63921 0.52062 0.13189 0.0
C442 C 0.60717 0.53976 0.05319 0.0
C443 C 0.60337 0.51895 0.00425 0.0
C444 C 0.61753 0.49897 0.01978 0.0
C445 C 0.63515 0.49999 0.08396 0.0
C446 C 0.59211 0.56126 0.0394 0.0
C447 C 0.61421 0.47656 0.96803 0.0
C448 C 0.54553 0.50639 0.88981 0.0
C449 C 0.55086 0.51215 0.80311 0.0
C450 C 0.56215 0.50946 0.95679 0.0
C451 C 0.58478 0.51801 0.93596 0.0
C452 C 0.59007 0.52434 0.84872 0.0
C453 C 0.57294 0.52149 0.78336 0.0
C454 C 0.55574 0.50288 0.04929 0.0
C455 C 0.61408 0.53327 0.82383 0.0
H456 H 0.62819 0.55636 0.1533 0.0
H457 H 0.64599 0.48467 0.09573 0.0
H458 H 0.59384 0.56748 0.97103 0.0
H459 H 0.57336 0.55681 0.04962 0.0
H460 H 0.59695 0.57585 0.0844 0.0
H461 H 0.6269 0.4627 0.98742 0.0
H462 H 0.59617 0.46975 0.97746 0.0
H463 H 0.61635 0.48011 0.89715 0.0
H464 H 0.52853 0.49898 0.9051 0.0
H465 H 0.57709 0.52596 0.71627 0.0
H466 H 0.56007 0.51745 0.09496 0.0
H467 H 0.56613 0.48738 0.06995 0.0
H468 H 0.53679 0.49862 0.05583 0.0
H469 H 0.61888 0.54866 0.86479 0.0
H470 H 0.61502 0.5384 0.75386 0.0
H471 H 0.62739 0.51944 0.83621 0.0
C472 C 0.97319 0.66329 0.04058 0.0
C473 C 0.98299 0.66604 0.12431 0.0
C474 C 0.97783 0.64322 0.99002 0.0
C475 C 0.99235 0.6253 0.02448 0.0
C476 C 0.00203 0.62781 0.10947 0.0
C477 C 0.99738 0.64824 0.15814 0.0
C478 C 0.96741 0.64133 0.89921 0.0
C479 C 0.01733 0.60892 0.14885 0.0
C480 C 0.98744 0.5657 0.9133 0.0
C481 C 0.00687 0.56604 0.85747 0.0
C482 C 0.9829 0.58453 0.97035 0.0
C483 C 0.99795 0.60432 0.97015 0.0
C484 C 0.01782 0.60455 0.91479 0.0
C485 C 0.02213 0.58532 0.85955 0.0
C486 C 0.96173 0.58344 0.02933 0.0
C487 C 0.03417 0.62541 0.91203 0.0
H488 H 0.96208 0.67698 0.01395 0.0
H489 H 0.00486 0.65017 0.2231 0.0
H490 H 0.98166 0.63976 0.85022 0.0
H491 H 0.95649 0.62527 0.8938 0.0
H492 H 0.95638 0.65674 0.88224 0.0
H493 H 0.02278 0.61315 0.217 0.0
H494 H 0.00781 0.59193 0.14887 0.0
H495 H 0.03332 0.6065 0.10861 0.0
H496 H 0.9756 0.55087 0.9114 0.0
H497 H 0.03719 0.58564 0.81643 0.0
H498 H 0.94889 0.59711 0.00984 0.0
H499 H 0.96694 0.58713 0.09805 0.0
H500 H 0.9529 0.56606 0.02657 0.0
H501 H 0.02439 0.64116 0.88991 0.0
H502 H 0.04922 0.62252 0.86726 0.0
H503 H 0.04109 0.62927 0.97847 0.0
C504 C 0.00251 0.22372 0.17719 0.0
C505 C 0.01851 0.22795 0.10964 0.0
C506 C 0.99699 0.20075 0.20269 0.0
C507 C 0.00835 0.18158 0.16155 0.0
C508 C 0.02408 0.18576 0.09167 0.0
C509 C 0.02873 0.20893 0.06569 0.0
C510 C 0.9796 0.19703 0.27568 0.0
C511 C 0.03705 0.16587 0.04783 0.0
C512 C 0.01476 0.12678 0.30029 0.0
C513 C 0.99723 0.11209 0.26553 0.0
C514 C 0.01889 0.14916 0.26565 0.0
C515 C 0.00487 0.15736 0.19542 0.0
C516 C 0.98723 0.14266 0.15959 0.0
C517 C 0.98373 0.12016 0.19461 0.0
C518 C 0.03803 0.16419 0.30537 0.0
C519 C 0.97146 0.15095 0.08635 0.0
H520 H 0.99453 0.23845 0.21098 0.0
H521 H 0.04139 0.21219 0.01433 0.0
H522 H 0.96604 0.18412 0.25528 0.0
H523 H 0.98873 0.18972 0.33376 0.0
H524 H 0.97074 0.21359 0.29533 0.0
H525 H 0.04619 0.17168 0.98766 0.0
H526 H 0.05032 0.15871 0.09387 0.0
H527 H 0.02487 0.15136 0.03089 0.0
H528 H 0.02498 0.12104 0.35615 0.0
H529 H 0.97031 0.10894 0.16646 0.0
H530 H 0.03024 0.1801 0.3356 0.0
H531 H 0.05027 0.17014 0.25369 0.0
H532 H 0.04823 0.15472 0.35629 0.0
H533 H 0.95854 0.16365 0.11299 0.0
H534 H 0.96168 0.13624 0.05527 0.0
H535 H 0.98168 0.16019 0.03535 0.0
C536 C 0.27333 0.94369 0.17183 0.0
C537 C 0.25765 0.96214 0.15535 0.0
C538 C 0.29627 0.94811 0.20188 0.0
C539 C 0.30371 0.97156 0.21611 0.0
C540 C 0.28791 0.99024 0.20001 0.0
C541 C 0.265 0.98528 0.17091 0.0
C542 C 0.31256 0.92769 0.21842 0.0
C543 C 0.29511 0.01548 0.21425 0.0
C544 C 0.35481 0.98114 0.37332 0.0
C545 C 0.37375 0.98396 0.31586 0.0
C546 C 0.33193 0.97738 0.34171 0.0
C547 C 0.32781 0.97642 0.25029 0.0
C548 C 0.34678 0.97961 0.19186 0.0
C549 C 0.36951 0.98329 0.22532 0.0
C550 C 0.3122 0.97411 0.40627 0.0
C551 C 0.34307 0.9791 0.094 0.0
H552 H 0.26772 0.92576 0.16037 0.0
H553 H 0.2527 0.99956 0.1621 0.0
H554 H 0.32857 0.92946 0.17784 0.0
H555 H 0.31826 0.9277 0.28793 0.0
H556 H 0.30418 0.91053 0.20338 0.0
H557 H 0.28098 0.028 0.19611 0.0
H558 H 0.29984 0.01834 0.28398 0.0
H559 H 0.31091 0.01953 0.17485 0.0
H560 H 0.35795 0.98139 0.44333 0.0
H561 H 0.38399 0.98583 0.18049 0.0
H562 H 0.30433 0.95643 0.39771 0.0
H563 H 0.29813 0.98715 0.39387 0.0
H564 H 0.31821 0.97599 0.4752 0.0
H565 H 0.3355 0.96196 0.07379 0.0
H566 H 0.35963 0.98195 0.05745 0.0
H567 H 0.33032 0.99288 0.07491 0.0
C568 C 0.52118 0.28265 0.07651 0.0
C569 C 0.50724 0.26472 0.11105 0.0
C570 C 0.51984 0.3056 0.10997 0.0
C571 C 0.50507 0.31037 0.18227 0.0
C572 C 0.49086 0.29228 0.21689 0.0
C573 C 0.49191 0.26971 0.18001 0.0
C574 C 0.53444 0.32468 0.0688 0.0
C575 C 0.47508 0.2966 0.29445 0.0
C576 C 0.52395 0.36078 0.32931 0.0
C577 C 0.5084 0.37864 0.30438 0.0
C578 C 0.52276 0.33842 0.29098 0.0
C579 C 0.50571 0.33382 0.2255 0.0
C580 C 0.48962 0.35163 0.20126 0.0
C581 C 0.49116 0.37387 0.24101 0.0
C582 C 0.53984 0.31974 0.32036 0.0
C583 C 0.47137 0.34752 0.13113 0.0
H584 H 0.53284 0.27877 0.02245 0.0
H585 H 0.48126 0.25573 0.20694 0.0
H586 H 0.5232 0.33995 0.05215 0.0
H587 H 0.54792 0.33088 0.11608 0.0
H588 H 0.54341 0.31857 0.00842 0.0
H589 H 0.46468 0.28082 0.312 0.0
H590 H 0.48582 0.30189 0.35198 0.0
H591 H 0.46281 0.31123 0.28032 0.0
H592 H 0.53706 0.36431 0.37929 0.0
H593 H 0.47927 0.38771 0.22094 0.0
H594 H 0.55109 0.31435 0.26471 0.0
H595 H 0.53014 0.30394 0.34226 0.0
H596 H 0.55134 0.32586 0.37473 0.0
H597 H 0.48009 0.34799 0.06652 0.0
H598 H 0.45742 0.36114 0.13221 0.0
H599 H 0.46303 0.33004 0.13777 0.0
C600 C 0.21343 0.47919 0.20145 0.0
C601 C 0.23044 0.49597 0.17986 0.0
C602 C 0.1922 0.48583 0.24004 0.0
C603 C 0.18794 0.50981 0.25844 0.0
C604 C 0.20538 0.52676 0.24028 0.0
C605 C 0.22643 0.51964 0.20074 0.0
C606 C 0.17391 0.46724 0.25778 0.0
C607 C 0.2015 0.55246 0.2597 0.0
C608 C 0.12317 0.52425 0.26813 0.0
C609 C 0.11888 0.52266 0.35817 0.0
C610 C 0.14595 0.52153 0.23503 0.0
C611 C 0.16474 0.51693 0.29341 0.0
C612 C 0.16072 0.51664 0.38463 0.0
C613 C 0.13784 0.51964 0.41592 0.0
C614 C 0.14976 0.52255 0.13741 0.0
C615 C 0.18035 0.51199 0.44896 0.0
H616 H 0.2163 0.46088 0.18523 0.0
H617 H 0.23948 0.53272 0.18415 0.0
H618 H 0.16832 0.46804 0.3272 0.0
H619 H 0.15814 0.47053 0.21672 0.0
H620 H 0.18042 0.44925 0.24354 0.0
H621 H 0.21778 0.56294 0.25159 0.0
H622 H 0.18791 0.55951 0.21477 0.0
H623 H 0.19497 0.5549 0.32743 0.0
H624 H 0.1086 0.52662 0.2232 0.0
H625 H 0.1347 0.51908 0.48576 0.0
H626 H 0.15684 0.50556 0.11356 0.0
H627 H 0.16296 0.53619 0.12183 0.0
H628 H 0.13333 0.52656 0.10113 0.0
H629 H 0.18649 0.49361 0.44148 0.0
H630 H 0.17475 0.51468 0.51785 0.0
H631 H 0.19553 0.5236 0.43547 0.0
C632 C 0.02505 0.80922 0.31045 0.0
C633 C 0.0063 0.79899 0.26439 0.0
C634 C 0.03317 0.83182 0.28923 0.0
C635 C 0.02215 0.84448 0.22087 0.0
C636 C 0.00351 0.83403 0.17322 0.0
C637 C 0.9959 0.81143 0.19533 0.0
C638 C 0.05358 0.84212 0.33945 0.0
C639 C 0.99137 0.84684 0.0994 0.0
C640 C 0.02078 0.91083 0.20653 0.0
C641 C 0.03644 0.91509 0.1376 0.0
C642 C 0.01734 0.88808 0.23892 0.0
C643 C 0.02938 0.86897 0.2002 0.0
C644 C 0.04632 0.87328 0.13473 0.0
C645 C 0.04987 0.89631 0.10512 0.0
C646 C 0.99949 0.88437 0.31028 0.0
C647 C 0.05947 0.85344 0.0912 0.0
H648 H 0.03364 0.79947 0.36208 0.0
H649 H 0.98143 0.80363 0.15926 0.0
H650 H 0.06875 0.84441 0.29506 0.0
H651 H 0.04895 0.85977 0.36501 0.0
H652 H 0.05913 0.83076 0.3947 0.0
H653 H 0.97775 0.8359 0.06671 0.0
H654 H 0.98289 0.86299 0.12498 0.0
H655 H 0.00438 0.85232 0.04967 0.0
H656 H 0.01012 0.92499 0.23218 0.0
H657 H 0.06254 0.89941 0.05374 0.0
H658 H 0.00561 0.87094 0.35742 0.0
H659 H 0.98285 0.87798 0.28076 0.0
H660 H 0.99577 0.90089 0.34654 0.0
H661 H 0.06606 0.84076 0.14035 0.0
H662 H 0.07453 0.85988 0.05201 0.0
H663 H 0.04736 0.84379 0.04684 0.0
C664 C 0.71469 0.98165 0.28326 0.0
C665 C 0.73221 0.97354 0.2267 0.0
C666 C 0.69196 0.98667 0.25293 0.0
C667 C 0.68639 0.98288 0.16356 0.0
C668 C 0.70381 0.97398 0.10636 0.0
C669 C 0.72651 0.96945 0.1386 0.0
C670 C 0.67411 0.99553 0.31815 0.0
C671 C 0.69844 0.96926 0.01108 0.0
C672 C 0.62174 0.97747 0.1026 0.0
C673 C 0.61693 -0.00016 0.06887 0.0
C674 C 0.64431 0.97162 0.13301 0.0
C675 C 0.66251 0.98851 0.12944 0.0
C676 C 0.65775 0.01112 0.0957 0.0
C677 C 0.6351 0.01645 0.06534 0.0
C678 C 0.64856 0.94756 0.1708 0.0
C679 C 0.67647 0.02986 0.09368 0.0
H680 H 0.71854 0.9835 0.35193 0.0
H681 H 0.73989 0.96287 0.0946 0.0
H682 H 0.65881 0.00425 0.28725 0.0
H683 H 0.66764 0.98052 0.3574 0.0
H684 H 0.6824 0.00818 0.36421 0.0
H685 H 0.71371 0.96172 0.97574 0.0
H686 H 0.68346 0.95689 0.00534 0.0
H687 H 0.69317 0.98579 0.97832 0.0
H688 H 0.60774 0.96465 0.10685 0.0
H689 H 0.63163 0.03369 0.03844 0.0
H690 H 0.65293 0.94924 0.24141 0.0
H691 H 0.66378 0.93914 0.13817 0.0
H692 H 0.63302 0.93592 0.16373 0.0
H693 H 0.6827 0.0335 0.16131 0.0
H694 H 0.67002 0.04651 0.0646 0.0
H695 H 0.69179 0.02365 0.05545 0.0
C696 C 0.5418 0.72574 0.18679 0.0
C697 C 0.52429 0.743 0.18928 0.0
C698 C 0.53686 0.70298 0.15586 0.0
C699 C 0.51401 0.69756 0.12485 0.0
C700 C 0.49641 0.71512 0.12575 0.0
C701 C 0.50175 0.73759 0.15824 0.0
C702 C 0.55594 0.68461 0.15793 0.0
C703 C 0.47184 0.71007 0.09346 0.0
C704 C 0.50577 0.64467 0.97473 0.0
C705 C 0.49693 0.62779 0.0326 0.0
C706 C 0.51149 0.6674 0.00383 0.0
C707 C 0.50833 0.67343 0.09301 0.0
C708 C 0.49942 0.65646 0.15161 0.0
C709 C 0.49398 0.63385 0.12092 0.0
C710 C 0.52065 0.68505 0.93892 0.0
C711 C 0.49589 0.66202 0.2471 0.0
H712 H 0.55921 0.72988 0.2112 0.0
H713 H 0.4883 0.75104 0.15875 0.0
H714 H 0.55065 0.67005 0.20165 0.0
H715 H 0.55847 0.67705 0.09162 0.0
H716 H 0.57296 0.6918 0.18151 0.0
H717 H 0.4604 0.72585 0.09568 0.0
H718 H 0.47237 0.7034 0.02518 0.0
H719 H 0.46377 0.69617 0.13418 0.0
H720 H 0.50785 0.64024 0.9062 0.0
H721 H 0.48757 0.62081 0.16647 0.0
H722 H 0.53817 0.69146 0.96006 0.0
H723 H 0.50878 0.70048 0.93657 0.0
H724 H 0.52216 0.67759 0.87189 0.0
H725 H 0.51325 0.66276 0.28007 0.0
H726 H 0.48497 0.64861 0.28017 0.0
H727 H 0.48733 0.67935 0.2555 0.0
C728 C 0.78406 0.51898 0.25306 0.0
C729 C 0.76909 0.4995 0.24926 0.0
C730 C 0.80777 0.51703 0.22917 0.0
C731 C 0.81654 0.49522 0.19869 0.0
C732 C 0.80139 0.47555 0.19394 0.0
C733 C 0.77786 0.47792 0.21968 0.0
C734 C 0.82352 0.53824 0.2373 0.0
C735 C 0.81005 0.45202 0.16185 0.0
C736 C 0.87163 0.49715 0.05946 0.0
C737 C 0.88927 0.49157 0.12044 0.0
C738 C 0.84792 0.49808 0.0837 0.0
C739 C 0.84152 0.4931 0.17105 0.0
C740 C 0.85908 0.48668 0.23226 0.0
C741 C 0.88274 0.48621 0.20658 0.0
C742 C 0.82972 0.5046 0.0159 0.0
C743 C 0.85299 0.48088 0.32558 0.0
H744 H 0.77731 0.53564 0.27654 0.0
H745 H 0.76619 0.46292 0.21556 0.0
H746 H 0.83823 0.53436 0.28283 0.0
H747 H 0.83129 0.54246 0.17277 0.0
H748 H 0.81399 0.55394 0.26184 0.0
H749 H 0.79598 0.43852 0.16134 0.0
H750 H 0.81712 0.4537 0.09462 0.0
H751 H 0.8246 0.4458 0.20427 0.0
H752 H 0.87633 0.50076 0.99229 0.0
H753 H 0.89615 0.48209 0.25459 0.0
H754 H 0.82081 0.5211 0.03559 0.0
H755 H 0.81608 0.49074 0.01157 0.0
H756 H 0.83747 0.50708 0.94995 0.0
H757 H 0.86737 0.47122 0.35883 0.0
H758 H 0.83684 0.47007 0.329 0.0
H759 H 0.84963 0.49743 0.36187 0.0
C760 C 0.98883 0.1947 0.67634 0.0
C761 C 0.00688 0.20866 0.71025 0.0
C762 C 0.98974 0.17019 0.68264 0.0
C763 C 0.00972 0.15941 0.72037 0.0
C764 C 0.02809 0.17348 0.75476 0.0
C765 C 0.02632 0.19805 0.7504 0.0
C766 C 0.96941 0.15583 0.64806 0.0
C767 C 0.04998 0.16257 0.79291 0.0
C768 C 0.00361 0.09602 0.79263 0.0
C769 C 0.01063 0.08395 0.71717 0.0
C770 C 0.00366 0.12064 0.79538 0.0
C771 C 0.01151 0.13338 0.72166 0.0
C772 C 0.01973 0.12118 0.64683 0.0
C773 C 0.01877 0.09658 0.6449 0.0
C774 C 0.99394 0.13284 0.87523 0.0
C775 C 0.02893 0.13405 0.5678 0.0
H776 H 0.97392 0.20302 0.64482 0.0
H777 H 0.04057 0.20888 0.77477 0.0
H778 H 0.97516 0.14518 0.59116 0.0
H779 H 0.96324 0.14348 0.69905 0.0
H780 H 0.95441 0.16697 0.62724 0.0
H781 H 0.06184 0.17586 0.82285 0.0
H782 H 0.04533 0.1494 0.84323 0.0
H783 H 0.05966 0.15319 0.74047 0.0
H784 H 0.99701 0.08626 0.84813 0.0
H785 H 0.02433 0.08721 0.58663 0.0
H786 H 0.97548 0.13799 0.86205 0.0
H787 H 0.00387 0.14905 0.89091 0.0
H788 H 0.99417 0.1212 0.93342 0.0
H789 H 0.01414 0.14244 0.53237 0.0
H790 H 0.0381 0.12209 0.52162 0.0
H791 H 0.04125 0.14816 0.58808 0.0
C792 C 0.32045 0.0118 0.89773 0.0
C793 C 0.30744 0.03222 0.91452 0.0
C794 C 0.34357 0.01301 0.86785 0.0
C795 C 0.3539 0.0352 0.85315 0.0
C796 C 0.34077 0.05593 0.86799 0.0
C797 C 0.31766 0.0542 0.89909 0.0
C798 C 0.35706 0.99048 0.85334 0.0
C799 C 0.35126 0.07985 0.85207 0.0
C800 C 0.42012 0.03343 0.86365 0.0
C801 C 0.42592 0.03037 0.77515 0.0
C802 C 0.39675 0.03635 0.88964 0.0
C803 C 0.37878 0.03638 0.8255 0.0
C804 C 0.3846 0.0347 0.73577 0.0
C805 C 0.40813 0.03168 0.71169 0.0
C806 C 0.39119 0.0379 0.98611 0.0
C807 C 0.36591 0.03479 0.66543 0.0
H808 H 0.31273 0.99472 0.90948 0.0
H809 H 0.30765 0.07004 0.91155 0.0
H810 H 0.36265 0.9892 0.78403 0.0
H811 H 0.37318 0.99041 0.89429 0.0
H812 H 0.34654 0.97467 0.86943 0.0
H813 H 0.33835 0.0942 0.86251 0.0
H814 H 0.3664 0.0827 0.89671 0.0
H815 H 0.35799 0.08095 0.78416 0.0
H816 H 0.43372 0.03258 0.91331 0.0
H817 H 0.41246 0.02974 0.64323 0.0
H818 H 0.38202 0.02167 0.00688 0.0
H819 H 0.37923 0.05285 0.99931 0.0
H820 H 0.40724 0.04002 0.02692 0.0
H821 H 0.35591 0.01809 0.6677 0.0
H822 H 0.37349 0.03664 0.59892 0.0
H823 H 0.35326 0.04929 0.67662 0.0
C824 C 0.48863 0.32365 0.89367 0.0
C825 C 0.46725 0.31468 0.92395 0.0
C826 C 0.49058 0.34702 0.86669 0.0
C827 C 0.47051 0.36165 0.86813 0.0
C828 C 0.44879 0.35265 0.89796 0.0
C829 C 0.44747 0.32927 0.92642 0.0
C830 C 0.51419 0.35613 0.83774 0.0
C831 C 0.427 0.36771 0.89969 0.0
C832 C 0.48092 0.42742 0.86841 0.0
C833 C 0.47875 0.43274 0.77923 0.0
C834 C 0.47806 0.40439 0.89848 0.0
C835 C 0.47239 0.38634 0.83807 0.0
C836 C 0.46962 0.39171 0.7482 0.0
C837 C 0.47305 0.41484 0.7197 0.0
C838 C 0.48155 0.39934 0.99459 0.0
C839 C 0.46337 0.37296 0.68198 0.0
H840 H 0.50406 0.31251 0.89289 0.0
H841 H 0.43094 0.32237 0.94997 0.0
H842 H 0.5131 0.36239 0.7692 0.0
H843 H 0.51944 0.37132 0.87904 0.0
H844 H 0.52815 0.34255 0.842 0.0
H845 H 0.41132 0.35783 0.92201 0.0
H846 H 0.42973 0.38292 0.94408 0.0
H847 H 0.42342 0.37479 0.83342 0.0
H848 H 0.48547 0.44117 0.91469 0.0
H849 H 0.47121 0.41889 0.65074 0.0
H850 H 0.49536 0.38581 0.00336 0.0
H851 H 0.46508 0.3923 0.02254 0.0
H852 H 0.48667 0.41523 0.03245 0.0
H853 H 0.47761 0.35971 0.67878 0.0
H854 H 0.46061 0.38026 0.6154 0.0
H855 H 0.44716 0.3637 0.70232 0.0
C856 C 0.19104 0.50237 0.90129 0.0
C857 C 0.20217 0.48049 0.89347 0.0
C858 C 0.16671 0.50461 0.88986 0.0
C859 C 0.15316 0.48455 0.86879 0.0
C860 C 0.1642 0.46238 0.86144 0.0
C861 C 0.18859 0.46059 0.874 0.0
C862 C 0.15558 0.52853 0.89947 0.0
C863 C 0.15019 0.44058 0.84051 0.0
C864 C 0.08685 0.48856 0.89926 0.0
C865 C 0.07947 0.49471 0.8148 0.0
C866 C 0.11073 0.48466 0.91797 0.0
C867 C 0.12761 0.48708 0.85048 0.0
C868 C 0.12016 0.49286 0.76484 0.0
C869 C 0.09629 0.4967 0.74822 0.0
C870 C 0.11728 0.47771 0.01012 0.0
C871 C 0.13743 0.49511 0.69045 0.0
H872 H 0.2013 0.51783 0.91744 0.0
H873 H 0.19699 0.44357 0.86883 0.0
H874 H 0.1506 0.53523 0.8339 0.0
H875 H 0.13931 0.52746 0.93897 0.0
H876 H 0.16765 0.54141 0.93074 0.0
H877 H 0.16138 0.42464 0.83673 0.0
H878 H 0.13665 0.43789 0.89155 0.0
H879 H 0.14089 0.44277 0.77711 0.0
H880 H 0.07401 0.48668 0.95097 0.0
H881 H 0.09087 0.50134 0.68247 0.0
H882 H 0.13645 0.4767 0.02174 0.0
H883 H 0.10953 0.46027 0.02445 0.0
H884 H 0.10952 0.49034 0.0574 0.0
H885 H 0.14911 0.51037 0.7023 0.0
H886 H 0.12854 0.49749 0.6263 0.0
H887 H 0.1487 0.47925 0.68657 0.0
C888 C 0.98959 0.82172 0.72144 0.0
C889 C 0.00726 0.81069 0.67326 0.0
C890 C 0.98572 0.84596 0.71428 0.0
C891 C 0.00069 0.85955 0.66086 0.0
C892 C 0.01852 0.8484 0.61152 0.0
C893 C 0.02126 0.82395 0.61668 0.0
C894 C 0.96625 0.85712 0.76673 0.0
C895 C 0.03554 0.86246 0.55734 0.0
C896 C 0.98571 0.92289 0.60471 0.0
C897 C 0.99739 0.93498 0.67192 0.0
C898 C 0.98627 0.89822 0.60077 0.0
C899 C 0.99939 0.8856 0.66399 0.0
C900 C 0.01166 0.89787 0.7306 0.0
C901 C 0.01016 0.92236 0.73456 0.0
C902 C 0.97228 0.88567 0.53083 0.0
C903 C 0.0265 0.8852 0.79767 0.0
H904 H 0.97892 0.81139 0.76558 0.0
H905 H 0.03526 0.81544 0.58065 0.0
H906 H 0.97388 0.86747 0.82148 0.0
H907 H 0.95598 0.86938 0.7253 0.0
H908 H 0.95414 0.84384 0.79454 0.0
H909 H 0.04987 0.85142 0.53051 0.0
H910 H 0.02604 0.87097 0.50253 0.0
H911 H 0.04357 0.87663 0.5975 0.0
H912 H 0.97571 0.93267 0.55662 0.0
H913 H 0.01945 0.93171 0.78591 0.0
H914 H 0.95724 0.87655 0.56162 0.0
H915 H 0.98311 0.87208 0.49815 0.0
H916 H 0.96538 0.89792 0.48056 0.0
H917 H 0.01497 0.87553 0.84344 0.0
H918 H 0.03762 0.89744 0.8364 0.0
H919 H 0.03811 0.87216 0.76545 0.0
C920 C 0.67463 0.01439 0.56772 0.0
C921 C 0.68835 0.9942 0.55682 0.0
C922 C 0.65063 0.01267 0.58628 0.0
C923 C 0.64012 0.99022 0.59269 0.0
C924 C 0.654 0.96978 0.58393 0.0
C925 C 0.67803 0.97202 0.56682 0.0
C926 C 0.6364 0.03485 0.597 0.0
C927 C 0.64331 0.94558 0.58961 0.0
C928 C 0.58158 0.98791 0.70771 0.0
C929 C 0.5658 0.9896 0.63717 0.0
C930 C 0.60584 0.98739 0.69407 0.0
C931 C 0.61453 0.98824 0.60766 0.0
C932 C 0.59874 0.98855 0.53583 0.0
C933 C 0.57448 0.98933 0.55147 0.0
C934 C 0.62215 0.98721 0.77235 0.0
C935 C 0.6075 0.98902 0.44265 0.0
H936 H 0.68257 0.03154 0.56003 0.0
H937 H 0.6885 0.95633 0.55756 0.0
H938 H 0.62291 0.03587 0.54461 0.0
H939 H 0.62703 0.03465 0.66053 0.0
H940 H 0.64745 0.0509 0.59418 0.0
H941 H 0.6567 0.93147 0.58462 0.0
H942 H 0.63378 0.94355 0.65229 0.0
H943 H 0.63031 0.94317 0.53606 0.0
H944 H 0.57509 0.98794 0.77423 0.0
H945 H 0.56241 0.99054 0.49666 0.0
H946 H 0.63156 0.00423 0.77665 0.0
H947 H 0.63559 0.97326 0.76521 0.0
H948 H 0.61262 0.9844 0.83472 0.0
H949 H 0.61683 0.00578 0.43046 0.0
H950 H 0.593 0.9873 0.39421 0.0
H951 H 0.62027 0.97462 0.43155 0.0
C952 C 0.4783 0.67728 0.45267 0.0
C953 C 0.49899 0.69024 0.44181 0.0
C954 C 0.47908 0.65386 0.48057 0.0
C955 C 0.50105 0.64325 0.49832 0.0
C956 C 0.52196 0.65633 0.48853 0.0
C957 C 0.52068 0.6797 0.46062 0.0
C958 C 0.45642 0.64037 0.48999 0.0
C959 C 0.5457 0.64551 0.50616 0.0
C960 C 0.50128 0.59026 0.64708 0.0
C961 C 0.50228 0.57166 0.5867 0.0
C962 C 0.50114 0.61363 0.61913 0.0
C963 C 0.50214 0.61856 0.52858 0.0
C964 C 0.50382 0.59992 0.4673 0.0
C965 C 0.50379 0.57665 0.49715 0.0
C966 C 0.49952 0.63303 0.68656 0.0
C967 C 0.50483 0.60439 0.37007 0.0
H968 H 0.4615 0.6853 0.438 0.0
H969 H 0.53677 0.68955 0.45195 0.0
H970 H 0.4565 0.62498 0.44529 0.0
H971 H 0.45479 0.6336 0.55769 0.0
H972 H 0.44077 0.65128 0.47491 0.0
H973 H 0.56029 0.65814 0.49617 0.0
H974 H 0.54655 0.63896 0.57437 0.0
H975 H 0.5484 0.63022 0.46214 0.0
H976 H 0.50021 0.58661 0.7165 0.0
H977 H 0.50447 0.5624 0.45004 0.0
H978 H 0.48368 0.64387 0.67417 0.0
H979 H 0.51499 0.64476 0.68149 0.0
H980 H 0.49863 0.62614 0.75438 0.0
H981 H 0.48708 0.60933 0.34643 0.0
H982 H 0.51059 0.58861 0.33301 0.0
H983 H 0.51692 0.61908 0.35501 0.0
C984 C 0.83493 0.46655 0.52623 0.0
C985 C 0.81839 0.48449 0.51439 0.0
C986 C 0.85749 0.47156 0.55836 0.0
C987 C 0.86348 0.49498 0.58022 0.0
C988 C 0.84668 0.51305 0.57048 0.0
C989 C 0.82434 0.5076 0.53753 0.0
C990 C 0.87511 0.45189 0.56664 0.0
C991 C 0.85253 0.53823 0.59259 0.0
C992 C 0.91598 0.50288 0.73066 0.0
C993 C 0.93395 0.50747 0.67059 0.0
C994 C 0.89281 0.49933 0.70226 0.0
C995 C 0.88751 0.50057 0.61184 0.0
C996 C 0.90539 0.50624 0.55139 0.0
C997 C 0.92841 0.50949 0.5815 0.0
C998 C 0.87412 0.49364 0.76875 0.0
C999 C 0.90067 0.50776 0.45431 0.0
H1000 H 0.83048 0.44868 0.50826 0.0
H1001 H 0.81167 0.52158 0.52838 0.0
H1002 H 0.882 0.4511 0.63459 0.0
H1003 H 0.86747 0.43454 0.5493 0.0
H1004 H 0.89024 0.4553 0.52293 0.0
H1005 H 0.83717 0.55007 0.58497 0.0
H1006 H 0.85906 0.53955 0.66093 0.0
H1007 H 0.86679 0.5445 0.54924 0.0
H1008 H 0.92008 0.50138 0.79975 0.0
H1009 H 0.94217 0.51306 0.53456 0.0
H1010 H 0.86613 0.47633 0.75358 0.0
H1011 H 0.85989 0.50691 0.76572 0.0
H1012 H 0.88121 0.49317 0.83649 0.0
H1013 H 0.90053 0.48977 0.42647 0.0
H1014 H 0.91449 0.51792 0.42009 0.0
H1015 H 0.88343 0.516 0.44047 0.0
loop_
_geom_bond_atom_site_label_1
_geom_bond_atom_site_label_2
_geom_bond_distance
_geom_bond_site_symmetry_2
_ccdc_geom_bond_type
O0 Cd1 2.300 . S
O0 C7 1.275 . S
Cd1 O0 2.300 . S
Cd1 O9 2.381 . S
Cd1 O10 2.378 . S
O2 Cd3 2.385 . S
O2 C7 1.255 . S
Cd3 O2 2.385 . S
Cd3 O4 2.317 . S
O4 Cd3 2.317 . S
O4 C5 1.232 . S
C5 O4 1.232 . S
C5 O6 1.218 . S
O6 C5 1.218 . S
C7 O0 1.275 . S
C7 O2 1.255 . S
C8 O9 1.258 . S
C8 O10 1.256 . S
O9 Cd1 2.381 . S
O9 C8 1.258 . S
O10 Cd1 2.378 . S
O10 C8 1.256 . S
O11 Cd12 2.300 1_655 S
O11 C18 1.275 1_655 S
Cd12 O11 2.300 1_455 S
Cd12 O20 2.381 1_455 S
Cd12 O21 2.378 . S
O13 Cd14 2.385 . S
O13 C18 1.255 . S
Cd14 O13 2.385 . S
Cd14 O15 2.317 . S
O15 Cd14 2.317 . S
O15 C16 1.232 . S
C16 O15 1.232 . S
C16 O17 1.218 . S
O17 C16 1.218 . S
C18 O11 1.275 1_455 S
C18 O13 1.255 . S
C19 O20 1.240 1_455 S
C19 O21 1.281 . S
O20 Cd12 2.381 1_655 S
O20 C19 1.240 1_655 S
O21 Cd12 2.378 . S
O21 C19 1.281 . S
O22 Cd23 2.300 1_565 S
O22 C29 1.275 1_565 S
Cd23 O22 2.300 1_545 S
Cd23 O31 2.381 1_545 S
Cd23 O32 2.378 . S
O24 Cd25 2.385 . S
O24 C29 1.255 . S
Cd25 O24 2.385 . S
Cd25 O26 2.317 . S
O26 Cd25 2.317 . S
O26 C27 1.232 . S
C27 O26 1.232 . S
C27 O28 1.218 . S
O28 C27 1.218 . S
C29 O22 1.275 1_545 S
C29 O24 1.255 . S
C30 O31 1.256 1_545 S
C30 O32 1.258 . S
O31 Cd23 2.381 1_565 S
O31 C30 1.256 1_565 S
O32 Cd23 2.378 . S
O32 C30 1.258 . S
O33 Cd34 2.300 . S
O33 C40 1.275 . S
Cd34 O33 2.300 . S
Cd34 O42 2.381 . S
Cd34 O43 2.378 . S
O35 Cd36 2.385 . S
O35 C40 1.255 . S
Cd36 O35 2.385 . S
Cd36 O37 2.317 . S
O37 Cd36 2.317 . S
O37 C38 1.232 . S
C38 O37 1.232 . S
C38 O39 1.218 . S
O39 C38 1.218 . S
C40 O33 1.275 . S
C40 O35 1.255 . S
C41 O42 1.258 . S
C41 O43 1.256 . S
O42 Cd34 2.381 . S
O42 C41 1.258 . S
O43 Cd34 2.378 . S
O43 C41 1.256 . S
O44 Cd45 2.300 . S
O44 C51 1.275 . S
Cd45 O44 2.300 . S
Cd45 O53 2.381 . S
Cd45 O54 2.378 . S
O46 Cd47 2.385 1_554 S
O46 C51 1.255 . S
Cd47 O46 2.385 1_556 S
Cd47 O48 2.317 . S
O48 Cd47 2.317 . S
O48 C49 1.232 . S
C49 O48 1.232 . S
C49 O50 1.218 . S
O50 C49 1.218 . S
C51 O44 1.275 . S
C51 O46 1.255 . S
C52 O53 1.258 . S
C52 O54 1.256 . S
O53 Cd45 2.381 . S
O53 C52 1.258 . S
O54 Cd45 2.378 . S
O54 C52 1.256 . S
O55 Cd56 2.300 . S
O55 C62 1.275 . S
Cd56 O55 2.300 . S
Cd56 O64 2.381 1_455 S
Cd56 O65 2.378 . S
O57 Cd58 2.385 1_554 S
O57 C62 1.255 . S
Cd58 O57 2.385 1_556 S
Cd58 O59 2.317 . S
O59 Cd58 2.317 . S
O59 C60 1.232 . S
C60 O59 1.232 . S
C60 O61 1.218 . S
O61 C60 1.218 . S
C62 O55 1.275 . S
C62 O57 1.255 . S
C63 O64 1.258 1_455 S
C63 O65 1.256 . S
O64 Cd56 2.381 1_655 S
O64 C63 1.258 1_655 S
O65 Cd56 2.378 . S
O65 C63 1.256 . S
O66 Cd67 2.300 . S
O66 C73 1.275 . S
Cd67 O66 2.300 . S
Cd67 O75 2.381 1_545 S
Cd67 O76 2.378 . S
O68 Cd69 2.385 1_554 S
O68 C73 1.255 . S
Cd69 O68 2.385 1_556 S
Cd69 O70 2.317 . S
O70 Cd69 2.317 . S
O70 C71 1.232 . S
C71 O70 1.232 . S
C71 O72 1.218 . S
O72 C71 1.218 . S
C73 O66 1.275 . S
C73 O68 1.255 . S
C74 O75 1.258 1_545 S
C74 O76 1.256 . S
O75 Cd67 2.381 1_565 S
O75 C74 1.258 1_565 S
O76 Cd67 2.378 . S
O76 C74 1.256 . S
O77 Cd78 2.300 . S
O77 C84 1.275 . S
Cd78 O77 2.300 . S
Cd78 O86 2.381 . S
Cd78 O87 2.378 . S
O79 Cd80 2.385 1_554 S
O79 C84 1.255 . S
Cd80 O79 2.385 1_556 S
Cd80 O81 2.317 . S
O81 Cd80 2.317 . S
O81 C82 1.232 . S
C82 O81 1.232 . S
C82 O83 1.218 . S
O83 C82 1.218 . S
C84 O77 1.275 . S
C84 O79 1.255 . S
C85 O86 1.258 . S
C85 O87 1.256 . S
O86 Cd78 2.381 . S
O86 C85 1.258 . S
O87 Cd78 2.378 . S
O87 C85 1.256 . S
Gd88 C91 2.818 . S
Gd88 O108 2.377 . S
Gd88 O110 2.448 . S
Gd88 O111 2.506 . S
Gd88 O112 2.435 . S
Gd88 O113 2.717 1_565 S
Gd88 O115 2.395 1_565 S
Gd88 O119 2.327 1_455 S
Gd89 C100 2.818 . S
Gd89 O109 2.395 1_545 S
Gd89 O113 2.327 1_655 S
Gd89 O114 2.377 . S
Gd89 O116 2.448 . S
Gd89 O117 2.506 1_655 S
Gd89 O118 2.435 . S
Gd89 O119 2.717 1_545 S
C90 O108 1.240 1_655 S
C90 O109 1.240 . S
C91 Gd88 2.818 . S
C91 C92 1.510 . S
C91 O110 1.249 . S
C91 O111 1.252 . S
C92 C91 1.510 . S
C92 C93 1.404 . S
C92 C94 1.352 . S
C93 C92 1.404 . S
C93 C97 1.389 . S
C93 H120 0.930 . S
C94 C92 1.352 . S
C94 C96 1.374 . S
C94 H121 0.931 1_455 S
C95 C96 1.359 1_554 S
C95 C97 1.364 1_554 S
C96 C94 1.374 . S
C96 C95 1.359 1_556 S
C96 H122 0.931 1_456 S
C97 C93 1.389 . S
C97 C95 1.364 1_556 S
C97 H123 0.931 . S
C98 O112 1.256 1_545 S
C98 O113 1.257 . S
C99 O114 1.240 1_455 S
C99 O115 1.240 . S
C100 Gd89 2.818 . S
C100 C101 1.510 . S
C100 O116 1.249 . S
C100 O117 1.252 1_655 S
C101 C100 1.510 . S
C101 C102 1.404 . S
C101 C103 1.352 . S
C102 C101 1.404 . S
C102 C106 1.389 . S
C102 H124 0.930 . S
C103 C101 1.352 . S
C103 C105 1.374 . S
C103 H125 0.931 1_655 S
C104 C105 1.359 . S
C104 C106 1.364 . S
C105 C103 1.374 . S
C105 C104 1.359 . S
C105 H126 0.931 1_655 S
C106 C102 1.389 . S
C106 C104 1.364 . S
C106 H127 0.931 . S
C107 O118 1.256 . S
C107 O119 1.257 1_545 S
O108 Gd88 2.377 . S
O108 C90 1.240 1_455 S
O109 Gd89 2.395 1_565 S
O109 C90 1.240 . S
O110 Gd88 2.448 . S
O110 C91 1.249 . S
O111 Gd88 2.506 . S
O111 C91 1.252 . S
O112 Gd88 2.435 . S
O112 C98 1.256 1_565 S
O113 Gd88 2.717 1_545 S
O113 Gd89 2.327 1_455 S
O113 C98 1.257 . S
O114 Gd89 2.377 . S
O114 C99 1.240 1_655 S
O115 Gd88 2.395 1_545 S
O115 C99 1.240 . S
O116 Gd89 2.448 . S
O116 C100 1.249 . S
O117 Gd89 2.506 1_455 S
O117 C100 1.252 1_455 S
O118 Gd89 2.435 . S
O118 C107 1.256 . S
O119 Gd88 2.327 1_655 S
O119 Gd89 2.717 1_565 S
O119 C107 1.257 1_565 S
H120 C93 0.930 . S
H121 C94 0.931 1_655 S
H122 C96 0.931 1_654 S
H123 C97 0.931 . S
H124 C102 0.930 . S
H125 C103 0.931 1_455 S
H126 C105 0.931 1_455 S
H127 C106 0.931 . S
Gd128 C131 2.818 . S
Gd128 O148 2.377 . S
Gd128 O150 2.448 . S
Gd128 O151 2.506 . S
Gd128 O152 2.435 . S
Gd128 O153 2.717 . S
Gd128 O155 2.395 . S
Gd128 O159 2.327 1_545 S
Gd129 C140 2.818 . S
Gd129 O149 2.395 . S
Gd129 O153 2.327 1_565 S
Gd129 O154 2.377 . S
Gd129 O156 2.448 . S
Gd129 O157 2.493 1_565 S
Gd129 O158 2.435 . S
Gd129 O159 2.717 . S
C130 O148 1.240 1_565 S
C130 O149 1.240 . S
C131 Gd128 2.818 . S
C131 C132 1.510 . S
C131 O150 1.249 . S
C131 O151 1.252 . S
C132 C131 1.510 . S
C132 C133 1.404 . S
C132 C134 1.352 . S
C133 C132 1.404 . S
C133 C137 1.389 . S
C133 H160 0.930 . S
C134 C132 1.352 . S
C134 C136 1.374 . S
C134 H161 0.931 1_545 S
C135 C136 1.359 1_554 S
C135 C137 1.364 1_554 S
C136 C134 1.374 . S
C136 C135 1.359 1_556 S
C136 H162 0.931 1_546 S
C137 C133 1.389 . S
C137 C135 1.364 1_556 S
C137 H163 0.931 . S
C138 O152 1.256 . S
C138 O153 1.257 . S
C139 O154 1.240 1_545 S
C139 O155 1.240 . S
C140 Gd129 2.818 . S
C140 C141 1.510 . S
C140 O156 1.249 . S
C140 O157 1.221 1_565 S
C141 C140 1.510 . S
C141 C142 1.404 . S
C141 C143 1.352 . S
C142 C141 1.404 . S
C142 C146 1.389 . S
C142 H164 0.930 . S
C143 C141 1.352 . S
C143 C145 1.374 . S
C143 H165 0.931 1_565 S
C144 C145 1.359 . S
C144 C146 1.364 . S
C145 C143 1.374 . S
C145 C144 1.359 . S
C145 H166 0.931 1_565 S
C146 C142 1.389 . S
C146 C144 1.364 . S
C146 H167 0.931 . S
C147 O158 1.256 . S
C147 O159 1.257 . S
O148 Gd128 2.377 . S
O148 C130 1.240 1_545 S
O149 Gd129 2.395 . S
O149 C130 1.240 . S
O150 Gd128 2.448 . S
O150 C131 1.249 . S
O151 Gd128 2.506 . S
O151 C131 1.252 . S
O152 Gd128 2.435 . S
O152 C138 1.256 . S
O153 Gd128 2.717 . S
O153 Gd129 2.327 1_545 S
O153 C138 1.257 . S
O154 Gd129 2.377 . S
O154 C139 1.240 1_565 S
O155 Gd128 2.395 . S
O155 C139 1.240 . S
O156 Gd129 2.448 . S
O156 C140 1.249 . S
O157 Gd129 2.493 1_545 S
O157 C140 1.221 1_545 S
O158 Gd129 2.435 . S
O158 C147 1.256 . S
O159 Gd128 2.327 1_565 S
O159 Gd129 2.717 . S
O159 C147 1.257 . S
H160 C133 0.930 . S
H161 C134 0.931 1_565 S
H162 C136 0.931 1_564 S
H163 C137 0.931 . S
H164 C142 0.930 . S
H165 C143 0.931 1_545 S
H166 C145 0.931 1_545 S
H167 C146 0.931 . S
Gd168 C171 2.818 . S
Gd168 O188 2.377 . S
Gd168 O190 2.448 . S
Gd168 O191 2.506 . S
Gd168 O192 2.435 . S
Gd168 O193 2.717 . S
Gd168 O195 2.395 . S
Gd168 O199 2.327 . S
Gd169 C180 2.818 . S
Gd169 O189 2.395 . S
Gd169 O193 2.327 . S
Gd169 O194 2.377 . S
Gd169 O196 2.448 . S
Gd169 O197 2.506 . S
Gd169 O198 2.435 . S
Gd169 O199 2.717 . S
C170 O188 1.240 . S
C170 O189 1.240 . S
C171 Gd168 2.818 . S
C171 C172 1.510 . S
C171 O190 1.249 . S
C171 O191 1.252 . S
C172 C171 1.510 . S
C172 C173 1.404 . S
C172 C174 1.352 . S
C173 C172 1.404 . S
C173 C177 1.389 . S
C173 H200 0.930 . S
C174 C172 1.352 . S
C174 C176 1.374 . S
C174 H201 0.931 . S
C175 C176 1.359 1_554 S
C175 C177 1.364 1_554 S
C176 C174 1.374 . S
C176 C175 1.359 1_556 S
C176 H202 0.931 1_556 S
C177 C173 1.389 . S
C177 C175 1.364 1_556 S
C177 H203 0.931 . S
C178 O192 1.256 . S
C178 O193 1.257 . S
C179 O194 1.240 . S
C179 O195 1.240 . S
C180 Gd169 2.818 . S
C180 C181 1.510 . S
C180 O196 1.249 . S
C180 O197 1.252 . S
C181 C180 1.510 . S
C181 C182 1.404 . S
C181 C183 1.352 . S
C182 C181 1.404 . S
C182 C186 1.389 . S
C182 H204 0.930 . S
C183 C181 1.352 . S
C183 C185 1.374 . S
C183 H205 0.931 . S
C184 C185 1.359 . S
C184 C186 1.364 . S
C185 C183 1.374 . S
C185 C184 1.359 . S
C185 H206 0.931 . S
C186 C182 1.389 . S
C186 C184 1.364 . S
C186 H207 0.931 . S
C187 O198 1.256 . S
C187 O199 1.257 . S
O188 Gd168 2.377 . S
O188 C170 1.240 . S
O189 Gd169 2.395 . S
O189 C170 1.240 . S
O190 Gd168 2.448 . S
O190 C171 1.249 . S
O191 Gd168 2.506 . S
O191 C171 1.252 . S
O192 Gd168 2.435 . S
O192 C178 1.256 . S
O193 Gd168 2.717 . S
O193 Gd169 2.327 . S
O193 C178 1.257 . S
O194 Gd169 2.377 . S
O194 C179 1.240 . S
O195 Gd168 2.395 . S
O195 C179 1.240 . S
O196 Gd169 2.448 . S
O196 C180 1.249 . S
O197 Gd169 2.506 . S
O197 C180 1.252 . S
O198 Gd169 2.435 . S
O198 C187 1.256 . S
O199 Gd168 2.327 . S
O199 Gd169 2.717 . S
O199 C187 1.257 . S
H200 C173 0.930 . S
H201 C174 0.931 . S
H202 C176 0.931 1_554 S
H203 C177 0.931 . S
H204 C182 0.930 . S
H205 C183 0.931 . S
H206 C185 0.931 . S
H207 C186 0.931 . S
Gd208 C211 2.818 . S
Gd208 O228 2.377 . S
Gd208 O230 2.448 . S
Gd208 O231 2.506 . S
Gd208 O232 2.435 . S
Gd208 O233 2.717 1_655 S
Gd208 O235 2.395 1_655 S
Gd208 O239 2.327 . S
Gd209 C220 2.818 . S
Gd209 O229 2.395 1_455 S
Gd209 O233 2.327 . S
Gd209 O234 2.377 . S
Gd209 O236 2.448 . S
Gd209 O237 2.506 . S
Gd209 O238 2.435 . S
Gd209 O239 2.717 1_455 S
C210 O228 1.240 . S
C210 O229 1.240 . S
C211 Gd208 2.818 . S
C211 C212 1.510 . S
C211 O230 1.249 . S
C211 O231 1.252 . S
C212 C211 1.510 . S
C212 C213 1.404 . S
C212 C214 1.352 . S
C213 C212 1.404 . S
C213 C217 1.389 . S
C213 H240 0.930 . S
C214 C212 1.352 . S
C214 C216 1.374 . S
C214 H241 0.931 . S
C215 C216 1.359 1_554 S
C215 C217 1.364 1_554 S
C216 C214 1.374 . S
C216 C215 1.359 1_556 S
C216 H242 0.931 1_556 S
C217 C213 1.389 . S
C217 C215 1.364 1_556 S
C217 H243 0.931 . S
C218 O232 1.256 1_455 S
C218 O233 1.257 . S
C219 O234 1.240 . S
C219 O235 1.240 . S
C220 Gd209 2.818 . S
C220 C221 1.510 . S
C220 O236 1.249 . S
C220 O237 1.252 . S
C221 C220 1.510 . S
C221 C222 1.404 . S
C221 C223 1.352 . S
C222 C221 1.404 . S
C222 C226 1.389 . S
C222 H244 0.930 . S
C223 C221 1.352 . S
C223 C225 1.374 . S
C223 H245 0.931 . S
C224 C225 1.359 . S
C224 C226 1.364 . S
C225 C223 1.374 . S
C225 C224 1.359 . S
C225 H246 0.931 . S
C226 C222 1.389 . S
C226 C224 1.364 . S
C226 H247 0.931 . S
C227 O238 1.256 . S
C227 O239 1.257 1_455 S
O228 Gd208 2.377 . S
O228 C210 1.240 . S
O229 Gd209 2.395 1_655 S
O229 C210 1.240 . S
O230 Gd208 2.448 . S
O230 C211 1.249 . S
O231 Gd208 2.506 . S
O231 C211 1.252 . S
O232 Gd208 2.435 . S
O232 C218 1.256 1_655 S
O233 Gd208 2.717 1_455 S
O233 Gd209 2.327 . S
O233 C218 1.257 . S
O234 Gd209 2.377 . S
O234 C219 1.240 . S
O235 Gd208 2.395 1_455 S
O235 C219 1.240 . S
O236 Gd209 2.448 . S
O236 C220 1.249 . S
O237 Gd209 2.506 . S
O237 C220 1.252 . S
O238 Gd209 2.435 . S
O238 C227 1.256 . S
O239 Gd208 2.327 . S
O239 Gd209 2.717 1_655 S
O239 C227 1.257 1_655 S
H240 C213 0.930 . S
H241 C214 0.931 . S
H242 C216 0.931 1_554 S
H243 C217 0.931 . S
H244 C222 0.930 . S
H245 C223 0.931 . S
H246 C225 0.931 . S
H247 C226 0.931 . S
C248 C249 1.391 1_565 S
C248 C250 1.394 . S
C248 H264 0.931 . S
C249 C248 1.391 1_545 S
C249 C253 1.376 . S
C250 C248 1.394 . S
C250 C251 1.369 1_565 S
C250 C254 1.531 . S
C251 C250 1.369 1_545 S
C251 C252 1.410 . S
C251 C259 1.503 . S
C252 C251 1.410 . S
C252 C253 1.392 . S
C252 C255 1.511 . S
C253 C249 1.376 . S
C253 C252 1.392 . S
C253 H265 0.929 . S
C254 C250 1.531 . S
C254 H266 0.960 . S
C254 H267 0.962 . S
C254 H268 0.960 . S
C255 C252 1.511 . S
C255 H269 0.961 . S
C255 H270 0.961 . S
C255 H271 0.961 . S
C256 C257 1.370 . S
C256 C258 1.363 . S
C256 H272 0.931 . S
C257 C256 1.370 . S
C257 C261 1.408 1_545 S
C258 C256 1.363 . S
C258 C259 1.370 . S
C258 C262 1.524 . S
C259 C251 1.503 . S
C259 C258 1.370 . S
C259 C260 1.403 1_545 S
C260 C259 1.403 1_565 S
C260 C261 1.404 . S
C260 C263 1.539 . S
C261 C257 1.408 1_565 S
C261 C260 1.404 . S
C261 H273 0.930 . S
C262 C258 1.524 . S
C262 H274 0.956 . S
C262 H275 0.961 . S
C262 H276 0.961 . S
C263 C260 1.539 . S
C263 H277 0.958 . S
C263 H278 0.961 . S
C263 H279 0.960 . S
H264 C248 0.931 . S
H265 C253 0.929 . S
H266 C254 0.960 . S
H267 C254 0.962 . S
H268 C254 0.960 . S
H269 C255 0.961 . S
H270 C255 0.961 . S
H271 C255 0.961 . S
H272 C256 0.931 . S
H273 C261 0.930 . S
H274 C262 0.956 . S
H275 C262 0.961 . S
H276 C262 0.961 . S
H277 C263 0.958 . S
H278 C263 0.961 . S
H279 C263 0.960 . S
C280 C281 1.391 . S
C280 C282 1.394 . S
C280 H296 0.931 . S
C281 C280 1.391 . S
C281 C285 1.376 . S
C282 C280 1.394 . S
C282 C283 1.369 . S
C282 C286 1.531 . S
C283 C282 1.369 . S
C283 C284 1.410 . S
C283 C291 1.503 . S
C284 C283 1.410 . S
C284 C285 1.392 . S
C284 C287 1.511 . S
C285 C281 1.376 . S
C285 C284 1.392 . S
C285 H297 0.929 . S
C286 C282 1.531 . S
C286 H298 0.960 . S
C286 H299 0.962 . S
C286 H300 0.960 . S
C287 C284 1.511 . S
C287 H301 0.961 . S
C287 H302 0.961 . S
C287 H303 0.961 . S
C288 C289 1.370 . S
C288 C290 1.363 . S
C288 H304 0.931 . S
C289 C288 1.370 . S
C289 C293 1.408 . S
C290 C288 1.363 . S
C290 C291 1.370 . S
C290 C294 1.524 . S
C291 C283 1.503 . S
C291 C290 1.370 . S
C291 C292 1.403 . S
C292 C291 1.403 . S
C292 C293 1.404 . S
C292 C295 1.539 . S
C293 C289 1.408 . S
C293 C292 1.404 . S
C293 H305 0.930 . S
C294 C290 1.524 . S
C294 H306 0.956 . S
C294 H307 0.961 . S
C294 H308 0.961 . S
C295 C292 1.539 . S
C295 H309 0.958 . S
C295 H310 0.961 . S
C295 H311 0.960 . S
H296 C280 0.931 . S
H297 C285 0.929 . S
H298 C286 0.960 . S
H299 C286 0.962 . S
H300 C286 0.960 . S
H301 C287 0.961 . S
H302 C287 0.961 . S
H303 C287 0.961 . S
H304 C288 0.931 . S
H305 C293 0.930 . S
H306 C294 0.956 . S
H307 C294 0.961 . S
H308 C294 0.961 . S
H309 C295 0.958 . S
H310 C295 0.961 . S
H311 C295 0.960 . S
C312 C313 1.391 . S
C312 C314 1.394 . S
C312 H328 0.931 . S
C313 C312 1.391 . S
C313 C317 1.376 . S
C314 C312 1.394 . S
C314 C315 1.369 . S
C314 C318 1.531 . S
C315 C314 1.369 . S
C315 C316 1.410 . S
C315 C323 1.503 . S
C316 C315 1.410 . S
C316 C317 1.392 . S
C316 C319 1.511 . S
C317 C313 1.376 . S
C317 C316 1.392 . S
C317 H329 0.929 . S
C318 C314 1.531 . S
C318 H330 0.960 . S
C318 H331 0.962 . S
C318 H332 0.960 . S
C319 C316 1.511 . S
C319 H333 0.961 . S
C319 H334 0.961 . S
C319 H335 0.961 . S
C320 C321 1.370 . S
C320 C322 1.363 . S
C320 H336 0.931 . S
C321 C320 1.370 . S
C321 C325 1.408 . S
C322 C320 1.363 . S
C322 C323 1.370 . S
C322 C326 1.524 . S
C323 C315 1.503 . S
C323 C322 1.370 . S
C323 C324 1.403 . S
C324 C323 1.403 . S
C324 C325 1.404 . S
C324 C327 1.539 . S
C325 C321 1.408 . S
C325 C324 1.404 . S
C325 H337 0.930 . S
C326 C322 1.524 . S
C326 H338 0.956 . S
C326 H339 0.961 . S
C326 H340 0.961 . S
C327 C324 1.539 . S
C327 H341 0.958 . S
C327 H342 0.961 . S
C327 H343 0.960 . S
H328 C312 0.931 . S
H329 C317 0.929 . S
H330 C318 0.960 . S
H331 C318 0.962 . S
H332 C318 0.960 . S
H333 C319 0.961 . S
H334 C319 0.961 . S
H335 C319 0.961 . S
H336 C320 0.931 . S
H337 C325 0.930 . S
H338 C326 0.956 . S
H339 C326 0.961 . S
H340 C326 0.961 . S
H341 C327 0.958 . S
H342 C327 0.961 . S
H343 C327 0.960 . S
C344 C345 1.391 1_655 S
C344 C346 1.394 . S
C344 H360 0.931 . S
C345 C344 1.391 1_455 S
C345 C349 1.376 . S
C346 C344 1.394 . S
C346 C347 1.369 1_655 S
C346 C350 1.531 . S
C347 C346 1.369 1_455 S
C347 C348 1.410 . S
C347 C355 1.503 . S
C348 C347 1.410 . S
C348 C349 1.392 . S
C348 C351 1.511 . S
C349 C345 1.376 . S
C349 C348 1.392 . S
C349 H361 0.929 . S
C350 C346 1.531 . S
C350 H362 0.960 . S
C350 H363 0.962 . S
C350 H364 0.960 . S
C351 C348 1.511 . S
C351 H365 0.961 . S
C351 H366 0.961 . S
C351 H367 0.961 . S
C352 C353 1.370 . S
C352 C354 1.363 . S
C352 H368 0.931 . S
C353 C352 1.370 . S
C353 C357 1.408 1_455 S
C354 C352 1.363 . S
C354 C355 1.370 . S
C354 C358 1.524 . S
C355 C347 1.503 . S
C355 C354 1.370 . S
C355 C356 1.403 1_455 S
C356 C355 1.403 1_655 S
C356 C357 1.404 . S
C356 C359 1.539 . S
C357 C353 1.408 1_655 S
C357 C356 1.404 . S
C357 H369 0.930 . S
C358 C354 1.524 . S
C358 H370 0.956 . S
C358 H371 0.961 . S
C358 H372 0.961 . S
C359 C356 1.539 . S
C359 H373 0.958 . S
C359 H374 0.961 . S
C359 H375 0.960 . S
H360 C344 0.931 . S
H361 C349 0.929 . S
H362 C350 0.960 . S
H363 C350 0.962 . S
H364 C350 0.960 . S
H365 C351 0.961 . S
H366 C351 0.961 . S
H367 C351 0.961 . S
H368 C352 0.931 . S
H369 C357 0.930 . S
H370 C358 0.956 . S
H371 C358 0.961 . S
H372 C358 0.961 . S
H373 C359 0.958 . S
H374 C359 0.961 . S
H375 C359 0.960 . S
C376 C377 1.391 . S
C376 C378 1.394 . S
C376 H392 0.931 . S
C377 C376 1.391 . S
C377 C381 1.376 1_565 S
C378 C376 1.394 . S
C378 C379 1.369 . S
C378 C382 1.531 . S
C379 C378 1.369 . S
C379 C380 1.410 1_565 S
C379 C387 1.503 1_554 S
C380 C379 1.410 1_545 S
C380 C381 1.392 . S
C380 C383 1.511 1_554 S
C381 C377 1.376 1_545 S
C381 C380 1.392 . S
C381 H393 0.929 . S
C382 C378 1.531 . S
C382 H394 0.960 . S
C382 H395 0.962 . S
C382 H396 0.960 . S
C383 C380 1.511 1_556 S
C383 H397 0.961 1_556 S
C383 H398 0.961 . S
C383 H399 0.961 . S
C384 C385 1.370 1_545 S
C384 C386 1.363 . S
C384 H400 0.931 . S
C385 C384 1.370 1_565 S
C385 C389 1.408 . S
C386 C384 1.363 . S
C386 C387 1.370 1_545 S
C386 C390 1.524 1_556 S
C387 C379 1.503 1_556 S
C387 C386 1.370 1_565 S
C387 C388 1.403 . S
C388 C387 1.403 . S
C388 C389 1.404 . S
C388 C391 1.539 . S
C389 C385 1.408 . S
C389 C388 1.404 . S
C389 H401 0.930 . S
C390 C386 1.524 1_554 S
C390 H402 0.956 . S
C390 H403 0.961 . S
C390 H404 0.961 . S
C391 C388 1.539 . S
C391 H405 0.958 . S
C391 H406 0.961 . S
C391 H407 0.960 . S
H392 C376 0.931 . S
H393 C381 0.929 . S
H394 C382 0.960 . S
H395 C382 0.962 . S
H396 C382 0.960 . S
H397 C383 0.961 1_554 S
H398 C383 0.961 . S
H399 C383 0.961 . S
H400 C384 0.931 . S
H401 C389 0.930 . S
H402 C390 0.956 . S
H403 C390 0.961 . S
H404 C390 0.961 . S
H405 C391 0.958 . S
H406 C391 0.961 . S
H407 C391 0.960 . S
C408 C409 1.391 . S
C408 C410 1.394 . S
C408 H424 0.931 . S
C409 C408 1.391 . S
C409 C413 1.376 . S
C410 C408 1.394 . S
C410 C411 1.369 . S
C410 C414 1.531 1_554 S
C411 C410 1.369 . S
C411 C412 1.410 . S
C411 C419 1.503 1_554 S
C412 C411 1.410 . S
C412 C413 1.392 . S
C412 C415 1.511 . S
C413 C409 1.376 . S
C413 C412 1.392 . S
C413 H425 0.929 . S
C414 C410 1.531 1_556 S
C414 H426 0.960 . S
C414 H427 0.962 . S
C414 H428 0.960 . S
C415 C412 1.511 . S
C415 H429 0.961 . S
C415 H430 0.961 . S
C415 H431 0.961 . S
C416 C417 1.370 . S
C416 C418 1.363 . S
C416 H432 0.931 . S
C417 C416 1.370 . S
C417 C421 1.408 . S
C418 C416 1.363 . S
C418 C419 1.370 . S
C418 C422 1.524 1_556 S
C419 C411 1.503 1_556 S
C419 C418 1.370 . S
C419 C420 1.403 . S
C420 C419 1.403 . S
C420 C421 1.404 . S
C420 C423 1.539 . S
C421 C417 1.408 . S
C421 C420 1.404 . S
C421 H433 0.930 . S
C422 C418 1.524 1_554 S
C422 H434 0.956 . S
C422 H435 0.961 . S
C422 H436 0.961 . S
C423 C420 1.539 . S
C423 H437 0.958 . S
C423 H438 0.961 . S
C423 H439 0.960 1_556 S
H424 C408 0.931 . S
H425 C413 0.929 . S
H426 C414 0.960 . S
H427 C414 0.962 . S
H428 C414 0.960 . S
H429 C415 0.961 . S
H430 C415 0.961 . S
H431 C415 0.961 . S
H432 C416 0.931 . S
H433 C421 0.930 . S
H434 C422 0.956 . S
H435 C422 0.961 . S
H436 C422 0.961 . S
H437 C423 0.958 . S
H438 C423 0.961 . S
H439 C423 0.960 1_554 S
C440 C441 1.391 . S
C440 C442 1.394 . S
C440 H456 0.931 . S
C441 C440 1.391 . S
C441 C445 1.376 . S
C442 C440 1.394 . S
C442 C443 1.369 . S
C442 C446 1.531 . S
C443 C442 1.369 . S
C443 C444 1.410 . S
C443 C451 1.503 1_554 S
C444 C443 1.410 . S
C444 C445 1.392 . S
C444 C447 1.511 1_554 S
C445 C441 1.376 . S
C445 C444 1.392 . S
C445 H457 0.929 . S
C446 C442 1.531 . S
C446 H458 0.960 . S
C446 H459 0.962 . S
C446 H460 0.960 . S
C447 C444 1.511 1_556 S
C447 H461 0.961 . S
C447 H462 0.961 . S
C447 H463 0.961 . S
C448 C449 1.370 . S
C448 C450 1.363 . S
C448 H464 0.931 . S
C449 C448 1.370 . S
C449 C453 1.408 . S
C450 C448 1.363 . S
C450 C451 1.370 . S
C450 C454 1.524 1_556 S
C451 C443 1.503 1_556 S
C451 C450 1.370 . S
C451 C452 1.403 . S
C452 C451 1.403 . S
C452 C453 1.404 . S
C452 C455 1.539 . S
C453 C449 1.408 . S
C453 C452 1.404 . S
C453 H465 0.930 . S
C454 C450 1.524 1_554 S
C454 H466 0.956 . S
C454 H467 0.961 . S
C454 H468 0.961 . S
C455 C452 1.539 . S
C455 H469 0.958 . S
C455 H470 0.961 . S
C455 H471 0.960 . S
H456 C440 0.931 . S
H457 C445 0.929 . S
H458 C446 0.960 . S
H459 C446 0.962 . S
H460 C446 0.960 . S
H461 C447 0.961 . S
H462 C447 0.961 . S
H463 C447 0.961 . S
H464 C448 0.931 . S
H465 C453 0.930 . S
H466 C454 0.956 . S
H467 C454 0.961 . S
H468 C454 0.961 . S
H469 C455 0.958 . S
H470 C455 0.961 . S
H471 C455 0.960 . S
C472 C473 1.414 . S
C472 C474 1.394 . S
C472 H488 0.931 . S
C473 C472 1.414 . S
C473 C477 1.351 1_655 S
C474 C472 1.394 . S
C474 C475 1.369 1_655 S
C474 C478 1.531 . S
C475 C474 1.369 1_455 S
C475 C476 1.410 . S
C475 C483 1.503 1_554 S
C476 C475 1.410 . S
C476 C477 1.392 . S
C476 C479 1.511 . S
C477 C473 1.351 1_455 S
C477 C476 1.392 . S
C477 H489 0.929 . S
C478 C474 1.531 . S
C478 H490 0.960 1_554 S
C478 H491 0.962 . S
C478 H492 0.960 . S
C479 C476 1.511 . S
C479 H493 0.961 . S
C479 H494 0.961 . S
C479 H495 0.961 . S
C480 C481 1.362 1_655 S
C480 C482 1.363 1_556 S
C480 H496 0.931 . S
C481 C480 1.362 1_455 S
C481 C485 1.417 . S
C482 C480 1.363 1_554 S
C482 C483 1.370 1_654 S
C482 C486 1.524 . S
C483 C475 1.503 1_556 S
C483 C482 1.370 1_456 S
C483 C484 1.403 . S
C484 C483 1.403 . S
C484 C485 1.404 . S
C484 C487 1.539 . S
C485 C481 1.417 . S
C485 C484 1.404 . S
C485 H497 0.930 . S
C486 C482 1.524 . S
C486 H498 0.956 . S
C486 H499 0.961 . S
C486 H500 0.961 . S
C487 C484 1.539 . S
C487 H501 0.958 . S
C487 H502 0.961 . S
C487 H503 0.960 . S
H488 C472 0.931 . S
H489 C477 0.929 . S
H490 C478 0.960 1_556 S
H491 C478 0.962 . S
H492 C478 0.960 . S
H493 C479 0.961 . S
H494 C479 0.961 . S
H495 C479 0.961 . S
H496 C480 0.931 . S
H497 C485 0.930 . S
H498 C486 0.956 . S
H499 C486 0.961 . S
H500 C486 0.961 . S
H501 C487 0.958 . S
H502 C487 0.961 . S
H503 C487 0.960 . S
C504 C505 1.391 1_655 S
C504 C506 1.394 . S
C504 H520 0.931 . S
C505 C504 1.391 1_455 S
C505 C509 1.376 . S
C506 C504 1.394 . S
C506 C507 1.369 . S
C506 C510 1.531 . S
C507 C506 1.369 . S
C507 C508 1.410 1_655 S
C507 C515 1.503 . S
C508 C507 1.410 1_455 S
C508 C509 1.392 . S
C508 C511 1.511 . S
C509 C505 1.376 . S
C509 C508 1.392 . S
C509 H521 0.929 . S
C510 C506 1.531 . S
C510 H522 0.960 . S
C510 H523 0.962 . S
C510 H524 0.960 . S
C511 C508 1.511 . S
C511 H525 0.961 . S
C511 H526 0.961 . S
C511 H527 0.961 . S
C512 C513 1.370 . S
C512 C514 1.363 . S
C512 H528 0.931 . S
C513 C512 1.370 . S
C513 C517 1.408 . S
C514 C512 1.363 . S
C514 C515 1.370 . S
C514 C518 1.546 . S
C515 C507 1.503 . S
C515 C514 1.370 . S
C515 C516 1.403 . S
C516 C515 1.403 . S
C516 C517 1.404 . S
C516 C519 1.539 . S
C517 C513 1.408 . S
C517 C516 1.404 . S
C517 H529 0.930 . S
C518 C514 1.546 . S
C518 H530 0.988 . S
C518 H531 0.916 1_655 S
C518 H532 0.954 1_655 S
C519 C516 1.539 . S
C519 H533 0.958 . S
C519 H534 0.961 . S
C519 H535 0.960 . S
H520 C504 0.931 . S
H521 C509 0.929 . S
H522 C510 0.960 . S
H523 C510 0.962 . S
H524 C510 0.960 . S
H525 C511 0.961 . S
H526 C511 0.961 . S
H527 C511 0.961 . S
H528 C512 0.931 . S
H529 C517 0.930 . S
H530 C518 0.988 . S
H531 C518 0.916 1_455 S
H532 C518 0.954 1_455 S
H533 C519 0.958 . S
H534 C519 0.961 . S
H535 C519 0.960 . S
C536 C537 1.391 1_565 S
C536 C538 1.394 . S
C536 H552 0.931 . S
C537 C536 1.391 1_545 S
C537 C541 1.376 . S
C538 C536 1.394 . S
C538 C539 1.369 . S
C538 C542 1.531 . S
C539 C538 1.369 . S
C539 C540 1.410 1_565 S
C539 C547 1.503 . S
C540 C539 1.410 1_545 S
C540 C541 1.392 . S
C540 C543 1.511 . S
C541 C537 1.376 . S
C541 C540 1.392 . S
C541 H553 0.929 . S
C542 C538 1.531 . S
C542 H554 0.960 . S
C542 H555 0.962 . S
C542 H556 0.960 . S
C543 C540 1.511 . S
C543 H557 0.961 . S
C543 H558 0.961 . S
C543 H559 0.961 . S
C544 C545 1.370 . S
C544 C546 1.363 . S
C544 H560 0.931 . S
C545 C544 1.370 . S
C545 C549 1.408 . S
C546 C544 1.363 . S
C546 C547 1.370 . S
C546 C550 1.524 1_565 S
C547 C539 1.503 . S
C547 C546 1.370 . S
C547 C548 1.403 . S
C548 C547 1.403 . S
C548 C549 1.404 . S
C548 C551 1.539 . S
C549 C545 1.408 . S
C549 C548 1.404 . S
C549 H561 0.930 . S
C550 C546 1.524 1_545 S
C550 H562 0.955 1_545 S
C550 H563 0.961 . S
C550 H564 0.961 . S
C551 C548 1.539 . S
C551 H565 0.958 . S
C551 H566 0.961 . S
C551 H567 0.960 . S
H552 C536 0.931 . S
H553 C541 0.929 . S
H554 C542 0.960 . S
H555 C542 0.962 . S
H556 C542 0.960 . S
H557 C543 0.961 . S
H558 C543 0.961 . S
H559 C543 0.961 . S
H560 C544 0.931 . S
H561 C549 0.930 . S
H562 C550 0.955 1_565 S
H563 C550 0.961 . S
H564 C550 0.961 . S
H565 C551 0.958 . S
H566 C551 0.961 . S
H567 C551 0.960 . S
C568 C569 1.391 . S
C568 C570 1.394 . S
C568 H584 0.931 . S
C569 C568 1.391 . S
C569 C573 1.376 . S
C570 C568 1.394 . S
C570 C571 1.369 . S
C570 C574 1.531 . S
C571 C570 1.369 . S
C571 C572 1.410 . S
C571 C579 1.503 . S
C572 C571 1.410 . S
C572 C573 1.392 . S
C572 C575 1.511 . S
C573 C569 1.376 . S
C573 C572 1.392 . S
C573 H585 0.929 . S
C574 C570 1.531 . S
C574 H586 0.960 . S
C574 H587 0.962 . S
C574 H588 0.960 . S
C575 C572 1.511 . S
C575 H589 0.961 . S
C575 H590 0.961 . S
C575 H591 0.961 . S
C576 C577 1.370 . S
C576 C578 1.363 . S
C576 H592 0.931 . S
C577 C576 1.370 . S
C577 C581 1.408 . S
C578 C576 1.363 . S
C578 C579 1.370 . S
C578 C582 1.524 . S
C579 C571 1.503 . S
C579 C578 1.370 . S
C579 C580 1.403 . S
C580 C579 1.403 . S
C580 C581 1.404 . S
C580 C583 1.539 . S
C581 C577 1.408 . S
C581 C580 1.404 . S
C581 H593 0.930 . S
C582 C578 1.524 . S
C582 H594 0.956 . S
C582 H595 0.961 . S
C582 H596 0.961 . S
C583 C580 1.539 . S
C583 H597 0.958 . S
C583 H598 0.961 . S
C583 H599 0.960 . S
H584 C568 0.931 . S
H585 C573 0.929 . S
H586 C574 0.960 . S
H587 C574 0.962 . S
H588 C574 0.960 . S
H589 C575 0.961 . S
H590 C575 0.961 . S
H591 C575 0.961 . S
H592 C576 0.931 . S
H593 C581 0.930 . S
H594 C582 0.956 . S
H595 C582 0.961 . S
H596 C582 0.961 . S
H597 C583 0.958 . S
H598 C583 0.961 . S
H599 C583 0.960 . S
C600 C601 1.391 . S
C600 C602 1.394 . S
C600 H616 0.931 . S
C601 C600 1.391 . S
C601 C605 1.376 . S
C602 C600 1.394 . S
C602 C603 1.369 . S
C602 C606 1.531 . S
C603 C602 1.369 . S
C603 C604 1.410 . S
C603 C611 1.503 . S
C604 C603 1.410 . S
C604 C605 1.392 . S
C604 C607 1.511 . S
C605 C601 1.376 . S
C605 C604 1.392 . S
C605 H617 0.929 . S
C606 C602 1.531 . S
C606 H618 0.960 . S
C606 H619 0.962 . S
C606 H620 0.960 . S
C607 C604 1.511 . S
C607 H621 0.961 . S
C607 H622 0.961 . S
C607 H623 0.961 . S
C608 C609 1.370 . S
C608 C610 1.363 . S
C608 H624 0.931 . S
C609 C608 1.370 . S
C609 C613 1.408 . S
C610 C608 1.363 . S
C610 C611 1.370 . S
C610 C614 1.524 . S
C611 C603 1.503 . S
C611 C610 1.370 . S
C611 C612 1.403 . S
C612 C611 1.403 . S
C612 C613 1.404 . S
C612 C615 1.539 . S
C613 C609 1.408 . S
C613 C612 1.404 . S
C613 H625 0.930 . S
C614 C610 1.524 . S
C614 H626 0.956 . S
C614 H627 0.961 . S
C614 H628 0.961 . S
C615 C612 1.539 . S
C615 H629 0.958 . S
C615 H630 0.961 . S
C615 H631 0.960 . S
H616 C600 0.931 . S
H617 C605 0.929 . S
H618 C606 0.960 . S
H619 C606 0.962 . S
H620 C606 0.960 . S
H621 C607 0.961 . S
H622 C607 0.961 . S
H623 C607 0.961 . S
H624 C608 0.931 . S
H625 C613 0.930 . S
H626 C614 0.956 . S
H627 C614 0.961 . S
H628 C614 0.961 . S
H629 C615 0.958 . S
H630 C615 0.961 . S
H631 C615 0.960 . S
C632 C633 1.391 1_455 S
C632 C634 1.394 . S
C632 H648 0.931 . S
C633 C632 1.391 1_655 S
C633 C637 1.376 . S
C634 C632 1.394 . S
C634 C635 1.369 . S
C634 C638 1.531 . S
C635 C634 1.369 . S
C635 C636 1.410 1_455 S
C635 C643 1.503 . S
C636 C635 1.410 1_655 S
C636 C637 1.392 . S
C636 C639 1.511 . S
C637 C633 1.376 . S
C637 C636 1.392 . S
C637 H649 0.929 . S
C638 C634 1.531 . S
C638 H650 0.960 . S
C638 H651 0.962 . S
C638 H652 0.960 . S
C639 C636 1.511 . S
C639 H653 0.961 . S
C639 H654 0.961 . S
C639 H655 0.961 . S
C640 C641 1.370 . S
C640 C642 1.363 . S
C640 H656 0.931 . S
C641 C640 1.370 . S
C641 C645 1.408 1_554 S
C642 C640 1.363 . S
C642 C643 1.370 . S
C642 C646 1.524 . S
C643 C635 1.503 . S
C643 C642 1.370 . S
C643 C644 1.403 . S
C644 C643 1.403 . S
C644 C645 1.404 1_554 S
C644 C647 1.539 1_554 S
C645 C641 1.408 1_556 S
C645 C644 1.404 1_556 S
C645 H657 0.930 . S
C646 C642 1.524 . S
C646 H658 0.956 . S
C646 H659 0.961 1_455 S
C646 H660 0.961 . S
C647 C644 1.539 1_556 S
C647 H661 0.958 . S
C647 H662 0.961 . S
C647 H663 0.960 . S
H648 C632 0.931 . S
H649 C637 0.929 . S
H650 C638 0.960 . S
H651 C638 0.962 . S
H652 C638 0.960 . S
H653 C639 0.961 . S
H654 C639 0.961 . S
H655 C639 0.961 . S
H656 C640 0.931 . S
H657 C645 0.930 . S
H658 C646 0.956 . S
H659 C646 0.961 1_655 S
H660 C646 0.961 . S
H661 C647 0.958 . S
H662 C647 0.961 . S
H663 C647 0.960 . S
C664 C665 1.391 1_545 S
C664 C666 1.394 . S
C664 H680 0.931 . S
C665 C664 1.391 1_565 S
C665 C669 1.376 1_565 S
C666 C664 1.394 . S
C666 C667 1.369 . S
C666 C670 1.531 . S
C667 C666 1.369 . S
C667 C668 1.410 . S
C667 C675 1.503 . S
C668 C667 1.410 . S
C668 C669 1.392 . S
C668 C671 1.511 . S
C669 C665 1.376 1_545 S
C669 C668 1.392 . S
C669 H681 0.923 1_545 S
C670 C666 1.531 . S
C670 H682 0.960 . S
C670 H683 0.962 . S
C670 H684 0.960 . S
C671 C668 1.511 . S
C671 H685 0.961 1_554 S
C671 H686 0.961 1_554 S
C671 H687 0.961 . S
C672 C673 1.370 . S
C672 C674 1.363 . S
C672 H688 0.931 1_545 S
C673 C672 1.370 . S
C673 C677 1.408 . S
C674 C672 1.363 . S
C674 C675 1.370 . S
C674 C678 1.524 1_545 S
C675 C667 1.503 . S
C675 C674 1.370 . S
C675 C676 1.403 . S
C676 C675 1.403 . S
C676 C677 1.404 . S
C676 C679 1.539 . S
C677 C673 1.408 . S
C677 C676 1.404 . S
C677 H689 0.930 . S
C678 C674 1.524 1_565 S
C678 H690 0.956 . S
C678 H691 0.961 . S
C678 H692 0.961 . S
C679 C676 1.539 . S
C679 H693 0.958 . S
C679 H694 0.961 . S
C679 H695 0.960 . S
H680 C664 0.931 . S
H681 C669 0.923 1_565 S
H682 C670 0.960 . S
H683 C670 0.962 . S
H684 C670 0.960 . S
H685 C671 0.961 1_556 S
H686 C671 0.961 1_556 S
H687 C671 0.961 . S
H688 C672 0.931 1_565 S
H689 C677 0.930 . S
H690 C678 0.956 . S
H691 C678 0.961 . S
H692 C678 0.961 . S
H693 C679 0.958 . S
H694 C679 0.961 . S
H695 C679 0.960 . S
C696 C697 1.391 . S
C696 C698 1.394 . S
C696 H712 0.931 . S
C697 C696 1.391 . S
C697 C701 1.376 . S
C698 C696 1.394 . S
C698 C699 1.369 . S
C698 C702 1.531 . S
C699 C698 1.369 . S
C699 C700 1.410 . S
C699 C707 1.503 . S
C700 C699 1.410 . S
C700 C701 1.392 . S
C700 C703 1.511 . S
C701 C697 1.376 . S
C701 C700 1.392 . S
C701 H713 0.929 . S
C702 C698 1.531 . S
C702 H714 0.960 . S
C702 H715 0.962 . S
C702 H716 0.960 . S
C703 C700 1.511 . S
C703 H717 0.961 . S
C703 H718 0.961 . S
C703 H719 0.961 . S
C704 C705 1.370 1_556 S
C704 C706 1.363 1_556 S
C704 H720 0.931 . S
C705 C704 1.370 1_554 S
C705 C709 1.408 . S
C706 C704 1.363 1_554 S
C706 C707 1.370 . S
C706 C710 1.524 1_554 S
C707 C699 1.503 . S
C707 C706 1.370 . S
C707 C708 1.403 . S
C708 C707 1.403 . S
C708 C709 1.404 . S
C708 C711 1.539 . S
C709 C705 1.408 . S
C709 C708 1.404 . S
C709 H721 0.930 . S
C710 C706 1.524 1_556 S
C710 H722 0.956 1_556 S
C710 H723 0.961 1_556 S
C710 H724 0.961 . S
C711 C708 1.539 . S
C711 H725 0.958 . S
C711 H726 0.961 . S
C711 H727 0.960 . S
H712 C696 0.931 . S
H713 C701 0.929 . S
H714 C702 0.960 . S
H715 C702 0.962 . S
H716 C702 0.960 . S
H717 C703 0.961 . S
H718 C703 0.961 . S
H719 C703 0.961 . S
H720 C704 0.931 . S
H721 C709 0.930 . S
H722 C710 0.956 1_554 S
H723 C710 0.961 1_554 S
H724 C710 0.961 . S
H725 C711 0.958 . S
H726 C711 0.961 . S
H727 C711 0.960 . S
C728 C729 1.391 . S
C728 C730 1.394 . S
C728 H744 0.931 . S
C729 C728 1.391 . S
C729 C733 1.376 . S
C730 C728 1.394 . S
C730 C731 1.369 . S
C730 C734 1.531 . S
C731 C730 1.369 . S
C731 C732 1.410 . S
C731 C739 1.503 . S
C732 C731 1.410 . S
C732 C733 1.392 . S
C732 C735 1.511 . S
C733 C729 1.376 . S
C733 C732 1.392 . S
C733 H745 0.929 . S
C734 C730 1.531 . S
C734 H746 0.960 . S
C734 H747 0.962 . S
C734 H748 0.960 . S
C735 C732 1.511 . S
C735 H749 0.961 . S
C735 H750 0.961 . S
C735 H751 0.961 . S
C736 C737 1.370 1_556 S
C736 C738 1.363 1_556 S
C736 H752 0.931 . S
C737 C736 1.370 1_554 S
C737 C741 1.408 . S
C738 C736 1.363 1_554 S
C738 C739 1.370 . S
C738 C742 1.525 1_554 S
C739 C731 1.503 . S
C739 C738 1.370 . S
C739 C740 1.403 . S
C740 C739 1.403 . S
C740 C741 1.404 . S
C740 C743 1.539 . S
C741 C737 1.408 . S
C741 C740 1.404 . S
C741 H753 0.930 . S
C742 C738 1.525 1_556 S
C742 H754 0.956 1_556 S
C742 H755 0.961 1_556 S
C742 H756 0.960 . S
C743 C740 1.539 . S
C743 H757 0.958 . S
C743 H758 0.961 . S
C743 H759 0.960 . S
H744 C728 0.931 . S
H745 C733 0.929 . S
H746 C734 0.960 . S
H747 C734 0.962 . S
H748 C734 0.960 . S
H749 C735 0.961 . S
H750 C735 0.961 . S
H751 C735 0.961 . S
H752 C736 0.931 . S
H753 C741 0.930 . S
H754 C742 0.956 1_554 S
H755 C742 0.961 1_554 S
H756 C742 0.960 . S
H757 C743 0.958 . S
H758 C743 0.961 . S
H759 C743 0.960 . S
C760 C761 1.391 1_655 S
C760 C762 1.394 . S
C760 H776 0.931 . S
C761 C760 1.391 1_455 S
C761 C765 1.376 . S
C762 C760 1.394 . S
C762 C763 1.369 1_655 S
C762 C766 1.531 . S
C763 C762 1.369 1_455 S
C763 C764 1.410 . S
C763 C771 1.503 . S
C764 C763 1.410 . S
C764 C765 1.392 . S
C764 C767 1.511 . S
C765 C761 1.376 . S
C765 C764 1.392 . S
C765 H777 0.929 . S
C766 C762 1.531 . S
C766 H778 0.960 . S
C766 H779 0.962 . S
C766 H780 0.960 . S
C767 C764 1.511 . S
C767 H781 0.961 . S
C767 H782 0.961 . S
C767 H783 0.961 . S
C768 C769 1.370 . S
C768 C770 1.363 . S
C768 H784 0.931 1_455 S
C769 C768 1.370 . S
C769 C773 1.408 . S
C770 C768 1.363 . S
C770 C771 1.370 . S
C770 C774 1.524 1_455 S
C771 C763 1.503 . S
C771 C770 1.370 . S
C771 C772 1.403 . S
C772 C771 1.403 . S
C772 C773 1.404 . S
C772 C775 1.539 . S
C773 C769 1.408 . S
C773 C772 1.404 . S
C773 H785 0.930 . S
C774 C770 1.524 1_655 S
C774 H786 0.956 . S
C774 H787 0.991 . S
C774 H788 0.961 . S
C775 C772 1.539 . S
C775 H789 0.958 . S
C775 H790 0.961 . S
C775 H791 0.960 . S
H776 C760 0.931 . S
H777 C765 0.929 . S
H778 C766 0.960 . S
H779 C766 0.962 . S
H780 C766 0.960 . S
H781 C767 0.961 . S
H782 C767 0.961 . S
H783 C767 0.961 . S
H784 C768 0.931 1_655 S
H785 C773 0.930 . S
H786 C774 0.956 . S
H787 C774 0.991 . S
H788 C774 0.961 . S
H789 C775 0.958 . S
H790 C775 0.961 . S
H791 C775 0.960 . S
C792 C793 1.391 1_565 S
C792 C794 1.394 . S
C792 H808 0.931 . S
C793 C792 1.391 1_545 S
C793 C797 1.376 . S
C794 C792 1.394 . S
C794 C795 1.369 1_565 S
C794 C798 1.531 . S
C795 C794 1.369 1_545 S
C795 C796 1.410 . S
C795 C803 1.503 . S
C796 C795 1.410 . S
C796 C797 1.392 . S
C796 C799 1.511 . S
C797 C793 1.376 . S
C797 C796 1.392 . S
C797 H809 0.929 . S
C798 C794 1.531 . S
C798 H810 0.960 . S
C798 H811 0.962 . S
C798 H812 0.960 . S
C799 C796 1.511 . S
C799 H813 0.961 . S
C799 H814 0.961 . S
C799 H815 0.961 . S
C800 C801 1.370 . S
C800 C802 1.363 . S
C800 H816 0.931 . S
C801 C800 1.370 . S
C801 C805 1.408 1_545 S
C802 C800 1.363 . S
C802 C803 1.370 . S
C802 C806 1.524 . S
C803 C795 1.503 . S
C803 C802 1.370 . S
C803 C804 1.403 1_545 S
C804 C803 1.403 1_565 S
C804 C805 1.404 . S
C804 C807 1.539 . S
C805 C801 1.408 1_565 S
C805 C804 1.404 . S
C805 H817 0.930 . S
C806 C802 1.524 . S
C806 H818 0.956 . S
C806 H819 0.961 . S
C806 H820 0.961 . S
C807 C804 1.539 . S
C807 H821 0.958 . S
C807 H822 0.961 . S
C807 H823 0.960 . S
H808 C792 0.931 . S
H809 C797 0.929 . S
H810 C798 0.960 . S
H811 C798 0.962 . S
H812 C798 0.960 . S
H813 C799 0.961 . S
H814 C799 0.961 . S
H815 C799 0.961 . S
H816 C800 0.931 . S
H817 C805 0.930 . S
H818 C806 0.956 . S
H819 C806 0.961 . S
H820 C806 0.961 . S
H821 C807 0.958 . S
H822 C807 0.961 . S
H823 C807 0.960 . S
C824 C825 1.391 . S
C824 C826 1.394 . S
C824 H840 0.931 . S
C825 C824 1.391 . S
C825 C829 1.376 . S
C826 C824 1.394 . S
C826 C827 1.369 . S
C826 C830 1.531 . S
C827 C826 1.369 . S
C827 C828 1.410 . S
C827 C835 1.503 . S
C828 C827 1.410 . S
C828 C829 1.392 . S
C828 C831 1.511 . S
C829 C825 1.376 . S
C829 C828 1.392 . S
C829 H841 0.929 . S
C830 C826 1.531 . S
C830 H842 0.960 . S
C830 H843 0.962 . S
C830 H844 0.960 . S
C831 C828 1.511 . S
C831 H845 0.961 . S
C831 H846 0.961 . S
C831 H847 0.961 . S
C832 C833 1.370 . S
C832 C834 1.363 . S
C832 H848 0.931 . S
C833 C832 1.370 . S
C833 C837 1.408 . S
C834 C832 1.363 . S
C834 C835 1.370 . S
C834 C838 1.524 . S
C835 C827 1.503 . S
C835 C834 1.370 . S
C835 C836 1.403 . S
C836 C835 1.403 . S
C836 C837 1.404 . S
C836 C839 1.539 . S
C837 C833 1.408 . S
C837 C836 1.404 . S
C837 H849 0.930 . S
C838 C834 1.524 . S
C838 H850 0.956 . S
C838 H851 0.961 . S
C838 H852 0.961 . S
C839 C836 1.539 . S
C839 H853 0.958 . S
C839 H854 0.961 . S
C839 H855 0.960 . S
H840 C824 0.931 . S
H841 C829 0.929 . S
H842 C830 0.960 . S
H843 C830 0.962 . S
H844 C830 0.960 . S
H845 C831 0.961 . S
H846 C831 0.961 . S
H847 C831 0.961 . S
H848 C832 0.931 . S
H849 C837 0.930 . S
H850 C838 0.956 . S
H851 C838 0.961 . S
H852 C838 0.961 . S
H853 C839 0.958 . S
H854 C839 0.961 . S
H855 C839 0.960 . S
C856 C857 1.391 . S
C856 C858 1.394 . S
C856 H872 0.931 . S
C857 C856 1.391 . S
C857 C861 1.376 . S
C858 C856 1.394 . S
C858 C859 1.369 . S
C858 C862 1.531 . S
C859 C858 1.369 . S
C859 C860 1.410 . S
C859 C867 1.503 . S
C860 C859 1.410 . S
C860 C861 1.392 . S
C860 C863 1.511 . S
C861 C857 1.376 . S
C861 C860 1.392 . S
C861 H873 0.929 . S
C862 C858 1.531 . S
C862 H874 0.960 . S
C862 H875 0.962 . S
C862 H876 0.960 . S
C863 C860 1.511 . S
C863 H877 0.961 . S
C863 H878 0.961 . S
C863 H879 0.961 . S
C864 C865 1.370 . S
C864 C866 1.363 . S
C864 H880 0.931 . S
C865 C864 1.370 . S
C865 C869 1.408 . S
C866 C864 1.363 . S
C866 C867 1.370 . S
C866 C870 1.524 . S
C867 C859 1.503 . S
C867 C866 1.370 . S
C867 C868 1.403 . S
C868 C867 1.403 . S
C868 C869 1.404 . S
C868 C871 1.539 . S
C869 C865 1.408 . S
C869 C868 1.404 . S
C869 H881 0.930 . S
C870 C866 1.524 . S
C870 H882 0.956 . S
C870 H883 0.961 . S
C870 H884 0.961 . S
C871 C868 1.539 . S
C871 H885 0.958 . S
C871 H886 0.961 . S
C871 H887 0.960 . S
H872 C856 0.931 . S
H873 C861 0.929 . S
H874 C862 0.960 . S
H875 C862 0.962 . S
H876 C862 0.960 . S
H877 C863 0.961 . S
H878 C863 0.961 . S
H879 C863 0.961 . S
H880 C864 0.931 . S
H881 C869 0.930 . S
H882 C870 0.956 . S
H883 C870 0.961 . S
H884 C870 0.961 . S
H885 C871 0.958 . S
H886 C871 0.961 . S
H887 C871 0.960 . S
C888 C889 1.391 . S
C888 C890 1.394 . S
C888 H904 0.931 . S
C889 C888 1.391 . S
C889 C893 1.376 1_655 S
C890 C888 1.394 . S
C890 C891 1.369 . S
C890 C894 1.531 . S
C891 C890 1.369 . S
C891 C892 1.410 1_655 S
C891 C899 1.503 . S
C892 C891 1.410 1_455 S
C892 C893 1.392 . S
C892 C895 1.511 . S
C893 C889 1.376 1_455 S
C893 C892 1.392 . S
C893 H905 0.929 . S
C894 C890 1.531 . S
C894 H906 0.960 . S
C894 H907 0.962 . S
C894 H908 0.960 . S
C895 C892 1.511 . S
C895 H909 0.961 . S
C895 H910 0.961 . S
C895 H911 0.961 . S
C896 C897 1.370 . S
C896 C898 1.363 . S
C896 H912 0.931 . S
C897 C896 1.370 . S
C897 C901 1.408 1_655 S
C898 C896 1.363 . S
C898 C899 1.370 . S
C898 C902 1.524 . S
C899 C891 1.503 . S
C899 C898 1.370 . S
C899 C900 1.403 1_655 S
C900 C899 1.403 1_455 S
C900 C901 1.404 . S
C900 C903 1.539 . S
C901 C897 1.408 1_455 S
C901 C900 1.404 . S
C901 H913 0.930 . S
C902 C898 1.524 . S
C902 H914 0.956 . S
C902 H915 0.961 . S
C902 H916 0.961 . S
C903 C900 1.539 . S
C903 H917 0.958 . S
C903 H918 0.961 . S
C903 H919 0.960 . S
H904 C888 0.931 . S
H905 C893 0.929 . S
H906 C894 0.960 . S
H907 C894 0.962 . S
H908 C894 0.960 . S
H909 C895 0.961 . S
H910 C895 0.961 . S
H911 C895 0.961 . S
H912 C896 0.931 . S
H913 C901 0.930 . S
H914 C902 0.956 . S
H915 C902 0.961 . S
H916 C902 0.961 . S
H917 C903 0.958 . S
H918 C903 0.961 . S
H919 C903 0.960 . S
C920 C921 1.391 1_545 S
C920 C922 1.394 . S
C920 H936 0.931 . S
C921 C920 1.391 1_565 S
C921 C925 1.376 . S
C922 C920 1.394 . S
C922 C923 1.362 1_545 S
C922 C926 1.531 . S
C923 C922 1.362 1_565 S
C923 C924 1.416 . S
C923 C931 1.507 . S
C924 C923 1.416 . S
C924 C925 1.392 . S
C924 C927 1.511 . S
C925 C921 1.376 . S
C925 C924 1.392 . S
C925 H937 0.929 . S
C926 C922 1.531 . S
C926 H938 0.960 . S
C926 H939 0.962 1_545 S
C926 H940 0.960 . S
C927 C924 1.511 . S
C927 H941 0.961 . S
C927 H942 0.961 . S
C927 H943 0.961 1_565 S
C928 C929 1.370 . S
C928 C930 1.363 . S
C928 H944 0.931 . S
C929 C928 1.370 . S
C929 C933 1.408 1_565 S
C930 C928 1.363 . S
C930 C931 1.370 . S
C930 C934 1.524 . S
C931 C923 1.507 . S
C931 C930 1.370 . S
C931 C932 1.403 1_565 S
C932 C931 1.403 1_545 S
C932 C933 1.404 . S
C932 C935 1.539 . S
C933 C929 1.408 1_545 S
C933 C932 1.404 . S
C933 H945 0.930 . S
C934 C930 1.524 . S
C934 H946 0.956 . S
C934 H947 0.961 . S
C934 H948 0.961 . S
C935 C932 1.539 . S
C935 H949 0.958 . S
C935 H950 0.961 . S
C935 H951 0.960 . S
H936 C920 0.931 . S
H937 C925 0.929 . S
H938 C926 0.960 . S
H939 C926 0.962 1_565 S
H940 C926 0.960 . S
H941 C927 0.961 . S
H942 C927 0.961 . S
H943 C927 0.961 1_545 S
H944 C928 0.931 . S
H945 C933 0.930 . S
H946 C934 0.956 . S
H947 C934 0.961 . S
H948 C934 0.961 . S
H949 C935 0.958 . S
H950 C935 0.961 . S
H951 C935 0.960 . S
C952 C953 1.391 . S
C952 C954 1.394 . S
C952 H968 0.931 . S
C953 C952 1.391 . S
C953 C957 1.376 . S
C954 C952 1.394 . S
C954 C955 1.369 . S
C954 C958 1.531 . S
C955 C954 1.369 . S
C955 C956 1.410 . S
C955 C963 1.503 . S
C956 C955 1.410 . S
C956 C957 1.392 . S
C956 C959 1.511 . S
C957 C953 1.376 . S
C957 C956 1.392 . S
C957 H969 0.929 . S
C958 C954 1.531 . S
C958 H970 0.960 . S
C958 H971 0.962 . S
C958 H972 0.960 . S
C959 C956 1.511 . S
C959 H973 0.961 . S
C959 H974 0.961 . S
C959 H975 0.961 . S
C960 C961 1.370 . S
C960 C962 1.363 . S
C960 H976 0.931 . S
C961 C960 1.370 . S
C961 C965 1.408 . S
C962 C960 1.363 . S
C962 C963 1.370 . S
C962 C966 1.524 . S
C963 C955 1.503 . S
C963 C962 1.370 . S
C963 C964 1.403 . S
C964 C963 1.403 . S
C964 C965 1.404 . S
C964 C967 1.539 . S
C965 C961 1.408 . S
C965 C964 1.404 . S
C965 H977 0.930 . S
C966 C962 1.524 . S
C966 H978 0.956 . S
C966 H979 0.961 . S
C966 H980 0.961 . S
C967 C964 1.539 . S
C967 H981 0.958 . S
C967 H982 0.961 . S
C967 H983 0.960 . S
H968 C952 0.931 . S
H969 C957 0.929 . S
H970 C958 0.960 . S
H971 C958 0.962 . S
H972 C958 0.960 . S
H973 C959 0.961 . S
H974 C959 0.961 . S
H975 C959 0.961 . S
H976 C960 0.931 . S
H977 C965 0.930 . S
H978 C966 0.956 . S
H979 C966 0.961 . S
H980 C966 0.961 . S
H981 C967 0.958 . S
H982 C967 0.961 . S
H983 C967 0.960 . S
C984 C985 1.391 . S
C984 C986 1.394 . S
C984 H1000 0.931 . S
C985 C984 1.391 . S
C985 C989 1.376 . S
C986 C984 1.394 . S
C986 C987 1.369 . S
C986 C990 1.531 . S
C987 C986 1.369 . S
C987 C988 1.410 . S
C987 C995 1.503 . S
C988 C987 1.410 . S
C988 C989 1.392 . S
C988 C991 1.511 . S
C989 C985 1.376 . S
C989 C988 1.392 . S
C989 H1001 0.929 . S
C990 C986 1.531 . S
C990 H1002 0.960 . S
C990 H1003 0.962 . S
C990 H1004 0.960 . S
C991 C988 1.511 . S
C991 H1005 0.961 . S
C991 H1006 0.961 . S
C991 H1007 0.961 . S
C992 C993 1.370 . S
C992 C994 1.363 . S
C992 H1008 0.931 . S
C993 C992 1.370 . S
C993 C997 1.408 . S
C994 C992 1.363 . S
C994 C995 1.370 . S
C994 C998 1.524 . S
C995 C987 1.503 . S
C995 C994 1.370 . S
C995 C996 1.403 . S
C996 C995 1.403 . S
C996 C997 1.404 . S
C996 C999 1.539 . S
C997 C993 1.408 . S
C997 C996 1.404 . S
C997 H1009 0.930 . S
C998 C994 1.524 . S
C998 H1010 0.956 . S
C998 H1011 0.961 . S
C998 H1012 0.961 . S
C999 C996 1.539 . S
C999 H1013 0.958 . S
C999 H1014 0.961 . S
C999 H1015 0.960 . S
H1000 C984 0.931 . S
H1001 C989 0.929 . S
H1002 C990 0.960 . S
H1003 C990 0.962 . S
H1004 C990 0.960 . S
H1005 C991 0.961 . S
H1006 C991 0.961 . S
H1007 C991 0.961 . S
H1008 C992 0.931 . S
H1009 C997 0.930 . S
H1010 C998 0.956 . S
H1011 C998 0.961 . S
H1012 C998 0.961 . S
H1013 C999 0.958 . S
H1014 C999 0.961 . S
H1015 C999 0.960 . S
C249 C74 1.757 . S
C257 C98 1.870 . S
C289 C138 1.873 . S
C281 C85 1.748 . S
C321 C178 1.869 . S
C313 C52 1.784 . S
C353 C218 1.870 . S
C345 C63 1.761 . S
C385 C107 1.876 1_565 S
C377 C30 1.761 1_565 S
C409 C41 1.752 . S
C417 C147 1.868 . S
C441 C8 1.768 . S
C449 C187 1.876 . S
C473 C19 1.739 1_655 S
C481 C227 1.871 . S
C513 C104 0.621 . S
C505 C62 0.626 . S
C545 C144 0.628 . S
C537 C73 0.625 . S
C577 C184 0.601 . S
C569 C84 0.620 . S
C601 C51 0.578 . S
C609 C224 0.611 . S
C633 C18 0.609 1_655 S
C641 C95 0.620 . S
C673 C135 0.646 . S
C665 C29 0.551 1_565 S
C705 C175 0.635 . S
C697 C40 0.615 . S
C729 C7 0.609 . S
C737 C215 0.637 . S
C761 C60 1.705 . S
C769 C99 2.235 . S
C793 C71 1.756 . S
C801 C139 2.227 . S
C833 C179 2.238 . S
C825 C82 1.681 . S
C865 C219 2.229 . S
C857 C49 1.754 . S
C889 C16 1.753 1_655 S
C897 C90 2.228 . S
C929 C130 2.228 . S
C921 C27 1.705 1_565 S
C961 C170 2.234 . S
C953 C38 1.721 . S
C985 C5 1.776 . S
C993 C210 2.238 . S
