# Generated by pormake.
# Topology gar, (4,6)-cn, num edge types: 1
# Building blocks:
#     Node 0, Type 0, BuildingBlock: TATPOV_clean_sbu_0, # of connection points: 4
#     Node 1, Type 0, BuildingBlock: TATPOV_clean_sbu_0, # of connection points: 4
#     Node 2, Type 0, BuildingBlock: TATPOV_clean_sbu_0, # of connection points: 4
#     Node 3, Type 0, BuildingBlock: TATPOV_clean_sbu_0, # of connection points: 4
#     Node 4, Type 0, BuildingBlock: TATPOV_clean_sbu_0, # of connection points: 4
#     Node 5, Type 0, BuildingBlock: TATPOV_clean_sbu_0, # of connection points: 4
#     Node 6, Type 0, BuildingBlock: TATPOV_clean_sbu_0, # of connection points: 4
#     Node 7, Type 0, BuildingBlock: TATPOV_clean_sbu_0, # of connection points: 4
#     Node 8, Type 0, BuildingBlock: TATPOV_clean_sbu_0, # of connection points: 4
#     Node 9, Type 0, BuildingBlock: TATPOV_clean_sbu_0, # of connection points: 4
#     Node 10, Type 0, BuildingBlock: TATPOV_clean_sbu_0, # of connection points: 4
#     Node 11, Type 0, BuildingBlock: TATPOV_clean_sbu_0, # of connection points: 4
#     Node 12, Type 0, BuildingBlock: TATPOV_clean_sbu_0, # of connection points: 4
#     Node 13, Type 0, BuildingBlock: TATPOV_clean_sbu_0, # of connection points: 4
#     Node 14, Type 0, BuildingBlock: TATPOV_clean_sbu_0, # of connection points: 4
#     Node 15, Type 0, BuildingBlock: TATPOV_clean_sbu_0, # of connection points: 4
#     Node 16, Type 0, BuildingBlock: TATPOV_clean_sbu_0, # of connection points: 4
#     Node 17, Type 0, BuildingBlock: TATPOV_clean_sbu_0, # of connection points: 4
#     Node 18, Type 0, BuildingBlock: TATPOV_clean_sbu_0, # of connection points: 4
#     Node 19, Type 0, BuildingBlock: TATPOV_clean_sbu_0, # of connection points: 4
#     Node 20, Type 0, BuildingBlock: TATPOV_clean_sbu_0, # of connection points: 4
#     Node 21, Type 0, BuildingBlock: TATPOV_clean_sbu_0, # of connection points: 4
#     Node 22, Type 0, BuildingBlock: TATPOV_clean_sbu_0, # of connection points: 4
#     Node 23, Type 0, BuildingBlock: TATPOV_clean_sbu_0, # of connection points: 4
#     Node 24, Type 1, BuildingBlock: CUKXOW_clean_sbu_0, # of connection points: 6
#     Node 25, Type 1, BuildingBlock: CUKXOW_clean_sbu_0, # of connection points: 6
#     Node 26, Type 1, BuildingBlock: CUKXOW_clean_sbu_0, # of connection points: 6
#     Node 27, Type 1, BuildingBlock: CUKXOW_clean_sbu_0, # of connection points: 6
#     Node 28, Type 1, BuildingBlock: CUKXOW_clean_sbu_0, # of connection points: 6
#     Node 29, Type 1, BuildingBlock: CUKXOW_clean_sbu_0, # of connection points: 6
#     Node 30, Type 1, BuildingBlock: CUKXOW_clean_sbu_0, # of connection points: 6
#     Node 31, Type 1, BuildingBlock: CUKXOW_clean_sbu_0, # of connection points: 6
#     Node 32, Type 1, BuildingBlock: CUKXOW_clean_sbu_0, # of connection points: 6
#     Node 33, Type 1, BuildingBlock: CUKXOW_clean_sbu_0, # of connection points: 6
#     Node 34, Type 1, BuildingBlock: CUKXOW_clean_sbu_0, # of connection points: 6
#     Node 35, Type 1, BuildingBlock: CUKXOW_clean_sbu_0, # of connection points: 6
#     Node 36, Type 1, BuildingBlock: CUKXOW_clean_sbu_0, # of connection points: 6
#     Node 37, Type 1, BuildingBlock: CUKXOW_clean_sbu_0, # of connection points: 6
#     Node 38, Type 1, BuildingBlock: CUKXOW_clean_sbu_0, # of connection points: 6
#     Node 39, Type 1, BuildingBlock: CUKXOW_clean_sbu_0, # of connection points: 6
#     Edge 40, Type (0, 1), BuildingBlock: KIFKEQ_clean_linker_1, # of connection points: 2
#     Edge 41, Type (0, 1), BuildingBlock: KIFKEQ_clean_linker_1, # of connection points: 2
#     Edge 42, Type (0, 1), BuildingBlock: KIFKEQ_clean_linker_1, # of connection points: 2
#     Edge 43, Type (0, 1), BuildingBlock: KIFKEQ_clean_linker_1, # of connection points: 2
#     Edge 44, Type (0, 1), BuildingBlock: KIFKEQ_clean_linker_1, # of connection points: 2
#     Edge 45, Type (0, 1), BuildingBlock: KIFKEQ_clean_linker_1, # of connection points: 2
#     Edge 46, Type (0, 1), BuildingBlock: KIFKEQ_clean_linker_1, # of connection points: 2
#     Edge 47, Type (0, 1), BuildingBlock: KIFKEQ_clean_linker_1, # of connection points: 2
#     Edge 48, Type (0, 1), BuildingBlock: KIFKEQ_clean_linker_1, # of connection points: 2
#     Edge 49, Type (0, 1), BuildingBlock: KIFKEQ_clean_linker_1, # of connection points: 2
#     Edge 50, Type (0, 1), BuildingBlock: KIFKEQ_clean_linker_1, # of connection points: 2
#     Edge 51, Type (0, 1), BuildingBlock: KIFKEQ_clean_linker_1, # of connection points: 2
#     Edge 52, Type (0, 1), BuildingBlock: KIFKEQ_clean_linker_1, # of connection points: 2
#     Edge 53, Type (0, 1), BuildingBlock: KIFKEQ_clean_linker_1, # of connection points: 2
#     Edge 54, Type (0, 1), BuildingBlock: KIFKEQ_clean_linker_1, # of connection points: 2
#     Edge 55, Type (0, 1), BuildingBlock: KIFKEQ_clean_linker_1, # of connection points: 2
#     Edge 56, Type (0, 1), BuildingBlock: KIFKEQ_clean_linker_1, # of connection points: 2
#     Edge 57, Type (0, 1), BuildingBlock: KIFKEQ_clean_linker_1, # of connection points: 2
#     Edge 58, Type (0, 1), BuildingBlock: KIFKEQ_clean_linker_1, # of connection points: 2
#     Edge 59, Type (0, 1), BuildingBlock: KIFKEQ_clean_linker_1, # of connection points: 2
#     Edge 60, Type (0, 1), BuildingBlock: KIFKEQ_clean_linker_1, # of connection points: 2
#     Edge 61, Type (0, 1), BuildingBlock: KIFKEQ_clean_linker_1, # of connection points: 2
#     Edge 62, Type (0, 1), BuildingBlock: KIFKEQ_clean_linker_1, # of connection points: 2
#     Edge 63, Type (0, 1), BuildingBlock: KIFKEQ_clean_linker_1, # of connection points: 2
#     Edge 64, Type (0, 1), BuildingBlock: KIFKEQ_clean_linker_1, # of connection points: 2
#     Edge 65, Type (0, 1), BuildingBlock: KIFKEQ_clean_linker_1, # of connection points: 2
#     Edge 66, Type (0, 1), BuildingBlock: KIFKEQ_clean_linker_1, # of connection points: 2
#     Edge 67, Type (0, 1), BuildingBlock: KIFKEQ_clean_linker_1, # of connection points: 2
#     Edge 68, Type (0, 1), BuildingBlock: KIFKEQ_clean_linker_1, # of connection points: 2
#     Edge 69, Type (0, 1), BuildingBlock: KIFKEQ_clean_linker_1, # of connection points: 2
#     Edge 70, Type (0, 1), BuildingBlock: KIFKEQ_clean_linker_1, # of connection points: 2
#     Edge 71, Type (0, 1), BuildingBlock: KIFKEQ_clean_linker_1, # of connection points: 2
#     Edge 72, Type (0, 1), BuildingBlock: KIFKEQ_clean_linker_1, # of connection points: 2
#     Edge 73, Type (0, 1), BuildingBlock: KIFKEQ_clean_linker_1, # of connection points: 2
#     Edge 74, Type (0, 1), BuildingBlock: KIFKEQ_clean_linker_1, # of connection points: 2
#     Edge 75, Type (0, 1), BuildingBlock: KIFKEQ_clean_linker_1, # of connection points: 2
#     Edge 76, Type (0, 1), BuildingBlock: KIFKEQ_clean_linker_1, # of connection points: 2
#     Edge 77, Type (0, 1), BuildingBlock: KIFKEQ_clean_linker_1, # of connection points: 2
#     Edge 78, Type (0, 1), BuildingBlock: KIFKEQ_clean_linker_1, # of connection points: 2
#     Edge 79, Type (0, 1), BuildingBlock: KIFKEQ_clean_linker_1, # of connection points: 2
#     Edge 80, Type (0, 1), BuildingBlock: KIFKEQ_clean_linker_1, # of connection points: 2
#     Edge 81, Type (0, 1), BuildingBlock: KIFKEQ_clean_linker_1, # of connection points: 2
#     Edge 82, Type (0, 1), BuildingBlock: KIFKEQ_clean_linker_1, # of connection points: 2
#     Edge 83, Type (0, 1), BuildingBlock: KIFKEQ_clean_linker_1, # of connection points: 2
#     Edge 84, Type (0, 1), BuildingBlock: KIFKEQ_clean_linker_1, # of connection points: 2
#     Edge 85, Type (0, 1), BuildingBlock: KIFKEQ_clean_linker_1, # of connection points: 2
#     Edge 86, Type (0, 1), BuildingBlock: KIFKEQ_clean_linker_1, # of connection points: 2
#     Edge 87, Type (0, 1), BuildingBlock: KIFKEQ_clean_linker_1, # of connection points: 2
#     Edge 88, Type (0, 1), BuildingBlock: KIFKEQ_clean_linker_1, # of connection points: 2
#     Edge 89, Type (0, 1), BuildingBlock: KIFKEQ_clean_linker_1, # of connection points: 2
#     Edge 90, Type (0, 1), BuildingBlock: KIFKEQ_clean_linker_1, # of connection points: 2
#     Edge 91, Type (0, 1), BuildingBlock: KIFKEQ_clean_linker_1, # of connection points: 2
#     Edge 92, Type (0, 1), BuildingBlock: KIFKEQ_clean_linker_1, # of connection points: 2
#     Edge 93, Type (0, 1), BuildingBlock: KIFKEQ_clean_linker_1, # of connection points: 2
#     Edge 94, Type (0, 1), BuildingBlock: KIFKEQ_clean_linker_1, # of connection points: 2
#     Edge 95, Type (0, 1), BuildingBlock: KIFKEQ_clean_linker_1, # of connection points: 2
#     Edge 96, Type (0, 1), BuildingBlock: KIFKEQ_clean_linker_1, # of connection points: 2
#     Edge 97, Type (0, 1), BuildingBlock: KIFKEQ_clean_linker_1, # of connection points: 2
#     Edge 98, Type (0, 1), BuildingBlock: KIFKEQ_clean_linker_1, # of connection points: 2
#     Edge 99, Type (0, 1), BuildingBlock: KIFKEQ_clean_linker_1, # of connection points: 2
#     Edge 100, Type (0, 1), BuildingBlock: KIFKEQ_clean_linker_1, # of connection points: 2
#     Edge 101, Type (0, 1), BuildingBlock: KIFKEQ_clean_linker_1, # of connection points: 2
#     Edge 102, Type (0, 1), BuildingBlock: KIFKEQ_clean_linker_1, # of connection points: 2
#     Edge 103, Type (0, 1), BuildingBlock: KIFKEQ_clean_linker_1, # of connection points: 2
#     Edge 104, Type (0, 1), BuildingBlock: KIFKEQ_clean_linker_1, # of connection points: 2
#     Edge 105, Type (0, 1), BuildingBlock: KIFKEQ_clean_linker_1, # of connection points: 2
#     Edge 106, Type (0, 1), BuildingBlock: KIFKEQ_clean_linker_1, # of connection points: 2
#     Edge 107, Type (0, 1), BuildingBlock: KIFKEQ_clean_linker_1, # of connection points: 2
#     Edge 108, Type (0, 1), BuildingBlock: KIFKEQ_clean_linker_1, # of connection points: 2
#     Edge 109, Type (0, 1), BuildingBlock: KIFKEQ_clean_linker_1, # of connection points: 2
#     Edge 110, Type (0, 1), BuildingBlock: KIFKEQ_clean_linker_1, # of connection points: 2
#     Edge 111, Type (0, 1), BuildingBlock: KIFKEQ_clean_linker_1, # of connection points: 2
#     Edge 112, Type (0, 1), BuildingBlock: KIFKEQ_clean_linker_1, # of connection points: 2
#     Edge 113, Type (0, 1), BuildingBlock: KIFKEQ_clean_linker_1, # of connection points: 2
#     Edge 114, Type (0, 1), BuildingBlock: KIFKEQ_clean_linker_1, # of connection points: 2
#     Edge 115, Type (0, 1), BuildingBlock: KIFKEQ_clean_linker_1, # of connection points: 2
#     Edge 116, Type (0, 1), BuildingBlock: KIFKEQ_clean_linker_1, # of connection points: 2
#     Edge 117, Type (0, 1), BuildingBlock: KIFKEQ_clean_linker_1, # of connection points: 2
#     Edge 118, Type (0, 1), BuildingBlock: KIFKEQ_clean_linker_1, # of connection points: 2
#     Edge 119, Type (0, 1), BuildingBlock: KIFKEQ_clean_linker_1, # of connection points: 2
#     Edge 120, Type (0, 1), BuildingBlock: KIFKEQ_clean_linker_1, # of connection points: 2
#     Edge 121, Type (0, 1), BuildingBlock: KIFKEQ_clean_linker_1, # of connection points: 2
#     Edge 122, Type (0, 1), BuildingBlock: KIFKEQ_clean_linker_1, # of connection points: 2
#     Edge 123, Type (0, 1), BuildingBlock: KIFKEQ_clean_linker_1, # of connection points: 2
#     Edge 124, Type (0, 1), BuildingBlock: KIFKEQ_clean_linker_1, # of connection points: 2
#     Edge 125, Type (0, 1), BuildingBlock: KIFKEQ_clean_linker_1, # of connection points: 2
#     Edge 126, Type (0, 1), BuildingBlock: KIFKEQ_clean_linker_1, # of connection points: 2
#     Edge 127, Type (0, 1), BuildingBlock: KIFKEQ_clean_linker_1, # of connection points: 2
#     Edge 128, Type (0, 1), BuildingBlock: KIFKEQ_clean_linker_1, # of connection points: 2
#     Edge 129, Type (0, 1), BuildingBlock: KIFKEQ_clean_linker_1, # of connection points: 2
#     Edge 130, Type (0, 1), BuildingBlock: KIFKEQ_clean_linker_1, # of connection points: 2
#     Edge 131, Type (0, 1), BuildingBlock: KIFKEQ_clean_linker_1, # of connection points: 2
#     Edge 132, Type (0, 1), BuildingBlock: KIFKEQ_clean_linker_1, # of connection points: 2
#     Edge 133, Type (0, 1), BuildingBlock: KIFKEQ_clean_linker_1, # of connection points: 2
#     Edge 134, Type (0, 1), BuildingBlock: KIFKEQ_clean_linker_1, # of connection points: 2
#     Edge 135, Type (0, 1), BuildingBlock: KIFKEQ_clean_linker_1, # of connection points: 2
# Relax obj value: 0.111
# Max RMSD: 0.223
# Mean RMSD: 0.146
data_MOF--net-gar--node1-TATPOV_clean_sbu_0--node2-CUKXOW_clean_sbu_0--edge1-KIFKEQ_clean_linker_1
_symmetry_space_group_name_H-M    P1
_symmetry_Int_Tables_number       1
_symmetry_cell_setting            triclinic
loop_
_symmetry_equiv_pos_as_xyz
'x, y, z'
_cell_length_a     56.142933
_cell_length_b     54.646811
_cell_length_c     55.849713
_cell_angle_alpha  94.252603
_cell_angle_beta   95.89264
_cell_angle_gamma 100.72482
loop_
_atom_site_label
_atom_site_type_symbol
_atom_site_fract_x
_atom_site_fract_y
_atom_site_fract_z
_atom_type_partial_charge
Zn0 Zn 0.97655 0.25802 0.4521 0.0
Zn1 Zn 0.0179 0.26376 0.43324 0.0
O2 O 0.02339 0.29715 0.45488 0.0
O3 O 0.98733 0.29292 0.46809 0.0
O4 O 0.04771 0.26391 0.41597 0.0
O5 O 0.98308 0.22931 0.46947 0.0
O6 O 0.01647 0.23185 0.4516 0.0
C7 C 0.00834 0.30588 0.46713 0.0
C8 C 0.9686 0.2564 0.40147 0.0
O9 O 0.99178 0.26247 0.40417 0.0
O10 O 0.95713 0.25172 0.41944 0.0
C11 C 0.05535 0.28125 0.40306 0.0
O12 O 0.04494 0.30088 0.40269 0.0
C13 C 0.00194 0.22096 0.46541 0.0
Zn14 Zn 0.98359 0.73818 0.63518 0.0
Zn15 Zn 0.99112 0.77825 0.61007 0.0
O16 O 0.96029 0.78137 0.6263 0.0
O17 O 0.95361 0.74753 0.6457 0.0
O18 O 0.99611 0.8088 0.59195 0.0
O19 O 0.01581 0.75114 0.65529 0.0
O20 O 0.02277 0.78298 0.63325 0.0
C21 C 0.9475 0.76748 0.6395 0.0
C22 C 0.98208 0.72543 0.58428 0.0
O23 O 0.98665 0.74904 0.58348 0.0
O24 O 0.9803 0.7162 0.60429 0.0
C25 C 0.98376 0.80922 0.57166 0.0
O26 O 0.96775 0.78922 0.56237 0.0
C27 C 0.02948 0.77089 0.65052 0.0
Zn28 Zn 0.47829 0.76039 0.95962 0.0
Zn29 Zn 0.51899 0.76502 0.93806 0.0
O30 O 0.52467 0.79904 0.95867 0.0
O31 O 0.49044 0.79526 0.97536 0.0
O32 O 0.5489 0.76532 0.92077 0.0
O33 O 0.48577 0.73117 0.97604 0.0
O34 O 0.51849 0.73393 0.95706 0.0
C35 C 0.51094 0.80811 0.97232 0.0
C36 C 0.46845 0.75691 0.90833 0.0
O37 O 0.49166 0.76152 0.90973 0.0
O38 O 0.45798 0.75466 0.92729 0.0
C39 C 0.55239 0.77801 0.90283 0.0
O40 O 0.53699 0.79243 0.89647 0.0
C41 C 0.50454 0.72296 0.97129 0.0
Zn42 Zn 0.47387 0.2292 0.11749 0.0
Zn43 Zn 0.48548 0.2747 0.10285 0.0
O44 O 0.45561 0.27612 0.1212 0.0
O45 O 0.4476 0.23916 0.13502 0.0
O46 O 0.49179 0.3082 0.08964 0.0
O47 O 0.50815 0.23475 0.13472 0.0
O48 O 0.51633 0.27359 0.12515 0.0
C49 C 0.4431 0.26085 0.13347 0.0
C50 C 0.47238 0.22752 0.06678 0.0
O51 O 0.48137 0.25067 0.07185 0.0
O52 O 0.46607 0.21386 0.08323 0.0
C53 C 0.47718 0.31087 0.07152 0.0
O54 O 0.45899 0.29233 0.06338 0.0
C55 C 0.52263 0.25571 0.13605 0.0
Zn56 Zn 0.02409 0.77146 0.1241 0.0
Zn57 Zn 0.98965 0.76729 0.15152 0.0
O58 O 0.98426 0.79561 0.12877 0.0
O59 O 0.01191 0.79526 0.10359 0.0
O60 O 0.96023 0.76513 0.17143 0.0
O61 O 0.01632 0.7358 0.11162 0.0
O62 O 0.98521 0.7312 0.13313 0.0
C63 C 0.99397 0.80364 0.11037 0.0
C64 C 0.04399 0.78321 0.17319 0.0
O65 O 0.02162 0.77634 0.17671 0.0
O66 O 0.04963 0.78382 0.15188 0.0
C67 C 0.95275 0.78487 0.17838 0.0
O68 O 0.96483 0.80661 0.17363 0.0
C69 C -0.00219 0.7222 0.11809 0.0
Zn70 Zn 0.48268 0.78173 0.37461 0.0
Zn71 Zn 0.52047 0.78979 0.35423 0.0
O72 O 0.52231 0.82551 0.37194 0.0
O73 O 0.48504 0.81829 0.38231 0.0
O74 O 0.552 0.79074 0.33809 0.0
O75 O 0.49385 0.76187 0.40013 0.0
O76 O 0.52369 0.76161 0.37764 0.0
C77 C 0.50472 0.83342 0.38082 0.0
C78 C 0.46914 0.77082 0.32566 0.0
O79 O 0.49127 0.78219 0.32596 0.0
O80 O 0.46114 0.76484 0.34517 0.0
C81 C 0.55971 0.80417 0.32172 0.0
O82 O 0.54676 0.82008 0.31342 0.0
C83 C 0.51275 0.75396 0.39548 0.0
Zn84 Zn 0.52925 0.27421 0.63011 0.0
Zn85 Zn 0.49172 0.26508 0.65098 0.0
O86 O 0.48803 0.29495 0.62968 0.0
O87 O 0.51746 0.29573 0.60651 0.0
O88 O 0.4601 0.26152 0.66767 0.0
O89 O 0.52707 0.23821 0.61983 0.0
O90 O 0.49015 0.23031 0.63094 0.0
C91 C 0.49881 0.30357 0.61209 0.0
C92 C 0.54351 0.28311 0.67923 0.0
O93 O 0.52133 0.27186 0.679 0.0
O94 O 0.55134 0.28949 0.65976 0.0
C95 C 0.45932 0.27311 0.68819 0.0
O96 O 0.47961 0.28674 0.69967 0.0
C97 C 0.50741 0.22292 0.62091 0.0
Zn98 Zn 0.9853 0.2826 0.87877 0.0
Zn99 Zn 0.0228 0.29214 0.85787 0.0
O100 O 0.02373 0.32718 0.87643 0.0
O101 O 0.98679 0.31886 0.88749 0.0
O102 O 0.05372 0.29599 0.8404 0.0
O103 O -0.00208 0.26263 0.90341 0.0
O104 O 0.02777 0.26385 0.8807 0.0
C105 C 0.00616 0.33443 0.88597 0.0
C106 C 0.97117 0.27216 0.82992 0.0
O107 O 0.99313 0.28397 0.83009 0.0
O108 O 0.96349 0.26579 0.84945 0.0
C109 C 0.06064 0.27627 0.83248 0.0
O110 O 0.04726 0.25442 0.83512 0.0
C111 C 0.01717 0.25557 0.89852 0.0
Zn112 Zn 0.42571 0.04622 0.23428 0.0
Zn113 Zn 0.39913 0.07925 0.23817 0.0
O114 O 0.42187 0.08352 0.27236 0.0
O115 O 0.44354 0.0543 0.26718 0.0
O116 O 0.37863 0.10797 0.24007 0.0
O117 O 0.44199 0.05728 0.20626 0.0
O118 O 0.41624 0.08323 0.20512 0.0
C119 C 0.43812 0.07155 0.28065 0.0
C120 C 0.37572 0.0231 0.23174 0.0
O121 O 0.37331 0.04573 0.23627 0.0
O122 O 0.39651 0.01839 0.22884 0.0
C123 C 0.35554 0.10398 0.23376 0.0
O124 O 0.34438 0.08115 0.22553 0.0
C125 C 0.43287 0.07364 0.19581 0.0
Zn126 Zn 0.23498 0.18665 0.46933 0.0
Zn127 Zn 0.26343 0.15289 0.47855 0.0
O128 O 0.27726 0.16827 0.44892 0.0
O129 O 0.25357 0.19561 0.44173 0.0
O130 O 0.28537 0.12929 0.48823 0.0
O131 O 0.24743 0.20585 0.50156 0.0
O132 O 0.26959 0.17738 0.5089 0.0
C133 C 0.27117 0.18545 0.4368 0.0
C134 C 0.2077 0.13639 0.46901 0.0
O135 O 0.2288 0.13117 0.47365 0.0
O136 O 0.20557 0.15865 0.46595 0.0
C137 C 0.28743 0.10958 0.47574 0.0
O138 O 0.27444 0.10338 0.45449 0.0
C139 C 0.26256 0.1974 0.51545 0.0
Zn140 Zn 0.11831 0.02694 0.7846 0.0
Zn141 Zn 0.15152 0.00012 0.78494 0.0
O142 O 0.13573 0.99305 0.81707 0.0
O143 O 0.11197 0.02094 0.81813 0.0
O144 O 0.17602 0.9768 0.78252 0.0
O145 O 0.09701 0.00595 0.75702 0.0
O146 O 0.12861 0.98826 0.75272 0.0
C147 C 0.12099 0.00402 0.82779 0.0
C148 C 0.16479 0.05681 0.78096 0.0
O149 O 0.17204 0.03653 0.78517 0.0
O150 O 0.1422 0.05715 0.77835 0.0
C151 C 0.17225 0.95517 0.79017 0.0
O152 O 0.15282 0.94827 0.80115 0.0
C153 C 0.10723 0.99123 0.74504 0.0
Zn154 Zn 0.24808 0.86316 0.01838 0.0
Zn155 Zn 0.21353 0.88794 0.01272 0.0
O156 O 0.21173 0.86614 0.97852 0.0
O157 O 0.24112 0.84504 0.98558 0.0
O158 O 0.18376 0.90639 0.01028 0.0
O159 O 0.23843 0.84575 0.04655 0.0
O160 O 0.21098 0.86985 0.04581 0.0
C161 C 0.22442 0.8504 0.97114 0.0
C162 C 0.26676 0.91563 0.02047 0.0
O163 O 0.24427 0.91655 0.01531 0.0
O164 O 0.27312 0.89501 0.02375 0.0
C165 C 0.18451 0.92674 0.0235 0.0
O166 O 0.20432 0.93566 0.03855 0.0
C167 C 0.22158 0.85376 0.05605 0.0
Zn168 Zn 0.26972 0.36745 0.04668 0.0
Zn169 Zn 0.24396 0.40303 0.03901 0.0
O170 O 0.24028 0.38237 0.00589 0.0
O171 O 0.26152 0.35292 0.01239 0.0
O172 O 0.22272 0.42898 0.03268 0.0
O173 O 0.24818 0.35321 0.0701 0.0
O174 O 0.22707 0.38313 0.06537 0.0
C175 C 0.24814 0.36314 -0.00173 0.0
C176 C 0.29961 0.41652 0.05489 0.0
O177 O 0.2795 0.42326 0.04832 0.0
O178 O 0.29995 0.39362 0.05663 0.0
C179 C 0.21845 0.4362 0.01176 0.0
O180 O 0.22913 0.42781 -0.00612 0.0
C181 C 0.23069 0.36348 0.07503 0.0
Zn182 Zn 0.77873 0.20837 -0.00212 0.0
Zn183 Zn 0.80518 0.17546 -0.00215 0.0
O184 O 0.8077 0.19408 0.96505 0.0
O185 O 0.78881 0.22566 0.96978 0.0
O186 O 0.83296 0.15442 -0.00151 0.0
O187 O 0.78928 0.22521 0.03089 0.0
O188 O 0.81006 0.19492 0.03358 0.0
C189 C 0.80078 0.21345 0.95715 0.0
C190 C 0.75094 0.15692 0.99215 0.0
O191 O 0.77183 0.15066 -0.00548 0.0
O192 O 0.74953 0.17982 0.99249 0.0
C193 C 0.83158 0.13382 0.98548 0.0
O194 O 0.81145 0.12494 0.97087 0.0
C195 C 0.80283 0.21381 0.04345 0.0
Zn196 Zn 0.07435 0.5183 0.26299 0.0
Zn197 Zn 0.10197 0.48539 0.26344 0.0
O198 O 0.08519 0.484 0.29614 0.0
O199 O 0.06137 0.51179 0.29413 0.0
O200 O 0.12127 0.45624 0.26439 0.0
O201 O 0.05427 0.5046 0.23209 0.0
O202 O 0.08017 0.47924 0.22878 0.0
C203 C 0.06988 0.49552 0.30538 0.0
C204 C 0.12497 0.54037 0.26249 0.0
O205 O 0.12808 0.51802 0.26435 0.0
O206 O 0.10372 0.54522 0.26137 0.0
C207 C 0.14431 0.45926 0.26368 0.0
O208 O 0.15661 0.48183 0.26187 0.0
C209 C 0.0621 0.48825 0.2196 0.0
Zn210 Zn 0.7632 0.86554 0.55267 0.0
Zn211 Zn 0.73777 0.90065 0.54126 0.0
O212 O 0.73466 0.87778 0.50961 0.0
O213 O 0.75576 0.84894 0.51899 0.0
O214 O 0.71717 0.92638 0.53252 0.0
O215 O 0.74099 0.85383 0.57657 0.0
O216 O 0.72029 0.88347 0.56863 0.0
C217 C 0.74279 0.85822 0.5036 0.0
C218 C 0.79316 0.91456 0.55775 0.0
O219 O 0.77318 0.92089 0.54999 0.0
O220 O 0.79337 0.89204 0.56151 0.0
C221 C 0.71327 0.93234 0.51105 0.0
O222 O 0.72378 0.92244 0.49383 0.0
C223 C 0.72358 0.86482 0.58011 0.0
Zn224 Zn 0.90715 0.02435 0.22733 0.0
Zn225 Zn 0.87764 0.05458 0.23358 0.0
O226 O 0.89978 0.05941 0.26675 0.0
O227 O 0.923 0.03174 0.26109 0.0
O228 O 0.85549 0.08013 0.23748 0.0
O229 O 0.92308 0.04203 0.20183 0.0
O230 O 0.89486 0.06509 0.20295 0.0
C231 C 0.91663 0.04827 0.27472 0.0
C232 C 0.85809 -0.00224 0.22286 0.0
O233 O 0.85417 0.0195 0.22922 0.0
O234 O 0.87937 0.99511 0.21917 0.0
C235 C 0.86367 0.10161 0.24894 0.0
O236 O 0.88662 0.1071 0.2585 0.0
C237 C 0.9131 0.05905 0.19366 0.0
Zn238 Zn 0.27559 0.70391 0.50287 0.0
Zn239 Zn 0.30367 0.67486 0.49703 0.0
O240 O 0.30201 0.69423 0.46449 0.0
O241 O 0.27263 0.71479 0.47002 0.0
O242 O 0.33119 0.65378 0.49362 0.0
O243 O 0.29417 0.72727 0.5302 0.0
O244 O 0.31207 0.69492 0.53264 0.0
C245 C 0.28744 0.70817 0.4565 0.0
C246 C 0.2518 0.65328 0.50507 0.0
O247 O 0.27122 0.64863 0.49713 0.0
O248 O 0.25004 0.67568 0.51067 0.0
C249 C 0.34139 0.64468 0.51153 0.0
O250 O 0.33429 0.64876 0.53292 0.0
C251 C 0.30776 0.71551 0.54227 0.0
Zn252 Zn 0.39475 0.52036 0.72316 0.0
Zn253 Zn 0.37145 0.55451 0.7295 0.0
O254 O 0.39183 0.55685 0.76337 0.0
O255 O 0.40711 0.52294 0.75792 0.0
O256 O 0.35281 0.5832 0.73208 0.0
O257 O 0.41662 0.53664 0.70121 0.0
O258 O 0.39237 0.56398 0.70077 0.0
C259 C 0.40428 0.54135 0.77166 0.0
C260 C 0.34547 0.49932 0.71541 0.0
O261 O 0.34452 0.52145 0.72399 0.0
O262 O 0.36563 0.49436 0.7105 0.0
C263 C 0.34402 0.59024 0.75098 0.0
O264 O 0.3462 0.57808 0.77026 0.0
C265 C 0.41032 0.55568 0.69306 0.0
Zn266 Zn 0.5775 0.02163 0.75676 0.0
Zn267 Zn 0.59945 0.98571 0.76003 0.0
O268 O 0.58182 0.98679 0.79236 0.0
O269 O 0.56637 0.02066 0.78918 0.0
O270 O 0.61639 0.95504 0.76102 0.0
O271 O 0.55452 0.00791 0.72766 0.0
O272 O 0.57786 0.97991 0.72531 0.0
C273 C 0.57023 0.00282 0.80122 0.0
C274 C 0.62811 0.03841 0.75592 0.0
O275 O 0.6286 0.01604 0.76082 0.0
O276 O 0.60793 0.04537 0.75206 0.0
C277 C 0.63644 0.95612 0.77448 0.0
O278 O 0.64571 0.97685 0.78842 0.0
C279 C 0.56066 0.98996 0.71583 0.0
Zn280 Zn 0.73087 0.68647 0.96993 0.0
Zn281 Zn 0.76188 0.65476 0.97443 0.0
O282 O 0.7756 0.67662 0.94821 0.0
O283 O 0.75075 0.70353 0.94632 0.0
O284 O 0.78523 0.63126 0.97982 0.0
O285 O 0.74004 0.69983 0.00456 0.0
O286 O 0.76584 0.67408 0.00788 0.0
C287 C 0.7693 0.69592 0.93998 0.0
C288 C 0.70665 0.63509 0.96092 0.0
O289 O 0.72822 0.63123 0.96604 0.0
O290 O 0.70304 0.65725 0.96034 0.0
C291 C 0.80706 0.64052 0.98883 0.0
O292 O 0.81376 0.66494 -0.0069 0.0
C293 C 0.7562 0.69134 0.01705 0.0
Zn294 Zn 0.92525 0.54768 0.74788 0.0
Zn295 Zn 0.89959 0.57915 0.7426 0.0
O296 O 0.92043 0.58632 0.77822 0.0
O297 O 0.94924 0.56437 0.77523 0.0
O298 O 0.87873 0.60754 0.74027 0.0
O299 O 0.93539 0.54603 0.71522 0.0
O300 O 0.91859 0.5788 0.71037 0.0
C301 C 0.93994 0.57969 0.78746 0.0
C302 C 0.8761 0.52555 0.74939 0.0
O303 O 0.87311 0.54634 0.74172 0.0
O304 O 0.89741 0.52194 0.75535 0.0
C305 C 0.85904 0.60612 0.75029 0.0
O306 O 0.85248 0.58677 0.76242 0.0
C307 C 0.93095 0.563 0.70227 0.0
Zn308 Zn 0.74186 0.35576 0.51698 0.0
Zn309 Zn 0.71268 0.38692 0.51479 0.0
O310 O 0.70837 0.36632 0.4798 0.0
O311 O 0.7314 0.33805 0.48418 0.0
O312 O 0.68456 0.40756 0.5136 0.0
O313 O 0.7319 0.33949 0.54574 0.0
O314 O 0.70961 0.36863 0.5476 0.0
C315 C 0.71689 0.34782 0.47091 0.0
C316 C 0.76708 0.40775 0.52081 0.0
O317 O 0.7456 0.41254 0.51775 0.0
O318 O 0.76994 0.38536 0.52166 0.0
C319 C 0.68733 0.4301 0.52308 0.0
O320 O 0.70896 0.44109 0.53391 0.0
C321 C 0.71779 0.35049 0.55675 0.0
Zn322 Zn 0.60511 0.52396 0.28036 0.0
Zn323 Zn 0.64183 0.4996 0.28231 0.0
O324 O 0.62477 0.49085 0.31338 0.0
O325 O 0.59247 0.50845 0.30877 0.0
O326 O 0.66792 0.47805 0.28081 0.0
O327 O 0.59077 0.5078 0.24762 0.0
O328 O 0.62115 0.48746 0.24905 0.0
C329 C 0.60485 0.4952 0.32043 0.0
C330 C 0.65245 0.55706 0.28513 0.0
O331 O 0.66041 0.5366 0.2841 0.0
O332 O 0.62972 0.55652 0.28445 0.0
C333 C 0.66289 0.45531 0.28543 0.0
O334 O 0.64162 0.44688 0.29273 0.0
C335 C 0.60172 0.49214 0.23796 0.0
Tb336 Tb 0.01799 0.05781 -5e-05 0.0
C337 C 0.02284 0.01295 0.96303 0.0
Tb338 Tb -0.00166 0.00328 0.01068 0.0
O339 O 0.05616 0.05314 0.00308 0.0
O340 O 0.03098 0.03026 0.02021 0.0
O341 O 0.01987 0.03649 0.96595 0.0
C342 C 0.99291 0.95876 0.02823 0.0
O343 O 0.01732 -0.00326 0.97916 0.0
C344 C 0.96393 0.02801 -0.00398 0.0
C345 C 0.99294 0.04821 0.04738 0.0
O346 O 0.98418 0.96264 0.00662 0.0
O347 O 0.00508 0.97968 0.03939 0.0
O348 O 0.96004 0.00774 0.00693 0.0
O349 O 0.9855 0.03078 0.99042 0.0
O350 O 0.99497 0.02439 0.04433 0.0
O351 O -0.00055 0.0646 0.03168 0.0
C352 C 0.02333 0.10244 0.98253 0.0
O353 O 0.0318 0.09855 0.00422 0.0
O354 O 0.01154 0.08145 0.9712 0.0
C355 C 0.05242 0.03299 0.01418 0.0
Tb356 Tb 0.2648 0.8086 0.25815 0.0
C357 C 0.30322 0.77433 0.25364 0.0
Tb358 Tb 0.24619 0.75223 0.2513 0.0
O359 O 0.28478 0.80562 0.29338 0.0
O360 O 0.25259 0.78019 0.28076 0.0
O361 O 0.29847 0.79684 0.25037 0.0
C362 C 0.23532 0.70298 0.25517 0.0
O363 O 0.28587 0.75493 0.25644 0.0
C364 C 0.23999 0.77563 0.21225 0.0
C365 C 0.20761 0.78615 0.25659 0.0
O366 O 0.24093 0.71327 0.23576 0.0
O367 O 0.23598 0.72044 0.2724 0.0
O368 O 0.22584 0.75517 0.21646 0.0
O369 O 0.25808 0.78066 0.22854 0.0
O370 O 0.21249 0.76356 0.25909 0.0
O371 O 0.22494 0.8059 0.25451 0.0
C372 C 0.27537 0.85737 0.25148 0.0
O373 O 0.27239 0.83888 0.23487 0.0
O374 O 0.27233 0.84844 0.27212 0.0
C375 C 0.27041 0.78513 0.2973 0.0
Tb376 Tb 0.53083 0.03044 0.49423 0.0
C377 C 0.51191 0.00913 0.54148 0.0
Tb378 Tb 0.47696 0.02738 0.50075 0.0
O379 O 0.54158 0.05962 0.52433 0.0
O380 O 0.50813 0.05609 0.50293 0.0
O381 O 0.5288 0.00993 0.52636 0.0
C382 C 0.43424 0.03596 0.51282 0.0
O383 O 0.49084 0.01643 0.53585 0.0
C384 C 0.48726 0.99064 0.47346 0.0
C385 C 0.49537 0.04902 0.4536 0.0
O386 O 0.43777 0.01504 0.50254 0.0
O387 O 0.4549 0.05168 0.51686 0.0
O388 O 0.46677 -0.0016 0.47033 0.0
O389 O 0.49975 0.00186 0.49244 0.0
O390 O 0.47846 0.0477 0.46868 0.0
O391 O 0.51679 0.04223 0.45924 0.0
C392 C 0.57329 0.02026 0.48259 0.0
O393 O 0.57061 0.04053 0.49481 0.0
O394 O 0.55193 0.00627 0.47616 0.0
C395 C 0.52099 0.06725 0.5218 0.0
Tb396 Tb 0.26343 0.28972 0.78251 0.0
C397 C 0.26433 0.33064 0.74555 0.0
Tb398 Tb 0.25368 0.27233 0.72992 0.0
O399 O 0.30271 0.30152 0.78046 0.0
O400 O 0.28234 0.27187 0.75732 0.0
O401 O 0.26125 0.32552 0.76804 0.0
C402 C 0.25991 0.26195 0.68412 0.0
O403 O 0.2635 0.31272 0.72795 0.0
C404 C 0.21418 0.27522 0.75073 0.0
C405 C 0.25166 0.23123 0.76614 0.0
O406 O 0.27528 0.27741 0.69964 0.0
O407 O 0.24088 0.25269 0.69421 0.0
O408 O 0.21453 0.26008 0.73179 0.0
O409 O 0.23463 0.28985 0.75513 0.0
O410 O 0.25616 0.23685 0.74415 0.0
O411 O 0.25218 0.24898 0.78396 0.0
C412 C 0.25792 0.30104 0.82854 0.0
O413 O 0.24236 0.28544 0.81331 0.0
O414 O 0.27684 0.30978 0.81806 0.0
C415 C 0.3029 0.28624 0.7616 0.0
Tb416 Tb 0.99217 0.01685 0.48675 0.0
C417 C 0.95859 -0.0007 0.52574 0.0
Tb418 Tb 0.0168 0.01033 0.53733 0.0
O419 O 0.97862 0.97645 0.47921 0.0
O420 O 0.01044 0.99051 0.50258 0.0
O421 O 0.9601 0.01094 0.50575 0.0
C422 C 0.03175 0.99457 0.57932 0.0
O423 O 0.97808 0.99452 0.53888 0.0
C424 C 0.01378 0.05617 0.52895 0.0
C425 C 0.0502 0.03017 0.49912 0.0
O426 O 0.01944 0.01224 0.57666 0.0
O427 O 0.03581 0.98567 0.55823 0.0
O428 O 0.0309 0.05082 0.54394 0.0
O429 O -0.00142 0.03653 0.52143 0.0
O430 O 0.04914 0.01777 0.51869 0.0
O431 O 0.03041 0.03461 0.48631 0.0
C432 C 0.9785 0.03443 0.44529 0.0
O433 O 0.99534 0.0213 0.44861 0.0
O434 O 0.96894 0.03738 0.46523 0.0
C435 C 0.99531 0.97093 0.49462 0.0
Tb436 Tb 0.29687 0.7879 0.76788 0.0
C437 C 0.25733 0.79413 0.80269 0.0
Tb438 Tb 0.24396 0.78086 0.74556 0.0
O439 O 0.29806 0.82716 0.77939 0.0
O440 O 0.27518 0.80963 0.74867 0.0
O441 O 0.27921 0.78839 0.80113 0.0
C442 C 0.19878 0.78578 0.73065 0.0
O443 O 0.24172 0.79443 0.78317 0.0
C444 C 0.2601 0.73943 0.75146 0.0
C445 C 0.28335 0.77531 0.71036 0.0
O446 O 0.20456 0.76809 0.74297 0.0
O447 O 0.21847 0.80073 0.72659 0.0
O448 O 0.24317 0.7415 0.73451 0.0
O449 O 0.26541 0.75942 0.76543 0.0
O450 O 0.26059 0.77832 0.71204 0.0
O451 O 0.30004 0.77773 0.72957 0.0
C452 C 0.34052 0.77854 0.78327 0.0
O453 O 0.33632 0.80036 0.77849 0.0
O454 O 0.32023 0.76236 0.77959 0.0
C455 C 0.28063 0.82944 0.76297 0.0
Tb456 Tb 0.48144 0.01978 0.0013 0.0
C457 C 0.52151 0.98881 0.01265 0.0
Tb458 Tb 0.5348 0.04675 0.00602 0.0
O459 O 0.48585 0.99656 0.96879 0.0
O460 O 0.507 0.03229 0.97715 0.0
O461 O 0.49882 0.99084 0.01556 0.0
C462 C 0.58202 0.06212 0.00081 0.0
O463 O 0.53768 0.00736 0.0062 0.0
C464 C 0.51171 0.05495 0.04389 0.0
C465 C 0.49484 0.07762 -0.00628 0.0
O466 O 0.57363 0.05561 0.02071 0.0
O467 O 0.56382 0.06016 0.98403 0.0
O468 O 0.53005 0.07059 0.0379 0.0
O469 O 0.50892 0.03479 0.03033 0.0
O470 O 0.51769 0.07574 0.99127 0.0
O471 O 0.47886 0.05911 0.00058 0.0
C472 C 0.43422 0.00479 0.0066 0.0
O473 O 0.44243 0.01508 0.9881 0.0
O474 O 0.45257 0.00271 0.02188 0.0
C475 C 0.50415 0.01251 0.96314 0.0
Tb476 Tb 0.22016 0.26596 0.2666 0.0
C477 C 0.26978 0.27461 0.29903 0.0
Tb478 Tb 0.26631 0.28652 0.24515 0.0
O479 O 0.22977 0.22908 0.26938 0.0
O480 O 0.24308 0.25098 0.24311 0.0
O481 O 0.24666 0.27696 0.29867 0.0
C482 C 0.30902 0.2945 0.22723 0.0
O483 O 0.28094 0.27543 0.27932 0.0
C484 C 0.24186 0.32075 0.25929 0.0
C485 C 0.21735 0.27335 0.21122 0.0
O486 O 0.30514 0.28494 0.24734 0.0
O487 O 0.28892 0.29961 0.21727 0.0
O488 O 0.25726 0.32386 0.24358 0.0
O489 O 0.24401 0.30115 0.26917 0.0
O490 O 0.24091 0.2725 0.2129 0.0
O491 O 0.20526 0.27258 0.23041 0.0
C492 C 0.17872 0.26166 0.28725 0.0
O493 O 0.19382 0.24641 0.2886 0.0
O494 O 0.18663 0.27892 0.27373 0.0
C495 C 0.24521 0.23158 0.25355 0.0
Tb496 Tb 0.49518 0.51579 0.98089 0.0
C497 C 0.46422 0.50167 0.0233 0.0
Tb498 Tb 0.52276 0.50795 0.02938 0.0
O499 O 0.4796 0.47579 0.97464 0.0
O500 O 0.51363 0.48838 -0.00529 0.0
O501 O 0.46459 0.51108 0.00203 0.0
C502 C 0.54218 0.48937 0.06802 0.0
O503 O 0.48432 0.49793 0.03634 0.0
C504 C 0.51964 0.55434 0.02339 0.0
C505 C 0.55257 0.52469 0.98778 0.0
O506 O 0.52172 0.47923 0.05505 0.0
O507 O 0.55137 0.50993 0.05941 0.0
O508 O 0.53659 0.54835 0.03804 0.0
O509 O 0.50418 0.53501 0.01575 0.0
O510 O 0.55138 0.5099 0.00561 0.0
O511 O 0.5331 0.53254 0.97813 0.0
C512 C 0.4795 0.53253 0.93969 0.0
O513 O 0.49425 0.51697 0.9419 0.0
O514 O 0.47319 0.53855 0.96073 0.0
C515 C 0.49721 0.46938 0.98815 0.0
Tb516 Tb 0.78929 0.29037 0.26738 0.0
C517 C 0.74816 0.28966 0.30391 0.0
Tb518 Tb 0.73344 0.26914 0.24778 0.0
O519 O 0.7877 0.32771 0.25517 0.0
O520 O 0.75668 0.30341 0.26121 0.0
O521 O 0.77185 0.29447 0.30078 0.0
C522 C 0.68896 0.26966 0.22727 0.0
O523 O 0.7304 0.28046 0.28592 0.0
C524 C 0.75826 0.23321 0.2559 0.0
C525 C 0.77452 0.26962 0.21206 0.0
O526 O 0.69396 0.25677 0.24518 0.0
O527 O 0.70901 0.28208 0.22086 0.0
O528 O 0.73491 0.22878 0.24863 0.0
O529 O 0.76491 0.25653 0.25844 0.0
O530 O 0.7511 0.26963 0.21436 0.0
O531 O 0.79208 0.27488 0.23067 0.0
C532 C 0.83145 0.28799 0.29241 0.0
O533 O 0.82926 0.30157 0.2744 0.0
O534 O 0.81008 0.27645 0.29635 0.0
C535 C 0.76383 0.32386 0.25286 0.0
Tb536 Tb 0.98036 0.51963 0.50225 0.0
C537 C 0.01822 0.48595 0.51357 0.0
Tb538 Tb 0.03443 0.54406 0.5095 0.0
O539 O 0.98465 0.49629 0.47023 0.0
O540 O 0.00757 0.53134 0.47917 0.0
O541 O 0.99564 0.48897 0.51591 0.0
C542 C 0.08271 0.55782 0.50818 0.0
O543 O 0.03547 0.50421 0.50835 0.0
C544 C 0.00974 0.55115 0.54654 0.0
C545 C -0.00275 0.57754 0.49522 0.0
O546 O 0.07229 0.55101 0.52698 0.0
O547 O 0.06593 0.55699 0.49019 0.0
O548 O 0.02842 0.56707 0.54166 0.0
O549 O 0.00727 0.53165 0.53221 0.0
O550 O 0.02018 0.57476 0.49501 0.0
O551 O 0.97953 0.55926 0.49971 0.0
C552 C 0.93285 0.5062 0.50752 0.0
O553 O 0.94167 0.50898 0.48707 0.0
O554 O 0.95077 0.51093 0.52481 0.0
C555 C 0.00386 0.51135 0.4651 0.0
Tb556 Tb 0.7631 0.78856 0.28731 0.0
C557 C 0.76856 0.82802 0.24869 0.0
Tb558 Tb 0.75346 0.76972 0.23192 0.0
O559 O 0.80228 0.80017 0.28491 0.0
O560 O 0.78125 0.77118 0.26111 0.0
O561 O 0.76449 0.82391 0.27124 0.0
C562 C 0.76189 0.75325 0.18845 0.0
O563 O 0.76758 0.8097 0.23132 0.0
C564 C 0.71368 0.78041 0.24902 0.0
C565 C 0.74517 0.73047 0.27046 0.0
O566 O 0.77376 0.77378 0.2007 0.0
O567 O 0.74497 0.7423 0.20043 0.0
O568 O 0.7143 0.7732 0.22637 0.0
O569 O 0.73482 0.78155 0.25922 0.0
O570 O 0.75061 0.73444 0.24828 0.0
O571 O 0.74663 0.74896 0.28782 0.0
C572 C 0.75663 0.80131 0.33251 0.0
O573 O 0.77162 0.78714 0.32621 0.0
O574 O 0.74571 0.80851 0.31346 0.0
C575 C 0.80207 0.78521 0.2656 0.0
Tb576 Tb 0.76656 0.30721 0.75864 0.0
C577 C 0.80522 0.27303 0.75501 0.0
Tb578 Tb 0.74835 0.25051 0.7525 0.0
O579 O 0.78705 0.3056 0.79369 0.0
O580 O 0.75566 0.27881 0.78195 0.0
O581 O 0.80025 0.29531 0.75102 0.0
C582 C 0.73776 0.20134 0.75694 0.0
O583 O 0.78802 0.25369 0.75828 0.0
C584 C 0.74141 0.27312 0.71298 0.0
C585 C 0.70955 0.28441 0.75583 0.0
O586 O 0.7465 0.2115 0.73859 0.0
O587 O 0.73511 0.2189 0.77281 0.0
O588 O 0.72858 0.25175 0.71675 0.0
O589 O 0.75923 0.27898 0.72946 0.0
O590 O 0.71455 0.26215 0.75983 0.0
O591 O 0.72677 0.30383 0.75271 0.0
C592 C 0.77743 0.35633 0.75398 0.0
O593 O 0.76758 0.3463 0.77188 0.0
O594 O 0.78116 0.3387 0.73878 0.0
C595 C 0.77384 0.28468 0.79811 0.0
Tb596 Tb 0.72127 0.76573 0.77033 0.0
C597 C 0.77146 0.78548 0.80314 0.0
Tb598 Tb 0.76763 0.79022 0.74763 0.0
O599 O 0.724 0.72819 0.75397 0.0
O600 O 0.75453 0.75587 0.76172 0.0
O601 O 0.7473 0.78314 0.80152 0.0
C602 C 0.80426 0.79277 0.72113 0.0
O603 O 0.78346 0.78574 0.78383 0.0
C604 C 0.74129 0.82415 0.75935 0.0
C605 C 0.71626 0.77763 0.71654 0.0
O606 O 0.80458 0.80707 0.74093 0.0
O607 O 0.78367 0.77692 0.71673 0.0
O608 O 0.7618 0.82934 0.75013 0.0
O609 O 0.73778 0.80113 0.76183 0.0
O610 O 0.73989 0.77772 0.71667 0.0
O611 O 0.70533 0.77634 0.73643 0.0
C612 C 0.68378 0.75808 0.79664 0.0
O613 O 0.6824 0.76271 0.77416 0.0
O614 O 0.7062 0.75714 0.80414 0.0
C615 C 0.74716 0.7341 0.75161 0.0
Tb616 Tb 0.5185 0.5586 0.50114 0.0
C617 C 0.52295 0.51271 0.4657 0.0
Tb618 Tb 0.50083 0.50527 0.51509 0.0
O619 O 0.55671 0.55442 0.50211 0.0
O620 O 0.53351 0.53259 0.52204 0.0
O621 O 0.51994 0.53625 0.46769 0.0
C622 C 0.49555 0.46046 0.53233 0.0
O623 O 0.51802 0.49731 0.48264 0.0
C624 C 0.46528 0.52949 0.50241 0.0
C625 C 0.4994 0.55139 0.55162 0.0
O626 O 0.48663 0.4646 0.51089 0.0
O627 O 0.5077 0.48134 0.54357 0.0
O628 O 0.46312 0.5107 0.51542 0.0
O629 O 0.48576 0.53134 0.4943 0.0
O630 O 0.50261 0.5279 0.54926 0.0
O631 O 0.50226 0.56641 0.53408 0.0
C632 C 0.52156 0.60267 0.48286 0.0
O633 O 0.53178 0.59938 0.50407 0.0
O634 O 0.5094 0.5814 0.47248 0.0
C635 C 0.55431 0.53515 0.51454 0.0
Tb636 Tb 0.03345 0.53288 -0.00177 0.0
C637 C 0.01419 0.51157 0.04558 0.0
Tb638 Tb 0.97926 0.52972 0.00455 0.0
O639 O 0.04355 0.56383 0.02713 0.0
O640 O 0.0102 0.55821 0.00549 0.0
O641 O 0.03144 0.51309 0.03081 0.0
C642 C 0.93675 0.53942 0.0163 0.0
O643 O 0.9927 0.51793 0.03952 0.0
C644 C 0.98964 0.49217 0.97856 0.0
C645 C -0.00163 0.55159 0.95767 0.0
O646 O 0.95817 0.55 0.02704 0.0
O647 O 0.93931 0.52264 -0.00042 0.0
O648 O 0.96873 0.49911 0.97575 0.0
O649 O 0.00236 0.50425 -0.00296 0.0
O650 O 0.9823 0.55183 0.97357 0.0
O651 O 0.01911 0.54329 0.96268 0.0
C652 C 0.07624 0.52277 0.98744 0.0
O653 O 0.07336 0.54272 5e-05 0.0
O654 O 0.0549 0.5091 0.98007 0.0
C655 C 0.02262 0.5707 0.02386 0.0
H656 H 0.04251 0.21971 0.88424 0.0
H657 H 0.01079 0.24829 0.94507 0.0
H658 H 0.04932 0.18372 0.90595 0.0
H659 H 0.01758 0.21264 0.96663 0.0
H660 H 0.01293 0.109 0.9354 0.0
H661 H 0.01799 0.148 0.91638 0.0
H662 H 0.04789 0.18895 0.98534 0.0
H663 H 0.04288 0.14953 0.00448 0.0
C664 C 0.0376 0.21864 0.90244 0.0
C665 C 0.02587 0.2366 0.91286 0.0
C666 C 0.04134 0.198 0.9148 0.0
C667 C 0.03377 0.19527 0.93791 0.0
C668 C 0.02374 0.21426 0.94895 0.0
C669 C 0.0197 0.2346 0.93651 0.0
C670 C 0.02076 0.1263 0.9465 0.0
C671 C 0.02732 0.12632 0.97145 0.0
C672 C 0.02392 0.14861 0.93553 0.0
C673 C 0.03349 0.17153 0.94932 0.0
C674 C 0.04046 0.17154 0.97428 0.0
C675 C 0.03756 0.14906 0.98523 0.0
H676 H 0.08553 0.81747 0.17459 0.0
H677 H 0.04887 0.76171 0.21616 0.0
H678 H 0.12313 0.82079 0.20109 0.0
H679 H 0.08688 0.76529 0.24342 0.0
H680 H 0.16681 0.74897 0.25254 0.0
H681 H 0.12503 0.7519 0.23882 0.0
H682 H 0.14712 0.83201 0.23918 0.0
H683 H 0.18918 0.82898 0.25218 0.0
C684 C 0.08537 0.80643 0.18993 0.0
C685 C 0.06428 0.78922 0.19319 0.0
C686 C 0.10699 0.80843 0.2053 0.0
C687 C 0.10826 0.79318 0.2244 0.0
C688 C 0.08666 0.77712 0.22871 0.0
C689 C 0.0648 0.77525 0.2133 0.0
C690 C 0.16275 0.76732 0.25019 0.0
C691 C 0.18155 0.7887 0.25311 0.0
C692 C 0.13863 0.76901 0.24244 0.0
C693 C 0.13262 0.79215 0.23751 0.0
C694 C 0.15112 0.81378 0.24228 0.0
C695 C 0.17528 0.81207 0.24987 0.0
H696 H 0.54512 0.86862 0.40131 0.0
H697 H 0.46729 0.85775 0.38113 0.0
H698 H 0.54473 0.9102 0.42145 0.0
H699 H 0.46674 0.89825 0.40123 0.0
H700 H 0.46955 0.97638 0.42663 0.0
H701 H 0.47824 0.9422 0.40052 0.0
H702 H 0.52918 0.92648 0.45807 0.0
H703 H 0.52094 0.96143 0.48394 0.0
C704 C 0.52809 0.87529 0.40077 0.0
C705 C 0.50623 0.85991 0.38978 0.0
C706 C 0.52779 0.89893 0.41246 0.0
C707 C 0.50568 0.90761 0.41298 0.0
C708 C 0.48417 0.89251 0.40094 0.0
C709 C 0.48445 0.86909 0.38954 0.0
C710 C 0.48279 0.96577 0.43358 0.0
C711 C 0.49434 0.97128 0.45734 0.0
C712 C 0.48779 0.94618 0.41865 0.0
C713 C 0.50414 0.93129 0.42729 0.0
C714 C 0.51663 0.93764 0.45075 0.0
C715 C 0.5118 0.95752 0.46564 0.0
H716 H 0.45314 0.28885 0.73426 0.0
H717 H 0.41215 0.25667 0.66599 0.0
H718 H 0.4154 0.29073 0.75133 0.0
H719 H 0.37407 0.25942 0.68284 0.0
H720 H 0.30856 0.24921 0.72768 0.0
H721 H 0.34574 0.24453 0.70983 0.0
H722 H 0.38407 0.31338 0.75063 0.0
H723 H 0.3473 0.31737 0.76891 0.0
C724 C 0.43603 0.28222 0.72281 0.0
C725 C 0.43581 0.2727 0.69867 0.0
C726 C 0.41424 0.2835 0.73258 0.0
C727 C 0.39141 0.27561 0.71848 0.0
C728 C 0.39115 0.26554 0.69442 0.0
C729 C 0.41305 0.26403 0.68468 0.0
C730 C 0.325 0.26328 0.7328 0.0
C731 C 0.32504 0.28355 0.74988 0.0
C732 C 0.34633 0.2607 0.72246 0.0
C733 C 0.36824 0.27841 0.72886 0.0
C734 C 0.36792 0.29894 0.74561 0.0
C735 C 0.34671 0.30139 0.75601 0.0
H736 H 0.96376 0.81522 0.52628 0.0
H737 H 0.01056 0.85535 0.58863 0.0
H738 H 0.96783 0.85352 0.50604 0.0
H739 H 0.01401 0.89377 0.56872 0.0
H740 H 0.03276 0.95419 0.51864 0.0
H741 H 0.03111 0.91433 0.53613 0.0
H742 H 0.95451 0.89277 0.50887 0.0
H743 H 0.95645 0.93245 0.4911 0.0
C744 C 0.97488 0.83222 0.53568 0.0
C745 C 0.98679 0.83226 0.55908 0.0
C746 C 0.97711 0.85421 0.52413 0.0
C747 C 0.99118 0.87674 0.53578 0.0
C748 C 0.00333 0.87668 0.55907 0.0
C749 C 0.00122 0.85467 0.57056 0.0
C750 C 0.01562 0.94087 0.51648 0.0
C751 C 0.99468 0.94636 0.50382 0.0
C752 C 0.01464 0.91808 0.52649 0.0
C753 C 0.99264 0.9004 0.52403 0.0
C754 C 0.97182 0.9058 0.51084 0.0
C755 C 0.97288 0.92854 0.50074 0.0
H756 H 0.42161 0.73261 0.89654 0.0
H757 H 0.48107 0.77854 0.86753 0.0
H758 H 0.39438 0.7353 0.86058 0.0
H759 H 0.45352 0.78133 0.83118 0.0
H760 H 0.3824 0.81192 0.80047 0.0
H761 H 0.41741 0.80321 0.82594 0.0
H762 H 0.38555 0.72431 0.81627 0.0
H763 H 0.3505 0.73307 0.79121 0.0
C764 C 0.42895 0.74293 0.88223 0.0
C765 C 0.45336 0.75557 0.8849 0.0
C766 C 0.4134 0.74431 0.86152 0.0
C767 C 0.42184 0.75855 0.84308 0.0
C768 C 0.44656 0.7703 0.8452 0.0
C769 C 0.4623 0.76861 0.86589 0.0
C770 C 0.38324 0.79269 0.80334 0.0
C771 C 0.36366 0.77321 0.79435 0.0
C772 C 0.40332 0.78768 0.81776 0.0
C773 C 0.404 0.76311 0.82331 0.0
C774 C 0.3853 0.74345 0.81256 0.0
C775 C 0.36527 0.74847 0.79824 0.0
H776 H 0.5126 0.22331 0.04587 0.0
H777 H 0.43411 0.20285 0.03505 0.0
H778 H 0.51536 0.18952 0.01631 0.0
H779 H 0.43643 0.17022 0.00359 0.0
H780 H 0.45284 0.0907 0.00551 0.0
H781 H 0.44485 0.1322 0.0116 0.0
H782 H 0.51155 0.16198 0.98222 0.0
H783 H 0.52025 0.11991 0.97743 0.0
C784 C 0.4959 0.21243 0.03598 0.0
C785 C 0.47319 0.21519 0.04283 0.0
C786 C 0.49739 0.19299 0.01888 0.0
C787 C 0.47608 0.17632 0.00813 0.0
C788 C 0.45325 0.18194 0.01227 0.0
C789 C 0.45183 0.20082 0.03002 0.0
C790 C 0.46563 0.10596 -0.00014 0.0
C791 C 0.48757 0.10208 0.99172 0.0
C792 C 0.46087 0.13 0.00306 0.0
C793 C 0.47778 0.15082 -0.00213 0.0
C794 C 0.49844 0.14654 0.98711 0.0
C795 C 0.50342 0.1224 0.98428 0.0
H796 H 0.07008 0.23809 0.38899 0.0
H797 H 0.08198 0.31697 0.37951 0.0
H798 H 0.09801 0.23199 0.35958 0.0
H799 H 0.11094 0.31121 0.35096 0.0
H800 H 0.14457 0.29108 0.28416 0.0
H801 H 0.11412 0.29502 0.31165 0.0
H802 H 0.1389 0.23869 0.35296 0.0
H803 H 0.16832 0.23397 0.32467 0.0
C804 C 0.07899 0.25423 0.3809 0.0
C805 C 0.07383 0.27803 0.3866 0.0
C806 C 0.09511 0.25075 0.36404 0.0
C807 C 0.1068 0.27107 0.35271 0.0
C808 C 0.10193 0.29498 0.35883 0.0
C809 C 0.08551 0.29838 0.37543 0.0
C810 C 0.14314 0.27928 0.29891 0.0
C811 C 0.15868 0.26216 0.30228 0.0
C812 C 0.12591 0.28174 0.31488 0.0
C813 C 0.12412 0.26739 0.3348 0.0
C814 C 0.13941 0.24984 0.33772 0.0
C815 C 0.15637 0.24715 0.32153 0.0
H816 H 0.95899 0.08252 0.18921 0.0
H817 H 0.88766 0.05716 0.14925 0.0
H818 H 0.97709 0.08641 0.15133 0.0
H819 H 0.90585 0.06039 0.1112 0.0
H820 H 0.95794 0.01859 0.06757 0.0
H821 H 0.93614 0.02955 0.10095 0.0
H822 H 0.97687 0.10538 0.10723 0.0
H823 H -0.00149 0.09452 0.07289 0.0
C824 C 0.94708 0.07891 0.17227 0.0
C825 C 0.92195 0.06974 0.17204 0.0
C826 C 0.95744 0.08109 0.15062 0.0
C827 C 0.94288 0.07351 0.1284 0.0
C828 C 0.91743 0.06637 0.12815 0.0
C829 C 0.907 0.06472 0.14985 0.0
C830 C 0.96229 0.03765 0.07597 0.0
C831 C 0.98022 0.05562 0.06786 0.0
C832 C 0.94952 0.04399 0.09486 0.0
C833 C 0.95462 0.06836 0.10646 0.0
C834 C 0.97248 0.0865 0.0984 0.0
C835 C 0.98491 0.08028 0.07892 0.0
H836 H 0.24952 0.72352 0.43217 0.0
H837 H 0.32223 0.7115 0.42388 0.0
H838 H 0.24652 0.73941 0.39298 0.0
H839 H 0.31908 0.72762 0.38378 0.0
H840 H 0.31155 0.78947 0.32926 0.0
H841 H 0.3169 0.76809 0.36591 0.0
H842 H 0.24273 0.72691 0.35012 0.0
H843 H 0.23731 0.74874 0.3139 0.0
C844 C 0.26495 0.72412 0.42191 0.0
C845 C 0.28623 0.71628 0.43144 0.0
C846 C 0.26308 0.73309 0.39916 0.0
C847 C 0.28246 0.73475 0.38497 0.0
C848 C 0.3038 0.72671 0.39425 0.0
C849 C 0.30558 0.71734 0.41716 0.0
C850 C 0.29643 0.77573 0.33359 0.0
C851 C 0.27395 0.77087 0.31869 0.0
C852 C 0.29959 0.76329 0.35449 0.0
C853 C 0.28025 0.74579 0.36117 0.0
C854 C 0.25799 0.74045 0.34579 0.0
C855 C 0.25489 0.75282 0.32487 0.0
H856 H 0.51881 0.00138 0.69487 0.0
H857 H 0.5786 0.96618 0.67807 0.0
H858 H 0.50599 0.00171 0.65233 0.0
H859 H 0.56499 0.96538 0.63484 0.0
H860 H 0.4798 0.9942 0.57397 0.0
H861 H 0.48908 0.98254 0.61466 0.0
H862 H 0.56568 0.99375 0.60513 0.0
H863 H 0.55615 0.00415 0.56413 0.0
C864 C 0.52888 0.993 0.68203 0.0
C865 C 0.54993 0.98397 0.69002 0.0
C866 C 0.52136 0.99305 0.6574 0.0
C867 C 0.5345 0.98384 0.63978 0.0
C868 C 0.55464 0.97316 0.64776 0.0
C869 C 0.56228 0.97324 0.67259 0.0
C870 C 0.49858 0.9939 0.58047 0.0
C871 C 0.5172 0.0003 0.56574 0.0
C872 C 0.50399 0.98733 0.60395 0.0
C873 C 0.52826 0.9874 0.61359 0.0
C874 C 0.54674 0.99305 0.59848 0.0
C875 C 0.54128 -0.00074 0.57488 0.0
H876 H 0.24479 0.31519 0.97976 0.0
H877 H 0.24081 0.38913 0.95918 0.0
H878 H 0.24316 0.29993 0.9373 0.0
H879 H 0.23967 0.37385 0.91659 0.0
H880 H 0.28357 0.34161 0.85698 0.0
H881 H 0.27585 0.35696 0.89712 0.0
H882 H 0.21487 0.29537 0.89509 0.0
H883 H 0.22226 0.28023 0.85455 0.0
C884 C 0.24315 0.32805 0.96609 0.0
C885 C 0.24313 0.35336 0.97265 0.0
C886 C 0.24209 0.31929 0.94186 0.0
C887 C 0.24145 0.3358 0.92387 0.0
C888 C 0.24025 0.36085 0.93028 0.0
C889 C 0.2408 0.36953 0.95454 0.0
C890 C 0.2685 0.3314 0.86511 0.0
C891 C 0.25361 0.30967 0.85291 0.0
C892 C 0.26394 0.34031 0.88788 0.0
C893 C 0.24466 0.32741 0.89894 0.0
C894 C 0.22978 0.30562 0.88678 0.0
C895 C 0.23406 0.29695 0.86376 0.0
H896 H 0.95497 0.02991 0.29436 0.0
H897 H 0.9042 0.07683 0.31273 0.0
H898 H 0.97088 0.03204 0.33623 0.0
H899 H 0.92115 0.07994 0.35538 0.0
H900 H 0.93418 0.04472 0.42911 0.0
H901 H 0.92083 0.05393 0.38821 0.0
H902 H 0.99403 0.05613 0.36947 0.0
H903 H 0.00663 0.04524 0.40964 0.0
C904 C 0.94747 0.04115 0.30734 0.0
C905 C 0.9281 0.053 0.30014 0.0
C906 C 0.95686 0.04262 0.33151 0.0
C907 C 0.94744 0.05627 0.34936 0.0
C908 C 0.92868 0.06904 0.34214 0.0
C909 C 0.91909 0.06744 0.31771 0.0
C910 C 0.94735 0.04745 0.4162 0.0
C911 C 0.97122 0.04373 0.42217 0.0
C912 C 0.93981 0.05293 0.39284 0.0
C913 C 0.95621 0.05526 0.3753 0.0
C914 C 0.98066 0.05363 0.38219 0.0
C915 C 0.98796 0.04751 0.40523 0.0
H916 H 0.3009 0.68614 0.57935 0.0
H917 H 0.3243 0.76263 0.56447 0.0
H918 H 0.29706 0.70052 0.62124 0.0
H919 H 0.32141 0.77691 0.60657 0.0
H920 H 0.32827 0.78453 0.6936 0.0
H921 H 0.33902 0.76943 0.65428 0.0
H922 H 0.26451 0.73114 0.63404 0.0
H923 H 0.25353 0.74687 0.67278 0.0
C924 C 0.30634 0.7059 0.58531 0.0
C925 C 0.31325 0.72322 0.56866 0.0
C926 C 0.30382 0.71416 0.6092 0.0
C927 C 0.3088 0.73986 0.61713 0.0
C928 C 0.31755 0.75701 0.60102 0.0
C929 C 0.31938 0.74882 0.57697 0.0
C930 C 0.31416 0.77304 0.68067 0.0
C931 C 0.28997 0.76716 0.68625 0.0
C932 C 0.32035 0.76436 0.65823 0.0
C933 C 0.30266 0.74891 0.6412 0.0
C934 C 0.27857 0.74281 0.64689 0.0
C935 C 0.27225 0.75206 0.66899 0.0
H936 H 0.54839 0.03686 0.82373 0.0
H937 H 0.57237 0.96733 0.83446 0.0
H938 H 0.5347 0.03771 0.86324 0.0
H939 H 0.55843 0.96836 0.87492 0.0
H940 H 0.50184 0.96988 0.93326 0.0
H941 H 0.51959 0.9658 0.89514 0.0
H942 H 0.55224 0.04444 0.90542 0.0
H943 H 0.53404 0.04854 0.94296 0.0
C944 C 0.55084 0.02165 0.83451 0.0
C945 C 0.56164 0.00201 0.82569 0.0
C946 C 0.54309 0.0223 0.85744 0.0
C947 C 0.54573 0.00333 0.87252 0.0
C948 C 0.55613 0.98332 0.86375 0.0
C949 C 0.56416 0.98274 0.8406 0.0
C950 C 0.51296 0.98623 0.92739 0.0
C951 C 0.51646 0.00957 0.94107 0.0
C952 C 0.5233 0.98384 0.90566 0.0
C953 C 0.53721 0.00481 0.89704 0.0
C954 C 0.54136 0.02794 0.91128 0.0
C955 C 0.5311 0.03029 0.93296 0.0
H956 H 0.2219 0.38142 0.11956 0.0
H957 H 0.20407 0.31692 0.06702 0.0
H958 H 0.20714 0.35521 0.15079 0.0
H959 H 0.18894 0.2908 0.09792 0.0
H960 H 0.22733 0.25989 0.16616 0.0
H961 H 0.21902 0.28075 0.13017 0.0
H962 H 0.175 0.32371 0.16832 0.0
H963 H 0.18295 0.30225 0.20439 0.0
C964 C 0.21362 0.36194 0.11448 0.0
C965 C 0.21416 0.35105 0.09108 0.0
C966 C 0.20517 0.34689 0.13231 0.0
C967 C 0.19727 0.32086 0.12682 0.0
C968 C 0.1952 0.31072 0.1027 0.0
C969 C 0.20373 0.32566 0.08502 0.0
C970 C 0.21505 0.27301 0.16657 0.0
C971 C 0.20597 0.2796 0.18809 0.0
C972 C 0.21023 0.28498 0.14593 0.0
C973 C 0.19653 0.30407 0.14652 0.0
C974 C 0.18571 0.30917 0.16744 0.0
C975 C 0.19014 0.29675 0.18801 0.0
H976 H 0.13736 0.91246 -0.0005 0.0
H977 H 0.18471 0.97335 0.04484 0.0
H978 H 0.10449 0.93672 -0.00199 0.0
H979 H 0.15228 -0.00276 0.04335 0.0
H980 H 0.10088 0.04516 0.01142 0.0
H981 H 0.13129 0.01872 0.01329 0.0
H982 H 0.0759 0.95554 0.02381 0.0
H983 H 0.0452 0.98236 0.02176 0.0
C984 C 0.14082 0.93094 0.00914 0.0
C985 C 0.16389 0.94087 0.02219 0.0
C986 C 0.12189 0.94481 0.00843 0.0
C987 C 0.12564 0.96911 0.02046 0.0
C988 C 0.14866 0.97881 0.03358 0.0
C989 C 0.16735 0.96495 0.0345 0.0
C990 C 0.09511 0.02568 0.01437 0.0
C991 C 0.07054 0.0161 0.01694 0.0
C992 C 0.11265 0.01046 0.01548 0.0
C993 C 0.10627 0.9849 0.0189 0.0
C994 C 0.08158 0.9751 0.02115 0.0
C995 C 0.06397 0.99056 0.02033 0.0
H996 H 0.65948 0.63658 0.94525 0.0
H997 H 0.70527 0.58659 0.97163 0.0
H998 H 0.62343 0.60536 0.94819 0.0
H999 H 0.66885 0.55478 0.97402 0.0
H1000 H 0.59834 0.52754 0.01148 0.0
H1001 H 0.63675 0.55014 0.00037 0.0
H1002 H 0.59884 0.5657 0.93359 0.0
H1003 H 0.56045 0.5439 0.94508 0.0
C1004 C 0.66188 0.61866 0.95117 0.0
C1005 C 0.68528 0.6142 0.95843 0.0
C1006 C 0.64114 0.60061 0.9527 0.0
C1007 C 0.64319 0.57754 0.96147 0.0
C1008 C 0.66664 0.57249 0.96749 0.0
C1009 C 0.6875 0.59063 0.96591 0.0
C1010 C 0.59832 0.53538 -0.00577 0.0
C1011 C 0.57634 0.53431 0.97935 0.0
C1012 C 0.62037 0.54825 0.98778 0.0
C1013 C 0.62084 0.56008 0.96623 0.0
C1014 C 0.59905 0.55733 0.95058 0.0
C1015 C 0.57705 0.54475 0.95713 0.0
H1016 H 0.70135 0.46099 0.25809 0.0
H1017 H 0.66215 0.40978 0.30233 0.0
H1018 H 0.72591 0.42998 0.24772 0.0
H1019 H 0.6871 0.37938 0.29291 0.0
H1020 H 0.7151 0.31871 0.25476 0.0
H1021 H 0.6917 0.35117 0.26106 0.0
H1022 H 0.75684 0.4076 0.26108 0.0
H1023 H 0.78004 0.37465 0.25325 0.0
C1024 C 0.69822 0.44327 0.26589 0.0
C1025 C 0.67963 0.43779 0.28089 0.0
C1026 C 0.71234 0.42547 0.25998 0.0
C1027 C 0.70831 0.40187 0.26909 0.0
C1028 C 0.69032 0.39694 0.28486 0.0
C1029 C 0.6761 0.41453 0.2905 0.0
C1030 C 0.72432 0.33801 0.25536 0.0
C1031 C 0.7494 0.34403 0.25324 0.0
C1032 C 0.71097 0.35675 0.25949 0.0
C1033 C 0.72238 0.38218 0.26217 0.0
C1034 C 0.74733 0.38829 0.25906 0.0
C1035 C 0.76068 0.3694 0.25457 0.0
H1036 H 0.81071 0.4084 0.54646 0.0
H1037 H 0.77378 0.45125 0.49825 0.0
H1038 H 0.84931 0.43649 0.54453 0.0
H1039 H 0.81289 0.47968 0.49617 0.0
H1040 H 0.89356 0.49335 0.47262 0.0
H1041 H 0.8516 0.47424 0.47806 0.0
H1042 H 0.87201 0.47982 0.55524 0.0
H1043 H 0.91383 0.49868 0.54977 0.0
C1044 C 0.81081 0.42417 0.53577 0.0
C1045 C 0.78924 0.4276 0.52247 0.0
C1046 C 0.83294 0.44036 0.53475 0.0
C1047 C 0.83422 0.4603 0.52014 0.0
C1048 C 0.81249 0.46438 0.50747 0.0
C1049 C 0.79011 0.44828 0.50883 0.0
C1050 C 0.88893 0.49079 0.49074 0.0
C1051 C 0.90697 0.49719 0.51074 0.0
C1052 C 0.86489 0.48002 0.49388 0.0
C1053 C 0.85852 0.47536 0.51707 0.0
C1054 C 0.8764 0.48289 0.53713 0.0
C1055 C 0.90034 0.49371 0.53399 0.0
H1056 H 0.3711 0.15569 0.24253 0.0
H1057 H 0.30596 0.09811 0.22994 0.0
H1058 H 0.34557 0.18764 0.24617 0.0
H1059 H 0.28089 0.12962 0.23374 0.0
H1060 H 0.24562 0.1875 0.2726 0.0
H1061 H 0.27316 0.15848 0.2676 0.0
H1062 H 0.31236 0.20702 0.22121 0.0
H1063 H 0.28416 0.23625 0.226 0.0
C1064 C 0.35143 0.14979 0.24055 0.0
C1065 C 0.34073 0.12415 0.23604 0.0
C1066 C 0.33678 0.16814 0.24248 0.0
C1067 C 0.31108 0.16128 0.24039 0.0
C1068 C 0.30055 0.13569 0.23574 0.0
C1069 C 0.31505 0.11754 0.23347 0.0
C1070 C 0.25999 0.19204 0.26119 0.0
C1071 C 0.26244 0.21418 0.24954 0.0
C1072 C 0.27584 0.17531 0.25831 0.0
C1073 C 0.29501 0.18019 0.24388 0.0
C1074 C 0.29788 0.20263 0.23253 0.0
C1075 C 0.28164 0.21933 0.23514 0.0
H1076 H 0.30255 0.07115 0.45109 0.0
H1077 H 0.31345 0.11477 0.52048 0.0
H1078 H 0.33566 0.05028 0.4644 0.0
H1079 H 0.3461 0.09346 0.53399 0.0
H1080 H 0.42537 0.08059 0.53032 0.0
H1081 H 0.38713 0.09542 0.52436 0.0
H1082 H 0.35068 0.02217 0.49135 0.0
H1083 H 0.3893 0.00751 0.49692 0.0
C1084 C 0.31171 0.07598 0.46932 0.0
C1085 C 0.3056 0.09487 0.48458 0.0
C1086 C 0.33059 0.06387 0.47704 0.0
C1087 C 0.34367 0.07032 0.50023 0.0
C1088 C 0.33669 0.08835 0.51588 0.0
C1089 C 0.31792 0.10052 0.50814 0.0
C1090 C 0.40906 0.06751 0.52231 0.0
C1091 C 0.41027 0.04299 0.51391 0.0
C1092 C 0.38709 0.07596 0.51895 0.0
C1093 C 0.36586 0.06005 0.50713 0.0
C1094 C 0.3668 0.035 0.50014 0.0
C1095 C 0.38883 0.02654 0.50353 0.0
H1096 H 0.70007 0.56744 0.27474 0.0
H1097 H 0.64255 0.60275 0.29808 0.0
H1098 H 0.72576 0.60884 0.27368 0.0
H1099 H 0.66796 0.64368 0.29695 0.0
H1100 H 0.74429 0.68712 0.24196 0.0
H1101 H 0.72484 0.64469 0.24824 0.0
H1102 H 0.70541 0.67188 0.3167 0.0
H1103 H 0.72467 0.71438 0.31043 0.0
C1104 C 0.69302 0.58396 0.27991 0.0
C1105 C 0.66921 0.58175 0.28639 0.0
C1106 C 0.70767 0.60766 0.27917 0.0
C1107 C 0.69892 0.62958 0.28525 0.0
C1108 C 0.67542 0.62724 0.29245 0.0
C1109 C 0.66076 0.6037 0.29292 0.0
C1110 C 0.73614 0.68406 0.25852 0.0
C1111 C 0.73589 0.70429 0.27559 0.0
C1112 C 0.72512 0.65966 0.26217 0.0
C1113 C 0.71342 0.6549 0.28289 0.0
C1114 C 0.71402 0.67496 0.3004 0.0
C1115 C 0.72518 0.69933 0.29684 0.0
H1116 H 0.83517 0.50811 0.71692 0.0
H1117 H 0.87114 0.49615 0.78589 0.0
H1118 H 0.8057 0.46871 0.7174 0.0
H1119 H 0.84179 0.45743 0.78664 0.0
H1120 H 0.7788 0.39456 0.78866 0.0
H1121 H 0.79718 0.43872 0.78774 0.0
H1122 H 0.81273 0.42321 0.71464 0.0
H1123 H 0.79446 0.37905 0.71563 0.0
C1124 C 0.83629 0.49746 0.73246 0.0
C1125 C 0.85538 0.50505 0.75135 0.0
C1126 C 0.8196 0.47489 0.73267 0.0
C1127 C 0.82147 0.45999 0.75205 0.0
C1128 C 0.83967 0.46857 0.77159 0.0
C1129 C 0.85655 0.4907 0.77112 0.0
C1130 C 0.78577 0.4007 0.77227 0.0
C1131 C 0.78549 0.3834 0.75232 0.0
C1132 C 0.79629 0.42594 0.77175 0.0
C1133 C 0.80646 0.4344 0.75114 0.0
C1134 C 0.80483 0.41731 0.73068 0.0
C1135 C 0.79457 0.39201 0.73131 0.0
H1136 H 0.99628 0.80996 0.06308 0.0
H1137 H 0.97376 0.8425 0.12778 0.0
H1138 H 0.99105 0.8466 0.04257 0.0
H1139 H 0.96836 0.87953 0.10704 0.0
H1140 H 0.00604 0.95177 0.07482 0.0
H1141 H -0.00028 0.91292 0.09407 0.0
H1142 H 0.96314 0.87319 0.02661 0.0
H1143 H 0.9696 0.91238 0.00724 0.0
C1144 C 0.98966 0.82479 0.07275 0.0
C1145 C 0.98569 0.82354 0.09712 0.0
C1146 C 0.98651 0.84573 0.06091 0.0
C1147 C 0.97952 0.86608 0.07323 0.0
C1148 C 0.97403 0.86421 0.09718 0.0
C1149 C 0.97692 0.84299 0.109 0.0
C1150 C 0.99653 0.93476 0.06411 0.0
C1151 C 0.98851 0.93499 0.03948 0.0
C1152 C 0.99264 0.91256 0.07523 0.0
C1153 C 0.98078 0.89 0.06193 0.0
C1154 C 0.97239 0.89029 0.03731 0.0
C1155 C 0.97612 0.91264 0.02621 0.0
H1156 H 0.9582 0.30998 0.8062 0.0
H1157 H 0.94127 0.22999 0.80776 0.0
H1158 H 0.91893 0.30865 0.7827 0.0
H1159 H 0.90276 0.22804 0.78254 0.0
H1160 H 0.82363 0.23785 0.77899 0.0
H1161 H 0.86589 0.23618 0.79045 0.0
H1162 H 0.88835 0.29991 0.75072 0.0
H1163 H 0.84555 0.30236 0.74046 0.0
C1164 C 0.94657 0.29193 0.80032 0.0
C1165 C 0.95275 0.27008 0.80867 0.0
C1166 C 0.92389 0.2911 0.78686 0.0
C1167 C 0.90706 0.26827 0.78111 0.0
C1168 C 0.91464 0.24612 0.78731 0.0
C1169 C 0.93698 0.24709 0.80135 0.0
C1170 C 0.83753 0.25129 0.77233 0.0
C1171 C 0.83114 0.27028 0.75884 0.0
C1172 C 0.862 0.25024 0.77878 0.0
C1173 C 0.88096 0.26788 0.77157 0.0
C1174 C 0.87447 0.28623 0.75707 0.0
C1175 C 0.84987 0.28756 0.75099 0.0
H1176 H 0.46635 0.18835 0.60047 0.0
H1177 H 0.54466 0.19886 0.61664 0.0
H1178 H 0.46587 0.14749 0.57828 0.0
H1179 H 0.5443 0.15909 0.5946 0.0
H1180 H 0.54003 0.08091 0.56829 0.0
H1181 H 0.53254 0.11495 0.59534 0.0
H1182 H 0.47989 0.13163 0.53998 0.0
H1183 H 0.48699 0.09677 0.51306 0.0
C1184 C 0.48332 0.18178 0.59965 0.0
C1185 C 0.50554 0.19685 0.61023 0.0
C1186 C 0.4831 0.15854 0.58678 0.0
C1187 C 0.50505 0.14992 0.58468 0.0
C1188 C 0.52699 0.16477 0.5961 0.0
C1189 C 0.52721 0.18779 0.60864 0.0
C1190 C 0.52667 0.09168 0.56199 0.0
C1191 C 0.51434 0.08646 0.53851 0.0
C1192 C 0.52236 0.11121 0.57747 0.0
C1193 C 0.50591 0.12637 0.56973 0.0
C1194 C 0.49258 0.12029 0.5466 0.0
C1195 C 0.49673 0.10044 0.53113 0.0
H1196 H 0.59074 0.77251 0.33412 0.0
H1197 H 0.5814 0.82978 0.28667 0.0
H1198 H 0.62804 0.76746 0.31707 0.0
H1199 H 0.61893 0.82508 0.26996 0.0
H1200 H 0.67161 0.7902 0.22653 0.0
H1201 H 0.63496 0.79635 0.24438 0.0
H1202 H 0.66978 0.78698 0.31487 0.0
H1203 H 0.70595 0.77978 0.29663 0.0
C1204 C 0.59669 0.78415 0.32015 0.0
C1205 C 0.58291 0.80151 0.31177 0.0
C1206 C 0.61824 0.78136 0.31044 0.0
C1207 C 0.62664 0.79582 0.29204 0.0
C1208 C 0.61293 0.81333 0.28383 0.0
C1209 C 0.59141 0.81614 0.29354 0.0
C1210 C 0.67144 0.7896 0.24586 0.0
C1211 C 0.6919 0.78512 0.26028 0.0
C1212 C 0.65047 0.79329 0.25616 0.0
C1213 C 0.64931 0.79238 0.28118 0.0
C1214 C 0.66985 0.78774 0.29555 0.0
C1215 C 0.69084 0.78409 0.28521 0.0
H1216 H 0.97342 0.19389 0.49436 0.0
H1217 H 0.03969 0.19586 0.46065 0.0
H1218 H 0.97793 0.15456 0.50989 0.0
H1219 H 0.0441 0.15599 0.47643 0.0
H1220 H 0.05138 0.09636 0.53293 0.0
H1221 H 0.05045 0.1372 0.51762 0.0
H1222 H 0.9747 0.11127 0.48911 0.0
H1223 H 0.97558 0.07086 0.5046 0.0
C1224 C 0.98905 0.18601 0.49032 0.0
C1225 C 0.0061 0.19793 0.47605 0.0
C1226 C 0.99154 0.1634 0.49917 0.0
C1227 C 0.01118 0.15216 0.49409 0.0
C1228 C 0.0288 0.16437 0.48058 0.0
C1229 C 0.02623 0.18708 0.47152 0.0
C1230 C 0.03458 0.09954 0.52343 0.0
C1231 C 0.01351 0.08066 0.51994 0.0
C1232 C 0.03412 0.12273 0.51452 0.0
C1233 C 0.01248 0.12733 0.50232 0.0
C1234 C 0.99154 0.10826 0.49868 0.0
C1235 C 0.99207 0.08513 0.50739 0.0
H1236 H 0.55744 0.29864 0.14601 0.0
H1237 H 0.54244 0.22044 0.15869 0.0
H1238 H 0.5973 0.30391 0.16988 0.0
H1239 H 0.58231 0.22558 0.1819 0.0
H1240 H 0.64576 0.24642 0.24033 0.0
H1241 H 0.60496 0.245 0.21972 0.0
H1242 H 0.63624 0.29124 0.16688 0.0
H1243 H 0.67693 0.2932 0.18796 0.0
C1244 C 0.56265 0.28262 0.1538 0.0
C1245 C 0.54679 0.25916 0.15043 0.0
C1246 C 0.58549 0.28558 0.16742 0.0
C1247 C 0.5929 0.26516 0.17784 0.0
C1248 C 0.57698 0.24177 0.1745 0.0
C1249 C 0.55419 0.23883 0.161 0.0
C1250 C 0.64383 0.25639 0.2244 0.0
C1251 C 0.66437 0.26974 0.21556 0.0
C1252 C 0.62053 0.25551 0.21255 0.0
C1253 C 0.61741 0.26784 0.19156 0.0
C1254 C 0.63801 0.28175 0.18313 0.0
C1255 C 0.6613 0.28273 0.19507 0.0
H1256 H 0.48273 0.83353 -0.00278 0.0
H1257 H 0.55405 0.84198 0.97254 0.0
H1258 H 0.4907 0.87722 0.01144 0.0
H1259 H 0.56271 0.88617 0.98812 0.0
H1260 H 0.54895 0.96762 0.98302 0.0
H1261 H 0.55112 0.92352 0.9776 0.0
H1262 H 0.5109 0.90991 0.03894 0.0
H1263 H 0.50734 0.95375 0.04308 0.0
C1264 C 0.50042 0.84463 -0.0047 0.0
C1265 C 0.51766 0.83425 0.98349 0.0
C1266 C 0.50515 0.86983 0.00379 0.0
C1267 C 0.52744 0.88543 0.00109 0.0
C1268 C 0.54521 0.87482 0.99023 0.0
C1269 C 0.54032 0.84948 0.98141 0.0
C1270 C 0.5411 0.95523 -0.00433 0.0
C1271 C 0.52771 0.96387 0.01327 0.0
C1272 C 0.54241 0.92992 -0.00736 0.0
C1273 C 0.53072 0.91291 0.00749 0.0
C1274 C 0.5194 0.92225 0.02663 0.0
C1275 C 0.51752 0.94739 0.0292 0.0
H1276 H 0.93597 0.81404 0.64598 0.0
H1277 H 0.90896 0.73553 0.65167 0.0
H1278 H 0.89982 0.82411 0.66299 0.0
H1279 H 0.87334 0.74549 0.6683 0.0
H1280 H 0.80272 0.76591 0.67832 0.0
H1281 H 0.83637 0.76352 0.65458 0.0
H1282 H 0.88416 0.81901 0.70568 0.0
H1283 H 0.85015 0.82167 0.72948 0.0
C1284 C 0.9222 0.799 0.65055 0.0
C1285 C 0.92525 0.77405 0.64768 0.0
C1286 C 0.90169 0.80476 0.66033 0.0
C1287 C 0.88386 0.78554 0.66678 0.0
C1288 C 0.88667 0.76062 0.66318 0.0
C1289 C 0.90717 0.75495 0.65383 0.0
C1290 C 0.82032 0.77786 0.68433 0.0
C1291 C 0.82408 0.79364 0.70589 0.0
C1292 C 0.8395 0.77654 0.67071 0.0
C1293 C 0.8628 0.79092 0.67847 0.0
C1294 C 0.86626 0.80787 0.69928 0.0
C1295 C 0.84696 0.80922 0.71297 0.0
H1296 H 0.09046 0.96207 0.83791 0.0
H1297 H 0.13277 0.03318 0.86973 0.0
H1298 H 0.06646 0.9598 0.87245 0.0
H1299 H 0.10912 0.03093 0.90408 0.0
H1300 H 0.03498 0.04079 0.92609 0.0
H1301 H 0.06216 0.03365 0.89643 0.0
H1302 H 0.06815 0.96269 0.92305 0.0
H1303 H 0.04095 0.96996 0.95358 0.0
C1304 C 0.09545 0.9765 0.8529 0.0
C1305 C 0.11359 -0.00233 0.85141 0.0
C1306 C 0.08163 0.97531 0.87253 0.0
C1307 C 0.08575 0.99538 0.89067 0.0
C1308 C 0.10545 0.01532 0.8902 0.0
C1309 C 0.11916 0.0165 0.87071 0.0
C1310 C 0.04177 0.02349 0.92565 0.0
C1311 C 0.03583 0.00604 0.94243 0.0
C1312 C 0.05752 0.0195 0.90869 0.0
C1313 C 0.06763 -0.00213 0.9078 0.0
C1314 C 0.0607 0.9796 0.92352 0.0
C1315 C 0.04503 0.98374 0.94086 0.0
H1316 H 0.68884 0.30902 0.56956 0.0
H1317 H 0.74086 0.3752 0.59908 0.0
H1318 H 0.69219 0.29175 0.60855 0.0
H1319 H 0.74563 0.35758 0.63775 0.0
H1320 H 0.74324 0.32337 0.70977 0.0
H1321 H 0.73348 0.34419 0.67383 0.0
H1322 H 0.71875 0.27269 0.63082 0.0
H1323 H 0.72768 0.25225 0.66698 0.0
C1324 C 0.70046 0.32019 0.58469 0.0
C1325 C 0.71409 0.34372 0.58147 0.0
C1326 C 0.70289 0.31007 0.60699 0.0
C1327 C 0.71968 0.32286 0.62651 0.0
C1328 C 0.73234 0.34708 0.6235 0.0
C1329 C 0.72951 0.35736 0.6013 0.0
C1330 C 0.73847 0.31231 0.69253 0.0
C1331 C 0.73694 0.2863 0.6911 0.0
C1332 C 0.7326 0.32418 0.67182 0.0
C1333 C 0.72519 0.31032 0.64905 0.0
C1334 C 0.72376 0.28419 0.64786 0.0
C1335 C 0.72922 0.27238 0.66861 0.0
H1336 H 0.42386 0.09573 0.32079 0.0
H1337 H 0.47841 0.05526 0.29906 0.0
H1338 H 0.4398 0.09514 0.36329 0.0
H1339 H 0.49343 0.05362 0.34083 0.0
H1340 H 0.5254 0.06046 0.41809 0.0
H1341 H 0.51408 0.07186 0.37762 0.0
H1342 H 0.4396 0.06713 0.39316 0.0
H1343 H 0.45116 0.05695 0.43368 0.0
C1344 C 0.43944 0.08707 0.325 0.0
C1345 C 0.44966 0.07543 0.30637 0.0
C1346 C 0.44845 0.0864 0.34943 0.0
C1347 C 0.46788 0.07406 0.35583 0.0
C1348 C 0.47875 0.0636 0.337 0.0
C1349 C 0.46988 0.06437 0.3128 0.0
C1350 C 0.50669 0.06215 0.41296 0.0
C1351 C 0.48927 0.05763 0.42929 0.0
C1352 C 0.50007 0.06855 0.38959 0.0
C1353 C 0.47574 0.07029 0.38171 0.0
C1354 C 0.45856 0.06644 0.39839 0.0
C1355 C 0.46522 0.06034 0.42176 0.0
H1356 H 0.77566 0.66823 0.05388 0.0
H1357 H 0.75292 0.73704 0.03731 0.0
H1358 H 0.7829 0.68344 0.09692 0.0
H1359 H 0.7605 0.75223 0.08005 0.0
H1360 H 0.79038 0.7781 0.15798 0.0
H1361 H 0.7952 0.76326 0.11657 0.0
H1362 H 0.74935 0.6922 0.12435 0.0
H1363 H 0.74423 0.7071 0.16546 0.0
C1364 C 0.77267 0.68674 0.05939 0.0
C1365 C 0.7634 0.70135 0.04243 0.0
C1366 C 0.77681 0.69539 0.08391 0.0
C1367 C 0.77224 0.71894 0.09161 0.0
C1368 C 0.76436 0.7341 0.07447 0.0
C1369 C 0.7598 0.7253 0.05009 0.0
C1370 C 0.78161 0.75923 0.15086 0.0
C1371 C 0.76667 0.74379 0.16458 0.0
C1372 C 0.78441 0.75077 0.12731 0.0
C1373 C 0.77268 0.72663 0.11747 0.0
C1374 C 0.75879 0.71078 0.13171 0.0
C1375 C 0.75567 0.71937 0.15506 0.0
H1376 H 0.05868 0.97644 0.73123 0.0
H1377 H 0.12867 0.98258 0.70425 0.0
H1378 H 0.03832 0.96961 0.68997 0.0
H1379 H 0.10836 0.9767 0.66275 0.0
H1380 H 0.02088 0.01035 0.62306 0.0
H1381 H 0.03773 0.00152 0.66248 0.0
H1382 H 0.0797 0.95294 0.62855 0.0
H1383 H 0.06277 0.96219 0.58863 0.0
C1384 C 0.06966 0.97573 0.71642 0.0
C1385 C 0.09523 0.98041 0.72085 0.0
C1386 C 0.05803 0.97198 0.69279 0.0
C1387 C 0.07176 0.97334 0.67309 0.0
C1388 C 0.09725 0.97556 0.67753 0.0
C1389 C 0.10891 0.97894 0.70129 0.0
C1390 C 0.03347 -0.00245 0.62397 0.0
C1391 C 0.04064 0.98707 0.60287 0.0
C1392 C 0.04299 0.99226 0.64659 0.0
C1393 C 0.05996 0.97635 0.64871 0.0
C1394 C 0.06672 0.96532 0.62751 0.0
C1395 C 0.05702 0.97055 0.60472 0.0
H1396 H 0.72082 0.37673 0.43299 0.0
H1397 H 0.70724 0.30002 0.44984 0.0
H1398 H 0.72648 0.36279 0.39145 0.0
H1399 H 0.71212 0.28605 0.40828 0.0
H1400 H 0.70611 0.27206 0.32368 0.0
H1401 H 0.6941 0.28645 0.36253 0.0
H1402 H 0.76148 0.34073 0.37665 0.0
H1403 H 0.7738 0.32601 0.33825 0.0
C1404 C 0.71805 0.35687 0.42756 0.0
C1405 C 0.71327 0.33946 0.44462 0.0
C1406 C 0.72162 0.34889 0.40388 0.0
C1407 C 0.71991 0.32331 0.39661 0.0
C1408 C 0.71345 0.30585 0.41323 0.0
C1409 C 0.71052 0.31385 0.43701 0.0
C1410 C 0.71841 0.28699 0.33511 0.0
C1411 C 0.74104 0.29769 0.32787 0.0
C1412 C 0.7115 0.29526 0.35735 0.0
C1413 C 0.72672 0.31491 0.37258 0.0
C1414 C 0.7492 0.32578 0.36521 0.0
C1415 C 0.75637 0.31712 0.3433 0.0
H1416 H 0.47745 0.09731 0.18682 0.0
H1417 H 0.40724 0.05923 0.15125 0.0
H1418 H 0.49483 0.0946 0.14857 0.0
H1419 H 0.42463 0.05611 0.11277 0.0
H1420 H 0.47627 0.02257 0.06285 0.0
H1421 H 0.45456 0.0313 0.09745 0.0
H1422 H 0.49487 0.10741 0.10685 0.0
H1423 H 0.5161 0.09877 0.07205 0.0
C1424 C 0.4655 0.0893 0.17055 0.0
C1425 C 0.44081 0.07919 0.17192 0.0
C1426 C 0.4755 0.08751 0.14861 0.0
C1427 C 0.46122 0.07495 0.1275 0.0
C1428 C 0.43622 0.06574 0.12866 0.0
C1429 C 0.42612 0.06794 0.1506 0.0
C1430 C 0.48012 0.04126 0.07199 0.0
C1431 C 0.49782 0.05997 0.06453 0.0
C1432 C 0.46768 0.04632 0.09187 0.0
C1433 C 0.47288 0.07012 0.10502 0.0
C1434 C 0.49046 0.08884 0.09734 0.0
C1435 C 0.50265 0.08386 0.07734 0.0
H1436 H 0.7885 0.74497 0.9478 0.0
H1437 H 0.78149 0.68082 0.8959 0.0
H1438 H 0.8011 0.77276 0.91728 0.0
H1439 H 0.79341 0.70864 0.86492 0.0
H1440 H 0.80988 0.76194 0.81083 0.0
H1441 H 0.82092 0.74289 0.84758 0.0
H1442 H 0.77113 0.7794 0.8844 0.0
H1443 H 0.76012 0.79821 0.84786 0.0
C1444 C 0.79052 0.73685 0.92999 0.0
C1445 C 0.78383 0.71091 0.92395 0.0
C1446 C 0.79764 0.75272 0.91254 0.0
C1447 C 0.79773 0.74292 0.88862 0.0
C1448 C 0.79363 0.71675 0.88326 0.0
C1449 C 0.78674 0.70079 0.9009 0.0
C1450 C 0.80213 0.76675 0.82712 0.0
C1451 C 0.78397 0.78137 0.82653 0.0
C1452 C 0.8083 0.75564 0.84806 0.0
C1453 C 0.79671 0.75939 0.86876 0.0
C1454 C 0.78056 0.77625 0.86883 0.0
C1455 C 0.77416 0.78701 0.84787 0.0
H1456 H 0.83139 0.08735 0.96352 0.0
H1457 H 0.87855 0.14777 0.00962 0.0
H1458 H 0.86386 0.06343 0.96494 0.0
H1459 H 0.91136 0.12353 0.01108 0.0
H1460 H 0.97116 0.07868 0.98881 0.0
H1461 H 0.94027 0.10526 0.98602 0.0
H1462 H 0.88463 0.04151 -0.00545 0.0
H1463 H 0.91524 0.01533 -0.00287 0.0
C1464 C 0.8487 0.09563 0.97401 0.0
C1465 C 0.85211 0.11959 0.98656 0.0
C1466 C 0.86741 0.08177 0.97489 0.0
C1467 C 0.89036 0.09136 0.98823 0.0
C1468 C 0.89403 0.11554 0.00047 0.0
C1469 C 0.87513 0.1294 -0.00023 0.0
C1470 C 0.9523 0.07032 0.98962 0.0
C1471 C 0.94572 0.04471 -0.00729 0.0
C1472 C 0.93458 0.08562 0.98837 0.0
C1473 C 0.90976 0.0756 0.98988 0.0
C1474 C 0.90336 0.04996 -0.00709 0.0
C1475 C 0.92102 0.03488 -0.00554 0.0
H1476 H 0.34407 0.4086 0.0732 0.0
H1477 H 0.30901 0.46473 0.04195 0.0
H1478 H 0.38372 0.43339 0.0694 0.0
H1479 H 0.34909 0.49024 0.03891 0.0
H1480 H 0.41913 0.50271 0.00021 0.0
H1481 H 0.3796 0.48684 0.01285 0.0
H1482 H 0.41493 0.46917 0.08007 0.0
H1483 H 0.45473 0.48433 0.06698 0.0
C1484 C 0.34482 0.42659 0.06607 0.0
C1485 C 0.32329 0.43446 0.05751 0.0
C1486 C 0.36769 0.44097 0.06405 0.0
C1487 C 0.36973 0.46374 0.05353 0.0
C1488 C 0.34821 0.47254 0.04664 0.0
C1489 C 0.32521 0.45805 0.04861 0.0
C1490 C 0.41857 0.49572 0.01783 0.0
C1491 C 0.44021 0.49455 0.03244 0.0
C1492 C 0.39577 0.48679 0.02521 0.0
C1493 C 0.39394 0.47658 0.04748 0.0
C1494 C 0.4156 0.47652 0.06262 0.0
C1495 C 0.43846 0.48531 0.05516 0.0
H1496 H 0.33936 0.62176 0.71556 0.0
H1497 H 0.32138 0.60888 0.78752 0.0
H1498 H 0.31997 0.6581 0.71646 0.0
H1499 H 0.30137 0.64486 0.78818 0.0
H1500 H 0.28697 0.72508 0.79006 0.0
H1501 H 0.30821 0.68975 0.79021 0.0
H1502 H 0.28066 0.66865 0.71491 0.0
H1503 H 0.26059 0.70448 0.71464 0.0
C1504 C 0.33114 0.62657 0.73153 0.0
C1505 C 0.33189 0.61228 0.75142 0.0
C1506 C 0.31988 0.64739 0.73202 0.0
C1507 C 0.30894 0.65448 0.75237 0.0
C1508 C 0.30983 0.64023 0.77232 0.0
C1509 C 0.32117 0.61944 0.77186 0.0
C1510 C 0.28582 0.71304 0.77351 0.0
C1511 C 0.27251 0.71778 0.75225 0.0
C1512 C 0.29771 0.6926 0.77363 0.0
C1513 C 0.29633 0.67632 0.75251 0.0
C1514 C 0.2826 0.68097 0.73139 0.0
C1515 C 0.27086 0.7014 0.73129 0.0
H1516 H 0.22222 0.65216 0.54022 0.0
H1517 H 0.23289 0.61029 0.47492 0.0
H1518 H 0.18304 0.62468 0.54116 0.0
H1519 H 0.19313 0.58248 0.47573 0.0
H1520 H 0.10637 0.57135 0.46944 0.0
H1521 H 0.14968 0.58936 0.46945 0.0
H1522 H 0.1622 0.58176 0.5459 0.0
H1523 H 0.11889 0.56393 0.54586 0.0
C1524 C 0.21636 0.63667 0.52631 0.0
C1525 C 0.23058 0.63337 0.50748 0.0
C1526 C 0.19391 0.62083 0.5269 0.0
C1527 C 0.18486 0.60142 0.50847 0.0
C1528 C 0.19955 0.59739 0.49011 0.0
C1529 C 0.22238 0.61311 0.48975 0.0
C1530 C 0.11846 0.57327 0.48616 0.0
C1531 C 0.10924 0.56653 0.50771 0.0
C1532 C 0.14331 0.58338 0.48613 0.0
C1533 C 0.1594 0.5871 0.5077 0.0
C1534 C 0.15025 0.57937 0.52903 0.0
C1535 C 0.12546 0.56914 0.52902 0.0
H1536 H 0.68162 0.9557 0.79755 0.0
H1537 H 0.62259 0.9088 0.7499 0.0
H1538 H 0.70543 0.92289 0.79531 0.0
H1539 H 0.64671 0.87567 0.74771 0.0
H1540 H 0.6931 0.8147 0.76875 0.0
H1541 H 0.66628 0.8453 0.77304 0.0
H1542 H 0.7259 0.90464 0.76313 0.0
H1543 H 0.75228 0.87434 0.75871 0.0
C1544 C 0.67359 0.93833 0.78665 0.0
C1545 C 0.65014 0.93509 0.77377 0.0
C1546 C 0.68736 0.91948 0.78531 0.0
C1547 C 0.67812 0.89664 0.7712 0.0
C1548 C 0.65436 0.89297 0.75886 0.0
C1549 C 0.64058 0.91203 0.76001 0.0
C1550 C 0.70042 0.83431 0.76767 0.0
C1551 C 0.72486 0.84212 0.76354 0.0
C1552 C 0.68504 0.85182 0.76994 0.0
C1553 C 0.69393 0.87751 0.76855 0.0
C1554 C 0.71845 0.88513 0.76463 0.0
C1555 C 0.7336 0.8677 0.76204 0.0
H1556 H 0.69304 0.96118 0.54237 0.0
H1557 H 0.69315 0.94019 0.46625 0.0
H1558 H 0.66157 0.98547 0.53256 0.0
H1559 H 0.6616 0.96443 0.45652 0.0
H1560 H 0.58083 0.97791 0.4582 0.0
H1561 H 0.61716 0.95926 0.4633 0.0
H1562 H 0.65417 0.02342 0.51171 0.0
H1563 H 0.61784 0.04214 0.50646 0.0
C1564 C 0.68653 0.96193 0.52355 0.0
C1565 C 0.69554 0.94865 0.50511 0.0
C1566 C 0.66861 0.97599 0.51792 0.0
C1567 C 0.65911 0.97685 0.49376 0.0
C1568 C 0.66847 0.96399 0.4753 0.0
C1569 C 0.68661 0.95019 0.4809 0.0
C1570 C 0.59695 0.98829 0.46944 0.0
C1571 C 0.59655 0.01144 0.48196 0.0
C1572 C 0.61775 0.97763 0.47236 0.0
C1573 C 0.63843 0.98978 0.48809 0.0
C1574 C 0.6384 0.01351 0.49969 0.0
C1575 C 0.6177 0.02431 0.49652 0.0
H1576 H 0.30884 0.4933 0.74478 0.0
H1577 H 0.33622 0.45668 0.68529 0.0
H1578 H 0.28253 0.45356 0.75059 0.0
H1579 H 0.31073 0.41725 0.69128 0.0
H1580 H 0.2605 0.34795 0.70092 0.0
H1581 H 0.27233 0.39075 0.69086 0.0
H1582 H 0.29102 0.41591 0.76683 0.0
H1583 H 0.27829 0.37315 0.77691 0.0
C1584 C 0.30862 0.47699 0.73244 0.0
C1585 C 0.32468 0.47805 0.71467 0.0
C1586 C 0.29383 0.45413 0.73598 0.0
C1587 C 0.29472 0.43202 0.72166 0.0
C1588 C 0.30929 0.43376 0.70258 0.0
C1589 C 0.32404 0.45644 0.69915 0.0
C1590 C 0.2668 0.36265 0.71552 0.0
C1591 C 0.26878 0.35705 0.73972 0.0
C1592 C 0.27364 0.38724 0.70974 0.0
C1593 C 0.28299 0.40686 0.72798 0.0
C1594 C 0.28369 0.40142 0.75227 0.0
C1595 C 0.27657 0.37681 0.75807 0.0
H1596 H 0.12429 0.57736 0.23335 0.0
H1597 H 0.17167 0.54975 0.2863 0.0
H1598 H 0.15616 0.61369 0.23106 0.0
H1599 H 0.20373 0.58698 0.2845 0.0
H1600 H 0.22536 0.67911 0.29523 0.0
H1601 H 0.20317 0.63616 0.29626 0.0
H1602 H 0.20086 0.62371 0.21878 0.0
H1603 H 0.22333 0.66644 0.21776 0.0
C1604 C 0.14167 0.57902 0.24438 0.0
C1605 C 0.14553 0.56086 0.26008 0.0
C1606 C 0.15995 0.59972 0.24294 0.0
C1607 C 0.1824 0.60306 0.25754 0.0
C1608 C 0.18655 0.58472 0.27302 0.0
C1609 C 0.16833 0.5635 0.274 0.0
C1610 C 0.22063 0.66696 0.27852 0.0
C1611 C 0.2258 0.6761 0.25638 0.0
C1612 C 0.2081 0.64238 0.27914 0.0
C1613 C 0.20026 0.62673 0.25759 0.0
C1614 C 0.20669 0.63546 0.23563 0.0
C1615 C 0.21951 0.65988 0.23506 0.0
H1616 H 0.50508 0.74684 0.44185 0.0
H1617 H 0.53795 0.71768 0.3821 0.0
H1618 H 0.51188 0.71161 0.46413 0.0
H1619 H 0.54461 0.68209 0.40449 0.0
H1620 H 0.5406 0.65036 0.50351 0.0
H1621 H 0.54401 0.68918 0.48342 0.0
H1622 H 0.51273 0.64632 0.41575 0.0
H1623 H 0.50908 0.60788 0.43575 0.0
C1624 C 0.51416 0.73309 0.43365 0.0
C1625 C 0.52077 0.73486 0.41013 0.0
C1626 C 0.51819 0.713 0.4465 0.0
C1627 C 0.52861 0.69403 0.43599 0.0
C1628 C 0.53638 0.69641 0.41294 0.0
C1629 C 0.5327 0.7168 0.40019 0.0
C1630 C 0.53459 0.64934 0.48434 0.0
C1631 C 0.52441 0.62622 0.4712 0.0
C1632 C 0.53657 0.67147 0.47286 0.0
C1633 C 0.52882 0.67072 0.44798 0.0
C1634 C 0.51922 0.64746 0.43483 0.0
C1635 C 0.51689 0.62549 0.44635 0.0
H1636 H 0.55726 0.24517 0.70228 0.0
H1637 H 0.57248 0.32535 0.7022 0.0
H1638 H 0.5965 0.24703 0.7261 0.0
H1639 H 0.61098 0.32777 0.72763 0.0
H1640 H 0.69085 0.31976 0.7322 0.0
H1641 H 0.64846 0.32072 0.72017 0.0
H1642 H 0.62643 0.25603 0.75877 0.0
H1643 H 0.66929 0.25436 0.76965 0.0
C1644 C 0.56848 0.26333 0.70855 0.0
C1645 C 0.56182 0.28513 0.70057 0.0
C1646 C 0.59116 0.26448 0.72218 0.0
C1647 C 0.60751 0.28755 0.72845 0.0
C1648 C 0.59946 0.30955 0.72251 0.0
C1649 C 0.57712 0.30829 0.70835 0.0
C1650 C 0.67701 0.30596 0.7385 0.0
C1651 C 0.68355 0.28693 0.75183 0.0
C1652 C 0.65246 0.30659 0.73171 0.0
C1653 C 0.6336 0.28843 0.73838 0.0
C1654 C 0.64024 0.27008 0.7528 0.0
C1655 C 0.66488 0.26921 0.75924 0.0
H1656 H 0.96812 0.35747 0.88969 0.0
H1657 H 0.04672 0.37044 0.90445 0.0
H1658 H 0.96789 0.39801 0.9099 0.0
H1659 H 0.04656 0.41201 0.92478 0.0
H1660 H 0.02456 0.46409 0.98859 0.0
H1661 H 0.0324 0.42869 0.96293 0.0
H1662 H 0.97894 0.4421 0.90658 0.0
H1663 H 0.97072 0.47672 0.93239 0.0
C1664 C 0.98548 0.36922 0.89699 0.0
C1665 C 0.00744 0.36068 0.89558 0.0
C1666 C 0.98536 0.39265 0.90845 0.0
C1667 C 0.00721 0.40837 0.9189 0.0
C1668 C 0.0294 0.40025 0.91697 0.0
C1669 C 0.02953 0.37661 0.90519 0.0
C1670 C 0.01481 0.45959 0.97057 0.0
C1671 C 0.99676 0.47278 0.96255 0.0
C1672 C 0.01939 0.43946 0.95582 0.0
C1673 C 0.00603 0.43234 0.93283 0.0
C1674 C 0.98916 0.44673 0.92438 0.0
C1675 C 0.98443 0.46655 0.93914 0.0
H1676 H 0.93306 0.82405 0.19485 0.0
H1677 H 0.92132 0.74339 0.19029 0.0
H1678 H 0.89652 0.82323 0.21477 0.0
H1679 H 0.88464 0.74259 0.21084 0.0
H1680 H 0.80681 0.75125 0.22813 0.0
H1681 H 0.84274 0.75033 0.20667 0.0
H1682 H 0.88214 0.8153 0.25269 0.0
H1683 H 0.84627 0.81651 0.27343 0.0
C1684 C 0.92278 0.80606 0.19821 0.0
C1685 C 0.93037 0.78378 0.191 0.0
C1686 C 0.90176 0.80561 0.20982 0.0
C1687 C 0.88755 0.78285 0.21468 0.0
C1688 C 0.89496 0.76047 0.20727 0.0
C1689 C 0.91612 0.76093 0.19563 0.0
C1690 C 0.82314 0.7654 0.23348 0.0
C1691 C 0.8236 0.78409 0.25234 0.0
C1692 C 0.84383 0.76475 0.22134 0.0
C1693 C 0.86546 0.78282 0.22778 0.0
C1694 C 0.8658 0.80132 0.24684 0.0
C1695 C 0.84522 0.80194 0.25889 0.0
H1696 H 0.45519 0.31822 0.02767 0.0
H1697 H 0.50758 0.35571 0.0873 0.0
H1698 H 0.46118 0.35592 0.0068 0.0
H1699 H 0.51292 0.39395 0.06676 0.0
H1700 H 0.53347 0.45108 0.01277 0.0
H1701 H 0.52939 0.41245 0.03281 0.0
H1702 H 0.4518 0.39644 0.00923 0.0
H1703 H 0.45616 0.43449 0.98871 0.0
C1704 C 0.46785 0.33462 0.03643 0.0
C1705 C 0.48085 0.33403 0.05917 0.0
C1706 C 0.4712 0.3563 0.0245 0.0
C1707 C 0.48743 0.37805 0.03514 0.0
C1708 C 0.50053 0.37744 0.05789 0.0
C1709 C 0.49735 0.3556 0.06975 0.0
C1710 C 0.51564 0.4391 0.01178 0.0
C1711 C 0.49515 0.4456 -0.00082 0.0
C1712 C 0.51323 0.41712 0.02339 0.0
C1713 C 0.49026 0.40131 0.02264 0.0
C1714 C 0.46983 0.4079 0.00983 0.0
C1715 C 0.47229 0.42973 -0.00189 0.0
H1716 H 0.97332 0.29441 0.37253 0.0
H1717 H 0.93147 0.22103 0.37886 0.0
H1718 H 0.94181 0.30135 0.34149 0.0
H1719 H 0.90075 0.22716 0.34695 0.0
H1720 H 0.83554 0.2635 0.33203 0.0
H1721 H 0.87192 0.25354 0.35282 0.0
H1722 H 0.91551 0.29191 0.30239 0.0
H1723 H 0.87846 0.30254 0.28165 0.0
C1724 C 0.95791 0.27936 0.36642 0.0
C1725 C 0.95445 0.25736 0.37814 0.0
C1726 C 0.93989 0.28331 0.34867 0.0
C1727 C 0.91846 0.26509 0.34233 0.0
C1728 C 0.91668 0.24188 0.35205 0.0
C1729 C 0.93432 0.23822 0.37012 0.0
C1730 C 0.85286 0.26988 0.32535 0.0
C1731 C 0.85426 0.28377 0.30528 0.0
C1732 C 0.87373 0.26387 0.33707 0.0
C1733 C 0.89657 0.27138 0.32889 0.0
C1734 C 0.89813 0.28575 0.309 0.0
C1735 C 0.87704 0.2919 0.29722 0.0
H1736 H 0.95349 0.67955 0.57628 0.0
H1737 H 0.00333 0.73255 0.54254 0.0
H1738 H 0.95305 0.64784 0.54359 0.0
H1739 H 0.00296 0.70038 0.50926 0.0
H1740 H 0.02989 0.62188 0.49915 0.0
H1741 H 0.02149 0.66265 0.51134 0.0
H1742 H 0.94411 0.63186 0.50103 0.0
H1743 H 0.95252 0.59074 0.48948 0.0
C1744 C 0.96397 0.68453 0.5615 0.0
C1745 C 0.97883 0.70827 0.56212 0.0
C1746 C 0.96345 0.66644 0.54253 0.0
C1747 C 0.97802 0.67157 0.5238 0.0
C1748 C 0.99162 0.69592 0.52351 0.0
C1749 C 0.99184 0.71427 0.54248 0.0
C1750 C 0.01102 0.62391 0.49862 0.0
C1751 C 0.99189 0.60291 0.49427 0.0
C1752 C 0.00619 0.64743 0.50544 0.0
C1753 C 0.98216 0.65027 0.50782 0.0
C1754 C 0.96286 0.63003 0.49993 0.0
C1755 C 0.96769 0.60647 0.49335 0.0
H1756 H 0.58467 0.74633 0.90825 0.0
H1757 H 0.56514 0.80271 0.86386 0.0
H1758 H 0.61581 0.73965 0.88243 0.0
H1759 H 0.59663 0.79647 0.83843 0.0
H1760 H 0.68632 0.75475 0.84524 0.0
H1761 H 0.65482 0.75938 0.87141 0.0
H1762 H 0.60508 0.76586 0.80883 0.0
H1763 H 0.63682 0.76187 0.78286 0.0
C1764 C 0.58717 0.75748 0.89312 0.0
C1765 C 0.57236 0.77503 0.8881 0.0
C1766 C 0.60508 0.75369 0.87835 0.0
C1767 C 0.60864 0.76739 0.85824 0.0
C1768 C 0.59408 0.78524 0.85348 0.0
C1769 C 0.57614 0.78898 0.86821 0.0
C1770 C 0.66855 0.75689 0.83711 0.0
C1771 C 0.66397 0.75798 0.81207 0.0
C1772 C 0.65048 0.75949 0.85207 0.0
C1773 C 0.62746 0.76322 0.84226 0.0
C1774 C 0.62274 0.76352 0.81705 0.0
C1775 C 0.64082 0.76098 0.80213 0.0
H1776 H 0.39288 0.56509 0.64771 0.0
H1777 H 0.459 0.57047 0.69611 0.0
H1778 H 0.41708 0.57081 0.61361 0.0
H1779 H 0.48317 0.57687 0.66248 0.0
H1780 H 0.50568 0.53483 0.59602 0.0
H1781 H 0.48532 0.54392 0.63101 0.0
H1782 H 0.45002 0.59556 0.59231 0.0
H1783 H 0.4706 0.58632 0.55696 0.0
C1784 C 0.41262 0.56868 0.65117 0.0
C1785 C 0.42415 0.56726 0.67441 0.0
C1786 C 0.4265 0.57187 0.63169 0.0
C1787 C 0.45202 0.57374 0.63531 0.0
C1788 C 0.46353 0.57493 0.65903 0.0
C1789 C 0.44973 0.57151 0.67831 0.0
C1790 C 0.49397 0.54849 0.5951 0.0
C1791 C 0.48987 0.55995 0.57382 0.0
C1792 C 0.48237 0.55384 0.61522 0.0
C1793 C 0.46613 0.57061 0.61452 0.0
C1794 C 0.46244 0.58259 0.5934 0.0
C1795 C 0.47438 0.57747 0.57328 0.0
H1796 H 0.78983 0.18403 0.91387 0.0
H1797 H 0.8161 0.26014 0.9447 0.0
H1798 H 0.78445 0.1988 0.87342 0.0
H1799 H 0.81111 0.27484 0.90471 0.0
H1800 H 0.81595 0.29394 0.82837 0.0
H1801 H 0.82613 0.27429 0.86476 0.0
H1802 H 0.75582 0.22449 0.85265 0.0
H1803 H 0.7455 0.24453 0.81599 0.0
C1804 C 0.79532 0.20378 0.91188 0.0
C1805 C 0.80382 0.22089 0.93241 0.0
C1806 C 0.79185 0.21229 0.88879 0.0
C1807 C 0.79722 0.23805 0.88575 0.0
C1808 C 0.80698 0.25489 0.90621 0.0
C1809 C 0.80998 0.24646 0.92918 0.0
C1810 C 0.80264 0.27872 0.83334 0.0
C1811 C 0.77983 0.27091 0.81929 0.0
C1812 C 0.80851 0.26743 0.85426 0.0
C1813 C 0.79179 0.24786 0.86181 0.0
C1814 C 0.76925 0.23935 0.84727 0.0
C1815 C 0.76328 0.25083 0.82627 0.0
H1816 H 0.01954 0.49817 0.19863 0.0
H1817 H 0.08196 0.4677 0.18127 0.0
H1818 H 0.00711 0.49988 0.15625 0.0
H1819 H 0.06873 0.46813 0.13813 0.0
H1820 H 0.05866 0.50809 0.06867 0.0
H1821 H 0.06826 0.49697 0.10933 0.0
H1822 H 0.99139 0.48236 0.11794 0.0
H1823 H 0.982 0.49482 0.07757 0.0
C1824 C 0.03032 0.49113 0.18567 0.0
C1825 C 0.05196 0.48304 0.19354 0.0
C1826 C 0.02302 0.49195 0.16111 0.0
C1827 C 0.03695 0.48445 0.14337 0.0
C1828 C 0.05774 0.47466 0.15114 0.0
C1829 C 0.06519 0.47401 0.17593 0.0
C1830 C 0.04374 0.50233 0.07915 0.0
C1831 C 0.01953 0.50261 0.06981 0.0
C1832 C 0.04926 0.4957 0.10256 0.0
C1833 C 0.03072 0.4888 0.11734 0.0
C1834 C 0.00635 0.48809 0.10753 0.0
C1835 C 0.00087 0.49512 0.08422 0.0
H1836 H 0.7303 0.88049 0.46321 0.0
H1837 H 0.74736 0.81153 0.4868 0.0
H1838 H 0.73122 0.86496 0.42136 0.0
H1839 H 0.74741 0.79562 0.44496 0.0
H1840 H 0.78191 0.79273 0.37419 0.0
H1841 H 0.77486 0.8047 0.41541 0.0
H1842 H 0.71302 0.8354 0.38767 0.0
H1843 H 0.72074 0.82418 0.34648 0.0
C1844 C 0.73364 0.86178 0.4594 0.0
C1845 C 0.7391 0.84736 0.47825 0.0
C1846 C 0.73411 0.85283 0.43542 0.0
C1847 C 0.73978 0.82919 0.42987 0.0
C1848 C 0.74363 0.81417 0.44868 0.0
C1849 C 0.74343 0.82321 0.47263 0.0
C1850 C 0.76682 0.80199 0.377 0.0
C1851 C 0.752 0.80776 0.35732 0.0
C1852 C 0.7626 0.80865 0.40056 0.0
C1853 C 0.74331 0.82096 0.40483 0.0
C1854 C 0.72822 0.82626 0.385 0.0
C1855 C 0.73259 0.81979 0.36145 0.0
H1856 H 0.40405 0.57842 0.8083 0.0
H1857 H 0.43019 0.51001 0.79272 0.0
H1858 H 0.42392 0.58158 0.85015 0.0
H1859 H 0.4492 0.51295 0.8337 0.0
H1860 H 0.50069 0.53154 0.8986 0.0
H1861 H 0.48386 0.53908 0.85856 0.0
H1862 H 0.42084 0.55843 0.88803 0.0
H1863 H 0.43842 0.5518 0.92863 0.0
C1864 C 0.41398 0.56416 0.81373 0.0
C1865 C 0.41568 0.5441 0.79708 0.0
C1866 C 0.42527 0.56593 0.83763 0.0
C1867 C 0.4385 0.54776 0.84507 0.0
C1868 C 0.43977 0.52765 0.82843 0.0
C1869 C 0.42863 0.52589 0.80485 0.0
C1870 C 0.48344 0.53782 0.8966 0.0
C1871 C 0.47059 0.54065 0.9165 0.0
C1872 C 0.47377 0.5421 0.87368 0.0
C1873 C 0.45075 0.54877 0.87007 0.0
C1874 C 0.43861 0.5533 0.89028 0.0
C1875 C 0.44857 0.54938 0.91343 0.0
H1876 H 0.79442 0.18323 0.0795 0.0
H1877 H 0.81738 0.26047 0.06688 0.0
H1878 H 0.78922 0.19632 0.12141 0.0
H1879 H 0.81305 0.27349 0.10889 0.0
H1880 H 0.81861 0.28188 0.19426 0.0
H1881 H 0.82964 0.26753 0.15492 0.0
H1882 H 0.75696 0.22367 0.13641 0.0
H1883 H 0.74565 0.23855 0.17532 0.0
C1884 C 0.79935 0.2029 0.08597 0.0
C1885 C 0.80667 0.2208 0.06999 0.0
C1886 C 0.79606 0.21042 0.10985 0.0
C1887 C 0.80059 0.23596 0.11841 0.0
C1888 C 0.80952 0.2537 0.1029 0.0
C1889 C 0.81216 0.24623 0.07889 0.0
C1890 C 0.80494 0.26927 0.18176 0.0
C1891 C 0.78117 0.26156 0.18791 0.0
C1892 C 0.81129 0.26102 0.15926 0.0
C1893 C 0.79424 0.24428 0.14266 0.0
C1894 C 0.77058 0.23634 0.14892 0.0
C1895 C 0.76404 0.24509 0.17112 0.0
H1896 H 0.09863 0.50171 0.34892 0.0
H1897 H 0.02378 0.48225 0.3164 0.0
H1898 H 0.08471 0.50434 0.3893 0.0
H1899 H 0.00989 0.48415 0.35645 0.0
H1900 H 0.99426 0.46981 0.43327 0.0
H1901 H 0.01203 0.46253 0.39593 0.0
H1902 H 0.05958 0.53501 0.4102 0.0
H1903 H 0.0412 0.54265 0.44745 0.0
C1904 C 0.07927 0.49714 0.35049 0.0
C1905 C 0.06227 0.49132 0.32961 0.0
C1906 C 0.0713 0.49898 0.37352 0.0
C1907 C 0.04619 0.49451 0.37606 0.0
C1908 C 0.02933 0.4875 0.35516 0.0
C1909 C 0.03727 0.48628 0.33223 0.0
C1910 C 0.00859 0.4842 0.42857 0.0
C1911 C 0.01628 0.50686 0.44336 0.0
C1912 C 0.01878 0.47998 0.40715 0.0
C1913 C 0.03723 0.49815 0.40009 0.0
C1914 C 0.04558 0.52052 0.41529 0.0
C1915 C 0.03506 0.52492 0.43661 0.0
H1916 H 0.71941 0.88471 0.62521 0.0
H1917 H 0.69236 0.82064 0.57333 0.0
H1918 H 0.7054 0.86 0.65765 0.0
H1919 H 0.67804 0.79595 0.60555 0.0
H1920 H 0.72099 0.76304 0.67014 0.0
H1921 H 0.71013 0.78397 0.63483 0.0
H1922 H 0.67386 0.83097 0.67827 0.0
H1923 H 0.68441 0.80948 0.71369 0.0
C1924 C 0.70918 0.86579 0.62062 0.0
C1925 C 0.7069 0.85446 0.59695 0.0
C1926 C 0.70117 0.85159 0.63916 0.0
C1927 C 0.691 0.82592 0.63412 0.0
C1928 C 0.68603 0.8156 0.60994 0.0
C1929 C 0.69407 0.82975 0.59151 0.0
C1930 C 0.7098 0.77709 0.67189 0.0
C1931 C 0.70355 0.78467 0.69453 0.0
C1932 C 0.70348 0.78906 0.65168 0.0
C1933 C 0.69122 0.80921 0.65384 0.0
C1934 C 0.6833 0.8155 0.67613 0.0
C1935 C 0.68919 0.80309 0.69631 0.0
H1936 H 0.6378 0.41272 0.50861 0.0
H1937 H 0.69008 0.47991 0.53561 0.0
H1938 H 0.60491 0.43689 0.50742 0.0
H1939 H 0.65756 0.50375 0.53439 0.0
H1940 H 0.59992 0.5442 0.50132 0.0
H1941 H 0.63062 0.51813 0.50329 0.0
H1942 H 0.58167 0.4619 0.5343 0.0
H1943 H 0.5507 0.48842 0.53235 0.0
C1944 C 0.64233 0.43258 0.51427 0.0
C1945 C 0.66676 0.44427 0.52209 0.0
C1946 C 0.62342 0.44642 0.51375 0.0
C1947 C 0.62848 0.4724 0.52069 0.0
C1948 C 0.65288 0.48392 0.5286 0.0
C1949 C 0.67162 0.47012 0.52939 0.0
C1950 C 0.59563 0.52636 0.50873 0.0
C1951 C 0.57278 0.51861 0.51692 0.0
C1952 C 0.61335 0.51136 0.50991 0.0
C1953 C 0.60885 0.48786 0.5191 0.0
C1954 C 0.58583 0.47982 0.52702 0.0
C1955 C 0.56808 0.4951 0.52609 0.0
H1956 H 0.20398 0.08877 0.483 0.0
H1957 H 0.16072 0.14081 0.45619 0.0
H1958 H 0.16653 0.05942 0.48787 0.0
H1959 H 0.1237 0.11198 0.4615 0.0
H1960 H 0.05948 0.05022 0.45702 0.0
H1961 H 0.09826 0.07216 0.44668 0.0
H1962 H 0.13426 0.05759 0.5148 0.0
H1963 H 0.0954 0.03502 0.525 0.0
C1964 C 0.18653 0.09381 0.47785 0.0
C1965 C 0.18535 0.11717 0.46927 0.0
C1966 C 0.16511 0.0771 0.48083 0.0
C1967 C 0.14214 0.08338 0.47512 0.0
C1968 C 0.14104 0.10636 0.46575 0.0
C1969 C 0.16234 0.123 0.46284 0.0
C1970 C 0.07568 0.05143 0.46973 0.0
C1971 C 0.07428 0.04111 0.49198 0.0
C1972 C 0.09792 0.06409 0.46381 0.0
C1973 C 0.1193 0.06691 0.48003 0.0
C1974 C 0.11815 0.05559 0.50181 0.0
C1975 C 0.09585 0.04276 0.50772 0.0
H1976 H 0.17663 0.91395 0.8137 0.0
H1977 H 0.20492 0.95578 0.75669 0.0
H1978 H 0.20276 0.8838 0.80618 0.0
H1979 H 0.23083 0.92519 0.74891 0.0
H1980 H 0.2506 0.84577 0.72816 0.0
H1981 H 0.22445 0.8767 0.73414 0.0
H1982 H 0.24953 0.88619 0.81054 0.0
H1983 H 0.27567 0.8558 0.80456 0.0
C1984 C 0.18842 0.91673 0.79955 0.0
C1985 C 0.18877 0.93737 0.78589 0.0
C1986 C 0.2034 0.89945 0.79527 0.0
C1987 C 0.21879 0.90211 0.77692 0.0
C1988 C 0.21902 0.92259 0.76305 0.0
C1989 C 0.20435 0.94019 0.76765 0.0
C1990 C 0.25046 0.85453 0.74617 0.0
C1991 C 0.26512 0.84838 0.76587 0.0
C1992 C 0.23566 0.8723 0.74958 0.0
C1993 C 0.23494 0.88383 0.77283 0.0
C1994 C 0.24959 0.87755 0.79246 0.0
C1995 C 0.26467 0.86025 0.78899 0.0
H1996 H 0.29752 0.94081 0.05855 0.0
H1997 H 0.28106 0.93771 0.98123 0.0
H1998 H 0.33686 0.96803 0.05656 0.0
H1999 H 0.32096 0.96346 0.9787 0.0
H2000 H 0.41602 0.97653 0.04088 0.0
H2001 H 0.37353 0.96065 0.04534 0.0
H2002 H 0.35115 -0.00039 0.98481 0.0
H2003 H 0.39404 0.01434 0.97969 0.0
C2004 C 0.30213 0.94665 0.0412 0.0
C2005 C 0.28627 0.93757 0.02009 0.0
C2006 C 0.32486 0.96183 0.03992 0.0
C2007 C 0.33256 0.96751 0.01738 0.0
C2008 C 0.31579 0.95977 -0.00358 0.0
C2009 C 0.29282 0.94504 -0.00219 0.0
C2010 C 0.40199 0.98175 0.02859 0.0
C2011 C 0.40828 0.99645 0.00982 0.0
C2012 C 0.37752 0.9729 0.0313 0.0
C2013 C 0.35862 0.97887 0.01553 0.0
C2014 C 0.36506 0.99426 -0.00289 0.0
C2015 C 0.38963 0.00281 -0.0058 0.0
H2016 H 0.86687 0.65149 0.72981 0.0
H2017 H 0.81471 0.60472 0.76682 0.0
H2018 H 0.84014 0.68233 0.72772 0.0
H2019 H 0.78845 0.63527 0.765 0.0
H2020 H 0.73446 0.6831 0.74092 0.0
H2021 H 0.76141 0.65285 0.73854 0.0
H2022 H 0.82426 0.71317 0.7521 0.0
H2023 H 0.79719 0.74337 0.75414 0.0
C2024 C 0.84977 0.64772 0.73748 0.0
C2025 C 0.84313 0.62544 0.74847 0.0
C2026 C 0.83441 0.6655 0.73639 0.0
C2027 C 0.81184 0.66143 0.74605 0.0
C2028 C 0.80532 0.63909 0.75693 0.0
C2029 C 0.82063 0.62151 0.75814 0.0
C2030 C 0.75402 0.68994 0.74313 0.0
C2031 C 0.76355 0.71573 0.7478 0.0
C2032 C 0.76958 0.67253 0.74197 0.0
C2033 C 0.79525 0.68032 0.74538 0.0
C2034 C 0.80473 0.70627 0.7492 0.0
C2035 C 0.78914 0.72366 0.75047 0.0
H2036 H 0.85574 0.6546 0.00415 0.0
H2037 H 0.79789 0.5894 0.98817 0.0
H2038 H 0.88473 0.62797 0.01428 0.0
H2039 H 0.82683 0.56268 -0.00091 0.0
H2040 H 0.89325 0.52487 0.988 0.0
H2041 H 0.86032 0.54816 0.98364 0.0
H2042 H 0.89729 0.6014 0.04307 0.0
H2043 H 0.93067 0.57847 0.04676 0.0
C2044 C 0.84916 0.63457 0.003 0.0
C2045 C 0.82453 0.62413 -0.0048 0.0
C2046 C 0.86576 0.61927 0.00907 0.0
C2047 C 0.85813 0.59313 0.00768 0.0
C2048 C 0.8334 0.5827 0.00014 0.0
C2049 C 0.81679 0.59803 -0.00609 0.0
C2050 C 0.89403 0.54122 0.00049 0.0
C2051 C 0.91455 0.54998 0.0176 0.0
C2052 C 0.87512 0.55458 -0.00197 0.0
C2053 C 0.87629 0.57692 0.01275 0.0
C2054 C 0.89606 0.58461 0.03105 0.0
C2055 C 0.91505 0.57132 0.03339 0.0
H2056 H 0.15828 0.09083 0.74963 0.0
H2057 H 0.20959 0.07616 0.80723 0.0
H2058 H 0.18362 0.13173 0.74743 0.0
H2059 H 0.23495 0.11793 0.80541 0.0
H2060 H 0.2413 0.21031 0.80835 0.0
H2061 H 0.22448 0.16622 0.8126 0.0
H2062 H 0.22915 0.14751 0.73708 0.0
H2063 H 0.24613 0.19099 0.73274 0.0
C2064 C 0.17514 0.09631 0.7617 0.0
C2065 C 0.18203 0.08028 0.77852 0.0
C2066 C 0.18965 0.11972 0.76042 0.0
C2067 C 0.21121 0.12797 0.77626 0.0
C2068 C 0.21836 0.11195 0.79303 0.0
C2069 C 0.20402 0.08807 0.79393 0.0
C2070 C 0.23924 0.19671 0.79279 0.0
C2071 C 0.24488 0.20433 0.77015 0.0
C2072 C 0.22973 0.17147 0.79527 0.0
C2073 C 0.22545 0.15355 0.77513 0.0
C2074 C 0.2322 0.16097 0.75287 0.0
C2075 C 0.24193 0.18597 0.75044 0.0
H2076 H 0.36979 0.97832 0.20561 0.0
H2077 H 0.33574 0.01908 0.25704 0.0
H2078 H 0.34084 0.94031 0.20932 0.0
H2079 H 0.30627 0.98055 0.2608 0.0
H2080 H 0.27956 0.87681 0.20849 0.0
H2081 H 0.29833 0.91923 0.20153 0.0
H2082 H 0.30948 0.94022 0.27856 0.0
H2083 H 0.29014 0.89768 0.28545 0.0
C2084 C 0.35573 0.97924 0.21738 0.0
C2085 C 0.35509 0.00167 0.23109 0.0
C2086 C 0.339 0.95742 0.21942 0.0
C2087 C 0.32122 0.95731 0.23541 0.0
C2088 C 0.31986 0.98001 0.24844 0.0
C2089 C 0.33655 0.00209 0.24614 0.0
C2090 C 0.28565 0.8906 0.22392 0.0
C2091 C 0.28369 0.88391 0.24753 0.0
C2092 C 0.29646 0.91489 0.21994 0.0
C2093 C 0.30571 0.93306 0.2395 0.0
C2094 C 0.30241 0.92674 0.26309 0.0
C2095 C 0.29148 0.90236 0.26706 0.0
H2096 H 0.4761 0.34087 0.62851 0.0
H2097 H 0.50477 0.31211 0.56572 0.0
H2098 H 0.47069 0.37818 0.60826 0.0
H2099 H 0.49933 0.34903 0.54561 0.0
H2100 H 0.47466 0.41386 0.51015 0.0
H2101 H 0.46954 0.37409 0.52862 0.0
H2102 H 0.50237 0.41351 0.59744 0.0
H2103 H 0.50754 0.45295 0.57905 0.0
C2104 C 0.48065 0.34223 0.61021 0.0
C2105 C 0.49105 0.32372 0.59877 0.0
C2106 C 0.47773 0.36362 0.59868 0.0
C2107 C 0.48477 0.3666 0.5754 0.0
C2108 C 0.49359 0.34725 0.56344 0.0
C2109 C 0.49683 0.32615 0.57504 0.0
C2110 C 0.48063 0.41394 0.52923 0.0
C2111 C 0.49167 0.43639 0.54314 0.0
C2112 C 0.47769 0.39125 0.5398 0.0
C2113 C 0.48542 0.3907 0.56453 0.0
C2114 C 0.49587 0.41333 0.57847 0.0
C2115 C 0.49907 0.43588 0.56786 0.0
H2116 H 0.43913 0.72903 0.30283 0.0
H2117 H 0.45654 0.80914 0.3026 0.0
H2118 H 0.40048 0.72775 0.27807 0.0
H2119 H 0.41718 0.80848 0.27962 0.0
H2120 H 0.32158 0.73822 0.27619 0.0
H2121 H 0.36385 0.73589 0.28665 0.0
H2122 H 0.38618 0.80063 0.24819 0.0
H2123 H 0.34343 0.80372 0.23899 0.0
C2124 C 0.43494 0.7463 0.29677 0.0
C2125 C 0.45088 0.76914 0.30435 0.0
C2126 C 0.41251 0.74572 0.28301 0.0
C2127 C 0.40502 0.76809 0.27739 0.0
C2128 C 0.42204 0.79076 0.28333 0.0
C2129 C 0.4448 0.79122 0.29648 0.0
C2130 C 0.33545 0.75175 0.26961 0.0
C2131 C 0.32906 0.77122 0.25683 0.0
C2132 C 0.35993 0.75033 0.27547 0.0
C2133 C 0.37887 0.76806 0.26834 0.0
C2134 C 0.37233 0.78687 0.25448 0.0
C2135 C 0.34775 0.78857 0.24902 0.0
H2136 H 0.9832 0.70821 0.07108 0.0
H2137 H -0.00015 0.67884 0.13897 0.0
H2138 H 0.98516 0.66856 0.04935 0.0
H2139 H 0.00152 0.63854 0.11726 0.0
H2140 H 0.04388 0.59287 0.06818 0.0
H2141 H 0.03143 0.6261 0.09276 0.0
H2142 H 0.97011 0.62486 0.03882 0.0
H2143 H 0.98331 0.5925 0.01386 0.0
C2144 C 0.98621 0.69277 0.08136 0.0
C2145 C 0.99103 0.69637 0.10664 0.0
C2146 C 0.98741 0.67001 0.06892 0.0
C2147 C 0.99376 0.65036 0.0815 0.0
C2148 C 0.9969 0.65341 0.107 0.0
C2149 C 0.99554 0.67628 0.11948 0.0
C2150 C 0.02772 0.5997 0.06167 0.0
C2151 C 0.01456 0.59013 0.03915 0.0
C2152 C 0.02036 0.6185 0.07588 0.0
C2153 C -0.00032 0.62816 0.06786 0.0
C2154 C 0.98623 0.61806 0.04551 0.0
C2155 C 0.9937 0.5994 0.03126 0.0
H2156 H 0.09337 0.31786 0.82291 0.0
H2157 H 0.08015 0.23709 0.81588 0.0
H2158 H 0.13069 0.31872 0.80342 0.0
H2159 H 0.11733 0.23795 0.7971 0.0
H2160 H 0.16948 0.24519 0.74058 0.0
H2161 H 0.13289 0.24677 0.76002 0.0
H2162 H 0.17215 0.31016 0.80825 0.0
H2163 H 0.20879 0.30896 0.78805 0.0
C2164 C 0.09841 0.30031 0.81729 0.0
C2165 C 0.08356 0.27741 0.82085 0.0
C2166 C 0.11991 0.30079 0.80625 0.0
C2167 C 0.12705 0.27839 0.79844 0.0
C2168 C 0.11228 0.25559 0.80234 0.0
C2169 C 0.09091 0.25511 0.8133 0.0
C2170 C 0.17032 0.25953 0.75529 0.0
C2171 C 0.19209 0.27684 0.76285 0.0
C2172 C 0.14934 0.26034 0.7666 0.0
C2173 C 0.14947 0.27845 0.78594 0.0
C2174 C 0.17124 0.29606 0.79333 0.0
C2175 C 0.19231 0.29526 0.7819 0.0
H2176 H 0.47661 0.6943 -0.00028 0.0
H2177 H 0.54265 0.69893 0.9652 0.0
H2178 H 0.48165 0.65414 0.01319 0.0
H2179 H 0.54759 0.65839 0.97885 0.0
H2180 H 0.55646 0.59522 0.02986 0.0
H2181 H 0.55455 0.63732 0.01827 0.0
H2182 H 0.47864 0.61186 0.9901 0.0
H2183 H 0.48053 0.57007 0.00182 0.0
C2184 C 0.49233 0.68687 -0.00486 0.0
C2185 C 0.50914 0.69973 0.98119 0.0
C2186 C 0.49512 0.6638 0.00279 0.0
C2187 C 0.51483 0.65312 -0.00319 0.0
C2188 C 0.53224 0.66632 0.98371 0.0
C2189 C 0.52937 0.68944 0.97586 0.0
C2190 C 0.53941 0.59876 0.02123 0.0
C2191 C 0.51862 0.57958 0.01667 0.0
C2192 C 0.53837 0.6227 0.01449 0.0
C2193 C 0.51644 0.62777 0.00341 0.0
C2194 C 0.49571 0.60848 -0.00115 0.0
C2195 C 0.49682 0.58457 0.00537 0.0
H2196 H 0.04198 0.76364 0.69721 0.0
H2197 H 0.07117 0.79656 0.63583 0.0
H2198 H 0.08267 0.77209 0.71941 0.0
H2199 H 0.11227 0.80392 0.65758 0.0
H2200 H 0.18369 0.82332 0.70723 0.0
H2201 H 0.14195 0.82465 0.69036 0.0
H2202 H 0.1165 0.75274 0.7161 0.0
H2203 H 0.1577 0.75203 0.73354 0.0
C2204 C 0.05716 0.7728 0.68853 0.0
C2205 C 0.05358 0.7791 0.66472 0.0
C2206 C 0.08048 0.77753 0.70118 0.0
C2207 C 0.10081 0.78815 0.69009 0.0
C2208 C 0.09702 0.79582 0.66672 0.0
C2209 C 0.07352 0.7915 0.6542 0.0
C2210 C 0.169 0.80801 0.70943 0.0
C2211 C 0.17376 0.78754 0.72157 0.0
C2212 C 0.14519 0.8087 0.69971 0.0
C2213 C 0.12585 0.78884 0.70192 0.0
C2214 C 0.13079 0.76862 0.71449 0.0
C2215 C 0.15445 0.76807 0.72432 0.0
H2216 H 0.05202 0.33978 0.47222 0.0
H2217 H 0.97763 0.33051 0.48913 0.0
H2218 H 0.05962 0.38342 0.4895 0.0
H2219 H 0.98467 0.37368 0.50498 0.0
H2220 H -0.0005 0.44895 0.54035 0.0
H2221 H 0.00245 0.40499 0.53492 0.0
H2222 H 0.04961 0.42149 0.47919 0.0
H2223 H 0.04789 0.46556 0.48596 0.0
C2224 C 0.03738 0.34698 0.47972 0.0
C2225 C 0.01421 0.33169 0.47917 0.0
C2226 C 0.04166 0.372 0.48952 0.0
C2227 C 0.02278 0.38222 0.49871 0.0
C2228 C -0.0001 0.36655 0.4987 0.0
C2229 C 0.99575 0.34166 0.48927 0.0
C2230 C 0.01096 0.44316 0.52741 0.0
C2231 C 0.02329 0.46049 0.51344 0.0
C2232 C 0.01254 0.41796 0.52411 0.0
C2233 C 0.02578 0.40947 0.50615 0.0
C2234 C 0.03939 0.42722 0.49331 0.0
C2235 C 0.03833 0.45253 0.4971 0.0
H2236 H 0.42818 0.30605 0.13576 0.0
H2237 H 0.41516 0.23289 0.16227 0.0
H2238 H 0.39789 0.31857 0.1603 0.0
H2239 H 0.38517 0.24533 0.18635 0.0
H2240 H 0.35033 0.27939 0.24441 0.0
H2241 H 0.38485 0.27476 0.2224 0.0
H2242 H 0.35222 0.30649 0.1616 0.0
H2243 H 0.31781 0.31144 0.18381 0.0
C2244 C 0.41885 0.29266 0.14671 0.0
C2245 C 0.42411 0.26851 0.14711 0.0
C2246 C 0.40158 0.29983 0.16073 0.0
C2247 C 0.38953 0.28303 0.17547 0.0
C2248 C 0.39461 0.25886 0.17559 0.0
C2249 C 0.41165 0.25168 0.16157 0.0
C2250 C 0.35081 0.28584 0.22655 0.0
C2251 C 0.33141 0.2955 0.21563 0.0
C2252 C 0.37046 0.28309 0.21392 0.0
C2253 C 0.37097 0.28995 0.19019 0.0
C2254 C 0.3523 0.30115 0.1799 0.0
C2255 C 0.3326 0.30386 0.19254 0.0
H2256 H 0.62997 0.50343 0.36561 0.0
H2257 H 0.55986 0.47026 0.32625 0.0
H2258 H 0.61144 0.50258 0.40357 0.0
H2259 H 0.54149 0.4688 0.36409 0.0
H2260 H 0.52002 0.46543 0.44298 0.0
H2261 H 0.5426 0.45392 0.4096 0.0
H2262 H 0.57861 0.53107 0.41096 0.0
H2263 H 0.55587 0.54261 0.44334 0.0
C2264 C 0.61091 0.49482 0.36523 0.0
C2265 C 0.59632 0.48686 0.34311 0.0
C2266 C 0.60026 0.4945 0.38687 0.0
C2267 C 0.575 0.48576 0.38668 0.0
C2268 C 0.56099 0.47544 0.36478 0.0
C2269 C 0.57151 0.47626 0.34315 0.0
C2270 C 0.53272 0.47984 0.43602 0.0
C2271 C 0.53581 0.50497 0.44543 0.0
C2272 C 0.54571 0.47326 0.41711 0.0
C2273 C 0.56258 0.49158 0.40799 0.0
C2274 C 0.56603 0.51651 0.41789 0.0
C2275 C 0.55269 0.52315 0.43619 0.0
H2276 H 0.23343 0.88076 0.10008 0.0
H2277 H 0.20143 0.80712 0.0658 0.0
H2278 H 0.23674 0.8637 0.13953 0.0
H2279 H 0.20429 0.79006 0.105 0.0
H2280 H 0.19801 0.76941 0.18186 0.0
H2281 H 0.18971 0.7903 0.14567 0.0
H2282 H 0.26275 0.8346 0.1579 0.0
H2283 H 0.27126 0.81306 0.19394 0.0
C2284 C 0.22614 0.86113 0.10115 0.0
C2285 C 0.2165 0.84538 0.07997 0.0
C2286 C 0.22844 0.85126 0.12366 0.0
C2287 C 0.2209 0.82545 0.12549 0.0
C2288 C 0.21005 0.81003 0.1044 0.0
C2289 C 0.20819 0.81982 0.08192 0.0
C2290 C 0.21232 0.78367 0.17691 0.0
C2291 C 0.23526 0.7897 0.19096 0.0
C2292 C 0.20753 0.79566 0.15612 0.0
C2293 C 0.2255 0.81421 0.14881 0.0
C2294 C 0.24834 0.82068 0.16317 0.0
C2295 C 0.25323 0.8084 0.18389 0.0
H2296 H 0.98747 0.58829 0.80685 0.0
H2297 H 0.91459 0.58164 0.82684 0.0
H2298 H 0.00326 0.58566 0.84864 0.0
H2299 H 0.93004 0.57781 0.86863 0.0
H2300 H 0.96479 0.58047 0.94564 0.0
H2301 H 0.95223 0.59292 0.90612 0.0
H2302 H 0.00464 0.55507 0.87527 0.0
H2303 H 0.01783 0.5435 0.91513 0.0
C2304 C 0.97488 0.58687 0.82036 0.0
C2305 C 0.94978 0.5854 0.81349 0.0
C2306 C 0.98387 0.58488 0.84435 0.0
C2307 C 0.968 0.58087 0.86225 0.0
C2308 C 0.94303 0.58103 0.85562 0.0
C2309 C 0.93408 0.5834 0.83158 0.0
C2310 C 0.97386 0.57501 0.93047 0.0
C2311 C 0.9924 0.56093 0.93369 0.0
C2312 C 0.96647 0.58204 0.90763 0.0
C2313 C 0.97717 0.57501 0.88712 0.0
C2314 C 0.99612 0.56134 0.8905 0.0
C2315 C 0.0037 0.55454 0.91345 0.0
H2316 H 0.26182 0.24545 0.53179 0.0
H2317 H 0.28029 0.17673 0.55468 0.0
H2318 H 0.26706 0.26298 0.574 0.0
H2319 H 0.28501 0.19423 0.59683 0.0
H2320 H 0.23628 0.22054 0.65604 0.0
H2321 H 0.24406 0.20641 0.61561 0.0
H2322 H 0.30113 0.27155 0.61654 0.0
H2323 H 0.29385 0.28547 0.65761 0.0
C2324 C 0.2675 0.23433 0.54579 0.0
C2325 C 0.27024 0.2096 0.54008 0.0
C2326 C 0.27068 0.24443 0.56983 0.0
C2327 C 0.27626 0.22978 0.58838 0.0
C2328 C 0.2807 0.20575 0.58264 0.0
C2329 C 0.27796 0.1958 0.5586 0.0
C2330 C 0.25053 0.23179 0.64765 0.0
C2331 C 0.2644 0.2541 0.65968 0.0
C2332 C 0.25512 0.2236 0.62472 0.0
C2333 C 0.27333 0.23784 0.61334 0.0
C2334 C 0.28715 0.26028 0.62523 0.0
C2335 C 0.28292 0.26822 0.6485 0.0
H2336 H 0.62786 0.47545 0.20353 0.0
H2337 H 0.55519 0.48439 0.21605 0.0
H2338 H 0.61411 0.46597 0.16017 0.0
H2339 H 0.54152 0.47487 0.17306 0.0
H2340 H 0.52 0.45358 0.09457 0.0
H2341 H 0.53498 0.4449 0.1353 0.0
H2342 H 0.6023 0.49721 0.13233 0.0
H2343 H 0.58733 0.5059 0.092 0.0
C2344 C 0.60882 0.47465 0.19713 0.0
C2345 C 0.59267 0.48107 0.21303 0.0
C2346 C 0.60099 0.4693 0.17235 0.0
C2347 C 0.5768 0.46989 0.16324 0.0
C2348 C 0.5602 0.47408 0.17952 0.0
C2349 C 0.56809 0.47977 0.20414 0.0
C2350 C 0.53819 0.46274 0.1025 0.0
C2351 C 0.5524 0.48069 0.09044 0.0
C2352 C 0.54675 0.45779 0.12573 0.0
C2353 C 0.56976 0.47045 0.137 0.0
C2354 C 0.58462 0.48695 0.12405 0.0
C2355 C 0.57596 0.49211 0.10105 0.0
H2356 H 0.23442 0.80589 0.95485 0.0
H2357 H 0.21102 0.87113 0.92919 0.0
H2358 H 0.2404 0.79179 0.91402 0.0
H2359 H 0.21742 0.85712 0.88789 0.0
H2360 H 0.2174 0.81381 0.81288 0.0
H2361 H 0.20597 0.8262 0.85238 0.0
H2362 H 0.27007 0.80434 0.88706 0.0
H2363 H 0.28128 0.79164 0.84768 0.0
C2364 C 0.23014 0.81707 0.94036 0.0
C2365 C 0.22228 0.83972 0.94541 0.0
C2366 C 0.23388 0.8091 0.91689 0.0
C2367 C 0.23002 0.82354 0.89757 0.0
C2368 C 0.22063 0.84546 0.90226 0.0
C2369 C 0.21679 0.85346 0.92594 0.0
C2370 C 0.229 0.81144 0.82893 0.0
C2371 C 0.2502 0.8014 0.82695 0.0
C2372 C 0.2225 0.81878 0.85165 0.0
C2373 C 0.2369 0.81614 0.8731 0.0
C2374 C 0.25818 0.80625 0.87106 0.0
C2375 C 0.26475 0.79905 0.84837 0.0
H2376 H 0.93243 0.59867 0.66844 0.0
H2377 H 0.95134 0.52718 0.68084 0.0
H2378 H 0.94947 0.59699 0.62944 0.0
H2379 H 0.96831 0.52581 0.64309 0.0
H2380 H 0.97871 0.5151 0.5657 0.0
H2381 H 0.95689 0.51953 0.60078 0.0
H2382 H 0.98858 0.59842 0.61149 0.0
H2383 H 0.00962 0.59402 0.57544 0.0
C2384 C 0.94006 0.58265 0.66295 0.0
C2385 C 0.94036 0.56311 0.67802 0.0
C2386 C 0.94997 0.5817 0.64064 0.0
C2387 C 0.96012 0.56108 0.6328 0.0
C2388 C 0.96025 0.54174 0.64797 0.0
C2389 C 0.95059 0.5427 0.66999 0.0
C2390 C 0.98063 0.53349 0.57518 0.0
C2391 C 0.99582 0.55419 0.56761 0.0
C2392 C 0.96833 0.53605 0.59558 0.0
C2393 C 0.97106 0.55935 0.60934 0.0
C2394 C 0.98581 0.58023 0.60137 0.0
C2395 C -0.00193 0.57766 0.58081 0.0
H2396 H 0.27109 0.16566 0.39067 0.0
H2397 H 0.30153 0.22994 0.44139 0.0
H2398 H 0.28154 0.19052 0.35714 0.0
H2399 H 0.31196 0.25484 0.40805 0.0
H2400 H 0.26337 0.28624 0.34579 0.0
H2401 H 0.27539 0.26473 0.38044 0.0
H2402 H 0.3133 0.22094 0.33553 0.0
H2403 H 0.30176 0.24297 0.30088 0.0
C2404 C 0.28126 0.18468 0.39462 0.0
C2405 C 0.28563 0.19601 0.41839 0.0
C2406 C 0.28719 0.19894 0.37551 0.0
C2407 C 0.29725 0.22465 0.38012 0.0
C2408 C 0.30411 0.2351 0.40409 0.0
C2409 C 0.29828 0.22085 0.42311 0.0
C2410 C 0.27501 0.27269 0.34356 0.0
C2411 C 0.28168 0.26629 0.32079 0.0
C2412 C 0.28198 0.26044 0.36336 0.0
C2413 C 0.2953 0.24121 0.36058 0.0
C2414 C 0.30316 0.23578 0.3381 0.0
C2415 C 0.29666 0.24849 0.31838 0.0
H2416 H 0.3606 0.62968 0.47006 0.0
H2417 H 0.36664 0.62482 0.54714 0.0
H2418 H 0.39123 0.60315 0.46671 0.0
H2419 H 0.39719 0.59908 0.54392 0.0
H2420 H 0.42782 0.52966 0.5291 0.0
H2421 H 0.39912 0.55765 0.53001 0.0
H2422 H 0.43439 0.59877 0.47601 0.0
H2423 H 0.46309 0.56978 0.47467 0.0
C2424 C 0.36849 0.62313 0.4863 0.0
C2425 C 0.36079 0.62933 0.50885 0.0
C2426 C 0.38622 0.60799 0.48441 0.0
C2427 C 0.39668 0.59854 0.50499 0.0
C2428 C 0.38932 0.60536 0.52751 0.0
C2429 C 0.37174 0.62037 0.52939 0.0
C2430 C 0.42958 0.54461 0.51732 0.0
C2431 C 0.44807 0.54748 0.50196 0.0
C2432 C 0.41311 0.56094 0.518 0.0
C2433 C 0.41438 0.5809 0.50333 0.0
C2434 C 0.43269 0.58366 0.48758 0.0
C2435 C 0.44937 0.56718 0.48696 0.0
H2436 H 0.83758 0.90771 0.57734 0.0
H2437 H 0.80259 0.96106 0.54097 0.0
H2438 H 0.87723 0.93163 0.57219 0.0
H2439 H 0.84267 0.98574 0.53655 0.0
H2440 H 0.91398 -0.00323 0.49984 0.0
H2441 H 0.87395 0.98063 0.51163 0.0
H2442 H 0.90776 0.96802 0.58154 0.0
H2443 H 0.94788 0.98331 0.56938 0.0
C2444 C 0.83834 0.92494 0.56876 0.0
C2445 C 0.81685 0.93227 0.55927 0.0
C2446 C 0.86121 0.93881 0.56594 0.0
C2447 C 0.86325 0.96052 0.55368 0.0
C2448 C 0.84176 0.96884 0.54566 0.0
C2449 C 0.81878 0.95485 0.54843 0.0
C2450 C 0.91288 0.99072 0.5178 0.0
C2451 C 0.93417 0.99105 0.53356 0.0
C2452 C 0.88986 0.98167 0.52467 0.0
C2453 C 0.88754 0.97292 0.54755 0.0
C2454 C 0.90884 0.97418 0.56363 0.0
C2455 C 0.93187 0.98299 0.55667 0.0
H2456 H 0.81736 0.09961 0.22651 0.0
H2457 H 0.87424 0.14662 0.27651 0.0
H2458 H 0.79228 0.13142 0.22932 0.0
H2459 H 0.84892 0.17805 0.27999 0.0
H2460 H 0.80819 0.24056 0.25971 0.0
H2461 H 0.83343 0.20875 0.25873 0.0
H2462 H 0.76866 0.15097 0.25466 0.0
H2463 H 0.74355 0.1829 0.25495 0.0
C2464 C 0.82443 0.11663 0.23829 0.0
C2465 C 0.84787 0.12053 0.25121 0.0
C2466 C 0.80997 0.13487 0.24004 0.0
C2467 C 0.81847 0.15746 0.25492 0.0
C2468 C 0.84184 0.16116 0.26804 0.0
C2469 C 0.85634 0.14301 0.26615 0.0
C2470 C 0.79943 0.22109 0.25896 0.0
C2471 C 0.77392 0.21423 0.25755 0.0
C2472 C 0.81389 0.20277 0.25839 0.0
C2473 C 0.80317 0.17712 0.25649 0.0
C2474 C 0.77762 0.17042 0.25565 0.0
C2475 C 0.76319 0.18874 0.25605 0.0
H2476 H 0.74194 0.1109 0.01029 0.0
H2477 H 0.70748 0.16126 0.969 0.0
H2478 H 0.70176 0.08379 0.01081 0.0
H2479 H 0.66788 0.13462 0.96955 0.0
H2480 H 0.60065 0.07548 0.95962 0.0
H2481 H 0.64281 0.09374 0.95491 0.0
H2482 H 0.66408 0.08801 0.03052 0.0
H2483 H 0.62179 0.06935 0.03511 0.0
C2484 C 0.7259 0.11588 0.00094 0.0
C2485 C 0.72783 0.13822 0.98968 0.0
C2486 C 0.70292 0.10053 0.00141 0.0
C2487 C 0.6816 0.10707 0.99026 0.0
C2488 C 0.68387 0.12882 0.97808 0.0
C2489 C 0.70661 0.1442 0.97789 0.0
C2490 C 0.61438 0.07789 0.97518 0.0
C2491 C 0.60792 0.0713 -0.00221 0.0
C2492 C 0.63853 0.08837 0.97249 0.0
C2493 C 0.6568 0.09252 0.99238 0.0
C2494 C 0.65051 0.08487 0.0148 0.0
C2495 C 0.62627 0.07438 0.01748 0.0
H2496 H 0.12634 0.40978 0.27032 0.0
H2497 H 0.19259 0.46027 0.26001 0.0
H2498 H 0.1489 0.37557 0.27275 0.0
H2499 H 0.2148 0.42631 0.26166 0.0
H2500 H 0.25599 0.36732 0.28285 0.0
H2501 H 0.23172 0.39989 0.28652 0.0
H2502 H 0.16842 0.34831 0.24988 0.0
H2503 H 0.19275 0.31578 0.24712 0.0
C2504 C 0.14567 0.41361 0.26849 0.0
C2505 C 0.15756 0.43791 0.265 0.0
C2506 C 0.15865 0.39392 0.26979 0.0
C2507 C 0.18389 0.39798 0.26759 0.0
C2508 C 0.19561 0.42233 0.26403 0.0
C2509 C 0.18272 0.44191 0.26284 0.0
C2510 C 0.23671 0.36284 0.27622 0.0
C2511 C 0.22612 0.33881 0.26528 0.0
C2512 C 0.22279 0.38161 0.27797 0.0
C2513 C 0.19797 0.37704 0.26826 0.0
C2514 C 0.18727 0.35264 0.25792 0.0
C2515 C 0.20121 0.33383 0.25641 0.0
H2516 H 0.19791 0.44618 0.96793 0.0
H2517 H 0.19711 0.46206 0.04476 0.0
H2518 H 0.16551 0.46974 0.95988 0.0
H2519 H 0.16476 0.48578 0.03662 0.0
H2520 H 0.12026 0.54358 0.01306 0.0
H2521 H 0.15667 0.52494 0.01791 0.0
H2522 H 0.12086 0.4628 0.96653 0.0
H2523 H 0.0844 0.48132 0.96187 0.0
C2524 C 0.19102 0.45491 0.98312 0.0
C2525 C 0.20006 0.45214 0.00702 0.0
C2526 C 0.17238 0.46832 0.97847 0.0
C2527 C 0.16256 0.47959 -0.0024 0.0
C2528 C 0.17211 0.4775 0.02149 0.0
C2529 C 0.19055 0.46379 0.02616 0.0
C2530 C 0.12037 0.5262 0.00245 0.0
C2531 C 0.09953 0.51389 0.98706 0.0
C2532 C 0.14113 0.51543 0.00539 0.0
C2533 C 0.14156 0.49232 -0.00726 0.0
C2534 C 0.12114 0.48069 0.9764 0.0
C2535 C 0.10027 0.49129 0.97372 0.0
H2536 H 0.81692 0.99071 0.2464 0.0
H2537 H 0.85662 0.95275 0.1982 0.0
H2538 H 0.79035 0.9506 0.25071 0.0
H2539 H 0.83064 0.91305 0.20271 0.0
H2540 H 0.77456 0.84472 0.20425 0.0
H2541 H 0.79069 0.88706 0.19513 0.0
H2542 H 0.796 0.91324 0.27074 0.0
H2543 H 0.7793 0.87096 0.27985 0.0
C2544 C 0.81961 0.97394 0.2363 0.0
C2545 C 0.83894 0.97489 0.22205 0.0
C2546 C 0.80457 0.95093 0.23896 0.0
C2547 C 0.80844 0.92852 0.2272 0.0
C2548 C 0.82688 0.92985 0.21186 0.0
C2549 C 0.84192 0.95268 0.20936 0.0
C2550 C 0.77886 0.85952 0.21894 0.0
C2551 C 0.77589 0.85428 0.24285 0.0
C2552 C 0.78819 0.88383 0.21369 0.0
C2553 C 0.79492 0.90357 0.23222 0.0
C2554 C 0.79082 0.89858 0.25597 0.0
C2555 C 0.78139 0.87424 0.26122 0.0
H2556 H 0.63652 0.06848 0.72049 0.0
H2557 H 0.66941 0.0507 0.78861 0.0
H2558 H 0.66903 0.10493 0.72114 0.0
H2559 H 0.70211 0.08784 0.78959 0.0
H2560 H 0.71999 0.1781 0.79477 0.0
H2561 H 0.69921 0.1345 0.79425 0.0
H2562 H 0.71428 0.12013 0.7208 0.0
H2563 H 0.73509 0.16371 0.72136 0.0
C2564 C 0.65114 0.0721 0.73532 0.0
C2565 C 0.65056 0.05684 0.75447 0.0
C2566 C 0.66981 0.09292 0.73567 0.0
C2567 C 0.6881 0.09929 0.75544 0.0
C2568 C 0.6882 0.08336 0.77415 0.0
C2569 C 0.66967 0.06207 0.77352 0.0
C2570 C 0.71931 0.16546 0.77872 0.0
C2571 C 0.72885 0.1743 0.75801 0.0
C2572 C 0.70758 0.14047 0.77848 0.0
C2573 C 0.705 0.12394 0.75743 0.0
C2574 C 0.71586 0.13249 0.73722 0.0
C2575 C 0.72778 0.1574 0.73754 0.0
loop_
_geom_bond_atom_site_label_1
_geom_bond_atom_site_label_2
_geom_bond_distance
_geom_bond_site_symmetry_2
_ccdc_geom_bond_type
Zn0 O3 2.031 . S
Zn0 O5 2.049 . S
Zn0 O10 2.067 . S
Zn1 O2 1.962 . S
Zn1 O4 1.986 . S
Zn1 O6 1.996 . S
Zn1 O9 1.943 1_455 S
O2 Zn1 1.962 . S
O2 C7 1.254 . S
O3 Zn0 2.031 . S
O3 C7 1.269 1_655 S
O4 Zn1 1.986 . S
O4 C11 1.262 . S
O5 Zn0 2.049 . S
O5 C13 1.260 1_655 S
O6 Zn1 1.996 . S
O6 C13 1.257 . S
C7 O2 1.254 . S
C7 O3 1.269 1_455 S
C8 O9 1.249 . S
C8 O10 1.270 . S
O9 Zn1 1.943 1_655 S
O9 C8 1.249 . S
O10 Zn0 2.067 . S
O10 C8 1.270 . S
C11 O4 1.262 . S
C11 O12 1.232 . S
O12 C11 1.232 . S
C13 O5 1.260 1_455 S
C13 O6 1.257 . S
Zn14 O17 2.031 1_455 S
Zn14 O19 2.049 . S
Zn14 O24 2.067 . S
Zn15 O16 1.958 1_455 S
Zn15 O18 1.987 . S
Zn15 O20 1.999 . S
Zn15 O23 1.944 1_455 S
O16 Zn15 1.958 1_655 S
O16 C21 1.254 . S
O17 Zn14 2.031 1_655 S
O17 C21 1.269 . S
O18 Zn15 1.987 . S
O18 C25 1.262 . S
O19 Zn14 2.049 . S
O19 C27 1.260 . S
O20 Zn15 1.999 . S
O20 C27 1.257 . S
C21 O16 1.254 . S
C21 O17 1.269 . S
C22 O23 1.249 . S
C22 O24 1.270 1_655 S
O23 Zn15 1.944 1_655 S
O23 C22 1.249 . S
O24 Zn14 2.067 . S
O24 C22 1.270 1_455 S
C25 O18 1.262 . S
C25 O26 1.232 1_455 S
O26 C25 1.232 1_655 S
C27 O19 1.260 . S
C27 O20 1.257 . S
Zn28 O31 2.031 . S
Zn28 O33 2.049 . S
Zn28 O38 2.067 . S
Zn29 O30 1.962 . S
Zn29 O32 1.986 . S
Zn29 O34 1.996 . S
Zn29 O37 1.943 . S
O30 Zn29 1.962 . S
O30 C35 1.254 . S
O31 Zn28 2.031 . S
O31 C35 1.269 . S
O32 Zn29 1.986 . S
O32 C39 1.262 . S
O33 Zn28 2.049 . S
O33 C41 1.260 . S
O34 Zn29 1.996 . S
O34 C41 1.257 . S
C35 O30 1.254 . S
C35 O31 1.269 . S
C36 O37 1.249 . S
C36 O38 1.270 . S
O37 Zn29 1.943 . S
O37 C36 1.249 . S
O38 Zn28 2.067 . S
O38 C36 1.270 . S
C39 O32 1.262 . S
C39 O40 1.232 . S
O40 C39 1.232 . S
C41 O33 1.260 . S
C41 O34 1.257 . S
Zn42 O45 2.031 . S
Zn42 O47 2.049 . S
Zn42 O52 2.067 . S
Zn43 O44 1.962 . S
Zn43 O46 1.986 . S
Zn43 O48 1.996 . S
Zn43 O51 1.943 . S
O44 Zn43 1.962 . S
O44 C49 1.254 . S
O45 Zn42 2.031 . S
O45 C49 1.269 . S
O46 Zn43 1.986 . S
O46 C53 1.262 . S
O47 Zn42 2.049 . S
O47 C55 1.260 . S
O48 Zn43 1.996 . S
O48 C55 1.257 . S
C49 O44 1.254 . S
C49 O45 1.269 . S
C50 O51 1.249 . S
C50 O52 1.270 . S
O51 Zn43 1.943 . S
O51 C50 1.249 . S
O52 Zn42 2.067 . S
O52 C50 1.270 . S
C53 O46 1.262 . S
C53 O54 1.232 . S
O54 C53 1.232 . S
C55 O47 1.260 . S
C55 O48 1.257 . S
Zn56 O59 2.031 . S
Zn56 O61 2.049 . S
Zn56 O66 2.067 . S
Zn57 O58 1.962 . S
Zn57 O60 1.986 . S
Zn57 O62 1.982 1_655 S
Zn57 O65 1.943 1_655 S
O58 Zn57 1.962 . S
O58 C63 1.254 1_655 S
O59 Zn56 2.031 . S
O59 C63 1.269 . S
O60 Zn57 1.986 . S
O60 C67 1.262 . S
O61 Zn56 2.049 . S
O61 C69 1.260 . S
O62 Zn57 1.982 1_455 S
O62 C69 1.283 . S
C63 O58 1.254 1_455 S
C63 O59 1.269 . S
C64 O65 1.249 . S
C64 O66 1.270 . S
O65 Zn57 1.943 1_455 S
O65 C64 1.249 . S
O66 Zn56 2.067 . S
O66 C64 1.270 . S
C67 O60 1.262 . S
C67 O68 1.232 . S
O68 C67 1.232 . S
C69 O61 1.260 . S
C69 O62 1.283 . S
Zn70 O73 2.031 . S
Zn70 O75 2.049 . S
Zn70 O80 2.067 . S
Zn71 O72 1.962 . S
Zn71 O74 1.986 . S
Zn71 O76 1.996 . S
Zn71 O79 1.943 . S
O72 Zn71 1.962 . S
O72 C77 1.254 . S
O73 Zn70 2.031 . S
O73 C77 1.269 . S
O74 Zn71 1.986 . S
O74 C81 1.262 . S
O75 Zn70 2.049 . S
O75 C83 1.260 . S
O76 Zn71 1.996 . S
O76 C83 1.257 . S
C77 O72 1.254 . S
C77 O73 1.269 . S
C78 O79 1.249 . S
C78 O80 1.270 . S
O79 Zn71 1.943 . S
O79 C78 1.249 . S
O80 Zn70 2.067 . S
O80 C78 1.270 . S
C81 O74 1.262 . S
C81 O82 1.232 . S
O82 C81 1.232 . S
C83 O75 1.260 . S
C83 O76 1.257 . S
Zn84 O87 2.031 . S
Zn84 O89 2.049 . S
Zn84 O94 2.067 . S
Zn85 O86 1.962 . S
Zn85 O88 1.986 . S
Zn85 O90 1.996 . S
Zn85 O93 1.943 . S
O86 Zn85 1.962 . S
O86 C91 1.254 . S
O87 Zn84 2.031 . S
O87 C91 1.269 . S
O88 Zn85 1.986 . S
O88 C95 1.262 . S
O89 Zn84 2.049 . S
O89 C97 1.260 . S
O90 Zn85 1.996 . S
O90 C97 1.257 . S
C91 O86 1.254 . S
C91 O87 1.269 . S
C92 O93 1.249 . S
C92 O94 1.270 . S
O93 Zn85 1.943 . S
O93 C92 1.249 . S
O94 Zn84 2.067 . S
O94 C92 1.270 . S
C95 O88 1.262 . S
C95 O96 1.232 . S
O96 C95 1.232 . S
C97 O89 1.260 . S
C97 O90 1.257 . S
Zn98 O101 2.031 . S
Zn98 O103 2.049 . S
Zn98 O108 2.067 . S
Zn99 O100 1.962 . S
Zn99 O102 1.986 . S
Zn99 O104 1.996 . S
Zn99 O107 1.943 1_455 S
O100 Zn99 1.962 . S
O100 C105 1.254 . S
O101 Zn98 2.031 . S
O101 C105 1.269 1_655 S
O102 Zn99 1.986 . S
O102 C109 1.262 . S
O103 Zn98 2.049 . S
O103 C111 1.260 . S
O104 Zn99 1.996 . S
O104 C111 1.257 1_455 S
C105 O100 1.254 . S
C105 O101 1.269 1_455 S
C106 O107 1.249 . S
C106 O108 1.270 . S
O107 Zn99 1.943 1_655 S
O107 C106 1.249 . S
O108 Zn98 2.067 . S
O108 C106 1.270 . S
C109 O102 1.262 . S
C109 O110 1.232 . S
O110 C109 1.232 . S
C111 O103 1.260 . S
C111 O104 1.257 1_655 S
Zn112 O115 2.031 . S
Zn112 O117 2.049 . S
Zn112 O122 2.067 1_545 S
Zn113 O114 1.962 . S
Zn113 O116 1.986 . S
Zn113 O118 1.996 . S
Zn113 O121 1.943 . S
O114 Zn113 1.962 . S
O114 C119 1.254 . S
O115 Zn112 2.031 . S
O115 C119 1.269 . S
O116 Zn113 1.986 . S
O116 C123 1.262 . S
O117 Zn112 2.049 . S
O117 C125 1.260 . S
O118 Zn113 1.996 . S
O118 C125 1.257 . S
C119 O114 1.254 . S
C119 O115 1.269 . S
C120 O121 1.249 . S
C120 O122 1.270 1_545 S
O121 Zn113 1.943 . S
O121 C120 1.249 . S
O122 Zn112 2.067 1_565 S
O122 C120 1.270 1_565 S
C123 O116 1.262 . S
C123 O124 1.232 . S
O124 C123 1.232 . S
C125 O117 1.260 . S
C125 O118 1.257 . S
Zn126 O129 2.031 . S
Zn126 O131 2.049 . S
Zn126 O136 2.067 . S
Zn127 O128 1.962 . S
Zn127 O130 1.986 . S
Zn127 O132 1.996 . S
Zn127 O135 1.943 . S
O128 Zn127 1.962 . S
O128 C133 1.254 . S
O129 Zn126 2.031 . S
O129 C133 1.269 . S
O130 Zn127 1.986 . S
O130 C137 1.262 . S
O131 Zn126 2.049 . S
O131 C139 1.260 . S
O132 Zn127 1.996 . S
O132 C139 1.257 . S
C133 O128 1.254 . S
C133 O129 1.269 . S
C134 O135 1.249 . S
C134 O136 1.270 . S
O135 Zn127 1.943 . S
O135 C134 1.249 . S
O136 Zn126 2.067 . S
O136 C134 1.270 . S
C137 O130 1.262 . S
C137 O138 1.232 . S
O138 C137 1.232 . S
C139 O131 1.260 . S
C139 O132 1.257 . S
Zn140 O143 2.031 . S
Zn140 O145 2.049 . S
Zn140 O150 2.067 . S
Zn141 O142 1.962 . S
Zn141 O144 1.986 . S
Zn141 O146 1.996 . S
Zn141 O149 1.943 1_565 S
O142 Zn141 1.962 . S
O142 C147 1.254 1_565 S
O143 Zn140 2.031 . S
O143 C147 1.269 . S
O144 Zn141 1.986 . S
O144 C151 1.262 . S
O145 Zn140 2.049 . S
O145 C153 1.260 . S
O146 Zn141 1.996 . S
O146 C153 1.257 1_565 S
C147 O142 1.254 1_545 S
C147 O143 1.269 . S
C148 O149 1.249 . S
C148 O150 1.270 . S
O149 Zn141 1.943 1_545 S
O149 C148 1.249 . S
O150 Zn140 2.067 . S
O150 C148 1.270 . S
C151 O144 1.262 . S
C151 O152 1.232 . S
O152 C151 1.232 . S
C153 O145 1.260 . S
C153 O146 1.257 1_545 S
Zn154 O157 2.019 1_554 S
Zn154 O159 2.049 . S
Zn154 O164 2.067 . S
Zn155 O156 1.962 1_554 S
Zn155 O158 1.986 . S
Zn155 O160 1.996 . S
Zn155 O163 1.943 . S
O156 Zn155 1.962 1_556 S
O156 C161 1.254 . S
O157 Zn154 2.019 1_556 S
O157 C161 1.274 . S
O158 Zn155 1.986 . S
O158 C165 1.262 . S
O159 Zn154 2.049 . S
O159 C167 1.260 . S
O160 Zn155 1.996 . S
O160 C167 1.257 . S
C161 O156 1.254 . S
C161 O157 1.274 . S
C162 O163 1.249 . S
C162 O164 1.270 . S
O163 Zn155 1.943 . S
O163 C162 1.249 . S
O164 Zn154 2.067 . S
O164 C162 1.270 . S
C165 O158 1.262 . S
C165 O166 1.232 . S
O166 C165 1.232 . S
C167 O159 1.260 . S
C167 O160 1.257 . S
Zn168 O171 2.031 1_554 S
Zn168 O173 2.049 . S
Zn168 O178 2.067 . S
Zn169 O170 1.962 1_554 S
Zn169 O172 1.986 . S
Zn169 O174 1.996 . S
Zn169 O177 1.943 . S
O170 Zn169 1.962 1_556 S
O170 C175 1.254 . S
O171 Zn168 2.031 1_556 S
O171 C175 1.269 . S
O172 Zn169 1.986 . S
O172 C179 1.262 . S
O173 Zn168 2.049 . S
O173 C181 1.260 . S
O174 Zn169 1.996 . S
O174 C181 1.257 . S
C175 O170 1.254 . S
C175 O171 1.269 . S
C176 O177 1.249 . S
C176 O178 1.270 . S
O177 Zn169 1.943 . S
O177 C176 1.249 . S
O178 Zn168 2.067 . S
O178 C176 1.270 . S
C179 O172 1.262 . S
C179 O180 1.232 . S
O180 C179 1.232 . S
C181 O173 1.260 . S
C181 O174 1.257 . S
Zn182 O185 2.031 1_554 S
Zn182 O187 2.049 . S
Zn182 O192 2.067 . S
Zn183 O184 1.962 1_554 S
Zn183 O186 1.986 . S
Zn183 O188 1.996 . S
Zn183 O191 1.942 . S
O184 Zn183 1.962 1_556 S
O184 C189 1.254 . S
O185 Zn182 2.031 1_556 S
O185 C189 1.269 . S
O186 Zn183 1.986 . S
O186 C193 1.262 . S
O187 Zn182 2.049 . S
O187 C195 1.260 . S
O188 Zn183 1.996 . S
O188 C195 1.257 . S
C189 O184 1.254 . S
C189 O185 1.269 . S
C190 O191 1.245 . S
C190 O192 1.288 . S
O191 Zn183 1.942 . S
O191 C190 1.245 . S
O192 Zn182 2.067 . S
O192 C190 1.288 . S
C193 O186 1.262 . S
C193 O194 1.232 1_554 S
O194 C193 1.232 1_556 S
C195 O187 1.260 . S
C195 O188 1.257 . S
Zn196 O199 2.031 . S
Zn196 O201 2.049 . S
Zn196 O206 2.067 . S
Zn197 O198 1.962 . S
Zn197 O200 1.986 . S
Zn197 O202 1.996 . S
Zn197 O205 1.943 . S
O198 Zn197 1.962 . S
O198 C203 1.254 . S
O199 Zn196 2.031 . S
O199 C203 1.269 . S
O200 Zn197 1.986 . S
O200 C207 1.262 . S
O201 Zn196 2.049 . S
O201 C209 1.260 . S
O202 Zn197 1.996 . S
O202 C209 1.257 . S
C203 O198 1.254 . S
C203 O199 1.269 . S
C204 O205 1.249 . S
C204 O206 1.270 . S
O205 Zn197 1.943 . S
O205 C204 1.249 . S
O206 Zn196 2.067 . S
O206 C204 1.270 . S
C207 O200 1.262 . S
C207 O208 1.232 . S
O208 C207 1.232 . S
C209 O201 1.260 . S
C209 O202 1.257 . S
Zn210 O213 2.031 . S
Zn210 O215 2.049 . S
Zn210 O220 2.067 . S
Zn211 O212 1.962 . S
Zn211 O214 1.986 . S
Zn211 O216 1.996 . S
Zn211 O219 1.943 . S
O212 Zn211 1.962 . S
O212 C217 1.254 . S
O213 Zn210 2.031 . S
O213 C217 1.269 . S
O214 Zn211 1.986 . S
O214 C221 1.262 . S
O215 Zn210 2.049 . S
O215 C223 1.260 . S
O216 Zn211 1.996 . S
O216 C223 1.257 . S
C217 O212 1.254 . S
C217 O213 1.269 . S
C218 O219 1.249 . S
C218 O220 1.270 . S
O219 Zn211 1.943 . S
O219 C218 1.249 . S
O220 Zn210 2.067 . S
O220 C218 1.270 . S
C221 O214 1.262 . S
C221 O222 1.232 . S
O222 C221 1.232 . S
C223 O215 1.260 . S
C223 O216 1.257 . S
Zn224 O227 2.031 . S
Zn224 O229 2.049 . S
Zn224 O234 2.067 . S
Zn225 O226 1.962 . S
Zn225 O228 1.986 . S
Zn225 O230 1.996 . S
Zn225 O233 1.943 . S
O226 Zn225 1.962 . S
O226 C231 1.254 . S
O227 Zn224 2.031 . S
O227 C231 1.269 . S
O228 Zn225 1.986 . S
O228 C235 1.262 . S
O229 Zn224 2.049 . S
O229 C237 1.260 . S
O230 Zn225 1.996 . S
O230 C237 1.257 . S
C231 O226 1.254 . S
C231 O227 1.269 . S
C232 O233 1.249 . S
C232 O234 1.270 . S
O233 Zn225 1.943 . S
O233 C232 1.249 . S
O234 Zn224 2.067 . S
O234 C232 1.270 . S
C235 O228 1.262 . S
C235 O236 1.232 . S
O236 C235 1.232 . S
C237 O229 1.260 . S
C237 O230 1.257 . S
Zn238 O241 2.031 . S
Zn238 O243 2.049 . S
Zn238 O248 2.067 . S
Zn239 O240 1.962 . S
Zn239 O242 1.986 . S
Zn239 O244 1.996 . S
Zn239 O247 1.943 . S
O240 Zn239 1.962 . S
O240 C245 1.254 . S
O241 Zn238 2.031 . S
O241 C245 1.269 . S
O242 Zn239 1.986 . S
O242 C249 1.262 . S
O243 Zn238 2.049 . S
O243 C251 1.260 . S
O244 Zn239 1.996 . S
O244 C251 1.257 . S
C245 O240 1.254 . S
C245 O241 1.269 . S
C246 O247 1.249 . S
C246 O248 1.270 . S
O247 Zn239 1.943 . S
O247 C246 1.249 . S
O248 Zn238 2.067 . S
O248 C246 1.270 . S
C249 O242 1.262 . S
C249 O250 1.232 . S
O250 C249 1.232 . S
C251 O243 1.260 . S
C251 O244 1.257 . S
Zn252 O255 2.031 . S
Zn252 O257 2.049 . S
Zn252 O262 2.067 . S
Zn253 O254 1.962 . S
Zn253 O256 1.986 . S
Zn253 O258 1.996 . S
Zn253 O261 1.943 . S
O254 Zn253 1.962 . S
O254 C259 1.254 . S
O255 Zn252 2.031 . S
O255 C259 1.269 . S
O256 Zn253 1.986 . S
O256 C263 1.262 . S
O257 Zn252 2.049 . S
O257 C265 1.260 . S
O258 Zn253 1.996 . S
O258 C265 1.257 . S
C259 O254 1.254 . S
C259 O255 1.269 . S
C260 O261 1.249 . S
C260 O262 1.270 . S
O261 Zn253 1.943 . S
O261 C260 1.249 . S
O262 Zn252 2.067 . S
O262 C260 1.270 . S
C263 O256 1.262 . S
C263 O264 1.232 . S
O264 C263 1.232 . S
C265 O257 1.260 . S
C265 O258 1.257 . S
Zn266 O269 2.031 . S
Zn266 O271 2.049 . S
Zn266 O276 2.067 . S
Zn267 O268 1.960 1_545 S
Zn267 O270 1.957 1_545 S
Zn267 O272 2.007 . S
Zn267 O275 1.969 . S
O268 Zn267 1.960 1_565 S
O268 C273 1.254 1_565 S
O269 Zn266 2.031 . S
O269 C273 1.269 . S
O270 Zn267 1.957 1_565 S
O270 C277 1.262 . S
O271 Zn266 2.049 . S
O271 C279 1.260 . S
O272 Zn267 2.007 . S
O272 C279 1.257 . S
C273 O268 1.254 1_545 S
C273 O269 1.269 . S
C274 O275 1.249 . S
C274 O276 1.270 . S
O275 Zn267 1.969 . S
O275 C274 1.249 . S
O276 Zn266 2.067 . S
O276 C274 1.270 . S
C277 O270 1.262 . S
C277 O278 1.232 . S
O278 C277 1.232 . S
C279 O271 1.260 . S
C279 O272 1.257 . S
Zn280 O283 2.031 1_554 S
Zn280 O285 2.049 . S
Zn280 O290 2.067 . S
Zn281 O282 1.934 1_554 S
Zn281 O284 2.000 . S
Zn281 O286 2.018 . S
Zn281 O289 1.952 1_554 S
O282 Zn281 1.934 1_556 S
O282 C287 1.254 . S
O283 Zn280 2.031 1_556 S
O283 C287 1.269 . S
O284 Zn281 2.000 . S
O284 C291 1.296 . S
O285 Zn280 2.049 . S
O285 C293 1.260 . S
O286 Zn281 2.018 . S
O286 C293 1.257 . S
C287 O282 1.254 . S
C287 O283 1.269 . S
C288 O289 1.245 . S
C288 O290 1.267 1_556 S
O289 Zn281 1.952 1_556 S
O289 C288 1.245 . S
O290 Zn280 2.067 . S
O290 C288 1.267 1_554 S
C291 O284 1.296 . S
C291 O292 1.193 1_554 S
O292 C291 1.193 1_556 S
C293 O285 1.260 . S
C293 O286 1.257 . S
Zn294 O297 2.031 . S
Zn294 O299 2.049 . S
Zn294 O304 2.067 . S
Zn295 O296 1.962 . S
Zn295 O298 1.986 . S
Zn295 O300 1.996 . S
Zn295 O303 1.943 . S
O296 Zn295 1.962 . S
O296 C301 1.254 . S
O297 Zn294 2.031 . S
O297 C301 1.269 . S
O298 Zn295 1.986 . S
O298 C305 1.262 . S
O299 Zn294 2.049 . S
O299 C307 1.260 . S
O300 Zn295 1.996 . S
O300 C307 1.257 . S
C301 O296 1.254 . S
C301 O297 1.269 . S
C302 O303 1.249 . S
C302 O304 1.270 . S
O303 Zn295 1.943 . S
O303 C302 1.249 . S
O304 Zn294 2.067 . S
O304 C302 1.270 . S
C305 O298 1.262 . S
C305 O306 1.232 . S
O306 C305 1.232 . S
C307 O299 1.260 . S
C307 O300 1.257 . S
Zn308 O311 2.031 . S
Zn308 O313 2.049 . S
Zn308 O318 2.067 . S
Zn309 O310 1.962 . S
Zn309 O312 1.986 . S
Zn309 O314 1.996 . S
Zn309 O317 1.943 . S
O310 Zn309 1.962 . S
O310 C315 1.254 . S
O311 Zn308 2.031 . S
O311 C315 1.269 . S
O312 Zn309 1.986 . S
O312 C319 1.262 . S
O313 Zn308 2.049 . S
O313 C321 1.260 . S
O314 Zn309 1.996 . S
O314 C321 1.257 . S
C315 O310 1.254 . S
C315 O311 1.269 . S
C316 O317 1.249 . S
C316 O318 1.270 . S
O317 Zn309 1.943 . S
O317 C316 1.249 . S
O318 Zn308 2.067 . S
O318 C316 1.270 . S
C319 O312 1.262 . S
C319 O320 1.232 . S
O320 C319 1.232 . S
C321 O313 1.260 . S
C321 O314 1.257 . S
Zn322 O325 2.031 . S
Zn322 O327 2.049 . S
Zn322 O332 2.067 . S
Zn323 O324 1.962 . S
Zn323 O326 1.986 . S
Zn323 O328 1.996 . S
Zn323 O331 1.943 . S
O324 Zn323 1.962 . S
O324 C329 1.254 . S
O325 Zn322 2.031 . S
O325 C329 1.269 . S
O326 Zn323 1.986 . S
O326 C333 1.262 . S
O327 Zn322 2.049 . S
O327 C335 1.260 . S
O328 Zn323 1.996 . S
O328 C335 1.257 . S
C329 O324 1.254 . S
C329 O325 1.269 . S
C330 O331 1.249 . S
C330 O332 1.270 . S
O331 Zn323 1.943 . S
O331 C330 1.249 . S
O332 Zn322 2.067 . S
O332 C330 1.270 . S
C333 O326 1.262 . S
C333 O334 1.232 . S
O334 C333 1.232 . S
C335 O327 1.260 . S
C335 O328 1.257 . S
Tb336 O339 2.453 . S
Tb336 O340 2.596 . S
Tb336 O341 2.374 1_554 S
Tb336 O349 2.343 1_455 S
Tb336 O351 2.353 . S
Tb336 O353 2.427 . S
Tb336 O354 2.513 1_554 S
C337 O341 1.251 . S
C337 O343 1.263 . S
Tb338 O340 2.343 1_655 S
Tb338 O343 2.353 1_654 S
Tb338 O346 2.427 1_645 S
Tb338 O347 2.513 1_645 S
Tb338 O348 2.448 1_554 S
Tb338 O349 2.596 . S
Tb338 O350 2.374 . S
O339 Tb336 2.453 . S
O339 C355 1.245 . S
O340 Tb336 2.596 . S
O340 Tb338 2.343 1_455 S
O340 C355 1.259 . S
O341 Tb336 2.374 1_556 S
O341 C337 1.251 . S
C342 O346 1.275 . S
C342 O347 1.246 . S
O343 C337 1.263 . S
O343 Tb338 2.353 1_456 S
C344 O348 1.243 1_554 S
C344 O349 1.259 . S
C345 O350 1.250 1_455 S
C345 O351 1.263 . S
O346 Tb338 2.427 1_465 S
O346 C342 1.275 . S
O347 Tb338 2.513 1_465 S
O347 C342 1.246 . S
O348 Tb338 2.448 1_556 S
O348 C344 1.243 1_556 S
O349 Tb336 2.343 1_655 S
O349 Tb338 2.596 . S
O349 C344 1.259 . S
O350 Tb338 2.374 . S
O350 C345 1.250 1_655 S
O351 Tb336 2.353 . S
O351 C345 1.263 . S
C352 O353 1.275 . S
C352 O354 1.246 1_554 S
O353 Tb336 2.427 . S
O353 C352 1.275 . S
O354 Tb336 2.513 1_556 S
O354 C352 1.246 1_556 S
C355 O339 1.245 . S
C355 O340 1.259 . S
Tb356 O359 2.453 . S
Tb356 O360 2.596 . S
Tb356 O361 2.374 . S
Tb356 O369 2.343 . S
Tb356 O371 2.353 . S
Tb356 O373 2.427 . S
Tb356 O374 2.513 . S
C357 O361 1.251 . S
C357 O363 1.263 . S
Tb358 O360 2.343 . S
Tb358 O363 2.353 . S
Tb358 O366 2.427 . S
Tb358 O367 2.513 . S
Tb358 O368 2.453 . S
Tb358 O369 2.596 . S
Tb358 O370 2.374 . S
O359 Tb356 2.453 . S
O359 C375 1.245 . S
O360 Tb356 2.596 . S
O360 Tb358 2.343 . S
O360 C375 1.259 . S
O361 Tb356 2.374 . S
O361 C357 1.251 . S
C362 O366 1.275 . S
C362 O367 1.246 . S
O363 C357 1.263 . S
O363 Tb358 2.353 . S
C364 O368 1.245 . S
C364 O369 1.259 . S
C365 O370 1.250 . S
C365 O371 1.263 . S
O366 Tb358 2.427 . S
O366 C362 1.275 . S
O367 Tb358 2.513 . S
O367 C362 1.246 . S
O368 Tb358 2.453 . S
O368 C364 1.245 . S
O369 Tb356 2.343 . S
O369 Tb358 2.596 . S
O369 C364 1.259 . S
O370 Tb358 2.374 . S
O370 C365 1.250 . S
O371 Tb356 2.353 . S
O371 C365 1.263 . S
C372 O373 1.275 . S
C372 O374 1.246 . S
O373 Tb356 2.427 . S
O373 C372 1.275 . S
O374 Tb356 2.513 . S
O374 C372 1.246 . S
C375 O359 1.245 . S
C375 O360 1.259 . S
Tb376 O379 2.453 . S
Tb376 O380 2.596 . S
Tb376 O381 2.374 . S
Tb376 O389 2.343 . S
Tb376 O391 2.353 . S
Tb376 O393 2.427 . S
Tb376 O394 2.513 . S
C377 O381 1.251 . S
C377 O383 1.263 . S
Tb378 O380 2.343 . S
Tb378 O383 2.353 . S
Tb378 O386 2.427 . S
Tb378 O387 2.513 . S
Tb378 O388 2.453 1_545 S
Tb378 O389 2.596 . S
Tb378 O390 2.374 . S
O379 Tb376 2.453 . S
O379 C395 1.245 . S
O380 Tb376 2.596 . S
O380 Tb378 2.343 . S
O380 C395 1.259 . S
O381 Tb376 2.374 . S
O381 C377 1.251 . S
C382 O386 1.275 . S
C382 O387 1.246 . S
O383 C377 1.263 . S
O383 Tb378 2.353 . S
C384 O388 1.245 . S
C384 O389 1.259 1_565 S
C385 O390 1.250 . S
C385 O391 1.263 . S
O386 Tb378 2.427 . S
O386 C382 1.275 . S
O387 Tb378 2.513 . S
O387 C382 1.246 . S
O388 Tb378 2.453 1_565 S
O388 C384 1.245 . S
O389 Tb376 2.343 . S
O389 Tb378 2.596 . S
O389 C384 1.259 1_545 S
O390 Tb378 2.374 . S
O390 C385 1.250 . S
O391 Tb376 2.353 . S
O391 C385 1.263 . S
C392 O393 1.272 . S
C392 O394 1.246 . S
O393 Tb376 2.427 . S
O393 C392 1.272 . S
O394 Tb376 2.513 . S
O394 C392 1.246 . S
C395 O379 1.245 . S
C395 O380 1.259 . S
Tb396 O399 2.453 . S
Tb396 O400 2.596 . S
Tb396 O401 2.374 . S
Tb396 O409 2.343 . S
Tb396 O411 2.353 . S
Tb396 O413 2.427 . S
Tb396 O414 2.513 . S
C397 O401 1.251 . S
C397 O403 1.263 . S
Tb398 O400 2.343 . S
Tb398 O403 2.353 . S
Tb398 O406 2.427 . S
Tb398 O407 2.513 . S
Tb398 O408 2.453 . S
Tb398 O409 2.596 . S
Tb398 O410 2.374 . S
O399 Tb396 2.453 . S
O399 C415 1.245 . S
O400 Tb396 2.596 . S
O400 Tb398 2.343 . S
O400 C415 1.259 . S
O401 Tb396 2.374 . S
O401 C397 1.251 . S
C402 O406 1.275 . S
C402 O407 1.246 . S
O403 C397 1.263 . S
O403 Tb398 2.353 . S
C404 O408 1.245 . S
C404 O409 1.259 . S
C405 O410 1.250 . S
C405 O411 1.263 . S
O406 Tb398 2.427 . S
O406 C402 1.275 . S
O407 Tb398 2.513 . S
O407 C402 1.246 . S
O408 Tb398 2.453 . S
O408 C404 1.245 . S
O409 Tb396 2.343 . S
O409 Tb398 2.596 . S
O409 C404 1.259 . S
O410 Tb398 2.374 . S
O410 C405 1.250 . S
O411 Tb396 2.353 . S
O411 C405 1.263 . S
C412 O413 1.275 . S
C412 O414 1.246 . S
O413 Tb396 2.427 . S
O413 C412 1.275 . S
O414 Tb396 2.513 . S
O414 C412 1.246 . S
C415 O399 1.245 . S
C415 O400 1.259 . S
Tb416 O419 2.453 1_545 S
Tb416 O420 2.596 . S
Tb416 O421 2.374 1_455 S
Tb416 O429 2.343 . S
Tb416 O431 2.353 . S
Tb416 O433 2.427 . S
Tb416 O434 2.513 1_455 S
C417 O421 1.251 . S
C417 O423 1.263 . S
Tb418 O420 2.343 . S
Tb418 O423 2.353 1_455 S
Tb418 O426 2.427 . S
Tb418 O427 2.513 . S
Tb418 O428 2.453 . S
Tb418 O429 2.596 . S
Tb418 O430 2.374 . S
O419 Tb416 2.453 1_565 S
O419 C435 1.245 . S
O420 Tb416 2.596 . S
O420 Tb418 2.343 . S
O420 C435 1.259 1_545 S
O421 Tb416 2.374 1_655 S
O421 C417 1.251 . S
C422 O426 1.275 . S
C422 O427 1.246 . S
O423 C417 1.263 . S
O423 Tb418 2.353 1_655 S
C424 O428 1.245 . S
C424 O429 1.259 . S
C425 O430 1.250 . S
C425 O431 1.263 . S
O426 Tb418 2.427 . S
O426 C422 1.275 . S
O427 Tb418 2.513 . S
O427 C422 1.246 . S
O428 Tb418 2.453 . S
O428 C424 1.245 . S
O429 Tb416 2.343 . S
O429 Tb418 2.596 . S
O429 C424 1.259 . S
O430 Tb418 2.374 . S
O430 C425 1.250 . S
O431 Tb416 2.353 . S
O431 C425 1.263 . S
C432 O433 1.275 1_655 S
C432 O434 1.246 . S
O433 Tb416 2.427 . S
O433 C432 1.275 1_455 S
O434 Tb416 2.513 1_655 S
O434 C432 1.246 . S
C435 O419 1.245 . S
C435 O420 1.259 1_565 S
Tb436 O439 2.453 . S
Tb436 O440 2.596 . S
Tb436 O441 2.374 . S
Tb436 O449 2.343 . S
Tb436 O451 2.353 . S
Tb436 O453 2.427 . S
Tb436 O454 2.513 . S
C437 O441 1.251 . S
C437 O443 1.263 . S
Tb438 O440 2.343 . S
Tb438 O443 2.353 . S
Tb438 O446 2.427 . S
Tb438 O447 2.513 . S
Tb438 O448 2.453 . S
Tb438 O449 2.596 . S
Tb438 O450 2.374 . S
O439 Tb436 2.453 . S
O439 C455 1.245 . S
O440 Tb436 2.596 . S
O440 Tb438 2.343 . S
O440 C455 1.259 . S
O441 Tb436 2.374 . S
O441 C437 1.251 . S
C442 O446 1.275 . S
C442 O447 1.246 . S
O443 C437 1.263 . S
O443 Tb438 2.353 . S
C444 O448 1.245 . S
C444 O449 1.259 . S
C445 O450 1.250 . S
C445 O451 1.263 . S
O446 Tb438 2.427 . S
O446 C442 1.275 . S
O447 Tb438 2.513 . S
O447 C442 1.246 . S
O448 Tb438 2.453 . S
O448 C444 1.245 . S
O449 Tb436 2.343 . S
O449 Tb438 2.596 . S
O449 C444 1.259 . S
O450 Tb438 2.374 . S
O450 C445 1.250 . S
O451 Tb436 2.353 . S
O451 C445 1.263 . S
C452 O453 1.275 . S
C452 O454 1.246 . S
O453 Tb436 2.427 . S
O453 C452 1.275 . S
O454 Tb436 2.513 . S
O454 C452 1.246 . S
C455 O439 1.245 . S
C455 O440 1.259 . S
Tb456 O459 2.453 . S
Tb456 O460 2.596 . S
Tb456 O461 2.374 1_545 S
Tb456 O469 2.343 1_556 S
Tb456 O471 2.353 1_556 S
Tb456 O473 2.427 1_556 S
Tb456 O474 2.513 1_546 S
C457 O461 1.251 . S
C457 O463 1.275 1_556 S
Tb458 O460 2.343 1_554 S
Tb458 O463 2.316 1_545 S
Tb458 O466 2.427 . S
Tb458 O467 2.513 . S
Tb458 O468 2.453 . S
Tb458 O469 2.596 . S
Tb458 O470 2.374 . S
O459 Tb456 2.453 . S
O459 C475 1.245 . S
O460 Tb456 2.596 . S
O460 Tb458 2.343 1_556 S
O460 C475 1.259 . S
O461 Tb456 2.374 1_565 S
O461 C457 1.251 . S
C462 O466 1.275 . S
C462 O467 1.246 . S
O463 C457 1.275 1_554 S
O463 Tb458 2.316 1_565 S
C464 O468 1.245 . S
C464 O469 1.259 . S
C465 O470 1.250 . S
C465 O471 1.263 . S
O466 Tb458 2.427 . S
O466 C462 1.275 . S
O467 Tb458 2.513 . S
O467 C462 1.246 . S
O468 Tb458 2.453 . S
O468 C464 1.245 . S
O469 Tb456 2.343 1_554 S
O469 Tb458 2.596 . S
O469 C464 1.259 . S
O470 Tb458 2.374 . S
O470 C465 1.250 . S
O471 Tb456 2.353 1_554 S
O471 C465 1.263 . S
C472 O473 1.275 . S
C472 O474 1.246 1_545 S
O473 Tb456 2.427 1_554 S
O473 C472 1.275 . S
O474 Tb456 2.513 1_564 S
O474 C472 1.246 1_565 S
C475 O459 1.245 . S
C475 O460 1.259 . S
Tb476 O479 2.453 . S
Tb476 O480 2.596 . S
Tb476 O481 2.374 . S
Tb476 O489 2.343 . S
Tb476 O491 2.353 . S
Tb476 O493 2.427 . S
Tb476 O494 2.513 . S
C477 O481 1.251 . S
C477 O483 1.263 . S
Tb478 O480 2.343 . S
Tb478 O483 2.353 . S
Tb478 O486 2.427 . S
Tb478 O487 2.513 . S
Tb478 O488 2.453 . S
Tb478 O489 2.596 . S
Tb478 O490 2.374 . S
O479 Tb476 2.453 . S
O479 C495 1.245 . S
O480 Tb476 2.596 . S
O480 Tb478 2.343 . S
O480 C495 1.259 . S
O481 Tb476 2.374 . S
O481 C477 1.251 . S
C482 O486 1.275 . S
C482 O487 1.246 . S
O483 C477 1.263 . S
O483 Tb478 2.353 . S
C484 O488 1.245 . S
C484 O489 1.259 . S
C485 O490 1.250 . S
C485 O491 1.263 . S
O486 Tb478 2.427 . S
O486 C482 1.275 . S
O487 Tb478 2.513 . S
O487 C482 1.246 . S
O488 Tb478 2.453 . S
O488 C484 1.245 . S
O489 Tb476 2.343 . S
O489 Tb478 2.596 . S
O489 C484 1.259 . S
O490 Tb478 2.374 . S
O490 C485 1.250 . S
O491 Tb476 2.353 . S
O491 C485 1.263 . S
C492 O493 1.275 . S
C492 O494 1.246 . S
O493 Tb476 2.427 . S
O493 C492 1.275 . S
O494 Tb476 2.513 . S
O494 C492 1.246 . S
C495 O479 1.245 . S
C495 O480 1.259 . S
Tb496 O499 2.448 1_556 S
Tb496 O500 2.596 1_556 S
Tb496 O501 2.374 . S
Tb496 O509 2.343 . S
Tb496 O511 2.353 . S
Tb496 O513 2.427 . S
Tb496 O514 2.513 . S
C497 O501 1.251 1_554 S
C497 O503 1.263 . S
Tb498 O500 2.343 . S
Tb498 O503 2.353 . S
Tb498 O506 2.427 . S
Tb498 O507 2.513 . S
Tb498 O508 2.453 . S
Tb498 O509 2.596 1_554 S
Tb498 O510 2.374 . S
O499 Tb496 2.448 1_554 S
O499 C515 1.253 . S
O500 Tb496 2.596 1_554 S
O500 Tb498 2.343 . S
O500 C515 1.259 . S
O501 Tb496 2.374 . S
O501 C497 1.251 1_556 S
C502 O506 1.275 . S
C502 O507 1.246 . S
O503 C497 1.263 . S
O503 Tb498 2.353 . S
C504 O508 1.245 1_556 S
C504 O509 1.259 . S
C505 O510 1.250 . S
C505 O511 1.263 1_554 S
O506 Tb498 2.427 . S
O506 C502 1.275 . S
O507 Tb498 2.513 . S
O507 C502 1.246 . S
O508 Tb498 2.453 . S
O508 C504 1.245 1_554 S
O509 Tb496 2.343 . S
O509 Tb498 2.596 1_556 S
O509 C504 1.259 . S
O510 Tb498 2.374 . S
O510 C505 1.250 . S
O511 Tb496 2.353 . S
O511 C505 1.263 1_556 S
C512 O513 1.275 . S
C512 O514 1.246 . S
O513 Tb496 2.427 . S
O513 C512 1.275 . S
O514 Tb496 2.513 . S
O514 C512 1.246 . S
C515 O499 1.253 . S
C515 O500 1.259 . S
Tb516 O519 2.453 . S
Tb516 O520 2.596 . S
Tb516 O521 2.374 . S
Tb516 O529 2.343 . S
Tb516 O531 2.353 . S
Tb516 O533 2.427 . S
Tb516 O534 2.513 . S
C517 O521 1.251 . S
C517 O523 1.263 . S
Tb518 O520 2.343 . S
Tb518 O523 2.353 . S
Tb518 O526 2.427 . S
Tb518 O527 2.513 . S
Tb518 O528 2.453 . S
Tb518 O529 2.596 . S
Tb518 O530 2.374 . S
O519 Tb516 2.453 . S
O519 C535 1.245 . S
O520 Tb516 2.596 . S
O520 Tb518 2.343 . S
O520 C535 1.259 . S
O521 Tb516 2.374 . S
O521 C517 1.251 . S
C522 O526 1.275 . S
C522 O527 1.246 . S
O523 C517 1.263 . S
O523 Tb518 2.353 . S
C524 O528 1.245 . S
C524 O529 1.259 . S
C525 O530 1.250 . S
C525 O531 1.263 . S
O526 Tb518 2.427 . S
O526 C522 1.275 . S
O527 Tb518 2.513 . S
O527 C522 1.246 . S
O528 Tb518 2.453 . S
O528 C524 1.245 . S
O529 Tb516 2.343 . S
O529 Tb518 2.596 . S
O529 C524 1.259 . S
O530 Tb518 2.374 . S
O530 C525 1.250 . S
O531 Tb516 2.353 . S
O531 C525 1.263 . S
C532 O533 1.275 . S
C532 O534 1.246 . S
O533 Tb516 2.427 . S
O533 C532 1.275 . S
O534 Tb516 2.513 . S
O534 C532 1.246 . S
C535 O519 1.245 . S
C535 O520 1.259 . S
Tb536 O539 2.453 . S
Tb536 O540 2.596 1_655 S
Tb536 O541 2.374 . S
Tb536 O549 2.343 . S
Tb536 O551 2.353 . S
Tb536 O553 2.427 . S
Tb536 O554 2.513 . S
C537 O541 1.251 1_455 S
C537 O543 1.263 . S
Tb538 O540 2.343 . S
Tb538 O543 2.353 . S
Tb538 O546 2.427 . S
Tb538 O547 2.513 . S
Tb538 O548 2.453 . S
Tb538 O549 2.596 1_455 S
Tb538 O550 2.374 . S
O539 Tb536 2.453 . S
O539 C555 1.245 1_655 S
O540 Tb536 2.596 1_455 S
O540 Tb538 2.343 . S
O540 C555 1.259 . S
O541 Tb536 2.374 . S
O541 C537 1.251 1_655 S
C542 O546 1.275 . S
C542 O547 1.246 . S
O543 C537 1.263 . S
O543 Tb538 2.353 . S
C544 O548 1.245 1_655 S
C544 O549 1.259 . S
C545 O550 1.222 1_655 S
C545 O551 1.279 . S
O546 Tb538 2.427 . S
O546 C542 1.275 . S
O547 Tb538 2.513 . S
O547 C542 1.246 . S
O548 Tb538 2.453 . S
O548 C544 1.245 1_455 S
O549 Tb536 2.343 . S
O549 Tb538 2.596 1_655 S
O549 C544 1.259 . S
O550 Tb538 2.374 . S
O550 C545 1.222 1_455 S
O551 Tb536 2.353 . S
O551 C545 1.279 . S
C552 O553 1.275 . S
C552 O554 1.246 . S
O553 Tb536 2.427 . S
O553 C552 1.275 . S
O554 Tb536 2.513 . S
O554 C552 1.246 . S
C555 O539 1.245 1_455 S
C555 O540 1.259 . S
Tb556 O559 2.453 . S
Tb556 O560 2.596 . S
Tb556 O561 2.374 . S
Tb556 O569 2.343 . S
Tb556 O571 2.353 . S
Tb556 O573 2.427 . S
Tb556 O574 2.513 . S
C557 O561 1.251 . S
C557 O563 1.263 . S
Tb558 O560 2.343 . S
Tb558 O563 2.353 . S
Tb558 O566 2.427 . S
Tb558 O567 2.513 . S
Tb558 O568 2.453 . S
Tb558 O569 2.596 . S
Tb558 O570 2.374 . S
O559 Tb556 2.453 . S
O559 C575 1.245 . S
O560 Tb556 2.596 . S
O560 Tb558 2.343 . S
O560 C575 1.259 . S
O561 Tb556 2.374 . S
O561 C557 1.251 . S
C562 O566 1.275 . S
C562 O567 1.246 . S
O563 C557 1.263 . S
O563 Tb558 2.353 . S
C564 O568 1.245 . S
C564 O569 1.259 . S
C565 O570 1.250 . S
C565 O571 1.263 . S
O566 Tb558 2.427 . S
O566 C562 1.275 . S
O567 Tb558 2.513 . S
O567 C562 1.246 . S
O568 Tb558 2.453 . S
O568 C564 1.245 . S
O569 Tb556 2.343 . S
O569 Tb558 2.596 . S
O569 C564 1.259 . S
O570 Tb558 2.374 . S
O570 C565 1.250 . S
O571 Tb556 2.353 . S
O571 C565 1.263 . S
C572 O573 1.275 . S
C572 O574 1.246 . S
O573 Tb556 2.427 . S
O573 C572 1.275 . S
O574 Tb556 2.513 . S
O574 C572 1.246 . S
C575 O559 1.245 . S
C575 O560 1.259 . S
Tb576 O579 2.453 . S
Tb576 O580 2.596 . S
Tb576 O581 2.374 . S
Tb576 O589 2.343 . S
Tb576 O591 2.353 . S
Tb576 O593 2.427 . S
Tb576 O594 2.513 . S
C577 O581 1.251 . S
C577 O583 1.263 . S
Tb578 O580 2.343 . S
Tb578 O583 2.353 . S
Tb578 O586 2.427 . S
Tb578 O587 2.513 . S
Tb578 O588 2.453 . S
Tb578 O589 2.596 . S
Tb578 O590 2.374 . S
O579 Tb576 2.453 . S
O579 C595 1.245 . S
O580 Tb576 2.596 . S
O580 Tb578 2.343 . S
O580 C595 1.259 . S
O581 Tb576 2.374 . S
O581 C577 1.251 . S
C582 O586 1.275 . S
C582 O587 1.246 . S
O583 C577 1.263 . S
O583 Tb578 2.353 . S
C584 O588 1.245 . S
C584 O589 1.259 . S
C585 O590 1.250 . S
C585 O591 1.263 . S
O586 Tb578 2.427 . S
O586 C582 1.275 . S
O587 Tb578 2.513 . S
O587 C582 1.246 . S
O588 Tb578 2.453 . S
O588 C584 1.245 . S
O589 Tb576 2.343 . S
O589 Tb578 2.596 . S
O589 C584 1.259 . S
O590 Tb578 2.374 . S
O590 C585 1.250 . S
O591 Tb576 2.353 . S
O591 C585 1.263 . S
C592 O593 1.275 . S
C592 O594 1.246 . S
O593 Tb576 2.427 . S
O593 C592 1.275 . S
O594 Tb576 2.513 . S
O594 C592 1.246 . S
C595 O579 1.245 . S
C595 O580 1.259 . S
Tb596 O599 2.453 . S
Tb596 O600 2.596 . S
Tb596 O601 2.374 . S
Tb596 O609 2.343 . S
Tb596 O611 2.353 . S
Tb596 O613 2.427 . S
Tb596 O614 2.513 . S
C597 O601 1.251 . S
C597 O603 1.263 . S
Tb598 O600 2.343 . S
Tb598 O603 2.353 . S
Tb598 O606 2.427 . S
Tb598 O607 2.513 . S
Tb598 O608 2.453 . S
Tb598 O609 2.596 . S
Tb598 O610 2.374 . S
O599 Tb596 2.453 . S
O599 C615 1.245 . S
O600 Tb596 2.596 . S
O600 Tb598 2.343 . S
O600 C615 1.259 . S
O601 Tb596 2.374 . S
O601 C597 1.251 . S
C602 O606 1.275 . S
C602 O607 1.246 . S
O603 C597 1.263 . S
O603 Tb598 2.353 . S
C604 O608 1.245 . S
C604 O609 1.259 . S
C605 O610 1.250 . S
C605 O611 1.263 . S
O606 Tb598 2.427 . S
O606 C602 1.275 . S
O607 Tb598 2.513 . S
O607 C602 1.246 . S
O608 Tb598 2.453 . S
O608 C604 1.245 . S
O609 Tb596 2.343 . S
O609 Tb598 2.596 . S
O609 C604 1.259 . S
O610 Tb598 2.374 . S
O610 C605 1.250 . S
O611 Tb596 2.353 . S
O611 C605 1.263 . S
C612 O613 1.275 . S
C612 O614 1.246 . S
O613 Tb596 2.427 . S
O613 C612 1.275 . S
O614 Tb596 2.513 . S
O614 C612 1.246 . S
C615 O599 1.245 . S
C615 O600 1.259 . S
Tb616 O619 2.453 . S
Tb616 O620 2.596 . S
Tb616 O621 2.374 . S
Tb616 O629 2.343 . S
Tb616 O631 2.353 . S
Tb616 O633 2.427 . S
Tb616 O634 2.513 . S
C617 O621 1.251 . S
C617 O623 1.263 . S
Tb618 O620 2.343 . S
Tb618 O623 2.353 . S
Tb618 O626 2.427 . S
Tb618 O627 2.513 . S
Tb618 O628 2.453 . S
Tb618 O629 2.596 . S
Tb618 O630 2.374 . S
O619 Tb616 2.453 . S
O619 C635 1.245 . S
O620 Tb616 2.596 . S
O620 Tb618 2.343 . S
O620 C635 1.259 . S
O621 Tb616 2.374 . S
O621 C617 1.251 . S
C622 O626 1.275 . S
C622 O627 1.246 . S
O623 C617 1.263 . S
O623 Tb618 2.353 . S
C624 O628 1.245 . S
C624 O629 1.259 . S
C625 O630 1.250 . S
C625 O631 1.263 . S
O626 Tb618 2.427 . S
O626 C622 1.275 . S
O627 Tb618 2.513 . S
O627 C622 1.246 . S
O628 Tb618 2.453 . S
O628 C624 1.245 . S
O629 Tb616 2.343 . S
O629 Tb618 2.596 . S
O629 C624 1.259 . S
O630 Tb618 2.374 . S
O630 C625 1.250 . S
O631 Tb616 2.353 . S
O631 C625 1.263 . S
C632 O633 1.275 . S
C632 O634 1.246 . S
O633 Tb616 2.427 . S
O633 C632 1.275 . S
O634 Tb616 2.513 . S
O634 C632 1.246 . S
C635 O619 1.245 . S
C635 O620 1.259 . S
Tb636 O639 2.453 . S
Tb636 O640 2.592 . S
Tb636 O641 2.374 . S
Tb636 O649 2.343 . S
Tb636 O651 2.353 1_554 S
Tb636 O653 2.427 1_554 S
Tb636 O654 2.513 . S
C637 O641 1.251 . S
C637 O643 1.263 1_455 S
Tb638 O640 2.345 1_655 S
Tb638 O643 2.353 . S
Tb638 O646 2.427 . S
Tb638 O647 2.513 . S
Tb638 O648 2.453 . S
Tb638 O649 2.596 1_655 S
Tb638 O650 2.374 1_554 S
O639 Tb636 2.453 . S
O639 C655 1.245 . S
O640 Tb636 2.592 . S
O640 Tb638 2.345 1_455 S
O640 C655 1.258 . S
O641 Tb636 2.374 . S
O641 C637 1.251 . S
C642 O646 1.275 . S
C642 O647 1.246 . S
O643 C637 1.263 1_655 S
O643 Tb638 2.353 . S
C644 O648 1.245 1_556 S
C644 O649 1.259 1_656 S
C645 O650 1.250 . S
C645 O651 1.263 1_655 S
O646 Tb638 2.427 . S
O646 C642 1.275 . S
O647 Tb638 2.513 . S
O647 C642 1.246 . S
O648 Tb638 2.453 . S
O648 C644 1.245 1_554 S
O649 Tb636 2.343 . S
O649 Tb638 2.596 1_455 S
O649 C644 1.259 1_454 S
O650 Tb638 2.374 1_556 S
O650 C645 1.250 . S
O651 Tb636 2.353 1_556 S
O651 C645 1.263 1_455 S
C652 O653 1.291 . S
C652 O654 1.223 1_556 S
O653 Tb636 2.427 1_556 S
O653 C652 1.291 . S
O654 Tb636 2.513 . S
O654 C652 1.223 1_554 S
C655 O639 1.245 . S
C655 O640 1.258 . S
H656 C664 0.950 . S
H657 C669 0.950 . S
H658 C666 0.950 . S
H659 C668 0.950 . S
H660 C670 0.950 . S
H661 C672 0.950 . S
H662 C674 0.950 . S
H663 C675 0.969 . S
C664 H656 0.950 . S
C664 C665 1.386 . S
C664 C666 1.391 . S
C665 C664 1.386 . S
C665 C669 1.393 1_455 S
C666 H658 0.950 . S
C666 C664 1.391 . S
C666 C667 1.400 . S
C667 C666 1.400 . S
C667 C668 1.398 1_455 S
C667 C673 1.491 . S
C668 H659 0.950 . S
C668 C667 1.398 1_655 S
C668 C669 1.391 . S
C669 H657 0.950 . S
C669 C665 1.393 1_655 S
C669 C668 1.391 . S
C670 H660 0.950 . S
C670 C671 1.386 1_655 S
C670 C672 1.391 . S
C671 C670 1.386 1_455 S
C671 C675 1.389 1_556 S
C672 H661 0.950 . S
C672 C670 1.391 . S
C672 C673 1.400 1_655 S
C673 C667 1.491 . S
C673 C672 1.400 1_455 S
C673 C674 1.398 . S
C674 H662 0.950 . S
C674 C673 1.398 . S
C674 C675 1.375 1_556 S
C675 H663 0.969 . S
C675 C671 1.389 1_554 S
C675 C674 1.375 1_554 S
H676 C684 0.950 . S
H677 C689 0.950 . S
H678 C686 0.950 . S
H679 C688 0.950 . S
H680 C690 0.950 . S
H681 C692 0.950 . S
H682 C694 0.950 . S
H683 C695 0.950 . S
C684 H676 0.950 . S
C684 C685 1.386 . S
C684 C686 1.391 . S
C685 C684 1.386 . S
C685 C689 1.393 . S
C686 H678 0.950 . S
C686 C684 1.391 . S
C686 C687 1.400 . S
C687 C686 1.400 . S
C687 C688 1.398 . S
C687 C693 1.491 . S
C688 H679 0.950 . S
C688 C687 1.398 . S
C688 C689 1.391 . S
C689 H677 0.950 . S
C689 C685 1.393 . S
C689 C688 1.391 . S
C690 H680 0.950 . S
C690 C691 1.386 . S
C690 C692 1.391 . S
C691 C690 1.386 . S
C691 C695 1.393 . S
C692 H681 0.950 . S
C692 C690 1.391 . S
C692 C693 1.400 . S
C693 C687 1.491 . S
C693 C692 1.400 . S
C693 C694 1.398 . S
C694 H682 0.950 . S
C694 C693 1.398 . S
C694 C695 1.391 . S
C695 H683 0.950 . S
C695 C691 1.393 . S
C695 C694 1.391 . S
H696 C704 0.950 . S
H697 C709 0.950 . S
H698 C706 0.950 . S
H699 C708 0.950 . S
H700 C710 0.950 . S
H701 C712 0.950 . S
H702 C714 0.950 . S
H703 C715 0.950 . S
C704 H696 0.950 . S
C704 C705 1.386 . S
C704 C706 1.391 . S
C705 C704 1.386 . S
C705 C709 1.393 . S
C706 H698 0.950 . S
C706 C704 1.391 . S
C706 C707 1.400 . S
C707 C706 1.400 . S
C707 C708 1.398 . S
C707 C713 1.491 . S
C708 H699 0.950 . S
C708 C707 1.398 . S
C708 C709 1.391 . S
C709 H697 0.950 . S
C709 C705 1.393 . S
C709 C708 1.391 . S
C710 H700 0.950 . S
C710 C711 1.386 . S
C710 C712 1.391 . S
C711 C710 1.386 . S
C711 C715 1.393 . S
C712 H701 0.950 . S
C712 C710 1.391 . S
C712 C713 1.400 . S
C713 C707 1.491 . S
C713 C712 1.400 . S
C713 C714 1.398 . S
C714 H702 0.950 . S
C714 C713 1.398 . S
C714 C715 1.391 . S
C715 H703 0.950 . S
C715 C711 1.393 . S
C715 C714 1.391 . S
H716 C724 0.950 . S
H717 C729 0.950 . S
H718 C726 0.950 . S
H719 C728 0.950 . S
H720 C730 0.950 . S
H721 C732 0.950 . S
H722 C734 0.950 . S
H723 C735 0.950 . S
C724 H716 0.950 . S
C724 C725 1.386 . S
C724 C726 1.391 . S
C725 C724 1.386 . S
C725 C729 1.393 . S
C726 H718 0.950 . S
C726 C724 1.391 . S
C726 C727 1.400 . S
C727 C726 1.400 . S
C727 C728 1.398 . S
C727 C733 1.491 . S
C728 H719 0.950 . S
C728 C727 1.398 . S
C728 C729 1.391 . S
C729 H717 0.950 . S
C729 C725 1.393 . S
C729 C728 1.391 . S
C730 H720 0.950 . S
C730 C731 1.386 . S
C730 C732 1.391 . S
C731 C730 1.386 . S
C731 C735 1.393 . S
C732 H721 0.950 . S
C732 C730 1.391 . S
C732 C733 1.400 . S
C733 C727 1.491 . S
C733 C732 1.400 . S
C733 C734 1.398 . S
C734 H722 0.950 . S
C734 C733 1.398 . S
C734 C735 1.391 . S
C735 H723 0.950 . S
C735 C731 1.393 . S
C735 C734 1.391 . S
H736 C744 0.950 . S
H737 C749 0.950 . S
H738 C746 0.950 . S
H739 C748 0.950 . S
H740 C750 0.950 . S
H741 C752 0.950 . S
H742 C754 0.950 . S
H743 C755 0.950 . S
C744 H736 0.950 . S
C744 C745 1.386 1_655 S
C744 C746 1.391 . S
C745 C744 1.386 1_455 S
C745 C749 1.393 . S
C746 H738 0.950 . S
C746 C744 1.391 . S
C746 C747 1.400 1_655 S
C747 C746 1.400 1_455 S
C747 C748 1.398 . S
C747 C753 1.491 . S
C748 H739 0.950 . S
C748 C747 1.398 . S
C748 C749 1.391 . S
C749 H737 0.950 . S
C749 C745 1.393 . S
C749 C748 1.391 . S
C750 H740 0.950 . S
C750 C751 1.386 . S
C750 C752 1.391 . S
C751 C750 1.386 . S
C751 C755 1.393 1_455 S
C752 H741 0.950 . S
C752 C750 1.391 . S
C752 C753 1.400 . S
C753 C747 1.491 . S
C753 C752 1.400 . S
C753 C754 1.398 1_455 S
C754 H742 0.950 . S
C754 C753 1.398 1_655 S
C754 C755 1.391 . S
C755 H743 0.950 . S
C755 C751 1.393 1_655 S
C755 C754 1.391 . S
H756 C764 0.950 . S
H757 C769 0.950 . S
H758 C766 0.950 . S
H759 C768 0.950 . S
H760 C770 0.950 . S
H761 C772 0.950 . S
H762 C774 0.950 . S
H763 C775 0.950 . S
C764 H756 0.950 . S
C764 C765 1.386 . S
C764 C766 1.391 . S
C765 C764 1.386 . S
C765 C769 1.393 . S
C766 H758 0.950 . S
C766 C764 1.391 . S
C766 C767 1.400 . S
C767 C766 1.400 . S
C767 C768 1.398 . S
C767 C773 1.491 . S
C768 H759 0.950 . S
C768 C767 1.398 . S
C768 C769 1.391 . S
C769 H757 0.950 . S
C769 C765 1.393 . S
C769 C768 1.391 . S
C770 H760 0.950 . S
C770 C771 1.386 . S
C770 C772 1.391 . S
C771 C770 1.386 . S
C771 C775 1.393 . S
C772 H761 0.950 . S
C772 C770 1.391 . S
C772 C773 1.400 . S
C773 C767 1.491 . S
C773 C772 1.400 . S
C773 C774 1.398 . S
C774 H762 0.950 . S
C774 C773 1.398 . S
C774 C775 1.391 . S
C775 H763 0.950 . S
C775 C771 1.393 . S
C775 C774 1.391 . S
H776 C784 0.950 . S
H777 C789 0.950 . S
H778 C786 0.950 . S
H779 C788 0.950 . S
H780 C790 0.950 . S
H781 C792 0.950 . S
H782 C794 0.950 . S
H783 C795 0.950 . S
C784 H776 0.950 . S
C784 C785 1.386 . S
C784 C786 1.391 . S
C785 C784 1.386 . S
C785 C789 1.393 . S
C786 H778 0.950 . S
C786 C784 1.391 . S
C786 C787 1.400 . S
C787 C786 1.400 . S
C787 C788 1.398 . S
C787 C793 1.491 . S
C788 H779 0.950 . S
C788 C787 1.398 . S
C788 C789 1.391 . S
C789 H777 0.950 . S
C789 C785 1.393 . S
C789 C788 1.391 . S
C790 H780 0.950 . S
C790 C791 1.386 . S
C790 C792 1.391 . S
C791 C790 1.386 . S
C791 C795 1.393 . S
C792 H781 0.950 . S
C792 C790 1.391 . S
C792 C793 1.400 . S
C793 C787 1.491 . S
C793 C792 1.400 . S
C793 C794 1.398 . S
C794 H782 0.950 . S
C794 C793 1.398 . S
C794 C795 1.391 . S
C795 H783 0.950 . S
C795 C791 1.393 . S
C795 C794 1.391 . S
H796 C804 0.950 . S
H797 C809 0.950 . S
H798 C806 0.950 . S
H799 C808 0.950 . S
H800 C810 0.950 . S
H801 C812 0.950 . S
H802 C814 0.950 . S
H803 C815 0.950 . S
C804 H796 0.950 . S
C804 C805 1.386 . S
C804 C806 1.391 . S
C805 C804 1.386 . S
C805 C809 1.393 . S
C806 H798 0.950 . S
C806 C804 1.391 . S
C806 C807 1.400 . S
C807 C806 1.400 . S
C807 C808 1.398 . S
C807 C813 1.491 . S
C808 H799 0.950 . S
C808 C807 1.398 . S
C808 C809 1.391 . S
C809 H797 0.950 . S
C809 C805 1.393 . S
C809 C808 1.391 . S
C810 H800 0.950 . S
C810 C811 1.386 . S
C810 C812 1.391 . S
C811 C810 1.386 . S
C811 C815 1.393 . S
C812 H801 0.950 . S
C812 C810 1.391 . S
C812 C813 1.400 . S
C813 C807 1.491 . S
C813 C812 1.400 . S
C813 C814 1.398 . S
C814 H802 0.950 . S
C814 C813 1.398 . S
C814 C815 1.391 . S
C815 H803 0.950 . S
C815 C811 1.393 . S
C815 C814 1.391 . S
H816 C824 0.950 . S
H817 C829 0.950 . S
H818 C826 0.950 . S
H819 C828 0.950 . S
H820 C830 0.950 . S
H821 C832 0.950 . S
H822 C834 0.950 . S
H823 C835 0.950 . S
C824 H816 0.950 . S
C824 C825 1.386 . S
C824 C826 1.391 . S
C825 C824 1.386 . S
C825 C829 1.393 . S
C826 H818 0.950 . S
C826 C824 1.391 . S
C826 C827 1.400 . S
C827 C826 1.400 . S
C827 C828 1.398 . S
C827 C833 1.491 . S
C828 H819 0.950 . S
C828 C827 1.398 . S
C828 C829 1.391 . S
C829 H817 0.950 . S
C829 C825 1.393 . S
C829 C828 1.391 . S
C830 H820 0.950 . S
C830 C831 1.386 . S
C830 C832 1.391 . S
C831 C830 1.386 . S
C831 C835 1.393 . S
C832 H821 0.950 . S
C832 C830 1.391 . S
C832 C833 1.400 . S
C833 C827 1.491 . S
C833 C832 1.400 . S
C833 C834 1.398 . S
C834 H822 0.950 . S
C834 C833 1.398 . S
C834 C835 1.391 . S
C835 H823 0.950 . S
C835 C831 1.393 . S
C835 C834 1.391 . S
H836 C844 0.950 . S
H837 C849 0.950 . S
H838 C846 0.950 . S
H839 C848 0.950 . S
H840 C850 0.950 . S
H841 C852 0.950 . S
H842 C854 0.950 . S
H843 C855 0.950 . S
C844 H836 0.950 . S
C844 C845 1.386 . S
C844 C846 1.391 . S
C845 C844 1.386 . S
C845 C849 1.393 . S
C846 H838 0.950 . S
C846 C844 1.391 . S
C846 C847 1.400 . S
C847 C846 1.400 . S
C847 C848 1.398 . S
C847 C853 1.491 . S
C848 H839 0.950 . S
C848 C847 1.398 . S
C848 C849 1.391 . S
C849 H837 0.950 . S
C849 C845 1.393 . S
C849 C848 1.391 . S
C850 H840 0.950 . S
C850 C851 1.386 . S
C850 C852 1.391 . S
C851 C850 1.386 . S
C851 C855 1.393 . S
C852 H841 0.950 . S
C852 C850 1.391 . S
C852 C853 1.400 . S
C853 C847 1.491 . S
C853 C852 1.400 . S
C853 C854 1.398 . S
C854 H842 0.950 . S
C854 C853 1.398 . S
C854 C855 1.391 . S
C855 H843 0.950 . S
C855 C851 1.393 . S
C855 C854 1.391 . S
H856 C864 0.950 . S
H857 C869 0.950 . S
H858 C866 0.950 . S
H859 C868 0.950 . S
H860 C870 0.950 . S
H861 C872 0.950 . S
H862 C874 0.950 . S
H863 C875 0.950 . S
C864 H856 0.950 . S
C864 C865 1.386 . S
C864 C866 1.391 . S
C865 C864 1.386 . S
C865 C869 1.393 1_545 S
C866 H858 0.950 . S
C866 C864 1.391 . S
C866 C867 1.400 . S
C867 C866 1.400 . S
C867 C868 1.398 1_545 S
C867 C873 1.491 . S
C868 H859 0.950 . S
C868 C867 1.398 1_565 S
C868 C869 1.391 . S
C869 H857 0.950 . S
C869 C865 1.393 1_565 S
C869 C868 1.391 . S
C870 H860 0.950 . S
C870 C871 1.386 1_565 S
C870 C872 1.391 . S
C871 C870 1.386 1_545 S
C871 C875 1.393 . S
C872 H861 0.950 . S
C872 C870 1.391 . S
C872 C873 1.400 1_565 S
C873 C867 1.491 . S
C873 C872 1.400 1_545 S
C873 C874 1.398 . S
C874 H862 0.950 . S
C874 C873 1.398 . S
C874 C875 1.391 . S
C875 H863 0.950 . S
C875 C871 1.393 . S
C875 C874 1.391 . S
H876 C884 0.950 . S
H877 C889 0.950 . S
H878 C886 0.950 . S
H879 C888 0.950 . S
H880 C890 0.950 . S
H881 C892 0.950 . S
H882 C894 0.950 . S
H883 C895 0.950 . S
C884 H876 0.950 . S
C884 C885 1.386 . S
C884 C886 1.391 . S
C885 C884 1.386 . S
C885 C889 1.393 . S
C886 H878 0.950 . S
C886 C884 1.391 . S
C886 C887 1.400 . S
C887 C886 1.400 . S
C887 C888 1.398 . S
C887 C893 1.491 . S
C888 H879 0.950 . S
C888 C887 1.398 . S
C888 C889 1.391 . S
C889 H877 0.950 . S
C889 C885 1.393 . S
C889 C888 1.391 . S
C890 H880 0.950 . S
C890 C891 1.386 . S
C890 C892 1.391 . S
C891 C890 1.386 . S
C891 C895 1.393 . S
C892 H881 0.950 . S
C892 C890 1.391 . S
C892 C893 1.400 . S
C893 C887 1.491 . S
C893 C892 1.400 . S
C893 C894 1.398 . S
C894 H882 0.950 . S
C894 C893 1.398 . S
C894 C895 1.391 . S
C895 H883 0.950 . S
C895 C891 1.393 . S
C895 C894 1.391 . S
H896 C904 0.950 . S
H897 C909 0.950 . S
H898 C906 0.950 . S
H899 C908 0.950 . S
H900 C910 0.950 . S
H901 C912 0.950 . S
H902 C914 0.950 . S
H903 C915 0.912 1_455 S
C904 H896 0.950 . S
C904 C905 1.386 . S
C904 C906 1.391 . S
C905 C904 1.386 . S
C905 C909 1.393 . S
C906 H898 0.950 . S
C906 C904 1.391 . S
C906 C907 1.400 . S
C907 C906 1.400 . S
C907 C908 1.398 . S
C907 C913 1.491 . S
C908 H899 0.950 . S
C908 C907 1.398 . S
C908 C909 1.391 . S
C909 H897 0.950 . S
C909 C905 1.393 . S
C909 C908 1.391 . S
C910 H900 0.950 . S
C910 C911 1.386 . S
C910 C912 1.391 . S
C911 C910 1.386 . S
C911 C915 1.417 . S
C912 H901 0.950 . S
C912 C910 1.391 . S
C912 C913 1.400 . S
C913 C907 1.491 . S
C913 C912 1.400 . S
C913 C914 1.398 . S
C914 H902 0.950 . S
C914 C913 1.398 . S
C914 C915 1.405 . S
C915 H903 0.912 1_655 S
C915 C911 1.417 . S
C915 C914 1.405 . S
H916 C924 0.950 . S
H917 C929 0.950 . S
H918 C926 0.950 . S
H919 C928 0.950 . S
H920 C930 0.950 . S
H921 C932 0.950 . S
H922 C934 0.950 . S
H923 C935 0.950 . S
C924 H916 0.950 . S
C924 C925 1.386 . S
C924 C926 1.391 . S
C925 C924 1.386 . S
C925 C929 1.393 . S
C926 H918 0.950 . S
C926 C924 1.391 . S
C926 C927 1.400 . S
C927 C926 1.400 . S
C927 C928 1.398 . S
C927 C933 1.491 . S
C928 H919 0.950 . S
C928 C927 1.398 . S
C928 C929 1.391 . S
C929 H917 0.950 . S
C929 C925 1.393 . S
C929 C928 1.391 . S
C930 H920 0.950 . S
C930 C931 1.386 . S
C930 C932 1.391 . S
C931 C930 1.386 . S
C931 C935 1.393 . S
C932 H921 0.950 . S
C932 C930 1.391 . S
C932 C933 1.400 . S
C933 C927 1.491 . S
C933 C932 1.400 . S
C933 C934 1.398 . S
C934 H922 0.950 . S
C934 C933 1.398 . S
C934 C935 1.391 . S
C935 H923 0.950 . S
C935 C931 1.393 . S
C935 C934 1.391 . S
H936 C944 0.950 . S
H937 C949 0.950 . S
H938 C946 0.950 . S
H939 C948 0.950 1_565 S
H940 C950 0.950 . S
H941 C952 0.950 1_565 S
H942 C954 0.950 . S
H943 C955 0.950 . S
C944 H936 0.950 . S
C944 C945 1.386 . S
C944 C946 1.391 . S
C945 C944 1.386 . S
C945 C949 1.393 1_545 S
C946 H938 0.950 . S
C946 C944 1.391 . S
C946 C947 1.400 . S
C947 C946 1.400 . S
C947 C948 1.398 . S
C947 C953 1.491 . S
C948 H939 0.950 1_545 S
C948 C947 1.398 . S
C948 C949 1.391 1_545 S
C949 H937 0.950 . S
C949 C945 1.393 1_565 S
C949 C948 1.391 1_565 S
C950 H940 0.950 . S
C950 C951 1.386 . S
C950 C952 1.391 . S
C951 C950 1.386 . S
C951 C955 1.393 . S
C952 H941 0.950 1_545 S
C952 C950 1.391 . S
C952 C953 1.400 . S
C953 C947 1.491 . S
C953 C952 1.400 . S
C953 C954 1.398 . S
C954 H942 0.950 . S
C954 C953 1.398 . S
C954 C955 1.391 . S
C955 H943 0.950 . S
C955 C951 1.393 . S
C955 C954 1.391 . S
H956 C964 0.950 . S
H957 C969 0.950 . S
H958 C966 0.950 . S
H959 C968 0.950 . S
H960 C970 0.950 . S
H961 C972 0.950 . S
H962 C974 0.950 . S
H963 C975 0.950 . S
C964 H956 0.950 . S
C964 C965 1.386 . S
C964 C966 1.391 . S
C965 C964 1.386 . S
C965 C969 1.393 . S
C966 H958 0.950 . S
C966 C964 1.391 . S
C966 C967 1.400 . S
C967 C966 1.400 . S
C967 C968 1.398 . S
C967 C973 1.491 . S
C968 H959 0.950 . S
C968 C967 1.398 . S
C968 C969 1.391 . S
C969 H957 0.950 . S
C969 C965 1.393 . S
C969 C968 1.391 . S
C970 H960 0.950 . S
C970 C971 1.386 . S
C970 C972 1.391 . S
C971 C970 1.386 . S
C971 C975 1.393 . S
C972 H961 0.950 . S
C972 C970 1.391 . S
C972 C973 1.400 . S
C973 C967 1.491 . S
C973 C972 1.400 . S
C973 C974 1.398 . S
C974 H962 0.950 . S
C974 C973 1.398 . S
C974 C975 1.391 . S
C975 H963 0.950 . S
C975 C971 1.393 . S
C975 C974 1.391 . S
H976 C984 0.950 . S
H977 C989 0.950 . S
H978 C986 0.950 . S
H979 C988 0.950 . S
H980 C990 0.950 . S
H981 C992 0.950 . S
H982 C994 0.950 . S
H983 C995 0.950 . S
C984 H976 0.950 . S
C984 C985 1.386 . S
C984 C986 1.391 . S
C985 C984 1.386 . S
C985 C989 1.393 . S
C986 H978 0.950 . S
C986 C984 1.391 . S
C986 C987 1.400 . S
C987 C986 1.400 . S
C987 C988 1.398 . S
C987 C993 1.491 . S
C988 H979 0.950 . S
C988 C987 1.398 . S
C988 C989 1.391 . S
C989 H977 0.950 . S
C989 C985 1.393 . S
C989 C988 1.391 . S
C990 H980 0.950 . S
C990 C991 1.386 . S
C990 C992 1.391 . S
C991 C990 1.386 . S
C991 C995 1.393 1_545 S
C992 H981 0.950 . S
C992 C990 1.391 . S
C992 C993 1.400 1_545 S
C993 C987 1.491 . S
C993 C992 1.400 1_565 S
C993 C994 1.398 . S
C994 H982 0.950 . S
C994 C993 1.398 . S
C994 C995 1.391 . S
C995 H983 0.950 . S
C995 C991 1.393 1_565 S
C995 C994 1.391 . S
H996 C1004 0.950 . S
H997 C1009 0.950 . S
H998 C1006 0.950 . S
H999 C1008 0.950 . S
H1000 C1010 0.950 . S
H1001 C1012 0.950 . S
H1002 C1014 0.950 . S
H1003 C1015 0.950 . S
C1004 H996 0.950 . S
C1004 C1005 1.386 . S
C1004 C1006 1.391 . S
C1005 C1004 1.386 . S
C1005 C1009 1.393 1_556 S
C1006 H998 0.950 . S
C1006 C1004 1.391 . S
C1006 C1007 1.400 . S
C1007 C1006 1.400 . S
C1007 C1008 1.398 1_556 S
C1007 C1013 1.491 . S
C1008 H999 0.950 . S
C1008 C1007 1.398 1_554 S
C1008 C1009 1.391 . S
C1009 H997 0.950 . S
C1009 C1005 1.393 1_554 S
C1009 C1008 1.391 . S
C1010 H1000 0.950 . S
C1010 C1011 1.386 1_554 S
C1010 C1012 1.391 . S
C1011 C1010 1.386 1_556 S
C1011 C1015 1.393 . S
C1012 H1001 0.950 . S
C1012 C1010 1.391 . S
C1012 C1013 1.400 1_554 S
C1013 C1007 1.491 . S
C1013 C1012 1.400 1_556 S
C1013 C1014 1.398 . S
C1014 H1002 0.950 . S
C1014 C1013 1.398 . S
C1014 C1015 1.391 . S
C1015 H1003 0.950 . S
C1015 C1011 1.393 . S
C1015 C1014 1.391 . S
H1016 C1024 0.950 . S
H1017 C1029 0.950 . S
H1018 C1026 0.950 . S
H1019 C1028 0.950 . S
H1020 C1030 0.950 . S
H1021 C1032 0.950 . S
H1022 C1034 0.950 . S
H1023 C1035 0.950 . S
C1024 H1016 0.950 . S
C1024 C1025 1.386 . S
C1024 C1026 1.391 . S
C1025 C1024 1.386 . S
C1025 C1029 1.393 . S
C1026 H1018 0.950 . S
C1026 C1024 1.391 . S
C1026 C1027 1.400 . S
C1027 C1026 1.400 . S
C1027 C1028 1.398 . S
C1027 C1033 1.491 . S
C1028 H1019 0.950 . S
C1028 C1027 1.398 . S
C1028 C1029 1.391 . S
C1029 H1017 0.950 . S
C1029 C1025 1.393 . S
C1029 C1028 1.391 . S
C1030 H1020 0.950 . S
C1030 C1031 1.386 . S
C1030 C1032 1.391 . S
C1031 C1030 1.386 . S
C1031 C1035 1.393 . S
C1032 H1021 0.950 . S
C1032 C1030 1.391 . S
C1032 C1033 1.400 . S
C1033 C1027 1.491 . S
C1033 C1032 1.400 . S
C1033 C1034 1.398 . S
C1034 H1022 0.950 . S
C1034 C1033 1.398 . S
C1034 C1035 1.391 . S
C1035 H1023 0.950 . S
C1035 C1031 1.393 . S
C1035 C1034 1.391 . S
H1036 C1044 0.950 . S
H1037 C1049 0.950 . S
H1038 C1046 0.950 . S
H1039 C1048 0.950 . S
H1040 C1050 0.950 . S
H1041 C1052 0.950 . S
H1042 C1054 0.950 . S
H1043 C1055 0.950 . S
C1044 H1036 0.950 . S
C1044 C1045 1.386 . S
C1044 C1046 1.391 . S
C1045 C1044 1.386 . S
C1045 C1049 1.393 . S
C1046 H1038 0.950 . S
C1046 C1044 1.391 . S
C1046 C1047 1.400 . S
C1047 C1046 1.400 . S
C1047 C1048 1.398 . S
C1047 C1053 1.491 . S
C1048 H1039 0.950 . S
C1048 C1047 1.398 . S
C1048 C1049 1.391 . S
C1049 H1037 0.950 . S
C1049 C1045 1.393 . S
C1049 C1048 1.391 . S
C1050 H1040 0.950 . S
C1050 C1051 1.386 . S
C1050 C1052 1.391 . S
C1051 C1050 1.386 . S
C1051 C1055 1.393 . S
C1052 H1041 0.950 . S
C1052 C1050 1.391 . S
C1052 C1053 1.400 . S
C1053 C1047 1.491 . S
C1053 C1052 1.400 . S
C1053 C1054 1.398 . S
C1054 H1042 0.950 . S
C1054 C1053 1.398 . S
C1054 C1055 1.391 . S
C1055 H1043 0.950 . S
C1055 C1051 1.393 . S
C1055 C1054 1.391 . S
H1056 C1064 0.950 . S
H1057 C1069 0.950 . S
H1058 C1066 0.950 . S
H1059 C1068 0.950 . S
H1060 C1070 0.950 . S
H1061 C1072 0.950 . S
H1062 C1074 0.950 . S
H1063 C1075 0.950 . S
C1064 H1056 0.950 . S
C1064 C1065 1.386 . S
C1064 C1066 1.391 . S
C1065 C1064 1.386 . S
C1065 C1069 1.393 . S
C1066 H1058 0.950 . S
C1066 C1064 1.391 . S
C1066 C1067 1.400 . S
C1067 C1066 1.400 . S
C1067 C1068 1.398 . S
C1067 C1073 1.491 . S
C1068 H1059 0.950 . S
C1068 C1067 1.398 . S
C1068 C1069 1.391 . S
C1069 H1057 0.950 . S
C1069 C1065 1.393 . S
C1069 C1068 1.391 . S
C1070 H1060 0.950 . S
C1070 C1071 1.386 . S
C1070 C1072 1.391 . S
C1071 C1070 1.386 . S
C1071 C1075 1.393 . S
C1072 H1061 0.950 . S
C1072 C1070 1.391 . S
C1072 C1073 1.400 . S
C1073 C1067 1.491 . S
C1073 C1072 1.400 . S
C1073 C1074 1.398 . S
C1074 H1062 0.950 . S
C1074 C1073 1.398 . S
C1074 C1075 1.391 . S
C1075 H1063 0.950 . S
C1075 C1071 1.393 . S
C1075 C1074 1.391 . S
H1076 C1084 0.950 . S
H1077 C1089 0.950 . S
H1078 C1086 0.950 . S
H1079 C1088 0.950 . S
H1080 C1090 0.950 . S
H1081 C1092 0.950 . S
H1082 C1094 0.950 . S
H1083 C1095 0.950 . S
C1084 H1076 0.950 . S
C1084 C1085 1.386 . S
C1084 C1086 1.391 . S
C1085 C1084 1.386 . S
C1085 C1089 1.393 . S
C1086 H1078 0.950 . S
C1086 C1084 1.391 . S
C1086 C1087 1.400 . S
C1087 C1086 1.400 . S
C1087 C1088 1.398 . S
C1087 C1093 1.491 . S
C1088 H1079 0.950 . S
C1088 C1087 1.398 . S
C1088 C1089 1.391 . S
C1089 H1077 0.950 . S
C1089 C1085 1.393 . S
C1089 C1088 1.391 . S
C1090 H1080 0.950 . S
C1090 C1091 1.386 . S
C1090 C1092 1.391 . S
C1091 C1090 1.386 . S
C1091 C1095 1.393 . S
C1092 H1081 0.950 . S
C1092 C1090 1.391 . S
C1092 C1093 1.400 . S
C1093 C1087 1.491 . S
C1093 C1092 1.400 . S
C1093 C1094 1.398 . S
C1094 H1082 0.950 . S
C1094 C1093 1.398 . S
C1094 C1095 1.391 . S
C1095 H1083 0.950 . S
C1095 C1091 1.393 . S
C1095 C1094 1.391 . S
H1096 C1104 0.950 . S
H1097 C1109 0.950 . S
H1098 C1106 0.950 . S
H1099 C1108 0.950 . S
H1100 C1110 0.950 . S
H1101 C1112 0.950 . S
H1102 C1114 0.950 . S
H1103 C1115 0.950 . S
C1104 H1096 0.950 . S
C1104 C1105 1.386 . S
C1104 C1106 1.391 . S
C1105 C1104 1.386 . S
C1105 C1109 1.393 . S
C1106 H1098 0.950 . S
C1106 C1104 1.391 . S
C1106 C1107 1.400 . S
C1107 C1106 1.400 . S
C1107 C1108 1.398 . S
C1107 C1113 1.491 . S
C1108 H1099 0.950 . S
C1108 C1107 1.398 . S
C1108 C1109 1.391 . S
C1109 H1097 0.950 . S
C1109 C1105 1.393 . S
C1109 C1108 1.391 . S
C1110 H1100 0.950 . S
C1110 C1111 1.386 . S
C1110 C1112 1.391 . S
C1111 C1110 1.386 . S
C1111 C1115 1.393 . S
C1112 H1101 0.950 . S
C1112 C1110 1.391 . S
C1112 C1113 1.400 . S
C1113 C1107 1.491 . S
C1113 C1112 1.400 . S
C1113 C1114 1.398 . S
C1114 H1102 0.950 . S
C1114 C1113 1.398 . S
C1114 C1115 1.391 . S
C1115 H1103 0.950 . S
C1115 C1111 1.393 . S
C1115 C1114 1.391 . S
H1116 C1124 0.950 . S
H1117 C1129 0.950 . S
H1118 C1126 0.950 . S
H1119 C1128 0.950 . S
H1120 C1130 0.950 . S
H1121 C1132 0.950 . S
H1122 C1134 0.950 . S
H1123 C1135 0.950 . S
C1124 H1116 0.950 . S
C1124 C1125 1.386 . S
C1124 C1126 1.391 . S
C1125 C1124 1.386 . S
C1125 C1129 1.393 . S
C1126 H1118 0.950 . S
C1126 C1124 1.391 . S
C1126 C1127 1.400 . S
C1127 C1126 1.400 . S
C1127 C1128 1.398 . S
C1127 C1133 1.491 . S
C1128 H1119 0.950 . S
C1128 C1127 1.398 . S
C1128 C1129 1.391 . S
C1129 H1117 0.950 . S
C1129 C1125 1.393 . S
C1129 C1128 1.391 . S
C1130 H1120 0.950 . S
C1130 C1131 1.386 . S
C1130 C1132 1.391 . S
C1131 C1130 1.386 . S
C1131 C1135 1.393 . S
C1132 H1121 0.950 . S
C1132 C1130 1.391 . S
C1132 C1133 1.400 . S
C1133 C1127 1.491 . S
C1133 C1132 1.400 . S
C1133 C1134 1.398 . S
C1134 H1122 0.950 . S
C1134 C1133 1.398 . S
C1134 C1135 1.391 . S
C1135 H1123 0.950 . S
C1135 C1131 1.393 . S
C1135 C1134 1.391 . S
H1136 C1144 0.950 . S
H1137 C1149 0.950 . S
H1138 C1146 0.950 . S
H1139 C1148 0.950 . S
H1140 C1150 0.950 . S
H1141 C1152 0.950 . S
H1142 C1154 0.950 . S
H1143 C1155 0.950 . S
C1144 H1136 0.950 . S
C1144 C1145 1.386 . S
C1144 C1146 1.391 . S
C1145 C1144 1.386 . S
C1145 C1149 1.393 1_455 S
C1146 H1138 0.950 . S
C1146 C1144 1.391 . S
C1146 C1147 1.400 . S
C1147 C1146 1.400 . S
C1147 C1148 1.398 1_455 S
C1147 C1153 1.491 . S
C1148 H1139 0.950 . S
C1148 C1147 1.398 1_655 S
C1148 C1149 1.391 . S
C1149 H1137 0.950 . S
C1149 C1145 1.393 1_655 S
C1149 C1148 1.391 . S
C1150 H1140 0.950 . S
C1150 C1151 1.386 1_655 S
C1150 C1152 1.391 . S
C1151 C1150 1.386 1_455 S
C1151 C1155 1.393 . S
C1152 H1141 0.950 . S
C1152 C1150 1.391 . S
C1152 C1153 1.400 1_655 S
C1153 C1147 1.491 . S
C1153 C1152 1.400 1_455 S
C1153 C1154 1.398 . S
C1154 H1142 0.950 . S
C1154 C1153 1.398 . S
C1154 C1155 1.391 . S
C1155 H1143 0.950 . S
C1155 C1151 1.393 . S
C1155 C1154 1.391 . S
H1156 C1164 0.950 . S
H1157 C1169 0.950 . S
H1158 C1166 0.950 . S
H1159 C1168 0.950 . S
H1160 C1170 0.950 . S
H1161 C1172 0.950 . S
H1162 C1174 0.950 . S
H1163 C1175 0.950 . S
C1164 H1156 0.950 . S
C1164 C1165 1.386 . S
C1164 C1166 1.391 . S
C1165 C1164 1.386 . S
C1165 C1169 1.393 . S
C1166 H1158 0.950 . S
C1166 C1164 1.391 . S
C1166 C1167 1.400 . S
C1167 C1166 1.400 . S
C1167 C1168 1.398 . S
C1167 C1173 1.491 . S
C1168 H1159 0.950 . S
C1168 C1167 1.398 . S
C1168 C1169 1.391 . S
C1169 H1157 0.950 . S
C1169 C1165 1.393 . S
C1169 C1168 1.391 . S
C1170 H1160 0.950 . S
C1170 C1171 1.386 . S
C1170 C1172 1.391 . S
C1171 C1170 1.386 . S
C1171 C1175 1.393 . S
C1172 H1161 0.950 . S
C1172 C1170 1.391 . S
C1172 C1173 1.400 . S
C1173 C1167 1.491 . S
C1173 C1172 1.400 . S
C1173 C1174 1.398 . S
C1174 H1162 0.950 . S
C1174 C1173 1.398 . S
C1174 C1175 1.391 . S
C1175 H1163 0.950 . S
C1175 C1171 1.393 . S
C1175 C1174 1.391 . S
H1176 C1184 0.950 . S
H1177 C1189 0.950 . S
H1178 C1186 0.950 . S
H1179 C1188 0.950 . S
H1180 C1190 0.950 . S
H1181 C1192 0.950 . S
H1182 C1194 0.950 . S
H1183 C1195 0.950 . S
C1184 H1176 0.950 . S
C1184 C1185 1.386 . S
C1184 C1186 1.391 . S
C1185 C1184 1.386 . S
C1185 C1189 1.393 . S
C1186 H1178 0.950 . S
C1186 C1184 1.391 . S
C1186 C1187 1.400 . S
C1187 C1186 1.400 . S
C1187 C1188 1.398 . S
C1187 C1193 1.491 . S
C1188 H1179 0.950 . S
C1188 C1187 1.398 . S
C1188 C1189 1.391 . S
C1189 H1177 0.950 . S
C1189 C1185 1.393 . S
C1189 C1188 1.391 . S
C1190 H1180 0.950 . S
C1190 C1191 1.386 . S
C1190 C1192 1.391 . S
C1191 C1190 1.386 . S
C1191 C1195 1.393 . S
C1192 H1181 0.950 . S
C1192 C1190 1.391 . S
C1192 C1193 1.400 . S
C1193 C1187 1.491 . S
C1193 C1192 1.400 . S
C1193 C1194 1.398 . S
C1194 H1182 0.950 . S
C1194 C1193 1.398 . S
C1194 C1195 1.391 . S
C1195 H1183 0.950 . S
C1195 C1191 1.393 . S
C1195 C1194 1.391 . S
H1196 C1204 0.950 . S
H1197 C1209 0.950 . S
H1198 C1206 0.950 . S
H1199 C1208 0.950 . S
H1200 C1210 0.950 . S
H1201 C1212 0.950 . S
H1202 C1214 0.950 . S
H1203 C1215 0.950 . S
C1204 H1196 0.950 . S
C1204 C1205 1.386 . S
C1204 C1206 1.391 . S
C1205 C1204 1.386 . S
C1205 C1209 1.393 . S
C1206 H1198 0.950 . S
C1206 C1204 1.391 . S
C1206 C1207 1.400 . S
C1207 C1206 1.400 . S
C1207 C1208 1.398 . S
C1207 C1213 1.491 . S
C1208 H1199 0.950 . S
C1208 C1207 1.398 . S
C1208 C1209 1.391 . S
C1209 H1197 0.950 . S
C1209 C1205 1.393 . S
C1209 C1208 1.391 . S
C1210 H1200 0.950 . S
C1210 C1211 1.386 . S
C1210 C1212 1.391 . S
C1211 C1210 1.386 . S
C1211 C1215 1.393 . S
C1212 H1201 0.950 . S
C1212 C1210 1.391 . S
C1212 C1213 1.400 . S
C1213 C1207 1.491 . S
C1213 C1212 1.400 . S
C1213 C1214 1.398 . S
C1214 H1202 0.950 . S
C1214 C1213 1.398 . S
C1214 C1215 1.391 . S
C1215 H1203 0.950 . S
C1215 C1211 1.393 . S
C1215 C1214 1.391 . S
H1216 C1224 0.950 . S
H1217 C1229 0.950 . S
H1218 C1226 0.950 . S
H1219 C1228 0.950 . S
H1220 C1230 0.950 . S
H1221 C1232 0.950 . S
H1222 C1234 0.950 . S
H1223 C1235 0.950 . S
C1224 H1216 0.950 . S
C1224 C1225 1.386 1_655 S
C1224 C1226 1.391 . S
C1225 C1224 1.386 1_455 S
C1225 C1229 1.393 . S
C1226 H1218 0.950 . S
C1226 C1224 1.391 . S
C1226 C1227 1.400 1_655 S
C1227 C1226 1.400 1_455 S
C1227 C1228 1.398 . S
C1227 C1233 1.491 . S
C1228 H1219 0.950 . S
C1228 C1227 1.398 . S
C1228 C1229 1.391 . S
C1229 H1217 0.950 . S
C1229 C1225 1.393 . S
C1229 C1228 1.391 . S
C1230 H1220 0.950 . S
C1230 C1231 1.386 . S
C1230 C1232 1.391 . S
C1231 C1230 1.386 . S
C1231 C1235 1.393 1_455 S
C1232 H1221 0.950 . S
C1232 C1230 1.391 . S
C1232 C1233 1.400 . S
C1233 C1227 1.491 . S
C1233 C1232 1.400 . S
C1233 C1234 1.398 1_455 S
C1234 H1222 0.950 . S
C1234 C1233 1.398 1_655 S
C1234 C1235 1.391 . S
C1235 H1223 0.950 . S
C1235 C1231 1.393 1_655 S
C1235 C1234 1.391 . S
H1236 C1244 0.950 . S
H1237 C1249 0.950 . S
H1238 C1246 0.950 . S
H1239 C1248 0.950 . S
H1240 C1250 0.950 . S
H1241 C1252 0.950 . S
H1242 C1254 0.950 . S
H1243 C1255 0.950 . S
C1244 H1236 0.950 . S
C1244 C1245 1.386 . S
C1244 C1246 1.391 . S
C1245 C1244 1.386 . S
C1245 C1249 1.393 . S
C1246 H1238 0.950 . S
C1246 C1244 1.391 . S
C1246 C1247 1.400 . S
C1247 C1246 1.400 . S
C1247 C1248 1.398 . S
C1247 C1253 1.491 . S
C1248 H1239 0.950 . S
C1248 C1247 1.398 . S
C1248 C1249 1.391 . S
C1249 H1237 0.950 . S
C1249 C1245 1.393 . S
C1249 C1248 1.391 . S
C1250 H1240 0.950 . S
C1250 C1251 1.386 . S
C1250 C1252 1.391 . S
C1251 C1250 1.386 . S
C1251 C1255 1.393 . S
C1252 H1241 0.950 . S
C1252 C1250 1.391 . S
C1252 C1253 1.400 . S
C1253 C1247 1.491 . S
C1253 C1252 1.400 . S
C1253 C1254 1.398 . S
C1254 H1242 0.950 . S
C1254 C1253 1.398 . S
C1254 C1255 1.391 . S
C1255 H1243 0.950 . S
C1255 C1251 1.393 . S
C1255 C1254 1.391 . S
H1256 C1264 0.950 . S
H1257 C1269 0.950 . S
H1258 C1266 0.950 . S
H1259 C1268 0.950 . S
H1260 C1270 0.950 . S
H1261 C1272 0.950 . S
H1262 C1274 0.950 . S
H1263 C1275 0.950 . S
C1264 H1256 0.950 . S
C1264 C1265 1.386 . S
C1264 C1266 1.391 . S
C1265 C1264 1.386 . S
C1265 C1269 1.393 . S
C1266 H1258 0.950 . S
C1266 C1264 1.391 . S
C1266 C1267 1.400 . S
C1267 C1266 1.400 . S
C1267 C1268 1.398 . S
C1267 C1273 1.491 . S
C1268 H1259 0.950 . S
C1268 C1267 1.398 . S
C1268 C1269 1.391 . S
C1269 H1257 0.950 . S
C1269 C1265 1.393 . S
C1269 C1268 1.391 . S
C1270 H1260 0.950 . S
C1270 C1271 1.386 . S
C1270 C1272 1.391 . S
C1271 C1270 1.386 . S
C1271 C1275 1.393 . S
C1272 H1261 0.950 . S
C1272 C1270 1.391 . S
C1272 C1273 1.400 . S
C1273 C1267 1.491 . S
C1273 C1272 1.400 . S
C1273 C1274 1.398 . S
C1274 H1262 0.950 . S
C1274 C1273 1.398 . S
C1274 C1275 1.391 . S
C1275 H1263 0.950 . S
C1275 C1271 1.393 . S
C1275 C1274 1.391 . S
H1276 C1284 0.950 . S
H1277 C1289 0.950 . S
H1278 C1286 0.950 . S
H1279 C1288 0.950 . S
H1280 C1290 0.950 . S
H1281 C1292 0.950 . S
H1282 C1294 0.950 . S
H1283 C1295 0.950 . S
C1284 H1276 0.950 . S
C1284 C1285 1.386 . S
C1284 C1286 1.391 . S
C1285 C1284 1.386 . S
C1285 C1289 1.393 . S
C1286 H1278 0.950 . S
C1286 C1284 1.391 . S
C1286 C1287 1.400 . S
C1287 C1286 1.400 . S
C1287 C1288 1.398 . S
C1287 C1293 1.491 . S
C1288 H1279 0.950 . S
C1288 C1287 1.398 . S
C1288 C1289 1.391 . S
C1289 H1277 0.950 . S
C1289 C1285 1.393 . S
C1289 C1288 1.391 . S
C1290 H1280 0.950 . S
C1290 C1291 1.386 . S
C1290 C1292 1.391 . S
C1291 C1290 1.386 . S
C1291 C1295 1.393 . S
C1292 H1281 0.950 . S
C1292 C1290 1.391 . S
C1292 C1293 1.400 . S
C1293 C1287 1.491 . S
C1293 C1292 1.400 . S
C1293 C1294 1.398 . S
C1294 H1282 0.950 . S
C1294 C1293 1.398 . S
C1294 C1295 1.391 . S
C1295 H1283 0.950 . S
C1295 C1291 1.393 . S
C1295 C1294 1.391 . S
H1296 C1304 0.950 . S
H1297 C1309 0.950 . S
H1298 C1306 0.950 . S
H1299 C1308 0.950 . S
H1300 C1310 0.950 . S
H1301 C1312 0.950 . S
H1302 C1314 0.950 . S
H1303 C1315 0.950 . S
C1304 H1296 0.950 . S
C1304 C1305 1.386 1_565 S
C1304 C1306 1.391 . S
C1305 C1304 1.386 1_545 S
C1305 C1309 1.393 . S
C1306 H1298 0.950 . S
C1306 C1304 1.391 . S
C1306 C1307 1.400 1_565 S
C1307 C1306 1.400 1_545 S
C1307 C1308 1.398 . S
C1307 C1313 1.491 . S
C1308 H1299 0.950 . S
C1308 C1307 1.398 . S
C1308 C1309 1.391 . S
C1309 H1297 0.950 . S
C1309 C1305 1.393 . S
C1309 C1308 1.391 . S
C1310 H1300 0.950 . S
C1310 C1311 1.386 . S
C1310 C1312 1.391 . S
C1311 C1310 1.386 . S
C1311 C1315 1.393 1_545 S
C1312 H1301 0.950 . S
C1312 C1310 1.391 . S
C1312 C1313 1.400 . S
C1313 C1307 1.491 . S
C1313 C1312 1.400 . S
C1313 C1314 1.398 1_545 S
C1314 H1302 0.950 . S
C1314 C1313 1.398 1_565 S
C1314 C1315 1.391 . S
C1315 H1303 0.950 . S
C1315 C1311 1.393 1_565 S
C1315 C1314 1.391 . S
H1316 C1324 0.950 . S
H1317 C1329 0.950 . S
H1318 C1326 0.950 . S
H1319 C1328 0.950 . S
H1320 C1330 0.950 . S
H1321 C1332 0.950 . S
H1322 C1334 0.950 . S
H1323 C1335 0.950 . S
C1324 H1316 0.950 . S
C1324 C1325 1.386 . S
C1324 C1326 1.391 . S
C1325 C1324 1.386 . S
C1325 C1329 1.393 . S
C1326 H1318 0.950 . S
C1326 C1324 1.391 . S
C1326 C1327 1.400 . S
C1327 C1326 1.400 . S
C1327 C1328 1.398 . S
C1327 C1333 1.491 . S
C1328 H1319 0.950 . S
C1328 C1327 1.398 . S
C1328 C1329 1.391 . S
C1329 H1317 0.950 . S
C1329 C1325 1.393 . S
C1329 C1328 1.391 . S
C1330 H1320 0.950 . S
C1330 C1331 1.386 . S
C1330 C1332 1.391 . S
C1331 C1330 1.386 . S
C1331 C1335 1.393 . S
C1332 H1321 0.950 . S
C1332 C1330 1.391 . S
C1332 C1333 1.400 . S
C1333 C1327 1.491 . S
C1333 C1332 1.400 . S
C1333 C1334 1.398 . S
C1334 H1322 0.950 . S
C1334 C1333 1.398 . S
C1334 C1335 1.391 . S
C1335 H1323 0.950 . S
C1335 C1331 1.393 . S
C1335 C1334 1.391 . S
H1336 C1344 0.950 . S
H1337 C1349 0.950 . S
H1338 C1346 0.950 . S
H1339 C1348 0.950 . S
H1340 C1350 0.950 . S
H1341 C1352 0.950 . S
H1342 C1354 0.950 . S
H1343 C1355 0.950 . S
C1344 H1336 0.950 . S
C1344 C1345 1.386 . S
C1344 C1346 1.391 . S
C1345 C1344 1.386 . S
C1345 C1349 1.393 . S
C1346 H1338 0.950 . S
C1346 C1344 1.391 . S
C1346 C1347 1.400 . S
C1347 C1346 1.400 . S
C1347 C1348 1.398 . S
C1347 C1353 1.491 . S
C1348 H1339 0.950 . S
C1348 C1347 1.398 . S
C1348 C1349 1.391 . S
C1349 H1337 0.950 . S
C1349 C1345 1.393 . S
C1349 C1348 1.391 . S
C1350 H1340 0.950 . S
C1350 C1351 1.386 . S
C1350 C1352 1.391 . S
C1351 C1350 1.386 . S
C1351 C1355 1.393 . S
C1352 H1341 0.950 . S
C1352 C1350 1.391 . S
C1352 C1353 1.400 . S
C1353 C1347 1.491 . S
C1353 C1352 1.400 . S
C1353 C1354 1.398 . S
C1354 H1342 0.950 . S
C1354 C1353 1.398 . S
C1354 C1355 1.391 . S
C1355 H1343 0.950 . S
C1355 C1351 1.393 . S
C1355 C1354 1.391 . S
H1356 C1364 0.950 . S
H1357 C1369 0.950 . S
H1358 C1366 0.950 . S
H1359 C1368 0.950 . S
H1360 C1370 0.950 . S
H1361 C1372 0.950 . S
H1362 C1374 0.950 . S
H1363 C1375 0.950 . S
C1364 H1356 0.950 . S
C1364 C1365 1.386 . S
C1364 C1366 1.391 . S
C1365 C1364 1.386 . S
C1365 C1369 1.393 . S
C1366 H1358 0.950 . S
C1366 C1364 1.391 . S
C1366 C1367 1.400 . S
C1367 C1366 1.400 . S
C1367 C1368 1.398 . S
C1367 C1373 1.491 . S
C1368 H1359 0.950 . S
C1368 C1367 1.398 . S
C1368 C1369 1.391 . S
C1369 H1357 0.950 . S
C1369 C1365 1.393 . S
C1369 C1368 1.391 . S
C1370 H1360 0.950 . S
C1370 C1371 1.386 . S
C1370 C1372 1.391 . S
C1371 C1370 1.386 . S
C1371 C1375 1.393 . S
C1372 H1361 0.950 . S
C1372 C1370 1.391 . S
C1372 C1373 1.400 . S
C1373 C1367 1.491 . S
C1373 C1372 1.400 . S
C1373 C1374 1.398 . S
C1374 H1362 0.950 . S
C1374 C1373 1.398 . S
C1374 C1375 1.391 . S
C1375 H1363 0.950 . S
C1375 C1371 1.393 . S
C1375 C1374 1.391 . S
H1376 C1384 0.950 . S
H1377 C1389 0.950 . S
H1378 C1386 0.950 . S
H1379 C1388 0.950 . S
H1380 C1390 0.950 . S
H1381 C1392 0.950 . S
H1382 C1394 0.950 . S
H1383 C1395 0.950 . S
C1384 H1376 0.950 . S
C1384 C1385 1.386 . S
C1384 C1386 1.391 . S
C1385 C1384 1.386 . S
C1385 C1389 1.393 1_565 S
C1386 H1378 0.950 . S
C1386 C1384 1.391 . S
C1386 C1387 1.400 1_565 S
C1387 C1386 1.400 1_545 S
C1387 C1388 1.398 . S
C1387 C1393 1.491 . S
C1388 H1379 0.950 . S
C1388 C1387 1.398 . S
C1388 C1389 1.391 . S
C1389 H1377 0.950 . S
C1389 C1385 1.393 1_545 S
C1389 C1388 1.391 . S
C1390 H1380 0.950 . S
C1390 C1391 1.386 . S
C1390 C1392 1.391 . S
C1391 C1390 1.386 . S
C1391 C1395 1.393 1_545 S
C1392 H1381 0.950 . S
C1392 C1390 1.391 . S
C1392 C1393 1.400 . S
C1393 C1387 1.491 . S
C1393 C1392 1.400 . S
C1393 C1394 1.398 1_545 S
C1394 H1382 0.950 . S
C1394 C1393 1.398 1_565 S
C1394 C1395 1.391 . S
C1395 H1383 0.950 . S
C1395 C1391 1.393 1_565 S
C1395 C1394 1.391 . S
H1396 C1404 0.950 . S
H1397 C1409 0.950 . S
H1398 C1406 0.950 . S
H1399 C1408 0.950 . S
H1400 C1410 0.950 . S
H1401 C1412 0.950 . S
H1402 C1414 0.950 . S
H1403 C1415 0.950 . S
C1404 H1396 0.950 . S
C1404 C1405 1.386 . S
C1404 C1406 1.391 . S
C1405 C1404 1.386 . S
C1405 C1409 1.393 . S
C1406 H1398 0.950 . S
C1406 C1404 1.391 . S
C1406 C1407 1.400 . S
C1407 C1406 1.400 . S
C1407 C1408 1.398 . S
C1407 C1413 1.491 . S
C1408 H1399 0.950 . S
C1408 C1407 1.398 . S
C1408 C1409 1.391 . S
C1409 H1397 0.950 . S
C1409 C1405 1.393 . S
C1409 C1408 1.391 . S
C1410 H1400 0.950 . S
C1410 C1411 1.386 . S
C1410 C1412 1.391 . S
C1411 C1410 1.386 . S
C1411 C1415 1.393 . S
C1412 H1401 0.950 . S
C1412 C1410 1.391 . S
C1412 C1413 1.400 . S
C1413 C1407 1.491 . S
C1413 C1412 1.400 . S
C1413 C1414 1.398 . S
C1414 H1402 0.950 . S
C1414 C1413 1.398 . S
C1414 C1415 1.391 . S
C1415 H1403 0.950 . S
C1415 C1411 1.393 . S
C1415 C1414 1.391 . S
H1416 C1424 0.950 . S
H1417 C1429 0.950 . S
H1418 C1426 0.950 . S
H1419 C1428 0.950 . S
H1420 C1430 0.950 1_565 S
H1421 C1432 0.980 . S
H1422 C1434 0.950 . S
H1423 C1435 0.950 . S
C1424 H1416 0.950 . S
C1424 C1425 1.386 . S
C1424 C1426 1.391 . S
C1425 C1424 1.386 . S
C1425 C1429 1.393 . S
C1426 H1418 0.950 . S
C1426 C1424 1.391 . S
C1426 C1427 1.400 . S
C1427 C1426 1.400 . S
C1427 C1428 1.398 . S
C1427 C1433 1.491 . S
C1428 H1419 0.950 . S
C1428 C1427 1.398 . S
C1428 C1429 1.391 . S
C1429 H1417 0.950 . S
C1429 C1425 1.393 . S
C1429 C1428 1.391 . S
C1430 H1420 0.950 1_545 S
C1430 C1431 1.386 . S
C1430 C1432 1.391 . S
C1431 C1430 1.386 . S
C1431 C1435 1.393 . S
C1432 H1421 0.980 . S
C1432 C1430 1.391 . S
C1432 C1433 1.400 . S
C1433 C1427 1.491 . S
C1433 C1432 1.400 . S
C1433 C1434 1.398 . S
C1434 H1422 0.950 . S
C1434 C1433 1.398 . S
C1434 C1435 1.391 . S
C1435 H1423 0.950 . S
C1435 C1431 1.393 . S
C1435 C1434 1.391 . S
H1436 C1444 0.950 . S
H1437 C1449 0.950 . S
H1438 C1446 0.950 . S
H1439 C1448 0.950 . S
H1440 C1450 0.950 . S
H1441 C1452 0.950 . S
H1442 C1454 0.950 . S
H1443 C1455 0.950 . S
C1444 H1436 0.950 . S
C1444 C1445 1.386 . S
C1444 C1446 1.391 . S
C1445 C1444 1.386 . S
C1445 C1449 1.393 . S
C1446 H1438 0.950 . S
C1446 C1444 1.391 . S
C1446 C1447 1.400 . S
C1447 C1446 1.400 . S
C1447 C1448 1.398 . S
C1447 C1453 1.491 . S
C1448 H1439 0.950 . S
C1448 C1447 1.398 . S
C1448 C1449 1.391 . S
C1449 H1437 0.950 . S
C1449 C1445 1.393 . S
C1449 C1448 1.391 . S
C1450 H1440 0.950 . S
C1450 C1451 1.386 . S
C1450 C1452 1.391 . S
C1451 C1450 1.386 . S
C1451 C1455 1.393 . S
C1452 H1441 0.950 . S
C1452 C1450 1.391 . S
C1452 C1453 1.400 . S
C1453 C1447 1.491 . S
C1453 C1452 1.400 . S
C1453 C1454 1.398 . S
C1454 H1442 0.950 . S
C1454 C1453 1.398 . S
C1454 C1455 1.391 . S
C1455 H1443 0.950 . S
C1455 C1451 1.393 . S
C1455 C1454 1.391 . S
H1456 C1464 0.950 . S
H1457 C1469 0.950 . S
H1458 C1466 0.950 . S
H1459 C1468 0.950 . S
H1460 C1470 0.950 . S
H1461 C1472 0.950 . S
H1462 C1474 0.950 . S
H1463 C1475 0.950 . S
C1464 H1456 0.950 . S
C1464 C1465 1.386 1_556 S
C1464 C1466 1.391 . S
C1465 C1464 1.386 1_554 S
C1465 C1469 1.393 . S
C1466 H1458 0.950 . S
C1466 C1464 1.391 . S
C1466 C1467 1.400 1_556 S
C1467 C1466 1.400 1_554 S
C1467 C1468 1.398 . S
C1467 C1473 1.491 . S
C1468 H1459 0.950 . S
C1468 C1467 1.398 . S
C1468 C1469 1.391 . S
C1469 H1457 0.950 . S
C1469 C1465 1.393 . S
C1469 C1468 1.391 . S
C1470 H1460 0.950 . S
C1470 C1471 1.386 . S
C1470 C1472 1.391 . S
C1471 C1470 1.386 . S
C1471 C1475 1.393 1_554 S
C1472 H1461 0.950 . S
C1472 C1470 1.391 . S
C1472 C1473 1.400 . S
C1473 C1467 1.491 . S
C1473 C1472 1.400 . S
C1473 C1474 1.398 1_554 S
C1474 H1462 0.950 . S
C1474 C1473 1.398 1_556 S
C1474 C1475 1.391 . S
C1475 H1463 0.950 . S
C1475 C1471 1.393 1_556 S
C1475 C1474 1.391 . S
H1476 C1484 0.950 . S
H1477 C1489 0.956 . S
H1478 C1486 0.950 . S
H1479 C1488 0.931 1_556 S
H1480 C1490 0.950 1_556 S
H1481 C1492 0.950 1_556 S
H1482 C1494 0.950 . S
H1483 C1495 0.950 . S
C1484 H1476 0.950 . S
C1484 C1485 1.386 . S
C1484 C1486 1.391 . S
C1485 C1484 1.386 . S
C1485 C1489 1.393 . S
C1486 H1478 0.950 . S
C1486 C1484 1.391 . S
C1486 C1487 1.400 . S
C1487 C1486 1.400 . S
C1487 C1488 1.398 . S
C1487 C1493 1.491 . S
C1488 H1479 0.931 1_554 S
C1488 C1487 1.398 . S
C1488 C1489 1.391 . S
C1489 H1477 0.956 . S
C1489 C1485 1.393 . S
C1489 C1488 1.391 . S
C1490 H1480 0.950 1_554 S
C1490 C1491 1.386 . S
C1490 C1492 1.391 . S
C1491 C1490 1.386 . S
C1491 C1495 1.393 . S
C1492 H1481 0.950 1_554 S
C1492 C1490 1.391 . S
C1492 C1493 1.400 . S
C1493 C1487 1.491 . S
C1493 C1492 1.400 . S
C1493 C1494 1.398 . S
C1494 H1482 0.950 . S
C1494 C1493 1.398 . S
C1494 C1495 1.391 . S
C1495 H1483 0.950 . S
C1495 C1491 1.393 . S
C1495 C1494 1.391 . S
H1496 C1504 0.950 . S
H1497 C1509 0.950 . S
H1498 C1506 0.950 . S
H1499 C1508 0.950 . S
H1500 C1510 0.950 . S
H1501 C1512 0.950 . S
H1502 C1514 0.950 . S
H1503 C1515 0.950 . S
C1504 H1496 0.950 . S
C1504 C1505 1.386 . S
C1504 C1506 1.391 . S
C1505 C1504 1.386 . S
C1505 C1509 1.393 . S
C1506 H1498 0.950 . S
C1506 C1504 1.391 . S
C1506 C1507 1.400 . S
C1507 C1506 1.400 . S
C1507 C1508 1.398 . S
C1507 C1513 1.491 . S
C1508 H1499 0.950 . S
C1508 C1507 1.398 . S
C1508 C1509 1.391 . S
C1509 H1497 0.950 . S
C1509 C1505 1.393 . S
C1509 C1508 1.391 . S
C1510 H1500 0.950 . S
C1510 C1511 1.386 . S
C1510 C1512 1.391 . S
C1511 C1510 1.386 . S
C1511 C1515 1.393 . S
C1512 H1501 0.950 . S
C1512 C1510 1.391 . S
C1512 C1513 1.400 . S
C1513 C1507 1.491 . S
C1513 C1512 1.400 . S
C1513 C1514 1.398 . S
C1514 H1502 0.950 . S
C1514 C1513 1.398 . S
C1514 C1515 1.391 . S
C1515 H1503 0.950 . S
C1515 C1511 1.393 . S
C1515 C1514 1.391 . S
H1516 C1524 0.950 . S
H1517 C1529 0.950 . S
H1518 C1526 0.950 . S
H1519 C1528 0.950 . S
H1520 C1530 0.950 . S
H1521 C1532 0.950 . S
H1522 C1534 0.950 . S
H1523 C1535 0.950 . S
C1524 H1516 0.950 . S
C1524 C1525 1.386 . S
C1524 C1526 1.391 . S
C1525 C1524 1.386 . S
C1525 C1529 1.393 . S
C1526 H1518 0.950 . S
C1526 C1524 1.391 . S
C1526 C1527 1.400 . S
C1527 C1526 1.400 . S
C1527 C1528 1.398 . S
C1527 C1533 1.491 . S
C1528 H1519 0.950 . S
C1528 C1527 1.398 . S
C1528 C1529 1.391 . S
C1529 H1517 0.950 . S
C1529 C1525 1.393 . S
C1529 C1528 1.391 . S
C1530 H1520 0.950 . S
C1530 C1531 1.386 . S
C1530 C1532 1.391 . S
C1531 C1530 1.386 . S
C1531 C1535 1.393 . S
C1532 H1521 0.950 . S
C1532 C1530 1.391 . S
C1532 C1533 1.400 . S
C1533 C1527 1.491 . S
C1533 C1532 1.400 . S
C1533 C1534 1.398 . S
C1534 H1522 0.950 . S
C1534 C1533 1.398 . S
C1534 C1535 1.391 . S
C1535 H1523 0.950 . S
C1535 C1531 1.393 . S
C1535 C1534 1.391 . S
H1536 C1544 0.950 . S
H1537 C1549 0.950 . S
H1538 C1546 0.950 . S
H1539 C1548 0.950 . S
H1540 C1550 0.950 . S
H1541 C1552 0.950 . S
H1542 C1554 0.950 . S
H1543 C1555 0.950 . S
C1544 H1536 0.950 . S
C1544 C1545 1.386 . S
C1544 C1546 1.391 . S
C1545 C1544 1.386 . S
C1545 C1549 1.393 . S
C1546 H1538 0.950 . S
C1546 C1544 1.391 . S
C1546 C1547 1.400 . S
C1547 C1546 1.400 . S
C1547 C1548 1.398 . S
C1547 C1553 1.491 . S
C1548 H1539 0.950 . S
C1548 C1547 1.398 . S
C1548 C1549 1.391 . S
C1549 H1537 0.950 . S
C1549 C1545 1.393 . S
C1549 C1548 1.391 . S
C1550 H1540 0.950 . S
C1550 C1551 1.386 . S
C1550 C1552 1.391 . S
C1551 C1550 1.386 . S
C1551 C1555 1.393 . S
C1552 H1541 0.950 . S
C1552 C1550 1.391 . S
C1552 C1553 1.400 . S
C1553 C1547 1.491 . S
C1553 C1552 1.400 . S
C1553 C1554 1.398 . S
C1554 H1542 0.950 . S
C1554 C1553 1.398 . S
C1554 C1555 1.391 . S
C1555 H1543 0.950 . S
C1555 C1551 1.393 . S
C1555 C1554 1.391 . S
H1556 C1564 0.950 . S
H1557 C1569 0.950 . S
H1558 C1566 0.950 . S
H1559 C1568 0.950 . S
H1560 C1570 0.950 . S
H1561 C1572 0.950 . S
H1562 C1574 0.950 . S
H1563 C1575 0.950 . S
C1564 H1556 0.950 . S
C1564 C1565 1.386 . S
C1564 C1566 1.391 . S
C1565 C1564 1.386 . S
C1565 C1569 1.393 . S
C1566 H1558 0.950 . S
C1566 C1564 1.391 . S
C1566 C1567 1.400 . S
C1567 C1566 1.400 . S
C1567 C1568 1.398 . S
C1567 C1573 1.491 . S
C1568 H1559 0.950 . S
C1568 C1567 1.398 . S
C1568 C1569 1.391 . S
C1569 H1557 0.950 . S
C1569 C1565 1.393 . S
C1569 C1568 1.391 . S
C1570 H1560 0.950 . S
C1570 C1571 1.386 . S
C1570 C1572 1.391 . S
C1571 C1570 1.386 . S
C1571 C1575 1.393 1_565 S
C1572 H1561 0.950 . S
C1572 C1570 1.391 . S
C1572 C1573 1.400 . S
C1573 C1567 1.491 . S
C1573 C1572 1.400 . S
C1573 C1574 1.398 . S
C1574 H1562 0.950 . S
C1574 C1573 1.398 . S
C1574 C1575 1.391 1_565 S
C1575 H1563 0.950 . S
C1575 C1571 1.393 1_545 S
C1575 C1574 1.391 1_545 S
H1576 C1584 0.950 . S
H1577 C1589 0.950 . S
H1578 C1586 0.950 . S
H1579 C1588 0.950 . S
H1580 C1590 0.950 . S
H1581 C1592 0.950 . S
H1582 C1594 0.950 . S
H1583 C1595 0.950 . S
C1584 H1576 0.950 . S
C1584 C1585 1.386 . S
C1584 C1586 1.391 . S
C1585 C1584 1.386 . S
C1585 C1589 1.393 . S
C1586 H1578 0.950 . S
C1586 C1584 1.391 . S
C1586 C1587 1.400 . S
C1587 C1586 1.400 . S
C1587 C1588 1.398 . S
C1587 C1593 1.491 . S
C1588 H1579 0.950 . S
C1588 C1587 1.398 . S
C1588 C1589 1.391 . S
C1589 H1577 0.950 . S
C1589 C1585 1.393 . S
C1589 C1588 1.391 . S
C1590 H1580 0.950 . S
C1590 C1591 1.386 . S
C1590 C1592 1.391 . S
C1591 C1590 1.386 . S
C1591 C1595 1.393 . S
C1592 H1581 0.950 . S
C1592 C1590 1.391 . S
C1592 C1593 1.400 . S
C1593 C1587 1.491 . S
C1593 C1592 1.400 . S
C1593 C1594 1.398 . S
C1594 H1582 0.950 . S
C1594 C1593 1.398 . S
C1594 C1595 1.391 . S
C1595 H1583 0.950 . S
C1595 C1591 1.393 . S
C1595 C1594 1.391 . S
H1596 C1604 0.950 . S
H1597 C1609 0.950 . S
H1598 C1606 0.950 . S
H1599 C1608 0.950 . S
H1600 C1610 0.950 . S
H1601 C1612 0.950 . S
H1602 C1614 0.950 . S
H1603 C1615 0.950 . S
C1604 H1596 0.950 . S
C1604 C1605 1.386 . S
C1604 C1606 1.391 . S
C1605 C1604 1.386 . S
C1605 C1609 1.393 . S
C1606 H1598 0.950 . S
C1606 C1604 1.391 . S
C1606 C1607 1.400 . S
C1607 C1606 1.400 . S
C1607 C1608 1.398 . S
C1607 C1613 1.491 . S
C1608 H1599 0.950 . S
C1608 C1607 1.398 . S
C1608 C1609 1.391 . S
C1609 H1597 0.950 . S
C1609 C1605 1.393 . S
C1609 C1608 1.391 . S
C1610 H1600 0.950 . S
C1610 C1611 1.386 . S
C1610 C1612 1.391 . S
C1611 C1610 1.386 . S
C1611 C1615 1.393 . S
C1612 H1601 0.950 . S
C1612 C1610 1.391 . S
C1612 C1613 1.400 . S
C1613 C1607 1.491 . S
C1613 C1612 1.400 . S
C1613 C1614 1.398 . S
C1614 H1602 0.950 . S
C1614 C1613 1.398 . S
C1614 C1615 1.391 . S
C1615 H1603 0.950 . S
C1615 C1611 1.393 . S
C1615 C1614 1.391 . S
H1616 C1624 0.950 . S
H1617 C1629 0.950 . S
H1618 C1626 0.950 . S
H1619 C1628 0.950 . S
H1620 C1630 0.950 . S
H1621 C1632 0.950 . S
H1622 C1634 0.950 . S
H1623 C1635 0.950 . S
C1624 H1616 0.950 . S
C1624 C1625 1.386 . S
C1624 C1626 1.391 . S
C1625 C1624 1.386 . S
C1625 C1629 1.393 . S
C1626 H1618 0.950 . S
C1626 C1624 1.391 . S
C1626 C1627 1.400 . S
C1627 C1626 1.400 . S
C1627 C1628 1.398 . S
C1627 C1633 1.491 . S
C1628 H1619 0.950 . S
C1628 C1627 1.398 . S
C1628 C1629 1.391 . S
C1629 H1617 0.950 . S
C1629 C1625 1.393 . S
C1629 C1628 1.391 . S
C1630 H1620 0.950 . S
C1630 C1631 1.386 . S
C1630 C1632 1.391 . S
C1631 C1630 1.386 . S
C1631 C1635 1.393 . S
C1632 H1621 0.950 . S
C1632 C1630 1.391 . S
C1632 C1633 1.400 . S
C1633 C1627 1.491 . S
C1633 C1632 1.400 . S
C1633 C1634 1.398 . S
C1634 H1622 0.950 . S
C1634 C1633 1.398 . S
C1634 C1635 1.391 . S
C1635 H1623 0.950 . S
C1635 C1631 1.393 . S
C1635 C1634 1.391 . S
H1636 C1644 0.950 . S
H1637 C1649 0.950 . S
H1638 C1646 0.950 . S
H1639 C1648 0.950 . S
H1640 C1650 0.950 . S
H1641 C1652 0.950 . S
H1642 C1654 0.950 . S
H1643 C1655 0.950 . S
C1644 H1636 0.950 . S
C1644 C1645 1.386 . S
C1644 C1646 1.391 . S
C1645 C1644 1.386 . S
C1645 C1649 1.393 . S
C1646 H1638 0.950 . S
C1646 C1644 1.391 . S
C1646 C1647 1.400 . S
C1647 C1646 1.400 . S
C1647 C1648 1.398 . S
C1647 C1653 1.491 . S
C1648 H1639 0.950 . S
C1648 C1647 1.398 . S
C1648 C1649 1.391 . S
C1649 H1637 0.950 . S
C1649 C1645 1.393 . S
C1649 C1648 1.391 . S
C1650 H1640 0.950 . S
C1650 C1651 1.386 . S
C1650 C1652 1.391 . S
C1651 C1650 1.386 . S
C1651 C1655 1.393 . S
C1652 H1641 0.950 . S
C1652 C1650 1.391 . S
C1652 C1653 1.400 . S
C1653 C1647 1.491 . S
C1653 C1652 1.400 . S
C1653 C1654 1.398 . S
C1654 H1642 0.950 . S
C1654 C1653 1.398 . S
C1654 C1655 1.391 . S
C1655 H1643 0.950 . S
C1655 C1651 1.393 . S
C1655 C1654 1.391 . S
H1656 C1664 0.950 . S
H1657 C1669 0.950 . S
H1658 C1666 0.950 . S
H1659 C1668 0.950 . S
H1660 C1670 0.950 1_554 S
H1661 C1672 0.950 . S
H1662 C1674 0.950 . S
H1663 C1675 0.950 . S
C1664 H1656 0.950 . S
C1664 C1665 1.386 1_655 S
C1664 C1666 1.391 . S
C1665 C1664 1.386 1_455 S
C1665 C1669 1.393 . S
C1666 H1658 0.950 . S
C1666 C1664 1.391 . S
C1666 C1667 1.400 1_655 S
C1667 C1666 1.400 1_455 S
C1667 C1668 1.398 . S
C1667 C1673 1.491 . S
C1668 H1659 0.950 . S
C1668 C1667 1.398 . S
C1668 C1669 1.391 . S
C1669 H1657 0.950 . S
C1669 C1665 1.393 . S
C1669 C1668 1.391 . S
C1670 H1660 0.950 1_556 S
C1670 C1671 1.416 . S
C1670 C1672 1.391 . S
C1671 C1670 1.416 . S
C1671 C1675 1.375 1_455 S
C1672 H1661 0.950 . S
C1672 C1670 1.391 . S
C1672 C1673 1.400 . S
C1673 C1667 1.491 . S
C1673 C1672 1.400 . S
C1673 C1674 1.398 1_455 S
C1674 H1662 0.950 . S
C1674 C1673 1.398 1_655 S
C1674 C1675 1.391 . S
C1675 H1663 0.950 . S
C1675 C1671 1.375 1_655 S
C1675 C1674 1.391 . S
H1676 C1684 0.950 . S
H1677 C1689 0.950 . S
H1678 C1686 0.950 . S
H1679 C1688 0.950 . S
H1680 C1690 0.950 . S
H1681 C1692 0.950 . S
H1682 C1694 0.950 . S
H1683 C1695 0.950 . S
C1684 H1676 0.950 . S
C1684 C1685 1.386 . S
C1684 C1686 1.391 . S
C1685 C1684 1.386 . S
C1685 C1689 1.393 . S
C1686 H1678 0.950 . S
C1686 C1684 1.391 . S
C1686 C1687 1.400 . S
C1687 C1686 1.400 . S
C1687 C1688 1.398 . S
C1687 C1693 1.491 . S
C1688 H1679 0.950 . S
C1688 C1687 1.398 . S
C1688 C1689 1.391 . S
C1689 H1677 0.950 . S
C1689 C1685 1.393 . S
C1689 C1688 1.391 . S
C1690 H1680 0.950 . S
C1690 C1691 1.386 . S
C1690 C1692 1.391 . S
C1691 C1690 1.386 . S
C1691 C1695 1.393 . S
C1692 H1681 0.950 . S
C1692 C1690 1.391 . S
C1692 C1693 1.400 . S
C1693 C1687 1.491 . S
C1693 C1692 1.400 . S
C1693 C1694 1.398 . S
C1694 H1682 0.950 . S
C1694 C1693 1.398 . S
C1694 C1695 1.391 . S
C1695 H1683 0.950 . S
C1695 C1691 1.393 . S
C1695 C1694 1.391 . S
H1696 C1704 0.950 . S
H1697 C1709 0.950 . S
H1698 C1706 0.950 . S
H1699 C1708 0.950 . S
H1700 C1710 0.950 . S
H1701 C1712 0.950 . S
H1702 C1714 0.950 . S
H1703 C1715 0.950 . S
C1704 H1696 0.950 . S
C1704 C1705 1.386 . S
C1704 C1706 1.391 . S
C1705 C1704 1.386 . S
C1705 C1709 1.393 . S
C1706 H1698 0.950 . S
C1706 C1704 1.391 . S
C1706 C1707 1.400 . S
C1707 C1706 1.400 . S
C1707 C1708 1.398 . S
C1707 C1713 1.491 . S
C1708 H1699 0.950 . S
C1708 C1707 1.398 . S
C1708 C1709 1.391 . S
C1709 H1697 0.950 . S
C1709 C1705 1.393 . S
C1709 C1708 1.391 . S
C1710 H1700 0.950 . S
C1710 C1711 1.386 . S
C1710 C1712 1.391 . S
C1711 C1710 1.386 . S
C1711 C1715 1.393 . S
C1712 H1701 0.950 . S
C1712 C1710 1.391 . S
C1712 C1713 1.400 . S
C1713 C1707 1.491 . S
C1713 C1712 1.400 . S
C1713 C1714 1.398 . S
C1714 H1702 0.950 . S
C1714 C1713 1.398 . S
C1714 C1715 1.391 . S
C1715 H1703 0.950 . S
C1715 C1711 1.393 . S
C1715 C1714 1.391 . S
H1716 C1724 0.950 . S
H1717 C1729 0.950 . S
H1718 C1726 0.950 . S
H1719 C1728 0.950 . S
H1720 C1730 0.950 . S
H1721 C1732 0.950 . S
H1722 C1734 0.950 . S
H1723 C1735 0.950 . S
C1724 H1716 0.950 . S
C1724 C1725 1.386 . S
C1724 C1726 1.391 . S
C1725 C1724 1.386 . S
C1725 C1729 1.393 . S
C1726 H1718 0.950 . S
C1726 C1724 1.391 . S
C1726 C1727 1.400 . S
C1727 C1726 1.400 . S
C1727 C1728 1.398 . S
C1727 C1733 1.491 . S
C1728 H1719 0.950 . S
C1728 C1727 1.398 . S
C1728 C1729 1.391 . S
C1729 H1717 0.950 . S
C1729 C1725 1.393 . S
C1729 C1728 1.391 . S
C1730 H1720 0.950 . S
C1730 C1731 1.386 . S
C1730 C1732 1.391 . S
C1731 C1730 1.386 . S
C1731 C1735 1.393 . S
C1732 H1721 0.950 . S
C1732 C1730 1.391 . S
C1732 C1733 1.400 . S
C1733 C1727 1.491 . S
C1733 C1732 1.400 . S
C1733 C1734 1.398 . S
C1734 H1722 0.950 . S
C1734 C1733 1.398 . S
C1734 C1735 1.391 . S
C1735 H1723 0.950 . S
C1735 C1731 1.393 . S
C1735 C1734 1.391 . S
H1736 C1744 0.950 . S
H1737 C1749 0.950 . S
H1738 C1746 0.950 . S
H1739 C1748 0.950 . S
H1740 C1750 0.950 . S
H1741 C1752 0.950 . S
H1742 C1754 0.950 . S
H1743 C1755 0.950 . S
C1744 H1736 0.950 . S
C1744 C1745 1.386 . S
C1744 C1746 1.391 . S
C1745 C1744 1.386 . S
C1745 C1749 1.393 1_655 S
C1746 H1738 0.950 . S
C1746 C1744 1.391 . S
C1746 C1747 1.400 . S
C1747 C1746 1.400 . S
C1747 C1748 1.398 1_655 S
C1747 C1753 1.491 . S
C1748 H1739 0.950 . S
C1748 C1747 1.398 1_455 S
C1748 C1749 1.391 . S
C1749 H1737 0.950 . S
C1749 C1745 1.393 1_455 S
C1749 C1748 1.391 . S
C1750 H1740 0.950 . S
C1750 C1751 1.386 1_455 S
C1750 C1752 1.391 . S
C1751 C1750 1.386 1_655 S
C1751 C1755 1.393 . S
C1752 H1741 0.950 . S
C1752 C1750 1.391 . S
C1752 C1753 1.400 1_455 S
C1753 C1747 1.491 . S
C1753 C1752 1.400 1_655 S
C1753 C1754 1.398 . S
C1754 H1742 0.950 . S
C1754 C1753 1.398 . S
C1754 C1755 1.391 . S
C1755 H1743 0.950 . S
C1755 C1751 1.393 . S
C1755 C1754 1.391 . S
H1756 C1764 0.950 . S
H1757 C1769 0.950 . S
H1758 C1766 0.950 . S
H1759 C1768 0.950 . S
H1760 C1770 0.950 . S
H1761 C1772 0.950 . S
H1762 C1774 0.950 . S
H1763 C1775 0.950 . S
C1764 H1756 0.950 . S
C1764 C1765 1.386 . S
C1764 C1766 1.391 . S
C1765 C1764 1.386 . S
C1765 C1769 1.393 . S
C1766 H1758 0.950 . S
C1766 C1764 1.391 . S
C1766 C1767 1.400 . S
C1767 C1766 1.400 . S
C1767 C1768 1.398 . S
C1767 C1773 1.491 . S
C1768 H1759 0.950 . S
C1768 C1767 1.398 . S
C1768 C1769 1.391 . S
C1769 H1757 0.950 . S
C1769 C1765 1.393 . S
C1769 C1768 1.391 . S
C1770 H1760 0.950 . S
C1770 C1771 1.386 . S
C1770 C1772 1.391 . S
C1771 C1770 1.386 . S
C1771 C1775 1.393 . S
C1772 H1761 0.950 . S
C1772 C1770 1.391 . S
C1772 C1773 1.400 . S
C1773 C1767 1.491 . S
C1773 C1772 1.400 . S
C1773 C1774 1.398 . S
C1774 H1762 0.950 . S
C1774 C1773 1.398 . S
C1774 C1775 1.391 . S
C1775 H1763 0.950 . S
C1775 C1771 1.393 . S
C1775 C1774 1.391 . S
H1776 C1784 0.950 . S
H1777 C1789 0.950 . S
H1778 C1786 0.950 . S
H1779 C1788 0.950 . S
H1780 C1790 0.950 . S
H1781 C1792 0.950 . S
H1782 C1794 0.950 . S
H1783 C1795 0.950 . S
C1784 H1776 0.950 . S
C1784 C1785 1.386 . S
C1784 C1786 1.391 . S
C1785 C1784 1.386 . S
C1785 C1789 1.393 . S
C1786 H1778 0.950 . S
C1786 C1784 1.391 . S
C1786 C1787 1.400 . S
C1787 C1786 1.400 . S
C1787 C1788 1.398 . S
C1787 C1793 1.491 . S
C1788 H1779 0.950 . S
C1788 C1787 1.398 . S
C1788 C1789 1.391 . S
C1789 H1777 0.950 . S
C1789 C1785 1.393 . S
C1789 C1788 1.391 . S
C1790 H1780 0.950 . S
C1790 C1791 1.386 . S
C1790 C1792 1.391 . S
C1791 C1790 1.386 . S
C1791 C1795 1.393 . S
C1792 H1781 0.950 . S
C1792 C1790 1.391 . S
C1792 C1793 1.400 . S
C1793 C1787 1.491 . S
C1793 C1792 1.400 . S
C1793 C1794 1.398 . S
C1794 H1782 0.950 . S
C1794 C1793 1.398 . S
C1794 C1795 1.391 . S
C1795 H1783 0.950 . S
C1795 C1791 1.393 . S
C1795 C1794 1.391 . S
H1796 C1804 0.950 . S
H1797 C1809 0.950 . S
H1798 C1806 0.950 . S
H1799 C1808 0.950 . S
H1800 C1810 0.950 . S
H1801 C1812 0.950 . S
H1802 C1814 0.950 . S
H1803 C1815 0.950 . S
C1804 H1796 0.950 . S
C1804 C1805 1.386 . S
C1804 C1806 1.391 . S
C1805 C1804 1.386 . S
C1805 C1809 1.393 . S
C1806 H1798 0.950 . S
C1806 C1804 1.391 . S
C1806 C1807 1.400 . S
C1807 C1806 1.400 . S
C1807 C1808 1.398 . S
C1807 C1813 1.491 . S
C1808 H1799 0.950 . S
C1808 C1807 1.398 . S
C1808 C1809 1.391 . S
C1809 H1797 0.950 . S
C1809 C1805 1.393 . S
C1809 C1808 1.391 . S
C1810 H1800 0.950 . S
C1810 C1811 1.386 . S
C1810 C1812 1.391 . S
C1811 C1810 1.386 . S
C1811 C1815 1.393 . S
C1812 H1801 0.950 . S
C1812 C1810 1.391 . S
C1812 C1813 1.400 . S
C1813 C1807 1.491 . S
C1813 C1812 1.400 . S
C1813 C1814 1.398 . S
C1814 H1802 0.950 . S
C1814 C1813 1.398 . S
C1814 C1815 1.391 . S
C1815 H1803 0.950 . S
C1815 C1811 1.393 . S
C1815 C1814 1.391 . S
H1816 C1824 0.950 . S
H1817 C1829 0.950 . S
H1818 C1826 0.950 . S
H1819 C1828 0.950 . S
H1820 C1830 0.950 . S
H1821 C1832 0.950 . S
H1822 C1834 0.950 . S
H1823 C1835 0.950 . S
C1824 H1816 0.950 . S
C1824 C1825 1.386 . S
C1824 C1826 1.391 . S
C1825 C1824 1.386 . S
C1825 C1829 1.393 . S
C1826 H1818 0.950 . S
C1826 C1824 1.391 . S
C1826 C1827 1.400 . S
C1827 C1826 1.400 . S
C1827 C1828 1.398 . S
C1827 C1833 1.491 . S
C1828 H1819 0.950 . S
C1828 C1827 1.398 . S
C1828 C1829 1.391 . S
C1829 H1817 0.950 . S
C1829 C1825 1.393 . S
C1829 C1828 1.391 . S
C1830 H1820 0.950 . S
C1830 C1831 1.386 . S
C1830 C1832 1.391 . S
C1831 C1830 1.386 . S
C1831 C1835 1.393 . S
C1832 H1821 0.950 . S
C1832 C1830 1.391 . S
C1832 C1833 1.400 . S
C1833 C1827 1.491 . S
C1833 C1832 1.400 . S
C1833 C1834 1.398 . S
C1834 H1822 0.950 . S
C1834 C1833 1.398 . S
C1834 C1835 1.391 . S
C1835 H1823 0.950 . S
C1835 C1831 1.393 . S
C1835 C1834 1.391 . S
H1836 C1844 0.950 . S
H1837 C1849 0.950 . S
H1838 C1846 0.950 . S
H1839 C1848 0.950 . S
H1840 C1850 0.950 . S
H1841 C1852 0.950 . S
H1842 C1854 0.950 . S
H1843 C1855 0.950 . S
C1844 H1836 0.950 . S
C1844 C1845 1.386 . S
C1844 C1846 1.391 . S
C1845 C1844 1.386 . S
C1845 C1849 1.393 . S
C1846 H1838 0.950 . S
C1846 C1844 1.391 . S
C1846 C1847 1.400 . S
C1847 C1846 1.400 . S
C1847 C1848 1.398 . S
C1847 C1853 1.491 . S
C1848 H1839 0.950 . S
C1848 C1847 1.398 . S
C1848 C1849 1.391 . S
C1849 H1837 0.950 . S
C1849 C1845 1.393 . S
C1849 C1848 1.391 . S
C1850 H1840 0.950 . S
C1850 C1851 1.386 . S
C1850 C1852 1.391 . S
C1851 C1850 1.386 . S
C1851 C1855 1.393 . S
C1852 H1841 0.950 . S
C1852 C1850 1.391 . S
C1852 C1853 1.400 . S
C1853 C1847 1.491 . S
C1853 C1852 1.400 . S
C1853 C1854 1.398 . S
C1854 H1842 0.950 . S
C1854 C1853 1.398 . S
C1854 C1855 1.391 . S
C1855 H1843 0.950 . S
C1855 C1851 1.393 . S
C1855 C1854 1.391 . S
H1856 C1864 0.950 . S
H1857 C1869 0.950 . S
H1858 C1866 0.950 . S
H1859 C1868 0.950 . S
H1860 C1870 0.950 . S
H1861 C1872 0.950 . S
H1862 C1874 0.950 . S
H1863 C1875 0.950 . S
C1864 H1856 0.950 . S
C1864 C1865 1.386 . S
C1864 C1866 1.391 . S
C1865 C1864 1.386 . S
C1865 C1869 1.393 . S
C1866 H1858 0.950 . S
C1866 C1864 1.391 . S
C1866 C1867 1.400 . S
C1867 C1866 1.400 . S
C1867 C1868 1.398 . S
C1867 C1873 1.491 . S
C1868 H1859 0.950 . S
C1868 C1867 1.398 . S
C1868 C1869 1.391 . S
C1869 H1857 0.950 . S
C1869 C1865 1.393 . S
C1869 C1868 1.391 . S
C1870 H1860 0.950 . S
C1870 C1871 1.386 . S
C1870 C1872 1.391 . S
C1871 C1870 1.386 . S
C1871 C1875 1.393 . S
C1872 H1861 0.950 . S
C1872 C1870 1.391 . S
C1872 C1873 1.400 . S
C1873 C1867 1.491 . S
C1873 C1872 1.400 . S
C1873 C1874 1.398 . S
C1874 H1862 0.950 . S
C1874 C1873 1.398 . S
C1874 C1875 1.391 . S
C1875 H1863 0.950 . S
C1875 C1871 1.393 . S
C1875 C1874 1.391 . S
H1876 C1884 0.950 . S
H1877 C1889 0.950 . S
H1878 C1886 0.950 . S
H1879 C1888 0.950 . S
H1880 C1890 0.950 . S
H1881 C1892 0.950 . S
H1882 C1894 0.950 . S
H1883 C1895 0.950 . S
C1884 H1876 0.950 . S
C1884 C1885 1.386 . S
C1884 C1886 1.391 . S
C1885 C1884 1.386 . S
C1885 C1889 1.393 . S
C1886 H1878 0.950 . S
C1886 C1884 1.391 . S
C1886 C1887 1.400 . S
C1887 C1886 1.400 . S
C1887 C1888 1.398 . S
C1887 C1893 1.491 . S
C1888 H1879 0.950 . S
C1888 C1887 1.398 . S
C1888 C1889 1.391 . S
C1889 H1877 0.950 . S
C1889 C1885 1.393 . S
C1889 C1888 1.391 . S
C1890 H1880 0.950 . S
C1890 C1891 1.386 . S
C1890 C1892 1.391 . S
C1891 C1890 1.386 . S
C1891 C1895 1.393 . S
C1892 H1881 0.950 . S
C1892 C1890 1.391 . S
C1892 C1893 1.400 . S
C1893 C1887 1.491 . S
C1893 C1892 1.400 . S
C1893 C1894 1.398 . S
C1894 H1882 0.950 . S
C1894 C1893 1.398 . S
C1894 C1895 1.391 . S
C1895 H1883 0.950 . S
C1895 C1891 1.393 . S
C1895 C1894 1.391 . S
H1896 C1904 0.950 . S
H1897 C1909 0.950 . S
H1898 C1906 0.950 . S
H1899 C1908 0.950 . S
H1900 C1910 0.950 . S
H1901 C1912 0.950 . S
H1902 C1914 0.950 . S
H1903 C1915 0.950 . S
C1904 H1896 0.950 . S
C1904 C1905 1.386 . S
C1904 C1906 1.391 . S
C1905 C1904 1.386 . S
C1905 C1909 1.393 . S
C1906 H1898 0.950 . S
C1906 C1904 1.391 . S
C1906 C1907 1.400 . S
C1907 C1906 1.400 . S
C1907 C1908 1.398 . S
C1907 C1913 1.491 . S
C1908 H1899 0.950 . S
C1908 C1907 1.398 . S
C1908 C1909 1.391 . S
C1909 H1897 0.950 . S
C1909 C1905 1.393 . S
C1909 C1908 1.391 . S
C1910 H1900 0.950 . S
C1910 C1911 1.386 . S
C1910 C1912 1.391 . S
C1911 C1910 1.386 . S
C1911 C1915 1.393 . S
C1912 H1901 0.950 . S
C1912 C1910 1.391 . S
C1912 C1913 1.400 . S
C1913 C1907 1.491 . S
C1913 C1912 1.400 . S
C1913 C1914 1.398 . S
C1914 H1902 0.950 . S
C1914 C1913 1.398 . S
C1914 C1915 1.391 . S
C1915 H1903 0.950 . S
C1915 C1911 1.393 . S
C1915 C1914 1.391 . S
H1916 C1924 0.950 . S
H1917 C1929 0.950 . S
H1918 C1926 0.950 . S
H1919 C1928 0.950 . S
H1920 C1930 0.950 . S
H1921 C1932 0.950 . S
H1922 C1934 0.950 . S
H1923 C1935 0.950 . S
C1924 H1916 0.950 . S
C1924 C1925 1.386 . S
C1924 C1926 1.391 . S
C1925 C1924 1.386 . S
C1925 C1929 1.393 . S
C1926 H1918 0.950 . S
C1926 C1924 1.391 . S
C1926 C1927 1.400 . S
C1927 C1926 1.400 . S
C1927 C1928 1.398 . S
C1927 C1933 1.491 . S
C1928 H1919 0.950 . S
C1928 C1927 1.398 . S
C1928 C1929 1.391 . S
C1929 H1917 0.950 . S
C1929 C1925 1.393 . S
C1929 C1928 1.391 . S
C1930 H1920 0.950 . S
C1930 C1931 1.386 . S
C1930 C1932 1.391 . S
C1931 C1930 1.386 . S
C1931 C1935 1.393 . S
C1932 H1921 0.950 . S
C1932 C1930 1.391 . S
C1932 C1933 1.400 . S
C1933 C1927 1.491 . S
C1933 C1932 1.400 . S
C1933 C1934 1.398 . S
C1934 H1922 0.950 . S
C1934 C1933 1.398 . S
C1934 C1935 1.391 . S
C1935 H1923 0.950 . S
C1935 C1931 1.393 . S
C1935 C1934 1.391 . S
H1936 C1944 0.950 . S
H1937 C1949 0.950 . S
H1938 C1946 0.950 . S
H1939 C1948 0.950 . S
H1940 C1950 0.950 . S
H1941 C1952 0.950 . S
H1942 C1954 0.950 . S
H1943 C1955 0.950 . S
C1944 H1936 0.950 . S
C1944 C1945 1.386 . S
C1944 C1946 1.391 . S
C1945 C1944 1.386 . S
C1945 C1949 1.393 . S
C1946 H1938 0.950 . S
C1946 C1944 1.391 . S
C1946 C1947 1.400 . S
C1947 C1946 1.400 . S
C1947 C1948 1.398 . S
C1947 C1953 1.491 . S
C1948 H1939 0.950 . S
C1948 C1947 1.398 . S
C1948 C1949 1.391 . S
C1949 H1937 0.950 . S
C1949 C1945 1.393 . S
C1949 C1948 1.391 . S
C1950 H1940 0.950 . S
C1950 C1951 1.386 . S
C1950 C1952 1.391 . S
C1951 C1950 1.386 . S
C1951 C1955 1.393 . S
C1952 H1941 0.950 . S
C1952 C1950 1.391 . S
C1952 C1953 1.400 . S
C1953 C1947 1.491 . S
C1953 C1952 1.400 . S
C1953 C1954 1.398 . S
C1954 H1942 0.950 . S
C1954 C1953 1.398 . S
C1954 C1955 1.391 . S
C1955 H1943 0.950 . S
C1955 C1951 1.393 . S
C1955 C1954 1.391 . S
H1956 C1964 0.950 . S
H1957 C1969 0.950 . S
H1958 C1966 0.950 . S
H1959 C1968 0.950 . S
H1960 C1970 0.950 . S
H1961 C1972 0.950 . S
H1962 C1974 0.950 . S
H1963 C1975 0.950 . S
C1964 H1956 0.950 . S
C1964 C1965 1.386 . S
C1964 C1966 1.391 . S
C1965 C1964 1.386 . S
C1965 C1969 1.393 . S
C1966 H1958 0.950 . S
C1966 C1964 1.391 . S
C1966 C1967 1.400 . S
C1967 C1966 1.400 . S
C1967 C1968 1.398 . S
C1967 C1973 1.491 . S
C1968 H1959 0.950 . S
C1968 C1967 1.398 . S
C1968 C1969 1.391 . S
C1969 H1957 0.950 . S
C1969 C1965 1.393 . S
C1969 C1968 1.391 . S
C1970 H1960 0.950 . S
C1970 C1971 1.386 . S
C1970 C1972 1.391 . S
C1971 C1970 1.386 . S
C1971 C1975 1.393 . S
C1972 H1961 0.950 . S
C1972 C1970 1.391 . S
C1972 C1973 1.400 . S
C1973 C1967 1.491 . S
C1973 C1972 1.400 . S
C1973 C1974 1.398 . S
C1974 H1962 0.950 . S
C1974 C1973 1.398 . S
C1974 C1975 1.391 . S
C1975 H1963 0.950 . S
C1975 C1971 1.393 . S
C1975 C1974 1.391 . S
H1976 C1984 0.950 . S
H1977 C1989 0.950 . S
H1978 C1986 0.950 . S
H1979 C1988 0.950 . S
H1980 C1990 0.950 . S
H1981 C1992 0.950 . S
H1982 C1994 0.950 . S
H1983 C1995 0.950 . S
C1984 H1976 0.950 . S
C1984 C1985 1.386 . S
C1984 C1986 1.391 . S
C1985 C1984 1.386 . S
C1985 C1989 1.393 . S
C1986 H1978 0.950 . S
C1986 C1984 1.391 . S
C1986 C1987 1.400 . S
C1987 C1986 1.400 . S
C1987 C1988 1.398 . S
C1987 C1993 1.491 . S
C1988 H1979 0.950 . S
C1988 C1987 1.398 . S
C1988 C1989 1.391 . S
C1989 H1977 0.950 . S
C1989 C1985 1.393 . S
C1989 C1988 1.391 . S
C1990 H1980 0.950 . S
C1990 C1991 1.386 . S
C1990 C1992 1.391 . S
C1991 C1990 1.386 . S
C1991 C1995 1.393 . S
C1992 H1981 0.950 . S
C1992 C1990 1.391 . S
C1992 C1993 1.400 . S
C1993 C1987 1.491 . S
C1993 C1992 1.400 . S
C1993 C1994 1.398 . S
C1994 H1982 0.950 . S
C1994 C1993 1.398 . S
C1994 C1995 1.391 . S
C1995 H1983 0.950 . S
C1995 C1991 1.393 . S
C1995 C1994 1.391 . S
H1996 C2004 0.950 . S
H1997 C2009 0.950 . S
H1998 C2006 0.950 . S
H1999 C2008 0.950 . S
H2000 C2010 0.950 1_556 S
H2001 C2012 0.950 1_556 S
H2002 C2014 0.950 . S
H2003 C2015 0.950 . S
C2004 H1996 0.950 . S
C2004 C2005 1.386 . S
C2004 C2006 1.391 . S
C2005 C2004 1.386 . S
C2005 C2009 1.393 . S
C2006 H1998 0.950 . S
C2006 C2004 1.391 . S
C2006 C2007 1.400 . S
C2007 C2006 1.400 . S
C2007 C2008 1.398 . S
C2007 C2013 1.491 . S
C2008 H1999 0.950 . S
C2008 C2007 1.398 . S
C2008 C2009 1.391 . S
C2009 H1997 0.950 . S
C2009 C2005 1.393 . S
C2009 C2008 1.391 . S
C2010 H2000 0.950 1_554 S
C2010 C2011 1.386 1_565 S
C2010 C2012 1.391 . S
C2011 C2010 1.386 1_545 S
C2011 C2015 1.393 . S
C2012 H2001 0.950 1_554 S
C2012 C2010 1.391 . S
C2012 C2013 1.400 . S
C2013 C2007 1.491 . S
C2013 C2012 1.400 . S
C2013 C2014 1.398 1_565 S
C2014 H2002 0.950 . S
C2014 C2013 1.398 1_545 S
C2014 C2015 1.391 . S
C2015 H2003 0.950 . S
C2015 C2011 1.393 . S
C2015 C2014 1.391 . S
H2016 C2024 0.950 . S
H2017 C2029 0.950 . S
H2018 C2026 0.950 . S
H2019 C2028 0.950 . S
H2020 C2030 0.950 . S
H2021 C2032 0.950 . S
H2022 C2034 0.950 . S
H2023 C2035 0.950 . S
C2024 H2016 0.950 . S
C2024 C2025 1.386 . S
C2024 C2026 1.391 . S
C2025 C2024 1.386 . S
C2025 C2029 1.393 . S
C2026 H2018 0.950 . S
C2026 C2024 1.391 . S
C2026 C2027 1.400 . S
C2027 C2026 1.400 . S
C2027 C2028 1.398 . S
C2027 C2033 1.491 . S
C2028 H2019 0.950 . S
C2028 C2027 1.398 . S
C2028 C2029 1.391 . S
C2029 H2017 0.950 . S
C2029 C2025 1.393 . S
C2029 C2028 1.391 . S
C2030 H2020 0.950 . S
C2030 C2031 1.386 . S
C2030 C2032 1.391 . S
C2031 C2030 1.386 . S
C2031 C2035 1.393 . S
C2032 H2021 0.950 . S
C2032 C2030 1.391 . S
C2032 C2033 1.400 . S
C2033 C2027 1.491 . S
C2033 C2032 1.400 . S
C2033 C2034 1.398 . S
C2034 H2022 0.950 . S
C2034 C2033 1.398 . S
C2034 C2035 1.391 . S
C2035 H2023 0.950 . S
C2035 C2031 1.393 . S
C2035 C2034 1.391 . S
H2036 C2044 0.950 . S
H2037 C2049 0.950 . S
H2038 C2046 0.950 . S
H2039 C2048 0.950 . S
H2040 C2050 0.950 . S
H2041 C2052 0.950 . S
H2042 C2054 0.950 1_556 S
H2043 C2055 0.950 . S
C2044 H2036 0.950 . S
C2044 C2045 1.386 1_556 S
C2044 C2046 1.391 . S
C2045 C2044 1.386 1_554 S
C2045 C2049 1.393 . S
C2046 H2038 0.950 . S
C2046 C2044 1.391 . S
C2046 C2047 1.400 1_556 S
C2047 C2046 1.400 1_554 S
C2047 C2048 1.398 . S
C2047 C2053 1.491 . S
C2048 H2039 0.950 . S
C2048 C2047 1.398 . S
C2048 C2049 1.391 . S
C2049 H2037 0.950 . S
C2049 C2045 1.393 . S
C2049 C2048 1.391 . S
C2050 H2040 0.950 . S
C2050 C2051 1.386 . S
C2050 C2052 1.391 . S
C2051 C2050 1.386 . S
C2051 C2055 1.393 . S
C2052 H2041 0.950 . S
C2052 C2050 1.391 . S
C2052 C2053 1.400 . S
C2053 C2047 1.491 . S
C2053 C2052 1.400 . S
C2053 C2054 1.398 . S
C2054 H2042 0.950 1_554 S
C2054 C2053 1.398 . S
C2054 C2055 1.391 . S
C2055 H2043 0.950 . S
C2055 C2051 1.393 . S
C2055 C2054 1.391 . S
H2056 C2064 0.950 . S
H2057 C2069 0.950 . S
H2058 C2066 0.950 . S
H2059 C2068 0.950 . S
H2060 C2070 0.950 . S
H2061 C2072 0.950 . S
H2062 C2074 0.950 . S
H2063 C2075 0.950 . S
C2064 H2056 0.950 . S
C2064 C2065 1.386 . S
C2064 C2066 1.391 . S
C2065 C2064 1.386 . S
C2065 C2069 1.393 . S
C2066 H2058 0.950 . S
C2066 C2064 1.391 . S
C2066 C2067 1.400 . S
C2067 C2066 1.400 . S
C2067 C2068 1.398 . S
C2067 C2073 1.491 . S
C2068 H2059 0.950 . S
C2068 C2067 1.398 . S
C2068 C2069 1.391 . S
C2069 H2057 0.950 . S
C2069 C2065 1.393 . S
C2069 C2068 1.391 . S
C2070 H2060 0.950 . S
C2070 C2071 1.386 . S
C2070 C2072 1.391 . S
C2071 C2070 1.386 . S
C2071 C2075 1.393 . S
C2072 H2061 0.950 . S
C2072 C2070 1.391 . S
C2072 C2073 1.400 . S
C2073 C2067 1.491 . S
C2073 C2072 1.400 . S
C2073 C2074 1.398 . S
C2074 H2062 0.950 . S
C2074 C2073 1.398 . S
C2074 C2075 1.391 . S
C2075 H2063 0.950 . S
C2075 C2071 1.393 . S
C2075 C2074 1.391 . S
H2076 C2084 0.950 . S
H2077 C2089 0.950 1_545 S
H2078 C2086 0.950 . S
H2079 C2088 0.950 . S
H2080 C2090 0.950 . S
H2081 C2092 0.950 . S
H2082 C2094 0.950 . S
H2083 C2095 0.950 . S
C2084 H2076 0.950 . S
C2084 C2085 1.386 . S
C2084 C2086 1.391 . S
C2085 C2084 1.386 . S
C2085 C2089 1.393 . S
C2086 H2078 0.950 . S
C2086 C2084 1.391 . S
C2086 C2087 1.400 . S
C2087 C2086 1.400 . S
C2087 C2088 1.398 . S
C2087 C2093 1.491 . S
C2088 H2079 0.950 . S
C2088 C2087 1.398 . S
C2088 C2089 1.391 . S
C2089 H2077 0.950 1_565 S
C2089 C2085 1.393 . S
C2089 C2088 1.391 . S
C2090 H2080 0.950 . S
C2090 C2091 1.386 . S
C2090 C2092 1.391 . S
C2091 C2090 1.386 . S
C2091 C2095 1.393 . S
C2092 H2081 0.950 . S
C2092 C2090 1.391 . S
C2092 C2093 1.400 . S
C2093 C2087 1.491 . S
C2093 C2092 1.400 . S
C2093 C2094 1.398 . S
C2094 H2082 0.950 . S
C2094 C2093 1.398 . S
C2094 C2095 1.391 . S
C2095 H2083 0.950 . S
C2095 C2091 1.393 . S
C2095 C2094 1.391 . S
H2096 C2104 0.950 . S
H2097 C2109 0.950 . S
H2098 C2106 0.950 . S
H2099 C2108 0.950 . S
H2100 C2110 0.950 . S
H2101 C2112 0.950 . S
H2102 C2114 0.950 . S
H2103 C2115 0.950 . S
C2104 H2096 0.950 . S
C2104 C2105 1.386 . S
C2104 C2106 1.391 . S
C2105 C2104 1.386 . S
C2105 C2109 1.393 . S
C2106 H2098 0.950 . S
C2106 C2104 1.391 . S
C2106 C2107 1.400 . S
C2107 C2106 1.400 . S
C2107 C2108 1.398 . S
C2107 C2113 1.491 . S
C2108 H2099 0.950 . S
C2108 C2107 1.398 . S
C2108 C2109 1.391 . S
C2109 H2097 0.950 . S
C2109 C2105 1.393 . S
C2109 C2108 1.391 . S
C2110 H2100 0.950 . S
C2110 C2111 1.386 . S
C2110 C2112 1.391 . S
C2111 C2110 1.386 . S
C2111 C2115 1.393 . S
C2112 H2101 0.950 . S
C2112 C2110 1.391 . S
C2112 C2113 1.400 . S
C2113 C2107 1.491 . S
C2113 C2112 1.400 . S
C2113 C2114 1.398 . S
C2114 H2102 0.950 . S
C2114 C2113 1.398 . S
C2114 C2115 1.391 . S
C2115 H2103 0.950 . S
C2115 C2111 1.393 . S
C2115 C2114 1.391 . S
H2116 C2124 0.950 . S
H2117 C2129 0.950 . S
H2118 C2126 0.950 . S
H2119 C2128 0.950 . S
H2120 C2130 0.950 . S
H2121 C2132 0.950 . S
H2122 C2134 0.950 . S
H2123 C2135 0.950 . S
C2124 H2116 0.950 . S
C2124 C2125 1.386 . S
C2124 C2126 1.391 . S
C2125 C2124 1.386 . S
C2125 C2129 1.393 . S
C2126 H2118 0.950 . S
C2126 C2124 1.391 . S
C2126 C2127 1.400 . S
C2127 C2126 1.400 . S
C2127 C2128 1.398 . S
C2127 C2133 1.491 . S
C2128 H2119 0.950 . S
C2128 C2127 1.398 . S
C2128 C2129 1.391 . S
C2129 H2117 0.950 . S
C2129 C2125 1.393 . S
C2129 C2128 1.391 . S
C2130 H2120 0.950 . S
C2130 C2131 1.386 . S
C2130 C2132 1.391 . S
C2131 C2130 1.386 . S
C2131 C2135 1.393 . S
C2132 H2121 0.950 . S
C2132 C2130 1.391 . S
C2132 C2133 1.400 . S
C2133 C2127 1.491 . S
C2133 C2132 1.400 . S
C2133 C2134 1.398 . S
C2134 H2122 0.950 . S
C2134 C2133 1.398 . S
C2134 C2135 1.391 . S
C2135 H2123 0.950 . S
C2135 C2131 1.393 . S
C2135 C2134 1.391 . S
H2136 C2144 0.950 . S
H2137 C2149 0.950 . S
H2138 C2146 0.950 . S
H2139 C2148 0.950 . S
H2140 C2150 0.950 . S
H2141 C2152 0.950 . S
H2142 C2154 0.950 . S
H2143 C2155 0.950 . S
C2144 H2136 0.950 . S
C2144 C2145 1.386 . S
C2144 C2146 1.391 . S
C2145 C2144 1.386 . S
C2145 C2149 1.393 1_455 S
C2146 H2138 0.950 . S
C2146 C2144 1.391 . S
C2146 C2147 1.400 . S
C2147 C2146 1.400 . S
C2147 C2148 1.398 1_455 S
C2147 C2153 1.491 . S
C2148 H2139 0.950 . S
C2148 C2147 1.398 1_655 S
C2148 C2149 1.391 . S
C2149 H2137 0.950 . S
C2149 C2145 1.393 1_655 S
C2149 C2148 1.391 . S
C2150 H2140 0.950 . S
C2150 C2151 1.386 1_655 S
C2150 C2152 1.391 . S
C2151 C2150 1.386 1_455 S
C2151 C2155 1.393 . S
C2152 H2141 0.950 . S
C2152 C2150 1.391 . S
C2152 C2153 1.400 1_655 S
C2153 C2147 1.491 . S
C2153 C2152 1.400 1_455 S
C2153 C2154 1.398 . S
C2154 H2142 0.950 . S
C2154 C2153 1.398 . S
C2154 C2155 1.391 . S
C2155 H2143 0.950 . S
C2155 C2151 1.393 . S
C2155 C2154 1.391 . S
H2156 C2164 0.950 . S
H2157 C2169 0.950 . S
H2158 C2166 0.950 . S
H2159 C2168 0.950 . S
H2160 C2170 0.950 . S
H2161 C2172 0.950 . S
H2162 C2174 0.950 . S
H2163 C2175 0.950 . S
C2164 H2156 0.950 . S
C2164 C2165 1.386 . S
C2164 C2166 1.391 . S
C2165 C2164 1.386 . S
C2165 C2169 1.393 . S
C2166 H2158 0.950 . S
C2166 C2164 1.391 . S
C2166 C2167 1.400 . S
C2167 C2166 1.400 . S
C2167 C2168 1.398 . S
C2167 C2173 1.491 . S
C2168 H2159 0.950 . S
C2168 C2167 1.398 . S
C2168 C2169 1.391 . S
C2169 H2157 0.950 . S
C2169 C2165 1.393 . S
C2169 C2168 1.391 . S
C2170 H2160 0.950 . S
C2170 C2171 1.386 . S
C2170 C2172 1.391 . S
C2171 C2170 1.386 . S
C2171 C2175 1.393 . S
C2172 H2161 0.950 . S
C2172 C2170 1.391 . S
C2172 C2173 1.400 . S
C2173 C2167 1.491 . S
C2173 C2172 1.400 . S
C2173 C2174 1.398 . S
C2174 H2162 0.950 . S
C2174 C2173 1.398 . S
C2174 C2175 1.391 . S
C2175 H2163 0.950 . S
C2175 C2171 1.393 . S
C2175 C2174 1.391 . S
H2176 C2184 0.950 . S
H2177 C2189 0.950 . S
H2178 C2186 0.950 . S
H2179 C2188 0.950 . S
H2180 C2190 0.950 . S
H2181 C2192 0.950 . S
H2182 C2194 0.950 . S
H2183 C2195 0.950 . S
C2184 H2176 0.950 . S
C2184 C2185 1.386 . S
C2184 C2186 1.391 . S
C2185 C2184 1.386 . S
C2185 C2189 1.393 . S
C2186 H2178 0.950 . S
C2186 C2184 1.391 . S
C2186 C2187 1.400 . S
C2187 C2186 1.400 . S
C2187 C2188 1.398 . S
C2187 C2193 1.491 . S
C2188 H2179 0.950 . S
C2188 C2187 1.398 . S
C2188 C2189 1.391 . S
C2189 H2177 0.950 . S
C2189 C2185 1.393 . S
C2189 C2188 1.391 . S
C2190 H2180 0.950 . S
C2190 C2191 1.386 . S
C2190 C2192 1.391 . S
C2191 C2190 1.386 . S
C2191 C2195 1.393 . S
C2192 H2181 0.950 . S
C2192 C2190 1.391 . S
C2192 C2193 1.400 . S
C2193 C2187 1.491 . S
C2193 C2192 1.400 . S
C2193 C2194 1.398 . S
C2194 H2182 0.950 . S
C2194 C2193 1.398 . S
C2194 C2195 1.391 . S
C2195 H2183 0.950 . S
C2195 C2191 1.393 . S
C2195 C2194 1.391 . S
H2196 C2204 0.950 . S
H2197 C2209 0.950 . S
H2198 C2206 0.950 . S
H2199 C2208 0.950 . S
H2200 C2210 0.950 . S
H2201 C2212 0.950 . S
H2202 C2214 0.950 . S
H2203 C2215 0.950 . S
C2204 H2196 0.950 . S
C2204 C2205 1.386 . S
C2204 C2206 1.391 . S
C2205 C2204 1.386 . S
C2205 C2209 1.393 . S
C2206 H2198 0.950 . S
C2206 C2204 1.391 . S
C2206 C2207 1.400 . S
C2207 C2206 1.400 . S
C2207 C2208 1.398 . S
C2207 C2213 1.491 . S
C2208 H2199 0.950 . S
C2208 C2207 1.398 . S
C2208 C2209 1.391 . S
C2209 H2197 0.950 . S
C2209 C2205 1.393 . S
C2209 C2208 1.391 . S
C2210 H2200 0.950 . S
C2210 C2211 1.386 . S
C2210 C2212 1.391 . S
C2211 C2210 1.386 . S
C2211 C2215 1.393 . S
C2212 H2201 0.950 . S
C2212 C2210 1.391 . S
C2212 C2213 1.400 . S
C2213 C2207 1.491 . S
C2213 C2212 1.400 . S
C2213 C2214 1.398 . S
C2214 H2202 0.950 . S
C2214 C2213 1.398 . S
C2214 C2215 1.391 . S
C2215 H2203 0.950 . S
C2215 C2211 1.393 . S
C2215 C2214 1.391 . S
H2216 C2224 0.950 . S
H2217 C2229 0.950 . S
H2218 C2226 0.950 . S
H2219 C2228 0.950 . S
H2220 C2230 0.950 . S
H2221 C2232 0.950 . S
H2222 C2234 0.950 . S
H2223 C2235 0.950 . S
C2224 H2216 0.950 . S
C2224 C2225 1.386 . S
C2224 C2226 1.391 . S
C2225 C2224 1.386 . S
C2225 C2229 1.393 1_455 S
C2226 H2218 0.950 . S
C2226 C2224 1.391 . S
C2226 C2227 1.400 . S
C2227 C2226 1.400 . S
C2227 C2228 1.398 1_455 S
C2227 C2233 1.491 . S
C2228 H2219 0.950 . S
C2228 C2227 1.398 1_655 S
C2228 C2229 1.391 . S
C2229 H2217 0.950 . S
C2229 C2225 1.393 1_655 S
C2229 C2228 1.391 . S
C2230 H2220 0.950 . S
C2230 C2231 1.386 1_655 S
C2230 C2232 1.391 . S
C2231 C2230 1.386 1_455 S
C2231 C2235 1.393 . S
C2232 H2221 0.950 . S
C2232 C2230 1.391 . S
C2232 C2233 1.400 1_655 S
C2233 C2227 1.491 . S
C2233 C2232 1.400 1_455 S
C2233 C2234 1.398 . S
C2234 H2222 0.950 . S
C2234 C2233 1.398 . S
C2234 C2235 1.391 . S
C2235 H2223 0.950 . S
C2235 C2231 1.393 . S
C2235 C2234 1.391 . S
H2236 C2244 0.950 . S
H2237 C2249 0.950 . S
H2238 C2246 0.950 . S
H2239 C2248 0.950 . S
H2240 C2250 0.950 . S
H2241 C2252 0.950 . S
H2242 C2254 0.950 . S
H2243 C2255 0.950 . S
C2244 H2236 0.950 . S
C2244 C2245 1.386 . S
C2244 C2246 1.391 . S
C2245 C2244 1.386 . S
C2245 C2249 1.393 . S
C2246 H2238 0.950 . S
C2246 C2244 1.391 . S
C2246 C2247 1.400 . S
C2247 C2246 1.400 . S
C2247 C2248 1.398 . S
C2247 C2253 1.491 . S
C2248 H2239 0.950 . S
C2248 C2247 1.398 . S
C2248 C2249 1.391 . S
C2249 H2237 0.950 . S
C2249 C2245 1.393 . S
C2249 C2248 1.391 . S
C2250 H2240 0.950 . S
C2250 C2251 1.386 . S
C2250 C2252 1.391 . S
C2251 C2250 1.386 . S
C2251 C2255 1.393 . S
C2252 H2241 0.950 . S
C2252 C2250 1.391 . S
C2252 C2253 1.400 . S
C2253 C2247 1.491 . S
C2253 C2252 1.400 . S
C2253 C2254 1.398 . S
C2254 H2242 0.950 . S
C2254 C2253 1.398 . S
C2254 C2255 1.391 . S
C2255 H2243 0.950 . S
C2255 C2251 1.393 . S
C2255 C2254 1.391 . S
H2256 C2264 0.950 . S
H2257 C2269 0.950 . S
H2258 C2266 0.950 . S
H2259 C2268 0.950 . S
H2260 C2270 0.950 . S
H2261 C2272 0.950 . S
H2262 C2274 0.950 . S
H2263 C2275 0.950 . S
C2264 H2256 0.950 . S
C2264 C2265 1.386 . S
C2264 C2266 1.391 . S
C2265 C2264 1.386 . S
C2265 C2269 1.393 . S
C2266 H2258 0.950 . S
C2266 C2264 1.391 . S
C2266 C2267 1.400 . S
C2267 C2266 1.400 . S
C2267 C2268 1.398 . S
C2267 C2273 1.491 . S
C2268 H2259 0.950 . S
C2268 C2267 1.398 . S
C2268 C2269 1.391 . S
C2269 H2257 0.950 . S
C2269 C2265 1.393 . S
C2269 C2268 1.391 . S
C2270 H2260 0.950 . S
C2270 C2271 1.386 . S
C2270 C2272 1.391 . S
C2271 C2270 1.386 . S
C2271 C2275 1.393 . S
C2272 H2261 0.950 . S
C2272 C2270 1.391 . S
C2272 C2273 1.400 . S
C2273 C2267 1.491 . S
C2273 C2272 1.400 . S
C2273 C2274 1.398 . S
C2274 H2262 0.950 . S
C2274 C2273 1.398 . S
C2274 C2275 1.391 . S
C2275 H2263 0.950 . S
C2275 C2271 1.393 . S
C2275 C2274 1.391 . S
H2276 C2284 0.950 . S
H2277 C2289 0.950 . S
H2278 C2286 0.950 . S
H2279 C2288 0.950 . S
H2280 C2290 0.950 . S
H2281 C2292 0.950 . S
H2282 C2294 0.950 . S
H2283 C2295 0.950 . S
C2284 H2276 0.950 . S
C2284 C2285 1.386 . S
C2284 C2286 1.391 . S
C2285 C2284 1.386 . S
C2285 C2289 1.393 . S
C2286 H2278 0.950 . S
C2286 C2284 1.391 . S
C2286 C2287 1.400 . S
C2287 C2286 1.400 . S
C2287 C2288 1.398 . S
C2287 C2293 1.491 . S
C2288 H2279 0.950 . S
C2288 C2287 1.398 . S
C2288 C2289 1.391 . S
C2289 H2277 0.950 . S
C2289 C2285 1.393 . S
C2289 C2288 1.391 . S
C2290 H2280 0.950 . S
C2290 C2291 1.386 . S
C2290 C2292 1.391 . S
C2291 C2290 1.386 . S
C2291 C2295 1.393 . S
C2292 H2281 0.950 . S
C2292 C2290 1.391 . S
C2292 C2293 1.400 . S
C2293 C2287 1.491 . S
C2293 C2292 1.400 . S
C2293 C2294 1.398 . S
C2294 H2282 0.950 . S
C2294 C2293 1.398 . S
C2294 C2295 1.391 . S
C2295 H2283 0.950 . S
C2295 C2291 1.393 . S
C2295 C2294 1.391 . S
H2296 C2304 0.950 . S
H2297 C2309 0.950 . S
H2298 C2306 0.950 . S
H2299 C2308 0.950 . S
H2300 C2310 0.950 . S
H2301 C2312 0.950 . S
H2302 C2314 0.950 . S
H2303 C2315 0.950 1_455 S
C2304 H2296 0.950 . S
C2304 C2305 1.386 . S
C2304 C2306 1.391 . S
C2305 C2304 1.386 . S
C2305 C2309 1.393 . S
C2306 H2298 0.950 . S
C2306 C2304 1.391 . S
C2306 C2307 1.400 . S
C2307 C2306 1.400 . S
C2307 C2308 1.398 . S
C2307 C2313 1.491 . S
C2308 H2299 0.950 . S
C2308 C2307 1.398 . S
C2308 C2309 1.391 . S
C2309 H2297 0.950 . S
C2309 C2305 1.393 . S
C2309 C2308 1.391 . S
C2310 H2300 0.950 . S
C2310 C2311 1.386 . S
C2310 C2312 1.391 . S
C2311 C2310 1.386 . S
C2311 C2315 1.393 . S
C2312 H2301 0.950 . S
C2312 C2310 1.391 . S
C2312 C2313 1.400 . S
C2313 C2307 1.491 . S
C2313 C2312 1.400 . S
C2313 C2314 1.398 . S
C2314 H2302 0.950 . S
C2314 C2313 1.398 . S
C2314 C2315 1.391 . S
C2315 H2303 0.950 1_655 S
C2315 C2311 1.393 . S
C2315 C2314 1.391 . S
H2316 C2324 0.950 . S
H2317 C2329 0.950 . S
H2318 C2326 0.950 . S
H2319 C2328 0.950 . S
H2320 C2330 0.950 . S
H2321 C2332 0.950 . S
H2322 C2334 0.950 . S
H2323 C2335 0.950 . S
C2324 H2316 0.950 . S
C2324 C2325 1.386 . S
C2324 C2326 1.391 . S
C2325 C2324 1.386 . S
C2325 C2329 1.393 . S
C2326 H2318 0.950 . S
C2326 C2324 1.391 . S
C2326 C2327 1.400 . S
C2327 C2326 1.400 . S
C2327 C2328 1.398 . S
C2327 C2333 1.491 . S
C2328 H2319 0.950 . S
C2328 C2327 1.398 . S
C2328 C2329 1.391 . S
C2329 H2317 0.950 . S
C2329 C2325 1.393 . S
C2329 C2328 1.391 . S
C2330 H2320 0.950 . S
C2330 C2331 1.386 . S
C2330 C2332 1.391 . S
C2331 C2330 1.386 . S
C2331 C2335 1.393 . S
C2332 H2321 0.950 . S
C2332 C2330 1.391 . S
C2332 C2333 1.400 . S
C2333 C2327 1.491 . S
C2333 C2332 1.400 . S
C2333 C2334 1.398 . S
C2334 H2322 0.950 . S
C2334 C2333 1.398 . S
C2334 C2335 1.391 . S
C2335 H2323 0.950 . S
C2335 C2331 1.393 . S
C2335 C2334 1.391 . S
H2336 C2344 0.950 . S
H2337 C2349 0.950 . S
H2338 C2346 0.950 . S
H2339 C2348 0.950 . S
H2340 C2350 0.950 . S
H2341 C2352 0.950 . S
H2342 C2354 0.950 . S
H2343 C2355 0.950 . S
C2344 H2336 0.950 . S
C2344 C2345 1.386 . S
C2344 C2346 1.391 . S
C2345 C2344 1.386 . S
C2345 C2349 1.393 . S
C2346 H2338 0.950 . S
C2346 C2344 1.391 . S
C2346 C2347 1.400 . S
C2347 C2346 1.400 . S
C2347 C2348 1.398 . S
C2347 C2353 1.491 . S
C2348 H2339 0.950 . S
C2348 C2347 1.398 . S
C2348 C2349 1.391 . S
C2349 H2337 0.950 . S
C2349 C2345 1.393 . S
C2349 C2348 1.391 . S
C2350 H2340 0.950 . S
C2350 C2351 1.386 . S
C2350 C2352 1.391 . S
C2351 C2350 1.386 . S
C2351 C2355 1.393 . S
C2352 H2341 0.950 . S
C2352 C2350 1.391 . S
C2352 C2353 1.400 . S
C2353 C2347 1.491 . S
C2353 C2352 1.400 . S
C2353 C2354 1.398 . S
C2354 H2342 0.950 . S
C2354 C2353 1.398 . S
C2354 C2355 1.391 . S
C2355 H2343 0.950 . S
C2355 C2351 1.393 . S
C2355 C2354 1.391 . S
H2356 C2364 0.950 . S
H2357 C2369 0.950 . S
H2358 C2366 0.950 . S
H2359 C2368 0.950 . S
H2360 C2370 0.950 . S
H2361 C2372 0.950 . S
H2362 C2374 0.950 . S
H2363 C2375 0.950 . S
C2364 H2356 0.950 . S
C2364 C2365 1.386 . S
C2364 C2366 1.391 . S
C2365 C2364 1.386 . S
C2365 C2369 1.393 . S
C2366 H2358 0.950 . S
C2366 C2364 1.391 . S
C2366 C2367 1.400 . S
C2367 C2366 1.400 . S
C2367 C2368 1.398 . S
C2367 C2373 1.491 . S
C2368 H2359 0.950 . S
C2368 C2367 1.398 . S
C2368 C2369 1.391 . S
C2369 H2357 0.950 . S
C2369 C2365 1.393 . S
C2369 C2368 1.391 . S
C2370 H2360 0.950 . S
C2370 C2371 1.386 . S
C2370 C2372 1.391 . S
C2371 C2370 1.386 . S
C2371 C2375 1.393 . S
C2372 H2361 0.950 . S
C2372 C2370 1.391 . S
C2372 C2373 1.400 . S
C2373 C2367 1.491 . S
C2373 C2372 1.400 . S
C2373 C2374 1.398 . S
C2374 H2362 0.950 . S
C2374 C2373 1.398 . S
C2374 C2375 1.391 . S
C2375 H2363 0.950 . S
C2375 C2371 1.393 . S
C2375 C2374 1.391 . S
H2376 C2384 0.950 . S
H2377 C2389 0.950 . S
H2378 C2386 0.950 . S
H2379 C2388 0.950 . S
H2380 C2390 0.950 . S
H2381 C2392 0.950 . S
H2382 C2394 0.950 . S
H2383 C2395 0.950 . S
C2384 H2376 0.950 . S
C2384 C2385 1.386 . S
C2384 C2386 1.391 . S
C2385 C2384 1.386 . S
C2385 C2389 1.393 . S
C2386 H2378 0.950 . S
C2386 C2384 1.391 . S
C2386 C2387 1.400 . S
C2387 C2386 1.400 . S
C2387 C2388 1.398 . S
C2387 C2393 1.491 . S
C2388 H2379 0.950 . S
C2388 C2387 1.398 . S
C2388 C2389 1.391 . S
C2389 H2377 0.950 . S
C2389 C2385 1.393 . S
C2389 C2388 1.391 . S
C2390 H2380 0.950 . S
C2390 C2391 1.386 . S
C2390 C2392 1.391 . S
C2391 C2390 1.386 . S
C2391 C2395 1.393 . S
C2392 H2381 0.950 . S
C2392 C2390 1.391 . S
C2392 C2393 1.400 . S
C2393 C2387 1.491 . S
C2393 C2392 1.400 . S
C2393 C2394 1.398 . S
C2394 H2382 0.950 . S
C2394 C2393 1.398 . S
C2394 C2395 1.391 . S
C2395 H2383 0.950 . S
C2395 C2391 1.393 . S
C2395 C2394 1.391 . S
H2396 C2404 0.950 . S
H2397 C2409 0.950 . S
H2398 C2406 0.950 . S
H2399 C2408 0.950 . S
H2400 C2410 0.950 . S
H2401 C2412 0.950 . S
H2402 C2414 0.950 . S
H2403 C2415 0.950 . S
C2404 H2396 0.950 . S
C2404 C2405 1.386 . S
C2404 C2406 1.391 . S
C2405 C2404 1.386 . S
C2405 C2409 1.393 . S
C2406 H2398 0.950 . S
C2406 C2404 1.391 . S
C2406 C2407 1.400 . S
C2407 C2406 1.400 . S
C2407 C2408 1.398 . S
C2407 C2413 1.491 . S
C2408 H2399 0.950 . S
C2408 C2407 1.398 . S
C2408 C2409 1.391 . S
C2409 H2397 0.950 . S
C2409 C2405 1.393 . S
C2409 C2408 1.391 . S
C2410 H2400 0.950 . S
C2410 C2411 1.386 . S
C2410 C2412 1.391 . S
C2411 C2410 1.386 . S
C2411 C2415 1.393 . S
C2412 H2401 0.950 . S
C2412 C2410 1.391 . S
C2412 C2413 1.400 . S
C2413 C2407 1.491 . S
C2413 C2412 1.400 . S
C2413 C2414 1.398 . S
C2414 H2402 0.950 . S
C2414 C2413 1.398 . S
C2414 C2415 1.391 . S
C2415 H2403 0.950 . S
C2415 C2411 1.393 . S
C2415 C2414 1.391 . S
H2416 C2424 0.950 . S
H2417 C2429 0.950 . S
H2418 C2426 0.950 . S
H2419 C2428 0.950 . S
H2420 C2430 0.950 . S
H2421 C2432 0.950 . S
H2422 C2434 0.950 . S
H2423 C2435 0.950 . S
C2424 H2416 0.950 . S
C2424 C2425 1.386 . S
C2424 C2426 1.391 . S
C2425 C2424 1.386 . S
C2425 C2429 1.393 . S
C2426 H2418 0.950 . S
C2426 C2424 1.391 . S
C2426 C2427 1.400 . S
C2427 C2426 1.400 . S
C2427 C2428 1.398 . S
C2427 C2433 1.491 . S
C2428 H2419 0.950 . S
C2428 C2427 1.398 . S
C2428 C2429 1.391 . S
C2429 H2417 0.950 . S
C2429 C2425 1.393 . S
C2429 C2428 1.391 . S
C2430 H2420 0.950 . S
C2430 C2431 1.386 . S
C2430 C2432 1.391 . S
C2431 C2430 1.386 . S
C2431 C2435 1.393 . S
C2432 H2421 0.950 . S
C2432 C2430 1.391 . S
C2432 C2433 1.400 . S
C2433 C2427 1.491 . S
C2433 C2432 1.400 . S
C2433 C2434 1.398 . S
C2434 H2422 0.950 . S
C2434 C2433 1.398 . S
C2434 C2435 1.391 . S
C2435 H2423 0.950 . S
C2435 C2431 1.393 . S
C2435 C2434 1.391 . S
H2436 C2444 0.950 . S
H2437 C2449 0.950 . S
H2438 C2446 0.950 . S
H2439 C2448 0.950 . S
H2440 C2450 0.950 . S
H2441 C2452 0.950 . S
H2442 C2454 0.949 . S
H2443 C2455 0.950 . S
C2444 H2436 0.950 . S
C2444 C2445 1.386 . S
C2444 C2446 1.391 . S
C2445 C2444 1.386 . S
C2445 C2449 1.393 . S
C2446 H2438 0.950 . S
C2446 C2444 1.391 . S
C2446 C2447 1.400 . S
C2447 C2446 1.400 . S
C2447 C2448 1.398 . S
C2447 C2453 1.491 . S
C2448 H2439 0.950 . S
C2448 C2447 1.398 . S
C2448 C2449 1.391 . S
C2449 H2437 0.950 . S
C2449 C2445 1.393 . S
C2449 C2448 1.391 . S
C2450 H2440 0.950 . S
C2450 C2451 1.386 . S
C2450 C2452 1.391 . S
C2451 C2450 1.386 . S
C2451 C2455 1.393 1_565 S
C2452 H2441 0.950 . S
C2452 C2450 1.391 . S
C2452 C2453 1.400 . S
C2453 C2447 1.491 . S
C2453 C2452 1.400 . S
C2453 C2454 1.398 . S
C2454 H2442 0.949 . S
C2454 C2453 1.398 . S
C2454 C2455 1.391 1_565 S
C2455 H2443 0.950 . S
C2455 C2451 1.393 1_545 S
C2455 C2454 1.391 1_545 S
H2456 C2464 0.950 . S
H2457 C2469 0.950 . S
H2458 C2466 0.950 . S
H2459 C2468 0.950 . S
H2460 C2470 0.950 . S
H2461 C2472 0.950 . S
H2462 C2474 0.950 . S
H2463 C2475 0.950 . S
C2464 H2456 0.950 . S
C2464 C2465 1.386 . S
C2464 C2466 1.391 . S
C2465 C2464 1.386 . S
C2465 C2469 1.393 . S
C2466 H2458 0.950 . S
C2466 C2464 1.391 . S
C2466 C2467 1.400 . S
C2467 C2466 1.400 . S
C2467 C2468 1.398 . S
C2467 C2473 1.491 . S
C2468 H2459 0.950 . S
C2468 C2467 1.398 . S
C2468 C2469 1.391 . S
C2469 H2457 0.950 . S
C2469 C2465 1.393 . S
C2469 C2468 1.391 . S
C2470 H2460 0.950 . S
C2470 C2471 1.386 . S
C2470 C2472 1.391 . S
C2471 C2470 1.386 . S
C2471 C2475 1.393 . S
C2472 H2461 0.950 . S
C2472 C2470 1.391 . S
C2472 C2473 1.400 . S
C2473 C2467 1.491 . S
C2473 C2472 1.400 . S
C2473 C2474 1.398 . S
C2474 H2462 0.950 . S
C2474 C2473 1.398 . S
C2474 C2475 1.391 . S
C2475 H2463 0.950 . S
C2475 C2471 1.393 . S
C2475 C2474 1.391 . S
H2476 C2484 0.950 . S
H2477 C2489 0.950 . S
H2478 C2486 0.950 . S
H2479 C2488 0.950 . S
H2480 C2490 0.950 . S
H2481 C2492 0.950 . S
H2482 C2494 0.950 . S
H2483 C2495 0.950 . S
C2484 H2476 0.950 . S
C2484 C2485 1.386 1_554 S
C2484 C2486 1.391 . S
C2485 C2484 1.386 1_556 S
C2485 C2489 1.393 . S
C2486 H2478 0.950 . S
C2486 C2484 1.391 . S
C2486 C2487 1.400 1_554 S
C2487 C2486 1.400 1_556 S
C2487 C2488 1.398 . S
C2487 C2493 1.494 . S
C2488 H2479 0.950 . S
C2488 C2487 1.398 . S
C2488 C2489 1.391 . S
C2489 H2477 0.950 . S
C2489 C2485 1.393 . S
C2489 C2488 1.391 . S
C2490 H2480 0.950 . S
C2490 C2491 1.386 1_556 S
C2490 C2492 1.391 . S
C2491 C2490 1.386 1_554 S
C2491 C2495 1.393 . S
C2492 H2481 0.950 . S
C2492 C2490 1.391 . S
C2492 C2493 1.409 . S
C2493 C2487 1.494 . S
C2493 C2492 1.409 . S
C2493 C2494 1.386 1_556 S
C2494 H2482 0.950 . S
C2494 C2493 1.386 1_554 S
C2494 C2495 1.391 . S
C2495 H2483 0.950 . S
C2495 C2491 1.393 . S
C2495 C2494 1.391 . S
H2496 C2504 0.950 . S
H2497 C2509 0.950 . S
H2498 C2506 0.950 . S
H2499 C2508 0.950 . S
H2500 C2510 0.950 . S
H2501 C2512 0.950 . S
H2502 C2514 0.950 . S
H2503 C2515 0.950 . S
C2504 H2496 0.950 . S
C2504 C2505 1.386 . S
C2504 C2506 1.391 . S
C2505 C2504 1.386 . S
C2505 C2509 1.393 . S
C2506 H2498 0.950 . S
C2506 C2504 1.391 . S
C2506 C2507 1.400 . S
C2507 C2506 1.400 . S
C2507 C2508 1.398 . S
C2507 C2513 1.491 . S
C2508 H2499 0.950 . S
C2508 C2507 1.398 . S
C2508 C2509 1.391 . S
C2509 H2497 0.950 . S
C2509 C2505 1.393 . S
C2509 C2508 1.391 . S
C2510 H2500 0.950 . S
C2510 C2511 1.386 . S
C2510 C2512 1.391 . S
C2511 C2510 1.386 . S
C2511 C2515 1.393 . S
C2512 H2501 0.950 . S
C2512 C2510 1.391 . S
C2512 C2513 1.400 . S
C2513 C2507 1.491 . S
C2513 C2512 1.400 . S
C2513 C2514 1.398 . S
C2514 H2502 0.950 . S
C2514 C2513 1.398 . S
C2514 C2515 1.391 . S
C2515 H2503 0.950 . S
C2515 C2511 1.393 . S
C2515 C2514 1.391 . S
H2516 C2524 0.950 1_556 S
H2517 C2529 0.950 . S
H2518 C2526 0.950 . S
H2519 C2528 0.950 . S
H2520 C2530 0.950 . S
H2521 C2532 0.950 . S
H2522 C2534 0.950 . S
H2523 C2535 0.950 . S
C2524 H2516 0.950 1_554 S
C2524 C2525 1.386 . S
C2524 C2526 1.391 1_554 S
C2525 C2524 1.386 . S
C2525 C2529 1.393 . S
C2526 H2518 0.950 . S
C2526 C2524 1.391 1_556 S
C2526 C2527 1.400 1_556 S
C2527 C2526 1.400 1_554 S
C2527 C2528 1.398 . S
C2527 C2533 1.491 . S
C2528 H2519 0.950 . S
C2528 C2527 1.398 . S
C2528 C2529 1.391 . S
C2529 H2517 0.950 . S
C2529 C2525 1.393 . S
C2529 C2528 1.391 . S
C2530 H2520 0.950 . S
C2530 C2531 1.386 1_554 S
C2530 C2532 1.391 . S
C2531 C2530 1.386 1_556 S
C2531 C2535 1.393 . S
C2532 H2521 0.950 . S
C2532 C2530 1.391 . S
C2532 C2533 1.400 . S
C2533 C2527 1.491 . S
C2533 C2532 1.400 . S
C2533 C2534 1.398 1_554 S
C2534 H2522 0.950 . S
C2534 C2533 1.398 1_556 S
C2534 C2535 1.391 . S
C2535 H2523 0.950 . S
C2535 C2531 1.393 . S
C2535 C2534 1.391 . S
H2536 C2544 0.950 . S
H2537 C2549 0.950 . S
H2538 C2546 0.950 . S
H2539 C2548 0.950 . S
H2540 C2550 0.950 . S
H2541 C2552 0.950 . S
H2542 C2554 0.950 . S
H2543 C2555 0.950 . S
C2544 H2536 0.950 . S
C2544 C2545 1.386 . S
C2544 C2546 1.391 . S
C2545 C2544 1.386 . S
C2545 C2549 1.393 . S
C2546 H2538 0.950 . S
C2546 C2544 1.391 . S
C2546 C2547 1.400 . S
C2547 C2546 1.400 . S
C2547 C2548 1.398 . S
C2547 C2553 1.491 . S
C2548 H2539 0.950 . S
C2548 C2547 1.398 . S
C2548 C2549 1.391 . S
C2549 H2537 0.950 . S
C2549 C2545 1.393 . S
C2549 C2548 1.391 . S
C2550 H2540 0.950 . S
C2550 C2551 1.386 . S
C2550 C2552 1.391 . S
C2551 C2550 1.386 . S
C2551 C2555 1.393 . S
C2552 H2541 0.950 . S
C2552 C2550 1.391 . S
C2552 C2553 1.400 . S
C2553 C2547 1.491 . S
C2553 C2552 1.400 . S
C2553 C2554 1.398 . S
C2554 H2542 0.950 . S
C2554 C2553 1.398 . S
C2554 C2555 1.391 . S
C2555 H2543 0.950 . S
C2555 C2551 1.393 . S
C2555 C2554 1.391 . S
H2556 C2564 0.950 . S
H2557 C2569 0.950 . S
H2558 C2566 0.950 . S
H2559 C2568 0.950 . S
H2560 C2570 0.950 . S
H2561 C2572 0.950 . S
H2562 C2574 0.950 . S
H2563 C2575 0.950 . S
C2564 H2556 0.950 . S
C2564 C2565 1.386 . S
C2564 C2566 1.391 . S
C2565 C2564 1.386 . S
C2565 C2569 1.393 . S
C2566 H2558 0.950 . S
C2566 C2564 1.391 . S
C2566 C2567 1.400 . S
C2567 C2566 1.400 . S
C2567 C2568 1.398 . S
C2567 C2573 1.491 . S
C2568 H2559 0.950 . S
C2568 C2567 1.398 . S
C2568 C2569 1.391 . S
C2569 H2557 0.950 . S
C2569 C2565 1.393 . S
C2569 C2568 1.391 . S
C2570 H2560 0.950 . S
C2570 C2571 1.386 . S
C2570 C2572 1.391 . S
C2571 C2570 1.386 . S
C2571 C2575 1.393 . S
C2572 H2561 0.950 . S
C2572 C2570 1.391 . S
C2572 C2573 1.400 . S
C2573 C2567 1.491 . S
C2573 C2572 1.400 . S
C2573 C2574 1.398 . S
C2574 H2562 0.950 . S
C2574 C2573 1.398 . S
C2574 C2575 1.391 . S
C2575 H2563 0.950 . S
C2575 C2571 1.393 . S
C2575 C2574 1.391 . S
C665 C111 1.086 1_455 S
C671 C352 1.124 1_556 S
C685 C64 1.308 . S
C691 C365 1.322 . S
C705 C77 1.239 . S
C711 C384 1.212 . S
C731 C415 1.708 . S
C725 C95 1.736 . S
C745 C25 1.530 . S
C751 C435 1.501 . S
C771 C452 0.847 . S
C765 C36 0.839 . S
C791 C465 1.491 . S
C785 C50 1.452 . S
C805 C11 0.890 . S
C811 C492 0.873 . S
C831 C345 1.133 1_655 S
C825 C237 1.066 . S
C845 C245 1.394 . S
C851 C375 1.384 . S
C871 C377 1.599 . S
C865 C279 1.528 . S
C891 C412 0.766 . S
C885 C175 0.782 . S
C905 C231 1.015 . S
C911 C432 0.995 . S
C931 C445 1.672 . S
C925 C251 1.576 . S
C951 C475 1.266 . S
C945 C273 1.274 . S
C971 C485 1.124 . S
C965 C181 1.094 . S
C991 C355 1.466 . S
C985 C165 1.491 . S
C1005 C288 1.755 . S
C1011 C505 1.811 1_556 S
C1031 C535 1.515 . S
C1025 C333 1.534 . S
C1051 C552 1.160 . S
C1045 C316 1.140 . S
C1065 C123 1.784 . S
C1071 C495 1.773 . S
C1085 C137 1.110 . S
C1091 C382 1.088 . S
C1105 C330 1.788 . S
C1111 C565 1.873 . S
C1131 C592 0.943 . S
C1125 C302 0.929 . S
C1151 C342 1.248 . S
C1145 C63 1.272 . S
C1171 C577 1.342 . S
C1165 C106 1.318 . S
C1185 C97 1.211 . S
C1191 C395 1.314 . S
C1205 C81 1.835 . S
C1211 C564 1.783 . S
C1231 C424 1.618 . S
C1225 C13 1.605 . S
C1245 C55 0.815 . S
C1251 C522 0.844 . S
C1271 C457 1.422 . S
C1265 C35 1.419 . S
C1291 C602 1.045 . S
C1285 C21 1.070 . S
C1311 C337 1.236 . S
C1305 C147 1.264 . S
C1331 C584 1.395 . S
C1325 C321 1.343 . S
C1345 C119 1.678 . S
C1351 C385 1.647 . S
C1365 C293 0.895 . S
C1371 C562 0.888 . S
C1385 C153 1.074 1_565 S
C1391 C422 1.156 . S
C1411 C517 1.739 . S
C1405 C315 1.725 . S
C1425 C125 1.194 . S
C1431 C464 1.255 . S
C1445 C287 1.262 . S
C1451 C597 1.214 . S
C1465 C193 1.573 . S
C1471 C344 1.541 . S
C1485 C176 1.781 . S
C1491 C497 1.820 . S
C1505 C263 1.522 . S
C1511 C444 1.514 . S
C1525 C246 1.219 . S
C1531 C542 1.284 . S
C1551 C604 1.889 . S
C1545 C277 1.926 . S
C1565 C221 1.119 . S
C1571 C392 1.094 1_565 S
C1591 C397 1.912 . S
C1585 C260 1.879 . S
C1611 C362 1.035 . S
C1605 C204 0.994 . S
C1625 C83 1.126 . S
C1631 C632 1.152 . S
C1651 C585 1.334 . S
C1645 C92 1.279 . S
C1665 C105 1.224 . S
C1671 C644 1.214 1_455 S
C1685 C67 1.737 . S
C1691 C575 1.714 . S
C1705 C53 1.533 . S
C1711 C515 1.501 . S
C1731 C532 0.824 . S
C1725 C8 0.850 . S
C1751 C545 1.513 . S
C1745 C22 1.439 . S
C1771 C612 0.856 . S
C1765 C39 0.886 . S
C1791 C625 1.123 . S
C1785 C265 1.097 . S
C1805 C189 1.394 . S
C1811 C595 1.384 . S
C1831 C637 1.592 . S
C1825 C209 1.516 . S
C1851 C572 0.777 . S
C1845 C217 0.759 . S
C1871 C512 1.013 . S
C1865 C259 1.001 . S
C1885 C195 1.576 . S
C1891 C525 1.672 . S
C1911 C555 1.263 . S
C1905 C203 1.271 . S
C1925 C223 1.117 . S
C1931 C605 1.112 . S
C1951 C635 1.464 . S
C1945 C319 1.491 . S
C1965 C134 1.736 . S
C1971 C425 1.808 . S
C1991 C455 1.499 . S
C1985 C151 1.539 . S
C2011 C472 1.155 . S
C2005 C162 1.141 . S
C2031 C615 1.764 . S
C2025 C305 1.788 . S
C2045 C291 1.118 . S
C2051 C642 1.057 . S
C2071 C405 1.863 . S
C2065 C148 1.799 . S
C2091 C372 0.943 . S
C2085 C120 0.937 1_565 S
C2105 C91 1.284 . S
C2111 C622 1.254 . S
C2131 C357 1.338 . S
C2125 C78 1.308 . S
C2145 C69 1.229 . S
C2151 C655 1.305 . S
C2165 C109 1.837 . S
C2171 C404 1.789 . S
C2185 C41 1.606 . S
C2191 C504 1.618 . S
C2211 C442 0.865 . S
C2205 C27 0.805 . S
C2225 C7 1.419 . S
C2231 C537 1.420 . S
C2245 C49 1.066 . S
C2251 C482 1.034 . S
C2271 C617 1.251 . S
C2265 C329 1.254 . S
C2285 C167 1.363 . S
C2291 C364 1.398 . S
C2311 C645 1.661 . S
C2305 C301 1.686 . S
C2325 C139 0.839 . S
C2331 C402 0.902 . S
C2345 C335 1.109 . S
C2351 C502 1.156 . S
C2371 C437 1.735 . S
C2365 C161 1.732 . S
C2385 C307 1.206 . S
C2391 C544 1.253 . S
C2411 C477 1.238 . S
C2405 C133 1.259 . S
C2431 C624 1.552 . S
C2425 C249 1.584 . S
C2451 C417 1.820 1_565 S
C2445 C218 1.782 . S
C2465 C235 1.505 . S
C2471 C524 1.499 . S
C2491 C462 1.274 . S
C2485 C190 1.229 1_556 S
C2505 C207 1.931 . S
C2511 C484 1.893 . S
C2525 C179 1.136 . S
C2531 C652 1.114 . S
C2551 C557 1.908 . S
C2545 C232 1.876 1_565 S
C2571 C582 1.038 . S
C2565 C274 0.990 . S
