# Generated by pormake.
# Topology gar, (4,6)-cn, num edge types: 1
# Building blocks:
#     Node 0, Type 0, BuildingBlock: NAHDIM_clean_sbu_0, # of connection points: 4
#     Node 1, Type 0, BuildingBlock: NAHDIM_clean_sbu_0, # of connection points: 4
#     Node 2, Type 0, BuildingBlock: NAHDIM_clean_sbu_0, # of connection points: 4
#     Node 3, Type 0, BuildingBlock: NAHDIM_clean_sbu_0, # of connection points: 4
#     Node 4, Type 0, BuildingBlock: NAHDIM_clean_sbu_0, # of connection points: 4
#     Node 5, Type 0, BuildingBlock: NAHDIM_clean_sbu_0, # of connection points: 4
#     Node 6, Type 0, BuildingBlock: NAHDIM_clean_sbu_0, # of connection points: 4
#     Node 7, Type 0, BuildingBlock: NAHDIM_clean_sbu_0, # of connection points: 4
#     Node 8, Type 0, BuildingBlock: NAHDIM_clean_sbu_0, # of connection points: 4
#     Node 9, Type 0, BuildingBlock: NAHDIM_clean_sbu_0, # of connection points: 4
#     Node 10, Type 0, BuildingBlock: NAHDIM_clean_sbu_0, # of connection points: 4
#     Node 11, Type 0, BuildingBlock: NAHDIM_clean_sbu_0, # of connection points: 4
#     Node 12, Type 0, BuildingBlock: NAHDIM_clean_sbu_0, # of connection points: 4
#     Node 13, Type 0, BuildingBlock: NAHDIM_clean_sbu_0, # of connection points: 4
#     Node 14, Type 0, BuildingBlock: NAHDIM_clean_sbu_0, # of connection points: 4
#     Node 15, Type 0, BuildingBlock: NAHDIM_clean_sbu_0, # of connection points: 4
#     Node 16, Type 0, BuildingBlock: NAHDIM_clean_sbu_0, # of connection points: 4
#     Node 17, Type 0, BuildingBlock: NAHDIM_clean_sbu_0, # of connection points: 4
#     Node 18, Type 0, BuildingBlock: NAHDIM_clean_sbu_0, # of connection points: 4
#     Node 19, Type 0, BuildingBlock: NAHDIM_clean_sbu_0, # of connection points: 4
#     Node 20, Type 0, BuildingBlock: NAHDIM_clean_sbu_0, # of connection points: 4
#     Node 21, Type 0, BuildingBlock: NAHDIM_clean_sbu_0, # of connection points: 4
#     Node 22, Type 0, BuildingBlock: NAHDIM_clean_sbu_0, # of connection points: 4
#     Node 23, Type 0, BuildingBlock: NAHDIM_clean_sbu_0, # of connection points: 4
#     Node 24, Type 1, BuildingBlock: BETDIP_clean_sbu_0, # of connection points: 6
#     Node 25, Type 1, BuildingBlock: BETDIP_clean_sbu_0, # of connection points: 6
#     Node 26, Type 1, BuildingBlock: BETDIP_clean_sbu_0, # of connection points: 6
#     Node 27, Type 1, BuildingBlock: BETDIP_clean_sbu_0, # of connection points: 6
#     Node 28, Type 1, BuildingBlock: BETDIP_clean_sbu_0, # of connection points: 6
#     Node 29, Type 1, BuildingBlock: BETDIP_clean_sbu_0, # of connection points: 6
#     Node 30, Type 1, BuildingBlock: BETDIP_clean_sbu_0, # of connection points: 6
#     Node 31, Type 1, BuildingBlock: BETDIP_clean_sbu_0, # of connection points: 6
#     Node 32, Type 1, BuildingBlock: BETDIP_clean_sbu_0, # of connection points: 6
#     Node 33, Type 1, BuildingBlock: BETDIP_clean_sbu_0, # of connection points: 6
#     Node 34, Type 1, BuildingBlock: BETDIP_clean_sbu_0, # of connection points: 6
#     Node 35, Type 1, BuildingBlock: BETDIP_clean_sbu_0, # of connection points: 6
#     Node 36, Type 1, BuildingBlock: BETDIP_clean_sbu_0, # of connection points: 6
#     Node 37, Type 1, BuildingBlock: BETDIP_clean_sbu_0, # of connection points: 6
#     Node 38, Type 1, BuildingBlock: BETDIP_clean_sbu_0, # of connection points: 6
#     Node 39, Type 1, BuildingBlock: BETDIP_clean_sbu_0, # of connection points: 6
#     Edge 40, Type (0, 1), BuildingBlock: KIFKEQ_clean_linker_1, # of connection points: 2
#     Edge 41, Type (0, 1), BuildingBlock: KIFKEQ_clean_linker_1, # of connection points: 2
#     Edge 42, Type (0, 1), BuildingBlock: KIFKEQ_clean_linker_1, # of connection points: 2
#     Edge 43, Type (0, 1), BuildingBlock: KIFKEQ_clean_linker_1, # of connection points: 2
#     Edge 44, Type (0, 1), BuildingBlock: KIFKEQ_clean_linker_1, # of connection points: 2
#     Edge 45, Type (0, 1), BuildingBlock: KIFKEQ_clean_linker_1, # of connection points: 2
#     Edge 46, Type (0, 1), BuildingBlock: KIFKEQ_clean_linker_1, # of connection points: 2
#     Edge 47, Type (0, 1), BuildingBlock: KIFKEQ_clean_linker_1, # of connection points: 2
#     Edge 48, Type (0, 1), BuildingBlock: KIFKEQ_clean_linker_1, # of connection points: 2
#     Edge 49, Type (0, 1), BuildingBlock: KIFKEQ_clean_linker_1, # of connection points: 2
#     Edge 50, Type (0, 1), BuildingBlock: KIFKEQ_clean_linker_1, # of connection points: 2
#     Edge 51, Type (0, 1), BuildingBlock: KIFKEQ_clean_linker_1, # of connection points: 2
#     Edge 52, Type (0, 1), BuildingBlock: KIFKEQ_clean_linker_1, # of connection points: 2
#     Edge 53, Type (0, 1), BuildingBlock: KIFKEQ_clean_linker_1, # of connection points: 2
#     Edge 54, Type (0, 1), BuildingBlock: KIFKEQ_clean_linker_1, # of connection points: 2
#     Edge 55, Type (0, 1), BuildingBlock: KIFKEQ_clean_linker_1, # of connection points: 2
#     Edge 56, Type (0, 1), BuildingBlock: KIFKEQ_clean_linker_1, # of connection points: 2
#     Edge 57, Type (0, 1), BuildingBlock: KIFKEQ_clean_linker_1, # of connection points: 2
#     Edge 58, Type (0, 1), BuildingBlock: KIFKEQ_clean_linker_1, # of connection points: 2
#     Edge 59, Type (0, 1), BuildingBlock: KIFKEQ_clean_linker_1, # of connection points: 2
#     Edge 60, Type (0, 1), BuildingBlock: KIFKEQ_clean_linker_1, # of connection points: 2
#     Edge 61, Type (0, 1), BuildingBlock: KIFKEQ_clean_linker_1, # of connection points: 2
#     Edge 62, Type (0, 1), BuildingBlock: KIFKEQ_clean_linker_1, # of connection points: 2
#     Edge 63, Type (0, 1), BuildingBlock: KIFKEQ_clean_linker_1, # of connection points: 2
#     Edge 64, Type (0, 1), BuildingBlock: KIFKEQ_clean_linker_1, # of connection points: 2
#     Edge 65, Type (0, 1), BuildingBlock: KIFKEQ_clean_linker_1, # of connection points: 2
#     Edge 66, Type (0, 1), BuildingBlock: KIFKEQ_clean_linker_1, # of connection points: 2
#     Edge 67, Type (0, 1), BuildingBlock: KIFKEQ_clean_linker_1, # of connection points: 2
#     Edge 68, Type (0, 1), BuildingBlock: KIFKEQ_clean_linker_1, # of connection points: 2
#     Edge 69, Type (0, 1), BuildingBlock: KIFKEQ_clean_linker_1, # of connection points: 2
#     Edge 70, Type (0, 1), BuildingBlock: KIFKEQ_clean_linker_1, # of connection points: 2
#     Edge 71, Type (0, 1), BuildingBlock: KIFKEQ_clean_linker_1, # of connection points: 2
#     Edge 72, Type (0, 1), BuildingBlock: KIFKEQ_clean_linker_1, # of connection points: 2
#     Edge 73, Type (0, 1), BuildingBlock: KIFKEQ_clean_linker_1, # of connection points: 2
#     Edge 74, Type (0, 1), BuildingBlock: KIFKEQ_clean_linker_1, # of connection points: 2
#     Edge 75, Type (0, 1), BuildingBlock: KIFKEQ_clean_linker_1, # of connection points: 2
#     Edge 76, Type (0, 1), BuildingBlock: KIFKEQ_clean_linker_1, # of connection points: 2
#     Edge 77, Type (0, 1), BuildingBlock: KIFKEQ_clean_linker_1, # of connection points: 2
#     Edge 78, Type (0, 1), BuildingBlock: KIFKEQ_clean_linker_1, # of connection points: 2
#     Edge 79, Type (0, 1), BuildingBlock: KIFKEQ_clean_linker_1, # of connection points: 2
#     Edge 80, Type (0, 1), BuildingBlock: KIFKEQ_clean_linker_1, # of connection points: 2
#     Edge 81, Type (0, 1), BuildingBlock: KIFKEQ_clean_linker_1, # of connection points: 2
#     Edge 82, Type (0, 1), BuildingBlock: KIFKEQ_clean_linker_1, # of connection points: 2
#     Edge 83, Type (0, 1), BuildingBlock: KIFKEQ_clean_linker_1, # of connection points: 2
#     Edge 84, Type (0, 1), BuildingBlock: KIFKEQ_clean_linker_1, # of connection points: 2
#     Edge 85, Type (0, 1), BuildingBlock: KIFKEQ_clean_linker_1, # of connection points: 2
#     Edge 86, Type (0, 1), BuildingBlock: KIFKEQ_clean_linker_1, # of connection points: 2
#     Edge 87, Type (0, 1), BuildingBlock: KIFKEQ_clean_linker_1, # of connection points: 2
#     Edge 88, Type (0, 1), BuildingBlock: KIFKEQ_clean_linker_1, # of connection points: 2
#     Edge 89, Type (0, 1), BuildingBlock: KIFKEQ_clean_linker_1, # of connection points: 2
#     Edge 90, Type (0, 1), BuildingBlock: KIFKEQ_clean_linker_1, # of connection points: 2
#     Edge 91, Type (0, 1), BuildingBlock: KIFKEQ_clean_linker_1, # of connection points: 2
#     Edge 92, Type (0, 1), BuildingBlock: KIFKEQ_clean_linker_1, # of connection points: 2
#     Edge 93, Type (0, 1), BuildingBlock: KIFKEQ_clean_linker_1, # of connection points: 2
#     Edge 94, Type (0, 1), BuildingBlock: KIFKEQ_clean_linker_1, # of connection points: 2
#     Edge 95, Type (0, 1), BuildingBlock: KIFKEQ_clean_linker_1, # of connection points: 2
#     Edge 96, Type (0, 1), BuildingBlock: KIFKEQ_clean_linker_1, # of connection points: 2
#     Edge 97, Type (0, 1), BuildingBlock: KIFKEQ_clean_linker_1, # of connection points: 2
#     Edge 98, Type (0, 1), BuildingBlock: KIFKEQ_clean_linker_1, # of connection points: 2
#     Edge 99, Type (0, 1), BuildingBlock: KIFKEQ_clean_linker_1, # of connection points: 2
#     Edge 100, Type (0, 1), BuildingBlock: KIFKEQ_clean_linker_1, # of connection points: 2
#     Edge 101, Type (0, 1), BuildingBlock: KIFKEQ_clean_linker_1, # of connection points: 2
#     Edge 102, Type (0, 1), BuildingBlock: KIFKEQ_clean_linker_1, # of connection points: 2
#     Edge 103, Type (0, 1), BuildingBlock: KIFKEQ_clean_linker_1, # of connection points: 2
#     Edge 104, Type (0, 1), BuildingBlock: KIFKEQ_clean_linker_1, # of connection points: 2
#     Edge 105, Type (0, 1), BuildingBlock: KIFKEQ_clean_linker_1, # of connection points: 2
#     Edge 106, Type (0, 1), BuildingBlock: KIFKEQ_clean_linker_1, # of connection points: 2
#     Edge 107, Type (0, 1), BuildingBlock: KIFKEQ_clean_linker_1, # of connection points: 2
#     Edge 108, Type (0, 1), BuildingBlock: KIFKEQ_clean_linker_1, # of connection points: 2
#     Edge 109, Type (0, 1), BuildingBlock: KIFKEQ_clean_linker_1, # of connection points: 2
#     Edge 110, Type (0, 1), BuildingBlock: KIFKEQ_clean_linker_1, # of connection points: 2
#     Edge 111, Type (0, 1), BuildingBlock: KIFKEQ_clean_linker_1, # of connection points: 2
#     Edge 112, Type (0, 1), BuildingBlock: KIFKEQ_clean_linker_1, # of connection points: 2
#     Edge 113, Type (0, 1), BuildingBlock: KIFKEQ_clean_linker_1, # of connection points: 2
#     Edge 114, Type (0, 1), BuildingBlock: KIFKEQ_clean_linker_1, # of connection points: 2
#     Edge 115, Type (0, 1), BuildingBlock: KIFKEQ_clean_linker_1, # of connection points: 2
#     Edge 116, Type (0, 1), BuildingBlock: KIFKEQ_clean_linker_1, # of connection points: 2
#     Edge 117, Type (0, 1), BuildingBlock: KIFKEQ_clean_linker_1, # of connection points: 2
#     Edge 118, Type (0, 1), BuildingBlock: KIFKEQ_clean_linker_1, # of connection points: 2
#     Edge 119, Type (0, 1), BuildingBlock: KIFKEQ_clean_linker_1, # of connection points: 2
#     Edge 120, Type (0, 1), BuildingBlock: KIFKEQ_clean_linker_1, # of connection points: 2
#     Edge 121, Type (0, 1), BuildingBlock: KIFKEQ_clean_linker_1, # of connection points: 2
#     Edge 122, Type (0, 1), BuildingBlock: KIFKEQ_clean_linker_1, # of connection points: 2
#     Edge 123, Type (0, 1), BuildingBlock: KIFKEQ_clean_linker_1, # of connection points: 2
#     Edge 124, Type (0, 1), BuildingBlock: KIFKEQ_clean_linker_1, # of connection points: 2
#     Edge 125, Type (0, 1), BuildingBlock: KIFKEQ_clean_linker_1, # of connection points: 2
#     Edge 126, Type (0, 1), BuildingBlock: KIFKEQ_clean_linker_1, # of connection points: 2
#     Edge 127, Type (0, 1), BuildingBlock: KIFKEQ_clean_linker_1, # of connection points: 2
#     Edge 128, Type (0, 1), BuildingBlock: KIFKEQ_clean_linker_1, # of connection points: 2
#     Edge 129, Type (0, 1), BuildingBlock: KIFKEQ_clean_linker_1, # of connection points: 2
#     Edge 130, Type (0, 1), BuildingBlock: KIFKEQ_clean_linker_1, # of connection points: 2
#     Edge 131, Type (0, 1), BuildingBlock: KIFKEQ_clean_linker_1, # of connection points: 2
#     Edge 132, Type (0, 1), BuildingBlock: KIFKEQ_clean_linker_1, # of connection points: 2
#     Edge 133, Type (0, 1), BuildingBlock: KIFKEQ_clean_linker_1, # of connection points: 2
#     Edge 134, Type (0, 1), BuildingBlock: KIFKEQ_clean_linker_1, # of connection points: 2
#     Edge 135, Type (0, 1), BuildingBlock: KIFKEQ_clean_linker_1, # of connection points: 2
# Relax obj value: 0.194
# Max RMSD: 0.301
# Mean RMSD: 0.170
data_MOF--net-gar--node1-NAHDIM_clean_sbu_0--node2-BETDIP_clean_sbu_0--edge1-KIFKEQ_clean_linker_1
_symmetry_space_group_name_H-M    P1
_symmetry_Int_Tables_number       1
_symmetry_cell_setting            triclinic
loop_
_symmetry_equiv_pos_as_xyz
'x, y, z'
_cell_length_a     65.530963
_cell_length_b     57.840847
_cell_length_c     54.442617
_cell_angle_alpha  97.313644
_cell_angle_beta   99.245
_cell_angle_gamma 101.35502
loop_
_atom_site_label
_atom_site_type_symbol
_atom_site_fract_x
_atom_site_fract_y
_atom_site_fract_z
_atom_type_partial_charge
C0 C 0.07105 0.33917 0.36504 0.0
O1 O 0.07678 0.35199 0.38774 0.0
O2 O 0.03642 0.29211 0.39773 0.0
Zn3 Zn 0.03321 0.32157 0.3834 0.0
O4 O 0.03916 0.3494 0.41158 0.0
C5 C 0.99439 0.30582 0.34493 0.0
O6 O 1.00617 0.29797 0.32982 0.0
O7 O 0.05254 0.32591 0.35855 0.0
C8 C 0.03032 0.34655 0.43047 0.0
O9 O 0.01856 0.32551 0.43113 0.0
C10 C 0.054 0.28933 0.40921 0.0
O11 O 0.07107 0.30647 0.41206 0.0
O12 O 1.0029 0.31645 0.36714 0.0
C13 C 0.01734 0.74011 0.74373 0.0
O14 O 1.0117 0.73313 0.71922 0.0
O15 O 0.0542 0.72377 0.70285 0.0
Zn16 Zn 0.05861 0.75098 0.73158 0.0
O17 O 0.05705 0.78016 0.71583 0.0
C18 C 0.09488 0.73603 0.75367 0.0
O19 O 0.08206 0.71493 0.74583 0.0
O20 O 0.03689 0.74714 0.75345 0.0
C21 C 0.0729 0.79698 0.71625 0.0
O22 O 0.09168 0.79615 0.7284 0.0
C23 C 0.06928 0.72505 0.69061 0.0
O24 O 0.08552 0.74342 0.69718 0.0
O25 O 0.08765 0.75465 0.75178 0.0
C26 C 0.56846 0.82271 0.87871 0.0
O27 O 0.57141 0.82989 0.90316 0.0
O28 O 0.52122 0.78851 0.89799 0.0
Zn29 Zn 0.52589 0.81923 0.88425 0.0
O30 O 0.53273 0.84742 0.91252 0.0
C31 C 0.48996 0.80144 0.84486 0.0
O32 O 0.49845 0.78266 0.84344 0.0
O33 O 0.54982 0.8184 0.86575 0.0
C34 C 0.53111 0.84519 0.93513 0.0
O35 O 0.5254 0.82376 0.94078 0.0
C36 C 0.50399 0.77862 0.90388 0.0
O37 O 0.48783 0.78901 0.90161 0.0
O38 O 0.49945 0.82003 0.86067 0.0
C39 C 0.51458 0.23872 0.25191 0.0
O40 O 0.5072 0.22761 0.22864 0.0
O41 O 0.54904 0.22451 0.20701 0.0
Zn42 Zn 0.55252 0.25392 0.2325 0.0
O43 O 0.5477 0.28084 0.21427 0.0
C44 C 0.59276 0.2458 0.25262 0.0
O45 O 0.58213 0.22345 0.24759 0.0
O46 O 0.53372 0.25028 0.2579 0.0
C47 C 0.56094 0.28731 0.20044 0.0
O48 O 0.57633 0.27599 0.19883 0.0
C49 C 0.53871 0.22122 0.18455 0.0
O50 O 0.52721 0.23635 0.1777 0.0
O51 O 0.58289 0.26231 0.2494 0.0
C52 C 0.0466 0.78395 0.19513 0.0
O53 O 0.05014 0.7634 0.18562 0.0
O54 O 0.07946 0.77202 0.15022 0.0
Zn55 Zn 0.08273 0.80508 0.1717 0.0
O56 O 0.07925 0.8321 0.15035 0.0
C57 C 0.12757 0.80454 0.18761 0.0
O58 O 0.12471 0.7949 0.16377 0.0
O59 O 0.05867 0.80326 0.19233 0.0
C60 C 0.09345 0.84748 0.14398 0.0
O61 O 0.11343 0.84645 0.15021 0.0
C62 C 0.06395 0.76038 0.13306 0.0
O63 O 0.0479 0.77025 0.12654 0.0
O64 O 0.11213 0.81157 0.1956 0.0
C65 C 0.55866 0.76817 0.43209 0.0
O66 O 0.56169 0.76494 0.45574 0.0
O67 O 0.5194 0.73811 0.46185 0.0
Zn68 Zn 0.51669 0.76683 0.44301 0.0
O69 O 0.52205 0.79894 0.46718 0.0
C70 C 0.47137 0.76721 0.42971 0.0
O71 O 0.47427 0.77442 0.45415 0.0
O72 O 0.54019 0.76973 0.42166 0.0
C73 C 0.51704 0.81656 0.45761 0.0
O74 O 0.5091 0.81321 0.43336 0.0
C75 C 0.50442 0.7217 0.4652 0.0
O76 O 0.48471 0.72289 0.45722 0.0
O77 O 0.48693 0.762 0.42043 0.0
C78 C 0.53867 0.30175 0.68062 0.0
O79 O 0.53442 0.29628 0.6559 0.0
O80 O 0.57265 0.27388 0.64702 0.0
Zn81 Zn 0.58079 0.30707 0.66939 0.0
O82 O 0.58053 0.33557 0.64943 0.0
C83 C 0.61666 0.29285 0.69958 0.0
O84 O 0.60268 0.27246 0.69604 0.0
O85 O 0.55809 0.30739 0.69176 0.0
C86 C 0.56982 0.33449 0.62737 0.0
O87 O 0.55855 0.31363 0.61526 0.0
C88 C 0.58503 0.2647 0.63493 0.0
O89 O 0.60382 0.27774 0.63474 0.0
O90 O 0.61093 0.31048 0.69068 0.0
C91 C 0.05309 0.28421 0.92144 0.0
O92 O 0.05046 0.30508 0.93137 0.0
O93 O 0.01774 0.23721 0.96526 0.0
Zn94 Zn 0.01583 0.26475 0.94414 0.0
O95 O 0.0197 0.29812 0.96555 0.0
C96 C 0.9717 0.2673 0.93006 0.0
O97 O 0.97579 0.2768 0.95405 0.0
O98 O 0.04006 0.26534 0.92361 0.0
C99 C 0.03467 0.31001 0.98324 0.0
O100 O 0.05064 0.30039 0.99087 0.0
C101 C 1.0028 0.21945 0.96581 0.0
O102 O 0.98364 0.21861 0.95349 0.0
O103 O 0.98628 0.25945 0.92085 0.0
C104 C 0.40421 0.10943 0.29633 0.0
O105 O 0.42445 0.11796 0.29703 0.0
O106 O 0.43734 0.05653 0.26518 0.0
Zn107 Zn 0.41769 0.0573 0.29588 0.0
O108 O 0.43803 0.06184 0.33343 0.0
C109 C 0.40006 1.00133 0.28592 0.0
O110 O 0.4171 1.00083 0.27621 0.0
O111 O 0.39827 0.08642 0.29554 0.0
C112 C 0.44822 0.04619 0.34077 0.0
O113 O 0.44718 0.02716 0.32422 0.0
C114 C 0.43189 0.0453 0.24206 0.0
O115 O 0.41226 0.03291 0.23487 0.0
O116 O 0.39675 0.02201 0.29395 0.0
C117 C 0.3061 0.14547 0.52617 0.0
O118 O 0.30912 0.16721 0.52067 0.0
O119 O 0.27067 0.17858 0.56319 0.0
Zn120 Zn 0.26487 0.15588 0.52954 0.0
O121 O 0.26789 0.17621 0.5012 0.0
C122 C 0.22067 0.14285 0.5356 0.0
O123 O 0.22544 0.16538 0.54636 0.0
O124 O 0.28799 0.13606 0.53054 0.0
C125 C 0.2554 0.17437 0.48016 0.0
O126 O 0.23759 0.15804 0.47487 0.0
C127 C 0.2813 0.17441 0.58323 0.0
O128 O 0.28932 0.15529 0.58213 0.0
O129 O 0.23475 0.13443 0.52589 0.0
C130 C 0.16537 1.01131 0.82548 0.0
O131 O 0.14804 1.00903 0.80863 0.0
O132 O 0.13997 0.05357 0.80351 0.0
Zn133 Zn 0.15897 0.05896 0.83778 0.0
O134 O 0.14268 0.06008 0.86603 0.0
C135 C 0.19067 0.09277 0.82338 0.0
O136 O 0.18586 0.07615 0.80324 0.0
O137 O 0.17323 0.03124 0.83992 0.0
C138 C 0.12663 0.04336 0.86506 0.0
O139 O 0.12025 0.02693 0.84477 0.0
C140 C 0.13028 0.06876 0.7951 0.0
O141 O 0.1317 0.08918 0.80966 0.0
O142 O 0.18112 0.0895 0.84164 0.0
C143 C 0.22468 0.90784 0.01715 0.0
O144 O 0.24334 0.90484 0.02744 0.0
O145 O 0.24214 0.85599 1.00056 0.0
Zn146 Zn 0.23681 0.88099 0.97947 0.0
O147 O 0.22852 0.86713 0.94266 0.0
C148 C 0.28078 0.89625 0.98141 0.0
O149 O 0.27877 0.87305 0.97562 0.0
O150 O 0.21701 0.89854 0.99423 0.0
C151 C 0.22111 0.84492 0.93509 0.0
O152 O 0.21547 0.83124 0.95144 0.0
C153 C 0.22798 0.84514 0.01104 0.0
O154 O 0.20873 0.84898 1.00645 0.0
O155 O 0.26445 0.90437 0.98378 0.0
C156 C 0.28295 0.42095 0.08117 0.0
O157 O 0.27838 0.39748 0.07632 0.0
O158 O 0.32576 0.39354 0.11478 0.0
Zn159 Zn 0.3254 0.41228 0.08473 0.0
O160 O 0.31845 0.39115 0.04988 0.0
C161 C 0.37003 0.42567 0.081 0.0
O162 O 0.36701 0.40233 0.07542 0.0
O163 O 0.30239 0.43191 0.08566 0.0
C164 C 0.32233 0.37074 0.04343 0.0
O165 O 0.33148 0.36011 0.06063 0.0
C166 C 0.31497 0.37243 0.11394 0.0
O167 O 0.3027 0.36103 0.09263 0.0
O168 O 0.35469 0.43453 0.08668 0.0
C169 C 0.85699 0.13223 0.1039 0.0
O170 O 0.84378 0.12366 0.118 0.0
O171 O 0.88688 0.19093 0.15872 0.0
Zn172 Zn 0.85962 0.17969 0.13261 0.0
O173 O 0.8531 0.2035 0.11021 0.0
C174 C 0.81771 0.17364 0.14552 0.0
O175 O 0.81859 0.19503 0.13951 0.0
O176 O 0.86535 0.15444 0.10771 0.0
C177 C 0.84978 0.2245 0.11266 0.0
O178 O 0.85064 0.23632 0.13515 0.0
C179 C 0.89311 0.209 0.17616 0.0
O180 O 0.9126 0.21353 0.18903 0.0
O181 O 0.83376 0.1644 0.1454 0.0
C182 C 0.18952 0.46197 0.31981 0.0
O183 O 0.16895 0.45378 0.31683 0.0
O184 O 0.15687 0.51034 0.28482 0.0
Zn185 Zn 0.17733 0.51466 0.32235 0.0
O186 O 0.15833 0.51587 0.35356 0.0
C187 C 0.19529 0.57038 0.33277 0.0
O188 O 0.17812 0.57077 0.34224 0.0
O189 O 0.19615 0.48509 0.32255 0.0
C190 C 0.16451 0.52692 0.3767 0.0
O191 O 0.18438 0.53866 0.38333 0.0
C192 C 0.14676 0.52602 0.27733 0.0
O193 O 0.14787 0.54517 0.29373 0.0
O194 O 0.1986 0.54974 0.32456 0.0
C195 C 0.7835 0.91961 0.58128 0.0
O196 O 0.77892 0.89616 0.57876 0.0
O197 O 0.82408 0.89292 0.61583 0.0
Zn198 Zn 0.8253 0.9099 0.58468 0.0
O199 O 0.817 0.88633 0.55144 0.0
C200 C 0.87141 0.93501 0.60171 0.0
O201 O 0.87032 0.92627 0.6227 0.0
O202 O 0.8029 0.93037 0.58419 0.0
C203 C 0.83042 0.8764 0.54221 0.0
O204 O 0.84979 0.88015 0.55528 0.0
C205 C 0.83106 0.87452 0.62049 0.0
O206 O 0.84104 0.86461 0.60443 0.0
O207 O 0.85481 0.93073 0.58454 0.0
C208 C 0.93045 0.05759 0.27028 0.0
O209 O 0.9496 0.06161 0.26506 0.0
O210 O 0.95597 0.01568 0.24909 0.0
Zn211 Zn 0.94 1.01247 0.27754 0.0
O212 O 0.95942 0.01803 0.3116 0.0
C213 C 0.92362 0.96195 0.27892 0.0
O214 O 0.94328 0.96246 0.28929 0.0
O215 O 0.92311 0.03784 0.27698 0.0
C216 C 0.95057 1.01422 0.33029 0.0
O217 O 0.92985 1.00685 0.32632 0.0
C218 C 0.96202 0.99974 0.23561 0.0
O219 O 0.95881 0.97778 0.24046 0.0
O220 O 0.91903 0.98075 0.27196 0.0
C221 C 0.34905 0.62919 0.57104 0.0
O222 O 0.34012 0.64607 0.56328 0.0
O223 O 0.38713 0.66587 0.64363 0.0
Zn224 Zn 0.35847 0.65933 0.62024 0.0
O225 O 0.35517 0.68675 0.6017 0.0
C226 C 0.31953 0.6634 0.6367 0.0
O227 O 0.32307 0.68353 0.6277 0.0
O228 O 0.35749 0.63123 0.59416 0.0
C229 C 0.36974 0.70171 0.59574 0.0
O230 O 0.38964 0.70089 0.60309 0.0
C231 C 0.39444 0.684 0.6608 0.0
O232 O 0.41406 0.68784 0.67308 0.0
O233 O 0.33314 0.65045 0.63673 0.0
C234 C 0.43032 0.55132 0.76462 0.0
O235 O 0.45068 0.55757 0.7743 0.0
O236 O 0.45309 0.50146 0.73657 0.0
Zn237 Zn 0.43709 0.50351 0.76525 0.0
O238 O 0.45617 0.51149 0.79992 0.0
C239 C 0.42005 0.45433 0.77057 0.0
O240 O 0.43997 0.45468 0.77961 0.0
O241 O 0.42112 0.52932 0.76009 0.0
C242 C 0.44709 0.50907 0.81871 0.0
O243 O 0.42634 0.50191 0.8146 0.0
C244 C 0.47107 0.51513 0.7377 0.0
O245 O 0.48051 0.52926 0.75902 0.0
O246 O 0.41537 0.47283 0.76289 0.0
C247 C 0.69081 0.963 0.8164 0.0
O248 O 0.67058 0.95488 0.80664 0.0
O249 O 0.65534 1.00938 0.7874 0.0
Zn250 Zn 0.67738 1.01489 0.82401 0.0
O251 O 0.66126 0.0166 0.85783 0.0
C252 C 0.7042 0.06874 0.84104 0.0
O253 O 0.70075 0.06672 0.86386 0.0
O254 O 0.697 0.98596 0.82439 0.0
C255 C 0.64736 0.02875 0.86302 0.0
O256 O 0.64122 0.0418 0.8464 0.0
C257 C 0.64808 0.02645 0.77842 0.0
O258 O 0.65315 0.04756 0.79277 0.0
O259 O 0.69699 0.05028 0.82358 0.0
C260 C 0.80981 0.64702 0.03153 0.0
O261 O 0.81375 0.6698 0.02949 0.0
O262 O 0.77053 0.67705 0.06388 0.0
Zn263 Zn 0.76737 0.65605 0.02958 0.0
O264 O 0.77052 0.67519 1.00027 0.0
C265 C 0.72227 0.6428 0.02937 0.0
O266 O 0.72601 0.66592 0.03732 0.0
O267 O 0.79081 0.63664 0.032 0.0
C268 C 0.76494 0.69472 0.99719 0.0
O269 O 0.75581 0.70477 0.01414 0.0
C270 C 0.78306 0.69717 0.07302 0.0
O271 O 0.7961 0.70711 0.05944 0.0
O272 O 0.73756 0.63382 0.02371 0.0
C273 C 0.90404 0.60868 0.79241 0.0
O274 O 0.9233 0.61617 0.7884 0.0
O275 O 0.93446 0.55593 0.7602 0.0
Zn276 Zn 0.91789 0.55693 0.79378 0.0
O277 O 0.93957 0.56146 0.83044 0.0
C278 C 0.89983 0.50105 0.78365 0.0
O279 O 0.91601 0.50069 0.77226 0.0
O280 O 0.89867 0.58627 0.79487 0.0
C281 C 0.94743 0.54456 0.83894 0.0
O282 O 0.94327 0.52383 0.82401 0.0
C283 C 0.95034 0.54641 0.75654 0.0
O284 O 0.95855 0.53624 0.7748 0.0
O285 O 0.89701 0.5217 0.7927 0.0
C286 C 0.72257 0.38909 0.5118 0.0
O287 O 0.71447 0.37389 0.49081 0.0
O288 O 0.78336 0.37366 0.52056 0.0
Zn289 Zn 0.76439 0.38904 0.49877 0.0
O290 O 0.75281 0.36714 0.4659 0.0
C291 C 0.79333 0.41918 0.47621 0.0
O292 O 0.79244 0.39878 0.4619 0.0
O293 O 0.74248 0.39702 0.51781 0.0
C294 C 0.74781 0.34464 0.46496 0.0
O295 O 0.74773 0.33594 0.4861 0.0
C296 C 0.79511 0.38614 0.54056 0.0
O297 O 0.79467 0.40881 0.546 0.0
O298 O 0.78198 0.41953 0.49301 0.0
C299 C 0.67585 0.52481 0.31154 0.0
O300 O 0.67068 0.53109 0.28942 0.0
O301 O 0.63683 0.55501 0.29324 0.0
Zn302 Zn 0.65551 0.56215 0.328 0.0
O303 O 0.63888 0.5621 0.35629 0.0
C304 C 0.6748 0.61058 0.32129 0.0
O305 O 0.6558 0.61011 0.30876 0.0
O306 O 0.67102 0.53571 0.33079 0.0
C307 C 0.62417 0.54387 0.35557 0.0
O308 O 0.61935 0.52698 0.33566 0.0
C309 C 0.6199 0.56204 0.28654 0.0
O310 O 0.61282 0.57522 0.30329 0.0
O311 O 0.6779 0.5927 0.33156 0.0
Tb312 Tb 0.02387 0.01522 0.03744 0.0
Tb313 Tb 0.06465 0.04606 0.06677 0.0
C314 C 0.9854 0.99645 0.02031 0.0
C315 C 0.96626 1.00578 0.01408 0.0
C316 C 0.94825 0.99651 0.02354 0.0
C317 C 0.93148 1.00814 0.02259 0.0
C318 C 0.93245 0.02923 0.01209 0.0
C319 C 0.94976 0.0373 1.0007 0.0
C320 C 0.9666 0.02572 1.00179 0.0
C321 C 0.05576 0.01836 0.01347 0.0
C322 C 0.03337 0.07261 0.03894 0.0
C323 C 0.10323 0.06369 0.08402 0.0
C324 C 0.12103 0.05262 0.09195 0.0
C325 C 0.13916 0.05763 0.08127 0.0
C326 C 0.15375 0.04304 0.08309 0.0
C327 C 0.15039 0.02323 0.09566 0.0
C328 C 0.13339 0.01975 0.10851 0.0
C329 C 0.11873 0.03428 0.10659 0.0
C330 C 0.03277 0.04199 0.09105 0.0
C331 C 0.05537 0.98882 0.06563 0.0
O332 O 0.99389 1.00067 0.04433 0.0
O333 O 0.99963 1.00022 1.00606 0.0
O334 O 0.05158 0.03503 0.0277 0.0
O335 O 0.04114 0.99913 0.01142 0.0
O336 O 0.01902 0.052 0.03486 0.0
O337 O 0.05328 0.07408 0.04955 0.0
O338 O 0.09511 0.05833 0.05987 0.0
O339 O 0.08863 0.06262 0.09792 0.0
O340 O 0.03713 0.02589 0.07633 0.0
O341 O 0.04737 0.06136 0.09357 0.0
O342 O 0.06957 1.0095 0.06974 0.0
O343 O 0.03547 0.98718 0.05477 0.0
H344 H 0.94775 0.98115 0.03312 0.0
H345 H 0.91853 1.00156 0.03178 0.0
H346 H 0.95081 0.05329 0.99212 0.0
H347 H 0.9803 0.0331 0.9942 0.0
H348 H 0.14119 0.07168 0.06989 0.0
H349 H 0.16666 0.0461 0.07287 0.0
H350 H 0.13065 1.00483 0.11865 0.0
H351 H 0.1049 0.03007 0.11511 0.0
Tb352 Tb 0.29955 0.77746 0.28521 0.0
Tb353 Tb 0.29734 0.7945 0.337 0.0
C354 C 0.28979 0.75868 0.23941 0.0
C355 C 0.28503 0.76638 0.21499 0.0
C356 C 0.2862 0.79057 0.21333 0.0
C357 C 0.28064 0.79743 0.18993 0.0
C358 C 0.27375 0.78016 0.16792 0.0
C359 C 0.27278 0.75596 0.16975 0.0
C360 C 0.2784 0.74915 0.19314 0.0
C361 C 0.3343 0.77818 0.31784 0.0
C362 C 0.31706 0.8329 0.30324 0.0
C363 C 0.30803 0.8119 0.38314 0.0
C364 C 0.31418 0.80314 0.40696 0.0
C365 C 0.3001 0.7858 0.41562 0.0
C366 C 0.30655 0.77763 0.43807 0.0
C367 C 0.32721 0.78649 0.45214 0.0
C368 C 0.34122 0.80388 0.4435 0.0
C369 C 0.33472 0.81221 0.42121 0.0
C370 C 0.26263 0.79418 0.30424 0.0
C371 C 0.27947 0.73913 0.31863 0.0
O372 O 0.27595 0.76059 0.25396 0.0
O373 O 0.30933 0.76605 0.25176 0.0
O374 O 0.31545 0.77188 0.32106 0.0
O375 O 0.33394 0.78258 0.29509 0.0
O376 O 0.30988 0.81583 0.28317 0.0
O377 O 0.31449 0.82794 0.32594 0.0
O378 O 0.32138 0.81183 0.36768 0.0
O379 O 0.28828 0.8047 0.37133 0.0
O380 O 0.28152 0.80015 0.30117 0.0
O381 O 0.2629 0.79019 0.32714 0.0
O382 O 0.28675 0.75607 0.33877 0.0
O383 O 0.28203 0.74421 0.29602 0.0
H384 H 0.29115 0.80405 0.23014 0.0
H385 H 0.2813 0.81617 0.18911 0.0
H386 H 0.26776 0.74232 0.15309 0.0
H387 H 0.27739 0.73038 0.19421 0.0
H388 H 0.28418 0.77839 0.40501 0.0
H389 H 0.2955 0.76401 0.44415 0.0
H390 H 0.35718 0.81117 0.45408 0.0
H391 H 0.34584 0.82567 0.41498 0.0
Tb392 Tb 0.57093 0.03902 0.5535 0.0
Tb393 Tb 0.52445 0.03385 0.5662 0.0
C394 C 0.61012 0.0413 0.55662 0.0
C395 C 0.62724 0.02879 0.56412 0.0
C396 C 0.62345 1.00377 0.56194 0.0
C397 C 0.64045 0.99234 0.566 0.0
C398 C 0.66159 1.00568 0.5722 0.0
C399 C 0.66515 0.03078 0.57522 0.0
C400 C 0.64819 0.04215 0.57122 0.0
C401 C 0.5422 0.04474 0.51361 0.0
C402 C 0.54009 0.98753 0.54595 0.0
C403 C 0.48537 0.03251 0.56314 0.0
C404 C 0.46872 0.04597 0.55591 0.0
C405 C 0.4513 0.03534 0.53642 0.0
C406 C 0.434 0.04616 0.53163 0.0
C407 C 0.43355 0.0679 0.54633 0.0
C408 C 0.45133 0.07884 0.56538 0.0
C409 C 0.46864 0.06806 0.5701 0.0
C410 C 0.55315 0.028 0.6061 0.0
C411 C 0.55521 0.0855 0.57278 0.0
O412 O 0.60207 0.05167 0.57446 0.0
O413 O 0.59568 0.03074 0.53669 0.0
O414 O 0.53985 0.04126 0.53564 0.0
O415 O 0.56221 0.04561 0.51413 0.0
O416 O 0.55989 1.00028 0.54991 0.0
O417 O 0.52369 0.99719 0.5492 0.0
O418 O 0.49322 0.02196 0.54521 0.0
O419 O 0.49983 0.04197 0.58338 0.0
O420 O 0.55558 0.03167 0.58415 0.0
O421 O 0.53312 0.027 0.6055 0.0
O422 O 0.5355 0.07264 0.56954 0.0
O423 O 0.57159 0.07584 0.56958 0.0
H424 H 0.60742 0.99304 0.55637 0.0
H425 H 0.63705 0.973 0.56334 0.0
H426 H 0.68111 0.0417 0.58044 0.0
H427 H 0.65151 0.06146 0.57297 0.0
H428 H 0.45079 0.01825 0.52527 0.0
H429 H 0.42086 0.03733 0.5165 0.0
H430 H 0.4516 0.09538 0.57736 0.0
H431 H 0.48167 0.07674 0.58543 0.0
Tb432 Tb 0.27598 0.28566 0.8038 0.0
Tb433 Tb 0.32297 0.28208 0.8135 0.0
C434 C 0.23677 0.28124 0.8038 0.0
C435 C 0.22047 0.28105 0.82015 0.0
C436 C 0.20712 0.2593 0.8219 0.0
C437 C 0.18977 0.25892 0.83413 0.0
C438 C 0.18515 0.2803 0.8449 0.0
C439 C 0.19888 0.30205 0.84373 0.0
C440 C 0.21622 0.30242 0.83146 0.0
C441 C 0.30368 0.32186 0.79525 0.0
C442 C 0.30435 0.29976 0.85983 0.0
C443 C 0.36215 0.28645 0.81338 0.0
C444 C 0.3782 0.28735 0.79674 0.0
C445 C 0.38386 0.30713 0.78463 0.0
C446 C 0.40094 0.30902 0.7718 0.0
C447 C 0.41292 0.29127 0.77082 0.0
C448 C 0.40686 0.27126 0.78245 0.0
C449 C 0.38981 0.26938 0.79526 0.0
C450 C 0.29514 0.24566 0.82159 0.0
C451 C 0.29472 0.26781 0.75743 0.0
O452 O 0.24618 0.26325 0.80235 0.0
O453 O 0.24975 0.30158 0.80362 0.0
O454 O 0.30613 0.30984 0.8127 0.0
O455 O 0.28445 0.31477 0.7824 0.0
O456 O 0.28515 0.29236 0.84538 0.0
O457 O 0.32192 0.29991 0.85069 0.0
O458 O 0.35286 0.30444 0.81601 0.0
O459 O 0.34909 0.26594 0.81259 0.0
O460 O 0.29285 0.25792 0.80433 0.0
O461 O 0.3144 0.25259 0.83443 0.0
O462 O 0.31386 0.27528 0.77202 0.0
O463 O 0.2771 0.26785 0.76649 0.0
H464 H 0.20971 0.24249 0.81315 0.0
H465 H 0.17985 0.24179 0.83491 0.0
H466 H 0.1958 0.31893 0.85147 0.0
H467 H 0.2259 0.31956 0.83019 0.0
H468 H 0.37549 0.32151 0.78561 0.0
H469 H 0.40517 0.32483 0.76335 0.0
H470 H 0.41537 0.25701 0.78179 0.0
H471 H 0.38603 0.25406 0.80459 0.0
Tb472 Tb 0.04209 0.06489 0.56472 0.0
Tb473 Tb 0.0437 1.01091 0.55689 0.0
C474 C 0.04497 0.10868 0.56439 0.0
C475 C 0.04784 0.12551 0.5467 0.0
C476 C 0.05465 0.11941 0.52407 0.0
C477 C 0.05633 0.13556 0.50704 0.0
C478 C 0.05101 0.15782 0.51241 0.0
C479 C 0.04453 0.16386 0.53532 0.0
C480 C 0.04297 0.14782 0.55231 0.0
C481 C 1.0105 0.03458 0.57625 0.0
C482 C 0.02867 0.03373 0.50966 0.0
C483 C 0.03248 0.9669 0.55639 0.0
C484 C 0.03975 0.9494 0.57075 0.0
C485 C 0.02559 0.9278 0.57043 0.0
C486 C 0.0309 0.91227 0.58673 0.0
C487 C 0.05049 0.91815 0.60357 0.0
C488 C 0.06504 0.93942 0.60316 0.0
C489 C 0.05963 0.95508 0.58694 0.0
C490 C 0.08047 0.03847 0.55253 0.0
C491 C 0.06217 0.04367 0.61058 0.0
O492 O 0.06121 0.09944 0.57175 0.0
O493 O 0.02689 0.09289 0.5591 0.0
O494 O 0.0198 0.0312 0.55801 0.0
O495 O 0.01832 0.05614 0.58827 0.0
O496 O 0.03566 0.05537 0.52345 0.0
O497 O 0.02832 1.01389 0.51948 0.0
O498 O 0.0252 0.98295 0.56956 0.0
O499 O 0.04474 0.97609 0.5416 0.0
O500 O 0.0637 0.04415 0.55684 0.0
O501 O 0.07698 0.01538 0.55097 0.0
O502 O 0.05431 0.02176 0.59772 0.0
O503 O 0.06141 0.06316 0.6004 0.0
H504 H 0.05838 0.10214 0.51946 0.0
H505 H 0.06124 0.13044 0.48945 0.0
H506 H 0.04064 0.18103 0.54008 0.0
H507 H 0.03772 0.15274 0.56974 0.0
H508 H 1.01013 0.92331 0.55818 0.0
H509 H 0.01952 0.89585 0.58652 0.0
H510 H 0.08018 0.94438 0.61608 0.0
H511 H 0.0706 0.97193 0.58763 0.0
Tb512 Tb 0.28996 0.75113 0.75382 0.0
Tb513 Tb 0.29473 0.8055 0.76688 0.0
C514 C 0.29224 0.70918 0.73756 0.0
C515 C 0.30899 0.69671 0.73263 0.0
C516 C 0.33032 0.70726 0.74282 0.0
C517 C 0.34584 0.69401 0.7414 0.0
C518 C 0.34025 0.66983 0.72998 0.0
C519 C 0.31898 0.6598 0.71837 0.0
C520 C 0.30348 0.67318 0.71968 0.0
C521 C 0.27892 0.76621 0.79647 0.0
C522 C 0.33517 0.78534 0.77765 0.0
C523 C 0.29327 0.84757 0.78326 0.0
C524 C 0.27892 0.86104 0.79336 0.0
C525 C 0.26038 0.84972 0.80064 0.0
C526 C 0.24699 0.86336 0.80994 0.0
C527 C 0.25202 0.88845 0.812 0.0
C528 C 0.27071 0.8995 0.80469 0.0
C529 C 0.28402 0.88592 0.79555 0.0
C530 C 0.30592 0.79039 0.7242 0.0
C531 C 0.24934 0.77072 0.74595 0.0
O532 O 0.28817 0.72458 0.72287 0.0
O533 O 0.29298 0.7173 0.76134 0.0
O534 O 0.29401 0.7765 0.7873 0.0
O535 O 0.27034 0.7457 0.78242 0.0
O536 O 0.32431 0.76487 0.76366 0.0
O537 O 0.32615 0.80305 0.78439 0.0
O538 O 0.30073 0.83332 0.79744 0.0
O539 O 0.28774 0.838 0.75936 0.0
O540 O 0.29082 0.7802 0.73345 0.0
O541 O 0.31425 0.81094 0.73824 0.0
O542 O 0.26042 0.7913 0.75959 0.0
O543 O 0.25835 0.75355 0.73751 0.0
H544 H 0.33488 0.72539 0.75281 0.0
H545 H 0.36213 0.7025 0.74994 0.0
H546 H 0.31405 0.64122 0.70952 0.0
H547 H 0.28706 0.66478 0.71162 0.0
H548 H 0.25623 0.83043 0.799 0.0
H549 H 0.23277 0.85432 0.81549 0.0
H550 H 0.27483 0.91868 0.80538 0.0
H551 H 0.29825 0.89488 0.78989 0.0
Tb552 Tb 0.52853 0.03701 0.04069 0.0
Tb553 Tb 0.56776 0.04005 0.07968 0.0
C554 C 0.49336 0.02138 0.01148 0.0
C555 C 0.47073 0.01683 0.01242 0.0
C556 C 0.46365 1.01277 0.03479 0.0
C557 C 0.44207 1.00469 0.03445 0.0
C558 C 0.4273 1.00045 0.01169 0.0
C559 C 0.43439 1.00592 0.98962 0.0
C560 C 0.45598 1.01403 0.99001 0.0
C561 C 0.54807 0.08046 0.06325 0.0
C562 C 0.52378 0.03658 0.1 0.0
C563 C 0.60217 0.05662 0.11006 0.0
C564 C 0.62537 0.06103 0.11388 0.0
C565 C 0.63639 0.06616 0.09445 0.0
C566 C 0.65846 0.07434 0.09993 0.0
C567 C 0.66969 0.07763 0.1249 0.0
C568 C 0.65864 0.07118 0.14394 0.0
C569 C 0.63667 0.06293 0.13844 0.0
C570 C 0.5482 0.99656 0.05717 0.0
C571 C 0.57224 0.04006 0.02005 0.0
O572 O 0.50411 1.00788 0.0233 0.0
O573 O 0.50359 0.04377 0.01515 0.0
O574 O 0.5457 0.06163 0.07267 0.0
O575 O 0.53772 0.07548 0.04007 0.0
O576 O 0.51431 0.03293 0.07562 0.0
O577 O 0.54492 0.04113 0.10596 0.0
O578 O 0.59287 0.06914 0.09513 0.0
O579 O 0.59156 0.03448 0.10769 0.0
O580 O 0.55052 0.01541 0.04785 0.0
O581 O 0.559 1.0014 0.08013 0.0
O582 O 0.58197 0.04309 0.04437 0.0
O583 O 0.55114 0.03632 0.01437 0.0
H584 H 0.47483 1.01478 0.05225 0.0
H585 H 0.43703 1.00091 0.0518 0.0
H586 H 0.42343 1.0026 0.97174 0.0
H587 H 0.46123 0.01701 0.97256 0.0
H588 H 0.6279 0.06484 0.07536 0.0
H589 H 0.66658 0.0793 0.08491 0.0
H590 H 0.66692 0.07322 0.16325 0.0
H591 H 0.62839 0.05906 0.15366 0.0
Tb592 Tb 0.27456 0.26693 0.29419 0.0
Tb593 Tb 0.31672 0.30237 0.31875 0.0
C594 C 0.23645 0.2455 0.28664 0.0
C595 C 0.21787 0.25491 0.29121 0.0
C596 C 0.21969 0.27251 0.31224 0.0
C597 C 0.20299 0.28359 0.31512 0.0
C598 C 0.18408 0.27727 0.2971 0.0
C599 C 0.18203 0.25921 0.27638 0.0
C600 C 0.19889 0.2482 0.27338 0.0
C601 C 0.29686 0.28576 0.2626 0.0
C602 C 0.27508 0.32421 0.31254 0.0
C603 C 0.35317 0.32695 0.32191 0.0
C604 C 0.37383 0.32142 0.32991 0.0
C605 C 0.3913 0.33227 0.32049 0.0
C606 C 0.40945 0.32288 0.3224 0.0
C607 C 0.41028 0.30237 0.33363 0.0
C608 C 0.3933 0.29266 0.34472 0.0
C609 C 0.37518 0.30209 0.34282 0.0
C610 C 0.30042 0.27904 0.35289 0.0
C611 C 0.31604 0.245 0.30291 0.0
O612 O 0.25025 0.24508 0.30678 0.0
O613 O 0.24555 0.2539 0.26892 0.0
O614 O 0.29478 0.29622 0.28365 0.0
O615 O 0.28556 0.26397 0.25849 0.0
O616 O 0.26419 0.30161 0.30385 0.0
O617 O 0.29622 0.32892 0.31895 0.0
O618 O 0.34213 0.31321 0.30109 0.0
O619 O 0.34181 0.32971 0.33944 0.0
O620 O 0.29369 0.27745 0.32973 0.0
O621 O 0.31758 0.29579 0.35827 0.0
O622 O 0.32706 0.26777 0.30944 0.0
O623 O 0.29482 0.24017 0.2975 0.0
H624 H 0.23419 0.27811 0.32626 0.0
H625 H 0.20488 0.29712 0.33153 0.0
H626 H 0.16761 0.25402 0.26221 0.0
H627 H 0.19728 0.23484 0.2569 0.0
H628 H 0.39038 0.34697 0.31014 0.0
H629 H 0.42213 0.3306 0.31337 0.0
H630 H 0.39356 0.27701 0.35368 0.0
H631 H 0.3617 0.2933 0.34998 0.0
Tb632 Tb 0.54222 0.55992 0.05396 0.0
Tb633 Tb 0.54584 0.50984 0.04428 0.0
C634 C 0.54456 0.60364 0.05302 0.0
C635 C 0.53629 0.618 0.0348 0.0
C636 C 0.54742 0.62475 0.01591 0.0
C637 C 0.53982 0.63878 0.9991 0.0
C638 C 0.52096 0.64644 1.00087 0.0
C639 C 0.50976 0.63959 0.01968 0.0
C640 C 0.51739 0.62559 0.03653 0.0
C641 C 0.51005 0.52908 0.06336 0.0
C642 C 0.52638 0.53008 0.99806 0.0
C643 C 0.54388 0.46588 0.04345 0.0
C644 C 0.54541 0.44938 0.06161 0.0
C645 C 0.55828 0.45678 0.08565 0.0
C646 C 0.55953 0.44061 0.10253 0.0
C647 C 0.54791 0.41682 0.09558 0.0
C648 C 0.53493 0.4096 0.07152 0.0
C649 C 0.5337 0.42577 0.0547 0.0
C650 C 0.57791 0.54124 0.03518 0.0
C651 C 0.55988 0.53925 0.10015 0.0
O652 O 0.55896 0.59237 0.0469 0.0
O653 O 0.53058 0.5905 0.06308 0.0
O654 O 0.51952 0.52629 0.04511 0.0
O655 O 0.51782 0.55029 0.07622 0.0
O656 O 0.53221 0.55135 0.01258 0.0
O657 O 0.52838 0.51044 1.00722 0.0
O658 O 0.52731 0.4754 0.04204 0.0
O659 O 0.56127 0.48139 0.04317 0.0
O660 O 0.56849 0.54345 0.05351 0.0
O661 O 0.56983 0.5204 0.02159 0.0
O662 O 0.55233 0.51796 0.08588 0.0
O663 O 0.56066 0.55902 0.0903 0.0
H664 H 0.56217 0.61946 0.01424 0.0
H665 H 0.54905 0.64416 0.98515 0.0
H666 H 0.49512 0.6451 0.02141 0.0
H667 H 0.50853 0.62083 0.05101 0.0
H668 H 0.56743 0.47498 0.09129 0.0
H669 H 0.5695 0.44674 0.12103 0.0
H670 H 0.52604 0.39132 0.06549 0.0
H671 H 0.5237 0.4198 0.03619 0.0
Tb672 Tb 0.78991 0.25667 0.26751 0.0
Tb673 Tb 0.79696 0.30679 0.29766 0.0
C674 C 0.79207 0.21937 0.23964 0.0
C675 C 0.80773 0.20447 0.24104 0.0
C676 C 0.80732 0.18681 0.22071 0.0
C677 C 0.82187 0.17207 0.2226 0.0
C678 C 0.83685 0.17477 0.24498 0.0
C679 C 0.83757 0.19305 0.26496 0.0
C680 C 0.82313 0.20774 0.26302 0.0
C681 C 0.78354 0.25913 0.31433 0.0
C682 C 0.83613 0.28444 0.2975 0.0
C683 C 0.79457 0.34207 0.32829 0.0
C684 C 0.78151 0.35987 0.32745 0.0
C685 C 0.77934 0.37308 0.3499 0.0
C686 C 0.76686 0.39007 0.34919 0.0
C687 C 0.75638 0.39406 0.32596 0.0
C688 C 0.75845 0.38048 0.30352 0.0
C689 C 0.77084 0.36345 0.30427 0.0
C690 C 0.80411 0.30549 0.25105 0.0
C691 C 0.75083 0.27905 0.26724 0.0
O692 O 0.79894 0.24093 0.23534 0.0
O693 O 0.78128 0.21933 0.25784 0.0
O694 O 0.7978 0.27225 0.30636 0.0
O695 O 0.77259 0.24289 0.29586 0.0
O696 O 0.82461 0.26776 0.27876 0.0
O697 O 0.82743 0.29911 0.31099 0.0
O698 O 0.78426 0.32023 0.32797 0.0
O699 O 0.80811 0.34304 0.313 0.0
O700 O 0.79007 0.29147 0.25866 0.0
O701 O 0.81262 0.32292 0.2695 0.0
O702 O 0.76253 0.29595 0.28562 0.0
O703 O 0.75919 0.2638 0.254 0.0
H704 H 0.79557 0.18421 0.2036 0.0
H705 H 0.82093 0.15808 0.20693 0.0
H706 H 0.84917 0.19579 0.28226 0.0
H707 H 0.82372 0.22138 0.27887 0.0
H708 H 0.78729 0.37025 0.36796 0.0
H709 H 0.7653 0.39995 0.36682 0.0
H710 H 0.75083 0.38329 0.28531 0.0
H711 H 0.77222 0.35319 0.28676 0.0
Tb712 Tb 0.03366 0.54003 0.54266 0.0
Tb713 Tb 0.07011 0.53409 0.57953 0.0
C714 C 0.99865 0.53362 0.51329 0.0
C715 C 0.9764 0.53437 0.51346 0.0
C716 C 0.9652 0.52276 0.52997 0.0
C717 C 0.94323 0.51983 0.52662 0.0
C718 C 0.93209 0.52861 0.50683 0.0
C719 C 0.94363 0.54191 0.49168 0.0
C720 C 0.96559 0.54463 0.4949 0.0
C721 C 0.05986 0.58061 0.56499 0.0
C722 C 0.02769 0.53681 0.601 0.0
C723 C 0.10499 0.53931 0.6092 0.0
C724 C 0.12702 0.55265 0.61227 0.0
C725 C 0.13173 0.57561 0.60592 0.0
C726 C 0.15262 0.58893 0.61125 0.0
C727 C 0.16922 0.57943 0.62278 0.0
C728 C 0.16442 0.55612 0.62843 0.0
C729 C 0.14349 0.54291 0.62331 0.0
C730 C 0.04404 0.4938 0.55582 0.0
C731 C 0.07596 0.53815 0.52172 0.0
O732 O 1.00566 0.51657 0.52337 0.0
O733 O 1.0125 0.55406 0.51869 0.0
O734 O 0.0543 0.56238 0.57481 0.0
O735 O 0.04952 0.57672 0.54193 0.0
O736 O 0.0188 0.53771 0.57727 0.0
O737 O 0.04797 0.5356 0.60625 0.0
O738 O 0.09106 0.5522 0.61239 0.0
O739 O 0.09802 0.52191 0.59004 0.0
O740 O 0.05003 0.51246 0.54707 0.0
O741 O 0.05393 0.49688 0.57903 0.0
O742 O 0.08531 0.5423 0.54616 0.0
O743 O 0.05493 0.5341 0.51579 0.0
H744 H 0.97322 0.51484 0.5446 0.0
H745 H 0.9349 0.5093 0.53853 0.0
H746 H 0.9356 0.5493 0.4766 0.0
H747 H 0.97401 0.5538 0.48209 0.0
H748 H 0.11923 0.58348 0.59734 0.0
H749 H 0.15565 0.60688 0.60686 0.0
H750 H 0.17682 0.54803 0.63681 0.0
H751 H 0.14013 0.52519 0.62831 0.0
Tb752 Tb 0.77622 0.79219 0.30238 0.0
Tb753 Tb 0.82427 0.78501 0.31031 0.0
C754 C 0.73786 0.79165 0.30385 0.0
C755 C 0.72142 0.78831 0.31994 0.0
C756 C 0.70972 0.76541 0.32112 0.0
C757 C 0.69239 0.76267 0.33353 0.0
C758 C 0.68609 0.78276 0.34484 0.0
C759 C 0.6981 0.80561 0.34409 0.0
C760 C 0.71545 0.80833 0.33179 0.0
C761 C 0.8059 0.82621 0.29339 0.0
C762 C 0.80562 0.80239 0.35776 0.0
C763 C 0.86353 0.79481 0.31067 0.0
C764 C 0.88084 0.78846 0.29843 0.0
C765 C 0.87865 0.78363 0.27203 0.0
C766 C 0.8963 0.78168 0.26092 0.0
C767 C 0.91659 0.78463 0.27593 0.0
C768 C 0.91847 0.78854 0.30235 0.0
C769 C 0.90084 0.79046 0.31341 0.0
C770 C 0.79554 0.74619 0.31297 0.0
C771 C 0.79366 0.76977 0.25588 0.0
O772 O 0.74455 0.77289 0.29491 0.0
O773 O 0.75311 0.81105 0.31019 0.0
O774 O 0.80771 0.81334 0.31016 0.0
O775 O 0.78629 0.82135 0.28162 0.0
O776 O 0.78613 0.79681 0.34372 0.0
O777 O 0.82292 0.80154 0.34812 0.0
O778 O 0.84965 0.80397 0.29718 0.0
O779 O 0.85489 0.78052 0.32498 0.0
O780 O 0.79355 0.76653 0.30942 0.0
O781 O 0.81566 0.74647 0.3147 0.0
O782 O 0.81325 0.77566 0.26949 0.0
O783 O 0.77658 0.77233 0.26542 0.0
H784 H 0.71353 0.74957 0.31178 0.0
H785 H 0.68346 0.74479 0.33345 0.0
H786 H 0.694 0.8215 0.35287 0.0
H787 H 0.72386 0.82624 0.33098 0.0
H788 H 0.86347 0.7822 0.25994 0.0
H789 H 0.89418 0.77882 0.24054 0.0
H790 H 0.93368 0.79046 0.31457 0.0
H791 H 0.90302 0.79435 0.33379 0.0
Tb792 Tb 0.80042 0.27554 0.78593 0.0
Tb793 Tb 0.79468 0.29617 0.83459 0.0
C794 C 0.80064 0.26443 0.73976 0.0
C795 C 0.8083 0.27629 0.71971 0.0
C796 C 0.81113 0.3011 0.72098 0.0
C797 C 0.81753 0.31196 0.7012 0.0
C798 C 0.821 0.29812 0.67974 0.0
C799 C 0.81872 0.27334 0.67887 0.0
C800 C 0.81247 0.26252 0.69879 0.0
C801 C 0.82976 0.27081 0.82334 0.0
C802 C 0.81795 0.3329 0.80453 0.0
C803 C 0.7944 0.30833 0.88062 0.0
C804 C 0.79561 0.29826 0.90399 0.0
C805 C 0.80071 0.27595 0.90513 0.0
C806 C 0.80395 0.26785 0.92826 0.0
C807 C 0.80219 0.28201 0.95053 0.0
C808 C 0.7964 0.30401 0.94905 0.0
C809 C 0.79315 0.31205 0.92594 0.0
C810 C 0.76497 0.29996 0.79683 0.0
C811 C 0.77793 0.23908 0.8163 0.0
O812 O 0.78498 0.27154 0.74836 0.0
O813 O 0.81527 0.26177 0.7578 0.0
O814 O 0.82219 0.28915 0.82132 0.0
O815 O 0.8212 0.25476 0.80366 0.0
O816 O 0.81347 0.31441 0.78575 0.0
O817 O 0.81299 0.32961 0.82663 0.0
O818 O 0.81157 0.3108 0.87097 0.0
O819 O 0.77722 0.29994 0.86347 0.0
O820 O 0.77291 0.28202 0.79942 0.0
O821 O 0.77333 0.3163 0.81631 0.0
O822 O 0.78503 0.25692 0.83579 0.0
O823 O 0.78008 0.24321 0.79338 0.0
H824 H 0.8078 0.31198 0.73688 0.0
H825 H 0.81879 0.33103 0.70219 0.0
H826 H 0.82136 0.2623 0.66258 0.0
H827 H 0.81046 0.24334 0.69762 0.0
H828 H 0.80281 0.26517 0.88832 0.0
H829 H 0.8086 0.25094 0.92884 0.0
H830 H 0.79466 0.31514 0.96581 0.0
H831 H 0.78922 0.32934 0.9253 0.0
Tb832 Tb 0.77679 0.76986 0.80114 0.0
Tb833 Tb 0.81797 0.802 0.81757 0.0
C834 C 0.74246 0.74042 0.79797 0.0
C835 C 0.72294 0.74498 0.80573 0.0
C836 C 0.72439 0.76244 0.82674 0.0
C837 C 0.70625 0.7685 0.83328 0.0
C838 C 0.68622 0.75756 0.81867 0.0
C839 C 0.68464 0.74019 0.79747 0.0
C840 C 0.70293 0.73384 0.79111 0.0
C841 C 0.79068 0.79137 0.76511 0.0
C842 C 0.77622 0.82494 0.81513 0.0
C843 C 0.85293 0.83089 0.82378 0.0
C844 C 0.87396 0.82517 0.82687 0.0
C845 C 0.88933 0.83645 0.81453 0.0
C846 C 0.90719 0.82713 0.81217 0.0
C847 C 0.90975 0.80627 0.82194 0.0
C848 C 0.89502 0.79597 0.83569 0.0
C849 C 0.87727 0.80531 0.83812 0.0
C850 C 0.80407 0.77969 0.8531 0.0
C851 C 0.81883 0.74685 0.80295 0.0
O852 O 0.75876 0.74309 0.81631 0.0
O853 O 0.74762 0.75062 0.77909 0.0
O854 O 0.80166 0.78301 0.78159 0.0
O855 O 0.77108 0.78629 0.76753 0.0
O856 O 0.76537 0.80256 0.81338 0.0
O857 O 0.797 0.82862 0.8151 0.0
O858 O 0.84102 0.8222 0.80156 0.0
O859 O 0.84255 0.82735 0.8421 0.0
O860 O 0.79315 0.78877 0.8372 0.0
O861 O 0.82349 0.78389 0.84994 0.0
O862 O 0.83011 0.7693 0.80783 0.0
O863 O 0.79769 0.74302 0.80007 0.0
H864 H 0.73963 0.77189 0.83781 0.0
H865 H 0.70795 0.78231 0.84938 0.0
H866 H 0.66932 0.7316 0.78587 0.0
H867 H 0.70152 0.72065 0.77455 0.0
H868 H 0.88688 0.85153 0.80539 0.0
H869 H 0.91823 0.83531 0.80128 0.0
H870 H 0.89673 0.78004 0.84362 0.0
H871 H 0.86554 0.79611 0.84753 0.0
Tb872 Tb 0.52085 0.5144 0.52867 0.0
Tb873 Tb 0.56345 0.54161 0.55662 0.0
C874 C 0.48168 0.49892 0.51242 0.0
C875 C 0.46345 0.50928 0.5047 0.0
C876 C 0.46463 0.53369 0.51195 0.0
C877 C 0.44673 0.54309 0.50657 0.0
C878 C 0.42722 0.52819 0.49404 0.0
C879 C 0.42627 0.50385 0.48597 0.0
C880 C 0.44433 0.49449 0.49121 0.0
C881 C 0.55172 0.5151 0.50287 0.0
C882 C 0.53431 0.57198 0.53179 0.0
C883 C 0.60276 0.55266 0.57082 0.0
C884 C 0.61711 0.53608 0.57046 0.0
C885 C 0.61259 0.51656 0.55074 0.0
C886 C 0.62388 0.49865 0.55181 0.0
C887 C 0.64004 0.49989 0.57254 0.0
C888 C 0.64512 0.51978 0.59194 0.0
C889 C 0.63355 0.53771 0.59101 0.0
C890 C 0.5331 0.54118 0.58292 0.0
C891 C 0.54973 0.48439 0.55446 0.0
O892 O 0.4904 0.50443 0.5364 0.0
O893 O 0.49579 0.50022 0.49789 0.0
O894 O 0.54896 0.53198 0.518 0.0
O895 O 0.53613 0.49683 0.50091 0.0
O896 O 0.51906 0.55213 0.527 0.0
O897 O 0.55398 0.57202 0.54229 0.0
O898 O 0.59325 0.5553 0.5486 0.0
O899 O 0.58967 0.54949 0.58651 0.0
O900 O 0.53539 0.52413 0.56748 0.0
O901 O 0.54905 0.55916 0.58501 0.0
O902 O 0.56526 0.50365 0.55703 0.0
O903 O 0.52992 0.485 0.54554 0.0
H904 H 0.47912 0.54533 0.52272 0.0
H905 H 0.44792 0.56179 0.51358 0.0
H906 H 0.41146 0.49197 0.47629 0.0
H907 H 0.44318 0.47557 0.48546 0.0
H908 H 0.59988 0.51471 0.53472 0.0
H909 H 0.61996 0.48377 0.53634 0.0
H910 H 0.65765 0.52114 0.60803 0.0
H911 H 0.63707 0.55247 0.60655 0.0
Tb912 Tb 0.07081 0.53943 0.05189 0.0
Tb913 Tb 0.02386 0.53048 0.06356 0.0
C914 C 0.11033 0.54376 0.05599 0.0
C915 C 0.12734 0.5311 0.06344 0.0
C916 C 0.1485 0.54393 0.06922 0.0
C917 C 0.16516 0.5321 0.07338 0.0
C918 C 0.16105 0.50707 0.07178 0.0
C919 C 0.13973 0.49433 0.06676 0.0
C920 C 0.12305 0.50622 0.06266 0.0
C921 C 0.04173 0.54353 0.0116 0.0
C922 C 0.04263 0.48617 0.04453 0.0
C923 C 0.98433 0.52625 0.05979 0.0
C924 C 0.96697 0.53853 0.0526 0.0
C925 C 0.94591 0.52587 0.04964 0.0
C926 C 0.92906 0.53743 0.04565 0.0
C927 C 0.93281 0.56208 0.04453 0.0
C928 C 0.95401 0.57462 0.04685 0.0
C929 C 0.9709 0.56298 0.05087 0.0
C930 C 0.05298 0.52636 0.10387 0.0
C931 C 0.05217 0.58374 0.07089 0.0
O932 O 0.10151 0.5529 0.07379 0.0
O933 O 0.09646 0.53365 0.03543 0.0
O934 O 0.03929 0.53941 0.03342 0.0
O935 O 0.06197 0.54592 0.01253 0.0
O936 O 0.06176 0.50048 0.04802 0.0
O937 O 0.02536 0.49419 0.04762 0.0
O938 O 0.99306 0.51716 0.04185 0.0
O939 O 0.99833 0.53654 0.08017 0.0
O940 O 0.05541 0.53062 0.08209 0.0
O941 O 0.03272 0.52381 0.10287 0.0
O942 O 0.03301 0.5695 0.06753 0.0
O943 O 0.06936 0.57565 0.06772 0.0
H944 H 0.15219 0.56311 0.06974 0.0
H945 H 0.18128 0.54254 0.07692 0.0
H946 H 0.1359 0.47511 0.06576 0.0
H947 H 0.10685 0.49593 0.05828 0.0
H948 H 0.94249 0.50705 0.05115 0.0
H949 H 0.91311 0.52714 0.04434 0.0
H950 H 0.9576 0.5935 0.04572 0.0
H951 H 0.98703 0.57316 0.05314 0.0
H952 H 0.04127 0.20926 0.98379 0.0
H953 H 0.97394 0.1826 0.97646 0.0
H954 H 0.04788 0.17428 1.00168 0.0
H955 H 0.98045 0.14813 0.99536 0.0
H956 H 0.99757 0.07628 1.00633 0.0
H957 H 0.99018 0.11157 0.98957 0.0
H958 H 0.0486 0.15425 0.03578 0.0
H959 H 0.05628 0.11885 0.05152 0.0
C960 C 0.02785 0.19612 0.98635 0.0
C961 C 1.00706 0.1989 0.9786 0.0
C962 C 0.03163 0.17596 0.99679 0.0
C963 C 0.01475 0.15798 1.00015 0.0
C964 C 0.99395 0.16109 0.99277 0.0
C965 C 0.99019 0.18111 0.98207 0.0
C966 C 1.00878 0.0932 0.013 0.0
C967 C 0.0276 0.09449 0.03022 0.0
C968 C 1.00451 0.11364 1.00344 0.0
C969 C 0.01883 0.13612 0.01099 0.0
C970 C 0.03734 0.13739 0.02882 0.0
C971 C 0.04169 0.11697 0.03812 0.0
H972 H 0.16295 0.79136 0.17518 0.0
H973 H 0.13879 0.81935 0.23923 0.0
H974 H 0.19547 0.78976 0.20292 0.0
H975 H 0.17171 0.81826 0.26713 0.0
H976 H 0.22199 0.78646 0.31211 0.0
H977 H 0.19018 0.79046 0.28442 0.0
H978 H 0.22777 0.81204 0.2295 0.0
H979 H 0.25961 0.80755 0.25724 0.0
C980 C 0.16463 0.79744 0.1952 0.0
C981 C 0.14806 0.80542 0.20487 0.0
C982 C 0.18346 0.79665 0.21118 0.0
C983 C 0.18641 0.8038 0.23744 0.0
C984 C 0.17 0.81224 0.24709 0.0
C985 C 0.15112 0.81306 0.23105 0.0
C986 C 0.22348 0.7921 0.29413 0.0
C987 C 0.24338 0.79671 0.28693 0.0
C988 C 0.2052 0.79459 0.27827 0.0
C989 C 0.2062 0.80174 0.25462 0.0
C990 C 0.22619 0.80629 0.2474 0.0
C991 C 0.24453 0.80383 0.26335 0.0
H992 H 0.4991 0.85304 0.4448 0.0
H993 H 0.54109 0.83472 0.50522 0.0
H994 H 0.50413 0.89302 0.46839 0.0
H995 H 0.54622 0.87516 0.52899 0.0
H996 H 0.56927 0.95939 0.54413 0.0
H997 H 0.56315 0.91741 0.52517 0.0
H998 H 0.49597 0.91418 0.50696 0.0
H999 H 0.50202 0.95614 0.52588 0.0
C1000 C 0.50937 0.85749 0.46321 0.0
C1001 C 0.51973 0.84059 0.47305 0.0
C1002 C 0.51213 0.88045 0.47684 0.0
C1003 C 0.52553 0.88738 0.50066 0.0
C1004 C 0.53586 0.87047 0.51065 0.0
C1005 C 0.53285 0.84726 0.49709 0.0
C1006 C 0.55314 0.94971 0.53631 0.0
C1007 C 0.53616 0.96133 0.53647 0.0
C1008 C 0.54964 0.92555 0.52555 0.0
C1009 C 0.52908 0.9124 0.51438 0.0
C1010 C 0.51204 0.92382 0.51514 0.0
C1011 C 0.51551 0.9479 0.52615 0.0
H1012 H 0.54039 0.3109 0.73216 0.0
H1013 H 0.49626 0.29092 0.66103 0.0
H1014 H 0.5106 0.30944 0.75442 0.0
H1015 H 0.46674 0.28903 0.68308 0.0
H1016 H 0.41801 0.30931 0.72717 0.0
H1017 H 0.44871 0.31325 0.70674 0.0
H1018 H 0.48142 0.28213 0.76487 0.0
H1019 H 0.45105 0.27909 0.78587 0.0
C1020 C 0.52439 0.30618 0.72126 0.0
C1021 C 0.52084 0.30108 0.69475 0.0
C1022 C 0.50726 0.3052 0.73403 0.0
C1023 C 0.48612 0.2992 0.72063 0.0
C1024 C 0.48269 0.29414 0.69413 0.0
C1025 C 0.49973 0.29506 0.68143 0.0
C1026 C 0.43181 0.30354 0.73581 0.0
C1027 C 0.43185 0.29376 0.7582 0.0
C1028 C 0.44941 0.30556 0.72389 0.0
C1029 C 0.46766 0.29789 0.73399 0.0
C1030 C 0.46781 0.28842 0.75657 0.0
C1031 C 0.45019 0.28636 0.76846 0.0
H1032 H 0.10282 0.83651 0.71347 0.0
H1033 H 0.03697 0.80132 0.68603 0.0
H1034 H 0.09833 0.86781 0.68818 0.0
H1035 H 0.03269 0.83199 0.6604 0.0
H1036 H 0.02497 0.90049 0.6345 0.0
H1037 H 0.03128 0.87322 0.66398 0.0
H1038 H 0.09259 0.87323 0.64419 0.0
H1039 H 0.08638 0.90116 0.61507 0.0
C1040 C 0.08741 0.83547 0.70209 0.0
C1041 C 0.07025 0.81647 0.70179 0.0
C1042 C 0.08487 0.8533 0.6875 0.0
C1043 C 0.06514 0.85242 0.67233 0.0
C1044 C 0.048 0.83347 0.67222 0.0
C1045 C 0.0505 0.81577 0.68683 0.0
C1046 C 0.03979 0.89465 0.63649 0.0
C1047 C 0.05508 0.90261 0.62231 0.0
C1048 C 0.04341 0.87902 0.65333 0.0
C1049 C 0.06232 0.8708 0.65618 0.0
C1050 C 0.07793 0.87938 0.64257 0.0
C1051 C 0.07437 0.89525 0.62584 0.0
H1052 H 0.46107 0.76139 0.82001 0.0
H1053 H 0.46993 0.83802 0.83879 0.0
H1054 H 0.42397 0.75825 0.80208 0.0
H1055 H 0.43299 0.83503 0.81998 0.0
H1056 H 0.36128 0.81689 0.81693 0.0
H1057 H 0.3993 0.82141 0.83059 0.0
H1058 H 0.39937 0.76637 0.76888 0.0
H1059 H 0.36128 0.76139 0.75578 0.0
C1060 C 0.45519 0.77762 0.81983 0.0
C1061 C 0.46835 0.79993 0.831 0.0
C1062 C 0.43393 0.77584 0.80945 0.0
C1063 C 0.42543 0.79638 0.8098 0.0
C1064 C 0.4389 0.81881 0.81992 0.0
C1065 C 0.46011 0.82055 0.83052 0.0
C1066 C 0.36946 0.80582 0.80627 0.0
C1067 C 0.35828 0.78858 0.7855 0.0
C1068 C 0.39128 0.80851 0.81396 0.0
C1069 C 0.40242 0.79424 0.80083 0.0
C1070 C 0.39124 0.77735 0.7797 0.0
C1071 C 0.36939 0.77449 0.77219 0.0
H1072 H 0.57083 0.19771 0.18827 0.0
H1073 H 0.51411 0.20225 0.13804 0.0
H1074 H 0.5769 0.16707 0.15722 0.0
H1075 H 0.51959 0.17058 0.10724 0.0
H1076 H 0.54078 0.12253 0.0493 0.0
H1077 H 0.54076 0.15894 0.07772 0.0
H1078 H 0.56218 0.1266 0.14167 0.0
H1079 H 0.56295 0.0911 0.11348 0.0
C1080 C 0.55949 0.19193 0.17067 0.0
C1081 C 0.54181 0.20213 0.16572 0.0
C1082 C 0.56298 0.17434 0.15283 0.0
C1083 C 0.54866 0.16617 0.12976 0.0
C1084 C 0.53111 0.17666 0.12465 0.0
C1085 C 0.52781 0.1946 0.1424 0.0
C1086 C 0.546 0.12358 0.06941 0.0
C1087 C 0.55178 0.104 0.07921 0.0
C1088 C 0.54575 0.14428 0.0857 0.0
C1089 C 0.55124 0.14564 0.11203 0.0
C1090 C 0.5581 0.12642 0.12156 0.0
C1091 C 0.55848 0.10594 0.10535 0.0
H1092 H 0.06454 0.31439 0.31719 0.0
H1093 H 0.11384 0.3568 0.37759 0.0
H1094 H 0.09139 0.30278 0.29504 0.0
H1095 H 0.14058 0.34468 0.35588 0.0
H1096 H 0.18656 0.32501 0.31007 0.0
H1097 H 0.15858 0.34437 0.32088 0.0
H1098 H 0.11424 0.27577 0.30335 0.0
H1099 H 0.14213 0.25665 0.29205 0.0
C1100 C 0.08111 0.32156 0.32554 0.0
C1101 C 0.08707 0.33619 0.34935 0.0
C1102 C 0.09648 0.31479 0.31291 0.0
C1103 C 0.11811 0.32243 0.32388 0.0
C1104 C 0.12408 0.33855 0.34677 0.0
C1105 C 0.10871 0.34542 0.35933 0.0
C1106 C 0.17074 0.31418 0.30823 0.0
C1107 C 0.16654 0.28931 0.30049 0.0
C1108 C 0.15473 0.32524 0.31444 0.0
C1109 C 0.13421 0.31161 0.31322 0.0
C1110 C 0.12978 0.28689 0.30419 0.0
C1111 C 0.14578 0.27587 0.2978 0.0
H1112 H 0.98153 0.97262 0.20592 0.0
H1113 H 0.96407 0.04098 0.21588 0.0
H1114 H 0.9973 0.98329 0.17011 0.0
H1115 H 0.97906 0.05127 0.17966 0.0
H1116 H 0.02967 0.07228 0.13229 0.0
H1117 H 1.01212 0.06201 0.16693 0.0
H1118 H 0.98881 0.9894 0.12754 0.0
H1119 H 1.00717 0.99951 0.09355 0.0
C1120 C 0.98094 0.98985 0.20038 0.0
C1121 C 0.97165 1.00597 0.21384 0.0
C1122 C 0.98983 0.99591 0.17972 0.0
C1123 C 0.98943 0.01816 0.17191 0.0
C1124 C 0.97998 0.03417 0.18533 0.0
C1125 C 0.97128 0.0282 0.20608 0.0
C1126 C 0.02059 0.05422 0.13095 0.0
C1127 C 0.01978 0.03671 0.11025 0.0
C1128 C 1.01046 0.04831 0.15076 0.0
C1129 C 0.99916 0.02479 0.15017 0.0
C1130 C 0.99771 1.00755 0.1289 0.0
C1131 C 1.00798 1.01342 0.10922 0.0
H1132 H 0.39606 0.73745 0.57986 0.0
H1133 H 0.33016 0.70212 0.57126 0.0
H1134 H 0.3864 0.76114 0.54757 0.0
H1135 H 0.32065 0.72495 0.53854 0.0
H1136 H 0.30616 0.77954 0.49094 0.0
H1137 H 0.31714 0.76266 0.52844 0.0
H1138 H 0.37501 0.75499 0.50295 0.0
H1139 H 0.36422 0.77248 0.46591 0.0
C1140 C 0.37953 0.73482 0.57118 0.0
C1141 C 0.36393 0.7178 0.57802 0.0
C1142 C 0.37399 0.74827 0.55255 0.0
C1143 C 0.35275 0.74486 0.54025 0.0
C1144 C 0.33711 0.72836 0.54778 0.0
C1145 C 0.34262 0.71511 0.56649 0.0
C1146 C 0.32125 0.77429 0.49346 0.0
C1147 C 0.33428 0.7772 0.47547 0.0
C1148 C 0.32755 0.76459 0.51491 0.0
C1149 C 0.34693 0.75731 0.51872 0.0
C1150 C 0.36016 0.76073 0.50092 0.0
C1151 C 0.35394 0.77065 0.4796 0.0
H1152 H 0.62055 0.05401 0.76345 0.0
H1153 H 0.64416 0.99418 0.73319 0.0
H1154 H 0.59984 0.05383 0.72219 0.0
H1155 H 0.6232 0.99416 0.69104 0.0
H1156 H 0.59558 0.0214 0.61319 0.0
H1157 H 0.6185 0.01899 0.65334 0.0
H1158 H 0.56845 0.02954 0.69317 0.0
H1159 H 0.54599 0.03166 0.65387 0.0
C1160 C 0.62131 0.04058 0.74803 0.0
C1161 C 0.63414 0.02395 0.75233 0.0
C1162 C 0.60925 0.04049 0.72404 0.0
C1163 C 0.60952 0.024 0.70268 0.0
C1164 C 0.62248 1.00733 0.70671 0.0
C1165 C 0.63439 1.00715 0.73111 0.0
C1166 C 0.58953 0.0233 0.63053 0.0
C1167 C 0.56874 0.02697 0.62988 0.0
C1168 C 0.60266 0.02171 0.6537 0.0
C1169 C 0.59563 0.02418 0.67708 0.0
C1170 C 0.57487 0.02781 0.67606 0.0
C1171 C 0.56181 0.02899 0.65318 0.0
H1172 H 0.31944 0.39339 1.00235 0.0
H1173 H 0.3156 0.32339 0.02346 0.0
H1174 H 0.31454 0.37564 0.95789 0.0
H1175 H 0.31002 0.30563 0.97882 0.0
H1176 H 0.27597 0.28853 0.89073 0.0
H1177 H 0.27935 0.30512 0.93544 0.0
H1178 H 0.34002 0.34993 0.9343 0.0
H1179 H 0.33706 0.33295 0.89001 0.0
C1180 C 0.31727 0.37419 0.99748 0.0
C1181 C 0.31795 0.35978 0.01642 0.0
C1182 C 0.31455 0.36409 0.97208 0.0
C1183 C 0.31191 0.33931 0.96502 0.0
C1184 C 0.31195 0.32478 0.98382 0.0
C1185 C 0.31521 0.33496 1.00931 0.0
C1186 C 0.29006 0.30185 0.90008 0.0
C1187 C 0.30629 0.30938 0.88689 0.0
C1188 C 0.29199 0.31126 0.92561 0.0
C1189 C 0.30991 0.32882 0.93819 0.0
C1190 C 0.32603 0.33647 0.92497 0.0
C1191 C 0.32436 0.32665 0.89969 0.0
H1192 H 0.99211 0.03784 0.3477 0.0
H1193 H 0.93748 0.99851 0.37138 0.0
H1194 H 1.01252 0.04335 0.39078 0.0
H1195 H 0.95784 1.00388 0.41404 0.0
H1196 H 1.00714 0.99299 0.47768 0.0
H1197 H 0.98959 0.98896 0.43404 0.0
H1198 H 1.01144 0.0647 0.43588 0.0
H1199 H 0.02914 0.06896 0.47999 0.0
C1200 C 0.98449 0.03035 0.36204 0.0
C1201 C 0.9632 0.01768 0.35613 0.0
C1202 C 0.99613 0.03363 0.38668 0.0
C1203 C 0.98677 0.02395 0.40567 0.0
C1204 C 0.96552 1.01132 0.39971 0.0
C1205 C 0.95384 1.00834 0.37528 0.0
C1206 C 1.00843 1.00884 0.46886 0.0
C1207 C 0.01947 0.03135 0.48247 0.0
C1208 C 0.99825 1.0065 0.44384 0.0
C1209 C 0.99901 0.02653 0.43166 0.0
C1210 C 1.01067 0.04895 0.44484 0.0
C1211 C 0.02071 0.05138 0.4701 0.0
H1212 H 0.40141 0.73125 0.65744 0.0
H1213 H 0.35826 0.67418 0.67859 0.0
H1214 H 0.37887 0.75894 0.66768 0.0
H1215 H 0.33549 0.70146 0.68838 0.0
H1216 H 0.29085 0.75087 0.68791 0.0
H1217 H 0.31204 0.72551 0.669 0.0
H1218 H 0.36934 0.77679 0.70656 0.0
H1219 H 0.34826 0.80171 0.72547 0.0
C1220 C 0.387 0.72471 0.66416 0.0
C1221 C 0.38114 0.70066 0.66681 0.0
C1222 C 0.37413 0.74044 0.66996 0.0
C1223 C 0.35533 0.73228 0.67863 0.0
C1224 C 0.34969 0.70817 0.6814 0.0
C1225 C 0.3626 0.69255 0.67572 0.0
C1226 C 0.30797 0.75666 0.69187 0.0
C1227 C 0.31798 0.77773 0.70868 0.0
C1228 C 0.32007 0.74227 0.68107 0.0
C1229 C 0.34235 0.74904 0.68663 0.0
C1230 C 0.35222 0.77115 0.7018 0.0
C1231 C 0.34013 0.78541 0.71266 0.0
H1232 H 0.65746 1.01016 0.90861 0.0
H1233 H 0.61427 0.04873 0.87315 0.0
H1234 H 0.64079 1.01279 0.94624 0.0
H1235 H 0.59807 0.05152 0.91002 0.0
H1236 H 0.55725 0.03636 0.96885 0.0
H1237 H 0.57519 0.03249 0.9333 0.0
H1238 H 0.63374 0.0359 0.98413 0.0
H1239 H 0.61542 0.0396 0.02016 0.0
C1240 C 0.64443 0.01913 0.90856 0.0
C1241 C 0.63746 0.02905 0.88705 0.0
C1242 C 0.63482 0.02083 0.93047 0.0
C1243 C 0.61757 0.03227 0.93188 0.0
C1244 C 0.6108 0.04209 0.9103 0.0
C1245 C 0.62041 0.04059 0.88875 0.0
C1246 C 0.574 0.03646 0.9728 0.0
C1247 C 0.58455 0.03858 0.99808 0.0
C1248 C 0.58453 0.03431 0.95202 0.0
C1249 C 0.60638 0.03401 0.95502 0.0
C1250 C 0.61701 0.03587 0.98035 0.0
C1251 C 0.60641 0.03822 1.00132 0.0
H1252 H 0.31743 0.39253 0.16309 0.0
H1253 H 0.31398 0.32558 0.11601 0.0
H1254 H 0.31463 0.372 0.1993 0.0
H1255 H 0.31308 0.30519 0.15223 0.0
H1256 H 0.28686 0.26857 0.2123 0.0
H1257 H 0.29247 0.28979 0.17766 0.0
H1258 H 0.32673 0.35299 0.23073 0.0
H1259 H 0.31926 0.33193 0.26551 0.0
C1260 C 0.31656 0.37345 0.16066 0.0
C1261 C 0.31572 0.36063 0.13668 0.0
C1262 C 0.31507 0.36157 0.18151 0.0
C1263 C 0.3133 0.33659 0.17908 0.0
C1264 C 0.31359 0.32415 0.15511 0.0
C1265 C 0.31437 0.33591 0.13421 0.0
C1266 C 0.29572 0.28697 0.21661 0.0
C1267 C 0.30269 0.29847 0.24174 0.0
C1268 C 0.29918 0.29925 0.19657 0.0
C1269 C 0.31028 0.32337 0.20091 0.0
C1270 C 0.31779 0.33466 0.22625 0.0
C1271 C 0.3138 0.32247 0.24636 0.0
H1272 H 0.23932 0.93371 0.06431 0.0
H1273 H 0.18456 0.91481 1.00368 0.0
H1274 H 0.22158 0.95947 0.08823 0.0
H1275 H 0.16689 0.9407 0.02767 0.0
H1276 H 0.19311 0.02846 0.09776 0.0
H1277 H 0.21103 0.9981 0.08178 0.0
H1278 H 0.15222 0.94502 0.06761 0.0
H1279 H 0.13423 0.97535 0.0831 0.0
C1280 C 0.22344 0.93491 0.05615 0.0
C1281 C 0.21337 0.92237 0.03201 0.0
C1282 C 0.21334 0.94969 0.06986 0.0
C1283 C 0.19291 0.95204 0.05981 0.0
C1284 C 0.18257 0.93897 0.036 0.0
C1285 C 0.19274 0.92432 0.02218 0.0
C1286 C 0.18415 1.0102 0.0917 0.0
C1287 C 0.16229 1.0043 0.09153 0.0
C1288 C 0.1944 0.99282 0.08268 0.0
C1289 C 0.1829 0.96932 0.07318 0.0
C1290 C 0.16136 0.96309 0.07453 0.0
C1291 C 0.15115 0.98041 0.0837 0.0
H1292 H 0.68721 0.65759 0.04046 0.0
H1293 H 0.70846 0.59373 0.0167 0.0
H1294 H 0.65247 0.63353 0.04102 0.0
H1295 H 0.67358 0.56945 0.01768 0.0
H1296 H 0.60211 0.53496 0.9995 0.0
H1297 H 0.63658 0.55916 0.99713 0.0
H1298 H 0.63506 0.60621 0.0648 0.0
H1299 H 0.60044 0.58213 0.06686 0.0
C1300 C 0.68451 0.63837 0.03533 0.0
C1301 C 0.70078 0.62767 0.02856 0.0
C1302 C 0.66453 0.6245 0.03584 0.0
C1303 C 0.66009 0.59944 0.02958 0.0
C1304 C 0.67626 0.5887 0.02241 0.0
C1305 C 0.69635 0.60262 0.02193 0.0
C1306 C 0.60912 0.55054 0.01381 0.0
C1307 C 0.5985 0.55663 0.03335 0.0
C1308 C 0.62899 0.56434 0.01256 0.0
C1309 C 0.63878 0.5847 0.03079 0.0
C1310 C 0.62798 0.59088 0.05021 0.0
C1311 C 0.60813 0.57702 0.05148 0.0
H1312 H 0.69225 0.51049 0.35499 0.0
H1313 H 0.68503 0.49496 0.27385 0.0
H1314 H 0.71102 0.4783 0.35914 0.0
H1315 H 0.70393 0.46289 0.2781 0.0
H1316 H 0.71835 0.39157 0.29518 0.0
H1317 H 0.69851 0.42293 0.29201 0.0
H1318 H 0.74565 0.46982 0.35155 0.0
H1319 H 0.76572 0.43865 0.35448 0.0
C1320 C 0.69466 0.50022 0.33804 0.0
C1321 C 0.68717 0.50528 0.31408 0.0
C1322 C 0.70549 0.48187 0.34045 0.0
C1323 C 0.7089 0.4681 0.31894 0.0
C1324 C 0.70131 0.47305 0.29498 0.0
C1325 C 0.69061 0.49151 0.29257 0.0
C1326 C 0.72456 0.40861 0.30749 0.0
C1327 C 0.74368 0.41264 0.325 0.0
C1328 C 0.71318 0.42654 0.30568 0.0
C1329 C 0.72059 0.44882 0.32146 0.0
C1330 C 0.73945 0.45271 0.33933 0.0
C1331 C 0.75091 0.43484 0.34104 0.0
H1332 H 0.79971 0.46393 0.50357 0.0
H1333 H 0.82406 0.42275 0.4477 0.0
H1334 H 0.83027 0.49697 0.50785 0.0
H1335 H 0.85477 0.45531 0.45251 0.0
H1336 H 0.90753 0.5156 0.45955 0.0
H1337 H 0.87044 0.49513 0.44841 0.0
H1338 H 0.86667 0.50193 0.52745 0.0
H1339 H 0.90343 0.52379 0.53854 0.0
C1340 C 0.81142 0.46206 0.49193 0.0
C1341 C 0.80968 0.44058 0.47561 0.0
C1342 C 0.82896 0.48096 0.49446 0.0
C1343 C 0.84511 0.47871 0.48079 0.0
C1344 C 0.84256 0.45783 0.46318 0.0
C1345 C 0.82499 0.43901 0.46055 0.0
C1346 C 0.89862 0.51362 0.47455 0.0
C1347 C 0.90861 0.52099 0.50002 0.0
C1348 C 0.87738 0.50156 0.46813 0.0
C1349 C 0.86571 0.49639 0.48702 0.0
C1350 C 0.87515 0.50561 0.51237 0.0
C1351 C 0.89635 0.51788 0.51878 0.0
H1352 H 0.36024 0.10434 0.29974 0.0
H1353 H 0.41447 0.15749 0.29372 0.0
H1354 H 0.33927 0.13536 0.30152 0.0
H1355 H 0.39392 0.18781 0.2948 0.0
H1356 H 0.35958 0.24696 0.31467 0.0
H1357 H 0.37889 0.21508 0.3137 0.0
H1358 H 0.32004 0.16288 0.28721 0.0
H1359 H 0.30065 0.1951 0.289 0.0
C1360 C 0.36785 0.12247 0.29865 0.0
C1361 C 0.38955 0.1277 0.29667 0.0
C1362 C 0.35563 0.14063 0.29961 0.0
C1363 C 0.36438 0.1651 0.29865 0.0
C1364 C 0.386 0.16994 0.29632 0.0
C1365 C 0.39806 0.15201 0.29545 0.0
C1366 C 0.35054 0.22876 0.30856 0.0
C1367 C 0.32815 0.22435 0.30185 0.0
C1368 C 0.36185 0.21001 0.30776 0.0
C1369 C 0.35162 0.18543 0.30003 0.0
C1370 C 0.32912 0.18102 0.29348 0.0
C1371 C 0.31777 0.19986 0.29437 0.0
H1372 H 0.34418 0.15894 0.51195 0.0
H1373 H 0.30873 0.10347 0.54437 0.0
H1374 H 0.37407 0.13978 0.51574 0.0
H1375 H 0.33908 0.0845 0.54896 0.0
H1376 H 0.39124 0.04505 0.53366 0.0
H1377 H 0.36036 0.06276 0.52772 0.0
H1378 H 0.40152 0.13324 0.54572 0.0
H1379 H 0.43234 0.11556 0.55024 0.0
C1380 C 0.34276 0.14265 0.52001 0.0
C1381 C 0.32397 0.13284 0.52792 0.0
C1382 C 0.36006 0.1317 0.52237 0.0
C1383 C 0.35927 0.11062 0.53292 0.0
C1384 C 0.34032 0.10056 0.54051 0.0
C1385 C 0.32289 0.1115 0.53799 0.0
C1386 C 0.39377 0.06433 0.53596 0.0
C1387 C 0.41448 0.07877 0.54238 0.0
C1388 C 0.37595 0.07454 0.53291 0.0
C1389 C 0.37825 0.09953 0.53621 0.0
C1390 C 0.39896 0.11394 0.54262 0.0
C1391 C 0.41675 0.10375 0.54558 0.0
H1392 H 0.67331 0.65231 0.30319 0.0
H1393 H 0.71693 0.6149 0.34055 0.0
H1394 H 0.7029 0.68489 0.30215 0.0
H1395 H 0.74653 0.64769 0.33974 0.0
H1396 H 0.79482 0.69842 0.30585 0.0
H1397 H 0.76578 0.66563 0.30902 0.0
H1398 H 0.72939 0.71694 0.33057 0.0
H1399 H 0.75841 0.74942 0.32748 0.0
C1400 C 0.68919 0.6511 0.31135 0.0
C1401 C 0.69272 0.63097 0.32194 0.0
C1402 C 0.70616 0.66984 0.31085 0.0
C1403 C 0.7271 0.66888 0.32082 0.0
C1404 C 0.73063 0.64885 0.33162 0.0
C1405 C 0.71363 0.63014 0.33225 0.0
C1406 C 0.78058 0.70257 0.31124 0.0
C1407 C 0.77851 0.72635 0.31564 0.0
C1408 C 0.764 0.68386 0.31318 0.0
C1409 C 0.74513 0.68866 0.3197 0.0
C1410 C 0.74344 0.71258 0.32481 0.0
C1411 C 0.75998 0.73119 0.32286 0.0
H1412 H 0.90149 0.45595 0.76236 0.0
H1413 H 0.86707 0.49074 0.81122 0.0
H1414 H 0.88195 0.41714 0.76718 0.0
H1415 H 0.84691 0.45136 0.8158 0.0
H1416 H 0.82795 0.37567 0.83817 0.0
H1417 H 0.84607 0.41548 0.83312 0.0
H1418 H 0.85096 0.38749 0.75749 0.0
H1419 H 0.83327 0.34767 0.76284 0.0
C1420 C 0.88957 0.45548 0.77406 0.0
C1421 C 0.88611 0.47709 0.78629 0.0
C1422 C 0.87807 0.43283 0.77672 0.0
C1423 C 0.86242 0.43034 0.79185 0.0
C1424 C 0.85883 0.45198 0.80411 0.0
C1425 C 0.87036 0.47484 0.80133 0.0
C1426 C 0.83285 0.37788 0.82038 0.0
C1427 C 0.82894 0.35788 0.80098 0.0
C1428 C 0.84325 0.40105 0.81739 0.0
C1429 C 0.85038 0.40543 0.79486 0.0
C1430 C 0.84627 0.38538 0.77539 0.0
C1431 C 0.83583 0.36223 0.77837 0.0
H1432 H 0.05469 0.85971 0.1344 0.0
H1433 H 0.11921 0.88039 0.12375 0.0
H1434 H 0.04595 0.89313 0.11498 0.0
H1435 H 0.11038 0.91328 0.10348 0.0
H1436 H 0.09383 0.98513 0.09198 0.0
H1437 H 0.10286 0.9512 0.11006 0.0
H1438 H 0.03979 0.90925 0.07796 0.0
H1439 H 0.03066 0.94354 0.06081 0.0
C1440 C 0.06699 0.87121 0.12765 0.0
C1441 C 0.0877 0.86722 0.13078 0.0
C1442 C 0.06195 0.89043 0.1163 0.0
C1443 C 0.0774 0.90624 0.1075 0.0
C1444 C 0.09804 0.90196 0.11033 0.0
C1445 C 0.10311 0.88286 0.12185 0.0
C1446 C 0.0819 0.96869 0.08876 0.0
C1447 C 0.06147 0.96736 0.07504 0.0
C1448 C 0.08712 0.94901 0.09903 0.0
C1449 C 0.07208 0.92718 0.09578 0.0
C1450 C 0.05177 0.92572 0.08149 0.0
C1451 C 0.04655 0.94546 0.07137 0.0
H1452 H 0.93933 0.28552 0.9448 0.0
H1453 H 0.95633 0.24894 0.8795 0.0
H1454 H 0.90535 0.2864 0.91973 0.0
H1455 H 0.92217 0.25007 0.85417 0.0
H1456 H 0.85043 0.23434 0.82313 0.0
H1457 H 0.88438 0.2333 0.84844 0.0
H1458 H 0.88933 0.30499 0.88643 0.0
H1459 H 0.85508 0.30588 0.86107 0.0
C1460 C 0.93586 0.27763 0.92504 0.0
C1461 C 0.95071 0.26709 0.91427 0.0
C1462 C 0.91633 0.27833 0.91057 0.0
C1463 C 0.91088 0.26842 0.88481 0.0
C1464 C 0.92565 0.2577 0.874 0.0
C1465 C 0.94532 0.25711 0.88851 0.0
C1466 C 0.85871 0.24989 0.83694 0.0
C1467 C 0.85001 0.27023 0.84002 0.0
C1468 C 0.87833 0.24935 0.85135 0.0
C1469 C 0.88983 0.26909 0.86945 0.0
C1470 C 0.88092 0.28934 0.87284 0.0
C1471 C 0.86129 0.28992 0.85827 0.0
H1472 H 0.60627 0.24053 0.60476 0.0
H1473 H 0.55106 0.23012 0.63942 0.0
H1474 H 0.59851 0.19792 0.58838 0.0
H1475 H 0.54365 0.18732 0.62379 0.0
H1476 H 0.52583 0.11331 0.57554 0.0
H1477 H 0.53218 0.15641 0.58853 0.0
H1478 H 0.59975 0.16085 0.6013 0.0
H1479 H 0.59338 0.11793 0.58751 0.0
C1480 C 0.59243 0.22916 0.60889 0.0
C1481 C 0.57932 0.23887 0.62347 0.0
C1482 C 0.58806 0.20458 0.59964 0.0
C1483 C 0.57052 0.18888 0.60486 0.0
C1484 C 0.55716 0.19872 0.61904 0.0
C1485 C 0.56146 0.22335 0.62814 0.0
C1486 C 0.54207 0.12347 0.58102 0.0
C1487 C 0.55908 0.11198 0.58039 0.0
C1488 C 0.54572 0.14828 0.58866 0.0
C1489 C 0.56651 0.16238 0.59607 0.0
C1490 C 0.58351 0.15084 0.59535 0.0
C1491 C 0.57985 0.12607 0.58755 0.0
H1492 H 0.5599 0.77779 0.38381 0.0
H1493 H 0.59856 0.76235 0.44907 0.0
H1494 H 0.59 0.78059 0.36196 0.0
H1495 H 0.62846 0.76543 0.42753 0.0
H1496 H 0.6725 0.74949 0.37406 0.0
H1497 H 0.64123 0.74516 0.39356 0.0
H1498 H 0.62483 0.80575 0.36278 0.0
H1499 H 0.65574 0.80962 0.34263 0.0
C1500 C 0.57477 0.775 0.39351 0.0
C1501 C 0.5767 0.76983 0.41824 0.0
C1502 C 0.59209 0.77672 0.38103 0.0
C1503 C 0.61176 0.77317 0.39289 0.0
C1504 C 0.61357 0.76792 0.41757 0.0
C1505 C 0.59636 0.76632 0.43004 0.0
C1506 C 0.66214 0.76177 0.37122 0.0
C1507 C 0.66683 0.77999 0.35681 0.0
C1508 C 0.64426 0.75943 0.38264 0.0
C1509 C 0.63043 0.77516 0.3799 0.0
C1510 C 0.63495 0.79317 0.36519 0.0
C1511 C 0.65289 0.79558 0.35388 0.0
H1512 H 0.08739 0.27974 0.44041 0.0
H1513 H 0.02224 0.24973 0.40366 0.0
H1514 H 0.08707 0.24552 0.46254 0.0
H1515 H 0.02211 0.21548 0.42537 0.0
H1516 H 0.02083 0.18179 0.4973 0.0
H1517 H 0.02245 0.21166 0.46962 0.0
H1518 H 0.08396 0.20141 0.45791 0.0
H1519 H 0.08251 0.1717 0.48631 0.0
C1520 C 0.07313 0.2657 0.43677 0.0
C1521 C 0.05475 0.26761 0.4206 0.0
C1522 C 0.073 0.24604 0.44931 0.0
C1523 C 0.05449 0.22798 0.44586 0.0
C1524 C 0.03648 0.22935 0.42873 0.0
C1525 C 0.03659 0.24896 0.41627 0.0
C1526 C 0.0347 0.1859 0.48881 0.0
C1527 C 0.05162 0.17462 0.49409 0.0
C1528 C 0.03553 0.20281 0.47274 0.0
C1529 C 0.05332 0.20883 0.46156 0.0
C1530 C 0.07012 0.1972 0.46641 0.0
C1531 C 0.06922 0.18012 0.48246 0.0
H1532 H 0.61922 0.28977 0.25899 0.0
H1533 H 0.61911 0.21471 0.25645 0.0
H1534 H 0.65738 0.29868 0.26119 0.0
H1535 H 0.65743 0.22377 0.25923 0.0
H1536 H 0.72065 0.24437 0.2346 0.0
H1537 H 0.68236 0.23691 0.232 0.0
H1538 H 0.69039 0.29905 0.28885 0.0
H1539 H 0.72847 0.30689 0.29105 0.0
C1540 C 0.62738 0.27521 0.25931 0.0
C1541 C 0.61614 0.25151 0.25744 0.0
C1542 C 0.64926 0.28034 0.26058 0.0
C1543 C 0.66034 0.26189 0.26008 0.0
C1544 C 0.64922 0.23829 0.25911 0.0
C1545 C 0.62731 0.23314 0.25781 0.0
C1546 C 0.71422 0.25665 0.24624 0.0
C1547 C 0.72761 0.27618 0.26304 0.0
C1548 C 0.69232 0.25222 0.24497 0.0
C1549 C 0.68343 0.26723 0.26046 0.0
C1550 C 0.69676 0.28724 0.27658 0.0
C1551 C 0.71862 0.29169 0.27784 0.0
H1552 H 0.5223 0.84716 0.9827 0.0
H1553 H 0.5472 0.89155 0.93144 0.0
H1554 H 0.52518 0.88281 0.01348 0.0
H1555 H 0.55066 0.927 0.96239 0.0
H1556 H 0.53177 0.98618 1.00721 0.0
H1557 H 0.52715 0.94883 0.97908 0.0
H1558 H 0.55004 0.91616 0.04204 0.0
H1559 H 0.55378 0.95373 0.07065 0.0
C1560 C 0.5286 0.8645 0.97811 0.0
C1561 C 0.53432 0.86657 0.95453 0.0
C1562 C 0.53032 0.88491 0.9958 0.0
C1563 C 0.53787 0.90775 0.99026 0.0
C1564 C 0.54427 0.90969 0.96701 0.0
C1565 C 0.54243 0.88936 0.94931 0.0
C1566 C 0.53532 0.97092 0.01523 0.0
C1567 C 0.54303 0.97284 0.04117 0.0
C1568 C 0.533 0.94957 0.999 0.0
C1569 C 0.53863 0.92964 1.00821 0.0
C1570 C 0.54554 0.9312 0.03436 0.0
C1571 C 0.54769 0.95267 0.05074 0.0
H1572 H 0.97419 0.72869 0.72903 0.0
H1573 H 0.02431 0.76117 0.79308 0.0
H1574 H 0.94842 0.74201 0.75193 0.0
H1575 H 0.99847 0.77439 0.81591 0.0
H1576 H 0.95158 0.82576 0.82353 0.0
H1577 H 0.97769 0.8058 0.80798 0.0
H1578 H 0.93126 0.73881 0.78981 0.0
H1579 H 0.90509 0.75882 0.80498 0.0
C1580 C 0.97965 0.73822 0.74816 0.0
C1581 C 1.00132 0.74416 0.75909 0.0
C1582 C 0.96488 0.74577 0.76131 0.0
C1583 C 0.97153 0.75948 0.78557 0.0
C1584 C 0.99299 0.76414 0.79709 0.0
C1585 C 1.00774 0.75645 0.78403 0.0
C1586 C 0.94707 0.80674 0.81647 0.0
C1587 C 0.92635 0.79386 0.81543 0.0
C1588 C 0.96203 0.79526 0.80779 0.0
C1589 C 0.95646 0.77076 0.79769 0.0
C1590 C 0.93593 0.75773 0.7974 0.0
C1591 C 0.92103 0.76915 0.80628 0.0
H1592 H 0.09064 1.0117 0.86805 0.0
H1593 H 0.13997 0.06953 0.91257 0.0
H1594 H 0.07516 1.00611 0.90518 0.0
H1595 H 0.12482 0.06346 0.94997 0.0
H1596 H 0.07717 0.06096 1.00445 0.0
H1597 H 0.0948 0.06771 0.96894 0.0
H1598 H 0.08224 0.99138 0.94411 0.0
H1599 H 0.06405 0.98477 0.97917 0.0
C1600 C 0.0982 0.02322 0.88577 0.0
C1601 C 0.11654 0.04104 0.88734 0.0
C1602 C 0.08943 0.01987 0.90715 0.0
C1603 C 0.09888 0.03414 0.93067 0.0
C1604 C 0.11704 0.05226 0.93214 0.0
C1605 C 0.12575 0.05571 0.91069 0.0
C1606 C 0.07844 0.04565 0.99155 0.0
C1607 C 0.0691 0.02235 0.99437 0.0
C1608 C 0.08857 0.0495 0.97123 0.0
C1609 C 0.08967 0.0301 0.95343 0.0
C1610 C 0.08121 1.00675 0.95708 0.0
C1611 C 0.07097 1.00293 0.97729 0.0
H1612 H 0.81182 0.40371 0.5901 0.0
H1613 H 0.80435 0.34211 0.53277 0.0
H1614 H 0.82445 0.38163 0.6222 0.0
H1615 H 0.81792 0.32023 0.5648 0.0
H1616 H 0.80123 0.2815 0.63116 0.0
H1617 H 0.80149 0.30299 0.59579 0.0
H1618 H 0.8491 0.36155 0.64217 0.0
H1619 H 0.84833 0.34003 0.67797 0.0
C1620 C 0.81346 0.38566 0.58427 0.0
C1621 C 0.80665 0.37444 0.55904 0.0
C1622 C 0.82089 0.37301 0.60267 0.0
C1623 C 0.8219 0.34899 0.59615 0.0
C1624 C 0.81684 0.33851 0.57054 0.0
C1625 C 0.80914 0.35106 0.55218 0.0
C1626 C 0.81221 0.29865 0.63362 0.0
C1627 C 0.82458 0.30923 0.65735 0.0
C1628 C 0.81244 0.311 0.61327 0.0
C1629 C 0.82517 0.33416 0.61617 0.0
C1630 C 0.83879 0.34395 0.63945 0.0
C1631 C 0.8384 0.33165 0.65991 0.0
H1632 H 0.47765 0.02072 0.35563 0.0
H1633 H 0.44851 0.07528 0.387 0.0
H1634 H 0.49788 0.02076 0.39699 0.0
H1635 H 0.46919 0.0753 0.42929 0.0
H1636 H 0.49905 0.0489 0.50628 0.0
H1637 H 0.47594 0.05088 0.46614 0.0
H1638 H 0.52745 0.04551 0.42703 0.0
H1639 H 0.54999 0.04357 0.46626 0.0
C1640 C 0.47552 0.03294 0.37132 0.0
C1641 C 0.46127 0.04814 0.36729 0.0
C1642 C 0.48736 0.03299 0.3954 0.0
C1643 C 0.48559 0.04809 0.41709 0.0
C1644 C 0.47114 0.06324 0.41336 0.0
C1645 C 0.45934 0.06341 0.3889 0.0
C1646 C 0.50538 0.04803 0.48909 0.0
C1647 C 0.52659 0.04579 0.4899 0.0
C1648 C 0.49212 0.04937 0.46593 0.0
C1649 C 0.4995 0.04816 0.44273 0.0
C1650 C 0.52072 0.04612 0.44395 0.0
C1651 C 0.53385 0.04508 0.46681 0.0
H1652 H 0.75761 0.68201 0.10593 0.0
H1653 H 0.80926 0.73879 0.09952 0.0
H1654 H 0.75933 0.70012 0.14945 0.0
H1655 H 0.81075 0.75706 0.14286 0.0
H1656 H 0.82498 0.76571 0.22897 0.0
H1657 H 0.82148 0.74898 0.18494 0.0
H1658 H 0.75328 0.7346 0.17624 0.0
H1659 H 0.75675 0.75114 0.22078 0.0
C1660 C 0.76925 0.69844 0.11371 0.0
C1661 C 0.7834 0.70882 0.09918 0.0
C1662 C 0.77014 0.70893 0.13867 0.0
C1663 C 0.78525 0.73002 0.14981 0.0
C1664 C 0.79912 0.74062 0.13508 0.0
C1665 C 0.79819 0.73019 0.11013 0.0
C1666 C 0.80917 0.75903 0.2178 0.0
C1667 C 0.79114 0.75981 0.22863 0.0
C1668 C 0.80718 0.74956 0.19236 0.0
C1669 C 0.7871 0.74049 0.17688 0.0
C1670 C 0.76901 0.74124 0.18763 0.0
C1671 C 0.771 0.75085 0.21316 0.0
H1672 H 0.10653 0.09626 0.77123 0.0
H1673 H 0.12829 0.03068 0.75876 0.0
H1674 H 0.08925 0.08945 0.727 0.0
H1675 H 0.11158 0.02423 0.71443 0.0
H1676 H 0.06311 1.00909 0.64067 0.0
H1677 H 0.07819 1.01452 0.68553 0.0
H1678 H 0.09882 0.09039 0.68647 0.0
H1679 H 0.0833 0.08511 0.64196 0.0
C1680 C 0.10762 0.08039 0.75907 0.0
C1681 C 0.11885 0.06407 0.76854 0.0
C1682 C 0.09784 0.07655 0.73364 0.0
C1683 C 0.09913 0.05636 0.71705 0.0
C1684 C 0.11003 0.03982 0.72668 0.0
C1685 C 0.11973 0.0436 0.75212 0.0
C1686 C 0.07087 0.02693 0.65044 0.0
C1687 C 0.07192 0.04666 0.63766 0.0
C1688 C 0.0796 0.03003 0.67617 0.0
C1689 C 0.08965 0.05292 0.6897 0.0
C1690 C 0.09084 0.07258 0.67682 0.0
C1691 C 0.08206 0.0695 0.65117 0.0
H1692 H 0.7538 0.35785 0.41988 0.0
H1693 H 0.7405 0.29568 0.4562 0.0
H1694 H 0.76025 0.33291 0.38365 0.0
H1695 H 0.74673 0.27074 0.4194 0.0
H1696 H 0.80724 0.28785 0.35634 0.0
H1697 H 0.79444 0.30584 0.39232 0.0
H1698 H 0.73115 0.2643 0.36145 0.0
H1699 H 0.74387 0.24648 0.32496 0.0
C1700 C 0.75171 0.3388 0.41992 0.0
C1701 C 0.74695 0.32879 0.44111 0.0
C1702 C 0.75544 0.3246 0.39919 0.0
C1703 C 0.75414 0.30012 0.3991 0.0
C1704 C 0.74777 0.28964 0.41925 0.0
C1705 C 0.74424 0.30392 0.44022 0.0
C1706 C 0.79069 0.28221 0.35749 0.0
C1707 C 0.77646 0.26609 0.33787 0.0
C1708 C 0.7834 0.29251 0.37795 0.0
C1709 C 0.76186 0.2865 0.37928 0.0
C1710 C 0.74783 0.26909 0.36063 0.0
C1711 C 0.75511 0.25891 0.33993 0.0
H1712 H 0.47541 0.06782 0.24535 0.0
H1713 H 0.42231 0.02194 0.19295 0.0
H1714 H 0.4972 0.06621 0.21246 0.0
H1715 H 0.44371 0.01986 0.16082 0.0
H1716 H 0.48001 0.03178 0.09678 0.0
H1717 H 0.45952 0.03501 0.13018 0.0
H1718 H 0.51683 0.04781 0.18616 0.0
H1719 H 0.53734 0.04501 0.15247 0.0
C1720 C 0.46823 0.05734 0.22697 0.0
C1721 C 0.44665 0.04515 0.22244 0.0
C1722 C 0.4809 0.05625 0.20781 0.0
C1723 C 0.47267 0.04299 0.18305 0.0
C1724 C 0.45113 0.03081 0.17887 0.0
C1725 C 0.43862 0.03188 0.19783 0.0
C1726 C 0.4884 0.03512 0.11613 0.0
C1727 C 0.51068 0.03783 0.12124 0.0
C1728 C 0.47644 0.03693 0.13574 0.0
C1729 C 0.48598 0.04157 0.16178 0.0
C1730 C 0.50836 0.04444 0.16684 0.0
C1731 C 0.52032 0.04261 0.14718 0.0
H1732 H 0.78302 0.67868 0.95804 0.0
H1733 H 0.75638 0.73717 0.98571 0.0
H1734 H 0.79065 0.69808 0.9223 0.0
H1735 H 0.76446 0.75689 0.95026 0.0
H1736 H 0.76717 0.778 0.87192 0.0
H1737 H 0.75615 0.75633 0.90525 0.0
H1738 H 0.81443 0.73133 0.91349 0.0
H1739 H 0.82481 0.75211 0.87981 0.0
C1740 C 0.7788 0.6957 0.95655 0.0
C1741 C 0.76915 0.70634 0.97494 0.0
C1742 C 0.78328 0.70695 0.93606 0.0
C1743 C 0.77833 0.72924 0.9333 0.0
C1744 C 0.76833 0.73967 0.95147 0.0
C1745 C 0.76382 0.72839 0.97198 0.0
C1746 C 0.77733 0.76745 0.88054 0.0
C1747 C 0.79668 0.76651 0.87294 0.0
C1748 C 0.7712 0.75528 0.89992 0.0
C1749 C 0.78432 0.74187 0.91215 0.0
C1750 C 0.80366 0.74101 0.90435 0.0
C1751 C 0.80973 0.75314 0.88511 0.0
H1752 H 0.8754 0.14484 0.06482 0.0
H1753 H 0.85202 0.08366 0.09856 0.0
H1754 H 0.88919 0.11961 0.03531 0.0
H1755 H 0.86646 0.05847 0.06952 0.0
H1756 H 0.88945 0.01568 0.00996 0.0
H1757 H 0.86682 0.0403 0.02662 0.0
H1758 H 0.91928 0.10184 0.04233 0.0
H1759 H 0.94164 0.07753 0.02595 0.0
C1760 C 0.8731 0.12594 0.06583 0.0
C1761 C 0.86301 0.11627 0.08431 0.0
C1762 C 0.88099 0.1115 0.04891 0.0
C1763 C 0.8792 0.08712 0.0503 0.0
C1764 C 0.86795 0.07715 0.0678 0.0
C1765 C 0.85983 0.0916 0.08459 0.0
C1766 C 0.89597 0.03458 0.01657 0.0
C1767 C 0.91738 0.0446 0.01678 0.0
C1768 C 0.88304 0.04864 0.02613 0.0
C1769 C 0.8913 0.07296 0.03599 0.0
C1770 C 0.91228 0.08325 0.03456 0.0
C1771 C 0.92515 0.06926 0.02507 0.0
H1772 H 0.40464 0.41136 0.06768 0.0
H1773 H 0.38254 0.47491 0.09032 0.0
H1774 H 0.43826 0.43591 0.0637 0.0
H1775 H 0.41625 0.49962 0.08596 0.0
H1776 H 0.48716 0.53571 0.10018 0.0
H1777 H 0.45365 0.51108 0.10486 0.0
H1778 H 0.45361 0.46267 0.03753 0.0
H1779 H 0.48732 0.48731 0.03306 0.0
C1780 C 0.40691 0.43061 0.07182 0.0
C1781 C 0.39077 0.44109 0.07937 0.0
C1782 C 0.42623 0.44473 0.06934 0.0
C1783 C 0.43007 0.46983 0.07437 0.0
C1784 C 0.414 0.48036 0.08215 0.0
C1785 C 0.39459 0.46619 0.08457 0.0
C1786 C 0.48001 0.51977 0.08639 0.0
C1787 C 0.48995 0.51344 0.06627 0.0
C1788 C 0.46069 0.50571 0.08898 0.0
C1789 C 0.45076 0.48485 0.07156 0.0
C1790 C 0.46084 0.47843 0.05151 0.0
C1791 C 0.48017 0.49257 0.04888 0.0
H1792 H 0.44432 0.59996 0.77417 0.0
H1793 H 0.38929 0.54392 0.73989 0.0
H1794 H 0.42444 0.62994 0.76322 0.0
H1795 H 0.36946 0.57389 0.72919 0.0
H1796 H 0.34495 0.63326 0.69518 0.0
H1797 H 0.36809 0.60534 0.70188 0.0
H1798 H 0.39415 0.64389 0.77725 0.0
H1799 H 0.37094 0.67138 0.77089 0.0
C1800 C 0.42801 0.59403 0.7643 0.0
C1801 C 0.41835 0.56956 0.75805 0.0
C1802 C 0.41664 0.6112 0.75805 0.0
C1803 C 0.39542 0.60425 0.74528 0.0
C1804 C 0.38587 0.57978 0.73871 0.0
C1805 C 0.39719 0.56263 0.74508 0.0
C1806 C 0.35567 0.63582 0.71314 0.0
C1807 C 0.35601 0.65456 0.73251 0.0
C1808 C 0.36892 0.61986 0.71695 0.0
C1809 C 0.38285 0.62239 0.74013 0.0
C1810 C 0.3838 0.64165 0.75907 0.0
C1811 C 0.3705 0.65749 0.75535 0.0
H1812 H 0.30547 0.62097 0.65246 0.0
H1813 H 0.28613 0.68517 0.6348 0.0
H1814 H 0.26879 0.60258 0.65346 0.0
H1815 H 0.24957 0.66677 0.63589 0.0
H1816 H 0.189 0.6098 0.59487 0.0
H1817 H 0.2254 0.63281 0.60437 0.0
H1818 H 0.23658 0.60417 0.67352 0.0
H1819 H 0.19981 0.58153 0.66446 0.0
C1820 C 0.29349 0.63134 0.64932 0.0
C1821 C 0.29859 0.65426 0.64286 0.0
C1822 C 0.27251 0.62084 0.65001 0.0
C1823 C 0.25631 0.63309 0.64419 0.0
C1824 C 0.26171 0.65676 0.63991 0.0
C1825 C 0.28267 0.66729 0.63937 0.0
C1826 C 0.19902 0.60871 0.61236 0.0
C1827 C 0.19141 0.59376 0.62886 0.0
C1828 C 0.2199 0.62193 0.61781 0.0
C1829 C 0.23376 0.62039 0.63978 0.0
C1830 C 0.22623 0.60559 0.65641 0.0
C1831 C 0.20523 0.59252 0.65109 0.0
H1832 H 0.73541 0.9677 0.83483 0.0
H1833 H 0.67908 0.9144 0.79982 0.0
H1834 H 0.75591 0.93615 0.83541 0.0
H1835 H 0.69913 0.88358 0.79988 0.0
H1836 H 0.73371 0.82452 0.81666 0.0
H1837 H 0.71511 0.85706 0.81824 0.0
H1838 H 0.77323 0.90723 0.81813 0.0
H1839 H 0.79195 0.87436 0.81709 0.0
C1840 C 0.72722 0.94943 0.8272 0.0
C1841 C 0.7051 0.94434 0.81739 0.0
C1842 C 0.73915 0.93098 0.8274 0.0
C1843 C 0.72966 0.90635 0.81792 0.0
C1844 C 0.70762 0.90161 0.80804 0.0
C1845 C 0.69586 0.91983 0.80782 0.0
C1846 C 0.74274 0.84242 0.817 0.0
C1847 C 0.76472 0.84608 0.81668 0.0
C1848 C 0.73183 0.86153 0.81771 0.0
C1849 C 0.74209 0.88572 0.81806 0.0
C1850 C 0.76421 0.88941 0.81807 0.0
C1851 C 0.77515 0.8702 0.81735 0.0
H1852 H 0.78647 0.96834 0.58742 0.0
H1853 H 0.74089 0.9009 0.57359 0.0
H1854 H 0.75755 0.98948 0.58644 0.0
H1855 H 0.71213 0.92185 0.572 0.0
H1856 H 0.66567 0.96601 0.59406 0.0
H1857 H 0.69528 0.94606 0.5972 0.0
H1858 H 0.7286 0.99777 0.55852 0.0
H1859 H 0.69909 0.01776 0.55557 0.0
C1860 C 0.77031 0.95801 0.58409 0.0
C1861 C 0.7661 0.93288 0.58062 0.0
C1862 C 0.75367 0.97013 0.58339 0.0
C1863 C 0.73237 0.95745 0.57919 0.0
C1864 C 0.72825 0.93232 0.57572 0.0
C1865 C 0.74483 0.92025 0.57646 0.0
C1866 C 0.67926 0.97308 0.58613 0.0
C1867 C 0.67989 0.99357 0.57459 0.0
C1868 C 0.6963 0.9616 0.5879 0.0
C1869 C 0.71446 0.9702 0.57808 0.0
C1870 C 0.71512 0.99079 0.5667 0.0
C1871 C 0.69812 1.00229 0.56499 0.0
H1872 H 0.37731 0.44836 0.7543 0.0
H1873 H 0.4242 0.41315 0.7887 0.0
H1874 H 0.34914 0.41561 0.75881 0.0
H1875 H 0.39599 0.38022 0.79282 0.0
H1876 H 0.34029 0.34489 0.82706 0.0
H1877 H 0.36863 0.37544 0.81894 0.0
H1878 H 0.33291 0.37275 0.74426 0.0
H1879 H 0.3045 0.34189 0.75248 0.0
C1880 C 0.38164 0.43351 0.76257 0.0
C1881 C 0.40303 0.43348 0.77133 0.0
C1882 C 0.36547 0.41467 0.76502 0.0
C1883 C 0.37032 0.3954 0.77634 0.0
C1884 C 0.39173 0.39501 0.78439 0.0
C1885 C 0.4079 0.41382 0.78189 0.0
C1886 C 0.33863 0.35062 0.8088 0.0
C1887 C 0.32039 0.34083 0.79026 0.0
C1888 C 0.35487 0.36809 0.80412 0.0
C1889 C 0.35313 0.37637 0.78086 0.0
C1890 C 0.33468 0.3668 0.76241 0.0
C1891 C 0.31844 0.34917 0.76708 0.0
H1892 H 0.19557 0.61494 0.35732 0.0
H1893 H 0.22763 0.581 0.30481 0.0
H1894 H 0.21606 0.65394 0.35416 0.0
H1895 H 0.2485 0.62053 0.30165 0.0
H1896 H 0.26626 0.69822 0.28221 0.0
H1897 H 0.24785 0.65799 0.28585 0.0
H1898 H 0.24927 0.68174 0.36459 0.0
H1899 H 0.26757 0.72192 0.36086 0.0
C1900 C 0.20714 0.61564 0.34514 0.0
C1901 C 0.20971 0.59427 0.33141 0.0
C1902 C 0.21915 0.63834 0.34343 0.0
C1903 C 0.2343 0.64105 0.32767 0.0
C1904 C 0.237 0.61965 0.31391 0.0
C1905 C 0.22508 0.59674 0.31587 0.0
C1906 C 0.26275 0.69495 0.3004 0.0
C1907 C 0.26859 0.71385 0.3212 0.0
C1908 C 0.25219 0.67159 0.30254 0.0
C1909 C 0.24671 0.666 0.32553 0.0
C1910 C 0.25273 0.68491 0.34637 0.0
C1911 C 0.26347 0.7082 0.34428 0.0
H1912 H 0.54279 0.70904 0.477 0.0
H1913 H 0.47645 0.68641 0.4795 0.0
H1914 H 0.54971 0.6735 0.49359 0.0
H1915 H 0.48341 0.65137 0.49689 0.0
H1916 H 0.49818 0.57781 0.50196 0.0
H1917 H 0.49125 0.61388 0.48687 0.0
H1918 H 0.55249 0.65364 0.52866 0.0
H1919 H 0.55962 0.61733 0.54309 0.0
C1920 C 0.52969 0.69664 0.48136 0.0
C1921 C 0.50903 0.70069 0.47678 0.0
C1922 C 0.53368 0.67621 0.49105 0.0
C1923 C 0.51715 0.65923 0.49664 0.0
C1924 C 0.49655 0.6636 0.49244 0.0
C1925 C 0.49256 0.68391 0.4826 0.0
C1926 C 0.51012 0.59426 0.50813 0.0
C1927 C 0.52947 0.59449 0.52384 0.0
C1928 C 0.50611 0.61512 0.4995 0.0
C1929 C 0.52127 0.63698 0.5064 0.0
C1930 C 0.5405 0.63723 0.52245 0.0
C1931 C 0.54456 0.61633 0.53095 0.0
H1932 H 0.6329 0.25814 0.72046 0.0
H1933 H 0.651 0.33134 0.70915 0.0
H1934 H 0.66882 0.2602 0.74213 0.0
H1935 H 0.68729 0.33328 0.73048 0.0
H1936 H 0.7436 0.33588 0.79491 0.0
H1937 H 0.70852 0.3346 0.77086 0.0
H1938 H 0.70445 0.26176 0.73684 0.0
H1939 H 0.73947 0.26298 0.76151 0.0
C1940 C 0.64456 0.27472 0.72249 0.0
C1941 C 0.63887 0.29461 0.71304 0.0
C1942 C 0.66534 0.27582 0.73479 0.0
C1943 C 0.68122 0.29686 0.73809 0.0
C1944 C 0.67555 0.31681 0.72862 0.0
C1945 C 0.65469 0.31569 0.71627 0.0
C1946 C 0.73528 0.31962 0.78216 0.0
C1947 C 0.74433 0.29948 0.78027 0.0
C1948 C 0.71513 0.31892 0.7682 0.0
C1949 C 0.70337 0.29803 0.75186 0.0
C1950 C 0.71274 0.27806 0.7495 0.0
C1951 C 0.73294 0.27878 0.7635 0.0
H1952 H 0.06438 0.34087 0.02051 0.0
H1953 H 1.00531 0.33651 0.96993 0.0
H1954 H 0.06553 0.38254 0.03644 0.0
H1955 H 1.00669 0.37839 0.98548 0.0
H1956 H 1.00673 0.44958 0.03404 0.0
H1957 H 1.00414 0.40693 0.02068 0.0
H1958 H 0.07173 0.42074 0.02341 0.0
H1959 H 0.07439 0.463 0.03713 0.0
C1960 C 0.0516 0.34876 0.01277 0.0
C1961 C 0.0348 0.33521 0.99383 0.0
C1962 C 0.05233 0.3728 0.02182 0.0
C1963 C 0.03629 0.38409 0.01219 0.0
C1964 C 0.01924 0.37037 0.99359 0.0
C1965 C 0.01851 0.34631 0.98454 0.0
C1966 C 0.02106 0.44352 0.03191 0.0
C1967 C 0.04078 0.45993 0.03679 0.0
C1968 C 0.01956 0.419 0.02408 0.0
C1969 C 0.03773 0.41018 0.02096 0.0
C1970 C 0.05741 0.42663 0.02596 0.0
C1971 C 0.05891 0.45106 0.03373 0.0
H1972 H 0.01675 0.74584 0.20125 0.0
H1973 H 0.03405 0.82296 0.2175 0.0
H1974 H 0.98581 0.74612 0.22069 0.0
H1975 H 1.00281 0.82325 0.23671 0.0
H1976 H 0.95653 0.81343 0.29176 0.0
H1977 H 0.98785 0.81329 0.27295 0.0
H1978 H 0.95152 0.7562 0.21393 0.0
H1979 H 0.92034 0.75578 0.23325 0.0
C1980 C 1.01399 0.76291 0.20898 0.0
C1981 C 0.02802 0.78439 0.20778 0.0
C1982 C 0.99608 0.76306 0.21999 0.0
C1983 C 0.99163 0.7847 0.23024 0.0
C1984 C 1.00578 0.8062 0.22927 0.0
C1985 C 0.02369 0.80606 0.21814 0.0
C1986 C 0.95523 0.80062 0.27493 0.0
C1987 C 0.9358 0.7845 0.26419 0.0
C1988 C 0.97319 0.80076 0.26393 0.0
C1989 C 0.97235 0.78474 0.24186 0.0
C1990 C 0.95292 0.76864 0.23107 0.0
C1991 C 0.93492 0.76856 0.24203 0.0
H1992 H 0.58673 0.30519 0.16952 0.0
H1993 H 0.53099 0.31428 0.19932 0.0
H1994 H 0.58352 0.33751 0.1456 0.0
H1995 H 0.52803 0.34697 0.17568 0.0
H1996 H 0.51607 0.38306 0.10534 0.0
H1997 H 0.51936 0.35236 0.13161 0.0
H1998 H 0.587 0.38083 0.15205 0.0
H1999 H 0.58381 0.41098 0.12503 0.0
C2000 C 0.57386 0.31417 0.17108 0.0
C2001 C 0.55909 0.30715 0.18627 0.0
C2002 C 0.57211 0.3328 0.15751 0.0
C2003 C 0.55556 0.34482 0.15883 0.0
C2004 C 0.54083 0.33787 0.17411 0.0
C2005 C 0.54258 0.31923 0.18771 0.0
C2006 C 0.53164 0.3827 0.1154 0.0
C2007 C 0.5497 0.39933 0.11301 0.0
C2008 C 0.53349 0.36529 0.13065 0.0
C2009 C 0.55345 0.36414 0.14382 0.0
C2010 C 0.57145 0.3811 0.14189 0.0
C2011 C 0.56959 0.39853 0.12665 0.0
H2012 H 0.97047 0.29037 0.29723 0.0
H2013 H 0.9658 0.31136 0.37487 0.0
H2014 H 0.93197 0.28456 0.28475 0.0
H2015 H 0.92768 0.30483 0.36265 0.0
H2016 H 0.86488 0.31917 0.33098 0.0
H2017 H 0.903 0.32386 0.34081 0.0
H2018 H 0.89813 0.25958 0.28809 0.0
H2019 H 0.85976 0.2553 0.27747 0.0
C2020 C 0.96124 0.29359 0.3116 0.0
C2021 C 0.97118 0.30159 0.33696 0.0
C2022 C 0.93921 0.29013 0.3045 0.0
C2023 C 0.92681 0.29449 0.32269 0.0
C2024 C 0.9368 0.30189 0.34808 0.0
C2025 C 0.95869 0.30553 0.3551 0.0
C2026 C 0.87186 0.30594 0.32152 0.0
C2027 C 0.85925 0.28668 0.30371 0.0
C2028 C 0.89375 0.30859 0.32723 0.0
C2029 C 0.90358 0.29192 0.31548 0.0
C2030 C 0.89103 0.27279 0.29737 0.0
C2031 C 0.86904 0.27022 0.29147 0.0
H2032 H 0.10369 0.7128 0.67517 0.0
H2033 H 0.03521 0.69347 0.66063 0.0
H2034 H 0.10418 0.67981 0.64244 0.0
H2035 H 0.03578 0.66083 0.62744 0.0
H2036 H 0.04715 0.62076 0.55367 0.0
H2037 H 0.05078 0.65781 0.58292 0.0
H2038 H 0.08949 0.63162 0.64016 0.0
H2039 H 0.08535 0.59432 0.61124 0.0
C2040 C 0.08876 0.70167 0.66476 0.0
C2041 C 0.06939 0.70562 0.67037 0.0
C2042 C 0.08908 0.68285 0.64613 0.0
C2043 C 0.07003 0.66805 0.63242 0.0
C2044 C 0.05065 0.67225 0.63765 0.0
C2045 C 0.05033 0.69074 0.65669 0.0
C2046 C 0.05686 0.62315 0.57228 0.0
C2047 C 0.06595 0.60465 0.58028 0.0
C2048 C 0.05878 0.64423 0.58901 0.0
C2049 C 0.07026 0.64734 0.61372 0.0
C2050 C 0.0806 0.62958 0.62113 0.0
C2051 C 0.07826 0.60829 0.60461 0.0
H2052 H 0.56573 0.79699 0.83204 0.0
H2053 H 0.61047 0.8327 0.89981 0.0
H2054 H 0.59352 0.7806 0.81613 0.0
H2055 H 0.63837 0.81695 0.8836 0.0
H2056 H 0.67519 0.76131 0.8647 0.0
H2057 H 0.64661 0.77825 0.87751 0.0
H2058 H 0.6266 0.78904 0.80099 0.0
H2059 H 0.65509 0.77145 0.78811 0.0
C2060 C 0.58159 0.80174 0.84332 0.0
C2061 C 0.58587 0.81592 0.86733 0.0
C2062 C 0.59753 0.79236 0.83417 0.0
C2063 C 0.61807 0.79711 0.84879 0.0
C2064 C 0.62257 0.81241 0.87216 0.0
C2065 C 0.60663 0.82162 0.88137 0.0
C2066 C 0.66456 0.76714 0.85061 0.0
C2067 C 0.66734 0.76519 0.82547 0.0
C2068 C 0.64831 0.77704 0.85796 0.0
C2069 C 0.63457 0.78544 0.84037 0.0
C2070 C 0.63688 0.78268 0.81498 0.0
C2071 C 0.65311 0.77257 0.80758 0.0
H2072 H 0.50906 0.54241 0.7335 0.0
H2073 H 0.45304 0.49319 0.6893 0.0
H2074 H 0.52246 0.54856 0.69509 0.0
H2075 H 0.46622 0.49981 0.65079 0.0
H2076 H 0.50857 0.49964 0.59033 0.0
H2077 H 0.49325 0.49256 0.62743 0.0
H2078 H 0.51518 0.56759 0.65879 0.0
H2079 H 0.53095 0.57447 0.62196 0.0
C2080 C 0.49961 0.53285 0.7156 0.0
C2081 C 0.47997 0.51733 0.71451 0.0
C2082 C 0.5072 0.53656 0.69352 0.0
C2083 C 0.4953 0.52492 0.66978 0.0
C2084 C 0.47586 0.50896 0.66874 0.0
C2085 C 0.4683 0.50519 0.69084 0.0
C2086 C 0.50985 0.51466 0.60501 0.0
C2087 C 0.52108 0.53758 0.60338 0.0
C2088 C 0.50105 0.51062 0.62627 0.0
C2089 C 0.50324 0.52944 0.64629 0.0
C2090 C 0.51364 0.55258 0.64402 0.0
C2091 C 0.52249 0.55659 0.62281 0.0
H2092 H 0.83659 0.26643 0.10919 0.0
H2093 H 0.84768 0.20466 0.06401 0.0
H2094 H 0.82358 0.28092 0.07061 0.0
H2095 H 0.83509 0.21925 0.02586 0.0
H2096 H 0.79084 0.23747 0.96272 0.0
H2097 H 0.80167 0.22449 1.00277 0.0
H2098 H 0.83648 0.29646 0.03435 0.0
H2099 H 0.8256 0.30945 0.99433 0.0
C2100 C 0.83641 0.25606 0.0911 0.0
C2101 C 0.84308 0.23436 0.08968 0.0
C2102 C 0.82899 0.26436 0.06903 0.0
C2103 C 0.82809 0.25106 0.04521 0.0
C2104 C 0.83514 0.22963 0.04391 0.0
C2105 C 0.84253 0.22138 0.06584 0.0
C2106 C 0.80079 0.2505 0.97823 0.0
C2107 C 0.80746 0.27443 0.97534 0.0
C2108 C 0.807 0.24309 1.00114 0.0
C2109 C 0.82008 0.25943 0.02164 0.0
C2110 C 0.82623 0.28351 0.019 0.0
C2111 C 0.81999 0.29093 0.99607 0.0
H2112 H 0.14697 0.49725 0.23108 0.0
H2113 H 0.11686 0.55089 0.26237 0.0
H2114 H 0.12639 0.49715 0.1887 0.0
H2115 H 0.09667 0.55073 0.22092 0.0
H2116 H 0.0449 0.5271 0.15109 0.0
H2117 H 0.06741 0.5255 0.19049 0.0
H2118 H 0.11954 0.52189 0.152 0.0
H2119 H 0.09648 0.52359 0.1117 0.0
C2120 C 0.13594 0.50888 0.22915 0.0
C2121 C 0.13372 0.52393 0.25076 0.0
C2122 C 0.1242 0.50901 0.20464 0.0
C2123 C 0.1095 0.52387 0.20084 0.0
C2124 C 0.10741 0.53873 0.22255 0.0
C2125 C 0.11922 0.53885 0.24668 0.0
C2126 C 0.06118 0.52608 0.15072 0.0
C2127 C 0.06863 0.52577 0.12775 0.0
C2128 C 0.07428 0.52522 0.17367 0.0
C2129 C 0.09566 0.52373 0.17511 0.0
C2130 C 0.10324 0.52296 0.15204 0.0
C2131 C 0.09001 0.52416 0.12879 0.0
H2132 H 0.7956 0.87376 0.50543 0.0
H2133 H 0.85324 0.84808 0.51973 0.0
H2134 H 0.78895 0.85456 0.46143 0.0
H2135 H 0.84625 0.82815 0.47614 0.0
H2136 H 0.84268 0.82182 0.39138 0.0
H2137 H 0.84745 0.83792 0.43578 0.0
H2138 H 0.7797 0.81856 0.43166 0.0
H2139 H 0.77486 0.8031 0.38674 0.0
C2140 C 0.80668 0.86368 0.4993 0.0
C2141 C 0.82505 0.86265 0.51611 0.0
C2142 C 0.80282 0.85255 0.47402 0.0
C2143 C 0.81716 0.83993 0.46495 0.0
C2144 C 0.83509 0.83816 0.48213 0.0
C2145 C 0.83903 0.84946 0.50727 0.0
C2146 C 0.82875 0.82083 0.39988 0.0
C2147 C 0.80837 0.8111 0.38532 0.0
C2148 C 0.83151 0.82998 0.42554 0.0
C2149 C 0.81399 0.82952 0.43758 0.0
C2150 C 0.79358 0.81954 0.42308 0.0
C2151 C 0.7908 0.81051 0.39729 0.0
H2152 H 0.48862 0.53281 0.83629 0.0
H2153 H 0.43347 0.49498 0.86021 0.0
H2154 H 0.50872 0.53907 0.87966 0.0
H2155 H 0.45354 0.50099 0.90311 0.0
H2156 H 0.50381 0.48951 0.96662 0.0
H2157 H 0.48552 0.48552 0.92319 0.0
H2158 H 0.50716 0.56127 0.92493 0.0
H2159 H 0.52546 0.56548 0.96884 0.0
C2160 C 0.48081 0.52584 0.85075 0.0
C2161 C 0.45947 0.51334 0.8448 0.0
C2162 C 0.49227 0.52954 0.87555 0.0
C2163 C 0.48269 0.52042 0.89468 0.0
C2164 C 0.46137 0.50804 0.88869 0.0
C2165 C 0.44986 0.50469 0.86412 0.0
C2166 C 0.50482 0.50537 0.95781 0.0
C2167 C 0.51608 0.52784 0.97127 0.0
C2168 C 0.49424 0.50305 0.93294 0.0
C2169 C 0.49485 0.52309 0.92074 0.0
C2170 C 0.50652 0.54552 0.93389 0.0
C2171 C 0.51689 0.54792 0.95902 0.0
H2172 H 0.90269 0.25732 0.18201 0.0
H2173 H 0.85307 0.19703 0.1846 0.0
H2174 H 0.88036 0.2846 0.19378 0.0
H2175 H 0.83053 0.2241 0.19617 0.0
H2176 H 0.78966 0.27615 0.20548 0.0
H2177 H 0.81102 0.25465 0.18172 0.0
H2178 H 0.8679 0.29495 0.23288 0.0
H2179 H 0.8468 0.31643 0.25596 0.0
C2180 C 0.88684 0.24997 0.18475 0.0
C2181 C 0.87921 0.22517 0.18172 0.0
C2182 C 0.87408 0.26551 0.19144 0.0
C2183 C 0.85358 0.25647 0.19553 0.0
C2184 C 0.846 0.23157 0.19242 0.0
C2185 C 0.85878 0.21606 0.18569 0.0
C2186 C 0.80678 0.28085 0.21099 0.0
C2187 C 0.81657 0.29738 0.23283 0.0
C2188 C 0.81897 0.26849 0.19758 0.0
C2189 C 0.84106 0.27278 0.20579 0.0
C2190 C 0.85093 0.29122 0.22604 0.0
C2191 C 0.8388 0.30354 0.23931 0.0
H2192 H 0.17541 0.55062 0.4257 0.0
H2193 H 0.12112 0.5051 0.37489 0.0
H2194 H 0.15494 0.55329 0.45875 0.0
H2195 H 0.10032 0.50727 0.40867 0.0
H2196 H 0.06179 0.52921 0.46958 0.0
H2197 H 0.08161 0.52594 0.43539 0.0
H2198 H 0.13967 0.53915 0.49024 0.0
H2199 H 0.11978 0.54298 0.52431 0.0
C2200 C 0.15903 0.54089 0.42138 0.0
C2201 C 0.15036 0.52754 0.39692 0.0
C2202 C 0.14707 0.54231 0.44087 0.0
C2203 C 0.12551 0.53042 0.43739 0.0
C2204 C 0.11666 0.51705 0.4128 0.0
C2205 C 0.12876 0.51563 0.39311 0.0
C2206 C 0.07884 0.53158 0.47454 0.0
C2207 C 0.08886 0.53662 0.50034 0.0
C2208 C 0.09039 0.52947 0.45457 0.0
C2209 C 0.11274 0.53226 0.45914 0.0
C2210 C 0.12271 0.53722 0.48506 0.0
C2211 C 0.11114 0.53934 0.50503 0.0
H2212 H 0.84381 0.83539 0.63618 0.0
H2213 H 0.80912 0.88882 0.65647 0.0
H2214 H 0.83548 0.81621 0.67192 0.0
H2215 H 0.8011 0.8699 0.69238 0.0
H2216 H 0.76802 0.81336 0.73316 0.0
H2217 H 0.77895 0.83403 0.69965 0.0
H2218 H 0.84136 0.81961 0.71799 0.0
H2219 H 0.83009 0.79835 0.75154 0.0
C2220 C 0.83456 0.8432 0.64836 0.0
C2221 C 0.82704 0.86363 0.64323 0.0
C2222 C 0.82988 0.83225 0.66901 0.0
C2223 C 0.81748 0.84134 0.68508 0.0
C2224 C 0.81039 0.8621 0.68025 0.0
C2225 C 0.8151 0.87307 0.65967 0.0
C2226 C 0.78411 0.81459 0.73012 0.0
C2227 C 0.79819 0.80422 0.74509 0.0
C2228 C 0.79046 0.82666 0.71096 0.0
C2229 C 0.81112 0.82872 0.70606 0.0
C2230 C 0.82528 0.81829 0.72105 0.0
C2231 C 0.8189 0.80623 0.74041 0.0
H2232 H 0.73407 0.41463 0.55934 0.0
H2233 H 0.6802 0.38734 0.49838 0.0
H2234 H 0.71332 0.43786 0.58136 0.0
H2235 H 0.65961 0.41106 0.52007 0.0
H2236 H 0.62384 0.45186 0.56411 0.0
H2237 H 0.64296 0.4204 0.55556 0.0
H2238 H 0.70195 0.47355 0.57217 0.0
H2239 H 0.68283 0.50476 0.58108 0.0
C2240 C 0.71769 0.41334 0.5508 0.0
C2241 C 0.70885 0.39954 0.5269 0.0
C2242 C 0.70584 0.42669 0.56341 0.0
C2243 C 0.68495 0.42662 0.55231 0.0
C2244 C 0.67562 0.41139 0.52927 0.0
C2245 C 0.68745 0.39789 0.51672 0.0
C2246 C 0.64096 0.45664 0.56645 0.0
C2247 C 0.6519 0.48069 0.57286 0.0
C2248 C 0.65187 0.43869 0.5615 0.0
C2249 C 0.6739 0.44451 0.56279 0.0
C2250 C 0.68499 0.46839 0.5712 0.0
C2251 C 0.67407 0.48633 0.57628 0.0
H2252 H 0.18905 0.15581 0.55764 0.0
H2253 H 0.20427 0.09516 0.51547 0.0
H2254 H 0.15544 0.13112 0.56119 0.0
H2255 H 0.17014 0.07043 0.51835 0.0
H2256 H 0.1185 0.02666 0.552 0.0
H2257 H 0.15168 0.05152 0.54691 0.0
H2258 H 0.12094 0.11065 0.54021 0.0
H2259 H 0.08784 0.08564 0.54592 0.0
C2260 C 0.18516 0.13721 0.54885 0.0
C2261 C 0.19956 0.12755 0.5363 0.0
C2262 C 0.16568 0.12301 0.55076 0.0
C2263 C 0.15983 0.09861 0.54011 0.0
C2264 C 0.17411 0.089 0.52719 0.0
C2265 C 0.19369 0.10325 0.52535 0.0
C2266 C 0.11885 0.04501 0.54954 0.0
C2267 C 0.10057 0.05427 0.54973 0.0
C2268 C 0.13789 0.05928 0.54637 0.0
C2269 C 0.13923 0.08326 0.54307 0.0
C2270 C 0.12079 0.09245 0.54312 0.0
C2271 C 0.10174 0.07814 0.54643 0.0
H2272 H 0.15967 0.97158 0.79024 0.0
H2273 H 0.1947 1.00527 0.86447 0.0
H2274 H 0.17876 0.93965 0.79136 0.0
H2275 H 0.21315 0.97263 0.86625 0.0
H2276 H 0.26259 0.93214 0.8423 0.0
H2277 H 0.23991 0.95992 0.8484 0.0
H2278 H 0.18545 0.90577 0.80797 0.0
H2279 H 0.20856 0.87849 0.80026 0.0
C2280 C 0.17121 0.97192 0.80701 0.0
C2281 C 0.1759 0.99108 0.82712 0.0
C2282 C 0.18204 0.95344 0.80778 0.0
C2283 C 0.19761 0.95349 0.82888 0.0
C2284 C 0.2016 0.9722 0.84948 0.0
C2285 C 0.19099 0.9909 0.84851 0.0
C2286 C 0.24576 0.92612 0.83475 0.0
C2287 C 0.23749 0.9033 0.82022 0.0
C2288 C 0.23264 0.94198 0.83857 0.0
C2289 C 0.21082 0.9353 0.82832 0.0
C2290 C 0.20227 0.91176 0.81558 0.0
C2291 C 0.21548 0.89596 0.81147 0.0
H2292 H 0.31901 0.88435 0.98147 0.0
H2293 H 0.29019 0.94509 0.99223 0.0
H2294 H 0.35391 0.91116 0.99047 0.0
H2295 H 0.32525 0.97192 1.00148 0.0
H2296 H 0.39104 1.00973 0.98594 0.0
H2297 H 0.35504 0.98522 0.9792 0.0
H2298 H 0.37754 0.93816 0.0275 0.0
H2299 H 0.41346 0.96212 0.03365 0.0
C2300 C 0.32011 0.90341 0.98575 0.0
C2301 C 0.30185 0.9126 0.98618 0.0
C2302 C 0.34011 0.91875 0.99109 0.0
C2303 C 0.34227 0.9436 0.99687 0.0
C2304 C 0.32401 0.95284 0.99697 0.0
C2305 C 0.30398 0.93747 0.99175 0.0
C2306 C 0.38822 0.99424 0.99524 0.0
C2307 C 0.40507 0.98781 0.01026 0.0
C2308 C 0.36763 0.98033 0.99151 0.0
C2309 C 0.36359 0.95967 1.00262 0.0
C2310 C 0.38028 0.9538 0.01842 0.0
C2311 C 0.4008 0.96772 0.02221 0.0
H2312 H 0.9133 0.65558 0.78505 0.0
H2313 H 0.86202 0.6057 0.80296 0.0
H2314 H 0.8933 0.6864 0.787 0.0
H2315 H 0.84166 0.63732 0.80556 0.0
H2316 H 0.80244 0.69685 0.79331 0.0
H2317 H 0.82117 0.664 0.79095 0.0
H2318 H 0.88085 0.71555 0.80723 0.0
H2319 H 0.86214 0.74792 0.80889 0.0
C2320 C 0.89769 0.65094 0.78962 0.0
C2321 C 0.88982 0.62736 0.79386 0.0
C2322 C 0.88598 0.66919 0.79099 0.0
C2323 C 0.86539 0.66544 0.79684 0.0
C2324 C 0.85724 0.64171 0.80087 0.0
C2325 C 0.8691 0.62322 0.79946 0.0
C2326 C 0.81958 0.7013 0.79625 0.0
C2327 C 0.83037 0.72574 0.80111 0.0
C2328 C 0.83056 0.68213 0.79506 0.0
C2329 C 0.85306 0.68614 0.79861 0.0
C2330 C 0.86372 0.7107 0.80368 0.0
C2331 C 0.85278 0.72976 0.80484 0.0
H2332 H 0.85174 0.6654 0.03265 0.0
H2333 H 0.80816 0.5993 0.03421 0.0
H2334 H 0.88089 0.64498 0.0352 0.0
H2335 H 0.83759 0.57879 0.03716 0.0
H2336 H 0.8924 0.54548 0.01617 0.0
H2337 H 0.86272 0.56531 0.01326 0.0
H2338 H 0.90228 0.62702 0.06399 0.0
H2339 H 0.93189 0.60718 0.06707 0.0
C2340 C 0.84833 0.64648 0.03363 0.0
C2341 C 0.82748 0.63406 0.03324 0.0
C2342 C 0.86517 0.63476 0.03526 0.0
C2343 C 0.86176 0.61018 0.0365 0.0
C2344 C 0.84087 0.59767 0.03598 0.0
C2345 C 0.82397 0.60946 0.03444 0.0
C2346 C 0.89479 0.56322 0.02688 0.0
C2347 C 0.91473 0.57464 0.04186 0.0
C2348 C 0.87768 0.57461 0.02521 0.0
C2349 C 0.87996 0.59784 0.03838 0.0
C2350 C 0.89992 0.6093 0.05323 0.0
C2351 C 0.917 0.5979 0.05495 0.0
H2352 H 0.20669 0.12953 0.86319 0.0
H2353 H 0.21051 0.10669 0.78564 0.0
H2354 H 0.23211 0.16691 0.86389 0.0
H2355 H 0.23587 0.14382 0.78646 0.0
H2356 H 0.25989 0.22314 0.78718 0.0
H2357 H 0.23472 0.18657 0.78884 0.0
H2358 H 0.27055 0.18196 0.86124 0.0
H2359 H 0.29573 0.21906 0.8597 0.0
C2360 C 0.21299 0.13243 0.84635 0.0
C2361 C 0.2065 0.11517 0.82432 0.0
C2362 C 0.22762 0.15377 0.84681 0.0
C2363 C 0.23588 0.15834 0.82519 0.0
C2364 C 0.22956 0.14096 0.80331 0.0
C2365 C 0.21509 0.11961 0.8029 0.0
C2366 C 0.26228 0.21449 0.80359 0.0
C2367 C 0.27969 0.22395 0.82337 0.0
C2368 C 0.24797 0.19342 0.80443 0.0
C2369 C 0.25073 0.1813 0.82508 0.0
C2370 C 0.26796 0.191 0.84514 0.0
C2371 C 0.2824 0.2121 0.84422 0.0
H2372 H 0.36822 0.99103 0.31467 0.0
H2373 H 0.39969 0.95653 0.26186 0.0
H2374 H 0.34767 0.95161 0.31871 0.0
H2375 H 0.37951 0.91765 0.26588 0.0
H2376 H 0.32837 0.84972 0.26062 0.0
H2377 H 0.3464 0.88978 0.25622 0.0
H2378 H 0.34861 0.91435 0.33498 0.0
H2379 H 0.33046 0.87419 0.33929 0.0
C2380 C 0.37071 0.97519 0.30372 0.0
C2381 C 0.38581 0.97748 0.28783 0.0
C2382 C 0.35896 0.95234 0.30619 0.0
C2383 C 0.36159 0.93082 0.29261 0.0
C2384 C 0.37648 0.93334 0.2765 0.0
C2385 C 0.3883 0.95598 0.27429 0.0
C2386 C 0.3326 0.86358 0.27708 0.0
C2387 C 0.32777 0.85817 0.30036 0.0
C2388 C 0.34318 0.88682 0.2746 0.0
C2389 C 0.34934 0.90593 0.29523 0.0
C2390 C 0.34415 0.90059 0.31843 0.0
C2391 C 0.33374 0.87726 0.32097 0.0
H2392 H 0.54808 0.33763 0.581 0.0
H2393 H 0.58947 0.38157 0.64725 0.0
H2394 H 0.54486 0.37318 0.56251 0.0
H2395 H 0.58596 0.41741 0.62879 0.0
H2396 H 0.58765 0.47666 0.57884 0.0
H2397 H 0.59396 0.44081 0.59563 0.0
H2398 H 0.52812 0.40611 0.568 0.0
H2399 H 0.52194 0.44149 0.55098 0.0
C2400 C 0.55656 0.35488 0.59168 0.0
C2401 C 0.56896 0.35656 0.61577 0.0
C2402 C 0.5546 0.3754 0.58107 0.0
C2403 C 0.56496 0.3984 0.59414 0.0
C2404 C 0.57784 0.40009 0.618 0.0
C2405 C 0.57977 0.37948 0.62868 0.0
C2406 C 0.57456 0.46129 0.57613 0.0
C2407 C 0.55426 0.46211 0.56341 0.0
C2408 C 0.57815 0.44074 0.58597 0.0
C2409 C 0.56158 0.42035 0.58326 0.0
C2410 C 0.54141 0.42117 0.57022 0.0
C2411 C 0.53782 0.44164 0.5605 0.0
H2412 H 0.45931 0.75453 0.37803 0.0
H2413 H 0.43624 0.77935 0.44427 0.0
H2414 H 0.42586 0.75592 0.35159 0.0
H2415 H 0.40313 0.78136 0.41791 0.0
H2416 H 0.33815 0.76404 0.36459 0.0
H2417 H 0.37056 0.75971 0.39145 0.0
H2418 H 0.40695 0.78384 0.33637 0.0
H2419 H 0.37467 0.78756 0.30958 0.0
C2420 C 0.44712 0.76025 0.38699 0.0
C2421 C 0.45061 0.76686 0.41335 0.0
C2422 C 0.42792 0.76124 0.37179 0.0
C2423 C 0.41164 0.76893 0.38246 0.0
C2424 C 0.41505 0.77509 0.40889 0.0
C2425 C 0.4342 0.77406 0.42406 0.0
C2426 C 0.3531 0.76833 0.35827 0.0
C2427 C 0.35379 0.77599 0.33487 0.0
C2428 C 0.37175 0.76597 0.37371 0.0
C2429 C 0.39155 0.77121 0.36611 0.0
C2430 C 0.39208 0.77909 0.34275 0.0
C2431 C 0.37352 0.78143 0.32741 0.0
H2432 H 0.03317 0.7302 0.09641 0.0
H2433 H 0.09284 0.73303 0.14507 0.0
H2434 H 0.03086 0.68831 0.08018 0.0
H2435 H 0.0903 0.69096 0.12928 0.0
H2436 H 0.08828 0.61975 0.08037 0.0
H2437 H 0.09163 0.66245 0.09374 0.0
H2438 H 0.02433 0.64997 0.09299 0.0
H2439 H 0.02089 0.60751 0.07913 0.0
C2440 C 0.04584 0.72193 0.10365 0.0
C2441 C 0.06317 0.73511 0.12214 0.0
C2442 C 0.04443 0.69777 0.09445 0.0
C2443 C 0.0603 0.68601 0.10348 0.0
C2444 C 0.07786 0.69935 0.12162 0.0
C2445 C 0.07927 0.72353 0.1308 0.0
C2446 C 0.07416 0.62609 0.08293 0.0
C2447 C 0.05431 0.60999 0.0786 0.0
C2448 C 0.07611 0.65065 0.09079 0.0
C2449 C 0.05826 0.65986 0.09452 0.0
C2450 C 0.03841 0.64374 0.08999 0.0
C2451 C 0.03646 0.61923 0.08216 0.0
H2452 H 0.06523 0.24426 0.90034 0.0
H2453 H 0.08379 0.32133 0.91506 0.0
H2454 H 0.09695 0.2427 0.88237 0.0
H2455 H 0.11511 0.31981 0.89682 0.0
H2456 H 0.18065 0.30925 0.88712 0.0
H2457 H 0.14893 0.30957 0.90506 0.0
H2458 H 0.11367 0.25103 0.84702 0.0
H2459 H 0.1454 0.25072 0.82904 0.0
C2460 C 0.07595 0.26088 0.8996 0.0
C2461 C 0.07184 0.28291 0.90925 0.0
C2462 C 0.09416 0.26 0.88919 0.0
C2463 C 0.10883 0.28113 0.8882 0.0
C2464 C 0.10451 0.30312 0.8976 0.0
C2465 C 0.08635 0.304 0.90793 0.0
C2466 C 0.16613 0.29652 0.87803 0.0
C2467 C 0.16577 0.27999 0.85651 0.0
C2468 C 0.14784 0.29671 0.88836 0.0
C2469 C 0.12854 0.28039 0.87751 0.0
C2470 C 0.12822 0.26367 0.85618 0.0
C2471 C 0.14652 0.26349 0.84584 0.0
H2472 H 0.53206 0.74972 0.9042 0.0
H2473 H 0.47356 0.75734 0.92801 0.0
H2474 H 0.53228 0.71504 0.92506 0.0
H2475 H 0.47375 0.72229 0.94887 0.0
H2476 H 0.5051 0.6857 0.01338 0.0
H2477 H 0.4972 0.71491 0.98687 0.0
H2478 H 0.51298 0.67329 0.92384 0.0
H2479 H 0.52067 0.64384 0.95029 0.0
C2480 C 0.51911 0.74382 0.91366 0.0
C2481 C 0.50289 0.75638 0.91467 0.0
C2482 C 0.51915 0.72381 0.92542 0.0
C2483 C 0.50302 0.71597 0.93857 0.0
C2484 C 0.48643 0.72807 0.93898 0.0
C2485 C 0.4863 0.74805 0.92699 0.0
C2486 C 0.50637 0.68245 0.99371 0.0
C2487 C 0.51373 0.6626 0.98399 0.0
C2488 C 0.50183 0.69919 0.97852 0.0
C2489 C 0.50463 0.69644 0.95336 0.0
C2490 C 0.51098 0.676 0.94329 0.0
C2491 C 0.51545 0.65922 0.95844 0.0
H2492 H 0.1154 0.70606 0.73038 0.0
H2493 H 0.12595 0.772 0.78241 0.0
H2494 H 0.15258 0.71422 0.72747 0.0
H2495 H 0.16366 0.77958 0.78099 0.0
H2496 H 0.22316 0.80173 0.75018 0.0
H2497 H 0.18599 0.79204 0.7538 0.0
H2498 H 0.1873 0.71695 0.74583 0.0
H2499 H 0.22383 0.7266 0.74054 0.0
C2500 C 0.1259 0.72188 0.74197 0.0
C2501 C 0.1179 0.73839 0.75669 0.0
C2502 C 0.14727 0.72663 0.74028 0.0
C2503 C 0.1612 0.74775 0.75375 0.0
C2504 C 0.15333 0.7635 0.76976 0.0
C2505 C 0.13182 0.75901 0.77094 0.0
C2506 C 0.21528 0.78314 0.74865 0.0
C2507 C 0.22627 0.76491 0.74468 0.0
C2508 C 0.19409 0.77757 0.75117 0.0
C2509 C 0.1836 0.75368 0.75039 0.0
C2510 C 0.19463 0.73549 0.74609 0.0
C2511 C 0.21564 0.74102 0.74299 0.0
H2512 H 0.04979 0.39315 0.43223 0.0
H2513 H 1.01424 0.34629 0.47388 0.0
H2514 H 0.05042 0.4273 0.4637 0.0
H2515 H 0.01479 0.38069 0.50538 0.0
H2516 H 0.04505 0.44942 0.56822 0.0
H2517 H 0.04066 0.41234 0.53854 0.0
H2518 H 0.02343 0.44869 0.47642 0.0
H2519 H 0.02807 0.4855 0.50577 0.0
C2520 C 0.04216 0.39011 0.44813 0.0
C2521 C 0.03185 0.36702 0.45046 0.0
C2522 C 0.04239 0.4097 0.46607 0.0
C2523 C 0.03238 0.40667 0.4868 0.0
C2524 C 0.02261 0.38353 0.48959 0.0
C2525 C 0.02227 0.36388 0.47151 0.0
C2526 C 0.03985 0.44926 0.54827 0.0
C2527 C 0.03707 0.47036 0.53926 0.0
C2528 C 0.03738 0.42809 0.5313 0.0
C2529 C 0.03215 0.42782 0.50516 0.0
C2530 C 0.02795 0.44853 0.49642 0.0
C2531 C 0.03038 0.46955 0.51327 0.0
H2532 H 0.52486 0.2604 0.30125 0.0
H2533 H 0.47147 0.22346 0.24278 0.0
H2534 H 0.50064 0.27163 0.32782 0.0
H2535 H 0.44733 0.23511 0.26908 0.0
H2536 H 0.40605 0.25431 0.32056 0.0
H2537 H 0.43235 0.23378 0.3069 0.0
H2538 H 0.47884 0.30078 0.3239 0.0
H2539 H 0.45277 0.32107 0.33855 0.0
C2540 C 0.50795 0.25432 0.29422 0.0
C2541 C 0.50006 0.24143 0.26971 0.0
C2542 C 0.4941 0.26083 0.30944 0.0
C2543 C 0.47209 0.25459 0.30043 0.0
C2544 C 0.4642 0.24009 0.2767 0.0
C2545 C 0.47805 0.23352 0.26151 0.0
C2546 C 0.42209 0.26449 0.32227 0.0
C2547 C 0.4273 0.28937 0.33041 0.0
C2548 C 0.4371 0.25276 0.31415 0.0
C2549 C 0.45759 0.26568 0.31396 0.0
C2550 C 0.46323 0.29023 0.32393 0.0
C2551 C 0.44824 0.30194 0.33208 0.0
H2552 H 0.63702 0.56838 0.40389 0.0
H2553 H 0.58826 0.51139 0.35721 0.0
H2554 H 0.62151 0.56068 0.44066 0.0
H2555 H 0.57218 0.50433 0.39362 0.0
H2556 H 0.55765 0.4816 0.46615 0.0
H2557 H 0.57627 0.48857 0.43142 0.0
H2558 H 0.59269 0.56441 0.4602 0.0
H2559 H 0.57494 0.55718 0.49533 0.0
C2560 C 0.62281 0.55442 0.40141 0.0
C2561 C 0.61388 0.5405 0.37761 0.0
C2562 C 0.61385 0.55001 0.42252 0.0
C2563 C 0.59559 0.53175 0.42029 0.0
C2564 C 0.5865 0.51815 0.39631 0.0
C2565 C 0.5956 0.52238 0.3753 0.0
C2566 C 0.56552 0.49969 0.46516 0.0
C2567 C 0.56478 0.51883 0.48335 0.0
C2568 C 0.57601 0.50376 0.44512 0.0
C2569 C 0.58581 0.52713 0.44268 0.0
C2570 C 0.58558 0.54615 0.46146 0.0
C2571 C 0.57531 0.54203 0.48162 0.0
H2572 H 0.26686 0.8359 0.02653 0.0
H2573 H 0.20284 0.82318 0.04065 0.0
H2574 H 0.27798 0.8176 0.06283 0.0
H2575 H 0.2141 0.80516 0.07718 0.0
H2576 H 0.23903 0.75878 0.13147 0.0
H2577 H 0.2279 0.77117 0.0911 0.0
H2578 H 0.28237 0.83046 0.10866 0.0
H2579 H 0.29379 0.81771 0.14865 0.0
C2580 C 0.2551 0.82896 0.0372 0.0
C2581 C 0.234 0.8312 0.03086 0.0
C2582 C 0.26152 0.81861 0.05807 0.0
C2583 C 0.24697 0.81023 0.073 0.0
C2584 C 0.22564 0.81136 0.06594 0.0
C2585 C 0.21921 0.82176 0.04506 0.0
C2586 C 0.24875 0.77427 0.12652 0.0
C2587 C 0.26726 0.78732 0.14319 0.0
C2588 C 0.24229 0.78146 0.10353 0.0
C2589 C 0.25427 0.80174 0.09673 0.0
C2590 C 0.27295 0.81457 0.11325 0.0
C2591 C 0.27936 0.80745 0.13627 0.0
H2592 H 0.97543 0.5175 0.85385 0.0
H2593 H 0.95028 0.57596 0.88441 0.0
H2594 H 0.99589 0.51756 0.8952 0.0
H2595 H 0.97102 0.57588 0.92664 0.0
H2596 H 0.9989 0.54862 1.00419 0.0
H2597 H 0.97598 0.55076 0.96394 0.0
H2598 H 0.02678 0.54224 0.92463 0.0
H2599 H 0.04922 0.54036 0.96402 0.0
C2600 C 0.97426 0.53059 0.86936 0.0
C2601 C 0.96108 0.54688 0.86514 0.0
C2602 C 0.98618 0.53062 0.8934 0.0
C2603 C 0.98543 0.54671 0.91485 0.0
C2604 C 0.97211 0.56302 0.91089 0.0
C2605 C 0.96032 0.56327 0.88646 0.0
C2606 C 1.00509 0.54706 0.98692 0.0
C2607 C 0.02609 0.54405 0.98772 0.0
C2608 C 0.99197 0.54852 0.96372 0.0
C2609 C 0.99924 0.54656 0.94047 0.0
C2610 C 0.02019 0.54355 0.94163 0.0
C2611 C 0.03323 0.5425 0.96456 0.0
H2612 H 0.30726 0.17373 0.62755 0.0
H2613 H 0.26134 0.21087 0.59473 0.0
H2614 H 0.31076 0.19829 0.66843 0.0
H2615 H 0.26496 0.23564 0.63584 0.0
H2616 H 0.25885 0.25123 0.72075 0.0
H2617 H 0.25613 0.23056 0.67795 0.0
H2618 H 0.32419 0.23976 0.69045 0.0
H2619 H 0.32697 0.26024 0.73321 0.0
C2620 C 0.29799 0.18724 0.629 0.0
C2621 C 0.284 0.19028 0.60781 0.0
C2622 C 0.30011 0.20145 0.65246 0.0
C2623 C 0.28818 0.21899 0.65545 0.0
C2624 C 0.27427 0.22217 0.63423 0.0
C2625 C 0.27229 0.20807 0.61064 0.0
C2626 C 0.27327 0.24907 0.71432 0.0
C2627 C 0.29312 0.2573 0.73059 0.0
C2628 C 0.27171 0.2373 0.6897 0.0
C2629 C 0.28993 0.23333 0.68081 0.0
C2630 C 0.30981 0.2422 0.69681 0.0
C2631 C 0.3114 0.25409 0.72133 0.0
H2632 H 0.6278 0.53135 0.2485 0.0
H2633 H 0.58781 0.58054 0.26367 0.0
H2634 H 0.61197 0.52453 0.20373 0.0
H2635 H 0.57195 0.5736 0.21885 0.0
H2636 H 0.57231 0.57994 0.13516 0.0
H2637 H 0.58515 0.58382 0.18026 0.0
H2638 H 0.57765 0.50726 0.17304 0.0
H2639 H 0.56466 0.50327 0.12765 0.0
C2640 C 0.61551 0.54057 0.24233 0.0
C2641 C 0.60917 0.55663 0.25966 0.0
C2642 C 0.60636 0.53653 0.21668 0.0
C2643 C 0.59079 0.54861 0.20774 0.0
C2644 C 0.58409 0.56424 0.22515 0.0
C2645 C 0.59311 0.56812 0.25084 0.0
C2646 C 0.57335 0.56386 0.14309 0.0
C2647 C 0.56756 0.54127 0.12767 0.0
C2648 C 0.58057 0.56611 0.16903 0.0
C2649 C 0.58235 0.54586 0.18024 0.0
C2650 C 0.57657 0.52322 0.1649 0.0
C2651 C 0.56911 0.52094 0.1389 0.0
H2652 H 0.21067 0.79761 0.91425 0.0
H2653 H 0.23859 0.86753 0.89972 0.0
H2654 H 0.22266 0.77912 0.87809 0.0
H2655 H 0.25041 0.84896 0.86343 0.0
H2656 H 0.29626 0.80585 0.83184 0.0
H2657 H 0.27857 0.82606 0.86151 0.0
H2658 H 0.22031 0.77326 0.83194 0.0
H2659 H 0.23806 0.75317 0.8023 0.0
C2660 C 0.21889 0.80905 0.90299 0.0
C2661 C 0.22396 0.83402 0.91013 0.0
C2662 C 0.22573 0.79844 0.88222 0.0
C2663 C 0.23779 0.8126 0.8682 0.0
C2664 C 0.24149 0.8376 0.87419 0.0
C2665 C 0.23457 0.84822 0.89489 0.0
C2666 C 0.27963 0.79882 0.83153 0.0
C2667 C 0.2685 0.7781 0.81481 0.0
C2668 C 0.26946 0.81038 0.84841 0.0
C2669 C 0.248 0.80131 0.84894 0.0
C2670 C 0.23688 0.78057 0.83208 0.0
C2671 C 0.24705 0.76905 0.8152 0.0
H2672 H 0.94058 0.56509 0.71084 0.0
H2673 H 0.98317 0.52594 0.74643 0.0
H2674 H 0.95796 0.56316 0.67381 0.0
H2675 H 0.99988 0.52355 0.71007 0.0
H2676 H 0.04147 0.53716 0.65201 0.0
H2677 H 0.02306 0.54058 0.68715 0.0
H2678 H 0.96634 0.5435 0.6362 0.0
H2679 H 0.98526 0.54059 0.60073 0.0
C2680 C 0.95356 0.55604 0.711 0.0
C2681 C 0.96022 0.54587 0.73245 0.0
C2682 C 0.96364 0.55478 0.68942 0.0
C2683 C 0.98096 0.54339 0.6882 0.0
C2684 C 0.98724 0.5331 0.70963 0.0
C2685 C 0.97729 0.53434 0.73091 0.0
C2686 C 0.02503 0.53841 0.64797 0.0
C2687 C 0.0152 0.53835 0.62282 0.0
C2688 C 1.01417 0.54026 0.66852 0.0
C2689 C 0.99264 0.5421 0.66539 0.0
C2690 C 0.98278 0.54228 0.64017 0.0
C2691 C 0.99373 0.54042 0.61948 0.0
H2692 H 0.29255 0.20716 0.48295 0.0
H2693 H 0.23149 0.17724 0.43474 0.0
H2694 H 0.30239 0.23213 0.45207 0.0
H2695 H 0.24108 0.20274 0.40408 0.0
H2696 H 0.27453 0.23394 0.34288 0.0
H2697 H 0.26297 0.209 0.37332 0.0
H2698 H 0.29621 0.26586 0.43436 0.0
H2699 H 0.30788 0.29041 0.40385 0.0
C2700 C 0.28112 0.20603 0.46585 0.0
C2701 C 0.26119 0.19013 0.46146 0.0
C2702 C 0.28672 0.22052 0.44811 0.0
C2703 C 0.27254 0.21967 0.42543 0.0
C2704 C 0.25257 0.20377 0.42108 0.0
C2705 C 0.247 0.1892 0.43881 0.0
C2706 C 0.27888 0.24127 0.36276 0.0
C2707 C 0.29179 0.2643 0.37092 0.0
C2708 C 0.27237 0.22692 0.38031 0.0
C2709 C 0.27866 0.23525 0.4065 0.0
C2710 C 0.29131 0.25852 0.41448 0.0
C2711 C 0.29788 0.27274 0.39696 0.0
H2712 H 0.35801 0.58711 0.58103 0.0
H2713 H 0.34638 0.62669 0.52001 0.0
H2714 H 0.36923 0.55799 0.55317 0.0
H2715 H 0.35759 0.59721 0.49181 0.0
H2716 H 0.42112 0.57091 0.48135 0.0
H2717 H 0.39408 0.5913 0.49294 0.0
H2718 H 0.36197 0.52713 0.51567 0.0
H2719 H 0.38946 0.50701 0.50493 0.0
C2720 C 0.35737 0.58926 0.56146 0.0
C2721 C 0.35172 0.60939 0.55281 0.0
C2722 C 0.36357 0.57239 0.54536 0.0
C2723 C 0.3644 0.57536 0.52028 0.0
C2724 C 0.35723 0.59457 0.51109 0.0
C2725 C 0.35079 0.61139 0.52722 0.0
C2726 C 0.40794 0.56097 0.48814 0.0
C2727 C 0.40771 0.53762 0.49289 0.0
C2728 C 0.39231 0.57256 0.49454 0.0
C2729 C 0.37617 0.56095 0.50576 0.0
C2730 C 0.37446 0.53663 0.50747 0.0
C2731 C 0.39013 0.52505 0.50113 0.0
H2732 H 0.90837 0.95197 0.63642 0.0
H2733 H 0.88131 0.95021 0.55829 0.0
H2734 H 0.94214 0.97483 0.63029 0.0
H2735 H 0.91516 0.9732 0.55219 0.0
H2736 H 0.9856 0.99449 0.54498 0.0
H2737 H 0.95226 0.96999 0.55097 0.0
H2738 H 0.95761 1.01486 0.62247 0.0
H2739 H 0.99085 0.03917 0.61646 0.0
C2740 C 0.90958 0.95647 0.61791 0.0
C2741 C 0.89199 0.94925 0.59789 0.0
C2742 C 0.92898 0.9697 0.61442 0.0
C2743 C 0.93147 0.97593 0.59074 0.0
C2744 C 0.91393 0.96854 0.57063 0.0
C2745 C 0.89444 0.9555 0.57419 0.0
C2746 C 0.9797 0.99897 0.56204 0.0
C2747 C 0.99089 0.01875 0.58027 0.0
C2748 C 0.9605 0.98505 0.5654 0.0
C2749 C 0.95213 0.99042 0.5872 0.0
C2750 C 0.9636 1.01 0.60558 0.0
C2751 C 0.98265 0.02402 0.6021 0.0
H2752 H 0.93958 0.09918 0.25133 0.0
H2753 H 0.89099 0.0556 0.28124 0.0
H2754 H 0.91702 0.12762 0.24465 0.0
H2755 H 0.86844 0.08388 0.27429 0.0
H2756 H 0.84521 0.15306 0.28567 0.0
H2757 H 0.86832 0.12528 0.29178 0.0
H2758 H 0.88284 0.12965 0.21763 0.0
H2759 H 0.85996 0.15809 0.21172 0.0
C2760 C 0.92412 0.09569 0.25652 0.0
C2761 C 0.9171 0.07518 0.2669 0.0
C2762 C 0.91116 0.11187 0.2525 0.0
C2763 C 0.89099 0.10794 0.25893 0.0
C2764 C 0.88401 0.0875 0.26939 0.0
C2765 C 0.89691 0.07127 0.2733 0.0
C2766 C 0.85349 0.14828 0.27076 0.0
C2767 C 0.8509 0.15782 0.24827 0.0
C2768 C 0.86654 0.13218 0.27416 0.0
C2769 C 0.87732 0.12525 0.25516 0.0
C2770 C 0.87483 0.13483 0.23266 0.0
C2771 C 0.86163 0.15091 0.22918 0.0
H2772 H 0.7816 0.1888 0.15091 0.0
H2773 H 0.80755 0.12556 0.1462 0.0
H2774 H 0.74651 0.16407 0.1492 0.0
H2775 H 0.77232 0.10083 0.14431 0.0
H2776 H 0.68883 0.11382 0.16368 0.0
H2777 H 0.72568 0.13602 0.17306 0.0
H2778 H 0.73868 0.09157 0.11009 0.0
H2779 H 0.70176 0.06914 0.1008 0.0
C2780 C 0.77987 0.16966 0.14985 0.0
C2781 C 0.79729 0.15911 0.14843 0.0
C2782 C 0.7598 0.15552 0.149 0.0
C2783 C 0.75671 0.13053 0.14637 0.0
C2784 C 0.77427 0.12004 0.14604 0.0
C2785 C 0.79442 0.13423 0.14727 0.0
C2786 C 0.69965 0.1085 0.15211 0.0
C2787 C 0.69245 0.08973 0.1315 0.0
C2788 C 0.72067 0.12132 0.15739 0.0
C2789 C 0.73499 0.11551 0.14231 0.0
C2790 C 0.728 0.09626 0.12217 0.0
C2791 C 0.70687 0.08358 0.11672 0.0
H2792 H 0.17746 0.41328 0.31814 0.0
H2793 H 0.23414 0.46664 0.32096 0.0
H2794 H 0.19736 0.3823 0.31703 0.0
H2795 H 0.25447 0.43501 0.31918 0.0
H2796 H 0.29052 0.37328 0.33147 0.0
H2797 H 0.27169 0.40594 0.33357 0.0
H2798 H 0.21337 0.35591 0.29789 0.0
H2799 H 0.23207 0.32344 0.29666 0.0
C2800 C 0.19429 0.41868 0.31838 0.0
C2801 C 0.2037 0.44324 0.31962 0.0
C2802 C 0.20596 0.40038 0.31749 0.0
C2803 C 0.22805 0.40512 0.31763 0.0
C2804 C 0.23768 0.42981 0.31914 0.0
C2805 C 0.22586 0.44832 0.32009 0.0
C2806 C 0.27361 0.36906 0.32418 0.0
C2807 C 0.26317 0.34499 0.31409 0.0
C2808 C 0.26261 0.38817 0.32524 0.0
C2809 C 0.24042 0.38448 0.3162 0.0
C2810 C 0.23012 0.36034 0.30588 0.0
C2811 C 0.24108 0.34127 0.30495 0.0
H2812 H 0.2856 0.46965 0.08754 0.0
H2813 H 0.24046 0.40193 0.0742 0.0
H2814 H 0.25642 0.49047 0.08574 0.0
H2815 H 0.21152 0.42258 0.073 0.0
H2816 H 0.16328 0.46472 0.04429 0.0
H2817 H 0.19269 0.44463 0.04704 0.0
H2818 H 0.22912 0.50041 0.10739 0.0
H2819 H 0.19964 0.52061 0.10454 0.0
C2820 C 0.26949 0.45919 0.08438 0.0
C2821 C 0.26546 0.43407 0.08091 0.0
C2822 C 0.25273 0.47114 0.08348 0.0
C2823 C 0.23147 0.45827 0.07908 0.0
C2824 C 0.22756 0.43316 0.07594 0.0
C2825 C 0.24425 0.42127 0.0768 0.0
C2826 C 0.17743 0.47259 0.0584 0.0
C2827 C 0.17893 0.49432 0.07424 0.0
C2828 C 0.19439 0.46104 0.05997 0.0
C2829 C 0.21341 0.47079 0.07748 0.0
C2830 C 0.21491 0.49249 0.0934 0.0
C2831 C 0.19793 0.50408 0.0918 0.0
H2832 H 0.92757 0.91905 0.29306 0.0
H2833 H 0.88102 0.95639 0.26208 0.0
H2834 H 0.89923 0.88512 0.2943 0.0
H2835 H 0.85271 0.92271 0.26388 0.0
H2836 H 0.807 0.84972 0.253 0.0
H2837 H 0.83585 0.8812 0.24682 0.0
H2838 H 0.87204 0.87711 0.31925 0.0
H2839 H 0.84344 0.84563 0.32512 0.0
C2840 C 0.91131 0.91999 0.28639 0.0
C2841 C 0.90658 0.94052 0.27764 0.0
C2842 C 0.89505 0.90059 0.28725 0.0
C2843 C 0.87367 0.90128 0.27942 0.0
C2844 C 0.86899 0.92148 0.26985 0.0
C2845 C 0.88525 0.94086 0.26895 0.0
C2846 C 0.82118 0.85559 0.26749 0.0
C2847 C 0.82312 0.84515 0.2894 0.0
C2848 C 0.83766 0.87362 0.26402 0.0
C2849 C 0.85634 0.88158 0.28246 0.0
C2850 C 0.85811 0.87109 0.30442 0.0
C2851 C 0.84167 0.85315 0.30786 0.0
H2852 H 0.72859 0.10669 0.8759 0.0
H2853 H 0.70642 0.08658 0.7957 0.0
H2854 H 0.74627 0.146 0.87014 0.0
H2855 H 0.72334 0.12664 0.78971 0.0
H2856 H 0.76729 0.19685 0.78207 0.0
H2857 H 0.75077 0.15668 0.78729 0.0
H2858 H 0.74691 0.18373 0.86373 0.0
H2859 H 0.76442 0.22364 0.85864 0.0
C2860 C 0.72734 0.11063 0.85687 0.0
C2861 C 0.7159 0.09291 0.83633 0.0
C2862 C 0.73746 0.13367 0.8535 0.0
C2863 C 0.73646 0.14055 0.82938 0.0
C2864 C 0.72507 0.12266 0.80871 0.0
C2865 C 0.71514 0.09937 0.8121 0.0
C2866 C 0.76301 0.1943 0.80009 0.0
C2867 C 0.76746 0.21399 0.8199 0.0
C2868 C 0.75322 0.17094 0.8031 0.0
C2869 C 0.74711 0.166 0.82604 0.0
C2870 C 0.7515 0.18589 0.84581 0.0
C2871 C 0.76154 0.20922 0.84286 0.0
loop_
_geom_bond_atom_site_label_1
_geom_bond_atom_site_label_2
_geom_bond_distance
_geom_bond_site_symmetry_2
_ccdc_geom_bond_type
C0 O1 1.160 . S
C0 O7 1.185 . S
O1 C0 1.160 . S
O2 Zn3 1.899 . S
O2 C10 1.284 . S
Zn3 O2 1.899 . S
Zn3 O4 2.032 . S
Zn3 O7 2.086 . S
Zn3 O12 1.977 1_455 S
O4 Zn3 2.032 . S
O4 C8 1.278 . S
C5 O6 1.203 . S
C5 O12 1.267 . S
O6 C5 1.203 . S
O7 C0 1.185 . S
O7 Zn3 2.086 . S
C8 O4 1.278 . S
C8 O9 1.211 1_455 S
O9 C8 1.211 1_655 S
C10 O2 1.284 . S
C10 O11 1.273 1_455 S
O11 C10 1.273 1_655 S
O12 Zn3 1.977 1_655 S
O12 C5 1.267 . S
C13 O14 1.160 . S
C13 O20 1.185 . S
O14 C13 1.160 . S
O15 Zn16 1.899 . S
O15 C23 1.284 . S
Zn16 O15 1.899 . S
Zn16 O17 2.032 . S
Zn16 O20 2.086 . S
Zn16 O25 1.977 . S
O17 Zn16 2.032 . S
O17 C21 1.278 . S
C18 O19 1.203 . S
C18 O25 1.267 . S
O19 C18 1.203 . S
O20 C13 1.185 . S
O20 Zn16 2.086 . S
C21 O17 1.278 . S
C21 O22 1.211 . S
O22 C21 1.211 . S
C23 O15 1.284 . S
C23 O24 1.273 . S
O24 C23 1.273 . S
O25 Zn16 1.977 . S
O25 C18 1.267 . S
C26 O27 1.160 . S
C26 O33 1.185 . S
O27 C26 1.160 . S
O28 Zn29 1.899 . S
O28 C36 1.284 . S
Zn29 O28 1.899 . S
Zn29 O30 2.032 . S
Zn29 O33 2.086 . S
Zn29 O38 1.977 . S
O30 Zn29 2.032 . S
O30 C34 1.278 . S
C31 O32 1.203 . S
C31 O38 1.267 . S
O32 C31 1.203 . S
O33 C26 1.185 . S
O33 Zn29 2.086 . S
C34 O30 1.278 . S
C34 O35 1.211 . S
O35 C34 1.211 . S
C36 O28 1.284 . S
C36 O37 1.273 . S
O37 C36 1.273 . S
O38 Zn29 1.977 . S
O38 C31 1.267 . S
C39 O40 1.160 . S
C39 O46 1.185 . S
O40 C39 1.160 . S
O41 Zn42 1.899 . S
O41 C49 1.284 . S
Zn42 O41 1.899 . S
Zn42 O43 2.032 . S
Zn42 O46 2.086 . S
Zn42 O51 1.977 . S
O43 Zn42 2.032 . S
O43 C47 1.278 . S
C44 O45 1.203 . S
C44 O51 1.267 . S
O45 C44 1.203 . S
O46 C39 1.185 . S
O46 Zn42 2.086 . S
C47 O43 1.278 . S
C47 O48 1.211 . S
O48 C47 1.211 . S
C49 O41 1.284 . S
C49 O50 1.273 . S
O50 C49 1.273 . S
O51 Zn42 1.977 . S
O51 C44 1.267 . S
C52 O53 1.160 . S
C52 O59 1.185 . S
O53 C52 1.160 . S
O54 Zn55 1.899 . S
O54 C62 1.284 . S
Zn55 O54 1.899 . S
Zn55 O56 2.032 . S
Zn55 O59 2.086 . S
Zn55 O64 1.977 . S
O56 Zn55 2.032 . S
O56 C60 1.278 . S
C57 O58 1.203 . S
C57 O64 1.267 . S
O58 C57 1.203 . S
O59 C52 1.185 . S
O59 Zn55 2.086 . S
C60 O56 1.278 . S
C60 O61 1.211 . S
O61 C60 1.211 . S
C62 O54 1.284 . S
C62 O63 1.273 . S
O63 C62 1.273 . S
O64 Zn55 1.977 . S
O64 C57 1.267 . S
C65 O66 1.160 . S
C65 O72 1.185 . S
O66 C65 1.160 . S
O67 Zn68 1.899 . S
O67 C75 1.284 . S
Zn68 O67 1.899 . S
Zn68 O69 2.032 . S
Zn68 O72 2.086 . S
Zn68 O77 1.977 . S
O69 Zn68 2.032 . S
O69 C73 1.278 . S
C70 O71 1.203 . S
C70 O77 1.267 . S
O71 C70 1.203 . S
O72 C65 1.185 . S
O72 Zn68 2.086 . S
C73 O69 1.278 . S
C73 O74 1.211 . S
O74 C73 1.211 . S
C75 O67 1.284 . S
C75 O76 1.273 . S
O76 C75 1.273 . S
O77 Zn68 1.977 . S
O77 C70 1.267 . S
C78 O79 1.160 . S
C78 O85 1.185 . S
O79 C78 1.160 . S
O80 Zn81 1.899 . S
O80 C88 1.284 . S
Zn81 O80 1.899 . S
Zn81 O82 2.032 . S
Zn81 O85 2.086 . S
Zn81 O90 1.977 . S
O82 Zn81 2.032 . S
O82 C86 1.278 . S
C83 O84 1.203 . S
C83 O90 1.267 . S
O84 C83 1.203 . S
O85 C78 1.185 . S
O85 Zn81 2.086 . S
C86 O82 1.278 . S
C86 O87 1.211 . S
O87 C86 1.211 . S
C88 O80 1.284 . S
C88 O89 1.273 . S
O89 C88 1.273 . S
O90 Zn81 1.977 . S
O90 C83 1.267 . S
C91 O92 1.160 . S
C91 O98 1.185 . S
O92 C91 1.160 . S
O93 Zn94 1.899 . S
O93 C101 1.284 . S
Zn94 O93 1.899 . S
Zn94 O95 2.032 . S
Zn94 O98 2.086 . S
Zn94 O103 1.977 1_455 S
O95 Zn94 2.032 . S
O95 C99 1.278 . S
C96 O97 1.203 . S
C96 O103 1.267 . S
O97 C96 1.203 . S
O98 C91 1.185 . S
O98 Zn94 2.086 . S
C99 O95 1.278 . S
C99 O100 1.211 1_455 S
O100 C99 1.211 1_655 S
C101 O93 1.284 . S
C101 O102 1.273 . S
O102 C101 1.273 . S
O103 Zn94 1.977 1_655 S
O103 C96 1.267 . S
C104 O105 1.160 . S
C104 O111 1.185 . S
O105 C104 1.160 . S
O106 Zn107 1.899 . S
O106 C114 1.284 . S
Zn107 O106 1.899 . S
Zn107 O108 2.032 . S
Zn107 O111 2.086 . S
Zn107 O116 1.977 1_545 S
O108 Zn107 2.032 . S
O108 C112 1.278 . S
C109 O110 1.203 . S
C109 O116 1.267 . S
O110 C109 1.203 . S
O111 C104 1.185 . S
O111 Zn107 2.086 . S
C112 O108 1.278 . S
C112 O113 1.211 . S
O113 C112 1.211 . S
C114 O106 1.284 . S
C114 O115 1.273 . S
O115 C114 1.273 . S
O116 Zn107 1.977 1_565 S
O116 C109 1.267 . S
C117 O118 1.160 . S
C117 O124 1.185 . S
O118 C117 1.160 . S
O119 Zn120 1.899 . S
O119 C127 1.284 . S
Zn120 O119 1.899 . S
Zn120 O121 2.032 . S
Zn120 O124 2.086 . S
Zn120 O129 1.977 . S
O121 Zn120 2.032 . S
O121 C125 1.278 . S
C122 O123 1.203 . S
C122 O129 1.267 . S
O123 C122 1.203 . S
O124 C117 1.185 . S
O124 Zn120 2.086 . S
C125 O121 1.278 . S
C125 O126 1.211 . S
O126 C125 1.211 . S
C127 O119 1.284 . S
C127 O128 1.273 . S
O128 C127 1.273 . S
O129 Zn120 1.977 . S
O129 C122 1.267 . S
C130 O131 1.160 . S
C130 O137 1.185 1_565 S
O131 C130 1.160 . S
O132 Zn133 1.899 . S
O132 C140 1.284 . S
Zn133 O132 1.899 . S
Zn133 O134 2.032 . S
Zn133 O137 2.086 . S
Zn133 O142 1.977 . S
O134 Zn133 2.032 . S
O134 C138 1.278 . S
C135 O136 1.203 . S
C135 O142 1.267 . S
O136 C135 1.203 . S
O137 C130 1.185 1_545 S
O137 Zn133 2.086 . S
C138 O134 1.278 . S
C138 O139 1.211 . S
O139 C138 1.211 . S
C140 O132 1.284 . S
C140 O141 1.273 . S
O141 C140 1.273 . S
O142 Zn133 1.977 . S
O142 C135 1.267 . S
C143 O144 1.160 . S
C143 O150 1.185 1_554 S
O144 C143 1.160 . S
O145 Zn146 1.899 . S
O145 C153 1.284 . S
Zn146 O145 1.899 . S
Zn146 O147 2.032 1_554 S
Zn146 O150 2.086 1_554 S
Zn146 O155 1.977 . S
O147 Zn146 2.032 1_556 S
O147 C151 1.278 . S
C148 O149 1.203 . S
C148 O155 1.267 . S
O149 C148 1.203 . S
O150 C143 1.185 1_556 S
O150 Zn146 2.086 1_556 S
C151 O147 1.278 . S
C151 O152 1.211 . S
O152 C151 1.211 . S
C153 O145 1.284 . S
C153 O154 1.273 . S
O154 C153 1.273 . S
O155 Zn146 1.977 . S
O155 C148 1.267 . S
C156 O157 1.160 . S
C156 O163 1.185 . S
O157 C156 1.160 . S
O158 Zn159 1.899 . S
O158 C166 1.284 . S
Zn159 O158 1.899 . S
Zn159 O160 2.032 . S
Zn159 O163 2.086 . S
Zn159 O168 1.977 . S
O160 Zn159 2.032 . S
O160 C164 1.278 . S
C161 O162 1.203 . S
C161 O168 1.267 . S
O162 C161 1.203 . S
O163 C156 1.185 . S
O163 Zn159 2.086 . S
C164 O160 1.278 . S
C164 O165 1.211 . S
O165 C164 1.211 . S
C166 O158 1.284 . S
C166 O167 1.273 . S
O167 C166 1.273 . S
O168 Zn159 1.977 . S
O168 C161 1.267 . S
C169 O170 1.160 . S
C169 O176 1.185 . S
O170 C169 1.160 . S
O171 Zn172 1.899 . S
O171 C179 1.284 . S
Zn172 O171 1.899 . S
Zn172 O173 2.032 . S
Zn172 O176 2.086 . S
Zn172 O181 1.977 . S
O173 Zn172 2.032 . S
O173 C177 1.278 . S
C174 O175 1.203 . S
C174 O181 1.267 . S
O175 C174 1.203 . S
O176 C169 1.185 . S
O176 Zn172 2.086 . S
C177 O173 1.278 . S
C177 O178 1.211 . S
O178 C177 1.211 . S
C179 O171 1.284 . S
C179 O180 1.273 . S
O180 C179 1.273 . S
O181 Zn172 1.977 . S
O181 C174 1.267 . S
C182 O183 1.160 . S
C182 O189 1.185 . S
O183 C182 1.160 . S
O184 Zn185 1.899 . S
O184 C192 1.284 . S
Zn185 O184 1.899 . S
Zn185 O186 2.032 . S
Zn185 O189 2.086 . S
Zn185 O194 1.977 . S
O186 Zn185 2.032 . S
O186 C190 1.278 . S
C187 O188 1.203 . S
C187 O194 1.267 . S
O188 C187 1.203 . S
O189 C182 1.185 . S
O189 Zn185 2.086 . S
C190 O186 1.278 . S
C190 O191 1.211 . S
O191 C190 1.211 . S
C192 O184 1.284 . S
C192 O193 1.273 . S
O193 C192 1.273 . S
O194 Zn185 1.977 . S
O194 C187 1.267 . S
C195 O196 1.160 . S
C195 O202 1.185 . S
O196 C195 1.160 . S
O197 Zn198 1.899 . S
O197 C205 1.284 . S
Zn198 O197 1.899 . S
Zn198 O199 2.032 . S
Zn198 O202 2.086 . S
Zn198 O207 1.977 . S
O199 Zn198 2.032 . S
O199 C203 1.278 . S
C200 O201 1.203 . S
C200 O207 1.267 . S
O201 C200 1.203 . S
O202 C195 1.185 . S
O202 Zn198 2.086 . S
C203 O199 1.278 . S
C203 O204 1.211 . S
O204 C203 1.211 . S
C205 O197 1.284 . S
C205 O206 1.273 . S
O206 C205 1.273 . S
O207 Zn198 1.977 . S
O207 C200 1.267 . S
C208 O209 1.160 . S
C208 O215 1.185 . S
O209 C208 1.160 . S
O210 Zn211 1.899 . S
O210 C218 1.284 1_545 S
Zn211 O210 1.899 . S
Zn211 O212 2.032 . S
Zn211 O215 2.086 . S
Zn211 O220 1.977 1_545 S
O212 Zn211 2.032 . S
O212 C216 1.278 . S
C213 O214 1.203 . S
C213 O220 1.267 . S
O214 C213 1.203 . S
O215 C208 1.185 . S
O215 Zn211 2.086 . S
C216 O212 1.278 . S
C216 O217 1.211 1_545 S
O217 C216 1.211 1_565 S
C218 O210 1.284 1_565 S
C218 O219 1.273 . S
O219 C218 1.273 . S
O220 Zn211 1.977 1_565 S
O220 C213 1.267 . S
C221 O222 1.160 . S
C221 O228 1.185 . S
O222 C221 1.160 . S
O223 Zn224 1.899 . S
O223 C231 1.284 . S
Zn224 O223 1.899 . S
Zn224 O225 2.032 . S
Zn224 O228 2.086 . S
Zn224 O233 1.977 . S
O225 Zn224 2.032 . S
O225 C229 1.278 . S
C226 O227 1.203 . S
C226 O233 1.267 . S
O227 C226 1.203 . S
O228 C221 1.185 . S
O228 Zn224 2.086 . S
C229 O225 1.278 . S
C229 O230 1.211 . S
O230 C229 1.211 . S
C231 O223 1.284 . S
C231 O232 1.273 . S
O232 C231 1.273 . S
O233 Zn224 1.977 . S
O233 C226 1.267 . S
C234 O235 1.160 . S
C234 O241 1.185 . S
O235 C234 1.160 . S
O236 Zn237 1.899 . S
O236 C244 1.284 . S
Zn237 O236 1.899 . S
Zn237 O238 2.032 . S
Zn237 O241 2.086 . S
Zn237 O246 1.977 . S
O238 Zn237 2.032 . S
O238 C242 1.278 . S
C239 O240 1.203 . S
C239 O246 1.267 . S
O240 C239 1.203 . S
O241 C234 1.185 . S
O241 Zn237 2.086 . S
C242 O238 1.278 . S
C242 O243 1.211 . S
O243 C242 1.211 . S
C244 O236 1.284 . S
C244 O245 1.273 . S
O245 C244 1.273 . S
O246 Zn237 1.977 . S
O246 C239 1.267 . S
C247 O248 1.160 . S
C247 O254 1.185 . S
O248 C247 1.160 . S
O249 Zn250 1.899 . S
O249 C257 1.284 . S
Zn250 O249 1.899 . S
Zn250 O251 2.032 . S
Zn250 O254 2.086 1_545 S
Zn250 O259 1.977 . S
O251 Zn250 2.032 . S
O251 C255 1.278 . S
C252 O253 1.203 . S
C252 O259 1.267 . S
O253 C252 1.203 . S
O254 C247 1.185 . S
O254 Zn250 2.086 1_565 S
C255 O251 1.278 . S
C255 O256 1.211 . S
O256 C255 1.211 . S
C257 O249 1.284 . S
C257 O258 1.273 . S
O258 C257 1.273 . S
O259 Zn250 1.977 . S
O259 C252 1.267 . S
C260 O261 1.160 . S
C260 O267 1.185 . S
O261 C260 1.160 . S
O262 Zn263 1.899 . S
O262 C270 1.284 . S
Zn263 O262 1.899 . S
Zn263 O264 2.032 . S
Zn263 O267 2.086 . S
Zn263 O272 1.977 . S
O264 Zn263 2.032 . S
O264 C268 1.278 . S
C265 O266 1.203 . S
C265 O272 1.267 . S
O266 C265 1.203 . S
O267 C260 1.185 . S
O267 Zn263 2.086 . S
C268 O264 1.278 . S
C268 O269 1.211 . S
O269 C268 1.211 . S
C270 O262 1.284 . S
C270 O271 1.273 . S
O271 C270 1.273 . S
O272 Zn263 1.977 . S
O272 C265 1.267 . S
C273 O274 1.160 . S
C273 O280 1.185 . S
O274 C273 1.160 . S
O275 Zn276 1.899 . S
O275 C283 1.284 . S
Zn276 O275 1.899 . S
Zn276 O277 2.032 . S
Zn276 O280 2.086 . S
Zn276 O285 1.977 . S
O277 Zn276 2.032 . S
O277 C281 1.278 . S
C278 O279 1.203 . S
C278 O285 1.267 . S
O279 C278 1.203 . S
O280 C273 1.185 . S
O280 Zn276 2.086 . S
C281 O277 1.278 . S
C281 O282 1.211 . S
O282 C281 1.211 . S
C283 O275 1.284 . S
C283 O284 1.273 . S
O284 C283 1.273 . S
O285 Zn276 1.977 . S
O285 C278 1.267 . S
C286 O287 1.160 . S
C286 O293 1.185 . S
O287 C286 1.160 . S
O288 Zn289 1.899 . S
O288 C296 1.284 . S
Zn289 O288 1.899 . S
Zn289 O290 2.032 . S
Zn289 O293 2.086 . S
Zn289 O298 1.977 . S
O290 Zn289 2.032 . S
O290 C294 1.278 . S
C291 O292 1.203 . S
C291 O298 1.267 . S
O292 C291 1.203 . S
O293 C286 1.185 . S
O293 Zn289 2.086 . S
C294 O290 1.278 . S
C294 O295 1.211 . S
O295 C294 1.211 . S
C296 O288 1.284 . S
C296 O297 1.273 . S
O297 C296 1.273 . S
O298 Zn289 1.977 . S
O298 C291 1.267 . S
C299 O300 1.160 . S
C299 O306 1.185 . S
O300 C299 1.160 . S
O301 Zn302 1.899 . S
O301 C309 1.284 . S
Zn302 O301 1.899 . S
Zn302 O303 2.032 . S
Zn302 O306 2.086 . S
Zn302 O311 1.977 . S
O303 Zn302 2.032 . S
O303 C307 1.278 . S
C304 O305 1.203 . S
C304 O311 1.267 . S
O305 C304 1.203 . S
O306 C299 1.185 . S
O306 Zn302 2.086 . S
C307 O303 1.278 . S
C307 O308 1.211 . S
O308 C307 1.211 . S
C309 O301 1.284 . S
C309 O310 1.273 . S
O310 C309 1.273 . S
O311 Zn302 1.977 . S
O311 C304 1.267 . S
Tb312 C314 2.809 . S
Tb312 O332 2.484 . S
Tb312 O333 2.438 1_554 S
Tb312 O334 2.658 1_655 S
Tb312 O335 2.409 1_654 S
Tb312 O336 2.378 1_655 S
Tb312 O340 2.325 1_655 S
Tb312 O343 2.341 1_645 S
Tb313 C323 2.809 1_545 S
Tb313 O334 2.325 . S
Tb313 O337 2.341 . S
Tb313 O338 2.484 1_545 S
Tb313 O339 2.440 . S
Tb313 O340 2.658 . S
Tb313 O341 2.409 . S
Tb313 O342 2.378 1_545 S
C314 Tb312 2.809 . S
C314 C315 1.514 . S
C314 O332 1.248 . S
C314 O333 1.262 1_554 S
C315 C314 1.514 . S
C315 C316 1.359 . S
C315 C320 1.348 1_554 S
C316 C315 1.359 . S
C316 C317 1.380 . S
C316 H344 0.929 . S
C317 C316 1.380 . S
C317 C318 1.347 . S
C317 H345 0.931 . S
C318 C317 1.347 . S
C318 C319 1.369 1_554 S
C319 C318 1.369 1_556 S
C319 C320 1.408 . S
C319 H346 0.930 . S
C320 C315 1.348 1_556 S
C320 C319 1.408 . S
C320 H347 0.930 . S
C321 O334 1.281 1_556 S
C321 O335 1.254 . S
C322 O336 1.236 . S
C322 O337 1.266 . S
C323 Tb313 2.809 1_565 S
C323 C324 1.514 . S
C323 O338 1.248 . S
C323 O339 1.266 1_565 S
C324 C323 1.514 . S
C324 C325 1.359 . S
C324 C329 1.348 . S
C325 C324 1.359 . S
C325 C326 1.380 . S
C325 H348 0.929 . S
C326 C325 1.380 . S
C326 C327 1.347 . S
C326 H349 0.931 . S
C327 C326 1.347 . S
C327 C328 1.369 . S
C328 C327 1.369 . S
C328 C329 1.408 . S
C328 H350 0.930 . S
C329 C324 1.348 . S
C329 C328 1.408 . S
C329 H351 0.930 . S
C330 O340 1.281 . S
C330 O341 1.254 . S
C331 O342 1.236 . S
C331 O343 1.266 . S
O332 Tb312 2.484 . S
O332 C314 1.248 . S
O333 Tb312 2.438 1_556 S
O333 C314 1.262 1_556 S
O334 Tb312 2.658 1_455 S
O334 Tb313 2.325 . S
O334 C321 1.281 1_554 S
O335 Tb312 2.409 1_456 S
O335 C321 1.254 . S
O336 Tb312 2.378 1_455 S
O336 C322 1.236 . S
O337 Tb313 2.341 . S
O337 C322 1.266 . S
O338 Tb313 2.484 1_565 S
O338 C323 1.248 . S
O339 Tb313 2.440 . S
O339 C323 1.266 1_545 S
O340 Tb312 2.325 1_455 S
O340 Tb313 2.658 . S
O340 C330 1.281 . S
O341 Tb313 2.409 . S
O341 C330 1.254 . S
O342 Tb313 2.378 1_565 S
O342 C331 1.236 . S
O343 Tb312 2.341 1_465 S
O343 C331 1.266 . S
H344 C316 0.929 . S
H345 C317 0.931 . S
H346 C319 0.930 . S
H347 C320 0.930 . S
H348 C325 0.929 . S
H349 C326 0.931 . S
H350 C328 0.930 . S
H351 C329 0.930 . S
Tb352 C354 2.809 . S
Tb352 O372 2.484 . S
Tb352 O373 2.440 . S
Tb352 O374 2.658 . S
Tb352 O375 2.409 . S
Tb352 O376 2.378 . S
Tb352 O380 2.325 . S
Tb352 O383 2.341 . S
Tb353 C363 2.809 . S
Tb353 O374 2.325 . S
Tb353 O377 2.341 . S
Tb353 O378 2.484 . S
Tb353 O379 2.440 . S
Tb353 O380 2.658 . S
Tb353 O381 2.409 . S
Tb353 O382 2.378 . S
C354 Tb352 2.809 . S
C354 C355 1.514 . S
C354 O372 1.248 . S
C354 O373 1.266 . S
C355 C354 1.514 . S
C355 C356 1.359 . S
C355 C360 1.348 . S
C356 C355 1.359 . S
C356 C357 1.380 . S
C356 H384 0.929 . S
C357 C356 1.380 . S
C357 C358 1.347 . S
C357 H385 0.931 . S
C358 C357 1.347 . S
C358 C359 1.369 . S
C359 C358 1.369 . S
C359 C360 1.408 . S
C359 H386 0.930 . S
C360 C355 1.348 . S
C360 C359 1.408 . S
C360 H387 0.930 . S
C361 O374 1.281 . S
C361 O375 1.254 . S
C362 O376 1.236 . S
C362 O377 1.266 . S
C363 Tb353 2.809 . S
C363 C364 1.514 . S
C363 O378 1.248 . S
C363 O379 1.266 . S
C364 C363 1.514 . S
C364 C365 1.359 . S
C364 C369 1.348 . S
C365 C364 1.359 . S
C365 C366 1.380 . S
C365 H388 0.929 . S
C366 C365 1.380 . S
C366 C367 1.347 . S
C366 H389 0.931 . S
C367 C366 1.347 . S
C367 C368 1.369 . S
C368 C367 1.369 . S
C368 C369 1.408 . S
C368 H390 0.930 . S
C369 C364 1.348 . S
C369 C368 1.408 . S
C369 H391 0.930 . S
C370 O380 1.281 . S
C370 O381 1.254 . S
C371 O382 1.236 . S
C371 O383 1.266 . S
O372 Tb352 2.484 . S
O372 C354 1.248 . S
O373 Tb352 2.440 . S
O373 C354 1.266 . S
O374 Tb352 2.658 . S
O374 Tb353 2.325 . S
O374 C361 1.281 . S
O375 Tb352 2.409 . S
O375 C361 1.254 . S
O376 Tb352 2.378 . S
O376 C362 1.236 . S
O377 Tb353 2.341 . S
O377 C362 1.266 . S
O378 Tb353 2.484 . S
O378 C363 1.248 . S
O379 Tb353 2.440 . S
O379 C363 1.266 . S
O380 Tb352 2.325 . S
O380 Tb353 2.658 . S
O380 C370 1.281 . S
O381 Tb353 2.409 . S
O381 C370 1.254 . S
O382 Tb353 2.378 . S
O382 C371 1.236 . S
O383 Tb352 2.341 . S
O383 C371 1.266 . S
H384 C356 0.929 . S
H385 C357 0.931 . S
H386 C359 0.930 . S
H387 C360 0.930 . S
H388 C365 0.929 . S
H389 C366 0.931 . S
H390 C368 0.930 . S
H391 C369 0.930 . S
Tb392 C394 2.810 1_545 S
Tb392 O412 2.484 . S
Tb392 O413 2.440 . S
Tb392 O414 2.658 . S
Tb392 O415 2.409 . S
Tb392 O416 2.378 1_545 S
Tb392 O420 2.325 . S
Tb392 O423 2.341 . S
Tb393 C403 2.809 . S
Tb393 O414 2.325 . S
Tb393 O417 2.341 1_545 S
Tb393 O418 2.484 . S
Tb393 O419 2.440 . S
Tb393 O420 2.658 . S
Tb393 O421 2.409 . S
Tb393 O422 2.378 . S
C394 Tb392 2.810 1_565 S
C394 C395 1.513 . S
C394 O412 1.248 1_565 S
C394 O413 1.267 1_565 S
C395 C394 1.513 . S
C395 C396 1.359 . S
C395 C400 1.348 . S
C396 C395 1.359 . S
C396 C397 1.380 . S
C396 H424 0.929 . S
C397 C396 1.380 . S
C397 C398 1.347 . S
C397 H425 0.931 . S
C398 C397 1.347 . S
C398 C399 1.369 . S
C399 C398 1.369 . S
C399 C400 1.408 . S
C399 H426 0.930 . S
C400 C395 1.348 . S
C400 C399 1.408 . S
C400 H427 0.930 . S
C401 O414 1.281 . S
C401 O415 1.254 . S
C402 O416 1.236 . S
C402 O417 1.266 . S
C403 Tb393 2.809 . S
C403 C404 1.514 . S
C403 O418 1.248 . S
C403 O419 1.266 . S
C404 C403 1.514 . S
C404 C405 1.359 . S
C404 C409 1.348 . S
C405 C404 1.359 . S
C405 C406 1.380 . S
C405 H428 0.929 . S
C406 C405 1.380 . S
C406 C407 1.347 . S
C406 H429 0.931 . S
C407 C406 1.347 . S
C407 C408 1.369 . S
C408 C407 1.369 . S
C408 C409 1.408 . S
C408 H430 0.930 . S
C409 C404 1.348 . S
C409 C408 1.408 . S
C409 H431 0.930 . S
C410 O420 1.281 . S
C410 O421 1.254 . S
C411 O422 1.236 . S
C411 O423 1.266 . S
O412 Tb392 2.484 . S
O412 C394 1.248 1_545 S
O413 Tb392 2.440 . S
O413 C394 1.267 1_545 S
O414 Tb392 2.658 . S
O414 Tb393 2.325 . S
O414 C401 1.281 . S
O415 Tb392 2.409 . S
O415 C401 1.254 . S
O416 Tb392 2.378 1_565 S
O416 C402 1.236 . S
O417 Tb393 2.341 1_565 S
O417 C402 1.266 . S
O418 Tb393 2.484 . S
O418 C403 1.248 . S
O419 Tb393 2.440 . S
O419 C403 1.266 . S
O420 Tb392 2.325 . S
O420 Tb393 2.658 . S
O420 C410 1.281 . S
O421 Tb393 2.409 . S
O421 C410 1.254 . S
O422 Tb393 2.378 . S
O422 C411 1.236 . S
O423 Tb392 2.341 . S
O423 C411 1.266 . S
H424 C396 0.929 . S
H425 C397 0.931 . S
H426 C399 0.930 . S
H427 C400 0.930 . S
H428 C405 0.929 . S
H429 C406 0.931 . S
H430 C408 0.930 . S
H431 C409 0.930 . S
Tb432 C434 2.809 . S
Tb432 O452 2.484 . S
Tb432 O453 2.440 . S
Tb432 O454 2.658 . S
Tb432 O455 2.409 . S
Tb432 O456 2.378 . S
Tb432 O460 2.325 . S
Tb432 O463 2.341 . S
Tb433 C443 2.809 . S
Tb433 O454 2.325 . S
Tb433 O457 2.341 . S
Tb433 O458 2.484 . S
Tb433 O459 2.440 . S
Tb433 O460 2.658 . S
Tb433 O461 2.409 . S
Tb433 O462 2.378 . S
C434 Tb432 2.809 . S
C434 C435 1.514 . S
C434 O452 1.248 . S
C434 O453 1.266 . S
C435 C434 1.514 . S
C435 C436 1.359 . S
C435 C440 1.348 . S
C436 C435 1.359 . S
C436 C437 1.380 . S
C436 H464 0.929 . S
C437 C436 1.380 . S
C437 C438 1.347 . S
C437 H465 0.931 . S
C438 C437 1.347 . S
C438 C439 1.369 . S
C439 C438 1.369 . S
C439 C440 1.408 . S
C439 H466 0.930 . S
C440 C435 1.348 . S
C440 C439 1.408 . S
C440 H467 0.930 . S
C441 O454 1.281 . S
C441 O455 1.254 . S
C442 O456 1.236 . S
C442 O457 1.266 . S
C443 Tb433 2.809 . S
C443 C444 1.514 . S
C443 O458 1.248 . S
C443 O459 1.266 . S
C444 C443 1.514 . S
C444 C445 1.359 . S
C444 C449 1.348 . S
C445 C444 1.359 . S
C445 C446 1.380 . S
C445 H468 0.929 . S
C446 C445 1.380 . S
C446 C447 1.347 . S
C446 H469 0.931 . S
C447 C446 1.347 . S
C447 C448 1.369 . S
C448 C447 1.369 . S
C448 C449 1.408 . S
C448 H470 0.930 . S
C449 C444 1.348 . S
C449 C448 1.408 . S
C449 H471 0.930 . S
C450 O460 1.281 . S
C450 O461 1.254 . S
C451 O462 1.236 . S
C451 O463 1.266 . S
O452 Tb432 2.484 . S
O452 C434 1.248 . S
O453 Tb432 2.440 . S
O453 C434 1.266 . S
O454 Tb432 2.658 . S
O454 Tb433 2.325 . S
O454 C441 1.281 . S
O455 Tb432 2.409 . S
O455 C441 1.254 . S
O456 Tb432 2.378 . S
O456 C442 1.236 . S
O457 Tb433 2.341 . S
O457 C442 1.266 . S
O458 Tb433 2.484 . S
O458 C443 1.248 . S
O459 Tb433 2.440 . S
O459 C443 1.266 . S
O460 Tb432 2.325 . S
O460 Tb433 2.658 . S
O460 C450 1.281 . S
O461 Tb433 2.409 . S
O461 C450 1.254 . S
O462 Tb433 2.378 . S
O462 C451 1.236 . S
O463 Tb432 2.341 . S
O463 C451 1.266 . S
H464 C436 0.929 . S
H465 C437 0.931 . S
H466 C439 0.930 . S
H467 C440 0.930 . S
H468 C445 0.929 . S
H469 C446 0.931 . S
H470 C448 0.930 . S
H471 C449 0.930 . S
Tb472 C474 2.809 . S
Tb472 O492 2.484 . S
Tb472 O493 2.440 . S
Tb472 O494 2.658 . S
Tb472 O495 2.409 1_455 S
Tb472 O496 2.378 . S
Tb472 O500 2.325 . S
Tb472 O503 2.341 . S
Tb473 C483 2.809 . S
Tb473 O494 2.325 1_565 S
Tb473 O497 2.336 1_565 S
Tb473 O498 2.484 . S
Tb473 O499 2.440 . S
Tb473 O500 2.658 1_565 S
Tb473 O501 2.409 1_565 S
Tb473 O502 2.378 1_565 S
C474 Tb472 2.809 . S
C474 C475 1.514 . S
C474 O492 1.248 . S
C474 O493 1.266 . S
C475 C474 1.514 . S
C475 C476 1.359 . S
C475 C480 1.348 1_455 S
C476 C475 1.359 . S
C476 C477 1.380 . S
C476 H504 0.929 . S
C477 C476 1.380 . S
C477 C478 1.367 . S
C477 H505 0.931 . S
C478 C477 1.367 . S
C478 C479 1.354 1_455 S
C479 C478 1.354 1_655 S
C479 C480 1.408 . S
C479 H506 0.930 . S
C480 C475 1.348 1_655 S
C480 C479 1.408 . S
C480 H507 0.930 . S
C481 O494 1.281 1_655 S
C481 O495 1.254 . S
C482 O496 1.236 . S
C482 O497 1.277 . S
C483 Tb473 2.809 . S
C483 C484 1.514 . S
C483 O498 1.248 . S
C483 O499 1.266 . S
C484 C483 1.514 . S
C484 C485 1.359 . S
C484 C489 1.348 . S
C485 C484 1.359 . S
C485 C486 1.380 . S
C485 H508 0.929 . S
C486 C485 1.380 . S
C486 C487 1.347 . S
C486 H509 0.931 . S
C487 C486 1.347 . S
C487 C488 1.369 . S
C488 C487 1.369 . S
C488 C489 1.408 . S
C488 H510 0.930 . S
C489 C484 1.348 . S
C489 C488 1.408 . S
C489 H511 0.930 . S
C490 O500 1.281 . S
C490 O501 1.254 . S
C491 O502 1.236 . S
C491 O503 1.266 . S
O492 Tb472 2.484 . S
O492 C474 1.248 . S
O493 Tb472 2.440 . S
O493 C474 1.266 . S
O494 Tb472 2.658 . S
O494 Tb473 2.325 1_545 S
O494 C481 1.281 1_455 S
O495 Tb472 2.409 1_655 S
O495 C481 1.254 . S
O496 Tb472 2.378 . S
O496 C482 1.236 . S
O497 Tb473 2.336 1_545 S
O497 C482 1.277 . S
O498 Tb473 2.484 . S
O498 C483 1.248 . S
O499 Tb473 2.440 . S
O499 C483 1.266 . S
O500 Tb472 2.325 . S
O500 Tb473 2.658 1_545 S
O500 C490 1.281 . S
O501 Tb473 2.409 1_545 S
O501 C490 1.254 . S
O502 Tb473 2.378 1_545 S
O502 C491 1.236 . S
O503 Tb472 2.341 . S
O503 C491 1.266 . S
H504 C476 0.929 . S
H505 C477 0.931 . S
H506 C479 0.930 . S
H507 C480 0.930 . S
H508 C485 0.929 . S
H509 C486 0.931 . S
H510 C488 0.930 . S
H511 C489 0.930 . S
Tb512 C514 2.809 . S
Tb512 O532 2.484 . S
Tb512 O533 2.440 . S
Tb512 O534 2.658 . S
Tb512 O535 2.409 . S
Tb512 O536 2.378 . S
Tb512 O540 2.325 . S
Tb512 O543 2.341 . S
Tb513 C523 2.809 . S
Tb513 O534 2.325 . S
Tb513 O537 2.341 . S
Tb513 O538 2.484 . S
Tb513 O539 2.440 . S
Tb513 O540 2.658 . S
Tb513 O541 2.409 . S
Tb513 O542 2.378 . S
C514 Tb512 2.809 . S
C514 C515 1.514 . S
C514 O532 1.248 . S
C514 O533 1.266 . S
C515 C514 1.514 . S
C515 C516 1.359 . S
C515 C520 1.348 . S
C516 C515 1.359 . S
C516 C517 1.380 . S
C516 H544 0.929 . S
C517 C516 1.380 . S
C517 C518 1.347 . S
C517 H545 0.931 . S
C518 C517 1.347 . S
C518 C519 1.369 . S
C519 C518 1.369 . S
C519 C520 1.408 . S
C519 H546 0.930 . S
C520 C515 1.348 . S
C520 C519 1.408 . S
C520 H547 0.930 . S
C521 O534 1.281 . S
C521 O535 1.254 . S
C522 O536 1.236 . S
C522 O537 1.266 . S
C523 Tb513 2.809 . S
C523 C524 1.514 . S
C523 O538 1.248 . S
C523 O539 1.266 . S
C524 C523 1.514 . S
C524 C525 1.359 . S
C524 C529 1.348 . S
C525 C524 1.359 . S
C525 C526 1.380 . S
C525 H548 0.929 . S
C526 C525 1.380 . S
C526 C527 1.347 . S
C526 H549 0.931 . S
C527 C526 1.347 . S
C527 C528 1.369 . S
C528 C527 1.369 . S
C528 C529 1.408 . S
C528 H550 0.930 . S
C529 C524 1.348 . S
C529 C528 1.408 . S
C529 H551 0.930 . S
C530 O540 1.281 . S
C530 O541 1.254 . S
C531 O542 1.236 . S
C531 O543 1.266 . S
O532 Tb512 2.484 . S
O532 C514 1.248 . S
O533 Tb512 2.440 . S
O533 C514 1.266 . S
O534 Tb512 2.658 . S
O534 Tb513 2.325 . S
O534 C521 1.281 . S
O535 Tb512 2.409 . S
O535 C521 1.254 . S
O536 Tb512 2.378 . S
O536 C522 1.236 . S
O537 Tb513 2.341 . S
O537 C522 1.266 . S
O538 Tb513 2.484 . S
O538 C523 1.248 . S
O539 Tb513 2.440 . S
O539 C523 1.266 . S
O540 Tb512 2.325 . S
O540 Tb513 2.658 . S
O540 C530 1.281 . S
O541 Tb513 2.409 . S
O541 C530 1.254 . S
O542 Tb513 2.378 . S
O542 C531 1.236 . S
O543 Tb512 2.341 . S
O543 C531 1.266 . S
H544 C516 0.929 . S
H545 C517 0.931 . S
H546 C519 0.930 . S
H547 C520 0.930 . S
H548 C525 0.929 . S
H549 C526 0.931 . S
H550 C528 0.930 . S
H551 C529 0.930 . S
Tb552 C554 2.809 1_545 S
Tb552 O572 2.484 1_545 S
Tb552 O573 2.440 . S
Tb552 O574 2.658 . S
Tb552 O575 2.409 . S
Tb552 O576 2.378 . S
Tb552 O580 2.325 1_545 S
Tb552 O583 2.341 . S
Tb553 C563 2.809 . S
Tb553 O574 2.325 . S
Tb553 O577 2.341 . S
Tb553 O578 2.484 . S
Tb553 O579 2.440 . S
Tb553 O580 2.658 1_545 S
Tb553 O581 2.409 1_545 S
Tb553 O582 2.378 . S
C554 Tb552 2.809 1_565 S
C554 C555 1.514 . S
C554 O572 1.248 . S
C554 O573 1.266 1_565 S
C555 C554 1.514 . S
C555 C556 1.359 . S
C555 C560 1.348 1_565 S
C556 C555 1.359 . S
C556 C557 1.380 . S
C556 H584 0.929 . S
C557 C556 1.380 . S
C557 C558 1.347 . S
C557 H585 0.931 . S
C558 C557 1.347 . S
C558 C559 1.369 . S
C559 C558 1.369 . S
C559 C560 1.408 1_565 S
C559 H586 0.930 1_565 S
C560 C555 1.348 1_545 S
C560 C559 1.408 1_545 S
C560 H587 0.930 . S
C561 O574 1.281 . S
C561 O575 1.254 . S
C562 O576 1.236 . S
C562 O577 1.266 . S
C563 Tb553 2.809 . S
C563 C564 1.514 . S
C563 O578 1.248 . S
C563 O579 1.266 . S
C564 C563 1.514 . S
C564 C565 1.359 . S
C564 C569 1.348 . S
C565 C564 1.359 . S
C565 C566 1.380 . S
C565 H588 0.929 . S
C566 C565 1.380 . S
C566 C567 1.347 . S
C566 H589 0.931 . S
C567 C566 1.347 . S
C567 C568 1.369 . S
C568 C567 1.369 . S
C568 C569 1.408 . S
C568 H590 0.930 . S
C569 C564 1.348 . S
C569 C568 1.408 . S
C569 H591 0.930 . S
C570 O580 1.281 . S
C570 O581 1.254 . S
C571 O582 1.236 . S
C571 O583 1.266 . S
O572 Tb552 2.484 1_565 S
O572 C554 1.248 . S
O573 Tb552 2.440 . S
O573 C554 1.266 1_545 S
O574 Tb552 2.658 . S
O574 Tb553 2.325 . S
O574 C561 1.281 . S
O575 Tb552 2.409 . S
O575 C561 1.254 . S
O576 Tb552 2.378 . S
O576 C562 1.236 . S
O577 Tb553 2.341 . S
O577 C562 1.266 . S
O578 Tb553 2.484 . S
O578 C563 1.248 . S
O579 Tb553 2.440 . S
O579 C563 1.266 . S
O580 Tb552 2.325 1_565 S
O580 Tb553 2.658 1_565 S
O580 C570 1.281 . S
O581 Tb553 2.409 1_565 S
O581 C570 1.254 . S
O582 Tb553 2.378 . S
O582 C571 1.236 . S
O583 Tb552 2.341 . S
O583 C571 1.266 . S
H584 C556 0.929 . S
H585 C557 0.931 . S
H586 C559 0.930 1_545 S
H587 C560 0.930 . S
H588 C565 0.929 . S
H589 C566 0.931 . S
H590 C568 0.930 . S
H591 C569 0.930 . S
Tb592 C594 2.809 . S
Tb592 O612 2.484 . S
Tb592 O613 2.440 . S
Tb592 O614 2.658 . S
Tb592 O615 2.409 . S
Tb592 O616 2.378 . S
Tb592 O620 2.325 . S
Tb592 O623 2.341 . S
Tb593 C603 2.809 . S
Tb593 O614 2.325 . S
Tb593 O617 2.341 . S
Tb593 O618 2.484 . S
Tb593 O619 2.440 . S
Tb593 O620 2.658 . S
Tb593 O621 2.409 . S
Tb593 O622 2.378 . S
C594 Tb592 2.809 . S
C594 C595 1.514 . S
C594 O612 1.248 . S
C594 O613 1.266 . S
C595 C594 1.514 . S
C595 C596 1.359 . S
C595 C600 1.348 . S
C596 C595 1.359 . S
C596 C597 1.380 . S
C596 H624 0.929 . S
C597 C596 1.380 . S
C597 C598 1.347 . S
C597 H625 0.931 . S
C598 C597 1.347 . S
C598 C599 1.369 . S
C599 C598 1.369 . S
C599 C600 1.408 . S
C599 H626 0.930 . S
C600 C595 1.348 . S
C600 C599 1.408 . S
C600 H627 0.930 . S
C601 O614 1.281 . S
C601 O615 1.254 . S
C602 O616 1.236 . S
C602 O617 1.266 . S
C603 Tb593 2.809 . S
C603 C604 1.514 . S
C603 O618 1.248 . S
C603 O619 1.266 . S
C604 C603 1.514 . S
C604 C605 1.359 . S
C604 C609 1.348 . S
C605 C604 1.359 . S
C605 C606 1.380 . S
C605 H628 0.929 . S
C606 C605 1.380 . S
C606 C607 1.347 . S
C606 H629 0.931 . S
C607 C606 1.347 . S
C607 C608 1.369 . S
C608 C607 1.369 . S
C608 C609 1.408 . S
C608 H630 0.930 . S
C609 C604 1.348 . S
C609 C608 1.408 . S
C609 H631 0.930 . S
C610 O620 1.281 . S
C610 O621 1.254 . S
C611 O622 1.236 . S
C611 O623 1.266 . S
O612 Tb592 2.484 . S
O612 C594 1.248 . S
O613 Tb592 2.440 . S
O613 C594 1.266 . S
O614 Tb592 2.658 . S
O614 Tb593 2.325 . S
O614 C601 1.281 . S
O615 Tb592 2.409 . S
O615 C601 1.254 . S
O616 Tb592 2.378 . S
O616 C602 1.236 . S
O617 Tb593 2.341 . S
O617 C602 1.266 . S
O618 Tb593 2.484 . S
O618 C603 1.248 . S
O619 Tb593 2.440 . S
O619 C603 1.266 . S
O620 Tb592 2.325 . S
O620 Tb593 2.658 . S
O620 C610 1.281 . S
O621 Tb593 2.409 . S
O621 C610 1.254 . S
O622 Tb593 2.378 . S
O622 C611 1.236 . S
O623 Tb592 2.341 . S
O623 C611 1.266 . S
H624 C596 0.929 . S
H625 C597 0.931 . S
H626 C599 0.930 . S
H627 C600 0.930 . S
H628 C605 0.929 . S
H629 C606 0.931 . S
H630 C608 0.930 . S
H631 C609 0.930 . S
Tb632 C634 2.809 . S
Tb632 O652 2.484 . S
Tb632 O653 2.440 . S
Tb632 O654 2.658 . S
Tb632 O655 2.409 . S
Tb632 O656 2.378 . S
Tb632 O660 2.325 . S
Tb632 O663 2.341 . S
Tb633 C643 2.809 . S
Tb633 O654 2.325 . S
Tb633 O657 2.341 . S
Tb633 O658 2.484 . S
Tb633 O659 2.440 . S
Tb633 O660 2.658 . S
Tb633 O661 2.409 . S
Tb633 O662 2.378 . S
C634 Tb632 2.809 . S
C634 C635 1.514 . S
C634 O652 1.248 . S
C634 O653 1.266 . S
C635 C634 1.514 . S
C635 C636 1.359 1_554 S
C635 C640 1.348 . S
C636 C635 1.359 1_556 S
C636 C637 1.380 . S
C636 H664 0.929 . S
C637 C636 1.380 . S
C637 C638 1.347 . S
C637 H665 0.931 . S
C638 C637 1.347 . S
C638 C639 1.369 . S
C639 C638 1.369 . S
C639 C640 1.408 1_556 S
C639 H666 0.930 . S
C640 C635 1.348 . S
C640 C639 1.408 1_554 S
C640 H667 0.930 . S
C641 O654 1.281 . S
C641 O655 1.254 . S
C642 O656 1.236 1_556 S
C642 O657 1.266 1_556 S
C643 Tb633 2.809 . S
C643 C644 1.514 . S
C643 O658 1.248 . S
C643 O659 1.266 . S
C644 C643 1.514 . S
C644 C645 1.359 . S
C644 C649 1.348 . S
C645 C644 1.359 . S
C645 C646 1.380 . S
C645 H668 0.929 . S
C646 C645 1.380 . S
C646 C647 1.347 . S
C646 H669 0.931 . S
C647 C646 1.347 . S
C647 C648 1.369 . S
C648 C647 1.369 . S
C648 C649 1.408 . S
C648 H670 0.930 . S
C649 C644 1.348 . S
C649 C648 1.408 . S
C649 H671 0.930 . S
C650 O660 1.281 . S
C650 O661 1.254 . S
C651 O662 1.236 . S
C651 O663 1.266 . S
O652 Tb632 2.484 . S
O652 C634 1.248 . S
O653 Tb632 2.440 . S
O653 C634 1.266 . S
O654 Tb632 2.658 . S
O654 Tb633 2.325 . S
O654 C641 1.281 . S
O655 Tb632 2.409 . S
O655 C641 1.254 . S
O656 Tb632 2.378 . S
O656 C642 1.236 1_554 S
O657 Tb633 2.341 . S
O657 C642 1.266 1_554 S
O658 Tb633 2.484 . S
O658 C643 1.248 . S
O659 Tb633 2.440 . S
O659 C643 1.266 . S
O660 Tb632 2.325 . S
O660 Tb633 2.658 . S
O660 C650 1.281 . S
O661 Tb633 2.409 . S
O661 C650 1.254 . S
O662 Tb633 2.378 . S
O662 C651 1.236 . S
O663 Tb632 2.341 . S
O663 C651 1.266 . S
H664 C636 0.929 . S
H665 C637 0.931 . S
H666 C639 0.930 . S
H667 C640 0.930 . S
H668 C645 0.929 . S
H669 C646 0.931 . S
H670 C648 0.930 . S
H671 C649 0.930 . S
Tb672 C674 2.809 . S
Tb672 O692 2.484 . S
Tb672 O693 2.440 . S
Tb672 O694 2.658 . S
Tb672 O695 2.409 . S
Tb672 O696 2.378 . S
Tb672 O700 2.325 . S
Tb672 O703 2.341 . S
Tb673 C683 2.809 . S
Tb673 O694 2.325 . S
Tb673 O697 2.341 . S
Tb673 O698 2.484 . S
Tb673 O699 2.440 . S
Tb673 O700 2.658 . S
Tb673 O701 2.409 . S
Tb673 O702 2.378 . S
C674 Tb672 2.809 . S
C674 C675 1.514 . S
C674 O692 1.248 . S
C674 O693 1.266 . S
C675 C674 1.514 . S
C675 C676 1.359 . S
C675 C680 1.348 . S
C676 C675 1.359 . S
C676 C677 1.380 . S
C676 H704 0.929 . S
C677 C676 1.380 . S
C677 C678 1.347 . S
C677 H705 0.931 . S
C678 C677 1.347 . S
C678 C679 1.369 . S
C679 C678 1.369 . S
C679 C680 1.408 . S
C679 H706 0.930 . S
C680 C675 1.348 . S
C680 C679 1.408 . S
C680 H707 0.930 . S
C681 O694 1.281 . S
C681 O695 1.254 . S
C682 O696 1.236 . S
C682 O697 1.266 . S
C683 Tb673 2.809 . S
C683 C684 1.514 . S
C683 O698 1.248 . S
C683 O699 1.266 . S
C684 C683 1.514 . S
C684 C685 1.359 . S
C684 C689 1.348 . S
C685 C684 1.359 . S
C685 C686 1.380 . S
C685 H708 0.929 . S
C686 C685 1.380 . S
C686 C687 1.347 . S
C686 H709 0.931 . S
C687 C686 1.347 . S
C687 C688 1.369 . S
C688 C687 1.369 . S
C688 C689 1.408 . S
C688 H710 0.930 . S
C689 C684 1.348 . S
C689 C688 1.408 . S
C689 H711 0.930 . S
C690 O700 1.281 . S
C690 O701 1.254 . S
C691 O702 1.236 . S
C691 O703 1.266 . S
O692 Tb672 2.484 . S
O692 C674 1.248 . S
O693 Tb672 2.440 . S
O693 C674 1.266 . S
O694 Tb672 2.658 . S
O694 Tb673 2.325 . S
O694 C681 1.281 . S
O695 Tb672 2.409 . S
O695 C681 1.254 . S
O696 Tb672 2.378 . S
O696 C682 1.236 . S
O697 Tb673 2.341 . S
O697 C682 1.266 . S
O698 Tb673 2.484 . S
O698 C683 1.248 . S
O699 Tb673 2.440 . S
O699 C683 1.266 . S
O700 Tb672 2.325 . S
O700 Tb673 2.658 . S
O700 C690 1.281 . S
O701 Tb673 2.409 . S
O701 C690 1.254 . S
O702 Tb673 2.378 . S
O702 C691 1.236 . S
O703 Tb672 2.341 . S
O703 C691 1.266 . S
H704 C676 0.929 . S
H705 C677 0.931 . S
H706 C679 0.930 . S
H707 C680 0.930 . S
H708 C685 0.929 . S
H709 C686 0.931 . S
H710 C688 0.930 . S
H711 C689 0.930 . S
Tb712 C714 2.809 1_455 S
Tb712 O732 2.484 1_455 S
Tb712 O733 2.440 1_455 S
Tb712 O734 2.658 . S
Tb712 O735 2.409 . S
Tb712 O736 2.378 . S
Tb712 O740 2.325 . S
Tb712 O743 2.341 . S
Tb713 C723 2.809 . S
Tb713 O734 2.325 . S
Tb713 O737 2.341 . S
Tb713 O738 2.484 . S
Tb713 O739 2.440 . S
Tb713 O740 2.658 . S
Tb713 O741 2.409 . S
Tb713 O742 2.378 . S
C714 Tb712 2.809 1_655 S
C714 C715 1.514 . S
C714 O732 1.248 . S
C714 O733 1.266 . S
C715 C714 1.514 . S
C715 C716 1.359 . S
C715 C720 1.348 . S
C716 C715 1.359 . S
C716 C717 1.380 . S
C716 H744 0.929 . S
C717 C716 1.380 . S
C717 C718 1.347 . S
C717 H745 0.931 . S
C718 C717 1.347 . S
C718 C719 1.369 . S
C719 C718 1.369 . S
C719 C720 1.408 . S
C719 H746 0.930 . S
C720 C715 1.348 . S
C720 C719 1.408 . S
C720 H747 0.930 . S
C721 O734 1.281 . S
C721 O735 1.254 . S
C722 O736 1.236 . S
C722 O737 1.266 . S
C723 Tb713 2.809 . S
C723 C724 1.514 . S
C723 O738 1.248 . S
C723 O739 1.266 . S
C724 C723 1.514 . S
C724 C725 1.359 . S
C724 C729 1.348 . S
C725 C724 1.359 . S
C725 C726 1.380 . S
C725 H748 0.929 . S
C726 C725 1.380 . S
C726 C727 1.347 . S
C726 H749 0.931 . S
C727 C726 1.347 . S
C727 C728 1.369 . S
C728 C727 1.369 . S
C728 C729 1.408 . S
C728 H750 0.930 . S
C729 C724 1.348 . S
C729 C728 1.408 . S
C729 H751 0.930 . S
C730 O740 1.281 . S
C730 O741 1.254 . S
C731 O742 1.236 . S
C731 O743 1.266 . S
O732 Tb712 2.484 1_655 S
O732 C714 1.248 . S
O733 Tb712 2.440 1_655 S
O733 C714 1.266 . S
O734 Tb712 2.658 . S
O734 Tb713 2.325 . S
O734 C721 1.281 . S
O735 Tb712 2.409 . S
O735 C721 1.254 . S
O736 Tb712 2.378 . S
O736 C722 1.236 . S
O737 Tb713 2.341 . S
O737 C722 1.266 . S
O738 Tb713 2.484 . S
O738 C723 1.248 . S
O739 Tb713 2.440 . S
O739 C723 1.266 . S
O740 Tb712 2.325 . S
O740 Tb713 2.658 . S
O740 C730 1.281 . S
O741 Tb713 2.409 . S
O741 C730 1.254 . S
O742 Tb713 2.378 . S
O742 C731 1.236 . S
O743 Tb712 2.341 . S
O743 C731 1.266 . S
H744 C716 0.929 . S
H745 C717 0.931 . S
H746 C719 0.930 . S
H747 C720 0.930 . S
H748 C725 0.929 . S
H749 C726 0.931 . S
H750 C728 0.930 . S
H751 C729 0.930 . S
Tb752 C754 2.809 . S
Tb752 O772 2.484 . S
Tb752 O773 2.440 . S
Tb752 O774 2.658 . S
Tb752 O775 2.409 . S
Tb752 O776 2.378 . S
Tb752 O780 2.325 . S
Tb752 O783 2.341 . S
Tb753 C763 2.809 . S
Tb753 O774 2.325 . S
Tb753 O777 2.341 . S
Tb753 O778 2.484 . S
Tb753 O779 2.440 . S
Tb753 O780 2.658 . S
Tb753 O781 2.409 . S
Tb753 O782 2.378 . S
C754 Tb752 2.809 . S
C754 C755 1.514 . S
C754 O772 1.248 . S
C754 O773 1.266 . S
C755 C754 1.514 . S
C755 C756 1.359 . S
C755 C760 1.348 . S
C756 C755 1.359 . S
C756 C757 1.380 . S
C756 H784 0.929 . S
C757 C756 1.380 . S
C757 C758 1.347 . S
C757 H785 0.931 . S
C758 C757 1.347 . S
C758 C759 1.369 . S
C759 C758 1.369 . S
C759 C760 1.408 . S
C759 H786 0.930 . S
C760 C755 1.348 . S
C760 C759 1.408 . S
C760 H787 0.930 . S
C761 O774 1.281 . S
C761 O775 1.254 . S
C762 O776 1.236 . S
C762 O777 1.266 . S
C763 Tb753 2.809 . S
C763 C764 1.514 . S
C763 O778 1.248 . S
C763 O779 1.266 . S
C764 C763 1.514 . S
C764 C765 1.359 . S
C764 C769 1.348 . S
C765 C764 1.359 . S
C765 C766 1.380 . S
C765 H788 0.929 . S
C766 C765 1.380 . S
C766 C767 1.347 . S
C766 H789 0.931 . S
C767 C766 1.347 . S
C767 C768 1.369 . S
C768 C767 1.369 . S
C768 C769 1.408 . S
C768 H790 0.930 . S
C769 C764 1.348 . S
C769 C768 1.408 . S
C769 H791 0.930 . S
C770 O780 1.281 . S
C770 O781 1.254 . S
C771 O782 1.236 . S
C771 O783 1.266 . S
O772 Tb752 2.484 . S
O772 C754 1.248 . S
O773 Tb752 2.440 . S
O773 C754 1.266 . S
O774 Tb752 2.658 . S
O774 Tb753 2.325 . S
O774 C761 1.281 . S
O775 Tb752 2.409 . S
O775 C761 1.254 . S
O776 Tb752 2.378 . S
O776 C762 1.236 . S
O777 Tb753 2.341 . S
O777 C762 1.266 . S
O778 Tb753 2.484 . S
O778 C763 1.248 . S
O779 Tb753 2.440 . S
O779 C763 1.266 . S
O780 Tb752 2.325 . S
O780 Tb753 2.658 . S
O780 C770 1.281 . S
O781 Tb753 2.409 . S
O781 C770 1.254 . S
O782 Tb753 2.378 . S
O782 C771 1.236 . S
O783 Tb752 2.341 . S
O783 C771 1.266 . S
H784 C756 0.929 . S
H785 C757 0.931 . S
H786 C759 0.930 . S
H787 C760 0.930 . S
H788 C765 0.929 . S
H789 C766 0.931 . S
H790 C768 0.930 . S
H791 C769 0.930 . S
Tb792 C794 2.809 . S
Tb792 O812 2.484 . S
Tb792 O813 2.440 . S
Tb792 O814 2.658 . S
Tb792 O815 2.409 . S
Tb792 O816 2.378 . S
Tb792 O820 2.325 . S
Tb792 O823 2.341 . S
Tb793 C803 2.809 . S
Tb793 O814 2.325 . S
Tb793 O817 2.341 . S
Tb793 O818 2.484 . S
Tb793 O819 2.440 . S
Tb793 O820 2.658 . S
Tb793 O821 2.409 . S
Tb793 O822 2.378 . S
C794 Tb792 2.809 . S
C794 C795 1.514 . S
C794 O812 1.248 . S
C794 O813 1.266 . S
C795 C794 1.514 . S
C795 C796 1.359 . S
C795 C800 1.348 . S
C796 C795 1.359 . S
C796 C797 1.380 . S
C796 H824 0.929 . S
C797 C796 1.380 . S
C797 C798 1.347 . S
C797 H825 0.931 . S
C798 C797 1.347 . S
C798 C799 1.369 . S
C799 C798 1.369 . S
C799 C800 1.408 . S
C799 H826 0.930 . S
C800 C795 1.348 . S
C800 C799 1.408 . S
C800 H827 0.930 . S
C801 O814 1.281 . S
C801 O815 1.254 . S
C802 O816 1.236 . S
C802 O817 1.266 . S
C803 Tb793 2.809 . S
C803 C804 1.514 . S
C803 O818 1.248 . S
C803 O819 1.266 . S
C804 C803 1.514 . S
C804 C805 1.359 . S
C804 C809 1.348 . S
C805 C804 1.359 . S
C805 C806 1.380 . S
C805 H828 0.929 . S
C806 C805 1.380 . S
C806 C807 1.347 . S
C806 H829 0.931 . S
C807 C806 1.347 . S
C807 C808 1.369 . S
C808 C807 1.369 . S
C808 C809 1.408 . S
C808 H830 0.930 . S
C809 C804 1.348 . S
C809 C808 1.408 . S
C809 H831 0.930 . S
C810 O820 1.281 . S
C810 O821 1.254 . S
C811 O822 1.236 . S
C811 O823 1.266 . S
O812 Tb792 2.484 . S
O812 C794 1.248 . S
O813 Tb792 2.440 . S
O813 C794 1.266 . S
O814 Tb792 2.658 . S
O814 Tb793 2.325 . S
O814 C801 1.281 . S
O815 Tb792 2.409 . S
O815 C801 1.254 . S
O816 Tb792 2.378 . S
O816 C802 1.236 . S
O817 Tb793 2.341 . S
O817 C802 1.266 . S
O818 Tb793 2.484 . S
O818 C803 1.248 . S
O819 Tb793 2.440 . S
O819 C803 1.266 . S
O820 Tb792 2.325 . S
O820 Tb793 2.658 . S
O820 C810 1.281 . S
O821 Tb793 2.409 . S
O821 C810 1.254 . S
O822 Tb793 2.378 . S
O822 C811 1.236 . S
O823 Tb792 2.341 . S
O823 C811 1.266 . S
H824 C796 0.929 . S
H825 C797 0.931 . S
H826 C799 0.930 . S
H827 C800 0.930 . S
H828 C805 0.929 . S
H829 C806 0.931 . S
H830 C808 0.930 . S
H831 C809 0.930 . S
Tb832 C834 2.809 . S
Tb832 O852 2.484 . S
Tb832 O853 2.440 . S
Tb832 O854 2.658 . S
Tb832 O855 2.409 . S
Tb832 O856 2.378 . S
Tb832 O860 2.325 . S
Tb832 O863 2.341 . S
Tb833 C843 2.809 . S
Tb833 O854 2.325 . S
Tb833 O857 2.341 . S
Tb833 O858 2.484 . S
Tb833 O859 2.440 . S
Tb833 O860 2.658 . S
Tb833 O861 2.409 . S
Tb833 O862 2.378 . S
C834 Tb832 2.809 . S
C834 C835 1.514 . S
C834 O852 1.248 . S
C834 O853 1.266 . S
C835 C834 1.514 . S
C835 C836 1.359 . S
C835 C840 1.348 . S
C836 C835 1.359 . S
C836 C837 1.380 . S
C836 H864 0.929 . S
C837 C836 1.380 . S
C837 C838 1.347 . S
C837 H865 0.931 . S
C838 C837 1.347 . S
C838 C839 1.369 . S
C839 C838 1.369 . S
C839 C840 1.408 . S
C839 H866 0.930 . S
C840 C835 1.348 . S
C840 C839 1.408 . S
C840 H867 0.930 . S
C841 O854 1.281 . S
C841 O855 1.254 . S
C842 O856 1.236 . S
C842 O857 1.266 . S
C843 Tb833 2.809 . S
C843 C844 1.514 . S
C843 O858 1.248 . S
C843 O859 1.266 . S
C844 C843 1.514 . S
C844 C845 1.359 . S
C844 C849 1.348 . S
C845 C844 1.359 . S
C845 C846 1.380 . S
C845 H868 0.929 . S
C846 C845 1.380 . S
C846 C847 1.347 . S
C846 H869 0.931 . S
C847 C846 1.347 . S
C847 C848 1.369 . S
C848 C847 1.369 . S
C848 C849 1.408 . S
C848 H870 0.930 . S
C849 C844 1.348 . S
C849 C848 1.408 . S
C849 H871 0.930 . S
C850 O860 1.281 . S
C850 O861 1.254 . S
C851 O862 1.236 . S
C851 O863 1.266 . S
O852 Tb832 2.484 . S
O852 C834 1.248 . S
O853 Tb832 2.440 . S
O853 C834 1.266 . S
O854 Tb832 2.658 . S
O854 Tb833 2.325 . S
O854 C841 1.281 . S
O855 Tb832 2.409 . S
O855 C841 1.254 . S
O856 Tb832 2.378 . S
O856 C842 1.236 . S
O857 Tb833 2.341 . S
O857 C842 1.266 . S
O858 Tb833 2.484 . S
O858 C843 1.248 . S
O859 Tb833 2.440 . S
O859 C843 1.266 . S
O860 Tb832 2.325 . S
O860 Tb833 2.658 . S
O860 C850 1.281 . S
O861 Tb833 2.409 . S
O861 C850 1.254 . S
O862 Tb833 2.378 . S
O862 C851 1.236 . S
O863 Tb832 2.341 . S
O863 C851 1.266 . S
H864 C836 0.929 . S
H865 C837 0.931 . S
H866 C839 0.930 . S
H867 C840 0.930 . S
H868 C845 0.929 . S
H869 C846 0.931 . S
H870 C848 0.930 . S
H871 C849 0.930 . S
Tb872 C874 2.809 . S
Tb872 O892 2.484 . S
Tb872 O893 2.440 . S
Tb872 O894 2.658 . S
Tb872 O895 2.409 . S
Tb872 O896 2.378 . S
Tb872 O900 2.325 . S
Tb872 O903 2.341 . S
Tb873 C883 2.809 . S
Tb873 O894 2.325 . S
Tb873 O897 2.341 . S
Tb873 O898 2.484 . S
Tb873 O899 2.440 . S
Tb873 O900 2.658 . S
Tb873 O901 2.409 . S
Tb873 O902 2.378 . S
C874 Tb872 2.809 . S
C874 C875 1.514 . S
C874 O892 1.248 . S
C874 O893 1.266 . S
C875 C874 1.514 . S
C875 C876 1.359 . S
C875 C880 1.348 . S
C876 C875 1.359 . S
C876 C877 1.380 . S
C876 H904 0.929 . S
C877 C876 1.380 . S
C877 C878 1.347 . S
C877 H905 0.931 . S
C878 C877 1.347 . S
C878 C879 1.369 . S
C879 C878 1.369 . S
C879 C880 1.408 . S
C879 H906 0.930 . S
C880 C875 1.348 . S
C880 C879 1.408 . S
C880 H907 0.930 . S
C881 O894 1.281 . S
C881 O895 1.254 . S
C882 O896 1.236 . S
C882 O897 1.266 . S
C883 Tb873 2.809 . S
C883 C884 1.514 . S
C883 O898 1.248 . S
C883 O899 1.266 . S
C884 C883 1.514 . S
C884 C885 1.359 . S
C884 C889 1.348 . S
C885 C884 1.359 . S
C885 C886 1.380 . S
C885 H908 0.929 . S
C886 C885 1.380 . S
C886 C887 1.347 . S
C886 H909 0.931 . S
C887 C886 1.347 . S
C887 C888 1.369 . S
C888 C887 1.369 . S
C888 C889 1.408 . S
C888 H910 0.930 . S
C889 C884 1.348 . S
C889 C888 1.408 . S
C889 H911 0.930 . S
C890 O900 1.281 . S
C890 O901 1.254 . S
C891 O902 1.236 . S
C891 O903 1.266 . S
O892 Tb872 2.484 . S
O892 C874 1.248 . S
O893 Tb872 2.440 . S
O893 C874 1.266 . S
O894 Tb872 2.658 . S
O894 Tb873 2.325 . S
O894 C881 1.281 . S
O895 Tb872 2.409 . S
O895 C881 1.254 . S
O896 Tb872 2.378 . S
O896 C882 1.236 . S
O897 Tb873 2.341 . S
O897 C882 1.266 . S
O898 Tb873 2.484 . S
O898 C883 1.248 . S
O899 Tb873 2.440 . S
O899 C883 1.266 . S
O900 Tb872 2.325 . S
O900 Tb873 2.658 . S
O900 C890 1.281 . S
O901 Tb873 2.409 . S
O901 C890 1.254 . S
O902 Tb873 2.378 . S
O902 C891 1.236 . S
O903 Tb872 2.341 . S
O903 C891 1.266 . S
H904 C876 0.929 . S
H905 C877 0.931 . S
H906 C879 0.930 . S
H907 C880 0.930 . S
H908 C885 0.929 . S
H909 C886 0.931 . S
H910 C888 0.930 . S
H911 C889 0.930 . S
Tb912 C914 2.809 . S
Tb912 O932 2.484 . S
Tb912 O933 2.440 . S
Tb912 O934 2.658 . S
Tb912 O935 2.409 1_554 S
Tb912 O936 2.378 . S
Tb912 O940 2.325 . S
Tb912 O943 2.341 . S
Tb913 C923 2.809 1_455 S
Tb913 O934 2.325 . S
Tb913 O937 2.341 . S
Tb913 O938 2.484 1_455 S
Tb913 O939 2.440 1_455 S
Tb913 O940 2.658 . S
Tb913 O941 2.409 . S
Tb913 O942 2.378 . S
C914 Tb912 2.809 . S
C914 C915 1.514 . S
C914 O932 1.248 . S
C914 O933 1.266 . S
C915 C914 1.514 . S
C915 C916 1.359 . S
C915 C920 1.348 1_554 S
C916 C915 1.359 . S
C916 C917 1.380 . S
C916 H944 0.929 . S
C917 C916 1.380 . S
C917 C918 1.347 . S
C917 H945 0.931 . S
C918 C917 1.347 . S
C918 C919 1.369 1_554 S
C919 C918 1.369 1_556 S
C919 C920 1.408 . S
C919 H946 0.930 . S
C920 C915 1.348 1_556 S
C920 C919 1.408 . S
C920 H947 0.930 . S
C921 O934 1.281 1_556 S
C921 O935 1.254 . S
C922 O936 1.236 . S
C922 O937 1.266 . S
C923 Tb913 2.809 1_655 S
C923 C924 1.514 . S
C923 O938 1.248 . S
C923 O939 1.266 . S
C924 C923 1.514 . S
C924 C925 1.359 . S
C924 C929 1.348 . S
C925 C924 1.359 . S
C925 C926 1.380 . S
C925 H948 0.929 . S
C926 C925 1.380 . S
C926 C927 1.347 . S
C926 H949 0.931 . S
C927 C926 1.347 . S
C927 C928 1.369 . S
C928 C927 1.369 . S
C928 C929 1.408 . S
C928 H950 0.930 . S
C929 C924 1.348 . S
C929 C928 1.408 . S
C929 H951 0.930 . S
C930 O940 1.281 . S
C930 O941 1.254 . S
C931 O942 1.236 . S
C931 O943 1.266 . S
O932 Tb912 2.484 . S
O932 C914 1.248 . S
O933 Tb912 2.440 . S
O933 C914 1.266 . S
O934 Tb912 2.658 . S
O934 Tb913 2.325 . S
O934 C921 1.281 1_554 S
O935 Tb912 2.409 1_556 S
O935 C921 1.254 . S
O936 Tb912 2.378 . S
O936 C922 1.236 . S
O937 Tb913 2.341 . S
O937 C922 1.266 . S
O938 Tb913 2.484 1_655 S
O938 C923 1.248 . S
O939 Tb913 2.440 1_655 S
O939 C923 1.266 . S
O940 Tb912 2.325 . S
O940 Tb913 2.658 . S
O940 C930 1.281 . S
O941 Tb913 2.409 . S
O941 C930 1.254 . S
O942 Tb913 2.378 . S
O942 C931 1.236 . S
O943 Tb912 2.341 . S
O943 C931 1.266 . S
H944 C916 0.929 . S
H945 C917 0.931 . S
H946 C919 0.930 . S
H947 C920 0.930 . S
H948 C925 0.929 . S
H949 C926 0.931 . S
H950 C928 0.930 . S
H951 C929 0.930 . S
H952 C960 0.950 . S
H953 C965 0.950 . S
H954 C962 0.950 . S
H955 C964 0.950 . S
H956 C966 0.950 . S
H957 C968 0.950 . S
H958 C970 0.950 . S
H959 C971 0.950 1_556 S
C960 H952 0.950 . S
C960 C961 1.386 . S
C960 C962 1.391 . S
C961 C960 1.386 . S
C961 C965 1.393 1_556 S
C962 H954 0.950 . S
C962 C960 1.391 . S
C962 C963 1.400 1_556 S
C963 C962 1.400 1_554 S
C963 C964 1.398 . S
C963 C969 1.491 . S
C964 H955 0.950 . S
C964 C963 1.398 . S
C964 C965 1.391 . S
C965 H953 0.950 . S
C965 C961 1.393 1_554 S
C965 C964 1.391 . S
C966 H956 0.950 . S
C966 C967 1.386 . S
C966 C968 1.391 . S
C967 C966 1.386 . S
C967 C971 1.393 . S
C968 H957 0.950 . S
C968 C966 1.391 . S
C968 C969 1.400 . S
C969 C963 1.491 . S
C969 C968 1.400 . S
C969 C970 1.398 1_554 S
C970 H958 0.950 . S
C970 C969 1.398 1_556 S
C970 C971 1.391 1_556 S
C971 H959 0.950 1_554 S
C971 C967 1.393 . S
C971 C970 1.391 1_554 S
H972 C980 0.950 . S
H973 C985 0.950 . S
H974 C982 0.950 . S
H975 C984 0.950 . S
H976 C986 0.950 . S
H977 C988 0.950 . S
H978 C990 0.950 . S
H979 C991 0.950 . S
C980 H972 0.950 . S
C980 C981 1.386 . S
C980 C982 1.391 . S
C981 C980 1.386 . S
C981 C985 1.393 . S
C982 H974 0.950 . S
C982 C980 1.391 . S
C982 C983 1.400 . S
C983 C982 1.400 . S
C983 C984 1.398 . S
C983 C989 1.491 . S
C984 H975 0.950 . S
C984 C983 1.398 . S
C984 C985 1.391 . S
C985 H973 0.950 . S
C985 C981 1.393 . S
C985 C984 1.391 . S
C986 H976 0.950 . S
C986 C987 1.386 . S
C986 C988 1.391 . S
C987 C986 1.386 . S
C987 C991 1.393 . S
C988 H977 0.950 . S
C988 C986 1.391 . S
C988 C989 1.400 . S
C989 C983 1.491 . S
C989 C988 1.400 . S
C989 C990 1.398 . S
C990 H978 0.950 . S
C990 C989 1.398 . S
C990 C991 1.391 . S
C991 H979 0.950 . S
C991 C987 1.393 . S
C991 C990 1.391 . S
H992 C1000 0.950 . S
H993 C1005 0.950 . S
H994 C1002 0.950 . S
H995 C1004 0.950 . S
H996 C1006 0.950 . S
H997 C1008 0.950 . S
H998 C1010 0.950 . S
H999 C1011 0.950 . S
C1000 H992 0.950 . S
C1000 C1001 1.386 . S
C1000 C1002 1.391 . S
C1001 C1000 1.386 . S
C1001 C1005 1.393 . S
C1002 H994 0.950 . S
C1002 C1000 1.391 . S
C1002 C1003 1.400 . S
C1003 C1002 1.400 . S
C1003 C1004 1.398 . S
C1003 C1009 1.491 . S
C1004 H995 0.950 . S
C1004 C1003 1.398 . S
C1004 C1005 1.391 . S
C1005 H993 0.950 . S
C1005 C1001 1.393 . S
C1005 C1004 1.391 . S
C1006 H996 0.950 . S
C1006 C1007 1.386 . S
C1006 C1008 1.391 . S
C1007 C1006 1.386 . S
C1007 C1011 1.393 . S
C1008 H997 0.950 . S
C1008 C1006 1.391 . S
C1008 C1009 1.400 . S
C1009 C1003 1.491 . S
C1009 C1008 1.400 . S
C1009 C1010 1.398 . S
C1010 H998 0.950 . S
C1010 C1009 1.398 . S
C1010 C1011 1.391 . S
C1011 H999 0.950 . S
C1011 C1007 1.393 . S
C1011 C1010 1.391 . S
H1012 C1020 0.950 . S
H1013 C1025 0.950 . S
H1014 C1022 0.950 . S
H1015 C1024 0.950 . S
H1016 C1026 0.950 . S
H1017 C1028 0.950 . S
H1018 C1030 0.950 . S
H1019 C1031 0.950 . S
C1020 H1012 0.950 . S
C1020 C1021 1.386 . S
C1020 C1022 1.391 . S
C1021 C1020 1.386 . S
C1021 C1025 1.393 . S
C1022 H1014 0.950 . S
C1022 C1020 1.391 . S
C1022 C1023 1.400 . S
C1023 C1022 1.400 . S
C1023 C1024 1.398 . S
C1023 C1029 1.491 . S
C1024 H1015 0.950 . S
C1024 C1023 1.398 . S
C1024 C1025 1.391 . S
C1025 H1013 0.950 . S
C1025 C1021 1.393 . S
C1025 C1024 1.391 . S
C1026 H1016 0.950 . S
C1026 C1027 1.386 . S
C1026 C1028 1.391 . S
C1027 C1026 1.386 . S
C1027 C1031 1.393 . S
C1028 H1017 0.950 . S
C1028 C1026 1.391 . S
C1028 C1029 1.400 . S
C1029 C1023 1.491 . S
C1029 C1028 1.400 . S
C1029 C1030 1.398 . S
C1030 H1018 0.950 . S
C1030 C1029 1.398 . S
C1030 C1031 1.391 . S
C1031 H1019 0.950 . S
C1031 C1027 1.393 . S
C1031 C1030 1.391 . S
H1032 C1040 0.950 . S
H1033 C1045 0.950 . S
H1034 C1042 0.950 . S
H1035 C1044 0.950 . S
H1036 C1046 0.950 . S
H1037 C1048 0.950 . S
H1038 C1050 0.950 . S
H1039 C1051 0.950 . S
C1040 H1032 0.950 . S
C1040 C1041 1.386 . S
C1040 C1042 1.391 . S
C1041 C1040 1.386 . S
C1041 C1045 1.393 . S
C1042 H1034 0.950 . S
C1042 C1040 1.391 . S
C1042 C1043 1.400 . S
C1043 C1042 1.400 . S
C1043 C1044 1.398 . S
C1043 C1049 1.491 . S
C1044 H1035 0.950 . S
C1044 C1043 1.398 . S
C1044 C1045 1.391 . S
C1045 H1033 0.950 . S
C1045 C1041 1.393 . S
C1045 C1044 1.391 . S
C1046 H1036 0.950 . S
C1046 C1047 1.386 . S
C1046 C1048 1.391 . S
C1047 C1046 1.386 . S
C1047 C1051 1.393 . S
C1048 H1037 0.950 . S
C1048 C1046 1.391 . S
C1048 C1049 1.400 . S
C1049 C1043 1.491 . S
C1049 C1048 1.400 . S
C1049 C1050 1.398 . S
C1050 H1038 0.950 . S
C1050 C1049 1.398 . S
C1050 C1051 1.391 . S
C1051 H1039 0.950 . S
C1051 C1047 1.393 . S
C1051 C1050 1.391 . S
H1052 C1060 0.950 . S
H1053 C1065 0.950 . S
H1054 C1062 0.950 . S
H1055 C1064 0.950 . S
H1056 C1066 0.950 . S
H1057 C1068 0.950 . S
H1058 C1070 0.950 . S
H1059 C1071 0.950 . S
C1060 H1052 0.950 . S
C1060 C1061 1.386 . S
C1060 C1062 1.391 . S
C1061 C1060 1.386 . S
C1061 C1065 1.393 . S
C1062 H1054 0.950 . S
C1062 C1060 1.391 . S
C1062 C1063 1.400 . S
C1063 C1062 1.400 . S
C1063 C1064 1.398 . S
C1063 C1069 1.491 . S
C1064 H1055 0.950 . S
C1064 C1063 1.398 . S
C1064 C1065 1.391 . S
C1065 H1053 0.950 . S
C1065 C1061 1.393 . S
C1065 C1064 1.391 . S
C1066 H1056 0.950 . S
C1066 C1067 1.386 . S
C1066 C1068 1.391 . S
C1067 C1066 1.386 . S
C1067 C1071 1.393 . S
C1068 H1057 0.950 . S
C1068 C1066 1.391 . S
C1068 C1069 1.400 . S
C1069 C1063 1.491 . S
C1069 C1068 1.400 . S
C1069 C1070 1.398 . S
C1070 H1058 0.950 . S
C1070 C1069 1.398 . S
C1070 C1071 1.391 . S
C1071 H1059 0.950 . S
C1071 C1067 1.393 . S
C1071 C1070 1.391 . S
H1072 C1080 0.950 . S
H1073 C1085 0.950 . S
H1074 C1082 0.950 . S
H1075 C1084 0.950 . S
H1076 C1086 0.950 . S
H1077 C1088 0.950 . S
H1078 C1090 0.950 . S
H1079 C1091 0.950 . S
C1080 H1072 0.950 . S
C1080 C1081 1.386 . S
C1080 C1082 1.391 . S
C1081 C1080 1.386 . S
C1081 C1085 1.393 . S
C1082 H1074 0.950 . S
C1082 C1080 1.391 . S
C1082 C1083 1.400 . S
C1083 C1082 1.400 . S
C1083 C1084 1.398 . S
C1083 C1089 1.491 . S
C1084 H1075 0.950 . S
C1084 C1083 1.398 . S
C1084 C1085 1.391 . S
C1085 H1073 0.950 . S
C1085 C1081 1.393 . S
C1085 C1084 1.391 . S
C1086 H1076 0.950 . S
C1086 C1087 1.386 . S
C1086 C1088 1.391 . S
C1087 C1086 1.386 . S
C1087 C1091 1.393 . S
C1088 H1077 0.950 . S
C1088 C1086 1.391 . S
C1088 C1089 1.400 . S
C1089 C1083 1.491 . S
C1089 C1088 1.400 . S
C1089 C1090 1.398 . S
C1090 H1078 0.950 . S
C1090 C1089 1.398 . S
C1090 C1091 1.391 . S
C1091 H1079 0.950 . S
C1091 C1087 1.393 . S
C1091 C1090 1.391 . S
H1092 C1100 0.950 . S
H1093 C1105 0.950 . S
H1094 C1102 0.950 . S
H1095 C1104 0.950 . S
H1096 C1106 0.950 . S
H1097 C1108 0.950 . S
H1098 C1110 0.950 . S
H1099 C1111 0.950 . S
C1100 H1092 0.950 . S
C1100 C1101 1.386 . S
C1100 C1102 1.391 . S
C1101 C1100 1.386 . S
C1101 C1105 1.393 . S
C1102 H1094 0.950 . S
C1102 C1100 1.391 . S
C1102 C1103 1.400 . S
C1103 C1102 1.400 . S
C1103 C1104 1.398 . S
C1103 C1109 1.491 . S
C1104 H1095 0.950 . S
C1104 C1103 1.398 . S
C1104 C1105 1.391 . S
C1105 H1093 0.950 . S
C1105 C1101 1.393 . S
C1105 C1104 1.391 . S
C1106 H1096 0.950 . S
C1106 C1107 1.386 . S
C1106 C1108 1.391 . S
C1107 C1106 1.386 . S
C1107 C1111 1.393 . S
C1108 H1097 0.950 . S
C1108 C1106 1.391 . S
C1108 C1109 1.400 . S
C1109 C1103 1.491 . S
C1109 C1108 1.400 . S
C1109 C1110 1.398 . S
C1110 H1098 0.950 . S
C1110 C1109 1.398 . S
C1110 C1111 1.391 . S
C1111 H1099 0.950 . S
C1111 C1107 1.393 . S
C1111 C1110 1.391 . S
H1112 C1120 0.950 . S
H1113 C1125 0.950 . S
H1114 C1122 0.950 . S
H1115 C1124 0.950 . S
H1116 C1126 0.950 . S
H1117 C1128 0.950 . S
H1118 C1130 0.950 . S
H1119 C1131 0.950 . S
C1120 H1112 0.950 . S
C1120 C1121 1.386 1_565 S
C1120 C1122 1.391 . S
C1121 C1120 1.386 1_545 S
C1121 C1125 1.393 . S
C1122 H1114 0.950 . S
C1122 C1120 1.391 . S
C1122 C1123 1.400 1_565 S
C1123 C1122 1.400 1_545 S
C1123 C1124 1.398 . S
C1123 C1129 1.491 . S
C1124 H1115 0.950 . S
C1124 C1123 1.398 . S
C1124 C1125 1.391 . S
C1125 H1113 0.950 . S
C1125 C1121 1.393 . S
C1125 C1124 1.391 . S
C1126 H1116 0.950 . S
C1126 C1127 1.386 . S
C1126 C1128 1.391 . S
C1127 C1126 1.386 . S
C1127 C1131 1.393 1_545 S
C1128 H1117 0.950 . S
C1128 C1126 1.391 . S
C1128 C1129 1.400 1_455 S
C1129 C1123 1.491 . S
C1129 C1128 1.400 1_655 S
C1129 C1130 1.398 1_545 S
C1130 H1118 0.950 . S
C1130 C1129 1.398 1_565 S
C1130 C1131 1.391 1_655 S
C1131 H1119 0.950 . S
C1131 C1127 1.393 1_565 S
C1131 C1130 1.391 1_455 S
H1132 C1140 0.950 . S
H1133 C1145 0.950 . S
H1134 C1142 0.950 . S
H1135 C1144 0.950 . S
H1136 C1146 0.950 . S
H1137 C1148 0.950 . S
H1138 C1150 0.950 . S
H1139 C1151 0.950 . S
C1140 H1132 0.950 . S
C1140 C1141 1.386 . S
C1140 C1142 1.391 . S
C1141 C1140 1.386 . S
C1141 C1145 1.393 . S
C1142 H1134 0.950 . S
C1142 C1140 1.391 . S
C1142 C1143 1.400 . S
C1143 C1142 1.400 . S
C1143 C1144 1.398 . S
C1143 C1149 1.491 . S
C1144 H1135 0.950 . S
C1144 C1143 1.398 . S
C1144 C1145 1.391 . S
C1145 H1133 0.950 . S
C1145 C1141 1.393 . S
C1145 C1144 1.391 . S
C1146 H1136 0.950 . S
C1146 C1147 1.386 . S
C1146 C1148 1.391 . S
C1147 C1146 1.386 . S
C1147 C1151 1.393 . S
C1148 H1137 0.950 . S
C1148 C1146 1.391 . S
C1148 C1149 1.400 . S
C1149 C1143 1.491 . S
C1149 C1148 1.400 . S
C1149 C1150 1.398 . S
C1150 H1138 0.950 . S
C1150 C1149 1.398 . S
C1150 C1151 1.391 . S
C1151 H1139 0.950 . S
C1151 C1147 1.393 . S
C1151 C1150 1.391 . S
H1152 C1160 0.950 . S
H1153 C1165 0.975 . S
H1154 C1162 0.950 . S
H1155 C1164 0.934 1_565 S
H1156 C1166 0.950 1_565 S
H1157 C1168 0.950 1_565 S
H1158 C1170 0.950 . S
H1159 C1171 0.950 . S
C1160 H1152 0.950 . S
C1160 C1161 1.386 . S
C1160 C1162 1.391 . S
C1161 C1160 1.386 . S
C1161 C1165 1.378 1_545 S
C1162 H1154 0.950 . S
C1162 C1160 1.391 . S
C1162 C1163 1.400 . S
C1163 C1162 1.400 . S
C1163 C1164 1.426 . S
C1163 C1169 1.491 . S
C1164 H1155 0.934 1_545 S
C1164 C1163 1.426 . S
C1164 C1165 1.371 1_545 S
C1165 H1153 0.975 . S
C1165 C1161 1.378 1_565 S
C1165 C1164 1.371 1_565 S
C1166 H1156 0.950 1_545 S
C1166 C1167 1.386 . S
C1166 C1168 1.391 . S
C1167 C1166 1.386 . S
C1167 C1171 1.393 . S
C1168 H1157 0.950 1_545 S
C1168 C1166 1.391 . S
C1168 C1169 1.400 . S
C1169 C1163 1.491 . S
C1169 C1168 1.400 . S
C1169 C1170 1.398 . S
C1170 H1158 0.950 . S
C1170 C1169 1.398 . S
C1170 C1171 1.391 . S
C1171 H1159 0.950 . S
C1171 C1167 1.393 . S
C1171 C1170 1.391 . S
H1172 C1180 0.950 . S
H1173 C1185 0.950 . S
H1174 C1182 0.950 . S
H1175 C1184 0.950 . S
H1176 C1186 0.950 . S
H1177 C1188 0.950 . S
H1178 C1190 0.950 . S
H1179 C1191 0.950 . S
C1180 H1172 0.950 . S
C1180 C1181 1.386 . S
C1180 C1182 1.391 . S
C1181 C1180 1.386 . S
C1181 C1185 1.393 . S
C1182 H1174 0.950 . S
C1182 C1180 1.391 . S
C1182 C1183 1.400 . S
C1183 C1182 1.400 . S
C1183 C1184 1.398 . S
C1183 C1189 1.491 . S
C1184 H1175 0.950 . S
C1184 C1183 1.398 . S
C1184 C1185 1.391 . S
C1185 H1173 0.950 . S
C1185 C1181 1.393 . S
C1185 C1184 1.391 . S
C1186 H1176 0.950 . S
C1186 C1187 1.386 . S
C1186 C1188 1.391 . S
C1187 C1186 1.386 . S
C1187 C1191 1.393 . S
C1188 H1177 0.950 . S
C1188 C1186 1.391 . S
C1188 C1189 1.400 . S
C1189 C1183 1.491 . S
C1189 C1188 1.400 . S
C1189 C1190 1.398 . S
C1190 H1178 0.950 . S
C1190 C1189 1.398 . S
C1190 C1191 1.391 . S
C1191 H1179 0.950 . S
C1191 C1187 1.393 . S
C1191 C1190 1.391 . S
H1192 C1200 0.950 . S
H1193 C1205 0.950 . S
H1194 C1202 0.950 1_455 S
H1195 C1204 0.950 . S
H1196 C1206 0.950 1_565 S
H1197 C1208 0.943 1_565 S
H1198 C1210 0.950 . S
H1199 C1211 0.950 . S
C1200 H1192 0.950 . S
C1200 C1201 1.386 . S
C1200 C1202 1.391 . S
C1201 C1200 1.386 . S
C1201 C1205 1.393 1_545 S
C1202 H1194 0.950 1_655 S
C1202 C1200 1.391 . S
C1202 C1203 1.400 . S
C1203 C1202 1.400 . S
C1203 C1204 1.398 1_545 S
C1203 C1209 1.491 . S
C1204 H1195 0.950 . S
C1204 C1203 1.398 1_565 S
C1204 C1205 1.391 . S
C1205 H1193 0.950 . S
C1205 C1201 1.393 1_565 S
C1205 C1204 1.391 . S
C1206 H1196 0.950 1_545 S
C1206 C1207 1.386 1_655 S
C1206 C1208 1.389 . S
C1207 C1206 1.386 1_455 S
C1207 C1211 1.393 . S
C1208 H1197 0.943 1_545 S
C1208 C1206 1.389 . S
C1208 C1209 1.410 . S
C1209 C1203 1.491 . S
C1209 C1208 1.410 . S
C1209 C1210 1.398 1_655 S
C1210 H1198 0.950 . S
C1210 C1209 1.398 1_455 S
C1210 C1211 1.391 . S
C1211 H1199 0.950 . S
C1211 C1207 1.393 . S
C1211 C1210 1.391 . S
H1212 C1220 0.950 . S
H1213 C1225 0.950 . S
H1214 C1222 0.950 . S
H1215 C1224 0.950 . S
H1216 C1226 0.950 . S
H1217 C1228 0.950 . S
H1218 C1230 0.950 . S
H1219 C1231 0.950 . S
C1220 H1212 0.950 . S
C1220 C1221 1.386 . S
C1220 C1222 1.391 . S
C1221 C1220 1.386 . S
C1221 C1225 1.393 . S
C1222 H1214 0.950 . S
C1222 C1220 1.391 . S
C1222 C1223 1.400 . S
C1223 C1222 1.400 . S
C1223 C1224 1.398 . S
C1223 C1229 1.491 . S
C1224 H1215 0.950 . S
C1224 C1223 1.398 . S
C1224 C1225 1.391 . S
C1225 H1213 0.950 . S
C1225 C1221 1.393 . S
C1225 C1224 1.391 . S
C1226 H1216 0.950 . S
C1226 C1227 1.386 . S
C1226 C1228 1.391 . S
C1227 C1226 1.386 . S
C1227 C1231 1.393 . S
C1228 H1217 0.950 . S
C1228 C1226 1.391 . S
C1228 C1229 1.400 . S
C1229 C1223 1.491 . S
C1229 C1228 1.400 . S
C1229 C1230 1.398 . S
C1230 H1218 0.950 . S
C1230 C1229 1.398 . S
C1230 C1231 1.391 . S
C1231 H1219 0.950 . S
C1231 C1227 1.393 . S
C1231 C1230 1.391 . S
H1232 C1240 0.950 1_565 S
H1233 C1245 0.950 . S
H1234 C1242 0.950 1_565 S
H1235 C1244 0.950 . S
H1236 C1246 0.950 . S
H1237 C1248 0.950 . S
H1238 C1250 0.950 1_565 S
H1239 C1251 0.950 1_565 S
C1240 H1232 0.950 1_545 S
C1240 C1241 1.386 . S
C1240 C1242 1.391 . S
C1241 C1240 1.386 . S
C1241 C1245 1.393 . S
C1242 H1234 0.950 1_545 S
C1242 C1240 1.391 . S
C1242 C1243 1.400 . S
C1243 C1242 1.400 . S
C1243 C1244 1.398 . S
C1243 C1249 1.491 . S
C1244 H1235 0.950 . S
C1244 C1243 1.398 . S
C1244 C1245 1.391 . S
C1245 H1233 0.950 . S
C1245 C1241 1.393 . S
C1245 C1244 1.391 . S
C1246 H1236 0.950 . S
C1246 C1247 1.386 . S
C1246 C1248 1.391 . S
C1247 C1246 1.386 . S
C1247 C1251 1.393 . S
C1248 H1237 0.950 . S
C1248 C1246 1.391 . S
C1248 C1249 1.400 . S
C1249 C1243 1.491 . S
C1249 C1248 1.400 . S
C1249 C1250 1.398 . S
C1250 H1238 0.950 1_545 S
C1250 C1249 1.398 . S
C1250 C1251 1.391 . S
C1251 H1239 0.950 1_545 S
C1251 C1247 1.393 . S
C1251 C1250 1.391 . S
H1252 C1260 0.950 . S
H1253 C1265 0.950 . S
H1254 C1262 0.950 . S
H1255 C1264 0.950 . S
H1256 C1266 0.950 . S
H1257 C1268 0.950 . S
H1258 C1270 0.950 . S
H1259 C1271 0.950 . S
C1260 H1252 0.950 . S
C1260 C1261 1.386 . S
C1260 C1262 1.391 . S
C1261 C1260 1.386 . S
C1261 C1265 1.393 . S
C1262 H1254 0.950 . S
C1262 C1260 1.391 . S
C1262 C1263 1.400 . S
C1263 C1262 1.400 . S
C1263 C1264 1.398 . S
C1263 C1269 1.491 . S
C1264 H1255 0.950 . S
C1264 C1263 1.398 . S
C1264 C1265 1.391 . S
C1265 H1253 0.950 . S
C1265 C1261 1.393 . S
C1265 C1264 1.391 . S
C1266 H1256 0.950 . S
C1266 C1267 1.386 . S
C1266 C1268 1.391 . S
C1267 C1266 1.386 . S
C1267 C1271 1.393 . S
C1268 H1257 0.950 . S
C1268 C1266 1.391 . S
C1268 C1269 1.400 . S
C1269 C1263 1.491 . S
C1269 C1268 1.400 . S
C1269 C1270 1.398 . S
C1270 H1258 0.950 . S
C1270 C1269 1.398 . S
C1270 C1271 1.391 . S
C1271 H1259 0.950 . S
C1271 C1267 1.393 . S
C1271 C1270 1.391 . S
H1272 C1280 0.950 . S
H1273 C1285 0.950 . S
H1274 C1282 0.950 . S
H1275 C1284 0.950 1_556 S
H1276 C1286 0.950 . S
H1277 C1288 0.950 . S
H1278 C1290 0.950 . S
H1279 C1291 0.950 . S
C1280 H1272 0.950 . S
C1280 C1281 1.386 . S
C1280 C1282 1.391 . S
C1281 C1280 1.386 . S
C1281 C1285 1.393 1_554 S
C1282 H1274 0.950 . S
C1282 C1280 1.391 . S
C1282 C1283 1.400 . S
C1283 C1282 1.400 . S
C1283 C1284 1.398 . S
C1283 C1289 1.491 . S
C1284 H1275 0.950 1_554 S
C1284 C1283 1.398 . S
C1284 C1285 1.391 1_554 S
C1285 H1273 0.950 . S
C1285 C1281 1.393 1_556 S
C1285 C1284 1.391 1_556 S
C1286 H1276 0.950 . S
C1286 C1287 1.386 . S
C1286 C1288 1.391 . S
C1287 C1286 1.386 . S
C1287 C1291 1.393 . S
C1288 H1277 0.950 . S
C1288 C1286 1.391 . S
C1288 C1289 1.400 . S
C1289 C1283 1.491 . S
C1289 C1288 1.400 . S
C1289 C1290 1.398 . S
C1290 H1278 0.950 . S
C1290 C1289 1.398 . S
C1290 C1291 1.391 . S
C1291 H1279 0.950 . S
C1291 C1287 1.393 . S
C1291 C1290 1.391 . S
H1292 C1300 0.950 . S
H1293 C1305 0.950 . S
H1294 C1302 0.950 . S
H1295 C1304 0.950 . S
H1296 C1306 0.950 . S
H1297 C1308 0.950 . S
H1298 C1310 0.950 . S
H1299 C1311 0.950 . S
C1300 H1292 0.950 . S
C1300 C1301 1.386 . S
C1300 C1302 1.391 . S
C1301 C1300 1.386 . S
C1301 C1305 1.393 . S
C1302 H1294 0.950 . S
C1302 C1300 1.391 . S
C1302 C1303 1.400 . S
C1303 C1302 1.400 . S
C1303 C1304 1.398 . S
C1303 C1309 1.491 . S
C1304 H1295 0.950 . S
C1304 C1303 1.398 . S
C1304 C1305 1.391 . S
C1305 H1293 0.950 . S
C1305 C1301 1.393 . S
C1305 C1304 1.391 . S
C1306 H1296 0.950 . S
C1306 C1307 1.386 . S
C1306 C1308 1.391 . S
C1307 C1306 1.386 . S
C1307 C1311 1.393 . S
C1308 H1297 0.950 . S
C1308 C1306 1.391 . S
C1308 C1309 1.400 . S
C1309 C1303 1.491 . S
C1309 C1308 1.400 . S
C1309 C1310 1.398 . S
C1310 H1298 0.950 . S
C1310 C1309 1.398 . S
C1310 C1311 1.391 . S
C1311 H1299 0.950 . S
C1311 C1307 1.393 . S
C1311 C1310 1.391 . S
H1312 C1320 0.950 . S
H1313 C1325 0.950 . S
H1314 C1322 0.950 . S
H1315 C1324 0.950 . S
H1316 C1326 0.950 . S
H1317 C1328 0.950 . S
H1318 C1330 0.950 . S
H1319 C1331 0.950 . S
C1320 H1312 0.950 . S
C1320 C1321 1.386 . S
C1320 C1322 1.391 . S
C1321 C1320 1.386 . S
C1321 C1325 1.393 . S
C1322 H1314 0.950 . S
C1322 C1320 1.391 . S
C1322 C1323 1.400 . S
C1323 C1322 1.400 . S
C1323 C1324 1.398 . S
C1323 C1329 1.491 . S
C1324 H1315 0.950 . S
C1324 C1323 1.398 . S
C1324 C1325 1.391 . S
C1325 H1313 0.950 . S
C1325 C1321 1.393 . S
C1325 C1324 1.391 . S
C1326 H1316 0.950 . S
C1326 C1327 1.386 . S
C1326 C1328 1.391 . S
C1327 C1326 1.386 . S
C1327 C1331 1.393 . S
C1328 H1317 0.950 . S
C1328 C1326 1.391 . S
C1328 C1329 1.400 . S
C1329 C1323 1.491 . S
C1329 C1328 1.400 . S
C1329 C1330 1.398 . S
C1330 H1318 0.950 . S
C1330 C1329 1.398 . S
C1330 C1331 1.391 . S
C1331 H1319 0.950 . S
C1331 C1327 1.393 . S
C1331 C1330 1.391 . S
H1332 C1340 0.950 . S
H1333 C1345 0.950 . S
H1334 C1342 0.950 . S
H1335 C1344 0.950 . S
H1336 C1346 0.950 . S
H1337 C1348 0.950 . S
H1338 C1350 0.950 . S
H1339 C1351 0.950 . S
C1340 H1332 0.950 . S
C1340 C1341 1.386 . S
C1340 C1342 1.391 . S
C1341 C1340 1.386 . S
C1341 C1345 1.393 . S
C1342 H1334 0.950 . S
C1342 C1340 1.391 . S
C1342 C1343 1.400 . S
C1343 C1342 1.400 . S
C1343 C1344 1.398 . S
C1343 C1349 1.491 . S
C1344 H1335 0.950 . S
C1344 C1343 1.398 . S
C1344 C1345 1.391 . S
C1345 H1333 0.950 . S
C1345 C1341 1.393 . S
C1345 C1344 1.391 . S
C1346 H1336 0.950 . S
C1346 C1347 1.386 . S
C1346 C1348 1.391 . S
C1347 C1346 1.386 . S
C1347 C1351 1.393 . S
C1348 H1337 0.950 . S
C1348 C1346 1.391 . S
C1348 C1349 1.400 . S
C1349 C1343 1.491 . S
C1349 C1348 1.400 . S
C1349 C1350 1.398 . S
C1350 H1338 0.950 . S
C1350 C1349 1.398 . S
C1350 C1351 1.391 . S
C1351 H1339 0.950 . S
C1351 C1347 1.393 . S
C1351 C1350 1.391 . S
H1352 C1360 0.950 . S
H1353 C1365 0.950 . S
H1354 C1362 0.950 . S
H1355 C1364 0.950 . S
H1356 C1366 0.950 . S
H1357 C1368 0.950 . S
H1358 C1370 0.950 . S
H1359 C1371 0.950 . S
C1360 H1352 0.950 . S
C1360 C1361 1.386 . S
C1360 C1362 1.391 . S
C1361 C1360 1.386 . S
C1361 C1365 1.393 . S
C1362 H1354 0.950 . S
C1362 C1360 1.391 . S
C1362 C1363 1.400 . S
C1363 C1362 1.400 . S
C1363 C1364 1.398 . S
C1363 C1369 1.491 . S
C1364 H1355 0.950 . S
C1364 C1363 1.398 . S
C1364 C1365 1.391 . S
C1365 H1353 0.950 . S
C1365 C1361 1.393 . S
C1365 C1364 1.391 . S
C1366 H1356 0.950 . S
C1366 C1367 1.386 . S
C1366 C1368 1.391 . S
C1367 C1366 1.386 . S
C1367 C1371 1.393 . S
C1368 H1357 0.950 . S
C1368 C1366 1.391 . S
C1368 C1369 1.400 . S
C1369 C1363 1.491 . S
C1369 C1368 1.400 . S
C1369 C1370 1.398 . S
C1370 H1358 0.950 . S
C1370 C1369 1.398 . S
C1370 C1371 1.391 . S
C1371 H1359 0.950 . S
C1371 C1367 1.393 . S
C1371 C1370 1.391 . S
H1372 C1380 0.950 . S
H1373 C1385 0.950 . S
H1374 C1382 0.950 . S
H1375 C1384 0.950 . S
H1376 C1386 0.950 . S
H1377 C1388 0.950 . S
H1378 C1390 0.950 . S
H1379 C1391 0.950 . S
C1380 H1372 0.950 . S
C1380 C1381 1.386 . S
C1380 C1382 1.391 . S
C1381 C1380 1.386 . S
C1381 C1385 1.393 . S
C1382 H1374 0.950 . S
C1382 C1380 1.391 . S
C1382 C1383 1.400 . S
C1383 C1382 1.400 . S
C1383 C1384 1.398 . S
C1383 C1389 1.491 . S
C1384 H1375 0.950 . S
C1384 C1383 1.398 . S
C1384 C1385 1.391 . S
C1385 H1373 0.950 . S
C1385 C1381 1.393 . S
C1385 C1384 1.391 . S
C1386 H1376 0.950 . S
C1386 C1387 1.386 . S
C1386 C1388 1.391 . S
C1387 C1386 1.386 . S
C1387 C1391 1.393 . S
C1388 H1377 0.950 . S
C1388 C1386 1.391 . S
C1388 C1389 1.400 . S
C1389 C1383 1.491 . S
C1389 C1388 1.400 . S
C1389 C1390 1.398 . S
C1390 H1378 0.950 . S
C1390 C1389 1.398 . S
C1390 C1391 1.391 . S
C1391 H1379 0.950 . S
C1391 C1387 1.393 . S
C1391 C1390 1.391 . S
H1392 C1400 0.950 . S
H1393 C1405 0.950 . S
H1394 C1402 0.950 . S
H1395 C1404 0.950 . S
H1396 C1406 0.950 . S
H1397 C1408 0.950 . S
H1398 C1410 0.950 . S
H1399 C1411 0.950 . S
C1400 H1392 0.950 . S
C1400 C1401 1.386 . S
C1400 C1402 1.391 . S
C1401 C1400 1.386 . S
C1401 C1405 1.393 . S
C1402 H1394 0.950 . S
C1402 C1400 1.391 . S
C1402 C1403 1.400 . S
C1403 C1402 1.400 . S
C1403 C1404 1.398 . S
C1403 C1409 1.491 . S
C1404 H1395 0.950 . S
C1404 C1403 1.398 . S
C1404 C1405 1.391 . S
C1405 H1393 0.950 . S
C1405 C1401 1.393 . S
C1405 C1404 1.391 . S
C1406 H1396 0.950 . S
C1406 C1407 1.386 . S
C1406 C1408 1.391 . S
C1407 C1406 1.386 . S
C1407 C1411 1.393 . S
C1408 H1397 0.950 . S
C1408 C1406 1.391 . S
C1408 C1409 1.400 . S
C1409 C1403 1.491 . S
C1409 C1408 1.400 . S
C1409 C1410 1.398 . S
C1410 H1398 0.950 . S
C1410 C1409 1.398 . S
C1410 C1411 1.391 . S
C1411 H1399 0.950 . S
C1411 C1407 1.393 . S
C1411 C1410 1.391 . S
H1412 C1420 0.950 . S
H1413 C1425 0.950 . S
H1414 C1422 0.950 . S
H1415 C1424 0.950 . S
H1416 C1426 0.950 . S
H1417 C1428 0.950 . S
H1418 C1430 0.950 . S
H1419 C1431 0.950 . S
C1420 H1412 0.950 . S
C1420 C1421 1.386 . S
C1420 C1422 1.391 . S
C1421 C1420 1.386 . S
C1421 C1425 1.393 . S
C1422 H1414 0.950 . S
C1422 C1420 1.391 . S
C1422 C1423 1.400 . S
C1423 C1422 1.400 . S
C1423 C1424 1.398 . S
C1423 C1429 1.491 . S
C1424 H1415 0.950 . S
C1424 C1423 1.398 . S
C1424 C1425 1.391 . S
C1425 H1413 0.950 . S
C1425 C1421 1.393 . S
C1425 C1424 1.391 . S
C1426 H1416 0.950 . S
C1426 C1427 1.386 . S
C1426 C1428 1.391 . S
C1427 C1426 1.386 . S
C1427 C1431 1.393 . S
C1428 H1417 0.950 . S
C1428 C1426 1.391 . S
C1428 C1429 1.400 . S
C1429 C1423 1.491 . S
C1429 C1428 1.400 . S
C1429 C1430 1.398 . S
C1430 H1418 0.950 . S
C1430 C1429 1.398 . S
C1430 C1431 1.391 . S
C1431 H1419 0.950 . S
C1431 C1427 1.393 . S
C1431 C1430 1.391 . S
H1432 C1440 0.950 . S
H1433 C1445 0.950 . S
H1434 C1442 0.950 . S
H1435 C1444 0.950 . S
H1436 C1446 0.950 . S
H1437 C1448 0.950 . S
H1438 C1450 0.950 . S
H1439 C1451 0.950 . S
C1440 H1432 0.950 . S
C1440 C1441 1.386 . S
C1440 C1442 1.391 . S
C1441 C1440 1.386 . S
C1441 C1445 1.393 . S
C1442 H1434 0.950 . S
C1442 C1440 1.391 . S
C1442 C1443 1.400 . S
C1443 C1442 1.400 . S
C1443 C1444 1.398 . S
C1443 C1449 1.491 . S
C1444 H1435 0.950 . S
C1444 C1443 1.398 . S
C1444 C1445 1.391 . S
C1445 H1433 0.950 . S
C1445 C1441 1.393 . S
C1445 C1444 1.391 . S
C1446 H1436 0.950 . S
C1446 C1447 1.386 . S
C1446 C1448 1.391 . S
C1447 C1446 1.386 . S
C1447 C1451 1.393 . S
C1448 H1437 0.950 . S
C1448 C1446 1.391 . S
C1448 C1449 1.400 . S
C1449 C1443 1.491 . S
C1449 C1448 1.400 . S
C1449 C1450 1.398 . S
C1450 H1438 0.950 . S
C1450 C1449 1.398 . S
C1450 C1451 1.391 . S
C1451 H1439 0.950 . S
C1451 C1447 1.393 . S
C1451 C1450 1.391 . S
H1452 C1460 0.950 . S
H1453 C1465 0.950 . S
H1454 C1462 0.950 . S
H1455 C1464 0.950 . S
H1456 C1466 0.950 . S
H1457 C1468 0.950 . S
H1458 C1470 0.950 . S
H1459 C1471 0.950 . S
C1460 H1452 0.950 . S
C1460 C1461 1.386 . S
C1460 C1462 1.391 . S
C1461 C1460 1.386 . S
C1461 C1465 1.393 . S
C1462 H1454 0.950 . S
C1462 C1460 1.391 . S
C1462 C1463 1.400 . S
C1463 C1462 1.400 . S
C1463 C1464 1.398 . S
C1463 C1469 1.491 . S
C1464 H1455 0.950 . S
C1464 C1463 1.398 . S
C1464 C1465 1.391 . S
C1465 H1453 0.950 . S
C1465 C1461 1.393 . S
C1465 C1464 1.391 . S
C1466 H1456 0.950 . S
C1466 C1467 1.386 . S
C1466 C1468 1.391 . S
C1467 C1466 1.386 . S
C1467 C1471 1.393 . S
C1468 H1457 0.950 . S
C1468 C1466 1.391 . S
C1468 C1469 1.400 . S
C1469 C1463 1.491 . S
C1469 C1468 1.400 . S
C1469 C1470 1.398 . S
C1470 H1458 0.950 . S
C1470 C1469 1.398 . S
C1470 C1471 1.391 . S
C1471 H1459 0.950 . S
C1471 C1467 1.393 . S
C1471 C1470 1.391 . S
H1472 C1480 0.950 . S
H1473 C1485 0.950 . S
H1474 C1482 0.950 . S
H1475 C1484 0.950 . S
H1476 C1486 0.950 . S
H1477 C1488 0.950 . S
H1478 C1490 0.950 . S
H1479 C1491 0.950 . S
C1480 H1472 0.950 . S
C1480 C1481 1.386 . S
C1480 C1482 1.391 . S
C1481 C1480 1.386 . S
C1481 C1485 1.393 . S
C1482 H1474 0.950 . S
C1482 C1480 1.391 . S
C1482 C1483 1.400 . S
C1483 C1482 1.400 . S
C1483 C1484 1.398 . S
C1483 C1489 1.491 . S
C1484 H1475 0.950 . S
C1484 C1483 1.398 . S
C1484 C1485 1.391 . S
C1485 H1473 0.950 . S
C1485 C1481 1.393 . S
C1485 C1484 1.391 . S
C1486 H1476 0.950 . S
C1486 C1487 1.386 . S
C1486 C1488 1.391 . S
C1487 C1486 1.386 . S
C1487 C1491 1.393 . S
C1488 H1477 0.950 . S
C1488 C1486 1.391 . S
C1488 C1489 1.400 . S
C1489 C1483 1.491 . S
C1489 C1488 1.400 . S
C1489 C1490 1.398 . S
C1490 H1478 0.950 . S
C1490 C1489 1.398 . S
C1490 C1491 1.391 . S
C1491 H1479 0.950 . S
C1491 C1487 1.393 . S
C1491 C1490 1.391 . S
H1492 C1500 0.950 . S
H1493 C1505 0.950 . S
H1494 C1502 0.950 . S
H1495 C1504 0.950 . S
H1496 C1506 0.950 . S
H1497 C1508 0.950 . S
H1498 C1510 0.950 . S
H1499 C1511 0.950 . S
C1500 H1492 0.950 . S
C1500 C1501 1.386 . S
C1500 C1502 1.391 . S
C1501 C1500 1.386 . S
C1501 C1505 1.393 . S
C1502 H1494 0.950 . S
C1502 C1500 1.391 . S
C1502 C1503 1.400 . S
C1503 C1502 1.400 . S
C1503 C1504 1.398 . S
C1503 C1509 1.491 . S
C1504 H1495 0.950 . S
C1504 C1503 1.398 . S
C1504 C1505 1.391 . S
C1505 H1493 0.950 . S
C1505 C1501 1.393 . S
C1505 C1504 1.391 . S
C1506 H1496 0.950 . S
C1506 C1507 1.386 . S
C1506 C1508 1.391 . S
C1507 C1506 1.386 . S
C1507 C1511 1.393 . S
C1508 H1497 0.950 . S
C1508 C1506 1.391 . S
C1508 C1509 1.400 . S
C1509 C1503 1.491 . S
C1509 C1508 1.400 . S
C1509 C1510 1.398 . S
C1510 H1498 0.950 . S
C1510 C1509 1.398 . S
C1510 C1511 1.391 . S
C1511 H1499 0.950 . S
C1511 C1507 1.393 . S
C1511 C1510 1.391 . S
H1512 C1520 0.950 . S
H1513 C1525 0.950 . S
H1514 C1522 0.950 . S
H1515 C1524 0.950 . S
H1516 C1526 0.950 . S
H1517 C1528 0.950 . S
H1518 C1530 0.950 . S
H1519 C1531 0.950 . S
C1520 H1512 0.950 . S
C1520 C1521 1.367 1_455 S
C1520 C1522 1.391 . S
C1521 C1520 1.367 1_655 S
C1521 C1525 1.409 . S
C1522 H1514 0.950 . S
C1522 C1520 1.391 . S
C1522 C1523 1.400 1_455 S
C1523 C1522 1.400 1_655 S
C1523 C1524 1.398 . S
C1523 C1529 1.491 . S
C1524 H1515 0.950 . S
C1524 C1523 1.398 . S
C1524 C1525 1.391 . S
C1525 H1513 0.950 . S
C1525 C1521 1.409 . S
C1525 C1524 1.391 . S
C1526 H1516 0.950 . S
C1526 C1527 1.386 . S
C1526 C1528 1.391 . S
C1527 C1526 1.386 . S
C1527 C1531 1.393 1_655 S
C1528 H1517 0.950 . S
C1528 C1526 1.391 . S
C1528 C1529 1.400 . S
C1529 C1523 1.491 . S
C1529 C1528 1.400 . S
C1529 C1530 1.398 1_655 S
C1530 H1518 0.950 . S
C1530 C1529 1.398 1_455 S
C1530 C1531 1.391 . S
C1531 H1519 0.950 . S
C1531 C1527 1.393 1_455 S
C1531 C1530 1.391 . S
H1532 C1540 0.950 . S
H1533 C1545 0.950 . S
H1534 C1542 0.950 . S
H1535 C1544 0.950 . S
H1536 C1546 0.950 . S
H1537 C1548 0.950 . S
H1538 C1550 0.950 . S
H1539 C1551 0.950 . S
C1540 H1532 0.950 . S
C1540 C1541 1.386 . S
C1540 C1542 1.391 . S
C1541 C1540 1.386 . S
C1541 C1545 1.393 . S
C1542 H1534 0.950 . S
C1542 C1540 1.391 . S
C1542 C1543 1.400 . S
C1543 C1542 1.400 . S
C1543 C1544 1.398 . S
C1543 C1549 1.491 . S
C1544 H1535 0.950 . S
C1544 C1543 1.398 . S
C1544 C1545 1.391 . S
C1545 H1533 0.950 . S
C1545 C1541 1.393 . S
C1545 C1544 1.391 . S
C1546 H1536 0.950 . S
C1546 C1547 1.386 . S
C1546 C1548 1.391 . S
C1547 C1546 1.386 . S
C1547 C1551 1.393 . S
C1548 H1537 0.950 . S
C1548 C1546 1.391 . S
C1548 C1549 1.400 . S
C1549 C1543 1.491 . S
C1549 C1548 1.400 . S
C1549 C1550 1.398 . S
C1550 H1538 0.950 . S
C1550 C1549 1.398 . S
C1550 C1551 1.391 . S
C1551 H1539 0.950 . S
C1551 C1547 1.393 . S
C1551 C1550 1.391 . S
H1552 C1560 0.950 . S
H1553 C1565 0.950 . S
H1554 C1562 0.950 . S
H1555 C1564 0.950 . S
H1556 C1566 0.950 . S
H1557 C1568 0.950 . S
H1558 C1570 0.950 . S
H1559 C1571 0.950 . S
C1560 H1552 0.950 . S
C1560 C1561 1.386 . S
C1560 C1562 1.391 . S
C1561 C1560 1.386 . S
C1561 C1565 1.393 . S
C1562 H1554 0.950 . S
C1562 C1560 1.391 . S
C1562 C1563 1.400 . S
C1563 C1562 1.400 . S
C1563 C1564 1.398 . S
C1563 C1569 1.491 . S
C1564 H1555 0.950 . S
C1564 C1563 1.398 . S
C1564 C1565 1.391 . S
C1565 H1553 0.950 . S
C1565 C1561 1.393 . S
C1565 C1564 1.391 . S
C1566 H1556 0.950 . S
C1566 C1567 1.386 1_556 S
C1566 C1568 1.391 . S
C1567 C1566 1.386 1_554 S
C1567 C1571 1.393 . S
C1568 H1557 0.950 . S
C1568 C1566 1.391 . S
C1568 C1569 1.400 . S
C1569 C1563 1.491 . S
C1569 C1568 1.400 . S
C1569 C1570 1.398 1_556 S
C1570 H1558 0.950 . S
C1570 C1569 1.398 1_554 S
C1570 C1571 1.391 . S
C1571 H1559 0.950 . S
C1571 C1567 1.393 . S
C1571 C1570 1.391 . S
H1572 C1580 0.950 . S
H1573 C1585 0.950 . S
H1574 C1582 0.950 . S
H1575 C1584 0.950 . S
H1576 C1586 0.950 . S
H1577 C1588 0.950 . S
H1578 C1590 0.950 . S
H1579 C1591 0.950 . S
C1580 H1572 0.950 . S
C1580 C1581 1.386 . S
C1580 C1582 1.391 1_455 S
C1581 C1580 1.386 . S
C1581 C1585 1.393 . S
C1582 H1574 0.950 . S
C1582 C1580 1.391 1_655 S
C1582 C1583 1.400 . S
C1583 C1582 1.400 . S
C1583 C1584 1.398 . S
C1583 C1589 1.491 . S
C1584 H1575 0.950 . S
C1584 C1583 1.398 . S
C1584 C1585 1.391 1_655 S
C1585 H1573 0.950 . S
C1585 C1581 1.393 . S
C1585 C1584 1.391 1_455 S
C1586 H1576 0.950 . S
C1586 C1587 1.386 . S
C1586 C1588 1.391 . S
C1587 C1586 1.386 . S
C1587 C1591 1.393 . S
C1588 H1577 0.950 . S
C1588 C1586 1.391 . S
C1588 C1589 1.400 . S
C1589 C1583 1.491 . S
C1589 C1588 1.400 . S
C1589 C1590 1.398 . S
C1590 H1578 0.950 . S
C1590 C1589 1.398 . S
C1590 C1591 1.391 . S
C1591 H1579 0.950 . S
C1591 C1587 1.393 . S
C1591 C1590 1.391 . S
H1592 C1600 0.950 . S
H1593 C1605 0.950 . S
H1594 C1602 0.950 . S
H1595 C1604 0.950 . S
H1596 C1606 0.950 . S
H1597 C1608 0.950 . S
H1598 C1610 0.950 . S
H1599 C1611 0.950 . S
C1600 H1592 0.950 . S
C1600 C1601 1.386 . S
C1600 C1602 1.391 . S
C1601 C1600 1.386 . S
C1601 C1605 1.393 . S
C1602 H1594 0.950 . S
C1602 C1600 1.391 . S
C1602 C1603 1.400 . S
C1603 C1602 1.400 . S
C1603 C1604 1.398 . S
C1603 C1609 1.491 . S
C1604 H1595 0.950 . S
C1604 C1603 1.398 . S
C1604 C1605 1.391 . S
C1605 H1593 0.950 . S
C1605 C1601 1.393 . S
C1605 C1604 1.391 . S
C1606 H1596 0.950 . S
C1606 C1607 1.386 . S
C1606 C1608 1.391 . S
C1607 C1606 1.386 . S
C1607 C1611 1.393 . S
C1608 H1597 0.950 . S
C1608 C1606 1.391 . S
C1608 C1609 1.400 . S
C1609 C1603 1.491 . S
C1609 C1608 1.400 . S
C1609 C1610 1.398 . S
C1610 H1598 0.950 . S
C1610 C1609 1.398 . S
C1610 C1611 1.391 . S
C1611 H1599 0.950 . S
C1611 C1607 1.393 . S
C1611 C1610 1.391 . S
H1612 C1620 0.950 . S
H1613 C1625 0.950 . S
H1614 C1622 0.950 . S
H1615 C1624 0.950 . S
H1616 C1626 0.950 . S
H1617 C1628 0.950 . S
H1618 C1630 0.950 . S
H1619 C1631 0.950 . S
C1620 H1612 0.950 . S
C1620 C1621 1.386 . S
C1620 C1622 1.391 . S
C1621 C1620 1.386 . S
C1621 C1625 1.393 . S
C1622 H1614 0.950 . S
C1622 C1620 1.391 . S
C1622 C1623 1.400 . S
C1623 C1622 1.400 . S
C1623 C1624 1.398 . S
C1623 C1629 1.491 . S
C1624 H1615 0.950 . S
C1624 C1623 1.398 . S
C1624 C1625 1.391 . S
C1625 H1613 0.950 . S
C1625 C1621 1.393 . S
C1625 C1624 1.391 . S
C1626 H1616 0.950 . S
C1626 C1627 1.386 . S
C1626 C1628 1.391 . S
C1627 C1626 1.386 . S
C1627 C1631 1.393 . S
C1628 H1617 0.950 . S
C1628 C1626 1.391 . S
C1628 C1629 1.400 . S
C1629 C1623 1.491 . S
C1629 C1628 1.400 . S
C1629 C1630 1.398 . S
C1630 H1618 0.950 . S
C1630 C1629 1.398 . S
C1630 C1631 1.391 . S
C1631 H1619 0.950 . S
C1631 C1627 1.393 . S
C1631 C1630 1.391 . S
H1632 C1640 0.950 . S
H1633 C1645 0.950 . S
H1634 C1642 0.945 . S
H1635 C1644 0.950 . S
H1636 C1646 0.950 . S
H1637 C1648 0.950 . S
H1638 C1650 0.950 1_565 S
H1639 C1651 0.950 1_565 S
C1640 H1632 0.950 . S
C1640 C1641 1.386 . S
C1640 C1642 1.391 . S
C1641 C1640 1.386 . S
C1641 C1645 1.393 . S
C1642 H1634 0.945 . S
C1642 C1640 1.391 . S
C1642 C1643 1.400 . S
C1643 C1642 1.400 . S
C1643 C1644 1.398 . S
C1643 C1649 1.491 . S
C1644 H1635 0.950 . S
C1644 C1643 1.398 . S
C1644 C1645 1.391 . S
C1645 H1633 0.950 . S
C1645 C1641 1.393 . S
C1645 C1644 1.391 . S
C1646 H1636 0.950 . S
C1646 C1647 1.386 . S
C1646 C1648 1.391 . S
C1647 C1646 1.386 . S
C1647 C1651 1.393 . S
C1648 H1637 0.950 . S
C1648 C1646 1.391 . S
C1648 C1649 1.400 . S
C1649 C1643 1.491 . S
C1649 C1648 1.400 . S
C1649 C1650 1.398 . S
C1650 H1638 0.950 1_545 S
C1650 C1649 1.398 . S
C1650 C1651 1.391 . S
C1651 H1639 0.950 1_545 S
C1651 C1647 1.393 . S
C1651 C1650 1.391 . S
H1652 C1660 0.950 . S
H1653 C1665 0.950 . S
H1654 C1662 0.950 . S
H1655 C1664 0.950 . S
H1656 C1666 0.950 . S
H1657 C1668 0.950 . S
H1658 C1670 0.950 . S
H1659 C1671 0.950 . S
C1660 H1652 0.950 . S
C1660 C1661 1.386 . S
C1660 C1662 1.391 . S
C1661 C1660 1.386 . S
C1661 C1665 1.393 . S
C1662 H1654 0.950 . S
C1662 C1660 1.391 . S
C1662 C1663 1.400 . S
C1663 C1662 1.400 . S
C1663 C1664 1.398 . S
C1663 C1669 1.491 . S
C1664 H1655 0.950 . S
C1664 C1663 1.398 . S
C1664 C1665 1.391 . S
C1665 H1653 0.950 . S
C1665 C1661 1.393 . S
C1665 C1664 1.391 . S
C1666 H1656 0.950 . S
C1666 C1667 1.386 . S
C1666 C1668 1.391 . S
C1667 C1666 1.386 . S
C1667 C1671 1.393 . S
C1668 H1657 0.950 . S
C1668 C1666 1.391 . S
C1668 C1669 1.400 . S
C1669 C1663 1.491 . S
C1669 C1668 1.400 . S
C1669 C1670 1.398 . S
C1670 H1658 0.950 . S
C1670 C1669 1.398 . S
C1670 C1671 1.391 . S
C1671 H1659 0.950 . S
C1671 C1667 1.393 . S
C1671 C1670 1.391 . S
H1672 C1680 0.950 . S
H1673 C1685 0.950 1_565 S
H1674 C1682 0.950 . S
H1675 C1684 0.950 1_565 S
H1676 C1686 0.950 1_565 S
H1677 C1688 0.950 1_565 S
H1678 C1690 0.950 . S
H1679 C1691 0.950 . S
C1680 H1672 0.950 . S
C1680 C1681 1.386 . S
C1680 C1682 1.391 . S
C1681 C1680 1.386 . S
C1681 C1685 1.393 . S
C1682 H1674 0.950 . S
C1682 C1680 1.391 . S
C1682 C1683 1.400 . S
C1683 C1682 1.400 . S
C1683 C1684 1.398 . S
C1683 C1689 1.491 . S
C1684 H1675 0.950 1_545 S
C1684 C1683 1.398 . S
C1684 C1685 1.391 . S
C1685 H1673 0.950 1_545 S
C1685 C1681 1.393 . S
C1685 C1684 1.391 . S
C1686 H1676 0.950 1_545 S
C1686 C1687 1.386 . S
C1686 C1688 1.391 . S
C1687 C1686 1.386 . S
C1687 C1691 1.393 . S
C1688 H1677 0.950 1_545 S
C1688 C1686 1.391 . S
C1688 C1689 1.400 . S
C1689 C1683 1.491 . S
C1689 C1688 1.400 . S
C1689 C1690 1.398 . S
C1690 H1678 0.950 . S
C1690 C1689 1.398 . S
C1690 C1691 1.391 . S
C1691 H1679 0.950 . S
C1691 C1687 1.393 . S
C1691 C1690 1.391 . S
H1692 C1700 0.950 . S
H1693 C1705 0.950 . S
H1694 C1702 0.950 . S
H1695 C1704 0.950 . S
H1696 C1706 0.950 . S
H1697 C1708 0.950 . S
H1698 C1710 0.950 . S
H1699 C1711 0.950 . S
C1700 H1692 0.950 . S
C1700 C1701 1.386 . S
C1700 C1702 1.391 . S
C1701 C1700 1.386 . S
C1701 C1705 1.393 . S
C1702 H1694 0.950 . S
C1702 C1700 1.391 . S
C1702 C1703 1.400 . S
C1703 C1702 1.400 . S
C1703 C1704 1.398 . S
C1703 C1709 1.491 . S
C1704 H1695 0.950 . S
C1704 C1703 1.398 . S
C1704 C1705 1.391 . S
C1705 H1693 0.950 . S
C1705 C1701 1.393 . S
C1705 C1704 1.391 . S
C1706 H1696 0.950 . S
C1706 C1707 1.386 . S
C1706 C1708 1.391 . S
C1707 C1706 1.386 . S
C1707 C1711 1.393 . S
C1708 H1697 0.950 . S
C1708 C1706 1.391 . S
C1708 C1709 1.400 . S
C1709 C1703 1.491 . S
C1709 C1708 1.400 . S
C1709 C1710 1.398 . S
C1710 H1698 0.950 . S
C1710 C1709 1.398 . S
C1710 C1711 1.391 . S
C1711 H1699 0.950 . S
C1711 C1707 1.393 . S
C1711 C1710 1.391 . S
H1712 C1720 0.950 . S
H1713 C1725 0.950 . S
H1714 C1722 0.950 . S
H1715 C1724 0.950 . S
H1716 C1726 0.950 . S
H1717 C1728 0.950 . S
H1718 C1730 0.950 . S
H1719 C1731 0.950 . S
C1720 H1712 0.950 . S
C1720 C1721 1.386 . S
C1720 C1722 1.391 . S
C1721 C1720 1.386 . S
C1721 C1725 1.393 1_545 S
C1722 H1714 0.950 . S
C1722 C1720 1.391 . S
C1722 C1723 1.400 . S
C1723 C1722 1.400 . S
C1723 C1724 1.398 1_545 S
C1723 C1729 1.491 . S
C1724 H1715 0.950 . S
C1724 C1723 1.398 1_565 S
C1724 C1725 1.391 . S
C1725 H1713 0.950 . S
C1725 C1721 1.393 1_565 S
C1725 C1724 1.391 . S
C1726 H1716 0.950 . S
C1726 C1727 1.386 1_565 S
C1726 C1728 1.391 . S
C1727 C1726 1.386 1_545 S
C1727 C1731 1.393 . S
C1728 H1717 0.950 . S
C1728 C1726 1.391 . S
C1728 C1729 1.400 1_565 S
C1729 C1723 1.491 . S
C1729 C1728 1.400 1_545 S
C1729 C1730 1.398 . S
C1730 H1718 0.950 . S
C1730 C1729 1.398 . S
C1730 C1731 1.391 . S
C1731 H1719 0.950 . S
C1731 C1727 1.393 . S
C1731 C1730 1.391 . S
H1732 C1740 0.950 . S
H1733 C1745 0.950 . S
H1734 C1742 0.950 . S
H1735 C1744 0.950 . S
H1736 C1746 0.950 . S
H1737 C1748 0.950 . S
H1738 C1750 0.950 . S
H1739 C1751 0.950 . S
C1740 H1732 0.950 . S
C1740 C1741 1.386 . S
C1740 C1742 1.391 . S
C1741 C1740 1.386 . S
C1741 C1745 1.393 . S
C1742 H1734 0.950 . S
C1742 C1740 1.391 . S
C1742 C1743 1.400 . S
C1743 C1742 1.400 . S
C1743 C1744 1.398 . S
C1743 C1749 1.491 . S
C1744 H1735 0.950 . S
C1744 C1743 1.398 . S
C1744 C1745 1.391 . S
C1745 H1733 0.950 . S
C1745 C1741 1.393 . S
C1745 C1744 1.391 . S
C1746 H1736 0.950 . S
C1746 C1747 1.386 . S
C1746 C1748 1.391 . S
C1747 C1746 1.386 . S
C1747 C1751 1.393 . S
C1748 H1737 0.950 . S
C1748 C1746 1.391 . S
C1748 C1749 1.400 . S
C1749 C1743 1.491 . S
C1749 C1748 1.400 . S
C1749 C1750 1.398 . S
C1750 H1738 0.950 . S
C1750 C1749 1.398 . S
C1750 C1751 1.391 . S
C1751 H1739 0.950 . S
C1751 C1747 1.393 . S
C1751 C1750 1.391 . S
H1752 C1760 0.950 . S
H1753 C1765 0.950 . S
H1754 C1762 0.950 . S
H1755 C1764 0.950 . S
H1756 C1766 0.950 . S
H1757 C1768 0.950 . S
H1758 C1770 0.950 . S
H1759 C1771 0.912 1_556 S
C1760 H1752 0.950 . S
C1760 C1761 1.386 . S
C1760 C1762 1.391 . S
C1761 C1760 1.386 . S
C1761 C1765 1.393 . S
C1762 H1754 0.950 . S
C1762 C1760 1.391 . S
C1762 C1763 1.400 . S
C1763 C1762 1.400 . S
C1763 C1764 1.398 . S
C1763 C1769 1.491 . S
C1764 H1755 0.950 . S
C1764 C1763 1.398 . S
C1764 C1765 1.391 . S
C1765 H1753 0.950 . S
C1765 C1761 1.393 . S
C1765 C1764 1.391 . S
C1766 H1756 0.950 . S
C1766 C1767 1.386 . S
C1766 C1768 1.391 . S
C1767 C1766 1.386 . S
C1767 C1771 1.409 . S
C1768 H1757 0.950 . S
C1768 C1766 1.391 . S
C1768 C1769 1.400 . S
C1769 C1763 1.491 . S
C1769 C1768 1.400 . S
C1769 C1770 1.398 . S
C1770 H1758 0.950 . S
C1770 C1769 1.398 . S
C1770 C1771 1.413 . S
C1771 H1759 0.912 1_554 S
C1771 C1767 1.409 . S
C1771 C1770 1.413 . S
H1772 C1780 0.950 . S
H1773 C1785 0.950 . S
H1774 C1782 0.950 . S
H1775 C1784 0.950 . S
H1776 C1786 0.950 . S
H1777 C1788 0.950 . S
H1778 C1790 0.950 . S
H1779 C1791 0.950 . S
C1780 H1772 0.950 . S
C1780 C1781 1.386 . S
C1780 C1782 1.391 . S
C1781 C1780 1.386 . S
C1781 C1785 1.393 . S
C1782 H1774 0.950 . S
C1782 C1780 1.391 . S
C1782 C1783 1.400 . S
C1783 C1782 1.400 . S
C1783 C1784 1.398 . S
C1783 C1789 1.491 . S
C1784 H1775 0.950 . S
C1784 C1783 1.398 . S
C1784 C1785 1.391 . S
C1785 H1773 0.950 . S
C1785 C1781 1.393 . S
C1785 C1784 1.391 . S
C1786 H1776 0.950 . S
C1786 C1787 1.386 . S
C1786 C1788 1.391 . S
C1787 C1786 1.386 . S
C1787 C1791 1.393 . S
C1788 H1777 0.950 . S
C1788 C1786 1.391 . S
C1788 C1789 1.400 . S
C1789 C1783 1.491 . S
C1789 C1788 1.400 . S
C1789 C1790 1.398 . S
C1790 H1778 0.950 . S
C1790 C1789 1.398 . S
C1790 C1791 1.391 . S
C1791 H1779 0.950 . S
C1791 C1787 1.393 . S
C1791 C1790 1.391 . S
H1792 C1800 0.950 . S
H1793 C1805 0.950 . S
H1794 C1802 0.950 . S
H1795 C1804 0.950 . S
H1796 C1806 0.950 . S
H1797 C1808 0.950 . S
H1798 C1810 0.950 . S
H1799 C1811 0.950 . S
C1800 H1792 0.950 . S
C1800 C1801 1.386 . S
C1800 C1802 1.391 . S
C1801 C1800 1.386 . S
C1801 C1805 1.393 . S
C1802 H1794 0.950 . S
C1802 C1800 1.391 . S
C1802 C1803 1.400 . S
C1803 C1802 1.400 . S
C1803 C1804 1.398 . S
C1803 C1809 1.491 . S
C1804 H1795 0.950 . S
C1804 C1803 1.398 . S
C1804 C1805 1.391 . S
C1805 H1793 0.950 . S
C1805 C1801 1.393 . S
C1805 C1804 1.391 . S
C1806 H1796 0.950 . S
C1806 C1807 1.386 . S
C1806 C1808 1.391 . S
C1807 C1806 1.386 . S
C1807 C1811 1.393 . S
C1808 H1797 0.950 . S
C1808 C1806 1.391 . S
C1808 C1809 1.400 . S
C1809 C1803 1.491 . S
C1809 C1808 1.400 . S
C1809 C1810 1.398 . S
C1810 H1798 0.950 . S
C1810 C1809 1.398 . S
C1810 C1811 1.391 . S
C1811 H1799 0.950 . S
C1811 C1807 1.393 . S
C1811 C1810 1.391 . S
H1812 C1820 0.950 . S
H1813 C1825 0.950 . S
H1814 C1822 0.950 . S
H1815 C1824 0.950 . S
H1816 C1826 0.950 . S
H1817 C1828 0.950 . S
H1818 C1830 0.950 . S
H1819 C1831 0.950 . S
C1820 H1812 0.950 . S
C1820 C1821 1.386 . S
C1820 C1822 1.391 . S
C1821 C1820 1.386 . S
C1821 C1825 1.393 . S
C1822 H1814 0.950 . S
C1822 C1820 1.391 . S
C1822 C1823 1.400 . S
C1823 C1822 1.400 . S
C1823 C1824 1.398 . S
C1823 C1829 1.491 . S
C1824 H1815 0.950 . S
C1824 C1823 1.398 . S
C1824 C1825 1.391 . S
C1825 H1813 0.950 . S
C1825 C1821 1.393 . S
C1825 C1824 1.391 . S
C1826 H1816 0.950 . S
C1826 C1827 1.386 . S
C1826 C1828 1.391 . S
C1827 C1826 1.386 . S
C1827 C1831 1.393 . S
C1828 H1817 0.950 . S
C1828 C1826 1.391 . S
C1828 C1829 1.400 . S
C1829 C1823 1.491 . S
C1829 C1828 1.400 . S
C1829 C1830 1.398 . S
C1830 H1818 0.950 . S
C1830 C1829 1.398 . S
C1830 C1831 1.391 . S
C1831 H1819 0.950 . S
C1831 C1827 1.393 . S
C1831 C1830 1.391 . S
H1832 C1840 0.950 . S
H1833 C1845 0.950 . S
H1834 C1842 0.950 . S
H1835 C1844 0.950 . S
H1836 C1846 0.950 . S
H1837 C1848 0.950 . S
H1838 C1850 0.950 . S
H1839 C1851 0.950 . S
C1840 H1832 0.950 . S
C1840 C1841 1.386 . S
C1840 C1842 1.391 . S
C1841 C1840 1.386 . S
C1841 C1845 1.393 . S
C1842 H1834 0.950 . S
C1842 C1840 1.391 . S
C1842 C1843 1.400 . S
C1843 C1842 1.400 . S
C1843 C1844 1.398 . S
C1843 C1849 1.491 . S
C1844 H1835 0.950 . S
C1844 C1843 1.398 . S
C1844 C1845 1.391 . S
C1845 H1833 0.950 . S
C1845 C1841 1.393 . S
C1845 C1844 1.391 . S
C1846 H1836 0.950 . S
C1846 C1847 1.386 . S
C1846 C1848 1.391 . S
C1847 C1846 1.386 . S
C1847 C1851 1.393 . S
C1848 H1837 0.950 . S
C1848 C1846 1.391 . S
C1848 C1849 1.400 . S
C1849 C1843 1.491 . S
C1849 C1848 1.400 . S
C1849 C1850 1.398 . S
C1850 H1838 0.950 . S
C1850 C1849 1.398 . S
C1850 C1851 1.391 . S
C1851 H1839 0.950 . S
C1851 C1847 1.393 . S
C1851 C1850 1.391 . S
H1852 C1860 0.950 . S
H1853 C1865 0.950 . S
H1854 C1862 0.950 . S
H1855 C1864 0.950 . S
H1856 C1866 0.950 . S
H1857 C1868 0.950 . S
H1858 C1870 0.950 . S
H1859 C1871 0.950 . S
C1860 H1852 0.950 . S
C1860 C1861 1.386 . S
C1860 C1862 1.391 . S
C1861 C1860 1.386 . S
C1861 C1865 1.393 . S
C1862 H1854 0.950 . S
C1862 C1860 1.391 . S
C1862 C1863 1.400 . S
C1863 C1862 1.400 . S
C1863 C1864 1.398 . S
C1863 C1869 1.491 . S
C1864 H1855 0.950 . S
C1864 C1863 1.398 . S
C1864 C1865 1.391 . S
C1865 H1853 0.950 . S
C1865 C1861 1.393 . S
C1865 C1864 1.391 . S
C1866 H1856 0.950 . S
C1866 C1867 1.386 . S
C1866 C1868 1.391 . S
C1867 C1866 1.386 . S
C1867 C1871 1.393 . S
C1868 H1857 0.950 . S
C1868 C1866 1.391 . S
C1868 C1869 1.400 . S
C1869 C1863 1.491 . S
C1869 C1868 1.400 . S
C1869 C1870 1.398 . S
C1870 H1858 0.950 . S
C1870 C1869 1.398 . S
C1870 C1871 1.391 . S
C1871 H1859 0.950 . S
C1871 C1867 1.393 . S
C1871 C1870 1.391 . S
H1872 C1880 0.950 . S
H1873 C1885 0.950 . S
H1874 C1882 0.950 . S
H1875 C1884 0.950 . S
H1876 C1886 0.950 . S
H1877 C1888 0.950 . S
H1878 C1890 0.950 . S
H1879 C1891 0.950 . S
C1880 H1872 0.950 . S
C1880 C1881 1.386 . S
C1880 C1882 1.391 . S
C1881 C1880 1.386 . S
C1881 C1885 1.393 . S
C1882 H1874 0.950 . S
C1882 C1880 1.391 . S
C1882 C1883 1.400 . S
C1883 C1882 1.400 . S
C1883 C1884 1.398 . S
C1883 C1889 1.491 . S
C1884 H1875 0.950 . S
C1884 C1883 1.398 . S
C1884 C1885 1.391 . S
C1885 H1873 0.950 . S
C1885 C1881 1.393 . S
C1885 C1884 1.391 . S
C1886 H1876 0.950 . S
C1886 C1887 1.386 . S
C1886 C1888 1.391 . S
C1887 C1886 1.386 . S
C1887 C1891 1.393 . S
C1888 H1877 0.950 . S
C1888 C1886 1.391 . S
C1888 C1889 1.400 . S
C1889 C1883 1.491 . S
C1889 C1888 1.400 . S
C1889 C1890 1.398 . S
C1890 H1878 0.950 . S
C1890 C1889 1.398 . S
C1890 C1891 1.391 . S
C1891 H1879 0.950 . S
C1891 C1887 1.393 . S
C1891 C1890 1.391 . S
H1892 C1900 0.950 . S
H1893 C1905 0.950 . S
H1894 C1902 0.950 . S
H1895 C1904 0.950 . S
H1896 C1906 0.950 . S
H1897 C1908 0.950 . S
H1898 C1910 0.950 . S
H1899 C1911 0.950 . S
C1900 H1892 0.950 . S
C1900 C1901 1.386 . S
C1900 C1902 1.391 . S
C1901 C1900 1.386 . S
C1901 C1905 1.393 . S
C1902 H1894 0.950 . S
C1902 C1900 1.391 . S
C1902 C1903 1.400 . S
C1903 C1902 1.400 . S
C1903 C1904 1.398 . S
C1903 C1909 1.491 . S
C1904 H1895 0.950 . S
C1904 C1903 1.398 . S
C1904 C1905 1.391 . S
C1905 H1893 0.950 . S
C1905 C1901 1.393 . S
C1905 C1904 1.391 . S
C1906 H1896 0.950 . S
C1906 C1907 1.386 . S
C1906 C1908 1.391 . S
C1907 C1906 1.386 . S
C1907 C1911 1.393 . S
C1908 H1897 0.950 . S
C1908 C1906 1.391 . S
C1908 C1909 1.400 . S
C1909 C1903 1.491 . S
C1909 C1908 1.400 . S
C1909 C1910 1.398 . S
C1910 H1898 0.950 . S
C1910 C1909 1.398 . S
C1910 C1911 1.391 . S
C1911 H1899 0.950 . S
C1911 C1907 1.393 . S
C1911 C1910 1.391 . S
H1912 C1920 0.950 . S
H1913 C1925 0.950 . S
H1914 C1922 0.950 . S
H1915 C1924 0.950 . S
H1916 C1926 0.950 . S
H1917 C1928 0.950 . S
H1918 C1930 0.950 . S
H1919 C1931 0.950 . S
C1920 H1912 0.950 . S
C1920 C1921 1.386 . S
C1920 C1922 1.391 . S
C1921 C1920 1.386 . S
C1921 C1925 1.393 . S
C1922 H1914 0.950 . S
C1922 C1920 1.391 . S
C1922 C1923 1.400 . S
C1923 C1922 1.400 . S
C1923 C1924 1.398 . S
C1923 C1929 1.491 . S
C1924 H1915 0.950 . S
C1924 C1923 1.398 . S
C1924 C1925 1.391 . S
C1925 H1913 0.950 . S
C1925 C1921 1.393 . S
C1925 C1924 1.391 . S
C1926 H1916 0.950 . S
C1926 C1927 1.386 . S
C1926 C1928 1.391 . S
C1927 C1926 1.386 . S
C1927 C1931 1.393 . S
C1928 H1917 0.950 . S
C1928 C1926 1.391 . S
C1928 C1929 1.400 . S
C1929 C1923 1.491 . S
C1929 C1928 1.400 . S
C1929 C1930 1.398 . S
C1930 H1918 0.950 . S
C1930 C1929 1.398 . S
C1930 C1931 1.391 . S
C1931 H1919 0.950 . S
C1931 C1927 1.393 . S
C1931 C1930 1.391 . S
H1932 C1940 0.950 . S
H1933 C1945 0.950 . S
H1934 C1942 0.950 . S
H1935 C1944 0.950 . S
H1936 C1946 0.950 . S
H1937 C1948 0.950 . S
H1938 C1950 0.950 . S
H1939 C1951 0.950 . S
C1940 H1932 0.950 . S
C1940 C1941 1.386 . S
C1940 C1942 1.391 . S
C1941 C1940 1.386 . S
C1941 C1945 1.393 . S
C1942 H1934 0.950 . S
C1942 C1940 1.391 . S
C1942 C1943 1.400 . S
C1943 C1942 1.400 . S
C1943 C1944 1.398 . S
C1943 C1949 1.491 . S
C1944 H1935 0.950 . S
C1944 C1943 1.398 . S
C1944 C1945 1.391 . S
C1945 H1933 0.950 . S
C1945 C1941 1.393 . S
C1945 C1944 1.391 . S
C1946 H1936 0.950 . S
C1946 C1947 1.386 . S
C1946 C1948 1.391 . S
C1947 C1946 1.386 . S
C1947 C1951 1.393 . S
C1948 H1937 0.950 . S
C1948 C1946 1.391 . S
C1948 C1949 1.400 . S
C1949 C1943 1.491 . S
C1949 C1948 1.400 . S
C1949 C1950 1.398 . S
C1950 H1938 0.950 . S
C1950 C1949 1.398 . S
C1950 C1951 1.391 . S
C1951 H1939 0.950 . S
C1951 C1947 1.393 . S
C1951 C1950 1.391 . S
H1952 C1960 0.950 . S
H1953 C1965 0.950 . S
H1954 C1962 0.950 . S
H1955 C1964 0.950 . S
H1956 C1966 0.950 . S
H1957 C1968 0.950 . S
H1958 C1970 0.950 . S
H1959 C1971 0.950 . S
C1960 H1952 0.950 . S
C1960 C1961 1.386 1_554 S
C1960 C1962 1.391 . S
C1961 C1960 1.386 1_556 S
C1961 C1965 1.393 . S
C1962 H1954 0.950 . S
C1962 C1960 1.391 . S
C1962 C1963 1.417 . S
C1963 C1962 1.417 . S
C1963 C1964 1.379 1_554 S
C1963 C1969 1.494 . S
C1964 H1955 0.950 . S
C1964 C1963 1.379 1_556 S
C1964 C1965 1.391 . S
C1965 H1953 0.950 . S
C1965 C1961 1.393 . S
C1965 C1964 1.391 . S
C1966 H1956 0.950 . S
C1966 C1967 1.386 1_556 S
C1966 C1968 1.391 . S
C1967 C1966 1.386 1_554 S
C1967 C1971 1.393 . S
C1968 H1957 0.950 . S
C1968 C1966 1.391 . S
C1968 C1969 1.400 1_556 S
C1969 C1963 1.494 . S
C1969 C1968 1.400 1_554 S
C1969 C1970 1.398 . S
C1970 H1958 0.950 . S
C1970 C1969 1.398 . S
C1970 C1971 1.391 . S
C1971 H1959 0.950 . S
C1971 C1967 1.393 . S
C1971 C1970 1.391 . S
H1972 C1980 0.950 . S
H1973 C1985 0.950 1_455 S
H1974 C1982 0.950 . S
H1975 C1984 0.950 . S
H1976 C1986 0.950 . S
H1977 C1988 0.950 . S
H1978 C1990 0.950 . S
H1979 C1991 0.950 . S
C1980 H1972 0.950 . S
C1980 C1981 1.386 . S
C1980 C1982 1.391 . S
C1981 C1980 1.386 . S
C1981 C1985 1.393 . S
C1982 H1974 0.950 . S
C1982 C1980 1.391 . S
C1982 C1983 1.400 . S
C1983 C1982 1.400 . S
C1983 C1984 1.398 . S
C1983 C1989 1.491 . S
C1984 H1975 0.950 . S
C1984 C1983 1.398 . S
C1984 C1985 1.391 . S
C1985 H1973 0.950 1_655 S
C1985 C1981 1.393 . S
C1985 C1984 1.391 . S
C1986 H1976 0.950 . S
C1986 C1987 1.386 . S
C1986 C1988 1.391 . S
C1987 C1986 1.386 . S
C1987 C1991 1.393 . S
C1988 H1977 0.950 . S
C1988 C1986 1.391 . S
C1988 C1989 1.400 . S
C1989 C1983 1.491 . S
C1989 C1988 1.400 . S
C1989 C1990 1.398 . S
C1990 H1978 0.950 . S
C1990 C1989 1.398 . S
C1990 C1991 1.391 . S
C1991 H1979 0.950 . S
C1991 C1987 1.393 . S
C1991 C1990 1.391 . S
H1992 C2000 0.950 . S
H1993 C2005 0.950 . S
H1994 C2002 0.950 . S
H1995 C2004 0.950 . S
H1996 C2006 0.950 . S
H1997 C2008 0.950 . S
H1998 C2010 0.950 . S
H1999 C2011 0.950 . S
C2000 H1992 0.950 . S
C2000 C2001 1.386 . S
C2000 C2002 1.391 . S
C2001 C2000 1.386 . S
C2001 C2005 1.393 . S
C2002 H1994 0.950 . S
C2002 C2000 1.391 . S
C2002 C2003 1.400 . S
C2003 C2002 1.400 . S
C2003 C2004 1.398 . S
C2003 C2009 1.491 . S
C2004 H1995 0.950 . S
C2004 C2003 1.398 . S
C2004 C2005 1.391 . S
C2005 H1993 0.950 . S
C2005 C2001 1.393 . S
C2005 C2004 1.391 . S
C2006 H1996 0.950 . S
C2006 C2007 1.386 . S
C2006 C2008 1.391 . S
C2007 C2006 1.386 . S
C2007 C2011 1.393 . S
C2008 H1997 0.950 . S
C2008 C2006 1.391 . S
C2008 C2009 1.400 . S
C2009 C2003 1.491 . S
C2009 C2008 1.400 . S
C2009 C2010 1.398 . S
C2010 H1998 0.950 . S
C2010 C2009 1.398 . S
C2010 C2011 1.391 . S
C2011 H1999 0.950 . S
C2011 C2007 1.393 . S
C2011 C2010 1.391 . S
H2012 C2020 0.950 . S
H2013 C2025 0.950 . S
H2014 C2022 0.950 . S
H2015 C2024 0.950 . S
H2016 C2026 0.950 . S
H2017 C2028 0.950 . S
H2018 C2030 0.950 . S
H2019 C2031 0.950 . S
C2020 H2012 0.950 . S
C2020 C2021 1.386 . S
C2020 C2022 1.391 . S
C2021 C2020 1.386 . S
C2021 C2025 1.393 . S
C2022 H2014 0.950 . S
C2022 C2020 1.391 . S
C2022 C2023 1.400 . S
C2023 C2022 1.400 . S
C2023 C2024 1.398 . S
C2023 C2029 1.491 . S
C2024 H2015 0.950 . S
C2024 C2023 1.398 . S
C2024 C2025 1.391 . S
C2025 H2013 0.950 . S
C2025 C2021 1.393 . S
C2025 C2024 1.391 . S
C2026 H2016 0.950 . S
C2026 C2027 1.386 . S
C2026 C2028 1.391 . S
C2027 C2026 1.386 . S
C2027 C2031 1.393 . S
C2028 H2017 0.950 . S
C2028 C2026 1.391 . S
C2028 C2029 1.400 . S
C2029 C2023 1.491 . S
C2029 C2028 1.400 . S
C2029 C2030 1.398 . S
C2030 H2018 0.950 . S
C2030 C2029 1.398 . S
C2030 C2031 1.391 . S
C2031 H2019 0.950 . S
C2031 C2027 1.393 . S
C2031 C2030 1.391 . S
H2032 C2040 0.950 . S
H2033 C2045 0.950 . S
H2034 C2042 0.950 . S
H2035 C2044 0.950 . S
H2036 C2046 0.950 . S
H2037 C2048 0.950 . S
H2038 C2050 0.950 . S
H2039 C2051 0.950 . S
C2040 H2032 0.950 . S
C2040 C2041 1.386 . S
C2040 C2042 1.391 . S
C2041 C2040 1.386 . S
C2041 C2045 1.393 . S
C2042 H2034 0.950 . S
C2042 C2040 1.391 . S
C2042 C2043 1.400 . S
C2043 C2042 1.400 . S
C2043 C2044 1.398 . S
C2043 C2049 1.491 . S
C2044 H2035 0.950 . S
C2044 C2043 1.398 . S
C2044 C2045 1.391 . S
C2045 H2033 0.950 . S
C2045 C2041 1.393 . S
C2045 C2044 1.391 . S
C2046 H2036 0.950 . S
C2046 C2047 1.386 . S
C2046 C2048 1.391 . S
C2047 C2046 1.386 . S
C2047 C2051 1.393 . S
C2048 H2037 0.950 . S
C2048 C2046 1.391 . S
C2048 C2049 1.400 . S
C2049 C2043 1.491 . S
C2049 C2048 1.400 . S
C2049 C2050 1.398 . S
C2050 H2038 0.950 . S
C2050 C2049 1.398 . S
C2050 C2051 1.391 . S
C2051 H2039 0.950 . S
C2051 C2047 1.393 . S
C2051 C2050 1.391 . S
H2052 C2060 0.950 . S
H2053 C2065 0.950 . S
H2054 C2062 0.950 . S
H2055 C2064 0.950 . S
H2056 C2066 0.950 . S
H2057 C2068 0.950 . S
H2058 C2070 0.950 . S
H2059 C2071 0.950 . S
C2060 H2052 0.950 . S
C2060 C2061 1.386 . S
C2060 C2062 1.391 . S
C2061 C2060 1.386 . S
C2061 C2065 1.393 . S
C2062 H2054 0.950 . S
C2062 C2060 1.391 . S
C2062 C2063 1.400 . S
C2063 C2062 1.400 . S
C2063 C2064 1.398 . S
C2063 C2069 1.491 . S
C2064 H2055 0.950 . S
C2064 C2063 1.398 . S
C2064 C2065 1.391 . S
C2065 H2053 0.950 . S
C2065 C2061 1.393 . S
C2065 C2064 1.391 . S
C2066 H2056 0.950 . S
C2066 C2067 1.386 . S
C2066 C2068 1.391 . S
C2067 C2066 1.386 . S
C2067 C2071 1.393 . S
C2068 H2057 0.950 . S
C2068 C2066 1.391 . S
C2068 C2069 1.400 . S
C2069 C2063 1.491 . S
C2069 C2068 1.400 . S
C2069 C2070 1.398 . S
C2070 H2058 0.950 . S
C2070 C2069 1.398 . S
C2070 C2071 1.391 . S
C2071 H2059 0.950 . S
C2071 C2067 1.393 . S
C2071 C2070 1.391 . S
H2072 C2080 0.950 . S
H2073 C2085 0.950 . S
H2074 C2082 0.950 . S
H2075 C2084 0.950 . S
H2076 C2086 0.950 . S
H2077 C2088 0.950 . S
H2078 C2090 0.950 . S
H2079 C2091 0.950 . S
C2080 H2072 0.950 . S
C2080 C2081 1.386 . S
C2080 C2082 1.391 . S
C2081 C2080 1.386 . S
C2081 C2085 1.393 . S
C2082 H2074 0.950 . S
C2082 C2080 1.391 . S
C2082 C2083 1.400 . S
C2083 C2082 1.400 . S
C2083 C2084 1.398 . S
C2083 C2089 1.491 . S
C2084 H2075 0.950 . S
C2084 C2083 1.398 . S
C2084 C2085 1.391 . S
C2085 H2073 0.950 . S
C2085 C2081 1.393 . S
C2085 C2084 1.391 . S
C2086 H2076 0.950 . S
C2086 C2087 1.386 . S
C2086 C2088 1.391 . S
C2087 C2086 1.386 . S
C2087 C2091 1.393 . S
C2088 H2077 0.950 . S
C2088 C2086 1.391 . S
C2088 C2089 1.400 . S
C2089 C2083 1.491 . S
C2089 C2088 1.400 . S
C2089 C2090 1.398 . S
C2090 H2078 0.950 . S
C2090 C2089 1.398 . S
C2090 C2091 1.391 . S
C2091 H2079 0.950 . S
C2091 C2087 1.393 . S
C2091 C2090 1.391 . S
H2092 C2100 0.950 . S
H2093 C2105 0.950 . S
H2094 C2102 0.950 . S
H2095 C2104 0.950 . S
H2096 C2106 0.950 . S
H2097 C2108 0.950 . S
H2098 C2110 0.950 . S
H2099 C2111 0.950 . S
C2100 H2092 0.950 . S
C2100 C2101 1.386 . S
C2100 C2102 1.391 . S
C2101 C2100 1.386 . S
C2101 C2105 1.393 . S
C2102 H2094 0.950 . S
C2102 C2100 1.391 . S
C2102 C2103 1.400 . S
C2103 C2102 1.400 . S
C2103 C2104 1.398 . S
C2103 C2109 1.491 1_554 S
C2104 H2095 0.950 . S
C2104 C2103 1.398 . S
C2104 C2105 1.391 . S
C2105 H2093 0.950 . S
C2105 C2101 1.393 . S
C2105 C2104 1.391 . S
C2106 H2096 0.950 . S
C2106 C2107 1.386 . S
C2106 C2108 1.391 . S
C2107 C2106 1.386 . S
C2107 C2111 1.393 . S
C2108 H2097 0.950 . S
C2108 C2106 1.391 . S
C2108 C2109 1.400 . S
C2109 C2103 1.491 1_556 S
C2109 C2108 1.400 . S
C2109 C2110 1.398 . S
C2110 H2098 0.950 . S
C2110 C2109 1.398 . S
C2110 C2111 1.391 . S
C2111 H2099 0.950 . S
C2111 C2107 1.393 . S
C2111 C2110 1.391 . S
H2112 C2120 0.950 . S
H2113 C2125 0.950 . S
H2114 C2122 0.950 . S
H2115 C2124 0.950 . S
H2116 C2126 0.950 . S
H2117 C2128 0.950 . S
H2118 C2130 0.950 . S
H2119 C2131 0.950 . S
C2120 H2112 0.950 . S
C2120 C2121 1.386 . S
C2120 C2122 1.391 . S
C2121 C2120 1.386 . S
C2121 C2125 1.393 . S
C2122 H2114 0.950 . S
C2122 C2120 1.391 . S
C2122 C2123 1.400 . S
C2123 C2122 1.400 . S
C2123 C2124 1.398 . S
C2123 C2129 1.491 . S
C2124 H2115 0.950 . S
C2124 C2123 1.398 . S
C2124 C2125 1.391 . S
C2125 H2113 0.950 . S
C2125 C2121 1.393 . S
C2125 C2124 1.391 . S
C2126 H2116 0.950 . S
C2126 C2127 1.386 . S
C2126 C2128 1.391 . S
C2127 C2126 1.386 . S
C2127 C2131 1.393 . S
C2128 H2117 0.950 . S
C2128 C2126 1.391 . S
C2128 C2129 1.400 . S
C2129 C2123 1.491 . S
C2129 C2128 1.400 . S
C2129 C2130 1.398 . S
C2130 H2118 0.950 . S
C2130 C2129 1.398 . S
C2130 C2131 1.391 . S
C2131 H2119 0.950 . S
C2131 C2127 1.393 . S
C2131 C2130 1.391 . S
H2132 C2140 0.950 . S
H2133 C2145 0.950 . S
H2134 C2142 0.950 . S
H2135 C2144 0.950 . S
H2136 C2146 0.950 . S
H2137 C2148 0.950 . S
H2138 C2150 0.950 . S
H2139 C2151 0.950 . S
C2140 H2132 0.950 . S
C2140 C2141 1.386 . S
C2140 C2142 1.391 . S
C2141 C2140 1.386 . S
C2141 C2145 1.393 . S
C2142 H2134 0.950 . S
C2142 C2140 1.391 . S
C2142 C2143 1.400 . S
C2143 C2142 1.400 . S
C2143 C2144 1.398 . S
C2143 C2149 1.491 . S
C2144 H2135 0.950 . S
C2144 C2143 1.398 . S
C2144 C2145 1.391 . S
C2145 H2133 0.950 . S
C2145 C2141 1.393 . S
C2145 C2144 1.391 . S
C2146 H2136 0.950 . S
C2146 C2147 1.386 . S
C2146 C2148 1.391 . S
C2147 C2146 1.386 . S
C2147 C2151 1.393 . S
C2148 H2137 0.950 . S
C2148 C2146 1.391 . S
C2148 C2149 1.400 . S
C2149 C2143 1.491 . S
C2149 C2148 1.400 . S
C2149 C2150 1.398 . S
C2150 H2138 0.950 . S
C2150 C2149 1.398 . S
C2150 C2151 1.391 . S
C2151 H2139 0.950 . S
C2151 C2147 1.393 . S
C2151 C2150 1.391 . S
H2152 C2160 0.950 . S
H2153 C2165 0.950 . S
H2154 C2162 0.950 . S
H2155 C2164 0.950 . S
H2156 C2166 0.950 . S
H2157 C2168 0.950 . S
H2158 C2170 0.950 . S
H2159 C2171 0.950 . S
C2160 H2152 0.950 . S
C2160 C2161 1.386 . S
C2160 C2162 1.391 . S
C2161 C2160 1.386 . S
C2161 C2165 1.393 . S
C2162 H2154 0.950 . S
C2162 C2160 1.391 . S
C2162 C2163 1.400 . S
C2163 C2162 1.400 . S
C2163 C2164 1.398 . S
C2163 C2169 1.491 . S
C2164 H2155 0.950 . S
C2164 C2163 1.398 . S
C2164 C2165 1.391 . S
C2165 H2153 0.950 . S
C2165 C2161 1.393 . S
C2165 C2164 1.391 . S
C2166 H2156 0.950 . S
C2166 C2167 1.386 . S
C2166 C2168 1.391 . S
C2167 C2166 1.386 . S
C2167 C2171 1.393 . S
C2168 H2157 0.950 . S
C2168 C2166 1.391 . S
C2168 C2169 1.400 . S
C2169 C2163 1.491 . S
C2169 C2168 1.400 . S
C2169 C2170 1.398 . S
C2170 H2158 0.950 . S
C2170 C2169 1.398 . S
C2170 C2171 1.391 . S
C2171 H2159 0.950 . S
C2171 C2167 1.393 . S
C2171 C2170 1.391 . S
H2172 C2180 0.950 . S
H2173 C2185 0.950 . S
H2174 C2182 0.950 . S
H2175 C2184 0.950 . S
H2176 C2186 0.950 . S
H2177 C2188 0.950 . S
H2178 C2190 0.950 . S
H2179 C2191 0.950 . S
C2180 H2172 0.950 . S
C2180 C2181 1.386 . S
C2180 C2182 1.391 . S
C2181 C2180 1.386 . S
C2181 C2185 1.393 . S
C2182 H2174 0.950 . S
C2182 C2180 1.391 . S
C2182 C2183 1.400 . S
C2183 C2182 1.400 . S
C2183 C2184 1.398 . S
C2183 C2189 1.491 . S
C2184 H2175 0.950 . S
C2184 C2183 1.398 . S
C2184 C2185 1.391 . S
C2185 H2173 0.950 . S
C2185 C2181 1.393 . S
C2185 C2184 1.391 . S
C2186 H2176 0.950 . S
C2186 C2187 1.386 . S
C2186 C2188 1.391 . S
C2187 C2186 1.386 . S
C2187 C2191 1.393 . S
C2188 H2177 0.950 . S
C2188 C2186 1.391 . S
C2188 C2189 1.400 . S
C2189 C2183 1.491 . S
C2189 C2188 1.400 . S
C2189 C2190 1.398 . S
C2190 H2178 0.950 . S
C2190 C2189 1.398 . S
C2190 C2191 1.391 . S
C2191 H2179 0.950 . S
C2191 C2187 1.393 . S
C2191 C2190 1.391 . S
H2192 C2200 0.950 . S
H2193 C2205 0.950 . S
H2194 C2202 0.950 . S
H2195 C2204 0.950 . S
H2196 C2206 0.950 . S
H2197 C2208 0.950 . S
H2198 C2210 0.950 . S
H2199 C2211 0.950 . S
C2200 H2192 0.950 . S
C2200 C2201 1.386 . S
C2200 C2202 1.391 . S
C2201 C2200 1.386 . S
C2201 C2205 1.393 . S
C2202 H2194 0.950 . S
C2202 C2200 1.391 . S
C2202 C2203 1.400 . S
C2203 C2202 1.400 . S
C2203 C2204 1.398 . S
C2203 C2209 1.491 . S
C2204 H2195 0.950 . S
C2204 C2203 1.398 . S
C2204 C2205 1.391 . S
C2205 H2193 0.950 . S
C2205 C2201 1.393 . S
C2205 C2204 1.391 . S
C2206 H2196 0.950 . S
C2206 C2207 1.386 . S
C2206 C2208 1.391 . S
C2207 C2206 1.386 . S
C2207 C2211 1.393 . S
C2208 H2197 0.950 . S
C2208 C2206 1.391 . S
C2208 C2209 1.400 . S
C2209 C2203 1.491 . S
C2209 C2208 1.400 . S
C2209 C2210 1.398 . S
C2210 H2198 0.950 . S
C2210 C2209 1.398 . S
C2210 C2211 1.391 . S
C2211 H2199 0.950 . S
C2211 C2207 1.393 . S
C2211 C2210 1.391 . S
H2212 C2220 0.950 . S
H2213 C2225 0.950 . S
H2214 C2222 0.950 . S
H2215 C2224 0.950 . S
H2216 C2226 0.950 . S
H2217 C2228 0.950 . S
H2218 C2230 0.950 . S
H2219 C2231 0.950 . S
C2220 H2212 0.950 . S
C2220 C2221 1.386 . S
C2220 C2222 1.391 . S
C2221 C2220 1.386 . S
C2221 C2225 1.393 . S
C2222 H2214 0.950 . S
C2222 C2220 1.391 . S
C2222 C2223 1.400 . S
C2223 C2222 1.400 . S
C2223 C2224 1.398 . S
C2223 C2229 1.491 . S
C2224 H2215 0.950 . S
C2224 C2223 1.398 . S
C2224 C2225 1.391 . S
C2225 H2213 0.950 . S
C2225 C2221 1.393 . S
C2225 C2224 1.391 . S
C2226 H2216 0.950 . S
C2226 C2227 1.386 . S
C2226 C2228 1.391 . S
C2227 C2226 1.386 . S
C2227 C2231 1.393 . S
C2228 H2217 0.950 . S
C2228 C2226 1.391 . S
C2228 C2229 1.400 . S
C2229 C2223 1.491 . S
C2229 C2228 1.400 . S
C2229 C2230 1.398 . S
C2230 H2218 0.950 . S
C2230 C2229 1.398 . S
C2230 C2231 1.391 . S
C2231 H2219 0.950 . S
C2231 C2227 1.393 . S
C2231 C2230 1.391 . S
H2232 C2240 0.950 . S
H2233 C2245 0.950 . S
H2234 C2242 0.950 . S
H2235 C2244 0.950 . S
H2236 C2246 0.950 . S
H2237 C2248 0.950 . S
H2238 C2250 0.950 . S
H2239 C2251 0.950 . S
C2240 H2232 0.950 . S
C2240 C2241 1.386 . S
C2240 C2242 1.391 . S
C2241 C2240 1.386 . S
C2241 C2245 1.393 . S
C2242 H2234 0.950 . S
C2242 C2240 1.391 . S
C2242 C2243 1.400 . S
C2243 C2242 1.400 . S
C2243 C2244 1.398 . S
C2243 C2249 1.491 . S
C2244 H2235 0.950 . S
C2244 C2243 1.398 . S
C2244 C2245 1.391 . S
C2245 H2233 0.950 . S
C2245 C2241 1.393 . S
C2245 C2244 1.391 . S
C2246 H2236 0.950 . S
C2246 C2247 1.386 . S
C2246 C2248 1.391 . S
C2247 C2246 1.386 . S
C2247 C2251 1.393 . S
C2248 H2237 0.950 . S
C2248 C2246 1.391 . S
C2248 C2249 1.400 . S
C2249 C2243 1.491 . S
C2249 C2248 1.400 . S
C2249 C2250 1.398 . S
C2250 H2238 0.950 . S
C2250 C2249 1.398 . S
C2250 C2251 1.391 . S
C2251 H2239 0.950 . S
C2251 C2247 1.393 . S
C2251 C2250 1.391 . S
H2252 C2260 0.950 . S
H2253 C2265 0.950 . S
H2254 C2262 0.950 . S
H2255 C2264 0.950 . S
H2256 C2266 0.950 . S
H2257 C2268 0.950 . S
H2258 C2270 0.950 . S
H2259 C2271 0.950 . S
C2260 H2252 0.950 . S
C2260 C2261 1.386 . S
C2260 C2262 1.391 . S
C2261 C2260 1.386 . S
C2261 C2265 1.393 . S
C2262 H2254 0.950 . S
C2262 C2260 1.391 . S
C2262 C2263 1.400 . S
C2263 C2262 1.400 . S
C2263 C2264 1.398 . S
C2263 C2269 1.491 . S
C2264 H2255 0.950 . S
C2264 C2263 1.398 . S
C2264 C2265 1.391 . S
C2265 H2253 0.950 . S
C2265 C2261 1.393 . S
C2265 C2264 1.391 . S
C2266 H2256 0.950 . S
C2266 C2267 1.386 . S
C2266 C2268 1.391 . S
C2267 C2266 1.386 . S
C2267 C2271 1.393 . S
C2268 H2257 0.950 . S
C2268 C2266 1.391 . S
C2268 C2269 1.400 . S
C2269 C2263 1.491 . S
C2269 C2268 1.400 . S
C2269 C2270 1.398 . S
C2270 H2258 0.950 . S
C2270 C2269 1.398 . S
C2270 C2271 1.391 . S
C2271 H2259 0.950 . S
C2271 C2267 1.393 . S
C2271 C2270 1.391 . S
H2272 C2280 0.950 . S
H2273 C2285 0.950 1_545 S
H2274 C2282 0.950 . S
H2275 C2284 0.950 . S
H2276 C2286 0.950 . S
H2277 C2288 0.950 . S
H2278 C2290 0.950 . S
H2279 C2291 0.950 . S
C2280 H2272 0.950 . S
C2280 C2281 1.386 . S
C2280 C2282 1.391 . S
C2281 C2280 1.386 . S
C2281 C2285 1.393 . S
C2282 H2274 0.950 . S
C2282 C2280 1.391 . S
C2282 C2283 1.400 . S
C2283 C2282 1.400 . S
C2283 C2284 1.398 . S
C2283 C2289 1.491 . S
C2284 H2275 0.950 . S
C2284 C2283 1.398 . S
C2284 C2285 1.391 . S
C2285 H2273 0.950 1_565 S
C2285 C2281 1.393 . S
C2285 C2284 1.391 . S
C2286 H2276 0.950 . S
C2286 C2287 1.386 . S
C2286 C2288 1.391 . S
C2287 C2286 1.386 . S
C2287 C2291 1.393 . S
C2288 H2277 0.950 . S
C2288 C2286 1.391 . S
C2288 C2289 1.400 . S
C2289 C2283 1.491 . S
C2289 C2288 1.400 . S
C2289 C2290 1.398 . S
C2290 H2278 0.950 . S
C2290 C2289 1.398 . S
C2290 C2291 1.391 . S
C2291 H2279 0.950 . S
C2291 C2287 1.393 . S
C2291 C2290 1.391 . S
H2292 C2300 0.950 . S
H2293 C2305 0.950 . S
H2294 C2302 0.950 . S
H2295 C2304 0.950 . S
H2296 C2306 0.950 . S
H2297 C2308 0.950 . S
H2298 C2310 0.950 . S
H2299 C2311 0.950 . S
C2300 H2292 0.950 . S
C2300 C2301 1.386 . S
C2300 C2302 1.391 . S
C2301 C2300 1.386 . S
C2301 C2305 1.393 . S
C2302 H2294 0.950 . S
C2302 C2300 1.391 . S
C2302 C2303 1.400 . S
C2303 C2302 1.400 . S
C2303 C2304 1.398 . S
C2303 C2309 1.491 . S
C2304 H2295 0.950 . S
C2304 C2303 1.398 . S
C2304 C2305 1.391 . S
C2305 H2293 0.950 . S
C2305 C2301 1.393 . S
C2305 C2304 1.391 . S
C2306 H2296 0.950 . S
C2306 C2307 1.386 . S
C2306 C2308 1.391 . S
C2307 C2306 1.386 . S
C2307 C2311 1.393 . S
C2308 H2297 0.950 . S
C2308 C2306 1.391 . S
C2308 C2309 1.400 . S
C2309 C2303 1.491 . S
C2309 C2308 1.400 . S
C2309 C2310 1.398 . S
C2310 H2298 0.950 . S
C2310 C2309 1.398 . S
C2310 C2311 1.391 . S
C2311 H2299 0.950 . S
C2311 C2307 1.393 . S
C2311 C2310 1.391 . S
H2312 C2320 0.950 . S
H2313 C2325 0.950 . S
H2314 C2322 0.950 . S
H2315 C2324 0.950 . S
H2316 C2326 0.950 . S
H2317 C2328 0.950 . S
H2318 C2330 0.950 . S
H2319 C2331 0.950 . S
C2320 H2312 0.950 . S
C2320 C2321 1.386 . S
C2320 C2322 1.391 . S
C2321 C2320 1.386 . S
C2321 C2325 1.393 . S
C2322 H2314 0.950 . S
C2322 C2320 1.391 . S
C2322 C2323 1.400 . S
C2323 C2322 1.400 . S
C2323 C2324 1.398 . S
C2323 C2329 1.491 . S
C2324 H2315 0.950 . S
C2324 C2323 1.398 . S
C2324 C2325 1.391 . S
C2325 H2313 0.950 . S
C2325 C2321 1.393 . S
C2325 C2324 1.391 . S
C2326 H2316 0.950 . S
C2326 C2327 1.386 . S
C2326 C2328 1.391 . S
C2327 C2326 1.386 . S
C2327 C2331 1.393 . S
C2328 H2317 0.950 . S
C2328 C2326 1.391 . S
C2328 C2329 1.400 . S
C2329 C2323 1.491 . S
C2329 C2328 1.400 . S
C2329 C2330 1.398 . S
C2330 H2318 0.950 . S
C2330 C2329 1.398 . S
C2330 C2331 1.391 . S
C2331 H2319 0.950 . S
C2331 C2327 1.393 . S
C2331 C2330 1.391 . S
H2332 C2340 0.950 . S
H2333 C2345 0.950 . S
H2334 C2342 0.950 . S
H2335 C2344 0.950 . S
H2336 C2346 0.950 . S
H2337 C2348 0.950 . S
H2338 C2350 0.950 . S
H2339 C2351 0.950 . S
C2340 H2332 0.950 . S
C2340 C2341 1.386 . S
C2340 C2342 1.391 . S
C2341 C2340 1.386 . S
C2341 C2345 1.393 . S
C2342 H2334 0.950 . S
C2342 C2340 1.391 . S
C2342 C2343 1.400 . S
C2343 C2342 1.400 . S
C2343 C2344 1.398 . S
C2343 C2349 1.491 . S
C2344 H2335 0.950 . S
C2344 C2343 1.398 . S
C2344 C2345 1.391 . S
C2345 H2333 0.950 . S
C2345 C2341 1.393 . S
C2345 C2344 1.391 . S
C2346 H2336 0.950 . S
C2346 C2347 1.386 . S
C2346 C2348 1.391 . S
C2347 C2346 1.386 . S
C2347 C2351 1.393 . S
C2348 H2337 0.950 . S
C2348 C2346 1.391 . S
C2348 C2349 1.400 . S
C2349 C2343 1.491 . S
C2349 C2348 1.400 . S
C2349 C2350 1.398 . S
C2350 H2338 0.950 . S
C2350 C2349 1.398 . S
C2350 C2351 1.391 . S
C2351 H2339 0.950 . S
C2351 C2347 1.393 . S
C2351 C2350 1.391 . S
H2352 C2360 0.950 . S
H2353 C2365 0.950 . S
H2354 C2362 0.950 . S
H2355 C2364 0.950 . S
H2356 C2366 0.950 . S
H2357 C2368 0.950 . S
H2358 C2370 0.950 . S
H2359 C2371 0.950 . S
C2360 H2352 0.950 . S
C2360 C2361 1.386 . S
C2360 C2362 1.391 . S
C2361 C2360 1.386 . S
C2361 C2365 1.393 . S
C2362 H2354 0.950 . S
C2362 C2360 1.391 . S
C2362 C2363 1.400 . S
C2363 C2362 1.400 . S
C2363 C2364 1.398 . S
C2363 C2369 1.491 . S
C2364 H2355 0.950 . S
C2364 C2363 1.398 . S
C2364 C2365 1.391 . S
C2365 H2353 0.950 . S
C2365 C2361 1.393 . S
C2365 C2364 1.391 . S
C2366 H2356 0.950 . S
C2366 C2367 1.386 . S
C2366 C2368 1.391 . S
C2367 C2366 1.386 . S
C2367 C2371 1.393 . S
C2368 H2357 0.950 . S
C2368 C2366 1.391 . S
C2368 C2369 1.400 . S
C2369 C2363 1.491 . S
C2369 C2368 1.400 . S
C2369 C2370 1.398 . S
C2370 H2358 0.950 . S
C2370 C2369 1.398 . S
C2370 C2371 1.391 . S
C2371 H2359 0.950 . S
C2371 C2367 1.393 . S
C2371 C2370 1.391 . S
H2372 C2380 0.950 . S
H2373 C2385 0.950 . S
H2374 C2382 0.950 . S
H2375 C2384 0.950 . S
H2376 C2386 0.950 . S
H2377 C2388 0.950 . S
H2378 C2390 0.950 . S
H2379 C2391 0.950 . S
C2380 H2372 0.950 . S
C2380 C2381 1.386 . S
C2380 C2382 1.391 . S
C2381 C2380 1.386 . S
C2381 C2385 1.393 . S
C2382 H2374 0.950 . S
C2382 C2380 1.391 . S
C2382 C2383 1.400 . S
C2383 C2382 1.400 . S
C2383 C2384 1.398 . S
C2383 C2389 1.491 . S
C2384 H2375 0.950 . S
C2384 C2383 1.398 . S
C2384 C2385 1.391 . S
C2385 H2373 0.950 . S
C2385 C2381 1.393 . S
C2385 C2384 1.391 . S
C2386 H2376 0.950 . S
C2386 C2387 1.386 . S
C2386 C2388 1.391 . S
C2387 C2386 1.386 . S
C2387 C2391 1.393 . S
C2388 H2377 0.950 . S
C2388 C2386 1.391 . S
C2388 C2389 1.400 . S
C2389 C2383 1.491 . S
C2389 C2388 1.400 . S
C2389 C2390 1.398 . S
C2390 H2378 0.950 . S
C2390 C2389 1.398 . S
C2390 C2391 1.391 . S
C2391 H2379 0.950 . S
C2391 C2387 1.393 . S
C2391 C2390 1.391 . S
H2392 C2400 0.950 . S
H2393 C2405 0.950 . S
H2394 C2402 0.950 . S
H2395 C2404 0.950 . S
H2396 C2406 0.950 . S
H2397 C2408 0.950 . S
H2398 C2410 0.950 . S
H2399 C2411 0.950 . S
C2400 H2392 0.950 . S
C2400 C2401 1.386 . S
C2400 C2402 1.391 . S
C2401 C2400 1.386 . S
C2401 C2405 1.393 . S
C2402 H2394 0.950 . S
C2402 C2400 1.391 . S
C2402 C2403 1.400 . S
C2403 C2402 1.400 . S
C2403 C2404 1.398 . S
C2403 C2409 1.491 . S
C2404 H2395 0.950 . S
C2404 C2403 1.398 . S
C2404 C2405 1.391 . S
C2405 H2393 0.950 . S
C2405 C2401 1.393 . S
C2405 C2404 1.391 . S
C2406 H2396 0.950 . S
C2406 C2407 1.386 . S
C2406 C2408 1.391 . S
C2407 C2406 1.386 . S
C2407 C2411 1.393 . S
C2408 H2397 0.950 . S
C2408 C2406 1.391 . S
C2408 C2409 1.400 . S
C2409 C2403 1.491 . S
C2409 C2408 1.400 . S
C2409 C2410 1.398 . S
C2410 H2398 0.950 . S
C2410 C2409 1.398 . S
C2410 C2411 1.391 . S
C2411 H2399 0.950 . S
C2411 C2407 1.393 . S
C2411 C2410 1.391 . S
H2412 C2420 0.950 . S
H2413 C2425 0.950 . S
H2414 C2422 0.950 . S
H2415 C2424 0.950 . S
H2416 C2426 0.950 . S
H2417 C2428 0.950 . S
H2418 C2430 0.950 . S
H2419 C2431 0.950 . S
C2420 H2412 0.950 . S
C2420 C2421 1.386 . S
C2420 C2422 1.391 . S
C2421 C2420 1.386 . S
C2421 C2425 1.393 . S
C2422 H2414 0.950 . S
C2422 C2420 1.391 . S
C2422 C2423 1.400 . S
C2423 C2422 1.400 . S
C2423 C2424 1.398 . S
C2423 C2429 1.491 . S
C2424 H2415 0.950 . S
C2424 C2423 1.398 . S
C2424 C2425 1.391 . S
C2425 H2413 0.950 . S
C2425 C2421 1.393 . S
C2425 C2424 1.391 . S
C2426 H2416 0.950 . S
C2426 C2427 1.386 . S
C2426 C2428 1.391 . S
C2427 C2426 1.386 . S
C2427 C2431 1.393 . S
C2428 H2417 0.950 . S
C2428 C2426 1.391 . S
C2428 C2429 1.400 . S
C2429 C2423 1.491 . S
C2429 C2428 1.400 . S
C2429 C2430 1.398 . S
C2430 H2418 0.950 . S
C2430 C2429 1.398 . S
C2430 C2431 1.391 . S
C2431 H2419 0.950 . S
C2431 C2427 1.393 . S
C2431 C2430 1.391 . S
H2432 C2440 0.950 . S
H2433 C2445 0.950 . S
H2434 C2442 0.950 . S
H2435 C2444 0.950 . S
H2436 C2446 0.950 . S
H2437 C2448 0.950 . S
H2438 C2450 0.950 . S
H2439 C2451 0.950 . S
C2440 H2432 0.950 . S
C2440 C2441 1.386 . S
C2440 C2442 1.391 . S
C2441 C2440 1.386 . S
C2441 C2445 1.393 . S
C2442 H2434 0.950 . S
C2442 C2440 1.391 . S
C2442 C2443 1.400 . S
C2443 C2442 1.400 . S
C2443 C2444 1.398 . S
C2443 C2449 1.491 . S
C2444 H2435 0.950 . S
C2444 C2443 1.398 . S
C2444 C2445 1.391 . S
C2445 H2433 0.950 . S
C2445 C2441 1.393 . S
C2445 C2444 1.391 . S
C2446 H2436 0.950 . S
C2446 C2447 1.386 . S
C2446 C2448 1.391 . S
C2447 C2446 1.386 . S
C2447 C2451 1.393 . S
C2448 H2437 0.950 . S
C2448 C2446 1.391 . S
C2448 C2449 1.400 . S
C2449 C2443 1.491 . S
C2449 C2448 1.400 . S
C2449 C2450 1.398 . S
C2450 H2438 0.950 . S
C2450 C2449 1.398 . S
C2450 C2451 1.391 . S
C2451 H2439 0.950 . S
C2451 C2447 1.393 . S
C2451 C2450 1.391 . S
H2452 C2460 0.950 . S
H2453 C2465 0.950 . S
H2454 C2462 0.950 . S
H2455 C2464 0.950 . S
H2456 C2466 0.950 . S
H2457 C2468 0.950 . S
H2458 C2470 0.950 . S
H2459 C2471 0.950 . S
C2460 H2452 0.950 . S
C2460 C2461 1.386 . S
C2460 C2462 1.391 . S
C2461 C2460 1.386 . S
C2461 C2465 1.393 . S
C2462 H2454 0.950 . S
C2462 C2460 1.391 . S
C2462 C2463 1.400 . S
C2463 C2462 1.400 . S
C2463 C2464 1.398 . S
C2463 C2469 1.491 . S
C2464 H2455 0.950 . S
C2464 C2463 1.398 . S
C2464 C2465 1.391 . S
C2465 H2453 0.950 . S
C2465 C2461 1.393 . S
C2465 C2464 1.391 . S
C2466 H2456 0.950 . S
C2466 C2467 1.386 . S
C2466 C2468 1.391 . S
C2467 C2466 1.386 . S
C2467 C2471 1.393 . S
C2468 H2457 0.950 . S
C2468 C2466 1.391 . S
C2468 C2469 1.400 . S
C2469 C2463 1.491 . S
C2469 C2468 1.400 . S
C2469 C2470 1.398 . S
C2470 H2458 0.950 . S
C2470 C2469 1.398 . S
C2470 C2471 1.391 . S
C2471 H2459 0.950 . S
C2471 C2467 1.393 . S
C2471 C2470 1.391 . S
H2472 C2480 0.950 . S
H2473 C2485 0.950 . S
H2474 C2482 0.950 . S
H2475 C2484 0.950 . S
H2476 C2486 0.950 . S
H2477 C2488 0.950 . S
H2478 C2490 0.950 . S
H2479 C2491 0.950 . S
C2480 H2472 0.950 . S
C2480 C2481 1.386 . S
C2480 C2482 1.391 . S
C2481 C2480 1.386 . S
C2481 C2485 1.393 . S
C2482 H2474 0.950 . S
C2482 C2480 1.391 . S
C2482 C2483 1.400 . S
C2483 C2482 1.400 . S
C2483 C2484 1.398 . S
C2483 C2489 1.491 . S
C2484 H2475 0.950 . S
C2484 C2483 1.398 . S
C2484 C2485 1.391 . S
C2485 H2473 0.950 . S
C2485 C2481 1.393 . S
C2485 C2484 1.391 . S
C2486 H2476 0.950 . S
C2486 C2487 1.386 . S
C2486 C2488 1.391 . S
C2487 C2486 1.386 . S
C2487 C2491 1.393 . S
C2488 H2477 0.950 . S
C2488 C2486 1.391 . S
C2488 C2489 1.400 . S
C2489 C2483 1.491 . S
C2489 C2488 1.400 . S
C2489 C2490 1.398 . S
C2490 H2478 0.950 . S
C2490 C2489 1.398 . S
C2490 C2491 1.391 . S
C2491 H2479 0.950 . S
C2491 C2487 1.393 . S
C2491 C2490 1.391 . S
H2492 C2500 0.950 . S
H2493 C2505 0.950 . S
H2494 C2502 0.950 . S
H2495 C2504 0.950 . S
H2496 C2506 0.950 . S
H2497 C2508 0.950 . S
H2498 C2510 0.950 . S
H2499 C2511 0.950 . S
C2500 H2492 0.950 . S
C2500 C2501 1.386 . S
C2500 C2502 1.391 . S
C2501 C2500 1.386 . S
C2501 C2505 1.393 . S
C2502 H2494 0.950 . S
C2502 C2500 1.391 . S
C2502 C2503 1.400 . S
C2503 C2502 1.400 . S
C2503 C2504 1.398 . S
C2503 C2509 1.491 . S
C2504 H2495 0.950 . S
C2504 C2503 1.398 . S
C2504 C2505 1.391 . S
C2505 H2493 0.950 . S
C2505 C2501 1.393 . S
C2505 C2504 1.391 . S
C2506 H2496 0.950 . S
C2506 C2507 1.386 . S
C2506 C2508 1.391 . S
C2507 C2506 1.386 . S
C2507 C2511 1.393 . S
C2508 H2497 0.950 . S
C2508 C2506 1.391 . S
C2508 C2509 1.400 . S
C2509 C2503 1.491 . S
C2509 C2508 1.400 . S
C2509 C2510 1.398 . S
C2510 H2498 0.950 . S
C2510 C2509 1.398 . S
C2510 C2511 1.391 . S
C2511 H2499 0.950 . S
C2511 C2507 1.393 . S
C2511 C2510 1.391 . S
H2512 C2520 0.950 . S
H2513 C2525 0.950 . S
H2514 C2522 0.950 . S
H2515 C2524 0.950 . S
H2516 C2526 0.950 . S
H2517 C2528 0.950 . S
H2518 C2530 0.950 . S
H2519 C2531 0.950 . S
C2520 H2512 0.950 . S
C2520 C2521 1.386 . S
C2520 C2522 1.391 . S
C2521 C2520 1.386 . S
C2521 C2525 1.393 . S
C2522 H2514 0.950 . S
C2522 C2520 1.391 . S
C2522 C2523 1.400 . S
C2523 C2522 1.400 . S
C2523 C2524 1.398 . S
C2523 C2529 1.491 . S
C2524 H2515 0.950 . S
C2524 C2523 1.398 . S
C2524 C2525 1.391 . S
C2525 H2513 0.950 . S
C2525 C2521 1.393 . S
C2525 C2524 1.391 . S
C2526 H2516 0.950 . S
C2526 C2527 1.386 . S
C2526 C2528 1.391 . S
C2527 C2526 1.386 . S
C2527 C2531 1.393 . S
C2528 H2517 0.950 . S
C2528 C2526 1.391 . S
C2528 C2529 1.400 . S
C2529 C2523 1.491 . S
C2529 C2528 1.400 . S
C2529 C2530 1.398 . S
C2530 H2518 0.950 . S
C2530 C2529 1.398 . S
C2530 C2531 1.391 . S
C2531 H2519 0.950 . S
C2531 C2527 1.393 . S
C2531 C2530 1.391 . S
H2532 C2540 0.950 . S
H2533 C2545 0.950 . S
H2534 C2542 0.950 . S
H2535 C2544 0.950 . S
H2536 C2546 0.950 . S
H2537 C2548 0.950 . S
H2538 C2550 0.950 . S
H2539 C2551 0.950 . S
C2540 H2532 0.950 . S
C2540 C2541 1.386 . S
C2540 C2542 1.391 . S
C2541 C2540 1.386 . S
C2541 C2545 1.393 . S
C2542 H2534 0.950 . S
C2542 C2540 1.391 . S
C2542 C2543 1.400 . S
C2543 C2542 1.400 . S
C2543 C2544 1.398 . S
C2543 C2549 1.491 . S
C2544 H2535 0.950 . S
C2544 C2543 1.398 . S
C2544 C2545 1.391 . S
C2545 H2533 0.950 . S
C2545 C2541 1.393 . S
C2545 C2544 1.391 . S
C2546 H2536 0.950 . S
C2546 C2547 1.386 . S
C2546 C2548 1.391 . S
C2547 C2546 1.386 . S
C2547 C2551 1.393 . S
C2548 H2537 0.950 . S
C2548 C2546 1.391 . S
C2548 C2549 1.400 . S
C2549 C2543 1.491 . S
C2549 C2548 1.400 . S
C2549 C2550 1.398 . S
C2550 H2538 0.950 . S
C2550 C2549 1.398 . S
C2550 C2551 1.391 . S
C2551 H2539 0.950 . S
C2551 C2547 1.393 . S
C2551 C2550 1.391 . S
H2552 C2560 0.950 . S
H2553 C2565 0.950 . S
H2554 C2562 0.950 . S
H2555 C2564 0.950 . S
H2556 C2566 0.950 . S
H2557 C2568 0.950 . S
H2558 C2570 0.950 . S
H2559 C2571 0.950 . S
C2560 H2552 0.950 . S
C2560 C2561 1.386 . S
C2560 C2562 1.391 . S
C2561 C2560 1.386 . S
C2561 C2565 1.393 . S
C2562 H2554 0.950 . S
C2562 C2560 1.391 . S
C2562 C2563 1.400 . S
C2563 C2562 1.400 . S
C2563 C2564 1.398 . S
C2563 C2569 1.491 . S
C2564 H2555 0.950 . S
C2564 C2563 1.398 . S
C2564 C2565 1.391 . S
C2565 H2553 0.950 . S
C2565 C2561 1.393 . S
C2565 C2564 1.391 . S
C2566 H2556 0.950 . S
C2566 C2567 1.386 . S
C2566 C2568 1.391 . S
C2567 C2566 1.386 . S
C2567 C2571 1.393 . S
C2568 H2557 0.950 . S
C2568 C2566 1.391 . S
C2568 C2569 1.400 . S
C2569 C2563 1.491 . S
C2569 C2568 1.400 . S
C2569 C2570 1.398 . S
C2570 H2558 0.950 . S
C2570 C2569 1.398 . S
C2570 C2571 1.391 . S
C2571 H2559 0.950 . S
C2571 C2567 1.393 . S
C2571 C2570 1.391 . S
H2572 C2580 0.950 . S
H2573 C2585 0.950 . S
H2574 C2582 0.950 . S
H2575 C2584 0.950 . S
H2576 C2586 0.950 . S
H2577 C2588 0.950 . S
H2578 C2590 0.950 . S
H2579 C2591 0.950 . S
C2580 H2572 0.950 . S
C2580 C2581 1.386 . S
C2580 C2582 1.391 . S
C2581 C2580 1.386 . S
C2581 C2585 1.393 . S
C2582 H2574 0.950 . S
C2582 C2580 1.391 . S
C2582 C2583 1.400 . S
C2583 C2582 1.400 . S
C2583 C2584 1.398 . S
C2583 C2589 1.491 . S
C2584 H2575 0.950 . S
C2584 C2583 1.398 . S
C2584 C2585 1.391 . S
C2585 H2573 0.950 . S
C2585 C2581 1.393 . S
C2585 C2584 1.391 . S
C2586 H2576 0.950 . S
C2586 C2587 1.386 . S
C2586 C2588 1.391 . S
C2587 C2586 1.386 . S
C2587 C2591 1.393 . S
C2588 H2577 0.950 . S
C2588 C2586 1.391 . S
C2588 C2589 1.400 . S
C2589 C2583 1.491 . S
C2589 C2588 1.400 . S
C2589 C2590 1.398 . S
C2590 H2578 0.950 . S
C2590 C2589 1.398 . S
C2590 C2591 1.391 . S
C2591 H2579 0.950 . S
C2591 C2587 1.393 . S
C2591 C2590 1.391 . S
H2592 C2600 0.950 . S
H2593 C2605 0.950 . S
H2594 C2602 0.950 . S
H2595 C2604 0.950 . S
H2596 C2606 0.950 . S
H2597 C2608 0.950 . S
H2598 C2610 0.950 . S
H2599 C2611 0.950 . S
C2600 H2592 0.950 . S
C2600 C2601 1.386 . S
C2600 C2602 1.391 . S
C2601 C2600 1.386 . S
C2601 C2605 1.393 . S
C2602 H2594 0.950 . S
C2602 C2600 1.391 . S
C2602 C2603 1.400 . S
C2603 C2602 1.400 . S
C2603 C2604 1.398 . S
C2603 C2609 1.491 . S
C2604 H2595 0.950 . S
C2604 C2603 1.398 . S
C2604 C2605 1.391 . S
C2605 H2593 0.950 . S
C2605 C2601 1.393 . S
C2605 C2604 1.391 . S
C2606 H2596 0.950 . S
C2606 C2607 1.386 1_655 S
C2606 C2608 1.391 . S
C2607 C2606 1.386 1_455 S
C2607 C2611 1.393 . S
C2608 H2597 0.950 . S
C2608 C2606 1.391 . S
C2608 C2609 1.400 . S
C2609 C2603 1.491 . S
C2609 C2608 1.400 . S
C2609 C2610 1.398 1_655 S
C2610 H2598 0.950 . S
C2610 C2609 1.398 1_455 S
C2610 C2611 1.391 . S
C2611 H2599 0.950 . S
C2611 C2607 1.393 . S
C2611 C2610 1.391 . S
H2612 C2620 0.950 . S
H2613 C2625 0.950 . S
H2614 C2622 0.950 . S
H2615 C2624 0.950 . S
H2616 C2626 0.950 . S
H2617 C2628 0.950 . S
H2618 C2630 0.950 . S
H2619 C2631 0.950 . S
C2620 H2612 0.950 . S
C2620 C2621 1.386 . S
C2620 C2622 1.391 . S
C2621 C2620 1.386 . S
C2621 C2625 1.393 . S
C2622 H2614 0.950 . S
C2622 C2620 1.391 . S
C2622 C2623 1.400 . S
C2623 C2622 1.400 . S
C2623 C2624 1.398 . S
C2623 C2629 1.491 . S
C2624 H2615 0.950 . S
C2624 C2623 1.398 . S
C2624 C2625 1.391 . S
C2625 H2613 0.950 . S
C2625 C2621 1.393 . S
C2625 C2624 1.391 . S
C2626 H2616 0.950 . S
C2626 C2627 1.386 . S
C2626 C2628 1.391 . S
C2627 C2626 1.386 . S
C2627 C2631 1.393 . S
C2628 H2617 0.950 . S
C2628 C2626 1.391 . S
C2628 C2629 1.400 . S
C2629 C2623 1.491 . S
C2629 C2628 1.400 . S
C2629 C2630 1.398 . S
C2630 H2618 0.950 . S
C2630 C2629 1.398 . S
C2630 C2631 1.391 . S
C2631 H2619 0.950 . S
C2631 C2627 1.393 . S
C2631 C2630 1.391 . S
H2632 C2640 0.950 . S
H2633 C2645 0.950 . S
H2634 C2642 0.950 . S
H2635 C2644 0.950 . S
H2636 C2646 0.950 . S
H2637 C2648 0.950 . S
H2638 C2650 0.950 . S
H2639 C2651 0.950 . S
C2640 H2632 0.950 . S
C2640 C2641 1.386 . S
C2640 C2642 1.391 . S
C2641 C2640 1.386 . S
C2641 C2645 1.393 . S
C2642 H2634 0.950 . S
C2642 C2640 1.391 . S
C2642 C2643 1.400 . S
C2643 C2642 1.400 . S
C2643 C2644 1.398 . S
C2643 C2649 1.491 . S
C2644 H2635 0.950 . S
C2644 C2643 1.398 . S
C2644 C2645 1.391 . S
C2645 H2633 0.950 . S
C2645 C2641 1.393 . S
C2645 C2644 1.391 . S
C2646 H2636 0.950 . S
C2646 C2647 1.386 . S
C2646 C2648 1.391 . S
C2647 C2646 1.386 . S
C2647 C2651 1.393 . S
C2648 H2637 0.950 . S
C2648 C2646 1.391 . S
C2648 C2649 1.400 . S
C2649 C2643 1.491 . S
C2649 C2648 1.400 . S
C2649 C2650 1.398 . S
C2650 H2638 0.950 . S
C2650 C2649 1.398 . S
C2650 C2651 1.391 . S
C2651 H2639 0.950 . S
C2651 C2647 1.393 . S
C2651 C2650 1.391 . S
H2652 C2660 0.950 . S
H2653 C2665 0.950 . S
H2654 C2662 0.950 . S
H2655 C2664 0.950 . S
H2656 C2666 0.950 . S
H2657 C2668 0.950 . S
H2658 C2670 0.950 . S
H2659 C2671 0.950 . S
C2660 H2652 0.950 . S
C2660 C2661 1.386 . S
C2660 C2662 1.391 . S
C2661 C2660 1.386 . S
C2661 C2665 1.393 . S
C2662 H2654 0.950 . S
C2662 C2660 1.391 . S
C2662 C2663 1.400 . S
C2663 C2662 1.400 . S
C2663 C2664 1.398 . S
C2663 C2669 1.491 . S
C2664 H2655 0.950 . S
C2664 C2663 1.398 . S
C2664 C2665 1.391 . S
C2665 H2653 0.950 . S
C2665 C2661 1.393 . S
C2665 C2664 1.391 . S
C2666 H2656 0.950 . S
C2666 C2667 1.386 . S
C2666 C2668 1.391 . S
C2667 C2666 1.386 . S
C2667 C2671 1.393 . S
C2668 H2657 0.950 . S
C2668 C2666 1.391 . S
C2668 C2669 1.400 . S
C2669 C2663 1.491 . S
C2669 C2668 1.400 . S
C2669 C2670 1.398 . S
C2670 H2658 0.950 . S
C2670 C2669 1.398 . S
C2670 C2671 1.391 . S
C2671 H2659 0.950 . S
C2671 C2667 1.393 . S
C2671 C2670 1.391 . S
H2672 C2680 0.950 . S
H2673 C2685 0.950 . S
H2674 C2682 0.950 . S
H2675 C2684 0.950 . S
H2676 C2686 0.950 . S
H2677 C2688 0.965 . S
H2678 C2690 0.950 . S
H2679 C2691 0.950 . S
C2680 H2672 0.950 . S
C2680 C2681 1.386 . S
C2680 C2682 1.391 . S
C2681 C2680 1.386 . S
C2681 C2685 1.393 . S
C2682 H2674 0.950 . S
C2682 C2680 1.391 . S
C2682 C2683 1.400 . S
C2683 C2682 1.400 . S
C2683 C2684 1.398 . S
C2683 C2689 1.491 . S
C2684 H2675 0.950 . S
C2684 C2683 1.398 . S
C2684 C2685 1.391 . S
C2685 H2673 0.950 . S
C2685 C2681 1.393 . S
C2685 C2684 1.391 . S
C2686 H2676 0.950 . S
C2686 C2687 1.386 1_455 S
C2686 C2688 1.391 1_455 S
C2687 C2686 1.386 1_655 S
C2687 C2691 1.393 . S
C2688 H2677 0.965 . S
C2688 C2686 1.391 1_655 S
C2688 C2689 1.400 . S
C2689 C2683 1.491 . S
C2689 C2688 1.400 . S
C2689 C2690 1.398 . S
C2690 H2678 0.950 . S
C2690 C2689 1.398 . S
C2690 C2691 1.391 . S
C2691 H2679 0.950 . S
C2691 C2687 1.393 . S
C2691 C2690 1.391 . S
H2692 C2700 0.950 . S
H2693 C2705 0.950 . S
H2694 C2702 0.950 . S
H2695 C2704 0.950 . S
H2696 C2706 0.950 . S
H2697 C2708 0.950 . S
H2698 C2710 0.950 . S
H2699 C2711 0.950 . S
C2700 H2692 0.950 . S
C2700 C2701 1.386 . S
C2700 C2702 1.391 . S
C2701 C2700 1.386 . S
C2701 C2705 1.393 . S
C2702 H2694 0.950 . S
C2702 C2700 1.391 . S
C2702 C2703 1.400 . S
C2703 C2702 1.400 . S
C2703 C2704 1.398 . S
C2703 C2709 1.491 . S
C2704 H2695 0.950 . S
C2704 C2703 1.398 . S
C2704 C2705 1.391 . S
C2705 H2693 0.950 . S
C2705 C2701 1.393 . S
C2705 C2704 1.391 . S
C2706 H2696 0.950 . S
C2706 C2707 1.386 . S
C2706 C2708 1.391 . S
C2707 C2706 1.386 . S
C2707 C2711 1.393 . S
C2708 H2697 0.950 . S
C2708 C2706 1.391 . S
C2708 C2709 1.400 . S
C2709 C2703 1.491 . S
C2709 C2708 1.400 . S
C2709 C2710 1.398 . S
C2710 H2698 0.950 . S
C2710 C2709 1.398 . S
C2710 C2711 1.391 . S
C2711 H2699 0.950 . S
C2711 C2707 1.393 . S
C2711 C2710 1.391 . S
H2712 C2720 0.950 . S
H2713 C2725 0.950 . S
H2714 C2722 0.950 . S
H2715 C2724 0.950 . S
H2716 C2726 0.950 . S
H2717 C2728 0.950 . S
H2718 C2730 0.950 . S
H2719 C2731 0.950 . S
C2720 H2712 0.950 . S
C2720 C2721 1.386 . S
C2720 C2722 1.391 . S
C2721 C2720 1.386 . S
C2721 C2725 1.393 . S
C2722 H2714 0.950 . S
C2722 C2720 1.391 . S
C2722 C2723 1.400 . S
C2723 C2722 1.400 . S
C2723 C2724 1.398 . S
C2723 C2729 1.491 . S
C2724 H2715 0.950 . S
C2724 C2723 1.398 . S
C2724 C2725 1.391 . S
C2725 H2713 0.950 . S
C2725 C2721 1.393 . S
C2725 C2724 1.391 . S
C2726 H2716 0.950 . S
C2726 C2727 1.386 . S
C2726 C2728 1.391 . S
C2727 C2726 1.386 . S
C2727 C2731 1.393 . S
C2728 H2717 0.950 . S
C2728 C2726 1.391 . S
C2728 C2729 1.400 . S
C2729 C2723 1.491 . S
C2729 C2728 1.400 . S
C2729 C2730 1.398 . S
C2730 H2718 0.950 . S
C2730 C2729 1.398 . S
C2730 C2731 1.391 . S
C2731 H2719 0.950 . S
C2731 C2727 1.393 . S
C2731 C2730 1.391 . S
H2732 C2740 0.950 . S
H2733 C2745 0.950 . S
H2734 C2742 0.950 . S
H2735 C2744 0.950 . S
H2736 C2746 0.950 . S
H2737 C2748 0.950 . S
H2738 C2750 0.950 . S
H2739 C2751 0.950 . S
C2740 H2732 0.950 . S
C2740 C2741 1.386 . S
C2740 C2742 1.391 . S
C2741 C2740 1.386 . S
C2741 C2745 1.393 . S
C2742 H2734 0.950 . S
C2742 C2740 1.391 . S
C2742 C2743 1.400 . S
C2743 C2742 1.400 . S
C2743 C2744 1.398 . S
C2743 C2749 1.491 . S
C2744 H2735 0.950 . S
C2744 C2743 1.398 . S
C2744 C2745 1.391 . S
C2745 H2733 0.950 . S
C2745 C2741 1.393 . S
C2745 C2744 1.391 . S
C2746 H2736 0.950 . S
C2746 C2747 1.386 . S
C2746 C2748 1.391 . S
C2747 C2746 1.386 . S
C2747 C2751 1.393 . S
C2748 H2737 0.950 . S
C2748 C2746 1.391 . S
C2748 C2749 1.400 . S
C2749 C2743 1.491 . S
C2749 C2748 1.400 . S
C2749 C2750 1.398 . S
C2750 H2738 0.950 . S
C2750 C2749 1.398 . S
C2750 C2751 1.391 . S
C2751 H2739 0.950 . S
C2751 C2747 1.393 . S
C2751 C2750 1.391 . S
H2752 C2760 0.950 . S
H2753 C2765 0.950 . S
H2754 C2762 0.950 . S
H2755 C2764 0.950 . S
H2756 C2766 0.950 . S
H2757 C2768 0.950 . S
H2758 C2770 0.950 . S
H2759 C2771 0.950 . S
C2760 H2752 0.950 . S
C2760 C2761 1.386 . S
C2760 C2762 1.391 . S
C2761 C2760 1.386 . S
C2761 C2765 1.393 . S
C2762 H2754 0.950 . S
C2762 C2760 1.391 . S
C2762 C2763 1.400 . S
C2763 C2762 1.400 . S
C2763 C2764 1.398 . S
C2763 C2769 1.491 . S
C2764 H2755 0.950 . S
C2764 C2763 1.398 . S
C2764 C2765 1.391 . S
C2765 H2753 0.950 . S
C2765 C2761 1.393 . S
C2765 C2764 1.391 . S
C2766 H2756 0.950 . S
C2766 C2767 1.386 . S
C2766 C2768 1.391 . S
C2767 C2766 1.386 . S
C2767 C2771 1.393 . S
C2768 H2757 0.950 . S
C2768 C2766 1.391 . S
C2768 C2769 1.400 . S
C2769 C2763 1.491 . S
C2769 C2768 1.400 . S
C2769 C2770 1.398 . S
C2770 H2758 0.950 . S
C2770 C2769 1.398 . S
C2770 C2771 1.391 . S
C2771 H2759 0.950 . S
C2771 C2767 1.393 . S
C2771 C2770 1.391 . S
H2772 C2780 0.950 . S
H2773 C2785 0.950 . S
H2774 C2782 0.950 . S
H2775 C2784 0.950 . S
H2776 C2786 0.950 . S
H2777 C2788 0.950 . S
H2778 C2790 0.950 . S
H2779 C2791 0.950 . S
C2780 H2772 0.950 . S
C2780 C2781 1.386 . S
C2780 C2782 1.391 . S
C2781 C2780 1.386 . S
C2781 C2785 1.393 . S
C2782 H2774 0.950 . S
C2782 C2780 1.391 . S
C2782 C2783 1.400 . S
C2783 C2782 1.400 . S
C2783 C2784 1.398 . S
C2783 C2789 1.491 . S
C2784 H2775 0.950 . S
C2784 C2783 1.398 . S
C2784 C2785 1.391 . S
C2785 H2773 0.950 . S
C2785 C2781 1.393 . S
C2785 C2784 1.391 . S
C2786 H2776 0.950 . S
C2786 C2787 1.386 . S
C2786 C2788 1.391 . S
C2787 C2786 1.386 . S
C2787 C2791 1.393 . S
C2788 H2777 0.950 . S
C2788 C2786 1.391 . S
C2788 C2789 1.400 . S
C2789 C2783 1.491 . S
C2789 C2788 1.400 . S
C2789 C2790 1.398 . S
C2790 H2778 0.950 . S
C2790 C2789 1.398 . S
C2790 C2791 1.391 . S
C2791 H2779 0.950 . S
C2791 C2787 1.393 . S
C2791 C2790 1.391 . S
H2792 C2800 0.950 . S
H2793 C2805 0.950 . S
H2794 C2802 0.950 . S
H2795 C2804 0.950 . S
H2796 C2806 0.950 . S
H2797 C2808 0.950 . S
H2798 C2810 0.950 . S
H2799 C2811 0.950 . S
C2800 H2792 0.950 . S
C2800 C2801 1.386 . S
C2800 C2802 1.391 . S
C2801 C2800 1.386 . S
C2801 C2805 1.393 . S
C2802 H2794 0.950 . S
C2802 C2800 1.391 . S
C2802 C2803 1.400 . S
C2803 C2802 1.400 . S
C2803 C2804 1.398 . S
C2803 C2809 1.491 . S
C2804 H2795 0.950 . S
C2804 C2803 1.398 . S
C2804 C2805 1.391 . S
C2805 H2793 0.950 . S
C2805 C2801 1.393 . S
C2805 C2804 1.391 . S
C2806 H2796 0.950 . S
C2806 C2807 1.386 . S
C2806 C2808 1.391 . S
C2807 C2806 1.386 . S
C2807 C2811 1.393 . S
C2808 H2797 0.950 . S
C2808 C2806 1.391 . S
C2808 C2809 1.400 . S
C2809 C2803 1.491 . S
C2809 C2808 1.400 . S
C2809 C2810 1.398 . S
C2810 H2798 0.950 . S
C2810 C2809 1.398 . S
C2810 C2811 1.391 . S
C2811 H2799 0.950 . S
C2811 C2807 1.393 . S
C2811 C2810 1.391 . S
H2812 C2820 0.950 . S
H2813 C2825 0.950 . S
H2814 C2822 0.950 . S
H2815 C2824 0.919 1_556 S
H2816 C2826 0.950 . S
H2817 C2828 0.950 1_556 S
H2818 C2830 0.950 . S
H2819 C2831 0.950 . S
C2820 H2812 0.950 . S
C2820 C2821 1.386 . S
C2820 C2822 1.391 . S
C2821 C2820 1.386 . S
C2821 C2825 1.393 . S
C2822 H2814 0.950 . S
C2822 C2820 1.391 . S
C2822 C2823 1.400 . S
C2823 C2822 1.400 . S
C2823 C2824 1.398 . S
C2823 C2829 1.491 . S
C2824 H2815 0.919 1_554 S
C2824 C2823 1.398 . S
C2824 C2825 1.391 . S
C2825 H2813 0.950 . S
C2825 C2821 1.393 . S
C2825 C2824 1.391 . S
C2826 H2816 0.950 . S
C2826 C2827 1.386 1_556 S
C2826 C2828 1.391 1_556 S
C2827 C2826 1.386 1_554 S
C2827 C2831 1.393 . S
C2828 H2817 0.950 1_554 S
C2828 C2826 1.391 1_554 S
C2828 C2829 1.400 . S
C2829 C2823 1.491 . S
C2829 C2828 1.400 . S
C2829 C2830 1.398 . S
C2830 H2818 0.950 . S
C2830 C2829 1.398 . S
C2830 C2831 1.391 . S
C2831 H2819 0.950 . S
C2831 C2827 1.393 . S
C2831 C2830 1.391 . S
H2832 C2840 0.950 . S
H2833 C2845 0.950 . S
H2834 C2842 0.950 . S
H2835 C2844 0.950 . S
H2836 C2846 0.950 . S
H2837 C2848 0.950 . S
H2838 C2850 0.950 . S
H2839 C2851 0.950 . S
C2840 H2832 0.950 . S
C2840 C2841 1.386 . S
C2840 C2842 1.391 . S
C2841 C2840 1.386 . S
C2841 C2845 1.393 . S
C2842 H2834 0.950 . S
C2842 C2840 1.391 . S
C2842 C2843 1.400 . S
C2843 C2842 1.400 . S
C2843 C2844 1.398 . S
C2843 C2849 1.491 . S
C2844 H2835 0.950 . S
C2844 C2843 1.398 . S
C2844 C2845 1.391 . S
C2845 H2833 0.950 . S
C2845 C2841 1.393 . S
C2845 C2844 1.391 . S
C2846 H2836 0.950 . S
C2846 C2847 1.386 . S
C2846 C2848 1.391 . S
C2847 C2846 1.386 . S
C2847 C2851 1.393 . S
C2848 H2837 0.950 . S
C2848 C2846 1.391 . S
C2848 C2849 1.400 . S
C2849 C2843 1.491 . S
C2849 C2848 1.400 . S
C2849 C2850 1.398 . S
C2850 H2838 0.950 . S
C2850 C2849 1.398 . S
C2850 C2851 1.391 . S
C2851 H2839 0.950 . S
C2851 C2847 1.393 . S
C2851 C2850 1.391 . S
H2852 C2860 0.950 . S
H2853 C2865 0.950 . S
H2854 C2862 0.950 . S
H2855 C2864 0.950 . S
H2856 C2866 0.950 . S
H2857 C2868 0.950 . S
H2858 C2870 0.950 . S
H2859 C2871 0.950 . S
C2860 H2852 0.950 . S
C2860 C2861 1.386 . S
C2860 C2862 1.391 . S
C2861 C2860 1.386 . S
C2861 C2865 1.393 . S
C2862 H2854 0.950 . S
C2862 C2860 1.391 . S
C2862 C2863 1.400 . S
C2863 C2862 1.400 . S
C2863 C2864 1.398 . S
C2863 C2869 1.491 . S
C2864 H2855 0.950 . S
C2864 C2863 1.398 . S
C2864 C2865 1.391 . S
C2865 H2853 0.950 . S
C2865 C2861 1.393 . S
C2865 C2864 1.391 . S
C2866 H2856 0.950 . S
C2866 C2867 1.386 . S
C2866 C2868 1.391 . S
C2867 C2866 1.386 . S
C2867 C2871 1.393 . S
C2868 H2857 0.950 . S
C2868 C2866 1.391 . S
C2868 C2869 1.400 . S
C2869 C2863 1.491 . S
C2869 C2868 1.400 . S
C2869 C2870 1.398 . S
C2870 H2858 0.950 . S
C2870 C2869 1.398 . S
C2870 C2871 1.391 . S
C2871 H2859 0.950 . S
C2871 C2867 1.393 . S
C2871 C2870 1.391 . S
C961 C101 2.332 . S
C967 C322 2.277 . S
C981 C57 2.043 . S
C987 C370 2.075 . S
C1001 C73 1.340 . S
C1007 C402 1.401 . S
C1027 C447 1.558 . S
C1021 C78 1.524 . S
C1041 C21 0.989 . S
C1047 C487 0.993 . S
C1067 C522 1.057 . S
C1061 C31 0.985 . S
C1087 C561 1.203 . S
C1081 C49 1.198 . S
C1101 C0 1.141 . S
C1107 C598 1.171 . S
C1127 C330 2.037 . S
C1121 C218 2.049 1_545 S
C1141 C229 0.680 . S
C1147 C367 0.517 . S
C1167 C410 2.393 . S
C1161 C257 2.425 . S
C1187 C442 1.134 . S
C1181 C164 1.094 1_556 S
C1201 C216 1.240 . S
C1207 C482 1.282 . S
C1227 C530 0.485 . S
C1221 C231 0.423 . S
C1247 C571 1.987 1_556 S
C1241 C255 2.019 . S
C1267 C601 1.982 . S
C1261 C166 1.994 . S
C1287 C327 1.261 . S
C1281 C143 1.214 . S
C1301 C265 2.144 . S
C1307 C650 2.165 . S
C1327 C687 1.134 . S
C1321 C299 1.098 . S
C1347 C718 0.550 . S
C1341 C291 0.484 . S
C1361 C104 2.687 . S
C1367 C611 2.672 . S
C1381 C117 1.339 . S
C1387 C407 1.378 . S
C1401 C304 1.672 . S
C1407 C770 1.689 . S
C1427 C802 1.795 . S
C1421 C278 1.776 . S
C1447 C331 2.275 . S
C1441 C60 2.315 . S
C1467 C801 1.954 . S
C1461 C96 1.954 . S
C1481 C88 1.306 . S
C1487 C411 1.306 . S
C1501 C65 1.527 . S
C1507 C758 1.484 . S
C1527 C478 0.897 1_655 S
C1521 C10 0.908 1_655 S
C1541 C44 0.896 . S
C1547 C691 0.919 . S
C1567 C570 1.187 . S
C1561 C34 1.182 . S
C1587 C847 1.119 . S
C1581 C13 1.138 . S
C1607 C321 1.986 . S
C1601 C138 1.990 . S
C1627 C798 0.526 . S
C1621 C296 0.397 . S
C1641 C112 2.277 . S
C1647 C401 2.335 . S
C1661 C270 1.043 . S
C1667 C771 1.022 . S
C1681 C140 1.179 . S
C1687 C491 1.174 . S
C1707 C681 0.319 . S
C1701 C294 0.566 . S
C1721 C114 1.956 . S
C1727 C562 1.895 . S
C1741 C268 1.951 1_556 S
C1747 C850 1.959 . S
C1761 C169 1.411 . S
C1767 C318 1.324 . S
C1781 C161 2.071 . S
C1787 C641 2.066 . S
C1801 C234 1.141 . S
C1807 C518 1.130 . S
C1821 C226 0.506 . S
C1827 C727 0.590 . S
C1847 C842 2.600 . S
C1841 C247 2.609 . S
C1861 C195 1.335 . S
C1867 C398 1.328 . S
C1887 C441 1.611 . S
C1881 C239 1.618 . S
C1907 C371 1.700 . S
C1901 C187 1.669 . S
C1921 C75 2.332 . S
C1927 C882 2.276 . S
C1947 C810 2.074 . S
C1941 C83 2.041 . S
C1961 C99 1.347 . S
C1967 C922 1.400 . S
C1981 C52 1.507 1_655 S
C1987 C767 1.540 . S
C2001 C47 0.969 . S
C2007 C647 0.982 . S
C2027 C682 1.059 . S
C2021 C5 0.985 . S
C2047 C721 1.194 . S
C2041 C23 1.205 . S
C2067 C838 1.179 . S
C2061 C26 1.132 . S
C2087 C890 2.047 . S
C2081 C244 2.047 . S
C2101 C177 0.673 . S
C2107 C807 0.512 . S
C2127 C930 2.405 . S
C2121 C192 2.425 . S
C2147 C762 1.146 . S
C2141 C203 1.077 . S
C2167 C642 1.280 . S
C2161 C242 1.245 . S
C2181 C179 0.424 . S
C2187 C690 0.486 . S
C2207 C731 1.984 . S
C2201 C190 2.017 . S
C2221 C205 1.999 . S
C2227 C841 1.971 . S
C2247 C887 1.283 . S
C2241 C286 1.240 . S
C2261 C122 2.142 . S
C2267 C490 2.160 . S
C2287 C527 1.129 . S
C2281 C130 1.093 . S
C2307 C558 0.534 . S
C2301 C148 0.510 . S
C2327 C851 2.663 . S
C2321 C273 2.683 . S
C2341 C260 1.360 . S
C2347 C927 1.392 . S
C2367 C450 1.687 . S
C2361 C135 1.665 . S
C2387 C362 1.789 . S
C2381 C109 1.783 . S
C2401 C86 2.323 . S
C2407 C891 2.267 . S
C2427 C361 1.963 . S
C2421 C70 1.960 . S
C2441 C62 1.308 . S
C2447 C931 1.299 . S
C2461 C91 1.535 . S
C2467 C438 1.491 . S
C2481 C36 0.904 . S
C2487 C638 0.915 . S
C2507 C531 0.928 . S
C2501 C18 0.871 . S
C2521 C8 1.157 . S
C2527 C730 1.169 . S
C2541 C39 1.128 . S
C2547 C607 1.132 . S
C2567 C881 1.991 . S
C2561 C307 1.984 . S
C2581 C153 0.400 . S
C2587 C358 0.531 . S
C2607 C921 2.332 . S
C2601 C281 2.278 . S
C2621 C127 1.038 . S
C2627 C451 1.025 . S
C2641 C309 1.180 . S
C2647 C651 1.155 . S
C2667 C521 0.343 . S
C2661 C151 0.604 . S
C2681 C283 1.962 . S
C2687 C722 1.909 1_655 S
C2707 C610 1.959 . S
C2701 C125 1.951 . S
C2727 C878 1.303 . S
C2721 C221 1.406 . S
C2747 C481 2.054 1_565 S
C2741 C200 2.059 . S
C2761 C208 1.137 . S
C2767 C678 1.135 . S
C2787 C567 0.545 . S
C2781 C174 0.528 . S
C2801 C182 2.599 . S
C2807 C602 2.610 . S
C2821 C156 1.347 . S
C2827 C918 1.335 . S
C2847 C761 1.602 . S
C2841 C213 1.614 . S
C2867 C811 1.701 . S
C2861 C252 1.665 . S
