# Generated by pormake.
# Topology zzz, (3,6)-cn, num edge types: 1
# Building blocks:
#     Node 0, Type 0, BuildingBlock: OLANEW_clean_sbu_2, # of connection points: 3
#     Node 1, Type 0, BuildingBlock: OLANEW_clean_sbu_2, # of connection points: 3
#     Node 2, Type 0, BuildingBlock: OLANEW_clean_sbu_2, # of connection points: 3
#     Node 3, Type 0, BuildingBlock: OLANEW_clean_sbu_2, # of connection points: 3
#     Node 4, Type 0, BuildingBlock: OLANEW_clean_sbu_2, # of connection points: 3
#     Node 5, Type 0, BuildingBlock: OLANEW_clean_sbu_2, # of connection points: 3
#     Node 6, Type 0, BuildingBlock: OLANEW_clean_sbu_2, # of connection points: 3
#     Node 7, Type 0, BuildingBlock: OLANEW_clean_sbu_2, # of connection points: 3
#     Node 8, Type 1, BuildingBlock: CIFDUS_clean_sbu_1, # of connection points: 6
#     Node 9, Type 1, BuildingBlock: CIFDUS_clean_sbu_1, # of connection points: 6
#     Node 10, Type 1, BuildingBlock: CIFDUS_clean_sbu_1, # of connection points: 6
#     Node 11, Type 1, BuildingBlock: CIFDUS_clean_sbu_1, # of connection points: 6
#     Edge 12, Type (0, 1), BuildingBlock: KIFKEQ_clean_linker_1, # of connection points: 2
#     Edge 13, Type (0, 1), BuildingBlock: KIFKEQ_clean_linker_1, # of connection points: 2
#     Edge 14, Type (0, 1), BuildingBlock: KIFKEQ_clean_linker_1, # of connection points: 2
#     Edge 15, Type (0, 1), BuildingBlock: KIFKEQ_clean_linker_1, # of connection points: 2
#     Edge 16, Type (0, 1), BuildingBlock: KIFKEQ_clean_linker_1, # of connection points: 2
#     Edge 17, Type (0, 1), BuildingBlock: KIFKEQ_clean_linker_1, # of connection points: 2
#     Edge 18, Type (0, 1), BuildingBlock: KIFKEQ_clean_linker_1, # of connection points: 2
#     Edge 19, Type (0, 1), BuildingBlock: KIFKEQ_clean_linker_1, # of connection points: 2
#     Edge 20, Type (0, 1), BuildingBlock: KIFKEQ_clean_linker_1, # of connection points: 2
#     Edge 21, Type (0, 1), BuildingBlock: KIFKEQ_clean_linker_1, # of connection points: 2
#     Edge 22, Type (0, 1), BuildingBlock: KIFKEQ_clean_linker_1, # of connection points: 2
#     Edge 23, Type (0, 1), BuildingBlock: KIFKEQ_clean_linker_1, # of connection points: 2
#     Edge 24, Type (0, 1), BuildingBlock: KIFKEQ_clean_linker_1, # of connection points: 2
#     Edge 25, Type (0, 1), BuildingBlock: KIFKEQ_clean_linker_1, # of connection points: 2
#     Edge 26, Type (0, 1), BuildingBlock: KIFKEQ_clean_linker_1, # of connection points: 2
#     Edge 27, Type (0, 1), BuildingBlock: KIFKEQ_clean_linker_1, # of connection points: 2
#     Edge 28, Type (0, 1), BuildingBlock: KIFKEQ_clean_linker_1, # of connection points: 2
#     Edge 29, Type (0, 1), BuildingBlock: KIFKEQ_clean_linker_1, # of connection points: 2
#     Edge 30, Type (0, 1), BuildingBlock: KIFKEQ_clean_linker_1, # of connection points: 2
#     Edge 31, Type (0, 1), BuildingBlock: KIFKEQ_clean_linker_1, # of connection points: 2
#     Edge 32, Type (0, 1), BuildingBlock: KIFKEQ_clean_linker_1, # of connection points: 2
#     Edge 33, Type (0, 1), BuildingBlock: KIFKEQ_clean_linker_1, # of connection points: 2
#     Edge 34, Type (0, 1), BuildingBlock: KIFKEQ_clean_linker_1, # of connection points: 2
#     Edge 35, Type (0, 1), BuildingBlock: KIFKEQ_clean_linker_1, # of connection points: 2
# Relax obj value: 0.135
# Max RMSD: 0.185
# Mean RMSD: 0.111
data_MOF--net-zzz--node1-OLANEW_clean_sbu_2--node2-CIFDUS_clean_sbu_1--edge1-KIFKEQ_clean_linker_1
_symmetry_space_group_name_H-M    P1
_symmetry_Int_Tables_number       1
_symmetry_cell_setting            triclinic
loop_
_symmetry_equiv_pos_as_xyz
'x, y, z'
_cell_length_a     53.513344
_cell_length_b     53.384357
_cell_length_c     17.986806
_cell_angle_alpha  89.961586
_cell_angle_beta   89.96297
_cell_angle_gamma 89.953707
loop_
_atom_site_label
_atom_site_type_symbol
_atom_site_fract_x
_atom_site_fract_y
_atom_site_fract_z
_atom_type_partial_charge
O0 O 0.78849 0.61788 0.90585 0.0
Cd1 Cd 0.74896 0.64133 0.91887 0.0
O2 O 0.79069 0.60659 0.02352 0.0
Cd3 Cd 0.81278 0.58941 0.11259 0.0
O4 O 0.84029 0.57109 0.18437 0.0
C5 C 0.8574 0.58379 0.21566 0.0
O6 O 0.85815 0.60813 0.20507 0.0
C7 C 0.79992 0.60675 0.95839 0.0
C8 C 0.70495 0.61679 0.87575 0.0
O9 O 0.71169 0.61756 0.9441 0.0
O10 O 0.71927 0.62708 0.82742 0.0
O11 O 0.90445 0.7926 0.91478 0.0
Cd12 Cd 0.88138 0.75319 0.93438 0.0
O13 O 0.90273 0.80117 0.03432 0.0
Cd14 Cd 0.91058 0.82734 0.12509 0.0
O15 O 0.92753 0.85699 0.19187 0.0
C16 C 0.91522 0.86994 0.23852 0.0
O17 O 0.89131 0.86534 0.24806 0.0
C18 C 0.90962 0.80703 0.96891 0.0
C19 C 0.90534 0.70955 0.88409 0.0
O20 O 0.89071 0.72198 0.84134 0.0
O21 O 0.90896 0.71797 0.94995 0.0
O22 O 0.72867 0.89744 0.90018 0.0
Cd23 Cd 0.76799 0.87339 0.91144 0.0
O24 O 0.72569 0.90737 0.01889 0.0
Cd25 Cd 0.70295 0.92399 0.10785 0.0
O26 O 0.67546 0.94249 0.17982 0.0
C27 C 0.65904 0.92986 0.21462 0.0
O28 O 0.65888 0.90536 0.20769 0.0
C29 C 0.71696 0.90802 0.95322 0.0
C30 C 0.81274 0.89799 0.87498 0.0
O31 O 0.80477 0.897 0.94215 0.0
O32 O 0.79928 0.88791 0.82427 0.0
O33 O 0.61765 0.72695 0.92439 0.0
Cd34 Cd 0.63802 0.76774 0.94537 0.0
O35 O 0.60461 0.72623 0.04027 0.0
Cd36 Cd 0.58689 0.70572 0.13146 0.0
O37 O 0.57044 0.68134 0.21582 0.0
C38 C 0.57071 0.65765 0.20835 0.0
O39 O 0.58097 0.64785 0.14868 0.0
C40 C 0.60609 0.7159 0.9768 0.0
C41 C 0.61266 0.81018 0.89255 0.0
O42 O 0.62828 0.79843 0.85122 0.0
O43 O 0.60864 0.80156 0.95802 0.0
O44 O 0.22854 0.41512 0.52741 0.0
Cd45 Cd 0.26834 0.39424 0.49745 0.0
O46 O 0.21132 0.40045 0.42528 0.0
Cd47 Cd 0.18013 0.40182 0.34644 0.0
O48 O 0.15121 0.41682 0.27283 0.0
C49 C 0.15699 0.43639 0.23643 0.0
O50 O 0.17953 0.44576 0.24452 0.0
C51 C 0.20965 0.41314 0.48485 0.0
C52 C 0.31107 0.41776 0.55469 0.0
O53 O 0.30202 0.42394 0.49128 0.0
O54 O 0.29974 0.40066 0.59171 0.0
O55 O 0.10568 0.23047 0.52607 0.0
Cd56 Cd 0.12889 0.26922 0.49906 0.0
O57 O 0.12396 0.20957 0.43568 0.0
Cd58 Cd 0.12484 0.17675 0.36275 0.0
O59 O 0.113 0.14729 0.2861 0.0
C60 C 0.09192 0.13705 0.29779 0.0
O61 O 0.07878 0.14411 0.35582 0.0
C62 C 0.10847 0.21029 0.48927 0.0
C63 C 0.10508 0.31285 0.55006 0.0
O64 O 0.10029 0.30373 0.48572 0.0
O65 O 0.12102 0.30128 0.59073 0.0
O66 O 0.29076 0.10527 0.53124 0.0
Cd67 Cd 0.25168 0.12885 0.51089 0.0
O68 O 0.30635 0.11811 0.42449 0.0
Cd69 Cd 0.33601 0.11517 0.34059 0.0
O70 O 0.36426 0.10186 0.26168 0.0
C71 C 0.37426 0.08054 0.2725 0.0
O72 O 0.36767 0.06754 0.33141 0.0
C73 C 0.30872 0.1059 0.48479 0.0
C74 C 0.20783 0.10723 0.56801 0.0
O75 O 0.21496 0.10307 0.50107 0.0
O76 O 0.22168 0.12122 0.60868 0.0
O77 O 0.41086 0.29014 0.54191 0.0
Cd78 Cd 0.38964 0.2505 0.51216 0.0
O79 O 0.39609 0.30731 0.43978 0.0
Cd80 Cd 0.39761 0.33838 0.36032 0.0
O81 O 0.4134 0.36672 0.28617 0.0
C82 C 0.43189 0.35982 0.24678 0.0
O83 O 0.4397 0.33654 0.25216 0.0
C84 C 0.40889 0.30901 0.49906 0.0
C85 C 0.41441 0.20724 0.56134 0.0
O86 O 0.41927 0.21699 0.49781 0.0
O87 O 0.39805 0.2181 0.60225 0.0
O88 O 0.0159 0.02993 0.84193 0.0
Mn89 Mn 0.00681 0.0112 0.74398 0.0
O90 O 0.98623 0.0592 0.86055 0.0
Mn91 Mn 0.96919 0.05448 0.77156 0.0
O92 O 0.99809 0.99199 0.64634 0.0
O93 O 0.04259 1.00019 0.73617 0.0
Mn94 Mn 0.04466 0.96768 0.72204 0.0
O95 O 0.99713 0.97922 0.80568 0.0
O96 O 0.02792 0.9624 0.63271 0.0
O97 O 0.01615 0.04362 0.68249 0.0
O98 O 0.98357 0.0702 0.69091 0.0
O99 O 0.07719 0.9796 0.72418 0.0
O100 O 0.0297 0.95272 0.80353 0.0
C101 C 0.94719 0.02092 0.76335 0.0
C102 C 0.0061 0.04771 0.88033 0.0
C103 C 0.00812 0.97363 0.61066 0.0
C104 C 0.06664 0.00123 0.73222 0.0
C105 C 0.00799 0.95884 0.82637 0.0
C106 C 0.00508 0.06436 0.66583 0.0
O107 O 0.97103 0.02219 0.75303 0.0
O108 O 0.93682 0.04253 0.77408 0.0
O109 O 0.54233 0.99423 0.78972 0.0
Mn110 Mn 0.51198 0.00772 0.72826 0.0
O111 O 0.56794 0.02628 0.81578 0.0
Mn112 Mn 0.55708 0.0446 0.73431 0.0
O113 O 0.48129 0.02078 0.66608 0.0
O114 O 0.49982 0.97247 0.72155 0.0
Mn115 Mn 0.46726 0.97003 0.73017 0.0
O116 O 0.49111 0.01292 0.82473 0.0
O117 O 0.45485 0.98832 0.65085 0.0
O118 O 0.53329 0.0028 0.63222 0.0
O119 O 0.56539 0.03014 0.64299 0.0
O120 O 0.47983 0.93754 0.7228 0.0
O121 O 0.46032 0.98403 0.82321 0.0
C122 C 0.52345 0.06699 0.73515 0.0
C123 C 0.56148 0.00345 0.82295 0.0
C124 C 0.46143 0.01087 0.638 0.0
C125 C 0.50138 0.94845 0.72197 0.0
C126 C 0.47177 0.00244 0.85364 0.0
C127 C 0.55379 0.01266 0.60839 0.0
O128 O 0.52432 0.04293 0.73599 0.0
O129 O 0.54523 0.07738 0.73858 0.0
O130 O 0.52298 0.54054 0.80914 0.0
Mn131 Mn 0.50857 0.51119 0.74493 0.0
O132 O 0.49131 0.56569 0.84259 0.0
Mn133 Mn 0.47191 0.55623 0.76187 0.0
O134 O 0.49495 0.48123 0.68075 0.0
O135 O 0.54343 0.4991 0.73178 0.0
Mn136 Mn 0.54647 0.46646 0.73779 0.0
O137 O 0.50449 0.48893 0.83888 0.0
O138 O 0.52739 0.45518 0.65868 0.0
O139 O 0.51208 0.53385 0.65127 0.0
O140 O 0.48498 0.56584 0.66975 0.0
O141 O 0.57862 0.47994 0.73256 0.0
O142 O 0.53321 0.45809 0.83072 0.0
C143 C 0.44963 0.52248 0.75936 0.0
C144 C 0.51416 0.55908 0.84646 0.0
C145 C 0.50462 0.46172 0.64951 0.0
C146 C 0.56728 0.50131 0.73345 0.0
C147 C 0.51514 0.46908 0.86407 0.0
C148 C 0.50174 0.55458 0.63114 0.0
O149 O 0.47362 0.52343 0.7586 0.0
O150 O 0.43928 0.54418 0.76775 0.0
O151 O 0.02734 0.50583 0.82493 0.0
Mn152 Mn 0.00588 0.51022 0.72935 0.0
O153 O 0.0573 0.53559 0.82101 0.0
Mn154 Mn 0.04975 0.54881 0.72748 0.0
O155 O 0.98413 0.51423 0.6341 0.0
O156 O 0.99436 0.47477 0.73886 0.0
Mn157 Mn 0.96164 0.47238 0.7389 0.0
O158 O 0.97548 0.52329 0.79154 0.0
O159 O 0.95256 0.48642 0.64758 0.0
O160 O 0.03657 0.49749 0.66678 0.0
O161 O 0.06238 0.53029 0.64898 0.0
O162 O 0.97424 0.43988 0.74317 0.0
O163 O 0.95083 0.49073 0.82036 0.0
C164 C 0.01535 0.56981 0.71911 0.0
C165 C 0.04653 0.51696 0.85246 0.0
C166 C 0.96371 0.50391 0.61166 0.0
C167 C 0.99576 0.45073 0.73808 0.0
C168 C 0.95674 0.51375 0.82615 0.0
C169 C 0.05622 0.50753 0.63781 0.0
O170 O 0.01719 0.54578 0.72052 0.0
O171 O 0.03675 0.58102 0.71824 0.0
H172 H 0.19017 0.10814 0.71119 0.0
H173 H 0.17216 0.08149 0.49096 0.0
H174 H 0.1523 0.08836 0.75967 0.0
H175 H 0.13457 0.06165 0.53934 0.0
H176 H 0.10681 0.01441 0.81446 0.0
H177 H 0.13886 0.04477 0.7794 0.0
H178 H 0.09335 0.06852 0.59401 0.0
H179 H 0.06175 0.03747 0.62888 0.0
C180 C 0.17808 0.09819 0.67304 0.0
C181 C 0.18434 0.09618 0.59729 0.0
C182 C 0.15639 0.08685 0.70086 0.0
C183 C 0.14035 0.07345 0.65346 0.0
C184 C 0.14626 0.07213 0.57732 0.0
C185 C 0.168 0.08328 0.54966 0.0
C186 C 0.10327 0.02691 0.76817 0.0
C187 C 0.08149 0.02429 0.72554 0.0
C188 C 0.12163 0.04428 0.74788 0.0
C189 C 0.11875 0.05901 0.68355 0.0
C190 C 0.09618 0.05741 0.64369 0.0
C191 C 0.07777 0.04013 0.66448 0.0
H192 H 0.40607 0.18017 0.68857 0.0
H193 H 0.45206 0.182 0.49119 0.0
H194 H 0.42821 0.1428 0.73109 0.0
H195 H 0.47458 0.1452 0.53443 0.0
H196 H 0.5016 0.06934 0.60043 0.0
H197 H 0.47213 0.1012 0.55713 0.0
H198 H 0.46881 0.13198 0.77922 0.0
H199 H 0.49805 0.0998 0.82187 0.0
C200 C 0.42091 0.17262 0.65427 0.0
C201 C 0.42739 0.18418 0.58666 0.0
C202 C 0.43366 0.15123 0.67876 0.0
C203 C 0.45322 0.14093 0.63632 0.0
C204 C 0.45936 0.1523 0.56809 0.0
C205 C 0.44658 0.1736 0.54353 0.0
C206 C 0.49385 0.08247 0.64019 0.0
C207 C 0.50142 0.08183 0.71474 0.0
C208 C 0.47733 0.10098 0.6153 0.0
C209 C 0.46817 0.11933 0.66452 0.0
C210 C 0.4751 0.11795 0.73996 0.0
C211 C 0.49177 0.09952 0.76461 0.0
H212 H 0.33661 0.40686 0.68285 0.0
H213 H 0.33718 0.45654 0.49321 0.0
H214 H 0.37347 0.42798 0.73248 0.0
H215 H 0.37347 0.47802 0.54355 0.0
H216 H 0.44861 0.50309 0.62114 0.0
H217 H 0.41713 0.47472 0.57009 0.0
H218 H 0.38374 0.46783 0.78808 0.0
H219 H 0.41551 0.49602 0.83849 0.0
C220 C 0.34458 0.42229 0.65176 0.0
C221 C 0.33383 0.43011 0.58426 0.0
C222 C 0.36567 0.43445 0.68034 0.0
C223 C 0.37649 0.45475 0.64217 0.0
C224 C 0.36595 0.46222 0.57399 0.0
C225 C 0.34495 0.45003 0.54535 0.0
C226 C 0.43499 0.49478 0.6583 0.0
C227 C 0.43479 0.50104 0.73396 0.0
C228 C 0.4167 0.47889 0.62899 0.0
C229 C 0.39775 0.46905 0.67482 0.0
C230 C 0.39825 0.47467 0.75132 0.0
C231 C 0.41644 0.49074 0.78039 0.0
H232 H 0.11385 0.33904 0.67851 0.0
H233 H 0.06748 0.33883 0.48206 0.0
H234 H 0.09175 0.37599 0.72418 0.0
H235 H 0.04494 0.37515 0.52849 0.0
H236 H 0.01688 0.44981 0.60202 0.0
H237 H 0.04656 0.41876 0.55492 0.0
H238 H 0.05147 0.38612 0.77451 0.0
H239 H 0.02207 0.4175 0.82095 0.0
C240 C 0.09894 0.34687 0.64505 0.0
C241 C 0.09233 0.33586 0.57683 0.0
C242 C 0.08621 0.36802 0.67136 0.0
C243 C 0.06647 0.3786 0.63025 0.0
C244 C 0.06027 0.36784 0.56126 0.0
C245 C 0.07308 0.34681 0.53482 0.0
C246 C 0.02503 0.43646 0.64042 0.0
C247 C 0.01787 0.43636 0.71539 0.0
C248 C 0.04168 0.4184 0.61335 0.0
C249 C 0.05136 0.39976 0.66073 0.0
C250 C 0.04481 0.40039 0.73659 0.0
C251 C 0.02802 0.41837 0.76342 0.0
H252 H 0.83057 0.91176 0.73765 0.0
H253 H 0.84926 0.91264 0.97118 0.0
H254 H 0.86783 0.93671 0.71042 0.0
H255 H 0.8867 0.93682 0.94382 0.0
H256 H 0.91804 0.0143 0.88161 0.0
H257 H 0.88944 0.98033 0.90746 0.0
H258 H 0.91487 0.9416 0.71046 0.0
H259 H 0.94406 0.97639 0.6845 0.0
C260 C 0.84284 0.9169 0.78299 0.0
C261 C 0.83663 0.91074 0.85682 0.0
C262 C 0.86433 0.93098 0.76726 0.0
C263 C 0.88009 0.93904 0.82503 0.0
C264 C 0.8747 0.93135 0.89815 0.0
C265 C 0.85319 0.91752 0.9139 0.0
C266 C 0.91786 0.99835 0.84435 0.0
C267 C 0.93318 0.99793 0.78109 0.0
C268 C 0.90156 0.97874 0.85945 0.0
C269 C 0.89984 0.95815 0.81121 0.0
C270 C 0.9157 0.95729 0.7485 0.0
C271 C 0.93248 0.97701 0.73383 0.0
H272 H 0.5783 0.83859 0.96687 0.0
H273 H 0.61782 0.83377 0.75786 0.0
H274 H 0.55592 0.87528 0.92209 0.0
H275 H 0.5957 0.87093 0.71341 0.0
H276 H 0.52886 0.94978 0.84776 0.0
H277 H 0.55964 0.91877 0.88803 0.0
H278 H 0.5533 0.88149 0.67567 0.0
H279 H 0.52289 0.91293 0.63556 0.0
C280 C 0.58238 0.84548 0.91153 0.0
C281 C 0.5997 0.83307 0.86575 0.0
C282 C 0.56971 0.86672 0.88604 0.0
C283 C 0.57403 0.87615 0.8141 0.0
C284 C 0.59173 0.86403 0.7688 0.0
C285 C 0.60444 0.84274 0.79435 0.0
C286 C 0.53495 0.93558 0.80872 0.0
C287 C 0.52421 0.93412 0.7378 0.0
C288 C 0.55217 0.9175 0.83221 0.0
C289 C 0.55884 0.89749 0.78533 0.0
C290 C 0.54892 0.89682 0.71288 0.0
C291 C 0.53156 0.91482 0.68969 0.0
H292 H 0.66427 0.60664 0.9623 0.0
H293 H 0.69227 0.59908 0.73835 0.0
H294 H 0.62629 0.58449 0.92721 0.0
H295 H 0.65497 0.5757 0.70389 0.0
H296 H 0.58158 0.54078 0.64606 0.0
H297 H 0.61175 0.57347 0.67993 0.0
H298 H 0.615 0.54334 0.90317 0.0
H299 H 0.58445 0.51176 0.86938 0.0
C300 C 0.66235 0.6001 0.9056 0.0
C301 C 0.68142 0.60428 0.85337 0.0
C302 C 0.64058 0.5873 0.88541 0.0
C303 C 0.63754 0.57789 0.81282 0.0
C304 C 0.65634 0.58287 0.76 0.0
C305 C 0.67792 0.59608 0.77992 0.0
C306 C 0.58827 0.54185 0.70279 0.0
C307 C 0.58064 0.52411 0.75554 0.0
C308 C 0.6058 0.56029 0.72211 0.0
C309 C 0.61615 0.56102 0.79427 0.0
C310 C 0.60734 0.54381 0.84751 0.0
C311 C 0.58984 0.5256 0.82826 0.0
H312 H 0.93818 0.68006 0.96077 0.0
H313 H 0.90048 0.68609 0.74923 0.0
H314 H 0.96002 0.64289 0.91723 0.0
H315 H 0.92197 0.64841 0.70605 0.0
H316 H 0.98714 0.56853 0.84379 0.0
H317 H 0.95633 0.59969 0.88259 0.0
H318 H 0.96402 0.63693 0.67035 0.0
H319 H 0.99433 0.60525 0.63158 0.0
C320 C 0.93435 0.67331 0.90516 0.0
C321 C 0.91775 0.68623 0.85829 0.0
C322 C 0.94671 0.65179 0.88036 0.0
C323 C 0.94276 0.64255 0.80804 0.0
C324 C 0.92568 0.65514 0.76174 0.0
C325 C 0.91332 0.67672 0.78657 0.0
C326 C 0.98129 0.5827 0.80433 0.0
C327 C 0.99238 0.58407 0.73384 0.0
C328 C 0.96406 0.6009 0.82704 0.0
C329 C 0.95779 0.621 0.77988 0.0
C330 C 0.96806 0.62156 0.7078 0.0
C331 C 0.98537 0.60341 0.68536 0.0
H332 H 0.05895 0.20967 0.5207 0.0
H333 H 0.12311 0.16133 0.49788 0.0
H334 H 0.03308 0.17362 0.55203 0.0
H335 H 0.0975 0.12513 0.53244 0.0
H336 H 0.03818 0.06224 0.54704 0.0
H337 H 0.06312 0.09713 0.49706 0.0
H338 H 0.02875 0.14708 0.65622 0.0
H339 H 0.00411 0.11285 0.70441 0.0
C340 C 0.06749 0.19127 0.52268 0.0
C341 C 0.09293 0.18823 0.5067 0.0
C342 C 0.05273 0.17059 0.54081 0.0
C343 C 0.06321 0.14642 0.54526 0.0
C344 C 0.08872 0.14337 0.52851 0.0
C345 C 0.10341 0.16409 0.50904 0.0
C346 C 0.03613 0.08071 0.57106 0.0
C347 C 0.01929 0.08479 0.62972 0.0
C348 C 0.05033 0.10069 0.54252 0.0
C349 C 0.04786 0.125 0.57237 0.0
C350 C 0.03079 0.12886 0.63053 0.0
C351 C 0.01665 0.10912 0.65837 0.0
H352 H 0.31436 0.05833 0.53711 0.0
H353 H 0.356 0.12363 0.46906 0.0
H354 H 0.35367 0.03624 0.56268 0.0
H355 H 0.39528 0.10175 0.49608 0.0
H356 H 0.44967 0.05913 0.66985 0.0
H357 H 0.41438 0.08347 0.62279 0.0
H358 H 0.39311 0.0214 0.483 0.0
H359 H 0.42945 0.99766 0.52671 0.0
C360 C 0.33193 0.06788 0.5276 0.0
C361 C 0.33226 0.09251 0.50045 0.0
C362 C 0.35436 0.05525 0.54166 0.0
C363 C 0.37744 0.06727 0.53063 0.0
C364 C 0.37773 0.09206 0.50462 0.0
C365 C 0.35532 0.10448 0.48896 0.0
C366 C 0.43845 0.05134 0.62559 0.0
C367 C 0.44296 0.02694 0.59975 0.0
C368 C 0.41791 0.06504 0.59983 0.0
C369 C 0.40103 0.05423 0.5495 0.0
C370 C 0.40584 0.03008 0.52204 0.0
C371 C 0.42667 0.0166 0.54671 0.0
H372 H 0.39026 0.35635 0.49178 0.0
H373 H 0.45686 0.31463 0.54633 0.0
H374 H 0.41212 0.39567 0.51886 0.0
H375 H 0.47889 0.35395 0.57212 0.0
H376 H 0.51627 0.43026 0.5351 0.0
H377 H 0.49217 0.3939 0.49342 0.0
H378 H 0.43231 0.41433 0.64245 0.0
H379 H 0.45707 0.44959 0.68741 0.0
C380 C 0.40965 0.35567 0.50891 0.0
C381 C 0.42202 0.33257 0.51644 0.0
C382 C 0.42208 0.37809 0.52455 0.0
C383 C 0.44723 0.37779 0.54662 0.0
C384 C 0.45959 0.35467 0.55411 0.0
C385 C 0.44699 0.33222 0.54 0.0
C386 C 0.49772 0.4273 0.55759 0.0
C387 C 0.48813 0.44335 0.61261 0.0
C388 C 0.48403 0.40645 0.5341 0.0
C389 C 0.46042 0.40139 0.56471 0.0
C390 C 0.45031 0.41805 0.61711 0.0
C391 C 0.46424 0.43858 0.6417 0.0
H392 H 0.20383 0.46106 0.53354 0.0
H393 H 0.16253 0.39428 0.47783 0.0
H394 H 0.16451 0.48289 0.56049 0.0
H395 H 0.12322 0.41595 0.50595 0.0
H396 H 0.06888 0.45993 0.67469 0.0
H397 H 0.10443 0.4356 0.62953 0.0
H398 H 0.12463 0.49641 0.48324 0.0
H399 H 0.08802 0.52011 0.52518 0.0
C400 C 0.18632 0.4511 0.5272 0.0
C401 C 0.18609 0.42614 0.50294 0.0
C402 C 0.16388 0.4636 0.54197 0.0
C403 C 0.14088 0.45114 0.53444 0.0
C404 C 0.1407 0.42599 0.51169 0.0
C405 C 0.16312 0.41367 0.49544 0.0
C406 C 0.07994 0.46741 0.62953 0.0
C407 C 0.07501 0.49142 0.60116 0.0
C408 C 0.10063 0.45373 0.60484 0.0
C409 C 0.11726 0.4642 0.55307 0.0
C410 C 0.11209 0.48799 0.5234 0.0
C411 C 0.09111 0.50144 0.54702 0.0
H412 H 0.90132 0.84206 0.86138 0.0
H413 H 0.9492 0.82478 0.04736 0.0
H414 H 0.92415 0.88132 0.8414 0.0
H415 H 0.97192 0.86398 0.02799 0.0
H416 H 0.02521 0.91476 0.88479 0.0
H417 H 0.00042 0.87943 0.92746 0.0
H418 H 0.93317 0.92339 0.90418 0.0
H419 H 0.95812 0.95913 0.86265 0.0
C420 C 0.91667 0.84675 0.89802 0.0
C421 C 0.92342 0.83058 0.9562 0.0
C422 C 0.92955 0.86929 0.8872 0.0
C423 C 0.94973 0.87577 0.93348 0.0
C424 C 0.95646 0.85948 0.99151 0.0
C425 C 0.9434 0.83715 0.00283 0.0
C426 C 0.0052 0.91719 0.89016 0.0
C427 C 0.99359 0.93969 0.86834 0.0
C428 C 0.99098 0.89688 0.91476 0.0
C429 C 0.96481 0.8985 0.91775 0.0
C430 C 0.95328 0.92147 0.90087 0.0
C431 C 0.96758 0.94195 0.87729 0.0
H432 H 0.67646 0.88879 0.88227 0.0
H433 H 0.70321 0.95505 0.9933 0.0
H434 H 0.63599 0.90882 0.86246 0.0
H435 H 0.66357 0.97597 0.9695 0.0
H436 H 0.5861 0.00622 0.95616 0.0
H437 H 0.62175 0.98073 0.99545 0.0
H438 H 0.61645 0.93832 0.79093 0.0
H439 H 0.5803 0.96282 0.75499 0.0
C440 C 0.67367 0.90781 0.90157 0.0
C441 C 0.69281 0.92045 0.93916 0.0
C442 C 0.65052 0.9194 0.89007 0.0
C443 C 0.64628 0.94421 0.91404 0.0
C444 C 0.6657 0.95674 0.95162 0.0
C445 C 0.68858 0.94489 0.96461 0.0
C446 C 0.59228 0.99094 0.92106 0.0
C447 C 0.5802 0.98606 0.85353 0.0
C448 C 0.61292 0.97652 0.94282 0.0
C449 C 0.62238 0.95747 0.89618 0.0
C450 C 0.60967 0.95236 0.82938 0.0
C451 C 0.58884 0.96643 0.80855 0.0
H452 H 0.55906 0.7014 0.01228 0.0
H453 H 0.62761 0.67467 0.91456 0.0
H454 H 0.53961 0.66094 0.99086 0.0
H455 H 0.60898 0.63338 0.89732 0.0
H456 H 0.55746 0.57543 0.78781 0.0
H457 H 0.5818 0.61139 0.82572 0.0
H458 H 0.5347 0.61969 0.02006 0.0
H459 H 0.50948 0.5843 0.97826 0.0
C460 C 0.57006 0.68658 0.98725 0.0
C461 C 0.59473 0.69108 0.96475 0.0
C462 C 0.55904 0.66319 0.97564 0.0
C463 C 0.57262 0.64347 0.9426 0.0
C464 C 0.59763 0.64802 0.92164 0.0
C465 C 0.60842 0.67167 0.93164 0.0
C466 C 0.5529 0.58443 0.83993 0.0
C467 C 0.53181 0.57693 0.88048 0.0
C468 C 0.56682 0.60528 0.86183 0.0
C469 C 0.56015 0.61902 0.92566 0.0
C470 C 0.54002 0.61024 0.96926 0.0
C471 C 0.52574 0.5897 0.94615 0.0
H472 H 0.81435 0.55982 -0.00205 0.0
H473 H 0.8402 0.62667 0.88774 0.0
H474 H 0.8543 0.53951 0.97384 0.0
H475 H 0.8809 0.60718 0.86725 0.0
H476 H 0.93693 0.55389 0.75799 0.0
H477 H 0.90048 0.57783 0.79464 0.0
H478 H 0.89637 0.53551 -0.00029 0.0
H479 H 0.93242 0.51064 0.95993 0.0
C480 C 0.82885 0.57025 0.96949 0.0
C481 C 0.82428 0.59471 0.94444 0.0
C482 C 0.8519 0.55875 0.95623 0.0
C483 C 0.87112 0.5716 0.9186 0.0
C484 C 0.86653 0.59639 0.89496 0.0
C485 C 0.84325 0.60766 0.90685 0.0
C486 C 0.92862 0.55022 0.81188 0.0
C487 C 0.93774 0.53081 0.85692 0.0
C488 C 0.9076 0.56395 0.83307 0.0
C489 C 0.89516 0.55869 0.90026 0.0
C490 C 0.90503 0.53984 0.94685 0.0
C491 C 0.92588 0.52578 0.9248 0.0
H492 H 0.04784 0.11166 0.30847 0.0
H493 H 0.11159 0.12217 0.16417 0.0
H494 H 0.02788 0.08594 0.21383 0.0
H495 H 0.09138 0.09673 0.06895 0.0
H496 H 0.98738 0.07824 0.98834 0.0
H497 H 0.00927 0.09603 0.09387 0.0
H498 H 0.07577 0.05477 0.03395 0.0
H499 H 0.05387 0.03709 0.92681 0.0
C500 C 0.05769 0.10833 0.25679 0.0
C501 C 0.08117 0.11924 0.24348 0.0
C502 C 0.04621 0.09364 0.20246 0.0
C503 C 0.05792 0.08952 0.13357 0.0
C504 C 0.08194 0.0994 0.12164 0.0
C505 C 0.09345 0.11411 0.17605 0.0
C506 C 0.00659 0.07272 -0.00218 0.0
C507 C 0.01888 0.05632 0.94877 0.0
C508 C 0.01911 0.0828 0.05882 0.0
C509 C 0.04427 0.07682 0.07236 0.0
C510 C 0.05643 0.05988 0.02459 0.0
C511 C 0.04383 0.04963 0.96356 0.0
H512 H 0.39584 0.03412 0.2743 0.0
H513 H 0.39237 0.10241 0.14554 0.0
H514 H 0.42235 0.01518 0.17938 0.0
H515 H 0.41873 0.08333 0.05035 0.0
H516 H 0.48218 0.04779 0.91835 0.0
H517 H 0.4613 0.06692 0.025 0.0
H518 H 0.41578 0.00073 0.05089 0.0
H519 H 0.43669 0.9815 0.94519 0.0
C520 C 0.40084 0.04516 0.22599 0.0
C521 C 0.3918 0.06973 0.21727 0.0
C522 C 0.41597 0.03425 0.17147 0.0
C523 C 0.42255 0.04769 0.10714 0.0
C524 C 0.41419 0.07255 0.09956 0.0
C525 C 0.39895 0.08343 0.15393 0.0
C526 C 0.46799 0.03715 0.94748 0.0
C527 C 0.46108 0.0131 0.92296 0.0
C528 C 0.45589 0.04821 0.00822 0.0
C529 C 0.43681 0.03539 0.04623 0.0
C530 C 0.43056 0.01103 0.02333 0.0
C531 C 0.44248 1.00005 0.96236 0.0
H532 H 0.42497 0.41061 0.23443 0.0
H533 H 0.46764 0.34902 0.14393 0.0
H534 H 0.44649 0.43948 0.15061 0.0
H535 H 0.48845 0.37753 0.05899 0.0
H536 H 0.53757 0.43465 0.95456 0.0
H537 H 0.51833 0.41029 0.05359 0.0
H538 H 0.44903 0.45052 0.02157 0.0
H539 H 0.46857 0.47549 0.92421 0.0
C540 C 0.43886 0.40322 0.19646 0.0
C541 C 0.44461 0.37752 0.19588 0.0
C542 C 0.45114 0.41976 0.14825 0.0
C543 C 0.46935 0.41091 0.09822 0.0
C544 C 0.47497 0.38516 0.09779 0.0
C545 C 0.46285 0.36872 0.14618 0.0
C546 C 0.51834 0.43856 0.96941 0.0
C547 C 0.50458 0.4569 0.93111 0.0
C548 C 0.50722 0.42445 0.02585 0.0
C549 C 0.48197 0.42809 0.04479 0.0
C550 C 0.46855 0.44729 0.00892 0.0
C551 C 0.47977 0.46161 0.95291 0.0
H552 H 0.16595 0.47443 0.1392 0.0
H553 H 0.1071 0.42593 0.21863 0.0
H554 H 0.13688 0.49431 0.0542 0.0
H555 H 0.07757 0.4465 0.13475 0.0
H556 H 0.04251 0.46928 0.9072 0.0
H557 H 0.06758 0.45018 0.00521 0.0
H558 H 0.10218 0.52179 0.04909 0.0
H559 H 0.07781 0.54061 0.94946 0.0
C560 C 0.14671 0.46815 0.13904 0.0
C561 C 0.13888 0.44856 0.18565 0.0
C562 C 0.12992 0.47973 0.09062 0.0
C563 C 0.10475 0.47221 0.08791 0.0
C564 C 0.09685 0.45264 0.13485 0.0
C565 C 0.11375 0.4409 0.1831 0.0
C566 C 0.05515 0.48103 0.93872 0.0
C567 C 0.05836 0.50641 0.92004 0.0
C568 C 0.06952 0.47008 0.99506 0.0
C569 C 0.08725 0.48433 0.03438 0.0
C570 C 0.08924 0.51008 0.01864 0.0
C571 C 0.07511 0.52093 0.96187 0.0
H572 H 0.89707 0.89513 0.35958 0.0
H573 H 0.96239 0.88837 0.21967 0.0
H574 H 0.9196 0.92396 0.4404 0.0
H575 H 0.98464 0.91778 0.29901 0.0
H576 H 0.02517 0.93736 0.51663 0.0
H577 H 0.00225 0.91572 0.42033 0.0
H578 H 0.93896 0.96461 0.4559 0.0
H579 H 0.96186 0.9861 0.55456 0.0
C580 C 0.91611 0.90009 0.34543 0.0
C581 C 0.92805 0.88917 0.28383 0.0
C582 C 0.92898 0.9168 0.39146 0.0
C583 C 0.95402 0.92307 0.3766 0.0
C584 C 0.96554 0.91299 0.31296 0.0
C585 C 0.95275 0.89617 0.26733 0.0
C586 C 0.00649 0.94381 0.50359 0.0
C587 C 0.9953 0.96334 0.54422 0.0
C588 C 0.99335 0.93144 0.44769 0.0
C589 C 0.96867 0.9383 0.43046 0.0
C590 C 0.95782 0.95861 0.46857 0.0
C591 C 0.97102 0.97105 0.52476 0.0
H592 H 0.62708 0.9083 0.31465 0.0
H593 H 0.64963 0.98008 0.22632 0.0
H594 H 0.59918 0.92923 0.40181 0.0
H595 H 0.62107 0.001 0.31156 0.0
H596 H 0.59634 0.0292 0.5404 0.0
H597 H 0.61929 0.00966 0.44017 0.0
H598 H 0.56184 0.95321 0.42008 0.0
H599 H 0.53907 0.9724 0.52315 0.0
C600 C 0.62584 0.92855 0.31315 0.0
C601 C 0.64082 0.94253 0.26413 0.0
C602 C 0.60966 0.94057 0.3628 0.0
C603 C 0.60791 0.96686 0.36422 0.0
C604 C 0.62226 0.98076 0.31317 0.0
C605 C 0.6386 0.96876 0.26403 0.0
C606 C 0.58834 0.01277 0.51439 0.0
C607 C 0.56584 0.00234 0.5405 0.0
C608 C 0.60151 0.00161 0.45619 0.0
C609 C 0.59252 0.97977 0.42185 0.0
C610 C 0.56953 0.96981 0.44595 0.0
C611 C 0.55634 0.98095 0.50466 0.0
H612 H 0.5478 0.67211 0.33698 0.0
H613 H 0.56922 0.60632 0.21228 0.0
H614 H 0.53057 0.64559 0.43421 0.0
H615 H 0.55156 0.57968 0.30966 0.0
H616 H 0.54323 0.54386 0.54657 0.0
H617 H 0.55934 0.56773 0.44088 0.0
H618 H 0.49558 0.61721 0.45341 0.0
H619 H 0.47971 0.59379 0.55907 0.0
C620 C 0.54873 0.65198 0.33009 0.0
C621 C 0.55989 0.64136 0.2668 0.0
C622 C 0.5387 0.63675 0.38569 0.0
C623 C 0.53957 0.61051 0.3795 0.0
C624 C 0.55078 0.59983 0.31631 0.0
C625 C 0.56078 0.6151 0.2604 0.0
C626 C 0.53251 0.55964 0.52619 0.0
C627 C 0.5103 0.56703 0.56192 0.0
C628 C 0.54172 0.57329 0.46552 0.0
C629 C 0.5289 0.59457 0.4394 0.0
C630 C 0.50619 0.60125 0.47319 0.0
C631 C 0.49703 0.5877 0.53365 0.0
H632 H 0.86586 0.53361 0.23267 0.0
H633 H 0.89053 0.606 0.31065 0.0
H634 H 0.89457 0.51322 0.31855 0.0
H635 H 0.91858 0.58564 0.39856 0.0
H636 H 0.97858 0.54275 0.52099 0.0
H637 H 0.95549 0.56109 0.41726 0.0
H638 H 0.89696 0.50631 0.44807 0.0
H639 H 0.9202 0.48757 0.54904 0.0
C640 C 0.87739 0.54518 0.26826 0.0
C641 C 0.87573 0.57143 0.26533 0.0
C642 C 0.89381 0.53349 0.31776 0.0
C643 C 0.90879 0.54774 0.36615 0.0
C644 C 0.9076 0.57403 0.36162 0.0
C645 C 0.89134 0.58573 0.31157 0.0
C646 C 0.96098 0.53438 0.50479 0.0
C647 C 0.95128 0.5137 0.54375 0.0
C648 C 0.94762 0.54503 0.44567 0.0
C649 C 0.92426 0.53529 0.42434 0.0
C650 C 0.91502 0.51414 0.46192 0.0
C651 C 0.92836 0.50346 0.52051 0.0
loop_
_geom_bond_atom_site_label_1
_geom_bond_atom_site_label_2
_geom_bond_distance
_geom_bond_site_symmetry_2
_ccdc_geom_bond_type
O0 Cd1 2.300 1_556 S
O0 C7 1.275 1_556 S
Cd1 O0 2.300 1_554 S
Cd1 O9 2.381 1_554 S
Cd1 O10 2.378 . S
O2 Cd3 2.385 . S
O2 C7 1.255 . S
Cd3 O2 2.385 . S
Cd3 O4 2.317 . S
O4 Cd3 2.317 . S
O4 C5 1.232 . S
C5 O4 1.232 . S
C5 O6 1.218 . S
O6 C5 1.218 . S
C7 O0 1.275 1_554 S
C7 O2 1.255 . S
C8 O9 1.258 1_554 S
C8 O10 1.256 . S
O9 Cd1 2.381 1_556 S
O9 C8 1.258 1_556 S
O10 Cd1 2.378 . S
O10 C8 1.256 . S
O11 Cd12 2.300 1_556 S
O11 C18 1.275 1_556 S
Cd12 O11 2.300 1_554 S
Cd12 O20 2.381 1_554 S
Cd12 O21 2.378 . S
O13 Cd14 2.385 1_655 S
O13 C18 1.255 . S
Cd14 O13 2.385 1_455 S
Cd14 O15 2.317 1_455 S
O15 Cd14 2.317 1_655 S
O15 C16 1.232 . S
C16 O15 1.232 . S
C16 O17 1.218 . S
O17 C16 1.218 . S
C18 O11 1.275 1_554 S
C18 O13 1.255 . S
C19 O20 1.258 1_554 S
C19 O21 1.256 . S
O20 Cd12 2.381 1_556 S
O20 C19 1.258 1_556 S
O21 Cd12 2.378 . S
O21 C19 1.256 . S
O22 Cd23 2.300 1_556 S
O22 C29 1.275 1_556 S
Cd23 O22 2.300 1_554 S
Cd23 O31 2.381 1_554 S
Cd23 O32 2.378 . S
O24 Cd25 2.385 1_565 S
O24 C29 1.255 . S
Cd25 O24 2.385 1_545 S
Cd25 O26 2.317 1_545 S
O26 Cd25 2.317 1_565 S
O26 C27 1.232 . S
C27 O26 1.232 . S
C27 O28 1.218 . S
O28 C27 1.218 . S
C29 O22 1.275 1_554 S
C29 O24 1.255 . S
C30 O31 1.258 1_554 S
C30 O32 1.256 . S
O31 Cd23 2.381 1_556 S
O31 C30 1.258 1_556 S
O32 Cd23 2.378 . S
O32 C30 1.256 . S
O33 Cd34 2.300 1_556 S
O33 C40 1.275 1_556 S
Cd34 O33 2.300 1_554 S
Cd34 O42 2.381 1_554 S
Cd34 O43 2.378 . S
O35 Cd36 2.385 . S
O35 C40 1.255 . S
Cd36 O35 2.385 . S
Cd36 O37 2.317 . S
O37 Cd36 2.317 . S
O37 C38 1.232 . S
C38 O37 1.232 . S
C38 O39 1.218 . S
O39 C38 1.218 . S
C40 O33 1.275 1_554 S
C40 O35 1.255 . S
C41 O42 1.258 1_554 S
C41 O43 1.256 . S
O42 Cd34 2.381 1_556 S
O42 C41 1.258 1_556 S
O43 Cd34 2.378 . S
O43 C41 1.256 . S
O44 Cd45 2.300 . S
O44 C51 1.275 . S
Cd45 O44 2.300 . S
Cd45 O53 2.381 . S
Cd45 O54 2.378 . S
O46 Cd47 2.385 . S
O46 C51 1.255 . S
Cd47 O46 2.385 . S
Cd47 O48 2.317 . S
O48 Cd47 2.317 . S
O48 C49 1.232 . S
C49 O48 1.232 . S
C49 O50 1.218 . S
O50 C49 1.218 . S
C51 O44 1.275 . S
C51 O46 1.255 . S
C52 O53 1.258 . S
C52 O54 1.256 . S
O53 Cd45 2.381 . S
O53 C52 1.258 . S
O54 Cd45 2.378 . S
O54 C52 1.256 . S
O55 Cd56 2.300 . S
O55 C62 1.275 . S
Cd56 O55 2.300 . S
Cd56 O64 2.381 . S
Cd56 O65 2.378 . S
O57 Cd58 2.385 . S
O57 C62 1.255 . S
Cd58 O57 2.385 . S
Cd58 O59 2.317 . S
O59 Cd58 2.317 . S
O59 C60 1.232 . S
C60 O59 1.232 . S
C60 O61 1.218 . S
O61 C60 1.218 . S
C62 O55 1.275 . S
C62 O57 1.255 . S
C63 O64 1.258 . S
C63 O65 1.256 . S
O64 Cd56 2.381 . S
O64 C63 1.258 . S
O65 Cd56 2.378 . S
O65 C63 1.256 . S
O66 Cd67 2.300 . S
O66 C73 1.275 . S
Cd67 O66 2.300 . S
Cd67 O75 2.381 . S
Cd67 O76 2.378 . S
O68 Cd69 2.385 . S
O68 C73 1.255 . S
Cd69 O68 2.385 . S
Cd69 O70 2.317 . S
O70 Cd69 2.317 . S
O70 C71 1.232 . S
C71 O70 1.232 . S
C71 O72 1.218 . S
O72 C71 1.218 . S
C73 O66 1.275 . S
C73 O68 1.255 . S
C74 O75 1.258 . S
C74 O76 1.256 . S
O75 Cd67 2.381 . S
O75 C74 1.258 . S
O76 Cd67 2.378 . S
O76 C74 1.256 . S
O77 Cd78 2.300 . S
O77 C84 1.275 . S
Cd78 O77 2.300 . S
Cd78 O86 2.381 . S
Cd78 O87 2.378 . S
O79 Cd80 2.385 . S
O79 C84 1.255 . S
Cd80 O79 2.385 . S
Cd80 O81 2.317 . S
O81 Cd80 2.317 . S
O81 C82 1.232 . S
C82 O81 1.232 . S
C82 O83 1.218 . S
O83 C82 1.218 . S
C84 O77 1.275 . S
C84 O79 1.255 . S
C85 O86 1.258 . S
C85 O87 1.256 . S
O86 Cd78 2.381 . S
O86 C85 1.258 . S
O87 Cd78 2.378 . S
O87 C85 1.256 . S
O88 Mn89 2.163 . S
O88 C102 1.244 . S
Mn89 O88 2.163 . S
Mn89 O92 2.160 1_445 S
Mn89 O93 2.221 . S
Mn89 O95 2.163 1_545 S
Mn89 O97 2.160 . S
Mn89 O107 2.221 1_455 S
O90 Mn91 2.087 . S
O90 C102 1.256 1_655 S
Mn91 O90 2.087 . S
Mn91 O98 2.089 . S
Mn91 O107 2.290 . S
Mn91 O108 2.251 . S
O92 Mn89 2.160 1_665 S
O92 C103 1.239 . S
O93 Mn89 2.221 . S
O93 Mn94 2.291 1_545 S
O93 C104 1.277 . S
Mn94 O93 2.291 1_565 S
Mn94 O96 2.089 . S
Mn94 O99 2.251 . S
Mn94 O100 2.087 . S
O95 Mn89 2.163 1_565 S
O95 C105 1.244 . S
O96 Mn94 2.089 . S
O96 C103 1.256 1_455 S
O97 Mn89 2.160 . S
O97 C106 1.239 . S
O98 Mn91 2.089 . S
O98 C106 1.256 1_655 S
O99 Mn94 2.251 . S
O99 C104 1.210 1_565 S
O100 Mn94 2.087 . S
O100 C105 1.256 . S
C101 O107 1.278 . S
C101 O108 1.241 . S
C102 O88 1.244 . S
C102 O90 1.256 1_455 S
C103 O92 1.239 . S
C103 O96 1.256 1_655 S
C104 O93 1.277 . S
C104 O99 1.210 1_545 S
C105 O95 1.244 . S
C105 O100 1.256 . S
C106 O97 1.239 . S
C106 O98 1.256 1_455 S
O107 Mn89 2.221 1_655 S
O107 Mn91 2.290 . S
O107 C101 1.278 . S
O108 Mn91 2.251 . S
O108 C101 1.241 . S
O109 Mn110 2.163 . S
O109 C123 1.244 . S
Mn110 O109 2.163 . S
Mn110 O113 2.160 . S
Mn110 O114 2.221 1_545 S
Mn110 O116 2.163 . S
Mn110 O118 2.160 1_545 S
Mn110 O128 2.221 . S
O111 Mn112 2.087 . S
O111 C123 1.256 . S
Mn112 O111 2.087 . S
Mn112 O119 2.089 . S
Mn112 O128 2.290 . S
Mn112 O129 2.251 . S
O113 Mn110 2.160 . S
O113 C124 1.239 . S
O114 Mn110 2.221 1_565 S
O114 Mn115 2.290 . S
O114 C125 1.278 . S
Mn115 O114 2.290 . S
Mn115 O117 2.089 . S
Mn115 O120 2.251 . S
Mn115 O121 2.087 . S
O116 Mn110 2.163 . S
O116 C126 1.244 . S
O117 Mn115 2.089 . S
O117 C124 1.256 1_565 S
O118 Mn110 2.160 1_565 S
O118 C127 1.239 . S
O119 Mn112 2.089 . S
O119 C127 1.256 1_545 S
O120 Mn115 2.251 . S
O120 C125 1.241 . S
O121 Mn115 2.087 . S
O121 C126 1.256 1_565 S
C122 O128 1.278 . S
C122 O129 1.241 . S
C123 O109 1.244 . S
C123 O111 1.256 . S
C124 O113 1.239 . S
C124 O117 1.256 1_545 S
C125 O114 1.278 . S
C125 O120 1.241 . S
C126 O116 1.244 . S
C126 O121 1.256 1_545 S
C127 O118 1.239 . S
C127 O119 1.256 1_565 S
O128 Mn110 2.221 . S
O128 Mn112 2.290 . S
O128 C122 1.278 . S
O129 Mn112 2.251 . S
O129 C122 1.241 . S
O130 Mn131 2.163 . S
O130 C144 1.244 . S
Mn131 O130 2.163 . S
Mn131 O134 2.160 . S
Mn131 O135 2.221 . S
Mn131 O137 2.163 . S
Mn131 O139 2.160 . S
Mn131 O149 2.221 . S
O132 Mn133 2.087 . S
O132 C144 1.256 . S
Mn133 O132 2.087 . S
Mn133 O140 2.089 . S
Mn133 O149 2.290 . S
Mn133 O150 2.251 . S
O134 Mn131 2.160 . S
O134 C145 1.239 . S
O135 Mn131 2.221 . S
O135 Mn136 2.290 . S
O135 C146 1.278 . S
Mn136 O135 2.290 . S
Mn136 O138 2.089 . S
Mn136 O141 2.251 . S
Mn136 O142 2.087 . S
O137 Mn131 2.163 . S
O137 C147 1.244 . S
O138 Mn136 2.089 . S
O138 C145 1.256 . S
O139 Mn131 2.160 . S
O139 C148 1.239 . S
O140 Mn133 2.089 . S
O140 C148 1.256 . S
O141 Mn136 2.251 . S
O141 C146 1.241 . S
O142 Mn136 2.087 . S
O142 C147 1.256 . S
C143 O149 1.278 . S
C143 O150 1.241 . S
C144 O130 1.244 . S
C144 O132 1.256 . S
C145 O134 1.239 . S
C145 O138 1.256 . S
C146 O135 1.278 . S
C146 O141 1.241 . S
C147 O137 1.244 . S
C147 O142 1.256 . S
C148 O139 1.239 . S
C148 O140 1.256 . S
O149 Mn131 2.221 . S
O149 Mn133 2.290 . S
O149 C143 1.278 . S
O150 Mn133 2.251 . S
O150 C143 1.241 . S
O151 Mn152 2.163 . S
O151 C165 1.244 . S
Mn152 O151 2.163 . S
Mn152 O155 2.160 1_455 S
Mn152 O156 2.221 . S
Mn152 O158 2.163 1_455 S
Mn152 O160 2.160 . S
Mn152 O170 2.221 . S
O153 Mn154 2.087 . S
O153 C165 1.256 . S
Mn154 O153 2.087 . S
Mn154 O161 2.089 . S
Mn154 O170 2.290 . S
Mn154 O171 2.251 . S
O155 Mn152 2.160 1_655 S
O155 C166 1.239 . S
O156 Mn152 2.221 . S
O156 Mn157 2.292 1_455 S
O156 C167 1.277 . S
Mn157 O156 2.292 1_655 S
Mn157 O159 2.089 . S
Mn157 O162 2.251 . S
Mn157 O163 2.087 . S
O158 Mn152 2.163 1_655 S
O158 C168 1.244 . S
O159 Mn157 2.089 . S
O159 C166 1.256 . S
O160 Mn152 2.160 . S
O160 C169 1.239 . S
O161 Mn154 2.089 . S
O161 C169 1.256 . S
O162 Mn157 2.251 . S
O162 C167 1.210 1_655 S
O163 Mn157 2.087 . S
O163 C168 1.256 . S
C164 O170 1.278 . S
C164 O171 1.241 . S
C165 O151 1.244 . S
C165 O153 1.256 . S
C166 O155 1.239 . S
C166 O159 1.256 . S
C167 O156 1.277 . S
C167 O162 1.210 1_455 S
C168 O158 1.244 . S
C168 O163 1.256 . S
C169 O160 1.239 . S
C169 O161 1.256 . S
O170 Mn152 2.221 . S
O170 Mn154 2.290 . S
O170 C164 1.278 . S
O171 Mn154 2.251 . S
O171 C164 1.241 . S
H172 C180 0.950 . S
H173 C185 0.950 . S
H174 C182 0.950 . S
H175 C184 0.950 . S
H176 C186 0.950 1_565 S
H177 C188 0.950 1_565 S
H178 C190 0.950 . S
H179 C191 0.950 . S
C180 H172 0.950 . S
C180 C181 1.386 . S
C180 C182 1.391 . S
C181 C180 1.386 . S
C181 C185 1.393 . S
C182 H174 0.950 . S
C182 C180 1.391 . S
C182 C183 1.400 . S
C183 C182 1.400 . S
C183 C184 1.398 . S
C183 C189 1.491 . S
C184 H175 0.950 . S
C184 C183 1.398 . S
C184 C185 1.391 . S
C185 H173 0.950 . S
C185 C181 1.393 . S
C185 C184 1.391 . S
C186 H176 0.950 1_545 S
C186 C187 1.386 . S
C186 C188 1.391 . S
C187 C186 1.386 . S
C187 C191 1.393 . S
C188 H177 0.950 1_545 S
C188 C186 1.391 . S
C188 C189 1.400 . S
C189 C183 1.491 . S
C189 C188 1.400 . S
C189 C190 1.398 . S
C190 H178 0.950 . S
C190 C189 1.398 . S
C190 C191 1.391 . S
C191 H179 0.950 . S
C191 C187 1.393 . S
C191 C190 1.391 . S
H192 C200 0.950 . S
H193 C205 0.950 . S
H194 C202 0.950 . S
H195 C204 0.950 . S
H196 C206 0.950 . S
H197 C208 0.950 . S
H198 C210 0.950 . S
H199 C211 0.950 . S
C200 H192 0.950 . S
C200 C201 1.386 . S
C200 C202 1.391 . S
C201 C200 1.386 . S
C201 C205 1.393 . S
C202 H194 0.950 . S
C202 C200 1.391 . S
C202 C203 1.400 . S
C203 C202 1.400 . S
C203 C204 1.398 . S
C203 C209 1.491 . S
C204 H195 0.950 . S
C204 C203 1.398 . S
C204 C205 1.391 . S
C205 H193 0.950 . S
C205 C201 1.393 . S
C205 C204 1.391 . S
C206 H196 0.950 . S
C206 C207 1.386 . S
C206 C208 1.391 . S
C207 C206 1.386 . S
C207 C211 1.393 . S
C208 H197 0.950 . S
C208 C206 1.391 . S
C208 C209 1.400 . S
C209 C203 1.491 . S
C209 C208 1.400 . S
C209 C210 1.398 . S
C210 H198 0.950 . S
C210 C209 1.398 . S
C210 C211 1.391 . S
C211 H199 0.950 . S
C211 C207 1.393 . S
C211 C210 1.391 . S
H212 C220 0.950 . S
H213 C225 0.950 . S
H214 C222 0.950 . S
H215 C224 0.950 . S
H216 C226 0.950 . S
H217 C228 0.950 . S
H218 C230 0.950 . S
H219 C231 0.950 . S
C220 H212 0.950 . S
C220 C221 1.386 . S
C220 C222 1.391 . S
C221 C220 1.386 . S
C221 C225 1.393 . S
C222 H214 0.950 . S
C222 C220 1.391 . S
C222 C223 1.400 . S
C223 C222 1.400 . S
C223 C224 1.398 . S
C223 C229 1.491 . S
C224 H215 0.950 . S
C224 C223 1.398 . S
C224 C225 1.391 . S
C225 H213 0.950 . S
C225 C221 1.393 . S
C225 C224 1.391 . S
C226 H216 0.950 . S
C226 C227 1.386 . S
C226 C228 1.391 . S
C227 C226 1.386 . S
C227 C231 1.393 . S
C228 H217 0.950 . S
C228 C226 1.391 . S
C228 C229 1.400 . S
C229 C223 1.491 . S
C229 C228 1.400 . S
C229 C230 1.398 . S
C230 H218 0.950 . S
C230 C229 1.398 . S
C230 C231 1.391 . S
C231 H219 0.950 . S
C231 C227 1.393 . S
C231 C230 1.391 . S
H232 C240 0.950 . S
H233 C245 0.950 . S
H234 C242 0.950 . S
H235 C244 0.950 . S
H236 C246 0.950 . S
H237 C248 0.950 1_655 S
H238 C250 0.950 . S
H239 C251 0.950 . S
C240 H232 0.950 . S
C240 C241 1.386 . S
C240 C242 1.391 . S
C241 C240 1.386 . S
C241 C245 1.393 . S
C242 H234 0.950 . S
C242 C240 1.391 . S
C242 C243 1.400 . S
C243 C242 1.400 . S
C243 C244 1.398 . S
C243 C249 1.491 . S
C244 H235 0.950 . S
C244 C243 1.398 . S
C244 C245 1.391 . S
C245 H233 0.950 . S
C245 C241 1.393 . S
C245 C244 1.391 . S
C246 H236 0.950 . S
C246 C247 1.386 1_655 S
C246 C248 1.391 1_655 S
C247 C246 1.386 1_455 S
C247 C251 1.393 . S
C248 H237 0.950 1_455 S
C248 C246 1.391 1_455 S
C248 C249 1.400 . S
C249 C243 1.491 . S
C249 C248 1.400 . S
C249 C250 1.398 . S
C250 H238 0.950 . S
C250 C249 1.398 . S
C250 C251 1.391 . S
C251 H239 0.950 . S
C251 C247 1.393 . S
C251 C250 1.391 . S
H252 C260 0.950 1_544 S
H253 C265 0.950 . S
H254 C262 0.947 . S
H255 C264 0.950 . S
H256 C266 0.950 . S
H257 C268 0.950 . S
H258 C270 0.950 . S
H259 C271 0.950 . S
C260 H252 0.950 1_566 S
C260 C261 1.385 1_556 S
C260 C262 1.392 1_565 S
C261 C260 1.385 1_554 S
C261 C265 1.389 1_554 S
C262 H254 0.947 . S
C262 C260 1.392 1_545 S
C262 C263 1.402 1_545 S
C263 C262 1.402 1_565 S
C263 C264 1.398 . S
C263 C269 1.491 . S
C264 H255 0.950 . S
C264 C263 1.398 . S
C264 C265 1.391 . S
C265 H253 0.950 . S
C265 C261 1.389 1_556 S
C265 C264 1.391 . S
C266 H256 0.950 . S
C266 C267 1.395 . S
C266 C268 1.391 . S
C267 C266 1.395 . S
C267 C271 1.386 1_565 S
C268 H257 0.950 . S
C268 C266 1.391 . S
C268 C269 1.400 . S
C269 C263 1.491 . S
C269 C268 1.400 . S
C269 C270 1.398 1_565 S
C270 H258 0.950 . S
C270 C269 1.398 1_545 S
C270 C271 1.391 . S
C271 H259 0.950 . S
C271 C267 1.386 1_545 S
C271 C270 1.391 . S
H272 C280 0.950 . S
H273 C285 0.950 . S
H274 C282 0.950 . S
H275 C284 0.950 1_554 S
H276 C286 0.950 . S
H277 C288 0.950 . S
H278 C290 0.950 . S
H279 C291 0.950 . S
C280 H272 0.950 . S
C280 C281 1.384 1_556 S
C280 C282 1.391 . S
C281 C280 1.384 1_554 S
C281 C285 1.393 . S
C282 H274 0.950 . S
C282 C280 1.391 . S
C282 C283 1.400 . S
C283 C282 1.400 . S
C283 C284 1.398 . S
C283 C289 1.491 . S
C284 H275 0.950 1_556 S
C284 C283 1.398 . S
C284 C285 1.391 1_556 S
C285 H273 0.950 . S
C285 C281 1.393 . S
C285 C284 1.391 1_554 S
C286 H276 0.950 . S
C286 C287 1.386 . S
C286 C288 1.391 . S
C287 C286 1.386 . S
C287 C291 1.393 . S
C288 H277 0.950 . S
C288 C286 1.391 . S
C288 C289 1.400 . S
C289 C283 1.491 . S
C289 C288 1.400 . S
C289 C290 1.398 . S
C290 H278 0.950 . S
C290 C289 1.398 . S
C290 C291 1.391 . S
C291 H279 0.950 . S
C291 C287 1.393 . S
C291 C290 1.391 . S
H292 C300 0.950 . S
H293 C305 0.950 . S
H294 C302 0.950 . S
H295 C304 0.950 . S
H296 C306 0.950 . S
H297 C308 0.950 . S
H298 C310 0.950 . S
H299 C311 0.950 . S
C300 H292 0.950 . S
C300 C301 1.383 1_556 S
C300 C302 1.391 . S
C301 C300 1.383 1_554 S
C301 C305 1.390 1_554 S
C302 H294 0.950 . S
C302 C300 1.391 . S
C302 C303 1.400 . S
C303 C302 1.400 . S
C303 C304 1.398 . S
C303 C309 1.491 . S
C304 H295 0.950 . S
C304 C303 1.398 . S
C304 C305 1.391 . S
C305 H293 0.950 . S
C305 C301 1.390 1_556 S
C305 C304 1.391 . S
C306 H296 0.950 . S
C306 C307 1.386 . S
C306 C308 1.391 . S
C307 C306 1.386 . S
C307 C311 1.393 . S
C308 H297 0.950 . S
C308 C306 1.391 . S
C308 C309 1.400 . S
C309 C303 1.491 . S
C309 C308 1.400 . S
C309 C310 1.398 . S
C310 H298 0.950 . S
C310 C309 1.398 . S
C310 C311 1.391 . S
C311 H299 0.950 . S
C311 C307 1.393 . S
C311 C310 1.391 . S
H312 C320 0.930 1_455 S
H313 C325 0.950 . S
H314 C322 0.950 1_455 S
H315 C324 0.950 . S
H316 C326 0.950 . S
H317 C328 0.950 . S
H318 C330 0.950 . S
H319 C331 0.950 . S
C320 H312 0.930 1_655 S
C320 C321 1.381 1_556 S
C320 C322 1.391 . S
C321 C320 1.381 1_554 S
C321 C325 1.394 . S
C322 H314 0.950 1_655 S
C322 C320 1.391 . S
C322 C323 1.400 . S
C323 C322 1.400 . S
C323 C324 1.398 . S
C323 C329 1.491 . S
C324 H315 0.950 . S
C324 C323 1.398 . S
C324 C325 1.391 1_556 S
C325 H313 0.950 . S
C325 C321 1.394 . S
C325 C324 1.391 1_554 S
C326 H316 0.950 . S
C326 C327 1.386 . S
C326 C328 1.391 . S
C327 C326 1.386 . S
C327 C331 1.393 1_655 S
C328 H317 0.950 . S
C328 C326 1.391 . S
C328 C329 1.400 . S
C329 C323 1.491 . S
C329 C328 1.400 . S
C329 C330 1.398 1_655 S
C330 H318 0.950 . S
C330 C329 1.398 1_455 S
C330 C331 1.391 . S
C331 H319 0.950 . S
C331 C327 1.393 1_455 S
C331 C330 1.391 . S
H332 C340 0.950 . S
H333 C345 0.950 . S
H334 C342 0.950 . S
H335 C344 0.950 . S
H336 C346 0.950 . S
H337 C348 0.950 . S
H338 C350 0.948 1_655 S
H339 C351 0.950 . S
C340 H332 0.950 . S
C340 C341 1.386 . S
C340 C342 1.391 . S
C341 C340 1.386 . S
C341 C345 1.393 . S
C342 H334 0.950 . S
C342 C340 1.391 . S
C342 C343 1.400 . S
C343 C342 1.400 . S
C343 C344 1.398 . S
C343 C349 1.491 . S
C344 H335 0.950 . S
C344 C343 1.398 . S
C344 C345 1.391 . S
C345 H333 0.950 . S
C345 C341 1.393 . S
C345 C344 1.391 . S
C346 H336 0.950 . S
C346 C347 1.386 . S
C346 C348 1.391 . S
C347 C346 1.386 . S
C347 C351 1.393 1_455 S
C348 H337 0.950 . S
C348 C346 1.391 . S
C348 C349 1.400 . S
C349 C343 1.491 . S
C349 C348 1.400 . S
C349 C350 1.401 . S
C350 H338 0.948 1_455 S
C350 C349 1.401 . S
C350 C351 1.390 1_455 S
C351 H339 0.950 . S
C351 C347 1.393 1_655 S
C351 C350 1.390 1_655 S
H352 C360 0.950 . S
H353 C365 0.950 . S
H354 C362 0.950 . S
H355 C364 0.950 . S
H356 C366 0.950 . S
H357 C368 0.950 . S
H358 C370 0.975 . S
H359 C371 0.950 . S
C360 H352 0.950 . S
C360 C361 1.386 . S
C360 C362 1.391 . S
C361 C360 1.386 . S
C361 C365 1.393 . S
C362 H354 0.950 . S
C362 C360 1.391 . S
C362 C363 1.400 . S
C363 C362 1.400 . S
C363 C364 1.398 . S
C363 C369 1.491 . S
C364 H355 0.950 . S
C364 C363 1.398 . S
C364 C365 1.391 . S
C365 H353 0.950 . S
C365 C361 1.393 . S
C365 C364 1.391 . S
C366 H356 0.950 . S
C366 C367 1.386 . S
C366 C368 1.391 . S
C367 C366 1.386 . S
C367 C371 1.393 1_545 S
C368 H357 0.950 . S
C368 C366 1.391 . S
C368 C369 1.400 . S
C369 C363 1.491 . S
C369 C368 1.400 . S
C369 C370 1.361 1_545 S
C370 H358 0.975 . S
C370 C369 1.361 1_565 S
C370 C371 1.405 . S
C371 H359 0.950 . S
C371 C367 1.393 1_565 S
C371 C370 1.405 . S
H372 C380 0.950 . S
H373 C385 0.950 . S
H374 C382 0.950 . S
H375 C384 0.950 . S
H376 C386 0.950 . S
H377 C388 0.950 . S
H378 C390 0.950 . S
H379 C391 0.950 . S
C380 H372 0.950 . S
C380 C381 1.386 . S
C380 C382 1.391 . S
C381 C380 1.386 . S
C381 C385 1.393 . S
C382 H374 0.950 . S
C382 C380 1.391 . S
C382 C383 1.400 . S
C383 C382 1.400 . S
C383 C384 1.398 . S
C383 C389 1.491 . S
C384 H375 0.950 . S
C384 C383 1.398 . S
C384 C385 1.391 . S
C385 H373 0.950 . S
C385 C381 1.393 . S
C385 C384 1.391 . S
C386 H376 0.950 . S
C386 C387 1.386 . S
C386 C388 1.391 . S
C387 C386 1.386 . S
C387 C391 1.393 . S
C388 H377 0.950 . S
C388 C386 1.391 . S
C388 C389 1.400 . S
C389 C383 1.491 . S
C389 C388 1.400 . S
C389 C390 1.398 . S
C390 H378 0.950 . S
C390 C389 1.398 . S
C390 C391 1.391 . S
C391 H379 0.950 . S
C391 C387 1.393 . S
C391 C390 1.391 . S
H392 C400 0.950 . S
H393 C405 0.950 . S
H394 C402 0.950 . S
H395 C404 0.950 . S
H396 C406 0.950 . S
H397 C408 0.950 . S
H398 C410 0.950 . S
H399 C411 0.950 . S
C400 H392 0.950 . S
C400 C401 1.386 . S
C400 C402 1.391 . S
C401 C400 1.386 . S
C401 C405 1.393 . S
C402 H394 0.950 . S
C402 C400 1.391 . S
C402 C403 1.400 . S
C403 C402 1.400 . S
C403 C404 1.398 . S
C403 C409 1.491 . S
C404 H395 0.950 . S
C404 C403 1.398 . S
C404 C405 1.391 . S
C405 H393 0.950 . S
C405 C401 1.393 . S
C405 C404 1.391 . S
C406 H396 0.950 . S
C406 C407 1.386 . S
C406 C408 1.391 . S
C407 C406 1.386 . S
C407 C411 1.393 . S
C408 H397 0.950 . S
C408 C406 1.391 . S
C408 C409 1.400 . S
C409 C403 1.491 . S
C409 C408 1.400 . S
C409 C410 1.398 . S
C410 H398 0.950 . S
C410 C409 1.398 . S
C410 C411 1.391 . S
C411 H399 0.950 . S
C411 C407 1.393 . S
C411 C410 1.391 . S
H412 C420 0.950 . S
H413 C425 0.950 . S
H414 C422 0.950 1_554 S
H415 C424 0.950 1_455 S
H416 C426 0.950 . S
H417 C428 0.950 . S
H418 C430 0.950 . S
H419 C431 0.950 . S
C420 H412 0.950 . S
C420 C421 1.386 . S
C420 C422 1.391 1_554 S
C421 C420 1.386 . S
C421 C425 1.393 1_554 S
C422 H414 0.950 1_556 S
C422 C420 1.391 1_556 S
C422 C423 1.400 . S
C423 C422 1.400 . S
C423 C424 1.398 . S
C423 C429 1.491 . S
C424 H415 0.950 1_655 S
C424 C423 1.398 . S
C424 C425 1.391 . S
C425 H413 0.950 . S
C425 C421 1.393 1_556 S
C425 C424 1.391 . S
C426 H416 0.950 . S
C426 C427 1.386 . S
C426 C428 1.391 . S
C427 C426 1.386 . S
C427 C431 1.393 1_455 S
C428 H417 0.950 . S
C428 C426 1.391 . S
C428 C429 1.400 1_455 S
C429 C423 1.491 . S
C429 C428 1.400 1_655 S
C429 C430 1.398 . S
C430 H418 0.950 . S
C430 C429 1.398 . S
C430 C431 1.391 . S
C431 H419 0.950 . S
C431 C427 1.393 1_655 S
C431 C430 1.391 . S
H432 C440 0.950 . S
H433 C445 0.950 1_545 S
H434 C442 0.950 . S
H435 C444 0.951 1_545 S
H436 C446 0.950 . S
H437 C448 0.950 . S
H438 C450 0.950 . S
H439 C451 0.950 . S
C440 H432 0.950 . S
C440 C441 1.386 1_556 S
C440 C442 1.391 . S
C441 C440 1.386 1_554 S
C441 C445 1.393 . S
C442 H434 0.950 . S
C442 C440 1.391 . S
C442 C443 1.400 . S
C443 C442 1.400 . S
C443 C444 1.398 . S
C443 C449 1.491 . S
C444 H435 0.951 1_565 S
C444 C443 1.398 . S
C444 C445 1.391 1_556 S
C445 H433 0.950 1_565 S
C445 C441 1.393 . S
C445 C444 1.391 1_554 S
C446 H436 0.950 . S
C446 C447 1.386 . S
C446 C448 1.391 . S
C447 C446 1.386 . S
C447 C451 1.393 1_545 S
C448 H437 0.950 . S
C448 C446 1.391 . S
C448 C449 1.400 1_545 S
C449 C443 1.491 . S
C449 C448 1.400 1_565 S
C449 C450 1.398 . S
C450 H438 0.950 . S
C450 C449 1.398 . S
C450 C451 1.391 . S
C451 H439 0.950 . S
C451 C447 1.393 1_565 S
C451 C450 1.391 . S
H452 C460 0.950 . S
H453 C465 0.950 1_554 S
H454 C462 0.950 . S
H455 C464 0.950 . S
H456 C466 0.950 . S
H457 C468 0.950 . S
H458 C470 0.950 . S
H459 C471 0.950 . S
C460 H452 0.950 . S
C460 C461 1.386 . S
C460 C462 1.391 . S
C461 C460 1.386 . S
C461 C465 1.393 . S
C462 H454 0.950 . S
C462 C460 1.391 . S
C462 C463 1.400 . S
C463 C462 1.400 . S
C463 C464 1.398 . S
C463 C469 1.491 . S
C464 H455 0.950 . S
C464 C463 1.398 . S
C464 C465 1.391 . S
C465 H453 0.950 1_556 S
C465 C461 1.393 . S
C465 C464 1.391 . S
C466 H456 0.950 . S
C466 C467 1.386 . S
C466 C468 1.391 . S
C467 C466 1.386 . S
C467 C471 1.393 . S
C468 H457 0.950 . S
C468 C466 1.391 . S
C468 C469 1.400 . S
C469 C463 1.491 . S
C469 C468 1.400 . S
C469 C470 1.398 . S
C470 H458 0.950 . S
C470 C469 1.398 . S
C470 C471 1.391 . S
C471 H459 0.950 . S
C471 C467 1.393 . S
C471 C470 1.391 . S
H472 C480 0.950 . S
H473 C485 0.950 . S
H474 C482 0.950 1_554 S
H475 C484 0.950 . S
H476 C486 0.950 . S
H477 C488 0.950 . S
H478 C490 0.950 . S
H479 C491 0.950 . S
C480 H472 0.950 . S
C480 C481 1.386 1_554 S
C480 C482 1.391 1_554 S
C481 C480 1.386 1_556 S
C481 C485 1.393 . S
C482 H474 0.950 1_556 S
C482 C480 1.391 1_556 S
C482 C483 1.400 . S
C483 C482 1.400 . S
C483 C484 1.398 . S
C483 C489 1.491 . S
C484 H475 0.950 . S
C484 C483 1.398 . S
C484 C485 1.391 . S
C485 H473 0.950 . S
C485 C481 1.393 . S
C485 C484 1.391 . S
C486 H476 0.950 . S
C486 C487 1.386 . S
C486 C488 1.391 . S
C487 C486 1.386 . S
C487 C491 1.393 . S
C488 H477 0.950 . S
C488 C486 1.391 . S
C488 C489 1.400 . S
C489 C483 1.491 . S
C489 C488 1.400 . S
C489 C490 1.398 . S
C490 H478 0.950 . S
C490 C489 1.398 . S
C490 C491 1.391 . S
C491 H479 0.950 . S
C491 C487 1.393 . S
C491 C490 1.391 . S
H492 C500 0.950 . S
H493 C505 0.950 . S
H494 C502 0.950 . S
H495 C504 0.950 1_556 S
H496 C506 0.950 . S
H497 C508 0.950 . S
H498 C510 0.950 . S
H499 C511 0.950 . S
C500 H492 0.950 . S
C500 C501 1.386 . S
C500 C502 1.391 . S
C501 C500 1.386 . S
C501 C505 1.393 . S
C502 H494 0.950 . S
C502 C500 1.391 . S
C502 C503 1.400 . S
C503 C502 1.400 . S
C503 C504 1.398 . S
C503 C509 1.491 . S
C504 H495 0.950 1_554 S
C504 C503 1.398 . S
C504 C505 1.391 . S
C505 H493 0.950 . S
C505 C501 1.393 . S
C505 C504 1.391 . S
C506 H496 0.950 . S
C506 C507 1.386 . S
C506 C508 1.391 . S
C507 C506 1.386 . S
C507 C511 1.393 . S
C508 H497 0.950 . S
C508 C506 1.391 . S
C508 C509 1.400 1_556 S
C509 C503 1.491 . S
C509 C508 1.400 1_554 S
C509 C510 1.398 . S
C510 H498 0.950 . S
C510 C509 1.398 . S
C510 C511 1.391 1_554 S
C511 H499 0.950 . S
C511 C507 1.393 . S
C511 C510 1.391 1_556 S
H512 C520 0.950 . S
H513 C525 0.950 . S
H514 C522 0.950 . S
H515 C524 0.950 . S
H516 C526 0.950 . S
H517 C528 0.950 . S
H518 C530 0.950 . S
H519 C531 0.950 . S
C520 H512 0.950 . S
C520 C521 1.386 . S
C520 C522 1.391 . S
C521 C520 1.386 . S
C521 C525 1.393 . S
C522 H514 0.950 . S
C522 C520 1.391 . S
C522 C523 1.400 . S
C523 C522 1.400 . S
C523 C524 1.398 . S
C523 C529 1.491 . S
C524 H515 0.950 . S
C524 C523 1.398 . S
C524 C525 1.391 . S
C525 H513 0.950 . S
C525 C521 1.393 . S
C525 C524 1.391 . S
C526 H516 0.950 . S
C526 C527 1.386 . S
C526 C528 1.391 1_556 S
C527 C526 1.386 . S
C527 C531 1.393 . S
C528 H517 0.950 . S
C528 C526 1.391 1_554 S
C528 C529 1.400 . S
C529 C523 1.491 . S
C529 C528 1.400 . S
C529 C530 1.398 1_554 S
C530 H518 0.950 . S
C530 C529 1.398 1_556 S
C530 C531 1.391 . S
C531 H519 0.950 . S
C531 C527 1.393 . S
C531 C530 1.391 . S
H532 C540 0.950 . S
H533 C545 0.950 . S
H534 C542 0.950 . S
H535 C544 0.950 . S
H536 C546 0.950 . S
H537 C548 0.950 1_554 S
H538 C550 0.950 . S
H539 C551 0.950 . S
C540 H532 0.950 . S
C540 C541 1.386 . S
C540 C542 1.391 . S
C541 C540 1.386 . S
C541 C545 1.393 . S
C542 H534 0.950 . S
C542 C540 1.391 . S
C542 C543 1.400 . S
C543 C542 1.400 . S
C543 C544 1.398 . S
C543 C549 1.491 . S
C544 H535 0.950 . S
C544 C543 1.398 . S
C544 C545 1.391 . S
C545 H533 0.950 . S
C545 C541 1.393 . S
C545 C544 1.391 . S
C546 H536 0.950 . S
C546 C547 1.386 . S
C546 C548 1.391 . S
C547 C546 1.386 . S
C547 C551 1.393 . S
C548 H537 0.950 1_556 S
C548 C546 1.391 . S
C548 C549 1.400 1_556 S
C549 C543 1.491 . S
C549 C548 1.400 1_554 S
C549 C550 1.398 1_554 S
C550 H538 0.950 . S
C550 C549 1.398 1_556 S
C550 C551 1.391 . S
C551 H539 0.950 . S
C551 C547 1.393 . S
C551 C550 1.391 . S
H552 C560 0.950 . S
H553 C565 0.950 . S
H554 C562 0.950 . S
H555 C564 0.950 . S
H556 C566 0.950 . S
H557 C568 0.950 . S
H558 C570 0.950 . S
H559 C571 0.950 . S
C560 H552 0.950 . S
C560 C561 1.386 . S
C560 C562 1.391 . S
C561 C560 1.386 . S
C561 C565 1.393 . S
C562 H554 0.950 . S
C562 C560 1.391 . S
C562 C563 1.400 . S
C563 C562 1.400 . S
C563 C564 1.398 . S
C563 C569 1.491 . S
C564 H555 0.950 . S
C564 C563 1.398 . S
C564 C565 1.391 . S
C565 H553 0.950 . S
C565 C561 1.393 . S
C565 C564 1.391 . S
C566 H556 0.950 . S
C566 C567 1.386 . S
C566 C568 1.391 . S
C567 C566 1.386 . S
C567 C571 1.393 . S
C568 H557 0.950 . S
C568 C566 1.391 . S
C568 C569 1.400 1_556 S
C569 C563 1.491 . S
C569 C568 1.400 1_554 S
C569 C570 1.398 . S
C570 H558 0.950 . S
C570 C569 1.398 . S
C570 C571 1.391 1_554 S
C571 H559 0.950 . S
C571 C567 1.393 . S
C571 C570 1.391 1_556 S
H572 C580 0.950 . S
H573 C585 0.950 . S
H574 C582 0.950 . S
H575 C584 0.950 . S
H576 C586 0.950 . S
H577 C588 0.950 . S
H578 C590 0.950 . S
H579 C591 0.950 . S
C580 H572 0.950 . S
C580 C581 1.386 . S
C580 C582 1.391 . S
C581 C580 1.386 . S
C581 C585 1.393 . S
C582 H574 0.950 . S
C582 C580 1.391 . S
C582 C583 1.400 . S
C583 C582 1.400 . S
C583 C584 1.398 . S
C583 C589 1.491 . S
C584 H575 0.950 . S
C584 C583 1.398 . S
C584 C585 1.391 . S
C585 H573 0.950 . S
C585 C581 1.393 . S
C585 C584 1.391 . S
C586 H576 0.950 . S
C586 C587 1.386 . S
C586 C588 1.391 . S
C587 C586 1.386 . S
C587 C591 1.393 . S
C588 H577 0.950 . S
C588 C586 1.391 . S
C588 C589 1.400 . S
C589 C583 1.491 . S
C589 C588 1.400 . S
C589 C590 1.398 . S
C590 H578 0.950 . S
C590 C589 1.398 . S
C590 C591 1.391 . S
C591 H579 0.950 . S
C591 C587 1.393 . S
C591 C590 1.391 . S
H592 C600 0.950 . S
H593 C605 0.950 . S
H594 C602 0.950 . S
H595 C604 0.950 . S
H596 C606 0.943 1_545 S
H597 C608 0.950 1_545 S
H598 C610 0.950 . S
H599 C611 0.950 . S
C600 H592 0.950 . S
C600 C601 1.386 . S
C600 C602 1.391 . S
C601 C600 1.386 . S
C601 C605 1.393 . S
C602 H594 0.950 . S
C602 C600 1.391 . S
C602 C603 1.400 . S
C603 C602 1.400 . S
C603 C604 1.398 . S
C603 C609 1.491 . S
C604 H595 0.950 . S
C604 C603 1.398 . S
C604 C605 1.391 . S
C605 H593 0.950 . S
C605 C601 1.393 . S
C605 C604 1.391 . S
C606 H596 0.943 1_565 S
C606 C607 1.391 . S
C606 C608 1.393 . S
C607 C606 1.391 . S
C607 C611 1.393 . S
C608 H597 0.950 1_565 S
C608 C606 1.393 . S
C608 C609 1.400 . S
C609 C603 1.491 . S
C609 C608 1.400 . S
C609 C610 1.398 . S
C610 H598 0.950 . S
C610 C609 1.398 . S
C610 C611 1.391 . S
C611 H599 0.950 . S
C611 C607 1.393 . S
C611 C610 1.391 . S
H612 C620 0.950 . S
H613 C625 0.950 . S
H614 C622 0.950 . S
H615 C624 0.950 . S
H616 C626 0.950 . S
H617 C628 0.950 . S
H618 C630 0.950 . S
H619 C631 0.950 . S
C620 H612 0.950 . S
C620 C621 1.386 . S
C620 C622 1.391 . S
C621 C620 1.386 . S
C621 C625 1.393 . S
C622 H614 0.950 . S
C622 C620 1.391 . S
C622 C623 1.400 . S
C623 C622 1.400 . S
C623 C624 1.398 . S
C623 C629 1.491 . S
C624 H615 0.950 . S
C624 C623 1.398 . S
C624 C625 1.391 . S
C625 H613 0.950 . S
C625 C621 1.393 . S
C625 C624 1.391 . S
C626 H616 0.950 . S
C626 C627 1.386 . S
C626 C628 1.391 . S
C627 C626 1.386 . S
C627 C631 1.393 . S
C628 H617 0.950 . S
C628 C626 1.391 . S
C628 C629 1.400 . S
C629 C623 1.491 . S
C629 C628 1.400 . S
C629 C630 1.398 . S
C630 H618 0.950 . S
C630 C629 1.398 . S
C630 C631 1.391 . S
C631 H619 0.950 . S
C631 C627 1.393 . S
C631 C630 1.391 . S
H632 C640 0.950 . S
H633 C645 0.950 . S
H634 C642 0.950 . S
H635 C644 0.950 . S
H636 C646 0.950 . S
H637 C648 0.950 . S
H638 C650 0.950 . S
H639 C651 0.950 . S
C640 H632 0.950 . S
C640 C641 1.386 . S
C640 C642 1.391 . S
C641 C640 1.386 . S
C641 C645 1.393 . S
C642 H634 0.950 . S
C642 C640 1.391 . S
C642 C643 1.400 . S
C643 C642 1.400 . S
C643 C644 1.398 . S
C643 C649 1.491 . S
C644 H635 0.950 . S
C644 C643 1.398 . S
C644 C645 1.391 . S
C645 H633 0.950 . S
C645 C641 1.393 . S
C645 C644 1.391 . S
C646 H636 0.950 . S
C646 C647 1.386 . S
C646 C648 1.391 . S
C647 C646 1.386 . S
C647 C651 1.393 . S
C648 H637 0.950 . S
C648 C646 1.391 . S
C648 C649 1.400 . S
C649 C643 1.491 . S
C649 C648 1.400 . S
C649 C650 1.398 . S
C650 H638 0.950 . S
C650 C649 1.398 . S
C650 C651 1.391 . S
C651 H639 0.950 . S
C651 C647 1.393 . S
C651 C650 1.391 . S
C181 C74 1.592 . S
C187 C104 1.467 . S
C207 C122 1.422 . S
C201 C85 1.593 . S
C227 C143 1.437 . S
C221 C52 1.593 . S
C247 C167 1.454 . S
C241 C63 1.594 . S
C267 C101 1.334 1_565 S
C261 C30 1.467 . S
C281 C41 1.454 . S
C287 C125 1.358 . S
C301 C8 1.466 . S
C307 C146 1.345 . S
C321 C19 1.458 . S
C327 C164 1.356 1_655 S
C347 C106 0.627 . S
C341 C62 0.641 . S
C367 C124 0.626 . S
C361 C73 0.641 . S
C387 C145 0.658 . S
C381 C84 0.636 . S
C401 C51 0.641 . S
C407 C169 0.643 . S
C421 C18 0.727 . S
C427 C105 0.746 . S
C447 C123 0.732 . S
C441 C29 0.761 . S
C467 C144 0.761 . S
C461 C40 0.758 1_556 S
C481 C7 0.732 1_556 S
C487 C168 0.766 . S
C501 C60 1.452 . S
C507 C102 1.583 . S
C521 C71 1.421 . S
C527 C126 1.561 . S
C547 C147 1.567 . S
C541 C82 1.418 . S
C567 C165 1.579 . S
C561 C49 1.447 . S
C581 C16 1.226 . S
C587 C103 1.422 . S
C607 C127 1.427 . S
C601 C27 1.225 . S
C627 C148 1.424 . S
C621 C38 1.182 . S
C641 C5 1.175 . S
C647 C166 1.447 . S
