# Generated by pormake.
# Topology pyr, (3,6)-cn, num edge types: 1
# Building blocks:
#     Node 0, Type 0, BuildingBlock: OLANEW_clean_sbu_2, # of connection points: 3
#     Node 1, Type 0, BuildingBlock: OLANEW_clean_sbu_2, # of connection points: 3
#     Node 2, Type 0, BuildingBlock: OLANEW_clean_sbu_2, # of connection points: 3
#     Node 3, Type 0, BuildingBlock: OLANEW_clean_sbu_2, # of connection points: 3
#     Node 4, Type 0, BuildingBlock: OLANEW_clean_sbu_2, # of connection points: 3
#     Node 5, Type 0, BuildingBlock: OLANEW_clean_sbu_2, # of connection points: 3
#     Node 6, Type 0, BuildingBlock: OLANEW_clean_sbu_2, # of connection points: 3
#     Node 7, Type 0, BuildingBlock: OLANEW_clean_sbu_2, # of connection points: 3
#     Node 8, Type 1, BuildingBlock: CIFDUS_clean_sbu_1, # of connection points: 6
#     Node 9, Type 1, BuildingBlock: CIFDUS_clean_sbu_1, # of connection points: 6
#     Node 10, Type 1, BuildingBlock: CIFDUS_clean_sbu_1, # of connection points: 6
#     Node 11, Type 1, BuildingBlock: CIFDUS_clean_sbu_1, # of connection points: 6
#     Edge 12, Type (0, 1), BuildingBlock: CIFDUS_clean_linker_0, # of connection points: 2
#     Edge 13, Type (0, 1), BuildingBlock: CIFDUS_clean_linker_0, # of connection points: 2
#     Edge 14, Type (0, 1), BuildingBlock: CIFDUS_clean_linker_0, # of connection points: 2
#     Edge 15, Type (0, 1), BuildingBlock: CIFDUS_clean_linker_0, # of connection points: 2
#     Edge 16, Type (0, 1), BuildingBlock: CIFDUS_clean_linker_0, # of connection points: 2
#     Edge 17, Type (0, 1), BuildingBlock: CIFDUS_clean_linker_0, # of connection points: 2
#     Edge 18, Type (0, 1), BuildingBlock: CIFDUS_clean_linker_0, # of connection points: 2
#     Edge 19, Type (0, 1), BuildingBlock: CIFDUS_clean_linker_0, # of connection points: 2
#     Edge 20, Type (0, 1), BuildingBlock: CIFDUS_clean_linker_0, # of connection points: 2
#     Edge 21, Type (0, 1), BuildingBlock: CIFDUS_clean_linker_0, # of connection points: 2
#     Edge 22, Type (0, 1), BuildingBlock: CIFDUS_clean_linker_0, # of connection points: 2
#     Edge 23, Type (0, 1), BuildingBlock: CIFDUS_clean_linker_0, # of connection points: 2
#     Edge 24, Type (0, 1), BuildingBlock: CIFDUS_clean_linker_0, # of connection points: 2
#     Edge 25, Type (0, 1), BuildingBlock: CIFDUS_clean_linker_0, # of connection points: 2
#     Edge 26, Type (0, 1), BuildingBlock: CIFDUS_clean_linker_0, # of connection points: 2
#     Edge 27, Type (0, 1), BuildingBlock: CIFDUS_clean_linker_0, # of connection points: 2
#     Edge 28, Type (0, 1), BuildingBlock: CIFDUS_clean_linker_0, # of connection points: 2
#     Edge 29, Type (0, 1), BuildingBlock: CIFDUS_clean_linker_0, # of connection points: 2
#     Edge 30, Type (0, 1), BuildingBlock: CIFDUS_clean_linker_0, # of connection points: 2
#     Edge 31, Type (0, 1), BuildingBlock: CIFDUS_clean_linker_0, # of connection points: 2
#     Edge 32, Type (0, 1), BuildingBlock: CIFDUS_clean_linker_0, # of connection points: 2
#     Edge 33, Type (0, 1), BuildingBlock: CIFDUS_clean_linker_0, # of connection points: 2
#     Edge 34, Type (0, 1), BuildingBlock: CIFDUS_clean_linker_0, # of connection points: 2
#     Edge 35, Type (0, 1), BuildingBlock: CIFDUS_clean_linker_0, # of connection points: 2
# Relax obj value: 0.073
# Max RMSD: 0.148
# Mean RMSD: 0.120
data_MOF--net-pry--node1-OLANEW_clean_sbu_2--node2-CIFDUS_clean_sbu_1--edge1-CIFDUS_clean_linker_0
_symmetry_space_group_name_H-M    P1
_symmetry_Int_Tables_number       1
_symmetry_cell_setting            triclinic
loop_
_symmetry_equiv_pos_as_xyz
'x, y, z'
_cell_length_a     34.964267
_cell_length_b     34.043906
_cell_length_c     32.63606
_cell_angle_alpha  96.613879
_cell_angle_beta   90.282216
_cell_angle_gamma 99.278701
loop_
_atom_site_label
_atom_site_type_symbol
_atom_site_fract_x
_atom_site_fract_y
_atom_site_fract_z
_atom_type_partial_charge
O0 O 0.18775 0.12954 0.09791 0.0
Cd1 Cd 0.12015 0.14379 0.10387 0.0
O2 O 0.19311 0.08896 0.14573 0.0
Cd3 Cd 0.14168 0.09321 0.18332 0.0
O4 O 0.10867 0.09079 0.24069 0.0
C5 C 0.1249 0.08624 0.27454 0.0
O6 O 0.16186 0.08313 0.2749 0.0
C7 C 0.20681 0.10671 0.11539 0.0
C8 C 0.10411 0.22108 0.09267 0.0
O9 O 0.1143 0.21178 0.12764 0.0
O10 O 0.10271 0.19421 0.06152 0.0
O11 O 0.44956 0.93873 0.70723 0.0
Cd12 Cd 0.42571 0.91269 0.6367 0.0
O13 O 0.392 0.94748 0.72951 0.0
Cd14 Cd 0.36181 0.92457 0.67037 0.0
O15 O 0.30539 0.91977 0.63931 0.0
C16 C 0.28579 0.94194 0.66148 0.0
O17 O 0.3025 0.96339 0.69477 0.0
C18 C 0.42821 0.95019 0.73623 0.0
C19 C 0.43938 0.8349 0.61148 0.0
O20 O 0.40793 0.84117 0.62925 0.0
O21 O 0.46458 0.86546 0.60582 0.0
O22 O 0.70388 0.47746 0.9389 0.0
Cd23 Cd 0.64351 0.49445 0.9141 0.0
O24 O 0.68527 0.41616 0.91003 0.0
Cd25 Cd 0.68603 0.35216 0.89569 0.0
O26 O 0.65657 0.29138 0.90012 0.0
C27 C 0.66464 0.2745 0.93104 0.0
O28 O 0.69224 0.29315 0.9571 0.0
C29 C 0.7105 0.44185 0.9309 0.0
C30 C 0.62906 0.47524 0.82922 0.0
O31 O 0.65152 0.50741 0.84385 0.0
O32 O 0.61409 0.45142 0.85467 0.0
O33 O 0.94398 0.66957 0.45162 0.0
Cd34 Cd 0.92599 0.60108 0.41639 0.0
O35 O 0.95328 0.65756 0.51562 0.0
Cd36 Cd 0.92513 0.59641 0.49856 0.0
O37 O 0.86347 0.57694 0.48754 0.0
C38 C 0.84139 0.59182 0.51374 0.0
O39 O 0.8569 0.61488 0.54664 0.0
C40 C 0.95435 0.68212 0.48901 0.0
C41 C 0.93857 0.59726 0.33098 0.0
O42 O 0.9042 0.59646 0.34466 0.0
O43 O 0.96643 0.59973 0.35727 0.0
O44 O 0.91708 0.88686 0.88118 0.0
Cd45 Cd 0.91888 0.87219 0.95419 0.0
O46 O 0.87953 0.93344 0.89258 0.0
Cd47 Cd 0.85735 0.9353 0.95566 0.0
O48 O 0.80601 0.95708 0.98376 0.0
C49 C 0.78576 0.96975 0.95716 0.0
O50 O 0.79807 0.9692 0.91914 0.0
C51 C 0.90011 0.91383 0.86835 0.0
C52 C 0.9341 0.79696 0.973 0.0
O53 O 0.89942 0.80416 0.96947 0.0
O54 O 0.96194 0.82472 0.96619 0.0
O55 O 0.62751 0.05815 0.39405 0.0
Cd56 Cd 0.64489 0.07132 0.46815 0.0
O57 O 0.64036 0.12284 0.40672 0.0
Cd58 Cd 0.6456 0.18734 0.40538 0.0
O59 O 0.64069 0.24725 0.43385 0.0
C60 C 0.60974 0.25112 0.45307 0.0
O61 O 0.58246 0.21969 0.45321 0.0
C62 C 0.62748 0.09208 0.38154 0.0
C63 C 0.72282 0.07816 0.49087 0.0
O64 O 0.69879 0.04606 0.49407 0.0
O65 O 0.7104 0.10702 0.47581 0.0
O66 O 0.46914 0.76703 0.21073 0.0
Cd67 Cd 0.48492 0.70276 0.22476 0.0
O68 O 0.41186 0.73393 0.19211 0.0
Cd69 Cd 0.35323 0.72112 0.16541 0.0
O70 O 0.2998 0.69626 0.13096 0.0
C71 C 0.30085 0.67057 0.09964 0.0
O72 O 0.33436 0.66059 0.08841 0.0
C73 C 0.43567 0.76668 0.19537 0.0
C74 C 0.47235 0.68416 0.30481 0.0
O75 O 0.50324 0.7068 0.29544 0.0
O76 O 0.44656 0.67097 0.27631 0.0
O77 O 0.13612 0.48634 0.71598 0.0
Cd78 Cd 0.14303 0.48214 0.64065 0.0
O79 O 0.13193 0.42261 0.69773 0.0
Cd80 Cd 0.12147 0.35905 0.70065 0.0
O81 O 0.1116 0.30399 0.6597 0.0
C82 C 0.08228 0.29663 0.63525 0.0
O83 O 0.05687 0.32127 0.63728 0.0
C84 C 0.13013 0.45104 0.72598 0.0
C85 C 0.21967 0.50031 0.61794 0.0
O86 O 0.19842 0.52738 0.62644 0.0
O87 O 0.20453 0.46365 0.61959 0.0
O88 O 0.95052 0.02248 0.56145 0.0
Mn89 Mn 0.00052 0.99538 0.56466 0.0
O90 O 0.91507 0.99313 0.50647 0.0
Mn91 Mn 0.95578 0.96996 0.48694 0.0
O92 O 0.0518 0.97169 0.57341 0.0
O93 O 0.02074 0.04341 0.60286 0.0
Mn94 Mn 0.03828 0.03424 0.65005 0.0
O95 O 0.97488 0.96579 0.61444 0.0
O96 O 0.07678 0.00486 0.6345 0.0
O97 O 0.02811 0.02518 0.51641 0.0
O98 O 0.99163 0.00206 0.45962 0.0
O99 O 0.0454 0.08961 0.65042 0.0
O100 O 0.99581 0.00624 0.67278 0.0
C101 C 0.96578 0.91396 0.49723 0.0
C102 C 0.91984 0.01766 0.5387 0.0
C103 C 0.07797 0.97936 0.6027 0.0
C104 C 0.02985 0.08098 0.61382 0.0
C105 C 0.97432 0.97566 0.65398 0.0
C106 C 0.02109 0.02404 0.47747 0.0
O107 O 0.97929 0.94556 0.52343 0.0
O108 O 0.94453 0.91886 0.46609 0.0
O109 O 0.48693 0.03412 1.00246 0.0
Mn110 Mn 0.50309 0.03856 0.06587 0.0
O111 O 0.48596 0.96996 0.97619 0.0
Mn112 Mn 0.50886 0.9559 0.02163 0.0
O113 O 0.51997 0.04433 0.12871 0.0
O114 O 0.51711 0.09806 0.06595 0.0
Mn115 Mn 0.49591 0.12348 0.10754 0.0
O116 O 0.4445 0.0437 0.08006 0.0
O117 O 0.51684 0.10809 0.15421 0.0
O118 O 0.56128 0.03402 0.05112 0.0
O119 O 0.56185 0.97001 0.02516 0.0
O120 O 0.52438 0.16269 0.08059 0.0
O121 O 0.44336 0.10931 0.09838 0.0
C122 C 0.47693 0.94163 0.07378 0.0
C123 C 0.48061 0.00538 0.97261 0.0
C124 C 0.52545 0.07365 0.15808 0.0
C125 C 0.53351 0.13259 0.05697 0.0
C126 C 0.42608 0.07355 0.08875 0.0
C127 C 0.5792 0.00532 0.03679 0.0
O128 O 0.48904 0.9783 0.06649 0.0
O129 O 0.48513 0.91376 0.0463 0.0
O130 O 0.58751 0.55916 0.53823 0.0
Mn131 Mn 0.5282 0.54176 0.54635 0.0
O132 O 0.59953 0.54046 0.47179 0.0
Mn133 Mn 0.55116 0.51023 0.45862 0.0
O134 O 0.46881 0.52451 0.55506 0.0
O135 O 0.5388 0.54662 0.60762 0.0
Mn136 Mn 0.50834 0.57745 0.63289 0.0
O137 O 0.51977 0.60199 0.54848 0.0
O138 O 0.45836 0.55207 0.6195 0.0
O139 O 0.53629 0.48156 0.5434 0.0
O140 O 0.54376 0.46034 0.47628 0.0
O141 O 0.53618 0.56217 0.67422 0.0
O142 O 0.52071 0.62711 0.61516 0.0
C143 C 0.50313 0.54006 0.44977 0.0
C144 C 0.61063 0.55735 0.50778 0.0
C145 C 0.44643 0.53167 0.58525 0.0
C146 C 0.55139 0.54246 0.64395 0.0
C147 C 0.51992 0.6314 0.57706 0.0
C148 C 0.54038 0.45415 0.51388 0.0
O149 O 0.51769 0.53638 0.48526 0.0
O150 O 0.51941 0.52281 0.41867 0.0
O151 O 0.95291 0.48178 0.0195 0.0
Mn152 Mn 0.01259 0.50605 0.02508 0.0
O153 O 0.93548 0.48232 0.95337 0.0
Mn154 Mn 0.98067 0.51331 0.94065 0.0
O155 O 0.07168 0.53296 0.03238 0.0
O156 O 0.00617 0.51808 0.08717 0.0
Mn157 Mn 0.04692 0.50223 0.10943 0.0
O158 O 0.02482 0.44709 0.02881 0.0
O159 O 0.08243 0.546 0.10125 0.0
O160 O 0.00093 0.56472 0.02098 0.0
O161 O 0.98508 0.56783 0.95493 0.0
O162 O 0.00724 0.49435 0.14527 0.0
O163 O 0.0601 0.45462 0.08681 0.0
C164 C 0.02929 0.48754 0.92401 0.0
C165 C 0.92793 0.47312 0.98935 0.0
C166 C 0.09096 0.55237 0.06441 0.0
C167 C 0.98649 0.50779 0.11891 0.0
C168 C 0.04538 0.43311 0.05475 0.0
C169 C 0.99276 0.58434 0.99153 0.0
O170 O 0.02035 0.49576 0.96258 0.0
O171 O 0.00605 0.49564 0.89624 0.0
H172 H 0.14962 0.07238 0.35073 0.0
H173 H 0.0486 0.09222 0.28425 0.0
H174 H 0.00928 0.08131 0.34452 0.0
H175 H 0.00184 0.05934 0.4129 0.0
H176 H 0.10094 0.0364 0.47971 0.0
H177 H 0.14305 0.05652 0.42306 0.0
C178 C 0.11908 0.0747 0.34955 0.0
C179 C 0.10205 0.08265 0.31264 0.0
C180 C 0.09636 0.06805 0.38446 0.0
C181 C 0.06247 0.08579 0.3119 0.0
C182 C 0.03992 0.07963 0.34644 0.0
C183 C 0.03284 0.05961 0.41548 0.0
C184 C 0.04826 0.04628 0.45029 0.0
C185 C 0.05635 0.06987 0.38244 0.0
C186 C 0.08845 0.04695 0.45342 0.0
C187 C 0.11238 0.0579 0.42074 0.0
H188 H 0.39265 0.98404 0.803 0.0
H189 H 0.50261 0.95273 0.76304 0.0
H190 H 0.53044 0.97495 0.83197 0.0
H191 H 0.52185 0.99606 0.90502 0.0
H192 H 0.41217 0.02505 0.947 0.0
H193 H 0.38617 0.01228 0.8757 0.0
C194 C 0.4228 0.98238 0.80927 0.0
C195 C 0.44534 0.9662 0.7778 0.0
C196 C 0.43876 0.99526 0.84926 0.0
C197 C 0.48445 0.96469 0.78653 0.0
C198 C 0.50047 0.97751 0.82599 0.0
C199 C 0.49268 0.00101 0.89822 0.0
C200 C 0.46907 0.01205 0.93086 0.0
C201 C 0.47773 0.99207 0.85769 0.0
C202 C 0.4311 0.01754 0.92214 0.0
C203 C 0.4161 0.0095 0.8815 0.0
H204 H 0.66538 0.50982 0.76575 0.0
H205 H 0.56512 0.42632 0.79371 0.0
H206 H 0.53591 0.42996 0.7265 0.0
H207 H 0.53203 0.47047 0.66951 0.0
H208 H 0.62979 0.55774 0.64453 0.0
H209 H 0.66779 0.53752 0.69916 0.0
C210 C 0.63764 0.49153 0.75661 0.0
C211 C 0.61694 0.46876 0.7851 0.0
C212 C 0.62066 0.49439 0.71817 0.0
C213 C 0.58143 0.44454 0.77258 0.0
C214 C 0.56462 0.4467 0.73414 0.0
C215 C 0.56245 0.48321 0.67444 0.0
C216 C 0.57815 0.51564 0.65342 0.0
C217 C 0.58298 0.47334 0.70783 0.0
C218 C 0.61731 0.53244 0.66013 0.0
C219 C 0.63868 0.52154 0.69212 0.0
H220 H 0.89286 0.55484 0.26741 0.0
H221 H 0.00231 0.6326 0.29454 0.0
H222 H 0.02021 0.62166 0.22247 0.0
H223 H 0.01026 0.58081 0.15598 0.0
H224 H 0.90855 0.49099 0.13324 0.0
H225 H 0.88048 0.51765 0.1973 0.0
C226 C 0.92018 0.57005 0.25718 0.0
C227 C 0.94631 0.59442 0.28623 0.0
C228 C 0.93124 0.56181 0.21594 0.0
C229 C 0.98187 0.61354 0.27281 0.0
C230 C 0.99204 0.6074 0.23155 0.0
C231 C 0.98103 0.56847 0.16407 0.0
C232 C 0.96133 0.53422 0.13983 0.0
C233 C 0.9676 0.58051 0.20323 0.0
C234 C 0.92401 0.51769 0.15106 0.0
C235 C 0.90849 0.53232 0.18829 0.0
H236 H 0.24621 0.04419 0.12246 0.0
H237 H 0.25745 0.16061 0.07924 0.0
H238 H 0.32531 0.1584 0.06407 0.0
H239 H 0.38231 0.12619 0.0676 0.0
H240 H 0.37314 0.00947 0.10928 0.0
H241 H 0.30322 0.00835 0.11936 0.0
C242 C 0.26348 0.06886 0.10933 0.0
C243 C 0.24677 0.10273 0.10226 0.0
C244 C 0.30268 0.06723 0.10025 0.0
C245 C 0.26941 0.13421 0.08483 0.0
C246 C 0.30829 0.13303 0.07628 0.0
C247 C 0.365 0.10022 0.07854 0.0
C248 C 0.38302 0.06818 0.08825 0.0
C249 C 0.32531 0.10007 0.08449 0.0
C250 C 0.36002 0.0345 0.10161 0.0
C251 C 0.32014 0.03408 0.10769 0.0
H252 H 0.24558 0.93507 0.58731 0.0
H253 H 0.23252 0.94632 0.71947 0.0
H254 H 0.16435 0.95031 0.71109 0.0
H255 H 0.11068 0.95756 0.66804 0.0
H256 H 0.12253 0.95643 0.5366 0.0
H257 H 0.18819 0.93942 0.54233 0.0
C258 C 0.22747 0.9378 0.61403 0.0
C259 C 0.24398 0.94062 0.65401 0.0
C260 C 0.1881 0.94152 0.60904 0.0
C261 C 0.22052 0.94448 0.68849 0.0
C262 C 0.18149 0.94658 0.68375 0.0
C263 C 0.12737 0.95305 0.64041 0.0
C264 C 0.11209 0.9587 0.60205 0.0
C265 C 0.16532 0.9461 0.64439 0.0
C266 C 0.13369 0.95208 0.56648 0.0
C267 C 0.17138 0.94297 0.56992 0.0
H268 H 0.75188 0.47152 1.00119 0.0
H269 H 0.7535 0.39124 0.88914 0.0
H270 H 0.82121 0.38657 0.90313 0.0
H271 H 0.88233 0.41545 0.94021 0.0
H272 H 0.88173 0.49725 0.05115 0.0
H273 H 0.81096 0.49017 0.04563 0.0
C274 C 0.76687 0.45221 0.98045 0.0
C275 C 0.74793 0.43197 0.94403 0.0
C276 C 0.80594 0.45003 0.98855 0.0
C277 C 0.76737 0.4068 0.91751 0.0
C278 C 0.80619 0.4044 0.92535 0.0
C279 C 0.86645 0.43041 0.96408 0.0
C280 C 0.88702 0.457 0.9959 0.0
C281 C 0.82611 0.42718 0.95986 0.0
C282 C 0.86642 0.47635 0.02664 0.0
C283 C 0.82603 0.47281 0.02305 0.0
H284 H 0.78537 0.60527 0.56881 0.0
H285 H 0.80267 0.56517 0.44085 0.0
H286 H 0.73298 0.55528 0.42717 0.0
H287 H 0.6675 0.55474 0.45185 0.0
H288 H 0.64875 0.59164 0.58029 0.0
H289 H 0.71884 0.60661 0.59333 0.0
C290 C 0.77383 0.5944 0.53794 0.0
C291 C 0.7991 0.58556 0.50597 0.0
C292 C 0.7336 0.58831 0.53035 0.0
C293 C 0.78381 0.57162 0.46612 0.0
C294 C 0.74398 0.56616 0.45821 0.0
C295 C 0.67853 0.5664 0.48272 0.0
C296 C 0.65272 0.57171 0.5151 0.0
C297 C 0.71865 0.57397 0.49016 0.0
C298 C 0.66786 0.58709 0.55478 0.0
C299 C 0.70796 0.5955 0.5623 0.0
H300 H 0.08181 0.25382 0.02341 0.0
H301 H 0.10078 0.27915 0.15555 0.0
H302 H 0.08174 0.34419 0.15439 0.0
H303 H 0.06083 0.39409 0.11774 0.0
H304 H 0.04325 0.37505 0.98557 0.0
H305 H 0.05964 0.30697 0.98504 0.0
C306 C 0.08186 0.27369 0.05185 0.0
C307 C 0.09303 0.26127 0.0896 0.0
C308 C 0.07085 0.31201 0.05108 0.0
C309 C 0.09267 0.28752 0.12608 0.0
C310 C 0.08161 0.32488 0.12553 0.0
C311 C 0.06069 0.37547 0.08841 0.0
C312 C 0.05128 0.39024 0.05161 0.0
C313 C 0.07084 0.3374 0.08839 0.0
C314 C 0.05037 0.36472 0.01439 0.0
C315 C 0.06003 0.32587 0.01415 0.0
H316 H 0.67776 0.22732 0.98949 0.0
H317 H 0.59442 0.23964 0.89574 0.0
H318 H 0.54752 0.18757 0.92149 0.0
H319 H 0.52652 0.14831 0.97871 0.0
H320 H 0.60942 0.13715 0.07281 0.0
H321 H 0.66048 0.17826 0.03852 0.0
C322 C 0.64964 0.21803 0.97414 0.0
C323 C 0.63935 0.2379 0.94132 0.0
C324 C 0.62273 0.18822 0.98923 0.0
C325 C 0.60297 0.22514 0.92138 0.0
C326 C 0.57606 0.19538 0.93613 0.0
C327 C 0.55627 0.15318 0.99028 0.0
C328 C 0.56461 0.13943 0.02767 0.0
C329 C 0.5851 0.1779 0.97104 0.0
C330 C 0.60281 0.14674 0.0434 0.0
C331 C 0.63178 0.17084 0.02422 0.0
H332 H 0.98044 0.73815 0.43987 0.0
H333 H 0.9518 0.72362 0.56611 0.0
H334 H 0.95909 0.7966 0.58304 0.0
H335 H 0.96422 0.86419 0.55846 0.0
H336 H 0.99367 0.87566 0.43169 0.0
H337 H 0.99559 0.80448 0.41855 0.0
C338 C 0.97634 0.75092 0.47126 0.0
C339 C 0.96495 0.72564 0.50145 0.0
C340 C 0.98052 0.79251 0.48064 0.0
C341 C 0.96037 0.74259 0.54218 0.0
C342 C 0.96438 0.7843 0.55185 0.0
C343 C 0.97258 0.85118 0.52861 0.0
C344 C 0.97869 0.87491 0.49604 0.0
C345 C 0.97326 0.80961 0.52094 0.0
C346 C 0.98891 0.8578 0.4572 0.0
C347 C 0.98973 0.81705 0.4495 0.0
H348 H 0.50479 0.81165 0.57777 0.0
H349 H 0.39031 0.76502 0.61711 0.0
H350 H 0.40365 0.69681 0.60223 0.0
H351 H 0.44999 0.65102 0.58573 0.0
H352 H 0.56579 0.69651 0.55085 0.0
H353 H 0.54961 0.76456 0.55504 0.0
C354 C 0.48262 0.78655 0.58265 0.0
C355 C 0.44674 0.79354 0.59901 0.0
C356 C 0.49068 0.74723 0.57451 0.0
C357 C 0.41828 0.76062 0.60494 0.0
C358 C 0.42583 0.72155 0.59635 0.0
C359 C 0.47123 0.67577 0.57778 0.0
C360 C 0.50876 0.66911 0.56746 0.0
C361 C 0.46216 0.7146 0.58206 0.0
C362 C 0.53652 0.70112 0.55807 0.0
C363 C 0.52736 0.73997 0.56105 0.0
H364 H 0.93798 0.87815 0.80325 0.0
H365 H 0.8726 0.97418 0.83603 0.0
H366 H 0.88357 0.99694 0.76879 0.0
H367 H 0.91799 0.99516 0.70378 0.0
H368 H 0.98415 0.90093 0.66936 0.0
H369 H 0.96585 0.87139 0.73308 0.0
C370 C 0.92578 0.90375 0.7955 0.0
C371 C 0.90489 0.92456 0.8253 0.0
C372 C 0.93203 0.91692 0.7561 0.0
C373 C 0.88908 0.95755 0.81427 0.0
C374 C 0.89523 0.9707 0.77558 0.0
C375 C 0.9269 0.96711 0.70941 0.0
C376 C 0.95158 0.94972 0.6815 0.0
C377 C 0.91729 0.95121 0.7466 0.0
C378 C 0.96407 0.91413 0.68973 0.0
C379 C 0.95424 0.89774 0.72663 0.0
H380 H 0.61371 0.03431 0.3153 0.0
H381 H 0.59972 0.15619 0.35633 0.0
H382 H 0.56752 0.16061 0.29151 0.0
H383 H 0.54107 0.12977 0.22455 0.0
H384 H 0.55506 0.00844 0.18079 0.0
H385 H 0.58828 0.00353 0.24579 0.0
C386 C 0.60382 0.06192 0.30991 0.0
C387 C 0.61003 0.0952 0.34065 0.0
C388 C 0.58446 0.06406 0.27242 0.0
C389 C 0.59679 0.13059 0.33312 0.0
C390 C 0.57769 0.13295 0.2961 0.0
C391 C 0.55113 0.102 0.22896 0.0
C392 C 0.54459 0.06915 0.19782 0.0
C393 C 0.57109 0.09982 0.26576 0.0
C394 C 0.55855 0.03383 0.20443 0.0
C395 C 0.578 0.03118 0.2415 0.0
H396 H 0.42452 0.61922 0.32696 0.0
H397 H 0.51371 0.71678 0.3748 0.0
H398 H 0.52165 0.68384 0.43609 0.0
H399 H 0.51579 0.62003 0.46527 0.0
H400 H 0.43258 0.51959 0.41263 0.0
H401 H 0.40842 0.56108 0.3654 0.0
C402 C 0.44477 0.63387 0.35143 0.0
C403 C 0.46921 0.66985 0.34593 0.0
C404 C 0.45032 0.61394 0.38583 0.0
C405 C 0.49515 0.68863 0.37797 0.0
C406 C 0.49973 0.66979 0.41304 0.0
C407 C 0.49077 0.60807 0.44521 0.0
C408 C 0.47594 0.56702 0.44218 0.0
C409 C 0.47923 0.63135 0.41601 0.0
C410 C 0.4441 0.55134 0.41557 0.0
C411 C 0.43088 0.57487 0.38795 0.0
H412 H 0.15308 0.49613 0.79884 0.0
H413 H 0.07672 0.38964 0.74649 0.0
H414 H 0.0459 0.38362 0.81273 0.0
H415 H 0.03136 0.41714 0.87986 0.0
H416 H 0.10362 0.5264 0.9308 0.0
H417 H 0.14686 0.52167 0.87231 0.0
C418 C 0.13039 0.47106 0.80238 0.0
C419 C 0.11717 0.44341 0.76782 0.0
C420 C 0.1123 0.46814 0.8406 0.0
C421 C 0.08787 0.41095 0.77268 0.0
C422 C 0.06999 0.40765 0.81057 0.0
C423 C 0.05793 0.43853 0.87932 0.0
C424 C 0.06424 0.47218 0.90929 0.0
C425 C 0.08086 0.43703 0.84417 0.0
C426 C 0.09839 0.50002 0.90826 0.0
C427 C 0.12251 0.49788 0.87416 0.0
H428 H 0.75786 0.99878 0.03186 0.0
H429 H 0.72647 0.96524 0.90294 0.0
H430 H 0.66129 0.97889 0.9158 0.0
H431 H 0.61148 0.99466 0.96382 0.0
H432 H 0.64007 0.02913 0.09269 0.0
H433 H 0.70821 0.02229 0.07973 0.0
C434 C 0.73674 0.99475 0.00668 0.0
C435 C 0.74701 0.98059 0.96652 0.0
C436 C 0.69894 0.00329 0.01418 0.0
C437 C 0.71948 0.97605 0.93409 0.0
C438 C 0.68209 0.98386 0.94136 0.0
C439 C 0.63294 0.00173 0.98887 0.0
C440 C 0.6211 0.01255 0.02901 0.0
C441 C 0.67138 0.9969 0.98124 0.0
C442 C 0.64882 0.02132 0.06141 0.0
C443 C 0.68758 0.01682 0.05402 0.0
H444 H 0.75131 0.0451 0.55335 0.0
H445 H 0.78615 0.11806 0.4562 0.0
H446 H 0.85418 0.11318 0.4693 0.0
H447 H 0.90141 0.07763 0.49998 0.0
H448 H 0.86636 0.00507 0.59717 0.0
H449 H 0.80082 0.0214 0.59371 0.0
C450 C 0.77393 0.06045 0.53556 0.0
C451 C 0.7639 0.08098 0.50318 0.0
C452 C 0.81283 0.05775 0.54351 0.0
C453 C 0.79331 0.10165 0.48094 0.0
C454 C 0.83214 0.09883 0.4884 0.0
C455 C 0.87977 0.06702 0.52163 0.0
C456 C 0.88832 0.04037 0.54888 0.0
C457 C 0.84201 0.07563 0.51852 0.0
C458 C 0.86029 0.02611 0.57645 0.0
C459 C 0.82273 0.0349 0.57393 0.0
H460 H 0.22873 0.68896 0.10995 0.0
H461 H 0.29111 0.60286 0.04416 0.0
H462 H 0.22994 0.56095 0.02002 0.0
H463 H 0.15886 0.54398 0.0269 0.0
H464 H 0.09784 0.6293 0.09556 0.0
H465 H 0.15806 0.67666 0.10857 0.0
C466 C 0.22899 0.66133 0.08982 0.0
C467 C 0.26437 0.64866 0.07957 0.0
C468 C 0.19382 0.6372 0.07653 0.0
C469 C 0.26422 0.6131 0.0529 0.0
C470 C 0.22924 0.58905 0.03911 0.0
C471 C 0.15879 0.57357 0.04327 0.0
C472 C 0.12433 0.58351 0.06015 0.0
C473 C 0.19385 0.60011 0.05192 0.0
C474 C 0.12428 0.62145 0.08212 0.0
C475 C 0.15869 0.6483 0.0899 0.0
H476 H 0.26993 0.45336 0.5809 0.0
H477 H 0.2624 0.57361 0.63562 0.0
H478 H 0.33127 0.59393 0.62677 0.0
H479 H 0.39396 0.57738 0.60796 0.0
H480 H 0.40475 0.45885 0.55216 0.0
H481 H 0.33404 0.43812 0.55581 0.0
C482 C 0.28344 0.48402 0.59055 0.0
C483 C 0.26108 0.5119 0.60917 0.0
C484 C 0.32344 0.49582 0.58501 0.0
C485 C 0.27883 0.5516 0.62117 0.0
C486 C 0.31827 0.5633 0.6162 0.0
C487 C 0.38076 0.54704 0.59626 0.0
C488 C 0.40421 0.51944 0.58042 0.0
C489 C 0.34081 0.53562 0.59877 0.0
C490 C 0.38699 0.4805 0.56456 0.0
C491 C 0.34674 0.46867 0.56698 0.0
H492 H 0.00148 0.76531 0.96706 0.0
H493 H 0.88329 0.74068 0.00647 0.0
H494 H 0.89322 0.67484 0.02281 0.0
H495 H 0.93311 0.62107 0.01867 0.0
H496 H 0.04989 0.64387 0.97583 0.0
H497 H 0.04326 0.71335 0.96857 0.0
C498 C 0.978 0.74566 0.97952 0.0
C499 C 0.94147 0.75781 0.98485 0.0
C500 C 0.98374 0.70736 0.98836 0.0
C501 C 0.91147 0.73194 1.00129 0.0
C502 C 0.91717 0.69426 0.01085 0.0
C503 C 0.95745 0.64179 0.00917 0.0
C504 C 0.99221 0.62784 0.99872 0.0
C505 C 0.95286 0.68124 1.00365 0.0
C506 C 0.02321 0.65439 0.98504 0.0
C507 C 0.01921 0.69394 0.98038 0.0
H508 H 0.46881 0.84411 0.21722 0.0
H509 H 0.38592 0.76959 0.13121 0.0
H510 H 0.38059 0.82607 0.0943 0.0
H511 H 0.41129 0.89073 0.07619 0.0
H512 H 0.50266 0.96181 0.15346 0.0
H513 H 0.4923 0.91406 0.20466 0.0
C514 C 0.4488 0.84058 0.19106 0.0
C515 C 0.42707 0.80259 0.17778 0.0
C516 C 0.44775 0.87293 0.16811 0.0
C517 C 0.40158 0.79844 0.14358 0.0
C518 C 0.39909 0.83082 0.12177 0.0
C519 C 0.42744 0.89675 0.10536 0.0
C520 C 0.4578 0.92941 0.11122 0.0
C521 C 0.42339 0.86752 0.13257 0.0
C522 C 0.47888 0.93707 0.1487 0.0
C523 C 0.47352 0.90916 0.1774 0.0
H524 H 0.01273 0.25072 0.61438 0.0
H525 H 0.1357 0.25665 0.59762 0.0
H526 H 0.126 0.18581 0.57083 0.0
H527 H 0.08592 0.12077 0.57342 0.0
H528 H 0.96526 0.11331 0.60181 0.0
H529 H 0.96964 0.1856 0.60048 0.0
C530 C 0.0371 0.23669 0.6034 0.0
C531 C 0.07492 0.25819 0.60884 0.0
C532 C 0.03149 0.19542 0.59025 0.0
C533 C 0.10643 0.24012 0.5945 0.0
C534 C 0.10089 0.1997 0.57916 0.0
C535 C 0.06019 0.13486 0.57683 0.0
C536 C 0.02562 0.11253 0.58837 0.0
C537 C 0.06399 0.1766 0.57983 0.0
C538 C 0.99221 0.13036 0.5929 0.0
C539 C 0.99499 0.1718 0.59306 0.0
H540 H 0.54235 0.2729 0.48135 0.0
H541 H 0.66433 0.3178 0.47177 0.0
H542 H 0.65402 0.38447 0.50094 0.0
H543 H 0.60911 0.43157 0.5192 0.0
H544 H 0.48661 0.38853 0.52179 0.0
H545 H 0.49824 0.31922 0.50679 0.0
C546 C 0.56676 0.29714 0.4862 0.0
C547 C 0.60396 0.29055 0.47389 0.0
C548 C 0.56048 0.3356 0.50216 0.0
C549 C 0.63531 0.32224 0.4804 0.0
C550 C 0.62949 0.36032 0.49727 0.0
C551 C 0.58525 0.40673 0.51836 0.0
C552 C 0.54721 0.41464 0.52247 0.0
C553 C 0.59206 0.36755 0.50712 0.0
C554 C 0.51617 0.38274 0.51991 0.0
C555 C 0.52282 0.3433 0.51052 0.0
loop_
_geom_bond_atom_site_label_1
_geom_bond_atom_site_label_2
_geom_bond_distance
_geom_bond_site_symmetry_2
_ccdc_geom_bond_type
O0 Cd1 2.300 . S
O0 C7 1.275 . S
Cd1 O0 2.300 . S
Cd1 O9 2.381 . S
Cd1 O10 2.378 . S
O2 Cd3 2.385 . S
O2 C7 1.255 . S
Cd3 O2 2.385 . S
Cd3 O4 2.317 . S
O4 Cd3 2.317 . S
O4 C5 1.232 . S
C5 O4 1.232 . S
C5 O6 1.218 . S
O6 C5 1.218 . S
C7 O0 1.275 . S
C7 O2 1.255 . S
C8 O9 1.258 . S
C8 O10 1.256 . S
O9 Cd1 2.381 . S
O9 C8 1.258 . S
O10 Cd1 2.378 . S
O10 C8 1.256 . S
O11 Cd12 2.300 . S
O11 C18 1.275 . S
Cd12 O11 2.300 . S
Cd12 O20 2.381 . S
Cd12 O21 2.378 . S
O13 Cd14 2.385 . S
O13 C18 1.255 . S
Cd14 O13 2.385 . S
Cd14 O15 2.317 . S
O15 Cd14 2.317 . S
O15 C16 1.232 . S
C16 O15 1.232 . S
C16 O17 1.218 . S
O17 C16 1.218 . S
C18 O11 1.275 . S
C18 O13 1.255 . S
C19 O20 1.258 . S
C19 O21 1.256 . S
O20 Cd12 2.381 . S
O20 C19 1.258 . S
O21 Cd12 2.378 . S
O21 C19 1.256 . S
O22 Cd23 2.300 . S
O22 C29 1.275 . S
Cd23 O22 2.300 . S
Cd23 O31 2.381 . S
Cd23 O32 2.378 . S
O24 Cd25 2.385 . S
O24 C29 1.255 . S
Cd25 O24 2.385 . S
Cd25 O26 2.317 . S
O26 Cd25 2.317 . S
O26 C27 1.232 . S
C27 O26 1.232 . S
C27 O28 1.218 . S
O28 C27 1.218 . S
C29 O22 1.275 . S
C29 O24 1.255 . S
C30 O31 1.258 . S
C30 O32 1.256 . S
O31 Cd23 2.381 . S
O31 C30 1.258 . S
O32 Cd23 2.378 . S
O32 C30 1.256 . S
O33 Cd34 2.300 . S
O33 C40 1.275 . S
Cd34 O33 2.300 . S
Cd34 O42 2.381 . S
Cd34 O43 2.378 . S
O35 Cd36 2.385 . S
O35 C40 1.255 . S
Cd36 O35 2.385 . S
Cd36 O37 2.317 . S
O37 Cd36 2.317 . S
O37 C38 1.232 . S
C38 O37 1.232 . S
C38 O39 1.218 . S
O39 C38 1.218 . S
C40 O33 1.275 . S
C40 O35 1.255 . S
C41 O42 1.258 . S
C41 O43 1.256 . S
O42 Cd34 2.381 . S
O42 C41 1.258 . S
O43 Cd34 2.378 . S
O43 C41 1.256 . S
O44 Cd45 2.300 . S
O44 C51 1.275 . S
Cd45 O44 2.300 . S
Cd45 O53 2.381 . S
Cd45 O54 2.378 . S
O46 Cd47 2.385 . S
O46 C51 1.255 . S
Cd47 O46 2.385 . S
Cd47 O48 2.317 . S
O48 Cd47 2.317 . S
O48 C49 1.232 . S
C49 O48 1.232 . S
C49 O50 1.238 . S
O50 C49 1.238 . S
C51 O44 1.275 . S
C51 O46 1.255 . S
C52 O53 1.258 . S
C52 O54 1.256 . S
O53 Cd45 2.381 . S
O53 C52 1.258 . S
O54 Cd45 2.378 . S
O54 C52 1.256 . S
O55 Cd56 2.300 . S
O55 C62 1.275 . S
Cd56 O55 2.300 . S
Cd56 O64 2.381 . S
Cd56 O65 2.378 . S
O57 Cd58 2.385 . S
O57 C62 1.255 . S
Cd58 O57 2.385 . S
Cd58 O59 2.317 . S
O59 Cd58 2.317 . S
O59 C60 1.232 . S
C60 O59 1.232 . S
C60 O61 1.218 . S
O61 C60 1.218 . S
C62 O55 1.275 . S
C62 O57 1.255 . S
C63 O64 1.258 . S
C63 O65 1.256 . S
O64 Cd56 2.381 . S
O64 C63 1.258 . S
O65 Cd56 2.378 . S
O65 C63 1.256 . S
O66 Cd67 2.300 . S
O66 C73 1.275 . S
Cd67 O66 2.300 . S
Cd67 O75 2.381 . S
Cd67 O76 2.378 . S
O68 Cd69 2.385 . S
O68 C73 1.255 . S
Cd69 O68 2.385 . S
Cd69 O70 2.317 . S
O70 Cd69 2.317 . S
O70 C71 1.232 . S
C71 O70 1.232 . S
C71 O72 1.218 . S
O72 C71 1.218 . S
C73 O66 1.275 . S
C73 O68 1.255 . S
C74 O75 1.258 . S
C74 O76 1.256 . S
O75 Cd67 2.381 . S
O75 C74 1.258 . S
O76 Cd67 2.378 . S
O76 C74 1.256 . S
O77 Cd78 2.300 . S
O77 C84 1.275 . S
Cd78 O77 2.300 . S
Cd78 O86 2.381 . S
Cd78 O87 2.378 . S
O79 Cd80 2.385 . S
O79 C84 1.255 . S
Cd80 O79 2.385 . S
Cd80 O81 2.317 . S
O81 Cd80 2.317 . S
O81 C82 1.232 . S
C82 O81 1.232 . S
C82 O83 1.218 . S
O83 C82 1.218 . S
C84 O77 1.275 . S
C84 O79 1.255 . S
C85 O86 1.258 . S
C85 O87 1.256 . S
O86 Cd78 2.381 . S
O86 C85 1.258 . S
O87 Cd78 2.378 . S
O87 C85 1.256 . S
O88 Mn89 2.163 1_655 S
O88 C102 1.244 . S
Mn89 O88 2.163 1_455 S
Mn89 O92 2.160 1_545 S
Mn89 O93 2.221 . S
Mn89 O95 2.163 1_445 S
Mn89 O97 2.160 . S
Mn89 O107 2.221 1_445 S
O90 Mn91 2.087 . S
O90 C102 1.256 1_565 S
Mn91 O90 2.087 . S
Mn91 O98 2.089 1_565 S
Mn91 O107 2.290 . S
Mn91 O108 2.251 . S
O92 Mn89 2.160 1_565 S
O92 C103 1.239 . S
O93 Mn89 2.221 . S
O93 Mn94 2.290 . S
O93 C104 1.278 . S
Mn94 O93 2.290 . S
Mn94 O96 2.089 . S
Mn94 O99 2.251 . S
Mn94 O100 2.087 . S
O95 Mn89 2.163 1_665 S
O95 C105 1.244 . S
O96 Mn94 2.089 . S
O96 C103 1.256 1_545 S
O97 Mn89 2.160 . S
O97 C106 1.239 . S
O98 Mn91 2.089 1_545 S
O98 C106 1.256 1_655 S
O99 Mn94 2.251 . S
O99 C104 1.241 . S
O100 Mn94 2.087 . S
O100 C105 1.256 1_445 S
C101 O107 1.278 . S
C101 O108 1.241 . S
C102 O88 1.244 . S
C102 O90 1.256 1_545 S
C103 O92 1.239 . S
C103 O96 1.256 1_565 S
C104 O93 1.278 . S
C104 O99 1.241 . S
C105 O95 1.244 . S
C105 O100 1.256 1_665 S
C106 O97 1.239 . S
C106 O98 1.256 1_455 S
O107 Mn89 2.221 1_665 S
O107 Mn91 2.290 . S
O107 C101 1.278 . S
O108 Mn91 2.251 . S
O108 C101 1.241 . S
O109 Mn110 2.163 1_556 S
O109 C123 1.244 . S
Mn110 O109 2.163 1_554 S
Mn110 O113 2.160 . S
Mn110 O114 2.221 . S
Mn110 O116 2.163 . S
Mn110 O118 2.160 . S
Mn110 O128 2.221 1_545 S
O111 Mn112 2.087 1_556 S
O111 C123 1.256 1_565 S
Mn112 O111 2.087 1_554 S
Mn112 O119 2.089 . S
Mn112 O128 2.290 . S
Mn112 O129 2.251 . S
O113 Mn110 2.160 . S
O113 C124 1.239 . S
O114 Mn110 2.221 . S
O114 Mn115 2.290 . S
O114 C125 1.278 . S
Mn115 O114 2.290 . S
Mn115 O117 2.089 . S
Mn115 O120 2.251 . S
Mn115 O121 2.087 . S
O116 Mn110 2.163 . S
O116 C126 1.244 . S
O117 Mn115 2.089 . S
O117 C124 1.256 . S
O118 Mn110 2.160 . S
O118 C127 1.239 . S
O119 Mn112 2.089 . S
O119 C127 1.256 1_565 S
O120 Mn115 2.251 . S
O120 C125 1.241 . S
O121 Mn115 2.087 . S
O121 C126 1.256 . S
C122 O128 1.278 . S
C122 O129 1.241 . S
C123 O109 1.244 . S
C123 O111 1.256 1_545 S
C124 O113 1.239 . S
C124 O117 1.256 . S
C125 O114 1.278 . S
C125 O120 1.241 . S
C126 O116 1.244 . S
C126 O121 1.256 . S
C127 O118 1.239 . S
C127 O119 1.256 1_545 S
O128 Mn110 2.221 1_565 S
O128 Mn112 2.290 . S
O128 C122 1.278 . S
O129 Mn112 2.251 . S
O129 C122 1.241 . S
O130 Mn131 2.163 . S
O130 C144 1.244 . S
Mn131 O130 2.163 . S
Mn131 O134 2.160 . S
Mn131 O135 2.221 . S
Mn131 O137 2.163 . S
Mn131 O139 2.160 . S
Mn131 O149 2.221 . S
O132 Mn133 2.087 . S
O132 C144 1.256 . S
Mn133 O132 2.087 . S
Mn133 O140 2.089 . S
Mn133 O149 2.290 . S
Mn133 O150 2.251 . S
O134 Mn131 2.160 . S
O134 C145 1.239 . S
O135 Mn131 2.221 . S
O135 Mn136 2.290 . S
O135 C146 1.278 . S
Mn136 O135 2.290 . S
Mn136 O138 2.089 . S
Mn136 O141 2.251 . S
Mn136 O142 2.087 . S
O137 Mn131 2.163 . S
O137 C147 1.244 . S
O138 Mn136 2.089 . S
O138 C145 1.256 . S
O139 Mn131 2.160 . S
O139 C148 1.239 . S
O140 Mn133 2.089 . S
O140 C148 1.256 . S
O141 Mn136 2.251 . S
O141 C146 1.241 . S
O142 Mn136 2.087 . S
O142 C147 1.256 . S
C143 O149 1.278 . S
C143 O150 1.241 . S
C144 O130 1.244 . S
C144 O132 1.256 . S
C145 O134 1.239 . S
C145 O138 1.256 . S
C146 O135 1.278 . S
C146 O141 1.241 . S
C147 O137 1.244 . S
C147 O142 1.256 . S
C148 O139 1.239 . S
C148 O140 1.256 . S
O149 Mn131 2.221 . S
O149 Mn133 2.290 . S
O149 C143 1.278 . S
O150 Mn133 2.251 . S
O150 C143 1.241 . S
O151 Mn152 2.163 1_655 S
O151 C165 1.244 1_554 S
Mn152 O151 2.163 1_455 S
Mn152 O155 2.160 . S
Mn152 O156 2.221 . S
Mn152 O158 2.163 . S
Mn152 O160 2.160 . S
Mn152 O170 2.221 1_554 S
O153 Mn154 2.087 . S
O153 C165 1.256 . S
Mn154 O153 2.087 . S
Mn154 O161 2.089 . S
Mn154 O170 2.290 1_655 S
Mn154 O171 2.251 1_655 S
O155 Mn152 2.160 . S
O155 C166 1.239 . S
O156 Mn152 2.221 . S
O156 Mn157 2.290 . S
O156 C167 1.278 1_455 S
Mn157 O156 2.290 . S
Mn157 O159 2.089 . S
Mn157 O162 2.275 . S
Mn157 O163 2.087 . S
O158 Mn152 2.163 . S
O158 C168 1.244 . S
O159 Mn157 2.089 . S
O159 C166 1.256 . S
O160 Mn152 2.160 . S
O160 C169 1.239 1_454 S
O161 Mn154 2.089 . S
O161 C169 1.256 . S
O162 Mn157 2.275 . S
O162 C167 1.233 1_455 S
O163 Mn157 2.087 . S
O163 C168 1.256 . S
C164 O170 1.278 . S
C164 O171 1.241 . S
C165 O151 1.244 1_556 S
C165 O153 1.256 . S
C166 O155 1.239 . S
C166 O159 1.256 . S
C167 O156 1.278 1_655 S
C167 O162 1.233 1_655 S
C168 O158 1.244 . S
C168 O163 1.256 . S
C169 O160 1.239 1_656 S
C169 O161 1.256 . S
O170 Mn152 2.221 1_556 S
O170 Mn154 2.290 1_455 S
O170 C164 1.278 . S
O171 Mn154 2.251 1_455 S
O171 C164 1.241 . S
H172 C178 0.930 . S
H173 C181 0.930 . S
H174 C182 0.930 . S
H175 C183 0.930 . S
H176 C186 0.930 . S
H177 C187 0.930 . S
C178 H172 0.930 . S
C178 C179 1.355 . S
C178 C180 1.415 . S
C179 C178 1.355 . S
C179 C181 1.419 . S
C180 C178 1.415 . S
C180 C185 1.425 . S
C180 C187 1.409 . S
C181 H173 0.930 . S
C181 C179 1.419 . S
C181 C182 1.362 . S
C182 H174 0.930 . S
C182 C181 1.362 . S
C182 C185 1.409 . S
C183 H175 0.930 . S
C183 C184 1.355 . S
C183 C185 1.415 . S
C184 C183 1.355 . S
C184 C186 1.419 . S
C185 C180 1.425 . S
C185 C182 1.409 . S
C185 C183 1.415 . S
C186 H176 0.930 . S
C186 C184 1.419 . S
C186 C187 1.362 . S
C187 H177 0.930 . S
C187 C180 1.409 . S
C187 C186 1.362 . S
H188 C194 0.930 . S
H189 C197 0.930 . S
H190 C198 0.930 . S
H191 C199 0.930 . S
H192 C202 0.930 . S
H193 C203 0.930 . S
C194 H188 0.930 . S
C194 C195 1.355 . S
C194 C196 1.415 . S
C195 C194 1.355 . S
C195 C197 1.419 . S
C196 C194 1.415 . S
C196 C201 1.425 . S
C196 C203 1.409 1_565 S
C197 H189 0.930 . S
C197 C195 1.419 . S
C197 C198 1.362 . S
C198 H190 0.930 . S
C198 C197 1.362 . S
C198 C201 1.409 . S
C199 H191 0.930 . S
C199 C200 1.356 . S
C199 C201 1.415 . S
C200 C199 1.356 . S
C200 C202 1.418 1_565 S
C201 C196 1.425 . S
C201 C198 1.409 . S
C201 C199 1.415 . S
C202 H192 0.930 . S
C202 C200 1.418 1_545 S
C202 C203 1.362 . S
C203 H193 0.930 . S
C203 C196 1.409 1_545 S
C203 C202 1.362 . S
H204 C210 0.930 . S
H205 C213 0.930 . S
H206 C214 0.930 . S
H207 C215 0.930 . S
H208 C218 0.930 . S
H209 C219 0.930 . S
C210 H204 0.930 . S
C210 C211 1.355 . S
C210 C212 1.415 . S
C211 C210 1.355 . S
C211 C213 1.419 . S
C212 C210 1.415 . S
C212 C217 1.425 . S
C212 C219 1.409 . S
C213 H205 0.930 . S
C213 C211 1.419 . S
C213 C214 1.362 . S
C214 H206 0.930 . S
C214 C213 1.362 . S
C214 C217 1.409 . S
C215 H207 0.930 . S
C215 C216 1.355 . S
C215 C217 1.415 . S
C216 C215 1.355 . S
C216 C218 1.419 . S
C217 C212 1.425 . S
C217 C214 1.409 . S
C217 C215 1.415 . S
C218 H208 0.930 . S
C218 C216 1.419 . S
C218 C219 1.362 . S
C219 H209 0.930 . S
C219 C212 1.409 . S
C219 C218 1.362 . S
H220 C226 0.930 . S
H221 C229 0.930 1_455 S
H222 C230 0.930 . S
H223 C231 0.930 1_455 S
H224 C234 0.930 . S
H225 C235 0.930 . S
C226 H220 0.930 . S
C226 C227 1.355 . S
C226 C228 1.415 . S
C227 C226 1.355 . S
C227 C229 1.419 . S
C228 C226 1.415 . S
C228 C233 1.425 . S
C228 C235 1.409 . S
C229 H221 0.930 1_655 S
C229 C227 1.419 . S
C229 C230 1.362 1_655 S
C230 H222 0.930 . S
C230 C229 1.362 1_455 S
C230 C233 1.409 1_455 S
C231 H223 0.930 1_655 S
C231 C232 1.355 . S
C231 C233 1.415 . S
C232 C231 1.355 . S
C232 C234 1.419 . S
C233 C228 1.425 . S
C233 C230 1.409 1_655 S
C233 C231 1.415 . S
C234 H224 0.930 . S
C234 C232 1.419 . S
C234 C235 1.362 . S
C235 H225 0.930 . S
C235 C228 1.409 . S
C235 C234 1.362 . S
H236 C242 0.930 . S
H237 C245 0.930 . S
H238 C246 0.930 . S
H239 C247 0.930 . S
H240 C250 0.930 . S
H241 C251 0.930 . S
C242 H236 0.930 . S
C242 C243 1.355 . S
C242 C244 1.415 . S
C243 C242 1.355 . S
C243 C245 1.419 . S
C244 C242 1.415 . S
C244 C249 1.425 . S
C244 C251 1.409 . S
C245 H237 0.930 . S
C245 C243 1.419 . S
C245 C246 1.362 . S
C246 H238 0.930 . S
C246 C245 1.362 . S
C246 C249 1.409 . S
C247 H239 0.930 . S
C247 C248 1.355 . S
C247 C249 1.415 . S
C248 C247 1.355 . S
C248 C250 1.419 . S
C249 C244 1.425 . S
C249 C246 1.409 . S
C249 C247 1.415 . S
C250 H240 0.930 . S
C250 C248 1.419 . S
C250 C251 1.362 . S
C251 H241 0.930 . S
C251 C244 1.409 . S
C251 C250 1.362 . S
H252 C258 0.930 . S
H253 C261 0.930 . S
H254 C262 0.930 . S
H255 C263 0.930 . S
H256 C266 0.930 . S
H257 C267 0.930 . S
C258 H252 0.930 . S
C258 C259 1.355 . S
C258 C260 1.415 . S
C259 C258 1.355 . S
C259 C261 1.419 . S
C260 C258 1.415 . S
C260 C265 1.425 . S
C260 C267 1.409 . S
C261 H253 0.930 . S
C261 C259 1.419 . S
C261 C262 1.362 . S
C262 H254 0.930 . S
C262 C261 1.362 . S
C262 C265 1.409 . S
C263 H255 0.930 . S
C263 C264 1.355 . S
C263 C265 1.415 . S
C264 C263 1.355 . S
C264 C266 1.419 . S
C265 C260 1.425 . S
C265 C262 1.409 . S
C265 C263 1.415 . S
C266 H256 0.930 . S
C266 C264 1.419 . S
C266 C267 1.362 . S
C267 H257 0.930 . S
C267 C260 1.409 . S
C267 C266 1.362 . S
H268 C274 0.930 1_554 S
H269 C277 0.930 . S
H270 C278 0.930 . S
H271 C279 0.930 . S
H272 C282 0.930 . S
H273 C283 0.930 . S
C274 H268 0.930 1_556 S
C274 C275 1.355 . S
C274 C276 1.415 . S
C275 C274 1.355 . S
C275 C277 1.419 . S
C276 C274 1.415 . S
C276 C281 1.425 . S
C276 C283 1.409 1_556 S
C277 H269 0.930 . S
C277 C275 1.419 . S
C277 C278 1.362 . S
C278 H270 0.930 . S
C278 C277 1.362 . S
C278 C281 1.409 . S
C279 H271 0.930 . S
C279 C280 1.355 . S
C279 C281 1.415 . S
C280 C279 1.355 . S
C280 C282 1.419 1_556 S
C281 C276 1.425 . S
C281 C278 1.409 . S
C281 C279 1.415 . S
C282 H272 0.930 . S
C282 C280 1.419 1_554 S
C282 C283 1.362 . S
C283 H273 0.930 . S
C283 C276 1.409 1_554 S
C283 C282 1.362 . S
H284 C290 0.930 . S
H285 C293 0.930 . S
H286 C294 0.930 . S
H287 C295 0.930 . S
H288 C298 0.930 . S
H289 C299 0.930 . S
C290 H284 0.930 . S
C290 C291 1.355 . S
C290 C292 1.415 . S
C291 C290 1.355 . S
C291 C293 1.419 . S
C292 C290 1.415 . S
C292 C297 1.425 . S
C292 C299 1.409 . S
C293 H285 0.930 . S
C293 C291 1.419 . S
C293 C294 1.362 . S
C294 H286 0.930 . S
C294 C293 1.362 . S
C294 C297 1.409 . S
C295 H287 0.930 . S
C295 C296 1.355 . S
C295 C297 1.415 . S
C296 C295 1.355 . S
C296 C298 1.419 . S
C297 C292 1.425 . S
C297 C294 1.409 . S
C297 C295 1.415 . S
C298 H288 0.930 . S
C298 C296 1.419 . S
C298 C299 1.362 . S
C299 H289 0.930 . S
C299 C292 1.409 . S
C299 C298 1.362 . S
H300 C306 0.930 . S
H301 C309 0.930 . S
H302 C310 0.930 . S
H303 C311 0.930 . S
H304 C314 0.930 1_556 S
H305 C315 0.930 1_556 S
C306 H300 0.930 . S
C306 C307 1.355 . S
C306 C308 1.415 . S
C307 C306 1.355 . S
C307 C309 1.419 . S
C308 C306 1.415 . S
C308 C313 1.425 . S
C308 C315 1.409 . S
C309 H301 0.930 . S
C309 C307 1.419 . S
C309 C310 1.362 . S
C310 H302 0.930 . S
C310 C309 1.362 . S
C310 C313 1.409 . S
C311 H303 0.930 . S
C311 C312 1.355 . S
C311 C313 1.415 . S
C312 C311 1.355 . S
C312 C314 1.419 . S
C313 C308 1.425 . S
C313 C310 1.409 . S
C313 C311 1.415 . S
C314 H304 0.930 1_554 S
C314 C312 1.419 . S
C314 C315 1.362 . S
C315 H305 0.930 1_554 S
C315 C308 1.409 . S
C315 C314 1.362 . S
H316 C322 0.930 . S
H317 C325 0.930 . S
H318 C326 0.930 . S
H319 C327 0.930 . S
H320 C330 0.930 . S
H321 C331 0.930 . S
C322 H316 0.930 . S
C322 C323 1.355 1_554 S
C322 C324 1.415 . S
C323 C322 1.355 1_556 S
C323 C325 1.419 . S
C324 C322 1.415 . S
C324 C329 1.425 1_554 S
C324 C331 1.409 . S
C325 H317 0.930 . S
C325 C323 1.419 . S
C325 C326 1.362 . S
C326 H318 0.930 . S
C326 C325 1.362 . S
C326 C329 1.409 . S
C327 H319 0.930 . S
C327 C328 1.355 1_556 S
C327 C329 1.415 . S
C328 C327 1.355 1_554 S
C328 C330 1.419 . S
C329 C324 1.425 1_556 S
C329 C326 1.409 . S
C329 C327 1.415 . S
C330 H320 0.930 . S
C330 C328 1.419 . S
C330 C331 1.362 . S
C331 H321 0.930 . S
C331 C324 1.409 . S
C331 C330 1.362 . S
H332 C338 0.930 . S
H333 C341 0.930 . S
H334 C342 0.930 . S
H335 C343 0.930 . S
H336 C346 0.930 . S
H337 C347 0.930 . S
C338 H332 0.930 . S
C338 C339 1.355 . S
C338 C340 1.415 . S
C339 C338 1.355 . S
C339 C341 1.419 . S
C340 C338 1.415 . S
C340 C345 1.425 . S
C340 C347 1.409 . S
C341 H333 0.930 . S
C341 C339 1.419 . S
C341 C342 1.362 . S
C342 H334 0.930 . S
C342 C341 1.362 . S
C342 C345 1.409 . S
C343 H335 0.930 . S
C343 C344 1.355 . S
C343 C345 1.415 . S
C344 C343 1.355 . S
C344 C346 1.419 . S
C345 C340 1.425 . S
C345 C342 1.409 . S
C345 C343 1.415 . S
C346 H336 0.930 . S
C346 C344 1.419 . S
C346 C347 1.362 . S
C347 H337 0.930 . S
C347 C340 1.409 . S
C347 C346 1.362 . S
H348 C354 0.930 . S
H349 C357 0.930 . S
H350 C358 0.930 . S
H351 C359 0.930 . S
H352 C362 0.930 . S
H353 C363 0.930 . S
C354 H348 0.930 . S
C354 C355 1.355 . S
C354 C356 1.415 . S
C355 C354 1.355 . S
C355 C357 1.419 . S
C356 C354 1.415 . S
C356 C361 1.425 . S
C356 C363 1.409 . S
C357 H349 0.930 . S
C357 C355 1.419 . S
C357 C358 1.362 . S
C358 H350 0.930 . S
C358 C357 1.362 . S
C358 C361 1.409 . S
C359 H351 0.930 . S
C359 C360 1.355 . S
C359 C361 1.415 . S
C360 C359 1.355 . S
C360 C362 1.419 . S
C361 C356 1.425 . S
C361 C358 1.409 . S
C361 C359 1.415 . S
C362 H352 0.930 . S
C362 C360 1.419 . S
C362 C363 1.362 . S
C363 H353 0.930 . S
C363 C356 1.409 . S
C363 C362 1.362 . S
H364 C370 0.930 . S
H365 C373 0.930 . S
H366 C374 0.930 . S
H367 C375 0.930 . S
H368 C378 0.930 1_455 S
H369 C379 0.930 1_455 S
C370 H364 0.930 . S
C370 C371 1.355 . S
C370 C372 1.415 . S
C371 C370 1.355 . S
C371 C373 1.419 . S
C372 C370 1.415 . S
C372 C377 1.425 . S
C372 C379 1.409 . S
C373 H365 0.930 . S
C373 C371 1.419 . S
C373 C374 1.362 . S
C374 H366 0.930 . S
C374 C373 1.362 . S
C374 C377 1.409 . S
C375 H367 0.930 . S
C375 C376 1.355 . S
C375 C377 1.415 . S
C376 C375 1.355 . S
C376 C378 1.419 . S
C377 C372 1.425 . S
C377 C374 1.409 . S
C377 C375 1.415 . S
C378 H368 0.930 1_655 S
C378 C376 1.419 . S
C378 C379 1.362 . S
C379 H369 0.930 1_655 S
C379 C372 1.409 . S
C379 C378 1.362 . S
H380 C386 0.930 . S
H381 C389 0.930 . S
H382 C390 0.930 . S
H383 C391 0.930 . S
H384 C394 0.930 . S
H385 C395 0.930 . S
C386 H380 0.930 . S
C386 C387 1.355 . S
C386 C388 1.415 . S
C387 C386 1.355 . S
C387 C389 1.419 . S
C388 C386 1.415 . S
C388 C393 1.425 . S
C388 C395 1.409 . S
C389 H381 0.930 . S
C389 C387 1.419 . S
C389 C390 1.362 . S
C390 H382 0.930 . S
C390 C389 1.362 . S
C390 C393 1.409 . S
C391 H383 0.930 . S
C391 C392 1.355 . S
C391 C393 1.415 . S
C392 C391 1.355 . S
C392 C394 1.419 . S
C393 C388 1.425 . S
C393 C390 1.409 . S
C393 C391 1.415 . S
C394 H384 0.930 . S
C394 C392 1.419 . S
C394 C395 1.362 . S
C395 H385 0.930 . S
C395 C388 1.409 . S
C395 C394 1.362 . S
H396 C402 0.930 . S
H397 C405 0.930 . S
H398 C406 0.930 . S
H399 C407 0.930 . S
H400 C410 0.930 . S
H401 C411 0.930 . S
C402 H396 0.930 . S
C402 C403 1.355 . S
C402 C404 1.415 . S
C403 C402 1.355 . S
C403 C405 1.419 . S
C404 C402 1.415 . S
C404 C409 1.425 . S
C404 C411 1.409 . S
C405 H397 0.930 . S
C405 C403 1.419 . S
C405 C406 1.362 . S
C406 H398 0.930 . S
C406 C405 1.362 . S
C406 C409 1.409 . S
C407 H399 0.930 . S
C407 C408 1.355 . S
C407 C409 1.415 . S
C408 C407 1.355 . S
C408 C410 1.419 . S
C409 C404 1.425 . S
C409 C406 1.409 . S
C409 C407 1.415 . S
C410 H400 0.930 . S
C410 C408 1.419 . S
C410 C411 1.362 . S
C411 H401 0.930 . S
C411 C404 1.409 . S
C411 C410 1.362 . S
H412 C418 0.930 . S
H413 C421 0.930 . S
H414 C422 0.930 . S
H415 C423 0.930 . S
H416 C426 0.930 . S
H417 C427 0.930 . S
C418 H412 0.930 . S
C418 C419 1.355 . S
C418 C420 1.415 . S
C419 C418 1.355 . S
C419 C421 1.419 . S
C420 C418 1.415 . S
C420 C425 1.425 . S
C420 C427 1.409 . S
C421 H413 0.930 . S
C421 C419 1.419 . S
C421 C422 1.362 . S
C422 H414 0.930 . S
C422 C421 1.362 . S
C422 C425 1.409 . S
C423 H415 0.930 . S
C423 C424 1.355 . S
C423 C425 1.415 . S
C424 C423 1.355 . S
C424 C426 1.419 . S
C425 C420 1.425 . S
C425 C422 1.409 . S
C425 C423 1.415 . S
C426 H416 0.930 . S
C426 C424 1.419 . S
C426 C427 1.362 . S
C427 H417 0.930 . S
C427 C420 1.409 . S
C427 C426 1.362 . S
H428 C434 0.930 1_554 S
H429 C437 0.930 . S
H430 C438 0.930 . S
H431 C439 0.930 . S
H432 C442 0.930 . S
H433 C443 0.930 . S
C434 H428 0.930 1_556 S
C434 C435 1.355 . S
C434 C436 1.415 1_556 S
C435 C434 1.355 . S
C435 C437 1.419 . S
C436 C434 1.415 1_554 S
C436 C441 1.425 1_554 S
C436 C443 1.409 1_565 S
C437 H429 0.930 . S
C437 C435 1.419 . S
C437 C438 1.362 . S
C438 H430 0.930 . S
C438 C437 1.362 . S
C438 C441 1.409 . S
C439 H431 0.930 . S
C439 C440 1.355 1_566 S
C439 C441 1.415 . S
C440 C439 1.355 1_544 S
C440 C442 1.419 . S
C441 C436 1.425 1_556 S
C441 C438 1.409 . S
C441 C439 1.415 . S
C442 H432 0.930 . S
C442 C440 1.419 . S
C442 C443 1.362 . S
C443 H433 0.930 . S
C443 C436 1.409 1_545 S
C443 C442 1.362 . S
H444 C450 0.930 . S
H445 C453 0.930 . S
H446 C454 0.930 . S
H447 C455 0.930 . S
H448 C458 0.930 1_565 S
H449 C459 0.930 . S
C450 H444 0.930 . S
C450 C451 1.355 . S
C450 C452 1.415 . S
C451 C450 1.355 . S
C451 C453 1.419 . S
C452 C450 1.415 . S
C452 C457 1.425 . S
C452 C459 1.409 . S
C453 H445 0.930 . S
C453 C451 1.419 . S
C453 C454 1.362 . S
C454 H446 0.930 . S
C454 C453 1.362 . S
C454 C457 1.409 . S
C455 H447 0.930 . S
C455 C456 1.355 . S
C455 C457 1.415 . S
C456 C455 1.355 . S
C456 C458 1.419 . S
C457 C452 1.425 . S
C457 C454 1.409 . S
C457 C455 1.415 . S
C458 H448 0.930 1_545 S
C458 C456 1.419 . S
C458 C459 1.362 . S
C459 H449 0.930 . S
C459 C452 1.409 . S
C459 C458 1.362 . S
H460 C466 0.930 . S
H461 C469 0.930 . S
H462 C470 0.930 . S
H463 C471 0.930 . S
H464 C474 0.930 . S
H465 C475 0.930 . S
C466 H460 0.930 . S
C466 C467 1.355 . S
C466 C468 1.415 . S
C467 C466 1.355 . S
C467 C469 1.419 . S
C468 C466 1.415 . S
C468 C473 1.425 . S
C468 C475 1.409 . S
C469 H461 0.930 . S
C469 C467 1.419 . S
C469 C470 1.362 . S
C470 H462 0.930 . S
C470 C469 1.362 . S
C470 C473 1.409 . S
C471 H463 0.930 . S
C471 C472 1.355 . S
C471 C473 1.415 . S
C472 C471 1.355 . S
C472 C474 1.419 . S
C473 C468 1.425 . S
C473 C470 1.409 . S
C473 C471 1.415 . S
C474 H464 0.930 . S
C474 C472 1.419 . S
C474 C475 1.362 . S
C475 H465 0.930 . S
C475 C468 1.409 . S
C475 C474 1.362 . S
H476 C482 0.930 . S
H477 C485 0.930 . S
H478 C486 0.930 . S
H479 C487 0.930 . S
H480 C490 0.930 . S
H481 C491 0.930 . S
C482 H476 0.930 . S
C482 C483 1.355 . S
C482 C484 1.415 . S
C483 C482 1.355 . S
C483 C485 1.419 . S
C484 C482 1.415 . S
C484 C489 1.425 . S
C484 C491 1.409 . S
C485 H477 0.930 . S
C485 C483 1.419 . S
C485 C486 1.362 . S
C486 H478 0.930 . S
C486 C485 1.362 . S
C486 C489 1.409 . S
C487 H479 0.930 . S
C487 C488 1.355 . S
C487 C489 1.415 . S
C488 C487 1.355 . S
C488 C490 1.419 . S
C489 C484 1.425 . S
C489 C486 1.409 . S
C489 C487 1.415 . S
C490 H480 0.930 . S
C490 C488 1.419 . S
C490 C491 1.362 . S
C491 H481 0.930 . S
C491 C484 1.409 . S
C491 C490 1.362 . S
H492 C498 0.930 . S
H493 C501 0.930 . S
H494 C502 0.930 . S
H495 C503 0.930 . S
H496 C506 0.930 . S
H497 C507 0.931 . S
C498 H492 0.930 . S
C498 C499 1.355 . S
C498 C500 1.415 . S
C499 C498 1.355 . S
C499 C501 1.419 1_556 S
C500 C498 1.415 . S
C500 C505 1.425 . S
C500 C507 1.409 1_655 S
C501 H493 0.930 . S
C501 C499 1.419 1_554 S
C501 C502 1.362 . S
C502 H494 0.930 . S
C502 C501 1.362 . S
C502 C505 1.409 1_554 S
C503 H495 0.930 . S
C503 C504 1.355 1_554 S
C503 C505 1.415 1_554 S
C504 C503 1.355 1_556 S
C504 C506 1.419 1_655 S
C505 C500 1.425 . S
C505 C502 1.409 1_556 S
C505 C503 1.415 1_556 S
C506 H496 0.930 . S
C506 C504 1.419 1_455 S
C506 C507 1.362 . S
C507 H497 0.931 . S
C507 C500 1.409 1_455 S
C507 C506 1.362 . S
H508 C514 0.930 . S
H509 C517 0.930 . S
H510 C518 0.930 . S
H511 C519 0.930 . S
H512 C522 0.930 . S
H513 C523 0.930 . S
C514 H508 0.930 . S
C514 C515 1.355 . S
C514 C516 1.415 . S
C515 C514 1.355 . S
C515 C517 1.419 . S
C516 C514 1.415 . S
C516 C521 1.425 . S
C516 C523 1.409 . S
C517 H509 0.930 . S
C517 C515 1.419 . S
C517 C518 1.362 . S
C518 H510 0.930 . S
C518 C517 1.362 . S
C518 C521 1.409 . S
C519 H511 0.930 . S
C519 C520 1.355 . S
C519 C521 1.415 . S
C520 C519 1.355 . S
C520 C522 1.419 . S
C521 C516 1.425 . S
C521 C518 1.409 . S
C521 C519 1.415 . S
C522 H512 0.930 . S
C522 C520 1.419 . S
C522 C523 1.362 . S
C523 H513 0.930 . S
C523 C516 1.409 . S
C523 C522 1.362 . S
H524 C530 0.930 . S
H525 C533 0.930 . S
H526 C534 0.930 . S
H527 C535 0.930 . S
H528 C538 0.930 . S
H529 C539 0.930 . S
C530 H524 0.930 . S
C530 C531 1.355 . S
C530 C532 1.415 . S
C531 C530 1.355 . S
C531 C533 1.419 . S
C532 C530 1.415 . S
C532 C537 1.425 . S
C532 C539 1.409 1_455 S
C533 H525 0.930 . S
C533 C531 1.419 . S
C533 C534 1.362 . S
C534 H526 0.930 . S
C534 C533 1.362 . S
C534 C537 1.409 . S
C535 H527 0.930 . S
C535 C536 1.355 . S
C535 C537 1.415 . S
C536 C535 1.355 . S
C536 C538 1.419 1_455 S
C537 C532 1.425 . S
C537 C534 1.409 . S
C537 C535 1.415 . S
C538 H528 0.930 . S
C538 C536 1.419 1_655 S
C538 C539 1.362 . S
C539 H529 0.930 . S
C539 C532 1.409 1_655 S
C539 C538 1.362 . S
H540 C546 0.930 . S
H541 C549 0.930 . S
H542 C550 0.930 . S
H543 C551 0.930 . S
H544 C554 0.930 . S
H545 C555 0.930 . S
C546 H540 0.930 . S
C546 C547 1.355 . S
C546 C548 1.415 . S
C547 C546 1.355 . S
C547 C549 1.419 . S
C548 C546 1.415 . S
C548 C553 1.425 . S
C548 C555 1.409 . S
C549 H541 0.930 . S
C549 C547 1.419 . S
C549 C550 1.362 . S
C550 H542 0.930 . S
C550 C549 1.362 . S
C550 C553 1.409 . S
C551 H543 0.930 . S
C551 C552 1.355 . S
C551 C553 1.415 . S
C552 C551 1.355 . S
C552 C554 1.419 . S
C553 C548 1.425 . S
C553 C550 1.409 . S
C553 C551 1.415 . S
C554 H544 0.930 . S
C554 C552 1.419 . S
C554 C555 1.362 . S
C555 H545 0.930 . S
C555 C548 1.409 . S
C555 C554 1.362 . S
C179 C5 1.720 . S
C184 C106 1.833 . S
C195 C18 1.496 . S
C200 C123 1.570 1_565 S
C216 C146 1.198 . S
C211 C30 1.332 . S
C227 C41 1.572 . S
C232 C167 1.291 . S
C248 C126 1.985 . S
C243 C7 1.987 . S
C264 C103 1.820 . S
C259 C16 1.510 . S
C280 C165 1.432 . S
C275 C29 1.303 . S
C296 C144 1.146 . S
C291 C38 1.127 . S
C307 C8 1.802 . S
C312 C168 1.756 . S
C328 C125 1.382 . S
C323 C27 1.371 . S
C339 C40 1.636 . S
C344 C101 1.388 . S
C355 C19 1.187 . S
C360 C147 1.229 . S
C376 C105 1.653 . S
C371 C51 1.671 . S
C387 C62 1.422 . S
C392 C124 1.502 . S
C403 C74 1.419 . S
C408 C143 1.196 . S
C419 C84 1.476 . S
C424 C164 1.307 . S
C435 C49 1.893 . S
C440 C127 1.963 . S
C456 C102 1.615 . S
C451 C63 1.637 . S
C472 C166 1.182 . S
C467 C71 1.167 . S
C488 C145 1.345 . S
C483 C85 1.302 . S
C499 C52 1.594 . S
C504 C169 1.553 . S
C520 C122 1.410 . S
C515 C73 1.664 . S
C536 C104 1.293 . S
C531 C82 0.948 . S
C547 C60 1.210 . S
C552 C148 1.571 . S
