# Generated by pormake.
# Topology gar, (4,6)-cn, num edge types: 1
# Building blocks:
#     Node 0, Type 0, BuildingBlock: QUQFOY_clean_sbu_1, # of connection points: 4
#     Node 1, Type 0, BuildingBlock: QUQFOY_clean_sbu_1, # of connection points: 4
#     Node 2, Type 0, BuildingBlock: QUQFOY_clean_sbu_1, # of connection points: 4
#     Node 3, Type 0, BuildingBlock: QUQFOY_clean_sbu_1, # of connection points: 4
#     Node 4, Type 0, BuildingBlock: QUQFOY_clean_sbu_1, # of connection points: 4
#     Node 5, Type 0, BuildingBlock: QUQFOY_clean_sbu_1, # of connection points: 4
#     Node 6, Type 0, BuildingBlock: QUQFOY_clean_sbu_1, # of connection points: 4
#     Node 7, Type 0, BuildingBlock: QUQFOY_clean_sbu_1, # of connection points: 4
#     Node 8, Type 0, BuildingBlock: QUQFOY_clean_sbu_1, # of connection points: 4
#     Node 9, Type 0, BuildingBlock: QUQFOY_clean_sbu_1, # of connection points: 4
#     Node 10, Type 0, BuildingBlock: QUQFOY_clean_sbu_1, # of connection points: 4
#     Node 11, Type 0, BuildingBlock: QUQFOY_clean_sbu_1, # of connection points: 4
#     Node 12, Type 0, BuildingBlock: QUQFOY_clean_sbu_1, # of connection points: 4
#     Node 13, Type 0, BuildingBlock: QUQFOY_clean_sbu_1, # of connection points: 4
#     Node 14, Type 0, BuildingBlock: QUQFOY_clean_sbu_1, # of connection points: 4
#     Node 15, Type 0, BuildingBlock: QUQFOY_clean_sbu_1, # of connection points: 4
#     Node 16, Type 0, BuildingBlock: QUQFOY_clean_sbu_1, # of connection points: 4
#     Node 17, Type 0, BuildingBlock: QUQFOY_clean_sbu_1, # of connection points: 4
#     Node 18, Type 0, BuildingBlock: QUQFOY_clean_sbu_1, # of connection points: 4
#     Node 19, Type 0, BuildingBlock: QUQFOY_clean_sbu_1, # of connection points: 4
#     Node 20, Type 0, BuildingBlock: QUQFOY_clean_sbu_1, # of connection points: 4
#     Node 21, Type 0, BuildingBlock: QUQFOY_clean_sbu_1, # of connection points: 4
#     Node 22, Type 0, BuildingBlock: QUQFOY_clean_sbu_1, # of connection points: 4
#     Node 23, Type 0, BuildingBlock: QUQFOY_clean_sbu_1, # of connection points: 4
#     Node 24, Type 1, BuildingBlock: BETGAK_clean_sbu_0, # of connection points: 6
#     Node 25, Type 1, BuildingBlock: BETGAK_clean_sbu_0, # of connection points: 6
#     Node 26, Type 1, BuildingBlock: BETGAK_clean_sbu_0, # of connection points: 6
#     Node 27, Type 1, BuildingBlock: BETGAK_clean_sbu_0, # of connection points: 6
#     Node 28, Type 1, BuildingBlock: BETGAK_clean_sbu_0, # of connection points: 6
#     Node 29, Type 1, BuildingBlock: BETGAK_clean_sbu_0, # of connection points: 6
#     Node 30, Type 1, BuildingBlock: BETGAK_clean_sbu_0, # of connection points: 6
#     Node 31, Type 1, BuildingBlock: BETGAK_clean_sbu_0, # of connection points: 6
#     Node 32, Type 1, BuildingBlock: BETGAK_clean_sbu_0, # of connection points: 6
#     Node 33, Type 1, BuildingBlock: BETGAK_clean_sbu_0, # of connection points: 6
#     Node 34, Type 1, BuildingBlock: BETGAK_clean_sbu_0, # of connection points: 6
#     Node 35, Type 1, BuildingBlock: BETGAK_clean_sbu_0, # of connection points: 6
#     Node 36, Type 1, BuildingBlock: BETGAK_clean_sbu_0, # of connection points: 6
#     Node 37, Type 1, BuildingBlock: BETGAK_clean_sbu_0, # of connection points: 6
#     Node 38, Type 1, BuildingBlock: BETGAK_clean_sbu_0, # of connection points: 6
#     Node 39, Type 1, BuildingBlock: BETGAK_clean_sbu_0, # of connection points: 6
#     Edge 40, Type (0, 1), BuildingBlock: ZUJKAS_clean_linker_0, # of connection points: 2
#     Edge 41, Type (0, 1), BuildingBlock: ZUJKAS_clean_linker_0, # of connection points: 2
#     Edge 42, Type (0, 1), BuildingBlock: ZUJKAS_clean_linker_0, # of connection points: 2
#     Edge 43, Type (0, 1), BuildingBlock: ZUJKAS_clean_linker_0, # of connection points: 2
#     Edge 44, Type (0, 1), BuildingBlock: ZUJKAS_clean_linker_0, # of connection points: 2
#     Edge 45, Type (0, 1), BuildingBlock: ZUJKAS_clean_linker_0, # of connection points: 2
#     Edge 46, Type (0, 1), BuildingBlock: ZUJKAS_clean_linker_0, # of connection points: 2
#     Edge 47, Type (0, 1), BuildingBlock: ZUJKAS_clean_linker_0, # of connection points: 2
#     Edge 48, Type (0, 1), BuildingBlock: ZUJKAS_clean_linker_0, # of connection points: 2
#     Edge 49, Type (0, 1), BuildingBlock: ZUJKAS_clean_linker_0, # of connection points: 2
#     Edge 50, Type (0, 1), BuildingBlock: ZUJKAS_clean_linker_0, # of connection points: 2
#     Edge 51, Type (0, 1), BuildingBlock: ZUJKAS_clean_linker_0, # of connection points: 2
#     Edge 52, Type (0, 1), BuildingBlock: ZUJKAS_clean_linker_0, # of connection points: 2
#     Edge 53, Type (0, 1), BuildingBlock: ZUJKAS_clean_linker_0, # of connection points: 2
#     Edge 54, Type (0, 1), BuildingBlock: ZUJKAS_clean_linker_0, # of connection points: 2
#     Edge 55, Type (0, 1), BuildingBlock: ZUJKAS_clean_linker_0, # of connection points: 2
#     Edge 56, Type (0, 1), BuildingBlock: ZUJKAS_clean_linker_0, # of connection points: 2
#     Edge 57, Type (0, 1), BuildingBlock: ZUJKAS_clean_linker_0, # of connection points: 2
#     Edge 58, Type (0, 1), BuildingBlock: ZUJKAS_clean_linker_0, # of connection points: 2
#     Edge 59, Type (0, 1), BuildingBlock: ZUJKAS_clean_linker_0, # of connection points: 2
#     Edge 60, Type (0, 1), BuildingBlock: ZUJKAS_clean_linker_0, # of connection points: 2
#     Edge 61, Type (0, 1), BuildingBlock: ZUJKAS_clean_linker_0, # of connection points: 2
#     Edge 62, Type (0, 1), BuildingBlock: ZUJKAS_clean_linker_0, # of connection points: 2
#     Edge 63, Type (0, 1), BuildingBlock: ZUJKAS_clean_linker_0, # of connection points: 2
#     Edge 64, Type (0, 1), BuildingBlock: ZUJKAS_clean_linker_0, # of connection points: 2
#     Edge 65, Type (0, 1), BuildingBlock: ZUJKAS_clean_linker_0, # of connection points: 2
#     Edge 66, Type (0, 1), BuildingBlock: ZUJKAS_clean_linker_0, # of connection points: 2
#     Edge 67, Type (0, 1), BuildingBlock: ZUJKAS_clean_linker_0, # of connection points: 2
#     Edge 68, Type (0, 1), BuildingBlock: ZUJKAS_clean_linker_0, # of connection points: 2
#     Edge 69, Type (0, 1), BuildingBlock: ZUJKAS_clean_linker_0, # of connection points: 2
#     Edge 70, Type (0, 1), BuildingBlock: ZUJKAS_clean_linker_0, # of connection points: 2
#     Edge 71, Type (0, 1), BuildingBlock: ZUJKAS_clean_linker_0, # of connection points: 2
#     Edge 72, Type (0, 1), BuildingBlock: ZUJKAS_clean_linker_0, # of connection points: 2
#     Edge 73, Type (0, 1), BuildingBlock: ZUJKAS_clean_linker_0, # of connection points: 2
#     Edge 74, Type (0, 1), BuildingBlock: ZUJKAS_clean_linker_0, # of connection points: 2
#     Edge 75, Type (0, 1), BuildingBlock: ZUJKAS_clean_linker_0, # of connection points: 2
#     Edge 76, Type (0, 1), BuildingBlock: ZUJKAS_clean_linker_0, # of connection points: 2
#     Edge 77, Type (0, 1), BuildingBlock: ZUJKAS_clean_linker_0, # of connection points: 2
#     Edge 78, Type (0, 1), BuildingBlock: ZUJKAS_clean_linker_0, # of connection points: 2
#     Edge 79, Type (0, 1), BuildingBlock: ZUJKAS_clean_linker_0, # of connection points: 2
#     Edge 80, Type (0, 1), BuildingBlock: ZUJKAS_clean_linker_0, # of connection points: 2
#     Edge 81, Type (0, 1), BuildingBlock: ZUJKAS_clean_linker_0, # of connection points: 2
#     Edge 82, Type (0, 1), BuildingBlock: ZUJKAS_clean_linker_0, # of connection points: 2
#     Edge 83, Type (0, 1), BuildingBlock: ZUJKAS_clean_linker_0, # of connection points: 2
#     Edge 84, Type (0, 1), BuildingBlock: ZUJKAS_clean_linker_0, # of connection points: 2
#     Edge 85, Type (0, 1), BuildingBlock: ZUJKAS_clean_linker_0, # of connection points: 2
#     Edge 86, Type (0, 1), BuildingBlock: ZUJKAS_clean_linker_0, # of connection points: 2
#     Edge 87, Type (0, 1), BuildingBlock: ZUJKAS_clean_linker_0, # of connection points: 2
#     Edge 88, Type (0, 1), BuildingBlock: ZUJKAS_clean_linker_0, # of connection points: 2
#     Edge 89, Type (0, 1), BuildingBlock: ZUJKAS_clean_linker_0, # of connection points: 2
#     Edge 90, Type (0, 1), BuildingBlock: ZUJKAS_clean_linker_0, # of connection points: 2
#     Edge 91, Type (0, 1), BuildingBlock: ZUJKAS_clean_linker_0, # of connection points: 2
#     Edge 92, Type (0, 1), BuildingBlock: ZUJKAS_clean_linker_0, # of connection points: 2
#     Edge 93, Type (0, 1), BuildingBlock: ZUJKAS_clean_linker_0, # of connection points: 2
#     Edge 94, Type (0, 1), BuildingBlock: ZUJKAS_clean_linker_0, # of connection points: 2
#     Edge 95, Type (0, 1), BuildingBlock: ZUJKAS_clean_linker_0, # of connection points: 2
#     Edge 96, Type (0, 1), BuildingBlock: ZUJKAS_clean_linker_0, # of connection points: 2
#     Edge 97, Type (0, 1), BuildingBlock: ZUJKAS_clean_linker_0, # of connection points: 2
#     Edge 98, Type (0, 1), BuildingBlock: ZUJKAS_clean_linker_0, # of connection points: 2
#     Edge 99, Type (0, 1), BuildingBlock: ZUJKAS_clean_linker_0, # of connection points: 2
#     Edge 100, Type (0, 1), BuildingBlock: ZUJKAS_clean_linker_0, # of connection points: 2
#     Edge 101, Type (0, 1), BuildingBlock: ZUJKAS_clean_linker_0, # of connection points: 2
#     Edge 102, Type (0, 1), BuildingBlock: ZUJKAS_clean_linker_0, # of connection points: 2
#     Edge 103, Type (0, 1), BuildingBlock: ZUJKAS_clean_linker_0, # of connection points: 2
#     Edge 104, Type (0, 1), BuildingBlock: ZUJKAS_clean_linker_0, # of connection points: 2
#     Edge 105, Type (0, 1), BuildingBlock: ZUJKAS_clean_linker_0, # of connection points: 2
#     Edge 106, Type (0, 1), BuildingBlock: ZUJKAS_clean_linker_0, # of connection points: 2
#     Edge 107, Type (0, 1), BuildingBlock: ZUJKAS_clean_linker_0, # of connection points: 2
#     Edge 108, Type (0, 1), BuildingBlock: ZUJKAS_clean_linker_0, # of connection points: 2
#     Edge 109, Type (0, 1), BuildingBlock: ZUJKAS_clean_linker_0, # of connection points: 2
#     Edge 110, Type (0, 1), BuildingBlock: ZUJKAS_clean_linker_0, # of connection points: 2
#     Edge 111, Type (0, 1), BuildingBlock: ZUJKAS_clean_linker_0, # of connection points: 2
#     Edge 112, Type (0, 1), BuildingBlock: ZUJKAS_clean_linker_0, # of connection points: 2
#     Edge 113, Type (0, 1), BuildingBlock: ZUJKAS_clean_linker_0, # of connection points: 2
#     Edge 114, Type (0, 1), BuildingBlock: ZUJKAS_clean_linker_0, # of connection points: 2
#     Edge 115, Type (0, 1), BuildingBlock: ZUJKAS_clean_linker_0, # of connection points: 2
#     Edge 116, Type (0, 1), BuildingBlock: ZUJKAS_clean_linker_0, # of connection points: 2
#     Edge 117, Type (0, 1), BuildingBlock: ZUJKAS_clean_linker_0, # of connection points: 2
#     Edge 118, Type (0, 1), BuildingBlock: ZUJKAS_clean_linker_0, # of connection points: 2
#     Edge 119, Type (0, 1), BuildingBlock: ZUJKAS_clean_linker_0, # of connection points: 2
#     Edge 120, Type (0, 1), BuildingBlock: ZUJKAS_clean_linker_0, # of connection points: 2
#     Edge 121, Type (0, 1), BuildingBlock: ZUJKAS_clean_linker_0, # of connection points: 2
#     Edge 122, Type (0, 1), BuildingBlock: ZUJKAS_clean_linker_0, # of connection points: 2
#     Edge 123, Type (0, 1), BuildingBlock: ZUJKAS_clean_linker_0, # of connection points: 2
#     Edge 124, Type (0, 1), BuildingBlock: ZUJKAS_clean_linker_0, # of connection points: 2
#     Edge 125, Type (0, 1), BuildingBlock: ZUJKAS_clean_linker_0, # of connection points: 2
#     Edge 126, Type (0, 1), BuildingBlock: ZUJKAS_clean_linker_0, # of connection points: 2
#     Edge 127, Type (0, 1), BuildingBlock: ZUJKAS_clean_linker_0, # of connection points: 2
#     Edge 128, Type (0, 1), BuildingBlock: ZUJKAS_clean_linker_0, # of connection points: 2
#     Edge 129, Type (0, 1), BuildingBlock: ZUJKAS_clean_linker_0, # of connection points: 2
#     Edge 130, Type (0, 1), BuildingBlock: ZUJKAS_clean_linker_0, # of connection points: 2
#     Edge 131, Type (0, 1), BuildingBlock: ZUJKAS_clean_linker_0, # of connection points: 2
#     Edge 132, Type (0, 1), BuildingBlock: ZUJKAS_clean_linker_0, # of connection points: 2
#     Edge 133, Type (0, 1), BuildingBlock: ZUJKAS_clean_linker_0, # of connection points: 2
#     Edge 134, Type (0, 1), BuildingBlock: ZUJKAS_clean_linker_0, # of connection points: 2
#     Edge 135, Type (0, 1), BuildingBlock: ZUJKAS_clean_linker_0, # of connection points: 2
# Relax obj value: 0.181
# Max RMSD: 0.298
# Mean RMSD: 0.180
data_MOF--net-gar--node1-QUQFOY_clean_sbu_1--node2-BETGAK_clean_sbu_0--edge1-ZUJKAS_clean_linker_0
_symmetry_space_group_name_H-M    P1
_symmetry_Int_Tables_number       1
_symmetry_cell_setting            triclinic
loop_
_symmetry_equiv_pos_as_xyz
'x, y, z'
_cell_length_a     79.502994
_cell_length_b     73.301916
_cell_length_c     73.476175
_cell_angle_alpha  98.223233
_cell_angle_beta   95.194215
_cell_angle_gamma 104.32426
loop_
_atom_site_label
_atom_site_type_symbol
_atom_site_fract_x
_atom_site_fract_y
_atom_site_fract_z
_atom_type_partial_charge
O0 O 0.11411 0.29746 0.40422 0.0
Cd1 Cd 0.11062 0.31622 0.38692 0.0
Cd2 Cd 0.10203 0.33599 0.41735 0.0
O3 O 0.10893 0.31462 0.4292 0.0
O4 O 0.12335 0.31118 0.36574 0.0
O5 O 0.13027 0.33881 0.38514 0.0
C6 C 0.13324 0.32836 0.37068 0.0
C7 C 0.10923 0.36602 0.43617 0.0
C8 C 0.113 0.29996 0.42147 0.0
C9 C 0.07457 0.32077 0.38362 0.0
O10 O 0.07857 0.32968 0.40021 0.0
O11 O 0.08569 0.31413 0.37542 0.0
O12 O 0.09726 0.35193 0.4394 0.0
O13 O 0.11748 0.36309 0.42214 0.0
O14 O 0.99375 0.712 0.64958 0.0
Cd15 Cd 0.99804 0.73661 0.66865 0.0
Cd16 Cd 1.00565 0.75462 0.63987 0.0
O17 O 0.99738 0.72692 0.62564 0.0
O18 O 0.98529 0.73059 0.68987 0.0
O19 O 0.97909 0.74985 0.671 0.0
C20 C 0.97596 0.74175 0.68531 0.0
C21 C 0.99738 0.77833 0.62587 0.0
C22 C 0.99378 0.7115 0.63223 0.0
C23 C 0.03453 0.76045 0.67135 0.0
O24 O 0.03023 0.76324 0.65511 0.0
O25 O 0.02332 0.75055 0.67974 0.0
O26 O 1.00862 0.76992 0.6196 0.0
O27 O 0.99043 0.77304 0.64012 0.0
O28 O 0.63637 0.83284 0.8866 0.0
Cd29 Cd 0.61831 0.83098 0.90513 0.0
Cd30 Cd 0.5994 0.84097 0.87786 0.0
O31 O 0.62091 0.84135 0.86439 0.0
O32 O 0.6245 0.81533 0.92348 0.0
O33 O 0.59983 0.80655 0.90409 0.0
C34 C 0.60968 0.80303 0.91737 0.0
C35 C 0.5719 0.82258 0.86395 0.0
C36 C 0.63483 0.83757 0.87066 0.0
C37 C 0.60762 0.86737 0.91427 0.0
O38 O 0.60026 0.8641 0.89763 0.0
O39 O 0.61556 0.85584 0.92011 0.0
O40 O 0.57923 0.83842 0.85874 0.0
O41 O 0.58047 0.81695 0.87685 0.0
O42 O 0.4936 0.20934 0.15853 0.0
Cd43 Cd 0.49807 0.23339 0.17841 0.0
Cd44 Cd 0.50754 0.25279 0.15075 0.0
O45 O 0.49833 0.22556 0.13559 0.0
O46 O 0.48344 0.22816 0.19843 0.0
O47 O 0.4804 0.24846 0.17937 0.0
C48 C 0.47561 0.24042 0.19331 0.0
C49 C 0.50325 0.27808 0.13643 0.0
C50 C 0.49405 0.20971 0.14134 0.0
C51 C 0.53499 0.25597 0.18326 0.0
O52 O 0.53139 0.25968 0.16724 0.0
O53 O 0.52323 0.24584 0.19086 0.0
O54 O 0.51363 0.2681 0.13095 0.0
O55 O 0.49465 0.27332 0.14987 0.0
O56 O 0.07943 0.78954 0.13244 0.0
Cd57 Cd 0.08466 0.81401 0.15216 0.0
Cd58 Cd 0.10162 0.82941 0.12413 0.0
O59 O 0.09182 0.80157 0.10955 0.0
O60 O 0.06962 0.80556 0.17149 0.0
O61 O 0.06578 0.82799 0.15579 0.0
C62 C 0.06074 0.81744 0.16796 0.0
C63 C 0.09559 0.85566 0.11195 0.0
C64 C 0.08343 0.7873 0.11605 0.0
C65 C 0.12425 0.82974 0.15969 0.0
O66 O 0.12384 0.83343 0.14324 0.0
O67 O 0.11004 0.82303 0.16609 0.0
O68 O 0.10688 0.84724 0.10565 0.0
O69 O 0.08761 0.84915 0.1252 0.0
O70 O 0.55478 0.77455 0.41065 0.0
Cd71 Cd 0.53762 0.77431 0.43032 0.0
Cd72 Cd 0.51867 0.78554 0.39738 0.0
O73 O 0.54014 0.77987 0.38569 0.0
O74 O 0.54846 0.76309 0.45036 0.0
O75 O 0.52264 0.74868 0.43436 0.0
C76 C 0.53508 0.74842 0.44684 0.0
C77 C 0.49177 0.78109 0.3783 0.0
C78 C 0.55371 0.77653 0.39367 0.0
C79 C 0.52981 0.81303 0.43517 0.0
O80 O 0.52362 0.80913 0.41807 0.0
O81 O 0.53531 0.80081 0.44307 0.0
O82 O 0.50549 0.79437 0.37723 0.0
O83 O 0.4934 0.76955 0.38967 0.0
O84 O 0.58394 0.28823 0.63753 0.0
Cd85 Cd 0.5896 0.31246 0.65759 0.0
Cd86 Cd 0.60671 0.32782 0.62935 0.0
O87 O 0.59653 0.30005 0.61462 0.0
O88 O 0.57446 0.30386 0.67684 0.0
O89 O 0.57089 0.32665 0.66153 0.0
C90 C 0.56569 0.31587 0.67347 0.0
C91 C 0.60092 0.35434 0.61722 0.0
C92 C 0.58786 0.2859 0.62111 0.0
C93 C 0.62929 0.32727 0.66488 0.0
O94 O 0.62885 0.33121 0.6485 0.0
O95 O 0.61508 0.32081 0.67137 0.0
O96 O 0.61245 0.3461 0.61126 0.0
O97 O 0.59262 0.34755 0.63016 0.0
O98 O 0.02281 0.24097 0.91565 0.0
Cd99 Cd 0.02387 0.2615 0.89855 0.0
Cd100 Cd 1.01184 0.27922 0.92913 0.0
O101 O 0.01613 0.25627 0.94095 0.0
O102 O 0.03769 0.25386 0.87865 0.0
O103 O 0.04731 0.28053 0.89908 0.0
C104 C 0.05 0.26914 0.88517 0.0
C105 C 0.02335 0.31103 0.94414 0.0
C106 C 0.02009 0.24177 0.93253 0.0
C107 C 0.98847 0.27013 0.89243 0.0
O108 O 0.98988 0.27501 0.90994 0.0
O109 O 1.00088 0.2651 0.88501 0.0
O110 O 1.01008 0.29985 0.94934 0.0
O111 O 0.03067 0.30385 0.93088 0.0
O112 O 0.42488 0.0823 0.28912 0.0
Cd113 Cd 0.4179 0.07381 0.31359 0.0
Cd114 Cd 0.44938 0.0689 0.31732 0.0
O115 O 0.45276 0.0834 0.29548 0.0
O116 O 0.39585 0.08105 0.3164 0.0
O117 O 0.42006 0.09372 0.33618 0.0
C118 C 0.40385 0.09283 0.33113 0.0
C119 C 0.46866 0.0803 0.34444 0.0
C120 C 0.44043 0.08642 0.28512 0.0
C121 C 0.42012 0.03374 0.31201 0.0
O122 O 0.43646 0.04011 0.31174 0.0
O123 O 0.41056 0.04519 0.3141 0.0
O124 O 0.47296 0.07104 0.33009 0.0
O125 O 0.45326 0.08327 0.34329 0.0
O126 O 0.30265 0.19774 0.54302 0.0
Cd127 Cd 0.29876 0.17748 0.51927 0.0
Cd128 Cd 0.28427 0.20555 0.505 0.0
O129 O 0.29291 0.22036 0.53214 0.0
O130 O 0.31186 0.15904 0.5271 0.0
O131 O 0.31905 0.17531 0.50474 0.0
C132 C 0.32222 0.16329 0.51496 0.0
C133 C 0.29026 0.22037 0.47874 0.0
C134 C 0.29946 0.21403 0.54565 0.0
C135 C 0.25969 0.16654 0.50557 0.0
O136 O 0.2615 0.18346 0.50222 0.0
O137 O 0.27298 0.16118 0.51143 0.0
O138 O 0.27915 0.2245 0.48931 0.0
O139 O 0.29836 0.20806 0.48326 0.0
O140 O 0.17498 0.02055 0.75315 0.0
Cd141 Cd 0.19721 0.02252 0.7732 0.0
Cd142 Cd 0.16747 0.04257 0.7964 0.0
O143 O 0.15509 0.03217 0.76763 0.0
O144 O 0.21402 1.00715 0.76097 0.0
O145 O 0.20175 0.99878 0.78473 0.0
C146 C 0.21185 0.99531 0.77256 0.0
C147 C 0.15238 0.04204 0.82539 0.0
C148 C 0.1603 0.02517 0.75258 0.0
C149 C 0.20547 0.06738 0.79014 0.0
O150 O 0.19048 0.06515 0.79617 0.0
O151 O 0.21037 0.05283 0.78248 0.0
O152 O 0.15068 0.05319 0.81362 0.0
O153 O 0.1621 0.03079 0.8208 0.0
O154 O 0.27349 0.93819 0.02744 0.0
Cd155 Cd 0.28323 0.95213 1.00672 0.0
Cd156 Cd 0.28637 0.91605 0.99205 0.0
O157 O 0.27222 0.90913 0.01333 0.0
O158 O 0.27695 0.97672 1.01112 0.0
O159 O 0.26702 0.95537 0.98547 0.0
C160 C 0.26747 0.9717 0.99515 0.0
C161 C 0.2804 0.89267 0.96542 0.0
C162 C 0.26921 0.92022 0.02684 0.0
C163 C 0.31937 0.94862 1.00377 0.0
O164 O 0.31251 0.93085 0.99828 0.0
O165 O 0.30982 0.9599 1.00717 0.0
O166 O 0.28821 0.89046 0.98073 0.0
O167 O 0.2756 0.90824 0.9652 0.0
O168 O 0.31768 0.40846 0.082 0.0
Cd169 Cd 0.31978 0.42491 0.06108 0.0
Cd170 Cd 0.32825 0.3925 0.04325 0.0
O171 O 0.32029 0.38129 0.06668 0.0
O172 O 0.30814 0.44556 0.0692 0.0
O173 O 0.29798 0.42401 0.04389 0.0
C174 C 0.2963 0.43858 0.05504 0.0
C175 C 0.31932 0.37601 0.01251 0.0
C176 C 0.31767 0.39101 0.08149 0.0
C177 C 0.35653 0.43014 0.05138 0.0
O178 O 0.35255 0.41206 0.04667 0.0
O179 O 0.34499 0.43844 0.05646 0.0
O180 O 0.33011 0.37108 0.02379 0.0
O181 O 0.31272 0.38965 0.019 0.0
O182 O 0.809 0.17086 0.08203 0.0
Cd183 Cd 0.79939 0.14443 0.06537 0.0
Cd184 Cd 0.78762 0.16415 0.04173 0.0
O185 O 0.80237 0.18711 0.0607 0.0
O186 O 0.81445 0.12781 0.07162 0.0
O187 O 0.81241 0.13777 0.04455 0.0
C188 C 0.81915 0.12817 0.05528 0.0
C189 C 0.787 0.16723 1.0106 0.0
C190 C 0.80944 0.18674 0.07678 0.0
C191 C 0.76108 0.1349 0.05666 0.0
O192 O 0.76415 0.14881 0.04789 0.0
O193 O 0.77361 0.12973 0.06446 0.0
O194 O 0.77935 0.17658 0.02183 0.0
O195 O 0.79553 0.15622 0.01717 0.0
O196 O 0.17266 0.51453 0.20369 0.0
Cd197 Cd 0.19263 0.52291 0.2254 0.0
Cd198 Cd 0.16783 0.53347 0.24549 0.0
O199 O 0.15258 0.52137 0.22045 0.0
O200 O 0.20931 0.50649 0.22504 0.0
O201 O 0.1911 0.5083 0.24595 0.0
C202 C 0.20345 0.50156 0.23997 0.0
C203 C 0.15674 0.52478 0.27226 0.0
C204 C 0.15692 0.5149 0.20509 0.0
C205 C 0.20023 0.56408 0.2419 0.0
O206 O 0.18551 0.55991 0.24797 0.0
O207 O 0.20568 0.55129 0.2325 0.0
O208 O 0.15098 0.53661 0.26364 0.0
O209 O 0.1688 0.51796 0.26568 0.0
O210 O 0.81816 0.90829 0.58429 0.0
Cd211 Cd 0.82024 0.92454 0.56319 0.0
Cd212 Cd 0.82705 0.89177 0.54485 0.0
O213 O 0.81885 0.88066 0.56825 0.0
O214 O 0.80885 0.94559 0.57085 0.0
O215 O 0.7982 0.92327 0.5462 0.0
C216 C 0.79673 0.93818 0.55701 0.0
C217 C 0.8171 0.87614 0.514 0.0
C218 C 0.81719 0.89057 0.58341 0.0
C219 C 0.85662 0.92814 0.55269 0.0
O220 O 0.85197 0.91002 0.54811 0.0
O221 O 0.84555 0.93711 0.55787 0.0
O222 O 0.82717 0.86992 0.52494 0.0
O223 O 0.81177 0.89063 0.52088 0.0
O224 O 0.94126 0.07451 0.2341 0.0
Cd225 Cd 0.92083 0.07618 0.25206 0.0
Cd226 Cd 0.95389 0.05914 0.27571 0.0
O227 O 0.96288 0.06528 0.24912 0.0
O228 O 0.90251 0.08993 0.24099 0.0
O229 O 0.9193 0.1029 0.26685 0.0
C230 C 0.90712 0.10423 0.25457 0.0
C231 C 0.97154 0.06063 0.30608 0.0
C232 C 0.95613 0.07017 0.23439 0.0
C233 C 0.91332 0.03536 0.26607 0.0
O234 O 0.92953 0.03855 0.27236 0.0
O235 O 0.90768 0.04809 0.25862 0.0
O236 O 0.97053 0.04764 0.29184 0.0
O237 O 0.96372 0.07361 0.30299 0.0
O238 O 0.31177 0.67388 0.57427 0.0
Cd239 Cd 0.30462 0.64857 0.5559 0.0
Cd240 Cd 0.30065 0.66989 0.53 0.0
O241 O 0.30717 0.69116 0.55308 0.0
O242 O 0.31684 0.63016 0.56439 0.0
O243 O 0.32143 0.64278 0.53896 0.0
C244 C 0.32495 0.63157 0.54998 0.0
C245 C 0.31296 0.67866 0.5039 0.0
C246 C 0.31157 0.68995 0.56983 0.0
C247 C 0.26937 0.63845 0.53432 0.0
O248 O 0.27601 0.65116 0.52505 0.0
O249 O 0.27847 0.63537 0.5481 0.0
O250 O 0.30036 0.685 0.50976 0.0
O251 O 0.31861 0.66696 0.51281 0.0
O252 O 0.44151 0.57224 0.73413 0.0
Cd253 Cd 0.42095 0.57345 0.75192 0.0
Cd254 Cd 0.4537 0.55764 0.77621 0.0
O255 O 0.46327 0.56413 0.75009 0.0
O256 O 0.40252 0.58699 0.74079 0.0
O257 O 0.41915 0.59997 0.76677 0.0
C258 C 0.407 0.60124 0.75442 0.0
C259 C 0.47089 0.56021 0.80696 0.0
C260 C 0.45663 0.5685 0.73504 0.0
C261 C 0.41383 0.53256 0.76574 0.0
O262 O 0.43 0.53599 0.7723 0.0
O263 O 0.40806 0.54523 0.75833 0.0
O264 O 0.47151 0.54796 0.7927 0.0
O265 O 0.46161 0.57188 0.80374 0.0
O266 O 0.65795 0.01614 0.71421 0.0
Cd267 Cd 0.67941 0.02839 0.73395 0.0
Cd268 Cd 0.65634 0.04341 0.75162 0.0
O269 O 0.63936 0.02919 0.72835 0.0
O270 O 0.69739 1.01425 0.72912 0.0
O271 O 0.68489 1.01529 0.75483 0.0
C272 C 0.69611 1.0097 0.74535 0.0
C273 C 0.65084 0.036 0.78049 0.0
C274 C 0.64272 0.01865 0.71461 0.0
C275 C 0.68748 0.07126 0.7431 0.0
O276 O 0.67329 0.06915 0.75021 0.0
O277 O 0.69218 0.05683 0.73585 0.0
O278 O 0.64284 0.04687 0.77285 0.0
O279 O 0.66186 0.0293 0.77158 0.0
O280 O 0.80172 0.69559 0.04547 0.0
Cd281 Cd 0.79879 0.67618 0.02122 0.0
Cd282 Cd 0.78594 0.70449 1.00755 0.0
O283 O 0.79468 0.71964 0.03452 0.0
O284 O 0.81201 0.6577 0.0285 0.0
O285 O 0.81951 0.67528 1.00711 0.0
C286 C 0.82261 0.66279 0.01678 0.0
C287 C 0.79282 0.71776 0.98074 0.0
C288 C 0.7997 0.71242 0.04816 0.0
C289 C 0.76034 0.66588 1.0069 0.0
O290 O 0.76263 0.68323 1.00479 0.0
O291 O 0.77335 0.65974 1.01203 0.0
O292 O 0.78162 0.72272 0.99071 0.0
O293 O 0.80064 0.70565 0.98631 0.0
O294 O 0.93183 0.58213 0.7767 0.0
Cd295 Cd 0.92443 0.57688 0.80207 0.0
Cd296 Cd 0.95333 0.56596 0.80565 0.0
O297 O 0.95769 0.57654 0.78164 0.0
O298 O 0.90548 0.58952 0.80577 0.0
O299 O 0.931 0.59853 0.82379 0.0
C300 C 0.91561 0.60083 0.81968 0.0
C301 C 0.97377 0.57697 0.83191 0.0
C302 C 0.94657 0.58174 0.77149 0.0
C303 C 0.92034 0.53572 0.80414 0.0
O304 O 0.93672 0.5391 0.80358 0.0
O305 O 0.91292 0.5492 0.80466 0.0
O306 O 0.97611 0.56505 0.81829 0.0
O307 O 0.95987 0.58306 0.83036 0.0
O308 O 0.78719 0.44291 0.53576 0.0
Cd309 Cd 0.79845 0.45823 0.51666 0.0
Cd310 Cd 0.80187 0.42315 0.49998 0.0
O311 O 0.78686 0.41473 0.52024 0.0
O312 O 0.79161 0.48251 0.52072 0.0
O313 O 0.78333 0.46153 0.49459 0.0
C314 C 0.78294 0.47755 0.5043 0.0
C315 C 0.79613 0.40117 0.47234 0.0
C316 C 0.78295 0.42483 0.53393 0.0
C317 C 0.83481 0.45508 0.51481 0.0
O318 O 0.82799 0.43771 0.50744 0.0
O319 O 0.82521 0.46609 0.5191 0.0
O320 O 0.80372 0.39802 0.48733 0.0
O321 O 0.7916 0.41698 0.47296 0.0
O322 O 0.67447 0.523 0.2545 0.0
Cd323 Cd 0.69711 0.52533 0.2742 0.0
Cd324 Cd 0.66831 0.54531 0.29838 0.0
O325 O 0.65565 0.53579 0.26973 0.0
O326 O 0.7137 0.50985 0.26179 0.0
O327 O 0.70189 0.50182 0.28591 0.0
C328 C 0.71177 0.49821 0.27357 0.0
C329 C 0.65341 0.54413 0.3274 0.0
C330 C 0.66013 0.5283 0.25446 0.0
C331 C 0.70588 0.57019 0.29158 0.0
O332 O 0.69122 0.5679 0.29829 0.0
O333 O 0.71043 0.55568 0.28325 0.0
O334 O 0.65199 0.55588 0.31617 0.0
O335 O 0.66276 0.53265 0.32225 0.0
La336 La 0.03701 0.03999 0.02043 0.0
La337 La 0.07281 0.06474 0.04023 0.0
C338 C 1.00479 0.0235 0.01392 0.0
C339 C 0.98914 0.02988 0.01727 0.0
C340 C 0.97257 0.01836 1.00931 0.0
C341 C 0.95779 0.0253 1.01082 0.0
C342 C 0.95948 0.04391 0.02023 0.0
C343 C 0.97611 0.05518 0.02861 0.0
C344 C 0.99083 0.04823 0.0271 0.0
C345 C 0.06094 0.04126 0.9957 0.0
C346 C 0.04702 0.0845 0.0203 0.0
C347 C 0.10499 0.08121 0.04478 0.0
C348 C 0.11883 0.07723 0.03422 0.0
C349 C 0.1345 0.0913 0.03475 0.0
C350 C 0.14737 0.08748 0.02411 0.0
C351 C 0.14461 0.06958 0.0127 0.0
C352 C 0.12876 0.05564 1.01213 0.0
C353 C 0.11602 0.05943 0.0228 0.0
C354 C 0.0492 0.06394 0.06517 0.0
C355 C 0.06294 0.0195 0.0387 0.0
O356 O 0.01378 0.03194 1.002 0.0
O357 O 0.01486 0.02247 0.02867 0.0
O358 O 0.04467 0.03155 0.99277 0.0
O359 O 0.06315 0.04903 0.01279 0.0
O360 O 0.03423 0.06877 0.01927 0.0
O361 O 0.06337 0.08552 0.02666 0.0
O362 O 0.0979 0.06789 0.054 0.0
O363 O 0.09319 0.08727 0.03558 0.0
O364 O 0.06562 0.07319 0.06806 0.0
O365 O 0.04672 0.05604 0.04806 0.0
O366 O 0.07541 0.03576 0.04118 0.0
O367 O 0.0467 0.01803 0.03157 0.0
H368 H 0.97112 1.00423 1.00152 0.0
H369 H 0.94516 0.01637 1.00412 0.0
H370 H 0.97778 0.06944 0.0362 0.0
H371 H 1.00357 0.05735 0.03324 0.0
H372 H 0.13677 0.10519 0.04336 0.0
H373 H 0.15944 0.09851 0.02477 0.0
H374 H 0.12633 0.0416 1.00376 0.0
H375 H 0.1039 0.04845 0.02205 0.0
La376 La 0.30849 0.79704 0.24978 0.0
La377 La 0.30279 0.80334 0.28947 0.0
C378 C 0.30886 0.79797 0.21573 0.0
C379 C 0.30437 0.81077 0.20367 0.0
C380 C 0.31053 0.8109 0.18645 0.0
C381 C 0.30545 0.8222 0.17438 0.0
C382 C 0.294 0.83339 0.17936 0.0
C383 C 0.28812 0.83351 0.19681 0.0
C384 C 0.2934 0.8224 0.20897 0.0
C385 C 0.33218 0.78901 0.27282 0.0
C386 C 0.32018 0.83882 0.27352 0.0
C387 C 0.303 0.80166 0.32336 0.0
C388 C 0.30765 0.78796 0.33441 0.0
C389 C 0.32095 0.79466 0.34951 0.0
C390 C 0.32681 0.78183 0.35912 0.0
C391 C 0.3194 0.76205 0.35383 0.0
C392 C 0.30596 0.75535 0.3388 0.0
C393 C 0.30016 0.76819 0.32913 0.0
C394 C 0.27917 0.81156 0.26643 0.0
C395 C 0.29172 0.76158 0.26597 0.0
O396 O 0.32266 0.80529 0.22815 0.0
O397 O 0.2957 0.78803 0.22265 0.0
O398 O 0.3271 0.78031 0.25587 0.0
O399 O 0.32511 0.80254 0.2757 0.0
O400 O 0.31428 0.82828 0.25692 0.0
O401 O 0.31892 0.83139 0.28878 0.0
O402 O 0.28879 0.79545 0.31128 0.0
O403 O 0.31608 0.81178 0.31649 0.0
O404 O 0.28418 0.8201 0.28346 0.0
O405 O 0.28616 0.79795 0.26353 0.0
O406 O 0.29793 0.77226 0.2824 0.0
O407 O 0.29222 0.76897 0.25066 0.0
H408 H 0.31901 0.802 0.1822 0.0
H409 H 0.31003 0.82173 0.16092 0.0
H410 H 0.27941 0.84214 0.20101 0.0
H411 H 0.28872 0.82263 0.22236 0.0
H412 H 0.32699 0.80984 0.35372 0.0
H413 H 0.33698 0.7874 0.37085 0.0
H414 H 0.30007 0.74017 0.33439 0.0
H415 H 0.29 0.76259 0.3174 0.0
La416 La 0.57811 0.05213 0.53326 0.0
La417 La 0.53856 0.04632 0.52254 0.0
C418 C 0.60803 0.04966 0.54601 0.0
C419 C 0.6203 0.03725 0.54409 0.0
C420 C 0.63091 0.03781 0.52974 0.0
C421 C 0.64405 0.02809 0.5294 0.0
C422 C 0.64702 0.01759 0.54342 0.0
C423 C 0.63606 0.01658 0.55748 0.0
C424 C 0.62294 0.02636 0.55786 0.0
C425 C 0.5685 0.06133 0.5014 0.0
C426 C 0.55359 1.01114 0.51255 0.0
C427 C 0.5087 0.04854 0.50943 0.0
C428 C 0.49583 0.06004 0.51184 0.0
C429 C 0.47867 0.05076 0.51416 0.0
C430 C 0.46571 0.06064 0.51507 0.0
C431 C 0.46952 0.08011 0.51355 0.0
C432 C 0.48679 0.0895 0.51138 0.0
C433 C 0.49983 0.0796 0.51061 0.0
C434 C 0.54796 0.03691 0.55428 0.0
C435 C 0.56313 0.0873 0.54352 0.0
O436 O 0.60522 0.05857 0.53227 0.0
O437 O 0.59374 0.04351 0.55339 0.0
O438 O 0.58298 0.07025 0.51199 0.0
O439 O 0.56071 0.04736 0.50824 0.0
O440 O 0.56841 0.02112 0.52305 0.0
O441 O 0.54089 0.01914 0.50802 0.0
O442 O 0.51124 0.03869 0.52245 0.0
O443 O 0.52328 0.05604 0.50311 0.0
O444 O 0.53335 0.02832 0.5438 0.0
O445 O 0.55591 0.0509 0.54756 0.0
O446 O 0.54816 0.07729 0.53327 0.0
O447 O 0.57599 0.0794 0.54768 0.0
H448 H 0.62941 0.04615 0.51897 0.0
H449 H 0.65202 0.02898 0.5182 0.0
H450 H 0.63803 1.00882 0.56863 0.0
H451 H 0.6152 0.02586 0.56927 0.0
H452 H 0.47516 0.03566 0.51493 0.0
H453 H 0.45255 0.05282 0.51644 0.0
H454 H 0.49025 0.10453 0.51033 0.0
H455 H 0.51295 0.08719 0.50881 0.0
La456 La 0.28893 0.30269 0.77486 0.0
La457 La 0.32689 0.3003 0.78008 0.0
C458 C 0.2568 0.30061 0.77589 0.0
C459 C 0.24291 0.29791 0.78827 0.0
C460 C 0.23691 0.31362 0.79542 0.0
C461 C 0.22244 0.31118 0.80521 0.0
C462 C 0.21347 0.29291 0.80802 0.0
C463 C 0.21973 0.27721 0.80125 0.0
C464 C 0.23427 0.27966 0.79146 0.0
C465 C 0.31301 0.33389 0.76984 0.0
C466 C 0.30938 0.30934 0.81581 0.0
C467 C 0.35967 0.31136 0.78041 0.0
C468 C 0.37432 0.30902 0.76994 0.0
C469 C 0.37935 0.29185 0.76699 0.0
C470 C 0.39401 0.29084 0.7579 0.0
C471 C 0.40389 0.30695 0.75159 0.0
C472 C 0.39868 0.32401 0.75453 0.0
C473 C 0.38414 0.32501 0.76359 0.0
C474 C 0.30522 0.26516 0.77971 0.0
C475 C 0.30492 0.28883 0.73962 0.0
O476 O 0.26926 0.31658 0.7799 0.0
O477 O 0.26276 0.28599 0.76994 0.0
O478 O 0.29763 0.3269 0.76031 0.0
O479 O 0.31429 0.32337 0.782 0.0
O480 O 0.29414 0.30492 0.80504 0.0
O481 O 0.32431 0.31002 0.8089 0.0
O482 O 0.35207 0.29775 0.78912 0.0
O483 O 0.34843 0.31914 0.7725 0.0
O484 O 0.32223 0.26933 0.78132 0.0
O485 O 0.30143 0.28076 0.77807 0.0
O486 O 0.32049 0.29435 0.74984 0.0
O487 O 0.29029 0.28897 0.74688 0.0
H488 H 0.24308 0.32782 0.79293 0.0
H489 H 0.21788 0.32358 0.80993 0.0
H490 H 0.21328 0.26296 0.80333 0.0
H491 H 0.23844 0.2672 0.78603 0.0
H492 H 0.37209 0.27929 0.77179 0.0
H493 H 0.39756 0.27742 0.75576 0.0
H494 H 0.4061 0.33682 0.75025 0.0
H495 H 0.38071 0.3385 0.7659 0.0
La496 La 0.06085 0.06014 0.5387 0.0
La497 La 0.0606 0.01875 0.52248 0.0
C498 C 0.06546 0.09569 0.54612 0.0
C499 C 0.07107 0.11164 0.53625 0.0
C500 C 0.06943 0.1297 0.54362 0.0
C501 C 0.07523 0.14519 0.53465 0.0
C502 C 0.08285 0.14283 0.51821 0.0
C503 C 0.08431 0.12458 0.5108 0.0
C504 C 0.07841 0.10908 0.51974 0.0
C505 C 0.03465 0.0328 0.54568 0.0
C506 C 0.04891 0.04412 0.49413 0.0
C507 C 0.04969 0.98297 0.51389 0.0
C508 C 0.03918 0.96779 0.52232 0.0
C509 C 0.03221 0.94956 0.51175 0.0
C510 C 0.02282 0.93472 0.51977 0.0
C511 C 0.02035 0.93784 0.53859 0.0
C512 C 0.02685 0.9564 0.54896 0.0
C513 C 0.03615 0.97127 0.54086 0.0
C514 C 0.09042 0.04316 0.51807 0.0
C515 C 0.07589 0.03613 0.56568 0.0
O516 O 0.05023 0.08371 0.53953 0.0
O517 O 0.07746 0.08697 0.55027 0.0
O518 O 0.04145 0.04896 0.55666 0.0
O519 O 0.04175 0.03325 0.5311 0.0
O520 O 0.0531 0.05889 0.50826 0.0
O521 O 0.05059 0.02696 0.49663 0.0
O522 O 0.0652 0.99186 0.52292 0.0
O523 O 0.04139 0.99477 0.50796 0.0
O524 O 0.08643 0.02489 0.51207 0.0
O525 O 0.07765 0.04628 0.52562 0.0
O526 O 0.06768 0.02063 0.55313 0.0
O527 O 0.07686 0.05351 0.56178 0.0
H528 H 0.06371 0.13183 0.55633 0.0
H529 H 0.07362 0.15898 0.54052 0.0
H530 H 0.09025 0.12233 0.49826 0.0
H531 H 0.07972 0.09516 0.51387 0.0
H532 H 0.03422 0.94673 0.49734 0.0
H533 H 0.01765 0.92074 0.51125 0.0
H534 H 0.02531 0.95932 0.56349 0.0
H535 H 0.04128 0.98538 0.54916 0.0
La536 La 0.32622 0.81191 0.77406 0.0
La537 La 0.29251 0.78461 0.75555 0.0
C538 C 0.35295 0.82684 0.7973 0.0
C539 C 0.36892 0.82075 0.80137 0.0
C540 C 0.3748 0.80952 0.78749 0.0
C541 C 0.38934 0.80271 0.79167 0.0
C542 C 0.39812 0.80685 0.80984 0.0
C543 C 0.39212 0.81797 0.82374 0.0
C544 C 0.37762 0.82489 0.81951 0.0
C545 C 0.32281 0.80555 0.73776 0.0
C546 C 0.32413 0.7659 0.76423 0.0
C547 C 0.26578 0.76861 0.73256 0.0
C548 C 0.24816 0.77134 0.72957 0.0
C549 C 0.24025 0.77813 0.7445 0.0
C550 C 0.22338 0.78046 0.74148 0.0
C551 C 0.21423 0.77626 0.72344 0.0
C552 C 0.22247 0.76997 0.70848 0.0
C553 C 0.23927 0.76747 0.71156 0.0
C554 C 0.29562 0.79141 0.79199 0.0
C555 C 0.29477 0.83077 0.76501 0.0
O556 O 0.35066 0.832 0.78109 0.0
O557 O 0.3387 0.81554 0.80121 0.0
O558 O 0.33175 0.82168 0.74777 0.0
O559 O 0.31785 0.79366 0.74814 0.0
O560 O 0.33252 0.78329 0.77376 0.0
O561 O 0.30856 0.76353 0.75436 0.0
O562 O 0.26964 0.76232 0.74781 0.0
O563 O 0.27845 0.78258 0.72942 0.0
O564 O 0.28661 0.77534 0.78196 0.0
O565 O 0.30078 0.803 0.78141 0.0
O566 O 0.28606 0.81318 0.75609 0.0
O567 O 0.3106 0.83339 0.77445 0.0
H568 H 0.36803 0.80584 0.77345 0.0
H569 H 0.39361 0.79402 0.78076 0.0
H570 H 0.39877 0.82152 0.83781 0.0
H571 H 0.3731 0.83333 0.83042 0.0
H572 H 0.24705 0.78145 0.75852 0.0
H573 H 0.21739 0.78513 0.75332 0.0
H574 H 0.21595 0.767 0.69438 0.0
H575 H 0.24532 0.7625 0.69986 0.0
La576 La 0.54377 0.03179 0.05374 0.0
La577 La 0.54085 0.02543 1.01156 0.0
C578 C 0.5403 0.04011 0.08729 0.0
C579 C 0.52664 0.04489 0.09767 0.0
C580 C 0.52453 0.03872 0.11468 0.0
C581 C 0.51219 0.04383 0.12526 0.0
C582 C 0.50192 0.05536 0.11904 0.0
C583 C 0.5038 0.06123 0.10183 0.0
C584 C 0.51592 0.05579 0.09105 0.0
C585 C 0.55224 1.00136 0.03806 0.0
C586 C 0.50661 1.0147 0.02886 0.0
C587 C 0.54452 1.01546 0.97832 0.0
C588 C 0.55918 1.01287 0.96837 0.0
C589 C 0.57623 0.0246 0.97417 0.0
C590 C 0.58972 0.02286 0.96368 0.0
C591 C 0.58635 1.00937 0.94724 0.0
C592 C 0.56943 0.99702 0.94205 0.0
C593 C 0.55597 0.99878 0.95255 0.0
C594 C 0.53267 0.05616 0.02691 0.0
C595 C 0.57789 0.04414 0.03662 0.0
O596 O 0.53678 0.02251 0.07843 0.0
O597 O 0.54772 0.05265 0.07744 0.0
O598 O 0.55978 1.01139 0.05397 0.0
O599 O 0.54002 1.00793 0.03222 0.0
O600 O 0.51553 0.02496 0.04469 0.0
O601 O 0.51437 1.01063 0.01423 0.0
O602 O 0.54517 0.03304 0.98565 0.0
O603 O 0.53955 1.00333 0.98946 0.0
O604 O 0.52539 0.04637 1.01079 0.0
O605 O 0.54464 0.04937 0.03305 0.0
O606 O 0.56923 0.03398 0.02063 0.0
O607 O 0.56998 0.04751 0.05129 0.0
H608 H 0.53264 0.03023 0.11993 0.0
H609 H 0.51113 0.03933 0.13863 0.0
H610 H 0.496 0.07011 0.09686 0.0
H611 H 0.51708 0.06033 0.07775 0.0
H612 H 0.57903 0.03547 0.98648 0.0
H613 H 0.60266 0.03242 0.96813 0.0
H614 H 0.56635 0.98664 0.92935 0.0
H615 H 0.54291 0.98952 0.94797 0.0
La616 La 0.32121 0.3298 0.28778 0.0
La617 La 0.29661 0.28828 0.27584 0.0
C618 C 0.33604 0.36413 0.28786 0.0
C619 C 0.33291 0.38135 0.29817 0.0
C620 C 0.32563 0.38049 0.31485 0.0
C621 C 0.31785 0.39462 0.32191 0.0
C622 C 0.31699 0.40963 0.31223 0.0
C623 C 0.32578 0.41135 0.29649 0.0
C624 C 0.33367 0.39727 0.28952 0.0
C625 C 0.3149 0.31218 0.31709 0.0
C626 C 0.28028 0.32166 0.28991 0.0
C627 C 0.28416 0.2532 0.27481 0.0
C628 C 0.2918 0.24124 0.28567 0.0
C629 C 0.2873 0.2213 0.28084 0.0
C630 C 0.29576 0.21059 0.29103 0.0
C631 C 0.30863 0.21974 0.30631 0.0
C632 C 0.31256 0.23969 0.3113 0.0
C633 C 0.30458 0.25027 0.30082 0.0
C634 C 0.29937 0.30985 0.2498 0.0
C635 C 0.3383 0.29657 0.27844 0.0
O636 O 0.34272 0.35342 0.29774 0.0
O637 O 0.32275 0.35413 0.27558 0.0
O638 O 0.32503 0.32924 0.31816 0.0
O639 O 0.3094 0.30658 0.3002 0.0
O640 O 0.29516 0.33421 0.28875 0.0
O641 O 0.27837 0.30295 0.28728 0.0
O642 O 0.2936 0.26013 0.26241 0.0
O643 O 0.27867 0.26633 0.28477 0.0
O644 O 0.28569 0.29612 0.25066 0.0
O645 O 0.31137 0.30982 0.26231 0.0
O646 O 0.32313 0.28443 0.27945 0.0
O647 O 0.3402 0.31506 0.27913 0.0
H648 H 0.32477 0.3682 0.32167 0.0
H649 H 0.31141 0.39303 0.33418 0.0
H650 H 0.32521 0.42257 0.28854 0.0
H651 H 0.33904 0.39803 0.27652 0.0
H652 H 0.27762 0.21411 0.269 0.0
H653 H 0.29258 0.19527 0.28659 0.0
H654 H 0.32205 0.24729 0.32316 0.0
H655 H 0.30865 0.26566 0.30439 0.0
La656 La 0.5618 0.5634 0.03972 0.0
La657 La 0.56049 0.52314 0.02516 0.0
C658 C 0.56715 0.59921 0.04505 0.0
C659 C 0.56836 0.6137 0.03302 0.0
C660 C 0.5643 0.63085 0.0393 0.0
C661 C 0.56534 0.64479 0.02801 0.0
C662 C 0.57046 0.64177 1.01023 0.0
C663 C 0.5744 0.62444 1.00394 0.0
C664 C 0.57334 0.61051 0.01523 0.0
C665 C 0.53403 0.53792 0.04606 0.0
C666 C 0.54785 0.54622 0.99593 0.0
C667 C 0.55344 0.48719 0.01977 0.0
C668 C 0.54857 0.47255 0.03142 0.0
C669 C 0.54988 0.45402 0.02543 0.0
C670 C 0.54421 0.43964 0.0358 0.0
C671 C 0.53707 0.44358 0.05231 0.0
C672 C 0.5361 0.46232 0.05843 0.0
C673 C 0.54182 0.4767 0.04807 0.0
C674 C 0.58812 0.54834 0.01837 0.0
C675 C 0.57494 0.54061 0.06891 0.0
O676 O 0.55169 0.58735 0.04409 0.0
O677 O 0.57965 0.59047 0.04517 0.0
O678 O 0.54183 0.55354 0.05747 0.0
O679 O 0.54127 0.53769 0.03153 0.0
O680 O 0.55461 0.56158 1.00906 0.0
O681 O 0.54743 0.52893 0.99965 0.0
O682 O 0.56942 0.49827 0.02353 0.0
O683 O 0.5419 0.49681 0.01695 0.0
O684 O 0.58049 0.53237 1.00734 0.0
O685 O 0.58105 0.54888 0.03303 0.0
O686 O 0.56816 0.5252 0.0558 0.0
O687 O 0.57512 0.55787 0.06521 0.0
H688 H 0.56042 0.63351 0.05298 0.0
H689 H 0.56245 0.65808 0.03335 0.0
H690 H 0.57818 0.6216 0.99024 0.0
H691 H 0.57646 0.5973 1.0101 0.0
H692 H 0.55509 0.45061 0.01262 0.0
H693 H 0.54543 0.42543 0.03088 0.0
H694 H 0.53054 0.46579 0.07098 0.0
H695 H 0.54063 0.49096 0.05285 0.0
La696 La 0.8275 0.31636 0.27453 0.0
La697 La 0.79361 0.28846 0.25801 0.0
C698 C 0.85465 0.33348 0.29657 0.0
C699 C 0.87169 0.32974 0.30058 0.0
C700 C 0.87719 0.31667 0.28817 0.0
C701 C 0.89327 0.31276 0.29238 0.0
C702 C 0.90398 0.32179 0.30912 0.0
C703 C 0.89837 0.33485 0.32149 0.0
C704 C 0.88232 0.33879 0.31724 0.0
C705 C 0.82275 0.30902 0.23822 0.0
C706 C 0.82581 0.27038 0.26572 0.0
C707 C 0.76575 0.2716 0.23703 0.0
C708 C 0.74831 0.27492 0.23585 0.0
C709 C 0.74383 0.28659 0.25046 0.0
C710 C 0.72718 0.28968 0.24942 0.0
C711 C 0.71484 0.28127 0.23368 0.0
C712 C 0.71951 0.26984 0.21894 0.0
C713 C 0.73615 0.26667 0.22004 0.0
C714 C 0.7983 0.29684 0.29449 0.0
C715 C 0.79542 0.33446 0.26606 0.0
O716 O 0.85125 0.33762 0.2801 0.0
O717 O 0.84142 0.32114 0.30114 0.0
O718 O 0.83185 0.32531 0.24777 0.0
O719 O 0.81836 0.29737 0.249 0.0
O720 O 0.83433 0.28802 0.27465 0.0
O721 O 0.80991 0.26763 0.25646 0.0
O722 O 0.77076 0.26596 0.25226 0.0
O723 O 0.77802 0.28512 0.23253 0.0
O724 O 0.78928 0.28035 0.28531 0.0
O725 O 0.80265 0.30782 0.28319 0.0
O726 O 0.78672 0.31669 0.2577 0.0
O727 O 0.81146 0.33742 0.27508 0.0
H728 H 0.86901 0.30944 0.27529 0.0
H729 H 0.89722 0.30252 0.2827 0.0
H730 H 0.90648 0.34218 0.33438 0.0
H731 H 0.87818 0.34885 0.32696 0.0
H732 H 0.75319 0.29322 0.26271 0.0
H733 H 0.72397 0.29869 0.26088 0.0
H734 H 0.71017 0.26304 0.20672 0.0
H735 H 0.73949 0.25771 0.20863 0.0
La736 La 0.05823 0.55115 0.54818 0.0
La737 La 0.04737 0.53078 0.50807 0.0
C738 C 0.05944 0.57074 0.5795 0.0
C739 C 0.04603 0.57582 0.59007 0.0
C740 C 0.05038 0.58414 0.60879 0.0
C741 C 0.03762 0.58909 0.61885 0.0
C742 C 0.02031 0.58594 0.61028 0.0
C743 C 0.01609 0.57766 0.59142 0.0
C744 C 0.02883 0.57256 0.58146 0.0
C745 C 0.07038 0.52133 0.53912 0.0
C746 C 0.02046 0.52182 0.53521 0.0
C747 C 0.04455 0.51234 0.47578 0.0
C748 C 0.05657 0.50965 0.46229 0.0
C749 C 0.07296 0.52276 0.46364 0.0
C750 C 0.0841 0.52051 0.4504 0.0
C751 C 0.07889 0.50524 0.43537 0.0
C752 C 0.06253 0.49193 0.43426 0.0
C753 C 0.05148 0.4941 0.44769 0.0
C754 C 0.03592 0.56117 0.51766 0.0
C755 C 0.08567 0.55911 0.52115 0.0
O756 O 0.05922 0.55261 0.57701 0.0
O757 O 0.06127 0.578 0.56429 0.0
O758 O 0.07862 0.5361 0.55143 0.0
O759 O 0.0555 0.52312 0.53361 0.0
O760 O 0.03009 0.53735 0.54654 0.0
O761 O 0.02604 0.51459 0.52014 0.0
O762 O 0.04245 0.52959 0.4794 0.0
O763 O 0.04651 0.50503 0.49082 0.0
O764 O 0.02682 0.54603 0.50633 0.0
O765 O 0.05069 0.55894 0.52259 0.0
O766 O 0.07551 0.54433 0.50923 0.0
O767 O 0.08049 0.56614 0.53659 0.0
H768 H 0.0636 0.58667 0.61565 0.0
H769 H 0.04126 0.59498 0.63346 0.0
H770 H 1.003 0.57526 0.58429 0.0
H771 H 0.02536 0.56639 0.56696 0.0
H772 H 0.077 0.53496 0.4747 0.0
H773 H 0.09671 0.53085 0.45184 0.0
H774 H 0.05802 0.48015 0.42275 0.0
H775 H 0.03883 0.48386 0.44647 0.0
La776 La 0.78825 0.80541 0.27601 0.0
La777 La 0.82624 0.80348 0.28143 0.0
C778 C 0.75607 0.80314 0.2769 0.0
C779 C 0.74192 0.79915 0.28884 0.0
C780 C 0.73719 0.81438 0.29914 0.0
C781 C 0.7225 0.81103 0.30857 0.0
C782 C 0.71201 0.79234 0.30786 0.0
C783 C 0.71697 0.77705 0.2979 0.0
C784 C 0.73172 0.7804 0.28848 0.0
C785 C 0.81216 0.83687 0.271 0.0
C786 C 0.8085 0.81226 0.31687 0.0
C787 C 0.85904 0.8137 0.28194 0.0
C788 C 0.87325 0.80928 0.27187 0.0
C789 C 0.88951 0.81068 0.28194 0.0
C790 C 0.90399 0.80947 0.27276 0.0
C791 C 0.90256 0.80696 0.25327 0.0
C792 C 0.88606 0.80481 0.24319 0.0
C793 C 0.87155 0.80591 0.25238 0.0
C794 C 0.8048 0.76812 0.28099 0.0
C795 C 0.80454 0.79197 0.24097 0.0
O796 O 0.76858 0.81895 0.28216 0.0
O797 O 0.76205 0.78893 0.26978 0.0
O798 O 0.7968 0.82971 0.26148 0.0
O799 O 0.81352 0.82643 0.2832 0.0
O800 O 0.79322 0.80656 0.3061 0.0
O801 O 0.82352 0.8142 0.30995 0.0
O802 O 0.85125 0.80142 0.29188 0.0
O803 O 0.84802 0.82098 0.27295 0.0
O804 O 0.82179 0.7725 0.28264 0.0
O805 O 0.8009 0.78362 0.27933 0.0
O806 O 0.82007 0.79817 0.2512 0.0
O807 O 0.78979 0.79136 0.24819 0.0
H808 H 0.74454 0.82901 0.29945 0.0
H809 H 0.71898 0.82319 0.31583 0.0
H810 H 0.70934 0.76246 0.29722 0.0
H811 H 0.73485 0.76833 0.28054 0.0
H812 H 0.89119 0.81345 0.29697 0.0
H813 H 0.9165 0.81135 0.28099 0.0
H814 H 0.88442 0.80257 0.22817 0.0
H815 H 0.85915 0.80474 0.24424 0.0
La816 La 0.81645 0.29928 0.75334 0.0
La817 La 0.80958 0.30233 0.79483 0.0
C818 C 0.81762 0.302 0.71977 0.0
C819 C 0.81047 0.31262 0.70703 0.0
C820 C 0.80932 0.30653 0.68793 0.0
C821 C 0.80106 0.31526 0.6755 0.0
C822 C 0.79373 0.33017 0.682 0.0
C823 C 0.79517 0.33646 0.70121 0.0
C824 C 0.80349 0.32772 0.71365 0.0
C825 C 0.84006 0.29192 0.77696 0.0
C826 C 0.82319 0.33979 0.77927 0.0
C827 C 0.81352 0.30029 0.82867 0.0
C828 C 0.80503 0.28639 0.83964 0.0
C829 C 0.79307 0.26923 0.8308 0.0
C830 C 0.78714 0.25464 0.84082 0.0
C831 C 0.79292 0.25716 0.85986 0.0
C832 C 0.80419 0.27476 0.86884 0.0
C833 C 0.81028 0.28925 0.85874 0.0
C834 C 0.78163 0.30406 0.77252 0.0
C835 C 0.79617 0.26286 0.76733 0.0
O836 O 0.82987 0.31204 0.73314 0.0
O837 O 0.80582 0.28905 0.7256 0.0
O838 O 0.8362 0.284 0.75967 0.0
O839 O 0.83177 0.30437 0.77997 0.0
O840 O 0.81894 0.32976 0.76221 0.0
O841 O 0.8226 0.33176 0.7943 0.0
O842 O 0.80388 0.31043 0.82171 0.0
O843 O 0.82256 0.29356 0.81656 0.0
O844 O 0.78217 0.30469 0.79032 0.0
O845 O 0.79621 0.30217 0.76873 0.0
O846 O 0.80175 0.27164 0.78464 0.0
O847 O 0.79835 0.27171 0.75291 0.0
H848 H 0.81458 0.29482 0.68264 0.0
H849 H 0.8005 0.31038 0.66077 0.0
H850 H 0.78958 0.34786 0.70661 0.0
H851 H 0.80415 0.33249 0.7284 0.0
H852 H 0.78884 0.26684 0.81603 0.0
H853 H 0.77835 0.24127 0.83364 0.0
H854 H 0.80897 0.27698 0.88348 0.0
H855 H 0.8196 0.30237 0.86571 0.0
La856 La 0.82042 0.81983 0.78797 0.0
La857 La 0.79706 0.78124 0.77351 0.0
C858 C 0.83493 0.8551 0.79508 0.0
C859 C 0.82835 0.87188 0.79349 0.0
C860 C 0.83276 0.88741 0.80818 0.0
C861 C 0.82509 0.90257 0.80772 0.0
C862 C 0.81304 0.90243 0.79246 0.0
C863 C 0.80895 0.88705 0.77759 0.0
C864 C 0.81645 0.87184 0.77814 0.0
C865 C 0.8176 0.79608 0.81221 0.0
C866 C 0.77907 0.81275 0.78536 0.0
C867 C 0.78403 0.74589 0.76945 0.0
C868 C 0.79261 0.73174 0.77573 0.0
C869 C 0.80572 0.72645 0.76624 0.0
C870 C 0.81728 0.71777 0.77479 0.0
C871 C 0.81584 0.71402 0.79289 0.0
C872 C 0.80179 0.71773 0.8017 0.0
C873 C 0.79022 0.72642 0.79316 0.0
C874 C 0.79973 0.80447 0.74889 0.0
C875 C 0.83848 0.78866 0.77564 0.0
O876 O 0.82849 0.84519 0.80748 0.0
O877 O 0.8354 0.84417 0.77949 0.0
O878 O 0.83172 0.80901 0.81115 0.0
O879 O 0.8055 0.79756 0.80064 0.0
O880 O 0.79436 0.82506 0.78533 0.0
O881 O 0.77728 0.7942 0.78296 0.0
O882 O 0.79057 0.75441 0.75617 0.0
O883 O 0.7811 0.75808 0.78283 0.0
O884 O 0.78582 0.79106 0.7497 0.0
O885 O 0.81191 0.80345 0.7607 0.0
O886 O 0.82324 0.77634 0.77577 0.0
O887 O 0.84029 0.80721 0.77811 0.0
H888 H 0.84178 0.88755 0.8202 0.0
H889 H 0.82843 0.9143 0.81932 0.0
H890 H 0.79947 0.88647 0.76581 0.0
H891 H 0.81258 0.85984 0.76678 0.0
H892 H 0.80785 0.73019 0.75275 0.0
H893 H 0.82798 0.71509 0.76763 0.0
H894 H 0.80012 0.71454 0.81547 0.0
H895 H 0.78014 0.73015 0.80075 0.0
La896 La 0.54088 0.53765 0.52401 0.0
La897 La 0.57689 0.56183 0.54399 0.0
C898 C 0.50862 0.52133 0.51774 0.0
C899 C 0.49301 0.52728 0.5222 0.0
C900 C 0.47634 0.51498 0.51598 0.0
C901 C 0.46141 0.52124 0.51893 0.0
C902 C 0.46302 0.53989 0.52817 0.0
C903 C 0.47981 0.552 0.53475 0.0
C904 C 0.49467 0.54575 0.53173 0.0
C905 C 0.56469 0.53891 0.49923 0.0
C906 C 0.55135 0.58254 0.52509 0.0
C907 C 0.60911 0.57823 0.54903 0.0
C908 C 0.62355 0.57378 0.53983 0.0
C909 C 0.64005 0.5869 0.54272 0.0
C910 C 0.65372 0.58254 0.53376 0.0
C911 C 0.651 0.56499 0.52176 0.0
C912 C 0.6343 0.552 0.51881 0.0
C913 C 0.62072 0.55637 0.52775 0.0
C914 C 0.55307 0.56111 0.56871 0.0
C915 C 0.5666 0.51663 0.54215 0.0
O916 O 0.51732 0.53071 0.50618 0.0
O917 O 0.51894 0.5194 0.53186 0.0
O918 O 0.54838 0.52933 0.49628 0.0
O919 O 0.56705 0.54646 0.5164 0.0
O920 O 0.5385 0.56668 0.52314 0.0
O921 O 0.56757 0.58343 0.5318 0.0
O922 O 0.60166 0.56565 0.55883 0.0
O923 O 0.59761 0.58343 0.53848 0.0
O924 O 0.56958 0.57 0.57187 0.0
O925 O 0.55073 0.55342 0.55158 0.0
O926 O 0.57929 0.53267 0.54426 0.0
O927 O 0.55033 0.51557 0.53539 0.0
H928 H 0.47488 0.50069 0.50854 0.0
H929 H 0.44864 0.51156 0.51386 0.0
H930 H 0.48148 0.56653 0.54166 0.0
H931 H 0.50748 0.55549 0.53645 0.0
H932 H 0.64237 0.60048 0.55191 0.0
H933 H 0.66637 0.59292 0.53617 0.0
H934 H 0.6318 0.53824 0.50991 0.0
H935 H 0.60798 0.54612 0.52527 0.0
La936 La 0.07988 0.55469 0.02911 0.0
La937 La 0.04015 0.54813 0.01972 0.0
C938 C 0.11019 0.55292 0.04118 0.0
C939 C 0.12173 0.53973 0.04074 0.0
C940 C 0.1283 0.53375 0.02441 0.0
C941 C 0.14097 0.52341 0.02484 0.0
C942 C 0.14745 0.51884 0.04161 0.0
C943 C 0.14037 0.52425 0.05779 0.0
C944 C 0.12771 0.53458 0.05736 0.0
C945 C 0.06908 0.56281 0.99723 0.0
C946 C 0.05536 0.51311 1.01015 0.0
C947 C 1.00993 0.54983 1.00732 0.0
C948 C 0.99717 0.56146 1.01009 0.0
C949 C 0.9818 0.55395 0.01757 0.0
C950 C 0.96867 0.56358 0.01855 0.0
C951 C 0.97045 0.58097 1.01193 0.0
C952 C 0.98604 0.58875 1.00484 0.0
C953 C 0.99922 0.57909 1.00387 0.0
C954 C 0.05089 0.54054 0.05193 0.0
C955 C 0.06472 0.5899 0.03872 0.0
O956 O 0.10648 0.55917 0.02588 0.0
O957 O 0.09669 0.54918 0.05031 0.0
O958 O 0.08376 0.57217 1.00728 0.0
O959 O 0.06172 0.54898 1.00454 0.0
O960 O 0.07021 0.52342 0.02039 0.0
O961 O 0.04249 0.52083 1.00559 0.0
O962 O 0.01297 0.54023 0.0204 0.0
O963 O 0.02419 0.55712 1.00034 0.0
O964 O 0.03605 0.53134 0.04213 0.0
O965 O 0.0583 0.55401 0.04425 0.0
O966 O 0.04947 0.57929 0.02944 0.0
O967 O 0.07807 0.58256 0.04239 0.0
H968 H 0.12408 0.53754 1.01137 0.0
H969 H 0.14617 0.51966 1.01213 0.0
H970 H 0.14479 0.52072 0.0709 0.0
H971 H 0.12294 0.53901 0.07017 0.0
H972 H 0.97974 0.54034 0.02233 0.0
H973 H 0.95702 0.55729 0.0244 0.0
H974 H 0.98783 0.602 0.99945 0.0
H975 H 1.01081 0.58522 0.99783 0.0
H976 H 1.0112 0.23569 0.96696 0.0
H977 H 0.01428 0.20935 0.98296 0.0
H978 H 0.03644 0.18548 0.93677 0.0
H979 H 0.03292 0.21137 0.92049 0.0
H980 H 0.01356 0.15802 0.94826 0.0
H981 H 0.05803 0.20263 1.00964 0.0
H982 H 0.03762 0.20876 1.00621 0.0
H983 H 0.05259 0.21219 0.98927 0.0
C984 C 0.01676 0.22485 0.96021 0.0
C985 C 0.02186 0.22577 0.94242 0.0
C986 C 0.01864 0.20983 0.96945 0.0
C987 C 0.02592 0.19552 0.96129 0.0
C988 C 0.03084 0.19631 0.94346 0.0
H989 H 0.07039 0.11701 0.01487 0.0
H990 H 0.06434 0.14344 1.00104 0.0
C991 C 0.02883 0.2112 0.93415 0.0
C992 C 0.02823 0.17954 0.97105 0.0
H993 H 0.04746 0.16965 1.01076 0.0
C994 C 0.02097 0.16059 0.96193 0.0
C995 C 0.03809 0.18278 0.98883 0.0
C996 C 0.04718 0.20268 0.999 0.0
C997 C 0.0233 0.14491 0.96998 0.0
C998 C 0.03278 0.14814 0.98796 0.0
C999 C 0.04002 0.16708 0.99709 0.0
C1000 C 0.03616 0.13216 0.99711 0.0
C1001 C 0.01609 0.12507 0.95881 0.0
C1002 C 0.02236 0.11706 0.99997 0.0
C1003 C 0.0258 0.10174 1.00778 0.0
C1004 C 0.04313 0.10131 0.0132 0.0
C1005 C 0.05688 0.11679 1.01092 0.0
C1006 C 0.05343 0.13198 1.00297 0.0
H1007 H 0.01356 0.12539 0.94375 0.0
H1008 H 0.02523 0.11606 0.96082 0.0
H1009 H 1.00347 0.11822 0.96339 0.0
H1010 H 1.0089 0.11704 0.99608 0.0
H1011 H 0.01487 0.09018 1.00945 0.0
H1012 H 0.13013 0.8246 0.19574 0.0
H1013 H 0.15757 0.82347 0.21285 0.0
H1014 H 0.1845 0.83622 0.16598 0.0
H1015 H 0.15715 0.83777 0.14887 0.0
H1016 H 0.17695 0.79883 0.2041 0.0
H1017 H 0.21782 0.87283 0.20787 0.0
H1018 H 0.19441 0.86612 0.20117 0.0
H1019 H 0.20872 0.86093 0.1847 0.0
C1020 C 0.14193 0.82751 0.18914 0.0
C1021 C 0.14136 0.83135 0.17088 0.0
C1022 C 0.15764 0.82677 0.19895 0.0
C1023 C 0.17322 0.8299 0.19083 0.0
C1024 C 0.17279 0.83414 0.17275 0.0
H1025 H 0.2633 0.79071 0.23247 0.0
H1026 H 0.23844 0.7953 0.21297 0.0
C1027 C 0.15708 0.83496 0.16293 0.0
C1028 C 0.18955 0.82757 0.20093 0.0
H1029 H 0.23232 0.85049 0.21762 0.0
C1030 C 0.18905 0.81016 0.20705 0.0
C1031 C 0.20536 0.84235 0.20492 0.0
C1032 C 0.20664 0.86168 0.19949 0.0
C1033 C 0.20379 0.80711 0.21703 0.0
C1034 C 0.21969 0.82175 0.22075 0.0
C1035 C 0.22022 0.83919 0.21463 0.0
C1036 C 0.23559 0.8196 0.23181 0.0
C1037 C 0.20202 0.7884 0.22397 0.0
C1038 C 0.24277 0.83212 0.24856 0.0
C1039 C 0.25708 0.82964 0.2596 0.0
C1040 C 0.26459 0.8146 0.25412 0.0
C1041 C 0.25774 0.80237 0.23711 0.0
C1042 C 0.24345 0.80491 0.22602 0.0
H1043 H 0.18809 0.78074 0.22398 0.0
H1044 H 0.2079 0.77904 0.21475 0.0
H1045 H 0.20897 0.7907 0.23824 0.0
H1046 H 0.23703 0.84361 0.25333 0.0
H1047 H 0.26212 0.83937 0.27258 0.0
H1048 H 0.54395 0.82871 0.4715 0.0
H1049 H 0.54819 0.86186 0.48695 0.0
H1050 H 0.52368 0.8747 0.43735 0.0
H1051 H 0.51936 0.84193 0.42189 0.0
H1052 H 0.55751 0.90042 0.45279 0.0
H1053 H 0.51053 0.88972 0.50454 0.0
H1054 H 0.52551 0.87489 0.50319 0.0
H1055 H 0.50889 0.87217 0.48406 0.0
C1056 C 0.53928 0.83853 0.46396 0.0
C1057 C 0.53134 0.83256 0.44541 0.0
C1058 C 0.54168 0.85746 0.47282 0.0
C1059 C 0.53619 0.87073 0.4633 0.0
C1060 C 0.52802 0.86472 0.44496 0.0
H1061 H 0.52417 0.98473 0.49375 0.0
H1062 H 0.52059 0.95066 0.4827 0.0
C1063 C 0.52555 0.8459 0.43616 0.0
C1064 C 0.53956 0.89114 0.47191 0.0
H1065 H 0.52692 0.92135 0.50459 0.0
C1066 C 0.55093 0.905 0.46421 0.0
C1067 C 0.53082 0.89707 0.48668 0.0
C1068 C 0.51815 0.88277 0.49511 0.0
C1069 C 0.55374 0.92462 0.4708 0.0
C1070 C 0.54499 0.93057 0.48555 0.0
C1071 C 0.53366 0.91673 0.49333 0.0
C1072 C 0.54715 0.95114 0.49271 0.0
C1073 C 0.56569 0.93889 0.46163 0.0
C1074 C 0.56325 0.96269 0.50211 0.0
C1075 C 0.56535 0.98217 0.50847 0.0
C1076 C 0.55139 0.99052 0.50551 0.0
C1077 C 0.53524 0.97884 0.49616 0.0
C1078 C 0.53313 0.95933 0.48991 0.0
H1079 H 0.56889 0.93211 0.44833 0.0
H1080 H 0.55959 0.95049 0.45891 0.0
H1081 H 0.57811 0.94548 0.47104 0.0
H1082 H 0.57419 0.95663 0.50456 0.0
H1083 H 0.57795 0.99065 0.5157 0.0
H1084 H 0.54151 0.33583 0.66606 0.0
H1085 H 0.51412 0.33459 0.67943 0.0
H1086 H 0.52605 0.29541 0.71395 0.0
H1087 H 0.55336 0.29661 0.70079 0.0
H1088 H 0.48606 0.30129 0.67871 0.0
H1089 H 0.51385 0.33647 0.75089 0.0
H1090 H 0.52653 0.33835 0.73172 0.0
H1091 H 0.52257 0.3171 0.74199 0.0
C1092 C 0.5384 0.32714 0.67666 0.0
C1093 C 0.5497 0.31639 0.6824 0.0
C1094 C 0.52271 0.32639 0.68424 0.0
C1095 C 0.5181 0.31506 0.69784 0.0
C1096 C 0.52944 0.3045 0.70371 0.0
H1097 H 0.4295 0.2892 0.76049 0.0
H1098 H 0.45653 0.29015 0.74664 0.0
C1099 C 0.54505 0.30516 0.6961 0.0
C1100 C 0.50113 0.31364 0.7054 0.0
H1101 H 0.48335 0.32147 0.74553 0.0
C1102 C 0.48546 0.30581 0.6933 0.0
C1103 C 0.50034 0.31938 0.72446 0.0
C1104 C 0.5167 0.32845 0.73803 0.0
C1105 C 0.46904 0.30326 0.69978 0.0
C1106 C 0.46823 0.30908 0.71885 0.0
C1107 C 0.48393 0.31693 0.73094 0.0
C1108 C 0.45127 0.30756 0.72651 0.0
C1109 C 0.45274 0.29387 0.6862 0.0
C1110 C 0.43923 0.31696 0.71982 0.0
C1111 C 0.42369 0.31628 0.72759 0.0
C1112 C 0.41985 0.30636 0.74241 0.0
C1113 C 0.43186 0.29676 0.74896 0.0
C1114 C 0.44741 0.29743 0.74114 0.0
H1115 H 0.45565 0.2852 0.67378 0.0
H1116 H 0.44268 0.2845 0.69272 0.0
H1117 H 0.44715 0.30508 0.68142 0.0
H1118 H 0.442 0.32518 0.7088 0.0
H1119 H 0.41472 0.32369 0.72203 0.0
H1120 H 1.00792 0.78955 0.59416 0.0
H1121 H 1.00383 0.81708 0.5811 0.0
H1122 H 0.97368 0.83043 0.62466 0.0
H1123 H 0.9779 0.80276 0.63808 0.0
H1124 H 0.97271 0.82707 0.56882 0.0
H1125 H 0.0141 0.87963 0.6284 0.0
H1126 H 0.01417 0.85477 0.62487 0.0
H1127 H 0.99579 0.86178 0.63321 0.0
C1128 C 1.00031 0.79822 0.60095 0.0
C1129 C 0.99335 0.79406 0.61726 0.0
C1130 C 0.99793 0.81393 0.59341 0.0
C1131 C 0.98862 0.82588 0.60201 0.0
C1132 C 0.9811 0.82148 0.61795 0.0
H1133 H 0.99796 0.93717 0.5652 0.0
H1134 H 0.98608 0.91054 0.58117 0.0
C1135 C 0.98345 0.80564 0.62554 0.0
C1136 C 0.98772 0.84333 0.59445 0.0
H1137 H 1.00663 0.8914 0.60168 0.0
C1138 C 0.97979 0.84121 0.57614 0.0
C1139 C 0.99689 0.86176 0.60408 0.0
C1140 C 1.00582 0.86478 0.6237 0.0
C1141 C 0.9817 0.85685 0.56682 0.0
C1142 C 0.992 0.875 0.57597 0.0
C1143 C 0.99879 0.87742 0.59472 0.0
C1144 C 0.99797 0.89083 0.56566 0.0
C1145 C 0.9733 0.85369 0.54698 0.0
C1146 C 1.00871 0.88858 0.55186 0.0
C1147 C 0.01568 0.90374 0.54293 0.0
C1148 C 1.01204 0.92153 0.54758 0.0
C1149 C 1.00112 0.92371 0.56135 0.0
C1150 C 0.99423 0.9085 0.57041 0.0
H1151 H 0.96164 0.84117 0.54403 0.0
H1152 H 0.9693 0.86649 0.54378 0.0
H1153 H 0.98286 0.85082 0.53757 0.0
H1154 H 1.01215 0.87522 0.54836 0.0
H1155 H 0.02438 0.90164 0.53277 0.0
H1156 H 0.5525 0.82807 0.83376 0.0
H1157 H 0.52111 0.81466 0.82423 0.0
H1158 H 0.51858 0.78034 0.86741 0.0
H1159 H 0.55014 0.79366 0.87708 0.0
H1160 H 0.4974 0.77372 0.81545 0.0
H1161 H 0.48814 0.81998 0.87899 0.0
H1162 H 0.50878 0.8242 0.86977 0.0
H1163 H 0.50196 0.80411 0.88124 0.0
C1164 C 0.54536 0.81739 0.84101 0.0
C1165 C 0.55371 0.8121 0.85633 0.0
C1166 C 0.52746 0.80967 0.83548 0.0
C1167 C 0.5176 0.79666 0.84522 0.0
C1168 C 0.52604 0.79042 0.85978 0.0
H1169 H 0.4059 0.78981 0.83909 0.0
H1170 H 0.43322 0.78145 0.8476 0.0
C1171 C 0.54403 0.79804 0.86527 0.0
C1172 C 0.49834 0.7918 0.84153 0.0
H1173 H 0.46374 0.80627 0.85673 0.0
C1174 C 0.48989 0.78046 0.82461 0.0
C1175 C 0.48866 0.80054 0.85361 0.0
C1176 C 0.49724 0.81296 0.87192 0.0
C1177 C 0.47206 0.77836 0.81904 0.0
C1178 C 0.4627 0.78835 0.83048 0.0
C1179 C 0.47093 0.79866 0.84793 0.0
C1180 C 0.44519 0.79037 0.82388 0.0
C1181 C 0.46356 0.7658 0.8008 0.0
C1182 C 0.44279 0.79801 0.80767 0.0
C1183 C 0.42722 0.8027 0.80277 0.0
C1184 C 0.41387 0.80015 0.81417 0.0
C1185 C 0.41607 0.79207 0.83016 0.0
C1186 C 0.4316 0.78718 0.83495 0.0
H1187 H 0.46974 0.75388 0.79763 0.0
H1188 H 0.44931 0.75973 0.80083 0.0
H1189 H 0.46542 0.77438 0.78951 0.0
H1190 H 0.45328 0.80123 0.79924 0.0
H1191 H 0.42596 0.80915 0.79051 0.0
H1192 H 0.49222 0.17388 0.1492 0.0
H1193 H 0.49458 0.1461 0.12774 0.0
H1194 H 0.4931 0.17715 0.08228 0.0
H1195 H 0.49093 0.20503 0.10355 0.0
H1196 H 0.47508 0.12369 0.09219 0.0
H1197 H 0.54235 0.16641 0.08721 0.0
H1198 H 0.52971 0.17323 0.10493 0.0
H1199 H 0.52512 0.17741 0.08172 0.0
C1200 C 0.49198 0.17467 0.13457 0.0
C1201 C 0.49172 0.19178 0.12812 0.0
C1202 C 0.49331 0.15878 0.12234 0.0
C1203 C 0.49434 0.15979 0.10355 0.0
C1204 C 0.49259 0.17626 0.09682 0.0
H1205 H 0.50281 0.06682 0.01845 0.0
H1206 H 0.49255 0.09187 0.03635 0.0
C1207 C 0.49134 0.19216 0.10901 0.0
C1208 C 0.49926 0.14458 0.09146 0.0
H1209 H 0.53267 0.13596 0.0686 0.0
C1210 C 0.48765 0.12628 0.08699 0.0
C1211 C 0.51575 0.14807 0.08493 0.0
C1212 C 0.52905 0.16728 0.09003 0.0
C1213 C 0.4921 0.11129 0.07601 0.0
C1214 C 0.50855 0.11486 0.06926 0.0
C1215 C 0.52008 0.13323 0.07376 0.0
C1216 C 0.51456 0.09974 0.05817 0.0
C1217 C 0.47916 0.09184 0.07201 0.0
C1218 C 0.53068 0.09642 0.06405 0.0
C1219 C 0.53674 0.08252 0.05363 0.0
C1220 C 0.52667 0.07151 0.03728 0.0
C1221 C 0.51072 0.07505 0.03113 0.0
C1222 C 0.50477 0.08918 0.04144 0.0
H1223 H 0.47095 0.08968 0.08339 0.0
H1224 H 0.47029 0.09079 0.05912 0.0
H1225 H 0.48569 0.08012 0.07001 0.0
H1226 H 0.53856 0.10453 0.07681 0.0
H1227 H 0.54927 0.08036 0.0584 0.0
H1228 H 0.15864 0.36248 0.37884 0.0
H1229 H 0.18417 0.37238 0.36257 0.0
H1230 H 0.16627 0.31976 0.3232 0.0
H1231 H 0.14085 0.31002 0.33899 0.0
H1232 H 0.20906 0.3536 0.35935 0.0
H1233 H 0.18115 0.35713 0.28903 0.0
H1234 H 0.16871 0.35751 0.30842 0.0
H1235 H 0.17 0.33512 0.29554 0.0
C1236 C 0.16002 0.35324 0.36649 0.0
C1237 C 0.1478 0.33544 0.36023 0.0
C1238 C 0.17455 0.35893 0.3572 0.0
C1239 C 0.17692 0.34699 0.34145 0.0
C1240 C 0.16445 0.32949 0.33496 0.0
H1241 H 0.24656 0.30117 0.28983 0.0
H1242 H 0.22267 0.31291 0.30136 0.0
C1243 C 0.15001 0.32382 0.34418 0.0
C1244 C 0.19343 0.35119 0.33315 0.0
H1245 H 0.20839 0.34671 0.2911 0.0
C1246 C 0.20908 0.3528 0.34449 0.0
C1247 C 0.19346 0.35029 0.31379 0.0
C1248 C 0.17742 0.35014 0.30106 0.0
C1249 C 0.22432 0.35152 0.33678 0.0
C1250 C 0.22379 0.3486 0.31729 0.0
C1251 C 0.20863 0.34872 0.30605 0.0
C1252 C 0.23782 0.34243 0.30845 0.0
C1253 C 0.24048 0.35167 0.34934 0.0
C1254 C 0.25407 0.35529 0.30836 0.0
C1255 C 0.2678 0.34864 0.30177 0.0
C1256 C 0.26542 0.32901 0.29529 0.0
C1257 C 0.24887 0.31633 0.29484 0.0
C1258 C 0.23519 0.32301 0.30132 0.0
H1259 H 0.23857 0.35358 0.36422 0.0
H1260 H 0.24414 0.33806 0.34568 0.0
H1261 H 0.2516 0.36347 0.34735 0.0
H1262 H 0.25623 0.37033 0.31381 0.0
H1263 H 0.28038 0.35881 0.3023 0.0
H1264 H 0.99015 0.06741 0.22915 0.0
H1265 H 1.00403 0.06609 0.2006 0.0
H1266 H 0.95639 0.06884 0.16957 0.0
H1267 H 0.94294 0.07122 0.19812 0.0
H1268 H 1.00253 0.04462 0.1706 0.0
H1269 H 0.98512 0.10537 0.1448 0.0
H1270 H 0.98119 0.10031 0.16752 0.0
H1271 H 0.96579 0.08777 0.14735 0.0
C1272 C 0.98262 0.06805 0.21634 0.0
C1273 C 0.96525 0.06979 0.21656 0.0
C1274 C 0.99066 0.06718 0.19969 0.0
C1275 C 0.98181 0.06786 0.18219 0.0
C1276 C 0.96429 0.06913 0.18243 0.0
H1277 H 1.01196 0.05068 0.0649 0.0
H1278 H 0.99519 0.05106 0.09181 0.0
C1279 C 0.95637 0.07031 0.19908 0.0
C1280 C 0.99061 0.06665 0.16401 0.0
H1281 H 0.99599 0.08511 0.1233 0.0
C1282 C 1.00101 0.05367 0.16046 0.0
C1283 C 0.98918 0.07822 0.15006 0.0
C1284 C 0.97989 0.09383 0.15269 0.0
C1285 C 1.00943 0.05184 0.14409 0.0
C1286 C 1.00773 0.06315 0.13011 0.0
C1287 C 0.99731 0.07605 0.13348 0.0
C1288 C 0.01772 0.06274 0.11289 0.0
C1289 C 0.02015 0.03754 0.14178 0.0
C1290 C 0.03614 0.06921 0.11498 0.0
C1291 C 0.04568 0.06928 0.09955 0.0
C1292 C 0.03753 0.06264 0.08097 0.0
C1293 C 0.01902 0.05592 0.0787 0.0
C1294 C 1.00933 0.05618 0.09431 0.0
H1295 H 0.01728 0.02704 0.15133 0.0
H1296 H 0.01767 0.02971 0.12728 0.0
H1297 H 0.03426 0.04521 0.14481 0.0
H1298 H 0.04331 0.07454 0.12875 0.0
H1299 H 0.0598 0.07466 0.10233 0.0
H1300 H 0.33606 0.66438 0.48413 0.0
H1301 H 0.34763 0.67483 0.45625 0.0
H1302 H 0.31843 0.71729 0.45919 0.0
H1303 H 0.30692 0.7071 0.48665 0.0
H1304 H 0.32695 0.67552 0.42212 0.0
H1305 H 0.36825 0.7474 0.4532 0.0
H1306 H 0.36194 0.72859 0.46667 0.0
H1307 H 0.34735 0.74302 0.46154 0.0
C1308 C 0.33227 0.67605 0.47887 0.0
C1309 C 0.32059 0.68493 0.48755 0.0
C1310 C 0.3389 0.68199 0.46301 0.0
C1311 C 0.33413 0.69706 0.45595 0.0
C1312 C 0.32257 0.70593 0.46469 0.0
H1313 H 0.29866 0.7321 0.36605 0.0
H1314 H 0.30748 0.71286 0.38758 0.0
C1315 C 0.31589 0.69996 0.48031 0.0
C1316 C 0.3399 0.70301 0.43867 0.0
H1317 H 0.35386 0.7441 0.42156 0.0
C1318 C 0.33338 0.69036 0.4219 0.0
C1319 C 0.34871 0.7222 0.43838 0.0
C1320 C 0.35714 0.73602 0.45595 0.0
C1321 C 0.33353 0.69705 0.40493 0.0
C1322 C 0.34002 0.71685 0.40495 0.0
C1323 C 0.34855 0.72895 0.42151 0.0
C1324 C 0.33532 0.72586 0.38911 0.0
C1325 C 0.32585 0.683 0.38732 0.0
C1326 C 0.34799 0.73971 0.38281 0.0
C1327 C 0.34291 0.75098 0.37066 0.0
C1328 C 0.32507 0.74858 0.36465 0.0
C1329 C 0.3125 0.73409 0.37023 0.0
C1330 C 0.31757 0.72295 0.38245 0.0
H1331 H 0.32864 0.66901 0.38818 0.0
H1332 H 0.31141 0.68053 0.38542 0.0
H1333 H 0.33108 0.6883 0.37499 0.0
H1334 H 0.36175 0.74232 0.38789 0.0
H1335 H 0.35288 0.76193 0.36638 0.0
H1336 H 0.64294 0.9916 0.68476 0.0
H1337 H 0.62361 0.98385 0.65524 0.0
H1338 H 0.59393 0.02181 0.67746 0.0
H1339 H 0.61254 0.02889 0.70707 0.0
H1340 H 0.57311 0.99168 0.65404 0.0
H1341 H 0.63214 0.02322 0.62202 0.0
H1342 H 0.63243 1.00215 0.63167 0.0
H1343 H 0.63284 0.02395 0.64668 0.0
C1344 C 0.63205 0.99796 0.68344 0.0
C1345 C 0.62946 1.01116 0.6981 0.0
C1346 C 0.62109 0.99359 0.66655 0.0
C1347 C 0.60769 1.00271 0.66399 0.0
C1348 C 0.60426 1.01468 0.67909 0.0
H1349 H 0.57332 0.05683 0.58205 0.0
H1350 H 0.58683 0.04444 0.60713 0.0
C1351 C 0.61498 0.01878 0.69602 0.0
C1352 C 0.59842 1.00183 0.64537 0.0
H1353 H 0.60498 0.01746 0.60436 0.0
C1354 C 0.58003 0.99699 0.643 0.0
C1355 C 0.60755 1.00884 0.63105 0.0
C1356 C 0.62732 1.01498 0.63293 0.0
C1357 C 0.57056 1.00032 0.62733 0.0
C1358 C 0.57977 1.00815 0.61345 0.0
C1359 C 0.59804 1.01156 0.61514 0.0
C1360 C 0.57113 1.01523 0.59832 0.0
C1361 C 0.55094 0.99671 0.6264 0.0
C1362 C 0.55778 1.00292 0.58514 0.0
C1363 C 0.54988 1.01008 0.57099 0.0
C1364 C 0.55549 0.02952 0.56968 0.0
C1365 C 0.56883 0.04178 0.58283 0.0
C1366 C 0.57656 0.0347 0.59706 0.0
H1367 H 0.54632 0.99408 0.63985 0.0
H1368 H 0.54666 1.00904 0.62234 0.0
H1369 H 0.5445 0.98393 0.61577 0.0
H1370 H 0.55365 0.9878 0.58566 0.0
H1371 H 0.53971 1.00034 0.56082 0.0
H1372 H 0.33039 0.34618 0.99542 0.0
H1373 H 0.3274 0.334 0.96218 0.0
H1374 H 0.29762 0.37379 0.95077 0.0
H1375 H 0.30063 0.38618 0.98407 0.0
H1376 H 0.29779 0.31773 0.93515 0.0
H1377 H 0.33816 0.38564 0.91934 0.0
H1378 H 0.33753 0.3807 0.94269 0.0
H1379 H 0.31986 0.3879 0.93133 0.0
C1380 C 0.32306 0.35226 0.98588 0.0
C1381 C 0.31582 0.36725 0.99247 0.0
C1382 C 0.32137 0.34526 0.96685 0.0
C1383 C 0.31254 0.35317 0.9539 0.0
C1384 C 0.30476 0.36768 0.96045 0.0
H1385 H 0.28146 0.3082 0.83547 0.0
H1386 H 0.28205 0.31818 0.86878 0.0
C1387 C 0.30639 0.37465 0.97952 0.0
C1388 C 0.31186 0.34648 0.93361 0.0
H1389 H 0.32496 0.36118 0.89377 0.0
C1390 C 0.30369 0.32724 0.9261 0.0
C1391 C 0.3198 0.3588 0.9218 0.0
C1392 C 0.32948 0.37938 0.92916 0.0
C1393 C 0.30306 0.32007 0.90713 0.0
C1394 C 0.31068 0.33249 0.89525 0.0
C1395 C 0.31902 0.35167 0.90281 0.0
C1396 C 0.31028 0.32586 0.87499 0.0
C1397 C 0.29456 0.29915 0.90002 0.0
C1398 C 0.32596 0.32706 0.86723 0.0
C1399 C 0.32569 0.32137 0.84812 0.0
C1400 C 0.30971 0.31451 0.83626 0.0
C1401 C 0.29402 0.31331 0.84411 0.0
C1402 C 0.29432 0.31893 0.86323 0.0
H1403 H 0.29329 0.29069 0.91147 0.0
H1404 H 0.28123 0.29747 0.89286 0.0
H1405 H 0.30218 0.29313 0.88991 0.0
H1406 H 0.33845 0.33244 0.87599 0.0
H1407 H 0.33804 0.32261 0.84264 0.0
H1408 H 0.9861 0.0327 0.3177 0.0
H1409 H 0.99892 0.03076 0.3488 0.0
H1410 H 0.99077 0.08539 0.36986 0.0
H1411 H 0.97742 0.08701 0.33891 0.0
H1412 H 0.02605 0.04833 0.3724 0.0
H1413 H 0.9711 0.05962 0.40936 0.0
H1414 H 0.96944 0.05611 0.38442 0.0
H1415 H 0.97983 0.07934 0.39808 0.0
C1416 C 0.98697 0.04436 0.32891 0.0
C1417 C 0.98047 0.06 0.32536 0.0
C1418 C 0.9944 0.04323 0.34694 0.0
C1419 C 0.99569 0.05765 0.36244 0.0
C1420 C 0.9896 0.07355 0.35877 0.0
H1421 H 0.04005 0.07572 0.48255 0.0
H1422 H 0.02783 0.07908 0.45158 0.0
C1423 C 0.98205 0.07461 0.34075 0.0
C1424 C 1.00361 0.05614 0.38204 0.0
H1425 H 0.99733 0.06068 0.42827 0.0
C1426 C 0.01957 0.05095 0.38449 0.0
C1427 C 0.9956 0.05947 0.39841 0.0
C1428 C 0.97797 0.06375 0.39746 0.0
C1429 C 0.02763 0.0494 0.40219 0.0
C1430 C 0.01965 0.05281 0.41852 0.0
C1431 C 1.00376 0.05808 0.41614 0.0
C1432 C 0.0274 0.05074 0.43794 0.0
C1433 C 0.04501 0.04456 0.40322 0.0
C1434 C 0.03131 0.03365 0.44141 0.0
C1435 C 0.03829 0.03166 0.4593 0.0
C1436 C 0.04176 0.04665 0.47473 0.0
C1437 C 0.03779 0.06376 0.4713 0.0
C1438 C 0.03066 0.06569 0.45338 0.0
H1439 H 0.05188 0.04804 0.39114 0.0
H1440 H 0.05369 0.05235 0.41613 0.0
H1441 H 0.04278 0.02899 0.40315 0.0
H1442 H 0.02871 0.02155 0.43026 0.0
H1443 H 0.0409 0.01815 0.46102 0.0
H1444 H 0.30929 0.72586 0.56583 0.0
H1445 H 0.31488 0.75397 0.59016 0.0
H1446 H 0.32924 0.72138 0.63059 0.0
H1447 H 0.32379 0.69329 0.60645 0.0
H1448 H 0.297 0.7554 0.62086 0.0
H1449 H 0.36817 0.77149 0.64305 0.0
H1450 H 0.35776 0.75706 0.62097 0.0
H1451 H 0.35753 0.74662 0.64172 0.0
C1452 C 0.31388 0.72474 0.57986 0.0
C1453 C 0.31604 0.7073 0.58423 0.0
C1454 C 0.3171 0.74083 0.59371 0.0
C1455 C 0.32275 0.73982 0.61208 0.0
C1456 C 0.32528 0.72258 0.6164 0.0
H1457 H 0.30552 0.77158 0.71684 0.0
H1458 H 0.30561 0.76108 0.68395 0.0
C1459 C 0.32199 0.70647 0.60261 0.0
C1460 C 0.32416 0.75597 0.62719 0.0
H1461 H 0.35076 0.78138 0.66631 0.0
C1462 C 0.30889 0.76152 0.63052 0.0
C1463 C 0.33974 0.76419 0.63961 0.0
C1464 C 0.35677 0.75968 0.63605 0.0
C1465 C 0.30837 0.77364 0.64692 0.0
C1466 C 0.32345 0.7802 0.66023 0.0
C1467 C 0.33917 0.77618 0.65609 0.0
C1468 C 0.32227 0.78787 0.67961 0.0
C1469 C 0.29141 0.77836 0.65043 0.0
C1470 C 0.33171 0.80644 0.68806 0.0
C1471 C 0.33149 0.81262 0.70698 0.0
C1472 C 0.32212 0.80012 0.71759 0.0
C1473 C 0.31265 0.78163 0.70897 0.0
C1474 C 0.31266 0.7756 0.69016 0.0
H1475 H 0.28301 0.77744 0.63721 0.0
H1476 H 0.2841 0.76795 0.65838 0.0
H1477 H 0.29385 0.79292 0.65866 0.0
H1478 H 0.33938 0.81599 0.68011 0.0
H1479 H 0.339 0.82691 0.71337 0.0
H1480 H 0.66735 0.0158 0.80121 0.0
H1481 H 0.66118 1.00753 0.83155 0.0
H1482 H 0.62076 0.03737 0.83168 0.0
H1483 H 0.62677 0.0457 0.80145 0.0
H1484 H 0.66097 0.0335 0.86627 0.0
H1485 H 0.59691 0.98161 0.83926 0.0
H1486 H 0.6134 0.98927 0.82456 0.0
H1487 H 0.59958 1.00429 0.83169 0.0
C1488 C 0.65715 0.0206 0.80771 0.0
C1489 C 0.64745 0.03129 0.79891 0.0
C1490 C 0.6537 0.01591 0.82502 0.0
C1491 C 0.64042 0.02168 0.83365 0.0
C1492 C 0.63093 0.03261 0.82506 0.0
H1493 H 0.60796 0.04051 0.93755 0.0
H1494 H 0.62514 0.04104 0.91179 0.0
C1495 C 0.6344 0.03738 0.80783 0.0
C1496 C 0.63618 0.01624 0.85159 0.0
H1497 H 0.60224 0.99307 0.8719 0.0
C1498 C 0.64826 0.0244 0.86755 0.0
C1499 C 0.61976 1.00405 0.85309 0.0
C1500 C 0.6067 0.99413 0.83622 0.0
C1501 C 0.64383 0.02165 0.88522 0.0
C1502 C 0.62684 1.01069 0.88682 0.0
C1503 C 0.61525 1.00154 0.8707 0.0
C1504 C 0.61991 1.01026 0.90483 0.0
C1505 C 0.65723 0.03084 0.90197 0.0
C1506 C 0.61141 0.99279 0.90968 0.0
C1507 C 0.60136 0.99245 0.92433 0.0
C1508 C 0.59969 1.00958 0.93437 0.0
C1509 C 0.6092 0.02707 0.93029 0.0
C1510 C 0.61912 0.02739 0.91557 0.0
H1511 H 0.67074 0.03228 0.89844 0.0
H1512 H 0.65599 0.04542 0.90691 0.0
H1513 H 0.65535 0.0225 0.91345 0.0
H1514 H 0.61178 0.9794 0.90151 0.0
H1515 H 0.59422 0.97879 0.92722 0.0
H1516 H 0.31412 0.3535 0.08582 0.0
H1517 H 0.31092 0.34003 0.11442 0.0
H1518 H 0.31368 0.39578 0.1448 0.0
H1519 H 0.31635 0.40917 0.11637 0.0
H1520 H 0.33211 0.34701 0.1467 0.0
H1521 H 0.2704 0.36488 0.16092 0.0
H1522 H 0.27883 0.36678 0.1391 0.0
H1523 H 0.28724 0.38556 0.15884 0.0
C1524 C 0.31387 0.36287 0.09856 0.0
C1525 C 0.31531 0.38242 0.09866 0.0
C1526 C 0.3121 0.35515 0.11495 0.0
C1527 C 0.31172 0.36678 0.13182 0.0
C1528 C 0.31342 0.38633 0.13196 0.0
H1529 H 0.32891 0.3349 0.24209 0.0
H1530 H 0.33246 0.34936 0.21401 0.0
C1531 C 0.31504 0.39401 0.11561 0.0
C1532 C 0.30991 0.35863 0.14932 0.0
H1533 H 0.28578 0.3552 0.18555 0.0
C1534 C 0.32192 0.34873 0.15514 0.0
C1535 C 0.29651 0.3606 0.16033 0.0
C1536 C 0.28241 0.36985 0.1544 0.0
C1537 C 0.32103 0.34101 0.17166 0.0
C1538 C 0.30802 0.34363 0.18302 0.0
C1539 C 0.29592 0.35336 0.17707 0.0
C1540 C 0.30605 0.33554 0.20056 0.0
C1541 C 0.33375 0.32965 0.17645 0.0
C1542 C 0.28987 0.32358 0.20284 0.0
C1543 C 0.28775 0.31568 0.219 0.0
C1544 C 0.30175 0.31946 0.23335 0.0
C1545 C 0.31788 0.33171 0.23129 0.0
C1546 C 0.31997 0.33979 0.21512 0.0
H1547 H 0.33939 0.32444 0.16406 0.0
H1548 H 0.34472 0.33891 0.1867 0.0
H1549 H 0.32734 0.31715 0.18261 0.0
H1550 H 0.27888 0.32009 0.19195 0.0
H1551 H 0.27513 0.30633 0.22013 0.0
H1552 H 0.26592 1.00615 0.01318 0.0
H1553 H 0.24588 0.02481 1.00505 0.0
H1554 H 0.22506 0.98444 0.95451 0.0
H1555 H 0.24494 0.96522 0.96283 0.0
H1556 H 0.23902 0.04241 0.97515 0.0
H1557 H 0.18233 0.98228 0.98168 0.0
H1558 H 0.2046 0.98228 0.98896 0.0
H1559 H 0.19631 0.97753 0.96471 0.0
C1560 C 0.25722 1.00127 1.00023 0.0
C1561 C 0.2568 0.98403 0.9888 0.0
C1562 C 0.24583 1.01205 0.99555 0.0
C1563 C 0.23381 1.00586 0.97933 0.0
C1564 C 0.23404 0.98926 0.96726 0.0
H1565 H 0.14128 0.04996 0.97732 0.0
H1566 H 0.16328 0.03656 0.96315 0.0
C1567 C 0.24542 0.97835 0.97201 0.0
C1568 C 0.22013 0.01602 0.97638 0.0
H1569 H 0.17699 1.01188 0.98028 0.0
C1570 C 0.22537 0.03567 0.97583 0.0
C1571 C 0.20231 1.00716 0.9772 0.0
C1572 C 0.19597 0.9862 0.97828 0.0
C1573 C 0.21347 0.04694 0.97733 0.0
C1574 C 0.19599 0.03832 0.97957 0.0
C1575 C 0.19044 0.01844 0.97856 0.0
C1576 C 0.18395 0.04967 0.9859 0.0
C1577 C 0.21989 0.06808 0.97727 0.0
C1578 C 0.18841 0.06183 1.00318 0.0
C1579 C 0.17587 0.06935 1.01137 0.0
C1580 C 0.15859 0.06471 1.00248 0.0
C1581 C 0.15444 0.05354 0.98462 0.0
C1582 C 0.16701 0.046 0.97645 0.0
H1583 H 0.23095 0.07118 0.96896 0.0
H1584 H 0.20926 0.07389 0.97161 0.0
H1585 H 0.22473 0.07564 0.9917 0.0
H1586 H 0.20127 0.06446 1.01095 0.0
H1587 H 0.17942 0.0777 0.02521 0.0
H1588 H 0.72939 0.6759 1.00276 0.0
H1589 H 0.69993 0.6561 1.00359 0.0
H1590 H 0.72054 0.60741 1.0074 0.0
H1591 H 0.75016 0.62727 1.00717 0.0
H1592 H 0.67877 0.6248 0.98235 0.0
H1593 H 0.69488 0.60829 0.05205 0.0
H1594 H 0.70969 0.62596 0.04223 0.0
H1595 H 0.70833 0.60096 0.03564 0.0
C1596 C 0.72769 0.66094 1.00364 0.0
C1597 C 0.74223 0.65326 1.00508 0.0
C1598 C 0.71079 0.64962 1.00413 0.0
C1599 C 0.708 0.63034 1.00602 0.0
C1600 C 0.72237 0.62238 1.00651 0.0
H1601 H 0.60606 0.54658 0.98855 0.0
H1602 H 0.63474 0.56681 0.98522 0.0
C1603 C 0.73932 0.63373 1.0062 0.0
C1604 C 0.69012 0.61874 1.00779 0.0
H1605 H 0.66701 0.59118 0.03569 0.0
C1606 C 0.6762 0.61749 0.99404 0.0
C1607 C 0.68662 0.6095 0.02324 0.0
C1608 C 0.70062 0.61138 0.03923 0.0
C1609 C 0.65901 0.60703 0.99514 0.0
C1610 C 0.65567 0.5971 1.01017 0.0
C1611 C 0.66955 0.5986 0.02406 0.0
C1612 C 0.63793 0.58511 1.01188 0.0
C1613 C 0.64454 0.60715 0.9804 0.0
C1614 C 0.63027 0.58825 0.02816 0.0
C1615 C 0.614 0.57646 0.03021 0.0
C1616 C 0.60501 0.56132 0.016 0.0
C1617 C 0.61261 0.55824 0.99968 0.0
C1618 C 0.62896 0.56991 0.9977 0.0
H1619 H 0.64812 0.61985 0.9735 0.0
H1620 H 0.64219 0.59422 0.96961 0.0
H1621 H 0.63216 0.60706 0.98631 0.0
H1622 H 0.63695 0.59977 0.03937 0.0
H1623 H 0.60862 0.57902 0.04306 0.0
H1624 H 0.73369 0.48706 0.24896 0.0
H1625 H 0.74726 0.46035 0.24758 0.0
H1626 H 0.72313 0.4434 0.2948 0.0
H1627 H 0.70983 0.47042 0.29642 0.0
H1628 H 0.75411 0.4376 0.29895 0.0
H1629 H 0.72929 0.40577 0.2259 0.0
H1630 H 0.74217 0.42997 0.22807 0.0
H1631 H 0.72186 0.42495 0.23786 0.0
C1632 C 0.73113 0.47768 0.25909 0.0
C1633 C 0.72034 0.48133 0.27277 0.0
C1634 C 0.73889 0.46201 0.25817 0.0
C1635 C 0.73621 0.44891 0.27078 0.0
C1636 C 0.72565 0.45276 0.28465 0.0
H1637 H 0.76159 0.33469 0.25128 0.0
H1638 H 0.74774 0.36131 0.2527 0.0
C1639 C 0.71788 0.46844 0.28557 0.0
C1640 C 0.74456 0.4317 0.26981 0.0
H1641 H 0.75128 0.39363 0.24025 0.0
C1642 C 0.75338 0.42809 0.286 0.0
C1643 C 0.74371 0.41846 0.25322 0.0
C1644 C 0.7336 0.41981 0.23532 0.0
C1645 C 0.76136 0.41255 0.28604 0.0
C1646 C 0.76115 0.3998 0.2693 0.0
C1647 C 0.75199 0.40314 0.25319 0.0
C1648 C 0.77001 0.38298 0.26828 0.0
C1649 C 0.76951 0.40971 0.3044 0.0
C1650 C 0.78755 0.38544 0.27616 0.0
C1651 C 0.79558 0.37001 0.27537 0.0
C1652 C 0.78664 0.35117 0.26649 0.0
C1653 C 0.76919 0.34871 0.25831 0.0
C1654 C 0.76115 0.36419 0.25911 0.0
H1655 H 0.76374 0.41607 0.31615 0.0
H1656 H 0.76779 0.39431 0.30499 0.0
H1657 H 0.78372 0.41693 0.3064 0.0
H1658 H 0.79531 0.3995 0.28285 0.0
H1659 H 0.80899 0.37296 0.28179 0.0
H1660 H 0.85365 0.48904 0.53587 0.0
H1661 H 0.88545 0.50071 0.54327 0.0
H1662 H 0.89132 0.44956 0.51032 0.0
H1663 H 0.8595 0.43752 0.50322 0.0
H1664 H 0.9121 0.45902 0.54398 0.0
H1665 H 0.91924 0.5223 0.50885 0.0
H1666 H 0.90454 0.52138 0.52605 0.0
H1667 H 0.89921 0.50341 0.5055 0.0
C1668 C 0.8617 0.48031 0.53011 0.0
C1669 C 0.85405 0.46239 0.51887 0.0
C1670 C 0.87987 0.48703 0.5343 0.0
C1671 C 0.89072 0.47612 0.52711 0.0
C1672 C 0.88315 0.45821 0.51597 0.0
H1673 H 0.9986 0.48746 0.5185 0.0
H1674 H 0.96722 0.47616 0.51974 0.0
C1675 C 0.86497 0.45139 0.5119 0.0
C1676 C 0.90999 0.48324 0.53127 0.0
H1677 H 0.94478 0.51912 0.52574 0.0
C1678 C 0.91925 0.47218 0.54003 0.0
C1679 C 0.91926 0.50045 0.52615 0.0
C1680 C 0.9101 0.51251 0.51597 0.0
C1681 C 0.93759 0.4778 0.54365 0.0
C1682 C 0.94682 0.49482 0.53827 0.0
C1683 C 0.93758 0.50613 0.52995 0.0
C1684 C 0.96609 0.50044 0.5397 0.0
C1685 C 0.94698 0.46548 0.5531 0.0
C1686 C 0.97582 0.51773 0.55067 0.0
C1687 C 0.99379 0.52421 0.55005 0.0
C1688 C 1.00221 0.51364 0.53818 0.0
C1689 C 0.9925 0.49596 0.52775 0.0
C1690 C 0.97459 0.48942 0.52851 0.0
H1691 H 0.93811 0.4557 0.56047 0.0
H1692 H 0.95208 0.45664 0.54251 0.0
H1693 H 0.95827 0.47442 0.56318 0.0
H1694 H 0.96941 0.52647 0.55927 0.0
H1695 H 1.00085 0.53792 0.55819 0.0
H1696 H 0.36887 0.08853 0.32945 0.0
H1697 H 0.35448 0.11385 0.33703 0.0
H1698 H 0.40418 0.15271 0.36122 0.0
H1699 H 0.4188 0.12732 0.35357 0.0
H1700 H 0.35353 0.14403 0.36866 0.0
H1701 H 0.38899 0.1691 0.3109 0.0
H1702 H 0.38723 0.14554 0.31633 0.0
H1703 H 0.40179 0.16601 0.33114 0.0
C1704 C 0.37668 0.10228 0.33692 0.0
C1705 C 0.39498 0.10616 0.34051 0.0
C1706 C 0.36841 0.11668 0.34138 0.0
C1707 C 0.37835 0.13514 0.34939 0.0
C1708 C 0.39637 0.13851 0.35493 0.0
H1709 H 0.34327 0.23129 0.32074 0.0
H1710 H 0.36037 0.2135 0.33626 0.0
C1711 C 0.40468 0.12402 0.35055 0.0
C1712 C 0.37042 0.15113 0.34798 0.0
H1713 H 0.36719 0.18327 0.31955 0.0
C1714 C 0.35672 0.15297 0.35824 0.0
C1715 C 0.37457 0.16256 0.33422 0.0
C1716 C 0.38886 0.16074 0.32239 0.0
C1717 C 0.3467 0.16571 0.35474 0.0
C1718 C 0.35027 0.17639 0.3403 0.0
C1719 C 0.36447 0.17509 0.33064 0.0
C1720 C 0.33895 0.18811 0.33393 0.0
C1721 C 0.33231 0.16743 0.36639 0.0
C1722 C 0.32109 0.17985 0.32764 0.0
C1723 C 0.31104 0.19022 0.31911 0.0
C1724 C 0.31879 0.20891 0.31639 0.0
C1725 C 0.33666 0.21714 0.32295 0.0
C1726 C 0.34656 0.20693 0.33175 0.0
H1727 H 0.33521 0.16394 0.38036 0.0
H1728 H 0.33038 0.18204 0.36803 0.0
H1729 H 0.31988 0.15712 0.35956 0.0
H1730 H 0.31504 0.16515 0.32868 0.0
H1731 H 0.2973 0.18349 0.31442 0.0
H1732 H 0.33171 0.13792 0.53497 0.0
H1733 H 0.35723 0.12511 0.53349 0.0
H1734 H 0.37286 0.1567 0.4899 0.0
H1735 H 0.34738 0.16986 0.49148 0.0
H1736 H 0.36665 0.10319 0.50457 0.0
H1737 H 0.4177 0.17195 0.52655 0.0
H1738 H 0.39492 0.16963 0.52903 0.0
H1739 H 0.40237 0.1713 0.5068 0.0
C1740 C 0.34055 0.14219 0.52505 0.0
C1741 C 0.33748 0.15501 0.51338 0.0
C1742 C 0.35518 0.13483 0.52422 0.0
C1743 C 0.36718 0.14014 0.5118 0.0
C1744 C 0.36403 0.15269 0.4999 0.0
H1745 H 0.46336 0.10608 0.49186 0.0
H1746 H 0.43886 0.12088 0.49099 0.0
C1747 C 0.34936 0.1601 0.50071 0.0
C1748 C 0.38274 0.13216 0.51121 0.0
H1749 H 0.42757 0.14443 0.51791 0.0
C1750 C 0.37997 0.11223 0.50749 0.0
C1751 C 0.40016 0.14392 0.51495 0.0
C1752 C 0.40405 0.16538 0.51972 0.0
C1753 C 0.39403 0.10375 0.50736 0.0
C1754 C 0.41145 0.11548 0.51143 0.0
C1755 C 0.41426 0.13543 0.51484 0.0
C1756 C 0.42684 0.10723 0.51256 0.0
C1757 C 0.39007 0.08227 0.50261 0.0
C1758 C 0.42857 0.09504 0.52532 0.0
C1759 C 0.44258 0.08662 0.52589 0.0
C1760 C 0.45532 0.09026 0.51379 0.0
C1761 C 0.4539 0.10302 0.50147 0.0
C1762 C 0.43983 0.11143 0.50088 0.0
H1763 H 0.37678 0.0759 0.49477 0.0
H1764 H 0.39981 0.0779 0.49424 0.0
H1765 H 0.3906 0.07626 0.51561 0.0
H1766 H 0.41903 0.09197 0.53484 0.0
H1767 H 0.44341 0.07721 0.53584 0.0
H1768 H 0.73861 0.58348 0.27964 0.0
H1769 H 0.75458 0.61653 0.27836 0.0
H1770 H 0.71324 0.6368 0.30123 0.0
H1771 H 0.69775 0.6042 0.30325 0.0
H1772 H 0.74987 0.64305 0.26052 0.0
H1773 H 0.75135 0.67496 0.33347 0.0
H1774 H 0.7442 0.64951 0.32566 0.0
H1775 H 0.72928 0.66418 0.32283 0.0
C1776 C 0.73303 0.59496 0.28476 0.0
C1777 C 0.71681 0.5907 0.29187 0.0
C1778 C 0.74221 0.61409 0.28391 0.0
C1779 C 0.73562 0.62986 0.29009 0.0
C1780 C 0.71932 0.6255 0.29697 0.0
H1781 H 0.76905 0.75571 0.2853 0.0
H1782 H 0.752 0.72296 0.28714 0.0
C1783 C 0.71027 0.6065 0.29801 0.0
C1784 C 0.74528 0.65053 0.28871 0.0
H1785 H 0.75849 0.69695 0.31257 0.0
C1786 C 0.75177 0.65468 0.27205 0.0
C1787 C 0.74809 0.66632 0.30352 0.0
C1788 C 0.74303 0.66351 0.32242 0.0
C1789 C 0.76043 0.67357 0.26975 0.0
C1790 C 0.76299 0.6893 0.28446 0.0
C1791 C 0.75649 0.68525 0.30108 0.0
C1792 C 0.7732 0.70969 0.28314 0.0
C1793 C 0.76655 0.67655 0.25131 0.0
C1794 C 0.79098 0.71375 0.28043 0.0
C1795 C 0.80075 0.73249 0.27956 0.0
C1796 C 0.79325 0.74815 0.28118 0.0
C1797 C 0.77539 0.74419 0.28379 0.0
C1798 C 0.7656 0.72533 0.28493 0.0
H1799 H 0.75975 0.66444 0.24007 0.0
H1800 H 0.76438 0.68997 0.24743 0.0
H1801 H 0.7808 0.67771 0.25232 0.0
H1802 H 0.7975 0.70238 0.27927 0.0
H1803 H 0.81442 0.73472 0.27767 0.0
H1804 H 0.93035 0.50268 0.79627 0.0
H1805 H 0.91197 0.46995 0.79263 0.0
H1806 H 0.8681 0.49129 0.80695 0.0
H1807 H 0.88623 0.52406 0.81014 0.0
H1808 H 0.8942 0.45065 0.81683 0.0
H1809 H 0.84805 0.45631 0.75784 0.0
H1810 H 0.86845 0.47418 0.76605 0.0
H1811 H 0.84971 0.47379 0.77815 0.0
C1812 C 0.9168 0.50042 0.7987 0.0
C1813 C 0.90968 0.51595 0.80331 0.0
C1814 C 0.90633 0.48172 0.7966 0.0
C1815 C 0.8886 0.47824 0.79913 0.0
C1816 C 0.88163 0.49369 0.80443 0.0
H1817 H 0.82639 0.3658 0.81074 0.0
H1818 H 0.84083 0.39997 0.8157 0.0
C1819 C 0.89204 0.5124 0.80637 0.0
C1820 C 0.87748 0.4584 0.79624 0.0
H1821 H 0.84086 0.42778 0.77049 0.0
C1822 C 0.88253 0.44563 0.80671 0.0
C1823 C 0.8624 0.45189 0.78284 0.0
C1824 C 0.85689 0.46469 0.77044 0.0
C1825 C 0.87291 0.42646 0.80416 0.0
C1826 C 0.85756 0.42006 0.79112 0.0
C1827 C 0.85251 0.43282 0.78062 0.0
C1828 C 0.84703 0.39995 0.78762 0.0
C1829 C 0.8796 0.41313 0.81504 0.0
C1830 C 0.84485 0.3889 0.7699 0.0
C1831 C 0.83634 0.36943 0.76693 0.0
C1832 C 0.83 0.36072 0.78168 0.0
C1833 C 0.8314 0.37205 0.79917 0.0
C1834 C 0.83972 0.39154 0.80206 0.0
H1835 H 0.89369 0.419 0.82058 0.0
H1836 H 0.87217 0.41109 0.827 0.0
H1837 H 0.87783 0.39893 0.80633 0.0
H1838 H 0.85029 0.39519 0.75854 0.0
H1839 H 0.83541 0.36108 0.75328 0.0
H1840 H 0.10347 0.86666 0.07899 0.0
H1841 H 0.09795 0.89397 0.06627 0.0
H1842 H 0.07486 0.91022 0.1149 0.0
H1843 H 0.07958 0.88228 0.12725 0.0
H1844 H 0.05631 0.91504 0.08638 0.0
H1845 H 0.12511 0.94801 0.07867 0.0
H1846 H 0.11766 0.92428 0.06559 0.0
H1847 H 0.11905 0.92795 0.09054 0.0
C1848 C 0.09724 0.87606 0.08701 0.0
C1849 C 0.09209 0.87231 0.10422 0.0
C1850 C 0.09423 0.89185 0.07978 0.0
C1851 C 0.08641 0.90465 0.08978 0.0
C1852 C 0.08103 0.90074 0.10688 0.0
H1853 H 0.09028 0.01854 0.06384 0.0
H1854 H 0.09555 0.99093 0.07625 0.0
C1855 C 0.08375 0.88474 0.11397 0.0
C1856 C 0.08348 0.92179 0.08226 0.0
H1857 H 0.1036 0.96027 0.06337 0.0
C1858 C 0.06672 0.92497 0.08147 0.0
C1859 C 0.09705 0.93512 0.0761 0.0
C1860 C 0.11575 0.9338 0.07795 0.0
C1861 C 0.06309 0.94076 0.07455 0.0
C1862 C 0.07641 0.95349 0.06744 0.0
C1863 C 0.09324 0.95047 0.06849 0.0
C1864 C 0.07335 0.97028 0.05935 0.0
C1865 C 0.0451 0.94387 0.07551 0.0
C1866 C 0.05936 0.96807 0.04531 0.0
C1867 C 0.05613 0.98395 0.03842 0.0
C1868 C 0.06711 1.00244 0.04498 0.0
C1869 C 0.08157 1.00454 0.05841 0.0
C1870 C 0.08459 0.9887 0.06555 0.0
H1871 H 0.03866 0.93703 0.08655 0.0
H1872 H 0.04567 0.95932 0.07827 0.0
H1873 H 0.03673 0.9373 0.06211 0.0
H1874 H 0.05084 0.95403 0.03969 0.0
H1875 H 0.045 0.98173 0.02793 0.0
H1876 H 0.98266 0.26651 0.85443 0.0
H1877 H 0.95693 0.26985 0.83547 0.0
H1878 H 0.93241 0.27934 0.88465 0.0
H1879 H 0.95803 0.27609 0.90372 0.0
H1880 H 0.90999 0.25259 0.85362 0.0
H1881 H 0.94381 0.32158 0.83411 0.0
H1882 H 0.9545 0.30269 0.83019 0.0
H1883 H 0.95246 0.31247 0.85347 0.0
C1884 C 0.97178 0.26922 0.86123 0.0
C1885 C 0.97251 0.2711 0.88066 0.0
C1886 C 0.95711 0.27123 0.85037 0.0
C1887 C 0.94282 0.27507 0.85865 0.0
C1888 C 0.94331 0.27647 0.87795 0.0
H1889 H 0.85644 0.31459 0.8099 0.0
H1890 H 0.88084 0.31028 0.83042 0.0
C1891 C 0.958 0.27462 0.88884 0.0
C1892 C 0.92739 0.27774 0.84725 0.0
H1893 H 0.91477 0.3071 0.81963 0.0
C1894 C 0.91103 0.26451 0.84619 0.0
C1895 C 0.92869 0.29343 0.83776 0.0
C1896 C 0.94575 0.30849 0.83899 0.0
C1897 C 0.89605 0.26634 0.83559 0.0
C1898 C 0.89745 0.28177 0.82573 0.0
C1899 C 0.91372 0.29522 0.8271 0.0
C1900 C 0.88224 0.28403 0.81368 0.0
C1901 C 0.87878 0.25185 0.83512 0.0
C1902 C 0.87495 0.27077 0.79742 0.0
C1903 C 0.86111 0.27326 0.78566 0.0
C1904 C 0.8542 0.28902 0.78996 0.0
C1905 C 0.8614 0.30222 0.80632 0.0
C1906 C 0.87537 0.29981 0.81801 0.0
H1907 H 0.87904 0.24335 0.84646 0.0
H1908 H 0.86802 0.25899 0.83627 0.0
H1909 H 0.87578 0.24186 0.82169 0.0
H1910 H 0.88017 0.25863 0.79366 0.0
H1911 H 0.85587 0.26289 0.77312 0.0
H1912 H 0.56471 0.25413 0.62801 0.0
H1913 H 0.56014 0.22102 0.61311 0.0
H1914 H 0.59678 0.23936 0.57534 0.0
H1915 H 0.60118 0.27275 0.59 0.0
H1916 H 0.5682 0.21022 0.55801 0.0
H1917 H 0.59591 0.1913 0.62242 0.0
H1918 H 0.57778 0.20136 0.62568 0.0
H1919 H 0.59764 0.21571 0.61959 0.0
C1920 C 0.5717 0.2512 0.61641 0.0
C1921 C 0.58347 0.26614 0.61034 0.0
C1922 C 0.56915 0.2322 0.60798 0.0
C1923 C 0.57847 0.22761 0.59343 0.0
C1924 C 0.58956 0.24253 0.58667 0.0
H1925 H 0.59273 0.11356 0.56202 0.0
H1926 H 0.59669 0.14762 0.57298 0.0
C1927 C 0.59203 0.26163 0.59503 0.0
C1928 C 0.57699 0.20723 0.58574 0.0
H1929 H 0.58163 0.16539 0.59823 0.0
C1930 C 0.57121 0.20042 0.56678 0.0
C1931 C 0.58123 0.19449 0.59708 0.0
C1932 C 0.58866 0.2011 0.61728 0.0
C1933 C 0.56914 0.18116 0.55898 0.0
C1934 C 0.57258 0.16823 0.57052 0.0
C1935 C 0.57876 0.17518 0.58939 0.0
C1936 C 0.5701 0.1475 0.56338 0.0
C1937 C 0.56358 0.17498 0.53837 0.0
C1938 C 0.55377 0.13591 0.55451 0.0
C1939 C 0.55147 0.11639 0.54812 0.0
C1940 C 0.56541 0.10793 0.55069 0.0
C1941 C 0.58168 0.11952 0.55982 0.0
C1942 C 0.58398 0.13905 0.56609 0.0
H1943 H 0.5666 0.18728 0.53087 0.0
H1944 H 0.57013 0.16415 0.53252 0.0
H1945 H 0.54922 0.16855 0.53576 0.0
H1946 H 0.5427 0.14191 0.55268 0.0
H1947 H 0.53873 0.10794 0.54123 0.0
H1948 H 0.58421 0.76859 0.40608 0.0
H1949 H 0.61026 0.77005 0.39053 0.0
H1950 H 0.58424 0.78451 0.34271 0.0
H1951 H 0.55809 0.78331 0.35826 0.0
H1952 H 0.61538 0.75009 0.35716 0.0
H1953 H 0.62949 0.82797 0.35591 0.0
H1954 H 0.61402 0.81618 0.36982 0.0
H1955 H 0.60795 0.8143 0.34533 0.0
C1956 C 0.58393 0.77201 0.39222 0.0
C1957 C 0.56902 0.77596 0.38351 0.0
C1958 C 0.59887 0.77282 0.38333 0.0
C1959 C 0.59934 0.77769 0.36557 0.0
C1960 C 0.58432 0.78108 0.35656 0.0
H1961 H 0.68008 0.76715 0.2943 0.0
H1962 H 0.65284 0.76291 0.30816 0.0
C1963 C 0.56932 0.78025 0.36544 0.0
C1964 C 0.61566 0.77946 0.3567 0.0
H1965 H 0.64765 0.81133 0.34072 0.0
C1966 C 0.62242 0.76346 0.35351 0.0
C1967 C 0.62499 0.79699 0.35221 0.0
C1968 C 0.61888 0.81491 0.35612 0.0
C1969 C 0.63815 0.76448 0.34585 0.0
C1970 C 0.64729 0.78192 0.34101 0.0
C1971 C 0.64059 0.79794 0.34431 0.0
C1972 C 0.66399 0.78397 0.33281 0.0
C1973 C 0.64507 0.74701 0.34342 0.0
C1974 C 0.67933 0.79739 0.34191 0.0
C1975 C 0.69496 0.79984 0.33402 0.0
C1976 C 0.6956 0.789 0.31678 0.0
C1977 C 0.6802 0.77549 0.30775 0.0
C1978 C 0.66458 0.77306 0.31565 0.0
H1979 H 0.63907 0.7365 0.35204 0.0
H1980 H 0.64192 0.73992 0.32868 0.0
H1981 H 0.65952 0.75095 0.34712 0.0
H1982 H 0.67922 0.80599 0.35515 0.0
H1983 H 0.70657 0.81023 0.34147 0.0
H1984 H 0.11579 0.3026 0.4591 0.0
H1985 H 0.1154 0.27683 0.47689 0.0
H1986 H 0.11369 0.23781 0.42647 0.0
H1987 H 0.11451 0.26358 0.40861 0.0
H1988 H 0.08834 0.2454 0.47243 0.0
H1989 H 0.14918 0.22386 0.46111 0.0
H1990 H 0.14581 0.24617 0.45602 0.0
H1991 H 0.13635 0.22431 0.43987 0.0
C1992 C 0.11569 0.28862 0.45183 0.0
C1993 C 0.11509 0.2851 0.43243 0.0
C1994 C 0.11548 0.27393 0.46202 0.0
C1995 C 0.11468 0.25547 0.45302 0.0
C1996 C 0.11472 0.25205 0.43374 0.0
H1997 H 0.07938 0.14362 0.48094 0.0
H1998 H 0.08868 0.17131 0.46563 0.0
C1999 C 0.11507 0.26678 0.42354 0.0
C2000 C 0.11179 0.23941 0.46348 0.0
H2001 H 0.12709 0.20175 0.47308 0.0
C2002 C 0.09694 0.23601 0.47277 0.0
C2003 C 0.12301 0.22715 0.46381 0.0
C2004 C 0.13957 0.23065 0.45482 0.0
C2005 C 0.09278 0.2204 0.48203 0.0
C2006 C 0.10375 0.20795 0.48199 0.0
C2007 C 0.11871 0.21139 0.47294 0.0
C2008 C 0.09959 0.1911 0.49114 0.0
C2009 C 0.07648 0.21701 0.4915 0.0
C2010 C 0.10291 0.1932 0.51046 0.0
C2011 C 0.09776 0.17744 0.51924 0.0
C2012 C 0.08911 0.15936 0.5088 0.0
C2013 C 0.08616 0.15729 0.48936 0.0
C2014 C 0.09141 0.17307 0.48059 0.0
H2015 H 0.06851 0.22708 0.48885 0.0
H2016 H 0.06828 0.20215 0.48668 0.0
H2017 H 0.08023 0.21875 0.5067 0.0
H2018 H 0.10927 0.20708 0.51874 0.0
H2019 H 0.10049 0.17942 0.53421 0.0
H2020 H 0.56417 0.27275 0.16879 0.0
H2021 H 0.59448 0.28165 0.18346 0.0
H2022 H 0.57732 0.26447 0.23395 0.0
H2023 H 0.54688 0.25498 0.21919 0.0
H2024 H 0.61253 0.30673 0.21488 0.0
H2025 H 0.61013 0.23134 0.22123 0.0
H2026 H 0.59297 0.23762 0.20775 0.0
H2027 H 0.59445 0.2411 0.23261 0.0
C2028 C 0.5668 0.27096 0.18305 0.0
C2029 C 0.55315 0.26288 0.19274 0.0
C2030 C 0.58412 0.27612 0.19144 0.0
C2031 C 0.58813 0.27341 0.20967 0.0
C2032 C 0.5745 0.26628 0.21973 0.0
H2033 H 0.69338 0.27833 0.26065 0.0
H2034 H 0.66279 0.27969 0.2582 0.0
C2035 C 0.55714 0.26092 0.21128 0.0
C2036 C 0.60665 0.27699 0.21754 0.0
H2037 H 0.63707 0.25412 0.23063 0.0
C2038 C 0.61789 0.2953 0.21854 0.0
C2039 C 0.61355 0.26202 0.22231 0.0
C2040 C 0.60222 0.24187 0.22081 0.0
C2041 C 0.63599 0.29888 0.22363 0.0
C2042 C 0.64292 0.28373 0.22767 0.0
C2043 C 0.63161 0.26568 0.22755 0.0
C2044 C 0.66192 0.28561 0.23018 0.0
C2045 C 0.64759 0.31871 0.22429 0.0
C2046 C 0.67148 0.28858 0.21524 0.0
C2047 C 0.68886 0.28771 0.21655 0.0
C2048 C 0.69694 0.28386 0.23284 0.0
C2049 C 0.68751 0.2815 0.24801 0.0
C2050 C 0.67007 0.28224 0.24663 0.0
H2051 H 0.64012 0.32967 0.22608 0.0
H2052 H 0.65858 0.32227 0.23577 0.0
H2053 H 0.65322 0.3194 0.21105 0.0
H2054 H 0.66528 0.29083 0.2023 0.0
H2055 H 0.69589 0.28972 0.20472 0.0
H2056 H 0.59078 0.89427 0.90676 0.0
H2057 H 0.58548 0.91977 0.92886 0.0
H2058 H 0.61552 0.90398 0.97298 0.0
H2059 H 0.62075 0.87822 0.95103 0.0
H2060 H 0.58137 0.90494 0.97935 0.0
H2061 H 0.61616 0.97181 0.95651 0.0
H2062 H 0.60407 0.9526 0.93843 0.0
H2063 H 0.62278 0.94985 0.9522 0.0
C2064 C 0.59653 0.8964 0.92111 0.0
C2065 C 0.6061 0.88413 0.92717 0.0
C2066 C 0.5936 0.9111 0.93367 0.0
C2067 C 0.60032 0.91389 0.95246 0.0
C2068 C 0.61036 0.9021 0.95847 0.0
H2069 H 0.58629 1.00021 0.04055 0.0
H2070 H 0.59909 0.97938 0.02 0.0
C2071 C 0.6133 0.88738 0.94592 0.0
C2072 C 0.5951 0.92755 0.96612 0.0
H2073 H 0.59583 0.97454 0.97788 0.0
C2074 C 0.5847 0.92019 0.97918 0.0
C2075 C 0.59953 0.9474 0.96584 0.0
C2076 C 0.61136 0.95602 0.95262 0.0
C2077 C 0.57817 0.93211 0.99167 0.0
C2078 C 0.58202 0.95182 0.99092 0.0
C2079 C 0.59284 0.95934 0.97824 0.0
C2080 C 0.5745 0.96468 1.00296 0.0
C2081 C 0.56705 0.92355 1.0055 0.0
C2082 C 0.55651 0.9632 1.00003 0.0
C2083 C 0.54921 0.97496 1.01172 0.0
C2084 C 0.55982 0.98836 0.02643 0.0
C2085 C 0.57784 0.9898 0.02938 0.0
C2086 C 0.58516 0.9781 0.01761 0.0
H2087 H 0.56819 0.90896 1.00675 0.0
H2088 H 0.57083 0.93273 0.01939 0.0
H2089 H 0.55312 0.92258 1.00094 0.0
H2090 H 0.54814 0.95294 0.98871 0.0
H2091 H 0.53527 0.97362 1.00927 0.0
H2092 H 0.94808 0.75508 0.67491 0.0
H2093 H 0.9258 0.76161 0.69384 0.0
H2094 H 0.95134 0.74406 0.74011 0.0
H2095 H 0.97314 0.73661 0.72096 0.0
H2096 H 0.91737 0.73071 0.73799 0.0
H2097 H 0.93206 0.80737 0.73278 0.0
H2098 H 0.92626 0.79279 0.71024 0.0
H2099 H 0.94576 0.7925 0.72466 0.0
C2100 C 0.94891 0.75261 0.68911 0.0
C2101 C 0.96237 0.74547 0.69653 0.0
C2102 C 0.93626 0.75647 0.69996 0.0
C2103 C 0.93718 0.75379 0.71854 0.0
C2104 C 0.95045 0.74634 0.72585 0.0
H2105 H 0.87282 0.80678 0.78686 0.0
H2106 H 0.89812 0.79684 0.77675 0.0
C2107 C 0.96289 0.74211 0.7149 0.0
C2108 C 0.92423 0.75867 0.7303 0.0
H2109 H 0.90478 0.79408 0.74337 0.0
C2110 C 0.91474 0.74464 0.73938 0.0
C2111 C 0.92116 0.77701 0.73254 0.0
C2112 C 0.932 0.79332 0.72471 0.0
C2113 C 0.90174 0.74823 0.75001 0.0
C2114 C 0.89774 0.76608 0.75099 0.0
C2115 C 0.9077 0.78031 0.74249 0.0
C2116 C 0.88278 0.7702 0.75985 0.0
C2117 C 0.89259 0.73291 0.76015 0.0
C2118 C 0.86578 0.75826 0.7542 0.0
C2119 C 0.85136 0.76374 0.7603 0.0
C2120 C 0.85369 0.7815 0.77169 0.0
C2121 C 0.8707 0.79309 0.77793 0.0
C2122 C 0.88513 0.78741 0.77218 0.0
H2123 H 0.90125 0.72382 0.7638 0.0
H2124 H 0.88832 0.73912 0.77305 0.0
H2125 H 0.88088 0.7235 0.75098 0.0
H2126 H 0.86355 0.7452 0.7443 0.0
H2127 H 0.83835 0.75464 0.75516 0.0
H2128 H 0.12843 0.06189 0.83743 0.0
H2129 H 0.11485 0.0625 0.86608 0.0
H2130 H 0.14339 0.02414 0.88431 0.0
H2131 H 0.15644 0.02295 0.85526 0.0
H2132 H 0.11445 1.01391 0.8959 0.0
H2133 H 0.1293 0.09203 0.91586 0.0
H2134 H 0.11623 0.08434 0.89362 0.0
H2135 H 0.13803 0.0811 0.89665 0.0
C2136 C 0.13194 0.05357 0.84749 0.0
C2137 C 0.14382 0.04241 0.84353 0.0
C2138 C 0.1242 0.05411 0.8643 0.0
C2139 C 0.12812 0.04382 0.87837 0.0
C2140 C 0.13986 0.03247 0.87427 0.0
H2141 H 0.09452 0.06615 0.99337 0.0
H2142 H 0.1115 0.06664 0.96667 0.0
C2143 C 0.14748 0.03179 0.85738 0.0
C2144 C 0.11974 0.04429 0.89681 0.0
H2145 H 0.10843 0.07378 0.93224 0.0
C2146 C 0.11331 0.02716 0.90371 0.0
C2147 C 0.11823 0.06134 0.90803 0.0
C2148 C 0.12599 0.08075 0.9033 0.0
C2149 C 0.10533 0.02649 0.92041 0.0
C2150 C 0.10284 0.04337 0.93099 0.0
C2151 C 0.10976 0.0606 0.92447 0.0
C2152 C 0.09276 0.0432 0.94824 0.0
C2153 C 0.10013 1.00744 0.92677 0.0
C2154 C 0.07623 0.03019 0.94762 0.0
C2155 C 0.06672 0.02968 0.96306 0.0
C2156 C 0.07291 0.04228 0.98019 0.0
C2157 C 0.08931 0.0557 0.98092 0.0
C2158 C 0.09901 0.05613 0.96532 0.0
H2159 H 0.10843 0.99808 0.92183 0.0
H2160 H 0.10123 1.00912 0.94212 0.0
H2161 H 0.08639 1.00005 0.92084 0.0
H2162 H 0.07031 0.02043 0.93489 0.0
H2163 H 0.05412 0.01929 0.96138 0.0
H2164 H 0.78484 0.44038 0.57032 0.0
H2165 H 0.77836 0.42285 0.59588 0.0
H2166 H 0.75701 0.37056 0.5567 0.0
H2167 H 0.76402 0.38785 0.5311 0.0
H2168 H 0.75014 0.39766 0.60762 0.0
H2169 H 0.80041 0.3618 0.58436 0.0
H2170 H 0.79644 0.38204 0.57511 0.0
H2171 H 0.78195 0.35859 0.56713 0.0
C2172 C 0.77837 0.42524 0.56713 0.0
C2173 C 0.77529 0.41537 0.54878 0.0
C2174 C 0.77464 0.41526 0.58174 0.0
C2175 C 0.76763 0.39537 0.57814 0.0
C2176 C 0.76281 0.38585 0.55973 0.0
H2177 H 0.7711 0.31271 0.65065 0.0
H2178 H 0.7607 0.32799 0.62604 0.0
C2179 C 0.7668 0.39574 0.54515 0.0
C2180 C 0.76777 0.38437 0.59347 0.0
H2181 H 0.78739 0.3526 0.61015 0.0
C2182 C 0.75816 0.38768 0.60815 0.0
C2183 C 0.77847 0.37158 0.59419 0.0
C2184 C 0.79004 0.36838 0.57947 0.0
C2185 C 0.75897 0.37845 0.62357 0.0
C2186 C 0.76968 0.36574 0.62421 0.0
C2187 C 0.77903 0.36222 0.60942 0.0
C2188 C 0.77257 0.35681 0.64055 0.0
C2189 C 0.74851 0.38236 0.63911 0.0
C2190 C 0.78239 0.36803 0.65695 0.0
C2191 C 0.78856 0.35936 0.67093 0.0
C2192 C 0.78505 0.33934 0.66861 0.0
C2193 C 0.77429 0.32817 0.65265 0.0
C2194 C 0.76818 0.33684 0.63868 0.0
H2195 H 0.73805 0.38906 0.63475 0.0
H2196 H 0.74248 0.36895 0.64411 0.0
H2197 H 0.75738 0.39226 0.65091 0.0
H2198 H 0.7862 0.38347 0.65844 0.0
H2199 H 0.79692 0.36833 0.68302 0.0
H2200 H 0.46475 0.10188 0.37671 0.0
H2201 H 0.48393 0.10932 0.40635 0.0
H2202 H 0.51855 0.07917 0.38123 0.0
H2203 H 0.49993 0.07231 0.3517 0.0
H2204 H 0.49001 0.08457 0.42631 0.0
H2205 H 0.5539 0.12414 0.41094 0.0
H2206 H 0.53397 0.12085 0.3955 0.0
H2207 H 0.54602 0.10291 0.39388 0.0
C2208 C 0.47666 0.09721 0.37746 0.0
C2209 C 0.48082 0.08648 0.3619 0.0
C2210 C 0.48761 0.10151 0.39437 0.0
C2211 C 0.50288 0.09514 0.39595 0.0
C2212 C 0.5072 0.08482 0.38026 0.0
H2213 H 0.54332 0.04112 0.47371 0.0
H2214 H 0.52761 0.05352 0.45029 0.0
C2215 C 0.49639 0.0807 0.36339 0.0
C2216 C 0.51309 0.09681 0.41428 0.0
H2217 H 0.55498 0.10342 0.43451 0.0
C2218 C 0.50421 0.0892 0.42829 0.0
C2219 C 0.53159 0.10331 0.4172 0.0
C2220 C 0.54185 0.11347 0.40361 0.0
C2221 C 0.51339 0.08617 0.44427 0.0
C2222 C 0.53186 0.09033 0.44596 0.0
C2223 C 0.54078 0.09973 0.43292 0.0
C2224 C 0.54188 0.08313 0.45994 0.0
C2225 C 0.50318 0.0779 0.45888 0.0
C2226 C 0.5557 0.09556 0.47249 0.0
C2227 C 0.5649 0.08842 0.4857 0.0
C2228 C 0.56031 0.06879 0.48645 0.0
C2229 C 0.54694 0.05633 0.47346 0.0
C2230 C 0.53786 0.06343 0.46024 0.0
H2231 H 0.49074 0.0822 0.4592 0.0
H2232 H 0.49979 0.06206 0.45557 0.0
H2233 H 0.51091 0.08255 0.47286 0.0
H2234 H 0.55914 0.11078 0.47229 0.0
H2235 H 0.57518 0.09827 0.49566 0.0
H2236 H 0.79941 0.74979 0.06039 0.0
H2237 H 0.80149 0.76574 0.09258 0.0
H2238 H 0.80576 0.71403 0.11193 0.0
H2239 H 0.80438 0.69836 0.08015 0.0
H2240 H 0.78097 0.75886 0.11862 0.0
H2241 H 0.84572 0.75121 0.14471 0.0
H2242 H 0.83762 0.74631 0.12031 0.0
H2243 H 0.83126 0.72839 0.13464 0.0
C2244 C 0.80107 0.74193 0.07153 0.0
C2245 C 0.80194 0.72283 0.06759 0.0
C2246 C 0.80218 0.75104 0.08995 0.0
C2247 C 0.80415 0.74126 0.10483 0.0
C2248 C 0.80483 0.72216 0.10086 0.0
H2249 H 0.77711 0.76816 0.21641 0.0
H2250 H 0.77688 0.7568 0.18335 0.0
C2251 C 0.80393 0.71316 0.08255 0.0
C2252 C 0.80481 0.7506 0.12447 0.0
H2253 H 0.82754 0.75777 0.1678 0.0
C2254 C 0.79127 0.75881 0.12934 0.0
C2255 C 0.81837 0.75092 0.13853 0.0
C2256 C 0.83415 0.74392 0.13424 0.0
C2257 C 0.79064 0.76674 0.14783 0.0
C2258 C 0.80361 0.76593 0.16206 0.0
C2259 C 0.8174 0.75821 0.15707 0.0
C2260 C 0.80338 0.77315 0.18214 0.0
C2261 C 0.77623 0.77622 0.15178 0.0
C2262 C 0.81848 0.78567 0.19282 0.0
C2263 C 0.81877 0.79176 0.21183 0.0
C2264 C 0.8039 0.78568 0.22067 0.0
C2265 C 0.78872 0.7733 0.21 0.0
C2266 C 0.78853 0.76692 0.19101 0.0
H2267 H 0.77126 0.78131 0.13935 0.0
H2268 H 0.7651 0.76569 0.15567 0.0
H2269 H 0.78076 0.78856 0.16333 0.0
H2270 H 0.83014 0.79071 0.18645 0.0
H2271 H 0.83068 0.80135 0.21957 0.0
H2272 H 0.12731 0.0314 0.74331 0.0
H2273 H 0.11242 0.03178 0.71258 0.0
H2274 H 0.15593 0.01906 0.68734 0.0
H2275 H 0.17033 0.01778 0.71767 0.0
H2276 H 0.1165 0.05183 0.6872 0.0
H2277 H 0.12047 0.98212 0.65132 0.0
H2278 H 0.12642 0.98934 0.67601 0.0
H2279 H 0.14197 0.99686 0.66033 0.0
C2280 C 0.13361 0.02828 0.73121 0.0
C2281 C 0.15011 0.02419 0.73345 0.0
C2282 C 0.12504 0.02864 0.7134 0.0
C2283 C 0.13253 0.025 0.69689 0.0
C2284 C 0.14912 0.02119 0.69923 0.0
H2285 H 0.09884 0.06385 0.59249 0.0
H2286 H 0.11204 0.06117 0.623 0.0
C2287 C 0.15756 0.02059 0.71694 0.0
C2288 C 0.12346 0.02589 0.67759 0.0
H2289 H 0.11388 1.00351 0.63177 0.0
C2290 C 0.11593 0.0411 0.6752 0.0
C2291 C 0.12201 1.01192 0.66142 0.0
C2292 C 0.12797 0.99405 0.66242 0.0
C2293 C 0.10765 0.04295 0.65771 0.0
C2294 C 0.10714 0.0296 0.64132 0.0
C2295 C 0.11429 1.01414 0.64381 0.0
C2296 C 0.09915 0.03121 0.62178 0.0
C2297 C 0.09898 0.05903 0.65731 0.0
C2298 C 0.08789 1.01521 0.6096 0.0
C2299 C 0.08053 0.01666 0.5916 0.0
C2300 C 0.08401 0.03419 0.58488 0.0
C2301 C 0.09545 0.05009 0.59693 0.0
C2302 C 0.10298 0.04858 0.61476 0.0
H2303 H 0.09498 0.06341 0.67102 0.0
H2304 H 0.10841 0.07165 0.65402 0.0
H2305 H 0.08719 0.05493 0.64675 0.0
H2306 H 0.08454 1.00147 0.61407 0.0
H2307 H 0.0719 1.00396 0.58302 0.0
H2308 H 0.80126 0.36553 0.46833 0.0
H2309 H 0.79949 0.34355 0.43951 0.0
H2310 H 0.78347 0.38326 0.40824 0.0
H2311 H 0.78496 0.40534 0.43713 0.0
H2312 H 0.7649 0.34384 0.39551 0.0
H2313 H 0.83724 0.35555 0.40481 0.0
H2314 H 0.82638 0.34778 0.42383 0.0
H2315 H 0.82647 0.37083 0.41812 0.0
C2316 C 0.79722 0.36956 0.45534 0.0
C2317 C 0.79345 0.38729 0.45497 0.0
C2318 C 0.79625 0.35698 0.4389 0.0
C2319 C 0.79165 0.36195 0.42179 0.0
C2320 C 0.78712 0.37923 0.42136 0.0
H2321 H 0.81342 0.33255 0.31313 0.0
H2322 H 0.81127 0.34567 0.34492 0.0
C2323 C 0.78801 0.39183 0.43784 0.0
C2324 C 0.79254 0.34964 0.4043 0.0
H2325 H 0.82136 0.33379 0.37858 0.0
C2326 C 0.77719 0.34147 0.39183 0.0
C2327 C 0.80866 0.34673 0.39959 0.0
C2328 C 0.82567 0.35578 0.41218 0.0
C2329 C 0.77758 0.33069 0.37453 0.0
C2330 C 0.79373 0.32794 0.36978 0.0
C2331 C 0.80899 0.33577 0.38243 0.0
C2332 C 0.79549 0.31916 0.3509 0.0
C2333 C 0.76092 0.32304 0.36114 0.0
C2334 C 0.7876 0.29976 0.34386 0.0
C2335 C 0.7889 0.29213 0.32559 0.0
C2336 C 0.79809 0.30387 0.31424 0.0
C2337 C 0.80632 0.32313 0.32156 0.0
C2338 C 0.80508 0.33067 0.33972 0.0
H2339 H 0.75003 0.32865 0.36597 0.0
H2340 H 0.7631 0.32681 0.34727 0.0
H2341 H 0.75686 0.30722 0.35953 0.0
H2342 H 0.78032 0.29062 0.35241 0.0
H2343 H 0.78243 0.27724 0.32024 0.0
H2344 H 0.47084 0.10858 0.27733 0.0
H2345 H 0.47883 0.11256 0.24653 0.0
H2346 H 0.42649 0.08077 0.222 0.0
H2347 H 0.41824 0.07764 0.25281 0.0
H2348 H 0.47952 0.08205 0.2247 0.0
H2349 H 0.43726 0.11725 0.1865 0.0
H2350 H 0.439 0.11886 0.2114 0.0
H2351 H 0.42435 0.09841 0.19641 0.0
C2352 C 0.46089 0.10307 0.26538 0.0
C2353 C 0.44401 0.09261 0.26735 0.0
C2354 C 0.46543 0.1054 0.24781 0.0
C2355 C 0.45328 0.09697 0.23192 0.0
C2356 C 0.436 0.08779 0.23401 0.0
H2357 H 0.47766 0.03426 0.13687 0.0
H2358 H 0.46354 0.0464 0.16247 0.0
C2359 C 0.43133 0.08585 0.25164 0.0
C2360 C 0.45953 0.09421 0.2136 0.0
H2361 H 0.45011 0.09551 0.16756 0.0
C2362 C 0.47328 0.0854 0.21232 0.0
C2363 C 0.45142 0.09851 0.19739 0.0
C2364 C 0.43731 0.10896 0.19803 0.0
C2365 C 0.4787 0.08013 0.19526 0.0
C2366 C 0.46982 0.08325 0.17894 0.0
C2367 C 0.4566 0.09281 0.18014 0.0
C2368 C 0.47419 0.07615 0.16066 0.0
C2369 C 0.49371 0.0709 0.19483 0.0
C2370 C 0.48392 0.08891 0.15059 0.0
C2371 C 0.4919 0.08199 0.13589 0.0
C2372 C 0.4903 0.06229 0.13131 0.0
C2373 C 0.47925 0.04951 0.14036 0.0
C2374 C 0.47115 0.05641 0.15488 0.0
H2375 H 0.50176 0.0738 0.20861 0.0
H2376 H 0.4884 0.05519 0.19077 0.0
H2377 H 0.50233 0.07605 0.18452 0.0
H2378 H 0.48638 0.1042 0.15493 0.0
H2379 H 0.50037 0.09211 0.12908 0.0
H2380 H 0.81468 0.70924 0.95568 0.0
H2381 H 0.81925 0.72126 0.9265 0.0
H2382 H 0.7825 0.75485 0.93656 0.0
H2383 H 0.77803 0.74314 0.96573 0.0
H2384 H 0.79545 0.71859 0.89495 0.0
H2385 H 0.82526 0.79441 0.92681 0.0
H2386 H 0.82262 0.77526 0.94014 0.0
H2387 H 0.80435 0.78449 0.93383 0.0
C2388 C 0.80766 0.71929 0.95175 0.0
C2389 C 0.79609 0.72532 0.96319 0.0
C2390 C 0.81023 0.7261 0.935 0.0
C2391 C 0.80141 0.73919 0.92937 0.0
C2392 C 0.78974 0.74508 0.94071 0.0
H2393 H 0.78732 0.77285 0.82039 0.0
H2394 H 0.78346 0.75764 0.84798 0.0
C2395 C 0.78715 0.73829 0.95741 0.0
C2396 C 0.80427 0.74664 0.91167 0.0
H2397 H 0.81742 0.78792 0.89411 0.0
C2398 C 0.80031 0.73374 0.89477 0.0
C2399 C 0.81081 0.7664 0.91137 0.0
C2400 C 0.81617 0.78095 0.929 0.0
C2401 C 0.80236 0.74011 0.87766 0.0
C2402 C 0.80838 0.75992 0.87737 0.0
C2403 C 0.81264 0.77275 0.89427 0.0
C2404 C 0.81075 0.76773 0.85978 0.0
C2405 C 0.79839 0.72557 0.86006 0.0
C2406 C 0.82733 0.77846 0.85712 0.0
C2407 C 0.82955 0.78712 0.84139 0.0
C2408 C 0.8152 0.78543 0.82798 0.0
C2409 C 0.79865 0.77435 0.8304 0.0
C2410 C 0.79644 0.76559 0.84616 0.0
H2411 H 0.79788 0.71097 0.8629 0.0
H2412 H 0.78548 0.72526 0.8527 0.0
H2413 H 0.8084 0.72942 0.85068 0.0
H2414 H 0.83858 0.78035 0.86739 0.0
H2415 H 0.84249 0.79551 0.83993 0.0
H2416 H 0.83512 0.10677 0.07474 0.0
H2417 H 0.85815 0.09197 0.06584 0.0
H2418 H 0.85614 0.11235 0.01368 0.0
H2419 H 0.83291 0.12718 0.0224 0.0
H2420 H 0.85797 0.07278 1.0118 0.0
H2421 H 0.90877 0.12454 0.06397 0.0
H2422 H 0.88943 0.11312 0.07312 0.0
H2423 H 0.88797 0.12881 0.0567 0.0
C2424 C 0.83949 0.10805 0.06133 0.0
C2425 C 0.83231 0.11829 0.04933 0.0
C2426 C 0.85267 0.09962 0.0563 0.0
C2427 C 0.85895 0.10134 0.03925 0.0
C2428 C 0.85146 0.11098 0.02694 0.0
H2429 H 0.9576 0.07946 0.01497 0.0
H2430 H 0.93267 0.09316 0.01757 0.0
C2431 C 0.83824 0.11945 0.03197 0.0
C2432 C 0.87372 0.0935 0.03462 0.0
H2433 H 0.91659 0.09741 0.0492 0.0
C2434 C 0.87084 0.0782 0.01985 0.0
C2435 C 0.89049 0.10084 0.04504 0.0
C2436 C 0.89446 0.11785 0.06049 0.0
C2437 C 0.88427 0.06962 0.01559 0.0
C2438 C 0.90084 0.07646 0.02653 0.0
C2439 C 0.90381 0.09212 0.04094 0.0
C2440 C 0.91532 0.06754 0.02351 0.0
C2441 C 0.88067 0.05342 0.99939 0.0
C2442 C 0.91377 0.0486 0.02601 0.0
C2443 C 0.92803 0.04076 0.02465 0.0
C2444 C 0.94408 0.05182 0.02093 0.0
C2445 C 0.94547 0.07069 0.01815 0.0
C2446 C 0.93123 0.07849 0.01949 0.0
H2447 H 0.86909 0.05323 0.98963 0.0
H2448 H 0.89216 0.05442 0.99168 0.0
H2449 H 0.878 0.03964 1.00462 0.0
H2450 H 0.9017 0.04007 0.02953 0.0
H2451 H 0.92664 0.02625 0.02704 0.0
H2452 H 0.37027 0.46919 0.05957 0.0
H2453 H 0.40057 0.48735 0.05923 0.0
H2454 H 0.4146 0.43491 0.04224 0.0
H2455 H 0.3845 0.41665 0.04265 0.0
H2456 H 0.43832 0.45983 0.0712 0.0
H2457 H 0.4248 0.49707 0.013 0.0
H2458 H 0.41204 0.4997 0.03171 0.0
H2459 H 0.40913 0.47655 0.01795 0.0
C2460 C 0.37977 0.46151 0.0557 0.0
C2461 C 0.37485 0.44143 0.05107 0.0
C2462 C 0.39709 0.47193 0.05543 0.0
C2463 C 0.40984 0.46251 0.0505 0.0
C2464 C 0.405 0.4425 0.04604 0.0
H2465 H 0.51238 0.51041 0.01918 0.0
H2466 H 0.48263 0.49154 0.02086 0.0
C2467 C 0.38773 0.43209 0.04625 0.0
C2468 C 0.42827 0.4734 0.05013 0.0
H2469 H 0.45375 0.50642 0.02869 0.0
C2470 C 0.4417 0.47003 0.06192 0.0
C2471 C 0.4327 0.48653 0.03784 0.0
C2472 C 0.41896 0.49011 0.02427 0.0
C2473 C 0.45939 0.47959 0.06191 0.0
C2474 C 0.46377 0.49302 0.04991 0.0
C2475 C 0.45037 0.49623 0.03798 0.0
C2476 C 0.48219 0.50376 0.04935 0.0
C2477 C 0.47329 0.47499 0.07447 0.0
C2478 C 0.49189 0.51686 0.06484 0.0
C2479 C 0.50891 0.52766 0.06392 0.0
C2480 C 0.51654 0.52557 0.04748 0.0
C2481 C 0.50691 0.51223 0.03209 0.0
C2482 C 0.48988 0.50151 0.03299 0.0
H2483 H 0.46822 0.46139 0.07961 0.0
H2484 H 0.48473 0.47392 0.06717 0.0
H2485 H 0.47789 0.48663 0.08666 0.0
H2486 H 0.48615 0.51904 0.07753 0.0
H2487 H 0.516 0.53786 0.07598 0.0
H2488 H 0.37858 0.60636 0.73213 0.0
H2489 H 0.36536 0.63346 0.73416 0.0
H2490 H 0.40272 0.66264 0.78185 0.0
H2491 H 0.41594 0.63557 0.77985 0.0
H2492 H 0.34852 0.65056 0.75943 0.0
H2493 H 0.40799 0.70612 0.75341 0.0
H2494 H 0.40695 0.68099 0.74884 0.0
H2495 H 0.41073 0.69366 0.77232 0.0
C2496 C 0.38413 0.61852 0.74308 0.0
C2497 C 0.39863 0.61832 0.75574 0.0
C2498 C 0.37642 0.63425 0.74427 0.0
C2499 C 0.38293 0.65088 0.75799 0.0
C2500 C 0.39736 0.65062 0.77073 0.0
H2501 H 0.35523 0.76337 0.78405 0.0
H2502 H 0.36859 0.73639 0.78284 0.0
C2503 C 0.40496 0.6348 0.76966 0.0
C2504 C 0.3745 0.66802 0.75911 0.0
H2505 H 0.38339 0.71701 0.76095 0.0
C2506 C 0.35628 0.66503 0.75966 0.0
C2507 C 0.38412 0.68738 0.75962 0.0
C2508 C 0.40349 0.6923 0.75835 0.0
C2509 C 0.34778 0.68023 0.76107 0.0
C2510 C 0.35734 0.6996 0.76129 0.0
C2511 C 0.3756 0.70257 0.76078 0.0
C2512 C 0.34882 0.71673 0.76205 0.0
C2513 C 0.32856 0.67518 0.76314 0.0
C2514 C 0.33311 0.71579 0.75068 0.0
C2515 C 0.32524 0.73136 0.75155 0.0
C2516 C 0.33275 0.74904 0.76358 0.0
C2517 C 0.3487 0.75023 0.77463 0.0
C2518 C 0.3565 0.73455 0.77388 0.0
H2519 H 0.32473 0.66201 0.76931 0.0
H2520 H 0.32506 0.6869 0.77202 0.0
H2521 H 0.32077 0.67236 0.74924 0.0
H2522 H 0.32686 0.70298 0.74075 0.0
H2523 H 0.31321 0.72953 0.74249 0.0
H2524 H 0.24834 0.63519 0.50187 0.0
H2525 H 0.21706 0.61931 0.49454 0.0
H2526 H 0.21703 0.60219 0.54833 0.0
H2527 H 0.24843 0.61745 0.55553 0.0
H2528 H 0.19705 0.57401 0.52138 0.0
H2529 H 0.18071 0.64267 0.51598 0.0
H2530 H 0.19523 0.63669 0.50018 0.0
H2531 H 0.20231 0.64161 0.52475 0.0
C2532 C 0.24169 0.62794 0.5121 0.0
C2533 C 0.25078 0.62776 0.52938 0.0
C2534 C 0.22381 0.61895 0.5079 0.0
C2535 C 0.21466 0.60997 0.52105 0.0
C2536 C 0.22384 0.60913 0.53802 0.0
H2537 H 0.10906 0.59117 0.54059 0.0
H2538 H 0.14004 0.60248 0.53789 0.0
C2539 C 0.24177 0.61789 0.54213 0.0
C2540 C 0.19542 0.60212 0.51757 0.0
H2541 H 0.15723 0.61491 0.51029 0.0
C2542 C 0.18831 0.58288 0.51883 0.0
C2543 C 0.1841 0.61384 0.51441 0.0
C2544 C 0.19093 0.63488 0.51391 0.0
C2545 C 0.17015 0.57514 0.51753 0.0
C2546 C 0.15885 0.58687 0.51437 0.0
C2547 C 0.16596 0.60594 0.51255 0.0
C2548 C 0.13977 0.58032 0.51489 0.0
C2549 C 0.16333 0.55478 0.52047 0.0
C2550 C 0.12924 0.56432 0.50258 0.0
C2551 C 0.11148 0.55763 0.50424 0.0
C2552 C 0.10394 0.56706 0.51804 0.0
C2553 C 0.11442 0.58353 0.52983 0.0
C2554 C 0.13215 0.59006 0.52828 0.0
H2555 H 0.17384 0.54923 0.52683 0.0
H2556 H 0.15278 0.55361 0.52951 0.0
H2557 H 0.1578 0.5455 0.50689 0.0
H2558 H 0.1348 0.55681 0.49191 0.0
H2559 H 0.10385 0.54479 0.49507 0.0
H2560 H 0.72049 0.99556 0.72853 0.0
H2561 H 0.74115 0.98003 0.74222 0.0
H2562 H 0.71932 0.98519 0.79377 0.0
H2563 H 0.69838 1.00056 0.78012 0.0
H2564 H 0.76618 0.99614 0.77461 0.0
H2565 H 0.719 0.92818 0.78202 0.0
H2566 H 0.71337 0.94391 0.7671 0.0
H2567 H 0.71444 0.9501 0.79179 0.0
C2568 C 0.71995 0.99324 0.74272 0.0
C2569 C 0.70779 0.99922 0.75324 0.0
C2570 C 0.7318 0.98444 0.75053 0.0
C2571 C 0.73166 0.98143 0.76893 0.0
C2572 C 0.71945 0.9872 0.77946 0.0
H2573 H 0.79664 0.91676 0.81995 0.0
H2574 H 0.77837 0.93912 0.81802 0.0
C2575 C 0.70754 0.99599 0.77164 0.0
C2576 C 0.7446 0.97253 0.77703 0.0
H2577 H 0.74885 0.93121 0.79069 0.0
C2578 C 0.76242 0.98203 0.77834 0.0
C2579 C 0.73957 0.95425 0.78206 0.0
C2580 C 0.72058 0.94338 0.78061 0.0
C2581 C 0.77542 0.97335 0.78386 0.0
C2582 C 0.77039 0.95466 0.78789 0.0
C2583 C 0.7526 0.94558 0.78757 0.0
C2584 C 0.78316 0.94336 0.79021 0.0
C2585 C 0.7944 0.98406 0.78491 0.0
C2586 C 0.79192 0.93855 0.77526 0.0
C2587 C 0.80225 0.92583 0.7763 0.0
C2588 C 0.80395 0.91769 0.79231 0.0
C2589 C 0.79568 0.92304 0.80754 0.0
C2590 C 0.78522 0.9357 0.80644 0.0
H2591 H 0.79612 0.99976 0.78714 0.0
H2592 H 0.80259 0.98053 0.79625 0.0
H2593 H 0.79922 0.97997 0.77161 0.0
H2594 H 0.7902 0.94405 0.76249 0.0
H2595 H 0.80855 0.92194 0.7644 0.0
H2596 H 0.79115 0.97035 0.5766 0.0
H2597 H 0.76535 0.98266 0.57324 0.0
H2598 H 0.74131 0.93634 0.52815 0.0
H2599 H 0.76731 0.9241 0.5312 0.0
H2600 H 0.73649 0.97018 0.52058 0.0
H2601 H 0.71879 0.96094 0.59047 0.0
H2602 H 0.74073 0.97537 0.59115 0.0
H2603 H 0.73491 0.95062 0.58037 0.0
C2604 C 0.78041 0.96277 0.56591 0.0
C2605 C 0.78131 0.94614 0.55423 0.0
C2606 C 0.76556 0.96976 0.56411 0.0
C2607 C 0.75114 0.96022 0.55072 0.0
C2608 C 0.75218 0.9439 0.53869 0.0
H2609 H 0.64768 0.98251 0.55246 0.0
H2610 H 0.6723 0.96795 0.5534 0.0
C2611 C 0.76708 0.93691 0.54045 0.0
C2612 C 0.73509 0.96739 0.5492 0.0
H2613 H 0.70395 0.9795 0.57415 0.0
C2614 C 0.72933 0.97212 0.53227 0.0
C2615 C 0.72547 0.96964 0.56433 0.0
C2616 C 0.73016 0.9637 0.58255 0.0
C2617 C 0.71462 0.97948 0.53021 0.0
C2618 C 0.70552 0.9826 0.54561 0.0
C2619 C 0.71098 0.97737 0.56238 0.0
C2620 C 0.6904 0.99136 0.54468 0.0
C2621 C 0.70882 0.98357 0.51144 0.0
C2622 C 0.69232 1.0095 0.5397 0.0
C2623 C 0.67825 0.01785 0.53913 0.0
C2624 C 0.66189 1.00839 0.54373 0.0
C2625 C 0.66007 0.9903 0.54893 0.0
C2626 C 0.67414 0.98191 0.54941 0.0
H2627 H 0.71352 0.97514 0.50014 0.0
H2628 H 0.69434 0.98033 0.50867 0.0
H2629 H 0.7144 0.99894 0.51101 0.0
H2630 H 0.70481 0.01739 0.53652 0.0
H2631 H 0.68032 0.03197 0.53548 0.0
H2632 H 0.42086 0.50587 0.78601 0.0
H2633 H 0.40373 0.47342 0.78652 0.0
H2634 H 0.36268 0.48078 0.74816 0.0
H2635 H 0.37997 0.51359 0.74749 0.0
H2636 H 0.3722 0.45802 0.79707 0.0
H2637 H 0.36881 0.43066 0.7222 0.0
H2638 H 0.38316 0.45345 0.7333 0.0
H2639 H 0.36022 0.45105 0.72709 0.0
C2640 C 0.40817 0.50078 0.77762 0.0
C2641 C 0.40205 0.5128 0.76663 0.0
C2642 C 0.39827 0.48196 0.77796 0.0
C2643 C 0.38181 0.47401 0.76716 0.0
C2644 C 0.37542 0.48605 0.7564 0.0
H2645 H 0.30684 0.35915 0.74759 0.0
H2646 H 0.32314 0.39211 0.74761 0.0
C2647 C 0.38533 0.50507 0.75616 0.0
C2648 C 0.37161 0.45335 0.76743 0.0
H2649 H 0.35294 0.40952 0.73984 0.0
C2650 C 0.36804 0.44747 0.78449 0.0
C2651 C 0.36598 0.43914 0.7512 0.0
C2652 C 0.36984 0.44376 0.73241 0.0
C2653 C 0.35889 0.42843 0.78573 0.0
C2654 C 0.35339 0.41412 0.7695 0.0
C2655 C 0.35699 0.42004 0.75244 0.0
C2656 C 0.34348 0.39329 0.76973 0.0
C2657 C 0.3547 0.42412 0.80452 0.0
C2658 C 0.3492 0.38203 0.78193 0.0
C2659 C 0.33962 0.36289 0.78206 0.0
C2660 C 0.32407 0.3541 0.76979 0.0
C2661 C 0.31865 0.36518 0.75734 0.0
C2662 C 0.3281 0.38427 0.7573 0.0
H2663 H 0.35467 0.43726 0.81414 0.0
H2664 H 0.34173 0.41368 0.80348 0.0
H2665 H 0.36486 0.41802 0.81073 0.0
H2666 H 0.36122 0.38796 0.79134 0.0
H2667 H 0.34441 0.35499 0.79181 0.0
H2668 H 0.23544 0.57658 0.24136 0.0
H2669 H 0.25363 0.60954 0.24838 0.0
H2670 H 0.20787 0.62942 0.25782 0.0
H2671 H 0.18976 0.59646 0.25162 0.0
H2672 H 0.25331 0.63798 0.2312 0.0
H2673 H 0.24032 0.65862 0.30277 0.0
H2674 H 0.2338 0.63414 0.29095 0.0
H2675 H 0.22026 0.65004 0.28724 0.0
C2676 C 0.22929 0.58798 0.24507 0.0
C2677 C 0.2112 0.58397 0.24602 0.0
C2678 C 0.2397 0.60679 0.24911 0.0
C2679 C 0.23218 0.62193 0.25401 0.0
C2680 C 0.21407 0.61795 0.2547 0.0
H2681 H 0.26914 0.73737 0.23768 0.0
H2682 H 0.25621 0.70319 0.2356 0.0
C2683 C 0.2037 0.59912 0.25098 0.0
C2684 C 0.24308 0.64195 0.25725 0.0
H2685 H 0.25186 0.68453 0.28673 0.0
C2686 C 0.25317 0.64809 0.24347 0.0
C2687 C 0.24324 0.65506 0.27344 0.0
C2688 C 0.23397 0.64906 0.28952 0.0
C2689 C 0.26282 0.66716 0.24506 0.0
C2690 C 0.26181 0.68058 0.26053 0.0
C2691 C 0.25238 0.67429 0.27471 0.0
C2692 C 0.26983 0.7013 0.26188 0.0
C2693 C 0.274 0.67265 0.23015 0.0
C2694 C 0.28126 0.71175 0.27768 0.0
C2695 C 0.2884 0.73141 0.27908 0.0
C2696 C 0.28426 0.74087 0.26465 0.0
C2697 C 0.27276 0.7304 0.2489 0.0
C2698 C 0.26545 0.71084 0.24763 0.0
H2699 H 0.27821 0.66028 0.22334 0.0
H2700 H 0.26625 0.67739 0.21932 0.0
H2701 H 0.28585 0.68446 0.23585 0.0
H2702 H 0.2847 0.70468 0.2889 0.0
H2703 H 0.29729 0.73913 0.29135 0.0
H2704 H 0.5091 0.71472 0.44234 0.0
H2705 H 0.50971 0.68629 0.45618 0.0
H2706 H 0.56075 0.71534 0.48598 0.0
H2707 H 0.56028 0.74367 0.47223 0.0
H2708 H 0.55863 0.67869 0.46632 0.0
H2709 H 0.50463 0.6765 0.50967 0.0
H2710 H 0.49932 0.67812 0.48574 0.0
H2711 H 0.51493 0.69764 0.50074 0.0
C2712 C 0.52036 0.71514 0.45202 0.0
C2713 C 0.53462 0.73155 0.45617 0.0
C2714 C 0.52066 0.69888 0.45999 0.0
C2715 C 0.53521 0.69869 0.47229 0.0
C2716 C 0.54935 0.71512 0.4766 0.0
H2717 H 0.5735 0.61851 0.52976 0.0
H2718 H 0.56876 0.64612 0.51714 0.0
C2719 C 0.54903 0.73136 0.46872 0.0
C2720 C 0.53626 0.68113 0.47995 0.0
H2721 H 0.51775 0.65075 0.5083 0.0
C2722 C 0.54969 0.6726 0.47551 0.0
C2723 C 0.52451 0.67304 0.49182 0.0
C2724 C 0.51009 0.68182 0.49744 0.0
C2725 C 0.5517 0.65629 0.48254 0.0
C2726 C 0.54024 0.64845 0.4948 0.0
C2727 C 0.52659 0.65676 0.499 0.0
C2728 C 0.54251 0.6319 0.50363 0.0
C2729 C 0.56595 0.64741 0.47647 0.0
C2730 C 0.52903 0.61485 0.50107 0.0
C2731 C 0.53163 0.59898 0.5085 0.0
C2732 C 0.54777 0.59982 0.5187 0.0
C2733 C 0.56096 0.61718 0.52183 0.0
C2734 C 0.55832 0.63301 0.51449 0.0
H2735 H 0.56991 0.65134 0.46313 0.0
H2736 H 0.57767 0.65269 0.4871 0.0
H2737 H 0.56169 0.63159 0.47484 0.0
H2738 H 0.51664 0.61365 0.49289 0.0
H2739 H 0.52114 0.58591 0.50583 0.0
H2740 H 0.63551 0.32288 0.70114 0.0
H2741 H 0.66265 0.32028 0.71773 0.0
H2742 H 0.68879 0.32965 0.66965 0.0
H2743 H 0.6618 0.33277 0.65312 0.0
H2744 H 0.67978 0.29378 0.70936 0.0
H2745 H 0.72502 0.36478 0.70935 0.0
H2746 H 0.70165 0.35991 0.70318 0.0
H2747 H 0.71498 0.35235 0.68663 0.0
C2748 C 0.64711 0.32477 0.69417 0.0
C2749 C 0.64639 0.32814 0.67576 0.0
C2750 C 0.66265 0.32319 0.70369 0.0
C2751 C 0.67794 0.32492 0.69509 0.0
C2752 C 0.67738 0.32868 0.67683 0.0
H2753 H 0.77966 0.30563 0.73516 0.0
H2754 H 0.75506 0.31031 0.71504 0.0
C2755 C 0.66185 0.33041 0.66733 0.0
C2756 C 0.69398 0.32152 0.70489 0.0
H2757 H 0.73764 0.34147 0.72009 0.0
C2758 C 0.69239 0.30427 0.7117 0.0
C2759 C 0.7106 0.33505 0.70785 0.0
C2760 C 0.71319 0.35413 0.70152 0.0
C2761 C 0.70676 0.30027 0.72145 0.0
C2762 C 0.72324 0.31393 0.72474 0.0
C2763 C 0.72502 0.33098 0.71755 0.0
C2764 C 0.73838 0.31125 0.73668 0.0
C2765 C 0.70418 0.28137 0.72815 0.0
C2766 C 0.73732 0.31042 0.75553 0.0
C2767 C 0.75135 0.30793 0.76697 0.0
C2768 C 0.76681 0.30617 0.75987 0.0
C2769 C 0.76793 0.30698 0.741 0.0
C2770 C 0.75389 0.30966 0.72952 0.0
H2771 H 0.69239 0.27059 0.72041 0.0
H2772 H 0.71577 0.27565 0.72671 0.0
H2773 H 0.7024 0.28343 0.74304 0.0
H2774 H 0.72564 0.31188 0.76147 0.0
H2775 H 0.7501 0.30746 0.78147 0.0
H2776 H 0.04985 0.33894 0.93526 0.0
H2777 H 0.05765 0.37334 0.94728 0.0
H2778 H 0.01732 0.36432 0.98303 0.0
H2779 H 1.00967 0.33002 0.97138 0.0
H2780 H 0.03708 0.39791 0.94495 0.0
H2781 H 0.05859 0.39824 0.01883 0.0
H2782 H 0.05582 0.3776 1.00107 0.0
H2783 H 0.03715 0.38265 1.0108 0.0
C2784 C 0.04282 0.34425 0.9459 0.0
C2785 C 0.02918 0.33167 0.95241 0.0
C2786 C 0.04726 0.36393 0.95271 0.0
C2787 C 0.03824 0.37145 0.96626 0.0
C2788 C 0.02476 0.35888 0.97292 0.0
H2789 H 0.02671 0.48685 0.98974 0.0
H2790 H 0.02329 0.45285 0.97894 0.0
C2791 C 0.02033 0.33923 0.96614 0.0
C2792 C 0.0422 0.39248 0.97268 0.0
H2793 H 0.05271 0.427 1.0115 0.0
C2794 C 0.04064 0.40428 0.95949 0.0
C2795 C 0.04704 0.40089 0.99163 0.0
C2796 C 0.04993 0.38922 1.00638 0.0
C2797 C 0.0433 0.42411 0.96476 0.0
C2798 C 0.04734 0.43238 0.98379 0.0
C2799 C 0.0494 0.42067 0.99693 0.0
C2800 C 0.04944 0.45312 0.99036 0.0
C2801 C 0.04194 0.43603 0.94984 0.0
C2802 C 0.06511 0.46458 1.00083 0.0
C2803 C 0.06707 0.48404 1.00718 0.0
C2804 C 0.05335 0.49248 1.00325 0.0
C2805 C 0.03761 0.48092 0.99289 0.0
C2806 C 0.03566 0.46146 0.9866 0.0
H2807 H 0.04387 0.42872 0.93616 0.0
H2808 H 0.02869 0.43846 0.94844 0.0
H2809 H 0.05174 0.45015 0.95336 0.0
H2810 H 0.07589 0.45847 1.00402 0.0
H2811 H 0.07935 0.49243 0.01517 0.0
H2812 H 0.04869 0.79844 0.19552 0.0
H2813 H 0.02177 0.79781 0.2093 0.0
H2814 H 1.00981 0.83717 0.17501 0.0
H2815 H 0.03679 0.83782 0.16099 0.0
H2816 H 1.01073 0.82824 0.2286 0.0
H2817 H 0.96515 0.79206 0.16453 0.0
H2818 H 0.9881 0.79267 0.16692 0.0
H2819 H 0.98132 0.81339 0.16243 0.0
C2820 C 0.0404 0.80704 0.19091 0.0
C2821 C 0.0449 0.81814 0.17707 0.0
C2822 C 0.02499 0.80665 0.19883 0.0
C2823 C 0.01362 0.81721 0.19301 0.0
C2824 C 0.01822 0.82864 0.17949 0.0
H2825 H 0.91181 0.82512 0.22411 0.0
H2826 H 0.93861 0.82784 0.20956 0.0
C2827 C 0.03372 0.82911 0.17158 0.0
C2828 C 0.99703 0.81618 0.20123 0.0
H2829 H 0.95244 0.80126 0.19098 0.0
C2830 C 0.99798 0.82236 0.22038 0.0
C2831 C 0.9804 0.80854 0.19049 0.0
C2832 C 0.97856 0.80113 0.16997 0.0
C2833 C 0.98278 0.82124 0.22906 0.0
C2834 C 0.96612 0.81327 0.21839 0.0
C2835 C 0.96518 0.8073 0.19919 0.0
C2836 C 0.94955 0.81101 0.22689 0.0
C2837 C 0.98475 0.82897 0.24953 0.0
C2838 C 0.94651 0.80024 0.2412 0.0
C2839 C 0.93118 0.79867 0.24957 0.0
C2840 C 0.91841 0.80761 0.24365 0.0
C2841 C 0.92125 0.81789 0.22891 0.0
C2842 C 0.93663 0.81954 0.22063 0.0
H2843 H 0.99767 0.83941 0.25437 0.0
H2844 H 0.9743 0.83604 0.25285 0.0
H2845 H 0.9838 0.817 0.25741 0.0
H2846 H 0.95602 0.79305 0.24594 0.0
H2847 H 0.9293 0.79038 0.26065 0.0
H2848 H 0.51755 0.2888 0.10617 0.0
H2849 H 0.51978 0.31885 0.09484 0.0
H2850 H 0.48971 0.33644 0.13675 0.0
H2851 H 0.48733 0.30613 0.1483 0.0
H2852 H 0.48129 0.3443 0.09837 0.0
H2853 H 0.55165 0.36997 0.12701 0.0
H2854 H 0.54553 0.34642 0.1133 0.0
H2855 H 0.53666 0.35062 0.13468 0.0
C2856 C 0.51122 0.29892 0.1129 0.0
C2857 C 0.50242 0.29518 0.12826 0.0
C2858 C 0.51255 0.3161 0.10642 0.0
C2859 C 0.50517 0.32992 0.11518 0.0
C2860 C 0.49558 0.32593 0.12991 0.0
H2861 H 0.54118 0.44529 0.09001 0.0
H2862 H 0.53118 0.41934 0.10732 0.0
C2863 C 0.49422 0.30864 0.13645 0.0
C2864 C 0.50833 0.34877 0.10927 0.0
H2865 H 0.54154 0.38668 0.10455 0.0
C2866 C 0.49439 0.35376 0.09994 0.0
C2867 C 0.52539 0.36117 0.11164 0.0
C2868 C 0.54066 0.35691 0.12235 0.0
C2869 C 0.49728 0.3704 0.09198 0.0
C2870 C 0.51457 0.3821 0.09321 0.0
C2871 C 0.52831 0.37762 0.10347 0.0
C2872 C 0.519 0.39827 0.08296 0.0
C2873 C 0.48186 0.37517 0.08213 0.0
C2874 C 0.5155 0.395 0.06354 0.0
C2875 C 0.52111 0.40979 0.05364 0.0
C2876 C 0.53051 0.4281 0.06295 0.0
C2877 C 0.53381 0.4314 0.08244 0.0
C2878 C 0.52816 0.41659 0.09234 0.0
H2879 H 0.46951 0.36881 0.08753 0.0
H2880 H 0.48376 0.39087 0.08362 0.0
H2881 H 0.48033 0.36918 0.06714 0.0
H2882 H 0.50882 0.38087 0.05598 0.0
H2883 H 0.51817 0.40683 0.03866 0.0
H2884 H 0.04873 0.33604 0.3957 0.0
H2885 H 0.01983 0.33273 0.37905 0.0
H2886 H 0.03152 0.29699 0.33263 0.0
H2887 H 0.06057 0.30019 0.34914 0.0
H2888 H 0.01409 0.3425 0.34092 0.0
H2889 H 0.9827 0.2672 0.34753 0.0
H2890 H 1.00141 0.28185 0.36342 0.0
H2891 H 1.00416 0.27274 0.34023 0.0
C2892 C 0.04517 0.32739 0.38199 0.0
C2893 C 0.05694 0.31838 0.37374 0.0
C2894 C 0.02868 0.32555 0.37252 0.0
C2895 C 0.02363 0.31456 0.35473 0.0
C2896 C 0.03523 0.30541 0.34644 0.0
H2897 H 0.92909 0.31986 0.2864 0.0
H2898 H 0.95835 0.31584 0.29486 0.0
C2899 C 0.0518 0.30731 0.35587 0.0
C2900 C 1.00633 0.3132 0.3448 0.0
H2901 H 0.96499 0.28385 0.3331 0.0
C2902 C 1.00337 0.32964 0.33894 0.0
C2903 C 0.99252 0.29635 0.34239 0.0
C2904 C 0.99519 0.27848 0.34875 0.0
C2905 C 0.9867 0.32986 0.33118 0.0
C2906 C 0.97275 0.31316 0.32918 0.0
C2907 C 0.97582 0.29655 0.33458 0.0
C2908 C 0.95462 0.31338 0.32329 0.0
C2909 C 0.9839 0.34818 0.32596 0.0
C2910 C 0.94282 0.31276 0.33638 0.0
C2911 C 0.92618 0.31502 0.33162 0.0
C2912 C 0.92108 0.31784 0.31366 0.0
C2913 C 0.93268 0.31764 0.30033 0.0
C2914 C 0.94938 0.31545 0.30514 0.0
H2915 H 0.99556 0.3605 0.33076 0.0
H2916 H 0.98109 0.34643 0.31065 0.0
H2917 H 0.97247 0.35153 0.33197 0.0
H2918 H 0.94669 0.31113 0.35046 0.0
H2919 H 0.91738 0.31482 0.34207 0.0
H2920 H 0.99179 0.70515 0.59448 0.0
H2921 H 0.99371 0.67628 0.57467 0.0
H2922 H 0.99287 0.64729 0.62183 0.0
H2923 H 0.9911 0.67623 0.64188 0.0
H2924 H 0.02214 0.64854 0.60346 0.0
H2925 H 0.96147 0.62303 0.55339 0.0
H2926 H 0.97149 0.64818 0.55555 0.0
H2927 H 0.96296 0.63876 0.57513 0.0
C2928 C 0.99158 0.69251 0.6006 0.0
C2929 C 0.99151 0.69307 0.61981 0.0
C2930 C 0.99253 0.67596 0.5892 0.0
C2931 C 0.9933 0.65963 0.59677 0.0
C2932 C 0.99218 0.65974 0.61573 0.0
H2933 H 1.00286 0.55714 0.52655 0.0
H2934 H 0.99239 0.58054 0.54651 0.0
C2935 C 0.99118 0.6763 0.62716 0.0
C2936 C 0.998 0.64372 0.58548 0.0
H2937 H 0.98617 0.61219 0.54479 0.0
C2938 C 0.01416 0.64031 0.59078 0.0
C2939 C 0.98759 0.63315 0.56896 0.0
C2940 C 0.96983 0.63582 0.56298 0.0
C2941 C 0.02056 0.62704 0.57971 0.0
C2942 C 1.01047 0.61687 0.56269 0.0
C2943 C 0.99398 0.61992 0.55774 0.0
C2944 C 0.0166 0.60301 0.54985 0.0
C2945 C 0.03825 0.62466 0.58656 0.0
C2946 C 0.03343 0.60796 0.54445 0.0
C2947 C 0.03961 0.59435 0.53371 0.0
C2948 C 0.02875 0.5759 0.52732 0.0
C2949 C 1.01146 0.57133 0.53136 0.0
C2950 C 1.0055 0.58471 0.54276 0.0
H2951 H 0.04021 0.62635 0.60194 0.0
H2952 H 0.0401 0.61066 0.58076 0.0
H2953 H 0.0486 0.63602 0.58257 0.0
H2954 H 0.04198 0.62221 0.54894 0.0
H2955 H 0.05294 0.5982 0.53049 0.0
H2956 H 0.63931 0.85469 0.8401 0.0
H2957 H 0.66388 0.85749 0.82197 0.0
H2958 H 0.68774 0.8264 0.85766 0.0
H2959 H 0.66355 0.82404 0.87616 0.0
H2960 H 0.71114 0.85796 0.85055 0.0
H2961 H 0.67169 0.81459 0.78513 0.0
H2962 H 0.66499 0.83526 0.79457 0.0
H2963 H 0.66307 0.81562 0.80702 0.0
C2964 C 0.64978 0.8484 0.84405 0.0
C2965 C 0.64947 0.83903 0.85949 0.0
C2966 C 0.66377 0.84999 0.83364 0.0
C2967 C 0.67749 0.84195 0.83835 0.0
C2968 C 0.67726 0.83272 0.85383 0.0
H2969 H 0.7465 0.79157 0.78843 0.0
H2970 H 0.72215 0.80301 0.79849 0.0
C2971 C 0.66341 0.83132 0.86435 0.0
C2972 C 0.69211 0.84276 0.82717 0.0
H2973 H 0.70206 0.82469 0.78533 0.0
C2974 C 0.70921 0.85095 0.83619 0.0
C2975 C 0.68943 0.83366 0.80843 0.0
C2976 C 0.67134 0.82415 0.79819 0.0
C2977 C 0.72378 0.84911 0.82741 0.0
C2978 C 0.72109 0.83927 0.80892 0.0
C2979 C 0.70402 0.8323 0.79947 0.0
C2980 C 0.73532 0.83298 0.80047 0.0
C2981 C 0.74178 0.85644 0.83846 0.0
C2982 C 0.75067 0.84606 0.79772 0.0
C2983 C 0.76484 0.83954 0.79215 0.0
C2984 C 0.7637 0.81985 0.7891 0.0
C2985 C 0.7479 0.80683 0.7908 0.0
C2986 C 0.73389 0.81334 0.79647 0.0
H2987 H 0.74124 0.86107 0.85342 0.0
H2988 H 0.749 0.84524 0.83714 0.0
H2989 H 0.74935 0.8689 0.83302 0.0
H2990 H 0.75187 0.86128 0.80038 0.0
H2991 H 0.77678 0.84992 0.79075 0.0
H2992 H 0.44397 0.56737 0.69799 0.0
H2993 H 0.45858 0.56473 0.6701 0.0
H2994 H 0.50642 0.56713 0.70401 0.0
H2995 H 0.49153 0.56859 0.73172 0.0
H2996 H 0.48139 0.58276 0.65367 0.0
H2997 H 0.51073 0.52506 0.66857 0.0
H2998 H 0.49555 0.5326 0.68272 0.0
H2999 H 0.51851 0.54529 0.68676 0.0
C3000 C 0.45761 0.56725 0.69964 0.0
C3001 C 0.46627 0.56809 0.71762 0.0
C3002 C 0.46612 0.56573 0.6834 0.0
C3003 C 0.48386 0.56507 0.6841 0.0
C3004 C 0.49266 0.56663 0.7022 0.0
H3005 H 0.563 0.5716 0.606 0.0
H3006 H 0.54586 0.57168 0.63191 0.0
C3007 C 0.48407 0.56778 0.71842 0.0
C3008 C 0.49297 0.56316 0.66622 0.0
H3009 H 0.52191 0.54165 0.64473 0.0
C3010 C 0.49005 0.57351 0.65184 0.0
C3011 C 0.50443 0.55107 0.66287 0.0
C3012 C 0.50734 0.53773 0.67594 0.0
C3013 C 0.49831 0.57264 0.63527 0.0
C3014 C 0.51019 0.56111 0.63235 0.0
C3015 C 0.51302 0.55064 0.64655 0.0
C3016 C 0.52051 0.56054 0.61541 0.0
C3017 C 0.49463 0.58461 0.62113 0.0
C3018 C 0.5125 0.55393 0.5967 0.0
C3019 C 0.52256 0.55351 0.58143 0.0
C3020 C 0.54108 0.56 0.58417 0.0
C3021 C 0.54888 0.56648 0.60288 0.0
C3022 C 0.53896 0.56655 0.618 0.0
H3023 H 0.48765 0.5952 0.62656 0.0
H3024 H 0.50702 0.59232 0.61666 0.0
H3025 H 0.48636 0.57515 0.60871 0.0
H3026 H 0.49838 0.54886 0.59383 0.0
H3027 H 0.5158 0.54827 0.56751 0.0
H3028 H 0.76875 0.18825 0.99376 0.0
H3029 H 0.76716 0.19287 0.9617 0.0
H3030 H 0.80041 0.15531 0.9503 0.0
H3031 H 0.80231 0.15074 0.98286 0.0
H3032 H 0.81158 0.18919 0.93843 0.0
H3033 H 0.74119 0.16004 0.91381 0.0
H3034 H 0.74415 0.17576 0.93557 0.0
H3035 H 0.75146 0.15426 0.93441 0.0
C3036 C 0.77561 0.18076 0.98446 0.0
C3037 C 0.7857 0.16916 0.99086 0.0
C3038 C 0.77448 0.18323 0.96603 0.0
C3039 C 0.78327 0.17402 0.95349 0.0
C3040 C 0.7933 0.16228 0.95973 0.0
H3041 H 0.79462 0.22051 0.84935 0.0
H3042 H 0.79099 0.19514 0.86832 0.0
C3043 C 0.79443 0.15976 0.9783 0.0
C3044 C 0.78346 0.17879 0.93463 0.0
H3045 H 0.75631 0.18741 0.90009 0.0
C3046 C 0.79955 0.18818 0.92964 0.0
C3047 C 0.76776 0.17733 0.9231 0.0
C3048 C 0.7502 0.16609 0.92693 0.0
C3049 C 0.80021 0.19791 0.91452 0.0
C3050 C 0.78438 0.19816 0.90429 0.0
C3051 C 0.7684 0.18731 0.90817 0.0
C3052 C 0.7842 0.21204 0.89172 0.0
C3053 C 0.81767 0.20921 0.91051 0.0
C3054 C 0.78116 0.22963 0.89858 0.0
C3055 C 0.78329 0.24409 0.8879 0.0
C3056 C 0.78837 0.2411 0.87015 0.0
C3057 C 0.79054 0.2231 0.86294 0.0
C3058 C 0.78854 0.20866 0.87372 0.0
H3059 H 0.82882 0.20704 0.91942 0.0
H3060 H 0.81919 0.20497 0.89575 0.0
H3061 H 0.81824 0.22467 0.91278 0.0
H3062 H 0.77783 0.23241 0.9125 0.0
H3063 H 0.78141 0.25778 0.89369 0.0
H3064 H 0.16282 0.51554 0.16918 0.0
H3065 H 0.14111 0.51394 0.14282 0.0
H3066 H 0.09974 0.50063 0.17684 0.0
H3067 H 0.12145 0.50302 0.20348 0.0
H3068 H 0.11188 0.48902 0.12309 0.0
H3069 H 0.09516 0.5508 0.16344 0.0
H3070 H 0.11339 0.54212 0.17124 0.0
H3071 H 0.09145 0.52988 0.17413 0.0
C3072 C 0.14907 0.51189 0.17094 0.0
C3073 C 0.14381 0.50979 0.18843 0.0
C3074 C 0.13669 0.51097 0.15588 0.0
C3075 C 0.11888 0.50771 0.15806 0.0
C3076 C 0.11347 0.50374 0.17504 0.0
H3077 H 0.04167 0.50618 0.06356 0.0
H3078 H 0.0565 0.49634 0.08981 0.0
C3079 C 0.12586 0.50502 0.1902 0.0
C3080 C 0.1064 0.51048 0.14319 0.0
H3081 H 0.08001 0.53909 0.13346 0.0
C3082 C 0.10476 0.49982 0.12535 0.0
C3083 C 0.0974 0.52486 0.14618 0.0
C3084 C 0.09952 0.53771 0.16472 0.0
C3085 C 0.09461 0.50342 0.11031 0.0
C3086 C 0.08555 0.5177 0.11339 0.0
C3087 C 0.08685 0.52801 0.13127 0.0
C3088 C 0.07599 0.52349 0.09799 0.0
C3089 C 0.09433 0.49262 0.09115 0.0
C3090 C 0.08169 0.54217 0.09442 0.0
C3091 C 0.07314 0.54784 0.07971 0.0
C3092 C 0.05886 0.53488 0.06827 0.0
C3093 C 0.05276 0.51636 0.07218 0.0
C3094 C 0.06129 0.51069 0.087 0.0
H3095 H 0.10466 0.48482 0.09065 0.0
H3096 H 0.08144 0.48203 0.08684 0.0
H3097 H 0.09618 0.50251 0.08093 0.0
H3098 H 0.09294 0.55229 0.10286 0.0
H3099 H 0.0779 0.56229 0.07708 0.0
H3100 H 0.80747 0.89294 0.48521 0.0
H3101 H 0.80465 0.88083 0.45199 0.0
H3102 H 0.81462 0.82825 0.46403 0.0
H3103 H 0.81842 0.8408 0.49725 0.0
H3104 H 0.83279 0.83875 0.43894 0.0
H3105 H 0.76662 0.84511 0.4166 0.0
H3106 H 0.78057 0.8678 0.42785 0.0
H3107 H 0.77521 0.84843 0.44075 0.0
C3108 C 0.80876 0.87867 0.48077 0.0
C3109 C 0.81307 0.8678 0.49391 0.0
C3110 C 0.80704 0.87167 0.4617 0.0
C3111 C 0.80907 0.8534 0.45528 0.0
C3112 C 0.81295 0.84237 0.46847 0.0
H3113 H 0.78213 0.80077 0.33771 0.0
H3114 H 0.78244 0.8096 0.37117 0.0
C3115 C 0.81504 0.84952 0.48751 0.0
C3116 C 0.80832 0.84625 0.43496 0.0
H3117 H 0.78445 0.84109 0.39249 0.0
C3118 C 0.82209 0.83911 0.42884 0.0
C3119 C 0.79428 0.84632 0.42161 0.0
C3120 C 0.77826 0.85213 0.42707 0.0
C3121 C 0.8224 0.83241 0.40997 0.0
C3122 C 0.80892 0.83361 0.39651 0.0
C3123 C 0.79497 0.84039 0.40264 0.0
C3124 C 0.80896 0.82784 0.3761 0.0
C3125 C 0.83699 0.82367 0.40481 0.0
C3126 C 0.82368 0.83515 0.36745 0.0
C3127 C 0.82366 0.82974 0.34836 0.0
C3128 C 0.80874 0.81732 0.33728 0.0
C3129 C 0.79387 0.81032 0.34582 0.0
C3130 C 0.79403 0.81542 0.36499 0.0
H3131 H 0.84229 0.81779 0.41652 0.0
H3132 H 0.83251 0.81202 0.39262 0.0
H3133 H 0.84789 0.83488 0.40144 0.0
H3134 H 0.83516 0.84528 0.37542 0.0
H3135 H 0.83523 0.83568 0.3422 0.0
H3136 H 0.46293 0.57432 0.84131 0.0
H3137 H 0.47546 0.57219 0.87234 0.0
H3138 H 0.51206 0.54434 0.84836 0.0
H3139 H 0.49854 0.54518 0.81725 0.0
H3140 H 0.50576 0.52874 0.87484 0.0
H3141 H 0.51429 0.60344 0.90716 0.0
H3142 H 0.49162 0.59248 0.89907 0.0
H3143 H 0.50735 0.59547 0.8827 0.0
C3144 C 0.47377 0.56788 0.84258 0.0
C3145 C 0.47969 0.56014 0.82639 0.0
C3146 C 0.4812 0.56683 0.86062 0.0
C3147 C 0.4954 0.55862 0.86349 0.0
C3148 C 0.50129 0.55089 0.8472 0.0
H3149 H 0.55507 0.57756 0.97751 0.0
H3150 H 0.54335 0.58014 0.94615 0.0
C3151 C 0.49354 0.55148 0.82914 0.0
C3152 C 0.50361 0.55738 0.88308 0.0
H3153 H 0.51648 0.58175 0.92801 0.0
C3154 C 0.50817 0.54053 0.88631 0.0
C3155 C 0.50744 0.5726 0.8986 0.0
C3156 C 0.50511 0.59206 0.89667 0.0
C3157 C 0.51593 0.5384 0.90391 0.0
C3158 C 0.51863 0.55312 0.91973 0.0
C3159 C 0.51434 0.57009 0.91645 0.0
C3160 C 0.52609 0.55144 0.93946 0.0
C3161 C 0.52182 0.52048 0.9049 0.0
C3162 C 0.52053 0.53465 0.94717 0.0
C3163 C 0.52771 0.53298 0.96507 0.0
C3164 C 0.54034 0.54826 0.97659 0.0
C3165 C 0.54547 0.56534 0.96929 0.0
C3166 C 0.53862 0.56684 0.95113 0.0
H3167 H 0.52497 0.51452 0.89124 0.0
H3168 H 0.53359 0.52317 0.91527 0.0
H3169 H 0.51105 0.50944 0.90869 0.0
H3170 H 0.51038 0.52267 0.93945 0.0
H3171 H 0.52302 0.51967 0.97006 0.0
H3172 H 0.81195 0.22303 0.07013 0.0
H3173 H 0.82025 0.25252 0.0929 0.0
H3174 H 0.83174 0.22106 0.13563 0.0
H3175 H 0.82369 0.19158 0.113 0.0
H3176 H 0.80193 0.25686 0.12174 0.0
H3177 H 0.87161 0.26946 0.14876 0.0
H3178 H 0.86183 0.25414 0.12691 0.0
H3179 H 0.85989 0.2451 0.14839 0.0
C3180 C 0.81664 0.22243 0.0843 0.0
C3181 C 0.81697 0.2049 0.08982 0.0
C3182 C 0.82143 0.23934 0.09725 0.0
C3183 C 0.8268 0.23902 0.11588 0.0
C3184 C 0.82804 0.22171 0.12122 0.0
H3185 H 0.80486 0.27513 0.21749 0.0
H3186 H 0.80652 0.26348 0.18513 0.0
C3187 C 0.82325 0.2048 0.1083 0.0
C3188 C 0.82832 0.25585 0.13027 0.0
H3189 H 0.85329 0.28081 0.1705 0.0
C3190 C 0.81337 0.26255 0.13209 0.0
C3191 C 0.84331 0.26348 0.14363 0.0
C3192 C 0.86013 0.2578 0.1417 0.0
C3193 C 0.81241 0.27522 0.1479 0.0
C3194 C 0.82671 0.28117 0.16217 0.0
C3195 C 0.84228 0.27603 0.15954 0.0
C3196 C 0.82456 0.28952 0.181 0.0
C3197 C 0.79571 0.28115 0.1498 0.0
C3198 C 0.83414 0.30806 0.18929 0.0
C3199 C 0.83301 0.31489 0.20782 0.0
C3200 C 0.82258 0.30305 0.21823 0.0
C3201 C 0.81284 0.28462 0.20973 0.0
C3202 C 0.81377 0.27796 0.19126 0.0
H3203 H 0.78821 0.28019 0.13602 0.0
H3204 H 0.78735 0.27146 0.15765 0.0
H3205 H 0.79848 0.29598 0.1575 0.0
H3206 H 0.84266 0.31707 0.18156 0.0
H3207 H 0.84074 0.32912 0.21414 0.0
H3208 H 0.16819 0.50251 0.29474 0.0
H3209 H 0.15684 0.49361 0.32302 0.0
H3210 H 0.11854 0.52558 0.3163 0.0
H3211 H 0.12973 0.53454 0.28803 0.0
H3212 H 0.15479 0.51948 0.35535 0.0
H3213 H 0.08979 0.47226 0.32386 0.0
H3214 H 0.10785 0.47844 0.31064 0.0
H3215 H 0.09489 0.49492 0.31611 0.0
C3216 C 0.15728 0.50756 0.29923 0.0
C3217 C 0.1498 0.5192 0.28916 0.0
C3218 C 0.15083 0.50245 0.31535 0.0
C3219 C 0.13672 0.50872 0.32151 0.0
C3220 C 0.12925 0.52033 0.31152 0.0
H3221 H 0.09763 0.53448 0.42032 0.0
H3222 H 0.11414 0.53238 0.39415 0.0
C3223 C 0.13572 0.52553 0.29546 0.0
C3224 C 0.13025 0.504 0.33889 0.0
H3225 H 0.09295 0.48459 0.35644 0.0
C3226 C 0.14137 0.51155 0.35563 0.0
C3227 C 0.11285 0.49338 0.33912 0.0
C3228 C 0.10069 0.48411 0.32146 0.0
C3229 C 0.13514 0.50985 0.37271 0.0
C3230 C 0.11735 0.50053 0.37292 0.0
C3231 C 0.10657 0.49185 0.35619 0.0
C3232 C 0.10912 0.50159 0.3901 0.0
C3233 C 0.14746 0.51854 0.39037 0.0
C3234 C 0.10077 0.48492 0.39641 0.0
C3235 C 0.09137 0.48607 0.41152 0.0
C3236 C 0.09003 0.5039 0.42037 0.0
C3237 C 0.0987 0.52056 0.41412 0.0
C3238 C 0.10815 0.5194 0.39914 0.0
H3239 H 0.1613 0.51972 0.38815 0.0
H3240 H 0.14623 0.53315 0.39518 0.0
H3241 H 0.14428 0.50997 0.4015 0.0
H3242 H 0.10129 0.47105 0.38946 0.0
H3243 H 0.08499 0.473 0.41612 0.0
H3244 H 0.81729 0.9086 0.61878 0.0
H3245 H 0.81524 0.89486 0.6471 0.0
H3246 H 0.80958 0.83893 0.61545 0.0
H3247 H 0.81216 0.85271 0.58701 0.0
H3248 H 0.79023 0.86968 0.6582 0.0
H3249 H 0.84801 0.84047 0.65542 0.0
H3250 H 0.84339 0.85644 0.64028 0.0
H3251 H 0.83224 0.83136 0.63506 0.0
C3252 C 0.81563 0.89336 0.61776 0.0
C3253 C 0.81499 0.88181 0.60051 0.0
C3254 C 0.81446 0.8855 0.63405 0.0
C3255 C 0.8126 0.86587 0.63361 0.0
C3256 C 0.81151 0.8542 0.61634 0.0
H3257 H 0.77512 0.80289 0.72011 0.0
H3258 H 0.77864 0.81838 0.69291 0.0
C3259 C 0.81283 0.86208 0.60002 0.0
C3260 C 0.81143 0.85771 0.65117 0.0
H3261 H 0.82931 0.83083 0.67785 0.0
C3262 C 0.79884 0.86125 0.66249 0.0
C3263 C 0.82287 0.84701 0.65712 0.0
C3264 C 0.83751 0.84375 0.64645 0.0
C3265 C 0.79712 0.85412 0.67923 0.0
C3266 C 0.80797 0.84262 0.68471 0.0
C3267 C 0.82084 0.83944 0.67363 0.0
C3268 C 0.8059 0.83342 0.70159 0.0
C3269 C 0.78386 0.8593 0.69103 0.0
C3270 C 0.82015 0.83621 0.71549 0.0
C3271 C 0.8182 0.82709 0.73106 0.0
C3272 C 0.80198 0.81495 0.733 0.0
C3273 C 0.78777 0.81224 0.71912 0.0
C3274 C 0.78974 0.82123 0.70357 0.0
H3275 H 0.78091 0.87277 0.68826 0.0
H3276 H 0.77145 0.84778 0.68769 0.0
H3277 H 0.78853 0.86101 0.70604 0.0
H3278 H 0.8328 0.84544 0.71429 0.0
H3279 H 0.82942 0.82938 0.74144 0.0
H3280 H 0.75871 0.46882 0.47315 0.0
H3281 H 0.73741 0.48656 0.46529 0.0
H3282 H 0.7607 0.53016 0.51298 0.0
H3283 H 0.78204 0.51289 0.52064 0.0
H3284 H 0.71402 0.49225 0.48781 0.0
H3285 H 0.75101 0.56268 0.47595 0.0
H3286 H 0.76042 0.54256 0.47504 0.0
H3287 H 0.76058 0.55739 0.49691 0.0
C3288 C 0.75957 0.48247 0.48162 0.0
C3289 C 0.77194 0.48939 0.4976 0.0
C3290 C 0.74742 0.49258 0.47711 0.0
C3291 C 0.74761 0.50983 0.48839 0.0
C3292 C 0.76056 0.51719 0.50376 0.0
H3293 H 0.68498 0.57139 0.5373 0.0
H3294 H 0.70796 0.55913 0.52414 0.0
C3295 C 0.77265 0.50714 0.50826 0.0
C3296 C 0.7328 0.51859 0.48624 0.0
H3297 H 0.72378 0.56202 0.48957 0.0
C3298 C 0.71601 0.50739 0.48758 0.0
C3299 C 0.73542 0.53834 0.48593 0.0
C3300 C 0.75283 0.55085 0.48317 0.0
C3301 C 0.70216 0.51571 0.49033 0.0
C3302 C 0.70517 0.53571 0.49153 0.0
C3303 C 0.72159 0.54671 0.4888 0.0
C3304 C 0.69212 0.54555 0.49792 0.0
C3305 C 0.68477 0.50326 0.49335 0.0
C3306 C 0.67582 0.54245 0.48727 0.0
C3307 C 0.66266 0.54943 0.49477 0.0
C3308 C 0.66561 0.55971 0.51298 0.0
C3309 C 0.68231 0.56369 0.52318 0.0
C3310 C 0.69545 0.55667 0.5157 0.0
H3311 H 0.68535 0.48845 0.4944 0.0
H3312 H 0.68042 0.50945 0.50621 0.0
H3313 H 0.67474 0.50254 0.48156 0.0
H3314 H 0.67309 0.53407 0.47343 0.0
H3315 H 0.65001 0.54636 0.48654 0.0
H3316 H 0.22819 0.17276 0.49337 0.0
H3317 H 0.19873 0.15292 0.49457 0.0
H3318 H 0.2209 0.11119 0.51632 0.0
H3319 H 0.25039 0.13091 0.51527 0.0
H3320 H 0.18138 0.11451 0.47824 0.0
H3321 H 0.18936 0.12444 0.55512 0.0
H3322 H 0.20407 0.13929 0.54254 0.0
H3323 H 0.20616 0.11582 0.54476 0.0
C3324 C 0.22684 0.15929 0.49827 0.0
C3325 C 0.24176 0.15354 0.50432 0.0
C3326 C 0.20996 0.14796 0.49896 0.0
C3327 C 0.20758 0.13073 0.50587 0.0
C3328 C 0.22239 0.12461 0.51128 0.0
H3329 H 0.11613 0.03609 0.49856 0.0
H3330 H 0.14371 0.05832 0.49509 0.0
C3331 C 0.23927 0.13587 0.51053 0.0
C3332 C 0.18967 0.11926 0.50763 0.0
H3333 H 0.16392 0.10125 0.53918 0.0
C3334 C 0.17754 0.11168 0.49157 0.0
C3335 C 0.18452 0.11583 0.52506 0.0
C3336 C 0.19662 0.1244 0.5429 0.0
C3337 C 0.16064 0.10026 0.49241 0.0
C3338 C 0.15575 0.09616 0.50976 0.0
C3339 C 0.16768 0.10426 0.52587 0.0
C3340 C 0.13861 0.08291 0.51139 0.0
C3341 C 0.1481 0.09273 0.47472 0.0
C3342 C 0.12659 0.08921 0.52195 0.0
C3343 C 0.11075 0.07644 0.52397 0.0
C3344 C 0.10673 0.05714 0.51562 0.0
C3345 C 0.1188 0.0509 0.50509 0.0
C3346 C 0.13454 0.06363 0.503 0.0
H3347 H 0.15193 0.1012 0.46366 0.0
H3348 H 0.14814 0.07774 0.46965 0.0
H3349 H 0.13454 0.09289 0.47711 0.0
H3350 H 0.12947 0.10399 0.52866 0.0
H3351 H 0.10182 0.08162 0.53225 0.0
H3352 H 0.23425 0.98447 0.74837 0.0
H3353 H 0.24778 0.95773 0.747 0.0
H3354 H 0.2226 0.94002 0.79337 0.0
H3355 H 0.20935 0.96709 0.795 0.0
H3356 H 0.25339 0.93399 0.79806 0.0
H3357 H 0.23019 0.90342 0.72445 0.0
H3358 H 0.24317 0.92763 0.72718 0.0
H3359 H 0.22257 0.92245 0.73638 0.0
C3360 C 0.23146 0.97492 0.75831 0.0
C3361 C 0.22039 0.97839 0.77176 0.0
C3362 C 0.23919 0.95922 0.75739 0.0
C3363 C 0.23621 0.94589 0.76976 0.0
C3364 C 0.22536 0.94955 0.78341 0.0
H3365 H 0.26142 0.83161 0.74932 0.0
H3366 H 0.24778 0.85838 0.75076 0.0
C3367 C 0.21763 0.96527 0.78433 0.0
C3368 C 0.24452 0.92863 0.76879 0.0
H3369 H 0.25181 0.89098 0.73909 0.0
C3370 C 0.25293 0.92469 0.78505 0.0
C3371 C 0.24403 0.91565 0.75211 0.0
C3372 C 0.23435 0.91733 0.73408 0.0
C3373 C 0.26084 0.90908 0.7851 0.0
C3374 C 0.26099 0.89659 0.7683 0.0
C3375 C 0.25224 0.90027 0.7521 0.0
C3376 C 0.26976 0.87968 0.76729 0.0
C3377 C 0.2685 0.90588 0.80353 0.0
C3378 C 0.28709 0.88186 0.77569 0.0
C3379 C 0.295 0.86632 0.7749 0.0
C3380 C 0.28616 0.84764 0.76549 0.0
C3381 C 0.26894 0.84548 0.75679 0.0
C3382 C 0.26101 0.86105 0.7576 0.0
H3383 H 0.26245 0.91206 0.81514 0.0
H3384 H 0.26667 0.89043 0.80389 0.0
H3385 H 0.28273 0.91307 0.80597 0.0
H3386 H 0.29478 0.89578 0.78281 0.0
H3387 H 0.30824 0.86905 0.78174 0.0
H3388 H 0.34391 0.9287 0.99819 0.0
H3389 H 0.37575 0.94118 1.00378 0.0
H3390 H 0.37032 0.99786 0.0216 0.0
H3391 H 0.33846 0.98561 0.01589 0.0
H3392 H 0.39471 0.99621 0.99648 0.0
H3393 H 0.40581 0.95846 0.05495 0.0
H3394 H 0.39317 0.9431 0.03445 0.0
H3395 H 0.3845 0.96095 0.04682 0.0
C3396 C 0.34946 0.94383 1.00331 0.0
C3397 C 0.33863 0.95616 1.00668 0.0
C3398 C 0.36765 0.95089 1.00659 0.0
C3399 C 0.37531 0.97035 0.01339 0.0
C3400 C 0.36459 0.98276 0.01647 0.0
H3401 H 0.48566 0.0212 0.05533 0.0
H3402 H 0.45364 1.01146 0.05206 0.0
C3403 C 0.3464 0.97573 0.0132 0.0
C3404 C 0.39454 0.97783 0.0169 0.0
H3405 H 0.43109 0.9735 0.04217 0.0
C3406 C 0.40268 0.99135 1.00654 0.0
C3407 C 0.40482 0.97165 0.03024 0.0
C3408 C 0.39665 0.95788 0.0424 0.0
C3409 C 0.42094 0.99843 1.00877 0.0
C3410 C 0.43124 0.9916 0.02152 0.0
C3411 C 0.42309 0.97854 0.03229 0.0
C3412 C 0.45053 0.99747 0.02351 0.0
C3413 C 0.42907 1.01319 0.99752 0.0
C3414 C 0.45928 0.99254 1.0086 0.0
C3415 C 0.47752 0.998 1.0104 0.0
C3416 C 0.48733 1.00844 0.0272 0.0
C3417 C 0.4785 1.01316 0.04221 0.0
C3418 C 0.46023 1.00764 0.04038 0.0
H3419 H 0.41943 0.02041 0.99206 0.0
H3420 H 0.44032 0.02417 1.00596 0.0
H3421 H 0.43398 1.00607 0.98554 0.0
H3422 H 0.45198 0.98439 0.99558 0.0
H3423 H 0.48389 0.99407 0.99859 0.0
H3424 H 0.93593 0.63552 0.83812 0.0
H3425 H 0.92561 0.6639 0.84791 0.0
H3426 H 0.87215 0.62988 0.8326 0.0
H3427 H 0.88231 0.60186 0.82295 0.0
H3428 H 0.9082 0.67707 0.82194 0.0
H3429 H 0.86673 0.66561 0.87718 0.0
H3430 H 0.88313 0.65276 0.87318 0.0
H3431 H 0.86137 0.64402 0.8605 0.0
C3432 C 0.92199 0.63405 0.83754 0.0
C3433 C 0.90988 0.61664 0.82959 0.0
C3434 C 0.91612 0.65022 0.84315 0.0
C3435 C 0.89811 0.64898 0.84121 0.0
C3436 C 0.88608 0.63116 0.8347 0.0
H3437 H 0.83172 0.68685 0.77949 0.0
H3438 H 0.85544 0.67717 0.79552 0.0
C3439 C 0.89191 0.61516 0.82894 0.0
C3440 C 0.89164 0.66628 0.84183 0.0
H3441 H 0.85508 0.68006 0.85153 0.0
C3442 C 0.89702 0.67829 0.82899 0.0
C3443 C 0.87732 0.66827 0.8513 0.0
C3444 C 0.87198 0.65707 0.86646 0.0
C3445 C 0.88691 0.69017 0.82344 0.0
C3446 C 0.87102 0.68976 0.83078 0.0
C3447 C 0.86703 0.67991 0.84552 0.0
C3448 C 0.85718 0.69651 0.82125 0.0
C3449 C 0.89262 0.70193 0.80875 0.0
C3450 C 0.84992 0.71011 0.83064 0.0
C3451 C 0.8363 0.71565 0.82149 0.0
C3452 C 0.82962 0.70745 0.8029 0.0
C3453 C 0.83675 0.6936 0.7937 0.0
C3454 C 0.85036 0.68814 0.80281 0.0
H3455 H 0.90713 0.70629 0.80963 0.0
H3456 H 0.88738 0.69321 0.79484 0.0
H3457 H 0.88772 0.71494 0.81003 0.0
H3458 H 0.85489 0.71654 0.84494 0.0
H3459 H 0.83124 0.7266 0.82883 0.0
H3460 H 0.84819 0.67101 0.99406 0.0
H3461 H 0.87403 0.6585 0.99232 0.0
H3462 H 0.85778 0.62422 0.03383 0.0
H3463 H 0.83213 0.63674 0.0358 0.0
H3464 H 0.89292 0.64387 0.04087 0.0
H3465 H 0.87587 0.60517 0.96819 0.0
H3466 H 0.87613 0.63001 0.97115 0.0
H3467 H 0.86016 0.61366 0.98097 0.0
C3468 C 0.85006 0.66072 1.00273 0.0
C3469 C 0.83802 0.65484 0.01502 0.0
C3470 C 0.86482 0.65351 1.00167 0.0
C3471 C 0.86778 0.64024 0.0128 0.0
C3472 C 0.85578 0.63441 0.02507 0.0
H3473 H 0.93517 0.56413 1.00367 0.0
H3474 H 0.91116 0.57943 1.00411 0.0
C3475 C 0.84107 0.64156 0.02613 0.0
C3476 C 0.8835 0.63262 1.01205 0.0
H3477 H 0.90352 0.60593 0.98362 0.0
C3478 C 0.89528 0.63563 0.02833 0.0
C3479 C 0.88649 0.62169 0.99574 0.0
C3480 C 0.87395 0.61725 0.97804 0.0
C3481 C 0.90988 0.62801 0.02877 0.0
C3482 C 0.91299 0.61727 1.01241 0.0
C3483 C 0.90124 0.61429 0.99612 0.0
C3484 C 0.92786 0.60821 1.01213 0.0
C3485 C 0.92155 0.63102 0.04691 0.0
C3486 C 0.94533 0.61928 0.01631 0.0
C3487 C 0.95917 0.61052 0.01623 0.0
C3488 C 0.95582 0.5905 1.01191 0.0
C3489 C 0.93829 0.57953 1.00744 0.0
C3490 C 0.92451 0.58828 1.00752 0.0
H3491 H 0.91513 0.63558 0.05894 0.0
H3492 H 0.9253 0.61776 0.04893 0.0
H3493 H 0.93371 0.64237 0.0468 0.0
H3494 H 0.9483 0.6347 0.01961 0.0
H3495 H 0.97246 0.61944 0.01979 0.0
H3496 H 0.19689 0.10157 0.79998 0.0
H3497 H 0.21279 0.13406 0.79769 0.0
H3498 H 0.25545 0.11318 0.77894 0.0
H3499 H 0.23915 0.0804 0.78043 0.0
H3500 H 0.24027 0.15941 0.81273 0.0
H3501 H 0.25245 0.14397 0.74012 0.0
H3502 H 0.23857 0.1263 0.75074 0.0
H3503 H 0.26204 0.13033 0.75434 0.0
C3504 C 0.20968 0.10372 0.79536 0.0
C3505 C 0.21648 0.08784 0.79035 0.0
C3506 C 0.21889 0.1226 0.79403 0.0
C3507 C 0.23542 0.12668 0.78763 0.0
C3508 C 0.24254 0.11091 0.78325 0.0
H3509 H 0.31454 0.23158 0.77678 0.0
H3510 H 0.29734 0.19939 0.7785 0.0
C3511 C 0.23322 0.09193 0.78438 0.0
C3512 C 0.24503 0.14726 0.78584 0.0
H3513 H 0.26779 0.17469 0.75699 0.0
C3514 C 0.24611 0.16259 0.80039 0.0
C3515 C 0.25281 0.15216 0.76983 0.0
C3516 C 0.25126 0.13737 0.7528 0.0
C3517 C 0.25485 0.18193 0.79963 0.0
C3518 C 0.26291 0.18669 0.78381 0.0
C3519 C 0.26179 0.17145 0.76923 0.0
C3520 C 0.2732 0.20705 0.78242 0.0
C3521 C 0.25583 0.19711 0.81615 0.0
C3522 C 0.26567 0.22277 0.78367 0.0
C3523 C 0.27562 0.24153 0.78244 0.0
C3524 C 0.29352 0.24529 0.78004 0.0
C3525 C 0.30087 0.22952 0.77863 0.0
C3526 C 0.29095 0.21088 0.77962 0.0
H3527 H 0.2526 0.19087 0.82873 0.0
H3528 H 0.2691 0.20719 0.81927 0.0
H3529 H 0.24631 0.2054 0.813 0.0
H3530 H 0.252 0.22055 0.78551 0.0
H3531 H 0.26936 0.25311 0.78365 0.0
H3532 H 0.3872 0.0161 0.31772 0.0
H3533 H 0.372 0.9823 0.30921 0.0
H3534 H 0.41838 0.97059 0.28951 0.0
H3535 H 0.43391 1.00457 0.2983 0.0
H3536 H 0.36595 0.96124 0.27339 0.0
H3537 H 0.40364 0.93044 0.32282 0.0
H3538 H 0.40491 0.95564 0.32574 0.0
H3539 H 0.41625 0.94529 0.30873 0.0
C3540 C 0.39427 1.00635 0.31178 0.0
C3541 C 0.41175 1.013 0.30864 0.0
C3542 C 0.38554 0.98705 0.30687 0.0
C3543 C 0.39408 0.97401 0.29875 0.0
C3544 C 0.41165 0.98045 0.29598 0.0
H3545 H 0.33363 0.85778 0.24633 0.0
H3546 H 0.3521 0.89065 0.25049 0.0
C3547 C 0.42049 0.99983 0.301 0.0
C3548 C 0.38416 0.95383 0.29268 0.0
H3549 H 0.38064 0.90892 0.30203 0.0
C3550 C 0.3692 0.94973 0.27951 0.0
C3551 C 0.38848 0.93897 0.3008 0.0
C3552 C 0.40411 0.94272 0.31541 0.0
C3553 C 0.35809 0.9312 0.27465 0.0
C3554 C 0.36228 0.91639 0.28296 0.0
C3555 C 0.37754 0.92037 0.29568 0.0
C3556 C 0.35035 0.89696 0.27985 0.0
C3557 C 0.34159 0.92779 0.26131 0.0
C3558 C 0.34326 0.88973 0.29495 0.0
C3559 C 0.33288 0.87104 0.29266 0.0
C3560 C 0.32938 0.85919 0.27521 0.0
C3561 C 0.33601 0.86663 0.25992 0.0
C3562 C 0.34654 0.88538 0.26226 0.0
H3563 H 0.33855 0.94137 0.2591 0.0
H3564 H 0.34325 0.92016 0.2477 0.0
H3565 H 0.33024 0.91874 0.26645 0.0
H3566 H 0.34599 0.89851 0.30861 0.0
H3567 H 0.32789 0.86577 0.3047 0.0
H3568 H 0.61594 0.3711 0.58947 0.0
H3569 H 0.61038 0.39841 0.57666 0.0
H3570 H 0.57216 0.40256 0.61399 0.0
H3571 H 0.5778 0.37534 0.62703 0.0
H3572 H 0.58022 0.40331 0.55889 0.0
H3573 H 0.60302 0.45724 0.6231 0.0
H3574 H 0.60746 0.43409 0.62067 0.0
H3575 H 0.58636 0.43659 0.62576 0.0
C3576 C 0.60639 0.37784 0.59504 0.0
C3577 C 0.5974 0.371 0.6094 0.0
C3578 C 0.60319 0.39349 0.58765 0.0
C3579 C 0.59102 0.40284 0.59448 0.0
C3580 C 0.58189 0.39593 0.60869 0.0
H3581 H 0.54429 0.48091 0.54026 0.0
H3582 H 0.55033 0.45347 0.55234 0.0
C3583 C 0.58506 0.38024 0.61609 0.0
C3584 C 0.58775 0.41958 0.5865 0.0
H3585 H 0.58898 0.46694 0.59767 0.0
C3586 C 0.58216 0.41721 0.56739 0.0
C3587 C 0.59049 0.43788 0.59746 0.0
C3588 C 0.59732 0.44173 0.61785 0.0
C3589 C 0.57898 0.43244 0.55905 0.0
C3590 C 0.58123 0.4506 0.57011 0.0
C3591 C 0.58709 0.45304 0.58916 0.0
C3592 C 0.57765 0.46724 0.5622 0.0
C3593 C 0.57355 0.42901 0.53838 0.0
C3594 C 0.59087 0.48438 0.56384 0.0
C3595 C 0.58745 0.5002 0.55694 0.0
C3596 C 0.57063 0.49937 0.54832 0.0
C3597 C 0.55743 0.48214 0.54663 0.0
C3598 C 0.56089 0.46633 0.55351 0.0
H3599 H 0.57703 0.41626 0.5313 0.0
H3600 H 0.55914 0.42648 0.53557 0.0
H3601 H 0.5798 0.44159 0.53225 0.0
H3602 H 0.6039 0.48555 0.57053 0.0
H3603 H 0.59795 0.51318 0.55862 0.0
H3604 H 0.48436 0.80612 0.35668 0.0
H3605 H 0.45622 0.80573 0.34021 0.0
H3606 H 0.43213 0.75319 0.3585 0.0
H3607 H 0.46032 0.75382 0.37558 0.0
H3608 H 0.43587 0.78131 0.31232 0.0
H3609 H 0.39855 0.78425 0.37242 0.0
H3610 H 0.42202 0.7882 0.37514 0.0
H3611 H 0.40791 0.76429 0.36954 0.0
C3612 C 0.47311 0.79445 0.35724 0.0
C3613 C 0.47465 0.78001 0.36752 0.0
C3614 C 0.45696 0.79426 0.3478 0.0
C3615 C 0.44188 0.77962 0.34831 0.0
C3616 C 0.44341 0.76493 0.35825 0.0
H3617 H 0.34855 0.76052 0.26754 0.0
H3618 H 0.37425 0.75708 0.28637 0.0
C3619 C 0.4596 0.76519 0.36787 0.0
C3620 C 0.42482 0.77967 0.33793 0.0
H3621 H 0.38239 0.77986 0.34262 0.0
C3622 C 0.42419 0.78097 0.31899 0.0
C3623 C 0.40957 0.7795 0.3466 0.0
C3624 C 0.40952 0.77917 0.36708 0.0
C3625 C 0.40889 0.78213 0.30854 0.0
C3626 C 0.39351 0.78144 0.31707 0.0
C3627 C 0.3941 0.78018 0.33602 0.0
C3628 C 0.3769 0.78252 0.30659 0.0
C3629 C 0.40954 0.78467 0.28856 0.0
C3630 C 0.36926 0.79745 0.31211 0.0
C3631 C 0.35443 0.79934 0.30143 0.0
C3632 C 0.34695 0.7863 0.28503 0.0
C3633 C 0.35416 0.77093 0.27996 0.0
C3634 C 0.36891 0.769 0.29068 0.0
H3635 H 0.4232 0.79016 0.28569 0.0
H3636 H 0.40385 0.77064 0.27941 0.0
H3637 H 0.40188 0.79468 0.28486 0.0
H3638 H 0.37508 0.80799 0.3244 0.0
H3639 H 0.34912 0.81128 0.30573 0.0
H3640 H 0.06174 0.75475 0.12346 0.0
H3641 H 0.05829 0.72185 0.10855 0.0
H3642 H 0.09337 0.74184 0.06991 0.0
H3643 H 0.09664 0.77499 0.08457 0.0
H3644 H 0.06536 0.71171 0.05313 0.0
H3645 H 0.09607 0.69432 0.11685 0.0
H3646 H 0.07743 0.70336 0.1206 0.0
H3647 H 0.09662 0.71851 0.11407 0.0
C3648 C 0.06861 0.75223 0.11167 0.0
C3649 C 0.07962 0.76757 0.10535 0.0
C3650 C 0.06671 0.73335 0.10323 0.0
C3651 C 0.07594 0.72931 0.08842 0.0
C3652 C 0.08624 0.74459 0.08144 0.0
H3653 H 0.09428 0.61721 0.05585 0.0
H3654 H 0.09737 0.65115 0.06673 0.0
C3655 C 0.08807 0.76355 0.08981 0.0
C3656 C 0.07518 0.70914 0.08066 0.0
H3657 H 0.08226 0.66809 0.0928 0.0
C3658 C 0.06913 0.70219 0.06177 0.0
C3659 C 0.08042 0.69678 0.09184 0.0
C3660 C 0.08817 0.70365 0.11192 0.0
C3661 C 0.06772 0.6831 0.0539 0.0
C3662 C 0.07217 0.6705 0.06531 0.0
C3663 C 0.07864 0.67762 0.08408 0.0
C3664 C 0.07028 0.6499 0.05814 0.0
C3665 C 0.06177 0.67674 0.03338 0.0
C3666 C 0.05398 0.63775 0.04984 0.0
C3667 C 0.05219 0.61833 0.04352 0.0
C3668 C 0.06661 0.61052 0.04556 0.0
C3669 C 0.08288 0.62268 0.05406 0.0
C3670 C 0.08467 0.64213 0.06028 0.0
H3671 H 0.06404 0.68905 0.02583 0.0
H3672 H 0.06867 0.66636 0.02727 0.0
H3673 H 0.04751 0.6697 0.03114 0.0
H3674 H 0.04255 0.64323 0.04846 0.0
H3675 H 0.03943 0.60942 0.03714 0.0
H3676 H 0.0589 0.24769 0.85587 0.0
H3677 H 0.08702 0.25279 0.8438 0.0
H3678 H 0.10751 0.30424 0.88425 0.0
H3679 H 0.07938 0.29911 0.89662 0.0
H3680 H 0.10534 0.2832 0.82875 0.0
H3681 H 0.14413 0.27454 0.89219 0.0
H3682 H 0.12049 0.26767 0.88876 0.0
H3683 H 0.13225 0.29238 0.89573 0.0
C3684 C 0.06935 0.26013 0.86223 0.0
C3685 C 0.06688 0.27295 0.8773 0.0
C3686 C 0.08545 0.26302 0.85528 0.0
C3687 C 0.0995 0.27872 0.86329 0.0
C3688 C 0.09699 0.29179 0.87809 0.0
H3689 H 0.2068 0.31572 0.83813 0.0
H3690 H 0.17928 0.3126 0.85142 0.0
C3691 C 0.08085 0.28892 0.88506 0.0
C3692 C 0.11665 0.28136 0.85594 0.0
H3693 H 0.15982 0.28344 0.86757 0.0
C3694 C 0.11724 0.28324 0.83723 0.0
C3695 C 0.13222 0.28144 0.86702 0.0
C3696 C 0.13231 0.27874 0.887 0.0
C3697 C 0.13294 0.28533 0.82935 0.0
C3698 C 0.14846 0.28518 0.84036 0.0
C3699 C 0.14793 0.28352 0.85912 0.0
C3700 C 0.16534 0.28667 0.83262 0.0
C3701 C 0.13281 0.28802 0.80936 0.0
C3702 C 0.16683 0.2729 0.81789 0.0
C3703 C 0.18253 0.27469 0.8102 0.0
C3704 C 0.19716 0.29026 0.81711 0.0
C3705 C 0.19575 0.30372 0.83225 0.0
C3706 C 0.18005 0.3019 0.83994 0.0
H3707 H 0.12134 0.29297 0.80446 0.0
H3708 H 0.14495 0.29852 0.8074 0.0
H3709 H 0.13206 0.27416 0.80053 0.0
H3710 H 0.15579 0.2608 0.81224 0.0
H3711 H 0.18304 0.26412 0.79849 0.0
H3712 H 0.57935 0.77434 0.90755 0.0
H3713 H 0.56986 0.74599 0.92197 0.0
H3714 H 0.61778 0.76394 0.96 0.0
H3715 H 0.62732 0.79231 0.94584 0.0
H3716 H 0.58663 0.7166 0.92601 0.0
H3717 H 0.57911 0.75543 0.99403 0.0
H3718 H 0.58069 0.76635 0.97351 0.0
H3719 H 0.6001 0.76417 0.98664 0.0
C3720 C 0.58787 0.77225 0.91899 0.0
C3721 C 0.60405 0.78561 0.92562 0.0
C3722 C 0.58242 0.75606 0.92719 0.0
C3723 C 0.59301 0.75307 0.94222 0.0
C3724 C 0.60928 0.76621 0.94865 0.0
H3725 H 0.5966 0.65363 0.98945 0.0
H3726 H 0.60014 0.67961 0.97149 0.0
C3727 C 0.61474 0.78235 0.94046 0.0
C3728 C 0.58724 0.7361 0.95109 0.0
H3729 H 0.57926 0.72276 0.99276 0.0
C3730 C 0.58484 0.71789 0.94056 0.0
C3731 C 0.58465 0.73785 0.96998 0.0
C3732 C 0.58609 0.75699 0.98168 0.0
C3733 C 0.5806 0.70138 0.94864 0.0
C3734 C 0.57897 0.70324 0.96779 0.0
C3735 C 0.58069 0.72139 0.97812 0.0
C3736 C 0.57614 0.68666 0.97759 0.0
C3737 C 0.57791 0.68213 0.93664 0.0
C3738 C 0.5616 0.68218 0.98718 0.0
C3739 C 0.55956 0.66737 0.99751 0.0
C3740 C 0.57211 0.65685 0.99851 0.0
C3741 C 0.58657 0.66125 0.98871 0.0
C3742 C 0.5886 0.67608 0.97841 0.0
H3743 H 0.5745 0.68268 0.92176 0.0
H3744 H 0.59022 0.67761 0.93807 0.0
H3745 H 0.56738 0.67115 0.94091 0.0
H3746 H 0.55188 0.69024 0.98677 0.0
H3747 H 0.54819 0.66418 1.00475 0.0
H3748 H 0.06332 0.77308 0.65443 0.0
H3749 H 0.09396 0.78034 0.66778 0.0
H3750 H 0.07813 0.77179 0.72124 0.0
H3751 H 0.04736 0.7638 0.70782 0.0
H3752 H 0.11557 0.80608 0.69586 0.0
H3753 H 0.10511 0.73225 0.71123 0.0
H3754 H 0.0887 0.73948 0.69759 0.0
H3755 H 0.09196 0.74595 0.72245 0.0
C3756 C 0.06634 0.77295 0.66908 0.0
C3757 C 0.05294 0.76752 0.68001 0.0
C3758 C 0.08386 0.77716 0.6767 0.0
C3759 C 0.08828 0.77617 0.69539 0.0
C3760 C 0.07496 0.77212 0.70666 0.0
H3761 H 0.19991 0.80356 0.74063 0.0
H3762 H 0.16941 0.80494 0.73609 0.0
C3763 C 0.05741 0.76763 0.69899 0.0
C3764 C 0.10671 0.7779 0.7025 0.0
H3765 H 0.13361 0.75236 0.71861 0.0
C3766 C 0.11955 0.79443 0.70099 0.0
C3767 C 0.11181 0.76255 0.70901 0.0
C3768 C 0.09872 0.74398 0.71004 0.0
C3769 C 0.13744 0.79581 0.70527 0.0
C3770 C 0.1425 0.78038 0.71163 0.0
C3771 C 0.12963 0.76416 0.71377 0.0
C3772 C 0.16103 0.77991 0.71458 0.0
C3773 C 0.15072 0.81333 0.7021 0.0
C3774 C 0.1663 0.76513 0.70432 0.0
C3775 C 0.18355 0.76403 0.70716 0.0
C3776 C 0.19596 0.77779 0.72026 0.0
C3777 C 0.19066 0.79265 0.73052 0.0
C3778 C 0.17329 0.79362 0.72779 0.0
H3779 H 0.14475 0.82182 0.69333 0.0
H3780 H 0.15642 0.8226 0.71566 0.0
H3781 H 0.16155 0.80932 0.69536 0.0
H3782 H 0.157 0.75434 0.69412 0.0
H3783 H 0.18706 0.75218 0.6993 0.0
H3784 H 0.12704 0.40088 0.42895 0.0
H3785 H 0.12893 0.43243 0.44701 0.0
H3786 H 0.10032 0.40522 0.48736 0.0
H3787 H 0.09851 0.37399 0.46967 0.0
H3788 H 0.10003 0.44534 0.45384 0.0
H3789 H 0.13887 0.4467 0.52038 0.0
H3790 H 0.13916 0.43039 0.49956 0.0
H3791 H 0.12203 0.42472 0.51392 0.0
C3792 C 0.12153 0.40169 0.4419 0.0
C3793 C 0.11257 0.385 0.44787 0.0
C3794 C 0.12261 0.41968 0.45218 0.0
C3795 C 0.11501 0.42115 0.46867 0.0
C3796 C 0.10666 0.40445 0.47493 0.0
H3797 H 0.05456 0.48678 0.51803 0.0
H3798 H 0.06846 0.4654 0.49981 0.0
C3799 C 0.10548 0.38658 0.46468 0.0
C3800 C 0.11366 0.43979 0.47831 0.0
H3801 H 0.11722 0.46523 0.52181 0.0
C3802 C 0.10419 0.45 0.46861 0.0
C3803 C 0.11931 0.44605 0.49751 0.0
C3804 C 0.13058 0.43648 0.50838 0.0
C3805 C 0.09892 0.46528 0.47794 0.0
C3806 C 0.10302 0.47022 0.49743 0.0
C3807 C 0.1138 0.46114 0.50689 0.0
C3808 C 0.09484 0.4834 0.50837 0.0
C3809 C 0.08848 0.47557 0.46696 0.0
C3810 C 0.10514 0.50027 0.51962 0.0
C3811 C 0.09719 0.51247 0.53003 0.0
C3812 C 0.07887 0.50788 0.52933 0.0
C3813 C 0.06867 0.49075 0.51848 0.0
C3814 C 0.07659 0.47861 0.50806 0.0
H3815 H 0.09119 0.47438 0.45233 0.0
H3816 H 0.0743 0.46905 0.4669 0.0
H3817 H 0.09145 0.49093 0.47316 0.0
H3818 H 0.11926 0.5041 0.52015 0.0
H3819 H 0.10533 0.52567 0.53827 0.0
H3820 H 0.44925 0.25502 0.18072 0.0
H3821 H 0.42666 0.2636 0.19806 0.0
H3822 H 0.44909 0.24669 0.24659 0.0
H3823 H 0.47105 0.23709 0.22901 0.0
H3824 H 0.41546 0.23485 0.24353 0.0
H3825 H 0.43213 0.31057 0.2347 0.0
H3826 H 0.42653 0.29505 0.21266 0.0
H3827 H 0.4456 0.29495 0.2279 0.0
C3828 C 0.44932 0.25314 0.19509 0.0
C3829 C 0.4619 0.24549 0.20357 0.0
C3830 C 0.43652 0.25819 0.20503 0.0
C3831 C 0.43646 0.25626 0.22378 0.0
C3832 C 0.44893 0.2484 0.23218 0.0
H3833 H 0.37287 0.31461 0.28837 0.0
H3834 H 0.39773 0.30368 0.27827 0.0
C3835 C 0.46146 0.24293 0.22212 0.0
C3836 C 0.42323 0.26212 0.23457 0.0
H3837 H 0.40447 0.2987 0.24511 0.0
C3838 C 0.41319 0.2489 0.24407 0.0
C3839 C 0.42054 0.2806 0.23568 0.0
C3840 C 0.43193 0.29615 0.22736 0.0
C3841 C 0.40019 0.25345 0.25415 0.0
C3842 C 0.39665 0.27143 0.2541 0.0
C3843 C 0.40703 0.28483 0.24504 0.0
C3844 C 0.3819 0.27658 0.26267 0.0
C3845 C 0.39062 0.239 0.26493 0.0
C3846 C 0.36476 0.26477 0.25772 0.0
C3847 C 0.35061 0.27078 0.26392 0.0
C3848 C 0.35332 0.28896 0.27464 0.0
C3849 C 0.37046 0.30054 0.28004 0.0
C3850 C 0.38464 0.29433 0.27425 0.0
H3851 H 0.39896 0.22984 0.26926 0.0
H3852 H 0.38642 0.24601 0.27749 0.0
H3853 H 0.37885 0.22949 0.25593 0.0
H3854 H 0.3622 0.2513 0.24835 0.0
H3855 H 0.33748 0.26168 0.25938 0.0
H3856 H 0.65435 0.52117 0.3547 0.0
H3857 H 0.64091 0.52132 0.38359 0.0
H3858 H 0.62005 0.56767 0.37122 0.0
H3859 H 0.63316 0.56728 0.34226 0.0
H3860 H 0.64371 0.54461 0.41546 0.0
H3861 H 0.5761 0.53546 0.38316 0.0
H3862 H 0.59341 0.53312 0.36951 0.0
H3863 H 0.59088 0.55642 0.37825 0.0
C3864 C 0.6468 0.53136 0.35796 0.0
C3865 C 0.64491 0.54408 0.34555 0.0
C3866 C 0.63906 0.5315 0.37477 0.0
C3867 C 0.62884 0.54424 0.38008 0.0
C3868 C 0.62721 0.55715 0.36778 0.0
H3869 H 0.59823 0.56391 0.49706 0.0
H3870 H 0.61429 0.56599 0.46979 0.0
C3871 C 0.63495 0.55702 0.35099 0.0
C3872 C 0.62017 0.54411 0.39825 0.0
H3873 H 0.58117 0.54314 0.41596 0.0
C3874 C 0.63 0.54429 0.41539 0.0
C3875 C 0.60213 0.54343 0.39893 0.0
C3876 C 0.58995 0.5419 0.38148 0.0
C3877 C 0.62266 0.54403 0.43253 0.0
C3878 C 0.60472 0.54385 0.43328 0.0
C3879 C 0.59489 0.5435 0.41609 0.0
C3880 C 0.59552 0.54273 0.4511 0.0
C3881 C 0.63424 0.54333 0.44965 0.0
C3882 C 0.57926 0.52929 0.45059 0.0
C3883 C 0.5701 0.52813 0.46626 0.0
C3884 C 0.57647 0.54034 0.48358 0.0
C3885 C 0.59281 0.55386 0.48437 0.0
C3886 C 0.60211 0.55503 0.4685 0.0
H3887 H 0.64577 0.5382 0.44616 0.0
H3888 H 0.63914 0.55794 0.45789 0.0
H3889 H 0.62689 0.53384 0.45839 0.0
H3890 H 0.57346 0.51944 0.43786 0.0
H3891 H 0.55763 0.51751 0.46464 0.0
H3892 H 0.24987 0.88403 0.02729 0.0
H3893 H 0.24545 0.86877 0.05457 0.0
H3894 H 0.27123 0.92258 0.08999 0.0
H3895 H 0.27491 0.93804 0.06285 0.0
H3896 H 0.27233 0.86547 0.07462 0.0
H3897 H 0.23577 0.90151 0.12167 0.0
H3898 H 0.23583 0.90446 0.09769 0.0
H3899 H 0.25333 0.91881 0.11513 0.0
C3900 C 0.25401 0.89272 0.04094 0.0
C3901 C 0.26288 0.91216 0.04298 0.0
C3902 C 0.25147 0.88401 0.05651 0.0
C3903 C 0.25798 0.89451 0.07437 0.0
C3904 C 0.2657 0.91424 0.07645 0.0
H3905 H 0.3135 0.85687 0.15914 0.0
H3906 H 0.30281 0.87176 0.13433 0.0
C3907 C 0.26793 0.92305 0.06087 0.0
C3908 C 0.25979 0.88437 0.0902 0.0
H3909 H 0.25626 0.88638 0.13638 0.0
C3910 C 0.26844 0.86981 0.088 0.0
C3911 C 0.25466 0.88987 0.10766 0.0
C3912 C 0.24421 0.90438 0.1106 0.0
C3913 C 0.27287 0.86128 0.10293 0.0
C3914 C 0.26904 0.8679 0.1207 0.0
C3915 C 0.25953 0.88167 0.12278 0.0
C3916 C 0.27542 0.86101 0.13723 0.0
C3917 C 0.28184 0.84542 0.09954 0.0
C3918 C 0.2636 0.85092 0.14765 0.0
C3919 C 0.2697 0.84258 0.16196 0.0
C3920 C 0.2877 0.8442 0.16594 0.0
C3921 C 0.29955 0.85516 0.15611 0.0
C3922 C 0.29346 0.86362 0.14197 0.0
H3923 H 0.279 0.83824 0.0848 0.0
H3924 H 0.29622 0.85152 0.10282 0.0
H3925 H 0.2777 0.83452 0.10844 0.0
H3926 H 0.24963 0.84887 0.14424 0.0
H3927 H 0.26031 0.83415 0.16933 0.0
H3928 H 1.00107 0.56231 0.84072 0.0
H3929 H 0.01902 0.56787 0.87062 0.0
H3930 H 0.99286 0.60973 0.8922 0.0
H3931 H 0.97427 0.60371 0.86231 0.0
H3932 H 0.04171 0.59844 0.89257 0.0
H3933 H 0.98324 0.57191 0.92737 0.0
H3934 H 0.982 0.56988 0.90253 0.0
H3935 H 0.98342 0.59248 0.91668 0.0
C3936 C 0.99921 0.57285 0.85174 0.0
C3937 C 0.98608 0.58237 0.84925 0.0
C3938 C 1.00954 0.57606 0.86883 0.0
C3939 C 1.00705 0.58895 0.88373 0.0
C3940 C 0.99469 0.59939 0.881 0.0
H3941 H 0.07701 0.59809 0.98734 0.0
H3942 H 0.06241 0.60818 0.96113 0.0
C3943 C 0.98417 0.596 0.8639 0.0
C3944 C 0.01664 0.59016 0.90228 0.0
H3945 H 1.01071 0.57816 0.94487 0.0
C3946 C 0.03499 0.59428 0.90413 0.0
C3947 C 1.00776 0.58463 0.91727 0.0
C3948 C 0.98803 0.57932 0.91592 0.0
C3949 C 0.04465 0.59195 0.92018 0.0
C3950 C 0.0357 0.58582 0.9349 0.0
C3951 C 0.01748 0.58283 0.93349 0.0
C3952 C 0.04461 0.58025 0.95093 0.0
C3953 C 0.06418 0.59489 0.92073 0.0
C3954 C 0.03921 0.56135 0.95404 0.0
C3955 C 0.04735 0.55567 0.96903 0.0
C3956 C 0.06105 0.56879 0.98112 0.0
C3957 C 0.06657 0.58769 0.97802 0.0
C3958 C 0.05828 0.59344 0.96309 0.0
H3959 H 0.06847 0.59592 0.90684 0.0
H3960 H 0.07105 0.60838 0.93025 0.0
H3961 H 0.06832 0.583 0.92599 0.0
H3962 H 0.02871 0.55094 0.9448 0.0
H3963 H 0.04291 0.54102 0.97117 0.0
H3964 H 0.31463 0.20536 0.57707 0.0
H3965 H 0.31525 0.21994 0.6092 0.0
H3966 H 0.28998 0.26097 0.59079 0.0
H3967 H 0.28939 0.2465 0.55838 0.0
H3968 H 0.31749 0.27691 0.62069 0.0
H3969 H 0.27113 0.21234 0.63547 0.0
H3970 H 0.28995 0.2076 0.62597 0.0
H3971 H 0.27458 0.21605 0.61218 0.0
C3972 C 0.30933 0.2176 0.57975 0.0
C3973 C 0.30182 0.22462 0.56503 0.0
C3974 C 0.3096 0.22585 0.5982 0.0
C3975 C 0.3023 0.24128 0.60247 0.0
C3976 C 0.29556 0.24896 0.58785 0.0
H3977 H 0.27573 0.27579 0.71335 0.0
H3978 H 0.27461 0.26547 0.67993 0.0
C3979 C 0.29527 0.24069 0.56931 0.0
C3980 C 0.30142 0.24898 0.62219 0.0
H3981 H 0.28556 0.23603 0.66154 0.0
C3982 C 0.31042 0.26801 0.62959 0.0
C3983 C 0.29196 0.2375 0.63378 0.0
C3984 C 0.28121 0.21729 0.62644 0.0
C3985 C 0.31071 0.27564 0.64838 0.0
C3986 C 0.30193 0.26385 0.66019 0.0
C3987 C 0.29245 0.24503 0.65261 0.0
C3988 C 0.30267 0.27062 0.68048 0.0
C3989 C 0.32029 0.2963 0.65539 0.0
C3990 C 0.31877 0.27674 0.69203 0.0
C3991 C 0.31947 0.28263 0.71115 0.0
C3992 C 0.30404 0.28246 0.71925 0.0
C3993 C 0.28789 0.27618 0.70766 0.0
C3994 C 0.28722 0.27026 0.68851 0.0
H3995 H 0.32182 0.30467 0.64388 0.0
H3996 H 0.31334 0.30304 0.66575 0.0
H3997 H 0.33358 0.29713 0.66215 0.0
H3998 H 0.33085 0.27673 0.68631 0.0
H3999 H 0.33215 0.28726 0.71957 0.0
H4000 H 0.63502 0.54756 0.24585 0.0
H4001 H 0.6204 0.54897 0.21528 0.0
H4002 H 0.64636 0.50925 0.18924 0.0
H4003 H 0.66132 0.50809 0.21966 0.0
H4004 H 0.63959 0.55883 0.18051 0.0
H4005 H 0.59099 0.48793 0.16798 0.0
H4006 H 0.59992 0.50061 0.19116 0.0
H4007 H 0.61319 0.48948 0.17722 0.0
C4008 C 0.63753 0.53888 0.23372 0.0
C4009 C 0.64946 0.52756 0.2357 0.0
C4010 C 0.62915 0.5398 0.21603 0.0
C4011 C 0.63202 0.52919 0.19951 0.0
C4012 C 0.64363 0.51758 0.20148 0.0
H4013 H 0.58462 0.50958 0.08069 0.0
H4014 H 0.5984 0.50725 0.11129 0.0
C4015 C 0.65224 0.5169 0.2191 0.0
C4016 C 0.62338 0.53064 0.18037 0.0
H4017 H 0.59172 0.50604 0.14397 0.0
C4018 C 0.62907 0.54727 0.17261 0.0
C4019 C 0.60979 0.51562 0.1695 0.0
C4020 C 0.60294 0.49736 0.17678 0.0
C4021 C 0.62192 0.54917 0.15464 0.0
C4022 C 0.60787 0.53436 0.14388 0.0
C4023 C 0.60227 0.51765 0.15173 0.0
C4024 C 0.59901 0.53579 0.12466 0.0
C4025 C 0.63028 0.5669 0.14716 0.0
C4026 C 0.59403 0.55236 0.12118 0.0
C4027 C 0.58638 0.55385 0.10339 0.0
C4028 C 0.58278 0.53862 0.08819 0.0
C4029 C 0.58711 0.52175 0.09176 0.0
C4030 C 0.59507 0.5204 0.10952 0.0
H4031 H 0.64413 0.57306 0.15351 0.0
H4032 H 0.62999 0.5639 0.13188 0.0
H4033 H 0.62316 0.57791 0.15068 0.0
H4034 H 0.5959 0.56433 0.13231 0.0
H4035 H 0.58312 0.56703 0.10162 0.0
H4036 H 0.26957 0.89519 0.92959 0.0
H4037 H 0.26936 0.87252 0.90159 0.0
H4038 H 0.2857 0.83479 0.93525 0.0
H4039 H 0.2862 0.85742 0.96321 0.0
H4040 H 0.30679 0.84316 0.90882 0.0
H4041 H 0.2373 0.82047 0.87733 0.0
H4042 H 0.24574 0.84597 0.88288 0.0
H4043 H 0.2441 0.83202 0.90121 0.0
C4044 C 0.27279 0.8819 0.93103 0.0
C4045 C 0.278 0.87814 0.94858 0.0
C4046 C 0.27256 0.86891 0.91503 0.0
C4047 C 0.27735 0.85189 0.91637 0.0
C4048 C 0.2819 0.84781 0.93392 0.0
H4049 H 0.27716 0.7707 0.81538 0.0
H4050 H 0.27274 0.78269 0.84714 0.0
C4051 C 0.2822 0.86078 0.94988 0.0
C4052 C 0.27945 0.83939 0.89951 0.0
H4053 H 0.25845 0.81494 0.85722 0.0
C4054 C 0.29615 0.83673 0.89766 0.0
C4055 C 0.26551 0.8308 0.88509 0.0
C4056 C 0.24711 0.83228 0.88677 0.0
C4057 C 0.29949 0.82656 0.88136 0.0
C4058 C 0.28583 0.81906 0.86648 0.0
C4059 C 0.26892 0.82082 0.86866 0.0
C4060 C 0.28928 0.81117 0.84797 0.0
C4061 C 0.31771 0.82428 0.88002 0.0
C4062 C 0.30003 0.82323 0.83808 0.0
C4063 C 0.30249 0.81651 0.82009 0.0
C4064 C 0.29425 0.79757 0.81163 0.0
C4065 C 0.28375 0.78533 0.82166 0.0
C4066 C 0.28118 0.79215 0.83971 0.0
H4067 H 0.32509 0.82572 0.89397 0.0
H4068 H 0.3173 0.81018 0.87183 0.0
H4069 H 0.32499 0.8356 0.87297 0.0
H4070 H 0.30613 0.83805 0.8441 0.0
H4071 H 0.31047 0.82634 0.81262 0.0
H4072 H 0.92448 0.58864 0.74388 0.0
H4073 H 0.93041 0.59237 0.71222 0.0
H4074 H 0.98322 0.58874 0.726 0.0
H4075 H 0.97751 0.58491 0.75745 0.0
H4076 H 0.95959 0.61963 0.69781 0.0
H4077 H 0.95838 0.543 0.68239 0.0
H4078 H 0.94878 0.55278 0.70159 0.0
H4079 H 0.97202 0.55556 0.70353 0.0
C4080 C 0.93744 0.58888 0.74022 0.0
C4081 C 0.95047 0.58622 0.7531 0.0
C4082 C 0.94076 0.59106 0.72217 0.0
C4083 C 0.95715 0.59058 0.71683 0.0
C4084 C 0.97042 0.58893 0.72989 0.0
H4085 H 0.02331 0.61614 0.6382 0.0
H4086 H 1.00312 0.61863 0.66082 0.0
C4087 C 0.96713 0.58672 0.74785 0.0
C4088 C 0.96031 0.59039 0.69736 0.0
H4089 H 0.97274 0.56305 0.66242 0.0
C4090 C 0.96213 0.60719 0.68981 0.0
C4091 C 0.96313 0.57398 0.68686 0.0
C4092 C 0.96031 0.55523 0.6939 0.0
C4093 C 0.96808 0.6084 0.67248 0.0
C4094 C 0.9726 0.59253 0.6628 0.0
C4095 C 0.96941 0.57531 0.66981 0.0
C4096 C 0.9827 0.59384 0.64683 0.0
C4097 C 0.96983 0.62678 0.66495 0.0
C4098 C 0.97792 0.57927 0.63121 0.0
C4099 C 0.98977 0.57736 0.61864 0.0
C4100 C 1.00658 0.59012 0.62136 0.0
C4101 C 1.01066 0.60576 0.636 0.0
C4102 C 0.99893 0.60746 0.64875 0.0
H4103 H 0.95958 0.6338 0.66925 0.0
H4104 H 0.98273 0.63679 0.67074 0.0
H4105 H 0.96882 0.62436 0.64958 0.0
H4106 H 0.96548 0.56857 0.62946 0.0
H4107 H 0.98616 0.5651 0.60757 0.0
H4108 H 0.28221 0.25273 0.47059 0.0
H4109 H 0.28614 0.26676 0.44255 0.0
H4110 H 0.30799 0.22148 0.41987 0.0
H4111 H 0.30491 0.20795 0.44842 0.0
H4112 H 0.32568 0.25246 0.41143 0.0
H4113 H 0.25647 0.25142 0.39416 0.0
H4114 H 0.26496 0.26524 0.4167 0.0
H4115 H 0.26352 0.24 0.41249 0.0
C4116 C 0.28787 0.24574 0.45964 0.0
C4117 C 0.29316 0.22913 0.46177 0.0
C4118 C 0.28994 0.25369 0.44345 0.0
C4119 C 0.29688 0.24495 0.42865 0.0
C4120 C 0.30246 0.22851 0.43091 0.0
H4121 H 0.28783 0.28109 0.31933 0.0
H4122 H 0.2838 0.26324 0.34515 0.0
C4123 C 0.3007 0.22075 0.44728 0.0
C4124 C 0.29874 0.25323 0.41113 0.0
H4125 H 0.27709 0.27138 0.37861 0.0
C4126 C 0.31496 0.25642 0.40421 0.0
C4127 C 0.28472 0.25801 0.40118 0.0
C4128 C 0.26641 0.25327 0.4064 0.0
C4129 C 0.31771 0.26475 0.38821 0.0
C4130 C 0.3041 0.27091 0.37915 0.0
C4131 C 0.2877 0.2671 0.38565 0.0
C4132 C 0.30666 0.2815 0.36313 0.0
C4133 C 0.33511 0.26643 0.38099 0.0
C4134 C 0.3206 0.29798 0.36453 0.0
C4135 C 0.32313 0.30782 0.34956 0.0
C4136 C 0.31168 0.30163 0.33285 0.0
C4137 C 0.29725 0.28574 0.33172 0.0
C4138 C 0.29485 0.27567 0.3466 0.0
H4139 H 0.34135 0.25538 0.38509 0.0
H4140 H 0.33367 0.26494 0.36563 0.0
H4141 H 0.34409 0.28061 0.38703 0.0
H4142 H 0.32952 0.30337 0.37728 0.0
H4143 H 0.33416 0.32029 0.35106 0.0
H4144 H 0.34489 0.63229 0.52155 0.0
H4145 H 0.36698 0.61479 0.51597 0.0
H4146 H 0.35676 0.5892 0.56454 0.0
H4147 H 0.33458 0.60646 0.57016 0.0
H4148 H 0.39707 0.61737 0.54025 0.0
H4149 H 0.3543 0.54323 0.52407 0.0
H4150 H 0.34591 0.56394 0.52361 0.0
H4151 H 0.35117 0.55672 0.54532 0.0
C4152 C 0.34726 0.62283 0.53097 0.0
C4153 C 0.33799 0.62073 0.54629 0.0
C4154 C 0.35986 0.61285 0.52775 0.0
C4155 C 0.36328 0.60053 0.5397 0.0
C4156 C 0.35403 0.59836 0.55496 0.0
H4157 H 0.45599 0.56145 0.55864 0.0
H4158 H 0.43138 0.57578 0.56088 0.0
C4159 C 0.34146 0.60834 0.55821 0.0
C4160 C 0.3772 0.59071 0.53683 0.0
H4161 H 0.38504 0.54668 0.53 0.0
C4162 C 0.39445 0.60192 0.53788 0.0
C4163 C 0.37365 0.57056 0.53354 0.0
C4164 C 0.35524 0.55787 0.53138 0.0
C4165 C 0.40837 0.59349 0.53622 0.0
C4166 C 0.40492 0.57337 0.53375 0.0
C4167 C 0.38761 0.56213 0.53215 0.0
C4168 C 0.41916 0.56377 0.53275 0.0
C4169 C 0.42664 0.60618 0.53703 0.0
C4170 C 0.42004 0.55176 0.51641 0.0
C4171 C 0.43406 0.54354 0.51509 0.0
C4172 C 0.44737 0.54716 0.53014 0.0
C4173 C 0.44608 0.55867 0.54672 0.0
C4174 C 0.43206 0.56686 0.54802 0.0
H4175 H 0.42647 0.62067 0.53433 0.0
H4176 H 0.43384 0.60777 0.55108 0.0
H4177 H 0.43395 0.59983 0.52679 0.0
H4178 H 0.41014 0.54918 0.50452 0.0
H4179 H 0.43478 0.53489 0.50209 0.0
H4180 H 0.87197 0.9669 0.56132 0.0
H4181 H 0.90257 0.98373 0.56047 0.0
H4182 H 0.91387 0.93008 0.54186 0.0
H4183 H 0.88347 0.91314 0.54284 0.0
H4184 H 0.93895 0.95332 0.57003 0.0
H4185 H 0.92594 0.99344 0.51407 0.0
H4186 H 0.91404 0.99664 0.5334 0.0
H4187 H 0.90965 0.9735 0.51913 0.0
C4188 C 0.88093 0.95867 0.55699 0.0
C4189 C 0.87515 0.93864 0.55207 0.0
C4190 C 0.89843 0.96834 0.55643 0.0
C4191 C 0.91051 0.95821 0.55087 0.0
C4192 C 0.90482 0.93822 0.54614 0.0
H4193 H 0.01322 1.00525 0.51858 0.0
H4194 H 0.98362 0.98593 0.52019 0.0
C4195 C 0.88736 0.92857 0.54667 0.0
C4196 C 0.92912 0.96832 0.5501 0.0
H4197 H 0.95508 1.0016 0.52929 0.0
C4198 C 0.94247 0.96387 0.56111 0.0
C4199 C 0.93376 0.98187 0.53825 0.0
C4200 C 0.92013 0.98656 0.5254 0.0
C4201 C 0.96026 0.97286 0.56084 0.0
C4202 C 0.96484 0.9868 0.5494 0.0
C4203 C 0.95154 0.991 0.53816 0.0
C4204 C 0.98336 0.99733 0.54896 0.0
C4205 C 0.97405 0.9672 0.57259 0.0
C4206 C 0.99316 1.01001 0.56466 0.0
C4207 C 1.01009 0.02108 0.56376 0.0
C4208 C 0.01754 0.01966 0.54716 0.0
C4209 C 1.00791 1.00655 0.53162 0.0
C4210 C 0.99095 0.99558 0.53248 0.0
H4211 H 0.96876 0.95321 0.57694 0.0
H4212 H 0.98535 0.96635 0.56496 0.0
H4213 H 0.97892 0.97818 0.58526 0.0
H4214 H 0.98751 1.01176 0.57746 0.0
H4215 H 0.01718 0.03109 0.57594 0.0
H4216 H 0.91651 0.13887 0.27968 0.0
H4217 H 0.90337 0.16608 0.28164 0.0
H4218 H 0.86556 0.13656 0.23443 0.0
H4219 H 0.87866 0.10942 0.23243 0.0
H4220 H 0.89886 0.19186 0.25921 0.0
H4221 H 0.83228 0.15184 0.26785 0.0
H4222 H 0.8507 0.14165 0.26967 0.0
H4223 H 0.83983 0.14219 0.24725 0.0
C4224 C 0.90534 0.138 0.26969 0.0
C4225 C 0.89882 0.12139 0.25593 0.0
C4226 C 0.89774 0.15383 0.27081 0.0
C4227 C 0.88297 0.15389 0.25845 0.0
C4228 C 0.87654 0.13732 0.24461 0.0
H4229 H 0.81444 0.23343 0.24505 0.0
H4230 H 0.82827 0.20694 0.24343 0.0
C4231 C 0.88425 0.12158 0.24337 0.0
C4232 C 0.87462 0.17112 0.25983 0.0
H4233 H 0.83559 0.18364 0.26275 0.0
C4234 C 0.88501 0.1899 0.26008 0.0
C4235 C 0.85644 0.16934 0.26089 0.0
C4236 C 0.84415 0.15023 0.26159 0.0
C4237 C 0.87798 0.20623 0.26078 0.0
C4238 C 0.85978 0.20452 0.26202 0.0
C4239 C 0.84944 0.18568 0.26184 0.0
C4240 C 0.85121 0.22165 0.26316 0.0
C4241 C 0.89028 0.2251 0.25935 0.0
C4242 C 0.85877 0.23956 0.27494 0.0
C4243 C 0.85081 0.25511 0.27572 0.0
C4244 C 0.83459 0.25361 0.26505 0.0
C4245 C 0.82684 0.23563 0.25358 0.0
C4246 C 0.83488 0.22017 0.25267 0.0
H4247 H 0.90159 0.22305 0.25222 0.0
H4248 H 0.88354 0.2338 0.25164 0.0
H4249 H 0.89557 0.23319 0.2735 0.0
H4250 H 0.87087 0.2416 0.28392 0.0
H4251 H 0.85739 0.26837 0.28492 0.0
H4252 H 0.73207 0.14749 0.05041 0.0
H4253 H 0.70157 0.12926 0.04771 0.0
H4254 H 0.71803 0.07982 0.05942 0.0
H4255 H 0.74874 0.09825 0.06275 0.0
H4256 H 0.68559 0.09785 0.02252 0.0
H4257 H 0.68133 0.08169 0.09385 0.0
H4258 H 0.69954 0.09919 0.08823 0.0
H4259 H 0.69819 0.07414 0.0826 0.0
C4260 C 0.72922 0.13281 0.05266 0.0
C4261 C 0.74277 0.12427 0.0568 0.0
C4262 C 0.71179 0.1224 0.05107 0.0
C4263 C 0.70755 0.10323 0.05345 0.0
C4264 C 0.72103 0.09471 0.05788 0.0
H4265 H 0.60036 0.0321 0.01461 0.0
H4266 H 0.63226 0.04444 0.01806 0.0
C4267 C 0.73854 0.10522 0.05973 0.0
C4268 C 0.68897 0.09215 0.05038 0.0
H4269 H 0.65624 0.068 0.07175 0.0
C4270 C 0.67916 0.09125 0.03325 0.0
C4271 C 0.68067 0.08363 0.06445 0.0
C4272 C 0.6904 0.0848 0.08338 0.0
C4273 C 0.66112 0.08256 0.02995 0.0
C4274 C 0.65281 0.07404 0.04402 0.0
C4275 C 0.66271 0.07447 0.06097 0.0
C4276 C 0.63363 0.06598 0.04202 0.0
C4277 C 0.65104 0.08335 1.01178 0.0
C4278 C 0.62393 0.07368 0.05462 0.0
C4279 C 0.6058 0.06654 0.05282 0.0
C4280 C 0.59703 0.05165 0.0383 0.0
C4281 C 0.60676 0.04383 0.02574 0.0
C4282 C 0.62496 0.05085 0.02768 0.0
H4283 H 0.65858 0.09427 1.00445 0.0
H4284 H 0.64819 0.06925 1.0026 0.0
H4285 H 0.63839 0.08662 0.01398 0.0
H4286 H 0.63038 0.08537 0.06577 0.0
H4287 H 0.59866 0.07286 0.06271 0.0
H4288 H 0.22904 0.48427 0.23097 0.0
H4289 H 0.24397 0.46702 0.25029 0.0
H4290 H 0.21106 0.47488 0.29271 0.0
H4291 H 0.19602 0.49217 0.27351 0.0
H4292 H 0.24788 0.48599 0.30534 0.0
H4293 H 0.22587 0.41314 0.26367 0.0
H4294 H 0.2338 0.43124 0.25012 0.0
H4295 H 0.21447 0.43129 0.26109 0.0
C4296 C 0.2248 0.4821 0.24428 0.0
C4297 C 0.21136 0.48956 0.2507 0.0
C4298 C 0.2333 0.4722 0.25527 0.0
C4299 C 0.22847 0.46958 0.27281 0.0
C4300 C 0.21488 0.47672 0.27916 0.0
H4301 H 0.28409 0.39712 0.32134 0.0
H4302 H 0.26056 0.41276 0.3185 0.0
C4303 C 0.2063 0.48653 0.26814 0.0
C4304 C 0.23843 0.46037 0.28484 0.0
H4305 H 0.25235 0.42009 0.28488 0.0
C4306 C 0.24863 0.47144 0.30114 0.0
C4307 C 0.23906 0.44132 0.2795 0.0
C4308 C 0.22758 0.42848 0.26273 0.0
C4309 C 0.26051 0.46434 0.31149 0.0
C4310 C 0.26228 0.44586 0.30518 0.0
C4311 C 0.25108 0.43433 0.28968 0.0
C4312 C 0.27701 0.43897 0.31267 0.0
C4313 C 0.27139 0.47687 0.32874 0.0
C4314 C 0.29425 0.44894 0.31135 0.0
C4315 C 0.30783 0.4401 0.31318 0.0
C4316 C 0.30431 0.42106 0.31608 0.0
C4317 C 0.28733 0.41183 0.31922 0.0
C4318 C 0.27379 0.42072 0.3175 0.0
H4319 H 0.26429 0.48678 0.33537 0.0
H4320 H 0.27495 0.46825 0.33899 0.0
H4321 H 0.28361 0.48568 0.32492 0.0
H4322 H 0.29702 0.46292 0.30734 0.0
H4323 H 0.32081 0.44766 0.31095 0.0
H4324 H 0.26884 0.42738 0.02668 0.0
H4325 H 0.24348 0.44061 0.0228 0.0
H4326 H 0.26362 0.48102 0.0734 0.0
H4327 H 0.28903 0.46819 0.07718 0.0
H4328 H 0.21806 0.44267 0.04553 0.0
H4329 H 0.25376 0.51574 0.03803 0.0
H4330 H 0.26385 0.49615 0.0364 0.0
H4331 H 0.26193 0.50866 0.05873 0.0
C4332 C 0.26795 0.43921 0.03688 0.0
C4333 C 0.28108 0.4468 0.05217 0.0
C4334 C 0.25341 0.44673 0.03468 0.0
C4335 C 0.25173 0.46206 0.04763 0.0
C4336 C 0.26477 0.46954 0.06295 0.0
H4337 H 0.17573 0.52656 0.06853 0.0
H4338 H 0.20017 0.51187 0.06941 0.0
C4339 C 0.27929 0.46208 0.06515 0.0
C4340 C 0.23615 0.46991 0.04555 0.0
H4341 H 0.22406 0.51135 0.04372 0.0
C4342 C 0.21936 0.45765 0.04495 0.0
C4343 C 0.23779 0.48947 0.04478 0.0
C4344 C 0.25528 0.50323 0.04433 0.0
C4345 C 0.20428 0.46451 0.04423 0.0
C4346 C 0.20598 0.48414 0.04383 0.0
C4347 C 0.22274 0.49633 0.04414 0.0
C4348 C 0.19062 0.49245 0.04341 0.0
C4349 C 0.18672 0.45081 0.0445 0.0
C4350 C 0.17705 0.48649 0.02847 0.0
C4351 C 0.16294 0.49482 0.02797 0.0
C4352 C 0.16209 0.50934 0.04238 0.0
C4353 C 0.17572 0.51521 0.05734 0.0
C4354 C 0.18982 0.50692 0.0578 0.0
H4355 H 0.18809 0.43747 0.04927 0.0
H4356 H 0.17877 0.45752 0.05368 0.0
H4357 H 0.17948 0.44687 0.03027 0.0
H4358 H 0.17748 0.47558 0.01705 0.0
H4359 H 0.15268 0.48984 0.01628 0.0
H4360 H 0.92017 1.00873 0.28652 0.0
H4361 H 0.90292 0.97637 0.28717 0.0
H4362 H 0.86188 0.98386 0.24887 0.0
H4363 H 0.87932 0.01656 0.24805 0.0
H4364 H 0.87158 0.96104 0.29785 0.0
H4365 H 0.86747 0.93359 0.22291 0.0
H4366 H 0.88192 0.95637 0.23388 0.0
H4367 H 0.85895 0.95401 0.2279 0.0
C4368 C 0.90746 1.00369 0.27817 0.0
C4369 C 0.9014 0.01572 0.26715 0.0
C4370 C 0.89748 0.98492 0.2786 0.0
C4371 C 0.88099 0.977 0.26785 0.0
C4372 C 0.87465 0.98907 0.25707 0.0
H4373 H 0.80574 0.86216 0.24885 0.0
H4374 H 0.822 0.89512 0.24875 0.0
C4375 C 0.88463 1.00804 0.25675 0.0
C4376 C 0.87073 0.95636 0.26818 0.0
H4377 H 0.8517 0.91253 0.24068 0.0
C4378 C 0.86729 0.9505 0.28528 0.0
C4379 C 0.8649 0.94214 0.25197 0.0
C4380 C 0.8686 0.94671 0.23312 0.0
C4381 C 0.85811 0.93147 0.28658 0.0
C4382 C 0.85244 0.91716 0.27038 0.0
C4383 C 0.85588 0.92306 0.25327 0.0
C4384 C 0.84252 0.89632 0.27069 0.0
C4385 C 0.8541 0.9272 0.30544 0.0
C4386 C 0.84834 0.88507 0.28282 0.0
C4387 C 0.83879 0.86592 0.28302 0.0
C4388 C 0.82315 0.85712 0.27089 0.0
C4389 C 0.81762 0.8682 0.2585 0.0
C4390 C 0.82705 0.88729 0.2584 0.0
H4391 H 0.85417 0.94037 0.31508 0.0
H4392 H 0.84114 0.91679 0.30453 0.0
H4393 H 0.8643 0.92109 0.31154 0.0
H4394 H 0.86043 0.89099 0.29213 0.0
H4395 H 0.84368 0.85801 0.2927 0.0
H4396 H 0.72237 0.08099 0.74014 0.0
H4397 H 0.74197 0.11314 0.74414 0.0
H4398 H 0.6982 0.13725 0.7514 0.0
H4399 H 0.67865 0.10515 0.74822 0.0
H4400 H 0.7438 0.14169 0.72569 0.0
H4401 H 0.73105 0.16473 0.79704 0.0
H4402 H 0.72341 0.14024 0.78538 0.0
H4403 H 0.71134 0.1573 0.78091 0.0
C4404 C 0.71692 0.09315 0.74256 0.0
C4405 C 0.69902 0.0906 0.74407 0.0
C4406 C 0.72813 0.1115 0.74485 0.0
C4407 C 0.72161 0.12758 0.74851 0.0
C4408 C 0.7036 0.12504 0.7492 0.0
H4409 H 0.77368 0.24273 0.73682 0.0
H4410 H 0.75651 0.20948 0.73217 0.0
C4411 C 0.69243 0.10671 0.74724 0.0
C4412 C 0.73367 0.14699 0.75159 0.0
H4413 H 0.74626 0.18925 0.78181 0.0
C4414 C 0.74445 0.15206 0.73802 0.0
C4415 C 0.73478 0.16035 0.76789 0.0
C4416 C 0.72467 0.15532 0.78372 0.0
C4417 C 0.75603 0.1703 0.7401 0.0
C4418 C 0.75635 0.18402 0.75586 0.0
C4419 C 0.74586 0.17879 0.76962 0.0
C4420 C 0.76727 0.20395 0.75835 0.0
C4421 C 0.76798 0.17451 0.72552 0.0
C4422 C 0.77863 0.21208 0.77486 0.0
C4423 C 0.78814 0.23123 0.77775 0.0
C4424 C 0.78658 0.2425 0.76408 0.0
C4425 C 0.77534 0.2343 0.74749 0.0
C4426 C 0.76561 0.21525 0.74475 0.0
H4427 H 0.77037 0.16122 0.71819 0.0
H4428 H 0.76171 0.18108 0.71503 0.0
H4429 H 0.78079 0.18453 0.73167 0.0
H4430 H 0.78003 0.20365 0.78559 0.0
H4431 H 0.79671 0.23717 0.79068 0.0
loop_
_geom_bond_atom_site_label_1
_geom_bond_atom_site_label_2
_geom_bond_distance
_geom_bond_site_symmetry_2
_ccdc_geom_bond_type
O0 Cd1 2.223 . S
O0 C8 1.315 . S
Cd1 O0 2.223 . S
Cd1 O4 2.297 . S
Cd1 O5 2.439 . S
Cd1 O11 2.240 . S
Cd2 O3 2.240 . S
Cd2 O10 2.223 . S
Cd2 O12 2.297 . S
Cd2 O13 2.439 . S
O3 Cd2 2.240 . S
O3 C8 1.279 . S
O4 Cd1 2.297 . S
O4 C6 1.247 . S
O5 Cd1 2.439 . S
O5 C6 1.208 . S
C6 O4 1.247 . S
C6 O5 1.208 . S
C7 O12 1.247 . S
C7 O13 1.208 . S
C8 O0 1.315 . S
C8 O3 1.279 . S
C9 O10 1.315 . S
C9 O11 1.279 . S
O10 Cd2 2.223 . S
O10 C9 1.315 . S
O11 Cd1 2.240 . S
O11 C9 1.279 . S
O12 Cd2 2.297 . S
O12 C7 1.247 . S
O13 Cd2 2.439 . S
O13 C7 1.208 . S
O14 Cd15 2.248 . S
O14 C22 1.322 . S
Cd15 O14 2.248 . S
Cd15 O18 2.297 . S
Cd15 O19 2.439 . S
Cd15 O25 2.240 1_655 S
Cd16 O17 2.240 1_455 S
Cd16 O24 2.223 . S
Cd16 O26 2.297 . S
Cd16 O27 2.444 . S
O17 Cd16 2.240 1_655 S
O17 C22 1.279 . S
O18 Cd15 2.297 . S
O18 C20 1.247 . S
O19 Cd15 2.439 . S
O19 C20 1.208 . S
C20 O18 1.247 . S
C20 O19 1.208 . S
C21 O26 1.247 . S
C21 O27 1.214 . S
C22 O14 1.322 . S
C22 O17 1.279 . S
C23 O24 1.315 . S
C23 O25 1.279 . S
O24 Cd16 2.223 . S
O24 C23 1.315 . S
O25 Cd15 2.240 1_455 S
O25 C23 1.279 . S
O26 Cd16 2.297 . S
O26 C21 1.247 . S
O27 Cd16 2.444 . S
O27 C21 1.214 . S
O28 Cd29 2.223 . S
O28 C36 1.315 . S
Cd29 O28 2.223 . S
Cd29 O32 2.297 . S
Cd29 O33 2.439 . S
Cd29 O39 2.240 . S
Cd30 O31 2.240 . S
Cd30 O38 2.223 . S
Cd30 O40 2.297 . S
Cd30 O41 2.439 . S
O31 Cd30 2.240 . S
O31 C36 1.279 . S
O32 Cd29 2.297 . S
O32 C34 1.247 . S
O33 Cd29 2.439 . S
O33 C34 1.208 . S
C34 O32 1.247 . S
C34 O33 1.208 . S
C35 O40 1.247 . S
C35 O41 1.208 . S
C36 O28 1.315 . S
C36 O31 1.279 . S
C37 O38 1.315 . S
C37 O39 1.279 . S
O38 Cd30 2.223 . S
O38 C37 1.315 . S
O39 Cd29 2.240 . S
O39 C37 1.279 . S
O40 Cd30 2.297 . S
O40 C35 1.247 . S
O41 Cd30 2.439 . S
O41 C35 1.208 . S
O42 Cd43 2.223 . S
O42 C50 1.315 . S
Cd43 O42 2.223 . S
Cd43 O46 2.297 . S
Cd43 O47 2.439 . S
Cd43 O53 2.240 . S
Cd44 O45 2.240 . S
Cd44 O52 2.223 . S
Cd44 O54 2.297 . S
Cd44 O55 2.439 . S
O45 Cd44 2.240 . S
O45 C50 1.279 . S
O46 Cd43 2.297 . S
O46 C48 1.247 . S
O47 Cd43 2.439 . S
O47 C48 1.208 . S
C48 O46 1.247 . S
C48 O47 1.208 . S
C49 O54 1.247 . S
C49 O55 1.208 . S
C50 O42 1.315 . S
C50 O45 1.279 . S
C51 O52 1.315 . S
C51 O53 1.279 . S
O52 Cd44 2.223 . S
O52 C51 1.315 . S
O53 Cd43 2.240 . S
O53 C51 1.279 . S
O54 Cd44 2.297 . S
O54 C49 1.247 . S
O55 Cd44 2.439 . S
O55 C49 1.208 . S
O56 Cd57 2.223 . S
O56 C64 1.315 . S
Cd57 O56 2.223 . S
Cd57 O60 2.297 . S
Cd57 O61 2.439 . S
Cd57 O67 2.240 . S
Cd58 O59 2.240 . S
Cd58 O66 2.223 . S
Cd58 O68 2.297 . S
Cd58 O69 2.439 . S
O59 Cd58 2.240 . S
O59 C64 1.279 . S
O60 Cd57 2.297 . S
O60 C62 1.247 . S
O61 Cd57 2.439 . S
O61 C62 1.208 . S
C62 O60 1.247 . S
C62 O61 1.208 . S
C63 O68 1.247 . S
C63 O69 1.208 . S
C64 O56 1.315 . S
C64 O59 1.279 . S
C65 O66 1.315 . S
C65 O67 1.279 . S
O66 Cd58 2.223 . S
O66 C65 1.315 . S
O67 Cd57 2.240 . S
O67 C65 1.279 . S
O68 Cd58 2.297 . S
O68 C63 1.247 . S
O69 Cd58 2.439 . S
O69 C63 1.208 . S
O70 Cd71 2.223 . S
O70 C78 1.315 . S
Cd71 O70 2.223 . S
Cd71 O74 2.297 . S
Cd71 O75 2.439 . S
Cd71 O81 2.240 . S
Cd72 O73 2.240 . S
Cd72 O80 2.223 . S
Cd72 O82 2.297 . S
Cd72 O83 2.439 . S
O73 Cd72 2.240 . S
O73 C78 1.279 . S
O74 Cd71 2.297 . S
O74 C76 1.247 . S
O75 Cd71 2.439 . S
O75 C76 1.208 . S
C76 O74 1.247 . S
C76 O75 1.208 . S
C77 O82 1.247 . S
C77 O83 1.208 . S
C78 O70 1.315 . S
C78 O73 1.279 . S
C79 O80 1.315 . S
C79 O81 1.279 . S
O80 Cd72 2.223 . S
O80 C79 1.315 . S
O81 Cd71 2.240 . S
O81 C79 1.279 . S
O82 Cd72 2.297 . S
O82 C77 1.247 . S
O83 Cd72 2.439 . S
O83 C77 1.208 . S
O84 Cd85 2.223 . S
O84 C92 1.315 . S
Cd85 O84 2.223 . S
Cd85 O88 2.297 . S
Cd85 O89 2.439 . S
Cd85 O95 2.240 . S
Cd86 O87 2.240 . S
Cd86 O94 2.223 . S
Cd86 O96 2.297 . S
Cd86 O97 2.439 . S
O87 Cd86 2.240 . S
O87 C92 1.279 . S
O88 Cd85 2.297 . S
O88 C90 1.247 . S
O89 Cd85 2.439 . S
O89 C90 1.208 . S
C90 O88 1.247 . S
C90 O89 1.208 . S
C91 O96 1.247 . S
C91 O97 1.208 . S
C92 O84 1.315 . S
C92 O87 1.279 . S
C93 O94 1.315 . S
C93 O95 1.279 . S
O94 Cd86 2.223 . S
O94 C93 1.315 . S
O95 Cd85 2.240 . S
O95 C93 1.279 . S
O96 Cd86 2.297 . S
O96 C91 1.247 . S
O97 Cd86 2.439 . S
O97 C91 1.208 . S
O98 Cd99 2.223 . S
O98 C106 1.315 . S
Cd99 O98 2.223 . S
Cd99 O102 2.297 . S
Cd99 O103 2.439 . S
Cd99 O109 2.240 . S
Cd100 O101 2.240 . S
Cd100 O108 2.223 1_455 S
Cd100 O110 2.297 . S
Cd100 O111 2.439 . S
O101 Cd100 2.240 . S
O101 C106 1.279 . S
O102 Cd99 2.297 . S
O102 C104 1.247 . S
O103 Cd99 2.439 . S
O103 C104 1.208 . S
C104 O102 1.247 . S
C104 O103 1.208 . S
C105 O110 1.247 . S
C105 O111 1.208 . S
C106 O98 1.315 . S
C106 O101 1.279 . S
C107 O108 1.315 . S
C107 O109 1.279 1_655 S
O108 Cd100 2.223 1_655 S
O108 C107 1.315 . S
O109 Cd99 2.240 . S
O109 C107 1.279 1_455 S
O110 Cd100 2.297 . S
O110 C105 1.247 . S
O111 Cd100 2.439 . S
O111 C105 1.208 . S
O112 Cd113 2.223 . S
O112 C120 1.315 . S
Cd113 O112 2.223 . S
Cd113 O116 2.297 . S
Cd113 O117 2.439 . S
Cd113 O123 2.240 1_545 S
Cd114 O115 2.240 . S
Cd114 O122 2.223 1_545 S
Cd114 O124 2.297 . S
Cd114 O125 2.439 . S
O115 Cd114 2.240 . S
O115 C120 1.279 . S
O116 Cd113 2.297 . S
O116 C118 1.247 . S
O117 Cd113 2.439 . S
O117 C118 1.208 . S
C118 O116 1.247 . S
C118 O117 1.208 . S
C119 O124 1.247 . S
C119 O125 1.208 . S
C120 O112 1.315 . S
C120 O115 1.279 . S
C121 O122 1.315 . S
C121 O123 1.279 . S
O122 Cd114 2.223 1_565 S
O122 C121 1.315 . S
O123 Cd113 2.240 1_565 S
O123 C121 1.279 . S
O124 Cd114 2.297 . S
O124 C119 1.247 . S
O125 Cd114 2.439 . S
O125 C119 1.208 . S
O126 Cd127 2.223 . S
O126 C134 1.315 . S
Cd127 O126 2.223 . S
Cd127 O130 2.297 . S
Cd127 O131 2.439 . S
Cd127 O137 2.240 . S
Cd128 O129 2.240 . S
Cd128 O136 2.223 . S
Cd128 O138 2.297 . S
Cd128 O139 2.439 . S
O129 Cd128 2.240 . S
O129 C134 1.279 . S
O130 Cd127 2.297 . S
O130 C132 1.247 . S
O131 Cd127 2.439 . S
O131 C132 1.208 . S
C132 O130 1.247 . S
C132 O131 1.208 . S
C133 O138 1.247 . S
C133 O139 1.208 . S
C134 O126 1.315 . S
C134 O129 1.279 . S
C135 O136 1.315 . S
C135 O137 1.279 . S
O136 Cd128 2.223 . S
O136 C135 1.315 . S
O137 Cd127 2.240 . S
O137 C135 1.279 . S
O138 Cd128 2.297 . S
O138 C133 1.247 . S
O139 Cd128 2.439 . S
O139 C133 1.208 . S
O140 Cd141 2.223 1_545 S
O140 C148 1.315 1_545 S
Cd141 O140 2.223 1_565 S
Cd141 O144 2.297 . S
Cd141 O145 2.439 . S
Cd141 O151 2.240 1_565 S
Cd142 O143 2.240 1_545 S
Cd142 O150 2.223 . S
Cd142 O152 2.297 . S
Cd142 O153 2.439 1_545 S
O143 Cd142 2.240 1_565 S
O143 C148 1.279 . S
O144 Cd141 2.297 . S
O144 C146 1.247 . S
O145 Cd141 2.439 . S
O145 C146 1.208 . S
C146 O144 1.247 . S
C146 O145 1.208 . S
C147 O152 1.247 . S
C147 O153 1.208 1_545 S
C148 O140 1.315 1_565 S
C148 O143 1.279 . S
C149 O150 1.315 . S
C149 O151 1.279 . S
O150 Cd142 2.223 . S
O150 C149 1.315 . S
O151 Cd141 2.240 1_545 S
O151 C149 1.279 . S
O152 Cd142 2.297 . S
O152 C147 1.247 . S
O153 Cd142 2.439 1_565 S
O153 C147 1.208 1_565 S
O154 Cd155 2.223 . S
O154 C162 1.315 . S
Cd155 O154 2.223 . S
Cd155 O158 2.297 . S
Cd155 O159 2.439 1_554 S
Cd155 O165 2.276 . S
Cd156 O157 2.240 1_556 S
Cd156 O164 2.223 1_556 S
Cd156 O166 2.297 . S
Cd156 O167 2.439 . S
O157 Cd156 2.240 1_554 S
O157 C162 1.279 . S
O158 Cd155 2.297 . S
O158 C160 1.247 . S
O159 Cd155 2.439 1_556 S
O159 C160 1.208 1_556 S
C160 O158 1.247 . S
C160 O159 1.208 1_554 S
C161 O166 1.247 . S
C161 O167 1.208 . S
C162 O154 1.315 . S
C162 O157 1.279 . S
C163 O164 1.315 . S
C163 O165 1.302 . S
O164 Cd156 2.223 1_554 S
O164 C163 1.315 . S
O165 Cd155 2.276 . S
O165 C163 1.302 . S
O166 Cd156 2.297 . S
O166 C161 1.247 . S
O167 Cd156 2.439 . S
O167 C161 1.208 . S
O168 Cd169 2.223 . S
O168 C176 1.315 . S
Cd169 O168 2.223 . S
Cd169 O172 2.297 . S
Cd169 O173 2.439 . S
Cd169 O179 2.240 . S
Cd170 O171 2.240 . S
Cd170 O178 2.223 . S
Cd170 O180 2.297 1_554 S
Cd170 O181 2.439 1_554 S
O171 Cd170 2.240 . S
O171 C176 1.279 . S
O172 Cd169 2.297 . S
O172 C174 1.247 . S
O173 Cd169 2.439 . S
O173 C174 1.208 . S
C174 O172 1.247 . S
C174 O173 1.208 . S
C175 O180 1.247 . S
C175 O181 1.208 . S
C176 O168 1.315 . S
C176 O171 1.279 . S
C177 O178 1.315 . S
C177 O179 1.279 . S
O178 Cd170 2.223 . S
O178 C177 1.315 . S
O179 Cd169 2.240 . S
O179 C177 1.279 . S
O180 Cd170 2.297 1_556 S
O180 C175 1.247 . S
O181 Cd170 2.439 1_556 S
O181 C175 1.208 . S
O182 Cd183 2.223 . S
O182 C190 1.315 . S
Cd183 O182 2.223 . S
Cd183 O186 2.297 . S
Cd183 O187 2.439 . S
Cd183 O193 2.240 . S
Cd184 O185 2.240 . S
Cd184 O192 2.223 . S
Cd184 O194 2.297 1_554 S
Cd184 O195 2.439 1_554 S
O185 Cd184 2.240 . S
O185 C190 1.279 . S
O186 Cd183 2.297 . S
O186 C188 1.247 . S
O187 Cd183 2.439 . S
O187 C188 1.208 . S
C188 O186 1.247 . S
C188 O187 1.208 . S
C189 O194 1.247 . S
C189 O195 1.208 . S
C190 O182 1.315 . S
C190 O185 1.279 . S
C191 O192 1.315 . S
C191 O193 1.279 . S
O192 Cd184 2.223 . S
O192 C191 1.315 . S
O193 Cd183 2.240 . S
O193 C191 1.279 . S
O194 Cd184 2.297 1_556 S
O194 C189 1.247 . S
O195 Cd184 2.439 1_556 S
O195 C189 1.208 . S
O196 Cd197 2.223 . S
O196 C204 1.315 . S
Cd197 O196 2.223 . S
Cd197 O200 2.297 . S
Cd197 O201 2.439 . S
Cd197 O207 2.240 . S
Cd198 O199 2.240 . S
Cd198 O206 2.223 . S
Cd198 O208 2.297 . S
Cd198 O209 2.439 . S
O199 Cd198 2.240 . S
O199 C204 1.279 . S
O200 Cd197 2.297 . S
O200 C202 1.247 . S
O201 Cd197 2.439 . S
O201 C202 1.208 . S
C202 O200 1.247 . S
C202 O201 1.208 . S
C203 O208 1.247 . S
C203 O209 1.208 . S
C204 O196 1.315 . S
C204 O199 1.279 . S
C205 O206 1.315 . S
C205 O207 1.279 . S
O206 Cd198 2.223 . S
O206 C205 1.315 . S
O207 Cd197 2.240 . S
O207 C205 1.279 . S
O208 Cd198 2.297 . S
O208 C203 1.247 . S
O209 Cd198 2.439 . S
O209 C203 1.208 . S
O210 Cd211 2.223 . S
O210 C218 1.315 . S
Cd211 O210 2.223 . S
Cd211 O214 2.297 . S
Cd211 O215 2.439 . S
Cd211 O221 2.240 . S
Cd212 O213 2.240 . S
Cd212 O220 2.223 . S
Cd212 O222 2.297 . S
Cd212 O223 2.439 . S
O213 Cd212 2.240 . S
O213 C218 1.279 . S
O214 Cd211 2.297 . S
O214 C216 1.247 . S
O215 Cd211 2.439 . S
O215 C216 1.208 . S
C216 O214 1.247 . S
C216 O215 1.208 . S
C217 O222 1.247 . S
C217 O223 1.208 . S
C218 O210 1.315 . S
C218 O213 1.279 . S
C219 O220 1.315 . S
C219 O221 1.279 . S
O220 Cd212 2.223 . S
O220 C219 1.315 . S
O221 Cd211 2.240 . S
O221 C219 1.279 . S
O222 Cd212 2.297 . S
O222 C217 1.247 . S
O223 Cd212 2.439 . S
O223 C217 1.208 . S
O224 Cd225 2.223 . S
O224 C232 1.315 . S
Cd225 O224 2.223 . S
Cd225 O228 2.297 . S
Cd225 O229 2.439 . S
Cd225 O235 2.240 . S
Cd226 O227 2.240 . S
Cd226 O234 2.223 . S
Cd226 O236 2.297 . S
Cd226 O237 2.439 . S
O227 Cd226 2.240 . S
O227 C232 1.279 . S
O228 Cd225 2.297 . S
O228 C230 1.247 . S
O229 Cd225 2.439 . S
O229 C230 1.208 . S
C230 O228 1.247 . S
C230 O229 1.208 . S
C231 O236 1.247 . S
C231 O237 1.208 . S
C232 O224 1.315 . S
C232 O227 1.279 . S
C233 O234 1.315 . S
C233 O235 1.279 . S
O234 Cd226 2.223 . S
O234 C233 1.315 . S
O235 Cd225 2.240 . S
O235 C233 1.279 . S
O236 Cd226 2.297 . S
O236 C231 1.247 . S
O237 Cd226 2.439 . S
O237 C231 1.208 . S
O238 Cd239 2.223 . S
O238 C246 1.315 . S
Cd239 O238 2.223 . S
Cd239 O242 2.297 . S
Cd239 O243 2.439 . S
Cd239 O249 2.240 . S
Cd240 O241 2.240 . S
Cd240 O248 2.223 . S
Cd240 O250 2.297 . S
Cd240 O251 2.439 . S
O241 Cd240 2.240 . S
O241 C246 1.279 . S
O242 Cd239 2.297 . S
O242 C244 1.247 . S
O243 Cd239 2.439 . S
O243 C244 1.208 . S
C244 O242 1.247 . S
C244 O243 1.208 . S
C245 O250 1.247 . S
C245 O251 1.208 . S
C246 O238 1.315 . S
C246 O241 1.279 . S
C247 O248 1.315 . S
C247 O249 1.279 . S
O248 Cd240 2.223 . S
O248 C247 1.315 . S
O249 Cd239 2.240 . S
O249 C247 1.279 . S
O250 Cd240 2.297 . S
O250 C245 1.247 . S
O251 Cd240 2.439 . S
O251 C245 1.208 . S
O252 Cd253 2.223 . S
O252 C260 1.315 . S
Cd253 O252 2.223 . S
Cd253 O256 2.297 . S
Cd253 O257 2.439 . S
Cd253 O263 2.240 . S
Cd254 O255 2.240 . S
Cd254 O262 2.223 . S
Cd254 O264 2.297 . S
Cd254 O265 2.439 . S
O255 Cd254 2.240 . S
O255 C260 1.279 . S
O256 Cd253 2.297 . S
O256 C258 1.247 . S
O257 Cd253 2.439 . S
O257 C258 1.208 . S
C258 O256 1.247 . S
C258 O257 1.208 . S
C259 O264 1.247 . S
C259 O265 1.208 . S
C260 O252 1.315 . S
C260 O255 1.279 . S
C261 O262 1.315 . S
C261 O263 1.279 . S
O262 Cd254 2.223 . S
O262 C261 1.315 . S
O263 Cd253 2.240 . S
O263 C261 1.279 . S
O264 Cd254 2.297 . S
O264 C259 1.247 . S
O265 Cd254 2.439 . S
O265 C259 1.208 . S
O266 Cd267 2.223 . S
O266 C274 1.315 . S
Cd267 O266 2.223 . S
Cd267 O270 2.297 . S
Cd267 O271 2.439 . S
Cd267 O277 2.240 . S
Cd268 O269 2.240 . S
Cd268 O276 2.223 . S
Cd268 O278 2.297 . S
Cd268 O279 2.439 . S
O269 Cd268 2.240 . S
O269 C274 1.279 . S
O270 Cd267 2.297 . S
O270 C272 1.247 . S
O271 Cd267 2.439 . S
O271 C272 1.208 . S
C272 O270 1.247 . S
C272 O271 1.208 . S
C273 O278 1.247 . S
C273 O279 1.208 . S
C274 O266 1.315 . S
C274 O269 1.279 . S
C275 O276 1.315 . S
C275 O277 1.279 . S
O276 Cd268 2.223 . S
O276 C275 1.315 . S
O277 Cd267 2.240 . S
O277 C275 1.279 . S
O278 Cd268 2.297 . S
O278 C273 1.247 . S
O279 Cd268 2.439 . S
O279 C273 1.208 . S
O280 Cd281 2.223 . S
O280 C288 1.315 . S
Cd281 O280 2.223 . S
Cd281 O284 2.297 . S
Cd281 O285 2.439 . S
Cd281 O291 2.240 . S
Cd282 O283 2.240 . S
Cd282 O290 2.223 . S
Cd282 O292 2.297 1_554 S
Cd282 O293 2.439 1_554 S
O283 Cd282 2.240 . S
O283 C288 1.279 . S
O284 Cd281 2.297 . S
O284 C286 1.247 . S
O285 Cd281 2.439 . S
O285 C286 1.208 . S
C286 O284 1.247 . S
C286 O285 1.208 . S
C287 O292 1.247 . S
C287 O293 1.208 . S
C288 O280 1.315 . S
C288 O283 1.279 . S
C289 O290 1.315 . S
C289 O291 1.279 . S
O290 Cd282 2.223 . S
O290 C289 1.315 . S
O291 Cd281 2.240 . S
O291 C289 1.279 . S
O292 Cd282 2.297 1_556 S
O292 C287 1.247 . S
O293 Cd282 2.439 1_556 S
O293 C287 1.208 . S
O294 Cd295 2.223 . S
O294 C302 1.315 . S
Cd295 O294 2.223 . S
Cd295 O298 2.297 . S
Cd295 O299 2.439 . S
Cd295 O305 2.240 . S
Cd296 O297 2.240 . S
Cd296 O304 2.223 . S
Cd296 O306 2.297 . S
Cd296 O307 2.439 . S
O297 Cd296 2.240 . S
O297 C302 1.279 . S
O298 Cd295 2.297 . S
O298 C300 1.247 . S
O299 Cd295 2.439 . S
O299 C300 1.208 . S
C300 O298 1.247 . S
C300 O299 1.208 . S
C301 O306 1.247 . S
C301 O307 1.208 . S
C302 O294 1.315 . S
C302 O297 1.279 . S
C303 O304 1.315 . S
C303 O305 1.279 . S
O304 Cd296 2.223 . S
O304 C303 1.315 . S
O305 Cd295 2.240 . S
O305 C303 1.279 . S
O306 Cd296 2.297 . S
O306 C301 1.247 . S
O307 Cd296 2.439 . S
O307 C301 1.208 . S
O308 Cd309 2.223 . S
O308 C316 1.315 . S
Cd309 O308 2.223 . S
Cd309 O312 2.297 . S
Cd309 O313 2.439 . S
Cd309 O319 2.240 . S
Cd310 O311 2.240 . S
Cd310 O318 2.223 . S
Cd310 O320 2.297 . S
Cd310 O321 2.439 . S
O311 Cd310 2.240 . S
O311 C316 1.279 . S
O312 Cd309 2.297 . S
O312 C314 1.247 . S
O313 Cd309 2.439 . S
O313 C314 1.208 . S
C314 O312 1.247 . S
C314 O313 1.208 . S
C315 O320 1.247 . S
C315 O321 1.208 . S
C316 O308 1.315 . S
C316 O311 1.279 . S
C317 O318 1.315 . S
C317 O319 1.279 . S
O318 Cd310 2.223 . S
O318 C317 1.315 . S
O319 Cd309 2.240 . S
O319 C317 1.279 . S
O320 Cd310 2.297 . S
O320 C315 1.247 . S
O321 Cd310 2.439 . S
O321 C315 1.208 . S
O322 Cd323 2.223 . S
O322 C330 1.315 . S
Cd323 O322 2.223 . S
Cd323 O326 2.297 . S
Cd323 O327 2.439 . S
Cd323 O333 2.240 . S
Cd324 O325 2.240 . S
Cd324 O332 2.223 . S
Cd324 O334 2.297 . S
Cd324 O335 2.439 . S
O325 Cd324 2.240 . S
O325 C330 1.279 . S
O326 Cd323 2.297 . S
O326 C328 1.247 . S
O327 Cd323 2.439 . S
O327 C328 1.208 . S
C328 O326 1.247 . S
C328 O327 1.208 . S
C329 O334 1.247 . S
C329 O335 1.208 . S
C330 O322 1.315 . S
C330 O325 1.279 . S
C331 O332 1.315 . S
C331 O333 1.279 . S
O332 Cd324 2.223 . S
O332 C331 1.315 . S
O333 Cd323 2.240 . S
O333 C331 1.279 . S
O334 Cd324 2.297 . S
O334 C329 1.247 . S
O335 Cd324 2.439 . S
O335 C329 1.208 . S
La336 C338 2.928 1_455 S
La336 O356 2.521 1_454 S
La336 O357 2.628 1_455 S
La336 O358 2.554 1_554 S
La336 O359 2.756 1_554 S
La336 O360 2.470 . S
La336 O365 2.482 . S
La336 O367 2.503 . S
La337 C347 2.928 . S
La337 O359 2.480 1_554 S
La337 O361 2.503 . S
La337 O362 2.521 . S
La337 O363 2.628 . S
La337 O364 2.554 . S
La337 O365 2.757 . S
La337 O366 2.470 . S
C338 La336 2.928 1_655 S
C338 C339 1.503 1_554 S
C338 O356 1.261 1_554 S
C338 O357 1.243 . S
C339 C338 1.503 1_556 S
C339 C340 1.394 . S
C339 C344 1.373 1_556 S
C340 C339 1.394 . S
C340 C341 1.380 . S
C340 H368 0.930 . S
C341 C340 1.380 . S
C341 C342 1.376 . S
C341 H369 0.930 . S
C342 C341 1.376 . S
C342 C343 1.370 1_556 S
C343 C342 1.370 1_554 S
C343 C344 1.396 . S
C343 H370 0.929 . S
C344 C339 1.373 1_554 S
C344 C343 1.396 . S
C344 H371 0.929 . S
C345 O358 1.240 . S
C345 O359 1.292 . S
C346 O360 1.258 . S
C346 O361 1.256 . S
C347 La337 2.928 . S
C347 C348 1.503 . S
C347 O362 1.261 . S
C347 O363 1.243 . S
C348 C347 1.503 . S
C348 C349 1.394 . S
C348 C353 1.373 . S
C349 C348 1.394 . S
C349 C350 1.380 . S
C349 H372 0.930 . S
C350 C349 1.380 . S
C350 C351 1.376 . S
C350 H373 0.930 . S
C351 C350 1.376 . S
C351 C352 1.370 . S
C352 C351 1.370 . S
C352 C353 1.396 . S
C352 H374 0.929 1_545 S
C353 C348 1.373 . S
C353 C352 1.396 . S
C353 H375 0.929 . S
C354 O364 1.240 . S
C354 O365 1.289 . S
C355 O366 1.258 . S
C355 O367 1.256 . S
O356 La336 2.521 1_656 S
O356 C338 1.261 1_556 S
O357 La336 2.628 1_655 S
O357 C338 1.243 . S
O358 La336 2.554 1_556 S
O358 C345 1.240 . S
O359 La336 2.756 1_556 S
O359 La337 2.480 1_556 S
O359 C345 1.292 . S
O360 La336 2.470 . S
O360 C346 1.258 . S
O361 La337 2.503 . S
O361 C346 1.256 . S
O362 La337 2.521 . S
O362 C347 1.261 . S
O363 La337 2.628 . S
O363 C347 1.243 . S
O364 La337 2.554 . S
O364 C354 1.240 . S
O365 La336 2.482 . S
O365 La337 2.757 . S
O365 C354 1.289 . S
O366 La337 2.470 . S
O366 C355 1.258 . S
O367 La336 2.503 . S
O367 C355 1.256 . S
H368 C340 0.930 . S
H369 C341 0.930 . S
H370 C343 0.929 . S
H371 C344 0.929 . S
H372 C349 0.930 . S
H373 C350 0.930 . S
H374 C352 0.929 1_565 S
H375 C353 0.929 . S
La376 C378 2.928 . S
La376 O396 2.521 . S
La376 O397 2.628 . S
La376 O398 2.554 . S
La376 O399 2.757 . S
La376 O400 2.470 . S
La376 O405 2.482 . S
La376 O407 2.503 . S
La377 C387 2.928 . S
La377 O399 2.482 . S
La377 O401 2.503 . S
La377 O402 2.521 . S
La377 O403 2.628 . S
La377 O404 2.554 . S
La377 O405 2.757 . S
La377 O406 2.470 . S
C378 La376 2.928 . S
C378 C379 1.503 . S
C378 O396 1.261 . S
C378 O397 1.243 . S
C379 C378 1.503 . S
C379 C380 1.394 . S
C379 C384 1.373 . S
C380 C379 1.394 . S
C380 C381 1.380 . S
C380 H408 0.930 . S
C381 C380 1.380 . S
C381 C382 1.376 . S
C381 H409 0.930 . S
C382 C381 1.376 . S
C382 C383 1.370 . S
C383 C382 1.370 . S
C383 C384 1.396 . S
C383 H410 0.929 . S
C384 C379 1.373 . S
C384 C383 1.396 . S
C384 H411 0.929 . S
C385 O398 1.240 . S
C385 O399 1.289 . S
C386 O400 1.258 . S
C386 O401 1.256 . S
C387 La377 2.928 . S
C387 C388 1.503 . S
C387 O402 1.261 . S
C387 O403 1.243 . S
C388 C387 1.503 . S
C388 C389 1.394 . S
C388 C393 1.373 . S
C389 C388 1.394 . S
C389 C390 1.380 . S
C389 H412 0.930 . S
C390 C389 1.380 . S
C390 C391 1.376 . S
C390 H413 0.930 . S
C391 C390 1.376 . S
C391 C392 1.370 . S
C392 C391 1.370 . S
C392 C393 1.396 . S
C392 H414 0.929 . S
C393 C388 1.373 . S
C393 C392 1.396 . S
C393 H415 0.929 . S
C394 O404 1.240 . S
C394 O405 1.289 . S
C395 O406 1.258 . S
C395 O407 1.256 . S
O396 La376 2.521 . S
O396 C378 1.261 . S
O397 La376 2.628 . S
O397 C378 1.243 . S
O398 La376 2.554 . S
O398 C385 1.240 . S
O399 La376 2.757 . S
O399 La377 2.482 . S
O399 C385 1.289 . S
O400 La376 2.470 . S
O400 C386 1.258 . S
O401 La377 2.503 . S
O401 C386 1.256 . S
O402 La377 2.521 . S
O402 C387 1.261 . S
O403 La377 2.628 . S
O403 C387 1.243 . S
O404 La377 2.554 . S
O404 C394 1.240 . S
O405 La376 2.482 . S
O405 La377 2.757 . S
O405 C394 1.289 . S
O406 La377 2.470 . S
O406 C395 1.258 . S
O407 La376 2.503 . S
O407 C395 1.256 . S
H408 C380 0.930 . S
H409 C381 0.930 . S
H410 C383 0.929 . S
H411 C384 0.929 . S
H412 C389 0.930 . S
H413 C390 0.930 . S
H414 C392 0.929 . S
H415 C393 0.929 . S
La416 C418 2.928 . S
La416 O436 2.521 . S
La416 O437 2.628 . S
La416 O438 2.554 . S
La416 O439 2.757 . S
La416 O440 2.470 . S
La416 O445 2.482 . S
La416 O447 2.503 . S
La417 C427 2.928 . S
La417 O439 2.482 . S
La417 O441 2.503 1_545 S
La417 O442 2.521 . S
La417 O443 2.628 . S
La417 O444 2.554 . S
La417 O445 2.757 . S
La417 O446 2.470 . S
C418 La416 2.928 . S
C418 C419 1.503 . S
C418 O436 1.261 . S
C418 O437 1.243 . S
C419 C418 1.503 . S
C419 C420 1.394 . S
C419 C424 1.373 1_545 S
C420 C419 1.394 . S
C420 C421 1.380 1_545 S
C420 H448 0.930 . S
C421 C420 1.380 1_565 S
C421 C422 1.376 . S
C421 H449 0.930 . S
C422 C421 1.376 . S
C422 C423 1.370 . S
C423 C422 1.370 . S
C423 C424 1.396 . S
C423 H450 0.929 . S
C424 C419 1.373 1_565 S
C424 C423 1.396 . S
C424 H451 0.929 . S
C425 O438 1.240 . S
C425 O439 1.289 . S
C426 O440 1.258 1_565 S
C426 O441 1.256 . S
C427 La417 2.928 . S
C427 C428 1.503 . S
C427 O442 1.261 . S
C427 O443 1.243 . S
C428 C427 1.503 . S
C428 C429 1.394 . S
C428 C433 1.373 . S
C429 C428 1.394 . S
C429 C430 1.380 . S
C429 H452 0.930 . S
C430 C429 1.380 . S
C430 C431 1.376 . S
C430 H453 0.930 . S
C431 C430 1.376 . S
C431 C432 1.370 . S
C432 C431 1.370 . S
C432 C433 1.396 . S
C432 H454 0.929 . S
C433 C428 1.373 . S
C433 C432 1.396 . S
C433 H455 0.929 . S
C434 O444 1.240 . S
C434 O445 1.289 . S
C435 O446 1.258 . S
C435 O447 1.256 . S
O436 La416 2.521 . S
O436 C418 1.261 . S
O437 La416 2.628 . S
O437 C418 1.243 . S
O438 La416 2.554 . S
O438 C425 1.240 . S
O439 La416 2.757 . S
O439 La417 2.482 . S
O439 C425 1.289 . S
O440 La416 2.470 . S
O440 C426 1.258 1_545 S
O441 La417 2.503 1_565 S
O441 C426 1.256 . S
O442 La417 2.521 . S
O442 C427 1.261 . S
O443 La417 2.628 . S
O443 C427 1.243 . S
O444 La417 2.554 . S
O444 C434 1.240 . S
O445 La416 2.482 . S
O445 La417 2.757 . S
O445 C434 1.289 . S
O446 La417 2.470 . S
O446 C435 1.258 . S
O447 La416 2.503 . S
O447 C435 1.256 . S
H448 C420 0.930 . S
H449 C421 0.930 . S
H450 C423 0.929 . S
H451 C424 0.929 . S
H452 C429 0.930 . S
H453 C430 0.930 . S
H454 C432 0.929 . S
H455 C433 0.929 . S
La456 C458 2.928 . S
La456 O476 2.521 . S
La456 O477 2.628 . S
La456 O478 2.554 . S
La456 O479 2.757 . S
La456 O480 2.470 . S
La456 O485 2.482 . S
La456 O487 2.503 . S
La457 C467 2.928 . S
La457 O479 2.482 . S
La457 O481 2.503 . S
La457 O482 2.521 . S
La457 O483 2.628 . S
La457 O484 2.554 . S
La457 O485 2.757 . S
La457 O486 2.470 . S
C458 La456 2.928 . S
C458 C459 1.503 . S
C458 O476 1.261 . S
C458 O477 1.243 . S
C459 C458 1.503 . S
C459 C460 1.394 . S
C459 C464 1.373 . S
C460 C459 1.394 . S
C460 C461 1.380 . S
C460 H488 0.930 . S
C461 C460 1.380 . S
C461 C462 1.376 . S
C461 H489 0.930 . S
C462 C461 1.376 . S
C462 C463 1.370 . S
C463 C462 1.370 . S
C463 C464 1.396 . S
C463 H490 0.929 . S
C464 C459 1.373 . S
C464 C463 1.396 . S
C464 H491 0.929 . S
C465 O478 1.240 . S
C465 O479 1.289 . S
C466 O480 1.258 . S
C466 O481 1.256 . S
C467 La457 2.928 . S
C467 C468 1.503 . S
C467 O482 1.261 . S
C467 O483 1.243 . S
C468 C467 1.503 . S
C468 C469 1.394 . S
C468 C473 1.373 . S
C469 C468 1.394 . S
C469 C470 1.380 . S
C469 H492 0.930 . S
C470 C469 1.380 . S
C470 C471 1.376 . S
C470 H493 0.930 . S
C471 C470 1.376 . S
C471 C472 1.370 . S
C472 C471 1.370 . S
C472 C473 1.396 . S
C472 H494 0.929 . S
C473 C468 1.373 . S
C473 C472 1.396 . S
C473 H495 0.929 . S
C474 O484 1.240 . S
C474 O485 1.289 . S
C475 O486 1.258 . S
C475 O487 1.256 . S
O476 La456 2.521 . S
O476 C458 1.261 . S
O477 La456 2.628 . S
O477 C458 1.243 . S
O478 La456 2.554 . S
O478 C465 1.240 . S
O479 La456 2.757 . S
O479 La457 2.482 . S
O479 C465 1.289 . S
O480 La456 2.470 . S
O480 C466 1.258 . S
O481 La457 2.503 . S
O481 C466 1.256 . S
O482 La457 2.521 . S
O482 C467 1.261 . S
O483 La457 2.628 . S
O483 C467 1.243 . S
O484 La457 2.554 . S
O484 C474 1.240 . S
O485 La456 2.482 . S
O485 La457 2.757 . S
O485 C474 1.289 . S
O486 La457 2.470 . S
O486 C475 1.258 . S
O487 La456 2.503 . S
O487 C475 1.256 . S
H488 C460 0.930 . S
H489 C461 0.930 . S
H490 C463 0.929 . S
H491 C464 0.929 . S
H492 C469 0.930 . S
H493 C470 0.930 . S
H494 C472 0.929 . S
H495 C473 0.929 . S
La496 C498 2.928 . S
La496 O516 2.521 . S
La496 O517 2.628 . S
La496 O518 2.554 . S
La496 O519 2.757 . S
La496 O520 2.470 . S
La496 O525 2.482 . S
La496 O527 2.503 . S
La497 C507 2.928 1_545 S
La497 O519 2.482 . S
La497 O521 2.503 . S
La497 O522 2.521 1_545 S
La497 O523 2.628 1_545 S
La497 O524 2.554 . S
La497 O525 2.757 . S
La497 O526 2.470 . S
C498 La496 2.928 . S
C498 C499 1.503 . S
C498 O516 1.261 . S
C498 O517 1.243 . S
C499 C498 1.503 . S
C499 C500 1.394 . S
C499 C504 1.373 . S
C500 C499 1.394 . S
C500 C501 1.380 . S
C500 H528 0.930 . S
C501 C500 1.380 . S
C501 C502 1.376 . S
C501 H529 0.930 . S
C502 C501 1.376 . S
C502 C503 1.370 . S
C503 C502 1.370 . S
C503 C504 1.396 . S
C503 H530 0.929 . S
C504 C499 1.373 . S
C504 C503 1.396 . S
C504 H531 0.929 . S
C505 O518 1.240 . S
C505 O519 1.289 . S
C506 O520 1.258 . S
C506 O521 1.256 . S
C507 La497 2.928 1_565 S
C507 C508 1.503 . S
C507 O522 1.261 . S
C507 O523 1.243 . S
C508 C507 1.503 . S
C508 C509 1.394 . S
C508 C513 1.373 . S
C509 C508 1.394 . S
C509 C510 1.380 . S
C509 H532 0.930 . S
C510 C509 1.380 . S
C510 C511 1.376 . S
C510 H533 0.930 . S
C511 C510 1.376 . S
C511 C512 1.370 . S
C512 C511 1.370 . S
C512 C513 1.396 . S
C512 H534 0.929 . S
C513 C508 1.373 . S
C513 C512 1.396 . S
C513 H535 0.929 . S
C514 O524 1.240 . S
C514 O525 1.289 . S
C515 O526 1.258 . S
C515 O527 1.256 . S
O516 La496 2.521 . S
O516 C498 1.261 . S
O517 La496 2.628 . S
O517 C498 1.243 . S
O518 La496 2.554 . S
O518 C505 1.240 . S
O519 La496 2.757 . S
O519 La497 2.482 . S
O519 C505 1.289 . S
O520 La496 2.470 . S
O520 C506 1.258 . S
O521 La497 2.503 . S
O521 C506 1.256 . S
O522 La497 2.521 1_565 S
O522 C507 1.261 . S
O523 La497 2.628 1_565 S
O523 C507 1.243 . S
O524 La497 2.554 . S
O524 C514 1.240 . S
O525 La496 2.482 . S
O525 La497 2.757 . S
O525 C514 1.289 . S
O526 La497 2.470 . S
O526 C515 1.258 . S
O527 La496 2.503 . S
O527 C515 1.256 . S
H528 C500 0.930 . S
H529 C501 0.930 . S
H530 C503 0.929 . S
H531 C504 0.929 . S
H532 C509 0.930 . S
H533 C510 0.930 . S
H534 C512 0.929 . S
H535 C513 0.929 . S
La536 C538 2.928 . S
La536 O556 2.521 . S
La536 O557 2.628 . S
La536 O558 2.554 . S
La536 O559 2.757 . S
La536 O560 2.470 . S
La536 O565 2.482 . S
La536 O567 2.503 . S
La537 C547 2.928 . S
La537 O559 2.482 . S
La537 O561 2.503 . S
La537 O562 2.521 . S
La537 O563 2.628 . S
La537 O564 2.554 . S
La537 O565 2.757 . S
La537 O566 2.470 . S
C538 La536 2.928 . S
C538 C539 1.503 . S
C538 O556 1.261 . S
C538 O557 1.243 . S
C539 C538 1.503 . S
C539 C540 1.394 . S
C539 C544 1.373 . S
C540 C539 1.394 . S
C540 C541 1.380 . S
C540 H568 0.930 . S
C541 C540 1.380 . S
C541 C542 1.376 . S
C541 H569 0.930 . S
C542 C541 1.376 . S
C542 C543 1.370 . S
C543 C542 1.370 . S
C543 C544 1.396 . S
C543 H570 0.929 . S
C544 C539 1.373 . S
C544 C543 1.396 . S
C544 H571 0.929 . S
C545 O558 1.240 . S
C545 O559 1.289 . S
C546 O560 1.258 . S
C546 O561 1.256 . S
C547 La537 2.928 . S
C547 C548 1.503 . S
C547 O562 1.261 . S
C547 O563 1.243 . S
C548 C547 1.503 . S
C548 C549 1.394 . S
C548 C553 1.373 . S
C549 C548 1.394 . S
C549 C550 1.380 . S
C549 H572 0.930 . S
C550 C549 1.380 . S
C550 C551 1.376 . S
C550 H573 0.930 . S
C551 C550 1.376 . S
C551 C552 1.370 . S
C552 C551 1.370 . S
C552 C553 1.396 . S
C552 H574 0.929 . S
C553 C548 1.373 . S
C553 C552 1.396 . S
C553 H575 0.929 . S
C554 O564 1.240 . S
C554 O565 1.289 . S
C555 O566 1.258 . S
C555 O567 1.256 . S
O556 La536 2.521 . S
O556 C538 1.261 . S
O557 La536 2.628 . S
O557 C538 1.243 . S
O558 La536 2.554 . S
O558 C545 1.240 . S
O559 La536 2.757 . S
O559 La537 2.482 . S
O559 C545 1.289 . S
O560 La536 2.470 . S
O560 C546 1.258 . S
O561 La537 2.503 . S
O561 C546 1.256 . S
O562 La537 2.521 . S
O562 C547 1.261 . S
O563 La537 2.628 . S
O563 C547 1.243 . S
O564 La537 2.554 . S
O564 C554 1.240 . S
O565 La536 2.482 . S
O565 La537 2.757 . S
O565 C554 1.289 . S
O566 La537 2.470 . S
O566 C555 1.258 . S
O567 La536 2.503 . S
O567 C555 1.256 . S
H568 C540 0.930 . S
H569 C541 0.930 . S
H570 C543 0.929 . S
H571 C544 0.929 . S
H572 C549 0.930 . S
H573 C550 0.930 . S
H574 C552 0.929 . S
H575 C553 0.929 . S
La576 C578 2.928 . S
La576 O596 2.521 . S
La576 O597 2.628 . S
La576 O598 2.554 1_545 S
La576 O599 2.757 . S
La576 O600 2.470 . S
La576 O605 2.482 . S
La576 O607 2.503 . S
La577 C587 2.928 . S
La577 O599 2.482 1_556 S
La577 O601 2.503 1_556 S
La577 O602 2.521 . S
La577 O603 2.628 . S
La577 O604 2.554 1_556 S
La577 O605 2.757 1_556 S
La577 O606 2.470 1_556 S
C578 La576 2.928 . S
C578 C579 1.503 . S
C578 O596 1.261 . S
C578 O597 1.243 . S
C579 C578 1.503 . S
C579 C580 1.394 1_545 S
C579 C584 1.373 . S
C580 C579 1.394 1_565 S
C580 C581 1.380 . S
C580 H608 0.930 . S
C581 C580 1.380 . S
C581 C582 1.376 . S
C581 H609 0.930 . S
C582 C581 1.376 . S
C582 C583 1.370 1_565 S
C583 C582 1.370 1_545 S
C583 C584 1.396 . S
C583 H610 0.929 . S
C584 C579 1.373 . S
C584 C583 1.396 . S
C584 H611 0.929 . S
C585 O598 1.242 1_545 S
C585 O599 1.285 . S
C586 O600 1.258 . S
C586 O601 1.256 . S
C587 La577 2.928 . S
C587 C588 1.503 . S
C587 O602 1.261 . S
C587 O603 1.243 . S
C588 C587 1.503 . S
C588 C589 1.394 . S
C588 C593 1.373 . S
C589 C588 1.394 . S
C589 C590 1.380 . S
C589 H612 0.930 . S
C590 C589 1.380 . S
C590 C591 1.376 . S
C590 H613 0.930 . S
C591 C590 1.376 . S
C591 C592 1.370 . S
C592 C591 1.370 . S
C592 C593 1.396 . S
C592 H614 0.929 . S
C593 C588 1.373 . S
C593 C592 1.396 . S
C593 H615 0.929 . S
C594 O604 1.240 . S
C594 O605 1.289 . S
C595 O606 1.258 . S
C595 O607 1.256 . S
O596 La576 2.521 . S
O596 C578 1.261 . S
O597 La576 2.628 . S
O597 C578 1.243 . S
O598 La576 2.554 1_565 S
O598 C585 1.242 1_565 S
O599 La576 2.757 . S
O599 La577 2.482 1_554 S
O599 C585 1.285 . S
O600 La576 2.470 . S
O600 C586 1.258 . S
O601 La577 2.503 1_554 S
O601 C586 1.256 . S
O602 La577 2.521 . S
O602 C587 1.261 . S
O603 La577 2.628 . S
O603 C587 1.243 . S
O604 La577 2.554 1_554 S
O604 C594 1.240 . S
O605 La576 2.482 . S
O605 La577 2.757 1_554 S
O605 C594 1.289 . S
O606 La577 2.470 1_554 S
O606 C595 1.258 . S
O607 La576 2.503 . S
O607 C595 1.256 . S
H608 C580 0.930 . S
H609 C581 0.930 . S
H610 C583 0.929 . S
H611 C584 0.929 . S
H612 C589 0.930 . S
H613 C590 0.930 . S
H614 C592 0.929 . S
H615 C593 0.929 . S
La616 C618 2.928 . S
La616 O636 2.521 . S
La616 O637 2.628 . S
La616 O638 2.554 . S
La616 O639 2.757 . S
La616 O640 2.470 . S
La616 O645 2.482 . S
La616 O647 2.503 . S
La617 C627 2.928 . S
La617 O639 2.482 . S
La617 O641 2.503 . S
La617 O642 2.521 . S
La617 O643 2.628 . S
La617 O644 2.554 . S
La617 O645 2.757 . S
La617 O646 2.470 . S
C618 La616 2.928 . S
C618 C619 1.503 . S
C618 O636 1.261 . S
C618 O637 1.243 . S
C619 C618 1.503 . S
C619 C620 1.394 . S
C619 C624 1.373 . S
C620 C619 1.394 . S
C620 C621 1.380 . S
C620 H648 0.930 . S
C621 C620 1.380 . S
C621 C622 1.376 . S
C621 H649 0.930 . S
C622 C621 1.376 . S
C622 C623 1.370 . S
C623 C622 1.370 . S
C623 C624 1.396 . S
C623 H650 0.929 . S
C624 C619 1.373 . S
C624 C623 1.396 . S
C624 H651 0.929 . S
C625 O638 1.240 . S
C625 O639 1.289 . S
C626 O640 1.258 . S
C626 O641 1.256 . S
C627 La617 2.928 . S
C627 C628 1.503 . S
C627 O642 1.261 . S
C627 O643 1.243 . S
C628 C627 1.503 . S
C628 C629 1.394 . S
C628 C633 1.373 . S
C629 C628 1.394 . S
C629 C630 1.380 . S
C629 H652 0.930 . S
C630 C629 1.380 . S
C630 C631 1.376 . S
C630 H653 0.930 . S
C631 C630 1.376 . S
C631 C632 1.370 . S
C632 C631 1.370 . S
C632 C633 1.396 . S
C632 H654 0.929 . S
C633 C628 1.373 . S
C633 C632 1.396 . S
C633 H655 0.929 . S
C634 O644 1.240 . S
C634 O645 1.289 . S
C635 O646 1.258 . S
C635 O647 1.256 . S
O636 La616 2.521 . S
O636 C618 1.261 . S
O637 La616 2.628 . S
O637 C618 1.243 . S
O638 La616 2.554 . S
O638 C625 1.240 . S
O639 La616 2.757 . S
O639 La617 2.482 . S
O639 C625 1.289 . S
O640 La616 2.470 . S
O640 C626 1.258 . S
O641 La617 2.503 . S
O641 C626 1.256 . S
O642 La617 2.521 . S
O642 C627 1.261 . S
O643 La617 2.628 . S
O643 C627 1.243 . S
O644 La617 2.554 . S
O644 C634 1.240 . S
O645 La616 2.482 . S
O645 La617 2.757 . S
O645 C634 1.289 . S
O646 La617 2.470 . S
O646 C635 1.258 . S
O647 La616 2.503 . S
O647 C635 1.256 . S
H648 C620 0.930 . S
H649 C621 0.930 . S
H650 C623 0.929 . S
H651 C624 0.929 . S
H652 C629 0.930 . S
H653 C630 0.930 . S
H654 C632 0.929 . S
H655 C633 0.929 . S
La656 C658 2.928 . S
La656 O676 2.521 . S
La656 O677 2.628 . S
La656 O678 2.554 . S
La656 O679 2.757 . S
La656 O680 2.470 1_554 S
La656 O685 2.482 . S
La656 O687 2.503 . S
La657 C667 2.928 . S
La657 O679 2.482 . S
La657 O681 2.503 1_554 S
La657 O682 2.521 . S
La657 O683 2.628 . S
La657 O684 2.554 . S
La657 O685 2.757 . S
La657 O686 2.470 . S
C658 La656 2.928 . S
C658 C659 1.470 1_554 S
C658 O676 1.261 . S
C658 O677 1.243 . S
C659 C658 1.470 1_556 S
C659 C660 1.384 1_556 S
C659 C664 1.418 . S
C660 C659 1.384 1_554 S
C660 C661 1.380 1_554 S
C660 H688 0.930 . S
C661 C660 1.380 1_556 S
C661 C662 1.376 . S
C661 H689 0.930 . S
C662 C661 1.376 . S
C662 C663 1.370 . S
C663 C662 1.370 . S
C663 C664 1.396 . S
C663 H690 0.929 . S
C664 C659 1.418 . S
C664 C663 1.396 . S
C664 H691 0.929 . S
C665 O678 1.240 . S
C665 O679 1.289 . S
C666 O680 1.258 . S
C666 O681 1.256 . S
C667 La657 2.928 . S
C667 C668 1.503 . S
C667 O682 1.261 . S
C667 O683 1.243 . S
C668 C667 1.503 . S
C668 C669 1.394 . S
C668 C673 1.373 . S
C669 C668 1.394 . S
C669 C670 1.380 . S
C669 H692 0.930 . S
C670 C669 1.380 . S
C670 C671 1.376 . S
C670 H693 0.930 . S
C671 C670 1.376 . S
C671 C672 1.370 . S
C672 C671 1.370 . S
C672 C673 1.396 . S
C672 H694 0.929 . S
C673 C668 1.373 . S
C673 C672 1.396 . S
C673 H695 0.929 . S
C674 O684 1.240 . S
C674 O685 1.289 . S
C675 O686 1.258 . S
C675 O687 1.256 . S
O676 La656 2.521 . S
O676 C658 1.261 . S
O677 La656 2.628 . S
O677 C658 1.243 . S
O678 La656 2.554 . S
O678 C665 1.240 . S
O679 La656 2.757 . S
O679 La657 2.482 . S
O679 C665 1.289 . S
O680 La656 2.470 1_556 S
O680 C666 1.258 . S
O681 La657 2.503 1_556 S
O681 C666 1.256 . S
O682 La657 2.521 . S
O682 C667 1.261 . S
O683 La657 2.628 . S
O683 C667 1.243 . S
O684 La657 2.554 . S
O684 C674 1.240 . S
O685 La656 2.482 . S
O685 La657 2.757 . S
O685 C674 1.289 . S
O686 La657 2.470 . S
O686 C675 1.258 . S
O687 La656 2.503 . S
O687 C675 1.256 . S
H688 C660 0.930 . S
H689 C661 0.930 . S
H690 C663 0.929 . S
H691 C664 0.929 . S
H692 C669 0.930 . S
H693 C670 0.930 . S
H694 C672 0.929 . S
H695 C673 0.929 . S
La696 C698 2.928 . S
La696 O716 2.521 . S
La696 O717 2.628 . S
La696 O718 2.554 . S
La696 O719 2.757 . S
La696 O720 2.470 . S
La696 O725 2.482 . S
La696 O727 2.503 . S
La697 C707 2.928 . S
La697 O719 2.482 . S
La697 O721 2.503 . S
La697 O722 2.521 . S
La697 O723 2.628 . S
La697 O724 2.554 . S
La697 O725 2.757 . S
La697 O726 2.470 . S
C698 La696 2.928 . S
C698 C699 1.503 . S
C698 O716 1.261 . S
C698 O717 1.243 . S
C699 C698 1.503 . S
C699 C700 1.394 . S
C699 C704 1.373 . S
C700 C699 1.394 . S
C700 C701 1.380 . S
C700 H728 0.930 . S
C701 C700 1.380 . S
C701 C702 1.376 . S
C701 H729 0.930 . S
C702 C701 1.376 . S
C702 C703 1.370 . S
C703 C702 1.370 . S
C703 C704 1.396 . S
C703 H730 0.929 . S
C704 C699 1.373 . S
C704 C703 1.396 . S
C704 H731 0.929 . S
C705 O718 1.240 . S
C705 O719 1.289 . S
C706 O720 1.258 . S
C706 O721 1.256 . S
C707 La697 2.928 . S
C707 C708 1.503 . S
C707 O722 1.261 . S
C707 O723 1.243 . S
C708 C707 1.503 . S
C708 C709 1.394 . S
C708 C713 1.373 . S
C709 C708 1.394 . S
C709 C710 1.380 . S
C709 H732 0.930 . S
C710 C709 1.380 . S
C710 C711 1.376 . S
C710 H733 0.930 . S
C711 C710 1.376 . S
C711 C712 1.370 . S
C712 C711 1.370 . S
C712 C713 1.396 . S
C712 H734 0.929 . S
C713 C708 1.373 . S
C713 C712 1.396 . S
C713 H735 0.929 . S
C714 O724 1.240 . S
C714 O725 1.289 . S
C715 O726 1.258 . S
C715 O727 1.256 . S
O716 La696 2.521 . S
O716 C698 1.261 . S
O717 La696 2.628 . S
O717 C698 1.243 . S
O718 La696 2.554 . S
O718 C705 1.240 . S
O719 La696 2.757 . S
O719 La697 2.482 . S
O719 C705 1.289 . S
O720 La696 2.470 . S
O720 C706 1.258 . S
O721 La697 2.503 . S
O721 C706 1.256 . S
O722 La697 2.521 . S
O722 C707 1.261 . S
O723 La697 2.628 . S
O723 C707 1.243 . S
O724 La697 2.554 . S
O724 C714 1.240 . S
O725 La696 2.482 . S
O725 La697 2.757 . S
O725 C714 1.289 . S
O726 La697 2.470 . S
O726 C715 1.258 . S
O727 La696 2.503 . S
O727 C715 1.256 . S
H728 C700 0.930 . S
H729 C701 0.930 . S
H730 C703 0.929 . S
H731 C704 0.929 . S
H732 C709 0.930 . S
H733 C710 0.930 . S
H734 C712 0.929 . S
H735 C713 0.929 . S
La736 C738 2.928 . S
La736 O756 2.521 . S
La736 O757 2.628 . S
La736 O758 2.554 . S
La736 O759 2.757 . S
La736 O760 2.470 . S
La736 O765 2.482 . S
La736 O767 2.503 . S
La737 C747 2.928 . S
La737 O759 2.482 . S
La737 O761 2.503 . S
La737 O762 2.521 . S
La737 O763 2.628 . S
La737 O764 2.554 . S
La737 O765 2.757 . S
La737 O766 2.470 . S
C738 La736 2.928 . S
C738 C739 1.503 . S
C738 O756 1.261 . S
C738 O757 1.243 . S
C739 C738 1.503 . S
C739 C740 1.394 . S
C739 C744 1.373 . S
C740 C739 1.394 . S
C740 C741 1.380 . S
C740 H768 0.930 . S
C741 C740 1.380 . S
C741 C742 1.376 1_455 S
C741 H769 0.930 . S
C742 C741 1.376 1_655 S
C742 C743 1.370 . S
C743 C742 1.370 . S
C743 C744 1.396 1_655 S
C743 H770 0.929 . S
C744 C739 1.373 . S
C744 C743 1.396 1_455 S
C744 H771 0.929 . S
C745 O758 1.240 . S
C745 O759 1.289 . S
C746 O760 1.258 . S
C746 O761 1.256 . S
C747 La737 2.928 . S
C747 C748 1.503 . S
C747 O762 1.261 . S
C747 O763 1.243 . S
C748 C747 1.503 . S
C748 C749 1.394 . S
C748 C753 1.373 . S
C749 C748 1.394 . S
C749 C750 1.380 . S
C749 H772 0.930 . S
C750 C749 1.380 . S
C750 C751 1.376 . S
C750 H773 0.930 . S
C751 C750 1.376 . S
C751 C752 1.370 . S
C752 C751 1.370 . S
C752 C753 1.396 . S
C752 H774 0.929 . S
C753 C748 1.373 . S
C753 C752 1.396 . S
C753 H775 0.929 . S
C754 O764 1.240 . S
C754 O765 1.289 . S
C755 O766 1.258 . S
C755 O767 1.256 . S
O756 La736 2.521 . S
O756 C738 1.261 . S
O757 La736 2.628 . S
O757 C738 1.243 . S
O758 La736 2.554 . S
O758 C745 1.240 . S
O759 La736 2.757 . S
O759 La737 2.482 . S
O759 C745 1.289 . S
O760 La736 2.470 . S
O760 C746 1.258 . S
O761 La737 2.503 . S
O761 C746 1.256 . S
O762 La737 2.521 . S
O762 C747 1.261 . S
O763 La737 2.628 . S
O763 C747 1.243 . S
O764 La737 2.554 . S
O764 C754 1.240 . S
O765 La736 2.482 . S
O765 La737 2.757 . S
O765 C754 1.289 . S
O766 La737 2.470 . S
O766 C755 1.258 . S
O767 La736 2.503 . S
O767 C755 1.256 . S
H768 C740 0.930 . S
H769 C741 0.930 . S
H770 C743 0.929 . S
H771 C744 0.929 . S
H772 C749 0.930 . S
H773 C750 0.930 . S
H774 C752 0.929 . S
H775 C753 0.929 . S
La776 C778 2.928 . S
La776 O796 2.521 . S
La776 O797 2.628 . S
La776 O798 2.554 . S
La776 O799 2.757 . S
La776 O800 2.470 . S
La776 O805 2.482 . S
La776 O807 2.503 . S
La777 C787 2.928 . S
La777 O799 2.482 . S
La777 O801 2.503 . S
La777 O802 2.521 . S
La777 O803 2.628 . S
La777 O804 2.554 . S
La777 O805 2.757 . S
La777 O806 2.470 . S
C778 La776 2.928 . S
C778 C779 1.503 . S
C778 O796 1.261 . S
C778 O797 1.243 . S
C779 C778 1.503 . S
C779 C780 1.394 . S
C779 C784 1.373 . S
C780 C779 1.394 . S
C780 C781 1.380 . S
C780 H808 0.930 . S
C781 C780 1.380 . S
C781 C782 1.376 . S
C781 H809 0.930 . S
C782 C781 1.376 . S
C782 C783 1.370 . S
C783 C782 1.370 . S
C783 C784 1.396 . S
C783 H810 0.929 . S
C784 C779 1.373 . S
C784 C783 1.396 . S
C784 H811 0.929 . S
C785 O798 1.240 . S
C785 O799 1.289 . S
C786 O800 1.258 . S
C786 O801 1.256 . S
C787 La777 2.928 . S
C787 C788 1.503 . S
C787 O802 1.261 . S
C787 O803 1.243 . S
C788 C787 1.503 . S
C788 C789 1.394 . S
C788 C793 1.373 . S
C789 C788 1.394 . S
C789 C790 1.380 . S
C789 H812 0.930 . S
C790 C789 1.380 . S
C790 C791 1.376 . S
C790 H813 0.930 . S
C791 C790 1.376 . S
C791 C792 1.370 . S
C792 C791 1.370 . S
C792 C793 1.396 . S
C792 H814 0.929 . S
C793 C788 1.373 . S
C793 C792 1.396 . S
C793 H815 0.929 . S
C794 O804 1.240 . S
C794 O805 1.289 . S
C795 O806 1.258 . S
C795 O807 1.256 . S
O796 La776 2.521 . S
O796 C778 1.261 . S
O797 La776 2.628 . S
O797 C778 1.243 . S
O798 La776 2.554 . S
O798 C785 1.240 . S
O799 La776 2.757 . S
O799 La777 2.482 . S
O799 C785 1.289 . S
O800 La776 2.470 . S
O800 C786 1.258 . S
O801 La777 2.503 . S
O801 C786 1.256 . S
O802 La777 2.521 . S
O802 C787 1.261 . S
O803 La777 2.628 . S
O803 C787 1.243 . S
O804 La777 2.554 . S
O804 C794 1.240 . S
O805 La776 2.482 . S
O805 La777 2.757 . S
O805 C794 1.289 . S
O806 La777 2.470 . S
O806 C795 1.258 . S
O807 La776 2.503 . S
O807 C795 1.256 . S
H808 C780 0.930 . S
H809 C781 0.930 . S
H810 C783 0.929 . S
H811 C784 0.929 . S
H812 C789 0.930 . S
H813 C790 0.930 . S
H814 C792 0.929 . S
H815 C793 0.929 . S
La816 C818 2.928 . S
La816 O836 2.521 . S
La816 O837 2.628 . S
La816 O838 2.554 . S
La816 O839 2.757 . S
La816 O840 2.470 . S
La816 O845 2.482 . S
La816 O847 2.503 . S
La817 C827 2.928 . S
La817 O839 2.482 . S
La817 O841 2.503 . S
La817 O842 2.521 . S
La817 O843 2.628 . S
La817 O844 2.554 . S
La817 O845 2.757 . S
La817 O846 2.470 . S
C818 La816 2.928 . S
C818 C819 1.503 . S
C818 O836 1.261 . S
C818 O837 1.243 . S
C819 C818 1.503 . S
C819 C820 1.394 . S
C819 C824 1.373 . S
C820 C819 1.394 . S
C820 C821 1.380 . S
C820 H848 0.930 . S
C821 C820 1.380 . S
C821 C822 1.376 . S
C821 H849 0.930 . S
C822 C821 1.376 . S
C822 C823 1.370 . S
C823 C822 1.370 . S
C823 C824 1.396 . S
C823 H850 0.929 . S
C824 C819 1.373 . S
C824 C823 1.396 . S
C824 H851 0.929 . S
C825 O838 1.240 . S
C825 O839 1.289 . S
C826 O840 1.258 . S
C826 O841 1.256 . S
C827 La817 2.928 . S
C827 C828 1.503 . S
C827 O842 1.261 . S
C827 O843 1.243 . S
C828 C827 1.503 . S
C828 C829 1.394 . S
C828 C833 1.373 . S
C829 C828 1.394 . S
C829 C830 1.380 . S
C829 H852 0.930 . S
C830 C829 1.380 . S
C830 C831 1.376 . S
C830 H853 0.930 . S
C831 C830 1.376 . S
C831 C832 1.370 . S
C832 C831 1.370 . S
C832 C833 1.396 . S
C832 H854 0.929 . S
C833 C828 1.373 . S
C833 C832 1.396 . S
C833 H855 0.929 . S
C834 O844 1.240 . S
C834 O845 1.289 . S
C835 O846 1.258 . S
C835 O847 1.256 . S
O836 La816 2.521 . S
O836 C818 1.261 . S
O837 La816 2.628 . S
O837 C818 1.243 . S
O838 La816 2.554 . S
O838 C825 1.240 . S
O839 La816 2.757 . S
O839 La817 2.482 . S
O839 C825 1.289 . S
O840 La816 2.470 . S
O840 C826 1.258 . S
O841 La817 2.503 . S
O841 C826 1.256 . S
O842 La817 2.521 . S
O842 C827 1.261 . S
O843 La817 2.628 . S
O843 C827 1.243 . S
O844 La817 2.554 . S
O844 C834 1.240 . S
O845 La816 2.482 . S
O845 La817 2.757 . S
O845 C834 1.289 . S
O846 La817 2.470 . S
O846 C835 1.258 . S
O847 La816 2.503 . S
O847 C835 1.256 . S
H848 C820 0.930 . S
H849 C821 0.930 . S
H850 C823 0.929 . S
H851 C824 0.929 . S
H852 C829 0.930 . S
H853 C830 0.930 . S
H854 C832 0.929 . S
H855 C833 0.929 . S
La856 C858 2.928 . S
La856 O876 2.521 . S
La856 O877 2.628 . S
La856 O878 2.554 . S
La856 O879 2.757 . S
La856 O880 2.470 . S
La856 O885 2.482 . S
La856 O887 2.503 . S
La857 C867 2.928 . S
La857 O879 2.482 . S
La857 O881 2.503 . S
La857 O882 2.521 . S
La857 O883 2.628 . S
La857 O884 2.554 . S
La857 O885 2.757 . S
La857 O886 2.470 . S
C858 La856 2.928 . S
C858 C859 1.503 . S
C858 O876 1.261 . S
C858 O877 1.243 . S
C859 C858 1.503 . S
C859 C860 1.394 . S
C859 C864 1.373 . S
C860 C859 1.394 . S
C860 C861 1.380 . S
C860 H888 0.930 . S
C861 C860 1.380 . S
C861 C862 1.376 . S
C861 H889 0.930 . S
C862 C861 1.376 . S
C862 C863 1.370 . S
C863 C862 1.370 . S
C863 C864 1.396 . S
C863 H890 0.929 . S
C864 C859 1.373 . S
C864 C863 1.396 . S
C864 H891 0.929 . S
C865 O878 1.240 . S
C865 O879 1.289 . S
C866 O880 1.258 . S
C866 O881 1.256 . S
C867 La857 2.928 . S
C867 C868 1.503 . S
C867 O882 1.261 . S
C867 O883 1.243 . S
C868 C867 1.503 . S
C868 C869 1.394 . S
C868 C873 1.373 . S
C869 C868 1.394 . S
C869 C870 1.380 . S
C869 H892 0.930 . S
C870 C869 1.380 . S
C870 C871 1.376 . S
C870 H893 0.930 . S
C871 C870 1.376 . S
C871 C872 1.370 . S
C872 C871 1.370 . S
C872 C873 1.396 . S
C872 H894 0.929 . S
C873 C868 1.373 . S
C873 C872 1.396 . S
C873 H895 0.929 . S
C874 O884 1.240 . S
C874 O885 1.289 . S
C875 O886 1.258 . S
C875 O887 1.256 . S
O876 La856 2.521 . S
O876 C858 1.261 . S
O877 La856 2.628 . S
O877 C858 1.243 . S
O878 La856 2.554 . S
O878 C865 1.240 . S
O879 La856 2.757 . S
O879 La857 2.482 . S
O879 C865 1.289 . S
O880 La856 2.470 . S
O880 C866 1.258 . S
O881 La857 2.503 . S
O881 C866 1.256 . S
O882 La857 2.521 . S
O882 C867 1.261 . S
O883 La857 2.628 . S
O883 C867 1.243 . S
O884 La857 2.554 . S
O884 C874 1.240 . S
O885 La856 2.482 . S
O885 La857 2.757 . S
O885 C874 1.289 . S
O886 La857 2.470 . S
O886 C875 1.258 . S
O887 La856 2.503 . S
O887 C875 1.256 . S
H888 C860 0.930 . S
H889 C861 0.930 . S
H890 C863 0.929 . S
H891 C864 0.929 . S
H892 C869 0.930 . S
H893 C870 0.930 . S
H894 C872 0.929 . S
H895 C873 0.929 . S
La896 C898 2.928 . S
La896 O916 2.521 . S
La896 O917 2.628 . S
La896 O918 2.554 . S
La896 O919 2.757 . S
La896 O920 2.470 . S
La896 O925 2.482 . S
La896 O927 2.503 . S
La897 C907 2.928 . S
La897 O919 2.482 . S
La897 O921 2.503 . S
La897 O922 2.521 . S
La897 O923 2.628 . S
La897 O924 2.554 . S
La897 O925 2.757 . S
La897 O926 2.470 . S
C898 La896 2.928 . S
C898 C899 1.503 . S
C898 O916 1.261 . S
C898 O917 1.243 . S
C899 C898 1.503 . S
C899 C900 1.394 . S
C899 C904 1.373 . S
C900 C899 1.394 . S
C900 C901 1.380 . S
C900 H928 0.930 . S
C901 C900 1.380 . S
C901 C902 1.376 . S
C901 H929 0.930 . S
C902 C901 1.376 . S
C902 C903 1.370 . S
C903 C902 1.370 . S
C903 C904 1.396 . S
C903 H930 0.929 . S
C904 C899 1.373 . S
C904 C903 1.396 . S
C904 H931 0.929 . S
C905 O918 1.240 . S
C905 O919 1.289 . S
C906 O920 1.258 . S
C906 O921 1.256 . S
C907 La897 2.928 . S
C907 C908 1.503 . S
C907 O922 1.261 . S
C907 O923 1.243 . S
C908 C907 1.503 . S
C908 C909 1.394 . S
C908 C913 1.373 . S
C909 C908 1.394 . S
C909 C910 1.380 . S
C909 H932 0.930 . S
C910 C909 1.380 . S
C910 C911 1.376 . S
C910 H933 0.930 . S
C911 C910 1.376 . S
C911 C912 1.370 . S
C912 C911 1.370 . S
C912 C913 1.396 . S
C912 H934 0.929 . S
C913 C908 1.373 . S
C913 C912 1.396 . S
C913 H935 0.929 . S
C914 O924 1.240 . S
C914 O925 1.289 . S
C915 O926 1.258 . S
C915 O927 1.256 . S
O916 La896 2.521 . S
O916 C898 1.261 . S
O917 La896 2.628 . S
O917 C898 1.243 . S
O918 La896 2.554 . S
O918 C905 1.240 . S
O919 La896 2.757 . S
O919 La897 2.482 . S
O919 C905 1.289 . S
O920 La896 2.470 . S
O920 C906 1.258 . S
O921 La897 2.503 . S
O921 C906 1.256 . S
O922 La897 2.521 . S
O922 C907 1.261 . S
O923 La897 2.628 . S
O923 C907 1.243 . S
O924 La897 2.554 . S
O924 C914 1.240 . S
O925 La896 2.482 . S
O925 La897 2.757 . S
O925 C914 1.289 . S
O926 La897 2.470 . S
O926 C915 1.258 . S
O927 La896 2.503 . S
O927 C915 1.256 . S
H928 C900 0.930 . S
H929 C901 0.930 . S
H930 C903 0.929 . S
H931 C904 0.929 . S
H932 C909 0.930 . S
H933 C910 0.930 . S
H934 C912 0.929 . S
H935 C913 0.929 . S
La936 C938 2.928 . S
La936 O956 2.521 . S
La936 O957 2.628 . S
La936 O958 2.554 1_554 S
La936 O959 2.757 . S
La936 O960 2.470 . S
La936 O965 2.482 . S
La936 O967 2.503 . S
La937 C947 2.928 1_455 S
La937 O959 2.482 . S
La937 O961 2.503 . S
La937 O962 2.521 1_455 S
La937 O963 2.607 1_455 S
La937 O964 2.554 . S
La937 O965 2.757 . S
La937 O966 2.470 . S
C938 La936 2.928 . S
C938 C939 1.503 . S
C938 O956 1.261 . S
C938 O957 1.243 . S
C939 C938 1.503 . S
C939 C940 1.394 . S
C939 C944 1.373 . S
C940 C939 1.394 . S
C940 C941 1.380 1_554 S
C940 H968 0.930 1_554 S
C941 C940 1.380 1_556 S
C941 C942 1.376 1_556 S
C941 H969 0.930 . S
C942 C941 1.376 1_554 S
C942 C943 1.370 . S
C943 C942 1.370 . S
C943 C944 1.396 . S
C943 H970 0.929 . S
C944 C939 1.373 . S
C944 C943 1.396 . S
C944 H971 0.929 . S
C945 O958 1.228 1_554 S
C945 O959 1.327 . S
C946 O960 1.258 . S
C946 O961 1.256 . S
C947 La937 2.928 1_655 S
C947 C948 1.503 . S
C947 O962 1.261 . S
C947 O963 1.257 . S
C948 C947 1.503 . S
C948 C949 1.394 . S
C948 C953 1.373 . S
C949 C948 1.394 . S
C949 C950 1.380 . S
C949 H972 0.930 . S
C950 C949 1.380 . S
C950 C951 1.376 . S
C950 H973 0.930 . S
C951 C950 1.376 . S
C951 C952 1.370 . S
C952 C951 1.370 . S
C952 C953 1.396 . S
C952 H974 0.929 . S
C953 C948 1.373 . S
C953 C952 1.396 . S
C953 H975 0.929 . S
C954 O964 1.240 . S
C954 O965 1.289 . S
C955 O966 1.258 . S
C955 O967 1.256 . S
O956 La936 2.521 . S
O956 C938 1.261 . S
O957 La936 2.628 . S
O957 C938 1.243 . S
O958 La936 2.554 1_556 S
O958 C945 1.228 1_556 S
O959 La936 2.757 . S
O959 La937 2.482 . S
O959 C945 1.327 . S
O960 La936 2.470 . S
O960 C946 1.258 . S
O961 La937 2.503 . S
O961 C946 1.256 . S
O962 La937 2.521 1_655 S
O962 C947 1.261 . S
O963 La937 2.607 1_655 S
O963 C947 1.257 . S
O964 La937 2.554 . S
O964 C954 1.240 . S
O965 La936 2.482 . S
O965 La937 2.757 . S
O965 C954 1.289 . S
O966 La937 2.470 . S
O966 C955 1.258 . S
O967 La936 2.503 . S
O967 C955 1.256 . S
H968 C940 0.930 1_556 S
H969 C941 0.930 . S
H970 C943 0.929 . S
H971 C944 0.929 . S
H972 C949 0.930 . S
H973 C950 0.930 . S
H974 C952 0.929 . S
H975 C953 0.929 . S
H976 C984 0.929 1_655 S
H977 C986 0.930 1_655 S
H978 C988 0.930 . S
H979 C991 0.929 . S
H980 C994 0.970 . S
H981 C996 0.960 . S
H982 C996 0.960 . S
H983 C996 0.960 . S
C984 H976 0.929 1_455 S
C984 C985 1.377 . S
C984 C986 1.384 . S
C985 C984 1.377 . S
C985 C991 1.390 . S
C986 H977 0.930 1_455 S
C986 C984 1.384 . S
C986 C987 1.372 . S
C987 C986 1.372 . S
C987 C988 1.400 . S
C987 C992 1.490 . S
C988 H978 0.930 . S
C988 C987 1.400 . S
C988 C991 1.386 . S
H989 C1005 0.930 . S
H990 C1006 0.931 . S
C991 H979 0.929 . S
C991 C985 1.390 . S
C991 C988 1.386 . S
C992 C987 1.490 . S
C992 C994 1.395 . S
C992 C995 1.403 . S
H993 C999 0.930 . S
C994 H980 0.970 . S
C994 C992 1.395 . S
C994 C997 1.403 . S
C995 C992 1.403 . S
C995 C996 1.524 . S
C995 C999 1.400 . S
C996 H981 0.960 . S
C996 H982 0.960 . S
C996 H983 0.960 . S
C996 C995 1.524 . S
C997 C994 1.403 . S
C997 C998 1.392 . S
C997 C1001 1.495 1_455 S
C998 C997 1.392 . S
C998 C999 1.385 . S
C998 C1000 1.478 . S
C999 H993 0.930 . S
C999 C995 1.400 . S
C999 C998 1.385 . S
C1000 C998 1.478 . S
C1000 C1002 1.381 . S
C1000 C1006 1.383 . S
C1001 C997 1.495 1_655 S
C1001 H1007 0.959 . S
C1001 H1008 0.961 1_655 S
C1001 H1009 0.960 . S
C1002 C1000 1.381 . S
C1002 C1003 1.394 1_556 S
C1002 H1010 0.930 . S
C1003 C1002 1.394 1_554 S
C1003 C1004 1.397 . S
C1003 H1011 0.929 . S
C1004 C1003 1.397 . S
C1004 C1005 1.331 1_554 S
C1005 H989 0.930 . S
C1005 C1004 1.331 1_556 S
C1005 C1006 1.379 . S
C1006 H990 0.931 . S
C1006 C1000 1.383 . S
C1006 C1005 1.379 . S
H1007 C1001 0.959 . S
H1008 C1001 0.961 1_455 S
H1009 C1001 0.960 . S
H1010 C1002 0.930 . S
H1011 C1003 0.929 . S
H1012 C1020 0.929 . S
H1013 C1022 0.930 . S
H1014 C1024 0.930 . S
H1015 C1027 0.929 . S
H1016 C1030 0.930 . S
H1017 C1032 0.960 . S
H1018 C1032 0.960 . S
H1019 C1032 0.960 . S
C1020 H1012 0.929 . S
C1020 C1021 1.377 . S
C1020 C1022 1.384 . S
C1021 C1020 1.377 . S
C1021 C1027 1.390 . S
C1022 H1013 0.930 . S
C1022 C1020 1.384 . S
C1022 C1023 1.372 . S
C1023 C1022 1.372 . S
C1023 C1024 1.400 . S
C1023 C1028 1.490 . S
C1024 H1014 0.930 . S
C1024 C1023 1.400 . S
C1024 C1027 1.386 . S
H1025 C1041 0.930 . S
H1026 C1042 0.931 . S
C1027 H1015 0.929 . S
C1027 C1021 1.390 . S
C1027 C1024 1.386 . S
C1028 C1023 1.490 . S
C1028 C1030 1.395 . S
C1028 C1031 1.403 . S
H1029 C1035 0.930 . S
C1030 H1016 0.930 . S
C1030 C1028 1.395 . S
C1030 C1033 1.403 . S
C1031 C1028 1.403 . S
C1031 C1032 1.524 . S
C1031 C1035 1.400 . S
C1032 H1017 0.960 . S
C1032 H1018 0.960 . S
C1032 H1019 0.960 . S
C1032 C1031 1.524 . S
C1033 C1030 1.403 . S
C1033 C1034 1.392 . S
C1033 C1037 1.495 . S
C1034 C1033 1.392 . S
C1034 C1035 1.385 . S
C1034 C1036 1.478 . S
C1035 H1029 0.930 . S
C1035 C1031 1.400 . S
C1035 C1034 1.385 . S
C1036 C1034 1.478 . S
C1036 C1038 1.381 . S
C1036 C1042 1.383 . S
C1037 C1033 1.495 . S
C1037 H1043 0.959 . S
C1037 H1044 0.961 . S
C1037 H1045 0.960 . S
C1038 C1036 1.381 . S
C1038 C1039 1.394 . S
C1038 H1046 0.930 . S
C1039 C1038 1.394 . S
C1039 C1040 1.383 . S
C1039 H1047 0.929 . S
C1040 C1039 1.383 . S
C1040 C1041 1.377 . S
C1041 H1025 0.930 . S
C1041 C1040 1.377 . S
C1041 C1042 1.379 . S
C1042 H1026 0.931 . S
C1042 C1036 1.383 . S
C1042 C1041 1.379 . S
H1043 C1037 0.959 . S
H1044 C1037 0.961 . S
H1045 C1037 0.960 . S
H1046 C1038 0.930 . S
H1047 C1039 0.929 . S
H1048 C1056 0.929 . S
H1049 C1058 0.930 . S
H1050 C1060 0.930 . S
H1051 C1063 0.929 . S
H1052 C1066 0.930 . S
H1053 C1068 0.960 . S
H1054 C1068 0.960 . S
H1055 C1068 0.960 . S
C1056 H1048 0.929 . S
C1056 C1057 1.377 . S
C1056 C1058 1.384 . S
C1057 C1056 1.377 . S
C1057 C1063 1.390 . S
C1058 H1049 0.930 . S
C1058 C1056 1.384 . S
C1058 C1059 1.372 . S
C1059 C1058 1.372 . S
C1059 C1060 1.400 . S
C1059 C1064 1.490 . S
C1060 H1050 0.930 . S
C1060 C1059 1.400 . S
C1060 C1063 1.386 . S
H1061 C1077 0.930 . S
H1062 C1078 0.931 . S
C1063 H1051 0.929 . S
C1063 C1057 1.390 . S
C1063 C1060 1.386 . S
C1064 C1059 1.490 . S
C1064 C1066 1.395 . S
C1064 C1067 1.403 . S
H1065 C1071 0.930 . S
C1066 H1052 0.930 . S
C1066 C1064 1.395 . S
C1066 C1069 1.403 . S
C1067 C1064 1.403 . S
C1067 C1068 1.524 . S
C1067 C1071 1.400 . S
C1068 H1053 0.960 . S
C1068 H1054 0.960 . S
C1068 H1055 0.960 . S
C1068 C1067 1.524 . S
C1069 C1066 1.403 . S
C1069 C1070 1.392 . S
C1069 C1073 1.495 . S
C1070 C1069 1.392 . S
C1070 C1071 1.385 . S
C1070 C1072 1.478 . S
C1071 H1065 0.930 . S
C1071 C1067 1.400 . S
C1071 C1070 1.385 . S
C1072 C1070 1.478 . S
C1072 C1074 1.381 . S
C1072 C1078 1.383 . S
C1073 C1069 1.495 . S
C1073 H1079 0.959 . S
C1073 H1080 0.961 . S
C1073 H1081 0.960 . S
C1074 C1072 1.381 . S
C1074 C1075 1.394 . S
C1074 H1082 0.930 . S
C1075 C1074 1.394 . S
C1075 C1076 1.383 . S
C1075 H1083 0.929 . S
C1076 C1075 1.383 . S
C1076 C1077 1.377 . S
C1077 H1061 0.930 . S
C1077 C1076 1.377 . S
C1077 C1078 1.379 . S
C1078 H1062 0.931 . S
C1078 C1072 1.383 . S
C1078 C1077 1.379 . S
H1079 C1073 0.959 . S
H1080 C1073 0.961 . S
H1081 C1073 0.960 . S
H1082 C1074 0.930 . S
H1083 C1075 0.929 . S
H1084 C1092 0.929 . S
H1085 C1094 0.930 . S
H1086 C1096 0.930 . S
H1087 C1099 0.929 . S
H1088 C1102 0.930 . S
H1089 C1104 0.960 . S
H1090 C1104 0.960 . S
H1091 C1104 0.960 . S
C1092 H1084 0.929 . S
C1092 C1093 1.377 . S
C1092 C1094 1.384 . S
C1093 C1092 1.377 . S
C1093 C1099 1.390 . S
C1094 H1085 0.930 . S
C1094 C1092 1.384 . S
C1094 C1095 1.372 . S
C1095 C1094 1.372 . S
C1095 C1096 1.400 . S
C1095 C1100 1.490 . S
C1096 H1086 0.930 . S
C1096 C1095 1.400 . S
C1096 C1099 1.386 . S
H1097 C1113 0.930 . S
H1098 C1114 0.931 . S
C1099 H1087 0.929 . S
C1099 C1093 1.390 . S
C1099 C1096 1.386 . S
C1100 C1095 1.490 . S
C1100 C1102 1.395 . S
C1100 C1103 1.403 . S
H1101 C1107 0.930 . S
C1102 H1088 0.930 . S
C1102 C1100 1.395 . S
C1102 C1105 1.403 . S
C1103 C1100 1.403 . S
C1103 C1104 1.524 . S
C1103 C1107 1.400 . S
C1104 H1089 0.960 . S
C1104 H1090 0.960 . S
C1104 H1091 0.960 . S
C1104 C1103 1.524 . S
C1105 C1102 1.403 . S
C1105 C1106 1.392 . S
C1105 C1109 1.495 . S
C1106 C1105 1.392 . S
C1106 C1107 1.385 . S
C1106 C1108 1.478 . S
C1107 H1101 0.930 . S
C1107 C1103 1.400 . S
C1107 C1106 1.385 . S
C1108 C1106 1.478 . S
C1108 C1110 1.381 . S
C1108 C1114 1.383 . S
C1109 C1105 1.495 . S
C1109 H1115 0.959 . S
C1109 H1116 0.961 . S
C1109 H1117 0.960 . S
C1110 C1108 1.381 . S
C1110 C1111 1.394 . S
C1110 H1118 0.930 . S
C1111 C1110 1.394 . S
C1111 C1112 1.383 . S
C1111 H1119 0.929 . S
C1112 C1111 1.383 . S
C1112 C1113 1.377 . S
C1113 H1097 0.930 . S
C1113 C1112 1.377 . S
C1113 C1114 1.379 . S
C1114 H1098 0.931 . S
C1114 C1108 1.383 . S
C1114 C1113 1.379 . S
H1115 C1109 0.959 . S
H1116 C1109 0.961 . S
H1117 C1109 0.960 . S
H1118 C1110 0.930 . S
H1119 C1111 0.929 . S
H1120 C1128 0.929 . S
H1121 C1130 0.930 . S
H1122 C1132 0.930 . S
H1123 C1135 0.929 1_655 S
H1124 C1138 0.930 . S
H1125 C1140 0.960 . S
H1126 C1140 0.960 . S
H1127 C1140 0.960 . S
C1128 H1120 0.929 . S
C1128 C1129 1.377 . S
C1128 C1130 1.384 . S
C1129 C1128 1.377 . S
C1129 C1135 1.390 . S
C1130 H1121 0.930 . S
C1130 C1128 1.384 . S
C1130 C1131 1.372 . S
C1131 C1130 1.372 . S
C1131 C1132 1.400 . S
C1131 C1136 1.490 . S
C1132 H1122 0.930 . S
C1132 C1131 1.400 . S
C1132 C1135 1.386 . S
H1133 C1149 0.930 . S
H1134 C1150 0.931 . S
C1135 H1123 0.929 1_455 S
C1135 C1129 1.390 . S
C1135 C1132 1.386 . S
C1136 C1131 1.490 . S
C1136 C1138 1.395 . S
C1136 C1139 1.403 . S
H1137 C1143 0.930 . S
C1138 H1124 0.930 . S
C1138 C1136 1.395 . S
C1138 C1141 1.403 . S
C1139 C1136 1.403 . S
C1139 C1140 1.524 . S
C1139 C1143 1.400 . S
C1140 H1125 0.960 . S
C1140 H1126 0.960 . S
C1140 H1127 0.960 . S
C1140 C1139 1.524 . S
C1141 C1138 1.403 . S
C1141 C1142 1.392 . S
C1141 C1145 1.495 . S
C1142 C1141 1.392 . S
C1142 C1143 1.385 . S
C1142 C1144 1.478 . S
C1143 H1137 0.930 . S
C1143 C1139 1.400 . S
C1143 C1142 1.385 . S
C1144 C1142 1.478 . S
C1144 C1146 1.381 . S
C1144 C1150 1.383 . S
C1145 C1141 1.495 . S
C1145 H1151 0.959 . S
C1145 H1152 0.961 . S
C1145 H1153 0.960 . S
C1146 C1144 1.381 . S
C1146 C1147 1.394 . S
C1146 H1154 0.930 . S
C1147 C1146 1.394 . S
C1147 C1148 1.383 . S
C1147 H1155 0.929 . S
C1148 C1147 1.383 . S
C1148 C1149 1.377 . S
C1149 H1133 0.930 . S
C1149 C1148 1.377 . S
C1149 C1150 1.379 . S
C1150 H1134 0.931 . S
C1150 C1144 1.383 . S
C1150 C1149 1.379 . S
H1151 C1145 0.959 . S
H1152 C1145 0.961 . S
H1153 C1145 0.960 . S
H1154 C1146 0.930 . S
H1155 C1147 0.929 . S
H1156 C1164 0.929 . S
H1157 C1166 0.930 . S
H1158 C1168 0.930 . S
H1159 C1171 0.929 . S
H1160 C1174 0.930 . S
H1161 C1176 0.960 . S
H1162 C1176 0.960 . S
H1163 C1176 0.960 . S
C1164 H1156 0.929 . S
C1164 C1165 1.377 . S
C1164 C1166 1.384 . S
C1165 C1164 1.377 . S
C1165 C1171 1.390 . S
C1166 H1157 0.930 . S
C1166 C1164 1.384 . S
C1166 C1167 1.372 . S
C1167 C1166 1.372 . S
C1167 C1168 1.400 . S
C1167 C1172 1.490 . S
C1168 H1158 0.930 . S
C1168 C1167 1.400 . S
C1168 C1171 1.386 . S
H1169 C1185 0.930 . S
H1170 C1186 0.931 . S
C1171 H1159 0.929 . S
C1171 C1165 1.390 . S
C1171 C1168 1.386 . S
C1172 C1167 1.490 . S
C1172 C1174 1.395 . S
C1172 C1175 1.403 . S
H1173 C1179 0.930 . S
C1174 H1160 0.930 . S
C1174 C1172 1.395 . S
C1174 C1177 1.403 . S
C1175 C1172 1.403 . S
C1175 C1176 1.524 . S
C1175 C1179 1.400 . S
C1176 H1161 0.960 . S
C1176 H1162 0.960 . S
C1176 H1163 0.960 . S
C1176 C1175 1.524 . S
C1177 C1174 1.403 . S
C1177 C1178 1.392 . S
C1177 C1181 1.495 . S
C1178 C1177 1.392 . S
C1178 C1179 1.385 . S
C1178 C1180 1.478 . S
C1179 H1173 0.930 . S
C1179 C1175 1.400 . S
C1179 C1178 1.385 . S
C1180 C1178 1.478 . S
C1180 C1182 1.381 . S
C1180 C1186 1.383 . S
C1181 C1177 1.495 . S
C1181 H1187 0.959 . S
C1181 H1188 0.961 . S
C1181 H1189 0.960 . S
C1182 C1180 1.381 . S
C1182 C1183 1.394 . S
C1182 H1190 0.930 . S
C1183 C1182 1.394 . S
C1183 C1184 1.383 . S
C1183 H1191 0.929 . S
C1184 C1183 1.383 . S
C1184 C1185 1.377 . S
C1185 H1169 0.930 . S
C1185 C1184 1.377 . S
C1185 C1186 1.379 . S
C1186 H1170 0.931 . S
C1186 C1180 1.383 . S
C1186 C1185 1.379 . S
H1187 C1181 0.959 . S
H1188 C1181 0.961 . S
H1189 C1181 0.960 . S
H1190 C1182 0.930 . S
H1191 C1183 0.929 . S
H1192 C1200 0.929 . S
H1193 C1202 0.930 . S
H1194 C1204 0.930 . S
H1195 C1207 0.929 . S
H1196 C1210 0.930 . S
H1197 C1212 0.960 . S
H1198 C1212 0.960 . S
H1199 C1212 0.960 . S
C1200 H1192 0.929 . S
C1200 C1201 1.377 . S
C1200 C1202 1.384 . S
C1201 C1200 1.377 . S
C1201 C1207 1.390 . S
C1202 H1193 0.930 . S
C1202 C1200 1.384 . S
C1202 C1203 1.372 . S
C1203 C1202 1.372 . S
C1203 C1204 1.400 . S
C1203 C1208 1.490 . S
C1204 H1194 0.930 . S
C1204 C1203 1.400 . S
C1204 C1207 1.386 . S
H1205 C1221 0.930 . S
H1206 C1222 0.931 . S
C1207 H1195 0.929 . S
C1207 C1201 1.390 . S
C1207 C1204 1.386 . S
C1208 C1203 1.490 . S
C1208 C1210 1.395 . S
C1208 C1211 1.403 . S
H1209 C1215 0.930 . S
C1210 H1196 0.930 . S
C1210 C1208 1.395 . S
C1210 C1213 1.403 . S
C1211 C1208 1.403 . S
C1211 C1212 1.524 . S
C1211 C1215 1.400 . S
C1212 H1197 0.960 . S
C1212 H1198 0.960 . S
C1212 H1199 0.960 . S
C1212 C1211 1.524 . S
C1213 C1210 1.403 . S
C1213 C1214 1.392 . S
C1213 C1217 1.495 . S
C1214 C1213 1.392 . S
C1214 C1215 1.385 . S
C1214 C1216 1.478 . S
C1215 H1209 0.930 . S
C1215 C1211 1.400 . S
C1215 C1214 1.385 . S
C1216 C1214 1.478 . S
C1216 C1218 1.381 . S
C1216 C1222 1.383 . S
C1217 C1213 1.495 . S
C1217 H1223 0.959 . S
C1217 H1224 0.961 . S
C1217 H1225 0.960 . S
C1218 C1216 1.381 . S
C1218 C1219 1.394 . S
C1218 H1226 0.930 . S
C1219 C1218 1.394 . S
C1219 C1220 1.383 . S
C1219 H1227 0.929 . S
C1220 C1219 1.383 . S
C1220 C1221 1.377 . S
C1221 H1205 0.930 . S
C1221 C1220 1.377 . S
C1221 C1222 1.379 . S
C1222 H1206 0.931 . S
C1222 C1216 1.383 . S
C1222 C1221 1.379 . S
H1223 C1217 0.959 . S
H1224 C1217 0.961 . S
H1225 C1217 0.960 . S
H1226 C1218 0.930 . S
H1227 C1219 0.929 . S
H1228 C1236 0.929 . S
H1229 C1238 0.930 . S
H1230 C1240 0.930 . S
H1231 C1243 0.929 . S
H1232 C1246 0.930 . S
H1233 C1248 0.960 . S
H1234 C1248 0.960 . S
H1235 C1248 0.960 . S
C1236 H1228 0.929 . S
C1236 C1237 1.377 . S
C1236 C1238 1.384 . S
C1237 C1236 1.377 . S
C1237 C1243 1.390 . S
C1238 H1229 0.930 . S
C1238 C1236 1.384 . S
C1238 C1239 1.372 . S
C1239 C1238 1.372 . S
C1239 C1240 1.400 . S
C1239 C1244 1.490 . S
C1240 H1230 0.930 . S
C1240 C1239 1.400 . S
C1240 C1243 1.386 . S
H1241 C1257 0.930 . S
H1242 C1258 0.931 . S
C1243 H1231 0.929 . S
C1243 C1237 1.390 . S
C1243 C1240 1.386 . S
C1244 C1239 1.490 . S
C1244 C1246 1.395 . S
C1244 C1247 1.403 . S
H1245 C1251 0.930 . S
C1246 H1232 0.930 . S
C1246 C1244 1.395 . S
C1246 C1249 1.403 . S
C1247 C1244 1.403 . S
C1247 C1248 1.524 . S
C1247 C1251 1.400 . S
C1248 H1233 0.960 . S
C1248 H1234 0.960 . S
C1248 H1235 0.960 . S
C1248 C1247 1.524 . S
C1249 C1246 1.403 . S
C1249 C1250 1.392 . S
C1249 C1253 1.495 . S
C1250 C1249 1.392 . S
C1250 C1251 1.385 . S
C1250 C1252 1.478 . S
C1251 H1245 0.930 . S
C1251 C1247 1.400 . S
C1251 C1250 1.385 . S
C1252 C1250 1.478 . S
C1252 C1254 1.381 . S
C1252 C1258 1.383 . S
C1253 C1249 1.495 . S
C1253 H1259 0.959 . S
C1253 H1260 0.961 . S
C1253 H1261 0.960 . S
C1254 C1252 1.381 . S
C1254 C1255 1.394 . S
C1254 H1262 0.930 . S
C1255 C1254 1.394 . S
C1255 C1256 1.383 . S
C1255 H1263 0.929 . S
C1256 C1255 1.383 . S
C1256 C1257 1.377 . S
C1257 H1241 0.930 . S
C1257 C1256 1.377 . S
C1257 C1258 1.379 . S
C1258 H1242 0.931 . S
C1258 C1252 1.383 . S
C1258 C1257 1.379 . S
H1259 C1253 0.959 . S
H1260 C1253 0.961 . S
H1261 C1253 0.960 . S
H1262 C1254 0.930 . S
H1263 C1255 0.929 . S
H1264 C1272 0.929 . S
H1265 C1274 0.930 . S
H1266 C1276 0.930 . S
H1267 C1279 0.929 . S
H1268 C1282 0.930 . S
H1269 C1284 0.960 . S
H1270 C1284 0.960 . S
H1271 C1284 0.960 . S
C1272 H1264 0.929 . S
C1272 C1273 1.377 . S
C1272 C1274 1.384 . S
C1273 C1272 1.377 . S
C1273 C1279 1.390 . S
C1274 H1265 0.930 . S
C1274 C1272 1.384 . S
C1274 C1275 1.372 . S
C1275 C1274 1.372 . S
C1275 C1276 1.400 . S
C1275 C1280 1.490 . S
C1276 H1266 0.930 . S
C1276 C1275 1.400 . S
C1276 C1279 1.386 . S
H1277 C1293 0.951 . S
H1278 C1294 0.936 . S
C1279 H1267 0.929 . S
C1279 C1273 1.390 . S
C1279 C1276 1.386 . S
C1280 C1275 1.490 . S
C1280 C1282 1.395 . S
C1280 C1283 1.403 . S
H1281 C1287 0.930 . S
C1282 H1268 0.930 . S
C1282 C1280 1.395 . S
C1282 C1285 1.403 1_655 S
C1283 C1280 1.403 . S
C1283 C1284 1.524 . S
C1283 C1287 1.400 . S
C1284 H1269 0.960 . S
C1284 H1270 0.960 . S
C1284 H1271 0.960 . S
C1284 C1283 1.524 . S
C1285 C1282 1.403 1_455 S
C1285 C1286 1.392 . S
C1285 C1289 1.495 . S
C1286 C1285 1.392 . S
C1286 C1287 1.385 1_455 S
C1286 C1288 1.478 . S
C1287 H1281 0.930 . S
C1287 C1283 1.400 . S
C1287 C1286 1.385 1_655 S
C1288 C1286 1.478 . S
C1288 C1290 1.381 . S
C1288 C1294 1.381 1_455 S
C1289 C1285 1.495 . S
C1289 H1295 0.959 . S
C1289 H1296 0.961 . S
C1289 H1297 0.960 . S
C1290 C1288 1.381 . S
C1290 C1291 1.394 . S
C1290 H1298 0.930 . S
C1291 C1290 1.394 . S
C1291 C1292 1.383 . S
C1291 H1299 0.929 . S
C1292 C1291 1.383 . S
C1292 C1293 1.377 . S
C1293 H1277 0.951 . S
C1293 C1292 1.377 . S
C1293 C1294 1.377 1_455 S
C1294 H1278 0.936 . S
C1294 C1288 1.381 1_655 S
C1294 C1293 1.377 1_655 S
H1295 C1289 0.959 . S
H1296 C1289 0.961 . S
H1297 C1289 0.960 . S
H1298 C1290 0.930 . S
H1299 C1291 0.929 . S
H1300 C1308 0.929 . S
H1301 C1310 0.930 . S
H1302 C1312 0.930 . S
H1303 C1315 0.929 . S
H1304 C1318 0.930 . S
H1305 C1320 0.960 . S
H1306 C1320 0.960 . S
H1307 C1320 0.960 . S
C1308 H1300 0.929 . S
C1308 C1309 1.377 . S
C1308 C1310 1.384 . S
C1309 C1308 1.377 . S
C1309 C1315 1.390 . S
C1310 H1301 0.930 . S
C1310 C1308 1.384 . S
C1310 C1311 1.372 . S
C1311 C1310 1.372 . S
C1311 C1312 1.400 . S
C1311 C1316 1.490 . S
C1312 H1302 0.930 . S
C1312 C1311 1.400 . S
C1312 C1315 1.386 . S
H1313 C1329 0.930 . S
H1314 C1330 0.931 . S
C1315 H1303 0.929 . S
C1315 C1309 1.390 . S
C1315 C1312 1.386 . S
C1316 C1311 1.490 . S
C1316 C1318 1.395 . S
C1316 C1319 1.403 . S
H1317 C1323 0.930 . S
C1318 H1304 0.930 . S
C1318 C1316 1.395 . S
C1318 C1321 1.403 . S
C1319 C1316 1.403 . S
C1319 C1320 1.524 . S
C1319 C1323 1.400 . S
C1320 H1305 0.960 . S
C1320 H1306 0.960 . S
C1320 H1307 0.960 . S
C1320 C1319 1.524 . S
C1321 C1318 1.403 . S
C1321 C1322 1.392 . S
C1321 C1325 1.495 . S
C1322 C1321 1.392 . S
C1322 C1323 1.385 . S
C1322 C1324 1.478 . S
C1323 H1317 0.930 . S
C1323 C1319 1.400 . S
C1323 C1322 1.385 . S
C1324 C1322 1.478 . S
C1324 C1326 1.381 . S
C1324 C1330 1.383 . S
C1325 C1321 1.495 . S
C1325 H1331 0.959 . S
C1325 H1332 0.961 . S
C1325 H1333 0.960 . S
C1326 C1324 1.381 . S
C1326 C1327 1.394 . S
C1326 H1334 0.930 . S
C1327 C1326 1.394 . S
C1327 C1328 1.383 . S
C1327 H1335 0.929 . S
C1328 C1327 1.383 . S
C1328 C1329 1.377 . S
C1329 H1313 0.930 . S
C1329 C1328 1.377 . S
C1329 C1330 1.379 . S
C1330 H1314 0.931 . S
C1330 C1324 1.383 . S
C1330 C1329 1.379 . S
H1331 C1325 0.959 . S
H1332 C1325 0.961 . S
H1333 C1325 0.960 . S
H1334 C1326 0.930 . S
H1335 C1327 0.929 . S
H1336 C1344 0.929 . S
H1337 C1346 0.930 . S
H1338 C1348 0.930 . S
H1339 C1351 0.929 . S
H1340 C1354 0.930 . S
H1341 C1356 0.960 . S
H1342 C1356 0.960 . S
H1343 C1356 0.960 . S
C1344 H1336 0.929 . S
C1344 C1345 1.377 . S
C1344 C1346 1.384 . S
C1345 C1344 1.377 . S
C1345 C1351 1.390 . S
C1346 H1337 0.930 . S
C1346 C1344 1.384 . S
C1346 C1347 1.372 . S
C1347 C1346 1.372 . S
C1347 C1348 1.400 . S
C1347 C1352 1.490 . S
C1348 H1338 0.930 . S
C1348 C1347 1.400 . S
C1348 C1351 1.386 . S
H1349 C1365 0.930 . S
H1350 C1366 0.931 . S
C1351 H1339 0.929 . S
C1351 C1345 1.390 . S
C1351 C1348 1.386 . S
C1352 C1347 1.490 . S
C1352 C1354 1.395 . S
C1352 C1355 1.403 . S
H1353 C1359 0.930 . S
C1354 H1340 0.930 . S
C1354 C1352 1.395 . S
C1354 C1357 1.403 . S
C1355 C1352 1.403 . S
C1355 C1356 1.524 . S
C1355 C1359 1.400 . S
C1356 H1341 0.960 . S
C1356 H1342 0.960 . S
C1356 H1343 0.960 . S
C1356 C1355 1.524 . S
C1357 C1354 1.403 . S
C1357 C1358 1.392 . S
C1357 C1361 1.495 . S
C1358 C1357 1.392 . S
C1358 C1359 1.385 . S
C1358 C1360 1.478 . S
C1359 H1353 0.930 . S
C1359 C1355 1.400 . S
C1359 C1358 1.385 . S
C1360 C1358 1.478 . S
C1360 C1362 1.381 . S
C1360 C1366 1.383 . S
C1361 C1357 1.495 . S
C1361 H1367 0.959 1_545 S
C1361 H1368 0.953 . S
C1361 H1369 0.960 1_545 S
C1362 C1360 1.381 . S
C1362 C1363 1.394 . S
C1362 H1370 0.930 . S
C1363 C1362 1.394 . S
C1363 C1364 1.383 . S
C1363 H1371 0.929 . S
C1364 C1363 1.383 . S
C1364 C1365 1.377 . S
C1365 H1349 0.930 . S
C1365 C1364 1.377 . S
C1365 C1366 1.379 . S
C1366 H1350 0.931 . S
C1366 C1360 1.383 . S
C1366 C1365 1.379 . S
H1367 C1361 0.959 1_565 S
H1368 C1361 0.953 . S
H1369 C1361 0.960 1_565 S
H1370 C1362 0.930 . S
H1371 C1363 0.929 . S
H1372 C1380 0.929 . S
H1373 C1382 0.930 . S
H1374 C1384 0.930 . S
H1375 C1387 0.929 . S
H1376 C1390 0.930 . S
H1377 C1392 0.960 . S
H1378 C1392 0.960 . S
H1379 C1392 0.960 . S
C1380 H1372 0.929 . S
C1380 C1381 1.377 . S
C1380 C1382 1.384 . S
C1381 C1380 1.377 . S
C1381 C1387 1.390 . S
C1382 H1373 0.930 . S
C1382 C1380 1.384 . S
C1382 C1383 1.372 . S
C1383 C1382 1.372 . S
C1383 C1384 1.400 . S
C1383 C1388 1.490 . S
C1384 H1374 0.930 . S
C1384 C1383 1.400 . S
C1384 C1387 1.386 . S
H1385 C1401 0.930 . S
H1386 C1402 0.931 . S
C1387 H1375 0.929 . S
C1387 C1381 1.390 . S
C1387 C1384 1.386 . S
C1388 C1383 1.490 . S
C1388 C1390 1.395 . S
C1388 C1391 1.403 . S
H1389 C1395 0.930 . S
C1390 H1376 0.930 . S
C1390 C1388 1.395 . S
C1390 C1393 1.403 . S
C1391 C1388 1.403 . S
C1391 C1392 1.524 . S
C1391 C1395 1.400 . S
C1392 H1377 0.960 . S
C1392 H1378 0.960 . S
C1392 H1379 0.960 . S
C1392 C1391 1.524 . S
C1393 C1390 1.403 . S
C1393 C1394 1.392 . S
C1393 C1397 1.495 . S
C1394 C1393 1.392 . S
C1394 C1395 1.385 . S
C1394 C1396 1.478 . S
C1395 H1389 0.930 . S
C1395 C1391 1.400 . S
C1395 C1394 1.385 . S
C1396 C1394 1.478 . S
C1396 C1398 1.381 . S
C1396 C1402 1.383 . S
C1397 C1393 1.495 . S
C1397 H1403 0.959 . S
C1397 H1404 0.961 . S
C1397 H1405 0.960 . S
C1398 C1396 1.381 . S
C1398 C1399 1.394 . S
C1398 H1406 0.930 . S
C1399 C1398 1.394 . S
C1399 C1400 1.383 . S
C1399 H1407 0.929 . S
C1400 C1399 1.383 . S
C1400 C1401 1.377 . S
C1401 H1385 0.930 . S
C1401 C1400 1.377 . S
C1401 C1402 1.379 . S
C1402 H1386 0.931 . S
C1402 C1396 1.383 . S
C1402 C1401 1.379 . S
H1403 C1397 0.959 . S
H1404 C1397 0.961 . S
H1405 C1397 0.960 . S
H1406 C1398 0.930 . S
H1407 C1399 0.929 . S
H1408 C1416 0.929 . S
H1409 C1418 0.930 . S
H1410 C1420 0.930 . S
H1411 C1423 0.929 . S
H1412 C1426 0.930 . S
H1413 C1428 0.960 . S
H1414 C1428 0.960 . S
H1415 C1428 0.960 . S
C1416 H1408 0.929 . S
C1416 C1417 1.377 . S
C1416 C1418 1.384 . S
C1417 C1416 1.377 . S
C1417 C1423 1.390 . S
C1418 H1409 0.930 . S
C1418 C1416 1.384 . S
C1418 C1419 1.372 . S
C1419 C1418 1.372 . S
C1419 C1420 1.400 . S
C1419 C1424 1.490 . S
C1420 H1410 0.930 . S
C1420 C1419 1.400 . S
C1420 C1423 1.386 . S
H1421 C1437 0.930 . S
H1422 C1438 0.931 . S
C1423 H1411 0.929 . S
C1423 C1417 1.390 . S
C1423 C1420 1.386 . S
C1424 C1419 1.490 . S
C1424 C1426 1.395 1_655 S
C1424 C1427 1.403 . S
H1425 C1431 0.930 . S
C1426 H1412 0.930 . S
C1426 C1424 1.395 1_455 S
C1426 C1429 1.403 . S
C1427 C1424 1.403 . S
C1427 C1428 1.524 . S
C1427 C1431 1.400 . S
C1428 H1413 0.960 . S
C1428 H1414 0.960 . S
C1428 H1415 0.960 . S
C1428 C1427 1.524 . S
C1429 C1426 1.403 . S
C1429 C1430 1.392 . S
C1429 C1433 1.495 . S
C1430 C1429 1.392 . S
C1430 C1431 1.385 1_455 S
C1430 C1432 1.478 . S
C1431 H1425 0.930 . S
C1431 C1427 1.400 . S
C1431 C1430 1.385 1_655 S
C1432 C1430 1.478 . S
C1432 C1434 1.381 . S
C1432 C1438 1.383 . S
C1433 C1429 1.495 . S
C1433 H1439 0.959 . S
C1433 H1440 0.961 . S
C1433 H1441 0.960 . S
C1434 C1432 1.381 . S
C1434 C1435 1.394 . S
C1434 H1442 0.930 . S
C1435 C1434 1.394 . S
C1435 C1436 1.383 . S
C1435 H1443 0.929 . S
C1436 C1435 1.383 . S
C1436 C1437 1.377 . S
C1437 H1421 0.930 . S
C1437 C1436 1.377 . S
C1437 C1438 1.379 . S
C1438 H1422 0.931 . S
C1438 C1432 1.383 . S
C1438 C1437 1.379 . S
H1439 C1433 0.959 . S
H1440 C1433 0.961 . S
H1441 C1433 0.960 . S
H1442 C1434 0.930 . S
H1443 C1435 0.929 . S
H1444 C1452 0.929 . S
H1445 C1454 0.930 . S
H1446 C1456 0.930 . S
H1447 C1459 0.929 . S
H1448 C1462 0.930 . S
H1449 C1464 0.960 . S
H1450 C1464 0.960 . S
H1451 C1464 0.960 . S
C1452 H1444 0.929 . S
C1452 C1453 1.377 . S
C1452 C1454 1.384 . S
C1453 C1452 1.377 . S
C1453 C1459 1.390 . S
C1454 H1445 0.930 . S
C1454 C1452 1.384 . S
C1454 C1455 1.372 . S
C1455 C1454 1.372 . S
C1455 C1456 1.400 . S
C1455 C1460 1.490 . S
C1456 H1446 0.930 . S
C1456 C1455 1.400 . S
C1456 C1459 1.386 . S
H1457 C1473 0.930 . S
H1458 C1474 0.931 . S
C1459 H1447 0.929 . S
C1459 C1453 1.390 . S
C1459 C1456 1.386 . S
C1460 C1455 1.490 . S
C1460 C1462 1.395 . S
C1460 C1463 1.403 . S
H1461 C1467 0.930 . S
C1462 H1448 0.930 . S
C1462 C1460 1.395 . S
C1462 C1465 1.403 . S
C1463 C1460 1.403 . S
C1463 C1464 1.524 . S
C1463 C1467 1.400 . S
C1464 H1449 0.960 . S
C1464 H1450 0.960 . S
C1464 H1451 0.960 . S
C1464 C1463 1.524 . S
C1465 C1462 1.403 . S
C1465 C1466 1.392 . S
C1465 C1469 1.495 . S
C1466 C1465 1.392 . S
C1466 C1467 1.385 . S
C1466 C1468 1.478 . S
C1467 H1461 0.930 . S
C1467 C1463 1.400 . S
C1467 C1466 1.385 . S
C1468 C1466 1.478 . S
C1468 C1470 1.381 . S
C1468 C1474 1.383 . S
C1469 C1465 1.495 . S
C1469 H1475 0.959 . S
C1469 H1476 0.961 . S
C1469 H1477 0.960 . S
C1470 C1468 1.381 . S
C1470 C1471 1.394 . S
C1470 H1478 0.930 . S
C1471 C1470 1.394 . S
C1471 C1472 1.383 . S
C1471 H1479 0.929 . S
C1472 C1471 1.383 . S
C1472 C1473 1.377 . S
C1473 H1457 0.930 . S
C1473 C1472 1.377 . S
C1473 C1474 1.379 . S
C1474 H1458 0.931 . S
C1474 C1468 1.383 . S
C1474 C1473 1.379 . S
H1475 C1469 0.959 . S
H1476 C1469 0.961 . S
H1477 C1469 0.960 . S
H1478 C1470 0.930 . S
H1479 C1471 0.929 . S
H1480 C1488 0.929 . S
H1481 C1490 0.930 . S
H1482 C1492 0.930 . S
H1483 C1495 0.929 . S
H1484 C1498 0.930 . S
H1485 C1500 0.960 . S
H1486 C1500 0.960 . S
H1487 C1500 0.960 . S
C1488 H1480 0.929 . S
C1488 C1489 1.377 . S
C1488 C1490 1.384 . S
C1489 C1488 1.377 . S
C1489 C1495 1.390 . S
C1490 H1481 0.930 . S
C1490 C1488 1.384 . S
C1490 C1491 1.372 . S
C1491 C1490 1.372 . S
C1491 C1492 1.400 . S
C1491 C1496 1.490 . S
C1492 H1482 0.930 . S
C1492 C1491 1.400 . S
C1492 C1495 1.386 . S
H1493 C1509 0.930 . S
H1494 C1510 0.931 . S
C1495 H1483 0.929 . S
C1495 C1489 1.390 . S
C1495 C1492 1.386 . S
C1496 C1491 1.490 . S
C1496 C1498 1.395 . S
C1496 C1499 1.403 . S
H1497 C1503 0.930 . S
C1498 H1484 0.930 . S
C1498 C1496 1.395 . S
C1498 C1501 1.403 . S
C1499 C1496 1.403 . S
C1499 C1500 1.524 . S
C1499 C1503 1.400 . S
C1500 H1485 0.960 . S
C1500 H1486 0.960 . S
C1500 H1487 0.960 . S
C1500 C1499 1.524 . S
C1501 C1498 1.403 . S
C1501 C1502 1.392 . S
C1501 C1505 1.495 . S
C1502 C1501 1.392 . S
C1502 C1503 1.385 . S
C1502 C1504 1.478 . S
C1503 H1497 0.930 . S
C1503 C1499 1.400 . S
C1503 C1502 1.385 . S
C1504 C1502 1.478 . S
C1504 C1506 1.381 . S
C1504 C1510 1.383 . S
C1505 C1501 1.495 . S
C1505 H1511 0.959 . S
C1505 H1512 0.961 . S
C1505 H1513 0.960 . S
C1506 C1504 1.381 . S
C1506 C1507 1.394 . S
C1506 H1514 0.930 . S
C1507 C1506 1.394 . S
C1507 C1508 1.383 . S
C1507 H1515 0.929 . S
C1508 C1507 1.383 . S
C1508 C1509 1.377 . S
C1509 H1493 0.930 . S
C1509 C1508 1.377 . S
C1509 C1510 1.379 . S
C1510 H1494 0.931 . S
C1510 C1504 1.383 . S
C1510 C1509 1.379 . S
H1511 C1505 0.959 . S
H1512 C1505 0.961 . S
H1513 C1505 0.960 . S
H1514 C1506 0.930 . S
H1515 C1507 0.929 . S
H1516 C1524 0.929 . S
H1517 C1526 0.930 . S
H1518 C1528 0.930 . S
H1519 C1531 0.929 . S
H1520 C1534 0.930 . S
H1521 C1536 0.960 . S
H1522 C1536 0.960 . S
H1523 C1536 0.960 . S
C1524 H1516 0.929 . S
C1524 C1525 1.377 . S
C1524 C1526 1.384 . S
C1525 C1524 1.377 . S
C1525 C1531 1.390 . S
C1526 H1517 0.930 . S
C1526 C1524 1.384 . S
C1526 C1527 1.372 . S
C1527 C1526 1.372 . S
C1527 C1528 1.400 . S
C1527 C1532 1.490 . S
C1528 H1518 0.930 . S
C1528 C1527 1.400 . S
C1528 C1531 1.386 . S
H1529 C1545 0.930 . S
H1530 C1546 0.931 . S
C1531 H1519 0.929 . S
C1531 C1525 1.390 . S
C1531 C1528 1.386 . S
C1532 C1527 1.490 . S
C1532 C1534 1.395 . S
C1532 C1535 1.403 . S
H1533 C1539 0.930 . S
C1534 H1520 0.930 . S
C1534 C1532 1.395 . S
C1534 C1537 1.403 . S
C1535 C1532 1.403 . S
C1535 C1536 1.524 . S
C1535 C1539 1.400 . S
C1536 H1521 0.960 . S
C1536 H1522 0.960 . S
C1536 H1523 0.960 . S
C1536 C1535 1.524 . S
C1537 C1534 1.403 . S
C1537 C1538 1.392 . S
C1537 C1541 1.495 . S
C1538 C1537 1.392 . S
C1538 C1539 1.385 . S
C1538 C1540 1.478 . S
C1539 H1533 0.930 . S
C1539 C1535 1.400 . S
C1539 C1538 1.385 . S
C1540 C1538 1.478 . S
C1540 C1542 1.381 . S
C1540 C1546 1.383 . S
C1541 C1537 1.495 . S
C1541 H1547 0.959 . S
C1541 H1548 0.961 . S
C1541 H1549 0.960 . S
C1542 C1540 1.381 . S
C1542 C1543 1.394 . S
C1542 H1550 0.930 . S
C1543 C1542 1.394 . S
C1543 C1544 1.383 . S
C1543 H1551 0.929 . S
C1544 C1543 1.383 . S
C1544 C1545 1.377 . S
C1545 H1529 0.930 . S
C1545 C1544 1.377 . S
C1545 C1546 1.379 . S
C1546 H1530 0.931 . S
C1546 C1540 1.383 . S
C1546 C1545 1.379 . S
H1547 C1541 0.959 . S
H1548 C1541 0.961 . S
H1549 C1541 0.960 . S
H1550 C1542 0.930 . S
H1551 C1543 0.929 . S
H1552 C1560 0.929 . S
H1553 C1562 0.930 . S
H1554 C1564 0.930 1_556 S
H1555 C1567 0.929 1_556 S
H1556 C1570 0.930 . S
H1557 C1572 0.960 . S
H1558 C1572 0.960 . S
H1559 C1572 0.960 . S
C1560 H1552 0.929 . S
C1560 C1561 1.377 . S
C1560 C1562 1.384 . S
C1561 C1560 1.377 . S
C1561 C1567 1.390 . S
C1562 H1553 0.930 . S
C1562 C1560 1.384 . S
C1562 C1563 1.372 . S
C1563 C1562 1.372 . S
C1563 C1564 1.400 . S
C1563 C1568 1.490 . S
C1564 H1554 0.930 1_554 S
C1564 C1563 1.400 . S
C1564 C1567 1.386 . S
H1565 C1581 0.930 . S
H1566 C1582 0.931 . S
C1567 H1555 0.929 1_554 S
C1567 C1561 1.390 . S
C1567 C1564 1.386 . S
C1568 C1563 1.490 . S
C1568 C1570 1.395 . S
C1568 C1571 1.403 . S
H1569 C1575 0.930 . S
C1570 H1556 0.930 . S
C1570 C1568 1.395 . S
C1570 C1573 1.403 . S
C1571 C1568 1.403 . S
C1571 C1572 1.524 1_554 S
C1571 C1575 1.400 . S
C1572 H1557 0.960 . S
C1572 H1558 0.960 . S
C1572 H1559 0.960 . S
C1572 C1571 1.524 1_556 S
C1573 C1570 1.403 . S
C1573 C1574 1.392 . S
C1573 C1577 1.495 . S
C1574 C1573 1.392 . S
C1574 C1575 1.385 . S
C1574 C1576 1.478 . S
C1575 H1569 0.930 . S
C1575 C1571 1.400 . S
C1575 C1574 1.385 . S
C1576 C1574 1.478 . S
C1576 C1578 1.381 . S
C1576 C1582 1.383 1_565 S
C1577 C1573 1.495 . S
C1577 H1583 0.959 . S
C1577 H1584 0.961 1_565 S
C1577 H1585 0.960 . S
C1578 C1576 1.381 . S
C1578 C1579 1.394 . S
C1578 H1586 0.930 . S
C1579 C1578 1.394 . S
C1579 C1580 1.383 1_565 S
C1579 H1587 0.929 . S
C1580 C1579 1.383 1_545 S
C1580 C1581 1.377 . S
C1581 H1565 0.930 . S
C1581 C1580 1.377 . S
C1581 C1582 1.379 . S
C1582 H1566 0.931 . S
C1582 C1576 1.383 1_545 S
C1582 C1581 1.379 . S
H1583 C1577 0.959 . S
H1584 C1577 0.961 1_545 S
H1585 C1577 0.960 . S
H1586 C1578 0.930 . S
H1587 C1579 0.929 . S
H1588 C1596 0.929 . S
H1589 C1598 0.930 . S
H1590 C1600 0.930 . S
H1591 C1603 0.929 . S
H1592 C1606 0.921 1_556 S
H1593 C1608 0.960 . S
H1594 C1608 0.960 . S
H1595 C1608 0.960 . S
C1596 H1588 0.929 . S
C1596 C1597 1.377 . S
C1596 C1598 1.384 . S
C1597 C1596 1.377 . S
C1597 C1603 1.390 . S
C1598 H1589 0.930 . S
C1598 C1596 1.384 . S
C1598 C1599 1.372 . S
C1599 C1598 1.372 . S
C1599 C1600 1.400 . S
C1599 C1604 1.490 . S
C1600 H1590 0.930 . S
C1600 C1599 1.400 . S
C1600 C1603 1.386 . S
H1601 C1617 0.923 1_556 S
H1602 C1618 0.931 1_556 S
C1603 H1591 0.929 . S
C1603 C1597 1.390 . S
C1603 C1600 1.386 . S
C1604 C1599 1.490 . S
C1604 C1606 1.401 . S
C1604 C1607 1.403 . S
H1605 C1611 0.930 . S
C1606 H1592 0.921 1_554 S
C1606 C1604 1.401 . S
C1606 C1609 1.414 1_554 S
C1607 C1604 1.403 . S
C1607 C1608 1.524 . S
C1607 C1611 1.400 . S
C1608 H1593 0.960 . S
C1608 H1594 0.960 . S
C1608 H1595 0.960 . S
C1608 C1607 1.524 . S
C1609 C1606 1.414 1_556 S
C1609 C1610 1.355 1_556 S
C1609 C1613 1.527 . S
C1610 C1609 1.355 1_554 S
C1610 C1611 1.385 . S
C1610 C1612 1.478 . S
C1611 H1605 0.930 . S
C1611 C1607 1.400 . S
C1611 C1610 1.385 . S
C1612 C1610 1.478 . S
C1612 C1614 1.381 . S
C1612 C1618 1.383 . S
C1613 C1609 1.527 . S
C1613 H1619 0.959 . S
C1613 H1620 0.961 . S
C1613 H1621 0.960 . S
C1614 C1612 1.381 . S
C1614 C1615 1.394 . S
C1614 H1622 0.930 . S
C1615 C1614 1.394 . S
C1615 C1616 1.383 . S
C1615 H1623 0.929 . S
C1616 C1615 1.383 . S
C1616 C1617 1.377 . S
C1617 H1601 0.923 1_554 S
C1617 C1616 1.377 . S
C1617 C1618 1.379 . S
C1618 H1602 0.931 1_554 S
C1618 C1612 1.383 . S
C1618 C1617 1.379 . S
H1619 C1613 0.959 . S
H1620 C1613 0.961 . S
H1621 C1613 0.960 . S
H1622 C1614 0.930 . S
H1623 C1615 0.929 . S
H1624 C1632 0.929 . S
H1625 C1634 0.930 . S
H1626 C1636 0.930 . S
H1627 C1639 0.929 . S
H1628 C1642 0.930 . S
H1629 C1644 0.960 . S
H1630 C1644 0.960 . S
H1631 C1644 0.960 . S
C1632 H1624 0.929 . S
C1632 C1633 1.377 . S
C1632 C1634 1.384 . S
C1633 C1632 1.377 . S
C1633 C1639 1.390 . S
C1634 H1625 0.930 . S
C1634 C1632 1.384 . S
C1634 C1635 1.372 . S
C1635 C1634 1.372 . S
C1635 C1636 1.400 . S
C1635 C1640 1.490 . S
C1636 H1626 0.930 . S
C1636 C1635 1.400 . S
C1636 C1639 1.386 . S
H1637 C1653 0.930 . S
H1638 C1654 0.931 . S
C1639 H1627 0.929 . S
C1639 C1633 1.390 . S
C1639 C1636 1.386 . S
C1640 C1635 1.490 . S
C1640 C1642 1.395 . S
C1640 C1643 1.403 . S
H1641 C1647 0.930 . S
C1642 H1628 0.930 . S
C1642 C1640 1.395 . S
C1642 C1645 1.403 . S
C1643 C1640 1.403 . S
C1643 C1644 1.524 . S
C1643 C1647 1.400 . S
C1644 H1629 0.960 . S
C1644 H1630 0.960 . S
C1644 H1631 0.960 . S
C1644 C1643 1.524 . S
C1645 C1642 1.403 . S
C1645 C1646 1.392 . S
C1645 C1649 1.495 . S
C1646 C1645 1.392 . S
C1646 C1647 1.385 . S
C1646 C1648 1.478 . S
C1647 H1641 0.930 . S
C1647 C1643 1.400 . S
C1647 C1646 1.385 . S
C1648 C1646 1.478 . S
C1648 C1650 1.381 . S
C1648 C1654 1.383 . S
C1649 C1645 1.495 . S
C1649 H1655 0.959 . S
C1649 H1656 0.961 . S
C1649 H1657 0.960 . S
C1650 C1648 1.381 . S
C1650 C1651 1.394 . S
C1650 H1658 0.930 . S
C1651 C1650 1.394 . S
C1651 C1652 1.383 . S
C1651 H1659 0.929 . S
C1652 C1651 1.383 . S
C1652 C1653 1.377 . S
C1653 H1637 0.930 . S
C1653 C1652 1.377 . S
C1653 C1654 1.379 . S
C1654 H1638 0.931 . S
C1654 C1648 1.383 . S
C1654 C1653 1.379 . S
H1655 C1649 0.959 . S
H1656 C1649 0.961 . S
H1657 C1649 0.960 . S
H1658 C1650 0.930 . S
H1659 C1651 0.929 . S
H1660 C1668 0.929 . S
H1661 C1670 0.930 . S
H1662 C1672 0.930 . S
H1663 C1675 0.929 . S
H1664 C1678 0.930 . S
H1665 C1680 0.960 . S
H1666 C1680 0.960 . S
H1667 C1680 0.960 . S
C1668 H1660 0.929 . S
C1668 C1669 1.377 . S
C1668 C1670 1.384 . S
C1669 C1668 1.377 . S
C1669 C1675 1.390 . S
C1670 H1661 0.930 . S
C1670 C1668 1.384 . S
C1670 C1671 1.372 . S
C1671 C1670 1.372 . S
C1671 C1672 1.400 . S
C1671 C1676 1.490 . S
C1672 H1662 0.930 . S
C1672 C1671 1.400 . S
C1672 C1675 1.386 . S
H1673 C1689 0.930 . S
H1674 C1690 0.931 . S
C1675 H1663 0.929 . S
C1675 C1669 1.390 . S
C1675 C1672 1.386 . S
C1676 C1671 1.490 . S
C1676 C1678 1.395 . S
C1676 C1679 1.403 . S
H1677 C1683 0.930 . S
C1678 H1664 0.930 . S
C1678 C1676 1.395 . S
C1678 C1681 1.403 . S
C1679 C1676 1.403 . S
C1679 C1680 1.524 . S
C1679 C1683 1.400 . S
C1680 H1665 0.960 . S
C1680 H1666 0.960 . S
C1680 H1667 0.960 . S
C1680 C1679 1.524 . S
C1681 C1678 1.403 . S
C1681 C1682 1.392 . S
C1681 C1685 1.495 . S
C1682 C1681 1.392 . S
C1682 C1683 1.385 . S
C1682 C1684 1.478 . S
C1683 H1677 0.930 . S
C1683 C1679 1.400 . S
C1683 C1682 1.385 . S
C1684 C1682 1.478 . S
C1684 C1686 1.381 . S
C1684 C1690 1.383 . S
C1685 C1681 1.495 . S
C1685 H1691 0.959 . S
C1685 H1692 0.961 . S
C1685 H1693 0.960 . S
C1686 C1684 1.381 . S
C1686 C1687 1.394 . S
C1686 H1694 0.930 . S
C1687 C1686 1.394 . S
C1687 C1688 1.383 . S
C1687 H1695 0.929 . S
C1688 C1687 1.383 . S
C1688 C1689 1.377 . S
C1689 H1673 0.930 . S
C1689 C1688 1.377 . S
C1689 C1690 1.379 . S
C1690 H1674 0.931 . S
C1690 C1684 1.383 . S
C1690 C1689 1.379 . S
H1691 C1685 0.959 . S
H1692 C1685 0.961 . S
H1693 C1685 0.960 . S
H1694 C1686 0.930 . S
H1695 C1687 0.929 . S
H1696 C1704 0.929 . S
H1697 C1706 0.930 . S
H1698 C1708 0.930 . S
H1699 C1711 0.929 . S
H1700 C1714 0.930 . S
H1701 C1716 0.960 . S
H1702 C1716 0.960 . S
H1703 C1716 0.960 . S
C1704 H1696 0.929 . S
C1704 C1705 1.377 . S
C1704 C1706 1.384 . S
C1705 C1704 1.377 . S
C1705 C1711 1.390 . S
C1706 H1697 0.930 . S
C1706 C1704 1.384 . S
C1706 C1707 1.372 . S
C1707 C1706 1.372 . S
C1707 C1708 1.400 . S
C1707 C1712 1.490 . S
C1708 H1698 0.930 . S
C1708 C1707 1.400 . S
C1708 C1711 1.386 . S
H1709 C1725 0.930 . S
H1710 C1726 0.931 . S
C1711 H1699 0.929 . S
C1711 C1705 1.390 . S
C1711 C1708 1.386 . S
C1712 C1707 1.490 . S
C1712 C1714 1.395 . S
C1712 C1715 1.403 . S
H1713 C1719 0.930 . S
C1714 H1700 0.930 . S
C1714 C1712 1.395 . S
C1714 C1717 1.403 . S
C1715 C1712 1.403 . S
C1715 C1716 1.524 . S
C1715 C1719 1.400 . S
C1716 H1701 0.960 . S
C1716 H1702 0.960 . S
C1716 H1703 0.960 . S
C1716 C1715 1.524 . S
C1717 C1714 1.403 . S
C1717 C1718 1.392 . S
C1717 C1721 1.495 . S
C1718 C1717 1.392 . S
C1718 C1719 1.385 . S
C1718 C1720 1.478 . S
C1719 H1713 0.930 . S
C1719 C1715 1.400 . S
C1719 C1718 1.385 . S
C1720 C1718 1.478 . S
C1720 C1722 1.381 . S
C1720 C1726 1.383 . S
C1721 C1717 1.495 . S
C1721 H1727 0.959 . S
C1721 H1728 0.961 . S
C1721 H1729 0.960 . S
C1722 C1720 1.381 . S
C1722 C1723 1.394 . S
C1722 H1730 0.930 . S
C1723 C1722 1.394 . S
C1723 C1724 1.383 . S
C1723 H1731 0.929 . S
C1724 C1723 1.383 . S
C1724 C1725 1.377 . S
C1725 H1709 0.930 . S
C1725 C1724 1.377 . S
C1725 C1726 1.379 . S
C1726 H1710 0.931 . S
C1726 C1720 1.383 . S
C1726 C1725 1.379 . S
H1727 C1721 0.959 . S
H1728 C1721 0.961 . S
H1729 C1721 0.960 . S
H1730 C1722 0.930 . S
H1731 C1723 0.929 . S
H1732 C1740 0.929 . S
H1733 C1742 0.930 . S
H1734 C1744 0.930 . S
H1735 C1747 0.929 . S
H1736 C1750 0.930 . S
H1737 C1752 0.960 . S
H1738 C1752 0.960 . S
H1739 C1752 0.960 . S
C1740 H1732 0.929 . S
C1740 C1741 1.377 . S
C1740 C1742 1.384 . S
C1741 C1740 1.377 . S
C1741 C1747 1.390 . S
C1742 H1733 0.930 . S
C1742 C1740 1.384 . S
C1742 C1743 1.372 . S
C1743 C1742 1.372 . S
C1743 C1744 1.400 . S
C1743 C1748 1.490 . S
C1744 H1734 0.930 . S
C1744 C1743 1.400 . S
C1744 C1747 1.386 . S
H1745 C1761 0.930 . S
H1746 C1762 0.931 . S
C1747 H1735 0.929 . S
C1747 C1741 1.390 . S
C1747 C1744 1.386 . S
C1748 C1743 1.490 . S
C1748 C1750 1.395 . S
C1748 C1751 1.403 . S
H1749 C1755 0.930 . S
C1750 H1736 0.930 . S
C1750 C1748 1.395 . S
C1750 C1753 1.403 . S
C1751 C1748 1.403 . S
C1751 C1752 1.524 . S
C1751 C1755 1.400 . S
C1752 H1737 0.960 . S
C1752 H1738 0.960 . S
C1752 H1739 0.960 . S
C1752 C1751 1.524 . S
C1753 C1750 1.403 . S
C1753 C1754 1.392 . S
C1753 C1757 1.495 . S
C1754 C1753 1.392 . S
C1754 C1755 1.385 . S
C1754 C1756 1.478 . S
C1755 H1749 0.930 . S
C1755 C1751 1.400 . S
C1755 C1754 1.385 . S
C1756 C1754 1.478 . S
C1756 C1758 1.381 . S
C1756 C1762 1.383 . S
C1757 C1753 1.495 . S
C1757 H1763 0.959 . S
C1757 H1764 0.961 . S
C1757 H1765 0.960 . S
C1758 C1756 1.381 . S
C1758 C1759 1.394 . S
C1758 H1766 0.930 . S
C1759 C1758 1.394 . S
C1759 C1760 1.383 . S
C1759 H1767 0.929 . S
C1760 C1759 1.383 . S
C1760 C1761 1.377 . S
C1761 H1745 0.930 . S
C1761 C1760 1.377 . S
C1761 C1762 1.379 . S
C1762 H1746 0.931 . S
C1762 C1756 1.383 . S
C1762 C1761 1.379 . S
H1763 C1757 0.959 . S
H1764 C1757 0.961 . S
H1765 C1757 0.960 . S
H1766 C1758 0.930 . S
H1767 C1759 0.929 . S
H1768 C1776 0.929 . S
H1769 C1778 0.930 . S
H1770 C1780 0.930 . S
H1771 C1783 0.929 . S
H1772 C1786 0.930 . S
H1773 C1788 0.960 . S
H1774 C1788 0.960 . S
H1775 C1788 0.960 . S
C1776 H1768 0.929 . S
C1776 C1777 1.377 . S
C1776 C1778 1.384 . S
C1777 C1776 1.377 . S
C1777 C1783 1.390 . S
C1778 H1769 0.930 . S
C1778 C1776 1.384 . S
C1778 C1779 1.372 . S
C1779 C1778 1.372 . S
C1779 C1780 1.400 . S
C1779 C1784 1.490 . S
C1780 H1770 0.930 . S
C1780 C1779 1.400 . S
C1780 C1783 1.386 . S
H1781 C1797 0.930 . S
H1782 C1798 0.931 . S
C1783 H1771 0.929 . S
C1783 C1777 1.390 . S
C1783 C1780 1.386 . S
C1784 C1779 1.490 . S
C1784 C1786 1.395 . S
C1784 C1787 1.403 . S
H1785 C1791 0.930 . S
C1786 H1772 0.930 . S
C1786 C1784 1.395 . S
C1786 C1789 1.403 . S
C1787 C1784 1.403 . S
C1787 C1788 1.524 . S
C1787 C1791 1.400 . S
C1788 H1773 0.960 . S
C1788 H1774 0.960 . S
C1788 H1775 0.960 . S
C1788 C1787 1.524 . S
C1789 C1786 1.403 . S
C1789 C1790 1.392 . S
C1789 C1793 1.495 . S
C1790 C1789 1.392 . S
C1790 C1791 1.385 . S
C1790 C1792 1.478 . S
C1791 H1785 0.930 . S
C1791 C1787 1.400 . S
C1791 C1790 1.385 . S
C1792 C1790 1.478 . S
C1792 C1794 1.381 . S
C1792 C1798 1.383 . S
C1793 C1789 1.495 . S
C1793 H1799 0.959 . S
C1793 H1800 0.961 . S
C1793 H1801 0.960 . S
C1794 C1792 1.381 . S
C1794 C1795 1.394 . S
C1794 H1802 0.930 . S
C1795 C1794 1.394 . S
C1795 C1796 1.383 . S
C1795 H1803 0.929 . S
C1796 C1795 1.383 . S
C1796 C1797 1.377 . S
C1797 H1781 0.930 . S
C1797 C1796 1.377 . S
C1797 C1798 1.379 . S
C1798 H1782 0.931 . S
C1798 C1792 1.383 . S
C1798 C1797 1.379 . S
H1799 C1793 0.959 . S
H1800 C1793 0.961 . S
H1801 C1793 0.960 . S
H1802 C1794 0.930 . S
H1803 C1795 0.929 . S
H1804 C1812 0.929 . S
H1805 C1814 0.930 . S
H1806 C1816 0.930 . S
H1807 C1819 0.929 . S
H1808 C1822 0.930 . S
H1809 C1824 0.960 . S
H1810 C1824 0.960 . S
H1811 C1824 0.960 . S
C1812 H1804 0.929 . S
C1812 C1813 1.377 . S
C1812 C1814 1.384 . S
C1813 C1812 1.377 . S
C1813 C1819 1.390 . S
C1814 H1805 0.930 . S
C1814 C1812 1.384 . S
C1814 C1815 1.372 . S
C1815 C1814 1.372 . S
C1815 C1816 1.400 . S
C1815 C1820 1.490 . S
C1816 H1806 0.930 . S
C1816 C1815 1.400 . S
C1816 C1819 1.386 . S
H1817 C1833 0.930 . S
H1818 C1834 0.931 . S
C1819 H1807 0.929 . S
C1819 C1813 1.390 . S
C1819 C1816 1.386 . S
C1820 C1815 1.490 . S
C1820 C1822 1.395 . S
C1820 C1823 1.403 . S
H1821 C1827 0.930 . S
C1822 H1808 0.930 . S
C1822 C1820 1.395 . S
C1822 C1825 1.403 . S
C1823 C1820 1.403 . S
C1823 C1824 1.524 . S
C1823 C1827 1.400 . S
C1824 H1809 0.960 . S
C1824 H1810 0.960 . S
C1824 H1811 0.960 . S
C1824 C1823 1.524 . S
C1825 C1822 1.403 . S
C1825 C1826 1.392 . S
C1825 C1829 1.495 . S
C1826 C1825 1.392 . S
C1826 C1827 1.385 . S
C1826 C1828 1.478 . S
C1827 H1821 0.930 . S
C1827 C1823 1.400 . S
C1827 C1826 1.385 . S
C1828 C1826 1.478 . S
C1828 C1830 1.381 . S
C1828 C1834 1.383 . S
C1829 C1825 1.495 . S
C1829 H1835 0.959 . S
C1829 H1836 0.961 . S
C1829 H1837 0.960 . S
C1830 C1828 1.381 . S
C1830 C1831 1.394 . S
C1830 H1838 0.930 . S
C1831 C1830 1.394 . S
C1831 C1832 1.383 . S
C1831 H1839 0.929 . S
C1832 C1831 1.383 . S
C1832 C1833 1.377 . S
C1833 H1817 0.930 . S
C1833 C1832 1.377 . S
C1833 C1834 1.379 . S
C1834 H1818 0.931 . S
C1834 C1828 1.383 . S
C1834 C1833 1.379 . S
H1835 C1829 0.959 . S
H1836 C1829 0.961 . S
H1837 C1829 0.960 . S
H1838 C1830 0.930 . S
H1839 C1831 0.929 . S
H1840 C1848 0.929 . S
H1841 C1850 0.930 . S
H1842 C1852 0.930 . S
H1843 C1855 0.929 . S
H1844 C1858 0.930 . S
H1845 C1860 0.960 . S
H1846 C1860 0.960 . S
H1847 C1860 0.960 . S
C1848 H1840 0.929 . S
C1848 C1849 1.377 . S
C1848 C1850 1.384 . S
C1849 C1848 1.377 . S
C1849 C1855 1.390 . S
C1850 H1841 0.930 . S
C1850 C1848 1.384 . S
C1850 C1851 1.372 . S
C1851 C1850 1.372 . S
C1851 C1852 1.400 . S
C1851 C1856 1.490 . S
C1852 H1842 0.930 . S
C1852 C1851 1.400 . S
C1852 C1855 1.386 . S
H1853 C1869 0.930 . S
H1854 C1870 0.931 . S
C1855 H1843 0.929 . S
C1855 C1849 1.390 . S
C1855 C1852 1.386 . S
C1856 C1851 1.490 . S
C1856 C1858 1.395 . S
C1856 C1859 1.403 . S
H1857 C1863 0.930 . S
C1858 H1844 0.930 . S
C1858 C1856 1.395 . S
C1858 C1861 1.403 . S
C1859 C1856 1.403 . S
C1859 C1860 1.524 . S
C1859 C1863 1.400 . S
C1860 H1845 0.960 . S
C1860 H1846 0.960 . S
C1860 H1847 0.960 . S
C1860 C1859 1.524 . S
C1861 C1858 1.403 . S
C1861 C1862 1.392 . S
C1861 C1865 1.495 . S
C1862 C1861 1.392 . S
C1862 C1863 1.385 . S
C1862 C1864 1.478 . S
C1863 H1857 0.930 . S
C1863 C1859 1.400 . S
C1863 C1862 1.385 . S
C1864 C1862 1.478 . S
C1864 C1866 1.381 . S
C1864 C1870 1.383 . S
C1865 C1861 1.495 . S
C1865 H1871 0.959 . S
C1865 H1872 0.961 . S
C1865 H1873 0.960 . S
C1866 C1864 1.381 . S
C1866 C1867 1.394 . S
C1866 H1874 0.930 . S
C1867 C1866 1.394 . S
C1867 C1868 1.383 . S
C1867 H1875 0.929 . S
C1868 C1867 1.383 . S
C1868 C1869 1.377 . S
C1869 H1853 0.930 . S
C1869 C1868 1.377 . S
C1869 C1870 1.379 . S
C1870 H1854 0.931 . S
C1870 C1864 1.383 . S
C1870 C1869 1.379 . S
H1871 C1865 0.959 . S
H1872 C1865 0.961 . S
H1873 C1865 0.960 . S
H1874 C1866 0.930 . S
H1875 C1867 0.929 . S
H1876 C1884 0.929 . S
H1877 C1886 0.930 . S
H1878 C1888 0.930 . S
H1879 C1891 0.929 . S
H1880 C1894 0.930 . S
H1881 C1896 0.960 . S
H1882 C1896 0.960 . S
H1883 C1896 0.960 . S
C1884 H1876 0.929 . S
C1884 C1885 1.377 . S
C1884 C1886 1.384 . S
C1885 C1884 1.377 . S
C1885 C1891 1.390 . S
C1886 H1877 0.930 . S
C1886 C1884 1.384 . S
C1886 C1887 1.372 . S
C1887 C1886 1.372 . S
C1887 C1888 1.400 . S
C1887 C1892 1.490 . S
C1888 H1878 0.930 . S
C1888 C1887 1.400 . S
C1888 C1891 1.386 . S
H1889 C1905 0.930 . S
H1890 C1906 0.931 . S
C1891 H1879 0.929 . S
C1891 C1885 1.390 . S
C1891 C1888 1.386 . S
C1892 C1887 1.490 . S
C1892 C1894 1.395 . S
C1892 C1895 1.403 . S
H1893 C1899 0.930 . S
C1894 H1880 0.930 . S
C1894 C1892 1.395 . S
C1894 C1897 1.403 . S
C1895 C1892 1.403 . S
C1895 C1896 1.524 . S
C1895 C1899 1.400 . S
C1896 H1881 0.960 . S
C1896 H1882 0.960 . S
C1896 H1883 0.960 . S
C1896 C1895 1.524 . S
C1897 C1894 1.403 . S
C1897 C1898 1.392 . S
C1897 C1901 1.495 . S
C1898 C1897 1.392 . S
C1898 C1899 1.385 . S
C1898 C1900 1.478 . S
C1899 H1893 0.930 . S
C1899 C1895 1.400 . S
C1899 C1898 1.385 . S
C1900 C1898 1.478 . S
C1900 C1902 1.381 . S
C1900 C1906 1.383 . S
C1901 C1897 1.495 . S
C1901 H1907 0.959 . S
C1901 H1908 0.961 . S
C1901 H1909 0.960 . S
C1902 C1900 1.381 . S
C1902 C1903 1.394 . S
C1902 H1910 0.930 . S
C1903 C1902 1.394 . S
C1903 C1904 1.383 . S
C1903 H1911 0.929 . S
C1904 C1903 1.383 . S
C1904 C1905 1.377 . S
C1905 H1889 0.930 . S
C1905 C1904 1.377 . S
C1905 C1906 1.379 . S
C1906 H1890 0.931 . S
C1906 C1900 1.383 . S
C1906 C1905 1.379 . S
H1907 C1901 0.959 . S
H1908 C1901 0.961 . S
H1909 C1901 0.960 . S
H1910 C1902 0.930 . S
H1911 C1903 0.929 . S
H1912 C1920 0.929 . S
H1913 C1922 0.930 . S
H1914 C1924 0.930 . S
H1915 C1927 0.929 . S
H1916 C1930 0.930 . S
H1917 C1932 0.960 . S
H1918 C1932 0.960 . S
H1919 C1932 0.960 . S
C1920 H1912 0.929 . S
C1920 C1921 1.377 . S
C1920 C1922 1.384 . S
C1921 C1920 1.377 . S
C1921 C1927 1.390 . S
C1922 H1913 0.930 . S
C1922 C1920 1.384 . S
C1922 C1923 1.372 . S
C1923 C1922 1.372 . S
C1923 C1924 1.400 . S
C1923 C1928 1.490 . S
C1924 H1914 0.930 . S
C1924 C1923 1.400 . S
C1924 C1927 1.386 . S
H1925 C1941 0.930 . S
H1926 C1942 0.931 . S
C1927 H1915 0.929 . S
C1927 C1921 1.390 . S
C1927 C1924 1.386 . S
C1928 C1923 1.490 . S
C1928 C1930 1.395 . S
C1928 C1931 1.403 . S
H1929 C1935 0.930 . S
C1930 H1916 0.930 . S
C1930 C1928 1.395 . S
C1930 C1933 1.403 . S
C1931 C1928 1.403 . S
C1931 C1932 1.524 . S
C1931 C1935 1.400 . S
C1932 H1917 0.960 . S
C1932 H1918 0.960 . S
C1932 H1919 0.960 . S
C1932 C1931 1.524 . S
C1933 C1930 1.403 . S
C1933 C1934 1.392 . S
C1933 C1937 1.495 . S
C1934 C1933 1.392 . S
C1934 C1935 1.385 . S
C1934 C1936 1.478 . S
C1935 H1929 0.930 . S
C1935 C1931 1.400 . S
C1935 C1934 1.385 . S
C1936 C1934 1.478 . S
C1936 C1938 1.381 . S
C1936 C1942 1.383 . S
C1937 C1933 1.495 . S
C1937 H1943 0.959 . S
C1937 H1944 0.961 . S
C1937 H1945 0.960 . S
C1938 C1936 1.381 . S
C1938 C1939 1.394 . S
C1938 H1946 0.930 . S
C1939 C1938 1.394 . S
C1939 C1940 1.383 . S
C1939 H1947 0.929 . S
C1940 C1939 1.383 . S
C1940 C1941 1.377 . S
C1941 H1925 0.930 . S
C1941 C1940 1.377 . S
C1941 C1942 1.379 . S
C1942 H1926 0.931 . S
C1942 C1936 1.383 . S
C1942 C1941 1.379 . S
H1943 C1937 0.959 . S
H1944 C1937 0.961 . S
H1945 C1937 0.960 . S
H1946 C1938 0.930 . S
H1947 C1939 0.929 . S
H1948 C1956 0.929 . S
H1949 C1958 0.930 . S
H1950 C1960 0.930 . S
H1951 C1963 0.929 . S
H1952 C1966 0.930 . S
H1953 C1968 0.960 . S
H1954 C1968 0.960 . S
H1955 C1968 0.960 . S
C1956 H1948 0.929 . S
C1956 C1957 1.377 . S
C1956 C1958 1.384 . S
C1957 C1956 1.377 . S
C1957 C1963 1.390 . S
C1958 H1949 0.930 . S
C1958 C1956 1.384 . S
C1958 C1959 1.372 . S
C1959 C1958 1.372 . S
C1959 C1960 1.400 . S
C1959 C1964 1.490 . S
C1960 H1950 0.930 . S
C1960 C1959 1.400 . S
C1960 C1963 1.386 . S
H1961 C1977 0.930 . S
H1962 C1978 0.931 . S
C1963 H1951 0.929 . S
C1963 C1957 1.390 . S
C1963 C1960 1.386 . S
C1964 C1959 1.490 . S
C1964 C1966 1.395 . S
C1964 C1967 1.403 . S
H1965 C1971 0.930 . S
C1966 H1952 0.930 . S
C1966 C1964 1.395 . S
C1966 C1969 1.403 . S
C1967 C1964 1.403 . S
C1967 C1968 1.524 . S
C1967 C1971 1.400 . S
C1968 H1953 0.960 . S
C1968 H1954 0.960 . S
C1968 H1955 0.960 . S
C1968 C1967 1.524 . S
C1969 C1966 1.403 . S
C1969 C1970 1.392 . S
C1969 C1973 1.495 . S
C1970 C1969 1.392 . S
C1970 C1971 1.385 . S
C1970 C1972 1.478 . S
C1971 H1965 0.930 . S
C1971 C1967 1.400 . S
C1971 C1970 1.385 . S
C1972 C1970 1.478 . S
C1972 C1974 1.381 . S
C1972 C1978 1.383 . S
C1973 C1969 1.495 . S
C1973 H1979 0.959 . S
C1973 H1980 0.961 . S
C1973 H1981 0.960 . S
C1974 C1972 1.381 . S
C1974 C1975 1.394 . S
C1974 H1982 0.930 . S
C1975 C1974 1.394 . S
C1975 C1976 1.383 . S
C1975 H1983 0.929 . S
C1976 C1975 1.383 . S
C1976 C1977 1.377 . S
C1977 H1961 0.930 . S
C1977 C1976 1.377 . S
C1977 C1978 1.379 . S
C1978 H1962 0.931 . S
C1978 C1972 1.383 . S
C1978 C1977 1.379 . S
H1979 C1973 0.959 . S
H1980 C1973 0.961 . S
H1981 C1973 0.960 . S
H1982 C1974 0.930 . S
H1983 C1975 0.929 . S
H1984 C1992 0.929 . S
H1985 C1994 0.930 . S
H1986 C1996 0.930 . S
H1987 C1999 0.929 . S
H1988 C2002 0.930 . S
H1989 C2004 0.960 . S
H1990 C2004 0.960 . S
H1991 C2004 0.960 . S
C1992 H1984 0.929 . S
C1992 C1993 1.377 . S
C1992 C1994 1.384 . S
C1993 C1992 1.377 . S
C1993 C1999 1.390 . S
C1994 H1985 0.930 . S
C1994 C1992 1.384 . S
C1994 C1995 1.372 . S
C1995 C1994 1.372 . S
C1995 C1996 1.400 . S
C1995 C2000 1.490 . S
C1996 H1986 0.930 . S
C1996 C1995 1.400 . S
C1996 C1999 1.386 . S
H1997 C2013 0.930 . S
H1998 C2014 0.931 . S
C1999 H1987 0.929 . S
C1999 C1993 1.390 . S
C1999 C1996 1.386 . S
C2000 C1995 1.490 . S
C2000 C2002 1.395 . S
C2000 C2003 1.403 . S
H2001 C2007 0.930 . S
C2002 H1988 0.930 . S
C2002 C2000 1.395 . S
C2002 C2005 1.403 . S
C2003 C2000 1.403 . S
C2003 C2004 1.524 . S
C2003 C2007 1.400 . S
C2004 H1989 0.960 . S
C2004 H1990 0.960 . S
C2004 H1991 0.960 . S
C2004 C2003 1.524 . S
C2005 C2002 1.403 . S
C2005 C2006 1.392 . S
C2005 C2009 1.495 . S
C2006 C2005 1.392 . S
C2006 C2007 1.385 . S
C2006 C2008 1.478 . S
C2007 H2001 0.930 . S
C2007 C2003 1.400 . S
C2007 C2006 1.385 . S
C2008 C2006 1.478 . S
C2008 C2010 1.381 . S
C2008 C2014 1.383 . S
C2009 C2005 1.495 . S
C2009 H2015 0.959 . S
C2009 H2016 0.961 . S
C2009 H2017 0.960 . S
C2010 C2008 1.381 . S
C2010 C2011 1.394 . S
C2010 H2018 0.930 . S
C2011 C2010 1.394 . S
C2011 C2012 1.383 . S
C2011 H2019 0.929 . S
C2012 C2011 1.383 . S
C2012 C2013 1.377 . S
C2013 H1997 0.930 . S
C2013 C2012 1.377 . S
C2013 C2014 1.379 . S
C2014 H1998 0.931 . S
C2014 C2008 1.383 . S
C2014 C2013 1.379 . S
H2015 C2009 0.959 . S
H2016 C2009 0.961 . S
H2017 C2009 0.960 . S
H2018 C2010 0.930 . S
H2019 C2011 0.929 . S
H2020 C2028 0.929 . S
H2021 C2030 0.930 . S
H2022 C2032 0.930 . S
H2023 C2035 0.929 . S
H2024 C2038 0.930 . S
H2025 C2040 0.960 . S
H2026 C2040 0.960 . S
H2027 C2040 0.960 . S
C2028 H2020 0.929 . S
C2028 C2029 1.377 . S
C2028 C2030 1.384 . S
C2029 C2028 1.377 . S
C2029 C2035 1.390 . S
C2030 H2021 0.930 . S
C2030 C2028 1.384 . S
C2030 C2031 1.372 . S
C2031 C2030 1.372 . S
C2031 C2032 1.400 . S
C2031 C2036 1.490 . S
C2032 H2022 0.930 . S
C2032 C2031 1.400 . S
C2032 C2035 1.386 . S
H2033 C2049 0.930 . S
H2034 C2050 0.931 . S
C2035 H2023 0.929 . S
C2035 C2029 1.390 . S
C2035 C2032 1.386 . S
C2036 C2031 1.490 . S
C2036 C2038 1.395 . S
C2036 C2039 1.403 . S
H2037 C2043 0.930 . S
C2038 H2024 0.930 . S
C2038 C2036 1.395 . S
C2038 C2041 1.403 . S
C2039 C2036 1.403 . S
C2039 C2040 1.524 . S
C2039 C2043 1.400 . S
C2040 H2025 0.960 . S
C2040 H2026 0.960 . S
C2040 H2027 0.960 . S
C2040 C2039 1.524 . S
C2041 C2038 1.403 . S
C2041 C2042 1.392 . S
C2041 C2045 1.495 . S
C2042 C2041 1.392 . S
C2042 C2043 1.385 . S
C2042 C2044 1.478 . S
C2043 H2037 0.930 . S
C2043 C2039 1.400 . S
C2043 C2042 1.385 . S
C2044 C2042 1.478 . S
C2044 C2046 1.381 . S
C2044 C2050 1.383 . S
C2045 C2041 1.495 . S
C2045 H2051 0.959 . S
C2045 H2052 0.961 . S
C2045 H2053 0.960 . S
C2046 C2044 1.381 . S
C2046 C2047 1.394 . S
C2046 H2054 0.930 . S
C2047 C2046 1.394 . S
C2047 C2048 1.383 . S
C2047 H2055 0.929 . S
C2048 C2047 1.383 . S
C2048 C2049 1.377 . S
C2049 H2033 0.930 . S
C2049 C2048 1.377 . S
C2049 C2050 1.379 . S
C2050 H2034 0.931 . S
C2050 C2044 1.383 . S
C2050 C2049 1.379 . S
H2051 C2045 0.959 . S
H2052 C2045 0.961 . S
H2053 C2045 0.960 . S
H2054 C2046 0.930 . S
H2055 C2047 0.929 . S
H2056 C2064 0.929 . S
H2057 C2066 0.930 . S
H2058 C2068 0.930 . S
H2059 C2071 0.929 . S
H2060 C2074 0.930 . S
H2061 C2076 0.960 . S
H2062 C2076 0.960 . S
H2063 C2076 0.960 . S
C2064 H2056 0.929 . S
C2064 C2065 1.377 . S
C2064 C2066 1.384 . S
C2065 C2064 1.377 . S
C2065 C2071 1.390 . S
C2066 H2057 0.930 . S
C2066 C2064 1.384 . S
C2066 C2067 1.372 . S
C2067 C2066 1.372 . S
C2067 C2068 1.400 . S
C2067 C2072 1.490 . S
C2068 H2058 0.930 . S
C2068 C2067 1.400 . S
C2068 C2071 1.386 . S
H2069 C2085 0.930 . S
H2070 C2086 0.931 . S
C2071 H2059 0.929 . S
C2071 C2065 1.390 . S
C2071 C2068 1.386 . S
C2072 C2067 1.490 . S
C2072 C2074 1.395 . S
C2072 C2075 1.403 . S
H2073 C2079 0.930 . S
C2074 H2060 0.930 . S
C2074 C2072 1.395 . S
C2074 C2077 1.403 . S
C2075 C2072 1.403 . S
C2075 C2076 1.524 . S
C2075 C2079 1.400 . S
C2076 H2061 0.960 . S
C2076 H2062 0.960 . S
C2076 H2063 0.960 . S
C2076 C2075 1.524 . S
C2077 C2074 1.403 . S
C2077 C2078 1.392 . S
C2077 C2081 1.495 . S
C2078 C2077 1.392 . S
C2078 C2079 1.385 . S
C2078 C2080 1.478 . S
C2079 H2073 0.930 . S
C2079 C2075 1.400 . S
C2079 C2078 1.385 . S
C2080 C2078 1.478 . S
C2080 C2082 1.381 . S
C2080 C2086 1.383 . S
C2081 C2077 1.495 . S
C2081 H2087 0.959 . S
C2081 H2088 0.961 . S
C2081 H2089 0.960 . S
C2082 C2080 1.381 . S
C2082 C2083 1.394 . S
C2082 H2090 0.930 . S
C2083 C2082 1.394 . S
C2083 C2084 1.383 . S
C2083 H2091 0.929 . S
C2084 C2083 1.383 . S
C2084 C2085 1.377 1_556 S
C2085 H2069 0.930 . S
C2085 C2084 1.377 1_554 S
C2085 C2086 1.379 1_554 S
C2086 H2070 0.931 . S
C2086 C2080 1.383 . S
C2086 C2085 1.379 1_556 S
H2087 C2081 0.959 . S
H2088 C2081 0.961 . S
H2089 C2081 0.960 . S
H2090 C2082 0.930 . S
H2091 C2083 0.929 . S
H2092 C2100 0.929 . S
H2093 C2102 0.930 . S
H2094 C2104 0.930 . S
H2095 C2107 0.929 . S
H2096 C2110 0.930 . S
H2097 C2112 0.960 . S
H2098 C2112 0.960 . S
H2099 C2112 0.960 . S
C2100 H2092 0.929 . S
C2100 C2101 1.377 . S
C2100 C2102 1.384 . S
C2101 C2100 1.377 . S
C2101 C2107 1.390 . S
C2102 H2093 0.930 . S
C2102 C2100 1.384 . S
C2102 C2103 1.372 . S
C2103 C2102 1.372 . S
C2103 C2104 1.400 . S
C2103 C2108 1.490 . S
C2104 H2094 0.930 . S
C2104 C2103 1.400 . S
C2104 C2107 1.386 . S
H2105 C2121 0.930 . S
H2106 C2122 0.931 . S
C2107 H2095 0.929 . S
C2107 C2101 1.390 . S
C2107 C2104 1.386 . S
C2108 C2103 1.490 . S
C2108 C2110 1.395 . S
C2108 C2111 1.403 . S
H2109 C2115 0.930 . S
C2110 H2096 0.930 . S
C2110 C2108 1.395 . S
C2110 C2113 1.403 . S
C2111 C2108 1.403 . S
C2111 C2112 1.524 . S
C2111 C2115 1.400 . S
C2112 H2097 0.960 . S
C2112 H2098 0.960 . S
C2112 H2099 0.960 . S
C2112 C2111 1.524 . S
C2113 C2110 1.403 . S
C2113 C2114 1.392 . S
C2113 C2117 1.495 . S
C2114 C2113 1.392 . S
C2114 C2115 1.385 . S
C2114 C2116 1.478 . S
C2115 H2109 0.930 . S
C2115 C2111 1.400 . S
C2115 C2114 1.385 . S
C2116 C2114 1.478 . S
C2116 C2118 1.381 . S
C2116 C2122 1.383 . S
C2117 C2113 1.495 . S
C2117 H2123 0.959 . S
C2117 H2124 0.961 . S
C2117 H2125 0.960 . S
C2118 C2116 1.381 . S
C2118 C2119 1.394 . S
C2118 H2126 0.930 . S
C2119 C2118 1.394 . S
C2119 C2120 1.383 . S
C2119 H2127 0.929 . S
C2120 C2119 1.383 . S
C2120 C2121 1.377 . S
C2121 H2105 0.930 . S
C2121 C2120 1.377 . S
C2121 C2122 1.379 . S
C2122 H2106 0.931 . S
C2122 C2116 1.383 . S
C2122 C2121 1.379 . S
H2123 C2117 0.959 . S
H2124 C2117 0.961 . S
H2125 C2117 0.960 . S
H2126 C2118 0.930 . S
H2127 C2119 0.929 . S
H2128 C2136 0.929 . S
H2129 C2138 0.930 . S
H2130 C2140 0.930 . S
H2131 C2143 0.929 . S
H2132 C2146 0.970 . S
H2133 C2148 0.960 . S
H2134 C2148 0.960 . S
H2135 C2148 0.960 . S
C2136 H2128 0.929 . S
C2136 C2137 1.377 . S
C2136 C2138 1.384 . S
C2137 C2136 1.377 . S
C2137 C2143 1.390 . S
C2138 H2129 0.930 . S
C2138 C2136 1.384 . S
C2138 C2139 1.372 . S
C2139 C2138 1.372 . S
C2139 C2140 1.400 . S
C2139 C2144 1.490 . S
C2140 H2130 0.930 . S
C2140 C2139 1.400 . S
C2140 C2143 1.386 . S
H2141 C2157 0.930 . S
H2142 C2158 0.931 . S
C2143 H2131 0.929 . S
C2143 C2137 1.390 . S
C2143 C2140 1.386 . S
C2144 C2139 1.490 . S
C2144 C2146 1.358 1_545 S
C2144 C2147 1.403 . S
H2145 C2151 0.930 . S
C2146 H2132 0.970 . S
C2146 C2144 1.358 1_565 S
C2146 C2149 1.403 . S
C2147 C2144 1.403 . S
C2147 C2148 1.524 . S
C2147 C2151 1.400 . S
C2148 H2133 0.960 . S
C2148 H2134 0.960 . S
C2148 H2135 0.960 . S
C2148 C2147 1.524 . S
C2149 C2146 1.403 . S
C2149 C2150 1.362 1_565 S
C2149 C2153 1.526 . S
C2150 C2149 1.362 1_545 S
C2150 C2151 1.385 . S
C2150 C2152 1.478 . S
C2151 H2145 0.930 . S
C2151 C2147 1.400 . S
C2151 C2150 1.385 . S
C2152 C2150 1.478 . S
C2152 C2154 1.381 . S
C2152 C2158 1.383 . S
C2153 C2149 1.526 . S
C2153 H2159 0.959 . S
C2153 H2160 0.961 . S
C2153 H2161 0.960 . S
C2154 C2152 1.381 . S
C2154 C2155 1.394 . S
C2154 H2162 0.930 . S
C2155 C2154 1.394 . S
C2155 C2156 1.383 . S
C2155 H2163 0.929 . S
C2156 C2155 1.383 . S
C2156 C2157 1.377 . S
C2157 H2141 0.930 . S
C2157 C2156 1.377 . S
C2157 C2158 1.379 . S
C2158 H2142 0.931 . S
C2158 C2152 1.383 . S
C2158 C2157 1.379 . S
H2159 C2153 0.959 . S
H2160 C2153 0.961 . S
H2161 C2153 0.960 . S
H2162 C2154 0.930 . S
H2163 C2155 0.929 . S
H2164 C2172 0.929 . S
H2165 C2174 0.930 . S
H2166 C2176 0.930 . S
H2167 C2179 0.929 . S
H2168 C2182 0.930 . S
H2169 C2184 0.960 . S
H2170 C2184 0.960 . S
H2171 C2184 0.960 . S
C2172 H2164 0.929 . S
C2172 C2173 1.377 . S
C2172 C2174 1.384 . S
C2173 C2172 1.377 . S
C2173 C2179 1.390 . S
C2174 H2165 0.930 . S
C2174 C2172 1.384 . S
C2174 C2175 1.372 . S
C2175 C2174 1.372 . S
C2175 C2176 1.400 . S
C2175 C2180 1.490 . S
C2176 H2166 0.930 . S
C2176 C2175 1.400 . S
C2176 C2179 1.386 . S
H2177 C2193 0.930 . S
H2178 C2194 0.931 . S
C2179 H2167 0.929 . S
C2179 C2173 1.390 . S
C2179 C2176 1.386 . S
C2180 C2175 1.490 . S
C2180 C2182 1.395 . S
C2180 C2183 1.403 . S
H2181 C2187 0.930 . S
C2182 H2168 0.930 . S
C2182 C2180 1.395 . S
C2182 C2185 1.403 . S
C2183 C2180 1.403 . S
C2183 C2184 1.524 . S
C2183 C2187 1.400 . S
C2184 H2169 0.960 . S
C2184 H2170 0.960 . S
C2184 H2171 0.960 . S
C2184 C2183 1.524 . S
C2185 C2182 1.403 . S
C2185 C2186 1.392 . S
C2185 C2189 1.495 . S
C2186 C2185 1.392 . S
C2186 C2187 1.385 . S
C2186 C2188 1.478 . S
C2187 H2181 0.930 . S
C2187 C2183 1.400 . S
C2187 C2186 1.385 . S
C2188 C2186 1.478 . S
C2188 C2190 1.381 . S
C2188 C2194 1.383 . S
C2189 C2185 1.495 . S
C2189 H2195 0.959 . S
C2189 H2196 0.961 . S
C2189 H2197 0.960 . S
C2190 C2188 1.381 . S
C2190 C2191 1.394 . S
C2190 H2198 0.930 . S
C2191 C2190 1.394 . S
C2191 C2192 1.383 . S
C2191 H2199 0.929 . S
C2192 C2191 1.383 . S
C2192 C2193 1.377 . S
C2193 H2177 0.930 . S
C2193 C2192 1.377 . S
C2193 C2194 1.379 . S
C2194 H2178 0.931 . S
C2194 C2188 1.383 . S
C2194 C2193 1.379 . S
H2195 C2189 0.959 . S
H2196 C2189 0.961 . S
H2197 C2189 0.960 . S
H2198 C2190 0.930 . S
H2199 C2191 0.929 . S
H2200 C2208 0.929 . S
H2201 C2210 0.930 . S
H2202 C2212 0.930 1_565 S
H2203 C2215 0.929 1_565 S
H2204 C2218 0.930 . S
H2205 C2220 0.960 1_565 S
H2206 C2220 0.960 . S
H2207 C2220 0.960 1_565 S
C2208 H2200 0.929 . S
C2208 C2209 1.377 . S
C2208 C2210 1.384 . S
C2209 C2208 1.377 . S
C2209 C2215 1.390 . S
C2210 H2201 0.930 . S
C2210 C2208 1.384 . S
C2210 C2211 1.372 . S
C2211 C2210 1.372 . S
C2211 C2212 1.400 . S
C2211 C2216 1.490 . S
C2212 H2202 0.930 1_545 S
C2212 C2211 1.400 . S
C2212 C2215 1.386 . S
H2213 C2229 0.930 . S
H2214 C2230 0.931 . S
C2215 H2203 0.929 1_545 S
C2215 C2209 1.390 . S
C2215 C2212 1.386 . S
C2216 C2211 1.490 . S
C2216 C2218 1.395 . S
C2216 C2219 1.403 . S
H2217 C2223 0.930 . S
C2218 H2204 0.930 . S
C2218 C2216 1.395 . S
C2218 C2221 1.403 . S
C2219 C2216 1.403 . S
C2219 C2220 1.524 . S
C2219 C2223 1.400 . S
C2220 H2205 0.960 1_545 S
C2220 H2206 0.960 . S
C2220 H2207 0.960 1_545 S
C2220 C2219 1.524 . S
C2221 C2218 1.403 . S
C2221 C2222 1.392 . S
C2221 C2225 1.495 . S
C2222 C2221 1.392 . S
C2222 C2223 1.385 . S
C2222 C2224 1.478 . S
C2223 H2217 0.930 . S
C2223 C2219 1.400 . S
C2223 C2222 1.385 . S
C2224 C2222 1.478 . S
C2224 C2226 1.381 . S
C2224 C2230 1.383 . S
C2225 C2221 1.495 . S
C2225 H2231 0.959 . S
C2225 H2232 0.961 . S
C2225 H2233 0.960 . S
C2226 C2224 1.381 . S
C2226 C2227 1.394 . S
C2226 H2234 0.930 . S
C2227 C2226 1.394 . S
C2227 C2228 1.383 . S
C2227 H2235 0.929 . S
C2228 C2227 1.383 . S
C2228 C2229 1.377 . S
C2229 H2213 0.930 . S
C2229 C2228 1.377 . S
C2229 C2230 1.379 . S
C2230 H2214 0.931 . S
C2230 C2224 1.383 . S
C2230 C2229 1.379 . S
H2231 C2225 0.959 . S
H2232 C2225 0.961 . S
H2233 C2225 0.960 . S
H2234 C2226 0.930 . S
H2235 C2227 0.929 . S
H2236 C2244 0.929 . S
H2237 C2246 0.930 . S
H2238 C2248 0.930 . S
H2239 C2251 0.929 . S
H2240 C2254 0.930 . S
H2241 C2256 0.960 . S
H2242 C2256 0.960 . S
H2243 C2256 0.960 . S
C2244 H2236 0.929 . S
C2244 C2245 1.377 . S
C2244 C2246 1.384 . S
C2245 C2244 1.377 . S
C2245 C2251 1.390 . S
C2246 H2237 0.930 . S
C2246 C2244 1.384 . S
C2246 C2247 1.372 . S
C2247 C2246 1.372 . S
C2247 C2248 1.400 . S
C2247 C2252 1.490 . S
C2248 H2238 0.930 . S
C2248 C2247 1.400 . S
C2248 C2251 1.386 . S
H2249 C2265 0.930 . S
H2250 C2266 0.931 . S
C2251 H2239 0.929 . S
C2251 C2245 1.390 . S
C2251 C2248 1.386 . S
C2252 C2247 1.490 . S
C2252 C2254 1.395 . S
C2252 C2255 1.403 . S
H2253 C2259 0.930 . S
C2254 H2240 0.930 . S
C2254 C2252 1.395 . S
C2254 C2257 1.403 . S
C2255 C2252 1.403 . S
C2255 C2256 1.524 . S
C2255 C2259 1.400 . S
C2256 H2241 0.960 . S
C2256 H2242 0.960 . S
C2256 H2243 0.960 . S
C2256 C2255 1.524 . S
C2257 C2254 1.403 . S
C2257 C2258 1.392 . S
C2257 C2261 1.495 . S
C2258 C2257 1.392 . S
C2258 C2259 1.385 . S
C2258 C2260 1.478 . S
C2259 H2253 0.930 . S
C2259 C2255 1.400 . S
C2259 C2258 1.385 . S
C2260 C2258 1.478 . S
C2260 C2262 1.381 . S
C2260 C2266 1.383 . S
C2261 C2257 1.495 . S
C2261 H2267 0.959 . S
C2261 H2268 0.961 . S
C2261 H2269 0.960 . S
C2262 C2260 1.381 . S
C2262 C2263 1.394 . S
C2262 H2270 0.930 . S
C2263 C2262 1.394 . S
C2263 C2264 1.383 . S
C2263 H2271 0.929 . S
C2264 C2263 1.383 . S
C2264 C2265 1.377 . S
C2265 H2249 0.930 . S
C2265 C2264 1.377 . S
C2265 C2266 1.379 . S
C2266 H2250 0.931 . S
C2266 C2260 1.383 . S
C2266 C2265 1.379 . S
H2267 C2261 0.959 . S
H2268 C2261 0.961 . S
H2269 C2261 0.960 . S
H2270 C2262 0.930 . S
H2271 C2263 0.929 . S
H2272 C2280 0.929 . S
H2273 C2282 0.930 . S
H2274 C2284 0.930 . S
H2275 C2287 0.929 . S
H2276 C2290 0.930 . S
H2277 C2292 0.960 . S
H2278 C2292 0.960 1_565 S
H2279 C2292 0.960 . S
C2280 H2272 0.929 . S
C2280 C2281 1.368 1_565 S
C2280 C2282 1.384 . S
C2281 C2280 1.368 1_545 S
C2281 C2287 1.417 . S
C2282 H2273 0.930 . S
C2282 C2280 1.384 . S
C2282 C2283 1.372 1_565 S
C2283 C2282 1.372 1_545 S
C2283 C2284 1.400 . S
C2283 C2288 1.490 . S
C2284 H2274 0.930 . S
C2284 C2283 1.400 . S
C2284 C2287 1.386 . S
H2285 C2301 0.930 . S
H2286 C2302 0.931 . S
C2287 H2275 0.929 . S
C2287 C2281 1.417 . S
C2287 C2284 1.386 . S
C2288 C2283 1.490 . S
C2288 C2290 1.395 . S
C2288 C2291 1.403 . S
H2289 C2295 0.930 . S
C2290 H2276 0.930 . S
C2290 C2288 1.395 . S
C2290 C2293 1.403 . S
C2291 C2288 1.403 . S
C2291 C2292 1.524 . S
C2291 C2295 1.400 . S
C2292 H2277 0.960 . S
C2292 H2278 0.960 1_545 S
C2292 H2279 0.960 . S
C2292 C2291 1.524 . S
C2293 C2290 1.403 . S
C2293 C2294 1.392 . S
C2293 C2297 1.495 . S
C2294 C2293 1.392 . S
C2294 C2295 1.385 . S
C2294 C2296 1.478 . S
C2295 H2289 0.930 . S
C2295 C2291 1.400 . S
C2295 C2294 1.385 . S
C2296 C2294 1.478 . S
C2296 C2298 1.381 . S
C2296 C2302 1.383 . S
C2297 C2293 1.495 . S
C2297 H2303 0.959 . S
C2297 H2304 0.961 . S
C2297 H2305 0.960 . S
C2298 C2296 1.381 . S
C2298 C2299 1.394 . S
C2298 H2306 0.949 . S
C2299 C2298 1.394 . S
C2299 C2300 1.383 . S
C2299 H2307 0.929 . S
C2300 C2299 1.383 . S
C2300 C2301 1.377 . S
C2301 H2285 0.930 . S
C2301 C2300 1.377 . S
C2301 C2302 1.379 . S
C2302 H2286 0.931 . S
C2302 C2296 1.383 . S
C2302 C2301 1.379 . S
H2303 C2297 0.959 . S
H2304 C2297 0.961 . S
H2305 C2297 0.960 . S
H2306 C2298 0.949 . S
H2307 C2299 0.929 . S
H2308 C2316 0.929 . S
H2309 C2318 0.930 . S
H2310 C2320 0.930 . S
H2311 C2323 0.929 . S
H2312 C2326 0.930 . S
H2313 C2328 0.960 . S
H2314 C2328 0.960 . S
H2315 C2328 0.960 . S
C2316 H2308 0.929 . S
C2316 C2317 1.377 . S
C2316 C2318 1.384 . S
C2317 C2316 1.377 . S
C2317 C2323 1.390 . S
C2318 H2309 0.930 . S
C2318 C2316 1.384 . S
C2318 C2319 1.372 . S
C2319 C2318 1.372 . S
C2319 C2320 1.400 . S
C2319 C2324 1.490 . S
C2320 H2310 0.930 . S
C2320 C2319 1.400 . S
C2320 C2323 1.386 . S
H2321 C2337 0.930 . S
H2322 C2338 0.931 . S
C2323 H2311 0.929 . S
C2323 C2317 1.390 . S
C2323 C2320 1.386 . S
C2324 C2319 1.490 . S
C2324 C2326 1.395 . S
C2324 C2327 1.403 . S
H2325 C2331 0.930 . S
C2326 H2312 0.930 . S
C2326 C2324 1.395 . S
C2326 C2329 1.403 . S
C2327 C2324 1.403 . S
C2327 C2328 1.524 . S
C2327 C2331 1.400 . S
C2328 H2313 0.960 . S
C2328 H2314 0.960 . S
C2328 H2315 0.960 . S
C2328 C2327 1.524 . S
C2329 C2326 1.403 . S
C2329 C2330 1.392 . S
C2329 C2333 1.495 . S
C2330 C2329 1.392 . S
C2330 C2331 1.385 . S
C2330 C2332 1.478 . S
C2331 H2325 0.930 . S
C2331 C2327 1.400 . S
C2331 C2330 1.385 . S
C2332 C2330 1.478 . S
C2332 C2334 1.381 . S
C2332 C2338 1.383 . S
C2333 C2329 1.495 . S
C2333 H2339 0.959 . S
C2333 H2340 0.961 . S
C2333 H2341 0.960 . S
C2334 C2332 1.381 . S
C2334 C2335 1.394 . S
C2334 H2342 0.930 . S
C2335 C2334 1.394 . S
C2335 C2336 1.383 . S
C2335 H2343 0.929 . S
C2336 C2335 1.383 . S
C2336 C2337 1.377 . S
C2337 H2321 0.930 . S
C2337 C2336 1.377 . S
C2337 C2338 1.379 . S
C2338 H2322 0.931 . S
C2338 C2332 1.383 . S
C2338 C2337 1.379 . S
H2339 C2333 0.959 . S
H2340 C2333 0.961 . S
H2341 C2333 0.960 . S
H2342 C2334 0.930 . S
H2343 C2335 0.929 . S
H2344 C2352 0.929 . S
H2345 C2354 0.930 . S
H2346 C2356 0.930 . S
H2347 C2359 0.929 . S
H2348 C2362 0.930 . S
H2349 C2364 0.960 . S
H2350 C2364 0.960 . S
H2351 C2364 0.960 1_565 S
C2352 H2344 0.929 . S
C2352 C2353 1.377 . S
C2352 C2354 1.384 . S
C2353 C2352 1.377 . S
C2353 C2359 1.390 1_545 S
C2354 H2345 0.930 . S
C2354 C2352 1.384 . S
C2354 C2355 1.372 . S
C2355 C2354 1.372 . S
C2355 C2356 1.400 1_545 S
C2355 C2360 1.490 . S
C2356 H2346 0.930 . S
C2356 C2355 1.400 1_565 S
C2356 C2359 1.386 . S
H2357 C2373 0.930 . S
H2358 C2374 0.931 . S
C2359 H2347 0.929 . S
C2359 C2353 1.390 1_565 S
C2359 C2356 1.386 . S
C2360 C2355 1.490 . S
C2360 C2362 1.395 . S
C2360 C2363 1.403 . S
H2361 C2367 0.930 . S
C2362 H2348 0.930 . S
C2362 C2360 1.395 . S
C2362 C2365 1.403 . S
C2363 C2360 1.403 . S
C2363 C2364 1.524 . S
C2363 C2367 1.400 . S
C2364 H2349 0.960 . S
C2364 H2350 0.960 . S
C2364 H2351 0.960 1_545 S
C2364 C2363 1.524 . S
C2365 C2362 1.403 . S
C2365 C2366 1.392 . S
C2365 C2369 1.495 . S
C2366 C2365 1.392 . S
C2366 C2367 1.385 . S
C2366 C2368 1.476 1_545 S
C2367 H2361 0.930 . S
C2367 C2363 1.400 . S
C2367 C2366 1.385 . S
C2368 C2366 1.476 1_565 S
C2368 C2370 1.371 1_565 S
C2368 C2374 1.394 . S
C2369 C2365 1.495 . S
C2369 H2375 0.959 . S
C2369 H2376 0.961 1_545 S
C2369 H2377 0.960 . S
C2370 C2368 1.371 1_545 S
C2370 C2371 1.394 . S
C2370 H2378 0.930 . S
C2371 C2370 1.394 . S
C2371 C2372 1.383 1_545 S
C2371 H2379 0.929 . S
C2372 C2371 1.383 1_565 S
C2372 C2373 1.377 . S
C2373 H2357 0.930 . S
C2373 C2372 1.377 . S
C2373 C2374 1.379 . S
C2374 H2358 0.931 . S
C2374 C2368 1.394 . S
C2374 C2373 1.379 . S
H2375 C2369 0.959 . S
H2376 C2369 0.961 1_565 S
H2377 C2369 0.960 . S
H2378 C2370 0.930 . S
H2379 C2371 0.929 . S
H2380 C2388 0.929 . S
H2381 C2390 0.930 . S
H2382 C2392 0.930 . S
H2383 C2395 0.929 . S
H2384 C2398 0.930 . S
H2385 C2400 0.960 . S
H2386 C2400 0.960 . S
H2387 C2400 0.960 . S
C2388 H2380 0.929 . S
C2388 C2389 1.377 . S
C2388 C2390 1.384 . S
C2389 C2388 1.377 . S
C2389 C2395 1.390 . S
C2390 H2381 0.930 . S
C2390 C2388 1.384 . S
C2390 C2391 1.372 . S
C2391 C2390 1.372 . S
C2391 C2392 1.400 . S
C2391 C2396 1.490 . S
C2392 H2382 0.930 . S
C2392 C2391 1.400 . S
C2392 C2395 1.386 . S
H2393 C2409 0.930 . S
H2394 C2410 0.931 . S
C2395 H2383 0.929 . S
C2395 C2389 1.390 . S
C2395 C2392 1.386 . S
C2396 C2391 1.490 . S
C2396 C2398 1.395 . S
C2396 C2399 1.403 . S
H2397 C2403 0.930 . S
C2398 H2384 0.930 . S
C2398 C2396 1.395 . S
C2398 C2401 1.403 . S
C2399 C2396 1.403 . S
C2399 C2400 1.524 . S
C2399 C2403 1.400 . S
C2400 H2385 0.960 . S
C2400 H2386 0.960 . S
C2400 H2387 0.960 . S
C2400 C2399 1.524 . S
C2401 C2398 1.403 . S
C2401 C2402 1.392 . S
C2401 C2405 1.495 . S
C2402 C2401 1.392 . S
C2402 C2403 1.385 . S
C2402 C2404 1.478 . S
C2403 H2397 0.930 . S
C2403 C2399 1.400 . S
C2403 C2402 1.385 . S
C2404 C2402 1.478 . S
C2404 C2406 1.381 . S
C2404 C2410 1.383 . S
C2405 C2401 1.495 . S
C2405 H2411 0.959 . S
C2405 H2412 0.961 . S
C2405 H2413 0.960 . S
C2406 C2404 1.381 . S
C2406 C2407 1.394 . S
C2406 H2414 0.930 . S
C2407 C2406 1.394 . S
C2407 C2408 1.383 . S
C2407 H2415 0.929 . S
C2408 C2407 1.383 . S
C2408 C2409 1.377 . S
C2409 H2393 0.930 . S
C2409 C2408 1.377 . S
C2409 C2410 1.379 . S
C2410 H2394 0.931 . S
C2410 C2404 1.383 . S
C2410 C2409 1.379 . S
H2411 C2405 0.959 . S
H2412 C2405 0.961 . S
H2413 C2405 0.960 . S
H2414 C2406 0.930 . S
H2415 C2407 0.929 . S
H2416 C2424 0.929 . S
H2417 C2426 0.930 . S
H2418 C2428 0.930 1_556 S
H2419 C2431 0.929 . S
H2420 C2434 0.930 . S
H2421 C2436 0.960 . S
H2422 C2436 0.960 . S
H2423 C2436 0.960 . S
C2424 H2416 0.929 . S
C2424 C2425 1.377 . S
C2424 C2426 1.384 . S
C2425 C2424 1.377 . S
C2425 C2431 1.390 . S
C2426 H2417 0.930 . S
C2426 C2424 1.384 . S
C2426 C2427 1.372 . S
C2427 C2426 1.372 . S
C2427 C2428 1.400 . S
C2427 C2432 1.490 . S
C2428 H2418 0.930 1_554 S
C2428 C2427 1.400 . S
C2428 C2431 1.386 . S
H2429 C2445 0.930 . S
H2430 C2446 0.931 . S
C2431 H2419 0.929 . S
C2431 C2425 1.390 . S
C2431 C2428 1.386 . S
C2432 C2427 1.490 . S
C2432 C2434 1.395 1_554 S
C2432 C2435 1.403 . S
H2433 C2439 0.930 . S
C2434 H2420 0.930 . S
C2434 C2432 1.395 1_556 S
C2434 C2437 1.403 . S
C2435 C2432 1.403 . S
C2435 C2436 1.524 . S
C2435 C2439 1.400 . S
C2436 H2421 0.960 . S
C2436 H2422 0.960 . S
C2436 H2423 0.960 . S
C2436 C2435 1.524 . S
C2437 C2434 1.403 . S
C2437 C2438 1.392 . S
C2437 C2441 1.495 . S
C2438 C2437 1.392 . S
C2438 C2439 1.385 1_556 S
C2438 C2440 1.478 . S
C2439 H2433 0.930 . S
C2439 C2435 1.400 . S
C2439 C2438 1.385 1_554 S
C2440 C2438 1.478 . S
C2440 C2442 1.381 . S
C2440 C2446 1.383 . S
C2441 C2437 1.495 . S
C2441 H2447 0.959 . S
C2441 H2448 0.961 . S
C2441 H2449 0.960 . S
C2442 C2440 1.381 . S
C2442 C2443 1.394 . S
C2442 H2450 0.930 1_556 S
C2443 C2442 1.394 . S
C2443 C2444 1.383 . S
C2443 H2451 0.906 1_556 S
C2444 C2443 1.383 . S
C2444 C2445 1.377 . S
C2445 H2429 0.930 . S
C2445 C2444 1.377 . S
C2445 C2446 1.379 . S
C2446 H2430 0.931 . S
C2446 C2440 1.383 . S
C2446 C2445 1.379 . S
H2447 C2441 0.959 . S
H2448 C2441 0.961 . S
H2449 C2441 0.960 . S
H2450 C2442 0.930 1_554 S
H2451 C2443 0.906 1_554 S
H2452 C2460 0.929 . S
H2453 C2462 0.930 . S
H2454 C2464 0.923 . S
H2455 C2467 0.916 1_556 S
H2456 C2470 0.930 . S
H2457 C2472 0.960 . S
H2458 C2472 0.960 . S
H2459 C2472 0.960 . S
C2460 H2452 0.929 . S
C2460 C2461 1.377 . S
C2460 C2462 1.384 . S
C2461 C2460 1.377 . S
C2461 C2467 1.390 . S
C2462 H2453 0.930 . S
C2462 C2460 1.384 . S
C2462 C2463 1.372 . S
C2463 C2462 1.372 . S
C2463 C2464 1.400 . S
C2463 C2468 1.490 . S
C2464 H2454 0.923 . S
C2464 C2463 1.400 . S
C2464 C2467 1.386 . S
H2465 C2481 0.930 1_556 S
H2466 C2482 0.931 1_556 S
C2467 H2455 0.916 1_554 S
C2467 C2461 1.390 . S
C2467 C2464 1.386 . S
C2468 C2463 1.490 . S
C2468 C2470 1.395 . S
C2468 C2471 1.403 . S
H2469 C2475 0.930 . S
C2470 H2456 0.930 . S
C2470 C2468 1.395 . S
C2470 C2473 1.403 . S
C2471 C2468 1.403 . S
C2471 C2472 1.524 . S
C2471 C2475 1.400 . S
C2472 H2457 0.960 . S
C2472 H2458 0.960 . S
C2472 H2459 0.960 . S
C2472 C2471 1.524 . S
C2473 C2470 1.403 . S
C2473 C2474 1.392 . S
C2473 C2477 1.495 . S
C2474 C2473 1.392 . S
C2474 C2475 1.385 . S
C2474 C2476 1.478 . S
C2475 H2469 0.930 . S
C2475 C2471 1.400 . S
C2475 C2474 1.385 . S
C2476 C2474 1.478 . S
C2476 C2478 1.381 . S
C2476 C2482 1.383 . S
C2477 C2473 1.495 . S
C2477 H2483 0.959 . S
C2477 H2484 0.961 . S
C2477 H2485 0.960 . S
C2478 C2476 1.381 . S
C2478 C2479 1.394 . S
C2478 H2486 0.930 . S
C2479 C2478 1.394 . S
C2479 C2480 1.383 . S
C2479 H2487 0.929 . S
C2480 C2479 1.383 . S
C2480 C2481 1.377 . S
C2481 H2465 0.930 1_554 S
C2481 C2480 1.377 . S
C2481 C2482 1.379 . S
C2482 H2466 0.931 1_554 S
C2482 C2476 1.383 . S
C2482 C2481 1.379 . S
H2483 C2477 0.959 . S
H2484 C2477 0.961 . S
H2485 C2477 0.960 . S
H2486 C2478 0.930 . S
H2487 C2479 0.929 . S
H2488 C2496 0.929 . S
H2489 C2498 0.930 . S
H2490 C2500 0.930 . S
H2491 C2503 0.929 . S
H2492 C2506 0.930 . S
H2493 C2508 0.960 . S
H2494 C2508 0.960 . S
H2495 C2508 0.960 . S
C2496 H2488 0.929 . S
C2496 C2497 1.377 . S
C2496 C2498 1.384 . S
C2497 C2496 1.377 . S
C2497 C2503 1.390 . S
C2498 H2489 0.930 . S
C2498 C2496 1.384 . S
C2498 C2499 1.372 . S
C2499 C2498 1.372 . S
C2499 C2500 1.400 . S
C2499 C2504 1.490 . S
C2500 H2490 0.930 . S
C2500 C2499 1.400 . S
C2500 C2503 1.386 . S
H2501 C2517 0.930 . S
H2502 C2518 0.931 . S
C2503 H2491 0.929 . S
C2503 C2497 1.390 . S
C2503 C2500 1.386 . S
C2504 C2499 1.490 . S
C2504 C2506 1.395 . S
C2504 C2507 1.403 . S
H2505 C2511 0.930 . S
C2506 H2492 0.930 . S
C2506 C2504 1.395 . S
C2506 C2509 1.403 . S
C2507 C2504 1.403 . S
C2507 C2508 1.524 . S
C2507 C2511 1.400 . S
C2508 H2493 0.960 . S
C2508 H2494 0.960 . S
C2508 H2495 0.960 . S
C2508 C2507 1.524 . S
C2509 C2506 1.403 . S
C2509 C2510 1.392 . S
C2509 C2513 1.495 . S
C2510 C2509 1.392 . S
C2510 C2511 1.385 . S
C2510 C2512 1.478 . S
C2511 H2505 0.930 . S
C2511 C2507 1.400 . S
C2511 C2510 1.385 . S
C2512 C2510 1.478 . S
C2512 C2514 1.381 . S
C2512 C2518 1.383 . S
C2513 C2509 1.495 . S
C2513 H2519 0.959 . S
C2513 H2520 0.961 . S
C2513 H2521 0.960 . S
C2514 C2512 1.381 . S
C2514 C2515 1.394 . S
C2514 H2522 0.930 . S
C2515 C2514 1.394 . S
C2515 C2516 1.383 . S
C2515 H2523 0.929 . S
C2516 C2515 1.383 . S
C2516 C2517 1.377 . S
C2517 H2501 0.930 . S
C2517 C2516 1.377 . S
C2517 C2518 1.379 . S
C2518 H2502 0.931 . S
C2518 C2512 1.383 . S
C2518 C2517 1.379 . S
H2519 C2513 0.959 . S
H2520 C2513 0.961 . S
H2521 C2513 0.960 . S
H2522 C2514 0.930 . S
H2523 C2515 0.929 . S
H2524 C2532 0.929 . S
H2525 C2534 0.930 . S
H2526 C2536 0.930 . S
H2527 C2539 0.929 . S
H2528 C2542 0.930 . S
H2529 C2544 0.960 . S
H2530 C2544 0.960 . S
H2531 C2544 0.960 . S
C2532 H2524 0.929 . S
C2532 C2533 1.377 . S
C2532 C2534 1.384 . S
C2533 C2532 1.377 . S
C2533 C2539 1.390 . S
C2534 H2525 0.930 . S
C2534 C2532 1.384 . S
C2534 C2535 1.372 . S
C2535 C2534 1.372 . S
C2535 C2536 1.400 . S
C2535 C2540 1.490 . S
C2536 H2526 0.930 . S
C2536 C2535 1.400 . S
C2536 C2539 1.386 . S
H2537 C2553 0.930 . S
H2538 C2554 0.931 . S
C2539 H2527 0.929 . S
C2539 C2533 1.390 . S
C2539 C2536 1.386 . S
C2540 C2535 1.490 . S
C2540 C2542 1.395 . S
C2540 C2543 1.403 . S
H2541 C2547 0.930 . S
C2542 H2528 0.930 . S
C2542 C2540 1.395 . S
C2542 C2545 1.403 . S
C2543 C2540 1.403 . S
C2543 C2544 1.524 . S
C2543 C2547 1.400 . S
C2544 H2529 0.960 . S
C2544 H2530 0.960 . S
C2544 H2531 0.960 . S
C2544 C2543 1.524 . S
C2545 C2542 1.403 . S
C2545 C2546 1.392 . S
C2545 C2549 1.495 . S
C2546 C2545 1.392 . S
C2546 C2547 1.385 . S
C2546 C2548 1.478 . S
C2547 H2541 0.930 . S
C2547 C2543 1.400 . S
C2547 C2546 1.385 . S
C2548 C2546 1.478 . S
C2548 C2550 1.381 . S
C2548 C2554 1.383 . S
C2549 C2545 1.495 . S
C2549 H2555 0.959 . S
C2549 H2556 0.961 . S
C2549 H2557 0.960 . S
C2550 C2548 1.381 . S
C2550 C2551 1.394 . S
C2550 H2558 0.930 . S
C2551 C2550 1.394 . S
C2551 C2552 1.383 . S
C2551 H2559 0.929 . S
C2552 C2551 1.383 . S
C2552 C2553 1.377 . S
C2553 H2537 0.930 . S
C2553 C2552 1.377 . S
C2553 C2554 1.379 . S
C2554 H2538 0.931 . S
C2554 C2548 1.383 . S
C2554 C2553 1.379 . S
H2555 C2549 0.959 . S
H2556 C2549 0.961 . S
H2557 C2549 0.960 . S
H2558 C2550 0.930 . S
H2559 C2551 0.929 . S
H2560 C2568 0.930 1_545 S
H2561 C2570 0.930 . S
H2562 C2572 0.930 . S
H2563 C2575 0.907 1_545 S
H2564 C2578 0.930 . S
H2565 C2580 0.960 . S
H2566 C2580 0.960 . S
H2567 C2580 0.960 . S
C2568 H2560 0.930 1_565 S
C2568 C2569 1.377 1_565 S
C2568 C2570 1.384 . S
C2569 C2568 1.377 1_545 S
C2569 C2575 1.368 1_545 S
C2570 H2561 0.930 . S
C2570 C2568 1.384 . S
C2570 C2571 1.372 . S
C2571 C2570 1.372 . S
C2571 C2572 1.400 . S
C2571 C2576 1.490 . S
C2572 H2562 0.930 . S
C2572 C2571 1.400 . S
C2572 C2575 1.433 . S
H2573 C2589 0.930 . S
H2574 C2590 0.931 . S
C2575 H2563 0.907 1_565 S
C2575 C2569 1.368 1_565 S
C2575 C2572 1.433 . S
C2576 C2571 1.490 . S
C2576 C2578 1.395 . S
C2576 C2579 1.403 . S
H2577 C2583 0.930 . S
C2578 H2564 0.930 . S
C2578 C2576 1.395 . S
C2578 C2581 1.403 . S
C2579 C2576 1.403 . S
C2579 C2580 1.524 . S
C2579 C2583 1.400 . S
C2580 H2565 0.960 . S
C2580 H2566 0.960 . S
C2580 H2567 0.960 . S
C2580 C2579 1.524 . S
C2581 C2578 1.403 . S
C2581 C2582 1.392 . S
C2581 C2585 1.495 . S
C2582 C2581 1.392 . S
C2582 C2583 1.385 . S
C2582 C2584 1.478 . S
C2583 H2577 0.930 . S
C2583 C2579 1.400 . S
C2583 C2582 1.385 . S
C2584 C2582 1.478 . S
C2584 C2586 1.381 . S
C2584 C2590 1.383 . S
C2585 C2581 1.495 . S
C2585 H2591 0.959 . S
C2585 H2592 0.961 . S
C2585 H2593 0.960 . S
C2586 C2584 1.381 . S
C2586 C2587 1.394 . S
C2586 H2594 0.930 . S
C2587 C2586 1.394 . S
C2587 C2588 1.383 . S
C2587 H2595 0.929 . S
C2588 C2587 1.383 . S
C2588 C2589 1.377 . S
C2589 H2573 0.930 . S
C2589 C2588 1.377 . S
C2589 C2590 1.379 . S
C2590 H2574 0.931 . S
C2590 C2584 1.383 . S
C2590 C2589 1.379 . S
H2591 C2585 0.959 . S
H2592 C2585 0.961 . S
H2593 C2585 0.960 . S
H2594 C2586 0.930 . S
H2595 C2587 0.929 . S
H2596 C2604 0.929 . S
H2597 C2606 0.930 . S
H2598 C2608 0.930 . S
H2599 C2611 0.929 . S
H2600 C2614 0.930 . S
H2601 C2616 0.960 . S
H2602 C2616 0.960 . S
H2603 C2616 0.960 . S
C2604 H2596 0.929 . S
C2604 C2605 1.377 . S
C2604 C2606 1.384 . S
C2605 C2604 1.377 . S
C2605 C2611 1.390 . S
C2606 H2597 0.930 . S
C2606 C2604 1.384 . S
C2606 C2607 1.372 . S
C2607 C2606 1.372 . S
C2607 C2608 1.400 . S
C2607 C2612 1.490 . S
C2608 H2598 0.930 . S
C2608 C2607 1.400 . S
C2608 C2611 1.386 . S
H2609 C2625 0.930 . S
H2610 C2626 0.931 . S
C2611 H2599 0.929 . S
C2611 C2605 1.390 . S
C2611 C2608 1.386 . S
C2612 C2607 1.490 . S
C2612 C2614 1.395 . S
C2612 C2615 1.403 . S
H2613 C2619 0.930 . S
C2614 H2600 0.930 . S
C2614 C2612 1.395 . S
C2614 C2617 1.403 . S
C2615 C2612 1.403 . S
C2615 C2616 1.524 . S
C2615 C2619 1.400 . S
C2616 H2601 0.960 . S
C2616 H2602 0.960 . S
C2616 H2603 0.960 . S
C2616 C2615 1.524 . S
C2617 C2614 1.403 . S
C2617 C2618 1.392 . S
C2617 C2621 1.495 . S
C2618 C2617 1.392 . S
C2618 C2619 1.385 . S
C2618 C2620 1.478 . S
C2619 H2613 0.930 . S
C2619 C2615 1.400 . S
C2619 C2618 1.385 . S
C2620 C2618 1.478 . S
C2620 C2622 1.381 . S
C2620 C2626 1.383 . S
C2621 C2617 1.495 . S
C2621 H2627 0.959 . S
C2621 H2628 0.961 . S
C2621 H2629 0.960 . S
C2622 C2620 1.381 . S
C2622 C2623 1.394 . S
C2622 H2630 0.930 . S
C2623 C2622 1.394 . S
C2623 C2624 1.383 . S
C2623 H2631 0.929 . S
C2624 C2623 1.383 . S
C2624 C2625 1.377 . S
C2625 H2609 0.930 . S
C2625 C2624 1.377 . S
C2625 C2626 1.379 . S
C2626 H2610 0.931 . S
C2626 C2620 1.383 . S
C2626 C2625 1.379 . S
H2627 C2621 0.959 . S
H2628 C2621 0.961 . S
H2629 C2621 0.960 . S
H2630 C2622 0.930 . S
H2631 C2623 0.929 . S
H2632 C2640 0.929 . S
H2633 C2642 0.930 . S
H2634 C2644 0.930 . S
H2635 C2647 0.929 . S
H2636 C2650 0.930 . S
H2637 C2652 0.960 . S
H2638 C2652 0.960 . S
H2639 C2652 0.960 . S
C2640 H2632 0.929 . S
C2640 C2641 1.377 . S
C2640 C2642 1.384 . S
C2641 C2640 1.377 . S
C2641 C2647 1.390 . S
C2642 H2633 0.930 . S
C2642 C2640 1.384 . S
C2642 C2643 1.372 . S
C2643 C2642 1.372 . S
C2643 C2644 1.400 . S
C2643 C2648 1.490 . S
C2644 H2634 0.930 . S
C2644 C2643 1.400 . S
C2644 C2647 1.386 . S
H2645 C2661 0.930 . S
H2646 C2662 0.931 . S
C2647 H2635 0.929 . S
C2647 C2641 1.390 . S
C2647 C2644 1.386 . S
C2648 C2643 1.490 . S
C2648 C2650 1.395 . S
C2648 C2651 1.403 . S
H2649 C2655 0.930 . S
C2650 H2636 0.930 . S
C2650 C2648 1.395 . S
C2650 C2653 1.403 . S
C2651 C2648 1.403 . S
C2651 C2652 1.524 . S
C2651 C2655 1.400 . S
C2652 H2637 0.960 . S
C2652 H2638 0.960 . S
C2652 H2639 0.960 . S
C2652 C2651 1.524 . S
C2653 C2650 1.403 . S
C2653 C2654 1.392 . S
C2653 C2657 1.495 . S
C2654 C2653 1.392 . S
C2654 C2655 1.385 . S
C2654 C2656 1.478 . S
C2655 H2649 0.930 . S
C2655 C2651 1.400 . S
C2655 C2654 1.385 . S
C2656 C2654 1.478 . S
C2656 C2658 1.381 . S
C2656 C2662 1.383 . S
C2657 C2653 1.495 . S
C2657 H2663 0.959 . S
C2657 H2664 0.961 . S
C2657 H2665 0.960 . S
C2658 C2656 1.381 . S
C2658 C2659 1.394 . S
C2658 H2666 0.930 . S
C2659 C2658 1.394 . S
C2659 C2660 1.383 . S
C2659 H2667 0.929 . S
C2660 C2659 1.383 . S
C2660 C2661 1.377 . S
C2661 H2645 0.930 . S
C2661 C2660 1.377 . S
C2661 C2662 1.379 . S
C2662 H2646 0.931 . S
C2662 C2656 1.383 . S
C2662 C2661 1.379 . S
H2663 C2657 0.959 . S
H2664 C2657 0.961 . S
H2665 C2657 0.960 . S
H2666 C2658 0.930 . S
H2667 C2659 0.929 . S
H2668 C2676 0.929 . S
H2669 C2678 0.930 . S
H2670 C2680 0.930 . S
H2671 C2683 0.929 . S
H2672 C2686 0.930 . S
H2673 C2688 0.960 . S
H2674 C2688 0.960 . S
H2675 C2688 0.960 . S
C2676 H2668 0.929 . S
C2676 C2677 1.377 . S
C2676 C2678 1.384 . S
C2677 C2676 1.377 . S
C2677 C2683 1.390 . S
C2678 H2669 0.930 . S
C2678 C2676 1.384 . S
C2678 C2679 1.372 . S
C2679 C2678 1.372 . S
C2679 C2680 1.400 . S
C2679 C2684 1.490 . S
C2680 H2670 0.930 . S
C2680 C2679 1.400 . S
C2680 C2683 1.386 . S
H2681 C2697 0.930 . S
H2682 C2698 0.931 . S
C2683 H2671 0.929 . S
C2683 C2677 1.390 . S
C2683 C2680 1.386 . S
C2684 C2679 1.490 . S
C2684 C2686 1.395 . S
C2684 C2687 1.403 . S
H2685 C2691 0.930 . S
C2686 H2672 0.930 . S
C2686 C2684 1.395 . S
C2686 C2689 1.403 . S
C2687 C2684 1.403 . S
C2687 C2688 1.524 . S
C2687 C2691 1.400 . S
C2688 H2673 0.960 . S
C2688 H2674 0.960 . S
C2688 H2675 0.960 . S
C2688 C2687 1.524 . S
C2689 C2686 1.403 . S
C2689 C2690 1.392 . S
C2689 C2693 1.495 . S
C2690 C2689 1.392 . S
C2690 C2691 1.385 . S
C2690 C2692 1.478 . S
C2691 H2685 0.930 . S
C2691 C2687 1.400 . S
C2691 C2690 1.385 . S
C2692 C2690 1.478 . S
C2692 C2694 1.381 . S
C2692 C2698 1.383 . S
C2693 C2689 1.495 . S
C2693 H2699 0.959 . S
C2693 H2700 0.961 . S
C2693 H2701 0.960 . S
C2694 C2692 1.381 . S
C2694 C2695 1.394 . S
C2694 H2702 0.930 . S
C2695 C2694 1.394 . S
C2695 C2696 1.383 . S
C2695 H2703 0.929 . S
C2696 C2695 1.383 . S
C2696 C2697 1.377 . S
C2697 H2681 0.930 . S
C2697 C2696 1.377 . S
C2697 C2698 1.379 . S
C2698 H2682 0.931 . S
C2698 C2692 1.383 . S
C2698 C2697 1.379 . S
H2699 C2693 0.959 . S
H2700 C2693 0.961 . S
H2701 C2693 0.960 . S
H2702 C2694 0.930 . S
H2703 C2695 0.929 . S
H2704 C2712 0.929 . S
H2705 C2714 0.930 . S
H2706 C2716 0.930 . S
H2707 C2719 0.929 . S
H2708 C2722 0.930 . S
H2709 C2724 0.960 . S
H2710 C2724 0.960 . S
H2711 C2724 0.960 . S
C2712 H2704 0.929 . S
C2712 C2713 1.377 . S
C2712 C2714 1.384 . S
C2713 C2712 1.377 . S
C2713 C2719 1.390 . S
C2714 H2705 0.930 . S
C2714 C2712 1.384 . S
C2714 C2715 1.372 . S
C2715 C2714 1.372 . S
C2715 C2716 1.400 . S
C2715 C2720 1.490 . S
C2716 H2706 0.930 . S
C2716 C2715 1.400 . S
C2716 C2719 1.386 . S
H2717 C2733 0.930 . S
H2718 C2734 0.931 . S
C2719 H2707 0.929 . S
C2719 C2713 1.390 . S
C2719 C2716 1.386 . S
C2720 C2715 1.490 . S
C2720 C2722 1.395 . S
C2720 C2723 1.403 . S
H2721 C2727 0.930 . S
C2722 H2708 0.930 . S
C2722 C2720 1.395 . S
C2722 C2725 1.403 . S
C2723 C2720 1.403 . S
C2723 C2724 1.524 . S
C2723 C2727 1.400 . S
C2724 H2709 0.960 . S
C2724 H2710 0.960 . S
C2724 H2711 0.960 . S
C2724 C2723 1.524 . S
C2725 C2722 1.403 . S
C2725 C2726 1.392 . S
C2725 C2729 1.495 . S
C2726 C2725 1.392 . S
C2726 C2727 1.385 . S
C2726 C2728 1.478 . S
C2727 H2721 0.930 . S
C2727 C2723 1.400 . S
C2727 C2726 1.385 . S
C2728 C2726 1.478 . S
C2728 C2730 1.381 . S
C2728 C2734 1.383 . S
C2729 C2725 1.495 . S
C2729 H2735 0.959 . S
C2729 H2736 0.961 . S
C2729 H2737 0.960 . S
C2730 C2728 1.381 . S
C2730 C2731 1.394 . S
C2730 H2738 0.930 . S
C2731 C2730 1.394 . S
C2731 C2732 1.383 . S
C2731 H2739 0.929 . S
C2732 C2731 1.383 . S
C2732 C2733 1.377 . S
C2733 H2717 0.930 . S
C2733 C2732 1.377 . S
C2733 C2734 1.379 . S
C2734 H2718 0.931 . S
C2734 C2728 1.383 . S
C2734 C2733 1.379 . S
H2735 C2729 0.959 . S
H2736 C2729 0.961 . S
H2737 C2729 0.960 . S
H2738 C2730 0.930 . S
H2739 C2731 0.929 . S
H2740 C2748 0.929 . S
H2741 C2750 0.930 . S
H2742 C2752 0.930 . S
H2743 C2755 0.929 . S
H2744 C2758 0.930 . S
H2745 C2760 0.960 . S
H2746 C2760 0.960 . S
H2747 C2760 0.960 . S
C2748 H2740 0.929 . S
C2748 C2749 1.377 . S
C2748 C2750 1.384 . S
C2749 C2748 1.377 . S
C2749 C2755 1.390 . S
C2750 H2741 0.930 . S
C2750 C2748 1.384 . S
C2750 C2751 1.372 . S
C2751 C2750 1.372 . S
C2751 C2752 1.400 . S
C2751 C2756 1.490 . S
C2752 H2742 0.930 . S
C2752 C2751 1.400 . S
C2752 C2755 1.386 . S
H2753 C2769 0.930 . S
H2754 C2770 0.931 . S
C2755 H2743 0.929 . S
C2755 C2749 1.390 . S
C2755 C2752 1.386 . S
C2756 C2751 1.490 . S
C2756 C2758 1.395 . S
C2756 C2759 1.403 . S
H2757 C2763 0.930 . S
C2758 H2744 0.930 . S
C2758 C2756 1.395 . S
C2758 C2761 1.403 . S
C2759 C2756 1.403 . S
C2759 C2760 1.524 . S
C2759 C2763 1.400 . S
C2760 H2745 0.960 . S
C2760 H2746 0.960 . S
C2760 H2747 0.960 . S
C2760 C2759 1.524 . S
C2761 C2758 1.403 . S
C2761 C2762 1.392 . S
C2761 C2765 1.495 . S
C2762 C2761 1.392 . S
C2762 C2763 1.385 . S
C2762 C2764 1.478 . S
C2763 H2757 0.930 . S
C2763 C2759 1.400 . S
C2763 C2762 1.385 . S
C2764 C2762 1.478 . S
C2764 C2766 1.381 . S
C2764 C2770 1.383 . S
C2765 C2761 1.495 . S
C2765 H2771 0.959 . S
C2765 H2772 0.961 . S
C2765 H2773 0.960 . S
C2766 C2764 1.381 . S
C2766 C2767 1.394 . S
C2766 H2774 0.930 . S
C2767 C2766 1.394 . S
C2767 C2768 1.383 . S
C2767 H2775 0.929 . S
C2768 C2767 1.383 . S
C2768 C2769 1.377 . S
C2769 H2753 0.930 . S
C2769 C2768 1.377 . S
C2769 C2770 1.379 . S
C2770 H2754 0.931 . S
C2770 C2764 1.383 . S
C2770 C2769 1.379 . S
H2771 C2765 0.959 . S
H2772 C2765 0.961 . S
H2773 C2765 0.960 . S
H2774 C2766 0.930 . S
H2775 C2767 0.929 . S
H2776 C2784 0.929 . S
H2777 C2786 0.930 . S
H2778 C2788 0.930 . S
H2779 C2791 0.929 . S
H2780 C2794 0.930 . S
H2781 C2796 0.960 . S
H2782 C2796 0.943 1_556 S
H2783 C2796 0.960 . S
C2784 H2776 0.929 . S
C2784 C2785 1.377 . S
C2784 C2786 1.384 . S
C2785 C2784 1.377 . S
C2785 C2791 1.390 . S
C2786 H2777 0.930 . S
C2786 C2784 1.384 . S
C2786 C2787 1.372 . S
C2787 C2786 1.372 . S
C2787 C2788 1.400 . S
C2787 C2792 1.490 . S
C2788 H2778 0.930 . S
C2788 C2787 1.400 . S
C2788 C2791 1.386 . S
H2789 C2805 0.930 . S
H2790 C2806 0.931 . S
C2791 H2779 0.929 . S
C2791 C2785 1.390 . S
C2791 C2788 1.386 . S
C2792 C2787 1.490 . S
C2792 C2794 1.395 . S
C2792 C2795 1.403 . S
H2793 C2799 0.927 . S
C2794 H2780 0.930 . S
C2794 C2792 1.395 . S
C2794 C2797 1.403 . S
C2795 C2792 1.403 . S
C2795 C2796 1.524 1_556 S
C2795 C2799 1.401 1_556 S
C2796 H2781 0.960 . S
C2796 H2782 0.943 1_554 S
C2796 H2783 0.960 . S
C2796 C2795 1.524 1_554 S
C2797 C2794 1.403 . S
C2797 C2798 1.392 . S
C2797 C2801 1.495 . S
C2798 C2797 1.392 . S
C2798 C2799 1.387 1_556 S
C2798 C2800 1.478 1_556 S
C2799 H2793 0.927 . S
C2799 C2795 1.401 1_554 S
C2799 C2798 1.387 1_554 S
C2800 C2798 1.478 1_554 S
C2800 C2802 1.378 1_554 S
C2800 C2806 1.383 . S
C2801 C2797 1.495 . S
C2801 H2807 0.959 . S
C2801 H2808 0.961 . S
C2801 H2809 0.960 . S
C2802 C2800 1.378 1_556 S
C2802 C2803 1.390 1_556 S
C2802 H2810 0.937 . S
C2803 C2802 1.390 1_554 S
C2803 C2804 1.383 . S
C2803 H2811 0.929 . S
C2804 C2803 1.383 . S
C2804 C2805 1.377 . S
C2805 H2789 0.930 . S
C2805 C2804 1.377 . S
C2805 C2806 1.379 . S
C2806 H2790 0.931 . S
C2806 C2800 1.383 . S
C2806 C2805 1.379 . S
H2807 C2801 0.959 . S
H2808 C2801 0.961 . S
H2809 C2801 0.960 . S
H2810 C2802 0.937 . S
H2811 C2803 0.929 . S
H2812 C2820 0.908 . S
H2813 C2822 0.930 . S
H2814 C2824 0.930 . S
H2815 C2827 0.929 . S
H2816 C2830 0.930 . S
H2817 C2832 0.960 . S
H2818 C2832 0.960 . S
H2819 C2832 0.960 . S
C2820 H2812 0.908 . S
C2820 C2821 1.346 1_655 S
C2820 C2822 1.439 . S
C2821 C2820 1.346 1_455 S
C2821 C2827 1.390 . S
C2822 H2813 0.930 . S
C2822 C2820 1.439 . S
C2822 C2823 1.372 . S
C2823 C2822 1.372 . S
C2823 C2824 1.400 . S
C2823 C2828 1.490 . S
C2824 H2814 0.930 . S
C2824 C2823 1.400 . S
C2824 C2827 1.386 1_655 S
H2825 C2841 0.930 . S
H2826 C2842 0.931 . S
C2827 H2815 0.929 . S
C2827 C2821 1.390 . S
C2827 C2824 1.386 1_455 S
C2828 C2823 1.490 . S
C2828 C2830 1.395 . S
C2828 C2831 1.403 . S
H2829 C2835 0.930 . S
C2830 H2816 0.930 . S
C2830 C2828 1.395 . S
C2830 C2833 1.403 . S
C2831 C2828 1.403 . S
C2831 C2832 1.524 . S
C2831 C2835 1.400 . S
C2832 H2817 0.960 . S
C2832 H2818 0.960 . S
C2832 H2819 0.960 . S
C2832 C2831 1.524 . S
C2833 C2830 1.403 . S
C2833 C2834 1.392 . S
C2833 C2837 1.495 . S
C2834 C2833 1.392 . S
C2834 C2835 1.385 . S
C2834 C2836 1.478 . S
C2835 H2829 0.930 . S
C2835 C2831 1.400 . S
C2835 C2834 1.385 . S
C2836 C2834 1.478 . S
C2836 C2838 1.381 . S
C2836 C2842 1.383 . S
C2837 C2833 1.495 . S
C2837 H2843 0.959 . S
C2837 H2844 0.961 . S
C2837 H2845 0.960 . S
C2838 C2836 1.381 . S
C2838 C2839 1.394 . S
C2838 H2846 0.930 . S
C2839 C2838 1.394 . S
C2839 C2840 1.383 . S
C2839 H2847 0.929 . S
C2840 C2839 1.383 . S
C2840 C2841 1.377 . S
C2841 H2825 0.930 . S
C2841 C2840 1.377 . S
C2841 C2842 1.379 . S
C2842 H2826 0.931 . S
C2842 C2836 1.383 . S
C2842 C2841 1.379 . S
H2843 C2837 0.959 . S
H2844 C2837 0.961 . S
H2845 C2837 0.960 . S
H2846 C2838 0.930 . S
H2847 C2839 0.929 . S
H2848 C2856 0.929 . S
H2849 C2858 0.930 . S
H2850 C2860 0.930 . S
H2851 C2863 0.929 . S
H2852 C2866 0.930 . S
H2853 C2868 0.960 . S
H2854 C2868 0.960 . S
H2855 C2868 0.960 . S
C2856 H2848 0.929 . S
C2856 C2857 1.377 . S
C2856 C2858 1.384 . S
C2857 C2856 1.377 . S
C2857 C2863 1.390 . S
C2858 H2849 0.930 . S
C2858 C2856 1.384 . S
C2858 C2859 1.372 . S
C2859 C2858 1.372 . S
C2859 C2860 1.400 . S
C2859 C2864 1.490 . S
C2860 H2850 0.930 . S
C2860 C2859 1.400 . S
C2860 C2863 1.386 . S
H2861 C2877 0.930 . S
H2862 C2878 0.931 . S
C2863 H2851 0.929 . S
C2863 C2857 1.390 . S
C2863 C2860 1.386 . S
C2864 C2859 1.490 . S
C2864 C2866 1.395 . S
C2864 C2867 1.403 . S
H2865 C2871 0.930 . S
C2866 H2852 0.930 . S
C2866 C2864 1.395 . S
C2866 C2869 1.403 . S
C2867 C2864 1.403 . S
C2867 C2868 1.524 . S
C2867 C2871 1.400 . S
C2868 H2853 0.960 . S
C2868 H2854 0.960 . S
C2868 H2855 0.960 . S
C2868 C2867 1.524 . S
C2869 C2866 1.403 . S
C2869 C2870 1.392 . S
C2869 C2873 1.495 . S
C2870 C2869 1.392 . S
C2870 C2871 1.385 . S
C2870 C2872 1.478 . S
C2871 H2865 0.930 . S
C2871 C2867 1.400 . S
C2871 C2870 1.385 . S
C2872 C2870 1.478 . S
C2872 C2874 1.381 . S
C2872 C2878 1.383 . S
C2873 C2869 1.495 . S
C2873 H2879 0.959 . S
C2873 H2880 0.961 . S
C2873 H2881 0.960 . S
C2874 C2872 1.381 . S
C2874 C2875 1.394 . S
C2874 H2882 0.930 . S
C2875 C2874 1.394 . S
C2875 C2876 1.383 . S
C2875 H2883 0.929 . S
C2876 C2875 1.383 . S
C2876 C2877 1.377 . S
C2877 H2861 0.930 . S
C2877 C2876 1.377 . S
C2877 C2878 1.379 . S
C2878 H2862 0.931 . S
C2878 C2872 1.383 . S
C2878 C2877 1.379 . S
H2879 C2873 0.959 . S
H2880 C2873 0.961 . S
H2881 C2873 0.960 . S
H2882 C2874 0.930 . S
H2883 C2875 0.929 . S
H2884 C2892 0.929 . S
H2885 C2894 0.930 . S
H2886 C2896 0.930 . S
H2887 C2899 0.929 . S
H2888 C2902 0.930 . S
H2889 C2904 0.960 . S
H2890 C2904 0.969 . S
H2891 C2904 0.960 1_455 S
C2892 H2884 0.929 . S
C2892 C2893 1.377 . S
C2892 C2894 1.384 . S
C2893 C2892 1.377 . S
C2893 C2899 1.390 . S
C2894 H2885 0.930 . S
C2894 C2892 1.384 . S
C2894 C2895 1.372 . S
C2895 C2894 1.372 . S
C2895 C2896 1.400 . S
C2895 C2900 1.490 1_455 S
C2896 H2886 0.930 . S
C2896 C2895 1.400 . S
C2896 C2899 1.386 . S
H2897 C2913 0.930 . S
H2898 C2914 0.931 . S
C2899 H2887 0.929 . S
C2899 C2893 1.390 . S
C2899 C2896 1.386 . S
C2900 C2895 1.490 1_655 S
C2900 C2902 1.395 . S
C2900 C2903 1.403 . S
H2901 C2907 0.930 . S
C2902 H2888 0.930 . S
C2902 C2900 1.395 . S
C2902 C2905 1.403 . S
C2903 C2900 1.403 . S
C2903 C2904 1.524 . S
C2903 C2907 1.400 . S
C2904 H2889 0.960 . S
C2904 H2890 0.969 . S
C2904 H2891 0.960 1_655 S
C2904 C2903 1.524 . S
C2905 C2902 1.403 . S
C2905 C2906 1.392 . S
C2905 C2909 1.495 . S
C2906 C2905 1.392 . S
C2906 C2907 1.385 . S
C2906 C2908 1.478 . S
C2907 H2901 0.930 . S
C2907 C2903 1.400 . S
C2907 C2906 1.385 . S
C2908 C2906 1.478 . S
C2908 C2910 1.381 . S
C2908 C2914 1.383 . S
C2909 C2905 1.495 . S
C2909 H2915 0.959 . S
C2909 H2916 0.961 . S
C2909 H2917 0.960 . S
C2910 C2908 1.381 . S
C2910 C2911 1.394 . S
C2910 H2918 0.930 . S
C2911 C2910 1.394 . S
C2911 C2912 1.383 . S
C2911 H2919 0.929 . S
C2912 C2911 1.383 . S
C2912 C2913 1.377 . S
C2913 H2897 0.930 . S
C2913 C2912 1.377 . S
C2913 C2914 1.379 . S
C2914 H2898 0.931 . S
C2914 C2908 1.383 . S
C2914 C2913 1.379 . S
H2915 C2909 0.959 . S
H2916 C2909 0.961 . S
H2917 C2909 0.960 . S
H2918 C2910 0.930 . S
H2919 C2911 0.929 . S
H2920 C2928 0.929 . S
H2921 C2930 0.930 . S
H2922 C2932 0.930 . S
H2923 C2935 0.929 . S
H2924 C2938 0.930 . S
H2925 C2940 0.960 . S
H2926 C2940 0.960 . S
H2927 C2940 0.960 . S
C2928 H2920 0.929 . S
C2928 C2929 1.377 1_455 S
C2928 C2930 1.384 . S
C2929 C2928 1.377 1_655 S
C2929 C2935 1.390 . S
C2930 H2921 0.930 . S
C2930 C2928 1.384 . S
C2930 C2931 1.372 . S
C2931 C2930 1.372 . S
C2931 C2932 1.400 1_455 S
C2931 C2936 1.490 . S
C2932 H2922 0.930 . S
C2932 C2931 1.400 1_655 S
C2932 C2935 1.386 . S
H2933 C2949 0.930 . S
H2934 C2950 0.931 . S
C2935 H2923 0.929 . S
C2935 C2929 1.390 . S
C2935 C2932 1.386 . S
C2936 C2931 1.490 . S
C2936 C2938 1.395 . S
C2936 C2939 1.400 . S
H2937 C2943 0.930 1_655 S
C2938 H2924 0.930 . S
C2938 C2936 1.395 . S
C2938 C2941 1.403 . S
C2939 C2936 1.400 . S
C2939 C2940 1.531 1_455 S
C2939 C2943 1.395 . S
C2940 H2925 0.960 . S
C2940 H2926 0.960 . S
C2940 H2927 0.960 . S
C2940 C2939 1.531 1_655 S
C2941 C2938 1.403 . S
C2941 C2942 1.392 . S
C2941 C2945 1.495 . S
C2942 C2941 1.392 . S
C2942 C2943 1.385 . S
C2942 C2944 1.478 . S
C2943 H2937 0.930 1_455 S
C2943 C2939 1.395 . S
C2943 C2942 1.385 . S
C2944 C2942 1.478 . S
C2944 C2946 1.381 . S
C2944 C2950 1.383 . S
C2945 C2941 1.495 . S
C2945 H2951 0.959 . S
C2945 H2952 0.961 . S
C2945 H2953 0.960 . S
C2946 C2944 1.381 . S
C2946 C2947 1.394 . S
C2946 H2954 0.930 . S
C2947 C2946 1.394 . S
C2947 C2948 1.383 . S
C2947 H2955 0.929 . S
C2948 C2947 1.383 . S
C2948 C2949 1.377 . S
C2949 H2933 0.930 . S
C2949 C2948 1.377 . S
C2949 C2950 1.379 . S
C2950 H2934 0.931 . S
C2950 C2944 1.383 . S
C2950 C2949 1.379 . S
H2951 C2945 0.959 . S
H2952 C2945 0.961 . S
H2953 C2945 0.960 . S
H2954 C2946 0.930 . S
H2955 C2947 0.929 . S
H2956 C2964 0.929 . S
H2957 C2966 0.930 . S
H2958 C2968 0.930 . S
H2959 C2971 0.929 . S
H2960 C2974 0.930 . S
H2961 C2976 0.960 . S
H2962 C2976 0.960 . S
H2963 C2976 0.960 . S
C2964 H2956 0.929 . S
C2964 C2965 1.377 . S
C2964 C2966 1.384 . S
C2965 C2964 1.377 . S
C2965 C2971 1.390 . S
C2966 H2957 0.930 . S
C2966 C2964 1.384 . S
C2966 C2967 1.372 . S
C2967 C2966 1.372 . S
C2967 C2968 1.400 . S
C2967 C2972 1.490 . S
C2968 H2958 0.930 . S
C2968 C2967 1.400 . S
C2968 C2971 1.386 . S
H2969 C2985 0.930 . S
H2970 C2986 0.931 . S
C2971 H2959 0.929 . S
C2971 C2965 1.390 . S
C2971 C2968 1.386 . S
C2972 C2967 1.490 . S
C2972 C2974 1.395 . S
C2972 C2975 1.403 . S
H2973 C2979 0.930 . S
C2974 H2960 0.930 . S
C2974 C2972 1.395 . S
C2974 C2977 1.403 . S
C2975 C2972 1.403 . S
C2975 C2976 1.524 . S
C2975 C2979 1.400 . S
C2976 H2961 0.960 . S
C2976 H2962 0.960 . S
C2976 H2963 0.960 . S
C2976 C2975 1.524 . S
C2977 C2974 1.403 . S
C2977 C2978 1.392 . S
C2977 C2981 1.495 . S
C2978 C2977 1.392 . S
C2978 C2979 1.385 . S
C2978 C2980 1.478 . S
C2979 H2973 0.930 . S
C2979 C2975 1.400 . S
C2979 C2978 1.385 . S
C2980 C2978 1.478 . S
C2980 C2982 1.381 . S
C2980 C2986 1.383 . S
C2981 C2977 1.495 . S
C2981 H2987 0.959 . S
C2981 H2988 0.961 . S
C2981 H2989 0.960 . S
C2982 C2980 1.381 . S
C2982 C2983 1.394 . S
C2982 H2990 0.930 . S
C2983 C2982 1.394 . S
C2983 C2984 1.383 . S
C2983 H2991 0.929 . S
C2984 C2983 1.383 . S
C2984 C2985 1.377 . S
C2985 H2969 0.930 . S
C2985 C2984 1.377 . S
C2985 C2986 1.379 . S
C2986 H2970 0.931 . S
C2986 C2980 1.383 . S
C2986 C2985 1.379 . S
H2987 C2981 0.959 . S
H2988 C2981 0.961 . S
H2989 C2981 0.960 . S
H2990 C2982 0.930 . S
H2991 C2983 0.929 . S
H2992 C3000 0.929 . S
H2993 C3002 0.930 . S
H2994 C3004 0.930 . S
H2995 C3007 0.929 . S
H2996 C3010 0.930 . S
H2997 C3012 0.960 . S
H2998 C3012 0.960 . S
H2999 C3012 0.960 . S
C3000 H2992 0.929 . S
C3000 C3001 1.377 . S
C3000 C3002 1.384 . S
C3001 C3000 1.377 . S
C3001 C3007 1.390 . S
C3002 H2993 0.930 . S
C3002 C3000 1.384 . S
C3002 C3003 1.372 . S
C3003 C3002 1.372 . S
C3003 C3004 1.400 . S
C3003 C3008 1.490 . S
C3004 H2994 0.930 . S
C3004 C3003 1.400 . S
C3004 C3007 1.386 . S
H3005 C3021 0.930 . S
H3006 C3022 0.931 . S
C3007 H2995 0.929 . S
C3007 C3001 1.390 . S
C3007 C3004 1.386 . S
C3008 C3003 1.490 . S
C3008 C3010 1.395 . S
C3008 C3011 1.403 . S
H3009 C3015 0.930 . S
C3010 H2996 0.930 . S
C3010 C3008 1.395 . S
C3010 C3013 1.403 . S
C3011 C3008 1.403 . S
C3011 C3012 1.524 . S
C3011 C3015 1.400 . S
C3012 H2997 0.960 . S
C3012 H2998 0.960 . S
C3012 H2999 0.960 . S
C3012 C3011 1.524 . S
C3013 C3010 1.403 . S
C3013 C3014 1.392 . S
C3013 C3017 1.495 . S
C3014 C3013 1.392 . S
C3014 C3015 1.385 . S
C3014 C3016 1.478 . S
C3015 H3009 0.930 . S
C3015 C3011 1.400 . S
C3015 C3014 1.385 . S
C3016 C3014 1.478 . S
C3016 C3018 1.381 . S
C3016 C3022 1.383 . S
C3017 C3013 1.495 . S
C3017 H3023 0.959 . S
C3017 H3024 0.961 . S
C3017 H3025 0.960 . S
C3018 C3016 1.381 . S
C3018 C3019 1.394 . S
C3018 H3026 0.930 . S
C3019 C3018 1.394 . S
C3019 C3020 1.383 . S
C3019 H3027 0.929 . S
C3020 C3019 1.383 . S
C3020 C3021 1.377 . S
C3021 H3005 0.930 . S
C3021 C3020 1.377 . S
C3021 C3022 1.379 . S
C3022 H3006 0.931 . S
C3022 C3016 1.383 . S
C3022 C3021 1.379 . S
H3023 C3017 0.959 . S
H3024 C3017 0.961 . S
H3025 C3017 0.960 . S
H3026 C3018 0.930 . S
H3027 C3019 0.929 . S
H3028 C3036 0.929 . S
H3029 C3038 0.930 . S
H3030 C3040 0.930 . S
H3031 C3043 0.929 . S
H3032 C3046 0.930 . S
H3033 C3048 0.960 . S
H3034 C3048 0.960 . S
H3035 C3048 0.960 . S
C3036 H3028 0.929 . S
C3036 C3037 1.377 . S
C3036 C3038 1.384 . S
C3037 C3036 1.377 . S
C3037 C3043 1.390 . S
C3038 H3029 0.930 . S
C3038 C3036 1.384 . S
C3038 C3039 1.372 . S
C3039 C3038 1.372 . S
C3039 C3040 1.400 . S
C3039 C3044 1.490 . S
C3040 H3030 0.930 . S
C3040 C3039 1.400 . S
C3040 C3043 1.386 . S
H3041 C3057 0.930 . S
H3042 C3058 0.931 . S
C3043 H3031 0.929 . S
C3043 C3037 1.390 . S
C3043 C3040 1.386 . S
C3044 C3039 1.490 . S
C3044 C3046 1.395 . S
C3044 C3047 1.403 . S
H3045 C3051 0.930 . S
C3046 H3032 0.930 . S
C3046 C3044 1.395 . S
C3046 C3049 1.403 . S
C3047 C3044 1.403 . S
C3047 C3048 1.524 . S
C3047 C3051 1.400 . S
C3048 H3033 0.960 . S
C3048 H3034 0.960 . S
C3048 H3035 0.960 . S
C3048 C3047 1.524 . S
C3049 C3046 1.403 . S
C3049 C3050 1.392 . S
C3049 C3053 1.495 . S
C3050 C3049 1.392 . S
C3050 C3051 1.385 . S
C3050 C3052 1.478 . S
C3051 H3045 0.930 . S
C3051 C3047 1.400 . S
C3051 C3050 1.385 . S
C3052 C3050 1.478 . S
C3052 C3054 1.381 . S
C3052 C3058 1.383 . S
C3053 C3049 1.495 . S
C3053 H3059 0.959 . S
C3053 H3060 0.961 . S
C3053 H3061 0.960 . S
C3054 C3052 1.381 . S
C3054 C3055 1.394 . S
C3054 H3062 0.930 . S
C3055 C3054 1.394 . S
C3055 C3056 1.383 . S
C3055 H3063 0.929 . S
C3056 C3055 1.383 . S
C3056 C3057 1.377 . S
C3057 H3041 0.930 . S
C3057 C3056 1.377 . S
C3057 C3058 1.379 . S
C3058 H3042 0.931 . S
C3058 C3052 1.383 . S
C3058 C3057 1.379 . S
H3059 C3053 0.959 . S
H3060 C3053 0.961 . S
H3061 C3053 0.960 . S
H3062 C3054 0.930 . S
H3063 C3055 0.929 . S
H3064 C3072 0.929 . S
H3065 C3074 0.930 . S
H3066 C3076 0.930 . S
H3067 C3079 0.929 . S
H3068 C3082 0.930 . S
H3069 C3084 0.960 . S
H3070 C3084 0.960 . S
H3071 C3084 0.960 . S
C3072 H3064 0.929 . S
C3072 C3073 1.377 . S
C3072 C3074 1.384 . S
C3073 C3072 1.377 . S
C3073 C3079 1.390 . S
C3074 H3065 0.930 . S
C3074 C3072 1.384 . S
C3074 C3075 1.372 . S
C3075 C3074 1.372 . S
C3075 C3076 1.400 . S
C3075 C3080 1.490 . S
C3076 H3066 0.930 . S
C3076 C3075 1.400 . S
C3076 C3079 1.386 . S
H3077 C3093 0.930 . S
H3078 C3094 0.931 . S
C3079 H3067 0.929 . S
C3079 C3073 1.390 . S
C3079 C3076 1.386 . S
C3080 C3075 1.490 . S
C3080 C3082 1.395 . S
C3080 C3083 1.403 . S
H3081 C3087 0.930 . S
C3082 H3068 0.930 . S
C3082 C3080 1.395 . S
C3082 C3085 1.403 . S
C3083 C3080 1.403 . S
C3083 C3084 1.524 . S
C3083 C3087 1.400 . S
C3084 H3069 0.960 . S
C3084 H3070 0.960 . S
C3084 H3071 0.960 . S
C3084 C3083 1.524 . S
C3085 C3082 1.403 . S
C3085 C3086 1.392 . S
C3085 C3089 1.495 . S
C3086 C3085 1.392 . S
C3086 C3087 1.385 . S
C3086 C3088 1.478 . S
C3087 H3081 0.930 . S
C3087 C3083 1.400 . S
C3087 C3086 1.385 . S
C3088 C3086 1.478 . S
C3088 C3090 1.381 . S
C3088 C3094 1.383 . S
C3089 C3085 1.495 . S
C3089 H3095 0.959 . S
C3089 H3096 0.961 . S
C3089 H3097 0.960 . S
C3090 C3088 1.381 . S
C3090 C3091 1.394 . S
C3090 H3098 0.930 . S
C3091 C3090 1.394 . S
C3091 C3092 1.383 . S
C3091 H3099 0.929 . S
C3092 C3091 1.383 . S
C3092 C3093 1.377 . S
C3093 H3077 0.930 . S
C3093 C3092 1.377 . S
C3093 C3094 1.379 . S
C3094 H3078 0.931 . S
C3094 C3088 1.383 . S
C3094 C3093 1.379 . S
H3095 C3089 0.959 . S
H3096 C3089 0.961 . S
H3097 C3089 0.960 . S
H3098 C3090 0.930 . S
H3099 C3091 0.929 . S
H3100 C3108 0.929 . S
H3101 C3110 0.930 . S
H3102 C3112 0.930 . S
H3103 C3115 0.929 . S
H3104 C3118 0.930 . S
H3105 C3120 0.960 . S
H3106 C3120 0.960 . S
H3107 C3120 0.960 . S
C3108 H3100 0.929 . S
C3108 C3109 1.377 . S
C3108 C3110 1.384 . S
C3109 C3108 1.377 . S
C3109 C3115 1.390 . S
C3110 H3101 0.930 . S
C3110 C3108 1.384 . S
C3110 C3111 1.372 . S
C3111 C3110 1.372 . S
C3111 C3112 1.400 . S
C3111 C3116 1.490 . S
C3112 H3102 0.930 . S
C3112 C3111 1.400 . S
C3112 C3115 1.386 . S
H3113 C3129 0.930 . S
H3114 C3130 0.931 . S
C3115 H3103 0.929 . S
C3115 C3109 1.390 . S
C3115 C3112 1.386 . S
C3116 C3111 1.490 . S
C3116 C3118 1.395 . S
C3116 C3119 1.403 . S
H3117 C3123 0.930 . S
C3118 H3104 0.930 . S
C3118 C3116 1.395 . S
C3118 C3121 1.403 . S
C3119 C3116 1.403 . S
C3119 C3120 1.524 . S
C3119 C3123 1.400 . S
C3120 H3105 0.960 . S
C3120 H3106 0.960 . S
C3120 H3107 0.960 . S
C3120 C3119 1.524 . S
C3121 C3118 1.403 . S
C3121 C3122 1.392 . S
C3121 C3125 1.495 . S
C3122 C3121 1.392 . S
C3122 C3123 1.385 . S
C3122 C3124 1.478 . S
C3123 H3117 0.930 . S
C3123 C3119 1.400 . S
C3123 C3122 1.385 . S
C3124 C3122 1.478 . S
C3124 C3126 1.381 . S
C3124 C3130 1.383 . S
C3125 C3121 1.495 . S
C3125 H3131 0.959 . S
C3125 H3132 0.961 . S
C3125 H3133 0.960 . S
C3126 C3124 1.381 . S
C3126 C3127 1.394 . S
C3126 H3134 0.930 . S
C3127 C3126 1.394 . S
C3127 C3128 1.383 . S
C3127 H3135 0.929 . S
C3128 C3127 1.383 . S
C3128 C3129 1.377 . S
C3129 H3113 0.930 . S
C3129 C3128 1.377 . S
C3129 C3130 1.379 . S
C3130 H3114 0.931 . S
C3130 C3124 1.383 . S
C3130 C3129 1.379 . S
H3131 C3125 0.959 . S
H3132 C3125 0.961 . S
H3133 C3125 0.960 . S
H3134 C3126 0.930 . S
H3135 C3127 0.929 . S
H3136 C3144 0.929 . S
H3137 C3146 0.930 . S
H3138 C3148 0.930 . S
H3139 C3151 0.929 . S
H3140 C3154 0.930 . S
H3141 C3156 0.960 . S
H3142 C3156 0.960 . S
H3143 C3156 0.960 . S
C3144 H3136 0.929 . S
C3144 C3145 1.377 . S
C3144 C3146 1.384 . S
C3145 C3144 1.377 . S
C3145 C3151 1.390 . S
C3146 H3137 0.930 . S
C3146 C3144 1.384 . S
C3146 C3147 1.372 . S
C3147 C3146 1.372 . S
C3147 C3148 1.400 . S
C3147 C3152 1.490 . S
C3148 H3138 0.930 . S
C3148 C3147 1.400 . S
C3148 C3151 1.386 . S
H3149 C3165 0.930 . S
H3150 C3166 0.931 . S
C3151 H3139 0.929 . S
C3151 C3145 1.390 . S
C3151 C3148 1.386 . S
C3152 C3147 1.490 . S
C3152 C3154 1.395 . S
C3152 C3155 1.403 . S
H3153 C3159 0.930 . S
C3154 H3140 0.930 . S
C3154 C3152 1.395 . S
C3154 C3157 1.403 . S
C3155 C3152 1.403 . S
C3155 C3156 1.524 . S
C3155 C3159 1.400 . S
C3156 H3141 0.960 . S
C3156 H3142 0.960 . S
C3156 H3143 0.960 . S
C3156 C3155 1.524 . S
C3157 C3154 1.403 . S
C3157 C3158 1.392 . S
C3157 C3161 1.495 . S
C3158 C3157 1.392 . S
C3158 C3159 1.385 . S
C3158 C3160 1.478 . S
C3159 H3153 0.930 . S
C3159 C3155 1.400 . S
C3159 C3158 1.385 . S
C3160 C3158 1.478 . S
C3160 C3162 1.381 . S
C3160 C3166 1.383 . S
C3161 C3157 1.495 . S
C3161 H3167 0.959 . S
C3161 H3168 0.961 . S
C3161 H3169 0.960 . S
C3162 C3160 1.381 . S
C3162 C3163 1.394 . S
C3162 H3170 0.930 . S
C3163 C3162 1.394 . S
C3163 C3164 1.383 . S
C3163 H3171 0.929 . S
C3164 C3163 1.383 . S
C3164 C3165 1.377 . S
C3165 H3149 0.930 . S
C3165 C3164 1.377 . S
C3165 C3166 1.379 . S
C3166 H3150 0.931 . S
C3166 C3160 1.383 . S
C3166 C3165 1.379 . S
H3167 C3161 0.959 . S
H3168 C3161 0.961 . S
H3169 C3161 0.960 . S
H3170 C3162 0.930 . S
H3171 C3163 0.929 . S
H3172 C3180 0.929 . S
H3173 C3182 0.930 . S
H3174 C3184 0.930 . S
H3175 C3187 0.929 . S
H3176 C3190 0.930 . S
H3177 C3192 0.960 . S
H3178 C3192 0.960 . S
H3179 C3192 0.960 . S
C3180 H3172 0.929 . S
C3180 C3181 1.377 . S
C3180 C3182 1.384 . S
C3181 C3180 1.377 . S
C3181 C3187 1.390 . S
C3182 H3173 0.930 . S
C3182 C3180 1.384 . S
C3182 C3183 1.372 . S
C3183 C3182 1.372 . S
C3183 C3184 1.400 . S
C3183 C3188 1.490 . S
C3184 H3174 0.930 . S
C3184 C3183 1.400 . S
C3184 C3187 1.386 . S
H3185 C3201 0.930 . S
H3186 C3202 0.931 . S
C3187 H3175 0.929 . S
C3187 C3181 1.390 . S
C3187 C3184 1.386 . S
C3188 C3183 1.490 . S
C3188 C3190 1.395 . S
C3188 C3191 1.403 . S
H3189 C3195 0.930 . S
C3190 H3176 0.930 . S
C3190 C3188 1.395 . S
C3190 C3193 1.403 . S
C3191 C3188 1.403 . S
C3191 C3192 1.524 . S
C3191 C3195 1.400 . S
C3192 H3177 0.960 . S
C3192 H3178 0.960 . S
C3192 H3179 0.960 . S
C3192 C3191 1.524 . S
C3193 C3190 1.403 . S
C3193 C3194 1.392 . S
C3193 C3197 1.495 . S
C3194 C3193 1.392 . S
C3194 C3195 1.385 . S
C3194 C3196 1.478 . S
C3195 H3189 0.930 . S
C3195 C3191 1.400 . S
C3195 C3194 1.385 . S
C3196 C3194 1.478 . S
C3196 C3198 1.381 . S
C3196 C3202 1.383 . S
C3197 C3193 1.495 . S
C3197 H3203 0.959 . S
C3197 H3204 0.961 . S
C3197 H3205 0.960 . S
C3198 C3196 1.381 . S
C3198 C3199 1.394 . S
C3198 H3206 0.930 . S
C3199 C3198 1.394 . S
C3199 C3200 1.383 . S
C3199 H3207 0.929 . S
C3200 C3199 1.383 . S
C3200 C3201 1.377 . S
C3201 H3185 0.930 . S
C3201 C3200 1.377 . S
C3201 C3202 1.379 . S
C3202 H3186 0.931 . S
C3202 C3196 1.383 . S
C3202 C3201 1.379 . S
H3203 C3197 0.959 . S
H3204 C3197 0.961 . S
H3205 C3197 0.960 . S
H3206 C3198 0.930 . S
H3207 C3199 0.929 . S
H3208 C3216 0.929 . S
H3209 C3218 0.930 . S
H3210 C3220 0.930 . S
H3211 C3223 0.929 . S
H3212 C3226 0.930 . S
H3213 C3228 0.960 . S
H3214 C3228 0.960 . S
H3215 C3228 0.960 . S
C3216 H3208 0.929 . S
C3216 C3217 1.377 . S
C3216 C3218 1.384 . S
C3217 C3216 1.377 . S
C3217 C3223 1.390 . S
C3218 H3209 0.930 . S
C3218 C3216 1.384 . S
C3218 C3219 1.372 . S
C3219 C3218 1.372 . S
C3219 C3220 1.400 . S
C3219 C3224 1.490 . S
C3220 H3210 0.930 . S
C3220 C3219 1.400 . S
C3220 C3223 1.386 . S
H3221 C3237 0.930 . S
H3222 C3238 0.931 . S
C3223 H3211 0.929 . S
C3223 C3217 1.390 . S
C3223 C3220 1.386 . S
C3224 C3219 1.490 . S
C3224 C3226 1.395 . S
C3224 C3227 1.403 . S
H3225 C3231 0.930 . S
C3226 H3212 0.930 . S
C3226 C3224 1.395 . S
C3226 C3229 1.403 . S
C3227 C3224 1.403 . S
C3227 C3228 1.524 . S
C3227 C3231 1.400 . S
C3228 H3213 0.960 . S
C3228 H3214 0.960 . S
C3228 H3215 0.960 . S
C3228 C3227 1.524 . S
C3229 C3226 1.403 . S
C3229 C3230 1.392 . S
C3229 C3233 1.495 . S
C3230 C3229 1.392 . S
C3230 C3231 1.385 . S
C3230 C3232 1.478 . S
C3231 H3225 0.930 . S
C3231 C3227 1.400 . S
C3231 C3230 1.385 . S
C3232 C3230 1.478 . S
C3232 C3234 1.381 . S
C3232 C3238 1.383 . S
C3233 C3229 1.495 . S
C3233 H3239 0.959 . S
C3233 H3240 0.961 . S
C3233 H3241 0.960 . S
C3234 C3232 1.381 . S
C3234 C3235 1.394 . S
C3234 H3242 0.930 . S
C3235 C3234 1.394 . S
C3235 C3236 1.383 . S
C3235 H3243 0.929 . S
C3236 C3235 1.383 . S
C3236 C3237 1.377 . S
C3237 H3221 0.930 . S
C3237 C3236 1.377 . S
C3237 C3238 1.379 . S
C3238 H3222 0.931 . S
C3238 C3232 1.383 . S
C3238 C3237 1.379 . S
H3239 C3233 0.959 . S
H3240 C3233 0.961 . S
H3241 C3233 0.960 . S
H3242 C3234 0.930 . S
H3243 C3235 0.929 . S
H3244 C3252 0.929 . S
H3245 C3254 0.930 . S
H3246 C3256 0.930 . S
H3247 C3259 0.929 . S
H3248 C3262 0.930 . S
H3249 C3264 0.960 . S
H3250 C3264 0.960 . S
H3251 C3264 0.960 . S
C3252 H3244 0.929 . S
C3252 C3253 1.377 . S
C3252 C3254 1.384 . S
C3253 C3252 1.377 . S
C3253 C3259 1.390 . S
C3254 H3245 0.930 . S
C3254 C3252 1.384 . S
C3254 C3255 1.372 . S
C3255 C3254 1.372 . S
C3255 C3256 1.400 . S
C3255 C3260 1.490 . S
C3256 H3246 0.930 . S
C3256 C3255 1.400 . S
C3256 C3259 1.386 . S
H3257 C3273 0.930 . S
H3258 C3274 0.931 . S
C3259 H3247 0.929 . S
C3259 C3253 1.390 . S
C3259 C3256 1.386 . S
C3260 C3255 1.490 . S
C3260 C3262 1.395 . S
C3260 C3263 1.403 . S
H3261 C3267 0.930 . S
C3262 H3248 0.930 . S
C3262 C3260 1.395 . S
C3262 C3265 1.403 . S
C3263 C3260 1.403 . S
C3263 C3264 1.524 . S
C3263 C3267 1.400 . S
C3264 H3249 0.960 . S
C3264 H3250 0.960 . S
C3264 H3251 0.960 . S
C3264 C3263 1.524 . S
C3265 C3262 1.403 . S
C3265 C3266 1.392 . S
C3265 C3269 1.495 . S
C3266 C3265 1.392 . S
C3266 C3267 1.385 . S
C3266 C3268 1.478 . S
C3267 H3261 0.930 . S
C3267 C3263 1.400 . S
C3267 C3266 1.385 . S
C3268 C3266 1.478 . S
C3268 C3270 1.381 . S
C3268 C3274 1.383 . S
C3269 C3265 1.495 . S
C3269 H3275 0.959 . S
C3269 H3276 0.961 . S
C3269 H3277 0.960 . S
C3270 C3268 1.381 . S
C3270 C3271 1.394 . S
C3270 H3278 0.930 . S
C3271 C3270 1.394 . S
C3271 C3272 1.383 . S
C3271 H3279 0.929 . S
C3272 C3271 1.383 . S
C3272 C3273 1.377 . S
C3273 H3257 0.930 . S
C3273 C3272 1.377 . S
C3273 C3274 1.379 . S
C3274 H3258 0.931 . S
C3274 C3268 1.383 . S
C3274 C3273 1.379 . S
H3275 C3269 0.959 . S
H3276 C3269 0.961 . S
H3277 C3269 0.960 . S
H3278 C3270 0.930 . S
H3279 C3271 0.929 . S
H3280 C3288 0.929 . S
H3281 C3290 0.930 . S
H3282 C3292 0.930 . S
H3283 C3295 0.929 . S
H3284 C3298 0.930 . S
H3285 C3300 0.960 . S
H3286 C3300 0.960 . S
H3287 C3300 0.960 . S
C3288 H3280 0.929 . S
C3288 C3289 1.377 . S
C3288 C3290 1.384 . S
C3289 C3288 1.377 . S
C3289 C3295 1.390 . S
C3290 H3281 0.930 . S
C3290 C3288 1.384 . S
C3290 C3291 1.372 . S
C3291 C3290 1.372 . S
C3291 C3292 1.400 . S
C3291 C3296 1.490 . S
C3292 H3282 0.930 . S
C3292 C3291 1.400 . S
C3292 C3295 1.386 . S
H3293 C3309 0.930 . S
H3294 C3310 0.931 . S
C3295 H3283 0.929 . S
C3295 C3289 1.390 . S
C3295 C3292 1.386 . S
C3296 C3291 1.490 . S
C3296 C3298 1.395 . S
C3296 C3299 1.403 . S
H3297 C3303 0.930 . S
C3298 H3284 0.930 . S
C3298 C3296 1.395 . S
C3298 C3301 1.403 . S
C3299 C3296 1.403 . S
C3299 C3300 1.524 . S
C3299 C3303 1.400 . S
C3300 H3285 0.960 . S
C3300 H3286 0.960 . S
C3300 H3287 0.960 . S
C3300 C3299 1.524 . S
C3301 C3298 1.403 . S
C3301 C3302 1.392 . S
C3301 C3305 1.495 . S
C3302 C3301 1.392 . S
C3302 C3303 1.385 . S
C3302 C3304 1.478 . S
C3303 H3297 0.930 . S
C3303 C3299 1.400 . S
C3303 C3302 1.385 . S
C3304 C3302 1.478 . S
C3304 C3306 1.381 . S
C3304 C3310 1.383 . S
C3305 C3301 1.495 . S
C3305 H3311 0.959 . S
C3305 H3312 0.961 . S
C3305 H3313 0.960 . S
C3306 C3304 1.381 . S
C3306 C3307 1.394 . S
C3306 H3314 0.930 . S
C3307 C3306 1.394 . S
C3307 C3308 1.383 . S
C3307 H3315 0.929 . S
C3308 C3307 1.383 . S
C3308 C3309 1.377 . S
C3309 H3293 0.930 . S
C3309 C3308 1.377 . S
C3309 C3310 1.379 . S
C3310 H3294 0.931 . S
C3310 C3304 1.383 . S
C3310 C3309 1.379 . S
H3311 C3305 0.959 . S
H3312 C3305 0.961 . S
H3313 C3305 0.960 . S
H3314 C3306 0.930 . S
H3315 C3307 0.929 . S
H3316 C3324 0.929 . S
H3317 C3326 0.930 . S
H3318 C3328 0.930 . S
H3319 C3331 0.929 . S
H3320 C3334 0.930 . S
H3321 C3336 0.960 . S
H3322 C3336 0.960 . S
H3323 C3336 0.960 . S
C3324 H3316 0.929 . S
C3324 C3325 1.377 . S
C3324 C3326 1.384 . S
C3325 C3324 1.377 . S
C3325 C3331 1.390 . S
C3326 H3317 0.930 . S
C3326 C3324 1.384 . S
C3326 C3327 1.372 . S
C3327 C3326 1.372 . S
C3327 C3328 1.400 . S
C3327 C3332 1.490 . S
C3328 H3318 0.930 . S
C3328 C3327 1.400 . S
C3328 C3331 1.386 . S
H3329 C3345 0.930 . S
H3330 C3346 0.931 . S
C3331 H3319 0.929 . S
C3331 C3325 1.390 . S
C3331 C3328 1.386 . S
C3332 C3327 1.490 . S
C3332 C3334 1.395 . S
C3332 C3335 1.403 . S
H3333 C3339 0.930 . S
C3334 H3320 0.930 . S
C3334 C3332 1.395 . S
C3334 C3337 1.403 . S
C3335 C3332 1.403 . S
C3335 C3336 1.524 . S
C3335 C3339 1.400 . S
C3336 H3321 0.960 . S
C3336 H3322 0.960 . S
C3336 H3323 0.960 . S
C3336 C3335 1.524 . S
C3337 C3334 1.403 . S
C3337 C3338 1.392 . S
C3337 C3341 1.495 . S
C3338 C3337 1.392 . S
C3338 C3339 1.385 . S
C3338 C3340 1.478 . S
C3339 H3333 0.930 . S
C3339 C3335 1.400 . S
C3339 C3338 1.385 . S
C3340 C3338 1.478 . S
C3340 C3342 1.381 . S
C3340 C3346 1.383 . S
C3341 C3337 1.495 . S
C3341 H3347 0.959 . S
C3341 H3348 0.961 . S
C3341 H3349 0.960 . S
C3342 C3340 1.381 . S
C3342 C3343 1.394 . S
C3342 H3350 0.930 . S
C3343 C3342 1.394 . S
C3343 C3344 1.383 . S
C3343 H3351 0.929 . S
C3344 C3343 1.383 . S
C3344 C3345 1.377 . S
C3345 H3329 0.930 . S
C3345 C3344 1.377 . S
C3345 C3346 1.379 . S
C3346 H3330 0.931 . S
C3346 C3340 1.383 . S
C3346 C3345 1.379 . S
H3347 C3341 0.959 . S
H3348 C3341 0.961 . S
H3349 C3341 0.960 . S
H3350 C3342 0.930 . S
H3351 C3343 0.929 . S
H3352 C3360 0.929 . S
H3353 C3362 0.930 . S
H3354 C3364 0.930 . S
H3355 C3367 0.929 . S
H3356 C3370 0.930 . S
H3357 C3372 0.960 . S
H3358 C3372 0.960 . S
H3359 C3372 0.960 . S
C3360 H3352 0.929 . S
C3360 C3361 1.377 . S
C3360 C3362 1.384 . S
C3361 C3360 1.377 . S
C3361 C3367 1.390 . S
C3362 H3353 0.930 . S
C3362 C3360 1.384 . S
C3362 C3363 1.372 . S
C3363 C3362 1.372 . S
C3363 C3364 1.400 . S
C3363 C3368 1.490 . S
C3364 H3354 0.930 . S
C3364 C3363 1.400 . S
C3364 C3367 1.386 . S
H3365 C3381 0.930 . S
H3366 C3382 0.931 . S
C3367 H3355 0.929 . S
C3367 C3361 1.390 . S
C3367 C3364 1.386 . S
C3368 C3363 1.490 . S
C3368 C3370 1.395 . S
C3368 C3371 1.403 . S
H3369 C3375 0.930 . S
C3370 H3356 0.930 . S
C3370 C3368 1.395 . S
C3370 C3373 1.403 . S
C3371 C3368 1.403 . S
C3371 C3372 1.524 . S
C3371 C3375 1.400 . S
C3372 H3357 0.960 . S
C3372 H3358 0.960 . S
C3372 H3359 0.960 . S
C3372 C3371 1.524 . S
C3373 C3370 1.403 . S
C3373 C3374 1.392 . S
C3373 C3377 1.495 . S
C3374 C3373 1.392 . S
C3374 C3375 1.385 . S
C3374 C3376 1.478 . S
C3375 H3369 0.930 . S
C3375 C3371 1.400 . S
C3375 C3374 1.385 . S
C3376 C3374 1.478 . S
C3376 C3378 1.381 . S
C3376 C3382 1.383 . S
C3377 C3373 1.495 . S
C3377 H3383 0.959 . S
C3377 H3384 0.961 . S
C3377 H3385 0.960 . S
C3378 C3376 1.381 . S
C3378 C3379 1.394 . S
C3378 H3386 0.930 . S
C3379 C3378 1.394 . S
C3379 C3380 1.383 . S
C3379 H3387 0.929 . S
C3380 C3379 1.383 . S
C3380 C3381 1.377 . S
C3381 H3365 0.930 . S
C3381 C3380 1.377 . S
C3381 C3382 1.379 . S
C3382 H3366 0.931 . S
C3382 C3376 1.383 . S
C3382 C3381 1.379 . S
H3383 C3377 0.959 . S
H3384 C3377 0.961 . S
H3385 C3377 0.960 . S
H3386 C3378 0.930 . S
H3387 C3379 0.929 . S
H3388 C3396 0.929 1_556 S
H3389 C3398 0.930 1_556 S
H3390 C3400 0.930 . S
H3391 C3403 0.929 . S
H3392 C3406 0.930 . S
H3393 C3408 0.960 . S
H3394 C3408 0.960 . S
H3395 C3408 0.960 . S
C3396 H3388 0.929 1_554 S
C3396 C3397 1.377 . S
C3396 C3398 1.384 . S
C3397 C3396 1.377 . S
C3397 C3403 1.390 . S
C3398 H3389 0.930 1_554 S
C3398 C3396 1.384 . S
C3398 C3399 1.372 . S
C3399 C3398 1.372 . S
C3399 C3400 1.400 . S
C3399 C3404 1.490 . S
C3400 H3390 0.930 . S
C3400 C3399 1.400 . S
C3400 C3403 1.386 . S
H3401 C3417 0.930 . S
H3402 C3418 0.931 . S
C3403 H3391 0.929 . S
C3403 C3397 1.390 . S
C3403 C3400 1.386 . S
C3404 C3399 1.490 . S
C3404 C3406 1.395 1_554 S
C3404 C3407 1.403 . S
H3405 C3411 0.930 . S
C3406 H3392 0.930 . S
C3406 C3404 1.395 1_556 S
C3406 C3409 1.403 . S
C3407 C3404 1.403 . S
C3407 C3408 1.524 . S
C3407 C3411 1.400 . S
C3408 H3393 0.960 . S
C3408 H3394 0.960 . S
C3408 H3395 0.960 . S
C3408 C3407 1.524 . S
C3409 C3406 1.403 . S
C3409 C3410 1.392 1_556 S
C3409 C3413 1.495 . S
C3410 C3409 1.392 1_554 S
C3410 C3411 1.385 . S
C3410 C3412 1.478 . S
C3411 H3405 0.930 . S
C3411 C3407 1.400 . S
C3411 C3410 1.385 . S
C3412 C3410 1.478 . S
C3412 C3414 1.381 . S
C3412 C3418 1.383 1_565 S
C3413 C3409 1.495 . S
C3413 H3419 0.959 . S
C3413 H3420 0.961 . S
C3413 H3421 0.960 . S
C3414 C3412 1.381 . S
C3414 C3415 1.394 . S
C3414 H3422 0.930 . S
C3415 C3414 1.394 . S
C3415 C3416 1.383 1_565 S
C3415 H3423 0.929 . S
C3416 C3415 1.383 1_545 S
C3416 C3417 1.377 . S
C3417 H3401 0.930 . S
C3417 C3416 1.377 . S
C3417 C3418 1.379 . S
C3418 H3402 0.931 . S
C3418 C3412 1.383 1_545 S
C3418 C3417 1.379 . S
H3419 C3413 0.959 . S
H3420 C3413 0.961 . S
H3421 C3413 0.960 . S
H3422 C3414 0.930 . S
H3423 C3415 0.929 . S
H3424 C3432 0.929 . S
H3425 C3434 0.930 . S
H3426 C3436 0.930 . S
H3427 C3439 0.929 . S
H3428 C3442 0.930 . S
H3429 C3444 0.960 . S
H3430 C3444 0.960 . S
H3431 C3444 0.960 . S
C3432 H3424 0.929 . S
C3432 C3433 1.377 . S
C3432 C3434 1.384 . S
C3433 C3432 1.377 . S
C3433 C3439 1.390 . S
C3434 H3425 0.930 . S
C3434 C3432 1.384 . S
C3434 C3435 1.372 . S
C3435 C3434 1.372 . S
C3435 C3436 1.400 . S
C3435 C3440 1.490 . S
C3436 H3426 0.930 . S
C3436 C3435 1.400 . S
C3436 C3439 1.386 . S
H3437 C3453 0.930 . S
H3438 C3454 0.931 . S
C3439 H3427 0.929 . S
C3439 C3433 1.390 . S
C3439 C3436 1.386 . S
C3440 C3435 1.490 . S
C3440 C3442 1.395 . S
C3440 C3443 1.403 . S
H3441 C3447 0.930 . S
C3442 H3428 0.930 . S
C3442 C3440 1.395 . S
C3442 C3445 1.403 . S
C3443 C3440 1.403 . S
C3443 C3444 1.524 . S
C3443 C3447 1.400 . S
C3444 H3429 0.960 . S
C3444 H3430 0.960 . S
C3444 H3431 0.960 . S
C3444 C3443 1.524 . S
C3445 C3442 1.403 . S
C3445 C3446 1.392 . S
C3445 C3449 1.495 . S
C3446 C3445 1.392 . S
C3446 C3447 1.385 . S
C3446 C3448 1.478 . S
C3447 H3441 0.930 . S
C3447 C3443 1.400 . S
C3447 C3446 1.385 . S
C3448 C3446 1.478 . S
C3448 C3450 1.381 . S
C3448 C3454 1.383 . S
C3449 C3445 1.495 . S
C3449 H3455 0.959 . S
C3449 H3456 0.961 . S
C3449 H3457 0.960 . S
C3450 C3448 1.381 . S
C3450 C3451 1.394 . S
C3450 H3458 0.930 . S
C3451 C3450 1.394 . S
C3451 C3452 1.383 . S
C3451 H3459 0.929 . S
C3452 C3451 1.383 . S
C3452 C3453 1.377 . S
C3453 H3437 0.930 . S
C3453 C3452 1.377 . S
C3453 C3454 1.379 . S
C3454 H3438 0.931 . S
C3454 C3448 1.383 . S
C3454 C3453 1.379 . S
H3455 C3449 0.959 . S
H3456 C3449 0.961 . S
H3457 C3449 0.960 . S
H3458 C3450 0.930 . S
H3459 C3451 0.929 . S
H3460 C3468 0.929 . S
H3461 C3470 0.930 . S
H3462 C3472 0.930 . S
H3463 C3475 0.929 . S
H3464 C3478 0.930 . S
H3465 C3480 0.960 . S
H3466 C3480 0.962 . S
H3467 C3480 0.960 . S
C3468 H3460 0.929 . S
C3468 C3469 1.377 . S
C3468 C3470 1.384 . S
C3469 C3468 1.377 . S
C3469 C3475 1.390 . S
C3470 H3461 0.930 . S
C3470 C3468 1.384 . S
C3470 C3471 1.372 . S
C3471 C3470 1.372 . S
C3471 C3472 1.400 . S
C3471 C3476 1.490 . S
C3472 H3462 0.930 . S
C3472 C3471 1.400 . S
C3472 C3475 1.386 . S
H3473 C3489 0.930 . S
H3474 C3490 0.931 . S
C3475 H3463 0.929 . S
C3475 C3469 1.390 . S
C3475 C3472 1.386 . S
C3476 C3471 1.490 . S
C3476 C3478 1.395 . S
C3476 C3479 1.403 . S
H3477 C3483 0.930 . S
C3478 H3464 0.930 . S
C3478 C3476 1.395 . S
C3478 C3481 1.403 . S
C3479 C3476 1.403 . S
C3479 C3480 1.524 . S
C3479 C3483 1.400 . S
C3480 H3465 0.960 . S
C3480 H3466 0.962 . S
C3480 H3467 0.960 . S
C3480 C3479 1.524 . S
C3481 C3478 1.403 . S
C3481 C3482 1.392 . S
C3481 C3485 1.495 . S
C3482 C3481 1.392 . S
C3482 C3483 1.385 . S
C3482 C3484 1.478 . S
C3483 H3477 0.930 . S
C3483 C3479 1.400 . S
C3483 C3482 1.385 . S
C3484 C3482 1.478 . S
C3484 C3486 1.381 . S
C3484 C3490 1.383 . S
C3485 C3481 1.495 . S
C3485 H3491 0.959 . S
C3485 H3492 0.961 . S
C3485 H3493 0.960 . S
C3486 C3484 1.381 . S
C3486 C3487 1.394 . S
C3486 H3494 0.930 . S
C3487 C3486 1.394 . S
C3487 C3488 1.383 . S
C3487 H3495 0.929 . S
C3488 C3487 1.383 . S
C3488 C3489 1.377 . S
C3489 H3473 0.930 . S
C3489 C3488 1.377 . S
C3489 C3490 1.379 . S
C3490 H3474 0.931 . S
C3490 C3484 1.383 . S
C3490 C3489 1.379 . S
H3491 C3485 0.959 . S
H3492 C3485 0.961 . S
H3493 C3485 0.960 . S
H3494 C3486 0.930 . S
H3495 C3487 0.929 . S
H3496 C3504 0.929 . S
H3497 C3506 0.930 . S
H3498 C3508 0.930 . S
H3499 C3511 0.929 . S
H3500 C3514 0.930 . S
H3501 C3516 0.960 . S
H3502 C3516 0.960 . S
H3503 C3516 0.960 . S
C3504 H3496 0.929 . S
C3504 C3505 1.377 . S
C3504 C3506 1.384 . S
C3505 C3504 1.377 . S
C3505 C3511 1.390 . S
C3506 H3497 0.930 . S
C3506 C3504 1.384 . S
C3506 C3507 1.372 . S
C3507 C3506 1.372 . S
C3507 C3508 1.400 . S
C3507 C3512 1.490 . S
C3508 H3498 0.930 . S
C3508 C3507 1.400 . S
C3508 C3511 1.386 . S
H3509 C3525 0.930 . S
H3510 C3526 0.931 . S
C3511 H3499 0.929 . S
C3511 C3505 1.390 . S
C3511 C3508 1.386 . S
C3512 C3507 1.490 . S
C3512 C3514 1.395 . S
C3512 C3515 1.403 . S
H3513 C3519 0.930 . S
C3514 H3500 0.930 . S
C3514 C3512 1.395 . S
C3514 C3517 1.403 . S
C3515 C3512 1.403 . S
C3515 C3516 1.524 . S
C3515 C3519 1.400 . S
C3516 H3501 0.960 . S
C3516 H3502 0.960 . S
C3516 H3503 0.960 . S
C3516 C3515 1.524 . S
C3517 C3514 1.403 . S
C3517 C3518 1.392 . S
C3517 C3521 1.495 . S
C3518 C3517 1.392 . S
C3518 C3519 1.385 . S
C3518 C3520 1.478 . S
C3519 H3513 0.930 . S
C3519 C3515 1.400 . S
C3519 C3518 1.385 . S
C3520 C3518 1.478 . S
C3520 C3522 1.381 . S
C3520 C3526 1.383 . S
C3521 C3517 1.495 . S
C3521 H3527 0.959 . S
C3521 H3528 0.961 . S
C3521 H3529 0.960 . S
C3522 C3520 1.381 . S
C3522 C3523 1.394 . S
C3522 H3530 0.930 . S
C3523 C3522 1.394 . S
C3523 C3524 1.383 . S
C3523 H3531 0.929 . S
C3524 C3523 1.383 . S
C3524 C3525 1.377 . S
C3525 H3509 0.930 . S
C3525 C3524 1.377 . S
C3525 C3526 1.379 . S
C3526 H3510 0.931 . S
C3526 C3520 1.383 . S
C3526 C3525 1.379 . S
H3527 C3521 0.959 . S
H3528 C3521 0.961 . S
H3529 C3521 0.960 . S
H3530 C3522 0.930 . S
H3531 C3523 0.929 . S
H3532 C3540 0.929 . S
H3533 C3542 0.930 . S
H3534 C3544 0.930 . S
H3535 C3547 0.929 . S
H3536 C3550 0.930 . S
H3537 C3552 0.960 . S
H3538 C3552 0.960 . S
H3539 C3552 0.960 . S
C3540 H3532 0.929 . S
C3540 C3541 1.377 . S
C3540 C3542 1.384 . S
C3541 C3540 1.377 . S
C3541 C3547 1.390 . S
C3542 H3533 0.930 . S
C3542 C3540 1.384 . S
C3542 C3543 1.372 . S
C3543 C3542 1.372 . S
C3543 C3544 1.400 . S
C3543 C3548 1.490 . S
C3544 H3534 0.930 . S
C3544 C3543 1.400 . S
C3544 C3547 1.386 . S
H3545 C3561 0.930 . S
H3546 C3562 0.931 . S
C3547 H3535 0.929 . S
C3547 C3541 1.390 . S
C3547 C3544 1.386 . S
C3548 C3543 1.490 . S
C3548 C3550 1.395 . S
C3548 C3551 1.403 . S
H3549 C3555 0.930 . S
C3550 H3536 0.930 . S
C3550 C3548 1.395 . S
C3550 C3553 1.403 . S
C3551 C3548 1.403 . S
C3551 C3552 1.524 . S
C3551 C3555 1.400 . S
C3552 H3537 0.960 . S
C3552 H3538 0.960 . S
C3552 H3539 0.960 . S
C3552 C3551 1.524 . S
C3553 C3550 1.403 . S
C3553 C3554 1.392 . S
C3553 C3557 1.495 . S
C3554 C3553 1.392 . S
C3554 C3555 1.385 . S
C3554 C3556 1.478 . S
C3555 H3549 0.930 . S
C3555 C3551 1.400 . S
C3555 C3554 1.385 . S
C3556 C3554 1.478 . S
C3556 C3558 1.381 . S
C3556 C3562 1.383 . S
C3557 C3553 1.495 . S
C3557 H3563 0.959 . S
C3557 H3564 0.961 . S
C3557 H3565 0.960 . S
C3558 C3556 1.381 . S
C3558 C3559 1.394 . S
C3558 H3566 0.930 . S
C3559 C3558 1.394 . S
C3559 C3560 1.383 . S
C3559 H3567 0.929 . S
C3560 C3559 1.383 . S
C3560 C3561 1.377 . S
C3561 H3545 0.930 . S
C3561 C3560 1.377 . S
C3561 C3562 1.379 . S
C3562 H3546 0.931 . S
C3562 C3556 1.383 . S
C3562 C3561 1.379 . S
H3563 C3557 0.959 . S
H3564 C3557 0.961 . S
H3565 C3557 0.960 . S
H3566 C3558 0.930 . S
H3567 C3559 0.929 . S
H3568 C3576 0.929 . S
H3569 C3578 0.930 . S
H3570 C3580 0.930 . S
H3571 C3583 0.929 . S
H3572 C3586 0.930 . S
H3573 C3588 0.960 . S
H3574 C3588 0.960 . S
H3575 C3588 0.960 . S
C3576 H3568 0.929 . S
C3576 C3577 1.377 . S
C3576 C3578 1.384 . S
C3577 C3576 1.377 . S
C3577 C3583 1.390 . S
C3578 H3569 0.930 . S
C3578 C3576 1.384 . S
C3578 C3579 1.372 . S
C3579 C3578 1.372 . S
C3579 C3580 1.400 . S
C3579 C3584 1.490 . S
C3580 H3570 0.930 . S
C3580 C3579 1.400 . S
C3580 C3583 1.386 . S
H3581 C3597 0.930 . S
H3582 C3598 0.931 . S
C3583 H3571 0.929 . S
C3583 C3577 1.390 . S
C3583 C3580 1.386 . S
C3584 C3579 1.490 . S
C3584 C3586 1.395 . S
C3584 C3587 1.403 . S
H3585 C3591 0.930 . S
C3586 H3572 0.930 . S
C3586 C3584 1.395 . S
C3586 C3589 1.403 . S
C3587 C3584 1.403 . S
C3587 C3588 1.524 . S
C3587 C3591 1.400 . S
C3588 H3573 0.960 . S
C3588 H3574 0.960 . S
C3588 H3575 0.960 . S
C3588 C3587 1.524 . S
C3589 C3586 1.403 . S
C3589 C3590 1.392 . S
C3589 C3593 1.495 . S
C3590 C3589 1.392 . S
C3590 C3591 1.385 . S
C3590 C3592 1.478 . S
C3591 H3585 0.930 . S
C3591 C3587 1.400 . S
C3591 C3590 1.385 . S
C3592 C3590 1.478 . S
C3592 C3594 1.381 . S
C3592 C3598 1.383 . S
C3593 C3589 1.495 . S
C3593 H3599 0.959 . S
C3593 H3600 0.961 . S
C3593 H3601 0.960 . S
C3594 C3592 1.381 . S
C3594 C3595 1.394 . S
C3594 H3602 0.930 . S
C3595 C3594 1.394 . S
C3595 C3596 1.383 . S
C3595 H3603 0.929 . S
C3596 C3595 1.383 . S
C3596 C3597 1.377 . S
C3597 H3581 0.930 . S
C3597 C3596 1.377 . S
C3597 C3598 1.379 . S
C3598 H3582 0.931 . S
C3598 C3592 1.383 . S
C3598 C3597 1.379 . S
H3599 C3593 0.959 . S
H3600 C3593 0.961 . S
H3601 C3593 0.960 . S
H3602 C3594 0.930 . S
H3603 C3595 0.929 . S
H3604 C3612 0.929 . S
H3605 C3614 0.930 . S
H3606 C3616 0.930 . S
H3607 C3619 0.929 . S
H3608 C3622 0.930 . S
H3609 C3624 0.960 . S
H3610 C3624 0.960 . S
H3611 C3624 0.960 . S
C3612 H3604 0.929 . S
C3612 C3613 1.377 . S
C3612 C3614 1.384 . S
C3613 C3612 1.377 . S
C3613 C3619 1.390 . S
C3614 H3605 0.930 . S
C3614 C3612 1.384 . S
C3614 C3615 1.372 . S
C3615 C3614 1.372 . S
C3615 C3616 1.400 . S
C3615 C3620 1.490 . S
C3616 H3606 0.930 . S
C3616 C3615 1.400 . S
C3616 C3619 1.386 . S
H3617 C3633 0.930 . S
H3618 C3634 0.931 . S
C3619 H3607 0.929 . S
C3619 C3613 1.390 . S
C3619 C3616 1.386 . S
C3620 C3615 1.490 . S
C3620 C3622 1.395 . S
C3620 C3623 1.403 . S
H3621 C3627 0.930 . S
C3622 H3608 0.930 . S
C3622 C3620 1.395 . S
C3622 C3625 1.403 . S
C3623 C3620 1.403 . S
C3623 C3624 1.524 . S
C3623 C3627 1.400 . S
C3624 H3609 0.960 . S
C3624 H3610 0.960 . S
C3624 H3611 0.960 . S
C3624 C3623 1.524 . S
C3625 C3622 1.403 . S
C3625 C3626 1.392 . S
C3625 C3629 1.495 . S
C3626 C3625 1.392 . S
C3626 C3627 1.385 . S
C3626 C3628 1.478 . S
C3627 H3621 0.930 . S
C3627 C3623 1.400 . S
C3627 C3626 1.385 . S
C3628 C3626 1.478 . S
C3628 C3630 1.381 . S
C3628 C3634 1.383 . S
C3629 C3625 1.495 . S
C3629 H3635 0.959 . S
C3629 H3636 0.961 . S
C3629 H3637 0.960 . S
C3630 C3628 1.381 . S
C3630 C3631 1.394 . S
C3630 H3638 0.930 . S
C3631 C3630 1.394 . S
C3631 C3632 1.383 . S
C3631 H3639 0.929 . S
C3632 C3631 1.383 . S
C3632 C3633 1.377 . S
C3633 H3617 0.930 . S
C3633 C3632 1.377 . S
C3633 C3634 1.379 . S
C3634 H3618 0.931 . S
C3634 C3628 1.383 . S
C3634 C3633 1.379 . S
H3635 C3629 0.959 . S
H3636 C3629 0.961 . S
H3637 C3629 0.960 . S
H3638 C3630 0.930 . S
H3639 C3631 0.929 . S
H3640 C3648 0.929 . S
H3641 C3650 0.930 . S
H3642 C3652 0.930 . S
H3643 C3655 0.929 . S
H3644 C3658 0.930 . S
H3645 C3660 0.960 . S
H3646 C3660 0.960 . S
H3647 C3660 0.960 . S
C3648 H3640 0.929 . S
C3648 C3649 1.377 . S
C3648 C3650 1.384 . S
C3649 C3648 1.377 . S
C3649 C3655 1.390 . S
C3650 H3641 0.930 . S
C3650 C3648 1.384 . S
C3650 C3651 1.372 . S
C3651 C3650 1.372 . S
C3651 C3652 1.400 . S
C3651 C3656 1.490 . S
C3652 H3642 0.930 . S
C3652 C3651 1.400 . S
C3652 C3655 1.386 . S
H3653 C3669 0.930 . S
H3654 C3670 0.931 . S
C3655 H3643 0.929 . S
C3655 C3649 1.390 . S
C3655 C3652 1.386 . S
C3656 C3651 1.490 . S
C3656 C3658 1.395 . S
C3656 C3659 1.403 . S
H3657 C3663 0.930 . S
C3658 H3644 0.930 . S
C3658 C3656 1.395 . S
C3658 C3661 1.403 . S
C3659 C3656 1.403 . S
C3659 C3660 1.524 . S
C3659 C3663 1.400 . S
C3660 H3645 0.960 . S
C3660 H3646 0.960 . S
C3660 H3647 0.960 . S
C3660 C3659 1.524 . S
C3661 C3658 1.403 . S
C3661 C3662 1.392 . S
C3661 C3665 1.495 . S
C3662 C3661 1.392 . S
C3662 C3663 1.385 . S
C3662 C3664 1.478 . S
C3663 H3657 0.930 . S
C3663 C3659 1.400 . S
C3663 C3662 1.385 . S
C3664 C3662 1.478 . S
C3664 C3666 1.381 . S
C3664 C3670 1.383 . S
C3665 C3661 1.495 . S
C3665 H3671 0.959 . S
C3665 H3672 0.961 . S
C3665 H3673 0.960 . S
C3666 C3664 1.381 . S
C3666 C3667 1.394 . S
C3666 H3674 0.930 . S
C3667 C3666 1.394 . S
C3667 C3668 1.383 . S
C3667 H3675 0.929 . S
C3668 C3667 1.383 . S
C3668 C3669 1.377 . S
C3669 H3653 0.930 . S
C3669 C3668 1.377 . S
C3669 C3670 1.379 . S
C3670 H3654 0.931 . S
C3670 C3664 1.383 . S
C3670 C3669 1.379 . S
H3671 C3665 0.959 . S
H3672 C3665 0.961 . S
H3673 C3665 0.960 . S
H3674 C3666 0.930 . S
H3675 C3667 0.929 . S
H3676 C3684 0.929 . S
H3677 C3686 0.930 . S
H3678 C3688 0.930 . S
H3679 C3691 0.929 . S
H3680 C3694 0.930 . S
H3681 C3696 0.960 . S
H3682 C3696 0.960 . S
H3683 C3696 0.960 . S
C3684 H3676 0.929 . S
C3684 C3685 1.377 . S
C3684 C3686 1.384 . S
C3685 C3684 1.377 . S
C3685 C3691 1.390 . S
C3686 H3677 0.930 . S
C3686 C3684 1.384 . S
C3686 C3687 1.372 . S
C3687 C3686 1.372 . S
C3687 C3688 1.400 . S
C3687 C3692 1.490 . S
C3688 H3678 0.930 . S
C3688 C3687 1.400 . S
C3688 C3691 1.386 . S
H3689 C3705 0.930 . S
H3690 C3706 0.931 . S
C3691 H3679 0.929 . S
C3691 C3685 1.390 . S
C3691 C3688 1.386 . S
C3692 C3687 1.490 . S
C3692 C3694 1.395 . S
C3692 C3695 1.403 . S
H3693 C3699 0.930 . S
C3694 H3680 0.930 . S
C3694 C3692 1.395 . S
C3694 C3697 1.403 . S
C3695 C3692 1.403 . S
C3695 C3696 1.524 . S
C3695 C3699 1.400 . S
C3696 H3681 0.960 . S
C3696 H3682 0.960 . S
C3696 H3683 0.960 . S
C3696 C3695 1.524 . S
C3697 C3694 1.403 . S
C3697 C3698 1.392 . S
C3697 C3701 1.495 . S
C3698 C3697 1.392 . S
C3698 C3699 1.385 . S
C3698 C3700 1.478 . S
C3699 H3693 0.930 . S
C3699 C3695 1.400 . S
C3699 C3698 1.385 . S
C3700 C3698 1.478 . S
C3700 C3702 1.381 . S
C3700 C3706 1.383 . S
C3701 C3697 1.495 . S
C3701 H3707 0.959 . S
C3701 H3708 0.961 . S
C3701 H3709 0.960 . S
C3702 C3700 1.381 . S
C3702 C3703 1.394 . S
C3702 H3710 0.930 . S
C3703 C3702 1.394 . S
C3703 C3704 1.383 . S
C3703 H3711 0.929 . S
C3704 C3703 1.383 . S
C3704 C3705 1.377 . S
C3705 H3689 0.930 . S
C3705 C3704 1.377 . S
C3705 C3706 1.379 . S
C3706 H3690 0.931 . S
C3706 C3700 1.383 . S
C3706 C3705 1.379 . S
H3707 C3701 0.959 . S
H3708 C3701 0.961 . S
H3709 C3701 0.960 . S
H3710 C3702 0.930 . S
H3711 C3703 0.929 . S
H3712 C3720 0.929 . S
H3713 C3722 0.930 . S
H3714 C3724 0.930 . S
H3715 C3727 0.929 . S
H3716 C3730 0.930 . S
H3717 C3732 0.960 . S
H3718 C3732 0.960 . S
H3719 C3732 0.960 . S
C3720 H3712 0.929 . S
C3720 C3721 1.377 . S
C3720 C3722 1.384 . S
C3721 C3720 1.377 . S
C3721 C3727 1.390 . S
C3722 H3713 0.930 . S
C3722 C3720 1.384 . S
C3722 C3723 1.372 . S
C3723 C3722 1.372 . S
C3723 C3724 1.400 . S
C3723 C3728 1.490 . S
C3724 H3714 0.930 . S
C3724 C3723 1.400 . S
C3724 C3727 1.386 . S
H3725 C3741 0.930 . S
H3726 C3742 0.931 . S
C3727 H3715 0.929 . S
C3727 C3721 1.390 . S
C3727 C3724 1.386 . S
C3728 C3723 1.490 . S
C3728 C3730 1.395 . S
C3728 C3731 1.403 . S
H3729 C3735 0.930 . S
C3730 H3716 0.930 . S
C3730 C3728 1.395 . S
C3730 C3733 1.403 . S
C3731 C3728 1.403 . S
C3731 C3732 1.524 . S
C3731 C3735 1.400 . S
C3732 H3717 0.960 . S
C3732 H3718 0.960 . S
C3732 H3719 0.960 . S
C3732 C3731 1.524 . S
C3733 C3730 1.403 . S
C3733 C3734 1.392 . S
C3733 C3737 1.495 . S
C3734 C3733 1.392 . S
C3734 C3735 1.385 . S
C3734 C3736 1.478 . S
C3735 H3729 0.930 . S
C3735 C3731 1.400 . S
C3735 C3734 1.385 . S
C3736 C3734 1.478 . S
C3736 C3738 1.381 . S
C3736 C3742 1.383 . S
C3737 C3733 1.495 . S
C3737 H3743 0.959 . S
C3737 H3744 0.961 . S
C3737 H3745 0.960 . S
C3738 C3736 1.381 . S
C3738 C3739 1.394 . S
C3738 H3746 0.930 . S
C3739 C3738 1.394 . S
C3739 C3740 1.383 . S
C3739 H3747 0.929 . S
C3740 C3739 1.383 . S
C3740 C3741 1.377 . S
C3741 H3725 0.930 . S
C3741 C3740 1.377 . S
C3741 C3742 1.379 . S
C3742 H3726 0.931 . S
C3742 C3736 1.383 . S
C3742 C3741 1.379 . S
H3743 C3737 0.959 . S
H3744 C3737 0.961 . S
H3745 C3737 0.960 . S
H3746 C3738 0.930 . S
H3747 C3739 0.929 . S
H3748 C3756 0.929 . S
H3749 C3758 0.930 . S
H3750 C3760 0.930 . S
H3751 C3763 0.929 . S
H3752 C3766 0.930 . S
H3753 C3768 0.960 . S
H3754 C3768 0.960 . S
H3755 C3768 0.960 . S
C3756 H3748 0.929 . S
C3756 C3757 1.377 . S
C3756 C3758 1.384 . S
C3757 C3756 1.377 . S
C3757 C3763 1.390 . S
C3758 H3749 0.930 . S
C3758 C3756 1.384 . S
C3758 C3759 1.372 . S
C3759 C3758 1.372 . S
C3759 C3760 1.400 . S
C3759 C3764 1.490 . S
C3760 H3750 0.930 . S
C3760 C3759 1.400 . S
C3760 C3763 1.386 . S
H3761 C3777 0.930 . S
H3762 C3778 0.931 . S
C3763 H3751 0.929 . S
C3763 C3757 1.390 . S
C3763 C3760 1.386 . S
C3764 C3759 1.490 . S
C3764 C3766 1.395 . S
C3764 C3767 1.403 . S
H3765 C3771 0.930 . S
C3766 H3752 0.930 . S
C3766 C3764 1.395 . S
C3766 C3769 1.403 . S
C3767 C3764 1.403 . S
C3767 C3768 1.524 . S
C3767 C3771 1.400 . S
C3768 H3753 0.960 . S
C3768 H3754 0.960 . S
C3768 H3755 0.960 . S
C3768 C3767 1.524 . S
C3769 C3766 1.403 . S
C3769 C3770 1.392 . S
C3769 C3773 1.495 . S
C3770 C3769 1.392 . S
C3770 C3771 1.385 . S
C3770 C3772 1.478 . S
C3771 H3765 0.930 . S
C3771 C3767 1.400 . S
C3771 C3770 1.385 . S
C3772 C3770 1.478 . S
C3772 C3774 1.381 . S
C3772 C3778 1.383 . S
C3773 C3769 1.495 . S
C3773 H3779 0.959 . S
C3773 H3780 0.961 . S
C3773 H3781 0.960 . S
C3774 C3772 1.381 . S
C3774 C3775 1.394 . S
C3774 H3782 0.930 . S
C3775 C3774 1.394 . S
C3775 C3776 1.383 . S
C3775 H3783 0.929 . S
C3776 C3775 1.383 . S
C3776 C3777 1.377 . S
C3777 H3761 0.930 . S
C3777 C3776 1.377 . S
C3777 C3778 1.379 . S
C3778 H3762 0.931 . S
C3778 C3772 1.383 . S
C3778 C3777 1.379 . S
H3779 C3773 0.959 . S
H3780 C3773 0.961 . S
H3781 C3773 0.960 . S
H3782 C3774 0.930 . S
H3783 C3775 0.929 . S
H3784 C3792 0.929 . S
H3785 C3794 0.930 . S
H3786 C3796 0.930 . S
H3787 C3799 0.929 . S
H3788 C3802 0.930 . S
H3789 C3804 0.960 . S
H3790 C3804 0.960 . S
H3791 C3804 0.960 . S
C3792 H3784 0.929 . S
C3792 C3793 1.377 . S
C3792 C3794 1.384 . S
C3793 C3792 1.377 . S
C3793 C3799 1.390 . S
C3794 H3785 0.930 . S
C3794 C3792 1.384 . S
C3794 C3795 1.372 . S
C3795 C3794 1.372 . S
C3795 C3796 1.400 . S
C3795 C3800 1.490 . S
C3796 H3786 0.930 . S
C3796 C3795 1.400 . S
C3796 C3799 1.386 . S
H3797 C3813 0.930 . S
H3798 C3814 0.931 . S
C3799 H3787 0.929 . S
C3799 C3793 1.390 . S
C3799 C3796 1.386 . S
C3800 C3795 1.490 . S
C3800 C3802 1.395 . S
C3800 C3803 1.403 . S
H3801 C3807 0.930 . S
C3802 H3788 0.930 . S
C3802 C3800 1.395 . S
C3802 C3805 1.403 . S
C3803 C3800 1.403 . S
C3803 C3804 1.524 . S
C3803 C3807 1.400 . S
C3804 H3789 0.960 . S
C3804 H3790 0.960 . S
C3804 H3791 0.960 . S
C3804 C3803 1.524 . S
C3805 C3802 1.403 . S
C3805 C3806 1.392 . S
C3805 C3809 1.495 . S
C3806 C3805 1.392 . S
C3806 C3807 1.385 . S
C3806 C3808 1.478 . S
C3807 H3801 0.930 . S
C3807 C3803 1.400 . S
C3807 C3806 1.385 . S
C3808 C3806 1.478 . S
C3808 C3810 1.381 . S
C3808 C3814 1.383 . S
C3809 C3805 1.495 . S
C3809 H3815 0.959 . S
C3809 H3816 0.961 . S
C3809 H3817 0.960 . S
C3810 C3808 1.381 . S
C3810 C3811 1.394 . S
C3810 H3818 0.930 . S
C3811 C3810 1.394 . S
C3811 C3812 1.383 . S
C3811 H3819 0.929 . S
C3812 C3811 1.383 . S
C3812 C3813 1.377 . S
C3813 H3797 0.930 . S
C3813 C3812 1.377 . S
C3813 C3814 1.379 . S
C3814 H3798 0.931 . S
C3814 C3808 1.383 . S
C3814 C3813 1.379 . S
H3815 C3809 0.959 . S
H3816 C3809 0.961 . S
H3817 C3809 0.960 . S
H3818 C3810 0.930 . S
H3819 C3811 0.929 . S
H3820 C3828 0.929 . S
H3821 C3830 0.930 . S
H3822 C3832 0.930 . S
H3823 C3835 0.929 . S
H3824 C3838 0.930 . S
H3825 C3840 0.960 . S
H3826 C3840 0.960 . S
H3827 C3840 0.960 . S
C3828 H3820 0.929 . S
C3828 C3829 1.377 . S
C3828 C3830 1.384 . S
C3829 C3828 1.377 . S
C3829 C3835 1.390 . S
C3830 H3821 0.930 . S
C3830 C3828 1.384 . S
C3830 C3831 1.372 . S
C3831 C3830 1.372 . S
C3831 C3832 1.400 . S
C3831 C3836 1.490 . S
C3832 H3822 0.930 . S
C3832 C3831 1.400 . S
C3832 C3835 1.386 . S
H3833 C3849 0.930 . S
H3834 C3850 0.931 . S
C3835 H3823 0.929 . S
C3835 C3829 1.390 . S
C3835 C3832 1.386 . S
C3836 C3831 1.490 . S
C3836 C3838 1.395 . S
C3836 C3839 1.403 . S
H3837 C3843 0.930 . S
C3838 H3824 0.930 . S
C3838 C3836 1.395 . S
C3838 C3841 1.403 . S
C3839 C3836 1.403 . S
C3839 C3840 1.524 . S
C3839 C3843 1.400 . S
C3840 H3825 0.960 . S
C3840 H3826 0.960 . S
C3840 H3827 0.960 . S
C3840 C3839 1.524 . S
C3841 C3838 1.403 . S
C3841 C3842 1.392 . S
C3841 C3845 1.495 . S
C3842 C3841 1.392 . S
C3842 C3843 1.385 . S
C3842 C3844 1.478 . S
C3843 H3837 0.930 . S
C3843 C3839 1.400 . S
C3843 C3842 1.385 . S
C3844 C3842 1.478 . S
C3844 C3846 1.381 . S
C3844 C3850 1.383 . S
C3845 C3841 1.495 . S
C3845 H3851 0.959 . S
C3845 H3852 0.961 . S
C3845 H3853 0.960 . S
C3846 C3844 1.381 . S
C3846 C3847 1.394 . S
C3846 H3854 0.930 . S
C3847 C3846 1.394 . S
C3847 C3848 1.383 . S
C3847 H3855 0.929 . S
C3848 C3847 1.383 . S
C3848 C3849 1.377 . S
C3849 H3833 0.930 . S
C3849 C3848 1.377 . S
C3849 C3850 1.379 . S
C3850 H3834 0.931 . S
C3850 C3844 1.383 . S
C3850 C3849 1.379 . S
H3851 C3845 0.959 . S
H3852 C3845 0.961 . S
H3853 C3845 0.960 . S
H3854 C3846 0.930 . S
H3855 C3847 0.929 . S
H3856 C3864 0.929 . S
H3857 C3866 0.930 . S
H3858 C3868 0.930 . S
H3859 C3871 0.929 . S
H3860 C3874 0.930 . S
H3861 C3876 0.960 . S
H3862 C3876 0.960 . S
H3863 C3876 0.960 . S
C3864 H3856 0.929 . S
C3864 C3865 1.377 . S
C3864 C3866 1.384 . S
C3865 C3864 1.377 . S
C3865 C3871 1.390 . S
C3866 H3857 0.930 . S
C3866 C3864 1.384 . S
C3866 C3867 1.372 . S
C3867 C3866 1.372 . S
C3867 C3868 1.400 . S
C3867 C3872 1.490 . S
C3868 H3858 0.930 . S
C3868 C3867 1.400 . S
C3868 C3871 1.386 . S
H3869 C3885 0.930 . S
H3870 C3886 0.931 . S
C3871 H3859 0.929 . S
C3871 C3865 1.390 . S
C3871 C3868 1.386 . S
C3872 C3867 1.490 . S
C3872 C3874 1.395 . S
C3872 C3875 1.403 . S
H3873 C3879 0.930 . S
C3874 H3860 0.930 . S
C3874 C3872 1.395 . S
C3874 C3877 1.403 . S
C3875 C3872 1.403 . S
C3875 C3876 1.524 . S
C3875 C3879 1.400 . S
C3876 H3861 0.960 . S
C3876 H3862 0.960 . S
C3876 H3863 0.960 . S
C3876 C3875 1.524 . S
C3877 C3874 1.403 . S
C3877 C3878 1.392 . S
C3877 C3881 1.495 . S
C3878 C3877 1.392 . S
C3878 C3879 1.385 . S
C3878 C3880 1.478 . S
C3879 H3873 0.930 . S
C3879 C3875 1.400 . S
C3879 C3878 1.385 . S
C3880 C3878 1.478 . S
C3880 C3882 1.381 . S
C3880 C3886 1.383 . S
C3881 C3877 1.495 . S
C3881 H3887 0.959 . S
C3881 H3888 0.961 . S
C3881 H3889 0.960 . S
C3882 C3880 1.381 . S
C3882 C3883 1.394 . S
C3882 H3890 0.930 . S
C3883 C3882 1.394 . S
C3883 C3884 1.383 . S
C3883 H3891 0.929 . S
C3884 C3883 1.383 . S
C3884 C3885 1.377 . S
C3885 H3869 0.930 . S
C3885 C3884 1.377 . S
C3885 C3886 1.379 . S
C3886 H3870 0.931 . S
C3886 C3880 1.383 . S
C3886 C3885 1.379 . S
H3887 C3881 0.959 . S
H3888 C3881 0.961 . S
H3889 C3881 0.960 . S
H3890 C3882 0.930 . S
H3891 C3883 0.929 . S
H3892 C3900 0.929 . S
H3893 C3902 0.930 . S
H3894 C3904 0.930 . S
H3895 C3907 0.929 . S
H3896 C3910 0.930 . S
H3897 C3912 0.960 . S
H3898 C3912 0.960 . S
H3899 C3912 0.960 . S
C3900 H3892 0.929 . S
C3900 C3901 1.377 . S
C3900 C3902 1.384 . S
C3901 C3900 1.377 . S
C3901 C3907 1.390 . S
C3902 H3893 0.930 . S
C3902 C3900 1.384 . S
C3902 C3903 1.372 . S
C3903 C3902 1.372 . S
C3903 C3904 1.400 . S
C3903 C3908 1.490 . S
C3904 H3894 0.930 . S
C3904 C3903 1.400 . S
C3904 C3907 1.386 . S
H3905 C3921 0.930 . S
H3906 C3922 0.931 . S
C3907 H3895 0.929 . S
C3907 C3901 1.390 . S
C3907 C3904 1.386 . S
C3908 C3903 1.490 . S
C3908 C3910 1.395 . S
C3908 C3911 1.403 . S
H3909 C3915 0.930 . S
C3910 H3896 0.930 . S
C3910 C3908 1.395 . S
C3910 C3913 1.403 . S
C3911 C3908 1.403 . S
C3911 C3912 1.524 . S
C3911 C3915 1.400 . S
C3912 H3897 0.960 . S
C3912 H3898 0.960 . S
C3912 H3899 0.960 . S
C3912 C3911 1.524 . S
C3913 C3910 1.403 . S
C3913 C3914 1.392 . S
C3913 C3917 1.495 . S
C3914 C3913 1.392 . S
C3914 C3915 1.385 . S
C3914 C3916 1.478 . S
C3915 H3909 0.930 . S
C3915 C3911 1.400 . S
C3915 C3914 1.385 . S
C3916 C3914 1.478 . S
C3916 C3918 1.381 . S
C3916 C3922 1.383 . S
C3917 C3913 1.495 . S
C3917 H3923 0.959 . S
C3917 H3924 0.961 . S
C3917 H3925 0.960 . S
C3918 C3916 1.381 . S
C3918 C3919 1.394 . S
C3918 H3926 0.930 . S
C3919 C3918 1.394 . S
C3919 C3920 1.383 . S
C3919 H3927 0.929 . S
C3920 C3919 1.383 . S
C3920 C3921 1.377 . S
C3921 H3905 0.930 . S
C3921 C3920 1.377 . S
C3921 C3922 1.379 . S
C3922 H3906 0.931 . S
C3922 C3916 1.383 . S
C3922 C3921 1.379 . S
H3923 C3917 0.959 . S
H3924 C3917 0.961 . S
H3925 C3917 0.960 . S
H3926 C3918 0.930 . S
H3927 C3919 0.929 . S
H3928 C3936 0.929 . S
H3929 C3938 0.930 . S
H3930 C3940 0.930 . S
H3931 C3943 0.929 . S
H3932 C3946 0.930 1_455 S
H3933 C3948 0.960 . S
H3934 C3948 0.960 . S
H3935 C3948 0.960 . S
C3936 H3928 0.929 . S
C3936 C3937 1.377 . S
C3936 C3938 1.384 . S
C3937 C3936 1.377 . S
C3937 C3943 1.390 . S
C3938 H3929 0.930 . S
C3938 C3936 1.384 . S
C3938 C3939 1.372 . S
C3939 C3938 1.372 . S
C3939 C3940 1.400 . S
C3939 C3944 1.490 . S
C3940 H3930 0.930 . S
C3940 C3939 1.400 . S
C3940 C3943 1.386 . S
H3941 C3957 0.930 . S
H3942 C3958 0.931 1_655 S
C3943 H3931 0.929 . S
C3943 C3937 1.390 . S
C3943 C3940 1.386 . S
C3944 C3939 1.490 . S
C3944 C3946 1.395 . S
C3944 C3947 1.403 . S
H3945 C3951 0.930 . S
C3946 H3932 0.930 1_655 S
C3946 C3944 1.395 . S
C3946 C3949 1.403 1_655 S
C3947 C3944 1.403 . S
C3947 C3948 1.524 . S
C3947 C3951 1.400 . S
C3948 H3933 0.960 . S
C3948 H3934 0.960 . S
C3948 H3935 0.960 . S
C3948 C3947 1.524 . S
C3949 C3946 1.403 1_455 S
C3949 C3950 1.423 . S
C3949 C3953 1.495 . S
C3950 C3949 1.423 . S
C3950 C3951 1.325 1_455 S
C3950 C3952 1.507 . S
C3951 H3945 0.930 . S
C3951 C3947 1.400 . S
C3951 C3950 1.325 1_655 S
C3952 C3950 1.507 . S
C3952 C3954 1.381 . S
C3952 C3958 1.383 . S
C3953 C3949 1.495 . S
C3953 H3959 0.959 . S
C3953 H3960 0.961 . S
C3953 H3961 0.960 . S
C3954 C3952 1.381 . S
C3954 C3955 1.394 . S
C3954 H3962 0.930 . S
C3955 C3954 1.394 . S
C3955 C3956 1.383 . S
C3955 H3963 0.929 . S
C3956 C3955 1.383 . S
C3956 C3957 1.377 . S
C3957 H3941 0.930 . S
C3957 C3956 1.377 . S
C3957 C3958 1.379 . S
C3958 H3942 0.931 1_455 S
C3958 C3952 1.383 . S
C3958 C3957 1.379 . S
H3959 C3953 0.959 . S
H3960 C3953 0.961 . S
H3961 C3953 0.960 . S
H3962 C3954 0.930 . S
H3963 C3955 0.929 . S
H3964 C3972 0.929 . S
H3965 C3974 0.930 . S
H3966 C3976 0.930 . S
H3967 C3979 0.929 . S
H3968 C3982 0.930 . S
H3969 C3984 0.960 . S
H3970 C3984 0.960 . S
H3971 C3984 0.960 . S
C3972 H3964 0.929 . S
C3972 C3973 1.377 . S
C3972 C3974 1.384 . S
C3973 C3972 1.377 . S
C3973 C3979 1.390 . S
C3974 H3965 0.930 . S
C3974 C3972 1.384 . S
C3974 C3975 1.372 . S
C3975 C3974 1.372 . S
C3975 C3976 1.400 . S
C3975 C3980 1.490 . S
C3976 H3966 0.930 . S
C3976 C3975 1.400 . S
C3976 C3979 1.386 . S
H3977 C3993 0.930 . S
H3978 C3994 0.931 . S
C3979 H3967 0.929 . S
C3979 C3973 1.390 . S
C3979 C3976 1.386 . S
C3980 C3975 1.490 . S
C3980 C3982 1.395 . S
C3980 C3983 1.403 . S
H3981 C3987 0.930 . S
C3982 H3968 0.930 . S
C3982 C3980 1.395 . S
C3982 C3985 1.403 . S
C3983 C3980 1.403 . S
C3983 C3984 1.524 . S
C3983 C3987 1.400 . S
C3984 H3969 0.960 . S
C3984 H3970 0.960 . S
C3984 H3971 0.960 . S
C3984 C3983 1.524 . S
C3985 C3982 1.403 . S
C3985 C3986 1.392 . S
C3985 C3989 1.495 . S
C3986 C3985 1.392 . S
C3986 C3987 1.385 . S
C3986 C3988 1.478 . S
C3987 H3981 0.930 . S
C3987 C3983 1.400 . S
C3987 C3986 1.385 . S
C3988 C3986 1.478 . S
C3988 C3990 1.381 . S
C3988 C3994 1.383 . S
C3989 C3985 1.495 . S
C3989 H3995 0.959 . S
C3989 H3996 0.961 . S
C3989 H3997 0.960 . S
C3990 C3988 1.381 . S
C3990 C3991 1.394 . S
C3990 H3998 0.930 . S
C3991 C3990 1.394 . S
C3991 C3992 1.383 . S
C3991 H3999 0.929 . S
C3992 C3991 1.383 . S
C3992 C3993 1.377 . S
C3993 H3977 0.930 . S
C3993 C3992 1.377 . S
C3993 C3994 1.379 . S
C3994 H3978 0.931 . S
C3994 C3988 1.383 . S
C3994 C3993 1.379 . S
H3995 C3989 0.959 . S
H3996 C3989 0.961 . S
H3997 C3989 0.960 . S
H3998 C3990 0.930 . S
H3999 C3991 0.929 . S
H4000 C4008 0.929 . S
H4001 C4010 0.930 . S
H4002 C4012 0.930 . S
H4003 C4015 0.929 . S
H4004 C4018 0.930 . S
H4005 C4020 0.960 . S
H4006 C4020 0.960 . S
H4007 C4020 0.960 . S
C4008 H4000 0.929 . S
C4008 C4009 1.377 . S
C4008 C4010 1.384 . S
C4009 C4008 1.377 . S
C4009 C4015 1.390 . S
C4010 H4001 0.930 . S
C4010 C4008 1.384 . S
C4010 C4011 1.372 . S
C4011 C4010 1.372 . S
C4011 C4012 1.400 . S
C4011 C4016 1.490 . S
C4012 H4002 0.930 . S
C4012 C4011 1.400 . S
C4012 C4015 1.386 . S
H4013 C4029 0.930 . S
H4014 C4030 0.931 . S
C4015 H4003 0.929 . S
C4015 C4009 1.390 . S
C4015 C4012 1.386 . S
C4016 C4011 1.490 . S
C4016 C4018 1.395 . S
C4016 C4019 1.403 . S
H4017 C4023 0.930 . S
C4018 H4004 0.930 . S
C4018 C4016 1.395 . S
C4018 C4021 1.403 . S
C4019 C4016 1.403 . S
C4019 C4020 1.524 . S
C4019 C4023 1.400 . S
C4020 H4005 0.960 . S
C4020 H4006 0.960 . S
C4020 H4007 0.960 . S
C4020 C4019 1.524 . S
C4021 C4018 1.403 . S
C4021 C4022 1.392 . S
C4021 C4025 1.495 . S
C4022 C4021 1.392 . S
C4022 C4023 1.385 . S
C4022 C4024 1.478 . S
C4023 H4017 0.930 . S
C4023 C4019 1.400 . S
C4023 C4022 1.385 . S
C4024 C4022 1.478 . S
C4024 C4026 1.381 . S
C4024 C4030 1.383 . S
C4025 C4021 1.495 . S
C4025 H4031 0.959 . S
C4025 H4032 0.961 . S
C4025 H4033 0.960 . S
C4026 C4024 1.381 . S
C4026 C4027 1.394 . S
C4026 H4034 0.930 . S
C4027 C4026 1.394 . S
C4027 C4028 1.383 . S
C4027 H4035 0.929 . S
C4028 C4027 1.383 . S
C4028 C4029 1.377 . S
C4029 H4013 0.930 . S
C4029 C4028 1.377 . S
C4029 C4030 1.379 . S
C4030 H4014 0.931 . S
C4030 C4024 1.383 . S
C4030 C4029 1.379 . S
H4031 C4025 0.959 . S
H4032 C4025 0.961 . S
H4033 C4025 0.960 . S
H4034 C4026 0.930 . S
H4035 C4027 0.929 . S
H4036 C4044 0.929 . S
H4037 C4046 0.930 . S
H4038 C4048 0.930 . S
H4039 C4051 0.929 . S
H4040 C4054 0.930 . S
H4041 C4056 0.960 . S
H4042 C4056 0.960 . S
H4043 C4056 0.960 . S
C4044 H4036 0.929 . S
C4044 C4045 1.377 . S
C4044 C4046 1.384 . S
C4045 C4044 1.377 . S
C4045 C4051 1.390 . S
C4046 H4037 0.930 . S
C4046 C4044 1.384 . S
C4046 C4047 1.372 . S
C4047 C4046 1.372 . S
C4047 C4048 1.400 . S
C4047 C4052 1.490 . S
C4048 H4038 0.930 . S
C4048 C4047 1.400 . S
C4048 C4051 1.386 . S
H4049 C4065 0.930 . S
H4050 C4066 0.931 . S
C4051 H4039 0.929 . S
C4051 C4045 1.390 . S
C4051 C4048 1.386 . S
C4052 C4047 1.490 . S
C4052 C4054 1.395 . S
C4052 C4055 1.403 . S
H4053 C4059 0.930 . S
C4054 H4040 0.930 . S
C4054 C4052 1.395 . S
C4054 C4057 1.403 . S
C4055 C4052 1.403 . S
C4055 C4056 1.524 . S
C4055 C4059 1.400 . S
C4056 H4041 0.960 . S
C4056 H4042 0.960 . S
C4056 H4043 0.960 . S
C4056 C4055 1.524 . S
C4057 C4054 1.403 . S
C4057 C4058 1.392 . S
C4057 C4061 1.495 . S
C4058 C4057 1.392 . S
C4058 C4059 1.385 . S
C4058 C4060 1.478 . S
C4059 H4053 0.930 . S
C4059 C4055 1.400 . S
C4059 C4058 1.385 . S
C4060 C4058 1.478 . S
C4060 C4062 1.381 . S
C4060 C4066 1.383 . S
C4061 C4057 1.495 . S
C4061 H4067 0.959 . S
C4061 H4068 0.961 . S
C4061 H4069 0.960 . S
C4062 C4060 1.381 . S
C4062 C4063 1.394 . S
C4062 H4070 0.930 . S
C4063 C4062 1.394 . S
C4063 C4064 1.383 . S
C4063 H4071 0.929 . S
C4064 C4063 1.383 . S
C4064 C4065 1.377 . S
C4065 H4049 0.930 . S
C4065 C4064 1.377 . S
C4065 C4066 1.379 . S
C4066 H4050 0.931 . S
C4066 C4060 1.383 . S
C4066 C4065 1.379 . S
H4067 C4061 0.959 . S
H4068 C4061 0.961 . S
H4069 C4061 0.960 . S
H4070 C4062 0.930 . S
H4071 C4063 0.929 . S
H4072 C4080 0.929 . S
H4073 C4082 0.930 . S
H4074 C4084 0.930 . S
H4075 C4087 0.929 . S
H4076 C4090 0.930 . S
H4077 C4092 0.960 . S
H4078 C4092 0.960 . S
H4079 C4092 0.960 . S
C4080 H4072 0.929 . S
C4080 C4081 1.377 . S
C4080 C4082 1.384 . S
C4081 C4080 1.377 . S
C4081 C4087 1.390 . S
C4082 H4073 0.930 . S
C4082 C4080 1.384 . S
C4082 C4083 1.372 . S
C4083 C4082 1.372 . S
C4083 C4084 1.400 . S
C4083 C4088 1.490 . S
C4084 H4074 0.930 . S
C4084 C4083 1.400 . S
C4084 C4087 1.386 . S
H4085 C4101 0.930 . S
H4086 C4102 0.931 . S
C4087 H4075 0.929 . S
C4087 C4081 1.390 . S
C4087 C4084 1.386 . S
C4088 C4083 1.490 . S
C4088 C4090 1.395 . S
C4088 C4091 1.403 . S
H4089 C4095 0.930 . S
C4090 H4076 0.930 . S
C4090 C4088 1.395 . S
C4090 C4093 1.403 . S
C4091 C4088 1.403 . S
C4091 C4092 1.524 . S
C4091 C4095 1.400 . S
C4092 H4077 0.960 . S
C4092 H4078 0.960 . S
C4092 H4079 0.960 . S
C4092 C4091 1.524 . S
C4093 C4090 1.403 . S
C4093 C4094 1.392 . S
C4093 C4097 1.495 . S
C4094 C4093 1.392 . S
C4094 C4095 1.385 . S
C4094 C4096 1.478 . S
C4095 H4089 0.930 . S
C4095 C4091 1.400 . S
C4095 C4094 1.385 . S
C4096 C4094 1.478 . S
C4096 C4098 1.381 . S
C4096 C4102 1.383 . S
C4097 C4093 1.495 . S
C4097 H4103 0.959 . S
C4097 H4104 0.961 . S
C4097 H4105 0.960 . S
C4098 C4096 1.381 . S
C4098 C4099 1.394 . S
C4098 H4106 0.930 . S
C4099 C4098 1.394 . S
C4099 C4100 1.383 . S
C4099 H4107 0.929 . S
C4100 C4099 1.383 . S
C4100 C4101 1.377 . S
C4101 H4085 0.930 . S
C4101 C4100 1.377 . S
C4101 C4102 1.379 . S
C4102 H4086 0.931 . S
C4102 C4096 1.383 . S
C4102 C4101 1.379 . S
H4103 C4097 0.959 . S
H4104 C4097 0.961 . S
H4105 C4097 0.960 . S
H4106 C4098 0.930 . S
H4107 C4099 0.929 . S
H4108 C4116 0.929 . S
H4109 C4118 0.930 . S
H4110 C4120 0.930 . S
H4111 C4123 0.929 . S
H4112 C4126 0.930 . S
H4113 C4128 0.960 . S
H4114 C4128 0.960 . S
H4115 C4128 0.960 . S
C4116 H4108 0.929 . S
C4116 C4117 1.377 . S
C4116 C4118 1.384 . S
C4117 C4116 1.377 . S
C4117 C4123 1.390 . S
C4118 H4109 0.930 . S
C4118 C4116 1.384 . S
C4118 C4119 1.372 . S
C4119 C4118 1.372 . S
C4119 C4120 1.400 . S
C4119 C4124 1.490 . S
C4120 H4110 0.930 . S
C4120 C4119 1.400 . S
C4120 C4123 1.386 . S
H4121 C4137 0.930 . S
H4122 C4138 0.931 . S
C4123 H4111 0.929 . S
C4123 C4117 1.390 . S
C4123 C4120 1.386 . S
C4124 C4119 1.490 . S
C4124 C4126 1.395 . S
C4124 C4127 1.403 . S
H4125 C4131 0.930 . S
C4126 H4112 0.930 . S
C4126 C4124 1.395 . S
C4126 C4129 1.403 . S
C4127 C4124 1.403 . S
C4127 C4128 1.524 . S
C4127 C4131 1.400 . S
C4128 H4113 0.960 . S
C4128 H4114 0.960 . S
C4128 H4115 0.960 . S
C4128 C4127 1.524 . S
C4129 C4126 1.403 . S
C4129 C4130 1.392 . S
C4129 C4133 1.495 . S
C4130 C4129 1.392 . S
C4130 C4131 1.385 . S
C4130 C4132 1.478 . S
C4131 H4125 0.930 . S
C4131 C4127 1.400 . S
C4131 C4130 1.385 . S
C4132 C4130 1.478 . S
C4132 C4134 1.381 . S
C4132 C4138 1.383 . S
C4133 C4129 1.495 . S
C4133 H4139 0.959 . S
C4133 H4140 0.961 . S
C4133 H4141 0.960 . S
C4134 C4132 1.381 . S
C4134 C4135 1.394 . S
C4134 H4142 0.930 . S
C4135 C4134 1.394 . S
C4135 C4136 1.383 . S
C4135 H4143 0.929 . S
C4136 C4135 1.383 . S
C4136 C4137 1.377 . S
C4137 H4121 0.930 . S
C4137 C4136 1.377 . S
C4137 C4138 1.379 . S
C4138 H4122 0.931 . S
C4138 C4132 1.383 . S
C4138 C4137 1.379 . S
H4139 C4133 0.959 . S
H4140 C4133 0.961 . S
H4141 C4133 0.960 . S
H4142 C4134 0.930 . S
H4143 C4135 0.929 . S
H4144 C4152 0.929 . S
H4145 C4154 0.930 . S
H4146 C4156 0.930 . S
H4147 C4159 0.929 . S
H4148 C4162 0.930 . S
H4149 C4164 0.960 . S
H4150 C4164 0.960 . S
H4151 C4164 0.960 . S
C4152 H4144 0.929 . S
C4152 C4153 1.377 . S
C4152 C4154 1.384 . S
C4153 C4152 1.377 . S
C4153 C4159 1.390 . S
C4154 H4145 0.930 . S
C4154 C4152 1.384 . S
C4154 C4155 1.372 . S
C4155 C4154 1.372 . S
C4155 C4156 1.400 . S
C4155 C4160 1.490 . S
C4156 H4146 0.930 . S
C4156 C4155 1.400 . S
C4156 C4159 1.386 . S
H4157 C4173 0.930 . S
H4158 C4174 0.931 . S
C4159 H4147 0.929 . S
C4159 C4153 1.390 . S
C4159 C4156 1.386 . S
C4160 C4155 1.490 . S
C4160 C4162 1.395 . S
C4160 C4163 1.403 . S
H4161 C4167 0.930 . S
C4162 H4148 0.930 . S
C4162 C4160 1.395 . S
C4162 C4165 1.403 . S
C4163 C4160 1.403 . S
C4163 C4164 1.524 . S
C4163 C4167 1.400 . S
C4164 H4149 0.960 . S
C4164 H4150 0.960 . S
C4164 H4151 0.960 . S
C4164 C4163 1.524 . S
C4165 C4162 1.403 . S
C4165 C4166 1.392 . S
C4165 C4169 1.495 . S
C4166 C4165 1.392 . S
C4166 C4167 1.385 . S
C4166 C4168 1.478 . S
C4167 H4161 0.930 . S
C4167 C4163 1.400 . S
C4167 C4166 1.385 . S
C4168 C4166 1.478 . S
C4168 C4170 1.381 . S
C4168 C4174 1.383 . S
C4169 C4165 1.495 . S
C4169 H4175 0.959 . S
C4169 H4176 0.961 . S
C4169 H4177 0.960 . S
C4170 C4168 1.381 . S
C4170 C4171 1.394 . S
C4170 H4178 0.930 . S
C4171 C4170 1.394 . S
C4171 C4172 1.383 . S
C4171 H4179 0.929 . S
C4172 C4171 1.383 . S
C4172 C4173 1.377 . S
C4173 H4157 0.930 . S
C4173 C4172 1.377 . S
C4173 C4174 1.379 . S
C4174 H4158 0.931 . S
C4174 C4168 1.383 . S
C4174 C4173 1.379 . S
H4175 C4169 0.959 . S
H4176 C4169 0.961 . S
H4177 C4169 0.960 . S
H4178 C4170 0.930 . S
H4179 C4171 0.929 . S
H4180 C4188 0.929 . S
H4181 C4190 0.930 . S
H4182 C4192 0.930 . S
H4183 C4195 0.929 . S
H4184 C4198 0.930 . S
H4185 C4200 0.960 . S
H4186 C4200 0.960 . S
H4187 C4200 0.960 . S
C4188 H4180 0.929 . S
C4188 C4189 1.377 . S
C4188 C4190 1.384 . S
C4189 C4188 1.377 . S
C4189 C4195 1.390 . S
C4190 H4181 0.930 . S
C4190 C4188 1.384 . S
C4190 C4191 1.372 . S
C4191 C4190 1.372 . S
C4191 C4192 1.400 . S
C4191 C4196 1.490 . S
C4192 H4182 0.930 . S
C4192 C4191 1.400 . S
C4192 C4195 1.386 . S
H4193 C4209 0.930 . S
H4194 C4210 0.931 . S
C4195 H4183 0.929 . S
C4195 C4189 1.390 . S
C4195 C4192 1.386 . S
C4196 C4191 1.490 . S
C4196 C4198 1.395 . S
C4196 C4199 1.403 . S
H4197 C4203 0.930 . S
C4198 H4184 0.930 . S
C4198 C4196 1.395 . S
C4198 C4201 1.403 . S
C4199 C4196 1.403 . S
C4199 C4200 1.524 . S
C4199 C4203 1.400 . S
C4200 H4185 0.960 . S
C4200 H4186 0.960 . S
C4200 H4187 0.960 . S
C4200 C4199 1.524 . S
C4201 C4198 1.403 . S
C4201 C4202 1.392 . S
C4201 C4205 1.495 . S
C4202 C4201 1.392 . S
C4202 C4203 1.385 . S
C4202 C4204 1.478 . S
C4203 H4197 0.930 . S
C4203 C4199 1.400 . S
C4203 C4202 1.385 . S
C4204 C4202 1.478 . S
C4204 C4206 1.381 1_565 S
C4204 C4210 1.383 . S
C4205 C4201 1.495 . S
C4205 H4211 0.959 . S
C4205 H4212 0.961 . S
C4205 H4213 0.960 . S
C4206 C4204 1.381 1_545 S
C4206 C4207 1.394 . S
C4206 H4214 0.930 . S
C4207 C4206 1.394 . S
C4207 C4208 1.383 . S
C4207 H4215 0.929 . S
C4208 C4207 1.383 . S
C4208 C4209 1.377 1_545 S
C4209 H4193 0.930 . S
C4209 C4208 1.377 1_565 S
C4209 C4210 1.379 . S
C4210 H4194 0.931 . S
C4210 C4204 1.383 . S
C4210 C4209 1.379 . S
H4211 C4205 0.959 . S
H4212 C4205 0.961 . S
H4213 C4205 0.960 . S
H4214 C4206 0.930 . S
H4215 C4207 0.929 . S
H4216 C4224 0.929 . S
H4217 C4226 0.930 . S
H4218 C4228 0.930 . S
H4219 C4231 0.929 . S
H4220 C4234 0.930 . S
H4221 C4236 0.960 . S
H4222 C4236 0.960 . S
H4223 C4236 0.960 . S
C4224 H4216 0.929 . S
C4224 C4225 1.377 . S
C4224 C4226 1.384 . S
C4225 C4224 1.377 . S
C4225 C4231 1.390 . S
C4226 H4217 0.930 . S
C4226 C4224 1.384 . S
C4226 C4227 1.372 . S
C4227 C4226 1.372 . S
C4227 C4228 1.400 . S
C4227 C4232 1.490 . S
C4228 H4218 0.930 . S
C4228 C4227 1.400 . S
C4228 C4231 1.386 . S
H4229 C4245 0.930 . S
H4230 C4246 0.931 . S
C4231 H4219 0.929 . S
C4231 C4225 1.390 . S
C4231 C4228 1.386 . S
C4232 C4227 1.490 . S
C4232 C4234 1.395 . S
C4232 C4235 1.403 . S
H4233 C4239 0.930 . S
C4234 H4220 0.930 . S
C4234 C4232 1.395 . S
C4234 C4237 1.403 . S
C4235 C4232 1.403 . S
C4235 C4236 1.524 . S
C4235 C4239 1.400 . S
C4236 H4221 0.960 . S
C4236 H4222 0.960 . S
C4236 H4223 0.960 . S
C4236 C4235 1.524 . S
C4237 C4234 1.403 . S
C4237 C4238 1.392 . S
C4237 C4241 1.495 . S
C4238 C4237 1.392 . S
C4238 C4239 1.385 . S
C4238 C4240 1.478 . S
C4239 H4233 0.930 . S
C4239 C4235 1.400 . S
C4239 C4238 1.385 . S
C4240 C4238 1.478 . S
C4240 C4242 1.381 . S
C4240 C4246 1.383 . S
C4241 C4237 1.495 . S
C4241 H4247 0.959 . S
C4241 H4248 0.961 . S
C4241 H4249 0.960 . S
C4242 C4240 1.381 . S
C4242 C4243 1.394 . S
C4242 H4250 0.930 . S
C4243 C4242 1.394 . S
C4243 C4244 1.383 . S
C4243 H4251 0.929 . S
C4244 C4243 1.383 . S
C4244 C4245 1.377 . S
C4245 H4229 0.930 . S
C4245 C4244 1.377 . S
C4245 C4246 1.379 . S
C4246 H4230 0.931 . S
C4246 C4240 1.383 . S
C4246 C4245 1.379 . S
H4247 C4241 0.959 . S
H4248 C4241 0.961 . S
H4249 C4241 0.960 . S
H4250 C4242 0.930 . S
H4251 C4243 0.929 . S
H4252 C4260 0.929 . S
H4253 C4262 0.930 . S
H4254 C4264 0.930 . S
H4255 C4267 0.929 . S
H4256 C4270 0.930 . S
H4257 C4272 0.960 . S
H4258 C4272 0.960 . S
H4259 C4272 0.960 . S
C4260 H4252 0.929 . S
C4260 C4261 1.377 . S
C4260 C4262 1.384 . S
C4261 C4260 1.377 . S
C4261 C4267 1.390 1_554 S
C4262 H4253 0.930 . S
C4262 C4260 1.384 . S
C4262 C4263 1.372 . S
C4263 C4262 1.372 . S
C4263 C4264 1.400 1_554 S
C4263 C4268 1.490 . S
C4264 H4254 0.930 . S
C4264 C4263 1.400 1_556 S
C4264 C4267 1.386 . S
H4265 C4281 0.930 1_556 S
H4266 C4282 0.931 1_556 S
C4267 H4255 0.929 . S
C4267 C4261 1.390 1_556 S
C4267 C4264 1.386 . S
C4268 C4263 1.490 . S
C4268 C4270 1.395 . S
C4268 C4271 1.403 . S
H4269 C4275 0.930 . S
C4270 H4256 0.930 . S
C4270 C4268 1.395 . S
C4270 C4273 1.403 . S
C4271 C4268 1.403 . S
C4271 C4272 1.524 . S
C4271 C4275 1.400 . S
C4272 H4257 0.960 . S
C4272 H4258 0.960 . S
C4272 H4259 0.960 . S
C4272 C4271 1.524 . S
C4273 C4270 1.403 . S
C4273 C4274 1.392 . S
C4273 C4277 1.495 . S
C4274 C4273 1.392 . S
C4274 C4275 1.385 . S
C4274 C4276 1.478 . S
C4275 H4269 0.930 . S
C4275 C4271 1.400 . S
C4275 C4274 1.385 . S
C4276 C4274 1.478 . S
C4276 C4278 1.381 . S
C4276 C4282 1.383 . S
C4277 C4273 1.495 . S
C4277 H4283 0.959 . S
C4277 H4284 0.961 . S
C4277 H4285 0.960 . S
C4278 C4276 1.381 . S
C4278 C4279 1.394 . S
C4278 H4286 0.930 . S
C4279 C4278 1.394 . S
C4279 C4280 1.383 . S
C4279 H4287 0.929 . S
C4280 C4279 1.383 . S
C4280 C4281 1.377 . S
C4281 H4265 0.930 1_554 S
C4281 C4280 1.377 . S
C4281 C4282 1.379 . S
C4282 H4266 0.931 1_554 S
C4282 C4276 1.383 . S
C4282 C4281 1.379 . S
H4283 C4277 0.959 . S
H4284 C4277 0.961 . S
H4285 C4277 0.960 . S
H4286 C4278 0.930 . S
H4287 C4279 0.929 . S
H4288 C4296 0.929 . S
H4289 C4298 0.930 . S
H4290 C4300 0.930 . S
H4291 C4303 0.929 . S
H4292 C4306 0.930 . S
H4293 C4308 0.960 . S
H4294 C4308 0.960 . S
H4295 C4308 0.960 . S
C4296 H4288 0.929 . S
C4296 C4297 1.377 . S
C4296 C4298 1.384 . S
C4297 C4296 1.377 . S
C4297 C4303 1.390 . S
C4298 H4289 0.930 . S
C4298 C4296 1.384 . S
C4298 C4299 1.372 . S
C4299 C4298 1.372 . S
C4299 C4300 1.400 . S
C4299 C4304 1.490 . S
C4300 H4290 0.930 . S
C4300 C4299 1.400 . S
C4300 C4303 1.386 . S
H4301 C4317 0.930 . S
H4302 C4318 0.931 . S
C4303 H4291 0.929 . S
C4303 C4297 1.390 . S
C4303 C4300 1.386 . S
C4304 C4299 1.490 . S
C4304 C4306 1.395 . S
C4304 C4307 1.403 . S
H4305 C4311 0.930 . S
C4306 H4292 0.930 . S
C4306 C4304 1.395 . S
C4306 C4309 1.403 . S
C4307 C4304 1.403 . S
C4307 C4308 1.524 . S
C4307 C4311 1.400 . S
C4308 H4293 0.960 . S
C4308 H4294 0.960 . S
C4308 H4295 0.960 . S
C4308 C4307 1.524 . S
C4309 C4306 1.403 . S
C4309 C4310 1.392 . S
C4309 C4313 1.495 . S
C4310 C4309 1.392 . S
C4310 C4311 1.385 . S
C4310 C4312 1.478 . S
C4311 H4305 0.930 . S
C4311 C4307 1.400 . S
C4311 C4310 1.385 . S
C4312 C4310 1.478 . S
C4312 C4314 1.381 . S
C4312 C4318 1.383 . S
C4313 C4309 1.495 . S
C4313 H4319 0.959 . S
C4313 H4320 0.961 . S
C4313 H4321 0.960 . S
C4314 C4312 1.381 . S
C4314 C4315 1.394 . S
C4314 H4322 0.930 . S
C4315 C4314 1.394 . S
C4315 C4316 1.383 . S
C4315 H4323 0.929 . S
C4316 C4315 1.383 . S
C4316 C4317 1.377 . S
C4317 H4301 0.930 . S
C4317 C4316 1.377 . S
C4317 C4318 1.379 . S
C4318 H4302 0.931 . S
C4318 C4312 1.383 . S
C4318 C4317 1.379 . S
H4319 C4313 0.959 . S
H4320 C4313 0.961 . S
H4321 C4313 0.960 . S
H4322 C4314 0.930 . S
H4323 C4315 0.929 . S
H4324 C4332 0.929 . S
H4325 C4334 0.930 . S
H4326 C4336 0.930 . S
H4327 C4339 0.929 . S
H4328 C4342 0.930 . S
H4329 C4344 0.960 . S
H4330 C4344 0.960 1_556 S
H4331 C4344 0.960 . S
C4332 H4324 0.929 . S
C4332 C4333 1.377 . S
C4332 C4334 1.384 . S
C4333 C4332 1.377 . S
C4333 C4339 1.390 . S
C4334 H4325 0.930 . S
C4334 C4332 1.384 . S
C4334 C4335 1.372 . S
C4335 C4334 1.372 . S
C4335 C4336 1.400 . S
C4335 C4340 1.490 . S
C4336 H4326 0.930 . S
C4336 C4335 1.400 . S
C4336 C4339 1.386 . S
H4337 C4353 0.930 . S
H4338 C4354 0.931 . S
C4339 H4327 0.929 . S
C4339 C4333 1.390 . S
C4339 C4336 1.386 . S
C4340 C4335 1.490 . S
C4340 C4342 1.395 . S
C4340 C4343 1.403 . S
H4341 C4347 0.930 . S
C4342 H4328 0.930 . S
C4342 C4340 1.395 . S
C4342 C4345 1.403 . S
C4343 C4340 1.403 . S
C4343 C4344 1.524 . S
C4343 C4347 1.400 . S
C4344 H4329 0.960 . S
C4344 H4330 0.960 1_554 S
C4344 H4331 0.960 . S
C4344 C4343 1.524 . S
C4345 C4342 1.403 . S
C4345 C4346 1.392 . S
C4345 C4349 1.495 . S
C4346 C4345 1.392 . S
C4346 C4347 1.385 . S
C4346 C4348 1.478 . S
C4347 H4341 0.930 . S
C4347 C4343 1.400 . S
C4347 C4346 1.385 . S
C4348 C4346 1.478 . S
C4348 C4350 1.381 . S
C4348 C4354 1.383 . S
C4349 C4345 1.495 . S
C4349 H4355 0.959 . S
C4349 H4356 0.961 . S
C4349 H4357 0.960 . S
C4350 C4348 1.381 . S
C4350 C4351 1.394 1_554 S
C4350 H4358 0.930 1_554 S
C4351 C4350 1.394 1_556 S
C4351 C4352 1.383 1_556 S
C4351 H4359 0.929 . S
C4352 C4351 1.383 1_554 S
C4352 C4353 1.377 . S
C4353 H4337 0.930 . S
C4353 C4352 1.377 . S
C4353 C4354 1.379 . S
C4354 H4338 0.931 . S
C4354 C4348 1.383 . S
C4354 C4353 1.379 . S
H4355 C4349 0.959 . S
H4356 C4349 0.961 . S
H4357 C4349 0.960 . S
H4358 C4350 0.930 1_556 S
H4359 C4351 0.929 . S
H4360 C4368 0.929 . S
H4361 C4370 0.930 . S
H4362 C4372 0.930 . S
H4363 C4375 0.929 . S
H4364 C4378 0.930 . S
H4365 C4380 0.960 . S
H4366 C4380 0.960 . S
H4367 C4380 0.960 . S
C4368 H4360 0.929 . S
C4368 C4369 1.377 . S
C4368 C4370 1.384 . S
C4369 C4368 1.377 . S
C4369 C4375 1.390 . S
C4370 H4361 0.930 . S
C4370 C4368 1.384 . S
C4370 C4371 1.372 . S
C4371 C4370 1.372 . S
C4371 C4372 1.400 . S
C4371 C4376 1.490 . S
C4372 H4362 0.930 . S
C4372 C4371 1.400 . S
C4372 C4375 1.386 . S
H4373 C4389 0.930 . S
H4374 C4390 0.931 . S
C4375 H4363 0.929 . S
C4375 C4369 1.390 . S
C4375 C4372 1.386 . S
C4376 C4371 1.490 . S
C4376 C4378 1.395 . S
C4376 C4379 1.403 . S
H4377 C4383 0.930 . S
C4378 H4364 0.930 . S
C4378 C4376 1.395 . S
C4378 C4381 1.403 . S
C4379 C4376 1.403 . S
C4379 C4380 1.524 . S
C4379 C4383 1.400 . S
C4380 H4365 0.960 . S
C4380 H4366 0.960 . S
C4380 H4367 0.960 . S
C4380 C4379 1.524 . S
C4381 C4378 1.403 . S
C4381 C4382 1.392 . S
C4381 C4385 1.495 . S
C4382 C4381 1.392 . S
C4382 C4383 1.385 . S
C4382 C4384 1.478 . S
C4383 H4377 0.930 . S
C4383 C4379 1.400 . S
C4383 C4382 1.385 . S
C4384 C4382 1.478 . S
C4384 C4386 1.381 . S
C4384 C4390 1.383 . S
C4385 C4381 1.495 . S
C4385 H4391 0.959 . S
C4385 H4392 0.961 . S
C4385 H4393 0.960 . S
C4386 C4384 1.381 . S
C4386 C4387 1.394 . S
C4386 H4394 0.930 . S
C4387 C4386 1.394 . S
C4387 C4388 1.383 . S
C4387 H4395 0.929 . S
C4388 C4387 1.383 . S
C4388 C4389 1.377 . S
C4389 H4373 0.930 . S
C4389 C4388 1.377 . S
C4389 C4390 1.379 . S
C4390 H4374 0.931 . S
C4390 C4384 1.383 . S
C4390 C4389 1.379 . S
H4391 C4385 0.959 . S
H4392 C4385 0.961 . S
H4393 C4385 0.960 . S
H4394 C4386 0.930 . S
H4395 C4387 0.929 . S
H4396 C4404 0.929 . S
H4397 C4406 0.930 . S
H4398 C4408 0.930 . S
H4399 C4411 0.929 . S
H4400 C4414 0.930 . S
H4401 C4416 0.960 . S
H4402 C4416 0.960 . S
H4403 C4416 0.960 . S
C4404 H4396 0.929 . S
C4404 C4405 1.377 . S
C4404 C4406 1.384 . S
C4405 C4404 1.377 . S
C4405 C4411 1.390 . S
C4406 H4397 0.930 . S
C4406 C4404 1.384 . S
C4406 C4407 1.372 . S
C4407 C4406 1.372 . S
C4407 C4408 1.400 . S
C4407 C4412 1.490 . S
C4408 H4398 0.930 . S
C4408 C4407 1.400 . S
C4408 C4411 1.386 . S
H4409 C4425 0.930 . S
H4410 C4426 0.931 . S
C4411 H4399 0.929 . S
C4411 C4405 1.390 . S
C4411 C4408 1.386 . S
C4412 C4407 1.490 . S
C4412 C4414 1.395 . S
C4412 C4415 1.403 . S
H4413 C4419 0.930 . S
C4414 H4400 0.930 . S
C4414 C4412 1.395 . S
C4414 C4417 1.403 . S
C4415 C4412 1.403 . S
C4415 C4416 1.524 . S
C4415 C4419 1.400 . S
C4416 H4401 0.960 . S
C4416 H4402 0.960 . S
C4416 H4403 0.960 . S
C4416 C4415 1.524 . S
C4417 C4414 1.403 . S
C4417 C4418 1.392 . S
C4417 C4421 1.495 . S
C4418 C4417 1.392 . S
C4418 C4419 1.385 . S
C4418 C4420 1.478 . S
C4419 H4413 0.930 . S
C4419 C4415 1.400 . S
C4419 C4418 1.385 . S
C4420 C4418 1.478 . S
C4420 C4422 1.381 . S
C4420 C4426 1.383 . S
C4421 C4417 1.495 . S
C4421 H4427 0.959 . S
C4421 H4428 0.961 . S
C4421 H4429 0.960 . S
C4422 C4420 1.381 . S
C4422 C4423 1.394 . S
C4422 H4430 0.930 . S
C4423 C4422 1.394 . S
C4423 C4424 1.383 . S
C4423 H4431 0.929 . S
C4424 C4423 1.383 . S
C4424 C4425 1.377 . S
C4425 H4409 0.930 . S
C4425 C4424 1.377 . S
C4425 C4426 1.379 . S
C4426 H4410 0.931 . S
C4426 C4420 1.383 . S
C4426 C4425 1.379 . S
H4427 C4421 0.959 . S
H4428 C4421 0.961 . S
H4429 C4421 0.960 . S
H4430 C4422 0.930 . S
H4431 C4423 0.929 . S
C985 C106 2.562 . S
C1004 C346 2.548 . S
C1021 C65 2.004 . S
C1040 C394 1.980 . S
C1057 C79 1.448 . S
C1076 C426 1.371 . S
C1112 C471 1.154 . S
C1093 C90 1.132 . S
C1129 C21 0.947 . S
C1148 C511 0.973 . S
C1184 C542 0.463 . S
C1165 C35 0.443 . S
C1220 C594 1.148 . S
C1201 C50 1.166 . S
C1237 C6 1.757 . S
C1256 C626 1.711 . S
C1292 C354 2.651 . S
C1273 C232 2.662 . S
C1309 C245 0.438 . S
C1328 C391 0.297 . S
C1364 C434 1.378 . S
C1345 C274 1.385 . S
C1400 C466 1.188 . S
C1381 C175 1.173 . S
C1417 C231 1.497 . S
C1436 C506 1.528 . S
C1472 C545 1.408 . S
C1453 C246 1.416 . S
C1508 C591 0.368 . S
C1489 C273 0.395 . S
C1544 C634 2.150 . S
C1525 C176 2.150 . S
C1580 C351 1.457 . S
C1561 C160 1.435 . S
C1597 C289 1.967 . S
C1616 C674 1.959 . S
C1652 C715 2.655 . S
C1633 C328 2.662 . S
C1688 C746 0.727 1_655 S
C1669 C317 0.760 . S
C1705 C118 1.352 . S
C1724 C631 1.374 . S
C1741 C132 1.536 . S
C1760 C431 1.580 . S
C1777 C331 2.379 . S
C1796 C794 2.360 . S
C1832 C826 0.659 . S
C1813 C303 0.718 . S
C1868 C355 2.052 1_565 S
C1849 C63 2.088 . S
C1904 C825 2.494 . S
C1885 C107 2.460 . S
C1921 C92 1.198 . S
C1940 C435 1.213 . S
C1957 C78 1.719 . S
C1976 C782 1.715 . S
C2012 C502 1.453 . S
C1993 C8 1.465 . S
C2029 C51 0.496 . S
C2048 C711 0.498 . S
C2084 C585 1.675 1_566 S
C2065 C37 1.614 . S
C2120 C875 1.606 . S
C2101 C20 1.643 . S
C2156 C345 2.468 . S
C2137 C147 2.439 . S
C2192 C822 0.405 . S
C2173 C316 0.411 . S
C2209 C119 1.269 . S
C2228 C425 1.310 . S
C2245 C288 1.328 . S
C2264 C795 1.332 . S
C2281 C148 1.955 1_545 S
C2300 C515 1.937 . S
C2336 C714 1.374 . S
C2317 C315 1.378 . S
C2353 C120 0.291 . S
C2372 C582 0.383 . S
C2389 C287 2.002 . S
C2408 C865 2.016 . S
C2425 C188 1.299 . S
C2444 C342 1.298 . S
C2461 C177 2.330 . S
C2480 C665 2.345 . S
C2497 C258 2.773 . S
C2516 C546 2.787 . S
C2533 C247 0.779 . S
C2552 C755 0.807 . S
C2588 C862 1.151 . S
C2569 C272 1.150 . S
C2605 C216 1.306 . S
C2624 C422 1.348 . S
C2660 C465 2.618 . S
C2641 C261 2.621 . S
C2696 C395 0.694 . S
C2677 C205 0.681 . S
C2713 C76 2.147 . S
C2732 C906 2.125 . S
C2768 C834 2.089 . S
C2749 C93 2.111 . S
C2785 C105 1.002 . S
C2804 C946 0.937 . S
C2821 C62 1.164 . S
C2840 C791 1.191 . S
C2857 C49 0.930 . S
C2876 C671 0.906 . S
C2912 C702 0.709 . S
C2893 C9 0.736 . S
C2948 C754 1.081 . S
C2929 C22 1.067 . S
C2984 C866 2.100 . S
C2965 C36 2.180 . S
C3020 C914 2.585 . S
C3001 C260 2.588 . S
C3037 C189 0.400 . S
C3056 C831 0.296 . S
C3092 C954 1.253 . S
C3073 C204 1.254 . S
C3128 C786 0.966 . S
C3109 C217 0.996 . S
C3164 C666 1.795 . S
C3145 C259 1.794 . S
C3181 C190 1.526 . S
C3200 C705 1.520 . S
C3236 C751 0.340 . S
C3217 C203 0.388 . S
C3253 C218 2.256 . S
C3272 C874 2.270 . S
C3308 C911 1.385 . S
C3289 C314 1.396 . S
C3325 C135 2.059 . S
C3344 C514 2.044 . S
C3380 C555 2.528 . S
C3361 C146 2.534 . S
C3416 C586 0.758 . S
C3397 C163 0.776 . S
C3452 C871 1.434 . S
C3433 C300 1.383 . S
C3469 C286 1.482 . S
C3488 C951 1.528 . S
C3524 C474 2.244 . S
C3505 C149 2.267 . S
C3560 C386 0.742 . S
C3541 C121 0.654 . S
C3577 C91 2.073 . S
C3596 C915 2.057 . S
C3632 C385 2.059 . S
C3613 C77 1.983 . S
C3649 C64 1.165 . S
C3668 C955 1.191 . S
C3685 C104 1.336 . S
C3704 C462 1.363 . S
C3721 C34 1.037 . S
C3740 C662 1.046 . S
C3776 C551 0.436 . S
C3757 C23 0.478 . S
C3793 C7 1.179 . S
C3812 C745 1.260 . S
C3829 C48 1.620 . S
C3848 C635 1.594 . S
C3884 C905 2.434 . S
C3865 C329 2.407 . S
C3901 C162 0.425 . S
C3920 C382 0.463 . S
C3956 C945 1.256 1_556 S
C3937 C301 1.282 . S
C3973 C134 1.341 . S
C3992 C475 1.358 . S
C4009 C330 1.928 . S
C4028 C675 1.886 . S
C4064 C554 1.435 . S
C4045 C161 1.414 . S
C4081 C302 0.316 . S
C4100 C742 0.387 . S
C4136 C625 1.974 . S
C4117 C133 1.977 . S
C4172 C902 1.483 . S
C4153 C244 1.494 . S
C4208 C505 2.266 1_655 S
C4189 C219 2.250 . S
C4225 C230 2.403 . S
C4244 C706 2.410 . S
C4280 C595 0.746 . S
C4261 C191 0.775 . S
C4297 C202 1.326 . S
C4316 C622 1.347 . S
C4333 C174 1.542 . S
C4352 C942 1.556 . S
C4388 C785 2.593 . S
C4369 C233 2.582 1_565 S
C4424 C835 0.733 . S
C4405 C275 0.672 . S
