# Generated by pormake.
# Topology ssa, (4,4)-cn, num edge types: 1
# Building blocks:
#     Node 0, Type 0, BuildingBlock: NAWXER_clean_sbu_0, # of connection points: 4
#     Node 1, Type 0, BuildingBlock: NAWXER_clean_sbu_0, # of connection points: 4
#     Node 2, Type 0, BuildingBlock: NAWXER_clean_sbu_0, # of connection points: 4
#     Node 3, Type 0, BuildingBlock: NAWXER_clean_sbu_0, # of connection points: 4
#     Node 4, Type 0, BuildingBlock: NAWXER_clean_sbu_0, # of connection points: 4
#     Node 5, Type 0, BuildingBlock: NAWXER_clean_sbu_0, # of connection points: 4
#     Node 6, Type 1, BuildingBlock: MUDLON_clean_sbu_0, # of connection points: 4
#     Node 7, Type 1, BuildingBlock: MUDLON_clean_sbu_0, # of connection points: 4
#     Node 8, Type 1, BuildingBlock: MUDLON_clean_sbu_0, # of connection points: 4
#     Node 9, Type 1, BuildingBlock: MUDLON_clean_sbu_0, # of connection points: 4
#     Node 10, Type 1, BuildingBlock: MUDLON_clean_sbu_0, # of connection points: 4
#     Node 11, Type 1, BuildingBlock: MUDLON_clean_sbu_0, # of connection points: 4
#     Edge 12, Type (0, 1), BuildingBlock: MIFKUJ_clean_linker_0, # of connection points: 2
#     Edge 13, Type (0, 1), BuildingBlock: MIFKUJ_clean_linker_0, # of connection points: 2
#     Edge 14, Type (0, 1), BuildingBlock: MIFKUJ_clean_linker_0, # of connection points: 2
#     Edge 15, Type (0, 1), BuildingBlock: MIFKUJ_clean_linker_0, # of connection points: 2
#     Edge 16, Type (0, 1), BuildingBlock: MIFKUJ_clean_linker_0, # of connection points: 2
#     Edge 17, Type (0, 1), BuildingBlock: MIFKUJ_clean_linker_0, # of connection points: 2
#     Edge 18, Type (0, 1), BuildingBlock: MIFKUJ_clean_linker_0, # of connection points: 2
#     Edge 19, Type (0, 1), BuildingBlock: MIFKUJ_clean_linker_0, # of connection points: 2
#     Edge 20, Type (0, 1), BuildingBlock: MIFKUJ_clean_linker_0, # of connection points: 2
#     Edge 21, Type (0, 1), BuildingBlock: MIFKUJ_clean_linker_0, # of connection points: 2
#     Edge 22, Type (0, 1), BuildingBlock: MIFKUJ_clean_linker_0, # of connection points: 2
#     Edge 23, Type (0, 1), BuildingBlock: MIFKUJ_clean_linker_0, # of connection points: 2
#     Edge 24, Type (0, 1), BuildingBlock: MIFKUJ_clean_linker_0, # of connection points: 2
#     Edge 25, Type (0, 1), BuildingBlock: MIFKUJ_clean_linker_0, # of connection points: 2
#     Edge 26, Type (0, 1), BuildingBlock: MIFKUJ_clean_linker_0, # of connection points: 2
#     Edge 27, Type (0, 1), BuildingBlock: MIFKUJ_clean_linker_0, # of connection points: 2
#     Edge 28, Type (0, 1), BuildingBlock: MIFKUJ_clean_linker_0, # of connection points: 2
#     Edge 29, Type (0, 1), BuildingBlock: MIFKUJ_clean_linker_0, # of connection points: 2
#     Edge 30, Type (0, 1), BuildingBlock: MIFKUJ_clean_linker_0, # of connection points: 2
#     Edge 31, Type (0, 1), BuildingBlock: MIFKUJ_clean_linker_0, # of connection points: 2
#     Edge 32, Type (0, 1), BuildingBlock: MIFKUJ_clean_linker_0, # of connection points: 2
#     Edge 33, Type (0, 1), BuildingBlock: MIFKUJ_clean_linker_0, # of connection points: 2
#     Edge 34, Type (0, 1), BuildingBlock: MIFKUJ_clean_linker_0, # of connection points: 2
#     Edge 35, Type (0, 1), BuildingBlock: MIFKUJ_clean_linker_0, # of connection points: 2
# Relax obj value: 0.034
# Max RMSD: 0.048
# Mean RMSD: 0.037
data_MOF--net-ssa--node1-NAWXER_clean_sbu_0--node2-MUDLON_clean_sbu_0--edge1-MIFKUJ_clean_linker_0
_symmetry_space_group_name_H-M    P1
_symmetry_Int_Tables_number       1
_symmetry_cell_setting            triclinic
loop_
_symmetry_equiv_pos_as_xyz
'x, y, z'
_cell_length_a     55.372111
_cell_length_b     55.299347
_cell_length_c     51.347143
_cell_angle_alpha  90.252975
_cell_angle_beta   90.366881
_cell_angle_gamma 119.95434
loop_
_atom_site_label
_atom_site_type_symbol
_atom_site_fract_x
_atom_site_fract_y
_atom_site_fract_z
_atom_type_partial_charge
C0 C 0.05918 0.56377 0.02395 0.0
C1 C 0.01733 0.47691 0.97206 0.0
O2 O 0.03495 0.54518 0.03157 0.0
Zn3 Zn 0.00319 0.50365 0.02146 0.0
O4 O 0.06997 0.55854 0.00445 0.0
Zn5 Zn 0.03924 0.52078 0.99743 0.0
O6 O 0.00671 0.5285 0.98452 0.0
O7 O 0.97197 0.50884 0.01218 0.0
O8 O 0.0409 0.49864 0.96848 0.0
O9 O 0.00208 0.47653 0.99093 0.0
O10 O 0.00189 0.48347 0.05278 0.0
O11 O 0.0411 0.49871 0.03118 0.0
C12 C 0.98231 0.52292 0.99162 0.0
C13 C 0.02582 0.48573 0.05072 0.0
C14 C 0.50893 0.05308 0.52767 0.0
C15 C 0.54771 0.01128 0.46841 0.0
O16 O 0.50394 0.02872 0.5344 0.0
Zn17 Zn 0.51268 0.997 0.52143 0.0
O18 O 0.52313 0.06413 0.50731 0.0
Zn19 Zn 0.52957 0.03363 0.49781 0.0
O20 O 0.48869 1.00136 0.48692 0.0
O21 O 0.47555 0.96585 0.51354 0.0
O22 O 0.54999 0.03526 0.4664 0.0
O23 O 0.53494 0.99595 0.48794 0.0
O24 O 0.53475 0.99531 0.55037 0.0
O25 O 0.5562 0.03498 0.52901 0.0
C26 C 0.47048 0.97671 0.49396 0.0
C27 C 0.55592 0.01949 0.54767 0.0
C28 C 0.47313 0.45939 0.98937 0.0
C29 C 0.52281 0.53786 0.05035 0.0
O30 O 0.47559 0.48224 0.9806 0.0
Zn31 Zn 0.4936 0.52522 0.99366 0.0
O32 O 0.48262 0.45924 0.01194 0.0
Zn33 Zn 0.4982 0.49843 0.01998 0.0
O34 O 0.46201 0.50253 0.02563 0.0
O35 O 0.46241 0.53161 0.99605 0.0
O36 O 0.51769 0.51289 0.05299 0.0
O37 O 0.51537 0.54479 0.02927 0.0
O38 O 0.52108 0.54496 0.96744 0.0
O39 O 0.5304 0.51743 0.99123 0.0
C40 C 0.45113 0.51613 0.01562 0.0
C41 C 0.53652 0.53455 0.9723 0.0
C42 C 0.01736 0.53951 0.47186 0.0
C43 C 0.98376 0.46503 0.53589 0.0
O44 O 0.03185 0.54702 0.49297 0.0
Zn45 Zn 0.03323 0.52863 0.52914 0.0
O46 O 0.99682 0.51486 0.46964 0.0
Zn47 Zn 1.00085 0.50155 0.5033 0.0
O48 O 0.98985 0.52369 0.53135 0.0
O49 O 0.02755 0.55062 0.55485 0.0
O50 O 0.97484 0.46343 0.5127 0.0
O51 O 0.00535 0.48753 0.54379 0.0
O52 O 0.06932 0.53119 0.52767 0.0
O53 O 0.03931 0.50154 0.49886 0.0
C54 C 1.00175 0.54109 0.55021 0.0
C55 C 0.06382 0.51401 0.50902 0.0
C56 C 0.51115 0.96545 0.02616 0.0
C57 C 0.48834 0.03528 0.99619 0.0
O58 O 0.52373 0.9883 0.03931 0.0
Zn59 Zn 0.52538 0.02797 0.04073 0.0
O60 O 0.49541 0.96337 0.00712 0.0
Zn61 Zn 0.49922 0.99987 0.01122 0.0
O62 O 0.54136 0.02845 0.9998 0.0
O63 O 0.56416 0.0543 0.03404 0.0
O64 O 0.47825 0.01023 0.9883 0.0
O65 O 0.5054 0.04403 0.0156 0.0
O66 O 0.51049 0.02635 0.07538 0.0
O67 O 0.48003 0.99465 0.04826 0.0
C68 C 0.56378 0.04829 0.01004 0.0
C69 C 0.48648 0.00531 0.0712 0.0
C70 C 0.56735 0.54896 0.53216 0.0
C71 C 0.48342 0.49106 0.47966 0.0
O72 O 0.54534 0.54754 0.54179 0.0
Zn73 Zn 0.50144 0.52756 0.53263 0.0
O74 O 0.56553 0.53645 0.51078 0.0
Zn75 Zn 0.52562 0.51967 0.50578 0.0
O76 O 0.52021 0.55461 0.49672 0.0
O77 O 0.49444 0.55813 0.52748 0.0
O78 O 0.50808 0.49594 0.47559 0.0
O79 O 0.47843 0.50106 0.50019 0.0
O80 O 0.4857 0.50416 0.56267 0.0
O81 O 0.51019 0.49152 0.53819 0.0
C82 C 0.50753 0.56667 0.5062 0.0
C83 C 0.49567 0.48818 0.55863 0.0
Mg84 Mg 0.24214 0.46775 0.26762 0.0
C85 C 0.18158 0.44567 0.25069 0.0
O86 O 0.18147 0.45875 0.27204 0.0
C87 C 0.28714 0.45475 0.28334 0.0
O88 O 0.30041 0.4738 0.26561 0.0
C89 C 0.22049 0.47034 0.31771 0.0
O90 O 0.21363 0.44416 0.31382 0.0
O91 O 0.23424 0.48805 0.30017 0.0
O92 O 0.20299 0.44364 0.24558 0.0
O93 O 0.27038 0.49343 0.2371 0.0
C94 C 0.26962 0.47738 0.21886 0.0
O95 O 0.25316 0.45034 0.22156 0.0
O96 O 0.26134 0.44605 0.28694 0.0
Mg97 Mg 0.79867 0.22761 0.77112 0.0
C98 C 0.76171 0.18958 0.73096 0.0
O99 O 0.75612 0.21001 0.73247 0.0
C100 C 0.83962 0.2445 0.81616 0.0
O101 O 0.81608 0.23311 0.82896 0.0
C102 C 0.75752 0.19334 0.80937 0.0
O103 O 0.76687 0.17767 0.79944 0.0
O104 O 0.76699 0.21789 0.80054 0.0
O105 O 0.78059 0.19035 0.74585 0.0
O106 O 0.80794 0.26225 0.74523 0.0
C107 C 0.81757 0.26023 0.72339 0.0
O108 O 0.81992 0.23815 0.71864 0.0
O109 O 0.83872 0.24241 0.7914 0.0
Mg110 Mg 0.52653 0.76656 0.25951 0.0
C111 C 0.48984 0.78323 0.22671 0.0
O112 O 0.48255 0.7891 0.24913 0.0
C113 C 0.49515 0.73978 0.30891 0.0
O114 O 0.50335 0.76593 0.31474 0.0
C115 C 0.55162 0.82857 0.27372 0.0
O116 O 0.54539 0.83012 0.24929 0.0
O117 O 0.54817 0.80546 0.28223 0.0
O118 O 0.50564 0.7727 0.22649 0.0
O119 O 0.55182 0.7514 0.24074 0.0
C120 C 0.55104 0.72925 0.24874 0.0
O121 O 0.53901 0.71865 0.27105 0.0
O122 O 0.4996 0.73381 0.28616 0.0
Mg123 Mg 0.79005 0.5638 0.76339 0.0
C124 C 0.76539 0.5667 0.71509 0.0
O125 O 0.75677 0.54032 0.71992 0.0
C126 C 0.81808 0.58304 0.81564 0.0
O127 O 0.79173 0.57113 0.82215 0.0
C128 C 0.74138 0.56232 0.78659 0.0
O129 O 0.75439 0.5864 0.7746 0.0
O130 O 0.75115 0.54585 0.78486 0.0
O131 O 0.7828 0.58503 0.73093 0.0
O132 O 0.79986 0.53492 0.7436 0.0
C133 C 0.82113 0.53325 0.75029 0.0
O134 O 0.8338 0.54471 0.77242 0.0
O135 O 0.82419 0.58639 0.79154 0.0
Mg136 Mg 0.23616 0.78546 0.25888 0.0
C137 C 0.18742 0.76821 0.22111 0.0
O138 O 0.17292 0.75562 0.24184 0.0
C139 C 0.25558 0.81131 0.31034 0.0
O140 O 0.25043 0.78552 0.31272 0.0
C141 C 0.19188 0.74809 0.29426 0.0
O142 O 0.19309 0.77228 0.29726 0.0
O143 O 0.20858 0.74624 0.27849 0.0
O144 O 0.21346 0.78514 0.22368 0.0
O145 O 0.27481 0.79164 0.24178 0.0
C146 C 0.29849 0.80756 0.25235 0.0
O147 O 0.29959 0.8144 0.27701 0.0
O148 O 0.25033 0.8187 0.2885 0.0
Mg149 Mg 0.45948 0.24128 0.76564 0.0
C150 C 0.4684 0.21547 0.72137 0.0
O151 O 0.49268 0.23293 0.732 0.0
C152 C 0.42334 0.2422 0.8093 0.0
O153 O 0.42804 0.22275 0.8184 0.0
C154 C 0.4875 0.23175 0.81459 0.0
O155 O 0.49546 0.25762 0.82138 0.0
O156 O 0.47469 0.22207 0.79308 0.0
O157 O 0.44656 0.21324 0.73184 0.0
O158 O 0.48955 0.28088 0.74872 0.0
C159 C 0.49021 0.30336 0.75543 0.0
O160 O 0.47706 0.30355 0.77657 0.0
O161 O 0.43038 0.25042 0.78603 0.0
H162 H 0.07217 0.48037 0.04826 0.0
H163 H 0.09267 0.46583 0.08266 0.0
H164 H 0.02573 0.45214 0.13396 0.0
H165 H 0.00495 0.46673 0.09949 0.0
H166 H 0.07761 0.4838 0.15677 0.0
H167 H 0.0287 0.39725 0.10984 0.0
H168 H 0.0145 0.36695 0.0708 0.0
H169 H 0.0995 0.38843 0.05836 0.0
H170 H 0.1143 0.41921 0.09711 0.0
H171 H 0.12893 0.43668 0.25771 0.0
H172 H 0.0966 0.4351 0.22421 0.0
H173 H 0.15356 0.44057 0.1645 0.0
H174 H 0.18542 0.44094 0.19793 0.0
H175 H 0.10245 0.40955 0.14713 0.0
H176 H 0.15251 0.49946 0.18933 0.0
H177 H 0.16893 0.532 0.22683 0.0
H178 H 0.08433 0.50684 0.24625 0.0
H179 H 0.0674 0.47385 0.20905 0.0
C180 C 0.06159 0.47402 0.06676 0.0
C181 C 0.03689 0.47475 0.0711 0.0
C182 C 0.07331 0.46557 0.0864 0.0
C183 C 0.06066 0.45768 0.11086 0.0
C184 C 0.03581 0.45805 0.11521 0.0
C185 C 0.02391 0.4663 0.09545 0.0
C186 C 0.07433 0.45062 0.13222 0.0
C187 C 0.08252 0.46717 0.1549 0.0
C188 C 0.0815 0.42949 0.12945 0.0
C189 C 0.07263 0.41072 0.1063 0.0
C190 C 0.0444 0.39568 0.09869 0.0
C191 C 0.03624 0.37838 0.07662 0.0
C192 C 0.05609 0.37581 0.06208 0.0
C193 C 0.08415 0.39046 0.06963 0.0
C194 C 0.09243 0.40781 0.09167 0.0
C195 C 0.13427 0.43689 0.23742 0.0
C196 C 0.15985 0.43917 0.2305 0.0
C197 C 0.11585 0.4362 0.21826 0.0
C198 C 0.12296 0.43858 0.19179 0.0
C199 C 0.14763 0.43892 0.18476 0.0
C200 C 0.16585 0.43908 0.20393 0.0
C201 C 0.10586 0.44283 0.17168 0.0
C202 C 0.09719 0.4259 0.14918 0.0
C203 C 0.09854 0.46391 0.1744 0.0
C204 C 0.10869 0.48398 0.19659 0.0
C205 C 0.13741 0.50075 0.20169 0.0
C206 C 0.14681 0.51928 0.22288 0.0
C207 C 0.12769 0.52142 0.23896 0.0
C208 C 0.09912 0.50511 0.23381 0.0
C209 C 0.08961 0.48651 0.21267 0.0
H210 H 0.135 0.53576 0.25538 0.0
H211 H 0.04973 0.36244 0.04498 0.0
H212 H 0.60256 0.07085 0.5473 0.0
H213 H 0.64028 0.09121 0.5791 0.0
H214 H 0.60175 0.01461 0.62262 0.0
H215 H 0.56312 0.99408 0.59086 0.0
H216 H 0.61848 0.05747 0.65474 0.0
H217 H 0.66286 0.0352 0.58834 0.0
H218 H 0.67738 0.03172 0.54386 0.0
H219 H 0.72321 0.12109 0.53855 0.0
H220 H 0.70864 0.12514 0.58286 0.0
H221 H 0.74209 0.13329 0.73614 0.0
H222 H 0.71023 0.09597 0.70585 0.0
H223 H 0.7148 0.15807 0.65246 0.0
H224 H 0.74574 0.19502 0.68267 0.0
H225 H 0.71747 0.1122 0.62824 0.0
H226 H 0.66323 0.13148 0.69162 0.0
H227 H 0.64866 0.13409 0.73635 0.0
H228 H 0.62221 0.04748 0.74747 0.0
H229 H 0.637 0.04449 0.70288 0.0
C230 C 0.60209 0.0581 0.56345 0.0
C231 C 0.57974 0.03073 0.56642 0.0
C232 C 0.6239 0.06978 0.58161 0.0
C233 C 0.62426 0.05434 0.6031 0.0
C234 C 0.60208 0.0269 0.60612 0.0
C235 C 0.58004 0.01516 0.58791 0.0
C236 C 0.64712 0.06781 0.6229 0.0
C237 C 0.64018 0.06878 0.64902 0.0
C238 C 0.67554 0.08271 0.61561 0.0
C239 C 0.68454 0.08046 0.58894 0.0
C240 C 0.6759 0.05412 0.57764 0.0
C241 C 0.68416 0.05205 0.55245 0.0
C242 C 0.70119 0.07616 0.53838 0.0
C243 C 0.71003 0.10242 0.54948 0.0
C244 C 0.70181 0.10462 0.57466 0.0
C245 C 0.73666 0.13884 0.71769 0.0
C246 C 0.74627 0.16696 0.71171 0.0
C247 C 0.71842 0.11758 0.7005 0.0
C248 C 0.71011 0.12429 0.67694 0.0
C249 C 0.72098 0.15242 0.67046 0.0
C250 C 0.73858 0.1735 0.68778 0.0
C251 C 0.6886 0.1025 0.6596 0.0
C252 C 0.69583 0.10011 0.63398 0.0
C253 C 0.66054 0.08606 0.66739 0.0
C254 C 0.65156 0.08786 0.69409 0.0
C255 C 0.65455 0.11307 0.7037 0.0
C256 C 0.6462 0.1146 0.729 0.0
C257 C 0.63461 0.09099 0.74478 0.0
C258 C 0.63126 0.06577 0.73525 0.0
C259 C 0.63962 0.06414 0.70997 0.0
H260 H 0.62815 0.09222 0.76436 0.0
H261 H 0.70755 0.07451 0.51887 0.0
H262 H 0.54144 0.59372 0.04865 0.0
H263 H 0.55453 0.62632 0.08515 0.0
H264 H 0.54322 0.5613 0.13818 0.0
H265 H 0.52983 0.52828 0.10157 0.0
H266 H 0.51537 0.58747 0.1535 0.0
H267 H 0.6081 0.61593 0.12743 0.0
H268 H 0.64711 0.63075 0.09693 0.0
H269 H 0.64281 0.70418 0.07849 0.0
H270 H 0.60349 0.6896 0.1086 0.0
H271 H 0.55084 0.68073 0.25938 0.0
H272 H 0.55387 0.64883 0.22827 0.0
H273 H 0.5685 0.70681 0.16626 0.0
H274 H 0.56599 0.73908 0.19734 0.0
H275 H 0.59874 0.6821 0.15888 0.0
H276 H 0.5027 0.65131 0.17663 0.0
H277 H 0.46112 0.63682 0.20372 0.0
H278 H 0.46905 0.56876 0.23383 0.0
H279 H 0.51087 0.58304 0.20707 0.0
C280 C 0.5422 0.58639 0.068 0.0
C281 C 0.53458 0.55834 0.07216 0.0
C282 C 0.54984 0.60515 0.08887 0.0
C283 C 0.55013 0.59637 0.11441 0.0
C284 C 0.54329 0.56857 0.11861 0.0
C285 C 0.53577 0.54976 0.09766 0.0
C286 C 0.55515 0.61565 0.1367 0.0
C287 C 0.53391 0.60792 0.15502 0.0
C288 C 0.57897 0.64265 0.13826 0.0
C289 C 0.6027 0.65156 0.12017 0.0
C290 C 0.61532 0.63513 0.11673 0.0
C291 C 0.63752 0.64351 0.09953 0.0
C292 C 0.6474 0.66837 0.08574 0.0
C293 C 0.63513 0.68493 0.08917 0.0
C294 C 0.61291 0.67663 0.10634 0.0
C295 C 0.55521 0.68697 0.23921 0.0
C296 C 0.55788 0.71239 0.23084 0.0
C297 C 0.55677 0.66859 0.2214 0.0
C298 C 0.56078 0.6751 0.1948 0.0
C299 C 0.56523 0.70123 0.18665 0.0
C300 C 0.5638 0.7197 0.20448 0.0
C301 C 0.55866 0.65409 0.17528 0.0
C302 C 0.58042 0.66149 0.15755 0.0
C303 C 0.53501 0.62694 0.17383 0.0
C304 C 0.51012 0.61849 0.19017 0.0
C305 C 0.49573 0.63343 0.18923 0.0
C306 C 0.47208 0.6252 0.20446 0.0
C307 C 0.46252 0.60195 0.22057 0.0
C308 C 0.47653 0.58681 0.2214 0.0
C309 C 0.50019 0.59495 0.2062 0.0
H310 H 0.4442 0.59561 0.23234 0.0
H311 H 0.66459 0.67482 0.07244 0.0
H312 H 0.94818 0.52991 0.54335 0.0
H313 H 0.91629 0.52774 0.57716 0.0
H314 H 0.98312 0.55864 0.63386 0.0
H315 H 0.01525 0.56106 0.60014 0.0
H316 H 0.93546 0.50852 0.64817 0.0
H317 H 0.95861 0.59933 0.61652 0.0
H318 H 0.96417 0.63359 0.58312 0.0
H319 H 0.87702 0.5853 0.56394 0.0
H320 H 0.871 0.55052 0.59699 0.0
H321 H 0.87105 0.53479 0.75544 0.0
H322 H 0.89959 0.53278 0.72049 0.0
H323 H 0.83297 0.51267 0.6653 0.0
H324 H 0.80442 0.51518 0.70013 0.0
H325 H 0.87924 0.55565 0.649 0.0
H326 H 0.85464 0.46553 0.68029 0.0
H327 H 0.84782 0.42928 0.71192 0.0
H328 H 0.93536 0.4733 0.7301 0.0
H329 H 0.94268 0.51003 0.69881 0.0
C330 C 0.95628 0.53691 0.56288 0.0
C331 C 0.98426 0.54564 0.56905 0.0
C332 C 0.938 0.53559 0.58218 0.0
C333 C 0.94733 0.54286 0.60802 0.0
C334 C 0.97552 0.55283 0.61403 0.0
C335 C 0.9939 0.55446 0.59467 0.0
C336 C 0.92727 0.53828 0.62902 0.0
C337 C 0.92343 0.51911 0.64864 0.0
C338 C 0.91084 0.55127 0.62893 0.0
C339 C 0.91442 0.57217 0.60905 0.0
C340 C 0.94068 0.59587 0.60502 0.0
C341 C 0.9439 0.61542 0.58618 0.0
C342 C 0.92098 0.61159 0.57136 0.0
C343 C 0.89476 0.58823 0.5754 0.0
C344 C 0.89143 0.5686 0.5942 0.0
C345 C 0.86215 0.52925 0.736 0.0
C346 C 0.83555 0.52547 0.73056 0.0
C347 C 0.87852 0.52803 0.71599 0.0
C348 C 0.8685 0.52269 0.6902 0.0
C349 C 0.84122 0.51702 0.68502 0.0
C350 C 0.82485 0.5183 0.70501 0.0
C351 C 0.88746 0.52597 0.66845 0.0
C352 C 0.89114 0.54491 0.6486 0.0
C353 C 0.90352 0.51252 0.6682 0.0
C354 C 0.89916 0.4907 0.68737 0.0
C355 C 0.8724 0.46765 0.69123 0.0
C356 C 0.86845 0.44697 0.70905 0.0
C357 C 0.89113 0.44902 0.72306 0.0
C358 C 0.91781 0.47175 0.71925 0.0
C359 C 0.92187 0.4925 0.70146 0.0
H360 H 0.88803 0.43297 0.73682 0.0
H361 H 0.92352 0.62675 0.55679 0.0
H362 H 0.43353 0.96173 0.06725 0.0
H363 H 0.4051 0.93075 0.10151 0.0
H364 H 0.46729 0.98215 0.15881 0.0
H365 H 0.49665 0.01313 0.12409 0.0
H366 H 0.45049 0.92866 0.16727 0.0
H367 H 0.404 0.98015 0.15527 0.0
H368 H 0.38202 0.00287 0.13144 0.0
H369 H 0.31962 0.92343 0.10073 0.0
H370 H 0.34144 0.90025 0.12408 0.0
H371 H 0.35014 0.84967 0.26734 0.0
H372 H 0.3855 0.88502 0.23931 0.0
H373 H 0.3372 0.84048 0.17143 0.0
H374 H 0.30158 0.80515 0.19926 0.0
H375 H 0.3492 0.89498 0.17317 0.0
H376 H 0.39969 0.84489 0.18526 0.0
H377 H 0.42058 0.82383 0.21309 0.0
H378 H 0.47513 0.90377 0.24812 0.0
H379 H 0.45423 0.92526 0.22078 0.0
C380 C 0.44109 0.96687 0.08715 0.0
C381 C 0.4674 0.99004 0.09288 0.0
C382 C 0.42469 0.94907 0.10681 0.0
C383 C 0.43386 0.95418 0.13285 0.0
C384 C 0.45976 0.97779 0.13886 0.0
C385 C 0.47637 0.99565 0.11904 0.0
C386 C 0.41661 0.93399 0.15326 0.0
C387 C 0.42844 0.92167 0.16888 0.0
C388 C 0.38779 0.92466 0.15538 0.0
C389 C 0.37449 0.93848 0.14132 0.0
C390 C 0.3857 0.96754 0.14329 0.0
C391 C 0.37325 0.9805 0.12989 0.0
C392 C 0.34947 0.96461 0.11455 0.0
C393 C 0.33805 0.93571 0.11262 0.0
C394 C 0.35043 0.92264 0.12597 0.0
C395 C 0.34735 0.84693 0.24643 0.0
C396 C 0.32281 0.82469 0.23558 0.0
C397 C 0.36763 0.86723 0.23042 0.0
C398 C 0.36387 0.86552 0.20329 0.0
C399 C 0.34039 0.8423 0.19235 0.0
C400 C 0.32012 0.82201 0.20831 0.0
C401 C 0.38283 0.88905 0.1864 0.0
C402 C 0.37128 0.90211 0.17159 0.0
C403 C 0.41189 0.89932 0.18547 0.0
C404 C 0.42525 0.88664 0.2011 0.0
C405 C 0.41607 0.85797 0.19896 0.0
C406 C 0.42789 0.84595 0.21468 0.0
C407 C 0.44921 0.86246 0.23234 0.0
C408 C 0.45864 0.891 0.23442 0.0
C409 C 0.44684 0.90313 0.21879 0.0
H410 H 0.45843 0.85314 0.2444 0.0
H411 H 0.33986 0.97469 0.10418 0.0
H412 H 0.50465 0.44431 0.55218 0.0
H413 H 0.50565 0.41365 0.58583 0.0
H414 H 0.48335 0.45567 0.64365 0.0
H415 H 0.48198 0.48631 0.61001 0.0
H416 H 0.53056 0.4497 0.65734 0.0
H417 H 0.43591 0.39399 0.626 0.0
H418 H 0.39928 0.37013 0.59249 0.0
H419 H 0.43512 0.31988 0.57051 0.0
H420 H 0.47222 0.34374 0.60367 0.0
H421 H 0.49247 0.35355 0.76206 0.0
H422 H 0.49696 0.38626 0.72805 0.0
H423 H 0.51072 0.33696 0.67109 0.0
H424 H 0.50627 0.30411 0.70496 0.0
H425 H 0.46919 0.34677 0.65611 0.0
H426 H 0.56278 0.4001 0.68572 0.0
H427 H 0.60018 0.42222 0.71877 0.0
H428 H 0.56882 0.47593 0.74227 0.0
H429 H 0.53102 0.4539 0.70953 0.0
C430 C 0.4996 0.44681 0.57199 0.0
C431 C 0.49314 0.46768 0.57842 0.0
C432 C 0.50023 0.4293 0.59119 0.0
C433 C 0.49465 0.43247 0.6172 0.0
C434 C 0.4878 0.45298 0.62367 0.0
C435 C 0.48679 0.47029 0.6044 0.0
C436 C 0.49649 0.41464 0.63768 0.0
C437 C 0.5169 0.42724 0.65732 0.0
C438 C 0.47934 0.38527 0.63704 0.0
C439 C 0.45701 0.37087 0.61713 0.0
C440 C 0.43613 0.37803 0.61386 0.0
C441 C 0.41525 0.36447 0.59496 0.0
C442 C 0.41491 0.34356 0.57933 0.0
C443 C 0.43543 0.33612 0.58261 0.0
C444 C 0.45637 0.34964 0.60146 0.0
C445 C 0.4971 0.34999 0.74243 0.0
C446 C 0.49882 0.32609 0.73624 0.0
C447 C 0.49965 0.36872 0.72298 0.0
C448 C 0.50399 0.36394 0.697 0.0
C449 C 0.50719 0.34093 0.69099 0.0
C450 C 0.50483 0.32228 0.71045 0.0
C451 C 0.50314 0.3818 0.67593 0.0
C452 C 0.48292 0.36923 0.65615 0.0
C453 C 0.52071 0.41112 0.67623 0.0
C454 C 0.54388 0.42513 0.69539 0.0
C455 C 0.56377 0.41653 0.69804 0.0
C456 C 0.58504 0.42904 0.71671 0.0
C457 C 0.58676 0.45031 0.73275 0.0
C458 C 0.56741 0.45936 0.72993 0.0
C459 C 0.54607 0.44691 0.71127 0.0
H460 H 0.60322 0.45982 0.74723 0.0
H461 H 0.39872 0.33308 0.56471 0.0
H462 H 0.55522 0.02513 0.41663 0.0
H463 H 0.56228 0.9993 0.38126 0.0
H464 H 0.56724 0.94414 0.4374 0.0
H465 H 0.56 0.96958 0.47264 0.0
H466 H 0.60544 0.95756 0.39765 0.0
H467 H 0.50774 0.92448 0.40836 0.0
H468 H 0.46551 0.92866 0.41096 0.0
H469 H 0.47829 0.95941 0.3327 0.0
H470 H 0.52089 0.95585 0.32979 0.0
H471 H 0.56415 0.83216 0.3259 0.0
H472 H 0.56999 0.8686 0.35667 0.0
H473 H 0.55974 0.91448 0.29399 0.0
H474 H 0.55366 0.87804 0.26313 0.0
H475 H 0.52707 0.90966 0.33453 0.0
H476 H 0.62337 0.93793 0.32322 0.0
H477 H 0.66447 0.93175 0.32176 0.0
H478 H 0.6532 0.90792 0.40218 0.0
H479 H 0.61179 0.91359 0.40403 0.0
C480 C 0.55845 0.0079 0.42144 0.0
C481 C 0.55692 0.99931 0.44741 0.0
C482 C 0.5623 0.99305 0.40122 0.0
C483 C 0.56498 0.96959 0.40668 0.0
C484 C 0.56519 0.96212 0.43271 0.0
C485 C 0.56098 0.97667 0.45283 0.0
C486 C 0.56554 0.95153 0.38541 0.0
C487 C 0.58829 0.947 0.38388 0.0
C488 C 0.54329 0.938 0.36727 0.0
C489 C 0.51773 0.94027 0.36899 0.0
C490 C 0.50172 0.93242 0.3918 0.0
C491 C 0.47768 0.93462 0.39332 0.0
C492 C 0.46927 0.94438 0.37204 0.0
C493 C 0.48487 0.95192 0.34919 0.0
C494 C 0.50897 0.94982 0.3476 0.0
C495 C 0.56357 0.85019 0.31856 0.0
C496 C 0.55848 0.85214 0.29198 0.0
C497 C 0.56697 0.87108 0.33621 0.0
C498 C 0.56547 0.89442 0.32767 0.0
C499 C 0.56101 0.8967 0.30107 0.0
C500 C 0.55768 0.87588 0.2834 0.0
C501 C 0.567 0.91559 0.3467 0.0
C502 C 0.54451 0.92057 0.34795 0.0
C503 C 0.58938 0.92932 0.36472 0.0
C504 C 0.61433 0.92598 0.3637 0.0
C505 C 0.62953 0.93117 0.34054 0.0
C506 C 0.65291 0.92779 0.33966 0.0
C507 C 0.66141 0.91939 0.36185 0.0
C508 C 0.64658 0.91441 0.385 0.0
C509 C 0.62317 0.91773 0.38599 0.0
H510 H 0.67951 0.91679 0.36112 0.0
H511 H 0.45063 0.94603 0.37324 0.0
H512 H 0.56797 0.50918 0.97282 0.0
H513 H 0.60331 0.51459 0.94171 0.0
H514 H 0.59396 0.5779 0.90162 0.0
H515 H 0.55785 0.572 0.93235 0.0
H516 H 0.59338 0.54222 0.86792 0.0
H517 H 0.6528 0.59368 0.93922 0.0
H518 H 0.67019 0.60269 0.98456 0.0
H519 H 0.6858 0.53414 0.98022 0.0
H520 H 0.66813 0.52445 0.93493 0.0
H521 H 0.71284 0.59039 0.78904 0.0
H522 H 0.6782 0.58518 0.82086 0.0
H523 H 0.68241 0.5166 0.85589 0.0
H524 H 0.7177 0.52201 0.82412 0.0
H525 H 0.68597 0.55501 0.89215 0.0
H526 H 0.62569 0.50431 0.82001 0.0
H527 H 0.6103 0.49795 0.77424 0.0
H528 H 0.59824 0.56867 0.77996 0.0
H529 H 0.61387 0.57566 0.8259 0.0
C530 C 0.57365 0.52454 0.95761 0.0
C531 C 0.56006 0.54016 0.95507 0.0
C532 C 0.59398 0.52768 0.93986 0.0
C533 C 0.60152 0.54684 0.91943 0.0
C534 C 0.58847 0.56297 0.91721 0.0
C535 C 0.56791 0.55965 0.93485 0.0
C536 C 0.62185 0.54886 0.8996 0.0
C537 C 0.61379 0.54546 0.87325 0.0
C538 C 0.64826 0.55243 0.9065 0.0
C539 C 0.65888 0.55817 0.93375 0.0
C540 C 0.65972 0.58037 0.948 0.0
C541 C 0.66967 0.58563 0.97368 0.0
C542 C 0.67902 0.56895 0.98529 0.0
C543 C 0.67851 0.54702 0.97121 0.0
C544 C 0.66856 0.54165 0.94552 0.0
C545 C 0.70625 0.57399 0.80333 0.0
C546 C 0.71805 0.55662 0.80409 0.0
C547 C 0.68635 0.57099 0.82148 0.0
C548 C 0.67761 0.55042 0.84067 0.0
C549 C 0.68889 0.53262 0.84121 0.0
C550 C 0.70887 0.53559 0.82296 0.0
C551 C 0.6574 0.5483 0.86063 0.0
C552 C 0.66551 0.55173 0.88694 0.0
C553 C 0.63118 0.5451 0.85371 0.0
C554 C 0.62117 0.54063 0.82631 0.0
C555 C 0.61988 0.51859 0.81148 0.0
C556 C 0.61109 0.51487 0.78549 0.0
C557 C 0.60338 0.53294 0.77409 0.0
C558 C 0.60426 0.5547 0.78878 0.0
C559 C 0.61303 0.55852 0.81483 0.0
H560 H 0.59668 0.53005 0.75391 0.0
H561 H 0.68672 0.57307 0.00517 0.0
H562 H 0.04799 0.59612 0.47353 0.0
H563 H 0.07023 0.62764 0.43712 0.0
H564 H 0.03198 0.55805 0.3834 0.0
H565 H 0.00919 0.52627 0.4199 0.0
H566 H 0.09127 0.59231 0.3788 0.0
H567 H 0.01048 0.60215 0.37983 0.0
H568 H 0.97421 0.60956 0.39962 0.0
H569 H 0.03671 0.69101 0.4261 0.0
H570 H 0.07342 0.68395 0.40681 0.0
H571 H 0.16412 0.693 0.27945 0.0
H572 H 0.12703 0.65385 0.30335 0.0
H573 H 0.13672 0.7099 0.36656 0.0
H574 H 0.17237 0.749 0.34211 0.0
H575 H 0.08455 0.67655 0.35922 0.0
H576 H 0.16489 0.66303 0.36743 0.0
H577 H 0.20282 0.65868 0.34707 0.0
H578 H 0.14268 0.58609 0.30459 0.0
H579 H 0.10441 0.59011 0.32465 0.0
C580 C 0.04383 0.58759 0.45392 0.0
C581 C 0.02683 0.55876 0.44954 0.0
C582 C 0.05653 0.60561 0.43314 0.0
C583 C 0.05273 0.59515 0.40759 0.0
C584 C 0.0351 0.56649 0.403 0.0
C585 C 0.02196 0.54843 0.42381 0.0
C586 C 0.06888 0.61418 0.38622 0.0
C587 C 0.08942 0.61042 0.37406 0.0
C588 C 0.06676 0.63802 0.38042 0.0
C589 C 0.04473 0.64244 0.39198 0.0
C590 C 0.01652 0.62157 0.39004 0.0
C591 C 0.99588 0.62572 0.40114 0.0
C592 C 0.00315 0.65072 0.41414 0.0
C593 C 0.0311 0.67165 0.41603 0.0
C594 C 0.05184 0.6676 0.40497 0.0
C595 C 0.15835 0.69678 0.29852 0.0
C596 C 0.17115 0.7239 0.30905 0.0
C597 C 0.13718 0.67445 0.31218 0.0
C598 C 0.1292 0.67879 0.33697 0.0
C599 C 0.14227 0.70594 0.34745 0.0
C600 C 0.16281 0.72826 0.33355 0.0
C601 C 0.10769 0.6553 0.3525 0.0
C602 C 0.08613 0.6582 0.36358 0.0
C603 C 0.1091 0.63088 0.3576 0.0
C604 C 0.13187 0.62703 0.34729 0.0
C605 C 0.1598 0.64608 0.35383 0.0
C606 C 0.18133 0.64373 0.34229 0.0
C607 C 0.17516 0.62232 0.32434 0.0
C608 C 0.14742 0.60278 0.31837 0.0
C609 C 0.1258 0.60502 0.32988 0.0
H610 H 0.19189 0.62082 0.31514 0.0
H611 H 0.98714 0.6539 0.42273 0.0
H612 H 0.51596 0.09205 1.00118 0.0
H613 H 0.51412 0.12553 0.97175 0.0
H614 H 0.44912 0.05798 0.92687 0.0
H615 H 0.45139 0.02418 0.95591 0.0
H616 H 0.48916 0.0932 0.89624 0.0
H617 H 0.43679 0.10311 0.96554 0.0
H618 H 0.4278 0.1111 0.01085 0.0
H619 H 0.50113 0.19228 0.01069 0.0
H620 H 0.51077 0.18463 0.96548 0.0
H621 H 0.45969 0.17499 0.81215 0.0
H622 H 0.45913 0.14259 0.8442 0.0
H623 H 0.51905 0.21161 0.89145 0.0
H624 H 0.5186 0.24448 0.85976 0.0
H625 H 0.48152 0.17578 0.92142 0.0
H626 H 0.5361 0.16679 0.85438 0.0
H627 H 0.54814 0.15949 0.80997 0.0
H628 H 0.47502 0.0782 0.80684 0.0
H629 H 0.46237 0.08513 0.85112 0.0
C630 C 0.50081 0.08425 0.9854 0.0
C631 C 0.48377 0.05537 0.98094 0.0
C632 C 0.49975 0.10349 0.96859 0.0
C633 C 0.4813 0.09434 0.94719 0.0
C634 C 0.46352 0.06554 0.94326 0.0
C635 C 0.46474 0.04624 0.95995 0.0
C636 C 0.48217 0.11466 0.92781 0.0
C637 C 0.48695 0.11098 0.90167 0.0
C638 C 0.48049 0.1385 0.93504 0.0
C639 C 0.47461 0.1432 0.96218 0.0
C640 C 0.4511 0.12259 0.97522 0.0
C641 C 0.44587 0.12707 1.00088 0.0
C642 C 0.46391 0.15216 0.01366 0.0
C643 C 0.48718 0.17285 1.00077 0.0
C644 C 0.49251 0.16847 0.97512 0.0
C645 C 0.47304 0.18339 0.8292 0.0
C646 C 0.48938 0.21238 0.83329 0.0
C647 C 0.4728 0.16474 0.84752 0.0
C648 C 0.48948 0.17451 0.87009 0.0
C649 C 0.50606 0.2035 0.87416 0.0
C650 C 0.50591 0.22228 0.85598 0.0
C651 C 0.48861 0.15438 0.88979 0.0
C652 C 0.48371 0.15801 0.91595 0.0
C653 C 0.49073 0.13072 0.8827 0.0
C654 C 0.49816 0.12659 0.85597 0.0
C655 C 0.52247 0.14745 0.84414 0.0
C656 C 0.52943 0.14336 0.81901 0.0
C657 C 0.51233 0.11842 0.80559 0.0
C658 C 0.48824 0.09752 0.81726 0.0
C659 C 0.48118 0.1015 0.84238 0.0
H660 H 0.51779 0.11524 0.78619 0.0
H661 H 0.45984 0.15558 0.03352 0.0
H662 H 0.4277 0.47194 0.48483 0.0
H663 H 0.3926 0.45679 0.45017 0.0
H664 H 0.45365 0.46467 0.39405 0.0
H665 H 0.48901 0.47985 0.42868 0.0
H666 H 0.42744 0.49438 0.3813 0.0
H667 H 0.4003 0.40128 0.40764 0.0
H668 H 0.3863 0.36288 0.43884 0.0
H669 H 0.31356 0.36771 0.45849 0.0
H670 H 0.32732 0.40642 0.42768 0.0
H671 H 0.33731 0.45851 0.27492 0.0
H672 H 0.36865 0.4564 0.30731 0.0
H673 H 0.3065 0.43577 0.36648 0.0
H674 H 0.27461 0.43691 0.33381 0.0
H675 H 0.33387 0.40961 0.37654 0.0
H676 H 0.36086 0.50412 0.35903 0.0
H677 H 0.37406 0.5464 0.33327 0.0
H678 H 0.4451 0.54375 0.30376 0.0
H679 H 0.43216 0.50128 0.32919 0.0
C680 C 0.43356 0.46985 0.46521 0.0
C681 C 0.46122 0.47717 0.45953 0.0
C682 C 0.4134 0.46108 0.44543 0.0
C683 C 0.42045 0.45946 0.41953 0.0
C684 C 0.44774 0.46565 0.41393 0.0
C685 C 0.4679 0.47421 0.43377 0.0
C686 C 0.40021 0.45433 0.39813 0.0
C687 C 0.40718 0.47562 0.37999 0.0
C688 C 0.37337 0.4303 0.39703 0.0
C689 C 0.36497 0.40692 0.41548 0.0
C690 C 0.38143 0.39431 0.41876 0.0
C691 C 0.37352 0.37245 0.43635 0.0
C692 C 0.34909 0.3629 0.45067 0.0
C693 C 0.33249 0.37514 0.44739 0.0
C694 C 0.34032 0.39702 0.42984 0.0
C695 C 0.33009 0.45295 0.29473 0.0
C696 C 0.30357 0.44808 0.30185 0.0
C697 C 0.34812 0.45197 0.31329 0.0
C698 C 0.3403 0.44673 0.33954 0.0
C699 C 0.31313 0.44005 0.34641 0.0
C700 C 0.29486 0.44063 0.3277 0.0
C701 C 0.36105 0.44989 0.35988 0.0
C702 C 0.3542 0.4283 0.37778 0.0
C703 C 0.38776 0.47415 0.36149 0.0
C704 C 0.3953 0.4993 0.34569 0.0
C705 C 0.37912 0.51238 0.34681 0.0
C706 C 0.3866 0.53643 0.33235 0.0
C707 C 0.41034 0.54769 0.3168 0.0
C708 C 0.42668 0.53496 0.31575 0.0
C709 C 0.41929 0.51092 0.3302 0.0
H710 H 0.41611 0.56632 0.30563 0.0
H711 H 0.343 0.34597 0.46428 0.0
H712 H 0.97379 0.42479 0.98062 0.0
H713 H 0.9533 0.38493 0.95091 0.0
H714 H 0.0152 0.43281 0.89346 0.0
H715 H 0.03604 0.47322 0.92336 0.0
H716 H 0.96152 0.40546 0.87302 0.0
H717 H 0.01847 0.38094 0.923 0.0
H718 H 0.03895 0.37391 0.96303 0.0
H719 H 0.95779 0.31089 0.98781 0.0
H720 H 0.93673 0.31782 0.94811 0.0
H721 H 0.89039 0.28226 0.79535 0.0
H722 H 0.93 0.32056 0.81849 0.0
H723 H 0.8871 0.29077 0.89133 0.0
H724 H 0.848 0.25229 0.86858 0.0
H725 H 0.94095 0.31073 0.89886 0.0
H726 H 0.8839 0.34233 0.85449 0.0
H727 H 0.86198 0.35011 0.81588 0.0
H728 H 0.9425 0.40029 0.78173 0.0
H729 H 0.96487 0.39249 0.82004 0.0
C730 C 0.9833 0.42689 0.96177 0.0
C731 C 0.00659 0.45226 0.95439 0.0
C732 C 0.9716 0.40396 0.94482 0.0
C733 C 0.98284 0.40573 0.92002 0.0
C734 C 0.00626 0.43093 0.91257 0.0
C735 C 0.01821 0.45395 0.9297 0.0
C736 C 0.96888 0.38154 0.90171 0.0
C737 C 0.95764 0.38486 0.87832 0.0
C738 C 0.96341 0.35456 0.90881 0.0
C739 C 0.976 0.35001 0.9326 0.0
C740 C 0.00495 0.36569 0.93705 0.0
C741 C 0.01667 0.36171 0.95968 0.0
C742 C 0.99968 0.342 0.97797 0.0
C743 C 0.97093 0.32615 0.97362 0.0
C744 C 0.9591 0.33006 0.95103 0.0
C745 C 0.8897 0.28348 0.81637 0.0
C746 C 0.86584 0.26435 0.83006 0.0
C747 C 0.91229 0.30553 0.82956 0.0
C748 C 0.91134 0.30896 0.85664 0.0
C749 C 0.88837 0.28874 0.87046 0.0
C750 C 0.86591 0.26672 0.85736 0.0
C751 C 0.93286 0.33451 0.87057 0.0
C752 C 0.94545 0.33144 0.89319 0.0
C753 C 0.93942 0.36171 0.86286 0.0
C754 C 0.92601 0.36654 0.83995 0.0
C755 C 0.8969 0.35486 0.83866 0.0
C756 C 0.88441 0.35929 0.81685 0.0
C757 C 0.90083 0.3756 0.79632 0.0
C758 C 0.9298 0.3876 0.79761 0.0
C759 C 0.9424 0.38319 0.81937 0.0
H760 H 0.89112 0.379 0.77945 0.0
H761 H 0.00879 0.33898 0.9955 0.0
H762 H 0.99958 0.55401 0.94737 0.0
H763 H 0.97353 0.56882 0.9197 0.0
H764 H 0.90325 0.52904 0.97117 0.0
H765 H 0.92917 0.5137 0.99894 0.0
H766 H 0.88683 0.51651 0.92156 0.0
H767 H 0.94449 0.60045 0.96948 0.0
H768 H 0.98831 0.63884 0.98769 0.0
H769 H 0.0199 0.6644 0.91049 0.0
H770 H 0.9764 0.62589 0.89182 0.0
H771 H 0.80995 0.57366 0.86774 0.0
H772 H 0.84037 0.56849 0.89897 0.0
H773 H 0.90373 0.59311 0.84052 0.0
H774 H 0.87314 0.59799 0.80875 0.0
H775 H 0.92381 0.61466 0.89407 0.0
H776 H 0.8665 0.52906 0.84671 0.0
H777 H 0.82212 0.49115 0.82893 0.0
H778 H 0.7896 0.46921 0.90628 0.0
H779 H 0.83367 0.50736 0.9245 0.0
C780 C 0.97863 0.54847 0.95296 0.0
C781 C 0.96649 0.53264 0.97545 0.0
C782 C 0.9638 0.55714 0.93714 0.0
C783 C 0.93653 0.55038 0.94347 0.0
C784 C 0.92431 0.5346 0.96592 0.0
C785 C 0.93917 0.52589 0.98181 0.0
C786 C 0.92048 0.55886 0.92604 0.0
C787 C 0.89477 0.53805 0.91594 0.0
C788 C 0.93108 0.58689 0.91811 0.0
C789 C 0.95727 0.6101 0.92926 0.0
C790 C 0.96086 0.61411 0.95639 0.0
C791 C 0.98563 0.63592 0.96679 0.0
C792 C 0.0069 0.65401 0.95026 0.0
C793 C 0.00341 0.65035 0.92328 0.0
C794 C 0.97869 0.62855 0.91277 0.0
C795 C 0.83055 0.57855 0.86154 0.0
C796 C 0.83895 0.58594 0.83558 0.0
C797 C 0.8479 0.57554 0.87948 0.0
C798 C 0.87412 0.58005 0.87196 0.0
C799 C 0.88352 0.58948 0.84667 0.0
C800 C 0.86601 0.59228 0.82855 0.0
C801 C 0.89032 0.57232 0.88981 0.0
C802 C 0.91597 0.59319 0.89987 0.0
C803 C 0.87969 0.54437 0.89781 0.0
C804 C 0.85327 0.52126 0.88695 0.0
C805 C 0.8498 0.51632 0.85992 0.0
C806 C 0.82472 0.49476 0.84976 0.0
C807 C 0.80303 0.47783 0.86646 0.0
C808 C 0.80641 0.48238 0.89337 0.0
C809 C 0.83144 0.50396 0.90362 0.0
H810 H 0.78363 0.46113 0.85857 0.0
H811 H 0.02606 0.67089 0.95835 0.0
H812 H 0.45262 0.99658 0.45425 0.0
H813 H 0.41301 0.97046 0.42501 0.0
H814 H 0.39038 0.8951 0.4675 0.0
H815 H 0.43045 0.92117 0.4969 0.0
H816 H 0.39144 0.88767 0.41519 0.0
H817 H 0.35192 0.92752 0.47234 0.0
H818 H 0.35035 0.96556 0.49607 0.0
H819 H 0.35224 0.00501 0.42367 0.0
H820 H 0.35421 0.96738 0.39951 0.0
H821 H 0.26132 0.79959 0.36035 0.0
H822 H 0.29502 0.83077 0.39264 0.0
H823 H 0.32081 0.90013 0.34052 0.0
H824 H 0.28696 0.86873 0.30764 0.0
H825 H 0.31825 0.91225 0.39649 0.0
H826 H 0.35865 0.87373 0.33941 0.0
H827 H 0.36029 0.83609 0.31502 0.0
H828 H 0.35767 0.79521 0.38672 0.0
H829 H 0.3555 0.83239 0.41153 0.0
C830 C 0.4391 0.97449 0.45764 0.0
C831 C 0.44474 0.96096 0.47799 0.0
C832 C 0.41635 0.95961 0.44091 0.0
C833 C 0.39856 0.93087 0.44417 0.0
C834 C 0.40382 0.91731 0.46468 0.0
C835 C 0.42663 0.93224 0.48154 0.0
C836 C 0.37543 0.91483 0.42529 0.0
C837 C 0.37521 0.89279 0.41145 0.0
C838 C 0.35483 0.92219 0.41964 0.0
C839 C 0.35348 0.94475 0.43413 0.0
C840 C 0.35222 0.94441 0.46148 0.0
C841 C 0.35122 0.96588 0.47501 0.0
C842 C 0.35127 0.98772 0.46139 0.0
C843 C 0.35223 0.98809 0.4342 0.0
C844 C 0.35327 0.96668 0.42058 0.0
C845 C 0.27374 0.82157 0.35583 0.0
C846 C 0.27171 0.83164 0.33129 0.0
C847 C 0.293 0.83936 0.37436 0.0
C848 C 0.31067 0.86762 0.3688 0.0
C849 C 0.30735 0.87831 0.34511 0.0
C850 C 0.288 0.86039 0.32639 0.0
C851 C 0.33414 0.88494 0.38685 0.0
C852 C 0.3345 0.9072 0.40036 0.0
C853 C 0.35504 0.87797 0.39214 0.0
C854 C 0.35662 0.8557 0.37731 0.0
C855 C 0.35817 0.85659 0.34997 0.0
C856 C 0.35923 0.83536 0.33606 0.0
C857 C 0.35901 0.81323 0.34931 0.0
C858 C 0.3578 0.81234 0.37649 0.0
C859 C 0.35667 0.8335 0.39048 0.0
H860 H 0.35985 0.79682 0.33851 0.0
H861 H 0.3505 0.00433 0.4719 0.0
H862 H 0.455 0.45409 0.93882 0.0
H863 H 0.43981 0.41403 0.90964 0.0
H864 H 0.44923 0.36724 0.97196 0.0
H865 H 0.46503 0.40751 1.0012 0.0
H866 H 0.47283 0.36228 0.92953 0.0
H867 H 0.38406 0.35259 0.94858 0.0
H868 H 0.34923 0.36768 0.95289 0.0
H869 H 0.35492 0.38542 0.87112 0.0
H870 H 0.39011 0.3708 0.86637 0.0
H871 H 0.41501 0.23509 0.86178 0.0
H872 H 0.41605 0.26878 0.89329 0.0
H873 H 0.42025 0.32239 0.83069 0.0
H874 H 0.41925 0.28876 0.79888 0.0
H875 H 0.38759 0.32212 0.87403 0.0
H876 H 0.47833 0.33431 0.85603 0.0
H877 H 0.5119 0.31761 0.85151 0.0
H878 H 0.50158 0.29444 0.9321 0.0
H879 H 0.46752 0.31055 0.93697 0.0
C880 C 0.45354 0.43518 0.94647 0.0
C881 C 0.46126 0.43408 0.97242 0.0
C882 C 0.44471 0.41219 0.92973 0.0
C883 C 0.4431 0.38742 0.93858 0.0
C884 C 0.45028 0.38608 0.96463 0.0
C885 C 0.45922 0.40911 0.98138 0.0
C886 C 0.43545 0.36356 0.92032 0.0
C887 C 0.45392 0.35323 0.91779 0.0
C888 C 0.41111 0.35207 0.90442 0.0
C889 C 0.38992 0.36083 0.90718 0.0
C890 C 0.37806 0.35992 0.93155 0.0
C891 C 0.35821 0.36835 0.93407 0.0
C892 C 0.34992 0.37757 0.91231 0.0
C893 C 0.36139 0.3783 0.88796 0.0
C894 C 0.38127 0.36991 0.88535 0.0
C895 C 0.41545 0.25368 0.85459 0.0
C896 C 0.41742 0.25934 0.82775 0.0
C897 C 0.41611 0.27298 0.87269 0.0
C898 C 0.4187 0.2983 0.86435 0.0
C899 C 0.41834 0.30301 0.83755 0.0
C900 C 0.41779 0.28375 0.81938 0.0
C901 C 0.42488 0.32096 0.8835 0.0
C902 C 0.40631 0.33112 0.88603 0.0
C903 C 0.44909 0.33232 0.89947 0.0
C904 C 0.47016 0.32337 0.8968 0.0
C905 C 0.48309 0.3255 0.87275 0.0
C906 C 0.50221 0.31614 0.87012 0.0
C907 C 0.50881 0.30489 0.89149 0.0
C908 C 0.4964 0.30311 0.91556 0.0
C909 C 0.4772 0.31236 0.91827 0.0
H910 H 0.52357 0.29761 0.8894 0.0
H911 H 0.33455 0.38409 0.91429 0.0
H912 H 0.05781 0.46846 0.48285 0.0
H913 H 0.09283 0.46519 0.45662 0.0
H914 H 0.15431 0.54888 0.47978 0.0
H915 H 0.11946 0.55206 0.50671 0.0
H916 H 0.14441 0.53608 0.42265 0.0
H917 H 0.16664 0.50422 0.50125 0.0
H918 H 0.15578 0.47522 0.54052 0.0
H919 H 0.12021 0.40111 0.49291 0.0
H920 H 0.13048 0.42964 0.45337 0.0
H921 H 0.23907 0.52242 0.33915 0.0
H922 H 0.22087 0.53392 0.37784 0.0
H923 H 0.15987 0.44676 0.38689 0.0
H924 H 0.17874 0.43514 0.34932 0.0
H925 H 0.17726 0.46792 0.43246 0.0
H926 H 0.14291 0.49484 0.35728 0.0
H927 H 0.15048 0.51952 0.31556 0.0
H928 H 0.20376 0.59772 0.3542 0.0
H929 H 0.19631 0.57348 0.39613 0.0
C930 C 0.07895 0.48593 0.48283 0.0
C931 C 0.08596 0.51048 0.49685 0.0
C932 C 0.0989 0.48403 0.46786 0.0
C933 C 0.12607 0.50681 0.46629 0.0
C934 C 0.13342 0.53108 0.48085 0.0
C935 C 0.11358 0.53278 0.49633 0.0
C936 C 0.14586 0.50572 0.44776 0.0
C937 C 0.15221 0.5217 0.42505 0.0
C938 C 0.15521 0.48632 0.4506 0.0
C939 C 0.14918 0.46909 0.47435 0.0
C940 C 0.1563 0.48173 0.49916 0.0
C941 C 0.15029 0.46537 0.52147 0.0
C942 C 0.13727 0.43634 0.51921 0.0
C943 C 0.1303 0.42361 0.49463 0.0
C944 C 0.13625 0.43987 0.47226 0.0
C945 C 0.22188 0.50578 0.34953 0.0
C946 C 0.21024 0.47793 0.34112 0.0
C947 C 0.21144 0.51234 0.37159 0.0
C948 C 0.18869 0.49124 0.38514 0.0
C949 C 0.17748 0.46342 0.37694 0.0
C950 C 0.18822 0.45683 0.3553 0.0
C951 C 0.1754 0.49788 0.40702 0.0
C952 C 0.17008 0.48282 0.43029 0.0
C953 C 0.16631 0.51757 0.40445 0.0
C954 C 0.16925 0.53238 0.37971 0.0
C955 C 0.15611 0.51733 0.35684 0.0
C956 C 0.16037 0.53121 0.33318 0.0
C957 C 0.17766 0.56014 0.3322 0.0
C958 C 0.19034 0.57531 0.35497 0.0
C959 C 0.18602 0.56154 0.37871 0.0
H960 H 0.18125 0.57076 0.31378 0.0
H961 H 0.13263 0.42371 0.53651 0.0
H962 H 0.61398 0.09443 0.0234 0.0
H963 H 0.65031 0.12644 0.99358 0.0
H964 H 0.60332 0.0743 0.92842 0.0
H965 H 0.56724 0.04235 0.95776 0.0
H966 H 0.68354 0.1194 0.95742 0.0
H967 H 0.6045 0.11685 0.87952 0.0
H968 H 0.55812 0.11299 0.87857 0.0
H969 H 0.5698 0.14311 0.95744 0.0
H970 H 0.61646 0.14782 0.95871 0.0
H971 H 0.73627 0.14271 0.83233 0.0
H972 H 0.70716 0.12588 0.87069 0.0
H973 H 0.70639 0.20332 0.87639 0.0
H974 H 0.73583 0.22056 0.83754 0.0
H975 H 0.65459 0.15776 0.88401 0.0
H976 H 0.74519 0.19272 0.91861 0.0
H977 H 0.79305 0.20062 0.92156 0.0
H978 H 0.76095 0.11305 0.93357 0.0
H979 H 0.71286 0.10453 0.93025 0.0
C980 C 0.61159 0.0896 1.00276 0.0
C981 C 0.58762 0.06589 0.99298 0.0
C982 C 0.63232 0.10794 0.98577 0.0
C983 C 0.62919 0.10298 0.95878 0.0
C984 C 0.60587 0.07877 0.94914 0.0
C985 C 0.58534 0.06042 0.96602 0.0
C986 C 0.64991 0.123 0.9403 0.0
C987 C 0.67732 0.12799 0.94148 0.0
C988 C 0.64197 0.13499 0.92004 0.0
C989 C 0.61396 0.13247 0.91926 0.0
C990 C 0.59727 0.12281 0.89662 0.0
C991 C 0.57092 0.12047 0.89602 0.0
C992 C 0.56106 0.12775 0.91795 0.0
C993 C 0.57748 0.13742 0.9405 0.0
C994 C 0.60387 0.13992 0.94117 0.0
C995 C 0.72996 0.15627 0.84161 0.0
C996 C 0.73852 0.18308 0.83191 0.0
C997 C 0.7134 0.14663 0.86368 0.0
C998 C 0.70504 0.16353 0.87667 0.0
C999 C 0.71284 0.19005 0.86673 0.0
C1000 C 0.72961 0.19983 0.84456 0.0
C1001 C 0.68776 0.15284 0.90036 0.0
C1002 C 0.66097 0.14959 0.90017 0.0
C1003 C 0.69648 0.14301 0.92186 0.0
C1004 C 0.72538 0.14797 0.92405 0.0
C1005 C 0.74831 0.17511 0.92171 0.0
C1006 C 0.7755 0.1797 0.92346 0.0
C1007 C 0.78004 0.15735 0.92773 0.0
C1008 C 0.7574 0.13035 0.93028 0.0
C1009 C 0.73017 0.12563 0.92849 0.0
H1010 H 0.8011 0.16095 0.92908 0.0
H1011 H 0.54076 0.12601 0.91748 0.0
H1012 H 0.46578 0.57947 0.50598 0.0
H1013 H 0.45897 0.60882 0.47442 0.0
H1014 H 0.53766 0.63061 0.43915 0.0
H1015 H 0.54433 0.60099 0.47019 0.0
H1016 H 0.52884 0.67596 0.44498 0.0
H1017 H 0.48293 0.58177 0.41374 0.0
H1018 H 0.4502 0.53118 0.41525 0.0
H1019 H 0.38111 0.54593 0.41736 0.0
H1020 H 0.41355 0.59676 0.41704 0.0
H1021 H 0.4868 0.68667 0.30558 0.0
H1022 H 0.48341 0.65664 0.34173 0.0
H1023 H 0.48146 0.71533 0.39607 0.0
H1024 H 0.48545 0.74581 0.36006 0.0
H1025 H 0.45019 0.6295 0.38185 0.0
H1026 H 0.52398 0.72318 0.44729 0.0
H1027 H 0.56022 0.77267 0.44296 0.0
H1028 H 0.57885 0.75616 0.36608 0.0
H1029 H 0.54302 0.70654 0.37012 0.0
C1030 C 0.48188 0.59101 0.49184 0.0
C1031 C 0.5056 0.58798 0.49051 0.0
C1032 C 0.47785 0.60756 0.47373 0.0
C1033 C 0.49769 0.62163 0.45434 0.0
C1034 C 0.52209 0.61987 0.45394 0.0
C1035 C 0.52587 0.60296 0.47168 0.0
C1036 C 0.49266 0.63721 0.43363 0.0
C1037 C 0.51144 0.66587 0.43139 0.0
C1038 C 0.47033 0.62381 0.4155 0.0
C1039 C 0.45076 0.59318 0.41587 0.0
C1040 C 0.4608 0.5743 0.41498 0.0
C1041 C 0.44228 0.54554 0.41555 0.0
C1042 C 0.41358 0.53532 0.41644 0.0
C1043 C 0.40336 0.55387 0.41678 0.0
C1044 C 0.42182 0.58268 0.41652 0.0
C1045 C 0.48505 0.69296 0.32516 0.0
C1046 C 0.48689 0.71891 0.32995 0.0
C1047 C 0.48304 0.67569 0.34583 0.0
C1048 C 0.48278 0.68401 0.37164 0.0
C1049 C 0.48218 0.70875 0.37633 0.0
C1050 C 0.48436 0.72612 0.35569 0.0
C1051 C 0.48609 0.66838 0.39352 0.0
C1052 C 0.46717 0.63969 0.39585 0.0
C1053 C 0.5087 0.68154 0.41139 0.0
C1054 C 0.53059 0.71125 0.40891 0.0
C1055 C 0.53588 0.73012 0.42951 0.0
C1056 C 0.55634 0.75819 0.4271 0.0
C1057 C 0.57175 0.76758 0.40422 0.0
C1058 C 0.56683 0.74889 0.38375 0.0
C1059 C 0.54644 0.7208 0.38608 0.0
H1060 H 0.58754 0.78932 0.40238 0.0
H1061 H 0.39925 0.51305 0.41683 0.0
H1062 H 0.47666 0.03348 0.57085 0.0
H1063 H 0.4631 0.05873 0.60081 0.0
H1064 H 0.505 0.13222 0.5533 0.0
H1065 H 0.51864 0.10689 0.52286 0.0
H1066 H 0.49742 0.10296 0.62948 0.0
H1067 H 0.47183 0.17116 0.56228 0.0
H1068 H 0.45239 0.16896 0.5184 0.0
H1069 H 0.40726 0.07942 0.52134 0.0
H1070 H 0.42612 0.0811 0.56536 0.0
H1071 H 0.51256 0.22012 0.69462 0.0
H1072 H 0.51278 0.19063 0.65956 0.0
H1073 H 0.42302 0.14268 0.66061 0.0
H1074 H 0.42252 0.17248 0.69622 0.0
H1075 H 0.44811 0.15478 0.60847 0.0
H1076 H 0.45403 0.11553 0.69016 0.0
H1077 H 0.47282 0.1175 0.7343 0.0
H1078 H 0.55415 0.1458 0.70273 0.0
H1079 H 0.53594 0.14441 0.65844 0.0
C1080 C 0.48284 0.05494 0.56652 0.0
C1081 C 0.49895 0.0682 0.54447 0.0
C1082 C 0.47503 0.06936 0.58374 0.0
C1083 C 0.48296 0.09736 0.57935 0.0
C1084 C 0.49836 0.11052 0.55696 0.0
C1085 C 0.50625 0.09605 0.53963 0.0
C1086 C 0.47682 0.11312 0.59929 0.0
C1087 C 0.4865 0.11414 0.62483 0.0
C1088 C 0.46234 0.12753 0.59338 0.0
C1089 C 0.45062 0.12628 0.56703 0.0
C1090 C 0.45767 0.15101 0.5536 0.0
C1091 C 0.44677 0.14985 0.5287 0.0
C1092 C 0.42867 0.12407 0.51706 0.0
C1093 C 0.42137 0.09938 0.53033 0.0
C1094 C 0.4322 0.10043 0.55525 0.0
C1095 C 0.49273 0.20347 0.68741 0.0
C1096 C 0.46748 0.19848 0.69851 0.0
C1097 C 0.49295 0.18664 0.66726 0.0
C1098 C 0.46798 0.16431 0.65767 0.0
C1099 C 0.44255 0.15985 0.66779 0.0
C1100 C 0.44229 0.17679 0.68816 0.0
C1101 C 0.46909 0.14483 0.63835 0.0
C1102 C 0.45871 0.14328 0.61302 0.0
C1103 C 0.48276 0.12968 0.64441 0.0
C1104 C 0.49365 0.13004 0.671 0.0
C1105 C 0.47595 0.12233 0.69265 0.0
C1106 C 0.4865 0.12333 0.71769 0.0
C1107 C 0.51467 0.13183 0.72131 0.0
C1108 C 0.53233 0.13924 0.69989 0.0
C1109 C 0.52191 0.13831 0.67481 0.0
H1110 H 0.52282 0.13267 0.7407 0.0
H1111 H 0.42027 0.12322 0.49777 0.0
H1112 H 0.44088 0.55937 0.02095 0.0
H1113 H 0.40765 0.56171 0.05099 0.0
H1114 H 0.37623 0.47555 0.07124 0.0
H1115 H 0.40969 0.47332 0.04193 0.0
H1116 H 0.33433 0.49253 0.0632 0.0
H1117 H 0.42518 0.523 0.10606 0.0
H1118 H 0.47578 0.55546 0.11057 0.0
H1119 H 0.46094 0.62385 0.12224 0.0
H1120 H 0.4103 0.59193 0.11713 0.0
H1121 H 0.2778 0.44643 0.18283 0.0
H1122 H 0.30637 0.46204 0.14429 0.0
H1123 H 0.33069 0.54746 0.16271 0.0
H1124 H 0.30222 0.53181 0.20237 0.0
H1125 H 0.37471 0.54358 0.14631 0.0
H1126 H 0.28506 0.51426 0.11246 0.0
H1127 H 0.23425 0.48443 0.10666 0.0
H1128 H 0.24563 0.4183 0.07652 0.0
H1129 H 0.29649 0.44753 0.08252 0.0
C1130 C 0.42635 0.54077 0.03133 0.0
C1131 C 0.42774 0.51612 0.02915 0.0
C1132 C 0.40758 0.5422 0.04857 0.0
C1133 C 0.3897 0.51885 0.06339 0.0
C1134 C 0.38989 0.49377 0.05994 0.0
C1135 C 0.40897 0.49251 0.0432 0.0
C1136 C 0.37201 0.52051 0.08398 0.0
C1137 C 0.34305 0.50378 0.08135 0.0
C1138 C 0.38351 0.53621 0.10717 0.0
C1139 C 0.41396 0.55515 0.11071 0.0
C1140 C 0.43271 0.545 0.10928 0.0
C1141 C 0.4614 0.5633 0.11198 0.0
C1142 C 0.47155 0.59172 0.11647 0.0
C1143 C 0.45304 0.60186 0.11858 0.0
C1144 C 0.42436 0.58369 0.11574 0.0
C1145 C 0.28906 0.46858 0.17879 0.0
C1146 C 0.28749 0.48787 0.19559 0.0
C1147 C 0.30533 0.47747 0.15656 0.0
C1148 C 0.32013 0.50585 0.15017 0.0
C1149 C 0.31918 0.52541 0.16712 0.0
C1150 C 0.30292 0.51646 0.18971 0.0
C1151 C 0.33694 0.51439 0.12603 0.0
C1152 C 0.36576 0.533 0.12794 0.0
C1153 C 0.32528 0.50084 0.10192 0.0
C1154 C 0.29466 0.48314 0.098 0.0
C1155 C 0.27674 0.49331 0.10471 0.0
C1156 C 0.24791 0.4765 0.10138 0.0
C1157 C 0.23672 0.44949 0.09123 0.0
C1158 C 0.25434 0.43924 0.08435 0.0
C1159 C 0.28318 0.45595 0.08766 0.0
H1160 H 0.2144 0.4365 0.08869 0.0
H1161 H 0.49374 0.60592 0.11831 0.0
H1162 H 0.98659 0.47026 0.58856 0.0
H1163 H 0.956 0.43676 0.62037 0.0
H1164 H 0.91276 0.37651 0.55891 0.0
H1165 H 0.94268 0.41079 0.52659 0.0
H1166 H 0.87646 0.3759 0.59049 0.0
H1167 H 0.96025 0.37226 0.60337 0.0
H1168 H 0.01049 0.39087 0.61118 0.0
H1169 H 0.00509 0.42548 0.68448 0.0
H1170 H 0.95487 0.40738 0.67695 0.0
H1171 H 0.81809 0.25502 0.67105 0.0
H1172 H 0.84312 0.29216 0.63954 0.0
H1173 H 0.86813 0.35377 0.70094 0.0
H1174 H 0.84251 0.3165 0.73266 0.0
H1175 H 0.91264 0.35507 0.67085 0.0
H1176 H 0.82663 0.35446 0.65773 0.0
H1177 H 0.77616 0.33297 0.64921 0.0
H1178 H 0.78574 0.30248 0.57518 0.0
H1179 H 0.83624 0.32346 0.58342 0.0
C1180 C 0.97089 0.44974 0.58176 0.0
C1181 C 0.96726 0.44307 0.55502 0.0
C1182 C 0.95338 0.43053 0.60005 0.0
C1183 C 0.93231 0.40386 0.59218 0.0
C1184 C 0.92889 0.39694 0.5655 0.0
C1185 C 0.94612 0.41643 0.54705 0.0
C1186 C 0.91338 0.38367 0.61179 0.0
C1187 C 0.88443 0.37108 0.60787 0.0
C1188 C 0.92366 0.37783 0.63487 0.0
C1189 C 0.95385 0.38869 0.63948 0.0
C1190 C 0.96982 0.38401 0.62107 0.0
C1191 C 0.99828 0.39444 0.62546 0.0
C1192 C 0.01099 0.40941 0.64828 0.0
C1193 C 0.99523 0.41391 0.6668 0.0
C1194 C 0.96676 0.40355 0.66249 0.0
C1195 C 0.82839 0.27653 0.67773 0.0
C1196 C 0.82846 0.28296 0.70424 0.0
C1197 C 0.8426 0.2977 0.65971 0.0
C1198 C 0.85745 0.32565 0.66794 0.0
C1199 C 0.85668 0.33227 0.69426 0.0
C1200 C 0.84196 0.31105 0.71228 0.0
C1201 C 0.87593 0.34735 0.6494 0.0
C1202 C 0.90479 0.36012 0.65352 0.0
C1203 C 0.86557 0.35293 0.62635 0.0
C1204 C 0.8352 0.34034 0.6213 0.0
C1205 C 0.81795 0.34297 0.63973 0.0
C1206 C 0.78933 0.33092 0.63493 0.0
C1207 C 0.77774 0.31632 0.61169 0.0
C1208 C 0.79475 0.31378 0.59318 0.0
C1209 C 0.82338 0.32578 0.59789 0.0
H1210 H 0.75558 0.307 0.60801 0.0
H1211 H 0.03303 0.41746 0.65164 0.0
H1212 H 0.55297 0.96347 0.05219 0.0
H1213 H 0.54812 0.92599 0.08055 0.0
H1214 H 0.46252 0.875 0.05532 0.0
H1215 H 0.4678 0.91199 0.02601 0.0
H1216 H 0.5175 0.91123 0.12036 0.0
H1217 H 0.43765 0.80671 0.07037 0.0
H1218 H 0.42616 0.78548 0.02643 0.0
H1219 H 0.51029 0.84034 1.00227 0.0
H1220 H 0.52238 0.86163 0.04614 0.0
H1221 H 0.46272 0.81289 0.21958 0.0
H1222 H 0.46275 0.83781 0.18021 0.0
H1223 H 0.50698 0.80393 0.13913 0.0
H1224 H 0.5064 0.77843 0.17789 0.0
H1225 H 0.47311 0.80897 0.10653 0.0
H1226 H 0.54044 0.86668 0.17076 0.0
H1227 H 0.55795 0.88903 0.21365 0.0
H1228 H 0.51043 0.93075 0.20683 0.0
H1229 H 0.49154 0.90761 0.16443 0.0
C1230 C 0.53349 0.94381 0.05193 0.0
C1231 C 0.51079 0.94059 0.0369 0.0
C1232 C 0.53063 0.92248 0.06832 0.0
C1233 C 0.50486 0.8977 0.07035 0.0
C1234 C 0.48273 0.89369 0.05392 0.0
C1235 C 0.48578 0.91486 0.03708 0.0
C1236 C 0.50031 0.87793 0.09184 0.0
C1237 C 0.50785 0.88888 0.11723 0.0
C1238 C 0.48782 0.84874 0.0879 0.0
C1239 C 0.48082 0.83595 0.06149 0.0
C1240 C 0.45372 0.81418 0.05571 0.0
C1241 C 0.4471 0.80214 0.03081 0.0
C1242 C 0.46746 0.81162 0.01155 0.0
C1243 C 0.49451 0.8331 0.01717 0.0
C1244 C 0.50124 0.84519 0.04204 0.0
C1245 C 0.47186 0.81022 0.202 0.0
C1246 C 0.48496 0.79403 0.20204 0.0
C1247 C 0.47194 0.82454 0.17957 0.0
C1248 C 0.4854 0.82323 0.15695 0.0
C1249 C 0.49659 0.80541 0.15637 0.0
C1250 C 0.49633 0.79091 0.17866 0.0
C1251 C 0.49031 0.84238 0.13487 0.0
C1252 C 0.4827 0.83133 0.10951 0.0
C1253 C 0.50353 0.87165 0.13867 0.0
C1254 C 0.51429 0.88509 0.16452 0.0
C1255 C 0.53334 0.88025 0.17858 0.0
C1256 C 0.54345 0.89301 0.20286 0.0
C1257 C 0.53509 0.91109 0.21309 0.0
C1258 C 0.51664 0.91649 0.19902 0.0
C1259 C 0.50611 0.90346 0.17491 0.0
H1260 H 0.54303 0.92104 0.23184 0.0
H1261 H 0.46229 0.80228 0.99228 0.0
H1262 H 0.57801 0.57857 0.57761 0.0
H1263 H 0.61784 0.59337 0.60696 0.0
H1264 H 0.65577 0.56352 0.55199 0.0
H1265 H 0.61602 0.54885 0.5223 0.0
H1266 H 0.6303 0.55791 0.62924 0.0
H1267 H 0.7267 0.59804 0.56232 0.0
H1268 H 0.74434 0.62476 0.52178 0.0
H1269 H 0.69629 0.66493 0.53562 0.0
H1270 H 0.67866 0.63877 0.57643 0.0
H1271 H 0.73206 0.53163 0.67699 0.0
H1272 H 0.70452 0.53973 0.64484 0.0
H1273 H 0.74067 0.62511 0.67099 0.0
H1274 H 0.76849 0.61708 0.70389 0.0
H1275 H 0.73169 0.61232 0.61141 0.0
H1276 H 0.68416 0.58983 0.69417 0.0
H1277 H 0.66682 0.56222 0.73431 0.0
H1278 H 0.61666 0.48822 0.68864 0.0
H1279 H 0.634 0.51526 0.64829 0.0
C1280 C 0.59507 0.57566 0.57144 0.0
C1281 C 0.59367 0.56228 0.54764 0.0
C1282 C 0.61785 0.58414 0.58831 0.0
C1283 C 0.63983 0.57957 0.58175 0.0
C1284 C 0.63925 0.56761 0.55737 0.0
C1285 C 0.61643 0.55913 0.54043 0.0
C1286 C 0.66146 0.58415 0.6016 0.0
C1287 C 0.65245 0.57016 0.62539 0.0
C1288 C 0.69042 0.60014 0.5967 0.0
C1289 C 0.7012 0.61626 0.57235 0.0
C1290 C 0.72 0.61268 0.55679 0.0
C1291 C 0.72998 0.62771 0.53374 0.0
C1292 C 0.72139 0.64648 0.5261 0.0
C1293 C 0.70285 0.65032 0.54152 0.0
C1294 C 0.69283 0.63535 0.56459 0.0
C1295 C 0.73457 0.55231 0.67582 0.0
C1296 C 0.75228 0.57365 0.69327 0.0
C1297 C 0.71881 0.55689 0.65732 0.0
C1298 C 0.72041 0.58291 0.65569 0.0
C1299 C 0.73923 0.60487 0.67196 0.0
C1300 C 0.75505 0.60025 0.69074 0.0
C1301 C 0.7003 0.58575 0.6386 0.0
C1302 C 0.70953 0.60073 0.61533 0.0
C1303 C 0.67144 0.57074 0.6439 0.0
C1304 C 0.66056 0.55455 0.66821 0.0
C1305 C 0.66958 0.56763 0.6927 0.0
C1306 C 0.65972 0.55209 0.7155 0.0
C1307 C 0.64072 0.52348 0.71402 0.0
C1308 C 0.63139 0.51037 0.68978 0.0
C1309 C 0.6412 0.5258 0.66694 0.0
H1310 H 0.63327 0.51148 0.73166 0.0
H1311 H 0.72912 0.65807 0.50824 0.0
H1312 H 0.11255 0.60774 0.01666 0.0
H1313 H 0.13734 0.65048 0.04319 0.0
H1314 H 0.06472 0.62263 0.09125 0.0
H1315 H 0.03987 0.58054 0.06482 0.0
H1316 H 0.08726 0.67671 0.08249 0.0
H1317 H 0.12075 0.61454 0.10938 0.0
H1318 H 0.14285 0.58581 0.10254 0.0
H1319 H 0.21743 0.65789 0.07626 0.0
H1320 H 0.19561 0.68698 0.08265 0.0
H1321 H 0.13274 0.73286 0.20867 0.0
H1322 H 0.11406 0.70666 0.16819 0.0
H1323 H 0.19556 0.7512 0.13375 0.0
H1324 H 0.21455 0.77743 0.17443 0.0
H1325 H 0.17396 0.6959 0.12888 0.0
H1326 H 0.14191 0.75945 0.11049 0.0
H1327 H 0.11911 0.78717 0.11923 0.0
H1328 H 0.0411 0.71198 0.13104 0.0
H1329 H 0.0635 0.68379 0.12274 0.0
C1330 C 0.10183 0.61087 0.03274 0.0
C1331 C 0.07427 0.59057 0.03867 0.0
C1332 C 0.11605 0.63527 0.04795 0.0
C1333 C 0.103 0.63971 0.06942 0.0
C1334 C 0.07526 0.61981 0.0748 0.0
C1335 C 0.0611 0.59558 0.05968 0.0
C1336 C 0.11819 0.66426 0.08718 0.0
C1337 C 0.1062 0.68089 0.09267 0.0
C1338 C 0.14333 0.67028 0.09998 0.0
C1339 C 0.15644 0.65283 0.09616 0.0
C1340 C 0.14179 0.6242 0.10194 0.0
C1341 C 0.15427 0.60787 0.09819 0.0
C1342 C 0.18149 0.62 0.08888 0.0
C1343 C 0.19632 0.64851 0.0834 0.0
C1344 C 0.18391 0.66493 0.08709 0.0
C1345 C 0.14661 0.73764 0.19231 0.0
C1346 C 0.17519 0.75718 0.19491 0.0
C1347 C 0.13585 0.72265 0.16908 0.0
C1348 C 0.15337 0.72692 0.14783 0.0
C1349 C 0.18163 0.7475 0.14986 0.0
C1350 C 0.19242 0.76263 0.17311 0.0
C1351 C 0.14261 0.7079 0.12475 0.0
C1352 C 0.15539 0.69223 0.11829 0.0
C1353 C 0.11808 0.70264 0.11122 0.0
C1354 C 0.10445 0.7195 0.11612 0.0
C1355 C 0.11993 0.74882 0.11513 0.0
C1356 C 0.10707 0.76462 0.11997 0.0
C1357 C 0.07869 0.75134 0.12572 0.0
C1358 C 0.06309 0.72223 0.12658 0.0
C1359 C 0.07585 0.70633 0.12176 0.0
H1360 H 0.06877 0.76361 0.12948 0.0
H1361 H 0.19113 0.60732 0.08599 0.0
loop_
_geom_bond_atom_site_label_1
_geom_bond_atom_site_label_2
_geom_bond_distance
_geom_bond_site_symmetry_2
_ccdc_geom_bond_type
C0 O2 1.247 . S
C0 O4 1.258 . S
C1 O8 1.247 1_655 S
C1 O9 1.258 1_556 S
O2 C0 1.247 . S
O2 Zn3 2.028 1_455 S
Zn3 O2 2.028 1_655 S
Zn3 O7 2.035 . S
Zn3 O9 2.035 . S
Zn3 O10 2.028 1_655 S
O4 C0 1.258 . S
O4 Zn5 2.035 1_554 S
Zn5 O4 2.035 1_556 S
Zn5 O6 2.028 . S
Zn5 O8 2.028 . S
Zn5 O11 2.035 1_556 S
O6 Zn5 2.028 . S
O6 C12 1.247 1_455 S
O7 Zn3 2.035 . S
O7 C12 1.258 1_554 S
O8 C1 1.247 1_455 S
O8 Zn5 2.028 . S
O9 C1 1.258 1_554 S
O9 Zn3 2.035 . S
O10 Zn3 2.028 1_455 S
O10 C13 1.247 . S
O11 Zn5 2.035 1_554 S
O11 C13 1.258 . S
C12 O6 1.247 1_655 S
C12 O7 1.258 1_556 S
C13 O10 1.247 . S
C13 O11 1.258 . S
C14 O16 1.247 . S
C14 O18 1.258 . S
C15 O22 1.247 1_565 S
C15 O23 1.258 . S
O16 C14 1.247 . S
O16 Zn17 2.028 1_545 S
Zn17 O16 2.028 1_565 S
Zn17 O21 2.035 . S
Zn17 O23 2.035 . S
Zn17 O24 2.028 1_565 S
O18 C14 1.258 . S
O18 Zn19 2.035 . S
Zn19 O18 2.035 . S
Zn19 O20 2.028 . S
Zn19 O22 2.028 . S
Zn19 O25 2.035 . S
O20 Zn19 2.028 . S
O20 C26 1.247 1_545 S
O21 Zn17 2.035 . S
O21 C26 1.258 . S
O22 C15 1.247 1_545 S
O22 Zn19 2.028 . S
O23 C15 1.258 . S
O23 Zn17 2.035 . S
O24 Zn17 2.028 1_545 S
O24 C27 1.247 . S
O25 Zn19 2.035 . S
O25 C27 1.258 . S
C26 O20 1.247 1_565 S
C26 O21 1.258 . S
C27 O24 1.247 . S
C27 O25 1.258 . S
C28 O30 1.247 . S
C28 O32 1.258 1_556 S
C29 O36 1.247 . S
C29 O37 1.258 . S
O30 C28 1.247 . S
O30 Zn31 2.028 . S
Zn31 O30 2.028 . S
Zn31 O35 2.035 1_556 S
Zn31 O37 2.035 1_556 S
Zn31 O38 2.028 . S
O32 C28 1.258 1_554 S
O32 Zn33 2.035 . S
Zn33 O32 2.035 . S
Zn33 O34 2.028 . S
Zn33 O36 2.028 . S
Zn33 O39 2.035 . S
O34 Zn33 2.028 . S
O34 C40 1.247 . S
O35 Zn31 2.035 1_554 S
O35 C40 1.258 . S
O36 C29 1.247 . S
O36 Zn33 2.028 . S
O37 C29 1.258 . S
O37 Zn31 2.035 1_554 S
O38 Zn31 2.028 . S
O38 C41 1.247 . S
O39 Zn33 2.035 . S
O39 C41 1.258 1_554 S
C40 O34 1.247 . S
C40 O35 1.258 . S
C41 O38 1.247 . S
C41 O39 1.258 1_556 S
C42 O44 1.247 . S
C42 O46 1.259 . S
C43 O50 1.247 . S
C43 O51 1.258 1_655 S
O44 C42 1.247 . S
O44 Zn45 2.028 . S
Zn45 O44 2.028 . S
Zn45 O49 2.035 . S
Zn45 O51 2.035 . S
Zn45 O52 2.028 . S
O46 C42 1.259 . S
O46 Zn47 2.035 1_455 S
Zn47 O46 2.035 1_655 S
Zn47 O48 2.028 . S
Zn47 O50 2.028 . S
Zn47 O53 2.034 1_655 S
O48 Zn47 2.028 . S
O48 C54 1.247 . S
O49 Zn45 2.035 . S
O49 C54 1.258 1_455 S
O50 C43 1.247 . S
O50 Zn47 2.028 . S
O51 C43 1.258 1_455 S
O51 Zn45 2.035 . S
O52 Zn45 2.028 . S
O52 C55 1.247 . S
O53 Zn47 2.034 1_455 S
O53 C55 1.259 . S
C54 O48 1.247 . S
C54 O49 1.258 1_655 S
C55 O52 1.247 . S
C55 O53 1.259 . S
C56 O58 1.247 1_565 S
C56 O60 1.258 . S
C57 O64 1.247 . S
C57 O65 1.221 1_556 S
O58 C56 1.247 1_545 S
O58 Zn59 2.028 . S
Zn59 O58 2.028 . S
Zn59 O63 2.067 . S
Zn59 O65 2.067 . S
Zn59 O66 2.028 . S
O60 C56 1.258 . S
O60 Zn61 2.035 1_554 S
Zn61 O60 2.035 1_556 S
Zn61 O62 2.028 1_565 S
Zn61 O64 2.028 1_565 S
Zn61 O67 2.035 1_556 S
O62 Zn61 2.028 1_545 S
O62 C68 1.247 . S
O63 Zn59 2.067 . S
O63 C68 1.221 1_554 S
O64 C57 1.247 . S
O64 Zn61 2.028 1_545 S
O65 C57 1.221 1_554 S
O65 Zn59 2.067 . S
O66 Zn59 2.028 . S
O66 C69 1.247 1_545 S
O67 Zn61 2.035 1_554 S
O67 C69 1.258 . S
C68 O62 1.247 . S
C68 O63 1.221 1_556 S
C69 O66 1.247 1_565 S
C69 O67 1.258 . S
C70 O72 1.247 . S
C70 O74 1.258 . S
C71 O78 1.247 . S
C71 O79 1.258 . S
O72 C70 1.247 . S
O72 Zn73 2.028 . S
Zn73 O72 2.028 . S
Zn73 O77 2.035 . S
Zn73 O79 2.035 . S
Zn73 O80 2.028 . S
O74 C70 1.258 . S
O74 Zn75 2.035 . S
Zn75 O74 2.035 . S
Zn75 O76 2.028 . S
Zn75 O78 2.028 . S
Zn75 O81 2.035 . S
O76 Zn75 2.028 . S
O76 C82 1.247 . S
O77 Zn73 2.035 . S
O77 C82 1.258 . S
O78 C71 1.247 . S
O78 Zn75 2.028 . S
O79 C71 1.258 . S
O79 Zn73 2.035 . S
O80 Zn73 2.028 . S
O80 C83 1.247 . S
O81 Zn75 2.035 . S
O81 C83 1.258 . S
C82 O76 1.247 . S
C82 O77 1.258 . S
C83 O80 1.247 . S
C83 O81 1.258 . S
Mg84 O91 2.141 . S
Mg84 O92 2.048 . S
Mg84 O93 2.048 . S
Mg84 O96 2.141 . S
C85 O86 1.313 . S
C85 O92 1.195 . S
O86 C85 1.313 . S
C87 O88 1.245 . S
C87 O96 1.289 . S
O88 C87 1.245 . S
C89 O90 1.245 . S
C89 O91 1.289 . S
O90 C89 1.245 . S
O91 Mg84 2.141 . S
O91 C89 1.289 . S
O92 Mg84 2.048 . S
O92 C85 1.195 . S
O93 Mg84 2.048 . S
O93 C94 1.195 . S
C94 O93 1.195 . S
C94 O95 1.313 . S
O95 C94 1.313 . S
O96 Mg84 2.141 . S
O96 C87 1.289 . S
Mg97 O104 2.141 . S
Mg97 O105 2.048 . S
Mg97 O106 2.048 . S
Mg97 O109 2.141 . S
C98 O99 1.313 . S
C98 O105 1.195 . S
O99 C98 1.313 . S
C100 O101 1.245 . S
C100 O109 1.289 . S
O101 C100 1.245 . S
C102 O103 1.245 . S
C102 O104 1.289 . S
O103 C102 1.245 . S
O104 Mg97 2.141 . S
O104 C102 1.289 . S
O105 Mg97 2.048 . S
O105 C98 1.195 . S
O106 Mg97 2.048 . S
O106 C107 1.195 . S
C107 O106 1.195 . S
C107 O108 1.313 . S
O108 C107 1.313 . S
O109 Mg97 2.141 . S
O109 C100 1.289 . S
Mg110 O117 2.141 . S
Mg110 O118 2.048 . S
Mg110 O119 2.048 . S
Mg110 O122 2.141 . S
C111 O112 1.313 . S
C111 O118 1.195 . S
O112 C111 1.313 . S
C113 O114 1.245 . S
C113 O122 1.289 . S
O114 C113 1.245 . S
C115 O116 1.245 . S
C115 O117 1.289 . S
O116 C115 1.245 . S
O117 Mg110 2.141 . S
O117 C115 1.289 . S
O118 Mg110 2.048 . S
O118 C111 1.195 . S
O119 Mg110 2.048 . S
O119 C120 1.195 . S
C120 O119 1.195 . S
C120 O121 1.313 . S
O121 C120 1.313 . S
O122 Mg110 2.141 . S
O122 C113 1.289 . S
Mg123 O130 2.141 . S
Mg123 O131 2.048 . S
Mg123 O132 2.048 . S
Mg123 O135 2.141 . S
C124 O125 1.313 . S
C124 O131 1.195 . S
O125 C124 1.313 . S
C126 O127 1.245 . S
C126 O135 1.289 . S
O127 C126 1.245 . S
C128 O129 1.245 . S
C128 O130 1.289 . S
O129 C128 1.245 . S
O130 Mg123 2.141 . S
O130 C128 1.289 . S
O131 Mg123 2.048 . S
O131 C124 1.195 . S
O132 Mg123 2.048 . S
O132 C133 1.195 . S
C133 O132 1.195 . S
C133 O134 1.313 . S
O134 C133 1.313 . S
O135 Mg123 2.141 . S
O135 C126 1.289 . S
Mg136 O143 2.141 . S
Mg136 O144 2.048 . S
Mg136 O145 2.048 . S
Mg136 O148 2.141 . S
C137 O138 1.313 . S
C137 O144 1.195 . S
O138 C137 1.313 . S
C139 O140 1.245 . S
C139 O148 1.289 . S
O140 C139 1.245 . S
C141 O142 1.245 . S
C141 O143 1.289 . S
O142 C141 1.245 . S
O143 Mg136 2.141 . S
O143 C141 1.289 . S
O144 Mg136 2.048 . S
O144 C137 1.195 . S
O145 Mg136 2.048 . S
O145 C146 1.195 . S
C146 O145 1.195 . S
C146 O147 1.313 . S
O147 C146 1.313 . S
O148 Mg136 2.141 . S
O148 C139 1.289 . S
Mg149 O156 2.141 . S
Mg149 O157 2.048 . S
Mg149 O158 2.048 . S
Mg149 O161 2.141 . S
C150 O151 1.313 . S
C150 O157 1.195 . S
O151 C150 1.313 . S
C152 O153 1.245 . S
C152 O161 1.289 . S
O153 C152 1.245 . S
C154 O155 1.245 . S
C154 O156 1.289 . S
O155 C154 1.245 . S
O156 Mg149 2.141 . S
O156 C154 1.289 . S
O157 Mg149 2.048 . S
O157 C150 1.195 . S
O158 Mg149 2.048 . S
O158 C159 1.195 . S
C159 O158 1.195 . S
C159 O160 1.313 . S
O160 C159 1.313 . S
O161 Mg149 2.141 . S
O161 C152 1.289 . S
H162 C180 0.951 . S
H163 C182 0.951 . S
H164 C184 0.950 . S
H165 C185 0.950 . S
H166 C187 0.950 . S
H167 C190 0.950 . S
H168 C191 0.950 . S
H169 C193 0.950 . S
H170 C194 0.950 . S
H171 C195 0.951 . S
H172 C197 0.951 . S
H173 C199 0.950 . S
H174 C200 0.950 . S
H175 C202 0.950 . S
H176 C205 0.950 . S
H177 C206 0.950 . S
H178 C208 0.950 . S
H179 C209 0.950 . S
C180 H162 0.951 . S
C180 C181 1.366 . S
C180 C182 1.388 . S
C181 C180 1.366 . S
C181 C185 1.385 . S
C182 H163 0.951 . S
C182 C180 1.388 . S
C182 C183 1.366 . S
C183 C182 1.366 . S
C183 C184 1.414 . S
C183 C186 1.499 . S
C184 H164 0.950 . S
C184 C183 1.414 . S
C184 C185 1.374 . S
C185 H165 0.950 . S
C185 C181 1.385 . S
C185 C184 1.374 . S
C186 C183 1.499 . S
C186 C187 1.373 . S
C186 C188 1.389 . S
C187 H166 0.950 . S
C187 C186 1.373 . S
C187 C203 1.377 . S
C188 C186 1.389 . S
C188 C189 1.524 . S
C188 C202 1.377 . S
C189 C188 1.524 . S
C189 C190 1.397 . S
C189 C194 1.363 . S
C190 H167 0.950 . S
C190 C189 1.397 . S
C190 C191 1.334 . S
C191 H168 0.950 . S
C191 C190 1.334 . S
C191 C192 1.287 . S
C192 C191 1.287 . S
C192 C193 1.524 . S
C192 H211 0.913 . S
C193 H169 0.950 . S
C193 C192 1.524 . S
C193 C194 1.415 . S
C194 H170 0.950 . S
C194 C189 1.363 . S
C194 C193 1.415 . S
C195 H171 0.951 . S
C195 C196 1.366 . S
C195 C197 1.388 . S
C196 C195 1.366 . S
C196 C200 1.385 . S
C197 H172 0.951 . S
C197 C195 1.388 . S
C197 C198 1.366 . S
C198 C197 1.366 . S
C198 C199 1.414 . S
C198 C201 1.499 . S
C199 H173 0.950 . S
C199 C198 1.414 . S
C199 C200 1.374 . S
C200 H174 0.950 . S
C200 C196 1.385 . S
C200 C199 1.374 . S
C201 C198 1.499 . S
C201 C202 1.373 . S
C201 C203 1.389 . S
C202 H175 0.950 . S
C202 C188 1.377 . S
C202 C201 1.373 . S
C203 C187 1.377 . S
C203 C201 1.389 . S
C203 C204 1.524 . S
C204 C203 1.524 . S
C204 C205 1.397 . S
C204 C209 1.363 . S
C205 H176 0.950 . S
C205 C204 1.397 . S
C205 C206 1.334 . S
C206 H177 0.950 . S
C206 C205 1.334 . S
C206 C207 1.287 . S
C207 C206 1.287 . S
C207 C208 1.524 . S
C207 H210 0.999 . S
C208 H178 0.950 . S
C208 C207 1.524 . S
C208 C209 1.415 . S
C209 H179 0.950 . S
C209 C204 1.363 . S
C209 C208 1.415 . S
H210 C207 0.999 . S
H211 C192 0.913 . S
H212 C230 0.951 . S
H213 C232 0.951 . S
H214 C234 0.950 . S
H215 C235 0.950 . S
H216 C237 0.950 . S
H217 C240 0.950 . S
H218 C241 0.950 . S
H219 C243 0.950 . S
H220 C244 0.950 . S
H221 C245 0.951 . S
H222 C247 0.951 . S
H223 C249 0.950 . S
H224 C250 0.950 . S
H225 C252 0.950 . S
H226 C255 0.950 . S
H227 C256 0.950 . S
H228 C258 0.950 . S
H229 C259 0.950 . S
C230 H212 0.951 . S
C230 C231 1.366 . S
C230 C232 1.388 . S
C231 C230 1.366 . S
C231 C235 1.385 . S
C232 H213 0.951 . S
C232 C230 1.388 . S
C232 C233 1.366 . S
C233 C232 1.366 . S
C233 C234 1.414 . S
C233 C236 1.499 . S
C234 H214 0.950 . S
C234 C233 1.414 . S
C234 C235 1.374 . S
C235 H215 0.950 . S
C235 C231 1.385 . S
C235 C234 1.374 . S
C236 C233 1.499 . S
C236 C237 1.373 . S
C236 C238 1.389 . S
C237 H216 0.950 . S
C237 C236 1.373 . S
C237 C253 1.377 . S
C238 C236 1.389 . S
C238 C239 1.524 . S
C238 C252 1.377 . S
C239 C238 1.524 . S
C239 C240 1.397 . S
C239 C244 1.363 . S
C240 H217 0.950 . S
C240 C239 1.397 . S
C240 C241 1.334 . S
C241 H218 0.950 . S
C241 C240 1.334 . S
C241 C242 1.287 . S
C242 C241 1.287 . S
C242 C243 1.524 . S
C242 H261 0.913 . S
C243 H219 0.950 . S
C243 C242 1.524 . S
C243 C244 1.415 . S
C244 H220 0.950 . S
C244 C239 1.363 . S
C244 C243 1.415 . S
C245 H221 0.951 . S
C245 C246 1.366 . S
C245 C247 1.388 . S
C246 C245 1.366 . S
C246 C250 1.385 . S
C247 H222 0.951 . S
C247 C245 1.388 . S
C247 C248 1.366 . S
C248 C247 1.366 . S
C248 C249 1.414 . S
C248 C251 1.499 . S
C249 H223 0.950 . S
C249 C248 1.414 . S
C249 C250 1.374 . S
C250 H224 0.950 . S
C250 C246 1.385 . S
C250 C249 1.374 . S
C251 C248 1.499 . S
C251 C252 1.373 . S
C251 C253 1.389 . S
C252 H225 0.950 . S
C252 C238 1.377 . S
C252 C251 1.373 . S
C253 C237 1.377 . S
C253 C251 1.389 . S
C253 C254 1.524 . S
C254 C253 1.524 . S
C254 C255 1.397 . S
C254 C259 1.363 . S
C255 H226 0.950 . S
C255 C254 1.397 . S
C255 C256 1.334 . S
C256 H227 0.950 . S
C256 C255 1.334 . S
C256 C257 1.287 . S
C257 C256 1.287 . S
C257 C258 1.524 . S
C257 H260 0.999 . S
C258 H228 0.950 . S
C258 C257 1.524 . S
C258 C259 1.415 . S
C259 H229 0.950 . S
C259 C254 1.363 . S
C259 C258 1.415 . S
H260 C257 0.999 . S
H261 C242 0.913 . S
H262 C280 0.951 . S
H263 C282 0.951 . S
H264 C284 0.950 . S
H265 C285 0.950 . S
H266 C287 0.950 . S
H267 C290 0.950 . S
H268 C291 0.950 . S
H269 C293 0.950 . S
H270 C294 0.950 . S
H271 C295 0.951 . S
H272 C297 0.951 . S
H273 C299 0.950 . S
H274 C300 0.950 . S
H275 C302 0.950 . S
H276 C305 0.950 . S
H277 C306 0.950 . S
H278 C308 0.950 . S
H279 C309 0.950 . S
C280 H262 0.951 . S
C280 C281 1.366 . S
C280 C282 1.388 . S
C281 C280 1.366 . S
C281 C285 1.385 . S
C282 H263 0.951 . S
C282 C280 1.388 . S
C282 C283 1.366 . S
C283 C282 1.366 . S
C283 C284 1.414 . S
C283 C286 1.499 . S
C284 H264 0.950 . S
C284 C283 1.414 . S
C284 C285 1.374 . S
C285 H265 0.950 . S
C285 C281 1.385 . S
C285 C284 1.374 . S
C286 C283 1.499 . S
C286 C287 1.373 . S
C286 C288 1.389 . S
C287 H266 0.950 . S
C287 C286 1.373 . S
C287 C303 1.377 . S
C288 C286 1.389 . S
C288 C289 1.524 . S
C288 C302 1.377 . S
C289 C288 1.524 . S
C289 C290 1.397 . S
C289 C294 1.363 . S
C290 H267 0.950 . S
C290 C289 1.397 . S
C290 C291 1.334 . S
C291 H268 0.950 . S
C291 C290 1.334 . S
C291 C292 1.287 . S
C292 C291 1.287 . S
C292 C293 1.524 . S
C292 H311 0.913 . S
C293 H269 0.950 . S
C293 C292 1.524 . S
C293 C294 1.415 . S
C294 H270 0.950 . S
C294 C289 1.363 . S
C294 C293 1.415 . S
C295 H271 0.951 . S
C295 C296 1.366 . S
C295 C297 1.388 . S
C296 C295 1.366 . S
C296 C300 1.385 . S
C297 H272 0.951 . S
C297 C295 1.388 . S
C297 C298 1.366 . S
C298 C297 1.366 . S
C298 C299 1.414 . S
C298 C301 1.499 . S
C299 H273 0.950 . S
C299 C298 1.414 . S
C299 C300 1.374 . S
C300 H274 0.950 . S
C300 C296 1.385 . S
C300 C299 1.374 . S
C301 C298 1.499 . S
C301 C302 1.373 . S
C301 C303 1.389 . S
C302 H275 0.950 . S
C302 C288 1.377 . S
C302 C301 1.373 . S
C303 C287 1.377 . S
C303 C301 1.389 . S
C303 C304 1.524 . S
C304 C303 1.524 . S
C304 C305 1.397 . S
C304 C309 1.363 . S
C305 H276 0.950 . S
C305 C304 1.397 . S
C305 C306 1.334 . S
C306 H277 0.950 . S
C306 C305 1.334 . S
C306 C307 1.287 . S
C307 C306 1.287 . S
C307 C308 1.524 . S
C307 H310 0.999 . S
C308 H278 0.950 . S
C308 C307 1.524 . S
C308 C309 1.415 . S
C309 H279 0.950 . S
C309 C304 1.363 . S
C309 C308 1.415 . S
H310 C307 0.999 . S
H311 C292 0.913 . S
H312 C330 0.951 . S
H313 C332 0.951 . S
H314 C334 0.950 . S
H315 C335 0.950 . S
H316 C337 0.950 . S
H317 C340 0.950 . S
H318 C341 0.950 . S
H319 C343 0.950 . S
H320 C344 0.950 . S
H321 C345 0.951 . S
H322 C347 0.951 . S
H323 C349 0.950 . S
H324 C350 0.950 . S
H325 C352 0.950 . S
H326 C355 0.950 . S
H327 C356 0.950 . S
H328 C358 0.950 . S
H329 C359 0.950 . S
C330 H312 0.951 . S
C330 C331 1.366 . S
C330 C332 1.388 . S
C331 C330 1.366 . S
C331 C335 1.385 . S
C332 H313 0.951 . S
C332 C330 1.388 . S
C332 C333 1.366 . S
C333 C332 1.366 . S
C333 C334 1.414 . S
C333 C336 1.499 . S
C334 H314 0.950 . S
C334 C333 1.414 . S
C334 C335 1.374 . S
C335 H315 0.950 . S
C335 C331 1.385 . S
C335 C334 1.374 . S
C336 C333 1.499 . S
C336 C337 1.373 . S
C336 C338 1.389 . S
C337 H316 0.950 . S
C337 C336 1.373 . S
C337 C353 1.377 . S
C338 C336 1.389 . S
C338 C339 1.524 . S
C338 C352 1.377 . S
C339 C338 1.524 . S
C339 C340 1.397 . S
C339 C344 1.363 . S
C340 H317 0.950 . S
C340 C339 1.397 . S
C340 C341 1.334 1_655 S
C341 H318 0.950 . S
C341 C340 1.334 1_455 S
C341 C342 1.287 . S
C342 C341 1.287 . S
C342 C343 1.524 1_455 S
C342 H361 0.913 . S
C343 H319 0.950 . S
C343 C342 1.524 1_655 S
C343 C344 1.415 . S
C344 H320 0.950 . S
C344 C339 1.363 . S
C344 C343 1.415 . S
C345 H321 0.951 . S
C345 C346 1.366 . S
C345 C347 1.388 . S
C346 C345 1.366 . S
C346 C350 1.385 . S
C347 H322 0.951 . S
C347 C345 1.388 . S
C347 C348 1.366 . S
C348 C347 1.366 . S
C348 C349 1.414 . S
C348 C351 1.499 . S
C349 H323 0.950 . S
C349 C348 1.414 . S
C349 C350 1.374 . S
C350 H324 0.950 . S
C350 C346 1.385 . S
C350 C349 1.374 . S
C351 C348 1.499 . S
C351 C352 1.373 . S
C351 C353 1.389 . S
C352 H325 0.950 . S
C352 C338 1.377 . S
C352 C351 1.373 . S
C353 C337 1.377 . S
C353 C351 1.389 . S
C353 C354 1.524 . S
C354 C353 1.524 . S
C354 C355 1.397 . S
C354 C359 1.363 . S
C355 H326 0.950 . S
C355 C354 1.397 . S
C355 C356 1.334 . S
C356 H327 0.950 . S
C356 C355 1.334 . S
C356 C357 1.287 . S
C357 C356 1.287 . S
C357 C358 1.524 . S
C357 H360 0.999 . S
C358 H328 0.950 . S
C358 C357 1.524 . S
C358 C359 1.415 . S
C359 H329 0.950 . S
C359 C354 1.363 . S
C359 C358 1.415 . S
H360 C357 0.999 . S
H361 C342 0.913 . S
H362 C380 0.951 . S
H363 C382 0.951 . S
H364 C384 0.950 . S
H365 C385 0.950 . S
H366 C387 0.950 . S
H367 C390 0.950 . S
H368 C391 0.950 . S
H369 C393 0.950 . S
H370 C394 0.950 . S
H371 C395 0.951 . S
H372 C397 0.951 . S
H373 C399 0.950 . S
H374 C400 0.950 . S
H375 C402 0.950 . S
H376 C405 0.950 . S
H377 C406 0.950 . S
H378 C408 0.950 . S
H379 C409 0.950 . S
C380 H362 0.951 . S
C380 C381 1.366 . S
C380 C382 1.388 . S
C381 C380 1.366 . S
C381 C385 1.385 . S
C382 H363 0.951 . S
C382 C380 1.388 . S
C382 C383 1.366 . S
C383 C382 1.366 . S
C383 C384 1.414 . S
C383 C386 1.499 . S
C384 H364 0.950 . S
C384 C383 1.414 . S
C384 C385 1.374 . S
C385 H365 0.950 . S
C385 C381 1.385 . S
C385 C384 1.374 . S
C386 C383 1.499 . S
C386 C387 1.373 . S
C386 C388 1.389 . S
C387 H366 0.950 . S
C387 C386 1.373 . S
C387 C403 1.377 . S
C388 C386 1.389 . S
C388 C389 1.524 . S
C388 C402 1.377 . S
C389 C388 1.524 . S
C389 C390 1.397 . S
C389 C394 1.363 . S
C390 H367 0.950 . S
C390 C389 1.397 . S
C390 C391 1.334 1_565 S
C391 H368 0.950 . S
C391 C390 1.334 1_545 S
C391 C392 1.287 . S
C392 C391 1.287 . S
C392 C393 1.524 1_545 S
C392 H411 0.913 . S
C393 H369 0.950 . S
C393 C392 1.524 1_565 S
C393 C394 1.415 . S
C394 H370 0.950 . S
C394 C389 1.363 . S
C394 C393 1.415 . S
C395 H371 0.951 . S
C395 C396 1.366 . S
C395 C397 1.388 . S
C396 C395 1.366 . S
C396 C400 1.385 . S
C397 H372 0.951 . S
C397 C395 1.388 . S
C397 C398 1.366 . S
C398 C397 1.366 . S
C398 C399 1.414 . S
C398 C401 1.499 . S
C399 H373 0.950 . S
C399 C398 1.414 . S
C399 C400 1.374 . S
C400 H374 0.950 . S
C400 C396 1.385 . S
C400 C399 1.374 . S
C401 C398 1.499 . S
C401 C402 1.373 . S
C401 C403 1.389 . S
C402 H375 0.950 . S
C402 C388 1.377 . S
C402 C401 1.373 . S
C403 C387 1.377 . S
C403 C401 1.389 . S
C403 C404 1.524 . S
C404 C403 1.524 . S
C404 C405 1.397 . S
C404 C409 1.363 . S
C405 H376 0.950 . S
C405 C404 1.397 . S
C405 C406 1.334 . S
C406 H377 0.950 . S
C406 C405 1.334 . S
C406 C407 1.287 . S
C407 C406 1.287 . S
C407 C408 1.524 . S
C407 H410 0.999 . S
C408 H378 0.950 . S
C408 C407 1.524 . S
C408 C409 1.415 . S
C409 H379 0.950 . S
C409 C404 1.363 . S
C409 C408 1.415 . S
H410 C407 0.999 . S
H411 C392 0.913 . S
H412 C430 0.951 . S
H413 C432 0.951 . S
H414 C434 0.950 . S
H415 C435 0.950 . S
H416 C437 0.950 . S
H417 C440 0.950 . S
H418 C441 0.950 . S
H419 C443 0.950 . S
H420 C444 0.950 . S
H421 C445 0.951 . S
H422 C447 0.951 . S
H423 C449 0.950 . S
H424 C450 0.950 . S
H425 C452 0.950 . S
H426 C455 0.950 . S
H427 C456 0.950 . S
H428 C458 0.950 . S
H429 C459 0.950 . S
C430 H412 0.951 . S
C430 C431 1.366 . S
C430 C432 1.388 . S
C431 C430 1.366 . S
C431 C435 1.385 . S
C432 H413 0.951 . S
C432 C430 1.388 . S
C432 C433 1.366 . S
C433 C432 1.366 . S
C433 C434 1.414 . S
C433 C436 1.499 . S
C434 H414 0.950 . S
C434 C433 1.414 . S
C434 C435 1.374 . S
C435 H415 0.950 . S
C435 C431 1.385 . S
C435 C434 1.374 . S
C436 C433 1.499 . S
C436 C437 1.373 . S
C436 C438 1.389 . S
C437 H416 0.950 . S
C437 C436 1.373 . S
C437 C453 1.377 . S
C438 C436 1.389 . S
C438 C439 1.524 . S
C438 C452 1.377 . S
C439 C438 1.524 . S
C439 C440 1.397 . S
C439 C444 1.363 . S
C440 H417 0.950 . S
C440 C439 1.397 . S
C440 C441 1.334 . S
C441 H418 0.950 . S
C441 C440 1.334 . S
C441 C442 1.287 . S
C442 C441 1.287 . S
C442 C443 1.524 . S
C442 H461 0.913 . S
C443 H419 0.950 . S
C443 C442 1.524 . S
C443 C444 1.415 . S
C444 H420 0.950 . S
C444 C439 1.363 . S
C444 C443 1.415 . S
C445 H421 0.951 . S
C445 C446 1.366 . S
C445 C447 1.388 . S
C446 C445 1.366 . S
C446 C450 1.385 . S
C447 H422 0.951 . S
C447 C445 1.388 . S
C447 C448 1.366 . S
C448 C447 1.366 . S
C448 C449 1.414 . S
C448 C451 1.499 . S
C449 H423 0.950 . S
C449 C448 1.414 . S
C449 C450 1.374 . S
C450 H424 0.950 . S
C450 C446 1.385 . S
C450 C449 1.374 . S
C451 C448 1.499 . S
C451 C452 1.373 . S
C451 C453 1.389 . S
C452 H425 0.950 . S
C452 C438 1.377 . S
C452 C451 1.373 . S
C453 C437 1.377 . S
C453 C451 1.389 . S
C453 C454 1.524 . S
C454 C453 1.524 . S
C454 C455 1.397 . S
C454 C459 1.363 . S
C455 H426 0.950 . S
C455 C454 1.397 . S
C455 C456 1.334 . S
C456 H427 0.950 . S
C456 C455 1.334 . S
C456 C457 1.287 . S
C457 C456 1.287 . S
C457 C458 1.524 . S
C457 H460 0.999 . S
C458 H428 0.950 . S
C458 C457 1.524 . S
C458 C459 1.415 . S
C459 H429 0.950 . S
C459 C454 1.363 . S
C459 C458 1.415 . S
H460 C457 0.999 . S
H461 C442 0.913 . S
H462 C480 0.951 . S
H463 C482 0.951 . S
H464 C484 0.950 . S
H465 C485 0.950 . S
H466 C487 0.950 . S
H467 C490 0.950 . S
H468 C491 0.950 . S
H469 C493 0.950 . S
H470 C494 0.950 . S
H471 C495 0.951 . S
H472 C497 0.951 . S
H473 C499 0.950 . S
H474 C500 0.950 . S
H475 C502 0.950 . S
H476 C505 0.950 . S
H477 C506 0.950 . S
H478 C508 0.950 . S
H479 C509 0.950 . S
C480 H462 0.951 . S
C480 C481 1.366 . S
C480 C482 1.388 . S
C481 C480 1.366 . S
C481 C485 1.385 . S
C482 H463 0.951 . S
C482 C480 1.388 . S
C482 C483 1.366 . S
C483 C482 1.366 . S
C483 C484 1.414 . S
C483 C486 1.499 . S
C484 H464 0.950 . S
C484 C483 1.414 . S
C484 C485 1.374 . S
C485 H465 0.950 . S
C485 C481 1.385 . S
C485 C484 1.374 . S
C486 C483 1.499 . S
C486 C487 1.373 . S
C486 C488 1.389 . S
C487 H466 0.950 . S
C487 C486 1.373 . S
C487 C503 1.377 . S
C488 C486 1.389 . S
C488 C489 1.524 . S
C488 C502 1.377 . S
C489 C488 1.524 . S
C489 C490 1.397 . S
C489 C494 1.363 . S
C490 H467 0.950 . S
C490 C489 1.397 . S
C490 C491 1.334 . S
C491 H468 0.950 . S
C491 C490 1.334 . S
C491 C492 1.287 . S
C492 C491 1.287 . S
C492 C493 1.524 . S
C492 H511 0.913 . S
C493 H469 0.950 . S
C493 C492 1.524 . S
C493 C494 1.415 . S
C494 H470 0.950 . S
C494 C489 1.363 . S
C494 C493 1.415 . S
C495 H471 0.951 . S
C495 C496 1.366 . S
C495 C497 1.388 . S
C496 C495 1.366 . S
C496 C500 1.385 . S
C497 H472 0.951 . S
C497 C495 1.388 . S
C497 C498 1.366 . S
C498 C497 1.366 . S
C498 C499 1.414 . S
C498 C501 1.499 . S
C499 H473 0.950 . S
C499 C498 1.414 . S
C499 C500 1.374 . S
C500 H474 0.950 . S
C500 C496 1.385 . S
C500 C499 1.374 . S
C501 C498 1.499 . S
C501 C502 1.373 . S
C501 C503 1.389 . S
C502 H475 0.950 . S
C502 C488 1.377 . S
C502 C501 1.373 . S
C503 C487 1.377 . S
C503 C501 1.389 . S
C503 C504 1.524 . S
C504 C503 1.524 . S
C504 C505 1.397 . S
C504 C509 1.363 . S
C505 H476 0.950 . S
C505 C504 1.397 . S
C505 C506 1.334 . S
C506 H477 0.950 . S
C506 C505 1.334 . S
C506 C507 1.287 . S
C507 C506 1.287 . S
C507 C508 1.524 . S
C507 H510 0.999 1_565 S
C508 H478 0.950 . S
C508 C507 1.524 . S
C508 C509 1.415 . S
C509 H479 0.950 . S
C509 C504 1.363 . S
C509 C508 1.415 . S
H510 C507 0.999 1_545 S
H511 C492 0.913 . S
H512 C530 0.951 . S
H513 C532 0.951 . S
H514 C534 0.950 . S
H515 C535 0.950 . S
H516 C537 0.950 . S
H517 C540 0.950 . S
H518 C541 0.950 . S
H519 C543 0.950 . S
H520 C544 0.950 . S
H521 C545 0.951 . S
H522 C547 0.951 . S
H523 C549 0.950 . S
H524 C550 0.950 . S
H525 C552 0.950 . S
H526 C555 0.950 . S
H527 C556 0.950 . S
H528 C558 0.950 . S
H529 C559 0.950 . S
C530 H512 0.951 . S
C530 C531 1.366 . S
C530 C532 1.388 . S
C531 C530 1.366 . S
C531 C535 1.385 . S
C532 H513 0.951 . S
C532 C530 1.388 . S
C532 C533 1.366 . S
C533 C532 1.366 . S
C533 C534 1.414 . S
C533 C536 1.499 . S
C534 H514 0.950 . S
C534 C533 1.414 . S
C534 C535 1.374 . S
C535 H515 0.950 . S
C535 C531 1.385 . S
C535 C534 1.374 . S
C536 C533 1.499 . S
C536 C537 1.373 . S
C536 C538 1.389 . S
C537 H516 0.950 . S
C537 C536 1.373 . S
C537 C553 1.377 . S
C538 C536 1.389 . S
C538 C539 1.524 . S
C538 C552 1.377 . S
C539 C538 1.524 . S
C539 C540 1.397 . S
C539 C544 1.363 . S
C540 H517 0.950 . S
C540 C539 1.397 . S
C540 C541 1.334 . S
C541 H518 0.950 . S
C541 C540 1.334 . S
C541 C542 1.287 . S
C542 C541 1.287 . S
C542 C543 1.524 . S
C542 H561 0.913 . S
C543 H519 0.950 . S
C543 C542 1.524 . S
C543 C544 1.415 . S
C544 H520 0.950 . S
C544 C539 1.363 . S
C544 C543 1.415 . S
C545 H521 0.951 . S
C545 C546 1.366 . S
C545 C547 1.388 . S
C546 C545 1.366 . S
C546 C550 1.385 . S
C547 H522 0.951 . S
C547 C545 1.388 . S
C547 C548 1.366 . S
C548 C547 1.366 . S
C548 C549 1.414 . S
C548 C551 1.499 . S
C549 H523 0.950 . S
C549 C548 1.414 . S
C549 C550 1.374 . S
C550 H524 0.950 . S
C550 C546 1.385 . S
C550 C549 1.374 . S
C551 C548 1.499 . S
C551 C552 1.373 . S
C551 C553 1.389 . S
C552 H525 0.950 . S
C552 C538 1.377 . S
C552 C551 1.373 . S
C553 C537 1.377 . S
C553 C551 1.389 . S
C553 C554 1.524 . S
C554 C553 1.524 . S
C554 C555 1.397 . S
C554 C559 1.363 . S
C555 H526 0.950 . S
C555 C554 1.397 . S
C555 C556 1.334 . S
C556 H527 0.950 . S
C556 C555 1.334 . S
C556 C557 1.287 . S
C557 C556 1.287 . S
C557 C558 1.524 . S
C557 H560 0.999 . S
C558 H528 0.950 . S
C558 C557 1.524 . S
C558 C559 1.415 . S
C559 H529 0.950 . S
C559 C554 1.363 . S
C559 C558 1.415 . S
H560 C557 0.999 . S
H561 C542 0.913 . S
H562 C580 0.951 . S
H563 C582 0.951 . S
H564 C584 0.950 . S
H565 C585 0.950 . S
H566 C587 0.950 . S
H567 C590 0.950 . S
H568 C591 0.950 . S
H569 C593 0.950 . S
H570 C594 0.950 . S
H571 C595 0.951 . S
H572 C597 0.951 . S
H573 C599 0.950 . S
H574 C600 0.950 . S
H575 C602 0.950 . S
H576 C605 0.950 . S
H577 C606 0.950 . S
H578 C608 0.950 . S
H579 C609 0.950 . S
C580 H562 0.951 . S
C580 C581 1.366 . S
C580 C582 1.388 . S
C581 C580 1.366 . S
C581 C585 1.385 . S
C582 H563 0.951 . S
C582 C580 1.388 . S
C582 C583 1.366 . S
C583 C582 1.366 . S
C583 C584 1.414 . S
C583 C586 1.499 . S
C584 H564 0.950 . S
C584 C583 1.414 . S
C584 C585 1.374 . S
C585 H565 0.950 . S
C585 C581 1.385 . S
C585 C584 1.374 . S
C586 C583 1.499 . S
C586 C587 1.373 . S
C586 C588 1.389 . S
C587 H566 0.950 . S
C587 C586 1.373 . S
C587 C603 1.377 . S
C588 C586 1.389 . S
C588 C589 1.524 . S
C588 C602 1.377 . S
C589 C588 1.524 . S
C589 C590 1.397 . S
C589 C594 1.363 . S
C590 H567 0.950 . S
C590 C589 1.397 . S
C590 C591 1.334 1_455 S
C591 H568 0.950 . S
C591 C590 1.334 1_655 S
C591 C592 1.287 . S
C592 C591 1.287 . S
C592 C593 1.524 1_655 S
C592 H611 0.913 . S
C593 H569 0.950 . S
C593 C592 1.524 1_455 S
C593 C594 1.415 . S
C594 H570 0.950 . S
C594 C589 1.363 . S
C594 C593 1.415 . S
C595 H571 0.951 . S
C595 C596 1.366 . S
C595 C597 1.388 . S
C596 C595 1.366 . S
C596 C600 1.385 . S
C597 H572 0.951 . S
C597 C595 1.388 . S
C597 C598 1.366 . S
C598 C597 1.366 . S
C598 C599 1.414 . S
C598 C601 1.499 . S
C599 H573 0.950 . S
C599 C598 1.414 . S
C599 C600 1.374 . S
C600 H574 0.950 . S
C600 C596 1.385 . S
C600 C599 1.374 . S
C601 C598 1.499 . S
C601 C602 1.373 . S
C601 C603 1.389 . S
C602 H575 0.950 . S
C602 C588 1.377 . S
C602 C601 1.373 . S
C603 C587 1.377 . S
C603 C601 1.389 . S
C603 C604 1.524 . S
C604 C603 1.524 . S
C604 C605 1.397 . S
C604 C609 1.363 . S
C605 H576 0.950 . S
C605 C604 1.397 . S
C605 C606 1.334 . S
C606 H577 0.950 . S
C606 C605 1.334 . S
C606 C607 1.287 . S
C607 C606 1.287 . S
C607 C608 1.524 . S
C607 H610 0.999 . S
C608 H578 0.950 . S
C608 C607 1.524 . S
C608 C609 1.415 . S
C609 H579 0.950 . S
C609 C604 1.363 . S
C609 C608 1.415 . S
H610 C607 0.999 . S
H611 C592 0.913 . S
H612 C630 0.951 . S
H613 C632 0.951 . S
H614 C634 0.950 . S
H615 C635 0.950 . S
H616 C637 0.950 . S
H617 C640 0.950 . S
H618 C641 0.950 . S
H619 C643 0.950 . S
H620 C644 0.950 . S
H621 C645 0.951 . S
H622 C647 0.951 . S
H623 C649 0.950 . S
H624 C650 0.950 . S
H625 C652 0.950 . S
H626 C655 0.950 . S
H627 C656 0.950 . S
H628 C658 0.950 1_565 S
H629 C659 0.950 . S
C630 H612 0.951 . S
C630 C631 1.366 . S
C630 C632 1.388 . S
C631 C630 1.366 . S
C631 C635 1.385 . S
C632 H613 0.951 . S
C632 C630 1.388 . S
C632 C633 1.366 . S
C633 C632 1.366 . S
C633 C634 1.414 . S
C633 C636 1.499 . S
C634 H614 0.950 . S
C634 C633 1.414 . S
C634 C635 1.374 . S
C635 H615 0.950 . S
C635 C631 1.385 . S
C635 C634 1.374 . S
C636 C633 1.499 . S
C636 C637 1.373 . S
C636 C638 1.389 . S
C637 H616 0.950 . S
C637 C636 1.373 . S
C637 C653 1.377 . S
C638 C636 1.389 . S
C638 C639 1.524 . S
C638 C652 1.377 . S
C639 C638 1.524 . S
C639 C640 1.397 . S
C639 C644 1.363 . S
C640 H617 0.950 . S
C640 C639 1.397 . S
C640 C641 1.334 . S
C641 H618 0.950 . S
C641 C640 1.334 . S
C641 C642 1.287 . S
C642 C641 1.287 . S
C642 C643 1.524 . S
C642 H661 0.913 . S
C643 H619 0.950 . S
C643 C642 1.524 . S
C643 C644 1.415 . S
C644 H620 0.950 . S
C644 C639 1.363 . S
C644 C643 1.415 . S
C645 H621 0.951 . S
C645 C646 1.366 . S
C645 C647 1.388 . S
C646 C645 1.366 . S
C646 C650 1.385 . S
C647 H622 0.951 . S
C647 C645 1.388 . S
C647 C648 1.366 . S
C648 C647 1.366 . S
C648 C649 1.414 . S
C648 C651 1.499 . S
C649 H623 0.950 . S
C649 C648 1.414 . S
C649 C650 1.374 . S
C650 H624 0.950 . S
C650 C646 1.385 . S
C650 C649 1.374 . S
C651 C648 1.499 . S
C651 C652 1.373 . S
C651 C653 1.389 . S
C652 H625 0.950 . S
C652 C638 1.377 . S
C652 C651 1.373 . S
C653 C637 1.377 . S
C653 C651 1.389 . S
C653 C654 1.524 . S
C654 C653 1.524 . S
C654 C655 1.397 . S
C654 C659 1.363 . S
C655 H626 0.950 . S
C655 C654 1.397 . S
C655 C656 1.334 . S
C656 H627 0.950 . S
C656 C655 1.334 . S
C656 C657 1.287 . S
C657 C656 1.287 . S
C657 C658 1.524 . S
C657 H660 0.999 . S
C658 H628 0.950 1_545 S
C658 C657 1.524 . S
C658 C659 1.415 . S
C659 H629 0.950 . S
C659 C654 1.363 . S
C659 C658 1.415 . S
H660 C657 0.999 . S
H661 C642 0.913 . S
H662 C680 0.951 . S
H663 C682 0.951 . S
H664 C684 0.950 . S
H665 C685 0.950 . S
H666 C687 0.950 . S
H667 C690 0.950 . S
H668 C691 0.950 . S
H669 C693 0.950 . S
H670 C694 0.950 . S
H671 C695 0.951 . S
H672 C697 0.951 . S
H673 C699 0.950 . S
H674 C700 0.950 . S
H675 C702 0.950 . S
H676 C705 0.950 . S
H677 C706 0.950 . S
H678 C708 0.950 . S
H679 C709 0.950 . S
C680 H662 0.951 . S
C680 C681 1.366 . S
C680 C682 1.388 . S
C681 C680 1.366 . S
C681 C685 1.385 . S
C682 H663 0.951 . S
C682 C680 1.388 . S
C682 C683 1.366 . S
C683 C682 1.366 . S
C683 C684 1.414 . S
C683 C686 1.499 . S
C684 H664 0.950 . S
C684 C683 1.414 . S
C684 C685 1.374 . S
C685 H665 0.950 . S
C685 C681 1.385 . S
C685 C684 1.374 . S
C686 C683 1.499 . S
C686 C687 1.373 . S
C686 C688 1.389 . S
C687 H666 0.950 . S
C687 C686 1.373 . S
C687 C703 1.377 . S
C688 C686 1.389 . S
C688 C689 1.524 . S
C688 C702 1.377 . S
C689 C688 1.524 . S
C689 C690 1.397 . S
C689 C694 1.363 . S
C690 H667 0.950 . S
C690 C689 1.397 . S
C690 C691 1.334 . S
C691 H668 0.950 . S
C691 C690 1.334 . S
C691 C692 1.287 . S
C692 C691 1.287 . S
C692 C693 1.524 . S
C692 H711 0.913 . S
C693 H669 0.950 . S
C693 C692 1.524 . S
C693 C694 1.415 . S
C694 H670 0.950 . S
C694 C689 1.363 . S
C694 C693 1.415 . S
C695 H671 0.951 . S
C695 C696 1.366 . S
C695 C697 1.388 . S
C696 C695 1.366 . S
C696 C700 1.385 . S
C697 H672 0.951 . S
C697 C695 1.388 . S
C697 C698 1.366 . S
C698 C697 1.366 . S
C698 C699 1.414 . S
C698 C701 1.499 . S
C699 H673 0.950 . S
C699 C698 1.414 . S
C699 C700 1.374 . S
C700 H674 0.950 . S
C700 C696 1.385 . S
C700 C699 1.374 . S
C701 C698 1.499 . S
C701 C702 1.373 . S
C701 C703 1.389 . S
C702 H675 0.950 . S
C702 C688 1.377 . S
C702 C701 1.373 . S
C703 C687 1.377 . S
C703 C701 1.389 . S
C703 C704 1.524 . S
C704 C703 1.524 . S
C704 C705 1.397 . S
C704 C709 1.363 . S
C705 H676 0.950 . S
C705 C704 1.397 . S
C705 C706 1.334 . S
C706 H677 0.950 . S
C706 C705 1.334 . S
C706 C707 1.287 . S
C707 C706 1.287 . S
C707 C708 1.524 . S
C707 H710 0.999 . S
C708 H678 0.950 . S
C708 C707 1.524 . S
C708 C709 1.415 . S
C709 H679 0.950 . S
C709 C704 1.363 . S
C709 C708 1.415 . S
H710 C707 0.999 . S
H711 C692 0.913 . S
H712 C730 0.951 . S
H713 C732 0.951 . S
H714 C734 0.950 . S
H715 C735 0.950 . S
H716 C737 0.950 . S
H717 C740 0.950 . S
H718 C741 0.950 . S
H719 C743 0.950 . S
H720 C744 0.950 . S
H721 C745 0.951 . S
H722 C747 0.951 . S
H723 C749 0.950 . S
H724 C750 0.950 . S
H725 C752 0.950 . S
H726 C755 0.950 . S
H727 C756 0.950 . S
H728 C758 0.950 . S
H729 C759 0.950 . S
C730 H712 0.951 . S
C730 C731 1.366 . S
C730 C732 1.388 . S
C731 C730 1.366 . S
C731 C735 1.385 . S
C732 H713 0.951 . S
C732 C730 1.388 . S
C732 C733 1.366 . S
C733 C732 1.366 . S
C733 C734 1.414 . S
C733 C736 1.499 . S
C734 H714 0.950 . S
C734 C733 1.414 . S
C734 C735 1.374 . S
C735 H715 0.950 . S
C735 C731 1.385 . S
C735 C734 1.374 . S
C736 C733 1.499 . S
C736 C737 1.373 . S
C736 C738 1.389 . S
C737 H716 0.950 . S
C737 C736 1.373 . S
C737 C753 1.377 . S
C738 C736 1.389 . S
C738 C739 1.524 . S
C738 C752 1.377 . S
C739 C738 1.524 . S
C739 C740 1.397 1_655 S
C739 C744 1.363 . S
C740 H717 0.950 . S
C740 C739 1.397 1_455 S
C740 C741 1.334 . S
C741 H718 0.950 . S
C741 C740 1.334 . S
C741 C742 1.287 . S
C742 C741 1.287 . S
C742 C743 1.524 . S
C742 H761 0.913 . S
C743 H719 0.950 . S
C743 C742 1.524 . S
C743 C744 1.415 1_455 S
C744 H720 0.950 . S
C744 C739 1.363 . S
C744 C743 1.415 1_655 S
C745 H721 0.951 . S
C745 C746 1.366 . S
C745 C747 1.388 . S
C746 C745 1.366 . S
C746 C750 1.385 . S
C747 H722 0.951 . S
C747 C745 1.388 . S
C747 C748 1.366 . S
C748 C747 1.366 . S
C748 C749 1.414 . S
C748 C751 1.499 . S
C749 H723 0.950 . S
C749 C748 1.414 . S
C749 C750 1.374 . S
C750 H724 0.950 . S
C750 C746 1.385 . S
C750 C749 1.374 . S
C751 C748 1.499 . S
C751 C752 1.373 . S
C751 C753 1.389 . S
C752 H725 0.950 . S
C752 C738 1.377 . S
C752 C751 1.373 . S
C753 C737 1.377 . S
C753 C751 1.389 . S
C753 C754 1.524 . S
C754 C753 1.524 . S
C754 C755 1.397 . S
C754 C759 1.363 . S
C755 H726 0.950 . S
C755 C754 1.397 . S
C755 C756 1.334 . S
C756 H727 0.950 . S
C756 C755 1.334 . S
C756 C757 1.287 . S
C757 C756 1.287 . S
C757 C758 1.524 . S
C757 H760 0.999 . S
C758 H728 0.950 . S
C758 C757 1.524 . S
C758 C759 1.415 . S
C759 H729 0.950 . S
C759 C754 1.363 . S
C759 C758 1.415 . S
H760 C757 0.999 . S
H761 C742 0.913 . S
H762 C780 0.951 1_455 S
H763 C782 0.951 . S
H764 C784 0.950 . S
H765 C785 0.950 . S
H766 C787 0.950 . S
H767 C790 0.950 . S
H768 C791 0.950 1_554 S
H769 C793 0.950 . S
H770 C794 0.950 . S
H771 C795 0.951 . S
H772 C797 0.951 . S
H773 C799 0.950 . S
H774 C800 0.950 . S
H775 C802 0.950 . S
H776 C805 0.950 . S
H777 C806 0.950 . S
H778 C808 0.950 . S
H779 C809 0.950 . S
C780 H762 0.951 1_655 S
C780 C781 1.366 . S
C780 C782 1.388 . S
C781 C780 1.366 . S
C781 C785 1.385 . S
C782 H763 0.951 . S
C782 C780 1.388 . S
C782 C783 1.366 . S
C783 C782 1.366 . S
C783 C784 1.414 . S
C783 C786 1.499 . S
C784 H764 0.950 . S
C784 C783 1.414 . S
C784 C785 1.374 . S
C785 H765 0.950 . S
C785 C781 1.385 . S
C785 C784 1.374 . S
C786 C783 1.499 . S
C786 C787 1.373 . S
C786 C788 1.389 . S
C787 H766 0.950 . S
C787 C786 1.373 . S
C787 C803 1.377 . S
C788 C786 1.389 . S
C788 C789 1.524 . S
C788 C802 1.377 . S
C789 C788 1.524 . S
C789 C790 1.397 . S
C789 C794 1.363 . S
C790 H767 0.950 . S
C790 C789 1.397 . S
C790 C791 1.334 . S
C791 H768 0.950 1_556 S
C791 C790 1.334 . S
C791 C792 1.287 . S
C792 C791 1.287 . S
C792 C793 1.524 . S
C792 H811 0.913 1_556 S
C793 H769 0.950 . S
C793 C792 1.524 . S
C793 C794 1.415 . S
C794 H770 0.950 . S
C794 C789 1.363 . S
C794 C793 1.415 . S
C795 H771 0.951 . S
C795 C796 1.366 . S
C795 C797 1.388 . S
C796 C795 1.366 . S
C796 C800 1.385 . S
C797 H772 0.951 . S
C797 C795 1.388 . S
C797 C798 1.366 . S
C798 C797 1.366 . S
C798 C799 1.414 . S
C798 C801 1.499 . S
C799 H773 0.950 . S
C799 C798 1.414 . S
C799 C800 1.374 . S
C800 H774 0.950 . S
C800 C796 1.385 . S
C800 C799 1.374 . S
C801 C798 1.499 . S
C801 C802 1.373 . S
C801 C803 1.389 . S
C802 H775 0.950 . S
C802 C788 1.377 . S
C802 C801 1.373 . S
C803 C787 1.377 . S
C803 C801 1.389 . S
C803 C804 1.524 . S
C804 C803 1.524 . S
C804 C805 1.397 . S
C804 C809 1.363 . S
C805 H776 0.950 . S
C805 C804 1.397 . S
C805 C806 1.334 . S
C806 H777 0.950 . S
C806 C805 1.334 . S
C806 C807 1.287 . S
C807 C806 1.287 . S
C807 C808 1.524 . S
C807 H810 0.999 . S
C808 H778 0.950 . S
C808 C807 1.524 . S
C808 C809 1.415 . S
C809 H779 0.950 . S
C809 C804 1.363 . S
C809 C808 1.415 . S
H810 C807 0.999 . S
H811 C792 0.913 1_554 S
H812 C830 0.951 1_545 S
H813 C832 0.951 . S
H814 C834 0.950 . S
H815 C835 0.950 . S
H816 C837 0.950 . S
H817 C840 0.950 . S
H818 C841 0.950 . S
H819 C843 0.950 . S
H820 C844 0.950 . S
H821 C845 0.951 . S
H822 C847 0.951 . S
H823 C849 0.950 . S
H824 C850 0.950 . S
H825 C852 0.950 . S
H826 C855 0.950 . S
H827 C856 0.950 . S
H828 C858 0.950 . S
H829 C859 0.950 . S
C830 H812 0.951 1_565 S
C830 C831 1.366 . S
C830 C832 1.388 . S
C831 C830 1.366 . S
C831 C835 1.385 . S
C832 H813 0.951 . S
C832 C830 1.388 . S
C832 C833 1.366 . S
C833 C832 1.366 . S
C833 C834 1.414 . S
C833 C836 1.499 . S
C834 H814 0.950 . S
C834 C833 1.414 . S
C834 C835 1.374 . S
C835 H815 0.950 . S
C835 C831 1.385 . S
C835 C834 1.374 . S
C836 C833 1.499 . S
C836 C837 1.373 . S
C836 C838 1.389 . S
C837 H816 0.950 . S
C837 C836 1.373 . S
C837 C853 1.377 . S
C838 C836 1.389 . S
C838 C839 1.524 . S
C838 C852 1.377 . S
C839 C838 1.524 . S
C839 C840 1.397 . S
C839 C844 1.363 1_565 S
C840 H817 0.950 . S
C840 C839 1.397 . S
C840 C841 1.334 1_565 S
C841 H818 0.950 . S
C841 C840 1.334 1_545 S
C841 C842 1.287 . S
C842 C841 1.287 . S
C842 C843 1.524 . S
C842 H861 0.913 . S
C843 H819 0.950 . S
C843 C842 1.524 . S
C843 C844 1.415 . S
C844 H820 0.950 . S
C844 C839 1.363 1_545 S
C844 C843 1.415 . S
C845 H821 0.951 . S
C845 C846 1.366 . S
C845 C847 1.388 . S
C846 C845 1.366 . S
C846 C850 1.385 . S
C847 H822 0.951 . S
C847 C845 1.388 . S
C847 C848 1.366 . S
C848 C847 1.366 . S
C848 C849 1.414 . S
C848 C851 1.499 . S
C849 H823 0.950 . S
C849 C848 1.414 . S
C849 C850 1.374 . S
C850 H824 0.950 . S
C850 C846 1.385 . S
C850 C849 1.374 . S
C851 C848 1.499 . S
C851 C852 1.373 . S
C851 C853 1.389 . S
C852 H825 0.950 . S
C852 C838 1.377 . S
C852 C851 1.373 . S
C853 C837 1.377 . S
C853 C851 1.389 . S
C853 C854 1.524 . S
C854 C853 1.524 . S
C854 C855 1.397 . S
C854 C859 1.363 . S
C855 H826 0.950 . S
C855 C854 1.397 . S
C855 C856 1.334 . S
C856 H827 0.950 . S
C856 C855 1.334 . S
C856 C857 1.287 . S
C857 C856 1.287 . S
C857 C858 1.524 . S
C857 H860 0.999 . S
C858 H828 0.950 . S
C858 C857 1.524 . S
C858 C859 1.415 . S
C859 H829 0.950 . S
C859 C854 1.363 . S
C859 C858 1.415 . S
H860 C857 0.999 . S
H861 C842 0.913 . S
H862 C880 0.951 . S
H863 C882 0.951 . S
H864 C884 0.950 . S
H865 C885 0.950 . S
H866 C887 0.950 . S
H867 C890 0.950 . S
H868 C891 0.950 . S
H869 C893 0.950 . S
H870 C894 0.950 . S
H871 C895 0.951 . S
H872 C897 0.951 . S
H873 C899 0.950 . S
H874 C900 0.950 . S
H875 C902 0.950 . S
H876 C905 0.950 . S
H877 C906 0.950 . S
H878 C908 0.950 . S
H879 C909 0.950 . S
C880 H862 0.951 . S
C880 C881 1.366 . S
C880 C882 1.388 . S
C881 C880 1.366 . S
C881 C885 1.385 . S
C882 H863 0.951 . S
C882 C880 1.388 . S
C882 C883 1.366 . S
C883 C882 1.366 . S
C883 C884 1.414 . S
C883 C886 1.499 . S
C884 H864 0.950 . S
C884 C883 1.414 . S
C884 C885 1.374 . S
C885 H865 0.950 . S
C885 C881 1.385 . S
C885 C884 1.374 . S
C886 C883 1.499 . S
C886 C887 1.373 . S
C886 C888 1.389 . S
C887 H866 0.950 . S
C887 C886 1.373 . S
C887 C903 1.377 . S
C888 C886 1.389 . S
C888 C889 1.524 . S
C888 C902 1.377 . S
C889 C888 1.524 . S
C889 C890 1.397 . S
C889 C894 1.363 . S
C890 H867 0.950 . S
C890 C889 1.397 . S
C890 C891 1.334 . S
C891 H868 0.950 . S
C891 C890 1.334 . S
C891 C892 1.287 . S
C892 C891 1.287 . S
C892 C893 1.524 . S
C892 H911 0.913 . S
C893 H869 0.950 . S
C893 C892 1.524 . S
C893 C894 1.415 . S
C894 H870 0.950 . S
C894 C889 1.363 . S
C894 C893 1.415 . S
C895 H871 0.951 . S
C895 C896 1.366 . S
C895 C897 1.388 . S
C896 C895 1.366 . S
C896 C900 1.385 . S
C897 H872 0.951 . S
C897 C895 1.388 . S
C897 C898 1.366 . S
C898 C897 1.366 . S
C898 C899 1.414 . S
C898 C901 1.499 . S
C899 H873 0.950 . S
C899 C898 1.414 . S
C899 C900 1.374 . S
C900 H874 0.950 . S
C900 C896 1.385 . S
C900 C899 1.374 . S
C901 C898 1.499 . S
C901 C902 1.373 . S
C901 C903 1.389 . S
C902 H875 0.950 . S
C902 C888 1.377 . S
C902 C901 1.373 . S
C903 C887 1.377 . S
C903 C901 1.389 . S
C903 C904 1.524 . S
C904 C903 1.524 . S
C904 C905 1.397 . S
C904 C909 1.363 . S
C905 H876 0.950 . S
C905 C904 1.397 . S
C905 C906 1.334 . S
C906 H877 0.950 . S
C906 C905 1.334 . S
C906 C907 1.287 . S
C907 C906 1.287 . S
C907 C908 1.524 . S
C907 H910 0.999 . S
C908 H878 0.950 . S
C908 C907 1.524 . S
C908 C909 1.415 . S
C909 H879 0.950 . S
C909 C904 1.363 . S
C909 C908 1.415 . S
H910 C907 0.999 . S
H911 C892 0.913 . S
H912 C930 0.951 . S
H913 C932 0.951 . S
H914 C934 0.950 . S
H915 C935 0.950 . S
H916 C937 0.950 . S
H917 C940 0.950 . S
H918 C941 0.950 . S
H919 C943 0.950 . S
H920 C944 0.950 . S
H921 C945 0.951 . S
H922 C947 0.951 . S
H923 C949 0.950 . S
H924 C950 0.950 . S
H925 C952 0.950 . S
H926 C955 0.950 . S
H927 C956 0.950 . S
H928 C958 0.950 . S
H929 C959 0.950 . S
C930 H912 0.951 . S
C930 C931 1.366 . S
C930 C932 1.388 . S
C931 C930 1.366 . S
C931 C935 1.385 . S
C932 H913 0.951 . S
C932 C930 1.388 . S
C932 C933 1.366 . S
C933 C932 1.366 . S
C933 C934 1.414 . S
C933 C936 1.499 . S
C934 H914 0.950 . S
C934 C933 1.414 . S
C934 C935 1.374 . S
C935 H915 0.950 . S
C935 C931 1.385 . S
C935 C934 1.374 . S
C936 C933 1.499 . S
C936 C937 1.373 . S
C936 C938 1.389 . S
C937 H916 0.950 . S
C937 C936 1.373 . S
C937 C953 1.377 . S
C938 C936 1.389 . S
C938 C939 1.524 . S
C938 C952 1.377 . S
C939 C938 1.524 . S
C939 C940 1.397 . S
C939 C944 1.363 . S
C940 H917 0.950 . S
C940 C939 1.397 . S
C940 C941 1.334 . S
C941 H918 0.950 . S
C941 C940 1.334 . S
C941 C942 1.287 . S
C942 C941 1.287 . S
C942 C943 1.524 . S
C942 H961 0.913 . S
C943 H919 0.950 . S
C943 C942 1.524 . S
C943 C944 1.415 . S
C944 H920 0.950 . S
C944 C939 1.363 . S
C944 C943 1.415 . S
C945 H921 0.951 . S
C945 C946 1.366 . S
C945 C947 1.388 . S
C946 C945 1.366 . S
C946 C950 1.385 . S
C947 H922 0.951 . S
C947 C945 1.388 . S
C947 C948 1.366 . S
C948 C947 1.366 . S
C948 C949 1.414 . S
C948 C951 1.499 . S
C949 H923 0.950 . S
C949 C948 1.414 . S
C949 C950 1.374 . S
C950 H924 0.950 . S
C950 C946 1.385 . S
C950 C949 1.374 . S
C951 C948 1.499 . S
C951 C952 1.373 . S
C951 C953 1.389 . S
C952 H925 0.950 . S
C952 C938 1.377 . S
C952 C951 1.373 . S
C953 C937 1.377 . S
C953 C951 1.389 . S
C953 C954 1.524 . S
C954 C953 1.524 . S
C954 C955 1.397 . S
C954 C959 1.363 . S
C955 H926 0.950 . S
C955 C954 1.397 . S
C955 C956 1.334 . S
C956 H927 0.950 . S
C956 C955 1.334 . S
C956 C957 1.287 . S
C957 C956 1.287 . S
C957 C958 1.524 . S
C957 H960 0.999 . S
C958 H928 0.950 . S
C958 C957 1.524 . S
C958 C959 1.415 . S
C959 H929 0.950 . S
C959 C954 1.363 . S
C959 C958 1.415 . S
H960 C957 0.999 . S
H961 C942 0.913 . S
H962 C980 0.951 . S
H963 C982 0.951 . S
H964 C984 0.950 . S
H965 C985 0.950 . S
H966 C987 0.950 . S
H967 C990 0.950 . S
H968 C991 0.979 . S
H969 C993 0.950 . S
H970 C994 0.950 . S
H971 C995 0.951 . S
H972 C997 0.951 . S
H973 C999 0.950 . S
H974 C1000 0.950 . S
H975 C1002 0.950 . S
H976 C1005 0.950 . S
H977 C1006 0.950 . S
H978 C1008 0.950 . S
H979 C1009 0.950 . S
C980 H962 0.951 . S
C980 C981 1.366 . S
C980 C982 1.388 . S
C981 C980 1.366 . S
C981 C985 1.385 . S
C982 H963 0.951 . S
C982 C980 1.388 . S
C982 C983 1.366 . S
C983 C982 1.366 . S
C983 C984 1.414 . S
C983 C986 1.499 . S
C984 H964 0.950 . S
C984 C983 1.414 . S
C984 C985 1.374 . S
C985 H965 0.950 . S
C985 C981 1.385 . S
C985 C984 1.374 . S
C986 C983 1.499 . S
C986 C987 1.373 . S
C986 C988 1.389 . S
C987 H966 0.950 . S
C987 C986 1.373 . S
C987 C1003 1.377 . S
C988 C986 1.389 . S
C988 C989 1.524 . S
C988 C1002 1.377 . S
C989 C988 1.524 . S
C989 C990 1.397 . S
C989 C994 1.363 . S
C990 H967 0.950 . S
C990 C989 1.397 . S
C990 C991 1.334 . S
C991 H968 0.979 . S
C991 C990 1.334 . S
C991 C992 1.287 . S
C992 C991 1.287 . S
C992 C993 1.524 . S
C992 H1011 0.913 . S
C993 H969 0.950 . S
C993 C992 1.524 . S
C993 C994 1.415 . S
C994 H970 0.950 . S
C994 C989 1.363 . S
C994 C993 1.415 . S
C995 H971 0.951 . S
C995 C996 1.366 . S
C995 C997 1.388 . S
C996 C995 1.366 . S
C996 C1000 1.385 . S
C997 H972 0.951 . S
C997 C995 1.388 . S
C997 C998 1.366 . S
C998 C997 1.366 . S
C998 C999 1.414 . S
C998 C1001 1.499 . S
C999 H973 0.950 . S
C999 C998 1.414 . S
C999 C1000 1.374 . S
C1000 H974 0.950 . S
C1000 C996 1.385 . S
C1000 C999 1.374 . S
C1001 C998 1.499 . S
C1001 C1002 1.373 . S
C1001 C1003 1.389 . S
C1002 H975 0.950 . S
C1002 C988 1.377 . S
C1002 C1001 1.373 . S
C1003 C987 1.377 . S
C1003 C1001 1.389 . S
C1003 C1004 1.524 . S
C1004 C1003 1.524 . S
C1004 C1005 1.397 . S
C1004 C1009 1.363 . S
C1005 H976 0.950 . S
C1005 C1004 1.397 . S
C1005 C1006 1.334 . S
C1006 H977 0.950 . S
C1006 C1005 1.334 . S
C1006 C1007 1.287 . S
C1007 C1006 1.287 . S
C1007 C1008 1.524 . S
C1007 H1010 0.999 . S
C1008 H978 0.950 . S
C1008 C1007 1.524 . S
C1008 C1009 1.415 . S
C1009 H979 0.950 . S
C1009 C1004 1.363 . S
C1009 C1008 1.415 . S
H1010 C1007 0.999 . S
H1011 C992 0.913 . S
H1012 C1030 0.951 . S
H1013 C1032 0.951 . S
H1014 C1034 0.950 . S
H1015 C1035 0.950 . S
H1016 C1037 0.950 . S
H1017 C1040 0.950 . S
H1018 C1041 0.950 . S
H1019 C1043 0.950 . S
H1020 C1044 0.950 . S
H1021 C1045 0.951 . S
H1022 C1047 0.951 . S
H1023 C1049 0.950 . S
H1024 C1050 0.950 . S
H1025 C1052 0.950 . S
H1026 C1055 0.950 . S
H1027 C1056 0.950 . S
H1028 C1058 0.950 . S
H1029 C1059 0.950 . S
C1030 H1012 0.951 . S
C1030 C1031 1.366 . S
C1030 C1032 1.388 . S
C1031 C1030 1.366 . S
C1031 C1035 1.385 . S
C1032 H1013 0.951 . S
C1032 C1030 1.388 . S
C1032 C1033 1.366 . S
C1033 C1032 1.366 . S
C1033 C1034 1.414 . S
C1033 C1036 1.499 . S
C1034 H1014 0.950 . S
C1034 C1033 1.414 . S
C1034 C1035 1.374 . S
C1035 H1015 0.950 . S
C1035 C1031 1.385 . S
C1035 C1034 1.374 . S
C1036 C1033 1.499 . S
C1036 C1037 1.373 . S
C1036 C1038 1.389 . S
C1037 H1016 0.950 . S
C1037 C1036 1.373 . S
C1037 C1053 1.377 . S
C1038 C1036 1.389 . S
C1038 C1039 1.524 . S
C1038 C1052 1.377 . S
C1039 C1038 1.524 . S
C1039 C1040 1.397 . S
C1039 C1044 1.363 . S
C1040 H1017 0.950 . S
C1040 C1039 1.397 . S
C1040 C1041 1.334 . S
C1041 H1018 0.950 . S
C1041 C1040 1.334 . S
C1041 C1042 1.287 . S
C1042 C1041 1.287 . S
C1042 C1043 1.524 . S
C1042 H1061 0.913 . S
C1043 H1019 0.950 . S
C1043 C1042 1.524 . S
C1043 C1044 1.415 . S
C1044 H1020 0.950 . S
C1044 C1039 1.363 . S
C1044 C1043 1.415 . S
C1045 H1021 0.951 . S
C1045 C1046 1.366 . S
C1045 C1047 1.388 . S
C1046 C1045 1.366 . S
C1046 C1050 1.385 . S
C1047 H1022 0.951 . S
C1047 C1045 1.388 . S
C1047 C1048 1.366 . S
C1048 C1047 1.366 . S
C1048 C1049 1.414 . S
C1048 C1051 1.499 . S
C1049 H1023 0.950 . S
C1049 C1048 1.414 . S
C1049 C1050 1.374 . S
C1050 H1024 0.950 . S
C1050 C1046 1.385 . S
C1050 C1049 1.374 . S
C1051 C1048 1.499 . S
C1051 C1052 1.373 . S
C1051 C1053 1.389 . S
C1052 H1025 0.950 . S
C1052 C1038 1.377 . S
C1052 C1051 1.373 . S
C1053 C1037 1.377 . S
C1053 C1051 1.389 . S
C1053 C1054 1.524 . S
C1054 C1053 1.524 . S
C1054 C1055 1.397 . S
C1054 C1059 1.363 . S
C1055 H1026 0.950 . S
C1055 C1054 1.397 . S
C1055 C1056 1.334 . S
C1056 H1027 0.950 . S
C1056 C1055 1.334 . S
C1056 C1057 1.287 . S
C1057 C1056 1.287 . S
C1057 C1058 1.524 . S
C1057 H1060 0.999 . S
C1058 H1028 0.950 . S
C1058 C1057 1.524 . S
C1058 C1059 1.415 . S
C1059 H1029 0.950 . S
C1059 C1054 1.363 . S
C1059 C1058 1.415 . S
H1060 C1057 0.999 . S
H1061 C1042 0.913 . S
H1062 C1080 0.951 . S
H1063 C1082 0.951 . S
H1064 C1084 0.950 . S
H1065 C1085 0.950 . S
H1066 C1087 0.950 . S
H1067 C1090 0.950 . S
H1068 C1091 0.950 . S
H1069 C1093 0.950 . S
H1070 C1094 0.950 . S
H1071 C1095 0.951 . S
H1072 C1097 0.951 . S
H1073 C1099 0.950 . S
H1074 C1100 0.950 . S
H1075 C1102 0.950 . S
H1076 C1105 0.950 . S
H1077 C1106 0.950 . S
H1078 C1108 0.950 . S
H1079 C1109 0.950 . S
C1080 H1062 0.951 . S
C1080 C1081 1.366 . S
C1080 C1082 1.388 . S
C1081 C1080 1.366 . S
C1081 C1085 1.385 . S
C1082 H1063 0.951 . S
C1082 C1080 1.388 . S
C1082 C1083 1.366 . S
C1083 C1082 1.366 . S
C1083 C1084 1.414 . S
C1083 C1086 1.499 . S
C1084 H1064 0.950 . S
C1084 C1083 1.414 . S
C1084 C1085 1.374 . S
C1085 H1065 0.950 . S
C1085 C1081 1.385 . S
C1085 C1084 1.374 . S
C1086 C1083 1.499 . S
C1086 C1087 1.373 . S
C1086 C1088 1.389 . S
C1087 H1066 0.950 . S
C1087 C1086 1.373 . S
C1087 C1103 1.377 . S
C1088 C1086 1.389 . S
C1088 C1089 1.524 . S
C1088 C1102 1.377 . S
C1089 C1088 1.524 . S
C1089 C1090 1.397 . S
C1089 C1094 1.363 . S
C1090 H1067 0.950 . S
C1090 C1089 1.397 . S
C1090 C1091 1.334 . S
C1091 H1068 0.950 . S
C1091 C1090 1.334 . S
C1091 C1092 1.287 . S
C1092 C1091 1.287 . S
C1092 C1093 1.524 . S
C1092 H1111 0.913 . S
C1093 H1069 0.950 . S
C1093 C1092 1.524 . S
C1093 C1094 1.415 . S
C1094 H1070 0.950 . S
C1094 C1089 1.363 . S
C1094 C1093 1.415 . S
C1095 H1071 0.951 . S
C1095 C1096 1.366 . S
C1095 C1097 1.388 . S
C1096 C1095 1.366 . S
C1096 C1100 1.385 . S
C1097 H1072 0.951 . S
C1097 C1095 1.388 . S
C1097 C1098 1.366 . S
C1098 C1097 1.366 . S
C1098 C1099 1.414 . S
C1098 C1101 1.499 . S
C1099 H1073 0.950 . S
C1099 C1098 1.414 . S
C1099 C1100 1.374 . S
C1100 H1074 0.950 . S
C1100 C1096 1.385 . S
C1100 C1099 1.374 . S
C1101 C1098 1.499 . S
C1101 C1102 1.373 . S
C1101 C1103 1.389 . S
C1102 H1075 0.950 . S
C1102 C1088 1.377 . S
C1102 C1101 1.373 . S
C1103 C1087 1.377 . S
C1103 C1101 1.389 . S
C1103 C1104 1.524 . S
C1104 C1103 1.524 . S
C1104 C1105 1.397 . S
C1104 C1109 1.363 . S
C1105 H1076 0.950 . S
C1105 C1104 1.397 . S
C1105 C1106 1.334 . S
C1106 H1077 0.950 . S
C1106 C1105 1.334 . S
C1106 C1107 1.287 . S
C1107 C1106 1.287 . S
C1107 C1108 1.524 . S
C1107 H1110 0.999 . S
C1108 H1078 0.950 . S
C1108 C1107 1.524 . S
C1108 C1109 1.415 . S
C1109 H1079 0.950 . S
C1109 C1104 1.363 . S
C1109 C1108 1.415 . S
H1110 C1107 0.999 . S
H1111 C1092 0.913 . S
H1112 C1130 0.951 . S
H1113 C1132 0.951 . S
H1114 C1134 0.950 . S
H1115 C1135 0.950 . S
H1116 C1137 0.950 . S
H1117 C1140 0.950 . S
H1118 C1141 0.950 . S
H1119 C1143 0.950 . S
H1120 C1144 0.950 . S
H1121 C1145 0.951 . S
H1122 C1147 0.951 . S
H1123 C1149 0.950 . S
H1124 C1150 0.950 . S
H1125 C1152 0.950 . S
H1126 C1155 0.950 . S
H1127 C1156 0.950 . S
H1128 C1158 0.950 . S
H1129 C1159 0.950 . S
C1130 H1112 0.951 . S
C1130 C1131 1.366 . S
C1130 C1132 1.388 . S
C1131 C1130 1.366 . S
C1131 C1135 1.385 . S
C1132 H1113 0.951 . S
C1132 C1130 1.388 . S
C1132 C1133 1.366 . S
C1133 C1132 1.366 . S
C1133 C1134 1.414 . S
C1133 C1136 1.499 . S
C1134 H1114 0.950 . S
C1134 C1133 1.414 . S
C1134 C1135 1.374 . S
C1135 H1115 0.950 . S
C1135 C1131 1.385 . S
C1135 C1134 1.374 . S
C1136 C1133 1.499 . S
C1136 C1137 1.373 . S
C1136 C1138 1.389 . S
C1137 H1116 0.950 . S
C1137 C1136 1.373 . S
C1137 C1153 1.377 . S
C1138 C1136 1.389 . S
C1138 C1139 1.524 . S
C1138 C1152 1.377 . S
C1139 C1138 1.524 . S
C1139 C1140 1.397 . S
C1139 C1144 1.363 . S
C1140 H1117 0.950 . S
C1140 C1139 1.397 . S
C1140 C1141 1.334 . S
C1141 H1118 0.950 . S
C1141 C1140 1.334 . S
C1141 C1142 1.287 . S
C1142 C1141 1.287 . S
C1142 C1143 1.524 . S
C1142 H1161 0.913 . S
C1143 H1119 0.950 . S
C1143 C1142 1.524 . S
C1143 C1144 1.415 . S
C1144 H1120 0.950 . S
C1144 C1139 1.363 . S
C1144 C1143 1.415 . S
C1145 H1121 0.951 . S
C1145 C1146 1.366 . S
C1145 C1147 1.388 . S
C1146 C1145 1.366 . S
C1146 C1150 1.385 . S
C1147 H1122 0.951 . S
C1147 C1145 1.388 . S
C1147 C1148 1.366 . S
C1148 C1147 1.366 . S
C1148 C1149 1.414 . S
C1148 C1151 1.499 . S
C1149 H1123 0.950 . S
C1149 C1148 1.414 . S
C1149 C1150 1.374 . S
C1150 H1124 0.950 . S
C1150 C1146 1.385 . S
C1150 C1149 1.374 . S
C1151 C1148 1.499 . S
C1151 C1152 1.373 . S
C1151 C1153 1.389 . S
C1152 H1125 0.950 . S
C1152 C1138 1.377 . S
C1152 C1151 1.373 . S
C1153 C1137 1.377 . S
C1153 C1151 1.389 . S
C1153 C1154 1.524 . S
C1154 C1153 1.524 . S
C1154 C1155 1.397 . S
C1154 C1159 1.363 . S
C1155 H1126 0.950 . S
C1155 C1154 1.397 . S
C1155 C1156 1.334 . S
C1156 H1127 0.950 . S
C1156 C1155 1.334 . S
C1156 C1157 1.287 . S
C1157 C1156 1.287 . S
C1157 C1158 1.524 . S
C1157 H1160 0.999 . S
C1158 H1128 0.950 . S
C1158 C1157 1.524 . S
C1158 C1159 1.415 . S
C1159 H1129 0.950 . S
C1159 C1154 1.363 . S
C1159 C1158 1.415 . S
H1160 C1157 0.999 . S
H1161 C1142 0.913 . S
H1162 C1180 0.951 . S
H1163 C1182 0.951 . S
H1164 C1184 0.950 . S
H1165 C1185 0.950 . S
H1166 C1187 0.950 . S
H1167 C1190 0.950 . S
H1168 C1191 0.950 . S
H1169 C1193 0.950 . S
H1170 C1194 0.950 . S
H1171 C1195 0.951 . S
H1172 C1197 0.951 . S
H1173 C1199 0.950 . S
H1174 C1200 0.950 . S
H1175 C1202 0.950 . S
H1176 C1205 0.950 . S
H1177 C1206 0.950 . S
H1178 C1208 0.950 . S
H1179 C1209 0.950 . S
C1180 H1162 0.951 . S
C1180 C1181 1.366 . S
C1180 C1182 1.388 . S
C1181 C1180 1.366 . S
C1181 C1185 1.385 . S
C1182 H1163 0.951 . S
C1182 C1180 1.388 . S
C1182 C1183 1.366 . S
C1183 C1182 1.366 . S
C1183 C1184 1.414 . S
C1183 C1186 1.499 . S
C1184 H1164 0.950 . S
C1184 C1183 1.414 . S
C1184 C1185 1.374 . S
C1185 H1165 0.950 . S
C1185 C1181 1.385 . S
C1185 C1184 1.374 . S
C1186 C1183 1.499 . S
C1186 C1187 1.373 . S
C1186 C1188 1.389 . S
C1187 H1166 0.950 . S
C1187 C1186 1.373 . S
C1187 C1203 1.377 . S
C1188 C1186 1.389 . S
C1188 C1189 1.524 . S
C1188 C1202 1.377 . S
C1189 C1188 1.524 . S
C1189 C1190 1.397 . S
C1189 C1194 1.363 . S
C1190 H1167 0.950 . S
C1190 C1189 1.397 . S
C1190 C1191 1.334 1_655 S
C1191 H1168 0.950 . S
C1191 C1190 1.334 1_455 S
C1191 C1192 1.287 . S
C1192 C1191 1.287 . S
C1192 C1193 1.524 . S
C1192 H1211 0.913 . S
C1193 H1169 0.950 . S
C1193 C1192 1.524 . S
C1193 C1194 1.415 1_455 S
C1194 H1170 0.950 . S
C1194 C1189 1.363 . S
C1194 C1193 1.415 1_655 S
C1195 H1171 0.951 . S
C1195 C1196 1.366 . S
C1195 C1197 1.388 . S
C1196 C1195 1.366 . S
C1196 C1200 1.385 . S
C1197 H1172 0.951 . S
C1197 C1195 1.388 . S
C1197 C1198 1.366 . S
C1198 C1197 1.366 . S
C1198 C1199 1.414 . S
C1198 C1201 1.499 . S
C1199 H1173 0.950 . S
C1199 C1198 1.414 . S
C1199 C1200 1.374 . S
C1200 H1174 0.950 . S
C1200 C1196 1.385 . S
C1200 C1199 1.374 . S
C1201 C1198 1.499 . S
C1201 C1202 1.373 . S
C1201 C1203 1.389 . S
C1202 H1175 0.950 . S
C1202 C1188 1.377 . S
C1202 C1201 1.373 . S
C1203 C1187 1.377 . S
C1203 C1201 1.389 . S
C1203 C1204 1.524 . S
C1204 C1203 1.524 . S
C1204 C1205 1.397 . S
C1204 C1209 1.363 . S
C1205 H1176 0.950 . S
C1205 C1204 1.397 . S
C1205 C1206 1.334 . S
C1206 H1177 0.950 . S
C1206 C1205 1.334 . S
C1206 C1207 1.287 . S
C1207 C1206 1.287 . S
C1207 C1208 1.524 . S
C1207 H1210 0.999 . S
C1208 H1178 0.950 . S
C1208 C1207 1.524 . S
C1208 C1209 1.415 . S
C1209 H1179 0.950 . S
C1209 C1204 1.363 . S
C1209 C1208 1.415 . S
H1210 C1207 0.999 . S
H1211 C1192 0.913 . S
H1212 C1230 0.951 . S
H1213 C1232 0.951 . S
H1214 C1234 0.950 . S
H1215 C1235 0.950 . S
H1216 C1237 0.950 . S
H1217 C1240 0.950 . S
H1218 C1241 0.950 . S
H1219 C1243 0.950 . S
H1220 C1244 0.950 . S
H1221 C1245 0.951 . S
H1222 C1247 0.951 . S
H1223 C1249 0.950 . S
H1224 C1250 0.950 . S
H1225 C1252 0.950 . S
H1226 C1255 0.950 . S
H1227 C1256 0.950 . S
H1228 C1258 0.950 . S
H1229 C1259 0.950 . S
C1230 H1212 0.951 . S
C1230 C1231 1.366 . S
C1230 C1232 1.388 . S
C1231 C1230 1.366 . S
C1231 C1235 1.385 . S
C1232 H1213 0.951 . S
C1232 C1230 1.388 . S
C1232 C1233 1.366 . S
C1233 C1232 1.366 . S
C1233 C1234 1.414 . S
C1233 C1236 1.499 . S
C1234 H1214 0.950 . S
C1234 C1233 1.414 . S
C1234 C1235 1.374 . S
C1235 H1215 0.950 . S
C1235 C1231 1.385 . S
C1235 C1234 1.374 . S
C1236 C1233 1.499 . S
C1236 C1237 1.373 . S
C1236 C1238 1.389 . S
C1237 H1216 0.950 . S
C1237 C1236 1.373 . S
C1237 C1253 1.377 . S
C1238 C1236 1.389 . S
C1238 C1239 1.524 . S
C1238 C1252 1.377 . S
C1239 C1238 1.524 . S
C1239 C1240 1.397 . S
C1239 C1244 1.363 . S
C1240 H1217 0.950 . S
C1240 C1239 1.397 . S
C1240 C1241 1.334 . S
C1241 H1218 0.950 . S
C1241 C1240 1.334 . S
C1241 C1242 1.287 . S
C1242 C1241 1.287 . S
C1242 C1243 1.524 . S
C1242 H1261 0.913 . S
C1243 H1219 0.950 . S
C1243 C1242 1.524 . S
C1243 C1244 1.415 . S
C1244 H1220 0.950 . S
C1244 C1239 1.363 . S
C1244 C1243 1.415 . S
C1245 H1221 0.951 . S
C1245 C1246 1.366 . S
C1245 C1247 1.388 . S
C1246 C1245 1.366 . S
C1246 C1250 1.385 . S
C1247 H1222 0.951 . S
C1247 C1245 1.388 . S
C1247 C1248 1.366 . S
C1248 C1247 1.366 . S
C1248 C1249 1.414 . S
C1248 C1251 1.499 . S
C1249 H1223 0.950 . S
C1249 C1248 1.414 . S
C1249 C1250 1.374 . S
C1250 H1224 0.950 . S
C1250 C1246 1.385 . S
C1250 C1249 1.374 . S
C1251 C1248 1.499 . S
C1251 C1252 1.373 . S
C1251 C1253 1.389 . S
C1252 H1225 0.950 . S
C1252 C1238 1.377 . S
C1252 C1251 1.373 . S
C1253 C1237 1.377 . S
C1253 C1251 1.389 . S
C1253 C1254 1.524 . S
C1254 C1253 1.524 . S
C1254 C1255 1.397 . S
C1254 C1259 1.363 . S
C1255 H1226 0.950 . S
C1255 C1254 1.397 . S
C1255 C1256 1.334 . S
C1256 H1227 0.950 . S
C1256 C1255 1.334 . S
C1256 C1257 1.287 . S
C1257 C1256 1.287 . S
C1257 C1258 1.524 . S
C1257 H1260 0.999 . S
C1258 H1228 0.950 . S
C1258 C1257 1.524 . S
C1258 C1259 1.415 . S
C1259 H1229 0.950 . S
C1259 C1254 1.363 . S
C1259 C1258 1.415 . S
H1260 C1257 0.999 . S
H1261 C1242 0.913 . S
H1262 C1280 0.951 . S
H1263 C1282 0.951 . S
H1264 C1284 0.950 . S
H1265 C1285 0.950 . S
H1266 C1287 0.950 . S
H1267 C1290 0.950 . S
H1268 C1291 0.950 . S
H1269 C1293 0.950 . S
H1270 C1294 0.950 . S
H1271 C1295 0.951 . S
H1272 C1297 0.951 . S
H1273 C1299 0.950 . S
H1274 C1300 0.950 . S
H1275 C1302 0.950 . S
H1276 C1305 0.950 . S
H1277 C1306 0.950 . S
H1278 C1308 0.950 . S
H1279 C1309 0.950 . S
C1280 H1262 0.951 . S
C1280 C1281 1.366 . S
C1280 C1282 1.388 . S
C1281 C1280 1.366 . S
C1281 C1285 1.385 . S
C1282 H1263 0.951 . S
C1282 C1280 1.388 . S
C1282 C1283 1.366 . S
C1283 C1282 1.366 . S
C1283 C1284 1.414 . S
C1283 C1286 1.499 . S
C1284 H1264 0.950 . S
C1284 C1283 1.414 . S
C1284 C1285 1.374 . S
C1285 H1265 0.950 . S
C1285 C1281 1.385 . S
C1285 C1284 1.374 . S
C1286 C1283 1.499 . S
C1286 C1287 1.373 . S
C1286 C1288 1.389 . S
C1287 H1266 0.950 . S
C1287 C1286 1.373 . S
C1287 C1303 1.377 . S
C1288 C1286 1.389 . S
C1288 C1289 1.524 . S
C1288 C1302 1.377 . S
C1289 C1288 1.524 . S
C1289 C1290 1.397 . S
C1289 C1294 1.363 . S
C1290 H1267 0.950 . S
C1290 C1289 1.397 . S
C1290 C1291 1.334 . S
C1291 H1268 0.950 . S
C1291 C1290 1.334 . S
C1291 C1292 1.287 . S
C1292 C1291 1.287 . S
C1292 C1293 1.524 . S
C1292 H1311 0.913 . S
C1293 H1269 0.950 . S
C1293 C1292 1.524 . S
C1293 C1294 1.415 . S
C1294 H1270 0.950 . S
C1294 C1289 1.363 . S
C1294 C1293 1.415 . S
C1295 H1271 0.951 . S
C1295 C1296 1.366 . S
C1295 C1297 1.388 . S
C1296 C1295 1.366 . S
C1296 C1300 1.385 . S
C1297 H1272 0.951 . S
C1297 C1295 1.388 . S
C1297 C1298 1.366 . S
C1298 C1297 1.366 . S
C1298 C1299 1.414 . S
C1298 C1301 1.499 . S
C1299 H1273 0.950 . S
C1299 C1298 1.414 . S
C1299 C1300 1.374 . S
C1300 H1274 0.950 . S
C1300 C1296 1.385 . S
C1300 C1299 1.374 . S
C1301 C1298 1.499 . S
C1301 C1302 1.373 . S
C1301 C1303 1.389 . S
C1302 H1275 0.950 . S
C1302 C1288 1.377 . S
C1302 C1301 1.373 . S
C1303 C1287 1.377 . S
C1303 C1301 1.389 . S
C1303 C1304 1.524 . S
C1304 C1303 1.524 . S
C1304 C1305 1.397 . S
C1304 C1309 1.363 . S
C1305 H1276 0.950 . S
C1305 C1304 1.397 . S
C1305 C1306 1.334 . S
C1306 H1277 0.950 . S
C1306 C1305 1.334 . S
C1306 C1307 1.287 . S
C1307 C1306 1.287 . S
C1307 C1308 1.524 . S
C1307 H1310 0.999 . S
C1308 H1278 0.950 . S
C1308 C1307 1.524 . S
C1308 C1309 1.415 . S
C1309 H1279 0.950 . S
C1309 C1304 1.363 . S
C1309 C1308 1.415 . S
H1310 C1307 0.999 . S
H1311 C1292 0.913 . S
H1312 C1330 0.951 . S
H1313 C1332 0.951 . S
H1314 C1334 0.950 . S
H1315 C1335 0.950 . S
H1316 C1337 0.950 . S
H1317 C1340 0.950 . S
H1318 C1341 0.950 . S
H1319 C1343 0.950 . S
H1320 C1344 0.950 . S
H1321 C1345 0.951 . S
H1322 C1347 0.951 . S
H1323 C1349 0.950 . S
H1324 C1350 0.950 . S
H1325 C1352 0.950 . S
H1326 C1355 0.950 . S
H1327 C1356 0.950 . S
H1328 C1358 0.950 . S
H1329 C1359 0.950 . S
C1330 H1312 0.951 . S
C1330 C1331 1.366 . S
C1330 C1332 1.388 . S
C1331 C1330 1.366 . S
C1331 C1335 1.385 . S
C1332 H1313 0.951 . S
C1332 C1330 1.388 . S
C1332 C1333 1.366 . S
C1333 C1332 1.366 . S
C1333 C1334 1.414 . S
C1333 C1336 1.499 . S
C1334 H1314 0.950 . S
C1334 C1333 1.414 . S
C1334 C1335 1.374 . S
C1335 H1315 0.950 . S
C1335 C1331 1.385 . S
C1335 C1334 1.374 . S
C1336 C1333 1.499 . S
C1336 C1337 1.373 . S
C1336 C1338 1.389 . S
C1337 H1316 0.950 . S
C1337 C1336 1.373 . S
C1337 C1353 1.377 . S
C1338 C1336 1.389 . S
C1338 C1339 1.524 . S
C1338 C1352 1.377 . S
C1339 C1338 1.524 . S
C1339 C1340 1.397 . S
C1339 C1344 1.363 . S
C1340 H1317 0.950 . S
C1340 C1339 1.397 . S
C1340 C1341 1.334 . S
C1341 H1318 0.950 . S
C1341 C1340 1.334 . S
C1341 C1342 1.287 . S
C1342 C1341 1.287 . S
C1342 C1343 1.524 . S
C1342 H1361 0.913 . S
C1343 H1319 0.950 . S
C1343 C1342 1.524 . S
C1343 C1344 1.415 . S
C1344 H1320 0.950 . S
C1344 C1339 1.363 . S
C1344 C1343 1.415 . S
C1345 H1321 0.951 . S
C1345 C1346 1.366 . S
C1345 C1347 1.388 . S
C1346 C1345 1.366 . S
C1346 C1350 1.385 . S
C1347 H1322 0.951 . S
C1347 C1345 1.388 . S
C1347 C1348 1.366 . S
C1348 C1347 1.366 . S
C1348 C1349 1.414 . S
C1348 C1351 1.499 . S
C1349 H1323 0.950 . S
C1349 C1348 1.414 . S
C1349 C1350 1.374 . S
C1350 H1324 0.950 . S
C1350 C1346 1.385 . S
C1350 C1349 1.374 . S
C1351 C1348 1.499 . S
C1351 C1352 1.373 . S
C1351 C1353 1.389 . S
C1352 H1325 0.950 . S
C1352 C1338 1.377 . S
C1352 C1351 1.373 . S
C1353 C1337 1.377 . S
C1353 C1351 1.389 . S
C1353 C1354 1.524 . S
C1354 C1353 1.524 . S
C1354 C1355 1.397 . S
C1354 C1359 1.363 . S
C1355 H1326 0.950 . S
C1355 C1354 1.397 . S
C1355 C1356 1.334 . S
C1356 H1327 0.950 . S
C1356 C1355 1.334 . S
C1356 C1357 1.287 . S
C1357 C1356 1.287 . S
C1357 C1358 1.524 . S
C1357 H1360 0.999 . S
C1358 H1328 0.950 . S
C1358 C1357 1.524 . S
C1358 C1359 1.415 . S
C1359 H1329 0.950 . S
C1359 C1354 1.363 . S
C1359 C1358 1.415 . S
H1360 C1357 0.999 . S
H1361 C1342 0.913 . S
C181 C13 1.694 . S
C196 C85 1.686 . S
C231 C27 1.694 . S
C246 C98 1.687 . S
C296 C120 1.627 . S
C281 C29 1.694 . S
C346 C133 1.627 . S
C331 C54 1.694 . S
C396 C146 1.628 . S
C381 C69 1.694 . S
C446 C159 1.627 . S
C431 C83 1.694 . S
C481 C15 1.691 . S
C496 C115 1.610 . S
C531 C41 1.691 . S
C546 C128 1.611 . S
C596 C141 1.611 . S
C581 C42 1.691 . S
C646 C154 1.610 . S
C631 C57 1.691 . S
C681 C71 1.691 . S
C696 C87 1.688 . S
C746 C100 1.688 . S
C731 C1 1.691 . S
C796 C126 1.610 . S
C781 C12 1.691 . S
C831 C26 1.691 . S
C846 C139 1.611 . S
C896 C152 1.611 . S
C881 C28 1.691 . S
C931 C55 1.691 . S
C946 C89 1.688 . S
C981 C68 1.691 . S
C996 C102 1.688 . S
C1031 C82 1.691 . S
C1046 C113 1.610 . S
C1081 C14 1.694 . S
C1096 C150 1.627 . S
C1146 C94 1.686 . S
C1131 C40 1.694 . S
C1181 C43 1.694 . S
C1196 C107 1.686 . S
C1231 C56 1.694 . S
C1246 C111 1.627 . S
C1281 C70 1.694 . S
C1296 C124 1.627 . S
C1331 C0 1.694 . S
C1346 C137 1.627 . S
